data_crystal

_cell_length_a 27.13010
_cell_length_b 27.12980
_cell_length_c 27.12980
_cell_angle_alpha 109.47100
_cell_angle_beta  109.47100
_cell_angle_gamma 109.47100

_symmetry_space_group_name_	'P 1'
_symmetry_space_group_name_H-M	'P 1'

loop_
_symmetry_equiv_pos_as_xyz
  x,y,z

loop_
_atom_site_label
_atom_site_type_symbol
_atom_site_fract_x
_atom_site_fract_y
_atom_site_fract_z
_atom_site_charge
Zn	Zn	0.25000 0.37500 0.12500 1.18100
Zn	Zn	0.62500 0.37500 0.25000 1.18100
Zn	Zn	0.87500 0.12500 0.75000 1.18100
Zn	Zn	0.37500 0.62500 0.75000 1.18100
Zn	Zn	0.62500 0.25000 0.87500 1.18100
Zn	Zn	0.12500 0.87500 0.25000 1.18100
Zn	Zn	0.87500 0.75000 0.62500 1.18100
Zn	Zn	0.75000 0.62500 0.87500 1.18100
Zn	Zn	0.37500 0.75000 0.12500 1.18100
Zn	Zn	0.12500 0.25000 0.37500 1.18100
Zn	Zn	0.25000 0.87500 0.62500 1.18100
Zn	Zn	0.75000 0.12500 0.37500 1.18100
H 	H 	0.20560 0.20660 0.10860 0.08200
H 	H 	0.79840 0.76750 0.33710 0.06200
H 	H 	0.00100 0.09800 0.20660 0.08200
H 	H 	0.58280 0.23170 0.35470 0.03700
H 	H 	0.46320 0.16210 0.21550 0.08900
H 	H 	0.62980 0.90340 0.51900 0.01000
H 	H 	0.03090 0.46130 0.29840 0.06200
H 	H 	0.53680 0.83790 0.78450 0.08900
H 	H 	0.59800 0.09700 0.39140 0.08200
H 	H 	0.72810 0.85110 0.58280 0.03700
H 	H 	0.26890 0.63270 0.56380 0.03400
H 	H 	0.55070 0.78210 0.41500 0.00500
H 	H 	0.08280 0.72810 0.35110 0.03700
H 	H 	0.78450 0.33790 0.53680 0.08900
H 	H 	0.87790 0.14470 0.45740 0.01800
H 	H 	0.64470 0.26680 0.18730 0.01800
H 	H 	0.08500 0.63570 0.86710 0.00500
H 	H 	0.14890 0.91720 0.77190 0.03700
H 	H 	0.72810 0.87700 0.64530 0.03700
H 	H 	0.59700 0.49900 0.20560 0.08200
H 	H 	0.22810 0.58280 0.85110 0.03700
H 	H 	0.55070 0.76860 0.63570 0.00500
H 	H 	0.37020 0.09660 0.48100 0.01000
H 	H 	0.86380 0.63270 0.06890 0.03400
H 	H 	0.21550 0.55340 0.25230 0.08900
H 	H 	0.81270 0.57950 0.95740 0.01800
H 	H 	0.14530 0.72810 0.37700 0.03700
H 	H 	0.41500 0.13290 0.36430 0.00500
H 	H 	0.46910 0.70160 0.53870 0.06200
H 	H 	0.66210 0.96320 0.71550 0.08900
H 	H 	0.05070 0.63570 0.76860 0.00500
H 	H 	0.43620 0.86730 0.73110 0.03400
H 	H 	0.77190 0.35470 0.12300 0.03700
H 	H 	0.39140 0.59700 0.59800 0.08200
H 	H 	0.71550 0.25230 0.55340 0.08900
H 	H 	0.86730 0.63620 0.43110 0.03400
H 	H 	0.90340 0.88440 0.27360 0.01100
H 	H 	0.35530 0.62210 0.04260 0.01900
H 	H 	0.90340 0.01900 0.12980 0.01100
H 	H 	0.26860 0.05070 0.13570 0.00600
H 	H 	0.29840 0.33710 0.76750 0.06300
H 	H 	0.83710 0.03870 0.06960 0.06300
H 	H 	0.44930 0.23140 0.36430 0.00600
H 	H 	0.63270 0.56890 0.36380 0.03500
H 	H 	0.58500 0.71790 0.44930 0.00600
H 	H 	0.70510 0.43620 0.06890 0.03500
H 	H 	0.53870 0.33710 0.56960 0.06300
H 	H 	0.28450 0.74770 0.44660 0.09000
H 	H 	0.19890 0.03680 0.75230 0.09000
H 	H 	0.12210 0.85530 0.54260 0.01900
H 	H 	0.23110 0.79490 0.36380 0.03500
H 	H 	0.10860 0.40200 0.40300 0.08300
H 	H 	0.23250 0.06960 0.03090 0.06300
H 	H 	0.69890 0.75230 0.03680 0.09000
H 	H 	0.64470 0.37790 0.95740 0.01900
H 	H 	0.74770 0.80110 0.46320 0.09000
H 	H 	0.88920 0.51900 0.61560 0.01100
H 	H 	0.21790 0.08500 0.94930 0.00600
H 	H 	0.28210 0.23140 0.86710 0.00600
H 	H 	0.93040 0.46130 0.16290 0.06300
H 	H 	0.76830 0.62300 0.35110 0.03800
H 	H 	0.76890 0.20510 0.63620 0.03500
H 	H 	0.62210 0.07950 0.26680 0.01900
H 	H 	0.01900 0.38920 0.11560 0.01100
H 	H 	0.44660 0.19890 0.66210 0.09000
H 	H 	0.12300 0.85470 0.77190 0.03800
H 	H 	0.96910 0.53870 0.70160 0.06300
H 	H 	0.63620 0.93110 0.36730 0.03500
H 	H 	0.14470 0.18730 0.26680 0.01900
H 	H 	0.26830 0.91720 0.14530 0.03800
H 	H 	0.35110 0.22810 0.08280 0.03800
H 	H 	0.20510 0.13620 0.26890 0.03500
H 	H 	0.72640 0.11080 0.12980 0.01100
H 	H 	0.77360 0.87020 0.88920 0.01100
H 	H 	0.13620 0.76890 0.70510 0.03500
H 	H 	0.06960 0.53870 0.83710 0.06300
H 	H 	0.87020 0.38920 0.27360 0.01100
H 	H 	0.13270 0.76890 0.06380 0.03500
H 	H 	0.29340 0.99900 0.40200 0.08300
H 	H 	0.61560 0.59660 0.22640 0.01100
H 	H 	0.86730 0.23110 0.93620 0.03500
H 	H 	0.79840 0.03090 0.96130 0.06300
H 	H 	0.22640 0.12980 0.11080 0.01100
H 	H 	0.50100 0.20660 0.09800 0.08300
H 	H 	0.43040 0.16290 0.46130 0.06300
H 	H 	0.22640 0.09660 0.61560 0.01100
H 	H 	0.74770 0.94660 0.78450 0.09000
H 	H 	0.87700 0.73170 0.14890 0.03800
H 	H 	0.94930 0.58500 0.21790 0.00600
H 	H 	0.87020 0.48100 0.09660 0.01100
H 	H 	0.07950 0.76680 0.12210 0.01900
H 	H 	0.00100 0.90300 0.29440 0.08300
H 	H 	0.13290 0.86430 0.91500 0.00600
H 	H 	0.62980 0.72640 0.61080 0.01100
H 	H 	0.57950 0.12210 0.76680 0.01900
H 	H 	0.05070 0.41500 0.78210 0.00600
H 	H 	0.45740 0.81270 0.07950 0.01900
H 	H 	0.03680 0.78450 0.83790 0.09000
H 	H 	0.53090 0.29840 0.46130 0.06300
H 	H 	0.64530 0.37700 0.72810 0.03800
H 	H 	0.62300 0.85110 0.26830 0.03800
H 	H 	0.26750 0.29840 0.83710 0.06300
H 	H 	0.85530 0.81270 0.73320 0.01900
H 	H 	0.26680 0.57950 0.62210 0.01900
H 	H 	0.24770 0.78450 0.94660 0.09000
H 	H 	0.29490 0.73110 0.86380 0.03500
H 	H 	0.49900 0.79340 0.90200 0.08300
H 	H 	0.79440 0.79340 0.89140 0.08300
H 	H 	0.26750 0.96910 0.93040 0.06300
H 	H 	0.26830 0.35110 0.62300 0.03800
H 	H 	0.26890 0.63620 0.20510 0.03500
H 	H 	0.79490 0.93110 0.56380 0.03500
H 	H 	0.85110 0.08280 0.22810 0.03800
H 	H 	0.23140 0.36710 0.78210 0.00600
H 	H 	0.91500 0.36430 0.13290 0.00600
H 	H 	0.89140 0.29340 0.79440 0.08300
H 	H 	0.23110 0.43620 0.36730 0.03500
H 	H 	0.96320 0.74770 0.30110 0.09000
H 	H 	0.30110 0.05340 0.83790 0.09000
H 	H 	0.03090 0.56960 0.23250 0.06300
H 	H 	0.08280 0.35470 0.23170 0.03800
H 	H 	0.06890 0.13270 0.86380 0.03500
H 	H 	0.27360 0.38440 0.90340 0.01100
H 	H 	0.88440 0.77360 0.40340 0.01100
H 	H 	0.05340 0.71550 0.75230 0.09000
H 	H 	0.30110 0.24770 0.96320 0.09000
H 	H 	0.98100 0.61080 0.88440 0.01100
H 	H 	0.23250 0.16290 0.70160 0.06300
H 	H 	0.60860 0.40300 0.40200 0.08300
H 	H 	0.23320 0.85530 0.31270 0.01900
H 	H 	0.38440 0.98100 0.11080 0.01100
H 	H 	0.55340 0.80110 0.33790 0.09000
H 	H 	0.73250 0.03090 0.06960 0.06300
H 	H 	0.75230 0.21550 0.05340 0.09000
H 	H 	0.91500 0.55070 0.28210 0.00600
H 	H 	0.79340 0.40200 0.99900 0.08300
H 	H 	0.59660 0.72640 0.11560 0.01100
H 	H 	0.16210 0.71550 0.96320 0.09000
H 	H 	0.36730 0.93620 0.23110 0.03500
H 	H 	0.41720 0.76830 0.64530 0.03800
H 	H 	0.58500 0.86710 0.63570 0.00600
H 	H 	0.35470 0.73170 0.58280 0.03800
H 	H 	0.37790 0.45740 0.14470 0.01900
H 	H 	0.78450 0.44660 0.74770 0.09000
H 	H 	0.63570 0.36710 0.58500 0.00600
H 	H 	0.25230 0.05340 0.21550 0.09000
H 	H 	0.83790 0.55340 0.30110 0.09000
H 	H 	0.93620 0.73110 0.86730 0.03500
H 	H 	0.71790 0.76860 0.13290 0.00600
H 	H 	0.49900 0.70560 0.09700 0.08300
H 	H 	0.46910 0.76750 0.43040 0.06300
H 	H 	0.31270 0.95740 0.57950 0.01900
H 	H 	0.90200 0.60860 0.90300 0.08300
H 	H 	0.63570 0.26860 0.55070 0.00600
H 	H 	0.69890 0.94660 0.16210 0.09000
H 	H 	0.37790 0.92050 0.73320 0.01900
H 	H 	0.73140 0.94930 0.86430 0.00600
H 	H 	0.46130 0.79840 0.53090 0.06300
H 	H 	0.40300 0.50100 0.79440 0.08300
H 	H 	0.70510 0.26890 0.13620 0.03500
H 	H 	0.40340 0.12980 0.01900 0.01100
H 	H 	0.76830 0.14530 0.91720 0.03800
H 	H 	0.78210 0.91500 0.05070 0.00600
H 	H 	0.12300 0.26830 0.85110 0.03800
H 	H 	0.93620 0.20510 0.56890 0.03500
H 	H 	0.70660 0.00100 0.59800 0.08300
H 	H 	0.36430 0.63290 0.41500 0.00600
H 	H 	0.71550 0.46320 0.66210 0.09000
H 	H 	0.13270 0.36380 0.56890 0.03500
H 	H 	0.68730 0.64470 0.76680 0.01900
H 	H 	0.10860 0.70660 0.20560 0.08300
H 	H 	0.20160 0.23250 0.66290 0.06300
H 	H 	0.06890 0.93620 0.70510 0.03500
H 	H 	0.73320 0.42050 0.37790 0.01900
H 	H 	0.99900 0.90200 0.79340 0.08300
H 	H 	0.44660 0.24770 0.28450 0.09000
H 	H 	0.87790 0.73320 0.92050 0.01900
H 	H 	0.43620 0.56890 0.20510 0.03500
H 	H 	0.94660 0.28450 0.24770 0.09000
H 	H 	0.42050 0.54260 0.68730 0.01900
H 	H 	0.86710 0.73140 0.28210 0.00600
H 	H 	0.68730 0.04260 0.42050 0.01900
H 	H 	0.03870 0.56960 0.33710 0.06300
H 	H 	0.31270 0.35530 0.23320 0.01900
H 	H 	0.11080 0.48100 0.38440 0.01100
H 	H 	0.13570 0.55070 0.26860 0.00600
H 	H 	0.76750 0.83710 0.29840 0.06300
H 	H 	0.81270 0.23320 0.35530 0.01900
H 	H 	0.38920 0.61560 0.51900 0.01100
H 	H 	0.59660 0.87020 0.98100 0.01100
H 	H 	0.18730 0.42050 0.04260 0.01900
H 	H 	0.33790 0.03680 0.28450 0.09000
H 	H 	0.40300 0.90200 0.10860 0.08300
H 	H 	0.09660 0.11560 0.72640 0.01100
H 	H 	0.29440 0.40300 0.00100 0.08300
H 	H 	0.73320 0.31270 0.85530 0.01900
H 	H 	0.85470 0.58280 0.73170 0.03800
H 	H 	0.85110 0.76830 0.12300 0.03800
H 	H 	0.92050 0.68730 0.54260 0.01900
H 	H 	0.26860 0.21790 0.63290 0.00600
H 	H 	0.88920 0.37020 0.77360 0.01100
H 	H 	0.73170 0.64890 0.37700 0.03800
H 	H 	0.20160 0.96910 0.03870 0.06300
H 	H 	0.46320 0.30110 0.74770 0.09000
H 	H 	0.48100 0.88440 0.61080 0.01100
H 	H 	0.42050 0.87790 0.23320 0.01900
H 	H 	0.51900 0.40340 0.62980 0.01100
H 	H 	0.48100 0.59660 0.37020 0.01100
H 	H 	0.04260 0.12210 0.35530 0.01900
H 	H 	0.63270 0.06380 0.76890 0.03500
H 	H 	0.86380 0.23110 0.29490 0.03500
H 	H 	0.21790 0.13290 0.76860 0.00600
H 	H 	0.24770 0.46320 0.80110 0.09000
H 	H 	0.93110 0.86730 0.13620 0.03500
H 	H 	0.59800 0.50100 0.70660 0.08300
H 	H 	0.99900 0.09700 0.70560 0.08300
H 	H 	0.70160 0.03870 0.96910 0.06300
H 	H 	0.27360 0.88920 0.87020 0.01100
H 	H 	0.86430 0.41500 0.63290 0.00600
H 	H 	0.95740 0.07950 0.81270 0.01900
H 	H 	0.06960 0.53090 0.73250 0.06300
H 	H 	0.62300 0.77190 0.85470 0.03800
H 	H 	0.94660 0.66210 0.19890 0.09000
H 	H 	0.11560 0.22640 0.59660 0.01100
H 	H 	0.73110 0.36730 0.43620 0.03500
H 	H 	0.40200 0.90300 0.60860 0.08300
H 	H 	0.29490 0.56380 0.93110 0.03500
H 	H 	0.35530 0.73320 0.81270 0.01900
H 	H 	0.27190 0.14890 0.41720 0.03800
H 	H 	0.51900 0.11560 0.38920 0.01100
H 	H 	0.64890 0.87700 0.23170 0.03800
H 	H 	0.33710 0.26750 0.79840 0.06300
H 	H 	0.28210 0.05070 0.91500 0.00600
H 	H 	0.53090 0.23250 0.56960 0.06300
H 	H 	0.37020 0.27360 0.38920 0.01100
H 	H 	0.54260 0.18730 0.92050 0.01900
H 	H 	0.20660 0.60860 0.70560 0.08300
H 	H 	0.86430 0.44930 0.73140 0.00600
H 	H 	0.96130 0.53090 0.79840 0.06300
H 	H 	0.40340 0.27360 0.88440 0.01100
H 	H 	0.53870 0.20160 0.46910 0.06300
H 	H 	0.76890 0.56380 0.63270 0.03500
H 	H 	0.76680 0.14470 0.68730 0.01900
H 	H 	0.03680 0.25230 0.69890 0.09000
H 	H 	0.92050 0.23320 0.87790 0.01900
H 	H 	0.19890 0.16210 0.94660 0.09000
H 	H 	0.25230 0.19890 0.53680 0.09000
H 	H 	0.23140 0.86430 0.94930 0.00600
H 	H 	0.43040 0.26750 0.46910 0.06300
H 	H 	0.44930 0.21790 0.58500 0.00600
H 	H 	0.20560 0.99900 0.59700 0.08300
H 	H 	0.41720 0.64890 0.27190 0.03800
H 	H 	0.94930 0.36430 0.23140 0.00600
H 	H 	0.43110 0.13620 0.86730 0.03500
H 	H 	0.80110 0.96320 0.24770 0.09000
H 	H 	0.86710 0.13570 0.08500 0.00600
H 	H 	0.28450 0.53680 0.33790 0.09000
H 	H 	0.56960 0.73250 0.53090 0.06300
H 	H 	0.95740 0.87790 0.64470 0.01900
H 	H 	0.90300 0.79440 0.50100 0.08300
H 	H 	0.64530 0.26830 0.41720 0.03800
H 	H 	0.16290 0.20160 0.73250 0.06300
H 	H 	0.09700 0.20560 0.49900 0.08300
H 	H 	0.73140 0.78210 0.36710 0.00600
H 	H 	0.11080 0.62980 0.22640 0.01100
H 	H 	0.61560 0.01900 0.88920 0.01100
H 	H 	0.72640 0.61560 0.09660 0.01100
H 	H 	0.83790 0.28450 0.03680 0.09000
H 	H 	0.07950 0.31270 0.45740 0.01900
H 	H 	0.36710 0.08500 0.13570 0.00600
H 	H 	0.64890 0.77190 0.91720 0.03800
H 	H 	0.90300 0.10860 0.90200 0.08300
H 	H 	0.29440 0.89140 0.79340 0.08300
H 	H 	0.26680 0.68730 0.14470 0.01900
H 	H 	0.88440 0.11080 0.98100 0.01100
H 	H 	0.66210 0.69890 0.44660 0.09000
H 	H 	0.76680 0.62210 0.57950 0.01900
H 	H 	0.77190 0.41720 0.14890 0.03800
H 	H 	0.50100 0.29440 0.90300 0.08300
H 	H 	0.56960 0.83710 0.53870 0.06300
H 	H 	0.96910 0.43040 0.76750 0.06300
H 	H 	0.61080 0.22640 0.62980 0.01100
H 	H 	0.46130 0.66290 0.43040 0.06300
H 	H 	0.09700 0.89140 0.09800 0.08300
H 	H 	0.23320 0.37790 0.42050 0.01900
H 	H 	0.98100 0.37020 0.59660 0.01100
H 	H 	0.91720 0.27190 0.64890 0.03800
H 	H 	0.09660 0.98100 0.87020 0.01100
H 	H 	0.60860 0.20560 0.70660 0.08300
H 	H 	0.91720 0.64530 0.76830 0.03800
H 	H 	0.14470 0.95740 0.37790 0.01900
H 	H 	0.09800 0.39140 0.09700 0.08300
H 	H 	0.73110 0.36380 0.79490 0.03500
H 	H 	0.78210 0.86710 0.23140 0.00600
H 	H 	0.38920 0.77360 0.37020 0.01100
H 	H 	0.13290 0.26860 0.71790 0.00600
H 	H 	0.77360 0.90340 0.38440 0.01100
H 	H 	0.83710 0.79840 0.26750 0.06300
H 	H 	0.36380 0.06890 0.63270 0.03500
H 	H 	0.37700 0.14890 0.73170 0.03800
H 	H 	0.23170 0.37700 0.64890 0.03800
H 	H 	0.90200 0.29340 0.49900 0.08300
H 	H 	0.85530 0.04260 0.62210 0.01900
H 	H 	0.12210 0.26680 0.07950 0.01900
H 	H 	0.76860 0.13570 0.05070 0.00600
H 	H 	0.29340 0.29440 0.39140 0.08300
H 	H 	0.14890 0.23170 0.87700 0.03800
H 	H 	0.76860 0.63290 0.21790 0.00600
H 	H 	0.16290 0.96130 0.93040 0.06300
H 	H 	0.01900 0.62980 0.40340 0.01100
H 	H 	0.36380 0.29490 0.23110 0.03500
H 	H 	0.27190 0.12300 0.35470 0.03800
H 	H 	0.29840 0.96130 0.03090 0.06300
H 	H 	0.73250 0.70160 0.16290 0.06300
H 	H 	0.96320 0.21550 0.16210 0.09000
H 	H 	0.56380 0.13270 0.26890 0.03500
H 	H 	0.36730 0.43110 0.63620 0.03500
H 	H 	0.56380 0.43110 0.79490 0.03500
H 	H 	0.70660 0.70560 0.60860 0.08300
H 	H 	0.76750 0.93040 0.96910 0.06300
H 	H 	0.87700 0.14530 0.22810 0.03800
H 	H 	0.40200 0.49900 0.29340 0.08300
H 	H 	0.75230 0.53680 0.19890 0.09000
H 	H 	0.20510 0.06890 0.43620 0.03500
H 	H 	0.21550 0.66210 0.46320 0.09000
H 	H 	0.18730 0.76680 0.64470 0.01900
H 	H 	0.22810 0.64530 0.87700 0.03800
H 	H 	0.56890 0.70510 0.93620 0.03500
H 	H 	0.70160 0.66290 0.23250 0.06300
H 	H 	0.36430 0.73140 0.44930 0.00600
H 	H 	0.06380 0.79490 0.43110 0.03500
H 	H 	0.13620 0.36730 0.93110 0.03500
H 	H 	0.16210 0.44660 0.69890 0.09000
H 	H 	0.54260 0.35530 0.12210 0.01900
H 	H 	0.63290 0.91500 0.86430 0.00600
H 	H 	0.36710 0.28210 0.73140 0.00600
H 	H 	0.79340 0.39140 0.29440 0.08300
H 	H 	0.41500 0.28210 0.55070 0.00600
H 	H 	0.58280 0.35110 0.72810 0.03800
H 	H 	0.45740 0.64470 0.87790 0.01900
H 	H 	0.80110 0.83790 0.05340 0.09000
H 	H 	0.59700 0.09800 0.89140 0.08300
H 	H 	0.70560 0.10860 0.20660 0.08300
H 	H 	0.35470 0.62300 0.27190 0.03800
H 	H 	0.14530 0.41720 0.26830 0.03800
H 	H 	0.39140 0.79440 0.29340 0.08300
H 	H 	0.85470 0.27190 0.62300 0.03800
H 	H 	0.53680 0.69890 0.25230 0.09000
H 	H 	0.73170 0.08280 0.85470 0.03800
H 	H 	0.93110 0.06380 0.29490 0.03500
H 	H 	0.79440 0.00100 0.40300 0.08300
H 	H 	0.71790 0.94930 0.08500 0.00600
H 	H 	0.05340 0.33790 0.80110 0.09000
H 	H 	0.70560 0.59700 0.99900 0.08300
H 	H 	0.08500 0.44930 0.71790 0.00600
H 	H 	0.35110 0.12300 0.76830 0.03800
H 	H 	0.38440 0.40340 0.77360 0.01100
H 	H 	0.62210 0.54260 0.85530 0.01900
H 	H 	0.04260 0.92050 0.18730 0.01900
H 	H 	0.66290 0.93040 0.96130 0.06300
H 	H 	0.13570 0.58500 0.36710 0.00600
H 	H 	0.33790 0.30110 0.55340 0.09000
H 	H 	0.66290 0.73250 0.20160 0.06300
H 	H 	0.55340 0.75230 0.71550 0.09000
H 	H 	0.63290 0.71790 0.26860 0.00600
H 	H 	0.11560 0.88920 0.01900 0.01100
H 	H 	0.20660 0.59800 0.00100 0.08300
H 	H 	0.12980 0.61080 0.72640 0.01100
H 	H 	0.09800 0.70660 0.50100 0.08300
H 	H 	0.93040 0.46910 0.26750 0.06300
H 	H 	0.23170 0.85470 0.08280 0.03800
H 	H 	0.12980 0.51900 0.90340 0.01100
H 	H 	0.33710 0.06960 0.03870 0.06300
H 	H 	0.56890 0.86380 0.13270 0.03500
H 	H 	0.89140 0.59800 0.59700 0.08300
H 	H 	0.61080 0.38440 0.48100 0.01100
H 	H 	0.79490 0.86380 0.73110 0.03500
H 	H 	0.43110 0.29490 0.06380 0.03500
H 	H 	0.96130 0.43040 0.66290 0.06300
H 	H 	0.57950 0.45740 0.31270 0.01900
H 	H 	0.06380 0.26890 0.13270 0.03500
H 	H 	0.37700 0.22810 0.14530 0.03800
H 	H 	0.03870 0.46910 0.20160 0.06300
H 	H 	0.63620 0.70510 0.76890 0.03500
C 	C 	0.79365 0.12217 0.80474 0.16200
C 	C 	0.72048 0.07750 0.13640 0.05400
C 	C 	0.79993 0.99108 0.32743 0.14400
C 	C 	0.80586 0.95630 0.60412 0.00300
C 	C 	0.37660 0.10073 0.07065 -0.12200
C 	C 	0.35702 0.41592 0.77952 0.05400
C 	C 	0.71569 0.73399 0.10566 0.05300
C 	C 	0.47373 0.18198 0.10565 -0.15400
C 	C 	0.33921 0.63660 0.01751 -0.00300
C 	C 	0.11003 0.48170 0.71569 0.05300
C 	C 	0.20825 0.02627 0.63192 -0.15400
C 	C 	0.15044 0.35218 0.95630 0.00300
C 	C 	0.70825 0.63192 0.02627 -0.15400
C 	C 	0.67148 0.98891 0.29365 0.16200
C 	C 	0.82443 0.47976 0.77567 -0.15200
C 	C 	0.29739 0.67830 0.16079 -0.00300
C 	C 	0.54370 0.84956 0.14782 0.00300
C 	C 	0.77567 0.79591 0.45124 -0.15200
C 	C 	0.29826 0.64782 0.60412 0.00300
C 	C 	0.77952 0.86360 0.92250 0.05400
C 	C 	0.30474 0.51109 0.18257 0.16200
C 	C 	0.42367 0.79175 0.31802 -0.15400
C 	C 	0.79175 0.81802 0.92367 -0.15400
C 	C 	0.89588 0.19414 0.54370 0.00300
C 	C 	0.46992 0.69405 0.57065 -0.12200
C 	C 	0.47976 0.20409 0.65533 -0.15200
C 	C 	0.88997 0.51830 0.28431 0.05300
C 	C 	0.19115 0.52750 0.70007 0.14400
C 	C 	0.60073 0.87660 0.57065 -0.12200
C 	C 	0.41592 0.13640 0.05890 0.05400
C 	C 	0.32743 0.49108 0.79993 0.14400
C 	C 	0.29365 0.48891 0.67148 0.16200
C 	C 	0.05890 0.63640 0.41592 0.05400
C 	C 	0.10566 0.87167 0.88997 0.05300
C 	C 	0.38997 0.10566 0.37167 0.05300
C 	C 	0.33635 0.50892 0.30885 0.14400
C 	C 	0.34956 0.30586 0.20174 0.00300
C 	C 	0.41592 0.27952 0.85702 0.05400
C 	C 	0.27587 0.96992 0.89927 -0.12200
C 	C 	0.84467 0.52024 0.29591 -0.15200
C 	C 	0.36340 0.88091 0.70261 -0.00300
C 	C 	0.21569 0.11003 0.98170 0.05300
C 	C 	0.92367 0.31802 0.79175 -0.15400
C 	C 	0.22048 0.13640 0.07750 0.05400
C 	C 	0.60565 0.47373 0.68198 -0.15400
C 	C 	0.81802 0.42367 0.29175 -0.15400
C 	C 	0.54876 0.84467 0.82443 -0.15200
C 	C 	0.67257 0.16365 0.97250 0.14400
C 	C 	0.88091 0.20261 0.86340 -0.00300
C 	C 	0.72433 0.54876 0.20409 -0.15200
C 	C 	0.45630 0.30586 0.10412 0.00300
C 	C 	0.69526 0.48891 0.81743 0.16200
C 	C 	0.15044 0.79826 0.69414 0.00300
C 	C 	0.25000 0.87280 0.12720 0.02100
C 	C 	0.10073 0.53008 0.72413 -0.12200
C 	C 	0.79591 0.84467 0.02024 -0.15200
C 	C 	0.98249 0.86340 0.66079 -0.00300
C 	C 	0.88997 0.37167 0.10566 0.05300
C 	C 	0.50892 0.80885 0.83635 0.14400
C 	C 	0.79826 0.19414 0.65044 0.00300
C 	C 	0.47976 0.27567 0.32443 -0.15200
C 	C 	0.61003 0.71569 0.48170 0.05300
C 	C 	0.86340 0.70261 0.88091 -0.00300
C 	C 	0.76601 0.78431 0.39434 0.05300
C 	C 	0.16079 0.98249 0.36340 -0.00300
C 	C 	0.87720 0.12720 0.25440 0.02100
C 	C 	0.97250 0.66365 0.67257 0.14400
C 	C 	0.32443 0.54876 0.34467 -0.15200
C 	C 	0.68257 0.37783 0.17148 0.16200
C 	C 	0.04876 0.82443 0.84467 -0.15200
C 	C 	0.42935 0.62340 0.39927 -0.12200
C 	C 	0.58408 0.72048 0.14298 0.05400
C 	C 	0.13192 0.20825 0.52627 -0.15400
C 	C 	0.17557 0.52024 0.22433 -0.15200
C 	C 	0.52750 0.32743 0.33635 0.14400
C 	C 	0.20825 0.18198 0.07633 -0.15400
C 	C 	0.89434 0.12833 0.11003 0.05300
C 	C 	0.89927 0.46992 0.27587 -0.12200
C 	C 	0.49108 0.19115 0.16365 0.14400
C 	C 	0.02627 0.13192 0.70825 -0.15400
C 	C 	0.02024 0.67557 0.72433 -0.15200
C 	C 	0.29993 0.97250 0.80885 0.14400
C 	C 	0.48249 0.82170 0.11909 -0.00300
C 	C 	0.25440 0.62720 0.87720 0.02100
C 	C 	0.29591 0.27567 0.95124 -0.15200
C 	C 	0.39435 0.86808 0.57633 -0.15400
C 	C 	0.02750 0.69115 0.20007 0.14400
C 	C 	0.70174 0.34956 0.80586 0.00300
C 	C 	0.80885 0.33635 0.00892 0.14400
C 	C 	0.48170 0.26601 0.37167 0.05300
C 	C 	0.35702 0.94110 0.07750 0.05400
C 	C 	0.53008 0.30595 0.42935 -0.12200
C 	C 	0.62280 0.87720 0.25000 0.02100
C 	C 	0.20635 0.87783 0.19526 0.16200
C 	C 	0.61909 0.13660 0.79739 -0.00300
C 	C 	0.07633 0.39435 0.36808 -0.15400
C 	C 	0.79993 0.80885 0.97250 0.14400
C 	C 	0.01751 0.88091 0.17830 -0.00300
C 	C 	0.92935 0.39927 0.62340 -0.12200
C 	C 	0.92250 0.55890 0.64298 0.05400
C 	C 	0.13192 0.92367 0.10565 -0.15400
C 	C 	0.24560 0.12280 0.37280 0.02100
C 	C 	0.97976 0.32443 0.27567 -0.15200
C 	C 	0.75000 0.62280 0.37720 0.02100
C 	C 	0.57750 0.35702 0.44110 0.05400
C 	C 	0.25000 0.37720 0.62280 0.02100
C 	C 	0.04370 0.89588 0.69414 0.00300
C 	C 	0.85218 0.65044 0.45630 0.00300
C 	C 	0.83921 0.82170 0.70261 -0.00300
C 	C 	0.64782 0.54370 0.34956 0.00300
C 	C 	0.35218 0.45630 0.65044 0.00300
C 	C 	0.23399 0.01830 0.12833 0.05300
C 	C 	0.69405 0.62340 0.22413 -0.12200
C 	C 	0.62833 0.39434 0.61003 0.05300
C 	C 	0.70261 0.38091 0.36340 -0.00300
C 	C 	0.92367 0.60565 0.63192 -0.15400
C 	C 	0.89927 0.42935 0.12340 -0.12200
C 	C 	0.39588 0.54370 0.19414 0.00300
C 	C 	0.81743 0.98891 0.69526 0.16200
C 	C 	0.69115 0.99108 0.66365 0.14400
C 	C 	0.20261 0.83921 0.32170 -0.00300
C 	C 	0.62340 0.72413 0.19405 -0.12200
C 	C 	0.13660 0.29739 0.11909 -0.00300
C 	C 	0.07065 0.46992 0.19405 -0.12200
C 	C 	0.05890 0.42250 0.14298 0.05400
C 	C 	0.76601 0.98170 0.87167 0.05300
C 	C 	0.29739 0.61909 0.63660 -0.00300
C 	C 	0.37167 0.60566 0.38997 0.05300
C 	C 	0.46992 0.77587 0.39927 -0.12200
C 	C 	0.97373 0.10565 0.18198 -0.15400
C 	C 	0.70409 0.97976 0.15533 -0.15200
C 	C 	0.19405 0.22413 0.62340 -0.12200
C 	C 	0.07750 0.44110 0.35702 0.05400
C 	C 	0.80595 0.03008 0.92935 -0.12200
C 	C 	0.68257 0.30474 0.01109 0.16200
C 	C 	0.12720 0.37280 0.25000 0.02100
C 	C 	0.77587 0.87660 0.30595 -0.12200
C 	C 	0.15533 0.67557 0.95124 -0.15200
C 	C 	0.10566 0.23399 0.71569 0.05300
C 	C 	0.84467 0.32443 0.04876 -0.15200
C 	C 	0.66365 0.17257 0.47250 0.14400
C 	C 	0.87280 0.62720 0.75000 0.02100
C 	C 	0.36340 0.48249 0.16079 -0.00300
C 	C 	0.83635 0.52750 0.82743 0.14400
C 	C 	0.14782 0.79826 0.10412 0.00300
C 	C 	0.92935 0.53008 0.80595 -0.12200
C 	C 	0.18257 0.01109 0.30474 0.16200
C 	C 	0.57065 0.19405 0.46992 -0.12200
C 	C 	0.89435 0.31802 0.52627 -0.15400
C 	C 	0.85218 0.20174 0.89588 0.00300
C 	C 	0.48891 0.31743 0.19526 0.16200
C 	C 	0.57750 0.22048 0.63640 0.05400
C 	C 	0.33921 0.70261 0.82170 -0.00300
C 	C 	0.17257 0.97250 0.16365 0.14400
C 	C 	0.45124 0.29591 0.77567 -0.15200
C 	C 	0.47250 0.67257 0.66365 0.14400
C 	C 	0.51830 0.78431 0.38997 0.05300
C 	C 	0.17257 0.20007 0.50892 0.14400
C 	C 	0.62217 0.29365 0.30474 0.16200
C 	C 	0.98891 0.19526 0.31743 0.16200
C 	C 	0.70007 0.02750 0.19115 0.14400
C 	C 	0.81743 0.82852 0.62217 0.16200
C 	C 	0.10412 0.80586 0.45630 0.00300
C 	C 	0.11003 0.62833 0.89434 0.05300
C 	C 	0.52627 0.81802 0.89435 -0.15400
C 	C 	0.63192 0.52627 0.20825 -0.15400
C 	C 	0.57633 0.36808 0.39435 -0.15400
C 	C 	0.34467 0.29591 0.52024 -0.15200
C 	C 	0.63192 0.10565 0.92367 -0.15400
C 	C 	0.87167 0.38997 0.60566 0.05300
C 	C 	0.17148 0.29365 0.98891 0.16200
C 	C 	0.51751 0.17830 0.88091 -0.00300
C 	C 	0.64298 0.58408 0.22048 0.05400
C 	C 	0.70635 0.19526 0.87783 0.16200
C 	C 	0.52627 0.70825 0.13192 -0.15400
C 	C 	0.12340 0.92935 0.89927 -0.12200
C 	C 	0.69414 0.29826 0.15044 0.00300
C 	C 	0.95630 0.10412 0.30586 0.00300
C 	C 	0.39435 0.52627 0.31802 -0.15400
C 	C 	0.08408 0.94110 0.86360 0.05400
C 	C 	0.63640 0.91592 0.55890 0.05400
C 	C 	0.69115 0.70007 0.52750 0.14400
C 	C 	0.86360 0.44110 0.08408 0.05400
C 	C 	0.65533 0.95124 0.67557 -0.15200
C 	C 	0.01751 0.13660 0.33921 -0.00300
C 	C 	0.84956 0.20174 0.30586 0.00300
C 	C 	0.07065 0.60073 0.37660 -0.12200
C 	C 	0.11909 0.79739 0.13660 -0.00300
C 	C 	0.20007 0.00892 0.67257 0.14400
C 	C 	0.07633 0.68198 0.20825 -0.15400
C 	C 	0.19414 0.15044 0.29826 0.00300
C 	C 	0.95124 0.17557 0.15533 -0.15200
C 	C 	0.99108 0.82743 0.29993 0.14400
C 	C 	0.92250 0.36360 0.77952 0.05400
C 	C 	0.62720 0.37720 0.75440 0.02100
C 	C 	0.80474 0.62217 0.79365 0.16200
C 	C 	0.28431 0.26601 0.89434 0.05300
C 	C 	0.82852 0.70635 0.01109 0.16200
C 	C 	0.63660 0.51751 0.83921 -0.00300
C 	C 	0.75000 0.12720 0.87280 0.02100
C 	C 	0.14782 0.34956 0.54370 0.00300
C 	C 	0.87660 0.80595 0.27587 -0.12200
C 	C 	0.51751 0.33921 0.13660 -0.00300
C 	C 	0.37660 0.27587 0.80595 -0.12200
C 	C 	0.38091 0.51751 0.67830 -0.00300
C 	C 	0.37783 0.67148 0.18257 0.16200
C 	C 	0.94110 0.57750 0.85702 0.05400
C 	C 	0.89435 0.57633 0.86808 -0.15400
C 	C 	0.72433 0.17557 0.02024 -0.15200
C 	C 	0.36808 0.47373 0.79175 -0.15400
C 	C 	0.68198 0.97373 0.60565 -0.15400
C 	C 	0.55890 0.14298 0.42250 0.05400
C 	C 	0.17830 0.38091 0.01751 -0.00300
C 	C 	0.30885 0.29993 0.47250 0.14400
C 	C 	0.20409 0.15533 0.97976 -0.15200
C 	C 	0.86808 0.79175 0.47373 -0.15400
C 	C 	0.45124 0.15533 0.17557 -0.15200
C 	C 	0.36360 0.08408 0.44110 0.05400
C 	C 	0.20261 0.36340 0.38091 -0.00300
C 	C 	0.52750 0.20007 0.69115 0.14400
C 	C 	0.31743 0.62217 0.82852 0.16200
C 	C 	0.42250 0.77952 0.36360 0.05400
C 	C 	0.72048 0.64298 0.08408 0.05400
C 	C 	0.57633 0.20825 0.68198 -0.15400
C 	C 	0.29591 0.02024 0.84467 -0.15200
C 	C 	0.79365 0.67148 0.48891 0.16200
C 	C 	0.04876 0.22433 0.70409 -0.15200
C 	C 	0.32170 0.33921 0.20261 -0.00300
C 	C 	0.74560 0.37280 0.12280 0.02100
C 	C 	0.87167 0.48170 0.76601 0.05300
C 	C 	0.42250 0.64298 0.55890 0.05400
C 	C 	0.79739 0.63660 0.61909 -0.00300
C 	C 	0.39927 0.12340 0.42935 -0.12200
C 	C 	0.94110 0.36360 0.58408 0.05400
C 	C 	0.79591 0.95124 0.27567 -0.15200
C 	C 	0.30586 0.60412 0.95630 0.00300
C 	C 	0.02627 0.89435 0.81802 -0.15400
C 	C 	0.30595 0.92935 0.03008 -0.12200
C 	C 	0.38091 0.86340 0.20261 -0.00300
C 	C 	0.87720 0.75000 0.12280 0.02100
C 	C 	0.08408 0.14298 0.72048 0.05400
C 	C 	0.48891 0.17148 0.79365 0.16200
C 	C 	0.32852 0.31743 0.12217 0.16200
C 	C 	0.60073 0.72413 0.53008 -0.12200
C 	C 	0.83635 0.30885 0.50892 0.14400
C 	C 	0.82743 0.79993 0.49108 0.14400
C 	C 	0.01109 0.80474 0.68257 0.16200
C 	C 	0.57065 0.37660 0.60073 -0.12200
C 	C 	0.61909 0.48249 0.32170 -0.00300
C 	C 	0.79739 0.16079 0.67830 -0.00300
C 	C 	0.19526 0.81743 0.48891 0.16200
C 	C 	0.88091 0.67830 0.51751 -0.00300
C 	C 	0.86808 0.07633 0.89435 -0.15400
C 	C 	0.55890 0.41592 0.63640 0.05400
C 	C 	0.70261 0.32170 0.83921 -0.00300
C 	C 	0.79826 0.60412 0.64782 0.00300
C 	C 	0.97976 0.65533 0.20409 -0.15200
C 	C 	0.35218 0.89588 0.20174 0.00300
C 	C 	0.16365 0.69115 0.49108 0.14400
C 	C 	0.84956 0.64782 0.04370 0.00300
C 	C 	0.89434 0.76601 0.28431 0.05300
C 	C 	0.80474 0.18257 0.51109 0.16200
C 	C 	0.64782 0.10412 0.79826 0.00300
C 	C 	0.95630 0.85218 0.15044 0.00300
C 	C 	0.01109 0.20635 0.82852 0.16200
C 	C 	0.27567 0.82443 0.97976 -0.15200
C 	C 	0.65533 0.70409 0.47976 -0.15200
C 	C 	0.20007 0.19115 0.02750 0.14400
C 	C 	0.69526 0.20635 0.37783 0.16200
C 	C 	0.30595 0.37660 0.77587 -0.12200
C 	C 	0.32852 0.01109 0.70635 0.16200
C 	C 	0.36808 0.89435 0.07633 -0.15400
C 	C 	0.85702 0.77952 0.41592 0.05400
C 	C 	0.54370 0.69414 0.89588 0.00300
C 	C 	0.13660 0.83921 0.51751 -0.00300
C 	C 	0.60412 0.45630 0.80586 0.00300
C 	C 	0.82443 0.34467 0.54876 -0.15200
C 	C 	0.95124 0.77567 0.29591 -0.15200
C 	C 	0.01830 0.62833 0.73399 0.05300
C 	C 	0.73399 0.60566 0.21569 0.05300
C 	C 	0.31802 0.02627 0.39435 -0.15400
C 	C 	0.44110 0.58408 0.36360 0.05400
C 	C 	0.67557 0.22433 0.52024 -0.15200
C 	C 	0.13640 0.57750 0.72048 0.05400
C 	C 	0.29993 0.32743 0.99108 0.14400
C 	C 	0.89588 0.70174 0.85218 0.00300
C 	C 	0.30885 0.00892 0.33635 0.14400
C 	C 	0.17148 0.87783 0.68257 0.16200
C 	C 	0.27587 0.30595 0.87660 -0.12200
C 	C 	0.66079 0.29739 0.17830 -0.00300
C 	C 	0.82743 0.02750 0.83635 0.14400
C 	C 	0.22048 0.08408 0.64298 0.05400
C 	C 	0.10565 0.42367 0.13192 -0.15400
C 	C 	0.42367 0.63192 0.60565 -0.15400
C 	C 	0.37280 0.75000 0.62720 0.02100
C 	C 	0.20174 0.39588 0.35218 0.00300
C 	C 	0.96992 0.57065 0.69405 -0.12200
C 	C 	0.67148 0.68257 0.87783 0.16200
C 	C 	0.22413 0.10073 0.03008 -0.12200
C 	C 	0.63640 0.72048 0.57750 0.05400
C 	C 	0.03008 0.42935 0.30595 -0.12200
C 	C 	0.39434 0.11003 0.12833 0.05300
C 	C 	0.07750 0.63640 0.22048 0.05400
C 	C 	0.10412 0.29826 0.14782 0.00300
C 	C 	0.14298 0.22048 0.58408 0.05400
C 	C 	0.12833 0.51830 0.23399 0.05300
C 	C 	0.12280 0.87280 0.74560 0.02100
C 	C 	0.86340 0.16079 0.48249 -0.00300
C 	C 	0.87280 0.24560 0.62280 0.02100
C 	C 	0.78431 0.89434 0.26601 0.05300
C 	C 	0.71569 0.98170 0.11003 0.05300
C 	C 	0.12217 0.30474 0.29365 0.16200
C 	C 	0.82852 0.12217 0.31743 0.16200
C 	C 	0.82170 0.61909 0.98249 -0.00300
C 	C 	0.51830 0.73399 0.62833 0.05300
C 	C 	0.98249 0.11909 0.82170 -0.00300
C 	C 	0.67257 0.50892 0.20007 0.14400
C 	C 	0.65044 0.69414 0.79826 0.00300
C 	C 	0.30474 0.79365 0.62217 0.16200
C 	C 	0.87783 0.18257 0.67148 0.16200
C 	C 	0.19414 0.04370 0.39588 0.00300
C 	C 	0.39434 0.28431 0.76601 0.05300
C 	C 	0.82170 0.20261 0.33921 -0.00300
C 	C 	0.48249 0.66079 0.86340 -0.00300
C 	C 	0.97373 0.86808 0.29175 -0.15400
C 	C 	0.66079 0.36340 0.98249 -0.00300
C 	C 	0.78431 0.88997 0.01830 0.05300
C 	C 	0.12340 0.19405 0.72413 -0.12200
C 	C 	0.60412 0.14782 0.29826 0.00300
C 	C 	0.77952 0.91592 0.35702 0.05400
C 	C 	0.62280 0.74560 0.87280 0.02100
C 	C 	0.12720 0.75440 0.37720 0.02100
C 	C 	0.51109 0.68257 0.80474 0.16200
C 	C 	0.67830 0.66079 0.79739 -0.00300
C 	C 	0.31743 0.69526 0.98891 0.16200
C 	C 	0.36360 0.27952 0.42250 0.05400
C 	C 	0.91592 0.85702 0.27952 0.05400
C 	C 	0.04370 0.14782 0.84956 0.00300
C 	C 	0.29365 0.80474 0.12217 0.16200
C 	C 	0.58408 0.86360 0.94110 0.05400
C 	C 	0.22413 0.12340 0.69405 -0.12200
C 	C 	0.20409 0.04876 0.72433 -0.15200
C 	C 	0.18257 0.17148 0.37783 0.16200
C 	C 	0.62340 0.89927 0.92935 -0.12200
C 	C 	0.65044 0.95630 0.35218 0.00300
C 	C 	0.72413 0.03008 0.10073 -0.12200
C 	C 	0.19526 0.37783 0.20635 0.16200
C 	C 	0.60565 0.13192 0.42367 -0.15400
C 	C 	0.34956 0.04370 0.64782 0.00300
C 	C 	0.75440 0.87720 0.62720 0.02100
C 	C 	0.39588 0.85218 0.70174 0.00300
C 	C 	0.01830 0.38997 0.78431 0.05300
C 	C 	0.37720 0.12280 0.75000 0.02100
C 	C 	0.28431 0.01830 0.88997 0.05300
C 	C 	0.00892 0.83635 0.80885 0.14400
C 	C 	0.34467 0.04876 0.32443 -0.15200
C 	C 	0.70409 0.72433 0.04876 -0.15200
C 	C 	0.11909 0.32170 0.48249 -0.00300
C 	C 	0.85702 0.07750 0.94110 0.05400
C 	C 	0.20635 0.32852 0.51109 0.16200
C 	C 	0.20174 0.80586 0.34956 0.00300
C 	C 	0.17830 0.79739 0.66079 -0.00300
C 	C 	0.81802 0.39435 0.02627 -0.15400
C 	C 	0.21569 0.10566 0.73399 0.05300
C 	C 	0.27567 0.45124 0.79591 -0.15200
C 	C 	0.10073 0.57065 0.87660 -0.12200
C 	C 	0.70007 0.67257 0.00892 0.14400
C 	C 	0.68198 0.70825 0.57633 -0.15400
C 	C 	0.26601 0.87167 0.98170 0.05300
C 	C 	0.17557 0.65533 0.45124 -0.15200
C 	C 	0.30586 0.70174 0.84956 0.00300
C 	C 	0.42935 0.80595 0.53008 -0.12200
C 	C 	0.19405 0.96992 0.07065 -0.12200
C 	C 	0.02024 0.34467 0.79591 -0.15200
C 	C 	0.80586 0.84956 0.70174 0.00300
C 	C 	0.02750 0.33635 0.32743 0.14400
C 	C 	0.12833 0.61003 0.39434 0.05300
C 	C 	0.62833 0.23399 0.51830 0.05300
C 	C 	0.18198 0.57633 0.70825 -0.15400
C 	C 	0.50892 0.70007 0.17257 0.14400
C 	C 	0.32443 0.77567 0.47976 -0.15200
C 	C 	0.38997 0.28431 0.51830 0.05300
C 	C 	0.12217 0.81743 0.32852 0.16200
C 	C 	0.72413 0.69405 0.12340 -0.12200
C 	C 	0.51109 0.82852 0.20635 0.16200
C 	C 	0.26601 0.39434 0.78431 0.05300
C 	C 	0.45630 0.15044 0.85218 0.00300
C 	C 	0.97250 0.30885 0.79993 0.14400
C 	C 	0.49108 0.29993 0.82743 0.14400
C 	C 	0.13640 0.55890 0.91592 0.05400
C 	C 	0.87783 0.69526 0.70635 0.16200
C 	C 	0.39927 0.27587 0.46992 -0.12200
C 	C 	0.14298 0.92250 0.05890 0.05400
C 	C 	0.83921 0.01751 0.63660 -0.00300
C 	C 	0.52024 0.72433 0.67557 -0.15200
C 	C 	0.86360 0.42250 0.27952 0.05400
C 	C 	0.19115 0.66365 0.99108 0.14400
C 	C 	0.37167 0.76601 0.48170 0.05300
C 	C 	0.70635 0.51109 0.32852 0.16200
C 	C 	0.60566 0.71569 0.23399 0.05300
C 	C 	0.16365 0.47250 0.17257 0.14400
C 	C 	0.64298 0.05890 0.92250 0.05400
C 	C 	0.96992 0.39927 0.77587 -0.12200
C 	C 	0.31802 0.29175 0.42367 -0.15400
C 	C 	0.60566 0.88997 0.87167 0.05300
C 	C 	0.98170 0.61003 0.21569 0.05300
C 	C 	0.22433 0.02024 0.17557 -0.15200
C 	C 	0.44110 0.85702 0.57750 0.05400
C 	C 	0.98891 0.79365 0.17148 0.16200
C 	C 	0.22433 0.20409 0.54876 -0.15200
C 	C 	0.62217 0.32852 0.81743 0.16200
C 	C 	0.48170 0.21569 0.61003 0.05300
C 	C 	0.69414 0.39588 0.04370 0.00300
C 	C 	0.29175 0.36808 0.97373 -0.15400
C 	C 	0.23399 0.21569 0.60566 0.05300
C 	C 	0.12280 0.25000 0.87720 0.02100
C 	C 	0.53008 0.22413 0.60073 -0.12200
C 	C 	0.47250 0.79993 0.30885 0.14400
C 	C 	0.10565 0.68198 0.47373 -0.15400
C 	C 	0.00892 0.17257 0.70007 0.14400
C 	C 	0.70825 0.07633 0.18198 -0.15400
C 	C 	0.61003 0.89434 0.62833 0.05300
C 	C 	0.69405 0.07065 0.96992 -0.12200
C 	C 	0.62720 0.25000 0.37280 0.02100
C 	C 	0.16079 0.17830 0.29739 -0.00300
C 	C 	0.79175 0.97373 0.36808 -0.15400
C 	C 	0.47373 0.29175 0.86808 -0.15400
C 	C 	0.77567 0.97976 0.82443 -0.15200
C 	C 	0.87660 0.07065 0.10073 -0.12200
C 	C 	0.98170 0.37167 0.26601 0.05300
C 	C 	0.70174 0.35218 0.39588 0.00300
C 	C 	0.99108 0.16365 0.19115 0.14400
C 	C 	0.37720 0.25440 0.12720 0.02100
C 	C 	0.27952 0.92250 0.86360 0.05400
C 	C 	0.37280 0.62280 0.24560 0.02100
C 	C 	0.67830 0.01751 0.38091 -0.00300
C 	C 	0.18198 0.60565 0.97373 -0.15400
C 	C 	0.80595 0.77587 0.37660 -0.12200
C 	C 	0.33635 0.82743 0.52750 0.14400
C 	C 	0.66365 0.49108 0.69115 0.14400
C 	C 	0.63660 0.11909 0.29739 -0.00300
C 	C 	0.73399 0.12833 0.01830 0.05300
C 	C 	0.52024 0.79591 0.34467 -0.15200
C 	C 	0.29175 0.92367 0.81802 -0.15400
C 	C 	0.67557 0.45124 0.65533 -0.15200
C 	C 	0.15533 0.47976 0.70409 -0.15200
C 	C 	0.80885 0.47250 0.29993 0.14400
C 	C 	0.91592 0.05890 0.13640 0.05400
C 	C 	0.37783 0.70635 0.69526 0.16200
C 	C 	0.77587 0.89927 0.96992 -0.12200
C 	C 	0.32170 0.98249 0.61909 -0.00300
C 	C 	0.32743 0.83635 0.02750 0.14400
C 	C 	0.54876 0.70409 0.22433 -0.15200
C 	C 	0.29826 0.65044 0.19414 0.00300
C 	C 	0.27952 0.35702 0.91592 0.05400
C 	C 	0.03008 0.60073 0.22413 -0.12200
N 	N 	0.80850 0.65550 0.96214 -0.27400
N 	N 	0.84636 0.03786 0.69336 -0.27400
N 	N 	0.25802 0.32544 0.51736 -0.10400
N 	N 	0.79666 0.64699 0.43823 -0.12800
N 	N 	0.34450 0.80664 0.15300 -0.27400
N 	N 	0.84700 0.69336 0.65550 -0.27400
N 	N 	0.46214 0.80850 0.15550 -0.27400
N 	N 	0.79051 0.25913 0.45034 -0.12900
N 	N 	0.43258 0.67456 0.19192 -0.10400
N 	N 	0.64699 0.93823 0.29666 -0.12800
N 	N 	0.25913 0.30879 0.46862 -0.12900
N 	N 	0.56177 0.70876 0.85843 -0.12800
N 	N 	0.14967 0.79124 0.35301 -0.12800
N 	N 	0.51736 0.82544 0.25802 -0.10400
N 	N 	0.19336 0.84636 0.53786 -0.27400
N 	N 	0.70334 0.56177 0.35301 -0.12800
N 	N 	0.85843 0.64967 0.79666 -0.12800
N 	N 	0.25934 0.74198 0.56742 -0.10400
N 	N 	0.84450 0.69150 0.53786 -0.27400
N 	N 	0.19121 0.95034 0.65983 -0.12900
N 	N 	0.65364 0.30664 0.96214 -0.27400
N 	N 	0.74066 0.48264 0.80808 -0.10400
N 	N 	0.29666 0.43823 0.64699 -0.12800
N 	N 	0.06177 0.20334 0.85301 -0.12800
N 	N 	0.70949 0.54966 0.74087 -0.12900
N 	N 	0.20876 0.14699 0.35033 -0.12800
N 	N 	0.01736 0.25802 0.82544 -0.10400
N 	N 	0.20876 0.06177 0.35843 -0.12800
N 	N 	0.30808 0.74066 0.98264 -0.10400
N 	N 	0.67456 0.69192 0.93258 -0.10400
N 	N 	0.64157 0.20334 0.35033 -0.12800
N 	N 	0.84017 0.80879 0.54966 -0.12900
N 	N 	0.29124 0.64967 0.85301 -0.12800
N 	N 	0.19192 0.17456 0.43258 -0.10400
N 	N 	0.75913 0.29051 0.95034 -0.12900
N 	N 	0.75934 0.19192 0.51736 -0.10400
N 	N 	0.14157 0.79124 0.43823 -0.12800
N 	N 	0.54966 0.24087 0.20949 -0.12900
N 	N 	0.74198 0.67456 0.48264 -0.10400
N 	N 	0.80879 0.75913 0.96862 -0.12900
N 	N 	0.30850 0.34636 0.15300 -0.27400
N 	N 	0.30664 0.84450 0.65300 -0.27400
N 	N 	0.17456 0.24198 0.98264 -0.10400
N 	N 	0.74066 0.25802 0.43258 -0.10400
N 	N 	0.15364 0.96214 0.30664 -0.27400
N 	N 	0.24198 0.75934 0.06742 -0.10400
N 	N 	0.34017 0.79051 0.03138 -0.12900
N 	N 	0.70949 0.15983 0.46862 -0.12900
N 	N 	0.30850 0.96214 0.65550 -0.27400
N 	N 	0.65983 0.20949 0.96862 -0.12900
N 	N 	0.98264 0.74198 0.17456 -0.10400
N 	N 	0.04966 0.84017 0.30879 -0.12900
N 	N 	0.14967 0.35843 0.29666 -0.12800
N 	N 	0.93258 0.74066 0.75802 -0.10400
N 	N 	0.85033 0.64157 0.70334 -0.12800
N 	N 	0.30808 0.56742 0.82544 -0.10400
N 	N 	0.79124 0.85301 0.64967 -0.12800
N 	N 	0.80664 0.65300 0.84450 -0.27400
N 	N 	0.35843 0.79666 0.64967 -0.12800
N 	N 	0.65550 0.19336 0.84700 -0.27400
N 	N 	0.34450 0.53786 0.69150 -0.27400
N 	N 	0.70876 0.35033 0.14699 -0.12800
N 	N 	0.80879 0.04966 0.34017 -0.12900
N 	N 	0.32544 0.30808 0.06742 -0.10400
N 	N 	0.69121 0.03138 0.24087 -0.12900
N 	N 	0.64157 0.43823 0.79124 -0.12800
N 	N 	0.19336 0.34700 0.15550 -0.27400
N 	N 	0.69192 0.43258 0.17456 -0.10400
N 	N 	0.69192 0.25934 0.01736 -0.10400
N 	N 	0.19121 0.24087 0.03138 -0.12900
N 	N 	0.46214 0.65364 0.80664 -0.27400
N 	N 	0.46862 0.80879 0.25913 -0.12900
N 	N 	0.79666 0.14967 0.85843 -0.12800
N 	N 	0.15983 0.19121 0.45034 -0.12900
N 	N 	0.79051 0.53138 0.84017 -0.12900
N 	N 	0.14699 0.29666 0.93823 -0.12800
N 	N 	0.85033 0.20876 0.64699 -0.12800
N 	N 	0.51736 0.69192 0.75934 -0.10400
N 	N 	0.48264 0.17456 0.74198 -0.10400
N 	N 	0.34700 0.65550 0.69336 -0.27400
N 	N 	0.35033 0.70334 0.64157 -0.12800
N 	N 	0.74087 0.04966 0.70949 -0.12900
N 	N 	0.29051 0.84017 0.53138 -0.12900
N 	N 	0.69336 0.15550 0.34700 -0.27400
N 	N 	0.32544 0.01736 0.75802 -0.10400
N 	N 	0.79124 0.93823 0.64157 -0.12800
N 	N 	0.14699 0.85033 0.70876 -0.12800
N 	N 	0.24066 0.80808 0.48264 -0.10400
N 	N 	0.80808 0.82544 0.56742 -0.10400
N 	N 	0.35843 0.56177 0.20876 -0.12800
N 	N 	0.69150 0.65364 0.84700 -0.27400
N 	N 	0.93823 0.79666 0.14699 -0.12800
N 	N 	0.15550 0.84700 0.19336 -0.27400
N 	N 	0.15300 0.30664 0.34450 -0.27400
N 	N 	0.74087 0.69121 0.53138 -0.12900
N 	N 	0.29666 0.85843 0.14967 -0.12800
N 	N 	0.70876 0.35843 0.06177 -0.12800
N 	N 	0.65364 0.34700 0.19150 -0.27400
N 	N 	0.34700 0.69150 0.15364 -0.27400
N 	N 	0.95034 0.15983 0.69121 -0.12900
N 	N 	0.20949 0.46862 0.15983 -0.12900
N 	N 	0.20334 0.35301 0.56177 -0.12800
N 	N 	0.84700 0.15364 0.69150 -0.27400
N 	N 	0.03138 0.29051 0.34017 -0.12900
N 	N 	0.34636 0.69336 0.03786 -0.27400
N 	N 	0.75934 0.56742 0.74198 -0.10400
N 	N 	0.53786 0.19150 0.84450 -0.27400
N 	N 	0.53138 0.34017 0.29051 -0.12900
N 	N 	0.69150 0.03786 0.34450 -0.27400
N 	N 	0.84450 0.15300 0.80664 -0.27400
N 	N 	0.54966 0.30879 0.84017 -0.12900
N 	N 	0.43823 0.29124 0.14157 -0.12800
N 	N 	0.48264 0.30808 0.24066 -0.10400
N 	N 	0.24198 0.48264 0.67456 -0.10400
N 	N 	0.24066 0.43258 0.25802 -0.10400
N 	N 	0.96214 0.80664 0.65364 -0.27400
N 	N 	0.96862 0.25913 0.80879 -0.12900
N 	N 	0.45034 0.75913 0.79051 -0.12900
N 	N 	0.69121 0.65983 0.95034 -0.12900
N 	N 	0.80808 0.98264 0.74066 -0.10400
N 	N 	0.29051 0.45034 0.25913 -0.12900
N 	N 	0.43823 0.14699 0.79666 -0.12800
N 	N 	0.64967 0.35301 0.79124 -0.12800
N 	N 	0.46862 0.65983 0.70949 -0.12900
N 	N 	0.84636 0.80850 0.65300 -0.27400
N 	N 	0.15364 0.19150 0.34700 -0.27400
N 	N 	0.06742 0.25934 0.24198 -0.10400
N 	N 	0.03786 0.84450 0.19150 -0.27400
N 	N 	0.64967 0.29666 0.35843 -0.12800
N 	N 	0.85301 0.70334 0.06177 -0.12800
N 	N 	0.96862 0.70949 0.65983 -0.12900
N 	N 	0.03138 0.74087 0.19121 -0.12900
N 	N 	0.01736 0.75934 0.69192 -0.10400
N 	N 	0.35301 0.29124 0.14967 -0.12800
N 	N 	0.25802 0.93258 0.24066 -0.10400
N 	N 	0.15550 0.30850 0.46214 -0.27400
N 	N 	0.84017 0.03138 0.79051 -0.12900
N 	N 	0.20949 0.74087 0.54966 -0.12900
N 	N 	0.15983 0.96862 0.20949 -0.12900
N 	N 	0.53786 0.34636 0.19336 -0.27400
N 	N 	0.34017 0.54966 0.80879 -0.12900
N 	N 	0.19150 0.34450 0.03786 -0.27400
N 	N 	0.96214 0.15550 0.80850 -0.27400
N 	N 	0.80664 0.15364 0.46214 -0.27400
N 	N 	0.93823 0.14157 0.29124 -0.12800
N 	N 	0.17456 0.93258 0.69192 -0.10400
N 	N 	0.56177 0.85301 0.20334 -0.12800
N 	N 	0.15300 0.84636 0.30850 -0.27400
N 	N 	0.30879 0.34017 0.04966 -0.12900
N 	N 	0.65983 0.45034 0.19121 -0.12900
N 	N 	0.95034 0.79051 0.75913 -0.12900
N 	N 	0.75802 0.24066 0.93258 -0.10400
N 	N 	0.14157 0.35033 0.20334 -0.12800
N 	N 	0.03786 0.19336 0.34636 -0.27400
N 	N 	0.70334 0.14157 0.85033 -0.12800
N 	N 	0.93258 0.19192 0.67456 -0.10400
N 	N 	0.80850 0.15300 0.34636 -0.27400
N 	N 	0.19192 0.01736 0.25934 -0.10400
N 	N 	0.06177 0.85843 0.70876 -0.12800
N 	N 	0.29124 0.64157 0.93823 -0.12800
N 	N 	0.35301 0.06177 0.70334 -0.12800
N 	N 	0.06742 0.80808 0.32544 -0.10400
N 	N 	0.56742 0.32544 0.80808 -0.10400
N 	N 	0.98264 0.24066 0.30808 -0.10400
N 	N 	0.53138 0.19121 0.74087 -0.12900
N 	N 	0.19150 0.84700 0.65364 -0.27400
N 	N 	0.24087 0.53138 0.69121 -0.12900
N 	N 	0.25934 0.51736 0.19192 -0.10400
N 	N 	0.65300 0.30850 0.84636 -0.27400
N 	N 	0.43258 0.75802 0.74066 -0.10400
N 	N 	0.82544 0.75802 0.01736 -0.10400
N 	N 	0.74198 0.06742 0.75934 -0.10400
N 	N 	0.82544 0.06742 0.30808 -0.10400
N 	N 	0.34636 0.65300 0.80850 -0.27400
N 	N 	0.56742 0.24198 0.25934 -0.10400
N 	N 	0.69336 0.53786 0.84636 -0.27400
N 	N 	0.25913 0.95034 0.29051 -0.12900
N 	N 	0.65550 0.46214 0.30850 -0.27400
N 	N 	0.64699 0.70876 0.85033 -0.12800
N 	N 	0.30879 0.96862 0.75913 -0.12900
N 	N 	0.75802 0.51736 0.32544 -0.10400
N 	N 	0.20334 0.85033 0.14157 -0.12800
N 	N 	0.85843 0.20876 0.56177 -0.12800
N 	N 	0.67456 0.98264 0.24198 -0.10400
N 	N 	0.85301 0.14967 0.29124 -0.12800
N 	N 	0.45034 0.69121 0.15983 -0.12900
N 	N 	0.65300 0.34450 0.30664 -0.27400
N 	N 	0.75913 0.46862 0.30879 -0.12900
N 	N 	0.04966 0.20949 0.24087 -0.12900
N 	N 	0.35033 0.64699 0.20876 -0.12800
N 	N 	0.24087 0.70949 0.04966 -0.12900
N 	N 	0.30664 0.46214 0.15364 -0.27400
