data_crystal

_cell_length_a 27.28950
_cell_length_b 27.28920
_cell_length_c 27.28920
_cell_angle_alpha 109.47100
_cell_angle_beta  109.47100
_cell_angle_gamma 109.47100

_symmetry_space_group_name_	'P 1'
_symmetry_space_group_name_H-M	'P 1'

loop_
_symmetry_equiv_pos_as_xyz
  x,y,z

loop_
_atom_site_label
_atom_site_type_symbol
_atom_site_fract_x
_atom_site_fract_y
_atom_site_fract_z
_atom_site_charge
Zn	Zn	0.25000 0.37500 0.12500 1.18000
Zn	Zn	0.37500 0.62500 0.75000 1.18000
Zn	Zn	0.75000 0.12500 0.37500 1.18000
Zn	Zn	0.62500 0.37500 0.25000 1.18000
Zn	Zn	0.12500 0.87500 0.25000 1.18000
Zn	Zn	0.87500 0.12500 0.75000 1.18000
Zn	Zn	0.37500 0.75000 0.12500 1.18000
Zn	Zn	0.62500 0.25000 0.87500 1.18000
Zn	Zn	0.12500 0.25000 0.37500 1.18000
Zn	Zn	0.25000 0.87500 0.62500 1.18000
Zn	Zn	0.87500 0.75000 0.62500 1.18000
Zn	Zn	0.75000 0.62500 0.87500 1.18000
H 	H 	0.85620 0.81370 0.73250 0.01800
H 	H 	0.22030 0.08770 0.95140 0.00400
H 	H 	0.10830 0.70690 0.20580 0.08300
H 	H 	0.91230 0.54860 0.27970 0.00400
H 	H 	0.61440 0.59490 0.22450 0.00800
H 	H 	0.18630 0.76750 0.64380 0.01800
H 	H 	0.48050 0.88560 0.61010 0.00800
H 	H 	0.95750 0.08120 0.81370 0.01800
H 	H 	0.12960 0.51950 0.90510 0.00800
H 	H 	0.26860 0.91600 0.14600 0.03700
H 	H 	0.33900 0.07000 0.03840 0.06400
H 	H 	0.90140 0.29310 0.49890 0.08300
H 	H 	0.96320 0.21510 0.16370 0.09100
H 	H 	0.18630 0.41880 0.04250 0.01800
H 	H 	0.10830 0.40140 0.40250 0.08300
H 	H 	0.37040 0.09490 0.48050 0.00800
H 	H 	0.16370 0.44860 0.70050 0.09100
H 	H 	0.72450 0.11010 0.12960 0.00800
H 	H 	0.88990 0.51950 0.61440 0.00800
H 	H 	0.66100 0.73100 0.19940 0.06400
H 	H 	0.73100 0.69940 0.16100 0.06400
H 	H 	0.76970 0.20390 0.63560 0.03400
H 	H 	0.31370 0.35620 0.23250 0.01800
H 	H 	0.39170 0.79420 0.29310 0.08300
H 	H 	0.23100 0.07000 0.03160 0.06400
H 	H 	0.33900 0.26900 0.80060 0.06400
H 	H 	0.93420 0.73030 0.86590 0.03400
H 	H 	0.77550 0.90510 0.38560 0.00800
H 	H 	0.76900 0.93000 0.96840 0.06400
H 	H 	0.20690 0.60830 0.70580 0.08300
H 	H 	0.36440 0.06830 0.63410 0.03400
H 	H 	0.91880 0.68630 0.54250 0.01800
H 	H 	0.49890 0.70580 0.09750 0.08300
H 	H 	0.70390 0.26970 0.13560 0.03400
H 	H 	0.19940 0.23100 0.66100 0.06400
H 	H 	0.33630 0.03680 0.28490 0.09100
H 	H 	0.90510 0.01950 0.12960 0.00900
H 	H 	0.63260 0.72030 0.26890 0.00500
H 	H 	0.43000 0.16100 0.46160 0.06500
H 	H 	0.58770 0.72030 0.45140 0.00500
H 	H 	0.73250 0.31370 0.85620 0.01900
H 	H 	0.40250 0.90140 0.10830 0.08400
H 	H 	0.58120 0.12370 0.76750 0.01900
H 	H 	0.36590 0.93420 0.23030 0.03500
H 	H 	0.53680 0.83630 0.78490 0.09200
H 	H 	0.20390 0.06830 0.43420 0.03500
H 	H 	0.77970 0.91230 0.04860 0.00500
H 	H 	0.87040 0.48050 0.09490 0.00900
H 	H 	0.29310 0.29420 0.39170 0.08400
H 	H 	0.86590 0.63560 0.43170 0.03500
H 	H 	0.81370 0.58120 0.95750 0.01900
H 	H 	0.20580 0.20690 0.10830 0.08400
H 	H 	0.04860 0.41230 0.77970 0.00500
H 	H 	0.37040 0.27550 0.38990 0.00900
H 	H 	0.70580 0.10830 0.20690 0.08400
H 	H 	0.26900 0.30060 0.83900 0.06500
H 	H 	0.83630 0.55140 0.29950 0.09200
H 	H 	0.58770 0.86740 0.63630 0.00500
H 	H 	0.35400 0.73140 0.58400 0.03800
H 	H 	0.45140 0.23110 0.36370 0.00500
H 	H 	0.29950 0.24810 0.96320 0.09200
H 	H 	0.73140 0.08400 0.85400 0.03800
H 	H 	0.41880 0.87630 0.23250 0.01900
H 	H 	0.80060 0.76900 0.33900 0.06500
H 	H 	0.30060 0.33900 0.76900 0.06500
H 	H 	0.62370 0.54250 0.85620 0.01900
H 	H 	0.76750 0.14380 0.68630 0.01900
H 	H 	0.93170 0.06580 0.29610 0.03500
H 	H 	0.37740 0.14740 0.73140 0.03800
H 	H 	0.71510 0.46320 0.66370 0.09200
H 	H 	0.37630 0.91880 0.73250 0.01900
H 	H 	0.53840 0.33900 0.57000 0.06500
H 	H 	0.29420 0.89170 0.79310 0.08400
H 	H 	0.23250 0.37630 0.41880 0.01900
H 	H 	0.96160 0.53160 0.80060 0.06500
H 	H 	0.83900 0.80060 0.26900 0.06500
H 	H 	0.55140 0.75190 0.71510 0.09200
H 	H 	0.90250 0.10830 0.90140 0.08400
H 	H 	0.12960 0.61010 0.72450 0.00900
H 	H 	0.53840 0.19940 0.46840 0.06500
H 	H 	0.80060 0.03160 0.96160 0.06500
H 	H 	0.40140 0.90250 0.60830 0.08400
H 	H 	0.37630 0.45750 0.14380 0.01900
H 	H 	0.09860 0.70690 0.50110 0.08400
H 	H 	0.03680 0.78490 0.83630 0.09200
H 	H 	0.40510 0.12960 0.01950 0.00900
H 	H 	0.23110 0.86370 0.95140 0.00500
H 	H 	0.26900 0.96840 0.93000 0.06500
H 	H 	0.44860 0.24810 0.28490 0.09200
H 	H 	0.03160 0.46160 0.30060 0.06500
H 	H 	0.04860 0.63630 0.76890 0.00500
H 	H 	0.14600 0.41600 0.26860 0.03800
H 	H 	0.25190 0.05140 0.21510 0.09200
H 	H 	0.62370 0.08120 0.26750 0.01900
H 	H 	0.96840 0.53840 0.69940 0.06500
H 	H 	0.77000 0.41600 0.14740 0.03800
H 	H 	0.79420 0.00110 0.40250 0.08400
H 	H 	0.46320 0.16370 0.21510 0.09200
H 	H 	0.75190 0.21510 0.05140 0.09200
H 	H 	0.71510 0.25190 0.55140 0.09200
H 	H 	0.85400 0.27000 0.62260 0.03800
H 	H 	0.40250 0.50110 0.79420 0.08400
H 	H 	0.77000 0.35400 0.12260 0.03800
H 	H 	0.56830 0.70390 0.93420 0.03500
H 	H 	0.23250 0.85620 0.31370 0.01900
H 	H 	0.73100 0.03160 0.07000 0.06500
H 	H 	0.36370 0.73110 0.45140 0.00500
H 	H 	0.60830 0.40250 0.40140 0.08400
H 	H 	0.09750 0.20580 0.49890 0.08400
H 	H 	0.76860 0.14600 0.91600 0.03800
H 	H 	0.72030 0.76890 0.13260 0.00500
H 	H 	0.14380 0.18630 0.26750 0.01900
H 	H 	0.21510 0.66370 0.46320 0.09200
H 	H 	0.23030 0.79610 0.36440 0.03500
H 	H 	0.77970 0.86740 0.23110 0.00500
H 	H 	0.63630 0.36740 0.58770 0.00500
H 	H 	0.70390 0.43420 0.06830 0.03500
H 	H 	0.74810 0.94860 0.78490 0.09200
H 	H 	0.08400 0.73000 0.35260 0.03800
H 	H 	0.43420 0.56830 0.20390 0.03500
H 	H 	0.37740 0.23000 0.14600 0.03800
H 	H 	0.41230 0.13260 0.36370 0.00500
H 	H 	0.86590 0.23030 0.93420 0.03500
H 	H 	0.12370 0.26750 0.08120 0.01900
H 	H 	0.26750 0.68630 0.14380 0.01900
H 	H 	0.78490 0.33630 0.53680 0.09200
H 	H 	0.76970 0.56580 0.63410 0.03500
H 	H 	0.26750 0.58120 0.62370 0.01900
H 	H 	0.35620 0.62370 0.04250 0.01900
H 	H 	0.94860 0.66370 0.20050 0.09200
H 	H 	0.11010 0.62960 0.22450 0.00900
H 	H 	0.75190 0.53680 0.20050 0.09200
H 	H 	0.70690 0.00110 0.59860 0.08400
H 	H 	0.76900 0.83900 0.30060 0.06500
H 	H 	0.38560 0.40510 0.77550 0.00900
H 	H 	0.61010 0.38560 0.48050 0.00900
H 	H 	0.73000 0.85260 0.58400 0.03800
H 	H 	0.20690 0.59860 0.00110 0.08400
H 	H 	0.25190 0.20050 0.53680 0.09200
H 	H 	0.59490 0.72450 0.11440 0.00900
H 	H 	0.63260 0.91230 0.86370 0.00500
H 	H 	0.38560 0.98050 0.11010 0.00900
H 	H 	0.20580 0.99890 0.59750 0.08400
H 	H 	0.91880 0.23250 0.87630 0.01900
H 	H 	0.63410 0.06580 0.76970 0.03500
H 	H 	0.14740 0.23140 0.87740 0.03800
H 	H 	0.23030 0.43420 0.36590 0.03500
H 	H 	0.87740 0.73140 0.14740 0.03800
H 	H 	0.13630 0.58770 0.36740 0.00500
H 	H 	0.83630 0.28490 0.03680 0.09200
H 	H 	0.21510 0.55140 0.25190 0.09200
H 	H 	0.30060 0.96160 0.03160 0.06500
H 	H 	0.33630 0.29950 0.55140 0.09200
H 	H 	0.99890 0.90140 0.79310 0.08400
H 	H 	0.89170 0.59860 0.59750 0.08400
H 	H 	0.96320 0.74810 0.29950 0.09200
H 	H 	0.19940 0.96840 0.03840 0.06500
H 	H 	0.26890 0.04860 0.13630 0.00500
H 	H 	0.79420 0.79310 0.89170 0.08400
H 	H 	0.66370 0.96320 0.71510 0.09200
H 	H 	0.87630 0.73250 0.91880 0.01900
H 	H 	0.66100 0.93000 0.96160 0.06500
H 	H 	0.09750 0.89170 0.09860 0.08400
H 	H 	0.03680 0.25190 0.70050 0.09200
H 	H 	0.41230 0.27970 0.54860 0.00500
H 	H 	0.68630 0.04250 0.41880 0.01900
H 	H 	0.98050 0.61010 0.88560 0.00900
H 	H 	0.72030 0.95140 0.08770 0.00500
H 	H 	0.63560 0.70390 0.76970 0.03500
H 	H 	0.78490 0.44860 0.74810 0.09200
H 	H 	0.27970 0.04860 0.91230 0.00500
H 	H 	0.08400 0.35400 0.23140 0.03800
H 	H 	0.38990 0.61440 0.51950 0.00900
H 	H 	0.89170 0.29310 0.79420 0.08400
H 	H 	0.46160 0.80060 0.53160 0.06500
H 	H 	0.29610 0.56580 0.93170 0.03500
H 	H 	0.62960 0.90510 0.51950 0.00900
H 	H 	0.03840 0.57000 0.33900 0.06500
H 	H 	0.64380 0.26750 0.18630 0.01900
H 	H 	0.27000 0.14740 0.41600 0.03800
H 	H 	0.13630 0.54860 0.26890 0.00500
H 	H 	0.86440 0.63410 0.06830 0.03500
H 	H 	0.60830 0.20580 0.70690 0.08400
H 	H 	0.29310 0.99890 0.40140 0.08400
H 	H 	0.79950 0.83630 0.05140 0.09200
H 	H 	0.23140 0.85400 0.08400 0.03800
H 	H 	0.58120 0.45750 0.31370 0.01900
H 	H 	0.27550 0.88990 0.87040 0.00900
H 	H 	0.64600 0.37740 0.73000 0.03800
H 	H 	0.35400 0.62260 0.27000 0.03800
H 	H 	0.09490 0.11440 0.72450 0.00900
H 	H 	0.73250 0.41880 0.37630 0.01900
H 	H 	0.01950 0.38990 0.11440 0.00900
H 	H 	0.79610 0.93170 0.56580 0.03500
H 	H 	0.63410 0.56830 0.36440 0.03500
H 	H 	0.79610 0.86440 0.73030 0.03500
H 	H 	0.06580 0.26970 0.13410 0.03500
H 	H 	0.87040 0.38990 0.27550 0.00900
H 	H 	0.79310 0.40140 0.99890 0.08400
H 	H 	0.64600 0.26860 0.41600 0.03800
H 	H 	0.16100 0.96160 0.93000 0.06500
H 	H 	0.53680 0.70050 0.25190 0.09200
H 	H 	0.58400 0.35260 0.73000 0.03800
H 	H 	0.88560 0.77550 0.40510 0.00900
H 	H 	0.49890 0.79310 0.90140 0.08400
H 	H 	0.86440 0.23030 0.29610 0.03500
H 	H 	0.95750 0.87630 0.64380 0.01900
H 	H 	0.57000 0.73100 0.53160 0.06500
H 	H 	0.90140 0.60830 0.90250 0.08400
H 	H 	0.50110 0.29420 0.90250 0.08400
H 	H 	0.29950 0.05140 0.83630 0.09200
H 	H 	0.29610 0.73030 0.86440 0.03500
H 	H 	0.27000 0.12260 0.35400 0.03800
H 	H 	0.54860 0.76890 0.63630 0.00500
H 	H 	0.07000 0.53160 0.73100 0.06500
H 	H 	0.13260 0.26890 0.72030 0.00500
H 	H 	0.66370 0.70050 0.44860 0.09200
H 	H 	0.73140 0.64740 0.37740 0.03800
H 	H 	0.87740 0.14600 0.23000 0.03800
H 	H 	0.59750 0.49890 0.20580 0.08400
H 	H 	0.24810 0.46320 0.79950 0.09200
H 	H 	0.28490 0.74810 0.44860 0.09200
H 	H 	0.86740 0.13630 0.08770 0.00500
H 	H 	0.04250 0.12370 0.35620 0.01900
H 	H 	0.54250 0.18630 0.91880 0.01900
H 	H 	0.73030 0.36440 0.79610 0.03500
H 	H 	0.61010 0.22450 0.62960 0.00900
H 	H 	0.23140 0.37740 0.64740 0.03800
H 	H 	0.04250 0.91880 0.18630 0.01900
H 	H 	0.56830 0.86440 0.13410 0.03500
H 	H 	0.36440 0.29610 0.23030 0.03500
H 	H 	0.23000 0.58400 0.85260 0.03800
H 	H 	0.40510 0.27550 0.88560 0.00900
H 	H 	0.64740 0.77000 0.91600 0.03800
H 	H 	0.08770 0.63630 0.86740 0.00500
H 	H 	0.14380 0.95750 0.37630 0.01900
H 	H 	0.76890 0.13630 0.04860 0.00500
H 	H 	0.59490 0.87040 0.98050 0.00900
H 	H 	0.73110 0.95140 0.86370 0.00500
H 	H 	0.93000 0.46160 0.16100 0.06500
H 	H 	0.88560 0.11010 0.98050 0.00900
H 	H 	0.09860 0.39170 0.09750 0.08400
H 	H 	0.90510 0.88560 0.27550 0.00900
H 	H 	0.26860 0.35260 0.62260 0.03800
H 	H 	0.26890 0.22030 0.63260 0.00500
H 	H 	0.41880 0.54250 0.68630 0.01900
H 	H 	0.85260 0.08400 0.23000 0.03800
H 	H 	0.69940 0.03840 0.96840 0.06500
H 	H 	0.35260 0.12260 0.76860 0.03800
H 	H 	0.53160 0.23100 0.57000 0.06500
H 	H 	0.14740 0.91600 0.77000 0.03800
H 	H 	0.87630 0.14380 0.45750 0.01900
H 	H 	0.07000 0.53840 0.83900 0.06500
H 	H 	0.14600 0.73000 0.37740 0.03800
H 	H 	0.70690 0.70580 0.60830 0.08400
H 	H 	0.13560 0.76970 0.70390 0.03500
H 	H 	0.13260 0.86370 0.91230 0.00500
H 	H 	0.00110 0.90250 0.29420 0.08400
H 	H 	0.36740 0.08770 0.13630 0.00500
H 	H 	0.27550 0.38560 0.90510 0.00900
H 	H 	0.85620 0.04250 0.62370 0.01900
H 	H 	0.22450 0.09490 0.61440 0.00900
H 	H 	0.64740 0.87740 0.23140 0.03800
H 	H 	0.43170 0.13560 0.86590 0.03500
H 	H 	0.76860 0.62260 0.35260 0.03800
H 	H 	0.77550 0.87040 0.88990 0.00900
H 	H 	0.73030 0.36590 0.43420 0.03500
H 	H 	0.23100 0.16100 0.69940 0.06500
H 	H 	0.96160 0.43000 0.66100 0.06500
H 	H 	0.46320 0.29950 0.74810 0.09200
H 	H 	0.16370 0.71510 0.96320 0.09200
H 	H 	0.54250 0.35620 0.12370 0.01900
H 	H 	0.22450 0.12960 0.11010 0.00900
H 	H 	0.23000 0.64600 0.87740 0.03800
H 	H 	0.20050 0.16370 0.94860 0.09200
H 	H 	0.53160 0.30060 0.46160 0.06500
H 	H 	0.95140 0.58770 0.22030 0.00500
H 	H 	0.45750 0.64380 0.87630 0.01900
H 	H 	0.20050 0.03680 0.75190 0.09200
H 	H 	0.56580 0.43170 0.79610 0.03500
H 	H 	0.06830 0.93420 0.70390 0.03500
H 	H 	0.57000 0.83900 0.53840 0.06500
H 	H 	0.51950 0.40510 0.62960 0.00900
H 	H 	0.35260 0.23000 0.08400 0.03800
H 	H 	0.06830 0.13410 0.86440 0.03500
H 	H 	0.46840 0.76900 0.43000 0.06500
H 	H 	0.11440 0.22450 0.59490 0.00900
H 	H 	0.61440 0.01950 0.88990 0.00900
H 	H 	0.00110 0.09860 0.20690 0.08400
H 	H 	0.86370 0.45140 0.73110 0.00500
H 	H 	0.38990 0.77550 0.37040 0.00900
H 	H 	0.70050 0.75190 0.03680 0.09200
H 	H 	0.81370 0.23250 0.35620 0.01900
H 	H 	0.36590 0.43170 0.63560 0.03500
H 	H 	0.86370 0.41230 0.63260 0.00500
H 	H 	0.73110 0.77970 0.36740 0.00500
H 	H 	0.56580 0.13410 0.26970 0.03500
H 	H 	0.22030 0.13260 0.76890 0.00500
H 	H 	0.46840 0.69940 0.53840 0.06500
H 	H 	0.12260 0.26860 0.85260 0.03800
H 	H 	0.35620 0.73250 0.81370 0.01900
H 	H 	0.62260 0.77000 0.85400 0.03800
H 	H 	0.58400 0.23140 0.35400 0.03800
H 	H 	0.09490 0.98050 0.87040 0.00900
H 	H 	0.44860 0.20050 0.66370 0.09200
H 	H 	0.91600 0.27000 0.64740 0.03800
H 	H 	0.91230 0.36370 0.13260 0.00500
H 	H 	0.76890 0.63260 0.22030 0.00500
H 	H 	0.70580 0.59750 0.99890 0.08400
H 	H 	0.13560 0.36590 0.93170 0.03500
H 	H 	0.68630 0.64380 0.76750 0.01900
H 	H 	0.85400 0.58400 0.73140 0.03800
H 	H 	0.50110 0.20690 0.09860 0.08400
H 	H 	0.64380 0.37630 0.95750 0.01900
H 	H 	0.62960 0.72450 0.61010 0.00900
H 	H 	0.08120 0.31370 0.45750 0.01900
H 	H 	0.08120 0.76750 0.12370 0.01900
H 	H 	0.59860 0.50110 0.70690 0.08400
H 	H 	0.03840 0.46840 0.19940 0.06500
H 	H 	0.59750 0.09860 0.89170 0.08400
H 	H 	0.93000 0.46840 0.26900 0.06500
H 	H 	0.40140 0.49890 0.29310 0.08400
H 	H 	0.79950 0.96320 0.24810 0.09200
H 	H 	0.51950 0.11440 0.38990 0.00900
H 	H 	0.43420 0.86590 0.73030 0.03500
H 	H 	0.31370 0.95750 0.58120 0.01900
H 	H 	0.06580 0.79610 0.43170 0.03500
H 	H 	0.43000 0.26900 0.46840 0.06500
H 	H 	0.39170 0.59750 0.59860 0.08400
H 	H 	0.48050 0.59490 0.37040 0.00900
H 	H 	0.90250 0.79420 0.50110 0.08400
H 	H 	0.93170 0.86590 0.13560 0.03500
H 	H 	0.16100 0.19940 0.73100 0.06500
H 	H 	0.08770 0.45140 0.72030 0.00500
H 	H 	0.76750 0.62370 0.58120 0.01900
H 	H 	0.45750 0.81370 0.08120 0.01900
H 	H 	0.12370 0.85620 0.54250 0.01900
H 	H 	0.23110 0.36740 0.77970 0.00500
H 	H 	0.91600 0.64600 0.76860 0.03800
H 	H 	0.01950 0.62960 0.40510 0.00900
H 	H 	0.36370 0.63260 0.41230 0.00500
H 	H 	0.29420 0.40250 0.00110 0.08400
H 	H 	0.83900 0.03840 0.07000 0.06500
H 	H 	0.63560 0.93170 0.36590 0.03500
H 	H 	0.24810 0.78490 0.94860 0.09200
H 	H 	0.54860 0.77970 0.41230 0.00500
H 	H 	0.62260 0.85260 0.26860 0.03800
H 	H 	0.26970 0.63560 0.20390 0.03500
H 	H 	0.05140 0.71510 0.75190 0.09200
H 	H 	0.05140 0.33630 0.79950 0.09200
H 	H 	0.69940 0.66100 0.23100 0.06500
H 	H 	0.11440 0.88990 0.01950 0.00900
H 	H 	0.46160 0.66100 0.43000 0.06500
H 	H 	0.99890 0.09750 0.70580 0.08400
H 	H 	0.12260 0.85400 0.77000 0.03800
H 	H 	0.94860 0.28490 0.24810 0.09200
H 	H 	0.13410 0.76970 0.06580 0.03500
H 	H 	0.96840 0.43000 0.76900 0.06500
H 	H 	0.41600 0.76860 0.64600 0.03800
H 	H 	0.98050 0.37040 0.59490 0.00900
H 	H 	0.70050 0.94860 0.16370 0.09200
H 	H 	0.43170 0.29610 0.06580 0.03500
H 	H 	0.95140 0.36370 0.23110 0.00500
H 	H 	0.28490 0.53680 0.33630 0.09200
H 	H 	0.86740 0.73110 0.27970 0.00500
H 	H 	0.41600 0.64740 0.27000 0.03800
H 	H 	0.20390 0.13560 0.26970 0.03500
H 	H 	0.13410 0.36440 0.56830 0.03500
H 	H 	0.79310 0.39170 0.29420 0.08400
H 	H 	0.11010 0.48050 0.38560 0.00900
H 	H 	0.03160 0.57000 0.23100 0.06500
H 	H 	0.73000 0.87740 0.64600 0.03800
H 	H 	0.45140 0.22030 0.58770 0.00500
H 	H 	0.63630 0.26890 0.54860 0.00500
H 	H 	0.85260 0.76860 0.12260 0.03800
H 	H 	0.27970 0.23110 0.86740 0.00500
H 	H 	0.36740 0.27970 0.73110 0.00500
H 	H 	0.93420 0.20390 0.56830 0.03500
H 	H 	0.88990 0.37040 0.77550 0.00900
H 	H 	0.74810 0.79950 0.46320 0.09200
H 	H 	0.72450 0.61440 0.09490 0.00900
H 	H 	0.59860 0.09750 0.39170 0.08400
H 	H 	0.55140 0.79950 0.33630 0.09200
H 	H 	0.26970 0.63410 0.56580 0.03500
C 	C 	0.17295 0.97202 0.16381 0.15000
C 	C 	0.62803 0.25000 0.37197 0.02200
C 	C 	0.54861 0.70537 0.22404 -0.15900
C 	C 	0.62213 0.72363 0.19260 -0.12600
C 	C 	0.83979 0.82221 0.70182 -0.00500
C 	C 	0.13797 0.29818 0.12039 -0.00500
C 	C 	0.42953 0.80740 0.53103 -0.12600
C 	C 	0.32705 0.49086 0.79907 0.15000
C 	C 	0.20677 0.32876 0.51099 0.16400
C 	C 	0.63797 0.12039 0.29818 -0.00500
C 	C 	0.86203 0.70182 0.87961 -0.00500
C 	C 	0.13212 0.20837 0.52607 -0.16000
C 	C 	0.73389 0.12879 0.01702 0.05700
C 	C 	0.53103 0.30740 0.42953 -0.12600
C 	C 	0.99086 0.16381 0.19179 0.15000
C 	C 	0.22404 0.20537 0.54861 -0.15900
C 	C 	0.37787 0.10150 0.07047 -0.12600
C 	C 	0.89415 0.19302 0.54317 0.00400
C 	C 	0.86340 0.44079 0.08301 0.06000
C 	C 	0.60510 0.71687 0.23389 0.05700
C 	C 	0.52798 0.20093 0.69179 0.15000
C 	C 	0.67779 0.01758 0.37961 -0.00500
C 	C 	0.69302 0.29887 0.14985 0.00400
C 	C 	0.60605 0.47393 0.68230 -0.16000
C 	C 	0.23389 0.21687 0.60510 0.05700
C 	C 	0.79163 0.81770 0.92375 -0.16000
C 	C 	0.67543 0.45139 0.65676 -0.15900
C 	C 	0.12199 0.30422 0.29323 0.16400
C 	C 	0.89395 0.31770 0.52607 -0.16000
C 	C 	0.35015 0.30698 0.20113 0.00400
C 	C 	0.30740 0.37787 0.77637 -0.12600
C 	C 	0.32221 0.98242 0.62039 -0.00500
C 	C 	0.70113 0.35015 0.80698 0.00400
C 	C 	0.19578 0.81777 0.48901 0.16400
C 	C 	0.38823 0.10510 0.37121 0.05700
C 	C 	0.87197 0.24394 0.62197 0.02200
C 	C 	0.98242 0.86203 0.66021 -0.00500
C 	C 	0.51867 0.72404 0.67543 -0.15900
C 	C 	0.64902 0.54317 0.35015 0.00400
C 	C 	0.42375 0.63212 0.60605 -0.16000
C 	C 	0.80821 0.33619 0.00914 0.15000
C 	C 	0.97393 0.10605 0.18230 -0.16000
C 	C 	0.61177 0.71687 0.48298 0.05700
C 	C 	0.86340 0.42261 0.28039 0.06000
C 	C 	0.28039 0.92261 0.86340 0.06000
C 	C 	0.01758 0.87961 0.17779 -0.00500
C 	C 	0.41699 0.13660 0.05921 0.06000
C 	C 	0.70093 0.67295 0.00914 0.15000
C 	C 	0.62803 0.37803 0.75606 0.02200
C 	C 	0.62879 0.23389 0.51702 0.05700
C 	C 	0.30422 0.79323 0.62199 0.16400
C 	C 	0.69260 0.07047 0.96897 -0.12600
C 	C 	0.45139 0.15676 0.17543 -0.15900
C 	C 	0.07047 0.46897 0.19260 -0.12600
C 	C 	0.80422 0.18223 0.51099 0.16400
C 	C 	0.70537 0.72404 0.04861 -0.15900
C 	C 	0.98901 0.19578 0.31777 0.16400
C 	C 	0.20182 0.83979 0.32221 -0.00500
C 	C 	0.70837 0.63212 0.02607 -0.16000
C 	C 	0.82221 0.20182 0.33979 -0.00500
C 	C 	0.20537 0.04861 0.72404 -0.15900
C 	C 	0.79163 0.97393 0.36788 -0.16000
C 	C 	0.72404 0.54861 0.20537 -0.15900
C 	C 	0.62039 0.13797 0.79818 -0.00500
C 	C 	0.47393 0.29163 0.86788 -0.16000
C 	C 	0.05921 0.42261 0.14222 0.06000
C 	C 	0.82705 0.79907 0.49086 0.15000
C 	C 	0.62199 0.32876 0.81777 0.16400
C 	C 	0.62197 0.87803 0.25000 0.02200
C 	C 	0.42261 0.64222 0.55921 0.06000
C 	C 	0.77596 0.98133 0.82457 -0.15900
C 	C 	0.77637 0.89850 0.96897 -0.12600
C 	C 	0.70093 0.02798 0.19179 0.15000
C 	C 	0.80740 0.03103 0.92953 -0.12700
C 	C 	0.10605 0.68230 0.47393 -0.16000
C 	C 	0.23389 0.01702 0.12879 0.05700
C 	C 	0.62213 0.89850 0.92953 -0.12600
C 	C 	0.75606 0.87803 0.62803 0.02200
C 	C 	0.17779 0.79818 0.66021 -0.00500
C 	C 	0.87197 0.62803 0.75000 0.02200
C 	C 	0.32457 0.54861 0.34324 -0.15900
C 	C 	0.87121 0.48298 0.76611 0.05700
C 	C 	0.07625 0.39395 0.36788 -0.16000
C 	C 	0.72363 0.69260 0.12213 -0.12700
C 	C 	0.21687 0.10510 0.73389 0.05700
C 	C 	0.80740 0.77637 0.37787 -0.12600
C 	C 	0.12879 0.61177 0.39490 0.05700
C 	C 	0.12039 0.32221 0.48242 -0.00500
C 	C 	0.07739 0.63660 0.21961 0.06000
C 	C 	0.01702 0.38823 0.78313 0.05700
C 	C 	0.60150 0.87787 0.57047 -0.12600
C 	C 	0.07739 0.44079 0.35778 0.06000
C 	C 	0.34324 0.29463 0.51867 -0.15900
C 	C 	0.92375 0.60605 0.63212 -0.16000
C 	C 	0.14985 0.79887 0.69302 0.00400
C 	C 	0.75000 0.62197 0.37803 0.02200
C 	C 	0.67295 0.16381 0.97202 0.15000
C 	C 	0.21961 0.08301 0.64222 0.06000
C 	C 	0.07625 0.68230 0.20837 -0.16000
C 	C 	0.12213 0.19260 0.72363 -0.12600
C 	C 	0.10585 0.29887 0.14902 0.00400
C 	C 	0.37197 0.75000 0.62803 0.02200
C 	C 	0.37801 0.70677 0.69578 0.16400
C 	C 	0.57047 0.19260 0.46897 -0.12600
C 	C 	0.70677 0.19578 0.87801 0.16400
C 	C 	0.72404 0.17543 0.01867 -0.15900
C 	C 	0.48298 0.21687 0.61177 0.05700
C 	C 	0.37801 0.67124 0.18223 0.16400
C 	C 	0.87803 0.75000 0.12197 0.02100
C 	C 	0.68230 0.97393 0.60605 -0.16000
C 	C 	0.10510 0.23389 0.71687 0.05700
C 	C 	0.95139 0.17543 0.15676 -0.15900
C 	C 	0.64985 0.95683 0.35098 0.00400
C 	C 	0.98298 0.61177 0.21687 0.05700
C 	C 	0.37803 0.25606 0.12803 0.02200
C 	C 	0.89395 0.57625 0.86788 -0.16000
C 	C 	0.87961 0.67779 0.51758 -0.00500
C 	C 	0.32876 0.31777 0.12199 0.16400
C 	C 	0.55921 0.41699 0.63660 0.06000
C 	C 	0.94079 0.36340 0.58301 0.06000
C 	C 	0.98133 0.32457 0.27596 -0.15900
C 	C 	0.63660 0.71961 0.57739 0.06000
C 	C 	0.79818 0.63797 0.62039 -0.00500
C 	C 	0.66381 0.17295 0.47202 0.15000
C 	C 	0.57739 0.35778 0.44079 0.06000
C 	C 	0.29323 0.80422 0.12199 0.16400
C 	C 	0.63212 0.10605 0.92375 -0.16000
C 	C 	0.67124 0.68223 0.87801 0.16400
C 	C 	0.12197 0.25000 0.87803 0.02100
C 	C 	0.44079 0.58301 0.36340 0.06000
C 	C 	0.12803 0.37197 0.25000 0.02200
C 	C 	0.78313 0.89490 0.26611 0.05700
C 	C 	0.64902 0.10585 0.79887 0.00400
C 	C 	0.46897 0.77637 0.39850 -0.12600
C 	C 	0.31770 0.29163 0.42375 -0.16000
C 	C 	0.36203 0.48242 0.16021 -0.00500
C 	C 	0.36788 0.47393 0.79163 -0.16000
C 	C 	0.37121 0.76611 0.48298 0.05700
C 	C 	0.00914 0.83619 0.80821 0.15000
C 	C 	0.20837 0.02607 0.63212 -0.16000
C 	C 	0.01758 0.13797 0.33979 -0.00500
C 	C 	0.62197 0.74394 0.87197 0.02200
C 	C 	0.31777 0.62199 0.82876 0.16400
C 	C 	0.74394 0.37197 0.12197 0.02200
C 	C 	0.89850 0.42953 0.12213 -0.12700
C 	C 	0.16021 0.98242 0.36203 -0.00500
C 	C 	0.33979 0.63797 0.01758 -0.00500
C 	C 	0.78039 0.91699 0.35778 0.06000
C 	C 	0.14902 0.79887 0.10585 0.00400
C 	C 	0.28313 0.01702 0.88823 0.05700
C 	C 	0.08301 0.94079 0.86340 0.06000
C 	C 	0.87787 0.07047 0.10150 -0.12700
C 	C 	0.11177 0.48298 0.71687 0.05700
C 	C 	0.82876 0.12199 0.31777 0.16400
C 	C 	0.39415 0.54317 0.19302 0.00400
C 	C 	0.32221 0.33979 0.20182 -0.00500
C 	C 	0.04317 0.89415 0.69302 0.00400
C 	C 	0.02607 0.89395 0.81770 -0.16000
C 	C 	0.67295 0.50914 0.20093 0.15000
C 	C 	0.96897 0.39850 0.77637 -0.12600
C 	C 	0.92953 0.39850 0.62213 -0.12600
C 	C 	0.27596 0.45139 0.79463 -0.15900
C 	C 	0.11177 0.62879 0.89490 0.05700
C 	C 	0.25000 0.87197 0.12803 0.02200
C 	C 	0.77596 0.79463 0.45139 -0.15900
C 	C 	0.20093 0.00914 0.67295 0.15000
C 	C 	0.35778 0.41699 0.78039 0.06000
C 	C 	0.44079 0.85778 0.57739 0.06000
C 	C 	0.21961 0.13660 0.07739 0.06000
C 	C 	0.29323 0.48901 0.67124 0.16400
C 	C 	0.92261 0.36340 0.78039 0.06000
C 	C 	0.63797 0.51758 0.83979 -0.00500
C 	C 	0.17543 0.65676 0.45139 -0.15900
C 	C 	0.79907 0.99086 0.32705 0.15000
C 	C 	0.35098 0.45683 0.64985 0.00400
C 	C 	0.70677 0.51099 0.32876 0.16400
C 	C 	0.22363 0.12213 0.69260 -0.12600
C 	C 	0.39850 0.12213 0.42953 -0.12600
C 	C 	0.45683 0.14985 0.85098 0.00400
C 	C 	0.48901 0.17124 0.79323 0.16400
C 	C 	0.88823 0.51702 0.28313 0.05700
C 	C 	0.63660 0.91699 0.55921 0.06000
C 	C 	0.33619 0.82705 0.52798 0.15000
C 	C 	0.57625 0.20837 0.68230 -0.16000
C 	C 	0.51702 0.73389 0.62879 0.05700
C 	C 	0.62879 0.39490 0.61177 0.05700
C 	C 	0.50914 0.80821 0.83619 0.15000
C 	C 	0.79818 0.16021 0.67779 -0.00500
C 	C 	0.46897 0.69260 0.57047 -0.12600
C 	C 	0.70113 0.35098 0.39415 0.00400
C 	C 	0.89850 0.46897 0.27637 -0.12600
C 	C 	0.19179 0.66381 0.99086 0.15000
C 	C 	0.82705 0.02798 0.83619 0.15000
C 	C 	0.18223 0.17124 0.37801 0.16400
C 	C 	0.18230 0.57625 0.70837 -0.16000
C 	C 	0.37803 0.12197 0.75000 0.02200
C 	C 	0.37961 0.86203 0.20182 -0.00500
C 	C 	0.92261 0.55921 0.64222 0.06000
C 	C 	0.19302 0.04317 0.39415 0.00400
C 	C 	0.86788 0.79163 0.47393 -0.16000
C 	C 	0.48242 0.82221 0.12039 -0.00500
C 	C 	0.84324 0.32457 0.04861 -0.15900
C 	C 	0.29907 0.97202 0.80821 0.15000
C 	C 	0.19578 0.37801 0.20677 0.16400
C 	C 	0.30422 0.51099 0.18223 0.16400
C 	C 	0.04861 0.82457 0.84324 -0.15900
C 	C 	0.52607 0.70837 0.13212 -0.16000
C 	C 	0.92375 0.31770 0.79163 -0.16000
C 	C 	0.50914 0.70093 0.17295 0.15000
C 	C 	0.47393 0.18230 0.10605 -0.16000
C 	C 	0.82457 0.34324 0.54861 -0.15900
C 	C 	0.29463 0.01867 0.84324 -0.15900
C 	C 	0.42375 0.79163 0.31770 -0.16000
C 	C 	0.60605 0.13212 0.42375 -0.16000
C 	C 	0.04317 0.14902 0.85015 0.00400
C 	C 	0.71961 0.07739 0.13660 0.06000
C 	C 	0.70182 0.32221 0.83979 -0.00500
C 	C 	0.61177 0.89490 0.62879 0.05700
C 	C 	0.85778 0.07739 0.94079 0.06000
C 	C 	0.10605 0.42375 0.13212 -0.16000
C 	C 	0.73389 0.60510 0.21687 0.05700
C 	C 	0.51702 0.78313 0.38823 0.05700
C 	C 	0.78039 0.86340 0.92261 0.06000
C 	C 	0.32457 0.77596 0.48133 -0.15900
C 	C 	0.98133 0.65676 0.20537 -0.15900
C 	C 	0.79323 0.67124 0.48901 0.16400
C 	C 	0.68230 0.70837 0.57625 -0.16000
C 	C 	0.47202 0.79907 0.30821 0.15000
C 	C 	0.14222 0.92261 0.05921 0.06000
C 	C 	0.12879 0.51702 0.23389 0.05700
C 	C 	0.91699 0.85778 0.28039 0.06000
C 	C 	0.27637 0.96897 0.89850 -0.12600
C 	C 	0.98242 0.12039 0.82221 -0.00500
C 	C 	0.82221 0.62039 0.98242 -0.00500
C 	C 	0.95139 0.77596 0.29463 -0.15900
C 	C 	0.83619 0.30821 0.50914 0.15000
C 	C 	0.70537 0.98133 0.15676 -0.15900
C 	C 	0.25000 0.37803 0.62197 0.02200
C 	C 	0.85015 0.64902 0.04317 0.00400
C 	C 	0.45683 0.30698 0.10585 0.00400
C 	C 	0.39415 0.85098 0.70113 0.00400
C 	C 	0.17779 0.37961 0.01758 -0.00500
C 	C 	0.80422 0.62199 0.79323 0.16400
C 	C 	0.34324 0.04861 0.32457 -0.15900
C 	C 	0.01099 0.80422 0.68223 0.16400
C 	C 	0.19260 0.22363 0.62213 -0.12600
C 	C 	0.97393 0.86788 0.29163 -0.16000
C 	C 	0.95683 0.85098 0.14985 0.00400
C 	C 	0.20677 0.87801 0.19578 0.16400
C 	C 	0.48901 0.31777 0.19578 0.16400
C 	C 	0.79887 0.19302 0.64985 0.00400
C 	C 	0.79887 0.60585 0.64902 0.00400
C 	C 	0.85778 0.78039 0.41699 0.06000
C 	C 	0.65676 0.70537 0.48133 -0.15900
C 	C 	0.68223 0.30422 0.01099 0.16400
C 	C 	0.81777 0.98901 0.69578 0.16400
C 	C 	0.30821 0.29907 0.47202 0.15000
C 	C 	0.48133 0.20537 0.65676 -0.15900
C 	C 	0.12199 0.81777 0.32876 0.16400
C 	C 	0.54861 0.84324 0.82457 -0.15900
C 	C 	0.80821 0.47202 0.29907 0.15000
C 	C 	0.51758 0.33979 0.13797 -0.00500
C 	C 	0.71961 0.64222 0.08301 0.06000
C 	C 	0.10585 0.80698 0.45683 0.00400
C 	C 	0.79463 0.95139 0.27596 -0.15900
C 	C 	0.72363 0.03103 0.10150 -0.12600
C 	C 	0.39395 0.52607 0.31770 -0.16000
C 	C 	0.69302 0.39415 0.04317 0.00400
C 	C 	0.65676 0.95139 0.67543 -0.15900
C 	C 	0.20113 0.80698 0.35015 0.00400
C 	C 	0.17295 0.20093 0.50914 0.15000
C 	C 	0.26611 0.39490 0.78313 0.05700
C 	C 	0.69179 0.99086 0.66381 0.15000
C 	C 	0.81777 0.82876 0.62199 0.16400
C 	C 	0.88823 0.37121 0.10510 0.05700
C 	C 	0.30698 0.70113 0.85015 0.00400
C 	C 	0.89490 0.76611 0.28313 0.05700
C 	C 	0.49086 0.29907 0.82705 0.15000
C 	C 	0.95683 0.10585 0.30698 0.00400
C 	C 	0.53103 0.22363 0.60150 -0.12600
C 	C 	0.60510 0.88823 0.87121 0.05700
C 	C 	0.83979 0.01758 0.63797 -0.00500
C 	C 	0.33979 0.70182 0.82221 -0.00500
C 	C 	0.80698 0.85015 0.70113 0.00400
C 	C 	0.58301 0.71961 0.14222 0.06000
C 	C 	0.17543 0.51867 0.22404 -0.15900
C 	C 	0.81770 0.39395 0.02607 -0.16000
C 	C 	0.66021 0.36203 0.98242 -0.00500
C 	C 	0.58301 0.86340 0.94079 0.06000
C 	C 	0.20837 0.18230 0.07625 -0.16000
C 	C 	0.80698 0.95683 0.60585 0.00400
C 	C 	0.51867 0.79463 0.34324 -0.15900
C 	C 	0.89490 0.12879 0.11177 0.05700
C 	C 	0.14222 0.21961 0.58301 0.06000
C 	C 	0.12197 0.87197 0.74394 0.02200
C 	C 	0.12039 0.79818 0.13797 -0.00500
C 	C 	0.57047 0.37787 0.60150 -0.12600
C 	C 	0.36340 0.28039 0.42261 0.06000
C 	C 	0.87121 0.38823 0.60510 0.05700
C 	C 	0.36203 0.87961 0.70182 -0.00500
C 	C 	0.57625 0.36788 0.39395 -0.16000
C 	C 	0.14902 0.35015 0.54317 0.00400
C 	C 	0.12803 0.75606 0.37803 0.02200
C 	C 	0.70837 0.07625 0.18230 -0.16000
C 	C 	0.57739 0.21961 0.63660 0.06000
C 	C 	0.18230 0.60605 0.97393 -0.16000
C 	C 	0.71687 0.73389 0.10510 0.05700
C 	C 	0.15676 0.48133 0.70537 -0.15900
C 	C 	0.10510 0.87121 0.88823 0.05700
C 	C 	0.37787 0.27637 0.80740 -0.12600
C 	C 	0.36788 0.89395 0.07625 -0.16000
C 	C 	0.52607 0.81770 0.89395 -0.16000
C 	C 	0.18223 0.01099 0.30422 0.16400
C 	C 	0.01099 0.20677 0.82876 0.16400
C 	C 	0.31777 0.69578 0.98901 0.16400
C 	C 	0.01867 0.67543 0.72404 -0.15900
C 	C 	0.21687 0.11177 0.98298 0.05600
C 	C 	0.29463 0.27596 0.95139 -0.15900
C 	C 	0.75000 0.12803 0.87197 0.02200
C 	C 	0.89415 0.70113 0.85098 0.00400
C 	C 	0.68223 0.37801 0.17124 0.16400
C 	C 	0.98901 0.79323 0.17124 0.16400
C 	C 	0.27637 0.30740 0.87787 -0.12700
C 	C 	0.30740 0.92953 0.03103 -0.12600
C 	C 	0.67543 0.22404 0.51867 -0.15900
C 	C 	0.97202 0.30821 0.79907 0.15000
C 	C 	0.20182 0.36203 0.37961 -0.00500
C 	C 	0.20537 0.15676 0.98133 -0.15900
C 	C 	0.32705 0.83619 0.02798 0.15000
C 	C 	0.36340 0.08301 0.44079 0.06000
C 	C 	0.35778 0.94079 0.07739 0.06000
C 	C 	0.70182 0.37961 0.36203 -0.00500
C 	C 	0.82876 0.70677 0.01099 0.16400
C 	C 	0.27596 0.82457 0.98133 -0.15900
C 	C 	0.29818 0.62039 0.63797 -0.00500
C 	C 	0.69578 0.20677 0.37801 0.16400
C 	C 	0.51099 0.68223 0.80422 0.16400
C 	C 	0.05921 0.63660 0.41699 0.06000
C 	C 	0.10150 0.53103 0.72363 -0.12600
C 	C 	0.66021 0.29818 0.17779 -0.00500
C 	C 	0.55921 0.14222 0.42261 0.06000
C 	C 	0.16021 0.17779 0.29818 -0.00500
C 	C 	0.87801 0.18223 0.67124 0.16400
C 	C 	0.62039 0.48242 0.32221 -0.00500
C 	C 	0.86203 0.16021 0.48242 -0.00500
C 	C 	0.63212 0.52607 0.20837 -0.16000
C 	C 	0.92953 0.53103 0.80740 -0.12600
C 	C 	0.71687 0.98298 0.11177 0.05700
C 	C 	0.79463 0.84324 0.01867 -0.15900
C 	C 	0.22404 0.01867 0.17543 -0.15900
C 	C 	0.79323 0.12199 0.80422 0.16400
C 	C 	0.87787 0.80740 0.27637 -0.12600
C 	C 	0.39490 0.11177 0.12879 0.05700
C 	C 	0.84324 0.51867 0.29463 -0.15900
C 	C 	0.25606 0.62803 0.87803 0.02200
C 	C 	0.41699 0.28039 0.85778 0.06000
C 	C 	0.19260 0.96897 0.07047 -0.12700
C 	C 	0.54317 0.85015 0.14902 0.00400
C 	C 	0.19179 0.52798 0.70093 0.15000
C 	C 	0.42953 0.62213 0.39850 -0.12600
C 	C 	0.87801 0.69578 0.70677 0.16400
C 	C 	0.39850 0.27637 0.46897 -0.12600
C 	C 	0.29887 0.64985 0.19302 0.00400
C 	C 	0.16381 0.69179 0.49086 0.15000
C 	C 	0.03103 0.42953 0.30740 -0.12600
C 	C 	0.79907 0.80821 0.97202 0.15000
C 	C 	0.16381 0.47202 0.17295 0.15000
C 	C 	0.87803 0.12803 0.25606 0.02200
C 	C 	0.08301 0.14222 0.71961 0.06000
C 	C 	0.13212 0.92375 0.10605 -0.16000
C 	C 	0.33619 0.50914 0.30821 0.15000
C 	C 	0.91699 0.05921 0.13660 0.06000
C 	C 	0.97202 0.66381 0.67295 0.15000
C 	C 	0.32876 0.01099 0.70677 0.16400
C 	C 	0.47202 0.67295 0.66381 0.15000
C 	C 	0.28313 0.26611 0.89490 0.05700
C 	C 	0.82457 0.48133 0.77596 -0.15900
C 	C 	0.85098 0.64985 0.45683 0.00400
C 	C 	0.02798 0.33619 0.32705 0.15000
C 	C 	0.17124 0.29323 0.98901 0.16400
C 	C 	0.39395 0.86788 0.57625 -0.16000
C 	C 	0.10150 0.57047 0.87787 -0.12700
C 	C 	0.30698 0.60585 0.95683 0.00400
C 	C 	0.19302 0.14985 0.29887 0.00400
C 	C 	0.69578 0.48901 0.81777 0.16400
C 	C 	0.14985 0.35098 0.95683 0.00400
C 	C 	0.42261 0.78039 0.36340 0.06000
C 	C 	0.66381 0.49086 0.69179 0.15000
C 	C 	0.24394 0.12197 0.37197 0.02200
C 	C 	0.07047 0.60150 0.37787 -0.12600
C 	C 	0.51758 0.17779 0.87961 -0.00500
C 	C 	0.38823 0.28313 0.51702 0.05700
C 	C 	0.94079 0.57739 0.85778 0.06000
C 	C 	0.15676 0.67543 0.95139 -0.15900
C 	C 	0.85015 0.20113 0.30698 0.00400
C 	C 	0.04861 0.22404 0.70537 -0.15900
C 	C 	0.67124 0.98901 0.29323 0.16400
C 	C 	0.76611 0.78313 0.39490 0.05700
C 	C 	0.13660 0.57739 0.71961 0.06000
C 	C 	0.37121 0.60510 0.38823 0.05700
C 	C 	0.29163 0.92375 0.81770 -0.16000
C 	C 	0.02607 0.13212 0.70837 -0.16000
C 	C 	0.83619 0.52798 0.82705 0.15000
C 	C 	0.01702 0.62879 0.73389 0.05700
C 	C 	0.13660 0.55921 0.91699 0.06000
C 	C 	0.48298 0.26611 0.37121 0.05700
C 	C 	0.64222 0.58301 0.21961 0.06000
C 	C 	0.86788 0.07625 0.89395 -0.16000
C 	C 	0.26611 0.87121 0.98298 0.05700
C 	C 	0.20093 0.19179 0.02798 0.15000
C 	C 	0.49086 0.19179 0.16381 0.15000
C 	C 	0.29887 0.64902 0.60585 0.00400
C 	C 	0.60585 0.45683 0.80698 0.00400
C 	C 	0.45139 0.29463 0.77596 -0.15900
C 	C 	0.37961 0.51758 0.67779 -0.00500
C 	C 	0.48242 0.66021 0.86203 -0.00500
C 	C 	0.96897 0.57047 0.69260 -0.12600
C 	C 	0.85098 0.20113 0.89415 0.00400
C 	C 	0.35098 0.89415 0.20113 0.00400
C 	C 	0.01867 0.34324 0.79463 -0.15900
C 	C 	0.03103 0.60150 0.22363 -0.12600
C 	C 	0.13797 0.83979 0.51758 -0.00500
C 	C 	0.81770 0.42375 0.29163 -0.16000
C 	C 	0.54317 0.69302 0.89415 0.00400
C 	C 	0.78313 0.88823 0.01702 0.05600
C 	C 	0.31770 0.02607 0.39395 -0.16000
C 	C 	0.52798 0.32705 0.33619 0.15000
C 	C 	0.98298 0.37121 0.26611 0.05700
C 	C 	0.29907 0.32705 0.99086 0.15000
C 	C 	0.76611 0.98298 0.87121 0.05700
C 	C 	0.37197 0.62197 0.24394 0.02200
C 	C 	0.30821 0.00914 0.33619 0.15000
C 	C 	0.67779 0.66021 0.79818 -0.00500
C 	C 	0.29818 0.67779 0.16021 -0.00500
C 	C 	0.60150 0.72363 0.53103 -0.12600
C 	C 	0.60585 0.14902 0.29887 0.00400
C 	C 	0.35015 0.04317 0.64902 0.00400
C 	C 	0.39490 0.28313 0.76611 0.05700
C 	C 	0.64985 0.69302 0.79887 0.00400
C 	C 	0.69260 0.62213 0.22363 -0.12600
C 	C 	0.51099 0.82876 0.20677 0.16400
C 	C 	0.22363 0.10150 0.03103 -0.12600
C 	C 	0.64222 0.05921 0.92261 0.06000
C 	C 	0.28039 0.35778 0.91699 0.06000
C 	C 	0.62199 0.29323 0.30422 0.16400
C 	C 	0.20113 0.39415 0.35098 0.00400
C 	C 	0.48133 0.27596 0.32457 -0.15900
C 	C 	0.12213 0.92953 0.89850 -0.12700
C 	C 	0.87961 0.20182 0.86203 -0.00500
C 	C 	0.69179 0.70093 0.52798 0.15000
C 	C 	0.00914 0.17295 0.70093 0.15000
C 	C 	0.17124 0.87801 0.68223 0.16400
C 	C 	0.29163 0.36788 0.97393 -0.16000
C 	C 	0.99086 0.82705 0.29907 0.15000
C 	C 	0.02798 0.69179 0.20093 0.15000
C 	C 	0.77637 0.87787 0.30740 -0.12600
N 	N 	0.46834 0.80856 0.25922 -0.12900
N 	N 	0.29088 0.84022 0.53166 -0.12900
N 	N 	0.64632 0.93894 0.29594 -0.12900
N 	N 	0.65978 0.45066 0.19144 -0.12900
N 	N 	0.30799 0.34601 0.15190 -0.27500
N 	N 	0.35038 0.70406 0.64300 -0.12900
N 	N 	0.65978 0.20912 0.96834 -0.12900
N 	N 	0.35038 0.64632 0.20738 -0.12900
N 	N 	0.85038 0.64300 0.70406 -0.12900
N 	N 	0.75922 0.46834 0.30856 -0.12900
N 	N 	0.35368 0.29262 0.14962 -0.12900
N 	N 	0.20406 0.35368 0.56106 -0.12900
N 	N 	0.74084 0.48288 0.80778 -0.10400
N 	N 	0.64300 0.43894 0.79262 -0.12900
N 	N 	0.75922 0.29088 0.95066 -0.12900
N 	N 	0.14300 0.79262 0.43894 -0.12900
N 	N 	0.80799 0.15190 0.34601 -0.27500
N 	N 	0.06694 0.80778 0.32490 -0.10400
N 	N 	0.84391 0.15190 0.80589 -0.27500
N 	N 	0.14632 0.85038 0.70738 -0.12900
N 	N 	0.53166 0.19144 0.74078 -0.12900
N 	N 	0.54934 0.30856 0.84022 -0.12900
N 	N 	0.01712 0.75916 0.69222 -0.10400
N 	N 	0.96834 0.25922 0.80856 -0.12900
N 	N 	0.48288 0.30778 0.24084 -0.10400
N 	N 	0.65609 0.46198 0.30799 -0.27500
N 	N 	0.96834 0.70912 0.65978 -0.12900
N 	N 	0.74204 0.67510 0.48288 -0.10400
N 	N 	0.64962 0.35368 0.79262 -0.12900
N 	N 	0.25796 0.32490 0.51712 -0.10400
N 	N 	0.24204 0.75916 0.06694 -0.10400
N 	N 	0.25916 0.51712 0.19222 -0.10400
N 	N 	0.46834 0.65978 0.70912 -0.12900
N 	N 	0.85368 0.14962 0.29262 -0.12900
N 	N 	0.53802 0.19201 0.84391 -0.27500
N 	N 	0.24204 0.48288 0.67510 -0.10400
N 	N 	0.06694 0.25916 0.24204 -0.10400
N 	N 	0.85700 0.20738 0.56106 -0.12900
N 	N 	0.34391 0.80589 0.15190 -0.27500
N 	N 	0.24084 0.43306 0.25796 -0.10400
N 	N 	0.34810 0.65609 0.69411 -0.27500
N 	N 	0.74078 0.04934 0.70912 -0.12900
N 	N 	0.29594 0.43894 0.64632 -0.12900
N 	N 	0.20738 0.14632 0.35038 -0.12900
N 	N 	0.69201 0.03802 0.34391 -0.27500
N 	N 	0.04934 0.84022 0.30856 -0.12900
N 	N 	0.34810 0.69201 0.15399 -0.27500
N 	N 	0.29262 0.64962 0.85368 -0.12900
N 	N 	0.29594 0.85700 0.14962 -0.12900
N 	N 	0.56694 0.24204 0.25916 -0.10400
N 	N 	0.43894 0.14632 0.79594 -0.12900
N 	N 	0.24078 0.53166 0.69144 -0.12900
N 	N 	0.15190 0.30589 0.34391 -0.27500
N 	N 	0.84810 0.15399 0.69201 -0.27500
N 	N 	0.14632 0.29594 0.93894 -0.12900
N 	N 	0.70406 0.56106 0.35368 -0.12900
N 	N 	0.64632 0.70738 0.85038 -0.12900
N 	N 	0.80589 0.15399 0.46198 -0.27500
N 	N 	0.25796 0.93306 0.24084 -0.10400
N 	N 	0.56694 0.32490 0.80778 -0.10400
N 	N 	0.80856 0.75922 0.96834 -0.12900
N 	N 	0.84022 0.80856 0.54934 -0.12900
N 	N 	0.74084 0.25796 0.43306 -0.10400
N 	N 	0.30778 0.56694 0.82490 -0.10400
N 	N 	0.19411 0.34810 0.15609 -0.27500
N 	N 	0.20912 0.74078 0.54934 -0.12900
N 	N 	0.65399 0.34810 0.19201 -0.27500
N 	N 	0.45066 0.69144 0.15978 -0.12900
N 	N 	0.67510 0.98288 0.24204 -0.10400
N 	N 	0.29262 0.64300 0.93894 -0.12900
N 	N 	0.19411 0.84601 0.53802 -0.27500
N 	N 	0.15399 0.96198 0.30589 -0.27500
N 	N 	0.84601 0.03802 0.69411 -0.27500
N 	N 	0.29088 0.45066 0.25922 -0.12900
N 	N 	0.15978 0.19144 0.45066 -0.12900
N 	N 	0.75916 0.19222 0.51712 -0.10400
N 	N 	0.93894 0.14300 0.29262 -0.12900
N 	N 	0.14300 0.35038 0.20406 -0.12900
N 	N 	0.14962 0.35700 0.29594 -0.12900
N 	N 	0.15190 0.84601 0.30799 -0.27500
N 	N 	0.19201 0.84810 0.65399 -0.27500
N 	N 	0.64300 0.20406 0.35038 -0.12900
N 	N 	0.79594 0.64632 0.43894 -0.12900
N 	N 	0.20738 0.06106 0.35700 -0.12900
N 	N 	0.93894 0.79594 0.14632 -0.12900
N 	N 	0.95066 0.15978 0.69144 -0.12900
N 	N 	0.80778 0.98288 0.74084 -0.10400
N 	N 	0.65609 0.19411 0.84810 -0.27500
N 	N 	0.17510 0.24204 0.98288 -0.10400
N 	N 	0.65190 0.30799 0.84601 -0.27500
N 	N 	0.20406 0.85038 0.14300 -0.12900
N 	N 	0.15399 0.19201 0.34810 -0.27500
N 	N 	0.69201 0.65399 0.84810 -0.27500
N 	N 	0.75796 0.24084 0.93306 -0.10400
N 	N 	0.06106 0.85700 0.70738 -0.12900
N 	N 	0.20912 0.46834 0.15978 -0.12900
N 	N 	0.80856 0.04934 0.34022 -0.12900
N 	N 	0.43894 0.29262 0.14300 -0.12900
N 	N 	0.96198 0.80589 0.65399 -0.27500
N 	N 	0.30589 0.46198 0.15399 -0.27500
N 	N 	0.98288 0.74204 0.17510 -0.10400
N 	N 	0.19222 0.17510 0.43306 -0.10400
N 	N 	0.53166 0.34022 0.29088 -0.12900
N 	N 	0.84391 0.69201 0.53802 -0.27500
N 	N 	0.51712 0.69222 0.75916 -0.10400
N 	N 	0.70738 0.35038 0.14632 -0.12900
N 	N 	0.32490 0.30778 0.06694 -0.10400
N 	N 	0.69222 0.43306 0.17510 -0.10400
N 	N 	0.19144 0.24078 0.03166 -0.12900
N 	N 	0.45066 0.75922 0.79088 -0.12900
N 	N 	0.70912 0.15978 0.46834 -0.12900
N 	N 	0.51712 0.82490 0.25796 -0.10400
N 	N 	0.30589 0.84391 0.65190 -0.27500
N 	N 	0.53802 0.34601 0.19411 -0.27500
N 	N 	0.74204 0.06694 0.75916 -0.10400
N 	N 	0.04934 0.20912 0.24078 -0.12900
N 	N 	0.80799 0.65609 0.96198 -0.27500
N 	N 	0.70912 0.54934 0.74078 -0.12900
N 	N 	0.95066 0.79088 0.75922 -0.12900
N 	N 	0.67510 0.69222 0.93306 -0.10400
N 	N 	0.30856 0.34022 0.04934 -0.12900
N 	N 	0.25922 0.95066 0.29088 -0.12900
N 	N 	0.70738 0.35700 0.06106 -0.12900
N 	N 	0.30799 0.96198 0.65609 -0.27500
N 	N 	0.17510 0.93306 0.69222 -0.10400
N 	N 	0.34391 0.53802 0.69201 -0.27500
N 	N 	0.69411 0.53802 0.84601 -0.27500
N 	N 	0.84810 0.69411 0.65609 -0.27500
N 	N 	0.85700 0.64962 0.79594 -0.12900
N 	N 	0.79262 0.93894 0.64300 -0.12900
N 	N 	0.19201 0.34391 0.03802 -0.27500
N 	N 	0.69222 0.25916 0.01712 -0.10400
N 	N 	0.84601 0.80799 0.65190 -0.27500
N 	N 	0.79088 0.25922 0.45066 -0.12900
N 	N 	0.46198 0.80799 0.15609 -0.27500
N 	N 	0.15609 0.84810 0.19411 -0.27500
N 	N 	0.74078 0.69144 0.53166 -0.12900
N 	N 	0.03802 0.84391 0.19201 -0.27500
N 	N 	0.43306 0.75796 0.74084 -0.10400
N 	N 	0.75796 0.51712 0.32490 -0.10400
N 	N 	0.03166 0.74078 0.19144 -0.12900
N 	N 	0.34022 0.79088 0.03166 -0.12900
N 	N 	0.84022 0.03166 0.79088 -0.12900
N 	N 	0.69411 0.15609 0.34810 -0.27500
N 	N 	0.19222 0.01712 0.25916 -0.10400
N 	N 	0.32490 0.01712 0.75796 -0.10400
N 	N 	0.69144 0.65978 0.95066 -0.12900
N 	N 	0.85368 0.70406 0.06106 -0.12900
N 	N 	0.25916 0.74204 0.56694 -0.10400
N 	N 	0.93306 0.19222 0.67510 -0.10400
N 	N 	0.80589 0.65190 0.84391 -0.27500
N 	N 	0.06106 0.20406 0.85368 -0.12900
N 	N 	0.82490 0.75796 0.01712 -0.10400
N 	N 	0.98288 0.24084 0.30778 -0.10400
N 	N 	0.56106 0.85368 0.20406 -0.12900
N 	N 	0.30856 0.96834 0.75922 -0.12900
N 	N 	0.96198 0.15609 0.80799 -0.27500
N 	N 	0.35368 0.06106 0.70406 -0.12900
N 	N 	0.15609 0.30799 0.46198 -0.27500
N 	N 	0.65190 0.34391 0.30589 -0.27500
N 	N 	0.03166 0.29088 0.34022 -0.12900
N 	N 	0.25922 0.30856 0.46834 -0.12900
N 	N 	0.34601 0.65190 0.80799 -0.27500
N 	N 	0.85038 0.20738 0.64632 -0.12900
N 	N 	0.30778 0.74084 0.98288 -0.10400
N 	N 	0.34601 0.69411 0.03802 -0.27500
N 	N 	0.75916 0.56694 0.74204 -0.10400
N 	N 	0.03802 0.19411 0.34601 -0.27500
N 	N 	0.93306 0.74084 0.75796 -0.10400
N 	N 	0.79088 0.53166 0.84022 -0.12900
N 	N 	0.82490 0.06694 0.30778 -0.10400
N 	N 	0.01712 0.25796 0.82490 -0.10400
N 	N 	0.79262 0.85368 0.64962 -0.12900
N 	N 	0.64962 0.29594 0.35700 -0.12900
N 	N 	0.15978 0.96834 0.20912 -0.12900
N 	N 	0.14962 0.79262 0.35368 -0.12900
N 	N 	0.79594 0.14962 0.85700 -0.12900
N 	N 	0.35700 0.79594 0.64962 -0.12900
N 	N 	0.48288 0.17510 0.74204 -0.10400
N 	N 	0.46198 0.65399 0.80589 -0.27500
N 	N 	0.65399 0.30589 0.96198 -0.27500
N 	N 	0.34022 0.54934 0.80856 -0.12900
N 	N 	0.24078 0.70912 0.04934 -0.12900
N 	N 	0.70406 0.14300 0.85038 -0.12900
N 	N 	0.56106 0.70738 0.85700 -0.12900
N 	N 	0.80778 0.82490 0.56694 -0.10400
N 	N 	0.54934 0.24078 0.20912 -0.12900
N 	N 	0.35700 0.56106 0.20738 -0.12900
N 	N 	0.69144 0.03166 0.24078 -0.12900
N 	N 	0.43306 0.67510 0.19222 -0.10400
N 	N 	0.24084 0.80778 0.48288 -0.10400
N 	N 	0.19144 0.95066 0.65978 -0.12900
