data_crystal

_cell_length_a 27.28800
_cell_length_b 27.28800
_cell_length_c 27.28800
_cell_angle_alpha 60.00000
_cell_angle_beta  60.00000
_cell_angle_gamma 60.00000

_symmetry_space_group_name_	'P 1'
_symmetry_space_group_name_H-M	'P 1'

loop_
_symmetry_equiv_pos_as_xyz
  x,y,z

loop_
_atom_site_label
_atom_site_type_symbol
_atom_site_fract_x
_atom_site_fract_y
_atom_site_fract_z
_atom_site_charge
Zn	Zn	0.31935 0.31935 0.31935 1.11600
Zn	Zn	0.80468 0.19532 0.80468 1.16800
Zn	Zn	0.62689 0.11933 0.62689 1.18100
Zn	Zn	0.04195 0.31935 0.31935 1.11500
Zn	Zn	0.37311 0.88067 0.37311 1.18100
Zn	Zn	0.80468 0.80468 0.19532 1.16800
Zn	Zn	0.72745 0.72745 0.27255 1.18500
Zn	Zn	0.19532 0.19532 0.80468 1.16800
Zn	Zn	0.68065 0.68065 0.95805 1.11500
Zn	Zn	0.31935 0.31935 0.04195 1.11500
Zn	Zn	0.68065 0.95805 0.68065 1.11500
Zn	Zn	0.72745 0.27255 0.27255 1.18500
Zn	Zn	0.11933 0.62689 0.62689 1.18100
Zn	Zn	0.27255 0.72745 0.72745 1.18500
Zn	Zn	0.37311 0.37311 0.37311 1.18100
Zn	Zn	0.27255 0.72745 0.27255 1.18500
Zn	Zn	0.31935 0.04195 0.31935 1.11500
Zn	Zn	0.95805 0.68065 0.68065 1.11500
Zn	Zn	0.19532 0.80468 0.80468 1.16800
Zn	Zn	0.72745 0.27255 0.72745 1.18500
Zn	Zn	0.27255 0.27255 0.72745 1.18600
Zn	Zn	0.62689 0.62689 0.11933 1.18200
Zn	Zn	0.68065 0.68065 0.68065 1.11700
Zn	Zn	0.62689 0.62689 0.62689 1.18200
Zn	Zn	0.88067 0.37311 0.37311 1.18200
Zn	Zn	0.80468 0.19532 0.19532 1.16900
Zn	Zn	0.37311 0.37311 0.88067 1.18200
Zn	Zn	0.19532 0.80468 0.19532 1.16900
H 	H 	0.89640 0.70980 0.46260 1.32600
H 	H 	0.02750 0.81590 0.81590 0.23800
H 	H 	0.53740 0.06880 0.29020 1.32600
H 	H 	0.95830 0.72050 0.42930 1.34800
H 	H 	0.10360 0.53740 0.29020 1.32600
H 	H 	0.86870 0.28670 0.28670 0.11500
H 	H 	0.92200 0.95340 0.39240 1.31700
H 	H 	0.23580 0.04820 0.48020 0.21000
H 	H 	0.89190 0.42930 0.72050 1.34800
H 	H 	0.71330 0.13130 0.71330 0.11500
H 	H 	0.81590 0.34070 0.81590 0.25300
H 	H 	0.04660 0.26780 0.60760 1.31100
H 	H 	0.04170 0.10810 0.57070 1.35400
H 	H 	0.46260 0.89640 0.70980 1.32600
H 	H 	0.29020 0.10360 0.53740 1.32600
H 	H 	0.06880 0.53740 0.29020 1.32600
H 	H 	0.72050 0.95830 0.89190 1.28100
H 	H 	0.07800 0.26780 0.04660 1.24300
H 	H 	0.92200 0.95340 0.73220 1.24300
H 	H 	0.60760 0.26780 0.04660 1.31100
H 	H 	0.93120 0.89640 0.70980 1.25900
H 	H 	0.76420 0.51980 0.95180 0.21000
H 	H 	0.06880 0.53740 0.10360 1.33200
H 	H 	0.89640 0.46260 0.70980 1.32600
H 	H 	0.23580 0.48020 0.04820 0.21000
H 	H 	0.04820 0.23580 0.48020 0.21000
H 	H 	0.28670 0.86870 0.55790 0.12200
H 	H 	0.92200 0.73220 0.39240 1.31100
H 	H 	0.53740 0.10360 0.06880 1.33200
H 	H 	0.28670 0.28670 0.55790 0.12100
H 	H 	0.23580 0.04820 0.23580 0.19700
H 	H 	0.04660 0.07800 0.26780 1.24300
H 	H 	0.42930 0.72050 0.89190 1.34800
H 	H 	0.04170 0.57070 0.27950 1.34800
H 	H 	0.46260 0.93120 0.70980 1.32600
H 	H 	0.04660 0.26780 0.07800 1.24300
H 	H 	0.04660 0.07800 0.60760 1.31700
H 	H 	0.95340 0.39240 0.73220 1.31100
H 	H 	0.18410 0.18410 0.97250 0.23800
H 	H 	0.93120 0.70980 0.46260 1.32600
H 	H 	0.26780 0.60760 0.07800 1.31100
H 	H 	0.86870 0.28670 0.55790 0.12200
H 	H 	0.95830 0.89190 0.42930 1.35400
H 	H 	0.97250 0.18410 0.65930 0.25400
H 	H 	0.29020 0.53740 0.06880 1.32600
H 	H 	0.51980 0.76420 0.95180 0.21000
H 	H 	0.60760 0.07800 0.04660 1.31700
H 	H 	0.92200 0.39240 0.95340 1.31700
H 	H 	0.89190 0.95830 0.42930 1.35400
H 	H 	0.73220 0.39240 0.92200 1.31100
H 	H 	0.39240 0.73220 0.92200 1.31100
H 	H 	0.46260 0.93120 0.89640 1.33200
H 	H 	0.27950 0.57070 0.10810 1.34800
H 	H 	0.29020 0.53740 0.10360 1.32600
H 	H 	0.81590 0.02750 0.34070 0.25400
H 	H 	0.02750 0.34070 0.81590 0.25400
H 	H 	0.72050 0.42930 0.95830 1.34800
H 	H 	0.10810 0.57070 0.27950 1.34800
H 	H 	0.39240 0.95340 0.92200 1.31700
H 	H 	0.27950 0.57070 0.04170 1.34800
H 	H 	0.95180 0.76420 0.76420 0.19700
H 	H 	0.95180 0.51980 0.76420 0.21000
H 	H 	0.10360 0.53740 0.06880 1.33200
H 	H 	0.10360 0.29020 0.53740 1.32600
H 	H 	0.89640 0.93120 0.46260 1.33200
H 	H 	0.06880 0.10360 0.53740 1.33200
H 	H 	0.53740 0.06880 0.10360 1.33200
H 	H 	0.29020 0.06880 0.53740 1.32600
H 	H 	0.48020 0.04820 0.23580 0.21000
H 	H 	0.57070 0.10810 0.27950 1.34800
H 	H 	0.04820 0.48020 0.23580 0.21000
H 	H 	0.34070 0.81590 0.81590 0.25300
H 	H 	0.71330 0.13130 0.44210 0.12200
H 	H 	0.57070 0.27950 0.04170 1.34800
H 	H 	0.72050 0.95830 0.42930 1.34800
H 	H 	0.26780 0.04660 0.60760 1.31100
H 	H 	0.27950 0.04170 0.57070 1.34800
H 	H 	0.71330 0.44210 0.71330 0.12100
H 	H 	0.53740 0.29020 0.06880 1.32600
H 	H 	0.72050 0.89190 0.42930 1.34800
H 	H 	0.07800 0.60760 0.04660 1.31700
H 	H 	0.51980 0.95180 0.76420 0.21000
H 	H 	0.46260 0.89640 0.93120 1.33200
H 	H 	0.71330 0.71330 0.13130 0.11500
H 	H 	0.27950 0.10810 0.57070 1.34800
H 	H 	0.53740 0.10360 0.29020 1.32600
H 	H 	0.95340 0.92200 0.39240 1.31700
H 	H 	0.81590 0.34070 0.02750 0.25400
H 	H 	0.10360 0.06880 0.29020 1.25900
H 	H 	0.39240 0.92200 0.73220 1.31100
H 	H 	0.29020 0.06880 0.10360 1.25900
H 	H 	0.70980 0.46260 0.93120 1.32600
H 	H 	0.26780 0.60760 0.04660 1.31100
H 	H 	0.34070 0.02750 0.81590 0.25400
H 	H 	0.97250 0.18410 0.18410 0.23800
H 	H 	0.60760 0.04660 0.07800 1.31700
H 	H 	0.04660 0.60760 0.07800 1.31700
H 	H 	0.53740 0.29020 0.10360 1.32600
H 	H 	0.46260 0.70980 0.89640 1.32600
H 	H 	0.13130 0.71330 0.44210 0.12200
H 	H 	0.76420 0.76420 0.95180 0.19700
H 	H 	0.95830 0.89190 0.72050 1.28100
H 	H 	0.48020 0.23580 0.04820 0.21000
H 	H 	0.93120 0.46260 0.70980 1.32600
H 	H 	0.28670 0.86870 0.28670 0.11500
H 	H 	0.65930 0.18410 0.18410 0.25300
H 	H 	0.86870 0.55790 0.28670 0.12200
H 	H 	0.44210 0.71330 0.71330 0.12100
H 	H 	0.89190 0.42930 0.95830 1.35400
H 	H 	0.92200 0.39240 0.73220 1.31100
H 	H 	0.04820 0.23580 0.23580 0.19700
H 	H 	0.44210 0.13130 0.71330 0.12200
H 	H 	0.71330 0.44210 0.13130 0.12200
H 	H 	0.26780 0.04660 0.07800 1.24300
H 	H 	0.02750 0.81590 0.34070 0.25400
H 	H 	0.18410 0.18410 0.65930 0.25300
H 	H 	0.95830 0.72050 0.89190 1.28100
H 	H 	0.55790 0.28670 0.86870 0.12200
H 	H 	0.10360 0.06880 0.53740 1.33200
H 	H 	0.42930 0.72050 0.95830 1.34800
H 	H 	0.29020 0.10360 0.06880 1.25900
H 	H 	0.10810 0.27950 0.04170 1.28100
H 	H 	0.39240 0.95340 0.73220 1.31100
H 	H 	0.18410 0.65930 0.97250 0.25400
H 	H 	0.60760 0.26780 0.07800 1.31100
H 	H 	0.76420 0.95180 0.51980 0.21000
H 	H 	0.04170 0.27950 0.10810 1.28100
H 	H 	0.55790 0.28670 0.28670 0.12100
H 	H 	0.89640 0.93120 0.70980 1.25900
H 	H 	0.07800 0.60760 0.26780 1.31100
H 	H 	0.26780 0.07800 0.04660 1.24300
H 	H 	0.18410 0.97250 0.65930 0.25400
H 	H 	0.18410 0.97250 0.18410 0.23800
H 	H 	0.23580 0.23580 0.04820 0.19700
H 	H 	0.28670 0.55790 0.28670 0.12100
H 	H 	0.73220 0.95340 0.92200 1.24300
H 	H 	0.92200 0.73220 0.95340 1.24300
H 	H 	0.60760 0.07800 0.26780 1.31100
H 	H 	0.89640 0.46260 0.93120 1.33200
H 	H 	0.95340 0.39240 0.92200 1.31700
H 	H 	0.76420 0.51980 0.76420 0.20900
H 	H 	0.07800 0.26780 0.60760 1.31100
H 	H 	0.73220 0.39240 0.95340 1.31100
H 	H 	0.70980 0.93120 0.89640 1.25900
H 	H 	0.76420 0.76420 0.51980 0.20900
H 	H 	0.89190 0.72050 0.95830 1.28100
H 	H 	0.28670 0.55790 0.86870 0.12200
H 	H 	0.07800 0.04660 0.60760 1.31700
H 	H 	0.81590 0.81590 0.34070 0.25300
H 	H 	0.73220 0.92200 0.39240 1.31100
H 	H 	0.48020 0.23580 0.23580 0.20900
H 	H 	0.95830 0.42930 0.72050 1.34800
H 	H 	0.55790 0.86870 0.28670 0.12200
H 	H 	0.39240 0.73220 0.95340 1.31100
H 	H 	0.42930 0.95830 0.89190 1.35400
H 	H 	0.06880 0.29020 0.10360 1.25900
H 	H 	0.95340 0.92200 0.73220 1.24300
H 	H 	0.13130 0.71330 0.71330 0.11500
H 	H 	0.81590 0.02750 0.81590 0.23800
H 	H 	0.04170 0.57070 0.10810 1.35400
H 	H 	0.06880 0.10360 0.29020 1.25900
H 	H 	0.51980 0.76420 0.76420 0.20900
H 	H 	0.57070 0.27950 0.10810 1.34800
H 	H 	0.95340 0.73220 0.92200 1.24300
H 	H 	0.89190 0.72050 0.42930 1.34800
H 	H 	0.23580 0.48020 0.23580 0.20900
H 	H 	0.95830 0.42930 0.89190 1.35400
H 	H 	0.70980 0.89640 0.46260 1.32600
H 	H 	0.65930 0.18410 0.97250 0.25400
H 	H 	0.93120 0.89640 0.46260 1.33200
H 	H 	0.42930 0.95830 0.72050 1.34800
H 	H 	0.39240 0.92200 0.95340 1.31700
H 	H 	0.26780 0.07800 0.60760 1.31100
H 	H 	0.73220 0.92200 0.95340 1.24300
H 	H 	0.23580 0.23580 0.48020 0.20900
H 	H 	0.93120 0.70980 0.89640 1.25900
H 	H 	0.04660 0.60760 0.26780 1.31100
H 	H 	0.44210 0.71330 0.13130 0.12200
H 	H 	0.70980 0.89640 0.93120 1.25900
H 	H 	0.57070 0.10810 0.04170 1.35400
H 	H 	0.60760 0.04660 0.26780 1.31100
H 	H 	0.72050 0.42930 0.89190 1.34800
H 	H 	0.57070 0.04170 0.10810 1.35400
H 	H 	0.10360 0.29020 0.06880 1.25900
H 	H 	0.13130 0.44210 0.71330 0.12200
H 	H 	0.34070 0.81590 0.02750 0.25400
H 	H 	0.70980 0.93120 0.46260 1.32600
H 	H 	0.27950 0.10810 0.04170 1.28100
H 	H 	0.73220 0.95340 0.39240 1.31100
H 	H 	0.10810 0.04170 0.27950 1.28100
H 	H 	0.28670 0.28670 0.86870 0.11500
H 	H 	0.46260 0.70980 0.93120 1.32600
H 	H 	0.89190 0.95830 0.72050 1.28100
H 	H 	0.42930 0.89190 0.95830 1.35400
H 	H 	0.71330 0.71330 0.44210 0.12100
H 	H 	0.70980 0.46260 0.89640 1.32600
H 	H 	0.04170 0.10810 0.27950 1.28100
H 	H 	0.93120 0.46260 0.89640 1.33200
H 	H 	0.10810 0.57070 0.04170 1.35400
H 	H 	0.57070 0.04170 0.27950 1.34800
H 	H 	0.07800 0.04660 0.26780 1.24300
H 	H 	0.04170 0.27950 0.57070 1.34800
H 	H 	0.76420 0.95180 0.76420 0.19700
H 	H 	0.42930 0.89190 0.72050 1.34800
H 	H 	0.10810 0.04170 0.57070 1.35400
H 	H 	0.81590 0.81590 0.02750 0.23800
H 	H 	0.18410 0.65930 0.18410 0.25300
H 	H 	0.06880 0.29020 0.53740 1.32600
H 	H 	0.10810 0.27950 0.57070 1.34800
H 	H 	0.95180 0.76420 0.51980 0.21000
H 	H 	0.65930 0.97250 0.18410 0.25400
H 	H 	0.95340 0.73220 0.39240 1.31100
H 	H 	0.72050 0.89190 0.95830 1.28100
H 	H 	0.97250 0.65930 0.18410 0.25400
H 	H 	0.89640 0.70980 0.93120 1.25900
H 	H 	0.27950 0.04170 0.10810 1.28100
C 	C 	0.20500 0.62140 0.20500 -0.92800
C 	C 	0.42700 0.79760 0.88770 3.66400
C 	C 	0.79640 0.79640 0.42940 1.09600
C 	C 	0.17130 0.17130 0.08300 -2.81600
C 	C 	0.76460 0.98546 0.48534 -0.90100
C 	C 	0.96860 0.20500 0.20500 -0.86700
C 	C 	0.26610 0.90684 0.56096 -0.38200
C 	C 	0.57300 0.11230 0.11230 3.67300
C 	C 	0.08300 0.17130 0.57440 -2.97100
C 	C 	0.23380 0.23380 0.67270 0.20500
C 	C 	0.51466 0.23540 0.01454 -0.90100
C 	C 	0.73390 0.09316 0.43904 -0.38200
C 	C 	0.42700 0.88770 0.79760 3.66400
C 	C 	0.97780 0.42940 0.79640 1.09700
C 	C 	0.95770 0.50910 0.26660 0.16700
C 	C 	0.73440 0.91880 0.42800 -8.21400
C 	C 	0.23540 0.01454 0.23540 -0.85400
C 	C 	0.95124 0.29980 0.29980 0.31600
C 	C 	0.26560 0.08120 0.08120 -7.80800
C 	C 	0.42700 0.88770 0.88770 3.67300
C 	C 	0.57200 0.08120 0.08120 -8.24600
C 	C 	0.44916 0.29980 0.95124 0.30700
C 	C 	0.85970 0.67270 0.23380 0.20600
C 	C 	0.08620 0.38200 0.76590 0.26000
C 	C 	0.04876 0.70020 0.70020 0.31600
C 	C 	0.42940 0.97780 0.79640 1.09700
C 	C 	0.14030 0.76620 0.76620 0.21700
C 	C 	0.76590 0.38200 0.08620 0.26000
C 	C 	0.37860 0.79500 0.03140 -0.92600
C 	C 	0.08620 0.76590 0.38200 0.26000
C 	C 	0.26610 0.56096 0.90684 -0.38200
C 	C 	0.48534 0.76460 0.98546 -0.90100
C 	C 	0.70020 0.70020 0.55084 0.30800
C 	C 	0.73390 0.43904 0.73390 -0.38000
C 	C 	0.67270 0.23380 0.85970 0.20600
C 	C 	0.23540 0.23540 0.01454 -0.85400
C 	C 	0.01454 0.51466 0.23540 -0.90100
C 	C 	0.23410 0.91380 0.61800 0.26000
C 	C 	0.56096 0.90684 0.26610 -0.38200
C 	C 	0.04876 0.70020 0.55084 0.30700
C 	C 	0.48534 0.98546 0.76460 -0.90100
C 	C 	0.76460 0.76460 0.48534 -0.89600
C 	C 	0.42560 0.82870 0.91700 -2.97100
C 	C 	0.38200 0.08620 0.76590 0.26000
C 	C 	0.76620 0.14030 0.76620 0.21700
C 	C 	0.09316 0.73390 0.43904 -0.38200
C 	C 	0.42940 0.79640 0.97780 1.09700
C 	C 	0.73440 0.42800 0.91880 -8.21400
C 	C 	0.82870 0.82870 0.42560 -2.96700
C 	C 	0.82870 0.42560 0.82870 -2.96700
C 	C 	0.56096 0.26610 0.90684 -0.38200
C 	C 	0.02220 0.20360 0.57060 1.09700
C 	C 	0.02220 0.57060 0.20360 1.09700
C 	C 	0.76460 0.98546 0.76460 -0.85400
C 	C 	0.62140 0.20500 0.20500 -0.92800
C 	C 	0.20500 0.96860 0.62140 -0.92600
C 	C 	0.88770 0.88770 0.42700 3.67300
C 	C 	0.11230 0.11230 0.57300 3.67300
C 	C 	0.79640 0.42940 0.97780 1.09700
C 	C 	0.23380 0.23380 0.85970 0.21700
C 	C 	0.55084 0.04876 0.70020 0.30700
C 	C 	0.76590 0.08620 0.76590 0.23300
C 	C 	0.51466 0.01454 0.23540 -0.90100
C 	C 	0.90684 0.26610 0.56096 -0.38200
C 	C 	0.20360 0.20360 0.57060 1.09600
C 	C 	0.73340 0.73340 0.49090 0.16100
C 	C 	0.79640 0.97780 0.42940 1.09700
C 	C 	0.20240 0.11230 0.57300 3.66400
C 	C 	0.08300 0.17130 0.17130 -2.81600
C 	C 	0.57060 0.02220 0.20360 1.09700
C 	C 	0.79640 0.42940 0.79640 1.09600
C 	C 	0.44916 0.29980 0.29980 0.30800
C 	C 	0.91880 0.73440 0.91880 -7.80800
C 	C 	0.73340 0.04230 0.49090 0.16700
C 	C 	0.98546 0.76460 0.48534 -0.90100
C 	C 	0.26560 0.08120 0.57200 -8.21400
C 	C 	0.61800 0.91380 0.23410 0.26000
C 	C 	0.76590 0.76590 0.38200 0.25900
C 	C 	0.42800 0.91880 0.73440 -8.21400
C 	C 	0.20500 0.96860 0.20500 -0.86700
C 	C 	0.11230 0.20240 0.57300 3.66400
C 	C 	0.08120 0.08120 0.57200 -8.24600
C 	C 	0.23410 0.23410 0.61800 0.25900
C 	C 	0.17130 0.57440 0.17130 -2.96700
C 	C 	0.01454 0.23540 0.51466 -0.90100
C 	C 	0.91380 0.23410 0.61800 0.26000
C 	C 	0.62140 0.96860 0.20500 -0.92600
C 	C 	0.23410 0.61800 0.91380 0.26000
C 	C 	0.76620 0.32730 0.14030 0.20600
C 	C 	0.57060 0.20360 0.20360 1.09600
C 	C 	0.23380 0.85970 0.67270 0.20600
C 	C 	0.26610 0.26610 0.56096 -0.38000
C 	C 	0.02220 0.20360 0.20360 1.02900
C 	C 	0.29980 0.44916 0.29980 0.30800
C 	C 	0.04230 0.73340 0.73340 0.14800
C 	C 	0.97780 0.79640 0.42940 1.09700
C 	C 	0.55084 0.70020 0.04876 0.30700
C 	C 	0.57200 0.26560 0.08120 -8.21400
C 	C 	0.08120 0.26560 0.57200 -8.21400
C 	C 	0.23410 0.61800 0.23410 0.25900
C 	C 	0.23540 0.23540 0.51466 -0.89600
C 	C 	0.76620 0.32730 0.76620 0.20500
C 	C 	0.79500 0.79500 0.03140 -0.86700
C 	C 	0.82870 0.91700 0.42560 -2.97100
C 	C 	0.76590 0.38200 0.76590 0.25900
C 	C 	0.73390 0.73390 0.43904 -0.38000
C 	C 	0.76590 0.08620 0.38200 0.26000
C 	C 	0.73340 0.49090 0.04230 0.16700
C 	C 	0.91700 0.42560 0.82870 -2.97100
C 	C 	0.42800 0.73440 0.91880 -8.21400
C 	C 	0.20360 0.02220 0.57060 1.09700
C 	C 	0.14030 0.32730 0.76620 0.20600
C 	C 	0.73340 0.04230 0.73340 0.14800
C 	C 	0.04230 0.49090 0.73340 0.16700
C 	C 	0.08120 0.26560 0.08120 -7.80800
C 	C 	0.26610 0.26610 0.90684 -0.35600
C 	C 	0.79500 0.37860 0.79500 -0.92800
C 	C 	0.11230 0.20240 0.11230 3.47500
C 	C 	0.23380 0.67270 0.85970 0.20600
C 	C 	0.20500 0.62140 0.96860 -0.92600
C 	C 	0.96860 0.62140 0.20500 -0.92600
C 	C 	0.70020 0.55084 0.04876 0.30700
C 	C 	0.90684 0.56096 0.26610 -0.38200
C 	C 	0.32730 0.76620 0.76620 0.20500
C 	C 	0.57440 0.17130 0.08300 -2.97100
C 	C 	0.56096 0.26610 0.26610 -0.38000
C 	C 	0.88770 0.79760 0.42700 3.66400
C 	C 	0.23380 0.85970 0.23380 0.21700
C 	C 	0.20500 0.20500 0.96860 -0.86700
C 	C 	0.26660 0.26660 0.95770 0.14800
C 	C 	0.73340 0.49090 0.73340 0.16100
C 	C 	0.76460 0.48534 0.76460 -0.89600
C 	C 	0.20240 0.11230 0.11230 3.47500
C 	C 	0.67270 0.85970 0.23380 0.20600
C 	C 	0.91880 0.91880 0.42800 -8.24600
C 	C 	0.29980 0.95124 0.44916 0.30700
C 	C 	0.32730 0.76620 0.14030 0.20600
C 	C 	0.26660 0.26660 0.50910 0.16100
C 	C 	0.04230 0.73340 0.49090 0.16700
C 	C 	0.11230 0.57300 0.20240 3.66400
C 	C 	0.76460 0.76460 0.98546 -0.85400
C 	C 	0.82870 0.42560 0.91700 -2.97100
C 	C 	0.97780 0.79640 0.79640 1.02900
C 	C 	0.70020 0.04876 0.70020 0.31600
C 	C 	0.23410 0.23410 0.91380 0.23300
C 	C 	0.61800 0.23410 0.91380 0.26000
C 	C 	0.57060 0.20360 0.02220 1.09700
C 	C 	0.20360 0.57060 0.02220 1.09700
C 	C 	0.82870 0.91700 0.82870 -2.81600
C 	C 	0.76590 0.76590 0.08620 0.23300
C 	C 	0.49090 0.04230 0.73340 0.16700
C 	C 	0.55084 0.70020 0.70020 0.30800
C 	C 	0.23540 0.01454 0.51466 -0.90100
C 	C 	0.67270 0.23380 0.23380 0.20500
C 	C 	0.91880 0.73440 0.42800 -8.21400
C 	C 	0.79760 0.42700 0.88770 3.66400
C 	C 	0.23410 0.91380 0.23410 0.23300
C 	C 	0.62140 0.20500 0.96860 -0.92600
C 	C 	0.42800 0.91880 0.91880 -8.24600
C 	C 	0.91700 0.82870 0.42560 -2.97100
C 	C 	0.70020 0.04876 0.55084 0.30700
C 	C 	0.11230 0.57300 0.11230 3.67300
C 	C 	0.23540 0.51466 0.01454 -0.90100
C 	C 	0.29980 0.44916 0.95124 0.30700
C 	C 	0.79760 0.88770 0.42700 3.66400
C 	C 	0.98546 0.48534 0.76460 -0.90100
C 	C 	0.03140 0.79500 0.37860 -0.92600
C 	C 	0.49090 0.73340 0.04230 0.16700
C 	C 	0.43904 0.09316 0.73390 -0.38200
C 	C 	0.90684 0.26610 0.26610 -0.35600
C 	C 	0.20240 0.57300 0.11230 3.66400
C 	C 	0.38200 0.76590 0.08620 0.26000
C 	C 	0.44916 0.95124 0.29980 0.30700
C 	C 	0.08120 0.08120 0.26560 -7.80800
C 	C 	0.70020 0.55084 0.70020 0.30800
C 	C 	0.96860 0.20500 0.62140 -0.92600
C 	C 	0.76620 0.14030 0.32730 0.20600
C 	C 	0.79500 0.37860 0.03140 -0.92600
C 	C 	0.48534 0.76460 0.76460 -0.89600
C 	C 	0.91700 0.82870 0.82870 -2.81600
C 	C 	0.42560 0.82870 0.82870 -2.96700
C 	C 	0.14030 0.76620 0.32730 0.20600
C 	C 	0.49090 0.73340 0.73340 0.16100
C 	C 	0.73390 0.09316 0.73390 -0.35600
C 	C 	0.57200 0.08120 0.26560 -8.21400
C 	C 	0.20500 0.20500 0.62140 -0.92800
C 	C 	0.38200 0.76590 0.76590 0.25900
C 	C 	0.73340 0.73340 0.04230 0.14800
C 	C 	0.85970 0.23380 0.23380 0.21700
C 	C 	0.04876 0.55084 0.70020 0.30700
C 	C 	0.91880 0.91880 0.73440 -7.80800
C 	C 	0.79760 0.88770 0.88770 3.47500
C 	C 	0.91880 0.42800 0.73440 -8.21400
C 	C 	0.08300 0.57440 0.17130 -2.97100
C 	C 	0.08120 0.57200 0.08120 -8.24600
C 	C 	0.29980 0.29980 0.44916 0.30800
C 	C 	0.01454 0.23540 0.23540 -0.85400
C 	C 	0.23380 0.67270 0.23380 0.20500
C 	C 	0.85970 0.23380 0.67270 0.20600
C 	C 	0.70020 0.70020 0.04876 0.31600
C 	C 	0.88770 0.88770 0.79760 3.47500
C 	C 	0.57300 0.20240 0.11230 3.66400
C 	C 	0.09316 0.43904 0.73390 -0.38200
C 	C 	0.73440 0.91880 0.91880 -7.80800
C 	C 	0.98546 0.76460 0.76460 -0.85400
C 	C 	0.26660 0.50910 0.95770 0.16700
C 	C 	0.50910 0.95770 0.26660 0.16700
C 	C 	0.76620 0.76620 0.14030 0.21700
C 	C 	0.17130 0.08300 0.57440 -2.97100
C 	C 	0.91880 0.42800 0.91880 -8.24600
C 	C 	0.57440 0.17130 0.17130 -2.96700
C 	C 	0.09316 0.73390 0.73390 -0.35600
C 	C 	0.57440 0.08300 0.17130 -2.97100
C 	C 	0.26610 0.56096 0.26610 -0.38000
C 	C 	0.17130 0.17130 0.57440 -2.96700
C 	C 	0.43904 0.73390 0.73390 -0.38000
C 	C 	0.08120 0.57200 0.26560 -8.21400
C 	C 	0.26660 0.95770 0.50910 0.16700
C 	C 	0.29980 0.29980 0.95124 0.31600
C 	C 	0.20360 0.20360 0.02220 1.02900
C 	C 	0.95770 0.26660 0.26660 0.14800
C 	C 	0.23540 0.51466 0.23540 -0.89600
C 	C 	0.88770 0.42700 0.79760 3.66400
C 	C 	0.88770 0.42700 0.88770 3.67300
C 	C 	0.26660 0.95770 0.26660 0.14800
C 	C 	0.20360 0.57060 0.20360 1.09600
C 	C 	0.73390 0.43904 0.09316 -0.38200
C 	C 	0.26660 0.50910 0.26660 0.16100
C 	C 	0.03140 0.37860 0.79500 -0.92600
C 	C 	0.51466 0.23540 0.23540 -0.89600
C 	C 	0.95124 0.29980 0.44916 0.30700
C 	C 	0.91380 0.23410 0.23410 0.23300
C 	C 	0.91380 0.61800 0.23410 0.26000
C 	C 	0.50910 0.26660 0.95770 0.16700
C 	C 	0.20360 0.02220 0.20360 1.02900
C 	C 	0.79640 0.97780 0.79640 1.02900
C 	C 	0.76460 0.48534 0.98546 -0.90100
C 	C 	0.26610 0.90684 0.26610 -0.35600
C 	C 	0.61800 0.23410 0.23410 0.25900
C 	C 	0.43904 0.73390 0.09316 -0.38200
C 	C 	0.32730 0.14030 0.76620 0.20600
C 	C 	0.17130 0.08300 0.17130 -2.81600
C 	C 	0.79640 0.79640 0.97780 1.02900
C 	C 	0.79500 0.03140 0.37860 -0.92600
C 	C 	0.57300 0.11230 0.20240 3.66400
C 	C 	0.29980 0.95124 0.29980 0.31600
C 	C 	0.79500 0.79500 0.37860 -0.92800
C 	C 	0.82870 0.82870 0.91700 -2.81600
C 	C 	0.08620 0.76590 0.76590 0.23300
C 	C 	0.37860 0.03140 0.79500 -0.92600
C 	C 	0.42940 0.79640 0.79640 1.09600
C 	C 	0.37860 0.79500 0.79500 -0.92800
C 	C 	0.73390 0.73390 0.09316 -0.35600
C 	C 	0.26560 0.57200 0.08120 -8.21400
C 	C 	0.95124 0.44916 0.29980 0.30700
C 	C 	0.76620 0.76620 0.32730 0.20500
C 	C 	0.95770 0.26660 0.50910 0.16700
C 	C 	0.79500 0.03140 0.79500 -0.86700
C 	C 	0.11230 0.11230 0.20240 3.47500
C 	C 	0.03140 0.79500 0.79500 -0.86700
C 	C 	0.42560 0.91700 0.82870 -2.97100
C 	C 	0.17130 0.57440 0.08300 -2.97100
C 	C 	0.88770 0.79760 0.88770 3.47500
C 	C 	0.50910 0.26660 0.26660 0.16100
O 	O 	0.86832 0.20450 0.20450 -0.52800
O 	O 	0.00380 0.70100 0.59420 -0.62400
O 	O 	0.59420 0.00380 0.70100 -0.62400
O 	O 	0.00380 0.59420 0.70100 -0.62400
O 	O 	0.79550 0.27732 0.79550 -0.52800
O 	O 	0.99620 0.29900 0.29900 -0.62400
O 	O 	0.70100 0.00380 0.70100 -0.62400
O 	O 	0.19120 0.73700 0.73700 -0.49300
O 	O 	0.32760 0.89900 0.32760 -0.56900
O 	O 	0.26300 0.66520 0.26300 -0.49200
O 	O 	0.19120 0.73700 0.33480 -0.49100
O 	O 	0.55420 0.67240 0.67240 -0.56900
O 	O 	0.13168 0.27732 0.79550 -0.52700
O 	O 	0.32760 0.89900 0.44580 -0.56700
O 	O 	0.59420 0.70100 0.70100 -0.62800
O 	O 	0.67240 0.67240 0.55420 -0.56900
O 	O 	0.20450 0.20450 0.86832 -0.52800
O 	O 	0.67240 0.10100 0.55420 -0.56700
O 	O 	0.29900 0.40580 0.99620 -0.62400
O 	O 	0.89900 0.32760 0.44580 -0.56700
O 	O 	0.80880 0.26300 0.66520 -0.49100
O 	O 	0.20450 0.86832 0.72268 -0.52700
O 	O 	0.19120 0.33480 0.73700 -0.49100
O 	O 	0.72268 0.20450 0.20450 -0.52800
O 	O 	0.79550 0.13168 0.79550 -0.52800
O 	O 	0.80880 0.66520 0.26300 -0.49100
O 	O 	0.20450 0.72268 0.86832 -0.52700
O 	O 	0.67240 0.10100 0.67240 -0.56900
O 	O 	0.29900 0.99620 0.29900 -0.62400
O 	O 	0.99620 0.40580 0.29900 -0.62400
O 	O 	0.20450 0.72268 0.20450 -0.52800
O 	O 	0.32760 0.32760 0.44580 -0.56900
O 	O 	0.66520 0.26300 0.26300 -0.49200
O 	O 	0.70100 0.70100 0.59420 -0.62800
O 	O 	0.29900 0.29900 0.40580 -0.62800
O 	O 	0.33480 0.19120 0.73700 -0.49100
O 	O 	0.20450 0.20450 0.72268 -0.52800
O 	O 	0.99620 0.29900 0.40580 -0.62400
O 	O 	0.29900 0.40580 0.29900 -0.62800
O 	O 	0.73700 0.19120 0.73700 -0.49300
O 	O 	0.26300 0.66520 0.80880 -0.49100
O 	O 	0.32760 0.44580 0.89900 -0.56700
O 	O 	0.26300 0.80880 0.26300 -0.49300
O 	O 	0.32760 0.44580 0.32760 -0.56900
O 	O 	0.73700 0.19120 0.33480 -0.49100
O 	O 	0.73700 0.73700 0.33480 -0.49200
O 	O 	0.13168 0.79550 0.79550 -0.52800
O 	O 	0.44580 0.89900 0.32760 -0.56700
O 	O 	0.89900 0.32760 0.32760 -0.56900
O 	O 	0.59420 0.70100 0.00380 -0.62400
O 	O 	0.27732 0.13168 0.79550 -0.52700
O 	O 	0.44580 0.32760 0.89900 -0.56700
O 	O 	0.13168 0.79550 0.27732 -0.52700
O 	O 	0.79550 0.79550 0.27732 -0.52800
O 	O 	0.70100 0.00380 0.59420 -0.62400
O 	O 	0.10100 0.55420 0.67240 -0.56700
O 	O 	0.55420 0.10100 0.67240 -0.56700
O 	O 	0.10100 0.67240 0.67240 -0.56900
O 	O 	0.72268 0.86832 0.20450 -0.52700
O 	O 	0.29900 0.29900 0.99620 -0.62400
O 	O 	0.33480 0.73700 0.73700 -0.49200
O 	O 	0.40580 0.29900 0.29900 -0.62800
O 	O 	0.79550 0.13168 0.27732 -0.52700
O 	O 	0.86832 0.20450 0.72268 -0.52700
O 	O 	0.73700 0.73700 0.19120 -0.49300
O 	O 	0.80880 0.26300 0.26300 -0.49300
O 	O 	0.79550 0.79550 0.13168 -0.52800
O 	O 	0.70100 0.59420 0.70100 -0.62800
O 	O 	0.86832 0.72268 0.20450 -0.52700
O 	O 	0.89900 0.44580 0.32760 -0.56700
O 	O 	0.70100 0.59420 0.00380 -0.62400
O 	O 	0.67240 0.55420 0.10100 -0.56700
O 	O 	0.72268 0.20450 0.86832 -0.52700
O 	O 	0.26300 0.80880 0.66520 -0.49100
O 	O 	0.66520 0.80880 0.26300 -0.49100
O 	O 	0.26300 0.26300 0.66520 -0.49200
O 	O 	0.27732 0.79550 0.13168 -0.52700
O 	O 	0.26300 0.26300 0.80880 -0.49300
O 	O 	0.67240 0.55420 0.67240 -0.56900
O 	O 	0.67240 0.67240 0.10100 -0.56900
O 	O 	0.27732 0.79550 0.79550 -0.52800
O 	O 	0.40580 0.29900 0.99620 -0.62400
O 	O 	0.79550 0.27732 0.13168 -0.52700
O 	O 	0.00380 0.70100 0.70100 -0.62400
O 	O 	0.32760 0.32760 0.89900 -0.56900
O 	O 	0.33480 0.73700 0.19120 -0.49100
O 	O 	0.73700 0.33480 0.73700 -0.49200
O 	O 	0.10100 0.67240 0.55420 -0.56700
O 	O 	0.66520 0.26300 0.80880 -0.49100
O 	O 	0.73700 0.33480 0.19120 -0.49100
O 	O 	0.29900 0.99620 0.40580 -0.62400
O 	O 	0.40580 0.99620 0.29900 -0.62400
O 	O 	0.55420 0.67240 0.10100 -0.56700
O 	O 	0.20450 0.86832 0.20450 -0.52800
O 	O 	0.70100 0.70100 0.00380 -0.62400
O 	O 	0.44580 0.32760 0.32760 -0.56900
