data_crystal

_cell_length_a 32.40390
_cell_length_b 32.40390
_cell_length_c 32.40390
_cell_angle_alpha 60.00000
_cell_angle_beta  60.00000
_cell_angle_gamma 60.00000

_symmetry_space_group_name_	'P 1'
_symmetry_space_group_name_H-M	'P 1'

loop_
_symmetry_equiv_pos_as_xyz
  x,y,z

loop_
_atom_site_label
_atom_site_type_symbol
_atom_site_fract_x
_atom_site_fract_y
_atom_site_fract_z
_atom_site_charge
N 	N 	0.90992 0.62642 0.29224 -0.13700
H 	H 	0.87490 0.44270 0.31650 0.02900
H 	H 	0.89920 0.50940 0.32040 0.02600
C 	C 	0.95567 0.58053 0.29391 -0.04400
H 	H 	0.97900 0.58160 0.25920 0.02700
H 	H 	0.94590 0.54990 0.31030 0.02500
C 	C 	0.75532 0.70838 0.30612 -0.05300
H 	H 	0.74510 0.67790 0.32690 0.02900
H 	H 	0.77530 0.70810 0.32150 0.02900
H 	H 	0.82150 0.75450 0.18730 0.02700
C 	C 	0.92571 0.67231 0.26709 -0.05200
H 	H 	0.89520 0.70300 0.26740 0.02800
H 	H 	0.94680 0.67520 0.23140 0.02800
C 	C 	0.87704 0.62676 0.34484 -0.04900
H 	H 	0.86410 0.59810 0.36350 0.02600
H 	H 	0.84760 0.65840 0.34360 0.02600
H 	H 	0.59660 0.47620 0.52560 0.02600
C 	C 	0.78634 0.50956 0.31404 -0.05200
H 	H 	0.74880 0.52180 0.32600 0.02800
H 	H 	0.79890 0.48850 0.29350 0.02600
H 	H 	0.67880 0.49840 0.44900 0.02700
C 	C 	0.80577 0.55561 0.28079 -0.05200
H 	H 	0.82790 0.55310 0.24670 0.02800
H 	H 	0.77650 0.58730 0.27710 0.02700
N 	N 	0.62642 0.90992 0.17142 -0.13800
H 	H 	0.44270 0.87490 0.36590 0.02800
H 	H 	0.50940 0.89920 0.27100 0.02500
C 	C 	0.58053 0.95567 0.16989 -0.04500
H 	H 	0.58160 0.97900 0.18020 0.02600
H 	H 	0.54990 0.94590 0.19390 0.02400
C 	C 	0.70838 0.75532 0.23018 -0.05500
H 	H 	0.67790 0.74510 0.25010 0.02800
H 	H 	0.70810 0.77530 0.19510 0.02800
H 	H 	0.75450 0.82150 0.23670 0.02600
C 	C 	0.67231 0.92571 0.13489 -0.05300
H 	H 	0.70300 0.89520 0.13440 0.02700
H 	H 	0.67520 0.94680 0.14660 0.02700
C 	C 	0.62676 0.87704 0.15136 -0.05000
H 	H 	0.59810 0.86410 0.17430 0.02500
H 	H 	0.65840 0.84760 0.15040 0.02600
H 	H 	0.47620 0.59660 0.40160 0.02600
C 	C 	0.50956 0.78634 0.39006 -0.05300
H 	H 	0.52180 0.74880 0.40340 0.02800
H 	H 	0.48850 0.79890 0.41910 0.02600
H 	H 	0.49840 0.67880 0.37380 0.02700
C 	C 	0.55561 0.80577 0.35783 -0.05200
H 	H 	0.55310 0.82790 0.37230 0.02800
H 	H 	0.58730 0.77650 0.35910 0.02700
N 	N 	0.29224 0.17142 0.90992 -0.13800
H 	H 	0.31650 0.36590 0.87490 0.02800
H 	H 	0.32040 0.27100 0.89920 0.02500
C 	C 	0.29391 0.16989 0.95567 -0.04600
H 	H 	0.25920 0.18020 0.97900 0.02600
H 	H 	0.31030 0.19390 0.94590 0.02400
C 	C 	0.30612 0.23018 0.75532 -0.05500
H 	H 	0.32690 0.25010 0.74510 0.02800
H 	H 	0.32150 0.19510 0.77530 0.02800
H 	H 	0.18730 0.23670 0.82150 0.02600
C 	C 	0.26709 0.13489 0.92571 -0.05300
H 	H 	0.26740 0.13440 0.89520 0.02700
H 	H 	0.23140 0.14660 0.94680 0.02700
C 	C 	0.34484 0.15136 0.87704 -0.05000
H 	H 	0.36350 0.17430 0.86410 0.02500
H 	H 	0.34360 0.15040 0.84760 0.02600
H 	H 	0.52560 0.40160 0.59660 0.02600
C 	C 	0.31404 0.39006 0.78634 -0.05300
H 	H 	0.32600 0.40340 0.74880 0.02800
H 	H 	0.29350 0.41910 0.79890 0.02600
H 	H 	0.44900 0.37380 0.67880 0.02700
C 	C 	0.28079 0.35783 0.80577 -0.05200
H 	H 	0.24670 0.37230 0.82790 0.02800
H 	H 	0.27710 0.35910 0.77650 0.02700
N 	N 	0.17142 0.29224 0.62642 -0.13700
H 	H 	0.36590 0.31650 0.44270 0.02800
H 	H 	0.27100 0.32040 0.50940 0.02500
C 	C 	0.16989 0.29391 0.58053 -0.05100
H 	H 	0.18020 0.25920 0.58160 0.02900
H 	H 	0.19390 0.31030 0.54990 0.02600
C 	C 	0.23018 0.30612 0.70838 -0.05500
H 	H 	0.25010 0.32690 0.67790 0.02800
H 	H 	0.19510 0.32150 0.70810 0.02800
H 	H 	0.23670 0.18730 0.75450 0.02600
C 	C 	0.13489 0.26709 0.67231 -0.05300
H 	H 	0.13440 0.26740 0.70300 0.02700
H 	H 	0.14660 0.23140 0.67520 0.02800
C 	C 	0.15136 0.34484 0.62676 -0.05100
H 	H 	0.17430 0.36350 0.59810 0.02500
H 	H 	0.15040 0.34360 0.65840 0.02600
H 	H 	0.40160 0.52560 0.47620 0.02600
C 	C 	0.39006 0.31404 0.50956 -0.05300
H 	H 	0.40340 0.32600 0.52180 0.02800
H 	H 	0.41910 0.29350 0.48850 0.02700
H 	H 	0.37380 0.44900 0.49840 0.02700
C 	C 	0.35783 0.28079 0.55561 -0.05200
H 	H 	0.37230 0.24670 0.55310 0.02800
H 	H 	0.35910 0.27710 0.58730 0.02700
N 	N 	0.29224 0.90992 0.62642 -0.13800
H 	H 	0.31650 0.87490 0.44270 0.02800
H 	H 	0.32040 0.89920 0.50940 0.02500
C 	C 	0.29391 0.95567 0.58053 -0.04500
H 	H 	0.25920 0.97900 0.58160 0.02600
H 	H 	0.31030 0.94590 0.54990 0.02400
C 	C 	0.30612 0.75532 0.70838 -0.05400
H 	H 	0.32690 0.74510 0.67790 0.02800
H 	H 	0.32150 0.77530 0.70810 0.02800
H 	H 	0.18730 0.82150 0.75450 0.02600
C 	C 	0.26709 0.92571 0.67231 -0.05300
H 	H 	0.26740 0.89520 0.70300 0.02700
H 	H 	0.23140 0.94680 0.67520 0.02700
C 	C 	0.34484 0.87704 0.62676 -0.05000
H 	H 	0.36350 0.86410 0.59810 0.02500
H 	H 	0.34360 0.84760 0.65840 0.02500
H 	H 	0.52560 0.59660 0.47620 0.02500
C 	C 	0.31404 0.78634 0.50956 -0.05300
H 	H 	0.32600 0.74880 0.52180 0.02800
H 	H 	0.29350 0.79890 0.48850 0.02600
H 	H 	0.44900 0.67880 0.49840 0.02700
C 	C 	0.28079 0.80577 0.55561 -0.05200
H 	H 	0.24670 0.82790 0.55310 0.02800
H 	H 	0.27710 0.77650 0.58730 0.02700
N 	N 	0.17142 0.62642 0.90992 -0.13800
H 	H 	0.36590 0.44270 0.87490 0.02800
H 	H 	0.27100 0.50940 0.89920 0.02500
C 	C 	0.16989 0.58053 0.95567 -0.04500
H 	H 	0.18020 0.58160 0.97900 0.02600
H 	H 	0.19390 0.54990 0.94590 0.02400
C 	C 	0.23018 0.70838 0.75532 -0.05500
H 	H 	0.25010 0.67790 0.74510 0.02800
H 	H 	0.19510 0.70810 0.77530 0.02800
H 	H 	0.23670 0.75450 0.82150 0.02600
C 	C 	0.13489 0.67231 0.92571 -0.05300
H 	H 	0.13440 0.70300 0.89520 0.02700
H 	H 	0.14660 0.67520 0.94680 0.02700
C 	C 	0.15136 0.62676 0.87704 -0.05000
H 	H 	0.17430 0.59810 0.86410 0.02500
H 	H 	0.15040 0.65840 0.84760 0.02600
H 	H 	0.40160 0.47620 0.59660 0.02600
C 	C 	0.39006 0.50956 0.78634 -0.05300
H 	H 	0.40340 0.52180 0.74880 0.02800
H 	H 	0.41910 0.48850 0.79890 0.02600
H 	H 	0.37380 0.49840 0.67880 0.02700
C 	C 	0.35783 0.55561 0.80577 -0.05200
H 	H 	0.37230 0.55310 0.82790 0.02800
H 	H 	0.35910 0.58730 0.77650 0.02700
N 	N 	0.90992 0.29224 0.17142 -0.13800
H 	H 	0.87490 0.31650 0.36590 0.02800
H 	H 	0.89920 0.32040 0.27100 0.02500
C 	C 	0.95567 0.29391 0.16989 -0.04600
H 	H 	0.97900 0.25920 0.18020 0.02600
H 	H 	0.94590 0.31030 0.19390 0.02400
C 	C 	0.75532 0.30612 0.23018 -0.05500
H 	H 	0.74510 0.32690 0.25010 0.02800
H 	H 	0.77530 0.32150 0.19510 0.02800
H 	H 	0.82150 0.18730 0.23670 0.02600
C 	C 	0.92571 0.26709 0.13489 -0.05300
H 	H 	0.89520 0.26740 0.13440 0.02700
H 	H 	0.94680 0.23140 0.14660 0.02700
C 	C 	0.87704 0.34484 0.15136 -0.05000
H 	H 	0.86410 0.36350 0.17430 0.02500
H 	H 	0.84760 0.34360 0.15040 0.02600
H 	H 	0.59660 0.52560 0.40160 0.02600
C 	C 	0.78634 0.31404 0.39006 -0.05300
H 	H 	0.74880 0.32600 0.40340 0.02800
H 	H 	0.79890 0.29350 0.41910 0.02600
H 	H 	0.67880 0.44900 0.37380 0.02700
C 	C 	0.80577 0.28079 0.35783 -0.05200
H 	H 	0.82790 0.24670 0.37230 0.02800
H 	H 	0.77650 0.27710 0.35910 0.02700
N 	N 	0.62642 0.17142 0.29224 -0.13700
H 	H 	0.44270 0.36590 0.31650 0.02800
H 	H 	0.50940 0.27100 0.32040 0.02500
C 	C 	0.58053 0.16989 0.29391 -0.05100
H 	H 	0.58160 0.18020 0.25920 0.02900
H 	H 	0.54990 0.19390 0.31030 0.02600
C 	C 	0.70838 0.23018 0.30612 -0.05500
H 	H 	0.67790 0.25010 0.32690 0.02800
H 	H 	0.70810 0.19510 0.32150 0.02800
H 	H 	0.75450 0.23670 0.18730 0.02600
C 	C 	0.67231 0.13489 0.26709 -0.05300
H 	H 	0.70300 0.13440 0.26740 0.02700
H 	H 	0.67520 0.14660 0.23140 0.02800
C 	C 	0.62676 0.15136 0.34484 -0.05100
H 	H 	0.59810 0.17430 0.36350 0.02500
H 	H 	0.65840 0.15040 0.34360 0.02600
H 	H 	0.47620 0.40160 0.52560 0.02600
C 	C 	0.50956 0.39006 0.31404 -0.05300
H 	H 	0.52180 0.40340 0.32600 0.02800
H 	H 	0.48850 0.41910 0.29350 0.02700
H 	H 	0.49840 0.37380 0.44900 0.02700
C 	C 	0.55561 0.35783 0.28079 -0.05200
H 	H 	0.55310 0.37230 0.24670 0.02800
H 	H 	0.58730 0.35910 0.27710 0.02700
N 	N 	0.62642 0.29224 0.90992 -0.13800
H 	H 	0.44270 0.31650 0.87490 0.02800
H 	H 	0.50940 0.32040 0.89920 0.02500
C 	C 	0.58053 0.29391 0.95567 -0.04500
H 	H 	0.58160 0.25920 0.97900 0.02600
H 	H 	0.54990 0.31030 0.94590 0.02400
C 	C 	0.70838 0.30612 0.75532 -0.05400
H 	H 	0.67790 0.32690 0.74510 0.02800
H 	H 	0.70810 0.32150 0.77530 0.02800
H 	H 	0.75450 0.18730 0.82150 0.02600
C 	C 	0.67231 0.26709 0.92571 -0.05300
H 	H 	0.70300 0.26740 0.89520 0.02700
H 	H 	0.67520 0.23140 0.94680 0.02700
C 	C 	0.62676 0.34484 0.87704 -0.05000
H 	H 	0.59810 0.36350 0.86410 0.02500
H 	H 	0.65840 0.34360 0.84760 0.02500
H 	H 	0.47620 0.52560 0.59660 0.02500
C 	C 	0.50956 0.31404 0.78634 -0.05300
H 	H 	0.52180 0.32600 0.74880 0.02800
H 	H 	0.48850 0.29350 0.79890 0.02600
H 	H 	0.49840 0.44900 0.67880 0.02700
C 	C 	0.55561 0.28079 0.80577 -0.05200
H 	H 	0.55310 0.24670 0.82790 0.02800
H 	H 	0.58730 0.27710 0.77650 0.02700
N 	N 	0.90992 0.17142 0.62642 -0.13800
H 	H 	0.87490 0.36590 0.44270 0.02800
H 	H 	0.89920 0.27100 0.50940 0.02500
C 	C 	0.95567 0.16989 0.58053 -0.04500
H 	H 	0.97900 0.18020 0.58160 0.02600
H 	H 	0.94590 0.19390 0.54990 0.02400
C 	C 	0.75532 0.23018 0.70838 -0.05500
H 	H 	0.74510 0.25010 0.67790 0.02800
H 	H 	0.77530 0.19510 0.70810 0.02800
H 	H 	0.82150 0.23670 0.75450 0.02600
C 	C 	0.92571 0.13489 0.67231 -0.05300
H 	H 	0.89520 0.13440 0.70300 0.02700
H 	H 	0.94680 0.14660 0.67520 0.02700
C 	C 	0.87704 0.15136 0.62676 -0.05000
H 	H 	0.86410 0.17430 0.59810 0.02500
H 	H 	0.84760 0.15040 0.65840 0.02600
H 	H 	0.59660 0.40160 0.47620 0.02600
C 	C 	0.78634 0.39006 0.50956 -0.05300
H 	H 	0.74880 0.40340 0.52180 0.02800
H 	H 	0.79890 0.41910 0.48850 0.02600
H 	H 	0.67880 0.37380 0.49840 0.02700
C 	C 	0.80577 0.35783 0.55561 -0.05200
H 	H 	0.82790 0.37230 0.55310 0.02800
H 	H 	0.77650 0.35910 0.58730 0.02700
N 	N 	0.17142 0.90992 0.29224 -0.13800
H 	H 	0.36590 0.87490 0.31650 0.02800
H 	H 	0.27100 0.89920 0.32040 0.02500
C 	C 	0.16989 0.95567 0.29391 -0.04600
H 	H 	0.18020 0.97900 0.25920 0.02600
H 	H 	0.19390 0.94590 0.31030 0.02400
C 	C 	0.23018 0.75532 0.30612 -0.05500
H 	H 	0.25010 0.74510 0.32690 0.02800
H 	H 	0.19510 0.77530 0.32150 0.02800
H 	H 	0.23670 0.82150 0.18730 0.02600
C 	C 	0.13489 0.92571 0.26709 -0.05300
H 	H 	0.13440 0.89520 0.26740 0.02700
H 	H 	0.14660 0.94680 0.23140 0.02700
C 	C 	0.15136 0.87704 0.34484 -0.05000
H 	H 	0.17430 0.86410 0.36350 0.02500
H 	H 	0.15040 0.84760 0.34360 0.02600
H 	H 	0.40160 0.59660 0.52560 0.02600
C 	C 	0.39006 0.78634 0.31404 -0.05300
H 	H 	0.40340 0.74880 0.32600 0.02800
H 	H 	0.41910 0.79890 0.29350 0.02600
H 	H 	0.37380 0.67880 0.44900 0.02700
C 	C 	0.35783 0.80577 0.28079 -0.05200
H 	H 	0.37230 0.82790 0.24670 0.02800
H 	H 	0.35910 0.77650 0.27710 0.02700
N 	N 	0.29224 0.62642 0.17142 -0.13700
H 	H 	0.31650 0.44270 0.36590 0.02800
H 	H 	0.32040 0.50940 0.27100 0.02500
C 	C 	0.29391 0.58053 0.16989 -0.05100
H 	H 	0.25920 0.58160 0.18020 0.02900
H 	H 	0.31030 0.54990 0.19390 0.02600
C 	C 	0.30612 0.70838 0.23018 -0.05500
H 	H 	0.32690 0.67790 0.25010 0.02800
H 	H 	0.32150 0.70810 0.19510 0.02800
H 	H 	0.18730 0.75450 0.23670 0.02600
C 	C 	0.26709 0.67231 0.13489 -0.05300
H 	H 	0.26740 0.70300 0.13440 0.02700
H 	H 	0.23140 0.67520 0.14660 0.02800
C 	C 	0.34484 0.62676 0.15136 -0.05100
H 	H 	0.36350 0.59810 0.17430 0.02500
H 	H 	0.34360 0.65840 0.15040 0.02600
H 	H 	0.52560 0.47620 0.40160 0.02600
C 	C 	0.31404 0.50956 0.39006 -0.05300
H 	H 	0.32600 0.52180 0.40340 0.02800
H 	H 	0.29350 0.48850 0.41910 0.02700
H 	H 	0.44900 0.49840 0.37380 0.02700
C 	C 	0.28079 0.55561 0.35783 -0.05200
H 	H 	0.24670 0.55310 0.37230 0.02800
H 	H 	0.27710 0.58730 0.35910 0.02700
N 	N 	0.34008 0.62358 0.07858 -0.13600
H 	H 	0.37510 0.80730 0.88410 0.02800
H 	H 	0.35080 0.74060 0.97900 0.02300
C 	C 	0.29433 0.66947 0.08011 -0.05200
H 	H 	0.27100 0.66840 0.06980 0.03000
H 	H 	0.30410 0.70010 0.05610 0.02800
C 	C 	0.49468 0.54162 0.01982 -0.04200
H 	H 	0.50490 0.57210 0.99990 0.02000
H 	H 	0.47470 0.54190 0.05490 0.02500
H 	H 	0.42850 0.49550 0.01330 0.02700
C 	C 	0.32429 0.57769 0.11511 -0.05300
H 	H 	0.35480 0.54700 0.11560 0.02800
H 	H 	0.30320 0.57480 0.10340 0.02800
C 	C 	0.37296 0.62324 0.09864 -0.05100
H 	H 	0.38590 0.65190 0.07570 0.02600
H 	H 	0.40240 0.59160 0.09960 0.02600
H 	H 	0.65340 0.77380 0.84840 0.02500
C 	C 	0.46366 0.74044 0.85994 -0.05300
H 	H 	0.50120 0.72820 0.84660 0.02800
H 	H 	0.45110 0.76150 0.83090 0.02600
H 	H 	0.57120 0.75160 0.87620 0.02700
C 	C 	0.44423 0.69439 0.89217 -0.05200
H 	H 	0.42210 0.69690 0.87770 0.02800
H 	H 	0.47350 0.66270 0.89090 0.02700
N 	N 	0.62358 0.34008 0.95776 -0.13700
H 	H 	0.80730 0.37510 0.93350 0.02700
H 	H 	0.74060 0.35080 0.92960 0.02500
C 	C 	0.66947 0.29433 0.95609 -0.05100
H 	H 	0.66840 0.27100 0.99080 0.02600
H 	H 	0.70010 0.30410 0.93970 0.02600
C 	C 	0.54162 0.49468 0.94388 -0.05500
H 	H 	0.57210 0.50490 0.92310 0.02800
H 	H 	0.54190 0.47470 0.92850 0.02700
H 	H 	0.49550 0.42850 0.06270 0.02500
C 	C 	0.57769 0.32429 0.98291 -0.06700
H 	H 	0.54700 0.35480 0.98260 0.02900
H 	H 	0.57480 0.30320 0.01860 0.03600
C 	C 	0.62324 0.37296 0.90516 -0.05100
H 	H 	0.65190 0.38590 0.88650 0.02500
H 	H 	0.59160 0.40240 0.90640 0.02500
H 	H 	0.77380 0.65340 0.72440 0.02500
C 	C 	0.74044 0.46366 0.93596 -0.04700
H 	H 	0.72820 0.50120 0.92400 0.02600
H 	H 	0.76150 0.45110 0.95650 0.02400
H 	H 	0.75160 0.57120 0.80100 0.02700
C 	C 	0.69439 0.44423 0.96921 -0.06600
H 	H 	0.69690 0.42210 0.00330 0.03800
H 	H 	0.66270 0.47350 0.97290 0.03000
N 	N 	0.95776 0.07858 0.62358 -0.13500
H 	H 	0.93350 0.88410 0.80730 0.02700
H 	H 	0.92960 0.97900 0.74060 0.02200
C 	C 	0.95609 0.08011 0.66947 -0.05200
H 	H 	0.99080 0.06980 0.66840 0.02800
H 	H 	0.93970 0.05610 0.70010 0.02800
C 	C 	0.94388 0.01982 0.54162 -0.04200
H 	H 	0.92310 0.99990 0.57210 0.02000
H 	H 	0.92850 0.05490 0.54190 0.02500
H 	H 	0.06270 0.01330 0.49550 0.02700
C 	C 	0.98291 0.11511 0.57769 -0.06700
H 	H 	0.98260 0.11560 0.54700 0.03000
H 	H 	0.01860 0.10340 0.57480 0.03700
C 	C 	0.90516 0.09864 0.62324 -0.05100
H 	H 	0.88650 0.07570 0.65190 0.02600
H 	H 	0.90640 0.09960 0.59160 0.02600
H 	H 	0.72440 0.84840 0.77380 0.02500
C 	C 	0.93596 0.85994 0.74044 -0.04700
H 	H 	0.92400 0.84660 0.72820 0.02500
H 	H 	0.95650 0.83090 0.76150 0.02300
H 	H 	0.80100 0.87620 0.75160 0.02700
C 	C 	0.96921 0.89217 0.69439 -0.06700
H 	H 	0.00330 0.87770 0.69690 0.03800
H 	H 	0.97290 0.89090 0.66270 0.03000
N 	N 	0.07858 0.95776 0.34008 -0.13500
H 	H 	0.88410 0.93350 0.37510 0.02700
H 	H 	0.97900 0.92960 0.35080 0.02200
C 	C 	0.08011 0.95609 0.29433 -0.05200
H 	H 	0.06980 0.99080 0.27100 0.02900
H 	H 	0.05610 0.93970 0.30410 0.02800
C 	C 	0.01982 0.94388 0.49468 -0.04200
H 	H 	0.99990 0.92310 0.50490 0.02000
H 	H 	0.05490 0.92850 0.47470 0.02500
H 	H 	0.01330 0.06270 0.42850 0.02700
C 	C 	0.11511 0.98291 0.32429 -0.06600
H 	H 	0.11560 0.98260 0.35480 0.03000
H 	H 	0.10340 0.01860 0.30320 0.03700
C 	C 	0.09864 0.90516 0.37296 -0.05100
H 	H 	0.07570 0.88650 0.38590 0.02600
H 	H 	0.09960 0.90640 0.40240 0.02600
H 	H 	0.84840 0.72440 0.65340 0.02500
C 	C 	0.85994 0.93596 0.46366 -0.04700
H 	H 	0.84660 0.92400 0.50120 0.02500
H 	H 	0.83090 0.95650 0.45110 0.02300
H 	H 	0.87620 0.80100 0.57120 0.02700
C 	C 	0.89217 0.96921 0.44423 -0.06700
H 	H 	0.87770 0.00330 0.42210 0.03800
H 	H 	0.89090 0.97290 0.47350 0.03000
N 	N 	0.95776 0.34008 0.07858 -0.13500
H 	H 	0.93350 0.37510 0.88410 0.02700
H 	H 	0.92960 0.35080 0.97900 0.02200
C 	C 	0.95609 0.29433 0.08011 -0.05200
H 	H 	0.99080 0.27100 0.06980 0.02900
H 	H 	0.93970 0.30410 0.05610 0.02800
C 	C 	0.94388 0.49468 0.01982 -0.04200
H 	H 	0.92310 0.50490 0.99990 0.02000
H 	H 	0.92850 0.47470 0.05490 0.02500
H 	H 	0.06270 0.42850 0.01330 0.02700
C 	C 	0.98291 0.32429 0.11511 -0.06600
H 	H 	0.98260 0.35480 0.11560 0.03000
H 	H 	0.01860 0.30320 0.10340 0.03700
C 	C 	0.90516 0.37296 0.09864 -0.05100
H 	H 	0.88650 0.38590 0.07570 0.02600
H 	H 	0.90640 0.40240 0.09960 0.02600
H 	H 	0.72440 0.65340 0.84840 0.02500
C 	C 	0.93596 0.46366 0.85994 -0.04700
H 	H 	0.92400 0.50120 0.84660 0.02500
H 	H 	0.95650 0.45110 0.83090 0.02300
H 	H 	0.80100 0.57120 0.87620 0.02700
C 	C 	0.96921 0.44423 0.89217 -0.06700
H 	H 	0.00330 0.42210 0.87770 0.03800
H 	H 	0.97290 0.47350 0.89090 0.03000
N 	N 	0.07858 0.62358 0.95776 -0.13500
H 	H 	0.88410 0.80730 0.93350 0.02700
H 	H 	0.97900 0.74060 0.92960 0.02200
C 	C 	0.08011 0.66947 0.95609 -0.05200
H 	H 	0.06980 0.66840 0.99080 0.02800
H 	H 	0.05610 0.70010 0.93970 0.02800
C 	C 	0.01982 0.54162 0.94388 -0.04200
H 	H 	0.99990 0.57210 0.92310 0.02000
H 	H 	0.05490 0.54190 0.92850 0.02500
H 	H 	0.01330 0.49550 0.06270 0.02700
C 	C 	0.11511 0.57769 0.98291 -0.06700
H 	H 	0.11560 0.54700 0.98260 0.03000
H 	H 	0.10340 0.57480 0.01860 0.03700
C 	C 	0.09864 0.62324 0.90516 -0.05100
H 	H 	0.07570 0.65190 0.88650 0.02600
H 	H 	0.09960 0.59160 0.90640 0.02600
H 	H 	0.84840 0.77380 0.72440 0.02500
C 	C 	0.85994 0.74044 0.93596 -0.04700
H 	H 	0.84660 0.72820 0.92400 0.02500
H 	H 	0.83090 0.76150 0.95650 0.02300
H 	H 	0.87620 0.75160 0.80100 0.02700
C 	C 	0.89217 0.69439 0.96921 -0.06700
H 	H 	0.87770 0.69690 0.00330 0.03800
H 	H 	0.89090 0.66270 0.97290 0.03000
N 	N 	0.34008 0.95776 0.62358 -0.13700
H 	H 	0.37510 0.93350 0.80730 0.02700
H 	H 	0.35080 0.92960 0.74060 0.02500
C 	C 	0.29433 0.95609 0.66947 -0.05100
H 	H 	0.27100 0.99080 0.66840 0.02600
H 	H 	0.30410 0.93970 0.70010 0.02600
C 	C 	0.49468 0.94388 0.54162 -0.05500
H 	H 	0.50490 0.92310 0.57210 0.02800
H 	H 	0.47470 0.92850 0.54190 0.02700
H 	H 	0.42850 0.06270 0.49550 0.02500
C 	C 	0.32429 0.98291 0.57769 -0.06700
H 	H 	0.35480 0.98260 0.54700 0.02900
H 	H 	0.30320 0.01860 0.57480 0.03600
C 	C 	0.37296 0.90516 0.62324 -0.05100
H 	H 	0.38590 0.88650 0.65190 0.02500
H 	H 	0.40240 0.90640 0.59160 0.02500
H 	H 	0.65340 0.72440 0.77380 0.02500
C 	C 	0.46366 0.93596 0.74044 -0.04700
H 	H 	0.50120 0.92400 0.72820 0.02600
H 	H 	0.45110 0.95650 0.76150 0.02400
H 	H 	0.57120 0.80100 0.75160 0.02700
C 	C 	0.44423 0.96921 0.69439 -0.06600
H 	H 	0.42210 0.00330 0.69690 0.03800
H 	H 	0.47350 0.97290 0.66270 0.03000
N 	N 	0.62358 0.07858 0.34008 -0.13600
H 	H 	0.80730 0.88410 0.37510 0.02800
H 	H 	0.74060 0.97900 0.35080 0.02300
C 	C 	0.66947 0.08011 0.29433 -0.05200
H 	H 	0.66840 0.06980 0.27100 0.03000
H 	H 	0.70010 0.05610 0.30410 0.02800
C 	C 	0.54162 0.01982 0.49468 -0.04200
H 	H 	0.57210 0.99990 0.50490 0.02000
H 	H 	0.54190 0.05490 0.47470 0.02500
H 	H 	0.49550 0.01330 0.42850 0.02700
C 	C 	0.57769 0.11511 0.32429 -0.05300
H 	H 	0.54700 0.11560 0.35480 0.02800
H 	H 	0.57480 0.10340 0.30320 0.02800
C 	C 	0.62324 0.09864 0.37296 -0.05100
H 	H 	0.65190 0.07570 0.38590 0.02600
H 	H 	0.59160 0.09960 0.40240 0.02600
H 	H 	0.77380 0.84840 0.65340 0.02500
C 	C 	0.74044 0.85994 0.46366 -0.05300
H 	H 	0.72820 0.84660 0.50120 0.02800
H 	H 	0.76150 0.83090 0.45110 0.02600
H 	H 	0.75160 0.87620 0.57120 0.02700
C 	C 	0.69439 0.89217 0.44423 -0.05200
H 	H 	0.69690 0.87770 0.42210 0.02800
H 	H 	0.66270 0.89090 0.47350 0.02700
N 	N 	0.62358 0.95776 0.07858 -0.13500
H 	H 	0.80730 0.93350 0.88410 0.02700
H 	H 	0.74060 0.92960 0.97900 0.02200
C 	C 	0.66947 0.95609 0.08011 -0.05200
H 	H 	0.66840 0.99080 0.06980 0.02800
H 	H 	0.70010 0.93970 0.05610 0.02800
C 	C 	0.54162 0.94388 0.01982 -0.04200
H 	H 	0.57210 0.92310 0.99990 0.02000
H 	H 	0.54190 0.92850 0.05490 0.02500
H 	H 	0.49550 0.06270 0.01330 0.02700
C 	C 	0.57769 0.98291 0.11511 -0.06700
H 	H 	0.54700 0.98260 0.11560 0.03000
H 	H 	0.57480 0.01860 0.10340 0.03700
C 	C 	0.62324 0.90516 0.09864 -0.05100
H 	H 	0.65190 0.88650 0.07570 0.02600
H 	H 	0.59160 0.90640 0.09960 0.02600
H 	H 	0.77380 0.72440 0.84840 0.02500
C 	C 	0.74044 0.93596 0.85994 -0.04700
H 	H 	0.72820 0.92400 0.84660 0.02500
H 	H 	0.76150 0.95650 0.83090 0.02300
H 	H 	0.75160 0.80100 0.87620 0.02700
C 	C 	0.69439 0.96921 0.89217 -0.06700
H 	H 	0.69690 0.00330 0.87770 0.03800
H 	H 	0.66270 0.97290 0.89090 0.03000
N 	N 	0.34008 0.07858 0.95776 -0.13500
H 	H 	0.37510 0.88410 0.93350 0.02700
H 	H 	0.35080 0.97900 0.92960 0.02200
C 	C 	0.29433 0.08011 0.95609 -0.05200
H 	H 	0.27100 0.06980 0.99080 0.02900
H 	H 	0.30410 0.05610 0.93970 0.02800
C 	C 	0.49468 0.01982 0.94388 -0.04200
H 	H 	0.50490 0.99990 0.92310 0.02000
H 	H 	0.47470 0.05490 0.92850 0.02500
H 	H 	0.42850 0.01330 0.06270 0.02700
C 	C 	0.32429 0.11511 0.98291 -0.06600
H 	H 	0.35480 0.11560 0.98260 0.03000
H 	H 	0.30320 0.10340 0.01860 0.03700
C 	C 	0.37296 0.09864 0.90516 -0.05100
H 	H 	0.38590 0.07570 0.88650 0.02600
H 	H 	0.40240 0.09960 0.90640 0.02600
H 	H 	0.65340 0.84840 0.72440 0.02500
C 	C 	0.46366 0.85994 0.93596 -0.04700
H 	H 	0.50120 0.84660 0.92400 0.02500
H 	H 	0.45110 0.83090 0.95650 0.02300
H 	H 	0.57120 0.87620 0.80100 0.02700
C 	C 	0.44423 0.89217 0.96921 -0.06700
H 	H 	0.42210 0.87770 0.00330 0.03800
H 	H 	0.47350 0.89090 0.97290 0.03000
N 	N 	0.07858 0.34008 0.62358 -0.13600
H 	H 	0.88410 0.37510 0.80730 0.02800
H 	H 	0.97900 0.35080 0.74060 0.02300
C 	C 	0.08011 0.29433 0.66947 -0.05200
H 	H 	0.06980 0.27100 0.66840 0.03000
H 	H 	0.05610 0.30410 0.70010 0.02800
C 	C 	0.01982 0.49468 0.54162 -0.04200
H 	H 	0.99990 0.50490 0.57210 0.02000
H 	H 	0.05490 0.47470 0.54190 0.02500
H 	H 	0.01330 0.42850 0.49550 0.02700
C 	C 	0.11511 0.32429 0.57769 -0.05300
H 	H 	0.11560 0.35480 0.54700 0.02800
H 	H 	0.10340 0.30320 0.57480 0.02800
C 	C 	0.09864 0.37296 0.62324 -0.05100
H 	H 	0.07570 0.38590 0.65190 0.02600
H 	H 	0.09960 0.40240 0.59160 0.02600
H 	H 	0.84840 0.65340 0.77380 0.02500
C 	C 	0.85994 0.46366 0.74044 -0.05300
H 	H 	0.84660 0.50120 0.72820 0.02800
H 	H 	0.83090 0.45110 0.76150 0.02600
H 	H 	0.87620 0.57120 0.75160 0.02700
C 	C 	0.89217 0.44423 0.69439 -0.05200
H 	H 	0.87770 0.42210 0.69690 0.02800
H 	H 	0.89090 0.47350 0.66270 0.02700
N 	N 	0.95776 0.62358 0.34008 -0.13700
H 	H 	0.93350 0.80730 0.37510 0.02700
H 	H 	0.92960 0.74060 0.35080 0.02500
C 	C 	0.95609 0.66947 0.29433 -0.05100
H 	H 	0.99080 0.66840 0.27100 0.02600
H 	H 	0.93970 0.70010 0.30410 0.02600
C 	C 	0.94388 0.54162 0.49468 -0.05500
H 	H 	0.92310 0.57210 0.50490 0.02800
H 	H 	0.92850 0.54190 0.47470 0.02700
H 	H 	0.06270 0.49550 0.42850 0.02500
C 	C 	0.98291 0.57769 0.32429 -0.06700
H 	H 	0.98260 0.54700 0.35480 0.02900
H 	H 	0.01860 0.57480 0.30320 0.03600
C 	C 	0.90516 0.62324 0.37296 -0.05100
H 	H 	0.88650 0.65190 0.38590 0.02500
H 	H 	0.90640 0.59160 0.40240 0.02500
H 	H 	0.72440 0.77380 0.65340 0.02500
C 	C 	0.93596 0.74044 0.46366 -0.04700
H 	H 	0.92400 0.72820 0.50120 0.02600
H 	H 	0.95650 0.76150 0.45110 0.02400
H 	H 	0.80100 0.75160 0.57120 0.02700
C 	C 	0.96921 0.69439 0.44423 -0.06600
H 	H 	0.00330 0.69690 0.42210 0.03800
H 	H 	0.97290 0.66270 0.47350 0.03000
N 	N 	0.34008 0.62358 0.95776 -0.13700
H 	H 	0.37510 0.80730 0.93350 0.02700
H 	H 	0.35080 0.74060 0.92960 0.02500
C 	C 	0.29433 0.66947 0.95609 -0.05100
H 	H 	0.27100 0.66840 0.99080 0.02600
H 	H 	0.30410 0.70010 0.93970 0.02600
C 	C 	0.49468 0.54162 0.94388 -0.05500
H 	H 	0.50490 0.57210 0.92310 0.02800
H 	H 	0.47470 0.54190 0.92850 0.02700
H 	H 	0.42850 0.49550 0.06270 0.02500
C 	C 	0.32429 0.57769 0.98291 -0.06700
H 	H 	0.35480 0.54700 0.98260 0.02900
H 	H 	0.30320 0.57480 0.01860 0.03600
C 	C 	0.37296 0.62324 0.90516 -0.05100
H 	H 	0.38590 0.65190 0.88650 0.02500
H 	H 	0.40240 0.59160 0.90640 0.02500
H 	H 	0.65340 0.77380 0.72440 0.02500
C 	C 	0.46366 0.74044 0.93596 -0.04700
H 	H 	0.50120 0.72820 0.92400 0.02600
H 	H 	0.45110 0.76150 0.95650 0.02400
H 	H 	0.57120 0.75160 0.80100 0.02700
C 	C 	0.44423 0.69439 0.96921 -0.06600
H 	H 	0.42210 0.69690 0.00330 0.03800
H 	H 	0.47350 0.66270 0.97290 0.03000
N 	N 	0.62358 0.34008 0.07858 -0.13600
H 	H 	0.80730 0.37510 0.88410 0.02800
H 	H 	0.74060 0.35080 0.97900 0.02300
C 	C 	0.66947 0.29433 0.08011 -0.05200
H 	H 	0.66840 0.27100 0.06980 0.03000
H 	H 	0.70010 0.30410 0.05610 0.02800
C 	C 	0.54162 0.49468 0.01982 -0.04200
H 	H 	0.57210 0.50490 0.99990 0.02000
H 	H 	0.54190 0.47470 0.05490 0.02500
H 	H 	0.49550 0.42850 0.01330 0.02700
C 	C 	0.57769 0.32429 0.11511 -0.05300
H 	H 	0.54700 0.35480 0.11560 0.02800
H 	H 	0.57480 0.30320 0.10340 0.02800
C 	C 	0.62324 0.37296 0.09864 -0.05100
H 	H 	0.65190 0.38590 0.07570 0.02600
H 	H 	0.59160 0.40240 0.09960 0.02600
H 	H 	0.77380 0.65340 0.84840 0.02500
C 	C 	0.74044 0.46366 0.85994 -0.05300
H 	H 	0.72820 0.50120 0.84660 0.02800
H 	H 	0.76150 0.45110 0.83090 0.02600
H 	H 	0.75160 0.57120 0.87620 0.02700
C 	C 	0.69439 0.44423 0.89217 -0.05200
H 	H 	0.69690 0.42210 0.87770 0.02800
H 	H 	0.66270 0.47350 0.89090 0.02700
N 	N 	0.95776 0.07858 0.34008 -0.13500
H 	H 	0.93350 0.88410 0.37510 0.02700
H 	H 	0.92960 0.97900 0.35080 0.02200
C 	C 	0.95609 0.08011 0.29433 -0.05200
H 	H 	0.99080 0.06980 0.27100 0.02900
H 	H 	0.93970 0.05610 0.30410 0.02800
C 	C 	0.94388 0.01982 0.49468 -0.04200
H 	H 	0.92310 0.99990 0.50490 0.02000
H 	H 	0.92850 0.05490 0.47470 0.02500
H 	H 	0.06270 0.01330 0.42850 0.02700
C 	C 	0.98291 0.11511 0.32429 -0.06600
H 	H 	0.98260 0.11560 0.35480 0.03000
H 	H 	0.01860 0.10340 0.30320 0.03700
C 	C 	0.90516 0.09864 0.37296 -0.05100
H 	H 	0.88650 0.07570 0.38590 0.02600
H 	H 	0.90640 0.09960 0.40240 0.02600
H 	H 	0.72440 0.84840 0.65340 0.02500
C 	C 	0.93596 0.85994 0.46366 -0.04700
H 	H 	0.92400 0.84660 0.50120 0.02500
H 	H 	0.95650 0.83090 0.45110 0.02300
H 	H 	0.80100 0.87620 0.57120 0.02700
C 	C 	0.96921 0.89217 0.44423 -0.06700
H 	H 	0.00330 0.87770 0.42210 0.03800
H 	H 	0.97290 0.89090 0.47350 0.03000
N 	N 	0.07858 0.95776 0.62358 -0.13500
H 	H 	0.88410 0.93350 0.80730 0.02700
H 	H 	0.97900 0.92960 0.74060 0.02200
C 	C 	0.08011 0.95609 0.66947 -0.05200
H 	H 	0.06980 0.99080 0.66840 0.02800
H 	H 	0.05610 0.93970 0.70010 0.02800
C 	C 	0.01982 0.94388 0.54162 -0.04200
H 	H 	0.99990 0.92310 0.57210 0.02000
H 	H 	0.05490 0.92850 0.54190 0.02500
H 	H 	0.01330 0.06270 0.49550 0.02700
C 	C 	0.11511 0.98291 0.57769 -0.06700
H 	H 	0.11560 0.98260 0.54700 0.03000
H 	H 	0.10340 0.01860 0.57480 0.03700
C 	C 	0.09864 0.90516 0.62324 -0.05100
H 	H 	0.07570 0.88650 0.65190 0.02600
H 	H 	0.09960 0.90640 0.59160 0.02600
H 	H 	0.84840 0.72440 0.77380 0.02500
C 	C 	0.85994 0.93596 0.74044 -0.04700
H 	H 	0.84660 0.92400 0.72820 0.02500
H 	H 	0.83090 0.95650 0.76150 0.02300
H 	H 	0.87620 0.80100 0.75160 0.02700
C 	C 	0.89217 0.96921 0.69439 -0.06700
H 	H 	0.87770 0.00330 0.69690 0.03800
H 	H 	0.89090 0.97290 0.66270 0.03000
N 	N 	0.95776 0.34008 0.62358 -0.13700
H 	H 	0.93350 0.37510 0.80730 0.02700
H 	H 	0.92960 0.35080 0.74060 0.02500
C 	C 	0.95609 0.29433 0.66947 -0.05100
H 	H 	0.99080 0.27100 0.66840 0.02600
H 	H 	0.93970 0.30410 0.70010 0.02600
C 	C 	0.94388 0.49468 0.54162 -0.05500
H 	H 	0.92310 0.50490 0.57210 0.02800
H 	H 	0.92850 0.47470 0.54190 0.02700
H 	H 	0.06270 0.42850 0.49550 0.02500
C 	C 	0.98291 0.32429 0.57769 -0.06700
H 	H 	0.98260 0.35480 0.54700 0.02900
H 	H 	0.01860 0.30320 0.57480 0.03600
C 	C 	0.90516 0.37296 0.62324 -0.05100
H 	H 	0.88650 0.38590 0.65190 0.02500
H 	H 	0.90640 0.40240 0.59160 0.02500
H 	H 	0.72440 0.65340 0.77380 0.02500
C 	C 	0.93596 0.46366 0.74044 -0.04700
H 	H 	0.92400 0.50120 0.72820 0.02600
H 	H 	0.95650 0.45110 0.76150 0.02400
H 	H 	0.80100 0.57120 0.75160 0.02700
C 	C 	0.96921 0.44423 0.69439 -0.06600
H 	H 	0.00330 0.42210 0.69690 0.03800
H 	H 	0.97290 0.47350 0.66270 0.03000
N 	N 	0.07858 0.62358 0.34008 -0.13600
H 	H 	0.88410 0.80730 0.37510 0.02800
H 	H 	0.97900 0.74060 0.35080 0.02300
C 	C 	0.08011 0.66947 0.29433 -0.05200
H 	H 	0.06980 0.66840 0.27100 0.03000
H 	H 	0.05610 0.70010 0.30410 0.02800
C 	C 	0.01982 0.54162 0.49468 -0.04200
H 	H 	0.99990 0.57210 0.50490 0.02000
H 	H 	0.05490 0.54190 0.47470 0.02500
H 	H 	0.01330 0.49550 0.42850 0.02700
C 	C 	0.11511 0.57769 0.32429 -0.05300
H 	H 	0.11560 0.54700 0.35480 0.02800
H 	H 	0.10340 0.57480 0.30320 0.02800
C 	C 	0.09864 0.62324 0.37296 -0.05100
H 	H 	0.07570 0.65190 0.38590 0.02600
H 	H 	0.09960 0.59160 0.40240 0.02600
H 	H 	0.84840 0.77380 0.65340 0.02500
C 	C 	0.85994 0.74044 0.46366 -0.05300
H 	H 	0.84660 0.72820 0.50120 0.02800
H 	H 	0.83090 0.76150 0.45110 0.02600
H 	H 	0.87620 0.75160 0.57120 0.02700
C 	C 	0.89217 0.69439 0.44423 -0.05200
H 	H 	0.87770 0.69690 0.42210 0.02800
H 	H 	0.89090 0.66270 0.47350 0.02700
N 	N 	0.34008 0.95776 0.07858 -0.13500
H 	H 	0.37510 0.93350 0.88410 0.02700
H 	H 	0.35080 0.92960 0.97900 0.02200
C 	C 	0.29433 0.95609 0.08011 -0.05200
H 	H 	0.27100 0.99080 0.06980 0.02900
H 	H 	0.30410 0.93970 0.05610 0.02800
C 	C 	0.49468 0.94388 0.01982 -0.04200
H 	H 	0.50490 0.92310 0.99990 0.02000
H 	H 	0.47470 0.92850 0.05490 0.02500
H 	H 	0.42850 0.06270 0.01330 0.02700
C 	C 	0.32429 0.98291 0.11511 -0.06600
H 	H 	0.35480 0.98260 0.11560 0.03000
H 	H 	0.30320 0.01860 0.10340 0.03700
C 	C 	0.37296 0.90516 0.09864 -0.05100
H 	H 	0.38590 0.88650 0.07570 0.02600
H 	H 	0.40240 0.90640 0.09960 0.02600
H 	H 	0.65340 0.72440 0.84840 0.02500
C 	C 	0.46366 0.93596 0.85994 -0.04700
H 	H 	0.50120 0.92400 0.84660 0.02500
H 	H 	0.45110 0.95650 0.83090 0.02300
H 	H 	0.57120 0.80100 0.87620 0.02700
C 	C 	0.44423 0.96921 0.89217 -0.06700
H 	H 	0.42210 0.00330 0.87770 0.03800
H 	H 	0.47350 0.97290 0.89090 0.03000
N 	N 	0.62358 0.07858 0.95776 -0.13500
H 	H 	0.80730 0.88410 0.93350 0.02700
H 	H 	0.74060 0.97900 0.92960 0.02200
C 	C 	0.66947 0.08011 0.95609 -0.05200
H 	H 	0.66840 0.06980 0.99080 0.02800
H 	H 	0.70010 0.05610 0.93970 0.02800
C 	C 	0.54162 0.01982 0.94388 -0.04200
H 	H 	0.57210 0.99990 0.92310 0.02000
H 	H 	0.54190 0.05490 0.92850 0.02500
H 	H 	0.49550 0.01330 0.06270 0.02700
C 	C 	0.57769 0.11511 0.98291 -0.06700
H 	H 	0.54700 0.11560 0.98260 0.03000
H 	H 	0.57480 0.10340 0.01860 0.03700
C 	C 	0.62324 0.09864 0.90516 -0.05100
H 	H 	0.65190 0.07570 0.88650 0.02600
H 	H 	0.59160 0.09960 0.90640 0.02600
H 	H 	0.77380 0.84840 0.72440 0.02500
C 	C 	0.74044 0.85994 0.93596 -0.04700
H 	H 	0.72820 0.84660 0.92400 0.02500
H 	H 	0.76150 0.83090 0.95650 0.02300
H 	H 	0.75160 0.87620 0.80100 0.02700
C 	C 	0.69439 0.89217 0.96921 -0.06700
H 	H 	0.69690 0.87770 0.00330 0.03800
H 	H 	0.66270 0.89090 0.97290 0.03000
N 	N 	0.62358 0.95776 0.34008 -0.13700
H 	H 	0.80730 0.93350 0.37510 0.02700
H 	H 	0.74060 0.92960 0.35080 0.02500
C 	C 	0.66947 0.95609 0.29433 -0.05100
H 	H 	0.66840 0.99080 0.27100 0.02600
H 	H 	0.70010 0.93970 0.30410 0.02600
C 	C 	0.54162 0.94388 0.49468 -0.05500
H 	H 	0.57210 0.92310 0.50490 0.02800
H 	H 	0.54190 0.92850 0.47470 0.02700
H 	H 	0.49550 0.06270 0.42850 0.02500
C 	C 	0.57769 0.98291 0.32429 -0.06700
H 	H 	0.54700 0.98260 0.35480 0.02900
H 	H 	0.57480 0.01860 0.30320 0.03600
C 	C 	0.62324 0.90516 0.37296 -0.05100
H 	H 	0.65190 0.88650 0.38590 0.02500
H 	H 	0.59160 0.90640 0.40240 0.02500
H 	H 	0.77380 0.72440 0.65340 0.02500
C 	C 	0.74044 0.93596 0.46366 -0.04700
H 	H 	0.72820 0.92400 0.50120 0.02600
H 	H 	0.76150 0.95650 0.45110 0.02400
H 	H 	0.75160 0.80100 0.57120 0.02700
C 	C 	0.69439 0.96921 0.44423 -0.06600
H 	H 	0.69690 0.00330 0.42210 0.03800
H 	H 	0.66270 0.97290 0.47350 0.03000
N 	N 	0.34008 0.07858 0.62358 -0.13600
H 	H 	0.37510 0.88410 0.80730 0.02800
H 	H 	0.35080 0.97900 0.74060 0.02300
C 	C 	0.29433 0.08011 0.66947 -0.05200
H 	H 	0.27100 0.06980 0.66840 0.03000
H 	H 	0.30410 0.05610 0.70010 0.02800
C 	C 	0.49468 0.01982 0.54162 -0.04200
H 	H 	0.50490 0.99990 0.57210 0.02000
H 	H 	0.47470 0.05490 0.54190 0.02500
H 	H 	0.42850 0.01330 0.49550 0.02700
C 	C 	0.32429 0.11511 0.57769 -0.05300
H 	H 	0.35480 0.11560 0.54700 0.02800
H 	H 	0.30320 0.10340 0.57480 0.02800
C 	C 	0.37296 0.09864 0.62324 -0.05100
H 	H 	0.38590 0.07570 0.65190 0.02600
H 	H 	0.40240 0.09960 0.59160 0.02600
H 	H 	0.65340 0.84840 0.77380 0.02500
C 	C 	0.46366 0.85994 0.74044 -0.05300
H 	H 	0.50120 0.84660 0.72820 0.02800
H 	H 	0.45110 0.83090 0.76150 0.02600
H 	H 	0.57120 0.87620 0.75160 0.02700
C 	C 	0.44423 0.89217 0.69439 -0.05200
H 	H 	0.42210 0.87770 0.69690 0.02800
H 	H 	0.47350 0.89090 0.66270 0.02700
N 	N 	0.07858 0.34008 0.95776 -0.13500
H 	H 	0.88410 0.37510 0.93350 0.02700
H 	H 	0.97900 0.35080 0.92960 0.02200
C 	C 	0.08011 0.29433 0.95609 -0.05200
H 	H 	0.06980 0.27100 0.99080 0.02900
H 	H 	0.05610 0.30410 0.93970 0.02800
C 	C 	0.01982 0.49468 0.94388 -0.04200
H 	H 	0.99990 0.50490 0.92310 0.02000
H 	H 	0.05490 0.47470 0.92850 0.02500
H 	H 	0.01330 0.42850 0.06270 0.02700
C 	C 	0.11511 0.32429 0.98291 -0.06600
H 	H 	0.11560 0.35480 0.98260 0.03000
H 	H 	0.10340 0.30320 0.01860 0.03700
C 	C 	0.09864 0.37296 0.90516 -0.05100
H 	H 	0.07570 0.38590 0.88650 0.02600
H 	H 	0.09960 0.40240 0.90640 0.02600
H 	H 	0.84840 0.65340 0.72440 0.02500
C 	C 	0.85994 0.46366 0.93596 -0.04700
H 	H 	0.84660 0.50120 0.92400 0.02500
H 	H 	0.83090 0.45110 0.95650 0.02300
H 	H 	0.87620 0.57120 0.80100 0.02700
C 	C 	0.89217 0.44423 0.96921 -0.06700
H 	H 	0.87770 0.42210 0.00330 0.03800
H 	H 	0.89090 0.47350 0.97290 0.03000
N 	N 	0.95776 0.62358 0.07858 -0.13500
H 	H 	0.93350 0.80730 0.88410 0.02700
H 	H 	0.92960 0.74060 0.97900 0.02200
C 	C 	0.95609 0.66947 0.08011 -0.05200
H 	H 	0.99080 0.66840 0.06980 0.02800
H 	H 	0.93970 0.70010 0.05610 0.02800
C 	C 	0.94388 0.54162 0.01982 -0.04200
H 	H 	0.92310 0.57210 0.99990 0.02000
H 	H 	0.92850 0.54190 0.05490 0.02500
H 	H 	0.06270 0.49550 0.01330 0.02700
C 	C 	0.98291 0.57769 0.11511 -0.06700
H 	H 	0.98260 0.54700 0.11560 0.03000
H 	H 	0.01860 0.57480 0.10340 0.03700
C 	C 	0.90516 0.62324 0.09864 -0.05100
H 	H 	0.88650 0.65190 0.07570 0.02600
H 	H 	0.90640 0.59160 0.09960 0.02600
H 	H 	0.72440 0.77380 0.84840 0.02500
C 	C 	0.93596 0.74044 0.85994 -0.04700
H 	H 	0.92400 0.72820 0.84660 0.02500
H 	H 	0.95650 0.76150 0.83090 0.02300
H 	H 	0.80100 0.75160 0.87620 0.02700
C 	C 	0.96921 0.69439 0.89217 -0.06700
H 	H 	0.00330 0.69690 0.87770 0.03800
H 	H 	0.97290 0.66270 0.89090 0.03000
N 	N 	0.90992 0.62642 0.17142 -0.13800
H 	H 	0.87490 0.44270 0.36590 0.02800
H 	H 	0.89920 0.50940 0.27100 0.02500
C 	C 	0.95567 0.58053 0.16989 -0.04500
H 	H 	0.97900 0.58160 0.18020 0.02600
H 	H 	0.94590 0.54990 0.19390 0.02400
C 	C 	0.75532 0.70838 0.23018 -0.05500
H 	H 	0.74510 0.67790 0.25010 0.02800
H 	H 	0.77530 0.70810 0.19510 0.02800
H 	H 	0.82150 0.75450 0.23670 0.02600
C 	C 	0.92571 0.67231 0.13489 -0.05300
H 	H 	0.89520 0.70300 0.13440 0.02700
H 	H 	0.94680 0.67520 0.14660 0.02700
C 	C 	0.87704 0.62676 0.15136 -0.05000
H 	H 	0.86410 0.59810 0.17430 0.02500
H 	H 	0.84760 0.65840 0.15040 0.02600
H 	H 	0.59660 0.47620 0.40160 0.02600
C 	C 	0.78634 0.50956 0.39006 -0.05300
H 	H 	0.74880 0.52180 0.40340 0.02800
H 	H 	0.79890 0.48850 0.41910 0.02600
H 	H 	0.67880 0.49840 0.37380 0.02700
C 	C 	0.80577 0.55561 0.35783 -0.05200
H 	H 	0.82790 0.55310 0.37230 0.02800
H 	H 	0.77650 0.58730 0.35910 0.02700
N 	N 	0.62642 0.90992 0.29224 -0.13800
H 	H 	0.44270 0.87490 0.31650 0.02800
H 	H 	0.50940 0.89920 0.32040 0.02500
C 	C 	0.58053 0.95567 0.29391 -0.04500
H 	H 	0.58160 0.97900 0.25920 0.02600
H 	H 	0.54990 0.94590 0.31030 0.02400
C 	C 	0.70838 0.75532 0.30612 -0.05400
H 	H 	0.67790 0.74510 0.32690 0.02800
H 	H 	0.70810 0.77530 0.32150 0.02800
H 	H 	0.75450 0.82150 0.18730 0.02600
C 	C 	0.67231 0.92571 0.26709 -0.05300
H 	H 	0.70300 0.89520 0.26740 0.02700
H 	H 	0.67520 0.94680 0.23140 0.02700
C 	C 	0.62676 0.87704 0.34484 -0.05000
H 	H 	0.59810 0.86410 0.36350 0.02500
H 	H 	0.65840 0.84760 0.34360 0.02500
H 	H 	0.47620 0.59660 0.52560 0.02500
C 	C 	0.50956 0.78634 0.31404 -0.05300
H 	H 	0.52180 0.74880 0.32600 0.02800
H 	H 	0.48850 0.79890 0.29350 0.02600
H 	H 	0.49840 0.67880 0.44900 0.02700
C 	C 	0.55561 0.80577 0.28079 -0.05200
H 	H 	0.55310 0.82790 0.24670 0.02800
H 	H 	0.58730 0.77650 0.27710 0.02700
N 	N 	0.29224 0.17142 0.62642 -0.13700
H 	H 	0.31650 0.36590 0.44270 0.02800
H 	H 	0.32040 0.27100 0.50940 0.02500
C 	C 	0.29391 0.16989 0.58053 -0.05100
H 	H 	0.25920 0.18020 0.58160 0.02900
H 	H 	0.31030 0.19390 0.54990 0.02600
C 	C 	0.30612 0.23018 0.70838 -0.05500
H 	H 	0.32690 0.25010 0.67790 0.02800
H 	H 	0.32150 0.19510 0.70810 0.02800
H 	H 	0.18730 0.23670 0.75450 0.02600
C 	C 	0.26709 0.13489 0.67231 -0.05300
H 	H 	0.26740 0.13440 0.70300 0.02700
H 	H 	0.23140 0.14660 0.67520 0.02800
C 	C 	0.34484 0.15136 0.62676 -0.05100
H 	H 	0.36350 0.17430 0.59810 0.02500
H 	H 	0.34360 0.15040 0.65840 0.02600
H 	H 	0.52560 0.40160 0.47620 0.02600
C 	C 	0.31404 0.39006 0.50956 -0.05300
H 	H 	0.32600 0.40340 0.52180 0.02800
H 	H 	0.29350 0.41910 0.48850 0.02700
H 	H 	0.44900 0.37380 0.49840 0.02700
C 	C 	0.28079 0.35783 0.55561 -0.05200
H 	H 	0.24670 0.37230 0.55310 0.02800
H 	H 	0.27710 0.35910 0.58730 0.02700
N 	N 	0.17142 0.29224 0.90992 -0.13800
H 	H 	0.36590 0.31650 0.87490 0.02800
H 	H 	0.27100 0.32040 0.89920 0.02500
C 	C 	0.16989 0.29391 0.95567 -0.04600
H 	H 	0.18020 0.25920 0.97900 0.02600
H 	H 	0.19390 0.31030 0.94590 0.02400
C 	C 	0.23018 0.30612 0.75532 -0.05500
H 	H 	0.25010 0.32690 0.74510 0.02800
H 	H 	0.19510 0.32150 0.77530 0.02800
H 	H 	0.23670 0.18730 0.82150 0.02600
C 	C 	0.13489 0.26709 0.92571 -0.05300
H 	H 	0.13440 0.26740 0.89520 0.02700
H 	H 	0.14660 0.23140 0.94680 0.02700
C 	C 	0.15136 0.34484 0.87704 -0.05000
H 	H 	0.17430 0.36350 0.86410 0.02500
H 	H 	0.15040 0.34360 0.84760 0.02600
H 	H 	0.40160 0.52560 0.59660 0.02600
C 	C 	0.39006 0.31404 0.78634 -0.05300
H 	H 	0.40340 0.32600 0.74880 0.02800
H 	H 	0.41910 0.29350 0.79890 0.02600
H 	H 	0.37380 0.44900 0.67880 0.02700
C 	C 	0.35783 0.28079 0.80577 -0.05200
H 	H 	0.37230 0.24670 0.82790 0.02800
H 	H 	0.35910 0.27710 0.77650 0.02700
N 	N 	0.29224 0.90992 0.17142 -0.13800
H 	H 	0.31650 0.87490 0.36590 0.02800
H 	H 	0.32040 0.89920 0.27100 0.02500
C 	C 	0.29391 0.95567 0.16989 -0.04600
H 	H 	0.25920 0.97900 0.18020 0.02600
H 	H 	0.31030 0.94590 0.19390 0.02400
C 	C 	0.30612 0.75532 0.23018 -0.05500
H 	H 	0.32690 0.74510 0.25010 0.02800
H 	H 	0.32150 0.77530 0.19510 0.02800
H 	H 	0.18730 0.82150 0.23670 0.02600
C 	C 	0.26709 0.92571 0.13489 -0.05300
H 	H 	0.26740 0.89520 0.13440 0.02700
H 	H 	0.23140 0.94680 0.14660 0.02700
C 	C 	0.34484 0.87704 0.15136 -0.05000
H 	H 	0.36350 0.86410 0.17430 0.02500
H 	H 	0.34360 0.84760 0.15040 0.02600
H 	H 	0.52560 0.59660 0.40160 0.02600
C 	C 	0.31404 0.78634 0.39006 -0.05300
H 	H 	0.32600 0.74880 0.40340 0.02800
H 	H 	0.29350 0.79890 0.41910 0.02600
H 	H 	0.44900 0.67880 0.37380 0.02700
C 	C 	0.28079 0.80577 0.35783 -0.05200
H 	H 	0.24670 0.82790 0.37230 0.02800
H 	H 	0.27710 0.77650 0.35910 0.02700
N 	N 	0.17142 0.62642 0.29224 -0.13700
H 	H 	0.36590 0.44270 0.31650 0.02800
H 	H 	0.27100 0.50940 0.32040 0.02500
C 	C 	0.16989 0.58053 0.29391 -0.05100
H 	H 	0.18020 0.58160 0.25920 0.02900
H 	H 	0.19390 0.54990 0.31030 0.02600
C 	C 	0.23018 0.70838 0.30612 -0.05500
H 	H 	0.25010 0.67790 0.32690 0.02800
H 	H 	0.19510 0.70810 0.32150 0.02800
H 	H 	0.23670 0.75450 0.18730 0.02600
C 	C 	0.13489 0.67231 0.26709 -0.05300
H 	H 	0.13440 0.70300 0.26740 0.02700
H 	H 	0.14660 0.67520 0.23140 0.02800
C 	C 	0.15136 0.62676 0.34484 -0.05100
H 	H 	0.17430 0.59810 0.36350 0.02500
H 	H 	0.15040 0.65840 0.34360 0.02600
H 	H 	0.40160 0.47620 0.52560 0.02600
C 	C 	0.39006 0.50956 0.31404 -0.05300
H 	H 	0.40340 0.52180 0.32600 0.02800
H 	H 	0.41910 0.48850 0.29350 0.02700
H 	H 	0.37380 0.49840 0.44900 0.02700
C 	C 	0.35783 0.55561 0.28079 -0.05200
H 	H 	0.37230 0.55310 0.24670 0.02800
H 	H 	0.35910 0.58730 0.27710 0.02700
N 	N 	0.90992 0.29224 0.62642 -0.13800
H 	H 	0.87490 0.31650 0.44270 0.02800
H 	H 	0.89920 0.32040 0.50940 0.02500
C 	C 	0.95567 0.29391 0.58053 -0.04500
H 	H 	0.97900 0.25920 0.58160 0.02600
H 	H 	0.94590 0.31030 0.54990 0.02400
C 	C 	0.75532 0.30612 0.70838 -0.05400
H 	H 	0.74510 0.32690 0.67790 0.02800
H 	H 	0.77530 0.32150 0.70810 0.02800
H 	H 	0.82150 0.18730 0.75450 0.02600
C 	C 	0.92571 0.26709 0.67231 -0.05300
H 	H 	0.89520 0.26740 0.70300 0.02700
H 	H 	0.94680 0.23140 0.67520 0.02700
C 	C 	0.87704 0.34484 0.62676 -0.05000
H 	H 	0.86410 0.36350 0.59810 0.02500
H 	H 	0.84760 0.34360 0.65840 0.02500
H 	H 	0.59660 0.52560 0.47620 0.02500
C 	C 	0.78634 0.31404 0.50956 -0.05300
H 	H 	0.74880 0.32600 0.52180 0.02800
H 	H 	0.79890 0.29350 0.48850 0.02600
H 	H 	0.67880 0.44900 0.49840 0.02700
C 	C 	0.80577 0.28079 0.55561 -0.05200
H 	H 	0.82790 0.24670 0.55310 0.02800
H 	H 	0.77650 0.27710 0.58730 0.02700
N 	N 	0.62642 0.17142 0.90992 -0.13800
H 	H 	0.44270 0.36590 0.87490 0.02800
H 	H 	0.50940 0.27100 0.89920 0.02500
C 	C 	0.58053 0.16989 0.95567 -0.04500
H 	H 	0.58160 0.18020 0.97900 0.02600
H 	H 	0.54990 0.19390 0.94590 0.02400
C 	C 	0.70838 0.23018 0.75532 -0.05500
H 	H 	0.67790 0.25010 0.74510 0.02800
H 	H 	0.70810 0.19510 0.77530 0.02800
H 	H 	0.75450 0.23670 0.82150 0.02600
C 	C 	0.67231 0.13489 0.92571 -0.05300
H 	H 	0.70300 0.13440 0.89520 0.02700
H 	H 	0.67520 0.14660 0.94680 0.02700
C 	C 	0.62676 0.15136 0.87704 -0.05000
H 	H 	0.59810 0.17430 0.86410 0.02500
H 	H 	0.65840 0.15040 0.84760 0.02600
H 	H 	0.47620 0.40160 0.59660 0.02600
C 	C 	0.50956 0.39006 0.78634 -0.05300
H 	H 	0.52180 0.40340 0.74880 0.02800
H 	H 	0.48850 0.41910 0.79890 0.02600
H 	H 	0.49840 0.37380 0.67880 0.02700
C 	C 	0.55561 0.35783 0.80577 -0.05200
H 	H 	0.55310 0.37230 0.82790 0.02800
H 	H 	0.58730 0.35910 0.77650 0.02700
N 	N 	0.62642 0.29224 0.17142 -0.13700
H 	H 	0.44270 0.31650 0.36590 0.02800
H 	H 	0.50940 0.32040 0.27100 0.02500
C 	C 	0.58053 0.29391 0.16989 -0.05100
H 	H 	0.58160 0.25920 0.18020 0.02900
H 	H 	0.54990 0.31030 0.19390 0.02600
C 	C 	0.70838 0.30612 0.23018 -0.05500
H 	H 	0.67790 0.32690 0.25010 0.02800
H 	H 	0.70810 0.32150 0.19510 0.02800
H 	H 	0.75450 0.18730 0.23670 0.02600
C 	C 	0.67231 0.26709 0.13489 -0.05300
H 	H 	0.70300 0.26740 0.13440 0.02700
H 	H 	0.67520 0.23140 0.14660 0.02800
C 	C 	0.62676 0.34484 0.15136 -0.05100
H 	H 	0.59810 0.36350 0.17430 0.02500
H 	H 	0.65840 0.34360 0.15040 0.02600
H 	H 	0.47620 0.52560 0.40160 0.02600
C 	C 	0.50956 0.31404 0.39006 -0.05300
H 	H 	0.52180 0.32600 0.40340 0.02800
H 	H 	0.48850 0.29350 0.41910 0.02700
H 	H 	0.49840 0.44900 0.37380 0.02700
C 	C 	0.55561 0.28079 0.35783 -0.05200
H 	H 	0.55310 0.24670 0.37230 0.02800
H 	H 	0.58730 0.27710 0.35910 0.02700
N 	N 	0.90992 0.17142 0.29224 -0.13800
H 	H 	0.87490 0.36590 0.31650 0.02800
H 	H 	0.89920 0.27100 0.32040 0.02500
C 	C 	0.95567 0.16989 0.29391 -0.04600
H 	H 	0.97900 0.18020 0.25920 0.02600
H 	H 	0.94590 0.19390 0.31030 0.02400
C 	C 	0.75532 0.23018 0.30612 -0.05500
H 	H 	0.74510 0.25010 0.32690 0.02800
H 	H 	0.77530 0.19510 0.32150 0.02800
H 	H 	0.82150 0.23670 0.18730 0.02600
C 	C 	0.92571 0.13489 0.26709 -0.05300
H 	H 	0.89520 0.13440 0.26740 0.02700
H 	H 	0.94680 0.14660 0.23140 0.02700
C 	C 	0.87704 0.15136 0.34484 -0.05000
H 	H 	0.86410 0.17430 0.36350 0.02500
H 	H 	0.84760 0.15040 0.34360 0.02600
H 	H 	0.59660 0.40160 0.52560 0.02600
C 	C 	0.78634 0.39006 0.31404 -0.05300
H 	H 	0.74880 0.40340 0.32600 0.02800
H 	H 	0.79890 0.41910 0.29350 0.02600
H 	H 	0.67880 0.37380 0.44900 0.02700
C 	C 	0.80577 0.35783 0.28079 -0.05200
H 	H 	0.82790 0.37230 0.24670 0.02800
H 	H 	0.77650 0.35910 0.27710 0.02700
N 	N 	0.17142 0.90992 0.62642 -0.13800
H 	H 	0.36590 0.87490 0.44270 0.02800
H 	H 	0.27100 0.89920 0.50940 0.02500
C 	C 	0.16989 0.95567 0.58053 -0.04500
H 	H 	0.18020 0.97900 0.58160 0.02600
H 	H 	0.19390 0.94590 0.54990 0.02400
C 	C 	0.23018 0.75532 0.70838 -0.05500
H 	H 	0.25010 0.74510 0.67790 0.02800
H 	H 	0.19510 0.77530 0.70810 0.02800
H 	H 	0.23670 0.82150 0.75450 0.02600
C 	C 	0.13489 0.92571 0.67231 -0.05300
H 	H 	0.13440 0.89520 0.70300 0.02700
H 	H 	0.14660 0.94680 0.67520 0.02700
C 	C 	0.15136 0.87704 0.62676 -0.05000
H 	H 	0.17430 0.86410 0.59810 0.02500
H 	H 	0.15040 0.84760 0.65840 0.02600
H 	H 	0.40160 0.59660 0.47620 0.02600
C 	C 	0.39006 0.78634 0.50956 -0.05300
H 	H 	0.40340 0.74880 0.52180 0.02800
H 	H 	0.41910 0.79890 0.48850 0.02600
H 	H 	0.37380 0.67880 0.49840 0.02700
C 	C 	0.35783 0.80577 0.55561 -0.05200
H 	H 	0.37230 0.82790 0.55310 0.02800
H 	H 	0.35910 0.77650 0.58730 0.02700
N 	N 	0.29224 0.62642 0.90992 -0.13800
H 	H 	0.31650 0.44270 0.87490 0.02800
H 	H 	0.32040 0.50940 0.89920 0.02500
C 	C 	0.29391 0.58053 0.95567 -0.04500
H 	H 	0.25920 0.58160 0.97900 0.02600
H 	H 	0.31030 0.54990 0.94590 0.02400
C 	C 	0.30612 0.70838 0.75532 -0.05400
H 	H 	0.32690 0.67790 0.74510 0.02800
H 	H 	0.32150 0.70810 0.77530 0.02800
H 	H 	0.18730 0.75450 0.82150 0.02600
C 	C 	0.26709 0.67231 0.92571 -0.05300
H 	H 	0.26740 0.70300 0.89520 0.02700
H 	H 	0.23140 0.67520 0.94680 0.02700
C 	C 	0.34484 0.62676 0.87704 -0.05000
H 	H 	0.36350 0.59810 0.86410 0.02500
H 	H 	0.34360 0.65840 0.84760 0.02500
H 	H 	0.52560 0.47620 0.59660 0.02500
C 	C 	0.31404 0.50956 0.78634 -0.05300
H 	H 	0.32600 0.52180 0.74880 0.02800
H 	H 	0.29350 0.48850 0.79890 0.02600
H 	H 	0.44900 0.49840 0.67880 0.02700
C 	C 	0.28079 0.55561 0.80577 -0.05200
H 	H 	0.24670 0.55310 0.82790 0.02800
H 	H 	0.27710 0.58730 0.77650 0.02700
Ag	Ag	0.86063 0.63195 0.25371 0.52400
N 	N 	0.78827 0.70655 0.25259 -0.13800
N 	N 	0.83468 0.55772 0.30380 -0.13500
C 	C 	0.86122 0.46338 0.33770 -0.05700
N 	N 	0.80443 0.47859 0.35849 -0.13700
C 	C 	0.87810 0.51026 0.30582 -0.04400
C 	C 	0.80093 0.75393 0.22257 -0.04900
Ag	Ag	0.63195 0.86063 0.25371 0.52400
N 	N 	0.70655 0.78827 0.25259 -0.13800
N 	N 	0.55772 0.83468 0.30380 -0.13500
C 	C 	0.46338 0.86122 0.33770 -0.05700
N 	N 	0.47859 0.80443 0.35849 -0.13700
C 	C 	0.51026 0.87810 0.30582 -0.04400
C 	C 	0.75393 0.80093 0.22257 -0.04900
Ag	Ag	0.25371 0.25371 0.86063 0.52400
N 	N 	0.25259 0.25259 0.78827 -0.13800
N 	N 	0.30380 0.30380 0.83468 -0.13500
C 	C 	0.33770 0.33770 0.86122 -0.05700
N 	N 	0.35849 0.35849 0.80443 -0.13700
C 	C 	0.30582 0.30582 0.87810 -0.04400
C 	C 	0.22257 0.22257 0.80093 -0.04900
Ag	Ag	0.25371 0.25371 0.63195 0.52400
N 	N 	0.25259 0.25259 0.70655 -0.13800
N 	N 	0.30380 0.30380 0.55772 -0.13500
C 	C 	0.33770 0.33770 0.46338 -0.05700
N 	N 	0.35849 0.35849 0.47859 -0.13700
C 	C 	0.30582 0.30582 0.51026 -0.04400
C 	C 	0.22257 0.22257 0.75393 -0.04900
Ag	Ag	0.25371 0.86063 0.63195 0.52400
N 	N 	0.25259 0.78827 0.70655 -0.13800
N 	N 	0.30380 0.83468 0.55772 -0.13500
C 	C 	0.33770 0.86122 0.46338 -0.05700
N 	N 	0.35849 0.80443 0.47859 -0.13700
C 	C 	0.30582 0.87810 0.51026 -0.04400
C 	C 	0.22257 0.80093 0.75393 -0.04900
Ag	Ag	0.25371 0.63195 0.86063 0.52400
N 	N 	0.25259 0.70655 0.78827 -0.13800
N 	N 	0.30380 0.55772 0.83468 -0.13500
C 	C 	0.33770 0.46338 0.86122 -0.05700
N 	N 	0.35849 0.47859 0.80443 -0.13700
C 	C 	0.30582 0.51026 0.87810 -0.04400
C 	C 	0.22257 0.75393 0.80093 -0.04900
Ag	Ag	0.86063 0.25371 0.25371 0.52400
N 	N 	0.78827 0.25259 0.25259 -0.13800
N 	N 	0.83468 0.30380 0.30380 -0.13500
C 	C 	0.86122 0.33770 0.33770 -0.05700
N 	N 	0.80443 0.35849 0.35849 -0.13700
C 	C 	0.87810 0.30582 0.30582 -0.04400
C 	C 	0.80093 0.22257 0.22257 -0.04900
Ag	Ag	0.63195 0.25371 0.25371 0.52400
N 	N 	0.70655 0.25259 0.25259 -0.13800
N 	N 	0.55772 0.30380 0.30380 -0.13500
C 	C 	0.46338 0.33770 0.33770 -0.05700
N 	N 	0.47859 0.35849 0.35849 -0.13700
C 	C 	0.51026 0.30582 0.30582 -0.04400
C 	C 	0.75393 0.22257 0.22257 -0.04900
Ag	Ag	0.63195 0.25371 0.86063 0.52400
N 	N 	0.70655 0.25259 0.78827 -0.13800
N 	N 	0.55772 0.30380 0.83468 -0.13500
C 	C 	0.46338 0.33770 0.86122 -0.05700
N 	N 	0.47859 0.35849 0.80443 -0.13700
C 	C 	0.51026 0.30582 0.87810 -0.04400
C 	C 	0.75393 0.22257 0.80093 -0.04900
Ag	Ag	0.86063 0.25371 0.63195 0.52400
N 	N 	0.78827 0.25259 0.70655 -0.13800
N 	N 	0.83468 0.30380 0.55772 -0.13500
C 	C 	0.86122 0.33770 0.46338 -0.05700
N 	N 	0.80443 0.35849 0.47859 -0.13700
C 	C 	0.87810 0.30582 0.51026 -0.04400
C 	C 	0.80093 0.22257 0.75393 -0.04900
Ag	Ag	0.25371 0.86063 0.25371 0.52400
N 	N 	0.25259 0.78827 0.25259 -0.13800
N 	N 	0.30380 0.83468 0.30380 -0.13500
C 	C 	0.33770 0.86122 0.33770 -0.05700
N 	N 	0.35849 0.80443 0.35849 -0.13700
C 	C 	0.30582 0.87810 0.30582 -0.04400
C 	C 	0.22257 0.80093 0.22257 -0.04900
Ag	Ag	0.25371 0.63195 0.25371 0.52400
N 	N 	0.25259 0.70655 0.25259 -0.13800
N 	N 	0.30380 0.55772 0.30380 -0.13500
C 	C 	0.33770 0.46338 0.33770 -0.05700
N 	N 	0.35849 0.47859 0.35849 -0.13700
C 	C 	0.30582 0.51026 0.30582 -0.04400
C 	C 	0.22257 0.75393 0.22257 -0.04900
Ag	Ag	0.38937 0.61805 0.99629 0.52100
N 	N 	0.46173 0.54345 0.99741 -0.14300
N 	N 	0.41532 0.69228 0.94620 -0.13400
C 	C 	0.38878 0.78662 0.91230 -0.05700
N 	N 	0.44557 0.77141 0.89151 -0.13800
C 	C 	0.37190 0.73974 0.94418 -0.04400
C 	C 	0.44907 0.49607 0.02743 -0.04500
Ag	Ag	0.61805 0.38937 0.99629 0.52100
N 	N 	0.54345 0.46173 0.99741 -0.14300
N 	N 	0.69228 0.41532 0.94620 -0.13400
C 	C 	0.78662 0.38878 0.91230 -0.05700
N 	N 	0.77141 0.44557 0.89151 -0.13800
C 	C 	0.73974 0.37190 0.94418 -0.04400
C 	C 	0.49607 0.44907 0.02743 -0.04500
Ag	Ag	0.99629 0.99629 0.61805 0.51900
N 	N 	0.99741 0.99741 0.54345 -0.14900
N 	N 	0.94620 0.94620 0.69228 -0.13300
C 	C 	0.91230 0.91230 0.78662 -0.05700
N 	N 	0.89151 0.89151 0.77141 -0.13800
C 	C 	0.94418 0.94418 0.73974 -0.04300
C 	C 	0.02743 0.02743 0.49607 -0.04100
Ag	Ag	0.99629 0.99629 0.38937 0.51900
N 	N 	0.99741 0.99741 0.46173 -0.14900
N 	N 	0.94620 0.94620 0.41532 -0.13300
C 	C 	0.91230 0.91230 0.38878 -0.05700
N 	N 	0.89151 0.89151 0.44557 -0.13800
C 	C 	0.94418 0.94418 0.37190 -0.04300
C 	C 	0.02743 0.02743 0.44907 -0.04100
Ag	Ag	0.99629 0.38937 0.99629 0.51900
N 	N 	0.99741 0.46173 0.99741 -0.14900
N 	N 	0.94620 0.41532 0.94620 -0.13300
C 	C 	0.91230 0.38878 0.91230 -0.05700
N 	N 	0.89151 0.44557 0.89151 -0.13800
C 	C 	0.94418 0.37190 0.94418 -0.04300
C 	C 	0.02743 0.44907 0.02743 -0.04100
Ag	Ag	0.99629 0.61805 0.99629 0.51900
N 	N 	0.99741 0.54345 0.99741 -0.14900
N 	N 	0.94620 0.69228 0.94620 -0.13300
C 	C 	0.91230 0.78662 0.91230 -0.05700
N 	N 	0.89151 0.77141 0.89151 -0.13800
C 	C 	0.94418 0.73974 0.94418 -0.04300
C 	C 	0.02743 0.49607 0.02743 -0.04100
Ag	Ag	0.38937 0.99629 0.61805 0.52100
N 	N 	0.46173 0.99741 0.54345 -0.14300
N 	N 	0.41532 0.94620 0.69228 -0.13400
C 	C 	0.38878 0.91230 0.78662 -0.05700
N 	N 	0.44557 0.89151 0.77141 -0.13800
C 	C 	0.37190 0.94418 0.73974 -0.04400
C 	C 	0.44907 0.02743 0.49607 -0.04500
Ag	Ag	0.61805 0.99629 0.38937 0.52100
N 	N 	0.54345 0.99741 0.46173 -0.14300
N 	N 	0.69228 0.94620 0.41532 -0.13400
C 	C 	0.78662 0.91230 0.38878 -0.05700
N 	N 	0.77141 0.89151 0.44557 -0.13800
C 	C 	0.73974 0.94418 0.37190 -0.04400
C 	C 	0.49607 0.02743 0.44907 -0.04500
Ag	Ag	0.61805 0.99629 0.99629 0.51900
N 	N 	0.54345 0.99741 0.99741 -0.14900
N 	N 	0.69228 0.94620 0.94620 -0.13300
C 	C 	0.78662 0.91230 0.91230 -0.05700
N 	N 	0.77141 0.89151 0.89151 -0.13800
C 	C 	0.73974 0.94418 0.94418 -0.04300
C 	C 	0.49607 0.02743 0.02743 -0.04100
Ag	Ag	0.38937 0.99629 0.99629 0.51900
N 	N 	0.46173 0.99741 0.99741 -0.14900
N 	N 	0.41532 0.94620 0.94620 -0.13300
C 	C 	0.38878 0.91230 0.91230 -0.05700
N 	N 	0.44557 0.89151 0.89151 -0.13800
C 	C 	0.37190 0.94418 0.94418 -0.04300
C 	C 	0.44907 0.02743 0.02743 -0.04100
Ag	Ag	0.99629 0.38937 0.61805 0.52100
N 	N 	0.99741 0.46173 0.54345 -0.14300
N 	N 	0.94620 0.41532 0.69228 -0.13400
C 	C 	0.91230 0.38878 0.78662 -0.05700
N 	N 	0.89151 0.44557 0.77141 -0.13800
C 	C 	0.94418 0.37190 0.73974 -0.04400
C 	C 	0.02743 0.44907 0.49607 -0.04500
Ag	Ag	0.99629 0.61805 0.38937 0.52100
N 	N 	0.99741 0.54345 0.46173 -0.14300
N 	N 	0.94620 0.69228 0.41532 -0.13400
C 	C 	0.91230 0.78662 0.38878 -0.05700
N 	N 	0.89151 0.77141 0.44557 -0.13800
C 	C 	0.94418 0.73974 0.37190 -0.04400
C 	C 	0.02743 0.49607 0.44907 -0.04500
N 	N 	0.68816 0.43728 0.43728 -0.13800
Ag	Ag	0.77799 0.40734 0.40734 0.52700
N 	N 	0.43728 0.68816 0.43728 -0.13800
Ag	Ag	0.40734 0.77799 0.40734 0.52700
N 	N 	0.43728 0.43728 0.68816 -0.13800
Ag	Ag	0.40734 0.40734 0.77799 0.52700
N 	N 	0.43728 0.43728 0.43728 -0.13800
Ag	Ag	0.40734 0.40734 0.40734 0.52700
N 	N 	0.56184 0.81272 0.81272 -0.13800
Ag	Ag	0.47201 0.84266 0.84266 0.52700
N 	N 	0.81272 0.56184 0.81272 -0.13800
Ag	Ag	0.84266 0.47201 0.84266 0.52700
N 	N 	0.81272 0.81272 0.81272 -0.13800
Ag	Ag	0.84266 0.84266 0.84266 0.52700
N 	N 	0.81272 0.81272 0.56184 -0.13800
Ag	Ag	0.84266 0.84266 0.47201 0.52700
N 	N 	0.58949 0.47017 0.47017 -0.13800
N 	N 	0.47017 0.58949 0.47017 -0.13800
N 	N 	0.47017 0.47017 0.58949 -0.13800
N 	N 	0.47017 0.47017 0.47017 -0.13800
N 	N 	0.66051 0.77983 0.77983 -0.13800
N 	N 	0.77983 0.66051 0.77983 -0.13800
N 	N 	0.77983 0.77983 0.77983 -0.13800
N 	N 	0.77983 0.77983 0.66051 -0.13800
Ag	Ag	0.50000 0.50000 0.50000 0.52600
Ag	Ag	0.75000 0.75000 0.75000 0.52600
C 	C 	0.60910 0.48820 0.48820 -0.04900
C 	C 	0.48820 0.60910 0.41450 -0.04900
C 	C 	0.48820 0.41450 0.60910 -0.04900
C 	C 	0.41450 0.48820 0.48820 -0.04900
C 	C 	0.48820 0.60910 0.48820 -0.04900
C 	C 	0.41450 0.48820 0.60910 -0.04900
C 	C 	0.60910 0.48820 0.41450 -0.04900
C 	C 	0.48820 0.41450 0.48820 -0.04900
C 	C 	0.48820 0.48820 0.60910 -0.04900
C 	C 	0.60910 0.41450 0.48820 -0.04900
C 	C 	0.41450 0.60910 0.48820 -0.04900
C 	C 	0.48820 0.48820 0.41450 -0.04900
C 	C 	0.64090 0.76180 0.83550 -0.04900
C 	C 	0.76180 0.64090 0.76180 -0.04900
C 	C 	0.76180 0.83550 0.76180 -0.04900
C 	C 	0.83550 0.76180 0.64090 -0.04900
C 	C 	0.76180 0.64090 0.83550 -0.04900
C 	C 	0.83550 0.76180 0.76180 -0.04900
C 	C 	0.64090 0.76180 0.76180 -0.04900
C 	C 	0.76180 0.83550 0.64090 -0.04900
C 	C 	0.76180 0.76180 0.83550 -0.04900
C 	C 	0.64090 0.83550 0.76180 -0.04900
C 	C 	0.83550 0.64090 0.76180 -0.04900
C 	C 	0.76180 0.76180 0.64090 -0.04900
C 	C 	0.66654 0.46910 0.46910 -0.05000
C 	C 	0.46910 0.66654 0.39526 -0.05000
C 	C 	0.46910 0.39526 0.66654 -0.05000
C 	C 	0.39526 0.46910 0.46910 -0.05000
C 	C 	0.46910 0.66654 0.46910 -0.05000
C 	C 	0.39526 0.46910 0.66654 -0.05000
C 	C 	0.66654 0.46910 0.39526 -0.05000
C 	C 	0.46910 0.39526 0.46910 -0.05000
C 	C 	0.46910 0.46910 0.66654 -0.05000
C 	C 	0.66654 0.39526 0.46910 -0.05000
C 	C 	0.39526 0.66654 0.46910 -0.05000
C 	C 	0.46910 0.46910 0.39526 -0.05000
C 	C 	0.58346 0.78090 0.85474 -0.05000
C 	C 	0.78090 0.58346 0.78090 -0.05000
C 	C 	0.78090 0.85474 0.78090 -0.05000
C 	C 	0.85474 0.78090 0.58346 -0.05000
C 	C 	0.78090 0.58346 0.85474 -0.05000
C 	C 	0.85474 0.78090 0.78090 -0.05000
C 	C 	0.58346 0.78090 0.78090 -0.05000
C 	C 	0.78090 0.85474 0.58346 -0.05000
C 	C 	0.78090 0.78090 0.85474 -0.05000
C 	C 	0.58346 0.85474 0.78090 -0.05000
C 	C 	0.85474 0.58346 0.78090 -0.05000
C 	C 	0.78090 0.78090 0.58346 -0.05000
