data_crystal

_cell_length_a 13.91300
_cell_length_b 16.77400
_cell_length_c 16.77400
_cell_angle_alpha 120.00000
_cell_angle_beta  90.00000
_cell_angle_gamma 90.00000

_symmetry_space_group_name_	'P 1'
_symmetry_space_group_name_H-M	'P 1'

loop_
_symmetry_equiv_pos_as_xyz
  x,y,z

loop_
_atom_site_label
_atom_site_type_symbol
_atom_site_fract_x
_atom_site_fract_y
_atom_site_fract_z
_atom_site_charge
Ni	Ni	0.39567 0.66667 0.33334 1.10500
Ni	Ni	0.89567 0.33333 0.66666 1.10500
Ni	Ni	0.60433 0.33333 0.66666 1.10500
Ni	Ni	0.10433 0.66667 0.33334 1.10500
H 	H 	0.85560 0.57010 0.77100 0.08300
H 	H 	0.91080 0.68060 0.68760 0.06300
H 	H 	0.91080 0.00700 0.31940 0.06400
H 	H 	0.63130 0.14640 0.87360 0.02900
H 	H 	0.07850 0.42530 0.63840 -0.00800
H 	H 	0.58920 0.31240 0.31940 0.06300
H 	H 	0.75000 0.58780 0.41220 0.11100
H 	H 	0.85560 0.22900 0.79910 0.08300
H 	H 	0.98300 0.78440 0.98810 0.03800
H 	H 	0.38460 0.57630 0.51240 0.09800
H 	H 	0.57850 0.78690 0.36160 -0.00700
H 	H 	0.14440 0.77100 0.20090 0.08400
H 	H 	0.38460 0.48760 0.06390 0.09900
H 	H 	0.11540 0.93610 0.51240 0.09800
H 	H 	0.41080 0.68760 0.68060 0.06400
H 	H 	0.92150 0.57470 0.36160 -0.00700
H 	H 	0.92150 0.78690 0.42530 -0.00700
H 	H 	0.41080 0.99300 0.31240 0.06500
H 	H 	0.36870 0.85360 0.12640 0.03000
H 	H 	0.13130 0.27280 0.12640 0.03000
H 	H 	0.11540 0.57630 0.06390 0.09900
H 	H 	0.75000 0.82440 0.41220 0.11200
H 	H 	0.36870 0.27280 0.14640 0.03000
H 	H 	0.07850 0.21310 0.57470 -0.00700
H 	H 	0.08920 0.99300 0.68060 0.06500
H 	H 	0.35560 0.77100 0.57010 0.08400
H 	H 	0.98300 0.20370 0.21560 0.03900
H 	H 	0.57850 0.63840 0.42530 -0.00700
H 	H 	0.42150 0.21310 0.63840 -0.00700
H 	H 	0.88460 0.42370 0.93610 0.09900
H 	H 	0.25000 0.17560 0.58780 0.11200
H 	H 	0.86870 0.72720 0.87360 0.03000
H 	H 	0.91080 0.31240 0.99300 0.06500
H 	H 	0.42150 0.42530 0.78690 -0.00700
H 	H 	0.38460 0.93610 0.42370 0.09800
H 	H 	0.51700 0.20370 0.98810 0.03900
H 	H 	0.86870 0.14640 0.27280 0.03000
H 	H 	0.64440 0.57010 0.79910 0.08400
H 	H 	0.41080 0.31940 0.00700 0.06400
H 	H 	0.25000 0.41220 0.82440 0.11200
H 	H 	0.48300 0.98810 0.78440 0.03900
H 	H 	0.92150 0.63840 0.21310 -0.00700
H 	H 	0.51700 0.01190 0.21560 0.03900
H 	H 	0.57850 0.57470 0.21310 -0.00700
H 	H 	0.42150 0.36160 0.57470 -0.00700
H 	H 	0.64440 0.22900 0.42990 0.08400
H 	H 	0.86870 0.12640 0.85360 0.03100
H 	H 	0.08920 0.31940 0.31240 0.06400
H 	H 	0.35560 0.42990 0.20090 0.08400
H 	H 	0.63130 0.72720 0.85360 0.03000
H 	H 	0.08920 0.68760 0.00700 0.06500
H 	H 	0.13130 0.87360 0.14640 0.03100
H 	H 	0.64440 0.20090 0.77100 0.08400
H 	H 	0.14440 0.42990 0.22900 0.08400
H 	H 	0.85560 0.20090 0.42990 0.08400
H 	H 	0.01700 0.98810 0.20370 0.03900
H 	H 	0.61540 0.42370 0.48760 0.09900
H 	H 	0.51700 0.78440 0.79630 0.03900
H 	H 	0.01700 0.79630 0.78440 0.03900
H 	H 	0.48300 0.21560 0.20370 0.03900
H 	H 	0.36870 0.87360 0.72720 0.03000
H 	H 	0.58920 0.00700 0.68760 0.06500
H 	H 	0.13130 0.85360 0.72720 0.03000
H 	H 	0.25000 0.41220 0.58780 0.11200
H 	H 	0.48300 0.79630 0.01190 0.03900
H 	H 	0.61540 0.06390 0.57630 0.09800
H 	H 	0.07850 0.36160 0.78690 -0.00700
H 	H 	0.01700 0.21560 0.01190 0.03900
H 	H 	0.88460 0.51240 0.57630 0.09900
H 	H 	0.75000 0.58780 0.17560 0.11200
H 	H 	0.98300 0.01190 0.79630 0.03900
H 	H 	0.58920 0.68060 0.99300 0.06400
H 	H 	0.35560 0.79910 0.22900 0.08400
H 	H 	0.61540 0.51240 0.93610 0.09900
H 	H 	0.88460 0.06390 0.48760 0.09800
H 	H 	0.63130 0.12640 0.27280 0.03000
H 	H 	0.14440 0.79910 0.57010 0.08400
H 	H 	0.11540 0.48760 0.42370 0.09900
C 	C 	0.97970 0.72110 0.94820 -0.03200
C 	C 	0.02030 0.77290 0.72110 -0.03200
C 	C 	0.59740 0.18340 0.40690 -0.11300
C 	C 	0.45620 0.04000 0.33560 -0.08800
C 	C 	0.58960 0.19200 0.87850 -0.01000
C 	C 	0.25000 0.11160 0.55580 -0.21800
C 	C 	0.25000 0.81600 0.40800 0.33200
C 	C 	0.03580 0.57120 0.89760 0.06000
C 	C 	0.09740 0.81660 0.22350 -0.11200
C 	C 	0.96790 0.53440 0.82520 0.06900
C 	C 	0.96420 0.42880 0.10240 0.06000
C 	C 	0.46790 0.46560 0.29080 0.06900
C 	C 	0.90260 0.59310 0.81660 -0.11200
C 	C 	0.67110 0.93730 0.49560 0.16400
C 	C 	0.58960 0.12150 0.31350 -0.01000
C 	C 	0.95620 0.96000 0.29560 -0.08800
C 	C 	0.47970 0.77290 0.05180 -0.03200
C 	C 	0.04380 0.29560 0.33560 -0.08700
C 	C 	0.53580 0.67360 0.10240 0.06000
C 	C 	0.55350 0.80940 0.42040 0.09100
C 	C 	0.41040 0.80800 0.12150 -0.01000
C 	C 	0.45620 0.29560 0.96000 -0.08700
C 	C 	0.03210 0.70920 0.53440 0.06900
C 	C 	0.75000 0.40800 0.59200 0.33200
C 	C 	0.16940 0.96790 0.51080 -0.15100
C 	C 	0.96420 0.67360 0.57120 0.06000
C 	C 	0.91040 0.12150 0.80800 -0.01000
C 	C 	0.03580 0.32640 0.42880 0.06000
C 	C 	0.25000 0.53955 0.46045 0.01900
C 	C 	0.09740 0.77650 0.59310 -0.11300
C 	C 	0.66940 0.45710 0.48920 -0.15100
C 	C 	0.67110 0.50440 0.44170 0.16400
C 	C 	0.59740 0.59310 0.77650 -0.11300
C 	C 	0.58960 0.68650 0.80800 -0.01000
C 	C 	0.08960 0.80800 0.68650 -0.01000
C 	C 	0.55350 0.61100 0.19060 0.09100
C 	C 	0.52030 0.22710 0.94820 -0.03200
C 	C 	0.75000 0.18400 0.59200 0.33200
C 	C 	0.66940 0.51080 0.96790 -0.15100
C 	C 	0.83060 0.51080 0.54290 -0.15100
C 	C 	0.96790 0.17480 0.70920 0.06900
C 	C 	0.16940 0.54290 0.03210 -0.15100
C 	C 	0.82890 0.55830 0.49560 0.16400
C 	C 	0.45620 0.66440 0.70440 -0.08700
C 	C 	0.25000 0.53955 0.07910 0.01900
C 	C 	0.44650 0.19060 0.57960 0.09100
C 	C 	0.25000 0.59200 0.18400 0.33200
C 	C 	0.75000 0.40800 0.81600 0.33200
C 	C 	0.33060 0.96790 0.45710 -0.15100
C 	C 	0.94650 0.57960 0.19060 0.09100
C 	C 	0.90260 0.18340 0.77650 -0.11200
C 	C 	0.75000 0.46045 0.53955 0.01900
C 	C 	0.03580 0.10240 0.67360 0.06000
C 	C 	0.54380 0.96000 0.66440 -0.08800
C 	C 	0.46790 0.82520 0.53440 0.06900
C 	C 	0.41040 0.31350 0.19200 -0.01000
C 	C 	0.33060 0.48920 0.03210 -0.15100
C 	C 	0.53580 0.89760 0.57120 0.06000
C 	C 	0.82890 0.93730 0.44170 0.16400
C 	C 	0.83060 0.03210 0.48920 -0.15100
C 	C 	0.44650 0.38900 0.80940 0.09100
C 	C 	0.33060 0.54290 0.51080 -0.15100
C 	C 	0.55350 0.57960 0.38900 0.09100
C 	C 	0.66940 0.03210 0.54290 -0.15100
C 	C 	0.91040 0.68650 0.87850 -0.01000
C 	C 	0.97970 0.22710 0.27890 -0.03200
C 	C 	0.91040 0.19200 0.31350 -0.01000
C 	C 	0.94650 0.80940 0.38900 0.09100
C 	C 	0.25000 0.92090 0.46045 0.01900
C 	C 	0.17110 0.06270 0.55830 0.16400
C 	C 	0.04380 0.66440 0.96000 -0.08800
C 	C 	0.54380 0.70440 0.04000 -0.08700
C 	C 	0.75000 0.55580 0.11160 -0.21800
C 	C 	0.16940 0.48920 0.45710 -0.15100
C 	C 	0.83060 0.45710 0.96790 -0.15100
C 	C 	0.25000 0.44420 0.88840 -0.21800
C 	C 	0.17110 0.44170 0.50440 0.16400
C 	C 	0.05350 0.19060 0.61100 0.09100
C 	C 	0.40260 0.40690 0.22350 -0.11300
C 	C 	0.40260 0.81660 0.59310 -0.11300
C 	C 	0.82890 0.50440 0.06270 0.16400
C 	C 	0.97970 0.05180 0.77290 -0.03200
C 	C 	0.08960 0.31350 0.12150 -0.01000
C 	C 	0.53210 0.53440 0.70920 0.06900
C 	C 	0.46420 0.10240 0.42880 0.06000
C 	C 	0.52030 0.05180 0.27890 -0.03200
C 	C 	0.46790 0.70920 0.17480 0.06900
C 	C 	0.75000 0.55580 0.44420 -0.21900
C 	C 	0.17110 0.49560 0.93730 0.16400
C 	C 	0.40260 0.77650 0.18340 -0.11300
C 	C 	0.08960 0.87850 0.19200 -0.01000
C 	C 	0.32890 0.49560 0.55830 0.16400
C 	C 	0.47970 0.27890 0.22710 -0.03200
C 	C 	0.41040 0.87850 0.68650 -0.01000
C 	C 	0.46420 0.32640 0.89760 0.06000
C 	C 	0.95620 0.33560 0.04000 -0.08800
C 	C 	0.95620 0.70440 0.66440 -0.08700
C 	C 	0.25000 0.59200 0.40800 0.33200
C 	C 	0.03210 0.82520 0.29080 0.06900
C 	C 	0.44650 0.42040 0.61100 0.09100
C 	C 	0.32890 0.44170 0.93730 0.16400
C 	C 	0.02030 0.94820 0.22710 -0.03200
C 	C 	0.32890 0.06270 0.50440 0.16400
C 	C 	0.09740 0.40690 0.18340 -0.11200
C 	C 	0.54380 0.33560 0.29560 -0.08700
C 	C 	0.47970 0.94820 0.72110 -0.03200
C 	C 	0.46420 0.57120 0.67360 0.06000
C 	C 	0.90260 0.22350 0.40690 -0.11300
C 	C 	0.75000 0.46045 0.92090 0.01900
C 	C 	0.94650 0.61100 0.42040 0.09100
C 	C 	0.05350 0.42040 0.80940 0.09100
C 	C 	0.02030 0.27890 0.05180 -0.03200
C 	C 	0.53210 0.29080 0.82520 0.06900
C 	C 	0.59740 0.22350 0.81660 -0.11300
C 	C 	0.75000 0.07910 0.53955 0.01900
C 	C 	0.05350 0.38900 0.57960 0.09100
C 	C 	0.96790 0.29080 0.46560 0.06900
C 	C 	0.67110 0.55830 0.06270 0.16400
C 	C 	0.03210 0.46560 0.17480 0.06900
C 	C 	0.52030 0.72110 0.77290 -0.03200
C 	C 	0.75000 0.88840 0.44420 -0.21800
C 	C 	0.04380 0.04000 0.70440 -0.08800
C 	C 	0.96420 0.89760 0.32640 0.06000
C 	C 	0.25000 0.44420 0.55580 -0.21900
C 	C 	0.53210 0.17480 0.46560 0.06900
C 	C 	0.53580 0.42880 0.32640 0.06000
N 	N 	0.48130 0.56100 0.33160 -0.22400
N 	N 	0.01870 0.56100 0.22940 -0.22400
N 	N 	0.01870 0.77060 0.33160 -0.22400
N 	N 	0.08790 0.38980 0.50400 -0.15600
N 	N 	0.08790 0.49600 0.88580 -0.15600
N 	N 	0.48130 0.77060 0.43900 -0.22400
N 	N 	0.41210 0.49600 0.61020 -0.15600
N 	N 	0.58790 0.61020 0.11420 -0.15600
N 	N 	0.48130 0.66840 0.22940 -0.22400
N 	N 	0.98130 0.22940 0.66840 -0.22400
N 	N 	0.08790 0.11420 0.61020 -0.15600
N 	N 	0.91210 0.50400 0.11420 -0.15600
N 	N 	0.58790 0.88580 0.49600 -0.15600
N 	N 	0.58790 0.50400 0.38980 -0.15600
N 	N 	0.41210 0.38980 0.88580 -0.15600
N 	N 	0.91210 0.88580 0.38980 -0.15600
N 	N 	0.51870 0.33160 0.77060 -0.22400
N 	N 	0.01870 0.66840 0.43900 -0.22400
N 	N 	0.98130 0.43900 0.77060 -0.22400
N 	N 	0.98130 0.33160 0.56100 -0.22400
N 	N 	0.51870 0.22940 0.56100 -0.22400
N 	N 	0.41210 0.11420 0.50400 -0.15600
N 	N 	0.51870 0.43900 0.66840 -0.22400
N 	N 	0.91210 0.61020 0.49600 -0.15600
O 	O 	0.18150 0.57460 0.35330 -0.41000
O 	O 	0.81850 0.22130 0.57460 -0.41000
O 	O 	0.31850 0.77870 0.35330 -0.41000
O 	O 	0.68150 0.42540 0.77870 -0.41000
O 	O 	0.68150 0.35330 0.57460 -0.41000
O 	O 	0.81850 0.35330 0.77870 -0.41000
O 	O 	0.18150 0.64670 0.22130 -0.41000
O 	O 	0.31850 0.57460 0.22130 -0.41000
O 	O 	0.81850 0.42540 0.64670 -0.41000
O 	O 	0.68150 0.22130 0.64670 -0.41000
O 	O 	0.31850 0.64670 0.42540 -0.41000
O 	O 	0.18150 0.77870 0.42540 -0.41000
