data_crystal

_cell_length_a 36.47890
_cell_length_b 36.47890
_cell_length_c 36.47890
_cell_angle_alpha 90.00000
_cell_angle_beta  90.00000
_cell_angle_gamma 90.00000

_symmetry_space_group_name_	'P 1'
_symmetry_space_group_name_H-M	'P 1'

loop_
_symmetry_equiv_pos_as_xyz
  x,y,z

loop_
_atom_site_label
_atom_site_type_symbol
_atom_site_fract_x
_atom_site_fract_y
_atom_site_fract_z
_atom_site_charge
C 	C 	0.37095 0.31683 0.33871 0.01200
C 	C 	0.36771 0.34532 0.31352 -0.01900
C 	C 	0.40023 0.29390 0.33064 -0.00900
C 	C 	0.41894 0.30537 0.29931 -0.08700
S 	S 	0.40049 0.34450 0.27980 0.03900
H 	H 	0.40730 0.26971 0.34630 0.04600
O 	O 	0.24747 0.03598 0.29816 -0.41300
O 	O 	0.29526 0.03722 0.24450 -0.40500
C 	C 	0.21811 0.04968 0.28540 0.35600
C 	C 	0.37095 0.81683 0.83871 0.01300
C 	C 	0.36771 0.84532 0.81352 -0.01900
C 	C 	0.40023 0.79390 0.83064 -0.00900
C 	C 	0.41894 0.80537 0.79931 -0.08600
S 	S 	0.40049 0.84450 0.77980 0.04200
H 	H 	0.40730 0.76971 0.84630 0.04700
O 	O 	0.24747 0.53598 0.79816 -0.40900
O 	O 	0.29526 0.53722 0.74450 -0.40200
C 	C 	0.21811 0.54968 0.78540 0.35600
C 	C 	0.87095 0.31683 0.83871 0.01300
C 	C 	0.86771 0.34532 0.81352 -0.01900
C 	C 	0.90023 0.29390 0.83064 -0.00900
C 	C 	0.91894 0.30537 0.79931 -0.08500
S 	S 	0.90049 0.34450 0.77980 0.04300
H 	H 	0.90730 0.26971 0.84630 0.04800
O 	O 	0.74747 0.03598 0.79816 -0.41200
O 	O 	0.79526 0.03722 0.74450 -0.40400
C 	C 	0.71811 0.04968 0.78540 0.35600
C 	C 	0.87095 0.81683 0.33871 0.01300
C 	C 	0.86771 0.84532 0.31352 -0.02000
C 	C 	0.90023 0.79390 0.33064 -0.00900
C 	C 	0.91894 0.80537 0.29931 -0.08400
S 	S 	0.90049 0.84450 0.27980 0.04500
H 	H 	0.90730 0.76971 0.34630 0.04800
O 	O 	0.74747 0.53598 0.29816 -0.40800
O 	O 	0.79526 0.53722 0.24450 -0.40100
C 	C 	0.71811 0.54968 0.28540 0.35700
C 	C 	0.62905 0.68317 0.33871 0.01300
C 	C 	0.63229 0.65468 0.31352 -0.01800
C 	C 	0.59977 0.70610 0.33064 -0.00800
C 	C 	0.58106 0.69463 0.29931 -0.08500
S 	S 	0.59951 0.65550 0.27980 0.04000
H 	H 	0.59270 0.73029 0.34630 0.04700
O 	O 	0.75253 0.96402 0.29816 -0.40300
O 	O 	0.70474 0.96278 0.24450 -0.39500
C 	C 	0.78189 0.95032 0.28540 0.35600
C 	C 	0.62905 0.18317 0.83871 0.01300
C 	C 	0.63229 0.15468 0.81352 -0.01800
C 	C 	0.59977 0.20610 0.83064 -0.00800
C 	C 	0.58106 0.19463 0.79931 -0.08500
S 	S 	0.59951 0.15550 0.77980 0.03900
H 	H 	0.59270 0.23029 0.84630 0.04700
O 	O 	0.75253 0.46402 0.79816 -0.40800
O 	O 	0.70474 0.46278 0.74450 -0.40100
C 	C 	0.78189 0.45032 0.78540 0.35700
C 	C 	0.12905 0.68317 0.83871 0.01300
C 	C 	0.13229 0.65468 0.81352 -0.01800
C 	C 	0.09977 0.70610 0.83064 -0.00800
C 	C 	0.08106 0.69463 0.79931 -0.08600
S 	S 	0.09951 0.65550 0.77980 0.03900
H 	H 	0.09270 0.73029 0.84630 0.04700
O 	O 	0.25253 0.96402 0.79816 -0.40300
O 	O 	0.20474 0.96278 0.74450 -0.39500
C 	C 	0.28189 0.95032 0.78540 0.35600
C 	C 	0.12905 0.18317 0.33871 0.01200
C 	C 	0.13229 0.15468 0.31352 -0.01800
C 	C 	0.09977 0.20610 0.33064 -0.00800
C 	C 	0.08106 0.19463 0.29931 -0.08600
S 	S 	0.09951 0.15550 0.27980 0.03600
H 	H 	0.09270 0.23029 0.34630 0.04600
O 	O 	0.25253 0.46402 0.29816 -0.40900
O 	O 	0.20474 0.46278 0.24450 -0.40200
C 	C 	0.28189 0.45032 0.28540 0.35700
C 	C 	0.62905 0.31683 0.66129 0.01300
C 	C 	0.63229 0.34532 0.68648 -0.01800
C 	C 	0.59977 0.29390 0.66936 -0.00800
C 	C 	0.58106 0.30537 0.70069 -0.08600
S 	S 	0.59951 0.34450 0.72020 0.04100
H 	H 	0.59270 0.26971 0.65370 0.04700
O 	O 	0.75253 0.03598 0.70184 -0.41200
O 	O 	0.70474 0.03722 0.75550 -0.40400
C 	C 	0.78189 0.04968 0.71460 0.35600
C 	C 	0.62905 0.81683 0.16129 0.01300
C 	C 	0.63229 0.84532 0.18648 -0.01800
C 	C 	0.59977 0.79390 0.16936 -0.00800
C 	C 	0.58106 0.80537 0.20069 -0.08600
S 	S 	0.59951 0.84450 0.22020 0.04200
H 	H 	0.59270 0.76971 0.15370 0.04600
O 	O 	0.75253 0.53598 0.20184 -0.40900
O 	O 	0.70474 0.53722 0.25550 -0.40100
C 	C 	0.78189 0.54968 0.21460 0.35700
C 	C 	0.12905 0.31683 0.16129 0.01100
C 	C 	0.13229 0.34532 0.18648 -0.01800
C 	C 	0.09977 0.29390 0.16936 -0.00800
C 	C 	0.08106 0.30537 0.20069 -0.08700
S 	S 	0.09951 0.34450 0.22020 0.03800
H 	H 	0.09270 0.26971 0.15370 0.04500
O 	O 	0.25253 0.03598 0.20184 -0.41200
O 	O 	0.20474 0.03722 0.25550 -0.40500
C 	C 	0.28189 0.04968 0.21460 0.35600
C 	C 	0.12905 0.81683 0.66129 0.01300
C 	C 	0.13229 0.84532 0.68648 -0.01800
C 	C 	0.09977 0.79390 0.66936 -0.00800
C 	C 	0.08106 0.80537 0.70069 -0.08700
S 	S 	0.09951 0.84450 0.72020 0.04100
H 	H 	0.09270 0.76971 0.65370 0.04600
O 	O 	0.25253 0.53598 0.70184 -0.40900
O 	O 	0.20474 0.53722 0.75550 -0.40100
C 	C 	0.28189 0.54968 0.71460 0.35700
C 	C 	0.37095 0.68317 0.66129 0.01300
C 	C 	0.36771 0.65468 0.68648 -0.01800
C 	C 	0.40023 0.70610 0.66936 -0.00800
C 	C 	0.41894 0.69463 0.70069 -0.08600
S 	S 	0.40049 0.65550 0.72020 0.04100
H 	H 	0.40730 0.73029 0.65370 0.04700
O 	O 	0.24747 0.96402 0.70184 -0.40300
O 	O 	0.29526 0.96278 0.75550 -0.39500
C 	C 	0.21811 0.95032 0.71460 0.35600
C 	C 	0.37095 0.18317 0.16129 0.01200
C 	C 	0.36771 0.15468 0.18648 -0.01800
C 	C 	0.40023 0.20610 0.16936 -0.00800
C 	C 	0.41894 0.19463 0.20069 -0.08600
S 	S 	0.40049 0.15550 0.22020 0.03900
H 	H 	0.40730 0.23029 0.15370 0.04600
O 	O 	0.24747 0.46402 0.20184 -0.40900
O 	O 	0.29526 0.46278 0.25550 -0.40100
C 	C 	0.21811 0.45032 0.21460 0.35700
C 	C 	0.87095 0.68317 0.16129 0.01300
C 	C 	0.86771 0.65468 0.18648 -0.01800
C 	C 	0.90023 0.70610 0.16936 -0.00800
C 	C 	0.91894 0.69463 0.20069 -0.08400
S 	S 	0.90049 0.65550 0.22020 0.04300
H 	H 	0.90730 0.73029 0.15370 0.04800
O 	O 	0.74747 0.96402 0.20184 -0.40300
O 	O 	0.79526 0.96278 0.25550 -0.39500
C 	C 	0.71811 0.95032 0.21460 0.35600
C 	C 	0.87095 0.18317 0.66129 0.01300
C 	C 	0.86771 0.15468 0.68648 -0.01800
C 	C 	0.90023 0.20610 0.66936 -0.00800
C 	C 	0.91894 0.19463 0.70069 -0.08400
S 	S 	0.90049 0.15550 0.72020 0.04200
H 	H 	0.90730 0.23029 0.65370 0.04800
O 	O 	0.74747 0.46402 0.70184 -0.40800
O 	O 	0.79526 0.46278 0.75550 -0.40000
C 	C 	0.71811 0.45032 0.71460 0.35700
C 	C 	0.33871 0.37095 0.31683 0.01300
C 	C 	0.31352 0.36771 0.34532 -0.01800
C 	C 	0.33064 0.40023 0.29390 -0.00800
C 	C 	0.29931 0.41894 0.30537 -0.08600
S 	S 	0.27980 0.40049 0.34450 0.04000
H 	H 	0.34630 0.40730 0.26971 0.04700
O 	O 	0.29816 0.24747 0.03598 -0.41200
O 	O 	0.24450 0.29526 0.03722 -0.40400
C 	C 	0.28540 0.21811 0.04968 0.35700
C 	C 	0.33871 0.87095 0.81683 0.01400
C 	C 	0.31352 0.86771 0.84532 -0.01900
C 	C 	0.33064 0.90023 0.79390 -0.00800
C 	C 	0.29931 0.91894 0.80537 -0.08400
S 	S 	0.27980 0.90049 0.84450 0.04500
H 	H 	0.34630 0.90730 0.76971 0.04800
O 	O 	0.29816 0.74747 0.53598 -0.40800
O 	O 	0.24450 0.79526 0.53722 -0.40100
C 	C 	0.28540 0.71811 0.54968 0.35700
C 	C 	0.83871 0.37095 0.81683 0.01400
C 	C 	0.81352 0.36771 0.84532 -0.01800
C 	C 	0.83064 0.40023 0.79390 -0.00800
C 	C 	0.79931 0.41894 0.80537 -0.08500
S 	S 	0.77980 0.40049 0.84450 0.04300
H 	H 	0.84630 0.40730 0.76971 0.04800
O 	O 	0.79816 0.24747 0.53598 -0.40800
O 	O 	0.74450 0.29526 0.53722 -0.40100
C 	C 	0.78540 0.21811 0.54968 0.35700
C 	C 	0.83871 0.87095 0.31683 0.01400
C 	C 	0.81352 0.86771 0.34532 -0.01800
C 	C 	0.83064 0.90023 0.29390 -0.00800
C 	C 	0.79931 0.91894 0.30537 -0.08400
S 	S 	0.77980 0.90049 0.34450 0.04400
H 	H 	0.84630 0.90730 0.26971 0.04900
O 	O 	0.79816 0.74747 0.03598 -0.41100
O 	O 	0.74450 0.79526 0.03722 -0.40300
C 	C 	0.78540 0.71811 0.04968 0.35700
C 	C 	0.33871 0.62905 0.68317 0.01300
C 	C 	0.31352 0.63229 0.65468 -0.01800
C 	C 	0.33064 0.59977 0.70610 -0.00800
C 	C 	0.29931 0.58106 0.69463 -0.08500
S 	S 	0.27980 0.59951 0.65550 0.04000
H 	H 	0.34630 0.59270 0.73029 0.04700
O 	O 	0.29816 0.75253 0.96402 -0.40300
O 	O 	0.24450 0.70474 0.96278 -0.39500
C 	C 	0.28540 0.78189 0.95032 0.35600
C 	C 	0.33871 0.12905 0.18317 0.01200
C 	C 	0.31352 0.13229 0.15468 -0.01800
C 	C 	0.33064 0.09977 0.20610 -0.00800
C 	C 	0.29931 0.08106 0.19463 -0.08600
S 	S 	0.27980 0.09951 0.15550 0.03600
H 	H 	0.34630 0.09270 0.23029 0.04600
O 	O 	0.29816 0.25253 0.46402 -0.40900
O 	O 	0.24450 0.20474 0.46278 -0.40200
C 	C 	0.28540 0.28189 0.45032 0.35700
C 	C 	0.83871 0.62905 0.18317 0.01300
C 	C 	0.81352 0.63229 0.15468 -0.01800
C 	C 	0.83064 0.59977 0.20610 -0.00800
C 	C 	0.79931 0.58106 0.19463 -0.08500
S 	S 	0.77980 0.59951 0.15550 0.03900
H 	H 	0.84630 0.59270 0.23029 0.04700
O 	O 	0.79816 0.75253 0.46402 -0.40800
O 	O 	0.74450 0.70474 0.46278 -0.40100
C 	C 	0.78540 0.78189 0.45032 0.35700
C 	C 	0.83871 0.12905 0.68317 0.01300
C 	C 	0.81352 0.13229 0.65468 -0.01800
C 	C 	0.83064 0.09977 0.70610 -0.00800
C 	C 	0.79931 0.08106 0.69463 -0.08600
S 	S 	0.77980 0.09951 0.65550 0.03900
H 	H 	0.84630 0.09270 0.73029 0.04700
O 	O 	0.79816 0.25253 0.96402 -0.40300
O 	O 	0.74450 0.20474 0.96278 -0.39500
C 	C 	0.78540 0.28189 0.95032 0.35600
C 	C 	0.66129 0.62905 0.31683 0.01300
C 	C 	0.68648 0.63229 0.34532 -0.01800
C 	C 	0.66936 0.59977 0.29390 -0.00800
C 	C 	0.70069 0.58106 0.30537 -0.08600
S 	S 	0.72020 0.59951 0.34450 0.04100
H 	H 	0.65370 0.59270 0.26971 0.04700
O 	O 	0.70184 0.75253 0.03598 -0.41200
O 	O 	0.75550 0.70474 0.03722 -0.40400
C 	C 	0.71460 0.78189 0.04968 0.35600
C 	C 	0.66129 0.12905 0.81683 0.01300
C 	C 	0.68648 0.13229 0.84532 -0.01800
C 	C 	0.66936 0.09977 0.79390 -0.00800
C 	C 	0.70069 0.08106 0.80537 -0.08700
S 	S 	0.72020 0.09951 0.84450 0.04100
H 	H 	0.65370 0.09270 0.76971 0.04600
O 	O 	0.70184 0.25253 0.53598 -0.40900
O 	O 	0.75550 0.20474 0.53722 -0.40100
C 	C 	0.71460 0.28189 0.54968 0.35700
C 	C 	0.16129 0.62905 0.81683 0.01300
C 	C 	0.18648 0.63229 0.84532 -0.01800
C 	C 	0.16936 0.59977 0.79390 -0.00800
C 	C 	0.20069 0.58106 0.80537 -0.08600
S 	S 	0.22020 0.59951 0.84450 0.04200
H 	H 	0.15370 0.59270 0.76971 0.04600
O 	O 	0.20184 0.75253 0.53598 -0.40900
O 	O 	0.25550 0.70474 0.53722 -0.40100
C 	C 	0.21460 0.78189 0.54968 0.35700
C 	C 	0.16129 0.12905 0.31683 0.01100
C 	C 	0.18648 0.13229 0.34532 -0.01800
C 	C 	0.16936 0.09977 0.29390 -0.00800
C 	C 	0.20069 0.08106 0.30537 -0.08700
S 	S 	0.22020 0.09951 0.34450 0.03800
H 	H 	0.15370 0.09270 0.26971 0.04500
O 	O 	0.20184 0.25253 0.03598 -0.41200
O 	O 	0.25550 0.20474 0.03722 -0.40500
C 	C 	0.21460 0.28189 0.04968 0.35600
C 	C 	0.66129 0.37095 0.68317 0.01300
C 	C 	0.68648 0.36771 0.65468 -0.01800
C 	C 	0.66936 0.40023 0.70610 -0.00800
C 	C 	0.70069 0.41894 0.69463 -0.08600
S 	S 	0.72020 0.40049 0.65550 0.04100
H 	H 	0.65370 0.40730 0.73029 0.04700
O 	O 	0.70184 0.24747 0.96402 -0.40300
O 	O 	0.75550 0.29526 0.96278 -0.39500
C 	C 	0.71460 0.21811 0.95032 0.35600
C 	C 	0.66129 0.87095 0.18317 0.01300
C 	C 	0.68648 0.86771 0.15468 -0.01800
C 	C 	0.66936 0.90023 0.20610 -0.00800
C 	C 	0.70069 0.91894 0.19463 -0.08400
S 	S 	0.72020 0.90049 0.15550 0.04200
H 	H 	0.65370 0.90730 0.23029 0.04800
O 	O 	0.70184 0.74747 0.46402 -0.40800
O 	O 	0.75550 0.79526 0.46278 -0.40000
C 	C 	0.71460 0.71811 0.45032 0.35700
C 	C 	0.16129 0.37095 0.18317 0.01200
C 	C 	0.18648 0.36771 0.15468 -0.01800
C 	C 	0.16936 0.40023 0.20610 -0.00800
C 	C 	0.20069 0.41894 0.19463 -0.08600
S 	S 	0.22020 0.40049 0.15550 0.03900
H 	H 	0.15370 0.40730 0.23029 0.04600
O 	O 	0.20184 0.24747 0.46402 -0.40900
O 	O 	0.25550 0.29526 0.46278 -0.40100
C 	C 	0.21460 0.21811 0.45032 0.35700
C 	C 	0.16129 0.87095 0.68317 0.01300
C 	C 	0.18648 0.86771 0.65468 -0.01800
C 	C 	0.16936 0.90023 0.70610 -0.00800
C 	C 	0.20069 0.91894 0.69463 -0.08400
S 	S 	0.22020 0.90049 0.65550 0.04300
H 	H 	0.15370 0.90730 0.73029 0.04800
O 	O 	0.20184 0.74747 0.96402 -0.40300
O 	O 	0.25550 0.79526 0.96278 -0.39500
C 	C 	0.21460 0.71811 0.95032 0.35600
C 	C 	0.31683 0.33871 0.37095 0.01300
C 	C 	0.34532 0.31352 0.36771 -0.01800
C 	C 	0.29390 0.33064 0.40023 -0.00800
C 	C 	0.30537 0.29931 0.41894 -0.08600
S 	S 	0.34450 0.27980 0.40049 0.04000
H 	H 	0.26971 0.34630 0.40730 0.04700
O 	O 	0.03598 0.29816 0.24747 -0.41200
O 	O 	0.03722 0.24450 0.29526 -0.40400
C 	C 	0.04968 0.28540 0.21811 0.35700
C 	C 	0.31683 0.83871 0.87095 0.01400
C 	C 	0.34532 0.81352 0.86771 -0.01800
C 	C 	0.29390 0.83064 0.90023 -0.00800
C 	C 	0.30537 0.79931 0.91894 -0.08400
S 	S 	0.34450 0.77980 0.90049 0.04400
H 	H 	0.26971 0.84630 0.90730 0.04900
O 	O 	0.03598 0.79816 0.74747 -0.41100
O 	O 	0.03722 0.74450 0.79526 -0.40300
C 	C 	0.04968 0.78540 0.71811 0.35700
C 	C 	0.81683 0.33871 0.87095 0.01400
C 	C 	0.84532 0.31352 0.86771 -0.01900
C 	C 	0.79390 0.33064 0.90023 -0.00800
C 	C 	0.80537 0.29931 0.91894 -0.08400
S 	S 	0.84450 0.27980 0.90049 0.04500
H 	H 	0.76971 0.34630 0.90730 0.04800
O 	O 	0.53598 0.29816 0.74747 -0.40800
O 	O 	0.53722 0.24450 0.79526 -0.40100
C 	C 	0.54968 0.28540 0.71811 0.35700
C 	C 	0.81683 0.83871 0.37095 0.01400
C 	C 	0.84532 0.81352 0.36771 -0.01800
C 	C 	0.79390 0.83064 0.40023 -0.00800
C 	C 	0.80537 0.79931 0.41894 -0.08500
S 	S 	0.84450 0.77980 0.40049 0.04300
H 	H 	0.76971 0.84630 0.40730 0.04800
O 	O 	0.53598 0.79816 0.24747 -0.40800
O 	O 	0.53722 0.74450 0.29526 -0.40100
C 	C 	0.54968 0.78540 0.21811 0.35700
C 	C 	0.68317 0.33871 0.62905 0.01300
C 	C 	0.65468 0.31352 0.63229 -0.01800
C 	C 	0.70610 0.33064 0.59977 -0.00800
C 	C 	0.69463 0.29931 0.58106 -0.08500
S 	S 	0.65550 0.27980 0.59951 0.04000
H 	H 	0.73029 0.34630 0.59270 0.04700
O 	O 	0.96402 0.29816 0.75253 -0.40300
O 	O 	0.96278 0.24450 0.70474 -0.39500
C 	C 	0.95032 0.28540 0.78189 0.35600
C 	C 	0.68317 0.83871 0.12905 0.01300
C 	C 	0.65468 0.81352 0.13229 -0.01800
C 	C 	0.70610 0.83064 0.09977 -0.00800
C 	C 	0.69463 0.79931 0.08106 -0.08600
S 	S 	0.65550 0.77980 0.09951 0.03900
H 	H 	0.73029 0.84630 0.09270 0.04700
O 	O 	0.96402 0.79816 0.25253 -0.40300
O 	O 	0.96278 0.74450 0.20474 -0.39500
C 	C 	0.95032 0.78540 0.28189 0.35600
C 	C 	0.18317 0.33871 0.12905 0.01200
C 	C 	0.15468 0.31352 0.13229 -0.01800
C 	C 	0.20610 0.33064 0.09977 -0.00800
C 	C 	0.19463 0.29931 0.08106 -0.08600
S 	S 	0.15550 0.27980 0.09951 0.03600
H 	H 	0.23029 0.34630 0.09270 0.04600
O 	O 	0.46402 0.29816 0.25253 -0.40900
O 	O 	0.46278 0.24450 0.20474 -0.40200
C 	C 	0.45032 0.28540 0.28189 0.35700
C 	C 	0.18317 0.83871 0.62905 0.01300
C 	C 	0.15468 0.81352 0.63229 -0.01800
C 	C 	0.20610 0.83064 0.59977 -0.00800
C 	C 	0.19463 0.79931 0.58106 -0.08500
S 	S 	0.15550 0.77980 0.59951 0.03900
H 	H 	0.23029 0.84630 0.59270 0.04700
O 	O 	0.46402 0.79816 0.75253 -0.40800
O 	O 	0.46278 0.74450 0.70474 -0.40100
C 	C 	0.45032 0.78540 0.78189 0.35700
C 	C 	0.31683 0.66129 0.62905 0.01300
C 	C 	0.34532 0.68648 0.63229 -0.01800
C 	C 	0.29390 0.66936 0.59977 -0.00800
C 	C 	0.30537 0.70069 0.58106 -0.08600
S 	S 	0.34450 0.72020 0.59951 0.04100
H 	H 	0.26971 0.65370 0.59270 0.04700
O 	O 	0.03598 0.70184 0.75253 -0.41200
O 	O 	0.03722 0.75550 0.70474 -0.40400
C 	C 	0.04968 0.71460 0.78189 0.35600
C 	C 	0.31683 0.16129 0.12905 0.01100
C 	C 	0.34532 0.18648 0.13229 -0.01800
C 	C 	0.29390 0.16936 0.09977 -0.00800
C 	C 	0.30537 0.20069 0.08106 -0.08700
S 	S 	0.34450 0.22020 0.09951 0.03800
H 	H 	0.26971 0.15370 0.09270 0.04500
O 	O 	0.03598 0.20184 0.25253 -0.41200
O 	O 	0.03722 0.25550 0.20474 -0.40500
C 	C 	0.04968 0.21460 0.28189 0.35600
C 	C 	0.81683 0.66129 0.12905 0.01300
C 	C 	0.84532 0.68648 0.13229 -0.01800
C 	C 	0.79390 0.66936 0.09977 -0.00800
C 	C 	0.80537 0.70069 0.08106 -0.08700
S 	S 	0.84450 0.72020 0.09951 0.04100
H 	H 	0.76971 0.65370 0.09270 0.04600
O 	O 	0.53598 0.70184 0.25253 -0.40900
O 	O 	0.53722 0.75550 0.20474 -0.40100
C 	C 	0.54968 0.71460 0.28189 0.35700
C 	C 	0.81683 0.16129 0.62905 0.01300
C 	C 	0.84532 0.18648 0.63229 -0.01800
C 	C 	0.79390 0.16936 0.59977 -0.00800
C 	C 	0.80537 0.20069 0.58106 -0.08600
S 	S 	0.84450 0.22020 0.59951 0.04200
H 	H 	0.76971 0.15370 0.59270 0.04600
O 	O 	0.53598 0.20184 0.75253 -0.40900
O 	O 	0.53722 0.25550 0.70474 -0.40100
C 	C 	0.54968 0.21460 0.78189 0.35700
C 	C 	0.68317 0.66129 0.37095 0.01300
C 	C 	0.65468 0.68648 0.36771 -0.01800
C 	C 	0.70610 0.66936 0.40023 -0.00800
C 	C 	0.69463 0.70069 0.41894 -0.08600
S 	S 	0.65550 0.72020 0.40049 0.04100
H 	H 	0.73029 0.65370 0.40730 0.04700
O 	O 	0.96402 0.70184 0.24747 -0.40300
O 	O 	0.96278 0.75550 0.29526 -0.39500
C 	C 	0.95032 0.71460 0.21811 0.35600
C 	C 	0.68317 0.16129 0.87095 0.01300
C 	C 	0.65468 0.18648 0.86771 -0.01800
C 	C 	0.70610 0.16936 0.90023 -0.00800
C 	C 	0.69463 0.20069 0.91894 -0.08400
S 	S 	0.65550 0.22020 0.90049 0.04300
H 	H 	0.73029 0.15370 0.90730 0.04800
O 	O 	0.96402 0.20184 0.74747 -0.40300
O 	O 	0.96278 0.25550 0.79526 -0.39500
C 	C 	0.95032 0.21460 0.71811 0.35600
C 	C 	0.18317 0.66129 0.87095 0.01300
C 	C 	0.15468 0.68648 0.86771 -0.01800
C 	C 	0.20610 0.66936 0.90023 -0.00800
C 	C 	0.19463 0.70069 0.91894 -0.08400
S 	S 	0.15550 0.72020 0.90049 0.04200
H 	H 	0.23029 0.65370 0.90730 0.04800
O 	O 	0.46402 0.70184 0.74747 -0.40800
O 	O 	0.46278 0.75550 0.79526 -0.40000
C 	C 	0.45032 0.71460 0.71811 0.35700
C 	C 	0.18317 0.16129 0.37095 0.01200
C 	C 	0.15468 0.18648 0.36771 -0.01800
C 	C 	0.20610 0.16936 0.40023 -0.00800
C 	C 	0.19463 0.20069 0.41894 -0.08600
S 	S 	0.15550 0.22020 0.40049 0.03900
H 	H 	0.23029 0.15370 0.40730 0.04600
O 	O 	0.46402 0.20184 0.24747 -0.40900
O 	O 	0.46278 0.25550 0.29526 -0.40100
C 	C 	0.45032 0.21460 0.21811 0.35700
C 	C 	0.31683 0.37095 0.66129 0.01300
C 	C 	0.34532 0.36771 0.68648 -0.01800
C 	C 	0.29390 0.40023 0.66936 -0.00800
C 	C 	0.30537 0.41894 0.70069 -0.08600
S 	S 	0.34450 0.40049 0.72020 0.04100
H 	H 	0.26971 0.40730 0.65370 0.04700
O 	O 	0.03598 0.24747 0.70184 -0.41200
O 	O 	0.03722 0.29526 0.75550 -0.40400
C 	C 	0.04968 0.21811 0.71460 0.35600
C 	C 	0.31683 0.87095 0.16129 0.01300
C 	C 	0.34532 0.86771 0.18648 -0.01800
C 	C 	0.29390 0.90023 0.16936 -0.00800
C 	C 	0.30537 0.91894 0.20069 -0.08500
S 	S 	0.34450 0.90049 0.22020 0.04300
H 	H 	0.26971 0.90730 0.15370 0.04700
O 	O 	0.03598 0.74747 0.20184 -0.41200
O 	O 	0.03722 0.79526 0.25550 -0.40400
C 	C 	0.04968 0.71811 0.21460 0.35600
C 	C 	0.81683 0.37095 0.16129 0.01300
C 	C 	0.84532 0.36771 0.18648 -0.01800
C 	C 	0.79390 0.40023 0.16936 -0.00800
C 	C 	0.80537 0.41894 0.20069 -0.08600
S 	S 	0.84450 0.40049 0.22020 0.04200
H 	H 	0.76971 0.40730 0.15370 0.04600
O 	O 	0.53598 0.24747 0.20184 -0.40900
O 	O 	0.53722 0.29526 0.25550 -0.40100
C 	C 	0.54968 0.21811 0.21460 0.35700
C 	C 	0.81683 0.87095 0.66129 0.01400
C 	C 	0.84532 0.86771 0.68648 -0.01900
C 	C 	0.79390 0.90023 0.66936 -0.00800
C 	C 	0.80537 0.91894 0.70069 -0.08400
S 	S 	0.84450 0.90049 0.72020 0.04600
H 	H 	0.76971 0.90730 0.65370 0.04800
O 	O 	0.53598 0.74747 0.70184 -0.40800
O 	O 	0.53722 0.79526 0.75550 -0.40000
C 	C 	0.54968 0.71811 0.71460 0.35700
C 	C 	0.68317 0.62905 0.66129 0.01300
C 	C 	0.65468 0.63229 0.68648 -0.01800
C 	C 	0.70610 0.59977 0.66936 -0.00800
C 	C 	0.69463 0.58106 0.70069 -0.08600
S 	S 	0.65550 0.59951 0.72020 0.04100
H 	H 	0.73029 0.59270 0.65370 0.04700
O 	O 	0.96402 0.75253 0.70184 -0.40300
O 	O 	0.96278 0.70474 0.75550 -0.39500
C 	C 	0.95032 0.78189 0.71460 0.35600
C 	C 	0.68317 0.12905 0.16129 0.01200
C 	C 	0.65468 0.13229 0.18648 -0.01800
C 	C 	0.70610 0.09977 0.16936 -0.00800
C 	C 	0.69463 0.08106 0.20069 -0.08700
S 	S 	0.65550 0.09951 0.22020 0.03800
H 	H 	0.73029 0.09270 0.15370 0.04500
O 	O 	0.96402 0.25253 0.20184 -0.40400
O 	O 	0.96278 0.20474 0.25550 -0.39600
C 	C 	0.95032 0.28189 0.21460 0.35600
C 	C 	0.18317 0.62905 0.16129 0.01200
C 	C 	0.15468 0.63229 0.18648 -0.01800
C 	C 	0.20610 0.59977 0.16936 -0.00800
C 	C 	0.19463 0.58106 0.20069 -0.08600
S 	S 	0.15550 0.59951 0.22020 0.03900
H 	H 	0.23029 0.59270 0.15370 0.04600
O 	O 	0.46402 0.75253 0.20184 -0.40900
O 	O 	0.46278 0.70474 0.25550 -0.40100
C 	C 	0.45032 0.78189 0.21460 0.35700
C 	C 	0.18317 0.12905 0.66129 0.01200
C 	C 	0.15468 0.13229 0.68648 -0.01800
C 	C 	0.20610 0.09977 0.66936 -0.00800
C 	C 	0.19463 0.08106 0.70069 -0.08700
S 	S 	0.15550 0.09951 0.72020 0.03700
H 	H 	0.23029 0.09270 0.65370 0.04600
O 	O 	0.46402 0.25253 0.70184 -0.40900
O 	O 	0.46278 0.20474 0.75550 -0.40100
C 	C 	0.45032 0.28189 0.71460 0.35700
C 	C 	0.31683 0.62905 0.33871 0.01300
C 	C 	0.34532 0.63229 0.31352 -0.01800
C 	C 	0.29390 0.59977 0.33064 -0.00800
C 	C 	0.30537 0.58106 0.29931 -0.08600
S 	S 	0.34450 0.59951 0.27980 0.04000
H 	H 	0.26971 0.59270 0.34630 0.04700
O 	O 	0.03598 0.75253 0.29816 -0.41200
O 	O 	0.03722 0.70474 0.24450 -0.40400
C 	C 	0.04968 0.78189 0.28540 0.35700
C 	C 	0.31683 0.12905 0.83871 0.01300
C 	C 	0.34532 0.13229 0.81352 -0.01800
C 	C 	0.29390 0.09977 0.83064 -0.00800
C 	C 	0.30537 0.08106 0.79931 -0.08600
S 	S 	0.34450 0.09951 0.77980 0.03900
H 	H 	0.26971 0.09270 0.84630 0.04600
O 	O 	0.03598 0.25253 0.79816 -0.41100
O 	O 	0.03722 0.20474 0.74450 -0.40400
C 	C 	0.04968 0.28189 0.78540 0.35700
C 	C 	0.81683 0.62905 0.83871 0.01400
C 	C 	0.84532 0.63229 0.81352 -0.01800
C 	C 	0.79390 0.59977 0.83064 -0.00800
C 	C 	0.80537 0.58106 0.79931 -0.08500
S 	S 	0.84450 0.59951 0.77980 0.04300
H 	H 	0.76971 0.59270 0.84630 0.04800
O 	O 	0.53598 0.75253 0.79816 -0.40800
O 	O 	0.53722 0.70474 0.74450 -0.40100
C 	C 	0.54968 0.78189 0.78540 0.35700
C 	C 	0.81683 0.12905 0.33871 0.01200
C 	C 	0.84532 0.13229 0.31352 -0.01800
C 	C 	0.79390 0.09977 0.33064 -0.00800
C 	C 	0.80537 0.08106 0.29931 -0.08600
S 	S 	0.84450 0.09951 0.27980 0.04000
H 	H 	0.76971 0.09270 0.34630 0.04600
O 	O 	0.53598 0.25253 0.29816 -0.40900
O 	O 	0.53722 0.20474 0.24450 -0.40200
C 	C 	0.54968 0.28189 0.28540 0.35700
C 	C 	0.68317 0.37095 0.33871 0.01300
C 	C 	0.65468 0.36771 0.31352 -0.01800
C 	C 	0.70610 0.40023 0.33064 -0.00800
C 	C 	0.69463 0.41894 0.29931 -0.08500
S 	S 	0.65550 0.40049 0.27980 0.04000
H 	H 	0.73029 0.40730 0.34630 0.04700
O 	O 	0.96402 0.24747 0.29816 -0.40300
O 	O 	0.96278 0.29526 0.24450 -0.39500
C 	C 	0.95032 0.21811 0.28540 0.35600
C 	C 	0.68317 0.87095 0.83871 0.01500
C 	C 	0.65468 0.86771 0.81352 -0.01900
C 	C 	0.70610 0.90023 0.83064 -0.00800
C 	C 	0.69463 0.91894 0.79931 -0.08400
S 	S 	0.65550 0.90049 0.77980 0.04400
H 	H 	0.73029 0.90730 0.84630 0.04900
O 	O 	0.96402 0.74747 0.79816 -0.40200
O 	O 	0.96278 0.79526 0.74450 -0.39400
C 	C 	0.95032 0.71811 0.78540 0.35600
C 	C 	0.18317 0.37095 0.83871 0.01300
C 	C 	0.15468 0.36771 0.81352 -0.01800
C 	C 	0.20610 0.40023 0.83064 -0.00800
C 	C 	0.19463 0.41894 0.79931 -0.08500
S 	S 	0.15550 0.40049 0.77980 0.03900
H 	H 	0.23029 0.40730 0.84630 0.04700
O 	O 	0.46402 0.24747 0.79816 -0.40800
O 	O 	0.46278 0.29526 0.74450 -0.40100
C 	C 	0.45032 0.21811 0.78540 0.35700
C 	C 	0.18317 0.87095 0.33871 0.01300
C 	C 	0.15468 0.86771 0.31352 -0.01800
C 	C 	0.20610 0.90023 0.33064 -0.00800
C 	C 	0.19463 0.91894 0.29931 -0.08400
S 	S 	0.15550 0.90049 0.27980 0.04100
H 	H 	0.23029 0.90730 0.34630 0.04800
O 	O 	0.46402 0.74747 0.29816 -0.40800
O 	O 	0.46278 0.79526 0.24450 -0.40100
C 	C 	0.45032 0.71811 0.28540 0.35700
C 	C 	0.37095 0.33871 0.68317 0.01300
C 	C 	0.36771 0.31352 0.65468 -0.01800
C 	C 	0.40023 0.33064 0.70610 -0.00800
C 	C 	0.41894 0.29931 0.69463 -0.08500
S 	S 	0.40049 0.27980 0.65550 0.04000
H 	H 	0.40730 0.34630 0.73029 0.04700
O 	O 	0.24747 0.29816 0.96402 -0.40300
O 	O 	0.29526 0.24450 0.96278 -0.39500
C 	C 	0.21811 0.28540 0.95032 0.35600
C 	C 	0.37095 0.83871 0.18317 0.01300
C 	C 	0.36771 0.81352 0.15468 -0.01800
C 	C 	0.40023 0.83064 0.20610 -0.00800
C 	C 	0.41894 0.79931 0.19463 -0.08500
S 	S 	0.40049 0.77980 0.15550 0.03900
H 	H 	0.40730 0.84630 0.23029 0.04700
O 	O 	0.24747 0.79816 0.46402 -0.40800
O 	O 	0.29526 0.74450 0.46278 -0.40100
C 	C 	0.21811 0.78540 0.45032 0.35700
C 	C 	0.87095 0.33871 0.18317 0.01300
C 	C 	0.86771 0.31352 0.15468 -0.01800
C 	C 	0.90023 0.33064 0.20610 -0.00800
C 	C 	0.91894 0.29931 0.19463 -0.08400
S 	S 	0.90049 0.27980 0.15550 0.04100
H 	H 	0.90730 0.34630 0.23029 0.04800
O 	O 	0.74747 0.29816 0.46402 -0.40800
O 	O 	0.79526 0.24450 0.46278 -0.40100
C 	C 	0.71811 0.28540 0.45032 0.35700
C 	C 	0.87095 0.83871 0.68317 0.01500
C 	C 	0.86771 0.81352 0.65468 -0.01900
C 	C 	0.90023 0.83064 0.70610 -0.00800
C 	C 	0.91894 0.79931 0.69463 -0.08400
S 	S 	0.90049 0.77980 0.65550 0.04400
H 	H 	0.90730 0.84630 0.73029 0.04900
O 	O 	0.74747 0.79816 0.96402 -0.40200
O 	O 	0.79526 0.74450 0.96278 -0.39400
C 	C 	0.71811 0.78540 0.95032 0.35600
C 	C 	0.62905 0.33871 0.31683 0.01300
C 	C 	0.63229 0.31352 0.34532 -0.01800
C 	C 	0.59977 0.33064 0.29390 -0.00800
C 	C 	0.58106 0.29931 0.30537 -0.08600
S 	S 	0.59951 0.27980 0.34450 0.04000
H 	H 	0.59270 0.34630 0.26971 0.04700
O 	O 	0.75253 0.29816 0.03598 -0.41200
O 	O 	0.70474 0.24450 0.03722 -0.40400
C 	C 	0.78189 0.28540 0.04968 0.35700
C 	C 	0.62905 0.83871 0.81683 0.01400
C 	C 	0.63229 0.81352 0.84532 -0.01800
C 	C 	0.59977 0.83064 0.79390 -0.00800
C 	C 	0.58106 0.79931 0.80537 -0.08500
S 	S 	0.59951 0.77980 0.84450 0.04300
H 	H 	0.59270 0.84630 0.76971 0.04800
O 	O 	0.75253 0.79816 0.53598 -0.40800
O 	O 	0.70474 0.74450 0.53722 -0.40100
C 	C 	0.78189 0.78540 0.54968 0.35700
C 	C 	0.12905 0.33871 0.81683 0.01200
C 	C 	0.13229 0.31352 0.84532 -0.01800
C 	C 	0.09977 0.33064 0.79390 -0.00800
C 	C 	0.08106 0.29931 0.80537 -0.08600
S 	S 	0.09951 0.27980 0.84450 0.04000
H 	H 	0.09270 0.34630 0.76971 0.04600
O 	O 	0.25253 0.29816 0.53598 -0.40900
O 	O 	0.20474 0.24450 0.53722 -0.40200
C 	C 	0.28189 0.28540 0.54968 0.35700
C 	C 	0.12905 0.83871 0.31683 0.01300
C 	C 	0.13229 0.81352 0.34532 -0.01800
C 	C 	0.09977 0.83064 0.29390 -0.00800
C 	C 	0.08106 0.79931 0.30537 -0.08600
S 	S 	0.09951 0.77980 0.34450 0.03900
H 	H 	0.09270 0.84630 0.26971 0.04600
O 	O 	0.25253 0.79816 0.03598 -0.41100
O 	O 	0.20474 0.74450 0.03722 -0.40400
C 	C 	0.28189 0.78540 0.04968 0.35700
C 	C 	0.62905 0.66129 0.68317 0.01300
C 	C 	0.63229 0.68648 0.65468 -0.01800
C 	C 	0.59977 0.66936 0.70610 -0.00800
C 	C 	0.58106 0.70069 0.69463 -0.08600
S 	S 	0.59951 0.72020 0.65550 0.04100
H 	H 	0.59270 0.65370 0.73029 0.04700
O 	O 	0.75253 0.70184 0.96402 -0.40300
O 	O 	0.70474 0.75550 0.96278 -0.39500
C 	C 	0.78189 0.71460 0.95032 0.35600
C 	C 	0.62905 0.16129 0.18317 0.01200
C 	C 	0.63229 0.18648 0.15468 -0.01800
C 	C 	0.59977 0.16936 0.20610 -0.00800
C 	C 	0.58106 0.20069 0.19463 -0.08600
S 	S 	0.59951 0.22020 0.15550 0.03900
H 	H 	0.59270 0.15370 0.23029 0.04600
O 	O 	0.75253 0.20184 0.46402 -0.40900
O 	O 	0.70474 0.25550 0.46278 -0.40100
C 	C 	0.78189 0.21460 0.45032 0.35700
C 	C 	0.12905 0.66129 0.18317 0.01200
C 	C 	0.13229 0.68648 0.15468 -0.01800
C 	C 	0.09977 0.66936 0.20610 -0.00800
C 	C 	0.08106 0.70069 0.19463 -0.08700
S 	S 	0.09951 0.72020 0.15550 0.03700
H 	H 	0.09270 0.65370 0.23029 0.04600
O 	O 	0.25253 0.70184 0.46402 -0.40900
O 	O 	0.20474 0.75550 0.46278 -0.40100
C 	C 	0.28189 0.71460 0.45032 0.35700
C 	C 	0.12905 0.16129 0.68317 0.01200
C 	C 	0.13229 0.18648 0.65468 -0.01800
C 	C 	0.09977 0.16936 0.70610 -0.00800
C 	C 	0.08106 0.20069 0.69463 -0.08700
S 	S 	0.09951 0.22020 0.65550 0.03800
H 	H 	0.09270 0.15370 0.73029 0.04500
O 	O 	0.25253 0.20184 0.96402 -0.40400
O 	O 	0.20474 0.25550 0.96278 -0.39600
C 	C 	0.28189 0.21460 0.95032 0.35600
C 	C 	0.37095 0.66129 0.31683 0.01300
C 	C 	0.36771 0.68648 0.34532 -0.01800
C 	C 	0.40023 0.66936 0.29390 -0.00800
C 	C 	0.41894 0.70069 0.30537 -0.08600
S 	S 	0.40049 0.72020 0.34450 0.04100
H 	H 	0.40730 0.65370 0.26971 0.04700
O 	O 	0.24747 0.70184 0.03598 -0.41200
O 	O 	0.29526 0.75550 0.03722 -0.40400
C 	C 	0.21811 0.71460 0.04968 0.35600
C 	C 	0.37095 0.16129 0.81683 0.01300
C 	C 	0.36771 0.18648 0.84532 -0.01800
C 	C 	0.40023 0.16936 0.79390 -0.00800
C 	C 	0.41894 0.20069 0.80537 -0.08600
S 	S 	0.40049 0.22020 0.84450 0.04200
H 	H 	0.40730 0.15370 0.76971 0.04600
O 	O 	0.24747 0.20184 0.53598 -0.40900
O 	O 	0.29526 0.25550 0.53722 -0.40100
C 	C 	0.21811 0.21460 0.54968 0.35700
C 	C 	0.87095 0.66129 0.81683 0.01400
C 	C 	0.86771 0.68648 0.84532 -0.01900
C 	C 	0.90023 0.66936 0.79390 -0.00800
C 	C 	0.91894 0.70069 0.80537 -0.08400
S 	S 	0.90049 0.72020 0.84450 0.04600
H 	H 	0.90730 0.65370 0.76971 0.04800
O 	O 	0.74747 0.70184 0.53598 -0.40800
O 	O 	0.79526 0.75550 0.53722 -0.40000
C 	C 	0.71811 0.71460 0.54968 0.35700
C 	C 	0.87095 0.16129 0.31683 0.01300
C 	C 	0.86771 0.18648 0.34532 -0.01800
C 	C 	0.90023 0.16936 0.29390 -0.00800
C 	C 	0.91894 0.20069 0.30537 -0.08500
S 	S 	0.90049 0.22020 0.34450 0.04300
H 	H 	0.90730 0.15370 0.26971 0.04700
O 	O 	0.74747 0.20184 0.03598 -0.41200
O 	O 	0.79526 0.25550 0.03722 -0.40400
C 	C 	0.71811 0.21460 0.04968 0.35600
C 	C 	0.33871 0.31683 0.62905 0.01300
C 	C 	0.31352 0.34532 0.63229 -0.01800
C 	C 	0.33064 0.29390 0.59977 -0.00800
C 	C 	0.29931 0.30537 0.58106 -0.08600
S 	S 	0.27980 0.34450 0.59951 0.04000
H 	H 	0.34630 0.26971 0.59270 0.04700
O 	O 	0.29816 0.03598 0.75253 -0.41200
O 	O 	0.24450 0.03722 0.70474 -0.40400
C 	C 	0.28540 0.04968 0.78189 0.35700
C 	C 	0.33871 0.81683 0.12905 0.01200
C 	C 	0.31352 0.84532 0.13229 -0.01800
C 	C 	0.33064 0.79390 0.09977 -0.00800
C 	C 	0.29931 0.80537 0.08106 -0.08600
S 	S 	0.27980 0.84450 0.09951 0.04000
H 	H 	0.34630 0.76971 0.09270 0.04600
O 	O 	0.29816 0.53598 0.25253 -0.40900
O 	O 	0.24450 0.53722 0.20474 -0.40200
C 	C 	0.28540 0.54968 0.28189 0.35700
C 	C 	0.83871 0.31683 0.12905 0.01300
C 	C 	0.81352 0.34532 0.13229 -0.01800
C 	C 	0.83064 0.29390 0.09977 -0.00800
C 	C 	0.79931 0.30537 0.08106 -0.08600
S 	S 	0.77980 0.34450 0.09951 0.03900
H 	H 	0.84630 0.26971 0.09270 0.04600
O 	O 	0.79816 0.03598 0.25253 -0.41100
O 	O 	0.74450 0.03722 0.20474 -0.40400
C 	C 	0.78540 0.04968 0.28189 0.35700
C 	C 	0.83871 0.81683 0.62905 0.01400
C 	C 	0.81352 0.84532 0.63229 -0.01800
C 	C 	0.83064 0.79390 0.59977 -0.00800
C 	C 	0.79931 0.80537 0.58106 -0.08500
S 	S 	0.77980 0.84450 0.59951 0.04300
H 	H 	0.84630 0.76971 0.59270 0.04800
O 	O 	0.79816 0.53598 0.75253 -0.40800
O 	O 	0.74450 0.53722 0.70474 -0.40100
C 	C 	0.78540 0.54968 0.78189 0.35700
C 	C 	0.33871 0.68317 0.37095 0.01300
C 	C 	0.31352 0.65468 0.36771 -0.01800
C 	C 	0.33064 0.70610 0.40023 -0.00800
C 	C 	0.29931 0.69463 0.41894 -0.08500
S 	S 	0.27980 0.65550 0.40049 0.04000
H 	H 	0.34630 0.73029 0.40730 0.04700
O 	O 	0.29816 0.96402 0.24747 -0.40300
O 	O 	0.24450 0.96278 0.29526 -0.39500
C 	C 	0.28540 0.95032 0.21811 0.35600
C 	C 	0.33871 0.18317 0.87095 0.01300
C 	C 	0.31352 0.15468 0.86771 -0.01800
C 	C 	0.33064 0.20610 0.90023 -0.00800
C 	C 	0.29931 0.19463 0.91894 -0.08400
S 	S 	0.27980 0.15550 0.90049 0.04100
H 	H 	0.34630 0.23029 0.90730 0.04800
O 	O 	0.29816 0.46402 0.74747 -0.40800
O 	O 	0.24450 0.46278 0.79526 -0.40100
C 	C 	0.28540 0.45032 0.71811 0.35700
C 	C 	0.83871 0.68317 0.87095 0.01500
C 	C 	0.81352 0.65468 0.86771 -0.01900
C 	C 	0.83064 0.70610 0.90023 -0.00800
C 	C 	0.79931 0.69463 0.91894 -0.08400
S 	S 	0.77980 0.65550 0.90049 0.04400
H 	H 	0.84630 0.73029 0.90730 0.04900
O 	O 	0.79816 0.96402 0.74747 -0.40200
O 	O 	0.74450 0.96278 0.79526 -0.39400
C 	C 	0.78540 0.95032 0.71811 0.35600
C 	C 	0.83871 0.18317 0.37095 0.01300
C 	C 	0.81352 0.15468 0.36771 -0.01800
C 	C 	0.83064 0.20610 0.40023 -0.00800
C 	C 	0.79931 0.19463 0.41894 -0.08500
S 	S 	0.77980 0.15550 0.40049 0.03900
H 	H 	0.84630 0.23029 0.40730 0.04700
O 	O 	0.79816 0.46402 0.24747 -0.40800
O 	O 	0.74450 0.46278 0.29526 -0.40100
C 	C 	0.78540 0.45032 0.21811 0.35700
C 	C 	0.66129 0.31683 0.37095 0.01300
C 	C 	0.68648 0.34532 0.36771 -0.01800
C 	C 	0.66936 0.29390 0.40023 -0.00800
C 	C 	0.70069 0.30537 0.41894 -0.08600
S 	S 	0.72020 0.34450 0.40049 0.04100
H 	H 	0.65370 0.26971 0.40730 0.04700
O 	O 	0.70184 0.03598 0.24747 -0.41200
O 	O 	0.75550 0.03722 0.29526 -0.40400
C 	C 	0.71460 0.04968 0.21811 0.35600
C 	C 	0.66129 0.81683 0.87095 0.01400
C 	C 	0.68648 0.84532 0.86771 -0.01900
C 	C 	0.66936 0.79390 0.90023 -0.00800
C 	C 	0.70069 0.80537 0.91894 -0.08400
S 	S 	0.72020 0.84450 0.90049 0.04600
H 	H 	0.65370 0.76971 0.90730 0.04800
O 	O 	0.70184 0.53598 0.74747 -0.40800
O 	O 	0.75550 0.53722 0.79526 -0.40000
C 	C 	0.71460 0.54968 0.71811 0.35700
C 	C 	0.16129 0.31683 0.87095 0.01300
C 	C 	0.18648 0.34532 0.86771 -0.01800
C 	C 	0.16936 0.29390 0.90023 -0.00800
C 	C 	0.20069 0.30537 0.91894 -0.08500
S 	S 	0.22020 0.34450 0.90049 0.04300
H 	H 	0.15370 0.26971 0.90730 0.04700
O 	O 	0.20184 0.03598 0.74747 -0.41200
O 	O 	0.25550 0.03722 0.79526 -0.40400
C 	C 	0.21460 0.04968 0.71811 0.35600
C 	C 	0.16129 0.81683 0.37095 0.01300
C 	C 	0.18648 0.84532 0.36771 -0.01800
C 	C 	0.16936 0.79390 0.40023 -0.00800
C 	C 	0.20069 0.80537 0.41894 -0.08600
S 	S 	0.22020 0.84450 0.40049 0.04200
H 	H 	0.15370 0.76971 0.40730 0.04600
O 	O 	0.20184 0.53598 0.24747 -0.40900
O 	O 	0.25550 0.53722 0.29526 -0.40100
C 	C 	0.21460 0.54968 0.21811 0.35700
C 	C 	0.66129 0.68317 0.62905 0.01300
C 	C 	0.68648 0.65468 0.63229 -0.01800
C 	C 	0.66936 0.70610 0.59977 -0.00800
C 	C 	0.70069 0.69463 0.58106 -0.08600
S 	S 	0.72020 0.65550 0.59951 0.04100
H 	H 	0.65370 0.73029 0.59270 0.04700
O 	O 	0.70184 0.96402 0.75253 -0.40300
O 	O 	0.75550 0.96278 0.70474 -0.39500
C 	C 	0.71460 0.95032 0.78189 0.35600
C 	C 	0.66129 0.18317 0.12905 0.01200
C 	C 	0.68648 0.15468 0.13229 -0.01800
C 	C 	0.66936 0.20610 0.09977 -0.00800
C 	C 	0.70069 0.19463 0.08106 -0.08700
S 	S 	0.72020 0.15550 0.09951 0.03700
H 	H 	0.65370 0.23029 0.09270 0.04600
O 	O 	0.70184 0.46402 0.25253 -0.40900
O 	O 	0.75550 0.46278 0.20474 -0.40100
C 	C 	0.71460 0.45032 0.28189 0.35700
C 	C 	0.16129 0.68317 0.12905 0.01200
C 	C 	0.18648 0.65468 0.13229 -0.01800
C 	C 	0.16936 0.70610 0.09977 -0.00800
C 	C 	0.20069 0.69463 0.08106 -0.08700
S 	S 	0.22020 0.65550 0.09951 0.03800
H 	H 	0.15370 0.73029 0.09270 0.04500
O 	O 	0.20184 0.96402 0.25253 -0.40400
O 	O 	0.25550 0.96278 0.20474 -0.39600
C 	C 	0.21460 0.95032 0.28189 0.35600
C 	C 	0.16129 0.18317 0.62905 0.01200
C 	C 	0.18648 0.15468 0.63229 -0.01800
C 	C 	0.16936 0.20610 0.59977 -0.00800
C 	C 	0.20069 0.19463 0.58106 -0.08600
S 	S 	0.22020 0.15550 0.59951 0.03900
H 	H 	0.15370 0.23029 0.59270 0.04600
O 	O 	0.20184 0.46402 0.75253 -0.40900
O 	O 	0.25550 0.46278 0.70474 -0.40100
C 	C 	0.21460 0.45032 0.78189 0.35700
Cu	Cu	0.27537 0.00000 0.27537 0.92300
Cu	Cu	0.27537 0.50000 0.77537 0.92800
Cu	Cu	0.77537 0.00000 0.77537 0.92300
Cu	Cu	0.77537 0.50000 0.27537 0.92800
Cu	Cu	0.72463 0.00000 0.27537 0.92300
Cu	Cu	0.72463 0.50000 0.77537 0.92800
Cu	Cu	0.22463 0.00000 0.77537 0.92300
Cu	Cu	0.22463 0.50000 0.27537 0.92800
Cu	Cu	0.72463 0.00000 0.72463 0.92300
Cu	Cu	0.72463 0.50000 0.22463 0.92800
Cu	Cu	0.22463 0.00000 0.22463 0.92200
Cu	Cu	0.22463 0.50000 0.72463 0.92800
Cu	Cu	0.27537 0.00000 0.72463 0.92300
Cu	Cu	0.27537 0.50000 0.22463 0.92800
Cu	Cu	0.77537 0.00000 0.22463 0.92300
Cu	Cu	0.77537 0.50000 0.72463 0.92800
Cu	Cu	0.27537 0.27537 -0.00000 0.92300
Cu	Cu	0.27537 0.77537 0.50000 0.92800
Cu	Cu	0.77537 0.27537 0.50000 0.92800
Cu	Cu	0.77537 0.77537 -0.00000 0.92300
Cu	Cu	0.27537 0.72463 -0.00000 0.92300
Cu	Cu	0.27537 0.22463 0.50000 0.92800
Cu	Cu	0.77537 0.72463 0.50000 0.92800
Cu	Cu	0.77537 0.22463 -0.00000 0.92300
Cu	Cu	0.72463 0.72463 -0.00000 0.92300
Cu	Cu	0.72463 0.22463 0.50000 0.92800
Cu	Cu	0.22463 0.72463 0.50000 0.92800
Cu	Cu	0.22463 0.22463 -0.00000 0.92200
Cu	Cu	0.72463 0.27537 -0.00000 0.92300
Cu	Cu	0.72463 0.77537 0.50000 0.92800
Cu	Cu	0.22463 0.27537 0.50000 0.92800
Cu	Cu	0.22463 0.77537 -0.00000 0.92300
Cu	Cu	0.00000 0.27537 0.27537 0.92300
Cu	Cu	-0.00000 0.77537 0.77537 0.92300
Cu	Cu	0.50000 0.27537 0.77537 0.92800
Cu	Cu	0.50000 0.77537 0.27537 0.92800
Cu	Cu	0.00000 0.27537 0.72463 0.92300
Cu	Cu	-0.00000 0.77537 0.22463 0.92300
Cu	Cu	0.50000 0.27537 0.22463 0.92800
Cu	Cu	0.50000 0.77537 0.72463 0.92800
Cu	Cu	0.00000 0.72463 0.72463 0.92300
Cu	Cu	-0.00000 0.22463 0.22463 0.92200
Cu	Cu	0.50000 0.72463 0.22463 0.92800
Cu	Cu	0.50000 0.22463 0.72463 0.92800
Cu	Cu	0.00000 0.72463 0.27537 0.92300
Cu	Cu	-0.00000 0.22463 0.77537 0.92300
Cu	Cu	0.50000 0.72463 0.77537 0.92800
Cu	Cu	0.50000 0.22463 0.27537 0.92800
