data_crystal

_cell_length_a 15.40900
_cell_length_b 29.45000
_cell_length_c 23.39300
_cell_angle_alpha 111.80000
_cell_angle_beta  90.00000
_cell_angle_gamma 90.00000

_symmetry_space_group_name_	'P 1'
_symmetry_space_group_name_H-M	'P 1'

loop_
_symmetry_equiv_pos_as_xyz
  x,y,z

loop_
_atom_site_label
_atom_site_type_symbol
_atom_site_fract_x
_atom_site_fract_y
_atom_site_fract_z
_atom_site_charge
Co	Co	0.40129 0.99608 0.49739 1.14700
Co	Co	0.90129 0.00392 0.00261 1.14400
Co	Co	0.47557 0.88871 0.44370 1.14300
Co	Co	0.02443 0.88871 0.94370 1.14000
Co	Co	0.52443 0.11129 0.55630 1.14300
Co	Co	0.42871 0.46783 0.48670 1.15900
Co	Co	0.42876 0.53104 0.01319 1.15700
Co	Co	0.07124 0.53104 0.51319 1.15600
Co	Co	0.57124 0.46896 0.98681 1.15700
Co	Co	0.59871 0.00392 0.50261 1.14800
Co	Co	0.57129 0.53217 0.51330 1.16000
Co	Co	0.09871 0.99608 0.99739 1.14500
Co	Co	0.97557 0.11129 0.05630 1.14100
Co	Co	0.07129 0.46783 0.98670 1.15900
Co	Co	0.92876 0.46896 0.48681 1.15600
Co	Co	0.92871 0.53217 0.01330 1.15900
H 	H 	0.91230 0.67320 0.78030 0.22800
H 	H 	0.26630 0.23930 0.82610 0.29400
H 	H 	0.72710 0.74900 0.06890 0.09200
H 	H 	0.33150 0.07830 0.08000 0.01000
H 	H 	0.24360 0.56430 0.04130 -0.02700
H 	H 	0.72860 0.23800 0.90450 0.05700
H 	H 	0.75640 0.43570 0.95870 -0.02700
H 	H 	0.59060 0.88320 0.14400 0.17200
H 	H 	0.64510 0.87770 0.37060 0.03200
H 	H 	0.05680 0.12490 0.64230 0.26100
H 	H 	0.66850 0.92170 0.92000 0.01000
H 	H 	0.50050 0.26170 0.49880 0.16100
H 	H 	0.74360 0.43570 0.45870 -0.02700
H 	H 	0.16580 0.71960 0.16360 0.20000
H 	H 	0.10070 0.67360 0.88270 0.22200
H 	H 	0.66860 0.36500 0.40100 0.14500
H 	H 	0.75490 0.17390 0.67240 0.04500
H 	H 	0.27290 0.25100 0.93110 0.09200
H 	H 	0.74300 0.25440 0.81110 0.19800
H 	H 	0.94380 0.05490 0.68100 0.20000
H 	H 	0.94320 0.87510 0.35770 0.26100
H 	H 	0.46510 0.62460 0.42790 0.01100
H 	H 	0.93040 0.19760 0.17620 0.07900
H 	H 	0.77160 0.82780 0.97120 0.05400
H 	H 	0.85780 0.71550 0.55910 0.08200
H 	H 	0.32120 0.59400 0.86200 0.17300
H 	H 	0.24100 0.45620 0.60390 -0.01000
H 	H 	0.42560 0.67290 0.78550 0.25700
H 	H 	0.73370 0.76070 0.17390 0.29400
H 	H 	0.58520 0.95130 0.07940 0.19500
H 	H 	0.30030 0.15980 0.72450 0.08500
H 	H 	0.55680 0.87510 0.85770 0.26100
H 	H 	0.41480 0.04870 0.92060 0.19500
H 	H 	0.65500 0.63140 0.05470 0.10100
H 	H 	0.69650 0.59200 0.34830 0.17600
H 	H 	0.54230 0.36220 0.93440 -0.01300
H 	H 	0.27280 0.03130 0.92930 -0.00100
H 	H 	0.58030 0.76690 0.14760 -0.03800
H 	H 	0.34320 0.19460 0.83300 -0.05300
H 	H 	0.22620 0.53760 0.15670 -0.02100
H 	H 	0.83150 0.92170 0.42000 0.00900
H 	H 	0.80690 0.59340 0.23940 0.17800
H 	H 	0.56960 0.19760 0.67620 0.07400
H 	H 	0.85490 0.87770 0.87060 0.03400
H 	H 	0.38840 0.70960 0.11730 0.17000
H 	H 	0.05620 0.94510 0.31900 0.20000
H 	H 	0.74100 0.54380 0.89610 -0.00900
H 	H 	0.22710 0.25100 0.43110 0.09500
H 	H 	0.84010 0.72130 0.66620 0.24400
H 	H 	0.49950 0.73830 0.50120 0.16100
H 	H 	0.69970 0.84020 0.27550 0.08500
H 	H 	0.32040 0.70470 0.52690 0.16100
H 	H 	0.75350 0.45430 0.59270 -0.00300
H 	H 	0.89930 0.32640 0.11730 0.22200
H 	H 	0.77140 0.23800 0.40450 0.05800
H 	H 	0.22860 0.76200 0.59550 0.05800
H 	H 	0.08030 0.23310 0.35240 -0.03300
H 	H 	0.90080 0.27850 0.92680 0.16700
H 	H 	0.86700 0.91630 0.21960 0.22800
H 	H 	0.32510 0.96570 0.88230 -0.01400
H 	H 	0.81480 0.14100 0.00640 0.02700
H 	H 	0.08520 0.04870 0.42060 0.19500
H 	H 	0.09920 0.72150 0.07320 0.16700
H 	H 	0.47440 0.37760 0.80950 0.00100
H 	H 	0.22720 0.03130 0.42930 0.00000
H 	H 	0.06960 0.80240 0.82380 0.07900
H 	H 	0.83140 0.36500 0.90100 0.14600
H 	H 	0.15500 0.36860 0.44530 0.10200
H 	H 	0.04060 0.20940 0.04600 0.05200
H 	H 	0.27160 0.17220 0.52880 0.05600
H 	H 	0.71460 0.41320 0.75080 0.18000
H 	H 	0.74650 0.45430 0.09270 -0.00400
H 	H 	0.04890 0.35980 0.94210 -0.00200
H 	H 	0.18520 0.85900 0.99360 0.02700
H 	H 	0.60070 0.32640 0.61730 0.22200
H 	H 	0.96510 0.37540 0.07210 0.01000
H 	H 	0.92560 0.32710 0.71450 0.25700
H 	H 	0.25640 0.56430 0.54130 -0.02700
H 	H 	0.51350 0.37870 0.30840 0.02100
H 	H 	0.09060 0.11680 0.35600 0.17200
H 	H 	0.98650 0.37870 0.80840 0.02100
H 	H 	0.88840 0.29040 0.38270 0.16900
H 	H 	0.90940 0.88320 0.64400 0.17200
H 	H 	0.14510 0.12230 0.12940 0.03400
H 	H 	0.33420 0.71960 0.66360 0.19900
H 	H 	0.65680 0.80540 0.16700 -0.05300
H 	H 	0.15680 0.19460 0.33300 -0.04900
H 	H 	0.48650 0.62130 0.69160 0.02100
H 	H 	0.62300 0.19690 0.23590 0.23000
H 	H 	0.63300 0.91630 0.71960 0.22800
H 	H 	0.53490 0.37540 0.57210 0.01100
H 	H 	0.25490 0.45710 0.85330 -0.01100
H 	H 	0.75490 0.54290 0.64670 -0.01100
H 	H 	0.67880 0.40600 0.13800 0.17300
H 	H 	0.45110 0.35980 0.44210 -0.00100
H 	H 	0.80810 0.20940 0.86240 0.07700
H 	H 	0.52560 0.62240 0.19050 0.00100
H 	H 	0.34950 0.91880 0.10740 0.21200
H 	H 	0.67490 0.03430 0.11770 -0.01400
H 	H 	0.67410 0.04370 0.78690 0.01400
H 	H 	0.21460 0.58680 0.74920 0.18000
H 	H 	0.19310 0.40660 0.76060 0.17800
H 	H 	0.74510 0.17390 0.17240 0.04500
H 	H 	0.95770 0.36220 0.43440 -0.01400
H 	H 	0.59920 0.27850 0.42680 0.16400
H 	H 	0.84950 0.08120 0.39260 0.21200
H 	H 	0.17490 0.96570 0.38230 -0.01400
H 	H 	0.69310 0.59340 0.73940 0.17900
H 	H 	0.75920 0.96490 0.28320 -0.00600
H 	H 	0.17410 0.95630 0.71310 0.01400
H 	H 	0.12300 0.80310 0.26410 0.23000
H 	H 	0.78540 0.41320 0.25080 0.18000
H 	H 	0.25720 0.43680 0.96670 -0.00500
H 	H 	0.06820 0.07750 0.25400 -0.01100
H 	H 	0.84500 0.63140 0.55470 0.10200
H 	H 	0.54060 0.79060 0.45400 0.04700
H 	H 	0.45770 0.63780 0.06560 -0.01300
H 	H 	0.25900 0.45620 0.10390 -0.00900
H 	H 	0.08780 0.32450 0.61880 0.26100
H 	H 	0.16850 0.07830 0.58000 0.00900
H 	H 	0.97550 0.62470 0.42410 0.02600
H 	H 	0.35490 0.12230 0.62940 0.03200
H 	H 	0.16860 0.63500 0.09900 0.14600
H 	H 	0.80030 0.84020 0.77550 0.08400
H 	H 	0.19970 0.15980 0.22450 0.08400
H 	H 	0.12770 0.19140 0.51690 0.26200
H 	H 	0.98040 0.23420 0.27580 0.05600
H 	H 	0.24510 0.45710 0.35330 -0.01100
H 	H 	0.24300 0.74560 0.68890 0.19700
H 	H 	0.01350 0.62130 0.19160 0.02100
H 	H 	0.27380 0.53760 0.65670 -0.02100
H 	H 	0.51960 0.23420 0.77580 0.06500
H 	H 	0.57440 0.32710 0.21450 0.25700
H 	H 	0.41230 0.32680 0.71970 0.22800
H 	H 	0.69190 0.20940 0.36240 0.07800
H 	H 	0.07440 0.67290 0.28550 0.25700
H 	H 	0.43180 0.07750 0.75400 -0.01000
H 	H 	0.15990 0.27870 0.33380 0.24400
H 	H 	0.17960 0.70470 0.02690 0.16400
H 	H 	0.75900 0.54380 0.39610 -0.01000
H 	H 	0.54890 0.64020 0.55790 -0.00100
H 	H 	0.28540 0.58680 0.24920 0.18000
H 	H 	0.76860 0.19260 0.96040 0.21000
H 	H 	0.80350 0.59200 0.84830 0.17600
H 	H 	0.74510 0.54290 0.14670 -0.01100
H 	H 	0.58780 0.67550 0.88120 0.26100
H 	H 	0.76630 0.76070 0.67390 0.28900
H 	H 	0.87700 0.19690 0.73590 0.23000
H 	H 	0.93180 0.92250 0.74600 -0.01100
H 	H 	0.62340 0.70990 0.58910 0.16500
H 	H 	0.30810 0.79060 0.63760 0.07800
H 	H 	0.40080 0.72150 0.57320 0.16400
H 	H 	0.95940 0.79060 0.95400 0.05200
H 	H 	0.75720 0.56320 0.53330 -0.00500
H 	H 	0.13300 0.08370 0.78040 0.22800
H 	H 	0.02560 0.37760 0.30950 0.00200
H 	H 	0.24080 0.03510 0.71680 -0.00600
H 	H 	0.37660 0.29010 0.41090 0.16500
H 	H 	0.83420 0.28040 0.83640 0.20000
H 	H 	0.00050 0.73830 0.00120 0.16900
H 	H 	0.26860 0.80740 0.53960 0.21000
H 	H 	0.61160 0.29040 0.88270 0.17000
H 	H 	0.87660 0.70990 0.08910 0.16300
H 	H 	0.30690 0.40660 0.26060 0.17900
H 	H 	0.64220 0.71550 0.05910 0.07900
H 	H 	0.91480 0.95130 0.57940 0.19500
H 	H 	0.66580 0.28040 0.33640 0.19900
H 	H 	0.45940 0.20940 0.54600 0.04700
H 	H 	0.35780 0.28450 0.94090 0.07900
H 	H 	0.40940 0.11680 0.85600 0.17200
H 	H 	0.77380 0.46240 0.84330 -0.02100
H 	H 	0.91220 0.67550 0.38120 0.26100
H 	H 	0.37230 0.19140 0.01690 0.26500
H 	H 	0.43040 0.80240 0.32380 0.07400
H 	H 	0.72720 0.96870 0.07070 -0.00100
H 	H 	0.30350 0.40800 0.65170 0.17600
H 	H 	0.65050 0.08120 0.89260 0.21200
H 	H 	0.32590 0.95630 0.21310 0.01400
H 	H 	0.84320 0.80540 0.66700 -0.04900
H 	H 	0.95110 0.64020 0.05790 -0.00200
H 	H 	0.14220 0.28450 0.44090 0.08200
H 	H 	0.01960 0.76580 0.72420 0.05600
H 	H 	0.11160 0.70960 0.61730 0.16900
H 	H 	0.34500 0.36860 0.94530 0.10100
H 	H 	0.82040 0.29530 0.97310 0.16400
H 	H 	0.97440 0.62240 0.69050 0.00200
H 	H 	0.48040 0.76580 0.22420 0.06500
H 	H 	0.24650 0.54570 0.40730 -0.00300
H 	H 	0.04230 0.63780 0.56560 -0.01400
H 	H 	0.23370 0.23930 0.32610 0.28900
H 	H 	0.58770 0.67320 0.28030 0.22800
H 	H 	0.77290 0.74900 0.56890 0.09500
H 	H 	0.72840 0.82780 0.47120 0.05600
H 	H 	0.73140 0.19260 0.46040 0.21000
H 	H 	0.56820 0.92250 0.24600 -0.01000
H 	H 	0.25490 0.82610 0.82760 0.04500
H 	H 	0.24280 0.43680 0.46670 -0.00500
H 	H 	0.44320 0.12490 0.14230 0.26100
H 	H 	0.82590 0.04370 0.28690 0.01400
H 	H 	0.82510 0.03430 0.61770 -0.01400
H 	H 	0.62770 0.80860 0.98310 0.26500
H 	H 	0.36700 0.08370 0.28040 0.22800
H 	H 	0.23140 0.80740 0.03960 0.21000
H 	H 	0.31480 0.85900 0.49360 0.02700
H 	H 	0.39930 0.67360 0.38270 0.22200
H 	H 	0.74280 0.56320 0.03330 -0.00500
H 	H 	0.37700 0.80310 0.76410 0.23000
H 	H 	0.25920 0.03510 0.21680 -0.00600
H 	H 	0.15050 0.91880 0.60740 0.21200
H 	H 	0.27140 0.76200 0.09550 0.05700
H 	H 	0.41970 0.23310 0.85240 -0.03800
H 	H 	0.25350 0.54570 0.90730 -0.00400
H 	H 	0.67960 0.29530 0.47310 0.16100
H 	H 	0.33140 0.63500 0.59900 0.14500
H 	H 	0.25700 0.74560 0.18890 0.19800
H 	H 	0.68520 0.14100 0.50640 0.02700
H 	H 	0.41220 0.32450 0.11880 0.26100
H 	H 	0.44380 0.94510 0.81900 0.20100
H 	H 	0.19190 0.79060 0.13760 0.07700
H 	H 	0.34010 0.27870 0.83380 0.24900
H 	H 	0.65990 0.72130 0.16620 0.24900
H 	H 	0.03490 0.62460 0.92790 0.01000
H 	H 	0.22840 0.17220 0.02880 0.05400
H 	H 	0.74080 0.96490 0.78320 -0.00600
H 	H 	0.99950 0.26170 0.99880 0.16900
H 	H 	0.24510 0.82610 0.32760 0.04500
H 	H 	0.19650 0.40800 0.15170 0.17600
H 	H 	0.91970 0.76690 0.64760 -0.03300
H 	H 	0.87230 0.80860 0.48310 0.26200
H 	H 	0.52450 0.62470 0.92410 0.02600
H 	H 	0.08770 0.32680 0.21970 0.22800
H 	H 	0.82120 0.40600 0.63800 0.17300
H 	H 	0.75700 0.25440 0.31110 0.19700
H 	H 	0.12340 0.29010 0.91090 0.16300
H 	H 	0.02450 0.37530 0.57590 0.02600
H 	H 	0.55620 0.05490 0.18100 0.20100
H 	H 	0.47550 0.37530 0.07590 0.02600
H 	H 	0.17880 0.59400 0.36200 0.17300
H 	H 	0.77280 0.96870 0.57070 0.00000
H 	H 	0.72620 0.46240 0.34330 -0.02100
C 	C 	0.16020 0.07850 0.62040 0.24100
C 	C 	0.19800 0.91380 0.90200 0.45100
C 	C 	0.79390 0.14950 0.67410 0.23100
C 	C 	0.46380 0.10130 0.84230 -0.31600
C 	C 	0.00750 0.13860 0.75500 -0.54800
C 	C 	0.98540 0.18840 0.18690 0.02800
C 	C 	0.48460 0.79440 0.47220 0.18700
C 	C 	0.18870 0.29550 0.68730 0.98200
C 	C 	0.26550 0.10060 0.47730 -0.20200
C 	C 	0.77770 0.42830 0.09800 0.18800
C 	C 	0.34640 0.32040 0.42630 -0.17700
C 	C 	0.21640 0.63820 0.86590 0.37600
C 	C 	0.17470 0.80370 0.02260 -0.19300
C 	C 	0.77500 0.40600 0.44110 0.19200
C 	C 	0.30270 0.27510 0.91770 0.03400
C 	C 	0.83980 0.92150 0.37960 0.24100
C 	C 	0.33980 0.07850 0.12040 0.24100
C 	C 	0.77080 0.36360 0.90770 -0.29400
C 	C 	0.76550 0.89940 0.02270 -0.20600
C 	C 	0.35300 0.83410 0.49500 0.19100
C 	C 	0.97580 0.18620 0.46920 1.01500
C 	C 	0.94720 0.05410 0.25980 -0.18700
C 	C 	0.41750 0.45180 0.05580 0.41400
C 	C 	0.28360 0.36550 0.94500 -0.16600
C 	C 	0.91600 0.89240 0.28360 0.42400
C 	C 	0.90910 0.87870 0.53470 0.40800
C 	C 	0.22860 0.67920 0.61480 0.31500
C 	C 	0.85300 0.16590 0.00500 0.18700
C 	C 	0.48540 0.81160 0.31310 0.04700
C 	C 	0.73200 0.33110 0.16430 -0.53700
C 	C 	0.39710 0.63690 0.07260 0.19900
C 	C 	0.17740 0.25140 0.34640 -0.65700
C 	C 	0.36700 0.22340 0.82630 0.46800
C 	C 	0.90200 0.79700 0.74190 -0.07100
C 	C 	0.33120 0.70190 0.88390 1.01100
C 	C 	0.27010 0.40600 0.45780 0.12600
C 	C 	0.89010 0.85470 0.84030 0.07200
C 	C 	0.78360 0.36180 0.13410 0.37600
C 	C 	0.58250 0.54820 0.94420 0.41400
C 	C 	0.13940 0.08900 0.98330 0.40900
C 	C 	0.36270 0.58020 0.42180 -0.21800
C 	C 	0.53950 0.23710 0.50010 -0.21000
C 	C 	0.70890 0.57000 0.89200 0.20400
C 	C 	0.77690 0.10180 0.63960 -0.21200
C 	C 	0.93060 0.38570 0.79660 0.21600
C 	C 	0.81130 0.70450 0.31270 0.98200
C 	C 	0.16880 0.70190 0.38390 1.01100
C 	C 	0.61050 0.63840 0.55770 0.16300
C 	C 	0.20300 0.05340 0.70130 0.21800
C 	C 	0.73760 0.39990 0.12520 -0.29700
C 	C 	0.09800 0.20300 0.25810 -0.07100
C 	C 	0.72860 0.32080 0.88520 0.31600
C 	C 	0.70420 0.63800 0.26930 0.39900
C 	C 	0.36620 0.83650 0.78820 -0.27300
C 	C 	0.75030 0.67050 0.83000 -0.53500
C 	C 	0.98460 0.20560 0.02780 0.18200
C 	C 	0.29220 0.06420 0.94680 0.22800
C 	C 	0.72050 0.98300 0.40090 0.39700
C 	C 	0.80200 0.08620 0.09800 0.45100
C 	C 	0.06080 0.88750 0.50300 1.01300
C 	C 	0.88100 0.05760 0.30160 0.18100
C 	C 	0.52340 0.92220 0.21800 0.21000
C 	C 	0.40600 0.92010 0.82060 -0.34800
C 	C 	0.35250 0.15860 0.99860 -0.29800
C 	C 	0.71250 0.56930 0.17440 0.20600
C 	C 	0.70200 0.63840 0.85870 0.39500
C 	C 	0.12470 0.42110 0.58600 -0.23200
C 	C 	0.47580 0.81380 0.03080 1.01800
C 	C 	0.86060 0.91100 0.01670 0.40900
C 	C 	0.75060 0.59960 0.72940 -0.32400
C 	C 	0.69730 0.72490 0.08230 0.03400
C 	C 	0.86620 0.16350 0.71180 -0.27300
C 	C 	0.58400 0.89240 0.78360 0.42300
C 	C 	0.57660 0.12640 0.21320 0.41800
C 	C 	0.76640 0.85300 0.49530 0.21000
C 	C 	0.27620 0.72700 0.65110 -0.37300
C 	C 	0.30560 0.56500 0.68300 0.23200
C 	C 	0.69800 0.08620 0.59800 0.45100
C 	C 	0.03620 0.10130 0.34230 -0.31300
C 	C 	0.64750 0.84140 0.00140 -0.29800
C 	C 	0.27010 0.59460 0.73780 -0.33900
C 	C 	0.38950 0.36160 0.44230 0.16300
C 	C 	0.72990 0.59400 0.54220 0.12600
C 	C 	0.51420 0.12430 0.31130 1.03300
C 	C 	0.29800 0.36160 0.14130 0.39500
C 	C 	0.20420 0.70180 0.81570 1.00100
C 	C 	0.37530 0.42110 0.08600 -0.23200
C 	C 	0.68550 0.70310 0.37980 1.01500
C 	C 	0.02420 0.81380 0.53080 1.01500
C 	C 	0.43880 0.97580 0.30820 0.36400
C 	C 	0.79800 0.63840 0.35870 0.39500
C 	C 	0.44720 0.94590 0.24020 -0.18400
C 	C 	0.41600 0.10760 0.21640 0.42300
C 	C 	0.87190 0.57720 0.65950 -0.23500
C 	C 	0.58330 0.61630 0.20000 0.22200
C 	C 	0.56080 0.11250 0.99700 1.01400
C 	C 	0.13880 0.08200 0.73920 -0.33500
C 	C 	0.72310 0.10180 0.13960 -0.21300
C 	C 	0.90680 0.38180 0.08580 0.19300
C 	C 	0.31450 0.29690 0.62020 1.01500
C 	C 	0.74620 0.59900 0.86410 -0.31300
C 	C 	0.08900 0.45450 0.40050 0.42300
C 	C 	0.91790 0.61800 0.40890 0.22000
C 	C 	0.09320 0.61820 0.91420 0.19300
C 	C 	0.96050 0.23710 0.00010 -0.22400
C 	C 	0.60600 0.08090 0.86430 -0.27700
C 	C 	0.37640 0.07480 0.94170 -0.33300
C 	C 	0.10290 0.63690 0.57260 0.19900
C 	C 	0.52420 0.18620 0.96920 1.01800
C 	C 	0.09400 0.92010 0.32060 -0.34800
C 	C 	0.63210 0.35270 0.61310 -0.30600
C 	C 	0.88580 0.42560 0.83430 -0.24600
C 	C 	0.09090 0.12130 0.46530 0.40800
C 	C 	0.23760 0.60010 0.37480 -0.29700
C 	C 	0.72380 0.27300 0.34890 -0.37300
C 	C 	0.77010 0.59400 0.04220 0.12500
C 	C 	0.36120 0.08200 0.23920 -0.33500
C 	C 	0.22230 0.57170 0.90200 0.18800
C 	C 	0.03490 0.19150 0.77630 0.98300
C 	C 	0.59450 0.89350 0.84240 -0.33800
C 	C 	0.25030 0.32950 0.67000 -0.53500
C 	C 	0.22500 0.59400 0.55890 0.19200
C 	C 	0.43060 0.61430 0.70340 0.21700
C 	C 	0.56120 0.02420 0.69180 0.36400
C 	C 	0.22310 0.89820 0.36040 -0.21200
C 	C 	0.82530 0.19630 0.97740 -0.19300
C 	C 	0.77010 0.40540 0.76220 -0.33900
C 	C 	0.39010 0.14530 0.65970 0.07500
C 	C 	0.06940 0.61430 0.20340 0.21600
C 	C 	0.59320 0.38180 0.58580 0.19300
C 	C 	0.65070 0.26660 0.44240 -0.31100
C 	C 	0.14330 0.16820 0.21520 -0.02000
C 	C 	0.81450 0.70310 0.87980 1.01400
C 	C 	0.27080 0.63640 0.59230 -0.29400
C 	C 	0.35670 0.16820 0.71520 -0.02400
C 	C 	0.59400 0.07990 0.17940 -0.34800
C 	C 	0.91670 0.61630 0.70000 0.22200
C 	C 	0.41790 0.38200 0.09110 0.22100
C 	C 	0.32260 0.25140 0.84640 -0.67600
C 	C 	0.22990 0.40600 0.95780 0.12500
C 	C 	0.99490 0.13050 0.45480 -0.52300
C 	C 	0.63300 0.77660 0.17370 0.46800
C 	C 	0.78750 0.56930 0.67440 0.20700
C 	C 	0.22920 0.63640 0.09230 -0.29400
C 	C 	0.01460 0.81160 0.81310 0.02800
C 	C 	0.33480 0.93230 0.85760 0.27000
C 	C 	0.86790 0.35270 0.11310 -0.30700
C 	C 	0.77140 0.32080 0.38520 0.31500
C 	C 	0.24460 0.32100 0.93190 0.13600
C 	C 	0.27770 0.57170 0.40200 0.18800
C 	C 	0.13300 0.22340 0.32630 0.45200
C 	C 	0.82260 0.74860 0.65360 -0.65700
C 	C 	0.61420 0.42560 0.33430 -0.24700
C 	C 	0.47310 0.89590 0.11430 0.37700
C 	C 	0.25380 0.40100 0.13590 -0.31300
C 	C 	0.86120 0.91800 0.26080 -0.33500
C 	C 	0.46050 0.76290 0.49990 -0.21000
C 	C 	0.48390 0.21190 0.74500 -0.01100
C 	C 	0.03950 0.76290 0.99990 -0.22400
C 	C 	0.09450 0.10650 0.65760 -0.33800
C 	C 	0.01420 0.87570 0.18870 1.03400
C 	C 	0.21640 0.36550 0.44500 -0.16800
C 	C 	0.60290 0.36310 0.92740 0.19900
C 	C 	0.81260 0.36450 0.72300 0.41100
C 	C 	0.50750 0.86140 0.74500 -0.54700
C 	C 	0.80560 0.43500 0.81700 0.23200
C 	C 	0.27690 0.89820 0.86040 -0.21300
C 	C 	0.55280 0.05410 0.75980 -0.18400
C 	C 	0.92410 0.45570 0.89530 0.41900
C 	C 	0.06120 0.97580 0.80820 0.35700
C 	C 	0.89400 0.08090 0.36430 -0.27600
C 	C 	0.75540 0.67900 0.06810 0.13600
C 	C 	0.36060 0.08900 0.48330 0.41200
C 	C 	0.02690 0.89590 0.61430 0.37300
C 	C 	0.99250 0.86140 0.24500 -0.54800
C 	C 	0.20890 0.43000 0.60800 0.20400
C 	C 	0.59090 0.87870 0.03470 0.41000
C 	C 	0.31260 0.63550 0.77700 0.41200
C 	C 	0.24620 0.40100 0.63590 -0.31300
C 	C 	0.40200 0.20300 0.75810 -0.06800
C 	C 	0.61980 0.64620 0.25330 -0.32300
C 	C 	0.98580 0.12430 0.81130 1.03400
C 	C 	0.01540 0.79440 0.97220 0.18200
C 	C 	0.86270 0.41980 0.07820 -0.21900
C 	C 	0.61900 0.64810 0.88280 -0.31600
C 	C 	0.15360 0.32040 0.92630 -0.17500
C 	C 	0.78600 0.24220 0.88810 0.11000
C 	C 	0.77620 0.27300 0.84890 -0.37500
C 	C 	0.78360 0.63450 0.55500 -0.16800
C 	C 	0.21330 0.05100 0.64250 -0.21500
C 	C 	0.74460 0.67900 0.56810 0.14000
C 	C 	0.59800 0.79700 0.24190 -0.06800
C 	C 	0.64700 0.16590 0.50500 0.19100
C 	C 	0.37930 0.76720 0.52610 0.29300
C 	C 	0.22050 0.01700 0.09910 0.39600
C 	C 	0.61900 0.05760 0.80160 0.18100
C 	C 	0.66880 0.29810 0.11610 1.01100
C 	C 	0.87930 0.23280 0.97390 0.30200
C 	C 	0.74940 0.59960 0.22940 -0.32400
C 	C 	0.28360 0.63820 0.36590 0.37500
C 	C 	0.70610 0.14950 0.17410 0.23100
C 	C 	0.13210 0.64730 0.88690 -0.30700
C 	C 	0.13730 0.58020 0.92180 -0.21900
C 	C 	0.11420 0.57440 0.16570 -0.24600
C 	C 	0.29580 0.36200 0.73070 0.39900
C 	C 	0.12360 0.07480 0.44170 -0.33100
C 	C 	0.62470 0.57890 0.91400 -0.23200
C 	C 	0.56940 0.38570 0.29660 0.21700
C 	C 	0.72500 0.40600 0.94110 0.19200
C 	C 	0.24970 0.32950 0.17000 -0.53500
C 	C 	0.47660 0.07780 0.78200 0.21000
C 	C 	0.25060 0.40040 0.77060 -0.32400
C 	C 	0.20610 0.85050 0.32590 0.23100
C 	C 	0.02340 0.07780 0.28200 0.21400
C 	C 	0.12070 0.76720 0.02610 0.30200
C 	C 	0.21250 0.43070 0.32560 0.20700
C 	C 	0.96510 0.80850 0.22370 0.98300
C 	C 	0.68740 0.36450 0.22300 0.41200
C 	C 	0.23360 0.14700 0.50470 0.21000
C 	C 	0.89710 0.36310 0.42740 0.19900
C 	C 	0.71640 0.36180 0.63410 0.37500
C 	C 	0.90740 0.45120 0.04850 0.42500
C 	C 	0.67740 0.74860 0.15360 -0.67600
C 	C 	0.26640 0.14700 0.00470 0.21800
C 	C 	0.73450 0.89940 0.52270 -0.20200
C 	C 	0.85670 0.83180 0.78480 -0.02000
C 	C 	0.22380 0.72700 0.15110 -0.37500
C 	C 	0.63940 0.91100 0.51670 0.41200
C 	C 	0.72230 0.42830 0.59800 0.18800
C 	C 	0.21400 0.75780 0.11190 0.11000
C 	C 	0.09260 0.54880 0.95150 0.42500
C 	C 	0.10600 0.91910 0.63570 -0.27600
C 	C 	0.39410 0.64520 0.75950 -0.31500
C 	C 	0.14310 0.67970 0.60360 -0.28500
C 	C 	0.53620 0.89870 0.15770 -0.31600
C 	C 	0.11050 0.36160 0.94230 0.16200
C 	C 	0.88100 0.64810 0.38280 -0.31600
C 	C 	0.37190 0.42280 0.84050 -0.23600
C 	C 	0.27950 0.01700 0.59910 0.39700
C 	C 	0.58210 0.61800 0.90890 0.22100
C 	C 	0.41100 0.45450 0.90050 0.42300
C 	C 	0.42410 0.54430 0.60470 0.41900
C 	C 	0.20780 0.06420 0.44680 0.22500
C 	C 	0.53490 0.80850 0.72370 0.98400
C 	C 	0.19440 0.56500 0.18300 0.23200
C 	C 	0.11900 0.94240 0.69840 0.18100
C 	C 	0.12810 0.42280 0.34050 -0.23500
C 	C 	0.14700 0.83410 0.99500 0.18700
C 	C 	0.85690 0.32030 0.39640 -0.28500
C 	C 	0.16520 0.93230 0.35760 0.27000
C 	C 	0.93920 0.11250 0.49700 1.01300
C 	C 	0.08400 0.10760 0.71640 0.42400
C 	C 	0.86700 0.77660 0.67370 0.45200
C 	C 	0.07590 0.54430 0.10470 0.41900
C 	C 	0.88020 0.64620 0.75330 -0.32200
C 	C 	0.08210 0.38200 0.59110 0.22000
C 	C 	0.51610 0.78810 0.25500 -0.01100
C 	C 	0.72990 0.40540 0.26220 -0.33900
C 	C 	0.78670 0.94900 0.35750 -0.21500
C 	C 	0.63730 0.41980 0.57820 -0.21800
C 	C 	0.19730 0.27510 0.41770 0.02500
C 	C 	0.76240 0.39990 0.62520 -0.29700
C 	C 	0.57590 0.45570 0.39530 0.41900
C 	C 	0.18550 0.29690 0.12020 1.01400
C 	C 	0.66020 0.92150 0.87960 0.24100
C 	C 	0.79580 0.63800 0.76930 0.39900
C 	C 	0.39400 0.91910 0.13570 -0.27700
C 	C 	0.50510 0.13050 0.95480 -0.52300
C 	C 	0.90550 0.89350 0.34240 -0.33800
C 	C 	0.40740 0.54880 0.45150 0.42500
C 	C 	0.70420 0.29820 0.68430 1.00100
C 	C 	0.58900 0.54550 0.09950 0.42300
C 	C 	0.00510 0.86950 0.54520 -0.52300
C 	C 	0.20420 0.36200 0.23070 0.39900
C 	C 	0.40910 0.12130 0.96530 0.41000
C 	C 	0.14750 0.15860 0.49860 -0.29100
C 	C 	0.92340 0.12640 0.71320 0.41900
C 	C 	0.73360 0.85300 0.99530 0.21800
C 	C 	0.66520 0.06770 0.14240 0.27000
C 	C 	0.87530 0.57890 0.41400 -0.23200
C 	C 	0.80270 0.72490 0.58230 0.02500
C 	C 	0.70300 0.94660 0.79870 0.21800
C 	C 	0.23200 0.66890 0.33570 -0.53700
C 	C 	0.23450 0.10060 0.97730 -0.20600
C 	C 	0.11900 0.35190 0.61720 -0.31600
C 	C 	0.68870 0.70450 0.81270 0.98200
C 	C 	0.91750 0.54820 0.44420 0.41400
C 	C 	0.43920 0.88750 0.00300 1.01400
C 	C 	0.31130 0.29550 0.18730 0.98200
C 	C 	0.51460 0.18840 0.68690 0.04700
C 	C 	0.64330 0.83180 0.28480 -0.02400
C 	C 	0.87640 0.92520 0.55830 -0.33100
C 	C 	0.79220 0.93580 0.55320 0.22500
C 	C 	0.89410 0.35480 0.74050 -0.31400
C 	C 	0.67470 0.19630 0.47740 -0.19500
C 	C 	0.38020 0.35380 0.74670 -0.32300
C 	C 	0.10590 0.64520 0.25950 -0.31400
C 	C 	0.29390 0.85050 0.82590 0.23100
C 	C 	0.83480 0.06770 0.64240 0.27000
C 	C 	0.27500 0.59400 0.05890 0.19200
C 	C 	0.08250 0.45180 0.55580 0.41400
C 	C 	0.38580 0.57440 0.66570 -0.24700
C 	C 	0.29110 0.43000 0.10800 0.20400
C 	C 	0.51540 0.20560 0.52780 0.18700
C 	C 	0.69440 0.43500 0.31700 0.23200
C 	C 	0.52690 0.10410 0.88570 0.37700
C 	C 	0.29580 0.70180 0.31570 1.00100
C 	C 	0.49250 0.13860 0.25500 -0.54700
C 	C 	0.79700 0.94660 0.29870 0.21800
C 	C 	0.60590 0.35480 0.24050 -0.31500
C 	C 	0.77950 0.98300 0.90090 0.39600
C 	C 	0.79110 0.57000 0.39200 0.20400
C 	C 	0.36790 0.64730 0.38690 -0.30600
C 	C 	0.59260 0.45120 0.54850 0.42500
C 	C 	0.28750 0.43070 0.82560 0.20600
C 	C 	0.30200 0.91380 0.40200 0.45100
C 	C 	0.71640 0.63450 0.05500 -0.16600
C 	C 	0.62360 0.92520 0.05830 -0.33300
C 	C 	0.28670 0.05100 0.14250 -0.21400
C 	C 	0.34930 0.73340 0.55760 -0.31100
C 	C 	0.05280 0.94590 0.74020 -0.18700
C 	C 	0.63880 0.91800 0.76080 -0.33500
C 	C 	0.10990 0.14530 0.15970 0.07200
C 	C 	0.91100 0.54550 0.59950 0.42300
C 	C 	0.01610 0.21190 0.24500 0.00800
C 	C 	0.24940 0.40040 0.27060 -0.32400
C 	C 	0.40550 0.10650 0.15760 -0.33800
C 	C 	0.84930 0.26660 0.94240 -0.31700
C 	C 	0.88950 0.63840 0.05770 0.16200
C 	C 	0.79580 0.29820 0.18430 1.00100
C 	C 	0.49490 0.86950 0.04520 -0.52300
C 	C 	0.62070 0.23280 0.47390 0.29300
C 	C 	0.25540 0.32100 0.43190 0.14000
C 	C 	0.70780 0.93580 0.05320 0.22800
C 	C 	0.85250 0.84140 0.50140 -0.29100
C 	C 	0.62810 0.57720 0.15950 -0.23600
C 	C 	0.11980 0.35380 0.24670 -0.32200
C 	C 	0.08330 0.38370 0.30000 0.22200
C 	C 	0.76800 0.33110 0.66430 -0.53700
C 	C 	0.83120 0.29810 0.61610 1.01100
C 	C 	0.60990 0.85470 0.34030 0.07500
C 	C 	0.84640 0.67960 0.07370 -0.17500
C 	C 	0.71330 0.94900 0.85750 -0.21400
C 	C 	0.90600 0.07990 0.67940 -0.34800
C 	C 	0.28600 0.75780 0.61190 0.10600
C 	C 	0.27140 0.67920 0.11480 0.31600
C 	C 	0.41670 0.38370 0.80000 0.22200
C 	C 	0.18740 0.63550 0.27700 0.41100
C 	C 	0.64310 0.32030 0.89640 -0.28500
C 	C 	0.15070 0.73340 0.05760 -0.31700
C 	C 	0.40680 0.61820 0.41420 0.19300
C 	C 	0.98390 0.78810 0.75500 0.00800
C 	C 	0.93880 0.02420 0.19180 0.35700
C 	C 	0.97660 0.92220 0.71800 0.21400
C 	C 	0.74970 0.67050 0.33000 -0.53500
C 	C 	0.20200 0.36160 0.64130 0.39500
C 	C 	0.38100 0.94240 0.19840 0.18100
C 	C 	0.46510 0.19150 0.27630 0.98400
C 	C 	0.26800 0.66890 0.83570 -0.53700
C 	C 	0.38100 0.35190 0.11720 -0.31600
C 	C 	0.13380 0.83650 0.28820 -0.27300
C 	C 	0.96380 0.89870 0.65770 -0.31300
C 	C 	0.72920 0.36360 0.40770 -0.29400
C 	C 	0.32530 0.80370 0.52260 -0.19500
C 	C 	0.75380 0.59900 0.36410 -0.31300
C 	C 	0.42340 0.87360 0.78680 0.41800
C 	C 	0.35690 0.67970 0.10360 -0.28500
C 	C 	0.63380 0.16350 0.21180 -0.27300
C 	C 	0.26240 0.60010 0.87480 -0.29700
C 	C 	0.48580 0.87570 0.68870 1.03300
C 	C 	0.71400 0.24220 0.38810 0.10600
C 	C 	0.65360 0.67960 0.57370 -0.17700
C 	C 	0.97310 0.10410 0.38570 0.37300
C 	C 	0.07660 0.87360 0.28680 0.41900
C 	C 	0.29700 0.05340 0.20130 0.21800
C 	C 	0.22990 0.59460 0.23780 -0.33900
N 	N 	0.14550 0.40540 0.95880 -0.25100
N 	N 	0.43320 0.83070 0.46930 -0.23800
N 	N 	0.64250 0.40690 0.94920 -0.27400
N 	N 	0.85450 0.59460 0.04120 -0.25100
N 	N 	0.06680 0.83070 0.96930 -0.23800
N 	N 	0.35450 0.40540 0.45880 -0.25100
N 	N 	0.85750 0.40690 0.44920 -0.27400
N 	N 	0.47000 0.15280 0.64420 -0.19800
N 	N 	0.56680 0.16930 0.53070 -0.23800
N 	N 	0.97000 0.84720 0.85580 -0.19100
N 	N 	0.93320 0.16930 0.03070 -0.23800
N 	N 	0.14250 0.59310 0.55080 -0.27400
N 	N 	0.53000 0.84720 0.35580 -0.19800
N 	N 	0.35750 0.59310 0.05080 -0.27400
N 	N 	0.64550 0.59460 0.54120 -0.25100
N 	N 	0.03000 0.15280 0.14420 -0.19100
O 	O 	0.36540 0.99650 0.32650 -0.20700
O 	O 	0.13460 0.99650 0.82650 -0.20600
O 	O 	0.37600 0.48900 0.05560 -0.44000
O 	O 	0.64330 0.11880 0.60020 -0.43000
O 	O 	0.50060 0.97810 0.34150 -0.23600
O 	O 	0.36810 0.51150 0.45050 -0.44900
O 	O 	0.20330 0.97840 0.10790 -0.25300
O 	O 	0.98140 0.43830 0.02740 -0.46300
O 	O 	0.19410 0.95720 0.93690 -0.42700
O 	O 	0.35670 0.88120 0.39980 -0.43000
O 	O 	0.59610 0.87960 0.47820 -0.41800
O 	O 	0.00510 0.55770 0.09010 -0.45300
O 	O 	0.11290 0.04680 0.94830 -0.37200
O 	O 	0.70330 0.02160 0.39210 -0.25400
O 	O 	0.49490 0.55770 0.59010 -0.45500
O 	O 	0.11890 0.50720 0.07080 -0.43800
O 	O 	0.86540 0.00350 0.17350 -0.20600
O 	O 	0.86810 0.48850 0.04950 -0.45000
O 	O 	0.50330 0.95720 0.44620 -0.58800
O 	O 	0.69410 0.04280 0.56310 -0.42600
O 	O 	0.99490 0.44230 0.90990 -0.45300
O 	O 	0.79670 0.02160 0.89210 -0.25300
O 	O 	0.09610 0.12040 0.02180 -0.41300
O 	O 	0.61890 0.49280 0.42920 -0.44000
O 	O 	0.87600 0.51100 0.44440 -0.44100
O 	O 	0.49940 0.02190 0.65850 -0.23600
O 	O 	0.12400 0.48900 0.55560 -0.44100
O 	O 	0.88110 0.49280 0.92920 -0.43800
O 	O 	0.00060 0.02190 0.15850 -0.23000
O 	O 	0.85670 0.11880 0.10020 -0.43100
O 	O 	0.40390 0.12040 0.52180 -0.41800
O 	O 	0.86980 0.50860 0.56650 -0.44700
O 	O 	0.98430 0.55780 0.58670 -0.45500
O 	O 	0.62400 0.51100 0.94440 -0.44000
O 	O 	0.38110 0.50720 0.57080 -0.44000
O 	O 	0.99940 0.97810 0.84150 -0.23000
O 	O 	0.63020 0.50860 0.06650 -0.44700
O 	O 	0.61290 0.95320 0.55170 -0.37200
O 	O 	0.00910 0.43890 0.53230 -0.45300
O 	O 	0.99090 0.56110 0.46770 -0.45300
O 	O 	0.99670 0.95720 0.94620 -0.58400
O 	O 	0.80590 0.04280 0.06310 -0.42700
O 	O 	0.88710 0.95320 0.05170 -0.37200
O 	O 	0.69060 0.96920 0.44140 -0.42000
O 	O 	0.48430 0.44220 0.91330 -0.45500
O 	O 	0.13020 0.49140 0.43350 -0.44700
O 	O 	0.29670 0.97840 0.60790 -0.25400
O 	O 	0.63190 0.48850 0.54950 -0.44900
O 	O 	0.48140 0.56170 0.47260 -0.46000
O 	O 	0.51860 0.43830 0.52740 -0.46000
O 	O 	0.19060 0.03080 0.05860 -0.41800
O 	O 	0.90390 0.87960 0.97820 -0.41300
O 	O 	0.49670 0.04280 0.55380 -0.58800
O 	O 	0.30940 0.03080 0.55860 -0.42000
O 	O 	0.01570 0.44220 0.41330 -0.45500
O 	O 	0.50510 0.44230 0.40990 -0.45500
O 	O 	0.30590 0.95720 0.43690 -0.42600
O 	O 	0.14330 0.88120 0.89980 -0.43100
O 	O 	0.49090 0.43890 0.03230 -0.45200
O 	O 	0.51570 0.55780 0.08670 -0.45500
O 	O 	0.36980 0.49140 0.93350 -0.44700
O 	O 	0.13190 0.51150 0.95050 -0.45000
O 	O 	0.38710 0.04680 0.44830 -0.37200
O 	O 	0.01860 0.56170 0.97260 -0.46300
O 	O 	0.63460 0.00350 0.67350 -0.20700
O 	O 	0.80940 0.96920 0.94140 -0.41800
O 	O 	0.50910 0.56110 0.96770 -0.45200
O 	O 	0.00330 0.04280 0.05380 -0.58400
F 	F 	0.15480 0.25990 0.63830 -0.44200
F 	F 	0.62230 0.68000 0.77790 -0.49300
F 	F 	0.96160 0.79200 0.26930 -0.46000
F 	F 	0.52430 0.11500 0.05090 -0.32700
F 	F 	0.62050 0.67710 0.38860 -0.53900
F 	F 	0.72960 0.72600 0.77870 -0.46700
F 	F 	0.97720 0.07770 0.79600 -0.55000
F 	F 	0.44010 0.93520 0.02020 -0.51100
F 	F 	0.12050 0.32290 0.11140 -0.53800
F 	F 	0.97570 0.11500 0.55090 -0.32700
F 	F 	0.10350 0.67700 0.39350 -0.51400
F 	F 	0.03840 0.20800 0.73070 -0.46000
F 	F 	0.08880 0.85470 0.16330 -0.50500
F 	F 	0.37950 0.32290 0.61140 -0.53900
F 	F 	0.35630 0.87380 0.00020 -0.47900
F 	F 	0.89650 0.32300 0.60650 -0.51400
F 	F 	0.22960 0.27400 0.72130 -0.46700
F 	F 	0.96950 0.79510 0.55850 -0.54000
F 	F 	0.46950 0.20490 0.94150 -0.54100
F 	F 	0.83010 0.26210 0.13730 -0.49900
F 	F 	0.74750 0.27720 0.71810 -0.49800
F 	F 	0.02010 0.77740 0.18130 -0.48400
F 	F 	0.13630 0.73790 0.36860 -0.42200
F 	F 	0.34870 0.26150 0.63550 -0.49700
F 	F 	0.41120 0.85470 0.66330 -0.50500
F 	F 	0.27040 0.27400 0.22130 -0.46700
F 	F 	0.97990 0.22260 0.81870 -0.48400
F 	F 	0.53050 0.79510 0.05850 -0.54100
F 	F 	0.47570 0.88500 0.94910 -0.32700
F 	F 	0.94010 0.06480 0.47980 -0.51200
F 	F 	0.27550 0.27550 0.56670 -0.50300
F 	F 	0.35960 0.67600 0.28140 -0.54000
F 	F 	0.89620 0.19180 0.45080 -0.48300
F 	F 	0.25250 0.72280 0.28190 -0.49800
F 	F 	0.10380 0.80820 0.54920 -0.48300
F 	F 	0.34520 0.25990 0.13830 -0.44200
F 	F 	0.85960 0.32400 0.21860 -0.54000
F 	F 	0.77550 0.72450 0.93330 -0.50200
F 	F 	0.39650 0.67700 0.89350 -0.51400
F 	F 	0.84870 0.73850 0.86450 -0.49600
F 	F 	0.65130 0.73850 0.36450 -0.49700
F 	F 	0.33010 0.73790 0.36270 -0.49800
F 	F 	0.52280 0.07770 0.29600 -0.55000
F 	F 	0.48030 0.78820 0.97090 -0.42600
F 	F 	0.05990 0.93520 0.52020 -0.51200
F 	F 	0.47720 0.92230 0.70400 -0.55000
F 	F 	0.98030 0.21180 0.52910 -0.42600
F 	F 	0.01970 0.78820 0.47090 -0.42600
F 	F 	0.03050 0.20490 0.44150 -0.54000
F 	F 	0.22450 0.27550 0.06670 -0.50200
F 	F 	0.85630 0.12620 0.49980 -0.48000
F 	F 	0.87770 0.68000 0.27790 -0.49400
F 	F 	0.91120 0.14530 0.83670 -0.50500
F 	F 	0.60350 0.32300 0.10650 -0.51400
F 	F 	0.47990 0.77740 0.68130 -0.48500
F 	F 	0.14040 0.67600 0.78140 -0.54000
F 	F 	0.79100 0.27630 0.56190 -0.46400
F 	F 	0.45600 0.14110 0.35610 -0.49800
F 	F 	0.84520 0.74010 0.36170 -0.44200
F 	F 	0.39620 0.80820 0.04920 -0.48200
F 	F 	0.11350 0.19880 0.80330 -0.48500
F 	F 	0.02430 0.88500 0.44910 -0.32700
F 	F 	0.95600 0.85890 0.14390 -0.49800
F 	F 	0.63630 0.26210 0.13140 -0.42200
F 	F 	0.02280 0.92230 0.20400 -0.55000
F 	F 	0.14370 0.87380 0.50020 -0.48000
F 	F 	0.88650 0.80120 0.19670 -0.48500
F 	F 	0.20900 0.72370 0.43810 -0.46400
F 	F 	0.46930 0.85920 0.94250 -0.18100
F 	F 	0.70900 0.27630 0.06190 -0.46500
F 	F 	0.64370 0.12620 0.99980 -0.47900
F 	F 	0.53070 0.14080 0.05750 -0.18100
F 	F 	0.03070 0.85920 0.44250 -0.18100
F 	F 	0.72450 0.72450 0.43330 -0.50300
F 	F 	0.65480 0.74010 0.86170 -0.44200
F 	F 	0.64040 0.32400 0.71860 -0.54000
F 	F 	0.16990 0.73790 0.86270 -0.49900
F 	F 	0.04400 0.14110 0.85610 -0.49800
F 	F 	0.54400 0.85890 0.64390 -0.49800
F 	F 	0.24750 0.72280 0.78190 -0.49900
F 	F 	0.77040 0.72600 0.27870 -0.46700
F 	F 	0.12230 0.32000 0.72210 -0.49400
F 	F 	0.86370 0.26210 0.63140 -0.42200
F 	F 	0.96930 0.14080 0.55750 -0.18100
F 	F 	0.75250 0.27720 0.21810 -0.49900
F 	F 	0.51970 0.21180 0.02910 -0.42600
F 	F 	0.87950 0.67710 0.88860 -0.53800
F 	F 	0.53840 0.79200 0.76930 -0.46000
F 	F 	0.66990 0.26210 0.63730 -0.49800
F 	F 	0.38650 0.19880 0.30330 -0.48400
F 	F 	0.58880 0.14530 0.33670 -0.50500
F 	F 	0.52010 0.22260 0.31870 -0.48500
F 	F 	0.60380 0.19180 0.95080 -0.48200
F 	F 	0.15130 0.26150 0.13550 -0.49600
F 	F 	0.29100 0.72370 0.93810 -0.46500
F 	F 	0.46160 0.20800 0.23070 -0.46000
F 	F 	0.36370 0.73790 0.86860 -0.42200
F 	F 	0.37770 0.32000 0.22210 -0.49300
F 	F 	0.61350 0.80120 0.69670 -0.48400
F 	F 	0.55990 0.06480 0.97980 -0.51100
