data_crystal

_cell_length_a 30.84540
_cell_length_b 30.84540
_cell_length_c 30.84540
_cell_angle_alpha 60.00000
_cell_angle_beta  60.00000
_cell_angle_gamma 60.00000

_symmetry_space_group_name_	'P 1'
_symmetry_space_group_name_H-M	'P 1'

loop_
_symmetry_equiv_pos_as_xyz
  x,y,z

loop_
_atom_site_label
_atom_site_type_symbol
_atom_site_fract_x
_atom_site_fract_y
_atom_site_fract_z
_atom_site_charge
Zn	Zn	0.70059 0.29941 0.70059 1.19000
Zn	Zn	0.66010 0.01970 0.66010 1.18600
Zn	Zn	0.66010 0.66010 0.66010 1.18600
Zn	Zn	0.76872 0.23128 0.76872 1.19700
Zn	Zn	0.33990 0.98030 0.33990 1.18600
Zn	Zn	0.61336 0.61336 0.15992 1.19500
Zn	Zn	0.23128 0.76872 0.23128 1.19700
Zn	Zn	0.61336 0.61336 0.61336 1.19500
Zn	Zn	0.38664 0.38664 0.38664 1.19500
Zn	Zn	0.23128 0.23128 0.76872 1.19700
Zn	Zn	0.70059 0.29941 0.29941 1.19000
Zn	Zn	0.29941 0.29941 0.70059 1.19000
Zn	Zn	0.70059 0.70059 0.29941 1.19000
Zn	Zn	0.66010 0.66010 0.01970 1.18600
Zn	Zn	0.33990 0.33990 0.98030 1.18600
Zn	Zn	0.84008 0.38664 0.38664 1.19500
Zn	Zn	0.61336 0.15992 0.61336 1.19500
Zn	Zn	0.29941 0.70059 0.29941 1.19000
Zn	Zn	0.38664 0.38664 0.84008 1.19400
Zn	Zn	0.15992 0.61336 0.61336 1.19400
Zn	Zn	0.33990 0.33990 0.33990 1.18500
Zn	Zn	0.29941 0.70059 0.70059 1.18900
Zn	Zn	0.23128 0.76872 0.76872 1.19600
Zn	Zn	0.76872 0.23128 0.23128 1.19600
Zn	Zn	0.76872 0.76872 0.23128 1.19600
Zn	Zn	0.38664 0.84008 0.38664 1.19400
Zn	Zn	0.01970 0.66010 0.66010 1.18500
Zn	Zn	0.98030 0.33990 0.33990 1.18500
H 	H 	0.15600 0.63440 0.20840 -0.03100
H 	H 	0.73060 0.91730 0.91730 0.18600
H 	H 	0.96000 0.90780 0.38020 0.18600
H 	H 	0.79160 0.36560 0.84400 -0.03100
H 	H 	0.68880 0.68880 0.17220 0.01600
H 	H 	0.08170 0.35490 0.78170 0.06200
H 	H 	0.54980 0.82780 0.31120 0.01600
H 	H 	0.91730 0.43480 0.73060 0.18600
H 	H 	0.63440 0.20840 0.15600 -0.03100
H 	H 	0.31120 0.82780 0.31120 0.01600
H 	H 	0.01010 0.73850 0.51290 0.05200
H 	H 	0.04000 0.24800 0.61980 0.18600
H 	H 	0.90780 0.75200 0.38020 0.18600
H 	H 	0.68880 0.68880 0.45020 0.01600
H 	H 	0.24800 0.61980 0.04000 0.18600
H 	H 	0.78170 0.08170 0.35490 0.06200
H 	H 	0.68880 0.17220 0.68880 0.01600
H 	H 	0.08270 0.08270 0.56520 0.18600
H 	H 	0.21830 0.91830 0.21830 0.06100
H 	H 	0.73850 0.01010 0.51290 0.05200
H 	H 	0.08270 0.26940 0.08270 0.18600
H 	H 	0.26150 0.48710 0.26150 0.05200
H 	H 	0.91730 0.91730 0.43480 0.18600
H 	H 	0.35490 0.78170 0.08170 0.06200
H 	H 	0.79160 0.84400 0.36560 -0.03100
H 	H 	0.43480 0.91730 0.91730 0.18600
H 	H 	0.96000 0.75200 0.90780 0.18600
H 	H 	0.91830 0.64510 0.21830 0.06200
H 	H 	0.31120 0.31120 0.54980 0.01600
H 	H 	0.79160 0.36560 0.99880 -0.03100
H 	H 	0.99880 0.79160 0.84400 -0.03000
H 	H 	0.08270 0.56520 0.08270 0.18600
H 	H 	0.36560 0.99880 0.84400 -0.03100
H 	H 	0.91730 0.73060 0.43480 0.18600
H 	H 	0.56520 0.08270 0.26940 0.18600
H 	H 	0.90780 0.96000 0.75200 0.18600
H 	H 	0.26150 0.98990 0.26150 0.05200
H 	H 	0.36560 0.84400 0.99880 -0.03100
H 	H 	0.61980 0.24800 0.04000 0.18600
H 	H 	0.04000 0.24800 0.09220 0.18600
H 	H 	0.84400 0.79160 0.36560 -0.03100
H 	H 	0.48710 0.98990 0.26150 0.05200
H 	H 	0.38020 0.75200 0.96000 0.18600
H 	H 	0.91730 0.91730 0.73060 0.18600
H 	H 	0.73060 0.91730 0.43480 0.18600
H 	H 	0.38020 0.96000 0.90780 0.18600
H 	H 	0.20840 0.00120 0.15600 -0.03000
H 	H 	0.26940 0.56520 0.08270 0.18600
H 	H 	0.20840 0.63440 0.00120 -0.03100
H 	H 	0.26150 0.26150 0.48710 0.05200
H 	H 	0.38020 0.90780 0.75200 0.18600
H 	H 	0.63440 0.00120 0.20840 -0.03100
H 	H 	0.00120 0.15600 0.63440 -0.03100
H 	H 	0.73850 0.51290 0.73850 0.05200
H 	H 	0.38020 0.75200 0.90780 0.18600
H 	H 	0.08170 0.78170 0.35490 0.06200
H 	H 	0.21830 0.64510 0.21830 0.06200
H 	H 	0.09220 0.24800 0.04000 0.18600
H 	H 	0.73850 0.73850 0.51290 0.05200
H 	H 	0.61980 0.04000 0.09220 0.18600
H 	H 	0.61980 0.04000 0.24800 0.18600
H 	H 	0.15600 0.20840 0.63440 -0.03100
H 	H 	0.31120 0.31120 0.82780 0.01600
H 	H 	0.26940 0.08270 0.08270 0.18600
H 	H 	0.20840 0.00120 0.63440 -0.03100
H 	H 	0.99880 0.36560 0.84400 -0.03100
H 	H 	0.91730 0.43480 0.91730 0.18600
H 	H 	0.24800 0.61980 0.09220 0.18600
H 	H 	0.79160 0.84400 0.99880 -0.03000
H 	H 	0.45020 0.17220 0.68880 0.01600
H 	H 	0.15600 0.63440 0.00120 -0.03100
H 	H 	0.51290 0.73850 0.01010 0.05200
H 	H 	0.21830 0.21830 0.64510 0.06200
H 	H 	0.75200 0.96000 0.38020 0.18600
H 	H 	0.08270 0.08270 0.26940 0.18600
H 	H 	0.84400 0.99880 0.79160 -0.03000
H 	H 	0.24800 0.09220 0.61980 0.18600
H 	H 	0.90780 0.38020 0.75200 0.18600
H 	H 	0.04000 0.61980 0.24800 0.18600
H 	H 	0.68880 0.45020 0.68880 0.01600
H 	H 	0.26150 0.26150 0.98990 0.05200
H 	H 	0.79160 0.99880 0.84400 -0.03000
H 	H 	0.38020 0.96000 0.75200 0.18600
H 	H 	0.96000 0.38020 0.75200 0.18600
H 	H 	0.17220 0.68880 0.68880 0.01600
H 	H 	0.78170 0.08170 0.78170 0.06100
H 	H 	0.21830 0.64510 0.91830 0.06200
H 	H 	0.24800 0.09220 0.04000 0.18600
H 	H 	0.54980 0.31120 0.82780 0.01600
H 	H 	0.91830 0.21830 0.64510 0.06200
H 	H 	0.17220 0.45020 0.68880 0.01600
H 	H 	0.01010 0.73850 0.73850 0.05200
H 	H 	0.99880 0.84400 0.79160 -0.03000
H 	H 	0.09220 0.04000 0.61980 0.18600
H 	H 	0.75200 0.96000 0.90780 0.18600
H 	H 	0.20840 0.15600 0.63440 -0.03100
H 	H 	0.20840 0.15600 0.00120 -0.03000
H 	H 	0.84400 0.36560 0.99880 -0.03100
H 	H 	0.36560 0.79160 0.99880 -0.03100
H 	H 	0.98990 0.26150 0.48710 0.05200
H 	H 	0.78170 0.78170 0.08170 0.06100
H 	H 	0.56520 0.08270 0.08270 0.18600
H 	H 	0.00120 0.15600 0.20840 -0.03000
H 	H 	0.73850 0.51290 0.01010 0.05200
H 	H 	0.75200 0.90780 0.38020 0.18600
H 	H 	0.84400 0.99880 0.36560 -0.03100
H 	H 	0.31120 0.54980 0.82780 0.01600
H 	H 	0.79160 0.99880 0.36560 -0.03100
H 	H 	0.15600 0.00120 0.63440 -0.03100
H 	H 	0.00120 0.63440 0.20840 -0.03100
H 	H 	0.99880 0.79160 0.36560 -0.03100
H 	H 	0.38020 0.90780 0.96000 0.18600
H 	H 	0.08270 0.26940 0.56520 0.18600
H 	H 	0.48710 0.26150 0.26150 0.05200
H 	H 	0.08170 0.78170 0.78170 0.06100
H 	H 	0.48710 0.26150 0.98990 0.05200
H 	H 	0.90780 0.96000 0.38020 0.18600
H 	H 	0.43480 0.91730 0.73060 0.18600
H 	H 	0.36560 0.79160 0.84400 -0.03100
H 	H 	0.82780 0.54980 0.31120 0.01600
H 	H 	0.35490 0.08170 0.78170 0.06200
H 	H 	0.64510 0.91830 0.21830 0.06200
H 	H 	0.51290 0.73850 0.73850 0.05200
H 	H 	0.08270 0.56520 0.26940 0.18600
H 	H 	0.99880 0.84400 0.36560 -0.03100
H 	H 	0.75200 0.38020 0.90780 0.18600
H 	H 	0.20840 0.63440 0.15600 -0.03100
H 	H 	0.45020 0.68880 0.17220 0.01600
H 	H 	0.35490 0.78170 0.78170 0.06200
H 	H 	0.26150 0.98990 0.48710 0.05200
H 	H 	0.98990 0.48710 0.26150 0.05200
H 	H 	0.24800 0.04000 0.61980 0.18600
H 	H 	0.00120 0.20840 0.63440 -0.03100
H 	H 	0.45020 0.68880 0.68880 0.01600
H 	H 	0.82780 0.31120 0.54980 0.01600
H 	H 	0.21830 0.21830 0.91830 0.06100
H 	H 	0.51290 0.01010 0.73850 0.05200
H 	H 	0.73850 0.73850 0.01010 0.05200
H 	H 	0.91730 0.73060 0.91730 0.18600
H 	H 	0.96000 0.38020 0.90780 0.18600
H 	H 	0.63440 0.00120 0.15600 -0.03100
H 	H 	0.91830 0.21830 0.21830 0.06100
H 	H 	0.61980 0.09220 0.24800 0.18600
H 	H 	0.64510 0.21830 0.91830 0.06200
H 	H 	0.75200 0.38020 0.96000 0.18600
H 	H 	0.26940 0.08270 0.56520 0.18600
H 	H 	0.56520 0.26940 0.08270 0.18600
H 	H 	0.31120 0.82780 0.54980 0.01600
H 	H 	0.04000 0.61980 0.09220 0.18600
H 	H 	0.54980 0.31120 0.31120 0.01600
H 	H 	0.68880 0.45020 0.17220 0.01600
H 	H 	0.09220 0.24800 0.61980 0.18600
H 	H 	0.24800 0.04000 0.09220 0.18600
H 	H 	0.84400 0.79160 0.99880 -0.03000
H 	H 	0.36560 0.99880 0.79160 -0.03100
H 	H 	0.15600 0.20840 0.00120 -0.03000
H 	H 	0.17220 0.68880 0.45020 0.01600
H 	H 	0.90780 0.38020 0.96000 0.18600
H 	H 	0.61980 0.09220 0.04000 0.18600
H 	H 	0.78170 0.78170 0.35490 0.06200
H 	H 	0.73060 0.43480 0.91730 0.18600
H 	H 	0.21830 0.91830 0.64510 0.06200
H 	H 	0.82780 0.31120 0.31120 0.01600
H 	H 	0.00120 0.20840 0.15600 -0.03000
H 	H 	0.01010 0.51290 0.73850 0.05200
H 	H 	0.09220 0.61980 0.04000 0.18600
H 	H 	0.63440 0.15600 0.20840 -0.03100
H 	H 	0.84400 0.36560 0.79160 -0.03100
H 	H 	0.36560 0.84400 0.79160 -0.03100
H 	H 	0.04000 0.09220 0.24800 0.18600
H 	H 	0.43480 0.73060 0.91730 0.18600
H 	H 	0.78170 0.35490 0.78170 0.06200
H 	H 	0.73850 0.01010 0.73850 0.05200
H 	H 	0.68880 0.17220 0.45020 0.01600
H 	H 	0.09220 0.04000 0.24800 0.18600
H 	H 	0.00120 0.63440 0.15600 -0.03100
H 	H 	0.15600 0.00120 0.20840 -0.03000
H 	H 	0.96000 0.75200 0.38020 0.18600
H 	H 	0.63440 0.15600 0.00120 -0.03100
H 	H 	0.96000 0.90780 0.75200 0.18600
H 	H 	0.61980 0.24800 0.09220 0.18600
H 	H 	0.31120 0.54980 0.31120 0.01600
H 	H 	0.90780 0.75200 0.96000 0.18600
H 	H 	0.64510 0.21830 0.21830 0.06200
H 	H 	0.75200 0.90780 0.96000 0.18600
H 	H 	0.63440 0.20840 0.00120 -0.03100
H 	H 	0.78170 0.35490 0.08170 0.06200
H 	H 	0.09220 0.61980 0.24800 0.18600
H 	H 	0.98990 0.26150 0.26150 0.05200
H 	H 	0.04000 0.09220 0.61980 0.18600
H 	H 	0.99880 0.36560 0.79160 -0.03100
H 	H 	0.26150 0.48710 0.98990 0.05200
C 	C 	0.83980 0.83980 0.40280 -0.19300
C 	C 	0.16020 0.59720 0.08240 -0.19300
C 	C 	0.92210 0.92210 0.75690 -0.55400
C 	C 	0.59720 0.16020 0.08240 -0.19300
C 	C 	0.01710 0.18450 0.61390 0.16800
C 	C 	0.26440 0.65120 0.26440 0.41600
C 	C 	0.29230 0.86210 0.29230 0.06700
C 	C 	0.60110 0.07790 0.24310 -0.55400
C 	C 	0.76360 0.43280 0.04000 0.12600
C 	C 	0.26440 0.26440 0.65120 0.41600
C 	C 	0.91570 0.23690 0.23690 -0.07100
C 	C 	0.51670 0.26270 0.26270 -0.04600
C 	C 	0.18450 0.01710 0.18450 0.16700
C 	C 	0.23690 0.61050 0.23690 -0.07100
C 	C 	0.39890 0.92210 0.75690 -0.55400
C 	C 	0.13790 0.70770 0.70770 0.06700
C 	C 	0.76360 0.76360 0.43280 0.12600
C 	C 	0.13316 0.73510 0.73510 -0.11800
C 	C 	0.29230 0.55330 0.29230 0.06700
C 	C 	0.13316 0.73510 0.39664 -0.11800
C 	C 	0.90760 0.29240 0.29240 -0.15900
C 	C 	0.07790 0.07790 0.60110 -0.55400
C 	C 	0.29240 0.90760 0.50760 -0.15900
C 	C 	0.70770 0.44670 0.13790 0.06700
C 	C 	0.07790 0.24310 0.07790 -0.55400
C 	C 	0.59720 0.10820 0.18640 0.22800
C 	C 	0.32180 0.32180 0.45300 0.56400
C 	C 	0.44670 0.13790 0.70770 0.06700
C 	C 	0.98290 0.81550 0.81550 0.16700
C 	C 	0.09240 0.70760 0.70760 -0.15900
C 	C 	0.55330 0.86210 0.29230 0.06700
C 	C 	0.67820 0.54700 0.09660 0.56400
C 	C 	0.08430 0.76310 0.38950 -0.07100
C 	C 	0.24310 0.07790 0.60110 -0.55400
C 	C 	0.75690 0.92210 0.39890 -0.55400
C 	C 	0.73730 0.73730 0.04210 -0.04600
C 	C 	0.90760 0.29240 0.50760 -0.15900
C 	C 	0.56720 0.23640 0.96000 0.12600
C 	C 	0.73730 0.48330 0.04210 -0.04600
C 	C 	0.10820 0.59720 0.10820 0.22800
C 	C 	0.26270 0.95790 0.51670 -0.04600
C 	C 	0.60110 0.24310 0.07790 -0.55400
C 	C 	0.73560 0.18000 0.73560 0.41600
C 	C 	0.59720 0.18640 0.10820 0.22800
C 	C 	0.67820 0.67820 0.09660 0.56400
C 	C 	0.40280 0.83980 0.83980 -0.19300
C 	C 	0.54700 0.67820 0.67820 0.56400
C 	C 	0.95790 0.26270 0.51670 -0.04600
C 	C 	0.16020 0.16020 0.08240 -0.19300
C 	C 	0.10820 0.18640 0.59720 0.22800
C 	C 	0.76310 0.76310 0.08430 -0.07100
C 	C 	0.49240 0.70760 0.70760 -0.15900
C 	C 	0.39664 0.73510 0.73510 -0.11800
C 	C 	0.81550 0.98290 0.81550 0.16700
C 	C 	0.07790 0.60110 0.07790 -0.55400
C 	C 	0.86684 0.60336 0.26490 -0.11800
C 	C 	0.08240 0.16020 0.16020 -0.19300
C 	C 	0.49240 0.70760 0.09240 -0.15900
C 	C 	0.26440 0.82000 0.26440 0.41600
C 	C 	0.95790 0.51670 0.26270 -0.04600
C 	C 	0.76360 0.04000 0.76360 0.12600
C 	C 	0.82000 0.65120 0.26440 0.41600
C 	C 	0.29240 0.90760 0.29240 -0.15900
C 	C 	0.38950 0.08430 0.76310 -0.07100
C 	C 	0.09660 0.67820 0.67820 0.56400
C 	C 	0.29240 0.29240 0.90760 -0.15900
C 	C 	0.16020 0.59720 0.16020 -0.19300
C 	C 	0.40280 0.89180 0.81360 0.22800
C 	C 	0.16020 0.08240 0.59720 -0.19300
C 	C 	0.81550 0.81550 0.98290 0.16700
C 	C 	0.76360 0.43280 0.76360 0.12600
C 	C 	0.18000 0.34880 0.73560 0.41600
C 	C 	0.10820 0.10820 0.59720 0.22800
C 	C 	0.70770 0.70770 0.13790 0.06700
C 	C 	0.23690 0.61050 0.91570 -0.07100
C 	C 	0.07790 0.07790 0.24310 -0.55400
C 	C 	0.08240 0.59720 0.16020 -0.19300
C 	C 	0.38610 0.81550 0.98290 0.16800
C 	C 	0.70760 0.09240 0.70760 -0.15900
C 	C 	0.81360 0.40280 0.89180 0.22800
C 	C 	0.70760 0.70760 0.49240 -0.15900
C 	C 	0.13316 0.39664 0.73510 -0.11800
C 	C 	0.76310 0.08430 0.38950 -0.07100
C 	C 	0.40280 0.89180 0.89180 0.22800
C 	C 	0.61390 0.18450 0.01710 0.16800
C 	C 	0.83980 0.40280 0.83980 -0.19300
C 	C 	0.89180 0.81360 0.40280 0.22800
C 	C 	0.83980 0.40280 0.91760 -0.19300
C 	C 	0.60336 0.26490 0.86684 -0.11800
C 	C 	0.67820 0.67820 0.54700 0.56400
C 	C 	0.73560 0.34880 0.18000 0.41600
C 	C 	0.92210 0.92210 0.39890 -0.55400
C 	C 	0.23640 0.56720 0.96000 0.12600
C 	C 	0.09660 0.67820 0.54700 0.56400
C 	C 	0.51670 0.26270 0.95790 -0.04600
C 	C 	0.23690 0.91570 0.61050 -0.07100
C 	C 	0.26440 0.65120 0.82000 0.41600
C 	C 	0.32180 0.32180 0.90340 0.56400
C 	C 	0.81360 0.89180 0.40280 0.22800
C 	C 	0.07790 0.24310 0.60110 -0.55400
C 	C 	0.13790 0.70770 0.44670 0.06700
C 	C 	0.55330 0.29230 0.29230 0.06700
C 	C 	0.23640 0.56720 0.23640 0.12600
C 	C 	0.83980 0.91760 0.83980 -0.19300
C 	C 	0.96000 0.56720 0.23640 0.12600
C 	C 	0.18450 0.01710 0.61390 0.16800
C 	C 	0.90340 0.45300 0.32180 0.56400
C 	C 	0.26270 0.51670 0.95790 -0.04600
C 	C 	0.34880 0.73560 0.73560 0.41600
C 	C 	0.73510 0.13316 0.39664 -0.11800
C 	C 	0.81360 0.89180 0.89180 0.22800
C 	C 	0.40280 0.91760 0.83980 -0.19300
C 	C 	0.16020 0.16020 0.59720 -0.19300
C 	C 	0.73560 0.73560 0.18000 0.41600
C 	C 	0.89180 0.89180 0.81360 0.22800
C 	C 	0.61390 0.18450 0.18450 0.16800
C 	C 	0.18000 0.73560 0.73560 0.41600
C 	C 	0.43280 0.04000 0.76360 0.12600
C 	C 	0.29240 0.29240 0.50760 -0.15900
C 	C 	0.39890 0.92210 0.92210 -0.55400
C 	C 	0.73560 0.34880 0.73560 0.41600
C 	C 	0.04210 0.73730 0.48330 -0.04600
C 	C 	0.26270 0.26270 0.51670 -0.04600
C 	C 	0.73510 0.13316 0.73510 -0.11800
C 	C 	0.26490 0.60336 0.86684 -0.11800
C 	C 	0.92210 0.75690 0.92210 -0.55400
C 	C 	0.56720 0.96000 0.23640 0.12600
C 	C 	0.45300 0.90340 0.32180 0.56400
C 	C 	0.10820 0.10820 0.18640 0.22800
C 	C 	0.61390 0.01710 0.18450 0.16800
C 	C 	0.18450 0.18450 0.61390 0.16800
C 	C 	0.76310 0.08430 0.76310 -0.07100
C 	C 	0.75690 0.39890 0.92210 -0.55400
C 	C 	0.24310 0.07790 0.07790 -0.55400
C 	C 	0.10820 0.18640 0.10820 0.22800
C 	C 	0.56720 0.23640 0.23640 0.12600
C 	C 	0.82000 0.26440 0.65120 0.41600
C 	C 	0.48330 0.73730 0.04210 -0.04600
C 	C 	0.70760 0.49240 0.70760 -0.15900
C 	C 	0.23640 0.23640 0.56720 0.12600
C 	C 	0.44670 0.70770 0.70770 0.06700
C 	C 	0.23690 0.23690 0.61050 -0.07100
C 	C 	0.26270 0.26270 0.95790 -0.04600
C 	C 	0.40280 0.81360 0.89180 0.22800
C 	C 	0.26490 0.86684 0.60336 -0.11800
C 	C 	0.18640 0.10820 0.59720 0.22800
C 	C 	0.26490 0.86684 0.26490 -0.11800
C 	C 	0.23690 0.91570 0.23690 -0.07100
C 	C 	0.54700 0.09660 0.67820 0.56400
C 	C 	0.32180 0.45300 0.90340 0.56400
C 	C 	0.04000 0.76360 0.43280 0.12600
C 	C 	0.90340 0.32180 0.32180 0.56400
C 	C 	0.18640 0.59720 0.10820 0.22800
C 	C 	0.23640 0.96000 0.56720 0.12600
C 	C 	0.86684 0.26490 0.60336 -0.11800
C 	C 	0.49240 0.09240 0.70760 -0.15900
C 	C 	0.86684 0.26490 0.26490 -0.11800
C 	C 	0.59720 0.08240 0.16020 -0.19300
C 	C 	0.89180 0.89180 0.40280 0.22800
C 	C 	0.98290 0.38610 0.81550 0.16800
C 	C 	0.76310 0.38950 0.76310 -0.07100
C 	C 	0.90340 0.32180 0.45300 0.56400
C 	C 	0.91760 0.83980 0.83980 -0.19300
C 	C 	0.61050 0.23690 0.23690 -0.07100
C 	C 	0.01710 0.18450 0.18450 0.16700
C 	C 	0.26490 0.26490 0.60336 -0.11800
C 	C 	0.26270 0.51670 0.26270 -0.04600
C 	C 	0.92210 0.75690 0.39890 -0.55400
C 	C 	0.23640 0.23640 0.96000 0.12600
C 	C 	0.89180 0.40280 0.81360 0.22800
C 	C 	0.48330 0.04210 0.73730 -0.04600
C 	C 	0.32180 0.90340 0.32180 0.56400
C 	C 	0.04210 0.48330 0.73730 -0.04600
C 	C 	0.83980 0.83980 0.91760 -0.19300
C 	C 	0.96000 0.23640 0.56720 0.12600
C 	C 	0.81550 0.98290 0.38610 0.16800
C 	C 	0.65120 0.26440 0.26440 0.41600
C 	C 	0.91760 0.83980 0.40280 -0.19300
C 	C 	0.38950 0.76310 0.08430 -0.07100
C 	C 	0.70770 0.13790 0.44670 0.06700
C 	C 	0.73510 0.73510 0.13316 -0.11800
C 	C 	0.44670 0.70770 0.13790 0.06700
C 	C 	0.92210 0.39890 0.75690 -0.55400
C 	C 	0.86210 0.29230 0.29230 0.06700
C 	C 	0.50760 0.90760 0.29240 -0.15900
C 	C 	0.92210 0.39890 0.92210 -0.55400
C 	C 	0.70760 0.49240 0.09240 -0.15900
C 	C 	0.98290 0.81550 0.38610 0.16800
C 	C 	0.38610 0.98290 0.81550 0.16800
C 	C 	0.73730 0.04210 0.48330 -0.04600
C 	C 	0.75690 0.92210 0.92210 -0.55400
C 	C 	0.29240 0.50760 0.29240 -0.15900
C 	C 	0.26440 0.82000 0.65120 0.41600
C 	C 	0.73730 0.48330 0.73730 -0.04600
C 	C 	0.32180 0.90340 0.45300 0.56400
C 	C 	0.23640 0.96000 0.23640 0.12600
C 	C 	0.89180 0.81360 0.89180 0.22800
C 	C 	0.09240 0.49240 0.70760 -0.15900
C 	C 	0.86210 0.55330 0.29230 0.06700
C 	C 	0.96000 0.23640 0.23640 0.12600
C 	C 	0.65120 0.26440 0.82000 0.41600
C 	C 	0.81550 0.38610 0.98290 0.16800
C 	C 	0.18450 0.18450 0.01710 0.16700
C 	C 	0.82000 0.26440 0.26440 0.41600
C 	C 	0.29230 0.29230 0.55330 0.06700
C 	C 	0.34880 0.73560 0.18000 0.41600
C 	C 	0.54700 0.67820 0.09660 0.56400
C 	C 	0.60110 0.07790 0.07790 -0.55400
C 	C 	0.29230 0.86210 0.55330 0.06700
C 	C 	0.09660 0.54700 0.67820 0.56400
C 	C 	0.95790 0.26270 0.26270 -0.04600
C 	C 	0.73510 0.39664 0.73510 -0.11800
C 	C 	0.18450 0.61390 0.01710 0.16800
C 	C 	0.18000 0.73560 0.34880 0.41600
C 	C 	0.73510 0.73510 0.39664 -0.11800
C 	C 	0.76310 0.76310 0.38950 -0.07100
C 	C 	0.51670 0.95790 0.26270 -0.04600
C 	C 	0.10820 0.59720 0.18640 0.22800
C 	C 	0.73510 0.39664 0.13316 -0.11800
C 	C 	0.90760 0.50760 0.29240 -0.15900
C 	C 	0.70770 0.70770 0.44670 0.06700
C 	C 	0.73560 0.73560 0.34880 0.41600
C 	C 	0.26490 0.26490 0.86684 -0.11800
C 	C 	0.01710 0.61390 0.18450 0.16800
C 	C 	0.61050 0.23690 0.91570 -0.07100
C 	C 	0.60336 0.26490 0.26490 -0.11800
C 	C 	0.81550 0.38610 0.81550 0.16800
C 	C 	0.38610 0.81550 0.81550 0.16800
C 	C 	0.50760 0.29240 0.90760 -0.15900
C 	C 	0.76360 0.76360 0.04000 0.12600
C 	C 	0.18450 0.61390 0.18450 0.16800
C 	C 	0.16020 0.08240 0.16020 -0.19300
C 	C 	0.43280 0.76360 0.04000 0.12600
C 	C 	0.70770 0.13790 0.70770 0.06700
C 	C 	0.67820 0.54700 0.67820 0.56400
C 	C 	0.70770 0.44670 0.70770 0.06700
C 	C 	0.65120 0.82000 0.26440 0.41600
C 	C 	0.04000 0.76360 0.76360 0.12600
C 	C 	0.59720 0.16020 0.16020 -0.19300
C 	C 	0.32180 0.45300 0.32180 0.56400
C 	C 	0.34880 0.18000 0.73560 0.41600
C 	C 	0.91570 0.23690 0.61050 -0.07100
C 	C 	0.39664 0.73510 0.13316 -0.11800
C 	C 	0.09240 0.70760 0.49240 -0.15900
C 	C 	0.70760 0.70760 0.09240 -0.15900
C 	C 	0.29230 0.29230 0.86210 0.06700
C 	C 	0.59720 0.10820 0.10820 0.22800
C 	C 	0.91760 0.40280 0.83980 -0.19300
C 	C 	0.26440 0.26440 0.82000 0.41600
C 	C 	0.67820 0.09660 0.67820 0.56400
C 	C 	0.61050 0.91570 0.23690 -0.07100
C 	C 	0.23690 0.23690 0.91570 -0.07100
C 	C 	0.76360 0.04000 0.43280 0.12600
C 	C 	0.86210 0.29230 0.55330 0.06700
C 	C 	0.91570 0.61050 0.23690 -0.07100
C 	C 	0.18640 0.10820 0.10820 0.22800
C 	C 	0.50760 0.29240 0.29240 -0.15900
C 	C 	0.83980 0.91760 0.40280 -0.19300
C 	C 	0.39890 0.75690 0.92210 -0.55400
C 	C 	0.48330 0.73730 0.73730 -0.04600
C 	C 	0.04210 0.73730 0.73730 -0.04600
C 	C 	0.08430 0.38950 0.76310 -0.07100
C 	C 	0.26490 0.60336 0.26490 -0.11800
C 	C 	0.60336 0.86684 0.26490 -0.11800
C 	C 	0.45300 0.32180 0.32180 0.56400
C 	C 	0.67820 0.09660 0.54700 0.56400
C 	C 	0.08240 0.16020 0.59720 -0.19300
C 	C 	0.76310 0.38950 0.08430 -0.07100
C 	C 	0.08430 0.76310 0.76310 -0.07100
C 	C 	0.07790 0.60110 0.24310 -0.55400
C 	C 	0.45300 0.32180 0.90340 0.56400
C 	C 	0.81550 0.81550 0.38610 0.16800
C 	C 	0.24310 0.60110 0.07790 -0.55400
C 	C 	0.73730 0.73730 0.48330 -0.04600
C 	C 	0.70760 0.09240 0.49240 -0.15900
C 	C 	0.13790 0.44670 0.70770 0.06700
C 	C 	0.04000 0.43280 0.76360 0.12600
C 	C 	0.73730 0.04210 0.73730 -0.04600
C 	C 	0.43280 0.76360 0.76360 0.12600
C 	C 	0.73560 0.18000 0.34880 0.41600
C 	C 	0.89180 0.40280 0.89180 0.22800
C 	C 	0.29230 0.55330 0.86210 0.06700
C 	C 	0.55330 0.29230 0.86210 0.06700
C 	C 	0.29240 0.50760 0.90760 -0.15900
C 	C 	0.40280 0.83980 0.91760 -0.19300
C 	C 	0.26270 0.95790 0.26270 -0.04600
C 	C 	0.38950 0.76310 0.76310 -0.07100
C 	C 	0.39664 0.13316 0.73510 -0.11800
O 	O 	0.29090 0.64378 0.29090 -0.48100
O 	O 	0.31730 0.41770 0.94770 -0.58400
O 	O 	0.77442 0.64378 0.29090 -0.48100
O 	O 	0.29090 0.29090 0.64378 -0.48100
O 	O 	0.05230 0.68270 0.58230 -0.58400
O 	O 	0.41770 0.94770 0.31730 -0.58400
O 	O 	0.98730 0.43210 0.79030 -0.25800
O 	O 	0.75970 0.30520 0.17540 -0.50000
O 	O 	0.65580 0.55066 0.13774 -0.62100
O 	O 	0.13774 0.55066 0.65580 -0.62100
O 	O 	0.22558 0.70910 0.35622 -0.48100
O 	O 	0.79030 0.79030 0.98730 -0.25800
O 	O 	0.70910 0.70910 0.22558 -0.48100
O 	O 	0.30520 0.17540 0.75970 -0.50000
O 	O 	0.41770 0.31730 0.31730 -0.58400
O 	O 	0.01270 0.20970 0.56790 -0.25800
O 	O 	0.31730 0.31730 0.94770 -0.58400
O 	O 	0.13774 0.65580 0.55066 -0.62100
O 	O 	0.58230 0.05230 0.68270 -0.58400
O 	O 	0.75970 0.17540 0.75970 -0.50000
O 	O 	0.77442 0.29090 0.29090 -0.48100
O 	O 	0.75970 0.17540 0.30520 -0.50000
O 	O 	0.30520 0.75970 0.17540 -0.50000
O 	O 	0.17540 0.30520 0.75970 -0.50000
O 	O 	0.65580 0.13774 0.55066 -0.62100
O 	O 	0.31730 0.94770 0.41770 -0.58400
O 	O 	0.94770 0.41770 0.31730 -0.58400
O 	O 	0.24030 0.82460 0.24030 -0.50000
O 	O 	0.64378 0.29090 0.77442 -0.48100
O 	O 	0.55066 0.65580 0.13774 -0.62100
O 	O 	0.79030 0.79030 0.43210 -0.25800
O 	O 	0.68270 0.05230 0.68270 -0.58400
O 	O 	0.98730 0.79030 0.43210 -0.25800
O 	O 	0.41770 0.31730 0.94770 -0.58400
O 	O 	0.44934 0.86226 0.34420 -0.62100
O 	O 	0.20970 0.01270 0.56790 -0.25800
O 	O 	0.30520 0.75970 0.75970 -0.50000
O 	O 	0.58230 0.68270 0.05230 -0.58400
O 	O 	0.29090 0.64378 0.77442 -0.48100
O 	O 	0.17540 0.75970 0.75970 -0.50000
O 	O 	0.31730 0.94770 0.31730 -0.58400
O 	O 	0.17540 0.75970 0.30520 -0.50000
O 	O 	0.22558 0.70910 0.70910 -0.48100
O 	O 	0.82460 0.24030 0.24030 -0.50000
O 	O 	0.34420 0.86226 0.44934 -0.62100
O 	O 	0.82460 0.24030 0.69480 -0.50000
O 	O 	0.69480 0.82460 0.24030 -0.50000
O 	O 	0.75970 0.75970 0.17540 -0.50000
O 	O 	0.20970 0.01270 0.20970 -0.25800
O 	O 	0.29090 0.77442 0.29090 -0.48100
O 	O 	0.68270 0.68270 0.58230 -0.58400
O 	O 	0.55066 0.13774 0.65580 -0.62100
O 	O 	0.44934 0.34420 0.34420 -0.62100
O 	O 	0.05230 0.68270 0.68270 -0.58400
O 	O 	0.35622 0.70910 0.70910 -0.48100
O 	O 	0.56790 0.20970 0.01270 -0.25800
O 	O 	0.55066 0.65580 0.65580 -0.62100
O 	O 	0.13774 0.65580 0.65580 -0.62100
O 	O 	0.79030 0.98730 0.43210 -0.25800
O 	O 	0.65580 0.65580 0.55066 -0.62100
O 	O 	0.82460 0.69480 0.24030 -0.50000
O 	O 	0.64378 0.77442 0.29090 -0.48100
O 	O 	0.20970 0.56790 0.01270 -0.25800
O 	O 	0.65580 0.65580 0.13774 -0.62100
O 	O 	0.35622 0.22558 0.70910 -0.48100
O 	O 	0.79030 0.43210 0.79030 -0.25800
O 	O 	0.31730 0.41770 0.31730 -0.58400
O 	O 	0.43210 0.79030 0.79030 -0.25800
O 	O 	0.69480 0.24030 0.24030 -0.50000
O 	O 	0.20970 0.20970 0.01270 -0.25800
O 	O 	0.69480 0.24030 0.82460 -0.50000
O 	O 	0.68270 0.58230 0.05230 -0.58400
O 	O 	0.58230 0.68270 0.68270 -0.58400
O 	O 	0.86226 0.34420 0.34420 -0.62100
O 	O 	0.86226 0.44934 0.34420 -0.62100
O 	O 	0.34420 0.44934 0.86226 -0.62100
O 	O 	0.70910 0.22558 0.35622 -0.48100
O 	O 	0.75970 0.30520 0.75970 -0.50000
O 	O 	0.94770 0.31730 0.41770 -0.58400
O 	O 	0.65580 0.55066 0.65580 -0.62100
O 	O 	0.34420 0.86226 0.34420 -0.62100
O 	O 	0.29090 0.77442 0.64378 -0.48100
O 	O 	0.24030 0.82460 0.69480 -0.50000
O 	O 	0.79030 0.98730 0.79030 -0.25800
O 	O 	0.75970 0.75970 0.30520 -0.50000
O 	O 	0.01270 0.56790 0.20970 -0.25800
O 	O 	0.79030 0.43210 0.98730 -0.25800
O 	O 	0.20970 0.20970 0.56790 -0.25800
O 	O 	0.70910 0.35622 0.22558 -0.48100
O 	O 	0.70910 0.70910 0.35622 -0.48100
O 	O 	0.01270 0.20970 0.20970 -0.25800
O 	O 	0.24030 0.24030 0.82460 -0.50000
O 	O 	0.70910 0.22558 0.70910 -0.48100
O 	O 	0.43210 0.79030 0.98730 -0.25800
O 	O 	0.56790 0.01270 0.20970 -0.25800
O 	O 	0.05230 0.58230 0.68270 -0.58400
O 	O 	0.56790 0.20970 0.20970 -0.25800
O 	O 	0.86226 0.34420 0.44934 -0.62100
O 	O 	0.77442 0.29090 0.64378 -0.48100
O 	O 	0.65580 0.13774 0.65580 -0.62100
O 	O 	0.34420 0.44934 0.34420 -0.62100
O 	O 	0.24030 0.69480 0.82460 -0.50000
O 	O 	0.68270 0.68270 0.05230 -0.58400
O 	O 	0.24030 0.69480 0.24030 -0.50000
O 	O 	0.35622 0.70910 0.22558 -0.48100
O 	O 	0.94770 0.31730 0.31730 -0.58400
O 	O 	0.34420 0.34420 0.86226 -0.62100
O 	O 	0.43210 0.98730 0.79030 -0.25800
O 	O 	0.68270 0.05230 0.58230 -0.58400
O 	O 	0.98730 0.79030 0.79030 -0.25800
O 	O 	0.20970 0.56790 0.20970 -0.25800
O 	O 	0.31730 0.31730 0.41770 -0.58400
O 	O 	0.22558 0.35622 0.70910 -0.48100
O 	O 	0.64378 0.29090 0.29090 -0.48100
O 	O 	0.34420 0.34420 0.44934 -0.62100
O 	O 	0.70910 0.35622 0.70910 -0.48100
O 	O 	0.29090 0.29090 0.77442 -0.48100
O 	O 	0.24030 0.24030 0.69480 -0.50000
O 	O 	0.44934 0.34420 0.86226 -0.62100
O 	O 	0.68270 0.58230 0.68270 -0.58400
