data_crystal

_cell_length_a 33.35860
_cell_length_b 33.35860
_cell_length_c 67.83900
_cell_angle_alpha 90.00000
_cell_angle_beta  90.00000
_cell_angle_gamma 120.00000

_symmetry_space_group_name_	'P 1'
_symmetry_space_group_name_H-M	'P 1'

loop_
_symmetry_equiv_pos_as_xyz
  x,y,z

loop_
_atom_site_label
_atom_site_type_symbol
_atom_site_fract_x
_atom_site_fract_y
_atom_site_fract_z
_atom_site_charge
Zn	Zn	0.83283 0.66915 0.02259 1.21700
Zn	Zn	0.74215 0.67146 0.53211 1.16900
Zn	Zn	0.74719 0.07895 0.80351 1.18700
Zn	Zn	0.83283 0.16368 0.52259 1.21700
Zn	Zn	0.83789 0.23019 0.55687 1.20600
Zn	Zn	0.82717 0.66893 0.81264 1.21400
Zn	Zn	0.88991 0.17564 0.56277 1.19900
Zn	Zn	0.39506 0.22513 0.77878 1.20800
Zn	Zn	0.92105 0.25281 0.30351 1.18700
Zn	Zn	0.82436 0.11009 0.06277 1.19900
Zn	Zn	0.82436 0.71427 0.56277 1.19900
Zn	Zn	0.92931 0.25785 0.53211 1.16900
Zn	Zn	0.77487 0.16993 0.77878 1.20800
Zn	Zn	0.33176 0.25281 0.80351 1.18700
Zn	Zn	0.83029 0.11709 0.77256 1.20100
Zn	Zn	0.39506 0.16993 0.27878 1.20800
Zn	Zn	0.33085 0.16717 0.52259 1.21700
Zn	Zn	0.39230 0.23019 0.05687 1.20600
Zn	Zn	0.76981 0.16211 0.05687 1.20600
Zn	Zn	0.39230 0.16211 0.55687 1.20600
Zn	Zn	0.84176 0.17283 0.81264 1.21400
Zn	Zn	0.83789 0.60770 0.05687 1.20600
Zn	Zn	0.83007 0.22513 0.27878 1.20800
Zn	Zn	0.77487 0.60494 0.27878 1.20800
Zn	Zn	0.88291 0.16971 0.27256 1.20100
Zn	Zn	0.28573 0.17564 0.06277 1.19900
Zn	Zn	0.32854 0.25785 0.03211 1.16900
Zn	Zn	0.33107 0.17283 0.31264 1.21400
Zn	Zn	0.28680 0.16971 0.77256 1.20100
Zn	Zn	0.83007 0.60494 0.77878 1.20800
Zn	Zn	0.74215 0.07069 0.03211 1.16900
Zn	Zn	0.28680 0.11709 0.27256 1.20100
Zn	Zn	0.76981 0.60770 0.55687 1.20700
Zn	Zn	0.83632 0.16717 0.02259 1.21800
Zn	Zn	0.28573 0.11009 0.56277 1.20000
Zn	Zn	0.92105 0.66824 0.80351 1.18800
Zn	Zn	0.92931 0.67146 0.03211 1.17000
Zn	Zn	0.88991 0.71427 0.06277 1.20000
Zn	Zn	0.84176 0.66893 0.31264 1.21500
Zn	Zn	0.74719 0.66824 0.30351 1.18800
Zn	Zn	0.33176 0.07895 0.30351 1.18800
Zn	Zn	0.33085 0.16368 0.02259 1.21800
Zn	Zn	0.83632 0.66915 0.52259 1.21800
Zn	Zn	0.32854 0.07069 0.53211 1.17000
Zn	Zn	0.88291 0.71320 0.77256 1.20200
Zn	Zn	0.82717 0.15824 0.31264 1.21500
Zn	Zn	0.83029 0.71320 0.27256 1.20200
Zn	Zn	0.33107 0.15824 0.81264 1.21500
H 	H 	0.58240 0.38400 0.55900 0.09300
H 	H 	0.71090 0.05200 0.86360 0.03500
H 	H 	0.62100 0.11900 0.49610 0.05000
H 	H 	0.75470 0.55650 0.18580 0.05000
H 	H 	0.09260 0.15480 0.26080 0.09800
H 	H 	0.82750 0.85030 0.57040 0.06000
H 	H 	0.21020 0.03320 0.82720 0.03800
H 	H 	0.03070 0.79720 0.01770 0.02800
H 	H 	0.55710 0.15390 0.76390 0.09200
H 	H 	0.69530 0.18200 0.55630 0.07100
H 	H 	0.86470 0.95380 0.57080 0.10000
H 	H 	0.44930 0.38450 0.81880 0.03100
H 	H 	0.18410 0.02720 0.06830 0.07100
H 	H 	0.69890 0.03440 0.93730 0.05400
H 	H 	0.02280 0.85030 0.07040 0.06000
H 	H 	0.29130 0.12710 0.62660 0.06200
H 	H 	0.18410 0.15690 0.56830 0.07100
H 	H 	0.81400 0.93170 0.57960 0.09800
H 	H 	0.83900 0.15690 0.87500 0.06100
H 	H 	0.83870 0.68330 0.45970 0.06200
H 	H 	0.68400 0.58660 0.82240 0.03600
H 	H 	0.80200 0.22830 0.22070 0.04400
H 	H 	0.75470 0.19820 0.68580 0.05000
H 	H 	0.82300 0.78980 0.82720 0.03800
H 	H 	0.48670 0.18200 0.05630 0.07100
H 	H 	0.31790 0.15690 0.37500 0.06100
H 	H 	0.33670 0.28830 0.97080 0.04000
H 	H 	0.82630 0.71570 0.66920 0.10100
H 	H 	0.54870 0.15030 0.06900 0.09100
H 	H 	0.81400 0.88230 0.07960 0.09800
H 	H 	0.56570 0.46880 0.49660 0.05300
H 	H 	0.84610 0.44290 0.26390 0.09200
H 	H 	0.93520 0.38450 0.31880 0.03100
H 	H 	0.79060 0.91530 0.26010 0.10100
H 	H 	0.88940 0.71570 0.16920 0.10100
H 	H 	0.59680 0.15390 0.26390 0.09200
H 	H 	0.41340 0.31600 0.32240 0.03600
H 	H 	0.49780 0.18720 0.78150 0.04500
H 	H 	0.96560 0.66450 0.93730 0.05400
H 	H 	0.83580 0.12710 0.12660 0.06200
H 	H 	0.61550 0.55070 0.31880 0.03100
H 	H 	0.97770 0.21270 0.01430 0.04900
H 	H 	0.44060 0.30610 0.50020 0.04000
H 	H 	0.21020 0.17700 0.32720 0.03800
H 	H 	0.64310 0.48410 0.27620 0.06000
H 	H 	0.09260 0.93780 0.76080 0.09800
H 	H 	0.81070 0.87860 0.33080 0.05500
H 	H 	0.84610 0.40320 0.76390 0.09200
H 	H 	0.76530 0.20770 0.64760 0.05200
H 	H 	0.05370 0.23230 0.01070 0.05400
H 	H 	0.02930 0.83840 0.76430 0.06400
H 	H 	0.43020 0.22590 0.11560 0.04300
H 	H 	0.46190 0.37700 0.00770 0.04000
H 	H 	0.34070 0.03820 0.39710 0.05800
H 	H 	0.69750 0.65930 0.39710 0.05800
H 	H 	0.80160 0.38400 0.05900 0.09300
H 	H 	0.34010 0.18540 0.41850 0.08600
H 	H 	0.84850 0.71430 0.91780 0.08800
H 	H 	0.80920 0.95980 0.33220 0.05300
H 	H 	0.86580 0.15150 0.91780 0.08800
H 	H 	0.63970 0.15240 0.05920 0.06700
H 	H 	0.63970 0.48730 0.55920 0.06700
H 	H 	0.84850 0.13420 0.41780 0.08800
H 	H 	0.83900 0.68210 0.37500 0.06100
H 	H 	0.84820 0.12300 0.66510 0.09900
H 	H 	0.80910 0.83840 0.26430 0.06400
H 	H 	0.08910 0.95380 0.07080 0.10000
H 	H 	0.81800 0.30470 0.05630 0.07100
H 	H 	0.43020 0.20430 0.61560 0.04300
H 	H 	0.68940 0.18720 0.28150 0.04500
H 	H 	0.64310 0.15900 0.77620 0.06000
H 	H 	0.44240 0.23470 0.64760 0.05200
H 	H 	0.76170 0.89920 0.01210 0.06700
H 	H 	0.13750 0.23830 0.01210 0.06700
H 	H 	0.15060 0.95980 0.83220 0.05300
H 	H 	0.84670 0.13780 0.70940 0.07000
H 	H 	0.71170 0.04840 0.97080 0.04000
H 	H 	0.44060 0.13450 0.00020 0.04000
H 	H 	0.81280 0.31060 0.78150 0.04500
H 	H 	0.87290 0.70870 0.12660 0.06200
H 	H 	0.78730 0.76500 0.01430 0.04900
H 	H 	0.16160 0.97070 0.26430 0.06400
H 	H 	0.84820 0.72520 0.16510 0.09900
H 	H 	0.77170 0.57370 0.22070 0.04400
H 	H 	0.79230 0.23470 0.14760 0.05200
H 	H 	0.54260 0.48640 0.32290 0.05400
H 	H 	0.96180 0.30250 0.39710 0.05800
H 	H 	0.68400 0.09740 0.32240 0.03600
H 	H 	0.84460 0.68330 0.95970 0.06200
H 	H 	0.80920 0.84940 0.83220 0.05300
H 	H 	0.97770 0.76500 0.51430 0.04900
H 	H 	0.82630 0.11060 0.16920 0.10100
H 	H 	0.96680 0.17700 0.82720 0.03800
H 	H 	0.12470 0.20940 0.26010 0.10100
H 	H 	0.76170 0.86250 0.51210 0.06700
H 	H 	0.80160 0.41760 0.55900 0.09300
H 	H 	0.42630 0.22830 0.72070 0.04400
H 	H 	0.12470 0.91530 0.76010 0.10100
H 	H 	0.34070 0.30250 0.89710 0.05800
H 	H 	0.08910 0.13530 0.57080 0.10000
H 	H 	0.55710 0.40320 0.26390 0.09200
H 	H 	0.06790 0.18930 0.33080 0.05500
H 	H 	0.51360 0.45740 0.82290 0.05400
H 	H 	0.10080 0.86250 0.01210 0.06700
H 	H 	0.02280 0.17250 0.57040 0.06000
H 	H 	0.86580 0.71430 0.41780 0.08800
H 	H 	0.11770 0.18600 0.57960 0.09800
H 	H 	0.83190 0.01800 0.26800 0.05800
H 	H 	0.06220 0.15480 0.76080 0.09800
H 	H 	0.91510 0.53810 0.00770 0.04000
H 	H 	0.20280 0.96930 0.51770 0.02800
H 	H 	0.28570 0.13420 0.91780 0.08800
H 	H 	0.88940 0.17370 0.66920 0.10100
H 	H 	0.84760 0.48730 0.05920 0.06700
H 	H 	0.44930 0.06480 0.31880 0.03100
H 	H 	0.08470 0.20940 0.76010 0.10100
H 	H 	0.48670 0.30470 0.55630 0.07100
H 	H 	0.94380 0.48640 0.82290 0.05400
H 	H 	0.76530 0.55760 0.14760 0.05200
H 	H 	0.58790 0.19560 0.77860 0.09200
H 	H 	0.08470 0.87530 0.26010 0.10100
H 	H 	0.51590 0.15900 0.27620 0.06000
H 	H 	0.19080 0.20110 0.82270 0.03500
H 	H 	0.88100 0.37900 0.99610 0.05000
H 	H 	0.79890 0.80920 0.32270 0.03500
H 	H 	0.71170 0.66330 0.47080 0.04000
H 	H 	0.76650 0.96930 0.01770 0.02800
H 	H 	0.96680 0.78980 0.32720 0.03800
H 	H 	0.82750 0.97720 0.07040 0.06000
H 	H 	0.98200 0.81390 0.26800 0.05800
H 	H 	0.46310 0.39520 0.32570 0.05600
H 	H 	0.12140 0.93210 0.33080 0.05500
H 	H 	0.96560 0.30110 0.43730 0.05400
H 	H 	0.53120 0.09690 0.49660 0.05300
H 	H 	0.13750 0.89920 0.51210 0.06700
H 	H 	0.44240 0.20770 0.14760 0.05200
H 	H 	0.76650 0.79720 0.51770 0.02800
H 	H 	0.78730 0.02230 0.51430 0.04900
H 	H 	0.20280 0.23350 0.01770 0.02800
H 	H 	0.49780 0.31060 0.28150 0.04500
H 	H 	0.84310 0.02720 0.56830 0.07100
H 	H 	0.33670 0.04840 0.47080 0.04000
H 	H 	0.29110 0.15330 0.70940 0.07000
H 	H 	0.79890 0.98970 0.82270 0.03500
H 	H 	0.42630 0.19800 0.22070 0.04400
H 	H 	0.93210 0.39520 0.82570 0.05600
H 	H 	0.58790 0.39230 0.27860 0.09200
H 	H 	0.90260 0.58660 0.32240 0.03600
H 	H 	0.14970 0.17250 0.07040 0.06000
H 	H 	0.84970 0.45130 0.56900 0.09100
H 	H 	0.04620 0.13530 0.07080 0.10000
H 	H 	0.62300 0.53810 0.50770 0.04000
H 	H 	0.82300 0.03320 0.32720 0.03800
H 	H 	0.84530 0.65990 0.41850 0.08600
H 	H 	0.69390 0.13450 0.50020 0.04000
H 	H 	0.91510 0.37700 0.50770 0.04000
H 	H 	0.69390 0.55940 0.00020 0.04000
H 	H 	0.77410 0.20430 0.11560 0.04300
H 	H 	0.11770 0.93170 0.07960 0.09800
H 	H 	0.51270 0.15240 0.55920 0.06700
H 	H 	0.76770 0.94630 0.51070 0.05400
H 	H 	0.98200 0.16810 0.76800 0.05800
H 	H 	0.90260 0.31600 0.82240 0.03600
H 	H 	0.84760 0.36030 0.55920 0.06700
H 	H 	0.34010 0.15470 0.91850 0.08600
H 	H 	0.80180 0.55650 0.68580 0.05000
H 	H 	0.31670 0.16130 0.95970 0.06200
H 	H 	0.60480 0.06790 0.32570 0.05600
H 	H 	0.80910 0.97070 0.76430 0.06400
H 	H 	0.06830 0.18600 0.07960 0.09800
H 	H 	0.79570 0.56980 0.11560 0.04300
H 	H 	0.86550 0.30610 0.00020 0.04000
H 	H 	0.84100 0.48410 0.77620 0.06000
H 	H 	0.81280 0.50220 0.28150 0.04500
H 	H 	0.14970 0.97720 0.57040 0.06000
H 	H 	0.18610 0.16810 0.26800 0.05800
H 	H 	0.62100 0.50200 0.99610 0.05000
H 	H 	0.86220 0.70890 0.70940 0.07000
H 	H 	0.61600 0.19840 0.55900 0.09300
H 	H 	0.23500 0.21270 0.51430 0.04900
H 	H 	0.33550 0.30110 0.93730 0.05500
H 	H 	0.76770 0.82140 0.01070 0.05400
H 	H 	0.49800 0.11900 0.99610 0.05000
H 	H 	0.51360 0.05620 0.32290 0.05400
H 	H 	0.87700 0.15180 0.16510 0.09900
H 	H 	0.95160 0.66330 0.97080 0.04000
H 	H 	0.18610 0.01800 0.76800 0.05800
H 	H 	0.04620 0.91090 0.57080 0.10000
H 	H 	0.51590 0.35690 0.77620 0.06000
H 	H 	0.86470 0.91090 0.07080 0.10000
H 	H 	0.06220 0.90740 0.26080 0.09800
H 	H 	0.80440 0.41210 0.27860 0.09200
H 	H 	0.31790 0.16100 0.87500 0.06100
H 	H 	0.60160 0.15030 0.56900 0.09100
H 	H 	0.69750 0.03820 0.89710 0.05800
H 	H 	0.23500 0.02230 0.01430 0.04900
H 	H 	0.46310 0.06790 0.82570 0.05600
H 	H 	0.69890 0.66450 0.43730 0.05500
H 	H 	0.71090 0.65890 0.36360 0.03500
H 	H 	0.77170 0.19800 0.72070 0.04400
H 	H 	0.68940 0.50220 0.78150 0.04500
H 	H 	0.83580 0.70870 0.62660 0.06200
H 	H 	0.29130 0.16420 0.12660 0.06200
H 	H 	0.06790 0.87860 0.83080 0.05500
H 	H 	0.61550 0.06480 0.81880 0.03100
H 	H 	0.83870 0.15540 0.95970 0.06200
H 	H 	0.83190 0.81390 0.76800 0.05800
H 	H 	0.49800 0.37900 0.49610 0.05000
H 	H 	0.80440 0.39230 0.77860 0.09200
H 	H 	0.04020 0.19080 0.83220 0.05300
H 	H 	0.88100 0.50200 0.49610 0.05000
H 	H 	0.28570 0.15150 0.41780 0.08800
H 	H 	0.51270 0.36030 0.05920 0.06700
H 	H 	0.79060 0.87530 0.76010 0.10100
H 	H 	0.84670 0.70890 0.20940 0.07000
H 	H 	0.84970 0.39840 0.06900 0.09100
H 	H 	0.56570 0.09690 0.99660 0.05300
H 	H 	0.84520 0.93780 0.26080 0.09800
H 	H 	0.60160 0.45130 0.06900 0.09100
H 	H 	0.28430 0.17370 0.16920 0.10100
H 	H 	0.94800 0.65890 0.86360 0.03500
H 	H 	0.60770 0.19560 0.27860 0.09200
H 	H 	0.81070 0.93210 0.83080 0.05500
H 	H 	0.27480 0.15180 0.66510 0.09900
H 	H 	0.79570 0.22590 0.61560 0.04300
H 	H 	0.19080 0.98970 0.32270 0.03500
H 	H 	0.90310 0.46880 0.99660 0.05300
H 	H 	0.94380 0.45740 0.32290 0.05400
H 	H 	0.17860 0.23230 0.51070 0.05400
H 	H 	0.60480 0.53690 0.82570 0.05600
H 	H 	0.05370 0.82140 0.51070 0.05400
H 	H 	0.10080 0.23830 0.51210 0.06700
H 	H 	0.86220 0.15330 0.20940 0.07000
H 	H 	0.04020 0.84940 0.33220 0.05300
H 	H 	0.53120 0.43430 0.99660 0.05300
H 	H 	0.15060 0.19080 0.33220 0.05300
H 	H 	0.94800 0.28910 0.36360 0.03500
H 	H 	0.01030 0.20110 0.32270 0.03500
H 	H 	0.28430 0.11060 0.66920 0.10100
H 	H 	0.17860 0.94630 0.01070 0.05400
H 	H 	0.81460 0.65990 0.91850 0.08600
H 	H 	0.84310 0.81590 0.06830 0.07100
H 	H 	0.87700 0.72520 0.66510 0.09900
H 	H 	0.31670 0.15540 0.45970 0.06200
H 	H 	0.81800 0.51330 0.55630 0.07100
H 	H 	0.60770 0.41210 0.77860 0.09200
H 	H 	0.95160 0.28830 0.47080 0.04000
H 	H 	0.29110 0.13780 0.20940 0.07000
H 	H 	0.54260 0.05620 0.82290 0.05400
H 	H 	0.44350 0.19820 0.18580 0.05000
H 	H 	0.34110 0.05200 0.36360 0.03500
H 	H 	0.80200 0.57370 0.72070 0.04400
H 	H 	0.58240 0.19840 0.05900 0.09300
H 	H 	0.87290 0.16420 0.62660 0.06200
H 	H 	0.80180 0.24530 0.18580 0.05000
H 	H 	0.06830 0.88230 0.57960 0.09800
H 	H 	0.97280 0.15690 0.06830 0.07100
H 	H 	0.84460 0.16130 0.45970 0.06200
H 	H 	0.84520 0.90740 0.76080 0.09800
H 	H 	0.03070 0.23350 0.51770 0.02800
H 	H 	0.62300 0.08490 0.00770 0.04000
H 	H 	0.79230 0.55760 0.64760 0.05200
H 	H 	0.81460 0.15470 0.41850 0.08600
H 	H 	0.02930 0.19090 0.26430 0.06400
H 	H 	0.93210 0.53690 0.32570 0.05600
H 	H 	0.96180 0.65930 0.89710 0.05800
H 	H 	0.97280 0.81590 0.56830 0.07100
H 	H 	0.33550 0.03440 0.43730 0.05400
H 	H 	0.84310 0.16100 0.37500 0.06100
H 	H 	0.61600 0.41760 0.05900 0.09300
H 	H 	0.84100 0.35690 0.27620 0.06000
H 	H 	0.27480 0.12300 0.16510 0.09900
H 	H 	0.69530 0.51330 0.05630 0.07100
H 	H 	0.34110 0.28910 0.86360 0.03500
H 	H 	0.12140 0.18930 0.83080 0.05500
H 	H 	0.84530 0.18540 0.91850 0.08600
H 	H 	0.44350 0.24530 0.68580 0.05000
H 	H 	0.41340 0.09740 0.82240 0.03600
H 	H 	0.16160 0.19090 0.76430 0.06400
H 	H 	0.54870 0.39840 0.56900 0.09100
H 	H 	0.86550 0.55940 0.50020 0.04000
H 	H 	0.59680 0.44290 0.76390 0.09200
H 	H 	0.93520 0.55070 0.81880 0.03100
H 	H 	0.90310 0.43430 0.49660 0.05300
H 	H 	0.84310 0.68210 0.87500 0.06100
H 	H 	0.01030 0.80920 0.82270 0.03500
H 	H 	0.46190 0.08490 0.50770 0.04000
H 	H 	0.77410 0.56980 0.61560 0.04300
C 	C 	0.73910 0.15180 0.30190 0.38900
C 	C 	0.04240 0.22100 0.52680 0.01400
C 	C 	0.66920 0.55970 0.81490 0.01000
C 	C 	0.56270 0.48590 0.31360 -0.07300
C 	C 	0.84080 0.17300 0.64998 0.06100
C 	C 	0.84500 0.70130 0.66713 -0.23200
C 	C 	0.89050 0.55970 0.31490 0.01000
C 	C 	0.92320 0.48590 0.81360 -0.07300
C 	C 	0.92320 0.43730 0.31360 -0.07300
C 	C 	0.07630 0.88840 0.78313 0.05800
C 	C 	0.10080 0.20380 0.03650 0.01000
C 	C 	0.05640 0.18590 0.80304 -0.00500
C 	C 	0.52070 0.15880 0.04180 0.06300
C 	C 	0.18190 0.16980 0.55652 -0.07900
C 	C 	0.51410 0.43730 0.81360 -0.07300
C 	C 	0.32900 0.21270 0.84447 0.39500
C 	C 	0.25600 0.08580 0.04210 0.36800
C 	C 	0.79540 0.78730 0.02400 -0.02100
C 	C 	0.81070 0.13110 0.95519 -0.05300
C 	C 	0.49430 0.36420 0.50810 -0.06500
C 	C 	0.23040 0.02840 0.28892 0.39300
C 	C 	0.81930 0.03450 0.54160 -0.04900
C 	C 	0.72690 0.05860 0.94175 -0.06900
C 	C 	0.82290 0.57690 0.53110 0.34200
C 	C 	0.88370 0.21270 0.34447 0.39500
C 	C 	0.06170 0.19180 0.31759 -0.08200
C 	C 	0.80610 0.18230 0.67839 -0.01000
C 	C 	0.01390 0.81500 0.79250 -0.09500
C 	C 	0.41270 0.15180 0.80190 0.38900
C 	C 	0.85480 0.54930 0.30163 -0.12300
C 	C 	0.14510 0.17880 0.55340 0.07600
C 	C 	0.98490 0.80590 0.31642 0.00700
C 	C 	0.83240 0.75300 0.79458 0.37200
C 	C 	0.56100 0.39510 0.55650 -0.21400
C 	C 	0.84820 0.58730 0.30190 0.38900
C 	C 	0.62500 0.47940 0.79230 0.02800
C 	C 	0.81580 0.89350 0.55403 0.04500
C 	C 	0.32910 0.08920 0.40616 0.00500
C 	C 	0.33640 0.07030 0.37260 0.01100
C 	C 	0.81660 0.85370 0.55830 -0.05300
C 	C 	0.42310 0.24600 0.53110 0.34200
C 	C 	0.80770 0.96210 0.77743 -0.05600
C 	C 	0.41350 0.20290 0.14380 -0.07000
C 	C 	0.91800 0.39360 0.31110 0.00600
C 	C 	0.03790 0.84560 0.77743 -0.05600
C 	C 	0.15440 0.19230 0.77743 -0.05600
C 	C 	0.12950 0.94360 0.80304 -0.00500
C 	C 	0.46180 0.32130 0.51030 -0.01300
C 	C 	0.80240 0.82970 0.31268 0.01100
C 	C 	0.81070 0.91070 0.80246 -0.00500
C 	C 	0.51020 0.10990 0.80560 0.00800
C 	C 	0.70350 0.16200 0.52910 -0.05900
C 	C 	0.80990 0.18830 0.65709 -0.00300
C 	C 	0.82900 0.15960 0.68442 0.06200
C 	C 	0.77900 0.95760 0.02680 0.01400
C 	C 	0.05550 0.85640 0.53613 -0.01800
C 	C 	0.61380 0.10160 0.01560 -0.01000
C 	C 	0.22480 0.19730 0.04810 0.39100
C 	C 	0.77660 0.86080 0.52340 -0.08400
C 	C 	0.41270 0.26090 0.30190 0.38900
C 	C 	0.84700 0.65220 0.73982 0.38800
C 	C 	0.48910 0.16950 0.04440 -0.08100
C 	C 	0.83050 0.31960 0.04440 -0.08100
C 	C 	0.51550 0.37710 0.78560 -0.06100
C 	C 	0.67870 0.14050 0.51030 -0.01300
C 	C 	0.83680 0.64260 0.11714 -0.08300
C 	C 	0.13010 0.19180 0.81759 -0.08200
C 	C 	0.85630 0.70130 0.16713 -0.23200
C 	C 	0.83720 0.43450 0.27760 -0.21500
C 	C 	0.68080 0.11350 0.03800 0.33400
C 	C 	0.89010 0.48980 0.30560 0.00800
C 	C 	0.81070 0.67960 0.45519 -0.05300
C 	C 	0.41440 0.19040 0.19060 -0.06500
C 	C 	0.80200 0.15280 0.09588 0.38400
C 	C 	0.10300 0.20380 0.53650 0.01000
C 	C 	0.80580 0.64260 0.61714 -0.08300
C 	C 	0.91350 0.23880 0.42836 -0.00300
C 	C 	0.80310 0.12280 0.93508 0.04600
C 	C 	0.94140 0.66830 0.94175 -0.06900
C 	C 	0.45850 0.29650 0.52910 -0.05900
C 	C 	0.80960 0.58560 0.69060 -0.06500
C 	C 	0.91080 0.67090 0.90616 0.00500
C 	C 	0.89110 0.21650 0.49025 0.36600
C 	C 	0.89840 0.51220 0.01560 -0.01000
C 	C 	0.84720 0.19800 0.59588 0.38400
C 	C 	0.97160 0.20200 0.28892 0.39300
C 	C 	0.82700 0.15920 0.14998 0.06100
C 	C 	0.48780 0.38620 0.01560 -0.01000
C 	C 	0.89400 0.42110 0.50910 -0.07100
C 	C 	0.80250 0.67770 0.39954 0.03500
C 	C 	0.57890 0.47290 0.50910 -0.07100
C 	C 	0.63580 0.50570 0.00810 -0.06500
C 	C 	0.32040 0.13110 0.45519 -0.05300
C 	C 	0.81770 0.19390 0.17839 -0.01000
C 	C 	0.88650 0.56730 0.03800 0.33400
C 	C 	0.14300 0.17960 0.28416 0.05300
C 	C 	0.85350 0.67830 0.13054 -0.06300
C 	C 	0.96670 0.17490 0.79689 -0.09500
C 	C 	0.41440 0.22400 0.69060 -0.06500
C 	C 	0.29870 0.14370 0.66713 -0.23200
C 	C 	0.05550 0.19910 0.03613 -0.01800
C 	C 	0.21520 0.18070 0.54160 -0.04900
C 	C 	0.79800 0.76960 0.28892 0.39300
C 	C 	0.67240 0.50910 0.79040 -0.01800
C 	C 	0.77600 0.19040 0.69060 -0.06500
C 	C 	0.84670 0.16230 0.41797 -0.20000
C 	C 	0.94140 0.27310 0.44175 -0.06900
C 	C 	0.80770 0.84560 0.27743 -0.05600
C 	C 	0.68360 0.56350 0.29450 0.37700
C 	C 	0.51020 0.40030 0.30560 0.00800
C 	C 	0.46180 0.14050 0.01030 -0.01300
C 	C 	0.52710 0.42110 0.00910 -0.07100
C 	C 	0.83020 0.01210 0.55652 -0.07900
C 	C 	0.24700 0.07940 0.79458 0.37200
C 	C 	0.72690 0.66830 0.44175 -0.06900
C 	C 	0.97250 0.77520 0.04810 0.39100
C 	C 	0.69450 0.54930 0.80163 -0.12300
C 	C 	0.80510 0.21050 0.62420 -0.00800
C 	C 	0.73910 0.58730 0.80190 0.38900
C 	C 	0.35740 0.19420 0.11714 -0.08300
C 	C 	0.35080 0.19800 0.09588 0.38400
C 	C 	0.78470 0.82110 0.02148 -0.04800
C 	C 	0.84820 0.26090 0.80190 0.38900
C 	C 	0.32230 0.19750 0.89954 0.03500
C 	C 	0.13920 0.91580 0.52340 -0.08400
C 	C 	0.25600 0.17020 0.54210 0.36800
C 	C 	0.52350 0.38780 0.52370 -0.00700
C 	C 	0.07770 0.18420 0.55403 0.04500
C 	C 	0.81480 0.21760 0.21136 -0.01600
C 	C 	0.90820 0.37820 0.81680 -0.08000
C 	C 	0.17860 0.95760 0.52680 0.01400
C 	C 	0.63650 0.11270 0.79710 -0.09700
C 	C 	0.48100 0.12050 0.53400 -0.06500
C 	C 	0.79710 0.58650 0.64380 -0.07000
C 	C 	0.67870 0.53820 0.01030 -0.01300
C 	C 	0.72580 0.06190 0.89269 -0.08100
C 	C 	0.62290 0.13840 0.78560 -0.06100
C 	C 	0.88730 0.52380 0.79710 -0.09700
C 	C 	0.78350 0.10890 0.99025 0.36600
C 	C 	0.81410 0.97170 0.31947 -0.07500
C 	C 	0.19410 0.01510 0.81642 0.00700
C 	C 	0.84670 0.68440 0.91797 -0.20000
C 	C 	0.68040 0.51090 0.04440 -0.08100
C 	C 	0.31970 0.19690 0.93508 0.04600
C 	C 	0.51680 0.37660 0.04760 -0.07300
C 	C 	0.78730 0.67100 0.34447 0.39500
C 	C 	0.43270 0.11350 0.53800 0.33400
C 	C 	0.14630 0.96290 0.55830 -0.05300
C 	C 	0.73390 0.07030 0.87260 0.01100
C 	C 	0.22480 0.02750 0.54810 0.39100
C 	C 	0.11160 0.18790 0.78313 0.05800
C 	C 	0.82480 0.14650 0.13054 -0.06300
C 	C 	0.80520 0.15300 0.73982 0.38800
C 	C 	0.44030 0.33080 0.31490 0.01000
C 	C 	0.18500 0.98610 0.29250 -0.09500
C 	C 	0.75400 0.17710 0.53110 0.34200
C 	C 	0.48910 0.31960 0.54440 -0.08100
C 	C 	0.32960 0.22370 0.86598 -0.08600
C 	C 	0.01740 0.81790 0.04413 -0.09800
C 	C 	0.62180 0.09180 0.31680 -0.08000
C 	C 	0.56410 0.12680 0.02380 -0.00000
C 	C 	0.55340 0.10250 0.30210 -0.01300
C 	C 	0.56550 0.16280 0.77760 -0.21500
C 	C 	0.41350 0.21060 0.64380 -0.07000
C 	C 	0.32960 0.10590 0.36598 -0.08600
C 	C 	0.17030 0.19760 0.81268 0.01100
C 	C 	0.45070 0.30550 0.30163 -0.12300
C 	C 	0.83800 0.29650 0.02910 -0.05900
C 	C 	0.84500 0.14370 0.16713 -0.23200
C 	C 	0.84040 0.17100 0.18442 0.06200
C 	C 	0.10300 0.89920 0.03650 0.01000
C 	C 	0.80520 0.65220 0.23982 0.38800
C 	C 	0.69450 0.14520 0.30163 -0.12300
C 	C 	0.80450 0.64400 0.21748 -0.07200
C 	C 	0.52060 0.37500 0.29230 0.02800
C 	C 	0.40540 0.21050 0.12420 -0.00800
C 	C 	0.32250 0.13310 0.37945 -0.04800
C 	C 	0.08420 0.22340 0.52340 -0.08400
C 	C 	0.96550 0.18070 0.04160 -0.04900
C 	C 	0.10080 0.89700 0.53650 0.01000
C 	C 	0.81660 0.96290 0.05830 -0.05300
C 	C 	0.86690 0.18940 0.37945 -0.04800
C 	C 	0.92970 0.26610 0.37260 0.01100
C 	C 	0.34780 0.15300 0.23982 0.38800
C 	C 	0.45070 0.14520 0.80163 -0.12300
C 	C 	0.83670 0.32760 0.79040 -0.01800
C 	C 	0.73460 0.06700 0.96186 -0.00000
C 	C 	0.89670 0.67320 0.96858 -0.07700
C 	C 	0.56270 0.43590 0.02380 -0.00000
C 	C 	0.60490 0.43900 0.05650 -0.21400
C 	C 	0.85350 0.17520 0.63054 -0.06300
C 	C 	0.83670 0.50910 0.29040 -0.01800
C 	C 	0.97250 0.19730 0.54810 0.39100
C 	C 	0.03660 0.85700 0.28416 0.05300
C 	C 	0.86690 0.67750 0.87945 -0.04800
C 	C 	0.06130 0.16800 0.06760 -0.22900
C 	C 	0.52070 0.36190 0.54180 0.06300
C 	C 	0.07770 0.89350 0.05403 0.04500
C 	C 	0.89410 0.67040 0.86598 -0.08600
C 	C 	0.37840 0.19010 0.65709 -0.00300
C 	C 	0.82100 0.01510 0.31642 0.00700
C 	C 	0.85630 0.15500 0.66713 -0.23200
C 	C 	0.67240 0.16330 0.29040 -0.01800
C 	C 	0.62290 0.48450 0.28560 -0.06100
C 	C 	0.86990 0.50570 0.50810 -0.06500
C 	C 	0.84940 0.17070 0.20474 -0.06800
C 	C 	0.77900 0.82140 0.52680 0.01400
C 	C 	0.86680 0.44610 0.78810 0.06500
C 	C 	0.49090 0.16330 0.79040 -0.01800
C 	C 	0.55390 0.42070 0.78810 0.06500
C 	C 	0.86430 0.47650 0.52370 -0.00700
C 	C 	0.80110 0.81500 0.29250 -0.09400
C 	C 	0.51680 0.14020 0.54760 -0.07300
C 	C 	0.63950 0.12050 0.03400 -0.06500
C 	C 	0.10880 0.92610 0.76871 -0.22200
C 	C 	0.78730 0.11630 0.84447 0.39500
C 	C 	0.82980 0.08580 0.54210 0.36800
C 	C 	0.82660 0.82040 0.78073 -0.05400
C 	C 	0.33170 0.05860 0.44175 -0.06900
C 	C 	0.78950 0.59460 0.62420 -0.00800
C 	C 	0.85800 0.41450 0.54420 0.05000
C 	C 	0.17960 0.00620 0.78073 -0.05400
C 	C 	0.80270 0.02750 0.04810 0.39100
C 	C 	0.83770 0.15330 0.91797 -0.20000
C 	C 	0.82120 0.85490 0.05340 0.07600
C 	C 	0.68360 0.12010 0.79450 0.37700
C 	C 	0.56100 0.16590 0.05650 -0.21400
C 	C 	0.80510 0.59460 0.12420 -0.00800
C 	C 	0.87720 0.68030 0.93508 0.04600
C 	C 	0.81070 0.90000 0.30246 -0.00500
C 	C 	0.31560 0.16230 0.91797 -0.20000
C 	C 	0.93810 0.66390 0.89269 -0.08100
C 	C 	0.90820 0.53000 0.31680 -0.08000
C 	C 	0.82040 0.85700 0.78416 0.05300
C 	C 	0.59730 0.16280 0.27760 -0.21500
C 	C 	0.61220 0.13570 0.52370 -0.00700
C 	C 	0.87950 0.51900 0.03400 -0.06500
C 	C 	0.03660 0.17960 0.78416 0.05300
C 	C 	0.87990 0.56350 0.79450 0.37700
C 	C 	0.81170 0.19010 0.15709 -0.00300
C 	C 	0.12950 0.18590 0.30304 -0.00500
C 	C 	0.78470 0.96360 0.52148 -0.04800
C 	C 	0.02830 0.18590 0.81947 -0.07500
C 	C 	0.97160 0.76960 0.78892 0.39300
C 	C 	0.42310 0.17710 0.03110 0.34200
C 	C 	0.73460 0.66760 0.46186 -0.00000
C 	C 	0.75400 0.57690 0.03110 0.34200
C 	C 	0.82510 0.79180 0.79689 -0.09500
C 	C 	0.10650 0.92230 0.55403 0.04500
C 	C 	0.83950 0.64400 0.71748 -0.07200
C 	C 	0.03370 0.85490 0.55340 0.07500
C 	C 	0.08930 0.18930 0.30246 -0.00500
C 	C 	0.73390 0.66360 0.37260 0.01100
C 	C 	0.76120 0.67470 0.42836 -0.00300
C 	C 	0.59970 0.48980 0.80560 0.00800
C 	C 	0.78940 0.58650 0.14380 -0.07000
C 	C 	0.89110 0.67460 0.99025 0.36600
C 	C 	0.84700 0.19480 0.23982 0.38800
C 	C 	0.76010 0.67090 0.40616 0.00500
C 	C 	0.87320 0.43730 0.02380 -0.00000
C 	C 	0.49430 0.13010 0.00810 -0.06500
C 	C 	0.33220 0.15920 0.64998 0.06100
C 	C 	0.80610 0.62380 0.17839 -0.01000
C 	C 	0.89750 0.45090 0.30210 -0.01300
C 	C 	0.93810 0.27420 0.39269 -0.08100
C 	C 	0.57930 0.44610 0.28810 0.06500
C 	C 	0.60640 0.08200 0.81110 0.00600
C 	C 	0.31560 0.15330 0.41797 -0.20000
C 	C 	0.47620 0.36350 0.79710 -0.09700
C 	C 	0.81580 0.92230 0.05403 0.04500
C 	C 	0.06170 0.86990 0.81759 -0.08200
C 	C 	0.56270 0.07680 0.81360 -0.07300
C 	C 	0.77650 0.10330 0.96858 -0.07700
C 	C 	0.14300 0.96340 0.78416 0.05300
C 	C 	0.35600 0.19550 0.71748 -0.07200
C 	C 	0.33060 0.17100 0.68442 0.06200
C 	C 	0.11160 0.92370 0.28313 0.05800
C 	C 	0.63810 0.15880 0.54180 0.06300
C 	C 	0.76120 0.08650 0.92836 -0.00300
C 	C 	0.18210 0.98260 0.54413 -0.09800
C 	C 	0.61220 0.47650 0.02370 -0.00700
C 	C 	0.87320 0.43590 0.52380 -0.00000
C 	C 	0.91800 0.52440 0.81110 0.00600
C 	C 	0.56410 0.43730 0.52380 -0.00000
C 	C 	0.87720 0.19690 0.43508 0.04600
C 	C 	0.80250 0.12480 0.89954 0.03500
C 	C 	0.81170 0.62160 0.65709 -0.00300
C 	C 	0.51550 0.13840 0.28560 -0.06100
C 	C 	0.82980 0.74400 0.04210 0.36800
C 	C 	0.66920 0.10950 0.31490 0.01000
C 	C 	0.47000 0.37820 0.31680 -0.08000
C 	C 	0.07390 0.18270 0.76871 -0.22200
C 	C 	0.77650 0.67320 0.46858 -0.07700
C 	C 	0.77660 0.91580 0.02340 -0.08400
C 	C 	0.89410 0.22370 0.36598 -0.08600
C 	C 	0.55650 0.14200 0.54420 0.05000
C 	C 	0.14510 0.96630 0.05340 0.07500
C 	C 	0.33060 0.15960 0.18442 0.06200
C 	C 	0.29870 0.15500 0.16713 -0.23200
C 	C 	0.13920 0.22340 0.02340 -0.08400
C 	C 	0.83950 0.19550 0.21748 -0.07200
C 	C 	0.81730 0.89120 0.76871 -0.22200
C 	C 	0.32250 0.18940 0.87945 -0.04800
C 	C 	0.80450 0.16050 0.71748 -0.07200
C 	C 	0.72580 0.66390 0.39269 -0.08100
C 	C 	0.18190 0.01210 0.05652 -0.07800
C 	C 	0.02730 0.19760 0.31268 0.01100
C 	C 	0.32680 0.10330 0.46858 -0.07700
C 	C 	0.37840 0.18830 0.15709 -0.00300
C 	C 	0.80090 0.85640 0.03613 -0.01800
C 	C 	0.86430 0.38780 0.02370 -0.00700
C 	C 	0.96670 0.79180 0.29689 -0.09500
C 	C 	0.14360 0.94450 0.03613 -0.01800
C 	C 	0.56270 0.12680 0.52380 -0.00000
C 	C 	0.10000 0.18930 0.80246 -0.00500
C 	C 	0.84120 0.47930 0.54180 0.06300
C 	C 	0.37620 0.19390 0.67839 -0.01000
C 	C 	0.81210 0.88840 0.28313 0.05800
C 	C 	0.77630 0.10590 0.86598 -0.08600
C 	C 	0.62340 0.48320 0.54760 -0.07300
C 	C 	0.85950 0.32130 0.01030 -0.01300
C 	C 	0.77600 0.58560 0.19060 -0.06500
C 	C 	0.08930 0.90000 0.80246 -0.00500
C 	C 	0.31970 0.12280 0.43508 0.04600
C 	C 	0.85950 0.53820 0.51030 -0.01300
C 	C 	0.83800 0.54150 0.52910 -0.05900
C 	C 	0.81060 0.67750 0.37945 -0.04800
C 	C 	0.44030 0.10950 0.81490 0.01000
C 	C 	0.82900 0.66940 0.18442 0.06200
C 	C 	0.43270 0.31920 0.03800 0.33400
C 	C 	0.91080 0.23990 0.40616 0.00500
C 	C 	0.60490 0.16590 0.55650 -0.21400
C 	C 	0.79540 0.00810 0.52400 -0.02100
C 	C 	0.32130 0.15060 0.20474 -0.06800
C 	C 	0.83240 0.07940 0.29458 0.37200
C 	C 	0.51410 0.07680 0.31360 -0.07300
C 	C 	0.99380 0.17340 0.78073 -0.05400
C 	C 	0.03790 0.19230 0.27743 -0.05600
C 	C 	0.61380 0.51220 0.51560 -0.01000
C 	C 	0.80960 0.22400 0.19060 -0.06500
C 	C 	0.23040 0.20200 0.78892 0.39300
C 	C 	0.57890 0.10600 0.00910 -0.07100
C 	C 	0.70350 0.54150 0.02910 -0.05900
C 	C 	0.88650 0.31920 0.53800 0.33400
C 	C 	0.37620 0.18230 0.17839 -0.01000
C 	C 	0.98490 0.17900 0.81642 0.00700
C 	C 	0.32910 0.23990 0.90616 0.00500
C 	C 	0.32540 0.10890 0.49025 0.36600
C 	C 	0.52350 0.13570 0.02370 -0.00700
C 	C 	0.81410 0.84240 0.81947 -0.07500
C 	C 	0.77630 0.67040 0.36598 -0.08600
C 	C 	0.91350 0.67470 0.92836 -0.00300
C 	C 	0.05640 0.87050 0.30304 -0.00500
C 	C 	0.32170 0.17520 0.13054 -0.06300
C 	C 	0.81730 0.92610 0.26871 -0.22200
C 	C 	0.68040 0.16950 0.54440 -0.08100
C 	C 	0.33610 0.27420 0.89269 -0.08100
C 	C 	0.82660 0.00620 0.28073 -0.05400
C 	C 	0.32040 0.18930 0.95519 -0.05300
C 	C 	0.35600 0.16050 0.21748 -0.07200
C 	C 	0.84940 0.67870 0.70474 -0.06800
C 	C 	0.47620 0.11270 0.29710 -0.09700
C 	C 	0.81410 0.94360 0.30304 -0.00500
C 	C 	0.83200 0.89330 0.06760 -0.22900
C 	C 	0.49090 0.32760 0.29040 -0.01800
C 	C 	0.17890 0.96360 0.02148 -0.04800
C 	C 	0.99380 0.82040 0.28073 -0.05400
C 	C 	0.83720 0.40270 0.77760 -0.21500
C 	C 	0.06130 0.89330 0.56760 -0.22900
C 	C 	0.03710 0.85370 0.05830 -0.05300
C 	C 	0.80820 0.93830 0.81759 -0.08200
C 	C 	0.89840 0.38620 0.51560 -0.01000
C 	C 	0.83680 0.19420 0.61714 -0.08300
C 	C 	0.47560 0.08200 0.31110 0.00600
C 	C 	0.98790 0.81810 0.55652 -0.07800
C 	C 	0.89670 0.22350 0.46858 -0.07700
C 	C 	0.86990 0.36420 0.00810 -0.06500
C 	C 	0.55650 0.41450 0.04420 0.05000
C 	C 	0.20820 0.17490 0.29689 -0.09500
C 	C 	0.32680 0.22350 0.96858 -0.07700
C 	C 	0.43650 0.31640 0.79450 0.37700
C 	C 	0.17860 0.22100 0.02680 0.01400
C 	C 	0.80270 0.77520 0.54810 0.39100
C 	C 	0.98790 0.16980 0.05652 -0.07900
C 	C 	0.91420 0.74400 0.54210 0.36800
C 	C 	0.83410 0.43900 0.55650 -0.21400
C 	C 	0.03640 0.82110 0.52148 -0.04800
C 	C 	0.54910 0.10250 0.80210 -0.01300
C 	C 	0.81480 0.59720 0.71136 -0.01600
C 	C 	0.87520 0.67770 0.89954 0.03500
C 	C 	0.78950 0.19490 0.12420 -0.00800
C 	C 	0.81410 0.87050 0.80304 -0.00500
C 	C 	0.18500 0.19890 0.79250 -0.09400
C 	C 	0.80090 0.94450 0.53613 -0.01800
C 	C 	0.03710 0.18340 0.55830 -0.05300
C 	C 	0.81060 0.13310 0.87945 -0.04800
C 	C 	0.78940 0.20290 0.64380 -0.07000
C 	C 	0.62340 0.14020 0.04760 -0.07300
C 	C 	0.80990 0.62160 0.15709 -0.00300
C 	C 	0.85480 0.30550 0.80163 -0.12300
C 	C 	0.33240 0.06700 0.46186 -0.00000
C 	C 	0.47000 0.09180 0.81680 -0.08000
C 	C 	0.59730 0.43450 0.77760 -0.21500
C 	C 	0.55340 0.45090 0.80210 -0.01300
C 	C 	0.55390 0.13320 0.28810 0.06500
C 	C 	0.14630 0.18340 0.05830 -0.05300
C 	C 	0.08420 0.86080 0.02340 -0.08400
C 	C 	0.32540 0.21650 0.99025 0.36600
C 	C 	0.81770 0.62380 0.67839 -0.01000
C 	C 	0.58550 0.14200 0.04420 0.05000
C 	C 	0.83410 0.39510 0.05650 -0.21400
C 	C 	0.87990 0.31640 0.29450 0.37700
C 	C 	0.92060 0.75300 0.29458 0.37200
C 	C 	0.32900 0.11630 0.34447 0.39500
C 	C 	0.93300 0.66760 0.96186 -0.00000
C 	C 	0.80200 0.64920 0.59588 0.38400
C 	C 	0.19410 0.17900 0.31642 0.00700
C 	C 	0.62500 0.14560 0.29230 0.02800
C 	C 	0.21520 0.03450 0.04160 -0.04900
C 	C 	0.91420 0.17020 0.04210 0.36800
C 	C 	0.07630 0.18790 0.28313 0.05800
C 	C 	0.35080 0.15280 0.59588 0.38400
C 	C 	0.99190 0.78730 0.52400 -0.02100
C 	C 	0.96550 0.78480 0.54160 -0.04900
C 	C 	0.01740 0.19950 0.54413 -0.09800
C 	C 	0.34780 0.19480 0.73982 0.38800
C 	C 	0.33240 0.26540 0.96186 -0.00000
C 	C 	0.79710 0.21060 0.14380 -0.07000
C 	C 	0.83200 0.93870 0.56760 -0.22900
C 	C 	0.63580 0.13010 0.50810 -0.06500
C 	C 	0.24700 0.16760 0.29458 0.37200
C 	C 	0.82040 0.96340 0.28416 0.05300
C 	C 	0.40280 0.18520 0.21136 -0.01600
C 	C 	0.14360 0.19910 0.53613 -0.01800
C 	C 	0.02730 0.82970 0.81268 0.01100
C 	C 	0.84720 0.64920 0.09588 0.38400
C 	C 	0.93300 0.26540 0.46186 -0.00000
C 	C 	0.10670 0.93870 0.06760 -0.22900
C 	C 	0.33220 0.17300 0.14998 0.06100
C 	C 	0.33610 0.06190 0.39269 -0.08100
C 	C 	0.01390 0.19890 0.29250 -0.09400
C 	C 	0.59970 0.10990 0.30560 0.00800
C 	C 	0.40280 0.21760 0.71136 -0.01600
C 	C 	0.02830 0.84240 0.31947 -0.07600
C 	C 	0.79620 0.89920 0.53650 0.01000
C 	C 	0.17030 0.97270 0.31268 0.01100
C 	C 	0.63810 0.47930 0.04180 0.06300
C 	C 	0.13010 0.93830 0.31759 -0.08200
C 	C 	0.88730 0.36350 0.29710 -0.09700
C 	C 	0.85980 0.48320 0.04760 -0.07300
C 	C 	0.63950 0.51900 0.53400 -0.06500
C 	C 	0.15760 0.97170 0.81947 -0.07600
C 	C 	0.82100 0.80590 0.81642 0.00700
C 	C 	0.89050 0.33080 0.81490 0.01000
C 	C 	0.04240 0.82140 0.02680 0.01400
C 	C 	0.62180 0.53000 0.81680 -0.08000
C 	C 	0.48780 0.10160 0.51560 -0.01000
C 	C 	0.68080 0.56730 0.53800 0.33400
C 	C 	0.80240 0.97270 0.81268 0.01100
C 	C 	0.82120 0.96630 0.55340 0.07600
C 	C 	0.43650 0.12010 0.29450 0.37700
C 	C 	0.89750 0.44660 0.80210 -0.01300
C 	C 	0.82700 0.66780 0.64998 0.06100
C 	C 	0.21270 0.00810 0.02400 -0.02100
C 	C 	0.82930 0.67870 0.20474 -0.06800
C 	C 	0.79800 0.02840 0.78892 0.39300
C 	C 	0.85800 0.44350 0.04420 0.05000
C 	C 	0.15440 0.96210 0.27743 -0.05600
C 	C 	0.81930 0.78480 0.04160 -0.04900
C 	C 	0.82290 0.24600 0.03110 0.34200
C 	C 	0.32130 0.17070 0.70474 -0.06800
C 	C 	0.52060 0.14560 0.79230 0.02800
C 	C 	0.80310 0.68030 0.43508 0.04600
C 	C 	0.76010 0.08920 0.90616 0.00500
C 	C 	0.83050 0.51090 0.54440 -0.08100
C 	C 	0.03370 0.17880 0.05340 0.07600
C 	C 	0.10650 0.18420 0.05403 0.04500
C 	C 	0.78350 0.67460 0.49025 0.36600
C 	C 	0.92060 0.16760 0.79458 0.37200
C 	C 	0.10670 0.16800 0.56760 -0.22900
C 	C 	0.80820 0.86990 0.31759 -0.08200
C 	C 	0.07390 0.89120 0.26871 -0.22200
C 	C 	0.88370 0.67100 0.84447 0.39500
C 	C 	0.86890 0.67960 0.95519 -0.05300
C 	C 	0.18210 0.19950 0.04413 -0.09800
C 	C 	0.40540 0.19490 0.62420 -0.00800
C 	C 	0.80110 0.98610 0.79250 -0.09400
C 	C 	0.20820 0.03330 0.79689 -0.09500
C 	C 	0.35740 0.16320 0.61714 -0.08300
C 	C 	0.33170 0.27310 0.94175 -0.06900
C 	C 	0.10880 0.18270 0.26871 -0.22200
C 	C 	0.82510 0.03330 0.29689 -0.09500
C 	C 	0.63650 0.52380 0.29710 -0.09700
C 	C 	0.83770 0.68440 0.41797 -0.20000
C 	C 	0.47560 0.39360 0.81110 0.00600
C 	C 	0.33640 0.26610 0.87260 0.01100
C 	C 	0.86160 0.37710 0.28560 -0.06100
C 	C 	0.84120 0.36190 0.04180 0.06300
C 	C 	0.48100 0.36050 0.03400 -0.06500
C 	C 	0.81210 0.92370 0.78313 0.05800
C 	C 	0.84080 0.66780 0.14998 0.06100
C 	C 	0.86890 0.18930 0.45519 -0.05300
C 	C 	0.32230 0.12480 0.39954 0.03500
C 	C 	0.32530 0.08650 0.42836 -0.00300
C 	C 	0.03640 0.21530 0.02148 -0.04800
C 	C 	0.89400 0.47290 0.00910 -0.07100
C 	C 	0.82930 0.15060 0.70474 -0.06800
C 	C 	0.78240 0.59720 0.21136 -0.01600
C 	C 	0.85980 0.37660 0.54760 -0.07300
C 	C 	0.32530 0.23880 0.92836 -0.00300
C 	C 	0.52710 0.10600 0.50910 -0.07100
C 	C 	0.80050 0.98260 0.04413 -0.09800
C 	C 	0.21270 0.20460 0.52400 -0.02100
C 	C 	0.99190 0.20460 0.02400 -0.02100
C 	C 	0.10000 0.91070 0.30246 -0.00500
C 	C 	0.32170 0.14650 0.63054 -0.06300
C 	C 	0.92970 0.66360 0.87260 0.01100
C 	C 	0.17960 0.17340 0.28073 -0.05400
C 	C 	0.87520 0.19750 0.39954 0.03500
C 	C 	0.78240 0.18520 0.71136 -0.01600
C 	C 	0.45850 0.16200 0.02910 -0.05900
C 	C 	0.85440 0.47940 0.29230 0.02800
C 	C 	0.17890 0.21530 0.52148 -0.04800
C 	C 	0.83020 0.81810 0.05652 -0.07900
C 	C 	0.80580 0.16320 0.11714 -0.08300
C 	C 	0.86160 0.48450 0.78560 -0.06100
C 	C 	0.89010 0.40030 0.80560 0.00800
C 	C 	0.60640 0.52440 0.31110 0.00600
C 	C 	0.80050 0.81790 0.54413 -0.09800
C 	C 	0.86680 0.42070 0.28810 0.06500
C 	C 	0.58550 0.44350 0.54420 0.05000
C 	C 	0.85440 0.37500 0.79230 0.02800
C 	C 	0.15760 0.18590 0.31947 -0.07500
C 	C 	0.84040 0.66940 0.68442 0.06200
C 	C 	0.57930 0.13320 0.78810 0.06500
C 	C 	0.56550 0.40270 0.27760 -0.21500
C 	C 	0.82480 0.67830 0.63054 -0.06300
C 	C 	0.87950 0.36050 0.53400 -0.06500
C 	C 	0.54910 0.44660 0.30210 -0.01300
C 	C 	0.79620 0.89700 0.03650 0.01000
O 	O 	0.70700 0.14090 0.05423 -0.48700
O 	O 	0.82170 0.67760 0.49531 -0.47300
O 	O 	0.32640 0.24670 0.00168 -0.47100
O 	O 	0.89950 0.15350 0.77805 -0.47100
O 	O 	0.86520 0.20120 0.29199 -0.95300
O 	O 	0.25400 0.15350 0.27805 -0.47100
O 	O 	0.91380 0.24330 0.33310 -0.48500
O 	O 	0.95080 0.18050 0.56344 -0.50300
O 	O 	0.75330 0.07970 0.00168 -0.47100
O 	O 	0.84810 0.67070 0.83992 -0.49800
O 	O 	0.75670 0.08620 0.83310 -0.48500
O 	O 	0.75670 0.67050 0.33310 -0.48500
O 	O 	0.76330 0.18280 0.28770 -0.47200
O 	O 	0.37930 0.23740 0.31267 -0.50500
O 	O 	0.83070 0.61360 0.08478 -0.51100
O 	O 	0.81760 0.05200 0.77319 -0.48600
O 	O 	0.82090 0.71910 0.02726 -0.50500
O 	O 	0.28090 0.10180 0.02726 -0.50500
O 	O 	0.79880 0.13480 0.79199 -0.95300
O 	O 	0.78920 0.74820 0.53421 -0.51200
O 	O 	0.33600 0.20120 0.79199 -0.95300
O 	O 	0.85020 0.74350 0.05773 -0.47300
O 	O 	0.31030 0.12940 0.59015 -0.50700
O 	O 	0.37930 0.14190 0.81267 -0.50500
O 	O 	0.83470 0.61700 0.75078 -0.52400
O 	O 	0.32930 0.15190 0.33992 -0.49800
O 	O 	0.78230 0.16530 0.75078 -0.52400
O 	O 	0.43390 0.14090 0.55423 -0.48700
O 	O 	0.82650 0.69250 0.24535 -0.51700
O 	O 	0.87190 0.20560 0.54278 -0.95800
O 	O 	0.77320 0.15990 0.51985 -0.47800
O 	O 	0.91380 0.67050 0.83310 -0.48500
O 	O 	0.33600 0.13480 0.29199 -0.95300
O 	O 	0.25400 0.10050 0.77805 -0.47100
O 	O 	0.27260 0.17150 0.30932 -0.49200
O 	O 	0.90440 0.30290 0.30400 -0.51200
O 	O 	0.69380 0.09270 0.02852 -0.50900
O 	O 	0.84010 0.22680 0.01985 -0.47800
O 	O 	0.83470 0.21770 0.25078 -0.52400
O 	O 	0.28090 0.17910 0.52726 -0.50500
O 	O 	0.71090 0.14810 0.78170 -0.51600
O 	O 	0.89330 0.74350 0.55773 -0.47300
O 	O 	0.82850 0.10110 0.30932 -0.49200
O 	O 	0.78180 0.74110 0.30155 -0.52600
O 	O 	0.83070 0.21710 0.58478 -0.51100
O 	O 	0.22970 0.18050 0.06344 -0.50300
O 	O 	0.81910 0.12940 0.09015 -0.50700
O 	O 	0.89890 0.72740 0.30932 -0.49200
O 	O 	0.87060 0.18090 0.59015 -0.50700
O 	O 	0.80200 0.57480 0.54706 -0.47800
O 	O 	0.79880 0.66400 0.29199 -0.95300
O 	O 	0.84010 0.61330 0.51985 -0.47800
O 	O 	0.22970 0.04920 0.56344 -0.50300
O 	O 	0.38640 0.16930 0.58478 -0.51100
O 	O 	0.75330 0.67360 0.50168 -0.47100
O 	O 	0.82260 0.67070 0.33992 -0.49800
O 	O 	0.86520 0.66400 0.79199 -0.95300
O 	O 	0.82170 0.14410 0.99531 -0.47300
O 	O 	0.95080 0.77030 0.06344 -0.50300
O 	O 	0.43720 0.28910 0.78170 -0.51600
O 	O 	0.82090 0.10180 0.52726 -0.50500
O 	O 	0.39890 0.09270 0.52852 -0.50900
O 	O 	0.85910 0.29300 0.55423 -0.48700
O 	O 	0.25650 0.14980 0.55773 -0.47300
O 	O 	0.92030 0.24670 0.50168 -0.47100
O 	O 	0.85590 0.17830 0.49531 -0.47300
O 	O 	0.76260 0.14190 0.31267 -0.50500
O 	O 	0.78230 0.61700 0.25078 -0.52400
O 	O 	0.82650 0.13400 0.74535 -0.51700
O 	O 	0.38670 0.15990 0.01985 -0.47800
O 	O 	0.39850 0.30290 0.80400 -0.51200
O 	O 	0.89330 0.14980 0.05773 -0.47300
O 	O 	0.89950 0.74600 0.27805 -0.47100
O 	O 	0.79440 0.12810 0.04278 -0.95800
O 	O 	0.85190 0.56280 0.78170 -0.51600
O 	O 	0.23440 0.18240 0.77319 -0.48600
O 	O 	0.82260 0.15190 0.83992 -0.49800
O 	O 	0.41950 0.23670 0.28770 -0.47200
O 	O 	0.95900 0.74820 0.03421 -0.51200
O 	O 	0.23440 0.05200 0.27319 -0.48600
O 	O 	0.85020 0.10670 0.55773 -0.47300
O 	O 	0.89820 0.17910 0.02726 -0.50500
O 	O 	0.82850 0.72740 0.80932 -0.49200
O 	O 	0.85810 0.23740 0.81267 -0.50500
O 	O 	0.79440 0.66630 0.54278 -0.95800
O 	O 	0.41950 0.18280 0.78770 -0.47200
O 	O 	0.95930 0.21820 0.30155 -0.52600
O 	O 	0.43390 0.29300 0.05423 -0.48700
O 	O 	0.77320 0.61330 0.01985 -0.47800
O 	O 	0.32950 0.08620 0.33310 -0.48500
O 	O 	0.81950 0.04920 0.06344 -0.50300
O 	O 	0.42520 0.19800 0.04706 -0.47800
O 	O 	0.78180 0.04070 0.80155 -0.52600
O 	O 	0.85810 0.62070 0.31267 -0.50500
O 	O 	0.32930 0.17740 0.83992 -0.49800
O 	O 	0.38300 0.16530 0.25078 -0.52400
O 	O 	0.70700 0.56610 0.55423 -0.48700
O 	O 	0.84810 0.17740 0.33992 -0.49800
O 	O 	0.81910 0.68970 0.59015 -0.50700
O 	O 	0.27260 0.10110 0.80932 -0.49200
O 	O 	0.32950 0.24330 0.83310 -0.48500
O 	O 	0.78920 0.04100 0.03421 -0.51200
O 	O 	0.25650 0.10670 0.05773 -0.47300
O 	O 	0.85190 0.28910 0.28170 -0.51600
O 	O 	0.32240 0.14410 0.49531 -0.47300
O 	O 	0.81720 0.23670 0.78770 -0.47200
O 	O 	0.42520 0.22720 0.54706 -0.47800
O 	O 	0.30750 0.17350 0.74535 -0.51700
O 	O 	0.76260 0.62070 0.81267 -0.50500
O 	O 	0.86600 0.17350 0.24535 -0.51700
O 	O 	0.69380 0.60110 0.52852 -0.50900
O 	O 	0.81950 0.77030 0.56344 -0.50300
O 	O 	0.69710 0.60150 0.30400 -0.51200
O 	O 	0.38670 0.22680 0.51985 -0.47800
O 	O 	0.38300 0.21770 0.75078 -0.52400
O 	O 	0.25890 0.04070 0.30155 -0.52600
O 	O 	0.76330 0.58050 0.78770 -0.47200
O 	O 	0.89820 0.71910 0.52726 -0.50500
O 	O 	0.90440 0.60150 0.80400 -0.51200
O 	O 	0.92030 0.67360 0.00168 -0.47100
O 	O 	0.69710 0.09560 0.80400 -0.51200
O 	O 	0.87060 0.68970 0.09015 -0.50700
O 	O 	0.78290 0.16930 0.08478 -0.51100
O 	O 	0.25890 0.21820 0.80155 -0.52600
O 	O 	0.78290 0.61360 0.58478 -0.51100
O 	O 	0.25180 0.21080 0.03421 -0.51200
O 	O 	0.25180 0.04100 0.53421 -0.51200
O 	O 	0.85590 0.67760 0.99531 -0.47300
O 	O 	0.31030 0.18090 0.09015 -0.50700
O 	O 	0.94800 0.18240 0.27319 -0.48600
O 	O 	0.71090 0.56280 0.28170 -0.51600
O 	O 	0.94800 0.76560 0.77319 -0.48600
O 	O 	0.81760 0.76560 0.27319 -0.48600
O 	O 	0.80200 0.22720 0.04706 -0.47800
O 	O 	0.32640 0.07970 0.50168 -0.47100
O 	O 	0.89890 0.17150 0.80932 -0.49200
O 	O 	0.33370 0.20560 0.04278 -0.95800
O 	O 	0.90730 0.30620 0.52852 -0.50900
O 	O 	0.86600 0.69250 0.74535 -0.51700
O 	O 	0.84650 0.74600 0.77805 -0.47100
O 	O 	0.39890 0.30620 0.02852 -0.50900
O 	O 	0.85910 0.56610 0.05423 -0.48700
O 	O 	0.32240 0.17830 0.99531 -0.47300
O 	O 	0.95900 0.21080 0.53421 -0.51200
O 	O 	0.77280 0.19800 0.54706 -0.47800
O 	O 	0.81720 0.58050 0.28770 -0.47200
O 	O 	0.33370 0.12810 0.54278 -0.95800
O 	O 	0.38640 0.21710 0.08478 -0.51100
O 	O 	0.43720 0.14810 0.28170 -0.51600
O 	O 	0.90730 0.60110 0.02852 -0.50900
O 	O 	0.30750 0.13400 0.24535 -0.51700
O 	O 	0.87190 0.66630 0.04278 -0.95800
O 	O 	0.39850 0.09560 0.30400 -0.51200
O 	O 	0.77280 0.57480 0.04706 -0.47800
O 	O 	0.95930 0.74110 0.80155 -0.52600
O 	O 	0.84650 0.10050 0.27805 -0.47100
Zn	Zn	0.66893 0.82717 0.68736 1.21500
Zn	Zn	0.60770 0.83789 0.44313 1.20700
Zn	Zn	0.16971 0.28680 0.72744 1.20200
Zn	Zn	0.16368 0.33085 0.47741 1.21800
Zn	Zn	0.22513 0.83007 0.22122 1.20900
Zn	Zn	0.60494 0.83007 0.72122 1.20900
Zn	Zn	0.22513 0.39506 0.72122 1.20900
Zn	Zn	0.17564 0.28573 0.43723 1.20000
Zn	Zn	0.71427 0.82436 0.93723 1.20000
Zn	Zn	0.16211 0.76981 0.44313 1.20700
Zn	Zn	0.66915 0.83632 0.97741 1.21800
Zn	Zn	0.16717 0.33085 0.97741 1.21800
Zn	Zn	0.66915 0.83283 0.47741 1.21800
Zn	Zn	0.71320 0.83029 0.22744 1.20200
Zn	Zn	0.23019 0.39230 0.44313 1.20700
Zn	Zn	0.11709 0.28680 0.22744 1.20200
Zn	Zn	0.16993 0.77487 0.72122 1.20900
Zn	Zn	0.07895 0.33176 0.19649 1.18800
Zn	Zn	0.17564 0.88991 0.93723 1.20000
Zn	Zn	0.07069 0.74215 0.46789 1.17000
Zn	Zn	0.66824 0.92105 0.69649 1.18800
Zn	Zn	0.25785 0.32854 0.46789 1.17000
Zn	Zn	0.25785 0.92931 0.96789 1.17000
Zn	Zn	0.11009 0.28573 0.93723 1.20000
Zn	Zn	0.11709 0.83029 0.72744 1.20200
Zn	Zn	0.15824 0.33107 0.68736 1.21500
Zn	Zn	0.11009 0.82436 0.43723 1.20000
Zn	Zn	0.60494 0.77487 0.22122 1.20900
Zn	Zn	0.71320 0.88291 0.72744 1.20200
Zn	Zn	0.07895 0.74719 0.69649 1.18800
Zn	Zn	0.17283 0.33107 0.18736 1.21500
Zn	Zn	0.25281 0.92105 0.19649 1.18800
Zn	Zn	0.60770 0.76981 0.94313 1.20700
Zn	Zn	0.23019 0.83789 0.94313 1.20700
Zn	Zn	0.66893 0.84176 0.18736 1.21500
Zn	Zn	0.16993 0.39506 0.22122 1.20900
Zn	Zn	0.66824 0.74719 0.19649 1.18800
Zn	Zn	0.67146 0.74215 0.96789 1.17000
Zn	Zn	0.16971 0.88291 0.22744 1.20200
Zn	Zn	0.07069 0.32854 0.96789 1.17000
Zn	Zn	0.17283 0.84176 0.68736 1.21500
Zn	Zn	0.71427 0.88991 0.43723 1.20000
Zn	Zn	0.16717 0.83632 0.47741 1.21800
Zn	Zn	0.67146 0.92931 0.46789 1.17000
Zn	Zn	0.25281 0.33176 0.69649 1.18800
Zn	Zn	0.16211 0.39230 0.94313 1.20700
Zn	Zn	0.15824 0.82717 0.18736 1.21500
Zn	Zn	0.16368 0.83283 0.97741 1.21800
H 	H 	0.19820 0.75470 0.81420 0.05000
H 	H 	0.79720 0.76650 0.98230 0.02800
H 	H 	0.98970 0.79890 0.67730 0.03500
H 	H 	0.43430 0.90310 0.00340 0.05300
H 	H 	0.19080 0.04020 0.66780 0.05300
H 	H 	0.55940 0.86550 0.99980 0.04000
H 	H 	0.57370 0.77170 0.27930 0.04400
H 	H 	0.28910 0.94800 0.13640 0.03500
H 	H 	0.48730 0.63970 0.94080 0.06700
H 	H 	0.21270 0.23500 0.98570 0.04900
H 	H 	0.48730 0.84760 0.44080 0.06700
H 	H 	0.12300 0.84820 0.83490 0.09900
H 	H 	0.23830 0.10080 0.98790 0.06700
H 	H 	0.23230 0.05370 0.48930 0.05400
H 	H 	0.15030 0.54870 0.43100 0.09100
H 	H 	0.15330 0.86220 0.29060 0.07000
H 	H 	0.18600 0.06830 0.42040 0.09800
H 	H 	0.71430 0.84850 0.58220 0.08800
H 	H 	0.30470 0.48670 0.94370 0.07100
H 	H 	0.50200 0.88100 0.00390 0.05000
H 	H 	0.20110 0.19080 0.67730 0.03500
H 	H 	0.30610 0.44060 0.99980 0.04000
H 	H 	0.19840 0.58240 0.44100 0.09300
H 	H 	0.13420 0.84850 0.08220 0.08800
H 	H 	0.28830 0.95160 0.02920 0.04000
H 	H 	0.15900 0.51590 0.22380 0.06000
H 	H 	0.21270 0.97770 0.48570 0.04900
H 	H 	0.02230 0.23500 0.48570 0.04900
H 	H 	0.06790 0.60480 0.17430 0.05600
H 	H 	0.90740 0.06220 0.23920 0.09800
H 	H 	0.16130 0.84460 0.04030 0.06200
H 	H 	0.93170 0.81400 0.92040 0.09800
H 	H 	0.20940 0.08470 0.73990 0.10100
H 	H 	0.80920 0.79890 0.17730 0.03500
H 	H 	0.95980 0.15060 0.66780 0.05300
H 	H 	0.15540 0.31670 0.04030 0.06200
H 	H 	0.39520 0.93210 0.67430 0.05600
H 	H 	0.91530 0.12470 0.73990 0.10100
H 	H 	0.12300 0.27480 0.33490 0.09900
H 	H 	0.39840 0.84970 0.43100 0.09100
H 	H 	0.97070 0.16160 0.23570 0.06400
H 	H 	0.23230 0.17860 0.98930 0.05400
H 	H 	0.23350 0.20280 0.48230 0.02800
H 	H 	0.09740 0.41340 0.67760 0.03600
H 	H 	0.30250 0.34070 0.60290 0.05800
H 	H 	0.15240 0.51270 0.94080 0.06700
H 	H 	0.68210 0.83900 0.12500 0.06100
H 	H 	0.04840 0.33670 0.02920 0.04000
H 	H 	0.11900 0.62100 0.00390 0.05000
H 	H 	0.06480 0.61550 0.68120 0.03100
H 	H 	0.83840 0.80910 0.23570 0.06400
H 	H 	0.78980 0.82300 0.67280 0.03800
H 	H 	0.20430 0.77410 0.38440 0.04300
H 	H 	0.53810 0.62300 0.99230 0.04000
H 	H 	0.48640 0.94380 0.67710 0.05400
H 	H 	0.55070 0.61550 0.18120 0.03100
H 	H 	0.15690 0.83900 0.62500 0.06100
H 	H 	0.87860 0.06790 0.66920 0.05500
H 	H 	0.06480 0.44930 0.18120 0.03100
H 	H 	0.09740 0.68400 0.17760 0.03600
H 	H 	0.17700 0.96680 0.67280 0.03800
H 	H 	0.41210 0.60770 0.72140 0.09200
H 	H 	0.97720 0.82750 0.42960 0.06000
H 	H 	0.16810 0.98200 0.73200 0.05800
H 	H 	0.87530 0.79060 0.73990 0.10100
H 	H 	0.19560 0.58790 0.72140 0.09200
H 	H 	0.15390 0.59680 0.23610 0.09200
H 	H 	0.43430 0.53120 0.50340 0.05300
H 	H 	0.70890 0.84670 0.29060 0.07000
H 	H 	0.37900 0.49800 0.00390 0.05000
H 	H 	0.81390 0.98200 0.23200 0.05800
H 	H 	0.31600 0.90260 0.67760 0.03600
H 	H 	0.93210 0.81070 0.66920 0.05500
H 	H 	0.89920 0.76170 0.48790 0.06700
H 	H 	0.82140 0.05370 0.98930 0.05400
H 	H 	0.90740 0.84520 0.73920 0.09800
H 	H 	0.39230 0.80440 0.72140 0.09200
H 	H 	0.95980 0.80920 0.16780 0.05300
H 	H 	0.58660 0.90260 0.17760 0.03600
H 	H 	0.97720 0.14970 0.92960 0.06000
H 	H 	0.20430 0.43020 0.88440 0.04300
H 	H 	0.23470 0.44240 0.85240 0.05200
H 	H 	0.80920 0.01030 0.67730 0.03500
H 	H 	0.15030 0.60160 0.93100 0.09100
H 	H 	0.16100 0.31790 0.62500 0.06100
H 	H 	0.15180 0.27480 0.83490 0.09900
H 	H 	0.15690 0.18410 0.93170 0.07100
H 	H 	0.30250 0.96180 0.10290 0.05800
H 	H 	0.50220 0.68940 0.71850 0.04500
H 	H 	0.18200 0.69530 0.94370 0.07100
H 	H 	0.19840 0.61600 0.94100 0.09300
H 	H 	0.93780 0.84520 0.23920 0.09800
H 	H 	0.05200 0.71090 0.63640 0.03500
H 	H 	0.15150 0.28570 0.08220 0.08800
H 	H 	0.03820 0.69750 0.60290 0.05800
H 	H 	0.50220 0.81280 0.21850 0.04500
H 	H 	0.15470 0.34010 0.58150 0.08600
H 	H 	0.17370 0.88940 0.83080 0.10100
H 	H 	0.65990 0.84530 0.08150 0.08600
H 	H 	0.72520 0.87700 0.83490 0.09900
H 	H 	0.15900 0.64310 0.72380 0.06000
H 	H 	0.48640 0.54260 0.17710 0.05400
H 	H 	0.15180 0.87700 0.33490 0.09900
H 	H 	0.19090 0.02930 0.23570 0.06400
H 	H 	0.19090 0.16160 0.73570 0.06400
H 	H 	0.91090 0.04620 0.92920 0.10000
H 	H 	0.36030 0.84760 0.94080 0.06700
H 	H 	0.66330 0.71170 0.02920 0.04000
H 	H 	0.18930 0.06790 0.16920 0.05500
H 	H 	0.93780 0.09260 0.73920 0.09800
H 	H 	0.22590 0.43020 0.38440 0.04300
H 	H 	0.17700 0.21020 0.17280 0.03800
H 	H 	0.31060 0.49780 0.21850 0.04500
H 	H 	0.87860 0.81070 0.16920 0.05500
H 	H 	0.79720 0.03070 0.48230 0.02800
H 	H 	0.04840 0.71170 0.52920 0.04000
H 	H 	0.31060 0.81280 0.71850 0.04500
H 	H 	0.03320 0.21020 0.67280 0.03800
H 	H 	0.68330 0.83870 0.04030 0.06200
H 	H 	0.95380 0.86470 0.92920 0.10000
H 	H 	0.12710 0.83580 0.37340 0.06200
H 	H 	0.76500 0.97770 0.98570 0.04900
H 	H 	0.55070 0.93520 0.68120 0.03100
H 	H 	0.88230 0.06830 0.92040 0.09800
H 	H 	0.16100 0.84310 0.12500 0.06100
H 	H 	0.30610 0.86550 0.49980 0.04000
H 	H 	0.56980 0.79570 0.38440 0.04300
H 	H 	0.68330 0.84460 0.54030 0.06200
H 	H 	0.89920 0.13750 0.98790 0.06700
H 	H 	0.55650 0.80180 0.81420 0.05000
H 	H 	0.84940 0.04020 0.16780 0.05300
H 	H 	0.45740 0.51360 0.67710 0.05400
H 	H 	0.70890 0.86220 0.79060 0.07000
H 	H 	0.15480 0.09260 0.23920 0.09800
H 	H 	0.23830 0.13750 0.48790 0.06700
H 	H 	0.84940 0.80920 0.66780 0.05300
H 	H 	0.82140 0.76770 0.48930 0.05400
H 	H 	0.24530 0.44350 0.81420 0.05000
H 	H 	0.68210 0.84310 0.62500 0.06100
H 	H 	0.55760 0.79230 0.85240 0.05200
H 	H 	0.85030 0.02280 0.42960 0.06000
H 	H 	0.13530 0.04620 0.42920 0.10000
H 	H 	0.18200 0.48670 0.44370 0.07100
H 	H 	0.15540 0.83870 0.54030 0.06200
H 	H 	0.65890 0.71090 0.13640 0.03500
H 	H 	0.94630 0.17860 0.48930 0.05400
H 	H 	0.03820 0.34070 0.10290 0.05800
H 	H 	0.65930 0.69750 0.10290 0.05800
H 	H 	0.28910 0.34110 0.63640 0.03500
H 	H 	0.38450 0.93520 0.18120 0.03100
H 	H 	0.09690 0.53120 0.00340 0.05300
H 	H 	0.19560 0.60770 0.22140 0.09200
H 	H 	0.15470 0.81460 0.08150 0.08600
H 	H 	0.03440 0.69890 0.56270 0.05400
H 	H 	0.72520 0.84820 0.33490 0.09900
H 	H 	0.23470 0.79230 0.35240 0.05200
H 	H 	0.56980 0.77410 0.88440 0.04300
H 	H 	0.66450 0.96560 0.56270 0.05400
H 	H 	0.20110 0.01030 0.17730 0.03500
H 	H 	0.16810 0.18610 0.23200 0.05800
H 	H 	0.16420 0.29130 0.37340 0.06200
H 	H 	0.83840 0.02930 0.73570 0.06400
H 	H 	0.17250 0.02280 0.92960 0.06000
H 	H 	0.81390 0.83190 0.73200 0.05800
H 	H 	0.86250 0.76170 0.98790 0.06700
H 	H 	0.38400 0.58240 0.94100 0.09300
H 	H 	0.18930 0.12140 0.66920 0.05500
H 	H 	0.15480 0.06220 0.73920 0.09800
H 	H 	0.46880 0.56570 0.00340 0.05300
H 	H 	0.93170 0.11770 0.42040 0.09800
H 	H 	0.71430 0.86580 0.08220 0.08800
H 	H 	0.57370 0.80200 0.77930 0.04400
H 	H 	0.23350 0.03070 0.98230 0.02800
H 	H 	0.71570 0.82630 0.83080 0.10100
H 	H 	0.48410 0.84100 0.72380 0.06000
H 	H 	0.18540 0.34010 0.08150 0.08600
H 	H 	0.87530 0.08470 0.23990 0.10100
H 	H 	0.39840 0.54870 0.93100 0.09100
H 	H 	0.88230 0.81400 0.42040 0.09800
H 	H 	0.66330 0.95160 0.52920 0.04000
H 	H 	0.16420 0.87290 0.87340 0.06200
H 	H 	0.70870 0.83580 0.87340 0.06200
H 	H 	0.81590 0.97280 0.93170 0.07100
H 	H 	0.20770 0.76530 0.85240 0.05200
H 	H 	0.41760 0.61600 0.44100 0.09300
H 	H 	0.45740 0.94380 0.17710 0.05400
H 	H 	0.35690 0.51590 0.72380 0.06000
H 	H 	0.02720 0.18410 0.43170 0.07100
H 	H 	0.15390 0.55710 0.73610 0.09200
H 	H 	0.05620 0.51360 0.17710 0.05400
H 	H 	0.91090 0.86470 0.42920 0.10000
H 	H 	0.78980 0.96680 0.17280 0.03800
H 	H 	0.13450 0.69390 0.99980 0.04000
H 	H 	0.39520 0.46310 0.17430 0.05600
H 	H 	0.40320 0.84610 0.73610 0.09200
H 	H 	0.13530 0.08910 0.92920 0.10000
H 	H 	0.15330 0.29110 0.79060 0.07000
H 	H 	0.58660 0.68400 0.67760 0.03600
H 	H 	0.09690 0.56570 0.50340 0.05300
H 	H 	0.44290 0.84610 0.23610 0.09200
H 	H 	0.38450 0.44930 0.68120 0.03100
H 	H 	0.13780 0.29110 0.29060 0.07000
H 	H 	0.15240 0.63970 0.44080 0.06700
H 	H 	0.55760 0.76530 0.35240 0.05200
H 	H 	0.45130 0.84970 0.93100 0.09100
H 	H 	0.50200 0.62100 0.50390 0.05000
H 	H 	0.97070 0.80910 0.73570 0.06400
H 	H 	0.06790 0.46310 0.67430 0.05600
H 	H 	0.91530 0.79060 0.23990 0.10100
H 	H 	0.41210 0.80440 0.22140 0.09200
H 	H 	0.15150 0.86580 0.58220 0.08800
H 	H 	0.96930 0.76650 0.48230 0.02800
H 	H 	0.03440 0.33550 0.06270 0.05400
H 	H 	0.53690 0.93210 0.17430 0.05600
H 	H 	0.53690 0.60480 0.67430 0.05600
H 	H 	0.16130 0.31670 0.54030 0.06200
H 	H 	0.22590 0.79570 0.88440 0.04300
H 	H 	0.01800 0.83190 0.23200 0.05800
H 	H 	0.85030 0.82750 0.92960 0.06000
H 	H 	0.98970 0.19080 0.17730 0.03500
H 	H 	0.17370 0.28430 0.33080 0.10100
H 	H 	0.37900 0.88100 0.50390 0.05000
H 	H 	0.08490 0.62300 0.49230 0.04000
H 	H 	0.37700 0.91510 0.99230 0.04000
H 	H 	0.05200 0.34110 0.13640 0.03500
H 	H 	0.46880 0.90310 0.50340 0.05300
H 	H 	0.41760 0.80160 0.94100 0.09300
H 	H 	0.53810 0.91510 0.49230 0.04000
H 	H 	0.31600 0.41340 0.17760 0.03600
H 	H 	0.76500 0.78730 0.48570 0.04900
H 	H 	0.17250 0.14970 0.42960 0.06000
H 	H 	0.03320 0.82300 0.17280 0.03800
H 	H 	0.81590 0.84310 0.43170 0.07100
H 	H 	0.08490 0.46190 0.99230 0.04000
H 	H 	0.13420 0.28570 0.58220 0.08800
H 	H 	0.66450 0.69890 0.06270 0.05500
H 	H 	0.51330 0.69530 0.44370 0.07100
H 	H 	0.44290 0.59680 0.73610 0.09200
H 	H 	0.30110 0.33550 0.56270 0.05500
H 	H 	0.28830 0.33670 0.52920 0.04000
H 	H 	0.15690 0.97280 0.43170 0.07100
H 	H 	0.11060 0.82630 0.33080 0.10100
H 	H 	0.65930 0.96180 0.60290 0.05800
H 	H 	0.65890 0.94800 0.63640 0.03500
H 	H 	0.40320 0.55710 0.23610 0.09200
H 	H 	0.24530 0.80180 0.31420 0.05000
H 	H 	0.20940 0.12470 0.23990 0.10100
H 	H 	0.18720 0.68940 0.21850 0.04500
H 	H 	0.95380 0.08910 0.42920 0.10000
H 	H 	0.55650 0.75470 0.31420 0.05000
H 	H 	0.38400 0.80160 0.44100 0.09300
H 	H 	0.39230 0.58790 0.22140 0.09200
H 	H 	0.19820 0.44350 0.31420 0.05000
H 	H 	0.30470 0.81800 0.44370 0.07100
H 	H 	0.11060 0.28430 0.83080 0.10100
H 	H 	0.22830 0.80200 0.27930 0.04400
H 	H 	0.45130 0.60160 0.43100 0.09100
H 	H 	0.13450 0.44060 0.49980 0.04000
H 	H 	0.12710 0.29130 0.87340 0.06200
H 	H 	0.94630 0.76770 0.98930 0.05400
H 	H 	0.20770 0.44240 0.35240 0.05200
H 	H 	0.35690 0.84100 0.22380 0.06000
H 	H 	0.18600 0.11770 0.92040 0.09800
H 	H 	0.30110 0.96560 0.06270 0.05400
H 	H 	0.96930 0.20280 0.98230 0.02800
H 	H 	0.19080 0.15060 0.16780 0.05300
H 	H 	0.13780 0.84670 0.79060 0.07000
H 	H 	0.05620 0.54260 0.67710 0.05400
H 	H 	0.37700 0.46190 0.49230 0.04000
H 	H 	0.11900 0.49800 0.50390 0.05000
H 	H 	0.18540 0.84530 0.58150 0.08600
H 	H 	0.02230 0.78730 0.98570 0.04900
H 	H 	0.71570 0.88940 0.33080 0.10100
H 	H 	0.02720 0.84310 0.93170 0.07100
H 	H 	0.22830 0.42630 0.77930 0.04400
H 	H 	0.19800 0.42630 0.27930 0.04400
H 	H 	0.01800 0.18610 0.73200 0.05800
H 	H 	0.55940 0.69390 0.49980 0.04000
H 	H 	0.18720 0.49780 0.71850 0.04500
H 	H 	0.15690 0.31790 0.12500 0.06100
H 	H 	0.48410 0.64310 0.22380 0.06000
H 	H 	0.19800 0.77170 0.77930 0.04400
H 	H 	0.93210 0.12140 0.16920 0.05500
H 	H 	0.70870 0.87290 0.37340 0.06200
H 	H 	0.51330 0.81800 0.94370 0.07100
H 	H 	0.65990 0.81460 0.58150 0.08600
H 	H 	0.36030 0.51270 0.44080 0.06700
H 	H 	0.86250 0.10080 0.48790 0.06700
C 	C 	0.67870 0.84940 0.79526 -0.06800
C 	C 	0.20200 0.23040 0.71108 0.39300
C 	C 	0.11350 0.43270 0.96200 0.33400
C 	C 	0.68440 0.84670 0.58203 -0.20000
C 	C 	0.37660 0.51680 0.45240 -0.07300
C 	C 	0.36420 0.86990 0.49190 -0.06500
C 	C 	0.05860 0.72690 0.55825 -0.06900
C 	C 	0.18830 0.80990 0.84291 -0.00300
C 	C 	0.21270 0.32900 0.65553 0.39500
C 	C 	0.16320 0.80580 0.38286 -0.08300
C 	C 	0.18930 0.10000 0.69754 -0.00500
C 	C 	0.07030 0.73390 0.62740 0.01100
C 	C 	0.13010 0.49430 0.49190 -0.06500
C 	C 	0.00620 0.82660 0.21927 -0.05400
C 	C 	0.12280 0.31970 0.06492 0.04600
C 	C 	0.78730 0.99190 0.97600 -0.02100
C 	C 	0.86080 0.77660 0.97660 -0.08400
C 	C 	0.95760 0.77900 0.47320 0.01400
C 	C 	0.37500 0.52060 0.20770 0.02800
C 	C 	0.84240 0.81410 0.68053 -0.07500
C 	C 	0.43590 0.87320 0.97620 -0.00000
C 	C 	0.66390 0.72580 0.10731 -0.08100
C 	C 	0.12480 0.80250 0.60046 0.03500
C 	C 	0.65220 0.84700 0.76018 0.38800
C 	C 	0.93870 0.83200 0.93240 -0.22900
C 	C 	0.14020 0.51680 0.95240 -0.07300
C 	C 	0.67830 0.82480 0.86946 -0.06300
C 	C 	0.66830 0.72690 0.05825 -0.06900
C 	C 	0.10950 0.66920 0.18510 0.01000
C 	C 	0.43730 0.87320 0.47620 -0.00000
C 	C 	0.17070 0.32130 0.79526 -0.06800
C 	C 	0.80590 0.98490 0.18358 0.00700
C 	C 	0.32760 0.49090 0.20960 -0.01800
C 	C 	0.82140 0.77900 0.97320 0.01400
C 	C 	0.17900 0.98490 0.68358 0.00700
C 	C 	0.23880 0.91350 0.07164 -0.00300
C 	C 	0.17710 0.42310 0.46890 0.34200
C 	C 	0.14020 0.62340 0.45240 -0.07300
C 	C 	0.27420 0.93810 0.10731 -0.08100
C 	C 	0.20200 0.97160 0.21108 0.39300
C 	C 	0.40030 0.51020 0.19440 0.00800
C 	C 	0.64920 0.80200 0.90412 0.38400
C 	C 	0.22350 0.89670 0.03142 -0.07700
C 	C 	0.67040 0.89410 0.63402 -0.08600
C 	C 	0.18790 0.07630 0.21687 0.05800
C 	C 	0.94360 0.81410 0.19696 -0.00500
C 	C 	0.19390 0.37620 0.82161 -0.01000
C 	C 	0.64260 0.80580 0.88286 -0.08300
C 	C 	0.15180 0.73910 0.19810 0.38900
C 	C 	0.51900 0.87950 0.46600 -0.06500
C 	C 	0.14650 0.82480 0.36946 -0.06300
C 	C 	0.18930 0.86890 0.04481 -0.05300
C 	C 	0.58650 0.79710 0.85620 -0.07000
C 	C 	0.30550 0.85480 0.69837 -0.12300
C 	C 	0.10250 0.54910 0.69790 -0.01300
C 	C 	0.10950 0.44030 0.68510 0.01000
C 	C 	0.17300 0.33220 0.35002 0.06100
C 	C 	0.77520 0.80270 0.95190 0.39100
C 	C 	0.51090 0.83050 0.95560 -0.08100
C 	C 	0.85640 0.05550 0.96387 -0.01800
C 	C 	0.59720 0.81480 0.78864 -0.01600
C 	C 	0.17520 0.32170 0.36946 -0.06300
C 	C 	0.81790 0.01740 0.45587 -0.09800
C 	C 	0.77520 0.97250 0.45190 0.39100
C 	C 	0.75300 0.92060 0.20542 0.37200
C 	C 	0.19550 0.83950 0.28252 -0.07200
C 	C 	0.68440 0.83770 0.08203 -0.20000
C 	C 	0.62380 0.81770 0.82161 -0.01000
C 	C 	0.64400 0.83950 0.78252 -0.07200
C 	C 	0.10330 0.32680 0.03142 -0.07700
C 	C 	0.67960 0.81070 0.04481 -0.05300
C 	C 	0.16050 0.35600 0.28252 -0.07200
C 	C 	0.70130 0.84500 0.83287 -0.23200
C 	C 	0.67830 0.85350 0.36946 -0.06300
C 	C 	0.65220 0.80520 0.26018 0.38800
C 	C 	0.22340 0.13920 0.47660 -0.08400
C 	C 	0.96360 0.78470 0.97852 -0.04800
C 	C 	0.96290 0.81660 0.44170 -0.05300
C 	C 	0.90000 0.08930 0.69754 -0.00500
C 	C 	0.15880 0.52070 0.45820 0.06300
C 	C 	0.19420 0.83680 0.88286 -0.08300
C 	C 	0.54150 0.70350 0.47090 -0.05900
C 	C 	0.10990 0.51020 0.69440 0.00800
C 	C 	0.67040 0.77630 0.13402 -0.08600
C 	C 	0.33080 0.44030 0.18510 0.01000
C 	C 	0.92610 0.81730 0.23129 -0.22200
C 	C 	0.14050 0.46180 0.48970 -0.01300
C 	C 	0.17300 0.84080 0.85002 0.06100
C 	C 	0.66940 0.84040 0.81558 0.06200
C 	C 	0.07940 0.83240 0.20542 0.37200
C 	C 	0.78730 0.79540 0.47600 -0.02100
C 	C 	0.36190 0.84120 0.45820 0.06300
C 	C 	0.16050 0.80450 0.78252 -0.07200
C 	C 	0.38780 0.86430 0.47630 -0.00700
C 	C 	0.48320 0.62340 0.95240 -0.07300
C 	C 	0.96210 0.80770 0.72257 -0.05600
C 	C 	0.18070 0.96550 0.45840 -0.04900
C 	C 	0.88840 0.81210 0.21687 0.05800
C 	C 	0.22100 0.04240 0.97320 0.01400
C 	C 	0.86990 0.06170 0.68241 -0.08200
C 	C 	0.43450 0.83720 0.22240 -0.21500
C 	C 	0.19390 0.81770 0.32161 -0.01000
C 	C 	0.96290 0.14630 0.94170 -0.05300
C 	C 	0.53820 0.85950 0.98970 -0.01300
C 	C 	0.31960 0.48910 0.95560 -0.08100
C 	C 	0.89120 0.81730 0.73129 -0.22200
C 	C 	0.16800 0.10670 0.93240 -0.22900
C 	C 	0.10330 0.77650 0.53142 -0.07700
C 	C 	0.14520 0.45070 0.69837 -0.12300
C 	C 	0.40030 0.89010 0.69440 0.00800
C 	C 	0.19690 0.31970 0.56492 0.04600
C 	C 	0.43900 0.83410 0.94350 -0.21400
C 	C 	0.10590 0.77630 0.63402 -0.08600
C 	C 	0.18520 0.40280 0.28864 -0.01600
C 	C 	0.42070 0.86680 0.21190 0.06500
C 	C 	0.15300 0.34780 0.26018 0.38800
C 	C 	0.26540 0.33240 0.53814 -0.00000
C 	C 	0.16760 0.24700 0.20542 0.37200
C 	C 	0.56350 0.68360 0.20550 0.37700
C 	C 	0.97170 0.15760 0.68053 -0.07600
C 	C 	0.10990 0.59970 0.19440 0.00800
C 	C 	0.08920 0.32910 0.09384 0.00500
C 	C 	0.08650 0.76120 0.57164 -0.00300
C 	C 	0.03330 0.20820 0.70311 -0.09500
C 	C 	0.15500 0.29870 0.33287 -0.23200
C 	C 	0.10600 0.57890 0.49090 -0.07100
C 	C 	0.10160 0.61380 0.48440 -0.01000
C 	C 	0.17340 0.17960 0.21927 -0.05400
C 	C 	0.13840 0.51550 0.21440 -0.06100
C 	C 	0.17490 0.96670 0.70311 -0.09500
C 	C 	0.19760 0.02730 0.18732 0.01100
C 	C 	0.20290 0.78940 0.85620 -0.07000
C 	C 	0.18270 0.07390 0.73129 -0.22200
C 	C 	0.55970 0.66920 0.68510 0.01000
C 	C 	0.19800 0.84720 0.90412 0.38400
C 	C 	0.51220 0.89840 0.48440 -0.01000
C 	C 	0.16230 0.31560 0.58203 -0.20000
C 	C 	0.43730 0.51410 0.68640 -0.07300
C 	C 	0.18830 0.37840 0.34291 -0.00300
C 	C 	0.44660 0.89750 0.69790 -0.01300
C 	C 	0.18590 0.05640 0.69696 -0.00500
C 	C 	0.17960 0.03660 0.71584 0.05300
C 	C 	0.91580 0.13920 0.97660 -0.08400
C 	C 	0.58730 0.84820 0.19810 0.38900
C 	C 	0.92370 0.81210 0.71687 0.05800
C 	C 	0.97170 0.81410 0.18053 -0.07500
C 	C 	0.89120 0.07390 0.23129 -0.22200
C 	C 	0.51090 0.68040 0.45560 -0.08100
C 	C 	0.27420 0.33610 0.60731 -0.08100
C 	C 	0.96210 0.15440 0.22257 -0.05600
C 	C 	0.37820 0.47000 0.18320 -0.08000
C 	C 	0.96360 0.17890 0.47852 -0.04800
C 	C 	0.20460 0.99190 0.47600 -0.02100
C 	C 	0.33080 0.89050 0.68510 0.01000
C 	C 	0.59460 0.80510 0.37580 -0.00800
C 	C 	0.94360 0.12950 0.69696 -0.00500
C 	C 	0.56730 0.68080 0.96200 0.33400
C 	C 	0.19550 0.35600 0.78252 -0.07200
C 	C 	0.97270 0.80240 0.68732 0.01100
C 	C 	0.14560 0.52060 0.70770 0.02800
C 	C 	0.59720 0.78240 0.28864 -0.01600
C 	C 	0.22400 0.41440 0.80940 -0.06500
C 	C 	0.42110 0.89400 0.99090 -0.07100
C 	C 	0.12280 0.80310 0.56492 0.04600
C 	C 	0.82040 0.82660 0.71927 -0.05400
C 	C 	0.74400 0.91420 0.95790 0.36800
C 	C 	0.54930 0.85480 0.19837 -0.12300
C 	C 	0.13310 0.81060 0.62055 -0.04800
C 	C 	0.08920 0.76010 0.59384 0.00500
C 	C 	0.18590 0.02830 0.68053 -0.07500
C 	C 	0.67960 0.86890 0.54481 -0.05300
C 	C 	0.19910 0.14360 0.96387 -0.01800
C 	C 	0.15500 0.85630 0.83287 -0.23200
C 	C 	0.47290 0.57890 0.99090 -0.07100
C 	C 	0.16320 0.35740 0.88286 -0.08300
C 	C 	0.19890 0.18500 0.70750 -0.09400
C 	C 	0.18940 0.86690 0.12055 -0.04800
C 	C 	0.54150 0.83800 0.97090 -0.05900
C 	C 	0.37710 0.51550 0.71440 -0.06100
C 	C 	0.59460 0.78950 0.87580 -0.00800
C 	C 	0.18340 0.14630 0.44170 -0.05300
C 	C 	0.51900 0.63950 0.96600 -0.06500
C 	C 	0.01210 0.83020 0.94348 -0.07900
C 	C 	0.44610 0.86680 0.71190 0.06500
C 	C 	0.89350 0.81580 0.94597 0.04500
C 	C 	0.18590 0.12950 0.19696 -0.00500
C 	C 	0.07680 0.56270 0.68640 -0.07300
C 	C 	0.66760 0.93300 0.53814 -0.00000
C 	C 	0.64920 0.84720 0.40412 0.38400
C 	C 	0.82110 0.78470 0.47852 -0.04800
C 	C 	0.98260 0.18210 0.95587 -0.09800
C 	C 	0.02750 0.22480 0.95190 0.39100
C 	C 	0.17100 0.84040 0.31558 0.06200
C 	C 	0.20380 0.10080 0.46350 0.01000
C 	C 	0.26610 0.33640 0.62740 0.01100
C 	C 	0.14650 0.32170 0.86946 -0.06300
C 	C 	0.18940 0.32250 0.62055 -0.04800
C 	C 	0.54930 0.69450 0.69837 -0.12300
C 	C 	0.05860 0.33170 0.05825 -0.06900
C 	C 	0.21760 0.81480 0.28864 -0.01600
C 	C 	0.47650 0.61220 0.47630 -0.00700
C 	C 	0.08200 0.60640 0.68890 0.00600
C 	C 	0.26090 0.84820 0.69810 0.38900
C 	C 	0.37500 0.85440 0.70770 0.02800
C 	C 	0.51220 0.61380 0.98440 -0.01000
C 	C 	0.56350 0.87990 0.70550 0.37700
C 	C 	0.86080 0.08420 0.47660 -0.08400
C 	C 	0.18230 0.80610 0.82161 -0.01000
C 	C 	0.48450 0.62290 0.21440 -0.06100
C 	C 	0.10890 0.78350 0.50975 0.36600
C 	C 	0.07680 0.51410 0.18640 -0.07300
C 	C 	0.19490 0.78950 0.37580 -0.00800
C 	C 	0.39360 0.47560 0.68890 0.00600
C 	C 	0.24600 0.82290 0.46890 0.34200
C 	C 	0.50910 0.83670 0.20960 -0.01800
C 	C 	0.87050 0.81410 0.69696 -0.00500
C 	C 	0.26540 0.93300 0.03814 -0.00000
C 	C 	0.93870 0.10670 0.43240 -0.22900
C 	C 	0.98610 0.80110 0.70750 -0.09400
C 	C 	0.15880 0.63810 0.95820 0.06300
C 	C 	0.12680 0.56410 0.47620 -0.00000
C 	C 	0.94450 0.80090 0.96387 -0.01800
C 	C 	0.76960 0.97160 0.71108 0.39300
C 	C 	0.62160 0.80990 0.34291 -0.00300
C 	C 	0.92370 0.11160 0.21687 0.05800
C 	C 	0.89330 0.83200 0.43240 -0.22900
C 	C 	0.07940 0.24700 0.70542 0.37200
C 	C 	0.19890 0.01390 0.20750 -0.09400
C 	C 	0.90000 0.81070 0.19754 -0.00500
C 	C 	0.21060 0.79710 0.35620 -0.07000
C 	C 	0.37710 0.86160 0.21440 -0.06100
C 	C 	0.03450 0.21520 0.45840 -0.04900
C 	C 	0.16200 0.45850 0.47090 -0.05900
C 	C 	0.18930 0.08930 0.19754 -0.00500
C 	C 	0.16590 0.60490 0.94350 -0.21400
C 	C 	0.19950 0.01740 0.95587 -0.09800
C 	C 	0.16950 0.48910 0.45560 -0.08100
C 	C 	0.19750 0.87520 0.10046 0.03500
C 	C 	0.13110 0.81070 0.54481 -0.05300
C 	C 	0.21530 0.17890 0.97852 -0.04800
C 	C 	0.13010 0.63580 0.99190 -0.06500
C 	C 	0.16330 0.67240 0.20960 -0.01800
C 	C 	0.10600 0.52710 0.99090 -0.07100
C 	C 	0.22370 0.32960 0.63402 -0.08600
C 	C 	0.43590 0.56270 0.47620 -0.00000
C 	C 	0.13840 0.62290 0.71440 -0.06100
C 	C 	0.89920 0.79620 0.96350 0.01000
C 	C 	0.22350 0.32680 0.53142 -0.07700
C 	C 	0.92610 0.10880 0.73129 -0.22200
C 	C 	0.18070 0.21520 0.95840 -0.04900
C 	C 	0.92230 0.81580 0.44597 0.04500
C 	C 	0.07030 0.33640 0.12740 0.01100
C 	C 	0.18270 0.10880 0.23129 -0.22200
C 	C 	0.15960 0.33060 0.31558 0.06200
C 	C 	0.81790 0.80050 0.95587 -0.09800
C 	C 	0.44610 0.57930 0.21190 0.06500
C 	C 	0.20380 0.10300 0.96350 0.01000
C 	C 	0.96340 0.82040 0.21584 0.05300
C 	C 	0.92230 0.10650 0.94597 0.04500
C 	C 	0.84240 0.02830 0.18053 -0.07600
C 	C 	0.14200 0.58550 0.45580 0.05000
C 	C 	0.36190 0.52070 0.95820 0.06300
C 	C 	0.68030 0.80310 0.06492 0.04600
C 	C 	0.53820 0.67870 0.48970 -0.01300
C 	C 	0.66390 0.93810 0.60731 -0.08100
C 	C 	0.18790 0.11160 0.71687 0.05800
C 	C 	0.67750 0.86690 0.62055 -0.04800
C 	C 	0.67470 0.76120 0.07164 -0.00300
C 	C 	0.82970 0.80240 0.18732 0.01100
C 	C 	0.81500 0.80110 0.20750 -0.09400
C 	C 	0.19750 0.32230 0.60046 0.03500
C 	C 	0.17340 0.99380 0.71927 -0.05400
C 	C 	0.85700 0.82040 0.71584 0.05300
C 	C 	0.21760 0.40280 0.78864 -0.01600
C 	C 	0.19730 0.97250 0.95190 0.39100
C 	C 	0.29650 0.45850 0.97090 -0.05900
C 	C 	0.15920 0.33220 0.85002 0.06100
C 	C 	0.31960 0.83050 0.45560 -0.08100
C 	C 	0.58560 0.80960 0.80940 -0.06500
C 	C 	0.14050 0.67870 0.98970 -0.01300
C 	C 	0.15280 0.35080 0.90412 0.38400
C 	C 	0.06700 0.73460 0.53814 -0.00000
C 	C 	0.62380 0.80610 0.32161 -0.01000
C 	C 	0.12010 0.43650 0.20550 0.37700
C 	C 	0.96630 0.14510 0.44660 0.07500
C 	C 	0.17960 0.14300 0.21584 0.05300
C 	C 	0.08580 0.82980 0.95790 0.36800
C 	C 	0.16950 0.68040 0.95560 -0.08100
C 	C 	0.89330 0.06130 0.93240 -0.22900
C 	C 	0.18230 0.37620 0.32161 -0.01000
C 	C 	0.11270 0.47620 0.20290 -0.09700
C 	C 	0.20460 0.21270 0.97600 -0.02100
C 	C 	0.78480 0.96550 0.95840 -0.04900
C 	C 	0.15060 0.32130 0.29526 -0.06800
C 	C 	0.31920 0.88650 0.96200 0.33400
C 	C 	0.53000 0.62180 0.68320 -0.08000
C 	C 	0.47650 0.86430 0.97630 -0.00700
C 	C 	0.50910 0.67240 0.70960 -0.01800
C 	C 	0.16280 0.59730 0.22240 -0.21500
C 	C 	0.31920 0.43270 0.46200 0.33400
C 	C 	0.47940 0.62500 0.70770 0.02800
C 	C 	0.38620 0.89840 0.98440 -0.01000
C 	C 	0.48980 0.59970 0.69440 0.00800
C 	C 	0.36350 0.88730 0.20290 -0.09700
C 	C 	0.81810 0.83020 0.44348 -0.07900
C 	C 	0.13310 0.32250 0.12055 -0.04800
C 	C 	0.79180 0.96670 0.20311 -0.09500
C 	C 	0.12480 0.32230 0.10046 0.03500
C 	C 	0.16800 0.06130 0.43240 -0.22900
C 	C 	0.80590 0.82100 0.68358 0.00700
C 	C 	0.81810 0.98790 0.94348 -0.07800
C 	C 	0.19490 0.40540 0.87580 -0.00800
C 	C 	0.20290 0.41350 0.35620 -0.07000
C 	C 	0.79180 0.82510 0.70311 -0.09500
C 	C 	0.09180 0.62180 0.18320 -0.08000
C 	C 	0.43730 0.92320 0.18640 -0.07300
C 	C 	0.19690 0.87720 0.06492 0.04600
C 	C 	0.67770 0.87520 0.60046 0.03500
C 	C 	0.45090 0.55340 0.69790 -0.01300
C 	C 	0.03450 0.81930 0.95840 -0.04900
C 	C 	0.12680 0.56270 0.97620 -0.00000
C 	C 	0.00620 0.17960 0.71927 -0.05400
C 	C 	0.52440 0.60640 0.18890 0.00600
C 	C 	0.50570 0.86990 0.99190 -0.06500
C 	C 	0.17490 0.20820 0.20311 -0.09500
C 	C 	0.01510 0.82100 0.18358 0.00700
C 	C 	0.18520 0.78240 0.78864 -0.01600
C 	C 	0.32130 0.46180 0.98970 -0.01300
C 	C 	0.44660 0.54910 0.19790 -0.01300
C 	C 	0.11350 0.68080 0.46200 0.33400
C 	C 	0.13320 0.57930 0.71190 0.06500
C 	C 	0.18930 0.32040 0.54481 -0.05300
C 	C 	0.89350 0.07770 0.44597 0.04500
C 	C 	0.23990 0.32910 0.59384 0.00500
C 	C 	0.48450 0.86160 0.71440 -0.06100
C 	C 	0.19180 0.13010 0.68241 -0.08200
C 	C 	0.36050 0.48100 0.46600 -0.06500
C 	C 	0.15060 0.82930 0.79526 -0.06800
C 	C 	0.01510 0.19410 0.68358 0.00700
C 	C 	0.47930 0.63810 0.45820 0.06300
C 	C 	0.91580 0.77660 0.47660 -0.08400
C 	C 	0.06190 0.33610 0.10731 -0.08100
C 	C 	0.43450 0.59730 0.72240 -0.21500
C 	C 	0.76960 0.79800 0.21108 0.39300
C 	C 	0.85490 0.82120 0.44660 0.07600
C 	C 	0.12050 0.48100 0.96600 -0.06500
C 	C 	0.97270 0.17030 0.18732 0.01100
C 	C 	0.57690 0.82290 0.96890 0.34200
C 	C 	0.87050 0.05640 0.19696 -0.00500
C 	C 	0.19010 0.81170 0.34291 -0.00300
C 	C 	0.58650 0.78940 0.35620 -0.07000
C 	C 	0.91070 0.10000 0.19754 -0.00500
C 	C 	0.17880 0.14510 0.94660 0.07600
C 	C 	0.02750 0.80270 0.45190 0.39100
C 	C 	0.47290 0.89400 0.49090 -0.07100
C 	C 	0.48980 0.89010 0.19440 0.00800
C 	C 	0.48590 0.92320 0.68640 -0.07300
C 	C 	0.16200 0.70350 0.97090 -0.05900
C 	C 	0.58730 0.73910 0.69810 0.38900
C 	C 	0.27310 0.94140 0.05825 -0.06900
C 	C 	0.17100 0.33060 0.81558 0.06200
C 	C 	0.26610 0.92970 0.12740 0.01100
C 	C 	0.66830 0.94140 0.55825 -0.06900
C 	C 	0.10250 0.55340 0.19790 -0.01300
C 	C 	0.10890 0.32540 0.00975 0.36600
C 	C 	0.93830 0.13010 0.18241 -0.08200
C 	C 	0.18590 0.15760 0.18053 -0.07500
C 	C 	0.14560 0.62500 0.20770 0.02800
C 	C 	0.15920 0.82700 0.35002 0.06100
C 	C 	0.86990 0.80820 0.18241 -0.08200
C 	C 	0.15180 0.41270 0.69810 0.38900
C 	C 	0.40270 0.83720 0.72240 -0.21500
C 	C 	0.78480 0.81930 0.45840 -0.04900
C 	C 	0.14370 0.29870 0.83287 -0.23200
C 	C 	0.31640 0.87990 0.20550 0.37700
C 	C 	0.44350 0.58550 0.95580 0.05000
C 	C 	0.16980 0.18190 0.94348 -0.07900
C 	C 	0.16330 0.49090 0.70960 -0.01800
C 	C 	0.19480 0.34780 0.76018 0.38800
C 	C 	0.47940 0.85440 0.20770 0.02800
C 	C 	0.15300 0.80520 0.76018 0.38800
C 	C 	0.47930 0.84120 0.95820 0.06300
C 	C 	0.57690 0.75400 0.46890 0.34200
C 	C 	0.39510 0.56100 0.94350 -0.21400
C 	C 	0.43730 0.56410 0.97620 -0.00000
C 	C 	0.56730 0.88650 0.46200 0.33400
C 	C 	0.21060 0.41350 0.85620 -0.07000
C 	C 	0.64400 0.80450 0.28252 -0.07200
C 	C 	0.21530 0.03640 0.47852 -0.04800
C 	C 	0.19760 0.17030 0.68732 0.01100
C 	C 	0.18420 0.07770 0.94597 0.04500
C 	C 	0.67870 0.82930 0.29526 -0.06800
C 	C 	0.19040 0.77600 0.80940 -0.06500
C 	C 	0.67320 0.77650 0.03142 -0.07700
C 	C 	0.85700 0.03660 0.21584 0.05300
C 	C 	0.84560 0.03790 0.72257 -0.05600
C 	C 	0.50570 0.63580 0.49190 -0.06500
C 	C 	0.16230 0.84670 0.08203 -0.20000
C 	C 	0.10160 0.48780 0.98440 -0.01000
C 	C 	0.67460 0.78350 0.00975 0.36600
C 	C 	0.42110 0.52710 0.49090 -0.07100
C 	C 	0.16980 0.98790 0.44348 -0.07900
C 	C 	0.14200 0.55650 0.95580 0.05000
C 	C 	0.21650 0.32540 0.50975 0.36600
C 	C 	0.19420 0.35740 0.38286 -0.08300
C 	C 	0.27310 0.33170 0.55825 -0.06900
C 	C 	0.82110 0.03640 0.97852 -0.04800
C 	C 	0.39360 0.91800 0.18890 0.00600
C 	C 	0.14370 0.84500 0.33287 -0.23200
C 	C 	0.85490 0.03370 0.94660 0.07500
C 	C 	0.39510 0.83410 0.44350 -0.21400
C 	C 	0.21650 0.89110 0.00975 0.36600
C 	C 	0.89700 0.79620 0.46350 0.01000
C 	C 	0.17520 0.85350 0.86946 -0.06300
C 	C 	0.02840 0.79800 0.71108 0.39300
C 	C 	0.48320 0.85980 0.45240 -0.07300
C 	C 	0.67090 0.76010 0.09384 0.00500
C 	C 	0.06700 0.33240 0.03814 -0.00000
C 	C 	0.70130 0.85630 0.33287 -0.23200
C 	C 	0.17020 0.25600 0.95790 0.36800
C 	C 	0.23880 0.32530 0.57164 -0.00300
C 	C 	0.13320 0.55390 0.21190 0.06500
C 	C 	0.13570 0.61220 0.97630 -0.00700
C 	C 	0.18420 0.10650 0.44597 0.04500
C 	C 	0.13110 0.32040 0.04481 -0.05300
C 	C 	0.98610 0.18500 0.20750 -0.09500
C 	C 	0.38780 0.52350 0.97630 -0.00700
C 	C 	0.22100 0.17860 0.47320 0.01400
C 	C 	0.32130 0.85950 0.48970 -0.01300
C 	C 	0.10590 0.32960 0.13402 -0.08600
C 	C 	0.37660 0.85980 0.95240 -0.07300
C 	C 	0.26090 0.41270 0.19810 0.38900
C 	C 	0.98260 0.80050 0.45587 -0.09800
C 	C 	0.48590 0.56270 0.18640 -0.07300
C 	C 	0.13570 0.52350 0.47630 -0.00700
C 	C 	0.42070 0.55390 0.71190 0.06500
C 	C 	0.66760 0.73460 0.03814 -0.00000
C 	C 	0.38620 0.48780 0.48440 -0.01000
C 	C 	0.17900 0.19410 0.18358 0.00700
C 	C 	0.67100 0.88370 0.65553 0.39500
C 	C 	0.66940 0.82900 0.31558 0.06200
C 	C 	0.12050 0.63950 0.46600 -0.06500
C 	C 	0.82140 0.04240 0.47320 0.01400
C 	C 	0.41450 0.85800 0.95580 0.05000
C 	C 	0.19950 0.18210 0.45587 -0.09800
C 	C 	0.31640 0.43650 0.70550 0.37700
C 	C 	0.89920 0.10300 0.46350 0.01000
C 	C 	0.67090 0.91080 0.59384 0.00500
C 	C 	0.17020 0.91420 0.45790 0.36800
C 	C 	0.19910 0.05550 0.46387 -0.01800
C 	C 	0.52380 0.63650 0.20290 -0.09700
C 	C 	0.40270 0.56550 0.22240 -0.21500
C 	C 	0.67460 0.89110 0.50975 0.36600
C 	C 	0.36420 0.49430 0.99190 -0.06500
C 	C 	0.41450 0.55650 0.45580 0.05000
C 	C 	0.44350 0.85800 0.45580 0.05000
C 	C 	0.09180 0.47000 0.68320 -0.08000
C 	C 	0.03330 0.82510 0.20311 -0.09500
C 	C 	0.67770 0.80250 0.10046 0.03500
C 	C 	0.82040 0.99380 0.21927 -0.05400
C 	C 	0.95760 0.17860 0.97320 0.01400
C 	C 	0.21050 0.40540 0.37580 -0.00800
C 	C 	0.11630 0.32900 0.15553 0.39500
C 	C 	0.85370 0.03710 0.44170 -0.05300
C 	C 	0.96340 0.14300 0.71584 0.05300
C 	C 	0.55970 0.89050 0.18510 0.01000
C 	C 	0.67470 0.91350 0.57164 -0.00300
C 	C 	0.74400 0.82980 0.45790 0.36800
C 	C 	0.16280 0.56550 0.72240 -0.21500
C 	C 	0.67100 0.78730 0.15553 0.39500
C 	C 	0.89700 0.10080 0.96350 0.01000
C 	C 	0.22340 0.08420 0.97660 -0.08400
C 	C 	0.96630 0.82120 0.94660 0.07600
C 	C 	0.64260 0.83680 0.38286 -0.08300
C 	C 	0.21050 0.80510 0.87580 -0.00800
C 	C 	0.52380 0.88730 0.70290 -0.09700
C 	C 	0.14520 0.69450 0.19837 -0.12300
C 	C 	0.08650 0.32530 0.07164 -0.00300
C 	C 	0.53000 0.90820 0.18320 -0.08000
C 	C 	0.08200 0.47560 0.18890 0.00600
C 	C 	0.19730 0.22480 0.45190 0.39100
C 	C 	0.15330 0.31560 0.08203 -0.20000
C 	C 	0.24600 0.42310 0.96890 0.34200
C 	C 	0.11630 0.78730 0.65553 0.39500
C 	C 	0.91070 0.81070 0.69754 -0.00500
C 	C 	0.17710 0.75400 0.96890 0.34200
C 	C 	0.15280 0.80200 0.40412 0.38400
C 	C 	0.30550 0.45070 0.19837 -0.12300
C 	C 	0.22370 0.89410 0.13402 -0.08600
C 	C 	0.15330 0.83770 0.58203 -0.20000
C 	C 	0.02840 0.23040 0.21108 0.39300
C 	C 	0.81500 0.01390 0.70750 -0.09500
C 	C 	0.19230 0.15440 0.72257 -0.05600
C 	C 	0.16760 0.92060 0.70542 0.37200
C 	C 	0.45090 0.89750 0.19790 -0.01300
C 	C 	0.19230 0.03790 0.22257 -0.05600
C 	C 	0.88840 0.07630 0.71687 0.05800
C 	C 	0.68030 0.87720 0.56492 0.04600
C 	C 	0.85640 0.80090 0.46387 -0.01800
C 	C 	0.66360 0.92970 0.62740 0.01100
C 	C 	0.12010 0.68360 0.70550 0.37700
C 	C 	0.67750 0.81060 0.12055 -0.04800
C 	C 	0.19480 0.84700 0.26018 0.38800
C 	C 	0.16590 0.56100 0.44350 -0.21400
C 	C 	0.75300 0.83240 0.70542 0.37200
C 	C 	0.82970 0.02730 0.68732 0.01100
C 	C 	0.17880 0.03370 0.44660 0.07600
C 	C 	0.84560 0.80770 0.22257 -0.05600
C 	C 	0.18340 0.03710 0.94170 -0.05300
C 	C 	0.15960 0.82900 0.81558 0.06200
C 	C 	0.93830 0.80820 0.68241 -0.08200
C 	C 	0.17070 0.84940 0.29526 -0.06800
C 	C 	0.19010 0.37840 0.84291 -0.00300
C 	C 	0.23990 0.91080 0.09384 0.00500
C 	C 	0.08580 0.25600 0.45790 0.36800
C 	C 	0.00810 0.21270 0.47600 -0.02100
C 	C 	0.62160 0.81170 0.84291 -0.00300
C 	C 	0.19800 0.35080 0.40412 0.38400
C 	C 	0.22400 0.80960 0.30940 -0.06500
C 	C 	0.32760 0.83670 0.70960 -0.01800
C 	C 	0.66360 0.73390 0.12740 0.01100
C 	C 	0.00810 0.79540 0.97600 -0.02100
C 	C 	0.67320 0.89670 0.53142 -0.07700
C 	C 	0.29650 0.83800 0.47090 -0.05900
C 	C 	0.19040 0.41440 0.30940 -0.06500
C 	C 	0.85370 0.81660 0.94170 -0.05300
C 	C 	0.36350 0.47620 0.70290 -0.09700
C 	C 	0.66780 0.84080 0.35002 0.06100
C 	C 	0.94450 0.14360 0.46387 -0.01800
C 	C 	0.01210 0.18190 0.44348 -0.07800
C 	C 	0.36050 0.87950 0.96600 -0.06500
C 	C 	0.43900 0.60490 0.44350 -0.21400
C 	C 	0.06190 0.72580 0.60731 -0.08100
C 	C 	0.19180 0.06170 0.18241 -0.08200
C 	C 	0.37820 0.90820 0.68320 -0.08000
C 	C 	0.58560 0.77600 0.30940 -0.06500
C 	C 	0.66780 0.82700 0.85002 0.06100
C 	C 	0.11270 0.63650 0.70290 -0.09700
C 	C 	0.21270 0.88370 0.15553 0.39500
C 	C 	0.52440 0.91800 0.68890 0.00600
O 	O 	0.24330 0.91380 0.16690 -0.48500
O 	O 	0.20120 0.86520 0.20801 -0.95300
O 	O 	0.18050 0.95080 0.93656 -0.50300
O 	O 	0.21080 0.25180 0.46579 -0.51200
O 	O 	0.62070 0.85810 0.18733 -0.50500
O 	O 	0.17830 0.32240 0.50469 -0.47300
O 	O 	0.21080 0.95900 0.96579 -0.51200
O 	O 	0.58050 0.81720 0.21230 -0.47200
O 	O 	0.23740 0.85810 0.68733 -0.50500
O 	O 	0.17910 0.89820 0.47274 -0.50500
O 	O 	0.30290 0.39850 0.69600 -0.51200
O 	O 	0.69250 0.86600 0.75465 -0.51700
O 	O 	0.67760 0.82170 0.00469 -0.47300
O 	O 	0.17350 0.86600 0.25465 -0.51700
O 	O 	0.10050 0.84650 0.22195 -0.47100
O 	O 	0.74350 0.89330 0.94227 -0.47300
O 	O 	0.10110 0.27260 0.69068 -0.49200
O 	O 	0.17740 0.84810 0.16008 -0.49800
O 	O 	0.68970 0.81910 0.90985 -0.50700
O 	O 	0.10670 0.85020 0.94227 -0.47300
O 	O 	0.14980 0.89330 0.44227 -0.47300
O 	O 	0.61360 0.78290 0.91522 -0.51100
O 	O 	0.61330 0.77320 0.48015 -0.47800
O 	O 	0.74600 0.89950 0.22195 -0.47100
O 	O 	0.10670 0.25650 0.44227 -0.47300
O 	O 	0.56280 0.85190 0.71830 -0.51600
O 	O 	0.56610 0.70700 0.94577 -0.48700
O 	O 	0.19800 0.77280 0.95294 -0.47800
O 	O 	0.15350 0.25400 0.22195 -0.47100
O 	O 	0.14190 0.76260 0.18733 -0.50500
O 	O 	0.23670 0.81720 0.71230 -0.47200
O 	O 	0.57480 0.80200 0.95294 -0.47800
O 	O 	0.62070 0.76260 0.68733 -0.50500
O 	O 	0.28910 0.43720 0.71830 -0.51600
O 	O 	0.17910 0.28090 0.97274 -0.50500
O 	O 	0.60150 0.69710 0.19600 -0.51200
O 	O 	0.69250 0.82650 0.25465 -0.51700
O 	O 	0.74110 0.95930 0.69845 -0.52600
O 	O 	0.21710 0.38640 0.41522 -0.51100
O 	O 	0.04070 0.25890 0.19845 -0.52600
O 	O 	0.29300 0.85910 0.94577 -0.48700
O 	O 	0.15990 0.38670 0.48015 -0.47800
O 	O 	0.18240 0.23440 0.72681 -0.48600
O 	O 	0.56280 0.71090 0.21830 -0.51600
O 	O 	0.13400 0.30750 0.25465 -0.51700
O 	O 	0.77030 0.81950 0.93656 -0.50300
O 	O 	0.10180 0.28090 0.47274 -0.50500
O 	O 	0.76560 0.81760 0.22681 -0.48600
O 	O 	0.67070 0.84810 0.66008 -0.49800
O 	O 	0.61700 0.83470 0.74922 -0.52400
O 	O 	0.67050 0.91380 0.66690 -0.48500
O 	O 	0.60110 0.69380 0.97148 -0.50900
O 	O 	0.30620 0.90730 0.97148 -0.50900
O 	O 	0.04920 0.81950 0.43656 -0.50300
O 	O 	0.22680 0.84010 0.48015 -0.47800
O 	O 	0.12810 0.79440 0.45722 -0.95800
O 	O 	0.17740 0.32930 0.66008 -0.49800
O 	O 	0.76560 0.94800 0.72681 -0.48600
O 	O 	0.13480 0.79880 0.70801 -0.95300
O 	O 	0.04920 0.22970 0.93656 -0.50300
O 	O 	0.67360 0.75330 0.99832 -0.47100
O 	O 	0.15350 0.89950 0.72195 -0.47100
O 	O 	0.15190 0.82260 0.66008 -0.49800
O 	O 	0.19800 0.42520 0.45294 -0.47800
O 	O 	0.17830 0.85590 0.00469 -0.47300
O 	O 	0.66630 0.79440 0.95722 -0.95800
O 	O 	0.18090 0.31030 0.40985 -0.50700
O 	O 	0.72740 0.89890 0.19068 -0.49200
O 	O 	0.16530 0.78230 0.74922 -0.52400
O 	O 	0.61330 0.84010 0.98015 -0.47800
O 	O 	0.74820 0.95900 0.46579 -0.51200
O 	O 	0.21820 0.25890 0.69845 -0.52600
O 	O 	0.18280 0.76330 0.21230 -0.47200
O 	O 	0.05200 0.81760 0.72681 -0.48600
O 	O 	0.12940 0.31030 0.90985 -0.50700
O 	O 	0.10110 0.82850 0.19068 -0.49200
O 	O 	0.07970 0.32640 0.99832 -0.47100
O 	O 	0.05200 0.23440 0.22681 -0.48600
O 	O 	0.13400 0.82650 0.75465 -0.51700
O 	O 	0.18240 0.94800 0.22681 -0.48600
O 	O 	0.04070 0.78180 0.69845 -0.52600
O 	O 	0.14190 0.37930 0.68733 -0.50500
O 	O 	0.57480 0.77280 0.45294 -0.47800
O 	O 	0.61360 0.83070 0.41522 -0.51100
O 	O 	0.16930 0.78290 0.41522 -0.51100
O 	O 	0.13480 0.33600 0.20801 -0.95300
O 	O 	0.72740 0.82850 0.69068 -0.49200
O 	O 	0.21770 0.38300 0.74922 -0.52400
O 	O 	0.15990 0.77320 0.98015 -0.47800
O 	O 	0.22720 0.80200 0.45294 -0.47800
O 	O 	0.21710 0.83070 0.91522 -0.51100
O 	O 	0.22720 0.42520 0.95294 -0.47800
O 	O 	0.14410 0.32240 0.00469 -0.47300
O 	O 	0.58050 0.76330 0.71230 -0.47200
O 	O 	0.68970 0.87060 0.40985 -0.50700
O 	O 	0.24670 0.92030 0.99832 -0.47100
O 	O 	0.14810 0.43720 0.21830 -0.51600
O 	O 	0.28910 0.85190 0.21830 -0.51600
O 	O 	0.12940 0.81910 0.40985 -0.50700
O 	O 	0.16530 0.38300 0.24922 -0.52400
O 	O 	0.23740 0.37930 0.18733 -0.50500
O 	O 	0.66400 0.79880 0.20801 -0.95300
O 	O 	0.22680 0.38670 0.98015 -0.47800
O 	O 	0.21770 0.83470 0.24922 -0.52400
O 	O 	0.18050 0.22970 0.43656 -0.50300
O 	O 	0.71910 0.82090 0.47274 -0.50500
O 	O 	0.60150 0.90440 0.69600 -0.51200
O 	O 	0.04100 0.25180 0.96579 -0.51200
O 	O 	0.16930 0.38640 0.91522 -0.51100
O 	O 	0.08620 0.32950 0.16690 -0.48500
O 	O 	0.60110 0.90730 0.47148 -0.50900
O 	O 	0.77030 0.95080 0.43656 -0.50300
O 	O 	0.66630 0.87190 0.45722 -0.95800
O 	O 	0.10050 0.25400 0.72195 -0.47100
O 	O 	0.14090 0.43390 0.94577 -0.48700
O 	O 	0.21820 0.95930 0.19845 -0.52600
O 	O 	0.24330 0.32950 0.66690 -0.48500
O 	O 	0.24670 0.32640 0.49832 -0.47100
O 	O 	0.74350 0.85020 0.44227 -0.47300
O 	O 	0.14980 0.25650 0.94227 -0.47300
O 	O 	0.67050 0.75670 0.16690 -0.48500
O 	O 	0.67070 0.82260 0.16008 -0.49800
O 	O 	0.20560 0.87190 0.95722 -0.95800
O 	O 	0.74110 0.78180 0.19845 -0.52600
O 	O 	0.67360 0.92030 0.49832 -0.47100
O 	O 	0.17150 0.27260 0.19068 -0.49200
O 	O 	0.30620 0.39890 0.47148 -0.50900
O 	O 	0.29300 0.43390 0.44577 -0.48700
O 	O 	0.07970 0.75330 0.49832 -0.47100
O 	O 	0.14090 0.70700 0.44577 -0.48700
O 	O 	0.15190 0.32930 0.16008 -0.49800
O 	O 	0.04100 0.78920 0.46579 -0.51200
O 	O 	0.10180 0.82090 0.97274 -0.50500
O 	O 	0.71910 0.89820 0.97274 -0.50500
O 	O 	0.74600 0.84650 0.72195 -0.47100
O 	O 	0.14810 0.71090 0.71830 -0.51600
O 	O 	0.20560 0.33370 0.45722 -0.95800
O 	O 	0.30290 0.90440 0.19600 -0.51200
O 	O 	0.20120 0.33600 0.70801 -0.95300
O 	O 	0.18090 0.87060 0.90985 -0.50700
O 	O 	0.14410 0.82170 0.50469 -0.47300
O 	O 	0.09270 0.39890 0.97148 -0.50900
O 	O 	0.67760 0.85590 0.50469 -0.47300
O 	O 	0.66400 0.86520 0.70801 -0.95300
O 	O 	0.09560 0.39850 0.19600 -0.51200
O 	O 	0.09270 0.69380 0.47148 -0.50900
O 	O 	0.12810 0.33370 0.95722 -0.95800
O 	O 	0.23670 0.41950 0.21230 -0.47200
O 	O 	0.18280 0.41950 0.71230 -0.47200
O 	O 	0.09560 0.69710 0.69600 -0.51200
O 	O 	0.08620 0.75670 0.66690 -0.48500
O 	O 	0.61700 0.78230 0.24922 -0.52400
O 	O 	0.74820 0.78920 0.96579 -0.51200
O 	O 	0.56610 0.85910 0.44577 -0.48700
O 	O 	0.17150 0.89890 0.69068 -0.49200
O 	O 	0.17350 0.30750 0.75465 -0.51700
