data_crystal

_cell_length_a 51.85930
_cell_length_b 51.85930
_cell_length_c 51.85930
_cell_angle_alpha 60.00000
_cell_angle_beta  60.00000
_cell_angle_gamma 60.00000

_symmetry_space_group_name_	'P 1'
_symmetry_space_group_name_H-M	'P 1'

loop_
_symmetry_equiv_pos_as_xyz
  x,y,z

loop_
_atom_site_label
_atom_site_type_symbol
_atom_site_fract_x
_atom_site_fract_y
_atom_site_fract_z
_atom_site_charge
Fe	Fe	0.74605 0.40830 0.89070 1.25900
Fe	Fe	0.32040 0.66463 0.90422 1.26400
O 	O 	0.76148 0.57960 0.80449 -0.45600
O 	O 	0.73977 0.64480 0.78277 -0.45700
O 	O 	0.55891 0.50515 0.94315 -0.45200
O 	O 	0.44692 0.50294 0.00361 -0.43200
O 	O 	0.53294 0.47830 0.94822 -0.44700
O 	O 	0.72999 0.48575 0.86729 -0.46100
O 	O 	0.67745 0.46755 0.90275 -0.45900
O 	O 	0.75690 0.44227 0.85386 -0.45700
O 	O 	0.78959 0.39214 0.88763 -0.44100
O 	O 	0.73620 0.37165 0.92464 -0.44600
O 	O 	0.70413 0.42312 0.89082 -0.45300
O 	O 	0.28130 0.65536 0.98068 -0.44400
O 	O 	0.30249 0.59420 0.00054 -0.42500
O 	O 	0.30972 0.68141 0.93474 -0.45600
O 	O 	0.34765 0.56744 0.97160 -0.43500
O 	O 	0.33260 0.65270 0.87001 -0.46500
O 	O 	0.36294 0.64991 0.90239 -0.45300
C 	C 	0.37880 0.53959 0.01730 0.04900
C 	C 	0.34653 0.56028 0.02232 -0.10500
C 	C 	0.33096 0.57457 0.99691 0.36500
C 	C 	0.76403 0.52116 0.81069 0.08800
C 	C 	0.76922 0.48951 0.81663 -0.15300
C 	C 	0.75051 0.47145 0.84758 0.41700
C 	C 	0.64876 0.41990 0.89750 0.08600
C 	C 	0.59137 0.43677 0.91815 0.08100
C 	C 	0.64825 0.44538 0.90079 -0.14900
C 	C 	0.58962 0.46329 0.92120 -0.14100
C 	C 	0.61855 0.46721 0.91227 0.08000
C 	C 	0.62086 0.41470 0.90679 -0.15200
C 	C 	0.55842 0.48382 0.93810 0.39900
C 	C 	0.62293 0.38413 0.90850 0.41600
C 	C 	0.67862 0.44572 0.89726 0.41100
C 	C 	0.70667 0.32335 0.00835 0.06900
C 	C 	0.68809 0.30301 0.02847 -0.13000
C 	C 	0.29698 0.67445 0.96451 0.39600
Fe	Fe	0.40830 0.74605 0.95494 1.25700
Fe	Fe	0.66463 0.32040 0.11076 1.26300
O 	O 	0.57960 0.76148 0.85443 -0.45700
O 	O 	0.64480 0.73977 0.83266 -0.45700
O 	O 	0.50515 0.55891 0.99279 -0.45400
O 	O 	0.50294 0.44692 0.04653 -0.43300
O 	O 	0.47830 0.53294 0.04053 -0.44700
O 	O 	0.48575 0.72999 0.91698 -0.46100
O 	O 	0.46755 0.67745 0.95224 -0.45900
O 	O 	0.44227 0.75690 0.94697 -0.45700
O 	O 	0.39214 0.78959 0.93064 -0.44200
O 	O 	0.37165 0.73620 0.96751 -0.44600
O 	O 	0.42312 0.70413 0.98193 -0.45400
O 	O 	0.65536 0.28130 0.08267 -0.44300
O 	O 	0.59420 0.30249 0.10277 -0.42800
O 	O 	0.68141 0.30972 0.07413 -0.45500
O 	O 	0.56744 0.34765 0.11331 -0.43500
O 	O 	0.65270 0.33260 0.14470 -0.46600
O 	O 	0.64991 0.36294 0.08477 -0.45300
C 	C 	0.53959 0.37880 0.06431 0.04800
C 	C 	0.56028 0.34653 0.07087 -0.10700
C 	C 	0.57457 0.33096 0.09756 0.36800
C 	C 	0.52116 0.76403 0.90412 0.08800
C 	C 	0.48951 0.76922 0.92464 -0.15400
C 	C 	0.47145 0.75051 0.93046 0.41700
C 	C 	0.41990 0.64876 0.03384 0.08600
C 	C 	0.43677 0.59137 0.05371 0.08200
C 	C 	0.44538 0.64825 0.00558 -0.14700
C 	C 	0.46329 0.58962 0.02589 -0.14100
C 	C 	0.46721 0.61855 0.00198 0.08200
C 	C 	0.41470 0.62086 0.05765 -0.15200
C 	C 	0.48382 0.55842 0.01966 0.40200
C 	C 	0.38413 0.62293 0.08445 0.41600
C 	C 	0.44572 0.67862 0.97840 0.41000
C 	C 	0.32335 0.70667 0.96163 0.06700
C 	C 	0.30301 0.68809 0.98044 -0.13200
C 	C 	0.67445 0.29698 0.06406 0.39600
Fe	Fe	0.89070 0.95494 0.74605 1.25700
Fe	Fe	0.90422 0.11076 0.32040 1.26300
O 	O 	0.80449 0.85443 0.76148 -0.45700
O 	O 	0.78277 0.83266 0.73977 -0.45700
O 	O 	0.94315 0.99279 0.55891 -0.45400
O 	O 	0.00361 0.04653 0.44692 -0.43200
O 	O 	0.94822 0.04053 0.53294 -0.44700
O 	O 	0.86729 0.91698 0.72999 -0.46100
O 	O 	0.90275 0.95224 0.67745 -0.45900
O 	O 	0.85386 0.94697 0.75690 -0.45700
O 	O 	0.88763 0.93064 0.78959 -0.44200
O 	O 	0.92464 0.96751 0.73620 -0.44600
O 	O 	0.89082 0.98193 0.70413 -0.45400
O 	O 	0.98068 0.08267 0.28130 -0.44400
O 	O 	0.00054 0.10277 0.30249 -0.42500
O 	O 	0.93474 0.07413 0.30972 -0.45500
O 	O 	0.97160 0.11331 0.34765 -0.43500
O 	O 	0.87001 0.14470 0.33260 -0.46600
O 	O 	0.90239 0.08477 0.36294 -0.45300
C 	C 	0.01730 0.06431 0.37880 0.04900
C 	C 	0.02232 0.07087 0.34653 -0.10500
C 	C 	0.99691 0.09756 0.33096 0.36400
C 	C 	0.81069 0.90412 0.76403 0.08800
C 	C 	0.81663 0.92464 0.76922 -0.15400
C 	C 	0.84758 0.93046 0.75051 0.41700
C 	C 	0.89750 0.03384 0.64876 0.08600
C 	C 	0.91815 0.05371 0.59137 0.08200
C 	C 	0.90079 0.00558 0.64825 -0.14800
C 	C 	0.92120 0.02589 0.58962 -0.14200
C 	C 	0.91227 0.00198 0.61855 0.08200
C 	C 	0.90679 0.05765 0.62086 -0.15200
C 	C 	0.93810 0.01966 0.55842 0.40200
C 	C 	0.90850 0.08445 0.62293 0.41600
C 	C 	0.89726 0.97840 0.67862 0.41000
C 	C 	0.00835 0.96163 0.70667 0.07000
C 	C 	0.02847 0.98044 0.68809 -0.13300
C 	C 	0.96451 0.06406 0.29698 0.39700
Fe	Fe	0.95494 0.89070 0.40830 1.25700
Fe	Fe	0.11076 0.90422 0.66463 1.26300
O 	O 	0.85443 0.80449 0.57960 -0.45700
O 	O 	0.83266 0.78277 0.64480 -0.45700
O 	O 	0.99279 0.94315 0.50515 -0.45400
O 	O 	0.04653 0.00361 0.50294 -0.43200
O 	O 	0.04053 0.94822 0.47830 -0.44700
O 	O 	0.91698 0.86729 0.48575 -0.46100
O 	O 	0.95224 0.90275 0.46755 -0.45900
O 	O 	0.94697 0.85386 0.44227 -0.45700
O 	O 	0.93064 0.88763 0.39214 -0.44200
O 	O 	0.96751 0.92464 0.37165 -0.44600
O 	O 	0.98193 0.89082 0.42312 -0.45400
O 	O 	0.08267 0.98068 0.65536 -0.44400
O 	O 	0.10277 0.00054 0.59420 -0.42500
O 	O 	0.07413 0.93474 0.68141 -0.45600
O 	O 	0.11331 0.97160 0.56744 -0.43500
O 	O 	0.14470 0.87001 0.65270 -0.46500
O 	O 	0.08477 0.90239 0.64991 -0.45300
C 	C 	0.06431 0.01730 0.53959 0.04900
C 	C 	0.07087 0.02232 0.56028 -0.10500
C 	C 	0.09756 0.99691 0.57457 0.36400
C 	C 	0.90412 0.81069 0.52116 0.08800
C 	C 	0.92464 0.81663 0.48951 -0.15400
C 	C 	0.93046 0.84758 0.47145 0.41700
C 	C 	0.03384 0.89750 0.41990 0.08600
C 	C 	0.05371 0.91815 0.43677 0.08200
C 	C 	0.00558 0.90079 0.44538 -0.14800
C 	C 	0.02589 0.92120 0.46329 -0.14200
C 	C 	0.00198 0.91227 0.46721 0.08200
C 	C 	0.05765 0.90679 0.41470 -0.15200
C 	C 	0.01966 0.93810 0.48382 0.40200
C 	C 	0.08445 0.90850 0.38413 0.41700
C 	C 	0.97840 0.89726 0.44572 0.41000
C 	C 	0.96163 0.00835 0.32335 0.07100
C 	C 	0.98044 0.02847 0.30301 -0.13300
C 	C 	0.06406 0.96451 0.67445 0.39700
Fe	Fe	0.89070 0.74605 0.40830 1.25800
Fe	Fe	0.90422 0.32040 0.66463 1.26300
O 	O 	0.80449 0.76148 0.57960 -0.45700
O 	O 	0.78277 0.73977 0.64480 -0.45700
O 	O 	0.94315 0.55891 0.50515 -0.45200
O 	O 	0.00361 0.44692 0.50294 -0.43200
O 	O 	0.94822 0.53294 0.47830 -0.44700
O 	O 	0.86729 0.72999 0.48575 -0.46100
O 	O 	0.90275 0.67745 0.46755 -0.45900
O 	O 	0.85386 0.75690 0.44227 -0.45700
O 	O 	0.88763 0.78959 0.39214 -0.44100
O 	O 	0.92464 0.73620 0.37165 -0.44600
O 	O 	0.89082 0.70413 0.42312 -0.45300
O 	O 	0.98068 0.28130 0.65536 -0.44400
O 	O 	0.00054 0.30249 0.59420 -0.42500
O 	O 	0.93474 0.30972 0.68141 -0.45600
O 	O 	0.97160 0.34765 0.56744 -0.43500
O 	O 	0.87001 0.33260 0.65270 -0.46500
O 	O 	0.90239 0.36294 0.64991 -0.45300
C 	C 	0.01730 0.37880 0.53959 0.04900
C 	C 	0.02232 0.34653 0.56028 -0.10500
C 	C 	0.99691 0.33096 0.57457 0.36500
C 	C 	0.81069 0.76403 0.52116 0.08800
C 	C 	0.81663 0.76922 0.48951 -0.15300
C 	C 	0.84758 0.75051 0.47145 0.41700
C 	C 	0.89750 0.64876 0.41990 0.08600
C 	C 	0.91815 0.59137 0.43677 0.08100
C 	C 	0.90079 0.64825 0.44538 -0.14900
C 	C 	0.92120 0.58962 0.46329 -0.14100
C 	C 	0.91227 0.61855 0.46721 0.08000
C 	C 	0.90679 0.62086 0.41470 -0.15200
C 	C 	0.93810 0.55842 0.48382 0.39900
C 	C 	0.90850 0.62293 0.38413 0.41600
C 	C 	0.89726 0.67862 0.44572 0.41100
C 	C 	0.00835 0.70667 0.32335 0.06900
C 	C 	0.02847 0.68809 0.30301 -0.13000
C 	C 	0.96451 0.29698 0.67445 0.39600
Fe	Fe	0.95494 0.40830 0.74605 1.25700
Fe	Fe	0.11076 0.66463 0.32040 1.26300
O 	O 	0.85443 0.57960 0.76148 -0.45700
O 	O 	0.83266 0.64480 0.73977 -0.45700
O 	O 	0.99279 0.50515 0.55891 -0.45400
O 	O 	0.04653 0.50294 0.44692 -0.43300
O 	O 	0.04053 0.47830 0.53294 -0.44700
O 	O 	0.91698 0.48575 0.72999 -0.46100
O 	O 	0.95224 0.46755 0.67745 -0.45900
O 	O 	0.94697 0.44227 0.75690 -0.45700
O 	O 	0.93064 0.39214 0.78959 -0.44200
O 	O 	0.96751 0.37165 0.73620 -0.44600
O 	O 	0.98193 0.42312 0.70413 -0.45400
O 	O 	0.08267 0.65536 0.28130 -0.44300
O 	O 	0.10277 0.59420 0.30249 -0.42800
O 	O 	0.07413 0.68141 0.30972 -0.45500
O 	O 	0.11331 0.56744 0.34765 -0.43500
O 	O 	0.14470 0.65270 0.33260 -0.46600
O 	O 	0.08477 0.64991 0.36294 -0.45300
C 	C 	0.06431 0.53959 0.37880 0.04800
C 	C 	0.07087 0.56028 0.34653 -0.10700
C 	C 	0.09756 0.57457 0.33096 0.36800
C 	C 	0.90412 0.52116 0.76403 0.08800
C 	C 	0.92464 0.48951 0.76922 -0.15400
C 	C 	0.93046 0.47145 0.75051 0.41700
C 	C 	0.03384 0.41990 0.64876 0.08600
C 	C 	0.05371 0.43677 0.59137 0.08200
C 	C 	0.00558 0.44538 0.64825 -0.14700
C 	C 	0.02589 0.46329 0.58962 -0.14100
C 	C 	0.00198 0.46721 0.61855 0.08200
C 	C 	0.05765 0.41470 0.62086 -0.15200
C 	C 	0.01966 0.48382 0.55842 0.40200
C 	C 	0.08445 0.38413 0.62293 0.41600
C 	C 	0.97840 0.44572 0.67862 0.41000
C 	C 	0.96163 0.32335 0.70667 0.06700
C 	C 	0.98044 0.30301 0.68809 -0.13200
C 	C 	0.06406 0.67445 0.29698 0.39600
Fe	Fe	0.74605 0.89070 0.95494 1.25700
Fe	Fe	0.32040 0.90422 0.11076 1.26300
O 	O 	0.76148 0.80449 0.85443 -0.45700
O 	O 	0.73977 0.78277 0.83266 -0.45700
O 	O 	0.55891 0.94315 0.99279 -0.45400
O 	O 	0.44692 0.00361 0.04653 -0.43200
O 	O 	0.53294 0.94822 0.04053 -0.44700
O 	O 	0.72999 0.86729 0.91698 -0.46100
O 	O 	0.67745 0.90275 0.95224 -0.45900
O 	O 	0.75690 0.85386 0.94697 -0.45700
O 	O 	0.78959 0.88763 0.93064 -0.44200
O 	O 	0.73620 0.92464 0.96751 -0.44600
O 	O 	0.70413 0.89082 0.98193 -0.45400
O 	O 	0.28130 0.98068 0.08267 -0.44400
O 	O 	0.30249 0.00054 0.10277 -0.42500
O 	O 	0.30972 0.93474 0.07413 -0.45500
O 	O 	0.34765 0.97160 0.11331 -0.43500
O 	O 	0.33260 0.87001 0.14470 -0.46600
O 	O 	0.36294 0.90239 0.08477 -0.45300
C 	C 	0.37880 0.01730 0.06431 0.04900
C 	C 	0.34653 0.02232 0.07087 -0.10500
C 	C 	0.33096 0.99691 0.09756 0.36400
C 	C 	0.76403 0.81069 0.90412 0.08800
C 	C 	0.76922 0.81663 0.92464 -0.15400
C 	C 	0.75051 0.84758 0.93046 0.41700
C 	C 	0.64876 0.89750 0.03384 0.08600
C 	C 	0.59137 0.91815 0.05371 0.08200
C 	C 	0.64825 0.90079 0.00558 -0.14800
C 	C 	0.58962 0.92120 0.02589 -0.14200
C 	C 	0.61855 0.91227 0.00198 0.08200
C 	C 	0.62086 0.90679 0.05765 -0.15200
C 	C 	0.55842 0.93810 0.01966 0.40200
C 	C 	0.62293 0.90850 0.08445 0.41600
C 	C 	0.67862 0.89726 0.97840 0.41000
C 	C 	0.70667 0.00835 0.96163 0.07000
C 	C 	0.68809 0.02847 0.98044 -0.13300
C 	C 	0.29698 0.96451 0.06406 0.39700
Fe	Fe	0.40830 0.95494 0.89070 1.25700
Fe	Fe	0.66463 0.11076 0.90422 1.26300
O 	O 	0.57960 0.85443 0.80449 -0.45700
O 	O 	0.64480 0.83266 0.78277 -0.45700
O 	O 	0.50515 0.99279 0.94315 -0.45400
O 	O 	0.50294 0.04653 0.00361 -0.43200
O 	O 	0.47830 0.04053 0.94822 -0.44700
O 	O 	0.48575 0.91698 0.86729 -0.46100
O 	O 	0.46755 0.95224 0.90275 -0.45900
O 	O 	0.44227 0.94697 0.85386 -0.45700
O 	O 	0.39214 0.93064 0.88763 -0.44200
O 	O 	0.37165 0.96751 0.92464 -0.44600
O 	O 	0.42312 0.98193 0.89082 -0.45400
O 	O 	0.65536 0.08267 0.98068 -0.44400
O 	O 	0.59420 0.10277 0.00054 -0.42500
O 	O 	0.68141 0.07413 0.93474 -0.45600
O 	O 	0.56744 0.11331 0.97160 -0.43500
O 	O 	0.65270 0.14470 0.87001 -0.46500
O 	O 	0.64991 0.08477 0.90239 -0.45300
C 	C 	0.53959 0.06431 0.01730 0.04900
C 	C 	0.56028 0.07087 0.02232 -0.10500
C 	C 	0.57457 0.09756 0.99691 0.36400
C 	C 	0.52116 0.90412 0.81069 0.08800
C 	C 	0.48951 0.92464 0.81663 -0.15400
C 	C 	0.47145 0.93046 0.84758 0.41700
C 	C 	0.41990 0.03384 0.89750 0.08600
C 	C 	0.43677 0.05371 0.91815 0.08200
C 	C 	0.44538 0.00558 0.90079 -0.14800
C 	C 	0.46329 0.02589 0.92120 -0.14200
C 	C 	0.46721 0.00198 0.91227 0.08200
C 	C 	0.41470 0.05765 0.90679 -0.15200
C 	C 	0.48382 0.01966 0.93810 0.40200
C 	C 	0.38413 0.08445 0.90850 0.41700
C 	C 	0.44572 0.97840 0.89726 0.41000
C 	C 	0.32335 0.96163 0.00835 0.07100
C 	C 	0.30301 0.98044 0.02847 -0.13300
C 	C 	0.67445 0.06406 0.96451 0.39700
Fe	Fe	0.40830 0.89070 0.74605 1.25800
Fe	Fe	0.66463 0.90422 0.32040 1.26300
O 	O 	0.57960 0.80449 0.76148 -0.45700
O 	O 	0.64480 0.78277 0.73977 -0.45700
O 	O 	0.50515 0.94315 0.55891 -0.45200
O 	O 	0.50294 0.00361 0.44692 -0.43200
O 	O 	0.47830 0.94822 0.53294 -0.44700
O 	O 	0.48575 0.86729 0.72999 -0.46100
O 	O 	0.46755 0.90275 0.67745 -0.45900
O 	O 	0.44227 0.85386 0.75690 -0.45700
O 	O 	0.39214 0.88763 0.78959 -0.44100
O 	O 	0.37165 0.92464 0.73620 -0.44600
O 	O 	0.42312 0.89082 0.70413 -0.45300
O 	O 	0.65536 0.98068 0.28130 -0.44400
O 	O 	0.59420 0.00054 0.30249 -0.42500
O 	O 	0.68141 0.93474 0.30972 -0.45600
O 	O 	0.56744 0.97160 0.34765 -0.43500
O 	O 	0.65270 0.87001 0.33260 -0.46500
O 	O 	0.64991 0.90239 0.36294 -0.45300
C 	C 	0.53959 0.01730 0.37880 0.04900
C 	C 	0.56028 0.02232 0.34653 -0.10500
C 	C 	0.57457 0.99691 0.33096 0.36500
C 	C 	0.52116 0.81069 0.76403 0.08800
C 	C 	0.48951 0.81663 0.76922 -0.15300
C 	C 	0.47145 0.84758 0.75051 0.41700
C 	C 	0.41990 0.89750 0.64876 0.08600
C 	C 	0.43677 0.91815 0.59137 0.08100
C 	C 	0.44538 0.90079 0.64825 -0.14900
C 	C 	0.46329 0.92120 0.58962 -0.14100
C 	C 	0.46721 0.91227 0.61855 0.08000
C 	C 	0.41470 0.90679 0.62086 -0.15200
C 	C 	0.48382 0.93810 0.55842 0.39900
C 	C 	0.38413 0.90850 0.62293 0.41600
C 	C 	0.44572 0.89726 0.67862 0.41100
C 	C 	0.32335 0.00835 0.70667 0.06900
C 	C 	0.30301 0.02847 0.68809 -0.13000
C 	C 	0.67445 0.96451 0.29698 0.39600
Fe	Fe	0.74605 0.95494 0.40830 1.25700
Fe	Fe	0.32040 0.11076 0.66463 1.26300
O 	O 	0.76148 0.85443 0.57960 -0.45700
O 	O 	0.73977 0.83266 0.64480 -0.45700
O 	O 	0.55891 0.99279 0.50515 -0.45400
O 	O 	0.44692 0.04653 0.50294 -0.43300
O 	O 	0.53294 0.04053 0.47830 -0.44700
O 	O 	0.72999 0.91698 0.48575 -0.46100
O 	O 	0.67745 0.95224 0.46755 -0.45900
O 	O 	0.75690 0.94697 0.44227 -0.45700
O 	O 	0.78959 0.93064 0.39214 -0.44200
O 	O 	0.73620 0.96751 0.37165 -0.44600
O 	O 	0.70413 0.98193 0.42312 -0.45400
O 	O 	0.28130 0.08267 0.65536 -0.44300
O 	O 	0.30249 0.10277 0.59420 -0.42800
O 	O 	0.30972 0.07413 0.68141 -0.45500
O 	O 	0.34765 0.11331 0.56744 -0.43500
O 	O 	0.33260 0.14470 0.65270 -0.46600
O 	O 	0.36294 0.08477 0.64991 -0.45300
C 	C 	0.37880 0.06431 0.53959 0.04800
C 	C 	0.34653 0.07087 0.56028 -0.10700
C 	C 	0.33096 0.09756 0.57457 0.36800
C 	C 	0.76403 0.90412 0.52116 0.08800
C 	C 	0.76922 0.92464 0.48951 -0.15400
C 	C 	0.75051 0.93046 0.47145 0.41700
C 	C 	0.64876 0.03384 0.41990 0.08600
C 	C 	0.59137 0.05371 0.43677 0.08200
C 	C 	0.64825 0.00558 0.44538 -0.14700
C 	C 	0.58962 0.02589 0.46329 -0.14100
C 	C 	0.61855 0.00198 0.46721 0.08200
C 	C 	0.62086 0.05765 0.41470 -0.15200
C 	C 	0.55842 0.01966 0.48382 0.40200
C 	C 	0.62293 0.08445 0.38413 0.41600
C 	C 	0.67862 0.97840 0.44572 0.41000
C 	C 	0.70667 0.96163 0.32335 0.06700
C 	C 	0.68809 0.98044 0.30301 -0.13200
C 	C 	0.29698 0.06406 0.67445 0.39600
Fe	Fe	0.95494 0.74605 0.89070 1.25700
Fe	Fe	0.11076 0.32040 0.90422 1.26300
O 	O 	0.85443 0.76148 0.80449 -0.45700
O 	O 	0.83266 0.73977 0.78277 -0.45700
O 	O 	0.99279 0.55891 0.94315 -0.45400
O 	O 	0.04653 0.44692 0.00361 -0.43200
O 	O 	0.04053 0.53294 0.94822 -0.44700
O 	O 	0.91698 0.72999 0.86729 -0.46100
O 	O 	0.95224 0.67745 0.90275 -0.45900
O 	O 	0.94697 0.75690 0.85386 -0.45700
O 	O 	0.93064 0.78959 0.88763 -0.44200
O 	O 	0.96751 0.73620 0.92464 -0.44600
O 	O 	0.98193 0.70413 0.89082 -0.45400
O 	O 	0.08267 0.28130 0.98068 -0.44400
O 	O 	0.10277 0.30249 0.00054 -0.42500
O 	O 	0.07413 0.30972 0.93474 -0.45500
O 	O 	0.11331 0.34765 0.97160 -0.43500
O 	O 	0.14470 0.33260 0.87001 -0.46600
O 	O 	0.08477 0.36294 0.90239 -0.45300
C 	C 	0.06431 0.37880 0.01730 0.04900
C 	C 	0.07087 0.34653 0.02232 -0.10500
C 	C 	0.09756 0.33096 0.99691 0.36400
C 	C 	0.90412 0.76403 0.81069 0.08800
C 	C 	0.92464 0.76922 0.81663 -0.15400
C 	C 	0.93046 0.75051 0.84758 0.41700
C 	C 	0.03384 0.64876 0.89750 0.08600
C 	C 	0.05371 0.59137 0.91815 0.08200
C 	C 	0.00558 0.64825 0.90079 -0.14800
C 	C 	0.02589 0.58962 0.92120 -0.14200
C 	C 	0.00198 0.61855 0.91227 0.08200
C 	C 	0.05765 0.62086 0.90679 -0.15200
C 	C 	0.01966 0.55842 0.93810 0.40200
C 	C 	0.08445 0.62293 0.90850 0.41600
C 	C 	0.97840 0.67862 0.89726 0.41000
C 	C 	0.96163 0.70667 0.00835 0.07000
C 	C 	0.98044 0.68809 0.02847 -0.13300
C 	C 	0.06406 0.29698 0.96451 0.39700
Fe	Fe	0.89070 0.40830 0.95494 1.25700
Fe	Fe	0.90422 0.66463 0.11076 1.26300
O 	O 	0.80449 0.57960 0.85443 -0.45700
O 	O 	0.78277 0.64480 0.83266 -0.45700
O 	O 	0.94315 0.50515 0.99279 -0.45400
O 	O 	0.00361 0.50294 0.04653 -0.43200
O 	O 	0.94822 0.47830 0.04053 -0.44700
O 	O 	0.86729 0.48575 0.91698 -0.46100
O 	O 	0.90275 0.46755 0.95224 -0.45900
O 	O 	0.85386 0.44227 0.94697 -0.45700
O 	O 	0.88763 0.39214 0.93064 -0.44200
O 	O 	0.92464 0.37165 0.96751 -0.44600
O 	O 	0.89082 0.42312 0.98193 -0.45400
O 	O 	0.98068 0.65536 0.08267 -0.44400
O 	O 	0.00054 0.59420 0.10277 -0.42500
O 	O 	0.93474 0.68141 0.07413 -0.45600
O 	O 	0.97160 0.56744 0.11331 -0.43500
O 	O 	0.87001 0.65270 0.14470 -0.46500
O 	O 	0.90239 0.64991 0.08477 -0.45300
C 	C 	0.01730 0.53959 0.06431 0.04900
C 	C 	0.02232 0.56028 0.07087 -0.10500
C 	C 	0.99691 0.57457 0.09756 0.36400
C 	C 	0.81069 0.52116 0.90412 0.08800
C 	C 	0.81663 0.48951 0.92464 -0.15400
C 	C 	0.84758 0.47145 0.93046 0.41700
C 	C 	0.89750 0.41990 0.03384 0.08600
C 	C 	0.91815 0.43677 0.05371 0.08200
C 	C 	0.90079 0.44538 0.00558 -0.14800
C 	C 	0.92120 0.46329 0.02589 -0.14200
C 	C 	0.91227 0.46721 0.00198 0.08200
C 	C 	0.90679 0.41470 0.05765 -0.15200
C 	C 	0.93810 0.48382 0.01966 0.40200
C 	C 	0.90850 0.38413 0.08445 0.41700
C 	C 	0.89726 0.44572 0.97840 0.41000
C 	C 	0.00835 0.32335 0.96163 0.07100
C 	C 	0.02847 0.30301 0.98044 -0.13300
C 	C 	0.96451 0.67445 0.06406 0.39700
Fe	Fe	0.50395 0.84170 0.29506 1.25800
Fe	Fe	0.92960 0.58537 0.13924 1.26300
O 	O 	0.48852 0.67040 0.39557 -0.45700
O 	O 	0.51023 0.60520 0.41734 -0.45700
O 	O 	0.69109 0.74485 0.25721 -0.45200
O 	O 	0.80308 0.74706 0.20347 -0.43300
O 	O 	0.71706 0.77170 0.20947 -0.44600
O 	O 	0.52001 0.76425 0.33302 -0.46100
O 	O 	0.57255 0.78245 0.29776 -0.45900
O 	O 	0.49310 0.80773 0.30303 -0.45700
O 	O 	0.46041 0.85786 0.31936 -0.44100
O 	O 	0.51380 0.87835 0.28249 -0.44500
O 	O 	0.54587 0.82688 0.26807 -0.45300
O 	O 	0.96870 0.59464 0.16733 -0.44400
O 	O 	0.94751 0.65580 0.14723 -0.42800
O 	O 	0.94028 0.56859 0.17587 -0.45500
O 	O 	0.90235 0.68256 0.13669 -0.43500
O 	O 	0.91740 0.59730 0.10530 -0.46600
O 	O 	0.88706 0.60009 0.16523 -0.45300
C 	C 	0.87120 0.71041 0.18569 0.04800
C 	C 	0.90347 0.68972 0.17913 -0.10700
C 	C 	0.91904 0.67543 0.15244 0.36800
C 	C 	0.48597 0.72884 0.34588 0.08800
C 	C 	0.48078 0.76049 0.32536 -0.15300
C 	C 	0.49949 0.77855 0.31954 0.41700
C 	C 	0.60124 0.83010 0.21616 0.08600
C 	C 	0.65863 0.81323 0.19629 0.08100
C 	C 	0.60175 0.80462 0.24442 -0.14900
C 	C 	0.66038 0.78671 0.22411 -0.14000
C 	C 	0.63145 0.78279 0.24802 0.08000
C 	C 	0.62914 0.83530 0.19235 -0.15200
C 	C 	0.69158 0.76618 0.23034 0.39900
C 	C 	0.62707 0.86587 0.16555 0.41600
C 	C 	0.57138 0.80428 0.27160 0.41100
C 	C 	0.54333 0.92665 0.28837 0.06600
C 	C 	0.56191 0.94699 0.26956 -0.12900
C 	C 	0.95302 0.57555 0.18594 0.39500
Fe	Fe	0.84170 0.50395 0.35930 1.25800
Fe	Fe	0.58537 0.92960 0.34578 1.26300
O 	O 	0.67040 0.48852 0.44551 -0.45700
O 	O 	0.60520 0.51023 0.46723 -0.45700
O 	O 	0.74485 0.69109 0.30685 -0.45200
O 	O 	0.74706 0.80308 0.24639 -0.43400
O 	O 	0.77170 0.71706 0.30178 -0.44600
O 	O 	0.76425 0.52001 0.38271 -0.46100
O 	O 	0.78245 0.57255 0.34725 -0.45900
O 	O 	0.80773 0.49310 0.39614 -0.45700
O 	O 	0.85786 0.46041 0.36237 -0.44100
O 	O 	0.87835 0.51380 0.32536 -0.44500
O 	O 	0.82688 0.54587 0.35918 -0.45300
O 	O 	0.59464 0.96870 0.26932 -0.44400
O 	O 	0.65580 0.94751 0.24946 -0.42800
O 	O 	0.56859 0.94028 0.31526 -0.45500
O 	O 	0.68256 0.90235 0.27840 -0.43500
O 	O 	0.59730 0.91740 0.37999 -0.46600
O 	O 	0.60009 0.88706 0.34761 -0.45300
C 	C 	0.71041 0.87120 0.23270 0.04700
C 	C 	0.68972 0.90347 0.22768 -0.10700
C 	C 	0.67543 0.91904 0.25309 0.36800
C 	C 	0.72884 0.48597 0.43931 0.08800
C 	C 	0.76049 0.48078 0.43337 -0.15300
C 	C 	0.77855 0.49949 0.40242 0.41700
C 	C 	0.83010 0.60124 0.35250 0.08600
C 	C 	0.81323 0.65863 0.33185 0.08100
C 	C 	0.80462 0.60175 0.34921 -0.14900
C 	C 	0.78671 0.66038 0.32880 -0.14000
C 	C 	0.78279 0.63145 0.33773 0.08000
C 	C 	0.83530 0.62914 0.34321 -0.15200
C 	C 	0.76618 0.69158 0.31190 0.39900
C 	C 	0.86587 0.62707 0.34150 0.41600
C 	C 	0.80428 0.57138 0.35274 0.41100
C 	C 	0.92665 0.54333 0.24165 0.06600
C 	C 	0.94699 0.56191 0.22153 -0.12900
C 	C 	0.57555 0.95302 0.28549 0.39500
Fe	Fe	0.35930 0.29506 0.84170 1.25800
Fe	Fe	0.34578 0.13924 0.58537 1.26300
O 	O 	0.44551 0.39557 0.67040 -0.45700
O 	O 	0.46723 0.41734 0.60520 -0.45700
O 	O 	0.30685 0.25721 0.74485 -0.45200
O 	O 	0.24639 0.20347 0.74706 -0.43300
O 	O 	0.30178 0.20947 0.77170 -0.44600
O 	O 	0.38271 0.33302 0.76425 -0.46100
O 	O 	0.34725 0.29776 0.78245 -0.45900
O 	O 	0.39614 0.30303 0.80773 -0.45700
O 	O 	0.36237 0.31936 0.85786 -0.44200
O 	O 	0.32536 0.28249 0.87835 -0.44500
O 	O 	0.35918 0.26807 0.82688 -0.45300
O 	O 	0.26932 0.16733 0.59464 -0.44300
O 	O 	0.24946 0.14723 0.65580 -0.42800
O 	O 	0.31526 0.17587 0.56859 -0.45500
O 	O 	0.27840 0.13669 0.68256 -0.43500
O 	O 	0.37999 0.10530 0.59730 -0.46600
O 	O 	0.34761 0.16523 0.60009 -0.45300
C 	C 	0.23270 0.18569 0.71041 0.04700
C 	C 	0.22768 0.17913 0.68972 -0.10700
C 	C 	0.25309 0.15244 0.67543 0.36800
C 	C 	0.43931 0.34588 0.72884 0.08800
C 	C 	0.43337 0.32536 0.76049 -0.15300
C 	C 	0.40242 0.31954 0.77855 0.41700
C 	C 	0.35250 0.21616 0.83010 0.08600
C 	C 	0.33185 0.19629 0.81323 0.08100
C 	C 	0.34921 0.24442 0.80462 -0.14900
C 	C 	0.32880 0.22411 0.78671 -0.14100
C 	C 	0.33773 0.24802 0.78279 0.08000
C 	C 	0.34321 0.19235 0.83530 -0.15200
C 	C 	0.31190 0.23034 0.76618 0.39900
C 	C 	0.34150 0.16555 0.86587 0.41700
C 	C 	0.35274 0.27160 0.80428 0.41100
C 	C 	0.24165 0.28837 0.92665 0.06600
C 	C 	0.22153 0.26956 0.94699 -0.12900
C 	C 	0.28549 0.18594 0.57555 0.39500
Fe	Fe	0.29506 0.35930 0.50395 1.25800
Fe	Fe	0.13924 0.34578 0.92960 1.26300
O 	O 	0.39557 0.44551 0.48852 -0.45700
O 	O 	0.41734 0.46723 0.51023 -0.45700
O 	O 	0.25721 0.30685 0.69109 -0.45200
O 	O 	0.20347 0.24639 0.80308 -0.43300
O 	O 	0.20947 0.30178 0.71706 -0.44600
O 	O 	0.33302 0.38271 0.52001 -0.46100
O 	O 	0.29776 0.34725 0.57255 -0.45900
O 	O 	0.30303 0.39614 0.49310 -0.45700
O 	O 	0.31936 0.36237 0.46041 -0.44100
O 	O 	0.28249 0.32536 0.51380 -0.44500
O 	O 	0.26807 0.35918 0.54587 -0.45300
O 	O 	0.16733 0.26932 0.96870 -0.44400
O 	O 	0.14723 0.24946 0.94751 -0.42800
O 	O 	0.17587 0.31526 0.94028 -0.45500
O 	O 	0.13669 0.27840 0.90235 -0.43500
O 	O 	0.10530 0.37999 0.91740 -0.46600
O 	O 	0.16523 0.34761 0.88706 -0.45300
C 	C 	0.18569 0.23270 0.87120 0.04800
C 	C 	0.17913 0.22768 0.90347 -0.10700
C 	C 	0.15244 0.25309 0.91904 0.36800
C 	C 	0.34588 0.43931 0.48597 0.08800
C 	C 	0.32536 0.43337 0.48078 -0.15400
C 	C 	0.31954 0.40242 0.49949 0.41700
C 	C 	0.21616 0.35250 0.60124 0.08600
C 	C 	0.19629 0.33185 0.65863 0.08100
C 	C 	0.24442 0.34921 0.60175 -0.14900
C 	C 	0.22411 0.32880 0.66038 -0.14100
C 	C 	0.24802 0.33773 0.63145 0.08000
C 	C 	0.19235 0.34321 0.62914 -0.15100
C 	C 	0.23034 0.31190 0.69158 0.39900
C 	C 	0.16555 0.34150 0.62707 0.41600
C 	C 	0.27160 0.35274 0.57138 0.41100
C 	C 	0.28837 0.24165 0.54333 0.06600
C 	C 	0.26956 0.22153 0.56191 -0.12900
C 	C 	0.18594 0.28549 0.95302 0.39500
Fe	Fe	0.35930 0.50395 0.29506 1.25800
Fe	Fe	0.34578 0.92960 0.13924 1.26300
O 	O 	0.44551 0.48852 0.39557 -0.45700
O 	O 	0.46723 0.51023 0.41734 -0.45700
O 	O 	0.30685 0.69109 0.25721 -0.45200
O 	O 	0.24639 0.80308 0.20347 -0.43300
O 	O 	0.30178 0.71706 0.20947 -0.44600
O 	O 	0.38271 0.52001 0.33302 -0.46100
O 	O 	0.34725 0.57255 0.29776 -0.45900
O 	O 	0.39614 0.49310 0.30303 -0.45700
O 	O 	0.36237 0.46041 0.31936 -0.44100
O 	O 	0.32536 0.51380 0.28249 -0.44500
O 	O 	0.35918 0.54587 0.26807 -0.45300
O 	O 	0.26932 0.96870 0.16733 -0.44400
O 	O 	0.24946 0.94751 0.14723 -0.42800
O 	O 	0.31526 0.94028 0.17587 -0.45500
O 	O 	0.27840 0.90235 0.13669 -0.43500
O 	O 	0.37999 0.91740 0.10530 -0.46600
O 	O 	0.34761 0.88706 0.16523 -0.45300
C 	C 	0.23270 0.87120 0.18569 0.04800
C 	C 	0.22768 0.90347 0.17913 -0.10700
C 	C 	0.25309 0.91904 0.15244 0.36800
C 	C 	0.43931 0.48597 0.34588 0.08800
C 	C 	0.43337 0.48078 0.32536 -0.15400
C 	C 	0.40242 0.49949 0.31954 0.41700
C 	C 	0.35250 0.60124 0.21616 0.08600
C 	C 	0.33185 0.65863 0.19629 0.08100
C 	C 	0.34921 0.60175 0.24442 -0.14900
C 	C 	0.32880 0.66038 0.22411 -0.14100
C 	C 	0.33773 0.63145 0.24802 0.08000
C 	C 	0.34321 0.62914 0.19235 -0.15100
C 	C 	0.31190 0.69158 0.23034 0.39900
C 	C 	0.34150 0.62707 0.16555 0.41600
C 	C 	0.35274 0.57138 0.27160 0.41100
C 	C 	0.24165 0.54333 0.28837 0.06600
C 	C 	0.22153 0.56191 0.26956 -0.12900
C 	C 	0.28549 0.95302 0.18594 0.39500
Fe	Fe	0.29506 0.84170 0.35930 1.25800
Fe	Fe	0.13924 0.58537 0.34578 1.26300
O 	O 	0.39557 0.67040 0.44551 -0.45700
O 	O 	0.41734 0.60520 0.46723 -0.45700
O 	O 	0.25721 0.74485 0.30685 -0.45200
O 	O 	0.20347 0.74706 0.24639 -0.43300
O 	O 	0.20947 0.77170 0.30178 -0.44600
O 	O 	0.33302 0.76425 0.38271 -0.46100
O 	O 	0.29776 0.78245 0.34725 -0.45900
O 	O 	0.30303 0.80773 0.39614 -0.45700
O 	O 	0.31936 0.85786 0.36237 -0.44200
O 	O 	0.28249 0.87835 0.32536 -0.44500
O 	O 	0.26807 0.82688 0.35918 -0.45300
O 	O 	0.16733 0.59464 0.26932 -0.44300
O 	O 	0.14723 0.65580 0.24946 -0.42800
O 	O 	0.17587 0.56859 0.31526 -0.45500
O 	O 	0.13669 0.68256 0.27840 -0.43500
O 	O 	0.10530 0.59730 0.37999 -0.46600
O 	O 	0.16523 0.60009 0.34761 -0.45300
C 	C 	0.18569 0.71041 0.23270 0.04700
C 	C 	0.17913 0.68972 0.22768 -0.10700
C 	C 	0.15244 0.67543 0.25309 0.36800
C 	C 	0.34588 0.72884 0.43931 0.08800
C 	C 	0.32536 0.76049 0.43337 -0.15300
C 	C 	0.31954 0.77855 0.40242 0.41700
C 	C 	0.21616 0.83010 0.35250 0.08600
C 	C 	0.19629 0.81323 0.33185 0.08100
C 	C 	0.24442 0.80462 0.34921 -0.14900
C 	C 	0.22411 0.78671 0.32880 -0.14100
C 	C 	0.24802 0.78279 0.33773 0.08000
C 	C 	0.19235 0.83530 0.34321 -0.15200
C 	C 	0.23034 0.76618 0.31190 0.39900
C 	C 	0.16555 0.86587 0.34150 0.41700
C 	C 	0.27160 0.80428 0.35274 0.41100
C 	C 	0.28837 0.92665 0.24165 0.06600
C 	C 	0.26956 0.94699 0.22153 -0.12900
C 	C 	0.18594 0.57555 0.28549 0.39500
Fe	Fe	0.50395 0.35930 0.84170 1.25800
Fe	Fe	0.92960 0.34578 0.58537 1.26300
O 	O 	0.48852 0.44551 0.67040 -0.45700
O 	O 	0.51023 0.46723 0.60520 -0.45700
O 	O 	0.69109 0.30685 0.74485 -0.45200
O 	O 	0.80308 0.24639 0.74706 -0.43400
O 	O 	0.71706 0.30178 0.77170 -0.44600
O 	O 	0.52001 0.38271 0.76425 -0.46100
O 	O 	0.57255 0.34725 0.78245 -0.45900
O 	O 	0.49310 0.39614 0.80773 -0.45700
O 	O 	0.46041 0.36237 0.85786 -0.44100
O 	O 	0.51380 0.32536 0.87835 -0.44500
O 	O 	0.54587 0.35918 0.82688 -0.45300
O 	O 	0.96870 0.26932 0.59464 -0.44400
O 	O 	0.94751 0.24946 0.65580 -0.42800
O 	O 	0.94028 0.31526 0.56859 -0.45500
O 	O 	0.90235 0.27840 0.68256 -0.43500
O 	O 	0.91740 0.37999 0.59730 -0.46600
O 	O 	0.88706 0.34761 0.60009 -0.45300
C 	C 	0.87120 0.23270 0.71041 0.04700
C 	C 	0.90347 0.22768 0.68972 -0.10700
C 	C 	0.91904 0.25309 0.67543 0.36800
C 	C 	0.48597 0.43931 0.72884 0.08800
C 	C 	0.48078 0.43337 0.76049 -0.15300
C 	C 	0.49949 0.40242 0.77855 0.41700
C 	C 	0.60124 0.35250 0.83010 0.08600
C 	C 	0.65863 0.33185 0.81323 0.08100
C 	C 	0.60175 0.34921 0.80462 -0.14900
C 	C 	0.66038 0.32880 0.78671 -0.14000
C 	C 	0.63145 0.33773 0.78279 0.08000
C 	C 	0.62914 0.34321 0.83530 -0.15200
C 	C 	0.69158 0.31190 0.76618 0.39900
C 	C 	0.62707 0.34150 0.86587 0.41600
C 	C 	0.57138 0.35274 0.80428 0.41100
C 	C 	0.54333 0.24165 0.92665 0.06600
C 	C 	0.56191 0.22153 0.94699 -0.12900
C 	C 	0.95302 0.28549 0.57555 0.39500
Fe	Fe	0.84170 0.29506 0.50395 1.25800
Fe	Fe	0.58537 0.13924 0.92960 1.26300
O 	O 	0.67040 0.39557 0.48852 -0.45700
O 	O 	0.60520 0.41734 0.51023 -0.45700
O 	O 	0.74485 0.25721 0.69109 -0.45200
O 	O 	0.74706 0.20347 0.80308 -0.43300
O 	O 	0.77170 0.20947 0.71706 -0.44600
O 	O 	0.76425 0.33302 0.52001 -0.46100
O 	O 	0.78245 0.29776 0.57255 -0.45900
O 	O 	0.80773 0.30303 0.49310 -0.45700
O 	O 	0.85786 0.31936 0.46041 -0.44100
O 	O 	0.87835 0.28249 0.51380 -0.44500
O 	O 	0.82688 0.26807 0.54587 -0.45300
O 	O 	0.59464 0.16733 0.96870 -0.44400
O 	O 	0.65580 0.14723 0.94751 -0.42800
O 	O 	0.56859 0.17587 0.94028 -0.45500
O 	O 	0.68256 0.13669 0.90235 -0.43500
O 	O 	0.59730 0.10530 0.91740 -0.46600
O 	O 	0.60009 0.16523 0.88706 -0.45300
C 	C 	0.71041 0.18569 0.87120 0.04800
C 	C 	0.68972 0.17913 0.90347 -0.10700
C 	C 	0.67543 0.15244 0.91904 0.36800
C 	C 	0.72884 0.34588 0.48597 0.08800
C 	C 	0.76049 0.32536 0.48078 -0.15300
C 	C 	0.77855 0.31954 0.49949 0.41700
C 	C 	0.83010 0.21616 0.60124 0.08600
C 	C 	0.81323 0.19629 0.65863 0.08100
C 	C 	0.80462 0.24442 0.60175 -0.14900
C 	C 	0.78671 0.22411 0.66038 -0.14000
C 	C 	0.78279 0.24802 0.63145 0.08000
C 	C 	0.83530 0.19235 0.62914 -0.15200
C 	C 	0.76618 0.23034 0.69158 0.39900
C 	C 	0.86587 0.16555 0.62707 0.41600
C 	C 	0.80428 0.27160 0.57138 0.41100
C 	C 	0.92665 0.28837 0.54333 0.06600
C 	C 	0.94699 0.26956 0.56191 -0.12900
C 	C 	0.57555 0.18594 0.95302 0.39500
Fe	Fe	0.84170 0.35930 0.29506 1.25800
Fe	Fe	0.58537 0.34578 0.13924 1.26300
O 	O 	0.67040 0.44551 0.39557 -0.45700
O 	O 	0.60520 0.46723 0.41734 -0.45700
O 	O 	0.74485 0.30685 0.25721 -0.45200
O 	O 	0.74706 0.24639 0.20347 -0.43300
O 	O 	0.77170 0.30178 0.20947 -0.44600
O 	O 	0.76425 0.38271 0.33302 -0.46100
O 	O 	0.78245 0.34725 0.29776 -0.45900
O 	O 	0.80773 0.39614 0.30303 -0.45700
O 	O 	0.85786 0.36237 0.31936 -0.44200
O 	O 	0.87835 0.32536 0.28249 -0.44500
O 	O 	0.82688 0.35918 0.26807 -0.45300
O 	O 	0.59464 0.26932 0.16733 -0.44300
O 	O 	0.65580 0.24946 0.14723 -0.42800
O 	O 	0.56859 0.31526 0.17587 -0.45500
O 	O 	0.68256 0.27840 0.13669 -0.43500
O 	O 	0.59730 0.37999 0.10530 -0.46600
O 	O 	0.60009 0.34761 0.16523 -0.45300
C 	C 	0.71041 0.23270 0.18569 0.04700
C 	C 	0.68972 0.22768 0.17913 -0.10700
C 	C 	0.67543 0.25309 0.15244 0.36800
C 	C 	0.72884 0.43931 0.34588 0.08800
C 	C 	0.76049 0.43337 0.32536 -0.15300
C 	C 	0.77855 0.40242 0.31954 0.41700
C 	C 	0.83010 0.35250 0.21616 0.08600
C 	C 	0.81323 0.33185 0.19629 0.08100
C 	C 	0.80462 0.34921 0.24442 -0.14900
C 	C 	0.78671 0.32880 0.22411 -0.14100
C 	C 	0.78279 0.33773 0.24802 0.08000
C 	C 	0.83530 0.34321 0.19235 -0.15200
C 	C 	0.76618 0.31190 0.23034 0.39900
C 	C 	0.86587 0.34150 0.16555 0.41700
C 	C 	0.80428 0.35274 0.27160 0.41100
C 	C 	0.92665 0.24165 0.28837 0.06600
C 	C 	0.94699 0.22153 0.26956 -0.12900
C 	C 	0.57555 0.28549 0.18594 0.39500
Fe	Fe	0.50395 0.29506 0.35930 1.25800
Fe	Fe	0.92960 0.13924 0.34578 1.26300
O 	O 	0.48852 0.39557 0.44551 -0.45700
O 	O 	0.51023 0.41734 0.46723 -0.45700
O 	O 	0.69109 0.25721 0.30685 -0.45200
O 	O 	0.80308 0.20347 0.24639 -0.43300
O 	O 	0.71706 0.20947 0.30178 -0.44600
O 	O 	0.52001 0.33302 0.38271 -0.46100
O 	O 	0.57255 0.29776 0.34725 -0.45900
O 	O 	0.49310 0.30303 0.39614 -0.45700
O 	O 	0.46041 0.31936 0.36237 -0.44100
O 	O 	0.51380 0.28249 0.32536 -0.44500
O 	O 	0.54587 0.26807 0.35918 -0.45300
O 	O 	0.96870 0.16733 0.26932 -0.44400
O 	O 	0.94751 0.14723 0.24946 -0.42800
O 	O 	0.94028 0.17587 0.31526 -0.45500
O 	O 	0.90235 0.13669 0.27840 -0.43500
O 	O 	0.91740 0.10530 0.37999 -0.46600
O 	O 	0.88706 0.16523 0.34761 -0.45300
C 	C 	0.87120 0.18569 0.23270 0.04800
C 	C 	0.90347 0.17913 0.22768 -0.10700
C 	C 	0.91904 0.15244 0.25309 0.36800
C 	C 	0.48597 0.34588 0.43931 0.08800
C 	C 	0.48078 0.32536 0.43337 -0.15400
C 	C 	0.49949 0.31954 0.40242 0.41700
C 	C 	0.60124 0.21616 0.35250 0.08600
C 	C 	0.65863 0.19629 0.33185 0.08100
C 	C 	0.60175 0.24442 0.34921 -0.14900
C 	C 	0.66038 0.22411 0.32880 -0.14100
C 	C 	0.63145 0.24802 0.33773 0.08000
C 	C 	0.62914 0.19235 0.34321 -0.15100
C 	C 	0.69158 0.23034 0.31190 0.39900
C 	C 	0.62707 0.16555 0.34150 0.41600
C 	C 	0.57138 0.27160 0.35274 0.41100
C 	C 	0.54333 0.28837 0.24165 0.06600
C 	C 	0.56191 0.26956 0.22153 -0.12900
C 	C 	0.95302 0.18594 0.28549 0.39500
Fe	Fe	0.29506 0.50395 0.84170 1.25800
Fe	Fe	0.13924 0.92960 0.58537 1.26300
O 	O 	0.39557 0.48852 0.67040 -0.45700
O 	O 	0.41734 0.51023 0.60520 -0.45700
O 	O 	0.25721 0.69109 0.74485 -0.45200
O 	O 	0.20347 0.80308 0.74706 -0.43300
O 	O 	0.20947 0.71706 0.77170 -0.44600
O 	O 	0.33302 0.52001 0.76425 -0.46100
O 	O 	0.29776 0.57255 0.78245 -0.45900
O 	O 	0.30303 0.49310 0.80773 -0.45700
O 	O 	0.31936 0.46041 0.85786 -0.44100
O 	O 	0.28249 0.51380 0.87835 -0.44500
O 	O 	0.26807 0.54587 0.82688 -0.45300
O 	O 	0.16733 0.96870 0.59464 -0.44400
O 	O 	0.14723 0.94751 0.65580 -0.42800
O 	O 	0.17587 0.94028 0.56859 -0.45500
O 	O 	0.13669 0.90235 0.68256 -0.43500
O 	O 	0.10530 0.91740 0.59730 -0.46600
O 	O 	0.16523 0.88706 0.60009 -0.45300
C 	C 	0.18569 0.87120 0.71041 0.04800
C 	C 	0.17913 0.90347 0.68972 -0.10700
C 	C 	0.15244 0.91904 0.67543 0.36800
C 	C 	0.34588 0.48597 0.72884 0.08800
C 	C 	0.32536 0.48078 0.76049 -0.15300
C 	C 	0.31954 0.49949 0.77855 0.41700
C 	C 	0.21616 0.60124 0.83010 0.08600
C 	C 	0.19629 0.65863 0.81323 0.08100
C 	C 	0.24442 0.60175 0.80462 -0.14900
C 	C 	0.22411 0.66038 0.78671 -0.14000
C 	C 	0.24802 0.63145 0.78279 0.08000
C 	C 	0.19235 0.62914 0.83530 -0.15200
C 	C 	0.23034 0.69158 0.76618 0.39900
C 	C 	0.16555 0.62707 0.86587 0.41600
C 	C 	0.27160 0.57138 0.80428 0.41100
C 	C 	0.28837 0.54333 0.92665 0.06600
C 	C 	0.26956 0.56191 0.94699 -0.12900
C 	C 	0.18594 0.95302 0.57555 0.39500
Fe	Fe	0.35930 0.84170 0.50395 1.25800
Fe	Fe	0.34578 0.58537 0.92960 1.26300
O 	O 	0.44551 0.67040 0.48852 -0.45700
O 	O 	0.46723 0.60520 0.51023 -0.45700
O 	O 	0.30685 0.74485 0.69109 -0.45200
O 	O 	0.24639 0.74706 0.80308 -0.43400
O 	O 	0.30178 0.77170 0.71706 -0.44600
O 	O 	0.38271 0.76425 0.52001 -0.46100
O 	O 	0.34725 0.78245 0.57255 -0.45900
O 	O 	0.39614 0.80773 0.49310 -0.45700
O 	O 	0.36237 0.85786 0.46041 -0.44100
O 	O 	0.32536 0.87835 0.51380 -0.44500
O 	O 	0.35918 0.82688 0.54587 -0.45300
O 	O 	0.26932 0.59464 0.96870 -0.44400
O 	O 	0.24946 0.65580 0.94751 -0.42800
O 	O 	0.31526 0.56859 0.94028 -0.45500
O 	O 	0.27840 0.68256 0.90235 -0.43500
O 	O 	0.37999 0.59730 0.91740 -0.46600
O 	O 	0.34761 0.60009 0.88706 -0.45300
C 	C 	0.23270 0.71041 0.87120 0.04700
C 	C 	0.22768 0.68972 0.90347 -0.10700
C 	C 	0.25309 0.67543 0.91904 0.36800
C 	C 	0.43931 0.72884 0.48597 0.08800
C 	C 	0.43337 0.76049 0.48078 -0.15300
C 	C 	0.40242 0.77855 0.49949 0.41700
C 	C 	0.35250 0.83010 0.60124 0.08600
C 	C 	0.33185 0.81323 0.65863 0.08100
C 	C 	0.34921 0.80462 0.60175 -0.14900
C 	C 	0.32880 0.78671 0.66038 -0.14000
C 	C 	0.33773 0.78279 0.63145 0.08000
C 	C 	0.34321 0.83530 0.62914 -0.15200
C 	C 	0.31190 0.76618 0.69158 0.39900
C 	C 	0.34150 0.86587 0.62707 0.41600
C 	C 	0.35274 0.80428 0.57138 0.41100
C 	C 	0.24165 0.92665 0.54333 0.06600
C 	C 	0.22153 0.94699 0.56191 -0.12900
C 	C 	0.28549 0.57555 0.95302 0.39500
Fe	Fe	0.50395 0.84170 0.35930 1.25800
Fe	Fe	0.92960 0.58537 0.34578 1.26300
O 	O 	0.48852 0.67040 0.44551 -0.45700
O 	O 	0.51023 0.60520 0.46723 -0.45700
O 	O 	0.69109 0.74485 0.30685 -0.45200
O 	O 	0.80308 0.74706 0.24639 -0.43400
O 	O 	0.71706 0.77169 0.30178 -0.44600
O 	O 	0.52001 0.76425 0.38271 -0.46100
O 	O 	0.57255 0.78245 0.34725 -0.45900
O 	O 	0.49310 0.80773 0.39614 -0.45700
O 	O 	0.46041 0.85786 0.36237 -0.44100
O 	O 	0.51380 0.87835 0.32536 -0.44500
O 	O 	0.54587 0.82688 0.35918 -0.45300
O 	O 	0.96870 0.59464 0.26932 -0.44400
O 	O 	0.94751 0.65580 0.24946 -0.42800
O 	O 	0.94028 0.56859 0.31526 -0.45500
O 	O 	0.90235 0.68256 0.27840 -0.43500
O 	O 	0.91740 0.59730 0.37999 -0.46600
O 	O 	0.88706 0.60009 0.34761 -0.45300
C 	C 	0.87120 0.71041 0.23270 0.04700
C 	C 	0.90347 0.68972 0.22768 -0.10700
C 	C 	0.91904 0.67543 0.25309 0.36800
C 	C 	0.48597 0.72884 0.43931 0.08800
C 	C 	0.48078 0.76049 0.43337 -0.15300
C 	C 	0.49949 0.77855 0.40242 0.41700
C 	C 	0.60124 0.83010 0.35250 0.08600
C 	C 	0.65863 0.81323 0.33185 0.08100
C 	C 	0.60175 0.80462 0.34921 -0.14900
C 	C 	0.66038 0.78671 0.32880 -0.14100
C 	C 	0.63145 0.78279 0.33773 0.08000
C 	C 	0.62914 0.83530 0.34321 -0.15200
C 	C 	0.69158 0.76618 0.31190 0.39900
C 	C 	0.62707 0.86587 0.34150 0.41600
C 	C 	0.57138 0.80428 0.35274 0.41100
C 	C 	0.54333 0.92665 0.24165 0.06600
C 	C 	0.56191 0.94699 0.22153 -0.12900
C 	C 	0.95302 0.57555 0.28549 0.39500
Fe	Fe	0.84170 0.50395 0.29506 1.25800
Fe	Fe	0.58537 0.92960 0.13924 1.26300
O 	O 	0.67040 0.48852 0.39557 -0.45700
O 	O 	0.60520 0.51023 0.41734 -0.45700
O 	O 	0.74485 0.69109 0.25721 -0.45200
O 	O 	0.74706 0.80308 0.20347 -0.43300
O 	O 	0.77169 0.71706 0.20947 -0.44600
O 	O 	0.76425 0.52001 0.33302 -0.46100
O 	O 	0.78245 0.57255 0.29776 -0.45900
O 	O 	0.80773 0.49310 0.30303 -0.45700
O 	O 	0.85786 0.46041 0.31936 -0.44100
O 	O 	0.87835 0.51380 0.28249 -0.44500
O 	O 	0.82688 0.54587 0.26807 -0.45300
O 	O 	0.59464 0.96870 0.16733 -0.44400
O 	O 	0.65580 0.94751 0.14723 -0.42800
O 	O 	0.56859 0.94028 0.17587 -0.45500
O 	O 	0.68256 0.90235 0.13669 -0.43500
O 	O 	0.59730 0.91740 0.10530 -0.46600
O 	O 	0.60009 0.88706 0.16523 -0.45300
C 	C 	0.71041 0.87120 0.18569 0.04800
C 	C 	0.68972 0.90347 0.17913 -0.10700
C 	C 	0.67543 0.91904 0.15244 0.36800
C 	C 	0.72884 0.48597 0.34588 0.08800
C 	C 	0.76049 0.48078 0.32536 -0.15300
C 	C 	0.77855 0.49949 0.31954 0.41700
C 	C 	0.83010 0.60124 0.21616 0.08600
C 	C 	0.81323 0.65863 0.19629 0.08100
C 	C 	0.80462 0.60175 0.24442 -0.14900
C 	C 	0.78671 0.66038 0.22411 -0.14000
C 	C 	0.78279 0.63145 0.24802 0.08000
C 	C 	0.83530 0.62914 0.19235 -0.15200
C 	C 	0.76618 0.69158 0.23034 0.39900
C 	C 	0.86587 0.62707 0.16555 0.41600
C 	C 	0.80428 0.57138 0.27160 0.41100
C 	C 	0.92665 0.54333 0.28837 0.06600
C 	C 	0.94699 0.56191 0.26956 -0.12900
C 	C 	0.57555 0.95302 0.18594 0.39500
Fe	Fe	0.35930 0.29506 0.50395 1.25800
Fe	Fe	0.34578 0.13924 0.92960 1.26300
O 	O 	0.44551 0.39557 0.48852 -0.45700
O 	O 	0.46723 0.41734 0.51023 -0.45700
O 	O 	0.30685 0.25721 0.69109 -0.45200
O 	O 	0.24639 0.20347 0.80308 -0.43300
O 	O 	0.30178 0.20947 0.71706 -0.44600
O 	O 	0.38271 0.33302 0.52001 -0.46100
O 	O 	0.34725 0.29776 0.57255 -0.45900
O 	O 	0.39614 0.30303 0.49310 -0.45700
O 	O 	0.36237 0.31936 0.46041 -0.44100
O 	O 	0.32536 0.28249 0.51380 -0.44500
O 	O 	0.35918 0.26807 0.54587 -0.45300
O 	O 	0.26932 0.16733 0.96870 -0.44400
O 	O 	0.24946 0.14723 0.94751 -0.42800
O 	O 	0.31526 0.17587 0.94028 -0.45500
O 	O 	0.27840 0.13669 0.90235 -0.43500
O 	O 	0.37999 0.10530 0.91740 -0.46600
O 	O 	0.34761 0.16523 0.88706 -0.45300
C 	C 	0.23270 0.18569 0.87120 0.04800
C 	C 	0.22768 0.17913 0.90347 -0.10700
C 	C 	0.25309 0.15244 0.91904 0.36800
C 	C 	0.43931 0.34588 0.48597 0.08800
C 	C 	0.43337 0.32536 0.48078 -0.15400
C 	C 	0.40242 0.31954 0.49949 0.41700
C 	C 	0.35250 0.21616 0.60124 0.08600
C 	C 	0.33185 0.19629 0.65863 0.08100
C 	C 	0.34921 0.24442 0.60175 -0.14900
C 	C 	0.32880 0.22411 0.66038 -0.14100
C 	C 	0.33773 0.24802 0.63145 0.08000
C 	C 	0.34321 0.19235 0.62914 -0.15100
C 	C 	0.31190 0.23034 0.69158 0.39900
C 	C 	0.34150 0.16555 0.62707 0.41600
C 	C 	0.35274 0.27160 0.57138 0.41100
C 	C 	0.24165 0.28837 0.54333 0.06600
C 	C 	0.22153 0.26956 0.56191 -0.12900
C 	C 	0.28549 0.18594 0.95302 0.39500
Fe	Fe	0.29506 0.35930 0.84170 1.25800
Fe	Fe	0.13924 0.34578 0.58537 1.26300
O 	O 	0.39557 0.44551 0.67040 -0.45700
O 	O 	0.41734 0.46723 0.60520 -0.45700
O 	O 	0.25721 0.30685 0.74485 -0.45200
O 	O 	0.20347 0.24639 0.74706 -0.43300
O 	O 	0.20947 0.30178 0.77169 -0.44600
O 	O 	0.33302 0.38271 0.76425 -0.46100
O 	O 	0.29776 0.34725 0.78245 -0.45900
O 	O 	0.30303 0.39614 0.80773 -0.45700
O 	O 	0.31936 0.36237 0.85786 -0.44200
O 	O 	0.28249 0.32536 0.87835 -0.44500
O 	O 	0.26807 0.35918 0.82688 -0.45300
O 	O 	0.16733 0.26932 0.59464 -0.44300
O 	O 	0.14723 0.24946 0.65580 -0.42800
O 	O 	0.17587 0.31526 0.56859 -0.45500
O 	O 	0.13669 0.27840 0.68256 -0.43500
O 	O 	0.10530 0.37999 0.59730 -0.46600
O 	O 	0.16523 0.34761 0.60009 -0.45300
C 	C 	0.18569 0.23270 0.71041 0.04700
C 	C 	0.17913 0.22768 0.68972 -0.10700
C 	C 	0.15244 0.25309 0.67543 0.36800
C 	C 	0.34588 0.43931 0.72884 0.08800
C 	C 	0.32536 0.43337 0.76049 -0.15300
C 	C 	0.31954 0.40242 0.77855 0.41700
C 	C 	0.21616 0.35250 0.83010 0.08600
C 	C 	0.19629 0.33185 0.81323 0.08100
C 	C 	0.24442 0.34921 0.80462 -0.14900
C 	C 	0.22411 0.32880 0.78671 -0.14100
C 	C 	0.24802 0.33773 0.78279 0.08000
C 	C 	0.19235 0.34321 0.83530 -0.15200
C 	C 	0.23034 0.31190 0.76618 0.39900
C 	C 	0.16555 0.34150 0.86587 0.41700
C 	C 	0.27160 0.35274 0.80428 0.41100
C 	C 	0.28837 0.24165 0.92665 0.06600
C 	C 	0.26956 0.22153 0.94699 -0.12900
C 	C 	0.18594 0.28549 0.57555 0.39500
Fe	Fe	0.35930 0.50395 0.84170 1.25800
Fe	Fe	0.34578 0.92960 0.58537 1.26300
O 	O 	0.44551 0.48852 0.67040 -0.45700
O 	O 	0.46723 0.51023 0.60520 -0.45700
O 	O 	0.30685 0.69109 0.74485 -0.45200
O 	O 	0.24639 0.80308 0.74706 -0.43400
O 	O 	0.30178 0.71706 0.77169 -0.44600
O 	O 	0.38271 0.52001 0.76425 -0.46100
O 	O 	0.34725 0.57255 0.78245 -0.45900
O 	O 	0.39614 0.49310 0.80773 -0.45700
O 	O 	0.36237 0.46041 0.85786 -0.44100
O 	O 	0.32536 0.51380 0.87835 -0.44500
O 	O 	0.35918 0.54587 0.82688 -0.45300
O 	O 	0.26932 0.96870 0.59464 -0.44400
O 	O 	0.24946 0.94751 0.65580 -0.42800
O 	O 	0.31526 0.94028 0.56859 -0.45500
O 	O 	0.27840 0.90235 0.68256 -0.43500
O 	O 	0.37999 0.91740 0.59730 -0.46600
O 	O 	0.34761 0.88706 0.60009 -0.45300
C 	C 	0.23270 0.87120 0.71041 0.04700
C 	C 	0.22768 0.90347 0.68972 -0.10700
C 	C 	0.25309 0.91904 0.67543 0.36800
C 	C 	0.43931 0.48597 0.72884 0.08800
C 	C 	0.43337 0.48078 0.76049 -0.15300
C 	C 	0.40242 0.49949 0.77855 0.41700
C 	C 	0.35250 0.60124 0.83010 0.08600
C 	C 	0.33185 0.65863 0.81323 0.08100
C 	C 	0.34921 0.60175 0.80462 -0.14900
C 	C 	0.32880 0.66038 0.78671 -0.14100
C 	C 	0.33773 0.63145 0.78279 0.08000
C 	C 	0.34321 0.62914 0.83530 -0.15200
C 	C 	0.31190 0.69158 0.76618 0.39900
C 	C 	0.34150 0.62707 0.86587 0.41600
C 	C 	0.35274 0.57138 0.80428 0.41100
C 	C 	0.24165 0.54333 0.92665 0.06600
C 	C 	0.22153 0.56191 0.94699 -0.12900
C 	C 	0.28549 0.95302 0.57555 0.39500
Fe	Fe	0.29506 0.84170 0.50395 1.25800
Fe	Fe	0.13924 0.58537 0.92960 1.26300
O 	O 	0.39557 0.67040 0.48852 -0.45700
O 	O 	0.41734 0.60520 0.51023 -0.45700
O 	O 	0.25721 0.74485 0.69109 -0.45200
O 	O 	0.20347 0.74706 0.80308 -0.43300
O 	O 	0.20947 0.77169 0.71706 -0.44600
O 	O 	0.33302 0.76425 0.52001 -0.46100
O 	O 	0.29776 0.78245 0.57255 -0.45900
O 	O 	0.30303 0.80773 0.49310 -0.45700
O 	O 	0.31936 0.85786 0.46041 -0.44100
O 	O 	0.28249 0.87835 0.51380 -0.44500
O 	O 	0.26807 0.82688 0.54587 -0.45300
O 	O 	0.16733 0.59464 0.96870 -0.44400
O 	O 	0.14723 0.65580 0.94751 -0.42800
O 	O 	0.17587 0.56859 0.94028 -0.45500
O 	O 	0.13669 0.68256 0.90235 -0.43500
O 	O 	0.10530 0.59730 0.91740 -0.46600
O 	O 	0.16523 0.60009 0.88706 -0.45300
C 	C 	0.18569 0.71041 0.87120 0.04800
C 	C 	0.17913 0.68972 0.90347 -0.10700
C 	C 	0.15244 0.67543 0.91904 0.36800
C 	C 	0.34588 0.72884 0.48597 0.08800
C 	C 	0.32536 0.76049 0.48078 -0.15300
C 	C 	0.31954 0.77855 0.49949 0.41700
C 	C 	0.21616 0.83010 0.60124 0.08600
C 	C 	0.19629 0.81323 0.65863 0.08100
C 	C 	0.24442 0.80462 0.60175 -0.14900
C 	C 	0.22411 0.78671 0.66038 -0.14000
C 	C 	0.24802 0.78279 0.63145 0.08000
C 	C 	0.19235 0.83530 0.62914 -0.15200
C 	C 	0.23034 0.76618 0.69158 0.39900
C 	C 	0.16555 0.86587 0.62707 0.41600
C 	C 	0.27160 0.80428 0.57138 0.41100
C 	C 	0.28837 0.92665 0.54333 0.06600
C 	C 	0.26956 0.94699 0.56191 -0.12900
C 	C 	0.18594 0.57555 0.95302 0.39500
Fe	Fe	0.50395 0.35930 0.29506 1.25800
Fe	Fe	0.92960 0.34578 0.13924 1.26300
O 	O 	0.48852 0.44551 0.39557 -0.45700
O 	O 	0.51023 0.46723 0.41734 -0.45700
O 	O 	0.69109 0.30685 0.25721 -0.45200
O 	O 	0.80308 0.24639 0.20347 -0.43300
O 	O 	0.71706 0.30178 0.20947 -0.44600
O 	O 	0.52001 0.38271 0.33302 -0.46100
O 	O 	0.57255 0.34725 0.29776 -0.45900
O 	O 	0.49310 0.39614 0.30303 -0.45700
O 	O 	0.46041 0.36237 0.31936 -0.44100
O 	O 	0.51380 0.32536 0.28249 -0.44500
O 	O 	0.54587 0.35918 0.26807 -0.45300
O 	O 	0.96870 0.26932 0.16733 -0.44400
O 	O 	0.94751 0.24946 0.14723 -0.42800
O 	O 	0.94028 0.31526 0.17587 -0.45500
O 	O 	0.90235 0.27840 0.13669 -0.43500
O 	O 	0.91740 0.37999 0.10530 -0.46600
O 	O 	0.88706 0.34761 0.16523 -0.45300
C 	C 	0.87120 0.23270 0.18569 0.04800
C 	C 	0.90347 0.22768 0.17913 -0.10700
C 	C 	0.91904 0.25309 0.15244 0.36800
C 	C 	0.48597 0.43931 0.34588 0.08800
C 	C 	0.48078 0.43337 0.32536 -0.15400
C 	C 	0.49949 0.40242 0.31954 0.41700
C 	C 	0.60124 0.35250 0.21616 0.08600
C 	C 	0.65863 0.33185 0.19629 0.08100
C 	C 	0.60175 0.34921 0.24442 -0.14900
C 	C 	0.66038 0.32880 0.22411 -0.14100
C 	C 	0.63145 0.33773 0.24802 0.08000
C 	C 	0.62914 0.34321 0.19235 -0.15100
C 	C 	0.69158 0.31190 0.23034 0.39900
C 	C 	0.62707 0.34150 0.16555 0.41600
C 	C 	0.57138 0.35274 0.27160 0.41100
C 	C 	0.54333 0.24165 0.28837 0.06600
C 	C 	0.56191 0.22153 0.26956 -0.12900
C 	C 	0.95302 0.28549 0.18594 0.39500
Fe	Fe	0.84170 0.29506 0.35930 1.25800
Fe	Fe	0.58537 0.13924 0.34578 1.26300
O 	O 	0.67040 0.39557 0.44551 -0.45700
O 	O 	0.60520 0.41734 0.46723 -0.45700
O 	O 	0.74485 0.25721 0.30685 -0.45200
O 	O 	0.74706 0.20347 0.24639 -0.43300
O 	O 	0.77169 0.20947 0.30178 -0.44600
O 	O 	0.76425 0.33302 0.38271 -0.46100
O 	O 	0.78245 0.29776 0.34725 -0.45900
O 	O 	0.80773 0.30303 0.39614 -0.45700
O 	O 	0.85786 0.31936 0.36237 -0.44200
O 	O 	0.87835 0.28249 0.32536 -0.44500
O 	O 	0.82688 0.26807 0.35918 -0.45300
O 	O 	0.59464 0.16733 0.26932 -0.44300
O 	O 	0.65580 0.14723 0.24946 -0.42800
O 	O 	0.56859 0.17587 0.31526 -0.45500
O 	O 	0.68256 0.13669 0.27840 -0.43500
O 	O 	0.59730 0.10530 0.37999 -0.46600
O 	O 	0.60009 0.16523 0.34761 -0.45300
C 	C 	0.71041 0.18569 0.23270 0.04700
C 	C 	0.68972 0.17913 0.22768 -0.10700
C 	C 	0.67543 0.15244 0.25309 0.36800
C 	C 	0.72884 0.34588 0.43931 0.08800
C 	C 	0.76049 0.32536 0.43337 -0.15300
C 	C 	0.77855 0.31954 0.40242 0.41700
C 	C 	0.83010 0.21616 0.35250 0.08600
C 	C 	0.81323 0.19629 0.33185 0.08100
C 	C 	0.80462 0.24442 0.34921 -0.14900
C 	C 	0.78671 0.22411 0.32880 -0.14100
C 	C 	0.78279 0.24802 0.33773 0.08000
C 	C 	0.83530 0.19235 0.34321 -0.15200
C 	C 	0.76618 0.23034 0.31190 0.39900
C 	C 	0.86587 0.16555 0.34150 0.41700
C 	C 	0.80428 0.27160 0.35274 0.41100
C 	C 	0.92665 0.28837 0.24165 0.06600
C 	C 	0.94699 0.26956 0.22153 -0.12900
C 	C 	0.57555 0.18594 0.28549 0.39500
Fe	Fe	0.84170 0.35930 0.50395 1.25800
Fe	Fe	0.58537 0.34578 0.92960 1.26300
O 	O 	0.67040 0.44551 0.48852 -0.45700
O 	O 	0.60520 0.46723 0.51023 -0.45700
O 	O 	0.74485 0.30685 0.69109 -0.45200
O 	O 	0.74706 0.24639 0.80308 -0.43400
O 	O 	0.77169 0.30178 0.71706 -0.44600
O 	O 	0.76425 0.38271 0.52001 -0.46100
O 	O 	0.78245 0.34725 0.57255 -0.45900
O 	O 	0.80773 0.39614 0.49310 -0.45700
O 	O 	0.85786 0.36237 0.46041 -0.44100
O 	O 	0.87835 0.32536 0.51380 -0.44500
O 	O 	0.82688 0.35918 0.54587 -0.45300
O 	O 	0.59464 0.26932 0.96870 -0.44400
O 	O 	0.65580 0.24946 0.94751 -0.42800
O 	O 	0.56859 0.31526 0.94028 -0.45500
O 	O 	0.68256 0.27840 0.90235 -0.43500
O 	O 	0.59730 0.37999 0.91740 -0.46600
O 	O 	0.60009 0.34761 0.88706 -0.45300
C 	C 	0.71041 0.23270 0.87120 0.04700
C 	C 	0.68972 0.22768 0.90347 -0.10700
C 	C 	0.67543 0.25309 0.91904 0.36800
C 	C 	0.72884 0.43931 0.48597 0.08800
C 	C 	0.76049 0.43337 0.48078 -0.15300
C 	C 	0.77855 0.40242 0.49949 0.41700
C 	C 	0.83010 0.35250 0.60124 0.08600
C 	C 	0.81323 0.33185 0.65863 0.08100
C 	C 	0.80462 0.34921 0.60175 -0.14900
C 	C 	0.78671 0.32880 0.66038 -0.14100
C 	C 	0.78279 0.33773 0.63145 0.08000
C 	C 	0.83530 0.34321 0.62914 -0.15200
C 	C 	0.76618 0.31190 0.69158 0.39900
C 	C 	0.86587 0.34150 0.62707 0.41600
C 	C 	0.80428 0.35274 0.57138 0.41100
C 	C 	0.92665 0.24165 0.54333 0.06600
C 	C 	0.94699 0.22153 0.56191 -0.12900
C 	C 	0.57555 0.28549 0.95302 0.39500
Fe	Fe	0.50395 0.29506 0.84170 1.25800
Fe	Fe	0.92960 0.13924 0.58537 1.26300
O 	O 	0.48852 0.39557 0.67040 -0.45700
O 	O 	0.51023 0.41734 0.60520 -0.45700
O 	O 	0.69109 0.25721 0.74485 -0.45200
O 	O 	0.80308 0.20347 0.74706 -0.43300
O 	O 	0.71706 0.20947 0.77169 -0.44600
O 	O 	0.52001 0.33302 0.76425 -0.46100
O 	O 	0.57255 0.29776 0.78245 -0.45900
O 	O 	0.49310 0.30303 0.80773 -0.45700
O 	O 	0.46041 0.31936 0.85786 -0.44100
O 	O 	0.51380 0.28249 0.87835 -0.44500
O 	O 	0.54587 0.26807 0.82688 -0.45300
O 	O 	0.96870 0.16733 0.59464 -0.44400
O 	O 	0.94751 0.14723 0.65580 -0.42800
O 	O 	0.94028 0.17587 0.56859 -0.45500
O 	O 	0.90235 0.13669 0.68256 -0.43500
O 	O 	0.91740 0.10530 0.59730 -0.46600
O 	O 	0.88706 0.16523 0.60009 -0.45300
C 	C 	0.87120 0.18569 0.71041 0.04800
C 	C 	0.90347 0.17913 0.68972 -0.10700
C 	C 	0.91904 0.15244 0.67543 0.36800
C 	C 	0.48597 0.34588 0.72884 0.08800
C 	C 	0.48078 0.32536 0.76049 -0.15300
C 	C 	0.49949 0.31954 0.77855 0.41700
C 	C 	0.60124 0.21616 0.83010 0.08600
C 	C 	0.65863 0.19629 0.81323 0.08100
C 	C 	0.60175 0.24442 0.80462 -0.14900
C 	C 	0.66038 0.22411 0.78671 -0.14000
C 	C 	0.63145 0.24802 0.78279 0.08000
C 	C 	0.62914 0.19235 0.83530 -0.15200
C 	C 	0.69158 0.23034 0.76618 0.39900
C 	C 	0.62707 0.16555 0.86587 0.41600
C 	C 	0.57138 0.27160 0.80428 0.41100
C 	C 	0.54333 0.28837 0.92665 0.06600
C 	C 	0.56191 0.26956 0.94699 -0.12900
C 	C 	0.95302 0.18594 0.57555 0.39500
Fe	Fe	0.29506 0.50395 0.35930 1.25800
Fe	Fe	0.13924 0.92960 0.34578 1.26300
O 	O 	0.39557 0.48852 0.44551 -0.45700
O 	O 	0.41734 0.51023 0.46723 -0.45700
O 	O 	0.25721 0.69109 0.30685 -0.45200
O 	O 	0.20347 0.80308 0.24639 -0.43300
O 	O 	0.20947 0.71706 0.30178 -0.44600
O 	O 	0.33302 0.52001 0.38271 -0.46100
O 	O 	0.29776 0.57255 0.34725 -0.45900
O 	O 	0.30303 0.49310 0.39614 -0.45700
O 	O 	0.31936 0.46041 0.36237 -0.44100
O 	O 	0.28249 0.51380 0.32536 -0.44500
O 	O 	0.26807 0.54587 0.35918 -0.45300
O 	O 	0.16733 0.96870 0.26932 -0.44400
O 	O 	0.14723 0.94751 0.24946 -0.42800
O 	O 	0.17587 0.94028 0.31526 -0.45500
O 	O 	0.13669 0.90235 0.27840 -0.43500
O 	O 	0.10530 0.91740 0.37999 -0.46600
O 	O 	0.16523 0.88706 0.34761 -0.45300
C 	C 	0.18569 0.87120 0.23270 0.04800
C 	C 	0.17913 0.90347 0.22768 -0.10700
C 	C 	0.15244 0.91904 0.25309 0.36800
C 	C 	0.34588 0.48597 0.43931 0.08800
C 	C 	0.32536 0.48078 0.43337 -0.15400
C 	C 	0.31954 0.49949 0.40242 0.41700
C 	C 	0.21616 0.60124 0.35250 0.08600
C 	C 	0.19629 0.65863 0.33185 0.08100
C 	C 	0.24442 0.60175 0.34921 -0.14900
C 	C 	0.22411 0.66038 0.32880 -0.14100
C 	C 	0.24802 0.63145 0.33773 0.08000
C 	C 	0.19235 0.62914 0.34321 -0.15100
C 	C 	0.23034 0.69158 0.31190 0.39900
C 	C 	0.16555 0.62707 0.34150 0.41600
C 	C 	0.27160 0.57138 0.35274 0.41100
C 	C 	0.28837 0.54333 0.24165 0.06600
C 	C 	0.26956 0.56191 0.22153 -0.12900
C 	C 	0.18594 0.95302 0.28549 0.39500
Fe	Fe	0.35930 0.84170 0.29506 1.25800
Fe	Fe	0.34578 0.58537 0.13924 1.26300
O 	O 	0.44551 0.67040 0.39557 -0.45700
O 	O 	0.46723 0.60520 0.41734 -0.45700
O 	O 	0.30685 0.74485 0.25721 -0.45200
O 	O 	0.24639 0.74706 0.20347 -0.43300
O 	O 	0.30178 0.77169 0.20947 -0.44600
O 	O 	0.38271 0.76425 0.33302 -0.46100
O 	O 	0.34725 0.78245 0.29776 -0.45900
O 	O 	0.39614 0.80773 0.30303 -0.45700
O 	O 	0.36237 0.85786 0.31936 -0.44200
O 	O 	0.32536 0.87835 0.28249 -0.44500
O 	O 	0.35918 0.82688 0.26807 -0.45300
O 	O 	0.26932 0.59464 0.16733 -0.44300
O 	O 	0.24946 0.65580 0.14723 -0.42800
O 	O 	0.31526 0.56859 0.17587 -0.45500
O 	O 	0.27840 0.68256 0.13669 -0.43500
O 	O 	0.37999 0.59730 0.10530 -0.46600
O 	O 	0.34761 0.60009 0.16523 -0.45300
C 	C 	0.23270 0.71041 0.18569 0.04700
C 	C 	0.22768 0.68972 0.17913 -0.10700
C 	C 	0.25309 0.67543 0.15244 0.36800
C 	C 	0.43931 0.72884 0.34588 0.08800
C 	C 	0.43337 0.76049 0.32536 -0.15300
C 	C 	0.40242 0.77855 0.31954 0.41700
C 	C 	0.35250 0.83010 0.21616 0.08600
C 	C 	0.33185 0.81323 0.19629 0.08100
C 	C 	0.34921 0.80462 0.24442 -0.14900
C 	C 	0.32880 0.78671 0.22411 -0.14100
C 	C 	0.33773 0.78279 0.24802 0.08000
C 	C 	0.34321 0.83530 0.19235 -0.15200
C 	C 	0.31190 0.76618 0.23034 0.39900
C 	C 	0.34150 0.86587 0.16555 0.41700
C 	C 	0.35274 0.80428 0.27160 0.41100
C 	C 	0.24165 0.92665 0.28837 0.06600
C 	C 	0.22153 0.94699 0.26956 -0.12900
C 	C 	0.28549 0.57555 0.18594 0.39500
Fe	Fe	0.74605 0.40830 0.95494 1.25700
Fe	Fe	0.32040 0.66463 0.11076 1.26300
O 	O 	0.76148 0.57960 0.85443 -0.45700
O 	O 	0.73977 0.64480 0.83266 -0.45700
O 	O 	0.55891 0.50515 0.99279 -0.45400
O 	O 	0.44692 0.50294 0.04653 -0.43300
O 	O 	0.53294 0.47831 0.04053 -0.44700
O 	O 	0.72999 0.48575 0.91698 -0.46100
O 	O 	0.67745 0.46755 0.95224 -0.45900
O 	O 	0.75690 0.44227 0.94697 -0.45700
O 	O 	0.78959 0.39214 0.93064 -0.44200
O 	O 	0.73620 0.37165 0.96751 -0.44600
O 	O 	0.70413 0.42312 0.98193 -0.45400
O 	O 	0.28130 0.65536 0.08267 -0.44300
O 	O 	0.30249 0.59420 0.10277 -0.42800
O 	O 	0.30972 0.68141 0.07413 -0.45500
O 	O 	0.34765 0.56744 0.11331 -0.43500
O 	O 	0.33260 0.65270 0.14470 -0.46600
O 	O 	0.36294 0.64991 0.08477 -0.45300
C 	C 	0.37880 0.53959 0.06431 0.04800
C 	C 	0.34653 0.56028 0.07087 -0.10700
C 	C 	0.33096 0.57457 0.09756 0.36800
C 	C 	0.76403 0.52116 0.90412 0.08800
C 	C 	0.76922 0.48951 0.92464 -0.15400
C 	C 	0.75051 0.47145 0.93046 0.41700
C 	C 	0.64876 0.41990 0.03384 0.08600
C 	C 	0.59137 0.43677 0.05371 0.08200
C 	C 	0.64825 0.44538 0.00558 -0.14700
C 	C 	0.58962 0.46329 0.02589 -0.14100
C 	C 	0.61855 0.46721 0.00198 0.08200
C 	C 	0.62086 0.41470 0.05765 -0.15200
C 	C 	0.55842 0.48382 0.01966 0.40200
C 	C 	0.62293 0.38413 0.08445 0.41600
C 	C 	0.67862 0.44572 0.97840 0.41000
C 	C 	0.70667 0.32335 0.96163 0.06700
C 	C 	0.68809 0.30301 0.98044 -0.13200
C 	C 	0.29698 0.67445 0.06406 0.39600
Fe	Fe	0.40830 0.74605 0.89070 1.25800
Fe	Fe	0.66463 0.32040 0.90422 1.26300
O 	O 	0.57960 0.76148 0.80449 -0.45700
O 	O 	0.64480 0.73977 0.78277 -0.45700
O 	O 	0.50515 0.55891 0.94315 -0.45200
O 	O 	0.50294 0.44692 0.00361 -0.43200
O 	O 	0.47831 0.53294 0.94822 -0.44700
O 	O 	0.48575 0.72999 0.86729 -0.46100
O 	O 	0.46755 0.67745 0.90275 -0.45900
O 	O 	0.44227 0.75690 0.85386 -0.45700
O 	O 	0.39214 0.78959 0.88763 -0.44100
O 	O 	0.37165 0.73620 0.92464 -0.44600
O 	O 	0.42312 0.70413 0.89082 -0.45300
O 	O 	0.65536 0.28130 0.98068 -0.44400
O 	O 	0.59420 0.30249 0.00054 -0.42500
O 	O 	0.68141 0.30972 0.93474 -0.45600
O 	O 	0.56744 0.34765 0.97160 -0.43500
O 	O 	0.65270 0.33260 0.87001 -0.46500
O 	O 	0.64991 0.36294 0.90239 -0.45300
C 	C 	0.53959 0.37880 0.01730 0.04900
C 	C 	0.56028 0.34653 0.02232 -0.10500
C 	C 	0.57457 0.33096 0.99691 0.36500
C 	C 	0.52116 0.76403 0.81069 0.08800
C 	C 	0.48951 0.76922 0.81663 -0.15300
C 	C 	0.47145 0.75051 0.84758 0.41700
C 	C 	0.41990 0.64876 0.89750 0.08600
C 	C 	0.43677 0.59137 0.91815 0.08100
C 	C 	0.44538 0.64825 0.90079 -0.14900
C 	C 	0.46329 0.58962 0.92120 -0.14100
C 	C 	0.46721 0.61855 0.91227 0.08000
C 	C 	0.41470 0.62086 0.90679 -0.15200
C 	C 	0.48382 0.55842 0.93810 0.39900
C 	C 	0.38413 0.62293 0.90850 0.41600
C 	C 	0.44572 0.67862 0.89726 0.41100
C 	C 	0.32335 0.70667 0.00835 0.06900
C 	C 	0.30301 0.68809 0.02847 -0.13000
C 	C 	0.67445 0.29698 0.96451 0.39600
Fe	Fe	0.89070 0.95494 0.40830 1.25700
Fe	Fe	0.90422 0.11076 0.66463 1.26300
O 	O 	0.80449 0.85443 0.57960 -0.45700
O 	O 	0.78277 0.83266 0.64480 -0.45700
O 	O 	0.94315 0.99279 0.50515 -0.45400
O 	O 	0.00361 0.04653 0.50294 -0.43200
O 	O 	0.94822 0.04053 0.47831 -0.44700
O 	O 	0.86729 0.91698 0.48575 -0.46100
O 	O 	0.90275 0.95224 0.46755 -0.45900
O 	O 	0.85386 0.94697 0.44227 -0.45700
O 	O 	0.88763 0.93064 0.39214 -0.44200
O 	O 	0.92464 0.96751 0.37165 -0.44600
O 	O 	0.89082 0.98193 0.42312 -0.45400
O 	O 	0.98068 0.08267 0.65536 -0.44400
O 	O 	0.00054 0.10277 0.59420 -0.42500
O 	O 	0.93474 0.07413 0.68141 -0.45600
O 	O 	0.97160 0.11331 0.56744 -0.43500
O 	O 	0.87001 0.14470 0.65270 -0.46500
O 	O 	0.90239 0.08477 0.64991 -0.45300
C 	C 	0.01730 0.06431 0.53959 0.04900
C 	C 	0.02232 0.07087 0.56028 -0.10500
C 	C 	0.99691 0.09756 0.57457 0.36400
C 	C 	0.81069 0.90412 0.52116 0.08800
C 	C 	0.81663 0.92464 0.48951 -0.15400
C 	C 	0.84758 0.93046 0.47145 0.41700
C 	C 	0.89750 0.03384 0.41990 0.08600
C 	C 	0.91815 0.05371 0.43677 0.08200
C 	C 	0.90079 0.00558 0.44538 -0.14800
C 	C 	0.92120 0.02589 0.46329 -0.14200
C 	C 	0.91227 0.00198 0.46721 0.08200
C 	C 	0.90679 0.05765 0.41470 -0.15200
C 	C 	0.93810 0.01966 0.48382 0.40200
C 	C 	0.90850 0.08445 0.38413 0.41700
C 	C 	0.89726 0.97840 0.44572 0.41000
C 	C 	0.00835 0.96163 0.32335 0.07100
C 	C 	0.02847 0.98044 0.30301 -0.13300
C 	C 	0.96451 0.06406 0.67445 0.39700
Fe	Fe	0.95494 0.89070 0.74605 1.25700
Fe	Fe	0.11076 0.90422 0.32040 1.26300
O 	O 	0.85443 0.80449 0.76148 -0.45700
O 	O 	0.83266 0.78277 0.73977 -0.45700
O 	O 	0.99279 0.94315 0.55891 -0.45400
O 	O 	0.04653 0.00361 0.44692 -0.43200
O 	O 	0.04053 0.94822 0.53294 -0.44700
O 	O 	0.91698 0.86729 0.72999 -0.46100
O 	O 	0.95224 0.90275 0.67745 -0.45900
O 	O 	0.94697 0.85386 0.75690 -0.45700
O 	O 	0.93064 0.88763 0.78959 -0.44200
O 	O 	0.96751 0.92464 0.73620 -0.44600
O 	O 	0.98193 0.89082 0.70413 -0.45400
O 	O 	0.08267 0.98068 0.28130 -0.44400
O 	O 	0.10277 0.00054 0.30249 -0.42500
O 	O 	0.07413 0.93474 0.30972 -0.45500
O 	O 	0.11331 0.97160 0.34765 -0.43500
O 	O 	0.14470 0.87001 0.33260 -0.46600
O 	O 	0.08477 0.90239 0.36294 -0.45300
C 	C 	0.06431 0.01730 0.37880 0.04900
C 	C 	0.07087 0.02232 0.34653 -0.10500
C 	C 	0.09756 0.99691 0.33096 0.36400
C 	C 	0.90412 0.81069 0.76403 0.08800
C 	C 	0.92464 0.81663 0.76922 -0.15400
C 	C 	0.93046 0.84758 0.75051 0.41700
C 	C 	0.03384 0.89750 0.64876 0.08600
C 	C 	0.05371 0.91815 0.59137 0.08200
C 	C 	0.00558 0.90079 0.64825 -0.14800
C 	C 	0.02589 0.92120 0.58962 -0.14200
C 	C 	0.00198 0.91227 0.61855 0.08200
C 	C 	0.05765 0.90679 0.62086 -0.15200
C 	C 	0.01966 0.93810 0.55842 0.40200
C 	C 	0.08445 0.90850 0.62293 0.41600
C 	C 	0.97840 0.89726 0.67862 0.41000
C 	C 	0.96163 0.00835 0.70667 0.07000
C 	C 	0.98044 0.02847 0.68809 -0.13300
C 	C 	0.06406 0.96451 0.29698 0.39700
Fe	Fe	0.89070 0.74605 0.95494 1.25700
Fe	Fe	0.90422 0.32040 0.11076 1.26300
O 	O 	0.80449 0.76148 0.85443 -0.45700
O 	O 	0.78277 0.73977 0.83266 -0.45700
O 	O 	0.94315 0.55891 0.99279 -0.45400
O 	O 	0.00361 0.44692 0.04653 -0.43200
O 	O 	0.94822 0.53294 0.04053 -0.44700
O 	O 	0.86729 0.72999 0.91698 -0.46100
O 	O 	0.90275 0.67745 0.95224 -0.45900
O 	O 	0.85386 0.75690 0.94697 -0.45700
O 	O 	0.88763 0.78959 0.93064 -0.44200
O 	O 	0.92464 0.73620 0.96751 -0.44600
O 	O 	0.89082 0.70413 0.98193 -0.45400
O 	O 	0.98068 0.28130 0.08267 -0.44400
O 	O 	0.00054 0.30249 0.10277 -0.42500
O 	O 	0.93474 0.30972 0.07413 -0.45500
O 	O 	0.97160 0.34765 0.11331 -0.43500
O 	O 	0.87001 0.33260 0.14470 -0.46600
O 	O 	0.90239 0.36294 0.08477 -0.45300
C 	C 	0.01730 0.37880 0.06431 0.04900
C 	C 	0.02232 0.34653 0.07087 -0.10500
C 	C 	0.99691 0.33096 0.09756 0.36400
C 	C 	0.81069 0.76403 0.90412 0.08800
C 	C 	0.81663 0.76922 0.92464 -0.15400
C 	C 	0.84758 0.75051 0.93046 0.41700
C 	C 	0.89750 0.64876 0.03384 0.08600
C 	C 	0.91815 0.59137 0.05371 0.08200
C 	C 	0.90079 0.64825 0.00558 -0.14800
C 	C 	0.92120 0.58962 0.02589 -0.14200
C 	C 	0.91227 0.61855 0.00198 0.08200
C 	C 	0.90679 0.62086 0.05765 -0.15200
C 	C 	0.93810 0.55842 0.01966 0.40200
C 	C 	0.90850 0.62293 0.08445 0.41600
C 	C 	0.89726 0.67862 0.97840 0.41000
C 	C 	0.00835 0.70667 0.96163 0.07000
C 	C 	0.02847 0.68809 0.98044 -0.13300
C 	C 	0.96451 0.29698 0.06406 0.39700
Fe	Fe	0.95494 0.40830 0.89070 1.25700
Fe	Fe	0.11076 0.66463 0.90422 1.26300
O 	O 	0.85443 0.57960 0.80449 -0.45700
O 	O 	0.83266 0.64480 0.78277 -0.45700
O 	O 	0.99279 0.50515 0.94315 -0.45400
O 	O 	0.04653 0.50294 0.00361 -0.43200
O 	O 	0.04053 0.47831 0.94822 -0.44700
O 	O 	0.91698 0.48575 0.86729 -0.46100
O 	O 	0.95224 0.46755 0.90275 -0.45900
O 	O 	0.94697 0.44227 0.85386 -0.45700
O 	O 	0.93064 0.39214 0.88763 -0.44200
O 	O 	0.96751 0.37165 0.92464 -0.44600
O 	O 	0.98193 0.42312 0.89082 -0.45400
O 	O 	0.08267 0.65536 0.98068 -0.44400
O 	O 	0.10277 0.59420 0.00054 -0.42500
O 	O 	0.07413 0.68141 0.93474 -0.45600
O 	O 	0.11331 0.56744 0.97160 -0.43500
O 	O 	0.14470 0.65270 0.87001 -0.46500
O 	O 	0.08477 0.64991 0.90239 -0.45300
C 	C 	0.06431 0.53959 0.01730 0.04900
C 	C 	0.07087 0.56028 0.02232 -0.10500
C 	C 	0.09756 0.57457 0.99691 0.36400
C 	C 	0.90412 0.52116 0.81069 0.08800
C 	C 	0.92464 0.48951 0.81663 -0.15400
C 	C 	0.93046 0.47145 0.84758 0.41700
C 	C 	0.03384 0.41990 0.89750 0.08600
C 	C 	0.05371 0.43677 0.91815 0.08200
C 	C 	0.00558 0.44538 0.90079 -0.14800
C 	C 	0.02589 0.46329 0.92120 -0.14200
C 	C 	0.00198 0.46721 0.91227 0.08200
C 	C 	0.05765 0.41470 0.90679 -0.15200
C 	C 	0.01966 0.48382 0.93810 0.40200
C 	C 	0.08445 0.38413 0.90850 0.41700
C 	C 	0.97840 0.44572 0.89726 0.41000
C 	C 	0.96163 0.32335 0.00835 0.07100
C 	C 	0.98044 0.30301 0.02847 -0.13300
C 	C 	0.06406 0.67445 0.96451 0.39700
Fe	Fe	0.74605 0.89070 0.40830 1.25800
Fe	Fe	0.32040 0.90422 0.66463 1.26300
O 	O 	0.76148 0.80449 0.57960 -0.45700
O 	O 	0.73977 0.78277 0.64480 -0.45700
O 	O 	0.55891 0.94315 0.50515 -0.45200
O 	O 	0.44692 0.00361 0.50294 -0.43200
O 	O 	0.53294 0.94822 0.47831 -0.44700
O 	O 	0.72999 0.86729 0.48575 -0.46100
O 	O 	0.67745 0.90275 0.46755 -0.45900
O 	O 	0.75690 0.85386 0.44227 -0.45700
O 	O 	0.78959 0.88763 0.39214 -0.44100
O 	O 	0.73620 0.92464 0.37165 -0.44600
O 	O 	0.70413 0.89082 0.42312 -0.45300
O 	O 	0.28130 0.98068 0.65536 -0.44400
O 	O 	0.30249 0.00054 0.59420 -0.42500
O 	O 	0.30972 0.93474 0.68141 -0.45600
O 	O 	0.34765 0.97160 0.56744 -0.43500
O 	O 	0.33260 0.87001 0.65270 -0.46500
O 	O 	0.36294 0.90239 0.64991 -0.45300
C 	C 	0.37880 0.01730 0.53959 0.04900
C 	C 	0.34653 0.02232 0.56028 -0.10500
C 	C 	0.33096 0.99691 0.57457 0.36500
C 	C 	0.76403 0.81069 0.52116 0.08800
C 	C 	0.76922 0.81663 0.48951 -0.15300
C 	C 	0.75051 0.84758 0.47145 0.41700
C 	C 	0.64876 0.89750 0.41990 0.08600
C 	C 	0.59137 0.91815 0.43677 0.08100
C 	C 	0.64825 0.90079 0.44538 -0.14900
C 	C 	0.58962 0.92120 0.46329 -0.14100
C 	C 	0.61855 0.91227 0.46721 0.08000
C 	C 	0.62086 0.90679 0.41470 -0.15200
C 	C 	0.55842 0.93810 0.48382 0.39900
C 	C 	0.62293 0.90850 0.38413 0.41600
C 	C 	0.67862 0.89726 0.44572 0.41100
C 	C 	0.70667 0.00835 0.32335 0.06900
C 	C 	0.68809 0.02847 0.30301 -0.13000
C 	C 	0.29698 0.96451 0.67445 0.39600
Fe	Fe	0.40830 0.95494 0.74605 1.25700
Fe	Fe	0.66463 0.11076 0.32040 1.26300
O 	O 	0.57960 0.85443 0.76148 -0.45700
O 	O 	0.64480 0.83266 0.73977 -0.45700
O 	O 	0.50515 0.99279 0.55891 -0.45400
O 	O 	0.50294 0.04653 0.44692 -0.43300
O 	O 	0.47831 0.04053 0.53294 -0.44700
O 	O 	0.48575 0.91698 0.72999 -0.46100
O 	O 	0.46755 0.95224 0.67745 -0.45900
O 	O 	0.44227 0.94697 0.75690 -0.45700
O 	O 	0.39214 0.93064 0.78959 -0.44200
O 	O 	0.37165 0.96751 0.73620 -0.44600
O 	O 	0.42312 0.98193 0.70413 -0.45400
O 	O 	0.65536 0.08267 0.28130 -0.44300
O 	O 	0.59420 0.10277 0.30249 -0.42800
O 	O 	0.68141 0.07413 0.30972 -0.45500
O 	O 	0.56744 0.11331 0.34765 -0.43500
O 	O 	0.65270 0.14470 0.33260 -0.46600
O 	O 	0.64991 0.08477 0.36294 -0.45300
C 	C 	0.53959 0.06431 0.37880 0.04800
C 	C 	0.56028 0.07087 0.34653 -0.10700
C 	C 	0.57457 0.09756 0.33096 0.36800
C 	C 	0.52116 0.90412 0.76403 0.08800
C 	C 	0.48951 0.92464 0.76922 -0.15400
C 	C 	0.47145 0.93046 0.75051 0.41700
C 	C 	0.41990 0.03384 0.64876 0.08600
C 	C 	0.43677 0.05371 0.59137 0.08200
C 	C 	0.44538 0.00558 0.64825 -0.14700
C 	C 	0.46329 0.02589 0.58962 -0.14100
C 	C 	0.46721 0.00198 0.61855 0.08200
C 	C 	0.41470 0.05765 0.62086 -0.15200
C 	C 	0.48382 0.01966 0.55842 0.40200
C 	C 	0.38413 0.08445 0.62293 0.41600
C 	C 	0.44572 0.97840 0.67862 0.41000
C 	C 	0.32335 0.96163 0.70667 0.06700
C 	C 	0.30301 0.98044 0.68809 -0.13200
C 	C 	0.67445 0.06406 0.29698 0.39600
Fe	Fe	0.40830 0.89070 0.95494 1.25700
Fe	Fe	0.66463 0.90422 0.11076 1.26300
O 	O 	0.57960 0.80449 0.85443 -0.45700
O 	O 	0.64480 0.78277 0.83266 -0.45700
O 	O 	0.50515 0.94315 0.99279 -0.45400
O 	O 	0.50294 0.00361 0.04653 -0.43200
O 	O 	0.47831 0.94822 0.04053 -0.44700
O 	O 	0.48575 0.86729 0.91698 -0.46100
O 	O 	0.46755 0.90275 0.95224 -0.45900
O 	O 	0.44227 0.85386 0.94697 -0.45700
O 	O 	0.39214 0.88763 0.93064 -0.44200
O 	O 	0.37165 0.92464 0.96751 -0.44600
O 	O 	0.42312 0.89082 0.98193 -0.45400
O 	O 	0.65536 0.98068 0.08267 -0.44400
O 	O 	0.59420 0.00054 0.10277 -0.42500
O 	O 	0.68141 0.93474 0.07413 -0.45600
O 	O 	0.56744 0.97160 0.11331 -0.43500
O 	O 	0.65270 0.87001 0.14470 -0.46500
O 	O 	0.64991 0.90239 0.08477 -0.45300
C 	C 	0.53959 0.01730 0.06431 0.04900
C 	C 	0.56028 0.02232 0.07087 -0.10500
C 	C 	0.57457 0.99691 0.09756 0.36400
C 	C 	0.52116 0.81069 0.90412 0.08800
C 	C 	0.48951 0.81663 0.92464 -0.15400
C 	C 	0.47145 0.84758 0.93046 0.41700
C 	C 	0.41990 0.89750 0.03384 0.08600
C 	C 	0.43677 0.91815 0.05371 0.08200
C 	C 	0.44538 0.90079 0.00558 -0.14800
C 	C 	0.46329 0.92120 0.02589 -0.14200
C 	C 	0.46721 0.91227 0.00198 0.08200
C 	C 	0.41470 0.90679 0.05765 -0.15200
C 	C 	0.48382 0.93810 0.01966 0.40200
C 	C 	0.38413 0.90850 0.08445 0.41700
C 	C 	0.44572 0.89726 0.97840 0.41000
C 	C 	0.32335 0.00835 0.96163 0.07100
C 	C 	0.30301 0.02847 0.98044 -0.13300
C 	C 	0.67445 0.96451 0.06406 0.39700
Fe	Fe	0.74605 0.95494 0.89070 1.25700
Fe	Fe	0.32040 0.11076 0.90422 1.26300
O 	O 	0.76148 0.85443 0.80449 -0.45700
O 	O 	0.73977 0.83266 0.78277 -0.45700
O 	O 	0.55891 0.99279 0.94315 -0.45400
O 	O 	0.44692 0.04653 0.00361 -0.43200
O 	O 	0.53294 0.04053 0.94822 -0.44700
O 	O 	0.72999 0.91698 0.86729 -0.46100
O 	O 	0.67745 0.95224 0.90275 -0.45900
O 	O 	0.75690 0.94697 0.85386 -0.45700
O 	O 	0.78959 0.93064 0.88763 -0.44200
O 	O 	0.73620 0.96751 0.92464 -0.44600
O 	O 	0.70413 0.98193 0.89082 -0.45400
O 	O 	0.28130 0.08267 0.98068 -0.44400
O 	O 	0.30249 0.10277 0.00054 -0.42500
O 	O 	0.30972 0.07413 0.93474 -0.45500
O 	O 	0.34765 0.11331 0.97160 -0.43500
O 	O 	0.33260 0.14470 0.87001 -0.46600
O 	O 	0.36294 0.08477 0.90239 -0.45300
C 	C 	0.37880 0.06431 0.01730 0.04900
C 	C 	0.34653 0.07087 0.02232 -0.10500
C 	C 	0.33096 0.09756 0.99691 0.36400
C 	C 	0.76403 0.90412 0.81069 0.08800
C 	C 	0.76922 0.92464 0.81663 -0.15400
C 	C 	0.75051 0.93046 0.84758 0.41700
C 	C 	0.64876 0.03384 0.89750 0.08600
C 	C 	0.59137 0.05371 0.91815 0.08200
C 	C 	0.64825 0.00558 0.90079 -0.14800
C 	C 	0.58962 0.02589 0.92120 -0.14200
C 	C 	0.61855 0.00198 0.91227 0.08200
C 	C 	0.62086 0.05765 0.90679 -0.15200
C 	C 	0.55842 0.01966 0.93810 0.40200
C 	C 	0.62293 0.08445 0.90850 0.41600
C 	C 	0.67862 0.97840 0.89726 0.41000
C 	C 	0.70667 0.96163 0.00835 0.07000
C 	C 	0.68809 0.98044 0.02847 -0.13300
C 	C 	0.29698 0.06406 0.96451 0.39700
Fe	Fe	0.95494 0.74605 0.40830 1.25700
Fe	Fe	0.11076 0.32040 0.66463 1.26300
O 	O 	0.85443 0.76148 0.57960 -0.45700
O 	O 	0.83266 0.73977 0.64480 -0.45700
O 	O 	0.99279 0.55891 0.50515 -0.45400
O 	O 	0.04653 0.44692 0.50294 -0.43300
O 	O 	0.04053 0.53294 0.47831 -0.44700
O 	O 	0.91698 0.72999 0.48575 -0.46100
O 	O 	0.95224 0.67745 0.46755 -0.45900
O 	O 	0.94697 0.75690 0.44227 -0.45700
O 	O 	0.93064 0.78959 0.39214 -0.44200
O 	O 	0.96751 0.73620 0.37165 -0.44600
O 	O 	0.98193 0.70413 0.42312 -0.45400
O 	O 	0.08267 0.28130 0.65536 -0.44300
O 	O 	0.10277 0.30249 0.59420 -0.42800
O 	O 	0.07413 0.30972 0.68141 -0.45500
O 	O 	0.11331 0.34765 0.56744 -0.43500
O 	O 	0.14470 0.33260 0.65270 -0.46600
O 	O 	0.08477 0.36294 0.64991 -0.45300
C 	C 	0.06431 0.37880 0.53959 0.04800
C 	C 	0.07087 0.34653 0.56028 -0.10700
C 	C 	0.09756 0.33096 0.57457 0.36800
C 	C 	0.90412 0.76403 0.52116 0.08800
C 	C 	0.92464 0.76922 0.48951 -0.15400
C 	C 	0.93046 0.75051 0.47145 0.41700
C 	C 	0.03384 0.64876 0.41990 0.08600
C 	C 	0.05371 0.59137 0.43677 0.08200
C 	C 	0.00558 0.64825 0.44538 -0.14700
C 	C 	0.02589 0.58962 0.46329 -0.14100
C 	C 	0.00198 0.61855 0.46721 0.08200
C 	C 	0.05765 0.62086 0.41470 -0.15200
C 	C 	0.01966 0.55842 0.48382 0.40200
C 	C 	0.08445 0.62293 0.38413 0.41600
C 	C 	0.97840 0.67862 0.44572 0.41000
C 	C 	0.96163 0.70667 0.32335 0.06700
C 	C 	0.98044 0.68809 0.30301 -0.13200
C 	C 	0.06406 0.29698 0.67445 0.39600
Fe	Fe	0.89070 0.40830 0.74605 1.25800
Fe	Fe	0.90422 0.66463 0.32040 1.26300
O 	O 	0.80449 0.57960 0.76148 -0.45700
O 	O 	0.78277 0.64480 0.73977 -0.45700
O 	O 	0.94315 0.50515 0.55891 -0.45200
O 	O 	0.00361 0.50294 0.44692 -0.43200
O 	O 	0.94822 0.47831 0.53294 -0.44700
O 	O 	0.86729 0.48575 0.72999 -0.46100
O 	O 	0.90275 0.46755 0.67745 -0.45900
O 	O 	0.85386 0.44227 0.75690 -0.45700
O 	O 	0.88763 0.39214 0.78959 -0.44100
O 	O 	0.92464 0.37165 0.73620 -0.44600
O 	O 	0.89082 0.42312 0.70413 -0.45300
O 	O 	0.98068 0.65536 0.28130 -0.44400
O 	O 	0.00054 0.59420 0.30249 -0.42500
O 	O 	0.93474 0.68141 0.30972 -0.45600
O 	O 	0.97160 0.56744 0.34765 -0.43500
O 	O 	0.87001 0.65270 0.33260 -0.46500
O 	O 	0.90239 0.64991 0.36294 -0.45300
C 	C 	0.01730 0.53959 0.37880 0.04900
C 	C 	0.02232 0.56028 0.34653 -0.10500
C 	C 	0.99691 0.57457 0.33096 0.36500
C 	C 	0.81069 0.52116 0.76403 0.08800
C 	C 	0.81663 0.48951 0.76922 -0.15300
C 	C 	0.84758 0.47145 0.75051 0.41700
C 	C 	0.89750 0.41990 0.64876 0.08600
C 	C 	0.91815 0.43677 0.59137 0.08100
C 	C 	0.90079 0.44538 0.64825 -0.14900
C 	C 	0.92120 0.46329 0.58962 -0.14100
C 	C 	0.91227 0.46721 0.61855 0.08000
C 	C 	0.90679 0.41470 0.62086 -0.15200
C 	C 	0.93810 0.48382 0.55842 0.39900
C 	C 	0.90850 0.38413 0.62293 0.41600
C 	C 	0.89726 0.44572 0.67862 0.41100
C 	C 	0.00835 0.32335 0.70667 0.06900
C 	C 	0.02847 0.30301 0.68809 -0.13000
C 	C 	0.96451 0.67445 0.29698 0.39600
Fe	Fe	0.75288 0.61219 0.81746 1.26600
Fe	Fe	0.70527 0.47422 0.91026 1.27100
O 	O 	0.73245 0.43027 0.91864 -0.60500
C 	C 	0.83981 0.38415 0.88802 -0.12200
C 	C 	0.80425 0.38923 0.90326 0.38400
C 	C 	0.67905 0.29310 0.01392 0.06800
C 	C 	0.71581 0.33431 0.97494 -0.13100
C 	C 	0.73081 0.36043 0.95438 0.39200
Fe	Fe	0.61219 0.75288 0.81746 1.26600
Fe	Fe	0.47422 0.70527 0.91026 1.27100
O 	O 	0.43027 0.73245 0.91864 -0.60500
C 	C 	0.38415 0.83981 0.88802 -0.12200
C 	C 	0.38923 0.80425 0.90326 0.38400
C 	C 	0.29310 0.67905 0.01392 0.06800
C 	C 	0.33431 0.71581 0.97494 -0.13100
C 	C 	0.36043 0.73081 0.95438 0.39200
Fe	Fe	0.81746 0.81746 0.75288 1.26600
Fe	Fe	0.91026 0.91026 0.70527 1.27100
O 	O 	0.91864 0.91864 0.73245 -0.60500
C 	C 	0.88802 0.88802 0.83981 -0.12200
C 	C 	0.90326 0.90326 0.80425 0.38400
C 	C 	0.01392 0.01392 0.67905 0.07200
C 	C 	0.97494 0.97494 0.71581 -0.13400
C 	C 	0.95438 0.95438 0.73081 0.39200
Fe	Fe	0.81746 0.81746 0.61219 1.26600
Fe	Fe	0.91026 0.91026 0.47422 1.27100
O 	O 	0.91864 0.91864 0.43027 -0.60500
C 	C 	0.88802 0.88802 0.38415 -0.12200
C 	C 	0.90326 0.90326 0.38923 0.38400
C 	C 	0.01392 0.01392 0.29310 0.07200
C 	C 	0.97494 0.97494 0.33431 -0.13400
C 	C 	0.95438 0.95438 0.36043 0.39200
Fe	Fe	0.81746 0.75288 0.61219 1.26600
Fe	Fe	0.91026 0.70527 0.47422 1.27100
O 	O 	0.91864 0.73245 0.43027 -0.60500
C 	C 	0.88802 0.83981 0.38415 -0.12200
C 	C 	0.90326 0.80425 0.38923 0.38400
C 	C 	0.01392 0.67905 0.29310 0.06800
C 	C 	0.97494 0.71581 0.33431 -0.13100
C 	C 	0.95438 0.73081 0.36043 0.39200
Fe	Fe	0.81746 0.61219 0.75288 1.26600
Fe	Fe	0.91026 0.47422 0.70527 1.27100
O 	O 	0.91864 0.43027 0.73245 -0.60500
C 	C 	0.88802 0.38415 0.83981 -0.12200
C 	C 	0.90326 0.38923 0.80425 0.38400
C 	C 	0.01392 0.29310 0.67905 0.06800
C 	C 	0.97494 0.33431 0.71581 -0.13100
C 	C 	0.95438 0.36043 0.73081 0.39200
Fe	Fe	0.75288 0.81746 0.81746 1.26600
Fe	Fe	0.70527 0.91026 0.91026 1.27100
O 	O 	0.73245 0.91864 0.91864 -0.60500
C 	C 	0.83981 0.88802 0.88802 -0.12200
C 	C 	0.80425 0.90326 0.90326 0.38400
C 	C 	0.67905 0.01392 0.01392 0.07200
C 	C 	0.71581 0.97494 0.97494 -0.13400
C 	C 	0.73081 0.95438 0.95438 0.39200
Fe	Fe	0.61219 0.81746 0.81746 1.26600
Fe	Fe	0.47422 0.91026 0.91026 1.27100
O 	O 	0.43027 0.91864 0.91864 -0.60500
C 	C 	0.38415 0.88802 0.88802 -0.12200
C 	C 	0.38923 0.90326 0.90326 0.38400
C 	C 	0.29310 0.01392 0.01392 0.07200
C 	C 	0.33431 0.97494 0.97494 -0.13400
C 	C 	0.36043 0.95438 0.95438 0.39200
Fe	Fe	0.61219 0.81746 0.75288 1.26600
Fe	Fe	0.47422 0.91026 0.70527 1.27100
O 	O 	0.43027 0.91864 0.73245 -0.60500
C 	C 	0.38415 0.88802 0.83981 -0.12200
C 	C 	0.38923 0.90326 0.80425 0.38400
C 	C 	0.29310 0.01392 0.67905 0.06800
C 	C 	0.33431 0.97494 0.71581 -0.13100
C 	C 	0.36043 0.95438 0.73081 0.39200
Fe	Fe	0.75288 0.81746 0.61219 1.26600
Fe	Fe	0.70527 0.91026 0.47422 1.27100
O 	O 	0.73245 0.91864 0.43027 -0.60500
C 	C 	0.83981 0.88802 0.38415 -0.12200
C 	C 	0.80425 0.90326 0.38923 0.38400
C 	C 	0.67905 0.01392 0.29310 0.06800
C 	C 	0.71581 0.97494 0.33431 -0.13100
C 	C 	0.73081 0.95438 0.36043 0.39200
Fe	Fe	0.81746 0.75288 0.81746 1.26600
Fe	Fe	0.91026 0.70527 0.91026 1.27100
O 	O 	0.91864 0.73245 0.91864 -0.60500
C 	C 	0.88802 0.83981 0.88802 -0.12200
C 	C 	0.90326 0.80425 0.90326 0.38400
C 	C 	0.01392 0.67905 0.01392 0.07200
C 	C 	0.97494 0.71581 0.97494 -0.13400
C 	C 	0.95438 0.73081 0.95438 0.39200
Fe	Fe	0.81746 0.61219 0.81746 1.26600
Fe	Fe	0.91026 0.47422 0.91026 1.27100
O 	O 	0.91864 0.43027 0.91864 -0.60500
C 	C 	0.88802 0.38415 0.88802 -0.12200
C 	C 	0.90326 0.38923 0.90326 0.38400
C 	C 	0.01392 0.29310 0.01392 0.07200
C 	C 	0.97494 0.33431 0.97494 -0.13400
C 	C 	0.95438 0.36043 0.95438 0.39200
Fe	Fe	0.49712 0.63781 0.43254 1.26600
Fe	Fe	0.54473 0.77578 0.33974 1.27100
O 	O 	0.51755 0.81973 0.33136 -0.60500
C 	C 	0.41019 0.86585 0.36198 -0.12200
C 	C 	0.44575 0.86077 0.34674 0.38400
C 	C 	0.57095 0.95690 0.23608 0.06500
C 	C 	0.53419 0.91569 0.27506 -0.12800
C 	C 	0.51919 0.88957 0.29562 0.39100
Fe	Fe	0.63781 0.49712 0.43254 1.26600
Fe	Fe	0.77578 0.54473 0.33974 1.27100
O 	O 	0.81973 0.51755 0.33136 -0.60500
C 	C 	0.86585 0.41019 0.36198 -0.12200
C 	C 	0.86077 0.44575 0.34674 0.38400
C 	C 	0.95690 0.57095 0.23608 0.06500
C 	C 	0.91569 0.53419 0.27506 -0.12800
C 	C 	0.88957 0.51919 0.29562 0.39100
Fe	Fe	0.43254 0.43254 0.63781 1.26600
Fe	Fe	0.33974 0.33974 0.77578 1.27100
O 	O 	0.33136 0.33136 0.81973 -0.60500
C 	C 	0.36198 0.36198 0.86585 -0.12200
C 	C 	0.34674 0.34674 0.86077 0.38400
C 	C 	0.23608 0.23608 0.95690 0.06500
C 	C 	0.27506 0.27506 0.91569 -0.12800
C 	C 	0.29562 0.29562 0.88957 0.39100
Fe	Fe	0.43254 0.43254 0.49712 1.26600
Fe	Fe	0.33974 0.33974 0.54473 1.27100
O 	O 	0.33136 0.33136 0.51755 -0.60500
C 	C 	0.36198 0.36198 0.41019 -0.12200
C 	C 	0.34674 0.34674 0.44575 0.38400
C 	C 	0.23608 0.23608 0.57095 0.06500
C 	C 	0.27506 0.27506 0.53419 -0.12800
C 	C 	0.29562 0.29562 0.51919 0.39100
Fe	Fe	0.43254 0.49712 0.43254 1.26600
Fe	Fe	0.33974 0.54473 0.33974 1.27100
O 	O 	0.33136 0.51755 0.33136 -0.60500
C 	C 	0.36198 0.41019 0.36198 -0.12200
C 	C 	0.34674 0.44575 0.34674 0.38400
C 	C 	0.23608 0.57095 0.23608 0.06500
C 	C 	0.27506 0.53419 0.27506 -0.12800
C 	C 	0.29562 0.51919 0.29562 0.39100
Fe	Fe	0.43254 0.63781 0.43254 1.26600
Fe	Fe	0.33974 0.77578 0.33974 1.27100
O 	O 	0.33136 0.81973 0.33136 -0.60500
C 	C 	0.36198 0.86585 0.36198 -0.12200
C 	C 	0.34674 0.86077 0.34674 0.38400
C 	C 	0.23608 0.95690 0.23608 0.06500
C 	C 	0.27506 0.91569 0.27506 -0.12800
C 	C 	0.29562 0.88957 0.29562 0.39100
Fe	Fe	0.49712 0.43254 0.63781 1.26600
Fe	Fe	0.54473 0.33974 0.77578 1.27100
O 	O 	0.51755 0.33136 0.81973 -0.60500
C 	C 	0.41019 0.36198 0.86585 -0.12200
C 	C 	0.44575 0.34674 0.86077 0.38400
C 	C 	0.57095 0.23608 0.95690 0.06500
C 	C 	0.53419 0.27506 0.91569 -0.12800
C 	C 	0.51919 0.29562 0.88957 0.39100
Fe	Fe	0.63781 0.43254 0.49712 1.26600
Fe	Fe	0.77578 0.33974 0.54473 1.27100
O 	O 	0.81973 0.33136 0.51755 -0.60500
C 	C 	0.86585 0.36198 0.41019 -0.12200
C 	C 	0.86077 0.34674 0.44575 0.38400
C 	C 	0.95690 0.23608 0.57095 0.06500
C 	C 	0.91569 0.27506 0.53419 -0.12800
C 	C 	0.88957 0.29562 0.51919 0.39100
Fe	Fe	0.63781 0.43254 0.43254 1.26600
Fe	Fe	0.77578 0.33974 0.33974 1.27100
O 	O 	0.81973 0.33136 0.33136 -0.60500
C 	C 	0.86585 0.36198 0.36198 -0.12200
C 	C 	0.86077 0.34674 0.34674 0.38400
C 	C 	0.95690 0.23608 0.23608 0.06500
C 	C 	0.91569 0.27506 0.27506 -0.12800
C 	C 	0.88957 0.29562 0.29562 0.39100
Fe	Fe	0.49712 0.43254 0.43254 1.26600
Fe	Fe	0.54473 0.33974 0.33974 1.27100
O 	O 	0.51755 0.33136 0.33136 -0.60500
C 	C 	0.41019 0.36198 0.36198 -0.12200
C 	C 	0.44575 0.34674 0.34674 0.38400
C 	C 	0.57095 0.23608 0.23608 0.06500
C 	C 	0.53419 0.27506 0.27506 -0.12800
C 	C 	0.51919 0.29562 0.29562 0.39100
Fe	Fe	0.43254 0.49712 0.63781 1.26600
Fe	Fe	0.33974 0.54473 0.77578 1.27100
O 	O 	0.33136 0.51755 0.81973 -0.60500
C 	C 	0.36198 0.41019 0.86585 -0.12200
C 	C 	0.34674 0.44575 0.86077 0.38400
C 	C 	0.23608 0.57095 0.95690 0.06500
C 	C 	0.27506 0.53419 0.91569 -0.12800
C 	C 	0.29562 0.51919 0.88957 0.39100
Fe	Fe	0.43254 0.63781 0.49712 1.26600
Fe	Fe	0.33974 0.77578 0.54473 1.27100
O 	O 	0.33136 0.81973 0.51755 -0.60500
C 	C 	0.36198 0.86585 0.41019 -0.12200
C 	C 	0.34674 0.86077 0.44575 0.38400
C 	C 	0.23608 0.95690 0.57095 0.06500
C 	C 	0.27506 0.91569 0.53419 -0.12800
C 	C 	0.29562 0.88957 0.51919 0.39100
C 	C 	0.43198 0.51002 0.02900 0.37000
C 	C 	0.39576 0.52884 0.03770 -0.10700
C 	C 	0.33106 0.57012 0.04941 0.04600
C 	C 	0.51002 0.43198 0.02900 0.37000
C 	C 	0.52884 0.39576 0.03770 -0.10700
C 	C 	0.57012 0.33106 0.04941 0.04600
C 	C 	0.02900 0.02900 0.43198 0.37000
C 	C 	0.03770 0.03770 0.39576 -0.10800
C 	C 	0.04941 0.04941 0.33106 0.04600
C 	C 	0.02900 0.02900 0.51002 0.37000
C 	C 	0.03770 0.03770 0.52884 -0.10800
C 	C 	0.04941 0.04941 0.57012 0.04600
C 	C 	0.02900 0.43198 0.51002 0.37000
C 	C 	0.03770 0.39576 0.52884 -0.10700
C 	C 	0.04941 0.33106 0.57012 0.04600
C 	C 	0.02900 0.51002 0.43198 0.37000
C 	C 	0.03770 0.52884 0.39576 -0.10700
C 	C 	0.04941 0.57012 0.33106 0.04600
C 	C 	0.43198 0.02900 0.02900 0.37000
C 	C 	0.39576 0.03770 0.03770 -0.10800
C 	C 	0.33106 0.04941 0.04941 0.04600
C 	C 	0.51002 0.02900 0.02900 0.37000
C 	C 	0.52884 0.03770 0.03770 -0.10800
C 	C 	0.57012 0.04941 0.04941 0.04600
C 	C 	0.51002 0.02900 0.43198 0.37000
C 	C 	0.52884 0.03770 0.39576 -0.10700
C 	C 	0.57012 0.04941 0.33106 0.04600
C 	C 	0.43198 0.02900 0.51002 0.37000
C 	C 	0.39576 0.03770 0.52884 -0.10700
C 	C 	0.33106 0.04941 0.57012 0.04600
C 	C 	0.02900 0.43198 0.02900 0.37000
C 	C 	0.03770 0.39576 0.03770 -0.10800
C 	C 	0.04941 0.33106 0.04941 0.04600
C 	C 	0.02900 0.51002 0.02900 0.37000
C 	C 	0.03770 0.52884 0.03770 -0.10800
C 	C 	0.04941 0.57012 0.04941 0.04600
C 	C 	0.81802 0.73998 0.22100 0.36900
C 	C 	0.85424 0.72116 0.21230 -0.10700
C 	C 	0.91894 0.67988 0.20059 0.04700
C 	C 	0.73998 0.81802 0.22100 0.36900
C 	C 	0.72116 0.85424 0.21230 -0.10700
C 	C 	0.67988 0.91894 0.20059 0.04700
C 	C 	0.22100 0.22100 0.73998 0.36900
C 	C 	0.21230 0.21230 0.72116 -0.10700
C 	C 	0.20059 0.20059 0.67988 0.04700
C 	C 	0.22100 0.22100 0.81802 0.36900
C 	C 	0.21230 0.21230 0.85424 -0.10700
C 	C 	0.20059 0.20059 0.91894 0.04700
C 	C 	0.22100 0.81802 0.22100 0.36900
C 	C 	0.21230 0.85424 0.21230 -0.10700
C 	C 	0.20059 0.91894 0.20059 0.04700
C 	C 	0.22100 0.73998 0.22100 0.36900
C 	C 	0.21230 0.72116 0.21230 -0.10700
C 	C 	0.20059 0.67988 0.20059 0.04700
C 	C 	0.81802 0.22100 0.73998 0.36900
C 	C 	0.85424 0.21230 0.72116 -0.10700
C 	C 	0.91894 0.20059 0.67988 0.04700
C 	C 	0.73998 0.22100 0.81802 0.36900
C 	C 	0.72116 0.21230 0.85424 -0.10700
C 	C 	0.67988 0.20059 0.91894 0.04700
C 	C 	0.73998 0.22100 0.22100 0.36900
C 	C 	0.72116 0.21230 0.21230 -0.10700
C 	C 	0.67988 0.20059 0.20059 0.04700
C 	C 	0.81802 0.22100 0.22100 0.36900
C 	C 	0.85424 0.21230 0.21230 -0.10700
C 	C 	0.91894 0.20059 0.20059 0.04700
C 	C 	0.22100 0.81802 0.73998 0.36900
C 	C 	0.21230 0.85424 0.72116 -0.10700
C 	C 	0.20059 0.91894 0.67988 0.04700
C 	C 	0.22100 0.73998 0.81802 0.36900
C 	C 	0.21230 0.72116 0.85424 -0.10700
C 	C 	0.20059 0.67988 0.91894 0.04700
Fe	Fe	0.53058 0.53058 0.96942 1.26300
O 	O 	0.50411 0.50411 0.99589 -0.61000
Fe	Fe	0.96942 0.96942 0.53058 1.26300
O 	O 	0.99589 0.99589 0.50411 -0.61100
Fe	Fe	0.96942 0.53058 0.53058 1.26300
O 	O 	0.99589 0.50411 0.50411 -0.61000
Fe	Fe	0.53058 0.96942 0.96942 1.26300
O 	O 	0.50411 0.99589 0.99589 -0.61100
Fe	Fe	0.53058 0.96942 0.53058 1.26300
O 	O 	0.50411 0.99589 0.50411 -0.61000
Fe	Fe	0.96942 0.53058 0.96942 1.26300
O 	O 	0.99589 0.50411 0.99589 -0.61100
Fe	Fe	0.71942 0.71942 0.28058 1.26300
O 	O 	0.74589 0.74589 0.25411 -0.60900
Fe	Fe	0.28058 0.28058 0.71942 1.26300
O 	O 	0.25411 0.25411 0.74589 -0.60900
Fe	Fe	0.28058 0.71942 0.28058 1.26300
O 	O 	0.25411 0.74589 0.25411 -0.60900
Fe	Fe	0.71942 0.28058 0.71942 1.26300
O 	O 	0.74589 0.25411 0.74589 -0.60900
Fe	Fe	0.71942 0.28058 0.28058 1.26300
O 	O 	0.74589 0.25411 0.25411 -0.60900
Fe	Fe	0.28058 0.71942 0.71942 1.26300
O 	O 	0.25411 0.74589 0.74589 -0.60900
Fe	Fe	0.49086 0.49086 0.97698 1.24800
C 	C 	0.70338 0.70338 0.75018 0.08700
Fe	Fe	0.49086 0.49086 0.04130 1.24900
C 	C 	0.70338 0.70338 0.84306 0.08700
Fe	Fe	0.97698 0.04130 0.49086 1.24800
C 	C 	0.75018 0.84306 0.70338 0.08700
Fe	Fe	0.04130 0.97698 0.49086 1.24800
C 	C 	0.84306 0.75018 0.70338 0.08700
Fe	Fe	0.97698 0.49086 0.49086 1.24800
C 	C 	0.75018 0.70338 0.70338 0.08700
Fe	Fe	0.04130 0.49086 0.49086 1.24900
C 	C 	0.84306 0.70338 0.70338 0.08700
Fe	Fe	0.49086 0.97698 0.04130 1.24800
C 	C 	0.70338 0.75018 0.84306 0.08700
Fe	Fe	0.49086 0.04130 0.97698 1.24800
C 	C 	0.70338 0.84306 0.75018 0.08700
Fe	Fe	0.49086 0.97698 0.49086 1.24800
C 	C 	0.70338 0.75018 0.70338 0.08700
Fe	Fe	0.49086 0.04130 0.49086 1.24900
C 	C 	0.70338 0.84306 0.70338 0.08700
Fe	Fe	0.04130 0.49086 0.97698 1.24800
C 	C 	0.84306 0.70338 0.75018 0.08700
Fe	Fe	0.97698 0.49086 0.04130 1.24800
C 	C 	0.75018 0.70338 0.84306 0.08700
Fe	Fe	0.75914 0.75914 0.20870 1.24800
C 	C 	0.54662 0.54662 0.40694 0.08700
Fe	Fe	0.75914 0.75914 0.27302 1.24800
C 	C 	0.54662 0.54662 0.49982 0.08700
Fe	Fe	0.27302 0.20870 0.75914 1.24800
C 	C 	0.49982 0.40694 0.54662 0.08700
Fe	Fe	0.20870 0.27302 0.75914 1.24800
C 	C 	0.40694 0.49982 0.54662 0.08700
Fe	Fe	0.27302 0.75914 0.20870 1.24800
C 	C 	0.49982 0.54662 0.40694 0.08700
Fe	Fe	0.20870 0.75914 0.27302 1.24800
C 	C 	0.40694 0.54662 0.49982 0.08700
Fe	Fe	0.75914 0.27302 0.75914 1.24800
C 	C 	0.54662 0.49982 0.54662 0.08700
Fe	Fe	0.75914 0.20870 0.75914 1.24800
C 	C 	0.54662 0.40694 0.54662 0.08700
Fe	Fe	0.75914 0.27302 0.20870 1.24800
C 	C 	0.54662 0.49982 0.40694 0.08700
Fe	Fe	0.75914 0.20870 0.27302 1.24800
C 	C 	0.54662 0.40694 0.49982 0.08700
Fe	Fe	0.20870 0.75914 0.75914 1.24800
C 	C 	0.40694 0.54662 0.54662 0.08700
Fe	Fe	0.27302 0.75914 0.75914 1.24800
C 	C 	0.49982 0.54662 0.54662 0.08700
Fe	Fe	0.27736 0.62500 0.97264 1.24300
O 	O 	0.31454 0.62500 0.93546 -0.60800
Fe	Fe	0.62500 0.27736 0.12500 1.24400
O 	O 	0.62500 0.31454 0.12500 -0.60800
Fe	Fe	0.97264 0.12500 0.27736 1.24300
O 	O 	0.93546 0.12500 0.31454 -0.60800
Fe	Fe	0.12500 0.97264 0.62500 1.24300
O 	O 	0.12500 0.93546 0.62500 -0.60800
Fe	Fe	0.97264 0.27736 0.62500 1.24300
O 	O 	0.93546 0.31454 0.62500 -0.60800
Fe	Fe	0.12500 0.62500 0.27736 1.24400
O 	O 	0.12500 0.62500 0.31454 -0.60800
Fe	Fe	0.27736 0.97264 0.12500 1.24300
O 	O 	0.31454 0.93546 0.12500 -0.60800
Fe	Fe	0.62500 0.12500 0.97264 1.24300
O 	O 	0.62500 0.12500 0.93546 -0.60800
Fe	Fe	0.62500 0.97264 0.27736 1.24300
O 	O 	0.62500 0.93546 0.31454 -0.60800
Fe	Fe	0.27736 0.12500 0.62500 1.24400
O 	O 	0.31454 0.12500 0.62500 -0.60800
Fe	Fe	0.12500 0.27736 0.97264 1.24300
O 	O 	0.12500 0.31454 0.93546 -0.60800
Fe	Fe	0.97264 0.62500 0.12500 1.24300
O 	O 	0.93546 0.62500 0.12500 -0.60800
Fe	Fe	0.97264 0.62500 0.27736 1.24300
O 	O 	0.93546 0.62500 0.31454 -0.60800
Fe	Fe	0.62500 0.97264 0.12500 1.24300
O 	O 	0.62500 0.93546 0.12500 -0.60800
Fe	Fe	0.27736 0.12500 0.97264 1.24300
O 	O 	0.31454 0.12500 0.93546 -0.60800
Fe	Fe	0.12500 0.27736 0.62500 1.24400
O 	O 	0.12500 0.31454 0.62500 -0.60800
Fe	Fe	0.27736 0.97264 0.62500 1.24300
O 	O 	0.31454 0.93546 0.62500 -0.60800
Fe	Fe	0.12500 0.62500 0.97264 1.24300
O 	O 	0.12500 0.62500 0.93546 -0.60800
Fe	Fe	0.97264 0.27736 0.12500 1.24300
O 	O 	0.93546 0.31454 0.12500 -0.60800
Fe	Fe	0.62500 0.12500 0.27736 1.24400
O 	O 	0.62500 0.12500 0.31454 -0.60800
Fe	Fe	0.62500 0.27736 0.97264 1.24300
O 	O 	0.62500 0.31454 0.93546 -0.60800
Fe	Fe	0.97264 0.12500 0.62500 1.24300
O 	O 	0.93546 0.12500 0.62500 -0.60800
Fe	Fe	0.12500 0.97264 0.27736 1.24300
O 	O 	0.12500 0.93546 0.31454 -0.60800
Fe	Fe	0.27736 0.62500 0.12500 1.24400
O 	O 	0.31454 0.62500 0.12500 -0.60800
O 	O 	0.79594 0.61218 0.79594 -0.60300
O 	O 	0.61218 0.79594 0.79594 -0.60300
O 	O 	0.79594 0.79594 0.79594 -0.60300
O 	O 	0.79594 0.79594 0.61218 -0.60300
O 	O 	0.45406 0.63782 0.45406 -0.60300
O 	O 	0.63782 0.45406 0.45406 -0.60300
O 	O 	0.45406 0.45406 0.63782 -0.60300
O 	O 	0.45406 0.45406 0.45406 -0.60300
C 	C 	0.85632 0.38400 0.85632 0.06000
C 	C 	0.78315 0.56767 0.78315 0.41400
C 	C 	0.78495 0.53705 0.78495 -0.15300
C 	C 	0.79543 0.47409 0.79543 0.08800
C 	C 	0.38400 0.85632 0.90335 0.06000
C 	C 	0.56767 0.78315 0.86604 0.41400
C 	C 	0.53705 0.78495 0.89304 -0.15300
C 	C 	0.47409 0.79543 0.93505 0.08800
C 	C 	0.85632 0.90335 0.85632 0.06000
C 	C 	0.78315 0.86604 0.78315 0.41400
C 	C 	0.78495 0.89304 0.78495 -0.15300
C 	C 	0.79543 0.93505 0.79543 0.08800
C 	C 	0.90335 0.85632 0.38400 0.06000
C 	C 	0.86604 0.78315 0.56767 0.41400
C 	C 	0.89304 0.78495 0.53705 -0.15300
C 	C 	0.93505 0.79543 0.47409 0.08800
C 	C 	0.85632 0.85632 0.38400 0.06000
C 	C 	0.78315 0.78315 0.56767 0.41400
C 	C 	0.78495 0.78495 0.53705 -0.15300
C 	C 	0.79543 0.79543 0.47409 0.08800
C 	C 	0.90335 0.38400 0.85632 0.06000
C 	C 	0.86604 0.56767 0.78315 0.41400
C 	C 	0.89304 0.53705 0.78495 -0.15300
C 	C 	0.93505 0.47409 0.79543 0.08800
C 	C 	0.85632 0.85632 0.90335 0.06000
C 	C 	0.78315 0.78315 0.86604 0.41400
C 	C 	0.78495 0.78495 0.89304 -0.15300
C 	C 	0.79543 0.79543 0.93505 0.08800
C 	C 	0.38400 0.90335 0.85632 0.06000
C 	C 	0.56767 0.86604 0.78315 0.41400
C 	C 	0.53705 0.89304 0.78495 -0.15300
C 	C 	0.47409 0.93505 0.79543 0.08800
C 	C 	0.38400 0.85632 0.85632 0.06000
C 	C 	0.56767 0.78315 0.78315 0.41400
C 	C 	0.53705 0.78495 0.78495 -0.15300
C 	C 	0.47409 0.79543 0.79543 0.08800
C 	C 	0.85632 0.90335 0.38400 0.06000
C 	C 	0.78315 0.86604 0.56767 0.41400
C 	C 	0.78495 0.89304 0.53705 -0.15300
C 	C 	0.79543 0.93505 0.47409 0.08800
C 	C 	0.90335 0.85632 0.85632 0.06000
C 	C 	0.86604 0.78315 0.78315 0.41400
C 	C 	0.89304 0.78495 0.78495 -0.15300
C 	C 	0.93505 0.79543 0.79543 0.08800
C 	C 	0.85632 0.38400 0.90335 0.06000
C 	C 	0.78315 0.56767 0.86604 0.41400
C 	C 	0.78495 0.53705 0.89304 -0.15300
C 	C 	0.79543 0.47409 0.93505 0.08800
C 	C 	0.39368 0.86600 0.34665 0.06000
C 	C 	0.46685 0.68233 0.38396 0.41400
C 	C 	0.46505 0.71295 0.35696 -0.15300
C 	C 	0.45457 0.77591 0.31495 0.08800
C 	C 	0.86600 0.39368 0.39368 0.06000
C 	C 	0.68233 0.46685 0.46685 0.41400
C 	C 	0.71295 0.46505 0.46505 -0.15300
C 	C 	0.77591 0.45457 0.45457 0.08800
C 	C 	0.39368 0.34665 0.86600 0.06000
C 	C 	0.46685 0.38396 0.68233 0.41400
C 	C 	0.46505 0.35696 0.71295 -0.15300
C 	C 	0.45457 0.31495 0.77591 0.08800
C 	C 	0.34665 0.39368 0.39368 0.06000
C 	C 	0.38396 0.46685 0.46685 0.41400
C 	C 	0.35696 0.46505 0.46505 -0.15300
C 	C 	0.31495 0.45457 0.45457 0.08800
C 	C 	0.39368 0.39368 0.34665 0.06000
C 	C 	0.46685 0.46685 0.38396 0.41400
C 	C 	0.46505 0.46505 0.35696 -0.15300
C 	C 	0.45457 0.45457 0.31495 0.08800
C 	C 	0.34665 0.86600 0.39368 0.06000
C 	C 	0.38396 0.68233 0.46685 0.41400
C 	C 	0.35696 0.71295 0.46505 -0.15300
C 	C 	0.31495 0.77591 0.45457 0.08800
C 	C 	0.39368 0.39368 0.86600 0.06000
C 	C 	0.46685 0.46685 0.68233 0.41400
C 	C 	0.46505 0.46505 0.71295 -0.15300
C 	C 	0.45457 0.45457 0.77591 0.08800
C 	C 	0.86600 0.34665 0.39368 0.06000
C 	C 	0.68233 0.38396 0.46685 0.41400
C 	C 	0.71295 0.35696 0.46505 -0.15300
C 	C 	0.77591 0.31495 0.45457 0.08800
C 	C 	0.86600 0.39368 0.34665 0.06000
C 	C 	0.68233 0.46685 0.38396 0.41400
C 	C 	0.71295 0.46505 0.35696 -0.15300
C 	C 	0.77591 0.45457 0.31495 0.08800
C 	C 	0.39368 0.34665 0.39368 0.06000
C 	C 	0.46685 0.38396 0.46685 0.41400
C 	C 	0.46505 0.35696 0.46505 -0.15300
C 	C 	0.45457 0.31495 0.45457 0.08800
C 	C 	0.34665 0.39368 0.86600 0.06000
C 	C 	0.38396 0.46685 0.68233 0.41400
C 	C 	0.35696 0.46505 0.71295 -0.15300
C 	C 	0.31495 0.45457 0.77591 0.08800
C 	C 	0.39368 0.86600 0.39368 0.06000
C 	C 	0.46685 0.68233 0.46685 0.41400
C 	C 	0.46505 0.71295 0.46505 -0.15300
C 	C 	0.45457 0.77591 0.45457 0.08800
C 	C 	0.73494 0.68746 0.73494 -0.15200
C 	C 	0.75349 0.65678 0.75349 0.41400
C 	C 	0.68746 0.73494 0.84266 -0.15200
C 	C 	0.65678 0.75349 0.83623 0.41400
C 	C 	0.73494 0.84266 0.73494 -0.15200
C 	C 	0.75349 0.83623 0.75349 0.41400
C 	C 	0.84266 0.73494 0.68746 -0.15200
C 	C 	0.83623 0.75349 0.65678 0.41400
C 	C 	0.73494 0.73494 0.68746 -0.15200
C 	C 	0.75349 0.75349 0.65678 0.41400
C 	C 	0.84266 0.68746 0.73494 -0.15200
C 	C 	0.83623 0.65678 0.75349 0.41400
C 	C 	0.73494 0.73494 0.84266 -0.15200
C 	C 	0.75349 0.75349 0.83623 0.41400
C 	C 	0.68746 0.84266 0.73494 -0.15200
C 	C 	0.65678 0.83623 0.75349 0.41400
C 	C 	0.68746 0.73494 0.73494 -0.15200
C 	C 	0.65678 0.75349 0.75349 0.41400
C 	C 	0.73494 0.84266 0.68746 -0.15200
C 	C 	0.75349 0.83623 0.65678 0.41400
C 	C 	0.84266 0.73494 0.73494 -0.15200
C 	C 	0.83623 0.75349 0.75349 0.41400
C 	C 	0.73494 0.68746 0.84266 -0.15200
C 	C 	0.75349 0.65678 0.83623 0.41400
C 	C 	0.51506 0.56254 0.40734 -0.15200
C 	C 	0.49651 0.59322 0.41377 0.41400
C 	C 	0.56254 0.51506 0.51506 -0.15200
C 	C 	0.59322 0.49651 0.49651 0.41400
C 	C 	0.51506 0.40734 0.56254 -0.15200
C 	C 	0.49651 0.41377 0.59322 0.41400
C 	C 	0.40734 0.51506 0.51506 -0.15200
C 	C 	0.41377 0.49651 0.49651 0.41400
C 	C 	0.51506 0.51506 0.40734 -0.15200
C 	C 	0.49651 0.49651 0.41377 0.41400
C 	C 	0.40734 0.56254 0.51506 -0.15200
C 	C 	0.41377 0.59322 0.49651 0.41400
C 	C 	0.51506 0.51506 0.56254 -0.15200
C 	C 	0.49651 0.49651 0.59322 0.41400
C 	C 	0.56254 0.40734 0.51506 -0.15200
C 	C 	0.59322 0.41377 0.49651 0.41400
C 	C 	0.56254 0.51506 0.40734 -0.15200
C 	C 	0.59322 0.49651 0.41377 0.41400
C 	C 	0.51506 0.40734 0.51506 -0.15200
C 	C 	0.49651 0.41377 0.49651 0.41400
C 	C 	0.40734 0.51506 0.56254 -0.15200
C 	C 	0.41377 0.49651 0.59322 0.41400
C 	C 	0.51506 0.56254 0.51506 -0.15200
C 	C 	0.49651 0.59322 0.49651 0.41400
H 	H 	0.39138 0.53276 0.99640 0.03900
H 	H 	0.74478 0.53281 0.82747 0.03300
H 	H 	0.67125 0.40270 0.88953 0.03300
H 	H 	0.56977 0.43236 0.92626 0.03300
H 	H 	0.61801 0.48631 0.91592 0.03400
H 	H 	0.71267 0.33223 0.01888 0.03700
H 	H 	0.53276 0.39138 0.07947 0.04000
H 	H 	0.53281 0.74478 0.89494 0.03300
H 	H 	0.40270 0.67125 0.03652 0.03300
H 	H 	0.43236 0.56977 0.07160 0.03300
H 	H 	0.48631 0.61801 0.97976 0.03300
H 	H 	0.33223 0.71267 0.93622 0.03700
H 	H 	0.99640 0.07947 0.39138 0.03900
H 	H 	0.82747 0.89494 0.74478 0.03300
H 	H 	0.88953 0.03652 0.67125 0.03300
H 	H 	0.92626 0.07160 0.56977 0.03200
H 	H 	0.91592 0.97976 0.61801 0.03300
H 	H 	0.01888 0.93622 0.71267 0.03700
H 	H 	0.07947 0.99640 0.53276 0.03900
H 	H 	0.89494 0.82747 0.53281 0.03300
H 	H 	0.03652 0.88953 0.40270 0.03300
H 	H 	0.07160 0.92626 0.43236 0.03200
H 	H 	0.97976 0.91592 0.48631 0.03200
H 	H 	0.93622 0.01888 0.33223 0.03700
H 	H 	0.99640 0.39138 0.53276 0.03900
H 	H 	0.82747 0.74478 0.53281 0.03300
H 	H 	0.88953 0.67125 0.40270 0.03300
H 	H 	0.92626 0.56977 0.43236 0.03300
H 	H 	0.91592 0.61801 0.48631 0.03400
H 	H 	0.01888 0.71267 0.33223 0.03700
H 	H 	0.07947 0.53276 0.39138 0.04000
H 	H 	0.89494 0.53281 0.74478 0.03300
H 	H 	0.03652 0.40270 0.67125 0.03300
H 	H 	0.07160 0.43236 0.56977 0.03300
H 	H 	0.97976 0.48631 0.61801 0.03300
H 	H 	0.93622 0.33223 0.71267 0.03700
H 	H 	0.39138 0.99640 0.07947 0.03900
H 	H 	0.74478 0.82747 0.89494 0.03300
H 	H 	0.67125 0.88953 0.03652 0.03300
H 	H 	0.56977 0.92626 0.07160 0.03200
H 	H 	0.61801 0.91592 0.97976 0.03300
H 	H 	0.71267 0.01888 0.93622 0.03700
H 	H 	0.53276 0.07947 0.99640 0.03900
H 	H 	0.53281 0.89494 0.82747 0.03300
H 	H 	0.40270 0.03652 0.88953 0.03300
H 	H 	0.43236 0.07160 0.92626 0.03200
H 	H 	0.48631 0.97976 0.91592 0.03200
H 	H 	0.33223 0.93622 0.01888 0.03700
H 	H 	0.53276 0.99640 0.39138 0.03900
H 	H 	0.53281 0.82747 0.74478 0.03300
H 	H 	0.40270 0.88953 0.67125 0.03300
H 	H 	0.43236 0.92626 0.56977 0.03300
H 	H 	0.48631 0.91592 0.61801 0.03400
H 	H 	0.33223 0.01888 0.71267 0.03700
H 	H 	0.39138 0.07947 0.53276 0.04000
H 	H 	0.74478 0.89494 0.53281 0.03300
H 	H 	0.67125 0.03652 0.40270 0.03300
H 	H 	0.56977 0.07160 0.43236 0.03300
H 	H 	0.61801 0.97976 0.48631 0.03300
H 	H 	0.71267 0.93622 0.33223 0.03700
H 	H 	0.07947 0.39138 0.99640 0.03900
H 	H 	0.89494 0.74478 0.82747 0.03300
H 	H 	0.03652 0.67125 0.88953 0.03300
H 	H 	0.07160 0.56977 0.92626 0.03200
H 	H 	0.97976 0.61801 0.91592 0.03300
H 	H 	0.93622 0.71267 0.01888 0.03700
H 	H 	0.99640 0.53276 0.07947 0.03900
H 	H 	0.82747 0.53281 0.89494 0.03300
H 	H 	0.88953 0.40270 0.03652 0.03300
H 	H 	0.92626 0.43236 0.07160 0.03200
H 	H 	0.91592 0.48631 0.97976 0.03200
H 	H 	0.01888 0.33223 0.93622 0.03700
H 	H 	0.85862 0.71724 0.17053 0.04000
H 	H 	0.50522 0.71719 0.35506 0.03300
H 	H 	0.57875 0.84730 0.21348 0.03300
H 	H 	0.68023 0.81764 0.17840 0.03300
H 	H 	0.63199 0.76369 0.27024 0.03400
H 	H 	0.53733 0.91777 0.31378 0.03700
H 	H 	0.71724 0.85862 0.25360 0.04000
H 	H 	0.71719 0.50522 0.42253 0.03300
H 	H 	0.84730 0.57875 0.36047 0.03300
H 	H 	0.81764 0.68023 0.32374 0.03300
H 	H 	0.76369 0.63199 0.33408 0.03400
H 	H 	0.91777 0.53733 0.23112 0.03700
H 	H 	0.25360 0.17053 0.71724 0.04000
H 	H 	0.42253 0.35506 0.71719 0.03300
H 	H 	0.36047 0.21348 0.84730 0.03300
H 	H 	0.32374 0.17840 0.81764 0.03300
H 	H 	0.33408 0.27024 0.76369 0.03400
H 	H 	0.23112 0.31378 0.91777 0.03700
H 	H 	0.17053 0.25360 0.85862 0.04000
H 	H 	0.35506 0.42253 0.50522 0.03300
H 	H 	0.21348 0.36047 0.57875 0.03300
H 	H 	0.17840 0.32374 0.68023 0.03300
H 	H 	0.27024 0.33408 0.63199 0.03400
H 	H 	0.31378 0.23112 0.53733 0.03700
H 	H 	0.25360 0.85862 0.17053 0.04000
H 	H 	0.42253 0.50522 0.35506 0.03300
H 	H 	0.36047 0.57875 0.21348 0.03300
H 	H 	0.32374 0.68023 0.17840 0.03300
H 	H 	0.33408 0.63199 0.27024 0.03400
H 	H 	0.23112 0.53733 0.31378 0.03700
H 	H 	0.17053 0.71724 0.25360 0.04000
H 	H 	0.35506 0.71719 0.42253 0.03300
H 	H 	0.21348 0.84730 0.36047 0.03300
H 	H 	0.17840 0.81764 0.32374 0.03300
H 	H 	0.27024 0.76369 0.33408 0.03400
H 	H 	0.31378 0.91777 0.23112 0.03700
H 	H 	0.85862 0.25360 0.71724 0.04000
H 	H 	0.50522 0.42253 0.71719 0.03300
H 	H 	0.57875 0.36047 0.84730 0.03300
H 	H 	0.68023 0.32374 0.81764 0.03300
H 	H 	0.63199 0.33408 0.76369 0.03400
H 	H 	0.53733 0.23112 0.91777 0.03700
H 	H 	0.71724 0.17053 0.85862 0.04000
H 	H 	0.71719 0.35506 0.50522 0.03300
H 	H 	0.84730 0.21348 0.57875 0.03300
H 	H 	0.81764 0.17840 0.68023 0.03300
H 	H 	0.76369 0.27024 0.63199 0.03400
H 	H 	0.91777 0.31378 0.53733 0.03700
H 	H 	0.71724 0.25360 0.17053 0.04000
H 	H 	0.71719 0.42253 0.35506 0.03300
H 	H 	0.84730 0.36047 0.21348 0.03300
H 	H 	0.81764 0.32374 0.17840 0.03300
H 	H 	0.76369 0.33408 0.27024 0.03400
H 	H 	0.91777 0.23112 0.31378 0.03700
H 	H 	0.85862 0.17053 0.25360 0.04000
H 	H 	0.50522 0.35506 0.42253 0.03300
H 	H 	0.57875 0.21348 0.36047 0.03300
H 	H 	0.68023 0.17840 0.32374 0.03300
H 	H 	0.63199 0.27024 0.33408 0.03400
H 	H 	0.53733 0.31378 0.23112 0.03700
H 	H 	0.17053 0.85862 0.71724 0.04000
H 	H 	0.35506 0.50522 0.71719 0.03300
H 	H 	0.21348 0.57875 0.84730 0.03300
H 	H 	0.17840 0.68023 0.81764 0.03300
H 	H 	0.27024 0.63199 0.76369 0.03400
H 	H 	0.31378 0.53733 0.91777 0.03700
H 	H 	0.25360 0.71724 0.85862 0.04000
H 	H 	0.42253 0.71719 0.50522 0.03300
H 	H 	0.36047 0.84730 0.57875 0.03300
H 	H 	0.32374 0.81764 0.68023 0.03300
H 	H 	0.33408 0.76369 0.63199 0.03400
H 	H 	0.23112 0.91777 0.53733 0.03700
H 	H 	0.85862 0.71724 0.25360 0.04000
H 	H 	0.50522 0.71719 0.42253 0.03300
H 	H 	0.57875 0.84730 0.36047 0.03300
H 	H 	0.68023 0.81764 0.32374 0.03300
H 	H 	0.63199 0.76369 0.33408 0.03400
H 	H 	0.53733 0.91777 0.23112 0.03700
H 	H 	0.71724 0.85862 0.17053 0.04000
H 	H 	0.71719 0.50522 0.35506 0.03300
H 	H 	0.84730 0.57875 0.21348 0.03300
H 	H 	0.81764 0.68023 0.17840 0.03300
H 	H 	0.76369 0.63199 0.27024 0.03400
H 	H 	0.91777 0.53733 0.31378 0.03700
H 	H 	0.25360 0.17053 0.85862 0.04000
H 	H 	0.42253 0.35506 0.50522 0.03300
H 	H 	0.36047 0.21348 0.57875 0.03300
H 	H 	0.32374 0.17840 0.68023 0.03300
H 	H 	0.33408 0.27024 0.63199 0.03400
H 	H 	0.23112 0.31378 0.53733 0.03700
H 	H 	0.17053 0.25360 0.71724 0.04000
H 	H 	0.35506 0.42253 0.71719 0.03300
H 	H 	0.21348 0.36047 0.84730 0.03300
H 	H 	0.17840 0.32374 0.81764 0.03300
H 	H 	0.27024 0.33408 0.76369 0.03400
H 	H 	0.31378 0.23112 0.91777 0.03700
H 	H 	0.25360 0.85862 0.71724 0.04000
H 	H 	0.42253 0.50522 0.71719 0.03300
H 	H 	0.36047 0.57875 0.84730 0.03300
H 	H 	0.32374 0.68023 0.81764 0.03300
H 	H 	0.33408 0.63199 0.76369 0.03400
H 	H 	0.23112 0.53733 0.91777 0.03700
H 	H 	0.17053 0.71724 0.85862 0.04000
H 	H 	0.35506 0.71719 0.50522 0.03300
H 	H 	0.21348 0.84730 0.57875 0.03300
H 	H 	0.17840 0.81764 0.68023 0.03300
H 	H 	0.27024 0.76369 0.63199 0.03400
H 	H 	0.31378 0.91777 0.53733 0.03700
H 	H 	0.85862 0.25360 0.17053 0.04000
H 	H 	0.50522 0.42253 0.35506 0.03300
H 	H 	0.57875 0.36047 0.21348 0.03300
H 	H 	0.68023 0.32374 0.17840 0.03300
H 	H 	0.63199 0.33408 0.27024 0.03400
H 	H 	0.53733 0.23112 0.31378 0.03700
H 	H 	0.71724 0.17053 0.25360 0.04000
H 	H 	0.71719 0.35506 0.42253 0.03300
H 	H 	0.84730 0.21348 0.36047 0.03300
H 	H 	0.81764 0.17840 0.32374 0.03300
H 	H 	0.76369 0.27024 0.33408 0.03400
H 	H 	0.91777 0.31378 0.23112 0.03700
H 	H 	0.71724 0.25360 0.85862 0.04000
H 	H 	0.71719 0.42253 0.50522 0.03300
H 	H 	0.84730 0.36047 0.57875 0.03300
H 	H 	0.81764 0.32374 0.68023 0.03300
H 	H 	0.76369 0.33408 0.63199 0.03400
H 	H 	0.91777 0.23112 0.53733 0.03700
H 	H 	0.85862 0.17053 0.71724 0.04000
H 	H 	0.50522 0.35506 0.71719 0.03300
H 	H 	0.57875 0.21348 0.84730 0.03300
H 	H 	0.68023 0.17840 0.81764 0.03300
H 	H 	0.63199 0.27024 0.76369 0.03400
H 	H 	0.53733 0.31378 0.91777 0.03700
H 	H 	0.17053 0.85862 0.25360 0.04000
H 	H 	0.35506 0.50522 0.42253 0.03300
H 	H 	0.21348 0.57875 0.36047 0.03300
H 	H 	0.17840 0.68023 0.32374 0.03300
H 	H 	0.27024 0.63199 0.33408 0.03400
H 	H 	0.31378 0.53733 0.23112 0.03700
H 	H 	0.25360 0.71724 0.17053 0.04000
H 	H 	0.42253 0.71719 0.35506 0.03300
H 	H 	0.36047 0.84730 0.21348 0.03300
H 	H 	0.32374 0.81764 0.17840 0.03300
H 	H 	0.33408 0.76369 0.27024 0.03400
H 	H 	0.23112 0.91777 0.31378 0.03700
H 	H 	0.39138 0.53276 0.07947 0.04000
H 	H 	0.74478 0.53281 0.89494 0.03300
H 	H 	0.67125 0.40270 0.03652 0.03300
H 	H 	0.56977 0.43236 0.07160 0.03300
H 	H 	0.61801 0.48631 0.97976 0.03300
H 	H 	0.71267 0.33223 0.93622 0.03700
H 	H 	0.53276 0.39138 0.99640 0.03900
H 	H 	0.53281 0.74478 0.82747 0.03300
H 	H 	0.40270 0.67125 0.88953 0.03300
H 	H 	0.43236 0.56977 0.92626 0.03300
H 	H 	0.48631 0.61801 0.91592 0.03400
H 	H 	0.33223 0.71267 0.01888 0.03700
H 	H 	0.99640 0.07947 0.53276 0.03900
H 	H 	0.82747 0.89494 0.53281 0.03300
H 	H 	0.88953 0.03652 0.40270 0.03300
H 	H 	0.92626 0.07160 0.43236 0.03200
H 	H 	0.91592 0.97976 0.48631 0.03200
H 	H 	0.01888 0.93622 0.33223 0.03700
H 	H 	0.07947 0.99640 0.39138 0.03900
H 	H 	0.89494 0.82747 0.74478 0.03300
H 	H 	0.03652 0.88953 0.67125 0.03300
H 	H 	0.07160 0.92626 0.56977 0.03200
H 	H 	0.97976 0.91592 0.61801 0.03300
H 	H 	0.93622 0.01888 0.71267 0.03700
H 	H 	0.99640 0.39138 0.07947 0.03900
H 	H 	0.82747 0.74478 0.89494 0.03300
H 	H 	0.88953 0.67125 0.03652 0.03300
H 	H 	0.92626 0.56977 0.07160 0.03200
H 	H 	0.91592 0.61801 0.97976 0.03300
H 	H 	0.01888 0.71267 0.93622 0.03700
H 	H 	0.07947 0.53276 0.99640 0.03900
H 	H 	0.89494 0.53281 0.82747 0.03300
H 	H 	0.03652 0.40270 0.88953 0.03300
H 	H 	0.07160 0.43236 0.92626 0.03200
H 	H 	0.97976 0.48631 0.91592 0.03200
H 	H 	0.93622 0.33223 0.01888 0.03700
H 	H 	0.39138 0.99640 0.53276 0.03900
H 	H 	0.74478 0.82747 0.53281 0.03300
H 	H 	0.67125 0.88953 0.40270 0.03300
H 	H 	0.56977 0.92626 0.43236 0.03300
H 	H 	0.61801 0.91592 0.48631 0.03400
H 	H 	0.71267 0.01888 0.33223 0.03700
H 	H 	0.53276 0.07947 0.39138 0.04000
H 	H 	0.53281 0.89494 0.74478 0.03300
H 	H 	0.40270 0.03652 0.67125 0.03300
H 	H 	0.43236 0.07160 0.56977 0.03300
H 	H 	0.48631 0.97976 0.61801 0.03300
H 	H 	0.33223 0.93622 0.71267 0.03700
H 	H 	0.53276 0.99640 0.07947 0.03900
H 	H 	0.53281 0.82747 0.89494 0.03300
H 	H 	0.40270 0.88953 0.03652 0.03300
H 	H 	0.43236 0.92626 0.07160 0.03200
H 	H 	0.48631 0.91592 0.97976 0.03200
H 	H 	0.33223 0.01888 0.93622 0.03700
H 	H 	0.39138 0.07947 0.99640 0.03900
H 	H 	0.74478 0.89494 0.82747 0.03300
H 	H 	0.67125 0.03652 0.88953 0.03300
H 	H 	0.56977 0.07160 0.92626 0.03200
H 	H 	0.61801 0.97976 0.91592 0.03300
H 	H 	0.71267 0.93622 0.01888 0.03700
H 	H 	0.07947 0.39138 0.53276 0.04000
H 	H 	0.89494 0.74478 0.53281 0.03300
H 	H 	0.03652 0.67125 0.40270 0.03300
H 	H 	0.07160 0.56977 0.43236 0.03300
H 	H 	0.97976 0.61801 0.48631 0.03300
H 	H 	0.93622 0.71267 0.33223 0.03700
H 	H 	0.99640 0.53276 0.39138 0.03900
H 	H 	0.82747 0.53281 0.74478 0.03300
H 	H 	0.88953 0.40270 0.67125 0.03300
H 	H 	0.92626 0.43236 0.56977 0.03300
H 	H 	0.91592 0.48631 0.61801 0.03400
H 	H 	0.01888 0.33223 0.71267 0.03700
H 	H 	0.66364 0.27900 0.02868 0.03400
H 	H 	0.27900 0.66364 0.02868 0.03400
H 	H 	0.02868 0.02868 0.66364 0.03300
H 	H 	0.02868 0.02868 0.27900 0.03300
H 	H 	0.02868 0.66364 0.27900 0.03400
H 	H 	0.02868 0.27900 0.66364 0.03400
H 	H 	0.66364 0.02868 0.02868 0.03300
H 	H 	0.27900 0.02868 0.02868 0.03300
H 	H 	0.27900 0.02868 0.66364 0.03400
H 	H 	0.66364 0.02868 0.27900 0.03400
H 	H 	0.02868 0.66364 0.02868 0.03300
H 	H 	0.02868 0.27900 0.02868 0.03300
H 	H 	0.58636 0.97100 0.22132 0.03400
H 	H 	0.97100 0.58636 0.22132 0.03400
H 	H 	0.22132 0.22132 0.97100 0.03400
H 	H 	0.22132 0.22132 0.58636 0.03400
H 	H 	0.22132 0.58636 0.22132 0.03400
H 	H 	0.22132 0.97100 0.22132 0.03400
H 	H 	0.58636 0.22132 0.97100 0.03400
H 	H 	0.97100 0.22132 0.58636 0.03400
H 	H 	0.97100 0.22132 0.22132 0.03400
H 	H 	0.58636 0.22132 0.22132 0.03400
H 	H 	0.22132 0.58636 0.97100 0.03400
H 	H 	0.22132 0.97100 0.58636 0.03400
H 	H 	0.30719 0.58672 0.05305 0.04000
H 	H 	0.58672 0.30719 0.05305 0.04000
H 	H 	0.05305 0.05305 0.30719 0.04000
H 	H 	0.05305 0.05305 0.58672 0.04000
H 	H 	0.05305 0.30719 0.58672 0.04000
H 	H 	0.05305 0.58672 0.30719 0.04000
H 	H 	0.30719 0.05305 0.05305 0.04000
H 	H 	0.58672 0.05305 0.05305 0.04000
H 	H 	0.58672 0.05305 0.30719 0.04000
H 	H 	0.30719 0.05305 0.58672 0.04000
H 	H 	0.05305 0.30719 0.05305 0.04000
H 	H 	0.05305 0.58672 0.05305 0.04000
H 	H 	0.94281 0.66328 0.19695 0.03900
H 	H 	0.66328 0.94281 0.19695 0.03900
H 	H 	0.19695 0.19695 0.66328 0.03900
H 	H 	0.19695 0.19695 0.94281 0.03900
H 	H 	0.19695 0.94281 0.19695 0.03900
H 	H 	0.19695 0.66328 0.19695 0.03900
H 	H 	0.94281 0.19695 0.66328 0.03900
H 	H 	0.66328 0.19695 0.94281 0.03900
H 	H 	0.66328 0.19695 0.19695 0.03900
H 	H 	0.94281 0.19695 0.19695 0.03900
H 	H 	0.19695 0.94281 0.66328 0.03900
H 	H 	0.19695 0.66328 0.94281 0.03900
H 	H 	0.69189 0.69189 0.77478 0.03300
H 	H 	0.69189 0.69189 0.84144 0.03300
H 	H 	0.77478 0.84144 0.69189 0.03300
H 	H 	0.84144 0.77478 0.69189 0.03300
H 	H 	0.77478 0.69189 0.69189 0.03300
H 	H 	0.84144 0.69189 0.69189 0.03300
H 	H 	0.69189 0.77478 0.84144 0.03300
H 	H 	0.69189 0.84144 0.77478 0.03300
H 	H 	0.69189 0.77478 0.69189 0.03300
H 	H 	0.69189 0.84144 0.69189 0.03300
H 	H 	0.84144 0.69189 0.77478 0.03300
H 	H 	0.77478 0.69189 0.84144 0.03300
H 	H 	0.55811 0.55811 0.40856 0.03300
H 	H 	0.55811 0.55811 0.47522 0.03300
H 	H 	0.47522 0.40856 0.55811 0.03300
H 	H 	0.40856 0.47522 0.55811 0.03300
H 	H 	0.47522 0.55811 0.40856 0.03300
H 	H 	0.40856 0.55811 0.47522 0.03300
H 	H 	0.55811 0.47522 0.55811 0.03300
H 	H 	0.55811 0.40856 0.55811 0.03300
H 	H 	0.55811 0.47522 0.40856 0.03300
H 	H 	0.55811 0.40856 0.47522 0.03300
H 	H 	0.40856 0.55811 0.55811 0.03300
H 	H 	0.47522 0.55811 0.55811 0.03300
H 	H 	0.84382 0.38541 0.84382 0.03800
H 	H 	0.80050 0.44940 0.80050 0.03100
H 	H 	0.38541 0.84382 0.92695 0.03800
H 	H 	0.44940 0.80050 0.94959 0.03100
H 	H 	0.84382 0.92695 0.84382 0.03800
H 	H 	0.80050 0.94959 0.80050 0.03100
H 	H 	0.92695 0.84382 0.38541 0.03800
H 	H 	0.94959 0.80050 0.44940 0.03100
H 	H 	0.84382 0.84382 0.38541 0.03800
H 	H 	0.80050 0.80050 0.44940 0.03100
H 	H 	0.92695 0.38541 0.84382 0.03800
H 	H 	0.94959 0.44940 0.80050 0.03100
H 	H 	0.84382 0.84382 0.92695 0.03800
H 	H 	0.80050 0.80050 0.94959 0.03100
H 	H 	0.38541 0.92695 0.84382 0.03800
H 	H 	0.44940 0.94959 0.80050 0.03100
H 	H 	0.38541 0.84382 0.84382 0.03800
H 	H 	0.44940 0.80050 0.80050 0.03100
H 	H 	0.84382 0.92695 0.38541 0.03800
H 	H 	0.80050 0.94959 0.44940 0.03100
H 	H 	0.92695 0.84382 0.84382 0.03800
H 	H 	0.94959 0.80050 0.80050 0.03100
H 	H 	0.84382 0.38541 0.92695 0.03800
H 	H 	0.80050 0.44940 0.94959 0.03100
H 	H 	0.40618 0.86459 0.32305 0.03800
H 	H 	0.44950 0.80060 0.30041 0.03100
H 	H 	0.86459 0.40618 0.40618 0.03800
H 	H 	0.80060 0.44950 0.44950 0.03100
H 	H 	0.40618 0.32305 0.86459 0.03800
H 	H 	0.44950 0.30041 0.80060 0.03100
H 	H 	0.32305 0.40618 0.40618 0.03800
H 	H 	0.30041 0.44950 0.44950 0.03100
H 	H 	0.40618 0.40618 0.32305 0.03800
H 	H 	0.44950 0.44950 0.30041 0.03100
H 	H 	0.32305 0.86459 0.40618 0.03800
H 	H 	0.30041 0.80060 0.44950 0.03100
H 	H 	0.40618 0.40618 0.86459 0.03800
H 	H 	0.44950 0.44950 0.80060 0.03100
H 	H 	0.86459 0.32305 0.40618 0.03800
H 	H 	0.80060 0.30041 0.44950 0.03100
H 	H 	0.86459 0.40618 0.32305 0.03800
H 	H 	0.80060 0.44950 0.30041 0.03100
H 	H 	0.40618 0.32305 0.40618 0.03800
H 	H 	0.44950 0.30041 0.44950 0.03100
H 	H 	0.32305 0.40618 0.86459 0.03800
H 	H 	0.30041 0.44950 0.80060 0.03100
H 	H 	0.40618 0.86459 0.40618 0.03800
H 	H 	0.44950 0.80060 0.44950 0.03100
