data_crystal

_cell_length_a 23.13200
_cell_length_b 23.13200
_cell_length_c 15.52800
_cell_angle_alpha 90.00000
_cell_angle_beta  90.00000
_cell_angle_gamma 120.00000

_symmetry_space_group_name_	'P 1'
_symmetry_space_group_name_H-M	'P 1'

loop_
_symmetry_equiv_pos_as_xyz
  x,y,z

loop_
_atom_site_label
_atom_site_type_symbol
_atom_site_fract_x
_atom_site_fract_y
_atom_site_fract_z
_atom_site_charge
N 	N 	0.68062 0.69310 0.60310 -0.29300
N 	N 	0.82872 0.75408 0.53840 -0.29300
C 	C 	0.61980 0.68280 0.62720 0.11200
C 	C 	0.86740 0.79420 0.60350 0.04900
N 	N 	0.84240 0.83190 0.65090 0.13000
O 	O 	0.79330 0.82650 0.64420 0.69100
O 	O 	0.88480 0.86290 0.71370 -0.29900
C 	C 	0.57980 0.69780 0.55130 -0.29100
H 	H 	0.61140 0.72670 0.50810 -0.42700
H 	H 	0.55700 0.71940 0.57600 0.29000
H 	H 	0.54740 0.65600 0.52470 0.14000
N 	N 	0.58550 0.70830 0.58800 -0.09700
O 	O 	0.53220 0.69890 0.61670 -0.25500
O 	O 	0.60690 0.73270 0.51900 0.49700
C 	C 	0.84560 0.82750 0.66420 -0.20800
H 	H 	0.80150 0.81900 0.64810 -0.71200
H 	H 	0.87670 0.87520 0.66300 0.19500
H 	H 	0.84410 0.81050 0.72180 0.18600
N 	N 	0.34729 0.02643 0.93643 -0.28700
N 	N 	0.49539 0.08741 0.87173 -0.29700
C 	C 	0.28647 0.01613 0.96053 0.07000
C 	C 	0.53407 0.12753 0.93683 0.04400
N 	N 	0.50907 0.16523 0.98423 0.13400
O 	O 	0.45997 0.15983 0.97753 0.69100
O 	O 	0.55147 0.19623 0.04703 -0.30900
C 	C 	0.24647 0.03113 0.88463 -0.20600
H 	H 	0.27807 0.06003 0.84143 -0.44900
H 	H 	0.22367 0.05273 0.90933 0.28500
H 	H 	0.21407 0.98933 0.85803 0.13800
N 	N 	0.25217 0.04163 0.92133 -0.14700
O 	O 	0.19887 0.03223 0.95003 -0.27100
O 	O 	0.27357 0.06603 0.85233 0.48900
C 	C 	0.51227 0.16083 0.99753 -0.20900
H 	H 	0.46817 0.15233 0.98143 -0.71600
H 	H 	0.54337 0.20853 0.99633 0.19000
H 	H 	0.51077 0.14383 0.05513 0.18500
N 	N 	0.01395 0.35977 0.26977 -0.31000
N 	N 	0.16205 0.42075 0.20507 -0.29500
C 	C 	0.95313 0.34947 0.29387 0.14500
C 	C 	0.20073 0.46087 0.27017 0.04400
N 	N 	0.17573 0.49857 0.31757 0.13400
O 	O 	0.12663 0.49317 0.31087 0.69300
O 	O 	0.21813 0.52957 0.38037 -0.30800
C 	C 	0.91313 0.36447 0.21797 -0.28400
H 	H 	0.94473 0.39337 0.17477 -0.42100
H 	H 	0.89033 0.38607 0.24267 0.29200
H 	H 	0.88073 0.32267 0.19137 0.14000
N 	N 	0.91883 0.37497 0.25467 -0.10700
O 	O 	0.86553 0.36557 0.28337 -0.25400
O 	O 	0.94023 0.39937 0.18567 0.50000
C 	C 	0.17893 0.49417 0.33087 -0.20800
H 	H 	0.13483 0.48567 0.31477 -0.72100
H 	H 	0.21003 0.54187 0.32967 0.18800
H 	H 	0.17743 0.47717 0.38847 0.18500
N 	N 	0.30690 0.98752 0.60310 -0.26500
N 	N 	0.24592 0.07464 0.53840 -0.30000
C 	C 	0.31720 0.93700 0.62720 0.10700
C 	C 	0.20580 0.07320 0.60350 0.04100
N 	N 	0.16810 0.01050 0.65090 0.12100
O 	O 	0.17350 0.96680 0.64420 0.71800
O 	O 	0.13710 0.02190 0.71370 -0.31700
C 	C 	0.30220 0.88200 0.55130 -0.29100
H 	H 	0.27330 0.88470 0.50810 -0.42700
H 	H 	0.28060 0.83760 0.57600 0.28800
H 	H 	0.34400 0.89140 0.52470 0.14400
N 	N 	0.29170 0.87720 0.58800 -0.09700
O 	O 	0.30110 0.83330 0.61670 -0.25400
O 	O 	0.26730 0.87420 0.51900 0.50000
C 	C 	0.17250 0.01810 0.66420 -0.22000
H 	H 	0.18100 0.98250 0.64810 -0.71200
H 	H 	0.12480 0.00150 0.66300 0.18100
H 	H 	0.18950 0.03360 0.72180 0.18400
N 	N 	0.97357 0.32085 0.93643 -0.27700
N 	N 	0.91259 0.40797 0.87173 -0.29000
C 	C 	0.98387 0.27033 0.96053 0.15600
C 	C 	0.87247 0.40653 0.93683 0.04800
N 	N 	0.83477 0.34383 0.98423 0.13300
O 	O 	0.84017 0.30013 0.97753 0.69300
O 	O 	0.80377 0.35523 0.04703 -0.30900
C 	C 	0.96887 0.21533 0.88463 -0.37500
H 	H 	0.93997 0.21803 0.84143 -0.40800
H 	H 	0.94727 0.17093 0.90933 0.29400
H 	H 	0.01067 0.22473 0.85803 0.14000
N 	N 	0.95837 0.21053 0.92133 -0.05000
O 	O 	0.96777 0.16663 0.95003 -0.24300
O 	O 	0.93397 0.20753 0.85233 0.50500
C 	C 	0.83917 0.35143 0.99753 -0.21000
H 	H 	0.84767 0.31583 0.98143 -0.71500
H 	H 	0.79147 0.33483 0.99633 0.19000
H 	H 	0.85617 0.36693 0.05513 0.19000
N 	N 	0.64023 0.65419 0.26977 -0.29400
N 	N 	0.57925 0.74131 0.20507 -0.29500
C 	C 	0.65053 0.60367 0.29387 0.11100
C 	C 	0.53913 0.73987 0.27017 0.04400
N 	N 	0.50143 0.67717 0.31757 0.13300
O 	O 	0.50683 0.63347 0.31087 0.69100
O 	O 	0.47043 0.68857 0.38037 -0.30800
C 	C 	0.63553 0.54867 0.21797 -0.29200
H 	H 	0.60663 0.55137 0.17477 -0.42800
H 	H 	0.61393 0.50427 0.24267 0.29000
H 	H 	0.67733 0.55807 0.19137 0.14000
N 	N 	0.62503 0.54387 0.25467 -0.09700
O 	O 	0.63443 0.49997 0.28337 -0.25500
O 	O 	0.60063 0.54087 0.18567 0.49800
C 	C 	0.50583 0.68477 0.33087 -0.20900
H 	H 	0.51433 0.64917 0.31477 -0.71600
H 	H 	0.45813 0.66817 0.32967 0.18900
H 	H 	0.52283 0.70027 0.38847 0.18700
N 	N 	0.01248 0.31938 0.60310 -0.32000
N 	N 	0.92536 0.17128 0.53840 -0.28700
C 	C 	0.06300 0.38020 0.62720 0.11400
C 	C 	0.92680 0.13260 0.60350 0.04500
N 	N 	0.98950 0.15760 0.65090 0.14700
O 	O 	0.03320 0.20670 0.64420 0.66600
O 	O 	0.97810 0.11520 0.71370 -0.30600
C 	C 	0.11800 0.42020 0.55130 -0.29400
H 	H 	0.11530 0.38860 0.50810 -0.42800
H 	H 	0.16240 0.44300 0.57600 0.29100
H 	H 	0.10860 0.45260 0.52470 0.13600
N 	N 	0.12280 0.41450 0.58800 -0.09800
O 	O 	0.16670 0.46780 0.61670 -0.25600
O 	O 	0.12580 0.39310 0.51900 0.49600
C 	C 	0.98190 0.15440 0.66420 -0.19800
H 	H 	0.01750 0.19850 0.64810 -0.72200
H 	H 	0.99850 0.12330 0.66300 0.19200
H 	H 	0.96640 0.15590 0.72180 0.19000
N 	N 	0.67915 0.65271 0.93643 -0.29400
N 	N 	0.59203 0.50461 0.87173 -0.29500
C 	C 	0.72967 0.71353 0.96053 0.11300
C 	C 	0.59347 0.46593 0.93683 0.04500
N 	N 	0.65617 0.49093 0.98423 0.13400
O 	O 	0.69987 0.54003 0.97753 0.69100
O 	O 	0.64477 0.44853 0.04703 -0.30900
C 	C 	0.78467 0.75353 0.88463 -0.29200
H 	H 	0.78197 0.72193 0.84143 -0.42700
H 	H 	0.82907 0.77633 0.90933 0.28900
H 	H 	0.77527 0.78593 0.85803 0.14200
N 	N 	0.78947 0.74783 0.92133 -0.09800
O 	O 	0.83337 0.80113 0.95003 -0.24800
O 	O 	0.79247 0.72643 0.85233 0.49700
C 	C 	0.64857 0.48773 0.99753 -0.21000
H 	H 	0.68417 0.53183 0.98143 -0.71600
H 	H 	0.66517 0.45663 0.99633 0.19000
H 	H 	0.63307 0.48923 0.05513 0.18600
N 	N 	0.34581 0.98605 0.26977 -0.27900
N 	N 	0.25869 0.83795 0.20507 -0.29500
C 	C 	0.39633 0.04687 0.29387 0.07800
C 	C 	0.26013 0.79927 0.27017 0.04500
N 	N 	0.32283 0.82427 0.31757 0.13100
O 	O 	0.36653 0.87337 0.31087 0.68900
O 	O 	0.31143 0.78187 0.38037 -0.30700
C 	C 	0.45133 0.08687 0.21797 -0.29900
H 	H 	0.44863 0.05527 0.17477 -0.43400
H 	H 	0.49573 0.10967 0.24267 0.28700
H 	H 	0.44193 0.11927 0.19137 0.14000
N 	N 	0.45613 0.08117 0.25467 -0.08900
O 	O 	0.50003 0.13447 0.28337 -0.25600
O 	O 	0.45913 0.05977 0.18567 0.49600
C 	C 	0.31523 0.82107 0.33087 -0.20900
H 	H 	0.35083 0.86517 0.31477 -0.71100
H 	H 	0.33183 0.78997 0.32967 0.19000
H 	H 	0.29973 0.82257 0.38847 0.18800
N 	N 	0.69310 0.68062 0.39690 -0.29400
N 	N 	0.75408 0.82872 0.46160 -0.29400
C 	C 	0.68280 0.61980 0.37280 0.11100
C 	C 	0.79420 0.86740 0.39650 0.04800
N 	N 	0.83190 0.84240 0.34910 0.12900
O 	O 	0.82650 0.79330 0.35580 0.69000
O 	O 	0.86290 0.88480 0.28630 -0.30000
C 	C 	0.69780 0.57980 0.44870 -0.29200
H 	H 	0.72670 0.61140 0.49190 -0.42800
H 	H 	0.71940 0.55700 0.42400 0.29000
H 	H 	0.65600 0.54740 0.47530 0.14000
N 	N 	0.70830 0.58550 0.41200 -0.09700
O 	O 	0.69890 0.53220 0.38330 -0.25500
O 	O 	0.73270 0.60690 0.48100 0.49700
C 	C 	0.82750 0.84560 0.33580 -0.20800
H 	H 	0.81900 0.80150 0.35190 -0.71200
H 	H 	0.87520 0.87670 0.33700 0.19500
H 	H 	0.81050 0.84410 0.27820 0.18600
N 	N 	0.35977 0.01395 0.73023 -0.31000
N 	N 	0.42075 0.16205 0.79493 -0.29500
C 	C 	0.34947 0.95313 0.70613 0.14500
C 	C 	0.46087 0.20073 0.72983 0.04400
N 	N 	0.49857 0.17573 0.68243 0.13400
O 	O 	0.49317 0.12663 0.68913 0.69300
O 	O 	0.52957 0.21813 0.61963 -0.30800
C 	C 	0.36447 0.91313 0.78203 -0.28400
H 	H 	0.39337 0.94473 0.82523 -0.42100
H 	H 	0.38607 0.89033 0.75733 0.29200
H 	H 	0.32267 0.88073 0.80863 0.14000
N 	N 	0.37497 0.91883 0.74533 -0.10700
O 	O 	0.36557 0.86553 0.71663 -0.25400
O 	O 	0.39937 0.94023 0.81433 0.50000
C 	C 	0.49417 0.17893 0.66913 -0.20800
H 	H 	0.48567 0.13483 0.68523 -0.72100
H 	H 	0.54187 0.21003 0.67033 0.18800
H 	H 	0.47717 0.17743 0.61153 0.18500
N 	N 	0.02643 0.34729 0.06357 -0.28700
N 	N 	0.08741 0.49539 0.12827 -0.29700
C 	C 	0.01613 0.28647 0.03947 0.06700
C 	C 	0.12753 0.53407 0.06317 0.04300
N 	N 	0.16523 0.50907 0.01577 0.13100
O 	O 	0.15983 0.45997 0.02247 0.69100
O 	O 	0.19623 0.55147 0.95297 -0.30500
C 	C 	0.03113 0.24647 0.11537 -0.20700
H 	H 	0.06003 0.27807 0.15857 -0.44900
H 	H 	0.05273 0.22367 0.09067 0.28600
H 	H 	0.98933 0.21407 0.14197 0.13800
N 	N 	0.04163 0.25217 0.07867 -0.14600
O 	O 	0.03223 0.19887 0.04997 -0.27200
O 	O 	0.06603 0.27357 0.14767 0.49000
C 	C 	0.16083 0.51227 0.00247 -0.20700
H 	H 	0.15233 0.46817 0.01857 -0.71700
H 	H 	0.20853 0.54337 0.00367 0.18700
H 	H 	0.14383 0.51077 0.94487 0.18500
N 	N 	0.98752 0.30690 0.39690 -0.26500
N 	N 	0.07464 0.24592 0.46160 -0.30000
C 	C 	0.93700 0.31720 0.37280 0.10700
C 	C 	0.07320 0.20580 0.39650 0.04100
N 	N 	0.01050 0.16810 0.34910 0.12100
O 	O 	0.96680 0.17350 0.35580 0.71800
O 	O 	0.02190 0.13710 0.28630 -0.31800
C 	C 	0.88200 0.30220 0.44870 -0.29100
H 	H 	0.88470 0.27330 0.49190 -0.42700
H 	H 	0.83760 0.28060 0.42400 0.28800
H 	H 	0.89140 0.34400 0.47530 0.14400
N 	N 	0.87720 0.29170 0.41200 -0.09700
O 	O 	0.83330 0.30110 0.38330 -0.25400
O 	O 	0.87420 0.26730 0.48100 0.50000
C 	C 	0.01810 0.17250 0.33580 -0.22000
H 	H 	0.98250 0.18100 0.35190 -0.71300
H 	H 	0.00150 0.12480 0.33700 0.18100
H 	H 	0.03360 0.18950 0.27820 0.18400
N 	N 	0.65419 0.64023 0.73023 -0.29400
N 	N 	0.74131 0.57925 0.79493 -0.29500
C 	C 	0.60367 0.65053 0.70613 0.11100
C 	C 	0.73987 0.53913 0.72983 0.04400
N 	N 	0.67717 0.50143 0.68243 0.13300
O 	O 	0.63347 0.50683 0.68913 0.69100
O 	O 	0.68857 0.47043 0.61963 -0.30800
C 	C 	0.54867 0.63553 0.78203 -0.29200
H 	H 	0.55137 0.60663 0.82523 -0.42800
H 	H 	0.50427 0.61393 0.75733 0.29000
H 	H 	0.55807 0.67733 0.80863 0.14000
N 	N 	0.54387 0.62503 0.74533 -0.09800
O 	O 	0.49997 0.63443 0.71663 -0.25500
O 	O 	0.54087 0.60063 0.81433 0.49800
C 	C 	0.68477 0.50583 0.66913 -0.20900
H 	H 	0.64917 0.51433 0.68523 -0.71600
H 	H 	0.66817 0.45813 0.67033 0.18900
H 	H 	0.70027 0.52283 0.61153 0.18700
N 	N 	0.32085 0.97357 0.06357 -0.27700
N 	N 	0.40797 0.91259 0.12827 -0.29000
C 	C 	0.27033 0.98387 0.03947 0.15300
C 	C 	0.40653 0.87247 0.06317 0.04700
N 	N 	0.34383 0.83477 0.01577 0.13100
O 	O 	0.30013 0.84017 0.02247 0.69300
O 	O 	0.35523 0.80377 0.95297 -0.30600
C 	C 	0.21533 0.96887 0.11537 -0.37700
H 	H 	0.21803 0.93997 0.15857 -0.40800
H 	H 	0.17093 0.94727 0.09067 0.29500
H 	H 	0.22473 0.01067 0.14197 0.14000
N 	N 	0.21053 0.95837 0.07867 -0.04900
O 	O 	0.16663 0.96777 0.04997 -0.24500
O 	O 	0.20753 0.93397 0.14767 0.50600
C 	C 	0.35143 0.83917 0.00247 -0.20700
H 	H 	0.31583 0.84767 0.01857 -0.71600
H 	H 	0.33483 0.79147 0.00367 0.18700
H 	H 	0.36693 0.85617 0.94487 0.19000
N 	N 	0.31938 0.01248 0.39690 -0.32000
N 	N 	0.17128 0.92536 0.46160 -0.28700
C 	C 	0.38020 0.06300 0.37280 0.11400
C 	C 	0.13260 0.92680 0.39650 0.04500
N 	N 	0.15760 0.98950 0.34910 0.14700
O 	O 	0.20670 0.03320 0.35580 0.66500
O 	O 	0.11520 0.97810 0.28630 -0.30600
C 	C 	0.42020 0.11800 0.44870 -0.29400
H 	H 	0.38860 0.11530 0.49190 -0.42800
H 	H 	0.44300 0.16240 0.42400 0.29100
H 	H 	0.45260 0.10860 0.47530 0.13600
N 	N 	0.41450 0.12280 0.41200 -0.09800
O 	O 	0.46780 0.16670 0.38330 -0.25600
O 	O 	0.39310 0.12580 0.48100 0.49600
C 	C 	0.15440 0.98190 0.33580 -0.19800
H 	H 	0.19850 0.01750 0.35190 -0.72200
H 	H 	0.12330 0.99850 0.33700 0.19200
H 	H 	0.15590 0.96640 0.27820 0.19000
N 	N 	0.98605 0.34581 0.73023 -0.27900
N 	N 	0.83795 0.25869 0.79493 -0.29500
C 	C 	0.04687 0.39633 0.70613 0.07800
C 	C 	0.79927 0.26013 0.72983 0.04500
N 	N 	0.82427 0.32283 0.68243 0.13100
O 	O 	0.87337 0.36653 0.68913 0.68900
O 	O 	0.78187 0.31143 0.61963 -0.30700
C 	C 	0.08687 0.45133 0.78203 -0.29900
H 	H 	0.05527 0.44863 0.82523 -0.43400
H 	H 	0.10967 0.49573 0.75733 0.28700
H 	H 	0.11927 0.44193 0.80863 0.14100
N 	N 	0.08117 0.45613 0.74533 -0.09000
O 	O 	0.13447 0.50003 0.71663 -0.25600
O 	O 	0.05977 0.45913 0.81433 0.49700
C 	C 	0.82107 0.31523 0.66913 -0.20900
H 	H 	0.86517 0.35083 0.68523 -0.71100
H 	H 	0.78997 0.33183 0.67033 0.19000
H 	H 	0.82257 0.29973 0.61153 0.18800
N 	N 	0.65271 0.67915 0.06357 -0.29400
N 	N 	0.50461 0.59203 0.12827 -0.29500
C 	C 	0.71353 0.72967 0.03947 0.10900
C 	C 	0.46593 0.59347 0.06317 0.04400
N 	N 	0.49093 0.65617 0.01577 0.13100
O 	O 	0.54003 0.69987 0.02247 0.69100
O 	O 	0.44853 0.64477 0.95297 -0.30500
C 	C 	0.75353 0.78467 0.11537 -0.29300
H 	H 	0.72193 0.78197 0.15857 -0.42700
H 	H 	0.77633 0.82907 0.09067 0.28900
H 	H 	0.78593 0.77527 0.14197 0.14200
N 	N 	0.74783 0.78947 0.07867 -0.09800
O 	O 	0.80113 0.83337 0.04997 -0.25000
O 	O 	0.72643 0.79247 0.14767 0.49700
C 	C 	0.48773 0.64857 0.00247 -0.20700
H 	H 	0.53183 0.68417 0.01857 -0.71600
H 	H 	0.45663 0.66517 0.00367 0.18700
H 	H 	0.48923 0.63307 0.94487 0.18700
N 	N 	0.31938 0.30690 0.39690 -0.29400
N 	N 	0.17128 0.24592 0.46160 -0.29500
C 	C 	0.38020 0.31720 0.37280 0.11100
C 	C 	0.13260 0.20580 0.39650 0.04100
N 	N 	0.15760 0.16810 0.34910 0.13600
O 	O 	0.20670 0.17350 0.35580 0.69200
O 	O 	0.11520 0.13710 0.28630 -0.31600
C 	C 	0.42020 0.30220 0.44870 -0.29300
H 	H 	0.38860 0.27330 0.49190 -0.42800
H 	H 	0.44300 0.28060 0.42400 0.29000
H 	H 	0.45260 0.34400 0.47530 0.14000
N 	N 	0.41450 0.29170 0.41200 -0.09700
O 	O 	0.46780 0.30110 0.38330 -0.25500
O 	O 	0.39310 0.26730 0.48100 0.49800
C 	C 	0.15440 0.17250 0.33580 -0.21000
H 	H 	0.19850 0.18100 0.35190 -0.72000
H 	H 	0.12330 0.12480 0.33700 0.18300
H 	H 	0.15590 0.18950 0.27820 0.18700
N 	N 	0.98605 0.64023 0.73023 -0.27900
N 	N 	0.83795 0.57925 0.79493 -0.29500
C 	C 	0.04687 0.65053 0.70613 0.07900
C 	C 	0.79927 0.53913 0.72983 0.04500
N 	N 	0.82427 0.50143 0.68243 0.13100
O 	O 	0.87337 0.50683 0.68913 0.68900
O 	O 	0.78187 0.47043 0.61963 -0.30700
C 	C 	0.08687 0.63553 0.78203 -0.29900
H 	H 	0.05527 0.60663 0.82523 -0.43400
H 	H 	0.10967 0.61393 0.75733 0.28700
H 	H 	0.11927 0.67733 0.80863 0.14100
N 	N 	0.08117 0.62503 0.74533 -0.09000
O 	O 	0.13447 0.63443 0.71663 -0.25500
O 	O 	0.05977 0.60063 0.81433 0.49700
C 	C 	0.82107 0.50583 0.66913 -0.20900
H 	H 	0.86517 0.51433 0.68523 -0.71100
H 	H 	0.78997 0.45813 0.67033 0.19000
H 	H 	0.82257 0.52283 0.61153 0.18800
N 	N 	0.65271 0.97357 0.06357 -0.27700
N 	N 	0.50461 0.91259 0.12827 -0.29000
C 	C 	0.71353 0.98387 0.03947 0.15300
C 	C 	0.46593 0.87247 0.06317 0.04700
N 	N 	0.49093 0.83477 0.01577 0.13100
O 	O 	0.54003 0.84017 0.02247 0.69300
O 	O 	0.44853 0.80377 0.95297 -0.30600
C 	C 	0.75353 0.96887 0.11537 -0.37600
H 	H 	0.72193 0.93997 0.15857 -0.40800
H 	H 	0.77633 0.94727 0.09067 0.29400
H 	H 	0.78593 0.01067 0.14197 0.14200
N 	N 	0.74783 0.95837 0.07867 -0.04900
O 	O 	0.80113 0.96777 0.04997 -0.23900
O 	O 	0.72643 0.93397 0.14767 0.50500
C 	C 	0.48773 0.83917 0.00247 -0.20700
H 	H 	0.53183 0.84767 0.01857 -0.71500
H 	H 	0.45663 0.79147 0.00367 0.18700
H 	H 	0.48923 0.85617 0.94487 0.19000
N 	N 	0.69310 0.01248 0.39690 -0.32000
N 	N 	0.75408 0.92536 0.46160 -0.28600
C 	C 	0.68280 0.06300 0.37280 0.11500
C 	C 	0.79420 0.92680 0.39650 0.04900
N 	N 	0.83190 0.98950 0.34910 0.14400
O 	O 	0.82650 0.03320 0.35580 0.66400
O 	O 	0.86290 0.97810 0.28630 -0.29800
C 	C 	0.69780 0.11800 0.44870 -0.29300
H 	H 	0.72670 0.11530 0.49190 -0.42800
H 	H 	0.71940 0.16240 0.42400 0.29100
H 	H 	0.65600 0.10860 0.47530 0.13600
N 	N 	0.70830 0.12280 0.41200 -0.09800
O 	O 	0.69890 0.16670 0.38330 -0.25600
O 	O 	0.73270 0.12580 0.48100 0.49600
C 	C 	0.82750 0.98190 0.33580 -0.19700
H 	H 	0.81900 0.01750 0.35190 -0.71800
H 	H 	0.87520 0.99850 0.33700 0.19800
H 	H 	0.81050 0.96640 0.27820 0.18900
N 	N 	0.35977 0.34581 0.73023 -0.29400
N 	N 	0.42075 0.25869 0.79493 -0.29500
C 	C 	0.34947 0.39633 0.70613 0.11100
C 	C 	0.46087 0.26013 0.72983 0.04500
N 	N 	0.49857 0.32283 0.68243 0.13300
O 	O 	0.49317 0.36653 0.68913 0.69100
O 	O 	0.52957 0.31143 0.61963 -0.30800
C 	C 	0.36447 0.45133 0.78203 -0.29200
H 	H 	0.39337 0.44863 0.82523 -0.42800
H 	H 	0.38607 0.49573 0.75733 0.29000
H 	H 	0.32267 0.44193 0.80863 0.14000
N 	N 	0.37497 0.45613 0.74533 -0.09700
O 	O 	0.36557 0.50003 0.71663 -0.25500
O 	O 	0.39937 0.45913 0.81433 0.49800
C 	C 	0.49417 0.31523 0.66913 -0.20900
H 	H 	0.48567 0.35083 0.68523 -0.71600
H 	H 	0.54187 0.33183 0.67033 0.18900
H 	H 	0.47717 0.29973 0.61153 0.18600
N 	N 	0.02643 0.67915 0.06357 -0.28700
N 	N 	0.08741 0.59203 0.12827 -0.29700
C 	C 	0.01613 0.72967 0.03947 0.06600
C 	C 	0.12753 0.59347 0.06317 0.04300
N 	N 	0.16523 0.65617 0.01577 0.13100
O 	O 	0.15983 0.69987 0.02247 0.69100
O 	O 	0.19623 0.64477 0.95297 -0.30500
C 	C 	0.03113 0.78467 0.11537 -0.20800
H 	H 	0.06003 0.78197 0.15857 -0.44800
H 	H 	0.05273 0.82907 0.09067 0.28500
H 	H 	0.98933 0.77527 0.14197 0.14000
N 	N 	0.04163 0.78947 0.07867 -0.14600
O 	O 	0.03223 0.83337 0.04997 -0.26700
O 	O 	0.06603 0.79247 0.14767 0.48900
C 	C 	0.16083 0.64857 0.00247 -0.20700
H 	H 	0.15233 0.68417 0.01857 -0.71700
H 	H 	0.20853 0.66517 0.00367 0.18700
H 	H 	0.14383 0.63307 0.94487 0.18600
N 	N 	0.98752 0.68062 0.39690 -0.26500
N 	N 	0.07464 0.82872 0.46160 -0.30000
C 	C 	0.93700 0.61980 0.37280 0.10800
C 	C 	0.07320 0.86740 0.39650 0.04400
N 	N 	0.01050 0.84240 0.34910 0.11800
O 	O 	0.96680 0.79330 0.35580 0.71700
O 	O 	0.02190 0.88480 0.28630 -0.31000
C 	C 	0.88200 0.57980 0.44870 -0.29100
H 	H 	0.88470 0.61140 0.49190 -0.42700
H 	H 	0.83760 0.55700 0.42400 0.28800
H 	H 	0.89140 0.54740 0.47530 0.14400
N 	N 	0.87720 0.58550 0.41200 -0.09700
O 	O 	0.83330 0.53220 0.38330 -0.25300
O 	O 	0.87420 0.60690 0.48100 0.50000
C 	C 	0.01810 0.84560 0.33580 -0.21900
H 	H 	0.98250 0.80150 0.35190 -0.70900
H 	H 	0.00150 0.87670 0.33700 0.18700
H 	H 	0.03360 0.84410 0.27820 0.18300
N 	N 	0.65419 0.01395 0.73023 -0.31000
N 	N 	0.74131 0.16205 0.79493 -0.29400
C 	C 	0.60367 0.95313 0.70613 0.14500
C 	C 	0.73987 0.20073 0.72983 0.04400
N 	N 	0.67717 0.17573 0.68243 0.13400
O 	O 	0.63347 0.12663 0.68913 0.69300
O 	O 	0.68857 0.21813 0.61963 -0.30800
C 	C 	0.54867 0.91313 0.78203 -0.28400
H 	H 	0.55137 0.94473 0.82523 -0.42100
H 	H 	0.50427 0.89033 0.75733 0.29200
H 	H 	0.55807 0.88073 0.80863 0.14000
N 	N 	0.54387 0.91883 0.74533 -0.10700
O 	O 	0.49997 0.86553 0.71663 -0.25400
O 	O 	0.54087 0.94023 0.81433 0.50000
C 	C 	0.68477 0.17893 0.66913 -0.20800
H 	H 	0.64917 0.13483 0.68523 -0.72100
H 	H 	0.66817 0.21003 0.67033 0.18800
H 	H 	0.70027 0.17743 0.61153 0.18600
N 	N 	0.32085 0.34729 0.06357 -0.29400
N 	N 	0.40797 0.49539 0.12827 -0.29500
C 	C 	0.27033 0.28647 0.03947 0.10900
C 	C 	0.40653 0.53407 0.06317 0.04400
N 	N 	0.34383 0.50907 0.01577 0.13100
O 	O 	0.30013 0.45997 0.02247 0.69200
O 	O 	0.35523 0.55147 0.95297 -0.30600
C 	C 	0.21533 0.24647 0.11537 -0.29300
H 	H 	0.21803 0.27807 0.15857 -0.42900
H 	H 	0.17093 0.22367 0.09067 0.29000
H 	H 	0.22473 0.21407 0.14197 0.13800
N 	N 	0.21053 0.25217 0.07867 -0.09700
O 	O 	0.16663 0.19887 0.04997 -0.26200
O 	O 	0.20753 0.27357 0.14767 0.49800
C 	C 	0.35143 0.51227 0.00247 -0.20700
H 	H 	0.31583 0.46817 0.01857 -0.71700
H 	H 	0.33483 0.54337 0.00367 0.18700
H 	H 	0.36693 0.51077 0.94487 0.18700
N 	N 	0.30690 0.31938 0.60310 -0.29400
N 	N 	0.24592 0.17128 0.53840 -0.29500
C 	C 	0.31720 0.38020 0.62720 0.11100
C 	C 	0.20580 0.13260 0.60350 0.04100
N 	N 	0.16810 0.15760 0.65090 0.13600
O 	O 	0.17350 0.20670 0.64420 0.69200
O 	O 	0.13710 0.11520 0.71370 -0.31500
C 	C 	0.30220 0.42020 0.55130 -0.29300
H 	H 	0.27330 0.38860 0.50810 -0.42800
H 	H 	0.28060 0.44300 0.57600 0.29000
H 	H 	0.34400 0.45260 0.52470 0.14000
N 	N 	0.29170 0.41450 0.58800 -0.09700
O 	O 	0.30110 0.46780 0.61670 -0.25500
O 	O 	0.26730 0.39310 0.51900 0.49800
C 	C 	0.17250 0.15440 0.66420 -0.21000
H 	H 	0.18100 0.19850 0.64810 -0.72000
H 	H 	0.12480 0.12330 0.66300 0.18300
H 	H 	0.18950 0.15590 0.72180 0.18700
N 	N 	0.97357 0.65271 0.93643 -0.27700
N 	N 	0.91259 0.50461 0.87173 -0.29000
C 	C 	0.98387 0.71353 0.96053 0.15700
C 	C 	0.87247 0.46593 0.93683 0.04800
N 	N 	0.83477 0.49093 0.98423 0.13300
O 	O 	0.84017 0.54003 0.97753 0.69200
O 	O 	0.80377 0.44853 0.04703 -0.30900
C 	C 	0.96887 0.75353 0.88463 -0.37500
H 	H 	0.93997 0.72193 0.84143 -0.40800
H 	H 	0.94727 0.77633 0.90933 0.29400
H 	H 	0.01067 0.78593 0.85803 0.14200
N 	N 	0.95837 0.74783 0.92133 -0.05000
O 	O 	0.96777 0.80113 0.95003 -0.23700
O 	O 	0.93397 0.72643 0.85233 0.50500
C 	C 	0.83917 0.48773 0.99753 -0.21000
H 	H 	0.84767 0.53183 0.98143 -0.71500
H 	H 	0.79147 0.45663 0.99633 0.19000
H 	H 	0.85617 0.48923 0.05513 0.19000
N 	N 	0.64023 0.98605 0.26977 -0.27900
N 	N 	0.57925 0.83795 0.20507 -0.29500
C 	C 	0.65053 0.04687 0.29387 0.07800
C 	C 	0.53913 0.79927 0.27017 0.04500
N 	N 	0.50143 0.82427 0.31757 0.13100
O 	O 	0.50683 0.87337 0.31087 0.68900
O 	O 	0.47043 0.78187 0.38037 -0.30700
C 	C 	0.63553 0.08687 0.21797 -0.29900
H 	H 	0.60663 0.05527 0.17477 -0.43400
H 	H 	0.61393 0.10967 0.24267 0.28700
H 	H 	0.67733 0.11927 0.19137 0.14100
N 	N 	0.62503 0.08117 0.25467 -0.08900
O 	O 	0.63443 0.13447 0.28337 -0.25600
O 	O 	0.60063 0.05977 0.18567 0.49600
C 	C 	0.50583 0.82107 0.33087 -0.20900
H 	H 	0.51433 0.86517 0.31477 -0.71100
H 	H 	0.45813 0.78997 0.32967 0.19000
H 	H 	0.52283 0.82257 0.38847 0.18800
N 	N 	0.01248 0.69310 0.60310 -0.32000
N 	N 	0.92536 0.75408 0.53840 -0.28600
C 	C 	0.06300 0.68280 0.62720 0.11400
C 	C 	0.92680 0.79420 0.60350 0.04900
N 	N 	0.98950 0.83190 0.65090 0.14300
O 	O 	0.03320 0.82650 0.64420 0.66500
O 	O 	0.97810 0.86290 0.71370 -0.29800
C 	C 	0.11800 0.69780 0.55130 -0.29300
H 	H 	0.11530 0.72670 0.50810 -0.42800
H 	H 	0.16240 0.71940 0.57600 0.29100
H 	H 	0.10860 0.65600 0.52470 0.13600
N 	N 	0.12280 0.70830 0.58800 -0.09800
O 	O 	0.16670 0.69890 0.61670 -0.25600
O 	O 	0.12580 0.73270 0.51900 0.49600
C 	C 	0.98190 0.82750 0.66420 -0.19700
H 	H 	0.01750 0.81900 0.64810 -0.71800
H 	H 	0.99850 0.87520 0.66300 0.19800
H 	H 	0.96640 0.81050 0.72180 0.18900
N 	N 	0.67915 0.02643 0.93643 -0.28700
N 	N 	0.59203 0.08741 0.87173 -0.29700
C 	C 	0.72967 0.01613 0.96053 0.07000
C 	C 	0.59347 0.12753 0.93683 0.04300
N 	N 	0.65617 0.16523 0.98423 0.13300
O 	O 	0.69987 0.15983 0.97753 0.69100
O 	O 	0.64477 0.19623 0.04703 -0.30900
C 	C 	0.78467 0.03113 0.88463 -0.20700
H 	H 	0.78197 0.06003 0.84143 -0.44800
H 	H 	0.82907 0.05273 0.90933 0.28500
H 	H 	0.77527 0.98933 0.85803 0.14000
N 	N 	0.78947 0.04163 0.92133 -0.14700
O 	O 	0.83337 0.03223 0.95003 -0.26500
O 	O 	0.79247 0.06603 0.85233 0.48900
C 	C 	0.64857 0.16083 0.99753 -0.20900
H 	H 	0.68417 0.15233 0.98143 -0.71600
H 	H 	0.66517 0.20853 0.99633 0.19000
H 	H 	0.63307 0.14383 0.05513 0.18500
N 	N 	0.34581 0.35977 0.26977 -0.29400
N 	N 	0.25869 0.42075 0.20507 -0.29500
C 	C 	0.39633 0.34947 0.29387 0.11100
C 	C 	0.26013 0.46087 0.27017 0.04500
N 	N 	0.32283 0.49857 0.31757 0.13300
O 	O 	0.36653 0.49317 0.31087 0.69100
O 	O 	0.31143 0.52957 0.38037 -0.30800
C 	C 	0.45133 0.36447 0.21797 -0.29300
H 	H 	0.44863 0.39337 0.17477 -0.42800
H 	H 	0.49573 0.38607 0.24267 0.29000
H 	H 	0.44193 0.32267 0.19137 0.14000
N 	N 	0.45613 0.37497 0.25467 -0.09700
O 	O 	0.50003 0.36557 0.28337 -0.25500
O 	O 	0.45913 0.39937 0.18567 0.49700
C 	C 	0.31523 0.49417 0.33087 -0.20900
H 	H 	0.35083 0.48567 0.31477 -0.71600
H 	H 	0.33183 0.54187 0.32967 0.18900
H 	H 	0.29973 0.47717 0.38847 0.18600
N 	N 	0.68062 0.98752 0.60310 -0.26500
N 	N 	0.82872 0.07464 0.53840 -0.30000
C 	C 	0.61980 0.93700 0.62720 0.10800
C 	C 	0.86740 0.07320 0.60350 0.04400
N 	N 	0.84240 0.01050 0.65090 0.11800
O 	O 	0.79330 0.96680 0.64420 0.71700
O 	O 	0.88480 0.02190 0.71370 -0.31000
C 	C 	0.57980 0.88200 0.55130 -0.29100
H 	H 	0.61140 0.88470 0.50810 -0.42700
H 	H 	0.55700 0.83760 0.57600 0.28800
H 	H 	0.54740 0.89140 0.52470 0.14400
N 	N 	0.58550 0.87720 0.58800 -0.09700
O 	O 	0.53220 0.83330 0.61670 -0.25300
O 	O 	0.60690 0.87420 0.51900 0.50000
C 	C 	0.84560 0.01810 0.66420 -0.21900
H 	H 	0.80150 0.98250 0.64810 -0.70800
H 	H 	0.87670 0.00150 0.66300 0.18600
H 	H 	0.84410 0.03360 0.72180 0.18300
N 	N 	0.34729 0.32085 0.93643 -0.29400
N 	N 	0.49539 0.40797 0.87173 -0.29500
C 	C 	0.28647 0.27033 0.96053 0.11300
C 	C 	0.53407 0.40653 0.93683 0.04500
N 	N 	0.50907 0.34383 0.98423 0.13400
O 	O 	0.45997 0.30013 0.97753 0.69100
O 	O 	0.55147 0.35523 0.04703 -0.30900
C 	C 	0.24647 0.21533 0.88463 -0.29200
H 	H 	0.27807 0.21803 0.84143 -0.42900
H 	H 	0.22367 0.17093 0.90933 0.29000
H 	H 	0.21407 0.22473 0.85803 0.13800
N 	N 	0.25217 0.21053 0.92133 -0.09700
O 	O 	0.19887 0.16663 0.95003 -0.26000
O 	O 	0.27357 0.20753 0.85233 0.49800
C 	C 	0.51227 0.35143 0.99753 -0.21000
H 	H 	0.46817 0.31583 0.98143 -0.71600
H 	H 	0.54337 0.33483 0.99633 0.19000
H 	H 	0.51077 0.36693 0.05513 0.18600
N 	N 	0.01395 0.65419 0.26977 -0.31000
N 	N 	0.16205 0.74131 0.20507 -0.29400
C 	C 	0.95313 0.60367 0.29387 0.14500
C 	C 	0.20073 0.73987 0.27017 0.04400
N 	N 	0.17573 0.67717 0.31757 0.13400
O 	O 	0.12663 0.63347 0.31087 0.69300
O 	O 	0.21813 0.68857 0.38037 -0.30800
C 	C 	0.91313 0.54867 0.21797 -0.28400
H 	H 	0.94473 0.55137 0.17477 -0.42100
H 	H 	0.89033 0.50427 0.24267 0.29200
H 	H 	0.88073 0.55807 0.19137 0.14000
N 	N 	0.91883 0.54387 0.25467 -0.10700
O 	O 	0.86553 0.49997 0.28337 -0.25400
O 	O 	0.94023 0.54087 0.18567 0.50000
C 	C 	0.17893 0.68477 0.33087 -0.20800
H 	H 	0.13483 0.64917 0.31477 -0.72100
H 	H 	0.21003 0.66817 0.32967 0.18800
H 	H 	0.17743 0.70027 0.38847 0.18600
Zn	Zn	0.73834 0.73834 0.50000 1.17200
Zn	Zn	0.40501 0.07167 0.83333 1.17000
Zn	Zn	0.07167 0.40501 0.16667 1.17000
Zn	Zn	0.26166 0.00000 0.50000 1.16100
Zn	Zn	0.92833 0.33333 0.83333 1.17500
Zn	Zn	0.59499 0.66667 0.16667 1.17200
Zn	Zn	0.00000 0.26166 0.50000 1.16100
Zn	Zn	0.66667 0.59499 0.83333 1.17200
Zn	Zn	0.33333 0.92833 0.16667 1.17500
Zn	Zn	0.26166 0.26166 0.50000 1.17200
Zn	Zn	0.92833 0.59499 0.83333 1.17500
Zn	Zn	0.59499 0.92833 0.16667 1.17500
Zn	Zn	0.73834 0.00000 0.50000 1.16100
Zn	Zn	0.40501 0.33333 0.83333 1.17200
Zn	Zn	0.07167 0.66667 0.16667 1.17000
Zn	Zn	-0.00000 0.73834 0.50000 1.16100
Zn	Zn	0.66667 0.07167 0.83333 1.17000
Zn	Zn	0.33333 0.40501 0.16667 1.17200
C 	C 	0.69898 0.66667 0.66667 0.08600
H 	H 	0.73958 0.66667 0.66667 -0.03800
C 	C 	0.36565 0.00000 -0.00000 0.04300
H 	H 	0.40625 0.00000 -0.00000 -0.03600
C 	C 	0.33333 0.03232 0.66667 0.04300
H 	H 	0.33333 0.07292 0.66667 -0.02600
C 	C 	-0.00000 0.36565 -0.00000 0.04300
H 	H 	-0.00000 0.40625 -0.00000 -0.03600
C 	C 	0.96768 0.30102 0.66667 0.12700
H 	H 	0.92708 0.26042 0.66667 -0.04800
C 	C 	0.63435 0.63435 -0.00000 0.08300
H 	H 	0.59375 0.59375 -0.00000 -0.03800
C 	C 	0.66667 0.69898 0.33333 0.08600
H 	H 	0.66667 0.73958 0.33333 -0.03800
C 	C 	0.03232 0.33333 0.33333 0.04300
H 	H 	0.07292 0.33333 0.33333 -0.02700
C 	C 	0.30102 0.96768 0.33333 0.12800
H 	H 	0.26042 0.92708 0.33333 -0.04800
C 	C 	0.30102 0.33333 0.33333 0.08500
H 	H 	0.26042 0.33333 0.33333 -0.03800
C 	C 	0.66667 0.96768 0.33333 0.12700
H 	H 	0.66667 0.92708 0.33333 -0.04800
C 	C 	0.03232 0.69898 0.33333 0.04300
H 	H 	0.07292 0.73958 0.33333 -0.02700
C 	C 	0.33333 0.30102 0.66667 0.08500
H 	H 	0.33333 0.26042 0.66667 -0.03800
C 	C 	-0.00000 0.63435 -0.00000 0.04200
H 	H 	-0.00000 0.59375 -0.00000 -0.03600
C 	C 	0.96768 0.66667 0.66667 0.12700
H 	H 	0.92708 0.66667 0.66667 -0.04800
C 	C 	0.63435 0.00000 -0.00000 0.04300
H 	H 	0.59375 0.00000 -0.00000 -0.03600
C 	C 	0.69898 0.03232 0.66667 0.04300
H 	H 	0.73958 0.07292 0.66667 -0.02600
C 	C 	0.36565 0.36565 -0.00000 0.08300
H 	H 	0.40625 0.40625 -0.00000 -0.03800
C 	C 	0.86650 0.73300 0.50120 0.08400
H 	H 	0.85265 0.70530 0.45230 -0.07700
C 	C 	0.53317 0.06633 0.83453 0.08000
H 	H 	0.51932 0.03863 0.78563 -0.08900
C 	C 	0.19983 0.39967 0.16787 0.08300
H 	H 	0.18598 0.37197 0.11897 -0.07800
C 	C 	0.26700 0.13350 0.50120 0.08200
H 	H 	0.29470 0.14735 0.45230 -0.07900
C 	C 	0.93367 0.46683 0.83453 0.08700
H 	H 	0.96137 0.48068 0.78563 -0.06800
C 	C 	0.60033 0.80017 0.16787 0.08300
H 	H 	0.62803 0.81402 0.11897 -0.07900
C 	C 	0.86650 0.13350 0.50120 0.08300
H 	H 	0.85265 0.14735 0.45230 -0.07800
C 	C 	0.53317 0.46683 0.83453 0.08300
H 	H 	0.51932 0.48068 0.78563 -0.07900
C 	C 	0.19983 0.80017 0.16787 0.08300
H 	H 	0.18598 0.81402 0.11897 -0.07900
C 	C 	0.73300 0.86650 0.49880 0.08400
H 	H 	0.70530 0.85265 0.54770 -0.07700
C 	C 	0.39967 0.19983 0.83213 0.08300
H 	H 	0.37197 0.18598 0.88103 -0.07800
C 	C 	0.06633 0.53317 0.16547 0.08000
H 	H 	0.03863 0.51932 0.21437 -0.08800
C 	C 	0.13350 0.26700 0.49880 0.08200
H 	H 	0.14735 0.29470 0.54770 -0.07900
C 	C 	0.80017 0.60033 0.83213 0.08300
H 	H 	0.81402 0.62803 0.88103 -0.07900
C 	C 	0.46683 0.93367 0.16547 0.08700
H 	H 	0.48068 0.96137 0.21437 -0.06800
C 	C 	0.13350 0.86650 0.49880 0.08300
H 	H 	0.14735 0.85265 0.54770 -0.07800
C 	C 	0.80017 0.19983 0.83213 0.08300
H 	H 	0.81402 0.18598 0.88103 -0.07800
C 	C 	0.46683 0.53317 0.16547 0.08300
H 	H 	0.48068 0.51932 0.21437 -0.07900
