data_crystal

_cell_length_a 34.26580
_cell_length_b 34.26580
_cell_length_c 21.86810
_cell_angle_alpha 90.00000
_cell_angle_beta  90.00000
_cell_angle_gamma 120.00000

_symmetry_space_group_name_	'P 1'
_symmetry_space_group_name_H-M	'P 1'

loop_
_symmetry_equiv_pos_as_xyz
  x,y,z

loop_
_atom_site_label
_atom_site_type_symbol
_atom_site_fract_x
_atom_site_fract_y
_atom_site_fract_z
_atom_site_charge
La	La	0.04516 0.96919 0.66368 1.61700
La	La	0.40953 0.69778 0.37481 1.62900
La	La	0.36418 0.62098 0.54099 1.73700
O 	O 	0.13010 0.03850 0.69280 -0.40700
O 	O 	0.10080 0.98520 0.47360 -0.42600
O 	O 	0.97500 0.99330 0.78620 -0.49500
O 	O 	0.05740 0.96350 0.55180 -0.48400
O 	O 	0.10370 0.04950 0.60600 -0.49700
O 	O 	0.03570 0.02440 0.72630 -0.40800
O 	O 	0.28480 0.56990 0.59480 -0.47200
O 	O 	0.64740 0.30250 0.48440 -0.50400
O 	O 	0.34310 0.69130 0.42580 -0.42300
O 	O 	0.77990 0.34560 0.56660 -0.36100
O 	O 	0.71230 0.29800 0.66050 -0.35200
O 	O 	0.31190 0.63470 0.48430 -0.50600
O 	O 	0.67650 0.35820 0.42490 -0.43100
O 	O 	0.39200 0.56960 0.55910 -0.77800
O 	O 	0.38160 0.61720 0.42670 -0.47400
O 	O 	0.30170 0.54080 0.51540 -0.36500
O 	O 	0.67630 0.23130 0.73020 -0.33700
O 	O 	0.42800 0.63550 0.35270 -0.41800
O 	O 	0.74760 0.37710 0.49270 -0.35800
N 	N 	0.41440 0.51710 0.59380 -0.00600
C 	C 	0.07040 0.90930 0.49230 -0.15300
C 	C 	0.82510 0.42170 0.53970 -0.02900
C 	C 	0.86760 0.31980 0.64180 -0.08400
C 	C 	0.75460 0.26190 0.70680 -0.02200
C 	C 	0.17070 0.10420 0.64320 -0.23300
C 	C 	0.90700 0.31910 0.64650 -0.03300
C 	C 	0.13310 0.06240 0.65090 0.42100
C 	C 	0.16380 0.62680 0.54900 -0.02000
C 	C 	0.99590 0.01780 0.75190 0.44200
C 	C 	0.41860 0.55560 0.56080 -0.06900
C 	C 	0.37200 0.49460 0.62760 -0.25400
C 	C 	0.42800 0.48530 0.61470 -0.26400
C 	C 	0.45960 0.33140 0.51780 0.03800
C 	C 	0.17270 0.13830 0.61270 0.06200
C 	C 	0.29260 0.22310 0.60320 -0.12600
C 	C 	0.03540 0.28700 0.66350 -0.14500
C 	C 	0.06880 0.78740 0.48200 -0.13600
C 	C 	0.04350 0.87460 0.52510 0.02100
C 	C 	0.06890 0.82760 0.48020 0.09600
C 	C 	0.25470 0.18480 0.62110 0.10300
C 	C 	0.25200 0.24960 0.53850 -0.07200
C 	C 	0.00030 0.20540 0.68360 0.01000
C 	C 	0.41630 0.36790 0.49890 -0.09900
C 	C 	0.01350 0.09000 0.70010 0.00300
C 	C 	0.41720 0.33280 0.51940 0.03900
C 	C 	0.95950 0.25020 0.68930 -0.14600
C 	C 	0.21120 0.21000 0.55620 -0.02200
C 	C 	0.04030 0.62570 0.52080 -0.10100
C 	C 	0.08390 0.70600 0.51050 -0.09900
C 	C 	0.99820 0.25080 0.67920 0.08700
C 	C 	0.19930 0.65250 0.50600 -0.03000
C 	C 	0.09680 0.90530 0.45020 0.07500
C 	C 	0.19820 0.68490 0.46890 0.07400
C 	C 	0.37690 0.29400 0.54140 -0.09900
C 	C 	0.03950 0.75130 0.52470 0.04800
C 	C 	0.33540 0.29410 0.53990 0.04100
C 	C 	0.83830 0.26380 0.71820 0.02700
C 	C 	0.07450 0.95530 0.50280 0.39700
C 	C 	0.99450 0.32770 0.66780 -0.13400
C 	C 	0.12500 0.66620 0.51620 0.03300
C 	C 	0.29520 0.25840 0.55980 0.02300
C 	C 	0.23490 0.64410 0.50130 0.02500
C 	C 	0.48610 0.34920 0.47390 -0.11300
C 	C 	0.00970 0.12830 0.69380 -0.01600
C 	C 	0.14520 0.41320 0.57970 0.05700
C 	C 	0.04040 0.70710 0.51910 0.03000
C 	C 	0.21120 0.11480 0.66790 0.13500
C 	C 	0.02690 0.15840 0.63740 -0.04000
C 	C 	0.08180 0.66540 0.51150 0.03900
C 	C 	0.09410 0.86430 0.44230 -0.15300
C 	C 	0.87810 0.26070 0.72220 -0.08100
C 	C 	0.40160 0.48100 0.42110 0.06700
C 	C 	0.95620 0.28910 0.68390 0.07500
C 	C 	0.00960 0.75350 0.56160 -0.10200
C 	C 	0.07740 0.37180 0.63520 0.03000
C 	C 	0.40450 0.44060 0.43620 -0.12700
C 	C 	0.85780 0.42630 0.58140 -0.01700
C 	C 	0.90380 0.50430 0.55320 0.04500
C 	C 	0.94770 0.54590 0.55430 -0.11300
C 	C 	0.26930 0.66800 0.45950 -0.15600
C 	C 	0.57420 0.31700 0.50440 0.01800
C 	C 	0.19620 0.49490 0.59450 -0.03200
C 	C 	0.03410 0.32700 0.65730 0.06200
C 	C 	0.26810 0.70030 0.42230 0.06600
C 	C 	0.98460 0.13710 0.73590 0.07500
C 	C 	0.25130 0.15080 0.66190 -0.19600
C 	C 	0.00150 0.66870 0.52760 -0.09800
C 	C 	0.01190 0.79250 0.56220 -0.00000
C 	C 	0.34060 0.41860 0.49830 -0.08800
C 	C 	0.53620 0.32160 0.50910 -0.01600
C 	C 	0.99240 0.06050 0.74840 -0.11900
C 	C 	0.37330 0.36960 0.49590 0.02400
C 	C 	0.33740 0.45510 0.48130 -0.01800
C 	C 	0.08240 0.41160 0.66120 -0.07300
C 	C 	0.10700 0.37240 0.59830 -0.11500
C 	C 	0.00050 0.62540 0.52860 0.03100
C 	C 	0.36680 0.52870 0.43010 -0.00700
C 	C 	0.96730 0.06930 0.79050 0.05100
C 	C 	0.21150 0.17810 0.59820 -0.05800
C 	C 	0.22680 0.49560 0.55860 -0.09100
C 	C 	0.02160 0.19550 0.64210 -0.05500
C 	C 	0.39900 0.56150 0.39180 -0.12900
C 	C 	0.79030 0.29410 0.67180 -0.09500
C 	C 	0.97780 0.17390 0.73530 -0.10500
C 	C 	0.50680 0.30280 0.55650 -0.03000
C 	C 	0.27360 0.53790 0.55450 0.30900
C 	C 	0.60330 0.33520 0.45880 -0.13600
C 	C 	0.87110 0.49980 0.51150 0.00400
C 	C 	0.37300 0.41170 0.47370 0.04800
C 	C 	0.83180 0.45850 0.50480 -0.05700
C 	C 	0.36830 0.48650 0.44540 -0.01700
C 	C 	0.18000 0.41310 0.54450 -0.10400
C 	C 	0.83230 0.29490 0.67510 0.03900
C 	C 	0.53050 0.34900 0.46450 0.06100
C 	C 	0.95420 0.58140 0.52320 0.03600
C 	C 	0.15570 0.68810 0.47570 -0.11300
C 	C 	0.11990 0.45050 0.64740 -0.03600
C 	C 	0.33640 0.33120 0.51780 -0.09800
C 	C 	0.91340 0.28880 0.68740 -0.00600
C 	C 	0.03960 0.83060 0.52540 -0.04700
C 	C 	0.43380 0.51180 0.38220 -0.11400
C 	C 	0.88460 0.53710 0.48050 -0.04000
C 	C 	0.76190 0.23690 0.74790 -0.02400
C 	C 	0.89710 0.46760 0.58810 -0.08700
C 	C 	0.46760 0.30550 0.56480 -0.07100
C 	C 	0.96340 0.10760 0.78420 -0.12100
C 	C 	0.56230 0.36640 0.41690 -0.11000
C 	C 	0.78190 0.37760 0.53260 0.19600
C 	C 	0.92150 0.57570 0.48400 -0.07700
C 	C 	0.12860 0.63120 0.55670 -0.07100
C 	C 	0.43390 0.55590 0.36690 0.01300
C 	C 	0.23260 0.70880 0.42700 -0.12800
C 	C 	0.15140 0.45250 0.60900 -0.01500
C 	C 	0.80130 0.23750 0.75450 -0.07600
C 	C 	0.59870 0.35970 0.41050 0.04800
C 	C 	0.22100 0.45330 0.53410 0.00500
C 	C 	0.71070 0.25910 0.69740 0.15600
C 	C 	0.40230 0.60560 0.38770 0.37000
C 	C 	0.64400 0.32750 0.45420 0.50000
C 	C 	0.30970 0.66150 0.45750 0.49900
H 	H 	0.86593 0.33937 0.61256 0.05400
H 	H 	0.93170 0.33955 0.62201 0.03500
H 	H 	0.16621 0.60521 0.57340 0.04400
H 	H 	0.44543 0.57217 0.53757 -0.96700
H 	H 	0.36933 0.46797 0.64838 0.09100
H 	H 	0.34676 0.48525 0.59924 0.12000
H 	H 	0.37153 0.51533 0.65803 0.11800
H 	H 	0.40313 0.46062 0.63703 0.09700
H 	H 	0.45426 0.50075 0.64168 0.10100
H 	H 	0.43595 0.47302 0.57930 0.10200
H 	H 	0.14499 0.13522 0.59927 0.01400
H 	H 	0.32033 0.22811 0.61991 0.07000
H 	H 	0.06242 0.28631 0.65647 0.07700
H 	H 	0.08790 0.78285 0.45516 0.07400
H 	H 	0.02397 0.87851 0.55202 0.03000
H 	H 	0.25041 0.27062 0.51182 0.05000
H 	H 	0.44362 0.39318 0.48540 0.05700
H 	H 	0.03067 0.08405 0.67138 0.04600
H 	H 	0.93358 0.22266 0.70054 0.07900
H 	H 	0.18330 0.20475 0.53972 0.03900
H 	H 	0.03992 0.59776 0.52176 0.06000
H 	H 	0.11179 0.73297 0.50463 0.06300
H 	H 	0.11702 0.93055 0.42623 0.01400
H 	H 	0.37803 0.26860 0.55667 0.06300
H 	H 	0.99415 0.35510 0.66379 0.07000
H 	H 	0.23569 0.62201 0.52666 0.03500
H 	H 	0.47815 0.36397 0.44389 0.06700
H 	H 	0.21052 0.09226 0.69396 -0.00600
H 	H 	0.03982 0.15220 0.60295 0.05800
H 	H 	0.11029 0.86088 0.40939 0.07600
H 	H 	0.87964 0.23960 0.74872 0.05500
H 	H 	0.98852 0.72869 0.58542 0.06200
H 	H 	0.42738 0.43571 0.42005 0.06700
H 	H 	0.85329 0.40122 0.60525 0.04300
H 	H 	0.97165 0.54719 0.57783 0.06200
H 	H 	0.57938 0.30037 0.53480 0.03900
H 	H 	0.20208 0.52246 0.61286 0.03800
H 	H 	0.29165 0.71666 0.39372 0.03400
H 	H 	0.27675 0.15405 0.68377 0.09000
H 	H 	0.97442 0.66941 0.53300 0.06200
H 	H 	0.99276 0.79588 0.59044 0.03200
H 	H 	0.32012 0.39790 0.52741 0.05400
H 	H 	0.31280 0.45803 0.49531 0.04100
H 	H 	0.06001 0.41106 0.68751 0.04500
H 	H 	0.10313 0.34463 0.58322 0.06500
H 	H 	0.34358 0.53301 0.44679 0.04500
H 	H 	0.95281 0.04915 0.82352 0.02800
H 	H 	0.03534 0.21715 0.61044 0.05100
H 	H 	0.78681 0.31468 0.64668 0.07300
H 	H 	0.96041 0.17843 0.76531 0.06500
H 	H 	0.51326 0.28664 0.58614 0.05100
H 	H 	0.80944 0.45533 0.47634 0.06000
H 	H 	0.17564 0.38562 0.52774 0.05900
H 	H 	0.15150 0.70744 0.44867 0.06700
H 	H 	0.12425 0.47760 0.66552 0.03600
H 	H 	0.30853 0.33087 0.51720 0.05900
H 	H 	0.45575 0.50601 0.36483 0.06000
H 	H 	0.86392 0.53566 0.45038 0.03500
H 	H 	0.73770 0.21754 0.77388 0.04500
H 	H 	0.91946 0.47074 0.61657 0.05300
H 	H 	0.44770 0.29170 0.59833 0.05700
H 	H 	0.94628 0.11360 0.81296 0.07300
H 	H 	0.55854 0.38415 0.38664 0.07200
H 	H 	0.92539 0.60005 0.45896 0.05000
H 	H 	0.10602 0.61360 0.58600 0.05600
H 	H 	0.45664 0.57832 0.34168 0.02400
H 	H 	0.23177 0.73086 0.40165 0.07700
H 	H 	0.80368 0.21916 0.78524 0.05200
H 	H 	0.61870 0.37053 0.37657 0.04000
H 	H 	0.24450 0.45301 0.51153 0.03200
N 	N 	0.46690 0.57510 0.52960 0.46900
C 	C 	0.42960 0.58390 0.53690 1.71800
C 	C 	0.50120 0.61220 0.49370 -0.60700
C 	C 	0.49380 0.55300 0.53430 -0.52100
H 	H 	0.43757 0.61131 0.51649 -0.59200
H 	H 	0.52668 0.60723 0.48688 0.18200
H 	H 	0.51159 0.64055 0.51579 0.20300
H 	H 	0.48844 0.61361 0.45423 0.20300
H 	H 	0.52232 0.57086 0.51236 0.15500
H 	H 	0.47720 0.52285 0.51636 0.18300
H 	H 	0.50009 0.55061 0.57749 0.18200
La	La	0.03081 0.07597 0.33035 1.61900
La	La	0.30222 0.71175 0.04148 1.62000
La	La	0.37902 0.74320 0.20766 1.73800
O 	O 	0.96150 0.09160 0.35947 -0.40600
O 	O 	0.01480 0.11560 0.14027 -0.42700
O 	O 	0.00670 0.98170 0.45287 -0.49300
O 	O 	0.03650 0.09390 0.21847 -0.48300
O 	O 	0.95050 0.05420 0.27267 -0.49600
O 	O 	0.97560 0.01130 0.39297 -0.40700
O 	O 	0.43010 0.71490 0.26147 -0.47100
O 	O 	0.69750 0.34490 0.15107 -0.50400
O 	O 	0.30870 0.65180 0.09247 -0.42400
O 	O 	0.65440 0.43430 0.23327 -0.36000
O 	O 	0.70200 0.41430 0.32717 -0.35100
O 	O 	0.36530 0.67720 0.15097 -0.50600
O 	O 	0.64180 0.31830 0.09157 -0.43200
O 	O 	0.43040 0.82240 0.22577 -0.77800
O 	O 	0.38280 0.76440 0.09337 -0.47500
O 	O 	0.45920 0.76090 0.18207 -0.36400
O 	O 	0.76870 0.44500 0.39687 -0.33600
O 	O 	0.36450 0.79250 0.01937 -0.42200
O 	O 	0.62290 0.37050 0.15937 -0.35700
N 	N 	0.48290 0.89730 0.26047 -0.00500
C 	C 	0.09070 0.16110 0.15897 -0.15200
C 	C 	0.57830 0.40340 0.20637 -0.02800
C 	C 	0.68020 0.54780 0.30847 -0.08500
C 	C 	0.73810 0.49270 0.37347 -0.02200
C 	C 	0.89580 0.06650 0.30987 -0.23300
C 	C 	0.68090 0.58790 0.31317 -0.03300
C 	C 	0.93760 0.07070 0.31757 0.42100
C 	C 	0.37320 0.53700 0.21567 -0.02000
C 	C 	0.98220 0.97810 0.41857 0.44100
C 	C 	0.44440 0.86300 0.22747 -0.07000
C 	C 	0.50540 0.87740 0.29427 -0.25400
C 	C 	0.51470 0.94270 0.28137 -0.26500
C 	C 	0.66860 0.12820 0.18447 0.03700
C 	C 	0.86170 0.03440 0.27937 0.06100
C 	C 	0.77690 0.06950 0.26987 -0.12600
C 	C 	0.71300 0.74840 0.33017 -0.14500
C 	C 	0.21260 0.28140 0.14867 -0.13600
C 	C 	0.12540 0.16890 0.19177 0.02100
C 	C 	0.17240 0.24130 0.14687 0.09400
C 	C 	0.81520 0.06990 0.28777 0.10300
C 	C 	0.75040 0.00240 0.20517 -0.07200
C 	C 	0.79460 0.79490 0.35027 0.01000
C 	C 	0.63210 0.04840 0.16557 -0.09900
C 	C 	0.91000 0.92350 0.36677 0.00300
C 	C 	0.66720 0.08440 0.18607 0.03900
C 	C 	0.74980 0.70930 0.35597 -0.14600
C 	C 	0.79000 0.00120 0.22287 -0.02300
C 	C 	0.37430 0.41460 0.18747 -0.10100
C 	C 	0.29400 0.37790 0.17717 -0.09900
C 	C 	0.74920 0.74740 0.34587 0.08700
C 	C 	0.34750 0.54680 0.17267 -0.03000
C 	C 	0.09470 0.19150 0.11687 0.07300
C 	C 	0.31510 0.51330 0.13557 0.07300
C 	C 	0.70600 0.08290 0.20807 -0.10000
C 	C 	0.24870 0.28820 0.19137 0.04800
C 	C 	0.70590 0.04130 0.20657 0.04000
C 	C 	0.73620 0.57450 0.38487 0.02700
C 	C 	0.04470 0.11920 0.16947 0.39700
C 	C 	0.67230 0.66680 0.33447 -0.13400
C 	C 	0.33380 0.45880 0.18287 0.03200
C 	C 	0.74160 0.03680 0.22647 0.02300
C 	C 	0.35590 0.59080 0.16797 0.02400
C 	C 	0.65080 0.13690 0.14057 -0.11300
C 	C 	0.87170 0.88140 0.36047 -0.01500
C 	C 	0.58680 0.73200 0.24637 0.05700
C 	C 	0.29290 0.33330 0.18577 0.02900
C 	C 	0.88520 0.09640 0.33457 0.13500
C 	C 	0.84160 0.86850 0.30407 -0.04000
C 	C 	0.33460 0.41640 0.17817 0.03800
C 	C 	0.13570 0.22980 0.10897 -0.15300
C 	C 	0.73930 0.61740 0.38887 -0.08100
C 	C 	0.51900 0.92060 0.08777 0.06700
C 	C 	0.71090 0.66710 0.35057 0.07500
C 	C 	0.24650 0.25610 0.22827 -0.10200
C 	C 	0.62820 0.70560 0.30187 0.03000
C 	C 	0.55940 0.96390 0.10287 -0.12800
C 	C 	0.57370 0.43150 0.24807 -0.01700
C 	C 	0.49570 0.39950 0.21987 0.04600
C 	C 	0.45410 0.40180 0.22097 -0.11300
C 	C 	0.33200 0.60130 0.12617 -0.15700
C 	C 	0.68300 0.25720 0.17107 0.01800
C 	C 	0.50510 0.70130 0.26117 -0.03200
C 	C 	0.67300 0.70710 0.32397 0.06200
C 	C 	0.29970 0.56780 0.08897 0.06600
C 	C 	0.86290 0.84750 0.40257 0.07500
C 	C 	0.84920 0.10050 0.32857 -0.19600
C 	C 	0.33130 0.33280 0.19427 -0.09800
C 	C 	0.20750 0.21940 0.22887 -0.00100
C 	C 	0.58140 0.92200 0.16497 -0.08800
C 	C 	0.67840 0.21460 0.17577 -0.01700
C 	C 	0.93950 0.93190 0.41507 -0.11900
C 	C 	0.63040 0.00370 0.16257 0.02300
C 	C 	0.54490 0.88230 0.14797 -0.01800
C 	C 	0.58840 0.67080 0.32787 -0.07300
C 	C 	0.62760 0.73460 0.26497 -0.11500
C 	C 	0.37460 0.37510 0.19527 0.03000
C 	C 	0.47130 0.83810 0.09677 -0.00700
C 	C 	0.93070 0.89800 0.45717 0.05000
C 	C 	0.82190 0.03340 0.26487 -0.05800
C 	C 	0.50440 0.73120 0.22527 -0.09100
C 	C 	0.80450 0.82610 0.30877 -0.05500
C 	C 	0.43850 0.83750 0.05847 -0.13200
C 	C 	0.70590 0.49620 0.33847 -0.09500
C 	C 	0.82610 0.80390 0.40197 -0.10500
C 	C 	0.69720 0.20400 0.22317 -0.03000
C 	C 	0.46210 0.73570 0.22117 0.30900
C 	C 	0.66480 0.26810 0.12547 -0.13700
C 	C 	0.50020 0.37130 0.17817 0.00200
C 	C 	0.58830 0.96130 0.14037 0.04700
C 	C 	0.54150 0.37330 0.17147 -0.05700
C 	C 	0.51350 0.88180 0.11207 -0.01800
C 	C 	0.58690 0.76690 0.21117 -0.10400
C 	C 	0.70510 0.53740 0.34177 0.03900
C 	C 	0.65100 0.18150 0.13117 0.05900
C 	C 	0.41860 0.37280 0.18987 0.03600
C 	C 	0.31190 0.46760 0.14237 -0.11300
C 	C 	0.54950 0.66940 0.31407 -0.03700
C 	C 	0.66880 0.00520 0.18447 -0.09900
C 	C 	0.71120 0.62460 0.35407 -0.00600
C 	C 	0.16940 0.20900 0.19207 -0.04700
C 	C 	0.48820 0.92200 0.04887 -0.11600
C 	C 	0.46290 0.34750 0.14717 -0.04000
C 	C 	0.76310 0.52500 0.41457 -0.02500
C 	C 	0.53240 0.42950 0.25477 -0.08700
C 	C 	0.69450 0.16210 0.23147 -0.07100
C 	C 	0.89240 0.85580 0.45087 -0.12100
C 	C 	0.63360 0.19590 0.08357 -0.11100
C 	C 	0.62240 0.40430 0.19927 0.19700
C 	C 	0.42430 0.34580 0.15067 -0.07800
C 	C 	0.36880 0.49740 0.22337 -0.07200
C 	C 	0.44410 0.87800 0.03357 0.01300
C 	C 	0.29120 0.52380 0.09367 -0.12900
C 	C 	0.54750 0.69890 0.27567 -0.01500
C 	C 	0.76250 0.56380 0.42117 -0.07500
C 	C 	0.64030 0.23900 0.07717 0.04700
C 	C 	0.54670 0.76770 0.20077 0.00500
C 	C 	0.74090 0.45160 0.36407 0.15600
C 	C 	0.39440 0.79670 0.05437 0.37000
C 	C 	0.67250 0.31650 0.12087 0.49900
C 	C 	0.33850 0.64820 0.12417 0.49800
H 	H 	0.66063 0.52656 0.27923 0.05400
H 	H 	0.66045 0.59215 0.28868 0.03500
H 	H 	0.39479 0.56100 0.24007 0.04400
H 	H 	0.42783 0.87326 0.20424 -0.97000
H 	H 	0.53203 0.90136 0.31505 0.09100
H 	H 	0.51475 0.86151 0.26591 0.12000
H 	H 	0.48467 0.85620 0.32470 0.11800
H 	H 	0.53938 0.94251 0.30370 0.09700
H 	H 	0.49925 0.95351 0.30835 0.10100
H 	H 	0.52698 0.96293 0.24597 0.10200
H 	H 	0.86478 0.00977 0.26594 0.01400
H 	H 	0.77189 0.09222 0.28658 0.07000
H 	H 	0.71369 0.77611 0.32314 0.07700
H 	H 	0.21715 0.30505 0.12183 0.07200
H 	H 	0.12149 0.14546 0.21869 0.03000
H 	H 	0.72938 0.97979 0.17849 0.04900
H 	H 	0.60682 0.05044 0.15207 0.05600
H 	H 	0.91595 0.94662 0.33805 0.04600
H 	H 	0.77734 0.71092 0.36721 0.07900
H 	H 	0.79525 0.97855 0.20639 0.03900
H 	H 	0.40224 0.44216 0.18843 0.06000
H 	H 	0.26703 0.37882 0.17130 0.06200
H 	H 	0.06945 0.18647 0.09290 0.01200
H 	H 	0.73140 0.10943 0.22334 0.06300
H 	H 	0.64490 0.63905 0.33046 0.07000
H 	H 	0.37799 0.61368 0.19333 0.03500
H 	H 	0.63603 0.11418 0.11056 0.06500
H 	H 	0.90774 0.11826 0.36063 -0.00600
H 	H 	0.84780 0.88762 0.26962 0.05800
H 	H 	0.13912 0.24941 0.07606 0.07400
H 	H 	0.76040 0.64004 0.41539 0.05400
H 	H 	0.27131 0.25983 0.25209 0.06200
H 	H 	0.56429 0.99167 0.08672 0.06500
H 	H 	0.59878 0.45207 0.27192 0.04300
H 	H 	0.45281 0.42446 0.24450 0.06200
H 	H 	0.69963 0.27901 0.20147 0.03900
H 	H 	0.47754 0.67962 0.27953 0.03800
H 	H 	0.28334 0.57499 0.06039 0.03100
H 	H 	0.84595 0.12270 0.35044 0.09000
H 	H 	0.33059 0.30501 0.19967 0.06100
H 	H 	0.20412 0.19688 0.25711 0.03200
H 	H 	0.60210 0.92222 0.19408 0.05400
H 	H 	0.54197 0.85477 0.16198 0.04000
H 	H 	0.58894 0.64895 0.35418 0.04400
H 	H 	0.65537 0.75850 0.24989 0.06500
H 	H 	0.46699 0.81057 0.11346 0.04400
H 	H 	0.95085 0.90366 0.49019 0.02800
H 	H 	0.78285 0.81819 0.27711 0.05100
H 	H 	0.68532 0.47213 0.31335 0.07300
H 	H 	0.82157 0.78198 0.43198 0.06400
H 	H 	0.71336 0.22662 0.25281 0.05100
H 	H 	0.54467 0.35411 0.14301 0.05800
H 	H 	0.61438 0.79002 0.19441 0.05800
H 	H 	0.29256 0.44406 0.11534 0.06600
H 	H 	0.52240 0.64665 0.33219 0.03600
H 	H 	0.66913 0.97766 0.18387 0.05900
H 	H 	0.49399 0.94974 0.03150 0.05800
H 	H 	0.46434 0.32826 0.11705 0.03400
H 	H 	0.78246 0.52016 0.44055 0.04500
H 	H 	0.52926 0.44872 0.28324 0.05300
H 	H 	0.70830 0.15600 0.26500 0.05700
H 	H 	0.88640 0.83268 0.47963 0.07200
H 	H 	0.61585 0.17439 0.05331 0.06800
H 	H 	0.39995 0.32534 0.12563 0.04900
H 	H 	0.38640 0.49242 0.25267 0.05600
H 	H 	0.42168 0.87832 0.00835 0.02000
H 	H 	0.26914 0.50091 0.06832 0.07400
H 	H 	0.78084 0.58452 0.45191 0.05100
H 	H 	0.62947 0.24817 0.04324 0.03600
H 	H 	0.54699 0.79149 0.17820 0.03200
N 	N 	0.42490 0.89180 0.19627 0.47000
C 	C 	0.41610 0.84570 0.20357 1.72400
C 	C 	0.38780 0.88900 0.16037 -0.60600
C 	C 	0.44700 0.94080 0.20097 -0.52200
H 	H 	0.38869 0.82626 0.18316 -0.59400
H 	H 	0.39277 0.91945 0.15355 0.18100
H 	H 	0.35945 0.87104 0.18246 0.20200
H 	H 	0.38639 0.87483 0.12090 0.20100
H 	H 	0.42914 0.95146 0.17903 0.15500
H 	H 	0.47715 0.95435 0.18303 0.18300
H 	H 	0.44939 0.94948 0.24416 0.18200
La	La	0.92403 0.95484 0.99701 1.63000
La	La	0.28825 0.59047 0.70814 1.63000
La	La	0.25680 0.63582 0.87432 1.73800
O 	O 	0.90840 0.86990 0.02613 -0.41100
O 	O 	0.88440 0.89920 0.80693 -0.42500
O 	O 	0.01830 0.02500 0.11953 -0.49400
O 	O 	0.90610 0.94260 0.88513 -0.48300
O 	O 	0.94580 0.89630 0.93933 -0.49200
O 	O 	0.98870 0.96430 0.05963 -0.41200
O 	O 	0.28510 0.71520 0.92813 -0.46700
O 	O 	0.65510 0.35260 0.81773 -0.50400
O 	O 	0.34820 0.65690 0.75913 -0.42200
O 	O 	0.56570 0.22010 0.89993 -0.36000
O 	O 	0.58570 0.28770 0.99383 -0.34000
O 	O 	0.32280 0.68810 0.81763 -0.50500
O 	O 	0.68170 0.32350 0.75823 -0.43000
O 	O 	0.17760 0.60800 0.89243 -0.77500
O 	O 	0.23560 0.61840 0.76003 -0.47300
O 	O 	0.23910 0.69830 0.84873 -0.36300
O 	O 	0.55500 0.32370 0.06353 -0.33300
O 	O 	0.20750 0.57200 0.68603 -0.41600
O 	O 	0.62950 0.25240 0.82603 -0.35800
N 	N 	0.10270 0.58560 0.92713 -0.00300
C 	C 	0.83890 0.92960 0.82563 -0.15200
C 	C 	0.59660 0.17490 0.87303 -0.02800
C 	C 	0.45220 0.13240 0.97513 -0.08500
C 	C 	0.50730 0.24540 0.04013 -0.00600
C 	C 	0.93350 0.82930 0.97653 -0.16800
C 	C 	0.41210 0.09300 0.97983 -0.00800
C 	C 	0.92930 0.86690 0.98423 0.40900
C 	C 	0.46300 0.83620 0.88233 -0.01900
C 	C 	0.02190 0.00410 0.08523 0.44000
C 	C 	0.13700 0.58140 0.89413 -0.06600
C 	C 	0.12260 0.62800 0.96093 -0.26000
C 	C 	0.05730 0.57200 0.94803 -0.26800
C 	C 	0.87180 0.54040 0.85113 0.03700
C 	C 	0.96560 0.82730 0.94603 0.01600
C 	C 	0.93050 0.70740 0.93653 -0.09700
C 	C 	0.25160 0.96460 0.99683 -0.15300
C 	C 	0.71860 0.93120 0.81533 -0.13600
C 	C 	0.83110 0.95650 0.85843 0.02300
C 	C 	0.75870 0.93110 0.81353 0.09700
C 	C 	0.93010 0.74530 0.95443 0.05700
C 	C 	0.99760 0.74800 0.87183 -0.05600
C 	C 	0.20510 0.99970 0.01693 -0.00900
C 	C 	0.95160 0.58370 0.83223 -0.10200
C 	C 	0.07650 0.98650 0.03343 0.00800
C 	C 	0.91560 0.58280 0.85273 0.04300
C 	C 	0.29070 0.04050 0.02263 -0.16700
C 	C 	0.99880 0.78880 0.88953 -0.04400
C 	C 	0.58540 0.95970 0.85413 -0.10000
C 	C 	0.62210 0.91610 0.84383 -0.09800
C 	C 	0.25260 0.00180 0.01253 0.09200
C 	C 	0.45320 0.80070 0.83933 -0.02900
C 	C 	0.80850 0.90320 0.78353 0.07600
C 	C 	0.48670 0.80180 0.80223 0.07500
C 	C 	0.91710 0.62310 0.87473 -0.10400
C 	C 	0.71180 0.96050 0.85803 0.05000
C 	C 	0.95870 0.66460 0.87323 0.05100
C 	C 	0.42550 0.16170 0.05153 0.01300
C 	C 	0.88080 0.92550 0.83613 0.39700
C 	C 	0.33320 0.00550 0.00113 -0.19700
C 	C 	0.54120 0.87500 0.84953 0.03400
C 	C 	0.96320 0.70480 0.89313 0.00800
C 	C 	0.40920 0.76510 0.83463 0.02500
C 	C 	0.86310 0.51390 0.80723 -0.11100
C 	C 	0.11860 0.99030 0.02713 -0.02600
C 	C 	0.26800 0.85480 0.91303 0.03700
C 	C 	0.66670 0.95960 0.85243 0.03000
C 	C 	0.90360 0.78880 0.00123 0.03600
C 	C 	0.13150 0.97310 0.97073 -0.03400
C 	C 	0.58360 0.91820 0.84483 0.03900
C 	C 	0.77020 0.90590 0.77563 -0.15300
C 	C 	0.38260 0.12190 0.05553 -0.06400
C 	C 	0.07940 0.59840 0.75443 0.06700
C 	C 	0.33290 0.04380 0.01723 0.10600
C 	C 	0.74390 0.99040 0.89493 -0.10300
C 	C 	0.29440 0.92260 0.96853 -0.00400
C 	C 	0.03610 0.59550 0.76953 -0.12600
C 	C 	0.56850 0.14220 0.91473 -0.01500
C 	C 	0.60050 0.09620 0.88653 0.04800
C 	C 	0.59820 0.05230 0.88763 -0.11400
C 	C 	0.39870 0.73070 0.79283 -0.15600
C 	C 	0.74280 0.42580 0.83773 0.01800
C 	C 	0.29870 0.80380 0.92783 -0.04500
C 	C 	0.29290 0.96590 0.99063 0.10300
C 	C 	0.43220 0.73190 0.75563 0.06600
C 	C 	0.15250 0.01540 0.06923 0.07400
C 	C 	0.89950 0.74870 0.99523 -0.09700
C 	C 	0.66720 0.99850 0.86093 -0.09800
C 	C 	0.78060 0.98810 0.89553 0.00100
C 	C 	0.07800 0.65940 0.83163 -0.08700
C 	C 	0.78540 0.46380 0.84243 -0.01500
C 	C 	0.06810 0.00760 0.08173 -0.12300
C 	C 	0.99630 0.62670 0.82923 0.02800
C 	C 	0.11770 0.66260 0.81463 -0.01800
C 	C 	0.32920 0.91760 0.99453 -0.02100
C 	C 	0.26540 0.89300 0.93163 -0.08600
C 	C 	0.62490 0.99950 0.86193 0.03100
C 	C 	0.16190 0.63320 0.76343 -0.00700
C 	C 	0.10200 0.03270 0.12383 0.05100
C 	C 	0.96660 0.78850 0.93153 -0.02100
C 	C 	0.26880 0.77320 0.89193 -0.08200
C 	C 	0.17390 0.97840 0.97543 -0.03500
C 	C 	0.16250 0.60100 0.72513 -0.12900
C 	C 	0.50380 0.20970 0.00513 -0.12400
C 	C 	0.19610 0.02220 0.06863 -0.10100
C 	C 	0.79600 0.49320 0.88983 -0.03000
C 	C 	0.26430 0.72640 0.88783 0.30700
C 	C 	0.73190 0.39670 0.79213 -0.13600
C 	C 	0.62870 0.12890 0.84483 0.00200
C 	C 	0.03870 0.62700 0.80703 0.04700
C 	C 	0.62670 0.16820 0.83813 -0.05600
C 	C 	0.11820 0.63170 0.77873 -0.01700
C 	C 	0.23310 0.82000 0.87783 -0.09100
C 	C 	0.46260 0.16770 0.00843 0.04200
C 	C 	0.81850 0.46950 0.79783 0.06000
C 	C 	0.62720 0.04580 0.85653 0.03800
C 	C 	0.53240 0.84430 0.80903 -0.11300
C 	C 	0.33060 0.88010 0.98073 -0.07200
C 	C 	0.99480 0.66360 0.85113 -0.10400
C 	C 	0.37540 0.08660 0.02073 -0.03700
C 	C 	0.79100 0.96040 0.85873 -0.04800
C 	C 	0.07800 0.56620 0.71553 -0.11400
C 	C 	0.65250 0.11540 0.81383 -0.03800
C 	C 	0.47500 0.23810 0.08123 -0.04000
C 	C 	0.57050 0.10290 0.92143 -0.08700
C 	C 	0.83790 0.53240 0.89813 -0.06900
C 	C 	0.14420 0.03660 0.11753 -0.12300
C 	C 	0.80410 0.43770 0.75023 -0.11000
C 	C 	0.59570 0.21810 0.86593 0.19600
C 	C 	0.65420 0.07850 0.81733 -0.07900
C 	C 	0.50260 0.87140 0.89003 -0.07100
C 	C 	0.12200 0.56610 0.70023 0.01300
C 	C 	0.47620 0.76740 0.76033 -0.12800
C 	C 	0.30110 0.84860 0.94233 0.00900
C 	C 	0.43620 0.19870 0.08783 -0.06300
C 	C 	0.76100 0.40130 0.74383 0.04800
C 	C 	0.23230 0.77900 0.86743 -0.00400
C 	C 	0.54840 0.28930 0.03073 0.14100
C 	C 	0.20330 0.59770 0.72103 0.37000
C 	C 	0.68350 0.35600 0.78753 0.50000
C 	C 	0.35180 0.69030 0.79083 0.49800
H 	H 	0.47344 0.13407 0.94589 0.05600
H 	H 	0.40785 0.06830 0.95534 0.02900
H 	H 	0.43900 0.83379 0.90673 0.04600
H 	H 	0.12674 0.55457 0.87090 -0.96600
H 	H 	0.09864 0.63067 0.98171 0.09500
H 	H 	0.13849 0.65324 0.93257 0.12300
H 	H 	0.14380 0.62847 0.99136 0.12400
H 	H 	0.05749 0.59687 0.97036 0.10000
H 	H 	0.04649 0.54574 0.97501 0.10500
H 	H 	0.03707 0.56405 0.91263 0.10400
H 	H 	0.99023 0.85501 0.93260 0.02900
H 	H 	0.90778 0.67967 0.95324 0.06300
H 	H 	0.22389 0.93758 0.98980 0.08300
H 	H 	0.69495 0.91210 0.78849 0.07400
H 	H 	0.85454 0.97603 0.88535 0.02900
H 	H 	0.02021 0.74959 0.84515 0.04500
H 	H 	0.94956 0.55638 0.81873 0.05800
H 	H 	0.05338 0.96933 0.00471 0.04000
H 	H 	0.28908 0.06642 0.03387 0.08400
H 	H 	0.02145 0.81670 0.87305 0.04700
H 	H 	0.55784 0.96008 0.85509 0.06000
H 	H 	0.62118 0.88821 0.83796 0.06300
H 	H 	0.81353 0.88298 0.75956 0.01400
H 	H 	0.89057 0.62197 0.89000 0.06600
H 	H 	0.36095 0.00585 0.99712 0.10000
H 	H 	0.38632 0.76431 0.85999 0.03600
H 	H 	0.88582 0.52185 0.77722 0.06700
H 	H 	0.88174 0.78948 0.02729 0.02300
H 	H 	0.11238 0.96018 0.93628 0.05800
H 	H 	0.75059 0.88971 0.74272 0.07700
H 	H 	0.35996 0.12036 0.08205 0.04700
H 	H 	0.74017 0.01148 0.91875 0.06400
H 	H 	0.00833 0.57262 0.75338 0.06700
H 	H 	0.54793 0.14671 0.93858 0.04500
H 	H 	0.57554 0.02835 0.91116 0.06500
H 	H 	0.72099 0.42062 0.86813 0.04000
H 	H 	0.32038 0.79792 0.94619 0.04500
H 	H 	0.42501 0.70835 0.72705 0.03400
H 	H 	0.87730 0.72325 0.01710 0.05000
H 	H 	0.69499 0.02558 0.86633 0.06300
H 	H 	0.80312 0.00724 0.92377 0.03300
H 	H 	0.07778 0.67988 0.86074 0.05400
H 	H 	0.14523 0.68720 0.82864 0.04100
H 	H 	0.35105 0.93999 0.02084 0.01800
H 	H 	0.24150 0.89687 0.91655 0.05600
H 	H 	0.18943 0.65642 0.78012 0.04500
H 	H 	0.09634 0.04719 0.15685 0.02700
H 	H 	0.18181 0.96466 0.94377 0.04700
H 	H 	0.52787 0.21319 0.98001 0.09100
H 	H 	0.21802 0.03959 0.09864 0.06200
H 	H 	0.77338 0.48674 0.91947 0.05400
H 	H 	0.64589 0.19056 0.80967 0.05900
H 	H 	0.20998 0.82436 0.86107 0.05500
H 	H 	0.55594 0.84850 0.78200 0.06700
H 	H 	0.35335 0.87575 0.99885 0.05300
H 	H 	0.02234 0.69147 0.85053 0.06200
H 	H 	0.05026 0.54425 0.69816 0.06100
H 	H 	0.67174 0.13608 0.78371 0.03500
H 	H 	0.47984 0.26230 0.10721 0.04900
H 	H 	0.55128 0.08054 0.94990 0.05600
H 	H 	0.84400 0.55230 0.93166 0.06000
H 	H 	0.16732 0.05372 0.14629 0.07200
H 	H 	0.82561 0.44146 0.71997 0.07200
H 	H 	0.67466 0.07461 0.79229 0.05100
H 	H 	0.50758 0.89398 0.91933 0.05800
H 	H 	0.12168 0.54336 0.67501 0.02400
H 	H 	0.49909 0.76823 0.73498 0.07700
H 	H 	0.41548 0.19632 0.11857 0.04600
H 	H 	0.75183 0.38130 0.70990 0.04000
H 	H 	0.20851 0.75550 0.84486 0.03500
N 	N 	0.10820 0.53310 0.86293 0.46900
C 	C 	0.15430 0.57040 0.87023 1.71500
C 	C 	0.11100 0.49880 0.82703 -0.60600
C 	C 	0.05920 0.50620 0.86763 -0.52300
H 	H 	0.17374 0.56243 0.84982 -0.59000
H 	H 	0.08055 0.47332 0.82021 0.18200
H 	H 	0.12896 0.48841 0.84912 0.20300
H 	H 	0.12517 0.51156 0.78756 0.20300
H 	H 	0.04854 0.47768 0.84569 0.15700
H 	H 	0.04565 0.52280 0.84969 0.18400
H 	H 	0.05052 0.49991 0.91082 0.18500
La	La	0.95484 0.03081 0.16368 1.61600
La	La	0.59047 0.30222 0.87481 1.63200
La	La	0.63582 0.37902 0.04099 1.73200
O 	O 	0.86990 0.96150 0.19280 -0.40700
O 	O 	0.89920 0.01480 0.97360 -0.40400
O 	O 	0.02500 0.00670 0.28620 -0.49300
O 	O 	0.94260 0.03650 0.05180 -0.47700
O 	O 	0.89630 0.95050 0.10600 -0.50000
O 	O 	0.96430 0.97560 0.22630 -0.40700
O 	O 	0.71520 0.43010 0.09480 -0.47200
O 	O 	0.35260 0.69750 0.98440 -0.49300
O 	O 	0.65690 0.30870 0.92580 -0.41900
O 	O 	0.22010 0.65440 0.06660 -0.35900
O 	O 	0.28770 0.70200 0.16050 -0.35100
O 	O 	0.68810 0.36530 0.98430 -0.49600
O 	O 	0.32350 0.64180 0.92490 -0.42700
O 	O 	0.60800 0.43040 0.05910 -0.81200
O 	O 	0.61840 0.38280 0.92670 -0.46800
O 	O 	0.69830 0.45920 0.01540 -0.36900
O 	O 	0.32370 0.76870 0.23020 -0.33600
O 	O 	0.57200 0.36450 0.85270 -0.41500
O 	O 	0.25240 0.62290 0.99270 -0.34600
N 	N 	0.58560 0.48290 0.09380 0.00000
C 	C 	0.92960 0.09070 0.99230 -0.09500
C 	C 	0.17490 0.57830 0.03970 -0.01400
C 	C 	0.13240 0.68020 0.14180 -0.08400
C 	C 	0.24540 0.73810 0.20680 -0.02200
C 	C 	0.82930 0.89580 0.14320 -0.23400
C 	C 	0.09300 0.68090 0.14650 -0.03400
C 	C 	0.86690 0.93760 0.15090 0.42200
C 	C 	0.83620 0.37320 0.04900 -0.02800
C 	C 	0.00410 0.98220 0.25190 0.44100
C 	C 	0.58140 0.44440 0.06080 -0.09700
C 	C 	0.62800 0.50540 0.12760 -0.25400
C 	C 	0.57200 0.51470 0.11470 -0.26600
C 	C 	0.54040 0.66860 0.01780 0.01500
C 	C 	0.82730 0.86170 0.11270 0.06100
C 	C 	0.70740 0.77690 0.10320 -0.12400
C 	C 	0.96460 0.71300 0.16350 -0.14500
C 	C 	0.93120 0.21260 0.98200 -0.10700
C 	C 	0.95650 0.12540 0.02510 -0.02800
C 	C 	0.93110 0.17240 0.98020 0.08200
C 	C 	0.74530 0.81520 0.12110 0.10100
C 	C 	0.74800 0.75040 0.03850 -0.07000
C 	C 	0.99970 0.79460 0.18360 0.00900
C 	C 	0.58370 0.63210 0.99890 -0.09400
C 	C 	0.98650 0.91000 0.20010 0.00300
C 	C 	0.58280 0.66720 0.01940 0.03700
C 	C 	0.04050 0.74980 0.18930 -0.14600
C 	C 	0.78880 0.79000 0.05620 -0.02400
C 	C 	0.95970 0.37430 0.02080 -0.11300
C 	C 	0.91610 0.29400 0.01050 -0.11000
C 	C 	0.00180 0.74920 0.17920 0.08600
C 	C 	0.80070 0.34750 0.00600 -0.03100
C 	C 	0.90320 0.09470 0.95020 0.03800
C 	C 	0.80180 0.31510 0.96890 0.07600
C 	C 	0.62310 0.70600 0.04140 -0.10700
C 	C 	0.96050 0.24870 0.02470 0.02200
C 	C 	0.66460 0.70590 0.03990 0.05200
C 	C 	0.16170 0.73620 0.21820 0.02600
C 	C 	0.92550 0.04470 0.00280 0.35200
C 	C 	0.00550 0.67230 0.16780 -0.13400
C 	C 	0.87500 0.33380 0.01620 0.01000
C 	C 	0.70480 0.74160 0.05980 0.01700
C 	C 	0.76510 0.35590 0.00130 0.00400
C 	C 	0.51390 0.65080 0.97390 -0.08600
C 	C 	0.99030 0.87170 0.19380 -0.01600
C 	C 	0.85480 0.58680 0.07970 0.05600
C 	C 	0.95960 0.29290 0.01910 0.04000
C 	C 	0.78880 0.88520 0.16790 0.13500
C 	C 	0.97310 0.84160 0.13740 -0.04000
C 	C 	0.91820 0.33460 0.01150 0.05000
C 	C 	0.90590 0.13570 0.94230 -0.12500
C 	C 	0.12190 0.73930 0.22220 -0.08200
C 	C 	0.59840 0.51900 0.92110 0.05100
C 	C 	0.04380 0.71090 0.18390 0.07400
C 	C 	0.99040 0.24650 0.06160 -0.07800
C 	C 	0.92260 0.62820 0.13520 0.02900
C 	C 	0.59550 0.55940 0.93620 -0.10400
C 	C 	0.14220 0.57370 0.08140 -0.03100
C 	C 	0.09620 0.49570 0.05320 0.03100
C 	C 	0.05230 0.45410 0.05430 -0.09700
C 	C 	0.73070 0.33200 0.95950 -0.13600
C 	C 	0.42580 0.68300 0.00440 -0.00900
C 	C 	0.80380 0.50510 0.09450 -0.03200
C 	C 	0.96590 0.67300 0.15730 0.06100
C 	C 	0.73190 0.29970 0.92230 0.05800
C 	C 	0.01540 0.86290 0.23590 0.07500
C 	C 	0.74870 0.84920 0.16190 -0.19500
C 	C 	0.99850 0.33130 0.02760 -0.10900
C 	C 	0.98810 0.20750 0.06220 -0.02400
C 	C 	0.65940 0.58140 0.99830 -0.03700
C 	C 	0.46380 0.67840 0.00910 -0.01400
C 	C 	0.00760 0.93950 0.24840 -0.11900
C 	C 	0.62670 0.63040 0.99590 0.05000
C 	C 	0.66260 0.54490 0.98130 -0.05100
C 	C 	0.91760 0.58840 0.16120 -0.07400
C 	C 	0.89300 0.62760 0.09830 -0.11500
C 	C 	0.99950 0.37460 0.02860 0.04200
C 	C 	0.63320 0.47130 0.93010 -0.01800
C 	C 	0.03270 0.93070 0.29050 0.05000
C 	C 	0.78850 0.82190 0.09820 -0.05800
C 	C 	0.77320 0.50440 0.05860 -0.09400
C 	C 	0.97840 0.80450 0.14210 -0.05500
C 	C 	0.60100 0.43850 0.89180 -0.12200
C 	C 	0.20970 0.70590 0.17180 -0.09500
C 	C 	0.02220 0.82610 0.23530 -0.10500
C 	C 	0.49320 0.69720 0.05650 -0.03900
C 	C 	0.72640 0.46210 0.05450 0.31000
C 	C 	0.39670 0.66480 0.95880 -0.11200
C 	C 	0.12890 0.50020 0.01150 0.01100
C 	C 	0.62700 0.58830 0.97370 0.01900
C 	C 	0.16820 0.54150 0.00480 -0.08900
C 	C 	0.63170 0.51350 0.94540 0.00700
C 	C 	0.82000 0.58690 0.04450 -0.10700
C 	C 	0.16770 0.70510 0.17510 0.03800
C 	C 	0.46950 0.65100 0.96450 0.05900
C 	C 	0.04580 0.41860 0.02320 0.00800
C 	C 	0.84430 0.31190 0.97570 -0.08800
C 	C 	0.88010 0.54950 0.14740 -0.03700
C 	C 	0.66360 0.66880 0.01780 -0.12600
C 	C 	0.08660 0.71120 0.18740 -0.00600
C 	C 	0.96040 0.16940 0.02540 -0.03100
C 	C 	0.56620 0.48820 0.88220 -0.10400
C 	C 	0.11540 0.46290 0.98050 -0.04700
C 	C 	0.23810 0.76310 0.24790 -0.02500
C 	C 	0.10290 0.53240 0.08810 -0.07600
C 	C 	0.53240 0.69450 0.06480 -0.06200
C 	C 	0.03660 0.89240 0.28420 -0.12100
C 	C 	0.43770 0.63360 0.91690 -0.10000
C 	C 	0.21810 0.62240 0.03260 0.18000
C 	C 	0.07850 0.42430 0.98400 -0.04700
C 	C 	0.87140 0.36880 0.05670 -0.06300
C 	C 	0.56610 0.44410 0.86690 0.00700
C 	C 	0.76740 0.29120 0.92700 -0.12000
C 	C 	0.84860 0.54750 0.10900 -0.01600
C 	C 	0.19870 0.76250 0.25450 -0.07600
C 	C 	0.40130 0.64030 0.91050 0.03600
C 	C 	0.77900 0.54670 0.03410 0.00500
C 	C 	0.28930 0.74090 0.19740 0.15600
C 	C 	0.59770 0.39440 0.88770 0.36800
C 	C 	0.35600 0.67250 0.95420 0.49100
C 	C 	0.69030 0.33850 0.95750 0.49200
H 	H 	0.13407 0.66063 0.11256 0.05200
H 	H 	0.06830 0.66045 0.12201 0.03300
H 	H 	0.83379 0.39479 0.07340 0.04600
H 	H 	0.55457 0.42783 0.03757 -1.05400
H 	H 	0.63067 0.53203 0.14838 0.09000
H 	H 	0.65324 0.51475 0.09924 0.11900
H 	H 	0.62847 0.48467 0.15803 0.11900
H 	H 	0.59687 0.53938 0.13703 0.09600
H 	H 	0.54574 0.49925 0.14168 0.10000
H 	H 	0.56405 0.52698 0.07930 0.10000
H 	H 	0.85501 0.86478 0.09927 0.01300
H 	H 	0.67967 0.77189 0.11991 0.06900
H 	H 	0.93758 0.71369 0.15647 0.07700
H 	H 	0.91210 0.21715 0.95516 0.06800
H 	H 	0.97603 0.12149 0.05202 0.04400
H 	H 	0.74959 0.72938 0.01182 0.04700
H 	H 	0.55638 0.60682 0.98540 0.05900
H 	H 	0.96933 0.91595 0.17138 0.04600
H 	H 	0.06642 0.77734 0.20054 0.07800
H 	H 	0.81670 0.79525 0.03972 0.03700
H 	H 	0.96008 0.40224 0.02176 0.06300
H 	H 	0.88821 0.26703 0.00463 0.06300
H 	H 	0.88298 0.06945 0.92623 0.02700
H 	H 	0.62197 0.73140 0.05667 0.06500
H 	H 	0.00585 0.64490 0.16379 0.07000
H 	H 	0.76431 0.37799 0.02666 0.03900
H 	H 	0.52185 0.63603 0.94389 0.06000
H 	H 	0.78948 0.90774 0.19396 -0.00600
H 	H 	0.96018 0.84780 0.10295 0.05700
H 	H 	0.88971 0.13912 0.90939 0.06800
H 	H 	0.12036 0.76040 0.24872 0.05400
H 	H 	0.01148 0.27131 0.08542 0.05300
H 	H 	0.57262 0.56429 0.92005 0.06000
H 	H 	0.14671 0.59878 0.10525 0.04700
H 	H 	0.02835 0.45281 0.07783 0.05600
H 	H 	0.42062 0.69963 0.03480 0.04500
H 	H 	0.79792 0.47754 0.11286 0.03700
H 	H 	0.70835 0.28334 0.89372 0.03800
H 	H 	0.72325 0.84595 0.18377 0.08900
H 	H 	0.02558 0.33059 0.03300 0.06300
H 	H 	0.00724 0.20412 0.09044 0.03900
H 	H 	0.67988 0.60210 0.02741 0.03000
H 	H 	0.68720 0.54197 0.99531 0.05700
H 	H 	0.93999 0.58894 0.18751 0.04400
H 	H 	0.89687 0.65537 0.08322 0.06400
H 	H 	0.65642 0.46699 0.94679 0.05200
H 	H 	0.04719 0.95085 0.32352 0.02700
H 	H 	0.96466 0.78285 0.11044 0.05000
H 	H 	0.21319 0.68532 0.14668 0.07300
H 	H 	0.03959 0.82157 0.26531 0.06400
H 	H 	0.48674 0.71336 0.08614 0.05300
H 	H 	0.19056 0.54467 0.97634 0.07700
H 	H 	0.82436 0.61438 0.02774 0.05700
H 	H 	0.84850 0.29256 0.94867 0.06200
H 	H 	0.87575 0.52240 0.16552 0.03600
H 	H 	0.69147 0.66913 0.01720 0.06700
H 	H 	0.54425 0.49399 0.86483 0.05800
H 	H 	0.13608 0.46434 0.95038 0.03900
H 	H 	0.26230 0.78246 0.27388 0.04500
H 	H 	0.08054 0.52926 0.11657 0.04800
H 	H 	0.55230 0.70830 0.09833 0.05400
H 	H 	0.05372 0.88640 0.31296 0.07200
H 	H 	0.44146 0.61585 0.88664 0.06900
H 	H 	0.07461 0.39995 0.95896 0.04400
H 	H 	0.89398 0.38640 0.08600 0.05200
H 	H 	0.54336 0.42168 0.84168 0.02600
H 	H 	0.76823 0.26914 0.90165 0.07500
H 	H 	0.19632 0.78084 0.28524 0.05100
H 	H 	0.38130 0.62947 0.87657 0.04400
H 	H 	0.75550 0.54699 0.01153 0.02800
N 	N 	0.53310 0.42490 0.02960 0.50700
C 	C 	0.57040 0.41610 0.03690 1.87300
C 	C 	0.49880 0.38780 0.99370 -0.58800
C 	C 	0.50620 0.44700 0.03430 -0.54500
H 	H 	0.56243 0.38869 0.01649 -0.64800
H 	H 	0.47332 0.39277 0.98688 0.18200
H 	H 	0.48841 0.35945 0.01579 0.19000
H 	H 	0.51156 0.38639 0.95423 0.20100
H 	H 	0.47768 0.42914 0.01236 0.15600
H 	H 	0.52280 0.47715 0.01636 0.18600
H 	H 	0.49991 0.44939 0.07749 0.18800
La	La	0.96919 0.92403 0.83035 1.61800
La	La	0.69778 0.28825 0.54148 1.63000
La	La	0.62098 0.25680 0.70766 1.73800
O 	O 	0.03850 0.90840 0.85947 -0.40700
O 	O 	0.98520 0.88440 0.64027 -0.42500
O 	O 	0.99330 0.01830 0.95287 -0.48900
O 	O 	0.96350 0.90610 0.71847 -0.48300
O 	O 	0.04950 0.94580 0.77267 -0.49600
O 	O 	0.02440 0.98870 0.89297 -0.40600
O 	O 	0.56990 0.28510 0.76147 -0.47100
O 	O 	0.30250 0.65510 0.65107 -0.50300
O 	O 	0.69130 0.34820 0.59247 -0.42200
O 	O 	0.34560 0.56570 0.73327 -0.36000
O 	O 	0.29800 0.58570 0.82717 -0.35100
O 	O 	0.63470 0.32280 0.65097 -0.50500
O 	O 	0.35820 0.68170 0.59157 -0.43000
O 	O 	0.56960 0.17760 0.72577 -0.77600
O 	O 	0.61720 0.23560 0.59337 -0.47300
O 	O 	0.54080 0.23910 0.68207 -0.36400
O 	O 	0.23130 0.55500 0.89687 -0.33600
O 	O 	0.63550 0.20750 0.51937 -0.41700
O 	O 	0.37710 0.62950 0.65937 -0.35700
N 	N 	0.51710 0.10270 0.76047 -0.00500
C 	C 	0.90930 0.83890 0.65897 -0.15200
C 	C 	0.42170 0.59660 0.70637 -0.02800
C 	C 	0.31980 0.45220 0.80847 -0.08400
C 	C 	0.26190 0.50730 0.87347 -0.02200
C 	C 	0.10420 0.93350 0.80987 -0.23400
C 	C 	0.31910 0.41210 0.81317 -0.03300
C 	C 	0.06240 0.92930 0.81757 0.42200
C 	C 	0.62680 0.46300 0.71567 -0.02000
C 	C 	0.01780 0.02190 0.91857 0.44100
C 	C 	0.55560 0.13700 0.72747 -0.06900
C 	C 	0.49460 0.12260 0.79427 -0.25500
C 	C 	0.48530 0.05730 0.78137 -0.26500
C 	C 	0.33140 0.87180 0.68447 0.03800
C 	C 	0.13830 0.96560 0.77937 0.06200
C 	C 	0.22310 0.93050 0.76987 -0.12600
C 	C 	0.28700 0.25160 0.83017 -0.14500
C 	C 	0.78740 0.71860 0.64867 -0.13600
C 	C 	0.87460 0.83110 0.69177 0.02100
C 	C 	0.82760 0.75870 0.64687 0.09600
C 	C 	0.18480 0.93010 0.78777 0.10300
C 	C 	0.24960 0.99760 0.70517 -0.07200
C 	C 	0.20540 0.20510 0.85027 0.01000
C 	C 	0.36790 0.95160 0.66557 -0.09900
C 	C 	0.09000 0.07650 0.86677 0.00300
C 	C 	0.33280 0.91560 0.68607 0.03900
C 	C 	0.25020 0.29070 0.85597 -0.14600
C 	C 	0.21000 0.99880 0.72287 -0.02200
C 	C 	0.62570 0.58540 0.68747 -0.10100
C 	C 	0.70600 0.62210 0.67717 -0.09800
C 	C 	0.25080 0.25260 0.84587 0.08800
C 	C 	0.65250 0.45320 0.67267 -0.03000
C 	C 	0.90530 0.80850 0.61687 0.07500
C 	C 	0.68490 0.48670 0.63557 0.07400
C 	C 	0.29400 0.91710 0.70807 -0.09900
C 	C 	0.75130 0.71180 0.69137 0.04900
C 	C 	0.29410 0.95870 0.70657 0.04100
C 	C 	0.26380 0.42550 0.88487 0.02800
C 	C 	0.95530 0.88080 0.66947 0.39700
C 	C 	0.32770 0.33320 0.83447 -0.13400
C 	C 	0.66620 0.54120 0.68287 0.03300
C 	C 	0.25840 0.96320 0.72647 0.02400
C 	C 	0.64410 0.40920 0.66797 0.02500
C 	C 	0.34920 0.86310 0.64057 -0.11300
C 	C 	0.12830 0.11860 0.86047 -0.01500
C 	C 	0.41320 0.26800 0.74637 0.05700
C 	C 	0.70710 0.66670 0.68577 0.03000
C 	C 	0.11480 0.90360 0.83457 0.13600
C 	C 	0.15840 0.13150 0.80407 -0.03900
C 	C 	0.66540 0.58360 0.67817 0.03900
C 	C 	0.86430 0.77020 0.60897 -0.15300
C 	C 	0.26070 0.38260 0.88887 -0.08100
C 	C 	0.48100 0.07940 0.58777 0.06700
C 	C 	0.28910 0.33290 0.85057 0.07600
C 	C 	0.75350 0.74390 0.72827 -0.10200
C 	C 	0.37180 0.29440 0.80187 0.03100
C 	C 	0.44060 0.03610 0.60287 -0.12700
C 	C 	0.42630 0.56850 0.74807 -0.01700
C 	C 	0.50430 0.60050 0.71987 0.04600
C 	C 	0.54590 0.59820 0.72097 -0.11300
C 	C 	0.66800 0.39870 0.62617 -0.15600
C 	C 	0.31700 0.74280 0.67107 0.01800
C 	C 	0.49490 0.29870 0.76117 -0.03200
C 	C 	0.32700 0.29290 0.82397 0.06300
C 	C 	0.70030 0.43220 0.58897 0.06600
C 	C 	0.13710 0.15250 0.90257 0.07600
C 	C 	0.15080 0.89950 0.82857 -0.19600
C 	C 	0.66870 0.66720 0.69427 -0.09800
C 	C 	0.79250 0.78060 0.72887 0.00000
C 	C 	0.41860 0.07800 0.66497 -0.08800
C 	C 	0.32160 0.78540 0.67577 -0.01600
C 	C 	0.06050 0.06810 0.91507 -0.11700
C 	C 	0.36960 0.99630 0.66257 0.02400
C 	C 	0.45510 0.11770 0.64797 -0.01800
C 	C 	0.41160 0.32920 0.82787 -0.07300
C 	C 	0.37240 0.26540 0.76497 -0.11400
C 	C 	0.62540 0.62490 0.69527 0.03100
C 	C 	0.52870 0.16190 0.59677 -0.00700
C 	C 	0.06930 0.10200 0.95717 0.05100
C 	C 	0.17810 0.96660 0.76487 -0.05800
C 	C 	0.49560 0.26880 0.72527 -0.09100
C 	C 	0.19550 0.17390 0.80877 -0.05500
C 	C 	0.56150 0.16250 0.55847 -0.12900
C 	C 	0.29410 0.50380 0.83847 -0.09400
C 	C 	0.17390 0.19610 0.90197 -0.10400
C 	C 	0.30280 0.79600 0.72317 -0.03000
C 	C 	0.53790 0.26430 0.72117 0.30900
C 	C 	0.33520 0.73190 0.62547 -0.13600
C 	C 	0.49980 0.62870 0.67817 0.00400
C 	C 	0.41170 0.03870 0.64037 0.04800
C 	C 	0.45850 0.62670 0.67147 -0.05700
C 	C 	0.48650 0.11820 0.61207 -0.01700
C 	C 	0.41310 0.23310 0.71117 -0.10400
C 	C 	0.29490 0.46260 0.84177 0.03900
C 	C 	0.34900 0.81850 0.63117 0.06100
C 	C 	0.58140 0.62720 0.68987 0.03600
C 	C 	0.68810 0.53240 0.64237 -0.11300
C 	C 	0.45050 0.33060 0.81407 -0.03600
C 	C 	0.33120 0.99480 0.68447 -0.09900
C 	C 	0.28880 0.37540 0.85407 -0.00500
C 	C 	0.83060 0.79100 0.69207 -0.04700
C 	C 	0.51180 0.07800 0.54887 -0.11400
C 	C 	0.53710 0.65250 0.64717 -0.04000
C 	C 	0.23690 0.47500 0.91457 -0.02300
C 	C 	0.46760 0.57050 0.75477 -0.08700
C 	C 	0.30550 0.83790 0.73147 -0.07100
C 	C 	0.10760 0.14420 0.95087 -0.12000
C 	C 	0.36640 0.80410 0.58357 -0.11000
C 	C 	0.37760 0.59570 0.69927 0.19600
C 	C 	0.57570 0.65420 0.65067 -0.07800
C 	C 	0.63120 0.50260 0.72337 -0.07100
C 	C 	0.55590 0.12200 0.53357 0.01300
C 	C 	0.70880 0.47620 0.59367 -0.12800
C 	C 	0.45250 0.30110 0.77567 -0.01500
C 	C 	0.23750 0.43620 0.92117 -0.07500
C 	C 	0.35970 0.76100 0.57717 0.04800
C 	C 	0.45330 0.23230 0.70077 0.00500
C 	C 	0.25910 0.54840 0.86407 0.15700
C 	C 	0.60560 0.20330 0.55437 0.37000
C 	C 	0.32750 0.68350 0.62087 0.50000
C 	C 	0.66150 0.35180 0.62417 0.49900
H 	H 	0.33937 0.47344 0.77923 0.05400
H 	H 	0.33955 0.40785 0.78868 0.03500
H 	H 	0.60521 0.43900 0.74007 0.04400
H 	H 	0.57217 0.12674 0.70424 -0.96700
H 	H 	0.46797 0.09864 0.81505 0.09100
H 	H 	0.48525 0.13849 0.76591 0.12000
H 	H 	0.51533 0.14380 0.82470 0.11900
H 	H 	0.46062 0.05749 0.80370 0.09800
H 	H 	0.50075 0.04649 0.80835 0.10100
H 	H 	0.47302 0.03707 0.74597 0.10300
H 	H 	0.13522 0.99023 0.76594 0.01400
H 	H 	0.22811 0.90778 0.78658 0.07000
H 	H 	0.28631 0.22389 0.82314 0.07800
H 	H 	0.78285 0.69495 0.62183 0.07400
H 	H 	0.87851 0.85454 0.71869 0.03000
H 	H 	0.27062 0.02021 0.67849 0.05000
H 	H 	0.39318 0.94956 0.65207 0.05700
H 	H 	0.08405 0.05338 0.83805 0.04700
H 	H 	0.22266 0.28908 0.86721 0.07900
H 	H 	0.20475 0.02145 0.70639 0.03900
H 	H 	0.59776 0.55784 0.68843 0.06000
H 	H 	0.73297 0.62118 0.67130 0.06300
H 	H 	0.93055 0.81353 0.59290 0.01400
H 	H 	0.26860 0.89057 0.72334 0.06300
H 	H 	0.35510 0.36095 0.83046 0.07100
H 	H 	0.62201 0.38632 0.69333 0.03500
H 	H 	0.36397 0.88582 0.61056 0.06700
H 	H 	0.09226 0.88174 0.86063 -0.00600
H 	H 	0.15220 0.11238 0.76962 0.05800
H 	H 	0.86088 0.75059 0.57606 0.07700
H 	H 	0.23960 0.35996 0.91539 0.05600
H 	H 	0.72869 0.74017 0.75209 0.06300
H 	H 	0.43571 0.00833 0.58672 0.06700
H 	H 	0.40122 0.54793 0.77192 0.04400
H 	H 	0.54719 0.57554 0.74450 0.06300
H 	H 	0.30037 0.72099 0.70147 0.03900
H 	H 	0.52246 0.32038 0.77953 0.03800
H 	H 	0.71666 0.42501 0.56039 0.03400
H 	H 	0.15405 0.87730 0.85044 0.09100
H 	H 	0.66941 0.69499 0.69967 0.06200
H 	H 	0.79588 0.80312 0.75711 0.03300
H 	H 	0.39790 0.07778 0.69408 0.05400
H 	H 	0.45803 0.14523 0.66198 0.04100
H 	H 	0.41106 0.35105 0.85418 0.04600
H 	H 	0.34463 0.24150 0.74989 0.06500
H 	H 	0.53301 0.18943 0.61346 0.04500
H 	H 	0.04915 0.09634 0.99019 0.03100
H 	H 	0.21715 0.18181 0.77711 0.05100
H 	H 	0.31468 0.52787 0.81335 0.07300
H 	H 	0.17843 0.21802 0.93198 0.06600
H 	H 	0.28664 0.77338 0.75281 0.05100
H 	H 	0.45533 0.64589 0.64301 0.06000
H 	H 	0.38562 0.20998 0.69441 0.05900
H 	H 	0.70744 0.55594 0.61534 0.06700
H 	H 	0.47760 0.35335 0.83219 0.03700
H 	H 	0.33087 0.02234 0.68387 0.06000
H 	H 	0.50601 0.05026 0.53150 0.06100
H 	H 	0.53566 0.67174 0.61705 0.03500
H 	H 	0.21754 0.47984 0.94055 0.04600
H 	H 	0.47074 0.55128 0.78324 0.05300
H 	H 	0.29170 0.84400 0.76500 0.05700
H 	H 	0.11360 0.16732 0.97963 0.07600
H 	H 	0.38415 0.82561 0.55331 0.07200
H 	H 	0.60005 0.67466 0.62563 0.05100
H 	H 	0.61360 0.50758 0.75267 0.05600
H 	H 	0.57832 0.12168 0.50835 0.02400
H 	H 	0.73086 0.49909 0.56832 0.07700
H 	H 	0.21916 0.41548 0.95191 0.05400
H 	H 	0.37053 0.75183 0.54324 0.04000
H 	H 	0.45301 0.20851 0.67820 0.03200
N 	N 	0.57510 0.10820 0.69627 0.46800
C 	C 	0.58390 0.15430 0.70357 1.71800
C 	C 	0.61220 0.11100 0.66037 -0.60700
C 	C 	0.55300 0.05920 0.70097 -0.52100
H 	H 	0.61131 0.17374 0.68316 -0.59200
H 	H 	0.60723 0.08055 0.65355 0.18200
H 	H 	0.64055 0.12896 0.68246 0.20300
H 	H 	0.61361 0.12517 0.62090 0.20300
H 	H 	0.57086 0.04854 0.67903 0.15500
H 	H 	0.52285 0.04565 0.68303 0.18300
H 	H 	0.55061 0.05052 0.74416 0.18200
La	La	0.07597 0.04516 0.49701 1.61900
La	La	0.71175 0.40953 0.20814 1.63000
La	La	0.74320 0.36418 0.37432 1.73800
O 	O 	0.09160 0.13010 0.52613 -0.40700
O 	O 	0.11560 0.10080 0.30693 -0.42500
O 	O 	0.98170 0.97500 0.61953 -0.49300
O 	O 	0.09390 0.05740 0.38513 -0.48300
O 	O 	0.05420 0.10370 0.43933 -0.49600
O 	O 	0.01130 0.03570 0.55963 -0.40700
O 	O 	0.71490 0.28480 0.42813 -0.47100
O 	O 	0.34490 0.64740 0.31773 -0.50300
O 	O 	0.65180 0.34310 0.25913 -0.42200
O 	O 	0.43430 0.77990 0.39993 -0.36000
O 	O 	0.41430 0.71230 0.49383 -0.35100
O 	O 	0.67720 0.31190 0.31763 -0.50500
O 	O 	0.31830 0.67650 0.25823 -0.43000
O 	O 	0.82240 0.39200 0.39243 -0.77700
O 	O 	0.76440 0.38160 0.26003 -0.47300
O 	O 	0.76090 0.30170 0.34873 -0.36400
O 	O 	0.44500 0.67630 0.56353 -0.33600
O 	O 	0.79250 0.42800 0.18603 -0.41700
O 	O 	0.37050 0.74760 0.32603 -0.35700
N 	N 	0.89730 0.41440 0.42713 -0.00500
C 	C 	0.16110 0.07040 0.32563 -0.15200
C 	C 	0.40340 0.82510 0.37303 -0.02800
C 	C 	0.54780 0.86760 0.47513 -0.08400
C 	C 	0.49270 0.75460 0.54013 -0.02200
C 	C 	0.06650 0.17070 0.47653 -0.23300
C 	C 	0.58790 0.90700 0.47983 -0.03300
C 	C 	0.07070 0.13310 0.48423 0.42100
C 	C 	0.53700 0.16380 0.38233 -0.02000
C 	C 	0.97810 0.99590 0.58523 0.44100
C 	C 	0.86300 0.41860 0.39413 -0.06900
C 	C 	0.87740 0.37200 0.46093 -0.25400
C 	C 	0.94270 0.42800 0.44803 -0.26400
C 	C 	0.12820 0.45960 0.35113 0.03800
C 	C 	0.03440 0.17270 0.44603 0.06200
C 	C 	0.06950 0.29260 0.43653 -0.12600
C 	C 	0.74840 0.03540 0.49683 -0.14500
C 	C 	0.28140 0.06880 0.31533 -0.13600
C 	C 	0.16890 0.04350 0.35843 0.02100
C 	C 	0.24130 0.06890 0.31353 0.09600
C 	C 	0.06990 0.25470 0.45443 0.10300
C 	C 	0.00240 0.25200 0.37183 -0.07200
C 	C 	0.79490 0.00030 0.51693 0.01000
C 	C 	0.04840 0.41630 0.33223 -0.09900
C 	C 	0.92350 0.01350 0.53343 0.00300
C 	C 	0.08440 0.41720 0.35273 0.03900
C 	C 	0.70930 0.95950 0.52263 -0.14600
C 	C 	0.00120 0.21120 0.38953 -0.02200
C 	C 	0.41460 0.04030 0.35413 -0.10100
C 	C 	0.37790 0.08390 0.34383 -0.09900
C 	C 	0.74740 0.99820 0.51253 0.08600
C 	C 	0.54680 0.19930 0.33933 -0.03000
C 	C 	0.19150 0.09680 0.28353 0.07500
C 	C 	0.51330 0.19820 0.30223 0.07400
C 	C 	0.08290 0.37690 0.37473 -0.09900
C 	C 	0.28820 0.03950 0.35803 0.04800
C 	C 	0.04130 0.33540 0.37323 0.04100
C 	C 	0.57450 0.83830 0.55153 0.02700
C 	C 	0.11920 0.07450 0.33613 0.39700
C 	C 	0.66680 0.99450 0.50113 -0.13400
C 	C 	0.45880 0.12500 0.34953 0.03300
C 	C 	0.03680 0.29520 0.39313 0.02300
C 	C 	0.59080 0.23490 0.33463 0.02500
C 	C 	0.13690 0.48610 0.30723 -0.11300
C 	C 	0.88140 0.00970 0.52713 -0.01500
C 	C 	0.73200 0.14520 0.41303 0.05700
C 	C 	0.33330 0.04040 0.35243 0.03000
C 	C 	0.09640 0.21120 0.50123 0.13500
C 	C 	0.86850 0.02690 0.47073 -0.04000
C 	C 	0.41640 0.08180 0.34483 0.03900
C 	C 	0.22980 0.09410 0.27563 -0.15300
C 	C 	0.61740 0.87810 0.55553 -0.08100
C 	C 	0.92060 0.40160 0.25443 0.06700
C 	C 	0.66710 0.95620 0.51723 0.07500
C 	C 	0.25610 0.00960 0.39493 -0.10200
C 	C 	0.70560 0.07740 0.46853 0.03000
C 	C 	0.96390 0.40450 0.26953 -0.12700
C 	C 	0.43150 0.85780 0.41473 -0.01700
C 	C 	0.39950 0.90380 0.38653 0.04500
C 	C 	0.40180 0.94770 0.38763 -0.11300
C 	C 	0.60130 0.26930 0.29283 -0.15600
C 	C 	0.25720 0.57420 0.33773 0.01800
C 	C 	0.70130 0.19620 0.42783 -0.03200
C 	C 	0.70710 0.03410 0.49063 0.06200
C 	C 	0.56780 0.26810 0.25563 0.06600
C 	C 	0.84750 0.98460 0.56923 0.07500
C 	C 	0.10050 0.25130 0.49523 -0.19600
C 	C 	0.33280 0.00150 0.36093 -0.09800
C 	C 	0.21940 0.01190 0.39553 -0.00000
C 	C 	0.92200 0.34060 0.33163 -0.08800
C 	C 	0.21460 0.53620 0.34243 -0.01600
C 	C 	0.93190 0.99240 0.58173 -0.11900
C 	C 	0.00370 0.37330 0.32923 0.02400
C 	C 	0.88230 0.33740 0.31463 -0.01800
C 	C 	0.67080 0.08240 0.49453 -0.07300
C 	C 	0.73460 0.10700 0.43163 -0.11500
C 	C 	0.37510 0.00050 0.36193 0.03100
C 	C 	0.83810 0.36680 0.26343 -0.00700
C 	C 	0.89800 0.96730 0.62383 0.05000
C 	C 	0.03340 0.21150 0.43153 -0.05800
C 	C 	0.73120 0.22680 0.39193 -0.09100
C 	C 	0.82610 0.02160 0.47543 -0.05500
C 	C 	0.83750 0.39900 0.22513 -0.13000
C 	C 	0.49620 0.79030 0.50513 -0.09500
C 	C 	0.80390 0.97780 0.56863 -0.10500
C 	C 	0.20400 0.50680 0.38983 -0.03000
C 	C 	0.73570 0.27360 0.38783 0.30900
C 	C 	0.26810 0.60330 0.29213 -0.13600
C 	C 	0.37130 0.87110 0.34483 0.00400
C 	C 	0.96130 0.37300 0.30703 0.04800
C 	C 	0.37330 0.83180 0.33813 -0.05700
C 	C 	0.88180 0.36830 0.27873 -0.01700
C 	C 	0.76690 0.18000 0.37783 -0.10400
C 	C 	0.53740 0.83230 0.50843 0.03900
C 	C 	0.18150 0.53050 0.29783 0.06100
C 	C 	0.37280 0.95420 0.35653 0.03600
C 	C 	0.46760 0.15570 0.30903 -0.11300
C 	C 	0.66940 0.11990 0.48073 -0.03700
C 	C 	0.00520 0.33640 0.35113 -0.09800
C 	C 	0.62460 0.91340 0.52073 -0.00600
C 	C 	0.20900 0.03960 0.35873 -0.04700
C 	C 	0.92200 0.43380 0.21553 -0.11400
C 	C 	0.34750 0.88460 0.31383 -0.04000
C 	C 	0.52500 0.76190 0.58123 -0.02500
C 	C 	0.42950 0.89710 0.42143 -0.08700
C 	C 	0.16210 0.46760 0.39813 -0.07100
C 	C 	0.85580 0.96340 0.61753 -0.12100
C 	C 	0.19590 0.56230 0.25023 -0.11000
C 	C 	0.40430 0.78190 0.36593 0.19600
C 	C 	0.34580 0.92150 0.31733 -0.07700
C 	C 	0.49740 0.12860 0.39003 -0.07100
C 	C 	0.87800 0.43390 0.20023 0.01300
C 	C 	0.52380 0.23260 0.26033 -0.12800
C 	C 	0.69890 0.15140 0.44233 -0.01500
C 	C 	0.56380 0.80130 0.58783 -0.07500
C 	C 	0.23900 0.59870 0.24383 0.04800
C 	C 	0.76770 0.22100 0.36743 0.00500
C 	C 	0.45160 0.71070 0.53073 0.15600
C 	C 	0.79670 0.40230 0.22103 0.37000
C 	C 	0.31650 0.64400 0.28753 0.50000
C 	C 	0.64820 0.30970 0.29083 0.49900
H 	H 	0.52656 0.86593 0.44589 0.05400
H 	H 	0.59215 0.93170 0.45534 0.03500
H 	H 	0.56100 0.16621 0.40673 0.04400
H 	H 	0.87326 0.44543 0.37090 -0.96700
H 	H 	0.90136 0.36933 0.48171 0.09100
H 	H 	0.86151 0.34676 0.43257 0.12000
H 	H 	0.85620 0.37153 0.49136 0.11800
H 	H 	0.94251 0.40313 0.47036 0.09700
H 	H 	0.95351 0.45426 0.47501 0.10100
H 	H 	0.96293 0.43595 0.41263 0.10200
H 	H 	0.00977 0.14499 0.43260 0.01400
H 	H 	0.09222 0.32033 0.45324 0.07000
H 	H 	0.77611 0.06242 0.48980 0.07700
H 	H 	0.30505 0.08790 0.28849 0.07400
H 	H 	0.14546 0.02397 0.38535 0.03000
H 	H 	0.97979 0.25041 0.34515 0.05000
H 	H 	0.05044 0.44362 0.31873 0.05700
H 	H 	0.94662 0.03067 0.50471 0.04600
H 	H 	0.71092 0.93358 0.53387 0.07800
H 	H 	0.97855 0.18330 0.37305 0.03900
H 	H 	0.44216 0.03992 0.35509 0.06000
H 	H 	0.37882 0.11179 0.33796 0.06300
H 	H 	0.18647 0.11702 0.25956 0.01400
H 	H 	0.10943 0.37803 0.39000 0.06300
H 	H 	0.63905 0.99415 0.49712 0.07000
H 	H 	0.61368 0.23569 0.35999 0.03500
H 	H 	0.11418 0.47815 0.27722 0.06700
H 	H 	0.11826 0.21052 0.52729 -0.00600
H 	H 	0.88762 0.03982 0.43628 0.05800
H 	H 	0.24941 0.11029 0.24272 0.07600
H 	H 	0.64004 0.87964 0.58205 0.05400
H 	H 	0.25983 0.98852 0.41875 0.06200
H 	H 	0.99167 0.42738 0.25338 0.06700
H 	H 	0.45207 0.85329 0.43858 0.04300
H 	H 	0.42446 0.97165 0.41116 0.06200
H 	H 	0.27901 0.57938 0.36813 0.03900
H 	H 	0.67962 0.20208 0.44619 0.03800
H 	H 	0.57499 0.29165 0.22705 0.03400
H 	H 	0.12270 0.27675 0.51710 0.09000
H 	H 	0.30501 0.97442 0.36633 0.06200
H 	H 	0.19688 0.99276 0.42377 0.03200
H 	H 	0.92222 0.32012 0.36074 0.05400
H 	H 	0.85477 0.31280 0.32864 0.04000
H 	H 	0.64895 0.06001 0.52084 0.04500
H 	H 	0.75850 0.10313 0.41655 0.06500
H 	H 	0.81057 0.34358 0.28012 0.04500
H 	H 	0.90366 0.95281 0.65685 0.02700
H 	H 	0.81819 0.03534 0.44377 0.05100
H 	H 	0.47213 0.78681 0.48001 0.07300
H 	H 	0.78198 0.96041 0.59864 0.06400
H 	H 	0.22662 0.51326 0.41947 0.05100
H 	H 	0.35411 0.80944 0.30967 0.06000
H 	H 	0.79002 0.17564 0.36107 0.05800
H 	H 	0.44406 0.15150 0.28200 0.06700
H 	H 	0.64665 0.12425 0.49885 0.03600
H 	H 	0.97766 0.30853 0.35053 0.05900
H 	H 	0.94974 0.45575 0.19816 0.06000
H 	H 	0.32826 0.86392 0.28371 0.03500
H 	H 	0.52016 0.73770 0.60721 0.04500
H 	H 	0.44872 0.91946 0.44990 0.05300
H 	H 	0.15600 0.44770 0.43166 0.05700
H 	H 	0.83268 0.94628 0.64629 0.07200
H 	H 	0.17439 0.55854 0.21997 0.07100
H 	H 	0.32534 0.92539 0.29229 0.05000
H 	H 	0.49242 0.10602 0.41933 0.05600
H 	H 	0.87832 0.45664 0.17501 0.02300
H 	H 	0.50091 0.23177 0.23498 0.07700
H 	H 	0.58452 0.80368 0.61857 0.05100
H 	H 	0.24817 0.61870 0.20990 0.04000
H 	H 	0.79149 0.24450 0.34486 0.03200
N 	N 	0.89180 0.46690 0.36293 0.46900
C 	C 	0.84570 0.42960 0.37023 1.71800
C 	C 	0.88900 0.50120 0.32703 -0.60700
C 	C 	0.94080 0.49380 0.36763 -0.52100
H 	H 	0.82626 0.43757 0.34982 -0.59200
H 	H 	0.91945 0.52668 0.32021 0.18200
H 	H 	0.87104 0.51159 0.34912 0.20300
H 	H 	0.87483 0.48844 0.28756 0.20300
H 	H 	0.95146 0.52232 0.34569 0.15500
H 	H 	0.95435 0.47720 0.34969 0.18300
H 	H 	0.94948 0.50009 0.41082 0.18200
