data_crystal

_cell_length_a 30.98800
_cell_length_b 30.98800
_cell_length_c 45.96400
_cell_angle_alpha 90.00000
_cell_angle_beta  90.00000
_cell_angle_gamma 90.00000

_symmetry_space_group_name_	'P 1'
_symmetry_space_group_name_H-M	'P 1'

loop_
_symmetry_equiv_pos_as_xyz
  x,y,z

loop_
_atom_site_label
_atom_site_type_symbol
_atom_site_fract_x
_atom_site_fract_y
_atom_site_fract_z
_atom_site_charge
Cu	Cu	0.10332 0.14538 0.12778 0.90700
Cu	Cu	0.13894 0.19599 0.16779 0.90500
O 	O 	0.15906 0.14730 0.10845 -0.40200
O 	O 	0.18719 0.19421 0.14058 -0.40700
O 	O 	0.24648 0.08813 0.03016 -0.40800
O 	O 	0.31779 0.10223 0.02948 -0.39900
O 	O 	0.40001 0.37460 0.34690 -0.40800
O 	O 	0.35778 0.34041 0.31462 -0.39700
O 	O 	0.55279 0.34822 0.34767 -0.40300
O 	O 	0.58455 0.31181 0.31090 -0.39700
O 	O 	0.08745 0.19918 0.10877 -0.40200
O 	O 	0.11060 0.24148 0.14523 -0.40700
O 	O 	0.99867 0.25901 0.03070 -0.40400
O 	O 	0.98518 0.33080 0.03066 -0.39700
O 	O 	0.35669 0.23904 0.19809 -0.21500
N 	N 	0.45523 0.27095 0.14472 -0.22700
H 	H 	0.47710 0.27740 0.13330 0.12400
C 	C 	0.18907 0.17057 0.11836 0.35100
C 	C 	0.23126 0.16876 0.10195 -0.07200
C 	C 	0.23515 0.14224 0.07797 0.02000
H 	H 	0.21070 0.12680 0.07110 0.05600
C 	C 	0.27403 0.13799 0.06395 -0.07300
C 	C 	0.31017 0.16140 0.07393 -0.02700
H 	H 	0.33720 0.15870 0.06430 0.05800
C 	C 	0.30599 0.18838 0.09783 0.01200
C 	C 	0.26689 0.19185 0.11150 -0.02700
H 	H 	0.26410 0.21040 0.12780 0.05900
C 	C 	0.27952 0.10653 0.03938 0.34900
C 	C 	0.34557 0.21197 0.10950 -0.00400
C 	C 	0.37835 0.22532 0.09182 -0.01200
H 	H 	0.37580 0.22130 0.07140 0.03800
C 	C 	0.41565 0.24487 0.10299 -0.12000
H 	H 	0.43790 0.25390 0.09020 0.07200
C 	C 	0.42014 0.25105 0.13289 0.12700
C 	C 	0.38467 0.23935 0.15127 -0.08000
C 	C 	0.34872 0.22019 0.13929 -0.02100
H 	H 	0.32540 0.21240 0.15160 0.05800
C 	C 	0.38593 0.24822 0.18195 0.18600
C 	C 	0.42584 0.26901 0.19304 -0.07600
C 	C 	0.45786 0.28108 0.17290 0.12700
C 	C 	0.49600 0.29986 0.18545 -0.11600
H 	H 	0.52000 0.30530 0.17310 0.07100
C 	C 	0.49926 0.30999 0.21355 -0.00900
H 	H 	0.52430 0.32430 0.22050 0.03800
C 	C 	0.46515 0.29945 0.23316 -0.00300
C 	C 	0.42978 0.27885 0.22226 -0.02400
H 	H 	0.40710 0.27100 0.23510 0.06000
C 	C 	0.46804 0.31264 0.26377 0.00700
C 	C 	0.50789 0.31451 0.27857 -0.02300
H 	H 	0.53350 0.30620 0.26870 0.05500
C 	C 	0.51060 0.32839 0.30744 -0.07600
C 	C 	0.47314 0.34091 0.32182 0.02100
H 	H 	0.47480 0.35120 0.34120 0.05500
C 	C 	0.43360 0.33845 0.30811 -0.07400
C 	C 	0.43087 0.32414 0.27951 -0.02200
H 	H 	0.40340 0.32210 0.27040 0.05700
C 	C 	0.55261 0.32945 0.32304 0.34500
C 	C 	0.39399 0.35175 0.32484 0.35300
C 	C 	0.09054 0.23469 0.12207 0.35100
C 	C 	0.04866 0.26760 0.08120 0.01600
H 	H 	0.05120 0.24090 0.07110 0.05700
C 	C 	0.02596 0.30146 0.06899 -0.06800
C 	C 	0.02206 0.34089 0.08415 -0.02900
H 	H 	0.00680 0.36430 0.07560 0.06100
C 	C 	0.04055 0.34559 0.11170 0.01300
C 	C 	0.06445 0.31141 0.12308 -0.02700
H 	H 	0.07870 0.31470 0.14130 0.05700
C 	C 	0.06769 0.27293 0.10825 -0.06900
C 	C 	0.00170 0.29587 0.04087 0.34700
C 	C 	0.03329 0.38621 0.12796 -0.00500
C 	C 	0.02300 0.42415 0.11311 -0.01700
H 	H 	0.02320 0.42410 0.09240 0.05600
C 	C 	0.01213 0.46304 0.12820 -0.09100
C 	C 	0.01079 0.46353 0.15828 0.14100
C 	C 	0.02047 0.42541 0.17323 -0.12300
H 	H 	0.01930 0.42500 0.19390 0.07400
C 	C 	0.03205 0.38715 0.15783 -0.01000
H 	H 	0.03910 0.36180 0.16840 0.03900
Cu	Cu	0.89668 0.85462 0.12778 0.90800
Cu	Cu	0.86106 0.80401 0.16779 0.90600
O 	O 	0.84094 0.85270 0.10845 -0.40100
O 	O 	0.81281 0.80579 0.14058 -0.40600
O 	O 	0.75352 0.91187 0.03016 -0.40800
O 	O 	0.68221 0.89777 0.02948 -0.39900
O 	O 	0.59999 0.62540 0.34690 -0.40800
O 	O 	0.64222 0.65959 0.31462 -0.39700
O 	O 	0.44721 0.65178 0.34767 -0.40300
O 	O 	0.41545 0.68819 0.31090 -0.39700
O 	O 	0.91255 0.80082 0.10877 -0.40200
O 	O 	0.88940 0.75852 0.14523 -0.40700
O 	O 	0.00133 0.74099 0.03070 -0.40000
O 	O 	0.01482 0.66920 0.03066 -0.39300
O 	O 	0.64331 0.76096 0.19809 -0.21500
N 	N 	0.54477 0.72905 0.14472 -0.22700
H 	H 	0.52290 0.72260 0.13330 0.12300
C 	C 	0.81093 0.82943 0.11836 0.35100
C 	C 	0.76874 0.83124 0.10195 -0.07200
C 	C 	0.76485 0.85776 0.07797 0.02100
H 	H 	0.78930 0.87320 0.07110 0.05500
C 	C 	0.72597 0.86201 0.06395 -0.07300
C 	C 	0.68983 0.83860 0.07393 -0.02700
H 	H 	0.66280 0.84130 0.06430 0.05800
C 	C 	0.69401 0.81162 0.09783 0.01100
C 	C 	0.73311 0.80815 0.11150 -0.02600
H 	H 	0.73590 0.78960 0.12780 0.05900
C 	C 	0.72048 0.89347 0.03938 0.34900
C 	C 	0.65443 0.78803 0.10950 -0.00400
C 	C 	0.62165 0.77468 0.09182 -0.01200
H 	H 	0.62420 0.77870 0.07140 0.03800
C 	C 	0.58435 0.75513 0.10299 -0.12000
H 	H 	0.56210 0.74610 0.09020 0.07200
C 	C 	0.57986 0.74895 0.13289 0.12700
C 	C 	0.61533 0.76065 0.15127 -0.08000
C 	C 	0.65128 0.77981 0.13929 -0.02100
H 	H 	0.67460 0.78760 0.15160 0.05800
C 	C 	0.61407 0.75178 0.18195 0.18600
C 	C 	0.57416 0.73099 0.19304 -0.07600
C 	C 	0.54214 0.71892 0.17290 0.12600
C 	C 	0.50400 0.70014 0.18545 -0.11600
H 	H 	0.48000 0.69470 0.17310 0.07100
C 	C 	0.50074 0.69001 0.21355 -0.00900
H 	H 	0.47570 0.67570 0.22050 0.03800
C 	C 	0.53485 0.70055 0.23316 -0.00300
C 	C 	0.57022 0.72115 0.22226 -0.02400
H 	H 	0.59290 0.72900 0.23510 0.05900
C 	C 	0.53196 0.68736 0.26377 0.00700
C 	C 	0.49211 0.68549 0.27857 -0.02300
H 	H 	0.46650 0.69380 0.26870 0.05500
C 	C 	0.48940 0.67161 0.30744 -0.07600
C 	C 	0.52686 0.65909 0.32182 0.02100
H 	H 	0.52520 0.64880 0.34120 0.05500
C 	C 	0.56640 0.66155 0.30811 -0.07400
C 	C 	0.56913 0.67586 0.27951 -0.02200
H 	H 	0.59660 0.67790 0.27040 0.05700
C 	C 	0.44739 0.67055 0.32304 0.34500
C 	C 	0.60601 0.64825 0.32484 0.35300
C 	C 	0.90946 0.76531 0.12207 0.35100
C 	C 	0.95134 0.73240 0.08120 0.01500
H 	H 	0.94880 0.75910 0.07110 0.05700
C 	C 	0.97404 0.69854 0.06899 -0.06600
C 	C 	0.97794 0.65911 0.08415 -0.03000
H 	H 	0.99320 0.63570 0.07560 0.06100
C 	C 	0.95945 0.65441 0.11170 0.01400
C 	C 	0.93555 0.68859 0.12308 -0.02800
H 	H 	0.92130 0.68530 0.14130 0.05700
C 	C 	0.93231 0.72707 0.10825 -0.06800
C 	C 	0.99830 0.70413 0.04087 0.33900
C 	C 	0.96671 0.61379 0.12796 -0.00600
C 	C 	0.97700 0.57585 0.11311 -0.01600
H 	H 	0.97680 0.57590 0.09240 0.05500
C 	C 	0.98787 0.53696 0.12820 -0.09200
C 	C 	0.98921 0.53647 0.15828 0.14000
C 	C 	0.97953 0.57459 0.17323 -0.12300
H 	H 	0.98070 0.57500 0.19390 0.07300
C 	C 	0.96795 0.61285 0.15783 -0.01000
H 	H 	0.96090 0.63820 0.16840 0.03900
Cu	Cu	0.85462 0.10332 0.12778 0.90800
Cu	Cu	0.80401 0.13894 0.16779 0.90600
O 	O 	0.85270 0.15906 0.10845 -0.40100
O 	O 	0.80579 0.18719 0.14058 -0.40600
O 	O 	0.91187 0.24648 0.03016 -0.40800
O 	O 	0.89777 0.31779 0.02948 -0.39900
O 	O 	0.62540 0.40001 0.34690 -0.40800
O 	O 	0.65959 0.35778 0.31462 -0.39700
O 	O 	0.65178 0.55279 0.34767 -0.40300
O 	O 	0.68819 0.58455 0.31090 -0.39700
O 	O 	0.80082 0.08745 0.10877 -0.40200
O 	O 	0.75852 0.11060 0.14523 -0.40700
O 	O 	0.74099 0.99867 0.03070 -0.40500
O 	O 	0.66920 0.98518 0.03066 -0.39700
O 	O 	0.76096 0.35669 0.19809 -0.21500
N 	N 	0.72905 0.45523 0.14472 -0.22700
H 	H 	0.72260 0.47710 0.13330 0.12300
C 	C 	0.82943 0.18907 0.11836 0.35100
C 	C 	0.83124 0.23126 0.10195 -0.07200
C 	C 	0.85776 0.23515 0.07797 0.02100
H 	H 	0.87320 0.21070 0.07110 0.05600
C 	C 	0.86201 0.27403 0.06395 -0.07300
C 	C 	0.83860 0.31017 0.07393 -0.02700
H 	H 	0.84130 0.33720 0.06430 0.05800
C 	C 	0.81162 0.30599 0.09783 0.01100
C 	C 	0.80815 0.26689 0.11150 -0.02700
H 	H 	0.78960 0.26410 0.12780 0.05900
C 	C 	0.89347 0.27952 0.03938 0.34900
C 	C 	0.78803 0.34557 0.10950 -0.00400
C 	C 	0.77468 0.37835 0.09182 -0.01200
H 	H 	0.77870 0.37580 0.07140 0.03800
C 	C 	0.75513 0.41565 0.10299 -0.12000
H 	H 	0.74610 0.43790 0.09020 0.07200
C 	C 	0.74895 0.42014 0.13289 0.12700
C 	C 	0.76065 0.38467 0.15127 -0.08000
C 	C 	0.77981 0.34872 0.13929 -0.02100
H 	H 	0.78760 0.32540 0.15160 0.05800
C 	C 	0.75178 0.38593 0.18195 0.18600
C 	C 	0.73099 0.42584 0.19304 -0.07600
C 	C 	0.71892 0.45786 0.17290 0.12600
C 	C 	0.70014 0.49600 0.18545 -0.11600
H 	H 	0.69470 0.52000 0.17310 0.07100
C 	C 	0.69001 0.49926 0.21355 -0.00900
H 	H 	0.67570 0.52430 0.22050 0.03800
C 	C 	0.70055 0.46515 0.23316 -0.00300
C 	C 	0.72115 0.42978 0.22226 -0.02400
H 	H 	0.72900 0.40710 0.23510 0.05900
C 	C 	0.68736 0.46804 0.26377 0.00700
C 	C 	0.68549 0.50789 0.27857 -0.02300
H 	H 	0.69380 0.53350 0.26870 0.05500
C 	C 	0.67161 0.51060 0.30744 -0.07600
C 	C 	0.65909 0.47314 0.32182 0.02100
H 	H 	0.64880 0.47480 0.34120 0.05500
C 	C 	0.66155 0.43360 0.30811 -0.07400
C 	C 	0.67586 0.43087 0.27951 -0.02200
H 	H 	0.67790 0.40340 0.27040 0.05700
C 	C 	0.67055 0.55261 0.32304 0.34500
C 	C 	0.64825 0.39399 0.32484 0.35300
C 	C 	0.76531 0.09054 0.12207 0.35100
C 	C 	0.73240 0.04866 0.08120 0.01600
H 	H 	0.75910 0.05120 0.07110 0.05700
C 	C 	0.69854 0.02596 0.06899 -0.06800
C 	C 	0.65911 0.02206 0.08415 -0.02900
H 	H 	0.63570 0.00680 0.07560 0.06100
C 	C 	0.65441 0.04055 0.11170 0.01300
C 	C 	0.68859 0.06445 0.12308 -0.02700
H 	H 	0.68530 0.07870 0.14130 0.05700
C 	C 	0.72707 0.06769 0.10825 -0.06900
C 	C 	0.70413 0.00170 0.04087 0.34700
C 	C 	0.61379 0.03329 0.12796 -0.00500
C 	C 	0.57585 0.02300 0.11311 -0.01700
H 	H 	0.57590 0.02320 0.09240 0.05600
C 	C 	0.53696 0.01213 0.12820 -0.09100
C 	C 	0.53647 0.01079 0.15828 0.14100
C 	C 	0.57459 0.02047 0.17323 -0.12300
H 	H 	0.57500 0.01930 0.19390 0.07400
C 	C 	0.61285 0.03205 0.15783 -0.01000
H 	H 	0.63820 0.03910 0.16840 0.03900
Cu	Cu	0.14538 0.89668 0.12778 0.90800
Cu	Cu	0.19599 0.86106 0.16779 0.90600
O 	O 	0.14730 0.84094 0.10845 -0.40100
O 	O 	0.19421 0.81281 0.14058 -0.40600
O 	O 	0.08813 0.75352 0.03016 -0.40800
O 	O 	0.10223 0.68221 0.02948 -0.39900
O 	O 	0.37460 0.59999 0.34690 -0.40800
O 	O 	0.34041 0.64222 0.31462 -0.39700
O 	O 	0.34822 0.44721 0.34767 -0.40300
O 	O 	0.31181 0.41545 0.31090 -0.39700
O 	O 	0.19918 0.91255 0.10877 -0.40200
O 	O 	0.24148 0.88940 0.14523 -0.40700
O 	O 	0.25901 0.00133 0.03070 -0.40000
O 	O 	0.33080 0.01482 0.03066 -0.39300
O 	O 	0.23904 0.64331 0.19809 -0.21500
N 	N 	0.27095 0.54477 0.14472 -0.22700
H 	H 	0.27740 0.52290 0.13330 0.12400
C 	C 	0.17057 0.81093 0.11836 0.35100
C 	C 	0.16876 0.76874 0.10195 -0.07200
C 	C 	0.14224 0.76485 0.07797 0.02100
H 	H 	0.12680 0.78930 0.07110 0.05600
C 	C 	0.13799 0.72597 0.06395 -0.07300
C 	C 	0.16140 0.68983 0.07393 -0.02700
H 	H 	0.15870 0.66280 0.06430 0.05800
C 	C 	0.18838 0.69401 0.09783 0.01200
C 	C 	0.19185 0.73311 0.11150 -0.02600
H 	H 	0.21040 0.73590 0.12780 0.05900
C 	C 	0.10653 0.72048 0.03938 0.34900
C 	C 	0.21197 0.65443 0.10950 -0.00400
C 	C 	0.22532 0.62165 0.09182 -0.01200
H 	H 	0.22130 0.62420 0.07140 0.03800
C 	C 	0.24487 0.58435 0.10299 -0.12000
H 	H 	0.25390 0.56210 0.09020 0.07200
C 	C 	0.25105 0.57986 0.13289 0.12700
C 	C 	0.23935 0.61533 0.15127 -0.08000
C 	C 	0.22019 0.65128 0.13929 -0.02100
H 	H 	0.21240 0.67460 0.15160 0.05800
C 	C 	0.24822 0.61407 0.18195 0.18600
C 	C 	0.26901 0.57416 0.19304 -0.07600
C 	C 	0.28108 0.54214 0.17290 0.12700
C 	C 	0.29986 0.50400 0.18545 -0.11600
H 	H 	0.30530 0.48000 0.17310 0.07100
C 	C 	0.30999 0.50074 0.21355 -0.00900
H 	H 	0.32430 0.47570 0.22050 0.03800
C 	C 	0.29945 0.53485 0.23316 -0.00300
C 	C 	0.27885 0.57022 0.22226 -0.02400
H 	H 	0.27100 0.59290 0.23510 0.06000
C 	C 	0.31264 0.53196 0.26377 0.00700
C 	C 	0.31451 0.49211 0.27857 -0.02300
H 	H 	0.30620 0.46650 0.26870 0.05500
C 	C 	0.32839 0.48940 0.30744 -0.07600
C 	C 	0.34091 0.52686 0.32182 0.02100
H 	H 	0.35120 0.52520 0.34120 0.05500
C 	C 	0.33845 0.56640 0.30811 -0.07400
C 	C 	0.32414 0.56913 0.27951 -0.02200
H 	H 	0.32210 0.59660 0.27040 0.05700
C 	C 	0.32945 0.44739 0.32304 0.34500
C 	C 	0.35175 0.60601 0.32484 0.35300
C 	C 	0.23469 0.90946 0.12207 0.35100
C 	C 	0.26760 0.95134 0.08120 0.01500
H 	H 	0.24090 0.94880 0.07110 0.05700
C 	C 	0.30146 0.97404 0.06899 -0.06600
C 	C 	0.34089 0.97794 0.08415 -0.03000
H 	H 	0.36430 0.99320 0.07560 0.06100
C 	C 	0.34559 0.95945 0.11170 0.01400
C 	C 	0.31141 0.93555 0.12308 -0.02800
H 	H 	0.31470 0.92130 0.14130 0.05700
C 	C 	0.27293 0.93231 0.10825 -0.06800
C 	C 	0.29587 0.99830 0.04087 0.33900
C 	C 	0.38621 0.96671 0.12796 -0.00600
C 	C 	0.42415 0.97700 0.11311 -0.01600
H 	H 	0.42410 0.97680 0.09240 0.05500
C 	C 	0.46304 0.98787 0.12820 -0.09200
C 	C 	0.46353 0.98921 0.15828 0.14000
C 	C 	0.42541 0.97953 0.17323 -0.12300
H 	H 	0.42500 0.98070 0.19390 0.07300
C 	C 	0.38715 0.96795 0.15783 -0.01000
H 	H 	0.36180 0.96090 0.16840 0.03900
Cu	Cu	0.39668 0.64538 0.37222 0.90800
Cu	Cu	0.36106 0.69599 0.33221 0.90600
O 	O 	0.34094 0.64730 0.39155 -0.40100
O 	O 	0.31281 0.69421 0.35942 -0.40600
O 	O 	0.25352 0.58813 0.46984 -0.40700
O 	O 	0.18221 0.60223 0.47052 -0.39800
O 	O 	0.09999 0.87460 0.15310 -0.40800
O 	O 	0.14222 0.84041 0.18538 -0.39700
O 	O 	0.94721 0.84822 0.15233 -0.40400
O 	O 	0.91545 0.81181 0.18910 -0.39700
O 	O 	0.41255 0.69918 0.39123 -0.40200
O 	O 	0.38940 0.74148 0.35477 -0.40700
O 	O 	0.50133 0.75901 0.46930 -0.40200
O 	O 	0.51482 0.83080 0.46934 -0.39500
O 	O 	0.14331 0.73904 0.30191 -0.21500
N 	N 	0.04477 0.77095 0.35528 -0.22700
H 	H 	0.02290 0.77740 0.36670 0.12400
C 	C 	0.31093 0.67057 0.38164 0.35100
C 	C 	0.26874 0.66876 0.39805 -0.07100
C 	C 	0.26485 0.64224 0.42203 0.02000
H 	H 	0.28930 0.62680 0.42890 0.05600
C 	C 	0.22597 0.63799 0.43605 -0.07300
C 	C 	0.18983 0.66140 0.42607 -0.02700
H 	H 	0.16280 0.65870 0.43570 0.05800
C 	C 	0.19401 0.68838 0.40217 0.01200
C 	C 	0.23311 0.69185 0.38850 -0.02700
H 	H 	0.23590 0.71040 0.37220 0.05900
C 	C 	0.22048 0.60653 0.46062 0.34900
C 	C 	0.15443 0.71197 0.39050 -0.00400
C 	C 	0.12165 0.72532 0.40818 -0.01200
H 	H 	0.12420 0.72130 0.42860 0.03900
C 	C 	0.08435 0.74487 0.39701 -0.12000
H 	H 	0.06210 0.75390 0.40980 0.07300
C 	C 	0.07986 0.75105 0.36711 0.12800
C 	C 	0.11533 0.73935 0.34873 -0.08000
C 	C 	0.15128 0.72019 0.36071 -0.02000
H 	H 	0.17460 0.71240 0.34840 0.05800
C 	C 	0.11407 0.74822 0.31805 0.18600
C 	C 	0.07416 0.76901 0.30696 -0.07700
C 	C 	0.04214 0.78108 0.32710 0.12700
C 	C 	0.00400 0.79986 0.31455 -0.11500
H 	H 	0.98000 0.80530 0.32690 0.06900
C 	C 	0.00074 0.80999 0.28645 -0.00700
H 	H 	0.97570 0.82430 0.27950 0.03600
C 	C 	0.03485 0.79945 0.26684 -0.00400
C 	C 	0.07022 0.77885 0.27774 -0.02300
H 	H 	0.09290 0.77100 0.26490 0.05900
C 	C 	0.03196 0.81264 0.23623 0.00900
C 	C 	0.99211 0.81451 0.22143 -0.02400
H 	H 	0.96650 0.80620 0.23130 0.05600
C 	C 	0.98940 0.82839 0.19256 -0.07700
C 	C 	0.02686 0.84091 0.17818 0.02300
H 	H 	0.02520 0.85120 0.15880 0.05500
C 	C 	0.06640 0.83845 0.19189 -0.07400
C 	C 	0.06913 0.82414 0.22049 -0.02300
H 	H 	0.09660 0.82210 0.22960 0.05800
C 	C 	0.94739 0.82945 0.17696 0.34500
C 	C 	0.10601 0.85175 0.17516 0.35300
C 	C 	0.40946 0.73469 0.37793 0.35100
C 	C 	0.45134 0.76760 0.41880 0.01500
H 	H 	0.44880 0.74090 0.42890 0.05700
C 	C 	0.47404 0.80146 0.43101 -0.06600
C 	C 	0.47794 0.84089 0.41585 -0.03000
H 	H 	0.49320 0.86430 0.42440 0.06100
C 	C 	0.45945 0.84559 0.38830 0.01400
C 	C 	0.43555 0.81141 0.37692 -0.02800
H 	H 	0.42130 0.81470 0.35870 0.05700
C 	C 	0.43231 0.77293 0.39175 -0.06800
C 	C 	0.49830 0.79587 0.45913 0.34300
C 	C 	0.46671 0.88621 0.37204 -0.00600
C 	C 	0.47700 0.92415 0.38689 -0.01700
H 	H 	0.47680 0.92410 0.40760 0.05600
C 	C 	0.48787 0.96304 0.37180 -0.09200
C 	C 	0.48921 0.96353 0.34172 0.13900
C 	C 	0.47953 0.92541 0.32677 -0.12300
H 	H 	0.48070 0.92500 0.30610 0.07300
C 	C 	0.46795 0.88715 0.34217 -0.01000
H 	H 	0.46090 0.86180 0.33160 0.03900
Cu	Cu	0.60332 0.35462 0.37222 0.90800
Cu	Cu	0.63894 0.30401 0.33221 0.90600
O 	O 	0.65906 0.35270 0.39155 -0.40100
O 	O 	0.68719 0.30579 0.35942 -0.40600
O 	O 	0.74648 0.41187 0.46984 -0.40700
O 	O 	0.81779 0.39777 0.47052 -0.39800
O 	O 	0.90001 0.12540 0.15310 -0.40800
O 	O 	0.85778 0.15959 0.18538 -0.39700
O 	O 	0.05279 0.15178 0.15233 -0.40300
O 	O 	0.08455 0.18819 0.18910 -0.39700
O 	O 	0.58745 0.30082 0.39123 -0.40100
O 	O 	0.61060 0.25852 0.35477 -0.40700
O 	O 	0.49867 0.24099 0.46930 -0.40200
O 	O 	0.48518 0.16920 0.46934 -0.39400
O 	O 	0.85669 0.26096 0.30191 -0.21500
N 	N 	0.95523 0.22905 0.35528 -0.22700
H 	H 	0.97710 0.22260 0.36670 0.12300
C 	C 	0.68907 0.32943 0.38164 0.35100
C 	C 	0.73126 0.33124 0.39805 -0.07100
C 	C 	0.73515 0.35776 0.42203 0.02000
H 	H 	0.71070 0.37320 0.42890 0.05600
C 	C 	0.77403 0.36201 0.43605 -0.07300
C 	C 	0.81017 0.33860 0.42607 -0.02700
H 	H 	0.83720 0.34130 0.43570 0.05800
C 	C 	0.80599 0.31162 0.40217 0.01200
C 	C 	0.76689 0.30815 0.38850 -0.02700
H 	H 	0.76410 0.28960 0.37220 0.05900
C 	C 	0.77952 0.39347 0.46062 0.34900
C 	C 	0.84557 0.28803 0.39050 -0.00400
C 	C 	0.87835 0.27468 0.40818 -0.01200
H 	H 	0.87580 0.27870 0.42860 0.03900
C 	C 	0.91565 0.25513 0.39701 -0.12000
H 	H 	0.93790 0.24610 0.40980 0.07200
C 	C 	0.92014 0.24895 0.36711 0.12700
C 	C 	0.88467 0.26065 0.34873 -0.08000
C 	C 	0.84872 0.27981 0.36071 -0.02100
H 	H 	0.82540 0.28760 0.34840 0.05800
C 	C 	0.88593 0.25178 0.31805 0.18600
C 	C 	0.92584 0.23099 0.30696 -0.07600
C 	C 	0.95786 0.21892 0.32710 0.12700
C 	C 	0.99600 0.20014 0.31455 -0.11700
H 	H 	0.02000 0.19470 0.32690 0.07200
C 	C 	0.99926 0.19001 0.28645 -0.01100
H 	H 	0.02430 0.17570 0.27950 0.03900
C 	C 	0.96515 0.20055 0.26684 -0.00100
C 	C 	0.92978 0.22115 0.27774 -0.02500
H 	H 	0.90710 0.22900 0.26490 0.06000
C 	C 	0.96804 0.18736 0.23623 0.00500
C 	C 	0.00789 0.18549 0.22143 -0.02100
H 	H 	0.03350 0.19380 0.23130 0.05500
C 	C 	0.01060 0.17161 0.19256 -0.07500
C 	C 	0.97314 0.15909 0.17818 0.01900
H 	H 	0.97480 0.14880 0.15880 0.05600
C 	C 	0.93360 0.16155 0.19189 -0.07400
C 	C 	0.93087 0.17586 0.22049 -0.02200
H 	H 	0.90340 0.17790 0.22960 0.05700
C 	C 	0.05261 0.17055 0.17696 0.34400
C 	C 	0.89399 0.14825 0.17516 0.35300
C 	C 	0.59054 0.26531 0.37793 0.35100
C 	C 	0.54866 0.23240 0.41880 0.01500
H 	H 	0.55120 0.25910 0.42890 0.05700
C 	C 	0.52596 0.19854 0.43101 -0.06600
C 	C 	0.52206 0.15911 0.41585 -0.03000
H 	H 	0.50680 0.13570 0.42440 0.06100
C 	C 	0.54055 0.15441 0.38830 0.01400
C 	C 	0.56445 0.18859 0.37692 -0.02800
H 	H 	0.57870 0.18530 0.35870 0.05700
C 	C 	0.56769 0.22707 0.39175 -0.06800
C 	C 	0.50170 0.20413 0.45913 0.34300
C 	C 	0.53329 0.11379 0.37204 -0.00600
C 	C 	0.52300 0.07585 0.38689 -0.01700
H 	H 	0.52320 0.07590 0.40760 0.05600
C 	C 	0.51213 0.03696 0.37180 -0.09000
C 	C 	0.51079 0.03647 0.34172 0.14100
C 	C 	0.52047 0.07459 0.32677 -0.12300
H 	H 	0.51930 0.07500 0.30610 0.07300
C 	C 	0.53205 0.11285 0.34217 -0.01000
H 	H 	0.53910 0.13820 0.33160 0.03900
Cu	Cu	0.64538 0.60332 0.37222 0.90800
Cu	Cu	0.69599 0.63894 0.33221 0.90600
O 	O 	0.64730 0.65906 0.39155 -0.40100
O 	O 	0.69421 0.68719 0.35942 -0.40600
O 	O 	0.58813 0.74648 0.46984 -0.40700
O 	O 	0.60223 0.81779 0.47052 -0.39800
O 	O 	0.87460 0.90001 0.15310 -0.40900
O 	O 	0.84041 0.85778 0.18538 -0.39700
O 	O 	0.84822 0.05279 0.15233 -0.40300
O 	O 	0.81181 0.08455 0.18910 -0.39700
O 	O 	0.69918 0.58745 0.39123 -0.40200
O 	O 	0.74148 0.61060 0.35477 -0.40700
O 	O 	0.75901 0.49867 0.46930 -0.40200
O 	O 	0.83080 0.48518 0.46934 -0.39500
O 	O 	0.73904 0.85669 0.30191 -0.21500
N 	N 	0.77095 0.95523 0.35528 -0.22700
H 	H 	0.77740 0.97710 0.36670 0.12300
C 	C 	0.67057 0.68907 0.38164 0.35100
C 	C 	0.66876 0.73126 0.39805 -0.07200
C 	C 	0.64224 0.73515 0.42203 0.02000
H 	H 	0.62680 0.71070 0.42890 0.05600
C 	C 	0.63799 0.77403 0.43605 -0.07300
C 	C 	0.66140 0.81017 0.42607 -0.02700
H 	H 	0.65870 0.83720 0.43570 0.05800
C 	C 	0.68838 0.80599 0.40217 0.01200
C 	C 	0.69185 0.76689 0.38850 -0.02700
H 	H 	0.71040 0.76410 0.37220 0.05900
C 	C 	0.60653 0.77952 0.46062 0.34900
C 	C 	0.71197 0.84557 0.39050 -0.00400
C 	C 	0.72532 0.87835 0.40818 -0.01200
H 	H 	0.72130 0.87580 0.42860 0.03800
C 	C 	0.74487 0.91565 0.39701 -0.12000
H 	H 	0.75390 0.93790 0.40980 0.07200
C 	C 	0.75105 0.92014 0.36711 0.12700
C 	C 	0.73935 0.88467 0.34873 -0.08000
C 	C 	0.72019 0.84872 0.36071 -0.02100
H 	H 	0.71240 0.82540 0.34840 0.05800
C 	C 	0.74822 0.88593 0.31805 0.18600
C 	C 	0.76901 0.92584 0.30696 -0.07600
C 	C 	0.78108 0.95786 0.32710 0.12700
C 	C 	0.79986 0.99600 0.31455 -0.11800
H 	H 	0.80530 0.02000 0.32690 0.07200
C 	C 	0.80999 0.99926 0.28645 -0.01100
H 	H 	0.82430 0.02430 0.27950 0.03900
C 	C 	0.79945 0.96515 0.26684 -0.00100
C 	C 	0.77885 0.92978 0.27774 -0.02500
H 	H 	0.77100 0.90710 0.26490 0.06000
C 	C 	0.81264 0.96804 0.23623 0.00500
C 	C 	0.81451 0.00789 0.22143 -0.02100
H 	H 	0.80620 0.03350 0.23130 0.05500
C 	C 	0.82839 0.01060 0.19256 -0.07500
C 	C 	0.84091 0.97314 0.17818 0.01900
H 	H 	0.85120 0.97480 0.15880 0.05500
C 	C 	0.83845 0.93360 0.19189 -0.07400
C 	C 	0.82414 0.93087 0.22049 -0.02200
H 	H 	0.82210 0.90340 0.22960 0.05700
C 	C 	0.82945 0.05261 0.17696 0.34500
C 	C 	0.85175 0.89399 0.17516 0.35300
C 	C 	0.73469 0.59054 0.37793 0.35100
C 	C 	0.76760 0.54866 0.41880 0.01500
H 	H 	0.74090 0.55120 0.42890 0.05700
C 	C 	0.80146 0.52596 0.43101 -0.06600
C 	C 	0.84089 0.52206 0.41585 -0.03000
H 	H 	0.86430 0.50680 0.42440 0.06100
C 	C 	0.84559 0.54055 0.38830 0.01400
C 	C 	0.81141 0.56445 0.37692 -0.02800
H 	H 	0.81470 0.57870 0.35870 0.05700
C 	C 	0.77293 0.56769 0.39175 -0.06800
C 	C 	0.79587 0.50170 0.45913 0.34300
C 	C 	0.88621 0.53329 0.37204 -0.00600
C 	C 	0.92415 0.52300 0.38689 -0.01700
H 	H 	0.92410 0.52320 0.40760 0.05600
C 	C 	0.96304 0.51213 0.37180 -0.09200
C 	C 	0.96353 0.51079 0.34172 0.13900
C 	C 	0.92541 0.52047 0.32677 -0.12300
H 	H 	0.92500 0.51930 0.30610 0.07300
C 	C 	0.88715 0.53205 0.34217 -0.01000
H 	H 	0.86180 0.53910 0.33160 0.03900
Cu	Cu	0.35462 0.39668 0.37222 0.90800
Cu	Cu	0.30401 0.36106 0.33221 0.90600
O 	O 	0.35270 0.34094 0.39155 -0.40100
O 	O 	0.30579 0.31281 0.35942 -0.40600
O 	O 	0.41187 0.25352 0.46984 -0.40700
O 	O 	0.39777 0.18221 0.47052 -0.39800
O 	O 	0.12540 0.09999 0.15310 -0.40800
O 	O 	0.15959 0.14222 0.18538 -0.39700
O 	O 	0.15178 0.94721 0.15233 -0.40300
O 	O 	0.18819 0.91545 0.18910 -0.39700
O 	O 	0.30082 0.41255 0.39123 -0.40100
O 	O 	0.25852 0.38940 0.35477 -0.40700
O 	O 	0.24099 0.50133 0.46930 -0.40200
O 	O 	0.16920 0.51482 0.46934 -0.39400
O 	O 	0.26096 0.14331 0.30191 -0.21500
N 	N 	0.22905 0.04477 0.35528 -0.22700
H 	H 	0.22260 0.02290 0.36670 0.12400
C 	C 	0.32943 0.31093 0.38164 0.35100
C 	C 	0.33124 0.26874 0.39805 -0.07100
C 	C 	0.35776 0.26485 0.42203 0.02000
H 	H 	0.37320 0.28930 0.42890 0.05600
C 	C 	0.36201 0.22597 0.43605 -0.07300
C 	C 	0.33860 0.18983 0.42607 -0.02700
H 	H 	0.34130 0.16280 0.43570 0.05800
C 	C 	0.31162 0.19401 0.40217 0.01200
C 	C 	0.30815 0.23311 0.38850 -0.02700
H 	H 	0.28960 0.23590 0.37220 0.05900
C 	C 	0.39347 0.22048 0.46062 0.34900
C 	C 	0.28803 0.15443 0.39050 -0.00400
C 	C 	0.27468 0.12165 0.40818 -0.01100
H 	H 	0.27870 0.12420 0.42860 0.03900
C 	C 	0.25513 0.08435 0.39701 -0.12000
H 	H 	0.24610 0.06210 0.40980 0.07300
C 	C 	0.24895 0.07986 0.36711 0.12800
C 	C 	0.26065 0.11533 0.34873 -0.08000
C 	C 	0.27981 0.15128 0.36071 -0.02000
H 	H 	0.28760 0.17460 0.34840 0.05800
C 	C 	0.25178 0.11407 0.31805 0.18600
C 	C 	0.23099 0.07416 0.30696 -0.07700
C 	C 	0.21892 0.04214 0.32710 0.12700
C 	C 	0.20014 0.00400 0.31455 -0.11500
H 	H 	0.19470 0.98000 0.32690 0.06900
C 	C 	0.19001 0.00074 0.28645 -0.00600
H 	H 	0.17570 0.97570 0.27950 0.03600
C 	C 	0.20055 0.03485 0.26684 -0.00400
C 	C 	0.22115 0.07022 0.27774 -0.02300
H 	H 	0.22900 0.09290 0.26490 0.05900
C 	C 	0.18736 0.03196 0.23623 0.00900
C 	C 	0.18549 0.99211 0.22143 -0.02400
H 	H 	0.19380 0.96650 0.23130 0.05600
C 	C 	0.17161 0.98940 0.19256 -0.07700
C 	C 	0.15909 0.02686 0.17818 0.02300
H 	H 	0.14880 0.02520 0.15880 0.05500
C 	C 	0.16155 0.06640 0.19189 -0.07400
C 	C 	0.17586 0.06913 0.22049 -0.02300
H 	H 	0.17790 0.09660 0.22960 0.05800
C 	C 	0.17055 0.94739 0.17696 0.34500
C 	C 	0.14825 0.10601 0.17516 0.35300
C 	C 	0.26531 0.40946 0.37793 0.35100
C 	C 	0.23240 0.45134 0.41880 0.01500
H 	H 	0.25910 0.44880 0.42890 0.05700
C 	C 	0.19854 0.47404 0.43101 -0.06600
C 	C 	0.15911 0.47794 0.41585 -0.03000
H 	H 	0.13570 0.49320 0.42440 0.06100
C 	C 	0.15441 0.45945 0.38830 0.01400
C 	C 	0.18859 0.43555 0.37692 -0.02800
H 	H 	0.18530 0.42130 0.35870 0.05700
C 	C 	0.22707 0.43231 0.39175 -0.06800
C 	C 	0.20413 0.49830 0.45913 0.34300
C 	C 	0.11379 0.46671 0.37204 -0.00600
C 	C 	0.07585 0.47700 0.38689 -0.01700
H 	H 	0.07590 0.47680 0.40760 0.05600
C 	C 	0.03696 0.48787 0.37180 -0.09000
C 	C 	0.03647 0.48921 0.34172 0.14100
C 	C 	0.07459 0.47953 0.32677 -0.12300
H 	H 	0.07500 0.48070 0.30610 0.07300
C 	C 	0.11285 0.46795 0.34217 -0.01000
H 	H 	0.13820 0.46090 0.33160 0.03900
Cu	Cu	0.89668 0.85462 0.87222 0.90800
Cu	Cu	0.86106 0.80401 0.83221 0.90600
O 	O 	0.84094 0.85270 0.89155 -0.40100
O 	O 	0.81281 0.80579 0.85942 -0.40600
O 	O 	0.75352 0.91187 0.96984 -0.40600
O 	O 	0.68221 0.89777 0.97052 -0.39600
O 	O 	0.59999 0.62540 0.65310 -0.40800
O 	O 	0.64222 0.65959 0.68538 -0.39700
O 	O 	0.44721 0.65178 0.65233 -0.40300
O 	O 	0.41545 0.68819 0.68910 -0.39700
O 	O 	0.91255 0.80082 0.89123 -0.40100
O 	O 	0.88940 0.75852 0.85477 -0.40700
O 	O 	0.00133 0.74099 0.96930 -0.39800
O 	O 	0.01482 0.66920 0.96934 -0.39100
O 	O 	0.64331 0.76096 0.80191 -0.21500
N 	N 	0.54477 0.72905 0.85528 -0.22700
H 	H 	0.52290 0.72260 0.86670 0.12400
C 	C 	0.81093 0.82943 0.88164 0.35100
C 	C 	0.76874 0.83124 0.89805 -0.07100
C 	C 	0.76485 0.85776 0.92203 0.02000
H 	H 	0.78930 0.87320 0.92890 0.05600
C 	C 	0.72597 0.86201 0.93605 -0.07200
C 	C 	0.68983 0.83860 0.92607 -0.02700
H 	H 	0.66280 0.84130 0.93570 0.05900
C 	C 	0.69401 0.81162 0.90217 0.01200
C 	C 	0.73311 0.80815 0.88850 -0.02700
H 	H 	0.73590 0.78960 0.87220 0.05900
C 	C 	0.72048 0.89347 0.96062 0.34800
C 	C 	0.65443 0.78803 0.89050 -0.00400
C 	C 	0.62165 0.77468 0.90818 -0.01100
H 	H 	0.62420 0.77870 0.92860 0.03900
C 	C 	0.58435 0.75513 0.89701 -0.12000
H 	H 	0.56210 0.74610 0.90980 0.07300
C 	C 	0.57986 0.74895 0.86711 0.12800
C 	C 	0.61533 0.76065 0.84873 -0.08000
C 	C 	0.65128 0.77981 0.86071 -0.02000
H 	H 	0.67460 0.78760 0.84840 0.05800
C 	C 	0.61407 0.75178 0.81805 0.18600
C 	C 	0.57416 0.73099 0.80696 -0.07700
C 	C 	0.54214 0.71892 0.82710 0.12700
C 	C 	0.50400 0.70014 0.81455 -0.11600
H 	H 	0.48000 0.69470 0.82690 0.07100
C 	C 	0.50074 0.69001 0.78645 -0.00900
H 	H 	0.47570 0.67570 0.77950 0.03800
C 	C 	0.53485 0.70055 0.76684 -0.00300
C 	C 	0.57022 0.72115 0.77774 -0.02400
H 	H 	0.59290 0.72900 0.76490 0.05900
C 	C 	0.53196 0.68736 0.73623 0.00700
C 	C 	0.49211 0.68549 0.72143 -0.02300
H 	H 	0.46650 0.69380 0.73130 0.05500
C 	C 	0.48940 0.67161 0.69256 -0.07600
C 	C 	0.52686 0.65909 0.67818 0.02100
H 	H 	0.52520 0.64880 0.65880 0.05500
C 	C 	0.56640 0.66155 0.69189 -0.07400
C 	C 	0.56913 0.67586 0.72049 -0.02200
H 	H 	0.59660 0.67790 0.72960 0.05700
C 	C 	0.44739 0.67055 0.67696 0.34500
C 	C 	0.60601 0.64825 0.67516 0.35300
C 	C 	0.90946 0.76531 0.87793 0.35100
C 	C 	0.95134 0.73240 0.91880 0.01400
H 	H 	0.94880 0.75910 0.92890 0.05800
C 	C 	0.97404 0.69854 0.93101 -0.06500
C 	C 	0.97794 0.65911 0.91585 -0.03100
H 	H 	0.99320 0.63570 0.92440 0.06100
C 	C 	0.95945 0.65441 0.88830 0.01400
C 	C 	0.93555 0.68859 0.87692 -0.02800
H 	H 	0.92130 0.68530 0.85870 0.05700
C 	C 	0.93231 0.72707 0.89175 -0.06800
C 	C 	0.99830 0.70413 0.95913 0.33900
C 	C 	0.96671 0.61379 0.87204 -0.00600
C 	C 	0.97700 0.57585 0.88689 -0.01700
H 	H 	0.97680 0.57590 0.90760 0.05600
C 	C 	0.98787 0.53696 0.87180 -0.09200
C 	C 	0.98921 0.53647 0.84172 0.13900
C 	C 	0.97953 0.57459 0.82677 -0.12300
H 	H 	0.98070 0.57500 0.80610 0.07300
C 	C 	0.96795 0.61285 0.84217 -0.01000
H 	H 	0.96090 0.63820 0.83160 0.03900
Cu	Cu	0.10332 0.14538 0.87222 0.90800
Cu	Cu	0.13894 0.19599 0.83221 0.90600
O 	O 	0.15906 0.14730 0.89155 -0.40100
O 	O 	0.18719 0.19421 0.85942 -0.40600
O 	O 	0.24648 0.08813 0.96984 -0.40500
O 	O 	0.31779 0.10223 0.97052 -0.39600
O 	O 	0.40001 0.37460 0.65310 -0.40800
O 	O 	0.35778 0.34041 0.68538 -0.39700
O 	O 	0.55279 0.34822 0.65233 -0.40300
O 	O 	0.58455 0.31181 0.68910 -0.39700
O 	O 	0.08745 0.19918 0.89123 -0.40100
O 	O 	0.11060 0.24148 0.85477 -0.40700
O 	O 	0.99867 0.25901 0.96930 -0.40200
O 	O 	0.98518 0.33080 0.96934 -0.39500
O 	O 	0.35669 0.23904 0.80191 -0.21500
N 	N 	0.45523 0.27095 0.85528 -0.22700
H 	H 	0.47710 0.27740 0.86670 0.12400
C 	C 	0.18907 0.17057 0.88164 0.35100
C 	C 	0.23126 0.16876 0.89805 -0.07100
C 	C 	0.23515 0.14224 0.92203 0.02000
H 	H 	0.21070 0.12680 0.92890 0.05700
C 	C 	0.27403 0.13799 0.93605 -0.07200
C 	C 	0.31017 0.16140 0.92607 -0.02700
H 	H 	0.33720 0.15870 0.93570 0.05900
C 	C 	0.30599 0.18838 0.90217 0.01200
C 	C 	0.26689 0.19185 0.88850 -0.02700
H 	H 	0.26410 0.21040 0.87220 0.05900
C 	C 	0.27952 0.10653 0.96062 0.34800
C 	C 	0.34557 0.21197 0.89050 -0.00400
C 	C 	0.37835 0.22532 0.90818 -0.01100
H 	H 	0.37580 0.22130 0.92860 0.03900
C 	C 	0.41565 0.24487 0.89701 -0.12000
H 	H 	0.43790 0.25390 0.90980 0.07300
C 	C 	0.42014 0.25105 0.86711 0.12800
C 	C 	0.38467 0.23935 0.84873 -0.08000
C 	C 	0.34872 0.22019 0.86071 -0.02000
H 	H 	0.32540 0.21240 0.84840 0.05800
C 	C 	0.38593 0.24822 0.81805 0.18600
C 	C 	0.42584 0.26901 0.80696 -0.07600
C 	C 	0.45786 0.28108 0.82710 0.12700
C 	C 	0.49600 0.29986 0.81455 -0.11600
H 	H 	0.52000 0.30530 0.82690 0.07100
C 	C 	0.49926 0.30999 0.78645 -0.00900
H 	H 	0.52430 0.32430 0.77950 0.03800
C 	C 	0.46515 0.29945 0.76684 -0.00300
C 	C 	0.42978 0.27885 0.77774 -0.02400
H 	H 	0.40710 0.27100 0.76490 0.06000
C 	C 	0.46804 0.31264 0.73623 0.00700
C 	C 	0.50789 0.31451 0.72143 -0.02300
H 	H 	0.53350 0.30620 0.73130 0.05500
C 	C 	0.51060 0.32839 0.69256 -0.07600
C 	C 	0.47314 0.34091 0.67818 0.02100
H 	H 	0.47480 0.35120 0.65880 0.05500
C 	C 	0.43360 0.33845 0.69189 -0.07400
C 	C 	0.43087 0.32414 0.72049 -0.02200
H 	H 	0.40340 0.32210 0.72960 0.05700
C 	C 	0.55261 0.32945 0.67696 0.34500
C 	C 	0.39399 0.35175 0.67516 0.35300
C 	C 	0.09054 0.23469 0.87793 0.35100
C 	C 	0.04866 0.26760 0.91880 0.01600
H 	H 	0.05120 0.24090 0.92890 0.05800
C 	C 	0.02596 0.30146 0.93101 -0.06700
C 	C 	0.02206 0.34089 0.91585 -0.02900
H 	H 	0.00680 0.36430 0.92440 0.06200
C 	C 	0.04055 0.34559 0.88830 0.01400
C 	C 	0.06445 0.31141 0.87692 -0.02700
H 	H 	0.07870 0.31470 0.85870 0.05700
C 	C 	0.06769 0.27293 0.89175 -0.06800
C 	C 	0.00170 0.29587 0.95913 0.34600
C 	C 	0.03329 0.38621 0.87204 -0.00500
C 	C 	0.02300 0.42415 0.88689 -0.01700
H 	H 	0.02320 0.42410 0.90760 0.05700
C 	C 	0.01213 0.46304 0.87180 -0.09000
C 	C 	0.01079 0.46353 0.84172 0.14100
C 	C 	0.02047 0.42541 0.82677 -0.12300
H 	H 	0.01930 0.42500 0.80610 0.07300
C 	C 	0.03205 0.38715 0.84217 -0.01000
H 	H 	0.03910 0.36180 0.83160 0.03900
Cu	Cu	0.14538 0.89668 0.87222 0.90800
Cu	Cu	0.19599 0.86106 0.83221 0.90600
O 	O 	0.14730 0.84094 0.89155 -0.40100
O 	O 	0.19421 0.81281 0.85942 -0.40600
O 	O 	0.08813 0.75352 0.96984 -0.40600
O 	O 	0.10223 0.68221 0.97052 -0.39600
O 	O 	0.37460 0.59999 0.65310 -0.40800
O 	O 	0.34041 0.64222 0.68538 -0.39700
O 	O 	0.34822 0.44721 0.65233 -0.40300
O 	O 	0.31181 0.41545 0.68910 -0.39700
O 	O 	0.19918 0.91255 0.89123 -0.40100
O 	O 	0.24148 0.88940 0.85477 -0.40700
O 	O 	0.25901 0.00133 0.96930 -0.39800
O 	O 	0.33080 0.01482 0.96934 -0.39100
O 	O 	0.23904 0.64331 0.80191 -0.21500
N 	N 	0.27095 0.54477 0.85528 -0.22700
H 	H 	0.27740 0.52290 0.86670 0.12400
C 	C 	0.17057 0.81093 0.88164 0.35100
C 	C 	0.16876 0.76874 0.89805 -0.07100
C 	C 	0.14224 0.76485 0.92203 0.02000
H 	H 	0.12680 0.78930 0.92890 0.05600
C 	C 	0.13799 0.72597 0.93605 -0.07200
C 	C 	0.16140 0.68983 0.92607 -0.02700
H 	H 	0.15870 0.66280 0.93570 0.05900
C 	C 	0.18838 0.69401 0.90217 0.01200
C 	C 	0.19185 0.73311 0.88850 -0.02700
H 	H 	0.21040 0.73590 0.87220 0.05900
C 	C 	0.10653 0.72048 0.96062 0.34800
C 	C 	0.21197 0.65443 0.89050 -0.00400
C 	C 	0.22532 0.62165 0.90818 -0.01100
H 	H 	0.22130 0.62420 0.92860 0.03900
C 	C 	0.24487 0.58435 0.89701 -0.12000
H 	H 	0.25390 0.56210 0.90980 0.07300
C 	C 	0.25105 0.57986 0.86711 0.12800
C 	C 	0.23935 0.61533 0.84873 -0.08000
C 	C 	0.22019 0.65128 0.86071 -0.02000
H 	H 	0.21240 0.67460 0.84840 0.05800
C 	C 	0.24822 0.61407 0.81805 0.18600
C 	C 	0.26901 0.57416 0.80696 -0.07600
C 	C 	0.28108 0.54214 0.82710 0.12700
C 	C 	0.29986 0.50400 0.81455 -0.11600
H 	H 	0.30530 0.48000 0.82690 0.07100
C 	C 	0.30999 0.50074 0.78645 -0.00900
H 	H 	0.32430 0.47570 0.77950 0.03800
C 	C 	0.29945 0.53485 0.76684 -0.00300
C 	C 	0.27885 0.57022 0.77774 -0.02400
H 	H 	0.27100 0.59290 0.76490 0.05900
C 	C 	0.31264 0.53196 0.73623 0.00700
C 	C 	0.31451 0.49211 0.72143 -0.02300
H 	H 	0.30620 0.46650 0.73130 0.05500
C 	C 	0.32839 0.48940 0.69256 -0.07600
C 	C 	0.34091 0.52686 0.67818 0.02100
H 	H 	0.35120 0.52520 0.65880 0.05500
C 	C 	0.33845 0.56640 0.69189 -0.07400
C 	C 	0.32414 0.56913 0.72049 -0.02200
H 	H 	0.32210 0.59660 0.72960 0.05700
C 	C 	0.32945 0.44739 0.67696 0.34500
C 	C 	0.35175 0.60601 0.67516 0.35300
C 	C 	0.23469 0.90946 0.87793 0.35100
C 	C 	0.26760 0.95134 0.91880 0.01400
H 	H 	0.24090 0.94880 0.92890 0.05800
C 	C 	0.30146 0.97404 0.93101 -0.06500
C 	C 	0.34089 0.97794 0.91585 -0.03100
H 	H 	0.36430 0.99320 0.92440 0.06200
C 	C 	0.34559 0.95945 0.88830 0.01400
C 	C 	0.31141 0.93555 0.87692 -0.02800
H 	H 	0.31470 0.92130 0.85870 0.05700
C 	C 	0.27293 0.93231 0.89175 -0.06800
C 	C 	0.29587 0.99830 0.95913 0.33900
C 	C 	0.38621 0.96671 0.87204 -0.00600
C 	C 	0.42415 0.97700 0.88689 -0.01700
H 	H 	0.42410 0.97680 0.90760 0.05600
C 	C 	0.46304 0.98787 0.87180 -0.09200
C 	C 	0.46353 0.98921 0.84172 0.13900
C 	C 	0.42541 0.97953 0.82677 -0.12300
H 	H 	0.42500 0.98070 0.80610 0.07300
C 	C 	0.38715 0.96795 0.84217 -0.01000
H 	H 	0.36180 0.96090 0.83160 0.03900
Cu	Cu	0.85462 0.10332 0.87222 0.90800
Cu	Cu	0.80401 0.13894 0.83221 0.90600
O 	O 	0.85270 0.15906 0.89155 -0.40100
O 	O 	0.80579 0.18719 0.85942 -0.40600
O 	O 	0.91187 0.24648 0.96984 -0.40600
O 	O 	0.89777 0.31779 0.97052 -0.39600
O 	O 	0.62540 0.40001 0.65310 -0.40800
O 	O 	0.65959 0.35778 0.68538 -0.39700
O 	O 	0.65178 0.55279 0.65233 -0.40300
O 	O 	0.68819 0.58455 0.68910 -0.39700
O 	O 	0.80082 0.08745 0.89123 -0.40100
O 	O 	0.75852 0.11060 0.85477 -0.40700
O 	O 	0.74099 0.99867 0.96930 -0.40200
O 	O 	0.66920 0.98518 0.96934 -0.39500
O 	O 	0.76096 0.35669 0.80191 -0.21500
N 	N 	0.72905 0.45523 0.85528 -0.22700
H 	H 	0.72260 0.47710 0.86670 0.12400
C 	C 	0.82943 0.18907 0.88164 0.35100
C 	C 	0.83124 0.23126 0.89805 -0.07100
C 	C 	0.85776 0.23515 0.92203 0.02000
H 	H 	0.87320 0.21070 0.92890 0.05600
C 	C 	0.86201 0.27403 0.93605 -0.07200
C 	C 	0.83860 0.31017 0.92607 -0.02700
H 	H 	0.84130 0.33720 0.93570 0.05900
C 	C 	0.81162 0.30599 0.90217 0.01200
C 	C 	0.80815 0.26689 0.88850 -0.02700
H 	H 	0.78960 0.26410 0.87220 0.05900
C 	C 	0.89347 0.27952 0.96062 0.34800
C 	C 	0.78803 0.34557 0.89050 -0.00400
C 	C 	0.77468 0.37835 0.90818 -0.01100
H 	H 	0.77870 0.37580 0.92860 0.03900
C 	C 	0.75513 0.41565 0.89701 -0.12000
H 	H 	0.74610 0.43790 0.90980 0.07300
C 	C 	0.74895 0.42014 0.86711 0.12800
C 	C 	0.76065 0.38467 0.84873 -0.08000
C 	C 	0.77981 0.34872 0.86071 -0.02000
H 	H 	0.78760 0.32540 0.84840 0.05800
C 	C 	0.75178 0.38593 0.81805 0.18600
C 	C 	0.73099 0.42584 0.80696 -0.07700
C 	C 	0.71892 0.45786 0.82710 0.12700
C 	C 	0.70014 0.49600 0.81455 -0.11600
H 	H 	0.69470 0.52000 0.82690 0.07100
C 	C 	0.69001 0.49926 0.78645 -0.00900
H 	H 	0.67570 0.52430 0.77950 0.03800
C 	C 	0.70055 0.46515 0.76684 -0.00300
C 	C 	0.72115 0.42978 0.77774 -0.02400
H 	H 	0.72900 0.40710 0.76490 0.05900
C 	C 	0.68736 0.46804 0.73623 0.00700
C 	C 	0.68549 0.50789 0.72143 -0.02300
H 	H 	0.69380 0.53350 0.73130 0.05500
C 	C 	0.67161 0.51060 0.69256 -0.07600
C 	C 	0.65909 0.47314 0.67818 0.02100
H 	H 	0.64880 0.47480 0.65880 0.05500
C 	C 	0.66155 0.43360 0.69189 -0.07400
C 	C 	0.67586 0.43087 0.72049 -0.02200
H 	H 	0.67790 0.40340 0.72960 0.05700
C 	C 	0.67055 0.55261 0.67696 0.34500
C 	C 	0.64825 0.39399 0.67516 0.35300
C 	C 	0.76531 0.09054 0.87793 0.35100
C 	C 	0.73240 0.04866 0.91880 0.01600
H 	H 	0.75910 0.05120 0.92890 0.05800
C 	C 	0.69854 0.02596 0.93101 -0.06700
C 	C 	0.65911 0.02206 0.91585 -0.02900
H 	H 	0.63570 0.00680 0.92440 0.06200
C 	C 	0.65441 0.04055 0.88830 0.01400
C 	C 	0.68859 0.06445 0.87692 -0.02700
H 	H 	0.68530 0.07870 0.85870 0.05700
C 	C 	0.72707 0.06769 0.89175 -0.06800
C 	C 	0.70413 0.00170 0.95913 0.34600
C 	C 	0.61379 0.03329 0.87204 -0.00500
C 	C 	0.57585 0.02300 0.88689 -0.01700
H 	H 	0.57590 0.02320 0.90760 0.05700
C 	C 	0.53696 0.01213 0.87180 -0.09000
C 	C 	0.53647 0.01079 0.84172 0.14100
C 	C 	0.57459 0.02047 0.82677 -0.12300
H 	H 	0.57500 0.01930 0.80610 0.07300
C 	C 	0.61285 0.03205 0.84217 -0.01000
H 	H 	0.63820 0.03910 0.83160 0.03900
Cu	Cu	0.60332 0.35462 0.62778 0.90800
Cu	Cu	0.63894 0.30401 0.66779 0.90600
O 	O 	0.65906 0.35270 0.60845 -0.40100
O 	O 	0.68719 0.30579 0.64058 -0.40600
O 	O 	0.74648 0.41187 0.53016 -0.40700
O 	O 	0.81779 0.39777 0.52948 -0.39800
O 	O 	0.90001 0.12540 0.84690 -0.40800
O 	O 	0.85778 0.15959 0.81462 -0.39700
O 	O 	0.05279 0.15178 0.84767 -0.40200
O 	O 	0.08455 0.18819 0.81090 -0.39700
O 	O 	0.58745 0.30082 0.60877 -0.40200
O 	O 	0.61060 0.25852 0.64523 -0.40700
O 	O 	0.49867 0.24099 0.53070 -0.40200
O 	O 	0.48518 0.16920 0.53066 -0.39400
O 	O 	0.85669 0.26096 0.69809 -0.21500
N 	N 	0.95523 0.22905 0.64472 -0.22700
H 	H 	0.97710 0.22260 0.63330 0.12300
C 	C 	0.68907 0.32943 0.61836 0.35100
C 	C 	0.73126 0.33124 0.60195 -0.07100
C 	C 	0.73515 0.35776 0.57797 0.02000
H 	H 	0.71070 0.37320 0.57110 0.05600
C 	C 	0.77403 0.36201 0.56395 -0.07300
C 	C 	0.81017 0.33860 0.57393 -0.02700
H 	H 	0.83720 0.34130 0.56430 0.05800
C 	C 	0.80599 0.31162 0.59783 0.01200
C 	C 	0.76689 0.30815 0.61150 -0.02700
H 	H 	0.76410 0.28960 0.62780 0.05900
C 	C 	0.77952 0.39347 0.53938 0.34900
C 	C 	0.84557 0.28803 0.60950 -0.00400
C 	C 	0.87835 0.27468 0.59182 -0.01200
H 	H 	0.87580 0.27870 0.57140 0.03900
C 	C 	0.91565 0.25513 0.60299 -0.12000
H 	H 	0.93790 0.24610 0.59020 0.07200
C 	C 	0.92014 0.24895 0.63289 0.12700
C 	C 	0.88467 0.26065 0.65127 -0.08000
C 	C 	0.84872 0.27981 0.63929 -0.02100
H 	H 	0.82540 0.28760 0.65160 0.05800
C 	C 	0.88593 0.25178 0.68195 0.18600
C 	C 	0.92584 0.23099 0.69304 -0.07600
C 	C 	0.95786 0.21892 0.67290 0.12700
C 	C 	0.99600 0.20014 0.68545 -0.11800
H 	H 	0.02000 0.19470 0.67310 0.07200
C 	C 	0.99926 0.19001 0.71355 -0.01100
H 	H 	0.02430 0.17570 0.72050 0.03900
C 	C 	0.96515 0.20055 0.73316 -0.00100
C 	C 	0.92978 0.22115 0.72226 -0.02500
H 	H 	0.90710 0.22900 0.73510 0.06000
C 	C 	0.96804 0.18736 0.76377 0.00500
C 	C 	0.00789 0.18549 0.77857 -0.02100
H 	H 	0.03350 0.19380 0.76870 0.05500
C 	C 	0.01060 0.17161 0.80744 -0.07500
C 	C 	0.97314 0.15909 0.82182 0.01900
H 	H 	0.97480 0.14880 0.84120 0.05600
C 	C 	0.93360 0.16155 0.80811 -0.07400
C 	C 	0.93087 0.17586 0.77951 -0.02200
H 	H 	0.90340 0.17790 0.77040 0.05700
C 	C 	0.05261 0.17055 0.82304 0.34400
C 	C 	0.89399 0.14825 0.82484 0.35300
C 	C 	0.59054 0.26531 0.62207 0.35100
C 	C 	0.54866 0.23240 0.58120 0.01500
H 	H 	0.55120 0.25910 0.57110 0.05700
C 	C 	0.52596 0.19854 0.56899 -0.06600
C 	C 	0.52206 0.15911 0.58415 -0.03000
H 	H 	0.50680 0.13570 0.57560 0.06100
C 	C 	0.54055 0.15441 0.61170 0.01400
C 	C 	0.56445 0.18859 0.62308 -0.02800
H 	H 	0.57870 0.18530 0.64130 0.05700
C 	C 	0.56769 0.22707 0.60825 -0.06800
C 	C 	0.50170 0.20413 0.54087 0.34300
C 	C 	0.53329 0.11379 0.62796 -0.00600
C 	C 	0.52300 0.07585 0.61311 -0.01700
H 	H 	0.52320 0.07590 0.59240 0.05600
C 	C 	0.51213 0.03696 0.62820 -0.09000
C 	C 	0.51079 0.03647 0.65828 0.14100
C 	C 	0.52047 0.07459 0.67323 -0.12300
H 	H 	0.51930 0.07500 0.69390 0.07300
C 	C 	0.53205 0.11285 0.65783 -0.01000
H 	H 	0.53910 0.13820 0.66840 0.03900
Cu	Cu	0.39668 0.64538 0.62778 0.90800
Cu	Cu	0.36106 0.69599 0.66779 0.90600
O 	O 	0.34094 0.64730 0.60845 -0.40100
O 	O 	0.31281 0.69421 0.64058 -0.40600
O 	O 	0.25352 0.58813 0.53016 -0.40700
O 	O 	0.18221 0.60223 0.52948 -0.39800
O 	O 	0.09999 0.87460 0.84690 -0.40800
O 	O 	0.14222 0.84041 0.81462 -0.39700
O 	O 	0.94721 0.84822 0.84767 -0.40400
O 	O 	0.91545 0.81181 0.81090 -0.39700
O 	O 	0.41255 0.69918 0.60877 -0.40200
O 	O 	0.38940 0.74148 0.64523 -0.40700
O 	O 	0.50133 0.75901 0.53070 -0.40200
O 	O 	0.51482 0.83080 0.53066 -0.39500
O 	O 	0.14331 0.73904 0.69809 -0.21500
N 	N 	0.04477 0.77095 0.64472 -0.22700
H 	H 	0.02290 0.77740 0.63330 0.12400
C 	C 	0.31093 0.67057 0.61836 0.35100
C 	C 	0.26874 0.66876 0.60195 -0.07100
C 	C 	0.26485 0.64224 0.57797 0.02000
H 	H 	0.28930 0.62680 0.57110 0.05600
C 	C 	0.22597 0.63799 0.56395 -0.07300
C 	C 	0.18983 0.66140 0.57393 -0.02700
H 	H 	0.16280 0.65870 0.56430 0.05800
C 	C 	0.19401 0.68838 0.59783 0.01200
C 	C 	0.23311 0.69185 0.61150 -0.02700
H 	H 	0.23590 0.71040 0.62780 0.05900
C 	C 	0.22048 0.60653 0.53938 0.34900
C 	C 	0.15443 0.71197 0.60950 -0.00400
C 	C 	0.12165 0.72532 0.59182 -0.01200
H 	H 	0.12420 0.72130 0.57140 0.03900
C 	C 	0.08435 0.74487 0.60299 -0.12000
H 	H 	0.06210 0.75390 0.59020 0.07300
C 	C 	0.07986 0.75105 0.63289 0.12800
C 	C 	0.11533 0.73935 0.65127 -0.08000
C 	C 	0.15128 0.72019 0.63929 -0.02000
H 	H 	0.17460 0.71240 0.65160 0.05800
C 	C 	0.11407 0.74822 0.68195 0.18600
C 	C 	0.07416 0.76901 0.69304 -0.07700
C 	C 	0.04214 0.78108 0.67290 0.12600
C 	C 	0.00400 0.79986 0.68545 -0.11500
H 	H 	0.98000 0.80530 0.67310 0.06900
C 	C 	0.00074 0.80999 0.71355 -0.00700
H 	H 	0.97570 0.82430 0.72050 0.03600
C 	C 	0.03485 0.79945 0.73316 -0.00400
C 	C 	0.07022 0.77885 0.72226 -0.02300
H 	H 	0.09290 0.77100 0.73510 0.05900
C 	C 	0.03196 0.81264 0.76377 0.00900
C 	C 	0.99211 0.81451 0.77857 -0.02400
H 	H 	0.96650 0.80620 0.76870 0.05600
C 	C 	0.98940 0.82839 0.80744 -0.07700
C 	C 	0.02686 0.84091 0.82182 0.02300
H 	H 	0.02520 0.85120 0.84120 0.05500
C 	C 	0.06640 0.83845 0.80811 -0.07400
C 	C 	0.06913 0.82414 0.77951 -0.02300
H 	H 	0.09660 0.82210 0.77040 0.05800
C 	C 	0.94739 0.82945 0.82304 0.34500
C 	C 	0.10601 0.85175 0.82484 0.35300
C 	C 	0.40946 0.73469 0.62207 0.35100
C 	C 	0.45134 0.76760 0.58120 0.01500
H 	H 	0.44880 0.74090 0.57110 0.05700
C 	C 	0.47404 0.80146 0.56899 -0.06600
C 	C 	0.47794 0.84089 0.58415 -0.03000
H 	H 	0.49320 0.86430 0.57560 0.06100
C 	C 	0.45945 0.84559 0.61170 0.01400
C 	C 	0.43555 0.81141 0.62308 -0.02800
H 	H 	0.42130 0.81470 0.64130 0.05700
C 	C 	0.43231 0.77293 0.60825 -0.06800
C 	C 	0.49830 0.79587 0.54087 0.34300
C 	C 	0.46671 0.88621 0.62796 -0.00600
C 	C 	0.47700 0.92415 0.61311 -0.01700
H 	H 	0.47680 0.92410 0.59240 0.05600
C 	C 	0.48787 0.96304 0.62820 -0.09200
C 	C 	0.48921 0.96353 0.65828 0.13900
C 	C 	0.47953 0.92541 0.67323 -0.12300
H 	H 	0.48070 0.92500 0.69390 0.07300
C 	C 	0.46795 0.88715 0.65783 -0.01000
H 	H 	0.46090 0.86180 0.66840 0.03900
Cu	Cu	0.35462 0.39668 0.62778 0.90800
Cu	Cu	0.30401 0.36106 0.66779 0.90600
O 	O 	0.35270 0.34094 0.60845 -0.40100
O 	O 	0.30579 0.31281 0.64058 -0.40600
O 	O 	0.41187 0.25352 0.53016 -0.40700
O 	O 	0.39777 0.18221 0.52948 -0.39800
O 	O 	0.12540 0.09999 0.84690 -0.40800
O 	O 	0.15959 0.14222 0.81462 -0.39700
O 	O 	0.15178 0.94721 0.84767 -0.40300
O 	O 	0.18819 0.91545 0.81090 -0.39700
O 	O 	0.30082 0.41255 0.60877 -0.40200
O 	O 	0.25852 0.38940 0.64523 -0.40700
O 	O 	0.24099 0.50133 0.53070 -0.40200
O 	O 	0.16920 0.51482 0.53066 -0.39400
O 	O 	0.26096 0.14331 0.69809 -0.21500
N 	N 	0.22905 0.04477 0.64472 -0.22700
H 	H 	0.22260 0.02290 0.63330 0.12400
C 	C 	0.32943 0.31093 0.61836 0.35100
C 	C 	0.33124 0.26874 0.60195 -0.07100
C 	C 	0.35776 0.26485 0.57797 0.02000
H 	H 	0.37320 0.28930 0.57110 0.05600
C 	C 	0.36201 0.22597 0.56395 -0.07300
C 	C 	0.33860 0.18983 0.57393 -0.02700
H 	H 	0.34130 0.16280 0.56430 0.05800
C 	C 	0.31162 0.19401 0.59783 0.01200
C 	C 	0.30815 0.23311 0.61150 -0.02700
H 	H 	0.28960 0.23590 0.62780 0.05900
C 	C 	0.39347 0.22048 0.53938 0.34900
C 	C 	0.28803 0.15443 0.60950 -0.00400
C 	C 	0.27468 0.12165 0.59182 -0.01100
H 	H 	0.27870 0.12420 0.57140 0.03900
C 	C 	0.25513 0.08435 0.60299 -0.12000
H 	H 	0.24610 0.06210 0.59020 0.07300
C 	C 	0.24895 0.07986 0.63289 0.12800
C 	C 	0.26065 0.11533 0.65127 -0.08000
C 	C 	0.27981 0.15128 0.63929 -0.02000
H 	H 	0.28760 0.17460 0.65160 0.05800
C 	C 	0.25178 0.11407 0.68195 0.18600
C 	C 	0.23099 0.07416 0.69304 -0.07700
C 	C 	0.21892 0.04214 0.67290 0.12700
C 	C 	0.20014 0.00400 0.68545 -0.11500
H 	H 	0.19470 0.98000 0.67310 0.06900
C 	C 	0.19001 0.00074 0.71355 -0.00600
H 	H 	0.17570 0.97570 0.72050 0.03600
C 	C 	0.20055 0.03485 0.73316 -0.00400
C 	C 	0.22115 0.07022 0.72226 -0.02300
H 	H 	0.22900 0.09290 0.73510 0.05900
C 	C 	0.18736 0.03196 0.76377 0.00900
C 	C 	0.18549 0.99211 0.77857 -0.02500
H 	H 	0.19380 0.96650 0.76870 0.05600
C 	C 	0.17161 0.98940 0.80744 -0.07700
C 	C 	0.15909 0.02686 0.82182 0.02300
H 	H 	0.14880 0.02520 0.84120 0.05500
C 	C 	0.16155 0.06640 0.80811 -0.07400
C 	C 	0.17586 0.06913 0.77951 -0.02300
H 	H 	0.17790 0.09660 0.77040 0.05800
C 	C 	0.17055 0.94739 0.82304 0.34500
C 	C 	0.14825 0.10601 0.82484 0.35300
C 	C 	0.26531 0.40946 0.62207 0.35100
C 	C 	0.23240 0.45134 0.58120 0.01500
H 	H 	0.25910 0.44880 0.57110 0.05700
C 	C 	0.19854 0.47404 0.56899 -0.06600
C 	C 	0.15911 0.47794 0.58415 -0.03000
H 	H 	0.13570 0.49320 0.57560 0.06100
C 	C 	0.15441 0.45945 0.61170 0.01400
C 	C 	0.18859 0.43555 0.62308 -0.02800
H 	H 	0.18530 0.42130 0.64130 0.05700
C 	C 	0.22707 0.43231 0.60825 -0.06800
C 	C 	0.20413 0.49830 0.54087 0.34300
C 	C 	0.11379 0.46671 0.62796 -0.00600
C 	C 	0.07585 0.47700 0.61311 -0.01700
H 	H 	0.07590 0.47680 0.59240 0.05600
C 	C 	0.03696 0.48787 0.62820 -0.09000
C 	C 	0.03647 0.48921 0.65828 0.14100
C 	C 	0.07459 0.47953 0.67323 -0.12300
H 	H 	0.07500 0.48070 0.69390 0.07300
C 	C 	0.11285 0.46795 0.65783 -0.01000
H 	H 	0.13820 0.46090 0.66840 0.03900
Cu	Cu	0.64538 0.60332 0.62778 0.90800
Cu	Cu	0.69599 0.63894 0.66779 0.90600
O 	O 	0.64730 0.65906 0.60845 -0.40100
O 	O 	0.69421 0.68719 0.64058 -0.40600
O 	O 	0.58813 0.74648 0.53016 -0.40700
O 	O 	0.60223 0.81779 0.52948 -0.39800
O 	O 	0.87460 0.90001 0.84690 -0.40800
O 	O 	0.84041 0.85778 0.81462 -0.39700
O 	O 	0.84822 0.05279 0.84767 -0.40300
O 	O 	0.81181 0.08455 0.81090 -0.39700
O 	O 	0.69918 0.58745 0.60877 -0.40200
O 	O 	0.74148 0.61060 0.64523 -0.40700
O 	O 	0.75901 0.49867 0.53070 -0.40200
O 	O 	0.83080 0.48518 0.53066 -0.39500
O 	O 	0.73904 0.85669 0.69809 -0.21500
N 	N 	0.77095 0.95523 0.64472 -0.22700
H 	H 	0.77740 0.97710 0.63330 0.12300
C 	C 	0.67057 0.68907 0.61836 0.35100
C 	C 	0.66876 0.73126 0.60195 -0.07200
C 	C 	0.64224 0.73515 0.57797 0.02000
H 	H 	0.62680 0.71070 0.57110 0.05600
C 	C 	0.63799 0.77403 0.56395 -0.07300
C 	C 	0.66140 0.81017 0.57393 -0.02700
H 	H 	0.65870 0.83720 0.56430 0.05800
C 	C 	0.68838 0.80599 0.59783 0.01200
C 	C 	0.69185 0.76689 0.61150 -0.02700
H 	H 	0.71040 0.76410 0.62780 0.05900
C 	C 	0.60653 0.77952 0.53938 0.34900
C 	C 	0.71197 0.84557 0.60950 -0.00400
C 	C 	0.72532 0.87835 0.59182 -0.01200
H 	H 	0.72130 0.87580 0.57140 0.03800
C 	C 	0.74487 0.91565 0.60299 -0.12000
H 	H 	0.75390 0.93790 0.59020 0.07200
C 	C 	0.75105 0.92014 0.63289 0.12700
C 	C 	0.73935 0.88467 0.65127 -0.08000
C 	C 	0.72019 0.84872 0.63929 -0.02100
H 	H 	0.71240 0.82540 0.65160 0.05800
C 	C 	0.74822 0.88593 0.68195 0.18600
C 	C 	0.76901 0.92584 0.69304 -0.07600
C 	C 	0.78108 0.95786 0.67290 0.12700
C 	C 	0.79986 0.99600 0.68545 -0.11800
H 	H 	0.80530 0.02000 0.67310 0.07200
C 	C 	0.80999 0.99926 0.71355 -0.01100
H 	H 	0.82430 0.02430 0.72050 0.03900
C 	C 	0.79945 0.96515 0.73316 -0.00100
C 	C 	0.77885 0.92978 0.72226 -0.02500
H 	H 	0.77100 0.90710 0.73510 0.06000
C 	C 	0.81264 0.96804 0.76377 0.00500
C 	C 	0.81451 0.00789 0.77857 -0.02100
H 	H 	0.80620 0.03350 0.76870 0.05500
C 	C 	0.82839 0.01060 0.80744 -0.07500
C 	C 	0.84091 0.97314 0.82182 0.01900
H 	H 	0.85120 0.97480 0.84120 0.05600
C 	C 	0.83845 0.93360 0.80811 -0.07400
C 	C 	0.82414 0.93087 0.77951 -0.02200
H 	H 	0.82210 0.90340 0.77040 0.05700
C 	C 	0.82945 0.05261 0.82304 0.34400
C 	C 	0.85175 0.89399 0.82484 0.35300
C 	C 	0.73469 0.59054 0.62207 0.35100
C 	C 	0.76760 0.54866 0.58120 0.01500
H 	H 	0.74090 0.55120 0.57110 0.05700
C 	C 	0.80146 0.52596 0.56899 -0.06600
C 	C 	0.84089 0.52206 0.58415 -0.03000
H 	H 	0.86430 0.50680 0.57560 0.06100
C 	C 	0.84559 0.54055 0.61170 0.01400
C 	C 	0.81141 0.56445 0.62308 -0.02800
H 	H 	0.81470 0.57870 0.64130 0.05700
C 	C 	0.77293 0.56769 0.60825 -0.06800
C 	C 	0.79587 0.50170 0.54087 0.34300
C 	C 	0.88621 0.53329 0.62796 -0.00600
C 	C 	0.92415 0.52300 0.61311 -0.01700
H 	H 	0.92410 0.52320 0.59240 0.05600
C 	C 	0.96304 0.51213 0.62820 -0.09200
C 	C 	0.96353 0.51079 0.65828 0.13900
C 	C 	0.92541 0.52047 0.67323 -0.12300
H 	H 	0.92500 0.51930 0.69390 0.07300
C 	C 	0.88715 0.53205 0.65783 -0.01000
H 	H 	0.86180 0.53910 0.66840 0.03900
Cu	Cu	0.33065 0.05901 -0.00000 0.90400
Cu	Cu	0.24604 0.04365 -0.00000 0.90300
Cu	Cu	0.66935 0.94099 -0.00000 0.90400
Cu	Cu	0.75396 0.95635 -0.00000 0.90300
Cu	Cu	0.94099 0.33065 -0.00000 0.90400
Cu	Cu	0.95635 0.24604 -0.00000 0.90300
Cu	Cu	0.05901 0.66935 -0.00000 0.90400
Cu	Cu	0.04365 0.75396 -0.00000 0.90300
Cu	Cu	0.16935 0.55901 0.50000 0.90500
Cu	Cu	0.25396 0.54365 0.50000 0.90400
Cu	Cu	0.83065 0.44099 0.50000 0.90500
Cu	Cu	0.74604 0.45635 0.50000 0.90400
Cu	Cu	0.55901 0.83065 0.50000 0.90500
Cu	Cu	0.54365 0.74604 0.50000 0.90400
Cu	Cu	0.44099 0.16935 0.50000 0.90500
Cu	Cu	0.45635 0.25396 0.50000 0.90400
O 	O 	0.00000 0.50000 0.08480 -0.20900
N 	N 	0.00000 0.50000 0.17218 -0.23300
H 	H 	-0.00000 0.50000 0.19130 0.12500
C 	C 	0.00000 0.50000 0.11215 0.18700
O 	O 	0.50000 0.00000 0.08480 -0.20900
N 	N 	0.50000 0.00000 0.17218 -0.23300
H 	H 	0.50000 0.00000 0.19130 0.12500
C 	C 	0.50000 0.00000 0.11215 0.18700
O 	O 	0.50000 0.00000 0.41520 -0.20800
N 	N 	0.50000 0.00000 0.32782 -0.23300
H 	H 	0.50000 0.00000 0.30870 0.12500
C 	C 	0.50000 0.00000 0.38785 0.18700
O 	O 	-0.00000 0.50000 0.41520 -0.20800
N 	N 	-0.00000 0.50000 0.32782 -0.23300
H 	H 	0.00000 0.50000 0.30870 0.12500
C 	C 	-0.00000 0.50000 0.38785 0.18700
O 	O 	0.00000 0.50000 0.91520 -0.20800
N 	N 	0.00000 0.50000 0.82782 -0.23200
H 	H 	0.00000 0.50000 0.80870 0.12500
C 	C 	0.00000 0.50000 0.88785 0.18700
O 	O 	0.50000 0.00000 0.91520 -0.20800
N 	N 	0.50000 -0.00000 0.82782 -0.23200
H 	H 	0.50000 0.00000 0.80870 0.12500
C 	C 	0.50000 0.00000 0.88785 0.18700
O 	O 	0.50000 0.00000 0.58480 -0.20800
N 	N 	0.50000 0.00000 0.67218 -0.23300
H 	H 	0.50000 0.00000 0.69130 0.12500
C 	C 	0.50000 0.00000 0.61215 0.18700
O 	O 	-0.00000 0.50000 0.58480 -0.20800
N 	N 	-0.00000 0.50000 0.67218 -0.23300
H 	H 	0.00000 0.50000 0.69130 0.12500
C 	C 	0.00000 0.50000 0.61215 0.18700
