data_crystal

_cell_length_a 12.95170
_cell_length_b 14.73300
_cell_length_c 20.05200
_cell_angle_alpha 90.00000
_cell_angle_beta  129.25600
_cell_angle_gamma 90.00000

_symmetry_space_group_name_	'P 1'
_symmetry_space_group_name_H-M	'P 1'

loop_
_symmetry_equiv_pos_as_xyz
  x,y,z

loop_
_atom_site_label
_atom_site_type_symbol
_atom_site_fract_x
_atom_site_fract_y
_atom_site_fract_z
_atom_site_charge
Cu	Cu	0.61344 0.20816 0.59763 0.86400
N 	N 	0.55410 0.09580 0.45610 -0.15300
N 	N 	0.60470 0.17510 0.49600 -0.15500
N 	N 	0.62840 0.22650 0.45380 -0.09700
N 	N 	0.54440 0.09270 0.38640 -0.09600
N 	N 	0.60960 0.25520 0.19280 -0.23300
N 	N 	0.75050 0.06750 0.66860 -0.12200
N 	N 	0.68610 0.99780 0.61370 -0.12800
N 	N 	0.76660 0.92670 0.63970 -0.09200
N 	N 	0.87400 0.04120 0.73250 -0.11000
N 	N 	0.46130 0.12640 0.55030 -0.24500
N 	N 	0.37090 0.14330 0.54820 -0.04000
N 	N 	0.22550 0.78760 0.84960 -0.22500
N 	N 	0.28180 0.15790 0.54540 -0.07500
C 	C 	0.59010 0.17400 0.38710 0.09400
C 	C 	0.59690 0.20120 0.31900 0.06100
C 	C 	0.63810 0.28940 0.31860 -0.13500
H 	H 	0.66280 0.33080 0.36150 0.08500
C 	C 	0.56660 0.17130 0.19080 0.07900
H 	H 	0.54070 0.13190 0.14630 -0.02900
C 	C 	0.88260 0.95620 0.71280 0.12500
C 	C 	0.00180 0.89920 0.76160 0.06000
C 	C 	0.11280 0.91820 0.84520 -0.12600
H 	H 	0.11390 0.96890 0.87330 0.09900
C 	C 	0.64100 0.31320 0.25370 0.08800
H 	H 	0.66570 0.37200 0.25230 -0.00500
C 	C 	0.56040 0.14260 0.25420 -0.13400
H 	H 	0.53180 0.08410 0.25270 0.07800
C 	C 	0.00410 0.82160 0.72250 -0.11500
H 	H 	0.93100 0.80690 0.66620 0.08600
C 	C 	0.11580 0.76710 0.76820 0.07200
H 	H 	0.11600 0.71470 0.74240 0.00400
C 	C 	0.22180 0.86160 0.88680 0.08800
H 	H 	0.29610 0.87540 0.94300 0.00400
Cu	Cu	0.38656 0.70816 0.90237 0.87200
N 	N 	0.44590 0.59580 0.04390 -0.15500
N 	N 	0.39530 0.67510 0.00400 -0.16700
N 	N 	0.37160 0.72650 0.04620 -0.10200
N 	N 	0.45560 0.59270 0.11360 -0.09100
N 	N 	0.39040 0.75520 0.30720 -0.23000
N 	N 	0.24950 0.56750 0.83140 -0.10500
N 	N 	0.31390 0.49780 0.88630 -0.14100
N 	N 	0.23340 0.42670 0.86030 -0.08500
N 	N 	0.12600 0.54120 0.76750 -0.08700
N 	N 	0.53870 0.62640 0.94970 -0.22900
N 	N 	0.62910 0.64330 0.95180 -0.03200
N 	N 	0.77450 0.28760 0.65040 -0.23200
N 	N 	0.71820 0.65790 0.95460 -0.05900
C 	C 	0.40990 0.67400 0.11290 0.09500
C 	C 	0.40310 0.70120 0.18100 0.06300
C 	C 	0.36190 0.78940 0.18140 -0.13200
H 	H 	0.33720 0.83080 0.13850 0.08400
C 	C 	0.43340 0.67130 0.30920 0.08100
H 	H 	0.45930 0.63190 0.35370 -0.01900
C 	C 	0.11740 0.45620 0.78720 0.09700
C 	C 	0.99820 0.39920 0.73840 0.06500
C 	C 	0.88720 0.41820 0.65480 -0.13800
H 	H 	0.88610 0.46890 0.62670 0.08500
C 	C 	0.35900 0.81320 0.24630 0.08800
H 	H 	0.33430 0.87200 0.24770 0.00100
C 	C 	0.43960 0.64260 0.24580 -0.13100
H 	H 	0.46820 0.58410 0.24730 0.08700
C 	C 	0.99590 0.32160 0.77750 -0.13600
H 	H 	0.06900 0.30690 0.83380 0.10000
C 	C 	0.88420 0.26710 0.73180 0.07800
H 	H 	0.88400 0.21470 0.75760 -0.00100
C 	C 	0.77820 0.36160 0.61320 0.08600
H 	H 	0.70390 0.37540 0.55700 -0.01300
Cu	Cu	0.38656 0.79184 0.40237 0.86500
N 	N 	0.44590 0.90420 0.54390 -0.14000
N 	N 	0.39530 0.82490 0.50400 -0.15200
N 	N 	0.37160 0.77350 0.54620 -0.09500
N 	N 	0.45560 0.90730 0.61360 -0.08200
N 	N 	0.39040 0.74480 0.80720 -0.23000
N 	N 	0.24950 0.93250 0.33140 -0.09300
N 	N 	0.31390 0.00220 0.38630 -0.16900
N 	N 	0.23340 0.07330 0.36030 -0.08900
N 	N 	0.12600 0.95880 0.26750 -0.06600
N 	N 	0.53870 0.87360 0.44970 -0.23300
N 	N 	0.62910 0.85670 0.45180 -0.03500
N 	N 	0.77450 0.21240 0.15040 -0.23700
N 	N 	0.71820 0.84210 0.45460 -0.06500
C 	C 	0.40990 0.82600 0.61290 0.09900
C 	C 	0.40310 0.79880 0.68100 0.06900
C 	C 	0.36190 0.71060 0.68140 -0.13400
H 	H 	0.33720 0.66920 0.63850 0.08700
C 	C 	0.43340 0.82870 0.80920 0.08500
H 	H 	0.45930 0.86810 0.85370 -0.00900
C 	C 	0.11740 0.04380 0.28720 0.06100
C 	C 	0.99820 0.10080 0.23840 0.06800
C 	C 	0.88720 0.08180 0.15480 -0.14800
H 	H 	0.88610 0.03110 0.12670 0.07200
C 	C 	0.35900 0.68680 0.74630 0.09200
H 	H 	0.33430 0.62800 0.74770 -0.00500
C 	C 	0.43960 0.85740 0.74580 -0.13000
H 	H 	0.46820 0.91590 0.74730 0.09800
C 	C 	0.99590 0.17840 0.27750 -0.14100
H 	H 	0.06900 0.19310 0.33380 0.09500
C 	C 	0.88420 0.23290 0.23180 0.07600
H 	H 	0.88400 0.28530 0.25760 -0.00200
C 	C 	0.77820 0.13840 0.11320 0.08400
H 	H 	0.70390 0.12460 0.05700 -0.02800
Cu	Cu	0.61344 0.29184 0.09763 0.85500
N 	N 	0.55410 0.40420 0.95610 -0.13900
N 	N 	0.60470 0.32490 0.99600 -0.14100
N 	N 	0.62840 0.27350 0.95380 -0.09000
N 	N 	0.54440 0.40730 0.88640 -0.08800
N 	N 	0.60960 0.24480 0.69280 -0.23200
N 	N 	0.75050 0.43250 0.16860 -0.11100
N 	N 	0.68610 0.50220 0.11370 -0.15500
N 	N 	0.76660 0.57330 0.13970 -0.09500
N 	N 	0.87400 0.45880 0.23250 -0.09000
N 	N 	0.46130 0.37360 0.05030 -0.24900
N 	N 	0.37090 0.35670 0.04820 -0.04300
N 	N 	0.22550 0.71240 0.34960 -0.22900
N 	N 	0.28180 0.34210 0.04540 -0.08200
C 	C 	0.59010 0.32600 0.88710 0.09800
C 	C 	0.59690 0.29880 0.81900 0.06900
C 	C 	0.63810 0.21060 0.81860 -0.13700
H 	H 	0.66280 0.16920 0.86150 0.08800
C 	C 	0.56660 0.32870 0.69080 0.08400
H 	H 	0.54070 0.36810 0.64630 -0.01900
C 	C 	0.88260 0.54380 0.21280 0.09000
C 	C 	0.00180 0.60080 0.26160 0.06200
C 	C 	0.11280 0.58180 0.34520 -0.13500
H 	H 	0.11390 0.53110 0.37330 0.08500
C 	C 	0.64100 0.18680 0.75370 0.09200
H 	H 	0.66570 0.12800 0.75230 -0.01000
C 	C 	0.56040 0.35740 0.75420 -0.13300
H 	H 	0.53180 0.41590 0.75270 0.09000
C 	C 	0.00410 0.67840 0.22250 -0.11900
H 	H 	0.93100 0.69310 0.16620 0.08100
C 	C 	0.11580 0.73290 0.26820 0.07000
H 	H 	0.11600 0.78530 0.24240 0.00300
C 	C 	0.22180 0.63840 0.38680 0.08500
H 	H 	0.29610 0.62460 0.44300 -0.01200
Cu	Cu	0.50000 0.00000 0.50000 0.86000
Cu	Cu	0.50000 0.50000 -0.00000 0.86000
