data_crystal

_cell_length_a 10.81230
_cell_length_b 11.13570
_cell_length_c 11.13570
_cell_angle_alpha 103.70800
_cell_angle_beta  102.15700
_cell_angle_gamma 77.84310

_symmetry_space_group_name_	'P 1'
_symmetry_space_group_name_H-M	'P 1'

loop_
_symmetry_equiv_pos_as_xyz
  x,y,z

loop_
_atom_site_label
_atom_site_type_symbol
_atom_site_fract_x
_atom_site_fract_y
_atom_site_fract_z
_atom_site_charge
Co	Co	0.93187 0.07331 0.90183 1.21200
Co	Co	0.56549 0.89997 0.07478 1.21800
Co	Co	0.06553 0.92614 0.10077 1.21500
Co	Co	0.43148 0.09923 0.92732 1.21900
Co	Co	0.74863 0.91513 0.91664 1.23900
Co	Co	0.24814 0.08417 0.08554 1.23700
H 	H 	0.94002 0.53083 0.87271 0.04500
H 	H 	0.03061 0.30761 0.85623 0.03700
H 	H 	0.60267 0.46369 0.97938 0.04400
H 	H 	0.55726 0.87136 0.53251 0.04700
H 	H 	0.46654 0.85485 0.30927 0.02600
H 	H 	0.89461 0.97778 0.46511 0.04500
H 	H 	0.05700 0.46853 0.12937 0.05300
H 	H 	0.96646 0.69176 0.14585 0.02900
H 	H 	0.39432 0.53558 0.02256 0.04500
H 	H 	0.43997 0.12787 0.46977 0.04800
H 	H 	0.53059 0.14439 0.69301 0.02600
H 	H 	0.10260 0.02132 0.53705 0.04700
C 	C 	0.88378 0.47036 0.89256 -0.02000
C 	C 	0.93665 0.34038 0.88225 0.01500
C 	C 	0.76549 0.52417 0.93445 -0.06000
C 	C 	0.69591 0.43191 0.95178 0.01000
C 	C 	0.72303 0.67339 0.95749 0.32600
C 	C 	0.74895 0.29717 0.93262 -0.04400
C 	C 	0.68531 0.18798 0.94290 0.33100
C 	C 	0.61347 0.89117 0.47199 -0.02400
C 	C 	0.56051 0.88087 0.34202 0.02700
C 	C 	0.73186 0.93292 0.52573 -0.05900
C 	C 	0.80134 0.95025 0.43341 0.01100
C 	C 	0.77451 0.95582 0.67495 0.33200
C 	C 	0.74819 0.93116 0.29870 -0.04600
C 	C 	0.81179 0.94147 0.18950 0.33000
C 	C 	0.11324 0.52897 0.10945 -0.02500
C 	C 	0.06037 0.65894 0.11972 0.02600
C 	C 	0.23154 0.47512 0.06760 -0.05600
C 	C 	0.30107 0.56737 0.05015 0.00900
C 	C 	0.27402 0.32587 0.04467 0.32500
C 	C 	0.24801 0.70212 0.06926 -0.04800
C 	C 	0.31160 0.81136 0.05905 0.33000
C 	C 	0.38373 0.10805 0.53028 -0.02400
C 	C 	0.43662 0.11837 0.66023 0.02700
C 	C 	0.26540 0.06625 0.47652 -0.05800
C 	C 	0.19584 0.04890 0.56880 0.01100
C 	C 	0.22287 0.04326 0.32730 0.33800
C 	C 	0.24892 0.06805 0.70353 -0.04700
C 	C 	0.18541 0.05775 0.81284 0.33000
N 	N 	0.87216 0.25718 0.90534 -0.19500
N 	N 	0.62496 0.90389 0.25875 -0.19900
N 	N 	0.12485 0.74213 0.09658 -0.19900
N 	N 	0.37211 0.09535 0.74345 -0.19900
O 	O 	0.94769 0.90548 0.93116 -0.66500
O 	O 	0.77382 0.08113 0.95572 -0.56400
O 	O 	0.56848 0.19043 0.93718 -0.43000
O 	O 	0.76083 0.73897 0.89461 -0.42400
O 	O 	0.65559 0.73306 0.04257 -0.41400
O 	O 	0.54961 0.92947 0.90679 -0.66200
O 	O 	0.72326 0.95437 0.08266 -0.56300
O 	O 	0.92862 0.93575 0.19197 -0.42100
O 	O 	0.73646 0.89311 0.74050 -0.42500
O 	O 	0.84237 0.04059 0.73464 -0.42200
O 	O 	0.04865 0.09527 0.07296 -0.53600
O 	O 	0.22302 0.91826 0.04623 -0.57500
O 	O 	0.42844 0.80888 0.06487 -0.43100
O 	O 	0.23631 0.26033 0.10767 -0.41700
O 	O 	0.34138 0.26614 0.95955 -0.41400
O 	O 	0.44727 0.06966 0.09520 -0.66100
O 	O 	0.27377 0.04486 0.91956 -0.56600
O 	O 	0.06872 0.06360 0.81069 -0.42600
O 	O 	0.26053 0.10620 0.26170 -0.41800
O 	O 	0.15558 0.95810 0.26764 -0.41700
H 	H 	0.48578 0.13675 0.15793 0.18200
H 	H 	0.51112 0.86235 0.84408 0.18200
H 	H 	0.98629 0.84282 0.86407 0.18000
