data_crystal

_cell_length_a 13.68170
_cell_length_b 27.12300
_cell_length_c 45.99500
_cell_angle_alpha 90.00000
_cell_angle_beta  90.00000
_cell_angle_gamma 90.00000

_symmetry_space_group_name_	'P 1'
_symmetry_space_group_name_H-M	'P 1'

loop_
_symmetry_equiv_pos_as_xyz
  x,y,z

loop_
_atom_site_label
_atom_site_type_symbol
_atom_site_fract_x
_atom_site_fract_y
_atom_site_fract_z
_atom_site_charge
Zn	Zn	0.85934 0.95180 0.92964 1.16300
Zn	Zn	0.64566 0.96672 0.09370 1.16400
Zn	Zn	0.84403 0.75090 0.18902 1.16400
Zn	Zn	0.14066 0.54820 0.42964 1.16300
Zn	Zn	0.35434 0.53328 0.59370 1.16400
Zn	Zn	0.15597 0.74910 0.68902 1.16400
Zn	Zn	0.35934 0.04820 0.57036 1.16300
Zn	Zn	0.14566 0.03328 0.40630 1.16400
Zn	Zn	0.34403 0.24910 0.31098 1.16400
Zn	Zn	0.64066 0.45180 0.07036 1.16300
Zn	Zn	0.85434 0.46672 0.90630 1.16400
Zn	Zn	0.65597 0.25090 0.81098 1.16400
H 	H 	0.80670 0.80650 0.13410 -0.00700
H 	H 	0.89050 0.84190 0.09590 0.07900
H 	H 	0.05390 0.77170 0.17330 -0.01200
H 	H 	0.14420 0.80670 0.13600 0.07200
H 	H 	0.47070 0.93550 0.12710 -0.01000
H 	H 	0.31340 0.90610 0.12010 0.09400
H 	H 	0.52300 0.93080 0.04290 -0.00700
H 	H 	0.36540 0.90340 0.03360 0.08100
H 	H 	0.05360 0.96970 0.95920 -0.00200
H 	H 	0.14160 0.94340 0.99920 0.08200
H 	H 	0.82050 0.89630 0.98490 -0.00700
H 	H 	0.90290 0.86640 0.02560 0.07700
H 	H 	0.92710 0.92260 0.86980 -0.00800
H 	H 	0.94990 0.85330 0.84160 0.07900
H 	H 	0.85810 0.84100 0.93780 -0.01500
H 	H 	0.88420 0.76940 0.91180 0.07800
H 	H 	0.88220 0.57110 0.92590 -0.00900
H 	H 	0.90810 0.64910 0.90710 0.07900
H 	H 	0.91620 0.51070 0.84880 -0.00700
H 	H 	0.94480 0.58650 0.82770 0.08000
H 	H 	0.08650 0.66760 0.72710 -0.00800
H 	H 	0.02800 0.65590 0.77400 0.07900
H 	H 	0.04320 0.81080 0.73240 0.00100
H 	H 	0.98530 0.80320 0.77950 0.08100
H 	H 	0.19330 0.69350 0.63410 -0.00700
H 	H 	0.10950 0.65810 0.59590 0.07800
H 	H 	0.94610 0.72830 0.67330 -0.01200
H 	H 	0.85580 0.69330 0.63600 0.07100
H 	H 	0.52930 0.56450 0.62710 -0.01000
H 	H 	0.68660 0.59390 0.62010 0.09400
H 	H 	0.47700 0.56920 0.54290 -0.00700
H 	H 	0.63460 0.59660 0.53360 0.08100
H 	H 	0.94640 0.53030 0.45920 -0.00200
H 	H 	0.85840 0.55660 0.49920 0.08100
H 	H 	0.17950 0.60370 0.48490 -0.00700
H 	H 	0.09710 0.63360 0.52560 0.07700
H 	H 	0.07290 0.57740 0.36980 -0.00800
H 	H 	0.05010 0.64670 0.34160 0.07900
H 	H 	0.14190 0.65900 0.43780 -0.01500
H 	H 	0.11580 0.73060 0.41180 0.07800
H 	H 	0.11780 0.92890 0.42590 -0.00800
H 	H 	0.09190 0.85090 0.40710 0.07900
H 	H 	0.08380 0.98930 0.34880 -0.00700
H 	H 	0.05520 0.91350 0.32770 0.08100
H 	H 	0.91350 0.83240 0.22710 -0.00800
H 	H 	0.97200 0.84410 0.27400 0.07900
H 	H 	0.95680 0.68920 0.23240 0.00100
H 	H 	0.01470 0.69680 0.27950 0.08100
H 	H 	0.30670 0.19350 0.36590 -0.00700
H 	H 	0.39050 0.15810 0.40410 0.07800
H 	H 	0.55390 0.22830 0.32670 -0.01200
H 	H 	0.64420 0.19330 0.36400 0.07200
H 	H 	0.97070 0.06450 0.37290 -0.01000
H 	H 	0.81340 0.09390 0.37990 0.09400
H 	H 	0.02300 0.06920 0.45710 -0.00800
H 	H 	0.86540 0.09660 0.46640 0.08200
H 	H 	0.55360 0.03030 0.54080 -0.00200
H 	H 	0.64160 0.05660 0.50080 0.08100
H 	H 	0.32050 0.10370 0.51510 -0.00700
H 	H 	0.40290 0.13360 0.47440 0.07700
H 	H 	0.42710 0.07740 0.63020 -0.00800
H 	H 	0.44990 0.14670 0.65840 0.07900
H 	H 	0.35810 0.15900 0.56220 -0.01500
H 	H 	0.38420 0.23060 0.58820 0.07800
H 	H 	0.38220 0.42890 0.57410 -0.00900
H 	H 	0.40810 0.35090 0.59290 0.07900
H 	H 	0.41620 0.48930 0.65120 -0.00700
H 	H 	0.44480 0.41350 0.67230 0.08000
H 	H 	0.58650 0.33240 0.77290 -0.00800
H 	H 	0.52800 0.34410 0.72600 0.07900
H 	H 	0.54320 0.18920 0.76760 0.00100
H 	H 	0.48530 0.19680 0.72050 0.08100
H 	H 	0.69330 0.30650 0.86590 -0.00700
H 	H 	0.60950 0.34190 0.90410 0.07800
H 	H 	0.44610 0.27170 0.82670 -0.01200
H 	H 	0.35580 0.30670 0.86400 0.07200
H 	H 	0.02930 0.43550 0.87290 -0.01000
H 	H 	0.18660 0.40610 0.87990 0.09400
H 	H 	0.97700 0.43080 0.95710 -0.00700
H 	H 	0.13460 0.40340 0.96640 0.08100
H 	H 	0.44640 0.46970 0.04080 -0.00200
H 	H 	0.35840 0.44340 0.00080 0.08100
H 	H 	0.67950 0.39630 0.01510 -0.00700
H 	H 	0.59710 0.36640 0.97440 0.07700
H 	H 	0.57290 0.42260 0.13020 -0.00800
H 	H 	0.55010 0.35330 0.15840 0.07900
H 	H 	0.64190 0.34100 0.06220 -0.01500
H 	H 	0.61580 0.26940 0.08820 0.07800
H 	H 	0.61780 0.07110 0.07410 -0.00800
H 	H 	0.59190 0.14910 0.09290 0.07900
H 	H 	0.58380 0.01070 0.15120 -0.00700
H 	H 	0.55520 0.08650 0.17230 0.08000
H 	H 	0.41350 0.16760 0.27290 -0.00800
H 	H 	0.47200 0.15590 0.22600 0.07900
H 	H 	0.45680 0.31080 0.26760 0.00100
H 	H 	0.51470 0.30320 0.22050 0.08100
C 	C 	0.87610 0.80638 0.13438 0.06600
C 	C 	0.92550 0.82756 0.11158 -0.10900
C 	C 	0.02060 0.78609 0.15728 0.06500
C 	C 	0.07480 0.80682 0.13518 -0.11300
C 	C 	0.02690 0.82783 0.11166 0.05500
C 	C 	0.08230 0.85088 0.08767 0.10700
C 	C 	0.44880 0.92875 0.10787 0.07300
C 	C 	0.35500 0.91141 0.10385 -0.12400
C 	C 	0.47910 0.92631 0.05869 0.07100
C 	C 	0.38570 0.90957 0.05301 -0.11800
C 	C 	0.32200 0.90183 0.07589 0.05200
C 	C 	0.22030 0.88560 0.07088 0.09500
C 	C 	0.02300 0.94839 0.97282 0.06400
C 	C 	0.07600 0.93280 0.99651 -0.11700
C 	C 	0.88690 0.90539 0.98778 0.06300
C 	C 	0.93530 0.88753 0.01217 -0.10800
C 	C 	0.03170 0.90112 0.01652 0.04700
C 	C 	0.08570 0.88441 0.04289 0.10100
C 	C 	0.91700 0.89103 0.87822 0.06000
C 	C 	0.93170 0.84991 0.86139 -0.11300
C 	C 	0.87740 0.84327 0.91798 0.06700
C 	C 	0.89250 0.80049 0.90261 -0.11600
C 	C 	0.91990 0.80322 0.87354 0.04900
C 	C 	0.93560 0.75850 0.85594 0.10300
C 	C 	0.89370 0.57465 0.90562 0.06600
C 	C 	0.90930 0.62119 0.89465 -0.11300
C 	C 	0.91380 0.53937 0.86058 0.06800
C 	C 	0.93070 0.58425 0.84790 -0.11500
C 	C 	0.92700 0.62664 0.86500 0.05000
C 	C 	0.93910 0.67600 0.85190 0.10100
C 	C 	0.06670 0.69543 0.73814 0.06000
C 	C 	0.03200 0.68812 0.76606 -0.11300
C 	C 	0.04170 0.77911 0.74124 0.06300
C 	C 	0.00680 0.77488 0.76921 -0.11200
C 	C 	0.00330 0.72884 0.78217 0.04900
C 	C 	0.97320 0.72337 0.81294 0.10300
C 	C 	0.12390 0.69362 0.63438 0.06500
C 	C 	0.07450 0.67244 0.61158 -0.10700
C 	C 	0.97940 0.71391 0.65728 0.06400
C 	C 	0.92520 0.69318 0.63518 -0.11200
C 	C 	0.97310 0.67217 0.61166 0.05300
C 	C 	0.91770 0.64912 0.58767 0.10700
C 	C 	0.55120 0.57125 0.60787 0.07300
C 	C 	0.64500 0.58859 0.60385 -0.12400
C 	C 	0.52090 0.57369 0.55869 0.07100
C 	C 	0.61430 0.59043 0.55301 -0.11800
C 	C 	0.67800 0.59817 0.57589 0.05200
C 	C 	0.77970 0.61440 0.57088 0.09500
C 	C 	0.97700 0.55161 0.47282 0.06200
C 	C 	0.92400 0.56720 0.49651 -0.11600
C 	C 	0.11310 0.59461 0.48778 0.06300
C 	C 	0.06470 0.61247 0.51217 -0.10700
C 	C 	0.96830 0.59888 0.51652 0.04600
C 	C 	0.91430 0.61559 0.54289 0.10100
C 	C 	0.08300 0.60897 0.37822 0.06000
C 	C 	0.06830 0.65009 0.36139 -0.11300
C 	C 	0.12260 0.65673 0.41798 0.06700
C 	C 	0.10750 0.69951 0.40261 -0.11600
C 	C 	0.08010 0.69678 0.37354 0.04900
C 	C 	0.06440 0.74150 0.35594 0.10300
C 	C 	0.10630 0.92535 0.40562 0.06600
C 	C 	0.09070 0.87881 0.39465 -0.11300
C 	C 	0.08620 0.96063 0.36058 0.06800
C 	C 	0.06930 0.91575 0.34790 -0.11500
C 	C 	0.07300 0.87336 0.36500 0.05000
C 	C 	0.06090 0.82400 0.35190 0.10200
C 	C 	0.93330 0.80457 0.23814 0.06000
C 	C 	0.96800 0.81188 0.26606 -0.11300
C 	C 	0.95830 0.72089 0.24124 0.06400
C 	C 	0.99320 0.72512 0.26921 -0.11300
C 	C 	0.99670 0.77116 0.28217 0.04900
C 	C 	0.02680 0.77663 0.31294 0.10300
C 	C 	0.37610 0.19362 0.36562 0.06500
C 	C 	0.42550 0.17244 0.38842 -0.10800
C 	C 	0.52060 0.21391 0.34272 0.06400
C 	C 	0.57480 0.19318 0.36482 -0.11200
C 	C 	0.52690 0.17217 0.38834 0.05400
C 	C 	0.58230 0.14912 0.41233 0.10700
C 	C 	0.94880 0.07125 0.39213 0.07400
C 	C 	0.85500 0.08859 0.39615 -0.12500
C 	C 	0.97910 0.07369 0.44131 0.07300
C 	C 	0.88570 0.09043 0.44699 -0.11900
C 	C 	0.82200 0.09817 0.42411 0.05300
C 	C 	0.72030 0.11440 0.42912 0.09500
C 	C 	0.52300 0.05161 0.52718 0.06300
C 	C 	0.57600 0.06720 0.50349 -0.11700
C 	C 	0.38690 0.09461 0.51222 0.06300
C 	C 	0.43530 0.11247 0.48783 -0.10700
C 	C 	0.53170 0.09888 0.48348 0.04600
C 	C 	0.58570 0.11559 0.45711 0.10100
C 	C 	0.41700 0.10897 0.62178 0.06000
C 	C 	0.43170 0.15009 0.63861 -0.11300
C 	C 	0.37740 0.15673 0.58202 0.06700
C 	C 	0.39250 0.19951 0.59739 -0.11600
C 	C 	0.41990 0.19678 0.62646 0.04900
C 	C 	0.43560 0.24150 0.64406 0.10300
C 	C 	0.39370 0.42535 0.59438 0.06600
C 	C 	0.40930 0.37881 0.60535 -0.11300
C 	C 	0.41380 0.46063 0.63942 0.06800
C 	C 	0.43070 0.41575 0.65210 -0.11500
C 	C 	0.42700 0.37336 0.63500 0.05000
C 	C 	0.43910 0.32400 0.64810 0.10100
C 	C 	0.56670 0.30457 0.76186 0.06000
C 	C 	0.53200 0.31188 0.73394 -0.11300
C 	C 	0.54170 0.22089 0.75876 0.06400
C 	C 	0.50680 0.22512 0.73079 -0.11300
C 	C 	0.50330 0.27116 0.71783 0.04900
C 	C 	0.47320 0.27663 0.68706 0.10300
C 	C 	0.62390 0.30638 0.86562 0.06500
C 	C 	0.57450 0.32756 0.88842 -0.10800
C 	C 	0.47940 0.28609 0.84272 0.06400
C 	C 	0.42520 0.30682 0.86482 -0.11200
C 	C 	0.47310 0.32783 0.88834 0.05400
C 	C 	0.41770 0.35088 0.91233 0.10700
C 	C 	0.05120 0.42875 0.89213 0.07300
C 	C 	0.14500 0.41141 0.89615 -0.12400
C 	C 	0.02090 0.42631 0.94131 0.07100
C 	C 	0.11430 0.40957 0.94699 -0.11700
C 	C 	0.17800 0.40183 0.92411 0.05200
C 	C 	0.27970 0.38560 0.92912 0.09500
C 	C 	0.47700 0.44839 0.02718 0.06300
C 	C 	0.42400 0.43280 0.00349 -0.11700
C 	C 	0.61310 0.40539 0.01222 0.06300
C 	C 	0.56470 0.38753 0.98783 -0.10700
C 	C 	0.46830 0.40112 0.98348 0.04600
C 	C 	0.41430 0.38441 0.95711 0.10100
C 	C 	0.58300 0.39103 0.12178 0.06000
C 	C 	0.56830 0.34991 0.13861 -0.11300
C 	C 	0.62260 0.34327 0.08202 0.06700
C 	C 	0.60750 0.30049 0.09739 -0.11600
C 	C 	0.58010 0.30322 0.12646 0.04900
C 	C 	0.56440 0.25850 0.14406 0.10300
C 	C 	0.60630 0.07465 0.09438 0.06600
C 	C 	0.59070 0.12119 0.10535 -0.11300
C 	C 	0.58620 0.03937 0.13942 0.06800
C 	C 	0.56930 0.08425 0.15210 -0.11500
C 	C 	0.57300 0.12664 0.13500 0.05000
C 	C 	0.56090 0.17600 0.14810 0.10200
C 	C 	0.43330 0.19543 0.26186 0.06000
C 	C 	0.46800 0.18812 0.23394 -0.11300
C 	C 	0.45830 0.27911 0.25876 0.06400
C 	C 	0.49320 0.27488 0.23079 -0.11300
C 	C 	0.49670 0.22884 0.21783 0.04900
C 	C 	0.52680 0.22337 0.18706 0.10300
I 	I 	0.95422 0.01874 0.90312 -0.36600
I 	I 	0.67575 0.95233 0.93888 -0.37700
I 	I 	0.73233 0.97852 0.04506 -0.38300
I 	I 	0.72460 0.92120 0.13579 -0.36200
I 	I 	0.69153 0.80405 0.19622 -0.36700
I 	I 	0.83151 0.65890 0.17833 -0.37300
I 	I 	0.04578 0.48126 0.40312 -0.36700
I 	I 	0.32425 0.54767 0.43888 -0.37600
I 	I 	0.26767 0.52148 0.54506 -0.38300
I 	I 	0.27540 0.57880 0.63579 -0.36200
I 	I 	0.30847 0.69595 0.69622 -0.36700
I 	I 	0.16849 0.84110 0.67833 -0.37300
I 	I 	0.45422 0.98126 0.59688 -0.36600
I 	I 	0.17575 0.04767 0.56112 -0.37700
I 	I 	0.23233 0.02148 0.45494 -0.38300
I 	I 	0.22460 0.07880 0.36421 -0.36200
I 	I 	0.19153 0.19595 0.30378 -0.36800
I 	I 	0.33151 0.34110 0.32167 -0.37300
I 	I 	0.54578 0.51874 0.09688 -0.36700
I 	I 	0.82425 0.45233 0.06112 -0.37600
I 	I 	0.76767 0.47852 0.95494 -0.38300
I 	I 	0.77540 0.42120 0.86421 -0.36200
I 	I 	0.80847 0.30405 0.80378 -0.36700
I 	I 	0.66849 0.15890 0.82167 -0.37300
N 	N 	0.92230 0.78543 0.15706 -0.27300
N 	N 	0.51000 0.93641 0.08559 -0.27300
N 	N 	0.92980 0.93486 0.96813 -0.27000
N 	N 	0.17520 0.86302 0.09287 -0.13400
N 	N 	0.18000 0.89664 0.04510 -0.14400
N 	N 	0.03360 0.86055 0.06296 -0.13600
N 	N 	0.88900 0.88828 0.90613 -0.27000
N 	N 	0.89390 0.53417 0.88890 -0.27000
N 	N 	0.07350 0.74041 0.72599 -0.27100
N 	N 	0.92420 0.71487 0.86896 -0.14000
N 	N 	0.96390 0.67797 0.82344 -0.13900
N 	N 	0.95930 0.76514 0.82801 -0.13900
N 	N 	0.07770 0.71457 0.65706 -0.27200
N 	N 	0.49000 0.56359 0.58559 -0.27300
N 	N 	0.07020 0.56514 0.46813 -0.27000
N 	N 	0.82480 0.63698 0.59287 -0.13500
N 	N 	0.82000 0.60336 0.54510 -0.14400
N 	N 	0.96640 0.63945 0.56296 -0.13600
N 	N 	0.11100 0.61172 0.40613 -0.27000
N 	N 	0.10610 0.96583 0.38890 -0.27000
N 	N 	0.92650 0.75959 0.22599 -0.27100
N 	N 	0.07580 0.78513 0.36896 -0.14000
N 	N 	0.03610 0.82203 0.32344 -0.13900
N 	N 	0.04070 0.73486 0.32801 -0.13900
N 	N 	0.42230 0.21457 0.34294 -0.27200
N 	N 	0.01000 0.06359 0.41441 -0.27300
N 	N 	0.42980 0.06514 0.53187 -0.27000
N 	N 	0.67520 0.13698 0.40713 -0.13400
N 	N 	0.68000 0.10336 0.45490 -0.14400
N 	N 	0.53360 0.13945 0.43704 -0.13600
N 	N 	0.38900 0.11172 0.59387 -0.27000
N 	N 	0.39390 0.46583 0.61110 -0.27000
N 	N 	0.57350 0.25959 0.77401 -0.27100
N 	N 	0.42420 0.28513 0.63104 -0.14000
N 	N 	0.46390 0.32203 0.67656 -0.13900
N 	N 	0.45930 0.23486 0.67199 -0.13900
N 	N 	0.57770 0.28543 0.84294 -0.27200
N 	N 	0.99000 0.43641 0.91441 -0.27200
N 	N 	0.57020 0.43486 0.03187 -0.27000
N 	N 	0.32480 0.36302 0.90713 -0.13500
N 	N 	0.32000 0.39664 0.95490 -0.14400
N 	N 	0.46640 0.36055 0.93704 -0.13600
N 	N 	0.61100 0.38828 0.09387 -0.27000
N 	N 	0.60610 0.03417 0.11110 -0.27000
N 	N 	0.42650 0.24041 0.27401 -0.27100
N 	N 	0.57580 0.21487 0.13104 -0.14000
N 	N 	0.53610 0.17797 0.17656 -0.13900
N 	N 	0.54070 0.26514 0.17199 -0.13900
Zn	Zn	0.14066 0.04820 0.07036 1.16300
Zn	Zn	0.35434 0.03328 0.90630 1.16400
Zn	Zn	0.15597 0.24910 0.81098 1.16400
Zn	Zn	0.85934 0.45180 0.57036 1.16300
Zn	Zn	0.64566 0.46672 0.40630 1.16400
Zn	Zn	0.84403 0.25090 0.31098 1.16400
Zn	Zn	0.64066 0.95180 0.42964 1.16300
Zn	Zn	0.85434 0.96672 0.59370 1.16400
Zn	Zn	0.65597 0.75090 0.68902 1.16400
Zn	Zn	0.35934 0.54820 0.92964 1.16300
Zn	Zn	0.14566 0.53328 0.09370 1.16400
Zn	Zn	0.34403 0.74910 0.18902 1.16400
H 	H 	0.19330 0.19350 0.86590 -0.00700
H 	H 	0.10950 0.15810 0.90410 0.07900
H 	H 	0.94610 0.22830 0.82670 -0.01200
H 	H 	0.85580 0.19330 0.86400 0.07200
H 	H 	0.52930 0.06450 0.87290 -0.01000
H 	H 	0.68660 0.09390 0.87990 0.09400
H 	H 	0.47700 0.06920 0.95710 -0.00700
H 	H 	0.63460 0.09660 0.96640 0.08100
H 	H 	0.94640 0.03030 0.04080 -0.00200
H 	H 	0.85840 0.05660 0.00080 0.08200
H 	H 	0.17950 0.10370 0.01510 -0.00700
H 	H 	0.09710 0.13360 0.97440 0.07700
H 	H 	0.07290 0.07740 0.13020 -0.00800
H 	H 	0.05010 0.14670 0.15840 0.07900
H 	H 	0.14190 0.15900 0.06220 -0.01500
H 	H 	0.11580 0.23060 0.08820 0.07800
H 	H 	0.11780 0.42890 0.07410 -0.00900
H 	H 	0.09190 0.35090 0.09290 0.07900
H 	H 	0.08380 0.48930 0.15120 -0.00700
H 	H 	0.05520 0.41350 0.17230 0.08000
H 	H 	0.91350 0.33240 0.27290 -0.00800
H 	H 	0.97200 0.34410 0.22600 0.07900
H 	H 	0.95680 0.18920 0.26760 0.00100
H 	H 	0.01470 0.19680 0.22050 0.08100
H 	H 	0.80670 0.30650 0.36590 -0.00700
H 	H 	0.89050 0.34190 0.40410 0.07800
H 	H 	0.05390 0.27170 0.32670 -0.01200
H 	H 	0.14420 0.30670 0.36400 0.07100
H 	H 	0.47070 0.43550 0.37290 -0.01000
H 	H 	0.31340 0.40610 0.37990 0.09400
H 	H 	0.52300 0.43080 0.45710 -0.00700
H 	H 	0.36540 0.40340 0.46640 0.08100
H 	H 	0.05360 0.46970 0.54080 -0.00200
H 	H 	0.14160 0.44340 0.50080 0.08100
H 	H 	0.82050 0.39630 0.51510 -0.00700
H 	H 	0.90290 0.36640 0.47440 0.07700
H 	H 	0.92710 0.42260 0.63020 -0.00800
H 	H 	0.94990 0.35330 0.65840 0.07900
H 	H 	0.85810 0.34100 0.56220 -0.01500
H 	H 	0.88420 0.26940 0.58820 0.07800
H 	H 	0.88220 0.07110 0.57410 -0.00800
H 	H 	0.90810 0.14910 0.59290 0.07900
H 	H 	0.91620 0.01070 0.65120 -0.00700
H 	H 	0.94480 0.08650 0.67230 0.08100
H 	H 	0.08650 0.16760 0.77290 -0.00800
H 	H 	0.02800 0.15590 0.72600 0.07900
H 	H 	0.04320 0.31080 0.76760 0.00100
H 	H 	0.98530 0.30320 0.72050 0.08100
H 	H 	0.69330 0.80650 0.63410 -0.00700
H 	H 	0.60950 0.84190 0.59590 0.07800
H 	H 	0.44610 0.77170 0.67330 -0.01200
H 	H 	0.35580 0.80670 0.63600 0.07200
H 	H 	0.02930 0.93550 0.62710 -0.01000
H 	H 	0.18660 0.90610 0.62010 0.09400
H 	H 	0.97700 0.93080 0.54290 -0.00800
H 	H 	0.13460 0.90340 0.53360 0.08200
H 	H 	0.44640 0.96970 0.45920 -0.00200
H 	H 	0.35840 0.94340 0.49920 0.08100
H 	H 	0.67950 0.89630 0.48490 -0.00700
H 	H 	0.59710 0.86640 0.52560 0.07700
H 	H 	0.57290 0.92260 0.36980 -0.00800
H 	H 	0.55010 0.85330 0.34160 0.07900
H 	H 	0.64190 0.84100 0.43780 -0.01500
H 	H 	0.61580 0.76940 0.41180 0.07800
H 	H 	0.61780 0.57110 0.42590 -0.00900
H 	H 	0.59190 0.64910 0.40710 0.07900
H 	H 	0.58380 0.51070 0.34880 -0.00700
H 	H 	0.55520 0.58650 0.32770 0.08000
H 	H 	0.41350 0.66760 0.22710 -0.00800
H 	H 	0.47200 0.65590 0.27400 0.07900
H 	H 	0.45680 0.81080 0.23240 0.00100
H 	H 	0.51470 0.80320 0.27950 0.08100
H 	H 	0.30670 0.69350 0.13410 -0.00700
H 	H 	0.39050 0.65810 0.09590 0.07800
H 	H 	0.55390 0.72830 0.17330 -0.01200
H 	H 	0.64420 0.69330 0.13600 0.07200
H 	H 	0.97070 0.56450 0.12710 -0.01000
H 	H 	0.81340 0.59390 0.12010 0.09400
H 	H 	0.02300 0.56920 0.04290 -0.00700
H 	H 	0.86540 0.59660 0.03360 0.08100
H 	H 	0.55360 0.53030 0.95920 -0.00200
H 	H 	0.64160 0.55660 0.99920 0.08100
H 	H 	0.32050 0.60370 0.98490 -0.00700
H 	H 	0.40290 0.63360 0.02560 0.07700
H 	H 	0.42710 0.57740 0.86980 -0.00800
H 	H 	0.44990 0.64670 0.84160 0.07900
H 	H 	0.35810 0.65900 0.93780 -0.01500
H 	H 	0.38420 0.73060 0.91180 0.07800
H 	H 	0.38220 0.92890 0.92590 -0.00800
H 	H 	0.40810 0.85090 0.90710 0.07900
H 	H 	0.41620 0.98930 0.84880 -0.00700
H 	H 	0.44480 0.91350 0.82770 0.08000
H 	H 	0.58650 0.83240 0.72710 -0.00800
H 	H 	0.52800 0.84410 0.77400 0.07900
H 	H 	0.54320 0.68920 0.73240 0.00100
H 	H 	0.48530 0.69680 0.77950 0.08100
C 	C 	0.12390 0.19362 0.86562 0.06600
C 	C 	0.07450 0.17244 0.88842 -0.10900
C 	C 	0.97940 0.21391 0.84272 0.06500
C 	C 	0.92520 0.19318 0.86482 -0.11300
C 	C 	0.97310 0.17217 0.88834 0.05500
C 	C 	0.91770 0.14912 0.91233 0.10700
C 	C 	0.55120 0.07125 0.89213 0.07300
C 	C 	0.64500 0.08859 0.89615 -0.12400
C 	C 	0.52090 0.07369 0.94131 0.07100
C 	C 	0.61430 0.09043 0.94699 -0.11800
C 	C 	0.67800 0.09817 0.92411 0.05200
C 	C 	0.77970 0.11440 0.92912 0.09500
C 	C 	0.97700 0.05161 0.02718 0.06400
C 	C 	0.92400 0.06720 0.00349 -0.11700
C 	C 	0.11310 0.09461 0.01222 0.06300
C 	C 	0.06470 0.11247 0.98783 -0.10800
C 	C 	0.96830 0.09888 0.98348 0.04700
C 	C 	0.91430 0.11559 0.95711 0.10100
C 	C 	0.08300 0.10897 0.12178 0.06000
C 	C 	0.06830 0.15009 0.13861 -0.11300
C 	C 	0.12260 0.15673 0.08202 0.06700
C 	C 	0.10750 0.19951 0.09739 -0.11600
C 	C 	0.08010 0.19678 0.12646 0.04900
C 	C 	0.06440 0.24150 0.14406 0.10300
C 	C 	0.10630 0.42535 0.09438 0.06600
C 	C 	0.09070 0.37881 0.10535 -0.11300
C 	C 	0.08620 0.46063 0.13942 0.06800
C 	C 	0.06930 0.41575 0.15210 -0.11500
C 	C 	0.07300 0.37336 0.13500 0.05000
C 	C 	0.06090 0.32400 0.14810 0.10100
C 	C 	0.93330 0.30457 0.26186 0.06000
C 	C 	0.96800 0.31188 0.23394 -0.11300
C 	C 	0.95830 0.22089 0.25876 0.06300
C 	C 	0.99320 0.22512 0.23079 -0.11200
C 	C 	0.99670 0.27116 0.21783 0.04900
C 	C 	0.02680 0.27663 0.18706 0.10300
C 	C 	0.87610 0.30638 0.36562 0.06500
C 	C 	0.92550 0.32756 0.38842 -0.10700
C 	C 	0.02060 0.28609 0.34272 0.06400
C 	C 	0.07480 0.30682 0.36482 -0.11200
C 	C 	0.02690 0.32783 0.38834 0.05300
C 	C 	0.08230 0.35088 0.41233 0.10700
C 	C 	0.44880 0.42875 0.39213 0.07300
C 	C 	0.35500 0.41141 0.39615 -0.12400
C 	C 	0.47910 0.42631 0.44131 0.07100
C 	C 	0.38570 0.40957 0.44699 -0.11800
C 	C 	0.32200 0.40183 0.42411 0.05200
C 	C 	0.22030 0.38560 0.42912 0.09500
C 	C 	0.02300 0.44839 0.52718 0.06200
C 	C 	0.07600 0.43280 0.50349 -0.11600
C 	C 	0.88690 0.40539 0.51222 0.06300
C 	C 	0.93530 0.38753 0.48783 -0.10700
C 	C 	0.03170 0.40112 0.48348 0.04600
C 	C 	0.08570 0.38441 0.45711 0.10100
C 	C 	0.91700 0.39103 0.62178 0.06000
C 	C 	0.93170 0.34991 0.63861 -0.11300
C 	C 	0.87740 0.34327 0.58202 0.06700
C 	C 	0.89250 0.30049 0.59739 -0.11600
C 	C 	0.91990 0.30322 0.62646 0.04900
C 	C 	0.93560 0.25850 0.64406 0.10300
C 	C 	0.89370 0.07465 0.59438 0.06600
C 	C 	0.90930 0.12119 0.60535 -0.11300
C 	C 	0.91380 0.03937 0.63942 0.06800
C 	C 	0.93070 0.08425 0.65210 -0.11500
C 	C 	0.92700 0.12664 0.63500 0.05000
C 	C 	0.93910 0.17600 0.64810 0.10200
C 	C 	0.06670 0.19543 0.76186 0.06000
C 	C 	0.03200 0.18812 0.73394 -0.11300
C 	C 	0.04170 0.27911 0.75876 0.06400
C 	C 	0.00680 0.27488 0.73079 -0.11300
C 	C 	0.00330 0.22884 0.71783 0.04900
C 	C 	0.97320 0.22337 0.68706 0.10300
C 	C 	0.62390 0.80638 0.63438 0.06500
C 	C 	0.57450 0.82756 0.61158 -0.10800
C 	C 	0.47940 0.78609 0.65728 0.06400
C 	C 	0.42520 0.80682 0.63518 -0.11200
C 	C 	0.47310 0.82783 0.61166 0.05400
C 	C 	0.41770 0.85088 0.58767 0.10700
C 	C 	0.05120 0.92875 0.60787 0.07400
C 	C 	0.14500 0.91141 0.60385 -0.12500
C 	C 	0.02090 0.92631 0.55869 0.07300
C 	C 	0.11430 0.90957 0.55301 -0.11900
C 	C 	0.17800 0.90183 0.57589 0.05300
C 	C 	0.27970 0.88560 0.57088 0.09500
C 	C 	0.47700 0.94839 0.47282 0.06300
C 	C 	0.42400 0.93280 0.49651 -0.11700
C 	C 	0.61310 0.90539 0.48778 0.06300
C 	C 	0.56470 0.88753 0.51217 -0.10700
C 	C 	0.46830 0.90112 0.51652 0.04600
C 	C 	0.41430 0.88441 0.54289 0.10100
C 	C 	0.58300 0.89103 0.37822 0.06000
C 	C 	0.56830 0.84991 0.36139 -0.11300
C 	C 	0.62260 0.84327 0.41798 0.06700
C 	C 	0.60750 0.80049 0.40261 -0.11600
C 	C 	0.58010 0.80322 0.37354 0.04900
C 	C 	0.56440 0.75850 0.35594 0.10300
C 	C 	0.60630 0.57465 0.40562 0.06600
C 	C 	0.59070 0.62119 0.39465 -0.11300
C 	C 	0.58620 0.53937 0.36058 0.06800
C 	C 	0.56930 0.58425 0.34790 -0.11500
C 	C 	0.57300 0.62664 0.36500 0.05000
C 	C 	0.56090 0.67600 0.35190 0.10100
C 	C 	0.43330 0.69543 0.23814 0.06000
C 	C 	0.46800 0.68812 0.26606 -0.11300
C 	C 	0.45830 0.77911 0.24124 0.06400
C 	C 	0.49320 0.77488 0.26921 -0.11300
C 	C 	0.49670 0.72884 0.28217 0.04900
C 	C 	0.52680 0.72337 0.31294 0.10300
C 	C 	0.37610 0.69362 0.13438 0.06500
C 	C 	0.42550 0.67244 0.11158 -0.10800
C 	C 	0.52060 0.71391 0.15728 0.06400
C 	C 	0.57480 0.69318 0.13518 -0.11200
C 	C 	0.52690 0.67217 0.11166 0.05400
C 	C 	0.58230 0.64912 0.08767 0.10700
C 	C 	0.94880 0.57125 0.10787 0.07300
C 	C 	0.85500 0.58859 0.10385 -0.12400
C 	C 	0.97910 0.57369 0.05869 0.07100
C 	C 	0.88570 0.59043 0.05301 -0.11700
C 	C 	0.82200 0.59817 0.07589 0.05200
C 	C 	0.72030 0.61440 0.07088 0.09500
C 	C 	0.52300 0.55161 0.97282 0.06300
C 	C 	0.57600 0.56720 0.99651 -0.11700
C 	C 	0.38690 0.59461 0.98778 0.06300
C 	C 	0.43530 0.61247 0.01217 -0.10700
C 	C 	0.53170 0.59888 0.01652 0.04600
C 	C 	0.58570 0.61559 0.04289 0.10100
C 	C 	0.41700 0.60897 0.87822 0.06000
C 	C 	0.43170 0.65009 0.86139 -0.11300
C 	C 	0.37740 0.65673 0.91798 0.06700
C 	C 	0.39250 0.69951 0.90261 -0.11600
C 	C 	0.41990 0.69678 0.87354 0.04900
C 	C 	0.43560 0.74150 0.85594 0.10300
C 	C 	0.39370 0.92535 0.90562 0.06600
C 	C 	0.40930 0.87881 0.89465 -0.11300
C 	C 	0.41380 0.96063 0.86058 0.06800
C 	C 	0.43070 0.91575 0.84790 -0.11500
C 	C 	0.42700 0.87336 0.86500 0.05000
C 	C 	0.43910 0.82400 0.85190 0.10200
C 	C 	0.56670 0.80457 0.73814 0.06000
C 	C 	0.53200 0.81188 0.76606 -0.11300
C 	C 	0.54170 0.72089 0.74124 0.06400
C 	C 	0.50680 0.72512 0.76921 -0.11300
C 	C 	0.50330 0.77116 0.78217 0.04900
C 	C 	0.47320 0.77663 0.81294 0.10300
I 	I 	0.04578 0.98126 0.09688 -0.36600
I 	I 	0.32425 0.04767 0.06112 -0.37700
I 	I 	0.26767 0.02148 0.95494 -0.38300
I 	I 	0.27540 0.07880 0.86421 -0.36200
I 	I 	0.30847 0.19595 0.80378 -0.36700
I 	I 	0.16849 0.34110 0.82167 -0.37300
I 	I 	0.95422 0.51874 0.59688 -0.36700
I 	I 	0.67575 0.45233 0.56112 -0.37600
I 	I 	0.73233 0.47852 0.45494 -0.38300
I 	I 	0.72460 0.42120 0.36421 -0.36200
I 	I 	0.69153 0.30405 0.30378 -0.36700
I 	I 	0.83151 0.15890 0.32167 -0.37300
I 	I 	0.54578 0.01874 0.40312 -0.36600
I 	I 	0.82425 0.95233 0.43888 -0.37700
I 	I 	0.76767 0.97852 0.54506 -0.38300
I 	I 	0.77540 0.92120 0.63579 -0.36200
I 	I 	0.80847 0.80405 0.69622 -0.36800
I 	I 	0.66849 0.65890 0.67833 -0.37300
I 	I 	0.45422 0.48126 0.90312 -0.36700
I 	I 	0.17575 0.54767 0.93888 -0.37600
I 	I 	0.23233 0.52148 0.04506 -0.38300
I 	I 	0.22460 0.57880 0.13579 -0.36200
I 	I 	0.19153 0.69595 0.19622 -0.36700
I 	I 	0.33151 0.84110 0.17833 -0.37300
N 	N 	0.07770 0.21457 0.84294 -0.27300
N 	N 	0.49000 0.06359 0.91441 -0.27300
N 	N 	0.07020 0.06514 0.03187 -0.27000
N 	N 	0.82480 0.13698 0.90713 -0.13400
N 	N 	0.82000 0.10336 0.95490 -0.14400
N 	N 	0.96640 0.13945 0.93704 -0.13600
N 	N 	0.11100 0.11172 0.09387 -0.27000
N 	N 	0.10610 0.46583 0.11110 -0.27000
N 	N 	0.92650 0.25959 0.27401 -0.27100
N 	N 	0.07580 0.28513 0.13104 -0.14000
N 	N 	0.03610 0.32203 0.17656 -0.13900
N 	N 	0.04070 0.23486 0.17199 -0.13900
N 	N 	0.92230 0.28543 0.34294 -0.27200
N 	N 	0.51000 0.43641 0.41441 -0.27300
N 	N 	0.92980 0.43486 0.53187 -0.27000
N 	N 	0.17520 0.36302 0.40713 -0.13500
N 	N 	0.18000 0.39664 0.45490 -0.14400
N 	N 	0.03360 0.36055 0.43704 -0.13600
N 	N 	0.88900 0.38828 0.59387 -0.27000
N 	N 	0.89390 0.03417 0.61110 -0.27000
N 	N 	0.07350 0.24041 0.77401 -0.27100
N 	N 	0.92420 0.21487 0.63104 -0.14000
N 	N 	0.96390 0.17797 0.67656 -0.13900
N 	N 	0.95930 0.26514 0.67199 -0.13900
N 	N 	0.57770 0.78543 0.65706 -0.27200
N 	N 	0.99000 0.93641 0.58559 -0.27300
N 	N 	0.57020 0.93486 0.46813 -0.27000
N 	N 	0.32480 0.86302 0.59287 -0.13400
N 	N 	0.32000 0.89664 0.54510 -0.14400
N 	N 	0.46640 0.86055 0.56296 -0.13600
N 	N 	0.61100 0.88828 0.40613 -0.27000
N 	N 	0.60610 0.53417 0.38890 -0.27000
N 	N 	0.42650 0.74041 0.22599 -0.27100
N 	N 	0.57580 0.71487 0.36896 -0.14000
N 	N 	0.53610 0.67797 0.32344 -0.13900
N 	N 	0.54070 0.76514 0.32801 -0.13900
N 	N 	0.42230 0.71457 0.15706 -0.27200
N 	N 	0.01000 0.56359 0.08559 -0.27200
N 	N 	0.42980 0.56514 0.96813 -0.27000
N 	N 	0.67520 0.63698 0.09287 -0.13500
N 	N 	0.68000 0.60336 0.04510 -0.14400
N 	N 	0.53360 0.63945 0.06296 -0.13600
N 	N 	0.38900 0.61172 0.90613 -0.27000
N 	N 	0.39390 0.96583 0.88890 -0.27000
N 	N 	0.57350 0.75959 0.72599 -0.27100
N 	N 	0.42420 0.78513 0.86896 -0.14000
N 	N 	0.46390 0.82203 0.82344 -0.13900
N 	N 	0.45930 0.73486 0.82801 -0.13900
