data_crystal

_cell_length_a 27.12200
_cell_length_b 13.69200
_cell_length_c 45.96300
_cell_angle_alpha 90.00000
_cell_angle_beta  90.00000
_cell_angle_gamma 90.00000

_symmetry_space_group_name_	'P 1'
_symmetry_space_group_name_H-M	'P 1'

loop_
_symmetry_equiv_pos_as_xyz
  x,y,z

loop_
_atom_site_label
_atom_site_type_symbol
_atom_site_fract_x
_atom_site_fract_y
_atom_site_fract_z
_atom_site_charge
Zn	Zn	0.45069 0.36111 0.06858 1.16500
Zn	Zn	0.25254 0.35077 0.80985 1.16600
Zn	Zn	0.46719 0.15011 0.90729 1.16500
I 	I 	0.51754 0.45682 0.09457 -0.36800
I 	I 	0.45468 0.17878 0.05760 -0.37200
I 	I 	0.16129 0.33833 0.82207 -0.37300
I 	I 	0.30394 0.19588 0.80255 -0.36600
I 	I 	0.42038 0.22888 0.86589 -0.36400
I 	I 	0.47976 0.23275 0.95624 -0.38300
C 	C 	0.30780 0.38290 0.86408 0.07800
H 	H 	0.30800 0.31350 0.86430 -0.01000
C 	C 	0.32830 0.43230 0.88699 -0.11900
H 	H 	0.34230 0.39730 0.90280 0.08500
C 	C 	0.28770 0.52590 0.84169 0.07800
H 	H 	0.27310 0.55920 0.82580 -0.01500
C 	C 	0.30780 0.58030 0.86367 -0.12500
H 	H 	0.30740 0.64970 0.86290 0.07900
C 	C 	0.32860 0.53220 0.88693 0.06600
C 	C 	0.35130 0.58740 0.91134 0.10400
C 	C 	0.42880 0.95400 0.89305 0.08600
H 	H 	0.43570 0.97650 0.87390 -0.01500
C 	C 	0.41100 0.86120 0.89642 -0.13700
H 	H 	0.40510 0.82090 0.88000 0.09900
C 	C 	0.42670 0.98240 0.94143 0.09000
H 	H 	0.43120 0.02550 0.95740 -0.01200
C 	C 	0.40960 0.89010 0.94690 -0.13300
H 	H 	0.40340 0.86990 0.96630 0.08700
C 	C 	0.40150 0.82700 0.92424 0.06400
C 	C 	0.38530 0.72490 0.92872 0.09300
C 	C 	0.44600 0.52580 0.02599 0.06800
H 	H 	0.46710 0.55620 0.03980 -0.00400
C 	C 	0.43070 0.57890 0.00277 -0.12400
H 	H 	0.44110 0.64470 0.00040 0.08400
C 	C 	0.40370 0.38950 0.01092 0.06700
H 	H 	0.39460 0.32300 0.01350 -0.00800
C 	C 	0.38620 0.44010 0.98672 -0.11200
H 	H 	0.36510 0.40850 0.97320 0.07800
C 	C 	0.39960 0.53570 0.98241 0.05000
C 	C 	0.38320 0.59010 0.95630 0.10100
C 	C 	0.34290 0.37430 0.08096 0.07500
H 	H 	0.34040 0.35480 0.06120 -0.01900
C 	C 	0.30010 0.38920 0.09633 -0.12400
H 	H 	0.26890 0.38070 0.08730 0.08000
C 	C 	0.39050 0.41230 0.12051 0.06300
H 	H 	0.42220 0.42040 0.12900 -0.01000
C 	C 	0.34960 0.42800 0.13741 -0.11900
H 	H 	0.35300 0.44630 0.15720 0.08100
C 	C 	0.30340 0.41670 0.12531 0.05400
C 	C 	0.25850 0.43160 0.14278 0.10300
C 	C 	0.27870 0.53910 0.25739 0.06500
H 	H 	0.31030 0.54200 0.26620 -0.00000
C 	C 	0.27480 0.50400 0.22942 -0.11500
H 	H 	0.30350 0.48370 0.21920 0.08100
C 	C 	0.19570 0.56100 0.26040 0.07400
H 	H 	0.16760 0.58020 0.27130 -0.01500
C 	C 	0.18840 0.52590 0.23256 -0.12200
H 	H 	0.15620 0.52050 0.22470 0.08200
C 	C 	0.22910 0.49860 0.21640 0.05300
C 	C 	0.22370 0.46860 0.18569 0.10400
C 	C 	0.04010 0.40130 0.13895 0.06700
H 	H 	0.01180 0.39840 0.15110 -0.00600
C 	C 	0.08540 0.41940 0.15155 -0.11700
H 	H 	0.08790 0.43110 0.17190 0.08000
C 	C 	0.07450 0.39200 0.09372 0.07200
H 	H 	0.07080 0.38380 0.07330 -0.01100
C 	C 	0.12090 0.40790 0.10462 -0.11900
H 	H 	0.14860 0.41020 0.09200 0.08000
C 	C 	0.12690 0.42040 0.13430 0.05300
C 	C 	0.17620 0.43370 0.14709 0.10200
N 	N 	0.28750 0.42840 0.84148 -0.27900
N 	N 	0.43700 0.01420 0.91521 -0.28000
N 	N 	0.43274 0.43230 0.03049 -0.27200
N 	N 	0.36330 0.68070 0.90641 -0.13400
N 	N 	0.39548 0.68400 0.95436 -0.14300
N 	N 	0.36001 0.53820 0.93597 -0.13600
N 	N 	0.38765 0.38600 0.09242 -0.27600
N 	N 	0.23950 0.56940 0.27262 -0.27700
N 	N 	0.03459 0.38760 0.11037 -0.27200
N 	N 	0.26518 0.45500 0.17076 -0.14000
N 	N 	0.17829 0.45870 0.17538 -0.14000
N 	N 	0.21493 0.42070 0.13003 -0.14100
Zn	Zn	0.04931 0.63889 0.56858 1.16400
Zn	Zn	0.24746 0.64923 0.30985 1.16500
Zn	Zn	0.03281 0.84989 0.40729 1.16400
I 	I 	0.98246 0.54318 0.59457 -0.36900
I 	I 	0.04532 0.82122 0.55760 -0.37400
I 	I 	0.33871 0.66167 0.32207 -0.37400
I 	I 	0.19606 0.80412 0.30255 -0.36700
I 	I 	0.07962 0.77112 0.36589 -0.36500
I 	I 	0.02024 0.76725 0.45624 -0.38400
C 	C 	0.19220 0.61710 0.36408 0.07700
H 	H 	0.19200 0.68650 0.36430 -0.01100
C 	C 	0.17170 0.56770 0.38699 -0.12000
H 	H 	0.15770 0.60270 0.40280 0.08400
C 	C 	0.21230 0.47410 0.34169 0.07700
H 	H 	0.22690 0.44080 0.32580 -0.01600
C 	C 	0.19220 0.41970 0.36367 -0.12600
H 	H 	0.19260 0.35030 0.36290 0.07800
C 	C 	0.17140 0.46780 0.38693 0.06500
C 	C 	0.14870 0.41260 0.41134 0.10400
C 	C 	0.07120 0.04600 0.39305 0.08700
H 	H 	0.06430 0.02350 0.37390 -0.01500
C 	C 	0.08900 0.13880 0.39642 -0.13800
H 	H 	0.09490 0.17910 0.38000 0.09900
C 	C 	0.07330 0.01760 0.44143 0.09200
H 	H 	0.06880 0.97450 0.45740 -0.01300
C 	C 	0.09040 0.10990 0.44690 -0.13400
H 	H 	0.09660 0.13010 0.46630 0.08800
C 	C 	0.09850 0.17300 0.42424 0.06500
C 	C 	0.11470 0.27510 0.42872 0.09300
C 	C 	0.05400 0.47420 0.52599 0.06800
H 	H 	0.03290 0.44380 0.53980 -0.00400
C 	C 	0.06930 0.42110 0.50277 -0.12400
H 	H 	0.05890 0.35530 0.50040 0.08400
C 	C 	0.09630 0.61050 0.51092 0.06700
H 	H 	0.10540 0.67700 0.51350 -0.00800
C 	C 	0.11380 0.55990 0.48672 -0.11200
H 	H 	0.13490 0.59150 0.47320 0.07800
C 	C 	0.10040 0.46430 0.48241 0.05000
C 	C 	0.11680 0.40990 0.45630 0.10100
C 	C 	0.15710 0.62570 0.58096 0.07500
H 	H 	0.15960 0.64520 0.56120 -0.01900
C 	C 	0.19990 0.61080 0.59633 -0.12400
H 	H 	0.23110 0.61930 0.58730 0.08000
C 	C 	0.10950 0.58770 0.62051 0.06300
H 	H 	0.07780 0.57960 0.62900 -0.01000
C 	C 	0.15040 0.57200 0.63741 -0.11900
H 	H 	0.14700 0.55370 0.65720 0.08100
C 	C 	0.19660 0.58330 0.62531 0.05400
C 	C 	0.24150 0.56840 0.64278 0.10300
C 	C 	0.22130 0.46090 0.75739 0.06500
H 	H 	0.18970 0.45800 0.76620 -0.00000
C 	C 	0.22520 0.49600 0.72942 -0.11500
H 	H 	0.19650 0.51630 0.71920 0.08100
C 	C 	0.30430 0.43900 0.76040 0.07400
H 	H 	0.33240 0.41980 0.77130 -0.01500
C 	C 	0.31160 0.47410 0.73256 -0.12200
H 	H 	0.34380 0.47950 0.72470 0.08200
C 	C 	0.27090 0.50140 0.71640 0.05300
C 	C 	0.27630 0.53140 0.68569 0.10400
C 	C 	0.45990 0.59870 0.63895 0.06700
H 	H 	0.48820 0.60160 0.65110 -0.00600
C 	C 	0.41460 0.58060 0.65155 -0.11700
H 	H 	0.41210 0.56890 0.67190 0.08000
C 	C 	0.42550 0.60800 0.59372 0.07200
H 	H 	0.42920 0.61620 0.57330 -0.01100
C 	C 	0.37910 0.59210 0.60462 -0.11900
H 	H 	0.35140 0.58980 0.59200 0.08000
C 	C 	0.37310 0.57960 0.63430 0.05300
C 	C 	0.32380 0.56630 0.64709 0.10200
N 	N 	0.21250 0.57160 0.34148 -0.27900
N 	N 	0.06300 0.98580 0.41521 -0.28100
N 	N 	0.06726 0.56770 0.53049 -0.27200
N 	N 	0.13670 0.31930 0.40641 -0.13400
N 	N 	0.10452 0.31600 0.45436 -0.14300
N 	N 	0.13999 0.46180 0.43597 -0.13600
N 	N 	0.11235 0.61400 0.59242 -0.27600
N 	N 	0.26050 0.43060 0.77262 -0.27700
N 	N 	0.46541 0.61240 0.61037 -0.27200
N 	N 	0.23482 0.54500 0.67076 -0.14000
N 	N 	0.32171 0.54130 0.67538 -0.14000
N 	N 	0.28507 0.57930 0.63003 -0.14100
Zn	Zn	0.54931 0.86111 0.43141 1.16400
Zn	Zn	0.74746 0.85077 0.69015 1.16500
Zn	Zn	0.53281 0.65011 0.59271 1.16400
I 	I 	0.48246 0.95682 0.40542 -0.37000
I 	I 	0.54532 0.67878 0.44240 -0.37300
I 	I 	0.83871 0.83833 0.67793 -0.37400
I 	I 	0.69606 0.69588 0.69745 -0.36600
I 	I 	0.57962 0.72888 0.63411 -0.36500
I 	I 	0.52024 0.73275 0.54376 -0.38400
C 	C 	0.69220 0.88290 0.63592 0.07600
H 	H 	0.69200 0.81350 0.63570 -0.01000
C 	C 	0.67170 0.93230 0.61301 -0.11900
H 	H 	0.65770 0.89730 0.59720 0.08400
C 	C 	0.71230 0.02590 0.65831 0.07600
H 	H 	0.72690 0.05920 0.67420 -0.01600
C 	C 	0.69220 0.08030 0.63633 -0.12500
H 	H 	0.69260 0.14970 0.63710 0.07700
C 	C 	0.67140 0.03220 0.61307 0.06400
C 	C 	0.64870 0.08740 0.58866 0.10400
C 	C 	0.57120 0.45400 0.60695 0.08500
H 	H 	0.56430 0.47650 0.62610 -0.01500
C 	C 	0.58900 0.36120 0.60358 -0.13700
H 	H 	0.59490 0.32090 0.62000 0.09900
C 	C 	0.57330 0.48240 0.55857 0.08900
H 	H 	0.56880 0.52550 0.54260 -0.01200
C 	C 	0.59040 0.39010 0.55310 -0.13200
H 	H 	0.59660 0.36990 0.53370 0.08700
C 	C 	0.59850 0.32700 0.57576 0.06400
C 	C 	0.61470 0.22490 0.57128 0.09300
C 	C 	0.55400 0.02580 0.47401 0.06800
H 	H 	0.53290 0.05620 0.46020 -0.00400
C 	C 	0.56930 0.07890 0.49723 -0.12300
H 	H 	0.55890 0.14470 0.49960 0.08400
C 	C 	0.59630 0.88950 0.48908 0.06700
H 	H 	0.60540 0.82300 0.48650 -0.00800
C 	C 	0.61380 0.94010 0.51328 -0.11200
H 	H 	0.63490 0.90850 0.52680 0.07800
C 	C 	0.60040 0.03570 0.51759 0.05000
C 	C 	0.61680 0.09010 0.54370 0.10100
C 	C 	0.65710 0.87430 0.41904 0.07500
H 	H 	0.65960 0.85480 0.43880 -0.01900
C 	C 	0.69990 0.88920 0.40367 -0.12400
H 	H 	0.73110 0.88070 0.41270 0.08000
C 	C 	0.60950 0.91230 0.37949 0.06300
H 	H 	0.57780 0.92040 0.37100 -0.01000
C 	C 	0.65040 0.92800 0.36259 -0.11900
H 	H 	0.64700 0.94630 0.34280 0.08100
C 	C 	0.69660 0.91670 0.37469 0.05400
C 	C 	0.74150 0.93160 0.35722 0.10300
C 	C 	0.72130 0.03910 0.24261 0.06400
H 	H 	0.68970 0.04200 0.23380 -0.00000
C 	C 	0.72520 0.00400 0.27058 -0.11400
H 	H 	0.69650 0.98370 0.28080 0.08100
C 	C 	0.80430 0.06100 0.23960 0.07400
H 	H 	0.83240 0.08020 0.22870 -0.01500
C 	C 	0.81160 0.02590 0.26744 -0.12200
H 	H 	0.84380 0.02050 0.27530 0.08200
C 	C 	0.77090 0.99860 0.28360 0.05300
C 	C 	0.77630 0.96860 0.31431 0.10400
C 	C 	0.95990 0.90130 0.36105 0.06700
H 	H 	0.98820 0.89840 0.34890 -0.00600
C 	C 	0.91460 0.91940 0.34845 -0.11700
H 	H 	0.91210 0.93110 0.32810 0.08000
C 	C 	0.92550 0.89200 0.40628 0.07200
H 	H 	0.92920 0.88380 0.42670 -0.01100
C 	C 	0.87910 0.90790 0.39538 -0.11900
H 	H 	0.85140 0.91020 0.40800 0.08000
C 	C 	0.87310 0.92040 0.36570 0.05300
C 	C 	0.82380 0.93370 0.35291 0.10200
N 	N 	0.71250 0.92840 0.65852 -0.27900
N 	N 	0.56300 0.51420 0.58479 -0.27900
N 	N 	0.56726 0.93230 0.46951 -0.27200
N 	N 	0.63670 0.18070 0.59359 -0.13400
N 	N 	0.60452 0.18400 0.54564 -0.14300
N 	N 	0.63999 0.03820 0.56403 -0.13600
N 	N 	0.61235 0.88600 0.40758 -0.27600
N 	N 	0.76050 0.06940 0.22738 -0.27700
N 	N 	0.96541 0.88760 0.38963 -0.27200
N 	N 	0.73482 0.95500 0.32924 -0.14000
N 	N 	0.82171 0.95870 0.32462 -0.14000
N 	N 	0.78507 0.92070 0.36997 -0.14100
Zn	Zn	0.95069 0.13889 0.93141 1.16400
Zn	Zn	0.75254 0.14923 0.19015 1.16500
Zn	Zn	0.96719 0.34989 0.09271 1.16400
I 	I 	0.01754 0.04318 0.90542 -0.36900
I 	I 	0.95468 0.32122 0.94240 -0.37300
I 	I 	0.66129 0.16167 0.17793 -0.37400
I 	I 	0.80394 0.30412 0.19745 -0.36700
I 	I 	0.92038 0.27112 0.13411 -0.36500
I 	I 	0.97976 0.26725 0.04376 -0.38400
C 	C 	0.80780 0.11710 0.13592 0.07700
H 	H 	0.80800 0.18650 0.13570 -0.01100
C 	C 	0.82830 0.06770 0.11301 -0.12100
H 	H 	0.84230 0.10270 0.09720 0.08400
C 	C 	0.78770 0.97410 0.15831 0.07700
H 	H 	0.77310 0.94080 0.17420 -0.01600
C 	C 	0.80780 0.91970 0.13633 -0.12600
H 	H 	0.80740 0.85030 0.13710 0.07800
C 	C 	0.82860 0.96780 0.11307 0.06600
C 	C 	0.85130 0.91260 0.08866 0.10400
C 	C 	0.92880 0.54600 0.10695 0.08500
H 	H 	0.93570 0.52350 0.12610 -0.01500
C 	C 	0.91100 0.63880 0.10358 -0.13700
H 	H 	0.90510 0.67910 0.12000 0.09900
C 	C 	0.92670 0.51760 0.05857 0.08900
H 	H 	0.93120 0.47450 0.04260 -0.01200
C 	C 	0.90960 0.60990 0.05310 -0.13200
H 	H 	0.90340 0.63010 0.03370 0.08700
C 	C 	0.90150 0.67300 0.07576 0.06400
C 	C 	0.88530 0.77510 0.07128 0.09300
C 	C 	0.94600 0.97420 0.97401 0.06900
H 	H 	0.96710 0.94380 0.96020 -0.00400
C 	C 	0.93070 0.92110 0.99723 -0.12400
H 	H 	0.94110 0.85530 0.99960 0.08500
C 	C 	0.90370 0.11050 0.98908 0.06700
H 	H 	0.89460 0.17700 0.98650 -0.00800
C 	C 	0.88620 0.05990 0.01328 -0.11300
H 	H 	0.86510 0.09150 0.02680 0.07900
C 	C 	0.89960 0.96430 0.01759 0.05100
C 	C 	0.88320 0.90990 0.04370 0.10100
C 	C 	0.84290 0.12570 0.91904 0.07500
H 	H 	0.84040 0.14520 0.93880 -0.01900
C 	C 	0.80010 0.11080 0.90367 -0.12400
H 	H 	0.76890 0.11930 0.91270 0.08000
C 	C 	0.89050 0.08770 0.87949 0.06300
H 	H 	0.92220 0.07960 0.87100 -0.01000
C 	C 	0.84960 0.07200 0.86259 -0.11900
H 	H 	0.85300 0.05370 0.84280 0.08100
C 	C 	0.80340 0.08330 0.87469 0.05400
C 	C 	0.75850 0.06840 0.85722 0.10300
C 	C 	0.77870 0.96090 0.74261 0.06300
H 	H 	0.81030 0.95800 0.73380 0.00000
C 	C 	0.77480 0.99600 0.77058 -0.11100
H 	H 	0.80350 0.01630 0.78080 0.08000
C 	C 	0.69570 0.93900 0.73960 0.07300
H 	H 	0.66760 0.91980 0.72870 -0.01400
C 	C 	0.68840 0.97410 0.76744 -0.12000
H 	H 	0.65620 0.97950 0.77530 0.08200
C 	C 	0.72910 0.00140 0.78360 0.05000
C 	C 	0.72370 0.03140 0.81431 0.10400
C 	C 	0.54010 0.09870 0.86105 0.06700
H 	H 	0.51180 0.10160 0.84890 -0.00600
C 	C 	0.58540 0.08060 0.84845 -0.11700
H 	H 	0.58790 0.06890 0.82810 0.08000
C 	C 	0.57450 0.10800 0.90628 0.07200
H 	H 	0.57080 0.11620 0.92670 -0.01100
C 	C 	0.62090 0.09210 0.89538 -0.11900
H 	H 	0.64860 0.08980 0.90800 0.08000
C 	C 	0.62690 0.07960 0.86570 0.05300
C 	C 	0.67620 0.06630 0.85291 0.10200
N 	N 	0.78750 0.07160 0.15852 -0.27900
N 	N 	0.93700 0.48580 0.08479 -0.27900
N 	N 	0.93274 0.06770 0.96951 -0.27300
N 	N 	0.86330 0.81930 0.09359 -0.13400
N 	N 	0.89548 0.81600 0.04564 -0.14300
N 	N 	0.86001 0.96180 0.06403 -0.13600
N 	N 	0.88765 0.11400 0.90758 -0.27600
N 	N 	0.73950 0.93060 0.72738 -0.27600
N 	N 	0.53459 0.11240 0.88963 -0.27200
N 	N 	0.76518 0.04500 0.82924 -0.14000
N 	N 	0.67829 0.04130 0.82462 -0.14000
N 	N 	0.71493 0.07930 0.86997 -0.14100
Zn	Zn	0.54931 0.63889 0.93141 1.16400
Zn	Zn	0.74746 0.64923 0.19015 1.16500
Zn	Zn	0.53281 0.84989 0.09271 1.16400
I 	I 	0.48246 0.54318 0.90542 -0.36900
I 	I 	0.54532 0.82122 0.94240 -0.37300
I 	I 	0.83871 0.66167 0.17793 -0.37400
I 	I 	0.69606 0.80412 0.19745 -0.36700
I 	I 	0.57962 0.77112 0.13411 -0.36500
I 	I 	0.52024 0.76725 0.04376 -0.38400
C 	C 	0.69220 0.61710 0.13592 0.07700
H 	H 	0.69200 0.68650 0.13570 -0.01100
C 	C 	0.67170 0.56770 0.11301 -0.12000
H 	H 	0.65770 0.60270 0.09720 0.08400
C 	C 	0.71230 0.47410 0.15831 0.07700
H 	H 	0.72690 0.44080 0.17420 -0.01600
C 	C 	0.69220 0.41970 0.13633 -0.12600
H 	H 	0.69260 0.35030 0.13710 0.07800
C 	C 	0.67140 0.46780 0.11307 0.06500
C 	C 	0.64870 0.41260 0.08866 0.10400
C 	C 	0.57120 0.04600 0.10695 0.08600
H 	H 	0.56430 0.02350 0.12610 -0.01500
C 	C 	0.58900 0.13880 0.10358 -0.13700
H 	H 	0.59490 0.17910 0.12000 0.09900
C 	C 	0.57330 0.01760 0.05857 0.09000
H 	H 	0.56880 0.97450 0.04260 -0.01200
C 	C 	0.59040 0.10990 0.05310 -0.13300
H 	H 	0.59660 0.13010 0.03370 0.08700
C 	C 	0.59850 0.17300 0.07576 0.06400
C 	C 	0.61470 0.27510 0.07128 0.09300
C 	C 	0.55400 0.47420 0.97401 0.06800
H 	H 	0.53290 0.44380 0.96020 -0.00400
C 	C 	0.56930 0.42110 0.99723 -0.12400
H 	H 	0.55890 0.35530 0.99960 0.08400
C 	C 	0.59630 0.61050 0.98908 0.06700
H 	H 	0.60540 0.67700 0.98650 -0.00800
C 	C 	0.61380 0.55990 0.01328 -0.11200
H 	H 	0.63490 0.59150 0.02680 0.07800
C 	C 	0.60040 0.46430 0.01759 0.05000
C 	C 	0.61680 0.40990 0.04370 0.10100
C 	C 	0.65710 0.62570 0.91904 0.07500
H 	H 	0.65960 0.64520 0.93880 -0.01900
C 	C 	0.69990 0.61080 0.90367 -0.12400
H 	H 	0.73110 0.61930 0.91270 0.08000
C 	C 	0.60950 0.58770 0.87949 0.06300
H 	H 	0.57780 0.57960 0.87100 -0.01000
C 	C 	0.65040 0.57200 0.86259 -0.11900
H 	H 	0.64700 0.55370 0.84280 0.08100
C 	C 	0.69660 0.58330 0.87469 0.05400
C 	C 	0.74150 0.56840 0.85722 0.10300
C 	C 	0.72130 0.46090 0.74261 0.06500
H 	H 	0.68970 0.45800 0.73380 -0.00000
C 	C 	0.72520 0.49600 0.77058 -0.11500
H 	H 	0.69650 0.51630 0.78080 0.08100
C 	C 	0.80430 0.43900 0.73960 0.07400
H 	H 	0.83240 0.41980 0.72870 -0.01500
C 	C 	0.81160 0.47410 0.76744 -0.12200
H 	H 	0.84380 0.47950 0.77530 0.08200
C 	C 	0.77090 0.50140 0.78360 0.05300
C 	C 	0.77630 0.53140 0.81431 0.10400
C 	C 	0.95990 0.59870 0.86105 0.06700
H 	H 	0.98820 0.60160 0.84890 -0.00600
C 	C 	0.91460 0.58060 0.84845 -0.11700
H 	H 	0.91210 0.56890 0.82810 0.08000
C 	C 	0.92550 0.60800 0.90628 0.07200
H 	H 	0.92920 0.61620 0.92670 -0.01100
C 	C 	0.87910 0.59210 0.89538 -0.11900
H 	H 	0.85140 0.58980 0.90800 0.08000
C 	C 	0.87310 0.57960 0.86570 0.05300
C 	C 	0.82380 0.56630 0.85291 0.10200
N 	N 	0.71250 0.57160 0.15852 -0.27900
N 	N 	0.56300 0.98580 0.08479 -0.28000
N 	N 	0.56726 0.56770 0.96951 -0.27200
N 	N 	0.63670 0.31930 0.09359 -0.13400
N 	N 	0.60452 0.31600 0.04564 -0.14300
N 	N 	0.63999 0.46180 0.06403 -0.13600
N 	N 	0.61235 0.61400 0.90758 -0.27600
N 	N 	0.76050 0.43060 0.72738 -0.27700
N 	N 	0.96541 0.61240 0.88963 -0.27200
N 	N 	0.73482 0.54500 0.82924 -0.14000
N 	N 	0.82171 0.54130 0.82462 -0.14000
N 	N 	0.78507 0.57930 0.86997 -0.14100
Zn	Zn	0.95069 0.36111 0.43141 1.16400
Zn	Zn	0.75254 0.35077 0.69015 1.16500
Zn	Zn	0.96719 0.15011 0.59271 1.16400
I 	I 	0.01754 0.45682 0.40542 -0.36900
I 	I 	0.95468 0.17878 0.44240 -0.37400
I 	I 	0.66129 0.33833 0.67793 -0.37400
I 	I 	0.80394 0.19588 0.69745 -0.36700
I 	I 	0.92038 0.22888 0.63411 -0.36500
I 	I 	0.97976 0.23275 0.54376 -0.38400
C 	C 	0.80780 0.38290 0.63592 0.07700
H 	H 	0.80800 0.31350 0.63570 -0.01100
C 	C 	0.82830 0.43230 0.61301 -0.12000
H 	H 	0.84230 0.39730 0.59720 0.08400
C 	C 	0.78770 0.52590 0.65831 0.07700
H 	H 	0.77310 0.55920 0.67420 -0.01600
C 	C 	0.80780 0.58030 0.63633 -0.12600
H 	H 	0.80740 0.64970 0.63710 0.07800
C 	C 	0.82860 0.53220 0.61307 0.06500
C 	C 	0.85130 0.58740 0.58866 0.10400
C 	C 	0.92880 0.95400 0.60695 0.08700
H 	H 	0.93570 0.97650 0.62610 -0.01500
C 	C 	0.91100 0.86120 0.60358 -0.13800
H 	H 	0.90510 0.82090 0.62000 0.09900
C 	C 	0.92670 0.98240 0.55857 0.09200
H 	H 	0.93120 0.02550 0.54260 -0.01300
C 	C 	0.90960 0.89010 0.55310 -0.13400
H 	H 	0.90340 0.86990 0.53370 0.08800
C 	C 	0.90150 0.82700 0.57576 0.06500
C 	C 	0.88530 0.72490 0.57128 0.09300
C 	C 	0.94600 0.52580 0.47401 0.06800
H 	H 	0.96710 0.55620 0.46020 -0.00400
C 	C 	0.93070 0.57890 0.49723 -0.12400
H 	H 	0.94110 0.64470 0.49960 0.08400
C 	C 	0.90370 0.38950 0.48908 0.06700
H 	H 	0.89460 0.32300 0.48650 -0.00800
C 	C 	0.88620 0.44010 0.51328 -0.11200
H 	H 	0.86510 0.40850 0.52680 0.07800
C 	C 	0.89960 0.53570 0.51759 0.05000
C 	C 	0.88320 0.59010 0.54370 0.10100
C 	C 	0.84290 0.37430 0.41904 0.07500
H 	H 	0.84040 0.35480 0.43880 -0.01900
C 	C 	0.80010 0.38920 0.40367 -0.12400
H 	H 	0.76890 0.38070 0.41270 0.08000
C 	C 	0.89050 0.41230 0.37949 0.06300
H 	H 	0.92220 0.42040 0.37100 -0.01000
C 	C 	0.84960 0.42800 0.36259 -0.11900
H 	H 	0.85300 0.44630 0.34280 0.08100
C 	C 	0.80340 0.41670 0.37469 0.05400
C 	C 	0.75850 0.43160 0.35722 0.10300
C 	C 	0.77870 0.53910 0.24261 0.06500
H 	H 	0.81030 0.54200 0.23380 -0.00000
C 	C 	0.77480 0.50400 0.27058 -0.11500
H 	H 	0.80350 0.48370 0.28080 0.08100
C 	C 	0.69570 0.56100 0.23960 0.07400
H 	H 	0.66760 0.58020 0.22870 -0.01500
C 	C 	0.68840 0.52590 0.26744 -0.12200
H 	H 	0.65620 0.52050 0.27530 0.08200
C 	C 	0.72910 0.49860 0.28360 0.05300
C 	C 	0.72370 0.46860 0.31431 0.10400
C 	C 	0.54010 0.40130 0.36105 0.06700
H 	H 	0.51180 0.39840 0.34890 -0.00600
C 	C 	0.58540 0.41940 0.34845 -0.11700
H 	H 	0.58790 0.43110 0.32810 0.08000
C 	C 	0.57450 0.39200 0.40628 0.07200
H 	H 	0.57080 0.38380 0.42670 -0.01100
C 	C 	0.62090 0.40790 0.39538 -0.11900
H 	H 	0.64860 0.41020 0.40800 0.08000
C 	C 	0.62690 0.42040 0.36570 0.05300
C 	C 	0.67620 0.43370 0.35291 0.10200
N 	N 	0.78750 0.42840 0.65852 -0.27900
N 	N 	0.93700 0.01420 0.58479 -0.28100
N 	N 	0.93274 0.43230 0.46951 -0.27200
N 	N 	0.86330 0.68070 0.59359 -0.13400
N 	N 	0.89548 0.68400 0.54564 -0.14300
N 	N 	0.86001 0.53820 0.56403 -0.13600
N 	N 	0.88765 0.38600 0.40758 -0.27600
N 	N 	0.73950 0.56940 0.22738 -0.27700
N 	N 	0.53459 0.38760 0.38963 -0.27200
N 	N 	0.76518 0.45500 0.32924 -0.14000
N 	N 	0.67829 0.45870 0.32462 -0.14000
N 	N 	0.71493 0.42070 0.36997 -0.14100
Zn	Zn	0.45069 0.13889 0.56858 1.16400
Zn	Zn	0.25254 0.14923 0.30985 1.16500
Zn	Zn	0.46719 0.34989 0.40729 1.16400
I 	I 	0.51754 0.04318 0.59457 -0.37000
I 	I 	0.45468 0.32122 0.55760 -0.37300
I 	I 	0.16129 0.16167 0.32207 -0.37400
I 	I 	0.30394 0.30412 0.30255 -0.36600
I 	I 	0.42038 0.27112 0.36589 -0.36500
I 	I 	0.47976 0.26725 0.45624 -0.38400
C 	C 	0.30780 0.11710 0.36408 0.07600
H 	H 	0.30800 0.18650 0.36430 -0.01000
C 	C 	0.32830 0.06770 0.38699 -0.11900
H 	H 	0.34230 0.10270 0.40280 0.08400
C 	C 	0.28770 0.97410 0.34169 0.07600
H 	H 	0.27310 0.94080 0.32580 -0.01600
C 	C 	0.30780 0.91970 0.36367 -0.12500
H 	H 	0.30740 0.85030 0.36290 0.07700
C 	C 	0.32860 0.96780 0.38693 0.06400
C 	C 	0.35130 0.91260 0.41134 0.10400
C 	C 	0.42880 0.54600 0.39305 0.08500
H 	H 	0.43570 0.52350 0.37390 -0.01500
C 	C 	0.41100 0.63880 0.39642 -0.13700
H 	H 	0.40510 0.67910 0.38000 0.09900
C 	C 	0.42670 0.51760 0.44143 0.08900
H 	H 	0.43120 0.47450 0.45740 -0.01200
C 	C 	0.40960 0.60990 0.44690 -0.13200
H 	H 	0.40340 0.63010 0.46630 0.08700
C 	C 	0.40150 0.67300 0.42424 0.06400
C 	C 	0.38530 0.77510 0.42872 0.09300
C 	C 	0.44600 0.97420 0.52599 0.06800
H 	H 	0.46710 0.94380 0.53980 -0.00400
C 	C 	0.43070 0.92110 0.50277 -0.12300
H 	H 	0.44110 0.85530 0.50040 0.08400
C 	C 	0.40370 0.11050 0.51092 0.06700
H 	H 	0.39460 0.17700 0.51350 -0.00800
C 	C 	0.38620 0.05990 0.48672 -0.11200
H 	H 	0.36510 0.09150 0.47320 0.07800
C 	C 	0.39960 0.96430 0.48241 0.05000
C 	C 	0.38320 0.90990 0.45630 0.10100
C 	C 	0.34290 0.12570 0.58096 0.07500
H 	H 	0.34040 0.14520 0.56120 -0.01900
C 	C 	0.30010 0.11080 0.59633 -0.12400
H 	H 	0.26890 0.11930 0.58730 0.08000
C 	C 	0.39050 0.08770 0.62051 0.06300
H 	H 	0.42220 0.07960 0.62900 -0.01000
C 	C 	0.34960 0.07200 0.63741 -0.11900
H 	H 	0.35300 0.05370 0.65720 0.08100
C 	C 	0.30340 0.08330 0.62531 0.05400
C 	C 	0.25850 0.06840 0.64278 0.10300
C 	C 	0.27870 0.96090 0.75739 0.06400
H 	H 	0.31030 0.95800 0.76620 -0.00000
C 	C 	0.27480 0.99600 0.72942 -0.11400
H 	H 	0.30350 0.01630 0.71920 0.08100
C 	C 	0.19570 0.93900 0.76040 0.07400
H 	H 	0.16760 0.91980 0.77130 -0.01500
C 	C 	0.18840 0.97410 0.73256 -0.12200
H 	H 	0.15620 0.97950 0.72470 0.08200
C 	C 	0.22910 0.00140 0.71640 0.05300
C 	C 	0.22370 0.03140 0.68569 0.10400
C 	C 	0.04010 0.09870 0.63895 0.06700
H 	H 	0.01180 0.10160 0.65110 -0.00600
C 	C 	0.08540 0.08060 0.65155 -0.11700
H 	H 	0.08790 0.06890 0.67190 0.08000
C 	C 	0.07450 0.10800 0.59372 0.07200
H 	H 	0.07080 0.11620 0.57330 -0.01100
C 	C 	0.12090 0.09210 0.60462 -0.11900
H 	H 	0.14860 0.08980 0.59200 0.08000
C 	C 	0.12690 0.07960 0.63430 0.05300
C 	C 	0.17620 0.06630 0.64709 0.10200
N 	N 	0.28750 0.07160 0.34148 -0.27900
N 	N 	0.43700 0.48580 0.41521 -0.27900
N 	N 	0.43274 0.06770 0.53049 -0.27200
N 	N 	0.36330 0.81930 0.40641 -0.13400
N 	N 	0.39548 0.81600 0.45436 -0.14300
N 	N 	0.36001 0.96180 0.43597 -0.13600
N 	N 	0.38765 0.11400 0.59242 -0.27600
N 	N 	0.23950 0.93060 0.77262 -0.27700
N 	N 	0.03459 0.11240 0.61037 -0.27200
N 	N 	0.26518 0.04500 0.67076 -0.14000
N 	N 	0.17829 0.04130 0.67538 -0.14000
N 	N 	0.21493 0.07930 0.63003 -0.14100
Zn	Zn	0.04931 0.86111 0.06858 1.16400
Zn	Zn	0.24746 0.85077 0.80985 1.16500
Zn	Zn	0.03281 0.65011 0.90729 1.16400
I 	I 	0.98246 0.95682 0.09457 -0.36900
I 	I 	0.04532 0.67878 0.05760 -0.37300
I 	I 	0.33871 0.83833 0.82207 -0.37400
I 	I 	0.19606 0.69588 0.80255 -0.36700
I 	I 	0.07962 0.72888 0.86589 -0.36500
I 	I 	0.02024 0.73275 0.95624 -0.38400
C 	C 	0.19220 0.88290 0.86408 0.07700
H 	H 	0.19200 0.81350 0.86430 -0.01100
C 	C 	0.17170 0.93230 0.88699 -0.12100
H 	H 	0.15770 0.89730 0.90280 0.08400
C 	C 	0.21230 0.02590 0.84169 0.07700
H 	H 	0.22690 0.05920 0.82580 -0.01600
C 	C 	0.19220 0.08030 0.86367 -0.12600
H 	H 	0.19260 0.14970 0.86290 0.07800
C 	C 	0.17140 0.03220 0.88693 0.06600
C 	C 	0.14870 0.08740 0.91134 0.10400
C 	C 	0.07120 0.45400 0.89305 0.08500
H 	H 	0.06430 0.47650 0.87390 -0.01500
C 	C 	0.08900 0.36120 0.89642 -0.13700
H 	H 	0.09490 0.32090 0.88000 0.09900
C 	C 	0.07330 0.48240 0.94143 0.08900
H 	H 	0.06880 0.52550 0.95740 -0.01200
C 	C 	0.09040 0.39010 0.94690 -0.13200
H 	H 	0.09660 0.36990 0.96630 0.08700
C 	C 	0.09850 0.32700 0.92424 0.06400
C 	C 	0.11470 0.22490 0.92872 0.09300
C 	C 	0.05400 0.02580 0.02599 0.06900
H 	H 	0.03290 0.05620 0.03980 -0.00400
C 	C 	0.06930 0.07890 0.00277 -0.12400
H 	H 	0.05890 0.14470 0.00040 0.08500
C 	C 	0.09630 0.88950 0.01092 0.06700
H 	H 	0.10540 0.82300 0.01350 -0.00800
C 	C 	0.11380 0.94010 0.98672 -0.11300
H 	H 	0.13490 0.90850 0.97320 0.07900
C 	C 	0.10040 0.03570 0.98241 0.05100
C 	C 	0.11680 0.09010 0.95630 0.10100
C 	C 	0.15710 0.87430 0.08096 0.07500
H 	H 	0.15960 0.85480 0.06120 -0.01900
C 	C 	0.19990 0.88920 0.09633 -0.12400
H 	H 	0.23110 0.88070 0.08730 0.08000
C 	C 	0.10950 0.91230 0.12051 0.06300
H 	H 	0.07780 0.92040 0.12900 -0.01000
C 	C 	0.15040 0.92800 0.13741 -0.11900
H 	H 	0.14700 0.94630 0.15720 0.08100
C 	C 	0.19660 0.91670 0.12531 0.05400
C 	C 	0.24150 0.93160 0.14278 0.10300
C 	C 	0.22130 0.03910 0.25739 0.06300
H 	H 	0.18970 0.04200 0.26620 0.00000
C 	C 	0.22520 0.00400 0.22942 -0.11100
H 	H 	0.19650 0.98370 0.21920 0.08000
C 	C 	0.30430 0.06100 0.26040 0.07300
H 	H 	0.33240 0.08020 0.27130 -0.01400
C 	C 	0.31160 0.02590 0.23256 -0.12000
H 	H 	0.34380 0.02050 0.22470 0.08200
C 	C 	0.27090 0.99860 0.21640 0.05000
C 	C 	0.27630 0.96860 0.18569 0.10400
C 	C 	0.45990 0.90130 0.13895 0.06700
H 	H 	0.48820 0.89840 0.15110 -0.00600
C 	C 	0.41460 0.91940 0.15155 -0.11700
H 	H 	0.41210 0.93110 0.17190 0.08000
C 	C 	0.42550 0.89200 0.09372 0.07200
H 	H 	0.42920 0.88380 0.07330 -0.01100
C 	C 	0.37910 0.90790 0.10462 -0.11900
H 	H 	0.35140 0.91020 0.09200 0.08000
C 	C 	0.37310 0.92040 0.13430 0.05300
C 	C 	0.32380 0.93370 0.14709 0.10200
N 	N 	0.21250 0.92840 0.84148 -0.27900
N 	N 	0.06300 0.51420 0.91521 -0.27900
N 	N 	0.06726 0.93230 0.03049 -0.27300
N 	N 	0.13670 0.18070 0.90641 -0.13400
N 	N 	0.10452 0.18400 0.95436 -0.14300
N 	N 	0.13999 0.03820 0.93597 -0.13600
N 	N 	0.11235 0.88600 0.09242 -0.27600
N 	N 	0.26050 0.06940 0.27262 -0.27600
N 	N 	0.46541 0.88760 0.11037 -0.27200
N 	N 	0.23482 0.95500 0.17076 -0.14000
N 	N 	0.32171 0.95870 0.17538 -0.14000
N 	N 	0.28507 0.92070 0.13003 -0.14100
