data_crystal

_cell_length_a 13.79340
_cell_length_b 27.42400
_cell_length_c 45.90700
_cell_angle_alpha 90.00000
_cell_angle_beta  90.00000
_cell_angle_gamma 90.00000

_symmetry_space_group_name_	'P 1'
_symmetry_space_group_name_H-M	'P 1'

loop_
_symmetry_equiv_pos_as_xyz
  x,y,z

loop_
_atom_site_label
_atom_site_type_symbol
_atom_site_fract_x
_atom_site_fract_y
_atom_site_fract_z
_atom_site_charge
Zn	Zn	0.14680 0.05145 0.57114 1.16200
Zn	Zn	0.35628 0.02786 0.41344 1.16300
Zn	Zn	0.14933 0.24383 0.31153 1.16300
Zn	Zn	0.85320 0.44855 0.07114 1.16200
Zn	Zn	0.64372 0.47214 0.91344 1.16300
Zn	Zn	0.85067 0.25617 0.81153 1.16300
Zn	Zn	0.64680 0.94855 0.92886 1.16200
Zn	Zn	0.85628 0.97214 0.08656 1.16300
Zn	Zn	0.64933 0.75617 0.18847 1.16300
Zn	Zn	0.35320 0.55145 0.42886 1.16200
Zn	Zn	0.14372 0.52786 0.58656 1.16300
Zn	Zn	0.35067 0.74383 0.68847 1.16300
H 	H 	0.49280 0.05060 0.46310 -0.00600
H 	H 	0.64900 0.08000 0.47060 0.08400
H 	H 	0.51460 0.07390 0.37910 -0.01400
H 	H 	0.67030 0.10420 0.38420 0.09600
H 	H 	0.93790 0.22700 0.32830 -0.01300
H 	H 	0.84880 0.19320 0.36600 0.07400
H 	H 	0.18470 0.18730 0.36520 -0.00700
H 	H 	0.10120 0.15230 0.40360 0.08200
H 	H 	0.18200 0.10670 0.51500 -0.01100
H 	H 	0.09710 0.13410 0.47470 0.07600
H 	H 	0.95400 0.03310 0.54290 -0.00700
H 	H 	0.86400 0.05790 0.50300 0.08500
H 	H 	0.08010 0.08060 0.63130 -0.00800
H 	H 	0.05630 0.14930 0.65940 0.07800
H 	H 	0.14840 0.16000 0.56310 -0.01900
H 	H 	0.12470 0.23190 0.58880 0.07800
H 	H 	0.11010 0.42280 0.57050 -0.00600
H 	H 	0.09060 0.34720 0.59220 0.07700
H 	H 	0.09690 0.48860 0.64670 -0.00500
H 	H 	0.07240 0.41530 0.67050 0.07800
H 	H 	0.91140 0.33550 0.77170 -0.01000
H 	H 	0.97360 0.34610 0.72470 0.07800
H 	H 	0.96660 0.19460 0.76900 0.00100
H 	H 	0.02790 0.20130 0.72200 0.08000
H 	H 	0.50720 0.44940 0.96310 -0.00600
H 	H 	0.35100 0.42000 0.97060 0.08400
H 	H 	0.48540 0.42610 0.87910 -0.01400
H 	H 	0.32970 0.39580 0.88420 0.09600
H 	H 	0.06210 0.27300 0.82830 -0.01300
H 	H 	0.15120 0.30680 0.86600 0.07400
H 	H 	0.81530 0.31270 0.86520 -0.00700
H 	H 	0.89880 0.34770 0.90360 0.08100
H 	H 	0.81800 0.39330 0.01500 -0.01000
H 	H 	0.90290 0.36590 0.97470 0.07600
H 	H 	0.04600 0.46690 0.04290 -0.00600
H 	H 	0.13600 0.44210 0.00300 0.08600
H 	H 	0.91990 0.41940 0.13130 -0.00700
H 	H 	0.94370 0.35070 0.15940 0.07900
H 	H 	0.85160 0.34000 0.06310 -0.01800
H 	H 	0.87530 0.26810 0.08880 0.07900
H 	H 	0.88990 0.07720 0.07050 -0.00500
H 	H 	0.90940 0.15280 0.09220 0.07800
H 	H 	0.90310 0.01140 0.14670 -0.00400
H 	H 	0.92760 0.08470 0.17050 0.07900
H 	H 	0.08860 0.16450 0.27170 -0.00900
H 	H 	0.02640 0.15390 0.22470 0.07900
H 	H 	0.03340 0.30540 0.26900 0.00200
H 	H 	0.97210 0.29870 0.22200 0.08100
H 	H 	0.99280 0.94940 0.03690 -0.00600
H 	H 	0.14900 0.92000 0.02940 0.08600
H 	H 	0.01460 0.92610 0.12090 -0.01300
H 	H 	0.17030 0.89580 0.11580 0.09700
H 	H 	0.43790 0.77300 0.17170 -0.01200
H 	H 	0.34880 0.80680 0.13400 0.07500
H 	H 	0.68470 0.81270 0.13480 -0.00600
H 	H 	0.60120 0.84770 0.09640 0.08200
H 	H 	0.68200 0.89330 0.98500 -0.01000
H 	H 	0.59710 0.86590 0.02530 0.07600
H 	H 	0.45400 0.96690 0.95710 -0.00600
H 	H 	0.36400 0.94210 0.99700 0.08600
H 	H 	0.58010 0.91940 0.86870 -0.00700
H 	H 	0.55630 0.85070 0.84060 0.07900
H 	H 	0.64840 0.84000 0.93690 -0.01800
H 	H 	0.62470 0.76810 0.91120 0.07900
H 	H 	0.61010 0.57720 0.92950 -0.00500
H 	H 	0.59060 0.65280 0.90780 0.07800
H 	H 	0.59690 0.51140 0.85330 -0.00400
H 	H 	0.57240 0.58470 0.82950 0.07900
H 	H 	0.41140 0.66450 0.72830 -0.00900
H 	H 	0.47360 0.65390 0.77530 0.07900
H 	H 	0.46660 0.80540 0.73100 0.00200
H 	H 	0.52790 0.79870 0.77800 0.08100
H 	H 	0.00720 0.55060 0.53690 -0.00500
H 	H 	0.85100 0.58000 0.52940 0.08500
H 	H 	0.98540 0.57390 0.62090 -0.01300
H 	H 	0.82970 0.60420 0.61580 0.09600
H 	H 	0.56210 0.72700 0.67170 -0.01200
H 	H 	0.65120 0.69320 0.63400 0.07500
H 	H 	0.31530 0.68730 0.63480 -0.00600
H 	H 	0.39880 0.65230 0.59640 0.08200
H 	H 	0.31800 0.60670 0.48500 -0.01000
H 	H 	0.40290 0.63410 0.52530 0.07600
H 	H 	0.54600 0.53310 0.45710 -0.00600
H 	H 	0.63600 0.55790 0.49700 0.08600
H 	H 	0.41990 0.58060 0.36870 -0.00700
H 	H 	0.44370 0.64930 0.34060 0.07900
H 	H 	0.35160 0.66000 0.43690 -0.01800
H 	H 	0.37530 0.73190 0.41120 0.07900
H 	H 	0.38990 0.92280 0.42950 -0.00500
H 	H 	0.40940 0.84720 0.40780 0.07800
H 	H 	0.40310 0.98860 0.35330 -0.00400
H 	H 	0.42760 0.91530 0.32950 0.07900
H 	H 	0.58860 0.83550 0.22830 -0.00900
H 	H 	0.52640 0.84610 0.27530 0.07900
H 	H 	0.53340 0.69460 0.23100 0.00200
H 	H 	0.47210 0.70130 0.27800 0.08100
C 	C 	0.52940 0.06150 0.44688 0.07100
C 	C 	0.62260 0.07920 0.45147 -0.12200
C 	C 	0.54240 0.07520 0.39801 0.07900
C 	C 	0.63530 0.09340 0.40077 -0.13100
C 	C 	0.67620 0.09538 0.42823 0.05700
C 	C 	0.77760 0.11253 0.43189 0.09400
C 	C 	0.97130 0.21160 0.34391 0.06900
C 	C 	0.91760 0.19170 0.36627 -0.11700
C 	C 	0.11590 0.18845 0.36539 0.06200
C 	C 	0.06660 0.16775 0.38833 -0.10800
C 	C 	0.96570 0.16966 0.38894 0.05700
C 	C 	0.91300 0.14687 0.41350 0.10600
C 	C 	0.11650 0.09690 0.51257 0.06700
C 	C 	0.06640 0.11330 0.48845 -0.11500
C 	C 	0.98330 0.05379 0.52879 0.06300
C 	C 	0.92920 0.06856 0.50523 -0.11900
C 	C 	0.97130 0.09938 0.48457 0.05000
C 	C 	0.91430 0.11454 0.45859 0.10100
C 	C 	0.08940 0.11178 0.62275 0.05900
C 	C 	0.07490 0.15249 0.63960 -0.11200
C 	C 	0.12900 0.15814 0.58289 0.07300
C 	C 	0.11540 0.20126 0.59807 -0.11800
C 	C 	0.08760 0.19858 0.62725 0.04900
C 	C 	0.07370 0.24276 0.64477 0.10300
C 	C 	0.10380 0.42106 0.59106 0.06300
C 	C 	0.09170 0.37584 0.60380 -0.10900
C 	C 	0.09540 0.45940 0.63555 0.06400
C 	C 	0.08150 0.41590 0.64995 -0.11000
C 	C 	0.08100 0.37275 0.63386 0.04700
C 	C 	0.07090 0.32468 0.64812 0.10500
C 	C 	0.93480 0.30790 0.76131 0.05900
C 	C 	0.97140 0.31460 0.73327 -0.11200
C 	C 	0.96670 0.22557 0.75976 0.06100
C 	C 	0.00360 0.22932 0.73173 -0.11200
C 	C 	0.00450 0.27413 0.71827 0.05000
C 	C 	0.03640 0.27882 0.68744 0.10300
C 	C 	0.47060 0.43850 0.94688 0.07100
C 	C 	0.37740 0.42080 0.95147 -0.12200
C 	C 	0.45760 0.42480 0.89801 0.07900
C 	C 	0.36470 0.40660 0.90077 -0.13100
C 	C 	0.32380 0.40462 0.92823 0.05700
C 	C 	0.22240 0.38747 0.93189 0.09400
C 	C 	0.02870 0.28840 0.84391 0.06800
C 	C 	0.08240 0.30830 0.86627 -0.11600
C 	C 	0.88410 0.31155 0.86539 0.06100
C 	C 	0.93340 0.33225 0.88833 -0.10600
C 	C 	0.03430 0.33034 0.88894 0.05600
C 	C 	0.08700 0.35313 0.91350 0.10700
C 	C 	0.88350 0.40310 0.01257 0.06700
C 	C 	0.93360 0.38670 0.98845 -0.11400
C 	C 	0.01670 0.44621 0.02879 0.06100
C 	C 	0.07080 0.43144 0.00523 -0.11800
C 	C 	0.02870 0.40062 0.98457 0.04900
C 	C 	0.08570 0.38546 0.95859 0.10200
C 	C 	0.91060 0.38822 0.12275 0.05900
C 	C 	0.92510 0.34751 0.13960 -0.11200
C 	C 	0.87100 0.34186 0.08289 0.07300
C 	C 	0.88460 0.29874 0.09807 -0.11800
C 	C 	0.91240 0.30142 0.12725 0.04900
C 	C 	0.92630 0.25724 0.14477 0.10300
C 	C 	0.89620 0.07894 0.09106 0.06300
C 	C 	0.90830 0.12416 0.10380 -0.10900
C 	C 	0.90460 0.04060 0.13555 0.06400
C 	C 	0.91850 0.08410 0.14995 -0.11000
C 	C 	0.91900 0.12725 0.13386 0.04700
C 	C 	0.92910 0.17532 0.14812 0.10500
C 	C 	0.06520 0.19210 0.26131 0.05900
C 	C 	0.02860 0.18540 0.23327 -0.11300
C 	C 	0.03330 0.27443 0.25976 0.06000
C 	C 	0.99640 0.27068 0.23173 -0.11100
C 	C 	0.99550 0.22587 0.21827 0.05000
C 	C 	0.96360 0.22118 0.18744 0.10300
C 	C 	0.02940 0.93850 0.05312 0.07300
C 	C 	0.12260 0.92080 0.04853 -0.12300
C 	C 	0.04240 0.92480 0.10199 0.08000
C 	C 	0.13530 0.90660 0.09923 -0.13200
C 	C 	0.17620 0.90462 0.07177 0.05700
C 	C 	0.27760 0.88747 0.06811 0.09400
C 	C 	0.47130 0.78840 0.15609 0.06800
C 	C 	0.41760 0.80830 0.13373 -0.11600
C 	C 	0.61590 0.81155 0.13461 0.06100
C 	C 	0.56660 0.83225 0.11167 -0.10600
C 	C 	0.46570 0.83034 0.11106 0.05600
C 	C 	0.41300 0.85313 0.08650 0.10700
C 	C 	0.61650 0.90310 0.98743 0.06700
C 	C 	0.56640 0.88670 0.01155 -0.11400
C 	C 	0.48330 0.94621 0.97121 0.06200
C 	C 	0.42920 0.93144 0.99477 -0.11800
C 	C 	0.47130 0.90062 0.01543 0.04900
C 	C 	0.41430 0.88546 0.04141 0.10200
C 	C 	0.58940 0.88822 0.87725 0.05900
C 	C 	0.57490 0.84751 0.86040 -0.11200
C 	C 	0.62900 0.84186 0.91711 0.07300
C 	C 	0.61540 0.79874 0.90193 -0.11800
C 	C 	0.58760 0.80142 0.87275 0.04900
C 	C 	0.57370 0.75724 0.85523 0.10300
C 	C 	0.60380 0.57894 0.90894 0.06300
C 	C 	0.59170 0.62416 0.89620 -0.10900
C 	C 	0.59540 0.54060 0.86445 0.06400
C 	C 	0.58150 0.58410 0.85005 -0.11000
C 	C 	0.58100 0.62725 0.86614 0.04700
C 	C 	0.57090 0.67532 0.85188 0.10500
C 	C 	0.43480 0.69210 0.73869 0.05900
C 	C 	0.47140 0.68540 0.76673 -0.11200
C 	C 	0.46670 0.77443 0.74024 0.06100
C 	C 	0.50360 0.77068 0.76827 -0.11200
C 	C 	0.50450 0.72587 0.78173 0.04900
C 	C 	0.53640 0.72118 0.81256 0.10300
C 	C 	0.97060 0.56150 0.55312 0.07100
C 	C 	0.87740 0.57920 0.54853 -0.12200
C 	C 	0.95760 0.57520 0.60199 0.07900
C 	C 	0.86470 0.59340 0.59923 -0.13100
C 	C 	0.82380 0.59538 0.57177 0.05700
C 	C 	0.72240 0.61253 0.56811 0.09400
C 	C 	0.52870 0.71160 0.65609 0.06800
C 	C 	0.58240 0.69170 0.63373 -0.11600
C 	C 	0.38410 0.68845 0.63461 0.06100
C 	C 	0.43340 0.66775 0.61167 -0.10600
C 	C 	0.53430 0.66966 0.61106 0.05600
C 	C 	0.58700 0.64687 0.58650 0.10700
C 	C 	0.38350 0.59690 0.48743 0.06700
C 	C 	0.43360 0.61330 0.51155 -0.11400
C 	C 	0.51670 0.55379 0.47121 0.06200
C 	C 	0.57080 0.56856 0.49477 -0.11800
C 	C 	0.52870 0.59938 0.51543 0.04900
C 	C 	0.58570 0.61454 0.54141 0.10200
C 	C 	0.41060 0.61178 0.37725 0.05900
C 	C 	0.42510 0.65249 0.36040 -0.11200
C 	C 	0.37100 0.65814 0.41711 0.07300
C 	C 	0.38460 0.70126 0.40193 -0.11800
C 	C 	0.41240 0.69858 0.37275 0.04900
C 	C 	0.42630 0.74276 0.35523 0.10300
C 	C 	0.39620 0.92106 0.40894 0.06300
C 	C 	0.40830 0.87584 0.39620 -0.10900
C 	C 	0.40460 0.95940 0.36445 0.06400
C 	C 	0.41850 0.91590 0.35005 -0.11000
C 	C 	0.41900 0.87275 0.36614 0.04700
C 	C 	0.42910 0.82468 0.35188 0.10500
C 	C 	0.56520 0.80790 0.23869 0.05900
C 	C 	0.52860 0.81460 0.26673 -0.11200
C 	C 	0.53330 0.72557 0.24024 0.06100
C 	C 	0.49640 0.72932 0.26827 -0.11200
C 	C 	0.49550 0.77413 0.28173 0.04900
C 	C 	0.46360 0.77882 0.31256 0.10300
I 	I 	0.05345 0.98394 0.59693 -0.36200
I 	I 	0.33000 0.05379 0.56429 -0.37900
I 	I 	0.28230 0.00838 0.46307 -0.38900
I 	I 	0.26459 0.07353 0.37391 -0.36400
I 	I 	0.16472 0.33448 0.32285 -0.37400
I 	I 	0.30323 0.19250 0.30487 -0.36800
I 	I 	0.94655 0.51606 0.09693 -0.36300
I 	I 	0.67000 0.44621 0.06429 -0.37900
I 	I 	0.71770 0.49162 0.96307 -0.38900
I 	I 	0.73541 0.42647 0.87391 -0.36400
I 	I 	0.83528 0.16552 0.82285 -0.37300
I 	I 	0.69677 0.30750 0.80487 -0.36800
I 	I 	0.55345 0.01606 0.90307 -0.36300
I 	I 	0.83000 0.94621 0.93571 -0.37900
I 	I 	0.78230 0.99162 0.03693 -0.38900
I 	I 	0.76459 0.92647 0.12609 -0.36400
I 	I 	0.66472 0.66552 0.17715 -0.37300
I 	I 	0.80323 0.80750 0.19513 -0.36800
I 	I 	0.44655 0.48394 0.40307 -0.36300
I 	I 	0.17000 0.55379 0.43571 -0.37900
I 	I 	0.21770 0.50838 0.53693 -0.38900
I 	I 	0.23541 0.57353 0.62609 -0.36400
I 	I 	0.33528 0.83448 0.67715 -0.37300
I 	I 	0.19677 0.69250 0.69513 -0.36800
N 	N 	0.48950 0.05942 0.42031 -0.27600
N 	N 	0.06910 0.21027 0.34313 -0.27400
N 	N 	0.07650 0.06757 0.53263 -0.27100
N 	N 	0.81950 0.13510 0.40925 -0.13300
N 	N 	0.96370 0.13787 0.43774 -0.13700
N 	N 	0.82150 0.10184 0.45710 -0.14300
N 	N 	0.11650 0.11435 0.59455 -0.27100
N 	N 	0.10690 0.46264 0.60653 -0.26600
N 	N 	0.93130 0.26399 0.77425 -0.27100
N 	N 	0.08570 0.28580 0.63146 -0.14000
N 	N 	0.04640 0.32371 0.67637 -0.13900
N 	N 	0.04940 0.23731 0.67276 -0.14000
N 	N 	0.51050 0.44058 0.92031 -0.27600
N 	N 	0.93090 0.28973 0.84313 -0.27300
N 	N 	0.92350 0.43243 0.03263 -0.27100
N 	N 	0.18050 0.36490 0.90925 -0.13300
N 	N 	0.03630 0.36213 0.93774 -0.13700
N 	N 	0.17850 0.39816 0.95710 -0.14300
N 	N 	0.88350 0.38565 0.09455 -0.27100
N 	N 	0.89310 0.03736 0.10653 -0.26600
N 	N 	0.06870 0.23601 0.27425 -0.27100
N 	N 	0.91430 0.21420 0.13146 -0.14000
N 	N 	0.95360 0.17629 0.17637 -0.13900
N 	N 	0.95060 0.26269 0.17276 -0.14000
N 	N 	0.98950 0.94058 0.07969 -0.27700
N 	N 	0.56910 0.78973 0.15687 -0.27300
N 	N 	0.57650 0.93243 0.96737 -0.27100
N 	N 	0.31950 0.86490 0.09075 -0.13300
N 	N 	0.46370 0.86213 0.06226 -0.13700
N 	N 	0.32150 0.89816 0.04290 -0.14300
N 	N 	0.61650 0.88565 0.90545 -0.27100
N 	N 	0.60690 0.53736 0.89347 -0.26600
N 	N 	0.43130 0.73601 0.72575 -0.27100
N 	N 	0.58570 0.71420 0.86854 -0.14000
N 	N 	0.54640 0.67629 0.82363 -0.13900
N 	N 	0.54940 0.76269 0.82724 -0.14000
N 	N 	0.01050 0.55942 0.57969 -0.27600
N 	N 	0.43090 0.71027 0.65687 -0.27300
N 	N 	0.42350 0.56757 0.46737 -0.27100
N 	N 	0.68050 0.63510 0.59075 -0.13300
N 	N 	0.53630 0.63787 0.56226 -0.13700
N 	N 	0.67850 0.60184 0.54290 -0.14300
N 	N 	0.38350 0.61435 0.40545 -0.27100
N 	N 	0.39310 0.96264 0.39347 -0.26600
N 	N 	0.56870 0.76399 0.22575 -0.27100
N 	N 	0.41430 0.78580 0.36854 -0.14000
N 	N 	0.45360 0.82371 0.32363 -0.13900
N 	N 	0.45060 0.73731 0.32724 -0.14000
Zn	Zn	0.85320 0.94855 0.42886 1.16300
Zn	Zn	0.64372 0.97214 0.58656 1.16400
Zn	Zn	0.85067 0.75617 0.68847 1.16400
Zn	Zn	0.14680 0.55145 0.92886 1.16300
Zn	Zn	0.35628 0.52786 0.08656 1.16400
Zn	Zn	0.14933 0.74383 0.18847 1.16400
Zn	Zn	0.35320 0.05145 0.07114 1.16300
Zn	Zn	0.14372 0.02786 0.91344 1.16400
Zn	Zn	0.35067 0.24383 0.81153 1.16400
Zn	Zn	0.64680 0.44855 0.57114 1.16300
Zn	Zn	0.85628 0.47214 0.41344 1.16400
Zn	Zn	0.64933 0.25617 0.31153 1.16400
H 	H 	0.50720 0.94940 0.53690 -0.00500
H 	H 	0.35100 0.92000 0.52940 0.08500
H 	H 	0.48540 0.92610 0.62090 -0.01300
H 	H 	0.32970 0.89580 0.61580 0.09700
H 	H 	0.06210 0.77300 0.67170 -0.01200
H 	H 	0.15120 0.80680 0.63400 0.07500
H 	H 	0.81530 0.81270 0.63480 -0.00600
H 	H 	0.89880 0.84770 0.59640 0.08300
H 	H 	0.81800 0.89330 0.48500 -0.01000
H 	H 	0.90290 0.86590 0.52530 0.07700
H 	H 	0.04600 0.96690 0.45710 -0.00600
H 	H 	0.13600 0.94210 0.49700 0.08600
H 	H 	0.91990 0.91940 0.36870 -0.00700
H 	H 	0.94370 0.85070 0.34060 0.07900
H 	H 	0.85160 0.84000 0.43690 -0.01800
H 	H 	0.87530 0.76810 0.41120 0.07900
H 	H 	0.88990 0.57720 0.42950 -0.00500
H 	H 	0.90940 0.65280 0.40780 0.07800
H 	H 	0.90310 0.51140 0.35330 -0.00400
H 	H 	0.92760 0.58470 0.32950 0.07900
H 	H 	0.08860 0.66450 0.22830 -0.00900
H 	H 	0.02640 0.65390 0.27530 0.07900
H 	H 	0.03340 0.80540 0.23100 0.00200
H 	H 	0.97210 0.79870 0.27800 0.08100
H 	H 	0.49280 0.55060 0.03690 -0.00500
H 	H 	0.64900 0.58000 0.02940 0.08500
H 	H 	0.51460 0.57390 0.12090 -0.01300
H 	H 	0.67030 0.60420 0.11580 0.09700
H 	H 	0.93790 0.72700 0.17170 -0.01200
H 	H 	0.84880 0.69320 0.13400 0.07500
H 	H 	0.18470 0.68730 0.13480 -0.00600
H 	H 	0.10120 0.65230 0.09640 0.08200
H 	H 	0.18200 0.60670 0.98500 -0.01000
H 	H 	0.09710 0.63410 0.02530 0.07600
H 	H 	0.95400 0.53310 0.95710 -0.00600
H 	H 	0.86400 0.55790 0.99700 0.08600
H 	H 	0.08010 0.58060 0.86870 -0.00700
H 	H 	0.05630 0.64930 0.84060 0.07900
H 	H 	0.14840 0.66000 0.93690 -0.01800
H 	H 	0.12470 0.73190 0.91120 0.07900
H 	H 	0.11010 0.92280 0.92950 -0.00500
H 	H 	0.09060 0.84720 0.90780 0.07800
H 	H 	0.09690 0.98860 0.85330 -0.00400
H 	H 	0.07240 0.91530 0.82950 0.07900
H 	H 	0.91140 0.83550 0.72830 -0.00900
H 	H 	0.97360 0.84610 0.77530 0.07900
H 	H 	0.96660 0.69460 0.73100 0.00200
H 	H 	0.02790 0.70130 0.77800 0.08100
H 	H 	0.00720 0.05060 0.96310 -0.00600
H 	H 	0.85100 0.08000 0.97060 0.08600
H 	H 	0.98540 0.07390 0.87910 -0.01300
H 	H 	0.82970 0.10420 0.88420 0.09700
H 	H 	0.56210 0.22700 0.82830 -0.01200
H 	H 	0.65120 0.19320 0.86600 0.07500
H 	H 	0.31530 0.18730 0.86520 -0.00600
H 	H 	0.39880 0.15230 0.90360 0.08200
H 	H 	0.31800 0.10670 0.01500 -0.01000
H 	H 	0.40290 0.13410 0.97470 0.07600
H 	H 	0.54600 0.03310 0.04290 -0.00600
H 	H 	0.63600 0.05790 0.00300 0.08600
H 	H 	0.41990 0.08060 0.13130 -0.00700
H 	H 	0.44370 0.14930 0.15940 0.07900
H 	H 	0.35160 0.16000 0.06310 -0.01800
H 	H 	0.37530 0.23190 0.08880 0.07900
H 	H 	0.38990 0.42280 0.07050 -0.00500
H 	H 	0.40940 0.34720 0.09220 0.07800
H 	H 	0.40310 0.48860 0.14670 -0.00400
H 	H 	0.42760 0.41530 0.17050 0.07900
H 	H 	0.58860 0.33550 0.27170 -0.00900
H 	H 	0.52640 0.34610 0.22470 0.07900
H 	H 	0.53340 0.19460 0.26900 0.00200
H 	H 	0.47210 0.20130 0.22200 0.08100
H 	H 	0.99280 0.44940 0.46310 -0.00500
H 	H 	0.14900 0.42000 0.47060 0.08500
H 	H 	0.01460 0.42610 0.37910 -0.01300
H 	H 	0.17030 0.39580 0.38420 0.09600
H 	H 	0.43790 0.27300 0.32830 -0.01200
H 	H 	0.34880 0.30680 0.36600 0.07500
H 	H 	0.68470 0.31270 0.36520 -0.00600
H 	H 	0.60120 0.34770 0.40360 0.08200
H 	H 	0.68200 0.39330 0.51500 -0.01000
H 	H 	0.59710 0.36590 0.47470 0.07600
H 	H 	0.45400 0.46690 0.54290 -0.00600
H 	H 	0.36400 0.44210 0.50300 0.08600
H 	H 	0.58010 0.41940 0.63130 -0.00700
H 	H 	0.55630 0.35070 0.65940 0.07900
H 	H 	0.64840 0.34000 0.56310 -0.01800
H 	H 	0.62470 0.26810 0.58880 0.07900
H 	H 	0.61010 0.07720 0.57050 -0.00500
H 	H 	0.59060 0.15280 0.59220 0.07800
H 	H 	0.59690 0.01140 0.64670 -0.00400
H 	H 	0.57240 0.08470 0.67050 0.07900
H 	H 	0.41140 0.16450 0.77170 -0.00900
H 	H 	0.47360 0.15390 0.72470 0.07900
H 	H 	0.46660 0.30540 0.76900 0.00200
H 	H 	0.52790 0.29870 0.72200 0.08100
C 	C 	0.47060 0.93850 0.55312 0.07100
C 	C 	0.37740 0.92080 0.54853 -0.12200
C 	C 	0.45760 0.92480 0.60199 0.07900
C 	C 	0.36470 0.90660 0.59923 -0.13100
C 	C 	0.32380 0.90462 0.57177 0.05700
C 	C 	0.22240 0.88747 0.56811 0.09400
C 	C 	0.02870 0.78840 0.65609 0.06900
C 	C 	0.08240 0.80830 0.63373 -0.11700
C 	C 	0.88410 0.81155 0.63461 0.06200
C 	C 	0.93340 0.83225 0.61167 -0.10800
C 	C 	0.03430 0.83034 0.61106 0.05700
C 	C 	0.08700 0.85313 0.58650 0.10600
C 	C 	0.88350 0.90310 0.48743 0.06700
C 	C 	0.93360 0.88670 0.51155 -0.11500
C 	C 	0.01670 0.94621 0.47121 0.06300
C 	C 	0.07080 0.93144 0.49477 -0.11900
C 	C 	0.02870 0.90062 0.51543 0.05000
C 	C 	0.08570 0.88546 0.54141 0.10100
C 	C 	0.91060 0.88822 0.37725 0.05900
C 	C 	0.92510 0.84751 0.36040 -0.11200
C 	C 	0.87100 0.84186 0.41711 0.07300
C 	C 	0.88460 0.79874 0.40193 -0.11800
C 	C 	0.91240 0.80142 0.37275 0.04900
C 	C 	0.92630 0.75724 0.35523 0.10300
C 	C 	0.89620 0.57894 0.40894 0.06300
C 	C 	0.90830 0.62416 0.39620 -0.10900
C 	C 	0.90460 0.54060 0.36445 0.06400
C 	C 	0.91850 0.58410 0.35005 -0.11000
C 	C 	0.91900 0.62725 0.36614 0.04700
C 	C 	0.92910 0.67532 0.35188 0.10500
C 	C 	0.06520 0.69210 0.23869 0.05900
C 	C 	0.02860 0.68540 0.26673 -0.11200
C 	C 	0.03330 0.77443 0.24024 0.06100
C 	C 	0.99640 0.77068 0.26827 -0.11200
C 	C 	0.99550 0.72587 0.28173 0.05000
C 	C 	0.96360 0.72118 0.31256 0.10300
C 	C 	0.52940 0.56150 0.05312 0.07100
C 	C 	0.62260 0.57920 0.04853 -0.12200
C 	C 	0.54240 0.57520 0.10199 0.07900
C 	C 	0.63530 0.59340 0.09923 -0.13100
C 	C 	0.67620 0.59538 0.07177 0.05700
C 	C 	0.77760 0.61253 0.06811 0.09400
C 	C 	0.97130 0.71160 0.15609 0.06800
C 	C 	0.91760 0.69170 0.13373 -0.11600
C 	C 	0.11590 0.68845 0.13461 0.06100
C 	C 	0.06660 0.66775 0.11167 -0.10600
C 	C 	0.96570 0.66966 0.11106 0.05600
C 	C 	0.91300 0.64687 0.08650 0.10700
C 	C 	0.11650 0.59690 0.98743 0.06700
C 	C 	0.06640 0.61330 0.01155 -0.11400
C 	C 	0.98330 0.55379 0.97121 0.06100
C 	C 	0.92920 0.56856 0.99477 -0.11800
C 	C 	0.97130 0.59938 0.01543 0.04900
C 	C 	0.91430 0.61454 0.04141 0.10200
C 	C 	0.08940 0.61178 0.87725 0.05900
C 	C 	0.07490 0.65249 0.86040 -0.11200
C 	C 	0.12900 0.65814 0.91711 0.07300
C 	C 	0.11540 0.70126 0.90193 -0.11800
C 	C 	0.08760 0.69858 0.87275 0.04900
C 	C 	0.07370 0.74276 0.85523 0.10300
C 	C 	0.10380 0.92106 0.90894 0.06300
C 	C 	0.09170 0.87584 0.89620 -0.10900
C 	C 	0.09540 0.95940 0.86445 0.06400
C 	C 	0.08150 0.91590 0.85005 -0.11000
C 	C 	0.08100 0.87275 0.86614 0.04700
C 	C 	0.07090 0.82468 0.85188 0.10500
C 	C 	0.93480 0.80790 0.73869 0.05900
C 	C 	0.97140 0.81460 0.76673 -0.11300
C 	C 	0.96670 0.72557 0.74024 0.06000
C 	C 	0.00360 0.72932 0.76827 -0.11100
C 	C 	0.00450 0.77413 0.78173 0.05000
C 	C 	0.03640 0.77882 0.81256 0.10300
C 	C 	0.97060 0.06150 0.94688 0.07300
C 	C 	0.87740 0.07920 0.95147 -0.12300
C 	C 	0.95760 0.07520 0.89801 0.08000
C 	C 	0.86470 0.09340 0.90077 -0.13200
C 	C 	0.82380 0.09538 0.92823 0.05700
C 	C 	0.72240 0.11253 0.93189 0.09400
C 	C 	0.52870 0.21160 0.84391 0.06800
C 	C 	0.58240 0.19170 0.86627 -0.11600
C 	C 	0.38410 0.18845 0.86539 0.06100
C 	C 	0.43340 0.16775 0.88833 -0.10600
C 	C 	0.53430 0.16966 0.88894 0.05600
C 	C 	0.58700 0.14687 0.91350 0.10700
C 	C 	0.38350 0.09690 0.01257 0.06700
C 	C 	0.43360 0.11330 0.98845 -0.11400
C 	C 	0.51670 0.05379 0.02879 0.06200
C 	C 	0.57080 0.06856 0.00523 -0.11800
C 	C 	0.52870 0.09938 0.98457 0.04900
C 	C 	0.58570 0.11454 0.95859 0.10200
C 	C 	0.41060 0.11178 0.12275 0.05900
C 	C 	0.42510 0.15249 0.13960 -0.11200
C 	C 	0.37100 0.15814 0.08289 0.07300
C 	C 	0.38460 0.20126 0.09807 -0.11800
C 	C 	0.41240 0.19858 0.12725 0.04900
C 	C 	0.42630 0.24276 0.14477 0.10300
C 	C 	0.39620 0.42106 0.09106 0.06300
C 	C 	0.40830 0.37584 0.10380 -0.10900
C 	C 	0.40460 0.45940 0.13555 0.06400
C 	C 	0.41850 0.41590 0.14995 -0.11000
C 	C 	0.41900 0.37275 0.13386 0.04700
C 	C 	0.42910 0.32468 0.14812 0.10500
C 	C 	0.56520 0.30790 0.26131 0.05900
C 	C 	0.52860 0.31460 0.23327 -0.11200
C 	C 	0.53330 0.22557 0.25976 0.06100
C 	C 	0.49640 0.22932 0.23173 -0.11200
C 	C 	0.49550 0.27413 0.21827 0.04900
C 	C 	0.46360 0.27882 0.18744 0.10300
C 	C 	0.02940 0.43850 0.44688 0.07100
C 	C 	0.12260 0.42080 0.45147 -0.12200
C 	C 	0.04240 0.42480 0.39801 0.07900
C 	C 	0.13530 0.40660 0.40077 -0.13100
C 	C 	0.17620 0.40462 0.42823 0.05700
C 	C 	0.27760 0.38747 0.43189 0.09400
C 	C 	0.47130 0.28840 0.34391 0.06800
C 	C 	0.41760 0.30830 0.36627 -0.11600
C 	C 	0.61590 0.31155 0.36539 0.06100
C 	C 	0.56660 0.33225 0.38833 -0.10600
C 	C 	0.46570 0.33034 0.38894 0.05600
C 	C 	0.41300 0.35313 0.41350 0.10700
C 	C 	0.61650 0.40310 0.51257 0.06700
C 	C 	0.56640 0.38670 0.48845 -0.11400
C 	C 	0.48330 0.44621 0.52879 0.06200
C 	C 	0.42920 0.43144 0.50523 -0.11800
C 	C 	0.47130 0.40062 0.48457 0.04900
C 	C 	0.41430 0.38546 0.45859 0.10200
C 	C 	0.58940 0.38822 0.62275 0.05900
C 	C 	0.57490 0.34751 0.63960 -0.11200
C 	C 	0.62900 0.34186 0.58289 0.07300
C 	C 	0.61540 0.29874 0.59807 -0.11800
C 	C 	0.58760 0.30142 0.62725 0.04900
C 	C 	0.57370 0.25724 0.64477 0.10300
C 	C 	0.60380 0.07894 0.59106 0.06300
C 	C 	0.59170 0.12416 0.60380 -0.10900
C 	C 	0.59540 0.04060 0.63555 0.06400
C 	C 	0.58150 0.08410 0.64995 -0.11000
C 	C 	0.58100 0.12725 0.63386 0.04700
C 	C 	0.57090 0.17532 0.64812 0.10500
C 	C 	0.43480 0.19210 0.76131 0.05900
C 	C 	0.47140 0.18540 0.73327 -0.11200
C 	C 	0.46670 0.27443 0.75976 0.06100
C 	C 	0.50360 0.27068 0.73173 -0.11200
C 	C 	0.50450 0.22587 0.71827 0.04900
C 	C 	0.53640 0.22118 0.68744 0.10300
I 	I 	0.94655 0.01606 0.40307 -0.36200
I 	I 	0.67000 0.94621 0.43571 -0.37900
I 	I 	0.71770 0.99162 0.53693 -0.38900
I 	I 	0.73541 0.92647 0.62609 -0.36400
I 	I 	0.83528 0.66552 0.67715 -0.37400
I 	I 	0.69677 0.80750 0.69513 -0.36800
I 	I 	0.05345 0.48394 0.90307 -0.36300
I 	I 	0.33000 0.55379 0.93571 -0.37900
I 	I 	0.28230 0.50838 0.03693 -0.38900
I 	I 	0.26459 0.57353 0.12609 -0.36400
I 	I 	0.16472 0.83448 0.17715 -0.37300
I 	I 	0.30323 0.69250 0.19513 -0.36800
I 	I 	0.44655 0.98394 0.09693 -0.36300
I 	I 	0.17000 0.05379 0.06429 -0.37900
I 	I 	0.21770 0.00838 0.96307 -0.38900
I 	I 	0.23541 0.07353 0.87391 -0.36400
I 	I 	0.33528 0.33448 0.82285 -0.37300
I 	I 	0.19677 0.19250 0.80487 -0.36800
I 	I 	0.55345 0.51606 0.59693 -0.36300
I 	I 	0.83000 0.44621 0.56429 -0.37900
I 	I 	0.78230 0.49162 0.46307 -0.38900
I 	I 	0.76459 0.42647 0.37391 -0.36400
I 	I 	0.66472 0.16552 0.32285 -0.37300
I 	I 	0.80323 0.30750 0.30487 -0.36800
N 	N 	0.51050 0.94058 0.57969 -0.27600
N 	N 	0.93090 0.78973 0.65687 -0.27400
N 	N 	0.92350 0.93243 0.46737 -0.27100
N 	N 	0.18050 0.86490 0.59075 -0.13300
N 	N 	0.03630 0.86213 0.56226 -0.13700
N 	N 	0.17850 0.89816 0.54290 -0.14300
N 	N 	0.88350 0.88565 0.40545 -0.27100
N 	N 	0.89310 0.53736 0.39347 -0.26600
N 	N 	0.06870 0.73601 0.22575 -0.27100
N 	N 	0.91430 0.71420 0.36854 -0.14000
N 	N 	0.95360 0.67629 0.32363 -0.13900
N 	N 	0.95060 0.76269 0.32724 -0.14000
N 	N 	0.48950 0.55942 0.07969 -0.27600
N 	N 	0.06910 0.71027 0.15687 -0.27300
N 	N 	0.07650 0.56757 0.96737 -0.27100
N 	N 	0.81950 0.63510 0.09075 -0.13300
N 	N 	0.96370 0.63787 0.06226 -0.13700
N 	N 	0.82150 0.60184 0.04290 -0.14300
N 	N 	0.11650 0.61435 0.90545 -0.27100
N 	N 	0.10690 0.96264 0.89347 -0.26600
N 	N 	0.93130 0.76399 0.72575 -0.27100
N 	N 	0.08570 0.78580 0.86854 -0.14000
N 	N 	0.04640 0.82371 0.82363 -0.13900
N 	N 	0.04940 0.73731 0.82724 -0.14000
N 	N 	0.01050 0.05942 0.92031 -0.27700
N 	N 	0.43090 0.21027 0.84313 -0.27300
N 	N 	0.42350 0.06757 0.03263 -0.27100
N 	N 	0.68050 0.13510 0.90925 -0.13300
N 	N 	0.53630 0.13787 0.93774 -0.13700
N 	N 	0.67850 0.10184 0.95710 -0.14300
N 	N 	0.38350 0.11435 0.09455 -0.27100
N 	N 	0.39310 0.46264 0.10653 -0.26600
N 	N 	0.56870 0.26399 0.27425 -0.27100
N 	N 	0.41430 0.28580 0.13146 -0.14000
N 	N 	0.45360 0.32371 0.17637 -0.13900
N 	N 	0.45060 0.23731 0.17276 -0.14000
N 	N 	0.98950 0.44058 0.42031 -0.27600
N 	N 	0.56910 0.28973 0.34313 -0.27300
N 	N 	0.57650 0.43243 0.53263 -0.27100
N 	N 	0.31950 0.36490 0.40925 -0.13300
N 	N 	0.46370 0.36213 0.43774 -0.13700
N 	N 	0.32150 0.39816 0.45710 -0.14300
N 	N 	0.61650 0.38565 0.59455 -0.27100
N 	N 	0.60690 0.03736 0.60653 -0.26600
N 	N 	0.43130 0.23601 0.77425 -0.27100
N 	N 	0.58570 0.21420 0.63146 -0.14000
N 	N 	0.54640 0.17629 0.67637 -0.13900
N 	N 	0.54940 0.26269 0.67276 -0.14000
