data_crystal

_cell_length_a 13.96710
_cell_length_b 26.24570
_cell_length_c 29.81160
_cell_angle_alpha 95.31100
_cell_angle_beta  90.00000
_cell_angle_gamma 90.00000

_symmetry_space_group_name_	'P 1'
_symmetry_space_group_name_H-M	'P 1'

loop_
_symmetry_equiv_pos_as_xyz
  x,y,z

loop_
_atom_site_label
_atom_site_type_symbol
_atom_site_fract_x
_atom_site_fract_y
_atom_site_fract_z
_atom_site_charge
Ni	Ni	0.37189 0.50099 0.75375 1.07400
Ni	Ni	0.83374 0.76689 0.22335 1.07500
Ni	Ni	0.62811 0.49901 0.24625 1.07400
Ni	Ni	0.12811 0.00099 0.25375 1.07400
Ni	Ni	0.16626 0.23311 0.77665 1.07500
Ni	Ni	0.83443 0.76218 0.49187 1.07500
Ni	Ni	0.11574 0.73372 0.78995 1.07200
Ni	Ni	0.38426 0.23372 0.28995 1.07200
Ni	Ni	0.16557 0.23782 0.50813 1.07400
Ni	Ni	0.33443 0.73782 0.00813 1.07400
Ni	Ni	0.87189 0.99901 0.74625 1.07300
Ni	Ni	0.61574 0.76628 0.71005 1.07100
Ni	Ni	0.66557 0.26218 0.99187 1.07400
Ni	Ni	0.66626 0.26689 0.72335 1.07400
Ni	Ni	0.88426 0.26628 0.21005 1.07100
Ni	Ni	0.33374 0.73311 0.27665 1.07400
H 	H 	0.36590 0.26840 0.44290 0.03200
H 	H 	0.59730 0.43210 0.94760 0.03700
H 	H 	0.18890 0.48740 0.62940 0.24600
H 	H 	0.50740 0.27010 0.82060 0.00900
H 	H 	0.24380 0.54280 0.04920 0.01900
H 	H 	0.66640 0.95440 0.85860 0.23600
H 	H 	0.46640 0.15070 0.48290 0.21300
H 	H 	0.70500 0.71110 0.12930 -0.01500
H 	H 	0.96290 0.71650 0.18710 0.10000
H 	H 	0.57390 0.34410 0.42900 0.02700
H 	H 	0.17730 0.32710 0.90190 0.09300
H 	H 	0.52260 0.20340 0.04830 0.03700
H 	H 	0.77950 0.66060 0.74240 0.02700
H 	H 	0.68890 0.01260 0.87060 0.24600
H 	H 	0.80360 0.09050 0.62230 0.21700
H 	H 	0.69080 0.60120 0.63610 0.22200
H 	H 	0.75620 0.45720 0.95080 0.01900
H 	H 	0.63500 0.91180 0.19050 0.03800
H 	H 	0.34060 0.83790 0.64610 0.24100
H 	H 	0.18260 0.27800 0.19980 0.08100
H 	H 	0.40270 0.56790 0.05240 0.03700
H 	H 	0.55400 0.61960 0.60310 0.03300
H 	H 	0.03360 0.65070 0.98290 0.21100
H 	H 	0.41880 0.27350 0.01460 0.03600
H 	H 	0.98790 0.29060 0.01620 0.22100
H 	H 	0.89740 0.67280 0.89910 0.23000
H 	H 	0.09730 0.06790 0.55240 0.03700
H 	H 	0.31740 0.77800 0.69980 0.08100
H 	H 	0.48530 0.19200 0.95580 0.06100
H 	H 	0.08230 0.35380 0.84690 0.01000
H 	H 	0.25590 0.75250 0.40130 -0.00800
H 	H 	0.95250 0.61350 0.78950 0.01900
H 	H 	0.45490 0.38970 0.93840 0.20400
H 	H 	0.22370 0.90060 0.81380 0.22800
H 	H 	0.89090 0.15580 0.54850 0.21100
H 	H 	0.57550 0.61340 0.01130 0.21900
H 	H 	0.97880 0.97200 0.18290 0.02100
H 	H 	0.78490 0.55420 0.11330 0.21800
H 	H 	0.56040 0.89420 0.69830 0.02400
H 	H 	0.61400 0.79080 0.79140 0.09400
H 	H 	0.96950 0.40680 0.27600 0.07700
H 	H 	0.86260 0.67050 0.47910 0.08700
H 	H 	0.16040 0.62780 0.69600 0.02900
H 	H 	0.61900 0.26130 0.41040 0.03900
H 	H 	0.42450 0.38660 0.98870 0.21900
H 	H 	0.43960 0.10580 0.30170 0.02400
H 	H 	0.98740 0.64730 0.21920 0.03100
H 	H 	0.51210 0.79060 0.51620 0.22400
H 	H 	0.57610 0.12550 0.36530 0.23400
H 	H 	0.36100 0.51440 0.23650 0.03000
H 	H 	0.02660 0.49400 0.72340 0.03200
H 	H 	0.60840 0.03460 0.64890 0.02700
H 	H 	0.87710 0.36250 0.63540 0.20600
H 	H 	0.95490 0.11030 0.56160 0.20400
H 	H 	0.00740 0.22990 0.67940 0.00900
H 	H 	0.89240 0.71790 0.11220 0.10800
H 	H 	0.66890 0.20630 0.22210 0.02900
H 	H 	0.20040 0.20170 0.23530 0.03100
H 	H 	0.33960 0.12780 0.19600 0.02900
H 	H 	0.04510 0.88970 0.43840 0.20400
H 	H 	0.07550 0.88660 0.48870 0.21900
H 	H 	0.62290 0.86250 0.13540 0.20600
H 	H 	0.82270 0.67290 0.09810 0.09300
H 	H 	0.49380 0.44990 0.35550 0.08000
H 	H 	0.42390 0.87450 0.63470 0.23400
H 	H 	0.10760 0.28210 0.88780 0.10800
H 	H 	0.18440 0.34610 0.82570 0.00400
H 	H 	0.97740 0.70340 0.54830 0.03700
H 	H 	0.02120 0.02800 0.81710 0.02100
H 	H 	0.68890 0.13590 0.04050 0.02600
H 	H 	0.48000 0.42540 0.83360 0.00400
H 	H 	0.76530 0.79930 0.81480 0.03500
H 	H 	0.48790 0.20940 0.48380 0.22400
H 	H 	0.37410 0.09380 0.52940 0.03700
H 	H 	0.09810 0.68810 0.49010 0.07100
H 	H 	0.40190 0.18810 0.99010 0.07100
H 	H 	0.60910 0.65580 0.04850 0.21100
H 	H 	0.42080 0.28260 0.48820 0.03200
H 	H 	0.63900 0.48560 0.76350 0.03000
H 	H 	0.98080 0.64890 0.52190 0.03000
H 	H 	0.09240 0.26790 0.67440 0.01600
H 	H 	0.98000 0.07460 0.66640 0.00400
H 	H 	0.13350 0.99790 0.13640 0.03200
H 	H 	0.30360 0.40950 0.87770 0.21700
H 	H 	0.39550 0.68860 0.13430 0.28500
H 	H 	0.60260 0.17280 0.39910 0.23100
H 	H 	0.92450 0.11340 0.51130 0.21900
H 	H 	0.80050 0.84330 0.36850 0.29400
H 	H 	0.01210 0.70940 0.98380 0.22100
H 	H 	0.48570 0.18310 0.52890 0.22100
H 	H 	0.39040 0.52280 0.16500 0.08400
H 	H 	0.71510 0.05420 0.61330 0.21800
H 	H 	0.33360 0.04560 0.14140 0.23600
H 	H 	0.12290 0.63750 0.36460 0.20600
H 	H 	0.59810 0.81190 0.00990 0.07100
H 	H 	0.50620 0.55010 0.64450 0.08000
H 	H 	0.25620 0.04280 0.54920 0.01900
H 	H 	0.39740 0.82720 0.60090 0.23100
H 	H 	0.46820 0.18630 0.78550 0.09700
H 	H 	0.10450 0.18860 0.63430 0.28500
H 	H 	0.68440 0.15390 0.67430 0.00400
H 	H 	0.24410 0.25250 0.90130 -0.00800
H 	H 	0.04750 0.38650 0.21050 0.01900
H 	H 	0.13740 0.32950 0.52090 0.08700
H 	H 	0.81560 0.65390 0.17430 0.00400
H 	H 	0.81110 0.63590 0.54050 0.02500
H 	H 	0.96940 0.92480 0.80930 0.08000
H 	H 	0.86590 0.23160 0.05710 0.03300
H 	H 	0.75590 0.74750 0.09870 -0.00800
H 	H 	0.89070 0.65590 0.24590 0.02900
H 	H 	0.51430 0.81690 0.47110 0.22100
H 	H 	0.33710 0.55580 0.64260 0.02300
H 	H 	0.78710 0.62730 0.65260 0.23100
H 	H 	0.05400 0.88040 0.89690 0.03200
H 	H 	0.39990 0.48560 0.30880 0.02200
H 	H 	0.32270 0.82710 0.40190 0.09300
H 	H 	0.72050 0.16060 0.24240 0.02700
H 	H 	0.84060 0.66210 0.85390 0.24000
H 	H 	0.89160 0.53460 0.14890 0.02800
H 	H 	0.39830 0.26630 0.96270 0.01600
H 	H 	0.74380 0.95720 0.45080 0.01900
H 	H 	0.06040 0.60580 0.80170 0.02400
H 	H 	0.81110 0.51260 0.37060 0.24600
H 	H 	0.19640 0.90950 0.37770 0.21700
H 	H 	0.19950 0.15670 0.63150 0.29400
H 	H 	0.54510 0.61030 0.06160 0.20400
H 	H 	0.60760 0.21790 0.61220 0.10700
H 	H 	0.10840 0.46540 0.85110 0.02800
H 	H 	0.60010 0.51440 0.69120 0.02200
H 	H 	0.21510 0.44580 0.88670 0.21800
H 	H 	0.49920 0.84970 0.77520 0.07700
H 	H 	0.13500 0.58820 0.30950 0.03700
H 	H 	0.07610 0.37450 0.13470 0.23300
H 	H 	0.96820 0.31370 0.71450 0.09600
H 	H 	0.20660 0.78380 0.70300 0.08100
H 	H 	0.89830 0.23370 0.53730 0.01600
H 	H 	0.80920 0.10120 0.13610 0.22300
H 	H 	0.10010 0.98560 0.80880 0.02000
H 	H 	0.45970 0.22750 0.75160 0.08900
H 	H 	0.23470 0.20070 0.18520 0.03500
H 	H 	0.48740 0.85270 0.28080 0.03100
H 	H 	0.86100 0.98560 0.26350 0.02900
H 	H 	0.83110 0.70630 0.72210 0.02900
H 	H 	0.79960 0.16220 0.98610 0.08300
H 	H 	0.63410 0.73160 0.55710 0.03200
H 	H 	0.66040 0.87220 0.80400 0.02900
H 	H 	0.89450 0.30570 0.61590 0.20500
H 	H 	0.29960 0.70170 0.73530 0.03100
H 	H 	0.48080 0.85110 0.97810 0.03000
H 	H 	0.34680 0.05210 0.73430 0.02300
H 	H 	0.22050 0.33940 0.25760 0.02700
H 	H 	0.59240 0.23210 0.82560 0.01600
H 	H 	0.52660 0.00600 0.77660 0.03100
H 	H 	0.03710 0.28350 0.81290 0.10000
H 	H 	0.03180 0.68630 0.28550 0.09600
H 	H 	0.36500 0.08820 0.80950 0.03800
H 	H 	0.19540 0.66450 0.39930 0.20700
H 	H 	0.53050 0.90680 0.77600 0.07700
H 	H 	0.60550 0.80570 0.11590 0.20500
H 	H 	0.49430 0.02480 0.70290 0.02900
H 	H 	0.51920 0.14890 0.02190 0.03000
H 	H 	0.79960 0.79830 0.76470 0.03100
H 	H 	0.39070 0.84410 0.25410 0.02900
H 	H 	0.16150 0.85360 0.96820 0.08300
H 	H 	0.92610 0.84410 0.92900 0.02800
H 	H 	0.60960 0.47720 0.83500 0.08400
H 	H 	0.12590 0.59380 0.02940 0.03800
H 	H 	0.62590 0.90620 0.47060 0.03700
H 	H 	0.46770 0.47170 0.87030 0.01100
H 	H 	0.59660 0.99620 0.84310 0.23600
H 	H 	0.10170 0.76630 0.46270 0.01600
H 	H 	0.89740 0.86940 0.35720 0.28000
H 	H 	0.15940 0.33790 0.14610 0.24000
H 	H 	0.07920 0.78260 0.98820 0.03300
H 	H 	0.99920 0.65030 0.72480 0.07500
H 	H 	0.69950 0.34330 0.86850 0.29400
H 	H 	0.31560 0.84610 0.32570 0.00400
H 	H 	0.29340 0.28380 0.20300 0.08100
H 	H 	0.89040 0.97720 0.33500 0.08400
H 	H 	0.83960 0.37220 0.30400 0.02900
H 	H 	0.08120 0.77350 0.51460 0.03600
H 	H 	0.00620 0.94990 0.85550 0.08400
H 	H 	0.16290 0.05580 0.14260 0.02200
H 	H 	0.07390 0.15590 0.07100 0.02800
H 	H 	0.70190 0.19110 0.06430 0.02700
H 	H 	0.74410 0.24750 0.59870 -0.00800
H 	H 	0.58120 0.72650 0.98540 0.03600
H 	H 	0.36650 0.49790 0.63640 0.03300
H 	H 	0.30050 0.65670 0.13150 0.29400
H 	H 	0.58230 0.14620 0.65310 0.01000
H 	H 	0.90270 0.93210 0.44760 0.03700
H 	H 	0.49260 0.72990 0.17940 0.00900
H 	H 	0.03230 0.97170 0.37030 0.01100
H 	H 	0.89550 0.81140 0.36570 0.28500
H 	H 	0.99260 0.77010 0.32060 0.00900
H 	H 	0.33110 0.79370 0.77790 0.02900
H 	H 	0.52650 0.54320 0.75360 0.09600
H 	H 	0.18890 0.36410 0.45950 0.02500
H 	H 	0.30920 0.39880 0.36390 0.22200
H 	H 	0.73470 0.29930 0.31480 0.03500
H 	H 	0.81000 0.37180 0.25320 0.02900
H 	H 	0.79500 0.21110 0.62930 -0.01500
H 	H 	0.37710 0.13750 0.86460 0.20600
H 	H 	0.69000 0.87180 0.75320 0.02900
H 	H 	0.21290 0.37270 0.34740 0.23100
H 	H 	0.69540 0.83550 0.10070 0.20700
H 	H 	0.68260 0.22200 0.30020 0.08100
H 	H 	0.19080 0.89880 0.86390 0.22300
H 	H 	0.01920 0.35110 0.47810 0.03000
H 	H 	0.94600 0.11960 0.10310 0.03200
H 	H 	0.76260 0.41660 0.82020 0.04000
H 	H 	0.87410 0.40620 0.97060 0.03800
H 	H 	0.03050 0.59320 0.72400 0.07700
H 	H 	0.10930 0.34410 0.75410 0.02900
H 	H 	0.01470 0.69200 0.45580 0.06100
H 	H 	0.66290 0.44420 0.35740 0.02300
H 	H 	0.71290 0.12730 0.15260 0.23200
H 	H 	0.10260 0.13060 0.64280 0.28000
H 	H 	0.29960 0.33780 0.51390 0.08500
H 	H 	0.90190 0.31190 0.50990 0.07100
H 	H 	0.29810 0.80890 0.93570 0.02700
H 	H 	0.70040 0.29830 0.26470 0.03100
H 	H 	0.77630 0.09940 0.18620 0.22800
H 	H 	0.39740 0.63060 0.14280 0.28000
H 	H 	0.83360 0.45440 0.35860 0.23600
H 	H 	0.92390 0.62550 0.86530 0.23300
H 	H 	0.63740 0.17050 0.97910 0.08600
H 	H 	0.10960 0.02280 0.66500 0.08400
H 	H 	0.97350 0.04320 0.25360 0.09700
H 	H 	0.10260 0.32720 0.10090 0.23000
H 	H 	0.13900 0.01440 0.73650 0.02900
H 	H 	0.31110 0.86410 0.95950 0.02600
H 	H 	0.47740 0.79660 0.95170 0.03700
H 	H 	0.51260 0.14730 0.71920 0.03100
H 	H 	0.27950 0.83940 0.75760 0.02700
H 	H 	0.23740 0.58340 0.17980 0.04000
H 	H 	0.28710 0.87270 0.84740 0.23200
H 	H 	0.60450 0.31140 0.86570 0.28500
H 	H 	0.91880 0.22650 0.48540 0.03600
H 	H 	0.98570 0.31690 0.97110 0.21700
H 	H 	0.81720 0.03590 0.59700 0.22100
H 	H 	0.39450 0.19430 0.88410 0.20500
H 	H 	0.63350 0.50210 0.36360 0.03300
H 	H 	0.53180 0.81370 0.21450 0.09700
H 	H 	0.10910 0.84420 0.45150 0.21100
H 	H 	0.95970 0.27250 0.74840 0.08700
H 	H 	0.06020 0.05710 0.74080 0.02300
H 	H 	0.16640 0.54560 0.64140 0.23600
H 	H 	0.92080 0.21740 0.01180 0.03300
H 	H 	0.56020 0.44290 0.75920 0.02300
H 	H 	0.86650 0.00210 0.86360 0.03200
H 	H 	0.46940 0.57520 0.69070 0.07800
H 	H 	0.66150 0.64640 0.53180 0.08400
H 	H 	0.39240 0.78210 0.38780 0.10700
H 	H 	0.31110 0.98740 0.12940 0.24600
H 	H 	0.93980 0.94290 0.25920 0.02300
H 	H 	0.73740 0.91660 0.32020 0.04000
H 	H 	0.26530 0.70070 0.68520 0.03500
H 	H 	0.02650 0.95680 0.74640 0.09700
H 	H 	0.47880 0.52800 0.31710 0.02300
H 	H 	0.26260 0.08340 0.67980 0.04000
H 	H 	0.69640 0.59050 0.12230 0.21700
H 	H 	0.52000 0.57460 0.16640 0.00400
H 	H 	0.04530 0.97590 0.67320 0.09400
H 	H 	0.27630 0.40060 0.31380 0.22800
H 	H 	0.51470 0.80800 0.04420 0.06100
H 	H 	0.47340 0.99400 0.22340 0.03100
H 	H 	0.54750 0.11350 0.28950 0.02000
H 	H 	0.72370 0.59940 0.68620 0.22800
H 	H 	0.86500 0.41180 0.69050 0.03700
H 	H 	0.18280 0.96410 0.40300 0.22100
H 	H 	0.39160 0.96540 0.35110 0.02700
H 	H 	0.38100 0.73870 0.58960 0.03900
H 	H 	0.60260 0.36940 0.85720 0.28000
H 	H 	0.68280 0.53590 0.09700 0.22100
H 	H 	0.02000 0.92540 0.33360 0.00400
H 	H 	0.43980 0.55710 0.24080 0.02300
H 	H 	0.20190 0.30890 0.43570 0.02600
H 	H 	0.20500 0.78890 0.37070 -0.01500
H 	H 	0.50080 0.15030 0.22480 0.07700
H 	H 	0.19000 0.62820 0.74680 0.02900
H 	H 	0.30460 0.16450 0.89930 0.20700
H 	H 	0.54030 0.77250 0.24840 0.08900
H 	H 	0.31720 0.46410 0.90300 0.22100
H 	H 	0.60930 0.15590 0.74590 0.02900
H 	H 	0.65940 0.16210 0.35390 0.24100
H 	H 	0.84680 0.44790 0.76570 0.02200
H 	H 	0.04030 0.72750 0.25160 0.08700
H 	H 	0.11400 0.70920 0.70860 0.09400
H 	H 	0.98530 0.30800 0.54420 0.06100
H 	H 	0.11900 0.23870 0.08960 0.03800
H 	H 	0.45470 0.47590 0.17320 0.09300
H 	H 	0.53060 0.42480 0.30930 0.07800
H 	H 	0.02260 0.29660 0.45170 0.03700
H 	H 	0.88100 0.76130 0.91040 0.03800
H 	H 	0.47350 0.45680 0.24640 0.09600
H 	H 	0.40340 0.00380 0.15690 0.23600
H 	H 	0.79340 0.21620 0.29700 0.08100
H 	H 	0.00080 0.34970 0.27520 0.07500
H 	H 	0.09660 0.50380 0.65690 0.23500
H 	H 	0.53230 0.52830 0.12970 0.01100
H 	H 	0.91770 0.64620 0.15310 0.01000
H 	H 	0.31000 0.12820 0.24680 0.02900
H 	H 	0.90340 0.49620 0.34310 0.23500
H 	H 	0.03060 0.07520 0.19070 0.08000
H 	H 	0.89990 0.01440 0.19120 0.02000
H 	H 	0.79810 0.69110 0.56430 0.02600
H 	H 	0.97340 0.50600 0.27660 0.03200
H 	H 	0.53360 0.84930 0.51710 0.21300
H 	H 	0.50570 0.97520 0.29710 0.02900
H 	H 	0.38600 0.20920 0.20860 0.09400
H 	H 	0.29500 0.28890 0.87070 -0.01500
H 	H 	0.15320 0.55210 0.23430 0.02200
H 	H 	0.83710 0.94420 0.85740 0.02200
H 	H 	0.80460 0.33550 0.60070 0.20700
H 	H 	0.70660 0.71620 0.79700 0.08100
H 	H 	0.83850 0.14640 0.03180 0.08300
H 	H 	0.90760 0.73210 0.32560 0.01600
H 	H 	0.01260 0.35270 0.78080 0.03100
H 	H 	0.53710 0.21650 0.68710 0.10000
H 	H 	0.44600 0.38040 0.39690 0.03300
H 	H 	0.10550 0.69430 0.38410 0.20500
H 	H 	0.57920 0.71740 0.51180 0.03200
H 	H 	0.20040 0.83780 0.01390 0.08300
H 	H 	0.42610 0.65590 0.57100 0.02700
H 	H 	0.88600 0.29080 0.29140 0.09400
H 	H 	0.01430 0.68310 0.02890 0.21700
H 	H 	0.45250 0.88650 0.71050 0.02000
H 	H 	0.28490 0.94580 0.38670 0.21800
H 	H 	0.33850 0.35360 0.46820 0.08400
H 	H 	0.81740 0.72200 0.80020 0.08100
H 	H 	0.00570 0.52480 0.20290 0.02700
H 	H 	0.36260 0.82950 0.02090 0.08600
H 	H 	0.99380 0.05010 0.14450 0.08400
H 	H 	0.96640 0.34930 0.01710 0.21100
H 	H 	0.65320 0.94790 0.26570 0.02300
H 	H 	0.54530 0.52410 0.82680 0.09300
H 	H 	0.13410 0.76840 0.94290 0.03300
H 	H 	0.46950 0.09320 0.22400 0.07700
H 	H 	0.70040 0.66220 0.48610 0.08500
H 	H 	0.67730 0.17290 0.59810 0.09300
H 	H 	0.96770 0.02830 0.62970 0.01100
H 	H 	0.46290 0.78350 0.31290 0.10000
H 	H 	0.40760 0.76790 0.17440 0.01600
H 	H 	0.52120 0.47200 0.68290 0.02300
H 	H 	0.41770 0.85380 0.34690 0.01000
H 	H 	0.99430 0.47520 0.79710 0.02700
H 	H 	0.16890 0.29370 0.27790 0.02900
H 	H 	0.93960 0.39420 0.19830 0.02400
H 	H 	0.95470 0.02410 0.32680 0.09400
H 	H 	0.39090 0.34420 0.95150 0.21100
H 	H 	0.60170 0.73370 0.03730 0.01600
W 	W 	0.96077 0.82152 0.65714 0.51600
W 	W 	0.15760 0.82184 0.15198 0.51900
W 	W 	0.65760 0.67816 0.34802 0.51900
W 	W 	0.53923 0.32152 0.15714 0.51700
W 	W 	0.34240 0.32184 0.65198 0.51900
W 	W 	0.03923 0.17848 0.34286 0.51600
W 	W 	0.84240 0.17816 0.84802 0.51900
W 	W 	0.46077 0.67848 0.84286 0.51700
C 	C 	0.16240 0.51210 0.65180 -0.72600
C 	C 	0.14760 0.69480 0.00420 0.18700
C 	C 	0.21640 0.51110 0.69390 0.21200
C 	C 	0.77290 0.69630 0.73670 -0.00200
C 	C 	0.97300 0.88380 0.61610 -0.05000
C 	C 	0.28580 0.18910 0.83380 0.19100
C 	C 	0.04420 0.26130 0.35150 -0.04800
C 	C 	0.17020 0.83120 0.82610 0.19500
C 	C 	0.48800 0.75340 0.63630 -0.02900
C 	C 	0.28530 0.97710 0.30890 -0.02500
C 	C 	0.33680 0.38350 0.60940 -0.04900
C 	C 	0.20530 0.79370 0.21400 -0.03400
C 	C 	0.42790 0.52150 0.23090 -0.00700
C 	C 	0.01130 0.20750 0.27820 -0.03800
C 	C 	0.17390 0.49780 0.73620 -0.02400
C 	C 	0.32610 0.99780 0.23620 -0.02500
C 	C 	0.08780 0.81570 0.85440 -0.01600
C 	C 	0.44720 0.51250 0.18060 -0.22200
C 	C 	0.16200 0.30100 0.87780 -0.28900
C 	C 	0.07210 0.02150 0.73090 -0.00600
C 	C 	0.24050 0.07550 0.54200 -0.01200
C 	C 	0.31620 0.08320 0.74180 -0.00400
C 	C 	0.37500 0.97250 0.32220 -0.05000
C 	C 	0.07460 0.49100 0.74460 -0.05200
C 	C 	0.21350 0.65180 0.29310 -0.00900
C 	C 	0.94200 0.52090 0.21100 -0.02100
C 	C 	0.52820 0.19250 0.34500 0.21200
C 	C 	0.83140 0.39620 0.71250 -0.07400
C 	C 	0.84660 0.33070 0.62550 -0.62400
C 	C 	0.86080 0.83840 0.35330 -0.87600
C 	C 	0.53300 0.50680 0.69580 -0.01100
C 	C 	0.87020 0.67170 0.16310 0.04300
C 	C 	0.84490 0.82530 0.30740 0.27100
C 	C 	0.05450 0.76080 0.48570 -0.01400
C 	C 	0.03670 0.70430 0.48570 -0.18300
C 	C 	0.82610 0.50220 0.26380 -0.02400
C 	C 	0.29920 0.46630 0.83520 0.20800
C 	C 	0.18380 0.58320 0.24180 -0.00400
C 	C 	0.70530 0.70630 0.28600 -0.03400
C 	C 	0.67390 0.00220 0.76380 -0.02500
C 	C 	0.97180 0.69250 0.84500 0.21100
C 	C 	0.76150 0.73220 0.12700 0.09500
C 	C 	0.05280 0.01250 0.68060 -0.22400
C 	C 	0.97950 0.18500 0.81720 -0.03200
C 	C 	0.41220 0.31570 0.35440 -0.01400
C 	C 	0.74050 0.42450 0.95800 -0.01100
C 	C 	0.90220 0.66040 0.86790 -0.71900
C 	C 	0.65510 0.32530 0.80740 0.27100
C 	C 	0.95740 0.37270 0.26170 -0.19400
C 	C 	0.66320 0.61650 0.39060 -0.04900
C 	C 	0.54420 0.23870 0.14850 -0.04800
C 	C 	0.97220 0.95680 0.82830 -0.21800
C 	C 	0.21420 0.68910 0.33380 0.19100
C 	C 	0.93340 0.77530 0.89670 -0.05900
C 	C 	0.02780 0.04320 0.17170 -0.21800
C 	C 	0.33760 0.01210 0.15180 -0.72600
C 	C 	0.99450 0.70840 0.26790 -0.22400
C 	C 	0.75310 0.71330 0.39850 -0.03100
C 	C 	0.46700 0.49320 0.30420 -0.01100
C 	C 	0.62980 0.17170 0.66310 0.04300
C 	C 	0.52700 0.38380 0.11610 -0.05000
C 	C 	0.79790 0.64420 0.33560 -0.04700
C 	C 	0.58060 0.63450 0.81230 -0.05200
C 	C 	0.15510 0.17470 0.69260 0.27100
C 	C 	0.39870 0.61390 0.80230 -0.02700
C 	C 	0.78360 0.48890 0.30610 0.21200
C 	C 	0.79920 0.03370 0.66480 0.20900
C 	C 	0.96350 0.15330 0.11170 -0.05900
C 	C 	0.51200 0.24660 0.36370 -0.02900
C 	C 	0.94720 0.98750 0.31940 -0.22400
C 	C 	0.86570 0.97180 0.84250 0.00100
C 	C 	0.94220 0.13300 0.53880 -0.65700
C 	C 	0.71640 0.98890 0.80610 0.21200
C 	C 	0.46750 0.81530 0.98100 -0.02900
C 	C 	0.85470 0.35780 0.27370 -0.02600
C 	C 	0.94350 0.67310 0.23240 0.00200
C 	C 	0.80190 0.17230 0.01820 -0.20000
C 	C 	0.04260 0.62730 0.73830 -0.19400
C 	C 	0.95760 0.31650 0.00050 -0.66100
C 	C 	0.25210 0.71510 0.71570 -0.02300
C 	C 	0.36690 0.23970 0.64690 -0.05300
C 	C 	0.73790 0.22900 0.28210 -0.20000
C 	C 	0.13260 0.88920 0.19790 -0.02100
C 	C 	0.85770 0.22240 0.02510 -0.00800
C 	C 	0.74790 0.28490 0.28430 -0.02300
C 	C 	0.91940 0.13450 0.31230 -0.05100
C 	C 	0.53880 0.32450 0.40730 -0.01500
C 	C 	0.02050 0.81500 0.18280 -0.03200
C 	C 	0.54240 0.81650 0.50050 -0.67200
C 	C 	0.03300 0.99320 0.80420 -0.00400
C 	C 	0.55650 0.25010 0.80410 0.02100
C 	C 	0.72010 0.35050 0.77610 -0.03600
C 	C 	0.60130 0.38610 0.19770 -0.02700
C 	C 	0.26150 0.76780 0.37300 0.09400
C 	C 	0.52050 0.68500 0.31720 -0.03100
C 	C 	0.20080 0.96630 0.33520 0.20900
C 	C 	0.16860 0.60380 0.28750 -0.07400
C 	C 	0.14230 0.77760 0.97490 -0.00800
C 	C 	0.47300 0.61620 0.88390 -0.05000
C 	C 	0.83680 0.11650 0.89060 -0.04900
C 	C 	0.28850 0.15480 0.51980 -0.01200
C 	C 	0.64230 0.72240 0.52510 -0.00600
C 	C 	0.70450 0.17090 0.03540 -0.01800
C 	C 	0.29470 0.29370 0.71400 -0.03400
C 	C 	0.37360 0.63850 0.03280 -0.01900
C 	C 	0.20450 0.32910 0.46460 -0.01600
C 	C 	0.12500 0.47250 0.82220 -0.05200
C 	C 	0.05780 0.86700 0.46120 -0.65700
C 	C 	0.10130 0.11390 0.30230 -0.02700
C 	C 	0.18890 0.60540 0.03040 -0.06900
C 	C 	0.78230 0.05560 0.62030 -0.68000
C 	C 	0.22270 0.88020 0.83900 -0.69000
C 	C 	0.23280 0.60000 0.20870 -0.06300
C 	C 	0.67020 0.66880 0.67390 0.19400
C 	C 	0.52960 0.53790 0.16190 0.02500
C 	C 	0.27290 0.80370 0.76330 -0.00200
C 	C 	0.34660 0.16930 0.87450 -0.62400
C 	C 	0.55570 0.69230 0.40240 -0.04300
C 	C 	0.92790 0.97850 0.26910 -0.00600
C 	C 	0.47950 0.31500 0.68280 -0.03100
C 	C 	0.53120 0.33610 0.96900 0.18400
C 	C 	0.44430 0.30770 0.59760 -0.04300
C 	C 	0.57210 0.47850 0.76910 -0.00700
C 	C 	0.52780 0.45680 0.32830 -0.20900
C 	C 	0.63430 0.47180 0.34250 -0.00300
C 	C 	0.71150 0.84520 0.48020 -0.01200
C 	C 	0.18610 0.19500 0.32970 -0.03400
C 	C 	0.20210 0.35580 0.66440 -0.04700
C 	C 	0.40220 0.83960 0.63210 -0.72000
C 	C 	0.78580 0.31090 0.66620 0.19100
C 	C 	0.05650 0.24990 0.69590 0.01900
C 	C 	0.30190 0.32770 0.48180 -0.20400
C 	C 	0.10370 0.19890 0.40770 -0.01400
C 	C 	0.05570 0.80770 0.09760 -0.04400
C 	C 	0.53650 0.65330 0.61170 -0.06400
C 	C 	0.76720 0.40000 0.79130 -0.06300
C 	C 	0.96700 0.00680 0.19580 -0.00400
C 	C 	0.03120 0.16390 0.53100 0.18400
C 	C 	0.08710 0.79620 0.61970 -0.04800
C 	C 	0.77990 0.85050 0.27610 -0.03600
C 	C 	0.32980 0.33120 0.32610 0.19400
C 	C 	0.13310 0.73970 0.14690 -0.05300
C 	C 	0.71470 0.02290 0.69110 -0.02500
C 	C 	0.39630 0.69890 0.90770 -0.01400
C 	C 	0.44350 0.74990 0.19590 0.02100
C 	C 	0.70210 0.14420 0.83560 -0.04700
C 	C 	0.92540 0.50900 0.25540 -0.05200
C 	C 	0.85240 0.30520 0.99580 0.18700
C 	C 	0.19810 0.82770 0.98180 -0.20000
C 	C 	0.51630 0.87240 0.71290 0.00000
C 	C 	0.81110 0.39460 0.96960 -0.06900
C 	C 	0.33140 0.10380 0.78750 -0.07400
C 	C 	0.98800 0.74660 0.86370 -0.03100
C 	C 	0.28360 0.01110 0.19390 0.21200
C 	C 	0.76210 0.72900 0.78210 -0.20000
C 	C 	0.44200 0.97910 0.28900 -0.02400
C 	C 	0.63310 0.76030 0.35310 -0.05300
C 	C 	0.12980 0.32830 0.83690 0.04300
C 	C 	0.25950 0.57550 0.04200 -0.01100
C 	C 	0.16320 0.88350 0.10940 -0.04900
C 	C 	0.68890 0.89460 0.46960 -0.06700
C 	C 	0.66860 0.89620 0.21250 -0.07400
C 	C 	0.87360 0.86150 0.46720 -0.01900
C 	C 	0.59780 0.16040 0.36790 -0.72000
C 	C 	0.15340 0.66930 0.37450 -0.62400
C 	C 	0.09780 0.33960 0.13210 -0.71900
C 	C 	0.55450 0.73920 0.01430 -0.01400
C 	C 	0.86690 0.26030 0.85310 -0.05300
C 	C 	0.34490 0.67470 0.19260 0.27100
C 	C 	0.71770 0.55560 0.12030 -0.68000
C 	C 	0.37020 0.82830 0.33690 0.04300
C 	C 	0.46330 0.20430 0.98570 -0.18400
C 	C 	0.14530 0.08970 0.54400 -0.07200
C 	C 	0.14530 0.64220 0.72630 -0.02600
C 	C 	0.02820 0.30750 0.15500 0.21100
C 	C 	0.27730 0.38020 0.33900 -0.68900
C 	C 	0.29550 0.82910 0.96460 -0.01800
C 	C 	0.05800 0.47910 0.78900 -0.02100
C 	C 	0.54260 0.87270 0.76170 -0.19600
C 	C 	0.42540 0.99100 0.24460 -0.05100
C 	C 	0.60370 0.30110 0.09230 -0.01400
C 	C 	0.70080 0.53370 0.16480 0.20800
C 	C 	0.95580 0.73870 0.64850 -0.04800
C 	C 	0.62640 0.36150 0.96720 -0.01900
C 	C 	0.23850 0.26780 0.87300 0.09500
C 	C 	0.55780 0.63300 0.03880 -0.65800
C 	C 	0.31110 0.10540 0.53040 -0.06700
C 	C 	0.48370 0.12760 0.28710 0.00000
C 	C 	0.47040 0.46210 0.83810 0.02500
C 	C 	0.98370 0.37240 0.21290 0.00200
C 	C 	0.03880 0.17550 0.09270 -0.02100
C 	C 	0.06660 0.22470 0.10330 -0.05900
C 	C 	0.28230 0.44440 0.87970 -0.68000
C 	C 	0.77730 0.11980 0.16100 -0.69000
C 	C 	0.63920 0.33840 0.85330 -0.87600
C 	C 	0.22010 0.14950 0.72390 -0.03600
C 	C 	0.98870 0.79250 0.72180 -0.03800
C 	C 	0.24790 0.21510 0.21570 -0.02300
C 	C 	0.81620 0.41680 0.75820 -0.00400
C 	C 	0.13430 0.02820 0.15750 0.00100
C 	C 	0.02960 0.96210 0.33810 0.02600
C 	C 	0.83800 0.69900 0.12220 -0.28900
C 	C 	0.62500 0.02750 0.67780 -0.05000
C 	C 	0.89870 0.88610 0.69770 -0.02700
C 	C 	0.21770 0.94440 0.37970 -0.68000
C 	C 	0.22710 0.30370 0.26330 -0.00200
C 	C 	0.35470 0.14220 0.22630 -0.02600
C 	C 	0.13920 0.16160 0.64670 -0.87600
C 	C 	0.81390 0.80500 0.67030 -0.03400
C 	C 	0.66240 0.98790 0.84820 -0.72600
C 	C 	0.66200 0.19900 0.62220 -0.28800
C 	C 	0.12640 0.13850 0.53280 -0.01900
C 	C 	0.03650 0.84670 0.88830 -0.05900
C 	C 	0.50550 0.20840 0.76790 -0.22700
C 	C 	0.75950 0.92450 0.45800 -0.01200
C 	C 	0.74690 0.21330 0.89850 -0.03100
C 	C 	0.44550 0.26080 0.98570 -0.01400
C 	C 	0.96120 0.82450 0.90730 -0.02100
C 	C 	0.35240 0.19480 0.50420 0.19100
C 	C 	0.36570 0.52820 0.65750 -0.00300
C 	C 	0.46350 0.34670 0.38830 -0.06400
C 	C 	0.24690 0.28670 0.60150 -0.03100
C 	C 	0.55650 0.17310 0.73240 0.00300
C 	C 	0.02700 0.11620 0.38390 -0.05000
C 	C 	0.29790 0.85580 0.16440 -0.04700
C 	C 	0.78530 0.52290 0.19110 -0.02400
C 	C 	0.72270 0.61980 0.66100 -0.68900
C 	C 	0.35470 0.58970 0.04400 -0.07300
C 	C 	0.49450 0.79160 0.23210 -0.22700
C 	C 	0.78850 0.34520 0.98020 -0.01000
C 	C 	0.01200 0.25340 0.13630 -0.03100
C 	C 	0.43340 0.72470 0.60330 -0.06200
C 	C 	0.35770 0.27760 0.47490 -0.00600
C 	C 	0.36080 0.66160 0.14670 -0.87600
C 	C 	0.53250 0.18470 0.01900 -0.02900
C 	C 	0.96330 0.29570 0.51430 -0.18300
C 	C 	0.58710 0.70380 0.88030 -0.04900
C 	C 	0.78650 0.34820 0.70690 -0.00900
C 	C 	0.48870 0.70750 0.77820 -0.03600
C 	C 	0.47180 0.80750 0.65500 0.21200
C 	C 	0.56660 0.27530 0.39670 -0.06200
C 	C 	0.68380 0.91680 0.25820 -0.00400
C 	C 	0.57460 0.00900 0.75540 -0.05100
C 	C 	0.31390 0.69500 0.82970 -0.03400
C 	C 	0.91290 0.20380 0.38030 -0.04800
C 	C 	0.26720 0.10000 0.70870 -0.06300
C 	C 	0.85470 0.91030 0.45600 -0.07200
C 	C 	0.71420 0.81090 0.16620 0.19100
C 	C 	0.05650 0.32690 0.76760 0.00200
C 	C 	0.46120 0.67550 0.59270 -0.01500
C 	C 	0.21470 0.47710 0.80890 -0.02400
C 	C 	0.04240 0.68350 0.99950 -0.66100
C 	C 	0.46880 0.66390 0.03100 0.18400
C 	C 	0.64760 0.80520 0.49580 0.19100
C 	C 	0.94550 0.23920 0.51430 -0.01400
C 	C 	0.79550 0.67090 0.53540 -0.01600
C 	C 	0.75210 0.78490 0.78430 -0.02300
C 	C 	0.26210 0.77100 0.71790 -0.20000
C 	C 	0.03250 0.31530 0.48100 -0.02900
C 	C 	0.73280 0.90000 0.29130 -0.06300
C 	C 	0.96750 0.68470 0.51900 -0.02900
C 	C 	0.45760 0.18350 0.49950 -0.67200
C 	C 	0.45740 0.12730 0.23830 -0.19600
C 	C 	0.69810 0.67230 0.51820 -0.20400
C 	C 	0.53670 0.79570 0.01430 -0.18400
C 	C 	0.27990 0.64950 0.22390 -0.03600
C 	C 	0.41940 0.36550 0.18770 -0.05200
C 	C 	0.79470 0.20630 0.78600 -0.03400
C 	C 	0.45580 0.76130 0.85150 -0.04800
C 	C 	0.47220 0.54320 0.67170 -0.20900
C 	C 	0.08060 0.86550 0.68770 -0.05100
C 	C 	0.36740 0.38920 0.69790 -0.02100
C 	C 	0.97040 0.03790 0.66190 0.02600
C 	C 	0.55280 0.48750 0.81940 -0.22200
C 	C 	0.41290 0.29620 0.11970 -0.04900
C 	C 	0.68610 0.30500 0.17030 -0.03400
C 	C 	0.58780 0.68430 0.64560 -0.01400
C 	C 	0.82980 0.16880 0.17390 0.19500
C 	C 	0.23790 0.27100 0.21790 -0.20000
C 	C 	0.44220 0.36700 0.96120 -0.65800
C 	C 	0.73850 0.23220 0.62700 0.09400
C 	C 	0.91220 0.18430 0.14560 -0.01600
C 	C 	0.63260 0.61080 0.30210 -0.02100
C 	C 	0.64530 0.85780 0.77370 -0.02600
C 	C 	0.01630 0.62760 0.78710 0.00200
C 	C 	0.55800 0.02090 0.71100 -0.02400
C 	C 	0.94430 0.19230 0.90240 -0.04400
C 	C 	0.72710 0.19630 0.23670 -0.00200
C 	C 	0.44350 0.82690 0.26760 0.00300
C 	C 	0.00550 0.29160 0.73210 -0.22400
C 	C 	0.94350 0.75010 0.30410 0.01900
C 	C 	0.86740 0.11080 0.80210 -0.02100
C 	C 	0.71350 0.84820 0.20690 -0.00900
C 	C 	0.25310 0.78670 0.10150 -0.03100
C 	C 	0.64530 0.41030 0.95600 -0.07300
C 	C 	0.89630 0.80110 0.59230 -0.01400
C 	C 	0.96880 0.83610 0.46900 0.18400
C 	C 	0.87500 0.52750 0.17780 -0.05200
C 	C 	0.33800 0.80100 0.37780 -0.28800
C 	C 	0.21150 0.65480 0.01980 -0.01000
C 	C 	0.83760 0.48790 0.34820 -0.72600
C 	C 	0.65340 0.83070 0.12550 -0.62400
C 	C 	0.28650 0.15180 0.79310 -0.00900
C 	C 	0.51130 0.29250 0.22180 -0.03600
N 	N 	0.23830 0.17160 0.76200 -0.22600
N 	N 	0.14110 0.88970 0.70490 -0.11200
N 	N 	0.84670 0.21850 0.40040 -0.10900
N 	N 	0.69860 0.33150 0.97770 -0.22100
N 	N 	0.50010 0.30130 0.57010 -0.10800
N 	N 	0.72830 0.72130 0.25280 -0.20700
N 	N 	0.48110 0.17890 0.31010 -0.26300
N 	N 	0.96830 0.79010 0.47740 -0.25900
N 	N 	0.13750 0.21150 0.44170 -0.21300
N 	N 	0.34440 0.19820 0.22910 -0.26800
N 	N 	0.87860 0.07490 0.77740 -0.20700
N 	N 	0.87770 0.02530 0.68210 -0.26300
N 	N 	0.51890 0.82110 0.68990 -0.26300
N 	N 	0.66850 0.58310 0.41280 -0.10900
N 	N 	0.03170 0.20990 0.52260 -0.25900
N 	N 	0.76310 0.50920 0.23230 -0.21600
N 	N 	0.61960 0.80360 0.35590 -0.11000
N 	N 	0.50750 0.72710 0.74710 -0.20300
N 	N 	0.26660 0.20190 0.32150 -0.20900
N 	N 	0.88040 0.30360 0.85590 -0.11000
N 	N 	0.80180 0.73260 0.42560 -0.22100
N 	N 	0.31010 0.51890 0.69500 -0.25800
N 	N 	0.37770 0.47470 0.81790 -0.26300
N 	N 	0.77170 0.22130 0.75280 -0.20700
N 	N 	0.68980 0.76390 0.50520 -0.25400
N 	N 	0.83150 0.08310 0.91280 -0.10900
N 	N 	0.18990 0.01890 0.19500 -0.25900
N 	N 	0.22830 0.77870 0.24720 -0.20700
N 	N 	0.25300 0.72630 0.33800 -0.27600
N 	N 	0.63140 0.19010 0.00580 -0.26600
N 	N 	0.87030 0.92210 0.71740 -0.21500
N 	N 	0.23690 0.49080 0.76770 -0.21600
N 	N 	0.69370 0.70110 0.70700 -0.26000
N 	N 	0.34670 0.28150 0.09960 -0.10900
N 	N 	0.46830 0.70990 0.02260 -0.25900
N 	N 	0.00750 0.77290 0.75290 -0.20200
N 	N 	0.49990 0.69870 0.42990 -0.10800
N 	N 	0.15330 0.78150 0.59960 -0.10900
N 	N 	0.65560 0.80180 0.77090 -0.26800
N 	N 	0.76660 0.29810 0.17850 -0.20900
N 	N 	0.45540 0.80510 0.85620 -0.11300
N 	N 	0.30630 0.29890 0.29300 -0.26000
N 	N 	0.40890 0.79640 0.30110 -0.28100
N 	N 	0.69820 0.23260 0.92560 -0.22100
N 	N 	0.47790 0.58300 0.90590 -0.10600
N 	N 	0.49250 0.27290 0.25290 -0.20300
N 	N 	0.16850 0.91690 0.08720 -0.10900
N 	N 	0.35890 0.38970 0.20490 -0.11200
N 	N 	0.15560 0.69820 0.72910 -0.26800
N 	N 	0.38320 0.71780 0.21560 -0.28300
N 	N 	0.37030 0.57790 0.78260 -0.21400
N 	N 	0.24700 0.22630 0.83800 -0.27600
N 	N 	0.12820 0.37530 0.66920 -0.10700
N 	N 	0.12230 0.97470 0.31790 -0.26300
N 	N 	0.88320 0.78220 0.28440 -0.28200
N 	N 	0.76170 0.82840 0.23800 -0.22600
N 	N 	0.13140 0.30990 0.49420 -0.26700
N 	N 	0.05290 0.19150 0.80200 -0.21100
N 	N 	0.23340 0.70190 0.82150 -0.20900
N 	N 	0.73690 0.00920 0.73230 -0.21600
N 	N 	0.26170 0.67160 0.26200 -0.22600
N 	N 	0.11960 0.69640 0.14410 -0.11000
N 	N 	0.38040 0.19640 0.64410 -0.11000
N 	N 	0.86860 0.69010 0.50580 -0.26700
N 	N 	0.73830 0.32840 0.73800 -0.22600
N 	N 	0.09110 0.29640 0.80110 -0.28000
N 	N 	0.53170 0.29010 0.97740 -0.25900
N 	N 	0.19370 0.79890 0.79300 -0.26000
N 	N 	0.54460 0.19490 0.14380 -0.11300
N 	N 	0.80140 0.83150 0.47770 -0.22100
N 	N 	0.97790 0.91700 0.59410 -0.10600
N 	N 	0.19860 0.16850 0.52230 -0.22100
N 	N 	0.81020 0.26390 0.00520 -0.25200
N 	N 	0.36250 0.71150 0.94170 -0.21300
N 	N 	0.27170 0.27870 0.74720 -0.20700
N 	N 	0.12140 0.92510 0.22260 -0.20700
N 	N 	0.85890 0.11030 0.29510 -0.11200
N 	N 	0.87180 0.62470 0.33080 -0.10700
N 	N 	0.93800 0.23110 0.15520 -0.21900
N 	N 	0.86250 0.78850 0.55830 -0.21300
N 	N 	0.68990 0.48110 0.30500 -0.25800
N 	N 	0.04460 0.30510 0.35620 -0.11300
N 	N 	0.26310 0.99080 0.26770 -0.21600
N 	N 	0.36860 0.80990 0.99420 -0.26600
N 	N 	0.51310 0.51030 0.74310 -0.27500
N 	N 	0.99250 0.22710 0.24710 -0.20200
N 	N 	0.74700 0.27370 0.66200 -0.27600
N 	N 	0.30140 0.66850 0.02230 -0.22100
N 	N 	0.61680 0.28220 0.78440 -0.28300
N 	N 	0.01890 0.67890 0.81010 -0.26300
N 	N 	0.62820 0.12470 0.83080 -0.10700
N 	N 	0.06200 0.76890 0.84480 -0.21900
N 	N 	0.64110 0.61030 0.79510 -0.11200
N 	N 	0.18980 0.73610 0.99480 -0.25200
N 	N 	0.65330 0.71850 0.90040 -0.10900
N 	N 	0.81010 0.98110 0.80500 -0.25900
N 	N 	0.48690 0.48970 0.25690 -0.27500
N 	N 	0.43800 0.26890 0.34480 -0.22100
N 	N 	0.11680 0.21780 0.71560 -0.28200
N 	N 	0.52210 0.41700 0.09410 -0.10600
N 	N 	0.62230 0.52530 0.18210 -0.26300
N 	N 	0.30180 0.76740 0.07440 -0.22100
N 	N 	0.90890 0.70360 0.19890 -0.28000
N 	N 	0.80630 0.20110 0.20700 -0.26000
N 	N 	0.55290 0.30850 0.69800 -0.21200
N 	N 	0.19820 0.26740 0.57440 -0.22100
N 	N 	0.02210 0.08300 0.40590 -0.10600
N 	N 	0.37180 0.87530 0.16920 -0.10700
N 	N 	0.95540 0.69490 0.64380 -0.11300
N 	N 	0.98110 0.32110 0.18990 -0.26300
N 	N 	0.94710 0.80850 0.19800 -0.21100
N 	N 	0.62140 0.57490 0.27740 -0.20700
N 	N 	0.00010 0.19870 0.92990 -0.10700
N 	N 	0.59110 0.20360 0.69890 -0.28100
N 	N 	0.33150 0.41690 0.58720 -0.10900
N 	N 	0.99990 0.80130 0.07010 -0.10700
N 	N 	0.98690 0.01030 0.24310 -0.27500
N 	N 	0.12970 0.07790 0.28260 -0.21500
N 	N 	0.84440 0.30180 0.27090 -0.26800
N 	N 	0.75300 0.77370 0.16200 -0.27600
N 	N 	0.31020 0.23610 0.49480 -0.25400
N 	N 	0.01310 0.98970 0.75690 -0.27500
N 	N 	0.62970 0.42210 0.21740 -0.21400
N 	N 	0.73340 0.79810 0.67850 -0.20900
N 	N 	0.44710 0.69150 0.30200 -0.21200
N 	N 	0.63750 0.28850 0.05830 -0.21300
N 	N 	0.56200 0.73110 0.65520 -0.22100
N 	N 	0.37860 0.42510 0.72260 -0.20700
