data_crystal

_cell_length_a 27.28600
_cell_length_b 13.69970
_cell_length_c 45.82900
_cell_angle_alpha 90.00000
_cell_angle_beta  90.00000
_cell_angle_gamma 90.00000

_symmetry_space_group_name_	'P 1'
_symmetry_space_group_name_H-M	'P 1'

loop_
_symmetry_equiv_pos_as_xyz
  x,y,z

loop_
_atom_site_label
_atom_site_type_symbol
_atom_site_fract_x
_atom_site_fract_y
_atom_site_fract_z
_atom_site_charge
Zn	Zn	0.24633 0.84340 0.31144 1.16500
Zn	Zn	0.03019 0.64159 0.40931 1.16500
Zn	Zn	0.04882 0.86030 0.57199 1.16400
I 	I 	0.33727 0.82887 0.32277 -0.37400
I 	I 	0.19474 0.68953 0.30406 -0.36800
I 	I 	0.07770 0.72549 0.36902 -0.36500
I 	I 	0.01494 0.72111 0.45869 -0.38600
I 	I 	0.04889 0.67661 0.56424 -0.37900
I 	I 	0.98232 0.95544 0.59831 -0.36600
C 	C 	0.07250 0.45030 0.39393 0.07300
H 	H 	0.06810 0.47510 0.37480 -0.01000
C 	C 	0.08990 0.35690 0.39746 -0.12500
H 	H 	0.09700 0.31760 0.38090 0.09500
C 	C 	0.06890 0.47370 0.44364 0.07400
H 	H 	0.06260 0.51520 0.45980 -0.00700
C 	C 	0.08560 0.37960 0.44863 -0.11900
H 	H 	0.08910 0.35600 0.46800 0.08300
C 	C 	0.09700 0.32050 0.42520 0.05300
C 	C 	0.11320 0.21850 0.43015 0.09800
C 	C 	0.05210 0.02270 0.52865 0.06900
H 	H 	0.03250 0.05490 0.54280 -0.00600
C 	C 	0.06730 0.07360 0.50472 -0.12200
H 	H 	0.05810 0.14000 0.50240 0.08600
C 	C 	0.09050 0.88370 0.51220 0.06500
H 	H 	0.09780 0.81640 0.51460 -0.00600
C 	C 	0.10770 0.93110 0.48759 -0.11200
H 	H 	0.12710 0.89740 0.47360 0.07700
C 	C 	0.09610 0.02880 0.48373 0.04900
C 	C 	0.11270 0.08200 0.45729 0.10100
C 	C 	0.19080 0.87610 0.36574 0.06500
H 	H 	0.18960 0.80680 0.36570 -0.00600
C 	C 	0.17030 0.92590 0.38881 -0.11000
H 	H 	0.15610 0.89110 0.40460 0.08100
C 	C 	0.21260 0.01970 0.34345 0.07300
H 	H 	0.22770 0.05300 0.32760 -0.01500
C 	C 	0.19190 0.07390 0.36555 -0.11900
H 	H 	0.19250 0.14320 0.36480 0.07600
C 	C 	0.17040 0.02660 0.38878 0.05800
C 	C 	0.14690 0.08090 0.41279 0.10800
C 	C 	0.27710 0.95530 0.25895 0.06100
H 	H 	0.30850 0.95330 0.26790 0.00200
C 	C 	0.27340 0.99030 0.23072 -0.11200
H 	H 	0.30180 0.01080 0.22040 0.08100
C 	C 	0.19400 0.93290 0.26227 0.06400
H 	H 	0.16610 0.91440 0.27330 -0.01100
C 	C 	0.18730 0.96800 0.23412 -0.11500
H 	H 	0.15520 0.97350 0.22620 0.08000
C 	C 	0.22760 0.99480 0.21788 0.05000
C 	C 	0.22250 0.02560 0.18712 0.10200
C 	C 	0.04050 0.08910 0.13783 0.07300
H 	H 	0.01180 0.09110 0.14960 -0.00800
C 	C 	0.08520 0.07140 0.15126 -0.11700
H 	H 	0.08690 0.05940 0.17170 0.08100
C 	C 	0.07640 0.10000 0.09298 0.06500
H 	H 	0.07330 0.10780 0.07250 -0.00800
C 	C 	0.12250 0.08580 0.10462 -0.11300
H 	H 	0.15050 0.08580 0.09230 0.07900
C 	C 	0.12740 0.07150 0.13435 0.05200
C 	C 	0.17590 0.05920 0.14802 0.10200
C 	C 	0.34340 0.11700 0.08229 0.07600
H 	H 	0.34150 0.13570 0.06240 -0.01800
C 	C 	0.30060 0.10120 0.09723 -0.12500
H 	H 	0.26990 0.10790 0.08770 0.08100
C 	C 	0.38970 0.08050 0.12265 0.06000
H 	H 	0.42090 0.07170 0.13140 -0.00800
C 	C 	0.34860 0.06520 0.13932 -0.11600
H 	H 	0.35130 0.04790 0.15930 0.08000
C 	C 	0.30300 0.07550 0.12630 0.05400
C 	C 	0.25780 0.06070 0.14382 0.10300
N 	N 	0.06156 0.50750 0.41682 -0.27400
N 	N 	0.06390 0.92860 0.53280 -0.27200
N 	N 	0.21240 0.92240 0.34329 -0.27600
N 	N 	0.10110 0.17690 0.45537 -0.14500
N 	N 	0.13650 0.03130 0.43727 -0.13700
N 	N 	0.13583 0.17410 0.40826 -0.13600
N 	N 	0.23825 0.92410 0.27432 -0.27400
N 	N 	0.03584 0.10330 0.10947 -0.27100
N 	N 	0.38773 0.10760 0.09434 -0.27400
N 	N 	0.17727 0.03550 0.17627 -0.13900
N 	N 	0.21491 0.07180 0.13059 -0.14000
N 	N 	0.26412 0.03790 0.17191 -0.13900
Zn	Zn	0.25367 0.15660 0.81144 1.16500
Zn	Zn	0.46981 0.35841 0.90931 1.16500
Zn	Zn	0.45118 0.13970 0.07199 1.16400
I 	I 	0.16273 0.17113 0.82277 -0.37400
I 	I 	0.30526 0.31047 0.80406 -0.36800
I 	I 	0.42230 0.27451 0.86902 -0.36400
I 	I 	0.48506 0.27889 0.95869 -0.38600
I 	I 	0.45111 0.32339 0.06424 -0.37900
I 	I 	0.51768 0.04456 0.09831 -0.36700
C 	C 	0.42750 0.54970 0.89393 0.07300
H 	H 	0.43190 0.52490 0.87480 -0.01000
C 	C 	0.41010 0.64310 0.89746 -0.12500
H 	H 	0.40300 0.68240 0.88090 0.09500
C 	C 	0.43110 0.52630 0.94364 0.07400
H 	H 	0.43740 0.48480 0.95980 -0.00700
C 	C 	0.41440 0.62040 0.94863 -0.11900
H 	H 	0.41090 0.64400 0.96800 0.08300
C 	C 	0.40300 0.67950 0.92520 0.05300
C 	C 	0.38680 0.78150 0.93015 0.09800
C 	C 	0.44790 0.97730 0.02865 0.06700
H 	H 	0.46750 0.94510 0.04280 -0.00600
C 	C 	0.43270 0.92640 0.00472 -0.12200
H 	H 	0.44190 0.86000 0.00240 0.08500
C 	C 	0.40950 0.11630 0.01220 0.06500
H 	H 	0.40220 0.18360 0.01460 -0.00600
C 	C 	0.39230 0.06890 0.98759 -0.11000
H 	H 	0.37290 0.10260 0.97360 0.07700
C 	C 	0.40390 0.97120 0.98373 0.04800
C 	C 	0.38730 0.91800 0.95729 0.10100
C 	C 	0.30920 0.12390 0.86574 0.06500
H 	H 	0.31040 0.19320 0.86570 -0.00600
C 	C 	0.32970 0.07410 0.88881 -0.10800
H 	H 	0.34390 0.10890 0.90460 0.08100
C 	C 	0.28740 0.98030 0.84345 0.07200
H 	H 	0.27230 0.94700 0.82760 -0.01500
C 	C 	0.30810 0.92610 0.86555 -0.11800
H 	H 	0.30750 0.85680 0.86480 0.07500
C 	C 	0.32960 0.97340 0.88878 0.05700
C 	C 	0.35310 0.91910 0.91279 0.10800
C 	C 	0.22290 0.04470 0.75895 0.06100
H 	H 	0.19150 0.04670 0.76790 0.00200
C 	C 	0.22660 0.00970 0.73072 -0.11100
H 	H 	0.19820 0.98920 0.72040 0.08000
C 	C 	0.30600 0.06710 0.76227 0.06400
H 	H 	0.33390 0.08560 0.77330 -0.01000
C 	C 	0.31270 0.03200 0.73412 -0.11500
H 	H 	0.34480 0.02650 0.72620 0.08000
C 	C 	0.27240 0.00520 0.71788 0.05000
C 	C 	0.27750 0.97440 0.68712 0.10100
C 	C 	0.45950 0.91090 0.63783 0.07300
H 	H 	0.48820 0.90890 0.64960 -0.00900
C 	C 	0.41480 0.92860 0.65126 -0.11700
H 	H 	0.41310 0.94060 0.67170 0.08100
C 	C 	0.42360 0.90000 0.59298 0.06500
H 	H 	0.42670 0.89220 0.57250 -0.00800
C 	C 	0.37750 0.91420 0.60462 -0.11300
H 	H 	0.34950 0.91420 0.59230 0.07900
C 	C 	0.37260 0.92850 0.63435 0.05200
C 	C 	0.32410 0.94080 0.64802 0.10200
C 	C 	0.15660 0.88300 0.58229 0.07600
H 	H 	0.15850 0.86430 0.56240 -0.01800
C 	C 	0.19940 0.89880 0.59723 -0.12500
H 	H 	0.23010 0.89210 0.58770 0.08100
C 	C 	0.11030 0.91950 0.62265 0.06000
H 	H 	0.07910 0.92830 0.63140 -0.00800
C 	C 	0.15140 0.93480 0.63932 -0.11600
H 	H 	0.14870 0.95210 0.65930 0.08000
C 	C 	0.19700 0.92450 0.62630 0.05400
C 	C 	0.24220 0.93930 0.64382 0.10300
N 	N 	0.43844 0.49250 0.91682 -0.27400
N 	N 	0.43610 0.07140 0.03280 -0.27100
N 	N 	0.28760 0.07760 0.84329 -0.27500
N 	N 	0.39890 0.82310 0.95537 -0.14500
N 	N 	0.36350 0.96870 0.93727 -0.13800
N 	N 	0.36417 0.82590 0.90826 -0.13600
N 	N 	0.26175 0.07590 0.77432 -0.27400
N 	N 	0.46416 0.89670 0.60947 -0.27200
N 	N 	0.11227 0.89240 0.59434 -0.27400
N 	N 	0.32273 0.96450 0.67627 -0.13900
N 	N 	0.28509 0.92820 0.63059 -0.14000
N 	N 	0.23588 0.96210 0.67191 -0.13900
Zn	Zn	0.75367 0.34340 0.18856 1.16500
Zn	Zn	0.96981 0.14159 0.09069 1.16400
Zn	Zn	0.95118 0.36030 0.92801 1.16400
I 	I 	0.66273 0.32887 0.17723 -0.37400
I 	I 	0.80526 0.18953 0.19594 -0.36800
I 	I 	0.92230 0.22549 0.13098 -0.36500
I 	I 	0.98506 0.22111 0.04131 -0.38600
I 	I 	0.95111 0.17661 0.93576 -0.37900
I 	I 	0.01768 0.45544 0.90169 -0.36600
C 	C 	0.92750 0.95030 0.10607 0.07400
H 	H 	0.93190 0.97510 0.12520 -0.01000
C 	C 	0.91010 0.85690 0.10254 -0.12600
H 	H 	0.90300 0.81760 0.11910 0.09500
C 	C 	0.93110 0.97370 0.05636 0.07600
H 	H 	0.93740 0.01520 0.04020 -0.00800
C 	C 	0.91440 0.87960 0.05137 -0.12000
H 	H 	0.91090 0.85600 0.03200 0.08400
C 	C 	0.90300 0.82050 0.07480 0.05400
C 	C 	0.88680 0.71850 0.06985 0.09700
C 	C 	0.94790 0.52270 0.97135 0.06800
H 	H 	0.96750 0.55490 0.95720 -0.00600
C 	C 	0.93270 0.57360 0.99528 -0.12200
H 	H 	0.94190 0.64000 0.99760 0.08600
C 	C 	0.90950 0.38370 0.98780 0.06500
H 	H 	0.90220 0.31640 0.98540 -0.00600
C 	C 	0.89230 0.43110 0.01241 -0.11100
H 	H 	0.87290 0.39740 0.02640 0.07700
C 	C 	0.90390 0.52880 0.01627 0.04800
C 	C 	0.88730 0.58200 0.04271 0.10100
C 	C 	0.80920 0.37610 0.13426 0.06500
H 	H 	0.81040 0.30680 0.13430 -0.00600
C 	C 	0.82970 0.42590 0.11119 -0.10900
H 	H 	0.84390 0.39110 0.09540 0.08100
C 	C 	0.78740 0.51970 0.15655 0.07200
H 	H 	0.77230 0.55300 0.17240 -0.01500
C 	C 	0.80810 0.57390 0.13445 -0.11800
H 	H 	0.80750 0.64320 0.13520 0.07500
C 	C 	0.82960 0.52660 0.11122 0.05800
C 	C 	0.85310 0.58090 0.08721 0.10800
C 	C 	0.72290 0.45530 0.24105 0.06100
H 	H 	0.69150 0.45330 0.23210 0.00200
C 	C 	0.72660 0.49030 0.26928 -0.11100
H 	H 	0.69820 0.51080 0.27960 0.08000
C 	C 	0.80600 0.43290 0.23773 0.06500
H 	H 	0.83390 0.41440 0.22670 -0.01100
C 	C 	0.81270 0.46800 0.26588 -0.11500
H 	H 	0.84480 0.47350 0.27380 0.08000
C 	C 	0.77240 0.49480 0.28212 0.05000
C 	C 	0.77750 0.52560 0.31288 0.10100
C 	C 	0.95950 0.58910 0.36217 0.07300
H 	H 	0.98820 0.59110 0.35040 -0.00800
C 	C 	0.91480 0.57140 0.34874 -0.11700
H 	H 	0.91310 0.55940 0.32830 0.08100
C 	C 	0.92360 0.60000 0.40702 0.06500
H 	H 	0.92670 0.60780 0.42750 -0.00800
C 	C 	0.87750 0.58580 0.39538 -0.11300
H 	H 	0.84950 0.58580 0.40770 0.07900
C 	C 	0.87260 0.57150 0.36565 0.05200
C 	C 	0.82410 0.55920 0.35198 0.10200
C 	C 	0.65660 0.61700 0.41771 0.07600
H 	H 	0.65850 0.63570 0.43760 -0.01800
C 	C 	0.69940 0.60120 0.40277 -0.12500
H 	H 	0.73010 0.60790 0.41230 0.08100
C 	C 	0.61030 0.58050 0.37735 0.06000
H 	H 	0.57910 0.57170 0.36860 -0.00800
C 	C 	0.65140 0.56520 0.36068 -0.11600
H 	H 	0.64870 0.54790 0.34070 0.08000
C 	C 	0.69700 0.57550 0.37370 0.05400
C 	C 	0.74220 0.56070 0.35618 0.10300
N 	N 	0.93844 0.00750 0.08318 -0.27500
N 	N 	0.93610 0.42860 0.96720 -0.27100
N 	N 	0.78760 0.42240 0.15671 -0.27500
N 	N 	0.89890 0.67690 0.04463 -0.14500
N 	N 	0.86350 0.53130 0.06273 -0.13700
N 	N 	0.86417 0.67410 0.09174 -0.13600
N 	N 	0.76175 0.42410 0.22568 -0.27400
N 	N 	0.96416 0.60330 0.39053 -0.27100
N 	N 	0.61227 0.60760 0.40566 -0.27400
N 	N 	0.82273 0.53550 0.32373 -0.13900
N 	N 	0.78509 0.57180 0.36941 -0.14000
N 	N 	0.73588 0.53790 0.32809 -0.13900
Zn	Zn	0.74633 0.65660 0.68856 1.16500
Zn	Zn	0.53019 0.85841 0.59069 1.16500
Zn	Zn	0.54882 0.63970 0.42801 1.16400
I 	I 	0.83727 0.67113 0.67723 -0.37400
I 	I 	0.69474 0.81047 0.69594 -0.36700
I 	I 	0.57770 0.77451 0.63098 -0.36400
I 	I 	0.51494 0.77889 0.54131 -0.38600
I 	I 	0.54889 0.82339 0.43576 -0.37900
I 	I 	0.48232 0.54456 0.40169 -0.36600
C 	C 	0.57250 0.04970 0.60607 0.07300
H 	H 	0.56810 0.02490 0.62520 -0.01000
C 	C 	0.58990 0.14310 0.60254 -0.12500
H 	H 	0.59700 0.18240 0.61910 0.09500
C 	C 	0.56890 0.02630 0.55636 0.07300
H 	H 	0.56260 0.98480 0.54020 -0.00700
C 	C 	0.58560 0.12040 0.55137 -0.11900
H 	H 	0.58910 0.14400 0.53200 0.08300
C 	C 	0.59700 0.17950 0.57480 0.05300
C 	C 	0.61320 0.28150 0.56985 0.09800
C 	C 	0.55210 0.47730 0.47135 0.06800
H 	H 	0.53250 0.44510 0.45720 -0.00600
C 	C 	0.56730 0.42640 0.49528 -0.12200
H 	H 	0.55810 0.36000 0.49760 0.08500
C 	C 	0.59050 0.61630 0.48780 0.06500
H 	H 	0.59780 0.68360 0.48540 -0.00600
C 	C 	0.60770 0.56890 0.51241 -0.11100
H 	H 	0.62710 0.60260 0.52640 0.07700
C 	C 	0.59610 0.47120 0.51627 0.04800
C 	C 	0.61270 0.41800 0.54271 0.10100
C 	C 	0.69080 0.62390 0.63426 0.06500
H 	H 	0.68960 0.69320 0.63430 -0.00600
C 	C 	0.67030 0.57410 0.61119 -0.10900
H 	H 	0.65610 0.60890 0.59540 0.08100
C 	C 	0.71260 0.48030 0.65655 0.07200
H 	H 	0.72770 0.44700 0.67240 -0.01500
C 	C 	0.69190 0.42610 0.63445 -0.11800
H 	H 	0.69250 0.35680 0.63520 0.07500
C 	C 	0.67040 0.47340 0.61122 0.05800
C 	C 	0.64690 0.41910 0.58721 0.10800
C 	C 	0.77710 0.54470 0.74105 0.06100
H 	H 	0.80850 0.54670 0.73210 0.00200
C 	C 	0.77340 0.50970 0.76928 -0.11100
H 	H 	0.80180 0.48920 0.77960 0.08000
C 	C 	0.69400 0.56710 0.73773 0.06500
H 	H 	0.66610 0.58560 0.72670 -0.01100
C 	C 	0.68730 0.53200 0.76588 -0.11500
H 	H 	0.65520 0.52650 0.77380 0.08000
C 	C 	0.72760 0.50520 0.78212 0.05000
C 	C 	0.72250 0.47440 0.81288 0.10100
C 	C 	0.54050 0.41090 0.86217 0.07300
H 	H 	0.51180 0.40890 0.85040 -0.00900
C 	C 	0.58520 0.42860 0.84874 -0.11700
H 	H 	0.58690 0.44060 0.82830 0.08100
C 	C 	0.57640 0.40000 0.90702 0.06500
H 	H 	0.57330 0.39220 0.92750 -0.00800
C 	C 	0.62250 0.41420 0.89538 -0.11300
H 	H 	0.65050 0.41420 0.90770 0.07900
C 	C 	0.62740 0.42850 0.86565 0.05200
C 	C 	0.67590 0.44080 0.85198 0.10200
C 	C 	0.84340 0.38300 0.91771 0.07600
H 	H 	0.84150 0.36430 0.93760 -0.01800
C 	C 	0.80060 0.39880 0.90277 -0.12500
H 	H 	0.76990 0.39210 0.91230 0.08100
C 	C 	0.88970 0.41950 0.87735 0.06000
H 	H 	0.92090 0.42830 0.86860 -0.00800
C 	C 	0.84860 0.43480 0.86068 -0.11600
H 	H 	0.85130 0.45210 0.84070 0.08000
C 	C 	0.80300 0.42450 0.87370 0.05400
C 	C 	0.75780 0.43930 0.85618 0.10300
N 	N 	0.56156 0.99250 0.58318 -0.27400
N 	N 	0.56390 0.57140 0.46720 -0.27100
N 	N 	0.71240 0.57760 0.65671 -0.27500
N 	N 	0.60110 0.32310 0.54463 -0.14500
N 	N 	0.63650 0.46870 0.56273 -0.13700
N 	N 	0.63583 0.32590 0.59174 -0.13600
N 	N 	0.73825 0.57590 0.72568 -0.27400
N 	N 	0.53584 0.39670 0.89053 -0.27200
N 	N 	0.88773 0.39240 0.90566 -0.27400
N 	N 	0.67727 0.46450 0.82373 -0.13900
N 	N 	0.71491 0.42820 0.86941 -0.14000
N 	N 	0.76412 0.46210 0.82809 -0.13900
Zn	Zn	0.75367 0.15660 0.68856 1.16500
Zn	Zn	0.96981 0.35841 0.59069 1.16500
Zn	Zn	0.95118 0.13970 0.42801 1.16400
I 	I 	0.66273 0.17113 0.67723 -0.37400
I 	I 	0.80526 0.31047 0.69594 -0.36800
I 	I 	0.92230 0.27451 0.63098 -0.36500
I 	I 	0.98506 0.27889 0.54131 -0.38600
I 	I 	0.95111 0.32339 0.43576 -0.37900
I 	I 	0.01768 0.04456 0.40169 -0.36600
C 	C 	0.92750 0.54970 0.60607 0.07300
H 	H 	0.93190 0.52490 0.62520 -0.01000
C 	C 	0.91010 0.64310 0.60254 -0.12500
H 	H 	0.90300 0.68240 0.61910 0.09500
C 	C 	0.93110 0.52630 0.55636 0.07400
H 	H 	0.93740 0.48480 0.54020 -0.00700
C 	C 	0.91440 0.62040 0.55137 -0.11900
H 	H 	0.91090 0.64400 0.53200 0.08300
C 	C 	0.90300 0.67950 0.57480 0.05300
C 	C 	0.88680 0.78150 0.56985 0.09800
C 	C 	0.94790 0.97730 0.47135 0.06900
H 	H 	0.96750 0.94510 0.45720 -0.00600
C 	C 	0.93270 0.92640 0.49528 -0.12200
H 	H 	0.94190 0.86000 0.49760 0.08600
C 	C 	0.90950 0.11630 0.48780 0.06500
H 	H 	0.90220 0.18360 0.48540 -0.00600
C 	C 	0.89230 0.06890 0.51241 -0.11200
H 	H 	0.87290 0.10260 0.52640 0.07700
C 	C 	0.90390 0.97120 0.51627 0.04900
C 	C 	0.88730 0.91800 0.54271 0.10100
C 	C 	0.80920 0.12390 0.63426 0.06500
H 	H 	0.81040 0.19320 0.63430 -0.00600
C 	C 	0.82970 0.07410 0.61119 -0.11000
H 	H 	0.84390 0.10890 0.59540 0.08100
C 	C 	0.78740 0.98030 0.65655 0.07300
H 	H 	0.77230 0.94700 0.67240 -0.01500
C 	C 	0.80810 0.92610 0.63445 -0.11900
H 	H 	0.80750 0.85680 0.63520 0.07600
C 	C 	0.82960 0.97340 0.61122 0.05800
C 	C 	0.85310 0.91910 0.58721 0.10800
C 	C 	0.72290 0.04470 0.74105 0.06100
H 	H 	0.69150 0.04670 0.73210 0.00200
C 	C 	0.72660 0.00970 0.76928 -0.11200
H 	H 	0.69820 0.98920 0.77960 0.08100
C 	C 	0.80600 0.06710 0.73773 0.06400
H 	H 	0.83390 0.08560 0.72670 -0.01100
C 	C 	0.81270 0.03200 0.76588 -0.11500
H 	H 	0.84480 0.02650 0.77380 0.08000
C 	C 	0.77240 0.00520 0.78212 0.05000
C 	C 	0.77750 0.97440 0.81288 0.10200
C 	C 	0.95950 0.91090 0.86217 0.07300
H 	H 	0.98820 0.90890 0.85040 -0.00800
C 	C 	0.91480 0.92860 0.84874 -0.11700
H 	H 	0.91310 0.94060 0.82830 0.08100
C 	C 	0.92360 0.90000 0.90702 0.06500
H 	H 	0.92670 0.89220 0.92750 -0.00800
C 	C 	0.87750 0.91420 0.89538 -0.11300
H 	H 	0.84950 0.91420 0.90770 0.07900
C 	C 	0.87260 0.92850 0.86565 0.05200
C 	C 	0.82410 0.94080 0.85198 0.10200
C 	C 	0.65660 0.88300 0.91771 0.07600
H 	H 	0.65850 0.86430 0.93760 -0.01800
C 	C 	0.69940 0.89880 0.90277 -0.12500
H 	H 	0.73010 0.89210 0.91230 0.08100
C 	C 	0.61030 0.91950 0.87735 0.06000
H 	H 	0.57910 0.92830 0.86860 -0.00800
C 	C 	0.65140 0.93480 0.86068 -0.11600
H 	H 	0.64870 0.95210 0.84070 0.08000
C 	C 	0.69700 0.92450 0.87370 0.05400
C 	C 	0.74220 0.93930 0.85618 0.10300
N 	N 	0.93844 0.49250 0.58318 -0.27400
N 	N 	0.93610 0.07140 0.46720 -0.27200
N 	N 	0.78760 0.07760 0.65671 -0.27600
N 	N 	0.89890 0.82310 0.54463 -0.14500
N 	N 	0.86350 0.96870 0.56273 -0.13700
N 	N 	0.86417 0.82590 0.59174 -0.13600
N 	N 	0.76175 0.07590 0.72568 -0.27400
N 	N 	0.96416 0.89670 0.89053 -0.27100
N 	N 	0.61227 0.89240 0.90566 -0.27400
N 	N 	0.82273 0.96450 0.82373 -0.13900
N 	N 	0.78509 0.92820 0.86941 -0.14000
N 	N 	0.73588 0.96210 0.82809 -0.13900
Zn	Zn	0.74633 0.84340 0.18856 1.16500
Zn	Zn	0.53019 0.64159 0.09069 1.16500
Zn	Zn	0.54882 0.86030 0.92801 1.16400
I 	I 	0.83727 0.82887 0.17723 -0.37400
I 	I 	0.69474 0.68953 0.19594 -0.36800
I 	I 	0.57770 0.72549 0.13098 -0.36400
I 	I 	0.51494 0.72111 0.04131 -0.38600
I 	I 	0.54889 0.67661 0.93576 -0.37900
I 	I 	0.48232 0.95544 0.90169 -0.36700
C 	C 	0.57250 0.45030 0.10607 0.07300
H 	H 	0.56810 0.47510 0.12520 -0.01000
C 	C 	0.58990 0.35690 0.10254 -0.12500
H 	H 	0.59700 0.31760 0.11910 0.09500
C 	C 	0.56890 0.47370 0.05636 0.07400
H 	H 	0.56260 0.51520 0.04020 -0.00700
C 	C 	0.58560 0.37960 0.05137 -0.11900
H 	H 	0.58910 0.35600 0.03200 0.08300
C 	C 	0.59700 0.32050 0.07480 0.05300
C 	C 	0.61320 0.21850 0.06985 0.09800
C 	C 	0.55210 0.02270 0.97135 0.06700
H 	H 	0.53250 0.05490 0.95720 -0.00600
C 	C 	0.56730 0.07360 0.99528 -0.12200
H 	H 	0.55810 0.14000 0.99760 0.08500
C 	C 	0.59050 0.88370 0.98780 0.06500
H 	H 	0.59780 0.81640 0.98540 -0.00600
C 	C 	0.60770 0.93110 0.01241 -0.11000
H 	H 	0.62710 0.89740 0.02640 0.07700
C 	C 	0.59610 0.02880 0.01627 0.04800
C 	C 	0.61270 0.08200 0.04271 0.10100
C 	C 	0.69080 0.87610 0.13426 0.06500
H 	H 	0.68960 0.80680 0.13430 -0.00600
C 	C 	0.67030 0.92590 0.11119 -0.10800
H 	H 	0.65610 0.89110 0.09540 0.08100
C 	C 	0.71260 0.01970 0.15655 0.07200
H 	H 	0.72770 0.05300 0.17240 -0.01500
C 	C 	0.69190 0.07390 0.13445 -0.11800
H 	H 	0.69250 0.14320 0.13520 0.07500
C 	C 	0.67040 0.02660 0.11122 0.05700
C 	C 	0.64690 0.08090 0.08721 0.10800
C 	C 	0.77710 0.95530 0.24105 0.06100
H 	H 	0.80850 0.95330 0.23210 0.00200
C 	C 	0.77340 0.99030 0.26928 -0.11100
H 	H 	0.80180 0.01080 0.27960 0.08000
C 	C 	0.69400 0.93290 0.23773 0.06400
H 	H 	0.66610 0.91440 0.22670 -0.01000
C 	C 	0.68730 0.96800 0.26588 -0.11500
H 	H 	0.65520 0.97350 0.27380 0.08000
C 	C 	0.72760 0.99480 0.28212 0.05000
C 	C 	0.72250 0.02560 0.31288 0.10100
C 	C 	0.54050 0.08910 0.36217 0.07300
H 	H 	0.51180 0.09110 0.35040 -0.00900
C 	C 	0.58520 0.07140 0.34874 -0.11700
H 	H 	0.58690 0.05940 0.32830 0.08100
C 	C 	0.57640 0.10000 0.40702 0.06500
H 	H 	0.57330 0.10780 0.42750 -0.00800
C 	C 	0.62250 0.08580 0.39538 -0.11300
H 	H 	0.65050 0.08580 0.40770 0.07900
C 	C 	0.62740 0.07150 0.36565 0.05200
C 	C 	0.67590 0.05920 0.35198 0.10200
C 	C 	0.84340 0.11700 0.41771 0.07600
H 	H 	0.84150 0.13570 0.43760 -0.01800
C 	C 	0.80060 0.10120 0.40277 -0.12500
H 	H 	0.76990 0.10790 0.41230 0.08100
C 	C 	0.88970 0.08050 0.37735 0.06000
H 	H 	0.92090 0.07170 0.36860 -0.00800
C 	C 	0.84860 0.06520 0.36068 -0.11600
H 	H 	0.85130 0.04790 0.34070 0.08000
C 	C 	0.80300 0.07550 0.37370 0.05400
C 	C 	0.75780 0.06070 0.35618 0.10300
N 	N 	0.56156 0.50750 0.08318 -0.27400
N 	N 	0.56390 0.92860 0.96720 -0.27100
N 	N 	0.71240 0.92240 0.15671 -0.27500
N 	N 	0.60110 0.17690 0.04463 -0.14500
N 	N 	0.63650 0.03130 0.06273 -0.13800
N 	N 	0.63583 0.17410 0.09174 -0.13600
N 	N 	0.73825 0.92410 0.22568 -0.27400
N 	N 	0.53584 0.10330 0.39053 -0.27200
N 	N 	0.88773 0.10760 0.40566 -0.27400
N 	N 	0.67727 0.03550 0.32373 -0.13900
N 	N 	0.71491 0.07180 0.36941 -0.14000
N 	N 	0.76412 0.03790 0.32809 -0.13900
Zn	Zn	0.24633 0.65660 0.81144 1.16500
Zn	Zn	0.03019 0.85841 0.90931 1.16400
Zn	Zn	0.04882 0.63970 0.07199 1.16400
I 	I 	0.33727 0.67113 0.82277 -0.37400
I 	I 	0.19474 0.81047 0.80406 -0.36800
I 	I 	0.07770 0.77451 0.86902 -0.36500
I 	I 	0.01494 0.77889 0.95869 -0.38600
I 	I 	0.04889 0.82339 0.06424 -0.37900
I 	I 	0.98232 0.54456 0.09831 -0.36600
C 	C 	0.07250 0.04970 0.89393 0.07400
H 	H 	0.06810 0.02490 0.87480 -0.01000
C 	C 	0.08990 0.14310 0.89746 -0.12600
H 	H 	0.09700 0.18240 0.88090 0.09500
C 	C 	0.06890 0.02630 0.94364 0.07600
H 	H 	0.06260 0.98480 0.95980 -0.00800
C 	C 	0.08560 0.12040 0.94863 -0.12000
H 	H 	0.08910 0.14400 0.96800 0.08400
C 	C 	0.09700 0.17950 0.92520 0.05400
C 	C 	0.11320 0.28150 0.93015 0.09700
C 	C 	0.05210 0.47730 0.02865 0.06800
H 	H 	0.03250 0.44510 0.04280 -0.00600
C 	C 	0.06730 0.42640 0.00472 -0.12200
H 	H 	0.05810 0.36000 0.00240 0.08600
C 	C 	0.09050 0.61630 0.01220 0.06500
H 	H 	0.09780 0.68360 0.01460 -0.00600
C 	C 	0.10770 0.56890 0.98759 -0.11100
H 	H 	0.12710 0.60260 0.97360 0.07700
C 	C 	0.09610 0.47120 0.98373 0.04800
C 	C 	0.11270 0.41800 0.95729 0.10100
C 	C 	0.19080 0.62390 0.86574 0.06500
H 	H 	0.18960 0.69320 0.86570 -0.00600
C 	C 	0.17030 0.57410 0.88881 -0.10900
H 	H 	0.15610 0.60890 0.90460 0.08100
C 	C 	0.21260 0.48030 0.84345 0.07200
H 	H 	0.22770 0.44700 0.82760 -0.01500
C 	C 	0.19190 0.42610 0.86555 -0.11800
H 	H 	0.19250 0.35680 0.86480 0.07500
C 	C 	0.17040 0.47340 0.88878 0.05800
C 	C 	0.14690 0.41910 0.91279 0.10800
C 	C 	0.27710 0.54470 0.75895 0.06100
H 	H 	0.30850 0.54670 0.76790 0.00200
C 	C 	0.27340 0.50970 0.73072 -0.11100
H 	H 	0.30180 0.48920 0.72040 0.08000
C 	C 	0.19400 0.56710 0.76227 0.06500
H 	H 	0.16610 0.58560 0.77330 -0.01100
C 	C 	0.18730 0.53200 0.73412 -0.11500
H 	H 	0.15520 0.52650 0.72620 0.08000
C 	C 	0.22760 0.50520 0.71788 0.05000
C 	C 	0.22250 0.47440 0.68712 0.10100
C 	C 	0.04050 0.41090 0.63783 0.07300
H 	H 	0.01180 0.40890 0.64960 -0.00800
C 	C 	0.08520 0.42860 0.65126 -0.11700
H 	H 	0.08690 0.44060 0.67170 0.08100
C 	C 	0.07640 0.40000 0.59298 0.06500
H 	H 	0.07330 0.39220 0.57250 -0.00800
C 	C 	0.12250 0.41420 0.60462 -0.11300
H 	H 	0.15050 0.41420 0.59230 0.07900
C 	C 	0.12740 0.42850 0.63435 0.05200
C 	C 	0.17590 0.44080 0.64802 0.10200
C 	C 	0.34340 0.38300 0.58229 0.07600
H 	H 	0.34150 0.36430 0.56240 -0.01800
C 	C 	0.30060 0.39880 0.59723 -0.12500
H 	H 	0.26990 0.39210 0.58770 0.08100
C 	C 	0.38970 0.41950 0.62265 0.06000
H 	H 	0.42090 0.42830 0.63140 -0.00800
C 	C 	0.34860 0.43480 0.63932 -0.11600
H 	H 	0.35130 0.45210 0.65930 0.08000
C 	C 	0.30300 0.42450 0.62630 0.05400
C 	C 	0.25780 0.43930 0.64382 0.10300
N 	N 	0.06156 0.99250 0.91682 -0.27500
N 	N 	0.06390 0.57140 0.03280 -0.27100
N 	N 	0.21240 0.57760 0.84329 -0.27500
N 	N 	0.10110 0.32310 0.95537 -0.14500
N 	N 	0.13650 0.46870 0.93727 -0.13700
N 	N 	0.13583 0.32590 0.90826 -0.13600
N 	N 	0.23825 0.57590 0.77432 -0.27400
N 	N 	0.03584 0.39670 0.60947 -0.27100
N 	N 	0.38773 0.39240 0.59434 -0.27400
N 	N 	0.17727 0.46450 0.67627 -0.13900
N 	N 	0.21491 0.42820 0.63059 -0.14000
N 	N 	0.26412 0.46210 0.67191 -0.13900
Zn	Zn	0.25367 0.34340 0.31144 1.16500
Zn	Zn	0.46981 0.14159 0.40931 1.16500
Zn	Zn	0.45118 0.36030 0.57199 1.16400
I 	I 	0.16273 0.32887 0.32277 -0.37400
I 	I 	0.30526 0.18953 0.30406 -0.36700
I 	I 	0.42230 0.22549 0.36902 -0.36400
I 	I 	0.48506 0.22111 0.45869 -0.38600
I 	I 	0.45111 0.17661 0.56424 -0.37900
I 	I 	0.51768 0.45544 0.59831 -0.36600
C 	C 	0.42750 0.95030 0.39393 0.07300
H 	H 	0.43190 0.97510 0.37480 -0.01000
C 	C 	0.41010 0.85690 0.39746 -0.12500
H 	H 	0.40300 0.81760 0.38090 0.09500
C 	C 	0.43110 0.97370 0.44364 0.07300
H 	H 	0.43740 0.01520 0.45980 -0.00700
C 	C 	0.41440 0.87960 0.44863 -0.11900
H 	H 	0.41090 0.85600 0.46800 0.08300
C 	C 	0.40300 0.82050 0.42520 0.05300
C 	C 	0.38680 0.71850 0.43015 0.09800
C 	C 	0.44790 0.52270 0.52865 0.06800
H 	H 	0.46750 0.55490 0.54280 -0.00600
C 	C 	0.43270 0.57360 0.50472 -0.12200
H 	H 	0.44190 0.64000 0.50240 0.08500
C 	C 	0.40950 0.38370 0.51220 0.06500
H 	H 	0.40220 0.31640 0.51460 -0.00600
C 	C 	0.39230 0.43110 0.48759 -0.11100
H 	H 	0.37290 0.39740 0.47360 0.07700
C 	C 	0.40390 0.52880 0.48373 0.04800
C 	C 	0.38730 0.58200 0.45729 0.10100
C 	C 	0.30920 0.37610 0.36574 0.06500
H 	H 	0.31040 0.30680 0.36570 -0.00600
C 	C 	0.32970 0.42590 0.38881 -0.10900
H 	H 	0.34390 0.39110 0.40460 0.08100
C 	C 	0.28740 0.51970 0.34345 0.07200
H 	H 	0.27230 0.55300 0.32760 -0.01500
C 	C 	0.30810 0.57390 0.36555 -0.11800
H 	H 	0.30750 0.64320 0.36480 0.07500
C 	C 	0.32960 0.52660 0.38878 0.05800
C 	C 	0.35310 0.58090 0.41279 0.10800
C 	C 	0.22290 0.45530 0.25895 0.06100
H 	H 	0.19150 0.45330 0.26790 0.00200
C 	C 	0.22660 0.49030 0.23072 -0.11100
H 	H 	0.19820 0.51080 0.22040 0.08000
C 	C 	0.30600 0.43290 0.26227 0.06500
H 	H 	0.33390 0.41440 0.27330 -0.01100
C 	C 	0.31270 0.46800 0.23412 -0.11500
H 	H 	0.34480 0.47350 0.22620 0.08000
C 	C 	0.27240 0.49480 0.21788 0.05000
C 	C 	0.27750 0.52560 0.18712 0.10100
C 	C 	0.45950 0.58910 0.13783 0.07300
H 	H 	0.48820 0.59110 0.14960 -0.00900
C 	C 	0.41480 0.57140 0.15126 -0.11700
H 	H 	0.41310 0.55940 0.17170 0.08100
C 	C 	0.42360 0.60000 0.09298 0.06500
H 	H 	0.42670 0.60780 0.07250 -0.00800
C 	C 	0.37750 0.58580 0.10462 -0.11300
H 	H 	0.34950 0.58580 0.09230 0.07900
C 	C 	0.37260 0.57150 0.13435 0.05200
C 	C 	0.32410 0.55920 0.14802 0.10200
C 	C 	0.15660 0.61700 0.08229 0.07600
H 	H 	0.15850 0.63570 0.06240 -0.01800
C 	C 	0.19940 0.60120 0.09723 -0.12500
H 	H 	0.23010 0.60790 0.08770 0.08100
C 	C 	0.11030 0.58050 0.12265 0.06000
H 	H 	0.07910 0.57170 0.13140 -0.00800
C 	C 	0.15140 0.56520 0.13932 -0.11600
H 	H 	0.14870 0.54790 0.15930 0.08000
C 	C 	0.19700 0.57550 0.12630 0.05400
C 	C 	0.24220 0.56070 0.14382 0.10300
N 	N 	0.43844 0.00750 0.41682 -0.27400
N 	N 	0.43610 0.42860 0.53280 -0.27100
N 	N 	0.28760 0.42240 0.34329 -0.27500
N 	N 	0.39890 0.67690 0.45537 -0.14500
N 	N 	0.36350 0.53130 0.43727 -0.13700
N 	N 	0.36417 0.67410 0.40826 -0.13600
N 	N 	0.26175 0.42410 0.27432 -0.27400
N 	N 	0.46416 0.60330 0.10947 -0.27200
N 	N 	0.11227 0.60760 0.09434 -0.27400
N 	N 	0.32273 0.53550 0.17627 -0.13900
N 	N 	0.28509 0.57180 0.13059 -0.14000
N 	N 	0.23588 0.53790 0.17191 -0.13900
