data_crystal

_cell_length_a 13.67500
_cell_length_b 27.88100
_cell_length_c 45.71400
_cell_angle_alpha 90.00000
_cell_angle_beta  90.00000
_cell_angle_gamma 90.00000

_symmetry_space_group_name_	'P 1'
_symmetry_space_group_name_H-M	'P 1'

loop_
_symmetry_equiv_pos_as_xyz
  x,y,z

loop_
_atom_site_label
_atom_site_type_symbol
_atom_site_fract_x
_atom_site_fract_y
_atom_site_fract_z
_atom_site_charge
Zn	Zn	0.14480 0.74404 0.18894 1.16500
Zn	Zn	0.16089 0.55725 0.92953 1.16400
Zn	Zn	0.35031 0.52777 0.08720 1.16500
Zn	Zn	0.85520 0.75596 0.68894 1.16400
Zn	Zn	0.83911 0.94275 0.42953 1.16300
Zn	Zn	0.64969 0.97223 0.58720 1.16300
Zn	Zn	0.64480 0.25596 0.31106 1.16400
Zn	Zn	0.66089 0.44275 0.57047 1.16300
Zn	Zn	0.85031 0.47223 0.41280 1.16400
Zn	Zn	0.35520 0.24404 0.81106 1.16400
Zn	Zn	0.33911 0.05725 0.07046 1.16300
Zn	Zn	0.14969 0.02777 0.91280 1.16300
H 	H 	0.18240 0.68890 0.13580 -0.00900
H 	H 	0.10080 0.65350 0.09650 0.08200
H 	H 	0.93310 0.71860 0.17450 -0.01400
H 	H 	0.84500 0.68290 0.13690 0.08000
H 	H 	0.49920 0.58700 0.11940 -0.00400
H 	H 	0.65500 0.61710 0.11360 0.09300
H 	H 	0.50000 0.53570 0.03890 -0.00200
H 	H 	0.65640 0.56490 0.03090 0.08500
H 	H 	0.96160 0.53750 0.95540 -0.00900
H 	H 	0.86720 0.55780 0.99540 0.08800
H 	H 	0.19080 0.60380 0.98820 -0.00600
H 	H 	0.10180 0.62720 0.02900 0.07600
H 	H 	0.84580 0.83570 0.43850 -0.01600
H 	H 	0.87670 0.76550 0.41310 0.08000
H 	H 	0.91240 0.91390 0.36970 -0.00800
H 	H 	0.93950 0.84610 0.34170 0.08000
H 	H 	0.02950 0.80320 0.23210 0.00200
H 	H 	0.96970 0.79580 0.27960 0.08000
H 	H 	0.08350 0.66430 0.22840 -0.00900
H 	H 	0.02130 0.65330 0.27530 0.07900
H 	H 	0.89300 0.51270 0.35290 -0.00600
H 	H 	0.92120 0.58580 0.33000 0.08000
H 	H 	0.88250 0.57530 0.43000 -0.00500
H 	H 	0.90650 0.64970 0.40880 0.08000
H 	H 	0.81760 0.81110 0.63580 -0.00900
H 	H 	0.89920 0.84650 0.59650 0.08200
H 	H 	0.06690 0.78140 0.67450 -0.01500
H 	H 	0.15500 0.81710 0.63690 0.08000
H 	H 	0.50080 0.91300 0.61940 -0.00400
H 	H 	0.34500 0.88290 0.61360 0.09300
H 	H 	0.50000 0.96430 0.53890 -0.00200
H 	H 	0.34360 0.93510 0.53090 0.08500
H 	H 	0.03840 0.96250 0.45540 -0.00900
H 	H 	0.13280 0.94220 0.49540 0.08800
H 	H 	0.80920 0.89620 0.48820 -0.00600
H 	H 	0.89820 0.87280 0.52900 0.07600
H 	H 	0.15420 0.66430 0.93850 -0.01600
H 	H 	0.12330 0.73450 0.91310 0.08000
H 	H 	0.08760 0.58610 0.86970 -0.00800
H 	H 	0.06050 0.65390 0.84170 0.08000
H 	H 	0.97050 0.69680 0.73210 0.00200
H 	H 	0.03030 0.70420 0.77960 0.08000
H 	H 	0.91650 0.83570 0.72840 -0.00900
H 	H 	0.97870 0.84670 0.77530 0.07900
H 	H 	0.10700 0.98730 0.85290 -0.00600
H 	H 	0.07880 0.91420 0.83000 0.08000
H 	H 	0.11750 0.92470 0.93000 -0.00500
H 	H 	0.09350 0.85030 0.90880 0.08100
H 	H 	0.68240 0.31110 0.36420 -0.00900
H 	H 	0.60080 0.34650 0.40350 0.08200
H 	H 	0.43310 0.28140 0.32550 -0.01400
H 	H 	0.34500 0.31710 0.36310 0.08000
H 	H 	0.99920 0.41300 0.38060 -0.00400
H 	H 	0.15500 0.38290 0.38640 0.09300
H 	H 	0.00000 0.46430 0.46110 -0.00200
H 	H 	0.15640 0.43510 0.46910 0.08400
H 	H 	0.46160 0.46250 0.54460 -0.00900
H 	H 	0.36720 0.44220 0.50460 0.08800
H 	H 	0.69080 0.39620 0.51180 -0.00600
H 	H 	0.60180 0.37280 0.47100 0.07600
H 	H 	0.34580 0.16430 0.06150 -0.01600
H 	H 	0.37670 0.23450 0.08690 0.08000
H 	H 	0.41240 0.08610 0.13030 -0.00800
H 	H 	0.43950 0.15390 0.15830 0.08000
H 	H 	0.52950 0.19680 0.26790 0.00200
H 	H 	0.46970 0.20420 0.22040 0.08000
H 	H 	0.58350 0.33570 0.27160 -0.00900
H 	H 	0.52130 0.34670 0.22470 0.07900
H 	H 	0.39300 0.48730 0.14710 -0.00600
H 	H 	0.42120 0.41420 0.17000 0.08000
H 	H 	0.38250 0.42470 0.07000 -0.00500
H 	H 	0.40650 0.35030 0.09120 0.08000
H 	H 	0.31760 0.18890 0.86420 -0.00900
H 	H 	0.39920 0.15350 0.90350 0.08200
H 	H 	0.56690 0.21860 0.82550 -0.01400
H 	H 	0.65500 0.18290 0.86310 0.08000
H 	H 	0.00080 0.08700 0.88060 -0.00500
H 	H 	0.84500 0.11710 0.88640 0.09300
H 	H 	0.00000 0.03570 0.96110 -0.00300
H 	H 	0.84360 0.06490 0.96910 0.08500
H 	H 	0.53840 0.03750 0.04460 -0.00900
H 	H 	0.63280 0.05780 0.00460 0.08800
H 	H 	0.30920 0.10380 0.01180 -0.00600
H 	H 	0.39820 0.12720 0.97100 0.07600
H 	H 	0.65420 0.33570 0.56150 -0.01600
H 	H 	0.62330 0.26550 0.58690 0.08000
H 	H 	0.58760 0.41390 0.63030 -0.00800
H 	H 	0.56050 0.34610 0.65830 0.08000
H 	H 	0.47050 0.30320 0.76790 0.00200
H 	H 	0.53030 0.29580 0.72040 0.08000
H 	H 	0.41650 0.16430 0.77160 -0.00900
H 	H 	0.47870 0.15330 0.72470 0.07900
H 	H 	0.60700 0.01270 0.64710 -0.00600
H 	H 	0.57880 0.08580 0.67000 0.08000
H 	H 	0.61750 0.07530 0.57000 -0.00500
H 	H 	0.59350 0.14970 0.59120 0.08000
C 	C 	0.11300 0.68830 0.13570 0.06600
C 	C 	0.06480 0.66677 0.11229 -0.11000
C 	C 	0.96740 0.70540 0.15830 0.07400
C 	C 	0.91430 0.68423 0.13601 -0.12100
C 	C 	0.96430 0.66501 0.11243 0.05900
C 	C 	0.91160 0.64220 0.08762 0.10900
C 	C 	0.53210 0.58220 0.10130 0.06500
C 	C 	0.62470 0.60020 0.09807 -0.12100
C 	C 	0.53260 0.55225 0.05421 0.06700
C 	C 	0.62550 0.56940 0.04929 -0.12200
C 	C 	0.67360 0.59346 0.07176 0.05000
C 	C 	0.77660 0.60938 0.06828 0.10100
C 	C 	0.99000 0.55625 0.97049 0.06900
C 	C 	0.93320 0.56827 0.99419 -0.12100
C 	C 	0.12370 0.59510 0.98952 0.06500
C 	C 	0.07120 0.60900 0.01399 -0.11100
C 	C 	0.97400 0.59614 0.01642 0.05000
C 	C 	0.91620 0.60981 0.04268 0.10300
C 	C 	0.86580 0.83760 0.41858 0.07100
C 	C 	0.88280 0.79561 0.40357 -0.12000
C 	C 	0.90390 0.88327 0.37839 0.06100
C 	C 	0.92050 0.84312 0.36157 -0.11600
C 	C 	0.90900 0.79818 0.37427 0.05200
C 	C 	0.92390 0.75396 0.35678 0.10200
C 	C 	0.02940 0.77256 0.24127 0.05900
C 	C 	0.99320 0.76838 0.26946 -0.11000
C 	C 	0.06050 0.69128 0.23904 0.06100
C 	C 	0.02400 0.68453 0.26701 -0.11300
C 	C 	0.99180 0.72379 0.28268 0.04900
C 	C 	0.96050 0.71901 0.31372 0.10200
C 	C 	0.89600 0.54095 0.36446 0.06400
C 	C 	0.91200 0.58452 0.35057 -0.11500
C 	C 	0.88930 0.57737 0.40940 0.06500
C 	C 	0.90380 0.62188 0.39681 -0.11300
C 	C 	0.91420 0.62594 0.36715 0.05200
C 	C 	0.92660 0.67329 0.35318 0.10100
C 	C 	0.88700 0.81170 0.63570 0.06700
C 	C 	0.93520 0.83323 0.61229 -0.11200
C 	C 	0.03260 0.79460 0.65830 0.07500
C 	C 	0.08570 0.81577 0.63601 -0.12200
C 	C 	0.03570 0.83499 0.61243 0.06000
C 	C 	0.08840 0.85780 0.58762 0.10800
C 	C 	0.46790 0.91780 0.60130 0.06500
C 	C 	0.37530 0.89980 0.59807 -0.12100
C 	C 	0.46740 0.94775 0.55421 0.06700
C 	C 	0.37450 0.93060 0.54929 -0.12200
C 	C 	0.32640 0.90654 0.57176 0.05000
C 	C 	0.22340 0.89062 0.56828 0.10100
C 	C 	0.01000 0.94375 0.47049 0.07000
C 	C 	0.06680 0.93173 0.49419 -0.12200
C 	C 	0.87630 0.90490 0.48952 0.06600
C 	C 	0.92880 0.89100 0.51399 -0.11300
C 	C 	0.02600 0.90386 0.51642 0.05100
C 	C 	0.08380 0.89019 0.54268 0.10300
C 	C 	0.13420 0.66240 0.91858 0.07100
C 	C 	0.11720 0.70439 0.90357 -0.12000
C 	C 	0.09610 0.61673 0.87839 0.06100
C 	C 	0.07950 0.65688 0.86157 -0.11600
C 	C 	0.09100 0.70182 0.87427 0.05200
C 	C 	0.07610 0.74604 0.85678 0.10200
C 	C 	0.97060 0.72744 0.74127 0.05800
C 	C 	0.00680 0.73162 0.76946 -0.10900
C 	C 	0.93950 0.80872 0.73904 0.06100
C 	C 	0.97600 0.81547 0.76701 -0.11400
C 	C 	0.00820 0.77621 0.78268 0.05000
C 	C 	0.03950 0.78099 0.81372 0.10200
C 	C 	0.10400 0.95905 0.86446 0.06400
C 	C 	0.08800 0.91548 0.85057 -0.11500
C 	C 	0.11070 0.92263 0.90940 0.06500
C 	C 	0.09620 0.87812 0.89681 -0.11300
C 	C 	0.08580 0.87406 0.86715 0.05300
C 	C 	0.07340 0.82671 0.85318 0.10100
C 	C 	0.61300 0.31170 0.36430 0.06600
C 	C 	0.56480 0.33323 0.38771 -0.11000
C 	C 	0.46740 0.29460 0.34170 0.07400
C 	C 	0.41430 0.31577 0.36399 -0.12100
C 	C 	0.46430 0.33499 0.38757 0.05900
C 	C 	0.41160 0.35780 0.41238 0.10900
C 	C 	0.03210 0.41780 0.39870 0.06400
C 	C 	0.12470 0.39980 0.40193 -0.12000
C 	C 	0.03260 0.44775 0.44579 0.06700
C 	C 	0.12550 0.43060 0.45071 -0.12100
C 	C 	0.17360 0.40654 0.42824 0.04900
C 	C 	0.27660 0.39062 0.43172 0.10100
C 	C 	0.49000 0.44375 0.52951 0.06900
C 	C 	0.43320 0.43173 0.50581 -0.12100
C 	C 	0.62370 0.40490 0.51048 0.06500
C 	C 	0.57120 0.39100 0.48601 -0.11200
C 	C 	0.47400 0.40386 0.48358 0.05000
C 	C 	0.41620 0.39019 0.45732 0.10300
C 	C 	0.36580 0.16240 0.08142 0.07100
C 	C 	0.38280 0.20439 0.09643 -0.12000
C 	C 	0.40390 0.11673 0.12161 0.06100
C 	C 	0.42050 0.15688 0.13843 -0.11600
C 	C 	0.40900 0.20182 0.12573 0.05200
C 	C 	0.42390 0.24604 0.14322 0.10200
C 	C 	0.52940 0.22744 0.25873 0.05900
C 	C 	0.49320 0.23162 0.23054 -0.11000
C 	C 	0.56050 0.30872 0.26096 0.06100
C 	C 	0.52400 0.31547 0.23299 -0.11300
C 	C 	0.49180 0.27621 0.21732 0.04900
C 	C 	0.46050 0.28099 0.18628 0.10200
C 	C 	0.39600 0.45905 0.13554 0.06400
C 	C 	0.41200 0.41548 0.14943 -0.11500
C 	C 	0.38930 0.42263 0.09060 0.06500
C 	C 	0.40380 0.37812 0.10319 -0.11300
C 	C 	0.41420 0.37406 0.13285 0.05200
C 	C 	0.42660 0.32671 0.14682 0.10100
C 	C 	0.38700 0.18830 0.86430 0.06600
C 	C 	0.43520 0.16677 0.88771 -0.11000
C 	C 	0.53260 0.20540 0.84170 0.07400
C 	C 	0.58570 0.18423 0.86399 -0.12100
C 	C 	0.53570 0.16501 0.88757 0.05900
C 	C 	0.58840 0.14220 0.91238 0.10900
C 	C 	0.96790 0.08220 0.89870 0.06500
C 	C 	0.87530 0.10020 0.90193 -0.12100
C 	C 	0.96740 0.05225 0.94579 0.06800
C 	C 	0.87450 0.06940 0.95071 -0.12200
C 	C 	0.82640 0.09346 0.92824 0.05000
C 	C 	0.72340 0.10938 0.93172 0.10100
C 	C 	0.51000 0.05625 0.02951 0.06900
C 	C 	0.56680 0.06827 0.00581 -0.12100
C 	C 	0.37630 0.09510 0.01048 0.06500
C 	C 	0.42880 0.10900 0.98601 -0.11200
C 	C 	0.52600 0.09614 0.98358 0.05000
C 	C 	0.58380 0.10981 0.95732 0.10300
C 	C 	0.63420 0.33760 0.58142 0.07100
C 	C 	0.61720 0.29561 0.59643 -0.12000
C 	C 	0.59610 0.38327 0.62161 0.06100
C 	C 	0.57950 0.34312 0.63843 -0.11600
C 	C 	0.59100 0.29818 0.62573 0.05200
C 	C 	0.57610 0.25396 0.64322 0.10200
C 	C 	0.47060 0.27256 0.75873 0.05900
C 	C 	0.50680 0.26838 0.73054 -0.11000
C 	C 	0.43950 0.19128 0.76096 0.06100
C 	C 	0.47600 0.18453 0.73299 -0.11300
C 	C 	0.50820 0.22379 0.71732 0.04900
C 	C 	0.53950 0.21901 0.68628 0.10200
C 	C 	0.60400 0.04095 0.63554 0.06400
C 	C 	0.58800 0.08452 0.64943 -0.11500
C 	C 	0.61070 0.07737 0.59060 0.06500
C 	C 	0.59620 0.12188 0.60319 -0.11300
C 	C 	0.58580 0.12594 0.63285 0.05200
C 	C 	0.57340 0.17329 0.64682 0.10100
I 	I 	0.30308 0.69652 0.19544 -0.37200
I 	I 	0.15294 0.83302 0.17684 -0.37500
I 	I 	0.34189 0.56653 0.94140 -0.38100
I 	I 	0.07902 0.48930 0.90204 -0.36700
I 	I 	0.27402 0.51072 0.03748 -0.39100
I 	I 	0.26602 0.57649 0.12691 -0.36500
I 	I 	0.69692 0.80348 0.69544 -0.37200
I 	I 	0.84706 0.66698 0.67684 -0.37500
I 	I 	0.65811 0.93347 0.44140 -0.38100
I 	I 	0.92098 0.01070 0.40204 -0.36600
I 	I 	0.72598 0.98928 0.53748 -0.39200
I 	I 	0.73398 0.92351 0.62691 -0.36600
I 	I 	0.80308 0.30348 0.30456 -0.37100
I 	I 	0.65294 0.16698 0.32316 -0.37400
I 	I 	0.84189 0.43347 0.55860 -0.38100
I 	I 	0.57902 0.51070 0.59796 -0.36700
I 	I 	0.77402 0.48928 0.46252 -0.39100
I 	I 	0.76602 0.42351 0.37309 -0.36500
I 	I 	0.19692 0.19652 0.80456 -0.37200
I 	I 	0.34706 0.33302 0.82316 -0.37500
I 	I 	0.15811 0.06653 0.05860 -0.38100
I 	I 	0.42098 0.98930 0.09796 -0.36700
I 	I 	0.22598 0.01072 0.96252 -0.39200
I 	I 	0.23398 0.07649 0.87309 -0.36500
N 	N 	0.06490 0.70801 0.15794 -0.27400
N 	N 	0.48590 0.55795 0.07991 -0.27200
N 	N 	0.08370 0.56985 0.96773 -0.27000
N 	N 	0.81680 0.63230 0.09088 -0.13500
N 	N 	0.82190 0.59791 0.04341 -0.14300
N 	N 	0.96490 0.63208 0.06399 -0.13800
N 	N 	0.87610 0.88099 0.40650 -0.27000
N 	N 	0.06420 0.73478 0.22656 -0.27000
N 	N 	0.88450 0.53702 0.39346 -0.27000
N 	N 	0.94780 0.75982 0.32852 -0.13900
N 	N 	0.95120 0.67472 0.32483 -0.13900
N 	N 	0.91270 0.71192 0.37017 -0.13900
N 	N 	0.93510 0.79199 0.65794 -0.27500
N 	N 	0.51410 0.94205 0.57991 -0.27200
N 	N 	0.91630 0.93015 0.46773 -0.27100
N 	N 	0.18320 0.86770 0.59088 -0.13500
N 	N 	0.17810 0.90209 0.54341 -0.14300
N 	N 	0.03510 0.86792 0.56399 -0.13800
N 	N 	0.12390 0.61901 0.90650 -0.27000
N 	N 	0.93580 0.76522 0.72656 -0.27000
N 	N 	0.11550 0.96298 0.89346 -0.27000
N 	N 	0.05220 0.74018 0.82852 -0.13900
N 	N 	0.04880 0.82528 0.82483 -0.13900
N 	N 	0.08730 0.78808 0.87017 -0.13900
N 	N 	0.56490 0.29199 0.34206 -0.27400
N 	N 	0.98590 0.44205 0.42009 -0.27100
N 	N 	0.58370 0.43015 0.53227 -0.27000
N 	N 	0.31680 0.36770 0.40912 -0.13500
N 	N 	0.32190 0.40209 0.45659 -0.14300
N 	N 	0.46490 0.36792 0.43601 -0.13800
N 	N 	0.37610 0.11901 0.09350 -0.27000
N 	N 	0.56420 0.26522 0.27344 -0.27000
N 	N 	0.38450 0.46298 0.10654 -0.27000
N 	N 	0.44780 0.24018 0.17148 -0.13900
N 	N 	0.45120 0.32528 0.17517 -0.13900
N 	N 	0.41270 0.28808 0.12983 -0.13900
N 	N 	0.43510 0.20801 0.84206 -0.27400
N 	N 	0.01410 0.05795 0.92009 -0.27200
N 	N 	0.41630 0.06985 0.03227 -0.27100
N 	N 	0.68320 0.13230 0.90912 -0.13500
N 	N 	0.67810 0.09791 0.95659 -0.14300
N 	N 	0.53510 0.13208 0.93601 -0.13800
N 	N 	0.62390 0.38099 0.59350 -0.27000
N 	N 	0.43580 0.23478 0.77344 -0.27000
N 	N 	0.61550 0.03702 0.60654 -0.27000
N 	N 	0.55220 0.25982 0.67148 -0.13900
N 	N 	0.54880 0.17472 0.67517 -0.13900
N 	N 	0.58730 0.21192 0.62983 -0.13900
Zn	Zn	0.85520 0.25596 0.81106 1.16400
Zn	Zn	0.83911 0.44275 0.07046 1.16300
Zn	Zn	0.64969 0.47223 0.91280 1.16400
Zn	Zn	0.14480 0.24404 0.31106 1.16400
Zn	Zn	0.16089 0.05725 0.57047 1.16300
Zn	Zn	0.35031 0.02777 0.41280 1.16300
Zn	Zn	0.35520 0.74404 0.68894 1.16400
Zn	Zn	0.33911 0.55725 0.42953 1.16300
Zn	Zn	0.14969 0.52777 0.58720 1.16400
Zn	Zn	0.64480 0.75596 0.18894 1.16400
Zn	Zn	0.66089 0.94275 0.92953 1.16300
Zn	Zn	0.85031 0.97223 0.08720 1.16300
H 	H 	0.81760 0.31110 0.86420 -0.00900
H 	H 	0.89920 0.34650 0.90350 0.08200
H 	H 	0.06690 0.28140 0.82550 -0.01400
H 	H 	0.15500 0.31710 0.86310 0.08000
H 	H 	0.50080 0.41300 0.88060 -0.00400
H 	H 	0.34500 0.38290 0.88640 0.09300
H 	H 	0.50000 0.46430 0.96110 -0.00200
H 	H 	0.34360 0.43510 0.96910 0.08500
H 	H 	0.03840 0.46250 0.04460 -0.00900
H 	H 	0.13280 0.44220 0.00460 0.08800
H 	H 	0.80920 0.39620 0.01180 -0.00600
H 	H 	0.89820 0.37280 0.97100 0.07600
H 	H 	0.15420 0.16430 0.56150 -0.01600
H 	H 	0.12330 0.23450 0.58690 0.08000
H 	H 	0.08760 0.08610 0.63030 -0.00800
H 	H 	0.06050 0.15390 0.65830 0.08000
H 	H 	0.97050 0.19680 0.76790 0.00200
H 	H 	0.03030 0.20420 0.72040 0.08000
H 	H 	0.91650 0.33570 0.77160 -0.00900
H 	H 	0.97870 0.34670 0.72470 0.07900
H 	H 	0.10700 0.48730 0.64710 -0.00600
H 	H 	0.07880 0.41420 0.67000 0.08000
H 	H 	0.11750 0.42470 0.57000 -0.00500
H 	H 	0.09350 0.35030 0.59120 0.08000
H 	H 	0.18240 0.18890 0.36420 -0.00900
H 	H 	0.10080 0.15350 0.40350 0.08200
H 	H 	0.93310 0.21860 0.32550 -0.01400
H 	H 	0.84500 0.18290 0.36310 0.08000
H 	H 	0.49920 0.08700 0.38060 -0.00400
H 	H 	0.65500 0.11710 0.38640 0.09300
H 	H 	0.50000 0.03570 0.46110 -0.00200
H 	H 	0.65640 0.06490 0.46910 0.08500
H 	H 	0.96160 0.03750 0.54460 -0.00900
H 	H 	0.86720 0.05780 0.50460 0.08800
H 	H 	0.19080 0.10380 0.51180 -0.00600
H 	H 	0.10180 0.12720 0.47100 0.07600
H 	H 	0.84580 0.33570 0.06150 -0.01600
H 	H 	0.87670 0.26550 0.08690 0.08000
H 	H 	0.91240 0.41390 0.13030 -0.00800
H 	H 	0.93950 0.34610 0.15830 0.08000
H 	H 	0.02950 0.30320 0.26790 0.00200
H 	H 	0.96970 0.29580 0.22040 0.08000
H 	H 	0.08350 0.16430 0.27160 -0.00900
H 	H 	0.02130 0.15330 0.22470 0.07900
H 	H 	0.89300 0.01270 0.14710 -0.00600
H 	H 	0.92120 0.08580 0.17000 0.08000
H 	H 	0.88250 0.07530 0.07000 -0.00500
H 	H 	0.90650 0.14970 0.09120 0.08000
H 	H 	0.31760 0.68890 0.63580 -0.00900
H 	H 	0.39920 0.65350 0.59650 0.08200
H 	H 	0.56690 0.71860 0.67450 -0.01400
H 	H 	0.65500 0.68290 0.63690 0.08000
H 	H 	0.00080 0.58700 0.61940 -0.00400
H 	H 	0.84500 0.61710 0.61360 0.09300
H 	H 	0.00000 0.53570 0.53890 -0.00200
H 	H 	0.84360 0.56490 0.53090 0.08400
H 	H 	0.53840 0.53750 0.45540 -0.00900
H 	H 	0.63280 0.55780 0.49540 0.08800
H 	H 	0.30920 0.60380 0.48820 -0.00600
H 	H 	0.39820 0.62720 0.52900 0.07600
H 	H 	0.65420 0.83570 0.93850 -0.01600
H 	H 	0.62330 0.76550 0.91310 0.08000
H 	H 	0.58760 0.91390 0.86970 -0.00800
H 	H 	0.56050 0.84610 0.84170 0.08000
H 	H 	0.47050 0.80320 0.73210 0.00200
H 	H 	0.53030 0.79580 0.77960 0.08000
H 	H 	0.41650 0.66430 0.72840 -0.00900
H 	H 	0.47870 0.65330 0.77530 0.07900
H 	H 	0.60700 0.51270 0.85290 -0.00600
H 	H 	0.57880 0.58580 0.83000 0.08000
H 	H 	0.61750 0.57530 0.93000 -0.00500
H 	H 	0.59350 0.64970 0.90880 0.08000
H 	H 	0.68240 0.81110 0.13580 -0.00900
H 	H 	0.60080 0.84650 0.09650 0.08200
H 	H 	0.43310 0.78140 0.17450 -0.01400
H 	H 	0.34500 0.81710 0.13690 0.08000
H 	H 	0.99920 0.91300 0.11940 -0.00500
H 	H 	0.15500 0.88290 0.11360 0.09300
H 	H 	0.00000 0.96430 0.03890 -0.00200
H 	H 	0.15640 0.93510 0.03090 0.08500
H 	H 	0.46160 0.96250 0.95540 -0.00900
H 	H 	0.36720 0.94220 0.99540 0.08800
H 	H 	0.69080 0.89620 0.98820 -0.00600
H 	H 	0.60180 0.87280 0.02900 0.07600
H 	H 	0.34580 0.66430 0.43850 -0.01600
H 	H 	0.37670 0.73450 0.41310 0.08000
H 	H 	0.41240 0.58610 0.36970 -0.00800
H 	H 	0.43950 0.65390 0.34170 0.08000
H 	H 	0.52950 0.69680 0.23210 0.00200
H 	H 	0.46970 0.70420 0.27960 0.08000
H 	H 	0.58350 0.83570 0.22840 -0.00900
H 	H 	0.52130 0.84670 0.27530 0.07900
H 	H 	0.39300 0.98730 0.35290 -0.00600
H 	H 	0.42120 0.91420 0.33000 0.08000
H 	H 	0.38250 0.92470 0.43000 -0.00500
H 	H 	0.40650 0.85030 0.40880 0.08000
C 	C 	0.88700 0.31170 0.86430 0.06600
C 	C 	0.93520 0.33323 0.88771 -0.11100
C 	C 	0.03260 0.29460 0.84170 0.07400
C 	C 	0.08570 0.31577 0.86399 -0.12100
C 	C 	0.03570 0.33499 0.88757 0.05900
C 	C 	0.08840 0.35780 0.91238 0.10900
C 	C 	0.46790 0.41780 0.89870 0.06500
C 	C 	0.37530 0.39980 0.90193 -0.12100
C 	C 	0.46740 0.44775 0.94579 0.06700
C 	C 	0.37450 0.43060 0.95071 -0.12200
C 	C 	0.32640 0.40654 0.92824 0.05000
C 	C 	0.22340 0.39062 0.93172 0.10100
C 	C 	0.01000 0.44375 0.02951 0.06900
C 	C 	0.06680 0.43173 0.00581 -0.12100
C 	C 	0.87630 0.40490 0.01048 0.06500
C 	C 	0.92880 0.39100 0.98601 -0.11200
C 	C 	0.02600 0.40386 0.98358 0.05000
C 	C 	0.08380 0.39019 0.95732 0.10300
C 	C 	0.13420 0.16240 0.58142 0.07100
C 	C 	0.11720 0.20439 0.59643 -0.12000
C 	C 	0.09610 0.11673 0.62161 0.06100
C 	C 	0.07950 0.15688 0.63843 -0.11600
C 	C 	0.09100 0.20182 0.62573 0.05200
C 	C 	0.07610 0.24604 0.64322 0.10200
C 	C 	0.97060 0.22744 0.75873 0.05900
C 	C 	0.00680 0.23162 0.73054 -0.11000
C 	C 	0.93950 0.30872 0.76096 0.06100
C 	C 	0.97600 0.31547 0.73299 -0.11400
C 	C 	0.00820 0.27621 0.71732 0.04900
C 	C 	0.03950 0.28099 0.68628 0.10200
C 	C 	0.10400 0.45905 0.63554 0.06400
C 	C 	0.08800 0.41548 0.64943 -0.11500
C 	C 	0.11070 0.42263 0.59060 0.06500
C 	C 	0.09620 0.37812 0.60319 -0.11300
C 	C 	0.08580 0.37406 0.63285 0.05200
C 	C 	0.07340 0.32671 0.64682 0.10100
C 	C 	0.11300 0.18830 0.36430 0.06700
C 	C 	0.06480 0.16677 0.38771 -0.11200
C 	C 	0.96740 0.20540 0.34170 0.07500
C 	C 	0.91430 0.18423 0.36399 -0.12200
C 	C 	0.96430 0.16501 0.38757 0.06000
C 	C 	0.91160 0.14220 0.41238 0.10800
C 	C 	0.53210 0.08220 0.39870 0.06500
C 	C 	0.62470 0.10020 0.40193 -0.12100
C 	C 	0.53260 0.05225 0.44579 0.06700
C 	C 	0.62550 0.06940 0.45071 -0.12200
C 	C 	0.67360 0.09346 0.42824 0.05000
C 	C 	0.77660 0.10938 0.43172 0.10100
C 	C 	0.99000 0.05625 0.52951 0.07000
C 	C 	0.93320 0.06827 0.50581 -0.12100
C 	C 	0.12370 0.09510 0.51048 0.06600
C 	C 	0.07120 0.10900 0.48601 -0.11300
C 	C 	0.97400 0.09614 0.48358 0.05100
C 	C 	0.91620 0.10981 0.45732 0.10300
C 	C 	0.86580 0.33760 0.08142 0.07100
C 	C 	0.88280 0.29561 0.09643 -0.12000
C 	C 	0.90390 0.38327 0.12161 0.06100
C 	C 	0.92050 0.34312 0.13843 -0.11600
C 	C 	0.90900 0.29818 0.12573 0.05200
C 	C 	0.92390 0.25396 0.14322 0.10200
C 	C 	0.02940 0.27256 0.25873 0.05800
C 	C 	0.99320 0.26838 0.23054 -0.10900
C 	C 	0.06050 0.19128 0.26096 0.06100
C 	C 	0.02400 0.18453 0.23299 -0.11400
C 	C 	0.99180 0.22379 0.21732 0.05000
C 	C 	0.96050 0.21901 0.18628 0.10200
C 	C 	0.89600 0.04095 0.13554 0.06400
C 	C 	0.91200 0.08452 0.14943 -0.11500
C 	C 	0.88930 0.07737 0.09060 0.06500
C 	C 	0.90380 0.12188 0.10319 -0.11300
C 	C 	0.91420 0.12594 0.13285 0.05300
C 	C 	0.92660 0.17329 0.14682 0.10100
C 	C 	0.38700 0.68830 0.63570 0.06600
C 	C 	0.43520 0.66677 0.61229 -0.11000
C 	C 	0.53260 0.70540 0.65830 0.07400
C 	C 	0.58570 0.68423 0.63601 -0.12100
C 	C 	0.53570 0.66501 0.61243 0.05900
C 	C 	0.58840 0.64220 0.58762 0.10900
C 	C 	0.96790 0.58220 0.60130 0.06300
C 	C 	0.87530 0.60020 0.59807 -0.12000
C 	C 	0.96740 0.55225 0.55421 0.06600
C 	C 	0.87450 0.56940 0.54929 -0.12100
C 	C 	0.82640 0.59346 0.57176 0.04900
C 	C 	0.72340 0.60938 0.56828 0.10100
C 	C 	0.51000 0.55625 0.47049 0.06900
C 	C 	0.56680 0.56827 0.49419 -0.12100
C 	C 	0.37630 0.59510 0.48952 0.06500
C 	C 	0.42880 0.60900 0.51399 -0.11200
C 	C 	0.52600 0.59614 0.51642 0.05000
C 	C 	0.58380 0.60981 0.54268 0.10300
C 	C 	0.63420 0.83760 0.91858 0.07100
C 	C 	0.61720 0.79561 0.90357 -0.12000
C 	C 	0.59610 0.88327 0.87839 0.06100
C 	C 	0.57950 0.84312 0.86157 -0.11600
C 	C 	0.59100 0.79818 0.87427 0.05200
C 	C 	0.57610 0.75396 0.85678 0.10200
C 	C 	0.47060 0.77256 0.74127 0.05900
C 	C 	0.50680 0.76838 0.76946 -0.11000
C 	C 	0.43950 0.69128 0.73904 0.06100
C 	C 	0.47600 0.68453 0.76701 -0.11300
C 	C 	0.50820 0.72379 0.78268 0.04900
C 	C 	0.53950 0.71901 0.81372 0.10200
C 	C 	0.60400 0.54095 0.86446 0.06400
C 	C 	0.58800 0.58452 0.85057 -0.11500
C 	C 	0.61070 0.57737 0.90940 0.06500
C 	C 	0.59620 0.62188 0.89681 -0.11300
C 	C 	0.58580 0.62594 0.86715 0.05200
C 	C 	0.57340 0.67329 0.85318 0.10100
C 	C 	0.61300 0.81170 0.13570 0.06600
C 	C 	0.56480 0.83323 0.11229 -0.11000
C 	C 	0.46740 0.79460 0.15830 0.07400
C 	C 	0.41430 0.81577 0.13601 -0.12100
C 	C 	0.46430 0.83499 0.11243 0.05900
C 	C 	0.41160 0.85780 0.08762 0.10900
C 	C 	0.03210 0.91780 0.10130 0.06600
C 	C 	0.12470 0.89980 0.09807 -0.12100
C 	C 	0.03260 0.94775 0.05421 0.06800
C 	C 	0.12550 0.93060 0.04929 -0.12200
C 	C 	0.17360 0.90654 0.07176 0.05000
C 	C 	0.27660 0.89062 0.06828 0.10100
C 	C 	0.49000 0.94375 0.97049 0.06900
C 	C 	0.43320 0.93173 0.99419 -0.12100
C 	C 	0.62370 0.90490 0.98952 0.06500
C 	C 	0.57120 0.89100 0.01399 -0.11200
C 	C 	0.47400 0.90386 0.01642 0.05000
C 	C 	0.41620 0.89019 0.04268 0.10300
C 	C 	0.36580 0.66240 0.41858 0.07100
C 	C 	0.38280 0.70439 0.40357 -0.12000
C 	C 	0.40390 0.61673 0.37839 0.06100
C 	C 	0.42050 0.65688 0.36157 -0.11600
C 	C 	0.40900 0.70182 0.37427 0.05200
C 	C 	0.42390 0.74604 0.35678 0.10200
C 	C 	0.52940 0.72744 0.24127 0.05900
C 	C 	0.49320 0.73162 0.26946 -0.11000
C 	C 	0.56050 0.80872 0.23904 0.06100
C 	C 	0.52400 0.81547 0.26701 -0.11300
C 	C 	0.49180 0.77621 0.28268 0.04900
C 	C 	0.46050 0.78099 0.31372 0.10200
C 	C 	0.39600 0.95905 0.36446 0.06400
C 	C 	0.41200 0.91548 0.35057 -0.11500
C 	C 	0.38930 0.92263 0.40940 0.06500
C 	C 	0.40380 0.87812 0.39681 -0.11300
C 	C 	0.41420 0.87406 0.36715 0.05200
C 	C 	0.42660 0.82671 0.35318 0.10100
I 	I 	0.69692 0.30348 0.80456 -0.37200
I 	I 	0.84706 0.16698 0.82316 -0.37500
I 	I 	0.65811 0.43347 0.05860 -0.38100
I 	I 	0.92098 0.51070 0.09796 -0.36700
I 	I 	0.72598 0.48928 0.96252 -0.39100
I 	I 	0.73398 0.42351 0.87309 -0.36500
I 	I 	0.30308 0.19652 0.30456 -0.37200
I 	I 	0.15294 0.33302 0.32316 -0.37500
I 	I 	0.34189 0.06653 0.55860 -0.38100
I 	I 	0.07902 0.98930 0.59796 -0.36600
I 	I 	0.27402 0.01072 0.46252 -0.39200
I 	I 	0.26602 0.07649 0.37309 -0.36600
I 	I 	0.19692 0.69652 0.69544 -0.37100
I 	I 	0.34706 0.83302 0.67684 -0.37400
I 	I 	0.15811 0.56653 0.44140 -0.38100
I 	I 	0.42098 0.48930 0.40204 -0.36700
I 	I 	0.22598 0.51072 0.53748 -0.39100
I 	I 	0.23398 0.57649 0.62691 -0.36500
I 	I 	0.80308 0.80348 0.19544 -0.37200
I 	I 	0.65294 0.66698 0.17684 -0.37500
I 	I 	0.84189 0.93347 0.94140 -0.38100
I 	I 	0.57902 0.01070 0.90204 -0.36700
I 	I 	0.77402 0.98928 0.03748 -0.39200
I 	I 	0.76602 0.92351 0.12691 -0.36500
N 	N 	0.93510 0.29199 0.84206 -0.27500
N 	N 	0.51410 0.44205 0.92009 -0.27200
N 	N 	0.91630 0.43015 0.03227 -0.27000
N 	N 	0.18320 0.36770 0.90912 -0.13500
N 	N 	0.17810 0.40209 0.95659 -0.14300
N 	N 	0.03510 0.36792 0.93601 -0.13800
N 	N 	0.12390 0.11901 0.59350 -0.27000
N 	N 	0.93580 0.26522 0.77344 -0.27000
N 	N 	0.11550 0.46298 0.60654 -0.27000
N 	N 	0.05220 0.24018 0.67148 -0.13900
N 	N 	0.04880 0.32528 0.67517 -0.13900
N 	N 	0.08730 0.28808 0.62983 -0.13900
N 	N 	0.06490 0.20801 0.34206 -0.27500
N 	N 	0.48590 0.05795 0.42009 -0.27200
N 	N 	0.08370 0.06985 0.53227 -0.27100
N 	N 	0.81680 0.13230 0.40912 -0.13500
N 	N 	0.82190 0.09791 0.45659 -0.14300
N 	N 	0.96490 0.13208 0.43601 -0.13800
N 	N 	0.87610 0.38099 0.09350 -0.27000
N 	N 	0.06420 0.23478 0.27344 -0.27000
N 	N 	0.88450 0.03702 0.10654 -0.27000
N 	N 	0.94780 0.25982 0.17148 -0.13900
N 	N 	0.95120 0.17472 0.17517 -0.13900
N 	N 	0.91270 0.21192 0.12983 -0.13900
N 	N 	0.43510 0.70801 0.65794 -0.27400
N 	N 	0.01410 0.55795 0.57991 -0.27100
N 	N 	0.41630 0.56985 0.46773 -0.27000
N 	N 	0.68320 0.63230 0.59088 -0.13500
N 	N 	0.67810 0.59791 0.54341 -0.14300
N 	N 	0.53510 0.63208 0.56399 -0.13800
N 	N 	0.62390 0.88099 0.90650 -0.27000
N 	N 	0.43580 0.73478 0.72656 -0.27000
N 	N 	0.61550 0.53702 0.89346 -0.27000
N 	N 	0.55220 0.75982 0.82852 -0.13900
N 	N 	0.54880 0.67472 0.82483 -0.13900
N 	N 	0.58730 0.71192 0.87017 -0.13900
N 	N 	0.56490 0.79199 0.15794 -0.27400
N 	N 	0.98590 0.94205 0.07991 -0.27200
N 	N 	0.58370 0.93015 0.96773 -0.27100
N 	N 	0.31680 0.86770 0.09088 -0.13500
N 	N 	0.32190 0.90209 0.04341 -0.14300
N 	N 	0.46490 0.86792 0.06399 -0.13800
N 	N 	0.37610 0.61901 0.40650 -0.27000
N 	N 	0.56420 0.76522 0.22656 -0.27000
N 	N 	0.38450 0.96298 0.39346 -0.27000
N 	N 	0.44780 0.74018 0.32852 -0.13900
N 	N 	0.45120 0.82528 0.32483 -0.13900
N 	N 	0.41270 0.78808 0.37017 -0.13900
