data_crystal

_cell_length_a 17.31400
_cell_length_b 5.36280
_cell_length_c 23.92700
_cell_angle_alpha 90.00000
_cell_angle_beta  133.57700
_cell_angle_gamma 90.00000

_symmetry_space_group_name_	'P 1'
_symmetry_space_group_name_H-M	'P 1'

loop_
_symmetry_equiv_pos_as_xyz
  x,y,z

loop_
_atom_site_label
_atom_site_type_symbol
_atom_site_fract_x
_atom_site_fract_y
_atom_site_fract_z
_atom_site_charge
O 	O 	0.60770 0.20140 0.56530 -0.22100
O 	O 	0.91530 0.74670 0.94340 -0.22200
N 	N 	0.89470 0.80400 0.63000 -0.17700
N 	N 	0.55380 0.02000 0.45820 -0.20000
H 	H 	0.50690 0.92430 0.41970 0.13200
N 	N 	0.87220 0.80360 0.74060 -0.18100
N 	N 	0.89690 0.15440 0.91140 -0.21200
H 	H 	0.92730 0.29800 0.92630 0.16100
C 	C 	0.90420 0.64430 0.59180 0.04800
H 	H 	0.96290 0.53840 0.62010 0.03900
C 	C 	0.83110 0.63050 0.51260 -0.06700
H 	H 	0.84020 0.51670 0.48820 0.07400
C 	C 	0.74350 0.78830 0.46970 -0.04600
H 	H 	0.69330 0.78170 0.41610 0.04500
C 	C 	0.73190 0.95430 0.50710 0.03000
C 	C 	0.80920 0.95600 0.58700 -0.00700
H 	H 	0.80160 0.06870 0.61250 0.05600
C 	C 	0.63620 0.12350 0.46420 -0.06900
H 	H 	0.65860 0.28250 0.49070 0.07100
H 	H 	0.60730 0.15360 0.41280 0.04900
C 	C 	0.54700 0.06470 0.50860 0.16700
C 	C 	0.79050 0.64700 0.69320 0.05100
H 	H 	0.79080 0.53940 0.66290 0.03200
C 	C 	0.70540 0.63850 0.68740 -0.06800
H 	H 	0.64920 0.52900 0.65320 0.07200
C 	C 	0.70500 0.79380 0.73290 -0.04200
H 	H 	0.64880 0.78880 0.73030 0.04300
C 	C 	0.78870 0.95720 0.78250 0.03200
C 	C 	0.87010 0.95700 0.78400 0.00300
H 	H 	0.92620 0.06860 0.81670 0.05600
C 	C 	0.79140 0.12860 0.83400 -0.05600
H 	H 	0.76620 0.29210 0.81020 0.05500
H 	H 	0.74270 0.06520 0.83780 0.05400
C 	C 	0.94710 0.96430 0.95950 0.20100
O 	O 	0.39230 0.20140 0.93470 -0.21900
O 	O 	0.08470 0.74670 0.55660 -0.22400
N 	N 	0.10530 0.80400 0.87000 -0.19500
N 	N 	0.44620 0.02000 0.04180 -0.19900
H 	H 	0.49310 0.92430 0.08030 0.13200
N 	N 	0.12780 0.80360 0.75940 -0.19500
N 	N 	0.10310 0.15440 0.58860 -0.19800
H 	H 	0.07270 0.29800 0.57370 0.13700
C 	C 	0.09580 0.64430 0.90820 0.05400
H 	H 	0.03710 0.53840 0.87990 0.00900
C 	C 	0.16890 0.63050 0.98740 -0.09600
H 	H 	0.15980 0.51670 0.01180 0.07800
C 	C 	0.25650 0.78830 0.03030 -0.02500
H 	H 	0.30670 0.78170 0.08390 0.03700
C 	C 	0.26810 0.95430 0.99290 0.01300
C 	C 	0.19080 0.95600 0.91300 -0.00200
H 	H 	0.19840 0.06870 0.88750 0.04900
C 	C 	0.36380 0.12350 0.03580 -0.05800
H 	H 	0.34140 0.28250 0.00930 0.06800
H 	H 	0.39270 0.15360 0.08720 0.04600
C 	C 	0.45300 0.06470 0.99140 0.16200
C 	C 	0.20950 0.64700 0.80680 0.04800
H 	H 	0.20920 0.53940 0.83710 0.02800
C 	C 	0.29460 0.63850 0.81260 -0.06900
H 	H 	0.35080 0.52900 0.84680 0.07200
C 	C 	0.29500 0.79380 0.76710 -0.04400
H 	H 	0.35120 0.78880 0.76970 0.04300
C 	C 	0.21130 0.95720 0.71750 0.03100
C 	C 	0.12990 0.95700 0.71600 0.00000
H 	H 	0.07380 0.06860 0.68330 0.03600
C 	C 	0.20860 0.12860 0.66600 -0.06600
H 	H 	0.23380 0.29210 0.68980 0.05600
H 	H 	0.25730 0.06520 0.66220 0.05700
C 	C 	0.05290 0.96430 0.54050 0.12900
O 	O 	0.39230 0.79860 0.43470 -0.22000
O 	O 	0.08470 0.25330 0.05660 -0.22400
N 	N 	0.10530 0.19600 0.37000 -0.19200
N 	N 	0.44620 0.98000 0.54180 -0.20000
H 	H 	0.49310 0.07570 0.58030 0.13200
N 	N 	0.12780 0.19640 0.25940 -0.19400
N 	N 	0.10310 0.84560 0.08860 -0.19800
H 	H 	0.07270 0.70200 0.07370 0.13700
C 	C 	0.09580 0.35570 0.40820 0.04400
H 	H 	0.03710 0.46160 0.37990 0.01300
C 	C 	0.16890 0.36950 0.48740 -0.07600
H 	H 	0.15980 0.48330 0.51180 0.06900
C 	C 	0.25650 0.21170 0.53030 -0.04500
H 	H 	0.30670 0.21830 0.58390 0.04400
C 	C 	0.26810 0.04570 0.49290 0.02700
C 	C 	0.19080 0.04400 0.41300 -0.01000
H 	H 	0.19840 0.93130 0.38750 0.05200
C 	C 	0.36380 0.87650 0.53580 -0.06700
H 	H 	0.34140 0.71750 0.50930 0.07000
H 	H 	0.39270 0.84640 0.58720 0.04800
C 	C 	0.45300 0.93530 0.49140 0.16700
C 	C 	0.20950 0.35300 0.30680 0.04800
H 	H 	0.20920 0.46060 0.33710 0.02800
C 	C 	0.29460 0.36150 0.31260 -0.06900
H 	H 	0.35080 0.47100 0.34680 0.07300
C 	C 	0.29500 0.20620 0.26710 -0.04400
H 	H 	0.35120 0.21120 0.26970 0.04300
C 	C 	0.21130 0.04280 0.21750 0.03100
C 	C 	0.12990 0.04300 0.21600 -0.00100
H 	H 	0.07380 0.93140 0.18330 0.03600
C 	C 	0.20860 0.87140 0.16600 -0.06500
H 	H 	0.23380 0.70790 0.18980 0.05600
H 	H 	0.25730 0.93480 0.16220 0.05800
C 	C 	0.05290 0.03570 0.04050 0.13100
O 	O 	0.60770 0.79860 0.06530 -0.22000
O 	O 	0.91530 0.25330 0.44340 -0.22100
N 	N 	0.89470 0.19600 0.13000 -0.17300
N 	N 	0.55380 0.98000 0.95820 -0.20000
H 	H 	0.50690 0.07570 0.91970 0.13100
N 	N 	0.87220 0.19640 0.24060 -0.18100
N 	N 	0.89690 0.84560 0.41140 -0.21300
H 	H 	0.92730 0.70200 0.42630 0.16200
C 	C 	0.90420 0.35570 0.09180 0.03700
H 	H 	0.96290 0.46160 0.12010 0.04300
C 	C 	0.83110 0.36950 0.01260 -0.04500
H 	H 	0.84020 0.48330 0.98820 0.06400
C 	C 	0.74350 0.21170 0.96970 -0.06800
H 	H 	0.69330 0.21830 0.91610 0.05200
C 	C 	0.73190 0.04570 0.00710 0.04500
C 	C 	0.80920 0.04400 0.08700 -0.01500
H 	H 	0.80160 0.93130 0.11250 0.05900
C 	C 	0.63620 0.87650 0.96420 -0.07900
H 	H 	0.65860 0.71750 0.99070 0.07200
H 	H 	0.60730 0.84640 0.91280 0.05200
C 	C 	0.54700 0.93530 0.00860 0.17200
C 	C 	0.79050 0.35300 0.19320 0.05100
H 	H 	0.79080 0.46060 0.16290 0.03200
C 	C 	0.70540 0.36150 0.18740 -0.06800
H 	H 	0.64920 0.47100 0.15320 0.07300
C 	C 	0.70500 0.20620 0.23290 -0.04200
H 	H 	0.64880 0.21120 0.23030 0.04300
C 	C 	0.78870 0.04280 0.28250 0.03200
C 	C 	0.87010 0.04300 0.28400 0.00300
H 	H 	0.92620 0.93140 0.31670 0.05600
C 	C 	0.79140 0.87140 0.33400 -0.05600
H 	H 	0.76620 0.70790 0.31020 0.05600
H 	H 	0.74270 0.93480 0.33780 0.05500
C 	C 	0.94710 0.03570 0.45950 0.20300
Br	Br	-0.00000 0.30329 0.75000 -0.48900
Cu	Cu	-0.00000 0.80431 0.75000 0.88300
Br	Br	0.00000 0.69671 0.25000 -0.48900
Cu	Cu	0.00000 0.19569 0.25000 0.88300
