data_crystal

_cell_length_a 6.59500
_cell_length_b 9.16530
_cell_length_c 14.19580
_cell_angle_alpha 85.87300
_cell_angle_beta  82.16600
_cell_angle_gamma 74.73400

_symmetry_space_group_name_	'P 1'
_symmetry_space_group_name_H-M	'P 1'

loop_
_symmetry_equiv_pos_as_xyz
  x,y,z

loop_
_atom_site_label
_atom_site_type_symbol
_atom_site_fract_x
_atom_site_fract_y
_atom_site_fract_z
_atom_site_charge
C 	C 	0.22460 0.75500 0.19290 0.20400
C 	C 	0.56500 0.07490 0.17170 0.28300
C 	C 	0.65330 0.90540 0.18760 -0.05200
C 	C 	0.69240 0.83990 0.27720 -0.12900
C 	C 	0.67370 0.92590 0.36420 0.35900
C 	C 	0.75750 0.68320 0.28620 0.04800
H 	H 	0.78890 0.63730 0.34650 -0.00100
C 	C 	0.77790 0.59170 0.21040 -0.10900
C 	C 	0.84450 0.42350 0.23480 0.34900
C 	C 	0.74010 0.65660 0.12080 -0.05800
C 	C 	0.73500 0.56810 0.03610 0.32800
C 	C 	0.68160 0.81650 0.10970 -0.01700
H 	H 	0.66170 0.86290 0.04840 0.04100
Cd	Cd	0.41306 0.38552 0.16468 1.23500
Cd	Cd	0.05851 0.11128 0.27540 1.20800
Cd	Cd	0.24604 0.87754 0.48855 1.20200
N 	N 	0.21010 0.79100 0.10110 -0.32300
H 	H 	0.16960 0.88660 0.08200 0.13400
H 	H 	0.24100 0.71930 0.05950 0.15700
N 	N 	0.18170 0.85430 0.26310 -0.23000
N 	N 	0.21470 0.76850 0.34480 -0.17000
N 	N 	0.27300 0.62560 0.32570 -0.08600
N 	N 	0.28180 0.61200 0.23110 -0.21600
O 	O 	0.41200 0.14360 0.23140 -0.49100
O 	O 	0.64080 0.14180 0.10160 -0.36200
O 	O 	0.74430 0.04220 0.35930 -0.52000
O 	O 	0.59440 0.87330 0.44120 -0.48800
O 	O 	0.70500 0.34930 0.25190 -0.46300
O 	O 	0.03400 0.36460 0.24610 -0.49100
O 	O 	0.68690 0.44460 0.05090 -0.39900
O 	O 	0.77670 0.62670 0.95390 -0.40000
O 	O 	0.08390 0.10590 0.42990 -0.82000
H 	H 	0.15830 0.16420 0.43860 0.27900
C 	C 	0.77540 0.24500 0.80710 0.20300
C 	C 	0.43500 0.92510 0.82830 0.28200
C 	C 	0.34670 0.09460 0.81240 -0.05300
C 	C 	0.30760 0.16010 0.72280 -0.13000
C 	C 	0.32630 0.07410 0.63580 0.35900
C 	C 	0.24250 0.31680 0.71380 0.04800
H 	H 	0.21110 0.36270 0.65350 -0.00100
C 	C 	0.22210 0.40830 0.78960 -0.10900
C 	C 	0.15550 0.57650 0.76520 0.34900
C 	C 	0.25990 0.34340 0.87920 -0.05800
C 	C 	0.26500 0.43190 0.96390 0.32800
C 	C 	0.31840 0.18350 0.89030 -0.01700
H 	H 	0.33830 0.13710 0.95160 0.04100
Cd	Cd	0.58694 0.61448 0.83532 1.23500
Cd	Cd	0.94149 0.88872 0.72460 1.20800
Cd	Cd	0.75396 0.12246 0.51145 1.20200
N 	N 	0.78990 0.20900 0.89890 -0.32300
H 	H 	0.83040 0.11340 0.91800 0.13400
H 	H 	0.75900 0.28070 0.94050 0.15700
N 	N 	0.81830 0.14570 0.73690 -0.23000
N 	N 	0.78530 0.23150 0.65520 -0.17000
N 	N 	0.72700 0.37440 0.67430 -0.08600
N 	N 	0.71820 0.38800 0.76890 -0.21600
O 	O 	0.58800 0.85640 0.76860 -0.49100
O 	O 	0.35920 0.85820 0.89840 -0.36200
O 	O 	0.25570 0.95780 0.64070 -0.52000
O 	O 	0.40560 0.12670 0.55880 -0.48800
O 	O 	0.29500 0.65070 0.74810 -0.46300
O 	O 	0.96600 0.63540 0.75390 -0.49100
O 	O 	0.31310 0.55540 0.94910 -0.39900
O 	O 	0.22330 0.37330 0.04610 -0.40000
O 	O 	0.91610 0.89410 0.57010 -0.82000
H 	H 	0.84170 0.83580 0.56140 0.27900
