data_crystal

_cell_length_a 26.30600
_cell_length_b 49.55500
_cell_length_c 10.71010
_cell_angle_alpha 90.00000
_cell_angle_beta  90.00000
_cell_angle_gamma 90.00000

_symmetry_space_group_name_	'P 1'
_symmetry_space_group_name_H-M	'P 1'

loop_
_symmetry_equiv_pos_as_xyz
  x,y,z

loop_
_atom_site_label
_atom_site_type_symbol
_atom_site_fract_x
_atom_site_fract_y
_atom_site_fract_z
_atom_site_charge
Ag	Ag	0.28576 0.17241 0.01789 0.49300
Ag	Ag	0.39603 0.25721 0.60510 0.51000
Ag	Ag	0.51900 0.15621 0.81402 0.51800
P 	P 	0.34624 0.21591 0.81282 0.22900
N 	N 	0.34885 0.18606 0.87230 -0.20500
P 	P 	0.39384 0.16579 0.83328 0.23900
N 	N 	0.40042 0.22522 0.75130 -0.22100
P 	P 	0.45472 0.21117 0.78059 0.22800
N 	N 	0.44835 0.18083 0.83240 -0.21900
N 	N 	0.32380 0.23531 0.92360 -0.18400
H 	H 	0.30260 0.24840 0.90400 0.08700
C 	C 	0.33810 0.23154 0.05340 -0.14600
H 	H 	0.34460 0.24950 0.09090 0.05400
H 	H 	0.37020 0.22120 0.05640 0.05000
C 	C 	0.29920 0.21717 0.13150 0.08500
H 	H 	0.31040 0.20950 0.20790 -0.03300
C 	C 	0.25170 0.21448 0.10300 -0.35500
H 	H 	0.23900 0.22190 0.02730 0.10700
H 	H 	0.22940 0.20510 0.15760 0.09900
N 	N 	0.39290 0.14095 0.93200 -0.19100
H 	H 	0.39180 0.12430 0.90380 0.09800
C 	C 	0.39390 0.14569 0.06810 -0.14800
H 	H 	0.40540 0.16440 0.08430 0.04500
H 	H 	0.41890 0.13330 0.10690 0.04300
C 	C 	0.34270 0.14146 0.12840 0.08100
H 	H 	0.33770 0.15010 0.20660 -0.04100
C 	C 	0.30460 0.12752 0.08690 -0.37400
H 	H 	0.30720 0.11840 0.00920 0.11800
H 	H 	0.27410 0.12640 0.13410 0.10100
N 	N 	0.49251 0.22579 0.88110 -0.17900
H 	H 	0.51540 0.23720 0.85300 0.08900
C 	C 	0.49020 0.22079 0.01450 -0.16200
H 	H 	0.46220 0.20790 0.03130 0.05900
H 	H 	0.48180 0.23790 0.05740 0.05100
C 	C 	0.53890 0.20958 0.07040 0.09200
H 	H 	0.53940 0.20680 0.15810 -0.05000
C 	C 	0.58070 0.20339 0.00710 -0.44900
H 	H 	0.58180 0.20590 0.91920 0.14800
H 	H 	0.60950 0.19650 0.04980 0.11500
N 	N 	0.30400 0.22064 0.70260 -0.20400
H 	H 	0.27540 0.22900 0.71990 0.08700
C 	C 	0.31360 0.21104 0.57530 -0.10500
H 	H 	0.28370 0.20070 0.54660 0.04300
H 	H 	0.34300 0.19860 0.57700 0.04400
C 	C 	0.32430 0.23327 0.48210 0.02600
H 	H 	0.34120 0.22850 0.40680 -0.01100
C 	C 	0.31160 0.25963 0.49880 -0.29900
H 	H 	0.29470 0.26510 0.57300 0.09500
H 	H 	0.31950 0.27250 0.43620 0.09300
N 	N 	0.38510 0.15383 0.69370 -0.19700
H 	H 	0.41130 0.15340 0.64300 0.08600
C 	C 	0.33590 0.14371 0.64640 -0.10200
H 	H 	0.33810 0.14130 0.55480 0.02100
H 	H 	0.30910 0.15720 0.66380 0.04000
C 	C 	0.32190 0.11747 0.70580 0.03900
H 	H 	0.34570 0.10310 0.70160 -0.02300
C 	C 	0.27850 0.11316 0.76340 -0.34500
H 	H 	0.25400 0.12720 0.76910 0.10100
H 	H 	0.27170 0.09600 0.79940 0.10900
N 	N 	0.48580 0.21506 0.64890 -0.19800
H 	H 	0.47050 0.22330 0.58660 0.07000
C 	C 	0.53820 0.20527 0.63070 -0.11200
H 	H 	0.55900 0.21120 0.70260 0.03500
H 	H 	0.55230 0.21390 0.55490 0.04700
C 	C 	0.54340 0.17507 0.61730 0.04000
H 	H 	0.51650 0.16560 0.57740 -0.02300
C 	C 	0.58270 0.16091 0.65720 -0.33500
H 	H 	0.61030 0.16970 0.69750 0.10000
H 	H 	0.58350 0.14190 0.64560 0.09500
Ag	Ag	0.28576 0.67241 0.51789 0.50300
Ag	Ag	0.39603 0.75721 0.10510 0.50400
Ag	Ag	0.51900 0.65621 0.31402 0.51400
P 	P 	0.34624 0.71591 0.31282 0.22500
N 	N 	0.34885 0.68606 0.37230 -0.21100
P 	P 	0.39384 0.66579 0.33328 0.23500
N 	N 	0.40042 0.72522 0.25130 -0.22300
P 	P 	0.45472 0.71117 0.28059 0.22500
N 	N 	0.44835 0.68083 0.33240 -0.22200
N 	N 	0.32380 0.73531 0.42360 -0.19600
H 	H 	0.30260 0.74840 0.40400 0.08300
C 	C 	0.33810 0.73154 0.55340 -0.12500
H 	H 	0.34460 0.74950 0.59090 0.05300
H 	H 	0.37020 0.72120 0.55640 0.05000
C 	C 	0.29920 0.71717 0.63150 0.08100
H 	H 	0.31040 0.70950 0.70790 -0.02900
C 	C 	0.25170 0.71448 0.60300 -0.35200
H 	H 	0.23900 0.72190 0.52730 0.11300
H 	H 	0.22940 0.70510 0.65760 0.10100
N 	N 	0.39290 0.64095 0.43200 -0.20300
H 	H 	0.39180 0.62430 0.40380 0.09400
C 	C 	0.39390 0.64569 0.56810 -0.12900
H 	H 	0.40540 0.66440 0.58430 0.04600
H 	H 	0.41890 0.63330 0.60690 0.04300
C 	C 	0.34270 0.64146 0.62840 0.08100
H 	H 	0.33770 0.65010 0.70660 -0.03800
C 	C 	0.30460 0.62752 0.58690 -0.37300
H 	H 	0.30720 0.61840 0.50920 0.12600
H 	H 	0.27410 0.62640 0.63410 0.10500
N 	N 	0.49251 0.72579 0.38110 -0.19500
H 	H 	0.51540 0.73720 0.35300 0.08800
C 	C 	0.49020 0.72079 0.51450 -0.10800
H 	H 	0.46220 0.70790 0.53130 0.05100
H 	H 	0.48180 0.73790 0.55740 0.03900
C 	C 	0.53890 0.70958 0.57040 0.03100
H 	H 	0.53940 0.70680 0.65810 -0.02600
C 	C 	0.58070 0.70339 0.50710 -0.34100
H 	H 	0.58180 0.70590 0.41920 0.09800
H 	H 	0.60950 0.69650 0.54980 0.08500
N 	N 	0.30400 0.72064 0.20260 -0.20300
H 	H 	0.27540 0.72900 0.21990 0.08400
C 	C 	0.31360 0.71104 0.07530 -0.11700
H 	H 	0.28370 0.70070 0.04660 0.04000
H 	H 	0.34300 0.69860 0.07700 0.04400
C 	C 	0.32430 0.73327 0.98210 0.02700
H 	H 	0.34120 0.72850 0.90680 -0.00500
C 	C 	0.31160 0.75963 0.99880 -0.23900
H 	H 	0.29470 0.76510 0.07300 0.06200
H 	H 	0.31950 0.77250 0.93620 0.07800
N 	N 	0.38510 0.65383 0.19370 -0.19700
H 	H 	0.41130 0.65340 0.14300 0.08200
C 	C 	0.33590 0.64371 0.14640 -0.09800
H 	H 	0.33810 0.64130 0.05480 0.01300
H 	H 	0.30910 0.65720 0.16380 0.03700
C 	C 	0.32190 0.61747 0.20580 0.03200
H 	H 	0.34570 0.60310 0.20160 -0.02500
C 	C 	0.27850 0.61316 0.26340 -0.34200
H 	H 	0.25400 0.62720 0.26910 0.09600
H 	H 	0.27170 0.59600 0.29940 0.10500
N 	N 	0.48580 0.71506 0.14890 -0.19800
H 	H 	0.47050 0.72330 0.08660 0.06500
C 	C 	0.53820 0.70527 0.13070 -0.11100
H 	H 	0.55900 0.71120 0.20260 0.03400
H 	H 	0.55230 0.71390 0.05490 0.04200
C 	C 	0.54340 0.67507 0.11730 0.03600
H 	H 	0.51650 0.66560 0.07740 -0.02700
C 	C 	0.58270 0.66091 0.15720 -0.33400
H 	H 	0.61030 0.66970 0.19750 0.09600
H 	H 	0.58350 0.64190 0.14560 0.09000
Ag	Ag	0.78576 0.17241 0.51789 0.50300
Ag	Ag	0.89603 0.25721 0.10510 0.50400
Ag	Ag	0.01900 0.15621 0.31402 0.51400
P 	P 	0.84624 0.21591 0.31282 0.22500
N 	N 	0.84885 0.18606 0.37230 -0.21100
P 	P 	0.89384 0.16579 0.33328 0.23500
N 	N 	0.90042 0.22522 0.25130 -0.22300
P 	P 	0.95472 0.21117 0.28059 0.22500
N 	N 	0.94835 0.18083 0.33240 -0.22200
N 	N 	0.82380 0.23531 0.42360 -0.19600
H 	H 	0.80260 0.24840 0.40400 0.08300
C 	C 	0.83810 0.23154 0.55340 -0.12500
H 	H 	0.84460 0.24950 0.59090 0.05300
H 	H 	0.87020 0.22120 0.55640 0.05000
C 	C 	0.79920 0.21717 0.63150 0.08100
H 	H 	0.81040 0.20950 0.70790 -0.02900
C 	C 	0.75170 0.21448 0.60300 -0.35200
H 	H 	0.73900 0.22190 0.52730 0.11300
H 	H 	0.72940 0.20510 0.65760 0.10100
N 	N 	0.89290 0.14095 0.43200 -0.20300
H 	H 	0.89180 0.12430 0.40380 0.09400
C 	C 	0.89390 0.14569 0.56810 -0.12900
H 	H 	0.90540 0.16440 0.58430 0.04600
H 	H 	0.91890 0.13330 0.60690 0.04300
C 	C 	0.84270 0.14146 0.62840 0.08100
H 	H 	0.83770 0.15010 0.70660 -0.03800
C 	C 	0.80460 0.12752 0.58690 -0.37300
H 	H 	0.80720 0.11840 0.50920 0.12600
H 	H 	0.77410 0.12640 0.63410 0.10500
N 	N 	0.99251 0.22579 0.38110 -0.19500
H 	H 	0.01540 0.23720 0.35300 0.08800
C 	C 	0.99020 0.22079 0.51450 -0.10800
H 	H 	0.96220 0.20790 0.53130 0.05100
H 	H 	0.98180 0.23790 0.55740 0.03900
C 	C 	0.03890 0.20958 0.57040 0.03100
H 	H 	0.03940 0.20680 0.65810 -0.02600
C 	C 	0.08070 0.20339 0.50710 -0.34100
H 	H 	0.08180 0.20590 0.41920 0.09900
H 	H 	0.10950 0.19650 0.54980 0.08500
N 	N 	0.80400 0.22064 0.20260 -0.20300
H 	H 	0.77540 0.22900 0.21990 0.08400
C 	C 	0.81360 0.21104 0.07530 -0.11700
H 	H 	0.78370 0.20070 0.04660 0.04000
H 	H 	0.84300 0.19860 0.07700 0.04400
C 	C 	0.82430 0.23327 0.98210 0.02700
H 	H 	0.84120 0.22850 0.90680 -0.00500
C 	C 	0.81160 0.25963 0.99880 -0.23900
H 	H 	0.79470 0.26510 0.07300 0.06200
H 	H 	0.81950 0.27250 0.93620 0.07800
N 	N 	0.88510 0.15383 0.19370 -0.19700
H 	H 	0.91130 0.15340 0.14300 0.08200
C 	C 	0.83590 0.14371 0.14640 -0.09800
H 	H 	0.83810 0.14130 0.05480 0.01300
H 	H 	0.80910 0.15720 0.16380 0.03700
C 	C 	0.82190 0.11747 0.20580 0.03200
H 	H 	0.84570 0.10310 0.20160 -0.02500
C 	C 	0.77850 0.11316 0.26340 -0.34200
H 	H 	0.75400 0.12720 0.26910 0.09600
H 	H 	0.77170 0.09600 0.29940 0.10500
N 	N 	0.98580 0.21506 0.14890 -0.19800
H 	H 	0.97050 0.22330 0.08660 0.06500
C 	C 	0.03820 0.20527 0.13070 -0.11100
H 	H 	0.05900 0.21120 0.20260 0.03400
H 	H 	0.05230 0.21390 0.05490 0.04200
C 	C 	0.04340 0.17507 0.11730 0.03600
H 	H 	0.01650 0.16560 0.07740 -0.02700
C 	C 	0.08270 0.16091 0.15720 -0.33400
H 	H 	0.11030 0.16970 0.19750 0.09600
H 	H 	0.08350 0.14190 0.14560 0.09000
Ag	Ag	0.78576 0.67241 0.01789 0.49400
Ag	Ag	0.89603 0.75721 0.60510 0.51100
Ag	Ag	0.01900 0.65621 0.81402 0.51900
P 	P 	0.84624 0.71591 0.81282 0.23000
N 	N 	0.84885 0.68606 0.87230 -0.20400
P 	P 	0.89384 0.66579 0.83328 0.24000
N 	N 	0.90042 0.72522 0.75130 -0.22100
P 	P 	0.95472 0.71117 0.78059 0.22800
N 	N 	0.94835 0.68083 0.83240 -0.21900
N 	N 	0.82380 0.73531 0.92360 -0.18400
H 	H 	0.80260 0.74840 0.90400 0.08700
C 	C 	0.83810 0.73154 0.05340 -0.14600
H 	H 	0.84460 0.74950 0.09090 0.05400
H 	H 	0.87020 0.72120 0.05640 0.05000
C 	C 	0.79920 0.71717 0.13150 0.08500
H 	H 	0.81040 0.70950 0.20790 -0.03300
C 	C 	0.75170 0.71448 0.10300 -0.35500
H 	H 	0.73900 0.72190 0.02730 0.10700
H 	H 	0.72940 0.70510 0.15760 0.09900
N 	N 	0.89290 0.64095 0.93200 -0.19100
H 	H 	0.89180 0.62430 0.90380 0.09800
C 	C 	0.89390 0.64569 0.06810 -0.14800
H 	H 	0.90540 0.66440 0.08430 0.04500
H 	H 	0.91890 0.63330 0.10690 0.04300
C 	C 	0.84270 0.64146 0.12840 0.08100
H 	H 	0.83770 0.65010 0.20660 -0.04100
C 	C 	0.80460 0.62752 0.08690 -0.37400
H 	H 	0.80720 0.61840 0.00920 0.11800
H 	H 	0.77410 0.62640 0.13410 0.10100
N 	N 	0.99251 0.72579 0.88110 -0.17900
H 	H 	0.01540 0.73720 0.85300 0.08900
C 	C 	0.99020 0.72079 0.01450 -0.16100
H 	H 	0.96220 0.70790 0.03130 0.05900
H 	H 	0.98180 0.73790 0.05740 0.05100
C 	C 	0.03890 0.70958 0.07040 0.09200
H 	H 	0.03940 0.70680 0.15810 -0.05000
C 	C 	0.08070 0.70339 0.00710 -0.44900
H 	H 	0.08180 0.70590 0.91920 0.14700
H 	H 	0.10950 0.69650 0.04980 0.11500
N 	N 	0.80400 0.72064 0.70260 -0.20400
H 	H 	0.77540 0.72900 0.71990 0.08700
C 	C 	0.81360 0.71104 0.57530 -0.10500
H 	H 	0.78370 0.70070 0.54660 0.04300
H 	H 	0.84300 0.69860 0.57700 0.04400
C 	C 	0.82430 0.73327 0.48210 0.02600
H 	H 	0.84120 0.72850 0.40680 -0.01100
C 	C 	0.81160 0.75963 0.49880 -0.29900
H 	H 	0.79470 0.76510 0.57300 0.09500
H 	H 	0.81950 0.77250 0.43620 0.09300
N 	N 	0.88510 0.65383 0.69370 -0.19700
H 	H 	0.91130 0.65340 0.64300 0.08600
C 	C 	0.83590 0.64371 0.64640 -0.10200
H 	H 	0.83810 0.64130 0.55480 0.02100
H 	H 	0.80910 0.65720 0.66380 0.04000
C 	C 	0.82190 0.61747 0.70580 0.03900
H 	H 	0.84570 0.60310 0.70160 -0.02300
C 	C 	0.77850 0.61316 0.76340 -0.34500
H 	H 	0.75400 0.62720 0.76910 0.10100
H 	H 	0.77170 0.59600 0.79940 0.10900
N 	N 	0.98580 0.71506 0.64890 -0.19800
H 	H 	0.97050 0.72330 0.58660 0.07000
C 	C 	0.03820 0.70527 0.63070 -0.11200
H 	H 	0.05900 0.71120 0.70260 0.03500
H 	H 	0.05230 0.71390 0.55490 0.04700
C 	C 	0.04340 0.67507 0.61730 0.04000
H 	H 	0.01650 0.66560 0.57740 -0.02300
C 	C 	0.08270 0.66091 0.65720 -0.33500
H 	H 	0.11030 0.66970 0.69750 0.10000
H 	H 	0.08350 0.64190 0.64560 0.09500
Ag	Ag	0.71424 0.82759 0.01789 0.49400
Ag	Ag	0.60397 0.74279 0.60510 0.51100
Ag	Ag	0.48100 0.84379 0.81402 0.51900
P 	P 	0.65376 0.78409 0.81282 0.23000
N 	N 	0.65115 0.81394 0.87230 -0.20400
P 	P 	0.60616 0.83421 0.83328 0.24000
N 	N 	0.59958 0.77478 0.75130 -0.22100
P 	P 	0.54528 0.78883 0.78059 0.22800
N 	N 	0.55165 0.81917 0.83240 -0.21900
N 	N 	0.67620 0.76469 0.92360 -0.18400
H 	H 	0.69740 0.75160 0.90400 0.08700
C 	C 	0.66190 0.76846 0.05340 -0.14600
H 	H 	0.65540 0.75050 0.09090 0.05400
H 	H 	0.62980 0.77880 0.05640 0.05000
C 	C 	0.70080 0.78283 0.13150 0.08500
H 	H 	0.68960 0.79050 0.20790 -0.03300
C 	C 	0.74830 0.78552 0.10300 -0.35500
H 	H 	0.76100 0.77810 0.02730 0.10700
H 	H 	0.77060 0.79490 0.15760 0.09900
N 	N 	0.60710 0.85905 0.93200 -0.19100
H 	H 	0.60820 0.87570 0.90380 0.09800
C 	C 	0.60610 0.85431 0.06810 -0.14800
H 	H 	0.59460 0.83560 0.08430 0.04500
H 	H 	0.58110 0.86670 0.10690 0.04300
C 	C 	0.65730 0.85854 0.12840 0.08100
H 	H 	0.66230 0.84990 0.20660 -0.04100
C 	C 	0.69540 0.87248 0.08690 -0.37400
H 	H 	0.69280 0.88160 0.00920 0.11800
H 	H 	0.72590 0.87360 0.13410 0.10100
N 	N 	0.50749 0.77421 0.88110 -0.17900
H 	H 	0.48460 0.76280 0.85300 0.08900
C 	C 	0.50980 0.77921 0.01450 -0.16200
H 	H 	0.53780 0.79210 0.03130 0.05900
H 	H 	0.51820 0.76210 0.05740 0.05100
C 	C 	0.46110 0.79042 0.07040 0.09200
H 	H 	0.46060 0.79320 0.15810 -0.05000
C 	C 	0.41930 0.79661 0.00710 -0.44900
H 	H 	0.41820 0.79410 0.91920 0.14800
H 	H 	0.39050 0.80350 0.04980 0.11500
N 	N 	0.69600 0.77936 0.70260 -0.20400
H 	H 	0.72460 0.77100 0.71990 0.08700
C 	C 	0.68640 0.78896 0.57530 -0.10500
H 	H 	0.71630 0.79930 0.54660 0.04300
H 	H 	0.65700 0.80140 0.57700 0.04400
C 	C 	0.67570 0.76673 0.48210 0.02600
H 	H 	0.65880 0.77150 0.40680 -0.01100
C 	C 	0.68840 0.74037 0.49880 -0.29900
H 	H 	0.70530 0.73490 0.57300 0.09500
H 	H 	0.68050 0.72750 0.43620 0.09300
N 	N 	0.61490 0.84617 0.69370 -0.19700
H 	H 	0.58870 0.84660 0.64300 0.08600
C 	C 	0.66410 0.85629 0.64640 -0.10200
H 	H 	0.66190 0.85870 0.55480 0.02100
H 	H 	0.69090 0.84280 0.66380 0.04000
C 	C 	0.67810 0.88253 0.70580 0.03900
H 	H 	0.65430 0.89690 0.70160 -0.02300
C 	C 	0.72150 0.88684 0.76340 -0.34500
H 	H 	0.74600 0.87280 0.76910 0.10100
H 	H 	0.72830 0.90400 0.79940 0.10900
N 	N 	0.51420 0.78494 0.64890 -0.19800
H 	H 	0.52950 0.77670 0.58660 0.07000
C 	C 	0.46180 0.79473 0.63070 -0.11200
H 	H 	0.44100 0.78880 0.70260 0.03500
H 	H 	0.44770 0.78610 0.55490 0.04700
C 	C 	0.45660 0.82493 0.61730 0.04000
H 	H 	0.48350 0.83440 0.57740 -0.02300
C 	C 	0.41730 0.83909 0.65720 -0.33500
H 	H 	0.38970 0.83030 0.69750 0.10000
H 	H 	0.41650 0.85810 0.64560 0.09500
Ag	Ag	0.71424 0.32759 0.51789 0.50300
Ag	Ag	0.60397 0.24279 0.10510 0.50400
Ag	Ag	0.48100 0.34379 0.31402 0.51400
P 	P 	0.65376 0.28409 0.31282 0.22500
N 	N 	0.65115 0.31394 0.37230 -0.21100
P 	P 	0.60616 0.33421 0.33328 0.23500
N 	N 	0.59958 0.27478 0.25130 -0.22300
P 	P 	0.54528 0.28883 0.28059 0.22500
N 	N 	0.55165 0.31917 0.33240 -0.22200
N 	N 	0.67620 0.26469 0.42360 -0.19600
H 	H 	0.69740 0.25160 0.40400 0.08300
C 	C 	0.66190 0.26846 0.55340 -0.12500
H 	H 	0.65540 0.25050 0.59090 0.05300
H 	H 	0.62980 0.27880 0.55640 0.05000
C 	C 	0.70080 0.28283 0.63150 0.08100
H 	H 	0.68960 0.29050 0.70790 -0.02900
C 	C 	0.74830 0.28552 0.60300 -0.35200
H 	H 	0.76100 0.27810 0.52730 0.11300
H 	H 	0.77060 0.29490 0.65760 0.10100
N 	N 	0.60710 0.35905 0.43200 -0.20300
H 	H 	0.60820 0.37570 0.40380 0.09400
C 	C 	0.60610 0.35431 0.56810 -0.12900
H 	H 	0.59460 0.33560 0.58430 0.04600
H 	H 	0.58110 0.36670 0.60690 0.04300
C 	C 	0.65730 0.35854 0.62840 0.08100
H 	H 	0.66230 0.34990 0.70660 -0.03800
C 	C 	0.69540 0.37248 0.58690 -0.37300
H 	H 	0.69280 0.38160 0.50920 0.12600
H 	H 	0.72590 0.37360 0.63410 0.10500
N 	N 	0.50749 0.27421 0.38110 -0.19500
H 	H 	0.48460 0.26280 0.35300 0.08800
C 	C 	0.50980 0.27921 0.51450 -0.10800
H 	H 	0.53780 0.29210 0.53130 0.05100
H 	H 	0.51820 0.26210 0.55740 0.03900
C 	C 	0.46110 0.29042 0.57040 0.03100
H 	H 	0.46060 0.29320 0.65810 -0.02600
C 	C 	0.41930 0.29661 0.50710 -0.34100
H 	H 	0.41820 0.29410 0.41920 0.09800
H 	H 	0.39050 0.30350 0.54980 0.08500
N 	N 	0.69600 0.27936 0.20260 -0.20300
H 	H 	0.72460 0.27100 0.21990 0.08400
C 	C 	0.68640 0.28896 0.07530 -0.11700
H 	H 	0.71630 0.29930 0.04660 0.04000
H 	H 	0.65700 0.30140 0.07700 0.04400
C 	C 	0.67570 0.26673 0.98210 0.02700
H 	H 	0.65880 0.27150 0.90680 -0.00500
C 	C 	0.68840 0.24037 0.99880 -0.23900
H 	H 	0.70530 0.23490 0.07300 0.06200
H 	H 	0.68050 0.22750 0.93620 0.07800
N 	N 	0.61490 0.34617 0.19370 -0.19700
H 	H 	0.58870 0.34660 0.14300 0.08200
C 	C 	0.66410 0.35629 0.14640 -0.09800
H 	H 	0.66190 0.35870 0.05480 0.01300
H 	H 	0.69090 0.34280 0.16380 0.03700
C 	C 	0.67810 0.38253 0.20580 0.03200
H 	H 	0.65430 0.39690 0.20160 -0.02500
C 	C 	0.72150 0.38684 0.26340 -0.34200
H 	H 	0.74600 0.37280 0.26910 0.09600
H 	H 	0.72830 0.40400 0.29940 0.10500
N 	N 	0.51420 0.28494 0.14890 -0.19800
H 	H 	0.52950 0.27670 0.08660 0.06500
C 	C 	0.46180 0.29473 0.13070 -0.11100
H 	H 	0.44100 0.28880 0.20260 0.03400
H 	H 	0.44770 0.28610 0.05490 0.04200
C 	C 	0.45660 0.32493 0.11730 0.03600
H 	H 	0.48350 0.33440 0.07740 -0.02700
C 	C 	0.41730 0.33909 0.15720 -0.33400
H 	H 	0.38970 0.33030 0.19750 0.09600
H 	H 	0.41650 0.35810 0.14560 0.09000
Ag	Ag	0.21424 0.82759 0.51789 0.50300
Ag	Ag	0.10397 0.74279 0.10510 0.50400
Ag	Ag	0.98100 0.84379 0.31402 0.51400
P 	P 	0.15376 0.78409 0.31282 0.22500
N 	N 	0.15115 0.81394 0.37230 -0.21100
P 	P 	0.10616 0.83421 0.33328 0.23500
N 	N 	0.09958 0.77478 0.25130 -0.22300
P 	P 	0.04528 0.78883 0.28059 0.22500
N 	N 	0.05165 0.81917 0.33240 -0.22200
N 	N 	0.17620 0.76469 0.42360 -0.19600
H 	H 	0.19740 0.75160 0.40400 0.08300
C 	C 	0.16190 0.76846 0.55340 -0.12500
H 	H 	0.15540 0.75050 0.59090 0.05300
H 	H 	0.12980 0.77880 0.55640 0.05000
C 	C 	0.20080 0.78283 0.63150 0.08100
H 	H 	0.18960 0.79050 0.70790 -0.02900
C 	C 	0.24830 0.78552 0.60300 -0.35200
H 	H 	0.26100 0.77810 0.52730 0.11300
H 	H 	0.27060 0.79490 0.65760 0.10100
N 	N 	0.10710 0.85905 0.43200 -0.20300
H 	H 	0.10820 0.87570 0.40380 0.09400
C 	C 	0.10610 0.85431 0.56810 -0.12900
H 	H 	0.09460 0.83560 0.58430 0.04600
H 	H 	0.08110 0.86670 0.60690 0.04300
C 	C 	0.15730 0.85854 0.62840 0.08100
H 	H 	0.16230 0.84990 0.70660 -0.03800
C 	C 	0.19540 0.87248 0.58690 -0.37300
H 	H 	0.19280 0.88160 0.50920 0.12600
H 	H 	0.22590 0.87360 0.63410 0.10500
N 	N 	0.00749 0.77421 0.38110 -0.19500
H 	H 	0.98460 0.76280 0.35300 0.08800
C 	C 	0.00980 0.77921 0.51450 -0.10800
H 	H 	0.03780 0.79210 0.53130 0.05100
H 	H 	0.01820 0.76210 0.55740 0.03900
C 	C 	0.96110 0.79042 0.57040 0.03100
H 	H 	0.96060 0.79320 0.65810 -0.02600
C 	C 	0.91930 0.79661 0.50710 -0.34100
H 	H 	0.91820 0.79410 0.41920 0.09900
H 	H 	0.89050 0.80350 0.54980 0.08500
N 	N 	0.19600 0.77936 0.20260 -0.20300
H 	H 	0.22460 0.77100 0.21990 0.08400
C 	C 	0.18640 0.78896 0.07530 -0.11700
H 	H 	0.21630 0.79930 0.04660 0.04000
H 	H 	0.15700 0.80140 0.07700 0.04400
C 	C 	0.17570 0.76673 0.98210 0.02700
H 	H 	0.15880 0.77150 0.90680 -0.00500
C 	C 	0.18840 0.74037 0.99880 -0.23900
H 	H 	0.20530 0.73490 0.07300 0.06200
H 	H 	0.18050 0.72750 0.93620 0.07800
N 	N 	0.11490 0.84617 0.19370 -0.19700
H 	H 	0.08870 0.84660 0.14300 0.08200
C 	C 	0.16410 0.85629 0.14640 -0.09800
H 	H 	0.16190 0.85870 0.05480 0.01300
H 	H 	0.19090 0.84280 0.16380 0.03700
C 	C 	0.17810 0.88253 0.20580 0.03200
H 	H 	0.15430 0.89690 0.20160 -0.02500
C 	C 	0.22150 0.88684 0.26340 -0.34200
H 	H 	0.24600 0.87280 0.26910 0.09600
H 	H 	0.22830 0.90400 0.29940 0.10500
N 	N 	0.01420 0.78494 0.14890 -0.19800
H 	H 	0.02950 0.77670 0.08660 0.06500
C 	C 	0.96180 0.79473 0.13070 -0.11100
H 	H 	0.94100 0.78880 0.20260 0.03400
H 	H 	0.94770 0.78610 0.05490 0.04200
C 	C 	0.95660 0.82493 0.11730 0.03600
H 	H 	0.98350 0.83440 0.07740 -0.02700
C 	C 	0.91730 0.83909 0.15720 -0.33400
H 	H 	0.88970 0.83030 0.19750 0.09600
H 	H 	0.91650 0.85810 0.14560 0.09000
Ag	Ag	0.21424 0.32759 0.01789 0.49400
Ag	Ag	0.10397 0.24279 0.60510 0.51100
Ag	Ag	0.98100 0.34379 0.81402 0.51900
P 	P 	0.15376 0.28409 0.81282 0.23000
N 	N 	0.15115 0.31394 0.87230 -0.20400
P 	P 	0.10616 0.33421 0.83328 0.24000
N 	N 	0.09958 0.27478 0.75130 -0.22100
P 	P 	0.04528 0.28883 0.78059 0.22800
N 	N 	0.05165 0.31917 0.83240 -0.21900
N 	N 	0.17620 0.26469 0.92360 -0.18400
H 	H 	0.19740 0.25160 0.90400 0.08700
C 	C 	0.16190 0.26846 0.05340 -0.14600
H 	H 	0.15540 0.25050 0.09090 0.05400
H 	H 	0.12980 0.27880 0.05640 0.05000
C 	C 	0.20080 0.28283 0.13150 0.08500
H 	H 	0.18960 0.29050 0.20790 -0.03300
C 	C 	0.24830 0.28552 0.10300 -0.35500
H 	H 	0.26100 0.27810 0.02730 0.10700
H 	H 	0.27060 0.29490 0.15760 0.09900
N 	N 	0.10710 0.35905 0.93200 -0.19100
H 	H 	0.10820 0.37570 0.90380 0.09800
C 	C 	0.10610 0.35431 0.06810 -0.14800
H 	H 	0.09460 0.33560 0.08430 0.04500
H 	H 	0.08110 0.36670 0.10690 0.04300
C 	C 	0.15730 0.35854 0.12840 0.08100
H 	H 	0.16230 0.34990 0.20660 -0.04100
C 	C 	0.19540 0.37248 0.08690 -0.37400
H 	H 	0.19280 0.38160 0.00920 0.11800
H 	H 	0.22590 0.37360 0.13410 0.10100
N 	N 	0.00749 0.27421 0.88110 -0.17900
H 	H 	0.98460 0.26280 0.85300 0.08900
C 	C 	0.00980 0.27921 0.01450 -0.16100
H 	H 	0.03780 0.29210 0.03130 0.05900
H 	H 	0.01820 0.26210 0.05740 0.05100
C 	C 	0.96110 0.29042 0.07040 0.09200
H 	H 	0.96060 0.29320 0.15810 -0.05000
C 	C 	0.91930 0.29661 0.00710 -0.44900
H 	H 	0.91820 0.29410 0.91920 0.14700
H 	H 	0.89050 0.30350 0.04980 0.11500
N 	N 	0.19600 0.27936 0.70260 -0.20400
H 	H 	0.22460 0.27100 0.71990 0.08700
C 	C 	0.18640 0.28896 0.57530 -0.10500
H 	H 	0.21630 0.29930 0.54660 0.04300
H 	H 	0.15700 0.30140 0.57700 0.04400
C 	C 	0.17570 0.26673 0.48210 0.02600
H 	H 	0.15880 0.27150 0.40680 -0.01100
C 	C 	0.18840 0.24037 0.49880 -0.29900
H 	H 	0.20530 0.23490 0.57300 0.09500
H 	H 	0.18050 0.22750 0.43620 0.09300
N 	N 	0.11490 0.34617 0.69370 -0.19700
H 	H 	0.08870 0.34660 0.64300 0.08600
C 	C 	0.16410 0.35629 0.64640 -0.10200
H 	H 	0.16190 0.35870 0.55480 0.02100
H 	H 	0.19090 0.34280 0.66380 0.04000
C 	C 	0.17810 0.38253 0.70580 0.03900
H 	H 	0.15430 0.39690 0.70160 -0.02300
C 	C 	0.22150 0.38684 0.76340 -0.34500
H 	H 	0.24600 0.37280 0.76910 0.10100
H 	H 	0.22830 0.40400 0.79940 0.10900
N 	N 	0.01420 0.28494 0.64890 -0.19800
H 	H 	0.02950 0.27670 0.58660 0.07000
C 	C 	0.96180 0.29473 0.63070 -0.11200
H 	H 	0.94100 0.28880 0.70260 0.03500
H 	H 	0.94770 0.28610 0.55490 0.04700
C 	C 	0.95660 0.32493 0.61730 0.04000
H 	H 	0.98350 0.33440 0.57740 -0.02300
C 	C 	0.91730 0.33909 0.65720 -0.33500
H 	H 	0.88970 0.33030 0.69750 0.10000
H 	H 	0.91650 0.35810 0.64560 0.09500
Ag	Ag	0.53576 0.07759 0.26789 0.50000
Ag	Ag	0.64603 0.99279 0.85510 0.51600
Ag	Ag	0.76900 0.09379 0.06402 0.50600
P 	P 	0.59624 0.03409 0.06282 0.21100
N 	N 	0.59885 0.06394 0.12230 -0.21100
P 	P 	0.64384 0.08421 0.08328 0.22100
N 	N 	0.65042 0.02478 0.00130 -0.22900
P 	P 	0.70472 0.03883 0.03059 0.21100
N 	N 	0.69835 0.06917 0.08240 -0.22300
N 	N 	0.57380 0.01469 0.17360 -0.19500
H 	H 	0.55260 0.00160 0.15400 0.07800
C 	C 	0.58810 0.01846 0.30340 -0.12600
H 	H 	0.59460 0.00050 0.34090 0.05200
H 	H 	0.62020 0.02880 0.30640 0.05000
C 	C 	0.54920 0.03283 0.38150 0.08000
H 	H 	0.56040 0.04050 0.45790 -0.03100
C 	C 	0.50170 0.03552 0.35300 -0.35100
H 	H 	0.48900 0.02810 0.27730 0.11100
H 	H 	0.47940 0.04490 0.40760 0.09900
N 	N 	0.64290 0.10905 0.18200 -0.20200
H 	H 	0.64180 0.12570 0.15380 0.09000
C 	C 	0.64390 0.10431 0.31810 -0.13000
H 	H 	0.65540 0.08560 0.33430 0.04500
H 	H 	0.66890 0.11670 0.35690 0.04200
C 	C 	0.59270 0.10854 0.37840 0.08100
H 	H 	0.58770 0.09990 0.45660 -0.04100
C 	C 	0.55460 0.12248 0.33690 -0.37300
H 	H 	0.55720 0.13160 0.25920 0.12500
H 	H 	0.52410 0.12360 0.38410 0.10400
N 	N 	0.74251 0.02421 0.13110 -0.19400
H 	H 	0.76540 0.01280 0.10300 0.08100
C 	C 	0.74020 0.02921 0.26450 -0.10900
H 	H 	0.71220 0.04210 0.28130 0.05100
H 	H 	0.73180 0.01210 0.30740 0.03900
C 	C 	0.78890 0.04042 0.32040 0.02800
H 	H 	0.78940 0.04320 0.40810 -0.02800
C 	C 	0.83070 0.04661 0.25710 -0.33700
H 	H 	0.83180 0.04410 0.16920 0.09200
H 	H 	0.85950 0.05350 0.29980 0.08200
N 	N 	0.55400 0.02936 0.95260 -0.19500
H 	H 	0.52540 0.02100 0.96990 0.08900
C 	C 	0.56360 0.03896 0.82530 -0.10700
H 	H 	0.53370 0.04930 0.79660 0.04400
H 	H 	0.59300 0.05140 0.82700 0.04900
C 	C 	0.57430 0.01673 0.73210 0.03000
H 	H 	0.59120 0.02150 0.65680 -0.01100
C 	C 	0.56160 0.99037 0.74880 -0.30200
H 	H 	0.54470 0.98490 0.82300 0.09800
H 	H 	0.56950 0.97750 0.68620 0.09400
N 	N 	0.63510 0.09617 0.94370 -0.18200
H 	H 	0.66130 0.09660 0.89300 0.08700
C 	C 	0.58590 0.10629 0.89640 -0.14100
H 	H 	0.58810 0.10870 0.80480 0.03200
H 	H 	0.55910 0.09280 0.91380 0.05600
C 	C 	0.57190 0.13253 0.95580 0.12000
H 	H 	0.59570 0.14690 0.95160 -0.04300
C 	C 	0.52850 0.13684 0.01340 -0.44300
H 	H 	0.50400 0.12280 0.01910 0.12100
H 	H 	0.52170 0.15400 0.04940 0.13400
N 	N 	0.73580 0.03494 0.89890 -0.18700
H 	H 	0.72050 0.02670 0.83660 0.07000
C 	C 	0.78820 0.04473 0.88070 -0.11700
H 	H 	0.80900 0.03880 0.95260 0.04400
H 	H 	0.80230 0.03610 0.80490 0.04900
C 	C 	0.79340 0.07493 0.86730 0.05200
H 	H 	0.76650 0.08440 0.82740 -0.02400
C 	C 	0.83270 0.08909 0.90720 -0.34100
H 	H 	0.86030 0.08030 0.94750 0.10700
H 	H 	0.83350 0.10810 0.89560 0.10300
Ag	Ag	0.53576 0.57759 0.76789 0.50300
Ag	Ag	0.64603 0.49279 0.35510 0.50900
Ag	Ag	0.76900 0.59379 0.56402 0.51500
P 	P 	0.59624 0.53409 0.56282 0.22600
N 	N 	0.59885 0.56394 0.62230 -0.21100
P 	P 	0.64384 0.58421 0.58328 0.23600
N 	N 	0.65042 0.52478 0.50130 -0.22300
P 	P 	0.70472 0.53883 0.53059 0.22600
N 	N 	0.69835 0.56917 0.58240 -0.22200
N 	N 	0.57380 0.51469 0.67360 -0.19600
H 	H 	0.55260 0.50160 0.65400 0.08300
C 	C 	0.58810 0.51846 0.80340 -0.12600
H 	H 	0.59460 0.50050 0.84090 0.05500
H 	H 	0.62020 0.52880 0.80640 0.05100
C 	C 	0.54920 0.53283 0.88150 0.08300
H 	H 	0.56040 0.54050 0.95790 -0.02600
C 	C 	0.50170 0.53552 0.85300 -0.35200
H 	H 	0.48900 0.52810 0.77730 0.11400
H 	H 	0.47940 0.54490 0.90760 0.10400
N 	N 	0.64290 0.60905 0.68200 -0.20200
H 	H 	0.64180 0.62570 0.65380 0.09500
C 	C 	0.64390 0.60431 0.81810 -0.13200
H 	H 	0.65540 0.58560 0.83430 0.04800
H 	H 	0.66890 0.61670 0.85690 0.04700
C 	C 	0.59270 0.60854 0.87840 0.08600
H 	H 	0.58770 0.59990 0.95660 -0.03600
C 	C 	0.55460 0.62248 0.83690 -0.37500
H 	H 	0.55720 0.63160 0.75920 0.12900
H 	H 	0.52410 0.62360 0.88410 0.11000
N 	N 	0.74251 0.52421 0.63110 -0.19500
H 	H 	0.76540 0.51280 0.60300 0.08800
C 	C 	0.74020 0.52921 0.76450 -0.10900
H 	H 	0.71220 0.54210 0.78130 0.05200
H 	H 	0.73180 0.51210 0.80740 0.04100
C 	C 	0.78890 0.54042 0.82040 0.03200
H 	H 	0.78940 0.54320 0.90810 -0.02400
C 	C 	0.83070 0.54661 0.75710 -0.34200
H 	H 	0.83180 0.54410 0.66920 0.09900
H 	H 	0.85950 0.55350 0.79980 0.08700
N 	N 	0.55400 0.52936 0.45260 -0.20400
H 	H 	0.52540 0.52100 0.46990 0.08500
C 	C 	0.56360 0.53896 0.32530 -0.10400
H 	H 	0.53370 0.54930 0.29660 0.04000
H 	H 	0.59300 0.55140 0.32700 0.04300
C 	C 	0.57430 0.51673 0.23210 0.02400
H 	H 	0.59120 0.52150 0.15680 -0.01600
C 	C 	0.56160 0.49037 0.24880 -0.29900
H 	H 	0.54470 0.48490 0.32300 0.09400
H 	H 	0.56950 0.47750 0.18620 0.08800
N 	N 	0.63510 0.59617 0.44370 -0.19700
H 	H 	0.66130 0.59660 0.39300 0.08500
C 	C 	0.58590 0.60629 0.39640 -0.10000
H 	H 	0.58810 0.60870 0.30480 0.01800
H 	H 	0.55910 0.59280 0.41380 0.03800
C 	C 	0.57190 0.63253 0.45580 0.03600
H 	H 	0.59570 0.64690 0.45160 -0.02300
C 	C 	0.52850 0.63684 0.51340 -0.34400
H 	H 	0.50400 0.62280 0.51910 0.09700
H 	H 	0.52170 0.65400 0.54940 0.10600
N 	N 	0.73580 0.53494 0.39890 -0.19800
H 	H 	0.72050 0.52670 0.33660 0.06800
C 	C 	0.78820 0.54473 0.38070 -0.11200
H 	H 	0.80900 0.53880 0.45260 0.03500
H 	H 	0.80230 0.53610 0.30490 0.04500
C 	C 	0.79340 0.57493 0.36730 0.03900
H 	H 	0.76650 0.58440 0.32740 -0.02400
C 	C 	0.83270 0.58909 0.40720 -0.33500
H 	H 	0.86030 0.58030 0.44750 0.09800
H 	H 	0.83350 0.60810 0.39560 0.09400
Ag	Ag	0.03576 0.07759 0.76789 0.50300
Ag	Ag	0.14603 0.99279 0.35510 0.50900
Ag	Ag	0.26900 0.09379 0.56402 0.51500
P 	P 	0.09624 0.03409 0.56282 0.22600
N 	N 	0.09885 0.06394 0.62230 -0.21100
P 	P 	0.14384 0.08421 0.58328 0.23600
N 	N 	0.15042 0.02478 0.50130 -0.22300
P 	P 	0.20472 0.03883 0.53059 0.22600
N 	N 	0.19835 0.06917 0.58240 -0.22200
N 	N 	0.07380 0.01469 0.67360 -0.19600
H 	H 	0.05260 0.00160 0.65400 0.08300
C 	C 	0.08810 0.01846 0.80340 -0.12600
H 	H 	0.09460 0.00050 0.84090 0.05500
H 	H 	0.12020 0.02880 0.80640 0.05100
C 	C 	0.04920 0.03283 0.88150 0.08300
H 	H 	0.06040 0.04050 0.95790 -0.02600
C 	C 	0.00170 0.03552 0.85300 -0.35200
H 	H 	0.98900 0.02810 0.77730 0.11400
H 	H 	0.97940 0.04490 0.90760 0.10400
N 	N 	0.14290 0.10905 0.68200 -0.20200
H 	H 	0.14180 0.12570 0.65380 0.09500
C 	C 	0.14390 0.10431 0.81810 -0.13200
H 	H 	0.15540 0.08560 0.83430 0.04800
H 	H 	0.16890 0.11670 0.85690 0.04700
C 	C 	0.09270 0.10854 0.87840 0.08600
H 	H 	0.08770 0.09990 0.95660 -0.03600
C 	C 	0.05460 0.12248 0.83690 -0.37500
H 	H 	0.05720 0.13160 0.75920 0.12900
H 	H 	0.02410 0.12360 0.88410 0.11000
N 	N 	0.24251 0.02421 0.63110 -0.19500
H 	H 	0.26540 0.01280 0.60300 0.08800
C 	C 	0.24020 0.02921 0.76450 -0.10900
H 	H 	0.21220 0.04210 0.78130 0.05200
H 	H 	0.23180 0.01210 0.80740 0.04100
C 	C 	0.28890 0.04042 0.82040 0.03200
H 	H 	0.28940 0.04320 0.90810 -0.02400
C 	C 	0.33070 0.04661 0.75710 -0.34200
H 	H 	0.33180 0.04410 0.66920 0.09900
H 	H 	0.35950 0.05350 0.79980 0.08700
N 	N 	0.05400 0.02936 0.45260 -0.20400
H 	H 	0.02540 0.02100 0.46990 0.08500
C 	C 	0.06360 0.03896 0.32530 -0.10400
H 	H 	0.03370 0.04930 0.29660 0.04000
H 	H 	0.09300 0.05140 0.32700 0.04300
C 	C 	0.07430 0.01673 0.23210 0.02400
H 	H 	0.09120 0.02150 0.15680 -0.01600
C 	C 	0.06160 0.99037 0.24880 -0.29900
H 	H 	0.04470 0.98490 0.32300 0.09400
H 	H 	0.06950 0.97750 0.18620 0.08800
N 	N 	0.13510 0.09617 0.44370 -0.19700
H 	H 	0.16130 0.09660 0.39300 0.08500
C 	C 	0.08590 0.10629 0.39640 -0.10000
H 	H 	0.08810 0.10870 0.30480 0.01800
H 	H 	0.05910 0.09280 0.41380 0.03800
C 	C 	0.07190 0.13253 0.45580 0.03600
H 	H 	0.09570 0.14690 0.45160 -0.02300
C 	C 	0.02850 0.13684 0.51340 -0.34400
H 	H 	0.00400 0.12280 0.51910 0.09700
H 	H 	0.02170 0.15400 0.54940 0.10700
N 	N 	0.23580 0.03494 0.39890 -0.19800
H 	H 	0.22050 0.02670 0.33660 0.06800
C 	C 	0.28820 0.04473 0.38070 -0.11200
H 	H 	0.30900 0.03880 0.45260 0.03500
H 	H 	0.30230 0.03610 0.30490 0.04500
C 	C 	0.29340 0.07493 0.36730 0.03900
H 	H 	0.26650 0.08440 0.32740 -0.02400
C 	C 	0.33270 0.08909 0.40720 -0.33500
H 	H 	0.36030 0.08030 0.44750 0.09800
H 	H 	0.33350 0.10810 0.39560 0.09400
Ag	Ag	0.03576 0.57759 0.26789 0.50000
Ag	Ag	0.14603 0.49279 0.85510 0.51600
Ag	Ag	0.26900 0.59379 0.06402 0.50600
P 	P 	0.09624 0.53409 0.06282 0.21100
N 	N 	0.09885 0.56394 0.12230 -0.21100
P 	P 	0.14384 0.58421 0.08328 0.22100
N 	N 	0.15042 0.52478 0.00130 -0.22900
P 	P 	0.20472 0.53883 0.03059 0.21100
N 	N 	0.19835 0.56917 0.08240 -0.22300
N 	N 	0.07380 0.51469 0.17360 -0.19500
H 	H 	0.05260 0.50160 0.15400 0.07800
C 	C 	0.08810 0.51846 0.30340 -0.12600
H 	H 	0.09460 0.50050 0.34090 0.05200
H 	H 	0.12020 0.52880 0.30640 0.05000
C 	C 	0.04920 0.53283 0.38150 0.08000
H 	H 	0.06040 0.54050 0.45790 -0.03100
C 	C 	0.00170 0.53552 0.35300 -0.35100
H 	H 	0.98900 0.52810 0.27730 0.11100
H 	H 	0.97940 0.54490 0.40760 0.09900
N 	N 	0.14290 0.60905 0.18200 -0.20200
H 	H 	0.14180 0.62570 0.15380 0.09000
C 	C 	0.14390 0.60431 0.31810 -0.13000
H 	H 	0.15540 0.58560 0.33430 0.04500
H 	H 	0.16890 0.61670 0.35690 0.04200
C 	C 	0.09270 0.60854 0.37840 0.08100
H 	H 	0.08770 0.59990 0.45660 -0.04100
C 	C 	0.05460 0.62248 0.33690 -0.37300
H 	H 	0.05720 0.63160 0.25920 0.12500
H 	H 	0.02410 0.62360 0.38410 0.10400
N 	N 	0.24251 0.52421 0.13110 -0.19400
H 	H 	0.26540 0.51280 0.10300 0.08100
C 	C 	0.24020 0.52921 0.26450 -0.10900
H 	H 	0.21220 0.54210 0.28130 0.05100
H 	H 	0.23180 0.51210 0.30740 0.03800
C 	C 	0.28890 0.54042 0.32040 0.02800
H 	H 	0.28940 0.54320 0.40810 -0.02800
C 	C 	0.33070 0.54661 0.25710 -0.33700
H 	H 	0.33180 0.54410 0.16920 0.09200
H 	H 	0.35950 0.55350 0.29980 0.08200
N 	N 	0.05400 0.52936 0.95260 -0.19500
H 	H 	0.02540 0.52100 0.96990 0.08900
C 	C 	0.06360 0.53896 0.82530 -0.10700
H 	H 	0.03370 0.54930 0.79660 0.04400
H 	H 	0.09300 0.55140 0.82700 0.04900
C 	C 	0.07430 0.51673 0.73210 0.03000
H 	H 	0.09120 0.52150 0.65680 -0.01100
C 	C 	0.06160 0.49037 0.74880 -0.30200
H 	H 	0.04470 0.48490 0.82300 0.09800
H 	H 	0.06950 0.47750 0.68620 0.09400
N 	N 	0.13510 0.59617 0.94370 -0.18200
H 	H 	0.16130 0.59660 0.89300 0.08700
C 	C 	0.08590 0.60629 0.89640 -0.14100
H 	H 	0.08810 0.60870 0.80480 0.03200
H 	H 	0.05910 0.59280 0.91380 0.05600
C 	C 	0.07190 0.63253 0.95580 0.12000
H 	H 	0.09570 0.64690 0.95160 -0.04300
C 	C 	0.02850 0.63684 0.01340 -0.44300
H 	H 	0.00400 0.62280 0.01910 0.12100
H 	H 	0.02170 0.65400 0.04940 0.13400
N 	N 	0.23580 0.53494 0.89890 -0.18700
H 	H 	0.22050 0.52670 0.83660 0.07000
C 	C 	0.28820 0.54473 0.88070 -0.11700
H 	H 	0.30900 0.53880 0.95260 0.04400
H 	H 	0.30230 0.53610 0.80490 0.04900
C 	C 	0.29340 0.57493 0.86730 0.05200
H 	H 	0.26650 0.58440 0.82740 -0.02400
C 	C 	0.33270 0.58909 0.90720 -0.34100
H 	H 	0.36030 0.58030 0.94750 0.10700
H 	H 	0.33350 0.60810 0.89560 0.10300
Ag	Ag	0.96424 0.42241 0.26789 0.50000
Ag	Ag	0.85397 0.50721 0.85510 0.51600
Ag	Ag	0.73100 0.40621 0.06402 0.50600
P 	P 	0.90376 0.46591 0.06282 0.21100
N 	N 	0.90115 0.43606 0.12230 -0.21100
P 	P 	0.85616 0.41579 0.08328 0.22100
N 	N 	0.84958 0.47522 0.00130 -0.22900
P 	P 	0.79528 0.46117 0.03059 0.21100
N 	N 	0.80165 0.43083 0.08240 -0.22300
N 	N 	0.92620 0.48531 0.17360 -0.19500
H 	H 	0.94740 0.49840 0.15400 0.07800
C 	C 	0.91190 0.48154 0.30340 -0.12600
H 	H 	0.90540 0.49950 0.34090 0.05200
H 	H 	0.87980 0.47120 0.30640 0.05000
C 	C 	0.95080 0.46717 0.38150 0.08000
H 	H 	0.93960 0.45950 0.45790 -0.03100
C 	C 	0.99830 0.46448 0.35300 -0.35100
H 	H 	0.01100 0.47190 0.27730 0.11100
H 	H 	0.02060 0.45510 0.40760 0.09900
N 	N 	0.85710 0.39095 0.18200 -0.20200
H 	H 	0.85820 0.37430 0.15380 0.09000
C 	C 	0.85610 0.39569 0.31810 -0.13000
H 	H 	0.84460 0.41440 0.33430 0.04500
H 	H 	0.83110 0.38330 0.35690 0.04200
C 	C 	0.90730 0.39146 0.37840 0.08100
H 	H 	0.91230 0.40010 0.45660 -0.04100
C 	C 	0.94540 0.37752 0.33690 -0.37300
H 	H 	0.94280 0.36840 0.25920 0.12500
H 	H 	0.97590 0.37640 0.38410 0.10400
N 	N 	0.75749 0.47579 0.13110 -0.19400
H 	H 	0.73460 0.48720 0.10300 0.08100
C 	C 	0.75980 0.47079 0.26450 -0.10900
H 	H 	0.78780 0.45790 0.28130 0.05100
H 	H 	0.76820 0.48790 0.30740 0.03800
C 	C 	0.71110 0.45958 0.32040 0.02800
H 	H 	0.71060 0.45680 0.40810 -0.02800
C 	C 	0.66930 0.45339 0.25710 -0.33700
H 	H 	0.66820 0.45590 0.16920 0.09200
H 	H 	0.64050 0.44650 0.29980 0.08200
N 	N 	0.94600 0.47064 0.95260 -0.19500
H 	H 	0.97460 0.47900 0.96990 0.08900
C 	C 	0.93640 0.46104 0.82530 -0.10700
H 	H 	0.96630 0.45070 0.79660 0.04400
H 	H 	0.90700 0.44860 0.82700 0.04900
C 	C 	0.92570 0.48327 0.73210 0.03000
H 	H 	0.90880 0.47850 0.65680 -0.01100
C 	C 	0.93840 0.50963 0.74880 -0.30200
H 	H 	0.95530 0.51510 0.82300 0.09800
H 	H 	0.93050 0.52250 0.68620 0.09400
N 	N 	0.86490 0.40383 0.94370 -0.18200
H 	H 	0.83870 0.40340 0.89300 0.08700
C 	C 	0.91410 0.39371 0.89640 -0.14100
H 	H 	0.91190 0.39130 0.80480 0.03200
H 	H 	0.94090 0.40720 0.91380 0.05600
C 	C 	0.92810 0.36747 0.95580 0.12000
H 	H 	0.90430 0.35310 0.95160 -0.04300
C 	C 	0.97150 0.36316 0.01340 -0.44300
H 	H 	0.99600 0.37720 0.01910 0.12100
H 	H 	0.97830 0.34600 0.04940 0.13400
N 	N 	0.76420 0.46506 0.89890 -0.18700
H 	H 	0.77950 0.47330 0.83660 0.07000
C 	C 	0.71180 0.45527 0.88070 -0.11700
H 	H 	0.69100 0.46120 0.95260 0.04400
H 	H 	0.69770 0.46390 0.80490 0.04900
C 	C 	0.70660 0.42507 0.86730 0.05200
H 	H 	0.73350 0.41560 0.82740 -0.02400
C 	C 	0.66730 0.41091 0.90720 -0.34100
H 	H 	0.63970 0.41970 0.94750 0.10700
H 	H 	0.66650 0.39190 0.89560 0.10300
Ag	Ag	0.96424 0.92241 0.76789 0.50300
Ag	Ag	0.85397 0.00721 0.35510 0.50900
Ag	Ag	0.73100 0.90621 0.56402 0.51500
P 	P 	0.90376 0.96591 0.56282 0.22600
N 	N 	0.90115 0.93606 0.62230 -0.21100
P 	P 	0.85616 0.91579 0.58328 0.23600
N 	N 	0.84958 0.97522 0.50130 -0.22300
P 	P 	0.79528 0.96117 0.53059 0.22600
N 	N 	0.80165 0.93083 0.58240 -0.22200
N 	N 	0.92620 0.98531 0.67360 -0.19600
H 	H 	0.94740 0.99840 0.65400 0.08300
C 	C 	0.91190 0.98154 0.80340 -0.12600
H 	H 	0.90540 0.99950 0.84090 0.05500
H 	H 	0.87980 0.97120 0.80640 0.05100
C 	C 	0.95080 0.96717 0.88150 0.08300
H 	H 	0.93960 0.95950 0.95790 -0.02600
C 	C 	0.99830 0.96448 0.85300 -0.35200
H 	H 	0.01100 0.97190 0.77730 0.11400
H 	H 	0.02060 0.95510 0.90760 0.10400
N 	N 	0.85710 0.89095 0.68200 -0.20200
H 	H 	0.85820 0.87430 0.65380 0.09500
C 	C 	0.85610 0.89569 0.81810 -0.13200
H 	H 	0.84460 0.91440 0.83430 0.04800
H 	H 	0.83110 0.88330 0.85690 0.04700
C 	C 	0.90730 0.89146 0.87840 0.08600
H 	H 	0.91230 0.90010 0.95660 -0.03600
C 	C 	0.94540 0.87752 0.83690 -0.37500
H 	H 	0.94280 0.86840 0.75920 0.12900
H 	H 	0.97590 0.87640 0.88410 0.11000
N 	N 	0.75749 0.97579 0.63110 -0.19500
H 	H 	0.73460 0.98720 0.60300 0.08800
C 	C 	0.75980 0.97079 0.76450 -0.10900
H 	H 	0.78780 0.95790 0.78130 0.05200
H 	H 	0.76820 0.98790 0.80740 0.04100
C 	C 	0.71110 0.95958 0.82040 0.03200
H 	H 	0.71060 0.95680 0.90810 -0.02400
C 	C 	0.66930 0.95339 0.75710 -0.34200
H 	H 	0.66820 0.95590 0.66920 0.09900
H 	H 	0.64050 0.94650 0.79980 0.08700
N 	N 	0.94600 0.97064 0.45260 -0.20400
H 	H 	0.97460 0.97900 0.46990 0.08500
C 	C 	0.93640 0.96104 0.32530 -0.10400
H 	H 	0.96630 0.95070 0.29660 0.04000
H 	H 	0.90700 0.94860 0.32700 0.04300
C 	C 	0.92570 0.98327 0.23210 0.02400
H 	H 	0.90880 0.97850 0.15680 -0.01600
C 	C 	0.93840 0.00963 0.24880 -0.29900
H 	H 	0.95530 0.01510 0.32300 0.09400
H 	H 	0.93050 0.02250 0.18620 0.08800
N 	N 	0.86490 0.90383 0.44370 -0.19700
H 	H 	0.83870 0.90340 0.39300 0.08500
C 	C 	0.91410 0.89371 0.39640 -0.10000
H 	H 	0.91190 0.89130 0.30480 0.01800
H 	H 	0.94090 0.90720 0.41380 0.03800
C 	C 	0.92810 0.86747 0.45580 0.03600
H 	H 	0.90430 0.85310 0.45160 -0.02300
C 	C 	0.97150 0.86316 0.51340 -0.34400
H 	H 	0.99600 0.87720 0.51910 0.09700
H 	H 	0.97830 0.84600 0.54940 0.10700
N 	N 	0.76420 0.96506 0.39890 -0.19800
H 	H 	0.77950 0.97330 0.33660 0.06800
C 	C 	0.71180 0.95527 0.38070 -0.11200
H 	H 	0.69100 0.96120 0.45260 0.03500
H 	H 	0.69770 0.96390 0.30490 0.04500
C 	C 	0.70660 0.92507 0.36730 0.03900
H 	H 	0.73350 0.91560 0.32740 -0.02400
C 	C 	0.66730 0.91091 0.40720 -0.33500
H 	H 	0.63970 0.91970 0.44750 0.09800
H 	H 	0.66650 0.89190 0.39560 0.09400
Ag	Ag	0.46424 0.42241 0.76789 0.50300
Ag	Ag	0.35397 0.50721 0.35510 0.50900
Ag	Ag	0.23100 0.40621 0.56402 0.51500
P 	P 	0.40376 0.46591 0.56282 0.22600
N 	N 	0.40115 0.43606 0.62230 -0.21100
P 	P 	0.35616 0.41579 0.58328 0.23600
N 	N 	0.34958 0.47522 0.50130 -0.22300
P 	P 	0.29528 0.46117 0.53059 0.22600
N 	N 	0.30165 0.43083 0.58240 -0.22200
N 	N 	0.42620 0.48531 0.67360 -0.19600
H 	H 	0.44740 0.49840 0.65400 0.08300
C 	C 	0.41190 0.48154 0.80340 -0.12600
H 	H 	0.40540 0.49950 0.84090 0.05500
H 	H 	0.37980 0.47120 0.80640 0.05100
C 	C 	0.45080 0.46717 0.88150 0.08300
H 	H 	0.43960 0.45950 0.95790 -0.02600
C 	C 	0.49830 0.46448 0.85300 -0.35200
H 	H 	0.51100 0.47190 0.77730 0.11400
H 	H 	0.52060 0.45510 0.90760 0.10400
N 	N 	0.35710 0.39095 0.68200 -0.20200
H 	H 	0.35820 0.37430 0.65380 0.09500
C 	C 	0.35610 0.39569 0.81810 -0.13200
H 	H 	0.34460 0.41440 0.83430 0.04800
H 	H 	0.33110 0.38330 0.85690 0.04700
C 	C 	0.40730 0.39146 0.87840 0.08600
H 	H 	0.41230 0.40010 0.95660 -0.03600
C 	C 	0.44540 0.37752 0.83690 -0.37500
H 	H 	0.44280 0.36840 0.75920 0.12900
H 	H 	0.47590 0.37640 0.88410 0.11000
N 	N 	0.25749 0.47579 0.63110 -0.19500
H 	H 	0.23460 0.48720 0.60300 0.08800
C 	C 	0.25980 0.47079 0.76450 -0.10900
H 	H 	0.28780 0.45790 0.78130 0.05200
H 	H 	0.26820 0.48790 0.80740 0.04100
C 	C 	0.21110 0.45958 0.82040 0.03200
H 	H 	0.21060 0.45680 0.90810 -0.02400
C 	C 	0.16930 0.45339 0.75710 -0.34200
H 	H 	0.16820 0.45590 0.66920 0.09900
H 	H 	0.14050 0.44650 0.79980 0.08700
N 	N 	0.44600 0.47064 0.45260 -0.20400
H 	H 	0.47460 0.47900 0.46990 0.08500
C 	C 	0.43640 0.46104 0.32530 -0.10400
H 	H 	0.46630 0.45070 0.29660 0.04000
H 	H 	0.40700 0.44860 0.32700 0.04300
C 	C 	0.42570 0.48327 0.23210 0.02400
H 	H 	0.40880 0.47850 0.15680 -0.01600
C 	C 	0.43840 0.50963 0.24880 -0.29900
H 	H 	0.45530 0.51510 0.32300 0.09400
H 	H 	0.43050 0.52250 0.18620 0.08800
N 	N 	0.36490 0.40383 0.44370 -0.19700
H 	H 	0.33870 0.40340 0.39300 0.08500
C 	C 	0.41410 0.39371 0.39640 -0.10000
H 	H 	0.41190 0.39130 0.30480 0.01800
H 	H 	0.44090 0.40720 0.41380 0.03800
C 	C 	0.42810 0.36747 0.45580 0.03600
H 	H 	0.40430 0.35310 0.45160 -0.02300
C 	C 	0.47150 0.36316 0.51340 -0.34400
H 	H 	0.49600 0.37720 0.51910 0.09700
H 	H 	0.47830 0.34600 0.54940 0.10600
N 	N 	0.26420 0.46506 0.39890 -0.19800
H 	H 	0.27950 0.47330 0.33660 0.06800
C 	C 	0.21180 0.45527 0.38070 -0.11200
H 	H 	0.19100 0.46120 0.45260 0.03500
H 	H 	0.19770 0.46390 0.30490 0.04500
C 	C 	0.20660 0.42507 0.36730 0.03900
H 	H 	0.23350 0.41560 0.32740 -0.02400
C 	C 	0.16730 0.41091 0.40720 -0.33500
H 	H 	0.13970 0.41970 0.44750 0.09800
H 	H 	0.16650 0.39190 0.39560 0.09400
Ag	Ag	0.46424 0.92241 0.26789 0.50000
Ag	Ag	0.35397 0.00721 0.85510 0.51600
Ag	Ag	0.23100 0.90621 0.06402 0.50600
P 	P 	0.40376 0.96591 0.06282 0.21100
N 	N 	0.40115 0.93606 0.12230 -0.21100
P 	P 	0.35616 0.91579 0.08328 0.22100
N 	N 	0.34958 0.97522 0.00130 -0.22900
P 	P 	0.29528 0.96117 0.03059 0.21100
N 	N 	0.30165 0.93083 0.08240 -0.22300
N 	N 	0.42620 0.98531 0.17360 -0.19500
H 	H 	0.44740 0.99840 0.15400 0.07800
C 	C 	0.41190 0.98154 0.30340 -0.12600
H 	H 	0.40540 0.99950 0.34090 0.05200
H 	H 	0.37980 0.97120 0.30640 0.05000
C 	C 	0.45080 0.96717 0.38150 0.08000
H 	H 	0.43960 0.95950 0.45790 -0.03100
C 	C 	0.49830 0.96448 0.35300 -0.35100
H 	H 	0.51100 0.97190 0.27730 0.11100
H 	H 	0.52060 0.95510 0.40760 0.09900
N 	N 	0.35710 0.89095 0.18200 -0.20200
H 	H 	0.35820 0.87430 0.15380 0.09000
C 	C 	0.35610 0.89569 0.31810 -0.13000
H 	H 	0.34460 0.91440 0.33430 0.04500
H 	H 	0.33110 0.88330 0.35690 0.04200
C 	C 	0.40730 0.89146 0.37840 0.08100
H 	H 	0.41230 0.90010 0.45660 -0.04100
C 	C 	0.44540 0.87752 0.33690 -0.37300
H 	H 	0.44280 0.86840 0.25920 0.12500
H 	H 	0.47590 0.87640 0.38410 0.10400
N 	N 	0.25749 0.97579 0.13110 -0.19400
H 	H 	0.23460 0.98720 0.10300 0.08100
C 	C 	0.25980 0.97079 0.26450 -0.10900
H 	H 	0.28780 0.95790 0.28130 0.05100
H 	H 	0.26820 0.98790 0.30740 0.03900
C 	C 	0.21110 0.95958 0.32040 0.02800
H 	H 	0.21060 0.95680 0.40810 -0.02800
C 	C 	0.16930 0.95339 0.25710 -0.33700
H 	H 	0.16820 0.95590 0.16920 0.09200
H 	H 	0.14050 0.94650 0.29980 0.08200
N 	N 	0.44600 0.97064 0.95260 -0.19500
H 	H 	0.47460 0.97900 0.96990 0.08900
C 	C 	0.43640 0.96104 0.82530 -0.10700
H 	H 	0.46630 0.95070 0.79660 0.04400
H 	H 	0.40700 0.94860 0.82700 0.04900
C 	C 	0.42570 0.98327 0.73210 0.03000
H 	H 	0.40880 0.97850 0.65680 -0.01100
C 	C 	0.43840 0.00963 0.74880 -0.30200
H 	H 	0.45530 0.01510 0.82300 0.09800
H 	H 	0.43050 0.02250 0.68620 0.09400
N 	N 	0.36490 0.90383 0.94370 -0.18200
H 	H 	0.33870 0.90340 0.89300 0.08700
C 	C 	0.41410 0.89371 0.89640 -0.14100
H 	H 	0.41190 0.89130 0.80480 0.03200
H 	H 	0.44090 0.90720 0.91380 0.05600
C 	C 	0.42810 0.86747 0.95580 0.12000
H 	H 	0.40430 0.85310 0.95160 -0.04300
C 	C 	0.47150 0.86316 0.01340 -0.44300
H 	H 	0.49600 0.87720 0.01910 0.12100
H 	H 	0.47830 0.84600 0.04940 0.13400
N 	N 	0.26420 0.96506 0.89890 -0.18700
H 	H 	0.27950 0.97330 0.83660 0.07000
C 	C 	0.21180 0.95527 0.88070 -0.11700
H 	H 	0.19100 0.96120 0.95260 0.04400
H 	H 	0.19770 0.96390 0.80490 0.04900
C 	C 	0.20660 0.92507 0.86730 0.05200
H 	H 	0.23350 0.91560 0.82740 -0.02400
C 	C 	0.16730 0.91091 0.90720 -0.34100
H 	H 	0.13970 0.91970 0.94750 0.10700
H 	H 	0.16650 0.89190 0.89560 0.10300
