data_crystal

_cell_length_a 27.29500
_cell_length_b 27.29500
_cell_length_c 27.29500
_cell_angle_alpha 109.47100
_cell_angle_beta  109.47100
_cell_angle_gamma 109.47100

_symmetry_space_group_name_	'P 1'
_symmetry_space_group_name_H-M	'P 1'

loop_
_symmetry_equiv_pos_as_xyz
  x,y,z

loop_
_atom_site_label
_atom_site_type_symbol
_atom_site_fract_x
_atom_site_fract_y
_atom_site_fract_z
_atom_site_charge
Tb	Tb	0.57904 0.08757 0.81670 1.82300
C 	C 	0.60050 0.14190 0.72820 0.45200
C 	C 	0.62800 0.20270 0.73270 -0.16700
C 	C 	0.62600 0.20800 0.68200 0.02800
H 	H 	0.60690 0.17270 0.64440 0.01900
C 	C 	0.65100 0.26240 0.68640 -0.03600
C 	C 	0.67090 0.31340 0.74590 0.06700
H 	H 	0.68170 0.35190 0.74960 0.00400
C 	C 	0.67430 0.30840 0.79250 -0.22800
C 	C 	0.65310 0.25520 0.78890 0.12400
H 	H 	0.65450 0.25190 0.82280 -0.01300
C 	C 	0.69550 0.36160 0.84990 0.50200
C 	C 	0.64770 0.26980 0.63310 -0.04200
H 	H 	0.68370 0.30740 0.64710 0.03600
H 	H 	0.64820 0.23610 0.60510 0.03300
C 	C 	0.54980 0.22260 0.55280 0.06900
H 	H 	0.55260 0.18750 0.53790 -0.00900
C 	C 	0.49690 0.22160 0.52190 -0.12100
H 	H 	0.46410 0.18610 0.48620 0.05900
C 	C 	0.49250 0.27380 0.54410 0.06100
C 	C 	0.54760 0.32200 0.58900 -0.13900
H 	H 	0.55070 0.36020 0.60010 0.06300
C 	C 	0.59700 0.32210 0.61870 0.08900
H 	H 	0.63230 0.35840 0.65130 -0.01200
C 	C 	0.43620 0.27070 0.51190 0.02800
C 	C 	0.38090 0.21540 0.46790 -0.10700
H 	H 	0.37890 0.17820 0.46130 0.05500
C 	C 	0.33140 0.21620 0.43580 0.05800
H 	H 	0.29640 0.17910 0.40450 -0.00600
C 	C 	0.38320 0.32260 0.48920 0.04100
H 	H 	0.38290 0.35890 0.49560 -0.00200
C 	C 	0.43850 0.32670 0.52420 -0.09800
H 	H 	0.47410 0.36410 0.55340 0.05000
N 	N 	0.32960 0.26850 0.44650 -0.15700
N 	N 	0.59590 0.27160 0.60230 -0.13800
O 	O 	0.56620 0.09540 0.67640 -0.55100
O 	O 	0.61520 0.14350 0.77910 -0.54200
O 	O 	0.70230 0.35620 0.89490 -0.59000
O 	O 	0.70850 0.41190 0.85180 -0.56300
O 	O 	0.56420 0.00870 0.73390 -0.91700
H 	H 	0.59680 0.01210 0.73530 0.33300
Tb	Tb	0.77088 0.76234 0.68330 1.82500
C 	C 	0.91370 0.87230 0.77180 0.45300
C 	C 	0.97000 0.89530 0.76730 -0.16600
C 	C 	0.02600 0.94400 0.81800 0.03000
H 	H 	0.02830 0.96250 0.85560 0.03200
C 	C 	0.07600 0.96460 0.81360 0.00000
C 	C 	0.06750 0.92500 0.75410 0.04700
H 	H 	0.10230 0.93210 0.75040 0.01600
C 	C 	0.01590 0.88180 0.70750 -0.19400
C 	C 	0.96630 0.86420 0.71110 0.09300
H 	H 	0.92910 0.83170 0.67720 -0.00500
C 	C 	0.01170 0.84560 0.65010 0.50800
C 	C 	0.13670 0.01460 0.86690 -0.09100
H 	H 	0.16030 0.03660 0.85290 0.04500
H 	H 	0.13100 0.04310 0.89490 0.04500
C 	C 	0.16980 0.99700 0.94720 0.08800
H 	H 	0.14960 0.01470 0.96210 -0.02100
C 	C 	0.19970 0.97500 0.97810 -0.08900
H 	H 	0.19990 0.97790 0.01380 0.04300
C 	C 	0.22970 0.94840 0.95590 0.04800
C 	C 	0.23300 0.95860 0.91100 -0.12500
H 	H 	0.26010 0.95060 0.89990 0.06200
C 	C 	0.20340 0.97830 0.88130 0.08400
H 	H 	0.20710 0.98100 0.84870 -0.00500
C 	C 	0.25880 0.92430 0.98810 0.05500
C 	C 	0.24750 0.91300 0.03210 -0.13300
H 	H 	0.21690 0.91760 0.03870 0.06400
C 	C 	0.28040 0.89560 0.06420 0.06900
H 	H 	0.27460 0.89190 0.09550 -0.00700
C 	C 	0.33340 0.89400 0.01080 0.02400
H 	H 	0.36330 0.88730 0.00440 0.00100
C 	C 	0.30250 0.91430 0.97580 -0.08000
H 	H 	0.31070 0.92070 0.94660 0.05100
N 	N 	0.32200 0.88310 0.05350 -0.15700
N 	N 	0.16930 0.99360 0.89770 -0.12500
O 	O 	0.91900 0.88980 0.82360 -0.55600
O 	O 	0.86440 0.83610 0.72090 -0.54300
O 	O 	0.96130 0.80740 0.60510 -0.59700
O 	O 	0.06010 0.85670 0.64820 -0.56000
O 	O 	0.77480 0.83030 0.76610 -0.91400
H 	H 	0.77680 0.86150 0.76470 0.33600
Tb	Tb	0.72912 0.41243 0.99147 1.86600
C 	C 	0.58630 0.35810 0.95860 0.45400
C 	C 	0.53000 0.29730 0.92530 -0.16100
C 	C 	0.47400 0.29200 0.91800 0.02800
H 	H 	0.47170 0.32730 0.93420 0.02400
C 	C 	0.42400 0.23760 0.88860 -0.02900
C 	C 	0.43250 0.18660 0.85750 0.06700
H 	H 	0.39770 0.14810 0.82980 0.00400
C 	C 	0.48410 0.19160 0.86590 -0.22500
C 	C 	0.53370 0.24480 0.89790 0.12400
H 	H 	0.57090 0.24810 0.90260 -0.01200
C 	C 	0.48830 0.13840 0.83390 0.50200
C 	C 	0.36330 0.23020 0.87790 -0.04600
H 	H 	0.33970 0.19260 0.87630 0.03900
H 	H 	0.36900 0.26390 0.91210 0.03800
C 	C 	0.33020 0.27740 0.82720 0.06800
H 	H 	0.35040 0.31250 0.86510 -0.00500
C 	C 	0.30030 0.27840 0.77530 -0.12000
H 	H 	0.30010 0.31390 0.77800 0.06000
C 	C 	0.27030 0.22620 0.71870 0.06000
C 	C 	0.26700 0.17800 0.72560 -0.13800
H 	H 	0.23990 0.13980 0.69050 0.06100
C 	C 	0.29660 0.17790 0.77490 0.08900
H 	H 	0.29290 0.14160 0.77390 -0.01400
C 	C 	0.24120 0.22930 0.66550 0.02800
C 	C 	0.25250 0.28460 0.66550 -0.10700
H 	H 	0.28310 0.32180 0.70070 0.05600
C 	C 	0.21960 0.28380 0.61520 0.05800
H 	H 	0.22540 0.32090 0.61730 -0.00500
C 	C 	0.16660 0.17740 0.56060 0.04100
H 	H 	0.13670 0.14110 0.52400 -0.00300
C 	C 	0.19750 0.17330 0.61180 -0.09800
H 	H 	0.18930 0.13590 0.61000 0.04900
N 	N 	0.17800 0.23150 0.56110 -0.15800
N 	N 	0.33070 0.22840 0.82430 -0.13700
O 	O 	0.58100 0.40460 0.97080 -0.54200
O 	O 	0.63560 0.35650 0.97170 -0.54100
O 	O 	0.53870 0.14380 0.84610 -0.58700
O 	O 	0.43990 0.08810 0.79660 -0.57100
O 	O 	0.72520 0.49130 0.05550 -0.91900
H 	H 	0.72320 0.48790 0.08470 0.33600
Tb	Tb	0.92096 0.73766 0.50853 1.80900
C 	C 	0.89950 0.62770 0.54140 0.45100
C 	C 	0.87200 0.60470 0.57470 -0.16600
C 	C 	0.87400 0.55600 0.58200 0.02800
H 	H 	0.89310 0.53750 0.56580 0.01900
C 	C 	0.84900 0.53540 0.61140 -0.03400
C 	C 	0.82910 0.57500 0.64250 0.06600
H 	H 	0.81830 0.56790 0.67020 0.00500
C 	C 	0.82570 0.61820 0.63410 -0.22600
C 	C 	0.84690 0.63580 0.60210 0.12200
H 	H 	0.84550 0.66830 0.59740 -0.01400
C 	C 	0.80450 0.65440 0.66610 0.49900
C 	C 	0.85230 0.48540 0.62210 -0.04300
H 	H 	0.81630 0.46340 0.62370 0.03600
H 	H 	0.85180 0.45690 0.58790 0.03300
C 	C 	0.95020 0.50300 0.67280 0.05000
H 	H 	0.94740 0.48530 0.63490 -0.00500
C 	C 	0.00310 0.52500 0.72470 -0.10500
H 	H 	0.03590 0.52210 0.72200 0.05700
C 	C 	0.00750 0.55160 0.78130 0.07800
C 	C 	0.95240 0.54140 0.77440 -0.16300
H 	H 	0.94930 0.54940 0.80950 0.06700
C 	C 	0.90300 0.52170 0.72510 0.09900
H 	H 	0.86770 0.51900 0.72610 -0.01600
C 	C 	0.06380 0.57570 0.83450 0.02400
C 	C 	0.11910 0.58700 0.83450 -0.10300
H 	H 	0.12110 0.58240 0.79930 0.05500
C 	C 	0.16860 0.60440 0.88480 0.05800
H 	H 	0.20360 0.60810 0.88270 -0.00400
C 	C 	0.11680 0.60600 0.93940 0.04200
H 	H 	0.11710 0.61270 0.97600 0.00600
C 	C 	0.06150 0.58570 0.88820 -0.09200
H 	H 	0.02590 0.57930 0.89000 0.05500
N 	N 	0.17040 0.61690 0.93890 -0.15400
N 	N 	0.90410 0.50640 0.67570 -0.13800
O 	O 	0.93380 0.61020 0.52920 -0.55400
O 	O 	0.88480 0.66390 0.52830 -0.54200
O 	O 	0.79770 0.69260 0.65390 -0.58700
O 	O 	0.79150 0.64330 0.70340 -0.56100
O 	O 	0.93580 0.66970 0.44450 -0.91000
H 	H 	0.90320 0.63850 0.41530 0.33600
Tb	Tb	0.81670 0.57904 0.08757 1.81700
C 	C 	0.72820 0.60050 0.14190 0.45200
C 	C 	0.73270 0.62800 0.20270 -0.16500
C 	C 	0.68200 0.62600 0.20800 0.02900
H 	H 	0.64440 0.60690 0.17270 0.02000
C 	C 	0.68640 0.65100 0.26240 -0.03400
C 	C 	0.74590 0.67090 0.31340 0.06600
H 	H 	0.74960 0.68170 0.35190 0.00600
C 	C 	0.79250 0.67430 0.30840 -0.22400
C 	C 	0.78890 0.65310 0.25520 0.12200
H 	H 	0.82280 0.65450 0.25190 -0.01300
C 	C 	0.84990 0.69550 0.36160 0.49700
C 	C 	0.63310 0.64770 0.26980 -0.04300
H 	H 	0.64710 0.68370 0.30740 0.03600
H 	H 	0.60510 0.64820 0.23610 0.03300
C 	C 	0.55280 0.54980 0.22260 0.06900
H 	H 	0.53790 0.55260 0.18750 -0.00900
C 	C 	0.52190 0.49690 0.22160 -0.12100
H 	H 	0.48620 0.46410 0.18610 0.05900
C 	C 	0.54410 0.49250 0.27380 0.06100
C 	C 	0.58900 0.54760 0.32200 -0.13900
H 	H 	0.60010 0.55070 0.36020 0.06300
C 	C 	0.61870 0.59700 0.32210 0.08900
H 	H 	0.65130 0.63230 0.35840 -0.01200
C 	C 	0.51190 0.43620 0.27070 0.02800
C 	C 	0.46790 0.38090 0.21540 -0.10700
H 	H 	0.46130 0.37890 0.17820 0.05500
C 	C 	0.43580 0.33140 0.21620 0.05800
H 	H 	0.40450 0.29640 0.17910 -0.00500
C 	C 	0.48920 0.38320 0.32260 0.04100
H 	H 	0.49560 0.38290 0.35890 -0.00200
C 	C 	0.52420 0.43850 0.32670 -0.09700
H 	H 	0.55340 0.47410 0.36410 0.05000
N 	N 	0.44650 0.32960 0.26850 -0.15700
N 	N 	0.60230 0.59590 0.27160 -0.13800
O 	O 	0.67640 0.56620 0.09540 -0.55100
O 	O 	0.77910 0.61520 0.14350 -0.54200
O 	O 	0.89490 0.70230 0.35620 -0.58300
O 	O 	0.85180 0.70850 0.41190 -0.55900
O 	O 	0.73390 0.56420 0.00870 -0.91700
H 	H 	0.73530 0.59680 0.01210 0.33300
Tb	Tb	0.68330 0.77088 0.76234 1.82500
C 	C 	0.77180 0.91370 0.87230 0.44900
C 	C 	0.76730 0.97000 0.89530 -0.14300
C 	C 	0.81800 0.02600 0.94400 -0.00700
H 	H 	0.85560 0.02830 0.96250 0.03100
C 	C 	0.81360 0.07600 0.96460 -0.00000
C 	C 	0.75410 0.06750 0.92500 0.05500
H 	H 	0.75040 0.10230 0.93210 0.01200
C 	C 	0.70750 0.01590 0.88180 -0.23200
C 	C 	0.71110 0.96630 0.86420 0.13400
H 	H 	0.67720 0.92910 0.83170 -0.01500
C 	C 	0.65010 0.01170 0.84560 0.48100
C 	C 	0.86690 0.13670 0.01460 -0.08600
H 	H 	0.85290 0.16030 0.03660 0.04100
H 	H 	0.89490 0.13100 0.04310 0.03800
C 	C 	0.94720 0.16980 0.99700 0.12400
H 	H 	0.96210 0.14960 0.01470 -0.04400
C 	C 	0.97810 0.19970 0.97500 -0.17800
H 	H 	0.01380 0.19990 0.97790 0.09200
C 	C 	0.95590 0.22970 0.94840 0.09000
C 	C 	0.91100 0.23300 0.95860 -0.15800
H 	H 	0.89990 0.26010 0.95060 0.07100
C 	C 	0.88130 0.20340 0.97830 0.10300
H 	H 	0.84870 0.20710 0.98100 -0.01300
C 	C 	0.98810 0.25880 0.92430 0.00400
C 	C 	0.03210 0.24750 0.91300 -0.07900
H 	H 	0.03870 0.21690 0.91760 0.05100
C 	C 	0.06420 0.28040 0.89560 0.05200
H 	H 	0.09550 0.27460 0.89190 0.00000
C 	C 	0.01080 0.33340 0.89400 0.05800
H 	H 	0.00440 0.36330 0.88730 -0.00000
C 	C 	0.97580 0.30250 0.91430 -0.10500
H 	H 	0.94660 0.31070 0.92070 0.05100
N 	N 	0.05350 0.32200 0.88310 -0.15400
N 	N 	0.89770 0.16930 0.99360 -0.13900
O 	O 	0.82360 0.91900 0.88980 -0.55000
O 	O 	0.72090 0.86440 0.83610 -0.54200
O 	O 	0.60510 0.96130 0.80740 -0.57100
O 	O 	0.64820 0.06010 0.85670 -0.55700
O 	O 	0.76610 0.77480 0.83030 -0.91400
H 	H 	0.76470 0.77680 0.86150 0.33600
Tb	Tb	0.99147 0.72912 0.41243 1.79200
C 	C 	0.95860 0.58630 0.35810 0.45100
C 	C 	0.92530 0.53000 0.29730 -0.16900
C 	C 	0.91800 0.47400 0.29200 0.03000
H 	H 	0.93420 0.47170 0.32730 0.01800
C 	C 	0.88860 0.42400 0.23760 -0.03900
C 	C 	0.85750 0.43250 0.18660 0.07000
H 	H 	0.82980 0.39770 0.14810 0.00200
C 	C 	0.86590 0.48410 0.19160 -0.23100
C 	C 	0.89790 0.53370 0.24480 0.12500
H 	H 	0.90260 0.57090 0.24810 -0.01500
C 	C 	0.83390 0.48830 0.13840 0.50200
C 	C 	0.87790 0.36330 0.23020 -0.03900
H 	H 	0.87630 0.33970 0.19260 0.03300
H 	H 	0.91210 0.36900 0.26390 0.02900
C 	C 	0.82720 0.33020 0.27740 0.06900
H 	H 	0.86510 0.35040 0.31250 -0.00900
C 	C 	0.77530 0.30030 0.27840 -0.12200
H 	H 	0.77800 0.30010 0.31390 0.05900
C 	C 	0.71870 0.27030 0.22620 0.06100
C 	C 	0.72560 0.26700 0.17800 -0.13900
H 	H 	0.69050 0.23990 0.13980 0.06100
C 	C 	0.77490 0.29660 0.17790 0.09000
H 	H 	0.77390 0.29290 0.14160 -0.01500
C 	C 	0.66550 0.24120 0.22930 0.02800
C 	C 	0.66550 0.25250 0.28460 -0.10600
H 	H 	0.70070 0.28310 0.32180 0.05600
C 	C 	0.61520 0.21960 0.28380 0.05800
H 	H 	0.61730 0.22540 0.32090 -0.00500
C 	C 	0.56060 0.16660 0.17740 0.04100
H 	H 	0.52400 0.13670 0.14110 -0.00300
C 	C 	0.61180 0.19750 0.17330 -0.09700
H 	H 	0.61000 0.18930 0.13590 0.04800
N 	N 	0.56110 0.17800 0.23150 -0.15600
N 	N 	0.82430 0.33070 0.22840 -0.13900
O 	O 	0.97080 0.58100 0.40460 -0.55400
O 	O 	0.97170 0.63560 0.35650 -0.54300
O 	O 	0.84610 0.53870 0.14380 -0.58900
O 	O 	0.79660 0.43990 0.08810 -0.57200
O 	O 	0.05550 0.72520 0.49130 -0.90100
H 	H 	0.08470 0.72320 0.48790 0.33400
Tb	Tb	0.50853 0.92096 0.73766 1.84700
C 	C 	0.54140 0.89950 0.62770 0.45300
C 	C 	0.57470 0.87200 0.60470 -0.16300
C 	C 	0.58200 0.87400 0.55600 0.02900
H 	H 	0.56580 0.89310 0.53750 0.02300
C 	C 	0.61140 0.84900 0.53540 -0.03300
C 	C 	0.64250 0.82910 0.57500 0.06700
H 	H 	0.67020 0.81830 0.56790 0.00600
C 	C 	0.63410 0.82570 0.61820 -0.22500
C 	C 	0.60210 0.84690 0.63580 0.12300
H 	H 	0.59740 0.84550 0.66830 -0.01300
C 	C 	0.66610 0.80450 0.65440 0.49900
C 	C 	0.62210 0.85230 0.48540 -0.04200
H 	H 	0.62370 0.81630 0.46340 0.03600
H 	H 	0.58790 0.85180 0.45690 0.03400
C 	C 	0.67280 0.95020 0.50300 0.09200
H 	H 	0.63490 0.94740 0.48530 -0.01100
C 	C 	0.72470 0.00310 0.52500 -0.14300
H 	H 	0.72200 0.03590 0.52210 0.06300
C 	C 	0.78130 0.00750 0.55160 0.04200
C 	C 	0.77440 0.95240 0.54140 -0.11100
H 	H 	0.80950 0.94930 0.54940 0.05800
C 	C 	0.72510 0.90300 0.52170 0.07900
H 	H 	0.72610 0.86770 0.51900 -0.00800
C 	C 	0.83450 0.06380 0.57570 0.03200
C 	C 	0.83450 0.11910 0.58700 -0.11000
H 	H 	0.79930 0.12110 0.58240 0.05600
C 	C 	0.88480 0.16860 0.60440 0.05900
H 	H 	0.88270 0.20360 0.60810 -0.00600
C 	C 	0.93940 0.11680 0.60600 0.04100
H 	H 	0.97600 0.11710 0.61270 -0.00700
C 	C 	0.88820 0.06150 0.58570 -0.10300
H 	H 	0.89000 0.02590 0.57930 0.04500
N 	N 	0.93890 0.17040 0.61690 -0.16000
N 	N 	0.67570 0.90410 0.50640 -0.13900
O 	O 	0.52920 0.93380 0.61020 -0.54200
O 	O 	0.52830 0.88480 0.66390 -0.54300
O 	O 	0.65390 0.79770 0.69260 -0.58600
O 	O 	0.70340 0.79150 0.64330 -0.56100
O 	O 	0.44450 0.93580 0.66970 -0.90700
H 	H 	0.41530 0.90320 0.63850 0.33400
Tb	Tb	0.08757 0.81670 0.57904 1.83400
C 	C 	0.14190 0.72820 0.60050 0.45200
C 	C 	0.20270 0.73270 0.62800 -0.16400
C 	C 	0.20800 0.68200 0.62600 0.02800
H 	H 	0.17270 0.64440 0.60690 0.02100
C 	C 	0.26240 0.68640 0.65100 -0.03300
C 	C 	0.31340 0.74590 0.67090 0.06700
H 	H 	0.35190 0.74960 0.68170 0.00500
C 	C 	0.30840 0.79250 0.67430 -0.22600
C 	C 	0.25520 0.78890 0.65310 0.12300
H 	H 	0.25190 0.82280 0.65450 -0.01300
C 	C 	0.36160 0.84990 0.69550 0.50200
C 	C 	0.26980 0.63310 0.64770 -0.04300
H 	H 	0.30740 0.64710 0.68370 0.03700
H 	H 	0.23610 0.60510 0.64820 0.03400
C 	C 	0.22260 0.55280 0.54980 0.06900
H 	H 	0.18750 0.53790 0.55260 -0.00700
C 	C 	0.22160 0.52190 0.49690 -0.12100
H 	H 	0.18610 0.48620 0.46410 0.06000
C 	C 	0.27380 0.54410 0.49250 0.06100
C 	C 	0.32200 0.58900 0.54760 -0.13900
H 	H 	0.36020 0.60010 0.55070 0.06300
C 	C 	0.32210 0.61870 0.59700 0.08900
H 	H 	0.35840 0.65130 0.63230 -0.01200
C 	C 	0.27070 0.51190 0.43620 0.02800
C 	C 	0.21540 0.46790 0.38090 -0.10700
H 	H 	0.17820 0.46130 0.37890 0.05600
C 	C 	0.21620 0.43580 0.33140 0.05800
H 	H 	0.17910 0.40450 0.29640 -0.00500
C 	C 	0.32260 0.48920 0.38320 0.04100
H 	H 	0.35890 0.49560 0.38290 -0.00200
C 	C 	0.32670 0.52420 0.43850 -0.09800
H 	H 	0.36410 0.55340 0.47410 0.05000
N 	N 	0.26850 0.44650 0.32960 -0.15700
N 	N 	0.27160 0.60230 0.59590 -0.13800
O 	O 	0.09540 0.67640 0.56620 -0.54700
O 	O 	0.14350 0.77910 0.61520 -0.54300
O 	O 	0.35620 0.89490 0.70230 -0.59000
O 	O 	0.41190 0.85180 0.70850 -0.56300
O 	O 	0.00870 0.73390 0.56420 -0.90200
H 	H 	0.01210 0.73530 0.59680 0.33600
Tb	Tb	0.76234 0.68330 0.77088 1.82500
C 	C 	0.87230 0.77180 0.91370 0.45300
C 	C 	0.89530 0.76730 0.97000 -0.16100
C 	C 	0.94400 0.81800 0.02600 0.02000
H 	H 	0.96250 0.85560 0.02830 0.01400
C 	C 	0.96460 0.81360 0.07600 -0.05600
C 	C 	0.92500 0.75410 0.06750 0.08100
H 	H 	0.93210 0.75040 0.10230 -0.00200
C 	C 	0.88180 0.70750 0.01590 -0.25400
C 	C 	0.86420 0.71110 0.96630 0.15100
H 	H 	0.83170 0.67720 0.92910 -0.02100
C 	C 	0.84560 0.65010 0.01170 0.48600
C 	C 	0.01460 0.86690 0.13670 -0.01300
H 	H 	0.03660 0.85290 0.16030 0.03400
H 	H 	0.04310 0.89490 0.13100 0.03000
C 	C 	0.99700 0.94720 0.16980 0.01500
H 	H 	0.01470 0.96210 0.14960 0.02400
C 	C 	0.97500 0.97810 0.19970 -0.05800
H 	H 	0.97790 0.01380 0.19990 0.02300
C 	C 	0.94840 0.95590 0.22970 0.02800
C 	C 	0.95860 0.91100 0.23300 -0.11600
H 	H 	0.95060 0.89990 0.26010 0.05500
C 	C 	0.97830 0.88130 0.20340 0.07400
H 	H 	0.98100 0.84870 0.20710 -0.01000
C 	C 	0.92430 0.98810 0.25880 0.05700
C 	C 	0.91300 0.03210 0.24750 -0.13900
H 	H 	0.91760 0.03870 0.21690 0.06100
C 	C 	0.89560 0.06420 0.28040 0.06700
H 	H 	0.89190 0.09550 0.27460 -0.01100
C 	C 	0.89400 0.01080 0.33340 0.02200
H 	H 	0.88730 0.00440 0.36330 -0.00200
C 	C 	0.91430 0.97580 0.30250 -0.08700
H 	H 	0.92070 0.94660 0.31070 0.04900
N 	N 	0.88310 0.05350 0.32200 -0.16000
N 	N 	0.99360 0.89770 0.16930 -0.13400
O 	O 	0.88980 0.82360 0.91900 -0.55300
O 	O 	0.83610 0.72090 0.86440 -0.54300
O 	O 	0.80740 0.60510 0.96130 -0.57300
O 	O 	0.85670 0.64820 0.06010 -0.56100
O 	O 	0.83030 0.76610 0.77480 -0.91400
H 	H 	0.86150 0.76470 0.77680 0.33500
Tb	Tb	0.41243 0.99147 0.72912 1.86800
C 	C 	0.35810 0.95860 0.58630 0.45300
C 	C 	0.29730 0.92530 0.53000 -0.15900
C 	C 	0.29200 0.91800 0.47400 0.02600
H 	H 	0.32730 0.93420 0.47170 0.02500
C 	C 	0.23760 0.88860 0.42400 -0.02600
C 	C 	0.18660 0.85750 0.43250 0.06300
H 	H 	0.14810 0.82980 0.39770 0.00900
C 	C 	0.19160 0.86590 0.48410 -0.21900
C 	C 	0.24480 0.89790 0.53370 0.12000
H 	H 	0.24810 0.90260 0.57090 -0.01100
C 	C 	0.13840 0.83390 0.48830 0.49600
C 	C 	0.23020 0.87790 0.36330 -0.04900
H 	H 	0.19260 0.87630 0.33970 0.04100
H 	H 	0.26390 0.91210 0.36900 0.03900
C 	C 	0.27740 0.82720 0.33020 0.06800
H 	H 	0.31250 0.86510 0.35040 -0.00500
C 	C 	0.27840 0.77530 0.30030 -0.12000
H 	H 	0.31390 0.77800 0.30010 0.06000
C 	C 	0.22620 0.71870 0.27030 0.06000
C 	C 	0.17800 0.72560 0.26700 -0.13800
H 	H 	0.13980 0.69050 0.23990 0.06300
C 	C 	0.17790 0.77490 0.29660 0.08800
H 	H 	0.14160 0.77390 0.29290 -0.01000
C 	C 	0.22930 0.66550 0.24120 0.02900
C 	C 	0.28460 0.66550 0.25250 -0.10700
H 	H 	0.32180 0.70070 0.28310 0.05600
C 	C 	0.28380 0.61520 0.21960 0.05800
H 	H 	0.32090 0.61730 0.22540 -0.00500
C 	C 	0.17740 0.56060 0.16660 0.04100
H 	H 	0.14110 0.52400 0.13670 -0.00100
C 	C 	0.17330 0.61180 0.19750 -0.09800
H 	H 	0.13590 0.61000 0.18930 0.05000
N 	N 	0.23150 0.56110 0.17800 -0.15700
N 	N 	0.22840 0.82430 0.33070 -0.13700
O 	O 	0.40460 0.97080 0.58100 -0.54100
O 	O 	0.35650 0.97170 0.63560 -0.54100
O 	O 	0.14380 0.84610 0.53870 -0.58300
O 	O 	0.08810 0.79660 0.43990 -0.55100
O 	O 	0.49130 0.05550 0.72520 -0.92000
H 	H 	0.48790 0.08470 0.72320 0.33600
Tb	Tb	0.73766 0.50853 0.92096 1.84500
C 	C 	0.62770 0.54140 0.89950 0.45300
C 	C 	0.60470 0.57470 0.87200 -0.16300
C 	C 	0.55600 0.58200 0.87400 0.02900
H 	H 	0.53750 0.56580 0.89310 0.02300
C 	C 	0.53540 0.61140 0.84900 -0.03300
C 	C 	0.57500 0.64250 0.82910 0.06700
H 	H 	0.56790 0.67020 0.81830 0.00600
C 	C 	0.61820 0.63410 0.82570 -0.22500
C 	C 	0.63580 0.60210 0.84690 0.12300
H 	H 	0.66830 0.59740 0.84550 -0.01300
C 	C 	0.65440 0.66610 0.80450 0.49900
C 	C 	0.48540 0.62210 0.85230 -0.04200
H 	H 	0.46340 0.62370 0.81630 0.03600
H 	H 	0.45690 0.58790 0.85180 0.03400
C 	C 	0.50300 0.67280 0.95020 0.09300
H 	H 	0.48530 0.63490 0.94740 -0.01100
C 	C 	0.52500 0.72470 0.00310 -0.14300
H 	H 	0.52210 0.72200 0.03590 0.06300
C 	C 	0.55160 0.78130 0.00750 0.04300
C 	C 	0.54140 0.77440 0.95240 -0.11000
H 	H 	0.54940 0.80950 0.94930 0.05900
C 	C 	0.52170 0.72510 0.90300 0.07900
H 	H 	0.51900 0.72610 0.86770 -0.00800
C 	C 	0.57570 0.83450 0.06380 0.03200
C 	C 	0.58700 0.83450 0.11910 -0.10900
H 	H 	0.58240 0.79930 0.12110 0.05600
C 	C 	0.60440 0.88480 0.16860 0.06000
H 	H 	0.60810 0.88270 0.20360 -0.00500
C 	C 	0.60600 0.93940 0.11680 0.04300
H 	H 	0.61270 0.97600 0.11710 0.00400
C 	C 	0.58570 0.88820 0.06150 -0.10000
H 	H 	0.57930 0.89000 0.02590 0.04700
N 	N 	0.61690 0.93890 0.17040 -0.15400
N 	N 	0.50640 0.67570 0.90410 -0.13900
O 	O 	0.61020 0.52920 0.93380 -0.54200
O 	O 	0.66390 0.52830 0.88480 -0.54300
O 	O 	0.69260 0.65390 0.79770 -0.58600
O 	O 	0.64330 0.70340 0.79150 -0.56100
O 	O 	0.66970 0.44450 0.93580 -0.90600
H 	H 	0.63850 0.41530 0.90320 0.33400
Tb	Tb	0.50000 0.00000 0.64812 1.93800
O 	O 	0.50000 0.00000 0.79260 -0.84300
H 	H 	0.50000 -0.00000 0.82920 0.12400
Tb	Tb	0.85188 0.85188 0.85188 1.98600
O 	O 	0.70740 0.70740 0.70740 -0.82800
H 	H 	0.67080 0.67080 0.67080 0.12500
Tb	Tb	0.64812 0.50000 -0.00000 1.93900
O 	O 	0.79260 0.50000 -0.00000 -0.84200
H 	H 	0.82920 0.50000 -0.00000 0.12000
Tb	Tb	1.00000 0.64812 0.50000 1.94800
O 	O 	0.00000 0.79260 0.50000 -0.80400
H 	H 	1.00000 0.82920 0.50000 0.11200
Tb	Tb	0.58757 0.07904 0.31670 1.81400
C 	C 	0.64190 0.10050 0.22820 0.45100
C 	C 	0.70270 0.12800 0.23270 -0.16800
C 	C 	0.70800 0.12600 0.18200 0.03000
H 	H 	0.67270 0.10690 0.14440 0.01700
C 	C 	0.76240 0.15100 0.18640 -0.03700
C 	C 	0.81340 0.17090 0.24590 0.06800
H 	H 	0.85190 0.18170 0.24960 0.00300
C 	C 	0.80840 0.17430 0.29250 -0.22800
C 	C 	0.75520 0.15310 0.28890 0.12400
H 	H 	0.75190 0.15450 0.32280 -0.01400
C 	C 	0.86160 0.19550 0.34990 0.50000
C 	C 	0.76980 0.14770 0.13310 -0.03900
H 	H 	0.80740 0.18370 0.14710 0.03300
H 	H 	0.73610 0.14820 0.10510 0.03000
C 	C 	0.72260 0.04980 0.05280 0.06500
H 	H 	0.68750 0.05260 0.03790 -0.01500
C 	C 	0.72160 0.99690 0.02190 -0.14600
H 	H 	0.68610 0.96410 0.98620 0.08200
C 	C 	0.77380 0.99250 0.04410 0.10300
C 	C 	0.82200 0.04760 0.08900 -0.18600
H 	H 	0.86020 0.05070 0.10010 0.07100
C 	C 	0.82210 0.09700 0.11870 0.11100
H 	H 	0.85840 0.13230 0.15130 -0.02200
C 	C 	0.77070 0.93620 0.01190 -0.00300
C 	C 	0.71540 0.88090 0.96790 -0.07500
H 	H 	0.67820 0.87890 0.96130 0.04900
C 	C 	0.71620 0.83140 0.93580 0.04800
H 	H 	0.67910 0.79640 0.90450 -0.00100
C 	C 	0.82260 0.88320 0.98920 0.05800
H 	H 	0.85890 0.88290 0.99560 -0.00200
C 	C 	0.82670 0.93850 0.02420 -0.10600
H 	H 	0.86410 0.97410 0.05340 0.05300
N 	N 	0.76850 0.82960 0.94650 -0.15500
N 	N 	0.77160 0.09590 0.10230 -0.14500
O 	O 	0.59540 0.06620 0.17640 -0.55500
O 	O 	0.64350 0.11520 0.27910 -0.54300
O 	O 	0.85620 0.20230 0.39490 -0.58700
O 	O 	0.91190 0.20850 0.35180 -0.56800
O 	O 	0.50870 0.06420 0.23390 -0.90800
H 	H 	0.51210 0.09680 0.23530 0.33500
Tb	Tb	0.26234 0.27088 0.18330 1.82000
C 	C 	0.37230 0.41370 0.27180 0.45400
C 	C 	0.39530 0.47000 0.26730 -0.16500
C 	C 	0.44400 0.52600 0.31800 0.02900
H 	H 	0.46250 0.52830 0.35560 0.02000
C 	C 	0.46460 0.57600 0.31360 -0.03400
C 	C 	0.42500 0.56750 0.25410 0.06600
H 	H 	0.43210 0.60230 0.25040 0.00600
C 	C 	0.38180 0.51590 0.20750 -0.22500
C 	C 	0.36420 0.46630 0.21110 0.12300
H 	H 	0.33170 0.42910 0.17720 -0.01400
C 	C 	0.34560 0.51170 0.15010 0.49700
C 	C 	0.51460 0.63670 0.36690 -0.04300
H 	H 	0.53660 0.66030 0.35290 0.03600
H 	H 	0.54310 0.63100 0.39490 0.03300
C 	C 	0.49700 0.66980 0.44720 0.06900
H 	H 	0.51470 0.64960 0.46210 -0.00800
C 	C 	0.47500 0.69970 0.47810 -0.12100
H 	H 	0.47790 0.69990 0.51380 0.05900
C 	C 	0.44840 0.72970 0.45590 0.06100
C 	C 	0.45860 0.73300 0.41100 -0.13900
H 	H 	0.45060 0.76010 0.39990 0.06300
C 	C 	0.47830 0.70340 0.38130 0.09000
H 	H 	0.48100 0.70710 0.34870 -0.01200
C 	C 	0.42430 0.75880 0.48810 0.02800
C 	C 	0.41300 0.74750 0.53210 -0.10700
H 	H 	0.41760 0.71690 0.53870 0.05600
C 	C 	0.39560 0.78040 0.56420 0.05800
H 	H 	0.39190 0.77460 0.59550 -0.00600
C 	C 	0.39400 0.83340 0.51080 0.04200
H 	H 	0.38730 0.86330 0.50440 -0.00000
C 	C 	0.41430 0.80250 0.47580 -0.09700
H 	H 	0.42070 0.81070 0.44660 0.05100
N 	N 	0.38310 0.82200 0.55350 -0.15700
N 	N 	0.49360 0.66930 0.39770 -0.13800
O 	O 	0.38980 0.41900 0.32360 -0.55500
O 	O 	0.33610 0.36440 0.22090 -0.54300
O 	O 	0.30740 0.46130 0.10510 -0.58300
O 	O 	0.35670 0.56010 0.14820 -0.55900
O 	O 	0.33030 0.27480 0.26610 -0.91300
H 	H 	0.36150 0.27680 0.26470 0.33600
Tb	Tb	0.91243 0.22912 0.49147 1.81400
C 	C 	0.85810 0.08630 0.45860 0.45800
C 	C 	0.79730 0.03000 0.42530 -0.18000
C 	C 	0.79200 0.97400 0.41800 0.05200
H 	H 	0.82730 0.97170 0.43420 0.01800
C 	C 	0.73760 0.92400 0.38860 -0.03700
C 	C 	0.68660 0.93250 0.35750 0.06400
H 	H 	0.64810 0.89770 0.32980 0.00700
C 	C 	0.69160 0.98410 0.36590 -0.20700
C 	C 	0.74480 0.03370 0.39790 0.10200
H 	H 	0.74810 0.07090 0.40260 -0.00800
C 	C 	0.63840 0.98830 0.33390 0.51700
C 	C 	0.73020 0.86330 0.37790 -0.04000
H 	H 	0.69260 0.83970 0.37630 0.03600
H 	H 	0.76390 0.86900 0.41210 0.03300
C 	C 	0.77740 0.83020 0.32720 0.06900
H 	H 	0.81250 0.85040 0.36510 -0.00700
C 	C 	0.77840 0.80030 0.27530 -0.12100
H 	H 	0.81390 0.80010 0.27800 0.05900
C 	C 	0.72620 0.77030 0.21870 0.06100
C 	C 	0.67800 0.76700 0.22560 -0.13800
H 	H 	0.63980 0.73990 0.19050 0.06200
C 	C 	0.67790 0.79660 0.27490 0.09000
H 	H 	0.64160 0.79290 0.27390 -0.01200
C 	C 	0.72930 0.74120 0.16550 0.02800
C 	C 	0.78460 0.75250 0.16550 -0.10700
H 	H 	0.82180 0.78310 0.20070 0.05600
C 	C 	0.78380 0.71960 0.11520 0.05800
H 	H 	0.82090 0.72540 0.11730 -0.00600
C 	C 	0.67740 0.66660 0.06060 0.04100
H 	H 	0.64110 0.63670 0.02400 -0.00700
C 	C 	0.67330 0.69750 0.11180 -0.09900
H 	H 	0.63590 0.68930 0.11000 0.04900
N 	N 	0.73150 0.67800 0.06110 -0.15900
N 	N 	0.72840 0.83070 0.32430 -0.13800
O 	O 	0.90460 0.08100 0.47080 -0.56500
O 	O 	0.85650 0.13560 0.47170 -0.54400
O 	O 	0.64380 0.03870 0.34610 -0.60300
O 	O 	0.58810 0.93990 0.29660 -0.56300
O 	O 	0.99130 0.22520 0.55550 -0.92400
H 	H 	0.98790 0.22320 0.58470 0.33500
Tb	Tb	0.23766 0.42096 0.00853 1.79200
C 	C 	0.12770 0.39950 0.04140 0.44800
C 	C 	0.10470 0.37200 0.07470 -0.16200
C 	C 	0.05600 0.37400 0.08200 0.01900
H 	H 	0.03750 0.39310 0.06580 0.02400
C 	C 	0.03540 0.34900 0.11140 -0.01800
C 	C 	0.07500 0.32910 0.14250 0.05800
H 	H 	0.06790 0.31830 0.17020 0.00900
C 	C 	0.11820 0.32570 0.13410 -0.22100
C 	C 	0.13580 0.34690 0.10210 0.11700
H 	H 	0.16830 0.34550 0.09740 -0.01300
C 	C 	0.15440 0.30450 0.16610 0.49600
C 	C 	0.98540 0.35230 0.12210 -0.06700
H 	H 	0.96340 0.31630 0.12370 0.03700
H 	H 	0.95690 0.35180 0.08790 0.03300
C 	C 	0.00300 0.45020 0.17280 0.09600
H 	H 	0.98530 0.44740 0.13490 -0.02800
C 	C 	0.02500 0.50310 0.22470 -0.13500
H 	H 	0.02210 0.53590 0.22200 0.06700
C 	C 	0.05160 0.50750 0.28130 0.06900
C 	C 	0.04140 0.45240 0.27440 -0.14300
H 	H 	0.04940 0.44930 0.30950 0.06600
C 	C 	0.02170 0.40300 0.22510 0.09400
H 	H 	0.01900 0.36770 0.22610 -0.01100
C 	C 	0.07570 0.56380 0.33450 0.02600
C 	C 	0.08700 0.61910 0.33450 -0.10400
H 	H 	0.08240 0.62110 0.29930 0.05600
C 	C 	0.10440 0.66860 0.38480 0.05900
H 	H 	0.10810 0.70360 0.38270 -0.00400
C 	C 	0.10600 0.61680 0.43940 0.04300
H 	H 	0.11270 0.61710 0.47600 -0.00000
C 	C 	0.08570 0.56150 0.38820 -0.09500
H 	H 	0.07930 0.52590 0.39000 0.05100
N 	N 	0.11690 0.67040 0.43890 -0.15600
N 	N 	0.00640 0.40410 0.17570 -0.13600
O 	O 	0.11020 0.43380 0.02920 -0.55200
O 	O 	0.16390 0.38480 0.02830 -0.54400
O 	O 	0.19260 0.29770 0.15390 -0.58700
O 	O 	0.14330 0.29150 0.20340 -0.56000
O 	O 	0.16970 0.43580 0.94450 -0.89600
H 	H 	0.13850 0.40320 0.91530 0.33300
Tb	Tb	0.07904 0.31670 0.58757 1.83200
C 	C 	0.10050 0.22820 0.64190 0.45600
C 	C 	0.12800 0.23270 0.70270 -0.16500
C 	C 	0.12600 0.18200 0.70800 0.03000
H 	H 	0.10690 0.14440 0.67270 0.02000
C 	C 	0.15100 0.18640 0.76240 -0.03400
C 	C 	0.17090 0.24590 0.81340 0.06600
H 	H 	0.18170 0.24960 0.85190 0.00700
C 	C 	0.17430 0.29250 0.80840 -0.22400
C 	C 	0.15310 0.28890 0.75520 0.12300
H 	H 	0.15450 0.32280 0.75190 -0.01300
C 	C 	0.19550 0.34990 0.86160 0.49700
C 	C 	0.14770 0.13310 0.76980 -0.04000
H 	H 	0.18370 0.14710 0.80740 0.03500
H 	H 	0.14820 0.10510 0.73610 0.03100
C 	C 	0.04980 0.05280 0.72260 0.10300
H 	H 	0.05260 0.03790 0.68750 -0.02100
C 	C 	0.99690 0.02190 0.72160 -0.18000
H 	H 	0.96410 0.98620 0.68610 0.08700
C 	C 	0.99250 0.04410 0.77380 0.06900
C 	C 	0.04760 0.08900 0.82200 -0.13600
H 	H 	0.05070 0.10010 0.86020 0.06500
C 	C 	0.09700 0.11870 0.82210 0.09100
H 	H 	0.13230 0.15130 0.85840 -0.01100
C 	C 	0.93620 0.01190 0.77070 0.00500
C 	C 	0.88090 0.96790 0.71540 -0.08200
H 	H 	0.87890 0.96130 0.67820 0.05000
C 	C 	0.83140 0.93580 0.71620 0.05100
H 	H 	0.79640 0.90450 0.67910 -0.00200
C 	C 	0.88320 0.98920 0.82260 0.05800
H 	H 	0.88290 0.99560 0.85890 -0.00300
C 	C 	0.93850 0.02420 0.82670 -0.11200
H 	H 	0.97410 0.05340 0.86410 0.04800
N 	N 	0.82960 0.94650 0.76850 -0.15600
N 	N 	0.09590 0.10230 0.77160 -0.14500
O 	O 	0.06620 0.17640 0.59540 -0.55600
O 	O 	0.11520 0.27910 0.64350 -0.54400
O 	O 	0.20230 0.39490 0.85620 -0.58500
O 	O 	0.20850 0.35180 0.91190 -0.55000
O 	O 	0.06420 0.23390 0.50870 -0.91700
H 	H 	0.09680 0.23530 0.51210 0.33600
Tb	Tb	0.27088 0.18330 0.26234 1.82000
C 	C 	0.41370 0.27180 0.37230 0.45400
C 	C 	0.47000 0.26730 0.39530 -0.16500
C 	C 	0.52600 0.31800 0.44400 0.02900
H 	H 	0.52830 0.35560 0.46250 0.02000
C 	C 	0.57600 0.31360 0.46460 -0.03400
C 	C 	0.56750 0.25410 0.42500 0.06600
H 	H 	0.60230 0.25040 0.43210 0.00600
C 	C 	0.51590 0.20750 0.38180 -0.22500
C 	C 	0.46630 0.21110 0.36420 0.12300
H 	H 	0.42910 0.17720 0.33170 -0.01400
C 	C 	0.51170 0.15010 0.34560 0.49700
C 	C 	0.63670 0.36690 0.51460 -0.04300
H 	H 	0.66030 0.35290 0.53660 0.03600
H 	H 	0.63100 0.39490 0.54310 0.03300
C 	C 	0.66980 0.44720 0.49700 0.06900
H 	H 	0.64960 0.46210 0.51470 -0.00800
C 	C 	0.69970 0.47810 0.47500 -0.12100
H 	H 	0.69990 0.51380 0.47790 0.05900
C 	C 	0.72970 0.45590 0.44840 0.06100
C 	C 	0.73300 0.41100 0.45860 -0.13900
H 	H 	0.76010 0.39990 0.45060 0.06200
C 	C 	0.70340 0.38130 0.47830 0.08900
H 	H 	0.70710 0.34870 0.48100 -0.01200
C 	C 	0.75880 0.48810 0.42430 0.02800
C 	C 	0.74750 0.53210 0.41300 -0.10600
H 	H 	0.71690 0.53870 0.41760 0.05600
C 	C 	0.78040 0.56420 0.39560 0.05800
H 	H 	0.77460 0.59550 0.39190 -0.00500
C 	C 	0.83340 0.51080 0.39400 0.04100
H 	H 	0.86330 0.50440 0.38730 -0.00200
C 	C 	0.80250 0.47580 0.41430 -0.09700
H 	H 	0.81070 0.44660 0.42070 0.04900
N 	N 	0.82200 0.55350 0.38310 -0.15700
N 	N 	0.66930 0.39770 0.49360 -0.13800
O 	O 	0.41900 0.32360 0.38980 -0.55500
O 	O 	0.36440 0.22090 0.33610 -0.54300
O 	O 	0.46130 0.10510 0.30740 -0.58300
O 	O 	0.56010 0.14820 0.35670 -0.55900
O 	O 	0.27480 0.26610 0.33030 -0.91300
H 	H 	0.27680 0.26470 0.36150 0.33600
Tb	Tb	0.22912 0.49147 0.91243 1.84200
C 	C 	0.08630 0.45860 0.85810 0.44900
C 	C 	0.03000 0.42530 0.79730 -0.15300
C 	C 	0.97400 0.41800 0.79200 0.00900
H 	H 	0.97170 0.43420 0.82730 0.02300
C 	C 	0.92400 0.38860 0.73760 -0.03100
C 	C 	0.93250 0.35750 0.68660 0.06800
H 	H 	0.89770 0.32980 0.64810 0.00500
C 	C 	0.98410 0.36590 0.69160 -0.24000
C 	C 	0.03370 0.39790 0.74480 0.13800
H 	H 	0.07090 0.40260 0.74810 -0.01700
C 	C 	0.98830 0.33390 0.63840 0.48700
C 	C 	0.86330 0.37790 0.73020 -0.04500
H 	H 	0.83970 0.37630 0.69260 0.03700
H 	H 	0.86900 0.41210 0.76390 0.03300
C 	C 	0.83020 0.32720 0.77740 0.06800
H 	H 	0.85040 0.36510 0.81250 -0.00800
C 	C 	0.80030 0.27530 0.77840 -0.12100
H 	H 	0.80010 0.27800 0.81390 0.06000
C 	C 	0.77030 0.21870 0.72620 0.06000
C 	C 	0.76700 0.22560 0.67800 -0.13800
H 	H 	0.73990 0.19050 0.63980 0.06200
C 	C 	0.79660 0.27490 0.67790 0.08800
H 	H 	0.79290 0.27390 0.64160 -0.01200
C 	C 	0.74120 0.16550 0.72930 0.02800
C 	C 	0.75250 0.16550 0.78460 -0.10700
H 	H 	0.78310 0.20070 0.82180 0.05600
C 	C 	0.71960 0.11520 0.78380 0.05800
H 	H 	0.72540 0.11730 0.82090 -0.00600
C 	C 	0.66660 0.06060 0.67740 0.04100
H 	H 	0.63670 0.02400 0.64110 -0.00700
C 	C 	0.69750 0.11180 0.67330 -0.09900
H 	H 	0.68930 0.11000 0.63590 0.04900
N 	N 	0.67800 0.06110 0.73150 -0.15900
N 	N 	0.83070 0.32430 0.72840 -0.13800
O 	O 	0.08100 0.47080 0.90460 -0.54100
O 	O 	0.13560 0.47170 0.85650 -0.54300
O 	O 	0.03870 0.34610 0.64380 -0.57500
O 	O 	0.93990 0.29660 0.58810 -0.55900
O 	O 	0.22520 0.55550 0.99130 -0.89800
H 	H 	0.22320 0.58470 0.98790 0.33600
Tb	Tb	0.42096 0.00853 0.23766 1.79100
C 	C 	0.39950 0.04140 0.12770 0.45300
C 	C 	0.37200 0.07470 0.10470 -0.18100
C 	C 	0.37400 0.08200 0.05600 0.04800
H 	H 	0.39310 0.06580 0.03750 0.00500
C 	C 	0.34900 0.11140 0.03540 -0.07500
C 	C 	0.32910 0.14250 0.07500 0.08400
H 	H 	0.31830 0.17020 0.06790 -0.00400
C 	C 	0.32570 0.13410 0.11820 -0.24200
C 	C 	0.34690 0.10210 0.13580 0.13400
H 	H 	0.34550 0.09740 0.16830 -0.01900
C 	C 	0.30450 0.16610 0.15440 0.50300
C 	C 	0.35230 0.12210 0.98540 0.01000
H 	H 	0.31630 0.12370 0.96340 0.02600
H 	H 	0.35180 0.08790 0.95690 0.02000
C 	C 	0.45020 0.17280 0.00300 0.02700
H 	H 	0.44740 0.13490 0.98530 0.01900
C 	C 	0.50310 0.22470 0.02500 -0.10200
H 	H 	0.53590 0.22200 0.02210 0.04700
C 	C 	0.50750 0.28130 0.05160 0.05000
C 	C 	0.45240 0.27440 0.04140 -0.13400
H 	H 	0.44930 0.30950 0.04940 0.05800
C 	C 	0.40300 0.22510 0.02170 0.08400
H 	H 	0.36770 0.22610 0.01900 -0.01600
C 	C 	0.56380 0.33450 0.07570 0.03000
C 	C 	0.61910 0.33450 0.08700 -0.11100
H 	H 	0.62110 0.29930 0.08240 0.05500
C 	C 	0.66860 0.38480 0.10440 0.05700
H 	H 	0.70360 0.38270 0.10810 -0.00700
C 	C 	0.61680 0.43940 0.10600 0.04000
H 	H 	0.61710 0.47600 0.11270 -0.00200
C 	C 	0.56150 0.38820 0.08570 -0.10100
H 	H 	0.52590 0.39000 0.07930 0.04900
N 	N 	0.67040 0.43890 0.11690 -0.15800
N 	N 	0.40410 0.17570 0.00640 -0.14500
O 	O 	0.43380 0.02920 0.11020 -0.55700
O 	O 	0.38480 0.02830 0.16390 -0.54500
O 	O 	0.29770 0.15390 0.19260 -0.58900
O 	O 	0.29150 0.20340 0.14330 -0.56400
O 	O 	0.43580 0.94450 0.16970 -0.89500
H 	H 	0.40320 0.91530 0.13850 0.33200
Tb	Tb	0.31670 0.58757 0.07904 1.81400
C 	C 	0.22820 0.64190 0.10050 0.45000
C 	C 	0.23270 0.70270 0.12800 -0.16500
C 	C 	0.18200 0.70800 0.12600 0.02500
H 	H 	0.14440 0.67270 0.10690 0.02000
C 	C 	0.18640 0.76240 0.15100 -0.03100
C 	C 	0.24590 0.81340 0.17090 0.06300
H 	H 	0.24960 0.85190 0.18170 0.00800
C 	C 	0.29250 0.80840 0.17430 -0.22200
C 	C 	0.28890 0.75520 0.15310 0.12000
H 	H 	0.32280 0.75190 0.15450 -0.01300
C 	C 	0.34990 0.86160 0.19550 0.49600
C 	C 	0.13310 0.76980 0.14770 -0.04800
H 	H 	0.14710 0.80740 0.18370 0.04000
H 	H 	0.10510 0.73610 0.14820 0.03600
C 	C 	0.05280 0.72260 0.04980 0.02400
H 	H 	0.03790 0.68750 0.05260 0.00600
C 	C 	0.02190 0.72160 0.99690 -0.05300
H 	H 	0.98620 0.68610 0.96410 0.03000
C 	C 	0.04410 0.77380 0.99250 0.05900
C 	C 	0.08900 0.82200 0.04760 -0.15200
H 	H 	0.10010 0.86020 0.05070 0.06500
C 	C 	0.11870 0.82210 0.09700 0.09000
H 	H 	0.15130 0.85840 0.13230 -0.01100
C 	C 	0.01190 0.77070 0.93620 0.04900
C 	C 	0.96790 0.71540 0.88090 -0.13100
H 	H 	0.96130 0.67820 0.87890 0.06100
C 	C 	0.93580 0.71620 0.83140 0.06600
H 	H 	0.90450 0.67910 0.79640 -0.00900
C 	C 	0.98920 0.82260 0.88320 0.02300
H 	H 	0.99560 0.85890 0.88290 0.00100
C 	C 	0.02420 0.82670 0.93850 -0.08100
H 	H 	0.05340 0.86410 0.97410 0.05500
N 	N 	0.94650 0.76850 0.82960 -0.15800
N 	N 	0.10230 0.77160 0.09590 -0.13000
O 	O 	0.17640 0.59540 0.06620 -0.55300
O 	O 	0.27910 0.64350 0.11520 -0.54300
O 	O 	0.39490 0.85620 0.20230 -0.58500
O 	O 	0.35180 0.91190 0.20850 -0.54900
O 	O 	0.23390 0.50870 0.06420 -0.90900
H 	H 	0.23530 0.51210 0.09680 0.33500
Tb	Tb	0.18330 0.26234 0.27088 1.82500
C 	C 	0.27180 0.37230 0.41370 0.45400
C 	C 	0.26730 0.39530 0.47000 -0.16500
C 	C 	0.31800 0.44400 0.52600 0.02900
H 	H 	0.35560 0.46250 0.52830 0.02000
C 	C 	0.31360 0.46460 0.57600 -0.03400
C 	C 	0.25410 0.42500 0.56750 0.06700
H 	H 	0.25040 0.43210 0.60230 0.00500
C 	C 	0.20750 0.38180 0.51590 -0.22600
C 	C 	0.21110 0.36420 0.46630 0.12300
H 	H 	0.17720 0.33170 0.42910 -0.01300
C 	C 	0.15010 0.34560 0.51170 0.50000
C 	C 	0.36690 0.51460 0.63670 -0.04300
H 	H 	0.35290 0.53660 0.66030 0.03600
H 	H 	0.39490 0.54310 0.63100 0.03300
C 	C 	0.44720 0.49700 0.66980 0.06900
H 	H 	0.46210 0.51470 0.64960 -0.00800
C 	C 	0.47810 0.47500 0.69970 -0.12100
H 	H 	0.51380 0.47790 0.69990 0.05900
C 	C 	0.45590 0.44840 0.72970 0.06100
C 	C 	0.41100 0.45860 0.73300 -0.13900
H 	H 	0.39990 0.45060 0.76010 0.06300
C 	C 	0.38130 0.47830 0.70340 0.08900
H 	H 	0.34870 0.48100 0.70710 -0.01200
C 	C 	0.48810 0.42430 0.75880 0.02800
C 	C 	0.53210 0.41300 0.74750 -0.10700
H 	H 	0.53870 0.41760 0.71690 0.05600
C 	C 	0.56420 0.39560 0.78040 0.05800
H 	H 	0.59550 0.39190 0.77460 -0.00600
C 	C 	0.51080 0.39400 0.83340 0.04200
H 	H 	0.50440 0.38730 0.86330 -0.00000
C 	C 	0.47580 0.41430 0.80250 -0.09700
H 	H 	0.44660 0.42070 0.81070 0.05100
N 	N 	0.55350 0.38310 0.82200 -0.15700
N 	N 	0.39770 0.49360 0.66930 -0.13800
O 	O 	0.32360 0.38980 0.41900 -0.55500
O 	O 	0.22090 0.33610 0.36440 -0.54300
O 	O 	0.10510 0.30740 0.46130 -0.58800
O 	O 	0.14820 0.35670 0.56010 -0.56200
O 	O 	0.26610 0.33030 0.27480 -0.91300
H 	H 	0.26470 0.36150 0.27680 0.33600
Tb	Tb	0.49147 0.91243 0.22912 1.84200
C 	C 	0.45860 0.85810 0.08630 0.45400
C 	C 	0.42530 0.79730 0.03000 -0.17800
C 	C 	0.41800 0.79200 0.97400 0.05000
H 	H 	0.43420 0.82730 0.97170 0.02000
C 	C 	0.38860 0.73760 0.92400 -0.03500
C 	C 	0.35750 0.68660 0.93250 0.06300
H 	H 	0.32980 0.64810 0.89770 0.00700
C 	C 	0.36590 0.69160 0.98410 -0.20500
C 	C 	0.39790 0.74480 0.03370 0.10000
H 	H 	0.40260 0.74810 0.07090 -0.00800
C 	C 	0.33390 0.63840 0.98830 0.51600
C 	C 	0.37790 0.73020 0.86330 -0.04100
H 	H 	0.37630 0.69260 0.83970 0.03600
H 	H 	0.41210 0.76390 0.86900 0.03400
C 	C 	0.32720 0.77740 0.83020 0.07000
H 	H 	0.36510 0.81250 0.85040 -0.00500
C 	C 	0.27530 0.77840 0.80030 -0.12100
H 	H 	0.27800 0.81390 0.80010 0.06100
C 	C 	0.21870 0.72620 0.77030 0.06200
C 	C 	0.22560 0.67800 0.76700 -0.13900
H 	H 	0.19050 0.63980 0.73990 0.06300
C 	C 	0.27490 0.67790 0.79660 0.09000
H 	H 	0.27390 0.64160 0.79290 -0.01200
C 	C 	0.16550 0.72930 0.74120 0.02900
C 	C 	0.16550 0.78460 0.75250 -0.10600
H 	H 	0.20070 0.82180 0.78310 0.05700
C 	C 	0.11520 0.78380 0.71960 0.05900
H 	H 	0.11730 0.82090 0.72540 -0.00400
C 	C 	0.06060 0.67740 0.66660 0.04200
H 	H 	0.02400 0.64110 0.63670 0.00300
C 	C 	0.11180 0.67330 0.69750 -0.09600
H 	H 	0.11000 0.63590 0.68930 0.05100
N 	N 	0.06110 0.73150 0.67800 -0.15500
N 	N 	0.32430 0.72840 0.83070 -0.13800
O 	O 	0.47080 0.90460 0.08100 -0.54700
O 	O 	0.47170 0.85650 0.13560 -0.54500
O 	O 	0.34610 0.64380 0.03870 -0.60300
O 	O 	0.29660 0.58810 0.93990 -0.56300
O 	O 	0.55550 0.99130 0.22520 -0.89700
H 	H 	0.58470 0.98790 0.22320 0.33600
Tb	Tb	0.00853 0.23766 0.42096 1.84500
C 	C 	0.04140 0.12770 0.39950 0.45900
C 	C 	0.07470 0.10470 0.37200 -0.17600
C 	C 	0.08200 0.05600 0.37400 0.04800
H 	H 	0.06580 0.03750 0.39310 0.01000
C 	C 	0.11140 0.03540 0.34900 -0.06800
C 	C 	0.14250 0.07500 0.32910 0.08400
H 	H 	0.17020 0.06790 0.31830 -0.00300
C 	C 	0.13410 0.11820 0.32570 -0.23800
C 	C 	0.10210 0.13580 0.34690 0.13400
H 	H 	0.09740 0.16830 0.34550 -0.01600
C 	C 	0.16610 0.15440 0.30450 0.50300
C 	C 	0.12210 0.98540 0.35230 0.00500
H 	H 	0.12370 0.96340 0.31630 0.03200
H 	H 	0.08790 0.95690 0.35180 0.02800
C 	C 	0.17280 0.00300 0.45020 0.02300
H 	H 	0.13490 0.98530 0.44740 0.02400
C 	C 	0.22470 0.02500 0.50310 -0.10000
H 	H 	0.22200 0.02210 0.53590 0.04700
C 	C 	0.28130 0.05160 0.50750 0.04800
C 	C 	0.27440 0.04140 0.45240 -0.13200
H 	H 	0.30950 0.04940 0.44930 0.05800
C 	C 	0.22510 0.02170 0.40300 0.08300
H 	H 	0.22610 0.01900 0.36770 -0.01600
C 	C 	0.33450 0.07570 0.56380 0.03100
C 	C 	0.33450 0.08700 0.61910 -0.11100
H 	H 	0.29930 0.08240 0.62110 0.05500
C 	C 	0.38480 0.10440 0.66860 0.05700
H 	H 	0.38270 0.10810 0.70360 -0.00800
C 	C 	0.43940 0.10600 0.61680 0.04000
H 	H 	0.47600 0.11270 0.61710 -0.00200
C 	C 	0.38820 0.08570 0.56150 -0.10100
H 	H 	0.39000 0.07930 0.52590 0.04900
N 	N 	0.43890 0.11690 0.67040 -0.15800
N 	N 	0.17570 0.00640 0.40410 -0.14300
O 	O 	0.02920 0.11020 0.43380 -0.55800
O 	O 	0.02830 0.16390 0.38480 -0.54400
O 	O 	0.15390 0.19260 0.29770 -0.58800
O 	O 	0.20340 0.14330 0.29150 -0.56300
O 	O 	0.94450 0.16970 0.43580 -0.92500
H 	H 	0.91530 0.13850 0.40320 0.33700
Tb	Tb	0.50000 0.00000 0.14812 1.93300
O 	O 	0.50000 0.00000 0.29260 -0.83400
H 	H 	0.50000 0.00000 0.32920 0.12200
Tb	Tb	0.35188 0.35188 0.35188 1.98400
O 	O 	0.20740 0.20740 0.20740 -0.82700
H 	H 	0.17080 0.17080 0.17080 0.12200
Tb	Tb	0.00000 0.14812 0.50000 2.01000
O 	O 	-0.00000 0.29260 0.50000 -0.82400
H 	H 	-0.00000 0.32920 0.50000 0.12800
Tb	Tb	0.14812 0.50000 -0.00000 1.93800
O 	O 	0.29260 0.50000 -0.00000 -0.83400
H 	H 	0.32920 0.50000 -0.00000 0.12200
