data_crystal

_cell_length_a 34.47890
_cell_length_b 29.89730
_cell_length_c 16.20750
_cell_angle_alpha 90.00000
_cell_angle_beta  109.00500
_cell_angle_gamma 90.00000

_symmetry_space_group_name_	'P 1'
_symmetry_space_group_name_H-M	'P 1'

loop_
_symmetry_equiv_pos_as_xyz
  x,y,z

loop_
_atom_site_label
_atom_site_type_symbol
_atom_site_fract_x
_atom_site_fract_y
_atom_site_fract_z
_atom_site_charge
Zn	Zn	0.11971 0.29034 0.01162 1.18400
Zn	Zn	0.12226 0.28978 0.22844 1.18500
N 	N 	0.99732 0.29237 0.13579 -0.13800
N 	N 	0.34954 0.10793 0.19741 -0.15200
N 	N 	0.35196 0.84943 0.23974 -0.28900
N 	N 	0.85608 0.64878 0.96665 -0.28600
N 	N 	0.85397 0.38885 0.96314 -0.15200
N 	N 	0.56020 0.21332 0.44883 -0.29400
N 	N 	0.15563 0.24821 0.97005 -0.27300
N 	N 	0.33676 0.92038 0.21147 -0.13800
N 	N 	0.84272 0.57686 0.94841 -0.13900
N 	N 	0.49582 0.19930 0.37558 -0.14000
O 	O 	0.13397 0.26585 0.12834 -0.74600
H 	H 	0.14840 0.23900 0.13740 0.20900
N 	N 	0.65329 0.25226 0.82224 -0.28000
C 	C 	0.38666 0.13009 0.24046 0.07400
C 	C 	0.41512 0.11177 0.31476 -0.07200
H 	H 	0.40980 0.08410 0.33500 0.05900
C 	C 	0.30949 0.99481 0.21845 -0.07300
H 	H 	0.28660 0.98190 0.22710 0.05600
C 	C 	0.34691 0.06053 0.20205 0.08700
N 	N 	0.20854 0.20280 0.99846 -0.13300
C 	C 	0.88295 0.50854 0.95926 -0.07300
H 	H 	0.90540 0.52560 0.95840 0.05300
C 	C 	0.81602 0.45787 0.96281 -0.08000
H 	H 	0.79370 0.44110 0.96530 0.06300
C 	C 	0.37507 0.98690 0.19596 -0.07300
H 	H 	0.39590 0.96880 0.18960 0.05400
C 	C 	0.53351 0.18191 0.41050 0.09800
H 	H 	0.54000 0.15180 0.40800 -0.02800
C 	C 	0.31277 0.04073 0.21509 -0.07800
H 	H 	0.29190 0.05870 0.22160 0.05900
C 	C 	0.31383 0.13203 0.14815 0.08400
C 	C 	0.80950 0.59901 0.89274 0.01200
H 	H 	0.78590 0.58610 0.85450 0.02500
C 	C 	0.89020 0.36514 0.00782 0.08900
C 	C 	0.45119 0.13401 0.35911 -0.08300
H 	H 	0.46990 0.12140 0.40870 0.05900
C 	C 	0.39596 0.17170 0.21035 -0.06300
H 	H 	0.37770 0.18430 0.16020 0.01300
C 	C 	0.30995 0.85339 0.20057 -0.01000
H 	H 	0.29130 0.82980 0.18870 0.00600
C 	C 	0.30020 0.89690 0.18226 0.00400
H 	H 	0.27420 0.90870 0.15540 0.02700
C 	C 	0.84697 0.52934 0.95663 0.08300
C 	C 	0.85220 0.43594 0.96370 0.09000
C 	C 	0.30521 0.17441 0.17413 -0.08900
H 	H 	0.32250 0.18690 0.22550 0.06300
C 	C 	0.68756 0.27054 0.81836 0.08300
H 	H 	0.69810 0.26650 0.77290 -0.03100
C 	C 	0.81773 0.64304 0.90431 -0.01900
H 	H 	0.80050 0.66600 0.87520 0.00800
C 	C 	0.36695 0.89063 0.24508 0.10000
H 	H 	0.39460 0.89790 0.26880 -0.03000
N 	N 	0.06265 0.28127 0.20259 -0.28900
C 	C 	0.25193 0.13612 0.02347 -0.07300
H 	H 	0.23370 0.12300 0.97390 0.05300
C 	C 	0.87023 0.60801 0.99205 0.09500
H 	H 	0.89540 0.60180 0.03380 -0.02300
C 	C 	0.89573 0.32231 0.97945 -0.08600
H 	H 	0.87580 0.31000 0.93150 0.06400
C 	C 	0.81312 0.50395 0.95826 -0.07000
H 	H 	0.78880 0.51800 0.95630 0.05500
C 	C 	0.27088 0.19805 0.12364 -0.07200
H 	H 	0.26570 0.22660 0.14010 0.05600
C 	C 	0.34078 0.96796 0.20870 0.08400
C 	C 	0.96024 0.31619 0.09305 0.07500
C 	C 	0.37815 0.03329 0.19274 -0.08000
H 	H 	0.40110 0.04620 0.18440 0.06000
C 	C 	0.18922 0.23370 0.03104 0.08000
H 	H 	0.19820 0.24360 0.08860 -0.03000
C 	C 	0.24448 0.17868 0.04865 0.07500
N 	N 	0.70507 0.29585 0.88931 -0.13600
C 	C 	0.74316 0.31908 0.90704 0.08400
C 	C 	0.91992 0.38277 0.08085 -0.09400
H 	H 	0.91620 0.41090 0.10140 0.06000
C 	C 	0.88588 0.46244 0.96309 -0.08000
H 	H 	0.91040 0.44870 0.96530 0.05800
C 	C 	0.03417 0.31157 0.16973 0.09200
H 	H 	0.03900 0.34220 0.17000 -0.03500
C 	C 	0.45912 0.17519 0.32889 0.09300
C 	C 	0.95477 0.35868 0.12276 -0.07800
H 	H 	0.97470 0.37080 0.17100 0.05100
C 	C 	0.28675 0.11323 0.07263 -0.08500
H 	H 	0.29210 0.08500 0.05500 0.06600
C 	C 	0.81654 0.36413 0.94252 0.08200
C 	C 	0.18602 0.19696 0.91118 -0.01300
H 	H 	0.19180 0.17770 0.87180 0.02900
C 	C 	0.43194 0.19396 0.25464 -0.09800
H 	H 	0.43780 0.22140 0.23450 0.05700
C 	C 	0.93065 0.29785 0.02200 -0.07600
H 	H 	0.93410 0.26930 0.00280 0.05600
C 	C 	0.80925 0.33776 0.00530 -0.07200
H 	H 	0.82920 0.33520 0.05990 0.04700
C 	C 	0.15346 0.22547 0.89521 0.01200
H 	H 	0.13290 0.22890 0.84170 0.00600
C 	C 	0.78727 0.36704 0.86045 -0.08000
H 	H 	0.79260 0.38400 0.81720 0.06300
C 	C 	0.04318 0.24069 0.18920 -0.00300
H 	H 	0.05570 0.21310 0.20620 0.00200
C 	C 	0.75023 0.34495 0.84251 -0.07800
H 	H 	0.73030 0.34740 0.78790 0.05600
C 	C 	0.64895 0.26640 0.89970 0.00500
H 	H 	0.62750 0.25870 0.91980 0.01000
C 	C 	0.68073 0.29316 0.94174 -0.00600
H 	H 	0.68530 0.30700 0.99540 0.03000
C 	C 	0.77233 0.31477 0.98799 -0.08500
H 	H 	0.76750 0.29680 0.03050 0.06200
C 	C 	0.53869 0.25255 0.43790 -0.00700
H 	H 	0.54960 0.28030 0.45900 -0.00200
C 	C 	0.00267 0.24719 0.14700 -0.00000
H 	H 	0.98250 0.22530 0.12930 0.02500
C 	C 	0.49902 0.24433 0.39150 0.00100
H 	H 	0.47800 0.26520 0.37380 0.02500
Zn	Zn	0.38029 0.79034 0.48838 1.18500
Zn	Zn	0.37774 0.78978 0.27156 1.18600
N 	N 	0.50268 0.79237 0.36421 -0.13700
N 	N 	0.15046 0.60793 0.30259 -0.15100
N 	N 	0.14804 0.34943 0.26026 -0.28800
N 	N 	0.64392 0.14878 0.53335 -0.28500
N 	N 	0.64603 0.88885 0.53686 -0.15100
N 	N 	0.93980 0.71332 0.05117 -0.29300
N 	N 	0.34437 0.74821 0.52995 -0.27200
N 	N 	0.16324 0.42038 0.28853 -0.13700
N 	N 	0.65728 0.07686 0.55159 -0.13800
N 	N 	0.00418 0.69930 0.12442 -0.13900
O 	O 	0.36603 0.76585 0.37166 -0.74500
H 	H 	0.35160 0.73900 0.36260 0.21000
N 	N 	0.84671 0.75226 0.67776 -0.27900
C 	C 	0.11334 0.63009 0.25954 0.07500
C 	C 	0.08488 0.61177 0.18524 -0.07100
H 	H 	0.09020 0.58410 0.16500 0.06000
C 	C 	0.19051 0.49481 0.28155 -0.07200
H 	H 	0.21340 0.48190 0.27290 0.05700
C 	C 	0.15309 0.56053 0.29795 0.08700
N 	N 	0.29146 0.70280 0.50154 -0.13300
C 	C 	0.61705 0.00854 0.54074 -0.07300
H 	H 	0.59460 0.02560 0.54160 0.05300
C 	C 	0.68398 0.95787 0.53719 -0.08000
H 	H 	0.70630 0.94110 0.53470 0.06300
C 	C 	0.12493 0.48690 0.30404 -0.07200
H 	H 	0.10410 0.46880 0.31040 0.05400
C 	C 	0.96649 0.68191 0.08950 0.09900
H 	H 	0.96000 0.65180 0.09200 -0.02800
C 	C 	0.18723 0.54073 0.28491 -0.07800
H 	H 	0.20810 0.55870 0.27840 0.05900
C 	C 	0.18617 0.63203 0.35185 0.08400
C 	C 	0.69050 0.09901 0.60726 0.01200
H 	H 	0.71410 0.08610 0.64550 0.02500
C 	C 	0.60980 0.86514 0.49218 0.08800
C 	C 	0.04881 0.63401 0.14089 -0.08300
H 	H 	0.03010 0.62140 0.09130 0.05900
C 	C 	0.10404 0.67170 0.28965 -0.06300
H 	H 	0.12230 0.68430 0.33980 0.01300
C 	C 	0.19005 0.35339 0.29943 -0.01000
H 	H 	0.20870 0.32980 0.31130 0.00600
C 	C 	0.19980 0.39690 0.31774 0.00400
H 	H 	0.22580 0.40870 0.34460 0.02700
C 	C 	0.65303 0.02934 0.54337 0.08300
C 	C 	0.64780 0.93594 0.53630 0.09000
C 	C 	0.19479 0.67441 0.32587 -0.08900
H 	H 	0.17750 0.68690 0.27450 0.06300
C 	C 	0.81244 0.77054 0.68164 0.08300
H 	H 	0.80190 0.76650 0.72710 -0.03100
C 	C 	0.68227 0.14304 0.59569 -0.01900
H 	H 	0.69950 0.16600 0.62480 0.00800
C 	C 	0.13305 0.39063 0.25492 0.10000
H 	H 	0.10540 0.39790 0.23120 -0.03000
N 	N 	0.43735 0.78127 0.29741 -0.28900
C 	C 	0.24807 0.63612 0.47653 -0.07300
H 	H 	0.26630 0.62300 0.52610 0.05400
C 	C 	0.62977 0.10801 0.50795 0.09500
H 	H 	0.60460 0.10180 0.46620 -0.02300
C 	C 	0.60427 0.82231 0.52055 -0.08600
H 	H 	0.62420 0.81000 0.56850 0.06400
C 	C 	0.68688 0.00395 0.54174 -0.07000
H 	H 	0.71120 0.01800 0.54370 0.05500
C 	C 	0.22912 0.69805 0.37636 -0.07200
H 	H 	0.23430 0.72660 0.35990 0.05600
C 	C 	0.15922 0.46796 0.29130 0.08400
C 	C 	0.53976 0.81619 0.40695 0.07500
C 	C 	0.12185 0.53329 0.30726 -0.08000
H 	H 	0.09890 0.54620 0.31560 0.06000
C 	C 	0.31078 0.73370 0.46896 0.08000
H 	H 	0.30180 0.74360 0.41140 -0.03000
C 	C 	0.25552 0.67868 0.45135 0.07500
N 	N 	0.79493 0.79585 0.61069 -0.13600
C 	C 	0.75684 0.81908 0.59296 0.08400
C 	C 	0.58008 0.88277 0.41915 -0.09400
H 	H 	0.58380 0.91090 0.39860 0.06000
C 	C 	0.61412 0.96244 0.53691 -0.08000
H 	H 	0.58960 0.94870 0.53470 0.05800
C 	C 	0.46583 0.81157 0.33027 0.09200
H 	H 	0.46100 0.84220 0.33000 -0.03500
C 	C 	0.04088 0.67519 0.17111 0.09300
C 	C 	0.54523 0.85868 0.37724 -0.07800
H 	H 	0.52530 0.87080 0.32900 0.05100
C 	C 	0.21325 0.61323 0.42737 -0.08500
H 	H 	0.20790 0.58500 0.44500 0.06600
C 	C 	0.68346 0.86413 0.55748 0.08300
C 	C 	0.31398 0.69696 0.58882 -0.01300
H 	H 	0.30820 0.67770 0.62820 0.02900
C 	C 	0.06806 0.69396 0.24536 -0.09800
H 	H 	0.06220 0.72140 0.26550 0.05700
C 	C 	0.56935 0.79785 0.47800 -0.07700
H 	H 	0.56590 0.76930 0.49720 0.05600
C 	C 	0.69075 0.83776 0.49470 -0.07300
H 	H 	0.67080 0.83520 0.44010 0.04700
C 	C 	0.34654 0.72547 0.60479 0.01200
H 	H 	0.36710 0.72890 0.65830 0.00600
C 	C 	0.71273 0.86704 0.63955 -0.08100
H 	H 	0.70740 0.88400 0.68280 0.06300
C 	C 	0.45682 0.74069 0.31080 -0.00300
H 	H 	0.44430 0.71310 0.29380 0.00300
C 	C 	0.74977 0.84495 0.65749 -0.07800
H 	H 	0.76970 0.84740 0.71210 0.05600
C 	C 	0.85105 0.76640 0.60030 0.00500
H 	H 	0.87250 0.75870 0.58020 0.01000
C 	C 	0.81927 0.79316 0.55826 -0.00600
H 	H 	0.81470 0.80700 0.50460 0.03000
C 	C 	0.72767 0.81477 0.51201 -0.08400
H 	H 	0.73250 0.79680 0.46950 0.06100
C 	C 	0.96131 0.75255 0.06210 -0.00600
H 	H 	0.95040 0.78030 0.04100 -0.00200
C 	C 	0.49733 0.74719 0.35300 0.00000
H 	H 	0.51750 0.72530 0.37070 0.02400
C 	C 	0.00098 0.74433 0.10850 0.00100
H 	H 	0.02200 0.76520 0.12620 0.02500
Zn	Zn	0.88029 0.70966 0.98838 1.18500
Zn	Zn	0.87774 0.71022 0.77156 1.18600
N 	N 	0.00268 0.70763 0.86421 -0.13700
N 	N 	0.65046 0.89207 0.80259 -0.15100
N 	N 	0.64804 0.15057 0.76026 -0.28800
N 	N 	0.14392 0.35122 0.03335 -0.28500
N 	N 	0.14603 0.61115 0.03686 -0.15100
N 	N 	0.43980 0.78668 0.55117 -0.29300
N 	N 	0.84437 0.75179 0.02995 -0.27200
N 	N 	0.66324 0.07962 0.78853 -0.13700
N 	N 	0.15728 0.42314 0.05159 -0.13800
N 	N 	0.50418 0.80070 0.62442 -0.13900
O 	O 	0.86603 0.73415 0.87166 -0.74500
H 	H 	0.85160 0.76100 0.86260 0.21000
N 	N 	0.34671 0.74774 0.17776 -0.27900
C 	C 	0.61334 0.86991 0.75954 0.07500
C 	C 	0.58488 0.88823 0.68524 -0.07100
H 	H 	0.59020 0.91590 0.66500 0.06000
C 	C 	0.69051 0.00519 0.78155 -0.07200
H 	H 	0.71340 0.01810 0.77290 0.05700
C 	C 	0.65309 0.93947 0.79795 0.08700
N 	N 	0.79146 0.79720 0.00154 -0.13300
C 	C 	0.11705 0.49146 0.04074 -0.07300
H 	H 	0.09460 0.47440 0.04160 0.05300
C 	C 	0.18398 0.54213 0.03719 -0.08000
H 	H 	0.20630 0.55890 0.03470 0.06300
C 	C 	0.62493 0.01310 0.80404 -0.07300
H 	H 	0.60410 0.03120 0.81040 0.05400
C 	C 	0.46649 0.81809 0.58950 0.09800
H 	H 	0.46000 0.84820 0.59200 -0.02800
C 	C 	0.68723 0.95927 0.78491 -0.07800
H 	H 	0.70810 0.94130 0.77840 0.05900
C 	C 	0.68617 0.86797 0.85185 0.08400
C 	C 	0.19050 0.40099 0.10726 0.01200
H 	H 	0.21410 0.41390 0.14550 0.02500
C 	C 	0.10980 0.63486 0.99218 0.08900
C 	C 	0.54881 0.86599 0.64089 -0.08300
H 	H 	0.53010 0.87860 0.59130 0.05900
C 	C 	0.60404 0.82830 0.78965 -0.06300
H 	H 	0.62230 0.81570 0.83980 0.01300
C 	C 	0.69005 0.14661 0.79943 -0.01000
H 	H 	0.70870 0.17020 0.81130 0.00600
C 	C 	0.69980 0.10310 0.81774 0.00400
H 	H 	0.72580 0.09130 0.84460 0.02700
C 	C 	0.15303 0.47066 0.04337 0.08300
C 	C 	0.14780 0.56406 0.03630 0.09000
C 	C 	0.69479 0.82559 0.82587 -0.08900
H 	H 	0.67750 0.81310 0.77450 0.06300
C 	C 	0.31244 0.72946 0.18164 0.08300
H 	H 	0.30190 0.73350 0.22710 -0.03100
C 	C 	0.18227 0.35696 0.09569 -0.01900
H 	H 	0.19950 0.33400 0.12480 0.00800
C 	C 	0.63305 0.10937 0.75492 0.10000
H 	H 	0.60540 0.10210 0.73120 -0.03000
N 	N 	0.93735 0.71873 0.79741 -0.28900
C 	C 	0.74807 0.86388 0.97653 -0.07300
H 	H 	0.76630 0.87700 0.02610 0.05300
C 	C 	0.12977 0.39199 0.00795 0.09500
H 	H 	0.10460 0.39820 0.96620 -0.02300
C 	C 	0.10427 0.67769 0.02055 -0.08600
H 	H 	0.12420 0.69000 0.06850 0.06400
C 	C 	0.18688 0.49605 0.04174 -0.07000
H 	H 	0.21120 0.48200 0.04370 0.05500
C 	C 	0.72912 0.80195 0.87636 -0.07200
H 	H 	0.73430 0.77340 0.85990 0.05600
C 	C 	0.65922 0.03204 0.79130 0.08400
C 	C 	0.03976 0.68381 0.90695 0.07500
C 	C 	0.62185 0.96671 0.80726 -0.08000
H 	H 	0.59890 0.95380 0.81560 0.06000
C 	C 	0.81078 0.76630 0.96896 0.08000
H 	H 	0.80180 0.75640 0.91140 -0.03000
C 	C 	0.75552 0.82132 0.95135 0.07500
N 	N 	0.29493 0.70415 0.11069 -0.13600
C 	C 	0.25684 0.68092 0.09296 0.08400
C 	C 	0.08008 0.61723 0.91915 -0.09400
H 	H 	0.08380 0.58910 0.89860 0.06000
C 	C 	0.11412 0.53756 0.03691 -0.08000
H 	H 	0.08960 0.55130 0.03470 0.05800
C 	C 	0.96583 0.68843 0.83027 0.09200
H 	H 	0.96100 0.65780 0.83000 -0.03500
C 	C 	0.54088 0.82481 0.67111 0.09300
C 	C 	0.04523 0.64132 0.87724 -0.07800
H 	H 	0.02530 0.62920 0.82900 0.05100
C 	C 	0.71325 0.88677 0.92737 -0.08500
H 	H 	0.70790 0.91500 0.94500 0.06600
C 	C 	0.18346 0.63587 0.05748 0.08200
C 	C 	0.81398 0.80304 0.08882 -0.01300
H 	H 	0.80820 0.82230 0.12820 0.02900
C 	C 	0.56806 0.80604 0.74536 -0.09800
H 	H 	0.56220 0.77860 0.76550 0.05700
C 	C 	0.06935 0.70215 0.97800 -0.07600
H 	H 	0.06590 0.73070 0.99720 0.05600
C 	C 	0.19075 0.66224 0.99470 -0.07200
H 	H 	0.17080 0.66480 0.94010 0.04700
C 	C 	0.84654 0.77453 0.10479 0.01200
H 	H 	0.86710 0.77110 0.15830 0.00600
C 	C 	0.21273 0.63296 0.13955 -0.08000
H 	H 	0.20740 0.61600 0.18280 0.06300
C 	C 	0.95682 0.75931 0.81080 -0.00300
H 	H 	0.94430 0.78690 0.79380 0.00200
C 	C 	0.24977 0.65505 0.15749 -0.07800
H 	H 	0.26970 0.65260 0.21210 0.05600
C 	C 	0.35105 0.73360 0.10030 0.00500
H 	H 	0.37250 0.74130 0.08020 0.01000
C 	C 	0.31927 0.70684 0.05826 -0.00600
H 	H 	0.31470 0.69300 0.00460 0.03000
C 	C 	0.22767 0.68523 0.01201 -0.08500
H 	H 	0.23250 0.70320 0.96950 0.06200
C 	C 	0.46131 0.74745 0.56210 -0.00700
H 	H 	0.45040 0.71970 0.54100 -0.00200
C 	C 	0.99733 0.75281 0.85300 -0.00000
H 	H 	0.01750 0.77470 0.87070 0.02500
C 	C 	0.50098 0.75567 0.60850 0.00100
H 	H 	0.52200 0.73480 0.62620 0.02500
Zn	Zn	0.61971 0.20966 0.51162 1.18500
Zn	Zn	0.62226 0.21022 0.72844 1.18600
N 	N 	0.49732 0.20763 0.63579 -0.13700
N 	N 	0.84954 0.39207 0.69741 -0.15100
N 	N 	0.85196 0.65057 0.73974 -0.28800
N 	N 	0.35608 0.85122 0.46665 -0.28500
N 	N 	0.35397 0.11115 0.46314 -0.15100
N 	N 	0.06020 0.28668 0.94883 -0.29300
N 	N 	0.65563 0.25179 0.47005 -0.27200
N 	N 	0.83676 0.57962 0.71147 -0.13700
N 	N 	0.34272 0.92314 0.44841 -0.13800
N 	N 	0.99582 0.30070 0.87558 -0.13900
O 	O 	0.63397 0.23415 0.62834 -0.74500
H 	H 	0.64840 0.26100 0.63740 0.21000
N 	N 	0.15329 0.24774 0.32224 -0.27900
C 	C 	0.88666 0.36991 0.74046 0.07500
C 	C 	0.91512 0.38823 0.81476 -0.07100
H 	H 	0.90980 0.41590 0.83500 0.06000
C 	C 	0.80949 0.50519 0.71845 -0.07200
H 	H 	0.78660 0.51810 0.72710 0.05700
C 	C 	0.84691 0.43947 0.70205 0.08700
N 	N 	0.70854 0.29720 0.49846 -0.13300
C 	C 	0.38295 0.99146 0.45926 -0.07300
H 	H 	0.40540 0.97440 0.45840 0.05300
C 	C 	0.31602 0.04213 0.46281 -0.08000
H 	H 	0.29370 0.05890 0.46530 0.06300
C 	C 	0.87507 0.51310 0.69596 -0.07200
H 	H 	0.89590 0.53120 0.68960 0.05400
C 	C 	0.03351 0.31809 0.91050 0.09900
H 	H 	0.04000 0.34820 0.90800 -0.02800
C 	C 	0.81277 0.45927 0.71509 -0.07800
H 	H 	0.79190 0.44130 0.72160 0.05900
C 	C 	0.81383 0.36797 0.64815 0.08400
C 	C 	0.30950 0.90099 0.39274 0.01200
H 	H 	0.28590 0.91390 0.35450 0.02500
C 	C 	0.39020 0.13486 0.50782 0.08800
C 	C 	0.95119 0.36599 0.85911 -0.08300
H 	H 	0.96990 0.37860 0.90870 0.05900
C 	C 	0.89596 0.32830 0.71035 -0.06300
H 	H 	0.87770 0.31570 0.66020 0.01300
C 	C 	0.80995 0.64661 0.70057 -0.01000
H 	H 	0.79130 0.67020 0.68870 0.00600
C 	C 	0.80020 0.60310 0.68226 0.00400
H 	H 	0.77420 0.59130 0.65540 0.02700
C 	C 	0.34697 0.97066 0.45663 0.08300
C 	C 	0.35220 0.06406 0.46370 0.09000
C 	C 	0.80521 0.32559 0.67413 -0.08900
H 	H 	0.82250 0.31310 0.72550 0.06300
C 	C 	0.18756 0.22946 0.31836 0.08300
H 	H 	0.19810 0.23350 0.27290 -0.03100
C 	C 	0.31773 0.85696 0.40431 -0.01900
H 	H 	0.30050 0.83400 0.37520 0.00800
C 	C 	0.86695 0.60937 0.74508 0.10000
H 	H 	0.89460 0.60210 0.76880 -0.03000
N 	N 	0.56265 0.21873 0.70259 -0.28900
C 	C 	0.75193 0.36388 0.52347 -0.07300
H 	H 	0.73370 0.37700 0.47390 0.05400
C 	C 	0.37023 0.89199 0.49205 0.09500
H 	H 	0.39540 0.89820 0.53380 -0.02300
C 	C 	0.39573 0.17769 0.47945 -0.08600
H 	H 	0.37580 0.19000 0.43150 0.06400
C 	C 	0.31312 0.99605 0.45826 -0.07000
H 	H 	0.28880 0.98200 0.45630 0.05500
C 	C 	0.77088 0.30195 0.62364 -0.07200
H 	H 	0.76570 0.27340 0.64010 0.05600
C 	C 	0.84078 0.53204 0.70870 0.08400
C 	C 	0.46024 0.18381 0.59305 0.07500
C 	C 	0.87815 0.46671 0.69274 -0.08000
H 	H 	0.90110 0.45380 0.68440 0.06000
C 	C 	0.68922 0.26630 0.53104 0.08000
H 	H 	0.69820 0.25640 0.58860 -0.03000
C 	C 	0.74448 0.32132 0.54865 0.07500
N 	N 	0.20507 0.20415 0.38931 -0.13600
C 	C 	0.24316 0.18092 0.40704 0.08400
C 	C 	0.41992 0.11723 0.58085 -0.09400
H 	H 	0.41620 0.08910 0.60140 0.06000
C 	C 	0.38588 0.03756 0.46309 -0.08000
H 	H 	0.41040 0.05130 0.46530 0.05800
C 	C 	0.53417 0.18843 0.66973 0.09200
H 	H 	0.53900 0.15780 0.67000 -0.03500
C 	C 	0.95912 0.32481 0.82889 0.09300
C 	C 	0.45477 0.14132 0.62276 -0.07800
H 	H 	0.47470 0.12920 0.67100 0.05100
C 	C 	0.78675 0.38677 0.57263 -0.08500
H 	H 	0.79210 0.41500 0.55500 0.06600
C 	C 	0.31654 0.13587 0.44252 0.08300
C 	C 	0.68602 0.30304 0.41118 -0.01300
H 	H 	0.69180 0.32230 0.37180 0.02900
C 	C 	0.93194 0.30604 0.75464 -0.09800
H 	H 	0.93780 0.27860 0.73450 0.05700
C 	C 	0.43065 0.20215 0.52200 -0.07700
H 	H 	0.43410 0.23070 0.50280 0.05600
C 	C 	0.30925 0.16224 0.50530 -0.07300
H 	H 	0.32920 0.16480 0.55990 0.04700
C 	C 	0.65346 0.27453 0.39521 0.01200
H 	H 	0.63290 0.27110 0.34170 0.00600
C 	C 	0.28727 0.13296 0.36045 -0.08100
H 	H 	0.29260 0.11600 0.31720 0.06300
C 	C 	0.54318 0.25931 0.68920 -0.00300
H 	H 	0.55570 0.28690 0.70620 0.00300
C 	C 	0.25023 0.15505 0.34251 -0.07800
H 	H 	0.23030 0.15260 0.28790 0.05600
C 	C 	0.14895 0.23360 0.39970 0.00500
H 	H 	0.12750 0.24130 0.41980 0.01000
C 	C 	0.18073 0.20684 0.44174 -0.00600
H 	H 	0.18530 0.19300 0.49540 0.03000
C 	C 	0.27233 0.18523 0.48799 -0.08400
H 	H 	0.26750 0.20320 0.53050 0.06100
C 	C 	0.03869 0.24745 0.93790 -0.00600
H 	H 	0.04960 0.21970 0.95900 -0.00200
C 	C 	0.50267 0.25281 0.64700 0.00000
H 	H 	0.48250 0.27470 0.62930 0.02400
C 	C 	0.99902 0.25567 0.89150 0.00100
H 	H 	0.97800 0.23480 0.87380 0.02500
Zn	Zn	0.61971 0.79034 0.01162 1.18500
Zn	Zn	0.62226 0.78978 0.22844 1.18600
N 	N 	0.49732 0.79237 0.13579 -0.13700
N 	N 	0.84954 0.60793 0.19741 -0.15100
N 	N 	0.85196 0.34943 0.23974 -0.28800
N 	N 	0.35608 0.14878 0.96665 -0.28500
N 	N 	0.35397 0.88885 0.96314 -0.15100
N 	N 	0.06020 0.71332 0.44883 -0.29300
N 	N 	0.65563 0.74821 0.97005 -0.27200
N 	N 	0.83676 0.42038 0.21147 -0.13700
N 	N 	0.34272 0.07686 0.94841 -0.13900
N 	N 	0.99582 0.69930 0.37558 -0.13900
O 	O 	0.63397 0.76585 0.12834 -0.74500
H 	H 	0.64840 0.73900 0.13740 0.21000
N 	N 	0.15329 0.75226 0.82224 -0.27900
C 	C 	0.88666 0.63009 0.24046 0.07500
C 	C 	0.91512 0.61177 0.31476 -0.07100
H 	H 	0.90980 0.58410 0.33500 0.06000
C 	C 	0.80949 0.49481 0.21845 -0.07200
H 	H 	0.78660 0.48190 0.22710 0.05700
C 	C 	0.84691 0.56053 0.20205 0.08700
N 	N 	0.70854 0.70280 0.99846 -0.13300
C 	C 	0.38295 0.00854 0.95926 -0.07300
H 	H 	0.40540 0.02560 0.95840 0.05300
C 	C 	0.31602 0.95787 0.96281 -0.07900
H 	H 	0.29370 0.94110 0.96530 0.06300
C 	C 	0.87507 0.48690 0.19596 -0.07200
H 	H 	0.89590 0.46880 0.18960 0.05400
C 	C 	0.03351 0.68191 0.41050 0.09800
H 	H 	0.04000 0.65180 0.40800 -0.02800
C 	C 	0.81277 0.54073 0.21509 -0.07800
H 	H 	0.79190 0.55870 0.22160 0.05900
C 	C 	0.81383 0.63203 0.14815 0.08400
C 	C 	0.30950 0.09901 0.89274 0.01200
H 	H 	0.28590 0.08610 0.85450 0.02500
C 	C 	0.39020 0.86514 0.00782 0.08800
C 	C 	0.95119 0.63401 0.35911 -0.08200
H 	H 	0.96990 0.62140 0.40870 0.05900
C 	C 	0.89596 0.67170 0.21035 -0.06300
H 	H 	0.87770 0.68430 0.16020 0.01300
C 	C 	0.80995 0.35339 0.20057 -0.01000
H 	H 	0.79130 0.32980 0.18870 0.00600
C 	C 	0.80020 0.39690 0.18226 0.00400
H 	H 	0.77420 0.40870 0.15540 0.02700
C 	C 	0.34697 0.02934 0.95663 0.08300
C 	C 	0.35220 0.93594 0.96370 0.08900
C 	C 	0.80521 0.67441 0.17413 -0.08900
H 	H 	0.82250 0.68690 0.22550 0.06300
C 	C 	0.18756 0.77054 0.81836 0.08300
H 	H 	0.19810 0.76650 0.77290 -0.03100
C 	C 	0.31773 0.14304 0.90431 -0.01900
H 	H 	0.30050 0.16600 0.87520 0.00800
C 	C 	0.86695 0.39063 0.24508 0.10000
H 	H 	0.89460 0.39790 0.26880 -0.03000
N 	N 	0.56265 0.78127 0.20259 -0.28900
C 	C 	0.75193 0.63612 0.02347 -0.07300
H 	H 	0.73370 0.62300 0.97390 0.05400
C 	C 	0.37023 0.10801 0.99205 0.09500
H 	H 	0.39540 0.10180 0.03380 -0.02300
C 	C 	0.39573 0.82231 0.97945 -0.08500
H 	H 	0.37580 0.81000 0.93150 0.06300
C 	C 	0.31312 0.00395 0.95826 -0.07000
H 	H 	0.28880 0.01800 0.95630 0.05500
C 	C 	0.77088 0.69805 0.12364 -0.07200
H 	H 	0.76570 0.72660 0.14010 0.05600
C 	C 	0.84078 0.46796 0.20870 0.08400
C 	C 	0.46024 0.81619 0.09305 0.07600
C 	C 	0.87815 0.53329 0.19274 -0.08000
H 	H 	0.90110 0.54620 0.18440 0.06000
C 	C 	0.68922 0.73370 0.03104 0.08000
H 	H 	0.69820 0.74360 0.08860 -0.03000
C 	C 	0.74448 0.67868 0.04865 0.07500
N 	N 	0.20507 0.79585 0.88931 -0.13600
C 	C 	0.24316 0.81908 0.90704 0.08400
C 	C 	0.41992 0.88277 0.08085 -0.09400
H 	H 	0.41620 0.91090 0.10140 0.06000
C 	C 	0.38588 0.96244 0.96309 -0.08000
H 	H 	0.41040 0.94870 0.96530 0.05800
C 	C 	0.53417 0.81157 0.16973 0.09200
H 	H 	0.53900 0.84220 0.17000 -0.03500
C 	C 	0.95912 0.67519 0.32889 0.09300
C 	C 	0.45477 0.85868 0.12276 -0.07900
H 	H 	0.47470 0.87080 0.17100 0.05100
C 	C 	0.78675 0.61323 0.07263 -0.08500
H 	H 	0.79210 0.58500 0.05500 0.06600
C 	C 	0.31654 0.86413 0.94252 0.08300
C 	C 	0.68602 0.69696 0.91118 -0.01300
H 	H 	0.69180 0.67770 0.87180 0.02900
C 	C 	0.93194 0.69396 0.25464 -0.09800
H 	H 	0.93780 0.72140 0.23450 0.05700
C 	C 	0.43065 0.79785 0.02200 -0.07700
H 	H 	0.43410 0.76930 0.00280 0.05600
C 	C 	0.30925 0.83776 0.00530 -0.07300
H 	H 	0.32920 0.83520 0.05990 0.04700
C 	C 	0.65346 0.72547 0.89521 0.01200
H 	H 	0.63290 0.72890 0.84170 0.00600
C 	C 	0.28727 0.86704 0.86045 -0.08100
H 	H 	0.29260 0.88400 0.81720 0.06300
C 	C 	0.54318 0.74069 0.18920 -0.00300
H 	H 	0.55570 0.71310 0.20620 0.00300
C 	C 	0.25023 0.84495 0.84251 -0.07800
H 	H 	0.23030 0.84740 0.78790 0.05500
C 	C 	0.14895 0.76640 0.89970 0.00500
H 	H 	0.12750 0.75870 0.91980 0.01000
C 	C 	0.18073 0.79316 0.94174 -0.00600
H 	H 	0.18530 0.80700 0.99540 0.03000
C 	C 	0.27233 0.81477 0.98799 -0.08300
H 	H 	0.26750 0.79680 0.03050 0.06100
C 	C 	0.03869 0.75255 0.43790 -0.00700
H 	H 	0.04960 0.78030 0.45900 -0.00200
C 	C 	0.50267 0.74719 0.14700 0.00000
H 	H 	0.48250 0.72530 0.12930 0.02400
C 	C 	0.99902 0.74433 0.39150 0.00100
H 	H 	0.97800 0.76520 0.37380 0.02500
Zn	Zn	0.88029 0.29034 0.48838 1.18500
Zn	Zn	0.87774 0.28978 0.27156 1.18600
N 	N 	0.00268 0.29237 0.36421 -0.13700
N 	N 	0.65046 0.10793 0.30259 -0.15100
N 	N 	0.64804 0.84943 0.26026 -0.28800
N 	N 	0.14392 0.64878 0.53335 -0.28500
N 	N 	0.14603 0.38885 0.53686 -0.15100
N 	N 	0.43980 0.21332 0.05117 -0.29300
N 	N 	0.84437 0.24821 0.52995 -0.27200
N 	N 	0.66324 0.92038 0.28853 -0.13700
N 	N 	0.15728 0.57686 0.55159 -0.13800
N 	N 	0.50418 0.19930 0.12442 -0.13900
O 	O 	0.86603 0.26585 0.37166 -0.74500
H 	H 	0.85160 0.23900 0.36260 0.21000
N 	N 	0.34671 0.25226 0.67776 -0.27900
C 	C 	0.61334 0.13009 0.25954 0.07500
C 	C 	0.58488 0.11177 0.18524 -0.07100
H 	H 	0.59020 0.08410 0.16500 0.06000
C 	C 	0.69051 0.99481 0.28155 -0.07200
H 	H 	0.71340 0.98190 0.27290 0.05700
C 	C 	0.65309 0.06053 0.29795 0.08700
N 	N 	0.79146 0.20280 0.50154 -0.13300
C 	C 	0.11705 0.50854 0.54074 -0.07300
H 	H 	0.09460 0.52560 0.54160 0.05300
C 	C 	0.18398 0.45787 0.53719 -0.08000
H 	H 	0.20630 0.44110 0.53470 0.06300
C 	C 	0.62493 0.98690 0.30404 -0.07300
H 	H 	0.60410 0.96880 0.31040 0.05400
C 	C 	0.46649 0.18191 0.08950 0.09800
H 	H 	0.46000 0.15180 0.09200 -0.02800
C 	C 	0.68723 0.04073 0.28491 -0.07800
H 	H 	0.70810 0.05870 0.27840 0.05900
C 	C 	0.68617 0.13203 0.35185 0.08400
C 	C 	0.19050 0.59901 0.60726 0.01200
H 	H 	0.21410 0.58610 0.64550 0.02500
C 	C 	0.10980 0.36514 0.49218 0.08800
C 	C 	0.54881 0.13401 0.14089 -0.08300
H 	H 	0.53010 0.12140 0.09130 0.05900
C 	C 	0.60404 0.17170 0.28965 -0.06300
H 	H 	0.62230 0.18430 0.33980 0.01300
C 	C 	0.69005 0.85339 0.29943 -0.01000
H 	H 	0.70870 0.82980 0.31130 0.00600
C 	C 	0.69980 0.89690 0.31774 0.00400
H 	H 	0.72580 0.90870 0.34460 0.02700
C 	C 	0.15303 0.52934 0.54337 0.08300
C 	C 	0.14780 0.43594 0.53630 0.09000
C 	C 	0.69479 0.17441 0.32587 -0.08900
H 	H 	0.67750 0.18690 0.27450 0.06300
C 	C 	0.31244 0.27054 0.68164 0.08300
H 	H 	0.30190 0.26650 0.72710 -0.03100
C 	C 	0.18227 0.64304 0.59569 -0.01900
H 	H 	0.19950 0.66600 0.62480 0.00800
C 	C 	0.63305 0.89063 0.25492 0.10000
H 	H 	0.60540 0.89790 0.23120 -0.03000
N 	N 	0.93735 0.28127 0.29741 -0.28900
C 	C 	0.74807 0.13612 0.47653 -0.07300
H 	H 	0.76630 0.12300 0.52610 0.05400
C 	C 	0.12977 0.60801 0.50795 0.09500
H 	H 	0.10460 0.60180 0.46620 -0.02300
C 	C 	0.10427 0.32231 0.52055 -0.08600
H 	H 	0.12420 0.31000 0.56850 0.06400
C 	C 	0.18688 0.50395 0.54174 -0.07000
H 	H 	0.21120 0.51800 0.54370 0.05500
C 	C 	0.72912 0.19805 0.37636 -0.07200
H 	H 	0.73430 0.22660 0.35990 0.05600
C 	C 	0.65922 0.96796 0.29130 0.08400
C 	C 	0.03976 0.31619 0.40695 0.07500
C 	C 	0.62185 0.03329 0.30726 -0.08000
H 	H 	0.59890 0.04620 0.31560 0.06000
C 	C 	0.81078 0.23370 0.46896 0.08000
H 	H 	0.80180 0.24360 0.41140 -0.03000
C 	C 	0.75552 0.17868 0.45135 0.07500
N 	N 	0.29493 0.29585 0.61069 -0.13600
C 	C 	0.25684 0.31908 0.59296 0.08400
C 	C 	0.08008 0.38277 0.41915 -0.09400
H 	H 	0.08380 0.41090 0.39860 0.06000
C 	C 	0.11412 0.46244 0.53691 -0.08000
H 	H 	0.08960 0.44870 0.53470 0.05800
C 	C 	0.96583 0.31157 0.33027 0.09200
H 	H 	0.96100 0.34220 0.33000 -0.03500
C 	C 	0.54088 0.17519 0.17111 0.09300
C 	C 	0.04523 0.35868 0.37724 -0.07800
H 	H 	0.02530 0.37080 0.32900 0.05100
C 	C 	0.71325 0.11323 0.42737 -0.08500
H 	H 	0.70790 0.08500 0.44500 0.06600
C 	C 	0.18346 0.36413 0.55748 0.08300
C 	C 	0.81398 0.19696 0.58882 -0.01300
H 	H 	0.80820 0.17770 0.62820 0.02900
C 	C 	0.56806 0.19396 0.24536 -0.09800
H 	H 	0.56220 0.22140 0.26550 0.05700
C 	C 	0.06935 0.29785 0.47800 -0.07700
H 	H 	0.06590 0.26930 0.49720 0.05600
C 	C 	0.19075 0.33776 0.49470 -0.07300
H 	H 	0.17080 0.33520 0.44010 0.04700
C 	C 	0.84654 0.22547 0.60479 0.01200
H 	H 	0.86710 0.22890 0.65830 0.00600
C 	C 	0.21273 0.36704 0.63955 -0.08100
H 	H 	0.20740 0.38400 0.68280 0.06300
C 	C 	0.95682 0.24069 0.31080 -0.00300
H 	H 	0.94430 0.21310 0.29380 0.00300
C 	C 	0.24977 0.34495 0.65749 -0.07800
H 	H 	0.26970 0.34740 0.71210 0.05600
C 	C 	0.35105 0.26640 0.60030 0.00500
H 	H 	0.37250 0.25870 0.58020 0.01000
C 	C 	0.31927 0.29316 0.55826 -0.00600
H 	H 	0.31470 0.30700 0.50460 0.03000
C 	C 	0.22767 0.31477 0.51201 -0.08400
H 	H 	0.23250 0.29680 0.46950 0.06100
C 	C 	0.46131 0.25255 0.06210 -0.00700
H 	H 	0.45040 0.28030 0.04100 -0.00200
C 	C 	0.99733 0.24719 0.35300 0.00000
H 	H 	0.01750 0.22530 0.37070 0.02400
C 	C 	0.50098 0.24433 0.10850 0.00100
H 	H 	0.52200 0.26520 0.12620 0.02500
Zn	Zn	0.38029 0.20966 0.98838 1.18500
Zn	Zn	0.37774 0.21022 0.77156 1.18600
N 	N 	0.50268 0.20763 0.86421 -0.13700
N 	N 	0.15046 0.39207 0.80259 -0.15100
N 	N 	0.14804 0.65057 0.76026 -0.28800
N 	N 	0.64392 0.85122 0.03335 -0.28500
N 	N 	0.64603 0.11115 0.03686 -0.15100
N 	N 	0.93980 0.28668 0.55117 -0.29300
N 	N 	0.34437 0.25179 0.02995 -0.27200
N 	N 	0.16324 0.57962 0.78853 -0.13700
N 	N 	0.65728 0.92314 0.05159 -0.13900
N 	N 	0.00418 0.30070 0.62442 -0.13900
O 	O 	0.36603 0.23415 0.87166 -0.74500
H 	H 	0.35160 0.26100 0.86260 0.21000
N 	N 	0.84671 0.24774 0.17776 -0.27900
C 	C 	0.11334 0.36991 0.75954 0.07500
C 	C 	0.08488 0.38823 0.68524 -0.07100
H 	H 	0.09020 0.41590 0.66500 0.06000
C 	C 	0.19051 0.50519 0.78155 -0.07200
H 	H 	0.21340 0.51810 0.77290 0.05700
C 	C 	0.15309 0.43947 0.79795 0.08700
N 	N 	0.29146 0.29720 0.00154 -0.13300
C 	C 	0.61705 0.99146 0.04074 -0.07300
H 	H 	0.59460 0.97440 0.04160 0.05300
C 	C 	0.68398 0.04213 0.03719 -0.07900
H 	H 	0.70630 0.05890 0.03470 0.06300
C 	C 	0.12493 0.51310 0.80404 -0.07200
H 	H 	0.10410 0.53120 0.81040 0.05400
C 	C 	0.96649 0.31809 0.58950 0.09800
H 	H 	0.96000 0.34820 0.59200 -0.02800
C 	C 	0.18723 0.45927 0.78491 -0.07800
H 	H 	0.20810 0.44130 0.77840 0.05900
C 	C 	0.18617 0.36797 0.85185 0.08400
C 	C 	0.69050 0.90099 0.10726 0.01200
H 	H 	0.71410 0.91390 0.14550 0.02500
C 	C 	0.60980 0.13486 0.99218 0.08800
C 	C 	0.04881 0.36599 0.64089 -0.08200
H 	H 	0.03010 0.37860 0.59130 0.05900
C 	C 	0.10404 0.32830 0.78965 -0.06300
H 	H 	0.12230 0.31570 0.83980 0.01300
C 	C 	0.19005 0.64661 0.79943 -0.01000
H 	H 	0.20870 0.67020 0.81130 0.00600
C 	C 	0.19980 0.60310 0.81774 0.00400
H 	H 	0.22580 0.59130 0.84460 0.02700
C 	C 	0.65303 0.97066 0.04337 0.08300
C 	C 	0.64780 0.06406 0.03630 0.08900
C 	C 	0.19479 0.32559 0.82587 -0.08900
H 	H 	0.17750 0.31310 0.77450 0.06300
C 	C 	0.81244 0.22946 0.18164 0.08300
H 	H 	0.80190 0.23350 0.22710 -0.03100
C 	C 	0.68227 0.85696 0.09569 -0.01900
H 	H 	0.69950 0.83400 0.12480 0.00800
C 	C 	0.13305 0.60937 0.75492 0.10000
H 	H 	0.10540 0.60210 0.73120 -0.03000
N 	N 	0.43735 0.21873 0.79741 -0.28900
C 	C 	0.24807 0.36388 0.97653 -0.07300
H 	H 	0.26630 0.37700 0.02610 0.05400
C 	C 	0.62977 0.89199 0.00795 0.09500
H 	H 	0.60460 0.89820 0.96620 -0.02300
C 	C 	0.60427 0.17769 0.02055 -0.08500
H 	H 	0.62420 0.19000 0.06850 0.06300
C 	C 	0.68688 0.99605 0.04174 -0.07000
H 	H 	0.71120 0.98200 0.04370 0.05500
C 	C 	0.22912 0.30195 0.87636 -0.07200
H 	H 	0.23430 0.27340 0.85990 0.05600
C 	C 	0.15922 0.53204 0.79130 0.08400
C 	C 	0.53976 0.18381 0.90695 0.07600
C 	C 	0.12185 0.46671 0.80726 -0.08000
H 	H 	0.09890 0.45380 0.81560 0.06000
C 	C 	0.31078 0.26630 0.96896 0.08000
H 	H 	0.30180 0.25640 0.91140 -0.03000
C 	C 	0.25552 0.32132 0.95135 0.07500
N 	N 	0.79493 0.20415 0.11069 -0.13600
C 	C 	0.75684 0.18092 0.09296 0.08400
C 	C 	0.58008 0.11723 0.91915 -0.09400
H 	H 	0.58380 0.08910 0.89860 0.06000
C 	C 	0.61412 0.03756 0.03691 -0.08000
H 	H 	0.58960 0.05130 0.03470 0.05800
C 	C 	0.46583 0.18843 0.83027 0.09200
H 	H 	0.46100 0.15780 0.83000 -0.03500
C 	C 	0.04088 0.32481 0.67111 0.09300
C 	C 	0.54523 0.14132 0.87724 -0.07900
H 	H 	0.52530 0.12920 0.82900 0.05100
C 	C 	0.21325 0.38677 0.92737 -0.08500
H 	H 	0.20790 0.41500 0.94500 0.06600
C 	C 	0.68346 0.13587 0.05748 0.08300
C 	C 	0.31398 0.30304 0.08882 -0.01300
H 	H 	0.30820 0.32230 0.12820 0.02900
C 	C 	0.06806 0.30604 0.74536 -0.09800
H 	H 	0.06220 0.27860 0.76550 0.05700
C 	C 	0.56935 0.20215 0.97800 -0.07700
H 	H 	0.56590 0.23070 0.99720 0.05600
C 	C 	0.69075 0.16224 0.99470 -0.07300
H 	H 	0.67080 0.16480 0.94010 0.04700
C 	C 	0.34654 0.27453 0.10479 0.01200
H 	H 	0.36710 0.27110 0.15830 0.00600
C 	C 	0.71273 0.13296 0.13955 -0.08100
H 	H 	0.70740 0.11600 0.18280 0.06300
C 	C 	0.45682 0.25931 0.81080 -0.00300
H 	H 	0.44430 0.28690 0.79380 0.00300
C 	C 	0.74977 0.15505 0.15749 -0.07800
H 	H 	0.76970 0.15260 0.21210 0.05500
C 	C 	0.85105 0.23360 0.10030 0.00500
H 	H 	0.87250 0.24130 0.08020 0.01000
C 	C 	0.81927 0.20684 0.05826 -0.00600
H 	H 	0.81470 0.19300 0.00460 0.03000
C 	C 	0.72767 0.18523 0.01201 -0.08300
H 	H 	0.73250 0.20320 0.96950 0.06100
C 	C 	0.96131 0.24745 0.56210 -0.00700
H 	H 	0.95040 0.21970 0.54100 -0.00200
C 	C 	0.49733 0.25281 0.85300 0.00000
H 	H 	0.51750 0.27470 0.87070 0.02400
C 	C 	0.00098 0.25567 0.60850 0.00100
H 	H 	0.02200 0.23480 0.62620 0.02500
Zn	Zn	0.11971 0.70966 0.51162 1.18500
Zn	Zn	0.12226 0.71022 0.72844 1.18600
N 	N 	0.99732 0.70763 0.63579 -0.13700
N 	N 	0.34954 0.89207 0.69741 -0.15100
N 	N 	0.35196 0.15057 0.73974 -0.28800
N 	N 	0.85608 0.35122 0.46665 -0.28500
N 	N 	0.85397 0.61115 0.46314 -0.15100
N 	N 	0.56020 0.78668 0.94883 -0.29300
N 	N 	0.15563 0.75179 0.47005 -0.27200
N 	N 	0.33676 0.07962 0.71147 -0.13700
N 	N 	0.84272 0.42314 0.44841 -0.13800
N 	N 	0.49582 0.80070 0.87558 -0.13900
O 	O 	0.13397 0.73415 0.62834 -0.74500
H 	H 	0.14840 0.76100 0.63740 0.21000
N 	N 	0.65329 0.74774 0.32224 -0.27900
C 	C 	0.38666 0.86991 0.74046 0.07500
C 	C 	0.41512 0.88823 0.81476 -0.07100
H 	H 	0.40980 0.91590 0.83500 0.06000
C 	C 	0.30949 0.00519 0.71845 -0.07200
H 	H 	0.28660 0.01810 0.72710 0.05700
C 	C 	0.34691 0.93947 0.70205 0.08700
N 	N 	0.20854 0.79720 0.49846 -0.13300
C 	C 	0.88295 0.49146 0.45926 -0.07300
H 	H 	0.90540 0.47440 0.45840 0.05300
C 	C 	0.81602 0.54213 0.46281 -0.08000
H 	H 	0.79370 0.55890 0.46530 0.06300
C 	C 	0.37507 0.01310 0.69596 -0.07300
H 	H 	0.39590 0.03120 0.68960 0.05400
C 	C 	0.53351 0.81809 0.91050 0.09800
H 	H 	0.54000 0.84820 0.90800 -0.02800
C 	C 	0.31277 0.95927 0.71509 -0.07800
H 	H 	0.29190 0.94130 0.72160 0.05900
C 	C 	0.31383 0.86797 0.64815 0.08400
C 	C 	0.80950 0.40099 0.39274 0.01200
H 	H 	0.78590 0.41390 0.35450 0.02500
C 	C 	0.89020 0.63486 0.50782 0.08800
C 	C 	0.45119 0.86599 0.85911 -0.08300
H 	H 	0.46990 0.87860 0.90870 0.05900
C 	C 	0.39596 0.82830 0.71035 -0.06300
H 	H 	0.37770 0.81570 0.66020 0.01300
C 	C 	0.30995 0.14661 0.70057 -0.01000
H 	H 	0.29130 0.17020 0.68870 0.00600
C 	C 	0.30020 0.10310 0.68226 0.00400
H 	H 	0.27420 0.09130 0.65540 0.02700
C 	C 	0.84697 0.47066 0.45663 0.08300
C 	C 	0.85220 0.56406 0.46370 0.09000
C 	C 	0.30521 0.82559 0.67413 -0.08900
H 	H 	0.32250 0.81310 0.72550 0.06300
C 	C 	0.68756 0.72946 0.31836 0.08300
H 	H 	0.69810 0.73350 0.27290 -0.03100
C 	C 	0.81773 0.35696 0.40431 -0.01900
H 	H 	0.80050 0.33400 0.37520 0.00800
C 	C 	0.36695 0.10937 0.74508 0.10000
H 	H 	0.39460 0.10210 0.76880 -0.03000
N 	N 	0.06265 0.71873 0.70259 -0.28900
C 	C 	0.25193 0.86388 0.52347 -0.07300
H 	H 	0.23370 0.87700 0.47390 0.05400
C 	C 	0.87023 0.39199 0.49205 0.09500
H 	H 	0.89540 0.39820 0.53380 -0.02300
C 	C 	0.89573 0.67769 0.47945 -0.08600
H 	H 	0.87580 0.69000 0.43150 0.06400
C 	C 	0.81312 0.49605 0.45826 -0.07000
H 	H 	0.78880 0.48200 0.45630 0.05500
C 	C 	0.27088 0.80195 0.62364 -0.07200
H 	H 	0.26570 0.77340 0.64010 0.05600
C 	C 	0.34078 0.03204 0.70870 0.08400
C 	C 	0.96024 0.68381 0.59305 0.07500
C 	C 	0.37815 0.96671 0.69274 -0.08000
H 	H 	0.40110 0.95380 0.68440 0.06000
C 	C 	0.18922 0.76630 0.53104 0.08000
H 	H 	0.19820 0.75640 0.58860 -0.03000
C 	C 	0.24448 0.82132 0.54865 0.07500
N 	N 	0.70507 0.70415 0.38931 -0.13600
C 	C 	0.74316 0.68092 0.40704 0.08400
C 	C 	0.91992 0.61723 0.58085 -0.09400
H 	H 	0.91620 0.58910 0.60140 0.06000
C 	C 	0.88588 0.53756 0.46309 -0.08000
H 	H 	0.91040 0.55130 0.46530 0.05800
C 	C 	0.03417 0.68843 0.66973 0.09200
H 	H 	0.03900 0.65780 0.67000 -0.03500
C 	C 	0.45912 0.82481 0.82889 0.09300
C 	C 	0.95477 0.64132 0.62276 -0.07800
H 	H 	0.97470 0.62920 0.67100 0.05100
C 	C 	0.28675 0.88677 0.57263 -0.08500
H 	H 	0.29210 0.91500 0.55500 0.06600
C 	C 	0.81654 0.63587 0.44252 0.08300
C 	C 	0.18602 0.80304 0.41118 -0.01300
H 	H 	0.19180 0.82230 0.37180 0.02900
C 	C 	0.43194 0.80604 0.75464 -0.09800
H 	H 	0.43780 0.77860 0.73450 0.05700
C 	C 	0.93065 0.70215 0.52200 -0.07700
H 	H 	0.93410 0.73070 0.50280 0.05600
C 	C 	0.80925 0.66224 0.50530 -0.07300
H 	H 	0.82920 0.66480 0.55990 0.04700
C 	C 	0.15346 0.77453 0.39521 0.01200
H 	H 	0.13290 0.77110 0.34170 0.00600
C 	C 	0.78727 0.63296 0.36045 -0.08100
H 	H 	0.79260 0.61600 0.31720 0.06300
C 	C 	0.04318 0.75931 0.68920 -0.00300
H 	H 	0.05570 0.78690 0.70620 0.00300
C 	C 	0.75023 0.65505 0.34251 -0.07800
H 	H 	0.73030 0.65260 0.28790 0.05600
C 	C 	0.64895 0.73360 0.39970 0.00500
H 	H 	0.62750 0.74130 0.41980 0.01000
C 	C 	0.68073 0.70684 0.44174 -0.00600
H 	H 	0.68530 0.69300 0.49540 0.03000
C 	C 	0.77233 0.68523 0.48799 -0.08400
H 	H 	0.76750 0.70320 0.53050 0.06100
C 	C 	0.53869 0.74745 0.93790 -0.00700
H 	H 	0.54960 0.71970 0.95900 -0.00200
C 	C 	0.00267 0.75281 0.64700 0.00000
H 	H 	0.98250 0.77470 0.62930 0.02400
C 	C 	0.49902 0.75567 0.89150 0.00100
H 	H 	0.47800 0.73480 0.87380 0.02500
