data_crystal

_cell_length_a 17.64770
_cell_length_b 17.65910
_cell_length_c 42.62800
_cell_angle_alpha 90.00000
_cell_angle_beta  90.00000
_cell_angle_gamma 90.00000

_symmetry_space_group_name_	'P 1'
_symmetry_space_group_name_H-M	'P 1'

loop_
_symmetry_equiv_pos_as_xyz
  x,y,z

loop_
_atom_site_label
_atom_site_type_symbol
_atom_site_fract_x
_atom_site_fract_y
_atom_site_fract_z
_atom_site_charge
Si	Si	0.74050 0.96451 0.49025 0.87200
H 	H 	0.20750 0.08410 0.34510 0.04400
H 	H 	0.87560 0.62380 0.70120 0.13000
H 	H 	0.17610 0.93020 0.37300 0.05100
H 	H 	0.68230 0.43240 0.64930 0.04900
H 	H 	0.62730 0.92590 0.53710 -0.04600
H 	H 	0.86720 0.50080 0.63720 0.04300
H 	H 	0.85030 0.41030 0.59810 0.05500
H 	H 	0.89150 0.09250 0.57020 0.10900
H 	H 	0.83330 0.24790 0.66450 0.05700
H 	H 	0.20300 0.81170 0.23740 0.12900
H 	H 	0.57330 0.92740 0.48000 -0.03500
H 	H 	0.81720 0.58770 0.67670 0.14200
H 	H 	0.70130 0.51300 0.60680 0.05400
H 	H 	0.86270 0.99750 0.53450 -0.04800
H 	H 	0.10930 0.13550 0.31430 0.13200
H 	H 	0.67270 0.10880 0.50950 -0.04200
H 	H 	0.63230 0.11660 0.40710 0.09700
H 	H 	0.85070 0.33880 0.70340 0.03700
H 	H 	0.29240 0.80230 0.23260 0.13100
H 	H 	0.85930 0.83060 0.40370 0.10300
H 	H 	0.70040 0.20370 0.54540 0.10400
H 	H 	0.58100 0.53880 0.74340 0.13400
H 	H 	0.90610 0.58770 0.66920 0.13700
H 	H 	0.30240 0.06840 0.38300 0.05000
H 	H 	0.26730 0.92390 0.33390 0.04800
H 	H 	0.63720 0.69120 0.66070 0.04900
H 	H 	0.77020 0.85230 0.44230 -0.04200
H 	H 	0.51800 0.49640 0.72290 0.13300
H 	H 	0.78320 0.71300 0.53570 0.10100
H 	H 	0.36530 0.15630 0.28330 0.03800
H 	H 	0.61960 0.60960 0.70300 0.03500
H 	H 	0.88990 0.03210 0.47340 -0.03900
H 	H 	0.12540 0.04910 0.30510 0.14000
H 	H 	0.60550 0.82790 0.57170 0.11000
H 	H 	0.25200 0.76610 0.26270 0.13400
H 	H 	0.08170 0.10330 0.28110 0.12800
H 	H 	0.80500 0.81230 0.50040 -0.04100
H 	H 	0.98060 0.01070 0.43520 0.10100
H 	H 	0.48200 0.96840 0.44440 0.10000
H 	H 	0.72370 0.07490 0.44240 -0.03800
H 	H 	0.10700 0.86320 0.27090 0.03600
H 	H 	0.45960 0.14130 0.32140 0.03900
H 	H 	0.01520 0.86540 0.31010 0.04900
H 	H 	0.55290 0.45590 0.75320 0.13500
C 	C 	0.25200 0.80910 0.24816 -0.38000
C 	C 	0.53140 0.98980 0.44381 -0.21000
C 	C 	0.06610 0.87840 0.31497 -0.06600
C 	C 	0.21580 0.91320 0.32904 -0.05100
C 	C 	0.40870 0.12780 0.32614 -0.05900
C 	C 	0.35270 0.13680 0.30343 -0.05500
C 	C 	0.08530 0.89890 0.34556 0.01600
C 	C 	0.67700 0.66050 0.60272 0.00400
C 	C 	0.71750 0.10540 0.52173 0.17600
C 	C 	0.39100 0.09940 0.35554 0.01600
C 	C 	0.66990 0.61010 0.62907 0.01600
C 	C 	0.86130 0.42790 0.67401 0.00000
C 	C 	0.63580 0.59000 0.68333 -0.04900
C 	C 	0.12070 0.87670 0.29170 -0.05200
C 	C 	0.31570 0.08480 0.36252 -0.05800
C 	C 	0.71780 0.87930 0.51469 -0.35400
C 	C 	0.76570 0.04300 0.51778 -0.35700
C 	C 	0.16190 0.91630 0.35230 -0.06200
C 	C 	0.86060 0.44910 0.64274 -0.04100
C 	C 	0.84030 0.29950 0.65881 -0.06600
C 	C 	0.84010 0.32030 0.62717 0.02200
C 	C 	0.93760 0.97850 0.43654 -0.21600
C 	C 	0.81590 0.21660 0.58391 -0.07500
C 	C 	0.82010 0.94400 0.46241 -0.34900
C 	C 	0.65940 0.99610 0.46480 -0.34000
C 	C 	0.19570 0.89470 0.29859 0.00100
C 	C 	0.49360 0.06760 0.39841 -0.07500
C 	C 	0.64640 0.82440 0.55734 -0.22600
C 	C 	0.54840 0.04510 0.42178 0.13900
C 	C 	0.68260 0.70330 0.58130 -0.07600
C 	C 	0.86590 0.87170 0.41788 -0.21900
C 	C 	0.68400 0.53300 0.62623 -0.05900
C 	C 	0.64620 0.63850 0.65825 -0.06500
C 	C 	0.75140 0.75640 0.53606 -0.21600
C 	C 	0.67470 0.05270 0.44284 0.15900
C 	C 	0.44830 0.08440 0.37867 -0.00300
C 	C 	0.12170 0.10090 0.29703 -0.38300
C 	C 	0.81300 0.88470 0.44095 0.17400
C 	C 	0.85030 0.39530 0.61948 -0.06400
C 	C 	0.64880 0.51340 0.68008 0.00300
C 	C 	0.65920 0.88260 0.53654 0.18400
C 	C 	0.62050 0.07760 0.42166 -0.21000
C 	C 	0.92910 0.91870 0.41520 0.14500
C 	C 	0.84690 0.09630 0.55779 -0.22800
C 	C 	0.69240 0.76060 0.55765 0.15200
C 	C 	0.58590 0.96540 0.46507 0.16400
C 	C 	0.56390 0.48950 0.73550 -0.38700
C 	C 	0.88370 0.99080 0.45939 0.17500
C 	C 	0.67310 0.48510 0.65157 -0.04700
C 	C 	0.25900 0.09390 0.33995 -0.05100
C 	C 	0.85080 0.35340 0.68193 -0.04200
C 	C 	0.82960 0.03970 0.53640 0.18800
C 	C 	0.86800 0.58330 0.68584 -0.39300
C 	C 	0.82780 0.26370 0.60317 0.00600
C 	C 	0.79940 0.15860 0.56118 0.15400
C 	C 	0.76420 0.81560 0.51483 0.17500
C 	C 	0.73400 0.16210 0.54310 -0.22300
C 	C 	0.02930 0.90270 0.36986 0.00200
C 	C 	0.98400 0.90810 0.39059 -0.07200
C 	C 	0.27850 0.11710 0.31029 0.00700
S 	S 	0.26783 0.89549 0.26964 0.02400
S 	S 	0.21079 0.12819 0.27980 0.01500
S 	S 	0.63743 0.44811 0.71148 0.02700
S 	S 	0.87724 0.49429 0.70454 0.03000
Si	Si	0.75950 0.46451 0.50975 0.87100
H 	H 	0.39070 0.63550 0.68570 0.13200
H 	H 	0.62440 0.12380 0.29880 0.13000
H 	H 	0.24800 0.26610 0.73730 0.13400
H 	H 	0.98200 0.99640 0.27710 0.13300
H 	H 	0.59390 0.08770 0.33080 0.13700
H 	H 	0.19760 0.56840 0.61700 0.05000
H 	H 	0.88040 0.10960 0.29700 0.03500
H 	H 	0.92670 0.42740 0.52000 -0.03600
H 	H 	0.29700 0.31170 0.76260 0.12900
H 	H 	0.87270 0.42590 0.46290 -0.04600
H 	H 	0.32390 0.43020 0.62700 0.05100
H 	H 	0.39300 0.36320 0.72910 0.03700
H 	H 	0.79960 0.70370 0.45460 0.10400
H 	H 	0.86770 0.61660 0.59290 0.09700
H 	H 	0.13470 0.65630 0.71670 0.03800
H 	H 	0.04040 0.64130 0.67860 0.03900
H 	H 	0.89450 0.32790 0.42830 0.11000
H 	H 	0.37460 0.54910 0.69490 0.14000
H 	H 	0.79870 0.01300 0.39320 0.05400
H 	H 	0.71680 0.21300 0.46430 0.10100
H 	H 	0.63730 0.49750 0.46550 -0.04900
H 	H 	0.41830 0.60330 0.71890 0.12800
H 	H 	0.86280 0.19120 0.33930 0.04900
H 	H 	0.66670 0.74790 0.33550 0.05700
H 	H 	0.51940 0.51070 0.56480 0.10200
H 	H 	0.48480 0.36540 0.68990 0.04900
H 	H 	0.81770 0.93240 0.35070 0.04800
H 	H 	0.77630 0.57490 0.55760 -0.03800
H 	H 	0.23270 0.42390 0.66610 0.04800
H 	H 	0.01800 0.46840 0.55560 0.10000
H 	H 	0.64070 0.33060 0.59630 0.10400
H 	H 	0.69500 0.31230 0.49960 -0.04100
H 	H 	0.68280 0.08770 0.32330 0.14200
H 	H 	0.94710 0.95590 0.24680 0.13500
H 	H 	0.82730 0.60880 0.49050 -0.04200
H 	H 	0.64970 0.91030 0.40190 0.05500
H 	H 	0.63280 0.00080 0.36280 0.04300
H 	H 	0.20760 0.30230 0.76740 0.13100
H 	H 	0.60850 0.59250 0.42980 0.10900
H 	H 	0.29250 0.58410 0.65490 0.04300
H 	H 	0.61010 0.53210 0.52660 -0.03800
H 	H 	0.64930 0.83880 0.29660 0.03700
H 	H 	0.72980 0.35230 0.55770 -0.04200
H 	H 	0.91900 0.03880 0.25660 0.13300
C 	C 	0.64970 0.89530 0.38052 -0.06400
C 	C 	0.65970 0.79950 0.34119 -0.06600
C 	C 	0.81740 0.20330 0.41870 -0.07500
C 	C 	0.64920 0.85340 0.31807 -0.04200
C 	C 	0.10900 0.59940 0.64446 0.01600
C 	C 	0.41470 0.39890 0.65444 0.01500
C 	C 	0.81600 0.03300 0.37377 -0.06100
C 	C 	0.76600 0.66210 0.45690 -0.22300
C 	C 	0.43390 0.37840 0.68503 -0.06500
C 	C 	0.80760 0.26060 0.44235 0.15100
C 	C 	0.57090 0.41870 0.58480 0.14600
C 	C 	0.86420 0.09000 0.31667 -0.04800
C 	C 	0.68410 0.71660 0.41609 -0.07500
C 	C 	0.85360 0.32440 0.44266 -0.22600
C 	C 	0.56240 0.47850 0.56346 -0.21700
C 	C 	0.82300 0.16050 0.39728 0.00400
C 	C 	0.73580 0.31560 0.48517 0.17500
C 	C 	0.09130 0.62780 0.67386 -0.05900
C 	C 	0.68700 0.38470 0.55905 0.17400
C 	C 	0.93610 0.98950 0.26450 -0.38500
C 	C 	0.84060 0.49610 0.53520 -0.34000
C 	C 	0.91410 0.46540 0.53493 0.16400
C 	C 	0.37930 0.37670 0.70830 -0.05200
C 	C 	0.05170 0.58440 0.62133 -0.00300
C 	C 	0.82530 0.55270 0.55716 0.15900
C 	C 	0.87950 0.57760 0.57834 -0.21100
C 	C 	0.78250 0.60540 0.47827 0.17700
C 	C 	0.63200 0.08330 0.31416 -0.39300
C 	C 	0.18430 0.58480 0.63748 -0.05800
C 	C 	0.33810 0.41630 0.64770 -0.06200
C 	C 	0.84080 0.38260 0.46346 0.18400
C 	C 	0.61630 0.49080 0.54061 0.17500
C 	C 	0.37830 0.60090 0.70297 -0.38300
C 	C 	0.30430 0.39470 0.70141 0.00100
C 	C 	0.70060 0.65860 0.43882 0.15500
C 	C 	0.85380 0.13850 0.34175 -0.06600
C 	C 	0.83010 0.11010 0.37093 0.01700
C 	C 	0.24100 0.59390 0.66005 -0.05100
C 	C 	0.63870 0.92790 0.32599 -0.00000
C 	C 	0.24800 0.30910 0.75184 -0.38000
C 	C 	0.67220 0.76370 0.39683 0.00600
C 	C 	0.63410 0.37170 0.58212 -0.21900
C 	C 	0.51600 0.40810 0.60941 -0.07400
C 	C 	0.28420 0.41320 0.67096 -0.05100
C 	C 	0.67990 0.44400 0.53759 -0.35000
C 	C 	0.47070 0.40270 0.63014 0.00400
C 	C 	0.95160 0.54510 0.57822 0.13900
C 	C 	0.00640 0.56760 0.60159 -0.07500
C 	C 	0.65310 0.59630 0.44221 -0.22900
C 	C 	0.22150 0.61710 0.68971 0.00700
C 	C 	0.65990 0.82030 0.37283 0.02300
C 	C 	0.85120 0.01340 0.31992 0.00100
C 	C 	0.63940 0.94910 0.35726 -0.04000
C 	C 	0.67040 0.53970 0.46360 0.18900
C 	C 	0.14730 0.63680 0.69657 -0.05500
C 	C 	0.82690 0.98510 0.34843 -0.04400
C 	C 	0.73430 0.54300 0.48222 -0.35700
C 	C 	0.78220 0.37930 0.48531 -0.35400
C 	C 	0.74860 0.25640 0.46394 -0.21600
C 	C 	0.96860 0.48980 0.55619 -0.21100
S 	S 	0.23217 0.39549 0.73036 0.02500
S 	S 	0.86257 0.94811 0.28852 0.02800
S 	S 	0.62276 0.99429 0.29546 0.03000
S 	S 	0.28921 0.62819 0.72020 0.01500
Si	Si	0.24050 0.03549 0.00975 0.87100
H 	H 	0.60930 0.86450 0.18570 0.13200
H 	H 	0.62540 0.95090 0.19490 0.14000
H 	H 	0.20040 0.79630 0.95460 0.10400
H 	H 	0.01800 0.50360 0.77710 0.13300
H 	H 	0.18230 0.56760 0.85070 0.04900
H 	H 	0.30500 0.18770 0.99960 -0.04100
H 	H 	0.27020 0.14770 0.05770 -0.04200
H 	H 	0.37560 0.37620 0.79880 0.13000
H 	H 	0.51520 0.13460 0.18990 0.04900
H 	H 	0.38990 0.96790 0.02660 -0.03900
H 	H 	0.60700 0.13680 0.22910 0.03700
H 	H 	0.12730 0.07410 0.96290 -0.04600
H 	H 	0.08100 0.46120 0.75660 0.13400
H 	H 	0.39150 0.90750 0.92980 0.10900
H 	H 	0.48060 0.98930 0.06480 0.10200
H 	H 	0.58170 0.89670 0.21890 0.12800
H 	H 	0.70750 0.91590 0.15490 0.04300
H 	H 	0.70300 0.18830 0.26260 0.12900
H 	H 	0.05290 0.54410 0.74680 0.13500
H 	H 	0.79240 0.19770 0.26740 0.13100
H 	H 	0.22370 0.92510 0.05760 -0.03700
H 	H 	0.33330 0.75210 0.83550 0.05700
H 	H 	0.28320 0.28700 0.96430 0.10100
H 	H 	0.07330 0.07260 0.02000 -0.03500
H 	H 	0.95960 0.85870 0.17860 0.03900
H 	H 	0.35930 0.16940 0.09630 0.10400
H 	H 	0.13230 0.88340 0.09290 0.09600
H 	H 	0.31720 0.41230 0.82330 0.14200
H 	H 	0.75200 0.23390 0.23730 0.13400
H 	H 	0.36270 0.00250 0.96550 -0.04800
H 	H 	0.80240 0.93160 0.11700 0.05000
H 	H 	0.40610 0.41230 0.83080 0.13700
H 	H 	0.35030 0.58970 0.90190 0.05500
H 	H 	0.10550 0.17210 0.92830 0.11000
H 	H 	0.11960 0.39040 0.79700 0.03500
H 	H 	0.86530 0.84370 0.21670 0.03800
H 	H 	0.35070 0.66120 0.79660 0.03700
H 	H 	0.17270 0.89120 0.99050 -0.04300
H 	H 	0.13720 0.30880 0.83930 0.04900
H 	H 	0.20130 0.48700 0.89320 0.05400
H 	H 	0.98200 0.03160 0.05560 0.09800
H 	H 	0.67610 0.06980 0.12700 0.05100
H 	H 	0.36720 0.49920 0.86280 0.04300
H 	H 	0.76730 0.07610 0.16610 0.04800
C 	C 	0.75200 0.19090 0.25184 -0.38000
C 	C 	0.36590 0.12830 0.08212 -0.21900
C 	C 	0.19240 0.23940 0.94235 0.15100
C 	C 	0.36060 0.55090 0.85726 -0.04100
C 	C 	0.08590 0.03460 0.03493 0.16200
C 	C 	0.56610 0.12160 0.18503 -0.06500
C 	C 	0.36800 0.41670 0.81416 -0.39300
C 	C 	0.26570 0.95700 0.98222 -0.35700
C 	C 	0.13580 0.41000 0.81667 -0.04900
C 	C 	0.35030 0.60470 0.88052 -0.06400
C 	C 	0.06390 0.51050 0.76450 -0.38700
C 	C 	0.32780 0.73630 0.89683 0.00600
C 	C 	0.89100 0.90060 0.14446 0.01700
C 	C 	0.81570 0.91520 0.13748 -0.05900
C 	C 	0.03140 0.01020 0.05619 -0.20600
C 	C 	0.31300 0.11530 0.05905 0.17400
C 	C 	0.25140 0.24360 0.96394 -0.21600
C 	C 	0.23400 0.83790 0.95690 -0.22300
C 	C 	0.75900 0.90610 0.16005 -0.05000
C 	C 	0.12050 0.92240 0.07834 -0.20800
C 	C 	0.35080 0.64660 0.81807 -0.04200
C 	C 	0.21780 0.12070 0.98531 -0.35400
C 	C 	0.14880 0.48660 0.81992 0.00300
C 	C 	0.18400 0.46700 0.87377 -0.05900
C 	C 	0.62070 0.12330 0.20830 -0.05200
C 	C 	0.66190 0.08370 0.14770 -0.06200
C 	C 	0.17310 0.51490 0.84843 -0.04700
C 	C 	0.14640 0.17560 0.94266 -0.22600
C 	C 	0.62170 0.89910 0.20297 -0.38300
C 	C 	0.17470 0.94730 0.05716 0.15700
C 	C 	0.29940 0.84140 0.93882 0.15400
C 	C 	0.15920 0.11740 0.96346 0.18400
C 	C 	0.94830 0.91560 0.12133 -0.00400
C 	C 	0.04840 0.95490 0.07822 0.13500
C 	C 	0.99360 0.93240 0.10159 -0.07200
C 	C 	0.18260 0.29670 0.91870 -0.07600
C 	C 	0.85270 0.86320 0.19657 -0.05500
C 	C 	0.42910 0.08130 0.08480 0.14600
C 	C 	0.17700 0.33950 0.89728 0.00400
C 	C 	0.14620 0.36150 0.84175 -0.06500
C 	C 	0.21750 0.89460 0.97827 0.17700
C 	C 	0.32010 0.05600 0.03759 -0.35000
C 	C 	0.31590 0.78340 0.91609 -0.07500
C 	C 	0.71580 0.08680 0.17096 -0.05100
C 	C 	0.58530 0.10110 0.15444 0.01500
C 	C 	0.52930 0.09730 0.13014 0.00400
C 	C 	0.15940 0.00390 0.03520 -0.33800
C 	C 	0.69570 0.10530 0.20141 0.00100
C 	C 	0.43760 0.02150 0.06346 -0.21700
C 	C 	0.48400 0.09190 0.10941 -0.07400
C 	C 	0.16990 0.38990 0.87093 0.01600
C 	C 	0.34010 0.67970 0.87283 0.02200
C 	C 	0.34030 0.70050 0.84119 -0.06600
C 	C 	0.34690 0.90370 0.94221 -0.22900
C 	C 	0.77850 0.88290 0.18971 0.00700
C 	C 	0.90870 0.87220 0.17386 -0.05900
C 	C 	0.26420 0.18440 0.98517 0.17500
C 	C 	0.38370 0.00920 0.04061 0.17500
C 	C 	0.36130 0.57210 0.82599 0.00000
C 	C 	0.32960 0.96030 0.96360 0.18900
S 	S 	0.13743 0.55189 0.78852 0.02700
S 	S 	0.71079 0.87181 0.22020 0.01500
S 	S 	0.76783 0.10451 0.23036 0.02400
S 	S 	0.37724 0.50571 0.79546 0.03000
Si	Si	0.25950 0.03549 0.50975 0.87100
H 	H 	0.14070 0.16940 0.59630 0.10300
H 	H 	0.98480 0.13460 0.68990 0.04900
H 	H 	0.41900 0.46120 0.25660 0.13400
H 	H 	0.19500 0.18770 0.49960 -0.04100
H 	H 	0.21680 0.28700 0.46430 0.10100
H 	H 	0.42670 0.07260 0.52000 -0.03500
H 	H 	0.29870 0.48700 0.39320 0.05400
H 	H 	0.13280 0.49920 0.36280 0.04300
H 	H 	0.12440 0.37620 0.29880 0.13000
H 	H 	0.54040 0.85870 0.67860 0.03900
H 	H 	0.09390 0.41230 0.33080 0.13700
H 	H 	0.31770 0.56760 0.35070 0.04900
H 	H 	0.10850 0.90750 0.42980 0.10900
H 	H 	0.38040 0.39040 0.29700 0.03500
H 	H 	0.70760 0.19770 0.76740 0.13100
H 	H 	0.01940 0.98930 0.56480 0.10100
H 	H 	0.29960 0.79630 0.45460 0.10400
H 	H 	0.36280 0.30880 0.33930 0.04900
H 	H 	0.11010 0.96790 0.52660 -0.03900
H 	H 	0.16670 0.75210 0.33550 0.05700
H 	H 	0.69760 0.93160 0.61700 0.05000
H 	H 	0.32730 0.89120 0.49050 -0.04200
H 	H 	0.39450 0.17210 0.42830 0.11000
H 	H 	0.27630 0.92510 0.55760 -0.03800
H 	H 	0.91830 0.89670 0.71890 0.12800
H 	H 	0.48200 0.50360 0.27710 0.13300
H 	H 	0.82390 0.06980 0.62700 0.05100
H 	H 	0.73270 0.07610 0.66610 0.04800
H 	H 	0.63470 0.84370 0.71670 0.03800
H 	H 	0.14970 0.58970 0.40190 0.05500
H 	H 	0.44710 0.54410 0.24680 0.13500
H 	H 	0.79700 0.18830 0.76260 0.12900
H 	H 	0.36770 0.88340 0.59290 0.09700
H 	H 	0.74800 0.23390 0.73730 0.13400
H 	H 	0.87460 0.95090 0.69490 0.14000
H 	H 	0.79250 0.91590 0.65490 0.04300
H 	H 	0.37270 0.07410 0.46290 -0.04600
H 	H 	0.13730 0.00250 0.46550 -0.04800
H 	H 	0.14930 0.66120 0.29660 0.03700
H 	H 	0.18280 0.41230 0.32330 0.14200
H 	H 	0.89300 0.13680 0.72910 0.03600
H 	H 	0.22980 0.14770 0.55770 -0.04200
H 	H 	0.51800 0.03160 0.55560 0.10000
H 	H 	0.89070 0.86450 0.68570 0.13200
C 	C 	0.33010 0.38990 0.37093 0.01600
C 	C 	0.74800 0.19090 0.75184 -0.38000
C 	C 	0.18410 0.78340 0.41609 -0.07500
C 	C 	0.46860 0.01020 0.55619 -0.21000
C 	C 	0.17040 0.96030 0.46360 0.18800
C 	C 	0.74100 0.90610 0.66005 -0.05100
C 	C 	0.26600 0.83790 0.45690 -0.22300
C 	C 	0.55170 0.91560 0.62133 -0.00300
C 	C 	0.31740 0.29670 0.41870 -0.07600
C 	C 	0.87830 0.89910 0.70297 -0.38300
C 	C 	0.30760 0.23940 0.44235 0.15200
C 	C 	0.18700 0.11530 0.55905 0.17400
C 	C 	0.35380 0.36150 0.34175 -0.06500
C 	C 	0.06240 0.02150 0.56346 -0.21600
C 	C 	0.45160 0.95490 0.57822 0.13900
C 	C 	0.17990 0.05600 0.53759 -0.34900
C 	C 	0.83810 0.08370 0.64770 -0.06200
C 	C 	0.17220 0.73630 0.39683 0.00600
C 	C 	0.15990 0.67970 0.37283 0.02200
C 	C 	0.59130 0.87220 0.67386 -0.05900
C 	C 	0.20060 0.84140 0.43882 0.15400
C 	C 	0.28220 0.12070 0.48531 -0.35400
C 	C 	0.87930 0.12330 0.70830 -0.05200
C 	C 	0.14970 0.60470 0.38052 -0.06400
C 	C 	0.93390 0.12160 0.68503 -0.06600
C 	C 	0.32300 0.33950 0.39728 0.00400
C 	C 	0.50640 0.93240 0.60159 -0.07500
C 	C 	0.11630 0.00920 0.54061 0.17500
C 	C 	0.24860 0.24360 0.46394 -0.21600
C 	C 	0.13870 0.57210 0.32599 0.00000
C 	C 	0.91470 0.10110 0.65444 0.01600
C 	C 	0.13200 0.41670 0.31416 -0.39300
C 	C 	0.28250 0.89460 0.47827 0.17600
C 	C 	0.78420 0.08680 0.67096 -0.05100
C 	C 	0.60900 0.90060 0.64446 0.01600
C 	C 	0.13940 0.55090 0.35726 -0.04100
C 	C 	0.23430 0.95700 0.48222 -0.35700
C 	C 	0.97070 0.09730 0.63014 0.00200
C 	C 	0.68430 0.91520 0.63748 -0.05800
C 	C 	0.36420 0.41000 0.31667 -0.04900
C 	C 	0.35120 0.48660 0.31992 0.00300
C 	C 	0.80430 0.10530 0.70141 0.00100
C 	C 	0.15970 0.70050 0.34119 -0.06600
C 	C 	0.34060 0.00390 0.53520 -0.34000
C 	C 	0.35360 0.17560 0.44266 -0.22600
C 	C 	0.32530 0.94730 0.55716 0.15900
C 	C 	0.23580 0.18440 0.48517 0.17500
C 	C 	0.43610 0.51050 0.26450 -0.38700
C 	C 	0.13410 0.12830 0.58212 -0.21900
C 	C 	0.31600 0.46700 0.37377 -0.05900
C 	C 	0.14920 0.64660 0.31807 -0.04200
C 	C 	0.41410 0.03460 0.53493 0.16400
C 	C 	0.01600 0.09190 0.60941 -0.07200
C 	C 	0.72150 0.88290 0.68971 0.00700
C 	C 	0.64730 0.86320 0.69657 -0.05500
C 	C 	0.34080 0.11740 0.46346 0.18400
C 	C 	0.07090 0.08130 0.58480 0.14500
C 	C 	0.32690 0.51490 0.34843 -0.04700
C 	C 	0.15310 0.90370 0.44221 -0.22800
C 	C 	0.37950 0.92240 0.57834 -0.21000
S 	S 	0.73217 0.10451 0.73036 0.02400
S 	S 	0.78921 0.87181 0.72020 0.01500
S 	S 	0.12276 0.50571 0.29546 0.03000
S 	S 	0.36257 0.55189 0.28852 0.02700
Si	Si	0.75950 0.96451 0.99025 0.87100
H 	H 	0.19760 0.06840 0.88300 0.05000
H 	H 	0.29700 0.81170 0.73740 0.12900
H 	H 	0.92670 0.92740 0.98000 -0.03500
H 	H 	0.86280 0.69120 0.16070 0.04900
H 	H 	0.04040 0.14130 0.82140 0.03900
H 	H 	0.77630 0.07490 0.94240 -0.03700
H 	H 	0.82730 0.10880 0.00950 -0.04300
H 	H 	0.94710 0.45590 0.25320 0.13500
H 	H 	0.64070 0.83060 0.90370 0.10400
H 	H 	0.59390 0.58770 0.16920 0.13700
H 	H 	0.01800 0.96840 0.94440 0.09800
H 	H 	0.62440 0.62380 0.20120 0.13000
H 	H 	0.98200 0.49640 0.22290 0.13300
H 	H 	0.60850 0.09250 0.07020 0.10900
H 	H 	0.79960 0.20370 0.04540 0.10400
H 	H 	0.64970 0.41030 0.09810 0.05500
H 	H 	0.88040 0.60960 0.20300 0.03500
H 	H 	0.63730 0.99750 0.03450 -0.04800
H 	H 	0.48480 0.86540 0.81010 0.04900
H 	H 	0.81770 0.43240 0.14930 0.04900
H 	H 	0.20760 0.80230 0.73260 0.13100
H 	H 	0.86770 0.11660 0.90710 0.09600
H 	H 	0.79870 0.51300 0.10680 0.05400
H 	H 	0.71680 0.71300 0.03570 0.10100
H 	H 	0.61010 0.03210 0.97340 -0.03900
H 	H 	0.69500 0.81230 0.00040 -0.04100
H 	H 	0.68280 0.58770 0.17670 0.14200
H 	H 	0.89450 0.82790 0.07170 0.11000
H 	H 	0.13470 0.15630 0.78330 0.03800
H 	H 	0.23270 0.92390 0.83390 0.04800
H 	H 	0.37460 0.04910 0.80510 0.14000
H 	H 	0.29250 0.08410 0.84510 0.04300
H 	H 	0.24800 0.76610 0.76270 0.13400
H 	H 	0.72980 0.85230 0.94230 -0.04200
H 	H 	0.91900 0.53880 0.24340 0.13400
H 	H 	0.39070 0.13550 0.81430 0.13200
H 	H 	0.87270 0.92590 0.03710 -0.04600
H 	H 	0.32390 0.93020 0.87300 0.05100
H 	H 	0.41830 0.10330 0.78110 0.12800
H 	H 	0.64930 0.33880 0.20340 0.03700
H 	H 	0.39300 0.86320 0.77090 0.03700
H 	H 	0.51940 0.01070 0.93520 0.10200
H 	H 	0.63280 0.50080 0.13720 0.04300
H 	H 	0.66670 0.24790 0.16450 0.05700
C 	C 	0.37830 0.10090 0.79703 -0.38300
C 	C 	0.57090 0.91870 0.91520 0.14600
C 	C 	0.82530 0.05270 0.94284 0.15700
C 	C 	0.63200 0.58330 0.18584 -0.39300
C 	C 	0.05170 0.08440 0.87867 -0.00400
C 	C 	0.41470 0.89890 0.84556 0.01500
C 	C 	0.68700 0.88470 0.94095 0.17400
C 	C 	0.14730 0.13680 0.80343 -0.05500
C 	C 	0.28420 0.91320 0.82904 -0.05100
C 	C 	0.65310 0.09630 0.05779 -0.22900
C 	C 	0.24100 0.09390 0.83995 -0.05000
C 	C 	0.78220 0.87930 0.01469 -0.35400
C 	C 	0.95160 0.04510 0.92178 0.13500
C 	C 	0.63940 0.44910 0.14274 -0.04100
C 	C 	0.30430 0.89470 0.79859 0.00100
C 	C 	0.84080 0.88260 0.03654 0.18400
C 	C 	0.93610 0.48950 0.23550 -0.38700
C 	C 	0.24800 0.80910 0.74816 -0.38000
C 	C 	0.18430 0.08480 0.86252 -0.05900
C 	C 	0.73580 0.81560 0.01483 0.17500
C 	C 	0.76600 0.16210 0.04310 -0.22300
C 	C 	0.74860 0.75640 0.03606 -0.21600
C 	C 	0.96860 0.98980 0.94381 -0.20600
C 	C 	0.65990 0.32030 0.12717 0.02200
C 	C 	0.22150 0.11710 0.81029 0.00700
C 	C 	0.83010 0.61010 0.12907 0.01600
C 	C 	0.67990 0.94400 0.96241 -0.35000
C 	C 	0.85380 0.63850 0.15825 -0.06500
C 	C 	0.64920 0.35340 0.18193 -0.04200
C 	C 	0.63410 0.87170 0.91788 -0.21900
C 	C 	0.70060 0.15860 0.06118 0.15400
C 	C 	0.67040 0.03970 0.03640 0.18900
C 	C 	0.33810 0.91630 0.85230 -0.06200
C 	C 	0.81740 0.70330 0.08130 -0.07600
C 	C 	0.78250 0.10540 0.02173 0.17700
C 	C 	0.68410 0.21660 0.08391 -0.07500
C 	C 	0.63870 0.42790 0.17401 0.00000
C 	C 	0.85360 0.82440 0.05734 -0.22600
C 	C 	0.67220 0.26370 0.10317 0.00600
C 	C 	0.84060 0.99610 0.96480 -0.33800
C 	C 	0.65970 0.29950 0.15881 -0.06600
C 	C 	0.85120 0.51340 0.18008 0.00300
C 	C 	0.56240 0.97850 0.93654 -0.21700
C 	C 	0.37930 0.87670 0.79170 -0.05200
C 	C 	0.80760 0.76060 0.05765 0.15100
C 	C 	0.51600 0.90810 0.89059 -0.07400
C 	C 	0.73430 0.04300 0.01778 -0.35700
C 	C 	0.47070 0.90270 0.86986 0.00400
C 	C 	0.81600 0.53300 0.12623 -0.05900
C 	C 	0.09130 0.12780 0.82614 -0.05900
C 	C 	0.91410 0.96540 0.96507 0.16200
C 	C 	0.64970 0.39530 0.11948 -0.06400
C 	C 	0.00640 0.06760 0.89841 -0.07200
C 	C 	0.82300 0.66050 0.10272 0.00400
C 	C 	0.61630 0.99080 0.95939 0.17500
C 	C 	0.87950 0.07760 0.92166 -0.20800
C 	C 	0.86420 0.59000 0.18333 -0.04900
C 	C 	0.10900 0.09940 0.85554 0.01700
C 	C 	0.82690 0.48510 0.15157 -0.04700
C 	C 	0.43390 0.87840 0.81497 -0.06500
S 	S 	0.86257 0.44811 0.21148 0.02700
S 	S 	0.28921 0.12819 0.77980 0.01500
S 	S 	0.23217 0.89549 0.76964 0.02400
S 	S 	0.62276 0.49429 0.20454 0.03000
Si	Si	0.74050 0.46451 0.00975 0.87100
H 	H 	0.78320 0.21300 0.96430 0.10100
H 	H 	0.62730 0.42590 0.96290 -0.04600
H 	H 	0.67270 0.60880 0.99050 -0.04200
H 	H 	0.20300 0.31170 0.26260 0.12900
H 	H 	0.70130 0.01300 0.89320 0.05400
H 	H 	0.29240 0.30230 0.26740 0.13100
H 	H 	0.81720 0.08770 0.82330 0.14200
H 	H 	0.08170 0.60330 0.21890 0.12800
H 	H 	0.25200 0.26610 0.23730 0.13400
H 	H 	0.85030 0.91030 0.90190 0.05500
H 	H 	0.63230 0.61660 0.09290 0.09700
H 	H 	0.01520 0.36540 0.18990 0.04900
H 	H 	0.85070 0.83880 0.79660 0.03700
H 	H 	0.10700 0.36320 0.22910 0.03700
H 	H 	0.30240 0.56840 0.11700 0.05000
H 	H 	0.63720 0.19120 0.83930 0.04900
H 	H 	0.48200 0.46840 0.05560 0.10000
H 	H 	0.86720 0.00080 0.86280 0.04200
H 	H 	0.10930 0.63550 0.18570 0.13100
H 	H 	0.85930 0.33060 0.09630 0.10400
H 	H 	0.17610 0.43020 0.12700 0.05100
H 	H 	0.12540 0.54910 0.19490 0.14000
H 	H 	0.88990 0.53210 0.02660 -0.03800
H 	H 	0.45960 0.64130 0.17860 0.03900
H 	H 	0.70040 0.70370 0.95460 0.10400
H 	H 	0.58100 0.03880 0.75660 0.13400
H 	H 	0.68230 0.93240 0.85070 0.04900
H 	H 	0.61960 0.10960 0.79700 0.03500
H 	H 	0.51800 0.99640 0.77710 0.13300
H 	H 	0.87560 0.12380 0.79880 0.13000
H 	H 	0.80500 0.31230 0.99960 -0.04100
H 	H 	0.90610 0.08770 0.83080 0.13700
H 	H 	0.77020 0.35230 0.05770 -0.04200
H 	H 	0.98060 0.51070 0.06480 0.10200
H 	H 	0.20750 0.58410 0.15490 0.04300
H 	H 	0.89150 0.59250 0.92980 0.10900
H 	H 	0.57330 0.42740 0.02000 -0.03600
H 	H 	0.83330 0.74790 0.83550 0.05800
H 	H 	0.86270 0.49750 0.96550 -0.04900
H 	H 	0.55290 0.95590 0.74680 0.13500
H 	H 	0.72370 0.57490 0.05760 -0.03800
H 	H 	0.26730 0.42390 0.16610 0.04800
H 	H 	0.60550 0.32790 0.92830 0.11000
H 	H 	0.36530 0.65630 0.21670 0.03800
C 	C 	0.73400 0.66210 0.95690 -0.22300
C 	C 	0.81590 0.71660 0.91609 -0.07500
C 	C 	0.31570 0.58480 0.13748 -0.05800
C 	C 	0.65940 0.49610 0.03520 -0.34000
C 	C 	0.06610 0.37840 0.18503 -0.06500
C 	C 	0.86130 0.92790 0.82599 -0.00100
C 	C 	0.82960 0.53970 0.96360 0.18900
C 	C 	0.71780 0.37930 0.98531 -0.35400
C 	C 	0.67700 0.16050 0.89728 0.00400
C 	C 	0.69240 0.26060 0.94235 0.15100
C 	C 	0.16190 0.41630 0.14770 -0.06200
C 	C 	0.67310 0.98510 0.84843 -0.04600
C 	C 	0.66990 0.11010 0.87093 0.01600
C 	C 	0.86800 0.08330 0.81416 -0.39400
C 	C 	0.39100 0.59940 0.14446 0.01600
C 	C 	0.92910 0.41870 0.08480 0.14600
C 	C 	0.62050 0.57760 0.07834 -0.21000
C 	C 	0.86060 0.94910 0.85726 -0.03900
C 	C 	0.68260 0.20330 0.91870 -0.07600
C 	C 	0.64640 0.32440 0.94266 -0.22600
C 	C 	0.27850 0.61710 0.18971 0.00700
C 	C 	0.79940 0.65860 0.93882 0.15500
C 	C 	0.19570 0.39470 0.20141 0.00100
C 	C 	0.84010 0.82030 0.87283 0.02300
C 	C 	0.53140 0.48980 0.05619 -0.21100
C 	C 	0.56390 0.98950 0.76450 -0.38700
C 	C 	0.67470 0.55270 0.05716 0.15900
C 	C 	0.54840 0.54510 0.07822 0.13900
C 	C 	0.93760 0.47850 0.06346 -0.21700
C 	C 	0.98400 0.40810 0.10941 -0.07400
C 	C 	0.84030 0.79950 0.84119 -0.06600
C 	C 	0.68400 0.03300 0.87377 -0.06000
C 	C 	0.85080 0.85340 0.81807 -0.04200
C 	C 	0.76420 0.31560 0.98517 0.17500
C 	C 	0.08530 0.39890 0.15444 0.01500
C 	C 	0.02930 0.40270 0.13014 0.00400
C 	C 	0.85030 0.89530 0.88052 -0.06500
C 	C 	0.35270 0.63680 0.19657 -0.05500
C 	C 	0.44830 0.58440 0.12133 -0.00300
C 	C 	0.75140 0.25640 0.96394 -0.21600
C 	C 	0.63580 0.09000 0.81667 -0.04800
C 	C 	0.64880 0.01340 0.81992 0.00200
C 	C 	0.81300 0.38470 0.05905 0.17400
C 	C 	0.49360 0.56760 0.10159 -0.07500
C 	C 	0.82010 0.44400 0.03759 -0.35000
C 	C 	0.64620 0.13850 0.84175 -0.06600
C 	C 	0.21580 0.41320 0.17096 -0.05100
C 	C 	0.82780 0.76370 0.89683 0.00600
C 	C 	0.86590 0.37170 0.08212 -0.22000
C 	C 	0.71750 0.60540 0.97827 0.17700
C 	C 	0.76570 0.54300 0.98222 -0.35700
C 	C 	0.88370 0.49080 0.04061 0.17500
C 	C 	0.84690 0.59630 0.94221 -0.22900
C 	C 	0.25900 0.59390 0.16005 -0.05100
C 	C 	0.12070 0.37670 0.20830 -0.05200
C 	C 	0.65920 0.38260 0.96346 0.18400
C 	C 	0.25200 0.30910 0.25184 -0.38000
C 	C 	0.58590 0.46540 0.03493 0.16400
C 	C 	0.12170 0.60090 0.20297 -0.38300
C 	C 	0.40870 0.62780 0.17386 -0.05900
S 	S 	0.87724 0.99429 0.79546 0.03100
S 	S 	0.63743 0.94811 0.78852 0.02800
S 	S 	0.26783 0.39549 0.23036 0.02400
S 	S 	0.21079 0.62819 0.22020 0.01500
Si	Si	0.24050 0.53549 0.49025 0.87100
H 	H 	0.48060 0.48930 0.43520 0.10200
H 	H 	0.58170 0.39670 0.28110 0.12800
H 	H 	0.35930 0.66940 0.40370 0.10400
H 	H 	0.31720 0.91230 0.67670 0.14200
H 	H 	0.76730 0.57610 0.33390 0.04800
H 	H 	0.62540 0.45090 0.30510 0.14000
H 	H 	0.38990 0.46790 0.47340 -0.03800
H 	H 	0.39150 0.40750 0.57020 0.10900
H 	H 	0.60930 0.36450 0.31430 0.13200
H 	H 	0.60700 0.63680 0.27090 0.03700
H 	H 	0.10550 0.67210 0.57170 0.11000
H 	H 	0.40610 0.91230 0.66920 0.13700
H 	H 	0.18230 0.06760 0.64930 0.04800
H 	H 	0.37560 0.87620 0.70120 0.13000
H 	H 	0.36270 0.50250 0.53450 -0.04900
H 	H 	0.79240 0.69770 0.23260 0.13100
H 	H 	0.67610 0.56980 0.37300 0.05100
H 	H 	0.98200 0.53160 0.44440 0.10000
H 	H 	0.33330 0.25210 0.66450 0.05700
H 	H 	0.13230 0.38340 0.40710 0.09700
H 	H 	0.20130 0.98700 0.60680 0.05400
H 	H 	0.01800 0.00360 0.72290 0.13300
H 	H 	0.05290 0.04410 0.75320 0.13500
H 	H 	0.11960 0.89040 0.70300 0.03500
H 	H 	0.86530 0.34370 0.28330 0.03800
H 	H 	0.30500 0.68770 0.50040 -0.04100
H 	H 	0.17270 0.39120 0.50950 -0.04200
H 	H 	0.75200 0.73390 0.26270 0.13400
H 	H 	0.80240 0.43160 0.38300 0.05000
H 	H 	0.28320 0.78700 0.53570 0.10100
H 	H 	0.35030 0.08970 0.59810 0.05500
H 	H 	0.08100 0.96120 0.74340 0.13300
H 	H 	0.07330 0.57260 0.48000 -0.03600
H 	H 	0.22370 0.42510 0.44240 -0.03800
H 	H 	0.36720 0.99920 0.63720 0.04300
H 	H 	0.95960 0.35870 0.32140 0.03900
H 	H 	0.12730 0.57410 0.53710 -0.04600
H 	H 	0.13720 0.80880 0.66070 0.04900
H 	H 	0.20040 0.29630 0.54540 0.10400
H 	H 	0.27020 0.64770 0.44230 -0.04200
H 	H 	0.70300 0.68830 0.23740 0.12900
H 	H 	0.70750 0.41590 0.34510 0.04300
H 	H 	0.51520 0.63460 0.31010 0.04900
H 	H 	0.35070 0.16120 0.70340 0.03700
C 	C 	0.34030 0.20050 0.65881 -0.06600
C 	C 	0.08590 0.53460 0.46507 0.16400
C 	C 	0.34690 0.40370 0.55779 -0.22900
C 	C 	0.26570 0.45700 0.51778 -0.35700
C 	C 	0.48400 0.59190 0.39059 -0.07400
C 	C 	0.52930 0.59730 0.36986 0.00400
C 	C 	0.14640 0.67560 0.55734 -0.22600
C 	C 	0.36590 0.62830 0.41788 -0.21900
C 	C 	0.32010 0.55600 0.46241 -0.35000
C 	C 	0.04840 0.45490 0.42178 0.13900
C 	C 	0.62070 0.62330 0.29170 -0.05200
C 	C 	0.58530 0.60110 0.34556 0.01500
C 	C 	0.34010 0.17970 0.62717 0.02300
C 	C 	0.32780 0.23630 0.60317 0.00600
C 	C 	0.43760 0.52150 0.43654 -0.21700
C 	C 	0.15920 0.61740 0.53654 0.18400
C 	C 	0.36060 0.05090 0.64274 -0.04000
C 	C 	0.13580 0.91000 0.68333 -0.04800
C 	C 	0.66190 0.58370 0.35230 -0.06200
C 	C 	0.85270 0.36320 0.30343 -0.05500
C 	C 	0.32960 0.46030 0.53640 0.18900
C 	C 	0.62170 0.39910 0.29703 -0.38300
C 	C 	0.77850 0.38290 0.31029 0.00700
C 	C 	0.14620 0.86150 0.65825 -0.06600
C 	C 	0.03140 0.51020 0.44381 -0.21100
C 	C 	0.26420 0.68440 0.51483 0.17500
C 	C 	0.21780 0.62070 0.51469 -0.35400
C 	C 	0.99360 0.43240 0.39841 -0.07500
C 	C 	0.17470 0.44730 0.44284 0.15900
C 	C 	0.36800 0.91670 0.68584 -0.39300
C 	C 	0.17310 0.01490 0.65157 -0.04400
C 	C 	0.17700 0.83950 0.60272 0.00400
C 	C 	0.19240 0.73940 0.55765 0.15100
C 	C 	0.06390 0.01050 0.73550 -0.38500
C 	C 	0.56610 0.62160 0.31497 -0.06500
C 	C 	0.14880 0.98660 0.68008 0.00100
C 	C 	0.18260 0.79670 0.58130 -0.07500
C 	C 	0.75200 0.69090 0.24816 -0.38000
C 	C 	0.69570 0.60530 0.29859 0.00100
C 	C 	0.21750 0.39460 0.52173 0.17700
C 	C 	0.71580 0.58680 0.32904 -0.05100
C 	C 	0.89100 0.40060 0.35554 0.01600
C 	C 	0.42910 0.58130 0.41520 0.14600
C 	C 	0.81570 0.41520 0.36252 -0.05800
C 	C 	0.18400 0.96700 0.62623 -0.06100
C 	C 	0.29940 0.34140 0.56118 0.15500
C 	C 	0.35080 0.14660 0.68193 -0.04200
C 	C 	0.31300 0.61530 0.44095 0.17400
C 	C 	0.25140 0.74360 0.53606 -0.21600
C 	C 	0.90870 0.37220 0.32614 -0.05900
C 	C 	0.23400 0.33790 0.54310 -0.22300
C 	C 	0.16990 0.88990 0.62907 0.01700
C 	C 	0.75900 0.40610 0.33995 -0.05100
C 	C 	0.12050 0.42240 0.42166 -0.21100
C 	C 	0.31590 0.28340 0.58391 -0.07500
C 	C 	0.35030 0.10470 0.61948 -0.06400
C 	C 	0.38370 0.50920 0.45939 0.17500
C 	C 	0.94830 0.41560 0.37867 -0.00300
C 	C 	0.36130 0.07210 0.67401 -0.00000
C 	C 	0.15940 0.50390 0.46480 -0.34000
S 	S 	0.71079 0.37181 0.27980 0.01500
S 	S 	0.76783 0.60451 0.26964 0.02500
S 	S 	0.37724 0.00571 0.70454 0.03000
S 	S 	0.13743 0.05189 0.71148 0.02800
Si	Si	0.25950 0.53549 0.99025 0.87100
H 	H 	0.73270 0.57610 0.83390 0.04800
H 	H 	0.29960 0.29630 0.04540 0.10400
H 	H 	0.11010 0.46790 0.97340 -0.03800
H 	H 	0.79250 0.41590 0.84510 0.04300
H 	H 	0.16670 0.25210 0.16450 0.05800
H 	H 	0.41900 0.96120 0.24340 0.13400
H 	H 	0.51800 0.53160 0.94440 0.10000
H 	H 	0.31770 0.06760 0.14930 0.04900
H 	H 	0.14970 0.08970 0.09810 0.05500
H 	H 	0.14070 0.66940 0.90370 0.10400
H 	H 	0.39450 0.67210 0.07170 0.11000
H 	H 	0.48200 0.00360 0.22290 0.13300
H 	H 	0.13280 0.99920 0.13720 0.04200
H 	H 	0.18280 0.91230 0.17670 0.14200
H 	H 	0.87460 0.45090 0.80510 0.14000
H 	H 	0.98480 0.63460 0.81010 0.04900
H 	H 	0.54040 0.35870 0.82140 0.03900
H 	H 	0.69760 0.43160 0.88300 0.05000
H 	H 	0.37270 0.57410 0.03710 -0.04600
H 	H 	0.09390 0.91230 0.16920 0.13700
H 	H 	0.42670 0.57260 0.98000 -0.03600
H 	H 	0.13730 0.50250 0.03450 -0.04900
H 	H 	0.29870 0.98700 0.10680 0.05400
H 	H 	0.12440 0.87620 0.20120 0.13000
H 	H 	0.79700 0.68830 0.73740 0.12900
H 	H 	0.82390 0.56980 0.87300 0.05100
H 	H 	0.21680 0.78700 0.03570 0.10100
H 	H 	0.70760 0.69770 0.73260 0.13100
H 	H 	0.22980 0.64770 0.94230 -0.04200
H 	H 	0.36280 0.80880 0.16070 0.04900
H 	H 	0.32730 0.39120 0.00950 -0.04200
H 	H 	0.74800 0.73390 0.76270 0.13400
H 	H 	0.44710 0.04410 0.25320 0.13500
H 	H 	0.38040 0.89040 0.20300 0.03500
H 	H 	0.27630 0.42510 0.94240 -0.03800
H 	H 	0.89300 0.63680 0.77090 0.03700
H 	H 	0.19500 0.68770 0.00040 -0.04100
H 	H 	0.01940 0.48930 0.93520 0.10200
H 	H 	0.91830 0.39670 0.78110 0.12800
H 	H 	0.14930 0.16120 0.20340 0.03700
H 	H 	0.10850 0.40750 0.07020 0.10900
H 	H 	0.36770 0.38340 0.90710 0.09700
H 	H 	0.63470 0.34370 0.78330 0.03800
H 	H 	0.89070 0.36450 0.81430 0.13100
C 	C 	0.87830 0.39910 0.79703 -0.38300
C 	C 	0.35120 0.98660 0.18008 0.00200
C 	C 	0.97070 0.59730 0.86986 0.00400
C 	C 	0.78420 0.58680 0.82904 -0.05100
C 	C 	0.17990 0.55600 0.96241 -0.35000
C 	C 	0.31600 0.96700 0.12623 -0.06000
C 	C 	0.74100 0.40610 0.83995 -0.05100
C 	C 	0.32300 0.83950 0.10272 0.00400
C 	C 	0.15310 0.40370 0.05779 -0.22900
C 	C 	0.15970 0.20050 0.15881 -0.06600
C 	C 	0.72150 0.38290 0.81029 0.00700
C 	C 	0.32530 0.44730 0.94284 0.15900
C 	C 	0.41410 0.53460 0.96507 0.16400
C 	C 	0.68430 0.41520 0.86252 -0.05800
C 	C 	0.59130 0.37220 0.82614 -0.05900
C 	C 	0.60900 0.40060 0.85554 0.01600
C 	C 	0.30760 0.73940 0.05765 0.15100
C 	C 	0.36420 0.91000 0.18333 -0.04800
C 	C 	0.13870 0.07210 0.17401 -0.00100
C 	C 	0.18410 0.28340 0.08391 -0.07500
C 	C 	0.32690 0.01490 0.15157 -0.04600
C 	C 	0.23430 0.45700 0.01778 -0.35700
C 	C 	0.80430 0.60530 0.79859 0.00100
C 	C 	0.43610 0.01050 0.23550 -0.38700
C 	C 	0.46860 0.51020 0.94381 -0.21100
C 	C 	0.45160 0.45490 0.92178 0.13900
C 	C 	0.64730 0.36320 0.80343 -0.05500
C 	C 	0.14920 0.14660 0.18193 -0.04200
C 	C 	0.26600 0.33790 0.04310 -0.22300
C 	C 	0.14970 0.10470 0.11948 -0.06500
C 	C 	0.37950 0.42240 0.92166 -0.21000
C 	C 	0.06240 0.52150 0.93654 -0.21700
C 	C 	0.28220 0.62070 0.01469 -0.35400
C 	C 	0.23580 0.68440 0.01483 0.17500
C 	C 	0.11630 0.50920 0.95939 0.17500
C 	C 	0.87930 0.62330 0.79170 -0.05200
C 	C 	0.13200 0.91670 0.18584 -0.39400
C 	C 	0.34060 0.50390 0.96480 -0.34000
C 	C 	0.93390 0.62160 0.81497 -0.06500
C 	C 	0.83810 0.58370 0.85230 -0.06200
C 	C 	0.50640 0.43240 0.89841 -0.07500
C 	C 	0.34080 0.61740 0.03654 0.18400
C 	C 	0.35380 0.86150 0.15825 -0.06600
C 	C 	0.24860 0.74360 0.03606 -0.21600
C 	C 	0.55170 0.41560 0.87867 -0.00300
C 	C 	0.01600 0.59190 0.89059 -0.07400
C 	C 	0.28250 0.39460 0.02173 0.17700
C 	C 	0.07090 0.58130 0.91520 0.14600
C 	C 	0.18700 0.61530 0.94095 0.17400
C 	C 	0.17220 0.23630 0.10317 0.00600
C 	C 	0.31740 0.79670 0.08130 -0.07600
C 	C 	0.17040 0.46030 0.03640 0.18900
C 	C 	0.15990 0.17970 0.12717 0.02300
C 	C 	0.13940 0.05090 0.14274 -0.03900
C 	C 	0.13410 0.62830 0.91788 -0.22000
C 	C 	0.91470 0.60110 0.84556 0.01500
C 	C 	0.20060 0.34140 0.06118 0.15500
C 	C 	0.35360 0.67560 0.05734 -0.22600
C 	C 	0.74800 0.69090 0.74816 -0.38000
C 	C 	0.33010 0.88990 0.12907 0.01600
S 	S 	0.78921 0.37181 0.77980 0.01500
S 	S 	0.12276 0.00571 0.20454 0.03100
S 	S 	0.73217 0.60451 0.76964 0.02400
S 	S 	0.36257 0.05189 0.21148 0.02800
