data_crystal

_cell_length_a 50.69040
_cell_length_b 50.69040
_cell_length_c 50.69040
_cell_angle_alpha 60.00000
_cell_angle_beta  60.00000
_cell_angle_gamma 60.00000

_symmetry_space_group_name_	'P 1'
_symmetry_space_group_name_H-M	'P 1'

loop_
_symmetry_equiv_pos_as_xyz
  x,y,z

loop_
_atom_site_label
_atom_site_type_symbol
_atom_site_fract_x
_atom_site_fract_y
_atom_site_fract_z
_atom_site_charge
Si	Si	0.67024 0.23296 0.37884 1.34500
Si	Si	0.28606 0.58152 0.78606 1.46400
Si	Si	0.48619 0.19279 0.78229 1.40400
Si	Si	0.13437 0.14671 0.63437 1.29800
Si	Si	0.41545 0.85329 0.36563 1.29800
Si	Si	0.69279 0.53873 0.78229 1.40400
Si	Si	0.69279 0.98619 0.78229 1.40700
Si	Si	0.30721 0.21771 0.46127 1.40400
Si	Si	0.51381 0.21771 0.46127 1.40400
Si	Si	0.32976 0.62116 0.76704 1.34500
Si	Si	0.08152 0.78606 0.78606 1.46400
Si	Si	-0.00000 0.84882 -0.00000 1.20600
Si	Si	0.03873 0.78229 0.98619 1.40700
Si	Si	0.26704 0.82976 0.62116 1.34500
Si	Si	0.87884 0.17024 0.71796 1.34400
Si	Si	0.78204 0.82976 0.62116 1.34500
Si	Si	0.96127 0.80721 0.21771 1.40500
Si	Si	0.80788 0.30788 0.37066 1.37100
Si	Si	0.32976 0.62116 0.28204 1.34500
Si	Si	0.73296 0.17024 0.71796 1.34400
Si	Si	0.87884 0.71796 0.17024 1.34400
Si	Si	0.28606 0.78606 0.58152 1.46400
Si	Si	0.12116 0.28204 0.76704 1.34500
Si	Si	0.71771 0.80721 0.01381 1.40100
Si	Si	0.01358 0.30788 0.37066 1.36800
Si	Si	0.51381 0.80721 0.21771 1.40400
Si	Si	0.87884 0.23296 0.17024 1.34400
Si	Si	0.34882 0.50000 0.15118 1.21000
Si	Si	0.73296 0.17024 0.37884 1.34400
Si	Si	0.69279 0.78229 0.98619 1.40700
Si	Si	0.08152 0.34636 0.78606 1.46400
Si	Si	-0.00000 0.84882 0.15118 1.20800
Si	Si	0.21796 0.23296 0.17024 1.34400
Si	Si	0.00000 0.15118 0.84882 1.20800
Si	Si	0.98642 0.69212 0.62934 1.37300
Si	Si	0.86563 0.91545 0.36563 1.29900
Si	Si	0.87884 0.17024 0.23296 1.34400
Si	Si	0.87066 0.51358 0.30788 1.37100
Si	Si	0.80788 0.37066 0.51358 1.37100
Si	Si	0.48619 0.78229 0.53873 1.40400
Si	Si	0.28229 0.19279 0.98619 1.40700
Si	Si	0.32976 0.28204 0.62116 1.34500
Si	Si	0.01358 0.30788 0.30788 1.36800
Si	Si	0.09565 0.15435 0.15435 1.44000
Si	Si	0.35329 0.91545 0.36563 1.29900
Si	Si	0.03873 0.19279 0.98619 1.40700
Si	Si	0.21796 0.17024 0.23296 1.34400
Si	Si	0.80788 0.51358 0.37066 1.37100
Si	Si	0.86563 0.36563 0.91545 1.29900
Si	Si	0.87066 0.30788 0.51358 1.37100
Si	Si	0.01358 0.37066 0.30788 1.36800
Si	Si	0.12116 0.76704 0.28204 1.34500
Si	Si	0.73296 0.71796 0.17024 1.34400
Si	Si	0.65435 0.15435 0.59565 1.44000
Si	Si	0.34882 0.50000 -0.00000 1.20800
Si	Si	0.84636 0.78606 0.78606 1.46400
Si	Si	0.34565 0.40435 0.84565 1.44000
Si	Si	0.65435 0.59565 0.15435 1.44000
Si	Si	0.50000 0.50000 0.84882 1.21000
Si	Si	0.15364 0.21394 0.41848 1.46400
Si	Si	0.26704 0.28204 0.82976 1.34500
Si	Si	0.12116 0.82976 0.76704 1.34500
Si	Si	0.86563 0.85329 0.36563 1.29800
Si	Si	0.71771 0.01381 0.80721 1.40100
Si	Si	0.67024 0.71796 0.37884 1.34500
Si	Si	0.73296 0.37884 0.71796 1.34500
Si	Si	0.64671 0.08455 0.63437 1.29800
Si	Si	0.90435 0.84565 0.84565 1.43900
Si	Si	0.67024 0.37884 0.23296 1.34400
Si	Si	0.84636 0.58152 0.78606 1.46300
Si	Si	0.00000 0.00000 0.15118 1.20500
Si	Si	0.48619 0.53873 0.78229 1.40300
Si	Si	0.86563 0.36563 0.85329 1.29700
Si	Si	0.48619 0.78229 0.19279 1.40300
Si	Si	0.30721 0.46127 0.21771 1.40300
Si	Si	0.51381 0.80721 0.46127 1.40300
Si	Si	0.58455 0.63437 0.14671 1.29700
Si	Si	0.80788 0.30788 0.51358 1.37000
Si	Si	0.21796 0.37884 0.17024 1.34300
Si	Si	0.67024 0.37884 0.71796 1.34400
Si	Si	0.78204 0.62116 0.76704 1.34400
Si	Si	0.65118 0.84882 0.50000 1.20900
Si	Si	0.51381 0.46127 0.80721 1.40300
Si	Si	0.13437 0.14671 0.08455 1.29700
Si	Si	0.91848 0.21394 0.21394 1.46300
Si	Si	0.13437 0.08455 0.14671 1.29700
Si	Si	0.51381 0.21771 0.80721 1.40300
Si	Si	0.65118 -0.00000 0.50000 1.20700
Si	Si	0.19212 0.69212 0.48642 1.37000
Si	Si	0.78204 0.82976 0.76704 1.34400
Si	Si	0.96127 0.80721 0.01381 1.40100
Si	Si	0.19212 0.48642 0.69212 1.37000
Si	Si	0.50000 0.50000 0.15118 1.20900
Si	Si	0.71394 0.21394 0.65364 1.46300
Si	Si	0.67024 0.23296 0.71796 1.34400
Si	Si	0.12934 0.48642 0.69212 1.36900
Si	Si	0.98642 0.62934 0.69212 1.37200
Si	Si	0.34882 0.00000 0.15118 1.20700
Si	Si	0.71394 0.65364 0.21394 1.46300
Si	Si	0.65118 -0.00000 0.84882 1.20700
Si	Si	0.28606 0.78606 0.34636 1.46300
Si	Si	0.12116 0.82976 0.28204 1.34400
Si	Si	0.71394 0.41848 0.21394 1.46300
Si	Si	0.73296 0.37884 0.17024 1.34300
Si	Si	0.26704 0.62116 0.28204 1.34400
Si	Si	0.12116 0.28204 0.82976 1.34400
Si	Si	0.13437 0.63437 0.08455 1.29700
Si	Si	0.19212 0.69212 0.62934 1.37000
Si	Si	0.58455 0.14671 0.63437 1.29700
Si	Si	0.21796 0.17024 0.37884 1.34300
Si	Si	0.15364 0.41848 0.21394 1.46300
Si	Si	0.08152 0.78606 0.34636 1.46300
Si	Si	0.69279 0.53873 0.98619 1.40600
Si	Si	0.19212 0.48642 0.62934 1.37000
Si	Si	0.34882 0.15118 -0.00000 1.20700
Si	Si	0.78204 0.76704 0.82976 1.34400
Si	Si	0.71771 0.46127 0.80721 1.40300
Si	Si	0.48619 0.53873 0.19279 1.40300
Si	Si	0.13437 0.08455 0.63437 1.29700
Si	Si	0.21796 0.23296 0.37884 1.34400
Si	Si	0.90435 0.40435 0.84565 1.43900
Si	Si	0.69279 0.78229 0.53873 1.40300
Si	Si	-0.00000 0.15118 -0.00000 1.20500
Si	Si	0.34882 -0.00000 0.50000 1.20700
Si	Si	0.32976 0.76704 0.62116 1.34400
Si	Si	0.03873 0.78229 0.19279 1.40300
Si	Si	0.28229 0.53873 0.19279 1.40300
Si	Si	0.84636 0.78606 0.58152 1.46300
Si	Si	0.96127 0.21771 0.01381 1.40100
Si	Si	0.65118 0.84882 -0.00000 1.20700
Si	Si	0.80788 0.37066 0.30788 1.37000
Si	Si	0.98642 0.69212 0.69212 1.37200
Si	Si	0.28229 0.53873 0.98619 1.40600
Si	Si	0.19212 0.62934 0.69212 1.37000
Si	Si	0.50000 0.15118 0.84882 1.20900
Si	Si	0.12116 0.76704 0.82976 1.34400
Si	Si	0.34565 0.40435 0.40435 1.43900
Si	Si	0.65435 0.59565 0.59565 1.43900
Si	Si	0.00000 -0.00000 0.84882 1.20500
Si	Si	0.67024 0.71796 0.23296 1.34400
Si	Si	0.30721 0.01381 0.46127 1.40000
Si	Si	0.26704 0.82976 0.28204 1.34400
Si	Si	0.28229 0.19279 0.53873 1.40300
Si	Si	0.64671 0.63437 0.63437 1.29700
Si	Si	0.65118 0.50000 0.84882 1.20900
Si	Si	0.90435 0.84565 0.40435 1.43900
Si	Si	0.30721 0.21771 0.01381 1.40000
Si	Si	0.09565 0.59565 0.15435 1.43900
Si	Si	0.48619 0.19279 0.53873 1.40300
Si	Si	0.58455 0.63437 0.63437 1.29700
Si	Si	0.41545 0.36563 0.85329 1.29700
Si	Si	0.28606 0.34636 0.78606 1.46300
Si	Si	0.87066 0.30788 0.30788 1.37000
Si	Si	0.15364 0.21394 0.21394 1.46300
Si	Si	0.51381 0.46127 0.21771 1.40300
Si	Si	0.26704 0.28204 0.62116 1.34400
Si	Si	0.86563 0.85329 0.91545 1.29800
Si	Si	0.86563 0.91545 0.85329 1.29800
Si	Si	0.65118 0.50000 -0.00000 1.20700
Si	Si	0.09565 0.15435 0.59565 1.43900
Si	Si	0.30721 0.46127 0.01381 1.40000
Si	Si	0.30721 0.01381 0.21771 1.40000
Si	Si	0.19212 0.62934 0.48642 1.37000
Si	Si	0.50000 0.84882 0.50000 1.20900
Si	Si	0.71771 0.01381 0.46127 1.40000
Si	Si	0.32976 0.76704 0.28204 1.34400
Si	Si	0.71394 0.21394 0.41848 1.46300
Si	Si	0.32976 0.28204 0.76704 1.34400
Si	Si	0.03873 0.98619 0.19279 1.40600
Si	Si	0.64671 0.63437 0.08455 1.29700
Si	Si	0.12934 0.69212 0.69212 1.36900
Si	Si	0.50000 0.15118 0.50000 1.20900
Si	Si	0.73296 0.71796 0.37884 1.34400
Si	Si	0.96127 0.01381 0.80721 1.40100
Si	Si	0.91848 0.65364 0.21394 1.46300
Si	Si	0.80788 0.51358 0.30788 1.37000
Si	Si	0.71771 0.46127 0.01381 1.40000
Si	Si	0.96127 0.21771 0.80721 1.40400
Si	Si	0.71394 0.41848 0.65364 1.46300
Si	Si	0.28229 0.98619 0.19279 1.40600
Si	Si	0.87884 0.23296 0.71796 1.34400
Si	Si	0.28229 0.98619 0.53873 1.40600
Si	Si	0.35329 0.36563 0.91545 1.29800
Si	Si	0.50000 0.84882 0.15118 1.20900
Si	Si	0.71394 0.65364 0.41848 1.46300
Si	Si	0.03873 0.19279 0.78229 1.40300
Si	Si	0.12934 0.69212 0.48642 1.36900
Si	Si	0.35329 0.36563 0.36563 1.29700
Si	Si	0.28606 0.34636 0.58152 1.46300
Si	Si	0.87884 0.71796 0.23296 1.34400
Si	Si	0.34882 0.15118 0.50000 1.20900
Si	Si	0.41545 0.36563 0.36563 1.29700
Si	Si	0.91848 0.21394 0.65364 1.46300
Si	Si	0.78204 0.62116 0.82976 1.34400
Si	Si	0.71771 0.80721 0.46127 1.40300
Si	Si	0.28606 0.58152 0.34636 1.46300
Si	Si	0.21796 0.37884 0.23296 1.34400
Si	Si	0.13437 0.63437 0.14671 1.29700
Si	Si	0.26704 0.62116 0.82976 1.34400
Si	Si	0.78204 0.76704 0.62116 1.34400
Si	Si	0.96127 0.01381 0.21771 1.40100
Si	Si	0.69279 0.98619 0.53873 1.40600
Si	Si	0.34565 0.84565 0.40435 1.43900
Si	Si	0.03873 0.98619 0.78229 1.40600
H 	H 	0.91430 0.10510 0.18590 0.01900
H 	H 	0.06810 0.56810 0.64870 0.01200
H 	H 	0.96070 0.92790 0.92790 0.03100
H 	H 	0.55370 0.69230 0.20050 0.01000
H 	H 	0.29950 0.94630 0.44650 0.01000
H 	H 	0.40290 0.53870 0.90290 0.01400
H 	H 	0.35690 0.36030 0.49290 0.02000
H 	H 	0.26910 0.54410 0.27590 0.00800
H 	H 	0.90850 0.95370 0.26590 0.03600
H 	H 	0.70530 0.58570 0.81410 0.01900
H 	H 	0.68590 0.41430 0.10510 0.01900
H 	H 	0.42790 0.18350 0.46070 0.03000
H 	H 	0.34450 0.09710 0.46130 0.01400
H 	H 	0.29470 0.10510 0.18590 0.01900
H 	H 	0.05350 0.69230 0.05370 0.01000
H 	H 	0.68350 0.92790 0.92790 0.03000
H 	H 	0.09500 0.29780 0.23120 -0.00400
H 	H 	0.73120 0.29780 0.59500 -0.00400
H 	H 	0.99290 0.78990 0.36030 0.02000
H 	H 	0.77970 0.74050 0.20010 0.02700
H 	H 	0.64310 0.63970 0.21010 0.02000
H 	H 	0.09150 0.73410 0.12810 0.03500
H 	H 	0.95590 0.08910 0.23090 0.00800
H 	H 	0.04410 0.27590 0.91090 0.00900
H 	H 	0.73120 0.59500 0.37600 -0.00400
H 	H 	0.71010 0.50710 0.63970 0.02000
H 	H 	0.64310 0.21010 0.63970 0.02000
H 	H 	0.04410 0.91090 0.76910 0.00900
H 	H 	0.00710 0.63970 0.21010 0.02000
H 	H 	0.34450 0.46130 0.09710 0.01400
H 	H 	0.62810 0.59150 0.04630 0.03500
H 	H 	0.79780 0.23120 0.59500 -0.00400
H 	H 	0.13970 0.50710 0.14310 0.02000
H 	H 	0.93190 0.43190 0.28490 0.01200
H 	H 	0.68590 0.79470 0.41430 0.01900
H 	H 	0.60510 0.18590 0.41430 0.01900
H 	H 	0.77590 0.91090 0.54410 0.00900
H 	H 	0.70530 0.89490 0.58570 0.01900
H 	H 	0.09150 0.04630 0.12810 0.03500
H 	H 	0.79780 0.59500 0.37600 -0.00400
H 	H 	0.20220 0.40500 0.62400 -0.00400
H 	H 	0.76590 0.40850 0.95370 0.03600
H 	H 	0.91430 0.18590 0.10510 0.01900
H 	H 	0.00710 0.14310 0.21010 0.02000
H 	H 	0.58910 0.23090 0.72410 0.00800
H 	H 	0.62810 0.04630 0.73410 0.03500
H 	H 	0.82450 0.32450 0.17590 0.00500
H 	H 	0.90850 0.87190 0.26590 0.03600
H 	H 	0.45370 0.26590 0.40850 0.03600
H 	H 	0.82490 0.67550 0.82410 0.00500
H 	H 	0.91430 0.18590 0.79470 0.01900
H 	H 	0.09500 0.23120 0.29780 -0.00400
H 	H 	0.99290 0.85690 0.36030 0.02000
H 	H 	0.13970 0.50710 0.21010 0.02000
H 	H 	0.05350 0.20050 0.05370 0.01000
H 	H 	0.85130 0.28490 0.43190 0.01200
H 	H 	0.12400 0.70220 0.40500 -0.00400
H 	H 	0.73120 0.37600 0.29780 -0.00400
H 	H 	0.42790 0.92790 0.46070 0.03000
H 	H 	0.77970 0.20010 0.27970 0.02700
H 	H 	0.41090 0.54410 0.27590 0.00800
H 	H 	0.03870 0.15550 0.90290 0.01400
H 	H 	0.99290 0.78990 0.85690 0.02000
H 	H 	0.26880 0.62400 0.40500 -0.00400
H 	H 	0.64310 0.50710 0.63970 0.02000
H 	H 	0.95590 0.23090 0.08910 0.00800
H 	H 	0.13970 0.21010 0.50710 0.02000
H 	H 	0.42790 0.18350 0.92790 0.03000
H 	H 	0.40290 0.90290 0.53870 0.01400
H 	H 	0.93190 0.35130 0.28490 0.01200
H 	H 	0.75950 0.72030 0.79990 0.02700
H 	H 	0.68590 0.41430 0.79470 0.01900
H 	H 	0.82490 0.82410 0.67550 0.00500
H 	H 	0.22030 0.79990 0.72030 0.02700
H 	H 	0.22030 0.72030 0.25950 0.02700
H 	H 	0.44630 0.30770 0.44650 0.01000
H 	H 	0.79780 0.59500 0.23120 -0.00400
H 	H 	0.13970 0.21010 0.14310 0.02000
H 	H 	0.58910 0.23090 0.45590 0.00800
H 	H 	0.17550 0.67550 0.32490 0.00500
H 	H 	0.62810 0.73410 0.04630 0.03500
H 	H 	0.70050 0.69230 0.05370 0.01000
H 	H 	0.71010 0.63970 0.50710 0.02000
H 	H 	0.23410 0.04630 0.59150 0.03500
H 	H 	0.85130 0.43190 0.28490 0.01200
H 	H 	0.22410 0.08910 0.23090 0.00800
H 	H 	0.34450 0.09710 0.09710 0.01400
H 	H 	0.62810 0.04630 0.59150 0.03500
H 	H 	0.87600 0.59500 0.23120 -0.00400
H 	H 	0.78490 0.35130 0.43190 0.01200
H 	H 	0.17550 0.32490 0.82410 0.00500
H 	H 	0.77970 0.27970 0.74050 0.02700
H 	H 	0.29950 0.44650 0.30770 0.01000
H 	H 	0.19230 0.05370 0.20050 0.01000
H 	H 	0.70530 0.81410 0.58570 0.01900
H 	H 	0.45370 0.87190 0.26590 0.03600
H 	H 	0.41090 0.76910 0.27590 0.00800
H 	H 	0.73090 0.08910 0.72410 0.00800
H 	H 	0.31650 0.53930 0.07210 0.03000
H 	H 	0.73120 0.59500 0.29780 -0.00400
H 	H 	0.44630 0.79950 0.30770 0.01000
H 	H 	0.93190 0.28490 0.35130 0.01200
H 	H 	0.64310 0.21010 0.50710 0.02000
H 	H 	0.40290 0.90290 0.15550 0.01400
H 	H 	0.23410 0.59150 0.12810 0.03500
H 	H 	0.19230 0.20050 0.05370 0.01000
H 	H 	0.80770 0.79950 0.94630 0.01000
H 	H 	0.40290 0.15550 0.90290 0.01400
H 	H 	0.54630 0.59150 0.73410 0.03600
H 	H 	0.94650 0.30770 0.79950 0.01000
H 	H 	0.44630 0.44650 0.30770 0.01000
H 	H 	0.94650 0.79950 0.94630 0.01000
H 	H 	0.68590 0.79470 0.10510 0.01900
H 	H 	0.08570 0.89490 0.20530 0.01900
H 	H 	0.87600 0.29780 0.23120 -0.00400
H 	H 	0.71010 0.14310 0.63970 0.02000
H 	H 	0.76590 0.87190 0.95370 0.03600
H 	H 	0.09500 0.37600 0.29780 -0.00400
H 	H 	0.76590 0.87190 0.40850 0.03600
H 	H 	0.42790 0.46070 0.18350 0.03000
H 	H 	0.29470 0.41430 0.10510 0.01900
H 	H 	0.13970 0.14310 0.21010 0.02000
H 	H 	0.09500 0.23120 0.37600 -0.00400
H 	H 	0.64310 0.50710 0.21010 0.02000
H 	H 	0.67590 0.67510 0.32450 0.00500
H 	H 	0.28990 0.85690 0.36030 0.02000
H 	H 	0.37190 0.40850 0.26590 0.03600
H 	H 	0.99290 0.85690 0.78990 0.02000
H 	H 	0.90500 0.70220 0.76880 -0.00400
H 	H 	0.99290 0.36030 0.78990 0.02000
H 	H 	0.22410 0.08910 0.45590 0.00800
H 	H 	0.90500 0.76880 0.70220 -0.00400
H 	H 	0.91430 0.79470 0.10510 0.01900
H 	H 	0.09150 0.12810 0.04630 0.03500
H 	H 	0.70050 0.69230 0.55350 0.01000
H 	H 	0.54630 0.59150 0.12810 0.03500
H 	H 	0.12400 0.70220 0.76880 -0.00400
H 	H 	0.39490 0.81410 0.20530 0.01900
H 	H 	0.55370 0.20050 0.55350 0.01000
H 	H 	0.58910 0.45590 0.23090 0.00800
H 	H 	0.94650 0.79950 0.30770 0.01000
H 	H 	0.55370 0.20050 0.69230 0.01000
H 	H 	0.73090 0.45590 0.72410 0.00800
H 	H 	0.12400 0.40500 0.70220 -0.00400
H 	H 	0.65550 0.90290 0.53870 0.01400
H 	H 	0.90500 0.70220 0.62400 -0.00400
H 	H 	0.58910 0.72410 0.45590 0.00800
H 	H 	0.44630 0.44650 0.79950 0.01000
H 	H 	0.91430 0.79470 0.18590 0.01900
H 	H 	0.26880 0.70220 0.62400 -0.00400
H 	H 	0.24050 0.20010 0.27970 0.02700
H 	H 	0.60510 0.79470 0.41430 0.01900
H 	H 	0.77590 0.54410 0.76910 0.00800
H 	H 	0.73090 0.45590 0.08910 0.00800
H 	H 	0.96130 0.84450 0.09710 0.01400
H 	H 	0.77970 0.74050 0.27970 0.02700
H 	H 	0.96070 0.18350 0.92790 0.03000
H 	H 	0.85130 0.43190 0.43190 0.01200
H 	H 	0.59710 0.09710 0.46130 0.01400
H 	H 	0.29990 0.72030 0.25950 0.02700
H 	H 	0.58910 0.45590 0.72410 0.00800
H 	H 	0.99290 0.36030 0.85690 0.02000
H 	H 	0.96130 0.09710 0.09710 0.01400
H 	H 	0.44630 0.79950 0.44650 0.01000
H 	H 	0.80770 0.94630 0.44650 0.01000
H 	H 	0.29950 0.30770 0.94630 0.01000
H 	H 	0.09150 0.04630 0.73410 0.03500
H 	H 	0.90500 0.62400 0.76880 -0.00400
H 	H 	0.03930 0.07210 0.81650 0.03000
H 	H 	0.39490 0.20530 0.81410 0.01900
H 	H 	0.70010 0.27970 0.74050 0.02700
H 	H 	0.41090 0.27590 0.76910 0.00800
H 	H 	0.32410 0.67550 0.67550 0.00500
H 	H 	0.31410 0.89490 0.20530 0.01900
H 	H 	0.78490 0.43190 0.35130 0.01200
H 	H 	0.82450 0.67510 0.32450 0.00500
H 	H 	0.70050 0.05370 0.69230 0.01000
H 	H 	0.22410 0.45590 0.08910 0.00800
H 	H 	0.05350 0.05370 0.20050 0.01000
H 	H 	0.70050 0.55350 0.69230 0.01000
H 	H 	0.29990 0.25950 0.72030 0.02700
H 	H 	0.93190 0.28490 0.43190 0.01200
H 	H 	0.39490 0.58570 0.20530 0.01900
H 	H 	0.57210 0.07210 0.81650 0.03000
H 	H 	0.76590 0.40850 0.87190 0.03600
H 	H 	0.68350 0.92790 0.46070 0.03000
H 	H 	0.03870 0.90290 0.15550 0.01400
H 	H 	0.70530 0.81410 0.89490 0.01900
H 	H 	0.26880 0.70220 0.40500 -0.00400
H 	H 	0.20220 0.76880 0.62400 -0.00400
H 	H 	0.05350 0.05370 0.69230 0.01000
H 	H 	0.76590 0.95370 0.87190 0.03600
H 	H 	0.19230 0.20050 0.55350 0.01000
H 	H 	0.57210 0.81650 0.53930 0.03000
H 	H 	0.60510 0.18590 0.79470 0.01900
H 	H 	0.94650 0.94630 0.30770 0.01000
H 	H 	0.37190 0.26590 0.95370 0.03600
H 	H 	0.04410 0.76910 0.91090 0.00900
H 	H 	0.31650 0.07210 0.53930 0.03000
H 	H 	0.20220 0.76880 0.40500 -0.00400
H 	H 	0.42790 0.92790 0.18350 0.03000
H 	H 	0.58910 0.72410 0.23090 0.00800
H 	H 	0.70050 0.55350 0.05370 0.01000
H 	H 	0.86030 0.85690 0.49290 0.02000
H 	H 	0.06810 0.71510 0.64870 0.01200
H 	H 	0.91430 0.10510 0.79470 0.01900
H 	H 	0.82450 0.17590 0.32450 0.00500
H 	H 	0.06810 0.64870 0.56810 0.01200
H 	H 	0.75950 0.72030 0.72030 0.02700
H 	H 	0.44630 0.30770 0.79950 0.01000
H 	H 	0.23410 0.04630 0.12810 0.03500
H 	H 	0.37190 0.26590 0.40850 0.03600
H 	H 	0.00710 0.21010 0.63970 0.02000
H 	H 	0.95590 0.72410 0.08910 0.00800
H 	H 	0.90850 0.87190 0.95370 0.03600
H 	H 	0.08570 0.20530 0.89490 0.01900
H 	H 	0.22410 0.23090 0.45590 0.00800
H 	H 	0.17510 0.17590 0.32450 0.00500
H 	H 	0.71010 0.14310 0.50710 0.02000
H 	H 	0.32410 0.67550 0.32490 0.00500
H 	H 	0.04410 0.27590 0.76910 0.00900
H 	H 	0.17550 0.32490 0.67550 0.00500
H 	H 	0.54630 0.12810 0.73410 0.03500
H 	H 	0.09150 0.73410 0.04630 0.03500
H 	H 	0.12400 0.76880 0.70220 -0.00400
H 	H 	0.00710 0.14310 0.63970 0.02000
H 	H 	0.87600 0.59500 0.29780 -0.00400
H 	H 	0.06810 0.71510 0.56810 0.01200
H 	H 	0.26880 0.40500 0.62400 -0.00400
H 	H 	0.22030 0.72030 0.79990 0.02700
H 	H 	0.31650 0.07210 0.07210 0.03000
H 	H 	0.19230 0.05370 0.55350 0.01000
H 	H 	0.55370 0.55350 0.69230 0.01000
H 	H 	0.65550 0.90290 0.90290 0.01400
H 	H 	0.31410 0.20530 0.58570 0.01900
H 	H 	0.21510 0.56810 0.64870 0.01200
H 	H 	0.73090 0.72410 0.45590 0.00800
H 	H 	0.37190 0.40850 0.95370 0.03600
H 	H 	0.19230 0.55350 0.05370 0.01000
H 	H 	0.67590 0.32450 0.67510 0.00500
H 	H 	0.45370 0.40850 0.26590 0.03600
H 	H 	0.54630 0.73410 0.59150 0.03600
H 	H 	0.20220 0.40500 0.76880 -0.00400
H 	H 	0.29470 0.18590 0.41430 0.01900
H 	H 	0.28990 0.49290 0.36030 0.02000
H 	H 	0.41090 0.76910 0.54410 0.00800
H 	H 	0.87600 0.23120 0.29780 -0.00400
H 	H 	0.94650 0.94630 0.79950 0.01000
H 	H 	0.35690 0.36030 0.78990 0.02000
H 	H 	0.62810 0.59150 0.73410 0.03600
H 	H 	0.35690 0.49290 0.78990 0.02000
H 	H 	0.12400 0.40500 0.76880 -0.00400
H 	H 	0.82450 0.17590 0.67510 0.00500
H 	H 	0.42790 0.46070 0.92790 0.03000
H 	H 	0.96070 0.92790 0.18350 0.03000
H 	H 	0.26910 0.27590 0.91090 0.00900
H 	H 	0.79780 0.37600 0.59500 -0.00400
H 	H 	0.14870 0.71510 0.56810 0.01200
H 	H 	0.73090 0.08910 0.45590 0.00800
H 	H 	0.17550 0.82410 0.67550 0.00500
H 	H 	0.64310 0.63970 0.50710 0.02000
H 	H 	0.37190 0.95370 0.40850 0.03600
H 	H 	0.86030 0.78990 0.49290 0.02000
H 	H 	0.76590 0.95370 0.40850 0.03600
H 	H 	0.31410 0.58570 0.89490 0.01900
H 	H 	0.26880 0.40500 0.70220 -0.00400
H 	H 	0.22030 0.25950 0.79990 0.02700
H 	H 	0.70530 0.58570 0.89490 0.01900
H 	H 	0.03930 0.07210 0.07210 0.03000
H 	H 	0.73090 0.72410 0.08910 0.00800
H 	H 	0.20220 0.62400 0.40500 -0.00400
H 	H 	0.40290 0.53870 0.15550 0.01400
H 	H 	0.60510 0.41430 0.18590 0.01900
H 	H 	0.06810 0.56810 0.71510 0.01200
H 	H 	0.28990 0.85690 0.49290 0.02000
H 	H 	0.14870 0.56810 0.56810 0.01200
H 	H 	0.22410 0.45590 0.23090 0.00800
H 	H 	0.17550 0.67550 0.82410 0.00500
H 	H 	0.08570 0.81410 0.89490 0.01900
H 	H 	0.77590 0.91090 0.76910 0.00900
H 	H 	0.73120 0.29780 0.37600 -0.00400
H 	H 	0.00710 0.21010 0.14310 0.02000
H 	H 	0.12400 0.76880 0.40500 -0.00400
H 	H 	0.26910 0.91090 0.54410 0.00900
H 	H 	0.08570 0.20530 0.81410 0.01900
H 	H 	0.95590 0.08910 0.72410 0.00800
H 	H 	0.90500 0.62400 0.70220 -0.00400
H 	H 	0.39490 0.81410 0.58570 0.01900
H 	H 	0.13970 0.14310 0.50710 0.02000
H 	H 	0.71010 0.63970 0.14310 0.02000
H 	H 	0.67590 0.32450 0.32450 0.00500
H 	H 	0.95590 0.72410 0.23090 0.00800
H 	H 	0.60510 0.79470 0.18590 0.01900
H 	H 	0.94650 0.30770 0.94630 0.01000
H 	H 	0.26910 0.27590 0.54410 0.00800
H 	H 	0.09150 0.12810 0.73410 0.03500
H 	H 	0.29950 0.44650 0.94630 0.01000
H 	H 	0.59710 0.09710 0.84450 0.01400
H 	H 	0.90850 0.26590 0.95370 0.03600
H 	H 	0.90850 0.95370 0.87190 0.03600
H 	H 	0.03870 0.90290 0.90290 0.01400
H 	H 	0.23410 0.12810 0.04630 0.03500
H 	H 	0.17510 0.32450 0.17590 0.00500
H 	H 	0.77590 0.54410 0.91090 0.00900
H 	H 	0.95590 0.23090 0.72410 0.00800
H 	H 	0.68590 0.10510 0.79470 0.01900
H 	H 	0.73120 0.37600 0.59500 -0.00400
H 	H 	0.80770 0.79950 0.44650 0.01000
H 	H 	0.05350 0.69230 0.20050 0.01000
H 	H 	0.40290 0.15550 0.53870 0.01400
H 	H 	0.77590 0.76910 0.91090 0.00900
H 	H 	0.93190 0.35130 0.43190 0.01200
H 	H 	0.59710 0.84450 0.09710 0.01400
H 	H 	0.37190 0.95370 0.26590 0.03600
H 	H 	0.29950 0.94630 0.30770 0.01000
H 	H 	0.04410 0.91090 0.27590 0.00900
H 	H 	0.59710 0.46130 0.84450 0.01400
H 	H 	0.22030 0.25950 0.72030 0.02700
H 	H 	0.77590 0.76910 0.54410 0.00800
H 	H 	0.90850 0.26590 0.87190 0.03600
H 	H 	0.70010 0.74050 0.27970 0.02700
H 	H 	0.22410 0.23090 0.08910 0.00800
H 	H 	0.41090 0.54410 0.76910 0.00800
H 	H 	0.24050 0.27970 0.20010 0.02700
H 	H 	0.23410 0.59150 0.04630 0.03500
H 	H 	0.86030 0.49290 0.85690 0.02000
H 	H 	0.08570 0.89490 0.81410 0.01900
H 	H 	0.04410 0.76910 0.27590 0.00900
H 	H 	0.35690 0.78990 0.36030 0.02000
H 	H 	0.87600 0.23120 0.59500 -0.00400
H 	H 	0.45370 0.26590 0.87190 0.03600
H 	H 	0.22030 0.79990 0.25950 0.02700
H 	H 	0.80770 0.44650 0.79950 0.01000
H 	H 	0.26880 0.62400 0.70220 -0.00400
H 	H 	0.21510 0.64870 0.56810 0.01200
H 	H 	0.17550 0.82410 0.32490 0.00500
H 	H 	0.70050 0.05370 0.55350 0.01000
H 	H 	0.31410 0.89490 0.58570 0.01900
H 	H 	0.08570 0.81410 0.20530 0.01900
H 	H 	0.45370 0.40850 0.87190 0.03600
H 	H 	0.20220 0.62400 0.76880 -0.00400
H 	H 	0.45370 0.87190 0.40850 0.03600
H 	H 	0.80770 0.44650 0.94630 0.01000
H 	H 	0.82450 0.67510 0.17590 0.00500
H 	H 	0.75950 0.79990 0.72030 0.02700
H 	H 	0.79780 0.23120 0.37600 -0.00400
H 	H 	0.26910 0.54410 0.91090 0.00900
H 	H 	0.31410 0.20530 0.89490 0.01900
H 	H 	0.57210 0.07210 0.53930 0.03000
H 	H 	0.03930 0.81650 0.07210 0.03000
H 	H 	0.14870 0.56810 0.71510 0.01200
H 	H 	0.77970 0.20010 0.74050 0.02700
H 	H 	0.79780 0.37600 0.23120 -0.00400
H 	H 	0.19230 0.55350 0.20050 0.01000
H 	H 	0.57210 0.53930 0.07210 0.03000
H 	H 	0.26910 0.91090 0.27590 0.00900
H 	H 	0.86030 0.78990 0.85690 0.02000
H 	H 	0.86030 0.49290 0.78990 0.02000
H 	H 	0.68350 0.46070 0.92790 0.03000
H 	H 	0.31410 0.58570 0.20530 0.01900
H 	H 	0.05350 0.20050 0.69230 0.01000
H 	H 	0.06810 0.64870 0.71510 0.01200
H 	H 	0.35690 0.49290 0.36030 0.02000
H 	H 	0.17510 0.32450 0.32450 0.00500
H 	H 	0.39490 0.20530 0.58570 0.01900
H 	H 	0.54630 0.73410 0.12810 0.03500
H 	H 	0.96130 0.09710 0.84450 0.01400
H 	H 	0.57210 0.53930 0.81650 0.03000
H 	H 	0.82450 0.32450 0.67510 0.00500
H 	H 	0.62810 0.73410 0.59150 0.03600
H 	H 	0.21510 0.56810 0.56810 0.01200
H 	H 	0.78490 0.43190 0.43190 0.01200
H 	H 	0.87600 0.29780 0.59500 -0.00400
H 	H 	0.39490 0.58570 0.81410 0.01900
H 	H 	0.29470 0.18590 0.10510 0.01900
H 	H 	0.09500 0.29780 0.37600 -0.00400
H 	H 	0.80770 0.94630 0.79950 0.01000
H 	H 	0.29470 0.10510 0.41430 0.01900
H 	H 	0.23410 0.12810 0.59150 0.03500
H 	H 	0.71010 0.50710 0.14310 0.02000
H 	H 	0.55370 0.69230 0.55350 0.01000
H 	H 	0.90500 0.76880 0.62400 -0.00400
H 	H 	0.54630 0.12810 0.59150 0.03500
H 	H 	0.09500 0.37600 0.23120 -0.00400
H 	H 	0.65550 0.53870 0.90290 0.01400
H 	H 	0.70010 0.27970 0.27970 0.02700
H 	H 	0.32410 0.32490 0.67550 0.00500
H 	H 	0.70530 0.89490 0.81410 0.01900
H 	H 	0.77970 0.27970 0.20010 0.02700
H 	H 	0.55370 0.55350 0.20050 0.01000
H 	H 	0.28990 0.36030 0.85690 0.02000
H 	H 	0.29470 0.41430 0.18590 0.01900
H 	H 	0.35690 0.78990 0.49290 0.02000
H 	H 	0.29950 0.30770 0.44650 0.01000
H 	H 	0.00710 0.63970 0.14310 0.02000
H 	H 	0.60510 0.41430 0.79470 0.01900
H 	H 	0.82490 0.67550 0.67550 0.00500
H 	H 	0.68590 0.10510 0.41430 0.01900
H 	H 	0.93190 0.43190 0.35130 0.01200
H 	H 	0.86030 0.85690 0.78990 0.02000
H 	H 	0.28990 0.36030 0.49290 0.02000
H 	H 	0.59710 0.46130 0.09710 0.01400
H 	H 	0.24050 0.27970 0.27970 0.02700
H 	H 	0.29990 0.72030 0.72030 0.02700
H 	H 	0.59710 0.84450 0.46130 0.01400
H 	H 	0.28990 0.49290 0.85690 0.02000
H 	H 	0.57210 0.81650 0.07210 0.03000
H 	H 	0.41090 0.27590 0.54410 0.00800
C 	C 	0.10602 0.31222 0.35842 0.21100
C 	C 	0.15364 0.19096 0.32770 0.17800
C 	C 	0.61517 0.80127 0.16307 0.13900
C 	C 	0.65952 0.45052 0.83008 0.51200
C 	C 	0.38483 0.83693 0.57951 0.13900
C 	C 	0.14121 0.56759 0.10501 0.49100
C 	C 	0.78492 0.23780 0.73948 -0.16800
C 	C 	0.70600 0.87220 0.97300 0.48100
C 	C 	0.02252 0.77850 0.31804 -0.21100
C 	C 	0.93848 0.82156 0.14362 -0.20500
C 	C 	0.61906 0.22150 0.68196 -0.21000
C 	C 	0.06390 0.61070 0.71470 -0.22200
C 	C 	0.17230 0.34636 0.67230 0.17800
C 	C 	0.71101 0.65819 0.50661 0.13000
C 	C 	0.97620 0.70870 0.22380 0.16600
C 	C 	0.29400 0.02700 0.12780 0.48200
C 	C 	0.08520 0.10940 0.06040 0.08200
C 	C 	0.29400 0.55120 0.02700 0.48200
C 	C 	0.41230 0.27110 0.40430 -0.15100
C 	C 	0.79130 0.77620 0.52380 0.16400
C 	C 	0.70600 0.44880 0.97300 0.48100
C 	C 	0.94632 0.22752 0.67908 0.53700
C 	C 	0.41230 0.40430 0.91230 -0.15100
C 	C 	0.45880 0.49940 0.78560 0.55900
C 	C 	0.08914 0.85040 0.21006 -0.20800
C 	C 	0.96593 0.92913 0.79467 0.15800
C 	C 	0.71570 0.06746 0.71268 -0.24400
C 	C 	0.29822 0.33602 0.90118 -0.19400
C 	C 	0.17230 0.34636 0.80904 0.17800
C 	C 	0.16190 0.66190 0.40954 -0.28800
C 	C 	0.18196 0.11906 0.47748 -0.21000
C 	C 	0.27620 0.52380 0.29130 0.16400
C 	C 	0.60220 0.56480 0.77820 -0.14900
C 	C 	0.28430 0.28732 0.93254 -0.24400
C 	C 	0.32980 0.82980 0.23526 0.54200
C 	C 	0.80587 0.20189 0.35441 -0.26200
C 	C 	0.38960 0.55192 0.16888 0.14100
C 	C 	0.18778 0.64158 0.77666 0.21100
C 	C 	0.57570 0.55370 0.79490 0.08400
C 	C 	0.10602 0.31222 0.22334 0.21100
C 	C 	0.34048 0.54948 0.16992 0.51200
C 	C 	0.21484 0.57900 0.62716 0.15700
C 	C 	0.96850 0.37110 0.28930 0.52200
C 	C 	0.29400 0.02700 0.55120 0.48200
C 	C 	0.16190 0.40954 0.76666 -0.28800
C 	C 	0.70600 0.44880 0.87220 0.48200
C 	C 	0.44520 0.22180 0.43520 -0.14900
C 	C 	0.09570 0.08770 0.08770 -0.15200
C 	C 	0.60501 0.18619 0.64121 0.49100
C 	C 	0.70533 0.07087 0.53407 0.15900
C 	C 	0.12890 0.71070 0.53150 0.52200
C 	C 	0.70189 0.35441 0.63783 -0.26200
C 	C 	0.38094 0.52252 0.31804 -0.21000
C 	C 	0.06759 0.10501 0.18619 0.49100
C 	C 	0.89486 0.76474 0.17020 0.54200
C 	C 	0.27810 0.73090 0.73090 0.10800
C 	C 	0.72150 0.68196 0.47748 -0.21000
C 	C 	0.35638 0.56152 0.90366 -0.20500
C 	C 	0.44012 0.54948 0.84048 0.51200
C 	C 	0.64960 0.78994 0.41086 -0.20800
C 	C 	0.26666 0.40954 0.66190 -0.28800
C 	C 	0.21508 0.76220 0.26052 -0.16800
C 	C 	0.03407 0.07087 0.68973 0.15900
C 	C 	0.96593 0.79467 0.31027 0.15900
C 	C 	0.70510 0.92430 0.92430 0.08400
C 	C 	0.79130 0.52380 0.77620 0.16400
C 	C 	0.89398 0.77666 0.68778 0.21100
C 	C 	0.99339 0.87581 0.78899 0.13200
C 	C 	0.62780 0.55120 0.79400 0.48200
C 	C 	0.54120 0.21440 0.50060 0.55900
C 	C 	0.86217 0.69413 0.64559 -0.26200
C 	C 	0.81027 0.79467 0.46593 0.15800
C 	C 	0.72752 0.67908 0.44632 0.53700
C 	C 	0.17230 0.80904 0.67230 0.17800
C 	C 	0.40118 0.79822 0.33602 -0.19400
C 	C 	0.45880 0.25620 0.78560 0.55900
C 	C 	0.93241 0.35879 0.89499 0.49100
C 	C 	0.27248 0.55368 0.32092 0.53700
C 	C 	0.55988 0.45052 0.83008 0.51200
C 	C 	0.72334 0.31222 0.60602 0.21100
C 	C 	0.29822 0.46458 0.90118 -0.19400
C 	C 	0.40870 0.77620 0.29130 0.16400
C 	C 	0.58770 0.08770 0.59570 -0.15200
C 	C 	0.57087 0.68973 0.20533 0.15800
C 	C 	0.82770 0.65364 0.19096 0.17800
C 	C 	0.71570 0.06746 0.50416 -0.24400
C 	C 	0.54120 0.21440 0.74380 0.55900
C 	C 	0.54120 0.50060 0.74380 0.55900
C 	C 	0.21070 0.53150 0.62890 0.52200
C 	C 	0.60940 0.58520 0.06040 0.08200
C 	C 	0.32980 0.60514 0.82980 0.54200
C 	C 	0.91086 0.78994 0.14960 -0.20700
C 	C 	0.96593 0.31027 0.79467 0.15900
C 	C 	0.62419 0.50661 0.21101 0.13000
C 	C 	0.39499 0.81381 0.43241 0.49100
C 	C 	0.59130 0.22380 0.47620 0.16400
C 	C 	0.81222 0.22334 0.60602 0.21100
C 	C 	0.24500 0.06040 0.58520 0.08200
C 	C 	0.97748 0.68196 0.11906 -0.20900
C 	C 	0.61040 0.11040 0.44808 0.14100
C 	C 	0.82138 0.22080 0.73702 0.49000
C 	C 	0.66307 0.80127 0.42049 0.13900
C 	C 	0.59130 0.70870 0.22380 0.16400
C 	C 	0.84636 0.67230 0.80904 0.17800
C 	C 	0.37581 0.49339 0.78899 0.13000
C 	C 	0.45880 0.78560 0.49940 0.55900
C 	C 	0.59130 0.47620 0.22380 0.16400
C 	C 	0.72180 0.94520 0.43520 -0.14900
C 	C 	0.14121 0.10501 0.18619 0.49100
C 	C 	0.18973 0.07087 0.20533 0.15900
C 	C 	0.68619 0.64121 0.10501 0.49100
C 	C 	0.27920 0.26298 0.77920 0.49000
C 	C 	0.40870 0.52380 0.29130 0.16400
C 	C 	0.23702 0.32138 0.22080 0.49000
C 	C 	0.00416 0.21570 0.71268 -0.24500
C 	C 	0.85879 0.81381 0.43241 0.49100
C 	C 	0.29490 0.07570 0.07570 0.08400
C 	C 	0.29400 0.12780 0.02700 0.48200
C 	C 	0.17862 0.77920 0.26298 0.49000
C 	C 	0.81804 0.88094 0.52252 -0.21000
C 	C 	0.16398 0.53542 0.20178 -0.19400
C 	C 	0.66888 0.55192 0.88960 0.14100
C 	C 	0.93610 0.38930 0.38930 -0.22100
C 	C 	0.27850 0.31804 0.52252 -0.21000
C 	C 	0.84410 0.72350 0.80662 0.56200
C 	C 	0.27850 0.31804 0.88094 -0.21000
C 	C 	0.03542 0.09882 0.20178 -0.19400
C 	C 	0.69873 0.83693 0.57951 0.13900
C 	C 	0.00661 0.12419 0.65819 0.12900
C 	C 	0.28899 0.87581 0.34181 0.13000
C 	C 	0.73780 0.23780 0.73948 -0.16800
C 	C 	0.29490 0.55370 0.07570 0.08400
C 	C 	0.57570 0.79490 0.55370 0.08400
C 	C 	0.05120 0.02700 0.79400 0.48200
C 	C 	0.16190 0.76666 0.66190 -0.28800
C 	C 	0.00661 0.12419 0.21101 0.12900
C 	C 	0.56746 0.50416 0.21570 -0.24400
C 	C 	0.85441 0.20189 0.63783 -0.26200
C 	C 	0.84636 0.67230 0.67230 0.17800
C 	C 	0.47300 0.44880 0.87220 0.48200
C 	C 	0.84181 0.78899 0.87581 0.13000
C 	C 	0.79130 0.77620 0.90870 0.16400
C 	C 	0.32980 0.60514 0.23526 0.54200
C 	C 	0.02252 0.31804 0.77850 -0.21100
C 	C 	0.59130 0.70870 0.47620 0.16400
C 	C 	0.62419 0.21101 0.65819 0.13000
C 	C 	0.41230 0.91230 0.27110 -0.15100
C 	C 	0.29467 0.92913 0.31027 0.15800
C 	C 	0.77650 0.37422 0.65590 0.56200
C 	C 	0.61906 0.68196 0.47748 -0.21000
C 	C 	0.23948 0.23780 0.23780 -0.16800
C 	C 	0.00416 0.21570 0.06746 -0.24500
C 	C 	0.29467 0.46593 0.31027 0.15800
C 	C 	0.78492 0.23780 0.23780 -0.16800
C 	C 	0.75844 0.34140 0.55876 0.54800
C 	C 	0.64362 0.82156 0.43848 -0.20500
C 	C 	0.59130 0.47620 0.70870 0.16400
C 	C 	0.17908 0.22752 0.14708 0.53700
C 	C 	0.58770 0.59570 0.72890 -0.15100
C 	C 	0.78732 0.49584 0.93254 -0.24400
C 	C 	0.55480 0.77820 0.10220 -0.14900
C 	C 	0.13783 0.20189 0.35441 -0.26200
C 	C 	0.69873 0.57951 0.83693 0.13900
C 	C 	0.21268 0.21570 0.06746 -0.24400
C 	C 	0.39499 0.35879 0.43241 0.49100
C 	C 	0.10602 0.35842 0.31222 0.21100
C 	C 	0.14559 0.36217 0.79811 -0.26200
C 	C 	0.94632 0.67908 0.22752 0.53700
C 	C 	0.66888 0.88960 0.88960 0.14100
C 	C 	0.99339 0.34181 0.78899 0.13200
C 	C 	0.02252 0.77850 0.88094 -0.21100
C 	C 	0.13783 0.20189 0.30587 -0.26200
C 	C 	0.15590 0.37422 0.27650 0.56200
C 	C 	0.27666 0.68778 0.64158 0.21100
C 	C 	0.59580 0.61540 0.69300 0.47300
C 	C 	0.33112 0.11040 0.11040 0.14100
C 	C 	0.29811 0.36217 0.64559 -0.26200
C 	C 	0.58770 0.08770 0.72890 -0.15200
C 	C 	0.41230 0.40430 0.27110 -0.15100
C 	C 	0.76910 0.22190 0.26910 0.10800
C 	C 	0.84410 0.80662 0.72350 0.56200
C 	C 	0.66307 0.42049 0.80127 0.13900
C 	C 	0.14158 0.68778 0.77666 0.21100
C 	C 	0.00416 0.06746 0.71268 -0.24500
C 	C 	0.62780 0.02700 0.55120 0.48200
C 	C 	0.70178 0.66398 0.53542 -0.19400
C 	C 	0.68619 0.10501 0.56759 0.49100
C 	C 	0.92100 0.28516 0.42100 0.15700
C 	C 	0.62780 0.55120 0.02700 0.48200
C 	C 	0.67020 0.17020 0.76474 0.54200
C 	C 	0.39060 0.25500 0.41480 0.08200
C 	C 	0.23948 0.28492 0.23780 -0.16800
C 	C 	0.97620 0.22380 0.09130 0.16600
C 	C 	0.33008 0.15952 0.45052 0.51200
C 	C 	0.75620 0.95880 0.78560 0.55900
C 	C 	0.72180 0.43520 0.94520 -0.14900
C 	C 	0.83810 0.59046 0.33810 -0.28800
C 	C 	0.15860 0.65860 0.74156 0.54800
C 	C 	0.95052 0.15952 0.05988 0.51100
C 	C 	0.60940 0.58520 0.74500 0.08200
C 	C 	0.15860 0.74156 0.65860 0.54800
C 	C 	0.30662 0.62578 0.34410 0.56200
C 	C 	0.96593 0.79467 0.92913 0.15800
C 	C 	0.23990 0.26910 0.26910 0.10800
C 	C 	0.40366 0.85638 0.56152 -0.20500
C 	C 	0.85842 0.22334 0.60602 0.21100
C 	C 	0.33693 0.57951 0.88483 0.13900
C 	C 	0.82770 0.32770 0.19096 0.17800
C 	C 	0.87110 0.37110 0.46850 0.52200
C 	C 	0.54120 0.74380 0.50060 0.55900
C 	C 	0.42913 0.79467 0.46593 0.15800
C 	C 	0.29811 0.64559 0.36217 -0.26200
C 	C 	0.71101 0.12419 0.65819 0.13000
C 	C 	0.05368 0.85292 0.77248 0.53800
C 	C 	0.06152 0.85638 0.17844 -0.20500
C 	C 	0.26666 0.66190 0.66190 -0.28800
C 	C 	0.67020 0.76474 0.17020 0.54200
C 	C 	0.35292 0.32092 0.55368 0.53700
C 	C 	0.34048 0.16992 0.94012 0.51200
C 	C 	0.96458 0.90118 0.79822 -0.19400
C 	C 	0.05876 0.34140 0.25844 0.54800
C 	C 	0.69338 0.37422 0.65590 0.56200
C 	C 	0.77650 0.19338 0.65590 0.56200
C 	C 	0.24380 0.21440 0.50060 0.55900
C 	C 	0.59580 0.09580 0.61540 0.47300
C 	C 	0.64960 0.78994 0.14960 -0.20800
C 	C 	0.87422 0.65590 0.27650 0.56200
C 	C 	0.99584 0.78430 0.93254 -0.24300
C 	C 	0.44520 0.43520 0.89780 -0.14900
C 	C 	0.35040 0.58914 0.21006 -0.20800
C 	C 	0.13783 0.35441 0.20189 -0.26200
C 	C 	0.00661 0.65819 0.12419 0.12900
C 	C 	0.58770 0.72890 0.59570 -0.15100
C 	C 	0.57087 0.53407 0.20533 0.15800
C 	C 	0.10602 0.22334 0.31222 0.21100
C 	C 	0.04948 0.94012 0.16992 0.51200
C 	C 	0.02380 0.29130 0.77620 0.16300
C 	C 	0.70178 0.53542 0.66398 -0.19400
C 	C 	0.91480 0.93960 0.89060 0.08100
C 	C 	0.38483 0.19873 0.57951 0.13900
C 	C 	0.93241 0.81381 0.35879 0.49100
C 	C 	0.52700 0.12780 0.79400 0.48200
C 	C 	0.24500 0.06040 0.10940 0.08200
C 	C 	0.55988 0.15952 0.45052 0.51200
C 	C 	0.93520 0.22180 0.94520 -0.14900
C 	C 	0.18778 0.39398 0.77666 0.21100
C 	C 	0.07900 0.57900 0.71484 0.15700
C 	C 	0.69096 0.32770 0.32770 0.17800
C 	C 	0.23702 0.22080 0.22080 0.49000
C 	C 	0.69873 0.88483 0.57951 0.13900
C 	C 	0.88930 0.43610 0.38930 -0.22100
C 	C 	0.12890 0.53150 0.62890 0.52200
C 	C 	0.76010 0.73090 0.73090 0.10800
C 	C 	0.24156 0.65860 0.44124 0.54800
C 	C 	0.61517 0.42049 0.80127 0.13900
C 	C 	0.43254 0.78430 0.28732 -0.24400
C 	C 	0.29811 0.69413 0.36217 -0.26200
C 	C 	0.02380 0.77620 0.90870 0.16300
C 	C 	0.67020 0.76474 0.39486 0.54200
C 	C 	0.07951 0.83693 0.88483 0.13900
C 	C 	0.21268 0.50416 0.06746 -0.24400
C 	C 	0.19413 0.64559 0.36217 -0.26200
C 	C 	0.28560 0.95880 0.49940 0.55900
C 	C 	0.20870 0.22380 0.09130 0.16400
C 	C 	0.72752 0.14708 0.67908 0.53700
C 	C 	0.26220 0.76220 0.26052 -0.16800
C 	C 	0.38483 0.57951 0.19873 0.13900
C 	C 	0.27820 0.56480 0.05480 -0.15000
C 	C 	0.99584 0.93254 0.78430 -0.24300
C 	C 	0.38483 0.19873 0.83693 0.13900
C 	C 	0.96850 0.37110 0.37110 0.52200
C 	C 	0.75500 0.93960 0.41480 0.08200
C 	C 	0.59882 0.53542 0.20178 -0.19400
C 	C 	0.76052 0.76220 0.76220 -0.16800
C 	C 	0.09570 0.08770 0.72890 -0.15200
C 	C 	0.34048 0.94012 0.16992 0.51200
C 	C 	0.13783 0.30587 0.35441 -0.26200
C 	C 	0.65952 0.83008 0.05988 0.51100
C 	C 	0.52700 0.55120 0.79400 0.48200
C 	C 	0.72190 0.73990 0.26910 0.10800
C 	C 	0.10514 0.23526 0.82980 0.54200
C 	C 	0.52700 0.12780 0.55120 0.48200
C 	C 	0.06152 0.90366 0.17844 -0.20500
C 	C 	0.05192 0.88960 0.16888 0.14100
C 	C 	0.76910 0.73990 0.26910 0.10800
C 	C 	0.07951 0.19873 0.83693 0.13900
C 	C 	0.15819 0.21101 0.12419 0.13000
C 	C 	0.29467 0.92913 0.46593 0.15800
C 	C 	0.59634 0.82156 0.43848 -0.20500
C 	C 	0.78732 0.78430 0.49584 -0.24400
C 	C 	0.04948 0.16992 0.84048 0.51100
C 	C 	0.72380 0.70870 0.09130 0.16400
C 	C 	0.56040 0.74500 0.58520 0.08200
C 	C 	0.26220 0.71508 0.76220 -0.16800
C 	C 	0.71101 0.65819 0.12419 0.13000
C 	C 	0.29811 0.69413 0.64559 -0.26200
C 	C 	0.14559 0.69413 0.36217 -0.26200
C 	C 	0.94630 0.92430 0.20510 0.08400
C 	C 	0.05120 0.79400 0.02700 0.48200
C 	C 	0.86217 0.69413 0.79811 -0.26100
C 	C 	0.92049 0.80127 0.16307 0.13900
C 	C 	0.23990 0.26910 0.22190 0.10800
C 	C 	0.15590 0.37422 0.19338 0.56200
C 	C 	0.89398 0.77666 0.64158 0.21100
C 	C 	0.91480 0.89060 0.93960 0.08100
C 	C 	0.43960 0.25500 0.41480 0.08200
C 	C 	0.12578 0.34410 0.72350 0.56200
C 	C 	0.39499 0.35879 0.81381 0.49100
C 	C 	0.93848 0.82156 0.09634 -0.20400
C 	C 	0.82770 0.32770 0.65364 0.17800
C 	C 	0.22350 0.80662 0.62578 0.56200
C 	C 	0.23090 0.26010 0.73090 0.10800
C 	C 	0.30662 0.34410 0.62578 0.56200
C 	C 	0.05368 0.32092 0.77248 0.53800
C 	C 	0.24380 0.04120 0.21440 0.55900
C 	C 	0.35292 0.77248 0.55368 0.53700
C 	C 	0.64362 0.43848 0.82156 -0.20500
C 	C 	0.73780 0.73948 0.23780 -0.16800
C 	C 	0.64960 0.41086 0.14960 -0.20800
C 	C 	0.89398 0.68778 0.64158 0.21100
C 	C 	0.47300 0.20600 0.44880 0.48200
C 	C 	0.70510 0.92430 0.44630 0.08400
C 	C 	0.29400 0.12780 0.55120 0.48200
C 	C 	0.12578 0.80662 0.72350 0.56200
C 	C 	0.83602 0.79822 0.90118 -0.19400
C 	C 	0.33008 0.45052 0.15952 0.51200
C 	C 	0.40870 0.29130 0.77620 0.16400
C 	C 	0.27666 0.39398 0.68778 0.21100
C 	C 	0.90954 0.66190 0.76666 -0.28800
C 	C 	0.72180 0.89780 0.43520 -0.14900
C 	C 	0.28994 0.41086 0.14960 -0.20800
C 	C 	0.32980 0.23526 0.82980 0.54200
C 	C 	0.16190 0.76666 0.40954 -0.28800
C 	C 	0.30127 0.42049 0.16307 0.13900
C 	C 	0.27620 0.90870 0.52380 0.16400
C 	C 	0.39780 0.43520 0.22180 -0.14900
C 	C 	0.11540 0.69300 0.09580 0.47300
C 	C 	0.44520 0.89780 0.43520 -0.14900
C 	C 	0.06480 0.77820 0.10220 -0.14900
C 	C 	0.81222 0.60602 0.22334 0.21100
C 	C 	0.62780 0.79400 0.55120 0.48200
C 	C 	0.19413 0.64559 0.79811 -0.26200
C 	C 	0.61040 0.44808 0.11040 0.14100
C 	C 	0.92100 0.37284 0.28516 0.15700
C 	C 	0.17908 0.44632 0.22752 0.53700
C 	C 	0.15860 0.44124 0.65860 0.54800
C 	C 	0.76052 0.71508 0.76220 -0.16800
C 	C 	0.27850 0.88094 0.52252 -0.21000
C 	C 	0.37220 0.44880 0.20600 0.48200
C 	C 	0.28899 0.49339 0.34181 0.13000
C 	C 	0.72334 0.35842 0.60602 0.21100
C 	C 	0.15819 0.50661 0.12419 0.13000
C 	C 	0.08520 0.74500 0.10940 0.08200
C 	C 	0.00060 0.04120 0.74380 0.55800
C 	C 	0.97620 0.09130 0.22380 0.16600
C 	C 	0.89398 0.68778 0.77666 0.21100
C 	C 	0.77650 0.19338 0.37422 0.56200
C 	C 	0.71570 0.50416 0.71268 -0.24400
C 	C 	0.81222 0.35842 0.60602 0.21100
C 	C 	0.18973 0.20533 0.07087 0.15900
C 	C 	0.19300 0.09580 0.09580 0.47300
C 	C 	0.75844 0.34140 0.34140 0.54800
C 	C 	0.69873 0.88483 0.83693 0.13900
C 	C 	0.05368 0.32092 0.85292 0.53800
C 	C 	0.18973 0.07087 0.53407 0.15900
C 	C 	0.45880 0.49940 0.25620 0.55900
C 	C 	0.22350 0.34410 0.80662 0.56200
C 	C 	0.37220 0.20600 0.44880 0.48200
C 	C 	0.61906 0.47748 0.68196 -0.21000
C 	C 	0.76298 0.77920 0.77920 0.49000
C 	C 	0.12890 0.62890 0.53150 0.52200
C 	C 	0.76010 0.77810 0.73090 0.10800
C 	C 	0.20870 0.22380 0.47620 0.16400
C 	C 	0.76052 0.76220 0.71508 -0.16800
C 	C 	0.40366 0.56152 0.17844 -0.20500
C 	C 	0.87110 0.28930 0.37110 0.52200
C 	C 	0.43254 0.49584 0.28732 -0.24400
C 	C 	0.69873 0.57951 0.88483 0.13900
C 	C 	0.67844 0.56152 0.85638 -0.20500
C 	C 	0.75620 0.78560 0.49940 0.55900
C 	C 	0.87422 0.27650 0.19338 0.56200
C 	C 	0.87422 0.65590 0.19338 0.56200
C 	C 	0.76910 0.22190 0.73990 0.10800
C 	C 	0.40118 0.79822 0.46458 -0.19400
C 	C 	0.39060 0.41480 0.25500 0.08200
C 	C 	0.27820 0.05480 0.10220 -0.15000
C 	C 	0.12716 0.57900 0.57900 0.15700
C 	C 	0.17230 0.67230 0.80904 0.17800
C 	C 	0.21070 0.62890 0.62890 0.52200
C 	C 	0.38094 0.31804 0.52252 -0.21000
C 	C 	0.57087 0.20533 0.68973 0.15800
C 	C 	0.15590 0.19338 0.27650 0.56200
C 	C 	0.03150 0.62890 0.62890 0.52300
C 	C 	0.21470 0.56390 0.61070 -0.22100
C 	C 	0.78930 0.46850 0.37110 0.52200
C 	C 	0.30904 0.34636 0.67230 0.17800
C 	C 	0.34048 0.16992 0.54948 0.51200
C 	C 	0.70510 0.44630 0.92430 0.08400
C 	C 	0.40366 0.85638 0.17844 -0.20500
C 	C 	0.80587 0.63783 0.35441 -0.26100
C 	C 	0.85441 0.63783 0.20189 -0.26200
C 	C 	0.90430 0.91230 0.91230 -0.15100
C 	C 	0.05876 0.34140 0.34140 0.54800
C 	C 	0.00060 0.21440 0.74380 0.55700
C 	C 	0.94808 0.11040 0.83112 0.14100
C 	C 	0.58770 0.72890 0.08770 -0.15200
C 	C 	0.05368 0.77248 0.32092 0.53800
C 	C 	0.87110 0.46850 0.37110 0.52200
C 	C 	0.78930 0.37110 0.46850 0.52200
C 	C 	0.03150 0.62890 0.71070 0.52300
C 	C 	0.14158 0.39398 0.68778 0.21100
C 	C 	0.88930 0.43610 0.28530 -0.22100
C 	C 	0.11070 0.61070 0.71470 -0.22100
C 	C 	0.35638 0.17844 0.56152 -0.20500
C 	C 	0.10514 0.82980 0.82980 0.54200
C 	C 	0.31381 0.89499 0.43241 0.49100
C 	C 	0.71006 0.85040 0.58914 -0.20700
C 	C 	0.91480 0.25500 0.89060 0.08200
C 	C 	0.44520 0.22180 0.89780 -0.14900
C 	C 	0.28560 0.49940 0.95880 0.55900
C 	C 	0.99940 0.78560 0.25620 0.56000
C 	C 	0.19300 0.09580 0.61540 0.47300
C 	C 	0.47300 0.87220 0.20600 0.48200
C 	C 	0.27620 0.29130 0.90870 0.16400
C 	C 	0.29822 0.46458 0.33602 -0.19400
C 	C 	0.27820 0.10220 0.56480 -0.14900
C 	C 	0.28560 0.95880 0.25620 0.55900
C 	C 	0.57087 0.68973 0.53407 0.15800
C 	C 	0.59580 0.61540 0.09580 0.47300
C 	C 	0.28430 0.93254 0.49584 -0.24400
C 	C 	0.05192 0.88960 0.88960 0.14100
C 	C 	0.06152 0.17844 0.85638 -0.20500
C 	C 	0.73334 0.59046 0.33810 -0.28800
C 	C 	0.54120 0.50060 0.21440 0.55900
C 	C 	0.07900 0.62716 0.71484 0.15700
C 	C 	0.61517 0.80127 0.42049 0.13900
C 	C 	0.57570 0.55370 0.07570 0.08400
C 	C 	0.17908 0.44632 0.14708 0.53700
C 	C 	0.57570 0.07570 0.79490 0.08400
C 	C 	0.60501 0.18619 0.56759 0.49100
C 	C 	0.59882 0.53542 0.66398 -0.19400
C 	C 	0.69096 0.65364 0.32770 0.17800
C 	C 	0.18778 0.39398 0.64158 0.21100
C 	C 	0.61040 0.11040 0.83112 0.14100
C 	C 	0.12716 0.57900 0.71484 0.15700
C 	C 	0.84140 0.25844 0.34140 0.54800
C 	C 	0.21470 0.61070 0.56390 -0.22100
C 	C 	0.66307 0.11517 0.80127 0.13900
C 	C 	0.86217 0.79811 0.69413 -0.26100
C 	C 	0.85842 0.31222 0.22334 0.21100
C 	C 	0.70189 0.35441 0.30587 -0.26200
C 	C 	0.80587 0.35441 0.20189 -0.26200
C 	C 	0.57570 0.79490 0.07570 0.08400
C 	C 	0.70533 0.68973 0.53407 0.15800
C 	C 	0.16190 0.40954 0.66190 -0.28800
C 	C 	0.32980 0.23526 0.60514 0.54200
C 	C 	0.71006 0.58914 0.85040 -0.20700
C 	C 	0.94124 0.74156 0.65860 0.54900
C 	C 	0.37581 0.78899 0.34181 0.13000
C 	C 	0.61906 0.22150 0.47748 -0.21000
C 	C 	0.27248 0.32092 0.55368 0.53700
C 	C 	0.80700 0.90420 0.90420 0.47300
C 	C 	0.83602 0.46458 0.90118 -0.19400
C 	C 	0.56040 0.10940 0.74500 0.08200
C 	C 	0.77110 0.91230 0.40430 -0.15100
C 	C 	0.24380 0.21440 0.04120 0.55900
C 	C 	0.16398 0.09882 0.20178 -0.19500
C 	C 	0.67844 0.90366 0.85638 -0.20500
C 	C 	0.06759 0.10501 0.64121 0.49100
C 	C 	0.39780 0.94520 0.43520 -0.14900
C 	C 	0.03150 0.71070 0.62890 0.52300
C 	C 	0.18778 0.77666 0.39398 0.21100
C 	C 	0.70600 0.97300 0.44880 0.48100
C 	C 	0.26220 0.26052 0.76220 -0.16800
C 	C 	0.93241 0.89499 0.81381 0.49100
C 	C 	0.96458 0.33602 0.90118 -0.19400
C 	C 	0.42913 0.31027 0.46593 0.15800
C 	C 	0.72080 0.73702 0.22080 0.49000
C 	C 	0.70600 0.87220 0.44880 0.48200
C 	C 	0.70189 0.30587 0.63783 -0.26200
C 	C 	0.15819 0.12419 0.50661 0.13000
C 	C 	0.73526 0.82980 0.82980 0.54200
C 	C 	0.78516 0.42100 0.37284 0.15700
C 	C 	0.40870 0.29130 0.52380 0.16400
C 	C 	0.87110 0.28930 0.46850 0.52200
C 	C 	0.70178 0.09882 0.66398 -0.19400
C 	C 	0.55480 0.10220 0.56480 -0.14900
C 	C 	0.22350 0.34410 0.62578 0.56200
C 	C 	0.52700 0.79400 0.55120 0.48200
C 	C 	0.80587 0.35441 0.63783 -0.26100
C 	C 	0.22890 0.08770 0.08770 -0.15200
C 	C 	0.77650 0.65590 0.19338 0.56200
C 	C 	0.16398 0.20178 0.09882 -0.19500
C 	C 	0.18196 0.11906 0.22150 -0.21000
C 	C 	0.94808 0.83112 0.11040 0.14100
C 	C 	0.16398 0.20178 0.53542 -0.19400
C 	C 	0.69096 0.32770 0.65364 0.17800
C 	C 	0.29822 0.90118 0.46458 -0.19400
C 	C 	0.00060 0.74380 0.21440 0.55700
C 	C 	0.35638 0.17844 0.90366 -0.20500
C 	C 	0.95052 0.05988 0.83008 0.51100
C 	C 	0.40420 0.38460 0.90420 0.47300
C 	C 	0.24500 0.10940 0.06040 0.08200
C 	C 	0.05120 0.79400 0.12780 0.48100
C 	C 	0.08520 0.06040 0.74500 0.08200
C 	C 	0.40366 0.17844 0.85638 -0.20500
C 	C 	0.87422 0.19338 0.27650 0.56200
C 	C 	0.54120 0.74380 0.21440 0.55900
C 	C 	0.15590 0.19338 0.37422 0.56200
C 	C 	0.60220 0.77820 0.05480 -0.15000
C 	C 	0.61517 0.16307 0.80127 0.13900
C 	C 	0.33112 0.11040 0.44808 0.14100
C 	C 	0.40118 0.33602 0.79822 -0.19400
C 	C 	0.44520 0.43520 0.22180 -0.14900
C 	C 	0.76298 0.77920 0.67862 0.49000
C 	C 	0.72080 0.22080 0.32138 0.49000
C 	C 	0.92049 0.11517 0.80127 0.13900
C 	C 	0.83810 0.33810 0.59046 -0.28800
C 	C 	0.88460 0.90420 0.30700 0.47300
C 	C 	0.82138 0.73702 0.22080 0.49000
C 	C 	0.61517 0.42049 0.16307 0.13900
C 	C 	0.07900 0.71484 0.62716 0.15700
C 	C 	0.72380 0.09130 0.70870 0.16400
C 	C 	0.29822 0.90118 0.33602 -0.19400
C 	C 	0.05370 0.79490 0.07570 0.08400
C 	C 	0.67844 0.90366 0.56152 -0.20500
C 	C 	0.70189 0.63783 0.30587 -0.26200
C 	C 	0.93520 0.22180 0.89780 -0.14900
C 	C 	0.47300 0.20600 0.87220 0.48200
C 	C 	0.28430 0.93254 0.28732 -0.24400
C 	C 	0.78732 0.78430 0.93254 -0.24400
C 	C 	0.97620 0.70870 0.09130 0.16600
C 	C 	0.21070 0.62890 0.53150 0.52200
C 	C 	0.87284 0.42100 0.28516 0.15700
C 	C 	0.12890 0.62890 0.71070 0.52200
C 	C 	0.05120 0.12780 0.02700 0.48200
C 	C 	0.43254 0.28732 0.78430 -0.24400
C 	C 	0.70189 0.30587 0.35441 -0.26200
C 	C 	0.30127 0.42049 0.11517 0.13900
C 	C 	0.33008 0.15952 0.05988 0.51100
C 	C 	0.24380 0.50060 0.04120 0.55900
C 	C 	0.18196 0.47748 0.11906 -0.21000
C 	C 	0.31381 0.43241 0.89499 0.49100
C 	C 	0.99339 0.78899 0.87581 0.13200
C 	C 	0.40420 0.90420 0.30700 0.47300
C 	C 	0.17908 0.22752 0.44632 0.53700
C 	C 	0.80700 0.38460 0.90420 0.47300
C 	C 	0.92100 0.28516 0.37284 0.15700
C 	C 	0.17908 0.14708 0.44632 0.53700
C 	C 	0.35292 0.32092 0.77248 0.53700
C 	C 	0.27248 0.32092 0.85292 0.53700
C 	C 	0.93520 0.89780 0.94520 -0.14900
C 	C 	0.95052 0.83008 0.15952 0.51200
C 	C 	0.59634 0.14362 0.82156 -0.20500
C 	C 	0.03407 0.68973 0.20533 0.15800
C 	C 	0.29811 0.64559 0.69413 -0.26200
C 	C 	0.64708 0.22752 0.44632 0.53700
C 	C 	0.68619 0.64121 0.56759 0.49100
C 	C 	0.22890 0.59570 0.08770 -0.15200
C 	C 	0.59634 0.82156 0.14362 -0.20500
C 	C 	0.15590 0.27650 0.19338 0.56200
C 	C 	0.99940 0.25620 0.78560 0.56000
C 	C 	0.75500 0.41480 0.89060 0.08200
C 	C 	0.71570 0.71268 0.06746 -0.24400
C 	C 	0.72190 0.26910 0.26910 0.10800
C 	C 	0.05368 0.77248 0.85292 0.53800
C 	C 	0.23090 0.77810 0.73090 0.10800
C 	C 	0.72080 0.22080 0.73702 0.49000
C 	C 	0.73780 0.23780 0.28492 -0.16800
C 	C 	0.38094 0.77850 0.52252 -0.21000
C 	C 	0.90430 0.27110 0.91230 -0.15100
C 	C 	0.32156 0.09634 0.43848 -0.20500
C 	C 	0.99940 0.95880 0.25620 0.56000
C 	C 	0.56040 0.10940 0.58520 0.08200
C 	C 	0.70533 0.53407 0.68973 0.15800
C 	C 	0.97748 0.22150 0.68196 -0.20900
C 	C 	0.85842 0.60602 0.31222 0.21100
C 	C 	0.72150 0.47748 0.68196 -0.21000
C 	C 	0.35638 0.56152 0.17844 -0.20500
C 	C 	0.39060 0.93960 0.41480 0.08200
C 	C 	0.56746 0.21570 0.71268 -0.24400
C 	C 	0.33693 0.57951 0.19873 0.13900
C 	C 	0.34048 0.54948 0.94012 0.51200
C 	C 	0.56040 0.58520 0.74500 0.08200
C 	C 	0.39499 0.43241 0.81381 0.49100
C 	C 	0.70533 0.07087 0.68973 0.15900
C 	C 	0.92049 0.16307 0.80127 0.13900
C 	C 	0.11070 0.71470 0.56390 -0.22100
C 	C 	0.27820 0.56480 0.10220 -0.14900
C 	C 	0.99940 0.78560 0.95880 0.56000
C 	C 	0.37581 0.78899 0.49339 0.13000
C 	C 	0.30662 0.72350 0.62578 0.56200
C 	C 	0.93520 0.94520 0.22180 -0.14900
C 	C 	0.56040 0.74500 0.10940 0.08200
C 	C 	0.31381 0.35879 0.43241 0.49100
C 	C 	0.82092 0.77248 0.55368 0.53700
C 	C 	0.64708 0.67908 0.44632 0.53700
C 	C 	0.07951 0.83693 0.19873 0.13900
C 	C 	0.15860 0.74156 0.44124 0.54800
C 	C 	0.32156 0.43848 0.14362 -0.20500
C 	C 	0.70600 0.97300 0.87220 0.48100
C 	C 	0.71440 0.50060 0.74380 0.55900
C 	C 	0.26220 0.76220 0.71508 -0.16800
C 	C 	0.71440 0.04120 0.50060 0.55900
C 	C 	0.27620 0.90870 0.29130 0.16400
C 	C 	0.38094 0.31804 0.77850 -0.21000
C 	C 	0.55988 0.15952 0.83008 0.51200
C 	C 	0.61906 0.68196 0.22150 -0.21000
C 	C 	0.12890 0.53150 0.71070 0.52200
C 	C 	0.42430 0.44630 0.20510 0.08400
C 	C 	0.72150 0.47748 0.11906 -0.21000
C 	C 	0.81222 0.60602 0.35842 0.21100
C 	C 	0.82770 0.19096 0.65364 0.17800
C 	C 	0.68619 0.56759 0.10501 0.49100
C 	C 	0.20870 0.09130 0.47620 0.16400
C 	C 	0.64960 0.41086 0.78994 -0.20800
C 	C 	0.73780 0.73948 0.28492 -0.16800
C 	C 	0.42430 0.20510 0.92430 0.08400
C 	C 	0.33693 0.19873 0.88483 0.13900
C 	C 	0.30662 0.72350 0.34410 0.56200
C 	C 	0.81027 0.46593 0.92913 0.15800
C 	C 	0.84181 0.87581 0.49339 0.13000
C 	C 	0.70189 0.63783 0.35441 -0.26200
C 	C 	0.28899 0.49339 0.87581 0.13000
C 	C 	0.37581 0.34181 0.78899 0.13000
C 	C 	0.93520 0.94520 0.89780 -0.14900
C 	C 	0.31381 0.43241 0.35879 0.49100
C 	C 	0.72334 0.60602 0.31222 0.21100
C 	C 	0.73526 0.82980 0.60514 0.54200
C 	C 	0.24156 0.44124 0.65860 0.54800
C 	C 	0.60501 0.56759 0.64121 0.49100
C 	C 	0.21268 0.06746 0.50416 -0.24400
C 	C 	0.84181 0.87581 0.78899 0.13000
C 	C 	0.85441 0.30587 0.20189 -0.26100
C 	C 	0.92100 0.37284 0.42100 0.15700
C 	C 	0.02380 0.90870 0.77620 0.16300
C 	C 	0.09046 0.33810 0.23334 -0.28800
C 	C 	0.83810 0.23334 0.33810 -0.28800
C 	C 	0.37220 0.97300 0.20600 0.48100
C 	C 	0.85879 0.81381 0.89499 0.49100
C 	C 	0.08914 0.21006 0.85040 -0.20800
C 	C 	0.62419 0.50661 0.65819 0.13000
C 	C 	0.65952 0.05988 0.45052 0.51100
C 	C 	0.44012 0.16992 0.54948 0.51200
C 	C 	0.11540 0.09580 0.09580 0.47300
C 	C 	0.02252 0.88094 0.77850 -0.21100
C 	C 	0.27666 0.68778 0.39398 0.21100
C 	C 	0.94632 0.14708 0.22752 0.53700
C 	C 	0.66307 0.80127 0.11517 0.13900
C 	C 	0.90954 0.76666 0.66190 -0.28800
C 	C 	0.78530 0.38930 0.43610 -0.22100
C 	C 	0.97748 0.11906 0.22150 -0.20900
C 	C 	0.85842 0.22334 0.31222 0.21100
C 	C 	0.40118 0.46458 0.79822 -0.19400
C 	C 	0.08520 0.10940 0.74500 0.08200
C 	C 	0.99339 0.34181 0.87581 0.13200
C 	C 	0.21470 0.61070 0.61070 -0.22100
C 	C 	0.59882 0.20178 0.53542 -0.19400
C 	C 	0.59130 0.22380 0.70870 0.16400
C 	C 	0.88930 0.38930 0.28530 -0.22100
C 	C 	0.24500 0.58520 0.06040 0.08200
C 	C 	0.71440 0.74380 0.04120 0.55900
C 	C 	0.56746 0.50416 0.71268 -0.24400
C 	C 	0.64708 0.44632 0.67908 0.53700
C 	C 	0.81222 0.35842 0.22334 0.21100
C 	C 	0.72080 0.32138 0.22080 0.49000
C 	C 	0.18973 0.53407 0.07087 0.15900
C 	C 	0.27920 0.26298 0.67862 0.49000
C 	C 	0.11070 0.71470 0.61070 -0.22100
C 	C 	0.65952 0.45052 0.05988 0.51100
C 	C 	0.78732 0.93254 0.49584 -0.24400
C 	C 	0.26474 0.17020 0.17020 0.54200
C 	C 	0.44012 0.16992 0.84048 0.51200
C 	C 	0.28430 0.49584 0.93254 -0.24400
C 	C 	0.80700 0.90420 0.38460 0.47300
C 	C 	0.15364 0.32770 0.19096 0.17800
C 	C 	0.40420 0.30700 0.90420 0.47300
C 	C 	0.24500 0.10940 0.58520 0.08200
C 	C 	0.10602 0.22334 0.35842 0.21100
C 	C 	0.94124 0.65860 0.65860 0.54900
C 	C 	0.71570 0.71268 0.50416 -0.24400
C 	C 	0.64960 0.14960 0.41086 -0.20800
C 	C 	0.64362 0.82156 0.09634 -0.20500
C 	C 	0.30127 0.11517 0.16307 0.13900
C 	C 	0.40366 0.17844 0.56152 -0.20500
C 	C 	0.40366 0.56152 0.85638 -0.20500
C 	C 	0.14121 0.56759 0.18619 0.49100
C 	C 	0.96458 0.79822 0.33602 -0.19500
C 	C 	0.30127 0.16307 0.11517 0.13900
C 	C 	0.26474 0.17020 0.39486 0.54200
C 	C 	0.18196 0.22150 0.11906 -0.21000
C 	C 	0.75500 0.93960 0.89060 0.08100
C 	C 	0.22890 0.08770 0.59570 -0.15200
C 	C 	0.87110 0.46850 0.28930 0.52200
C 	C 	0.66992 0.94012 0.84048 0.51200
C 	C 	0.93241 0.81381 0.89499 0.49100
C 	C 	0.06390 0.61070 0.61070 -0.22200
C 	C 	0.37220 0.44880 0.97300 0.48100
C 	C 	0.95052 0.05988 0.15952 0.51100
C 	C 	0.62780 0.79400 0.02700 0.48200
C 	C 	0.81804 0.88094 0.77850 -0.21000
C 	C 	0.93241 0.89499 0.35879 0.49100
C 	C 	0.84636 0.80904 0.67230 0.17800
C 	C 	0.66888 0.88960 0.55192 0.14100
C 	C 	0.75620 0.78560 0.95880 0.55900
C 	C 	0.89486 0.17020 0.17020 0.54200
C 	C 	0.87110 0.37110 0.28930 0.52200
C 	C 	0.15590 0.27650 0.37422 0.56200
C 	C 	0.12716 0.71484 0.57900 0.15700
C 	C 	0.07951 0.19873 0.88483 0.13900
C 	C 	0.02380 0.77620 0.29130 0.16300
C 	C 	0.72752 0.14708 0.44632 0.53700
C 	C 	0.02380 0.90870 0.29130 0.16300
C 	C 	0.90954 0.66190 0.66190 -0.28800
C 	C 	0.19413 0.36217 0.79811 -0.26200
C 	C 	0.72380 0.70870 0.47620 0.16400
C 	C 	0.83602 0.90118 0.79822 -0.19400
C 	C 	0.55480 0.56480 0.10220 -0.14900
C 	C 	0.76298 0.67862 0.77920 0.49000
C 	C 	0.73334 0.33810 0.59046 -0.28800
C 	C 	0.00661 0.65819 0.21101 0.12900
C 	C 	0.93610 0.28530 0.38930 -0.22100
C 	C 	0.94880 0.97300 0.20600 0.48100
C 	C 	0.17862 0.77920 0.77920 0.49000
C 	C 	0.38483 0.83693 0.19873 0.13900
C 	C 	0.75620 0.49940 0.95880 0.55900
C 	C 	0.26666 0.66190 0.40954 -0.28800
C 	C 	0.77110 0.40430 0.91230 -0.15100
C 	C 	0.72334 0.60602 0.35842 0.21100
C 	C 	0.27850 0.88094 0.31804 -0.21000
C 	C 	0.37581 0.34181 0.49339 0.13000
C 	C 	0.82092 0.85292 0.55368 0.53700
C 	C 	0.39780 0.43520 0.94520 -0.14900
C 	C 	0.64960 0.14960 0.78994 -0.20800
C 	C 	0.72190 0.26910 0.73990 0.10800
C 	C 	0.88930 0.38930 0.43610 -0.22100
C 	C 	0.30127 0.11517 0.42049 0.13900
C 	C 	0.66307 0.11517 0.42049 0.13900
C 	C 	0.27850 0.52252 0.31804 -0.21000
C 	C 	0.80587 0.63783 0.20189 -0.26200
C 	C 	0.18196 0.47748 0.22150 -0.21000
C 	C 	0.33008 0.05988 0.15952 0.51100
C 	C 	0.84140 0.55876 0.34140 0.54800
C 	C 	0.52700 0.79400 0.12780 0.48200
C 	C 	0.03542 0.09882 0.66398 -0.19400
C 	C 	0.03542 0.66398 0.20178 -0.19400
C 	C 	0.66992 0.84048 0.94012 0.51200
C 	C 	0.43960 0.41480 0.25500 0.08200
C 	C 	0.41230 0.27110 0.91230 -0.15100
C 	C 	0.72334 0.31222 0.35842 0.21100
C 	C 	0.28994 0.14960 0.41086 -0.20800
C 	C 	0.99339 0.78899 0.34181 0.13200
C 	C 	0.29490 0.07570 0.55370 0.08400
C 	C 	0.82138 0.22080 0.22080 0.49000
C 	C 	0.97620 0.09130 0.70870 0.16600
C 	C 	0.73780 0.28492 0.23780 -0.16800
C 	C 	0.39499 0.43241 0.35879 0.49100
C 	C 	0.04948 0.16992 0.94012 0.51200
C 	C 	0.30904 0.67230 0.34636 0.17800
C 	C 	0.26474 0.39486 0.17020 0.54200
C 	C 	0.38960 0.16888 0.88960 0.14100
C 	C 	0.14158 0.39398 0.77666 0.21100
C 	C 	0.96458 0.33602 0.79822 -0.19500
C 	C 	0.60220 0.77820 0.56480 -0.14900
C 	C 	0.77650 0.37422 0.19338 0.56200
C 	C 	0.14121 0.18619 0.10501 0.49100
C 	C 	0.87284 0.42100 0.42100 0.15700
C 	C 	0.60220 0.56480 0.05480 -0.15000
C 	C 	0.47300 0.44880 0.20600 0.48200
C 	C 	0.06759 0.18619 0.10501 0.49100
C 	C 	0.60940 0.06040 0.58520 0.08200
C 	C 	0.93241 0.35879 0.81381 0.49100
C 	C 	0.05120 0.02700 0.12780 0.48200
C 	C 	0.26220 0.71508 0.26052 -0.16800
C 	C 	0.15860 0.44124 0.74156 0.54800
C 	C 	0.06480 0.10220 0.77820 -0.14900
C 	C 	0.02252 0.88094 0.31804 -0.21100
C 	C 	0.43254 0.49584 0.78430 -0.24400
C 	C 	0.00060 0.74380 0.04120 0.55800
C 	C 	0.57087 0.20533 0.53407 0.15800
C 	C 	0.35040 0.21006 0.58914 -0.20800
C 	C 	0.96458 0.90118 0.33602 -0.19400
C 	C 	0.72334 0.35842 0.31222 0.21100
C 	C 	0.78732 0.93254 0.78430 -0.24400
C 	C 	0.29400 0.55120 0.12780 0.48200
C 	C 	0.02252 0.31804 0.88094 -0.21100
C 	C 	0.94632 0.67908 0.14708 0.53700
C 	C 	0.22350 0.80662 0.34410 0.56200
C 	C 	0.35292 0.55368 0.32092 0.53700
C 	C 	0.27666 0.39398 0.64158 0.21100
C 	C 	0.09046 0.23334 0.33810 -0.28800
C 	C 	0.84410 0.72350 0.62578 0.56200
C 	C 	0.83602 0.90118 0.46458 -0.19400
C 	C 	0.30127 0.16307 0.42049 0.13900
C 	C 	0.75620 0.49940 0.78560 0.55900
C 	C 	0.76910 0.73990 0.22190 0.10800
C 	C 	0.07951 0.88483 0.19873 0.13900
C 	C 	0.14158 0.77666 0.68778 0.21100
C 	C 	0.21484 0.57900 0.57900 0.15700
C 	C 	0.58770 0.59570 0.08770 -0.15200
C 	C 	0.06480 0.05480 0.77820 -0.15000
C 	C 	0.70178 0.09882 0.53542 -0.19400
C 	C 	0.28430 0.28732 0.49584 -0.24400
C 	C 	0.84140 0.25844 0.55876 0.54800
C 	C 	0.21508 0.26052 0.76220 -0.16800
C 	C 	0.33693 0.88483 0.57951 0.13900
C 	C 	0.39780 0.22180 0.43520 -0.14900
C 	C 	0.71006 0.85040 0.85040 -0.20700
C 	C 	0.18973 0.53407 0.20533 0.15800
C 	C 	0.06152 0.85638 0.90366 -0.20500
C 	C 	0.59882 0.20178 0.66398 -0.19400
C 	C 	0.42913 0.46593 0.31027 0.15800
C 	C 	0.78732 0.49584 0.78430 -0.24400
C 	C 	0.59580 0.09580 0.69300 0.47300
C 	C 	0.28560 0.25620 0.95880 0.55900
C 	C 	0.31381 0.35879 0.89499 0.49100
C 	C 	0.45880 0.25620 0.49940 0.55900
C 	C 	0.18778 0.64158 0.39398 0.21100
C 	C 	0.22350 0.62578 0.34410 0.56200
C 	C 	0.85441 0.30587 0.63783 -0.26100
C 	C 	0.28899 0.87581 0.49339 0.13000
C 	C 	0.42913 0.46593 0.79467 0.15800
C 	C 	0.29811 0.36217 0.69413 -0.26200
C 	C 	0.94880 0.87220 0.97300 0.48100
C 	C 	0.35040 0.85040 0.21006 -0.20800
C 	C 	0.32980 0.82980 0.60514 0.54200
C 	C 	0.22350 0.62578 0.80662 0.56200
C 	C 	0.72380 0.09130 0.47620 0.16400
C 	C 	0.33008 0.05988 0.45052 0.51100
C 	C 	0.27850 0.52252 0.88094 -0.21000
C 	C 	0.14559 0.36217 0.69413 -0.26200
C 	C 	0.10514 0.82980 0.23526 0.54200
C 	C 	0.81222 0.22334 0.35842 0.21100
C 	C 	0.06759 0.64121 0.10501 0.49100
C 	C 	0.24380 0.04120 0.50060 0.55900
C 	C 	0.11070 0.56390 0.61070 -0.22100
C 	C 	0.27920 0.67862 0.77920 0.49000
C 	C 	0.08520 0.06040 0.10940 0.08200
C 	C 	0.17862 0.26298 0.77920 0.49000
C 	C 	0.15364 0.32770 0.32770 0.17800
C 	C 	0.89486 0.17020 0.76474 0.54200
C 	C 	0.59634 0.43848 0.82156 -0.20500
C 	C 	0.18196 0.22150 0.47748 -0.21000
C 	C 	0.67020 0.39486 0.76474 0.54200
C 	C 	0.82092 0.85292 0.77248 0.53700
C 	C 	0.17230 0.67230 0.34636 0.17800
C 	C 	0.87422 0.27650 0.65590 0.56200
C 	C 	0.42430 0.92430 0.44630 0.08400
C 	C 	0.89398 0.64158 0.68778 0.21100
C 	C 	0.78530 0.43610 0.38930 -0.22100
C 	C 	0.26220 0.26052 0.71508 -0.16800
C 	C 	0.76010 0.73090 0.77810 0.10800
C 	C 	0.28560 0.25620 0.49940 0.55900
C 	C 	0.69338 0.65590 0.27650 0.56200
C 	C 	0.32156 0.14362 0.43848 -0.20500
C 	C 	0.08520 0.74500 0.06040 0.08200
C 	C 	0.56040 0.58520 0.10940 0.08200
C 	C 	0.34048 0.94012 0.54948 0.51200
C 	C 	0.93848 0.14362 0.09634 -0.20500
C 	C 	0.16190 0.66190 0.76666 -0.28800
C 	C 	0.60501 0.64121 0.56759 0.49100
C 	C 	0.62419 0.21101 0.50661 0.13000
C 	C 	0.94880 0.97300 0.87220 0.48100
C 	C 	0.85441 0.63783 0.30587 -0.26100
C 	C 	0.94632 0.14708 0.67908 0.53700
C 	C 	0.88930 0.28530 0.38930 -0.22100
C 	C 	0.07951 0.88483 0.83693 0.13900
C 	C 	0.35040 0.85040 0.58914 -0.20700
C 	C 	0.57570 0.07570 0.55370 0.08400
C 	C 	0.71440 0.74380 0.50060 0.55900
C 	C 	0.40420 0.30700 0.38460 0.47300
C 	C 	0.67844 0.85638 0.90366 -0.20500
C 	C 	0.75500 0.89060 0.93960 0.08100
C 	C 	0.84410 0.80662 0.62578 0.56200
C 	C 	0.06759 0.18619 0.64121 0.49100
C 	C 	0.72380 0.47620 0.70870 0.16400
C 	C 	0.55480 0.77820 0.56480 -0.14900
C 	C 	0.15860 0.65860 0.44124 0.54800
C 	C 	0.55988 0.45052 0.15952 0.51200
C 	C 	0.40870 0.77620 0.52380 0.16400
C 	C 	0.20870 0.09130 0.22380 0.16400
C 	C 	0.60940 0.74500 0.06040 0.08200
C 	C 	0.85879 0.43241 0.81381 0.49100
C 	C 	0.27620 0.52380 0.90870 0.16400
C 	C 	0.88460 0.30700 0.90420 0.47300
C 	C 	0.61040 0.83112 0.44808 0.14100
C 	C 	0.19413 0.79811 0.64559 -0.26200
C 	C 	0.91480 0.89060 0.25500 0.08200
C 	C 	0.82770 0.65364 0.32770 0.17800
C 	C 	0.08914 0.85040 0.85040 -0.20700
C 	C 	0.85842 0.60602 0.22334 0.21100
C 	C 	0.97748 0.68196 0.22150 -0.20900
C 	C 	0.97748 0.22150 0.11906 -0.20900
C 	C 	0.75844 0.55876 0.34140 0.54800
C 	C 	0.67844 0.56152 0.90366 -0.20500
C 	C 	0.60940 0.06040 0.74500 0.08200
C 	C 	0.66992 0.94012 0.54948 0.51200
C 	C 	0.96593 0.31027 0.92913 0.15800
C 	C 	0.19413 0.36217 0.64559 -0.26200
C 	C 	0.23702 0.22080 0.32138 0.49000
C 	C 	0.14121 0.10501 0.56759 0.49100
C 	C 	0.18973 0.20533 0.53407 0.15800
C 	C 	0.15819 0.50661 0.21101 0.13000
C 	C 	0.05370 0.07570 0.79490 0.08400
C 	C 	0.94880 0.20600 0.87220 0.48100
C 	C 	0.39060 0.25500 0.93960 0.08200
C 	C 	0.80587 0.20189 0.63783 -0.26200
C 	C 	0.40870 0.52380 0.77620 0.16400
C 	C 	0.32156 0.14362 0.09634 -0.20500
C 	C 	0.42913 0.31027 0.79467 0.15800
C 	C 	0.69873 0.83693 0.88483 0.13900
C 	C 	0.82092 0.55368 0.77248 0.53700
C 	C 	0.59580 0.69300 0.61540 0.47300
C 	C 	0.04948 0.84048 0.16992 0.51100
C 	C 	0.96458 0.79822 0.90118 -0.19400
C 	C 	0.28560 0.49940 0.25620 0.55900
C 	C 	0.30662 0.34410 0.72350 0.56200
C 	C 	0.85879 0.43241 0.89499 0.49100
C 	C 	0.99584 0.78430 0.28732 -0.24300
C 	C 	0.94808 0.11040 0.11040 0.14100
C 	C 	0.32156 0.43848 0.09634 -0.20500
C 	C 	0.84140 0.34140 0.55876 0.54800
C 	C 	0.82092 0.77248 0.85292 0.53700
C 	C 	0.92100 0.42100 0.28516 0.15700
C 	C 	0.85842 0.31222 0.60602 0.21100
C 	C 	0.87422 0.19338 0.65590 0.56200
C 	C 	0.56746 0.71268 0.50416 -0.24400
C 	C 	0.44012 0.84048 0.16992 0.51200
C 	C 	0.06759 0.64121 0.18619 0.49100
C 	C 	0.87284 0.28516 0.42100 0.15700
C 	C 	0.14121 0.18619 0.56759 0.49100
C 	C 	0.14559 0.69413 0.79811 -0.26200
C 	C 	0.40420 0.38460 0.30700 0.47300
C 	C 	0.92049 0.16307 0.11517 0.13900
C 	C 	0.68619 0.10501 0.64121 0.49100
C 	C 	0.37220 0.97300 0.44880 0.48100
C 	C 	0.66992 0.54948 0.84048 0.51200
C 	C 	0.59882 0.66398 0.20178 -0.19400
C 	C 	0.24380 0.50060 0.21440 0.55900
C 	C 	0.79130 0.90870 0.77620 0.16400
C 	C 	0.39780 0.94520 0.22180 -0.14900
C 	C 	0.77110 0.91230 0.91230 -0.15100
C 	C 	0.40118 0.46458 0.33602 -0.19400
C 	C 	0.21484 0.62716 0.57900 0.15700
C 	C 	0.96593 0.92913 0.31027 0.15800
C 	C 	0.91480 0.93960 0.25500 0.08100
C 	C 	0.27666 0.64158 0.68778 0.21100
C 	C 	0.15819 0.12419 0.21101 0.13000
C 	C 	0.28430 0.49584 0.28732 -0.24400
C 	C 	0.00661 0.21101 0.12419 0.12900
C 	C 	0.32156 0.09634 0.14362 -0.20500
C 	C 	0.27820 0.10220 0.05480 -0.15000
C 	C 	0.04948 0.94012 0.84048 0.51100
C 	C 	0.27920 0.67862 0.26298 0.49000
C 	C 	0.71440 0.50060 0.04120 0.55900
C 	C 	0.61517 0.16307 0.42049 0.13900
C 	C 	0.55480 0.56480 0.77820 -0.14900
C 	C 	0.59634 0.43848 0.14362 -0.20500
C 	C 	0.81804 0.52252 0.77850 -0.21000
C 	C 	0.72752 0.67908 0.14708 0.53700
C 	C 	0.71101 0.12419 0.50661 0.13000
C 	C 	0.35638 0.90366 0.17844 -0.20500
C 	C 	0.69338 0.27650 0.37422 0.56200
C 	C 	0.12578 0.34410 0.80662 0.56200
C 	C 	0.42430 0.92430 0.20510 0.08400
C 	C 	0.79130 0.90870 0.52380 0.16400
C 	C 	0.64362 0.09634 0.43848 -0.20500
C 	C 	0.23090 0.77810 0.26010 0.10800
C 	C 	0.42913 0.79467 0.31027 0.15800
C 	C 	0.35292 0.77248 0.32092 0.53700
C 	C 	0.11070 0.61070 0.56390 -0.22100
C 	C 	0.99339 0.87581 0.34181 0.13200
C 	C 	0.59580 0.69300 0.09580 0.47300
C 	C 	0.35638 0.90366 0.56152 -0.20500
C 	C 	0.56746 0.21570 0.50416 -0.24400
C 	C 	0.72180 0.89780 0.94520 -0.14900
C 	C 	0.62780 0.02700 0.79400 0.48200
C 	C 	0.20870 0.47620 0.09130 0.16400
C 	C 	0.69338 0.37422 0.27650 0.56200
C 	C 	0.81027 0.92913 0.46593 0.15800
C 	C 	0.39060 0.41480 0.93960 0.08200
C 	C 	0.81804 0.77850 0.52252 -0.21000
C 	C 	0.29467 0.31027 0.46593 0.15800
C 	C 	0.40118 0.33602 0.46458 -0.19400
C 	C 	0.90430 0.91230 0.27110 -0.15100
C 	C 	0.38094 0.52252 0.77850 -0.21000
C 	C 	0.44012 0.54948 0.16992 0.51200
C 	C 	0.83810 0.33810 0.23334 -0.28800
C 	C 	0.27820 0.05480 0.56480 -0.15000
C 	C 	0.35040 0.58914 0.85040 -0.20700
C 	C 	0.14158 0.77666 0.39398 0.21100
C 	C 	0.75500 0.89060 0.41480 0.08200
C 	C 	0.44520 0.89780 0.22180 -0.14900
C 	C 	0.64708 0.67908 0.22752 0.53700
C 	C 	0.39499 0.81381 0.35879 0.49100
C 	C 	0.06480 0.77820 0.05480 -0.15000
C 	C 	0.66307 0.42049 0.11517 0.13900
C 	C 	0.84181 0.78899 0.49339 0.13000
C 	C 	0.29822 0.33602 0.46458 -0.19400
C 	C 	0.33693 0.19873 0.57951 0.13900
C 	C 	0.23090 0.26010 0.77810 0.10800
C 	C 	0.38960 0.55192 0.88960 0.14100
C 	C 	0.60220 0.05480 0.56480 -0.15000
C 	C 	0.60501 0.56759 0.18619 0.49100
C 	C 	0.20870 0.47620 0.22380 0.16400
C 	C 	0.72080 0.73702 0.32138 0.49000
C 	C 	0.84181 0.49339 0.78899 0.13000
C 	C 	0.23090 0.73090 0.77810 0.10800
C 	C 	0.61906 0.47748 0.22150 -0.21000
C 	C 	0.81027 0.79467 0.92913 0.15800
C 	C 	0.37581 0.49339 0.34181 0.13000
C 	C 	0.72150 0.11906 0.68196 -0.21000
C 	C 	0.35040 0.21006 0.85040 -0.20800
C 	C 	0.27248 0.85292 0.55368 0.53700
C 	C 	0.03542 0.20178 0.66398 -0.19400
C 	C 	0.72752 0.44632 0.67908 0.53700
C 	C 	0.64362 0.09634 0.82156 -0.20500
C 	C 	0.65952 0.83008 0.45052 0.51200
C 	C 	0.67020 0.17020 0.39486 0.54200
C 	C 	0.62419 0.65819 0.21101 0.13000
C 	C 	0.78930 0.37110 0.37110 0.52200
C 	C 	0.00661 0.21101 0.65819 0.12900
C 	C 	0.29467 0.46593 0.92913 0.15800
C 	C 	0.71440 0.04120 0.74380 0.55900
C 	C 	0.27810 0.73090 0.26010 0.10800
C 	C 	0.86217 0.79811 0.64559 -0.26100
C 	C 	0.64708 0.22752 0.67908 0.53700
C 	C 	0.93610 0.38930 0.28530 -0.22100
C 	C 	0.14559 0.79811 0.36217 -0.26200
C 	C 	0.06480 0.10220 0.05480 -0.15000
C 	C 	0.88460 0.90420 0.90420 0.47300
C 	C 	0.21268 0.21570 0.50416 -0.24400
C 	C 	0.52700 0.55120 0.12780 0.48200
C 	C 	0.84410 0.62578 0.80662 0.56200
C 	C 	0.71101 0.50661 0.12419 0.13000
C 	C 	0.82770 0.19096 0.32770 0.17800
C 	C 	0.81027 0.92913 0.79467 0.15800
C 	C 	0.39060 0.93960 0.25500 0.08200
C 	C 	0.55988 0.83008 0.15952 0.51200
C 	C 	0.43960 0.25500 0.89060 0.08200
C 	C 	0.78516 0.42100 0.42100 0.15700
C 	C 	0.61040 0.44808 0.83112 0.14100
C 	C 	0.38960 0.16888 0.55192 0.14100
C 	C 	0.75500 0.41480 0.93960 0.08200
C 	C 	0.77650 0.65590 0.37422 0.56200
C 	C 	0.91480 0.25500 0.93960 0.08100
C 	C 	0.60501 0.64121 0.18619 0.49100
C 	C 	0.89398 0.64158 0.77666 0.21100
C 	C 	0.99584 0.28732 0.78430 -0.24300
C 	C 	0.56746 0.71268 0.21570 -0.24400
C 	C 	0.97748 0.11906 0.68196 -0.20900
C 	C 	0.14559 0.79811 0.69413 -0.26200
C 	C 	0.91086 0.14960 0.78994 -0.20700
C 	C 	0.59882 0.66398 0.53542 -0.19400
C 	C 	0.92100 0.42100 0.37284 0.15700
C 	C 	0.27666 0.64158 0.39398 0.21100
C 	C 	0.38960 0.88960 0.16888 0.14100
C 	C 	0.12578 0.72350 0.80662 0.56200
C 	C 	0.86217 0.64559 0.79811 -0.26100
C 	C 	0.43254 0.28732 0.49584 -0.24400
C 	C 	0.64708 0.44632 0.22752 0.53700
C 	C 	0.12578 0.72350 0.34410 0.56200
C 	C 	0.17908 0.14708 0.22752 0.53700
C 	C 	0.83810 0.59046 0.23334 -0.28800
C 	C 	0.70178 0.53542 0.09882 -0.19400
C 	C 	0.81804 0.52252 0.88094 -0.21000
C 	C 	0.06390 0.71470 0.61070 -0.22200
C 	C 	0.78530 0.38930 0.38930 -0.22100
C 	C 	0.07900 0.57900 0.62716 0.15700
C 	C 	0.28994 0.14960 0.14960 -0.20800
C 	C 	0.37220 0.20600 0.97300 0.48100
C 	C 	0.12890 0.71070 0.62890 0.52200
C 	C 	0.76910 0.26910 0.73990 0.10800
C 	C 	0.92049 0.11517 0.16307 0.13900
C 	C 	0.13783 0.30587 0.20189 -0.26200
C 	C 	0.73334 0.33810 0.33810 -0.28800
C 	C 	0.30904 0.67230 0.67230 0.17800
C 	C 	0.27620 0.29130 0.52380 0.16400
C 	C 	0.21268 0.50416 0.21570 -0.24400
C 	C 	0.65952 0.05988 0.83008 0.51100
C 	C 	0.83602 0.46458 0.79822 -0.19400
C 	C 	0.99584 0.28732 0.93254 -0.24300
C 	C 	0.00060 0.21440 0.04120 0.55800
C 	C 	0.97620 0.22380 0.70870 0.16600
C 	C 	0.76910 0.26910 0.22190 0.10800
C 	C 	0.19300 0.61540 0.09580 0.47300
C 	C 	0.21508 0.76220 0.76220 -0.16800
C 	C 	0.71101 0.50661 0.65819 0.13000
C 	C 	0.16398 0.09882 0.53542 -0.19500
C 	C 	0.99940 0.25620 0.95880 0.56000
C 	C 	0.99940 0.95880 0.78560 0.56000
C 	C 	0.05120 0.12780 0.79400 0.48100
C 	C 	0.72080 0.32138 0.73702 0.49000
C 	C 	0.06480 0.05480 0.10220 -0.15000
C 	C 	0.10602 0.35842 0.22334 0.21100
C 	C 	0.70178 0.66398 0.09882 -0.19400
C 	C 	0.27248 0.85292 0.32092 0.53700
C 	C 	0.86217 0.64559 0.69413 -0.26200
C 	C 	0.17230 0.80904 0.34636 0.17800
C 	C 	0.07900 0.62716 0.57900 0.15700
C 	C 	0.78492 0.73948 0.23780 -0.16800
C 	C 	0.72752 0.44632 0.14708 0.53700
C 	C 	0.43960 0.89060 0.41480 0.08200
C 	C 	0.05368 0.85292 0.32092 0.53800
C 	C 	0.28899 0.34181 0.49339 0.13000
C 	C 	0.75620 0.95880 0.49940 0.55900
C 	C 	0.83810 0.23334 0.59046 -0.28800
C 	C 	0.69338 0.27650 0.65590 0.56200
C 	C 	0.43960 0.41480 0.89060 0.08200
C 	C 	0.72180 0.43520 0.89780 -0.14900
C 	C 	0.27810 0.26010 0.73090 0.10800
C 	C 	0.04948 0.84048 0.94012 0.51100
C 	C 	0.94880 0.20600 0.97300 0.48100
C 	C 	0.71570 0.50416 0.06746 -0.24400
C 	C 	0.82092 0.55368 0.85292 0.53700
C 	C 	0.03407 0.20533 0.07087 0.15900
C 	C 	0.07900 0.71484 0.57900 0.15700
C 	C 	0.72380 0.47620 0.09130 0.16400
C 	C 	0.43254 0.78430 0.49584 -0.24400
C 	C 	0.70533 0.53407 0.07087 0.15900
C 	C 	0.42430 0.44630 0.92430 0.08400
C 	C 	0.27920 0.77920 0.67862 0.49000
C 	C 	0.72150 0.68196 0.11906 -0.21000
C 	C 	0.66992 0.54948 0.94012 0.51200
C 	C 	0.67020 0.39486 0.17020 0.54200
C 	C 	0.27248 0.55368 0.85292 0.53700
C 	C 	0.15819 0.21101 0.50661 0.13000
C 	C 	0.81804 0.77850 0.88094 -0.21000
C 	C 	0.67844 0.85638 0.56152 -0.20500
C 	C 	0.27920 0.77920 0.26298 0.49000
C 	C 	0.85441 0.20189 0.30587 -0.26100
C 	C 	0.38960 0.88960 0.55192 0.14100
C 	C 	0.88930 0.28530 0.43610 -0.22100
C 	C 	0.00416 0.71268 0.06746 -0.24500
C 	C 	0.03542 0.20178 0.09882 -0.19400
C 	C 	0.05192 0.16888 0.88960 0.14100
C 	C 	0.84140 0.55876 0.25844 0.54800
C 	C 	0.33693 0.88483 0.19873 0.13900
C 	C 	0.60940 0.74500 0.58520 0.08200
C 	C 	0.44012 0.84048 0.54948 0.51200
C 	C 	0.68619 0.56759 0.64121 0.49100
C 	C 	0.94124 0.65860 0.74156 0.54900
C 	C 	0.83602 0.79822 0.46458 -0.19400
C 	C 	0.03542 0.66398 0.09882 -0.19400
C 	C 	0.16398 0.53542 0.09882 -0.19500
C 	C 	0.23090 0.73090 0.26010 0.10800
C 	C 	0.55988 0.83008 0.45052 0.51200
C 	C 	0.11540 0.09580 0.69300 0.47300
C 	C 	0.81027 0.46593 0.79467 0.15800
C 	C 	0.42430 0.20510 0.44630 0.08400
C 	C 	0.93848 0.09634 0.82156 -0.20400
C 	C 	0.33112 0.44808 0.11040 0.14100
C 	C 	0.94630 0.20510 0.92430 0.08400
C 	C 	0.64362 0.43848 0.09634 -0.20500
C 	C 	0.38483 0.57951 0.83693 0.13900
C 	C 	0.70533 0.68973 0.07087 0.15900
C 	C 	0.09046 0.33810 0.33810 -0.28800
C 	C 	0.47300 0.87220 0.44880 0.48200
C 	C 	0.23948 0.23780 0.28492 -0.16800
C 	C 	0.95052 0.15952 0.83008 0.51200
C 	C 	0.28899 0.34181 0.87581 0.13000
C 	C 	0.62419 0.65819 0.50661 0.13000
C 	C 	0.72150 0.11906 0.47748 -0.21000
C 	C 	0.19413 0.79811 0.36217 -0.26200
C 	C 	0.93848 0.14362 0.82156 -0.20500
C 	C 	0.23990 0.22190 0.26910 0.10800
C 	C 	0.14158 0.68778 0.39398 0.21100
C 	C 	0.84410 0.62578 0.72350 0.56200
C 	C 	0.12578 0.80662 0.34410 0.56200
C 	C 	0.79130 0.52380 0.90870 0.16400
C 	C 	0.11070 0.56390 0.71470 -0.22100
C 	C 	0.73780 0.28492 0.73948 -0.16800
C 	C 	0.31381 0.89499 0.35879 0.49100
C 	C 	0.30662 0.62578 0.72350 0.56200
C 	C 	0.24156 0.65860 0.65860 0.54800
C 	C 	0.00416 0.71268 0.21570 -0.24500
C 	C 	0.91086 0.14960 0.14960 -0.20700
C 	C 	0.55480 0.10220 0.77820 -0.14900
C 	C 	0.41230 0.91230 0.40430 -0.15100
C 	C 	0.33008 0.45052 0.05988 0.51100
C 	C 	0.94630 0.92430 0.92430 0.08400
C 	C 	0.06152 0.17844 0.90366 -0.20500
C 	C 	0.43960 0.89060 0.25500 0.08200
C 	C 	0.99584 0.93254 0.28732 -0.24300
C 	C 	0.18778 0.77666 0.64158 0.21100
C 	C 	0.05876 0.25844 0.34140 0.54800
C 	C 	0.66992 0.84048 0.54948 0.51200
C 	C 	0.00060 0.04120 0.21440 0.55800
C 	C 	0.73526 0.60514 0.82980 0.54200
C 	C 	0.03407 0.68973 0.07087 0.15900
C 	C 	0.03407 0.20533 0.68973 0.15800
C 	C 	0.38094 0.77850 0.31804 -0.21000
C 	C 	0.59634 0.14362 0.43848 -0.20500
C 	C 	0.45880 0.78560 0.25620 0.55900
C 	C 	0.78516 0.37284 0.42100 0.15700
C 	C 	0.94880 0.87220 0.20600 0.48100
C 	C 	0.06152 0.90366 0.85638 -0.20500
C 	C 	0.84140 0.34140 0.25844 0.54800
C 	C 	0.93520 0.89780 0.22180 -0.14900
C 	C 	0.57087 0.53407 0.68973 0.15800
C 	C 	0.09570 0.72890 0.08770 -0.15200
C 	C 	0.05370 0.07570 0.07570 0.08400
C 	C 	0.24500 0.58520 0.10940 0.08200
C 	C 	0.39780 0.22180 0.94520 -0.14900
C 	C 	0.96850 0.28930 0.37110 0.52200
C 	C 	0.03407 0.07087 0.20533 0.15900
C 	C 	0.00416 0.06746 0.21570 -0.24500
C 	C 	0.21268 0.06746 0.21570 -0.24400
C 	C 	0.95052 0.83008 0.05988 0.51100
C 	C 	0.92049 0.80127 0.11517 0.13900
C 	C 	0.40420 0.90420 0.38460 0.47300
C 	C 	0.02380 0.29130 0.90870 0.16300
C 	C 	0.85879 0.89499 0.81381 0.49100
C 	C 	0.84181 0.49339 0.87581 0.13000
C 	C 	0.13783 0.35441 0.30587 -0.26200
C 	C 	0.94632 0.22752 0.14708 0.53700
C 	C 	0.93848 0.09634 0.14362 -0.20500
C 	C 	0.69338 0.65590 0.37422 0.56200
C 	C 	0.85879 0.89499 0.43241 0.49100
C 	C 	0.72180 0.94520 0.89780 -0.14900
C 	C 	0.60220 0.05480 0.77820 -0.15000
C 	C 	0.61040 0.83112 0.11040 0.14100
C 	C 	0.29467 0.31027 0.92913 0.15800
C 	C 	0.35292 0.55368 0.77248 0.53700
O 	O 	0.90708 0.91746 0.82266 -0.48100
O 	O 	0.87900 0.87100 0.37900 -0.76900
O 	O 	0.73506 0.70238 0.14186 -0.50200
O 	O 	0.31930 0.18930 0.44122 -0.53000
O 	O 	0.63234 0.56620 0.18162 -0.52100
O 	O 	0.98073 0.29123 0.38603 -0.51100
O 	O 	0.68930 0.81930 0.05018 -0.53000
O 	O 	0.09292 0.64720 0.17734 -0.48100
O 	O 	0.65614 0.19958 0.38846 -0.51600
O 	O 	0.24614 0.20770 0.52722 -0.52100
O 	O 	0.94122 0.81930 0.05018 -0.53000
O 	O 	0.41746 0.82266 0.35280 -0.48100
O 	O 	0.62095 0.67889 0.62289 -0.48200
O 	O 	0.32266 0.91746 0.35280 -0.48100
O 	O 	0.94161 0.22277 0.98777 -0.51900
O 	O 	0.73540 0.77986 0.52576 -0.54200
O 	O 	0.54304 0.14132 0.46894 -0.47700
O 	O 	0.34670 0.46894 0.14132 -0.47700
O 	O 	0.94161 0.98777 0.84785 -0.51900
O 	O 	0.51894 0.20770 0.52722 -0.52100
O 	O 	0.25582 0.19958 0.38846 -0.51600
O 	O 	0.05878 0.81070 0.18070 -0.53000
O 	O 	0.31930 0.44122 0.18930 -0.53000
O 	O 	0.35814 0.29762 0.57930 -0.50200
O 	O 	0.73687 0.19283 0.33423 -0.49300
O 	O 	0.92070 0.14186 0.23506 -0.50200
O 	O 	0.09292 0.64720 0.08254 -0.48200
O 	O 	0.65215 0.01223 0.77723 -0.52100
O 	O 	0.23607 0.33423 0.19283 -0.49300
O 	O 	0.37905 0.37711 0.92273 -0.48200
O 	O 	0.42273 0.37711 0.32111 -0.48200
O 	O 	0.17889 0.12095 0.07727 -0.48200
O 	O 	0.51894 0.52722 0.74614 -0.52100
O 	O 	0.68930 0.05018 0.44122 -0.53000
O 	O 	0.54304 0.84670 0.14132 -0.47700
O 	O 	0.24289 0.35951 0.60439 -0.54800
O 	O 	0.15769 0.17231 0.44797 -0.55300
O 	O 	0.27723 0.55839 0.15215 -0.52000
O 	O 	0.82053 0.26891 0.36435 -0.51500
O 	O 	0.62134 0.02152 0.53340 -0.44500
O 	O 	0.86714 0.68478 0.17664 -0.52700
O 	O 	0.32336 0.31522 0.63286 -0.52700
O 	O 	0.64132 0.84670 0.04304 -0.47600
O 	O 	0.79762 0.57930 0.85814 -0.50200
O 	O 	0.94122 0.05018 0.81930 -0.53000
O 	O 	0.29230 0.98106 0.25386 -0.52000
O 	O 	0.70574 0.20574 0.69696 -0.77500
O 	O 	0.50000 0.18700 0.50000 -0.76400
O 	O 	0.13565 0.45379 0.67947 -0.51600
O 	O 	0.82111 0.87905 0.37711 -0.48200
O 	O 	0.87711 0.32111 0.92273 -0.48200
O 	O 	0.04621 0.32053 0.36435 -0.51500
O 	O 	0.63234 0.61984 0.18162 -0.52100
O 	O 	0.31070 0.18070 0.94982 -0.53000
O 	O 	0.14049 0.39561 0.20679 -0.54800
O 	O 	0.94797 0.17231 0.65769 -0.55300
O 	O 	0.05839 0.01223 0.15215 -0.52100
O 	O 	0.97424 0.76460 0.04102 -0.54100
O 	O 	0.88016 0.86766 0.43380 -0.52100
O 	O 	0.05878 0.18070 0.81070 -0.53000
O 	O 	0.92070 0.70238 0.14186 -0.50200
O 	O 	0.70574 0.20574 0.39156 -0.77500
O 	O 	0.00000 0.00000 0.81300 -0.76500
O 	O 	0.84231 0.77797 0.55203 -0.55300
O 	O 	0.65215 0.01223 0.55839 -0.52100
O 	O 	0.65215 0.77723 0.01223 -0.52100
O 	O 	0.04621 0.36435 0.26891 -0.51500
O 	O 	0.01927 0.70877 0.61397 -0.51300
O 	O 	0.09292 0.17734 0.08254 -0.48200
O 	O 	0.48106 0.47278 0.25386 -0.52100
O 	O 	0.42273 0.87905 0.32111 -0.48200
O 	O 	0.02576 0.77986 0.23540 -0.54300
O 	O 	0.11397 0.65799 0.70877 -0.51200
O 	O 	0.48106 0.79230 0.25386 -0.52100
O 	O 	0.35814 0.29762 0.76494 -0.50200
O 	O 	0.68700 0.50000 -0.00000 -0.76400
O 	O 	0.64132 0.46894 0.84670 -0.47600
O 	O 	0.48106 0.79230 0.47278 -0.52100
O 	O 	0.11397 0.70877 0.51927 -0.51200
O 	O 	0.72277 0.98777 0.44161 -0.51900
O 	O 	0.17121 0.67121 0.48637 -0.78000
O 	O 	0.14049 0.25711 0.20679 -0.54800
O 	O 	0.83423 0.23687 0.19283 -0.49300
O 	O 	0.65215 0.77723 0.55839 -0.52000
O 	O 	0.26494 0.85814 0.57930 -0.50200
O 	O 	0.11984 0.18162 0.13234 -0.52100
O 	O 	0.15769 0.44797 0.22203 -0.55300
O 	O 	0.74418 0.61154 0.84386 -0.51600
O 	O 	0.32769 0.34231 0.55203 -0.55300
O 	O 	0.37866 0.17626 0.46660 -0.44500
O 	O 	0.15769 0.22203 0.44797 -0.55300
O 	O 	0.68162 0.13234 0.61984 -0.52100
O 	O 	0.69283 0.33423 0.23687 -0.49300
O 	O 	0.83423 0.23687 0.73607 -0.49300
O 	O 	0.63234 0.18162 0.56620 -0.52100
O 	O 	0.65215 0.55839 0.01223 -0.52100
O 	O 	0.11984 0.56620 0.13234 -0.52100
O 	O 	0.70770 0.52722 0.01894 -0.52200
O 	O 	0.84231 0.82769 0.55203 -0.55300
O 	O 	0.82053 0.36435 0.54621 -0.51500
O 	O 	0.36766 0.43380 0.81838 -0.52100
O 	O 	0.11984 0.13234 0.18162 -0.52100
O 	O 	0.29426 0.79426 0.30304 -0.77500
O 	O 	0.22856 0.31522 0.63286 -0.52700
O 	O 	0.20238 0.23506 0.14186 -0.50200
O 	O 	0.45696 0.53106 0.15330 -0.47700
O 	O 	0.88016 0.81838 0.86766 -0.52100
O 	O 	0.15799 0.70877 0.51927 -0.51200
O 	O 	0.73540 0.95898 0.77986 -0.54200
O 	O 	0.73687 0.19283 0.73607 -0.49300
O 	O 	0.35868 0.15330 0.53106 -0.47700
O 	O 	0.98073 0.34201 0.38603 -0.51100
O 	O 	0.42273 0.87905 0.37711 -0.48200
O 	O 	0.65330 0.53106 0.95696 -0.47600
O 	O 	0.31838 0.43380 0.86766 -0.52100
O 	O 	0.96894 0.84670 0.04304 -0.47500
O 	O 	0.18478 0.36714 0.27144 -0.52700
O 	O 	0.17947 0.45379 0.73109 -0.51500
O 	O 	0.73540 0.52576 0.95898 -0.54200
O 	O 	0.67734 0.59292 0.64720 -0.48100
O 	O 	0.86714 0.17664 0.68478 -0.52700
O 	O 	0.34785 0.22277 0.98777 -0.51900
O 	O 	0.26460 0.47424 0.04102 -0.54200
O 	O 	0.88016 0.43380 0.86766 -0.52100
O 	O 	0.17889 0.07727 0.62289 -0.48200
O 	O 	0.07930 0.76494 0.85814 -0.50200
O 	O 	0.72203 0.44797 0.65769 -0.55300
O 	O 	0.69958 0.15614 0.75582 -0.51600
O 	O 	0.86435 0.54621 0.26891 -0.51500
O 	O 	0.67626 0.97848 0.87866 -0.44300
O 	O 	0.96660 0.97848 0.17626 -0.44300
O 	O 	0.51894 0.52722 0.20770 -0.52100
O 	O 	0.67626 0.97848 0.46660 -0.44400
O 	O 	0.73687 0.73607 0.19283 -0.49300
O 	O 	0.07930 0.85814 0.29762 -0.50200
O 	O 	0.48777 0.44161 0.84785 -0.52000
O 	O 	0.79123 0.34201 0.38603 -0.51200
O 	O 	0.65614 0.75582 0.38846 -0.51600
O 	O 	0.93380 0.38016 0.86766 -0.52100
O 	O 	0.67231 0.44797 0.65769 -0.55300
O 	O 	0.94797 0.65769 0.22203 -0.55300
O 	O 	0.63234 0.18162 0.61984 -0.52100
O 	O 	0.79762 0.57930 0.76494 -0.50200
O 	O 	0.05203 0.77797 0.82769 -0.55400
O 	O 	0.14720 0.17734 0.59292 -0.48100
O 	O 	0.55018 0.18930 0.44122 -0.53000
O 	O 	0.03106 0.95696 0.15330 -0.47600
O 	O 	0.26313 0.66577 0.80717 -0.49300
O 	O 	0.03340 0.82374 0.02152 -0.44500
O 	O 	0.62134 0.53340 0.02152 -0.44500
O 	O 	0.88846 0.19958 0.15614 -0.51600
O 	O 	0.74418 0.80042 0.84386 -0.51600
O 	O 	0.27986 0.95898 0.52576 -0.54200
O 	O 	0.96660 0.17626 0.97848 -0.44300
O 	O 	0.74418 0.84386 0.61154 -0.51600
O 	O 	0.12289 0.07727 0.67889 -0.48200
O 	O 	0.31930 0.44122 0.05018 -0.53000
O 	O 	0.48106 0.25386 0.47278 -0.52100
O 	O 	0.86435 0.32053 0.54621 -0.51500
O 	O 	0.35868 0.15330 0.95696 -0.47600
O 	O 	0.45696 0.53106 0.85868 -0.47600
O 	O 	0.72014 0.04102 0.76460 -0.54200
O 	O 	0.51223 0.15215 0.77723 -0.52000
O 	O 	0.72203 0.65769 0.17231 -0.55300
O 	O 	0.57727 0.62289 0.12095 -0.48200
O 	O 	0.42273 0.32111 0.87905 -0.48200
O 	O 	0.17947 0.73109 0.63565 -0.51500
O 	O 	0.72203 0.44797 0.17231 -0.55300
O 	O 	0.96894 0.04304 0.14132 -0.47600
O 	O 	0.67734 0.64720 0.59292 -0.48100
O 	O 	0.24614 0.01894 0.52722 -0.52200
O 	O 	0.29426 0.30304 0.79426 -0.77500
O 	O 	0.03106 0.15330 0.95696 -0.47600
O 	O 	0.75711 0.20679 0.64049 -0.54800
O 	O 	0.69283 0.33423 0.73607 -0.49300
O 	O 	0.86435 0.26891 0.54621 -0.51500
O 	O 	0.77144 0.17664 0.36714 -0.52700
O 	O 	0.93380 0.86766 0.38016 -0.52100
O 	O 	0.89156 0.20574 0.20574 -0.77500
O 	O 	0.41746 0.82266 0.40708 -0.48100
O 	O 	0.51223 0.55839 0.77723 -0.52000
O 	O 	0.42273 0.32111 0.37711 -0.48200
O 	O 	0.87900 0.87100 0.87100 -0.76900
O 	O 	0.06620 0.61984 0.13234 -0.52100
O 	O 	0.32336 0.72856 0.63286 -0.52700
O 	O 	0.05878 0.94982 0.18070 -0.53000
O 	O 	0.88016 0.86766 0.81838 -0.52100
O 	O 	0.87711 0.87905 0.92273 -0.48200
O 	O 	0.68930 0.81930 0.44122 -0.53000
O 	O 	0.76891 0.36435 0.32053 -0.51500
O 	O 	0.07930 0.29762 0.76494 -0.50200
O 	O 	0.54304 0.84670 0.46894 -0.47600
O 	O 	0.64132 0.84670 0.46894 -0.47600
O 	O 	0.10439 0.74289 0.79321 -0.54800
O 	O 	0.32374 0.53340 0.02152 -0.44500
O 	O 	0.24614 0.20770 0.01894 -0.52200
O 	O 	0.45898 0.52576 0.23540 -0.54200
O 	O 	0.58254 0.64720 0.59292 -0.48100
O 	O 	0.50000 0.50000 0.18700 -0.76400
O 	O 	0.26313 0.66577 0.26393 -0.49300
O 	O 	0.86435 0.26891 0.32053 -0.51500
O 	O 	0.83423 0.19283 0.23687 -0.49300
O 	O 	0.79123 0.38603 0.48073 -0.51200
O 	O 	0.97278 0.25386 0.98106 -0.52000
O 	O 	0.11984 0.13234 0.56620 -0.52100
O 	O 	0.67734 0.08254 0.59292 -0.48200
O 	O 	0.37866 0.46660 0.17626 -0.44500
O 	O 	0.05203 0.34231 0.77797 -0.55400
O 	O 	0.95379 0.63565 0.73109 -0.51600
O 	O 	0.29321 0.60439 0.74289 -0.54800
O 	O 	0.48777 0.84785 0.22277 -0.52000
O 	O 	0.45696 0.15330 0.85868 -0.47700
O 	O 	0.11154 0.24418 0.84386 -0.51600
O 	O 	0.97278 0.79230 0.98106 -0.52000
O 	O 	0.65614 0.38846 0.19958 -0.51600
O 	O 	0.32266 0.35280 0.91746 -0.48100
O 	O 	0.81522 0.82336 0.72856 -0.52700
O 	O 	0.02576 0.77986 0.95898 -0.54300
O 	O 	0.15799 0.61397 0.70877 -0.51200
O 	O 	0.72277 0.84785 0.98777 -0.51900
O 	O 	0.05878 0.81070 0.94982 -0.53000
O 	O 	0.34670 0.14132 0.04304 -0.47600
O 	O 	0.79123 0.48073 0.34201 -0.51200
O 	O 	0.70679 0.39561 0.64049 -0.54800
O 	O 	0.31300 -0.00000 0.50000 -0.76400
O 	O 	0.98637 0.67121 0.67121 -0.78100
O 	O 	0.47848 0.87866 0.46660 -0.44400
O 	O 	0.13286 0.82336 0.72856 -0.52700
O 	O 	0.34785 0.22277 0.44161 -0.52000
O 	O 	0.86714 0.27144 0.68478 -0.52700
O 	O 	0.10844 0.79426 0.30304 -0.77500
O 	O 	0.25582 0.38846 0.19958 -0.51600
O 	O 	0.23109 0.67947 0.63565 -0.51500
O 	O 	0.02722 0.01894 0.20770 -0.52100
O 	O 	0.72014 0.76460 0.47424 -0.54200
O 	O 	0.26460 0.47424 0.22014 -0.54200
O 	O 	0.79762 0.85814 0.76494 -0.50200
O 	O 	0.26494 0.29762 0.85814 -0.50200
O 	O 	0.12289 0.12095 0.07727 -0.48200
O 	O 	0.25582 0.19958 0.15614 -0.51600
O 	O 	0.07930 0.29762 0.85814 -0.50200
O 	O 	0.87900 0.37900 0.87100 -0.76900
O 	O 	0.54304 0.14132 0.84670 -0.47700
O 	O 	0.69283 0.73607 0.23687 -0.49300
O 	O 	0.24614 0.01894 0.20770 -0.52200
O 	O 	0.11154 0.84386 0.80042 -0.51600
O 	O 	0.67734 0.64720 0.08254 -0.48200
O 	O 	0.95379 0.73109 0.67947 -0.51600
O 	O 	0.88846 0.75582 0.19958 -0.51600
O 	O 	0.90708 0.91746 0.35280 -0.48100
O 	O 	0.00000 0.18700 0.81300 -0.76400
O 	O 	0.05839 0.01223 0.77723 -0.52100
O 	O 	0.37866 0.17626 0.97848 -0.44400
O 	O 	0.23109 0.45379 0.63565 -0.51500
O 	O 	0.29230 0.47278 0.25386 -0.52100
O 	O 	0.17947 0.73109 0.45379 -0.51500
O 	O 	0.54102 0.47424 0.22014 -0.54200
O 	O 	0.52152 0.12134 0.82374 -0.44500
O 	O 	0.67231 0.65769 0.44797 -0.55300
O 	O 	0.30717 0.66577 0.76313 -0.49300
O 	O 	0.96660 0.87866 0.97848 -0.44300
O 	O 	0.94161 0.84785 0.98777 -0.51900
O 	O 	0.94161 0.84785 0.22277 -0.52000
O 	O 	0.76393 0.80717 0.66577 -0.49300
O 	O 	0.95379 0.73109 0.63565 -0.51600
O 	O 	0.57727 0.67889 0.62289 -0.48200
O 	O 	0.62095 0.67889 0.07727 -0.48200
O 	O 	0.81522 0.63286 0.82336 -0.52700
O 	O 	0.64132 0.04304 0.84670 -0.47600
O 	O 	0.85280 0.40708 0.91746 -0.48100
O 	O 	0.87711 0.32111 0.87905 -0.48200
O 	O 	0.05203 0.82769 0.77797 -0.55400
O 	O 	0.67664 0.36714 0.68478 -0.52700
O 	O 	0.37100 0.87100 0.37900 -0.76900
O 	O 	0.88603 0.29123 0.34201 -0.51200
O 	O 	-0.00000 -0.00000 0.18700 -0.76500
O 	O 	0.75386 0.98106 0.47278 -0.52000
O 	O 	0.85951 0.79321 0.60439 -0.54800
O 	O 	0.74418 0.80042 0.61154 -0.51600
O 	O 	0.84201 0.48073 0.29123 -0.51200
O 	O 	0.29321 0.74289 0.60439 -0.54800
O 	O 	0.68070 0.81070 0.55878 -0.53000
O 	O 	0.35814 0.57930 0.76494 -0.50200
O 	O 	0.12100 0.12900 0.62100 -0.76900
O 	O 	0.34670 0.04304 0.14132 -0.47600
O 	O 	0.20877 0.61397 0.65799 -0.51200
O 	O 	0.16577 0.26393 0.80717 -0.49300
O 	O 	0.31300 -0.00000 0.18700 -0.76400
O 	O 	0.30042 0.24418 0.61154 -0.51600
O 	O 	0.68930 0.05018 0.81930 -0.53000
O 	O 	0.03340 0.02152 0.12134 -0.44500
O 	O 	0.23607 0.23687 0.19283 -0.49300
O 	O 	0.13286 0.31522 0.82336 -0.52700
O 	O 	0.15799 0.70877 0.61397 -0.51200
O 	O 	0.25582 0.38846 0.15614 -0.51600
O 	O 	0.69958 0.38846 0.15614 -0.51600
O 	O 	0.32266 0.40708 0.91746 -0.48100
O 	O 	0.69958 0.38846 0.75582 -0.51600
O 	O 	0.35814 0.76494 0.29762 -0.50200
O 	O 	0.73687 0.73607 0.33423 -0.49300
O 	O 	0.29426 0.60844 0.30304 -0.77500
O 	O 	0.93380 0.81838 0.38016 -0.52100
O 	O 	0.31070 0.94982 0.55878 -0.53000
O 	O 	0.45696 0.15330 0.53106 -0.47700
O 	O 	0.22856 0.63286 0.31522 -0.52700
O 	O 	0.05203 0.77797 0.34231 -0.55400
O 	O 	0.26313 0.80717 0.66577 -0.49300
O 	O 	0.84201 0.38603 0.48073 -0.51200
O 	O 	0.68930 0.44122 0.05018 -0.53000
O 	O 	0.01927 0.65799 0.70877 -0.51300
O 	O 	0.11397 0.51927 0.70877 -0.51200
O 	O 	0.62900 0.62100 0.62100 -0.76900
O 	O 	0.81522 0.72856 0.63286 -0.52700
O 	O 	0.70679 0.39561 0.25711 -0.54800
O 	O 	0.89561 0.25711 0.64049 -0.54800
O 	O 	0.67231 0.22203 0.65769 -0.55300
O 	O 	0.17889 0.12095 0.62289 -0.48200
O 	O 	0.10844 0.30304 0.79426 -0.77500
O 	O 	0.64186 0.42070 0.70238 -0.50200
O 	O 	0.15799 0.51927 0.61397 -0.51200
O 	O 	0.67664 0.27144 0.36714 -0.52700
O 	O 	0.34670 0.14132 0.46894 -0.47700
O 	O 	0.47848 0.17626 0.46660 -0.44500
O 	O 	0.15769 0.44797 0.17231 -0.55300
O 	O 	0.62134 0.02152 0.82374 -0.44500
O 	O 	0.12100 0.62100 0.12900 -0.76900
O 	O 	0.50000 0.18700 0.81300 -0.76400
O 	O 	0.41746 0.40708 0.35280 -0.48100
O 	O 	0.11984 0.18162 0.56620 -0.52100
O 	O 	0.68162 0.56620 0.13234 -0.52100
O 	O 	0.20877 0.51927 0.65799 -0.51200
O 	O 	0.34670 0.04304 0.46894 -0.47600
O 	O 	0.04621 0.32053 0.26891 -0.51500
O 	O 	0.64186 0.42070 0.23506 -0.50200
O 	O 	0.74418 0.61154 0.80042 -0.51600
O 	O 	0.97424 0.22014 0.76460 -0.54100
O 	O 	0.84201 0.48073 0.38603 -0.51200
O 	O 	0.79123 0.34201 0.48073 -0.51200
O 	O 	0.57727 0.12095 0.67889 -0.48200
O 	O 	0.62900 0.12900 0.62100 -0.76900
O 	O 	0.18478 0.36714 0.17664 -0.52700
O 	O 	0.16577 0.76313 0.26393 -0.49300
O 	O 	0.77144 0.36714 0.17664 -0.52700
O 	O 	0.83423 0.19283 0.73607 -0.49300
O 	O 	0.73540 0.77986 0.95898 -0.54200
O 	O 	0.75386 0.47278 0.79230 -0.52100
O 	O 	0.94161 0.98777 0.22277 -0.51900
O 	O 	0.06620 0.13234 0.61984 -0.52100
O 	O 	0.41746 0.35280 0.40708 -0.48100
O 	O 	0.50000 0.81300 0.18700 -0.76400
O 	O 	0.86435 0.32053 0.26891 -0.51500
O 	O 	0.29426 0.79426 0.60844 -0.77500
O 	O 	0.20238 0.42070 0.23506 -0.50200
O 	O 	0.76891 0.32053 0.36435 -0.51500
O 	O 	0.17889 0.07727 0.12095 -0.48200
O 	O 	0.00000 0.81300 0.18700 -0.76400
O 	O 	0.87711 0.87905 0.32111 -0.48200
O 	O 	0.85280 0.91746 0.40708 -0.48100
O 	O 	0.26313 0.26393 0.66577 -0.49300
O 	O 	0.96660 0.97848 0.87866 -0.44300
O 	O 	0.20238 0.14186 0.23506 -0.50200
O 	O 	0.96894 0.84670 0.14132 -0.47600
O 	O 	0.04621 0.36435 0.32053 -0.51500
O 	O 	0.83423 0.73607 0.23687 -0.49300
O 	O 	0.79123 0.38603 0.34201 -0.51200
O 	O 	0.32374 0.02152 0.53340 -0.44500
O 	O 	0.69958 0.15614 0.38846 -0.51600
O 	O 	0.76393 0.66577 0.76313 -0.49300
O 	O 	0.63234 0.61984 0.56620 -0.52100
O 	O 	0.27723 0.01223 0.15215 -0.52100
O 	O 	0.72014 0.47424 0.04102 -0.54200
O 	O 	0.89561 0.64049 0.20679 -0.54800
O 	O 	0.54304 0.46894 0.84670 -0.47600
O 	O 	0.62095 0.62289 0.67889 -0.48200
O 	O 	0.62095 0.07727 0.67889 -0.48200
O 	O 	0.13286 0.31522 0.72856 -0.52700
O 	O 	0.85280 0.82266 0.91746 -0.48100
O 	O 	0.11154 0.24418 0.80042 -0.51600
O 	O 	0.96894 0.14132 0.04304 -0.47600
O 	O 	0.58254 0.59292 0.17734 -0.48100
O 	O 	0.17121 0.48637 0.67121 -0.78000
O 	O 	0.77144 0.36714 0.68478 -0.52700
O 	O 	0.06620 0.18162 0.61984 -0.52100
O 	O 	0.64132 0.46894 0.04304 -0.47600
O 	O 	0.31838 0.38016 0.86766 -0.52100
O 	O 	0.86435 0.54621 0.32053 -0.51500
O 	O 	0.51223 0.55839 0.15215 -0.52000
O 	O 	0.34386 0.61154 0.24418 -0.51600
O 	O 	0.14720 0.08254 0.59292 -0.48200
O 	O 	0.44982 0.55878 0.81070 -0.53000
O 	O 	0.88603 0.48073 0.29123 -0.51200
O 	O 	0.75711 0.20679 0.39561 -0.54800
O 	O 	0.17947 0.63565 0.45379 -0.51500
O 	O 	0.32266 0.35280 0.40708 -0.48100
O 	O 	0.55018 0.44122 0.18930 -0.53000
O 	O 	0.34386 0.61154 0.80042 -0.51600
O 	O 	0.75386 0.98106 0.79230 -0.52000
O 	O 	0.68070 0.55878 0.81070 -0.53000
O 	O 	0.44982 0.18070 0.55878 -0.53000
O 	O 	0.67626 0.46660 0.97848 -0.44400
O 	O 	0.12289 0.67889 0.07727 -0.48200
O 	O 	0.01927 0.70877 0.65799 -0.51300
O 	O 	0.37905 0.92273 0.32111 -0.48200
O 	O 	0.10439 0.74289 0.35951 -0.54800
O 	O 	0.13286 0.72856 0.31522 -0.52700
O 	O 	0.13286 0.82336 0.31522 -0.52700
O 	O 	0.62134 0.82374 0.53340 -0.44400
O 	O 	0.57727 0.67889 0.12095 -0.48200
O 	O 	0.88603 0.34201 0.48073 -0.51200
O 	O 	0.85951 0.74289 0.60439 -0.54800
O 	O 	0.55018 0.44122 0.81930 -0.53000
O 	O 	0.52152 0.12134 0.53340 -0.44500
O 	O 	0.94122 0.05018 0.18930 -0.53000
O 	O 	0.02576 0.95898 0.77986 -0.54300
O 	O 	0.11154 0.80042 0.24418 -0.51600
O 	O 	0.30042 0.61154 0.24418 -0.51600
O 	O 	0.27797 0.82769 0.34231 -0.55300
O 	O 	0.16577 0.80717 0.26393 -0.49300
O 	O 	0.26494 0.29762 0.57930 -0.50200
O 	O 	0.30717 0.76313 0.26393 -0.49300
O 	O 	0.93380 0.86766 0.81838 -0.52100
O 	O 	0.69958 0.75582 0.38846 -0.51600
O 	O 	0.51223 0.77723 0.55839 -0.52000
O 	O 	0.87711 0.92273 0.87905 -0.48200
O 	O 	0.20238 0.23506 0.42070 -0.50200
O 	O 	0.72203 0.17231 0.44797 -0.55300
O 	O 	0.62095 0.62289 0.07727 -0.48200
O 	O 	0.03340 0.12134 0.82374 -0.44400
O 	O 	0.02722 0.01894 0.74614 -0.52200
O 	O 	0.13565 0.67947 0.45379 -0.51600
O 	O 	0.76891 0.32053 0.54621 -0.51500
O 	O 	0.80304 0.79426 0.60844 -0.77500
O 	O 	0.24614 0.52722 0.20770 -0.52100
O 	O 	0.72203 0.65769 0.44797 -0.55300
O 	O 	0.97278 0.98106 0.25386 -0.52000
O 	O 	0.04621 0.26891 0.36435 -0.51500
O 	O 	0.35814 0.76494 0.57930 -0.50200
O 	O 	0.47848 0.46660 0.87866 -0.44400
O 	O 	0.94122 0.81930 0.18930 -0.53000
O 	O 	0.55018 0.81930 0.44122 -0.53000
O 	O 	0.06620 0.18162 0.13234 -0.52100
O 	O 	0.34386 0.80042 0.61154 -0.51600
O 	O 	0.73506 0.42070 0.70238 -0.50200
O 	O 	0.68700 0.81300 -0.00000 -0.76400
O 	O 	0.48106 0.25386 0.79230 -0.52100
O 	O 	0.70770 0.74614 0.01894 -0.52200
O 	O 	0.31300 0.18700 0.50000 -0.76400
O 	O 	0.97424 0.04102 0.22014 -0.54100
O 	O 	0.14720 0.08254 0.17734 -0.48200
O 	O 	0.05878 0.18070 0.94982 -0.53000
O 	O 	0.82879 0.32879 0.32879 -0.78000
O 	O 	0.47848 0.87866 0.17626 -0.44400
O 	O 	0.34670 0.46894 0.04304 -0.47600
O 	O 	0.90708 0.35280 0.82266 -0.48100
O 	O 	0.20238 0.14186 0.42070 -0.50200
O 	O 	0.76393 0.76313 0.66577 -0.49300
O 	O 	0.27986 0.52576 0.23540 -0.54200
O 	O 	0.94161 0.22277 0.84785 -0.52000
O 	O 	0.84231 0.77797 0.82769 -0.55300
O 	O 	0.90708 0.35280 0.91746 -0.48100
O 	O 	0.05839 0.77723 0.01223 -0.52100
O 	O 	0.06620 0.61984 0.18162 -0.52100
O 	O 	0.90708 0.82266 0.35280 -0.48100
O 	O 	0.96660 0.17626 0.87866 -0.44400
O 	O 	0.27797 0.34231 0.82769 -0.55300
O 	O 	0.62900 0.62100 0.12900 -0.76900
O 	O 	0.67231 0.22203 0.44797 -0.55300
O 	O 	0.27723 0.15215 0.55839 -0.52000
O 	O 	0.31300 0.50000 -0.00000 -0.76400
O 	O 	0.34785 0.98777 0.22277 -0.51900
O 	O 	0.67664 0.68478 0.27144 -0.52700
O 	O 	0.48777 0.44161 0.22277 -0.52000
O 	O 	0.32769 0.55203 0.34231 -0.55300
O 	O 	0.07930 0.85814 0.76494 -0.50200
O 	O 	0.67664 0.68478 0.36714 -0.52700
O 	O 	0.24289 0.79321 0.35951 -0.54800
O 	O 	0.72277 0.44161 0.84785 -0.52000
O 	O 	0.76393 0.66577 0.80717 -0.49300
O 	O 	0.32374 0.53340 0.12134 -0.44500
O 	O 	0.65330 0.85868 0.53106 -0.47600
O 	O 	0.65330 0.85868 0.95696 -0.47600
O 	O 	0.64186 0.23506 0.42070 -0.50200
O 	O 	0.72014 0.04102 0.47424 -0.54200
O 	O 	0.51894 0.20770 0.74614 -0.52100
O 	O 	0.81522 0.72856 0.82336 -0.52700
O 	O 	0.42273 0.37711 0.87905 -0.48200
O 	O 	0.67626 0.87866 0.46660 -0.44400
O 	O 	0.67734 0.08254 0.64720 -0.48200
O 	O 	0.19696 0.20574 0.20574 -0.77500
O 	O 	0.29230 0.25386 0.98106 -0.52000
O 	O 	0.57727 0.12095 0.62289 -0.48200
O 	O 	0.51894 0.74614 0.20770 -0.52100
O 	O 	0.58254 0.17734 0.64720 -0.48100
O 	O 	0.18478 0.17664 0.36714 -0.52700
O 	O 	0.67231 0.44797 0.22203 -0.55300
O 	O 	0.73506 0.14186 0.42070 -0.50200
O 	O 	0.62134 0.53340 0.82374 -0.44400
O 	O 	0.85280 0.40708 0.82266 -0.48100
O 	O 	0.13565 0.67947 0.73109 -0.51600
O 	O 	0.52152 0.82374 0.12134 -0.44500
O 	O 	0.14049 0.20679 0.25711 -0.54800
O 	O 	0.88603 0.29123 0.48073 -0.51200
O 	O 	0.30042 0.84386 0.24418 -0.51600
O 	O 	0.32336 0.63286 0.72856 -0.52700
O 	O 	0.37905 0.37711 0.32111 -0.48200
O 	O 	0.70574 0.69696 0.39156 -0.77500
O 	O 	0.30717 0.26393 0.76313 -0.49300
O 	O 	0.34785 0.98777 0.44161 -0.51900
O 	O 	0.25582 0.15614 0.19958 -0.51600
O 	O 	0.31930 0.05018 0.44122 -0.53000
O 	O 	0.13565 0.45379 0.73109 -0.51600
O 	O 	0.30717 0.66577 0.26393 -0.49300
O 	O 	0.54102 0.76460 0.47424 -0.54200
O 	O 	0.97278 0.25386 0.79230 -0.52100
O 	O 	0.84231 0.82769 0.77797 -0.55300
O 	O 	0.72277 0.84785 0.44161 -0.52000
O 	O 	0.72277 0.98777 0.84785 -0.51900
O 	O 	0.95379 0.67947 0.63565 -0.51600
O 	O 	0.73506 0.70238 0.42070 -0.50200
O 	O 	0.82879 0.32879 0.51363 -0.78000
O 	O 	0.11154 0.84386 0.24418 -0.51600
O 	O 	0.29321 0.35951 0.74289 -0.54800
O 	O 	0.54102 0.76460 0.22014 -0.54200
O 	O 	0.73687 0.33423 0.19283 -0.49300
O 	O 	0.62095 0.07727 0.62289 -0.48200
O 	O 	0.93380 0.81838 0.86766 -0.52100
O 	O 	0.68162 0.61984 0.56620 -0.52100
O 	O 	0.73540 0.95898 0.52576 -0.54200
O 	O 	0.15799 0.61397 0.51927 -0.51200
O 	O 	0.65614 0.75582 0.19958 -0.51600
O 	O 	0.58254 0.59292 0.64720 -0.48100
O 	O 	0.32336 0.31522 0.72856 -0.52700
O 	O 	0.31070 0.18070 0.55878 -0.53000
O 	O 	0.64186 0.23506 0.70238 -0.50200
O 	O 	0.10439 0.35951 0.74289 -0.54800
O 	O 	0.27986 0.95898 0.23540 -0.54200
O 	O 	0.79762 0.76494 0.57930 -0.50200
O 	O 	0.92070 0.23506 0.70238 -0.50200
O 	O 	0.01927 0.61397 0.70877 -0.51300
O 	O 	0.70679 0.64049 0.25711 -0.54800
O 	O 	0.03106 0.95696 0.85868 -0.47600
O 	O 	0.82111 0.37711 0.87905 -0.48200
O 	O 	0.76891 0.54621 0.36435 -0.51500
O 	O 	0.29321 0.35951 0.60439 -0.54800
O 	O 	0.94122 0.18930 0.05018 -0.53000
O 	O 	0.44982 0.81070 0.55878 -0.53000
O 	O 	0.45898 0.52576 0.77986 -0.54200
O 	O 	0.68162 0.56620 0.61984 -0.52100
O 	O 	0.77144 0.17664 0.68478 -0.52700
O 	O 	0.37100 0.37900 0.87100 -0.76900
O 	O 	0.70770 0.01894 0.74614 -0.52200
O 	O 	0.20877 0.61397 0.51927 -0.51200
O 	O 	0.31070 0.94982 0.18070 -0.53000
O 	O 	0.20238 0.42070 0.14186 -0.50200
O 	O 	0.98073 0.38603 0.34201 -0.51100
O 	O 	0.13565 0.73109 0.45379 -0.51600
O 	O 	0.73506 0.14186 0.70238 -0.50200
O 	O 	0.37100 0.37900 0.37900 -0.76900
O 	O 	0.88016 0.43380 0.81838 -0.52100
O 	O 	0.65330 0.53106 0.85868 -0.47600
O 	O 	0.50000 0.50000 0.81300 -0.76400
O 	O 	0.02576 0.23540 0.77986 -0.54300
O 	O 	0.85951 0.60439 0.79321 -0.54800
O 	O 	0.34386 0.24418 0.61154 -0.51600
O 	O 	0.84201 0.29123 0.38603 -0.51200
O 	O 	0.02722 0.20770 0.74614 -0.52000
O 	O 	0.02576 0.95898 0.23540 -0.54300
O 	O 	0.12100 0.12900 0.12900 -0.76900
O 	O 	0.68070 0.55878 0.94982 -0.53000
O 	O 	0.06620 0.13234 0.18162 -0.52100
O 	O 	0.18478 0.27144 0.36714 -0.52700
O 	O 	0.75386 0.79230 0.47278 -0.52100
O 	O 	0.01927 0.65799 0.61397 -0.51300
O 	O 	0.23607 0.33423 0.23687 -0.49300
O 	O 	0.68700 0.00000 0.81300 -0.76400
O 	O 	0.23607 0.19283 0.33423 -0.49300
O 	O 	0.44982 0.55878 0.18070 -0.53000
O 	O 	0.74418 0.84386 0.80042 -0.51600
O 	O 	0.14720 0.59292 0.17734 -0.48100
O 	O 	0.17947 0.63565 0.73109 -0.51500
O 	O 	0.77144 0.68478 0.36714 -0.52700
O 	O 	0.70574 0.39156 0.69696 -0.77500
O 	O 	0.82053 0.54621 0.26891 -0.51500
O 	O 	0.79762 0.85814 0.57930 -0.50200
O 	O 	0.75386 0.47278 0.98106 -0.52000
O 	O 	0.27797 0.34231 0.55203 -0.55300
O 	O 	0.67626 0.46660 0.87866 -0.44400
O 	O 	0.57727 0.62289 0.67889 -0.48200
O 	O 	0.92070 0.14186 0.70238 -0.50200
O 	O 	0.11154 0.80042 0.84386 -0.51600
O 	O 	0.37905 0.32111 0.37711 -0.48200
O 	O 	0.22856 0.82336 0.63286 -0.52700
O 	O 	0.67734 0.59292 0.08254 -0.48200
O 	O 	0.23607 0.19283 0.23687 -0.49300
O 	O 	0.15799 0.51927 0.70877 -0.51200
O 	O 	0.90708 0.82266 0.91746 -0.48100
O 	O 	0.32769 0.55203 0.77797 -0.55300
O 	O 	0.32374 0.02152 0.12134 -0.44500
O 	O 	0.83423 0.73607 0.19283 -0.49300
O 	O 	0.41746 0.35280 0.82266 -0.48100
O 	O 	0.62134 0.82374 0.02152 -0.44500
O 	O 	0.85280 0.82266 0.40708 -0.48100
O 	O 	0.26460 0.04102 0.47424 -0.54200
O 	O 	0.03106 0.15330 0.85868 -0.47600
O 	O 	0.02722 0.74614 0.20770 -0.52000
O 	O 	0.29426 0.30304 0.60844 -0.77500
O 	O 	0.68930 0.44122 0.81930 -0.53000
O 	O 	0.07930 0.76494 0.29762 -0.50200
O 	O 	0.96894 0.04304 0.84670 -0.47500
O 	O 	0.34785 0.44161 0.98777 -0.51900
O 	O 	0.73506 0.42070 0.14186 -0.50200
O 	O 	0.79123 0.48073 0.38603 -0.51200
O 	O 	0.45696 0.85868 0.53106 -0.47600
O 	O 	0.82053 0.54621 0.36435 -0.51500
O 	O 	0.26494 0.57930 0.29762 -0.50200
O 	O 	0.32266 0.91746 0.40708 -0.48100
O 	O 	0.26494 0.85814 0.29762 -0.50200
O 	O 	0.27723 0.55839 0.01223 -0.52100
O 	O 	0.94797 0.17231 0.22203 -0.55300
O 	O 	0.31930 0.18930 0.05018 -0.53000
O 	O 	0.89561 0.25711 0.20679 -0.54800
O 	O 	0.48106 0.47278 0.79230 -0.52100
O 	O 	0.70574 0.69696 0.20574 -0.77500
O 	O 	0.03340 0.82374 0.12134 -0.44400
O 	O 	0.29230 0.47278 0.98106 -0.52000
O 	O 	0.09292 0.17734 0.64720 -0.48100
O 	O 	0.09292 0.08254 0.64720 -0.48200
O 	O 	0.68162 0.13234 0.56620 -0.52100
O 	O 	0.69283 0.23687 0.73607 -0.49300
O 	O 	0.68700 0.81300 0.50000 -0.76400
O 	O 	0.58254 0.64720 0.17734 -0.48100
O 	O 	0.03340 0.02152 0.82374 -0.44500
O 	O 	0.50000 0.81300 0.50000 -0.76400
O 	O 	0.86714 0.27144 0.17664 -0.52700
O 	O 	0.82879 0.51363 0.32879 -0.78000
O 	O 	0.05878 0.94982 0.81070 -0.53000
O 	O 	0.10439 0.35951 0.79321 -0.54800
O 	O 	0.87711 0.92273 0.32111 -0.48200
O 	O 	0.05839 0.15215 0.01223 -0.52100
O 	O 	0.95379 0.67947 0.73109 -0.51600
O 	O 	0.64132 0.04304 0.46894 -0.47600
O 	O 	0.65330 0.95696 0.85868 -0.47600
O 	O 	0.24289 0.35951 0.79321 -0.54800
O 	O 	0.70770 0.01894 0.52722 -0.52200
O 	O 	0.26460 0.04102 0.22014 -0.54200
O 	O 	0.37905 0.32111 0.92273 -0.48200
O 	O 	0.10439 0.79321 0.74289 -0.54800
O 	O 	0.68700 -0.00000 0.50000 -0.76400
O 	O 	0.70679 0.64049 0.39561 -0.54800
O 	O 	0.76891 0.36435 0.54621 -0.51500
O 	O 	0.18478 0.17664 0.27144 -0.52700
O 	O 	0.67664 0.27144 0.68478 -0.52700
O 	O 	0.35868 0.95696 0.53106 -0.47600
O 	O 	0.24289 0.60439 0.35951 -0.54800
O 	O 	0.97278 0.79230 0.25386 -0.52100
O 	O 	0.32374 0.12134 0.02152 -0.44500
O 	O 	0.05839 0.77723 0.15215 -0.52000
O 	O 	0.36766 0.81838 0.43380 -0.52100
O 	O 	0.31930 0.05018 0.18930 -0.53000
O 	O 	0.14049 0.25711 0.39561 -0.54800
O 	O 	0.96660 0.87866 0.17626 -0.44400
O 	O 	0.97424 0.04102 0.76460 -0.54100
O 	O 	0.16577 0.76313 0.80717 -0.49300
O 	O 	0.27986 0.52576 0.95898 -0.54200
O 	O 	0.26460 0.22014 0.04102 -0.54200
O 	O 	0.85951 0.60439 0.74289 -0.54800
O 	O 	0.98073 0.34201 0.29123 -0.51100
O 	O 	0.88846 0.75582 0.15614 -0.51600
O 	O 	0.37866 0.97848 0.17626 -0.44400
O 	O 	0.89561 0.20679 0.25711 -0.54800
O 	O 	0.54102 0.22014 0.47424 -0.54200
O 	O 	0.30717 0.26393 0.66577 -0.49300
O 	O 	0.17889 0.62289 0.12095 -0.48200
O 	O 	0.04621 0.26891 0.32053 -0.51500
O 	O 	0.89156 0.20574 0.69696 -0.77500
O 	O 	0.80304 0.60844 0.79426 -0.77500
O 	O 	0.16577 0.26393 0.76313 -0.49300
O 	O 	-0.00000 0.81300 -0.00000 -0.76500
O 	O 	0.41746 0.40708 0.82266 -0.48100
O 	O 	0.03106 0.85868 0.15330 -0.47600
O 	O 	0.51894 0.74614 0.52722 -0.52100
O 	O 	0.12289 0.12095 0.67889 -0.48200
O 	O 	0.96894 0.14132 0.84670 -0.47600
O 	O 	0.69283 0.23687 0.33423 -0.49300
O 	O 	0.36766 0.81838 0.38016 -0.52100
O 	O 	0.45898 0.23540 0.52576 -0.54200
O 	O 	0.70770 0.52722 0.74614 -0.52100
O 	O 	0.26494 0.57930 0.85814 -0.50200
O 	O 	0.24614 0.52722 0.01894 -0.52200
O 	O 	0.69958 0.75582 0.15614 -0.51600
O 	O 	0.10439 0.79321 0.35951 -0.54800
O 	O 	0.02722 0.20770 0.01894 -0.52100
O 	O 	0.98073 0.38603 0.29123 -0.51100
O 	O 	0.93380 0.38016 0.81838 -0.52100
O 	O 	0.72014 0.76460 0.04102 -0.54200
O 	O 	0.35814 0.57930 0.29762 -0.50200
O 	O 	0.27986 0.23540 0.95898 -0.54200
O 	O 	0.63234 0.56620 0.61984 -0.52100
O 	O 	0.85280 0.91746 0.82266 -0.48100
O 	O 	0.75386 0.79230 0.98106 -0.52000
O 	O 	0.92070 0.70238 0.23506 -0.50200
O 	O 	0.23109 0.63565 0.45379 -0.51500
O 	O 	0.65614 0.38846 0.75582 -0.51600
O 	O 	0.52152 0.53340 0.82374 -0.44400
O 	O 	0.70679 0.25711 0.39561 -0.54800
O 	O 	0.75711 0.39561 0.20679 -0.54800
O 	O 	0.27797 0.82769 0.55203 -0.55300
O 	O 	0.01927 0.61397 0.65799 -0.51300
O 	O 	0.86714 0.68478 0.27144 -0.52700
O 	O 	0.67626 0.87866 0.97848 -0.44300
O 	O 	0.27723 0.15215 0.01223 -0.52100
O 	O 	0.47848 0.17626 0.87866 -0.44400
O 	O 	0.14049 0.20679 0.39561 -0.54800
O 	O 	0.35868 0.53106 0.15330 -0.47700
O 	O 	0.30717 0.76313 0.66577 -0.49300
O 	O 	0.45898 0.77986 0.52576 -0.54200
O 	O 	0.31070 0.55878 0.94982 -0.53000
O 	O 	0.32266 0.40708 0.35280 -0.48100
O 	O 	-0.00000 0.18700 -0.00000 -0.76500
O 	O 	0.48777 0.22277 0.44161 -0.52000
O 	O 	0.84201 0.38603 0.29123 -0.51200
O 	O 	0.27723 0.01223 0.55839 -0.52100
O 	O 	0.14720 0.59292 0.08254 -0.48200
O 	O 	0.05839 0.15215 0.77723 -0.52000
O 	O 	0.29230 0.25386 0.47278 -0.52100
O 	O 	0.65215 0.55839 0.77723 -0.52000
O 	O 	0.94797 0.22203 0.17231 -0.55300
O 	O 	0.23109 0.45379 0.67947 -0.51500
O 	O 	0.73687 0.33423 0.73607 -0.49300
O 	O 	0.27797 0.55203 0.34231 -0.55300
O 	O 	0.70574 0.39156 0.20574 -0.77500
O 	O 	0.92070 0.23506 0.14186 -0.50200
O 	O 	0.22856 0.82336 0.31522 -0.52700
O 	O 	0.72014 0.47424 0.76460 -0.54200
O 	O 	0.82053 0.26891 0.54621 -0.51500
O 	O 	0.44982 0.18070 0.81070 -0.53000
O 	O 	0.95379 0.63565 0.67947 -0.51600
O 	O 	0.65330 0.95696 0.53106 -0.47600
O 	O 	0.45898 0.77986 0.23540 -0.54200
O 	O 	0.27986 0.23540 0.52576 -0.54200
O 	O 	0.19696 0.39156 0.20574 -0.77500
O 	O 	0.13286 0.72856 0.82336 -0.52700
O 	O 	0.27797 0.55203 0.82769 -0.55300
O 	O 	0.05203 0.34231 0.82769 -0.55400
O 	O 	0.44982 0.81070 0.18070 -0.53000
O 	O 	0.86714 0.17664 0.27144 -0.52700
O 	O 	0.34386 0.24418 0.80042 -0.51600
O 	O 	0.26313 0.80717 0.26393 -0.49300
O 	O 	0.88846 0.15614 0.75582 -0.51600
O 	O 	0.20877 0.51927 0.61397 -0.51200
O 	O 	0.82111 0.87905 0.92273 -0.48200
O 	O 	0.81522 0.63286 0.72856 -0.52700
O 	O 	0.30042 0.61154 0.84386 -0.51600
O 	O 	0.85951 0.79321 0.74289 -0.54800
O 	O 	0.55018 0.81930 0.18930 -0.53000
O 	O 	0.54304 0.46894 0.14132 -0.47700
O 	O 	0.15769 0.22203 0.17231 -0.55300
O 	O 	0.17889 0.62289 0.07727 -0.48200
O 	O 	0.30042 0.24418 0.84386 -0.51600
O 	O 	0.45696 0.85868 0.15330 -0.47700
O 	O 	0.67664 0.36714 0.27144 -0.52700
O 	O 	0.51223 0.77723 0.15215 -0.52000
O 	O 	0.37905 0.92273 0.37711 -0.48200
O 	O 	0.54102 0.22014 0.76460 -0.54200
O 	O 	0.69283 0.73607 0.33423 -0.49300
O 	O 	0.18478 0.27144 0.17664 -0.52700
O 	O 	0.94797 0.22203 0.65769 -0.55300
O 	O 	0.36766 0.43380 0.38016 -0.52100
O 	O 	0.72203 0.17231 0.65769 -0.55300
O 	O 	0.68070 0.81070 0.94982 -0.53000
O 	O 	0.75711 0.39561 0.64049 -0.54800
O 	O 	0.32769 0.77797 0.34231 -0.55300
O 	O 	0.82111 0.92273 0.87905 -0.48200
O 	O 	0.84231 0.55203 0.77797 -0.55300
O 	O 	0.68070 0.94982 0.81070 -0.53000
O 	O 	0.85951 0.74289 0.79321 -0.54800
O 	O 	0.76393 0.76313 0.80717 -0.49300
O 	O 	0.73540 0.52576 0.77986 -0.54200
O 	O 	0.70679 0.25711 0.64049 -0.54800
O 	O 	0.12289 0.67889 0.12095 -0.48200
O 	O 	0.35868 0.53106 0.95696 -0.47600
O 	O 	0.19696 0.20574 0.39156 -0.77500
O 	O 	0.72277 0.44161 0.98777 -0.51900
O 	O 	0.09292 0.08254 0.17734 -0.48200
O 	O 	0.65614 0.19958 0.75582 -0.51600
O 	O 	0.94797 0.65769 0.17231 -0.55300
O 	O 	0.31838 0.86766 0.38016 -0.52100
O 	O 	0.23607 0.23687 0.33423 -0.49300
O 	O 	0.36766 0.38016 0.81838 -0.52100
O 	O 	0.14049 0.39561 0.25711 -0.54800
O 	O 	0.17121 0.67121 0.67121 -0.78000
O 	O 	0.76393 0.80717 0.76313 -0.49300
O 	O 	0.29321 0.74289 0.35951 -0.54800
O 	O 	0.79762 0.76494 0.85814 -0.50200
O 	O 	0.48777 0.84785 0.44161 -0.52000
O 	O 	0.68162 0.61984 0.13234 -0.52100
O 	O 	0.84201 0.29123 0.48073 -0.51200
O 	O 	0.52152 0.82374 0.53340 -0.44400
O 	O 	0.52152 0.53340 0.12134 -0.44500
O 	O 	0.88016 0.81838 0.43380 -0.52100
O 	O 	0.80304 0.79426 0.79426 -0.77500
O 	O 	0.16577 0.80717 0.76313 -0.49300
O 	O 	0.31838 0.43380 0.38016 -0.52100
O 	O 	0.82111 0.92273 0.37711 -0.48200
O 	O 	0.88846 0.19958 0.75582 -0.51600
O 	O 	0.70770 0.74614 0.52722 -0.52100
O 	O 	0.03106 0.85868 0.95696 -0.47600
O 	O 	0.24289 0.60439 0.79321 -0.54800
O 	O 	0.45898 0.23540 0.77986 -0.54200
O 	O 	0.37866 0.46660 0.97848 -0.44400
O 	O 	0.88603 0.34201 0.29123 -0.51200
O 	O 	0.64186 0.70238 0.42070 -0.50200
O 	O 	0.30042 0.84386 0.61154 -0.51600
O 	O 	0.84231 0.55203 0.82769 -0.55300
O 	O 	0.88846 0.15614 0.19958 -0.51600
O 	O 	0.51223 0.15215 0.55839 -0.52000
O 	O 	0.32336 0.63286 0.31522 -0.52700
O 	O 	0.13565 0.73109 0.67947 -0.51600
O 	O 	0.11397 0.65799 0.51927 -0.51200
O 	O 	0.98073 0.29123 0.34201 -0.51100
O 	O 	0.89561 0.20679 0.64049 -0.54800
O 	O 	0.67231 0.65769 0.22203 -0.55300
O 	O 	0.97278 0.98106 0.79230 -0.52000
O 	O 	0.29426 0.60844 0.79426 -0.77500
O 	O 	0.15769 0.17231 0.22203 -0.55300
O 	O 	0.82111 0.37711 0.92273 -0.48200
O 	O 	0.34785 0.44161 0.22277 -0.52000
O 	O 	0.31838 0.38016 0.43380 -0.52100
O 	O 	0.35868 0.95696 0.15330 -0.47600
O 	O 	0.68700 0.50000 0.81300 -0.76400
O 	O 	0.89561 0.64049 0.25711 -0.54800
O 	O 	0.34386 0.80042 0.24418 -0.51600
O 	O 	0.31300 0.50000 0.18700 -0.76400
O 	O 	0.17947 0.45379 0.63565 -0.51500
O 	O 	0.58254 0.17734 0.59292 -0.48100
O 	O 	0.76891 0.54621 0.32053 -0.51500
O 	O 	0.75711 0.64049 0.20679 -0.54800
O 	O 	0.36766 0.38016 0.43380 -0.52100
O 	O 	0.32769 0.77797 0.55203 -0.55300
O 	O 	0.03340 0.12134 0.02152 -0.44500
O 	O 	0.54102 0.47424 0.76460 -0.54200
O 	O 	0.32769 0.34231 0.77797 -0.55300
O 	O 	0.64186 0.70238 0.23506 -0.50200
O 	O 	0.68070 0.94982 0.55878 -0.53000
O 	O 	0.97424 0.22014 0.04102 -0.54100
O 	O 	0.01363 0.32879 0.32879 -0.77900
O 	O 	0.97424 0.76460 0.22014 -0.54100
O 	O 	0.12289 0.07727 0.12095 -0.48200
O 	O 	0.11984 0.56620 0.18162 -0.52100
O 	O 	0.31300 0.18700 -0.00000 -0.76400
O 	O 	0.31070 0.55878 0.18070 -0.53000
O 	O 	0.11397 0.70877 0.65799 -0.51200
O 	O 	0.88603 0.48073 0.34201 -0.51200
O 	O 	0.94122 0.18930 0.81930 -0.53000
O 	O 	0.11397 0.51927 0.65799 -0.51200
O 	O 	0.20877 0.65799 0.61397 -0.51200
O 	O 	0.77144 0.68478 0.17664 -0.52700
O 	O 	0.81522 0.82336 0.63286 -0.52700
O 	O 	0.32374 0.12134 0.53340 -0.44500
O 	O 	0.31838 0.86766 0.43380 -0.52100
O 	O 	0.89156 0.69696 0.20574 -0.77500
O 	O 	0.24289 0.79321 0.60439 -0.54800
O 	O 	0.75711 0.64049 0.39561 -0.54800
O 	O 	0.48777 0.22277 0.84785 -0.52000
O 	O 	0.26460 0.22014 0.47424 -0.54200
O 	O 	0.20877 0.65799 0.51927 -0.51200
O 	O 	0.37866 0.97848 0.46660 -0.44400
O 	O 	0.26313 0.26393 0.80717 -0.49300
O 	O 	0.02722 0.74614 0.01894 -0.52200
O 	O 	0.47848 0.46660 0.17626 -0.44500
O 	O 	0.22856 0.31522 0.82336 -0.52700
O 	O 	0.23109 0.63565 0.67947 -0.51500
O 	O 	0.10844 0.79426 0.79426 -0.77500
O 	O 	0.02576 0.23540 0.95898 -0.54300
O 	O 	0.25582 0.15614 0.38846 -0.51600
O 	O 	0.14720 0.17734 0.08254 -0.48200
O 	O 	0.05203 0.82769 0.34231 -0.55400
O 	O 	0.55018 0.18930 0.81930 -0.53000
O 	O 	0.23109 0.67947 0.45379 -0.51500
O 	O 	0.29321 0.60439 0.35951 -0.54800
O 	O 	0.29230 0.98106 0.47278 -0.52000
O 	O 	0.82053 0.36435 0.26891 -0.51500
O 	O 	0.22856 0.63286 0.82336 -0.52700
O 	O 	0.32336 0.72856 0.31522 -0.52700
