data_crystal

_cell_length_a 36.70510
_cell_length_b 36.70510
_cell_length_c 36.70510
_cell_angle_alpha 90.00000
_cell_angle_beta  90.00000
_cell_angle_gamma 90.00000

_symmetry_space_group_name_	'P 1'
_symmetry_space_group_name_H-M	'P 1'

loop_
_symmetry_equiv_pos_as_xyz
  x,y,z

loop_
_atom_site_label
_atom_site_type_symbol
_atom_site_fract_x
_atom_site_fract_y
_atom_site_fract_z
_atom_site_charge
N 	N 	0.55780 0.49070 0.51170 -0.18600
N 	N 	0.57940 0.51250 0.53350 -0.20800
N 	N 	0.57820 0.46360 0.49970 -0.09700
N 	N 	0.61380 0.50000 0.53630 -0.13900
C 	C 	0.61150 0.46980 0.51520 0.06500
C 	C 	0.64610 0.44620 0.51050 0.11000
C 	C 	0.67900 0.45250 0.53420 -0.20200
C 	C 	0.64780 0.42260 0.48340 -0.27100
H 	H 	0.67990 0.47130 0.55190 0.07600
C 	C 	0.70740 0.42910 0.52830 0.17300
C 	C 	0.67630 0.40180 0.47980 0.24200
H 	H 	0.62830 0.42080 0.46660 0.11700
H 	H 	0.72840 0.43130 0.54310 -0.05600
C 	C 	0.70690 0.40220 0.50180 -0.39000
H 	H 	0.67610 0.38480 0.46030 -0.06500
N 	N 	0.05780 0.99070 0.01170 -0.18600
N 	N 	0.07940 0.01250 0.03350 -0.21500
N 	N 	0.07820 0.96360 0.99970 -0.08800
N 	N 	0.11380 -0.00000 0.03630 -0.14700
C 	C 	0.11150 0.96980 0.01520 0.06900
C 	C 	0.14610 0.94620 0.01050 0.09300
C 	C 	0.17900 0.95250 0.03420 -0.19400
C 	C 	0.14780 0.92260 0.98340 -0.24900
H 	H 	0.17990 0.97130 0.05190 0.07500
C 	C 	0.20740 0.92910 0.02830 0.16500
C 	C 	0.17630 0.90180 0.97980 0.24000
H 	H 	0.12830 0.92080 0.96660 0.11200
H 	H 	0.22840 0.93130 0.04310 -0.05300
C 	C 	0.20690 0.90220 0.00180 -0.38600
H 	H 	0.17610 0.88480 0.96030 -0.06200
N 	N 	0.94220 0.50930 0.01170 -0.18900
N 	N 	0.92060 0.48750 0.03350 -0.20900
N 	N 	0.92180 0.53640 0.99970 -0.08600
N 	N 	0.88620 0.50000 0.03630 -0.13900
C 	C 	0.88850 0.53020 0.01520 0.06000
C 	C 	0.85390 0.55380 0.01050 0.09500
C 	C 	0.82100 0.54750 0.03420 -0.19700
C 	C 	0.85220 0.57740 0.98340 -0.25100
H 	H 	0.82010 0.52870 0.05190 0.07300
C 	C 	0.79260 0.57090 0.02830 0.16600
C 	C 	0.82370 0.59820 0.97980 0.24100
H 	H 	0.87170 0.57920 0.96660 0.11300
H 	H 	0.77160 0.56870 0.04310 -0.05400
C 	C 	0.79310 0.59780 0.00180 -0.38800
H 	H 	0.82390 0.61520 0.96030 -0.06200
N 	N 	0.44220 0.00930 0.51170 -0.19200
N 	N 	0.42060 0.98750 0.53350 -0.20000
N 	N 	0.42180 0.03640 0.49970 -0.09800
N 	N 	0.38620 0.00000 0.53630 -0.14300
C 	C 	0.38850 0.03020 0.51520 0.06400
C 	C 	0.35390 0.05380 0.51050 0.11000
C 	C 	0.32100 0.04750 0.53420 -0.20200
C 	C 	0.35220 0.07740 0.48340 -0.27000
H 	H 	0.32010 0.02870 0.55190 0.07500
C 	C 	0.29260 0.07090 0.52830 0.17400
C 	C 	0.32370 0.09820 0.47980 0.24200
H 	H 	0.37170 0.07920 0.46660 0.11700
H 	H 	0.27160 0.06870 0.54310 -0.05500
C 	C 	0.29310 0.09780 0.50180 -0.38900
H 	H 	0.32390 0.11520 0.46030 -0.06400
N 	N 	0.44220 0.99070 0.98830 -0.17300
N 	N 	0.42060 0.01250 0.96650 -0.21100
N 	N 	0.42180 0.96360 0.00030 -0.10700
N 	N 	0.38620 0.00000 0.96370 -0.14500
C 	C 	0.38850 0.96980 0.98480 0.08400
C 	C 	0.35390 0.94620 0.98950 0.11300
C 	C 	0.32100 0.95250 0.96580 -0.18900
C 	C 	0.35220 0.92260 0.01660 -0.26500
H 	H 	0.32010 0.97130 0.94810 0.07600
C 	C 	0.29260 0.92910 0.97170 0.15700
C 	C 	0.32370 0.90180 0.02020 0.21200
H 	H 	0.37170 0.92080 0.03340 0.11400
H 	H 	0.27160 0.93130 0.95690 -0.04500
C 	C 	0.29310 0.90220 0.99820 -0.35200
H 	H 	0.32390 0.88480 0.03970 -0.05500
N 	N 	0.94220 0.49070 0.48830 -0.18300
N 	N 	0.92060 0.51250 0.46650 -0.20700
N 	N 	0.92180 0.46360 0.50030 -0.09500
N 	N 	0.88620 0.50000 0.46370 -0.13700
C 	C 	0.88850 0.46980 0.48480 0.06600
C 	C 	0.85390 0.44620 0.48950 0.11200
C 	C 	0.82100 0.45250 0.46580 -0.20200
C 	C 	0.85220 0.42260 0.51660 -0.27100
H 	H 	0.82010 0.47130 0.44810 0.07700
C 	C 	0.79260 0.42910 0.47170 0.17500
C 	C 	0.82370 0.40180 0.52020 0.24300
H 	H 	0.87170 0.42080 0.53340 0.11800
H 	H 	0.77160 0.43130 0.45690 -0.05500
C 	C 	0.79310 0.40220 0.49820 -0.38900
H 	H 	0.82390 0.38480 0.53970 -0.06400
N 	N 	0.05780 0.00930 0.48830 -0.19200
N 	N 	0.07940 0.98750 0.46650 -0.20000
N 	N 	0.07820 0.03640 0.50030 -0.09800
N 	N 	0.11380 -0.00000 0.46370 -0.14400
C 	C 	0.11150 0.03020 0.48480 0.06400
C 	C 	0.14610 0.05380 0.48950 0.11000
C 	C 	0.17900 0.04750 0.46580 -0.20200
C 	C 	0.14780 0.07740 0.51660 -0.27000
H 	H 	0.17990 0.02870 0.44810 0.07500
C 	C 	0.20740 0.07090 0.47170 0.17300
C 	C 	0.17630 0.09820 0.52020 0.24100
H 	H 	0.12830 0.07920 0.53340 0.11600
H 	H 	0.22840 0.06870 0.45690 -0.05500
C 	C 	0.20690 0.09780 0.49820 -0.38900
H 	H 	0.17610 0.11520 0.53970 -0.06400
N 	N 	0.55780 0.50930 0.98830 -0.17900
N 	N 	0.57940 0.48750 0.96650 -0.20600
N 	N 	0.57820 0.53640 0.00030 -0.10700
N 	N 	0.61380 0.50000 0.96370 -0.13800
C 	C 	0.61150 0.53020 0.98480 0.07500
C 	C 	0.64610 0.55380 0.98950 0.11400
C 	C 	0.67900 0.54750 0.96580 -0.19100
C 	C 	0.64780 0.57740 0.01660 -0.26700
H 	H 	0.67990 0.52870 0.94810 0.07400
C 	C 	0.70740 0.57090 0.97170 0.15800
C 	C 	0.67630 0.59820 0.02020 0.21300
H 	H 	0.62830 0.57920 0.03340 0.11400
H 	H 	0.72840 0.56870 0.95690 -0.04600
C 	C 	0.70690 0.59780 0.99820 -0.35300
H 	H 	0.67610 0.61520 0.03970 -0.05500
N 	N 	0.51170 0.55780 0.49070 -0.18500
N 	N 	0.53350 0.57940 0.51250 -0.20700
N 	N 	0.49970 0.57820 0.46360 -0.09600
N 	N 	0.53630 0.61380 0.50000 -0.13800
C 	C 	0.51520 0.61150 0.46980 0.06600
C 	C 	0.51050 0.64610 0.44620 0.11100
C 	C 	0.53420 0.67900 0.45250 -0.20100
C 	C 	0.48340 0.64780 0.42260 -0.27000
H 	H 	0.55190 0.67990 0.47130 0.07700
C 	C 	0.52830 0.70740 0.42910 0.17400
C 	C 	0.47980 0.67630 0.40180 0.24300
H 	H 	0.46660 0.62830 0.42080 0.11800
H 	H 	0.54310 0.72840 0.43130 -0.05500
C 	C 	0.50180 0.70690 0.40220 -0.38900
H 	H 	0.46030 0.67610 0.38480 -0.06400
N 	N 	0.01170 0.05780 0.99070 -0.18500
N 	N 	0.03350 0.07940 0.01250 -0.21400
N 	N 	0.99970 0.07820 0.96360 -0.08700
N 	N 	0.03630 0.11380 -0.00000 -0.14600
C 	C 	0.01520 0.11150 0.96980 0.07000
C 	C 	0.01050 0.14610 0.94620 0.09400
C 	C 	0.03420 0.17900 0.95250 -0.19300
C 	C 	0.98340 0.14780 0.92260 -0.24800
H 	H 	0.05190 0.17990 0.97130 0.07600
C 	C 	0.02830 0.20740 0.92910 0.16600
C 	C 	0.97980 0.17630 0.90180 0.24100
H 	H 	0.96660 0.12830 0.92080 0.11300
H 	H 	0.04310 0.22840 0.93130 -0.05200
C 	C 	0.00180 0.20690 0.90220 -0.38500
H 	H 	0.96030 0.17610 0.88480 -0.06100
N 	N 	0.01170 0.94220 0.50930 -0.18800
N 	N 	0.03350 0.92060 0.48750 -0.20800
N 	N 	0.99970 0.92180 0.53640 -0.08500
N 	N 	0.03630 0.88620 0.50000 -0.13800
C 	C 	0.01520 0.88850 0.53020 0.06100
C 	C 	0.01050 0.85390 0.55380 0.09600
C 	C 	0.03420 0.82100 0.54750 -0.19600
C 	C 	0.98340 0.85220 0.57740 -0.25000
H 	H 	0.05190 0.82010 0.52870 0.07400
C 	C 	0.02830 0.79260 0.57090 0.16700
C 	C 	0.97980 0.82370 0.59820 0.24200
H 	H 	0.96660 0.87170 0.57920 0.11400
H 	H 	0.04310 0.77160 0.56870 -0.05300
C 	C 	0.00180 0.79310 0.59780 -0.38700
H 	H 	0.96030 0.82390 0.61520 -0.06100
N 	N 	0.51170 0.44220 0.00930 -0.19100
N 	N 	0.53350 0.42060 0.98750 -0.19900
N 	N 	0.49970 0.42180 0.03640 -0.09700
N 	N 	0.53630 0.38620 -0.00000 -0.14300
C 	C 	0.51520 0.38850 0.03020 0.06400
C 	C 	0.51050 0.35390 0.05380 0.11000
C 	C 	0.53420 0.32100 0.04750 -0.20200
C 	C 	0.48340 0.35220 0.07740 -0.27000
H 	H 	0.55190 0.32010 0.02870 0.07500
C 	C 	0.52830 0.29260 0.07090 0.17400
C 	C 	0.47980 0.32370 0.09820 0.24200
H 	H 	0.46660 0.37170 0.07920 0.11700
H 	H 	0.54310 0.27160 0.06870 -0.05500
C 	C 	0.50180 0.29310 0.09780 -0.38900
H 	H 	0.46030 0.32390 0.11520 -0.06400
N 	N 	0.98830 0.44220 0.99070 -0.17300
N 	N 	0.96650 0.42060 0.01250 -0.21100
N 	N 	0.00030 0.42180 0.96360 -0.10700
N 	N 	0.96370 0.38620 -0.00000 -0.14500
C 	C 	0.98480 0.38850 0.96980 0.08400
C 	C 	0.98950 0.35390 0.94620 0.11300
C 	C 	0.96580 0.32100 0.95250 -0.18900
C 	C 	0.01660 0.35220 0.92260 -0.26500
H 	H 	0.94810 0.32010 0.97130 0.07600
C 	C 	0.97170 0.29260 0.92910 0.15700
C 	C 	0.02020 0.32370 0.90180 0.21200
H 	H 	0.03340 0.37170 0.92080 0.11400
H 	H 	0.95690 0.27160 0.93130 -0.04500
C 	C 	0.99820 0.29310 0.90220 -0.35200
H 	H 	0.03970 0.32390 0.88480 -0.05500
N 	N 	0.48830 0.94220 0.49070 -0.18300
N 	N 	0.46650 0.92060 0.51250 -0.20700
N 	N 	0.50030 0.92180 0.46360 -0.09500
N 	N 	0.46370 0.88620 0.50000 -0.13700
C 	C 	0.48480 0.88850 0.46980 0.06600
C 	C 	0.48950 0.85390 0.44620 0.11200
C 	C 	0.46580 0.82100 0.45250 -0.20200
C 	C 	0.51660 0.85220 0.42260 -0.27100
H 	H 	0.44810 0.82010 0.47130 0.07700
C 	C 	0.47170 0.79260 0.42910 0.17500
C 	C 	0.52020 0.82370 0.40180 0.24300
H 	H 	0.53340 0.87170 0.42080 0.11800
H 	H 	0.45690 0.77160 0.43130 -0.05500
C 	C 	0.49820 0.79310 0.40220 -0.38900
H 	H 	0.53970 0.82390 0.38480 -0.06400
N 	N 	0.48830 0.05780 0.00930 -0.19200
N 	N 	0.46650 0.07940 0.98750 -0.20000
N 	N 	0.50030 0.07820 0.03640 -0.09800
N 	N 	0.46370 0.11380 -0.00000 -0.14400
C 	C 	0.48480 0.11150 0.03020 0.06400
C 	C 	0.48950 0.14610 0.05380 0.11000
C 	C 	0.46580 0.17900 0.04750 -0.20200
C 	C 	0.51660 0.14780 0.07740 -0.27000
H 	H 	0.44810 0.17990 0.02870 0.07500
C 	C 	0.47170 0.20740 0.07090 0.17300
C 	C 	0.52020 0.17630 0.09820 0.24100
H 	H 	0.53340 0.12830 0.07920 0.11600
H 	H 	0.45690 0.22840 0.06870 -0.05500
C 	C 	0.49820 0.20690 0.09780 -0.38900
H 	H 	0.53970 0.17610 0.11520 -0.06400
N 	N 	0.98830 0.55780 0.50930 -0.17900
N 	N 	0.96650 0.57940 0.48750 -0.20600
N 	N 	0.00030 0.57820 0.53640 -0.10700
N 	N 	0.96370 0.61380 0.50000 -0.13800
C 	C 	0.98480 0.61150 0.53020 0.07500
C 	C 	0.98950 0.64610 0.55380 0.11400
C 	C 	0.96580 0.67900 0.54750 -0.19100
C 	C 	0.01660 0.64780 0.57740 -0.26700
H 	H 	0.94810 0.67990 0.52870 0.07400
C 	C 	0.97170 0.70740 0.57090 0.15800
C 	C 	0.02020 0.67630 0.59820 0.21300
H 	H 	0.03340 0.62830 0.57920 0.11400
H 	H 	0.95690 0.72840 0.56870 -0.04600
C 	C 	0.99820 0.70690 0.59780 -0.35300
H 	H 	0.03970 0.67610 0.61520 -0.05500
N 	N 	0.49070 0.51170 0.55780 -0.18500
N 	N 	0.51250 0.53350 0.57940 -0.20700
N 	N 	0.46360 0.49970 0.57820 -0.09600
N 	N 	0.50000 0.53630 0.61380 -0.13800
C 	C 	0.46980 0.51520 0.61150 0.06600
C 	C 	0.44620 0.51050 0.64610 0.11100
C 	C 	0.45250 0.53420 0.67900 -0.20100
C 	C 	0.42260 0.48340 0.64780 -0.27000
H 	H 	0.47130 0.55190 0.67990 0.07700
C 	C 	0.42910 0.52830 0.70740 0.17400
C 	C 	0.40180 0.47980 0.67630 0.24300
H 	H 	0.42080 0.46660 0.62830 0.11800
H 	H 	0.43130 0.54310 0.72840 -0.05500
C 	C 	0.40220 0.50180 0.70690 -0.38900
H 	H 	0.38480 0.46030 0.67610 -0.06400
N 	N 	0.99070 0.01170 0.05780 -0.18500
N 	N 	0.01250 0.03350 0.07940 -0.21400
N 	N 	0.96360 0.99970 0.07820 -0.08700
N 	N 	0.00000 0.03630 0.11380 -0.14600
C 	C 	0.96980 0.01520 0.11150 0.07000
C 	C 	0.94620 0.01050 0.14610 0.09400
C 	C 	0.95250 0.03420 0.17900 -0.19300
C 	C 	0.92260 0.98340 0.14780 -0.24800
H 	H 	0.97130 0.05190 0.17990 0.07600
C 	C 	0.92910 0.02830 0.20740 0.16600
C 	C 	0.90180 0.97980 0.17630 0.24100
H 	H 	0.92080 0.96660 0.12830 0.11300
H 	H 	0.93130 0.04310 0.22840 -0.05200
C 	C 	0.90220 0.00180 0.20690 -0.38500
H 	H 	0.88480 0.96030 0.17610 -0.06100
N 	N 	0.50930 0.01170 0.94220 -0.18800
N 	N 	0.48750 0.03350 0.92060 -0.20800
N 	N 	0.53640 0.99970 0.92180 -0.08500
N 	N 	0.50000 0.03630 0.88620 -0.13800
C 	C 	0.53020 0.01520 0.88850 0.06100
C 	C 	0.55380 0.01050 0.85390 0.09600
C 	C 	0.54750 0.03420 0.82100 -0.19600
C 	C 	0.57740 0.98340 0.85220 -0.25000
H 	H 	0.52870 0.05190 0.82010 0.07400
C 	C 	0.57090 0.02830 0.79260 0.16700
C 	C 	0.59820 0.97980 0.82370 0.24200
H 	H 	0.57920 0.96660 0.87170 0.11400
H 	H 	0.56870 0.04310 0.77160 -0.05300
C 	C 	0.59780 0.00180 0.79310 -0.38700
H 	H 	0.61520 0.96030 0.82390 -0.06100
N 	N 	0.00930 0.51170 0.44220 -0.19100
N 	N 	0.98750 0.53350 0.42060 -0.19900
N 	N 	0.03640 0.49970 0.42180 -0.09700
N 	N 	0.00000 0.53630 0.38620 -0.14300
C 	C 	0.03020 0.51520 0.38850 0.06400
C 	C 	0.05380 0.51050 0.35390 0.11000
C 	C 	0.04750 0.53420 0.32100 -0.20200
C 	C 	0.07740 0.48340 0.35220 -0.27000
H 	H 	0.02870 0.55190 0.32010 0.07500
C 	C 	0.07090 0.52830 0.29260 0.17400
C 	C 	0.09820 0.47980 0.32370 0.24200
H 	H 	0.07920 0.46660 0.37170 0.11700
H 	H 	0.06870 0.54310 0.27160 -0.05500
C 	C 	0.09780 0.50180 0.29310 -0.38900
H 	H 	0.11520 0.46030 0.32390 -0.06400
N 	N 	0.99070 0.98830 0.44220 -0.17300
N 	N 	0.01250 0.96650 0.42060 -0.21100
N 	N 	0.96360 0.00030 0.42180 -0.10700
N 	N 	0.00000 0.96370 0.38620 -0.14500
C 	C 	0.96980 0.98480 0.38850 0.08400
C 	C 	0.94620 0.98950 0.35390 0.11300
C 	C 	0.95250 0.96580 0.32100 -0.18900
C 	C 	0.92260 0.01660 0.35220 -0.26500
H 	H 	0.97130 0.94810 0.32010 0.07600
C 	C 	0.92910 0.97170 0.29260 0.15700
C 	C 	0.90180 0.02020 0.32370 0.21200
H 	H 	0.92080 0.03340 0.37170 0.11400
H 	H 	0.93130 0.95690 0.27160 -0.04500
C 	C 	0.90220 0.99820 0.29310 -0.35200
H 	H 	0.88480 0.03970 0.32390 -0.05500
N 	N 	0.49070 0.48830 0.94220 -0.18300
N 	N 	0.51250 0.46650 0.92060 -0.20700
N 	N 	0.46360 0.50030 0.92180 -0.09500
N 	N 	0.50000 0.46370 0.88620 -0.13700
C 	C 	0.46980 0.48480 0.88850 0.06600
C 	C 	0.44620 0.48950 0.85390 0.11200
C 	C 	0.45250 0.46580 0.82100 -0.20200
C 	C 	0.42260 0.51660 0.85220 -0.27100
H 	H 	0.47130 0.44810 0.82010 0.07700
C 	C 	0.42910 0.47170 0.79260 0.17500
C 	C 	0.40180 0.52020 0.82370 0.24300
H 	H 	0.42080 0.53340 0.87170 0.11800
H 	H 	0.43130 0.45690 0.77160 -0.05500
C 	C 	0.40220 0.49820 0.79310 -0.38900
H 	H 	0.38480 0.53970 0.82390 -0.06400
N 	N 	0.00930 0.48830 0.05780 -0.19200
N 	N 	0.98750 0.46650 0.07940 -0.20000
N 	N 	0.03640 0.50030 0.07820 -0.09800
N 	N 	0.00000 0.46370 0.11380 -0.14400
C 	C 	0.03020 0.48480 0.11150 0.06400
C 	C 	0.05380 0.48950 0.14610 0.11000
C 	C 	0.04750 0.46580 0.17900 -0.20200
C 	C 	0.07740 0.51660 0.14780 -0.27000
H 	H 	0.02870 0.44810 0.17990 0.07500
C 	C 	0.07090 0.47170 0.20740 0.17300
C 	C 	0.09820 0.52020 0.17630 0.24100
H 	H 	0.07920 0.53340 0.12830 0.11600
H 	H 	0.06870 0.45690 0.22840 -0.05500
C 	C 	0.09780 0.49820 0.20690 -0.38900
H 	H 	0.11520 0.53970 0.17610 -0.06400
N 	N 	0.50930 0.98830 0.55780 -0.17900
N 	N 	0.48750 0.96650 0.57940 -0.20600
N 	N 	0.53640 0.00030 0.57820 -0.10700
N 	N 	0.50000 0.96370 0.61380 -0.13800
C 	C 	0.53020 0.98480 0.61150 0.07500
C 	C 	0.55380 0.98950 0.64610 0.11400
C 	C 	0.54750 0.96580 0.67900 -0.19100
C 	C 	0.57740 0.01660 0.64780 -0.26700
H 	H 	0.52870 0.94810 0.67990 0.07400
C 	C 	0.57090 0.97170 0.70740 0.15800
C 	C 	0.59820 0.02020 0.67630 0.21300
H 	H 	0.57920 0.03340 0.62830 0.11400
H 	H 	0.56870 0.95690 0.72840 -0.04600
C 	C 	0.59780 0.99820 0.70690 -0.35300
H 	H 	0.61520 0.03970 0.67610 -0.05500
N 	N 	0.24070 0.80780 0.73830 -0.18500
N 	N 	0.26250 0.82940 0.71650 -0.20700
N 	N 	0.21360 0.82820 0.75030 -0.09700
N 	N 	0.25000 0.86380 0.71370 -0.13700
C 	C 	0.21980 0.86150 0.73480 0.06800
C 	C 	0.19620 0.89610 0.73950 0.10400
C 	C 	0.20250 0.92900 0.71580 -0.19000
C 	C 	0.17260 0.89780 0.76660 -0.25500
H 	H 	0.22130 0.92990 0.69810 0.07500
C 	C 	0.17910 0.95740 0.72170 0.16000
C 	C 	0.15180 0.92630 0.77020 0.22400
H 	H 	0.17080 0.87830 0.78340 0.11300
H 	H 	0.18130 0.97840 0.70690 -0.04500
C 	C 	0.15220 0.95690 0.74820 -0.36400
H 	H 	0.13480 0.92610 0.78970 -0.05700
N 	N 	0.74070 0.30780 0.23830 -0.18500
N 	N 	0.76250 0.32940 0.21650 -0.20700
N 	N 	0.71360 0.32820 0.25030 -0.09600
N 	N 	0.75000 0.36380 0.21370 -0.13800
C 	C 	0.71980 0.36150 0.23480 0.06600
C 	C 	0.69620 0.39610 0.23950 0.11100
C 	C 	0.70250 0.42900 0.21580 -0.20100
C 	C 	0.67260 0.39780 0.26660 -0.27000
H 	H 	0.72130 0.42990 0.19810 0.07700
C 	C 	0.67910 0.45740 0.22170 0.17400
C 	C 	0.65180 0.42630 0.27020 0.24300
H 	H 	0.67080 0.37830 0.28340 0.11800
H 	H 	0.68130 0.47840 0.20690 -0.05500
C 	C 	0.65220 0.45690 0.24820 -0.38900
H 	H 	0.63480 0.42610 0.28970 -0.06400
N 	N 	0.25930 0.19220 0.23830 -0.18500
N 	N 	0.23750 0.17060 0.21650 -0.20800
N 	N 	0.28640 0.17180 0.25030 -0.09700
N 	N 	0.25000 0.13620 0.21370 -0.13900
C 	C 	0.28020 0.13850 0.23480 0.06700
C 	C 	0.30380 0.10390 0.23950 0.10600
C 	C 	0.29750 0.07100 0.21580 -0.19600
C 	C 	0.32740 0.10220 0.26660 -0.26100
H 	H 	0.27870 0.07010 0.19810 0.07300
C 	C 	0.32090 0.04260 0.22170 0.16400
C 	C 	0.34820 0.07370 0.27020 0.23000
H 	H 	0.32920 0.12170 0.28340 0.11400
H 	H 	0.31870 0.02160 0.20690 -0.05400
C 	C 	0.34780 0.04310 0.24820 -0.37500
H 	H 	0.36520 0.07390 0.28970 -0.06000
N 	N 	0.75930 0.69220 0.73830 -0.18500
N 	N 	0.73750 0.67060 0.71650 -0.20700
N 	N 	0.78640 0.67180 0.75030 -0.09600
N 	N 	0.75000 0.63620 0.71370 -0.13800
C 	C 	0.78020 0.63850 0.73480 0.06600
C 	C 	0.80380 0.60390 0.73950 0.11200
C 	C 	0.79750 0.57100 0.71580 -0.20100
C 	C 	0.82740 0.60220 0.76660 -0.27000
H 	H 	0.77870 0.57010 0.69810 0.07700
C 	C 	0.82090 0.54260 0.72170 0.17400
C 	C 	0.84820 0.57370 0.77020 0.24300
H 	H 	0.82920 0.62170 0.78340 0.11800
H 	H 	0.81870 0.52160 0.70690 -0.05500
C 	C 	0.84780 0.54310 0.74820 -0.38900
H 	H 	0.86520 0.57390 0.78970 -0.06300
N 	N 	0.74070 0.69220 0.26170 -0.18500
N 	N 	0.76250 0.67060 0.28350 -0.20700
N 	N 	0.71360 0.67180 0.24970 -0.09600
N 	N 	0.75000 0.63620 0.28630 -0.13800
C 	C 	0.71980 0.63850 0.26520 0.06600
C 	C 	0.69620 0.60390 0.26050 0.11200
C 	C 	0.70250 0.57100 0.28420 -0.20100
C 	C 	0.67260 0.60220 0.23340 -0.27000
H 	H 	0.72130 0.57010 0.30190 0.07700
C 	C 	0.67910 0.54260 0.27830 0.17400
C 	C 	0.65180 0.57370 0.22980 0.24300
H 	H 	0.67080 0.62170 0.21660 0.11800
H 	H 	0.68130 0.52160 0.29310 -0.05400
C 	C 	0.65220 0.54310 0.25180 -0.38900
H 	H 	0.63480 0.57390 0.21030 -0.06400
N 	N 	0.24070 0.19220 0.76170 -0.18500
N 	N 	0.26250 0.17060 0.78350 -0.20700
N 	N 	0.21360 0.17180 0.74970 -0.09700
N 	N 	0.25000 0.13620 0.78630 -0.13800
C 	C 	0.21980 0.13850 0.76520 0.06700
C 	C 	0.19620 0.10390 0.76050 0.10600
C 	C 	0.20250 0.07100 0.78420 -0.19600
C 	C 	0.17260 0.10220 0.73340 -0.26100
H 	H 	0.22130 0.07010 0.80190 0.07400
C 	C 	0.17910 0.04260 0.77830 0.16500
C 	C 	0.15180 0.07370 0.72980 0.23000
H 	H 	0.17080 0.12170 0.71660 0.11400
H 	H 	0.18130 0.02160 0.79310 -0.05300
C 	C 	0.15220 0.04310 0.75180 -0.37500
H 	H 	0.13480 0.07390 0.71030 -0.06000
N 	N 	0.75930 0.30780 0.76170 -0.18500
N 	N 	0.73750 0.32940 0.78350 -0.20700
N 	N 	0.78640 0.32820 0.74970 -0.09600
N 	N 	0.75000 0.36380 0.78630 -0.13700
C 	C 	0.78020 0.36150 0.76520 0.06600
C 	C 	0.80380 0.39610 0.76050 0.11200
C 	C 	0.79750 0.42900 0.78420 -0.20100
C 	C 	0.82740 0.39780 0.73340 -0.27000
H 	H 	0.77870 0.42990 0.80190 0.07700
C 	C 	0.82090 0.45740 0.77830 0.17400
C 	C 	0.84820 0.42630 0.72980 0.24300
H 	H 	0.82920 0.37830 0.71660 0.11800
H 	H 	0.81870 0.47840 0.79310 -0.05400
C 	C 	0.84780 0.45690 0.75180 -0.38900
H 	H 	0.86520 0.42610 0.71030 -0.06300
N 	N 	0.25930 0.80780 0.26170 -0.18500
N 	N 	0.23750 0.82940 0.28350 -0.20700
N 	N 	0.28640 0.82820 0.24970 -0.09700
N 	N 	0.25000 0.86380 0.28630 -0.13800
C 	C 	0.28020 0.86150 0.26520 0.06800
C 	C 	0.30380 0.89610 0.26050 0.10400
C 	C 	0.29750 0.92900 0.28420 -0.19000
C 	C 	0.32740 0.89780 0.23340 -0.25500
H 	H 	0.27870 0.92990 0.30190 0.07500
C 	C 	0.32090 0.95740 0.27830 0.16000
C 	C 	0.34820 0.92630 0.22980 0.22400
H 	H 	0.32920 0.87830 0.21660 0.11300
H 	H 	0.31870 0.97840 0.29310 -0.04500
C 	C 	0.34780 0.95690 0.25180 -0.36400
H 	H 	0.36520 0.92610 0.21030 -0.05700
N 	N 	0.30780 0.76170 0.75930 -0.18500
N 	N 	0.32940 0.78350 0.73750 -0.20700
N 	N 	0.32820 0.74970 0.78640 -0.09600
N 	N 	0.36380 0.78630 0.75000 -0.13700
C 	C 	0.36150 0.76520 0.78020 0.06600
C 	C 	0.39610 0.76050 0.80380 0.11200
C 	C 	0.42900 0.78420 0.79750 -0.20100
C 	C 	0.39780 0.73340 0.82740 -0.27000
H 	H 	0.42990 0.80190 0.77870 0.07700
C 	C 	0.45740 0.77830 0.82090 0.17400
C 	C 	0.42630 0.72980 0.84820 0.24300
H 	H 	0.37830 0.71660 0.82920 0.11800
H 	H 	0.47840 0.79310 0.81870 -0.05400
C 	C 	0.45690 0.75180 0.84780 -0.38900
H 	H 	0.42610 0.71030 0.86520 -0.06300
N 	N 	0.80780 0.26170 0.25930 -0.18500
N 	N 	0.82940 0.28350 0.23750 -0.20700
N 	N 	0.82820 0.24970 0.28640 -0.09700
N 	N 	0.86380 0.28630 0.25000 -0.13800
C 	C 	0.86150 0.26520 0.28020 0.06800
C 	C 	0.89610 0.26050 0.30380 0.10400
C 	C 	0.92900 0.28420 0.29750 -0.19000
C 	C 	0.89780 0.23340 0.32740 -0.25500
H 	H 	0.92990 0.30190 0.27870 0.07500
C 	C 	0.95740 0.27830 0.32090 0.16000
C 	C 	0.92630 0.22980 0.34820 0.22400
H 	H 	0.87830 0.21660 0.32920 0.11300
H 	H 	0.97840 0.29310 0.31870 -0.04500
C 	C 	0.95690 0.25180 0.34780 -0.36400
H 	H 	0.92610 0.21030 0.36520 -0.05700
N 	N 	0.69220 0.26170 0.74070 -0.18500
N 	N 	0.67060 0.28350 0.76250 -0.20700
N 	N 	0.67180 0.24970 0.71360 -0.09600
N 	N 	0.63620 0.28630 0.75000 -0.13800
C 	C 	0.63850 0.26520 0.71980 0.06600
C 	C 	0.60390 0.26050 0.69620 0.11200
C 	C 	0.57100 0.28420 0.70250 -0.20100
C 	C 	0.60220 0.23340 0.67260 -0.27000
H 	H 	0.57010 0.30190 0.72130 0.07700
C 	C 	0.54260 0.27830 0.67910 0.17400
C 	C 	0.57370 0.22980 0.65180 0.24300
H 	H 	0.62170 0.21660 0.67080 0.11800
H 	H 	0.52160 0.29310 0.68130 -0.05400
C 	C 	0.54310 0.25180 0.65220 -0.38900
H 	H 	0.57390 0.21030 0.63480 -0.06400
N 	N 	0.19220 0.76170 0.24070 -0.18500
N 	N 	0.17060 0.78350 0.26250 -0.20700
N 	N 	0.17180 0.74970 0.21360 -0.09700
N 	N 	0.13620 0.78630 0.25000 -0.13800
C 	C 	0.13850 0.76520 0.21980 0.06700
C 	C 	0.10390 0.76050 0.19620 0.10600
C 	C 	0.07100 0.78420 0.20250 -0.19600
C 	C 	0.10220 0.73340 0.17260 -0.26100
H 	H 	0.07010 0.80190 0.22130 0.07400
C 	C 	0.04260 0.77830 0.17910 0.16500
C 	C 	0.07370 0.72980 0.15180 0.23000
H 	H 	0.12170 0.71660 0.17080 0.11400
H 	H 	0.02160 0.79310 0.18130 -0.05300
C 	C 	0.04310 0.75180 0.15220 -0.37500
H 	H 	0.07390 0.71030 0.13480 -0.06000
N 	N 	0.19220 0.23830 0.25930 -0.18500
N 	N 	0.17060 0.21650 0.23750 -0.20800
N 	N 	0.17180 0.25030 0.28640 -0.09700
N 	N 	0.13620 0.21370 0.25000 -0.13900
C 	C 	0.13850 0.23480 0.28020 0.06700
C 	C 	0.10390 0.23950 0.30380 0.10600
C 	C 	0.07100 0.21580 0.29750 -0.19600
C 	C 	0.10220 0.26660 0.32740 -0.26100
H 	H 	0.07010 0.19810 0.27870 0.07300
C 	C 	0.04260 0.22170 0.32090 0.16400
C 	C 	0.07370 0.27020 0.34820 0.23000
H 	H 	0.12170 0.28340 0.32920 0.11400
H 	H 	0.02160 0.20690 0.31870 -0.05400
C 	C 	0.04310 0.24820 0.34780 -0.37500
H 	H 	0.07390 0.28970 0.36520 -0.06000
N 	N 	0.69220 0.73830 0.75930 -0.18500
N 	N 	0.67060 0.71650 0.73750 -0.20700
N 	N 	0.67180 0.75030 0.78640 -0.09600
N 	N 	0.63620 0.71370 0.75000 -0.13800
C 	C 	0.63850 0.73480 0.78020 0.06600
C 	C 	0.60390 0.73950 0.80380 0.11200
C 	C 	0.57100 0.71580 0.79750 -0.20100
C 	C 	0.60220 0.76660 0.82740 -0.27000
H 	H 	0.57010 0.69810 0.77870 0.07700
C 	C 	0.54260 0.72170 0.82090 0.17400
C 	C 	0.57370 0.77020 0.84820 0.24300
H 	H 	0.62170 0.78340 0.82920 0.11800
H 	H 	0.52160 0.70690 0.81870 -0.05500
C 	C 	0.54310 0.74820 0.84780 -0.38900
H 	H 	0.57390 0.78970 0.86520 -0.06300
N 	N 	0.80780 0.73830 0.24070 -0.18500
N 	N 	0.82940 0.71650 0.26250 -0.20700
N 	N 	0.82820 0.75030 0.21360 -0.09700
N 	N 	0.86380 0.71370 0.25000 -0.13700
C 	C 	0.86150 0.73480 0.21980 0.06800
C 	C 	0.89610 0.73950 0.19620 0.10400
C 	C 	0.92900 0.71580 0.20250 -0.19000
C 	C 	0.89780 0.76660 0.17260 -0.25500
H 	H 	0.92990 0.69810 0.22130 0.07500
C 	C 	0.95740 0.72170 0.17910 0.16000
C 	C 	0.92630 0.77020 0.15180 0.22400
H 	H 	0.87830 0.78340 0.17080 0.11300
H 	H 	0.97840 0.70690 0.18130 -0.04500
C 	C 	0.95690 0.74820 0.15220 -0.36400
H 	H 	0.92610 0.78970 0.13480 -0.05700
N 	N 	0.30780 0.23830 0.74070 -0.18500
N 	N 	0.32940 0.21650 0.76250 -0.20700
N 	N 	0.32820 0.25030 0.71360 -0.09600
N 	N 	0.36380 0.21370 0.75000 -0.13800
C 	C 	0.36150 0.23480 0.71980 0.06600
C 	C 	0.39610 0.23950 0.69620 0.11100
C 	C 	0.42900 0.21580 0.70250 -0.20100
C 	C 	0.39780 0.26660 0.67260 -0.27000
H 	H 	0.42990 0.19810 0.72130 0.07700
C 	C 	0.45740 0.22170 0.67910 0.17400
C 	C 	0.42630 0.27020 0.65180 0.24300
H 	H 	0.37830 0.28340 0.67080 0.11800
H 	H 	0.47840 0.20690 0.68130 -0.05500
C 	C 	0.45690 0.24820 0.65220 -0.38900
H 	H 	0.42610 0.28970 0.63480 -0.06400
N 	N 	0.26170 0.74070 0.69220 -0.18500
N 	N 	0.28350 0.76250 0.67060 -0.20700
N 	N 	0.24970 0.71360 0.67180 -0.09600
N 	N 	0.28630 0.75000 0.63620 -0.13800
C 	C 	0.26520 0.71980 0.63850 0.06600
C 	C 	0.26050 0.69620 0.60390 0.11200
C 	C 	0.28420 0.70250 0.57100 -0.20100
C 	C 	0.23340 0.67260 0.60220 -0.27000
H 	H 	0.30190 0.72130 0.57010 0.07700
C 	C 	0.27830 0.67910 0.54260 0.17400
C 	C 	0.22980 0.65180 0.57370 0.24300
H 	H 	0.21660 0.67080 0.62170 0.11800
H 	H 	0.29310 0.68130 0.52160 -0.05400
C 	C 	0.25180 0.65220 0.54310 -0.38900
H 	H 	0.21030 0.63480 0.57390 -0.06400
N 	N 	0.76170 0.24070 0.19220 -0.18500
N 	N 	0.78350 0.26250 0.17060 -0.20700
N 	N 	0.74970 0.21360 0.17180 -0.09700
N 	N 	0.78630 0.25000 0.13620 -0.13800
C 	C 	0.76520 0.21980 0.13850 0.06700
C 	C 	0.76050 0.19620 0.10390 0.10600
C 	C 	0.78420 0.20250 0.07100 -0.19600
C 	C 	0.73340 0.17260 0.10220 -0.26100
H 	H 	0.80190 0.22130 0.07010 0.07400
C 	C 	0.77830 0.17910 0.04260 0.16500
C 	C 	0.72980 0.15180 0.07370 0.23000
H 	H 	0.71660 0.17080 0.12170 0.11400
H 	H 	0.79310 0.18130 0.02160 -0.05300
C 	C 	0.75180 0.15220 0.04310 -0.37500
H 	H 	0.71030 0.13480 0.07390 -0.06000
N 	N 	0.76170 0.75930 0.30780 -0.18500
N 	N 	0.78350 0.73750 0.32940 -0.20700
N 	N 	0.74970 0.78640 0.32820 -0.09600
N 	N 	0.78630 0.75000 0.36380 -0.13700
C 	C 	0.76520 0.78020 0.36150 0.06600
C 	C 	0.76050 0.80380 0.39610 0.11200
C 	C 	0.78420 0.79750 0.42900 -0.20100
C 	C 	0.73340 0.82740 0.39780 -0.27000
H 	H 	0.80190 0.77870 0.42990 0.07700
C 	C 	0.77830 0.82090 0.45740 0.17400
C 	C 	0.72980 0.84820 0.42630 0.24300
H 	H 	0.71660 0.82920 0.37830 0.11800
H 	H 	0.79310 0.81870 0.47840 -0.05400
C 	C 	0.75180 0.84780 0.45690 -0.38900
H 	H 	0.71030 0.86520 0.42610 -0.06300
N 	N 	0.26170 0.25930 0.80780 -0.18500
N 	N 	0.28350 0.23750 0.82940 -0.20700
N 	N 	0.24970 0.28640 0.82820 -0.09700
N 	N 	0.28630 0.25000 0.86380 -0.13800
C 	C 	0.26520 0.28020 0.86150 0.06800
C 	C 	0.26050 0.30380 0.89610 0.10400
C 	C 	0.28420 0.29750 0.92900 -0.19000
C 	C 	0.23340 0.32740 0.89780 -0.25500
H 	H 	0.30190 0.27870 0.92990 0.07500
C 	C 	0.27830 0.32090 0.95740 0.16000
C 	C 	0.22980 0.34820 0.92630 0.22400
H 	H 	0.21660 0.32920 0.87830 0.11300
H 	H 	0.29310 0.31870 0.97840 -0.04500
C 	C 	0.25180 0.34780 0.95690 -0.36400
H 	H 	0.21030 0.36520 0.92610 -0.05700
N 	N 	0.73830 0.24070 0.80780 -0.18500
N 	N 	0.71650 0.26250 0.82940 -0.20700
N 	N 	0.75030 0.21360 0.82820 -0.09700
N 	N 	0.71370 0.25000 0.86380 -0.13700
C 	C 	0.73480 0.21980 0.86150 0.06800
C 	C 	0.73950 0.19620 0.89610 0.10400
C 	C 	0.71580 0.20250 0.92900 -0.19000
C 	C 	0.76660 0.17260 0.89780 -0.25500
H 	H 	0.69810 0.22130 0.92990 0.07500
C 	C 	0.72170 0.17910 0.95740 0.16000
C 	C 	0.77020 0.15180 0.92630 0.22400
H 	H 	0.78340 0.17080 0.87830 0.11300
H 	H 	0.70690 0.18130 0.97840 -0.04500
C 	C 	0.74820 0.15220 0.95690 -0.36400
H 	H 	0.78970 0.13480 0.92610 -0.05700
N 	N 	0.23830 0.74070 0.30780 -0.18500
N 	N 	0.21650 0.76250 0.32940 -0.20700
N 	N 	0.25030 0.71360 0.32820 -0.09600
N 	N 	0.21370 0.75000 0.36380 -0.13800
C 	C 	0.23480 0.71980 0.36150 0.06600
C 	C 	0.23950 0.69620 0.39610 0.11100
C 	C 	0.21580 0.70250 0.42900 -0.20100
C 	C 	0.26660 0.67260 0.39780 -0.27000
H 	H 	0.19810 0.72130 0.42990 0.07700
C 	C 	0.22170 0.67910 0.45740 0.17400
C 	C 	0.27020 0.65180 0.42630 0.24300
H 	H 	0.28340 0.67080 0.37830 0.11800
H 	H 	0.20690 0.68130 0.47840 -0.05500
C 	C 	0.24820 0.65220 0.45690 -0.38900
H 	H 	0.28970 0.63480 0.42610 -0.06400
N 	N 	0.23830 0.25930 0.19220 -0.18500
N 	N 	0.21650 0.23750 0.17060 -0.20800
N 	N 	0.25030 0.28640 0.17180 -0.09700
N 	N 	0.21370 0.25000 0.13620 -0.13900
C 	C 	0.23480 0.28020 0.13850 0.06700
C 	C 	0.23950 0.30380 0.10390 0.10600
C 	C 	0.21580 0.29750 0.07100 -0.19600
C 	C 	0.26660 0.32740 0.10220 -0.26100
H 	H 	0.19810 0.27870 0.07010 0.07300
C 	C 	0.22170 0.32090 0.04260 0.16400
C 	C 	0.27020 0.34820 0.07370 0.23000
H 	H 	0.28340 0.32920 0.12170 0.11400
H 	H 	0.20690 0.31870 0.02160 -0.05400
C 	C 	0.24820 0.34780 0.04310 -0.37500
H 	H 	0.28970 0.36520 0.07390 -0.06000
N 	N 	0.73830 0.75930 0.69220 -0.18500
N 	N 	0.71650 0.73750 0.67060 -0.20700
N 	N 	0.75030 0.78640 0.67180 -0.09600
N 	N 	0.71370 0.75000 0.63620 -0.13800
C 	C 	0.73480 0.78020 0.63850 0.06600
C 	C 	0.73950 0.80380 0.60390 0.11200
C 	C 	0.71580 0.79750 0.57100 -0.20100
C 	C 	0.76660 0.82740 0.60220 -0.27000
H 	H 	0.69810 0.77870 0.57010 0.07700
C 	C 	0.72170 0.82090 0.54260 0.17400
C 	C 	0.77020 0.84820 0.57370 0.24300
H 	H 	0.78340 0.82920 0.62170 0.11800
H 	H 	0.70690 0.81870 0.52160 -0.05500
C 	C 	0.74820 0.84780 0.54310 -0.38900
H 	H 	0.78970 0.86520 0.57390 -0.06300
N 	N 	0.44220 0.50930 0.48830 -0.18500
N 	N 	0.42060 0.48750 0.46650 -0.20700
N 	N 	0.42180 0.53640 0.50030 -0.09600
N 	N 	0.38620 0.50000 0.46370 -0.13800
C 	C 	0.38850 0.53020 0.48480 0.06600
C 	C 	0.35390 0.55380 0.48950 0.11100
C 	C 	0.32100 0.54750 0.46580 -0.20100
C 	C 	0.35220 0.57740 0.51660 -0.27000
H 	H 	0.32010 0.52870 0.44810 0.07700
C 	C 	0.29260 0.57090 0.47170 0.17400
C 	C 	0.32370 0.59820 0.52020 0.24300
H 	H 	0.37170 0.57920 0.53340 0.11800
H 	H 	0.27160 0.56870 0.45690 -0.05500
C 	C 	0.29310 0.59780 0.49820 -0.38900
H 	H 	0.32390 0.61520 0.53970 -0.06400
N 	N 	0.94220 0.00930 0.98830 -0.18200
N 	N 	0.92060 0.98750 0.96650 -0.19700
N 	N 	0.92180 0.03640 0.00030 -0.10600
N 	N 	0.88620 0.00000 0.96370 -0.14300
C 	C 	0.88850 0.03020 0.98480 0.07300
C 	C 	0.85390 0.05380 0.98950 0.11400
C 	C 	0.82100 0.04750 0.96580 -0.19100
C 	C 	0.85220 0.07740 0.01660 -0.26700
H 	H 	0.82010 0.02870 0.94810 0.07300
C 	C 	0.79260 0.07090 0.97170 0.15700
C 	C 	0.82370 0.09820 0.02020 0.21300
H 	H 	0.87170 0.07920 0.03340 0.11400
H 	H 	0.77160 0.06870 0.95690 -0.04700
C 	C 	0.79310 0.09780 0.99820 -0.35300
H 	H 	0.82390 0.11520 0.03970 -0.05500
N 	N 	0.05780 0.49070 0.98830 -0.18000
N 	N 	0.07940 0.51250 0.96650 -0.20700
N 	N 	0.07820 0.46360 0.00030 -0.10700
N 	N 	0.11380 0.50000 0.96370 -0.13800
C 	C 	0.11150 0.46980 0.98480 0.07400
C 	C 	0.14610 0.44620 0.98950 0.11400
C 	C 	0.17900 0.45250 0.96580 -0.19100
C 	C 	0.14780 0.42260 0.01660 -0.26700
H 	H 	0.17990 0.47130 0.94810 0.07400
C 	C 	0.20740 0.42910 0.97170 0.15700
C 	C 	0.17630 0.40180 0.02020 0.21300
H 	H 	0.12830 0.42080 0.03340 0.11300
H 	H 	0.22840 0.43130 0.95690 -0.04600
C 	C 	0.20690 0.40220 0.99820 -0.35200
H 	H 	0.17610 0.38480 0.03970 -0.05600
N 	N 	0.55780 0.99070 0.48830 -0.17900
N 	N 	0.57940 0.01250 0.46650 -0.21200
N 	N 	0.57820 0.96360 0.50030 -0.09600
N 	N 	0.61380 -0.00000 0.46370 -0.14500
C 	C 	0.61150 0.96980 0.48480 0.07500
C 	C 	0.64610 0.94620 0.48950 0.11000
C 	C 	0.67900 0.95250 0.46580 -0.19900
C 	C 	0.64780 0.92260 0.51660 -0.26800
H 	H 	0.67990 0.97130 0.44810 0.07900
C 	C 	0.70740 0.92910 0.47170 0.17400
C 	C 	0.67630 0.90180 0.52020 0.24200
H 	H 	0.62830 0.92080 0.53340 0.11800
H 	H 	0.72840 0.93130 0.45690 -0.05300
C 	C 	0.70690 0.90220 0.49820 -0.38800
H 	H 	0.67610 0.88480 0.53970 -0.06300
N 	N 	0.55780 0.00930 0.01170 -0.19600
N 	N 	0.57940 0.98750 0.03350 -0.20000
N 	N 	0.57820 0.03640 0.99970 -0.08700
N 	N 	0.61380 -0.00000 0.03630 -0.14300
C 	C 	0.61150 0.03020 0.01520 0.05900
C 	C 	0.64610 0.05380 0.01050 0.09500
C 	C 	0.67900 0.04750 0.03420 -0.19600
C 	C 	0.64780 0.07740 0.98340 -0.25000
H 	H 	0.67990 0.02870 0.05190 0.07200
C 	C 	0.70740 0.07090 0.02830 0.16600
C 	C 	0.67630 0.09820 0.97980 0.24100
H 	H 	0.62830 0.07920 0.96660 0.11300
H 	H 	0.72840 0.06870 0.04310 -0.05300
C 	C 	0.70690 0.09780 0.00180 -0.38700
H 	H 	0.67610 0.11520 0.96030 -0.06100
N 	N 	0.05780 0.50930 0.51170 -0.18600
N 	N 	0.07940 0.48750 0.53350 -0.20800
N 	N 	0.07820 0.53640 0.49970 -0.09700
N 	N 	0.11380 0.50000 0.53630 -0.13800
C 	C 	0.11150 0.53020 0.51520 0.06500
C 	C 	0.14610 0.55380 0.51050 0.11100
C 	C 	0.17900 0.54750 0.53420 -0.20100
C 	C 	0.14780 0.57740 0.48340 -0.27000
H 	H 	0.17990 0.52870 0.55190 0.07700
C 	C 	0.20740 0.57090 0.52830 0.17400
C 	C 	0.17630 0.59820 0.47980 0.24200
H 	H 	0.12830 0.57920 0.46660 0.11700
H 	H 	0.22840 0.56870 0.54310 -0.05500
C 	C 	0.20690 0.59780 0.50180 -0.38900
H 	H 	0.17610 0.61520 0.46030 -0.06400
N 	N 	0.94220 0.99070 0.51170 -0.17700
N 	N 	0.92060 0.01250 0.53350 -0.21100
N 	N 	0.92180 0.96360 0.49970 -0.09500
N 	N 	0.88620 0.00000 0.53630 -0.14500
C 	C 	0.88850 0.96980 0.51520 0.07500
C 	C 	0.85390 0.94620 0.51050 0.11100
C 	C 	0.82100 0.95250 0.53420 -0.19900
C 	C 	0.85220 0.92260 0.48340 -0.26800
H 	H 	0.82010 0.97130 0.55190 0.07900
C 	C 	0.79260 0.92910 0.52830 0.17400
C 	C 	0.82370 0.90180 0.47980 0.24200
H 	H 	0.87170 0.92080 0.46660 0.11800
H 	H 	0.77160 0.93130 0.54310 -0.05300
C 	C 	0.79310 0.90220 0.50180 -0.38800
H 	H 	0.82390 0.88480 0.46030 -0.06300
N 	N 	0.44220 0.49070 0.01170 -0.19100
N 	N 	0.42060 0.51250 0.03350 -0.20800
N 	N 	0.42180 0.46360 0.99970 -0.08600
N 	N 	0.38620 0.50000 0.03630 -0.13800
C 	C 	0.38850 0.46980 0.01520 0.06100
C 	C 	0.35390 0.44620 0.01050 0.09500
C 	C 	0.32100 0.45250 0.03420 -0.19600
C 	C 	0.35220 0.42260 0.98340 -0.25000
H 	H 	0.32010 0.47130 0.05190 0.07400
C 	C 	0.29260 0.42910 0.02830 0.16700
C 	C 	0.32370 0.40180 0.97980 0.24200
H 	H 	0.37170 0.42080 0.96660 0.11300
H 	H 	0.27160 0.43130 0.04310 -0.05300
C 	C 	0.29310 0.40220 0.00180 -0.38700
H 	H 	0.32390 0.38480 0.96030 -0.06100
N 	N 	0.48830 0.44220 0.50930 -0.18500
N 	N 	0.46650 0.42060 0.48750 -0.20700
N 	N 	0.50030 0.42180 0.53640 -0.09600
N 	N 	0.46370 0.38620 0.50000 -0.13800
C 	C 	0.48480 0.38850 0.53020 0.06600
C 	C 	0.48950 0.35390 0.55380 0.11100
C 	C 	0.46580 0.32100 0.54750 -0.20100
C 	C 	0.51660 0.35220 0.57740 -0.27000
H 	H 	0.44810 0.32010 0.52870 0.07700
C 	C 	0.47170 0.29260 0.57090 0.17400
C 	C 	0.52020 0.32370 0.59820 0.24300
H 	H 	0.53340 0.37170 0.57920 0.11800
H 	H 	0.45690 0.27160 0.56870 -0.05500
C 	C 	0.49820 0.29310 0.59780 -0.38900
H 	H 	0.53970 0.32390 0.61520 -0.06400
N 	N 	0.98830 0.94220 0.00930 -0.18200
N 	N 	0.96650 0.92060 0.98750 -0.19700
N 	N 	0.00030 0.92180 0.03640 -0.10600
N 	N 	0.96370 0.88620 -0.00000 -0.14300
C 	C 	0.98480 0.88850 0.03020 0.07300
C 	C 	0.98950 0.85390 0.05380 0.11400
C 	C 	0.96580 0.82100 0.04750 -0.19100
C 	C 	0.01660 0.85220 0.07740 -0.26700
H 	H 	0.94810 0.82010 0.02870 0.07300
C 	C 	0.97170 0.79260 0.07090 0.15700
C 	C 	0.02020 0.82370 0.09820 0.21300
H 	H 	0.03340 0.87170 0.07920 0.11400
H 	H 	0.95690 0.77160 0.06870 -0.04700
C 	C 	0.99820 0.79310 0.09780 -0.35300
H 	H 	0.03970 0.82390 0.11520 -0.05500
N 	N 	0.98830 0.05780 0.49070 -0.18000
N 	N 	0.96650 0.07940 0.51250 -0.20700
N 	N 	0.00030 0.07820 0.46360 -0.10700
N 	N 	0.96370 0.11380 0.50000 -0.13800
C 	C 	0.98480 0.11150 0.46980 0.07400
C 	C 	0.98950 0.14610 0.44620 0.11400
C 	C 	0.96580 0.17900 0.45250 -0.19100
C 	C 	0.01660 0.14780 0.42260 -0.26700
H 	H 	0.94810 0.17990 0.47130 0.07400
C 	C 	0.97170 0.20740 0.42910 0.15700
C 	C 	0.02020 0.17630 0.40180 0.21300
H 	H 	0.03340 0.12830 0.42080 0.11300
H 	H 	0.95690 0.22840 0.43130 -0.04600
C 	C 	0.99820 0.20690 0.40220 -0.35200
H 	H 	0.03970 0.17610 0.38480 -0.05600
N 	N 	0.48830 0.55780 0.99070 -0.17900
N 	N 	0.46650 0.57940 0.01250 -0.21200
N 	N 	0.50030 0.57820 0.96360 -0.09600
N 	N 	0.46370 0.61380 -0.00000 -0.14500
C 	C 	0.48480 0.61150 0.96980 0.07500
C 	C 	0.48950 0.64610 0.94620 0.11000
C 	C 	0.46580 0.67900 0.95250 -0.19900
C 	C 	0.51660 0.64780 0.92260 -0.26800
H 	H 	0.44810 0.67990 0.97130 0.07900
C 	C 	0.47170 0.70740 0.92910 0.17400
C 	C 	0.52020 0.67630 0.90180 0.24200
H 	H 	0.53340 0.62830 0.92080 0.11800
H 	H 	0.45690 0.72840 0.93130 -0.05300
C 	C 	0.49820 0.70690 0.90220 -0.38800
H 	H 	0.53970 0.67610 0.88480 -0.06300
N 	N 	0.01170 0.55780 0.00930 -0.19600
N 	N 	0.03350 0.57940 0.98750 -0.20000
N 	N 	0.99970 0.57820 0.03640 -0.08700
N 	N 	0.03630 0.61380 -0.00000 -0.14300
C 	C 	0.01520 0.61150 0.03020 0.05900
C 	C 	0.01050 0.64610 0.05380 0.09500
C 	C 	0.03420 0.67900 0.04750 -0.19600
C 	C 	0.98340 0.64780 0.07740 -0.25000
H 	H 	0.05190 0.67990 0.02870 0.07200
C 	C 	0.02830 0.70740 0.07090 0.16600
C 	C 	0.97980 0.67630 0.09820 0.24100
H 	H 	0.96660 0.62830 0.07920 0.11300
H 	H 	0.04310 0.72840 0.06870 -0.05300
C 	C 	0.00180 0.70690 0.09780 -0.38700
H 	H 	0.96030 0.67610 0.11520 -0.06100
N 	N 	0.51170 0.05780 0.50930 -0.18600
N 	N 	0.53350 0.07940 0.48750 -0.20800
N 	N 	0.49970 0.07820 0.53640 -0.09700
N 	N 	0.53630 0.11380 0.50000 -0.13800
C 	C 	0.51520 0.11150 0.53020 0.06500
C 	C 	0.51050 0.14610 0.55380 0.11100
C 	C 	0.53420 0.17900 0.54750 -0.20100
C 	C 	0.48340 0.14780 0.57740 -0.27000
H 	H 	0.55190 0.17990 0.52870 0.07700
C 	C 	0.52830 0.20740 0.57090 0.17400
C 	C 	0.47980 0.17630 0.59820 0.24200
H 	H 	0.46660 0.12830 0.57920 0.11700
H 	H 	0.54310 0.22840 0.56870 -0.05500
C 	C 	0.50180 0.20690 0.59780 -0.38900
H 	H 	0.46030 0.17610 0.61520 -0.06400
N 	N 	0.51170 0.94220 0.99070 -0.17700
N 	N 	0.53350 0.92060 0.01250 -0.21100
N 	N 	0.49970 0.92180 0.96360 -0.09500
N 	N 	0.53630 0.88620 -0.00000 -0.14500
C 	C 	0.51520 0.88850 0.96980 0.07500
C 	C 	0.51050 0.85390 0.94620 0.11100
C 	C 	0.53420 0.82100 0.95250 -0.19900
C 	C 	0.48340 0.85220 0.92260 -0.26800
H 	H 	0.55190 0.82010 0.97130 0.07900
C 	C 	0.52830 0.79260 0.92910 0.17400
C 	C 	0.47980 0.82370 0.90180 0.24200
H 	H 	0.46660 0.87170 0.92080 0.11800
H 	H 	0.54310 0.77160 0.93130 -0.05300
C 	C 	0.50180 0.79310 0.90220 -0.38800
H 	H 	0.46030 0.82390 0.88480 -0.06300
N 	N 	0.01170 0.44220 0.49070 -0.19100
N 	N 	0.03350 0.42060 0.51250 -0.20800
N 	N 	0.99970 0.42180 0.46360 -0.08600
N 	N 	0.03630 0.38620 0.50000 -0.13800
C 	C 	0.01520 0.38850 0.46980 0.06100
C 	C 	0.01050 0.35390 0.44620 0.09500
C 	C 	0.03420 0.32100 0.45250 -0.19600
C 	C 	0.98340 0.35220 0.42260 -0.25000
H 	H 	0.05190 0.32010 0.47130 0.07400
C 	C 	0.02830 0.29260 0.42910 0.16700
C 	C 	0.97980 0.32370 0.40180 0.24200
H 	H 	0.96660 0.37170 0.42080 0.11300
H 	H 	0.04310 0.27160 0.43130 -0.05300
C 	C 	0.00180 0.29310 0.40220 -0.38700
H 	H 	0.96030 0.32390 0.38480 -0.06100
N 	N 	0.50930 0.48830 0.44220 -0.18500
N 	N 	0.48750 0.46650 0.42060 -0.20700
N 	N 	0.53640 0.50030 0.42180 -0.09600
N 	N 	0.50000 0.46370 0.38620 -0.13800
C 	C 	0.53020 0.48480 0.38850 0.06600
C 	C 	0.55380 0.48950 0.35390 0.11100
C 	C 	0.54750 0.46580 0.32100 -0.20100
C 	C 	0.57740 0.51660 0.35220 -0.27000
H 	H 	0.52870 0.44810 0.32010 0.07700
C 	C 	0.57090 0.47170 0.29260 0.17400
C 	C 	0.59820 0.52020 0.32370 0.24300
H 	H 	0.57920 0.53340 0.37170 0.11800
H 	H 	0.56870 0.45690 0.27160 -0.05500
C 	C 	0.59780 0.49820 0.29310 -0.38900
H 	H 	0.61520 0.53970 0.32390 -0.06400
N 	N 	0.00930 0.98830 0.94220 -0.18200
N 	N 	0.98750 0.96650 0.92060 -0.19700
N 	N 	0.03640 0.00030 0.92180 -0.10600
N 	N 	0.00000 0.96370 0.88620 -0.14300
C 	C 	0.03020 0.98480 0.88850 0.07300
C 	C 	0.05380 0.98950 0.85390 0.11400
C 	C 	0.04750 0.96580 0.82100 -0.19100
C 	C 	0.07740 0.01660 0.85220 -0.26700
H 	H 	0.02870 0.94810 0.82010 0.07300
C 	C 	0.07090 0.97170 0.79260 0.15700
C 	C 	0.09820 0.02020 0.82370 0.21300
H 	H 	0.07920 0.03340 0.87170 0.11400
H 	H 	0.06870 0.95690 0.77160 -0.04700
C 	C 	0.09780 0.99820 0.79310 -0.35300
H 	H 	0.11520 0.03970 0.82390 -0.05500
N 	N 	0.49070 0.98830 0.05780 -0.18000
N 	N 	0.51250 0.96650 0.07940 -0.20700
N 	N 	0.46360 0.00030 0.07820 -0.10700
N 	N 	0.50000 0.96370 0.11380 -0.13800
C 	C 	0.46980 0.98480 0.11150 0.07400
C 	C 	0.44620 0.98950 0.14610 0.11400
C 	C 	0.45250 0.96580 0.17900 -0.19100
C 	C 	0.42260 0.01660 0.14780 -0.26700
H 	H 	0.47130 0.94810 0.17990 0.07400
C 	C 	0.42910 0.97170 0.20740 0.15700
C 	C 	0.40180 0.02020 0.17630 0.21300
H 	H 	0.42080 0.03340 0.12830 0.11300
H 	H 	0.43130 0.95690 0.22840 -0.04600
C 	C 	0.40220 0.99820 0.20690 -0.35200
H 	H 	0.38480 0.03970 0.17610 -0.05600
N 	N 	0.99070 0.48830 0.55780 -0.17900
N 	N 	0.01250 0.46650 0.57940 -0.21200
N 	N 	0.96360 0.50030 0.57820 -0.09600
N 	N 	0.00000 0.46370 0.61380 -0.14500
C 	C 	0.96980 0.48480 0.61150 0.07500
C 	C 	0.94620 0.48950 0.64610 0.11000
C 	C 	0.95250 0.46580 0.67900 -0.19900
C 	C 	0.92260 0.51660 0.64780 -0.26800
H 	H 	0.97130 0.44810 0.67990 0.07900
C 	C 	0.92910 0.47170 0.70740 0.17400
C 	C 	0.90180 0.52020 0.67630 0.24200
H 	H 	0.92080 0.53340 0.62830 0.11800
H 	H 	0.93130 0.45690 0.72840 -0.05300
C 	C 	0.90220 0.49820 0.70690 -0.38800
H 	H 	0.88480 0.53970 0.67610 -0.06300
N 	N 	0.00930 0.01170 0.55780 -0.19600
N 	N 	0.98750 0.03350 0.57940 -0.20000
N 	N 	0.03640 0.99970 0.57820 -0.08700
N 	N 	0.00000 0.03630 0.61380 -0.14300
C 	C 	0.03020 0.01520 0.61150 0.05900
C 	C 	0.05380 0.01050 0.64610 0.09500
C 	C 	0.04750 0.03420 0.67900 -0.19600
C 	C 	0.07740 0.98340 0.64780 -0.25000
H 	H 	0.02870 0.05190 0.67990 0.07200
C 	C 	0.07090 0.02830 0.70740 0.16600
C 	C 	0.09820 0.97980 0.67630 0.24100
H 	H 	0.07920 0.96660 0.62830 0.11300
H 	H 	0.06870 0.04310 0.72840 -0.05300
C 	C 	0.09780 0.00180 0.70690 -0.38700
H 	H 	0.11520 0.96030 0.67610 -0.06100
N 	N 	0.50930 0.51170 0.05780 -0.18600
N 	N 	0.48750 0.53350 0.07940 -0.20800
N 	N 	0.53640 0.49970 0.07820 -0.09700
N 	N 	0.50000 0.53630 0.11380 -0.13800
C 	C 	0.53020 0.51520 0.11150 0.06500
C 	C 	0.55380 0.51050 0.14610 0.11100
C 	C 	0.54750 0.53420 0.17900 -0.20100
C 	C 	0.57740 0.48340 0.14780 -0.27000
H 	H 	0.52870 0.55190 0.17990 0.07700
C 	C 	0.57090 0.52830 0.20740 0.17400
C 	C 	0.59820 0.47980 0.17630 0.24200
H 	H 	0.57920 0.46660 0.12830 0.11700
H 	H 	0.56870 0.54310 0.22840 -0.05500
C 	C 	0.59780 0.50180 0.20690 -0.38900
H 	H 	0.61520 0.46030 0.17610 -0.06400
N 	N 	0.99070 0.51170 0.94220 -0.17700
N 	N 	0.01250 0.53350 0.92060 -0.21100
N 	N 	0.96360 0.49970 0.92180 -0.09500
N 	N 	0.00000 0.53630 0.88620 -0.14500
C 	C 	0.96980 0.51520 0.88850 0.07500
C 	C 	0.94620 0.51050 0.85390 0.11100
C 	C 	0.95250 0.53420 0.82100 -0.19900
C 	C 	0.92260 0.48340 0.85220 -0.26800
H 	H 	0.97130 0.55190 0.82010 0.07900
C 	C 	0.92910 0.52830 0.79260 0.17400
C 	C 	0.90180 0.47980 0.82370 0.24200
H 	H 	0.92080 0.46660 0.87170 0.11800
H 	H 	0.93130 0.54310 0.77160 -0.05300
C 	C 	0.90220 0.50180 0.79310 -0.38800
H 	H 	0.88480 0.46030 0.82390 -0.06300
N 	N 	0.49070 0.01170 0.44220 -0.19100
N 	N 	0.51250 0.03350 0.42060 -0.20800
N 	N 	0.46360 0.99970 0.42180 -0.08600
N 	N 	0.50000 0.03630 0.38620 -0.13800
C 	C 	0.46980 0.01520 0.38850 0.06100
C 	C 	0.44620 0.01050 0.35390 0.09500
C 	C 	0.45250 0.03420 0.32100 -0.19600
C 	C 	0.42260 0.98340 0.35220 -0.25000
H 	H 	0.47130 0.05190 0.32010 0.07400
C 	C 	0.42910 0.02830 0.29260 0.16700
C 	C 	0.40180 0.97980 0.32370 0.24200
H 	H 	0.42080 0.96660 0.37170 0.11300
H 	H 	0.43130 0.04310 0.27160 -0.05300
C 	C 	0.40220 0.00180 0.29310 -0.38700
H 	H 	0.38480 0.96030 0.32390 -0.06100
N 	N 	0.75930 0.19220 0.26170 -0.18500
N 	N 	0.73750 0.17060 0.28350 -0.20800
N 	N 	0.78640 0.17180 0.24970 -0.09600
N 	N 	0.75000 0.13620 0.28630 -0.13900
C 	C 	0.78020 0.13850 0.26520 0.06700
C 	C 	0.80380 0.10390 0.26050 0.10600
C 	C 	0.79750 0.07100 0.28420 -0.19600
C 	C 	0.82740 0.10220 0.23340 -0.26100
H 	H 	0.77870 0.07010 0.30190 0.07400
C 	C 	0.82090 0.04260 0.27830 0.16400
C 	C 	0.84820 0.07370 0.22980 0.23000
H 	H 	0.82920 0.12170 0.21660 0.11400
H 	H 	0.81870 0.02160 0.29310 -0.05400
C 	C 	0.84780 0.04310 0.25180 -0.37500
H 	H 	0.86520 0.07390 0.21030 -0.06000
N 	N 	0.25930 0.69220 0.76170 -0.18500
N 	N 	0.23750 0.67060 0.78350 -0.20700
N 	N 	0.28640 0.67180 0.74970 -0.09600
N 	N 	0.25000 0.63620 0.78630 -0.13800
C 	C 	0.28020 0.63850 0.76520 0.06600
C 	C 	0.30380 0.60390 0.76050 0.11200
C 	C 	0.29750 0.57100 0.78420 -0.20100
C 	C 	0.32740 0.60220 0.73340 -0.27000
H 	H 	0.27870 0.57010 0.80190 0.07700
C 	C 	0.32090 0.54260 0.77830 0.17400
C 	C 	0.34820 0.57370 0.72980 0.24300
H 	H 	0.32920 0.62170 0.71660 0.11800
H 	H 	0.31870 0.52160 0.79310 -0.05400
C 	C 	0.34780 0.54310 0.75180 -0.38900
H 	H 	0.36520 0.57390 0.71030 -0.06400
N 	N 	0.74070 0.80780 0.76170 -0.18500
N 	N 	0.76250 0.82940 0.78350 -0.20700
N 	N 	0.71360 0.82820 0.74970 -0.09600
N 	N 	0.75000 0.86380 0.78630 -0.13700
C 	C 	0.71980 0.86150 0.76520 0.06900
C 	C 	0.69620 0.89610 0.76050 0.10400
C 	C 	0.70250 0.92900 0.78420 -0.19100
C 	C 	0.67260 0.89780 0.73340 -0.25600
H 	H 	0.72130 0.92990 0.80190 0.07600
C 	C 	0.67910 0.95740 0.77830 0.16100
C 	C 	0.65180 0.92630 0.72980 0.22500
H 	H 	0.67080 0.87830 0.71660 0.11300
H 	H 	0.68130 0.97840 0.79310 -0.04500
C 	C 	0.65220 0.95690 0.75180 -0.36400
H 	H 	0.63480 0.92610 0.71030 -0.05700
N 	N 	0.24070 0.30780 0.26170 -0.18500
N 	N 	0.26250 0.32940 0.28350 -0.20700
N 	N 	0.21360 0.32820 0.24970 -0.09600
N 	N 	0.25000 0.36380 0.28630 -0.13800
C 	C 	0.21980 0.36150 0.26520 0.06600
C 	C 	0.19620 0.39610 0.26050 0.11100
C 	C 	0.20250 0.42900 0.28420 -0.20100
C 	C 	0.17260 0.39780 0.23340 -0.27000
H 	H 	0.22130 0.42990 0.30190 0.07700
C 	C 	0.17910 0.45740 0.27830 0.17400
C 	C 	0.15180 0.42630 0.22980 0.24200
H 	H 	0.17080 0.37830 0.21660 0.11700
H 	H 	0.18130 0.47840 0.29310 -0.05400
C 	C 	0.15220 0.45690 0.25180 -0.38900
H 	H 	0.13480 0.42610 0.21030 -0.06400
N 	N 	0.25930 0.30780 0.73830 -0.18500
N 	N 	0.23750 0.32940 0.71650 -0.20700
N 	N 	0.28640 0.32820 0.75030 -0.09600
N 	N 	0.25000 0.36380 0.71370 -0.13800
C 	C 	0.28020 0.36150 0.73480 0.06600
C 	C 	0.30380 0.39610 0.73950 0.11100
C 	C 	0.29750 0.42900 0.71580 -0.20100
C 	C 	0.32740 0.39780 0.76660 -0.27000
H 	H 	0.27870 0.42990 0.69810 0.07700
C 	C 	0.32090 0.45740 0.72170 0.17400
C 	C 	0.34820 0.42630 0.77020 0.24300
H 	H 	0.32920 0.37830 0.78340 0.11800
H 	H 	0.31870 0.47840 0.70690 -0.05500
C 	C 	0.34780 0.45690 0.74820 -0.38900
H 	H 	0.36520 0.42610 0.78970 -0.06400
N 	N 	0.75930 0.80780 0.23830 -0.18500
N 	N 	0.73750 0.82940 0.21650 -0.20700
N 	N 	0.78640 0.82820 0.25030 -0.09600
N 	N 	0.75000 0.86380 0.21370 -0.13800
C 	C 	0.78020 0.86150 0.23480 0.06800
C 	C 	0.80380 0.89610 0.23950 0.10400
C 	C 	0.79750 0.92900 0.21580 -0.19000
C 	C 	0.82740 0.89780 0.26660 -0.25500
H 	H 	0.77870 0.92990 0.19810 0.07500
C 	C 	0.82090 0.95740 0.22170 0.16000
C 	C 	0.84820 0.92630 0.27020 0.22400
H 	H 	0.82920 0.87830 0.28340 0.11300
H 	H 	0.81870 0.97840 0.20690 -0.04600
C 	C 	0.84780 0.95690 0.24820 -0.36400
H 	H 	0.86520 0.92610 0.28970 -0.05600
N 	N 	0.24070 0.69220 0.23830 -0.18500
N 	N 	0.26250 0.67060 0.21650 -0.20800
N 	N 	0.21360 0.67180 0.25030 -0.09600
N 	N 	0.25000 0.63620 0.21370 -0.13800
C 	C 	0.21980 0.63850 0.23480 0.06600
C 	C 	0.19620 0.60390 0.23950 0.11100
C 	C 	0.20250 0.57100 0.21580 -0.20100
C 	C 	0.17260 0.60220 0.26660 -0.27000
H 	H 	0.22130 0.57010 0.19810 0.07600
C 	C 	0.17910 0.54260 0.22170 0.17400
C 	C 	0.15180 0.57370 0.27020 0.24200
H 	H 	0.17080 0.62170 0.28340 0.11700
H 	H 	0.18130 0.52160 0.20690 -0.05500
C 	C 	0.15220 0.54310 0.24820 -0.38900
H 	H 	0.13480 0.57390 0.28970 -0.06400
N 	N 	0.74070 0.19220 0.73830 -0.18500
N 	N 	0.76250 0.17060 0.71650 -0.20700
N 	N 	0.71360 0.17180 0.75030 -0.09600
N 	N 	0.75000 0.13620 0.71370 -0.13800
C 	C 	0.71980 0.13850 0.73480 0.06700
C 	C 	0.69620 0.10390 0.73950 0.10600
C 	C 	0.70250 0.07100 0.71580 -0.19600
C 	C 	0.67260 0.10220 0.76660 -0.26100
H 	H 	0.72130 0.07010 0.69810 0.07400
C 	C 	0.67910 0.04260 0.72170 0.16500
C 	C 	0.65180 0.07370 0.77020 0.23100
H 	H 	0.67080 0.12170 0.78340 0.11500
H 	H 	0.68130 0.02160 0.70690 -0.05400
C 	C 	0.65220 0.04310 0.74820 -0.37600
H 	H 	0.63480 0.07390 0.78970 -0.06000
N 	N 	0.69220 0.23830 0.24070 -0.18500
N 	N 	0.67060 0.21650 0.26250 -0.20800
N 	N 	0.67180 0.25030 0.21360 -0.09600
N 	N 	0.63620 0.21370 0.25000 -0.13800
C 	C 	0.63850 0.23480 0.21980 0.06600
C 	C 	0.60390 0.23950 0.19620 0.11100
C 	C 	0.57100 0.21580 0.20250 -0.20100
C 	C 	0.60220 0.26660 0.17260 -0.27000
H 	H 	0.57010 0.19810 0.22130 0.07600
C 	C 	0.54260 0.22170 0.17910 0.17400
C 	C 	0.57370 0.27020 0.15180 0.24200
H 	H 	0.62170 0.28340 0.17080 0.11700
H 	H 	0.52160 0.20690 0.18130 -0.05500
C 	C 	0.54310 0.24820 0.15220 -0.38900
H 	H 	0.57390 0.28970 0.13480 -0.06400
N 	N 	0.19220 0.73830 0.74070 -0.18500
N 	N 	0.17060 0.71650 0.76250 -0.20700
N 	N 	0.17180 0.75030 0.71360 -0.09600
N 	N 	0.13620 0.71370 0.75000 -0.13800
C 	C 	0.13850 0.73480 0.71980 0.06700
C 	C 	0.10390 0.73950 0.69620 0.10600
C 	C 	0.07100 0.71580 0.70250 -0.19600
C 	C 	0.10220 0.76660 0.67260 -0.26100
H 	H 	0.07010 0.69810 0.72130 0.07400
C 	C 	0.04260 0.72170 0.67910 0.16500
C 	C 	0.07370 0.77020 0.65180 0.23100
H 	H 	0.12170 0.78340 0.67080 0.11500
H 	H 	0.02160 0.70690 0.68130 -0.05400
C 	C 	0.04310 0.74820 0.65220 -0.37600
H 	H 	0.07390 0.78970 0.63480 -0.06000
N 	N 	0.30780 0.73830 0.25930 -0.18500
N 	N 	0.32940 0.71650 0.23750 -0.20700
N 	N 	0.32820 0.75030 0.28640 -0.09600
N 	N 	0.36380 0.71370 0.25000 -0.13800
C 	C 	0.36150 0.73480 0.28020 0.06600
C 	C 	0.39610 0.73950 0.30380 0.11100
C 	C 	0.42900 0.71580 0.29750 -0.20100
C 	C 	0.39780 0.76660 0.32740 -0.27000
H 	H 	0.42990 0.69810 0.27870 0.07700
C 	C 	0.45740 0.72170 0.32090 0.17400
C 	C 	0.42630 0.77020 0.34820 0.24300
H 	H 	0.37830 0.78340 0.32920 0.11800
H 	H 	0.47840 0.70690 0.31870 -0.05500
C 	C 	0.45690 0.74820 0.34780 -0.38900
H 	H 	0.42610 0.78970 0.36520 -0.06400
N 	N 	0.80780 0.23830 0.75930 -0.18500
N 	N 	0.82940 0.21650 0.73750 -0.20700
N 	N 	0.82820 0.25030 0.78640 -0.09600
N 	N 	0.86380 0.21370 0.75000 -0.13800
C 	C 	0.86150 0.23480 0.78020 0.06800
C 	C 	0.89610 0.23950 0.80380 0.10400
C 	C 	0.92900 0.21580 0.79750 -0.19000
C 	C 	0.89780 0.26660 0.82740 -0.25500
H 	H 	0.92990 0.19810 0.77870 0.07500
C 	C 	0.95740 0.22170 0.82090 0.16000
C 	C 	0.92630 0.27020 0.84820 0.22400
H 	H 	0.87830 0.28340 0.82920 0.11300
H 	H 	0.97840 0.20690 0.81870 -0.04600
C 	C 	0.95690 0.24820 0.84780 -0.36400
H 	H 	0.92610 0.28970 0.86520 -0.05600
N 	N 	0.80780 0.76170 0.74070 -0.18500
N 	N 	0.82940 0.78350 0.76250 -0.20700
N 	N 	0.82820 0.74970 0.71360 -0.09600
N 	N 	0.86380 0.78630 0.75000 -0.13700
C 	C 	0.86150 0.76520 0.71980 0.06900
C 	C 	0.89610 0.76050 0.69620 0.10400
C 	C 	0.92900 0.78420 0.70250 -0.19100
C 	C 	0.89780 0.73340 0.67260 -0.25600
H 	H 	0.92990 0.80190 0.72130 0.07600
C 	C 	0.95740 0.77830 0.67910 0.16100
C 	C 	0.92630 0.72980 0.65180 0.22500
H 	H 	0.87830 0.71660 0.67080 0.11300
H 	H 	0.97840 0.79310 0.68130 -0.04500
C 	C 	0.95690 0.75180 0.65220 -0.36400
H 	H 	0.92610 0.71030 0.63480 -0.05700
N 	N 	0.30780 0.26170 0.24070 -0.18500
N 	N 	0.32940 0.28350 0.26250 -0.20700
N 	N 	0.32820 0.24970 0.21360 -0.09600
N 	N 	0.36380 0.28630 0.25000 -0.13800
C 	C 	0.36150 0.26520 0.21980 0.06600
C 	C 	0.39610 0.26050 0.19620 0.11100
C 	C 	0.42900 0.28420 0.20250 -0.20100
C 	C 	0.39780 0.23340 0.17260 -0.27000
H 	H 	0.42990 0.30190 0.22130 0.07700
C 	C 	0.45740 0.27830 0.17910 0.17400
C 	C 	0.42630 0.22980 0.15180 0.24200
H 	H 	0.37830 0.21660 0.17080 0.11700
H 	H 	0.47840 0.29310 0.18130 -0.05400
C 	C 	0.45690 0.25180 0.15220 -0.38900
H 	H 	0.42610 0.21030 0.13480 -0.06400
N 	N 	0.19220 0.26170 0.75930 -0.18500
N 	N 	0.17060 0.28350 0.73750 -0.20800
N 	N 	0.17180 0.24970 0.78640 -0.09600
N 	N 	0.13620 0.28630 0.75000 -0.13900
C 	C 	0.13850 0.26520 0.78020 0.06700
C 	C 	0.10390 0.26050 0.80380 0.10600
C 	C 	0.07100 0.28420 0.79750 -0.19600
C 	C 	0.10220 0.23340 0.82740 -0.26100
H 	H 	0.07010 0.30190 0.77870 0.07400
C 	C 	0.04260 0.27830 0.82090 0.16400
C 	C 	0.07370 0.22980 0.84820 0.23000
H 	H 	0.12170 0.21660 0.82920 0.11400
H 	H 	0.02160 0.29310 0.81870 -0.05400
C 	C 	0.04310 0.25180 0.84780 -0.37500
H 	H 	0.07390 0.21030 0.86520 -0.06000
N 	N 	0.69220 0.76170 0.25930 -0.18500
N 	N 	0.67060 0.78350 0.23750 -0.20700
N 	N 	0.67180 0.74970 0.28640 -0.09600
N 	N 	0.63620 0.78630 0.25000 -0.13800
C 	C 	0.63850 0.76520 0.28020 0.06600
C 	C 	0.60390 0.76050 0.30380 0.11200
C 	C 	0.57100 0.78420 0.29750 -0.20100
C 	C 	0.60220 0.73340 0.32740 -0.27000
H 	H 	0.57010 0.80190 0.27870 0.07700
C 	C 	0.54260 0.77830 0.32090 0.17400
C 	C 	0.57370 0.72980 0.34820 0.24300
H 	H 	0.62170 0.71660 0.32920 0.11800
H 	H 	0.52160 0.79310 0.31870 -0.05400
C 	C 	0.54310 0.75180 0.34780 -0.38900
H 	H 	0.57390 0.71030 0.36520 -0.06400
N 	N 	0.73830 0.25930 0.30780 -0.18500
N 	N 	0.71650 0.23750 0.32940 -0.20700
N 	N 	0.75030 0.28640 0.32820 -0.09600
N 	N 	0.71370 0.25000 0.36380 -0.13800
C 	C 	0.73480 0.28020 0.36150 0.06600
C 	C 	0.73950 0.30380 0.39610 0.11100
C 	C 	0.71580 0.29750 0.42900 -0.20100
C 	C 	0.76660 0.32740 0.39780 -0.27000
H 	H 	0.69810 0.27870 0.42990 0.07700
C 	C 	0.72170 0.32090 0.45740 0.17400
C 	C 	0.77020 0.34820 0.42630 0.24300
H 	H 	0.78340 0.32920 0.37830 0.11800
H 	H 	0.70690 0.31870 0.47840 -0.05500
C 	C 	0.74820 0.34780 0.45690 -0.38900
H 	H 	0.78970 0.36520 0.42610 -0.06400
N 	N 	0.23830 0.75930 0.80780 -0.18500
N 	N 	0.21650 0.73750 0.82940 -0.20700
N 	N 	0.25030 0.78640 0.82820 -0.09600
N 	N 	0.21370 0.75000 0.86380 -0.13800
C 	C 	0.23480 0.78020 0.86150 0.06800
C 	C 	0.23950 0.80380 0.89610 0.10400
C 	C 	0.21580 0.79750 0.92900 -0.19000
C 	C 	0.26660 0.82740 0.89780 -0.25500
H 	H 	0.19810 0.77870 0.92990 0.07500
C 	C 	0.22170 0.82090 0.95740 0.16000
C 	C 	0.27020 0.84820 0.92630 0.22400
H 	H 	0.28340 0.82920 0.87830 0.11300
H 	H 	0.20690 0.81870 0.97840 -0.04600
C 	C 	0.24820 0.84780 0.95690 -0.36400
H 	H 	0.28970 0.86520 0.92610 -0.05600
N 	N 	0.23830 0.24070 0.69220 -0.18500
N 	N 	0.21650 0.26250 0.67060 -0.20800
N 	N 	0.25030 0.21360 0.67180 -0.09600
N 	N 	0.21370 0.25000 0.63620 -0.13800
C 	C 	0.23480 0.21980 0.63850 0.06600
C 	C 	0.23950 0.19620 0.60390 0.11100
C 	C 	0.21580 0.20250 0.57100 -0.20100
C 	C 	0.26660 0.17260 0.60220 -0.27000
H 	H 	0.19810 0.22130 0.57010 0.07600
C 	C 	0.22170 0.17910 0.54260 0.17400
C 	C 	0.27020 0.15180 0.57370 0.24200
H 	H 	0.28340 0.17080 0.62170 0.11700
H 	H 	0.20690 0.18130 0.52160 -0.05500
C 	C 	0.24820 0.15220 0.54310 -0.38900
H 	H 	0.28970 0.13480 0.57390 -0.06400
N 	N 	0.73830 0.74070 0.19220 -0.18500
N 	N 	0.71650 0.76250 0.17060 -0.20700
N 	N 	0.75030 0.71360 0.17180 -0.09600
N 	N 	0.71370 0.75000 0.13620 -0.13800
C 	C 	0.73480 0.71980 0.13850 0.06700
C 	C 	0.73950 0.69620 0.10390 0.10600
C 	C 	0.71580 0.70250 0.07100 -0.19600
C 	C 	0.76660 0.67260 0.10220 -0.26100
H 	H 	0.69810 0.72130 0.07010 0.07400
C 	C 	0.72170 0.67910 0.04260 0.16500
C 	C 	0.77020 0.65180 0.07370 0.23100
H 	H 	0.78340 0.67080 0.12170 0.11500
H 	H 	0.70690 0.68130 0.02160 -0.05400
C 	C 	0.74820 0.65220 0.04310 -0.37600
H 	H 	0.78970 0.63480 0.07390 -0.06000
N 	N 	0.26170 0.75930 0.19220 -0.18500
N 	N 	0.28350 0.73750 0.17060 -0.20800
N 	N 	0.24970 0.78640 0.17180 -0.09600
N 	N 	0.28630 0.75000 0.13620 -0.13900
C 	C 	0.26520 0.78020 0.13850 0.06700
C 	C 	0.26050 0.80380 0.10390 0.10600
C 	C 	0.28420 0.79750 0.07100 -0.19600
C 	C 	0.23340 0.82740 0.10220 -0.26100
H 	H 	0.30190 0.77870 0.07010 0.07400
C 	C 	0.27830 0.82090 0.04260 0.16400
C 	C 	0.22980 0.84820 0.07370 0.23000
H 	H 	0.21660 0.82920 0.12170 0.11400
H 	H 	0.29310 0.81870 0.02160 -0.05400
C 	C 	0.25180 0.84780 0.04310 -0.37500
H 	H 	0.21030 0.86520 0.07390 -0.06000
N 	N 	0.76170 0.25930 0.69220 -0.18500
N 	N 	0.78350 0.23750 0.67060 -0.20700
N 	N 	0.74970 0.28640 0.67180 -0.09600
N 	N 	0.78630 0.25000 0.63620 -0.13800
C 	C 	0.76520 0.28020 0.63850 0.06600
C 	C 	0.76050 0.30380 0.60390 0.11200
C 	C 	0.78420 0.29750 0.57100 -0.20100
C 	C 	0.73340 0.32740 0.60220 -0.27000
H 	H 	0.80190 0.27870 0.57010 0.07700
C 	C 	0.77830 0.32090 0.54260 0.17400
C 	C 	0.72980 0.34820 0.57370 0.24300
H 	H 	0.71660 0.32920 0.62170 0.11800
H 	H 	0.79310 0.31870 0.52160 -0.05400
C 	C 	0.75180 0.34780 0.54310 -0.38900
H 	H 	0.71030 0.36520 0.57390 -0.06400
N 	N 	0.76170 0.74070 0.80780 -0.18500
N 	N 	0.78350 0.76250 0.82940 -0.20700
N 	N 	0.74970 0.71360 0.82820 -0.09600
N 	N 	0.78630 0.75000 0.86380 -0.13700
C 	C 	0.76520 0.71980 0.86150 0.06900
C 	C 	0.76050 0.69620 0.89610 0.10400
C 	C 	0.78420 0.70250 0.92900 -0.19100
C 	C 	0.73340 0.67260 0.89780 -0.25600
H 	H 	0.80190 0.72130 0.92990 0.07600
C 	C 	0.77830 0.67910 0.95740 0.16100
C 	C 	0.72980 0.65180 0.92630 0.22500
H 	H 	0.71660 0.67080 0.87830 0.11300
H 	H 	0.79310 0.68130 0.97840 -0.04500
C 	C 	0.75180 0.65220 0.95690 -0.36400
H 	H 	0.71030 0.63480 0.92610 -0.05700
N 	N 	0.26170 0.24070 0.30780 -0.18500
N 	N 	0.28350 0.26250 0.32940 -0.20700
N 	N 	0.24970 0.21360 0.32820 -0.09600
N 	N 	0.28630 0.25000 0.36380 -0.13800
C 	C 	0.26520 0.21980 0.36150 0.06600
C 	C 	0.26050 0.19620 0.39610 0.11100
C 	C 	0.28420 0.20250 0.42900 -0.20100
C 	C 	0.23340 0.17260 0.39780 -0.27000
H 	H 	0.30190 0.22130 0.42990 0.07700
C 	C 	0.27830 0.17910 0.45740 0.17400
C 	C 	0.22980 0.15180 0.42630 0.24200
H 	H 	0.21660 0.17080 0.37830 0.11700
H 	H 	0.29310 0.18130 0.47840 -0.05400
C 	C 	0.25180 0.15220 0.45690 -0.38900
H 	H 	0.21030 0.13480 0.42610 -0.06400
Mn	Mn	0.50000 0.50000 0.50000 1.24100
Mn	Mn	-0.00000 0.00000 -0.00000 1.22900
Mn	Mn	0.00000 0.50000 -0.00000 1.23300
Mn	Mn	0.50000 0.00000 0.50000 1.23700
Mn	Mn	0.50000 0.00000 -0.00000 1.23300
Mn	Mn	0.00000 0.50000 0.50000 1.23700
Mn	Mn	0.00000 0.00000 0.50000 1.23300
Mn	Mn	0.50000 0.50000 -0.00000 1.23700
Mn	Mn	0.25000 0.75000 0.75000 1.24100
Mn	Mn	0.25000 0.25000 0.25000 1.24100
Mn	Mn	0.75000 0.75000 0.75000 1.24100
Mn	Mn	0.75000 0.75000 0.25000 1.24100
Mn	Mn	0.75000 0.25000 0.75000 1.24100
Mn	Mn	0.75000 0.25000 0.25000 1.24100
Mn	Mn	0.25000 0.25000 0.75000 1.24100
Mn	Mn	0.25000 0.75000 0.25000 1.24100
Mn	Mn	0.56378 0.56378 0.56378 1.14000
Mn	Mn	0.06378 0.06378 0.06378 1.13700
Mn	Mn	0.93622 0.43622 0.06378 1.14000
Mn	Mn	0.43622 0.93622 0.56378 1.14100
Mn	Mn	0.43622 0.06378 0.93622 1.14000
Mn	Mn	0.93622 0.56378 0.43622 1.14100
Mn	Mn	0.06378 0.93622 0.43622 1.14000
Mn	Mn	0.56378 0.43622 0.93622 1.14100
Mn	Mn	0.31378 0.81378 0.68622 1.14000
Mn	Mn	0.81378 0.31378 0.18622 1.14000
Mn	Mn	0.18622 0.18622 0.18622 1.13900
Mn	Mn	0.68622 0.68622 0.68622 1.14000
Mn	Mn	0.81378 0.68622 0.31378 1.14000
Mn	Mn	0.31378 0.18622 0.81378 1.14000
Mn	Mn	0.68622 0.31378 0.81378 1.14000
Mn	Mn	0.18622 0.81378 0.31378 1.14000
Mn	Mn	0.43622 0.43622 0.43622 1.14000
Mn	Mn	0.93622 0.93622 0.93622 1.14400
Mn	Mn	0.06378 0.56378 0.93622 1.14000
Mn	Mn	0.56378 0.06378 0.43622 1.13900
Mn	Mn	0.56378 0.93622 0.06378 1.14000
Mn	Mn	0.06378 0.43622 0.56378 1.13900
Mn	Mn	0.93622 0.06378 0.56378 1.14000
Mn	Mn	0.43622 0.56378 0.06378 1.13900
Mn	Mn	0.68622 0.18622 0.31378 1.13900
Mn	Mn	0.18622 0.68622 0.81378 1.14000
Mn	Mn	0.81378 0.81378 0.81378 1.14100
Mn	Mn	0.31378 0.31378 0.31378 1.14000
Mn	Mn	0.18622 0.31378 0.68622 1.13900
Mn	Mn	0.68622 0.81378 0.18622 1.14000
Mn	Mn	0.31378 0.68622 0.18622 1.13900
Mn	Mn	0.81378 0.18622 0.68622 1.14000
Si	Si	0.75000 0.37500 0.50000 0.92200
Si	Si	0.75000 0.62500 -0.00000 0.87800
Si	Si	0.25000 0.87500 -0.00000 0.87700
Si	Si	0.25000 0.12500 0.50000 0.92100
Si	Si	0.50000 0.75000 0.37500 0.92200
Si	Si	0.00000 0.75000 0.62500 0.87800
Si	Si	0.00000 0.25000 0.87500 0.87700
Si	Si	0.50000 0.25000 0.12500 0.92100
Si	Si	0.37500 0.50000 0.75000 0.92200
Si	Si	0.62500 0.00000 0.75000 0.87800
Si	Si	0.87500 0.00000 0.25000 0.87700
Si	Si	0.12500 0.50000 0.25000 0.92100
Si	Si	0.12500 0.00000 0.75000 0.87700
Si	Si	0.37500 0.00000 0.25000 0.87700
Si	Si	0.62500 0.50000 0.25000 0.92200
Si	Si	0.87500 0.50000 0.75000 0.92200
Si	Si	0.50000 0.75000 0.87500 0.92200
Si	Si	0.50000 0.25000 0.62500 0.92200
Si	Si	0.00000 0.25000 0.37500 0.87700
Si	Si	0.00000 0.75000 0.12500 0.87700
Si	Si	0.25000 0.62500 0.50000 0.92200
Si	Si	0.75000 0.87500 0.50000 0.92200
Si	Si	0.75000 0.12500 -0.00000 0.87700
Si	Si	0.25000 0.37500 -0.00000 0.87700
