data_crystal

_cell_length_a 32.02080
_cell_length_b 32.02080
_cell_length_c 32.02080
_cell_angle_alpha 109.47100
_cell_angle_beta  109.47100
_cell_angle_gamma 109.47100

_symmetry_space_group_name_	'P 1'
_symmetry_space_group_name_H-M	'P 1'

loop_
_symmetry_equiv_pos_as_xyz
  x,y,z

loop_
_atom_site_label
_atom_site_type_symbol
_atom_site_fract_x
_atom_site_fract_y
_atom_site_fract_z
_atom_site_charge
Cd	Cd	-0.00000 0.50000 0.37166 1.10500
Cd	Cd	-0.00000 0.50000 0.87166 1.10100
Cd	Cd	0.50000 0.87166 0.50000 1.11900
Cd	Cd	0.50000 0.00000 -0.00000 1.14900
Cd	Cd	0.37166 0.37166 0.87166 1.11700
Cd	Cd	0.50000 0.12834 0.50000 1.11400
Cd	Cd	-0.00000 0.00000 0.50000 1.14800
Cd	Cd	0.00000 0.50000 0.62834 1.09900
Cd	Cd	0.50000 0.50000 0.50000 1.17800
Cd	Cd	0.62834 0.62834 0.12834 1.11600
Cd	Cd	0.87166 0.87166 0.37166 1.12100
Cd	Cd	0.37166 0.00000 -0.00000 1.08700
Cd	Cd	0.12834 0.12834 0.62834 1.11100
Cd	Cd	0.50000 0.50000 -0.00000 1.16200
Cd	Cd	0.12834 0.00000 -0.00000 1.08500
Cd	Cd	0.50000 0.00000 0.50000 1.16100
Cd	Cd	0.62834 0.00000 -0.00000 1.08900
Cd	Cd	-0.00000 0.50000 -0.00000 1.14800
Cd	Cd	-0.00000 0.50000 0.50000 1.16100
Cd	Cd	0.87166 0.00000 -0.00000 1.09100
Cd	Cd	0.50000 0.37166 0.50000 1.11400
Cd	Cd	0.00000 0.50000 0.12834 1.10200
Cd	Cd	-0.00000 0.00000 -0.00000 1.13400
Cd	Cd	0.50000 0.62834 0.50000 1.11600
Si	Si	0.25000 0.37500 0.12500 0.87400
Si	Si	0.62500 0.37500 0.25000 0.85400
Si	Si	0.87500 0.12500 0.75000 0.85900
Si	Si	0.12500 0.87500 0.25000 0.85300
Si	Si	0.37500 0.62500 0.75000 0.85900
Si	Si	0.62500 0.25000 0.87500 0.83400
Si	Si	0.75000 0.62500 0.87500 0.84000
Si	Si	0.75000 0.12500 0.37500 0.88000
Si	Si	0.87500 0.75000 0.62500 0.83900
Si	Si	0.37500 0.75000 0.12500 0.87900
Si	Si	0.12500 0.25000 0.37500 0.87500
Si	Si	0.25000 0.87500 0.62500 0.83300
H 	H 	0.95630 0.66510 0.55320 0.09600
H 	H 	0.40310 0.44680 0.11190 0.10700
H 	H 	0.20870 0.61600 0.97810 0.15100
H 	H 	0.52190 0.73060 0.13790 0.07400
H 	H 	0.79120 0.45630 0.40310 0.08900
H 	H 	0.64120 0.56920 0.84600 -0.02100
H 	H 	0.88810 0.83490 0.79120 0.07400
H 	H 	0.12050 0.79480 0.27390 -0.04500
H 	H 	0.33490 0.94680 0.54370 0.09300
H 	H 	0.13790 0.90730 0.11600 0.06900
H 	H 	0.84660 0.72610 0.52090 -0.04200
H 	H 	0.15400 0.22320 0.29520 -0.05600
H 	H 	0.20870 0.59270 0.73060 0.07200
H 	H 	0.09690 0.88810 0.55320 0.06000
H 	H 	0.38810 0.79120 0.83490 0.09300
H 	H 	0.93080 0.85880 0.65400 -0.02900
H 	H 	0.02190 0.13790 0.73060 -0.01500
H 	H 	0.34660 0.82570 0.12050 -0.04700
H 	H 	0.66510 0.61190 0.70880 0.08900
H 	H 	0.76940 0.79130 0.90730 0.08000
H 	H 	0.22610 0.34660 0.02090 -0.08700
H 	H 	0.15400 0.93080 0.35880 -0.05000
H 	H 	0.56920 0.34600 0.14120 -0.04200
H 	H 	0.15340 0.87950 0.17430 -0.04500
H 	H 	0.38400 0.86210 0.59270 0.07400
H 	H 	0.20480 0.35880 0.42800 -0.04000
H 	H 	0.22320 0.79520 0.65400 -0.03500
H 	H 	0.92800 0.72320 0.56920 -0.03200
H 	H 	0.44680 0.61190 0.90310 0.09700
H 	H 	0.52090 0.22610 0.84660 -0.04500
H 	H 	0.70880 0.59690 0.54370 0.08800
H 	H 	0.29480 0.62050 0.77390 -0.04200
H 	H 	0.56920 0.22320 0.92800 -0.03300
H 	H 	0.14120 0.29520 0.07200 -0.04600
H 	H 	0.17430 0.79480 0.52090 -0.04400
H 	H 	0.27680 0.93080 0.57200 -0.03300
H 	H 	0.70870 0.73060 0.59270 0.07400
H 	H 	0.42800 0.85880 0.20480 -0.03600
H 	H 	0.93080 0.07200 0.77680 -0.03800
H 	H 	0.26940 0.90730 0.79130 0.07600
H 	H 	0.90730 0.29130 0.76940 0.07800
H 	H 	0.20520 0.22610 0.37950 -0.05000
H 	H 	0.20520 0.97910 0.32570 -0.00400
H 	H 	0.11190 0.94680 0.40310 0.11300
H 	H 	0.04370 0.70880 0.09690 0.07300
H 	H 	0.35880 0.43080 0.15400 -0.05500
H 	H 	0.07200 0.27680 0.43080 -0.04400
H 	H 	0.63790 0.52190 0.23060 0.07200
H 	H 	0.84600 0.06920 0.64120 -0.02500
H 	H 	0.47810 0.26940 0.86210 0.07100
H 	H 	0.77390 0.12050 0.29480 -0.04500
H 	H 	0.23060 0.20870 0.09270 0.06500
H 	H 	0.55320 0.16510 0.95630 0.09200
H 	H 	0.57200 0.43080 0.27680 -0.03800
H 	H 	0.17430 0.37950 0.15340 -0.04800
H 	H 	0.36210 0.47810 0.76940 0.07200
H 	H 	0.40310 0.95630 0.79120 0.09600
H 	H 	0.09270 0.38400 0.36210 0.06900
H 	H 	0.61600 0.13790 0.40730 0.07000
H 	H 	0.13790 0.23060 0.52190 0.06900
H 	H 	0.70520 0.32570 0.97910 -0.00400
H 	H 	0.12050 0.32570 0.34660 -0.04800
H 	H 	0.66510 0.05320 0.45630 0.08300
H 	H 	0.61190 0.40310 0.94680 0.09400
H 	H 	0.62050 0.27390 0.79480 -0.04200
H 	H 	0.04370 0.33490 0.44680 0.08100
H 	H 	0.70870 0.97810 0.61600 0.15800
H 	H 	0.36210 0.88400 0.09270 0.07500
H 	H 	0.02090 0.84660 0.22610 -0.08400
H 	H 	0.44680 0.83490 0.04370 0.08600
H 	H 	0.29120 0.40310 0.45630 0.08900
H 	H 	0.32570 0.84660 0.62050 -0.04200
H 	H 	0.02190 0.88400 0.79130 -0.00500
H 	H 	0.84660 0.12050 0.82570 -0.04400
H 	H 	0.16510 0.70880 0.61190 0.08400
H 	H 	0.52190 0.79130 0.88400 0.08200
H 	H 	0.35880 0.92800 0.70480 -0.03200
H 	H 	0.23060 0.02190 0.63790 -0.01700
H 	H 	0.65400 0.29520 0.22320 -0.03800
H 	H 	0.87950 0.20520 0.72610 -0.04400
H 	H 	0.34600 0.70480 0.77680 -0.03800
H 	H 	0.85880 0.70480 0.92800 -0.02900
H 	H 	0.40730 0.76940 0.29130 0.07400
H 	H 	0.88810 0.05320 0.59690 0.06300
H 	H 	0.85880 0.15400 0.43080 -0.05200
H 	H 	0.27390 0.97910 0.65340 -0.00300
H 	H 	0.29130 0.02190 0.38400 -0.01800
H 	H 	0.29480 0.67430 0.02090 -0.08400
H 	H 	0.65400 0.35880 0.93080 -0.03200
H 	H 	0.95630 0.29120 0.90310 0.10500
H 	H 	0.59690 0.04370 0.20880 0.08000
H 	H 	0.34600 0.64120 0.06920 -0.04300
H 	H 	0.90730 0.61600 0.63790 0.07600
H 	H 	0.55320 0.38810 0.09690 0.07900
H 	H 	0.61600 0.47810 0.70870 0.07100
H 	H 	0.47810 0.20870 0.11600 0.06300
H 	H 	0.43080 0.77680 0.07200 -0.04300
H 	H 	0.67430 0.52090 0.79480 -0.04300
H 	H 	0.82570 0.62050 0.84660 -0.04100
H 	H 	0.29120 0.88810 0.33490 0.06800
H 	H 	0.52090 0.29480 0.17430 -0.04700
H 	H 	0.27680 0.34600 0.20480 -0.04100
H 	H 	0.07200 0.79520 0.14120 -0.04400
H 	H 	0.57200 0.14120 0.79520 -0.03900
H 	H 	0.45630 0.55320 0.66510 0.08900
H 	H 	0.70880 0.11190 0.66510 0.10800
H 	H 	0.09690 0.20880 0.04370 0.07200
H 	H 	0.05320 0.95630 0.16510 0.08800
H 	H 	0.54370 0.44680 0.33490 0.08800
H 	H 	0.79480 0.02090 0.67430 -0.08300
H 	H 	0.65340 0.17430 0.87950 -0.04200
H 	H 	0.88400 0.59270 0.86210 0.08000
H 	H 	0.06920 0.92800 0.22320 -0.03700
H 	H 	0.37950 0.72610 0.20520 -0.04700
H 	H 	0.15340 0.27390 0.47910 -0.04700
H 	H 	0.09270 0.70870 0.23060 0.06700
H 	H 	0.64120 0.07200 0.29520 -0.04400
H 	H 	0.87950 0.67430 0.65340 -0.04100
H 	H 	0.79120 0.33490 0.88810 0.07000
H 	H 	0.59270 0.36210 0.38400 0.07100
H 	H 	0.77680 0.20480 0.34600 -0.04000
H 	H 	0.77390 0.65340 0.97910 -0.00200
H 	H 	0.83490 0.29120 0.38810 0.09300
H 	H 	0.84600 0.77680 0.70480 -0.02000
H 	H 	0.27390 0.29480 0.12050 -0.04800
H 	H 	0.72610 0.02090 0.34660 -0.08600
H 	H 	0.45630 0.90310 0.29120 0.09800
H 	H 	0.38810 0.59690 0.05320 0.08300
H 	H 	0.72610 0.70520 0.87950 -0.04100
H 	H 	0.47910 0.77390 0.15340 -0.04400
H 	H 	0.73060 0.63790 0.02190 -0.00800
H 	H 	0.29520 0.72320 0.15400 -0.05400
H 	H 	0.79130 0.40730 0.26940 0.07300
H 	H 	0.72320 0.65400 0.79520 -0.03500
H 	H 	0.20880 0.66510 0.11190 0.10600
H 	H 	0.79130 0.38400 0.02190 -0.00900
H 	H 	0.54370 0.09690 0.70880 0.07900
H 	H 	0.77680 0.57200 0.93080 -0.03300
H 	H 	0.47910 0.70520 0.82570 -0.04200
H 	H 	0.38400 0.52190 0.29130 0.07300
H 	H 	0.79480 0.77390 0.62050 -0.03900
H 	H 	0.61190 0.20880 0.16510 0.08400
H 	H 	0.29130 0.26940 0.40730 0.07000
H 	H 	0.83490 0.54370 0.94680 0.09700
H 	H 	0.90310 0.79120 0.95630 0.10500
H 	H 	0.16510 0.45630 0.05320 0.08000
H 	H 	0.62050 0.34660 0.32570 -0.04500
H 	H 	0.82570 0.20520 0.47910 -0.04500
H 	H 	0.86210 0.76940 0.47810 0.07500
H 	H 	0.14120 0.84600 0.56920 -0.02300
H 	H 	0.97810 0.11600 0.20870 0.15300
H 	H 	0.40730 0.63790 0.61600 0.07300
H 	H 	0.43080 0.65400 0.85880 -0.03400
H 	H 	0.22320 0.42800 0.06920 -0.04300
H 	H 	0.90310 0.11190 0.44680 0.11700
H 	H 	0.70480 0.27680 0.84600 -0.02100
H 	H 	0.42800 0.56920 0.72320 -0.03700
H 	H 	0.32570 0.47910 0.20520 -0.04600
H 	H 	0.65340 0.47910 0.27390 -0.04300
H 	H 	0.79520 0.64120 0.57200 -0.03600
H 	H 	0.20880 0.54370 0.59690 0.08700
H 	H 	0.70520 0.37950 0.22610 -0.04700
H 	H 	0.79520 0.15400 0.72320 -0.05300
H 	H 	0.29520 0.57200 0.64120 -0.03800
H 	H 	0.11190 0.16510 0.20880 0.10300
H 	H 	0.20480 0.84600 0.27680 -0.02100
H 	H 	0.06920 0.14120 0.34600 -0.04700
H 	H 	0.59690 0.55320 0.88810 0.06900
H 	H 	0.94680 0.90310 0.61190 0.10300
H 	H 	0.11600 0.40730 0.13790 0.06500
H 	H 	0.26940 0.36210 0.97810 0.15400
H 	H 	0.72320 0.06920 0.42800 -0.04300
H 	H 	0.97910 0.82570 0.70520 -0.00300
H 	H 	0.11600 0.70870 0.47810 0.06600
H 	H 	0.34660 0.52090 0.72610 -0.04600
H 	H 	0.86210 0.09270 0.88400 0.07800
H 	H 	0.37950 0.65340 0.67430 -0.04400
H 	H 	0.97910 0.15340 0.77390 -0.00300
H 	H 	0.97810 0.86210 0.26940 0.15600
H 	H 	0.67430 0.15340 0.37950 -0.04700
H 	H 	0.88400 0.29130 0.52190 0.08000
H 	H 	0.76940 0.97810 0.36210 0.16100
H 	H 	0.59270 0.23060 0.70870 0.07000
H 	H 	0.05320 0.09690 0.38810 0.07400
H 	H 	0.73060 0.09270 0.20870 0.07000
H 	H 	0.22610 0.87950 0.70520 -0.04400
H 	H 	0.70480 0.42800 0.35880 -0.03800
H 	H 	0.02090 0.17430 0.29480 -0.08700
H 	H 	0.33490 0.38810 0.29120 0.08800
H 	H 	0.92800 0.20480 0.85880 -0.03100
H 	H 	0.63790 0.11600 0.90730 0.07100
H 	H 	0.94680 0.04370 0.83490 0.09100
C 	C 	0.09298 0.92605 0.36691 -0.24200
C 	C 	0.03974 0.86716 0.26234 0.23900
C 	C 	0.77766 0.65961 0.57627 0.15000
C 	C 	0.67258 0.13284 0.39518 0.15800
C 	C 	0.63309 0.05914 0.22607 -0.18900
C 	C 	0.56433 0.40559 0.36470 0.07800
C 	C 	0.67258 0.53974 0.77740 0.14900
C 	C 	0.08334 0.92373 0.20139 0.15200
C 	C 	0.13530 0.69963 0.54089 0.07200
C 	C 	0.40038 0.61293 0.70501 -0.34300
C 	C 	0.59862 0.08519 0.45371 0.06900
C 	C 	0.48585 0.77382 0.86193 -0.18400
C 	C 	0.45911 0.65874 0.09441 0.07800
C 	C 	0.01343 0.09862 0.14491 -0.00200
C 	C 	0.38707 0.59208 0.78745 -0.34300
C 	C 	0.30037 0.34126 0.43567 0.08100
C 	C 	0.27766 0.70139 0.11805 0.20300
C 	C 	0.33307 0.92605 0.55914 -0.18000
C 	C 	0.63530 0.09441 0.43567 0.07800
C 	C 	0.98585 0.12392 0.71203 -0.02800
C 	C 	0.92373 0.70139 0.58334 0.15400
C 	C 	0.22618 0.58811 0.71203 -0.18300
C 	C 	0.88707 0.78745 0.59208 -0.33500
C 	C 	0.42373 0.84039 0.22234 0.16300
C 	C 	0.86470 0.56433 0.90559 0.08600
C 	C 	0.39518 0.76234 0.22260 0.16200
C 	C 	0.27382 0.28797 0.41189 -0.18800
C 	C 	0.90792 0.79499 0.69537 -0.29200
C 	C 	0.07395 0.13309 0.40702 -0.18900
C 	C 	0.16693 0.72607 0.59298 -0.18100
C 	C 	0.90038 0.70501 0.61293 -0.33400
C 	C 	0.91481 0.86852 0.51343 0.07900
C 	C 	0.35509 0.98657 0.40138 0.14400
C 	C 	0.12392 0.91189 0.13807 -0.18400
C 	C 	0.27740 0.67258 0.03974 0.24000
C 	C 	0.08811 0.36193 0.37608 -0.18800
C 	C 	0.51415 0.22618 0.13807 -0.18400
C 	C 	0.89518 0.67258 0.63284 0.15300
C 	C 	0.77393 0.44086 0.36691 -0.18500
C 	C 	0.13148 0.98657 0.58519 0.14100
C 	C 	0.05914 0.33307 0.42605 -0.18900
C 	C 	0.04629 0.40138 0.41481 0.06800
C 	C 	0.16693 0.44086 0.07395 -0.18900
C 	C 	0.37608 0.86193 0.08811 -0.18800
C 	C 	0.40702 0.63309 0.07395 -0.18900
C 	C 	0.61293 0.20501 0.90038 -0.33300
C 	C 	0.08519 0.13148 0.48657 0.06700
C 	C 	0.40138 0.91481 0.54629 0.07700
C 	C 	0.04089 0.90559 0.34126 0.15600
C 	C 	0.63148 0.04629 0.14491 0.06700
C 	C 	0.32742 0.46026 0.22260 0.15900
C 	C 	0.15961 0.27766 0.07627 0.15100
C 	C 	0.86691 0.09298 0.42605 -0.25000
C 	C 	0.72618 0.01415 0.63807 -0.33600
C 	C 	0.62392 0.48585 0.21203 -0.18200
C 	C 	0.15874 0.95911 0.59441 -0.00400
C 	C 	0.36716 0.82742 0.10482 0.16000
C 	C 	0.80037 0.43567 0.34126 0.08100
C 	C 	0.90702 0.83307 0.77393 -0.12300
C 	C 	0.22607 0.66693 0.09298 -0.24500
C 	C 	0.40038 0.78745 0.19537 -0.35000
C 	C 	0.27393 0.90702 0.33307 -0.12200
C 	C 	0.64491 0.01343 0.59862 0.00500
C 	C 	0.14491 0.54629 0.63148 0.07100
C 	C 	0.70139 0.08334 0.42373 0.15700
C 	C 	0.13530 0.43567 0.09441 0.07300
C 	C 	0.29499 0.88707 0.59962 -0.33300
C 	C 	0.59208 0.28745 0.88707 -0.33400
C 	C 	0.72607 0.63309 0.55914 -0.18100
C 	C 	0.35509 0.36852 0.45371 0.07100
C 	C 	0.44086 0.57395 0.66693 -0.18500
C 	C 	0.13309 0.22607 0.05914 -0.18800
C 	C 	0.84126 0.04089 0.40559 0.16200
C 	C 	0.01343 0.91481 0.36852 0.01000
C 	C 	0.08519 0.95371 0.09862 0.07100
C 	C 	0.72234 0.42373 0.34039 0.15500
C 	C 	0.65874 0.06433 0.19963 0.07500
C 	C 	0.59208 0.30463 0.20501 -0.34100
C 	C 	0.91189 0.63807 0.62392 -0.18000
C 	C 	0.20501 0.80463 0.59208 -0.33400
C 	C 	0.69537 0.29499 0.90792 -0.29100
C 	C 	0.59441 0.45911 0.15874 0.07500
C 	C 	0.27740 0.60482 0.73766 0.15300
C 	C 	0.09862 0.64491 0.51343 0.07000
C 	C 	0.66693 0.59298 0.72607 -0.18100
C 	C 	0.11293 0.90038 0.20501 -0.34100
C 	C 	0.71255 0.61293 0.90792 -0.29200
C 	C 	0.58334 0.20139 0.92373 0.15000
C 	C 	0.08811 0.72618 0.21203 -0.18200
C 	C 	0.72607 0.09298 0.66693 -0.24500
C 	C 	0.58519 0.48657 0.13148 0.07100
C 	C 	0.13309 0.90702 0.57395 -0.12000
C 	C 	0.70501 0.11293 0.40038 -0.35100
C 	C 	0.26234 0.36716 0.03974 0.24200
C 	C 	0.59962 0.38707 0.29499 -0.34200
C 	C 	0.51343 0.36852 0.91481 0.07700
C 	C 	0.09441 0.93567 0.13530 0.07700
C 	C 	0.63530 0.54089 0.69963 0.07700
C 	C 	0.27393 0.36691 0.44086 -0.18900
C 	C 	0.73766 0.10482 0.27740 0.15600
C 	C 	0.51343 0.14491 0.09862 0.06700
C 	C 	0.13148 0.14491 0.04629 0.06400
C 	C 	0.11805 0.91666 0.34039 0.20200
C 	C 	0.26234 0.89518 0.72260 0.15300
C 	C 	0.86716 0.10482 0.82742 0.15700
C 	C 	0.09298 0.16693 0.22607 -0.24900
C 	C 	0.41666 0.79861 0.07627 0.15900
C 	C 	0.17258 0.77740 0.53974 0.14500
C 	C 	0.41666 0.61805 0.84039 0.15800
C 	C 	0.87608 0.78797 0.51415 -0.18100
C 	C 	0.13807 0.72618 0.51415 -0.18000
C 	C 	0.41189 0.62392 0.63807 -0.18300
C 	C 	0.15961 0.88195 0.58334 0.09800
C 	C 	0.27766 0.57627 0.65961 0.15400
C 	C 	0.32742 0.86716 0.60482 0.15100
C 	C 	0.46026 0.72260 0.82742 0.15900
C 	C 	0.15874 0.19963 0.06433 0.07000
C 	C 	0.22260 0.96026 0.32742 0.06400
C 	C 	0.57395 0.40702 0.13309 -0.18400
C 	C 	0.29861 0.91666 0.57627 0.15100
C 	C 	0.01415 0.87608 0.28797 -0.33100
C 	C 	0.54629 0.41481 0.40138 0.07300
C 	C 	0.63309 0.57395 0.90702 -0.12300
C 	C 	0.40792 0.71255 0.11293 -0.35000
C 	C 	0.77382 0.41189 0.28797 -0.18500
C 	C 	0.42605 0.59298 0.86691 -0.18600
C 	C 	0.79861 0.57627 0.91666 0.15600
C 	C 	0.34126 0.40559 0.04089 0.15500
C 	C 	0.43567 0.59441 0.63530 0.08000
C 	C 	0.77393 0.33307 0.90702 -0.12300
C 	C 	0.58811 0.21203 0.72618 -0.17900
C 	C 	0.63148 0.58519 0.98657 0.14100
C 	C 	0.22234 0.34039 0.42373 0.15800
C 	C 	0.07627 0.77766 0.15961 0.14700
C 	C 	0.98585 0.86193 0.77382 -0.03000
C 	C 	0.63807 0.51415 0.72618 -0.18000
C 	C 	0.11805 0.20139 0.27766 0.20300
C 	C 	0.28745 0.38707 0.09208 -0.39300
C 	C 	0.95911 0.09441 0.65874 -0.00200
C 	C 	0.76234 0.72260 0.89518 0.15600
C 	C 	0.58334 0.38195 0.15961 0.15000
C 	C 	0.57395 0.16693 0.94086 -0.18100
C 	C 	0.22234 0.88195 0.29861 0.10400
C 	C 	0.59298 0.22607 0.16693 -0.18400
C 	C 	0.82742 0.60482 0.86716 0.15500
C 	C 	0.85509 0.40138 0.98657 0.14300
C 	C 	0.94086 0.27393 0.86691 -0.18500
C 	C 	0.88195 0.79861 0.72234 0.10800
C 	C 	0.78797 0.01415 0.37608 -0.34200
C 	C 	0.43567 0.84126 0.30037 0.08600
C 	C 	0.01415 0.13807 0.22618 -0.34100
C 	C 	0.63284 0.46026 0.23766 0.15200
C 	C 	0.38195 0.65961 0.08334 0.15700
C 	C 	0.65961 0.07627 0.27766 0.15500
C 	C 	0.93567 0.30037 0.84126 0.08900
C 	C 	0.17258 0.39518 0.13284 0.15400
C 	C 	0.13284 0.89518 0.17258 0.15200
C 	C 	0.45371 0.86852 0.35509 0.07500
C 	C 	0.27382 0.98585 0.36193 -0.02400
C 	C 	0.79861 0.22234 0.38195 0.16200
C 	C 	0.40702 0.77393 0.83307 -0.18600
C 	C 	0.87608 0.08811 0.86193 -0.18400
C 	C 	0.90138 0.54629 0.91481 0.08000
C 	C 	0.71203 0.08811 0.22618 -0.18700
C 	C 	0.30037 0.95911 0.36470 -0.00100
C 	C 	0.58519 0.09862 0.95371 0.07500
C 	C 	0.77740 0.03974 0.67258 0.24100
C 	C 	0.19963 0.63530 0.04089 0.15200
C 	C 	0.28797 0.91189 0.77382 -0.18100
C 	C 	0.51415 0.28797 0.87608 -0.18000
C 	C 	0.41481 0.51343 0.86852 0.07500
C 	C 	0.65961 0.58334 0.88195 0.10500
C 	C 	0.95371 0.59862 0.58519 0.07800
C 	C 	0.80037 0.36470 0.95911 0.00500
C 	C 	0.03974 0.17258 0.27740 0.24200
C 	C 	0.94086 0.66693 0.57395 -0.18100
C 	C 	0.08334 0.15961 0.38195 0.15300
C 	C 	0.13284 0.23766 0.46026 0.15500
C 	C 	0.19537 0.90792 0.29499 -0.29400
C 	C 	0.84039 0.72234 0.92373 0.15800
C 	C 	0.91666 0.84039 0.61805 0.15600
C 	C 	0.53974 0.26234 0.86716 0.15100
C 	C 	0.21203 0.98585 0.62392 -0.02400
C 	C 	0.20139 0.77766 0.61805 0.14600
C 	C 	0.72260 0.32742 0.96026 0.06600
C 	C 	0.78745 0.09208 0.38707 -0.39500
C 	C 	0.40559 0.54089 0.84126 0.08300
C 	C 	0.09962 0.29499 0.38707 -0.35000
C 	C 	0.60482 0.36716 0.32742 0.15300
C 	C 	0.36470 0.90559 0.56433 0.08100
C 	C 	0.38195 0.72234 0.79861 0.15900
C 	C 	0.90559 0.06433 0.86470 0.08400
C 	C 	0.21203 0.22618 0.08811 -0.18600
C 	C 	0.77740 0.73766 0.60482 0.14900
C 	C 	0.62392 0.13807 0.91189 -0.18000
C 	C 	0.48657 0.63148 0.08519 0.07000
C 	C 	0.57627 0.15961 0.77766 0.14600
C 	C 	0.34126 0.93567 0.80037 0.08400
C 	C 	0.41189 0.78797 0.27382 -0.18800
C 	C 	0.61805 0.27766 0.20139 0.15000
C 	C 	0.46026 0.73766 0.13284 0.15800
C 	C 	0.36716 0.53974 0.76234 0.15600
C 	C 	0.56433 0.15874 0.69963 0.07200
C 	C 	0.85509 0.45371 0.36852 0.07500
C 	C 	0.06433 0.36470 0.40559 0.07600
C 	C 	0.91481 0.04629 0.90138 0.07600
C 	C 	0.12392 0.21203 0.48585 -0.18700
C 	C 	0.77766 0.11805 0.70139 0.20200
C 	C 	0.77382 0.36193 0.98585 -0.03100
C 	C 	0.92605 0.86691 0.59298 -0.18100
C 	C 	0.98657 0.90138 0.85509 0.14600
C 	C 	0.76234 0.03974 0.36716 0.24800
C 	C 	0.40559 0.86470 0.06433 0.08200
C 	C 	0.09441 0.15874 0.45911 0.07300
C 	C 	0.07395 0.94086 0.16693 -0.18500
C 	C 	0.36852 0.41481 0.01343 0.00500
C 	C 	0.29861 0.38195 0.22234 0.15800
C 	C 	0.36470 0.45911 0.30037 0.08100
C 	C 	0.72618 0.71203 0.58811 -0.17900
C 	C 	0.28797 0.37608 0.01415 -0.33700
C 	C 	0.80463 0.09208 0.70501 -0.38700
C 	C 	0.84126 0.80037 0.93567 0.08900
C 	C 	0.95371 0.35509 0.86852 0.07900
C 	C 	0.22607 0.55914 0.63309 -0.18500
C 	C 	0.71203 0.62392 0.98585 -0.03200
C 	C 	0.38707 0.79499 0.09962 -0.35200
C 	C 	0.82742 0.22260 0.46026 0.16300
C 	C 	0.19963 0.56433 0.65874 0.07800
C 	C 	0.79499 0.59962 0.88707 -0.33500
C 	C 	0.93567 0.63530 0.59441 0.08300
C 	C 	0.36691 0.42605 0.09298 -0.24700
C 	C 	0.63807 0.12392 0.41189 -0.18800
C 	C 	0.91666 0.07627 0.79861 0.15700
C 	C 	0.09208 0.20501 0.30463 -0.39400
C 	C 	0.55914 0.42605 0.33307 -0.18500
C 	C 	0.48585 0.71203 0.12392 -0.18700
C 	C 	0.55914 0.13309 0.72607 -0.18100
C 	C 	0.57627 0.41666 0.29861 0.15300
C 	C 	0.54629 0.13148 0.64491 0.07200
C 	C 	0.80463 0.71255 0.59962 -0.33500
C 	C 	0.10482 0.77740 0.23766 0.14800
C 	C 	0.59298 0.36691 0.92605 -0.18000
C 	C 	0.29499 0.40792 0.19537 -0.34900
C 	C 	0.91189 0.27382 0.78797 -0.18500
C 	C 	0.86852 0.85509 0.95371 0.08200
C 	C 	0.34039 0.92373 0.72234 0.15300
C 	C 	0.86193 0.58811 0.87608 -0.18000
C 	C 	0.92373 0.22234 0.84039 0.16200
C 	C 	0.86470 0.30037 0.45911 0.08700
C 	C 	0.83307 0.55914 0.92605 -0.18100
C 	C 	0.69537 0.40038 0.28745 -0.34200
C 	C 	0.86716 0.76234 0.53974 0.15400
C 	C 	0.63284 0.17258 0.89518 0.15000
C 	C 	0.42373 0.58334 0.70139 0.15500
C 	C 	0.69963 0.04089 0.63530 0.15600
C 	C 	0.59441 0.13530 0.93567 0.07800
C 	C 	0.30463 0.70501 0.09208 -0.39200
C 	C 	0.36852 0.95371 0.85509 0.07900
C 	C 	0.06433 0.69963 0.15874 0.07000
C 	C 	0.86193 0.27382 0.48585 -0.18800
C 	C 	0.88195 0.08334 0.65961 0.10400
C 	C 	0.09962 0.80463 0.21255 -0.34200
C 	C 	0.66693 0.07395 0.44086 -0.19000
C 	C 	0.88707 0.09962 0.79499 -0.34300
C 	C 	0.36193 0.87608 0.58811 -0.18000
C 	C 	0.58811 0.37608 0.36193 -0.18400
C 	C 	0.40792 0.69537 0.79499 -0.34300
C 	C 	0.22618 0.63807 0.01415 -0.33100
C 	C 	0.60482 0.23766 0.77740 0.14600
C 	C 	0.78745 0.69537 0.90038 -0.33500
C 	C 	0.96026 0.13284 0.73766 0.06500
C 	C 	0.05914 0.72607 0.13309 -0.18500
C 	C 	0.86852 0.01343 0.41481 0.00600
C 	C 	0.23766 0.27740 0.10482 0.15300
C 	C 	0.07627 0.29861 0.41666 0.15500
C 	C 	0.21255 0.30463 0.09962 -0.35000
C 	C 	0.20501 0.40038 0.11293 -0.34900
C 	C 	0.59962 0.21255 0.80463 -0.33400
C 	C 	0.86691 0.77393 0.94086 -0.18200
C 	C 	0.45371 0.58519 0.59862 0.07300
C 	C 	0.30463 0.59962 0.71255 -0.34200
C 	C 	0.90702 0.07395 0.63309 -0.12500
C 	C 	0.90792 0.11293 0.71255 -0.29800
C 	C 	0.41481 0.90138 0.04629 0.07200
C 	C 	0.98657 0.08519 0.63148 0.14000
C 	C 	0.84039 0.11805 0.41666 0.21100
C 	C 	0.09862 0.45371 0.08519 0.06600
C 	C 	0.95911 0.86470 0.80037 0.00900
C 	C 	0.59862 0.51343 0.64491 0.07400
C 	C 	0.79499 0.19537 0.40792 -0.35100
C 	C 	0.70501 0.59208 0.80463 -0.33600
C 	C 	0.37608 0.51415 0.78797 -0.18500
C 	C 	0.13807 0.41189 0.12392 -0.18700
C 	C 	0.28745 0.90038 0.69537 -0.33400
C 	C 	0.70139 0.61805 0.77766 0.15100
C 	C 	0.44086 0.86691 0.27393 -0.18900
C 	C 	0.89518 0.22260 0.76234 0.16000
C 	C 	0.54089 0.19963 0.13530 0.07300
C 	C 	0.96026 0.82742 0.72260 0.06900
C 	C 	0.22260 0.26234 0.39518 0.15900
C 	C 	0.64491 0.63148 0.54629 0.07500
C 	C 	0.73766 0.63284 0.96026 0.06700
C 	C 	0.39518 0.63284 0.67258 0.15500
C 	C 	0.10482 0.32742 0.36716 0.15600
C 	C 	0.04629 0.64491 0.13148 0.06700
C 	C 	0.72234 0.29861 0.88195 0.10400
C 	C 	0.33307 0.40702 0.27393 -0.18800
C 	C 	0.23766 0.96026 0.63284 0.06000
C 	C 	0.83307 0.27393 0.40702 -0.18900
C 	C 	0.45911 0.80037 0.86470 0.08700
C 	C 	0.90138 0.35509 0.48657 0.07600
C 	C 	0.90038 0.19537 0.78745 -0.34200
C 	C 	0.65874 0.59441 0.95911 0.00500
C 	C 	0.04089 0.13530 0.19963 0.15200
C 	C 	0.69963 0.65874 0.56433 0.07800
C 	C 	0.71255 0.09962 0.30463 -0.35100
C 	C 	0.34039 0.41666 0.11805 0.20400
C 	C 	0.54089 0.34126 0.90559 0.08000
C 	C 	0.21255 0.90792 0.61293 -0.28900
C 	C 	0.42605 0.83307 0.05914 -0.19000
C 	C 	0.40138 0.48657 0.35509 0.07200
C 	C 	0.48657 0.85509 0.90138 0.07900
C 	C 	0.61805 0.34039 0.91666 0.15200
C 	C 	0.61293 0.40792 0.21255 -0.34100
C 	C 	0.36193 0.48585 0.27382 -0.18700
C 	C 	0.19537 0.28745 0.40038 -0.35000
C 	C 	0.53974 0.27740 0.17258 0.15000
C 	C 	0.11293 0.21255 0.40792 -0.35000
C 	C 	0.78797 0.77382 0.91189 -0.18100
C 	C 	0.36691 0.94086 0.77393 -0.18100
C 	C 	0.20139 0.42373 0.08334 0.15300
C 	C 	0.72260 0.39518 0.26234 0.15500
C 	C 	0.92605 0.05914 0.83307 -0.18500
C 	C 	0.14491 0.59862 0.01343 0.00600
C 	C 	0.90559 0.84126 0.54089 0.08500
C 	C 	0.09208 0.88707 0.28745 -0.38400
N 	N 	0.03523 0.08245 0.11840 -0.11800
N 	N 	0.07463 0.00386 0.55391 -0.20100
N 	N 	0.07762 0.61555 0.46303 -0.14000
N 	N 	0.52176 0.40603 0.45273 -0.20400
N 	N 	0.47928 0.92537 0.42923 -0.15800
N 	N 	0.88160 0.41755 0.96477 -0.09100
N 	N 	0.56903 0.95330 0.54727 -0.19700
N 	N 	0.58317 0.03595 0.11840 -0.10900
N 	N 	0.42238 0.88541 0.53793 -0.13400
N 	N 	0.61573 0.02176 0.06903 -0.21900
N 	N 	0.54722 0.08245 0.96405 -0.10100
N 	N 	0.11555 0.57762 0.96303 -0.10800
N 	N 	0.44609 0.94995 0.02072 -0.16400
N 	N 	0.41683 0.45278 0.03523 -0.11100
N 	N 	0.53793 0.38541 0.42238 -0.13700
N 	N 	0.11840 0.58245 0.03523 -0.11200
N 	N 	0.93097 0.47824 0.38427 -0.19000
N 	N 	0.95278 0.91683 0.53523 -0.08600
N 	N 	0.04722 0.08317 0.46477 -0.11700
N 	N 	0.88427 0.95330 0.40603 -0.19500
N 	N 	0.49614 0.07077 0.05005 -0.18300
N 	N 	0.15252 0.11555 0.03793 -0.14600
N 	N 	0.11555 0.53793 0.65252 -0.13900
N 	N 	0.44995 0.94609 0.52072 -0.15800
N 	N 	0.90603 0.02176 0.95273 -0.19600
N 	N 	0.09397 0.11573 0.54670 -0.20800
N 	N 	0.88445 0.42238 0.03697 -0.16300
N 	N 	0.61459 0.07762 0.96207 -0.13300
N 	N 	0.03793 0.42238 0.38541 -0.14100
N 	N 	0.08317 0.96477 0.54722 -0.10000
N 	N 	0.07762 0.46207 0.11459 -0.14100
N 	N 	0.55005 0.05391 0.47928 -0.17500
N 	N 	0.44995 0.50386 0.42923 -0.16900
N 	N 	0.55391 0.50386 0.07463 -0.17500
N 	N 	0.88427 0.93097 0.97824 -0.17700
N 	N 	0.53793 0.15252 0.61555 -0.13800
N 	N 	0.53595 0.45278 0.41755 -0.10200
N 	N 	0.52072 0.44609 0.44995 -0.16900
N 	N 	0.02176 0.56903 0.11573 -0.21200
N 	N 	0.08317 0.11840 0.03595 -0.11600
N 	N 	0.38541 0.46303 0.84748 -0.13500
N 	N 	0.97824 0.43097 0.88427 -0.18900
N 	N 	0.96405 0.58245 0.54722 -0.09500
N 	N 	0.58245 0.53523 0.61840 -0.10200
N 	N 	0.52072 0.07463 0.57077 -0.17500
N 	N 	0.53523 0.11840 0.08245 -0.10900
N 	N 	0.88541 0.03793 0.92238 -0.13300
N 	N 	0.92537 0.99614 0.44609 -0.13000
N 	N 	0.44609 0.49614 0.92537 -0.15900
N 	N 	0.02176 0.45273 0.40603 -0.21100
N 	N 	0.88160 0.46405 0.41683 -0.10000
N 	N 	0.45278 0.53523 0.91683 -0.09400
N 	N 	0.53595 0.08317 0.61840 -0.11000
N 	N 	0.95278 0.03595 0.91755 -0.09300
N 	N 	0.84748 0.88445 0.96207 -0.12300
N 	N 	0.96303 0.07762 0.11555 -0.10900
N 	N 	0.50386 0.57463 0.05391 -0.17500
N 	N 	0.95330 0.04727 0.06903 -0.21200
N 	N 	0.92923 0.47928 0.42537 -0.15700
N 	N 	0.59397 0.04727 0.97824 -0.19800
N 	N 	0.08245 0.61840 0.53523 -0.10800
N 	N 	0.53697 0.88445 0.92238 -0.12500
N 	N 	0.95330 0.90603 0.38427 -0.19500
N 	N 	0.04670 0.09397 0.61573 -0.21100
N 	N 	0.42923 0.42537 0.47928 -0.16900
N 	N 	0.38427 0.40603 0.95330 -0.19800
N 	N 	0.11573 0.04670 0.59397 -0.21100
N 	N 	0.45273 0.54670 0.43097 -0.20300
N 	N 	0.95273 0.43097 0.54670 -0.19200
N 	N 	0.05391 0.07463 0.50386 -0.18200
N 	N 	0.00386 0.05391 0.57463 -0.20100
N 	N 	0.38160 0.96477 0.41755 -0.09200
N 	N 	0.61573 0.59397 0.04670 -0.20800
N 	N 	0.03697 0.92238 0.88445 -0.15900
N 	N 	0.11573 0.06903 0.02176 -0.22200
N 	N 	0.92537 0.92923 0.97928 -0.13800
N 	N 	0.57077 0.57463 0.52072 -0.16800
N 	N 	0.91683 0.03523 0.45278 -0.10200
N 	N 	0.56903 0.61573 0.52176 -0.20300
N 	N 	0.15252 0.03697 0.61459 -0.17100
N 	N 	0.54670 0.93097 0.95273 -0.17900
N 	N 	0.65252 0.03793 0.11555 -0.14300
N 	N 	0.93097 0.45273 0.04670 -0.19500
N 	N 	0.91755 0.38160 0.46477 -0.09600
N 	N 	0.91755 0.53595 0.95278 -0.08800
N 	N 	0.97928 0.42923 0.92537 -0.14700
N 	N 	0.45330 0.06903 0.04727 -0.22000
N 	N 	0.46477 0.88160 0.91755 -0.09400
N 	N 	0.92238 0.53793 0.88541 -0.12800
N 	N 	0.53697 0.65252 0.11459 -0.13600
N 	N 	0.99614 0.05005 0.07077 -0.15300
N 	N 	0.42238 0.53697 0.38445 -0.13500
N 	N 	0.40603 0.95273 0.02176 -0.19900
N 	N 	0.05391 0.97928 0.05005 -0.16900
N 	N 	0.99614 0.94609 0.42537 -0.13000
N 	N 	0.46207 0.61459 0.57762 -0.13400
N 	N 	0.04727 0.56903 0.45330 -0.21000
N 	N 	0.42923 0.00386 0.44995 -0.19600
N 	N 	0.04727 0.47824 0.09397 -0.21200
N 	N 	0.53523 0.41683 0.95278 -0.09400
N 	N 	0.57762 0.46303 0.61555 -0.13600
N 	N 	0.90603 0.88427 0.45330 -0.19800
N 	N 	0.92238 0.38445 0.53697 -0.13000
N 	N 	0.52176 0.11573 0.56903 -0.20600
N 	N 	0.54670 0.61573 0.09397 -0.20500
N 	N 	0.05005 0.47928 0.05391 -0.18200
N 	N 	0.03793 0.61555 0.15252 -0.14200
N 	N 	0.61555 0.65252 0.53793 -0.13400
N 	N 	0.97824 0.54727 0.59397 -0.19100
N 	N 	0.08245 0.46405 0.04722 -0.11500
N 	N 	0.49614 0.42537 0.94609 -0.15900
N 	N 	0.43097 0.38427 0.47824 -0.20400
N 	N 	0.11840 0.53595 0.58317 -0.10300
N 	N 	0.57463 0.55391 0.00386 -0.19400
N 	N 	0.96303 0.88541 0.34748 -0.10200
N 	N 	0.88445 0.46207 0.34748 -0.13100
N 	N 	0.95273 0.52176 0.90603 -0.18900
N 	N 	0.96207 0.38445 0.84748 -0.12800
N 	N 	0.96405 0.38160 0.91683 -0.08800
N 	N 	0.00386 0.94995 0.92923 -0.17400
N 	N 	0.34748 0.96207 0.88445 -0.12600
N 	N 	0.54722 0.46477 0.08317 -0.11000
N 	N 	0.47824 0.88427 0.43097 -0.20100
N 	N 	0.84748 0.96303 0.38541 -0.10100
N 	N 	0.38160 0.41683 0.46405 -0.10200
N 	N 	0.11459 0.15252 0.53697 -0.13900
N 	N 	0.47928 0.55391 0.55005 -0.16800
N 	N 	0.96207 0.57762 0.61459 -0.12900
N 	N 	0.94609 0.92537 0.49614 -0.14900
N 	N 	0.03595 0.41755 0.45278 -0.10800
N 	N 	0.61840 0.03523 0.58245 -0.11100
N 	N 	0.88541 0.84748 0.46303 -0.13200
N 	N 	0.92923 0.44995 0.00386 -0.18300
N 	N 	0.91683 0.88160 0.96405 -0.08700
N 	N 	0.58245 0.04722 0.46405 -0.11000
N 	N 	0.94609 0.02072 0.94995 -0.15600
N 	N 	0.96477 0.04722 0.58317 -0.10000
N 	N 	0.03595 0.61840 0.08317 -0.11500
N 	N 	0.46477 0.58317 0.04722 -0.11000
N 	N 	0.07463 0.07077 0.02072 -0.19000
N 	N 	0.45330 0.38427 0.90603 -0.20100
N 	N 	0.34748 0.38541 0.96303 -0.10400
N 	N 	0.11459 0.96207 0.07762 -0.13500
N 	N 	0.41755 0.46477 0.38160 -0.10200
N 	N 	0.57463 0.02072 0.07077 -0.18300
N 	N 	0.97928 0.55005 0.55391 -0.15600
N 	N 	0.46207 0.84748 0.38445 -0.13400
N 	N 	0.54727 0.45330 0.56903 -0.20400
N 	N 	0.43097 0.04670 0.45273 -0.21000
N 	N 	0.38445 0.34748 0.46207 -0.13700
N 	N 	0.46405 0.91683 0.38160 -0.09400
N 	N 	0.04722 0.96405 0.08245 -0.10700
N 	N 	0.06903 0.54727 0.95330 -0.20700
N 	N 	0.58317 0.54722 0.96477 -0.09300
N 	N 	0.61555 0.96303 0.57762 -0.10100
N 	N 	0.03697 0.11459 0.65252 -0.17100
N 	N 	0.50386 0.92923 0.94995 -0.14700
N 	N 	0.38427 0.97824 0.93097 -0.18000
N 	N 	0.57762 0.11459 0.46207 -0.13700
N 	N 	0.05005 0.57077 0.49614 -0.17600
N 	N 	0.42537 0.44609 0.99614 -0.14000
N 	N 	0.41755 0.95278 0.53595 -0.09400
N 	N 	0.04670 0.95273 0.93097 -0.18600
N 	N 	0.61840 0.58317 0.53595 -0.10200
N 	N 	0.94995 0.52072 0.94609 -0.14800
N 	N 	0.55391 0.05005 0.97928 -0.16400
N 	N 	0.59397 0.54670 0.11573 -0.20500
N 	N 	0.54727 0.09397 0.47824 -0.20600
N 	N 	0.45273 0.90603 0.52176 -0.20000
N 	N 	0.46303 0.11555 0.07762 -0.14400
N 	N 	0.46303 0.34748 0.88541 -0.13500
N 	N 	0.57077 0.99614 0.55005 -0.13900
N 	N 	0.06903 0.52176 0.61573 -0.21300
N 	N 	0.07077 0.55005 0.99614 -0.14800
N 	N 	0.47824 0.59397 0.54727 -0.20300
N 	N 	0.46405 0.54722 0.58245 -0.10200
N 	N 	0.45278 0.91755 0.03595 -0.10100
N 	N 	0.02072 0.57077 0.07463 -0.18300
N 	N 	0.07077 0.52072 0.57463 -0.17600
N 	N 	0.38541 0.92238 0.03793 -0.13500
N 	N 	0.40603 0.45330 0.88427 -0.20200
N 	N 	0.02072 0.44995 0.44609 -0.17700
N 	N 	0.65252 0.61459 0.03697 -0.16600
N 	N 	0.38445 0.03697 0.42238 -0.17100
N 	N 	0.94995 0.42923 0.50386 -0.15700
N 	N 	0.96477 0.91755 0.88160 -0.08500
N 	N 	0.61459 0.53697 0.15252 -0.13600
N 	N 	0.03523 0.95278 0.41683 -0.10200
N 	N 	0.42537 0.97928 0.92923 -0.14700
N 	N 	0.41683 0.96405 0.88160 -0.09400
N 	N 	0.09397 0.97824 0.04727 -0.20000
N 	N 	0.55005 0.49614 0.57077 -0.16800
