data_crystal

_cell_length_a 36.19060
_cell_length_b 36.19060
_cell_length_c 36.19060
_cell_angle_alpha 90.00000
_cell_angle_beta  90.00000
_cell_angle_gamma 90.00000

_symmetry_space_group_name_	'P 1'
_symmetry_space_group_name_H-M	'P 1'

loop_
_symmetry_equiv_pos_as_xyz
  x,y,z

loop_
_atom_site_label
_atom_site_type_symbol
_atom_site_fract_x
_atom_site_fract_y
_atom_site_fract_z
_atom_site_charge
C 	C 	0.02960 0.48600 0.11320 0.06700
C 	C 	0.05218 0.49005 0.14564 0.08700
C 	C 	0.04404 0.46952 0.17710 -0.18500
H 	H 	0.02370 0.45300 0.17700 0.08100
C 	C 	0.06570 0.47321 0.20856 0.16200
H 	H 	0.06010 0.45920 0.23000 -0.04500
C 	C 	0.09553 0.49742 0.20863 -0.36800
C 	C 	0.10367 0.51795 0.17720 0.16500
H 	H 	0.12400 0.53450 0.17730 -0.04100
C 	C 	0.08200 0.51426 0.14571 -0.18500
H 	H 	0.08760 0.52830 0.12420 0.09300
N 	N 	0.98590 0.46670 0.07760 -0.16800
N 	N 	0.00810 0.48930 0.05850 -0.13900
N 	N 	0.03550 0.50060 0.07980 -0.09100
N 	N 	0.99930 0.46530 0.11280 -0.10900
C 	C 	0.52960 0.98600 0.61320 0.08800
C 	C 	0.55218 0.99005 0.64564 0.08700
C 	C 	0.54404 0.96952 0.67710 -0.17200
H 	H 	0.52370 0.95300 0.67700 0.08100
C 	C 	0.56570 0.97321 0.70856 0.14500
H 	H 	0.56010 0.95920 0.73000 -0.03500
C 	C 	0.59553 0.99742 0.70863 -0.32900
C 	C 	0.60367 0.01795 0.67720 0.13600
H 	H 	0.62400 0.03450 0.67730 -0.03200
C 	C 	0.58200 0.01426 0.64571 -0.18200
H 	H 	0.58760 0.02830 0.62420 0.09000
N 	N 	0.48590 0.96670 0.57760 -0.17100
N 	N 	0.50810 0.98930 0.55850 -0.12600
N 	N 	0.53550 0.00060 0.57980 -0.10100
N 	N 	0.49930 0.96530 0.61280 -0.11700
C 	C 	0.47040 0.51400 0.61320 0.07800
C 	C 	0.44782 0.50995 0.64564 0.08500
C 	C 	0.45596 0.53048 0.67710 -0.18300
H 	H 	0.47630 0.54700 0.67700 0.08300
C 	C 	0.43430 0.52679 0.70856 0.16100
H 	H 	0.43990 0.54080 0.73000 -0.04300
C 	C 	0.40447 0.50258 0.70863 -0.36700
C 	C 	0.39633 0.48205 0.67720 0.16400
H 	H 	0.37600 0.46550 0.67730 -0.04000
C 	C 	0.41800 0.48574 0.64571 -0.18200
H 	H 	0.41240 0.47170 0.62420 0.09300
N 	N 	0.51410 0.53330 0.57760 -0.17200
N 	N 	0.49190 0.51070 0.55850 -0.13200
N 	N 	0.46450 0.49940 0.57980 -0.09000
N 	N 	0.50070 0.53470 0.61280 -0.11600
C 	C 	0.97040 0.01400 0.11320 0.08300
C 	C 	0.94782 0.00995 0.14564 0.06900
C 	C 	0.95596 0.03048 0.17710 -0.17300
H 	H 	0.97630 0.04700 0.17700 0.08300
C 	C 	0.93430 0.02679 0.20856 0.15400
H 	H 	0.93990 0.04080 0.23000 -0.04000
C 	C 	0.90447 0.00258 0.20863 -0.36200
C 	C 	0.89633 0.98205 0.17720 0.16700
H 	H 	0.87600 0.96550 0.17730 -0.03700
C 	C 	0.91800 0.98574 0.14571 -0.16300
H 	H 	0.91240 0.97170 0.12420 0.09000
N 	N 	0.01410 0.03330 0.07760 -0.17800
N 	N 	0.99190 0.01070 0.05850 -0.13100
N 	N 	0.96450 0.99940 0.07980 -0.08000
N 	N 	0.00070 0.03470 0.11280 -0.12400
C 	C 	0.97040 0.98600 0.38680 0.09900
C 	C 	0.94782 0.99005 0.35436 0.08500
C 	C 	0.95596 0.96952 0.32290 -0.16800
H 	H 	0.97630 0.95300 0.32300 0.08400
C 	C 	0.93430 0.97321 0.29144 0.14500
H 	H 	0.93990 0.95920 0.27000 -0.03200
C 	C 	0.90447 0.99742 0.29137 -0.32700
C 	C 	0.89633 0.01795 0.32280 0.13600
H 	H 	0.87600 0.03450 0.32270 -0.03000
C 	C 	0.91800 0.01426 0.35429 -0.17800
H 	H 	0.91240 0.02830 0.37580 0.09100
N 	N 	0.01410 0.96670 0.42240 -0.17500
N 	N 	0.99190 0.98930 0.44150 -0.11800
N 	N 	0.96450 0.00060 0.42020 -0.10000
N 	N 	0.00070 0.96530 0.38720 -0.12400
C 	C 	0.47040 0.48600 0.88680 0.07900
C 	C 	0.44782 0.49005 0.85436 0.08600
C 	C 	0.45596 0.46952 0.82290 -0.18200
H 	H 	0.47630 0.45300 0.82300 0.08500
C 	C 	0.43430 0.47321 0.79144 0.16300
H 	H 	0.43990 0.45920 0.77000 -0.04200
C 	C 	0.40447 0.49742 0.79137 -0.36600
C 	C 	0.39633 0.51795 0.82280 0.16500
H 	H 	0.37600 0.53450 0.82270 -0.03800
C 	C 	0.41800 0.51426 0.85429 -0.18100
H 	H 	0.41240 0.52830 0.87580 0.09500
N 	N 	0.51410 0.46670 0.92240 -0.17100
N 	N 	0.49190 0.48930 0.94150 -0.12900
N 	N 	0.46450 0.50060 0.92020 -0.08800
N 	N 	0.50070 0.46530 0.88720 -0.11500
C 	C 	0.52960 0.01400 0.88680 0.07300
C 	C 	0.55218 0.00995 0.85436 0.07300
C 	C 	0.54404 0.03048 0.82290 -0.17600
H 	H 	0.52370 0.04700 0.82300 0.08200
C 	C 	0.56570 0.02679 0.79144 0.15600
H 	H 	0.56010 0.04080 0.77000 -0.04100
C 	C 	0.59553 0.00258 0.79137 -0.36400
C 	C 	0.60367 0.98205 0.82280 0.16900
H 	H 	0.62400 0.96550 0.82270 -0.03700
C 	C 	0.58200 0.98574 0.85429 -0.16600
H 	H 	0.58760 0.97170 0.87580 0.09300
N 	N 	0.48590 0.03330 0.92240 -0.17200
N 	N 	0.50810 0.01070 0.94150 -0.13400
N 	N 	0.53550 0.99940 0.92020 -0.07800
N 	N 	0.49930 0.03470 0.88720 -0.11500
C 	C 	0.02960 0.51400 0.38680 0.06800
C 	C 	0.05218 0.50995 0.35436 0.08800
C 	C 	0.04404 0.53048 0.32290 -0.18500
H 	H 	0.02370 0.54700 0.32300 0.08200
C 	C 	0.06570 0.52679 0.29144 0.16300
H 	H 	0.06010 0.54080 0.27000 -0.04400
C 	C 	0.09553 0.50258 0.29137 -0.36700
C 	C 	0.10367 0.48205 0.32280 0.16600
H 	H 	0.12400 0.46550 0.32270 -0.03900
C 	C 	0.08200 0.48574 0.35429 -0.18400
H 	H 	0.08760 0.47170 0.37580 0.09500
N 	N 	0.98590 0.53330 0.42240 -0.16600
N 	N 	0.00810 0.51070 0.44150 -0.13700
N 	N 	0.03550 0.49940 0.42020 -0.08900
N 	N 	0.99930 0.53470 0.38720 -0.10700
C 	C 	0.11320 0.02960 0.48600 0.06800
C 	C 	0.14564 0.05218 0.49005 0.08800
C 	C 	0.17710 0.04404 0.46952 -0.18400
H 	H 	0.17700 0.02370 0.45300 0.08200
C 	C 	0.20856 0.06570 0.47321 0.16300
H 	H 	0.23000 0.06010 0.45920 -0.04400
C 	C 	0.20863 0.09553 0.49742 -0.36700
C 	C 	0.17720 0.10367 0.51795 0.16600
H 	H 	0.17730 0.12400 0.53450 -0.04000
C 	C 	0.14571 0.08200 0.51426 -0.18400
H 	H 	0.12420 0.08760 0.52830 0.09400
N 	N 	0.07760 0.98590 0.46670 -0.16700
N 	N 	0.05850 0.00810 0.48930 -0.13800
N 	N 	0.07980 0.03550 0.50060 -0.09000
N 	N 	0.11280 0.99930 0.46530 -0.10800
C 	C 	0.61320 0.52960 0.98600 0.08900
C 	C 	0.64564 0.55218 0.99005 0.08800
C 	C 	0.67710 0.54404 0.96952 -0.17100
H 	H 	0.67700 0.52370 0.95300 0.08200
C 	C 	0.70856 0.56570 0.97321 0.14600
H 	H 	0.73000 0.56010 0.95920 -0.03400
C 	C 	0.70863 0.59553 0.99742 -0.32800
C 	C 	0.67720 0.60367 0.01795 0.13700
H 	H 	0.67730 0.62400 0.03450 -0.03100
C 	C 	0.64571 0.58200 0.01426 -0.18100
H 	H 	0.62420 0.58760 0.02830 0.09100
N 	N 	0.57760 0.48590 0.96670 -0.17000
N 	N 	0.55850 0.50810 0.98930 -0.12500
N 	N 	0.57980 0.53550 0.00060 -0.10000
N 	N 	0.61280 0.49930 0.96530 -0.11600
C 	C 	0.61320 0.47040 0.51400 0.07900
C 	C 	0.64564 0.44782 0.50995 0.08600
C 	C 	0.67710 0.45596 0.53048 -0.18200
H 	H 	0.67700 0.47630 0.54700 0.08400
C 	C 	0.70856 0.43430 0.52679 0.16200
H 	H 	0.73000 0.43990 0.54080 -0.04200
C 	C 	0.70863 0.40447 0.50258 -0.36600
C 	C 	0.67720 0.39633 0.48205 0.16500
H 	H 	0.67730 0.37600 0.46550 -0.03900
C 	C 	0.64571 0.41800 0.48574 -0.18100
H 	H 	0.62420 0.41240 0.47170 0.09400
N 	N 	0.57760 0.51410 0.53330 -0.17100
N 	N 	0.55850 0.49190 0.51070 -0.13100
N 	N 	0.57980 0.46450 0.49940 -0.08900
N 	N 	0.61280 0.50070 0.53470 -0.11600
C 	C 	0.11320 0.97040 0.01400 0.08300
C 	C 	0.14564 0.94782 0.00995 0.06900
C 	C 	0.17710 0.95596 0.03048 -0.17300
H 	H 	0.17700 0.97630 0.04700 0.08300
C 	C 	0.20856 0.93430 0.02679 0.15400
H 	H 	0.23000 0.93990 0.04080 -0.04000
C 	C 	0.20863 0.90447 0.00258 -0.36200
C 	C 	0.17720 0.89633 0.98205 0.16700
H 	H 	0.17730 0.87600 0.96550 -0.03700
C 	C 	0.14571 0.91800 0.98574 -0.16300
H 	H 	0.12420 0.91240 0.97170 0.09000
N 	N 	0.07760 0.01410 0.03330 -0.17800
N 	N 	0.05850 0.99190 0.01070 -0.13100
N 	N 	0.07980 0.96450 0.99940 -0.08000
N 	N 	0.11280 0.00070 0.03470 -0.12400
C 	C 	0.38680 0.97040 0.98600 0.09900
C 	C 	0.35436 0.94782 0.99005 0.08500
C 	C 	0.32290 0.95596 0.96952 -0.16800
H 	H 	0.32300 0.97630 0.95300 0.08400
C 	C 	0.29144 0.93430 0.97321 0.14500
H 	H 	0.27000 0.93990 0.95920 -0.03200
C 	C 	0.29137 0.90447 0.99742 -0.32700
C 	C 	0.32280 0.89633 0.01795 0.13600
H 	H 	0.32270 0.87600 0.03450 -0.03000
C 	C 	0.35429 0.91800 0.01426 -0.17800
H 	H 	0.37580 0.91240 0.02830 0.09100
N 	N 	0.42240 0.01410 0.96670 -0.17500
N 	N 	0.44150 0.99190 0.98930 -0.11800
N 	N 	0.42020 0.96450 0.00060 -0.10000
N 	N 	0.38720 0.00070 0.96530 -0.12400
C 	C 	0.88680 0.47040 0.48600 0.07900
C 	C 	0.85436 0.44782 0.49005 0.08600
C 	C 	0.82290 0.45596 0.46952 -0.18200
H 	H 	0.82300 0.47630 0.45300 0.08500
C 	C 	0.79144 0.43430 0.47321 0.16300
H 	H 	0.77000 0.43990 0.45920 -0.04200
C 	C 	0.79137 0.40447 0.49742 -0.36600
C 	C 	0.82280 0.39633 0.51795 0.16500
H 	H 	0.82270 0.37600 0.53450 -0.03800
C 	C 	0.85429 0.41800 0.51426 -0.18100
H 	H 	0.87580 0.41240 0.52830 0.09500
N 	N 	0.92240 0.51410 0.46670 -0.17100
N 	N 	0.94150 0.49190 0.48930 -0.12900
N 	N 	0.92020 0.46450 0.50060 -0.08800
N 	N 	0.88720 0.50070 0.46530 -0.11500
C 	C 	0.88680 0.52960 0.01400 0.07300
C 	C 	0.85436 0.55218 0.00995 0.07300
C 	C 	0.82290 0.54404 0.03048 -0.17600
H 	H 	0.82300 0.52370 0.04700 0.08200
C 	C 	0.79144 0.56570 0.02679 0.15600
H 	H 	0.77000 0.56010 0.04080 -0.04100
C 	C 	0.79137 0.59553 0.00258 -0.36400
C 	C 	0.82280 0.60367 0.98205 0.16900
H 	H 	0.82270 0.62400 0.96550 -0.03700
C 	C 	0.85429 0.58200 0.98574 -0.16600
H 	H 	0.87580 0.58760 0.97170 0.09300
N 	N 	0.92240 0.48590 0.03330 -0.17200
N 	N 	0.94150 0.50810 0.01070 -0.13400
N 	N 	0.92020 0.53550 0.99940 -0.07800
N 	N 	0.88720 0.49930 0.03470 -0.11500
C 	C 	0.38680 0.02960 0.51400 0.06800
C 	C 	0.35436 0.05218 0.50995 0.08800
C 	C 	0.32290 0.04404 0.53048 -0.18500
H 	H 	0.32300 0.02370 0.54700 0.08200
C 	C 	0.29144 0.06570 0.52679 0.16300
H 	H 	0.27000 0.06010 0.54080 -0.04400
C 	C 	0.29137 0.09553 0.50258 -0.36700
C 	C 	0.32280 0.10367 0.48205 0.16600
H 	H 	0.32270 0.12400 0.46550 -0.03900
C 	C 	0.35429 0.08200 0.48574 -0.18400
H 	H 	0.37580 0.08760 0.47170 0.09500
N 	N 	0.42240 0.98590 0.53330 -0.16600
N 	N 	0.44150 0.00810 0.51070 -0.13700
N 	N 	0.42020 0.03550 0.49940 -0.08900
N 	N 	0.38720 0.99930 0.53470 -0.10700
C 	C 	0.48600 0.11320 0.02960 0.06800
C 	C 	0.49005 0.14564 0.05218 0.08800
C 	C 	0.46952 0.17710 0.04404 -0.18400
H 	H 	0.45300 0.17700 0.02370 0.08200
C 	C 	0.47321 0.20856 0.06570 0.16300
H 	H 	0.45920 0.23000 0.06010 -0.04400
C 	C 	0.49742 0.20863 0.09553 -0.36700
C 	C 	0.51795 0.17720 0.10367 0.16600
H 	H 	0.53450 0.17730 0.12400 -0.04000
C 	C 	0.51426 0.14571 0.08200 -0.18400
H 	H 	0.52830 0.12420 0.08760 0.09400
N 	N 	0.46670 0.07760 0.98590 -0.16700
N 	N 	0.48930 0.05850 0.00810 -0.13800
N 	N 	0.50060 0.07980 0.03550 -0.09000
N 	N 	0.46530 0.11280 0.99930 -0.10800
C 	C 	0.98600 0.61320 0.52960 0.08900
C 	C 	0.99005 0.64564 0.55218 0.08800
C 	C 	0.96952 0.67710 0.54404 -0.17100
H 	H 	0.95300 0.67700 0.52370 0.08200
C 	C 	0.97321 0.70856 0.56570 0.14600
H 	H 	0.95920 0.73000 0.56010 -0.03400
C 	C 	0.99742 0.70863 0.59553 -0.32800
C 	C 	0.01795 0.67720 0.60367 0.13700
H 	H 	0.03450 0.67730 0.62400 -0.03100
C 	C 	0.01426 0.64571 0.58200 -0.18100
H 	H 	0.02830 0.62420 0.58760 0.09100
N 	N 	0.96670 0.57760 0.48590 -0.17000
N 	N 	0.98930 0.55850 0.50810 -0.12500
N 	N 	0.00060 0.57980 0.53550 -0.10000
N 	N 	0.96530 0.61280 0.49930 -0.11600
C 	C 	0.51400 0.61320 0.47040 0.07900
C 	C 	0.50995 0.64564 0.44782 0.08600
C 	C 	0.53048 0.67710 0.45596 -0.18200
H 	H 	0.54700 0.67700 0.47630 0.08400
C 	C 	0.52679 0.70856 0.43430 0.16200
H 	H 	0.54080 0.73000 0.43990 -0.04200
C 	C 	0.50258 0.70863 0.40447 -0.36600
C 	C 	0.48205 0.67720 0.39633 0.16500
H 	H 	0.46550 0.67730 0.37600 -0.03900
C 	C 	0.48574 0.64571 0.41800 -0.18100
H 	H 	0.47170 0.62420 0.41240 0.09400
N 	N 	0.53330 0.57760 0.51410 -0.17100
N 	N 	0.51070 0.55850 0.49190 -0.13100
N 	N 	0.49940 0.57980 0.46450 -0.08900
N 	N 	0.53470 0.61280 0.50070 -0.11600
C 	C 	0.01400 0.11320 0.97040 0.08300
C 	C 	0.00995 0.14564 0.94782 0.06900
C 	C 	0.03048 0.17710 0.95596 -0.17300
H 	H 	0.04700 0.17700 0.97630 0.08300
C 	C 	0.02679 0.20856 0.93430 0.15400
H 	H 	0.04080 0.23000 0.93990 -0.04000
C 	C 	0.00258 0.20863 0.90447 -0.36200
C 	C 	0.98205 0.17720 0.89633 0.16700
H 	H 	0.96550 0.17730 0.87600 -0.03700
C 	C 	0.98574 0.14571 0.91800 -0.16300
H 	H 	0.97170 0.12420 0.91240 0.09000
N 	N 	0.03330 0.07760 0.01410 -0.17800
N 	N 	0.01070 0.05850 0.99190 -0.13100
N 	N 	0.99940 0.07980 0.96450 -0.08000
N 	N 	0.03470 0.11280 0.00070 -0.12400
C 	C 	0.98600 0.38680 0.97040 0.09900
C 	C 	0.99005 0.35436 0.94782 0.08500
C 	C 	0.96952 0.32290 0.95596 -0.16800
H 	H 	0.95300 0.32300 0.97630 0.08400
C 	C 	0.97321 0.29144 0.93430 0.14500
H 	H 	0.95920 0.27000 0.93990 -0.03200
C 	C 	0.99742 0.29137 0.90447 -0.32700
C 	C 	0.01795 0.32280 0.89633 0.13600
H 	H 	0.03450 0.32270 0.87600 -0.03000
C 	C 	0.01426 0.35429 0.91800 -0.17800
H 	H 	0.02830 0.37580 0.91240 0.09100
N 	N 	0.96670 0.42240 0.01410 -0.17500
N 	N 	0.98930 0.44150 0.99190 -0.11800
N 	N 	0.00060 0.42020 0.96450 -0.10000
N 	N 	0.96530 0.38720 0.00070 -0.12400
C 	C 	0.48600 0.88680 0.47040 0.07900
C 	C 	0.49005 0.85436 0.44782 0.08600
C 	C 	0.46952 0.82290 0.45596 -0.18200
H 	H 	0.45300 0.82300 0.47630 0.08500
C 	C 	0.47321 0.79144 0.43430 0.16300
H 	H 	0.45920 0.77000 0.43990 -0.04200
C 	C 	0.49742 0.79137 0.40447 -0.36600
C 	C 	0.51795 0.82280 0.39633 0.16500
H 	H 	0.53450 0.82270 0.37600 -0.03800
C 	C 	0.51426 0.85429 0.41800 -0.18100
H 	H 	0.52830 0.87580 0.41240 0.09500
N 	N 	0.46670 0.92240 0.51410 -0.17100
N 	N 	0.48930 0.94150 0.49190 -0.12900
N 	N 	0.50060 0.92020 0.46450 -0.08800
N 	N 	0.46530 0.88720 0.50070 -0.11500
C 	C 	0.01400 0.88680 0.52960 0.07300
C 	C 	0.00995 0.85436 0.55218 0.07300
C 	C 	0.03048 0.82290 0.54404 -0.17600
H 	H 	0.04700 0.82300 0.52370 0.08200
C 	C 	0.02679 0.79144 0.56570 0.15600
H 	H 	0.04080 0.77000 0.56010 -0.04100
C 	C 	0.00258 0.79137 0.59553 -0.36400
C 	C 	0.98205 0.82280 0.60367 0.16900
H 	H 	0.96550 0.82270 0.62400 -0.03700
C 	C 	0.98574 0.85429 0.58200 -0.16600
H 	H 	0.97170 0.87580 0.58760 0.09300
N 	N 	0.03330 0.92240 0.48590 -0.17200
N 	N 	0.01070 0.94150 0.50810 -0.13400
N 	N 	0.99940 0.92020 0.53550 -0.07800
N 	N 	0.03470 0.88720 0.49930 -0.11500
C 	C 	0.51400 0.38680 0.02960 0.06800
C 	C 	0.50995 0.35436 0.05218 0.08800
C 	C 	0.53048 0.32290 0.04404 -0.18500
H 	H 	0.54700 0.32300 0.02370 0.08200
C 	C 	0.52679 0.29144 0.06570 0.16300
H 	H 	0.54080 0.27000 0.06010 -0.04400
C 	C 	0.50258 0.29137 0.09553 -0.36700
C 	C 	0.48205 0.32280 0.10367 0.16600
H 	H 	0.46550 0.32270 0.12400 -0.03900
C 	C 	0.48574 0.35429 0.08200 -0.18400
H 	H 	0.47170 0.37580 0.08760 0.09500
N 	N 	0.53330 0.42240 0.98590 -0.16600
N 	N 	0.51070 0.44150 0.00810 -0.13700
N 	N 	0.49940 0.42020 0.03550 -0.08900
N 	N 	0.53470 0.38720 0.99930 -0.10700
C 	C 	0.23600 0.27960 0.13680 0.08000
C 	C 	0.24005 0.30218 0.10436 0.08000
C 	C 	0.21952 0.29404 0.07290 -0.17600
H 	H 	0.20300 0.27370 0.07300 0.08000
C 	C 	0.22321 0.31570 0.04144 0.15200
H 	H 	0.20920 0.31010 0.02000 -0.04200
C 	C 	0.24742 0.34553 0.04137 -0.35200
C 	C 	0.26795 0.35367 0.07280 0.15500
H 	H 	0.28450 0.37400 0.07270 -0.03500
C 	C 	0.26426 0.33200 0.10429 -0.17500
H 	H 	0.27830 0.33760 0.12580 0.09200
N 	N 	0.21670 0.23590 0.17240 -0.17200
N 	N 	0.23930 0.25810 0.19150 -0.13100
N 	N 	0.25060 0.28550 0.17020 -0.08900
N 	N 	0.21530 0.24930 0.13720 -0.11700
C 	C 	0.73600 0.77960 0.63680 0.07900
C 	C 	0.74005 0.80218 0.60436 0.08600
C 	C 	0.71952 0.79404 0.57290 -0.18100
H 	H 	0.70300 0.77370 0.57300 0.08400
C 	C 	0.72321 0.81570 0.54144 0.16200
H 	H 	0.70920 0.81010 0.52000 -0.04200
C 	C 	0.74742 0.84553 0.54137 -0.36500
C 	C 	0.76795 0.85367 0.57280 0.16500
H 	H 	0.78450 0.87400 0.57270 -0.03800
C 	C 	0.76426 0.83200 0.60429 -0.18100
H 	H 	0.77830 0.83760 0.62580 0.09500
N 	N 	0.71670 0.73590 0.67240 -0.17100
N 	N 	0.73930 0.75810 0.69150 -0.13100
N 	N 	0.75060 0.78550 0.67020 -0.08900
N 	N 	0.71530 0.74930 0.63720 -0.11600
C 	C 	0.26400 0.72040 0.63680 0.07900
C 	C 	0.25995 0.69782 0.60436 0.08600
C 	C 	0.28048 0.70596 0.57290 -0.18200
H 	H 	0.29700 0.72630 0.57300 0.08400
C 	C 	0.27679 0.68430 0.54144 0.16200
H 	H 	0.29080 0.68990 0.52000 -0.04200
C 	C 	0.25258 0.65447 0.54137 -0.36600
C 	C 	0.23205 0.64633 0.57280 0.16500
H 	H 	0.21550 0.62600 0.57270 -0.03900
C 	C 	0.23574 0.66800 0.60429 -0.18100
H 	H 	0.22170 0.66240 0.62580 0.09400
N 	N 	0.28330 0.76410 0.67240 -0.17100
N 	N 	0.26070 0.74190 0.69150 -0.13100
N 	N 	0.24940 0.71450 0.67020 -0.08900
N 	N 	0.28470 0.75070 0.63720 -0.11500
C 	C 	0.76400 0.22040 0.13680 0.08000
C 	C 	0.75995 0.19782 0.10436 0.08100
C 	C 	0.78048 0.20596 0.07290 -0.17600
H 	H 	0.79700 0.22630 0.07300 0.08100
C 	C 	0.77679 0.18430 0.04144 0.15300
H 	H 	0.79080 0.18990 0.02000 -0.04200
C 	C 	0.75258 0.15447 0.04137 -0.35200
C 	C 	0.73205 0.14633 0.07280 0.15500
H 	H 	0.71550 0.12600 0.07270 -0.03600
C 	C 	0.73574 0.16800 0.10429 -0.17600
H 	H 	0.72170 0.16240 0.12580 0.09200
N 	N 	0.78330 0.26410 0.17240 -0.17100
N 	N 	0.76070 0.24190 0.19150 -0.13100
N 	N 	0.74940 0.21450 0.17020 -0.08900
N 	N 	0.78470 0.25070 0.13720 -0.11600
C 	C 	0.73600 0.22040 0.86320 0.08200
C 	C 	0.74005 0.19782 0.89564 0.07900
C 	C 	0.71952 0.20596 0.92710 -0.17100
H 	H 	0.70300 0.22630 0.92700 0.08200
C 	C 	0.72321 0.18430 0.95856 0.14900
H 	H 	0.70920 0.18990 0.98000 -0.03400
C 	C 	0.74742 0.15447 0.95863 -0.34100
C 	C 	0.76795 0.14633 0.92720 0.15100
H 	H 	0.78450 0.12600 0.92730 -0.03300
C 	C 	0.76426 0.16800 0.89571 -0.17100
H 	H 	0.77830 0.16240 0.87420 0.09100
N 	N 	0.71670 0.26410 0.82760 -0.17100
N 	N 	0.73930 0.24190 0.80850 -0.13100
N 	N 	0.75060 0.21450 0.82980 -0.08900
N 	N 	0.71530 0.25070 0.86280 -0.11500
C 	C 	0.23600 0.72040 0.36320 0.07900
C 	C 	0.24005 0.69782 0.39564 0.08600
C 	C 	0.21952 0.70596 0.42710 -0.18200
H 	H 	0.20300 0.72630 0.42700 0.08400
C 	C 	0.22321 0.68430 0.45856 0.16200
H 	H 	0.20920 0.68990 0.48000 -0.04300
C 	C 	0.24742 0.65447 0.45863 -0.36600
C 	C 	0.26795 0.64633 0.42720 0.16500
H 	H 	0.28450 0.62600 0.42730 -0.03900
C 	C 	0.26426 0.66800 0.39571 -0.18100
H 	H 	0.27830 0.66240 0.37420 0.09400
N 	N 	0.21670 0.76410 0.32760 -0.17100
N 	N 	0.23930 0.74190 0.30850 -0.13100
N 	N 	0.25060 0.71450 0.32980 -0.08900
N 	N 	0.21530 0.75070 0.36280 -0.11600
C 	C 	0.76400 0.77960 0.36320 0.07900
C 	C 	0.75995 0.80218 0.39564 0.08600
C 	C 	0.78048 0.79404 0.42710 -0.18100
H 	H 	0.79700 0.77370 0.42700 0.08500
C 	C 	0.77679 0.81570 0.45856 0.16200
H 	H 	0.79080 0.81010 0.48000 -0.04200
C 	C 	0.75258 0.84553 0.45863 -0.36500
C 	C 	0.73205 0.85367 0.42720 0.16500
H 	H 	0.71550 0.87400 0.42730 -0.03800
C 	C 	0.73574 0.83200 0.39571 -0.18100
H 	H 	0.72170 0.83760 0.37420 0.09500
N 	N 	0.78330 0.73590 0.32760 -0.17100
N 	N 	0.76070 0.75810 0.30850 -0.13100
N 	N 	0.74940 0.78550 0.32980 -0.08900
N 	N 	0.78470 0.74930 0.36280 -0.11500
C 	C 	0.26400 0.27960 0.86320 0.08200
C 	C 	0.25995 0.30218 0.89564 0.07900
C 	C 	0.28048 0.29404 0.92710 -0.17100
H 	H 	0.29700 0.27370 0.92700 0.08200
C 	C 	0.27679 0.31570 0.95856 0.14800
H 	H 	0.29080 0.31010 0.98000 -0.03300
C 	C 	0.25258 0.34553 0.95863 -0.34000
C 	C 	0.23205 0.35367 0.92720 0.15000
H 	H 	0.21550 0.37400 0.92730 -0.03300
C 	C 	0.23574 0.33200 0.89571 -0.17100
H 	H 	0.22170 0.33760 0.87420 0.09100
N 	N 	0.28330 0.23590 0.82760 -0.17100
N 	N 	0.26070 0.25810 0.80850 -0.13100
N 	N 	0.24940 0.28550 0.82980 -0.08900
N 	N 	0.28470 0.24930 0.86280 -0.11600
C 	C 	0.77960 0.36320 0.76400 0.07900
C 	C 	0.80218 0.39564 0.75995 0.08600
C 	C 	0.79404 0.42710 0.78048 -0.18100
H 	H 	0.77370 0.42700 0.79700 0.08500
C 	C 	0.81570 0.45856 0.77679 0.16200
H 	H 	0.81010 0.48000 0.79080 -0.04200
C 	C 	0.84553 0.45863 0.75258 -0.36500
C 	C 	0.85367 0.42720 0.73205 0.16500
H 	H 	0.87400 0.42730 0.71550 -0.03800
C 	C 	0.83200 0.39571 0.73574 -0.18100
H 	H 	0.83760 0.37420 0.72170 0.09500
N 	N 	0.73590 0.32760 0.78330 -0.17100
N 	N 	0.75810 0.30850 0.76070 -0.13100
N 	N 	0.78550 0.32980 0.74940 -0.08900
N 	N 	0.74930 0.36280 0.78470 -0.11500
C 	C 	0.27960 0.86320 0.26400 0.08200
C 	C 	0.30218 0.89564 0.25995 0.07900
C 	C 	0.29404 0.92710 0.28048 -0.17100
H 	H 	0.27370 0.92700 0.29700 0.08200
C 	C 	0.31570 0.95856 0.27679 0.14800
H 	H 	0.31010 0.98000 0.29080 -0.03300
C 	C 	0.34553 0.95863 0.25258 -0.34000
C 	C 	0.35367 0.92720 0.23205 0.15000
H 	H 	0.37400 0.92730 0.21550 -0.03300
C 	C 	0.33200 0.89571 0.23574 -0.17100
H 	H 	0.33760 0.87420 0.22170 0.09100
N 	N 	0.23590 0.82760 0.28330 -0.17100
N 	N 	0.25810 0.80850 0.26070 -0.13100
N 	N 	0.28550 0.82980 0.24940 -0.08900
N 	N 	0.24930 0.86280 0.28470 -0.11600
C 	C 	0.22040 0.86320 0.73600 0.08200
C 	C 	0.19782 0.89564 0.74005 0.07900
C 	C 	0.20596 0.92710 0.71952 -0.17100
H 	H 	0.22630 0.92700 0.70300 0.08200
C 	C 	0.18430 0.95856 0.72321 0.14900
H 	H 	0.18990 0.98000 0.70920 -0.03400
C 	C 	0.15447 0.95863 0.74742 -0.34100
C 	C 	0.14633 0.92720 0.76795 0.15100
H 	H 	0.12600 0.92730 0.78450 -0.03300
C 	C 	0.16800 0.89571 0.76426 -0.17100
H 	H 	0.16240 0.87420 0.77830 0.09100
N 	N 	0.26410 0.82760 0.71670 -0.17100
N 	N 	0.24190 0.80850 0.73930 -0.13100
N 	N 	0.21450 0.82980 0.75060 -0.08900
N 	N 	0.25070 0.86280 0.71530 -0.11500
C 	C 	0.72040 0.36320 0.23600 0.07900
C 	C 	0.69782 0.39564 0.24005 0.08600
C 	C 	0.70596 0.42710 0.21952 -0.18200
H 	H 	0.72630 0.42700 0.20300 0.08400
C 	C 	0.68430 0.45856 0.22321 0.16200
H 	H 	0.68990 0.48000 0.20920 -0.04300
C 	C 	0.65447 0.45863 0.24742 -0.36600
C 	C 	0.64633 0.42720 0.26795 0.16500
H 	H 	0.62600 0.42730 0.28450 -0.03900
C 	C 	0.66800 0.39571 0.26426 -0.18100
H 	H 	0.66240 0.37420 0.27830 0.09400
N 	N 	0.76410 0.32760 0.21670 -0.17100
N 	N 	0.74190 0.30850 0.23930 -0.13100
N 	N 	0.71450 0.32980 0.25060 -0.08900
N 	N 	0.75070 0.36280 0.21530 -0.11600
C 	C 	0.72040 0.63680 0.26400 0.07900
C 	C 	0.69782 0.60436 0.25995 0.08600
C 	C 	0.70596 0.57290 0.28048 -0.18200
H 	H 	0.72630 0.57300 0.29700 0.08400
C 	C 	0.68430 0.54144 0.27679 0.16200
H 	H 	0.68990 0.52000 0.29080 -0.04200
C 	C 	0.65447 0.54137 0.25258 -0.36600
C 	C 	0.64633 0.57280 0.23205 0.16500
H 	H 	0.62600 0.57270 0.21550 -0.03900
C 	C 	0.66800 0.60429 0.23574 -0.18100
H 	H 	0.66240 0.62580 0.22170 0.09400
N 	N 	0.76410 0.67240 0.28330 -0.17100
N 	N 	0.74190 0.69150 0.26070 -0.13100
N 	N 	0.71450 0.67020 0.24940 -0.08900
N 	N 	0.75070 0.63720 0.28470 -0.11500
C 	C 	0.22040 0.13680 0.76400 0.08000
C 	C 	0.19782 0.10436 0.75995 0.08100
C 	C 	0.20596 0.07290 0.78048 -0.17600
H 	H 	0.22630 0.07300 0.79700 0.08100
C 	C 	0.18430 0.04144 0.77679 0.15300
H 	H 	0.18990 0.02000 0.79080 -0.04200
C 	C 	0.15447 0.04137 0.75258 -0.35200
C 	C 	0.14633 0.07280 0.73205 0.15500
H 	H 	0.12600 0.07270 0.71550 -0.03600
C 	C 	0.16800 0.10429 0.73574 -0.17600
H 	H 	0.16240 0.12580 0.72170 0.09200
N 	N 	0.26410 0.17240 0.78330 -0.17100
N 	N 	0.24190 0.19150 0.76070 -0.13100
N 	N 	0.21450 0.17020 0.74940 -0.08900
N 	N 	0.25070 0.13720 0.78470 -0.11600
C 	C 	0.27960 0.13680 0.23600 0.08000
C 	C 	0.30218 0.10436 0.24005 0.08000
C 	C 	0.29404 0.07290 0.21952 -0.17600
H 	H 	0.27370 0.07300 0.20300 0.08000
C 	C 	0.31570 0.04144 0.22321 0.15200
H 	H 	0.31010 0.02000 0.20920 -0.04200
C 	C 	0.34553 0.04137 0.24742 -0.35200
C 	C 	0.35367 0.07280 0.26795 0.15500
H 	H 	0.37400 0.07270 0.28450 -0.03500
C 	C 	0.33200 0.10429 0.26426 -0.17500
H 	H 	0.33760 0.12580 0.27830 0.09200
N 	N 	0.23590 0.17240 0.21670 -0.17200
N 	N 	0.25810 0.19150 0.23930 -0.13100
N 	N 	0.28550 0.17020 0.25060 -0.08900
N 	N 	0.24930 0.13720 0.21530 -0.11700
C 	C 	0.77960 0.63680 0.73600 0.07900
C 	C 	0.80218 0.60436 0.74005 0.08600
C 	C 	0.79404 0.57290 0.71952 -0.18100
H 	H 	0.77370 0.57300 0.70300 0.08400
C 	C 	0.81570 0.54144 0.72321 0.16200
H 	H 	0.81010 0.52000 0.70920 -0.04200
C 	C 	0.84553 0.54137 0.74742 -0.36500
C 	C 	0.85367 0.57280 0.76795 0.16500
H 	H 	0.87400 0.57270 0.78450 -0.03800
C 	C 	0.83200 0.60429 0.76426 -0.18100
H 	H 	0.83760 0.62580 0.77830 0.09500
N 	N 	0.73590 0.67240 0.71670 -0.17100
N 	N 	0.75810 0.69150 0.73930 -0.13100
N 	N 	0.78550 0.67020 0.75060 -0.08900
N 	N 	0.74930 0.63720 0.71530 -0.11600
C 	C 	0.86320 0.73600 0.22040 0.08200
C 	C 	0.89564 0.74005 0.19782 0.07900
C 	C 	0.92710 0.71952 0.20596 -0.17100
H 	H 	0.92700 0.70300 0.22630 0.08200
C 	C 	0.95856 0.72321 0.18430 0.14900
H 	H 	0.98000 0.70920 0.18990 -0.03400
C 	C 	0.95863 0.74742 0.15447 -0.34100
C 	C 	0.92720 0.76795 0.14633 0.15100
H 	H 	0.92730 0.78450 0.12600 -0.03300
C 	C 	0.89571 0.76426 0.16800 -0.17100
H 	H 	0.87420 0.77830 0.16240 0.09100
N 	N 	0.82760 0.71670 0.26410 -0.17100
N 	N 	0.80850 0.73930 0.24190 -0.13100
N 	N 	0.82980 0.75060 0.21450 -0.08900
N 	N 	0.86280 0.71530 0.25070 -0.11500
C 	C 	0.36320 0.23600 0.72040 0.07900
C 	C 	0.39564 0.24005 0.69782 0.08600
C 	C 	0.42710 0.21952 0.70596 -0.18200
H 	H 	0.42700 0.20300 0.72630 0.08400
C 	C 	0.45856 0.22321 0.68430 0.16200
H 	H 	0.48000 0.20920 0.68990 -0.04300
C 	C 	0.45863 0.24742 0.65447 -0.36600
C 	C 	0.42720 0.26795 0.64633 0.16500
H 	H 	0.42730 0.28450 0.62600 -0.03900
C 	C 	0.39571 0.26426 0.66800 -0.18100
H 	H 	0.37420 0.27830 0.66240 0.09400
N 	N 	0.32760 0.21670 0.76410 -0.17100
N 	N 	0.30850 0.23930 0.74190 -0.13100
N 	N 	0.32980 0.25060 0.71450 -0.08900
N 	N 	0.36280 0.21530 0.75070 -0.11600
C 	C 	0.36320 0.76400 0.77960 0.07900
C 	C 	0.39564 0.75995 0.80218 0.08600
C 	C 	0.42710 0.78048 0.79404 -0.18100
H 	H 	0.42700 0.79700 0.77370 0.08500
C 	C 	0.45856 0.77679 0.81570 0.16200
H 	H 	0.48000 0.79080 0.81010 -0.04200
C 	C 	0.45863 0.75258 0.84553 -0.36500
C 	C 	0.42720 0.73205 0.85367 0.16500
H 	H 	0.42730 0.71550 0.87400 -0.03800
C 	C 	0.39571 0.73574 0.83200 -0.18100
H 	H 	0.37420 0.72170 0.83760 0.09500
N 	N 	0.32760 0.78330 0.73590 -0.17100
N 	N 	0.30850 0.76070 0.75810 -0.13100
N 	N 	0.32980 0.74940 0.78550 -0.08900
N 	N 	0.36280 0.78470 0.74930 -0.11500
C 	C 	0.86320 0.26400 0.27960 0.08200
C 	C 	0.89564 0.25995 0.30218 0.07900
C 	C 	0.92710 0.28048 0.29404 -0.17100
H 	H 	0.92700 0.29700 0.27370 0.08200
C 	C 	0.95856 0.27679 0.31570 0.14800
H 	H 	0.98000 0.29080 0.31010 -0.03300
C 	C 	0.95863 0.25258 0.34553 -0.34000
C 	C 	0.92720 0.23205 0.35367 0.15000
H 	H 	0.92730 0.21550 0.37400 -0.03300
C 	C 	0.89571 0.23574 0.33200 -0.17100
H 	H 	0.87420 0.22170 0.33760 0.09100
N 	N 	0.82760 0.28330 0.23590 -0.17100
N 	N 	0.80850 0.26070 0.25810 -0.13100
N 	N 	0.82980 0.24940 0.28550 -0.08900
N 	N 	0.86280 0.28470 0.24930 -0.11600
C 	C 	0.13680 0.23600 0.27960 0.08000
C 	C 	0.10436 0.24005 0.30218 0.08000
C 	C 	0.07290 0.21952 0.29404 -0.17600
H 	H 	0.07300 0.20300 0.27370 0.08000
C 	C 	0.04144 0.22321 0.31570 0.15200
H 	H 	0.02000 0.20920 0.31010 -0.04200
C 	C 	0.04137 0.24742 0.34553 -0.35200
C 	C 	0.07280 0.26795 0.35367 0.15500
H 	H 	0.07270 0.28450 0.37400 -0.03500
C 	C 	0.10429 0.26426 0.33200 -0.17500
H 	H 	0.12580 0.27830 0.33760 0.09200
N 	N 	0.17240 0.21670 0.23590 -0.17200
N 	N 	0.19150 0.23930 0.25810 -0.13100
N 	N 	0.17020 0.25060 0.28550 -0.08900
N 	N 	0.13720 0.21530 0.24930 -0.11700
C 	C 	0.63680 0.73600 0.77960 0.07900
C 	C 	0.60436 0.74005 0.80218 0.08600
C 	C 	0.57290 0.71952 0.79404 -0.18100
H 	H 	0.57300 0.70300 0.77370 0.08400
C 	C 	0.54144 0.72321 0.81570 0.16200
H 	H 	0.52000 0.70920 0.81010 -0.04200
C 	C 	0.54137 0.74742 0.84553 -0.36500
C 	C 	0.57280 0.76795 0.85367 0.16500
H 	H 	0.57270 0.78450 0.87400 -0.03800
C 	C 	0.60429 0.76426 0.83200 -0.18100
H 	H 	0.62580 0.77830 0.83760 0.09500
N 	N 	0.67240 0.71670 0.73590 -0.17100
N 	N 	0.69150 0.73930 0.75810 -0.13100
N 	N 	0.67020 0.75060 0.78550 -0.08900
N 	N 	0.63720 0.71530 0.74930 -0.11600
C 	C 	0.63680 0.26400 0.72040 0.07900
C 	C 	0.60436 0.25995 0.69782 0.08600
C 	C 	0.57290 0.28048 0.70596 -0.18200
H 	H 	0.57300 0.29700 0.72630 0.08400
C 	C 	0.54144 0.27679 0.68430 0.16200
H 	H 	0.52000 0.29080 0.68990 -0.04200
C 	C 	0.54137 0.25258 0.65447 -0.36600
C 	C 	0.57280 0.23205 0.64633 0.16500
H 	H 	0.57270 0.21550 0.62600 -0.03900
C 	C 	0.60429 0.23574 0.66800 -0.18100
H 	H 	0.62580 0.22170 0.66240 0.09400
N 	N 	0.67240 0.28330 0.76410 -0.17100
N 	N 	0.69150 0.26070 0.74190 -0.13100
N 	N 	0.67020 0.24940 0.71450 -0.08900
N 	N 	0.63720 0.28470 0.75070 -0.11500
C 	C 	0.13680 0.76400 0.22040 0.08000
C 	C 	0.10436 0.75995 0.19782 0.08100
C 	C 	0.07290 0.78048 0.20596 -0.17600
H 	H 	0.07300 0.79700 0.22630 0.08100
C 	C 	0.04144 0.77679 0.18430 0.15300
H 	H 	0.02000 0.79080 0.18990 -0.04200
C 	C 	0.04137 0.75258 0.15447 -0.35200
C 	C 	0.07280 0.73205 0.14633 0.15500
H 	H 	0.07270 0.71550 0.12600 -0.03600
C 	C 	0.10429 0.73574 0.16800 -0.17600
H 	H 	0.12580 0.72170 0.16240 0.09200
N 	N 	0.17240 0.78330 0.26410 -0.17100
N 	N 	0.19150 0.76070 0.24190 -0.13100
N 	N 	0.17020 0.74940 0.21450 -0.08900
N 	N 	0.13720 0.78470 0.25070 -0.11600
C 	C 	0.97040 0.51400 0.88680 0.08900
C 	C 	0.94782 0.50995 0.85436 0.08400
C 	C 	0.95596 0.53048 0.82290 -0.17900
H 	H 	0.97630 0.54700 0.82300 0.08600
C 	C 	0.93430 0.52679 0.79144 0.16200
H 	H 	0.93990 0.54080 0.77000 -0.04100
C 	C 	0.90447 0.50258 0.79137 -0.36400
C 	C 	0.89633 0.48205 0.82280 0.16400
H 	H 	0.87600 0.46550 0.82270 -0.03800
C 	C 	0.91800 0.48574 0.85429 -0.17900
H 	H 	0.91240 0.47170 0.87580 0.09500
N 	N 	0.01410 0.53330 0.92240 -0.17500
N 	N 	0.99190 0.51070 0.94150 -0.12200
N 	N 	0.96450 0.49940 0.92020 -0.08800
N 	N 	0.00070 0.53470 0.88720 -0.12300
C 	C 	0.47040 0.01400 0.38680 0.07300
C 	C 	0.44782 0.00995 0.35436 0.07200
C 	C 	0.45596 0.03048 0.32290 -0.17600
H 	H 	0.47630 0.04700 0.32300 0.08100
C 	C 	0.43430 0.02679 0.29144 0.15500
H 	H 	0.43990 0.04080 0.27000 -0.04100
C 	C 	0.40447 0.00258 0.29137 -0.36400
C 	C 	0.39633 0.98205 0.32280 0.16800
H 	H 	0.37600 0.96550 0.32270 -0.03700
C 	C 	0.41800 0.98574 0.35429 -0.16500
H 	H 	0.41240 0.97170 0.37580 0.09200
N 	N 	0.51410 0.03330 0.42240 -0.17200
N 	N 	0.49190 0.01070 0.44150 -0.13700
N 	N 	0.46450 0.99940 0.42020 -0.07900
N 	N 	0.50070 0.03470 0.38720 -0.11600
C 	C 	0.52960 0.48600 0.38680 0.07900
C 	C 	0.55218 0.49005 0.35436 0.08600
C 	C 	0.54404 0.46952 0.32290 -0.18200
H 	H 	0.52370 0.45300 0.32300 0.08400
C 	C 	0.56570 0.47321 0.29144 0.16200
H 	H 	0.56010 0.45920 0.27000 -0.04200
C 	C 	0.59553 0.49742 0.29137 -0.36600
C 	C 	0.60367 0.51795 0.32280 0.16500
H 	H 	0.62400 0.53450 0.32270 -0.03900
C 	C 	0.58200 0.51426 0.35429 -0.18100
H 	H 	0.58760 0.52830 0.37580 0.09400
N 	N 	0.48590 0.46670 0.42240 -0.17100
N 	N 	0.50810 0.48930 0.44150 -0.13100
N 	N 	0.53550 0.50060 0.42020 -0.08900
N 	N 	0.49930 0.46530 0.38720 -0.11600
C 	C 	0.02960 0.98600 0.88680 0.07900
C 	C 	0.05218 0.99005 0.85436 0.09100
C 	C 	0.04404 0.96952 0.82290 -0.17400
H 	H 	0.02370 0.95300 0.82300 0.08000
C 	C 	0.06570 0.97321 0.79144 0.14700
H 	H 	0.06010 0.95920 0.77000 -0.03600
C 	C 	0.09553 0.99742 0.79137 -0.33000
C 	C 	0.10367 0.01795 0.82280 0.13900
H 	H 	0.12400 0.03450 0.82270 -0.03100
C 	C 	0.08200 0.01426 0.85429 -0.18400
H 	H 	0.08760 0.02830 0.87580 0.09300
N 	N 	0.98590 0.96670 0.92240 -0.16500
N 	N 	0.00810 0.98930 0.94150 -0.12800
N 	N 	0.03550 0.00060 0.92020 -0.09800
N 	N 	0.99930 0.96530 0.88720 -0.10800
C 	C 	0.02960 0.01400 0.61320 0.06300
C 	C 	0.05218 0.00995 0.64564 0.07500
C 	C 	0.04404 0.03048 0.67710 -0.17900
H 	H 	0.02370 0.04700 0.67700 0.08000
C 	C 	0.06570 0.02679 0.70856 0.15600
H 	H 	0.06010 0.04080 0.73000 -0.04300
C 	C 	0.09553 0.00258 0.70863 -0.36600
C 	C 	0.10367 0.98205 0.67720 0.17000
H 	H 	0.12400 0.96550 0.67730 -0.03800
C 	C 	0.08200 0.98574 0.64571 -0.16800
H 	H 	0.08760 0.97170 0.62420 0.09200
N 	N 	0.98590 0.03330 0.57760 -0.16700
N 	N 	0.00810 0.01070 0.55850 -0.14300
N 	N 	0.03550 0.99940 0.57980 -0.07800
N 	N 	0.99930 0.03470 0.61280 -0.10800
C 	C 	0.52960 0.51400 0.11320 0.07900
C 	C 	0.55218 0.50995 0.14564 0.08500
C 	C 	0.54404 0.53048 0.17710 -0.18100
H 	H 	0.52370 0.54700 0.17700 0.08400
C 	C 	0.56570 0.52679 0.20856 0.16200
H 	H 	0.56010 0.54080 0.23000 -0.04200
C 	C 	0.59553 0.50258 0.20863 -0.36500
C 	C 	0.60367 0.48205 0.17720 0.16400
H 	H 	0.62400 0.46550 0.17730 -0.03900
C 	C 	0.58200 0.48574 0.14571 -0.18100
H 	H 	0.58760 0.47170 0.12420 0.09300
N 	N 	0.48590 0.53330 0.07760 -0.17200
N 	N 	0.50810 0.51070 0.05850 -0.13200
N 	N 	0.53550 0.49940 0.07980 -0.09000
N 	N 	0.49930 0.53470 0.11280 -0.11600
C 	C 	0.47040 0.98600 0.11320 0.08800
C 	C 	0.44782 0.99005 0.14564 0.08700
C 	C 	0.45596 0.96952 0.17710 -0.17100
H 	H 	0.47630 0.95300 0.17700 0.08100
C 	C 	0.43430 0.97321 0.20856 0.14500
H 	H 	0.43990 0.95920 0.23000 -0.03400
C 	C 	0.40447 0.99742 0.20863 -0.32800
C 	C 	0.39633 0.01795 0.17720 0.13700
H 	H 	0.37600 0.03450 0.17730 -0.03100
C 	C 	0.41800 0.01426 0.14571 -0.18100
H 	H 	0.41240 0.02830 0.12420 0.09000
N 	N 	0.51410 0.96670 0.07760 -0.17100
N 	N 	0.49190 0.98930 0.05850 -0.12600
N 	N 	0.46450 0.00060 0.07980 -0.10100
N 	N 	0.50070 0.96530 0.11280 -0.11600
C 	C 	0.97040 0.48600 0.61320 0.08900
C 	C 	0.94782 0.49005 0.64564 0.08300
C 	C 	0.95596 0.46952 0.67710 -0.17800
H 	H 	0.97630 0.45300 0.67700 0.08600
C 	C 	0.93430 0.47321 0.70856 0.16100
H 	H 	0.93990 0.45920 0.73000 -0.04100
C 	C 	0.90447 0.49742 0.70863 -0.36400
C 	C 	0.89633 0.51795 0.67720 0.16400
H 	H 	0.87600 0.53450 0.67730 -0.03800
C 	C 	0.91800 0.51426 0.64571 -0.17900
H 	H 	0.91240 0.52830 0.62420 0.09400
N 	N 	0.01410 0.46670 0.57760 -0.17600
N 	N 	0.99190 0.48930 0.55850 -0.12400
N 	N 	0.96450 0.50060 0.57980 -0.08900
N 	N 	0.00070 0.46530 0.61280 -0.12400
C 	C 	0.88680 0.97040 0.51400 0.08900
C 	C 	0.85436 0.94782 0.50995 0.08400
C 	C 	0.82290 0.95596 0.53048 -0.17900
H 	H 	0.82300 0.97630 0.54700 0.08600
C 	C 	0.79144 0.93430 0.52679 0.16200
H 	H 	0.77000 0.93990 0.54080 -0.04100
C 	C 	0.79137 0.90447 0.50258 -0.36400
C 	C 	0.82280 0.89633 0.48205 0.16400
H 	H 	0.82270 0.87600 0.46550 -0.03800
C 	C 	0.85429 0.91800 0.48574 -0.17900
H 	H 	0.87580 0.91240 0.47170 0.09500
N 	N 	0.92240 0.01410 0.53330 -0.17500
N 	N 	0.94150 0.99190 0.51070 -0.12200
N 	N 	0.92020 0.96450 0.49940 -0.08800
N 	N 	0.88720 0.00070 0.53470 -0.12300
C 	C 	0.38680 0.47040 0.01400 0.07300
C 	C 	0.35436 0.44782 0.00995 0.07200
C 	C 	0.32290 0.45596 0.03048 -0.17600
H 	H 	0.32300 0.47630 0.04700 0.08100
C 	C 	0.29144 0.43430 0.02679 0.15500
H 	H 	0.27000 0.43990 0.04080 -0.04100
C 	C 	0.29137 0.40447 0.00258 -0.36400
C 	C 	0.32280 0.39633 0.98205 0.16800
H 	H 	0.32270 0.37600 0.96550 -0.03700
C 	C 	0.35429 0.41800 0.98574 -0.16500
H 	H 	0.37580 0.41240 0.97170 0.09200
N 	N 	0.42240 0.51410 0.03330 -0.17200
N 	N 	0.44150 0.49190 0.01070 -0.13700
N 	N 	0.42020 0.46450 0.99940 -0.07900
N 	N 	0.38720 0.50070 0.03470 -0.11600
C 	C 	0.38680 0.52960 0.48600 0.07900
C 	C 	0.35436 0.55218 0.49005 0.08600
C 	C 	0.32290 0.54404 0.46952 -0.18200
H 	H 	0.32300 0.52370 0.45300 0.08400
C 	C 	0.29144 0.56570 0.47321 0.16200
H 	H 	0.27000 0.56010 0.45920 -0.04200
C 	C 	0.29137 0.59553 0.49742 -0.36600
C 	C 	0.32280 0.60367 0.51795 0.16500
H 	H 	0.32270 0.62400 0.53450 -0.03900
C 	C 	0.35429 0.58200 0.51426 -0.18100
H 	H 	0.37580 0.58760 0.52830 0.09400
N 	N 	0.42240 0.48590 0.46670 -0.17100
N 	N 	0.44150 0.50810 0.48930 -0.13100
N 	N 	0.42020 0.53550 0.50060 -0.08900
N 	N 	0.38720 0.49930 0.46530 -0.11600
C 	C 	0.88680 0.02960 0.98600 0.07900
C 	C 	0.85436 0.05218 0.99005 0.09100
C 	C 	0.82290 0.04404 0.96952 -0.17400
H 	H 	0.82300 0.02370 0.95300 0.08000
C 	C 	0.79144 0.06570 0.97321 0.14700
H 	H 	0.77000 0.06010 0.95920 -0.03600
C 	C 	0.79137 0.09553 0.99742 -0.33000
C 	C 	0.82280 0.10367 0.01795 0.13900
H 	H 	0.82270 0.12400 0.03450 -0.03100
C 	C 	0.85429 0.08200 0.01426 -0.18400
H 	H 	0.87580 0.08760 0.02830 0.09300
N 	N 	0.92240 0.98590 0.96670 -0.16500
N 	N 	0.94150 0.00810 0.98930 -0.12800
N 	N 	0.92020 0.03550 0.00060 -0.09800
N 	N 	0.88720 0.99930 0.96530 -0.10800
C 	C 	0.61320 0.02960 0.01400 0.06300
C 	C 	0.64564 0.05218 0.00995 0.07500
C 	C 	0.67710 0.04404 0.03048 -0.17900
H 	H 	0.67700 0.02370 0.04700 0.08000
C 	C 	0.70856 0.06570 0.02679 0.15600
H 	H 	0.73000 0.06010 0.04080 -0.04300
C 	C 	0.70863 0.09553 0.00258 -0.36600
C 	C 	0.67720 0.10367 0.98205 0.17000
H 	H 	0.67730 0.12400 0.96550 -0.03800
C 	C 	0.64571 0.08200 0.98574 -0.16800
H 	H 	0.62420 0.08760 0.97170 0.09200
N 	N 	0.57760 0.98590 0.03330 -0.16700
N 	N 	0.55850 0.00810 0.01070 -0.14300
N 	N 	0.57980 0.03550 0.99940 -0.07800
N 	N 	0.61280 0.99930 0.03470 -0.10800
C 	C 	0.11320 0.52960 0.51400 0.07900
C 	C 	0.14564 0.55218 0.50995 0.08500
C 	C 	0.17710 0.54404 0.53048 -0.18100
H 	H 	0.17700 0.52370 0.54700 0.08400
C 	C 	0.20856 0.56570 0.52679 0.16200
H 	H 	0.23000 0.56010 0.54080 -0.04200
C 	C 	0.20863 0.59553 0.50258 -0.36500
C 	C 	0.17720 0.60367 0.48205 0.16400
H 	H 	0.17730 0.62400 0.46550 -0.03900
C 	C 	0.14571 0.58200 0.48574 -0.18100
H 	H 	0.12420 0.58760 0.47170 0.09300
N 	N 	0.07760 0.48590 0.53330 -0.17200
N 	N 	0.05850 0.50810 0.51070 -0.13200
N 	N 	0.07980 0.53550 0.49940 -0.09000
N 	N 	0.11280 0.49930 0.53470 -0.11600
C 	C 	0.11320 0.47040 0.98600 0.08800
C 	C 	0.14564 0.44782 0.99005 0.08700
C 	C 	0.17710 0.45596 0.96952 -0.17100
H 	H 	0.17700 0.47630 0.95300 0.08100
C 	C 	0.20856 0.43430 0.97321 0.14500
H 	H 	0.23000 0.43990 0.95920 -0.03400
C 	C 	0.20863 0.40447 0.99742 -0.32800
C 	C 	0.17720 0.39633 0.01795 0.13700
H 	H 	0.17730 0.37600 0.03450 -0.03100
C 	C 	0.14571 0.41800 0.01426 -0.18100
H 	H 	0.12420 0.41240 0.02830 0.09000
N 	N 	0.07760 0.51410 0.96670 -0.17100
N 	N 	0.05850 0.49190 0.98930 -0.12600
N 	N 	0.07980 0.46450 0.00060 -0.10100
N 	N 	0.11280 0.50070 0.96530 -0.11600
C 	C 	0.61320 0.97040 0.48600 0.08900
C 	C 	0.64564 0.94782 0.49005 0.08300
C 	C 	0.67710 0.95596 0.46952 -0.17800
H 	H 	0.67700 0.97630 0.45300 0.08600
C 	C 	0.70856 0.93430 0.47321 0.16100
H 	H 	0.73000 0.93990 0.45920 -0.04100
C 	C 	0.70863 0.90447 0.49742 -0.36400
C 	C 	0.67720 0.89633 0.51795 0.16400
H 	H 	0.67730 0.87600 0.53450 -0.03800
C 	C 	0.64571 0.91800 0.51426 -0.17900
H 	H 	0.62420 0.91240 0.52830 0.09400
N 	N 	0.57760 0.01410 0.46670 -0.17600
N 	N 	0.55850 0.99190 0.48930 -0.12400
N 	N 	0.57980 0.96450 0.50060 -0.08900
N 	N 	0.61280 0.00070 0.46530 -0.12400
C 	C 	0.51400 0.88680 0.97040 0.08900
C 	C 	0.50995 0.85436 0.94782 0.08400
C 	C 	0.53048 0.82290 0.95596 -0.17900
H 	H 	0.54700 0.82300 0.97630 0.08600
C 	C 	0.52679 0.79144 0.93430 0.16200
H 	H 	0.54080 0.77000 0.93990 -0.04100
C 	C 	0.50258 0.79137 0.90447 -0.36400
C 	C 	0.48205 0.82280 0.89633 0.16400
H 	H 	0.46550 0.82270 0.87600 -0.03800
C 	C 	0.48574 0.85429 0.91800 -0.17900
H 	H 	0.47170 0.87580 0.91240 0.09500
N 	N 	0.53330 0.92240 0.01410 -0.17500
N 	N 	0.51070 0.94150 0.99190 -0.12200
N 	N 	0.49940 0.92020 0.96450 -0.08800
N 	N 	0.53470 0.88720 0.00070 -0.12300
C 	C 	0.01400 0.38680 0.47040 0.07300
C 	C 	0.00995 0.35436 0.44782 0.07200
C 	C 	0.03048 0.32290 0.45596 -0.17600
H 	H 	0.04700 0.32300 0.47630 0.08100
C 	C 	0.02679 0.29144 0.43430 0.15500
H 	H 	0.04080 0.27000 0.43990 -0.04100
C 	C 	0.00258 0.29137 0.40447 -0.36400
C 	C 	0.98205 0.32280 0.39633 0.16800
H 	H 	0.96550 0.32270 0.37600 -0.03700
C 	C 	0.98574 0.35429 0.41800 -0.16500
H 	H 	0.97170 0.37580 0.41240 0.09200
N 	N 	0.03330 0.42240 0.51410 -0.17200
N 	N 	0.01070 0.44150 0.49190 -0.13700
N 	N 	0.99940 0.42020 0.46450 -0.07900
N 	N 	0.03470 0.38720 0.50070 -0.11600
C 	C 	0.48600 0.38680 0.52960 0.07900
C 	C 	0.49005 0.35436 0.55218 0.08600
C 	C 	0.46952 0.32290 0.54404 -0.18200
H 	H 	0.45300 0.32300 0.52370 0.08400
C 	C 	0.47321 0.29144 0.56570 0.16200
H 	H 	0.45920 0.27000 0.56010 -0.04200
C 	C 	0.49742 0.29137 0.59553 -0.36600
C 	C 	0.51795 0.32280 0.60367 0.16500
H 	H 	0.53450 0.32270 0.62400 -0.03900
C 	C 	0.51426 0.35429 0.58200 -0.18100
H 	H 	0.52830 0.37580 0.58760 0.09400
N 	N 	0.46670 0.42240 0.48590 -0.17100
N 	N 	0.48930 0.44150 0.50810 -0.13100
N 	N 	0.50060 0.42020 0.53550 -0.08900
N 	N 	0.46530 0.38720 0.49930 -0.11600
C 	C 	0.98600 0.88680 0.02960 0.07900
C 	C 	0.99005 0.85436 0.05218 0.09100
C 	C 	0.96952 0.82290 0.04404 -0.17400
H 	H 	0.95300 0.82300 0.02370 0.08000
C 	C 	0.97321 0.79144 0.06570 0.14700
H 	H 	0.95920 0.77000 0.06010 -0.03600
C 	C 	0.99742 0.79137 0.09553 -0.33000
C 	C 	0.01795 0.82280 0.10367 0.13900
H 	H 	0.03450 0.82270 0.12400 -0.03100
C 	C 	0.01426 0.85429 0.08200 -0.18400
H 	H 	0.02830 0.87580 0.08760 0.09300
N 	N 	0.96670 0.92240 0.98590 -0.16500
N 	N 	0.98930 0.94150 0.00810 -0.12800
N 	N 	0.00060 0.92020 0.03550 -0.09800
N 	N 	0.96530 0.88720 0.99930 -0.10800
C 	C 	0.01400 0.61320 0.02960 0.06300
C 	C 	0.00995 0.64564 0.05218 0.07500
C 	C 	0.03048 0.67710 0.04404 -0.17900
H 	H 	0.04700 0.67700 0.02370 0.08000
C 	C 	0.02679 0.70856 0.06570 0.15600
H 	H 	0.04080 0.73000 0.06010 -0.04300
C 	C 	0.00258 0.70863 0.09553 -0.36600
C 	C 	0.98205 0.67720 0.10367 0.17000
H 	H 	0.96550 0.67730 0.12400 -0.03800
C 	C 	0.98574 0.64571 0.08200 -0.16800
H 	H 	0.97170 0.62420 0.08760 0.09200
N 	N 	0.03330 0.57760 0.98590 -0.16700
N 	N 	0.01070 0.55850 0.00810 -0.14300
N 	N 	0.99940 0.57980 0.03550 -0.07800
N 	N 	0.03470 0.61280 0.99930 -0.10800
C 	C 	0.51400 0.11320 0.52960 0.07900
C 	C 	0.50995 0.14564 0.55218 0.08500
C 	C 	0.53048 0.17710 0.54404 -0.18100
H 	H 	0.54700 0.17700 0.52370 0.08400
C 	C 	0.52679 0.20856 0.56570 0.16200
H 	H 	0.54080 0.23000 0.56010 -0.04200
C 	C 	0.50258 0.20863 0.59553 -0.36500
C 	C 	0.48205 0.17720 0.60367 0.16400
H 	H 	0.46550 0.17730 0.62400 -0.03900
C 	C 	0.48574 0.14571 0.58200 -0.18100
H 	H 	0.47170 0.12420 0.58760 0.09300
N 	N 	0.53330 0.07760 0.48590 -0.17200
N 	N 	0.51070 0.05850 0.50810 -0.13200
N 	N 	0.49940 0.07980 0.53550 -0.09000
N 	N 	0.53470 0.11280 0.49930 -0.11600
C 	C 	0.98600 0.11320 0.47040 0.08800
C 	C 	0.99005 0.14564 0.44782 0.08700
C 	C 	0.96952 0.17710 0.45596 -0.17100
H 	H 	0.95300 0.17700 0.47630 0.08100
C 	C 	0.97321 0.20856 0.43430 0.14500
H 	H 	0.95920 0.23000 0.43990 -0.03400
C 	C 	0.99742 0.20863 0.40447 -0.32800
C 	C 	0.01795 0.17720 0.39633 0.13700
H 	H 	0.03450 0.17730 0.37600 -0.03100
C 	C 	0.01426 0.14571 0.41800 -0.18100
H 	H 	0.02830 0.12420 0.41240 0.09000
N 	N 	0.96670 0.07760 0.51410 -0.17100
N 	N 	0.98930 0.05850 0.49190 -0.12600
N 	N 	0.00060 0.07980 0.46450 -0.10100
N 	N 	0.96530 0.11280 0.50070 -0.11600
C 	C 	0.48600 0.61320 0.97040 0.08900
C 	C 	0.49005 0.64564 0.94782 0.08300
C 	C 	0.46952 0.67710 0.95596 -0.17800
H 	H 	0.45300 0.67700 0.97630 0.08600
C 	C 	0.47321 0.70856 0.93430 0.16100
H 	H 	0.45920 0.73000 0.93990 -0.04100
C 	C 	0.49742 0.70863 0.90447 -0.36400
C 	C 	0.51795 0.67720 0.89633 0.16400
H 	H 	0.53450 0.67730 0.87600 -0.03800
C 	C 	0.51426 0.64571 0.91800 -0.17900
H 	H 	0.52830 0.62420 0.91240 0.09400
N 	N 	0.46670 0.57760 0.01410 -0.17600
N 	N 	0.48930 0.55850 0.99190 -0.12400
N 	N 	0.50060 0.57980 0.96450 -0.08900
N 	N 	0.46530 0.61280 0.00070 -0.12400
C 	C 	0.76400 0.72040 0.86320 0.08200
C 	C 	0.75995 0.69782 0.89564 0.07900
C 	C 	0.78048 0.70596 0.92710 -0.17100
H 	H 	0.79700 0.72630 0.92700 0.08300
C 	C 	0.77679 0.68430 0.95856 0.14900
H 	H 	0.79080 0.68990 0.98000 -0.03300
C 	C 	0.75258 0.65447 0.95863 -0.34000
C 	C 	0.73205 0.64633 0.92720 0.15100
H 	H 	0.71550 0.62600 0.92730 -0.03200
C 	C 	0.73574 0.66800 0.89571 -0.17100
H 	H 	0.72170 0.66240 0.87420 0.09100
N 	N 	0.78330 0.76410 0.82760 -0.17100
N 	N 	0.76070 0.74190 0.80850 -0.13100
N 	N 	0.74940 0.71450 0.82980 -0.08900
N 	N 	0.78470 0.75070 0.86280 -0.11500
C 	C 	0.26400 0.22040 0.36320 0.07900
C 	C 	0.25995 0.19782 0.39564 0.08600
C 	C 	0.28048 0.20596 0.42710 -0.18200
H 	H 	0.29700 0.22630 0.42700 0.08400
C 	C 	0.27679 0.18430 0.45856 0.16300
H 	H 	0.29080 0.18990 0.48000 -0.04200
C 	C 	0.25258 0.15447 0.45863 -0.36600
C 	C 	0.23205 0.14633 0.42720 0.16500
H 	H 	0.21550 0.12600 0.42730 -0.03900
C 	C 	0.23574 0.16800 0.39571 -0.18100
H 	H 	0.22170 0.16240 0.37420 0.09400
N 	N 	0.28330 0.26410 0.32760 -0.17100
N 	N 	0.26070 0.24190 0.30850 -0.13100
N 	N 	0.24940 0.21450 0.32980 -0.08900
N 	N 	0.28470 0.25070 0.36280 -0.11600
C 	C 	0.73600 0.27960 0.36320 0.07900
C 	C 	0.74005 0.30218 0.39564 0.08600
C 	C 	0.71952 0.29404 0.42710 -0.18200
H 	H 	0.70300 0.27370 0.42700 0.08400
C 	C 	0.72321 0.31570 0.45856 0.16200
H 	H 	0.70920 0.31010 0.48000 -0.04200
C 	C 	0.74742 0.34553 0.45863 -0.36600
C 	C 	0.76795 0.35367 0.42720 0.16500
H 	H 	0.78450 0.37400 0.42730 -0.03800
C 	C 	0.76426 0.33200 0.39571 -0.18100
H 	H 	0.77830 0.33760 0.37420 0.09400
N 	N 	0.71670 0.23590 0.32760 -0.17100
N 	N 	0.73930 0.25810 0.30850 -0.13100
N 	N 	0.75060 0.28550 0.32980 -0.08900
N 	N 	0.71530 0.24930 0.36280 -0.11600
C 	C 	0.23600 0.77960 0.86320 0.08200
C 	C 	0.24005 0.80218 0.89564 0.07900
C 	C 	0.21952 0.79404 0.92710 -0.17100
H 	H 	0.20300 0.77370 0.92700 0.08200
C 	C 	0.22321 0.81570 0.95856 0.14800
H 	H 	0.20920 0.81010 0.98000 -0.03400
C 	C 	0.24742 0.84553 0.95863 -0.34000
C 	C 	0.26795 0.85367 0.92720 0.15100
H 	H 	0.28450 0.87400 0.92730 -0.03200
C 	C 	0.26426 0.83200 0.89571 -0.17100
H 	H 	0.27830 0.83760 0.87420 0.09200
N 	N 	0.21670 0.73590 0.82760 -0.17100
N 	N 	0.23930 0.75810 0.80850 -0.13100
N 	N 	0.25060 0.78550 0.82980 -0.08900
N 	N 	0.21530 0.74930 0.86280 -0.11600
C 	C 	0.26400 0.77960 0.13680 0.08000
C 	C 	0.25995 0.80218 0.10436 0.08100
C 	C 	0.28048 0.79404 0.07290 -0.17600
H 	H 	0.29700 0.77370 0.07300 0.08100
C 	C 	0.27679 0.81570 0.04144 0.15200
H 	H 	0.29080 0.81010 0.02000 -0.04200
C 	C 	0.25258 0.84553 0.04137 -0.35200
C 	C 	0.23205 0.85367 0.07280 0.15500
H 	H 	0.21550 0.87400 0.07270 -0.03500
C 	C 	0.23574 0.83200 0.10429 -0.17500
H 	H 	0.22170 0.83760 0.12580 0.09200
N 	N 	0.28330 0.73590 0.17240 -0.17200
N 	N 	0.26070 0.75810 0.19150 -0.13100
N 	N 	0.24940 0.78550 0.17020 -0.08900
N 	N 	0.28470 0.74930 0.13720 -0.11600
C 	C 	0.76400 0.27960 0.63680 0.07900
C 	C 	0.75995 0.30218 0.60436 0.08600
C 	C 	0.78048 0.29404 0.57290 -0.18100
H 	H 	0.79700 0.27370 0.57300 0.08400
C 	C 	0.77679 0.31570 0.54144 0.16300
H 	H 	0.79080 0.31010 0.52000 -0.04200
C 	C 	0.75258 0.34553 0.54137 -0.36600
C 	C 	0.73205 0.35367 0.57280 0.16500
H 	H 	0.71550 0.37400 0.57270 -0.03900
C 	C 	0.73574 0.33200 0.60429 -0.18100
H 	H 	0.72170 0.33760 0.62580 0.09400
N 	N 	0.78330 0.23590 0.67240 -0.17100
N 	N 	0.76070 0.25810 0.69150 -0.13100
N 	N 	0.74940 0.28550 0.67020 -0.08900
N 	N 	0.78470 0.24930 0.63720 -0.11500
C 	C 	0.23600 0.22040 0.63680 0.07900
C 	C 	0.24005 0.19782 0.60436 0.08500
C 	C 	0.21952 0.20596 0.57290 -0.18200
H 	H 	0.20300 0.22630 0.57300 0.08400
C 	C 	0.22321 0.18430 0.54144 0.16200
H 	H 	0.20920 0.18990 0.52000 -0.04300
C 	C 	0.24742 0.15447 0.54137 -0.36600
C 	C 	0.26795 0.14633 0.57280 0.16500
H 	H 	0.28450 0.12600 0.57270 -0.03900
C 	C 	0.26426 0.16800 0.60429 -0.18100
H 	H 	0.27830 0.16240 0.62580 0.09400
N 	N 	0.21670 0.26410 0.67240 -0.17200
N 	N 	0.23930 0.24190 0.69150 -0.13100
N 	N 	0.25060 0.21450 0.67020 -0.08900
N 	N 	0.21530 0.25070 0.63720 -0.11600
C 	C 	0.73600 0.72040 0.13680 0.08000
C 	C 	0.74005 0.69782 0.10436 0.08100
C 	C 	0.71952 0.70596 0.07290 -0.17600
H 	H 	0.70300 0.72630 0.07300 0.08100
C 	C 	0.72321 0.68430 0.04144 0.15200
H 	H 	0.70920 0.68990 0.02000 -0.04200
C 	C 	0.74742 0.65447 0.04137 -0.35200
C 	C 	0.76795 0.64633 0.07280 0.15500
H 	H 	0.78450 0.62600 0.07270 -0.03500
C 	C 	0.76426 0.66800 0.10429 -0.17500
H 	H 	0.77830 0.66240 0.12580 0.09200
N 	N 	0.71670 0.76410 0.17240 -0.17200
N 	N 	0.73930 0.74190 0.19150 -0.13100
N 	N 	0.75060 0.71450 0.17020 -0.08900
N 	N 	0.71530 0.75070 0.13720 -0.11600
C 	C 	0.22040 0.63680 0.23600 0.07900
C 	C 	0.19782 0.60436 0.24005 0.08500
C 	C 	0.20596 0.57290 0.21952 -0.18200
H 	H 	0.22630 0.57300 0.20300 0.08400
C 	C 	0.18430 0.54144 0.22321 0.16200
H 	H 	0.18990 0.52000 0.20920 -0.04300
C 	C 	0.15447 0.54137 0.24742 -0.36600
C 	C 	0.14633 0.57280 0.26795 0.16500
H 	H 	0.12600 0.57270 0.28450 -0.03900
C 	C 	0.16800 0.60429 0.26426 -0.18100
H 	H 	0.16240 0.62580 0.27830 0.09400
N 	N 	0.26410 0.67240 0.21670 -0.17200
N 	N 	0.24190 0.69150 0.23930 -0.13100
N 	N 	0.21450 0.67020 0.25060 -0.08900
N 	N 	0.25070 0.63720 0.21530 -0.11600
C 	C 	0.72040 0.13680 0.73600 0.08000
C 	C 	0.69782 0.10436 0.74005 0.08100
C 	C 	0.70596 0.07290 0.71952 -0.17600
H 	H 	0.72630 0.07300 0.70300 0.08100
C 	C 	0.68430 0.04144 0.72321 0.15200
H 	H 	0.68990 0.02000 0.70920 -0.04200
C 	C 	0.65447 0.04137 0.74742 -0.35200
C 	C 	0.64633 0.07280 0.76795 0.15500
H 	H 	0.62600 0.07270 0.78450 -0.03500
C 	C 	0.66800 0.10429 0.76426 -0.17500
H 	H 	0.66240 0.12580 0.77830 0.09200
N 	N 	0.76410 0.17240 0.71670 -0.17200
N 	N 	0.74190 0.19150 0.73930 -0.13100
N 	N 	0.71450 0.17020 0.75060 -0.08900
N 	N 	0.75070 0.13720 0.71530 -0.11600
C 	C 	0.77960 0.13680 0.26400 0.08000
C 	C 	0.80218 0.10436 0.25995 0.08100
C 	C 	0.79404 0.07290 0.28048 -0.17600
H 	H 	0.77370 0.07300 0.29700 0.08100
C 	C 	0.81570 0.04144 0.27679 0.15200
H 	H 	0.81010 0.02000 0.29080 -0.04200
C 	C 	0.84553 0.04137 0.25258 -0.35200
C 	C 	0.85367 0.07280 0.23205 0.15500
H 	H 	0.87400 0.07270 0.21550 -0.03500
C 	C 	0.83200 0.10429 0.23574 -0.17500
H 	H 	0.83760 0.12580 0.22170 0.09200
N 	N 	0.73590 0.17240 0.28330 -0.17200
N 	N 	0.75810 0.19150 0.26070 -0.13100
N 	N 	0.78550 0.17020 0.24940 -0.08900
N 	N 	0.74930 0.13720 0.28470 -0.11600
C 	C 	0.27960 0.63680 0.76400 0.07900
C 	C 	0.30218 0.60436 0.75995 0.08600
C 	C 	0.29404 0.57290 0.78048 -0.18100
H 	H 	0.27370 0.57300 0.79700 0.08400
C 	C 	0.31570 0.54144 0.77679 0.16300
H 	H 	0.31010 0.52000 0.79080 -0.04200
C 	C 	0.34553 0.54137 0.75258 -0.36600
C 	C 	0.35367 0.57280 0.73205 0.16500
H 	H 	0.37400 0.57270 0.71550 -0.03900
C 	C 	0.33200 0.60429 0.73574 -0.18100
H 	H 	0.33760 0.62580 0.72170 0.09400
N 	N 	0.23590 0.67240 0.78330 -0.17100
N 	N 	0.25810 0.69150 0.76070 -0.13100
N 	N 	0.28550 0.67020 0.74940 -0.08900
N 	N 	0.24930 0.63720 0.78470 -0.11500
C 	C 	0.27960 0.36320 0.73600 0.07900
C 	C 	0.30218 0.39564 0.74005 0.08600
C 	C 	0.29404 0.42710 0.71952 -0.18200
H 	H 	0.27370 0.42700 0.70300 0.08400
C 	C 	0.31570 0.45856 0.72321 0.16200
H 	H 	0.31010 0.48000 0.70920 -0.04200
C 	C 	0.34553 0.45863 0.74742 -0.36600
C 	C 	0.35367 0.42720 0.76795 0.16500
H 	H 	0.37400 0.42730 0.78450 -0.03800
C 	C 	0.33200 0.39571 0.76426 -0.18100
H 	H 	0.33760 0.37420 0.77830 0.09400
N 	N 	0.23590 0.32760 0.71670 -0.17100
N 	N 	0.25810 0.30850 0.73930 -0.13100
N 	N 	0.28550 0.32980 0.75060 -0.08900
N 	N 	0.24930 0.36280 0.71530 -0.11600
C 	C 	0.77960 0.86320 0.23600 0.08200
C 	C 	0.80218 0.89564 0.24005 0.07900
C 	C 	0.79404 0.92710 0.21952 -0.17100
H 	H 	0.77370 0.92700 0.20300 0.08200
C 	C 	0.81570 0.95856 0.22321 0.14800
H 	H 	0.81010 0.98000 0.20920 -0.03400
C 	C 	0.84553 0.95863 0.24742 -0.34000
C 	C 	0.85367 0.92720 0.26795 0.15100
H 	H 	0.87400 0.92730 0.28450 -0.03200
C 	C 	0.83200 0.89571 0.26426 -0.17100
H 	H 	0.83760 0.87420 0.27830 0.09200
N 	N 	0.73590 0.82760 0.21670 -0.17100
N 	N 	0.75810 0.80850 0.23930 -0.13100
N 	N 	0.78550 0.82980 0.25060 -0.08900
N 	N 	0.74930 0.86280 0.21530 -0.11600
C 	C 	0.72040 0.86320 0.76400 0.08200
C 	C 	0.69782 0.89564 0.75995 0.07900
C 	C 	0.70596 0.92710 0.78048 -0.17100
H 	H 	0.72630 0.92700 0.79700 0.08300
C 	C 	0.68430 0.95856 0.77679 0.14900
H 	H 	0.68990 0.98000 0.79080 -0.03300
C 	C 	0.65447 0.95863 0.75258 -0.34000
C 	C 	0.64633 0.92720 0.73205 0.15100
H 	H 	0.62600 0.92730 0.71550 -0.03200
C 	C 	0.66800 0.89571 0.73574 -0.17100
H 	H 	0.66240 0.87420 0.72170 0.09100
N 	N 	0.76410 0.82760 0.78330 -0.17100
N 	N 	0.74190 0.80850 0.76070 -0.13100
N 	N 	0.71450 0.82980 0.74940 -0.08900
N 	N 	0.75070 0.86280 0.78470 -0.11500
C 	C 	0.22040 0.36320 0.26400 0.07900
C 	C 	0.19782 0.39564 0.25995 0.08600
C 	C 	0.20596 0.42710 0.28048 -0.18200
H 	H 	0.22630 0.42700 0.29700 0.08400
C 	C 	0.18430 0.45856 0.27679 0.16300
H 	H 	0.18990 0.48000 0.29080 -0.04200
C 	C 	0.15447 0.45863 0.25258 -0.36600
C 	C 	0.14633 0.42720 0.23205 0.16500
H 	H 	0.12600 0.42730 0.21550 -0.03900
C 	C 	0.16800 0.39571 0.23574 -0.18100
H 	H 	0.16240 0.37420 0.22170 0.09400
N 	N 	0.26410 0.32760 0.28330 -0.17100
N 	N 	0.24190 0.30850 0.26070 -0.13100
N 	N 	0.21450 0.32980 0.24940 -0.08900
N 	N 	0.25070 0.36280 0.28470 -0.11600
C 	C 	0.13680 0.26400 0.77960 0.08000
C 	C 	0.10436 0.25995 0.80218 0.08100
C 	C 	0.07290 0.28048 0.79404 -0.17600
H 	H 	0.07300 0.29700 0.77370 0.08100
C 	C 	0.04144 0.27679 0.81570 0.15200
H 	H 	0.02000 0.29080 0.81010 -0.04200
C 	C 	0.04137 0.25258 0.84553 -0.35200
C 	C 	0.07280 0.23205 0.85367 0.15500
H 	H 	0.07270 0.21550 0.87400 -0.03500
C 	C 	0.10429 0.23574 0.83200 -0.17500
H 	H 	0.12580 0.22170 0.83760 0.09200
N 	N 	0.17240 0.28330 0.73590 -0.17200
N 	N 	0.19150 0.26070 0.75810 -0.13100
N 	N 	0.17020 0.24940 0.78550 -0.08900
N 	N 	0.13720 0.28470 0.74930 -0.11600
C 	C 	0.63680 0.76400 0.27960 0.07900
C 	C 	0.60436 0.75995 0.30218 0.08600
C 	C 	0.57290 0.78048 0.29404 -0.18100
H 	H 	0.57300 0.79700 0.27370 0.08400
C 	C 	0.54144 0.77679 0.31570 0.16300
H 	H 	0.52000 0.79080 0.31010 -0.04200
C 	C 	0.54137 0.75258 0.34553 -0.36600
C 	C 	0.57280 0.73205 0.35367 0.16500
H 	H 	0.57270 0.71550 0.37400 -0.03900
C 	C 	0.60429 0.73574 0.33200 -0.18100
H 	H 	0.62580 0.72170 0.33760 0.09400
N 	N 	0.67240 0.78330 0.23590 -0.17100
N 	N 	0.69150 0.76070 0.25810 -0.13100
N 	N 	0.67020 0.74940 0.28550 -0.08900
N 	N 	0.63720 0.78470 0.24930 -0.11500
C 	C 	0.63680 0.23600 0.22040 0.07900
C 	C 	0.60436 0.24005 0.19782 0.08500
C 	C 	0.57290 0.21952 0.20596 -0.18200
H 	H 	0.57300 0.20300 0.22630 0.08400
C 	C 	0.54144 0.22321 0.18430 0.16200
H 	H 	0.52000 0.20920 0.18990 -0.04300
C 	C 	0.54137 0.24742 0.15447 -0.36600
C 	C 	0.57280 0.26795 0.14633 0.16500
H 	H 	0.57270 0.28450 0.12600 -0.03900
C 	C 	0.60429 0.26426 0.16800 -0.18100
H 	H 	0.62580 0.27830 0.16240 0.09400
N 	N 	0.67240 0.21670 0.26410 -0.17200
N 	N 	0.69150 0.23930 0.24190 -0.13100
N 	N 	0.67020 0.25060 0.21450 -0.08900
N 	N 	0.63720 0.21530 0.25070 -0.11600
C 	C 	0.13680 0.73600 0.72040 0.08000
C 	C 	0.10436 0.74005 0.69782 0.08100
C 	C 	0.07290 0.71952 0.70596 -0.17600
H 	H 	0.07300 0.70300 0.72630 0.08100
C 	C 	0.04144 0.72321 0.68430 0.15200
H 	H 	0.02000 0.70920 0.68990 -0.04200
C 	C 	0.04137 0.74742 0.65447 -0.35200
C 	C 	0.07280 0.76795 0.64633 0.15500
H 	H 	0.07270 0.78450 0.62600 -0.03500
C 	C 	0.10429 0.76426 0.66800 -0.17500
H 	H 	0.12580 0.77830 0.66240 0.09200
N 	N 	0.17240 0.71670 0.76410 -0.17200
N 	N 	0.19150 0.73930 0.74190 -0.13100
N 	N 	0.17020 0.75060 0.71450 -0.08900
N 	N 	0.13720 0.71530 0.75070 -0.11600
C 	C 	0.86320 0.76400 0.72040 0.08200
C 	C 	0.89564 0.75995 0.69782 0.07900
C 	C 	0.92710 0.78048 0.70596 -0.17100
H 	H 	0.92700 0.79700 0.72630 0.08300
C 	C 	0.95856 0.77679 0.68430 0.14900
H 	H 	0.98000 0.79080 0.68990 -0.03300
C 	C 	0.95863 0.75258 0.65447 -0.34000
C 	C 	0.92720 0.73205 0.64633 0.15100
H 	H 	0.92730 0.71550 0.62600 -0.03200
C 	C 	0.89571 0.73574 0.66800 -0.17100
H 	H 	0.87420 0.72170 0.66240 0.09100
N 	N 	0.82760 0.78330 0.76410 -0.17100
N 	N 	0.80850 0.76070 0.74190 -0.13100
N 	N 	0.82980 0.74940 0.71450 -0.08900
N 	N 	0.86280 0.78470 0.75070 -0.11500
C 	C 	0.36320 0.26400 0.22040 0.07900
C 	C 	0.39564 0.25995 0.19782 0.08600
C 	C 	0.42710 0.28048 0.20596 -0.18200
H 	H 	0.42700 0.29700 0.22630 0.08400
C 	C 	0.45856 0.27679 0.18430 0.16300
H 	H 	0.48000 0.29080 0.18990 -0.04200
C 	C 	0.45863 0.25258 0.15447 -0.36600
C 	C 	0.42720 0.23205 0.14633 0.16500
H 	H 	0.42730 0.21550 0.12600 -0.03900
C 	C 	0.39571 0.23574 0.16800 -0.18100
H 	H 	0.37420 0.22170 0.16240 0.09400
N 	N 	0.32760 0.28330 0.26410 -0.17100
N 	N 	0.30850 0.26070 0.24190 -0.13100
N 	N 	0.32980 0.24940 0.21450 -0.08900
N 	N 	0.36280 0.28470 0.25070 -0.11600
C 	C 	0.36320 0.73600 0.27960 0.07900
C 	C 	0.39564 0.74005 0.30218 0.08600
C 	C 	0.42710 0.71952 0.29404 -0.18200
H 	H 	0.42700 0.70300 0.27370 0.08400
C 	C 	0.45856 0.72321 0.31570 0.16200
H 	H 	0.48000 0.70920 0.31010 -0.04200
C 	C 	0.45863 0.74742 0.34553 -0.36600
C 	C 	0.42720 0.76795 0.35367 0.16500
H 	H 	0.42730 0.78450 0.37400 -0.03800
C 	C 	0.39571 0.76426 0.33200 -0.18100
H 	H 	0.37420 0.77830 0.33760 0.09400
N 	N 	0.32760 0.71670 0.23590 -0.17100
N 	N 	0.30850 0.73930 0.25810 -0.13100
N 	N 	0.32980 0.75060 0.28550 -0.08900
N 	N 	0.36280 0.71530 0.24930 -0.11600
C 	C 	0.86320 0.23600 0.77960 0.08200
C 	C 	0.89564 0.24005 0.80218 0.07900
C 	C 	0.92710 0.21952 0.79404 -0.17100
H 	H 	0.92700 0.20300 0.77370 0.08200
C 	C 	0.95856 0.22321 0.81570 0.14800
H 	H 	0.98000 0.20920 0.81010 -0.03400
C 	C 	0.95863 0.24742 0.84553 -0.34000
C 	C 	0.92720 0.26795 0.85367 0.15100
H 	H 	0.92730 0.28450 0.87400 -0.03200
C 	C 	0.89571 0.26426 0.83200 -0.17100
H 	H 	0.87420 0.27830 0.83760 0.09200
N 	N 	0.82760 0.21670 0.73590 -0.17100
N 	N 	0.80850 0.23930 0.75810 -0.13100
N 	N 	0.82980 0.25060 0.78550 -0.08900
N 	N 	0.86280 0.21530 0.74930 -0.11600
Cu	Cu	0.94043 0.44043 0.05957 0.81200
Cu	Cu	0.44043 0.94043 0.55957 0.81300
Cu	Cu	0.55957 0.55957 0.55957 0.81200
Cu	Cu	0.05957 0.05957 0.05957 0.80900
Cu	Cu	0.05957 0.94043 0.44043 0.81200
Cu	Cu	0.55957 0.44043 0.94043 0.81300
Cu	Cu	0.44043 0.05957 0.94043 0.81200
Cu	Cu	0.94043 0.55957 0.44043 0.81300
Cu	Cu	0.19043 0.19043 0.19043 0.81000
Cu	Cu	0.69043 0.69043 0.69043 0.81200
Cu	Cu	0.30957 0.80957 0.69043 0.81200
Cu	Cu	0.80957 0.30957 0.19043 0.81200
Cu	Cu	0.69043 0.30957 0.80957 0.81200
Cu	Cu	0.19043 0.80957 0.30957 0.81200
Cu	Cu	0.80957 0.69043 0.30957 0.81200
Cu	Cu	0.30957 0.19043 0.80957 0.81200
Cu	Cu	0.05957 0.55957 0.94043 0.81200
Cu	Cu	0.55957 0.05957 0.44043 0.81100
Cu	Cu	0.44043 0.44043 0.44043 0.81200
Cu	Cu	0.94043 0.94043 0.94043 0.81500
Cu	Cu	0.94043 0.05957 0.55957 0.81200
Cu	Cu	0.44043 0.55957 0.05957 0.81100
Cu	Cu	0.55957 0.94043 0.05957 0.81200
Cu	Cu	0.05957 0.44043 0.55957 0.81100
Cu	Cu	0.80957 0.80957 0.80957 0.81300
Cu	Cu	0.30957 0.30957 0.30957 0.81200
Cu	Cu	0.69043 0.19043 0.30957 0.81100
Cu	Cu	0.19043 0.69043 0.80957 0.81200
Cu	Cu	0.30957 0.69043 0.19043 0.81100
Cu	Cu	0.80957 0.19043 0.69043 0.81200
Cu	Cu	0.19043 0.30957 0.69043 0.81100
Cu	Cu	0.69043 0.80957 0.19043 0.81200
Cu	Cu	0.00000 0.50000 -0.00000 0.85500
Cu	Cu	0.50000 0.00000 0.50000 0.86000
Cu	Cu	0.50000 0.50000 0.50000 0.86500
Cu	Cu	-0.00000 0.00000 -0.00000 0.85100
Cu	Cu	0.00000 0.00000 0.50000 0.85500
Cu	Cu	0.50000 0.50000 -0.00000 0.86000
Cu	Cu	0.50000 0.00000 -0.00000 0.85500
Cu	Cu	0.00000 0.50000 0.50000 0.86000
Cu	Cu	0.25000 0.25000 0.25000 0.86500
Cu	Cu	0.25000 0.75000 0.75000 0.86500
Cu	Cu	0.75000 0.25000 0.75000 0.86500
Cu	Cu	0.75000 0.75000 0.25000 0.86500
Cu	Cu	0.75000 0.75000 0.75000 0.86500
Cu	Cu	0.75000 0.25000 0.25000 0.86500
Cu	Cu	0.25000 0.75000 0.25000 0.86500
Cu	Cu	0.25000 0.25000 0.75000 0.86500
Si	Si	0.12500 0.50000 0.25000 0.92800
Si	Si	0.37500 0.50000 0.75000 0.92800
Si	Si	0.87500 0.00000 0.25000 0.88100
Si	Si	0.62500 0.00000 0.75000 0.88200
Si	Si	0.25000 0.12500 0.50000 0.92800
Si	Si	0.75000 0.37500 0.50000 0.92800
Si	Si	0.25000 0.87500 -0.00000 0.88100
Si	Si	0.75000 0.62500 -0.00000 0.88200
Si	Si	0.50000 0.25000 0.12500 0.92800
Si	Si	0.50000 0.75000 0.37500 0.92800
Si	Si	0.00000 0.25000 0.87500 0.88100
Si	Si	0.00000 0.75000 0.62500 0.88200
Si	Si	0.25000 0.37500 -0.00000 0.88100
Si	Si	0.25000 0.62500 0.50000 0.92700
Si	Si	0.75000 0.12500 -0.00000 0.88200
Si	Si	0.75000 0.87500 0.50000 0.92700
Si	Si	0.87500 0.50000 0.75000 0.92700
Si	Si	0.12500 0.00000 0.75000 0.88200
Si	Si	0.62500 0.50000 0.25000 0.92700
Si	Si	0.37500 0.00000 0.25000 0.88100
Si	Si	0.00000 0.75000 0.12500 0.88200
Si	Si	0.50000 0.75000 0.87500 0.92700
Si	Si	0.00000 0.25000 0.37500 0.88100
Si	Si	0.50000 0.25000 0.62500 0.92700
