data_crystal

_cell_length_a 12.15600
_cell_length_b 18.59000
_cell_length_c 21.02400
_cell_angle_alpha 74.05000
_cell_angle_beta  75.94000
_cell_angle_gamma 75.58000

_symmetry_space_group_name_	'P 1'
_symmetry_space_group_name_H-M	'P 1'

loop_
_symmetry_equiv_pos_as_xyz
  x,y,z

loop_
_atom_site_label
_atom_site_type_symbol
_atom_site_fract_x
_atom_site_fract_y
_atom_site_fract_z
_atom_site_charge
Cd	Cd	0.63754 0.33700 0.95574 1.19500
Cd	Cd	0.33727 0.08374 0.68953 1.21400
Cd	Cd	0.05035 0.66086 0.64253 1.20900
Cd	Cd	0.94965 0.33914 0.35747 1.20900
Cd	Cd	0.66273 0.91626 0.31047 1.21500
Cd	Cd	0.36246 0.66300 0.04426 1.19600
H 	H 	0.35560 0.07000 0.20340 0.03900
H 	H 	0.03480 0.17550 0.44620 0.23300
H 	H 	0.01710 0.77420 0.19010 0.03300
H 	H 	0.71940 0.12070 0.83980 0.06600
H 	H 	0.42110 0.24750 0.41650 0.06100
H 	H 	0.45110 0.31390 0.30230 0.02300
H 	H 	0.71380 0.61800 0.64870 0.27800
H 	H 	0.99810 0.77040 0.02540 0.02800
H 	H 	0.61880 0.00630 0.65550 0.04800
H 	H 	0.20670 0.85440 0.68370 0.03000
H 	H 	0.83630 0.10440 0.69410 0.08100
H 	H 	0.90690 0.45320 0.77630 0.03200
H 	H 	0.24060 0.65890 0.82610 0.03000
H 	H 	0.17370 0.53590 0.34980 0.03700
H 	H 	0.55250 0.23220 0.38340 0.07300
H 	H 	0.06590 0.20300 0.10420 0.28200
H 	H 	0.54810 0.41090 0.69860 0.02900
H 	H 	0.71520 0.82480 0.11510 0.03900
H 	H 	0.60670 0.97240 0.15510 0.06100
H 	H 	0.28620 0.38200 0.35130 0.27800
H 	H 	0.90770 0.16290 0.47550 0.25500
H 	H 	0.17570 0.24970 0.99010 0.06200
H 	H 	0.11340 0.52790 0.54680 0.06300
H 	H 	0.84180 0.91260 0.77520 0.03200
H 	H 	0.31480 0.27160 0.78330 0.06600
H 	H 	0.25470 0.77930 0.27080 0.03400
H 	H 	0.00190 0.22960 0.97460 0.02700
H 	H 	0.81160 0.65130 0.33440 0.02800
H 	H 	0.83880 0.71350 0.08480 0.07800
H 	H 	0.26860 0.92230 0.57920 0.07500
H 	H 	0.53870 0.77930 0.39080 0.26200
H 	H 	0.38120 0.99370 0.34450 0.04800
H 	H 	0.61850 0.38090 0.79780 0.04900
H 	H 	0.73140 0.07770 0.42080 0.07500
H 	H 	0.65090 0.16200 0.15710 0.02800
H 	H 	0.55000 0.26560 0.61560 0.28000
H 	H 	0.39330 0.02760 0.84490 0.06100
H 	H 	0.95490 0.82160 0.71740 0.05700
H 	H 	0.57890 0.75250 0.58350 0.06100
H 	H 	0.94210 0.20310 0.09440 0.29300
H 	H 	0.63890 0.04270 0.93540 0.03400
H 	H 	0.55910 0.85390 0.97610 0.28100
H 	H 	0.36630 0.22030 0.04550 0.26900
H 	H 	0.96520 0.82450 0.55380 0.24000
H 	H 	0.76920 0.87800 0.43530 0.25400
H 	H 	0.54420 0.11270 0.37470 0.03800
H 	H 	0.45580 0.88730 0.62530 0.03800
H 	H 	0.00270 0.12920 0.52040 0.25200
H 	H 	0.22750 0.33450 0.41930 0.26100
H 	H 	0.99510 0.14200 0.62170 0.01100
H 	H 	0.79330 0.14560 0.31630 0.03100
H 	H 	0.99730 0.87080 0.47960 0.25900
H 	H 	0.40570 0.80860 0.41240 0.27400
H 	H 	0.86060 0.11210 0.91010 0.08000
H 	H 	0.83710 0.53120 0.54130 0.02000
H 	H 	0.60020 0.64270 0.31040 0.04200
H 	H 	0.82430 0.75030 0.00990 0.06200
H 	H 	0.54890 0.68610 0.69770 0.02300
H 	H 	0.13940 0.88790 0.08990 0.08000
H 	H 	0.73980 0.88740 0.50980 0.27700
H 	H 	0.28060 0.87930 0.16020 0.06600
H 	H 	0.82630 0.46410 0.65020 0.03700
H 	H 	0.50110 0.20380 0.03830 0.27300
H 	H 	0.84150 0.92860 0.11220 0.07600
H 	H 	0.93180 0.80990 0.08450 0.04500
H 	H 	0.46130 0.22070 0.60920 0.26200
H 	H 	0.34910 0.83800 0.84290 0.02800
H 	H 	0.13480 0.66730 0.32350 0.06500
H 	H 	0.77250 0.66550 0.58070 0.26200
H 	H 	0.79310 0.14750 0.01220 0.03000
H 	H 	0.44820 0.14280 0.23930 0.07400
H 	H 	0.45190 0.58910 0.30140 0.02900
H 	H 	0.21930 0.94470 0.88790 0.04500
H 	H 	0.50210 0.23620 0.28050 0.04100
H 	H 	0.84880 0.60770 0.63020 0.26100
H 	H 	0.78070 0.05530 0.11210 0.04500
H 	H 	0.30700 0.14700 0.95910 0.03000
H 	H 	0.59100 0.87140 0.60400 0.03500
H 	H 	0.15850 0.07140 0.88780 0.07500
H 	H 	0.28480 0.17520 0.88490 0.03900
H 	H 	0.79810 0.14120 0.62440 0.07600
H 	H 	0.59430 0.19140 0.58760 0.27400
H 	H 	0.13480 0.98050 0.50930 0.02000
H 	H 	0.95220 0.19850 0.66990 0.03400
H 	H 	0.15120 0.39230 0.36980 0.26000
H 	H 	0.04510 0.17840 0.28260 0.05700
H 	H 	0.74530 0.22070 0.72920 0.03400
H 	H 	0.55180 0.85720 0.76070 0.07400
H 	H 	0.01170 0.84910 0.84140 0.28700
H 	H 	0.39980 0.35730 0.68960 0.04200
H 	H 	0.98830 0.15090 0.15860 0.29500
H 	H 	0.40900 0.12860 0.39600 0.03500
H 	H 	0.26020 0.11260 0.49020 0.27700
H 	H 	0.73420 0.81050 0.49460 0.26600
H 	H 	0.86520 0.33270 0.67650 0.06600
H 	H 	0.45000 0.73440 0.38440 0.28000
H 	H 	0.18840 0.34870 0.66560 0.02900
H 	H 	0.20690 0.85250 0.98780 0.03000
H 	H 	0.36110 0.95730 0.06460 0.03400
H 	H 	0.29890 0.74680 0.33930 0.02600
H 	H 	0.15820 0.08740 0.22480 0.03200
H 	H 	0.09310 0.54680 0.22370 0.03200
H 	H 	0.06820 0.19010 0.91550 0.04400
H 	H 	0.64440 0.93000 0.79660 0.03900
H 	H 	0.00490 0.85800 0.37830 0.01000
H 	H 	0.49790 0.76380 0.71950 0.04100
H 	H 	0.20190 0.85880 0.37560 0.07600
H 	H 	0.38150 0.61910 0.20220 0.04900
H 	H 	0.70110 0.25320 0.66070 0.02600
H 	H 	0.86520 0.01950 0.49070 0.02000
H 	H 	0.09230 0.83710 0.52450 0.26000
H 	H 	0.44090 0.14610 0.02390 0.28100
H 	H 	0.16290 0.46880 0.45870 0.01900
H 	H 	0.81150 0.98350 0.60360 0.03200
H 	H 	0.48310 0.99290 0.93810 0.02600
H 	H 	0.23080 0.12200 0.56470 0.25400
H 	H 	0.05790 0.79690 0.90560 0.28600
H 	H 	0.16120 0.28650 0.91520 0.07800
H 	H 	0.63370 0.77970 0.95450 0.26900
H 	H 	0.68520 0.72840 0.21670 0.06600
H 	H 	0.75940 0.34110 0.17390 0.03000
H 	H 	0.16370 0.89560 0.30590 0.08100
H 	H 	0.18850 0.01650 0.39640 0.03200
H 	H 	0.04780 0.80150 0.33010 0.03300
H 	H 	0.51690 0.00710 0.06190 0.02600
H 	H 	0.88660 0.47210 0.45320 0.06400
H 	H 	0.98290 0.22580 0.80990 0.03800
H 	H 	0.93410 0.79700 0.89580 0.27700
H 	H 	0.44750 0.76780 0.61660 0.07300
H 	H 	0.49890 0.79620 0.96170 0.27300
H 	H 	0.26580 0.18950 0.50540 0.26600
H 	H 	0.69300 0.85300 0.04090 0.03000
C 	C 	0.22780 0.29560 0.33920 0.29700
C 	C 	0.44130 0.94510 0.43190 0.03200
C 	C 	0.95600 0.40870 0.76690 0.05500
C 	C 	0.49800 0.68810 0.14870 0.04000
C 	C 	0.27770 0.86050 0.75950 -0.12500
C 	C 	0.99060 0.82780 0.88870 -0.85400
C 	C 	0.31240 0.81720 0.82020 0.05400
C 	C 	0.88210 0.44340 0.49730 -0.11700
C 	C 	0.87470 0.82850 0.72610 -0.10900
C 	C 	0.91060 0.51220 0.31760 0.34700
C 	C 	0.44930 0.24080 0.94790 0.29700
C 	C 	0.55730 0.36080 0.79510 -0.11100
C 	C 	0.72110 0.86500 0.47870 -0.84800
C 	C 	0.78500 0.24920 0.25160 -0.12700
C 	C 	0.68120 0.29630 0.08550 0.37900
C 	C 	0.68760 0.18280 0.17980 0.05400
C 	C 	0.29600 0.94080 0.73370 0.32800
C 	C 	0.46380 0.78410 0.38090 -0.85600
C 	C 	0.42490 0.34490 0.73030 -0.03400
C 	C 	0.82140 0.15210 0.66120 -0.17300
C 	C 	0.69950 0.79630 0.71610 0.05600
C 	C 	0.24510 0.99270 0.42240 -0.04100
C 	C 	0.17330 0.66500 0.14190 0.33500
C 	C 	0.04400 0.59130 0.23310 0.05500
C 	C 	0.71090 0.80800 0.07610 -0.00100
C 	C 	0.64040 0.02020 0.60890 -0.10300
C 	C 	0.05820 0.11030 0.07570 0.32500
C 	C 	0.44630 0.26040 0.31380 -0.01000
C 	C 	0.47950 0.13810 0.40320 -0.00900
C 	C 	0.70400 0.05920 0.26630 0.32800
C 	C 	0.57510 0.65510 0.26970 -0.03400
C 	C 	0.70770 0.25580 0.15390 -0.15300
C 	C 	0.02450 0.82870 0.51410 -0.80600
C 	C 	0.90030 0.32340 0.57880 0.05300
C 	C 	0.75490 0.00730 0.57760 -0.04100
C 	C 	0.68790 0.89330 0.77320 -0.03200
C 	C 	0.45810 0.04640 0.84350 -0.10400
C 	C 	0.35960 0.97980 0.39110 -0.10300
C 	C 	0.93300 0.18270 0.63430 0.00700
C 	C 	0.60020 0.12380 0.78510 0.05900
C 	C 	-0.00000 0.27300 0.78590 0.03800
C 	C 	0.29230 0.74420 0.84610 -0.15300
C 	C 	0.94180 0.88970 0.92430 0.32000
C 	C 	0.13030 0.63990 0.36800 -0.08400
C 	C 	0.06700 0.81730 0.36570 0.00800
C 	C 	0.22270 0.35640 0.37280 -0.85100
C 	C 	0.05390 0.75570 0.48950 0.27400
C 	C 	0.50200 0.31190 0.85130 0.04000
C 	C 	0.12410 0.34630 0.70020 0.05000
C 	C 	0.97550 0.17130 0.48590 -0.78800
C 	C 	0.60630 0.05570 0.89710 -0.02900
C 	C 	0.27880 0.79310 0.30580 0.00800
C 	C 	0.12530 0.17150 0.27390 -0.10900
C 	C 	0.53620 0.21590 0.61910 -0.85600
C 	C 	0.80850 0.04040 0.07150 -0.02600
C 	C 	0.55370 0.73960 0.68620 -0.01000
C 	C 	0.84670 0.43780 0.61590 -0.04000
C 	C 	0.92640 0.80270 0.04150 -0.00700
C 	C 	0.19340 0.11730 0.23960 -0.02900
C 	C 	0.77220 0.70440 0.66080 0.29700
C 	C 	0.31880 0.70370 0.91450 0.37900
C 	C 	0.39980 0.87620 0.21490 0.05900
C 	C 	0.80660 0.88270 0.76040 -0.02900
C 	C 	0.37290 0.29440 0.78590 -0.08800
C 	C 	0.17170 0.20490 0.71670 0.30800
C 	C 	0.44270 0.63920 0.20490 -0.11100
C 	C 	0.81510 0.09610 0.01110 -0.01300
C 	C 	0.36800 0.14980 0.24840 -0.10200
C 	C 	0.72120 0.20690 0.69420 0.00800
C 	C 	0.49560 0.90510 0.21370 0.04600
C 	C 	0.59940 0.89400 0.47310 0.31000
C 	C 	0.19150 0.95960 0.92850 -0.02600
C 	C 	0.82580 0.76160 0.05210 -0.15700
C 	C 	0.34630 0.89710 0.15900 -0.08900
C 	C 	0.78690 0.02860 0.50960 -0.03500
C 	C 	0.18120 0.21560 0.29540 0.03700
C 	C 	0.87620 0.94420 0.01170 0.05200
C 	C 	0.07360 0.19730 0.95850 -0.00600
C 	C 	0.15810 0.03480 0.92820 -0.09400
C 	C 	0.75180 0.29040 0.19030 0.05200
C 	C 	0.09560 0.63520 0.48890 0.04000
C 	C 	0.08940 0.48780 0.68240 0.34700
C 	C 	0.77060 0.17360 0.27600 0.04100
C 	C 	0.16500 0.71650 0.70910 0.31100
C 	C 	0.81880 0.78440 0.70460 0.03700
C 	C 	0.29120 0.93700 0.53270 -0.10800
C 	C 	0.09620 0.27620 0.73430 -0.11300
C 	C 	0.82670 0.33500 0.85810 0.33300
C 	C 	0.18490 0.90390 0.98890 -0.01300
C 	C 	0.94370 0.58610 0.28290 -0.12700
C 	C 	0.72230 0.13950 0.24050 -0.12500
C 	C 	0.87590 0.65370 0.29980 0.05200
C 	C 	0.17860 0.84790 0.33880 -0.17400
C 	C 	0.45930 0.83050 0.31180 0.31300
C 	C 	0.63200 0.85020 0.75160 -0.10100
C 	C 	0.21500 0.75080 0.74840 -0.12700
C 	C 	0.94610 0.24430 0.51050 0.27000
C 	C 	0.31210 0.10670 0.22680 -0.03200
C 	C 	0.27890 0.13500 0.52130 -0.84700
C 	C 	0.77730 0.64360 0.62720 -0.85200
C 	C 	-0.00000 0.72700 0.21410 0.04800
C 	C 	0.51150 0.02630 0.89920 -0.02700
C 	C 	0.07100 0.66110 0.19780 -0.12600
C 	C 	0.43840 0.19900 0.02040 -0.85000
C 	C 	0.51570 0.37740 0.73600 -0.01500
C 	C 	0.40830 0.92580 0.50020 0.05700
C 	C 	0.41330 0.28120 0.84340 0.06300
C 	C 	0.55870 0.05490 0.56810 0.03200
C 	C 	0.00940 0.17220 0.11130 -0.87400
C 	C 	0.62710 0.70560 0.21410 -0.08800
C 	C 	0.65370 0.10290 0.84100 -0.08900
C 	C 	0.85310 0.47820 0.55020 -0.00800
C 	C 	0.28910 0.19200 0.92390 -0.00100
C 	C 	0.59170 0.07420 0.49980 0.05700
C 	C 	0.54190 0.95360 0.15650 -0.10400
C 	C 	0.48430 0.62260 0.26400 -0.01500
C 	C 	0.50440 0.09490 0.78630 0.04600
C 	C 	0.22940 0.82640 0.72400 0.04100
C 	C 	0.70880 0.06300 0.46730 -0.10800
C 	C 	0.90380 0.72380 0.26570 -0.11700
C 	C 	0.15330 0.56220 0.38410 -0.04000
C 	C 	0.85370 0.07550 0.95040 -0.10300
C 	C 	0.56160 0.80100 0.97960 -0.85000
C 	C 	0.86970 0.36010 0.63200 -0.08400
C 	C 	0.84190 0.96520 0.07180 -0.09400
C 	C 	0.09970 0.67660 0.42120 0.05300
C 	C 	0.82830 0.79510 0.28330 0.31000
C 	C 	0.30050 0.20370 0.28390 0.05600
C 	C 	0.88200 0.99860 0.95130 0.06800
C 	C 	0.55070 0.75920 0.05210 0.29700
C 	C 	0.83500 0.28350 0.29090 0.31100
C 	C 	0.48850 0.97370 0.10080 -0.02700
C 	C 	0.05630 0.41390 0.71710 -0.12700
C 	C 	0.54070 0.16950 0.68820 0.31300
C 	C 	0.58670 0.71880 0.15660 0.06300
C 	C 	0.47720 0.22340 0.38330 -0.15200
C 	C 	0.40060 0.10600 0.52690 0.31000
C 	C 	0.14630 0.92450 0.04960 -0.10400
C 	C 	0.12380 0.05580 0.98830 0.05200
C 	C 	0.39370 0.94430 0.10290 -0.03000
C 	C 	0.24820 0.70960 0.80970 0.05300
C 	C 	0.11800 0.00140 0.04870 0.06800
C 	C 	0.21310 0.97140 0.49040 -0.03500
C 	C 	0.52280 0.77660 0.61670 -0.15200
C 	C 	0.92900 0.33890 0.80220 -0.12100
C 	C 	0.90440 0.36480 0.51110 0.04100
C 	C 	0.17420 0.23840 0.94790 -0.15700
C 	C 	0.11790 0.55660 0.50270 -0.11700
C 	C 	0.52050 0.86190 0.59680 -0.00900
C 	C 	0.14690 0.52180 0.44980 -0.00800
N 	N 	0.92580 0.24690 0.57640 -0.17100
N 	N 	0.47930 0.71320 0.08420 -0.29500
N 	N 	0.07420 0.75310 0.42360 -0.17300
N 	N 	0.86220 0.72550 0.66980 -0.28600
N 	N 	0.37900 0.82780 0.27700 -0.17500
N 	N 	0.50990 0.89370 0.52570 -0.17600
N 	N 	0.92490 0.96260 0.89740 -0.18100
N 	N 	0.38150 0.23560 0.90600 -0.17300
N 	N 	0.93520 0.31230 0.46970 -0.29600
N 	N 	0.52070 0.28680 0.91580 -0.29500
N 	N 	0.43940 0.07490 0.58480 -0.28500
N 	N 	0.06480 0.68770 0.53030 -0.29700
N 	N 	0.53180 0.87510 0.27580 -0.28800
N 	N 	0.56060 0.92510 0.41520 -0.28500
N 	N 	0.49010 0.10630 0.47430 -0.17600
N 	N 	0.46820 0.12490 0.72420 -0.28800
N 	N 	0.33040 0.25390 0.31130 -0.17200
N 	N 	0.61850 0.76440 0.09400 -0.17300
N 	N 	0.62100 0.17220 0.72300 -0.17500
N 	N 	0.13780 0.27450 0.33020 -0.28600
N 	N 	0.07510 0.03740 0.10260 -0.18200
N 	N 	0.66960 0.74610 0.68870 -0.17200
N 	N 	0.08580 0.12510 0.00500 -0.16900
N 	N 	0.91420 0.87490 0.99500 -0.16700
O 	O 	0.23330 0.20970 0.65840 -0.40300
O 	O 	0.62910 0.26640 0.05890 -0.47100
O 	O 	0.37090 0.73360 0.94110 -0.47100
O 	O 	0.00950 0.54630 0.68470 -0.44300
O 	O 	0.80900 0.50980 0.34700 -0.31400
O 	O 	0.99050 0.45370 0.31530 -0.44200
O 	O 	0.14470 0.75360 0.65140 -0.40400
O 	O 	0.24610 0.98290 0.68670 -0.38500
O 	O 	0.76070 0.39620 0.86800 -0.42500
O 	O 	0.85530 0.24640 0.34860 -0.40300
O 	O 	0.23930 0.60380 0.13200 -0.42500
O 	O 	0.19100 0.49020 0.65300 -0.31400
O 	O 	0.86230 0.34770 0.26570 -0.38100
O 	O 	0.64010 0.03650 0.24160 -0.41000
O 	O 	0.35990 0.96350 0.75840 -0.41000
O 	O 	0.80820 0.27230 0.89330 -0.39200
O 	O 	0.75390 0.01710 0.31330 -0.38500
O 	O 	0.13770 0.65230 0.73430 -0.38100
O 	O 	0.76670 0.79030 0.34160 -0.40400
O 	O 	0.17460 0.14300 0.76020 -0.38000
O 	O 	0.28850 0.64450 0.94380 -0.40000
O 	O 	0.71150 0.35550 0.05620 -0.40000
O 	O 	0.82540 0.85700 0.23980 -0.38000
O 	O 	0.19180 0.72770 0.10670 -0.39300
