data_crystal

_cell_length_a 22.90790
_cell_length_b 22.90790
_cell_length_c 22.90790
_cell_angle_alpha 90.00000
_cell_angle_beta  90.00000
_cell_angle_gamma 90.00000

_symmetry_space_group_name_	'P 1'
_symmetry_space_group_name_H-M	'P 1'

loop_
_symmetry_equiv_pos_as_xyz
  x,y,z

loop_
_atom_site_label
_atom_site_type_symbol
_atom_site_fract_x
_atom_site_fract_y
_atom_site_fract_z
_atom_site_charge
Zn	Zn	0.77374 0.28820 0.67500 1.23100
Zn	Zn	0.72626 0.71180 0.17500 1.23100
Zn	Zn	0.22626 0.78820 0.82500 1.23100
Zn	Zn	0.27374 0.21180 0.32500 1.23100
Zn	Zn	0.67500 0.77374 0.28820 1.23100
Zn	Zn	0.17500 0.72626 0.71180 1.23100
Zn	Zn	0.82500 0.22626 0.78820 1.23100
Zn	Zn	0.32500 0.27374 0.21180 1.23100
Zn	Zn	0.28820 0.67500 0.77374 1.23100
Zn	Zn	0.71180 0.17500 0.72626 1.23100
Zn	Zn	0.78820 0.82500 0.22626 1.23100
Zn	Zn	0.21180 0.32500 0.27374 1.23100
P 	P 	0.64049 0.64049 0.64049 0.21300
P 	P 	0.85951 0.35951 0.14049 0.21300
P 	P 	0.35951 0.14049 0.85951 0.21300
P 	P 	0.14049 0.85951 0.35951 0.21300
P 	P 	0.64817 0.14817 0.35183 0.18400
P 	P 	0.85183 0.85183 0.85183 0.18400
P 	P 	0.35183 0.64817 0.14817 0.18400
P 	P 	0.14817 0.35183 0.64817 0.18400
H 	H 	0.57180 0.53540 0.66060 0.05800
H 	H 	0.59720 0.43600 0.67430 0.04200
H 	H 	0.76560 0.47530 0.65160 0.04500
H 	H 	0.74160 0.57420 0.64330 0.05900
H 	H 	0.65520 0.07900 0.45930 0.06500
H 	H 	0.66750 0.10470 0.55740 0.03300
H 	H 	0.70200 0.26770 0.50880 0.03800
H 	H 	0.67350 0.24730 0.41510 0.09000
H 	H 	0.92820 0.46460 0.16060 0.05800
H 	H 	0.90280 0.56400 0.17430 0.04200
H 	H 	0.73440 0.52470 0.15160 0.04500
H 	H 	0.75840 0.42580 0.14330 0.05900
H 	H 	0.84480 0.92100 0.95930 0.06500
H 	H 	0.83250 0.89530 0.05740 0.03300
H 	H 	0.79800 0.73230 0.00880 0.03800
H 	H 	0.82650 0.75270 0.91510 0.09000
H 	H 	0.42820 0.03540 0.83940 0.05800
H 	H 	0.40280 0.93600 0.82570 0.04200
H 	H 	0.23440 0.97530 0.84840 0.04500
H 	H 	0.25840 0.07420 0.85670 0.05900
H 	H 	0.34480 0.57900 0.04070 0.06400
H 	H 	0.33250 0.60470 0.94260 0.03200
H 	H 	0.29800 0.76770 0.99120 0.03700
H 	H 	0.32650 0.74730 0.08490 0.08900
H 	H 	0.07180 0.96460 0.33940 0.05700
H 	H 	0.09720 0.06400 0.32570 0.04100
H 	H 	0.26560 0.02470 0.34840 0.04400
H 	H 	0.24160 0.92580 0.35670 0.05800
H 	H 	0.15520 0.42100 0.54070 0.06400
H 	H 	0.16750 0.39530 0.44260 0.03200
H 	H 	0.20200 0.23230 0.49120 0.03700
H 	H 	0.17350 0.25270 0.58490 0.08900
H 	H 	0.66060 0.57180 0.53540 0.05700
H 	H 	0.67430 0.59720 0.43600 0.04100
H 	H 	0.65160 0.76560 0.47530 0.04400
H 	H 	0.64330 0.74160 0.57420 0.05800
H 	H 	0.45930 0.65520 0.07900 0.06400
H 	H 	0.55740 0.66750 0.10470 0.03200
H 	H 	0.50880 0.70200 0.26770 0.03700
H 	H 	0.41510 0.67350 0.24730 0.08900
H 	H 	0.16060 0.92820 0.46460 0.05700
H 	H 	0.17430 0.90280 0.56400 0.04100
H 	H 	0.15160 0.73440 0.52470 0.04400
H 	H 	0.14330 0.75840 0.42580 0.05800
H 	H 	0.95930 0.84480 0.92100 0.06400
H 	H 	0.05740 0.83250 0.89530 0.03200
H 	H 	0.00880 0.79800 0.73230 0.03700
H 	H 	0.91510 0.82650 0.75270 0.08900
H 	H 	0.83940 0.42820 0.03540 0.05700
H 	H 	0.82570 0.40280 0.93600 0.04100
H 	H 	0.84840 0.23440 0.97530 0.04400
H 	H 	0.85670 0.25840 0.07420 0.05800
H 	H 	0.04070 0.34480 0.57900 0.06400
H 	H 	0.94260 0.33250 0.60470 0.03200
H 	H 	0.99120 0.29800 0.76770 0.03700
H 	H 	0.08490 0.32650 0.74730 0.08900
H 	H 	0.33940 0.07180 0.96460 0.05700
H 	H 	0.32570 0.09720 0.06400 0.04100
H 	H 	0.34840 0.26560 0.02470 0.04400
H 	H 	0.35670 0.24160 0.92580 0.05800
H 	H 	0.54070 0.15520 0.42100 0.06400
H 	H 	0.44260 0.16750 0.39530 0.03200
H 	H 	0.49120 0.20200 0.23230 0.03700
H 	H 	0.58490 0.17350 0.25270 0.08900
H 	H 	0.53540 0.66060 0.57180 0.05700
H 	H 	0.43600 0.67430 0.59720 0.04100
H 	H 	0.47530 0.65160 0.76560 0.04400
H 	H 	0.57420 0.64330 0.74160 0.05800
H 	H 	0.07900 0.45930 0.65520 0.06400
H 	H 	0.10470 0.55740 0.66750 0.03200
H 	H 	0.26770 0.50880 0.70200 0.03700
H 	H 	0.24730 0.41510 0.67350 0.08900
H 	H 	0.46460 0.16060 0.92820 0.05700
H 	H 	0.56400 0.17430 0.90280 0.04100
H 	H 	0.52470 0.15160 0.73440 0.04400
H 	H 	0.42580 0.14330 0.75840 0.05800
H 	H 	0.92100 0.95930 0.84480 0.06400
H 	H 	0.89530 0.05740 0.83250 0.03200
H 	H 	0.73230 0.00880 0.79800 0.03700
H 	H 	0.75270 0.91510 0.82650 0.08900
H 	H 	0.03540 0.83940 0.42820 0.05700
H 	H 	0.93600 0.82570 0.40280 0.04100
H 	H 	0.97530 0.84840 0.23440 0.04400
H 	H 	0.07420 0.85670 0.25840 0.05800
H 	H 	0.57900 0.04070 0.34480 0.06400
H 	H 	0.60470 0.94260 0.33250 0.03200
H 	H 	0.76770 0.99120 0.29800 0.03700
H 	H 	0.74730 0.08490 0.32650 0.08900
H 	H 	0.96460 0.33940 0.07180 0.05700
H 	H 	0.06400 0.32570 0.09720 0.04100
H 	H 	0.02470 0.34840 0.26560 0.04400
H 	H 	0.92580 0.35670 0.24160 0.05800
H 	H 	0.42100 0.54070 0.15520 0.06400
H 	H 	0.39530 0.44260 0.16750 0.03200
H 	H 	0.23230 0.49120 0.20200 0.03700
H 	H 	0.25270 0.58490 0.17350 0.08900
H 	H 	0.72620 0.27380 0.77380 0.23500
H 	H 	0.77380 0.72620 0.27380 0.23500
H 	H 	0.27380 0.77380 0.72620 0.23500
H 	H 	0.22620 0.22620 0.22620 0.23500
C 	C 	0.65480 0.56380 0.65140 -0.01100
C 	C 	0.61160 0.52360 0.65990 -0.06900
C 	C 	0.62700 0.46400 0.66780 0.01600
C 	C 	0.68300 0.44640 0.66620 -0.09300
C 	C 	0.72600 0.48730 0.65510 0.01700
C 	C 	0.71160 0.54620 0.64910 -0.06800
C 	C 	0.69770 0.38280 0.67590 0.36200
C 	C 	0.66250 0.16210 0.42800 0.01900
C 	C 	0.66220 0.11840 0.47000 -0.09700
C 	C 	0.67230 0.13340 0.52780 0.04200
C 	C 	0.68910 0.18810 0.54270 -0.11500
C 	C 	0.69020 0.22910 0.49930 0.04900
C 	C 	0.67510 0.21700 0.44330 -0.10200
C 	C 	0.70770 0.20390 0.60350 0.37600
C 	C 	0.84520 0.43620 0.15140 -0.01100
C 	C 	0.88840 0.47640 0.15990 -0.06900
C 	C 	0.87300 0.53600 0.16780 0.01600
C 	C 	0.81700 0.55360 0.16620 -0.09300
C 	C 	0.77400 0.51270 0.15510 0.01700
C 	C 	0.78840 0.45380 0.14910 -0.06800
C 	C 	0.80230 0.61720 0.17590 0.36200
C 	C 	0.83750 0.83790 0.92800 0.01900
C 	C 	0.83780 0.88160 0.97000 -0.09700
C 	C 	0.82770 0.86660 0.02780 0.04200
C 	C 	0.81090 0.81190 0.04270 -0.11500
C 	C 	0.80980 0.77090 0.99930 0.04900
C 	C 	0.82490 0.78300 0.94330 -0.10200
C 	C 	0.79230 0.79610 0.10350 0.37600
C 	C 	0.34520 0.06380 0.84860 -0.01100
C 	C 	0.38840 0.02360 0.84010 -0.06900
C 	C 	0.37300 0.96400 0.83220 0.01600
C 	C 	0.31700 0.94640 0.83380 -0.09300
C 	C 	0.27400 0.98730 0.84490 0.01700
C 	C 	0.28840 0.04620 0.85090 -0.06800
C 	C 	0.30230 0.88280 0.82410 0.36200
C 	C 	0.33750 0.66210 0.07200 0.01900
C 	C 	0.33780 0.61840 0.03000 -0.09700
C 	C 	0.32770 0.63340 0.97220 0.04200
C 	C 	0.31090 0.68810 0.95730 -0.11500
C 	C 	0.30980 0.72910 0.00070 0.04900
C 	C 	0.32490 0.71700 0.05670 -0.10200
C 	C 	0.29230 0.70390 0.89650 0.37600
C 	C 	0.15480 0.93620 0.34860 -0.01100
C 	C 	0.11160 0.97640 0.34010 -0.06900
C 	C 	0.12700 0.03600 0.33220 0.01600
C 	C 	0.18300 0.05360 0.33380 -0.09300
C 	C 	0.22600 0.01270 0.34490 0.01700
C 	C 	0.21160 0.95380 0.35090 -0.06800
C 	C 	0.19770 0.11720 0.32410 0.36200
C 	C 	0.16250 0.33790 0.57200 0.01900
C 	C 	0.16220 0.38160 0.53000 -0.09700
C 	C 	0.17230 0.36660 0.47220 0.04200
C 	C 	0.18910 0.31190 0.45730 -0.11500
C 	C 	0.19020 0.27090 0.50070 0.04900
C 	C 	0.17510 0.28300 0.55670 -0.10200
C 	C 	0.20770 0.29610 0.39650 0.37600
C 	C 	0.65140 0.65480 0.56380 -0.01100
C 	C 	0.65990 0.61160 0.52360 -0.06900
C 	C 	0.66780 0.62700 0.46400 0.01600
C 	C 	0.66620 0.68300 0.44640 -0.09300
C 	C 	0.65510 0.72600 0.48730 0.01700
C 	C 	0.64910 0.71160 0.54620 -0.06800
C 	C 	0.67590 0.69770 0.38280 0.36200
C 	C 	0.42800 0.66250 0.16210 0.01900
C 	C 	0.47000 0.66220 0.11840 -0.09700
C 	C 	0.52780 0.67230 0.13340 0.04200
C 	C 	0.54270 0.68910 0.18810 -0.11500
C 	C 	0.49930 0.69020 0.22910 0.04900
C 	C 	0.44330 0.67510 0.21700 -0.10200
C 	C 	0.60350 0.70770 0.20390 0.37600
C 	C 	0.15140 0.84520 0.43620 -0.01100
C 	C 	0.15990 0.88840 0.47640 -0.06900
C 	C 	0.16780 0.87300 0.53600 0.01600
C 	C 	0.16620 0.81700 0.55360 -0.09300
C 	C 	0.15510 0.77400 0.51270 0.01700
C 	C 	0.14910 0.78840 0.45380 -0.06800
C 	C 	0.17590 0.80230 0.61720 0.36200
C 	C 	0.92800 0.83750 0.83790 0.01900
C 	C 	0.97000 0.83780 0.88160 -0.09700
C 	C 	0.02780 0.82770 0.86660 0.04200
C 	C 	0.04270 0.81090 0.81190 -0.11500
C 	C 	0.99930 0.80980 0.77090 0.04900
C 	C 	0.94330 0.82490 0.78300 -0.10200
C 	C 	0.10350 0.79230 0.79610 0.37600
C 	C 	0.84860 0.34520 0.06380 -0.01100
C 	C 	0.84010 0.38840 0.02360 -0.06900
C 	C 	0.83220 0.37300 0.96400 0.01600
C 	C 	0.83380 0.31700 0.94640 -0.09300
C 	C 	0.84490 0.27400 0.98730 0.01700
C 	C 	0.85090 0.28840 0.04620 -0.06800
C 	C 	0.82410 0.30230 0.88280 0.36200
C 	C 	0.07200 0.33750 0.66210 0.01900
C 	C 	0.03000 0.33780 0.61840 -0.09700
C 	C 	0.97220 0.32770 0.63340 0.04200
C 	C 	0.95730 0.31090 0.68810 -0.11500
C 	C 	0.00070 0.30980 0.72910 0.04900
C 	C 	0.05670 0.32490 0.71700 -0.10200
C 	C 	0.89650 0.29230 0.70390 0.37600
C 	C 	0.34860 0.15480 0.93620 -0.01100
C 	C 	0.34010 0.11160 0.97640 -0.06900
C 	C 	0.33220 0.12700 0.03600 0.01600
C 	C 	0.33380 0.18300 0.05360 -0.09300
C 	C 	0.34490 0.22600 0.01270 0.01700
C 	C 	0.35090 0.21160 0.95380 -0.06800
C 	C 	0.32410 0.19770 0.11720 0.36200
C 	C 	0.57200 0.16250 0.33790 0.01900
C 	C 	0.53000 0.16220 0.38160 -0.09700
C 	C 	0.47220 0.17230 0.36660 0.04200
C 	C 	0.45730 0.18910 0.31190 -0.11500
C 	C 	0.50070 0.19020 0.27090 0.04900
C 	C 	0.55670 0.17510 0.28300 -0.10200
C 	C 	0.39650 0.20770 0.29610 0.37600
C 	C 	0.56380 0.65140 0.65480 -0.01100
C 	C 	0.52360 0.65990 0.61160 -0.06900
C 	C 	0.46400 0.66780 0.62700 0.01600
C 	C 	0.44640 0.66620 0.68300 -0.09300
C 	C 	0.48730 0.65510 0.72600 0.01700
C 	C 	0.54620 0.64910 0.71160 -0.06800
C 	C 	0.38280 0.67590 0.69770 0.36200
C 	C 	0.16210 0.42800 0.66250 0.01900
C 	C 	0.11840 0.47000 0.66220 -0.09700
C 	C 	0.13340 0.52780 0.67230 0.04200
C 	C 	0.18810 0.54270 0.68910 -0.11500
C 	C 	0.22910 0.49930 0.69020 0.04900
C 	C 	0.21700 0.44330 0.67510 -0.10200
C 	C 	0.20390 0.60350 0.70770 0.37600
C 	C 	0.43620 0.15140 0.84520 -0.01100
C 	C 	0.47640 0.15990 0.88840 -0.06900
C 	C 	0.53600 0.16780 0.87300 0.01600
C 	C 	0.55360 0.16620 0.81700 -0.09300
C 	C 	0.51270 0.15510 0.77400 0.01700
C 	C 	0.45380 0.14910 0.78840 -0.06800
C 	C 	0.61720 0.17590 0.80230 0.36200
C 	C 	0.83790 0.92800 0.83750 0.01900
C 	C 	0.88160 0.97000 0.83780 -0.09700
C 	C 	0.86660 0.02780 0.82770 0.04200
C 	C 	0.81190 0.04270 0.81090 -0.11500
C 	C 	0.77090 0.99930 0.80980 0.04900
C 	C 	0.78300 0.94330 0.82490 -0.10200
C 	C 	0.79610 0.10350 0.79230 0.37600
C 	C 	0.06380 0.84860 0.34520 -0.01100
C 	C 	0.02360 0.84010 0.38840 -0.06900
C 	C 	0.96400 0.83220 0.37300 0.01600
C 	C 	0.94640 0.83380 0.31700 -0.09300
C 	C 	0.98730 0.84490 0.27400 0.01700
C 	C 	0.04620 0.85090 0.28840 -0.06800
C 	C 	0.88280 0.82410 0.30230 0.36200
C 	C 	0.66210 0.07200 0.33750 0.01900
C 	C 	0.61840 0.03000 0.33780 -0.09700
C 	C 	0.63340 0.97220 0.32770 0.04200
C 	C 	0.68810 0.95730 0.31090 -0.11500
C 	C 	0.72910 0.00070 0.30980 0.04900
C 	C 	0.71700 0.05670 0.32490 -0.10200
C 	C 	0.70390 0.89650 0.29230 0.37600
C 	C 	0.93620 0.34860 0.15480 -0.01100
C 	C 	0.97640 0.34010 0.11160 -0.06900
C 	C 	0.03600 0.33220 0.12700 0.01600
C 	C 	0.05360 0.33380 0.18300 -0.09300
C 	C 	0.01270 0.34490 0.22600 0.01700
C 	C 	0.95380 0.35090 0.21160 -0.06800
C 	C 	0.11720 0.32410 0.19770 0.36200
C 	C 	0.33790 0.57200 0.16250 0.01900
C 	C 	0.38160 0.53000 0.16220 -0.09700
C 	C 	0.36660 0.47220 0.17230 0.04200
C 	C 	0.31190 0.45730 0.18910 -0.11500
C 	C 	0.27090 0.50070 0.19020 0.04900
C 	C 	0.28300 0.55670 0.17510 -0.10200
C 	C 	0.29610 0.39650 0.20770 0.37600
O 	O 	0.75190 0.36960 0.67410 -0.44400
O 	O 	0.66020 0.34660 0.67890 -0.31800
O 	O 	0.73440 0.25290 0.60890 -0.47300
O 	O 	0.69790 0.16590 0.64310 -0.47000
O 	O 	0.74810 0.63040 0.17410 -0.44400
O 	O 	0.83980 0.65340 0.17890 -0.31800
O 	O 	0.76560 0.74710 0.10890 -0.47300
O 	O 	0.80210 0.83410 0.14310 -0.47000
O 	O 	0.24810 0.86960 0.82590 -0.44400
O 	O 	0.33980 0.84660 0.82110 -0.31800
O 	O 	0.26560 0.75290 0.89110 -0.47300
O 	O 	0.30210 0.66590 0.85690 -0.47000
O 	O 	0.25190 0.13040 0.32590 -0.44400
O 	O 	0.16020 0.15340 0.32110 -0.31800
O 	O 	0.23440 0.24710 0.39110 -0.47300
O 	O 	0.19790 0.33410 0.35690 -0.47000
O 	O 	0.67410 0.75190 0.36960 -0.44400
O 	O 	0.67890 0.66020 0.34660 -0.31800
O 	O 	0.60890 0.73440 0.25290 -0.47300
O 	O 	0.64310 0.69790 0.16590 -0.47000
O 	O 	0.17410 0.74810 0.63040 -0.44400
O 	O 	0.17890 0.83980 0.65340 -0.31800
O 	O 	0.10890 0.76560 0.74710 -0.47300
O 	O 	0.14310 0.80210 0.83410 -0.47000
O 	O 	0.82590 0.24810 0.86960 -0.44400
O 	O 	0.82110 0.33980 0.84660 -0.31800
O 	O 	0.89110 0.26560 0.75290 -0.47300
O 	O 	0.85690 0.30210 0.66590 -0.47000
O 	O 	0.32590 0.25190 0.13040 -0.44400
O 	O 	0.32110 0.16020 0.15340 -0.31800
O 	O 	0.39110 0.23440 0.24710 -0.47300
O 	O 	0.35690 0.19790 0.33410 -0.47000
O 	O 	0.36960 0.67410 0.75190 -0.44400
O 	O 	0.34660 0.67890 0.66020 -0.31800
O 	O 	0.25290 0.60890 0.73440 -0.47300
O 	O 	0.16590 0.64310 0.69790 -0.47000
O 	O 	0.63040 0.17410 0.74810 -0.44400
O 	O 	0.65340 0.17890 0.83980 -0.31800
O 	O 	0.74710 0.10890 0.76560 -0.47300
O 	O 	0.83410 0.14310 0.80210 -0.47000
O 	O 	0.86960 0.82590 0.24810 -0.44400
O 	O 	0.84660 0.82110 0.33980 -0.31800
O 	O 	0.75290 0.89110 0.26560 -0.47300
O 	O 	0.66590 0.85690 0.30210 -0.47000
O 	O 	0.13040 0.32590 0.25190 -0.44400
O 	O 	0.15340 0.32110 0.16020 -0.31800
O 	O 	0.24710 0.39110 0.23440 -0.47300
O 	O 	0.33410 0.35690 0.19790 -0.47000
O 	O 	0.67810 0.67810 0.67810 -0.37600
O 	O 	0.82190 0.32190 0.17810 -0.37600
O 	O 	0.32190 0.17810 0.82190 -0.37600
O 	O 	0.17810 0.82190 0.32190 -0.37600
O 	O 	0.68660 0.18660 0.31340 -0.25700
O 	O 	0.81340 0.81340 0.81340 -0.25700
O 	O 	0.31340 0.68660 0.18660 -0.25700
O 	O 	0.18660 0.31340 0.68660 -0.25700
O 	O 	0.75140 0.24860 0.74860 -0.82100
O 	O 	0.74860 0.75140 0.24860 -0.82100
O 	O 	0.24860 0.74860 0.75140 -0.82100
O 	O 	0.25140 0.25140 0.25140 -0.82100
Zn	Zn	0.22626 0.71180 0.32500 1.23000
Zn	Zn	0.27374 0.28820 0.82500 1.23000
Zn	Zn	0.77374 0.21180 0.17500 1.23000
Zn	Zn	0.72626 0.78820 0.67500 1.23000
Zn	Zn	0.32500 0.22626 0.71180 1.23000
Zn	Zn	0.82500 0.27374 0.28820 1.23000
Zn	Zn	0.17500 0.77374 0.21180 1.23000
Zn	Zn	0.67500 0.72626 0.78820 1.23000
Zn	Zn	0.71180 0.32500 0.22626 1.23000
Zn	Zn	0.28820 0.82500 0.27374 1.23000
Zn	Zn	0.21180 0.17500 0.77374 1.23000
Zn	Zn	0.78820 0.67500 0.72626 1.23000
P 	P 	0.35951 0.35951 0.35951 0.21200
P 	P 	0.14049 0.64049 0.85951 0.21200
P 	P 	0.64049 0.85951 0.14049 0.21200
P 	P 	0.85951 0.14049 0.64049 0.21200
P 	P 	0.35183 0.85183 0.64817 0.18300
P 	P 	0.14817 0.14817 0.14817 0.18300
P 	P 	0.64817 0.35183 0.85183 0.18300
P 	P 	0.85183 0.64817 0.35183 0.18300
H 	H 	0.42820 0.46460 0.33940 0.05700
H 	H 	0.40280 0.56400 0.32570 0.04100
H 	H 	0.23440 0.52470 0.34840 0.04400
H 	H 	0.25840 0.42580 0.35670 0.05800
H 	H 	0.34480 0.92100 0.54070 0.06400
H 	H 	0.33250 0.89530 0.44260 0.03200
H 	H 	0.29800 0.73230 0.49120 0.03700
H 	H 	0.32650 0.75270 0.58490 0.08900
H 	H 	0.07180 0.53540 0.83940 0.05700
H 	H 	0.09720 0.43600 0.82570 0.04100
H 	H 	0.26560 0.47530 0.84840 0.04400
H 	H 	0.24160 0.57420 0.85670 0.05800
H 	H 	0.15520 0.07900 0.04070 0.06400
H 	H 	0.16750 0.10470 0.94260 0.03200
H 	H 	0.20200 0.26770 0.99120 0.03700
H 	H 	0.17350 0.24730 0.08490 0.08900
H 	H 	0.57180 0.96460 0.16060 0.05700
H 	H 	0.59720 0.06400 0.17430 0.04100
H 	H 	0.76560 0.02470 0.15160 0.04400
H 	H 	0.74160 0.92580 0.14330 0.05800
H 	H 	0.65520 0.42100 0.95930 0.06400
H 	H 	0.66750 0.39530 0.05740 0.03200
H 	H 	0.70200 0.23230 0.00880 0.03700
H 	H 	0.67350 0.25270 0.91510 0.08900
H 	H 	0.92820 0.03540 0.66060 0.05700
H 	H 	0.90280 0.93600 0.67430 0.04100
H 	H 	0.73440 0.97530 0.65160 0.04400
H 	H 	0.75840 0.07420 0.64330 0.05800
H 	H 	0.84480 0.57900 0.45930 0.06400
H 	H 	0.83250 0.60470 0.55740 0.03200
H 	H 	0.79800 0.76770 0.50880 0.03700
H 	H 	0.82650 0.74730 0.41510 0.08900
H 	H 	0.33940 0.42820 0.46460 0.05700
H 	H 	0.32570 0.40280 0.56400 0.04100
H 	H 	0.34840 0.23440 0.52470 0.04400
H 	H 	0.35670 0.25840 0.42580 0.05800
H 	H 	0.54070 0.34480 0.92100 0.06400
H 	H 	0.44260 0.33250 0.89530 0.03200
H 	H 	0.49120 0.29800 0.73230 0.03700
H 	H 	0.58490 0.32650 0.75270 0.08900
H 	H 	0.83940 0.07180 0.53540 0.05700
H 	H 	0.82570 0.09720 0.43600 0.04100
H 	H 	0.84840 0.26560 0.47530 0.04400
H 	H 	0.85670 0.24160 0.57420 0.05800
H 	H 	0.04070 0.15520 0.07900 0.06400
H 	H 	0.94260 0.16750 0.10470 0.03200
H 	H 	0.99120 0.20200 0.26770 0.03700
H 	H 	0.08490 0.17350 0.24730 0.08900
H 	H 	0.16060 0.57180 0.96460 0.05700
H 	H 	0.17430 0.59720 0.06400 0.04100
H 	H 	0.15160 0.76560 0.02470 0.04400
H 	H 	0.14330 0.74160 0.92580 0.05800
H 	H 	0.95930 0.65520 0.42100 0.06400
H 	H 	0.05740 0.66750 0.39530 0.03200
H 	H 	0.00880 0.70200 0.23230 0.03700
H 	H 	0.91510 0.67350 0.25270 0.08900
H 	H 	0.66060 0.92820 0.03540 0.05700
H 	H 	0.67430 0.90280 0.93600 0.04100
H 	H 	0.65160 0.73440 0.97530 0.04400
H 	H 	0.64330 0.75840 0.07420 0.05800
H 	H 	0.45930 0.84480 0.57900 0.06400
H 	H 	0.55740 0.83250 0.60470 0.03200
H 	H 	0.50880 0.79800 0.76770 0.03700
H 	H 	0.41510 0.82650 0.74730 0.08900
H 	H 	0.46460 0.33940 0.42820 0.05700
H 	H 	0.56400 0.32570 0.40280 0.04100
H 	H 	0.52470 0.34840 0.23440 0.04400
H 	H 	0.42580 0.35670 0.25840 0.05800
H 	H 	0.92100 0.54070 0.34480 0.06400
H 	H 	0.89530 0.44260 0.33250 0.03200
H 	H 	0.73230 0.49120 0.29800 0.03700
H 	H 	0.75270 0.58490 0.32650 0.08900
H 	H 	0.53540 0.83940 0.07180 0.05700
H 	H 	0.43600 0.82570 0.09720 0.04100
H 	H 	0.47530 0.84840 0.26560 0.04400
H 	H 	0.57420 0.85670 0.24160 0.05800
H 	H 	0.07900 0.04070 0.15520 0.06400
H 	H 	0.10470 0.94260 0.16750 0.03200
H 	H 	0.26770 0.99120 0.20200 0.03700
H 	H 	0.24730 0.08490 0.17350 0.08900
H 	H 	0.96460 0.16060 0.57180 0.05700
H 	H 	0.06400 0.17430 0.59720 0.04100
H 	H 	0.02470 0.15160 0.76560 0.04400
H 	H 	0.92580 0.14330 0.74160 0.05800
H 	H 	0.42100 0.95930 0.65520 0.06400
H 	H 	0.39530 0.05740 0.66750 0.03200
H 	H 	0.23230 0.00880 0.70200 0.03700
H 	H 	0.25270 0.91510 0.67350 0.08900
H 	H 	0.03540 0.66060 0.92820 0.05700
H 	H 	0.93600 0.67430 0.90280 0.04100
H 	H 	0.97530 0.65160 0.73440 0.04400
H 	H 	0.07420 0.64330 0.75840 0.05800
H 	H 	0.57900 0.45930 0.84480 0.06400
H 	H 	0.60470 0.55740 0.83250 0.03200
H 	H 	0.76770 0.50880 0.79800 0.03700
H 	H 	0.74730 0.41510 0.82650 0.08900
H 	H 	0.27380 0.72620 0.22620 0.23500
H 	H 	0.22620 0.27380 0.72620 0.23500
H 	H 	0.72620 0.22620 0.27380 0.23500
H 	H 	0.77380 0.77380 0.77380 0.23500
C 	C 	0.34520 0.43620 0.34860 -0.01100
C 	C 	0.38840 0.47640 0.34010 -0.06900
C 	C 	0.37300 0.53600 0.33220 0.01600
C 	C 	0.31700 0.55360 0.33380 -0.09300
C 	C 	0.27400 0.51270 0.34490 0.01700
C 	C 	0.28840 0.45380 0.35090 -0.06800
C 	C 	0.30230 0.61720 0.32410 0.36200
C 	C 	0.33750 0.83790 0.57200 0.01900
C 	C 	0.33780 0.88160 0.53000 -0.09700
C 	C 	0.32770 0.86660 0.47220 0.04200
C 	C 	0.31090 0.81190 0.45730 -0.11500
C 	C 	0.30980 0.77090 0.50070 0.04900
C 	C 	0.32490 0.78300 0.55670 -0.10200
C 	C 	0.29230 0.79610 0.39650 0.37600
C 	C 	0.15480 0.56380 0.84860 -0.01100
C 	C 	0.11160 0.52360 0.84010 -0.06900
C 	C 	0.12700 0.46400 0.83220 0.01600
C 	C 	0.18300 0.44640 0.83380 -0.09300
C 	C 	0.22600 0.48730 0.84490 0.01700
C 	C 	0.21160 0.54620 0.85090 -0.06800
C 	C 	0.19770 0.38280 0.82410 0.36200
C 	C 	0.16250 0.16210 0.07200 0.01900
C 	C 	0.16220 0.11840 0.03000 -0.09700
C 	C 	0.17230 0.13340 0.97220 0.04200
C 	C 	0.18910 0.18810 0.95730 -0.11500
C 	C 	0.19020 0.22910 0.00070 0.04900
C 	C 	0.17510 0.21700 0.05670 -0.10200
C 	C 	0.20770 0.20390 0.89650 0.37600
C 	C 	0.65480 0.93620 0.15140 -0.01100
C 	C 	0.61160 0.97640 0.15990 -0.06900
C 	C 	0.62700 0.03600 0.16780 0.01600
C 	C 	0.68300 0.05360 0.16620 -0.09300
C 	C 	0.72600 0.01270 0.15510 0.01700
C 	C 	0.71160 0.95380 0.14910 -0.06800
C 	C 	0.69770 0.11720 0.17590 0.36200
C 	C 	0.66250 0.33790 0.92800 0.01900
C 	C 	0.66220 0.38160 0.97000 -0.09700
C 	C 	0.67230 0.36660 0.02780 0.04200
C 	C 	0.68910 0.31190 0.04270 -0.11500
C 	C 	0.69020 0.27090 0.99930 0.04900
C 	C 	0.67510 0.28300 0.94330 -0.10200
C 	C 	0.70770 0.29610 0.10350 0.37600
C 	C 	0.84520 0.06380 0.65140 -0.01100
C 	C 	0.88840 0.02360 0.65990 -0.06900
C 	C 	0.87300 0.96400 0.66780 0.01600
C 	C 	0.81700 0.94640 0.66620 -0.09300
C 	C 	0.77400 0.98730 0.65510 0.01700
C 	C 	0.78840 0.04620 0.64910 -0.06800
C 	C 	0.80230 0.88280 0.67590 0.36200
C 	C 	0.83750 0.66210 0.42800 0.01900
C 	C 	0.83780 0.61840 0.47000 -0.09700
C 	C 	0.82770 0.63340 0.52780 0.04200
C 	C 	0.81090 0.68810 0.54270 -0.11500
C 	C 	0.80980 0.72910 0.49930 0.04900
C 	C 	0.82490 0.71700 0.44330 -0.10200
C 	C 	0.79230 0.70390 0.60350 0.37600
C 	C 	0.34860 0.34520 0.43620 -0.01100
C 	C 	0.34010 0.38840 0.47640 -0.06900
C 	C 	0.33220 0.37300 0.53600 0.01600
C 	C 	0.33380 0.31700 0.55360 -0.09300
C 	C 	0.34490 0.27400 0.51270 0.01700
C 	C 	0.35090 0.28840 0.45380 -0.06800
C 	C 	0.32410 0.30230 0.61720 0.36200
C 	C 	0.57200 0.33750 0.83790 0.01900
C 	C 	0.53000 0.33780 0.88160 -0.09700
C 	C 	0.47220 0.32770 0.86660 0.04200
C 	C 	0.45730 0.31090 0.81190 -0.11500
C 	C 	0.50070 0.30980 0.77090 0.04900
C 	C 	0.55670 0.32490 0.78300 -0.10200
C 	C 	0.39650 0.29230 0.79610 0.37600
C 	C 	0.84860 0.15480 0.56380 -0.01100
C 	C 	0.84010 0.11160 0.52360 -0.06900
C 	C 	0.83220 0.12700 0.46400 0.01600
C 	C 	0.83380 0.18300 0.44640 -0.09300
C 	C 	0.84490 0.22600 0.48730 0.01700
C 	C 	0.85090 0.21160 0.54620 -0.06800
C 	C 	0.82410 0.19770 0.38280 0.36200
C 	C 	0.07200 0.16250 0.16210 0.01900
C 	C 	0.03000 0.16220 0.11840 -0.09700
C 	C 	0.97220 0.17230 0.13340 0.04200
C 	C 	0.95730 0.18910 0.18810 -0.11500
C 	C 	0.00070 0.19020 0.22910 0.04900
C 	C 	0.05670 0.17510 0.21700 -0.10200
C 	C 	0.89650 0.20770 0.20390 0.37600
C 	C 	0.15140 0.65480 0.93620 -0.01100
C 	C 	0.15990 0.61160 0.97640 -0.06900
C 	C 	0.16780 0.62700 0.03600 0.01600
C 	C 	0.16620 0.68300 0.05360 -0.09300
C 	C 	0.15510 0.72600 0.01270 0.01700
C 	C 	0.14910 0.71160 0.95380 -0.06800
C 	C 	0.17590 0.69770 0.11720 0.36200
C 	C 	0.92800 0.66250 0.33790 0.01900
C 	C 	0.97000 0.66220 0.38160 -0.09700
C 	C 	0.02780 0.67230 0.36660 0.04200
C 	C 	0.04270 0.68910 0.31190 -0.11500
C 	C 	0.99930 0.69020 0.27090 0.04900
C 	C 	0.94330 0.67510 0.28300 -0.10200
C 	C 	0.10350 0.70770 0.29610 0.37600
C 	C 	0.65140 0.84520 0.06380 -0.01100
C 	C 	0.65990 0.88840 0.02360 -0.06900
C 	C 	0.66780 0.87300 0.96400 0.01600
C 	C 	0.66620 0.81700 0.94640 -0.09300
C 	C 	0.65510 0.77400 0.98730 0.01700
C 	C 	0.64910 0.78840 0.04620 -0.06800
C 	C 	0.67590 0.80230 0.88280 0.36200
C 	C 	0.42800 0.83750 0.66210 0.01900
C 	C 	0.47000 0.83780 0.61840 -0.09700
C 	C 	0.52780 0.82770 0.63340 0.04200
C 	C 	0.54270 0.81090 0.68810 -0.11500
C 	C 	0.49930 0.80980 0.72910 0.04900
C 	C 	0.44330 0.82490 0.71700 -0.10200
C 	C 	0.60350 0.79230 0.70390 0.37600
C 	C 	0.43620 0.34860 0.34520 -0.01100
C 	C 	0.47640 0.34010 0.38840 -0.06900
C 	C 	0.53600 0.33220 0.37300 0.01600
C 	C 	0.55360 0.33380 0.31700 -0.09300
C 	C 	0.51270 0.34490 0.27400 0.01700
C 	C 	0.45380 0.35090 0.28840 -0.06800
C 	C 	0.61720 0.32410 0.30230 0.36200
C 	C 	0.83790 0.57200 0.33750 0.01900
C 	C 	0.88160 0.53000 0.33780 -0.09700
C 	C 	0.86660 0.47220 0.32770 0.04200
C 	C 	0.81190 0.45730 0.31090 -0.11500
C 	C 	0.77090 0.50070 0.30980 0.04900
C 	C 	0.78300 0.55670 0.32490 -0.10200
C 	C 	0.79610 0.39650 0.29230 0.37600
C 	C 	0.56380 0.84860 0.15480 -0.01100
C 	C 	0.52360 0.84010 0.11160 -0.06900
C 	C 	0.46400 0.83220 0.12700 0.01600
C 	C 	0.44640 0.83380 0.18300 -0.09300
C 	C 	0.48730 0.84490 0.22600 0.01700
C 	C 	0.54620 0.85090 0.21160 -0.06800
C 	C 	0.38280 0.82410 0.19770 0.36200
C 	C 	0.16210 0.07200 0.16250 0.01900
C 	C 	0.11840 0.03000 0.16220 -0.09700
C 	C 	0.13340 0.97220 0.17230 0.04200
C 	C 	0.18810 0.95730 0.18910 -0.11500
C 	C 	0.22910 0.00070 0.19020 0.04900
C 	C 	0.21700 0.05670 0.17510 -0.10200
C 	C 	0.20390 0.89650 0.20770 0.37600
C 	C 	0.93620 0.15140 0.65480 -0.01100
C 	C 	0.97640 0.15990 0.61160 -0.06900
C 	C 	0.03600 0.16780 0.62700 0.01600
C 	C 	0.05360 0.16620 0.68300 -0.09300
C 	C 	0.01270 0.15510 0.72600 0.01700
C 	C 	0.95380 0.14910 0.71160 -0.06800
C 	C 	0.11720 0.17590 0.69770 0.36200
C 	C 	0.33790 0.92800 0.66250 0.01900
C 	C 	0.38160 0.97000 0.66220 -0.09700
C 	C 	0.36660 0.02780 0.67230 0.04200
C 	C 	0.31190 0.04270 0.68910 -0.11500
C 	C 	0.27090 0.99930 0.69020 0.04900
C 	C 	0.28300 0.94330 0.67510 -0.10200
C 	C 	0.29610 0.10350 0.70770 0.37600
C 	C 	0.06380 0.65140 0.84520 -0.01100
C 	C 	0.02360 0.65990 0.88840 -0.06900
C 	C 	0.96400 0.66780 0.87300 0.01600
C 	C 	0.94640 0.66620 0.81700 -0.09300
C 	C 	0.98730 0.65510 0.77400 0.01700
C 	C 	0.04620 0.64910 0.78840 -0.06800
C 	C 	0.88280 0.67590 0.80230 0.36200
C 	C 	0.66210 0.42800 0.83750 0.01900
C 	C 	0.61840 0.47000 0.83780 -0.09700
C 	C 	0.63340 0.52780 0.82770 0.04200
C 	C 	0.68810 0.54270 0.81090 -0.11500
C 	C 	0.72910 0.49930 0.80980 0.04900
C 	C 	0.71700 0.44330 0.82490 -0.10200
C 	C 	0.70390 0.60350 0.79230 0.37600
O 	O 	0.24810 0.63040 0.32590 -0.44400
O 	O 	0.33980 0.65340 0.32110 -0.31800
O 	O 	0.26560 0.74710 0.39110 -0.47300
O 	O 	0.30210 0.83410 0.35690 -0.47000
O 	O 	0.25190 0.36960 0.82590 -0.44400
O 	O 	0.16020 0.34660 0.82110 -0.31800
O 	O 	0.23440 0.25290 0.89110 -0.47300
O 	O 	0.19790 0.16590 0.85690 -0.47000
O 	O 	0.75190 0.13040 0.17410 -0.44400
O 	O 	0.66020 0.15340 0.17890 -0.31800
O 	O 	0.73440 0.24710 0.10890 -0.47300
O 	O 	0.69790 0.33410 0.14310 -0.47000
O 	O 	0.74810 0.86960 0.67410 -0.44400
O 	O 	0.83980 0.84660 0.67890 -0.31800
O 	O 	0.76560 0.75290 0.60890 -0.47300
O 	O 	0.80210 0.66590 0.64310 -0.47000
O 	O 	0.32590 0.24810 0.63040 -0.44400
O 	O 	0.32110 0.33980 0.65340 -0.31800
O 	O 	0.39110 0.26560 0.74710 -0.47300
O 	O 	0.35690 0.30210 0.83410 -0.47000
O 	O 	0.82590 0.25190 0.36960 -0.44400
O 	O 	0.82110 0.16020 0.34660 -0.31800
O 	O 	0.89110 0.23440 0.25290 -0.47300
O 	O 	0.85690 0.19790 0.16590 -0.47000
O 	O 	0.17410 0.75190 0.13040 -0.44400
O 	O 	0.17890 0.66020 0.15340 -0.31800
O 	O 	0.10890 0.73440 0.24710 -0.47300
O 	O 	0.14310 0.69790 0.33410 -0.47000
O 	O 	0.67410 0.74810 0.86960 -0.44400
O 	O 	0.67890 0.83980 0.84660 -0.31800
O 	O 	0.60890 0.76560 0.75290 -0.47300
O 	O 	0.64310 0.80210 0.66590 -0.47000
O 	O 	0.63040 0.32590 0.24810 -0.44400
O 	O 	0.65340 0.32110 0.33980 -0.31800
O 	O 	0.74710 0.39110 0.26560 -0.47300
O 	O 	0.83410 0.35690 0.30210 -0.47000
O 	O 	0.36960 0.82590 0.25190 -0.44400
O 	O 	0.34660 0.82110 0.16020 -0.31800
O 	O 	0.25290 0.89110 0.23440 -0.47300
O 	O 	0.16590 0.85690 0.19790 -0.47000
O 	O 	0.13040 0.17410 0.75190 -0.44400
O 	O 	0.15340 0.17890 0.66020 -0.31800
O 	O 	0.24710 0.10890 0.73440 -0.47300
O 	O 	0.33410 0.14310 0.69790 -0.47000
O 	O 	0.86960 0.67410 0.74810 -0.44400
O 	O 	0.84660 0.67890 0.83980 -0.31800
O 	O 	0.75290 0.60890 0.76560 -0.47300
O 	O 	0.66590 0.64310 0.80210 -0.47000
O 	O 	0.32190 0.32190 0.32190 -0.37600
O 	O 	0.17810 0.67810 0.82190 -0.37600
O 	O 	0.67810 0.82190 0.17810 -0.37600
O 	O 	0.82190 0.17810 0.67810 -0.37600
O 	O 	0.31340 0.81340 0.68660 -0.25700
O 	O 	0.18660 0.18660 0.18660 -0.25700
O 	O 	0.68660 0.31340 0.81340 -0.25700
O 	O 	0.81340 0.68660 0.31340 -0.25700
O 	O 	0.24860 0.75140 0.25140 -0.82100
O 	O 	0.25140 0.24860 0.75140 -0.82100
O 	O 	0.75140 0.25140 0.24860 -0.82100
O 	O 	0.74860 0.74860 0.74860 -0.82100
