data_crystal

_cell_length_a 13.25290
_cell_length_b 13.25300
_cell_length_c 13.99500
_cell_angle_alpha 90.00000
_cell_angle_beta  90.00000
_cell_angle_gamma 90.00000

_symmetry_space_group_name_	'P 1'
_symmetry_space_group_name_H-M	'P 1'

loop_
_symmetry_equiv_pos_as_xyz
  x,y,z

loop_
_atom_site_label
_atom_site_type_symbol
_atom_site_fract_x
_atom_site_fract_y
_atom_site_fract_z
_atom_site_charge
Co	Co	0.97058 0.00258 0.87270 1.07600
Co	Co	0.02942 0.99742 0.37270 1.07700
Co	Co	0.02942 0.00258 0.62730 1.07900
Co	Co	0.97058 0.99742 0.12730 1.07400
H 	H 	0.72940 0.99770 0.86140 -0.01800
H 	H 	0.91920 0.76510 0.86750 -0.02000
H 	H 	0.95020 0.58700 0.87970 0.04700
H 	H 	0.94740 0.41740 0.88710 0.03900
H 	H 	0.55890 0.00480 0.85340 0.05100
H 	H 	0.38660 0.00470 0.85690 0.03600
H 	H 	0.27060 0.00230 0.36140 -0.01700
H 	H 	0.08080 0.23490 0.36750 -0.02000
H 	H 	0.04980 0.41300 0.37970 0.04700
H 	H 	0.05260 0.58260 0.38710 0.03900
H 	H 	0.44110 0.99520 0.35340 0.04900
H 	H 	0.61340 0.99530 0.35690 0.03500
H 	H 	0.27060 0.99770 0.63860 -0.01800
H 	H 	0.08080 0.76510 0.63250 -0.02100
H 	H 	0.04980 0.58700 0.62030 0.04600
H 	H 	0.05260 0.41740 0.61290 0.04000
H 	H 	0.44110 0.00480 0.64660 0.05000
H 	H 	0.61340 0.00470 0.64310 0.03500
H 	H 	0.72940 0.00230 0.13860 -0.01800
H 	H 	0.91920 0.23490 0.13250 -0.02000
H 	H 	0.95020 0.41300 0.12030 0.04700
H 	H 	0.94740 0.58260 0.11290 0.03900
H 	H 	0.55890 0.99520 0.14660 0.05100
H 	H 	0.38660 0.99530 0.14310 0.03600
C 	C 	0.75160 0.99800 0.92590 0.05000
C 	C 	0.95760 0.78530 0.81350 0.05200
C 	C 	0.97190 0.55370 0.82320 -0.07100
C 	C 	0.96920 0.44970 0.83010 -0.05100
C 	C 	0.52380 0.00290 0.91260 -0.08700
C 	C 	0.42230 0.00280 0.91570 -0.04700
C 	C 	0.18590 0.02480 0.92250 0.00400
C 	C 	0.97070 0.22290 0.82520 -0.01100
C 	C 	0.24840 0.00200 0.42590 0.05200
C 	C 	0.04240 0.21470 0.31350 0.05400
C 	C 	0.02810 0.44630 0.32320 -0.06800
C 	C 	0.03080 0.55030 0.33010 -0.05000
C 	C 	0.47620 0.99710 0.41260 -0.08000
C 	C 	0.57770 0.99720 0.41570 -0.04300
C 	C 	0.81410 0.97520 0.42250 0.00700
C 	C 	0.02930 0.77710 0.32520 -0.00800
C 	C 	0.24840 0.99800 0.57410 0.04900
C 	C 	0.04240 0.78530 0.68650 0.05400
C 	C 	0.02810 0.55370 0.67680 -0.06800
C 	C 	0.03080 0.44970 0.66990 -0.05000
C 	C 	0.47620 0.00290 0.58740 -0.07800
C 	C 	0.57770 0.00280 0.58430 -0.04100
C 	C 	0.81410 0.02480 0.57750 0.00900
C 	C 	0.02930 0.22290 0.67480 -0.00800
C 	C 	0.75160 0.00200 0.07410 0.05400
C 	C 	0.95760 0.21470 0.18650 0.05200
C 	C 	0.97190 0.44630 0.17680 -0.07100
C 	C 	0.96920 0.55030 0.16990 -0.05100
C 	C 	0.52380 0.99710 0.08740 -0.08800
C 	C 	0.42230 0.99720 0.08430 -0.04800
C 	C 	0.18590 0.97520 0.07750 0.00300
C 	C 	0.97070 0.77710 0.17480 -0.01100
C 	C 	-0.00000 0.72020 0.75000 -0.08000
C 	C 	-0.00000 0.62000 0.75000 0.04900
C 	C 	-0.00000 0.39320 0.75000 0.01800
C 	C 	-0.00000 0.28800 0.75000 -0.01700
C 	C 	0.00000 0.27980 0.25000 -0.08000
C 	C 	-0.00000 0.38000 0.25000 0.05000
C 	C 	0.00000 0.60680 0.25000 0.01800
C 	C 	-0.00000 0.71200 0.25000 -0.01700
C 	C 	0.68790 0.00000 -0.00000 -0.07400
C 	C 	0.57590 0.00000 -0.00000 0.06300
C 	C 	0.36630 0.00000 -0.00000 0.02100
C 	C 	0.25460 0.00000 -0.00000 -0.02200
C 	C 	0.31210 0.00000 0.50000 -0.07300
C 	C 	0.42410 0.00000 0.50000 0.05100
C 	C 	0.63370 0.00000 0.50000 0.01300
C 	C 	0.74540 0.00000 0.50000 -0.03000
N 	N 	0.97610 0.87710 0.79130 -0.25700
N 	N 	0.84790 0.99480 0.94980 -0.27000
N 	N 	0.09470 0.01930 0.95360 -0.25200
N 	N 	0.97730 0.12130 0.79310 -0.25700
N 	N 	0.02390 0.12290 0.29130 -0.25500
N 	N 	0.15210 0.00520 0.44980 -0.26900
N 	N 	0.90530 0.98070 0.45360 -0.25400
N 	N 	0.02270 0.87870 0.29310 -0.25600
N 	N 	0.02390 0.87710 0.70870 -0.25600
N 	N 	0.15210 0.99480 0.55020 -0.27100
N 	N 	0.90530 0.01930 0.54640 -0.25300
N 	N 	0.02270 0.12130 0.70690 -0.25600
N 	N 	0.97610 0.12290 0.20870 -0.25600
N 	N 	0.84790 0.00520 0.05020 -0.26800
N 	N 	0.09470 0.98070 0.04640 -0.25300
N 	N 	0.97730 0.87870 0.20690 -0.25800
