data_crystal

_cell_length_a 32.90200
_cell_length_b 23.25870
_cell_length_c 18.56650
_cell_angle_alpha 90.00000
_cell_angle_beta  122.05800
_cell_angle_gamma 90.00000

_symmetry_space_group_name_	'P 1'
_symmetry_space_group_name_H-M	'P 1'

loop_
_symmetry_equiv_pos_as_xyz
  x,y,z

loop_
_atom_site_label
_atom_site_type_symbol
_atom_site_fract_x
_atom_site_fract_y
_atom_site_fract_z
_atom_site_charge
Zn	Zn	0.08875 0.76344 0.98914 1.21500
Zn	Zn	0.19178 0.73690 0.08746 1.21600
O 	O 	0.09210 0.30420 0.42210 -0.46900
O 	O 	0.18160 0.19610 0.64740 -0.47500
O 	O 	0.17400 0.68190 0.15030 -0.45900
O 	O 	0.11100 0.81450 0.92750 -0.45700
O 	O 	0.16990 0.32450 0.49520 -0.45900
O 	O 	0.18930 0.79610 0.00510 -0.46100
O 	O 	0.09660 0.70480 0.07640 -0.48100
O 	O 	0.10400 0.17280 0.57320 -0.44500
N 	N 	0.26420 0.72900 0.16000 -0.24600
N 	N 	0.51630 0.72740 0.41580 -0.21100
C 	C 	0.29150 0.76140 0.14290 0.05900
H 	H 	0.27640 0.78680 0.09570 0.01100
C 	C 	0.41710 0.72300 0.31470 0.12500
C 	C 	0.12740 0.33420 0.43700 0.38000
C 	C 	0.36370 0.72390 0.26110 0.01300
C 	C 	0.15340 0.82390 0.94910 0.37100
C 	C 	0.09820 0.98960 0.73560 -0.21200
H 	H 	0.07920 0.96840 0.68130 0.08300
H 	H 	0.07610 0.00890 0.74880 0.09100
C 	C 	0.14800 0.16520 0.63380 0.38000
C 	C 	0.28600 0.69470 0.22790 0.06400
H 	H 	0.26700 0.67210 0.24160 0.00700
C 	C 	0.18080 0.50510 0.33470 -0.21300
H 	H 	0.20150 0.48500 0.31910 0.09300
H 	H 	0.20120 0.52480 0.38990 0.09300
C 	C 	0.13090 0.67560 0.12940 0.39200
C 	C 	0.13240 0.95020 0.80680 0.07100
C 	C 	0.12120 0.62710 0.17100 -0.08000
C 	C 	0.12370 0.90270 0.84120 -0.07800
H 	H 	0.09170 0.89090 0.82050 0.07200
C 	C 	0.12050 0.08050 0.68060 -0.05200
H 	H 	0.08810 0.09060 0.64080 0.06300
C 	C 	0.11830 0.38510 0.38130 -0.08500
C 	C 	0.15600 0.41650 0.38970 -0.05600
H 	H 	0.18810 0.40560 0.43040 0.06200
C 	C 	0.14790 0.54690 0.26680 0.05600
C 	C 	0.15790 0.11400 0.68860 -0.08000
C 	C 	0.16200 0.87230 0.90640 -0.05100
C 	C 	0.15830 0.59570 0.23500 -0.05300
H 	H 	0.19060 0.60700 0.25740 0.06300
C 	C 	0.18030 0.96630 0.83550 -0.03800
C 	C 	0.10030 0.53220 0.23620 -0.00300
C 	C 	0.07170 0.39980 0.32080 0.00000
H 	H 	0.04600 0.37680 0.31400 0.03500
C 	C 	0.20520 0.09870 0.74620 0.00800
H 	H 	0.23040 0.12230 0.75220 0.04100
C 	C 	0.14680 0.46440 0.33810 0.05800
C 	C 	0.34110 0.75900 0.19180 -0.09600
H 	H 	0.35950 0.78190 0.17690 0.06500
C 	C 	0.10000 0.48000 0.27930 -0.00500
C 	C 	0.13130 0.03210 0.73170 0.05000
C 	C 	0.07370 0.61260 0.14160 0.00500
H 	H 	0.04840 0.63520 0.09840 0.04000
C 	C 	0.17960 0.01780 0.79040 0.01400
C 	C 	0.06210 0.44760 0.27020 -0.07200
H 	H 	0.02990 0.45820 0.22970 0.05200
C 	C 	0.21620 0.04910 0.79510 -0.07900
H 	H 	0.24860 0.03710 0.83110 0.06000
C 	C 	0.20930 0.88650 0.93250 -0.04500
H 	H 	0.23520 0.86350 0.97340 0.06200
C 	C 	0.06280 0.56560 0.17480 -0.06900
H 	H 	0.03050 0.55640 0.15580 0.05500
C 	C 	0.49130 0.70240 0.44340 -0.02200
C 	C 	0.33530 0.69100 0.27900 -0.10000
H 	H 	0.34970 0.66570 0.32640 0.06400
C 	C 	0.21830 0.93430 0.89820 0.01100
C 	C 	0.44460 0.73230 0.28330 0.28400
H 	H 	0.42990 0.73800 0.22380 -0.05600
C 	C 	0.49340 0.73390 0.33430 -0.19600
H 	H 	0.51150 0.74010 0.30860 0.08000
C 	C 	0.44300 0.68180 0.36580 -0.81500
H 	H 	0.43320 0.64270 0.35640 0.30200
C 	C 	0.44160 0.77400 0.31700 -0.42400
H 	H 	0.42480 0.80730 0.28540 0.16800
C 	C 	0.48990 0.77260 0.36500 0.20800
C 	C 	0.44260 0.70690 0.40450 0.68000
H 	H 	0.42650 0.70000 0.43360 -0.19700
Zn	Zn	0.58875 0.26344 0.98914 1.21600
Zn	Zn	0.69178 0.23690 0.08746 1.21700
O 	O 	0.59210 0.80420 0.42210 -0.46800
O 	O 	0.68160 0.69610 0.64740 -0.47400
O 	O 	0.67400 0.18190 0.15030 -0.45800
O 	O 	0.61100 0.31450 0.92750 -0.45600
O 	O 	0.66990 0.82450 0.49520 -0.45800
O 	O 	0.68930 0.29610 0.00510 -0.46000
O 	O 	0.59660 0.20480 0.07640 -0.48000
O 	O 	0.60400 0.67280 0.57320 -0.44400
N 	N 	0.76420 0.22900 0.16000 -0.24500
N 	N 	0.01630 0.22740 0.41580 -0.21000
C 	C 	0.79150 0.26140 0.14290 0.06000
H 	H 	0.77640 0.28680 0.09570 0.01200
C 	C 	0.91710 0.22300 0.31470 0.12600
C 	C 	0.62740 0.83420 0.43700 0.38100
C 	C 	0.86370 0.22390 0.26110 0.01400
C 	C 	0.65340 0.32390 0.94910 0.37200
C 	C 	0.59820 0.48960 0.73560 -0.21100
H 	H 	0.57920 0.46840 0.68130 0.08400
H 	H 	0.57610 0.50890 0.74880 0.09100
C 	C 	0.64800 0.66520 0.63380 0.38000
C 	C 	0.78600 0.19470 0.22790 0.06400
H 	H 	0.76700 0.17210 0.24160 0.00700
C 	C 	0.68080 0.00510 0.33470 -0.21200
H 	H 	0.70150 0.98500 0.31910 0.09300
H 	H 	0.70120 0.02480 0.38990 0.09300
C 	C 	0.63090 0.17560 0.12940 0.39200
C 	C 	0.63240 0.45020 0.80680 0.07100
C 	C 	0.62120 0.12710 0.17100 -0.08000
C 	C 	0.62370 0.40270 0.84120 -0.07800
H 	H 	0.59170 0.39090 0.82050 0.07200
C 	C 	0.62050 0.58050 0.68060 -0.05200
H 	H 	0.58810 0.59060 0.64080 0.06300
C 	C 	0.61830 0.88510 0.38130 -0.08500
C 	C 	0.65600 0.91650 0.38970 -0.05600
H 	H 	0.68810 0.90560 0.43040 0.06200
C 	C 	0.64790 0.04690 0.26680 0.05600
C 	C 	0.65790 0.61400 0.68860 -0.08000
C 	C 	0.66200 0.37230 0.90640 -0.05100
C 	C 	0.65830 0.09570 0.23500 -0.05300
H 	H 	0.69060 0.10700 0.25740 0.06300
C 	C 	0.68030 0.46630 0.83550 -0.03800
C 	C 	0.60030 0.03220 0.23620 -0.00300
C 	C 	0.57170 0.89980 0.32080 0.00000
H 	H 	0.54600 0.87680 0.31400 0.03500
C 	C 	0.70520 0.59870 0.74620 0.00900
H 	H 	0.73040 0.62230 0.75220 0.04100
C 	C 	0.64680 0.96440 0.33810 0.05800
C 	C 	0.84110 0.25900 0.19180 -0.09600
H 	H 	0.85950 0.28190 0.17690 0.06500
C 	C 	0.60000 0.98000 0.27930 -0.00600
C 	C 	0.63130 0.53210 0.73170 0.05000
C 	C 	0.57370 0.11260 0.14160 0.00500
H 	H 	0.54840 0.13520 0.09840 0.04000
C 	C 	0.67960 0.51780 0.79040 0.01400
C 	C 	0.56210 0.94760 0.27020 -0.07200
H 	H 	0.52990 0.95820 0.22970 0.05200
C 	C 	0.71620 0.54910 0.79510 -0.07900
H 	H 	0.74860 0.53710 0.83110 0.06000
C 	C 	0.70930 0.38650 0.93250 -0.04500
H 	H 	0.73520 0.36350 0.97340 0.06200
C 	C 	0.56280 0.06560 0.17480 -0.06900
H 	H 	0.53050 0.05640 0.15580 0.05500
C 	C 	0.99130 0.20240 0.44340 -0.02200
C 	C 	0.83530 0.19100 0.27900 -0.10000
H 	H 	0.84970 0.16570 0.32640 0.06400
C 	C 	0.71830 0.43430 0.89820 0.01100
C 	C 	0.94460 0.23230 0.28330 0.28300
H 	H 	0.92990 0.23800 0.22380 -0.05500
C 	C 	0.99340 0.23390 0.33430 -0.19600
H 	H 	0.01150 0.24010 0.30860 0.08000
C 	C 	0.94300 0.18180 0.36580 -0.81100
H 	H 	0.93320 0.14270 0.35640 0.30100
C 	C 	0.94160 0.27400 0.31700 -0.42300
H 	H 	0.92480 0.30730 0.28540 0.16800
C 	C 	0.98990 0.27260 0.36500 0.20800
C 	C 	0.94260 0.20690 0.40450 0.67600
H 	H 	0.92650 0.20000 0.43360 -0.19600
Zn	Zn	0.08875 0.23656 0.48914 1.21600
Zn	Zn	0.19178 0.26310 0.58746 1.21700
O 	O 	0.09210 0.69580 0.92210 -0.46800
O 	O 	0.18160 0.80390 0.14740 -0.47400
O 	O 	0.17400 0.31810 0.65030 -0.45800
O 	O 	0.11100 0.18550 0.42750 -0.45600
O 	O 	0.16990 0.67550 0.99520 -0.45800
O 	O 	0.18930 0.20390 0.50510 -0.46000
O 	O 	0.09660 0.29520 0.57640 -0.48000
O 	O 	0.10400 0.82720 0.07320 -0.44400
N 	N 	0.26420 0.27100 0.66000 -0.24500
N 	N 	0.51630 0.27260 0.91580 -0.21000
C 	C 	0.29150 0.23860 0.64290 0.06000
H 	H 	0.27640 0.21320 0.59570 0.01200
C 	C 	0.41710 0.27700 0.81470 0.12600
C 	C 	0.12740 0.66580 0.93700 0.38100
C 	C 	0.36370 0.27610 0.76110 0.01400
C 	C 	0.15340 0.17610 0.44910 0.37200
C 	C 	0.09820 0.01040 0.23560 -0.21100
H 	H 	0.07920 0.03160 0.18130 0.08400
H 	H 	0.07610 0.99110 0.24880 0.09100
C 	C 	0.14800 0.83480 0.13380 0.38000
C 	C 	0.28600 0.30530 0.72790 0.06400
H 	H 	0.26700 0.32790 0.74160 0.00700
C 	C 	0.18080 0.49490 0.83470 -0.21300
H 	H 	0.20150 0.51500 0.81910 0.09300
H 	H 	0.20120 0.47520 0.88990 0.09300
C 	C 	0.13090 0.32440 0.62940 0.39200
C 	C 	0.13240 0.04980 0.30680 0.07100
C 	C 	0.12120 0.37290 0.67100 -0.08000
C 	C 	0.12370 0.09730 0.34120 -0.07800
H 	H 	0.09170 0.10910 0.32050 0.07200
C 	C 	0.12050 0.91950 0.18060 -0.05200
H 	H 	0.08810 0.90940 0.14080 0.06300
C 	C 	0.11830 0.61490 0.88130 -0.08500
C 	C 	0.15600 0.58350 0.88970 -0.05600
H 	H 	0.18810 0.59440 0.93040 0.06200
C 	C 	0.14790 0.45310 0.76680 0.05600
C 	C 	0.15790 0.88600 0.18860 -0.08000
C 	C 	0.16200 0.12770 0.40640 -0.05100
C 	C 	0.15830 0.40430 0.73500 -0.05300
H 	H 	0.19060 0.39300 0.75740 0.06300
C 	C 	0.18030 0.03370 0.33550 -0.03800
C 	C 	0.10030 0.46780 0.73620 -0.00300
C 	C 	0.07170 0.60020 0.82080 0.00000
H 	H 	0.04600 0.62320 0.81400 0.03500
C 	C 	0.20520 0.90130 0.24620 0.00800
H 	H 	0.23040 0.87770 0.25220 0.04100
C 	C 	0.14680 0.53560 0.83810 0.05800
C 	C 	0.34110 0.24100 0.69180 -0.09600
H 	H 	0.35950 0.21810 0.67690 0.06500
C 	C 	0.10000 0.52000 0.77930 -0.00500
C 	C 	0.13130 0.96790 0.23170 0.05000
C 	C 	0.07370 0.38740 0.64160 0.00500
H 	H 	0.04840 0.36480 0.59840 0.04000
C 	C 	0.17960 0.98220 0.29040 0.01400
C 	C 	0.06210 0.55240 0.77020 -0.07200
H 	H 	0.02990 0.54180 0.72970 0.05200
C 	C 	0.21620 0.95090 0.29510 -0.07900
H 	H 	0.24860 0.96290 0.33110 0.06000
C 	C 	0.20930 0.11350 0.43250 -0.04500
H 	H 	0.23520 0.13650 0.47340 0.06200
C 	C 	0.06280 0.43440 0.67480 -0.06900
H 	H 	0.03050 0.44360 0.65580 0.05500
C 	C 	0.49130 0.29760 0.94340 -0.02200
C 	C 	0.33530 0.30900 0.77900 -0.10000
H 	H 	0.34970 0.33430 0.82640 0.06400
C 	C 	0.21830 0.06570 0.39820 0.01100
C 	C 	0.44460 0.26770 0.78330 0.28400
H 	H 	0.42990 0.26200 0.72380 -0.05600
C 	C 	0.49340 0.26610 0.83430 -0.19600
H 	H 	0.51150 0.25990 0.80860 0.08000
C 	C 	0.44300 0.31820 0.86580 -0.81500
H 	H 	0.43320 0.35730 0.85640 0.30200
C 	C 	0.44160 0.22600 0.81700 -0.42400
H 	H 	0.42480 0.19270 0.78540 0.16800
C 	C 	0.48990 0.22740 0.86500 0.20800
C 	C 	0.44260 0.29310 0.90450 0.68000
H 	H 	0.42650 0.30000 0.93360 -0.19700
Zn	Zn	0.58875 0.73656 0.48914 1.21600
Zn	Zn	0.69178 0.76310 0.58746 1.21700
O 	O 	0.59210 0.19580 0.92210 -0.46800
O 	O 	0.68160 0.30390 0.14740 -0.47400
O 	O 	0.67400 0.81810 0.65030 -0.45800
O 	O 	0.61100 0.68550 0.42750 -0.45600
O 	O 	0.66990 0.17550 0.99520 -0.45800
O 	O 	0.68930 0.70390 0.50510 -0.46000
O 	O 	0.59660 0.79520 0.57640 -0.48000
O 	O 	0.60400 0.32720 0.07320 -0.44400
N 	N 	0.76420 0.77100 0.66000 -0.24500
N 	N 	0.01630 0.77260 0.91580 -0.21000
C 	C 	0.79150 0.73860 0.64290 0.06000
H 	H 	0.77640 0.71320 0.59570 0.01200
C 	C 	0.91710 0.77700 0.81470 0.12800
C 	C 	0.62740 0.16580 0.93700 0.38100
C 	C 	0.86370 0.77610 0.76110 0.01300
C 	C 	0.65340 0.67610 0.44910 0.37200
C 	C 	0.59820 0.51040 0.23560 -0.21100
H 	H 	0.57920 0.53160 0.18130 0.08400
H 	H 	0.57610 0.49110 0.24880 0.09100
C 	C 	0.64800 0.33480 0.13380 0.38000
C 	C 	0.78600 0.80530 0.72790 0.06300
H 	H 	0.76700 0.82790 0.74160 0.00700
C 	C 	0.68080 0.99490 0.83470 -0.21200
H 	H 	0.70150 0.01500 0.81910 0.09200
H 	H 	0.70120 0.97520 0.88990 0.09300
C 	C 	0.63090 0.82440 0.62940 0.39200
C 	C 	0.63240 0.54980 0.30680 0.07100
C 	C 	0.62120 0.87290 0.67100 -0.08000
C 	C 	0.62370 0.59730 0.34120 -0.07800
H 	H 	0.59170 0.60910 0.32050 0.07200
C 	C 	0.62050 0.41950 0.18060 -0.05200
H 	H 	0.58810 0.40940 0.14080 0.06300
C 	C 	0.61830 0.11490 0.88130 -0.08500
C 	C 	0.65600 0.08350 0.88970 -0.05600
H 	H 	0.68810 0.09440 0.93040 0.06200
C 	C 	0.64790 0.95310 0.76680 0.05600
C 	C 	0.65790 0.38600 0.18860 -0.08000
C 	C 	0.66200 0.62770 0.40640 -0.05100
C 	C 	0.65830 0.90430 0.73500 -0.05200
H 	H 	0.69060 0.89300 0.75740 0.06300
C 	C 	0.68030 0.53370 0.33550 -0.03800
C 	C 	0.60030 0.96780 0.73620 -0.00300
C 	C 	0.57170 0.10020 0.82080 0.00000
H 	H 	0.54600 0.12320 0.81400 0.03500
C 	C 	0.70520 0.40130 0.24620 0.00800
H 	H 	0.73040 0.37770 0.25220 0.04100
C 	C 	0.64680 0.03560 0.83810 0.05800
C 	C 	0.84110 0.74100 0.69180 -0.09500
H 	H 	0.85950 0.71810 0.67690 0.06500
C 	C 	0.60000 0.02000 0.77930 -0.00600
C 	C 	0.63130 0.46790 0.23170 0.05000
C 	C 	0.57370 0.88740 0.64160 0.00500
H 	H 	0.54840 0.86480 0.59840 0.04000
C 	C 	0.67960 0.48220 0.29040 0.01400
C 	C 	0.56210 0.05240 0.77020 -0.07200
H 	H 	0.52990 0.04180 0.72970 0.05200
C 	C 	0.71620 0.45090 0.29510 -0.07900
H 	H 	0.74860 0.46290 0.33110 0.06000
C 	C 	0.70930 0.61350 0.43250 -0.04500
H 	H 	0.73520 0.63650 0.47340 0.06200
C 	C 	0.56280 0.93440 0.67480 -0.06900
H 	H 	0.53050 0.94360 0.65580 0.05500
C 	C 	0.99130 0.79760 0.94340 -0.02300
C 	C 	0.83530 0.80900 0.77900 -0.10000
H 	H 	0.84970 0.83430 0.82640 0.06400
C 	C 	0.71830 0.56570 0.39820 0.01100
C 	C 	0.94460 0.76770 0.78330 0.28700
H 	H 	0.92990 0.76200 0.72380 -0.05700
C 	C 	0.99340 0.76610 0.83430 -0.19700
H 	H 	0.01150 0.75990 0.80860 0.08000
C 	C 	0.94300 0.81820 0.86580 -0.82500
H 	H 	0.93320 0.85730 0.85640 0.30500
C 	C 	0.94160 0.72600 0.81700 -0.42700
H 	H 	0.92480 0.69270 0.78540 0.16900
C 	C 	0.98990 0.72740 0.86500 0.21000
C 	C 	0.94260 0.79310 0.90450 0.68900
H 	H 	0.92650 0.80000 0.93360 -0.20000
Zn	Zn	0.91125 0.76344 0.51086 1.21600
Zn	Zn	0.80822 0.73690 0.41254 1.21700
O 	O 	0.90790 0.30420 0.07790 -0.46800
O 	O 	0.81840 0.19610 0.85260 -0.47400
O 	O 	0.82600 0.68190 0.34970 -0.45800
O 	O 	0.88900 0.81450 0.57250 -0.45600
O 	O 	0.83010 0.32450 0.00480 -0.45800
O 	O 	0.81070 0.79610 0.49490 -0.46000
O 	O 	0.90340 0.70480 0.42360 -0.48000
O 	O 	0.89600 0.17280 0.92680 -0.44400
N 	N 	0.73580 0.72900 0.34000 -0.24500
N 	N 	0.48370 0.72740 0.08420 -0.21000
C 	C 	0.70850 0.76140 0.35710 0.06000
H 	H 	0.72360 0.78680 0.40430 0.01200
C 	C 	0.58290 0.72300 0.18530 0.12600
C 	C 	0.87260 0.33420 0.06300 0.38100
C 	C 	0.63630 0.72390 0.23890 0.01400
C 	C 	0.84660 0.82390 0.55090 0.37200
C 	C 	0.90180 0.98960 0.76440 -0.21100
H 	H 	0.92080 0.96840 0.81870 0.08400
H 	H 	0.92390 0.00890 0.75120 0.09100
C 	C 	0.85200 0.16520 0.86620 0.38000
C 	C 	0.71400 0.69470 0.27210 0.06400
H 	H 	0.73300 0.67210 0.25840 0.00700
C 	C 	0.81920 0.50510 0.16530 -0.21300
H 	H 	0.79850 0.48500 0.18090 0.09300
H 	H 	0.79880 0.52480 0.11010 0.09300
C 	C 	0.86910 0.67560 0.37060 0.39200
C 	C 	0.86760 0.95020 0.69320 0.07100
C 	C 	0.87880 0.62710 0.32900 -0.08000
C 	C 	0.87630 0.90270 0.65880 -0.07800
H 	H 	0.90830 0.89090 0.67950 0.07200
C 	C 	0.87950 0.08050 0.81940 -0.05200
H 	H 	0.91190 0.09060 0.85920 0.06300
C 	C 	0.88170 0.38510 0.11870 -0.08500
C 	C 	0.84400 0.41650 0.11030 -0.05600
H 	H 	0.81190 0.40560 0.06960 0.06200
C 	C 	0.85210 0.54690 0.23320 0.05600
C 	C 	0.84210 0.11400 0.81140 -0.08000
C 	C 	0.83800 0.87230 0.59360 -0.05100
C 	C 	0.84170 0.59570 0.26500 -0.05300
H 	H 	0.80940 0.60700 0.24260 0.06300
C 	C 	0.81970 0.96630 0.66450 -0.03800
C 	C 	0.89970 0.53220 0.26380 -0.00300
C 	C 	0.92830 0.39980 0.17920 0.00000
H 	H 	0.95400 0.37680 0.18600 0.03500
C 	C 	0.79480 0.09870 0.75380 0.00800
H 	H 	0.76960 0.12230 0.74780 0.04100
C 	C 	0.85320 0.46440 0.16190 0.05800
C 	C 	0.65890 0.75900 0.30820 -0.09600
H 	H 	0.64050 0.78190 0.32310 0.06500
C 	C 	0.90000 0.48000 0.22070 -0.00500
C 	C 	0.86870 0.03210 0.76830 0.05000
C 	C 	0.92630 0.61260 0.35840 0.00500
H 	H 	0.95160 0.63520 0.40160 0.04000
C 	C 	0.82040 0.01780 0.70960 0.01400
C 	C 	0.93790 0.44760 0.22980 -0.07200
H 	H 	0.97010 0.45820 0.27030 0.05200
C 	C 	0.78380 0.04910 0.70490 -0.07900
H 	H 	0.75140 0.03710 0.66890 0.06000
C 	C 	0.79070 0.88650 0.56750 -0.04500
H 	H 	0.76480 0.86350 0.52660 0.06200
C 	C 	0.93720 0.56560 0.32520 -0.06900
H 	H 	0.96950 0.55640 0.34420 0.05500
C 	C 	0.50870 0.70240 0.05660 -0.02200
C 	C 	0.66470 0.69100 0.22100 -0.10000
H 	H 	0.65030 0.66570 0.17360 0.06400
C 	C 	0.78170 0.93430 0.60180 0.01100
C 	C 	0.55540 0.73230 0.21670 0.28400
H 	H 	0.57010 0.73800 0.27620 -0.05600
C 	C 	0.50660 0.73390 0.16570 -0.19600
H 	H 	0.48850 0.74010 0.19140 0.08000
C 	C 	0.55700 0.68180 0.13420 -0.81500
H 	H 	0.56680 0.64270 0.14360 0.30200
C 	C 	0.55840 0.77400 0.18300 -0.42400
H 	H 	0.57520 0.80730 0.21460 0.16800
C 	C 	0.51010 0.77260 0.13500 0.20800
C 	C 	0.55740 0.70690 0.09550 0.68000
H 	H 	0.57350 0.70000 0.06640 -0.19700
Zn	Zn	0.41125 0.26344 0.51086 1.21600
Zn	Zn	0.30822 0.23690 0.41254 1.21700
O 	O 	0.40790 0.80420 0.07790 -0.46800
O 	O 	0.31840 0.69610 0.85260 -0.47400
O 	O 	0.32600 0.18190 0.34970 -0.45800
O 	O 	0.38900 0.31450 0.57250 -0.45600
O 	O 	0.33010 0.82450 0.00480 -0.45800
O 	O 	0.31070 0.29610 0.49490 -0.46000
O 	O 	0.40340 0.20480 0.42360 -0.48000
O 	O 	0.39600 0.67280 0.92680 -0.44400
N 	N 	0.23580 0.22900 0.34000 -0.24500
N 	N 	0.98370 0.22740 0.08420 -0.21000
C 	C 	0.20850 0.26140 0.35710 0.06000
H 	H 	0.22360 0.28680 0.40430 0.01200
C 	C 	0.08290 0.22300 0.18530 0.12800
C 	C 	0.37260 0.83420 0.06300 0.38100
C 	C 	0.13630 0.22390 0.23890 0.01300
C 	C 	0.34660 0.32390 0.55090 0.37200
C 	C 	0.40180 0.48960 0.76440 -0.21100
H 	H 	0.42080 0.46840 0.81870 0.08400
H 	H 	0.42390 0.50890 0.75120 0.09100
C 	C 	0.35200 0.66520 0.86620 0.38000
C 	C 	0.21400 0.19470 0.27210 0.06300
H 	H 	0.23300 0.17210 0.25840 0.00700
C 	C 	0.31920 0.00510 0.16530 -0.21200
H 	H 	0.29850 0.98500 0.18090 0.09200
H 	H 	0.29880 0.02480 0.11010 0.09300
C 	C 	0.36910 0.17560 0.37060 0.39200
C 	C 	0.36760 0.45020 0.69320 0.07100
C 	C 	0.37880 0.12710 0.32900 -0.08000
C 	C 	0.37630 0.40270 0.65880 -0.07800
H 	H 	0.40830 0.39090 0.67950 0.07200
C 	C 	0.37950 0.58050 0.81940 -0.05200
H 	H 	0.41190 0.59060 0.85920 0.06300
C 	C 	0.38170 0.88510 0.11870 -0.08500
C 	C 	0.34400 0.91650 0.11030 -0.05600
H 	H 	0.31190 0.90560 0.06960 0.06200
C 	C 	0.35210 0.04690 0.23320 0.05600
C 	C 	0.34210 0.61400 0.81140 -0.08000
C 	C 	0.33800 0.37230 0.59360 -0.05100
C 	C 	0.34170 0.09570 0.26500 -0.05200
H 	H 	0.30940 0.10700 0.24260 0.06300
C 	C 	0.31970 0.46630 0.66450 -0.03800
C 	C 	0.39970 0.03220 0.26380 -0.00300
C 	C 	0.42830 0.89980 0.17920 0.00000
H 	H 	0.45400 0.87680 0.18600 0.03500
C 	C 	0.29480 0.59870 0.75380 0.00800
H 	H 	0.26960 0.62230 0.74780 0.04100
C 	C 	0.35320 0.96440 0.16190 0.05800
C 	C 	0.15890 0.25900 0.30820 -0.09500
H 	H 	0.14050 0.28190 0.32310 0.06500
C 	C 	0.40000 0.98000 0.22070 -0.00600
C 	C 	0.36870 0.53210 0.76830 0.05000
C 	C 	0.42630 0.11260 0.35840 0.00500
H 	H 	0.45160 0.13520 0.40160 0.04000
C 	C 	0.32040 0.51780 0.70960 0.01400
C 	C 	0.43790 0.94760 0.22980 -0.07200
H 	H 	0.47010 0.95820 0.27030 0.05200
C 	C 	0.28380 0.54910 0.70490 -0.07900
H 	H 	0.25140 0.53710 0.66890 0.06000
C 	C 	0.29070 0.38650 0.56750 -0.04500
H 	H 	0.26480 0.36350 0.52660 0.06200
C 	C 	0.43720 0.06560 0.32520 -0.06900
H 	H 	0.46950 0.05640 0.34420 0.05500
C 	C 	0.00870 0.20240 0.05660 -0.02300
C 	C 	0.16470 0.19100 0.22100 -0.10000
H 	H 	0.15030 0.16570 0.17360 0.06400
C 	C 	0.28170 0.43430 0.60180 0.01100
C 	C 	0.05540 0.23230 0.21670 0.28700
H 	H 	0.07010 0.23800 0.27620 -0.05700
C 	C 	0.00660 0.23390 0.16570 -0.19700
H 	H 	0.98850 0.24010 0.19140 0.08000
C 	C 	0.05700 0.18180 0.13420 -0.82500
H 	H 	0.06680 0.14270 0.14360 0.30500
C 	C 	0.05840 0.27400 0.18300 -0.42700
H 	H 	0.07520 0.30730 0.21460 0.16900
C 	C 	0.01010 0.27260 0.13500 0.21000
C 	C 	0.05740 0.20690 0.09550 0.68900
H 	H 	0.07350 0.20000 0.06640 -0.20000
Zn	Zn	0.91125 0.23656 0.01086 1.21600
Zn	Zn	0.80822 0.26310 0.91254 1.21700
O 	O 	0.90790 0.69580 0.57790 -0.46800
O 	O 	0.81840 0.80390 0.35260 -0.47400
O 	O 	0.82600 0.31810 0.84970 -0.45800
O 	O 	0.88900 0.18550 0.07250 -0.45600
O 	O 	0.83010 0.67550 0.50480 -0.45800
O 	O 	0.81070 0.20390 0.99490 -0.46000
O 	O 	0.90340 0.29520 0.92360 -0.48000
O 	O 	0.89600 0.82720 0.42680 -0.44400
N 	N 	0.73580 0.27100 0.84000 -0.24500
N 	N 	0.48370 0.27260 0.58420 -0.21000
C 	C 	0.70850 0.23860 0.85710 0.06000
H 	H 	0.72360 0.21320 0.90430 0.01200
C 	C 	0.58290 0.27700 0.68530 0.12600
C 	C 	0.87260 0.66580 0.56300 0.38100
C 	C 	0.63630 0.27610 0.73890 0.01400
C 	C 	0.84660 0.17610 0.05090 0.37200
C 	C 	0.90180 0.01040 0.26440 -0.21100
H 	H 	0.92080 0.03160 0.31870 0.08400
H 	H 	0.92390 0.99110 0.25120 0.09100
C 	C 	0.85200 0.83480 0.36620 0.38000
C 	C 	0.71400 0.30530 0.77210 0.06400
H 	H 	0.73300 0.32790 0.75840 0.00700
C 	C 	0.81920 0.49490 0.66530 -0.21300
H 	H 	0.79850 0.51500 0.68090 0.09300
H 	H 	0.79880 0.47520 0.61010 0.09300
C 	C 	0.86910 0.32440 0.87060 0.39200
C 	C 	0.86760 0.04980 0.19320 0.07100
C 	C 	0.87880 0.37290 0.82900 -0.08000
C 	C 	0.87630 0.09730 0.15880 -0.07800
H 	H 	0.90830 0.10910 0.17950 0.07200
C 	C 	0.87950 0.91950 0.31940 -0.05200
H 	H 	0.91190 0.90940 0.35920 0.06300
C 	C 	0.88170 0.61490 0.61870 -0.08500
C 	C 	0.84400 0.58350 0.61030 -0.05600
H 	H 	0.81190 0.59440 0.56960 0.06200
C 	C 	0.85210 0.45310 0.73320 0.05600
C 	C 	0.84210 0.88600 0.31140 -0.08000
C 	C 	0.83800 0.12770 0.09360 -0.05100
C 	C 	0.84170 0.40430 0.76500 -0.05300
H 	H 	0.80940 0.39300 0.74260 0.06300
C 	C 	0.81970 0.03370 0.16450 -0.03800
C 	C 	0.89970 0.46780 0.76380 -0.00300
C 	C 	0.92830 0.60020 0.67920 0.00000
H 	H 	0.95400 0.62320 0.68600 0.03500
C 	C 	0.79480 0.90130 0.25380 0.00800
H 	H 	0.76960 0.87770 0.24780 0.04100
C 	C 	0.85320 0.53560 0.66190 0.05800
C 	C 	0.65890 0.24100 0.80820 -0.09600
H 	H 	0.64050 0.21810 0.82310 0.06500
C 	C 	0.90000 0.52000 0.72070 -0.00500
C 	C 	0.86870 0.96790 0.26830 0.05000
C 	C 	0.92630 0.38740 0.85840 0.00500
H 	H 	0.95160 0.36480 0.90160 0.04000
C 	C 	0.82040 0.98220 0.20960 0.01400
C 	C 	0.93790 0.55240 0.72980 -0.07200
H 	H 	0.97010 0.54180 0.77030 0.05200
C 	C 	0.78380 0.95090 0.20490 -0.07900
H 	H 	0.75140 0.96290 0.16890 0.06000
C 	C 	0.79070 0.11350 0.06750 -0.04500
H 	H 	0.76480 0.13650 0.02660 0.06200
C 	C 	0.93720 0.43440 0.82520 -0.06900
H 	H 	0.96950 0.44360 0.84420 0.05500
C 	C 	0.50870 0.29760 0.55660 -0.02200
C 	C 	0.66470 0.30900 0.72100 -0.10000
H 	H 	0.65030 0.33430 0.67360 0.06400
C 	C 	0.78170 0.06570 0.10180 0.01100
C 	C 	0.55540 0.26770 0.71670 0.28400
H 	H 	0.57010 0.26200 0.77620 -0.05600
C 	C 	0.50660 0.26610 0.66570 -0.19600
H 	H 	0.48850 0.25990 0.69140 0.08000
C 	C 	0.55700 0.31820 0.63420 -0.81500
H 	H 	0.56680 0.35730 0.64360 0.30200
C 	C 	0.55840 0.22600 0.68300 -0.42400
H 	H 	0.57520 0.19270 0.71460 0.16800
C 	C 	0.51010 0.22740 0.63500 0.20800
C 	C 	0.55740 0.29310 0.59550 0.68000
H 	H 	0.57350 0.30000 0.56640 -0.19700
Zn	Zn	0.41125 0.73656 0.01086 1.21600
Zn	Zn	0.30822 0.76310 0.91254 1.21700
O 	O 	0.40790 0.19580 0.57790 -0.46800
O 	O 	0.31840 0.30390 0.35260 -0.47400
O 	O 	0.32600 0.81810 0.84970 -0.45800
O 	O 	0.38900 0.68550 0.07250 -0.45600
O 	O 	0.33010 0.17550 0.50480 -0.45800
O 	O 	0.31070 0.70390 0.99490 -0.46000
O 	O 	0.40340 0.79520 0.92360 -0.48000
O 	O 	0.39600 0.32720 0.42680 -0.44400
N 	N 	0.23580 0.77100 0.84000 -0.24500
N 	N 	0.98370 0.77260 0.58420 -0.21000
C 	C 	0.20850 0.73860 0.85710 0.06000
H 	H 	0.22360 0.71320 0.90430 0.01200
C 	C 	0.08290 0.77700 0.68530 0.12600
C 	C 	0.37260 0.16580 0.56300 0.38100
C 	C 	0.13630 0.77610 0.73890 0.01400
C 	C 	0.34660 0.67610 0.05090 0.37200
C 	C 	0.40180 0.51040 0.26440 -0.21100
H 	H 	0.42080 0.53160 0.31870 0.08400
H 	H 	0.42390 0.49110 0.25120 0.09100
C 	C 	0.35200 0.33480 0.36620 0.38000
C 	C 	0.21400 0.80530 0.77210 0.06400
H 	H 	0.23300 0.82790 0.75840 0.00700
C 	C 	0.31920 0.99490 0.66530 -0.21200
H 	H 	0.29850 0.01500 0.68090 0.09300
H 	H 	0.29880 0.97520 0.61010 0.09300
C 	C 	0.36910 0.82440 0.87060 0.39200
C 	C 	0.36760 0.54980 0.19320 0.07100
C 	C 	0.37880 0.87290 0.82900 -0.08000
C 	C 	0.37630 0.59730 0.15880 -0.07800
H 	H 	0.40830 0.60910 0.17950 0.07200
C 	C 	0.37950 0.41950 0.31940 -0.05200
H 	H 	0.41190 0.40940 0.35920 0.06300
C 	C 	0.38170 0.11490 0.61870 -0.08500
C 	C 	0.34400 0.08350 0.61030 -0.05600
H 	H 	0.31190 0.09440 0.56960 0.06200
C 	C 	0.35210 0.95310 0.73320 0.05600
C 	C 	0.34210 0.38600 0.31140 -0.08000
C 	C 	0.33800 0.62770 0.09360 -0.05100
C 	C 	0.34170 0.90430 0.76500 -0.05300
H 	H 	0.30940 0.89300 0.74260 0.06300
C 	C 	0.31970 0.53370 0.16450 -0.03800
C 	C 	0.39970 0.96780 0.76380 -0.00300
C 	C 	0.42830 0.10020 0.67920 0.00000
H 	H 	0.45400 0.12320 0.68600 0.03500
C 	C 	0.29480 0.40130 0.25380 0.00900
H 	H 	0.26960 0.37770 0.24780 0.04100
C 	C 	0.35320 0.03560 0.66190 0.05800
C 	C 	0.15890 0.74100 0.80820 -0.09600
H 	H 	0.14050 0.71810 0.82310 0.06500
C 	C 	0.40000 0.02000 0.72070 -0.00600
C 	C 	0.36870 0.46790 0.26830 0.05000
C 	C 	0.42630 0.88740 0.85840 0.00500
H 	H 	0.45160 0.86480 0.90160 0.04000
C 	C 	0.32040 0.48220 0.20960 0.01400
C 	C 	0.43790 0.05240 0.72980 -0.07200
H 	H 	0.47010 0.04180 0.77030 0.05200
C 	C 	0.28380 0.45090 0.20490 -0.07900
H 	H 	0.25140 0.46290 0.16890 0.06000
C 	C 	0.29070 0.61350 0.06750 -0.04500
H 	H 	0.26480 0.63650 0.02660 0.06200
C 	C 	0.43720 0.93440 0.82520 -0.06900
H 	H 	0.46950 0.94360 0.84420 0.05500
C 	C 	0.00870 0.79760 0.55660 -0.02200
C 	C 	0.16470 0.80900 0.72100 -0.10000
H 	H 	0.15030 0.83430 0.67360 0.06400
C 	C 	0.28170 0.56570 0.10180 0.01100
C 	C 	0.05540 0.76770 0.71670 0.28300
H 	H 	0.07010 0.76200 0.77620 -0.05500
C 	C 	0.00660 0.76610 0.66570 -0.19600
H 	H 	0.98850 0.75990 0.69140 0.08000
C 	C 	0.05700 0.81820 0.63420 -0.81100
H 	H 	0.06680 0.85730 0.64360 0.30100
C 	C 	0.05840 0.72600 0.68300 -0.42300
H 	H 	0.07520 0.69270 0.71460 0.16800
C 	C 	0.01010 0.72740 0.63500 0.20800
C 	C 	0.05740 0.79310 0.59550 0.67600
H 	H 	0.07350 0.80000 0.56640 -0.19600
