data_crystal

_cell_length_a 8.77960
_cell_length_b 14.85700
_cell_length_c 21.62100
_cell_angle_alpha 72.21200
_cell_angle_beta  81.68600
_cell_angle_gamma 83.57200

_symmetry_space_group_name_	'P 1'
_symmetry_space_group_name_H-M	'P 1'

loop_
_symmetry_equiv_pos_as_xyz
  x,y,z

loop_
_atom_site_label
_atom_site_type_symbol
_atom_site_fract_x
_atom_site_fract_y
_atom_site_fract_z
_atom_site_charge
C 	C 	0.96190 0.80040 0.60320 0.09900
H 	H 	0.99690 0.82200 0.63440 0.00700
C 	C 	0.88440 0.79570 0.51520 -0.00200
H 	H 	0.85490 0.81360 0.47320 0.03300
C 	C 	0.88780 0.70670 0.55660 0.00900
H 	H 	0.86150 0.65290 0.54830 0.03200
C 	C 	0.95740 0.63030 0.67150 0.00900
H 	H 	0.00290 0.65190 0.70230 0.00800
H 	H 	0.02830 0.58160 0.65980 0.01300
C 	C 	0.80610 0.58820 0.70400 0.04000
C 	C 	0.76860 0.50290 0.69990 -0.07700
H 	H 	0.83950 0.46880 0.67780 0.06600
C 	C 	0.69850 0.63720 0.73720 -0.07200
H 	H 	0.72140 0.69530 0.74000 0.06200
C 	C 	0.62710 0.46640 0.72810 -0.04100
H 	H 	0.60500 0.40820 0.72500 0.04000
C 	C 	0.55830 0.60270 0.76600 -0.04200
H 	H 	0.48970 0.63670 0.78900 0.04300
C 	C 	0.51790 0.51700 0.76120 0.00300
C 	C 	0.36330 0.48080 0.78980 0.00400
C 	C 	0.33790 0.38520 0.80850 -0.04700
H 	H 	0.42050 0.34180 0.80380 0.03900
C 	C 	0.23490 0.54300 0.79830 -0.04500
H 	H 	0.24710 0.60770 0.78650 0.04100
C 	C 	0.19340 0.35200 0.83380 -0.07200
H 	H 	0.18080 0.28740 0.84550 0.05200
C 	C 	0.09270 0.51100 0.82340 -0.07800
H 	H 	0.01040 0.55440 0.82840 0.04500
C 	C 	0.06750 0.41460 0.84190 0.03100
C 	C 	0.90650 0.38510 0.86900 -0.09100
H 	H 	0.87600 0.40270 0.90900 0.07300
H 	H 	0.83570 0.41950 0.83790 0.07200
C 	C 	0.93810 0.21460 0.93480 0.09600
H 	H 	0.97640 0.22620 0.96930 -0.00900
C 	C 	0.84280 0.23790 0.84370 -0.00900
H 	H 	0.80440 0.26690 0.80390 0.03500
C 	C 	0.86020 0.14410 0.87380 0.00400
H 	H 	0.83420 0.09660 0.85820 -0.00200
C 	C 	0.96470 0.06030 0.62810 0.14300
H 	H 	0.86430 0.08580 0.62220 -0.02500
C 	C 	0.18480 0.98390 0.61890 0.19500
H 	H 	0.26590 0.94630 0.60480 -0.03400
C 	C 	0.18470 0.02260 0.66650 -0.17700
H 	H 	0.26540 0.01700 0.69120 0.07300
C 	C 	0.00370 0.13630 0.71350 -0.24800
H 	H 	0.04480 0.10890 0.75510 0.08300
H 	H 	0.89220 0.14430 0.72220 0.11500
C 	C 	0.06700 0.23090 0.67960 0.16500
C 	C 	0.00470 0.29420 0.62560 -0.25200
H 	H 	0.91740 0.27900 0.61220 0.13700
C 	C 	0.19770 0.25660 0.69800 -0.17400
H 	H 	0.24280 0.21540 0.73350 0.08000
C 	C 	0.06730 0.37700 0.59210 0.06600
H 	H 	0.02220 0.41690 0.55620 -0.00900
C 	C 	0.26140 0.34030 0.66560 0.03300
H 	H 	0.34690 0.35520 0.68030 0.01500
C 	C 	0.20170 0.40490 0.61040 -0.06500
C 	C 	0.27380 0.49290 0.57380 0.02600
C 	C 	0.28190 0.52690 0.50520 -0.04700
H 	H 	0.23810 0.49410 0.48270 0.04000
C 	C 	0.34220 0.54430 0.60600 -0.04800
H 	H 	0.33820 0.52350 0.65130 0.04900
C 	C 	0.35340 0.60770 0.47120 -0.08800
H 	H 	0.35630 0.62940 0.42590 0.05700
C 	C 	0.41440 0.62410 0.57160 -0.08700
H 	H 	0.45950 0.65680 0.59380 0.06500
C 	C 	0.42200 0.65800 0.50330 0.07100
C 	C 	0.50520 0.74580 0.46510 -0.13800
H 	H 	0.60170 0.74310 0.48280 0.07700
H 	H 	0.53000 0.74560 0.42000 0.07600
C 	C 	0.27260 0.84900 0.49230 0.08700
H 	H 	0.20940 0.80040 0.51500 -0.00700
C 	C 	0.46530 0.91790 0.43690 -0.06800
H 	H 	0.56160 0.93030 0.41300 0.06800
C 	C 	0.34730 0.98640 0.44690 0.15300
H 	H 	0.35160 0.05180 0.43170 -0.07500
C 	C 	0.69960 0.92140 0.97770 0.15400
H 	H 	0.73140 0.93290 0.93320 -0.02100
C 	C 	0.69440 0.91010 0.07860 0.00500
H 	H 	0.72350 0.91290 0.11760 0.01400
C 	C 	0.56400 0.87620 0.07250 -0.00300
H 	H 	0.48680 0.85240 0.10610 0.03300
C 	C 	0.45040 0.85260 0.97710 -0.09200
H 	H 	0.46040 0.88640 0.93070 0.06500
H 	H 	0.34820 0.86980 0.99580 0.06500
C 	C 	0.46420 0.74690 0.98540 0.06700
C 	C 	0.41000 0.71510 0.94110 -0.05300
H 	H 	0.36250 0.75730 0.90670 0.04300
C 	C 	0.50450 0.68020 0.03950 -0.06200
H 	H 	0.52520 0.69940 0.07440 0.05700
C 	C 	0.42500 0.61800 0.94740 -0.10700
H 	H 	0.38750 0.59750 0.91640 0.06800
C 	C 	0.51660 0.58460 0.04550 -0.14000
H 	H 	0.54230 0.54170 0.08460 0.07900
C 	C 	0.49250 0.55150 0.99700 0.13800
N 	N 	0.93190 0.85580 0.54510 -0.21000
N 	N 	0.93640 0.71020 0.61250 -0.12100
N 	N 	0.92260 0.12970 0.93120 -0.24500
N 	N 	0.89250 0.28220 0.88320 -0.10700
N 	N 	0.04400 0.00830 0.59350 -0.31700
N 	N 	0.04500 0.07250 0.67290 -0.09800
N 	N 	0.22900 0.93940 0.48220 -0.25200
N 	N 	0.41610 0.83460 0.46680 -0.09600
N 	N 	0.77930 0.94040 0.01770 -0.24800
N 	N 	0.56550 0.88330 0.00760 -0.12900
C 	C 	0.03810 0.19960 0.39680 0.06600
H 	H 	0.00310 0.17800 0.36560 -0.02400
C 	C 	0.11560 0.20430 0.48480 -0.00100
H 	H 	0.14510 0.18640 0.52680 0.01600
C 	C 	0.11220 0.29330 0.44340 -0.02100
H 	H 	0.13850 0.34710 0.45170 0.03500
C 	C 	0.04260 0.36970 0.32850 -0.30700
H 	H 	0.99710 0.34810 0.29770 0.14200
H 	H 	0.97170 0.41840 0.34020 0.14900
C 	C 	0.19390 0.41180 0.29600 0.14600
C 	C 	0.23140 0.49710 0.30010 -0.15800
H 	H 	0.16050 0.53120 0.32220 0.07600
C 	C 	0.30150 0.36280 0.26280 -0.15500
H 	H 	0.27860 0.30470 0.26000 0.07300
C 	C 	0.37290 0.53360 0.27190 0.00200
H 	H 	0.39500 0.59180 0.27500 0.02300
C 	C 	0.44170 0.39730 0.23400 0.00100
H 	H 	0.51030 0.36330 0.21100 0.02100
C 	C 	0.48210 0.48300 0.23880 -0.02200
C 	C 	0.63670 0.51920 0.21020 -0.02000
C 	C 	0.66210 0.61480 0.19150 -0.00300
H 	H 	0.57950 0.65820 0.19620 0.02600
C 	C 	0.76510 0.45700 0.20170 0.00200
H 	H 	0.75290 0.39230 0.21350 0.02200
C 	C 	0.80660 0.64800 0.16620 -0.14100
H 	H 	0.81920 0.71260 0.15450 0.09100
C 	C 	0.90730 0.48900 0.17660 -0.15000
H 	H 	0.98960 0.44560 0.17160 0.08400
C 	C 	0.93250 0.58540 0.15810 0.14900
C 	C 	0.09350 0.61490 0.13100 -0.20600
H 	H 	0.12400 0.59730 0.09100 0.08400
H 	H 	0.16430 0.58050 0.16210 0.09100
C 	C 	0.06190 0.78540 0.06520 0.07300
H 	H 	0.02360 0.77380 0.03070 -0.03000
C 	C 	0.15720 0.76210 0.15630 -0.02300
H 	H 	0.19560 0.73310 0.19610 0.03400
C 	C 	0.13980 0.85590 0.12620 0.00100
H 	H 	0.16580 0.90340 0.14180 0.01100
C 	C 	0.03530 0.93970 0.37190 0.03000
H 	H 	0.13570 0.91420 0.37780 0.01300
C 	C 	0.81520 0.01610 0.38110 -0.20100
H 	H 	0.73410 0.05370 0.39520 0.07500
C 	C 	0.81530 0.97740 0.33350 0.15400
H 	H 	0.73460 0.98300 0.30880 -0.01400
C 	C 	0.99630 0.86370 0.28650 -0.02000
H 	H 	0.95520 0.89110 0.24490 0.04300
H 	H 	0.10780 0.85570 0.27780 0.01900
C 	C 	0.93300 0.76910 0.32040 -0.00400
C 	C 	0.99530 0.70580 0.37440 0.03900
H 	H 	0.08260 0.72100 0.38780 -0.00500
C 	C 	0.80230 0.74340 0.30200 -0.03100
H 	H 	0.75720 0.78460 0.26650 0.03900
C 	C 	0.93270 0.62300 0.40790 -0.11500
H 	H 	0.97780 0.58310 0.44380 0.07800
C 	C 	0.73860 0.65970 0.33440 -0.08400
H 	H 	0.65310 0.64480 0.31970 0.05700
C 	C 	0.79830 0.59510 0.38960 0.04700
C 	C 	0.72620 0.50710 0.42620 -0.02700
C 	C 	0.71810 0.47310 0.49480 -0.00500
H 	H 	0.76190 0.50590 0.51730 0.03400
C 	C 	0.65780 0.45570 0.39400 -0.01000
H 	H 	0.66180 0.47650 0.34870 0.03400
C 	C 	0.64660 0.39230 0.52880 -0.10900
H 	H 	0.64370 0.37060 0.57410 0.06600
C 	C 	0.58560 0.37590 0.42840 -0.11000
H 	H 	0.54050 0.34320 0.40620 0.07200
C 	C 	0.57800 0.34200 0.49670 0.08800
C 	C 	0.49480 0.25420 0.53490 -0.13800
H 	H 	0.39830 0.25690 0.51720 0.07400
H 	H 	0.47000 0.25440 0.58000 0.07400
C 	C 	0.72740 0.15100 0.50770 0.08400
H 	H 	0.79060 0.19960 0.48500 0.00700
C 	C 	0.53470 0.08210 0.56310 0.05300
H 	H 	0.43840 0.06970 0.58700 -0.00400
C 	C 	0.65270 0.01360 0.55310 -0.13400
H 	H 	0.64840 0.94820 0.56830 0.10500
C 	C 	0.30040 0.07860 0.02230 0.01600
H 	H 	0.26860 0.06710 0.06680 -0.02600
C 	C 	0.30560 0.08990 0.92140 -0.00700
H 	H 	0.27650 0.08710 0.88240 -0.01000
C 	C 	0.43600 0.12380 0.92750 -0.02000
H 	H 	0.51320 0.14760 0.89390 0.03000
C 	C 	0.54960 0.14740 0.02290 -0.16100
H 	H 	0.53960 0.11360 0.06930 0.05400
H 	H 	0.65180 0.13020 0.00420 0.04600
C 	C 	0.53580 0.25310 0.01460 0.09700
C 	C 	0.59000 0.28490 0.05890 -0.16700
H 	H 	0.63750 0.24270 0.09330 0.06800
C 	C 	0.49550 0.31980 0.96050 -0.13800
H 	H 	0.47480 0.30060 0.92560 0.08800
C 	C 	0.57500 0.38200 0.05260 0.05300
H 	H 	0.61250 0.40250 0.08360 0.00400
C 	C 	0.48340 0.41540 0.95450 0.08800
H 	H 	0.45770 0.45830 0.91540 0.00200
C 	C 	0.50750 0.44850 0.00300 -0.14400
N 	N 	0.06810 0.14420 0.45490 -0.24100
N 	N 	0.06360 0.28980 0.38750 -0.08600
N 	N 	0.07740 0.87030 0.06880 -0.24700
N 	N 	0.10750 0.71780 0.11680 -0.10000
N 	N 	0.95600 0.99170 0.40650 -0.14200
N 	N 	0.95500 0.92750 0.32710 -0.11800
N 	N 	0.77100 0.06060 0.51780 -0.21400
N 	N 	0.58390 0.16540 0.53320 -0.11900
N 	N 	0.22070 0.05960 0.98230 -0.23800
N 	N 	0.43450 0.11670 0.99240 -0.07500
Co	Co	0.00000 0.00000 0.50000 1.07500
Co	Co	-0.00000 0.00000 -0.00000 1.01300
