data_crystal

_cell_length_a 25.51910
_cell_length_b 25.51910
_cell_length_c 50.91000
_cell_angle_alpha 90.00000
_cell_angle_beta  90.00000
_cell_angle_gamma 90.00000

_symmetry_space_group_name_	'P 1'
_symmetry_space_group_name_H-M	'P 1'

loop_
_symmetry_equiv_pos_as_xyz
  x,y,z

loop_
_atom_site_label
_atom_site_type_symbol
_atom_site_fract_x
_atom_site_fract_y
_atom_site_fract_z
_atom_site_charge
C 	C 	0.23490 0.95750 0.93068 0.38100
C 	C 	0.22560 0.96170 0.90150 -0.09300
C 	C 	0.25450 0.93140 0.88423 0.01000
C 	C 	0.18850 0.99700 0.89272 -0.00100
C 	C 	0.35880 0.92410 0.89470 -0.36700
H 	H 	0.35330 0.95310 0.88240 0.12900
H 	H 	0.38770 0.90200 0.88850 0.11400
H 	H 	0.36750 0.93810 0.91210 0.12500
C 	C 	0.09450 0.99070 0.91760 -0.40600
H 	H 	0.08250 0.98360 0.89970 0.13600
H 	H 	0.06640 0.00820 0.92740 0.13900
H 	H 	0.10340 0.95760 0.92630 0.15600
S 	S 	0.40573 0.08831 0.02216 -0.00600
S 	S 	0.53063 0.11944 0.02525 0.13100
S 	S 	0.41800 0.06451 0.02275 0.14200
S 	S 	0.54374 0.09549 0.02615 -0.06100
O 	O 	0.36390 0.96080 0.01440 -0.28400
O 	O 	0.36050 0.00180 0.97549 -0.01600
O 	O 	0.37780 0.93710 0.01610 -0.31800
O 	O 	0.37130 0.97860 0.97780 -0.42600
C 	C 	0.38340 0.98470 0.99690 -0.20000
C 	C 	0.44080 0.99880 0.99838 -0.54600
C 	C 	0.45610 0.04590 0.00964 -0.07400
C 	C 	0.50890 0.05894 0.01093 -0.42700
C 	C 	0.45360 0.97520 0.99904 0.16700
C 	C 	0.46900 0.02240 0.01030 0.31200
C 	C 	0.52180 0.03542 0.01159 0.23000
C 	C 	0.39600 0.96130 0.99772 0.72200
C 	C 	0.39600 0.13070 0.99440 0.07100
H 	H 	0.39240 0.10960 0.97840 -0.00700
H 	H 	0.42620 0.15420 0.99260 -0.01600
H 	H 	0.36420 0.15150 0.99700 -0.14400
C 	C 	0.52900 0.09900 0.05940 -0.42400
H 	H 	0.55090 0.06780 0.06160 0.22500
H 	H 	0.49290 0.09090 0.06440 0.09300
H 	H 	0.54240 0.12740 0.07050 0.11200
C 	C 	0.41640 0.11330 0.99710 -0.65800
H 	H 	0.42010 0.09620 0.97990 0.23400
H 	H 	0.38300 0.13220 0.99770 0.27500
H 	H 	0.44530 0.13810 0.99960 0.21600
C 	C 	0.53500 0.07740 0.06020 -0.05500
H 	H 	0.54500 0.04070 0.06260 -0.07700
H 	H 	0.55680 0.09980 0.07130 0.03900
H 	H 	0.49800 0.08190 0.06510 0.05000
S 	S 	0.28290 0.27118 0.04564 0.06800
S 	S 	0.29087 0.14312 0.04517 -0.47900
S 	S 	0.32112 0.13773 0.04648 0.43000
S 	S 	0.33137 0.26070 0.04681 -0.02300
O 	O 	0.19480 0.33950 0.01590 -0.30200
O 	O 	0.25680 0.33940 0.98470 -0.55800
C 	C 	0.22470 0.31840 0.00060 0.54500
C 	C 	0.22710 0.25928 0.99972 -0.16500
C 	C 	0.25340 0.23340 0.01978 0.10700
C 	C 	0.25689 0.17900 0.01957 0.03500
C 	C 	0.23400 0.15056 0.99930 -0.07000
C 	C 	0.29229 0.17650 0.02076 0.06900
C 	C 	0.29577 0.23080 0.02055 -0.06400
C 	C 	0.22560 0.28460 0.06640 -0.40600
H 	H 	0.23670 0.30370 0.08210 0.14300
H 	H 	0.20030 0.30580 0.05650 0.16000
H 	H 	0.20920 0.25140 0.07160 0.13200
C 	C 	0.23860 0.13270 0.06910 -0.09200
H 	H 	0.20880 0.11560 0.06050 -0.01500
H 	H 	0.25150 0.11030 0.08340 -0.37500
H 	H 	0.22750 0.16650 0.07630 0.03000
C 	C 	0.26620 0.13970 0.06900 -0.31200
H 	H 	0.23340 0.13770 0.05910 0.24600
H 	H 	0.26840 0.11000 0.08120 0.50000
H 	H 	0.26720 0.17250 0.07900 0.11000
C 	C 	0.39610 0.24850 0.03280 -0.32800
H 	H 	0.40510 0.21140 0.03490 0.10300
H 	H 	0.39580 0.25730 0.01400 0.10800
H 	H 	0.42220 0.27010 0.04180 0.10200
O 	O 	0.14070 0.35650 0.02840 -0.68300
H 	H 	0.11100 0.35400 0.02100 0.27700
H 	H 	0.14000 0.32800 0.03700 0.29600
O 	O 	0.28240 0.07060 0.98528 -0.50200
O 	O 	0.20890 0.92470 0.94306 -0.46900
O 	O 	0.26930 0.98880 0.93950 -0.49700
S 	S 	0.29974 0.88529 0.89690 0.01000
S 	S 	0.15167 0.03258 0.91663 0.00600
Zn	Zn	0.28979 0.99630 0.97611 1.20700
Zn	Zn	0.19714 0.91168 0.98109 1.24700
C 	C 	0.73490 0.45750 0.43068 0.38400
C 	C 	0.72560 0.46170 0.40150 -0.09900
C 	C 	0.75450 0.43140 0.38423 0.01400
C 	C 	0.68850 0.49700 0.39272 0.01700
C 	C 	0.85880 0.42410 0.39470 -0.36800
H 	H 	0.85330 0.45310 0.38240 0.13100
H 	H 	0.88770 0.40200 0.38850 0.11400
H 	H 	0.86750 0.43810 0.41210 0.12600
C 	C 	0.59450 0.49070 0.41760 -0.37200
H 	H 	0.58250 0.48360 0.39970 0.12900
H 	H 	0.56640 0.50820 0.42740 0.12400
H 	H 	0.60340 0.45760 0.42630 0.14700
S 	S 	0.90573 0.58831 0.52216 0.04700
S 	S 	0.03063 0.61944 0.52525 0.14900
S 	S 	0.91800 0.56451 0.52275 0.11800
S 	S 	0.04374 0.59549 0.52615 -0.07500
O 	O 	0.86390 0.46080 0.51440 -0.24700
O 	O 	0.86050 0.50180 0.47549 -0.04300
O 	O 	0.87780 0.43710 0.51610 -0.35700
O 	O 	0.87130 0.47860 0.47780 -0.38600
C 	C 	0.88340 0.48470 0.49690 -0.25500
C 	C 	0.94080 0.49880 0.49838 -0.61600
C 	C 	0.95610 0.54590 0.50964 -0.14800
C 	C 	0.00890 0.55894 0.51093 -0.43100
C 	C 	0.95360 0.47520 0.49904 0.22800
C 	C 	0.96900 0.52240 0.51030 0.41000
C 	C 	0.02180 0.53542 0.51159 0.24800
C 	C 	0.89600 0.46130 0.49772 0.77000
C 	C 	0.89600 0.63070 0.49440 0.06900
H 	H 	0.89240 0.60960 0.47840 -0.00700
H 	H 	0.92620 0.65420 0.49260 -0.01500
H 	H 	0.86420 0.65150 0.49700 -0.15300
C 	C 	0.02900 0.59900 0.55940 -0.42700
H 	H 	0.05090 0.56780 0.56160 0.22900
H 	H 	0.99290 0.59090 0.56440 0.09400
H 	H 	0.04240 0.62740 0.57050 0.11200
C 	C 	0.91640 0.61330 0.49710 -0.69500
H 	H 	0.92010 0.59620 0.47990 0.25000
H 	H 	0.88300 0.63220 0.49770 0.29000
H 	H 	0.94530 0.63810 0.49960 0.22600
C 	C 	0.03500 0.57740 0.56020 -0.05700
H 	H 	0.04500 0.54070 0.56260 -0.08100
H 	H 	0.05680 0.59980 0.57130 0.03900
H 	H 	0.99800 0.58190 0.56510 0.04900
S 	S 	0.78290 0.77118 0.54564 0.07100
S 	S 	0.79087 0.64312 0.54517 -0.49100
S 	S 	0.82112 0.63773 0.54648 0.43700
S 	S 	0.83137 0.76070 0.54681 -0.02600
O 	O 	0.69480 0.83950 0.51590 -0.30100
O 	O 	0.75680 0.83940 0.48470 -0.55800
C 	C 	0.72470 0.81840 0.50060 0.54200
C 	C 	0.72710 0.75928 0.49972 -0.15900
C 	C 	0.75340 0.73340 0.51978 0.10200
C 	C 	0.75689 0.67900 0.51957 0.04000
C 	C 	0.73400 0.65056 0.49930 -0.07300
C 	C 	0.79229 0.67650 0.52076 0.06600
C 	C 	0.79577 0.73080 0.52055 -0.05900
C 	C 	0.72560 0.78460 0.56640 -0.40700
H 	H 	0.73670 0.80370 0.58210 0.14400
H 	H 	0.70030 0.80580 0.55650 0.16000
H 	H 	0.70920 0.75140 0.57160 0.13200
C 	C 	0.73860 0.63270 0.56910 -0.08800
H 	H 	0.70880 0.61560 0.56050 -0.01600
H 	H 	0.75150 0.61030 0.58340 -0.37600
H 	H 	0.72750 0.66650 0.57630 0.02900
C 	C 	0.76620 0.63970 0.56900 -0.30600
H 	H 	0.73340 0.63770 0.55910 0.24300
H 	H 	0.76840 0.61000 0.58120 0.49800
H 	H 	0.76720 0.67250 0.57900 0.10800
C 	C 	0.89610 0.74850 0.53280 -0.32300
H 	H 	0.90510 0.71140 0.53490 0.10000
H 	H 	0.89580 0.75730 0.51400 0.10600
H 	H 	0.92220 0.77010 0.54180 0.10000
O 	O 	0.64070 0.85650 0.52840 -0.68500
H 	H 	0.61100 0.85400 0.52100 0.27700
H 	H 	0.64000 0.82800 0.53700 0.29600
O 	O 	0.78240 0.57060 0.48528 -0.50200
O 	O 	0.70890 0.42470 0.44306 -0.46900
O 	O 	0.76930 0.48880 0.43950 -0.49500
S 	S 	0.79974 0.38529 0.39690 0.01000
S 	S 	0.65167 0.53258 0.41663 -0.01200
Zn	Zn	0.78979 0.49630 0.47611 1.20900
Zn	Zn	0.69714 0.41168 0.48109 1.24700
C 	C 	0.26510 0.04250 0.43068 0.38700
C 	C 	0.27440 0.03830 0.40150 -0.10500
C 	C 	0.24550 0.06860 0.38423 0.01800
C 	C 	0.31150 0.00300 0.39272 0.03500
C 	C 	0.14120 0.07590 0.39470 -0.36800
H 	H 	0.14670 0.04690 0.38240 0.13200
H 	H 	0.11230 0.09800 0.38850 0.11500
H 	H 	0.13250 0.06190 0.41210 0.12700
C 	C 	0.40550 0.00930 0.41760 -0.33700
H 	H 	0.41750 0.01640 0.39970 0.12100
H 	H 	0.43360 0.99180 0.42740 0.10900
H 	H 	0.39660 0.04240 0.42630 0.13800
S 	S 	0.09427 0.91169 0.52216 0.09700
S 	S 	0.96937 0.88056 0.52525 0.16600
S 	S 	0.08200 0.93549 0.52275 0.09600
S 	S 	0.95626 0.90451 0.52615 -0.08700
O 	O 	0.13610 0.03920 0.51440 -0.21100
O 	O 	0.13950 0.99820 0.47549 -0.07200
O 	O 	0.12220 0.06290 0.51610 -0.39500
O 	O 	0.12870 0.02140 0.47780 -0.34400
C 	C 	0.11660 0.01530 0.49690 -0.30800
C 	C 	0.05920 0.00120 0.49838 -0.68200
C 	C 	0.04390 0.95410 0.50964 -0.21800
C 	C 	0.99110 0.94106 0.51093 -0.43500
C 	C 	0.04640 0.02480 0.49904 0.28500
C 	C 	0.03100 0.97760 0.51030 0.50200
C 	C 	0.97820 0.96458 0.51159 0.26700
C 	C 	0.10400 0.03870 0.49772 0.81400
C 	C 	0.10400 0.86930 0.49440 0.06700
H 	H 	0.10760 0.89040 0.47840 -0.00700
H 	H 	0.07380 0.84580 0.49260 -0.01400
H 	H 	0.13580 0.84850 0.49700 -0.16100
C 	C 	0.97100 0.90100 0.55940 -0.43100
H 	H 	0.94910 0.93220 0.56160 0.23400
H 	H 	0.00710 0.90910 0.56440 0.09400
H 	H 	0.95760 0.87260 0.57050 0.11300
C 	C 	0.08360 0.88670 0.49710 -0.73100
H 	H 	0.07990 0.90380 0.47990 0.26500
H 	H 	0.11700 0.86780 0.49770 0.30500
H 	H 	0.05470 0.86190 0.49960 0.23600
C 	C 	0.96500 0.92260 0.56020 -0.05800
H 	H 	0.95500 0.95930 0.56260 -0.08500
H 	H 	0.94320 0.90020 0.57130 0.03900
H 	H 	0.00200 0.91810 0.56510 0.04800
S 	S 	0.21710 0.72882 0.54564 0.07200
S 	S 	0.20913 0.85688 0.54517 -0.50200
S 	S 	0.17888 0.86227 0.54648 0.44200
S 	S 	0.16863 0.73930 0.54681 -0.02800
O 	O 	0.30520 0.66050 0.51590 -0.30100
O 	O 	0.24320 0.66060 0.48470 -0.55800
C 	C 	0.27530 0.68160 0.50060 0.54100
C 	C 	0.27290 0.74072 0.49972 -0.15800
C 	C 	0.24660 0.76660 0.51978 0.10100
C 	C 	0.24311 0.82100 0.51957 0.04200
C 	C 	0.26600 0.84944 0.49930 -0.07400
C 	C 	0.20771 0.82350 0.52076 0.06700
C 	C 	0.20423 0.76920 0.52055 -0.06000
C 	C 	0.27440 0.71540 0.56640 -0.40800
H 	H 	0.26330 0.69630 0.58210 0.14400
H 	H 	0.29970 0.69420 0.55650 0.16000
H 	H 	0.29080 0.74860 0.57160 0.13200
C 	C 	0.26140 0.86730 0.56910 -0.08500
H 	H 	0.29120 0.88440 0.56050 -0.01600
H 	H 	0.24850 0.88970 0.58340 -0.37800
H 	H 	0.27250 0.83350 0.57630 0.02800
C 	C 	0.23380 0.86030 0.56900 -0.30000
H 	H 	0.26660 0.86230 0.55910 0.24000
H 	H 	0.23160 0.89000 0.58120 0.49700
H 	H 	0.23280 0.82750 0.57900 0.10700
C 	C 	0.10390 0.75150 0.53280 -0.32200
H 	H 	0.09490 0.78860 0.53490 0.09800
H 	H 	0.10420 0.74270 0.51400 0.10600
H 	H 	0.07780 0.72990 0.54180 0.10000
O 	O 	0.35930 0.64350 0.52840 -0.68300
H 	H 	0.38900 0.64600 0.52100 0.27700
H 	H 	0.36000 0.67200 0.53700 0.29600
O 	O 	0.21760 0.92940 0.48528 -0.50300
O 	O 	0.29110 0.07530 0.44306 -0.46900
O 	O 	0.23070 0.01120 0.43950 -0.49300
S 	S 	0.20026 0.11471 0.39690 0.00900
S 	S 	0.34833 0.96742 0.41663 -0.03100
Zn	Zn	0.21021 0.00370 0.47611 1.21100
Zn	Zn	0.30286 0.08832 0.48109 1.24700
C 	C 	0.76510 0.54250 0.93068 0.38400
C 	C 	0.77440 0.53830 0.90150 -0.09900
C 	C 	0.74550 0.56860 0.88423 0.01400
C 	C 	0.81150 0.50300 0.89272 0.01700
C 	C 	0.64120 0.57590 0.89470 -0.36700
H 	H 	0.64670 0.54690 0.88240 0.13100
H 	H 	0.61230 0.59800 0.88850 0.11400
H 	H 	0.63250 0.56190 0.91210 0.12600
C 	C 	0.90550 0.50930 0.91760 -0.37100
H 	H 	0.91750 0.51640 0.89970 0.12900
H 	H 	0.93360 0.49180 0.92740 0.12400
H 	H 	0.89660 0.54240 0.92630 0.14700
S 	S 	0.59427 0.41169 0.02216 0.04400
S 	S 	0.46937 0.38056 0.02525 0.14800
S 	S 	0.58200 0.43549 0.02275 0.12000
S 	S 	0.45626 0.40451 0.02615 -0.07300
O 	O 	0.63610 0.53920 0.01440 -0.24800
O 	O 	0.63950 0.49820 0.97549 -0.04500
O 	O 	0.62220 0.56290 0.01610 -0.35600
O 	O 	0.62870 0.52140 0.97780 -0.38400
C 	C 	0.61660 0.51530 0.99690 -0.25400
C 	C 	0.55920 0.50120 0.99838 -0.61300
C 	C 	0.54390 0.45410 0.00964 -0.14500
C 	C 	0.49110 0.44106 0.01093 -0.43200
C 	C 	0.54640 0.52480 0.99904 0.22500
C 	C 	0.53100 0.47760 0.01030 0.40600
C 	C 	0.47820 0.46458 0.01159 0.24900
C 	C 	0.60400 0.53870 0.99772 0.76600
C 	C 	0.60400 0.36930 0.99440 0.06900
H 	H 	0.60760 0.39040 0.97840 -0.00700
H 	H 	0.57380 0.34580 0.99260 -0.01500
H 	H 	0.63580 0.34850 0.99700 -0.15300
C 	C 	0.47100 0.40100 0.05940 -0.42800
H 	H 	0.44910 0.43220 0.06160 0.22900
H 	H 	0.50710 0.40910 0.06440 0.09400
H 	H 	0.45760 0.37260 0.07050 0.11200
C 	C 	0.58360 0.38670 0.99710 -0.69500
H 	H 	0.57990 0.40380 0.97990 0.25000
H 	H 	0.61700 0.36780 0.99770 0.29000
H 	H 	0.55470 0.36190 0.99960 0.22600
C 	C 	0.46500 0.42260 0.06020 -0.05700
H 	H 	0.45500 0.45930 0.06260 -0.08100
H 	H 	0.44320 0.40020 0.07130 0.03900
H 	H 	0.50200 0.41810 0.06510 0.04900
S 	S 	0.71710 0.22882 0.04564 0.07000
S 	S 	0.70913 0.35688 0.04517 -0.49000
S 	S 	0.67888 0.36227 0.04648 0.43500
S 	S 	0.66863 0.23930 0.04681 -0.02400
O 	O 	0.80520 0.16050 0.01590 -0.30300
O 	O 	0.74320 0.16060 0.98470 -0.55800
C 	C 	0.77530 0.18160 0.00060 0.54500
C 	C 	0.77290 0.24072 0.99972 -0.16400
C 	C 	0.74660 0.26660 0.01978 0.10600
C 	C 	0.74311 0.32100 0.01957 0.03600
C 	C 	0.76600 0.34944 0.99930 -0.07100
C 	C 	0.70771 0.32350 0.02076 0.07100
C 	C 	0.70423 0.26920 0.02055 -0.06400
C 	C 	0.77440 0.21540 0.06640 -0.40700
H 	H 	0.76330 0.19630 0.08210 0.14400
H 	H 	0.79970 0.19420 0.05650 0.16000
H 	H 	0.79080 0.24860 0.07160 0.13200
C 	C 	0.76140 0.36730 0.06910 -0.08900
H 	H 	0.79120 0.38440 0.06050 -0.01500
H 	H 	0.74850 0.38970 0.08340 -0.37600
H 	H 	0.77250 0.33350 0.07630 0.02900
C 	C 	0.73380 0.36030 0.06900 -0.30600
H 	H 	0.76660 0.36230 0.05910 0.24300
H 	H 	0.73160 0.39000 0.08120 0.49900
H 	H 	0.73280 0.32750 0.07900 0.10800
C 	C 	0.60390 0.25150 0.03280 -0.32600
H 	H 	0.59490 0.28860 0.03490 0.10100
H 	H 	0.60420 0.24270 0.01400 0.10700
H 	H 	0.57780 0.22990 0.04180 0.10200
O 	O 	0.85930 0.14350 0.02840 -0.68100
H 	H 	0.88900 0.14600 0.02100 0.27700
H 	H 	0.86000 0.17200 0.03700 0.29600
O 	O 	0.71760 0.42940 0.98528 -0.50300
O 	O 	0.79110 0.57530 0.94306 -0.46900
O 	O 	0.73070 0.51120 0.93950 -0.49500
S 	S 	0.70026 0.61471 0.89690 0.01000
S 	S 	0.84833 0.46742 0.91663 -0.01200
Zn	Zn	0.71021 0.50370 0.97611 1.20900
Zn	Zn	0.80286 0.58832 0.98109 1.24700
C 	C 	0.29250 0.98490 0.18068 0.37900
C 	C 	0.28830 0.97560 0.15150 -0.11000
C 	C 	0.31860 0.00450 0.13423 0.03200
C 	C 	0.25300 0.93850 0.14272 0.02100
C 	C 	0.32590 0.10880 0.14470 -0.36700
H 	H 	0.29690 0.10330 0.13240 0.13100
H 	H 	0.34800 0.13770 0.13850 0.11400
H 	H 	0.31190 0.11750 0.16210 0.12600
C 	C 	0.25930 0.84450 0.16760 -0.37000
H 	H 	0.26640 0.83250 0.14970 0.12800
H 	H 	0.24180 0.81640 0.17740 0.12300
H 	H 	0.29240 0.85340 0.17630 0.14700
S 	S 	0.16169 0.15573 0.27216 0.04600
S 	S 	0.13056 0.28063 0.27525 0.14900
S 	S 	0.18549 0.16800 0.27275 0.12000
S 	S 	0.15451 0.29374 0.27615 -0.07400
O 	O 	0.28920 0.11390 0.26440 -0.24700
O 	O 	0.24820 0.11050 0.22549 -0.04300
O 	O 	0.31290 0.12780 0.26610 -0.35700
O 	O 	0.27140 0.12130 0.22780 -0.38600
C 	C 	0.26530 0.13340 0.24690 -0.25500
C 	C 	0.25120 0.19080 0.24838 -0.61600
C 	C 	0.20410 0.20610 0.25964 -0.14700
C 	C 	0.19106 0.25890 0.26093 -0.43400
C 	C 	0.27480 0.20360 0.24904 0.22700
C 	C 	0.22760 0.21900 0.26030 0.40900
C 	C 	0.21458 0.27180 0.26159 0.25000
C 	C 	0.28870 0.14600 0.24772 0.76900
C 	C 	0.11930 0.14600 0.24440 0.06900
H 	H 	0.14040 0.14240 0.22840 -0.00700
H 	H 	0.09580 0.17620 0.24260 -0.01500
H 	H 	0.09850 0.11420 0.24700 -0.15300
C 	C 	0.15100 0.27900 0.30940 -0.42800
H 	H 	0.18220 0.30090 0.31160 0.22900
H 	H 	0.15910 0.24290 0.31440 0.09400
H 	H 	0.12260 0.29240 0.32050 0.11200
C 	C 	0.13670 0.16640 0.24710 -0.69600
H 	H 	0.15380 0.17010 0.22990 0.25000
H 	H 	0.11780 0.13300 0.24770 0.29100
H 	H 	0.11190 0.19530 0.24960 0.22700
C 	C 	0.17260 0.28500 0.31020 -0.05700
H 	H 	0.20930 0.29500 0.31260 -0.08100
H 	H 	0.15020 0.30680 0.32130 0.03900
H 	H 	0.16810 0.24800 0.31510 0.04900
S 	S 	0.97882 0.03290 0.29564 0.07600
S 	S 	0.10688 0.04087 0.29517 -0.48600
S 	S 	0.11227 0.07112 0.29648 0.42000
S 	S 	0.98930 0.08137 0.29681 -0.01600
O 	O 	0.91050 0.94480 0.26590 -0.30400
O 	O 	0.91060 0.00680 0.23470 -0.55200
C 	C 	0.93160 0.97470 0.25060 0.55200
C 	C 	0.99072 0.97710 0.24972 -0.20600
C 	C 	0.01660 0.00340 0.26978 0.14600
C 	C 	0.07100 0.00689 0.26957 -0.00400
C 	C 	0.09944 0.98400 0.24930 -0.02100
C 	C 	0.07350 0.04229 0.27076 0.13400
C 	C 	0.01920 0.04577 0.27055 -0.11700
C 	C 	0.96540 0.97560 0.31640 -0.41600
H 	H 	0.94630 0.98670 0.33210 0.14400
H 	H 	0.94420 0.95030 0.30650 0.16200
H 	H 	0.99860 0.95920 0.32160 0.13300
C 	C 	0.11730 0.98860 0.31910 -0.07100
H 	H 	0.13440 0.95880 0.31050 -0.01600
H 	H 	0.13970 0.00150 0.33340 -0.37800
H 	H 	0.08350 0.97750 0.32630 0.02200
C 	C 	0.11030 0.01620 0.31900 -0.29900
H 	H 	0.11230 0.98340 0.30910 0.22700
H 	H 	0.14000 0.01840 0.33120 0.49700
H 	H 	0.07750 0.01720 0.32900 0.10900
C 	C 	0.00150 0.14610 0.28280 -0.32900
H 	H 	0.03860 0.15510 0.28490 0.10200
H 	H 	0.99270 0.14580 0.26400 0.10800
H 	H 	0.97990 0.17220 0.29180 0.10200
O 	O 	0.89350 0.89070 0.27840 -0.68300
H 	H 	0.89600 0.86100 0.27100 0.27700
H 	H 	0.92200 0.89000 0.28700 0.29600
O 	O 	0.17940 0.03240 0.23528 -0.50400
O 	O 	0.32530 0.95890 0.19306 -0.47000
O 	O 	0.26120 0.01930 0.18950 -0.48900
S 	S 	0.36471 0.04974 0.14690 0.00900
S 	S 	0.21742 0.90167 0.16663 -0.01500
Zn	Zn	0.25370 0.03979 0.22611 1.20900
Zn	Zn	0.33832 0.94714 0.23109 1.24600
C 	C 	0.79250 0.48490 0.68068 0.38400
C 	C 	0.78830 0.47560 0.65150 -0.09900
C 	C 	0.81860 0.50450 0.63423 0.01400
C 	C 	0.75300 0.43850 0.64272 0.01700
C 	C 	0.82590 0.60880 0.64470 -0.36700
H 	H 	0.79690 0.60330 0.63240 0.13100
H 	H 	0.84800 0.63770 0.63850 0.11400
H 	H 	0.81190 0.61750 0.66210 0.12600
C 	C 	0.75930 0.34450 0.66760 -0.37200
H 	H 	0.76640 0.33250 0.64970 0.12900
H 	H 	0.74180 0.31640 0.67740 0.12400
H 	H 	0.79240 0.35340 0.67630 0.14700
S 	S 	0.66169 0.65573 0.77216 0.04600
S 	S 	0.63056 0.78063 0.77525 0.14800
S 	S 	0.68549 0.66800 0.77275 0.11800
S 	S 	0.65451 0.79374 0.77615 -0.07300
O 	O 	0.78920 0.61390 0.76440 -0.24800
O 	O 	0.74820 0.61050 0.72549 -0.04400
O 	O 	0.81290 0.62780 0.76610 -0.35600
O 	O 	0.77140 0.62130 0.72780 -0.38500
C 	C 	0.76530 0.63340 0.74690 -0.25400
C 	C 	0.75120 0.69080 0.74838 -0.61300
C 	C 	0.70410 0.70610 0.75964 -0.14700
C 	C 	0.69106 0.75890 0.76093 -0.43000
C 	C 	0.77480 0.70360 0.74904 0.22600
C 	C 	0.72760 0.71900 0.76030 0.40700
C 	C 	0.71458 0.77180 0.76159 0.24800
C 	C 	0.78870 0.64600 0.74772 0.76800
C 	C 	0.61930 0.64600 0.74440 0.06900
H 	H 	0.64040 0.64240 0.72840 -0.00700
H 	H 	0.59580 0.67620 0.74260 -0.01500
H 	H 	0.59850 0.61420 0.74700 -0.15300
C 	C 	0.65100 0.77900 0.80940 -0.42700
H 	H 	0.68220 0.80090 0.81160 0.22900
H 	H 	0.65910 0.74290 0.81440 0.09400
H 	H 	0.62260 0.79240 0.82050 0.11200
C 	C 	0.63670 0.66640 0.74710 -0.69400
H 	H 	0.65380 0.67010 0.72990 0.25000
H 	H 	0.61780 0.63300 0.74770 0.29000
H 	H 	0.61190 0.69530 0.74960 0.22600
C 	C 	0.67260 0.78500 0.81020 -0.05600
H 	H 	0.70930 0.79500 0.81260 -0.08100
H 	H 	0.65020 0.80680 0.82130 0.03900
H 	H 	0.66810 0.74800 0.81510 0.04900
S 	S 	0.47882 0.53290 0.79564 0.07100
S 	S 	0.60688 0.54087 0.79517 -0.49100
S 	S 	0.61227 0.57112 0.79648 0.43700
S 	S 	0.48930 0.58137 0.79681 -0.02600
O 	O 	0.41050 0.44480 0.76590 -0.30100
O 	O 	0.41060 0.50680 0.73470 -0.55800
C 	C 	0.43160 0.47470 0.75060 0.54200
C 	C 	0.49072 0.47710 0.74972 -0.15900
C 	C 	0.51660 0.50340 0.76978 0.10200
C 	C 	0.57100 0.50689 0.76957 0.04000
C 	C 	0.59944 0.48400 0.74930 -0.07300
C 	C 	0.57350 0.54229 0.77076 0.06600
C 	C 	0.51920 0.54577 0.77055 -0.05900
C 	C 	0.46540 0.47560 0.81640 -0.40700
H 	H 	0.44630 0.48670 0.83210 0.14400
H 	H 	0.44420 0.45030 0.80650 0.16000
H 	H 	0.49860 0.45920 0.82160 0.13200
C 	C 	0.61730 0.48860 0.81910 -0.08800
H 	H 	0.63440 0.45880 0.81050 -0.01600
H 	H 	0.63970 0.50150 0.83340 -0.37600
H 	H 	0.58350 0.47750 0.82630 0.02900
C 	C 	0.61030 0.51620 0.81900 -0.30600
H 	H 	0.61230 0.48340 0.80910 0.24300
H 	H 	0.64000 0.51840 0.83120 0.49800
H 	H 	0.57750 0.51720 0.82900 0.10800
C 	C 	0.50150 0.64610 0.78280 -0.32400
H 	H 	0.53860 0.65510 0.78490 0.10000
H 	H 	0.49270 0.64580 0.76400 0.10700
H 	H 	0.47990 0.67220 0.79180 0.10100
O 	O 	0.39350 0.39070 0.77840 -0.68300
H 	H 	0.39600 0.36100 0.77100 0.27700
H 	H 	0.42200 0.39000 0.78700 0.29600
O 	O 	0.67940 0.53240 0.73528 -0.50200
O 	O 	0.82530 0.45890 0.69306 -0.46900
O 	O 	0.76120 0.51930 0.68950 -0.49500
S 	S 	0.86471 0.54974 0.64690 0.01000
S 	S 	0.71742 0.40167 0.66663 -0.01200
Zn	Zn	0.75370 0.53979 0.72611 1.20900
Zn	Zn	0.83832 0.44714 0.73109 1.24700
C 	C 	0.20750 0.01510 0.68068 0.38900
C 	C 	0.21170 0.02440 0.65150 -0.08800
C 	C 	0.18140 0.99550 0.63423 -0.00400
C 	C 	0.24700 0.06150 0.64272 0.01300
C 	C 	0.17410 0.89120 0.64470 -0.36800
H 	H 	0.20310 0.89670 0.63240 0.13100
H 	H 	0.15200 0.86230 0.63850 0.11400
H 	H 	0.18810 0.88250 0.66210 0.12600
C 	C 	0.24070 0.15550 0.66760 -0.37300
H 	H 	0.23360 0.16750 0.64970 0.12900
H 	H 	0.25820 0.18360 0.67740 0.12400
H 	H 	0.20760 0.14660 0.67630 0.14700
S 	S 	0.33831 0.84427 0.77216 0.04800
S 	S 	0.36944 0.71937 0.77525 0.14900
S 	S 	0.31451 0.83200 0.77275 0.11500
S 	S 	0.34549 0.70626 0.77615 -0.07500
O 	O 	0.21080 0.88610 0.76440 -0.24800
O 	O 	0.25180 0.88950 0.72549 -0.04200
O 	O 	0.18710 0.87220 0.76610 -0.35700
O 	O 	0.22860 0.87870 0.72780 -0.38700
C 	C 	0.23470 0.86660 0.74690 -0.25600
C 	C 	0.24880 0.80920 0.74838 -0.61700
C 	C 	0.29590 0.79390 0.75964 -0.14800
C 	C 	0.30894 0.74110 0.76093 -0.42900
C 	C 	0.22520 0.79640 0.74904 0.22800
C 	C 	0.27240 0.78100 0.76030 0.41000
C 	C 	0.28542 0.72820 0.76159 0.24700
C 	C 	0.21130 0.85400 0.74772 0.77100
C 	C 	0.38070 0.85400 0.74440 0.06900
H 	H 	0.35960 0.85760 0.72840 -0.00700
H 	H 	0.40420 0.82380 0.74260 -0.01500
H 	H 	0.40150 0.88580 0.74700 -0.15100
C 	C 	0.34900 0.72100 0.80940 -0.42700
H 	H 	0.31780 0.69910 0.81160 0.22900
H 	H 	0.34090 0.75710 0.81440 0.09400
H 	H 	0.37740 0.70760 0.82050 0.11200
C 	C 	0.36330 0.83360 0.74710 -0.69400
H 	H 	0.34620 0.82990 0.72990 0.25000
H 	H 	0.38220 0.86700 0.74770 0.28900
H 	H 	0.38810 0.80470 0.74960 0.22600
C 	C 	0.32740 0.71500 0.81020 -0.05600
H 	H 	0.29070 0.70500 0.81260 -0.08100
H 	H 	0.34980 0.69320 0.82130 0.03900
H 	H 	0.33190 0.75200 0.81510 0.04900
S 	S 	0.52118 0.96710 0.79564 0.06700
S 	S 	0.39312 0.95913 0.79517 -0.49100
S 	S 	0.38773 0.92888 0.79648 0.45100
S 	S 	0.51070 0.91863 0.79681 -0.03900
O 	O 	0.58950 0.05520 0.76590 -0.29900
O 	O 	0.58940 0.99320 0.73470 -0.56400
C 	C 	0.56840 0.02530 0.75060 0.53000
C 	C 	0.50928 0.02290 0.74972 -0.10800
C 	C 	0.48340 0.99660 0.76978 0.04900
C 	C 	0.42900 0.99311 0.76957 0.09800
C 	C 	0.40056 0.01600 0.74930 -0.13400
C 	C 	0.42650 0.95771 0.77076 -0.01200
C 	C 	0.48080 0.95423 0.77055 0.00400
C 	C 	0.53460 0.02440 0.81640 -0.39900
H 	H 	0.55370 0.01330 0.83210 0.14400
H 	H 	0.55580 0.04970 0.80650 0.15900
H 	H 	0.50140 0.04080 0.82160 0.13100
C 	C 	0.38270 0.01140 0.81910 -0.10800
H 	H 	0.36560 0.04120 0.81050 -0.01500
H 	H 	0.36030 0.99850 0.83340 -0.37400
H 	H 	0.41650 0.02250 0.82630 0.03700
C 	C 	0.38970 0.98380 0.81900 -0.31500
H 	H 	0.38770 0.01660 0.80910 0.26000
H 	H 	0.36000 0.98160 0.83120 0.50000
H 	H 	0.42250 0.98280 0.82900 0.10800
C 	C 	0.49850 0.85390 0.78280 -0.31800
H 	H 	0.46140 0.84490 0.78490 0.09900
H 	H 	0.50730 0.85420 0.76400 0.10400
H 	H 	0.52010 0.82780 0.79180 0.10000
O 	O 	0.60650 0.10930 0.77840 -0.68400
H 	H 	0.60400 0.13900 0.77100 0.27700
H 	H 	0.57800 0.11000 0.78700 0.29600
O 	O 	0.32060 0.96760 0.73528 -0.51100
O 	O 	0.17470 0.04110 0.69306 -0.46900
O 	O 	0.23880 0.98070 0.68950 -0.50100
S 	S 	0.13529 0.95026 0.64690 0.01000
S 	S 	0.28258 0.09833 0.66663 -0.00900
Zn	Zn	0.24630 0.96021 0.72611 1.20800
Zn	Zn	0.16168 0.05286 0.73109 1.24800
C 	C 	0.70750 0.51510 0.18068 0.38400
C 	C 	0.71170 0.52440 0.15150 -0.09900
C 	C 	0.68140 0.49550 0.13423 0.01400
C 	C 	0.74700 0.56150 0.14272 0.01700
C 	C 	0.67410 0.39120 0.14470 -0.36700
H 	H 	0.70310 0.39670 0.13240 0.13100
H 	H 	0.65200 0.36230 0.13850 0.11400
H 	H 	0.68810 0.38250 0.16210 0.12600
C 	C 	0.74070 0.65550 0.16760 -0.37100
H 	H 	0.73360 0.66750 0.14970 0.12900
H 	H 	0.75820 0.68360 0.17740 0.12400
H 	H 	0.70760 0.64660 0.17630 0.14700
S 	S 	0.83831 0.34427 0.27216 0.04800
S 	S 	0.86944 0.21937 0.27525 0.15000
S 	S 	0.81451 0.33200 0.27275 0.11700
S 	S 	0.84549 0.20626 0.27615 -0.07500
O 	O 	0.71080 0.38610 0.26440 -0.24600
O 	O 	0.75180 0.38950 0.22549 -0.04200
O 	O 	0.68710 0.37220 0.26610 -0.35900
O 	O 	0.72860 0.37870 0.22780 -0.38700
C 	C 	0.73470 0.36660 0.24690 -0.25600
C 	C 	0.74880 0.30920 0.24838 -0.62100
C 	C 	0.79590 0.29390 0.25964 -0.14900
C 	C 	0.80894 0.24110 0.26093 -0.43200
C 	C 	0.72520 0.29640 0.24904 0.23000
C 	C 	0.77240 0.28100 0.26030 0.41200
C 	C 	0.78542 0.22820 0.26159 0.24900
C 	C 	0.71130 0.35400 0.24772 0.77200
C 	C 	0.88070 0.35400 0.24440 0.06900
H 	H 	0.85960 0.35760 0.22840 -0.00700
H 	H 	0.90420 0.32380 0.24260 -0.01500
H 	H 	0.90150 0.38580 0.24700 -0.15300
C 	C 	0.84900 0.22100 0.30940 -0.42800
H 	H 	0.81780 0.19910 0.31160 0.23000
H 	H 	0.84090 0.25710 0.31440 0.09400
H 	H 	0.87740 0.20760 0.32050 0.11200
C 	C 	0.86330 0.33360 0.24710 -0.69600
H 	H 	0.84620 0.32990 0.22990 0.25000
H 	H 	0.88220 0.36700 0.24770 0.29000
H 	H 	0.88810 0.30470 0.24960 0.22700
C 	C 	0.82740 0.21500 0.31020 -0.05700
H 	H 	0.79070 0.20500 0.31260 -0.08100
H 	H 	0.84980 0.19320 0.32130 0.04000
H 	H 	0.83190 0.25200 0.31510 0.04900
S 	S 	0.02118 0.46710 0.29564 0.07100
S 	S 	0.89312 0.45913 0.29517 -0.49200
S 	S 	0.88773 0.42888 0.29648 0.43700
S 	S 	0.01070 0.41863 0.29681 -0.02600
O 	O 	0.08950 0.55520 0.26590 -0.30100
O 	O 	0.08940 0.49320 0.23470 -0.55800
C 	C 	0.06840 0.52530 0.25060 0.54200
C 	C 	0.00928 0.52290 0.24972 -0.15900
C 	C 	0.98340 0.49660 0.26978 0.10200
C 	C 	0.92900 0.49311 0.26957 0.04000
C 	C 	0.90056 0.51600 0.24930 -0.07300
C 	C 	0.92650 0.45771 0.27076 0.06600
C 	C 	0.98080 0.45423 0.27055 -0.05900
C 	C 	0.03460 0.52440 0.31640 -0.40700
H 	H 	0.05370 0.51330 0.33210 0.14400
H 	H 	0.05580 0.54970 0.30650 0.16000
H 	H 	0.00140 0.54080 0.32160 0.13200
C 	C 	0.88270 0.51140 0.31910 -0.08800
H 	H 	0.86560 0.54120 0.31050 -0.01600
H 	H 	0.86030 0.49850 0.33340 -0.37600
H 	H 	0.91650 0.52250 0.32630 0.02900
C 	C 	0.88970 0.48380 0.31900 -0.30600
H 	H 	0.88770 0.51660 0.30910 0.24300
H 	H 	0.86000 0.48160 0.33120 0.49800
H 	H 	0.92250 0.48280 0.32900 0.10800
C 	C 	0.99850 0.35390 0.28280 -0.32400
H 	H 	0.96140 0.34490 0.28490 0.10000
H 	H 	0.00730 0.35420 0.26400 0.10700
H 	H 	0.02010 0.32780 0.29180 0.10100
O 	O 	0.10650 0.60930 0.27840 -0.68300
H 	H 	0.10400 0.63900 0.27100 0.27700
H 	H 	0.07800 0.61000 0.28700 0.29600
O 	O 	0.82060 0.46760 0.23528 -0.50300
O 	O 	0.67470 0.54110 0.19306 -0.46900
O 	O 	0.73880 0.48070 0.18950 -0.49500
S 	S 	0.63529 0.45026 0.14690 0.01000
S 	S 	0.78258 0.59833 0.16663 -0.01200
Zn	Zn	0.74630 0.46021 0.22611 1.20900
Zn	Zn	0.66168 0.55286 0.23109 1.24700
C 	C 	0.26510 0.95750 0.06932 0.38200
C 	C 	0.27440 0.96170 0.09850 -0.09300
C 	C 	0.24550 0.93140 0.11577 0.01000
C 	C 	0.31150 0.99700 0.10728 -0.00100
C 	C 	0.14120 0.92410 0.10530 -0.36700
H 	H 	0.14670 0.95310 0.11760 0.12900
H 	H 	0.11230 0.90200 0.11150 0.11400
H 	H 	0.13250 0.93810 0.08790 0.12500
C 	C 	0.40550 0.99070 0.08240 -0.40700
H 	H 	0.41750 0.98360 0.10030 0.13700
H 	H 	0.43360 0.00820 0.07260 0.13900
H 	H 	0.39660 0.95760 0.07370 0.15600
S 	S 	0.09427 0.08831 0.97784 -0.00100
S 	S 	0.96937 0.11944 0.97475 0.13300
S 	S 	0.08200 0.06451 0.97725 0.13700
S 	S 	0.95626 0.09549 0.97385 -0.06300
O 	O 	0.13610 0.96080 0.98560 -0.28300
O 	O 	0.13950 0.00180 0.02451 -0.01300
O 	O 	0.12220 0.93710 0.98390 -0.32100
O 	O 	0.12870 0.97860 0.02220 -0.42900
C 	C 	0.11660 0.98470 0.00310 -0.20300
C 	C 	0.05920 0.99880 0.00162 -0.55400
C 	C 	0.04390 0.04590 0.99036 -0.07900
C 	C 	0.99110 0.05894 0.98907 -0.42600
C 	C 	0.04640 0.97520 0.00096 0.17300
C 	C 	0.03100 0.02240 0.98970 0.32000
C 	C 	0.97820 0.03542 0.98841 0.23000
C 	C 	0.10400 0.96130 0.00228 0.72800
C 	C 	0.10400 0.13070 0.00560 0.07100
H 	H 	0.10760 0.10960 0.02160 -0.00700
H 	H 	0.07380 0.15420 0.00740 -0.01600
H 	H 	0.13580 0.15150 0.00300 -0.14400
C 	C 	0.97100 0.09900 0.94060 -0.42400
H 	H 	0.94910 0.06780 0.93840 0.22500
H 	H 	0.00710 0.09090 0.93560 0.09300
H 	H 	0.95760 0.12740 0.92950 0.11100
C 	C 	0.08360 0.11330 0.00290 -0.65900
H 	H 	0.07990 0.09620 0.02010 0.23500
H 	H 	0.11700 0.13220 0.00230 0.27500
H 	H 	0.05470 0.13810 0.00040 0.21700
C 	C 	0.96500 0.07740 0.93980 -0.05500
H 	H 	0.95500 0.04070 0.93740 -0.07700
H 	H 	0.94320 0.09980 0.92870 0.03900
H 	H 	0.00200 0.08190 0.93490 0.04900
S 	S 	0.21710 0.27118 0.95436 0.07000
S 	S 	0.20913 0.14312 0.95483 -0.48100
S 	S 	0.17888 0.13773 0.95352 0.43300
S 	S 	0.16863 0.26070 0.95319 -0.02700
O 	O 	0.30520 0.33950 0.98410 -0.30100
O 	O 	0.24320 0.33940 0.01530 -0.55800
C 	C 	0.27530 0.31840 0.99940 0.53800
C 	C 	0.27290 0.25928 0.00028 -0.15400
C 	C 	0.24660 0.23340 0.98022 0.09900
C 	C 	0.24311 0.17900 0.98043 0.04300
C 	C 	0.26600 0.15056 0.00070 -0.07500
C 	C 	0.20771 0.17650 0.97924 0.05800
C 	C 	0.20423 0.23080 0.97945 -0.05400
C 	C 	0.27440 0.28460 0.93360 -0.40700
H 	H 	0.26330 0.30370 0.91790 0.14400
H 	H 	0.29970 0.30580 0.94350 0.16000
H 	H 	0.29080 0.25140 0.92840 0.13200
C 	C 	0.26140 0.13270 0.93090 -0.09100
H 	H 	0.29120 0.11560 0.93950 -0.01500
H 	H 	0.24850 0.11030 0.91660 -0.37400
H 	H 	0.27250 0.16650 0.92370 0.03000
C 	C 	0.23380 0.13970 0.93100 -0.31100
H 	H 	0.26660 0.13770 0.94090 0.24600
H 	H 	0.23160 0.11000 0.91880 0.49900
H 	H 	0.23280 0.17250 0.92100 0.11000
C 	C 	0.10390 0.24850 0.96720 -0.32500
H 	H 	0.09490 0.21140 0.96510 0.10200
H 	H 	0.10420 0.25730 0.98600 0.10700
H 	H 	0.07780 0.27010 0.95820 0.10200
O 	O 	0.35930 0.35650 0.97160 -0.68400
H 	H 	0.38900 0.35400 0.97900 0.27700
H 	H 	0.36000 0.32800 0.96300 0.29600
O 	O 	0.21760 0.07060 0.01472 -0.50200
O 	O 	0.29110 0.92470 0.05694 -0.46900
O 	O 	0.23070 0.98880 0.06050 -0.49700
S 	S 	0.20026 0.88529 0.10310 0.01000
S 	S 	0.34833 0.03258 0.08337 0.00700
Zn	Zn	0.21021 0.99630 0.02389 1.20700
Zn	Zn	0.30286 0.91168 0.01891 1.24800
C 	C 	0.76510 0.45750 0.56932 0.38400
C 	C 	0.77440 0.46170 0.59850 -0.09900
C 	C 	0.74550 0.43140 0.61577 0.01400
C 	C 	0.81150 0.49700 0.60728 0.01700
C 	C 	0.64120 0.42410 0.60530 -0.36800
H 	H 	0.64670 0.45310 0.61760 0.13100
H 	H 	0.61230 0.40200 0.61150 0.11400
H 	H 	0.63250 0.43810 0.58790 0.12600
C 	C 	0.90550 0.49070 0.58240 -0.37200
H 	H 	0.91750 0.48360 0.60030 0.12900
H 	H 	0.93360 0.50820 0.57260 0.12400
H 	H 	0.89660 0.45760 0.57370 0.14700
S 	S 	0.59427 0.58831 0.47784 0.04700
S 	S 	0.46937 0.61944 0.47475 0.14900
S 	S 	0.58200 0.56451 0.47725 0.11800
S 	S 	0.45626 0.59549 0.47385 -0.07500
O 	O 	0.63610 0.46080 0.48560 -0.24700
O 	O 	0.63950 0.50180 0.52451 -0.04300
O 	O 	0.62220 0.43710 0.48390 -0.35700
O 	O 	0.62870 0.47860 0.52220 -0.38600
C 	C 	0.61660 0.48470 0.50310 -0.25500
C 	C 	0.55920 0.49880 0.50162 -0.61700
C 	C 	0.54390 0.54590 0.49036 -0.14800
C 	C 	0.49110 0.55894 0.48907 -0.43100
C 	C 	0.54640 0.47520 0.50096 0.22800
C 	C 	0.53100 0.52240 0.48970 0.41000
C 	C 	0.47820 0.53542 0.48841 0.24900
C 	C 	0.60400 0.46130 0.50228 0.77000
C 	C 	0.60400 0.63070 0.50560 0.06900
H 	H 	0.60760 0.60960 0.52160 -0.00700
H 	H 	0.57380 0.65420 0.50740 -0.01500
H 	H 	0.63580 0.65150 0.50300 -0.15300
C 	C 	0.47100 0.59900 0.44060 -0.42700
H 	H 	0.44910 0.56780 0.43840 0.22900
H 	H 	0.50710 0.59090 0.43560 0.09400
H 	H 	0.45760 0.62740 0.42950 0.11200
C 	C 	0.58360 0.61330 0.50290 -0.69500
H 	H 	0.57990 0.59620 0.52010 0.25000
H 	H 	0.61700 0.63220 0.50230 0.29000
H 	H 	0.55470 0.63810 0.50040 0.22600
C 	C 	0.46500 0.57740 0.43980 -0.05700
H 	H 	0.45500 0.54070 0.43740 -0.08100
H 	H 	0.44320 0.59980 0.42870 0.03900
H 	H 	0.50200 0.58190 0.43490 0.04900
S 	S 	0.71710 0.77118 0.45436 0.07100
S 	S 	0.70913 0.64312 0.45483 -0.49100
S 	S 	0.67888 0.63773 0.45352 0.43700
S 	S 	0.66863 0.76070 0.45319 -0.02600
O 	O 	0.80520 0.83950 0.48410 -0.30100
O 	O 	0.74320 0.83940 0.51530 -0.55800
C 	C 	0.77530 0.81840 0.49940 0.54200
C 	C 	0.77290 0.75928 0.50028 -0.15900
C 	C 	0.74660 0.73340 0.48022 0.10200
C 	C 	0.74311 0.67900 0.48043 0.04000
C 	C 	0.76600 0.65056 0.50070 -0.07300
C 	C 	0.70771 0.67650 0.47924 0.06600
C 	C 	0.70423 0.73080 0.47945 -0.05900
C 	C 	0.77440 0.78460 0.43360 -0.40700
H 	H 	0.76330 0.80370 0.41790 0.14400
H 	H 	0.79970 0.80580 0.44350 0.16000
H 	H 	0.79080 0.75140 0.42840 0.13200
C 	C 	0.76140 0.63270 0.43090 -0.08800
H 	H 	0.79120 0.61560 0.43950 -0.01600
H 	H 	0.74850 0.61030 0.41660 -0.37600
H 	H 	0.77250 0.66650 0.42370 0.02900
C 	C 	0.73380 0.63970 0.43100 -0.30600
H 	H 	0.76660 0.63770 0.44090 0.24300
H 	H 	0.73160 0.61000 0.41880 0.49800
H 	H 	0.73280 0.67250 0.42100 0.10800
C 	C 	0.60390 0.74850 0.46720 -0.32300
H 	H 	0.59490 0.71140 0.46510 0.10000
H 	H 	0.60420 0.75730 0.48600 0.10600
H 	H 	0.57780 0.77010 0.45820 0.10000
O 	O 	0.85930 0.85650 0.47160 -0.68500
H 	H 	0.88900 0.85400 0.47900 0.27700
H 	H 	0.86000 0.82800 0.46300 0.29600
O 	O 	0.71760 0.57060 0.51472 -0.50200
O 	O 	0.79110 0.42470 0.55694 -0.46900
O 	O 	0.73070 0.48880 0.56050 -0.49500
S 	S 	0.70026 0.38529 0.60310 0.01000
S 	S 	0.84833 0.53258 0.58337 -0.01200
Zn	Zn	0.71021 0.49630 0.52389 1.20900
Zn	Zn	0.80286 0.41168 0.51891 1.24700
C 	C 	0.23490 0.04250 0.56932 0.38700
C 	C 	0.22560 0.03830 0.59850 -0.10500
C 	C 	0.25450 0.06860 0.61577 0.01800
C 	C 	0.18850 0.00300 0.60728 0.03500
C 	C 	0.35880 0.07590 0.60530 -0.36800
H 	H 	0.35330 0.04690 0.61760 0.13200
H 	H 	0.38770 0.09800 0.61150 0.11500
H 	H 	0.36750 0.06190 0.58790 0.12700
C 	C 	0.09450 0.00930 0.58240 -0.33700
H 	H 	0.08250 0.01640 0.60030 0.12100
H 	H 	0.06640 0.99180 0.57260 0.10900
H 	H 	0.10340 0.04240 0.57370 0.13800
S 	S 	0.40573 0.91169 0.47784 0.09800
S 	S 	0.53063 0.88056 0.47475 0.16600
S 	S 	0.41800 0.93549 0.47725 0.09600
S 	S 	0.54374 0.90451 0.47385 -0.08700
O 	O 	0.36390 0.03920 0.48560 -0.21100
O 	O 	0.36050 0.99820 0.52451 -0.07200
O 	O 	0.37780 0.06290 0.48390 -0.39600
O 	O 	0.37130 0.02140 0.52220 -0.34400
C 	C 	0.38340 0.01530 0.50310 -0.30900
C 	C 	0.44080 0.00120 0.50162 -0.68300
C 	C 	0.45610 0.95410 0.49036 -0.21900
C 	C 	0.50890 0.94106 0.48907 -0.43500
C 	C 	0.45360 0.02480 0.50096 0.28500
C 	C 	0.46900 0.97760 0.48970 0.50300
C 	C 	0.52180 0.96458 0.48841 0.26700
C 	C 	0.39600 0.03870 0.50228 0.81400
C 	C 	0.39600 0.86930 0.50560 0.06700
H 	H 	0.39240 0.89040 0.52160 -0.00700
H 	H 	0.42620 0.84580 0.50740 -0.01400
H 	H 	0.36420 0.84850 0.50300 -0.16100
C 	C 	0.52900 0.90100 0.44060 -0.43100
H 	H 	0.55090 0.93220 0.43840 0.23400
H 	H 	0.49290 0.90910 0.43560 0.09400
H 	H 	0.54240 0.87260 0.42950 0.11300
C 	C 	0.41640 0.88670 0.50290 -0.73200
H 	H 	0.42010 0.90380 0.52010 0.26500
H 	H 	0.38300 0.86780 0.50230 0.30500
H 	H 	0.44530 0.86190 0.50040 0.23600
C 	C 	0.53500 0.92260 0.43980 -0.05800
H 	H 	0.54500 0.95930 0.43740 -0.08500
H 	H 	0.55680 0.90020 0.42870 0.03900
H 	H 	0.49800 0.91810 0.43490 0.04800
S 	S 	0.28290 0.72882 0.45436 0.07200
S 	S 	0.29087 0.85688 0.45483 -0.50300
S 	S 	0.32112 0.86227 0.45352 0.44200
S 	S 	0.33137 0.73930 0.45319 -0.02800
O 	O 	0.19480 0.66050 0.48410 -0.30100
O 	O 	0.25680 0.66060 0.51530 -0.55800
C 	C 	0.22470 0.68160 0.49940 0.54100
C 	C 	0.22710 0.74072 0.50028 -0.15800
C 	C 	0.25340 0.76660 0.48022 0.10100
C 	C 	0.25689 0.82100 0.48043 0.04200
C 	C 	0.23400 0.84944 0.50070 -0.07400
C 	C 	0.29229 0.82350 0.47924 0.06700
C 	C 	0.29577 0.76920 0.47945 -0.06000
C 	C 	0.22560 0.71540 0.43360 -0.40800
H 	H 	0.23670 0.69630 0.41790 0.14400
H 	H 	0.20030 0.69420 0.44350 0.16000
H 	H 	0.20920 0.74860 0.42840 0.13200
C 	C 	0.23860 0.86730 0.43090 -0.08500
H 	H 	0.20880 0.88440 0.43950 -0.01600
H 	H 	0.25150 0.88970 0.41660 -0.37800
H 	H 	0.22750 0.83350 0.42370 0.02800
C 	C 	0.26620 0.86030 0.43100 -0.30000
H 	H 	0.23340 0.86230 0.44090 0.24000
H 	H 	0.26840 0.89000 0.41880 0.49700
H 	H 	0.26720 0.82750 0.42100 0.10700
C 	C 	0.39610 0.75150 0.46720 -0.32200
H 	H 	0.40510 0.78860 0.46510 0.09800
H 	H 	0.39580 0.74270 0.48600 0.10600
H 	H 	0.42220 0.72990 0.45820 0.10000
O 	O 	0.14070 0.64350 0.47160 -0.68300
H 	H 	0.11100 0.64600 0.47900 0.27700
H 	H 	0.14000 0.67200 0.46300 0.29600
O 	O 	0.28240 0.92940 0.51472 -0.50300
O 	O 	0.20890 0.07530 0.55694 -0.46900
O 	O 	0.26930 0.01120 0.56050 -0.49300
S 	S 	0.29974 0.11471 0.60310 0.00900
S 	S 	0.15167 0.96742 0.58337 -0.03100
Zn	Zn	0.28979 0.00370 0.52389 1.21100
Zn	Zn	0.19714 0.08832 0.51891 1.24700
C 	C 	0.73490 0.54250 0.06932 0.38400
C 	C 	0.72560 0.53830 0.09850 -0.09900
C 	C 	0.75450 0.56860 0.11577 0.01400
C 	C 	0.68850 0.50300 0.10728 0.01700
C 	C 	0.85880 0.57590 0.10530 -0.36700
H 	H 	0.85330 0.54690 0.11760 0.13100
H 	H 	0.88770 0.59800 0.11150 0.11400
H 	H 	0.86750 0.56190 0.08790 0.12600
C 	C 	0.59450 0.50930 0.08240 -0.37200
H 	H 	0.58250 0.51640 0.10030 0.12900
H 	H 	0.56640 0.49180 0.07260 0.12400
H 	H 	0.60340 0.54240 0.07370 0.14700
S 	S 	0.90573 0.41169 0.97784 0.04900
S 	S 	0.03063 0.38056 0.97475 0.15000
S 	S 	0.91800 0.43549 0.97725 0.11600
S 	S 	0.04374 0.40451 0.97385 -0.07500
O 	O 	0.86390 0.53920 0.98560 -0.24700
O 	O 	0.86050 0.49820 0.02451 -0.04100
O 	O 	0.87780 0.56290 0.98390 -0.35900
O 	O 	0.87130 0.52140 0.02220 -0.38700
C 	C 	0.88340 0.51530 0.00310 -0.25600
C 	C 	0.94080 0.50120 0.00162 -0.62000
C 	C 	0.95610 0.45410 0.99036 -0.15000
C 	C 	0.00890 0.44106 0.98907 -0.43000
C 	C 	0.95360 0.52480 0.00096 0.23100
C 	C 	0.96900 0.47760 0.98970 0.41300
C 	C 	0.02180 0.46458 0.98841 0.24800
C 	C 	0.89600 0.53870 0.00228 0.77300
C 	C 	0.89600 0.36930 0.00560 0.06900
H 	H 	0.89240 0.39040 0.02160 -0.00700
H 	H 	0.92620 0.34580 0.00740 -0.01500
H 	H 	0.86420 0.34850 0.00300 -0.15200
C 	C 	0.02900 0.40100 0.94060 -0.42700
H 	H 	0.05090 0.43220 0.93840 0.22900
H 	H 	0.99290 0.40910 0.93560 0.09400
H 	H 	0.04240 0.37260 0.92950 0.11200
C 	C 	0.91640 0.38670 0.00290 -0.69500
H 	H 	0.92010 0.40380 0.02010 0.25000
H 	H 	0.88300 0.36780 0.00230 0.29000
H 	H 	0.94530 0.36190 0.00040 0.22700
C 	C 	0.03500 0.42260 0.93980 -0.05700
H 	H 	0.04500 0.45930 0.93740 -0.08100
H 	H 	0.05680 0.40020 0.92870 0.03900
H 	H 	0.99800 0.41810 0.93490 0.04900
S 	S 	0.78290 0.22882 0.95436 0.07100
S 	S 	0.79087 0.35688 0.95483 -0.49200
S 	S 	0.82112 0.36227 0.95352 0.43800
S 	S 	0.83137 0.23930 0.95319 -0.02800
O 	O 	0.69480 0.16050 0.98410 -0.30100
O 	O 	0.75680 0.16060 0.01530 -0.55800
C 	C 	0.72470 0.18160 0.99940 0.53800
C 	C 	0.72710 0.24072 0.00028 -0.15300
C 	C 	0.75340 0.26660 0.98022 0.09800
C 	C 	0.75689 0.32100 0.98043 0.04500
C 	C 	0.73400 0.34944 0.00070 -0.07600
C 	C 	0.79229 0.32350 0.97924 0.06000
C 	C 	0.79577 0.26920 0.97945 -0.05400
C 	C 	0.72560 0.21540 0.93360 -0.40800
H 	H 	0.73670 0.19630 0.91790 0.14400
H 	H 	0.70030 0.19420 0.94350 0.16000
H 	H 	0.70920 0.24860 0.92840 0.13200
C 	C 	0.73860 0.36730 0.93090 -0.08800
H 	H 	0.70880 0.38440 0.93950 -0.01600
H 	H 	0.75150 0.38970 0.91660 -0.37600
H 	H 	0.72750 0.33350 0.92370 0.02900
C 	C 	0.76620 0.36030 0.93100 -0.30600
H 	H 	0.73340 0.36230 0.94090 0.24300
H 	H 	0.76840 0.39000 0.91880 0.49800
H 	H 	0.76720 0.32750 0.92100 0.10800
C 	C 	0.89610 0.25150 0.96720 -0.32400
H 	H 	0.90510 0.28860 0.96510 0.10000
H 	H 	0.89580 0.24270 0.98600 0.10600
H 	H 	0.92220 0.22990 0.95820 0.10100
O 	O 	0.64070 0.14350 0.97160 -0.68200
H 	H 	0.61100 0.14600 0.97900 0.27700
H 	H 	0.64000 0.17200 0.96300 0.29600
O 	O 	0.78240 0.42940 0.01472 -0.50300
O 	O 	0.70890 0.57530 0.05694 -0.46900
O 	O 	0.76930 0.51120 0.06050 -0.49500
S 	S 	0.79974 0.61471 0.10310 0.01000
S 	S 	0.65167 0.46742 0.08337 -0.01200
Zn	Zn	0.78979 0.50370 0.02389 1.20900
Zn	Zn	0.69714 0.58832 0.01891 1.24800
C 	C 	0.20750 0.98490 0.81932 0.37900
C 	C 	0.21170 0.97560 0.84850 -0.11000
C 	C 	0.18140 0.00450 0.86577 0.03200
C 	C 	0.24700 0.93850 0.85728 0.02100
C 	C 	0.17410 0.10880 0.85530 -0.36700
H 	H 	0.20310 0.10330 0.86760 0.13100
H 	H 	0.15200 0.13770 0.86150 0.11400
H 	H 	0.18810 0.11750 0.83790 0.12600
C 	C 	0.24070 0.84450 0.83240 -0.37000
H 	H 	0.23360 0.83250 0.85030 0.12800
H 	H 	0.25820 0.81640 0.82260 0.12300
H 	H 	0.20760 0.85340 0.82370 0.14700
S 	S 	0.33831 0.15573 0.72784 0.04500
S 	S 	0.36944 0.28063 0.72475 0.14900
S 	S 	0.31451 0.16800 0.72725 0.12100
S 	S 	0.34549 0.29374 0.72385 -0.07400
O 	O 	0.21080 0.11390 0.73560 -0.24700
O 	O 	0.25180 0.11050 0.77451 -0.04300
O 	O 	0.18710 0.12780 0.73390 -0.35700
O 	O 	0.22860 0.12130 0.77220 -0.38600
C 	C 	0.23470 0.13340 0.75310 -0.25500
C 	C 	0.24880 0.19080 0.75162 -0.61600
C 	C 	0.29590 0.20610 0.74036 -0.14700
C 	C 	0.30894 0.25890 0.73907 -0.43400
C 	C 	0.22520 0.20360 0.75096 0.22700
C 	C 	0.27240 0.21900 0.73970 0.40900
C 	C 	0.28542 0.27180 0.73841 0.25000
C 	C 	0.21130 0.14600 0.75228 0.76900
C 	C 	0.38070 0.14600 0.75560 0.06900
H 	H 	0.35960 0.14240 0.77160 -0.00700
H 	H 	0.40420 0.17620 0.75740 -0.01500
H 	H 	0.40150 0.11420 0.75300 -0.15300
C 	C 	0.34900 0.27900 0.69060 -0.42800
H 	H 	0.31780 0.30090 0.68840 0.22900
H 	H 	0.34090 0.24290 0.68560 0.09400
H 	H 	0.37740 0.29240 0.67950 0.11200
C 	C 	0.36330 0.16640 0.75290 -0.69600
H 	H 	0.34620 0.17010 0.77010 0.25000
H 	H 	0.38220 0.13300 0.75230 0.29100
H 	H 	0.38810 0.19530 0.75040 0.22700
C 	C 	0.32740 0.28500 0.68980 -0.05700
H 	H 	0.29070 0.29500 0.68740 -0.08100
H 	H 	0.34980 0.30680 0.67870 0.03900
H 	H 	0.33190 0.24800 0.68490 0.04900
S 	S 	0.52118 0.03290 0.70436 0.07600
S 	S 	0.39312 0.04087 0.70483 -0.48600
S 	S 	0.38773 0.07112 0.70352 0.42000
S 	S 	0.51070 0.08137 0.70319 -0.01500
O 	O 	0.58950 0.94480 0.73410 -0.30400
O 	O 	0.58940 0.00680 0.76530 -0.55200
C 	C 	0.56840 0.97470 0.74940 0.55200
C 	C 	0.50928 0.97710 0.75028 -0.20600
C 	C 	0.48340 0.00340 0.73022 0.14600
C 	C 	0.42900 0.00689 0.73043 -0.00400
C 	C 	0.40056 0.98400 0.75070 -0.02100
C 	C 	0.42650 0.04229 0.72924 0.13400
C 	C 	0.48080 0.04577 0.72945 -0.11800
C 	C 	0.53460 0.97560 0.68360 -0.41600
H 	H 	0.55370 0.98670 0.66790 0.14400
H 	H 	0.55580 0.95030 0.69350 0.16200
H 	H 	0.50140 0.95920 0.67840 0.13300
C 	C 	0.38270 0.98860 0.68090 -0.07100
H 	H 	0.36560 0.95880 0.68950 -0.01600
H 	H 	0.36030 0.00150 0.66660 -0.37800
H 	H 	0.41650 0.97750 0.67370 0.02200
C 	C 	0.38970 0.01620 0.68100 -0.29900
H 	H 	0.38770 0.98340 0.69090 0.22700
H 	H 	0.36000 0.01840 0.66880 0.49700
H 	H 	0.42250 0.01720 0.67100 0.10900
C 	C 	0.49850 0.14610 0.71720 -0.32900
H 	H 	0.46140 0.15510 0.71510 0.10200
H 	H 	0.50730 0.14580 0.73600 0.10800
H 	H 	0.52010 0.17220 0.70820 0.10200
O 	O 	0.60650 0.89070 0.72160 -0.68300
H 	H 	0.60400 0.86100 0.72900 0.27700
H 	H 	0.57800 0.89000 0.71300 0.29600
O 	O 	0.32060 0.03240 0.76472 -0.50400
O 	O 	0.17470 0.95890 0.80694 -0.47000
O 	O 	0.23880 0.01930 0.81050 -0.48900
S 	S 	0.13529 0.04974 0.85310 0.00900
S 	S 	0.28258 0.90167 0.83337 -0.01500
Zn	Zn	0.24630 0.03979 0.77389 1.20900
Zn	Zn	0.16168 0.94714 0.76891 1.24600
C 	C 	0.70750 0.48490 0.31932 0.38400
C 	C 	0.71170 0.47560 0.34850 -0.09900
C 	C 	0.68140 0.50450 0.36577 0.01400
C 	C 	0.74700 0.43850 0.35728 0.01700
C 	C 	0.67410 0.60880 0.35530 -0.36700
H 	H 	0.70310 0.60330 0.36760 0.13100
H 	H 	0.65200 0.63770 0.36150 0.11400
H 	H 	0.68810 0.61750 0.33790 0.12600
C 	C 	0.74070 0.34450 0.33240 -0.37200
H 	H 	0.73360 0.33250 0.35030 0.12900
H 	H 	0.75820 0.31640 0.32260 0.12400
H 	H 	0.70760 0.35340 0.32370 0.14700
S 	S 	0.83831 0.65573 0.22784 0.04600
S 	S 	0.86944 0.78063 0.22475 0.14800
S 	S 	0.81451 0.66800 0.22725 0.11800
S 	S 	0.84549 0.79374 0.22385 -0.07300
O 	O 	0.71080 0.61390 0.23560 -0.24800
O 	O 	0.75180 0.61050 0.27451 -0.04400
O 	O 	0.68710 0.62780 0.23390 -0.35600
O 	O 	0.72860 0.62130 0.27220 -0.38500
C 	C 	0.73470 0.63340 0.25310 -0.25400
C 	C 	0.74880 0.69080 0.25162 -0.61300
C 	C 	0.79590 0.70610 0.24036 -0.14700
C 	C 	0.80894 0.75890 0.23907 -0.43000
C 	C 	0.72520 0.70360 0.25096 0.22600
C 	C 	0.77240 0.71900 0.23970 0.40700
C 	C 	0.78542 0.77180 0.23841 0.24800
C 	C 	0.71130 0.64600 0.25228 0.76800
C 	C 	0.88070 0.64600 0.25560 0.06900
H 	H 	0.85960 0.64240 0.27160 -0.00700
H 	H 	0.90420 0.67620 0.25740 -0.01500
H 	H 	0.90150 0.61420 0.25300 -0.15300
C 	C 	0.84900 0.77900 0.19060 -0.42700
H 	H 	0.81780 0.80090 0.18840 0.22900
H 	H 	0.84090 0.74290 0.18560 0.09400
H 	H 	0.87740 0.79240 0.17950 0.11200
C 	C 	0.86330 0.66640 0.25290 -0.69400
H 	H 	0.84620 0.67010 0.27010 0.25000
H 	H 	0.88220 0.63300 0.25230 0.29000
H 	H 	0.88810 0.69530 0.25040 0.22600
C 	C 	0.82740 0.78500 0.18980 -0.05600
H 	H 	0.79070 0.79500 0.18740 -0.08100
H 	H 	0.84980 0.80680 0.17870 0.03900
H 	H 	0.83190 0.74800 0.18490 0.04900
S 	S 	0.02118 0.53290 0.20436 0.07100
S 	S 	0.89312 0.54087 0.20483 -0.49100
S 	S 	0.88773 0.57112 0.20352 0.43700
S 	S 	0.01070 0.58137 0.20319 -0.02600
O 	O 	0.08950 0.44480 0.23410 -0.30100
O 	O 	0.08940 0.50680 0.26530 -0.55800
C 	C 	0.06840 0.47470 0.24940 0.54200
C 	C 	0.00928 0.47710 0.25028 -0.15900
C 	C 	0.98340 0.50340 0.23022 0.10200
C 	C 	0.92900 0.50689 0.23043 0.04000
C 	C 	0.90056 0.48400 0.25070 -0.07300
C 	C 	0.92650 0.54229 0.22924 0.06600
C 	C 	0.98080 0.54577 0.22945 -0.05900
C 	C 	0.03460 0.47560 0.18360 -0.40700
H 	H 	0.05370 0.48670 0.16790 0.14400
H 	H 	0.05580 0.45030 0.19350 0.16000
H 	H 	0.00140 0.45920 0.17840 0.13200
C 	C 	0.88270 0.48860 0.18090 -0.08800
H 	H 	0.86560 0.45880 0.18950 -0.01600
H 	H 	0.86030 0.50150 0.16660 -0.37600
H 	H 	0.91650 0.47750 0.17370 0.02900
C 	C 	0.88970 0.51620 0.18100 -0.30600
H 	H 	0.88770 0.48340 0.19090 0.24300
H 	H 	0.86000 0.51840 0.16880 0.49800
H 	H 	0.92250 0.51720 0.17100 0.10800
C 	C 	0.99850 0.64610 0.21720 -0.32400
H 	H 	0.96140 0.65510 0.21510 0.10000
H 	H 	0.00730 0.64580 0.23600 0.10700
H 	H 	0.02010 0.67220 0.20820 0.10100
O 	O 	0.10650 0.39070 0.22160 -0.68300
H 	H 	0.10400 0.36100 0.22900 0.27700
H 	H 	0.07800 0.39000 0.21300 0.29600
O 	O 	0.82060 0.53240 0.26472 -0.50200
O 	O 	0.67470 0.45890 0.30694 -0.46900
O 	O 	0.73880 0.51930 0.31050 -0.49500
S 	S 	0.63529 0.54974 0.35310 0.01000
S 	S 	0.78258 0.40167 0.33337 -0.01200
Zn	Zn	0.74630 0.53979 0.27389 1.20900
Zn	Zn	0.66168 0.44714 0.26891 1.24700
C 	C 	0.29250 0.01510 0.31932 0.38900
C 	C 	0.28830 0.02440 0.34850 -0.08800
C 	C 	0.31860 0.99550 0.36577 -0.00400
C 	C 	0.25300 0.06150 0.35728 0.01300
C 	C 	0.32590 0.89120 0.35530 -0.36800
H 	H 	0.29690 0.89670 0.36760 0.13100
H 	H 	0.34800 0.86230 0.36150 0.11400
H 	H 	0.31190 0.88250 0.33790 0.12600
C 	C 	0.25930 0.15550 0.33240 -0.37300
H 	H 	0.26640 0.16750 0.35030 0.12900
H 	H 	0.24180 0.18360 0.32260 0.12400
H 	H 	0.29240 0.14660 0.32370 0.14800
S 	S 	0.16169 0.84427 0.22784 0.04800
S 	S 	0.13056 0.71937 0.22475 0.14900
S 	S 	0.18549 0.83200 0.22725 0.11500
S 	S 	0.15451 0.70626 0.22385 -0.07500
O 	O 	0.28920 0.88610 0.23560 -0.24800
O 	O 	0.24820 0.88950 0.27451 -0.04200
O 	O 	0.31290 0.87220 0.23390 -0.35700
O 	O 	0.27140 0.87870 0.27220 -0.38700
C 	C 	0.26530 0.86660 0.25310 -0.25600
C 	C 	0.25120 0.80920 0.25162 -0.61700
C 	C 	0.20410 0.79390 0.24036 -0.14800
C 	C 	0.19106 0.74110 0.23907 -0.42900
C 	C 	0.27480 0.79640 0.25096 0.22800
C 	C 	0.22760 0.78100 0.23970 0.41000
C 	C 	0.21458 0.72820 0.23841 0.24700
C 	C 	0.28870 0.85400 0.25228 0.77100
C 	C 	0.11930 0.85400 0.25560 0.06900
H 	H 	0.14040 0.85760 0.27160 -0.00700
H 	H 	0.09580 0.82380 0.25740 -0.01500
H 	H 	0.09850 0.88580 0.25300 -0.15100
C 	C 	0.15100 0.72100 0.19060 -0.42700
H 	H 	0.18220 0.69910 0.18840 0.22900
H 	H 	0.15910 0.75710 0.18560 0.09400
H 	H 	0.12260 0.70760 0.17950 0.11200
C 	C 	0.13670 0.83360 0.25290 -0.69400
H 	H 	0.15380 0.82990 0.27010 0.25000
H 	H 	0.11780 0.86700 0.25230 0.28900
H 	H 	0.11190 0.80470 0.25040 0.22600
C 	C 	0.17260 0.71500 0.18980 -0.05600
H 	H 	0.20930 0.70500 0.18740 -0.08100
H 	H 	0.15020 0.69320 0.17870 0.03900
H 	H 	0.16810 0.75200 0.18490 0.04900
S 	S 	0.97882 0.96710 0.20436 0.06700
S 	S 	0.10688 0.95913 0.20483 -0.49100
S 	S 	0.11227 0.92888 0.20352 0.45000
S 	S 	0.98930 0.91863 0.20319 -0.03900
O 	O 	0.91050 0.05520 0.23410 -0.29900
O 	O 	0.91060 0.99320 0.26530 -0.56400
C 	C 	0.93160 0.02530 0.24940 0.53000
C 	C 	0.99072 0.02290 0.25028 -0.10900
C 	C 	0.01660 0.99660 0.23022 0.05000
C 	C 	0.07100 0.99311 0.23043 0.09800
C 	C 	0.09944 0.01600 0.25070 -0.13300
C 	C 	0.07350 0.95771 0.22924 -0.01200
C 	C 	0.01920 0.95423 0.22945 0.00400
C 	C 	0.96540 0.02440 0.18360 -0.40000
H 	H 	0.94630 0.01330 0.16790 0.14400
H 	H 	0.94420 0.04970 0.19350 0.15900
H 	H 	0.99860 0.04080 0.17840 0.13100
C 	C 	0.11730 0.01140 0.18090 -0.10800
H 	H 	0.13440 0.04120 0.18950 -0.01500
H 	H 	0.13970 0.99850 0.16660 -0.37400
H 	H 	0.08350 0.02250 0.17370 0.03700
C 	C 	0.11030 0.98380 0.18100 -0.31500
H 	H 	0.11230 0.01660 0.19090 0.26000
H 	H 	0.14000 0.98160 0.16880 0.50000
H 	H 	0.07750 0.98280 0.17100 0.10800
C 	C 	0.00150 0.85390 0.21720 -0.31800
H 	H 	0.03860 0.84490 0.21510 0.09900
H 	H 	0.99270 0.85420 0.23600 0.10400
H 	H 	0.97990 0.82780 0.20820 0.09900
O 	O 	0.89350 0.10930 0.22160 -0.68400
H 	H 	0.89600 0.13900 0.22900 0.27700
H 	H 	0.92200 0.11000 0.21300 0.29600
O 	O 	0.17940 0.96760 0.26472 -0.51100
O 	O 	0.32530 0.04110 0.30694 -0.46900
O 	O 	0.26120 0.98070 0.31050 -0.50100
S 	S 	0.36471 0.95026 0.35310 0.01000
S 	S 	0.21742 0.09833 0.33337 -0.00900
Zn	Zn	0.25370 0.96021 0.27389 1.20800
Zn	Zn	0.33832 0.05286 0.26891 1.24800
C 	C 	0.79250 0.51510 0.81932 0.38400
C 	C 	0.78830 0.52440 0.84850 -0.09900
C 	C 	0.81860 0.49550 0.86577 0.01400
C 	C 	0.75300 0.56150 0.85728 0.01700
C 	C 	0.82590 0.39120 0.85530 -0.36700
H 	H 	0.79690 0.39670 0.86760 0.13100
H 	H 	0.84800 0.36230 0.86150 0.11400
H 	H 	0.81190 0.38250 0.83790 0.12600
C 	C 	0.75930 0.65550 0.83240 -0.37100
H 	H 	0.76640 0.66750 0.85030 0.12900
H 	H 	0.74180 0.68360 0.82260 0.12400
H 	H 	0.79240 0.64660 0.82370 0.14700
S 	S 	0.66169 0.34427 0.72784 0.04800
S 	S 	0.63056 0.21937 0.72475 0.15000
S 	S 	0.68549 0.33200 0.72725 0.11700
S 	S 	0.65451 0.20626 0.72385 -0.07500
O 	O 	0.78920 0.38610 0.73560 -0.24600
O 	O 	0.74820 0.38950 0.77451 -0.04200
O 	O 	0.81290 0.37220 0.73390 -0.35900
O 	O 	0.77140 0.37870 0.77220 -0.38700
C 	C 	0.76530 0.36660 0.75310 -0.25600
C 	C 	0.75120 0.30920 0.75162 -0.62100
C 	C 	0.70410 0.29390 0.74036 -0.14800
C 	C 	0.69106 0.24110 0.73907 -0.43200
C 	C 	0.77480 0.29640 0.75096 0.23000
C 	C 	0.72760 0.28100 0.73970 0.41200
C 	C 	0.71458 0.22820 0.73841 0.24900
C 	C 	0.78870 0.35400 0.75228 0.77200
C 	C 	0.61930 0.35400 0.75560 0.06900
H 	H 	0.64040 0.35760 0.77160 -0.00700
H 	H 	0.59580 0.32380 0.75740 -0.01500
H 	H 	0.59850 0.38580 0.75300 -0.15300
C 	C 	0.65100 0.22100 0.69060 -0.42800
H 	H 	0.68220 0.19910 0.68840 0.23000
H 	H 	0.65910 0.25710 0.68560 0.09400
H 	H 	0.62260 0.20760 0.67950 0.11200
C 	C 	0.63670 0.33360 0.75290 -0.69600
H 	H 	0.65380 0.32990 0.77010 0.25000
H 	H 	0.61780 0.36700 0.75230 0.29000
H 	H 	0.61190 0.30470 0.75040 0.22700
C 	C 	0.67260 0.21500 0.68980 -0.05700
H 	H 	0.70930 0.20500 0.68740 -0.08100
H 	H 	0.65020 0.19320 0.67870 0.04000
H 	H 	0.66810 0.25200 0.68490 0.04900
S 	S 	0.47882 0.46710 0.70436 0.07100
S 	S 	0.60688 0.45913 0.70483 -0.49100
S 	S 	0.61227 0.42888 0.70352 0.43700
S 	S 	0.48930 0.41863 0.70319 -0.02600
O 	O 	0.41050 0.55520 0.73410 -0.30100
O 	O 	0.41060 0.49320 0.76530 -0.55800
C 	C 	0.43160 0.52530 0.74940 0.54200
C 	C 	0.49072 0.52290 0.75028 -0.15900
C 	C 	0.51660 0.49660 0.73022 0.10200
C 	C 	0.57100 0.49311 0.73043 0.04000
C 	C 	0.59944 0.51600 0.75070 -0.07300
C 	C 	0.57350 0.45771 0.72924 0.06600
C 	C 	0.51920 0.45423 0.72945 -0.05900
C 	C 	0.46540 0.52440 0.68360 -0.40700
H 	H 	0.44630 0.51330 0.66790 0.14400
H 	H 	0.44420 0.54970 0.69350 0.16000
H 	H 	0.49860 0.54080 0.67840 0.13200
C 	C 	0.61730 0.51140 0.68090 -0.08800
H 	H 	0.63440 0.54120 0.68950 -0.01600
H 	H 	0.63970 0.49850 0.66660 -0.37600
H 	H 	0.58350 0.52250 0.67370 0.02900
C 	C 	0.61030 0.48380 0.68100 -0.30600
H 	H 	0.61230 0.51660 0.69090 0.24300
H 	H 	0.64000 0.48160 0.66880 0.49800
H 	H 	0.57750 0.48280 0.67100 0.10800
C 	C 	0.50150 0.35390 0.71720 -0.32400
H 	H 	0.53860 0.34490 0.71510 0.10000
H 	H 	0.49270 0.35420 0.73600 0.10700
H 	H 	0.47990 0.32780 0.70820 0.10100
O 	O 	0.39350 0.60930 0.72160 -0.68300
H 	H 	0.39600 0.63900 0.72900 0.27700
H 	H 	0.42200 0.61000 0.71300 0.29600
O 	O 	0.67940 0.46760 0.76472 -0.50300
O 	O 	0.82530 0.54110 0.80694 -0.46900
O 	O 	0.76120 0.48070 0.81050 -0.49500
S 	S 	0.86471 0.45026 0.85310 0.01000
S 	S 	0.71742 0.59833 0.83337 -0.01200
Zn	Zn	0.75370 0.46021 0.77389 1.20900
Zn	Zn	0.83832 0.55286 0.76891 1.24700
C 	C 	0.76510 0.04250 0.06932 0.38700
C 	C 	0.77440 0.03830 0.09850 -0.10500
C 	C 	0.74550 0.06860 0.11577 0.01800
C 	C 	0.81150 0.00300 0.10728 0.03500
C 	C 	0.64120 0.07590 0.10530 -0.36800
H 	H 	0.64670 0.04690 0.11760 0.13200
H 	H 	0.61230 0.09800 0.11150 0.11500
H 	H 	0.63250 0.06190 0.08790 0.12700
C 	C 	0.90550 0.00930 0.08240 -0.33700
H 	H 	0.91750 0.01640 0.10030 0.12100
H 	H 	0.93360 0.99180 0.07260 0.10900
H 	H 	0.89660 0.04240 0.07370 0.13800
S 	S 	0.59427 0.91169 0.97784 0.10000
S 	S 	0.46937 0.88056 0.97475 0.16700
S 	S 	0.58200 0.93549 0.97725 0.09400
S 	S 	0.45626 0.90451 0.97385 -0.08800
O 	O 	0.63610 0.03920 0.98560 -0.21100
O 	O 	0.63950 0.99820 0.02451 -0.07000
O 	O 	0.62220 0.06290 0.98390 -0.39700
O 	O 	0.62870 0.02140 0.02220 -0.34500
C 	C 	0.61660 0.01530 0.00310 -0.31000
C 	C 	0.55920 0.00120 0.00162 -0.68700
C 	C 	0.54390 0.95410 0.99036 -0.22200
C 	C 	0.49110 0.94106 0.98907 -0.43500
C 	C 	0.54640 0.02480 0.00096 0.28800
C 	C 	0.53100 0.97760 0.98970 0.50700
C 	C 	0.47820 0.96458 0.98841 0.26700
C 	C 	0.60400 0.03870 0.00228 0.81700
C 	C 	0.60400 0.86930 0.00560 0.06700
H 	H 	0.60760 0.89040 0.02160 -0.00700
H 	H 	0.57380 0.84580 0.00740 -0.01400
H 	H 	0.63580 0.84850 0.00300 -0.16100
C 	C 	0.47100 0.90100 0.94060 -0.43100
H 	H 	0.44910 0.93220 0.93840 0.23400
H 	H 	0.50710 0.90910 0.93560 0.09400
H 	H 	0.45760 0.87260 0.92950 0.11300
C 	C 	0.58360 0.88670 0.00290 -0.73200
H 	H 	0.57990 0.90380 0.02010 0.26600
H 	H 	0.61700 0.86780 0.00230 0.30500
H 	H 	0.55470 0.86190 0.00040 0.23700
C 	C 	0.46500 0.92260 0.93980 -0.05800
H 	H 	0.45500 0.95930 0.93740 -0.08500
H 	H 	0.44320 0.90020 0.92870 0.03900
H 	H 	0.50200 0.91810 0.93490 0.04800
S 	S 	0.71710 0.72882 0.95436 0.07300
S 	S 	0.70913 0.85688 0.95483 -0.50300
S 	S 	0.67888 0.86227 0.95352 0.44400
S 	S 	0.66863 0.73930 0.95319 -0.02900
O 	O 	0.80520 0.66050 0.98410 -0.30100
O 	O 	0.74320 0.66060 0.01530 -0.55800
C 	C 	0.77530 0.68160 0.99940 0.53800
C 	C 	0.77290 0.74072 0.00028 -0.15300
C 	C 	0.74660 0.76660 0.98022 0.09700
C 	C 	0.74311 0.82100 0.98043 0.04700
C 	C 	0.76600 0.84944 0.00070 -0.07600
C 	C 	0.70771 0.82350 0.97924 0.06200
C 	C 	0.70423 0.76920 0.97945 -0.05400
C 	C 	0.77440 0.71540 0.93360 -0.40800
H 	H 	0.76330 0.69630 0.91790 0.14400
H 	H 	0.79970 0.69420 0.94350 0.16000
H 	H 	0.79080 0.74860 0.92840 0.13300
C 	C 	0.76140 0.86730 0.93090 -0.08500
H 	H 	0.79120 0.88440 0.93950 -0.01600
H 	H 	0.74850 0.88970 0.91660 -0.37800
H 	H 	0.77250 0.83350 0.92370 0.02800
C 	C 	0.73380 0.86030 0.93100 -0.30000
H 	H 	0.76660 0.86230 0.94090 0.24000
H 	H 	0.73160 0.89000 0.91880 0.49700
H 	H 	0.73280 0.82750 0.92100 0.10600
C 	C 	0.60390 0.75150 0.96720 -0.32100
H 	H 	0.59490 0.78860 0.96510 0.09800
H 	H 	0.60420 0.74270 0.98600 0.10500
H 	H 	0.57780 0.72990 0.95820 0.10000
O 	O 	0.85930 0.64350 0.97160 -0.68300
H 	H 	0.88900 0.64600 0.97900 0.27700
H 	H 	0.86000 0.67200 0.96300 0.29600
O 	O 	0.71760 0.92940 0.01472 -0.50400
O 	O 	0.79110 0.07530 0.05694 -0.46900
O 	O 	0.73070 0.01120 0.06050 -0.49300
S 	S 	0.70026 0.11471 0.10310 0.00900
S 	S 	0.84833 0.96742 0.08337 -0.03100
Zn	Zn	0.71021 0.00370 0.02389 1.21100
Zn	Zn	0.80286 0.08832 0.01891 1.24700
C 	C 	0.26510 0.54250 0.56932 0.38400
C 	C 	0.27440 0.53830 0.59850 -0.09900
C 	C 	0.24550 0.56860 0.61577 0.01400
C 	C 	0.31150 0.50300 0.60728 0.01700
C 	C 	0.14120 0.57590 0.60530 -0.36700
H 	H 	0.14670 0.54690 0.61760 0.13100
H 	H 	0.11230 0.59800 0.61150 0.11400
H 	H 	0.13250 0.56190 0.58790 0.12600
C 	C 	0.40550 0.50930 0.58240 -0.37100
H 	H 	0.41750 0.51640 0.60030 0.12900
H 	H 	0.43360 0.49180 0.57260 0.12400
H 	H 	0.39660 0.54240 0.57370 0.14700
S 	S 	0.09427 0.41169 0.47784 0.04700
S 	S 	0.96937 0.38056 0.47475 0.14900
S 	S 	0.08200 0.43549 0.47725 0.11800
S 	S 	0.95626 0.40451 0.47385 -0.07400
O 	O 	0.13610 0.53920 0.48560 -0.24700
O 	O 	0.13950 0.49820 0.52451 -0.04300
O 	O 	0.12220 0.56290 0.48390 -0.35700
O 	O 	0.12870 0.52140 0.52220 -0.38600
C 	C 	0.11660 0.51530 0.50310 -0.25500
C 	C 	0.05920 0.50120 0.50162 -0.61600
C 	C 	0.04390 0.45410 0.49036 -0.14800
C 	C 	0.99110 0.44106 0.48907 -0.43100
C 	C 	0.04640 0.52480 0.50096 0.22800
C 	C 	0.03100 0.47760 0.48970 0.40900
C 	C 	0.97820 0.46458 0.48841 0.24800
C 	C 	0.10400 0.53870 0.50228 0.76900
C 	C 	0.10400 0.36930 0.50560 0.06900
H 	H 	0.10760 0.39040 0.52160 -0.00700
H 	H 	0.07380 0.34580 0.50740 -0.01500
H 	H 	0.13580 0.34850 0.50300 -0.15300
C 	C 	0.97100 0.40100 0.44060 -0.42700
H 	H 	0.94910 0.43220 0.43840 0.22900
H 	H 	0.00710 0.40910 0.43560 0.09400
H 	H 	0.95760 0.37260 0.42950 0.11200
C 	C 	0.08360 0.38670 0.50290 -0.69500
H 	H 	0.07990 0.40380 0.52010 0.25000
H 	H 	0.11700 0.36780 0.50230 0.29000
H 	H 	0.05470 0.36190 0.50040 0.22600
C 	C 	0.96500 0.42260 0.43980 -0.05700
H 	H 	0.95500 0.45930 0.43740 -0.08100
H 	H 	0.94320 0.40020 0.42870 0.03900
H 	H 	0.00200 0.41810 0.43490 0.04900
S 	S 	0.21710 0.22882 0.45436 0.07000
S 	S 	0.20913 0.35688 0.45483 -0.49100
S 	S 	0.17888 0.36227 0.45352 0.43700
S 	S 	0.16863 0.23930 0.45319 -0.02600
O 	O 	0.30520 0.16050 0.48410 -0.30200
O 	O 	0.24320 0.16060 0.51530 -0.55800
C 	C 	0.27530 0.18160 0.49940 0.54200
C 	C 	0.27290 0.24072 0.50028 -0.15900
C 	C 	0.24660 0.26660 0.48022 0.10300
C 	C 	0.24311 0.32100 0.48043 0.04000
C 	C 	0.26600 0.34944 0.50070 -0.07300
C 	C 	0.20771 0.32350 0.47924 0.06600
C 	C 	0.20423 0.26920 0.47945 -0.05900
C 	C 	0.27440 0.21540 0.43360 -0.40700
H 	H 	0.26330 0.19630 0.41790 0.14400
H 	H 	0.29970 0.19420 0.44350 0.16000
H 	H 	0.29080 0.24860 0.42840 0.13200
C 	C 	0.26140 0.36730 0.43090 -0.08800
H 	H 	0.29120 0.38440 0.43950 -0.01600
H 	H 	0.24850 0.38970 0.41660 -0.37600
H 	H 	0.27250 0.33350 0.42370 0.02900
C 	C 	0.23380 0.36030 0.43100 -0.30600
H 	H 	0.26660 0.36230 0.44090 0.24300
H 	H 	0.23160 0.39000 0.41880 0.49800
H 	H 	0.23280 0.32750 0.42100 0.10800
C 	C 	0.10390 0.25150 0.46720 -0.32500
H 	H 	0.09490 0.28860 0.46510 0.10100
H 	H 	0.10420 0.24270 0.48600 0.10700
H 	H 	0.07780 0.22990 0.45820 0.10200
O 	O 	0.35930 0.14350 0.47160 -0.68200
H 	H 	0.38900 0.14600 0.47900 0.27700
H 	H 	0.36000 0.17200 0.46300 0.29600
O 	O 	0.21760 0.42940 0.51472 -0.50200
O 	O 	0.29110 0.57530 0.55694 -0.46900
O 	O 	0.23070 0.51120 0.56050 -0.49500
S 	S 	0.20026 0.61471 0.60310 0.01000
S 	S 	0.34833 0.46742 0.58337 -0.01200
Zn	Zn	0.21021 0.50370 0.52389 1.20900
Zn	Zn	0.30286 0.58832 0.51891 1.24700
C 	C 	0.73490 0.95750 0.56932 0.38200
C 	C 	0.72560 0.96170 0.59850 -0.09300
C 	C 	0.75450 0.93140 0.61577 0.01000
C 	C 	0.68850 0.99700 0.60728 -0.00100
C 	C 	0.85880 0.92410 0.60530 -0.36700
H 	H 	0.85330 0.95310 0.61760 0.12900
H 	H 	0.88770 0.90200 0.61150 0.11400
H 	H 	0.86750 0.93810 0.58790 0.12500
C 	C 	0.59450 0.99070 0.58240 -0.40600
H 	H 	0.58250 0.98360 0.60030 0.13700
H 	H 	0.56640 0.00820 0.57260 0.13900
H 	H 	0.60340 0.95760 0.57370 0.15600
S 	S 	0.90573 0.08831 0.47784 -0.00300
S 	S 	0.03063 0.11944 0.47475 0.13200
S 	S 	0.91800 0.06451 0.47725 0.13900
S 	S 	0.04374 0.09549 0.47385 -0.06200
O 	O 	0.86390 0.96080 0.48560 -0.28300
O 	O 	0.86050 0.00180 0.52451 -0.01500
O 	O 	0.87780 0.93710 0.48390 -0.31900
O 	O 	0.87130 0.97860 0.52220 -0.42700
C 	C 	0.88340 0.98470 0.50310 -0.20200
C 	C 	0.94080 0.99880 0.50162 -0.55100
C 	C 	0.95610 0.04590 0.49036 -0.07700
C 	C 	0.00890 0.05894 0.48907 -0.42700
C 	C 	0.95360 0.97520 0.50096 0.17000
C 	C 	0.96900 0.02240 0.48970 0.31700
C 	C 	0.02180 0.03542 0.48841 0.23000
C 	C 	0.89600 0.96130 0.50228 0.72500
C 	C 	0.89600 0.13070 0.50560 0.07100
H 	H 	0.89240 0.10960 0.52160 -0.00700
H 	H 	0.92620 0.15420 0.50740 -0.01600
H 	H 	0.86420 0.15150 0.50300 -0.14400
C 	C 	0.02900 0.09900 0.44060 -0.42400
H 	H 	0.05090 0.06780 0.43840 0.22500
H 	H 	0.99290 0.09090 0.43560 0.09300
H 	H 	0.04240 0.12740 0.42950 0.11100
C 	C 	0.91640 0.11330 0.50290 -0.65900
H 	H 	0.92010 0.09620 0.52010 0.23500
H 	H 	0.88300 0.13220 0.50230 0.27500
H 	H 	0.94530 0.13810 0.50040 0.21600
C 	C 	0.03500 0.07740 0.43980 -0.05500
H 	H 	0.04500 0.04070 0.43740 -0.07700
H 	H 	0.05680 0.09980 0.42870 0.03900
H 	H 	0.99800 0.08190 0.43490 0.04900
S 	S 	0.78290 0.27118 0.45436 0.06900
S 	S 	0.79087 0.14312 0.45483 -0.48000
S 	S 	0.82112 0.13773 0.45352 0.43100
S 	S 	0.83137 0.26070 0.45319 -0.02500
O 	O 	0.69480 0.33950 0.48410 -0.30200
O 	O 	0.75680 0.33940 0.51530 -0.55800
C 	C 	0.72470 0.31840 0.49940 0.54200
C 	C 	0.72710 0.25928 0.50028 -0.15900
C 	C 	0.75340 0.23340 0.48022 0.10300
C 	C 	0.75689 0.17900 0.48043 0.03800
C 	C 	0.73400 0.15056 0.50070 -0.07200
C 	C 	0.79229 0.17650 0.47924 0.06400
C 	C 	0.79577 0.23080 0.47945 -0.05900
C 	C 	0.72560 0.28460 0.43360 -0.40600
H 	H 	0.73670 0.30370 0.41790 0.14400
H 	H 	0.70030 0.30580 0.44350 0.16000
H 	H 	0.70920 0.25140 0.42840 0.13200
C 	C 	0.73860 0.13270 0.43090 -0.09200
H 	H 	0.70880 0.11560 0.43950 -0.01500
H 	H 	0.75150 0.11030 0.41660 -0.37400
H 	H 	0.72750 0.16650 0.42370 0.03000
C 	C 	0.76620 0.13970 0.43100 -0.31200
H 	H 	0.73340 0.13770 0.44090 0.24600
H 	H 	0.76840 0.11000 0.41880 0.49900
H 	H 	0.76720 0.17250 0.42100 0.11000
C 	C 	0.89610 0.24850 0.46720 -0.32700
H 	H 	0.90510 0.21140 0.46510 0.10200
H 	H 	0.89580 0.25730 0.48600 0.10700
H 	H 	0.92220 0.27010 0.45820 0.10200
O 	O 	0.64070 0.35650 0.47160 -0.68300
H 	H 	0.61100 0.35400 0.47900 0.27700
H 	H 	0.64000 0.32800 0.46300 0.29600
O 	O 	0.78240 0.07060 0.51472 -0.50100
O 	O 	0.70890 0.92470 0.55694 -0.46900
O 	O 	0.76930 0.98880 0.56050 -0.49700
S 	S 	0.79974 0.88529 0.60310 0.01000
S 	S 	0.65167 0.03258 0.58337 0.00700
Zn	Zn	0.78979 0.99630 0.52389 1.20700
Zn	Zn	0.69714 0.91168 0.51891 1.24800
C 	C 	0.23490 0.45750 0.06932 0.38400
C 	C 	0.22560 0.46170 0.09850 -0.09900
C 	C 	0.25450 0.43140 0.11577 0.01400
C 	C 	0.18850 0.49700 0.10728 0.01700
C 	C 	0.35880 0.42410 0.10530 -0.36800
H 	H 	0.35330 0.45310 0.11760 0.13100
H 	H 	0.38770 0.40200 0.11150 0.11400
H 	H 	0.36750 0.43810 0.08790 0.12600
C 	C 	0.09450 0.49070 0.08240 -0.37200
H 	H 	0.08250 0.48360 0.10030 0.12900
H 	H 	0.06640 0.50820 0.07260 0.12400
H 	H 	0.10340 0.45760 0.07370 0.14700
S 	S 	0.40573 0.58831 0.97784 0.05000
S 	S 	0.53063 0.61944 0.97475 0.15000
S 	S 	0.41800 0.56451 0.97725 0.11500
S 	S 	0.54374 0.59549 0.97385 -0.07600
O 	O 	0.36390 0.46080 0.98560 -0.24700
O 	O 	0.36050 0.50180 0.02451 -0.04100
O 	O 	0.37780 0.43710 0.98390 -0.35900
O 	O 	0.37130 0.47860 0.02220 -0.38700
C 	C 	0.38340 0.48470 0.00310 -0.25700
C 	C 	0.44080 0.49880 0.00162 -0.62000
C 	C 	0.45610 0.54590 0.99036 -0.15000
C 	C 	0.50890 0.55894 0.98907 -0.43000
C 	C 	0.45360 0.47520 0.00096 0.23100
C 	C 	0.46900 0.52240 0.98970 0.41300
C 	C 	0.52180 0.53542 0.98841 0.24800
C 	C 	0.39600 0.46130 0.00228 0.77300
C 	C 	0.39600 0.63070 0.00560 0.06900
H 	H 	0.39240 0.60960 0.02160 -0.00700
H 	H 	0.42620 0.65420 0.00740 -0.01500
H 	H 	0.36420 0.65150 0.00300 -0.15200
C 	C 	0.52900 0.59900 0.94060 -0.42700
H 	H 	0.55090 0.56780 0.93840 0.22900
H 	H 	0.49290 0.59090 0.93560 0.09400
H 	H 	0.54240 0.62740 0.92950 0.11200
C 	C 	0.41640 0.61330 0.00290 -0.69500
H 	H 	0.42010 0.59620 0.02010 0.25000
H 	H 	0.38300 0.63220 0.00230 0.29000
H 	H 	0.44530 0.63810 0.00040 0.22700
C 	C 	0.53500 0.57740 0.93980 -0.05700
H 	H 	0.54500 0.54070 0.93740 -0.08100
H 	H 	0.55680 0.59980 0.92870 0.03900
H 	H 	0.49800 0.58190 0.93490 0.04900
S 	S 	0.28290 0.77118 0.95436 0.07200
S 	S 	0.29087 0.64312 0.95483 -0.49200
S 	S 	0.32112 0.63773 0.95352 0.43800
S 	S 	0.33137 0.76070 0.95319 -0.02800
O 	O 	0.19480 0.83950 0.98410 -0.30000
O 	O 	0.25680 0.83940 0.01530 -0.55800
C 	C 	0.22470 0.81840 0.99940 0.53800
C 	C 	0.22710 0.75928 0.00028 -0.15300
C 	C 	0.25340 0.73340 0.98022 0.09800
C 	C 	0.25689 0.67900 0.98043 0.04500
C 	C 	0.23400 0.65056 0.00070 -0.07600
C 	C 	0.29229 0.67650 0.97924 0.06000
C 	C 	0.29577 0.73080 0.97945 -0.05400
C 	C 	0.22560 0.78460 0.93360 -0.40700
H 	H 	0.23670 0.80370 0.91790 0.14400
H 	H 	0.20030 0.80580 0.94350 0.16000
H 	H 	0.20920 0.75140 0.92840 0.13200
C 	C 	0.23860 0.63270 0.93090 -0.08800
H 	H 	0.20880 0.61560 0.93950 -0.01600
H 	H 	0.25150 0.61030 0.91660 -0.37600
H 	H 	0.22750 0.66650 0.92370 0.02900
C 	C 	0.26620 0.63970 0.93100 -0.30600
H 	H 	0.23340 0.63770 0.94090 0.24300
H 	H 	0.26840 0.61000 0.91880 0.49800
H 	H 	0.26720 0.67250 0.92100 0.10800
C 	C 	0.39610 0.74850 0.96720 -0.32200
H 	H 	0.40510 0.71140 0.96510 0.10000
H 	H 	0.39580 0.75730 0.98600 0.10600
H 	H 	0.42220 0.77010 0.95820 0.10000
O 	O 	0.14070 0.85650 0.97160 -0.68500
H 	H 	0.11100 0.85400 0.97900 0.27700
H 	H 	0.14000 0.82800 0.96300 0.29600
O 	O 	0.28240 0.57060 0.01472 -0.50300
O 	O 	0.20890 0.42470 0.05694 -0.46900
O 	O 	0.26930 0.48880 0.06050 -0.49500
S 	S 	0.29974 0.38529 0.10310 0.01000
S 	S 	0.15167 0.53258 0.08337 -0.01200
Zn	Zn	0.28979 0.49630 0.02389 1.20900
Zn	Zn	0.19714 0.41168 0.01891 1.24800
C 	C 	0.70750 0.01510 0.81932 0.38900
C 	C 	0.71170 0.02440 0.84850 -0.08800
C 	C 	0.68140 0.99550 0.86577 -0.00400
C 	C 	0.74700 0.06150 0.85728 0.01300
C 	C 	0.67410 0.89120 0.85530 -0.36800
H 	H 	0.70310 0.89670 0.86760 0.13100
H 	H 	0.65200 0.86230 0.86150 0.11400
H 	H 	0.68810 0.88250 0.83790 0.12600
C 	C 	0.74070 0.15550 0.83240 -0.37300
H 	H 	0.73360 0.16750 0.85030 0.12900
H 	H 	0.75820 0.18360 0.82260 0.12400
H 	H 	0.70760 0.14660 0.82370 0.14800
S 	S 	0.83831 0.84427 0.72784 0.04800
S 	S 	0.86944 0.71937 0.72475 0.14900
S 	S 	0.81451 0.83200 0.72725 0.11500
S 	S 	0.84549 0.70626 0.72385 -0.07500
O 	O 	0.71080 0.88610 0.73560 -0.24800
O 	O 	0.75180 0.88950 0.77451 -0.04200
O 	O 	0.68710 0.87220 0.73390 -0.35700
O 	O 	0.72860 0.87870 0.77220 -0.38700
C 	C 	0.73470 0.86660 0.75310 -0.25600
C 	C 	0.74880 0.80920 0.75162 -0.61700
C 	C 	0.79590 0.79390 0.74036 -0.14800
C 	C 	0.80894 0.74110 0.73907 -0.42900
C 	C 	0.72520 0.79640 0.75096 0.22800
C 	C 	0.77240 0.78100 0.73970 0.41000
C 	C 	0.78542 0.72820 0.73841 0.24700
C 	C 	0.71130 0.85400 0.75228 0.77100
C 	C 	0.88070 0.85400 0.75560 0.06900
H 	H 	0.85960 0.85760 0.77160 -0.00700
H 	H 	0.90420 0.82380 0.75740 -0.01500
H 	H 	0.90150 0.88580 0.75300 -0.15100
C 	C 	0.84900 0.72100 0.69060 -0.42700
H 	H 	0.81780 0.69910 0.68840 0.22900
H 	H 	0.84090 0.75710 0.68560 0.09400
H 	H 	0.87740 0.70760 0.67950 0.11200
C 	C 	0.86330 0.83360 0.75290 -0.69400
H 	H 	0.84620 0.82990 0.77010 0.25000
H 	H 	0.88220 0.86700 0.75230 0.28900
H 	H 	0.88810 0.80470 0.75040 0.22600
C 	C 	0.82740 0.71500 0.68980 -0.05600
H 	H 	0.79070 0.70500 0.68740 -0.08100
H 	H 	0.84980 0.69320 0.67870 0.03900
H 	H 	0.83190 0.75200 0.68490 0.04900
S 	S 	0.02118 0.96710 0.70436 0.06700
S 	S 	0.89312 0.95913 0.70483 -0.49100
S 	S 	0.88773 0.92888 0.70352 0.45000
S 	S 	0.01070 0.91863 0.70319 -0.03900
O 	O 	0.08950 0.05520 0.73410 -0.29900
O 	O 	0.08940 0.99320 0.76530 -0.56400
C 	C 	0.06840 0.02530 0.74940 0.53000
C 	C 	0.00928 0.02290 0.75028 -0.10900
C 	C 	0.98340 0.99660 0.73022 0.05000
C 	C 	0.92900 0.99311 0.73043 0.09800
C 	C 	0.90056 0.01600 0.75070 -0.13300
C 	C 	0.92650 0.95771 0.72924 -0.01200
C 	C 	0.98080 0.95423 0.72945 0.00400
C 	C 	0.03460 0.02440 0.68360 -0.40000
H 	H 	0.05370 0.01330 0.66790 0.14400
H 	H 	0.05580 0.04970 0.69350 0.15900
H 	H 	0.00140 0.04080 0.67840 0.13100
C 	C 	0.88270 0.01140 0.68090 -0.10800
H 	H 	0.86560 0.04120 0.68950 -0.01500
H 	H 	0.86030 0.99850 0.66660 -0.37400
H 	H 	0.91650 0.02250 0.67370 0.03700
C 	C 	0.88970 0.98380 0.68100 -0.31500
H 	H 	0.88770 0.01660 0.69090 0.26000
H 	H 	0.86000 0.98160 0.66880 0.50000
H 	H 	0.92250 0.98280 0.67100 0.10800
C 	C 	0.99850 0.85390 0.71720 -0.31800
H 	H 	0.96140 0.84490 0.71510 0.09900
H 	H 	0.00730 0.85420 0.73600 0.10400
H 	H 	0.02010 0.82780 0.70820 0.10000
O 	O 	0.10650 0.10930 0.72160 -0.68400
H 	H 	0.10400 0.13900 0.72900 0.27700
H 	H 	0.07800 0.11000 0.71300 0.29600
O 	O 	0.82060 0.96760 0.76472 -0.51100
O 	O 	0.67470 0.04110 0.80694 -0.46900
O 	O 	0.73880 0.98070 0.81050 -0.50100
S 	S 	0.63529 0.95026 0.85310 0.01000
S 	S 	0.78258 0.09833 0.83337 -0.00900
Zn	Zn	0.74630 0.96021 0.77389 1.20800
Zn	Zn	0.66168 0.05286 0.76891 1.24800
C 	C 	0.20750 0.51510 0.31932 0.38400
C 	C 	0.21170 0.52440 0.34850 -0.09900
C 	C 	0.18140 0.49550 0.36577 0.01400
C 	C 	0.24700 0.56150 0.35728 0.01700
C 	C 	0.17410 0.39120 0.35530 -0.36700
H 	H 	0.20310 0.39670 0.36760 0.13100
H 	H 	0.15200 0.36230 0.36150 0.11400
H 	H 	0.18810 0.38250 0.33790 0.12600
C 	C 	0.24070 0.65550 0.33240 -0.37100
H 	H 	0.23360 0.66750 0.35030 0.12900
H 	H 	0.25820 0.68360 0.32260 0.12400
H 	H 	0.20760 0.64660 0.32370 0.14700
S 	S 	0.33831 0.34427 0.22784 0.04800
S 	S 	0.36944 0.21937 0.22475 0.15000
S 	S 	0.31451 0.33200 0.22725 0.11700
S 	S 	0.34549 0.20626 0.22385 -0.07500
O 	O 	0.21080 0.38610 0.23560 -0.24600
O 	O 	0.25180 0.38950 0.27451 -0.04200
O 	O 	0.18710 0.37220 0.23390 -0.35900
O 	O 	0.22860 0.37870 0.27220 -0.38700
C 	C 	0.23470 0.36660 0.25310 -0.25600
C 	C 	0.24880 0.30920 0.25162 -0.62100
C 	C 	0.29590 0.29390 0.24036 -0.14800
C 	C 	0.30894 0.24110 0.23907 -0.43200
C 	C 	0.22520 0.29640 0.25096 0.23000
C 	C 	0.27240 0.28100 0.23970 0.41200
C 	C 	0.28542 0.22820 0.23841 0.24900
C 	C 	0.21130 0.35400 0.25228 0.77200
C 	C 	0.38070 0.35400 0.25560 0.06900
H 	H 	0.35960 0.35760 0.27160 -0.00700
H 	H 	0.40420 0.32380 0.25740 -0.01500
H 	H 	0.40150 0.38580 0.25300 -0.15300
C 	C 	0.34900 0.22100 0.19060 -0.42800
H 	H 	0.31780 0.19910 0.18840 0.23000
H 	H 	0.34090 0.25710 0.18560 0.09400
H 	H 	0.37740 0.20760 0.17950 0.11200
C 	C 	0.36330 0.33360 0.25290 -0.69600
H 	H 	0.34620 0.32990 0.27010 0.25000
H 	H 	0.38220 0.36700 0.25230 0.29000
H 	H 	0.38810 0.30470 0.25040 0.22700
C 	C 	0.32740 0.21500 0.18980 -0.05700
H 	H 	0.29070 0.20500 0.18740 -0.08100
H 	H 	0.34980 0.19320 0.17870 0.04000
H 	H 	0.33190 0.25200 0.18490 0.04900
S 	S 	0.52118 0.46710 0.20436 0.07100
S 	S 	0.39312 0.45913 0.20483 -0.49200
S 	S 	0.38773 0.42888 0.20352 0.43700
S 	S 	0.51070 0.41863 0.20319 -0.02600
O 	O 	0.58950 0.55520 0.23410 -0.30100
O 	O 	0.58940 0.49320 0.26530 -0.55800
C 	C 	0.56840 0.52530 0.24940 0.54200
C 	C 	0.50928 0.52290 0.25028 -0.15900
C 	C 	0.48340 0.49660 0.23022 0.10200
C 	C 	0.42900 0.49311 0.23043 0.04000
C 	C 	0.40056 0.51600 0.25070 -0.07300
C 	C 	0.42650 0.45771 0.22924 0.06600
C 	C 	0.48080 0.45423 0.22945 -0.05900
C 	C 	0.53460 0.52440 0.18360 -0.40700
H 	H 	0.55370 0.51330 0.16790 0.14400
H 	H 	0.55580 0.54970 0.19350 0.16000
H 	H 	0.50140 0.54080 0.17840 0.13200
C 	C 	0.38270 0.51140 0.18090 -0.08800
H 	H 	0.36560 0.54120 0.18950 -0.01600
H 	H 	0.36030 0.49850 0.16660 -0.37600
H 	H 	0.41650 0.52250 0.17370 0.02900
C 	C 	0.38970 0.48380 0.18100 -0.30600
H 	H 	0.38770 0.51660 0.19090 0.24300
H 	H 	0.36000 0.48160 0.16880 0.49800
H 	H 	0.42250 0.48280 0.17100 0.10800
C 	C 	0.49850 0.35390 0.21720 -0.32400
H 	H 	0.46140 0.34490 0.21510 0.10000
H 	H 	0.50730 0.35420 0.23600 0.10700
H 	H 	0.52010 0.32780 0.20820 0.10100
O 	O 	0.60650 0.60930 0.22160 -0.68300
H 	H 	0.60400 0.63900 0.22900 0.27700
H 	H 	0.57800 0.61000 0.21300 0.29600
O 	O 	0.32060 0.46760 0.26472 -0.50300
O 	O 	0.17470 0.54110 0.30694 -0.46900
O 	O 	0.23880 0.48070 0.31050 -0.49500
S 	S 	0.13529 0.45026 0.35310 0.01000
S 	S 	0.28258 0.59833 0.33337 -0.01200
Zn	Zn	0.24630 0.46021 0.27389 1.20900
Zn	Zn	0.16168 0.55286 0.26891 1.24700
C 	C 	0.79250 0.98490 0.31932 0.37900
C 	C 	0.78830 0.97560 0.34850 -0.11000
C 	C 	0.81860 0.00450 0.36577 0.03200
C 	C 	0.75300 0.93850 0.35728 0.02100
C 	C 	0.82590 0.10880 0.35530 -0.36700
H 	H 	0.79690 0.10330 0.36760 0.13100
H 	H 	0.84800 0.13770 0.36150 0.11400
H 	H 	0.81190 0.11750 0.33790 0.12600
C 	C 	0.75930 0.84450 0.33240 -0.37000
H 	H 	0.76640 0.83250 0.35030 0.12800
H 	H 	0.74180 0.81640 0.32260 0.12300
H 	H 	0.79240 0.85340 0.32370 0.14700
S 	S 	0.66169 0.15573 0.22784 0.04500
S 	S 	0.63056 0.28063 0.22475 0.14900
S 	S 	0.68549 0.16800 0.22725 0.12100
S 	S 	0.65451 0.29374 0.22385 -0.07400
O 	O 	0.78920 0.11390 0.23560 -0.24700
O 	O 	0.74820 0.11050 0.27451 -0.04300
O 	O 	0.81290 0.12780 0.23390 -0.35700
O 	O 	0.77140 0.12130 0.27220 -0.38600
C 	C 	0.76530 0.13340 0.25310 -0.25400
C 	C 	0.75120 0.19080 0.25162 -0.61600
C 	C 	0.70410 0.20610 0.24036 -0.14700
C 	C 	0.69106 0.25890 0.23907 -0.43400
C 	C 	0.77480 0.20360 0.25096 0.22700
C 	C 	0.72760 0.21900 0.23970 0.40900
C 	C 	0.71458 0.27180 0.23841 0.25000
C 	C 	0.78870 0.14600 0.25228 0.76900
C 	C 	0.61930 0.14600 0.25560 0.06900
H 	H 	0.64040 0.14240 0.27160 -0.00700
H 	H 	0.59580 0.17620 0.25740 -0.01500
H 	H 	0.59850 0.11420 0.25300 -0.15300
C 	C 	0.65100 0.27900 0.19060 -0.42800
H 	H 	0.68220 0.30090 0.18840 0.22900
H 	H 	0.65910 0.24290 0.18560 0.09400
H 	H 	0.62260 0.29240 0.17950 0.11200
C 	C 	0.63670 0.16640 0.25290 -0.69600
H 	H 	0.65380 0.17010 0.27010 0.25000
H 	H 	0.61780 0.13300 0.25230 0.29100
H 	H 	0.61190 0.19530 0.25040 0.22700
C 	C 	0.67260 0.28500 0.18980 -0.05700
H 	H 	0.70930 0.29500 0.18740 -0.08100
H 	H 	0.65020 0.30680 0.17870 0.03900
H 	H 	0.66810 0.24800 0.18490 0.04900
S 	S 	0.47882 0.03290 0.20436 0.07600
S 	S 	0.60688 0.04087 0.20483 -0.48600
S 	S 	0.61227 0.07112 0.20352 0.42000
S 	S 	0.48930 0.08137 0.20319 -0.01500
O 	O 	0.41050 0.94480 0.23410 -0.30400
O 	O 	0.41060 0.00680 0.26530 -0.55200
C 	C 	0.43160 0.97470 0.24940 0.55200
C 	C 	0.49072 0.97710 0.25028 -0.20600
C 	C 	0.51660 0.00340 0.23022 0.14600
C 	C 	0.57100 0.00689 0.23043 -0.00400
C 	C 	0.59944 0.98400 0.25070 -0.02100
C 	C 	0.57350 0.04229 0.22924 0.13400
C 	C 	0.51920 0.04577 0.22945 -0.11800
C 	C 	0.46540 0.97560 0.18360 -0.41600
H 	H 	0.44630 0.98670 0.16790 0.14400
H 	H 	0.44420 0.95030 0.19350 0.16200
H 	H 	0.49860 0.95920 0.17840 0.13300
C 	C 	0.61730 0.98860 0.18090 -0.07100
H 	H 	0.63440 0.95880 0.18950 -0.01600
H 	H 	0.63970 0.00150 0.16660 -0.37800
H 	H 	0.58350 0.97750 0.17370 0.02200
C 	C 	0.61030 0.01620 0.18100 -0.29900
H 	H 	0.61230 0.98340 0.19090 0.22700
H 	H 	0.64000 0.01840 0.16880 0.49700
H 	H 	0.57750 0.01720 0.17100 0.10900
C 	C 	0.50150 0.14610 0.21720 -0.32900
H 	H 	0.53860 0.15510 0.21510 0.10200
H 	H 	0.49270 0.14580 0.23600 0.10800
H 	H 	0.47990 0.17220 0.20820 0.10200
O 	O 	0.39350 0.89070 0.22160 -0.68300
H 	H 	0.39600 0.86100 0.22900 0.27700
H 	H 	0.42200 0.89000 0.21300 0.29600
O 	O 	0.67940 0.03240 0.26472 -0.50400
O 	O 	0.82530 0.95890 0.30694 -0.47000
O 	O 	0.76120 0.01930 0.31050 -0.48900
S 	S 	0.86471 0.04974 0.35310 0.00900
S 	S 	0.71742 0.90167 0.33337 -0.01500
Zn	Zn	0.75370 0.03979 0.27389 1.20900
Zn	Zn	0.83832 0.94714 0.26891 1.24600
C 	C 	0.29250 0.48490 0.81932 0.38400
C 	C 	0.28830 0.47560 0.84850 -0.09900
C 	C 	0.31860 0.50450 0.86577 0.01400
C 	C 	0.25300 0.43850 0.85728 0.01700
C 	C 	0.32590 0.60880 0.85530 -0.36700
H 	H 	0.29690 0.60330 0.86760 0.13100
H 	H 	0.34800 0.63770 0.86150 0.11400
H 	H 	0.31190 0.61750 0.83790 0.12600
C 	C 	0.25930 0.34450 0.83240 -0.37200
H 	H 	0.26640 0.33250 0.85030 0.12900
H 	H 	0.24180 0.31640 0.82260 0.12400
H 	H 	0.29240 0.35340 0.82370 0.14700
S 	S 	0.16169 0.65573 0.72784 0.04600
S 	S 	0.13056 0.78063 0.72475 0.14800
S 	S 	0.18549 0.66800 0.72725 0.11800
S 	S 	0.15451 0.79374 0.72385 -0.07300
O 	O 	0.28920 0.61390 0.73560 -0.24800
O 	O 	0.24820 0.61050 0.77451 -0.04400
O 	O 	0.31290 0.62780 0.73390 -0.35600
O 	O 	0.27140 0.62130 0.77220 -0.38500
C 	C 	0.26530 0.63340 0.75310 -0.25400
C 	C 	0.25120 0.69080 0.75162 -0.61300
C 	C 	0.20410 0.70610 0.74036 -0.14700
C 	C 	0.19106 0.75890 0.73907 -0.43000
C 	C 	0.27480 0.70360 0.75096 0.22600
C 	C 	0.22760 0.71900 0.73970 0.40700
C 	C 	0.21458 0.77180 0.73841 0.24800
C 	C 	0.28870 0.64600 0.75228 0.76800
C 	C 	0.11930 0.64600 0.75560 0.06900
H 	H 	0.14040 0.64240 0.77160 -0.00700
H 	H 	0.09580 0.67620 0.75740 -0.01500
H 	H 	0.09850 0.61420 0.75300 -0.15300
C 	C 	0.15100 0.77900 0.69060 -0.42700
H 	H 	0.18220 0.80090 0.68840 0.22900
H 	H 	0.15910 0.74290 0.68560 0.09400
H 	H 	0.12260 0.79240 0.67950 0.11200
C 	C 	0.13670 0.66640 0.75290 -0.69400
H 	H 	0.15380 0.67010 0.77010 0.25000
H 	H 	0.11780 0.63300 0.75230 0.29000
H 	H 	0.11190 0.69530 0.75040 0.22600
C 	C 	0.17260 0.78500 0.68980 -0.05600
H 	H 	0.20930 0.79500 0.68740 -0.08100
H 	H 	0.15020 0.80680 0.67870 0.03900
H 	H 	0.16810 0.74800 0.68490 0.04900
S 	S 	0.97882 0.53290 0.70436 0.07100
S 	S 	0.10688 0.54087 0.70483 -0.49100
S 	S 	0.11227 0.57112 0.70352 0.43700
S 	S 	0.98930 0.58137 0.70319 -0.02600
O 	O 	0.91050 0.44480 0.73410 -0.30100
O 	O 	0.91060 0.50680 0.76530 -0.55800
C 	C 	0.93160 0.47470 0.74940 0.54200
C 	C 	0.99072 0.47710 0.75028 -0.15900
C 	C 	0.01660 0.50340 0.73022 0.10200
C 	C 	0.07100 0.50689 0.73043 0.04000
C 	C 	0.09944 0.48400 0.75070 -0.07300
C 	C 	0.07350 0.54229 0.72924 0.06600
C 	C 	0.01920 0.54577 0.72945 -0.05900
C 	C 	0.96540 0.47560 0.68360 -0.40700
H 	H 	0.94630 0.48670 0.66790 0.14400
H 	H 	0.94420 0.45030 0.69350 0.16000
H 	H 	0.99860 0.45920 0.67840 0.13200
C 	C 	0.11730 0.48860 0.68090 -0.08800
H 	H 	0.13440 0.45880 0.68950 -0.01600
H 	H 	0.13970 0.50150 0.66660 -0.37600
H 	H 	0.08350 0.47750 0.67370 0.02900
C 	C 	0.11030 0.51620 0.68100 -0.30600
H 	H 	0.11230 0.48340 0.69090 0.24300
H 	H 	0.14000 0.51840 0.66880 0.49800
H 	H 	0.07750 0.51720 0.67100 0.10800
C 	C 	0.00150 0.64610 0.71720 -0.32400
H 	H 	0.03860 0.65510 0.71510 0.10000
H 	H 	0.99270 0.64580 0.73600 0.10700
H 	H 	0.97990 0.67220 0.70820 0.10100
O 	O 	0.89350 0.39070 0.72160 -0.68300
H 	H 	0.89600 0.36100 0.72900 0.27700
H 	H 	0.92200 0.39000 0.71300 0.29600
O 	O 	0.17940 0.53240 0.76472 -0.50200
O 	O 	0.32530 0.45890 0.80694 -0.46900
O 	O 	0.26120 0.51930 0.81050 -0.49500
S 	S 	0.36471 0.54974 0.85310 0.01000
S 	S 	0.21742 0.40167 0.83337 -0.01200
Zn	Zn	0.25370 0.53979 0.77389 1.20900
Zn	Zn	0.33832 0.44714 0.76891 1.24700
C 	C 	0.73490 0.04250 0.93068 0.38700
C 	C 	0.72560 0.03830 0.90150 -0.10500
C 	C 	0.75450 0.06860 0.88423 0.01800
C 	C 	0.68850 0.00300 0.89272 0.03500
C 	C 	0.85880 0.07590 0.89470 -0.36800
H 	H 	0.85330 0.04690 0.88240 0.13200
H 	H 	0.88770 0.09800 0.88850 0.11500
H 	H 	0.86750 0.06190 0.91210 0.12700
C 	C 	0.59450 0.00930 0.91760 -0.33700
H 	H 	0.58250 0.01640 0.89970 0.12100
H 	H 	0.56640 0.99180 0.92740 0.10900
H 	H 	0.60340 0.04240 0.92630 0.13800
S 	S 	0.90573 0.91169 0.02216 0.09500
S 	S 	0.03063 0.88056 0.02525 0.16500
S 	S 	0.91800 0.93549 0.02275 0.09800
S 	S 	0.04374 0.90451 0.02615 -0.08600
O 	O 	0.86390 0.03920 0.01440 -0.21200
O 	O 	0.86050 0.99820 0.97549 -0.07300
O 	O 	0.87780 0.06290 0.01610 -0.39400
O 	O 	0.87130 0.02140 0.97780 -0.34300
C 	C 	0.88340 0.01530 0.99690 -0.30700
C 	C 	0.94080 0.00120 0.99838 -0.67800
C 	C 	0.95610 0.95410 0.00964 -0.21600
C 	C 	0.00890 0.94106 0.01093 -0.43600
C 	C 	0.95360 0.02480 0.99904 0.28200
C 	C 	0.96900 0.97760 0.01030 0.49900
C 	C 	0.02180 0.96458 0.01159 0.26700
C 	C 	0.89600 0.03870 0.99772 0.81100
C 	C 	0.89600 0.86930 0.99440 0.06700
H 	H 	0.89240 0.89040 0.97840 -0.00700
H 	H 	0.92620 0.84580 0.99260 -0.01400
H 	H 	0.86420 0.84850 0.99700 -0.16200
C 	C 	0.02900 0.90100 0.05940 -0.43100
H 	H 	0.05090 0.93220 0.06160 0.23400
H 	H 	0.99290 0.90910 0.06440 0.09400
H 	H 	0.04240 0.87260 0.07050 0.11300
C 	C 	0.91640 0.88670 0.99710 -0.73100
H 	H 	0.92010 0.90380 0.97990 0.26500
H 	H 	0.88300 0.86780 0.99770 0.30500
H 	H 	0.94530 0.86190 0.99960 0.23600
C 	C 	0.03500 0.92260 0.06020 -0.05800
H 	H 	0.04500 0.95930 0.06260 -0.08500
H 	H 	0.05680 0.90020 0.07130 0.03900
H 	H 	0.99800 0.91810 0.06510 0.04900
S 	S 	0.78290 0.72882 0.04564 0.07200
S 	S 	0.79087 0.85688 0.04517 -0.50100
S 	S 	0.82112 0.86227 0.04648 0.44100
S 	S 	0.83137 0.73930 0.04681 -0.02600
O 	O 	0.69480 0.66050 0.01590 -0.30200
O 	O 	0.75680 0.66060 0.98470 -0.55800
C 	C 	0.72470 0.68160 0.00060 0.54500
C 	C 	0.72710 0.74072 0.99972 -0.16400
C 	C 	0.75340 0.76660 0.01978 0.10500
C 	C 	0.75689 0.82100 0.01957 0.03800
C 	C 	0.73400 0.84944 0.99930 -0.07200
C 	C 	0.79229 0.82350 0.02076 0.07200
C 	C 	0.79577 0.76920 0.02055 -0.06500
C 	C 	0.72560 0.71540 0.06640 -0.40800
H 	H 	0.73670 0.69630 0.08210 0.14400
H 	H 	0.70030 0.69420 0.05650 0.16000
H 	H 	0.70920 0.74860 0.07160 0.13200
C 	C 	0.73860 0.86730 0.06910 -0.08500
H 	H 	0.70880 0.88440 0.06050 -0.01600
H 	H 	0.75150 0.88970 0.08340 -0.37800
H 	H 	0.72750 0.83350 0.07630 0.02900
C 	C 	0.76620 0.86030 0.06900 -0.30100
H 	H 	0.73340 0.86230 0.05910 0.24100
H 	H 	0.76840 0.89000 0.08120 0.49800
H 	H 	0.76720 0.82750 0.07900 0.10700
C 	C 	0.89610 0.75150 0.03280 -0.32300
H 	H 	0.90510 0.78860 0.03490 0.09900
H 	H 	0.89580 0.74270 0.01400 0.10600
H 	H 	0.92220 0.72990 0.04180 0.10000
O 	O 	0.64070 0.64350 0.02840 -0.68300
H 	H 	0.61100 0.64600 0.02100 0.27700
H 	H 	0.64000 0.67200 0.03700 0.29600
O 	O 	0.78240 0.92940 0.98528 -0.50400
O 	O 	0.70890 0.07530 0.94306 -0.46900
O 	O 	0.76930 0.01120 0.93950 -0.49300
S 	S 	0.79974 0.11471 0.89690 0.00900
S 	S 	0.65167 0.96742 0.91663 -0.03100
Zn	Zn	0.78979 0.00370 0.97611 1.21100
Zn	Zn	0.69714 0.08832 0.98109 1.24700
C 	C 	0.23490 0.54250 0.43068 0.38400
C 	C 	0.22560 0.53830 0.40150 -0.09900
C 	C 	0.25450 0.56860 0.38423 0.01400
C 	C 	0.18850 0.50300 0.39272 0.01700
C 	C 	0.35880 0.57590 0.39470 -0.36700
H 	H 	0.35330 0.54690 0.38240 0.13100
H 	H 	0.38770 0.59800 0.38850 0.11400
H 	H 	0.36750 0.56190 0.41210 0.12600
C 	C 	0.09450 0.50930 0.41760 -0.37100
H 	H 	0.08250 0.51640 0.39970 0.12900
H 	H 	0.06640 0.49180 0.42740 0.12400
H 	H 	0.10340 0.54240 0.42630 0.14700
S 	S 	0.40573 0.41169 0.52216 0.04700
S 	S 	0.53063 0.38056 0.52525 0.14900
S 	S 	0.41800 0.43549 0.52275 0.11800
S 	S 	0.54374 0.40451 0.52615 -0.07400
O 	O 	0.36390 0.53920 0.51440 -0.24700
O 	O 	0.36050 0.49820 0.47549 -0.04300
O 	O 	0.37780 0.56290 0.51610 -0.35700
O 	O 	0.37130 0.52140 0.47780 -0.38600
C 	C 	0.38340 0.51530 0.49690 -0.25500
C 	C 	0.44080 0.50120 0.49838 -0.61600
C 	C 	0.45610 0.45410 0.50964 -0.14800
C 	C 	0.50890 0.44106 0.51093 -0.43100
C 	C 	0.45360 0.52480 0.49904 0.22800
C 	C 	0.46900 0.47760 0.51030 0.40900
C 	C 	0.52180 0.46458 0.51159 0.24800
C 	C 	0.39600 0.53870 0.49772 0.76900
C 	C 	0.39600 0.36930 0.49440 0.06900
H 	H 	0.39240 0.39040 0.47840 -0.00700
H 	H 	0.42620 0.34580 0.49260 -0.01500
H 	H 	0.36420 0.34850 0.49700 -0.15300
C 	C 	0.52900 0.40100 0.55940 -0.42800
H 	H 	0.55090 0.43220 0.56160 0.22900
H 	H 	0.49290 0.40910 0.56440 0.09400
H 	H 	0.54240 0.37260 0.57050 0.11200
C 	C 	0.41640 0.38670 0.49710 -0.69500
H 	H 	0.42010 0.40380 0.47990 0.25000
H 	H 	0.38300 0.36780 0.49770 0.29000
H 	H 	0.44530 0.36190 0.49960 0.22600
C 	C 	0.53500 0.42260 0.56020 -0.05700
H 	H 	0.54500 0.45930 0.56260 -0.08100
H 	H 	0.55680 0.40020 0.57130 0.03900
H 	H 	0.49800 0.41810 0.56510 0.04900
S 	S 	0.28290 0.22882 0.54564 0.07000
S 	S 	0.29087 0.35688 0.54517 -0.49100
S 	S 	0.32112 0.36227 0.54648 0.43700
S 	S 	0.33137 0.23930 0.54681 -0.02600
O 	O 	0.19480 0.16050 0.51590 -0.30200
O 	O 	0.25680 0.16060 0.48470 -0.55800
C 	C 	0.22470 0.18160 0.50060 0.54200
C 	C 	0.22710 0.24072 0.49972 -0.15900
C 	C 	0.25340 0.26660 0.51978 0.10300
C 	C 	0.25689 0.32100 0.51957 0.04000
C 	C 	0.23400 0.34944 0.49930 -0.07300
C 	C 	0.29229 0.32350 0.52076 0.06600
C 	C 	0.29577 0.26920 0.52055 -0.05900
C 	C 	0.22560 0.21540 0.56640 -0.40700
H 	H 	0.23670 0.19630 0.58210 0.14400
H 	H 	0.20030 0.19420 0.55650 0.16000
H 	H 	0.20920 0.24860 0.57160 0.13200
C 	C 	0.23860 0.36730 0.56910 -0.08800
H 	H 	0.20880 0.38440 0.56050 -0.01600
H 	H 	0.25150 0.38970 0.58340 -0.37600
H 	H 	0.22750 0.33350 0.57630 0.02900
C 	C 	0.26620 0.36030 0.56900 -0.30600
H 	H 	0.23340 0.36230 0.55910 0.24300
H 	H 	0.26840 0.39000 0.58120 0.49800
H 	H 	0.26720 0.32750 0.57900 0.10800
C 	C 	0.39610 0.25150 0.53280 -0.32500
H 	H 	0.40510 0.28860 0.53490 0.10100
H 	H 	0.39580 0.24270 0.51400 0.10700
H 	H 	0.42220 0.22990 0.54180 0.10200
O 	O 	0.14070 0.14350 0.52840 -0.68200
H 	H 	0.11100 0.14600 0.52100 0.27700
H 	H 	0.14000 0.17200 0.53700 0.29600
O 	O 	0.28240 0.42940 0.48528 -0.50200
O 	O 	0.20890 0.57530 0.44306 -0.46900
O 	O 	0.26930 0.51120 0.43950 -0.49500
S 	S 	0.29974 0.61471 0.39690 0.01000
S 	S 	0.15167 0.46742 0.41663 -0.01200
Zn	Zn	0.28979 0.50370 0.47611 1.20900
Zn	Zn	0.19714 0.58832 0.48109 1.24700
C 	C 	0.76510 0.95750 0.43068 0.38200
C 	C 	0.77440 0.96170 0.40150 -0.09300
C 	C 	0.74550 0.93140 0.38423 0.01000
C 	C 	0.81150 0.99700 0.39272 -0.00100
C 	C 	0.64120 0.92410 0.39470 -0.36700
H 	H 	0.64670 0.95310 0.38240 0.12900
H 	H 	0.61230 0.90200 0.38850 0.11400
H 	H 	0.63250 0.93810 0.41210 0.12500
C 	C 	0.90550 0.99070 0.41760 -0.40600
H 	H 	0.91750 0.98360 0.39970 0.13600
H 	H 	0.93360 0.00820 0.42740 0.13900
H 	H 	0.89660 0.95760 0.42630 0.15600
S 	S 	0.59427 0.08831 0.52216 -0.00400
S 	S 	0.46937 0.11944 0.52525 0.13200
S 	S 	0.58200 0.06451 0.52275 0.13900
S 	S 	0.45626 0.09549 0.52615 -0.06200
O 	O 	0.63610 0.96080 0.51440 -0.28300
O 	O 	0.63950 0.00180 0.47549 -0.01500
O 	O 	0.62220 0.93710 0.51610 -0.31900
O 	O 	0.62870 0.97860 0.47780 -0.42700
C 	C 	0.61660 0.98470 0.49690 -0.20100
C 	C 	0.55920 0.99880 0.49838 -0.55000
C 	C 	0.54390 0.04590 0.50964 -0.07600
C 	C 	0.49110 0.05894 0.51093 -0.42700
C 	C 	0.54640 0.97520 0.49904 0.17000
C 	C 	0.53100 0.02240 0.51030 0.31600
C 	C 	0.47820 0.03542 0.51159 0.23000
C 	C 	0.60400 0.96130 0.49772 0.72500
C 	C 	0.60400 0.13070 0.49440 0.07100
H 	H 	0.60760 0.10960 0.47840 -0.00700
H 	H 	0.57380 0.15420 0.49260 -0.01600
H 	H 	0.63580 0.15150 0.49700 -0.14400
C 	C 	0.47100 0.09900 0.55940 -0.42400
H 	H 	0.44910 0.06780 0.56160 0.22500
H 	H 	0.50710 0.09090 0.56440 0.09300
H 	H 	0.45760 0.12740 0.57050 0.11100
C 	C 	0.58360 0.11330 0.49710 -0.65800
H 	H 	0.57990 0.09620 0.47990 0.23500
H 	H 	0.61700 0.13220 0.49770 0.27500
H 	H 	0.55470 0.13810 0.49960 0.21600
C 	C 	0.46500 0.07740 0.56020 -0.05500
H 	H 	0.45500 0.04070 0.56260 -0.07700
H 	H 	0.44320 0.09980 0.57130 0.03900
H 	H 	0.50200 0.08190 0.56510 0.04900
S 	S 	0.71710 0.27118 0.54564 0.06900
S 	S 	0.70913 0.14312 0.54517 -0.48000
S 	S 	0.67888 0.13773 0.54648 0.43100
S 	S 	0.66863 0.26070 0.54681 -0.02500
O 	O 	0.80520 0.33950 0.51590 -0.30200
O 	O 	0.74320 0.33940 0.48470 -0.55800
C 	C 	0.77530 0.31840 0.50060 0.54200
C 	C 	0.77290 0.25928 0.49972 -0.15900
C 	C 	0.74660 0.23340 0.51978 0.10300
C 	C 	0.74311 0.17900 0.51957 0.03800
C 	C 	0.76600 0.15056 0.49930 -0.07200
C 	C 	0.70771 0.17650 0.52076 0.06400
C 	C 	0.70423 0.23080 0.52055 -0.05900
C 	C 	0.77440 0.28460 0.56640 -0.40600
H 	H 	0.76330 0.30370 0.58210 0.14400
H 	H 	0.79970 0.30580 0.55650 0.16000
H 	H 	0.79080 0.25140 0.57160 0.13200
C 	C 	0.76140 0.13270 0.56910 -0.09200
H 	H 	0.79120 0.11560 0.56050 -0.01500
H 	H 	0.74850 0.11030 0.58340 -0.37400
H 	H 	0.77250 0.16650 0.57630 0.03000
C 	C 	0.73380 0.13970 0.56900 -0.31200
H 	H 	0.76660 0.13770 0.55910 0.24600
H 	H 	0.73160 0.11000 0.58120 0.49900
H 	H 	0.73280 0.17250 0.57900 0.11000
C 	C 	0.60390 0.24850 0.53280 -0.32700
H 	H 	0.59490 0.21140 0.53490 0.10200
H 	H 	0.60420 0.25730 0.51400 0.10700
H 	H 	0.57780 0.27010 0.54180 0.10200
O 	O 	0.85930 0.35650 0.52840 -0.68300
H 	H 	0.88900 0.35400 0.52100 0.27700
H 	H 	0.86000 0.32800 0.53700 0.29600
O 	O 	0.71760 0.07060 0.48528 -0.50100
O 	O 	0.79110 0.92470 0.44306 -0.46900
O 	O 	0.73070 0.98880 0.43950 -0.49700
S 	S 	0.70026 0.88529 0.39690 0.01000
S 	S 	0.84833 0.03258 0.41663 0.00600
Zn	Zn	0.71021 0.99630 0.47611 1.20700
Zn	Zn	0.80286 0.91168 0.48109 1.24800
C 	C 	0.26510 0.45750 0.93068 0.38400
C 	C 	0.27440 0.46170 0.90150 -0.09900
C 	C 	0.24550 0.43140 0.88423 0.01400
C 	C 	0.31150 0.49700 0.89272 0.01700
C 	C 	0.14120 0.42410 0.89470 -0.36700
H 	H 	0.14670 0.45310 0.88240 0.13100
H 	H 	0.11230 0.40200 0.88850 0.11400
H 	H 	0.13250 0.43810 0.91210 0.12600
C 	C 	0.40550 0.49070 0.91760 -0.37100
H 	H 	0.41750 0.48360 0.89970 0.12900
H 	H 	0.43360 0.50820 0.92740 0.12400
H 	H 	0.39660 0.45760 0.92630 0.14700
S 	S 	0.09427 0.58831 0.02216 0.04500
S 	S 	0.96937 0.61944 0.02525 0.14800
S 	S 	0.08200 0.56451 0.02275 0.12000
S 	S 	0.95626 0.59549 0.02615 -0.07400
O 	O 	0.13610 0.46080 0.01440 -0.24800
O 	O 	0.13950 0.50180 0.97549 -0.04500
O 	O 	0.12220 0.43710 0.01610 -0.35600
O 	O 	0.12870 0.47860 0.97780 -0.38400
C 	C 	0.11660 0.48470 0.99690 -0.25400
C 	C 	0.05920 0.49880 0.99838 -0.61300
C 	C 	0.04390 0.54590 0.00964 -0.14500
C 	C 	0.99110 0.55894 0.01093 -0.43200
C 	C 	0.04640 0.47520 0.99904 0.22500
C 	C 	0.03100 0.52240 0.01030 0.40600
C 	C 	0.97820 0.53542 0.01159 0.24900
C 	C 	0.10400 0.46130 0.99772 0.76700
C 	C 	0.10400 0.63070 0.99440 0.06900
H 	H 	0.10760 0.60960 0.97840 -0.00700
H 	H 	0.07380 0.65420 0.99260 -0.01500
H 	H 	0.13580 0.65150 0.99700 -0.15300
C 	C 	0.97100 0.59900 0.05940 -0.42800
H 	H 	0.94910 0.56780 0.06160 0.22900
H 	H 	0.00710 0.59090 0.06440 0.09400
H 	H 	0.95760 0.62740 0.07050 0.11200
C 	C 	0.08360 0.61330 0.99710 -0.69500
H 	H 	0.07990 0.59620 0.97990 0.25000
H 	H 	0.11700 0.63220 0.99770 0.29000
H 	H 	0.05470 0.63810 0.99960 0.22600
C 	C 	0.96500 0.57740 0.06020 -0.05700
H 	H 	0.95500 0.54070 0.06260 -0.08100
H 	H 	0.94320 0.59980 0.07130 0.03900
H 	H 	0.00200 0.58190 0.06510 0.04900
S 	S 	0.21710 0.77118 0.04564 0.07000
S 	S 	0.20913 0.64312 0.04517 -0.49000
S 	S 	0.17888 0.63773 0.04648 0.43500
S 	S 	0.16863 0.76070 0.04681 -0.02500
O 	O 	0.30520 0.83950 0.01590 -0.30200
O 	O 	0.24320 0.83940 0.98470 -0.55800
C 	C 	0.27530 0.81840 0.00060 0.54500
C 	C 	0.27290 0.75928 0.99972 -0.16400
C 	C 	0.24660 0.73340 0.01978 0.10600
C 	C 	0.24311 0.67900 0.01957 0.03700
C 	C 	0.26600 0.65056 0.99930 -0.07100
C 	C 	0.20771 0.67650 0.02076 0.07000
C 	C 	0.20423 0.73080 0.02055 -0.06400
C 	C 	0.27440 0.78460 0.06640 -0.40700
H 	H 	0.26330 0.80370 0.08210 0.14400
H 	H 	0.29970 0.80580 0.05650 0.16000
H 	H 	0.29080 0.75140 0.07160 0.13200
C 	C 	0.26140 0.63270 0.06910 -0.08900
H 	H 	0.29120 0.61560 0.06050 -0.01600
H 	H 	0.24850 0.61030 0.08340 -0.37600
H 	H 	0.27250 0.66650 0.07630 0.02900
C 	C 	0.23380 0.63970 0.06900 -0.30600
H 	H 	0.26660 0.63770 0.05910 0.24300
H 	H 	0.23160 0.61000 0.08120 0.49900
H 	H 	0.23280 0.67250 0.07900 0.10800
C 	C 	0.10390 0.74850 0.03280 -0.32500
H 	H 	0.09490 0.71140 0.03490 0.10100
H 	H 	0.10420 0.75730 0.01400 0.10700
H 	H 	0.07780 0.77010 0.04180 0.10100
O 	O 	0.35930 0.85650 0.02840 -0.68500
H 	H 	0.38900 0.85400 0.02100 0.27700
H 	H 	0.36000 0.82800 0.03700 0.29600
O 	O 	0.21760 0.57060 0.98528 -0.50300
O 	O 	0.29110 0.42470 0.94306 -0.46900
O 	O 	0.23070 0.48880 0.93950 -0.49500
S 	S 	0.20026 0.38529 0.89690 0.01000
S 	S 	0.34833 0.53258 0.91663 -0.01200
Zn	Zn	0.21021 0.49630 0.97611 1.20900
Zn	Zn	0.30286 0.41168 0.98109 1.24700
C 	C 	0.79250 0.01510 0.18068 0.38900
C 	C 	0.78830 0.02440 0.15150 -0.08800
C 	C 	0.81860 0.99550 0.13423 -0.00400
C 	C 	0.75300 0.06150 0.14272 0.01300
C 	C 	0.82590 0.89120 0.14470 -0.36800
H 	H 	0.79690 0.89670 0.13240 0.13100
H 	H 	0.84800 0.86230 0.13850 0.11400
H 	H 	0.81190 0.88250 0.16210 0.12600
C 	C 	0.75930 0.15550 0.16760 -0.37300
H 	H 	0.76640 0.16750 0.14970 0.12900
H 	H 	0.74180 0.18360 0.17740 0.12400
H 	H 	0.79240 0.14660 0.17630 0.14700
S 	S 	0.66169 0.84427 0.27216 0.04800
S 	S 	0.63056 0.71937 0.27525 0.14900
S 	S 	0.68549 0.83200 0.27275 0.11500
S 	S 	0.65451 0.70626 0.27615 -0.07500
O 	O 	0.78920 0.88610 0.26440 -0.24800
O 	O 	0.74820 0.88950 0.22549 -0.04200
O 	O 	0.81290 0.87220 0.26610 -0.35700
O 	O 	0.77140 0.87870 0.22780 -0.38700
C 	C 	0.76530 0.86660 0.24690 -0.25600
C 	C 	0.75120 0.80920 0.24838 -0.61700
C 	C 	0.70410 0.79390 0.25964 -0.14800
C 	C 	0.69106 0.74110 0.26093 -0.42900
C 	C 	0.77480 0.79640 0.24904 0.22800
C 	C 	0.72760 0.78100 0.26030 0.41000
C 	C 	0.71458 0.72820 0.26159 0.24700
C 	C 	0.78870 0.85400 0.24772 0.77100
C 	C 	0.61930 0.85400 0.24440 0.06900
H 	H 	0.64040 0.85760 0.22840 -0.00700
H 	H 	0.59580 0.82380 0.24260 -0.01500
H 	H 	0.59850 0.88580 0.24700 -0.15100
C 	C 	0.65100 0.72100 0.30940 -0.42700
H 	H 	0.68220 0.69910 0.31160 0.22900
H 	H 	0.65910 0.75710 0.31440 0.09400
H 	H 	0.62260 0.70760 0.32050 0.11200
C 	C 	0.63670 0.83360 0.24710 -0.69400
H 	H 	0.65380 0.82990 0.22990 0.25000
H 	H 	0.61780 0.86700 0.24770 0.28900
H 	H 	0.61190 0.80470 0.24960 0.22600
C 	C 	0.67260 0.71500 0.31020 -0.05600
H 	H 	0.70930 0.70500 0.31260 -0.08100
H 	H 	0.65020 0.69320 0.32130 0.03900
H 	H 	0.66810 0.75200 0.31510 0.04900
S 	S 	0.47882 0.96710 0.29564 0.06700
S 	S 	0.60688 0.95913 0.29517 -0.49200
S 	S 	0.61227 0.92888 0.29648 0.45100
S 	S 	0.48930 0.91863 0.29681 -0.03900
O 	O 	0.41050 0.05520 0.26590 -0.29900
O 	O 	0.41060 0.99320 0.23470 -0.56400
C 	C 	0.43160 0.02530 0.25060 0.53000
C 	C 	0.49072 0.02290 0.24972 -0.10800
C 	C 	0.51660 0.99660 0.26978 0.04900
C 	C 	0.57100 0.99311 0.26957 0.09800
C 	C 	0.59944 0.01600 0.24930 -0.13400
C 	C 	0.57350 0.95771 0.27076 -0.01200
C 	C 	0.51920 0.95423 0.27055 0.00400
C 	C 	0.46540 0.02440 0.31640 -0.39900
H 	H 	0.44630 0.01330 0.33210 0.14400
H 	H 	0.44420 0.04970 0.30650 0.15900
H 	H 	0.49860 0.04080 0.32160 0.13100
C 	C 	0.61730 0.01140 0.31910 -0.10800
H 	H 	0.63440 0.04120 0.31050 -0.01500
H 	H 	0.63970 0.99850 0.33340 -0.37400
H 	H 	0.58350 0.02250 0.32630 0.03700
C 	C 	0.61030 0.98380 0.31900 -0.31500
H 	H 	0.61230 0.01660 0.30910 0.26000
H 	H 	0.64000 0.98160 0.33120 0.50000
H 	H 	0.57750 0.98280 0.32900 0.10800
C 	C 	0.50150 0.85390 0.28280 -0.31800
H 	H 	0.53860 0.84490 0.28490 0.09900
H 	H 	0.49270 0.85420 0.26400 0.10400
H 	H 	0.47990 0.82780 0.29180 0.09900
O 	O 	0.39350 0.10930 0.27840 -0.68400
H 	H 	0.39600 0.13900 0.27100 0.27700
H 	H 	0.42200 0.11000 0.28700 0.29600
O 	O 	0.67940 0.96760 0.23528 -0.51100
O 	O 	0.82530 0.04110 0.19306 -0.46900
O 	O 	0.76120 0.98070 0.18950 -0.50100
S 	S 	0.86471 0.95026 0.14690 0.01000
S 	S 	0.71742 0.09833 0.16663 -0.00900
Zn	Zn	0.75370 0.96021 0.22611 1.20800
Zn	Zn	0.83832 0.05286 0.23109 1.24800
C 	C 	0.29250 0.51510 0.68068 0.38400
C 	C 	0.28830 0.52440 0.65150 -0.09900
C 	C 	0.31860 0.49550 0.63423 0.01400
C 	C 	0.25300 0.56150 0.64272 0.01700
C 	C 	0.32590 0.39120 0.64470 -0.36700
H 	H 	0.29690 0.39670 0.63240 0.13100
H 	H 	0.34800 0.36230 0.63850 0.11400
H 	H 	0.31190 0.38250 0.66210 0.12600
C 	C 	0.25930 0.65550 0.66760 -0.37100
H 	H 	0.26640 0.66750 0.64970 0.12900
H 	H 	0.24180 0.68360 0.67740 0.12400
H 	H 	0.29240 0.64660 0.67630 0.14700
S 	S 	0.16169 0.34427 0.77216 0.04800
S 	S 	0.13056 0.21937 0.77525 0.15000
S 	S 	0.18549 0.33200 0.77275 0.11700
S 	S 	0.15451 0.20626 0.77615 -0.07500
O 	O 	0.28920 0.38610 0.76440 -0.24600
O 	O 	0.24820 0.38950 0.72549 -0.04200
O 	O 	0.31290 0.37220 0.76610 -0.35900
O 	O 	0.27140 0.37870 0.72780 -0.38700
C 	C 	0.26530 0.36660 0.74690 -0.25600
C 	C 	0.25120 0.30920 0.74838 -0.62100
C 	C 	0.20410 0.29390 0.75964 -0.14900
C 	C 	0.19106 0.24110 0.76093 -0.43200
C 	C 	0.27480 0.29640 0.74904 0.23000
C 	C 	0.22760 0.28100 0.76030 0.41200
C 	C 	0.21458 0.22820 0.76159 0.24900
C 	C 	0.28870 0.35400 0.74772 0.77200
C 	C 	0.11930 0.35400 0.74440 0.06900
H 	H 	0.14040 0.35760 0.72840 -0.00700
H 	H 	0.09580 0.32380 0.74260 -0.01500
H 	H 	0.09850 0.38580 0.74700 -0.15300
C 	C 	0.15100 0.22100 0.80940 -0.42800
H 	H 	0.18220 0.19910 0.81160 0.23000
H 	H 	0.15910 0.25710 0.81440 0.09400
H 	H 	0.12260 0.20760 0.82050 0.11200
C 	C 	0.13670 0.33360 0.74710 -0.69600
H 	H 	0.15380 0.32990 0.72990 0.25000
H 	H 	0.11780 0.36700 0.74770 0.29000
H 	H 	0.11190 0.30470 0.74960 0.22700
C 	C 	0.17260 0.21500 0.81020 -0.05700
H 	H 	0.20930 0.20500 0.81260 -0.08100
H 	H 	0.15020 0.19320 0.82130 0.04000
H 	H 	0.16810 0.25200 0.81510 0.04900
S 	S 	0.97882 0.46710 0.79564 0.07100
S 	S 	0.10688 0.45913 0.79517 -0.49100
S 	S 	0.11227 0.42888 0.79648 0.43700
S 	S 	0.98930 0.41863 0.79681 -0.02600
O 	O 	0.91050 0.55520 0.76590 -0.30100
O 	O 	0.91060 0.49320 0.73470 -0.55800
C 	C 	0.93160 0.52530 0.75060 0.54200
C 	C 	0.99072 0.52290 0.74972 -0.15900
C 	C 	0.01660 0.49660 0.76978 0.10200
C 	C 	0.07100 0.49311 0.76957 0.04000
C 	C 	0.09944 0.51600 0.74930 -0.07300
C 	C 	0.07350 0.45771 0.77076 0.06600
C 	C 	0.01920 0.45423 0.77055 -0.05900
C 	C 	0.96540 0.52440 0.81640 -0.40700
H 	H 	0.94630 0.51330 0.83210 0.14400
H 	H 	0.94420 0.54970 0.80650 0.16000
H 	H 	0.99860 0.54080 0.82160 0.13200
C 	C 	0.11730 0.51140 0.81910 -0.08800
H 	H 	0.13440 0.54120 0.81050 -0.01600
H 	H 	0.13970 0.49850 0.83340 -0.37600
H 	H 	0.08350 0.52250 0.82630 0.02900
C 	C 	0.11030 0.48380 0.81900 -0.30600
H 	H 	0.11230 0.51660 0.80910 0.24300
H 	H 	0.14000 0.48160 0.83120 0.49800
H 	H 	0.07750 0.48280 0.82900 0.10800
C 	C 	0.00150 0.35390 0.78280 -0.32400
H 	H 	0.03860 0.34490 0.78490 0.10000
H 	H 	0.99270 0.35420 0.76400 0.10700
H 	H 	0.97990 0.32780 0.79180 0.10100
O 	O 	0.89350 0.60930 0.77840 -0.68300
H 	H 	0.89600 0.63900 0.77100 0.27700
H 	H 	0.92200 0.61000 0.78700 0.29600
O 	O 	0.17940 0.46760 0.73528 -0.50300
O 	O 	0.32530 0.54110 0.69306 -0.46900
O 	O 	0.26120 0.48070 0.68950 -0.49500
S 	S 	0.36471 0.45026 0.64690 0.01000
S 	S 	0.21742 0.59833 0.66663 -0.01200
Zn	Zn	0.25370 0.46021 0.72611 1.20900
Zn	Zn	0.33832 0.55286 0.73109 1.24700
C 	C 	0.70750 0.98490 0.68068 0.37900
C 	C 	0.71170 0.97560 0.65150 -0.11000
C 	C 	0.68140 0.00450 0.63423 0.03200
C 	C 	0.74700 0.93850 0.64272 0.02100
C 	C 	0.67410 0.10880 0.64470 -0.36700
H 	H 	0.70310 0.10330 0.63240 0.13100
H 	H 	0.65200 0.13770 0.63850 0.11400
H 	H 	0.68810 0.11750 0.66210 0.12600
C 	C 	0.74070 0.84450 0.66760 -0.37000
H 	H 	0.73360 0.83250 0.64970 0.12800
H 	H 	0.75820 0.81640 0.67740 0.12300
H 	H 	0.70760 0.85340 0.67630 0.14700
S 	S 	0.83831 0.15573 0.77216 0.04600
S 	S 	0.86944 0.28063 0.77525 0.14900
S 	S 	0.81451 0.16800 0.77275 0.12000
S 	S 	0.84549 0.29374 0.77615 -0.07400
O 	O 	0.71080 0.11390 0.76440 -0.24700
O 	O 	0.75180 0.11050 0.72549 -0.04300
O 	O 	0.68710 0.12780 0.76610 -0.35700
O 	O 	0.72860 0.12130 0.72780 -0.38600
C 	C 	0.73470 0.13340 0.74690 -0.25500
C 	C 	0.74880 0.19080 0.74838 -0.61600
C 	C 	0.79590 0.20610 0.75964 -0.14700
C 	C 	0.80894 0.25890 0.76093 -0.43400
C 	C 	0.72520 0.20360 0.74904 0.22700
C 	C 	0.77240 0.21900 0.76030 0.40900
C 	C 	0.78542 0.27180 0.76159 0.25000
C 	C 	0.71130 0.14600 0.74772 0.76900
C 	C 	0.88070 0.14600 0.74440 0.06900
H 	H 	0.85960 0.14240 0.72840 -0.00700
H 	H 	0.90420 0.17620 0.74260 -0.01500
H 	H 	0.90150 0.11420 0.74700 -0.15300
C 	C 	0.84900 0.27900 0.80940 -0.42800
H 	H 	0.81780 0.30090 0.81160 0.22900
H 	H 	0.84090 0.24290 0.81440 0.09400
H 	H 	0.87740 0.29240 0.82050 0.11200
C 	C 	0.86330 0.16640 0.74710 -0.69600
H 	H 	0.84620 0.17010 0.72990 0.25000
H 	H 	0.88220 0.13300 0.74770 0.29100
H 	H 	0.88810 0.19530 0.74960 0.22700
C 	C 	0.82740 0.28500 0.81020 -0.05700
H 	H 	0.79070 0.29500 0.81260 -0.08100
H 	H 	0.84980 0.30680 0.82130 0.03900
H 	H 	0.83190 0.24800 0.81510 0.04900
S 	S 	0.02118 0.03290 0.79564 0.07600
S 	S 	0.89312 0.04087 0.79517 -0.48600
S 	S 	0.88773 0.07112 0.79648 0.42000
S 	S 	0.01070 0.08137 0.79681 -0.01600
O 	O 	0.08950 0.94480 0.76590 -0.30400
O 	O 	0.08940 0.00680 0.73470 -0.55200
C 	C 	0.06840 0.97470 0.75060 0.55200
C 	C 	0.00928 0.97710 0.74972 -0.20600
C 	C 	0.98340 0.00340 0.76978 0.14600
C 	C 	0.92900 0.00689 0.76957 -0.00400
C 	C 	0.90056 0.98400 0.74930 -0.02100
C 	C 	0.92650 0.04229 0.77076 0.13400
C 	C 	0.98080 0.04577 0.77055 -0.11700
C 	C 	0.03460 0.97560 0.81640 -0.41600
H 	H 	0.05370 0.98670 0.83210 0.14400
H 	H 	0.05580 0.95030 0.80650 0.16200
H 	H 	0.00140 0.95920 0.82160 0.13300
C 	C 	0.88270 0.98860 0.81910 -0.07100
H 	H 	0.86560 0.95880 0.81050 -0.01600
H 	H 	0.86030 0.00150 0.83340 -0.37800
H 	H 	0.91650 0.97750 0.82630 0.02200
C 	C 	0.88970 0.01620 0.81900 -0.29900
H 	H 	0.88770 0.98340 0.80910 0.22700
H 	H 	0.86000 0.01840 0.83120 0.49700
H 	H 	0.92250 0.01720 0.82900 0.10900
C 	C 	0.99850 0.14610 0.78280 -0.32900
H 	H 	0.96140 0.15510 0.78490 0.10200
H 	H 	0.00730 0.14580 0.76400 0.10800
H 	H 	0.02010 0.17220 0.79180 0.10200
O 	O 	0.10650 0.89070 0.77840 -0.68300
H 	H 	0.10400 0.86100 0.77100 0.27700
H 	H 	0.07800 0.89000 0.78700 0.29600
O 	O 	0.82060 0.03240 0.73528 -0.50400
O 	O 	0.67470 0.95890 0.69306 -0.47000
O 	O 	0.73880 0.01930 0.68950 -0.48900
S 	S 	0.63529 0.04974 0.64690 0.00900
S 	S 	0.78258 0.90167 0.66663 -0.01500
Zn	Zn	0.74630 0.03979 0.72611 1.20900
Zn	Zn	0.66168 0.94714 0.73109 1.24600
C 	C 	0.20750 0.48490 0.18068 0.38400
C 	C 	0.21170 0.47560 0.15150 -0.09900
C 	C 	0.18140 0.50450 0.13423 0.01400
C 	C 	0.24700 0.43850 0.14272 0.01700
C 	C 	0.17410 0.60880 0.14470 -0.36700
H 	H 	0.20310 0.60330 0.13240 0.13100
H 	H 	0.15200 0.63770 0.13850 0.11400
H 	H 	0.18810 0.61750 0.16210 0.12600
C 	C 	0.24070 0.34450 0.16760 -0.37200
H 	H 	0.23360 0.33250 0.14970 0.12900
H 	H 	0.25820 0.31640 0.17740 0.12400
H 	H 	0.20760 0.35340 0.17630 0.14700
S 	S 	0.33831 0.65573 0.27216 0.04600
S 	S 	0.36944 0.78063 0.27525 0.14800
S 	S 	0.31451 0.66800 0.27275 0.11800
S 	S 	0.34549 0.79374 0.27615 -0.07300
O 	O 	0.21080 0.61390 0.26440 -0.24800
O 	O 	0.25180 0.61050 0.22549 -0.04400
O 	O 	0.18710 0.62780 0.26610 -0.35600
O 	O 	0.22860 0.62130 0.22780 -0.38500
C 	C 	0.23470 0.63340 0.24690 -0.25400
C 	C 	0.24880 0.69080 0.24838 -0.61300
C 	C 	0.29590 0.70610 0.25964 -0.14700
C 	C 	0.30894 0.75890 0.26093 -0.43000
C 	C 	0.22520 0.70360 0.24904 0.22600
C 	C 	0.27240 0.71900 0.26030 0.40700
C 	C 	0.28542 0.77180 0.26159 0.24800
C 	C 	0.21130 0.64600 0.24772 0.76800
C 	C 	0.38070 0.64600 0.24440 0.06900
H 	H 	0.35960 0.64240 0.22840 -0.00700
H 	H 	0.40420 0.67620 0.24260 -0.01500
H 	H 	0.40150 0.61420 0.24700 -0.15300
C 	C 	0.34900 0.77900 0.30940 -0.42700
H 	H 	0.31780 0.80090 0.31160 0.22900
H 	H 	0.34090 0.74290 0.31440 0.09400
H 	H 	0.37740 0.79240 0.32050 0.11200
C 	C 	0.36330 0.66640 0.24710 -0.69400
H 	H 	0.34620 0.67010 0.22990 0.25000
H 	H 	0.38220 0.63300 0.24770 0.29000
H 	H 	0.38810 0.69530 0.24960 0.22600
C 	C 	0.32740 0.78500 0.31020 -0.05600
H 	H 	0.29070 0.79500 0.31260 -0.08100
H 	H 	0.34980 0.80680 0.32130 0.03900
H 	H 	0.33190 0.74800 0.31510 0.04900
S 	S 	0.52118 0.53290 0.29564 0.07100
S 	S 	0.39312 0.54087 0.29517 -0.49100
S 	S 	0.38773 0.57112 0.29648 0.43700
S 	S 	0.51070 0.58137 0.29681 -0.02600
O 	O 	0.58950 0.44480 0.26590 -0.30100
O 	O 	0.58940 0.50680 0.23470 -0.55800
C 	C 	0.56840 0.47470 0.25060 0.54200
C 	C 	0.50928 0.47710 0.24972 -0.15900
C 	C 	0.48340 0.50340 0.26978 0.10200
C 	C 	0.42900 0.50689 0.26957 0.04000
C 	C 	0.40056 0.48400 0.24930 -0.07300
C 	C 	0.42650 0.54229 0.27076 0.06600
C 	C 	0.48080 0.54577 0.27055 -0.05900
C 	C 	0.53460 0.47560 0.31640 -0.40700
H 	H 	0.55370 0.48670 0.33210 0.14400
H 	H 	0.55580 0.45030 0.30650 0.16000
H 	H 	0.50140 0.45920 0.32160 0.13200
C 	C 	0.38270 0.48860 0.31910 -0.08800
H 	H 	0.36560 0.45880 0.31050 -0.01600
H 	H 	0.36030 0.50150 0.33340 -0.37600
H 	H 	0.41650 0.47750 0.32630 0.02900
C 	C 	0.38970 0.51620 0.31900 -0.30600
H 	H 	0.38770 0.48340 0.30910 0.24300
H 	H 	0.36000 0.51840 0.33120 0.49800
H 	H 	0.42250 0.51720 0.32900 0.10800
C 	C 	0.49850 0.64610 0.28280 -0.32400
H 	H 	0.46140 0.65510 0.28490 0.10000
H 	H 	0.50730 0.64580 0.26400 0.10700
H 	H 	0.52010 0.67220 0.29180 0.10100
O 	O 	0.60650 0.39070 0.27840 -0.68300
H 	H 	0.60400 0.36100 0.27100 0.27700
H 	H 	0.57800 0.39000 0.28700 0.29600
O 	O 	0.32060 0.53240 0.23528 -0.50200
O 	O 	0.17470 0.45890 0.19306 -0.46900
O 	O 	0.23880 0.51930 0.18950 -0.49500
S 	S 	0.13529 0.54974 0.14690 0.01000
S 	S 	0.28258 0.40167 0.16663 -0.01200
Zn	Zn	0.24630 0.53979 0.22611 1.20900
Zn	Zn	0.16168 0.44714 0.23109 1.24700
C 	C 	0.25000 0.09290 -0.00000 0.42300
O 	O 	0.25000 0.95380 -0.00000 -0.93100
C 	C 	0.75000 0.59290 0.50000 0.42300
O 	O 	0.75000 0.45380 0.50000 -0.93100
C 	C 	0.25000 0.90710 0.50000 0.42300
O 	O 	0.25000 0.04620 0.50000 -0.93100
C 	C 	0.75000 0.40710 -0.00000 0.42400
O 	O 	0.75000 0.54620 -0.00000 -0.93100
C 	C 	0.15710 -0.00000 0.25000 0.43500
O 	O 	0.29620 -0.00000 0.25000 -0.92700
C 	C 	0.65710 0.50000 0.75000 0.42200
O 	O 	0.79620 0.50000 0.75000 -0.93100
C 	C 	0.34290 0.00000 0.75000 0.43500
O 	O 	0.20380 0.00000 0.75000 -0.92700
C 	C 	0.84290 0.50000 0.25000 0.42200
O 	O 	0.70380 0.50000 0.25000 -0.93100
C 	C 	0.75000 0.90710 -0.00000 0.42400
O 	O 	0.75000 0.04620 -0.00000 -0.93100
C 	C 	0.25000 0.40710 0.50000 0.42200
O 	O 	0.25000 0.54620 0.50000 -0.93100
C 	C 	0.75000 0.09290 0.50000 0.42200
O 	O 	0.75000 0.95380 0.50000 -0.93200
C 	C 	0.25000 0.59290 -0.00000 0.42400
O 	O 	0.25000 0.45380 -0.00000 -0.93100
C 	C 	0.84290 0.00000 0.75000 0.43500
O 	O 	0.70380 0.00000 0.75000 -0.92700
C 	C 	0.34290 0.50000 0.25000 0.42200
O 	O 	0.20380 0.50000 0.25000 -0.93100
C 	C 	0.65710 -0.00000 0.25000 0.43500
O 	O 	0.79620 -0.00000 0.25000 -0.92700
C 	C 	0.15710 0.50000 0.75000 0.42200
O 	O 	0.29620 0.50000 0.75000 -0.93100
