data_crystal

_cell_length_a 16.92930
_cell_length_b 18.46940
_cell_length_c 28.34600
_cell_angle_alpha 90.00000
_cell_angle_beta  100.62900
_cell_angle_gamma 90.00000

_symmetry_space_group_name_	'P 1'
_symmetry_space_group_name_H-M	'P 1'

loop_
_symmetry_equiv_pos_as_xyz
  x,y,z

loop_
_atom_site_label
_atom_site_type_symbol
_atom_site_fract_x
_atom_site_fract_y
_atom_site_fract_z
_atom_site_charge
Mn	Mn	0.21746 0.38004 0.08829 1.28600
O 	O 	0.80000 0.79500 0.07215 -0.55000
O 	O 	0.78600 0.78770 0.14753 -0.36900
O 	O 	0.61430 0.81720 0.08110 -0.48400
O 	O 	0.63850 0.74440 0.02241 -0.48300
O 	O 	0.20120 0.43710 0.02437 -0.52300
O 	O 	0.23440 0.35800 0.97135 -0.45200
N 	N 	0.18800 0.49620 0.16940 -0.13700
N 	N 	0.06210 0.70300 0.77820 -0.13600
N 	N 	0.32620 0.48460 0.16270 -0.12900
N 	N 	0.32690 0.44370 0.12250 -0.22700
N 	N 	0.15620 0.46620 0.12550 -0.23000
N 	N 	0.13960 0.71440 0.77350 -0.13800
C 	C 	0.37890 0.47570 0.09880 0.25500
C 	C 	0.39770 0.44630 0.05350 -0.61700
H 	H 	0.45240 0.42680 0.05940 0.19600
H 	H 	0.39360 0.48510 0.02950 0.19300
H 	H 	0.35950 0.40770 0.04150 0.18600
C 	C 	0.03980 0.48940 0.06170 -0.63300
H 	H 	0.06100 0.51380 0.03590 0.19400
H 	H 	0.98470 0.50590 0.06160 0.20400
H 	H 	0.03980 0.43690 0.05650 0.19400
H 	H 	0.97570 0.77790 0.77170 0.02200
C 	C 	0.21180 0.41910 0.98320 0.45000
C 	C 	0.82160 0.76950 0.11440 0.36800
C 	C 	0.01740 0.61630 0.13710 0.17700
C 	C 	0.08230 0.56150 0.14240 -0.25200
C 	C 	0.57160 0.62980 0.06790 0.10500
H 	H 	0.61390 0.61650 0.05180 -0.00600
C 	C 	0.40950 0.54070 0.12310 -0.24400
C 	C 	0.05620 0.65370 0.81320 0.26900
C 	C 	0.60610 0.75840 0.05760 0.41700
C 	C 	0.49040 0.72080 0.09630 0.12300
H 	H 	0.47870 0.77030 0.10080 -0.01400
C 	C 	0.14550 0.55320 0.18010 0.25400
C 	C 	0.93580 0.70510 0.08730 0.09600
H 	H 	0.92410 0.73090 0.05780 -0.00500
C 	C 	0.26650 0.46830 0.19180 -0.01000
H 	H 	0.28280 0.49030 0.22390 0.02200
H 	H 	0.26310 0.41530 0.19590 0.02400
C 	C 	0.13370 0.63180 0.83210 -0.25400
C 	C 	0.46090 0.59600 0.10680 0.18800
C 	C 	0.97310 0.62910 0.17290 -0.20200
H 	H 	0.98560 0.60330 0.20230 0.08500
C 	C 	0.09180 0.50720 0.10930 0.25800
C 	C 	0.52620 0.57630 0.08550 -0.21200
H 	H 	0.53960 0.52670 0.08300 0.08800
C 	C 	0.20350 0.45960 0.89830 0.12300
H 	H 	0.22080 0.41270 0.89100 0.00000
C 	C 	0.15760 0.57850 0.87130 0.19200
C 	C 	0.55450 0.70270 0.07410 -0.19700
C 	C 	0.19710 0.47570 0.94420 -0.19900
C 	C 	0.18330 0.67120 0.80630 0.24700
C 	C 	0.99770 0.65550 0.09440 -0.20200
H 	H 	0.02780 0.64780 0.06970 0.08700
C 	C 	0.91060 0.67940 0.16620 0.09500
H 	H 	0.88140 0.68770 0.19130 -0.00300
C 	C 	0.89010 0.71810 0.12250 -0.16900
C 	C 	0.37460 0.54440 0.16350 0.25100
C 	C 	0.17320 0.54450 0.95460 0.11300
H 	H 	0.16970 0.55700 0.98660 0.00200
C 	C 	0.18540 0.51060 0.86170 -0.21600
H 	H 	0.19210 0.49870 0.83000 0.08900
C 	C 	0.97760 0.62820 0.82320 -0.64500
H 	H 	0.94230 0.66990 0.82460 0.22300
H 	H 	0.98610 0.60250 0.85390 0.21700
H 	H 	0.95260 0.59540 0.79750 0.21500
C 	C 	0.44390 0.66830 0.11160 -0.22700
H 	H 	0.39940 0.68190 0.12570 0.10100
C 	C 	0.15420 0.59600 0.91800 -0.22300
H 	H 	0.13870 0.64340 0.92550 0.10400
C 	C 	0.27380 0.66770 0.81180 -0.60100
H 	H 	0.29140 0.69980 0.78830 0.19900
H 	H 	0.29010 0.61790 0.80660 0.19500
H 	H 	0.29840 0.68310 0.84430 0.19600
C 	C 	0.38670 0.59730 0.20420 -0.60900
H 	H 	0.44040 0.61880 0.20760 0.19800
H 	H 	0.38160 0.57230 0.23390 0.19400
H 	H 	0.34600 0.63550 0.19760 0.19700
C 	C 	0.16770 0.59510 0.22580 -0.60500
H 	H 	0.16340 0.56370 0.25310 0.19100
H 	H 	0.13110 0.63640 0.22530 0.19500
H 	H 	0.22300 0.61270 0.22900 0.19200
Mn	Mn	0.71746 0.88004 0.08829 1.28500
O 	O 	0.30000 0.29500 0.07215 -0.55100
O 	O 	0.28600 0.28770 0.14753 -0.37000
O 	O 	0.11430 0.31720 0.08110 -0.48500
O 	O 	0.13850 0.24440 0.02241 -0.48500
O 	O 	0.70120 0.93710 0.02437 -0.52100
O 	O 	0.73440 0.85800 0.97135 -0.45200
N 	N 	0.68800 0.99620 0.16940 -0.13600
N 	N 	0.56210 0.20300 0.77820 -0.13600
N 	N 	0.82620 0.98460 0.16270 -0.12900
N 	N 	0.82690 0.94370 0.12250 -0.22700
N 	N 	0.65620 0.96620 0.12550 -0.22900
N 	N 	0.63960 0.21440 0.77350 -0.13800
C 	C 	0.87890 0.97570 0.09880 0.25700
C 	C 	0.89770 0.94630 0.05350 -0.61900
H 	H 	0.95240 0.92680 0.05940 0.19700
H 	H 	0.89360 0.98510 0.02950 0.19500
H 	H 	0.85950 0.90770 0.04150 0.18700
C 	C 	0.53980 0.98940 0.06170 -0.61700
H 	H 	0.56100 0.01380 0.03590 0.18800
H 	H 	0.48470 0.00590 0.06160 0.19900
H 	H 	0.53980 0.93690 0.05650 0.19000
H 	H 	0.47570 0.27790 0.77170 0.02200
C 	C 	0.71180 0.91910 0.98320 0.44700
C 	C 	0.32160 0.26950 0.11440 0.36800
C 	C 	0.51740 0.11630 0.13710 0.17400
C 	C 	0.58230 0.06150 0.14240 -0.24800
C 	C 	0.07160 0.12980 0.06790 0.10500
H 	H 	0.11390 0.11650 0.05180 -0.00600
C 	C 	0.90950 0.04070 0.12310 -0.24600
C 	C 	0.55620 0.15370 0.81320 0.27000
C 	C 	0.10610 0.25840 0.05760 0.41700
C 	C 	0.99040 0.22080 0.09630 0.12200
H 	H 	0.97870 0.27030 0.10080 -0.01300
C 	C 	0.64550 0.05320 0.18010 0.25100
C 	C 	0.43580 0.20510 0.08730 0.09400
H 	H 	0.42410 0.23090 0.05780 -0.00500
C 	C 	0.76650 0.96830 0.19180 -0.01000
H 	H 	0.78280 0.99030 0.22390 0.02300
H 	H 	0.76310 0.91530 0.19590 0.02500
C 	C 	0.63370 0.13180 0.83210 -0.25300
C 	C 	0.96090 0.09600 0.10680 0.18700
C 	C 	0.47310 0.12910 0.17290 -0.20000
H 	H 	0.48560 0.10330 0.20230 0.08400
C 	C 	0.59180 0.00720 0.10930 0.25200
C 	C 	0.02620 0.07630 0.08550 -0.21100
H 	H 	0.03960 0.02670 0.08300 0.08700
C 	C 	0.70350 0.95960 0.89830 0.11800
H 	H 	0.72080 0.91270 0.89100 0.00200
C 	C 	0.65760 0.07850 0.87130 0.19000
C 	C 	0.05450 0.20270 0.07410 -0.19600
C 	C 	0.69710 0.97570 0.94420 -0.19900
C 	C 	0.68330 0.17120 0.80630 0.24700
C 	C 	0.49770 0.15550 0.09440 -0.19900
H 	H 	0.52780 0.14780 0.06970 0.08600
C 	C 	0.41060 0.17940 0.16620 0.09300
H 	H 	0.38140 0.18770 0.19130 -0.00200
C 	C 	0.39010 0.21810 0.12250 -0.16800
C 	C 	0.87460 0.04440 0.16350 0.25000
C 	C 	0.67320 0.04450 0.95460 0.11400
H 	H 	0.66970 0.05700 0.98660 0.00200
C 	C 	0.68540 0.01060 0.86170 -0.20900
H 	H 	0.69210 0.99870 0.83000 0.08600
C 	C 	0.47760 0.12820 0.82320 -0.64600
H 	H 	0.44230 0.16990 0.82460 0.22300
H 	H 	0.48610 0.10250 0.85390 0.21800
H 	H 	0.45260 0.09540 0.79750 0.21500
C 	C 	0.94390 0.16830 0.11160 -0.22700
H 	H 	0.89940 0.18190 0.12570 0.10100
C 	C 	0.65420 0.09600 0.91800 -0.22100
H 	H 	0.63870 0.14340 0.92550 0.10300
C 	C 	0.77380 0.16770 0.81180 -0.60100
H 	H 	0.79140 0.19980 0.78830 0.19900
H 	H 	0.79010 0.11790 0.80660 0.19500
H 	H 	0.79840 0.18310 0.84430 0.19600
C 	C 	0.88670 0.09730 0.20420 -0.60900
H 	H 	0.94040 0.11880 0.20760 0.19700
H 	H 	0.88160 0.07230 0.23390 0.19400
H 	H 	0.84600 0.13550 0.19760 0.19700
C 	C 	0.66770 0.09510 0.22580 -0.60200
H 	H 	0.66340 0.06370 0.25310 0.19000
H 	H 	0.63110 0.13640 0.22530 0.19500
H 	H 	0.72300 0.11270 0.22900 0.19100
Mn	Mn	0.78254 0.38004 0.41171 1.28500
O 	O 	0.20000 0.79500 0.42785 -0.54700
O 	O 	0.21400 0.78770 0.35247 -0.37000
O 	O 	0.38570 0.81720 0.41890 -0.48300
O 	O 	0.36150 0.74440 0.47759 -0.47200
O 	O 	0.79880 0.43710 0.47563 -0.49000
O 	O 	0.76560 0.35800 0.52865 -0.45400
N 	N 	0.81200 0.49620 0.33060 -0.13700
N 	N 	0.93790 0.70300 0.72180 -0.13600
N 	N 	0.67380 0.48460 0.33730 -0.12900
N 	N 	0.67310 0.44370 0.37750 -0.22800
N 	N 	0.84380 0.46620 0.37450 -0.23100
N 	N 	0.86040 0.71440 0.72650 -0.13800
C 	C 	0.62110 0.47570 0.40120 0.26400
C 	C 	0.60230 0.44630 0.44650 -0.64200
H 	H 	0.54760 0.42680 0.44060 0.20800
H 	H 	0.60640 0.48510 0.47050 0.21000
H 	H 	0.64050 0.40770 0.45850 0.20100
C 	C 	0.96020 0.48940 0.43830 -0.65200
H 	H 	0.93900 0.51380 0.46410 0.20800
H 	H 	0.01530 0.50590 0.43840 0.21400
H 	H 	0.96020 0.43690 0.44350 0.20400
H 	H 	0.02430 0.77790 0.72830 0.02200
C 	C 	0.78820 0.41910 0.51680 0.40700
C 	C 	0.17840 0.76950 0.38560 0.36700
C 	C 	0.98260 0.61630 0.36290 0.17800
C 	C 	0.91770 0.56150 0.35760 -0.25400
C 	C 	0.42840 0.62980 0.43210 0.10600
H 	H 	0.38610 0.61650 0.44820 -0.00100
C 	C 	0.59050 0.54070 0.37690 -0.24700
C 	C 	0.94380 0.65370 0.68680 0.26900
C 	C 	0.39390 0.75840 0.44240 0.41700
C 	C 	0.50960 0.72080 0.40370 0.12400
H 	H 	0.52130 0.77030 0.39920 -0.01200
C 	C 	0.85450 0.55320 0.31990 0.25500
C 	C 	0.06420 0.70510 0.41270 0.09500
H 	H 	0.07590 0.73090 0.44220 0.00300
C 	C 	0.73350 0.46830 0.30820 -0.01000
H 	H 	0.71720 0.49030 0.27610 0.02200
H 	H 	0.73690 0.41530 0.30410 0.02400
C 	C 	0.86630 0.63180 0.66790 -0.25200
C 	C 	0.53910 0.59600 0.39320 0.19000
C 	C 	0.02690 0.62910 0.32710 -0.20200
H 	H 	0.01440 0.60330 0.29770 0.08500
C 	C 	0.90820 0.50720 0.39070 0.26500
C 	C 	0.47380 0.57630 0.41450 -0.21000
H 	H 	0.46040 0.52670 0.41700 0.09000
C 	C 	0.79650 0.45960 0.60170 0.11400
H 	H 	0.77920 0.41270 0.60900 0.00300
C 	C 	0.84240 0.57850 0.62870 0.18800
C 	C 	0.44550 0.70270 0.42590 -0.19300
C 	C 	0.80290 0.47570 0.55580 -0.18900
C 	C 	0.81670 0.67120 0.69370 0.24500
C 	C 	0.00230 0.65550 0.40560 -0.20000
H 	H 	0.97220 0.64780 0.43030 0.09200
C 	C 	0.08940 0.67940 0.33380 0.09400
H 	H 	0.11860 0.68770 0.30870 -0.00300
C 	C 	0.10990 0.71810 0.37750 -0.16700
C 	C 	0.62540 0.54440 0.33650 0.25300
C 	C 	0.82680 0.54450 0.54540 0.10300
H 	H 	0.83030 0.55700 0.51340 -0.00700
C 	C 	0.81460 0.51060 0.63830 -0.21100
H 	H 	0.80790 0.49870 0.67000 0.08700
C 	C 	0.02240 0.62820 0.67680 -0.64600
H 	H 	0.05770 0.66990 0.67540 0.22300
H 	H 	0.01390 0.60250 0.64610 0.21700
H 	H 	0.04740 0.59540 0.70250 0.21500
C 	C 	0.55610 0.66830 0.38840 -0.22600
H 	H 	0.60060 0.68190 0.37430 0.10200
C 	C 	0.84580 0.59600 0.58200 -0.21900
H 	H 	0.86130 0.64340 0.57450 0.09900
C 	C 	0.72620 0.66770 0.68820 -0.59800
H 	H 	0.70860 0.69980 0.71170 0.19800
H 	H 	0.70990 0.61790 0.69340 0.19300
H 	H 	0.70160 0.68310 0.65570 0.19300
C 	C 	0.61330 0.59730 0.29580 -0.61100
H 	H 	0.55960 0.61880 0.29240 0.19800
H 	H 	0.61840 0.57230 0.26610 0.19500
H 	H 	0.65400 0.63550 0.30240 0.19800
C 	C 	0.83230 0.59510 0.27420 -0.60600
H 	H 	0.83660 0.56370 0.24690 0.19100
H 	H 	0.86890 0.63640 0.27470 0.19600
H 	H 	0.77700 0.61270 0.27100 0.19200
Mn	Mn	0.28254 0.88004 0.41171 1.28500
O 	O 	0.70000 0.29500 0.42785 -0.54600
O 	O 	0.71400 0.28770 0.35247 -0.37000
O 	O 	0.88570 0.31720 0.41890 -0.48300
O 	O 	0.86150 0.24440 0.47759 -0.47200
O 	O 	0.29880 0.93710 0.47563 -0.49000
O 	O 	0.26560 0.85800 0.52865 -0.45400
N 	N 	0.31200 0.99620 0.33060 -0.13700
N 	N 	0.43790 0.20300 0.72180 -0.13600
N 	N 	0.17380 0.98460 0.33730 -0.12900
N 	N 	0.17310 0.94370 0.37750 -0.22800
N 	N 	0.34380 0.96620 0.37450 -0.23100
N 	N 	0.36040 0.21440 0.72650 -0.13800
C 	C 	0.12110 0.97570 0.40120 0.26400
C 	C 	0.10230 0.94630 0.44650 -0.64100
H 	H 	0.04760 0.92680 0.44060 0.20800
H 	H 	0.10640 0.98510 0.47050 0.21000
H 	H 	0.14050 0.90770 0.45850 0.20100
C 	C 	0.46020 0.98940 0.43830 -0.65200
H 	H 	0.43900 0.01380 0.46410 0.20800
H 	H 	0.51530 0.00590 0.43840 0.21400
H 	H 	0.46020 0.93690 0.44350 0.20400
H 	H 	0.52430 0.27790 0.72830 0.02200
C 	C 	0.28820 0.91910 0.51680 0.40700
C 	C 	0.67840 0.26950 0.38560 0.36700
C 	C 	0.48260 0.11630 0.36290 0.17700
C 	C 	0.41770 0.06150 0.35760 -0.25400
C 	C 	0.92840 0.12980 0.43210 0.10600
H 	H 	0.88610 0.11650 0.44820 -0.00000
C 	C 	0.09050 0.04070 0.37690 -0.24700
C 	C 	0.44380 0.15370 0.68680 0.26900
C 	C 	0.89390 0.25840 0.44240 0.41600
C 	C 	0.00960 0.22080 0.40370 0.12300
H 	H 	0.02130 0.27030 0.39920 -0.01200
C 	C 	0.35450 0.05320 0.31990 0.25500
C 	C 	0.56420 0.20510 0.41270 0.09400
H 	H 	0.57590 0.23090 0.44220 0.00300
C 	C 	0.23350 0.96830 0.30820 -0.01000
H 	H 	0.21720 0.99030 0.27610 0.02200
H 	H 	0.23690 0.91530 0.30410 0.02400
C 	C 	0.36630 0.13180 0.66790 -0.25100
C 	C 	0.03910 0.09600 0.39320 0.19000
C 	C 	0.52690 0.12910 0.32710 -0.20100
H 	H 	0.51440 0.10330 0.29770 0.08500
C 	C 	0.40820 0.00720 0.39070 0.26500
C 	C 	0.97380 0.07630 0.41450 -0.20900
H 	H 	0.96040 0.02670 0.41700 0.09000
C 	C 	0.29650 0.95960 0.60170 0.11100
H 	H 	0.27920 0.91270 0.60900 0.00400
C 	C 	0.34240 0.07850 0.62870 0.18600
C 	C 	0.94550 0.20270 0.42590 -0.19200
C 	C 	0.30290 0.97570 0.55580 -0.18800
C 	C 	0.31670 0.17120 0.69370 0.24400
C 	C 	0.50230 0.15550 0.40560 -0.19900
H 	H 	0.47220 0.14780 0.43030 0.09200
C 	C 	0.58940 0.17940 0.33380 0.09300
H 	H 	0.61860 0.18770 0.30870 -0.00200
C 	C 	0.60990 0.21810 0.37750 -0.16700
C 	C 	0.12540 0.04440 0.33650 0.25200
C 	C 	0.32680 0.04450 0.54540 0.10200
H 	H 	0.33030 0.05700 0.51340 -0.00700
C 	C 	0.31460 0.01060 0.63830 -0.20700
H 	H 	0.30790 0.99870 0.67000 0.08500
C 	C 	0.52240 0.12820 0.67680 -0.64500
H 	H 	0.55770 0.16990 0.67540 0.22300
H 	H 	0.51390 0.10250 0.64610 0.21700
H 	H 	0.54740 0.09540 0.70250 0.21500
C 	C 	0.05610 0.16830 0.38840 -0.22500
H 	H 	0.10060 0.18190 0.37430 0.10200
C 	C 	0.34580 0.09600 0.58200 -0.21800
H 	H 	0.36130 0.14340 0.57450 0.09800
C 	C 	0.22620 0.16770 0.68820 -0.59700
H 	H 	0.20860 0.19980 0.71170 0.19700
H 	H 	0.20990 0.11790 0.69340 0.19300
H 	H 	0.20160 0.18310 0.65570 0.19300
C 	C 	0.11330 0.09730 0.29580 -0.61000
H 	H 	0.05960 0.11880 0.29240 0.19800
H 	H 	0.11840 0.07230 0.26610 0.19500
H 	H 	0.15400 0.13550 0.30240 0.19800
C 	C 	0.33230 0.09510 0.27420 -0.60500
H 	H 	0.33660 0.06370 0.24690 0.19100
H 	H 	0.36890 0.13640 0.27470 0.19600
H 	H 	0.27700 0.11270 0.27100 0.19200
Mn	Mn	0.78254 0.61996 0.91171 1.28500
O 	O 	0.20000 0.20500 0.92785 -0.53800
O 	O 	0.21400 0.21230 0.85247 -0.36900
O 	O 	0.38570 0.18280 0.91890 -0.47900
O 	O 	0.36150 0.25560 0.97759 -0.45400
O 	O 	0.79880 0.56290 0.97563 -0.45700
O 	O 	0.76560 0.64200 0.02865 -0.45200
N 	N 	0.81200 0.50380 0.83060 -0.13700
N 	N 	0.93790 0.29700 0.22180 -0.13600
N 	N 	0.67380 0.51540 0.83730 -0.13000
N 	N 	0.67310 0.55630 0.87750 -0.22900
N 	N 	0.84380 0.53380 0.87450 -0.23200
N 	N 	0.86040 0.28560 0.22650 -0.13800
C 	C 	0.62110 0.52430 0.90120 0.27400
C 	C 	0.60230 0.55370 0.94650 -0.66700
H 	H 	0.54760 0.57320 0.94060 0.22100
H 	H 	0.60640 0.51490 0.97050 0.22700
H 	H 	0.64050 0.59230 0.95850 0.21600
C 	C 	0.96020 0.51060 0.93830 -0.67100
H 	H 	0.93900 0.48620 0.96410 0.22300
H 	H 	0.01530 0.49410 0.93840 0.22300
H 	H 	0.96020 0.56310 0.94350 0.21300
H 	H 	0.02430 0.22210 0.22830 0.02200
C 	C 	0.78820 0.58090 0.01680 0.36300
C 	C 	0.17840 0.23050 0.88560 0.36400
C 	C 	0.98260 0.38370 0.86290 0.18000
C 	C 	0.91770 0.43850 0.85760 -0.25600
C 	C 	0.42840 0.37020 0.93210 0.10700
H 	H 	0.38610 0.38350 0.94820 0.00500
C 	C 	0.59050 0.45930 0.87690 -0.24900
C 	C 	0.94380 0.34630 0.18680 0.26800
C 	C 	0.39390 0.24160 0.94240 0.41400
C 	C 	0.50960 0.27920 0.90370 0.12400
H 	H 	0.52130 0.22970 0.89920 -0.01100
C 	C 	0.85450 0.44680 0.81990 0.25700
C 	C 	0.06420 0.29490 0.91270 0.09300
H 	H 	0.07590 0.26910 0.94220 0.01100
C 	C 	0.73350 0.53170 0.80820 -0.00900
H 	H 	0.71720 0.50970 0.77610 0.02200
H 	H 	0.73690 0.58470 0.80410 0.02400
C 	C 	0.86630 0.36820 0.16790 -0.25000
C 	C 	0.53910 0.40400 0.89320 0.19200
C 	C 	0.02690 0.37090 0.82710 -0.20200
H 	H 	0.01440 0.39670 0.79770 0.08500
C 	C 	0.90820 0.49280 0.89070 0.27200
C 	C 	0.47380 0.42370 0.91450 -0.20700
H 	H 	0.46040 0.47330 0.91700 0.09300
C 	C 	0.79650 0.54040 0.10170 0.10400
H 	H 	0.77920 0.58730 0.10900 0.00600
C 	C 	0.84240 0.42150 0.12870 0.18300
C 	C 	0.44550 0.29730 0.92590 -0.18700
C 	C 	0.80290 0.52430 0.05580 -0.17800
C 	C 	0.81670 0.32880 0.19370 0.24300
C 	C 	0.00230 0.34450 0.90560 -0.19900
H 	H 	0.97220 0.35220 0.93030 0.09700
C 	C 	0.08940 0.32060 0.83380 0.09300
H 	H 	0.11860 0.31230 0.80870 -0.00200
C 	C 	0.10990 0.28190 0.87750 -0.16500
C 	C 	0.62540 0.45560 0.83650 0.25400
C 	C 	0.82680 0.45550 0.04540 0.09200
H 	H 	0.83030 0.44300 0.01340 -0.01500
C 	C 	0.81460 0.48940 0.13830 -0.20500
H 	H 	0.80790 0.50130 0.17000 0.08500
C 	C 	0.02240 0.37180 0.17680 -0.64400
H 	H 	0.05770 0.33010 0.17540 0.22300
H 	H 	0.01390 0.39750 0.14610 0.21700
H 	H 	0.04740 0.40460 0.20250 0.21500
C 	C 	0.55610 0.33170 0.88840 -0.22400
H 	H 	0.60060 0.31810 0.87430 0.10300
C 	C 	0.84580 0.40400 0.08200 -0.21500
H 	H 	0.86130 0.35660 0.07450 0.09300
C 	C 	0.72620 0.33230 0.18820 -0.59400
H 	H 	0.70860 0.30020 0.21170 0.19600
H 	H 	0.70990 0.38210 0.19340 0.19200
H 	H 	0.70160 0.31690 0.15570 0.19100
C 	C 	0.61330 0.40270 0.79580 -0.61200
H 	H 	0.55960 0.38120 0.79240 0.19800
H 	H 	0.61840 0.42770 0.76610 0.19500
H 	H 	0.65400 0.36450 0.80240 0.19800
C 	C 	0.83230 0.40490 0.77420 -0.60700
H 	H 	0.83660 0.43630 0.74690 0.19100
H 	H 	0.86890 0.36360 0.77470 0.19600
H 	H 	0.77700 0.38730 0.77100 0.19300
Mn	Mn	0.28254 0.11996 0.91171 1.28600
O 	O 	0.70000 0.70500 0.92785 -0.53800
O 	O 	0.71400 0.71230 0.85247 -0.36900
O 	O 	0.88570 0.68280 0.91890 -0.48000
O 	O 	0.86150 0.75560 0.97759 -0.45500
O 	O 	0.29880 0.06290 0.97563 -0.45600
O 	O 	0.26560 0.14200 0.02865 -0.45200
N 	N 	0.31200 0.00380 0.83060 -0.13600
N 	N 	0.43790 0.79700 0.22180 -0.13600
N 	N 	0.17380 0.01540 0.83730 -0.12900
N 	N 	0.17310 0.05630 0.87750 -0.23000
N 	N 	0.34380 0.03380 0.87450 -0.23000
N 	N 	0.36040 0.78560 0.22650 -0.13800
C 	C 	0.12110 0.02430 0.90120 0.27600
C 	C 	0.10230 0.05370 0.94650 -0.66900
H 	H 	0.04760 0.07320 0.94060 0.22200
H 	H 	0.10640 0.01490 0.97050 0.22800
H 	H 	0.14050 0.09230 0.95850 0.21700
C 	C 	0.46020 0.01060 0.93830 -0.65000
H 	H 	0.43900 0.98620 0.96410 0.21600
H 	H 	0.51530 0.99410 0.93840 0.21700
H 	H 	0.46020 0.06310 0.94350 0.20800
H 	H 	0.52430 0.72210 0.22830 0.02200
C 	C 	0.28820 0.08090 0.01680 0.36200
C 	C 	0.67840 0.73050 0.88560 0.36400
C 	C 	0.48260 0.88370 0.86290 0.17600
C 	C 	0.41770 0.93850 0.85760 -0.25200
C 	C 	0.92840 0.87020 0.93210 0.10600
H 	H 	0.88610 0.88350 0.94820 0.00500
C 	C 	0.09050 0.95930 0.87690 -0.25100
C 	C 	0.44380 0.84630 0.18680 0.26800
C 	C 	0.89390 0.74160 0.94240 0.41400
C 	C 	0.00960 0.77920 0.90370 0.12300
H 	H 	0.02130 0.72970 0.89920 -0.01100
C 	C 	0.35450 0.94680 0.81990 0.25300
C 	C 	0.56420 0.79490 0.91270 0.09100
H 	H 	0.57590 0.76910 0.94220 0.01100
C 	C 	0.23350 0.03170 0.80820 -0.01000
H 	H 	0.21720 0.00970 0.77610 0.02200
H 	H 	0.23690 0.08470 0.80410 0.02400
C 	C 	0.36630 0.86820 0.16790 -0.25000
C 	C 	0.03910 0.90400 0.89320 0.19200
C 	C 	0.52690 0.87090 0.82710 -0.20000
H 	H 	0.51440 0.89670 0.79770 0.08400
C 	C 	0.40820 0.99280 0.89070 0.26300
C 	C 	0.97380 0.92370 0.91450 -0.20700
H 	H 	0.96040 0.97330 0.91700 0.09200
C 	C 	0.29650 0.04040 0.10170 0.10000
H 	H 	0.27920 0.08730 0.10900 0.00800
C 	C 	0.34240 0.92150 0.12870 0.18100
C 	C 	0.94550 0.79730 0.92590 -0.18700
C 	C 	0.30290 0.02430 0.05580 -0.17800
C 	C 	0.31670 0.82880 0.19370 0.24300
C 	C 	0.50230 0.84450 0.90560 -0.19600
H 	H 	0.47220 0.85220 0.93030 0.09600
C 	C 	0.58940 0.82060 0.83380 0.09100
H 	H 	0.61860 0.81230 0.80870 -0.00200
C 	C 	0.60990 0.78190 0.87750 -0.16300
C 	C 	0.12540 0.95560 0.83650 0.25300
C 	C 	0.32680 0.95550 0.04540 0.09300
H 	H 	0.33030 0.94300 0.01340 -0.01500
C 	C 	0.31460 0.98940 0.13830 -0.20000
H 	H 	0.30790 0.00130 0.17000 0.08300
C 	C 	0.52240 0.87180 0.17680 -0.64500
H 	H 	0.55770 0.83010 0.17540 0.22300
H 	H 	0.51390 0.89750 0.14610 0.21700
H 	H 	0.54740 0.90460 0.20250 0.21500
C 	C 	0.05610 0.83170 0.88840 -0.22400
H 	H 	0.10060 0.81810 0.87430 0.10300
C 	C 	0.34580 0.90400 0.08200 -0.21400
H 	H 	0.36130 0.85660 0.07450 0.09300
C 	C 	0.22620 0.83230 0.18820 -0.59400
H 	H 	0.20860 0.80020 0.21170 0.19600
H 	H 	0.20990 0.88210 0.19340 0.19200
H 	H 	0.20160 0.81690 0.15570 0.19100
C 	C 	0.11330 0.90270 0.79580 -0.61100
H 	H 	0.05960 0.88120 0.79240 0.19800
H 	H 	0.11840 0.92770 0.76610 0.19400
H 	H 	0.15400 0.86450 0.80240 0.19800
C 	C 	0.33230 0.90490 0.77420 -0.60400
H 	H 	0.33660 0.93630 0.74690 0.19000
H 	H 	0.36890 0.86360 0.77470 0.19500
H 	H 	0.27700 0.88730 0.77100 0.19200
Mn	Mn	0.21746 0.61996 0.58829 1.28500
O 	O 	0.80000 0.20500 0.57215 -0.54600
O 	O 	0.78600 0.21230 0.64753 -0.36900
O 	O 	0.61430 0.18280 0.58110 -0.48300
O 	O 	0.63850 0.25560 0.52241 -0.47200
O 	O 	0.20120 0.56290 0.52437 -0.49100
O 	O 	0.23440 0.64200 0.47135 -0.45400
N 	N 	0.18800 0.50380 0.66940 -0.13700
N 	N 	0.06210 0.29700 0.27820 -0.13600
N 	N 	0.32620 0.51540 0.66270 -0.12900
N 	N 	0.32690 0.55630 0.62250 -0.22800
N 	N 	0.15620 0.53380 0.62550 -0.23100
N 	N 	0.13960 0.28560 0.27350 -0.13800
C 	C 	0.37890 0.52430 0.59880 0.26400
C 	C 	0.39770 0.55370 0.55350 -0.64200
H 	H 	0.45240 0.57320 0.55940 0.20800
H 	H 	0.39360 0.51490 0.52950 0.21000
H 	H 	0.35950 0.59230 0.54150 0.20100
C 	C 	0.03980 0.51060 0.56170 -0.65300
H 	H 	0.06100 0.48620 0.53590 0.20900
H 	H 	0.98470 0.49410 0.56160 0.21500
H 	H 	0.03980 0.56310 0.55650 0.20400
H 	H 	0.97570 0.22210 0.27170 0.02200
C 	C 	0.21180 0.58090 0.48320 0.40700
C 	C 	0.82160 0.23050 0.61440 0.36600
C 	C 	0.01740 0.38370 0.63710 0.17600
C 	C 	0.08230 0.43850 0.64240 -0.25300
C 	C 	0.57160 0.37020 0.56790 0.10600
H 	H 	0.61390 0.38350 0.55180 -0.00100
C 	C 	0.40950 0.45930 0.62310 -0.24700
C 	C 	0.05620 0.34630 0.31320 0.26900
C 	C 	0.60610 0.24160 0.55760 0.41700
C 	C 	0.49040 0.27920 0.59630 0.12400
H 	H 	0.47870 0.22970 0.60080 -0.01200
C 	C 	0.14550 0.44680 0.68010 0.25500
C 	C 	0.93580 0.29490 0.58730 0.09300
H 	H 	0.92410 0.26910 0.55780 0.00300
C 	C 	0.26650 0.53170 0.69180 -0.01000
H 	H 	0.28280 0.50970 0.72390 0.02200
H 	H 	0.26310 0.58470 0.69590 0.02400
C 	C 	0.13370 0.36820 0.33210 -0.25200
C 	C 	0.46090 0.40400 0.60680 0.19000
C 	C 	0.97310 0.37090 0.67290 -0.20000
H 	H 	0.98560 0.39670 0.70230 0.08400
C 	C 	0.09180 0.49280 0.60930 0.26500
C 	C 	0.52620 0.42370 0.58550 -0.21000
H 	H 	0.53960 0.47330 0.58300 0.09000
C 	C 	0.20350 0.54040 0.39830 0.11400
H 	H 	0.22080 0.58730 0.39100 0.00300
C 	C 	0.15760 0.42150 0.37130 0.18800
C 	C 	0.55450 0.29730 0.57410 -0.19300
C 	C 	0.19710 0.52430 0.44420 -0.18900
C 	C 	0.18330 0.32880 0.30630 0.24500
C 	C 	0.99770 0.34450 0.59440 -0.19700
H 	H 	0.02780 0.35220 0.56970 0.09100
C 	C 	0.91060 0.32060 0.66620 0.09200
H 	H 	0.88140 0.31230 0.69130 -0.00200
C 	C 	0.89010 0.28190 0.62250 -0.16600
C 	C 	0.37460 0.45560 0.66350 0.25300
C 	C 	0.17320 0.45550 0.45460 0.10300
H 	H 	0.16970 0.44300 0.48660 -0.00700
C 	C 	0.18540 0.48940 0.36170 -0.21000
H 	H 	0.19210 0.50130 0.33000 0.08700
C 	C 	0.97760 0.37180 0.32320 -0.64500
H 	H 	0.94230 0.33010 0.32460 0.22300
H 	H 	0.98610 0.39750 0.35390 0.21700
H 	H 	0.95260 0.40460 0.29750 0.21500
C 	C 	0.44390 0.33170 0.61160 -0.22600
H 	H 	0.39940 0.31810 0.62570 0.10200
C 	C 	0.15420 0.40400 0.41800 -0.21900
H 	H 	0.13870 0.35660 0.42550 0.09900
C 	C 	0.27380 0.33230 0.31180 -0.59800
H 	H 	0.29140 0.30020 0.28830 0.19800
H 	H 	0.29010 0.38210 0.30660 0.19300
H 	H 	0.29840 0.31690 0.34430 0.19300
C 	C 	0.38670 0.40270 0.70420 -0.61100
H 	H 	0.44040 0.38120 0.70760 0.19800
H 	H 	0.38160 0.42770 0.73390 0.19500
H 	H 	0.34600 0.36450 0.69760 0.19800
C 	C 	0.16770 0.40490 0.72580 -0.60500
H 	H 	0.16340 0.43630 0.75310 0.19100
H 	H 	0.13110 0.36360 0.72530 0.19500
H 	H 	0.22300 0.38730 0.72900 0.19200
Mn	Mn	0.71746 0.11996 0.58829 1.28500
O 	O 	0.30000 0.70500 0.57215 -0.54600
O 	O 	0.28600 0.71230 0.64753 -0.37000
O 	O 	0.11430 0.68280 0.58110 -0.48300
O 	O 	0.13850 0.75560 0.52241 -0.47200
O 	O 	0.70120 0.06290 0.52437 -0.49000
O 	O 	0.73440 0.14200 0.47135 -0.45400
N 	N 	0.68800 0.00380 0.66940 -0.13600
N 	N 	0.56210 0.79700 0.27820 -0.13600
N 	N 	0.82620 0.01540 0.66270 -0.12900
N 	N 	0.82690 0.05630 0.62250 -0.22800
N 	N 	0.65620 0.03380 0.62550 -0.23100
N 	N 	0.63960 0.78560 0.27350 -0.13800
C 	C 	0.87890 0.02430 0.59880 0.26500
C 	C 	0.89770 0.05370 0.55350 -0.64200
H 	H 	0.95240 0.07320 0.55940 0.20900
H 	H 	0.89360 0.01490 0.52950 0.21000
H 	H 	0.85950 0.09230 0.54150 0.20100
C 	C 	0.53980 0.01060 0.56170 -0.64700
H 	H 	0.56100 0.98620 0.53590 0.20700
H 	H 	0.48470 0.99410 0.56160 0.21200
H 	H 	0.53980 0.06310 0.55650 0.20200
H 	H 	0.47570 0.72210 0.27170 0.02200
C 	C 	0.71180 0.08090 0.48320 0.40700
C 	C 	0.32160 0.73050 0.61440 0.36600
C 	C 	0.51740 0.88370 0.63710 0.17700
C 	C 	0.58230 0.93850 0.64240 -0.25300
C 	C 	0.07160 0.87020 0.56790 0.10700
H 	H 	0.11390 0.88350 0.55180 -0.00100
C 	C 	0.90950 0.95930 0.62310 -0.24800
C 	C 	0.55620 0.84630 0.31320 0.26900
C 	C 	0.10610 0.74160 0.55760 0.41700
C 	C 	0.99040 0.77920 0.59630 0.12500
H 	H 	0.97870 0.72970 0.60080 -0.01300
C 	C 	0.64550 0.94680 0.68010 0.25400
C 	C 	0.43580 0.79490 0.58730 0.09300
H 	H 	0.42410 0.76910 0.55780 0.00300
C 	C 	0.76650 0.03170 0.69180 -0.01000
H 	H 	0.78280 0.00970 0.72390 0.02300
H 	H 	0.76310 0.08470 0.69590 0.02400
C 	C 	0.63370 0.86820 0.33210 -0.25200
C 	C 	0.96090 0.90400 0.60680 0.19100
C 	C 	0.47310 0.87090 0.67290 -0.20100
H 	H 	0.48560 0.89670 0.70230 0.08400
C 	C 	0.59180 0.99280 0.60930 0.26300
C 	C 	0.02620 0.92370 0.58550 -0.21100
H 	H 	0.03960 0.97330 0.58300 0.09000
C 	C 	0.70350 0.04040 0.39830 0.11200
H 	H 	0.72080 0.08730 0.39100 0.00400
C 	C 	0.65760 0.92150 0.37130 0.18700
C 	C 	0.05450 0.79730 0.57410 -0.19400
C 	C 	0.69710 0.02430 0.44420 -0.18800
C 	C 	0.68330 0.82880 0.30630 0.24500
C 	C 	0.49770 0.84450 0.59440 -0.19800
H 	H 	0.52780 0.85220 0.56970 0.09100
C 	C 	0.41060 0.82060 0.66620 0.09300
H 	H 	0.38140 0.81230 0.69130 -0.00200
C 	C 	0.39010 0.78190 0.62250 -0.16700
C 	C 	0.87460 0.95560 0.66350 0.25200
C 	C 	0.67320 0.95550 0.45460 0.10200
H 	H 	0.66970 0.94300 0.48660 -0.00700
C 	C 	0.68540 0.98940 0.36170 -0.20900
H 	H 	0.69210 0.00130 0.33000 0.08700
C 	C 	0.47760 0.87180 0.32320 -0.64500
H 	H 	0.44230 0.83010 0.32460 0.22300
H 	H 	0.48610 0.89750 0.35390 0.21700
H 	H 	0.45260 0.90460 0.29750 0.21500
C 	C 	0.94390 0.83170 0.61160 -0.22700
H 	H 	0.89940 0.81810 0.62570 0.10200
C 	C 	0.65420 0.90400 0.41800 -0.21800
H 	H 	0.63870 0.85660 0.42550 0.09800
C 	C 	0.77380 0.83230 0.31180 -0.59800
H 	H 	0.79140 0.80020 0.28830 0.19800
H 	H 	0.79010 0.88210 0.30660 0.19300
H 	H 	0.79840 0.81690 0.34430 0.19400
C 	C 	0.88670 0.90270 0.70420 -0.61000
H 	H 	0.94040 0.88120 0.70760 0.19800
H 	H 	0.88160 0.92770 0.73390 0.19400
H 	H 	0.84600 0.86450 0.69760 0.19700
C 	C 	0.66770 0.90490 0.72580 -0.60400
H 	H 	0.66340 0.93630 0.75310 0.19000
H 	H 	0.63110 0.86360 0.72530 0.19500
H 	H 	0.72300 0.88730 0.72900 0.19200
Mn	Mn	0.25000 0.25000 -0.00000 1.30400
Mn	Mn	0.75000 0.25000 0.50000 1.31700
Mn	Mn	0.75000 0.75000 -0.00000 1.30400
Mn	Mn	0.25000 0.75000 0.50000 1.31700
C 	C 	-0.00000 0.74630 0.75000 0.02100
C 	C 	0.50000 0.24630 0.75000 0.02200
C 	C 	0.00000 0.25370 0.25000 0.02200
C 	C 	0.50000 0.75370 0.25000 0.02200
