data_crystal

_cell_length_a 36.62840
_cell_length_b 36.62840
_cell_length_c 27.51270
_cell_angle_alpha 90.00000
_cell_angle_beta  90.00000
_cell_angle_gamma 120.00000

_symmetry_space_group_name_	'P 1'
_symmetry_space_group_name_H-M	'P 1'

loop_
_symmetry_equiv_pos_as_xyz
  x,y,z

loop_
_atom_site_label
_atom_site_type_symbol
_atom_site_fract_x
_atom_site_fract_y
_atom_site_fract_z
_atom_site_charge
Ag	Ag	0.07568 0.20254 0.68607 0.50700
P 	P 	0.11563 0.25126 0.75162 0.00800
P 	P 	0.39632 0.51993 0.76650 0.00200
C 	C 	0.30750 0.32750 0.74390 -0.03800
C 	C 	0.26020 0.30610 0.74990 0.05400
C 	C 	0.23600 0.29260 0.70730 -0.08400
H 	H 	0.24960 0.29480 0.67720 0.05500
C 	C 	0.19300 0.27630 0.70780 -0.02600
H 	H 	0.17750 0.26800 0.67830 0.01500
C 	C 	0.17200 0.27170 0.75250 -0.03800
C 	C 	0.19540 0.28310 0.79380 -0.02000
H 	H 	0.18220 0.27940 0.82460 0.04100
C 	C 	0.23990 0.30070 0.79090 -0.09000
H 	H 	0.25570 0.30880 0.82020 0.06200
C 	C 	0.32870 0.37470 0.74980 0.05000
C 	C 	0.34040 0.39940 0.70940 -0.08500
H 	H 	0.33570 0.38710 0.67800 0.05600
C 	C 	0.35970 0.44360 0.71470 -0.01800
H 	H 	0.36650 0.46030 0.68610 0.03400
C 	C 	0.36900 0.46330 0.75830 -0.03500
C 	C 	0.35620 0.43890 0.79850 -0.01900
H 	H 	0.36050 0.45180 0.82950 0.01600
C 	C 	0.33670 0.39540 0.79530 -0.08100
H 	H 	0.32870 0.37910 0.82420 0.05700
C 	C 	0.11050 0.29750 0.74720 -0.00400
C 	C 	0.07010 0.29260 0.74710 -0.08500
H 	H 	0.04600 0.26530 0.75070 0.05600
C 	C 	0.06510 0.32770 0.74180 -0.00300
H 	H 	0.03750 0.32400 0.74010 0.02300
C 	C 	0.09870 0.36680 0.73890 -0.07100
H 	H 	0.09480 0.39050 0.73570 0.04700
C 	C 	0.13870 0.37240 0.74050 -0.00700
H 	H 	0.16240 0.40010 0.73890 0.03200
C 	C 	0.14460 0.33880 0.74430 -0.07200
H 	H 	0.17250 0.34330 0.74510 0.05700
C 	C 	0.09900 0.23300 0.81300 0.00700
C 	C 	0.09250 0.19250 0.82400 -0.07500
H 	H 	0.09540 0.17550 0.80010 0.04800
C 	C 	0.08120 0.17860 0.87290 -0.00700
H 	H 	0.07650 0.15150 0.88150 0.03100
C 	C 	0.07670 0.20220 0.90770 -0.06700
H 	H 	0.07010 0.19200 0.94000 0.05700
C 	C 	0.08190 0.24100 0.89630 -0.01000
H 	H 	0.07770 0.25730 0.92020 0.03800
C 	C 	0.09360 0.25650 0.84810 -0.07100
H 	H 	0.09780 0.28360 0.84010 0.05900
C 	C 	0.36920 0.53810 0.72550 0.02500
C 	C 	0.36970 0.53430 0.67660 -0.09900
H 	H 	0.38560 0.52340 0.66170 0.06200
C 	C 	0.34610 0.54670 0.64870 0.02500
H 	H 	0.34550 0.54320 0.61440 0.01500
C 	C 	0.32490 0.56290 0.66720 -0.10000
H 	H 	0.30970 0.57140 0.64650 0.06300
C 	C 	0.32420 0.56780 0.71520 0.01700
H 	H 	0.30840 0.57950 0.72880 0.02200
C 	C 	0.34750 0.55540 0.74600 -0.10000
H 	H 	0.34790 0.55910 0.78020 0.05700
C 	C 	0.44610 0.53960 0.73570 -0.00900
C 	C 	0.46160 0.51490 0.72120 -0.07200
H 	H 	0.44520 0.48520 0.72530 0.05300
C 	C 	0.50240 0.53280 0.69990 -0.01400
H 	H 	0.51260 0.51510 0.68840 0.03100
C 	C 	0.52660 0.57550 0.69610 -0.06200
H 	H 	0.55530 0.58810 0.68640 0.04800
C 	C 	0.50910 0.60020 0.70640 -0.01600
H 	H 	0.52380 0.62940 0.69850 0.03200
C 	C 	0.46950 0.58210 0.72850 -0.07300
H 	H 	0.45860 0.59960 0.73870 0.04100
O 	O 	0.02480 0.13710 0.72320 -0.34800
Ag	Ag	0.74235 0.53587 0.01940 0.50700
P 	P 	0.78230 0.58459 0.08495 0.00800
P 	P 	0.06299 0.85326 0.09983 0.00300
C 	C 	0.97417 0.66083 0.07723 -0.03900
C 	C 	0.92687 0.63943 0.08323 0.05400
C 	C 	0.90267 0.62593 0.04063 -0.08500
H 	H 	0.91627 0.62813 0.01053 0.05500
C 	C 	0.85967 0.60963 0.04113 -0.02700
H 	H 	0.84417 0.60133 0.01163 0.01400
C 	C 	0.83867 0.60503 0.08583 -0.03900
C 	C 	0.86207 0.61643 0.12713 -0.02100
H 	H 	0.84887 0.61273 0.15793 0.04000
C 	C 	0.90657 0.63403 0.12423 -0.09100
H 	H 	0.92237 0.64213 0.15353 0.06100
C 	C 	0.99537 0.70803 0.08313 0.05200
C 	C 	0.00707 0.73273 0.04273 -0.08900
H 	H 	0.00237 0.72043 0.01133 0.05600
C 	C 	0.02637 0.77693 0.04803 -0.01700
H 	H 	0.03317 0.79363 0.01943 0.03200
C 	C 	0.03567 0.79663 0.09163 -0.03800
C 	C 	0.02287 0.77223 0.13183 -0.01800
H 	H 	0.02717 0.78513 0.16283 0.01500
C 	C 	0.00337 0.72873 0.12863 -0.08500
H 	H 	0.99537 0.71243 0.15753 0.05800
C 	C 	0.77717 0.63083 0.08053 -0.00500
C 	C 	0.73677 0.62593 0.08043 -0.08600
H 	H 	0.71267 0.59863 0.08403 0.05500
C 	C 	0.73177 0.66103 0.07513 -0.00400
H 	H 	0.70417 0.65733 0.07343 0.02200
C 	C 	0.76537 0.70013 0.07223 -0.07200
H 	H 	0.76147 0.72383 0.06903 0.04600
C 	C 	0.80537 0.70573 0.07383 -0.00800
H 	H 	0.82907 0.73343 0.07223 0.03200
C 	C 	0.81127 0.67213 0.07763 -0.07300
H 	H 	0.83917 0.67663 0.07843 0.05600
C 	C 	0.76567 0.56633 0.14633 0.00600
C 	C 	0.75917 0.52583 0.15733 -0.07600
H 	H 	0.76207 0.50883 0.13343 0.04800
C 	C 	0.74787 0.51193 0.20623 -0.00800
H 	H 	0.74317 0.48483 0.21483 0.03000
C 	C 	0.74337 0.53553 0.24103 -0.06800
H 	H 	0.73677 0.52533 0.27333 0.05600
C 	C 	0.74857 0.57433 0.22963 -0.01100
H 	H 	0.74437 0.59063 0.25353 0.03700
C 	C 	0.76027 0.58983 0.18143 -0.07200
H 	H 	0.76447 0.61693 0.17343 0.05800
C 	C 	0.03587 0.87143 0.05883 0.02300
C 	C 	0.03637 0.86763 0.00993 -0.09700
H 	H 	0.05227 0.85673 0.99503 0.06000
C 	C 	0.01277 0.88003 0.98203 0.02000
H 	H 	0.01217 0.87653 0.94773 0.01500
C 	C 	0.99157 0.89623 0.00053 -0.09800
H 	H 	0.97637 0.90473 0.97983 0.06100
C 	C 	0.99087 0.90113 0.04853 0.01400
H 	H 	0.97507 0.91283 0.06213 0.02200
C 	C 	0.01417 0.88873 0.07933 -0.10000
H 	H 	0.01457 0.89243 0.11353 0.05600
C 	C 	0.11277 0.87293 0.06903 -0.01000
C 	C 	0.12827 0.84823 0.05453 -0.07200
H 	H 	0.11187 0.81853 0.05863 0.05200
C 	C 	0.16907 0.86613 0.03323 -0.01500
H 	H 	0.17927 0.84843 0.02173 0.03000
C 	C 	0.19327 0.90883 0.02943 -0.06300
H 	H 	0.22197 0.92143 0.01973 0.04700
C 	C 	0.17577 0.93353 0.03973 -0.01800
H 	H 	0.19047 0.96273 0.03183 0.03100
C 	C 	0.13617 0.91543 0.06183 -0.07400
H 	H 	0.12527 0.93293 0.07203 0.04000
O 	O 	0.69147 0.47043 0.05653 -0.34900
Ag	Ag	0.40901 0.86921 0.35274 0.50600
P 	P 	0.44896 0.91793 0.41829 0.00700
P 	P 	0.72965 0.18660 0.43317 0.00100
C 	C 	0.64083 0.99417 0.41057 -0.03700
C 	C 	0.59353 0.97277 0.41657 0.05200
C 	C 	0.56933 0.95927 0.37397 -0.08400
H 	H 	0.58293 0.96147 0.34387 0.05400
C 	C 	0.52633 0.94297 0.37447 -0.02700
H 	H 	0.51083 0.93467 0.34497 0.01400
C 	C 	0.50533 0.93837 0.41917 -0.03900
C 	C 	0.52873 0.94977 0.46047 -0.02100
H 	H 	0.51553 0.94607 0.49127 0.04000
C 	C 	0.57323 0.96737 0.45757 -0.09000
H 	H 	0.58903 0.97547 0.48687 0.06100
C 	C 	0.66203 0.04137 0.41647 0.04800
C 	C 	0.67373 0.06607 0.37607 -0.08600
H 	H 	0.66903 0.05377 0.34467 0.05500
C 	C 	0.69303 0.11027 0.38137 -0.01900
H 	H 	0.69983 0.12697 0.35277 0.03300
C 	C 	0.70233 0.12997 0.42497 -0.03600
C 	C 	0.68953 0.10557 0.46517 -0.02100
H 	H 	0.69383 0.11847 0.49617 0.01600
C 	C 	0.67003 0.06207 0.46197 -0.08100
H 	H 	0.66203 0.04577 0.49087 0.05600
C 	C 	0.44383 0.96417 0.41387 -0.00300
C 	C 	0.40343 0.95927 0.41377 -0.08800
H 	H 	0.37933 0.93197 0.41737 0.05600
C 	C 	0.39843 0.99437 0.40847 -0.00100
H 	H 	0.37083 0.99067 0.40677 0.02100
C 	C 	0.43203 0.03347 0.40557 -0.07600
H 	H 	0.42813 0.05717 0.40237 0.04700
C 	C 	0.47203 0.03907 0.40717 -0.00600
H 	H 	0.49573 0.06677 0.40557 0.03100
C 	C 	0.47793 0.00547 0.41097 -0.07600
H 	H 	0.50583 0.00997 0.41177 0.05700
C 	C 	0.43233 0.89967 0.47967 0.00600
C 	C 	0.42583 0.85917 0.49067 -0.07600
H 	H 	0.42873 0.84217 0.46677 0.04800
C 	C 	0.41453 0.84527 0.53957 -0.00800
H 	H 	0.40983 0.81817 0.54817 0.03000
C 	C 	0.41003 0.86887 0.57437 -0.06800
H 	H 	0.40343 0.85867 0.60667 0.05600
C 	C 	0.41523 0.90767 0.56297 -0.01100
H 	H 	0.41103 0.92397 0.58687 0.03700
C 	C 	0.42693 0.92317 0.51477 -0.07200
H 	H 	0.43113 0.95027 0.50677 0.05800
C 	C 	0.70253 0.20477 0.39217 0.02400
C 	C 	0.70303 0.20097 0.34327 -0.10000
H 	H 	0.71893 0.19007 0.32837 0.06100
C 	C 	0.67943 0.21337 0.31537 0.02400
H 	H 	0.67883 0.20987 0.28107 0.01400
C 	C 	0.65823 0.22957 0.33387 -0.10100
H 	H 	0.64303 0.23807 0.31317 0.06200
C 	C 	0.65753 0.23447 0.38187 0.01600
H 	H 	0.64173 0.24617 0.39547 0.02100
C 	C 	0.68083 0.22207 0.41267 -0.10100
H 	H 	0.68123 0.22577 0.44687 0.05600
C 	C 	0.77943 0.20627 0.40237 -0.01000
C 	C 	0.79493 0.18157 0.38787 -0.07300
H 	H 	0.77853 0.15187 0.39197 0.05200
C 	C 	0.83573 0.19947 0.36657 -0.01500
H 	H 	0.84593 0.18177 0.35507 0.03000
C 	C 	0.85993 0.24217 0.36277 -0.06300
H 	H 	0.88863 0.25477 0.35307 0.04700
C 	C 	0.84243 0.26687 0.37307 -0.01700
H 	H 	0.85713 0.29607 0.36517 0.03100
C 	C 	0.80283 0.24877 0.39517 -0.07400
H 	H 	0.79193 0.26627 0.40537 0.04000
O 	O 	0.35813 0.80377 0.38987 -0.34900
Ag	Ag	0.79746 0.87314 0.68607 0.50600
P 	P 	0.74874 0.86437 0.75162 0.00700
P 	P 	0.48007 0.87639 0.76650 0.00100
C 	C 	0.67250 0.98000 0.74390 -0.03800
C 	C 	0.69390 0.95410 0.74990 0.05300
C 	C 	0.70740 0.94340 0.70730 -0.08500
H 	H 	0.70520 0.95480 0.67720 0.05400
C 	C 	0.72370 0.91670 0.70780 -0.02700
H 	H 	0.73200 0.90950 0.67830 0.01400
C 	C 	0.72830 0.90030 0.75250 -0.03900
C 	C 	0.71690 0.91230 0.79380 -0.02100
H 	H 	0.72060 0.90280 0.82460 0.04000
C 	C 	0.69930 0.93920 0.79090 -0.09100
H 	H 	0.69120 0.94690 0.82020 0.06100
C 	C 	0.62530 0.95400 0.74980 0.04900
C 	C 	0.60060 0.94100 0.70940 -0.08600
H 	H 	0.61290 0.94860 0.67800 0.05500
C 	C 	0.55640 0.91610 0.71470 -0.01900
H 	H 	0.53970 0.90620 0.68610 0.03300
C 	C 	0.53670 0.90570 0.75830 -0.03600
C 	C 	0.56110 0.91730 0.79850 -0.02000
H 	H 	0.54820 0.90870 0.82950 0.01500
C 	C 	0.60460 0.94130 0.79530 -0.08200
H 	H 	0.62090 0.94960 0.82420 0.05600
C 	C 	0.70250 0.81300 0.74720 -0.00500
C 	C 	0.70740 0.77750 0.74710 -0.08600
H 	H 	0.73470 0.78070 0.75070 0.05500
C 	C 	0.67230 0.73740 0.74180 -0.00400
H 	H 	0.67600 0.71350 0.74010 0.02200
C 	C 	0.63320 0.73190 0.73890 -0.07200
H 	H 	0.60950 0.70430 0.73570 0.04600
C 	C 	0.62760 0.76630 0.74050 -0.00800
H 	H 	0.59990 0.76230 0.73890 0.03100
C 	C 	0.66120 0.80580 0.74430 -0.07300
H 	H 	0.65670 0.82920 0.74510 0.05600
C 	C 	0.76700 0.86600 0.81300 0.00600
C 	C 	0.80750 0.90000 0.82400 -0.07600
H 	H 	0.82450 0.91990 0.80010 0.04800
C 	C 	0.82140 0.90260 0.87290 -0.00800
H 	H 	0.84850 0.92500 0.88150 0.03100
C 	C 	0.79780 0.87450 0.90770 -0.06800
H 	H 	0.80800 0.87810 0.94000 0.05600
C 	C 	0.75900 0.84090 0.89630 -0.01100
H 	H 	0.74270 0.82040 0.92020 0.03700
C 	C 	0.74350 0.83710 0.84810 -0.07200
H 	H 	0.71640 0.81420 0.84010 0.05800
C 	C 	0.46190 0.83110 0.72550 0.02400
C 	C 	0.46570 0.83540 0.67660 -0.10000
H 	H 	0.47660 0.86220 0.66170 0.06100
C 	C 	0.45330 0.79940 0.64870 0.02400
H 	H 	0.45680 0.80230 0.61440 0.01400
C 	C 	0.43710 0.76200 0.66720 -0.10100
H 	H 	0.42860 0.73830 0.64650 0.06200
C 	C 	0.43220 0.75640 0.71520 0.01500
H 	H 	0.42050 0.72890 0.72880 0.02100
C 	C 	0.44460 0.79210 0.74600 -0.10100
H 	H 	0.44090 0.78880 0.78020 0.05600
C 	C 	0.46040 0.90650 0.73570 -0.01000
C 	C 	0.48510 0.94670 0.72120 -0.07300
H 	H 	0.51480 0.96000 0.72530 0.05200
C 	C 	0.46720 0.96960 0.69990 -0.01500
H 	H 	0.48490 0.99750 0.68840 0.03000
C 	C 	0.42450 0.95110 0.69610 -0.06300
H 	H 	0.41190 0.96720 0.68640 0.04700
C 	C 	0.39980 0.90890 0.70640 -0.01700
H 	H 	0.37060 0.89440 0.69850 0.03100
C 	C 	0.41790 0.88740 0.72850 -0.07400
H 	H 	0.40040 0.85900 0.73870 0.04000
O 	O 	0.86290 0.88770 0.72320 -0.34900
Ag	Ag	0.46413 0.20647 0.01940 0.50600
P 	P 	0.41541 0.19770 0.08495 0.00700
P 	P 	0.14674 0.20972 0.09983 0.00100
C 	C 	0.33917 0.31333 0.07723 -0.03900
C 	C 	0.36057 0.28743 0.08323 0.05300
C 	C 	0.37407 0.27673 0.04063 -0.08500
H 	H 	0.37187 0.28813 0.01053 0.05400
C 	C 	0.39037 0.25003 0.04113 -0.02700
H 	H 	0.39867 0.24283 0.01163 0.01400
C 	C 	0.39497 0.23363 0.08583 -0.03900
C 	C 	0.38357 0.24563 0.12713 -0.02100
H 	H 	0.38727 0.23613 0.15793 0.04000
C 	C 	0.36597 0.27253 0.12423 -0.09100
H 	H 	0.35787 0.28023 0.15353 0.06100
C 	C 	0.29197 0.28733 0.08313 0.04900
C 	C 	0.26727 0.27433 0.04273 -0.08600
H 	H 	0.27957 0.28193 0.01133 0.05500
C 	C 	0.22307 0.24943 0.04803 -0.01900
H 	H 	0.20637 0.23953 0.01943 0.03300
C 	C 	0.20337 0.23903 0.09163 -0.03600
C 	C 	0.22777 0.25063 0.13183 -0.02000
H 	H 	0.21487 0.24203 0.16283 0.01500
C 	C 	0.27127 0.27463 0.12863 -0.08200
H 	H 	0.28757 0.28293 0.15753 0.05600
C 	C 	0.36917 0.14633 0.08053 -0.00500
C 	C 	0.37407 0.11083 0.08043 -0.08600
H 	H 	0.40137 0.11403 0.08403 0.05500
C 	C 	0.33897 0.07073 0.07513 -0.00400
H 	H 	0.34267 0.04683 0.07343 0.02200
C 	C 	0.29987 0.06523 0.07223 -0.07200
H 	H 	0.27617 0.03763 0.06903 0.04600
C 	C 	0.29427 0.09963 0.07383 -0.00800
H 	H 	0.26657 0.09563 0.07223 0.03100
C 	C 	0.32787 0.13913 0.07763 -0.07300
H 	H 	0.32337 0.16253 0.07843 0.05600
C 	C 	0.43367 0.19933 0.14633 0.00600
C 	C 	0.47417 0.23333 0.15733 -0.07600
H 	H 	0.49117 0.25323 0.13343 0.04800
C 	C 	0.48807 0.23593 0.20623 -0.00800
H 	H 	0.51517 0.25833 0.21483 0.03000
C 	C 	0.46447 0.20783 0.24103 -0.06800
H 	H 	0.47467 0.21143 0.27333 0.05600
C 	C 	0.42567 0.17423 0.22963 -0.01100
H 	H 	0.40937 0.15373 0.25353 0.03700
C 	C 	0.41017 0.17043 0.18143 -0.07200
H 	H 	0.38307 0.14753 0.17343 0.05800
C 	C 	0.12857 0.16443 0.05883 0.02400
C 	C 	0.13237 0.16873 0.00993 -0.10000
H 	H 	0.14327 0.19553 0.99503 0.06100
C 	C 	0.11997 0.13273 0.98203 0.02300
H 	H 	0.12347 0.13563 0.94773 0.01400
C 	C 	0.10377 0.09533 0.00053 -0.10100
H 	H 	0.09527 0.07163 0.97983 0.06200
C 	C 	0.09887 0.08973 0.04853 0.01500
H 	H 	0.08717 0.06223 0.06213 0.02100
C 	C 	0.11127 0.12543 0.07933 -0.10100
H 	H 	0.10757 0.12213 0.11353 0.05600
C 	C 	0.12707 0.23983 0.06903 -0.01000
C 	C 	0.15177 0.28003 0.05453 -0.07300
H 	H 	0.18147 0.29333 0.05863 0.05200
C 	C 	0.13387 0.30293 0.03323 -0.01500
H 	H 	0.15157 0.33083 0.02173 0.03000
C 	C 	0.09117 0.28443 0.02943 -0.06300
H 	H 	0.07857 0.30053 0.01973 0.04700
C 	C 	0.06647 0.24223 0.03973 -0.01700
H 	H 	0.03727 0.22773 0.03183 0.03100
C 	C 	0.08457 0.22073 0.06183 -0.07400
H 	H 	0.06707 0.19233 0.07203 0.04000
O 	O 	0.52957 0.22103 0.05653 -0.34900
Ag	Ag	0.13079 0.53981 0.35274 0.50600
P 	P 	0.08207 0.53104 0.41829 0.00800
P 	P 	0.81340 0.54306 0.43317 0.00100
C 	C 	0.00583 0.64667 0.41057 -0.04000
C 	C 	0.02723 0.62077 0.41657 0.05300
C 	C 	0.04073 0.61007 0.37397 -0.08500
H 	H 	0.03853 0.62147 0.34387 0.05400
C 	C 	0.05703 0.58337 0.37447 -0.02700
H 	H 	0.06533 0.57617 0.34497 0.01400
C 	C 	0.06163 0.56697 0.41917 -0.03900
C 	C 	0.05023 0.57897 0.46047 -0.02100
H 	H 	0.05393 0.56947 0.49127 0.04000
C 	C 	0.03263 0.60587 0.45757 -0.09100
H 	H 	0.02453 0.61357 0.48687 0.06100
C 	C 	0.95863 0.62067 0.41647 0.05000
C 	C 	0.93393 0.60767 0.37607 -0.08700
H 	H 	0.94623 0.61527 0.34467 0.05600
C 	C 	0.88973 0.58277 0.38137 -0.01800
H 	H 	0.87303 0.57287 0.35277 0.03300
C 	C 	0.87003 0.57237 0.42497 -0.03600
C 	C 	0.89443 0.58397 0.46517 -0.02000
H 	H 	0.88153 0.57537 0.49617 0.01500
C 	C 	0.93793 0.60797 0.46197 -0.08200
H 	H 	0.95423 0.61627 0.49087 0.05700
C 	C 	0.03583 0.47967 0.41387 -0.00700
C 	C 	0.04073 0.44417 0.41377 -0.08400
H 	H 	0.06803 0.44737 0.41737 0.05500
C 	C 	0.00563 0.40407 0.40847 -0.00700
H 	H 	0.00933 0.38017 0.40677 0.02300
C 	C 	0.96653 0.39857 0.40557 -0.06900
H 	H 	0.94283 0.37097 0.40237 0.04500
C 	C 	0.96093 0.43297 0.40717 -0.01100
H 	H 	0.93323 0.42897 0.40557 0.03200
C 	C 	0.99453 0.47247 0.41097 -0.07100
H 	H 	0.99003 0.49587 0.41177 0.05500
C 	C 	0.10033 0.53267 0.47967 0.00600
C 	C 	0.14083 0.56667 0.49067 -0.07600
H 	H 	0.15783 0.58657 0.46677 0.04700
C 	C 	0.15473 0.56927 0.53957 -0.00800
H 	H 	0.18183 0.59167 0.54817 0.03000
C 	C 	0.13113 0.54117 0.57437 -0.06800
H 	H 	0.14133 0.54477 0.60667 0.05600
C 	C 	0.09233 0.50757 0.56297 -0.01100
H 	H 	0.07603 0.48707 0.58687 0.03700
C 	C 	0.07683 0.50377 0.51477 -0.07200
H 	H 	0.04973 0.48087 0.50677 0.05800
C 	C 	0.79523 0.49777 0.39217 0.02400
C 	C 	0.79903 0.50207 0.34327 -0.10000
H 	H 	0.80993 0.52887 0.32837 0.06100
C 	C 	0.78663 0.46607 0.31537 0.02400
H 	H 	0.79013 0.46897 0.28107 0.01400
C 	C 	0.77043 0.42867 0.33387 -0.10100
H 	H 	0.76193 0.40497 0.31317 0.06200
C 	C 	0.76553 0.42307 0.38187 0.01500
H 	H 	0.75383 0.39557 0.39547 0.02100
C 	C 	0.77793 0.45877 0.41267 -0.10100
H 	H 	0.77423 0.45547 0.44687 0.05600
C 	C 	0.79373 0.57317 0.40237 -0.01000
C 	C 	0.81843 0.61337 0.38787 -0.07300
H 	H 	0.84813 0.62667 0.39197 0.05200
C 	C 	0.80053 0.63627 0.36657 -0.01500
H 	H 	0.81823 0.66417 0.35507 0.03000
C 	C 	0.75783 0.61777 0.36277 -0.06300
H 	H 	0.74523 0.63387 0.35307 0.04700
C 	C 	0.73313 0.57557 0.37307 -0.01700
H 	H 	0.70393 0.56107 0.36517 0.03100
C 	C 	0.75123 0.55407 0.39517 -0.07400
H 	H 	0.73373 0.52567 0.40537 0.04000
O 	O 	0.19623 0.55437 0.38987 -0.34900
Ag	Ag	0.12686 0.92432 0.68607 0.50600
P 	P 	0.13563 0.88437 0.75162 0.00700
P 	P 	0.12361 0.60368 0.76650 0.00100
C 	C 	0.02000 0.69250 0.74390 -0.04000
C 	C 	0.04590 0.73980 0.74990 0.05300
C 	C 	0.05660 0.76400 0.70730 -0.08500
H 	H 	0.04520 0.75040 0.67720 0.05400
C 	C 	0.08330 0.80700 0.70780 -0.02700
H 	H 	0.09050 0.82250 0.67830 0.01400
C 	C 	0.09970 0.82800 0.75250 -0.03900
C 	C 	0.08770 0.80460 0.79380 -0.02100
H 	H 	0.09720 0.81780 0.82460 0.04000
C 	C 	0.06080 0.76010 0.79090 -0.09100
H 	H 	0.05310 0.74430 0.82020 0.06100
C 	C 	0.04600 0.67130 0.74980 0.04900
C 	C 	0.05900 0.65960 0.70940 -0.08700
H 	H 	0.05140 0.66430 0.67800 0.05500
C 	C 	0.08390 0.64030 0.71470 -0.01900
H 	H 	0.09380 0.63350 0.68610 0.03300
C 	C 	0.09430 0.63100 0.75830 -0.03600
C 	C 	0.08270 0.64380 0.79850 -0.02000
H 	H 	0.09130 0.63950 0.82950 0.01500
C 	C 	0.05870 0.66330 0.79530 -0.08200
H 	H 	0.05040 0.67130 0.82420 0.05600
C 	C 	0.18700 0.88950 0.74720 -0.00500
C 	C 	0.22250 0.92990 0.74710 -0.08600
H 	H 	0.21930 0.95400 0.75070 0.05500
C 	C 	0.26260 0.93490 0.74180 -0.00400
H 	H 	0.28650 0.96250 0.74010 0.02200
C 	C 	0.26810 0.90130 0.73890 -0.07200
H 	H 	0.29570 0.90520 0.73570 0.04600
C 	C 	0.23370 0.86130 0.74050 -0.00800
H 	H 	0.23770 0.83760 0.73890 0.03200
C 	C 	0.19420 0.85540 0.74430 -0.07300
H 	H 	0.17080 0.82750 0.74510 0.05600
C 	C 	0.13400 0.90100 0.81300 0.00600
C 	C 	0.10000 0.90750 0.82400 -0.07600
H 	H 	0.08010 0.90460 0.80010 0.04700
C 	C 	0.09740 0.91880 0.87290 -0.00800
H 	H 	0.07500 0.92350 0.88150 0.03000
C 	C 	0.12550 0.92330 0.90770 -0.06800
H 	H 	0.12190 0.92990 0.94000 0.05600
C 	C 	0.15910 0.91810 0.89630 -0.01100
H 	H 	0.17960 0.92230 0.92020 0.03700
C 	C 	0.16290 0.90640 0.84810 -0.07200
H 	H 	0.18580 0.90220 0.84010 0.05800
C 	C 	0.16890 0.63080 0.72550 0.02400
C 	C 	0.16460 0.63030 0.67660 -0.10000
H 	H 	0.13780 0.61440 0.66170 0.06100
C 	C 	0.20060 0.65390 0.64870 0.02400
H 	H 	0.19770 0.65450 0.61440 0.01400
C 	C 	0.23800 0.67510 0.66720 -0.10100
H 	H 	0.26170 0.69030 0.64650 0.06200
C 	C 	0.24360 0.67580 0.71520 0.01600
H 	H 	0.27110 0.69160 0.72880 0.02100
C 	C 	0.20790 0.65250 0.74600 -0.10100
H 	H 	0.21120 0.65210 0.78020 0.05600
C 	C 	0.09350 0.55390 0.73570 -0.01000
C 	C 	0.05330 0.53840 0.72120 -0.07300
H 	H 	0.04000 0.55480 0.72530 0.05200
C 	C 	0.03040 0.49760 0.69990 -0.01500
H 	H 	0.00250 0.48740 0.68840 0.03000
C 	C 	0.04890 0.47340 0.69610 -0.06300
H 	H 	0.03280 0.44470 0.68640 0.04700
C 	C 	0.09110 0.49090 0.70640 -0.01800
H 	H 	0.10560 0.47620 0.69850 0.03100
C 	C 	0.11260 0.53050 0.72850 -0.07400
H 	H 	0.14100 0.54140 0.73870 0.04000
O 	O 	0.11230 0.97520 0.72320 -0.34900
Ag	Ag	0.79353 0.25765 0.01940 0.50600
P 	P 	0.80230 0.21770 0.08495 0.00700
P 	P 	0.79028 0.93701 0.09983 0.00100
C 	C 	0.68667 0.02583 0.07723 -0.03700
C 	C 	0.71257 0.07313 0.08323 0.05200
C 	C 	0.72327 0.09733 0.04063 -0.08400
H 	H 	0.71187 0.08373 0.01053 0.05400
C 	C 	0.74997 0.14033 0.04113 -0.02700
H 	H 	0.75717 0.15583 0.01163 0.01400
C 	C 	0.76637 0.16133 0.08583 -0.03900
C 	C 	0.75437 0.13793 0.12713 -0.02100
H 	H 	0.76387 0.15113 0.15793 0.04000
C 	C 	0.72747 0.09343 0.12423 -0.09000
H 	H 	0.71977 0.07763 0.15353 0.06000
C 	C 	0.71267 0.00463 0.08313 0.04500
C 	C 	0.72567 0.99293 0.04273 -0.08300
H 	H 	0.71807 0.99763 0.01133 0.05500
C 	C 	0.75057 0.97363 0.04803 -0.02100
H 	H 	0.76047 0.96683 0.01943 0.03400
C 	C 	0.76097 0.96433 0.09163 -0.03400
C 	C 	0.74937 0.97713 0.13183 -0.02300
H 	H 	0.75797 0.97283 0.16283 0.01600
C 	C 	0.72537 0.99663 0.12863 -0.07700
H 	H 	0.71707 0.00463 0.15753 0.05400
C 	C 	0.85367 0.22283 0.08053 -0.00500
C 	C 	0.88917 0.26323 0.08043 -0.08600
H 	H 	0.88597 0.28733 0.08403 0.05500
C 	C 	0.92927 0.26823 0.07513 -0.00400
H 	H 	0.95317 0.29583 0.07343 0.02200
C 	C 	0.93477 0.23463 0.07223 -0.07200
H 	H 	0.96237 0.23853 0.06903 0.04600
C 	C 	0.90037 0.19463 0.07383 -0.00800
H 	H 	0.90437 0.17093 0.07223 0.03200
C 	C 	0.86087 0.18873 0.07763 -0.07300
H 	H 	0.83747 0.16083 0.07843 0.05600
C 	C 	0.80067 0.23433 0.14633 0.00600
C 	C 	0.76667 0.24083 0.15733 -0.07600
H 	H 	0.74677 0.23793 0.13343 0.04800
C 	C 	0.76407 0.25213 0.20623 -0.00800
H 	H 	0.74167 0.25683 0.21483 0.03000
C 	C 	0.79217 0.25663 0.24103 -0.06800
H 	H 	0.78857 0.26323 0.27333 0.05600
C 	C 	0.82577 0.25143 0.22963 -0.01100
H 	H 	0.84627 0.25563 0.25353 0.03700
C 	C 	0.82957 0.23973 0.18143 -0.07200
H 	H 	0.85247 0.23553 0.17343 0.05800
C 	C 	0.83557 0.96413 0.05883 0.02500
C 	C 	0.83127 0.96363 0.00993 -0.10100
H 	H 	0.80447 0.94773 0.99503 0.06100
C 	C 	0.86727 0.98723 0.98203 0.02600
H 	H 	0.86437 0.98783 0.94773 0.01400
C 	C 	0.90467 0.00843 0.00053 -0.10400
H 	H 	0.92837 0.02363 0.97983 0.06300
C 	C 	0.91027 0.00913 0.04853 0.01600
H 	H 	0.93777 0.02493 0.06213 0.02100
C 	C 	0.87457 0.98583 0.07933 -0.10100
H 	H 	0.87787 0.98543 0.11353 0.05600
C 	C 	0.76017 0.88723 0.06903 -0.01000
C 	C 	0.71997 0.87173 0.05453 -0.07300
H 	H 	0.70667 0.88813 0.05863 0.05200
C 	C 	0.69707 0.83093 0.03323 -0.01500
H 	H 	0.66917 0.82073 0.02173 0.03000
C 	C 	0.71557 0.80673 0.02943 -0.06300
H 	H 	0.69947 0.77803 0.01973 0.04700
C 	C 	0.75777 0.82423 0.03973 -0.01700
H 	H 	0.77227 0.80953 0.03183 0.03100
C 	C 	0.77927 0.86383 0.06183 -0.07400
H 	H 	0.80767 0.87473 0.07203 0.04000
O 	O 	0.77897 0.30853 0.05653 -0.34900
Ag	Ag	0.46019 0.59099 0.35274 0.50600
P 	P 	0.46896 0.55104 0.41829 0.00700
P 	P 	0.45694 0.27035 0.43317 0.00100
C 	C 	0.35333 0.35917 0.41057 -0.03900
C 	C 	0.37923 0.40647 0.41657 0.05300
C 	C 	0.38993 0.43067 0.37397 -0.08500
H 	H 	0.37853 0.41707 0.34387 0.05400
C 	C 	0.41663 0.47367 0.37447 -0.02700
H 	H 	0.42383 0.48917 0.34497 0.01400
C 	C 	0.43303 0.49467 0.41917 -0.03900
C 	C 	0.42103 0.47127 0.46047 -0.02100
H 	H 	0.43053 0.48447 0.49127 0.04000
C 	C 	0.39413 0.42677 0.45757 -0.09100
H 	H 	0.38643 0.41097 0.48687 0.06100
C 	C 	0.37933 0.33797 0.41647 0.04900
C 	C 	0.39233 0.32627 0.37607 -0.08600
H 	H 	0.38473 0.33097 0.34467 0.05500
C 	C 	0.41723 0.30697 0.38137 -0.01900
H 	H 	0.42713 0.30017 0.35277 0.03300
C 	C 	0.42763 0.29767 0.42497 -0.03600
C 	C 	0.41603 0.31047 0.46517 -0.02000
H 	H 	0.42463 0.30617 0.49617 0.01500
C 	C 	0.39203 0.32997 0.46197 -0.08200
H 	H 	0.38373 0.33797 0.49087 0.05600
C 	C 	0.52033 0.55617 0.41387 -0.00500
C 	C 	0.55583 0.59657 0.41377 -0.08600
H 	H 	0.55263 0.62067 0.41737 0.05500
C 	C 	0.59593 0.60157 0.40847 -0.00400
H 	H 	0.61983 0.62917 0.40677 0.02200
C 	C 	0.60143 0.56797 0.40557 -0.07200
H 	H 	0.62903 0.57187 0.40237 0.04600
C 	C 	0.56703 0.52797 0.40717 -0.00800
H 	H 	0.57103 0.50427 0.40557 0.03100
C 	C 	0.52753 0.52207 0.41097 -0.07300
H 	H 	0.50413 0.49417 0.41177 0.05600
C 	C 	0.46733 0.56767 0.47967 0.00600
C 	C 	0.43333 0.57417 0.49067 -0.07600
H 	H 	0.41343 0.57127 0.46677 0.04800
C 	C 	0.43073 0.58547 0.53957 -0.00800
H 	H 	0.40833 0.59017 0.54817 0.03000
C 	C 	0.45883 0.58997 0.57437 -0.06800
H 	H 	0.45523 0.59657 0.60667 0.05600
C 	C 	0.49243 0.58477 0.56297 -0.01100
H 	H 	0.51293 0.58897 0.58687 0.03700
C 	C 	0.49623 0.57307 0.51477 -0.07200
H 	H 	0.51913 0.56887 0.50677 0.05800
C 	C 	0.50223 0.29747 0.39217 0.02400
C 	C 	0.49793 0.29697 0.34327 -0.10000
H 	H 	0.47113 0.28107 0.32837 0.06100
C 	C 	0.53393 0.32057 0.31537 0.02400
H 	H 	0.53103 0.32117 0.28107 0.01400
C 	C 	0.57133 0.34177 0.33387 -0.10100
H 	H 	0.59503 0.35697 0.31317 0.06200
C 	C 	0.57693 0.34247 0.38187 0.01600
H 	H 	0.60443 0.35827 0.39547 0.02100
C 	C 	0.54123 0.31917 0.41267 -0.10100
H 	H 	0.54453 0.31877 0.44687 0.05600
C 	C 	0.42683 0.22057 0.40237 -0.01000
C 	C 	0.38663 0.20507 0.38787 -0.07300
H 	H 	0.37333 0.22147 0.39197 0.05200
C 	C 	0.36373 0.16427 0.36657 -0.01500
H 	H 	0.33583 0.15407 0.35507 0.03000
C 	C 	0.38223 0.14007 0.36277 -0.06300
H 	H 	0.36613 0.11137 0.35307 0.04700
C 	C 	0.42443 0.15757 0.37307 -0.01800
H 	H 	0.43893 0.14287 0.36517 0.03100
C 	C 	0.44593 0.19717 0.39517 -0.07400
H 	H 	0.47433 0.20807 0.40537 0.04000
O 	O 	0.44563 0.64187 0.38987 -0.34900
Ag	Ag	0.20254 0.07568 0.81393 0.50600
P 	P 	0.25126 0.11563 0.74838 0.00700
P 	P 	0.51993 0.39632 0.73350 0.00100
C 	C 	0.32750 0.30750 0.75610 -0.03900
C 	C 	0.30610 0.26020 0.75010 0.05300
C 	C 	0.29260 0.23600 0.79270 -0.08500
H 	H 	0.29480 0.24960 0.82280 0.05400
C 	C 	0.27630 0.19300 0.79220 -0.02700
H 	H 	0.26800 0.17750 0.82170 0.01400
C 	C 	0.27170 0.17200 0.74750 -0.03900
C 	C 	0.28310 0.19540 0.70620 -0.02100
H 	H 	0.27940 0.18220 0.67540 0.04000
C 	C 	0.30070 0.23990 0.70910 -0.09100
H 	H 	0.30880 0.25570 0.67980 0.06100
C 	C 	0.37470 0.32870 0.75020 0.04900
C 	C 	0.39940 0.34040 0.79060 -0.08600
H 	H 	0.38710 0.33570 0.82200 0.05500
C 	C 	0.44360 0.35970 0.78530 -0.01900
H 	H 	0.46030 0.36650 0.81390 0.03300
C 	C 	0.46330 0.36900 0.74170 -0.03600
C 	C 	0.43890 0.35620 0.70150 -0.02000
H 	H 	0.45180 0.36050 0.67050 0.01500
C 	C 	0.39540 0.33670 0.70470 -0.08200
H 	H 	0.37910 0.32870 0.67580 0.05600
C 	C 	0.29750 0.11050 0.75280 -0.00500
C 	C 	0.29260 0.07010 0.75290 -0.08600
H 	H 	0.26530 0.04600 0.74930 0.05500
C 	C 	0.32770 0.06510 0.75820 -0.00400
H 	H 	0.32400 0.03750 0.75990 0.02200
C 	C 	0.36680 0.09870 0.76110 -0.07200
H 	H 	0.39050 0.09480 0.76430 0.04600
C 	C 	0.37240 0.13870 0.75950 -0.00800
H 	H 	0.40010 0.16240 0.76110 0.03100
C 	C 	0.33880 0.14460 0.75570 -0.07300
H 	H 	0.34330 0.17250 0.75490 0.05600
C 	C 	0.23300 0.09900 0.68700 0.00600
C 	C 	0.19250 0.09250 0.67600 -0.07600
H 	H 	0.17550 0.09540 0.69990 0.04700
C 	C 	0.17860 0.08120 0.62710 -0.00800
H 	H 	0.15150 0.07650 0.61850 0.03000
C 	C 	0.20220 0.07670 0.59230 -0.06800
H 	H 	0.19200 0.07010 0.56000 0.05600
C 	C 	0.24100 0.08190 0.60370 -0.01100
H 	H 	0.25730 0.07770 0.57980 0.03700
C 	C 	0.25650 0.09360 0.65190 -0.07200
H 	H 	0.28360 0.09780 0.65990 0.05800
C 	C 	0.53810 0.36920 0.77450 0.02400
C 	C 	0.53430 0.36970 0.82340 -0.10000
H 	H 	0.52340 0.38560 0.83830 0.06100
C 	C 	0.54670 0.34610 0.85130 0.02400
H 	H 	0.54320 0.34550 0.88560 0.01400
C 	C 	0.56290 0.32490 0.83280 -0.10100
H 	H 	0.57140 0.30970 0.85350 0.06200
C 	C 	0.56780 0.32420 0.78480 0.01600
H 	H 	0.57950 0.30840 0.77120 0.02100
C 	C 	0.55540 0.34750 0.75400 -0.10100
H 	H 	0.55910 0.34790 0.71980 0.05600
C 	C 	0.53960 0.44610 0.76430 -0.01000
C 	C 	0.51490 0.46160 0.77880 -0.07300
H 	H 	0.48520 0.44520 0.77470 0.05200
C 	C 	0.53280 0.50240 0.80010 -0.01500
H 	H 	0.51510 0.51260 0.81160 0.03000
C 	C 	0.57550 0.52660 0.80390 -0.06300
H 	H 	0.58810 0.55530 0.81360 0.04700
C 	C 	0.60020 0.50910 0.79360 -0.01700
H 	H 	0.62940 0.52380 0.80150 0.03100
C 	C 	0.58210 0.46950 0.77150 -0.07400
H 	H 	0.59960 0.45860 0.76130 0.04000
O 	O 	0.13710 0.02480 0.77680 -0.34900
Ag	Ag	0.86921 0.40901 0.14726 0.50600
P 	P 	0.91793 0.44896 0.08171 0.00700
P 	P 	0.18660 0.72965 0.06683 0.00100
C 	C 	0.99417 0.64083 0.08943 -0.03800
C 	C 	0.97277 0.59353 0.08343 0.05300
C 	C 	0.95927 0.56933 0.12603 -0.08500
H 	H 	0.96147 0.58293 0.15613 0.05400
C 	C 	0.94297 0.52633 0.12553 -0.02700
H 	H 	0.93467 0.51083 0.15503 0.01400
C 	C 	0.93837 0.50533 0.08083 -0.03900
C 	C 	0.94977 0.52873 0.03953 -0.02100
H 	H 	0.94607 0.51553 0.00873 0.04000
C 	C 	0.96737 0.57323 0.04243 -0.09000
H 	H 	0.97547 0.58903 0.01313 0.06100
C 	C 	0.04137 0.66203 0.08353 0.04800
C 	C 	0.06607 0.67373 0.12393 -0.08600
H 	H 	0.05377 0.66903 0.15533 0.05500
C 	C 	0.11027 0.69303 0.11863 -0.01900
H 	H 	0.12697 0.69983 0.14723 0.03300
C 	C 	0.12997 0.70233 0.07503 -0.03600
C 	C 	0.10557 0.68953 0.03483 -0.02100
H 	H 	0.11847 0.69383 0.00383 0.01600
C 	C 	0.06207 0.67003 0.03803 -0.08100
H 	H 	0.04577 0.66203 0.00913 0.05600
C 	C 	0.96417 0.44383 0.08613 -0.00400
C 	C 	0.95927 0.40343 0.08623 -0.08800
H 	H 	0.93197 0.37933 0.08263 0.05600
C 	C 	0.99437 0.39843 0.09153 -0.00200
H 	H 	0.99067 0.37083 0.09323 0.02100
C 	C 	0.03347 0.43203 0.09443 -0.07500
H 	H 	0.05717 0.42813 0.09763 0.04700
C 	C 	0.03907 0.47203 0.09283 -0.00600
H 	H 	0.06677 0.49573 0.09443 0.03100
C 	C 	0.00547 0.47793 0.08903 -0.07500
H 	H 	0.00997 0.50583 0.08823 0.05700
C 	C 	0.89967 0.43233 0.02033 0.00600
C 	C 	0.85917 0.42583 0.00933 -0.07600
H 	H 	0.84217 0.42873 0.03323 0.04800
C 	C 	0.84527 0.41453 0.96043 -0.00800
H 	H 	0.81817 0.40983 0.95183 0.03000
C 	C 	0.86887 0.41003 0.92563 -0.06800
H 	H 	0.85867 0.40343 0.89333 0.05600
C 	C 	0.90767 0.41523 0.93703 -0.01100
H 	H 	0.92397 0.41103 0.91313 0.03700
C 	C 	0.92317 0.42693 0.98523 -0.07200
H 	H 	0.95027 0.43113 0.99323 0.05800
C 	C 	0.20477 0.70253 0.10783 0.02400
C 	C 	0.20097 0.70303 0.15673 -0.10000
H 	H 	0.19007 0.71893 0.17163 0.06100
C 	C 	0.21337 0.67943 0.18463 0.02400
H 	H 	0.20987 0.67883 0.21893 0.01400
C 	C 	0.22957 0.65823 0.16613 -0.10100
H 	H 	0.23807 0.64303 0.18683 0.06200
C 	C 	0.23447 0.65753 0.11813 0.01600
H 	H 	0.24617 0.64173 0.10453 0.02100
C 	C 	0.22207 0.68083 0.08733 -0.10100
H 	H 	0.22577 0.68123 0.05313 0.05600
C 	C 	0.20627 0.77943 0.09763 -0.01000
C 	C 	0.18157 0.79493 0.11213 -0.07300
H 	H 	0.15187 0.77853 0.10803 0.05200
C 	C 	0.19947 0.83573 0.13343 -0.01500
H 	H 	0.18177 0.84593 0.14493 0.03000
C 	C 	0.24217 0.85993 0.13723 -0.06300
H 	H 	0.25477 0.88863 0.14693 0.04700
C 	C 	0.26687 0.84243 0.12693 -0.01700
H 	H 	0.29607 0.85713 0.13483 0.03100
C 	C 	0.24877 0.80283 0.10483 -0.07400
H 	H 	0.26627 0.79193 0.09463 0.04000
O 	O 	0.80377 0.35813 0.11013 -0.34900
Ag	Ag	0.53587 0.74235 0.48060 0.50600
P 	P 	0.58459 0.78230 0.41505 0.00700
P 	P 	0.85326 0.06299 0.40017 0.00200
C 	C 	0.66083 0.97417 0.42277 -0.04000
C 	C 	0.63943 0.92687 0.41677 0.05400
C 	C 	0.62593 0.90267 0.45937 -0.08500
H 	H 	0.62813 0.91627 0.48947 0.05500
C 	C 	0.60963 0.85967 0.45887 -0.02700
H 	H 	0.60133 0.84417 0.48837 0.01400
C 	C 	0.60503 0.83867 0.41417 -0.03900
C 	C 	0.61643 0.86207 0.37287 -0.02100
H 	H 	0.61273 0.84887 0.34207 0.04000
C 	C 	0.63403 0.90657 0.37577 -0.09100
H 	H 	0.64213 0.92237 0.34647 0.06100
C 	C 	0.70803 0.99537 0.41687 0.05200
C 	C 	0.73273 0.00707 0.45727 -0.08900
H 	H 	0.72043 0.00237 0.48867 0.05600
C 	C 	0.77693 0.02637 0.45197 -0.01700
H 	H 	0.79363 0.03317 0.48057 0.03200
C 	C 	0.79663 0.03567 0.40837 -0.03800
C 	C 	0.77223 0.02287 0.36817 -0.01800
H 	H 	0.78513 0.02717 0.33717 0.01400
C 	C 	0.72873 0.00337 0.37137 -0.08600
H 	H 	0.71243 0.99537 0.34247 0.05800
C 	C 	0.63083 0.77717 0.41947 -0.00500
C 	C 	0.62593 0.73677 0.41957 -0.08600
H 	H 	0.59863 0.71267 0.41597 0.05500
C 	C 	0.66103 0.73177 0.42487 -0.00400
H 	H 	0.65733 0.70417 0.42657 0.02200
C 	C 	0.70013 0.76537 0.42777 -0.07200
H 	H 	0.72383 0.76147 0.43097 0.04600
C 	C 	0.70573 0.80537 0.42617 -0.00800
H 	H 	0.73343 0.82907 0.42777 0.03100
C 	C 	0.67213 0.81127 0.42237 -0.07300
H 	H 	0.67663 0.83917 0.42157 0.05600
C 	C 	0.56633 0.76567 0.35367 0.00600
C 	C 	0.52583 0.75917 0.34267 -0.07600
H 	H 	0.50883 0.76207 0.36657 0.04800
C 	C 	0.51193 0.74787 0.29377 -0.00800
H 	H 	0.48483 0.74317 0.28517 0.03000
C 	C 	0.53553 0.74337 0.25897 -0.06800
H 	H 	0.52533 0.73677 0.22667 0.05600
C 	C 	0.57433 0.74857 0.27037 -0.01100
H 	H 	0.59063 0.74437 0.24647 0.03700
C 	C 	0.58983 0.76027 0.31857 -0.07200
H 	H 	0.61693 0.76447 0.32657 0.05800
C 	C 	0.87143 0.03587 0.44117 0.02400
C 	C 	0.86763 0.03637 0.49007 -0.09900
H 	H 	0.85673 0.05227 0.50497 0.06100
C 	C 	0.88003 0.01277 0.51797 0.02200
H 	H 	0.87653 0.01217 0.55227 0.01500
C 	C 	0.89623 0.99157 0.49947 -0.10000
H 	H 	0.90473 0.97637 0.52017 0.06200
C 	C 	0.90113 0.99087 0.45147 0.01500
H 	H 	0.91283 0.97507 0.43787 0.02100
C 	C 	0.88873 0.01417 0.42067 -0.10100
H 	H 	0.89243 0.01457 0.38647 0.05600
C 	C 	0.87293 0.11277 0.43097 -0.01000
C 	C 	0.84823 0.12827 0.44547 -0.07200
H 	H 	0.81853 0.11187 0.44137 0.05200
C 	C 	0.86613 0.16907 0.46677 -0.01500
H 	H 	0.84843 0.17927 0.47827 0.03000
C 	C 	0.90883 0.19327 0.47057 -0.06300
H 	H 	0.92143 0.22197 0.48027 0.04700
C 	C 	0.93353 0.17577 0.46027 -0.01800
H 	H 	0.96273 0.19047 0.46817 0.03100
C 	C 	0.91543 0.13617 0.43817 -0.07400
H 	H 	0.93293 0.12527 0.42797 0.04000
O 	O 	0.47043 0.69147 0.44347 -0.34900
Ag	Ag	0.87314 0.79746 0.81393 0.50600
P 	P 	0.86437 0.74874 0.74838 0.00700
P 	P 	0.87639 0.48007 0.73350 0.00100
C 	C 	0.98000 0.67250 0.75610 -0.03800
C 	C 	0.95410 0.69390 0.75010 0.05300
C 	C 	0.94340 0.70740 0.79270 -0.08500
H 	H 	0.95480 0.70520 0.82280 0.05400
C 	C 	0.91670 0.72370 0.79220 -0.02700
H 	H 	0.90950 0.73200 0.82170 0.01400
C 	C 	0.90030 0.72830 0.74750 -0.03900
C 	C 	0.91230 0.71690 0.70620 -0.02100
H 	H 	0.90280 0.72060 0.67540 0.04000
C 	C 	0.93920 0.69930 0.70910 -0.09100
H 	H 	0.94690 0.69120 0.67980 0.06100
C 	C 	0.95400 0.62530 0.75020 0.04900
C 	C 	0.94100 0.60060 0.79060 -0.08600
H 	H 	0.94860 0.61290 0.82200 0.05500
C 	C 	0.91610 0.55640 0.78530 -0.01900
H 	H 	0.90620 0.53970 0.81390 0.03300
C 	C 	0.90570 0.53670 0.74170 -0.03600
C 	C 	0.91730 0.56110 0.70150 -0.02000
H 	H 	0.90870 0.54820 0.67050 0.01500
C 	C 	0.94130 0.60460 0.70470 -0.08200
H 	H 	0.94960 0.62090 0.67580 0.05600
C 	C 	0.81300 0.70250 0.75280 -0.00500
C 	C 	0.77750 0.70740 0.75290 -0.08600
H 	H 	0.78070 0.73470 0.74930 0.05500
C 	C 	0.73740 0.67230 0.75820 -0.00400
H 	H 	0.71350 0.67600 0.75990 0.02200
C 	C 	0.73190 0.63320 0.76110 -0.07200
H 	H 	0.70430 0.60950 0.76430 0.04600
C 	C 	0.76630 0.62760 0.75950 -0.00800
H 	H 	0.76230 0.59990 0.76110 0.03100
C 	C 	0.80580 0.66120 0.75570 -0.07300
H 	H 	0.82920 0.65670 0.75490 0.05600
C 	C 	0.86600 0.76700 0.68700 0.00600
C 	C 	0.90000 0.80750 0.67600 -0.07600
H 	H 	0.91990 0.82450 0.69990 0.04800
C 	C 	0.90260 0.82140 0.62710 -0.00800
H 	H 	0.92500 0.84850 0.61850 0.03100
C 	C 	0.87450 0.79780 0.59230 -0.06800
H 	H 	0.87810 0.80800 0.56000 0.05600
C 	C 	0.84090 0.75900 0.60370 -0.01100
H 	H 	0.82040 0.74270 0.57980 0.03700
C 	C 	0.83710 0.74350 0.65190 -0.07200
H 	H 	0.81420 0.71640 0.65990 0.05800
C 	C 	0.83110 0.46190 0.77450 0.02400
C 	C 	0.83540 0.46570 0.82340 -0.10000
H 	H 	0.86220 0.47660 0.83830 0.06100
C 	C 	0.79940 0.45330 0.85130 0.02400
H 	H 	0.80230 0.45680 0.88560 0.01400
C 	C 	0.76200 0.43710 0.83280 -0.10100
H 	H 	0.73830 0.42860 0.85350 0.06200
C 	C 	0.75640 0.43220 0.78480 0.01500
H 	H 	0.72890 0.42050 0.77120 0.02100
C 	C 	0.79210 0.44460 0.75400 -0.10100
H 	H 	0.78880 0.44090 0.71980 0.05600
C 	C 	0.90650 0.46040 0.76430 -0.01000
C 	C 	0.94670 0.48510 0.77880 -0.07300
H 	H 	0.96000 0.51480 0.77470 0.05300
C 	C 	0.96960 0.46720 0.80010 -0.01500
H 	H 	0.99750 0.48490 0.81160 0.03000
C 	C 	0.95110 0.42450 0.80390 -0.06300
H 	H 	0.96720 0.41190 0.81360 0.04700
C 	C 	0.90890 0.39980 0.79360 -0.01700
H 	H 	0.89440 0.37060 0.80150 0.03100
C 	C 	0.88740 0.41790 0.77150 -0.07400
H 	H 	0.85900 0.40040 0.76130 0.04000
O 	O 	0.88770 0.86290 0.77680 -0.34900
Ag	Ag	0.53981 0.13079 0.14726 0.50600
P 	P 	0.53104 0.08207 0.08171 0.00800
P 	P 	0.54306 0.81340 0.06683 0.00100
C 	C 	0.64667 0.00583 0.08943 -0.04000
C 	C 	0.62077 0.02723 0.08343 0.05300
C 	C 	0.61007 0.04073 0.12603 -0.08500
H 	H 	0.62147 0.03853 0.15613 0.05400
C 	C 	0.58337 0.05703 0.12553 -0.02700
H 	H 	0.57617 0.06533 0.15503 0.01400
C 	C 	0.56697 0.06163 0.08083 -0.03900
C 	C 	0.57897 0.05023 0.03953 -0.02100
H 	H 	0.56947 0.05393 0.00873 0.04000
C 	C 	0.60587 0.03263 0.04243 -0.09100
H 	H 	0.61357 0.02453 0.01313 0.06100
C 	C 	0.62067 0.95863 0.08353 0.05000
C 	C 	0.60767 0.93393 0.12393 -0.08700
H 	H 	0.61527 0.94623 0.15533 0.05600
C 	C 	0.58277 0.88973 0.11863 -0.01800
H 	H 	0.57287 0.87303 0.14723 0.03300
C 	C 	0.57237 0.87003 0.07503 -0.03700
C 	C 	0.58397 0.89443 0.03483 -0.02000
H 	H 	0.57537 0.88153 0.00383 0.01500
C 	C 	0.60797 0.93793 0.03803 -0.08300
H 	H 	0.61627 0.95423 0.00913 0.05700
C 	C 	0.47967 0.03583 0.08613 -0.00700
C 	C 	0.44417 0.04073 0.08623 -0.08400
H 	H 	0.44737 0.06803 0.08263 0.05500
C 	C 	0.40407 0.00563 0.09153 -0.00700
H 	H 	0.38017 0.00933 0.09323 0.02300
C 	C 	0.39857 0.96653 0.09443 -0.06900
H 	H 	0.37097 0.94283 0.09763 0.04500
C 	C 	0.43297 0.96093 0.09283 -0.01100
H 	H 	0.42897 0.93323 0.09443 0.03200
C 	C 	0.47247 0.99453 0.08903 -0.07000
H 	H 	0.49587 0.99003 0.08823 0.05500
C 	C 	0.53267 0.10033 0.02033 0.00600
C 	C 	0.56667 0.14083 0.00933 -0.07600
H 	H 	0.58657 0.15783 0.03323 0.04700
C 	C 	0.56927 0.15473 0.96043 -0.00800
H 	H 	0.59167 0.18183 0.95183 0.03000
C 	C 	0.54117 0.13113 0.92563 -0.06800
H 	H 	0.54477 0.14133 0.89333 0.05600
C 	C 	0.50757 0.09233 0.93703 -0.01100
H 	H 	0.48707 0.07603 0.91313 0.03700
C 	C 	0.50377 0.07683 0.98523 -0.07100
H 	H 	0.48087 0.04973 0.99323 0.05800
C 	C 	0.49777 0.79523 0.10783 0.02400
C 	C 	0.50207 0.79903 0.15673 -0.10000
H 	H 	0.52887 0.80993 0.17163 0.06100
C 	C 	0.46607 0.78663 0.18463 0.02400
H 	H 	0.46897 0.79013 0.21893 0.01400
C 	C 	0.42867 0.77043 0.16613 -0.10100
H 	H 	0.40497 0.76193 0.18683 0.06200
C 	C 	0.42307 0.76553 0.11813 0.01600
H 	H 	0.39557 0.75383 0.10453 0.02100
C 	C 	0.45877 0.77793 0.08733 -0.10100
H 	H 	0.45547 0.77423 0.05313 0.05600
C 	C 	0.57317 0.79373 0.09763 -0.01000
C 	C 	0.61337 0.81843 0.11213 -0.07300
H 	H 	0.62667 0.84813 0.10803 0.05200
C 	C 	0.63627 0.80053 0.13343 -0.01500
H 	H 	0.66417 0.81823 0.14493 0.03000
C 	C 	0.61777 0.75783 0.13723 -0.06300
H 	H 	0.63387 0.74523 0.14693 0.04700
C 	C 	0.57557 0.73313 0.12693 -0.01700
H 	H 	0.56107 0.70393 0.13483 0.03100
C 	C 	0.55407 0.75123 0.10483 -0.07400
H 	H 	0.52567 0.73373 0.09463 0.04000
O 	O 	0.55437 0.19623 0.11013 -0.34900
Ag	Ag	0.20647 0.46413 0.48060 0.50600
P 	P 	0.19770 0.41541 0.41505 0.00700
P 	P 	0.20972 0.14674 0.40017 0.00100
C 	C 	0.31333 0.33917 0.42277 -0.03900
C 	C 	0.28743 0.36057 0.41677 0.05300
C 	C 	0.27673 0.37407 0.45937 -0.08500
H 	H 	0.28813 0.37187 0.48947 0.05400
C 	C 	0.25003 0.39037 0.45887 -0.02700
H 	H 	0.24283 0.39867 0.48837 0.01400
C 	C 	0.23363 0.39497 0.41417 -0.03900
C 	C 	0.24563 0.38357 0.37287 -0.02100
H 	H 	0.23613 0.38727 0.34207 0.04000
C 	C 	0.27253 0.36597 0.37577 -0.09100
H 	H 	0.28023 0.35787 0.34647 0.06100
C 	C 	0.28733 0.29197 0.41687 0.04900
C 	C 	0.27433 0.26727 0.45727 -0.08600
H 	H 	0.28193 0.27957 0.48867 0.05500
C 	C 	0.24943 0.22307 0.45197 -0.01900
H 	H 	0.23953 0.20637 0.48057 0.03300
C 	C 	0.23903 0.20337 0.40837 -0.03600
C 	C 	0.25063 0.22777 0.36817 -0.02000
H 	H 	0.24203 0.21487 0.33717 0.01500
C 	C 	0.27463 0.27127 0.37137 -0.08200
H 	H 	0.28293 0.28757 0.34247 0.05600
C 	C 	0.14633 0.36917 0.41947 -0.00500
C 	C 	0.11083 0.37407 0.41957 -0.08600
H 	H 	0.11403 0.40137 0.41597 0.05500
C 	C 	0.07073 0.33897 0.42487 -0.00400
H 	H 	0.04683 0.34267 0.42657 0.02200
C 	C 	0.06523 0.29987 0.42777 -0.07200
H 	H 	0.03763 0.27617 0.43097 0.04600
C 	C 	0.09963 0.29427 0.42617 -0.00800
H 	H 	0.09563 0.26657 0.42777 0.03100
C 	C 	0.13913 0.32787 0.42237 -0.07300
H 	H 	0.16253 0.32337 0.42157 0.05600
C 	C 	0.19933 0.43367 0.35367 0.00600
C 	C 	0.23333 0.47417 0.34267 -0.07600
H 	H 	0.25323 0.49117 0.36657 0.04800
C 	C 	0.23593 0.48807 0.29377 -0.00800
H 	H 	0.25833 0.51517 0.28517 0.03000
C 	C 	0.20783 0.46447 0.25897 -0.06800
H 	H 	0.21143 0.47467 0.22667 0.05600
C 	C 	0.17423 0.42567 0.27037 -0.01100
H 	H 	0.15373 0.40937 0.24647 0.03700
C 	C 	0.17043 0.41017 0.31857 -0.07200
H 	H 	0.14753 0.38307 0.32657 0.05800
C 	C 	0.16443 0.12857 0.44117 0.02400
C 	C 	0.16873 0.13237 0.49007 -0.10000
H 	H 	0.19553 0.14327 0.50497 0.06100
C 	C 	0.13273 0.11997 0.51797 0.02400
H 	H 	0.13563 0.12347 0.55227 0.01400
C 	C 	0.09533 0.10377 0.49947 -0.10100
H 	H 	0.07163 0.09527 0.52017 0.06200
C 	C 	0.08973 0.09887 0.45147 0.01500
H 	H 	0.06223 0.08717 0.43787 0.02100
C 	C 	0.12543 0.11127 0.42067 -0.10100
H 	H 	0.12213 0.10757 0.38647 0.05600
C 	C 	0.23983 0.12707 0.43097 -0.01000
C 	C 	0.28003 0.15177 0.44547 -0.07300
H 	H 	0.29333 0.18147 0.44137 0.05200
C 	C 	0.30293 0.13387 0.46677 -0.01500
H 	H 	0.33083 0.15157 0.47827 0.03000
C 	C 	0.28443 0.09117 0.47057 -0.06300
H 	H 	0.30053 0.07857 0.48027 0.04700
C 	C 	0.24223 0.06647 0.46027 -0.01700
H 	H 	0.22773 0.03727 0.46817 0.03100
C 	C 	0.22073 0.08457 0.43817 -0.07400
H 	H 	0.19233 0.06707 0.42797 0.04000
O 	O 	0.22103 0.52957 0.44347 -0.34900
Ag	Ag	0.92432 0.12686 0.81393 0.50600
P 	P 	0.88437 0.13563 0.74838 0.00700
P 	P 	0.60368 0.12361 0.73350 0.00100
C 	C 	0.69250 0.02000 0.75610 -0.04000
C 	C 	0.73980 0.04590 0.75010 0.05300
C 	C 	0.76400 0.05660 0.79270 -0.08500
H 	H 	0.75040 0.04520 0.82280 0.05400
C 	C 	0.80700 0.08330 0.79220 -0.02700
H 	H 	0.82250 0.09050 0.82170 0.01400
C 	C 	0.82800 0.09970 0.74750 -0.03900
C 	C 	0.80460 0.08770 0.70620 -0.02100
H 	H 	0.81780 0.09720 0.67540 0.04000
C 	C 	0.76010 0.06080 0.70910 -0.09100
H 	H 	0.74430 0.05310 0.67980 0.06100
C 	C 	0.67130 0.04600 0.75020 0.04900
C 	C 	0.65960 0.05900 0.79060 -0.08700
H 	H 	0.66430 0.05140 0.82200 0.05500
C 	C 	0.64030 0.08390 0.78530 -0.01900
H 	H 	0.63350 0.09380 0.81390 0.03300
C 	C 	0.63100 0.09430 0.74170 -0.03600
C 	C 	0.64380 0.08270 0.70150 -0.02000
H 	H 	0.63950 0.09130 0.67050 0.01500
C 	C 	0.66330 0.05870 0.70470 -0.08200
H 	H 	0.67130 0.05040 0.67580 0.05600
C 	C 	0.88950 0.18700 0.75280 -0.00500
C 	C 	0.92990 0.22250 0.75290 -0.08600
H 	H 	0.95400 0.21930 0.74930 0.05500
C 	C 	0.93490 0.26260 0.75820 -0.00400
H 	H 	0.96250 0.28650 0.75990 0.02200
C 	C 	0.90130 0.26810 0.76110 -0.07200
H 	H 	0.90520 0.29570 0.76430 0.04600
C 	C 	0.86130 0.23370 0.75950 -0.00800
H 	H 	0.83760 0.23770 0.76110 0.03200
C 	C 	0.85540 0.19420 0.75570 -0.07300
H 	H 	0.82750 0.17080 0.75490 0.05600
C 	C 	0.90100 0.13400 0.68700 0.00600
C 	C 	0.90750 0.10000 0.67600 -0.07600
H 	H 	0.90460 0.08010 0.69990 0.04700
C 	C 	0.91880 0.09740 0.62710 -0.00800
H 	H 	0.92350 0.07500 0.61850 0.03000
C 	C 	0.92330 0.12550 0.59230 -0.06800
H 	H 	0.92990 0.12190 0.56000 0.05600
C 	C 	0.91810 0.15910 0.60370 -0.01100
H 	H 	0.92230 0.17960 0.57980 0.03700
C 	C 	0.90640 0.16290 0.65190 -0.07200
H 	H 	0.90220 0.18580 0.65990 0.05800
C 	C 	0.63080 0.16890 0.77450 0.02400
C 	C 	0.63030 0.16460 0.82340 -0.10000
H 	H 	0.61440 0.13780 0.83830 0.06100
C 	C 	0.65390 0.20060 0.85130 0.02400
H 	H 	0.65450 0.19770 0.88560 0.01400
C 	C 	0.67510 0.23800 0.83280 -0.10100
H 	H 	0.69030 0.26170 0.85350 0.06200
C 	C 	0.67580 0.24360 0.78480 0.01600
H 	H 	0.69160 0.27110 0.77120 0.02100
C 	C 	0.65250 0.20790 0.75400 -0.10100
H 	H 	0.65210 0.21120 0.71980 0.05600
C 	C 	0.55390 0.09350 0.76430 -0.01000
C 	C 	0.53840 0.05330 0.77880 -0.07300
H 	H 	0.55480 0.04000 0.77470 0.05200
C 	C 	0.49760 0.03040 0.80010 -0.01500
H 	H 	0.48740 0.00250 0.81160 0.03000
C 	C 	0.47340 0.04890 0.80390 -0.06300
H 	H 	0.44470 0.03280 0.81360 0.04700
C 	C 	0.49090 0.09110 0.79360 -0.01800
H 	H 	0.47620 0.10560 0.80150 0.03100
C 	C 	0.53050 0.11260 0.77150 -0.07400
H 	H 	0.54140 0.14100 0.76130 0.04000
O 	O 	0.97520 0.11230 0.77680 -0.34800
Ag	Ag	0.59099 0.46019 0.14726 0.50600
P 	P 	0.55104 0.46896 0.08171 0.00700
P 	P 	0.27035 0.45694 0.06683 0.00100
C 	C 	0.35917 0.35333 0.08943 -0.03900
C 	C 	0.40647 0.37923 0.08343 0.05300
C 	C 	0.43067 0.38993 0.12603 -0.08500
H 	H 	0.41707 0.37853 0.15613 0.05400
C 	C 	0.47367 0.41663 0.12553 -0.02700
H 	H 	0.48917 0.42383 0.15503 0.01400
C 	C 	0.49467 0.43303 0.08083 -0.03900
C 	C 	0.47127 0.42103 0.03953 -0.02100
H 	H 	0.48447 0.43053 0.00873 0.04000
C 	C 	0.42677 0.39413 0.04243 -0.09100
H 	H 	0.41097 0.38643 0.01313 0.06100
C 	C 	0.33797 0.37933 0.08353 0.04900
C 	C 	0.32627 0.39233 0.12393 -0.08600
H 	H 	0.33097 0.38473 0.15533 0.05500
C 	C 	0.30697 0.41723 0.11863 -0.01900
H 	H 	0.30017 0.42713 0.14723 0.03300
C 	C 	0.29767 0.42763 0.07503 -0.03600
C 	C 	0.31047 0.41603 0.03483 -0.02000
H 	H 	0.30617 0.42463 0.00383 0.01500
C 	C 	0.32997 0.39203 0.03803 -0.08200
H 	H 	0.33797 0.38373 0.00913 0.05600
C 	C 	0.55617 0.52033 0.08613 -0.00500
C 	C 	0.59657 0.55583 0.08623 -0.08600
H 	H 	0.62067 0.55263 0.08263 0.05500
C 	C 	0.60157 0.59593 0.09153 -0.00400
H 	H 	0.62917 0.61983 0.09323 0.02200
C 	C 	0.56797 0.60143 0.09443 -0.07200
H 	H 	0.57187 0.62903 0.09763 0.04600
C 	C 	0.52797 0.56703 0.09283 -0.00800
H 	H 	0.50427 0.57103 0.09443 0.03200
C 	C 	0.52207 0.52753 0.08903 -0.07300
H 	H 	0.49417 0.50413 0.08823 0.05600
C 	C 	0.56767 0.46733 0.02033 0.00600
C 	C 	0.57417 0.43333 0.00933 -0.07600
H 	H 	0.57127 0.41343 0.03323 0.04800
C 	C 	0.58547 0.43073 0.96043 -0.00800
H 	H 	0.59017 0.40833 0.95183 0.03000
C 	C 	0.58997 0.45883 0.92563 -0.06800
H 	H 	0.59657 0.45523 0.89333 0.05600
C 	C 	0.58477 0.49243 0.93703 -0.01100
H 	H 	0.58897 0.51293 0.91313 0.03700
C 	C 	0.57307 0.49623 0.98523 -0.07200
H 	H 	0.56887 0.51913 0.99323 0.05800
C 	C 	0.29747 0.50223 0.10783 0.02400
C 	C 	0.29697 0.49793 0.15673 -0.10000
H 	H 	0.28107 0.47113 0.17163 0.06100
C 	C 	0.32057 0.53393 0.18463 0.02400
H 	H 	0.32117 0.53103 0.21893 0.01400
C 	C 	0.34177 0.57133 0.16613 -0.10100
H 	H 	0.35697 0.59503 0.18683 0.06200
C 	C 	0.34247 0.57693 0.11813 0.01600
H 	H 	0.35827 0.60443 0.10453 0.02100
C 	C 	0.31917 0.54123 0.08733 -0.10100
H 	H 	0.31877 0.54453 0.05313 0.05600
C 	C 	0.22057 0.42683 0.09763 -0.01000
C 	C 	0.20507 0.38663 0.11213 -0.07300
H 	H 	0.22147 0.37333 0.10803 0.05200
C 	C 	0.16427 0.36373 0.13343 -0.01500
H 	H 	0.15407 0.33583 0.14493 0.03000
C 	C 	0.14007 0.38223 0.13723 -0.06300
H 	H 	0.11137 0.36613 0.14693 0.04700
C 	C 	0.15757 0.42443 0.12693 -0.01700
H 	H 	0.14287 0.43893 0.13483 0.03100
C 	C 	0.19717 0.44593 0.10483 -0.07400
H 	H 	0.20807 0.47433 0.09463 0.04000
O 	O 	0.64187 0.44563 0.11013 -0.34900
Ag	Ag	0.25765 0.79353 0.48060 0.50600
P 	P 	0.21770 0.80230 0.41505 0.00700
P 	P 	0.93701 0.79028 0.40017 0.00100
C 	C 	0.02583 0.68667 0.42277 -0.03700
C 	C 	0.07313 0.71257 0.41677 0.05200
C 	C 	0.09733 0.72327 0.45937 -0.08400
H 	H 	0.08373 0.71187 0.48947 0.05400
C 	C 	0.14033 0.74997 0.45887 -0.02700
H 	H 	0.15583 0.75717 0.48837 0.01400
C 	C 	0.16133 0.76637 0.41417 -0.03900
C 	C 	0.13793 0.75437 0.37287 -0.02100
H 	H 	0.15113 0.76387 0.34207 0.04000
C 	C 	0.09343 0.72747 0.37577 -0.09000
H 	H 	0.07763 0.71977 0.34647 0.06000
C 	C 	0.00463 0.71267 0.41687 0.04600
C 	C 	0.99293 0.72567 0.45727 -0.08400
H 	H 	0.99763 0.71807 0.48867 0.05500
C 	C 	0.97363 0.75057 0.45197 -0.02000
H 	H 	0.96683 0.76047 0.48057 0.03300
C 	C 	0.96433 0.76097 0.40837 -0.03500
C 	C 	0.97713 0.74937 0.36817 -0.02200
H 	H 	0.97283 0.75797 0.33717 0.01600
C 	C 	0.99663 0.72537 0.37137 -0.07800
H 	H 	0.00463 0.71707 0.34247 0.05500
C 	C 	0.22283 0.85367 0.41947 -0.00500
C 	C 	0.26323 0.88917 0.41957 -0.08600
H 	H 	0.28733 0.88597 0.41597 0.05500
C 	C 	0.26823 0.92927 0.42487 -0.00400
H 	H 	0.29583 0.95317 0.42657 0.02200
C 	C 	0.23463 0.93477 0.42777 -0.07200
H 	H 	0.23853 0.96237 0.43097 0.04600
C 	C 	0.19463 0.90037 0.42617 -0.00800
H 	H 	0.17093 0.90437 0.42777 0.03200
C 	C 	0.18873 0.86087 0.42237 -0.07300
H 	H 	0.16083 0.83747 0.42157 0.05600
C 	C 	0.23433 0.80067 0.35367 0.00600
C 	C 	0.24083 0.76667 0.34267 -0.07600
H 	H 	0.23793 0.74677 0.36657 0.04800
C 	C 	0.25213 0.76407 0.29377 -0.00800
H 	H 	0.25683 0.74167 0.28517 0.03000
C 	C 	0.25663 0.79217 0.25897 -0.06800
H 	H 	0.26323 0.78857 0.22667 0.05600
C 	C 	0.25143 0.82577 0.27037 -0.01100
H 	H 	0.25563 0.84627 0.24647 0.03700
C 	C 	0.23973 0.82957 0.31857 -0.07200
H 	H 	0.23553 0.85247 0.32657 0.05800
C 	C 	0.96413 0.83557 0.44117 0.02400
C 	C 	0.96363 0.83127 0.49007 -0.10100
H 	H 	0.94773 0.80447 0.50497 0.06100
C 	C 	0.98723 0.86727 0.51797 0.02500
H 	H 	0.98783 0.86437 0.55227 0.01400
C 	C 	0.00843 0.90467 0.49947 -0.10300
H 	H 	0.02363 0.92837 0.52017 0.06300
C 	C 	0.00913 0.91027 0.45147 0.01600
H 	H 	0.02493 0.93777 0.43787 0.02100
C 	C 	0.98583 0.87457 0.42067 -0.10100
H 	H 	0.98543 0.87787 0.38647 0.05600
C 	C 	0.88723 0.76017 0.43097 -0.01000
C 	C 	0.87173 0.71997 0.44547 -0.07300
H 	H 	0.88813 0.70667 0.44137 0.05200
C 	C 	0.83093 0.69707 0.46677 -0.01500
H 	H 	0.82073 0.66917 0.47827 0.03000
C 	C 	0.80673 0.71557 0.47057 -0.06300
H 	H 	0.77803 0.69947 0.48027 0.04700
C 	C 	0.82423 0.75777 0.46027 -0.01700
H 	H 	0.80953 0.77227 0.46817 0.03100
C 	C 	0.86383 0.77927 0.43817 -0.07400
H 	H 	0.87473 0.80767 0.42797 0.04000
O 	O 	0.30853 0.77897 0.44347 -0.34900
Ag	Ag	0.92432 0.79746 0.31393 0.50600
P 	P 	0.88437 0.74874 0.24838 0.00700
P 	P 	0.60368 0.48007 0.23350 0.00100
C 	C 	0.69250 0.67250 0.25610 -0.03900
C 	C 	0.73980 0.69390 0.25010 0.05300
C 	C 	0.76400 0.70740 0.29270 -0.08500
H 	H 	0.75040 0.70520 0.32280 0.05400
C 	C 	0.80700 0.72370 0.29220 -0.02700
H 	H 	0.82250 0.73200 0.32170 0.01400
C 	C 	0.82800 0.72830 0.24750 -0.03900
C 	C 	0.80460 0.71690 0.20620 -0.02100
H 	H 	0.81780 0.72060 0.17540 0.04000
C 	C 	0.76010 0.69930 0.20910 -0.09100
H 	H 	0.74430 0.69120 0.17980 0.06100
C 	C 	0.67130 0.62530 0.25020 0.04900
C 	C 	0.65960 0.60060 0.29060 -0.08600
H 	H 	0.66430 0.61290 0.32200 0.05500
C 	C 	0.64030 0.55640 0.28530 -0.01900
H 	H 	0.63350 0.53970 0.31390 0.03300
C 	C 	0.63100 0.53670 0.24170 -0.03600
C 	C 	0.64380 0.56110 0.20150 -0.02000
H 	H 	0.63950 0.54820 0.17050 0.01500
C 	C 	0.66330 0.60460 0.20470 -0.08200
H 	H 	0.67130 0.62090 0.17580 0.05600
C 	C 	0.88950 0.70250 0.25280 -0.00500
C 	C 	0.92990 0.70740 0.25290 -0.08600
H 	H 	0.95400 0.73470 0.24930 0.05500
C 	C 	0.93490 0.67230 0.25820 -0.00400
H 	H 	0.96250 0.67600 0.25990 0.02200
C 	C 	0.90130 0.63320 0.26110 -0.07200
H 	H 	0.90520 0.60950 0.26430 0.04600
C 	C 	0.86130 0.62760 0.25950 -0.00800
H 	H 	0.83760 0.59990 0.26110 0.03200
C 	C 	0.85540 0.66120 0.25570 -0.07300
H 	H 	0.82750 0.65670 0.25490 0.05600
C 	C 	0.90100 0.76700 0.18700 0.00600
C 	C 	0.90750 0.80750 0.17600 -0.07600
H 	H 	0.90460 0.82450 0.19990 0.04800
C 	C 	0.91880 0.82140 0.12710 -0.00800
H 	H 	0.92350 0.84850 0.11850 0.03100
C 	C 	0.92330 0.79780 0.09230 -0.06800
H 	H 	0.92990 0.80800 0.06000 0.05600
C 	C 	0.91810 0.75900 0.10370 -0.01100
H 	H 	0.92230 0.74270 0.07980 0.03700
C 	C 	0.90640 0.74350 0.15190 -0.07200
H 	H 	0.90220 0.71640 0.15990 0.05800
C 	C 	0.63080 0.46190 0.27450 0.02400
C 	C 	0.63030 0.46570 0.32340 -0.10000
H 	H 	0.61440 0.47660 0.33830 0.06100
C 	C 	0.65390 0.45330 0.35130 0.02400
H 	H 	0.65450 0.45680 0.38560 0.01400
C 	C 	0.67510 0.43710 0.33280 -0.10100
H 	H 	0.69030 0.42860 0.35350 0.06200
C 	C 	0.67580 0.43220 0.28480 0.01600
H 	H 	0.69160 0.42050 0.27120 0.02100
C 	C 	0.65250 0.44460 0.25400 -0.10100
H 	H 	0.65210 0.44090 0.21980 0.05600
C 	C 	0.55390 0.46040 0.26430 -0.01000
C 	C 	0.53840 0.48510 0.27880 -0.07300
H 	H 	0.55480 0.51480 0.27470 0.05200
C 	C 	0.49760 0.46720 0.30010 -0.01500
H 	H 	0.48740 0.48490 0.31160 0.03000
C 	C 	0.47340 0.42450 0.30390 -0.06300
H 	H 	0.44470 0.41190 0.31360 0.04700
C 	C 	0.49090 0.39980 0.29360 -0.01700
H 	H 	0.47620 0.37060 0.30150 0.03100
C 	C 	0.53050 0.41790 0.27150 -0.07400
H 	H 	0.54140 0.40040 0.26130 0.04000
O 	O 	0.97520 0.86290 0.27680 -0.34800
Ag	Ag	0.59099 0.13079 0.64726 0.50600
P 	P 	0.55104 0.08207 0.58171 0.00800
P 	P 	0.27035 0.81340 0.56683 0.00100
C 	C 	0.35917 0.00583 0.58943 -0.04000
C 	C 	0.40647 0.02723 0.58343 0.05300
C 	C 	0.43067 0.04073 0.62603 -0.08500
H 	H 	0.41707 0.03853 0.65613 0.05400
C 	C 	0.47367 0.05703 0.62553 -0.02700
H 	H 	0.48917 0.06533 0.65503 0.01400
C 	C 	0.49467 0.06163 0.58083 -0.03900
C 	C 	0.47127 0.05023 0.53953 -0.02100
H 	H 	0.48447 0.05393 0.50873 0.04000
C 	C 	0.42677 0.03263 0.54243 -0.09100
H 	H 	0.41097 0.02453 0.51313 0.06100
C 	C 	0.33797 0.95863 0.58353 0.05000
C 	C 	0.32627 0.93393 0.62393 -0.08700
H 	H 	0.33097 0.94623 0.65533 0.05600
C 	C 	0.30697 0.88973 0.61863 -0.01800
H 	H 	0.30017 0.87303 0.64723 0.03300
C 	C 	0.29767 0.87003 0.57503 -0.03600
C 	C 	0.31047 0.89443 0.53483 -0.02000
H 	H 	0.30617 0.88153 0.50383 0.01500
C 	C 	0.32997 0.93793 0.53803 -0.08200
H 	H 	0.33797 0.95423 0.50913 0.05700
C 	C 	0.55617 0.03583 0.58613 -0.00700
C 	C 	0.59657 0.04073 0.58623 -0.08400
H 	H 	0.62067 0.06803 0.58263 0.05500
C 	C 	0.60157 0.00563 0.59153 -0.00700
H 	H 	0.62917 0.00933 0.59323 0.02300
C 	C 	0.56797 0.96653 0.59443 -0.06900
H 	H 	0.57187 0.94283 0.59763 0.04500
C 	C 	0.52797 0.96093 0.59283 -0.01100
H 	H 	0.50427 0.93323 0.59443 0.03200
C 	C 	0.52207 0.99453 0.58903 -0.07100
H 	H 	0.49417 0.99003 0.58823 0.05500
C 	C 	0.56767 0.10033 0.52033 0.00600
C 	C 	0.57417 0.14083 0.50933 -0.07600
H 	H 	0.57127 0.15783 0.53323 0.04700
C 	C 	0.58547 0.15473 0.46043 -0.00800
H 	H 	0.59017 0.18183 0.45183 0.03000
C 	C 	0.58997 0.13113 0.42563 -0.06800
H 	H 	0.59657 0.14133 0.39333 0.05600
C 	C 	0.58477 0.09233 0.43703 -0.01100
H 	H 	0.58897 0.07603 0.41313 0.03700
C 	C 	0.57307 0.07683 0.48523 -0.07200
H 	H 	0.56887 0.04973 0.49323 0.05800
C 	C 	0.29747 0.79523 0.60783 0.02400
C 	C 	0.29697 0.79903 0.65673 -0.10000
H 	H 	0.28107 0.80993 0.67163 0.06100
C 	C 	0.32057 0.78663 0.68463 0.02400
H 	H 	0.32117 0.79013 0.71893 0.01400
C 	C 	0.34177 0.77043 0.66613 -0.10100
H 	H 	0.35697 0.76193 0.68683 0.06200
C 	C 	0.34247 0.76553 0.61813 0.01600
H 	H 	0.35827 0.75383 0.60453 0.02100
C 	C 	0.31917 0.77793 0.58733 -0.10100
H 	H 	0.31877 0.77423 0.55313 0.05600
C 	C 	0.22057 0.79373 0.59763 -0.01000
C 	C 	0.20507 0.81843 0.61213 -0.07300
H 	H 	0.22147 0.84813 0.60803 0.05200
C 	C 	0.16427 0.80053 0.63343 -0.01500
H 	H 	0.15407 0.81823 0.64493 0.03000
C 	C 	0.14007 0.75783 0.63723 -0.06300
H 	H 	0.11137 0.74523 0.64693 0.04700
C 	C 	0.15757 0.73313 0.62693 -0.01800
H 	H 	0.14287 0.70393 0.63483 0.03100
C 	C 	0.19717 0.75123 0.60483 -0.07400
H 	H 	0.20807 0.73373 0.59463 0.04000
O 	O 	0.64187 0.19623 0.61013 -0.34900
Ag	Ag	0.25765 0.46413 0.98060 0.50600
P 	P 	0.21770 0.41541 0.91505 0.00700
P 	P 	0.93701 0.14674 0.90017 0.00100
C 	C 	0.02583 0.33917 0.92277 -0.03700
C 	C 	0.07313 0.36057 0.91677 0.05200
C 	C 	0.09733 0.37407 0.95937 -0.08400
H 	H 	0.08373 0.37187 0.98947 0.05400
C 	C 	0.14033 0.39037 0.95887 -0.02700
H 	H 	0.15583 0.39867 0.98837 0.01400
C 	C 	0.16133 0.39497 0.91417 -0.03900
C 	C 	0.13793 0.38357 0.87287 -0.02100
H 	H 	0.15113 0.38727 0.84207 0.04000
C 	C 	0.09343 0.36597 0.87577 -0.09000
H 	H 	0.07763 0.35787 0.84647 0.06000
C 	C 	0.00463 0.29197 0.91687 0.04500
C 	C 	0.99293 0.26727 0.95727 -0.08300
H 	H 	0.99763 0.27957 0.98867 0.05500
C 	C 	0.97363 0.22307 0.95197 -0.02100
H 	H 	0.96683 0.20637 0.98057 0.03400
C 	C 	0.96433 0.20337 0.90837 -0.03400
C 	C 	0.97713 0.22777 0.86817 -0.02300
H 	H 	0.97283 0.21487 0.83717 0.01600
C 	C 	0.99663 0.27127 0.87137 -0.07800
H 	H 	0.00463 0.28757 0.84247 0.05400
C 	C 	0.22283 0.36917 0.91947 -0.00500
C 	C 	0.26323 0.37407 0.91957 -0.08600
H 	H 	0.28733 0.40137 0.91597 0.05500
C 	C 	0.26823 0.33897 0.92487 -0.00400
H 	H 	0.29583 0.34267 0.92657 0.02200
C 	C 	0.23463 0.29987 0.92777 -0.07200
H 	H 	0.23853 0.27617 0.93097 0.04600
C 	C 	0.19463 0.29427 0.92617 -0.00800
H 	H 	0.17093 0.26657 0.92777 0.03200
C 	C 	0.18873 0.32787 0.92237 -0.07300
H 	H 	0.16083 0.32337 0.92157 0.05600
C 	C 	0.23433 0.43367 0.85367 0.00600
C 	C 	0.24083 0.47417 0.84267 -0.07600
H 	H 	0.23793 0.49117 0.86657 0.04800
C 	C 	0.25213 0.48807 0.79377 -0.00800
H 	H 	0.25683 0.51517 0.78517 0.03000
C 	C 	0.25663 0.46447 0.75897 -0.06800
H 	H 	0.26323 0.47467 0.72667 0.05600
C 	C 	0.25143 0.42567 0.77037 -0.01100
H 	H 	0.25563 0.40937 0.74647 0.03700
C 	C 	0.23973 0.41017 0.81857 -0.07200
H 	H 	0.23553 0.38307 0.82657 0.05800
C 	C 	0.96413 0.12857 0.94117 0.02300
C 	C 	0.96363 0.13237 0.99007 -0.09900
H 	H 	0.94773 0.14327 0.00497 0.06100
C 	C 	0.98723 0.11997 0.01797 0.02300
H 	H 	0.98783 0.12347 0.05227 0.01500
C 	C 	0.00843 0.10377 0.99947 -0.10100
H 	H 	0.02363 0.09527 0.02017 0.06200
C 	C 	0.00913 0.09887 0.95147 0.01400
H 	H 	0.02493 0.08717 0.93787 0.02100
C 	C 	0.98583 0.11127 0.92067 -0.10000
H 	H 	0.98543 0.10757 0.88647 0.05600
C 	C 	0.88723 0.12707 0.93097 -0.01000
C 	C 	0.87173 0.15177 0.94547 -0.07300
H 	H 	0.88813 0.18147 0.94137 0.05200
C 	C 	0.83093 0.13387 0.96677 -0.01500
H 	H 	0.82073 0.15157 0.97827 0.03000
C 	C 	0.80673 0.09117 0.97057 -0.06300
H 	H 	0.77803 0.07857 0.98027 0.04700
C 	C 	0.82423 0.06647 0.96027 -0.01700
H 	H 	0.80953 0.03727 0.96817 0.03100
C 	C 	0.86383 0.08457 0.93817 -0.07400
H 	H 	0.87473 0.06707 0.92797 0.04000
O 	O 	0.30853 0.52957 0.94347 -0.34900
Ag	Ag	0.20254 0.12686 0.31393 0.50600
P 	P 	0.25126 0.13563 0.24838 0.00700
P 	P 	0.51993 0.12361 0.23350 0.00100
C 	C 	0.32750 0.02000 0.25610 -0.04000
C 	C 	0.30610 0.04590 0.25010 0.05300
C 	C 	0.29260 0.05660 0.29270 -0.08500
H 	H 	0.29480 0.04520 0.32280 0.05400
C 	C 	0.27630 0.08330 0.29220 -0.02700
H 	H 	0.26800 0.09050 0.32170 0.01400
C 	C 	0.27170 0.09970 0.24750 -0.03900
C 	C 	0.28310 0.08770 0.20620 -0.02100
H 	H 	0.27940 0.09720 0.17540 0.04000
C 	C 	0.30070 0.06080 0.20910 -0.09100
H 	H 	0.30880 0.05310 0.17980 0.06100
C 	C 	0.37470 0.04600 0.25020 0.04900
C 	C 	0.39940 0.05900 0.29060 -0.08700
H 	H 	0.38710 0.05140 0.32200 0.05500
C 	C 	0.44360 0.08390 0.28530 -0.01900
H 	H 	0.46030 0.09380 0.31390 0.03300
C 	C 	0.46330 0.09430 0.24170 -0.03600
C 	C 	0.43890 0.08270 0.20150 -0.02000
H 	H 	0.45180 0.09130 0.17050 0.01500
C 	C 	0.39540 0.05870 0.20470 -0.08200
H 	H 	0.37910 0.05040 0.17580 0.05600
C 	C 	0.29750 0.18700 0.25280 -0.00500
C 	C 	0.29260 0.22250 0.25290 -0.08600
H 	H 	0.26530 0.21930 0.24930 0.05500
C 	C 	0.32770 0.26260 0.25820 -0.00400
H 	H 	0.32400 0.28650 0.25990 0.02200
C 	C 	0.36680 0.26810 0.26110 -0.07200
H 	H 	0.39050 0.29570 0.26430 0.04600
C 	C 	0.37240 0.23370 0.25950 -0.00800
H 	H 	0.40010 0.23770 0.26110 0.03100
C 	C 	0.33880 0.19420 0.25570 -0.07300
H 	H 	0.34330 0.17080 0.25490 0.05600
C 	C 	0.23300 0.13400 0.18700 0.00600
C 	C 	0.19250 0.10000 0.17600 -0.07600
H 	H 	0.17550 0.08010 0.19990 0.04700
C 	C 	0.17860 0.09740 0.12710 -0.00800
H 	H 	0.15150 0.07500 0.11850 0.03000
C 	C 	0.20220 0.12550 0.09230 -0.06800
H 	H 	0.19200 0.12190 0.06000 0.05600
C 	C 	0.24100 0.15910 0.10370 -0.01100
H 	H 	0.25730 0.17960 0.07980 0.03700
C 	C 	0.25650 0.16290 0.15190 -0.07200
H 	H 	0.28360 0.18580 0.15990 0.05800
C 	C 	0.53810 0.16890 0.27450 0.02400
C 	C 	0.53430 0.16460 0.32340 -0.10000
H 	H 	0.52340 0.13780 0.33830 0.06100
C 	C 	0.54670 0.20060 0.35130 0.02400
H 	H 	0.54320 0.19770 0.38560 0.01400
C 	C 	0.56290 0.23800 0.33280 -0.10100
H 	H 	0.57140 0.26170 0.35350 0.06200
C 	C 	0.56780 0.24360 0.28480 0.01600
H 	H 	0.57950 0.27110 0.27120 0.02100
C 	C 	0.55540 0.20790 0.25400 -0.10100
H 	H 	0.55910 0.21120 0.21980 0.05600
C 	C 	0.53960 0.09350 0.26430 -0.01000
C 	C 	0.51490 0.05330 0.27880 -0.07300
H 	H 	0.48520 0.04000 0.27470 0.05200
C 	C 	0.53280 0.03040 0.30010 -0.01500
H 	H 	0.51510 0.00250 0.31160 0.03000
C 	C 	0.57550 0.04890 0.30390 -0.06300
H 	H 	0.58810 0.03280 0.31360 0.04700
C 	C 	0.60020 0.09110 0.29360 -0.01800
H 	H 	0.62940 0.10560 0.30150 0.03100
C 	C 	0.58210 0.11260 0.27150 -0.07400
H 	H 	0.59960 0.14100 0.26130 0.04000
O 	O 	0.13710 0.11230 0.27680 -0.34900
Ag	Ag	0.86921 0.46019 0.64726 0.50600
P 	P 	0.91793 0.46896 0.58171 0.00700
P 	P 	0.18660 0.45694 0.56683 0.00100
C 	C 	0.99417 0.35333 0.58943 -0.03700
C 	C 	0.97277 0.37923 0.58343 0.05200
C 	C 	0.95927 0.38993 0.62603 -0.08400
H 	H 	0.96147 0.37853 0.65613 0.05400
C 	C 	0.94297 0.41663 0.62553 -0.02700
H 	H 	0.93467 0.42383 0.65503 0.01400
C 	C 	0.93837 0.43303 0.58083 -0.03900
C 	C 	0.94977 0.42103 0.53953 -0.02100
H 	H 	0.94607 0.43053 0.50873 0.04000
C 	C 	0.96737 0.39413 0.54243 -0.09000
H 	H 	0.97547 0.38643 0.51313 0.06100
C 	C 	0.04137 0.37933 0.58353 0.04800
C 	C 	0.06607 0.39233 0.62393 -0.08600
H 	H 	0.05377 0.38473 0.65533 0.05500
C 	C 	0.11027 0.41723 0.61863 -0.01900
H 	H 	0.12697 0.42713 0.64723 0.03300
C 	C 	0.12997 0.42763 0.57503 -0.03600
C 	C 	0.10557 0.41603 0.53483 -0.02100
H 	H 	0.11847 0.42463 0.50383 0.01600
C 	C 	0.06207 0.39203 0.53803 -0.08100
H 	H 	0.04577 0.38373 0.50913 0.05600
C 	C 	0.96417 0.52033 0.58613 -0.00300
C 	C 	0.95927 0.55583 0.58623 -0.08800
H 	H 	0.93197 0.55263 0.58263 0.05600
C 	C 	0.99437 0.59593 0.59153 -0.00100
H 	H 	0.99067 0.61983 0.59323 0.02100
C 	C 	0.03347 0.60143 0.59443 -0.07600
H 	H 	0.05717 0.62903 0.59763 0.04700
C 	C 	0.03907 0.56703 0.59283 -0.00600
H 	H 	0.06677 0.57103 0.59443 0.03100
C 	C 	0.00547 0.52753 0.58903 -0.07600
H 	H 	0.00997 0.50413 0.58823 0.05700
C 	C 	0.89967 0.46733 0.52033 0.00600
C 	C 	0.85917 0.43333 0.50933 -0.07600
H 	H 	0.84217 0.41343 0.53323 0.04800
C 	C 	0.84527 0.43073 0.46043 -0.00800
H 	H 	0.81817 0.40833 0.45183 0.03000
C 	C 	0.86887 0.45883 0.42563 -0.06800
H 	H 	0.85867 0.45523 0.39333 0.05600
C 	C 	0.90767 0.49243 0.43703 -0.01100
H 	H 	0.92397 0.51293 0.41313 0.03700
C 	C 	0.92317 0.49623 0.48523 -0.07200
H 	H 	0.95027 0.51913 0.49323 0.05800
C 	C 	0.20477 0.50223 0.60783 0.02400
C 	C 	0.20097 0.49793 0.65673 -0.10000
H 	H 	0.19007 0.47113 0.67163 0.06100
C 	C 	0.21337 0.53393 0.68463 0.02400
H 	H 	0.20987 0.53103 0.71893 0.01400
C 	C 	0.22957 0.57133 0.66613 -0.10100
H 	H 	0.23807 0.59503 0.68683 0.06200
C 	C 	0.23447 0.57693 0.61813 0.01600
H 	H 	0.24617 0.60443 0.60453 0.02100
C 	C 	0.22207 0.54123 0.58733 -0.10100
H 	H 	0.22577 0.54453 0.55313 0.05600
C 	C 	0.20627 0.42683 0.59763 -0.01000
C 	C 	0.18157 0.38663 0.61213 -0.07300
H 	H 	0.15187 0.37333 0.60803 0.05200
C 	C 	0.19947 0.36373 0.63343 -0.01500
H 	H 	0.18177 0.33583 0.64493 0.03000
C 	C 	0.24217 0.38223 0.63723 -0.06300
H 	H 	0.25477 0.36613 0.64693 0.04700
C 	C 	0.26687 0.42443 0.62693 -0.01700
H 	H 	0.29607 0.43893 0.63483 0.03100
C 	C 	0.24877 0.44593 0.60483 -0.07400
H 	H 	0.26627 0.47433 0.59463 0.04000
O 	O 	0.80377 0.44563 0.61013 -0.34900
Ag	Ag	0.53587 0.79353 0.98060 0.50600
P 	P 	0.58459 0.80230 0.91505 0.00700
P 	P 	0.85326 0.79028 0.90017 0.00100
C 	C 	0.66083 0.68667 0.92277 -0.03900
C 	C 	0.63943 0.71257 0.91677 0.05300
C 	C 	0.62593 0.72327 0.95937 -0.08500
H 	H 	0.62813 0.71187 0.98947 0.05400
C 	C 	0.60963 0.74997 0.95887 -0.02700
H 	H 	0.60133 0.75717 0.98837 0.01400
C 	C 	0.60503 0.76637 0.91417 -0.03900
C 	C 	0.61643 0.75437 0.87287 -0.02100
H 	H 	0.61273 0.76387 0.84207 0.04000
C 	C 	0.63403 0.72747 0.87577 -0.09100
H 	H 	0.64213 0.71977 0.84647 0.06100
C 	C 	0.70803 0.71267 0.91687 0.04900
C 	C 	0.73273 0.72567 0.95727 -0.08600
H 	H 	0.72043 0.71807 0.98867 0.05500
C 	C 	0.77693 0.75057 0.95197 -0.01900
H 	H 	0.79363 0.76047 0.98057 0.03300
C 	C 	0.79663 0.76097 0.90837 -0.03600
C 	C 	0.77223 0.74937 0.86817 -0.02000
H 	H 	0.78513 0.75797 0.83717 0.01500
C 	C 	0.72873 0.72537 0.87137 -0.08200
H 	H 	0.71243 0.71707 0.84247 0.05600
C 	C 	0.63083 0.85367 0.91947 -0.00500
C 	C 	0.62593 0.88917 0.91957 -0.08600
H 	H 	0.59863 0.88597 0.91597 0.05500
C 	C 	0.66103 0.92927 0.92487 -0.00400
H 	H 	0.65733 0.95317 0.92657 0.02200
C 	C 	0.70013 0.93477 0.92777 -0.07200
H 	H 	0.72383 0.96237 0.93097 0.04600
C 	C 	0.70573 0.90037 0.92617 -0.00800
H 	H 	0.73343 0.90437 0.92777 0.03200
C 	C 	0.67213 0.86087 0.92237 -0.07300
H 	H 	0.67663 0.83747 0.92157 0.05600
C 	C 	0.56633 0.80067 0.85367 0.00600
C 	C 	0.52583 0.76667 0.84267 -0.07600
H 	H 	0.50883 0.74677 0.86657 0.04800
C 	C 	0.51193 0.76407 0.79377 -0.00800
H 	H 	0.48483 0.74167 0.78517 0.03000
C 	C 	0.53553 0.79217 0.75897 -0.06800
H 	H 	0.52533 0.78857 0.72667 0.05600
C 	C 	0.57433 0.82577 0.77037 -0.01100
H 	H 	0.59063 0.84627 0.74647 0.03700
C 	C 	0.58983 0.82957 0.81857 -0.07200
H 	H 	0.61693 0.85247 0.82657 0.05800
C 	C 	0.87143 0.83557 0.94117 0.02400
C 	C 	0.86763 0.83127 0.99007 -0.10000
H 	H 	0.85673 0.80447 0.00497 0.06100
C 	C 	0.88003 0.86727 0.01797 0.02300
H 	H 	0.87653 0.86437 0.05227 0.01400
C 	C 	0.89623 0.90467 0.99947 -0.10100
H 	H 	0.90473 0.92837 0.02017 0.06200
C 	C 	0.90113 0.91027 0.95147 0.01500
H 	H 	0.91283 0.93777 0.93787 0.02100
C 	C 	0.88873 0.87457 0.92067 -0.10100
H 	H 	0.89243 0.87787 0.88647 0.05600
C 	C 	0.87293 0.76017 0.93097 -0.01000
C 	C 	0.84823 0.71997 0.94547 -0.07300
H 	H 	0.81853 0.70667 0.94137 0.05200
C 	C 	0.86613 0.69707 0.96677 -0.01500
H 	H 	0.84843 0.66917 0.97827 0.03000
C 	C 	0.90883 0.71557 0.97057 -0.06300
H 	H 	0.92143 0.69947 0.98027 0.04700
C 	C 	0.93353 0.75777 0.96027 -0.01700
H 	H 	0.96273 0.77227 0.96817 0.03100
C 	C 	0.91543 0.77927 0.93817 -0.07400
H 	H 	0.93293 0.80767 0.92797 0.04000
O 	O 	0.47043 0.77897 0.94347 -0.34900
Ag	Ag	0.87314 0.07568 0.31393 0.50600
P 	P 	0.86437 0.11563 0.24838 0.00700
P 	P 	0.87639 0.39632 0.23350 0.00100
C 	C 	0.98000 0.30750 0.25610 -0.03800
C 	C 	0.95410 0.26020 0.25010 0.05300
C 	C 	0.94340 0.23600 0.29270 -0.08500
H 	H 	0.95480 0.24960 0.32280 0.05400
C 	C 	0.91670 0.19300 0.29220 -0.02700
H 	H 	0.90950 0.17750 0.32170 0.01400
C 	C 	0.90030 0.17200 0.24750 -0.03900
C 	C 	0.91230 0.19540 0.20620 -0.02100
H 	H 	0.90280 0.18220 0.17540 0.04000
C 	C 	0.93920 0.23990 0.20910 -0.09100
H 	H 	0.94690 0.25570 0.17980 0.06100
C 	C 	0.95400 0.32870 0.25020 0.04900
C 	C 	0.94100 0.34040 0.29060 -0.08600
H 	H 	0.94860 0.33570 0.32200 0.05500
C 	C 	0.91610 0.35970 0.28530 -0.01900
H 	H 	0.90620 0.36650 0.31390 0.03300
C 	C 	0.90570 0.36900 0.24170 -0.03600
C 	C 	0.91730 0.35620 0.20150 -0.02000
H 	H 	0.90870 0.36050 0.17050 0.01500
C 	C 	0.94130 0.33670 0.20470 -0.08200
H 	H 	0.94960 0.32870 0.17580 0.05600
C 	C 	0.81300 0.11050 0.25280 -0.00500
C 	C 	0.77750 0.07010 0.25290 -0.08600
H 	H 	0.78070 0.04600 0.24930 0.05500
C 	C 	0.73740 0.06510 0.25820 -0.00400
H 	H 	0.71350 0.03750 0.25990 0.02200
C 	C 	0.73190 0.09870 0.26110 -0.07200
H 	H 	0.70430 0.09480 0.26430 0.04600
C 	C 	0.76630 0.13870 0.25950 -0.00800
H 	H 	0.76230 0.16240 0.26110 0.03100
C 	C 	0.80580 0.14460 0.25570 -0.07300
H 	H 	0.82920 0.17250 0.25490 0.05600
C 	C 	0.86600 0.09900 0.18700 0.00600
C 	C 	0.90000 0.09250 0.17600 -0.07600
H 	H 	0.91990 0.09540 0.19990 0.04800
C 	C 	0.90260 0.08120 0.12710 -0.00800
H 	H 	0.92500 0.07650 0.11850 0.03000
C 	C 	0.87450 0.07670 0.09230 -0.06800
H 	H 	0.87810 0.07010 0.06000 0.05600
C 	C 	0.84090 0.08190 0.10370 -0.01100
H 	H 	0.82040 0.07770 0.07980 0.03700
C 	C 	0.83710 0.09360 0.15190 -0.07200
H 	H 	0.81420 0.09780 0.15990 0.05800
C 	C 	0.83110 0.36920 0.27450 0.02400
C 	C 	0.83540 0.36970 0.32340 -0.10000
H 	H 	0.86220 0.38560 0.33830 0.06100
C 	C 	0.79940 0.34610 0.35130 0.02400
H 	H 	0.80230 0.34550 0.38560 0.01400
C 	C 	0.76200 0.32490 0.33280 -0.10100
H 	H 	0.73830 0.30970 0.35350 0.06200
C 	C 	0.75640 0.32420 0.28480 0.01500
H 	H 	0.72890 0.30840 0.27120 0.02100
C 	C 	0.79210 0.34750 0.25400 -0.10100
H 	H 	0.78880 0.34790 0.21980 0.05600
C 	C 	0.90650 0.44610 0.26430 -0.01000
C 	C 	0.94670 0.46160 0.27880 -0.07300
H 	H 	0.96000 0.44520 0.27470 0.05200
C 	C 	0.96960 0.50240 0.30010 -0.01500
H 	H 	0.99750 0.51260 0.31160 0.03000
C 	C 	0.95110 0.52660 0.30390 -0.06300
H 	H 	0.96720 0.55530 0.31360 0.04700
C 	C 	0.90890 0.50910 0.29360 -0.01700
H 	H 	0.89440 0.52380 0.30150 0.03100
C 	C 	0.88740 0.46950 0.27150 -0.07400
H 	H 	0.85900 0.45860 0.26130 0.04000
O 	O 	0.88770 0.02480 0.27680 -0.34900
Ag	Ag	0.53981 0.40901 0.64726 0.50600
P 	P 	0.53104 0.44896 0.58171 0.00700
P 	P 	0.54306 0.72965 0.56683 0.00100
C 	C 	0.64667 0.64083 0.58943 -0.03900
C 	C 	0.62077 0.59353 0.58343 0.05300
C 	C 	0.61007 0.56933 0.62603 -0.08500
H 	H 	0.62147 0.58293 0.65613 0.05400
C 	C 	0.58337 0.52633 0.62553 -0.02700
H 	H 	0.57617 0.51083 0.65503 0.01400
C 	C 	0.56697 0.50533 0.58083 -0.03900
C 	C 	0.57897 0.52873 0.53953 -0.02100
H 	H 	0.56947 0.51553 0.50873 0.04000
C 	C 	0.60587 0.57323 0.54243 -0.09100
H 	H 	0.61357 0.58903 0.51313 0.06100
C 	C 	0.62067 0.66203 0.58353 0.04900
C 	C 	0.60767 0.67373 0.62393 -0.08600
H 	H 	0.61527 0.66903 0.65533 0.05500
C 	C 	0.58277 0.69303 0.61863 -0.01900
H 	H 	0.57287 0.69983 0.64723 0.03300
C 	C 	0.57237 0.70233 0.57503 -0.03600
C 	C 	0.58397 0.68953 0.53483 -0.02000
H 	H 	0.57537 0.69383 0.50383 0.01500
C 	C 	0.60797 0.67003 0.53803 -0.08200
H 	H 	0.61627 0.66203 0.50913 0.05600
C 	C 	0.47967 0.44383 0.58613 -0.00500
C 	C 	0.44417 0.40343 0.58623 -0.08600
H 	H 	0.44737 0.37933 0.58263 0.05500
C 	C 	0.40407 0.39843 0.59153 -0.00400
H 	H 	0.38017 0.37083 0.59323 0.02200
C 	C 	0.39857 0.43203 0.59443 -0.07200
H 	H 	0.37097 0.42813 0.59763 0.04600
C 	C 	0.43297 0.47203 0.59283 -0.00800
H 	H 	0.42897 0.49573 0.59443 0.03100
C 	C 	0.47247 0.47793 0.58903 -0.07300
H 	H 	0.49587 0.50583 0.58823 0.05600
C 	C 	0.53267 0.43233 0.52033 0.00600
C 	C 	0.56667 0.42583 0.50933 -0.07600
H 	H 	0.58657 0.42873 0.53323 0.04800
C 	C 	0.56927 0.41453 0.46043 -0.00800
H 	H 	0.59167 0.40983 0.45183 0.03000
C 	C 	0.54117 0.41003 0.42563 -0.06800
H 	H 	0.54477 0.40343 0.39333 0.05600
C 	C 	0.50757 0.41523 0.43703 -0.01100
H 	H 	0.48707 0.41103 0.41313 0.03700
C 	C 	0.50377 0.42693 0.48523 -0.07200
H 	H 	0.48087 0.43113 0.49323 0.05800
C 	C 	0.49777 0.70253 0.60783 0.02400
C 	C 	0.50207 0.70303 0.65673 -0.10000
H 	H 	0.52887 0.71893 0.67163 0.06100
C 	C 	0.46607 0.67943 0.68463 0.02400
H 	H 	0.46897 0.67883 0.71893 0.01400
C 	C 	0.42867 0.65823 0.66613 -0.10100
H 	H 	0.40497 0.64303 0.68683 0.06200
C 	C 	0.42307 0.65753 0.61813 0.01600
H 	H 	0.39557 0.64173 0.60453 0.02100
C 	C 	0.45877 0.68083 0.58733 -0.10100
H 	H 	0.45547 0.68123 0.55313 0.05600
C 	C 	0.57317 0.77943 0.59763 -0.01000
C 	C 	0.61337 0.79493 0.61213 -0.07300
H 	H 	0.62667 0.77853 0.60803 0.05200
C 	C 	0.63627 0.83573 0.63343 -0.01500
H 	H 	0.66417 0.84593 0.64493 0.03000
C 	C 	0.61777 0.85993 0.63723 -0.06300
H 	H 	0.63387 0.88863 0.64693 0.04700
C 	C 	0.57557 0.84243 0.62693 -0.01700
H 	H 	0.56107 0.85713 0.63483 0.03100
C 	C 	0.55407 0.80283 0.60483 -0.07400
H 	H 	0.52567 0.79193 0.59463 0.04000
O 	O 	0.55437 0.35813 0.61013 -0.34900
Ag	Ag	0.20647 0.74235 0.98060 0.50600
P 	P 	0.19770 0.78230 0.91505 0.00700
P 	P 	0.20972 0.06299 0.90017 0.00100
C 	C 	0.31333 0.97417 0.92277 -0.04000
C 	C 	0.28743 0.92687 0.91677 0.05400
C 	C 	0.27673 0.90267 0.95937 -0.08500
H 	H 	0.28813 0.91627 0.98947 0.05500
C 	C 	0.25003 0.85967 0.95887 -0.02700
H 	H 	0.24283 0.84417 0.98837 0.01400
C 	C 	0.23363 0.83867 0.91417 -0.03900
C 	C 	0.24563 0.86207 0.87287 -0.02100
H 	H 	0.23613 0.84887 0.84207 0.04000
C 	C 	0.27253 0.90657 0.87577 -0.09100
H 	H 	0.28023 0.92237 0.84647 0.06100
C 	C 	0.28733 0.99537 0.91687 0.05200
C 	C 	0.27433 0.00707 0.95727 -0.08900
H 	H 	0.28193 0.00237 0.98867 0.05600
C 	C 	0.24943 0.02637 0.95197 -0.01700
H 	H 	0.23953 0.03317 0.98057 0.03200
C 	C 	0.23903 0.03567 0.90837 -0.03700
C 	C 	0.25063 0.02287 0.86817 -0.01800
H 	H 	0.24203 0.02717 0.83717 0.01500
C 	C 	0.27463 0.00337 0.87137 -0.08500
H 	H 	0.28293 0.99537 0.84247 0.05800
C 	C 	0.14633 0.77717 0.91947 -0.00500
C 	C 	0.11083 0.73677 0.91957 -0.08600
H 	H 	0.11403 0.71267 0.91597 0.05500
C 	C 	0.07073 0.73177 0.92487 -0.00400
H 	H 	0.04683 0.70417 0.92657 0.02200
C 	C 	0.06523 0.76537 0.92777 -0.07200
H 	H 	0.03763 0.76147 0.93097 0.04600
C 	C 	0.09963 0.80537 0.92617 -0.00800
H 	H 	0.09563 0.82907 0.92777 0.03100
C 	C 	0.13913 0.81127 0.92237 -0.07300
H 	H 	0.16253 0.83917 0.92157 0.05600
C 	C 	0.19933 0.76567 0.85367 0.00600
C 	C 	0.23333 0.75917 0.84267 -0.07600
H 	H 	0.25323 0.76207 0.86657 0.04800
C 	C 	0.23593 0.74787 0.79377 -0.00800
H 	H 	0.25833 0.74317 0.78517 0.03000
C 	C 	0.20783 0.74337 0.75897 -0.06800
H 	H 	0.21143 0.73677 0.72667 0.05600
C 	C 	0.17423 0.74857 0.77037 -0.01100
H 	H 	0.15373 0.74437 0.74647 0.03700
C 	C 	0.17043 0.76027 0.81857 -0.07200
H 	H 	0.14753 0.76447 0.82657 0.05800
C 	C 	0.16443 0.03587 0.94117 0.02400
C 	C 	0.16873 0.03637 0.99007 -0.09900
H 	H 	0.19553 0.05227 0.00497 0.06100
C 	C 	0.13273 0.01277 0.01797 0.02200
H 	H 	0.13563 0.01217 0.05227 0.01500
C 	C 	0.09533 0.99157 0.99947 -0.10000
H 	H 	0.07163 0.97637 0.02017 0.06200
C 	C 	0.08973 0.99087 0.95147 0.01600
H 	H 	0.06223 0.97507 0.93787 0.02100
C 	C 	0.12543 0.01417 0.92067 -0.10200
H 	H 	0.12213 0.01457 0.88647 0.05600
C 	C 	0.23983 0.11277 0.93097 -0.01000
C 	C 	0.28003 0.12827 0.94547 -0.07200
H 	H 	0.29333 0.11187 0.94137 0.05200
C 	C 	0.30293 0.16907 0.96677 -0.01500
H 	H 	0.33083 0.17927 0.97827 0.03000
C 	C 	0.28443 0.19327 0.97057 -0.06300
H 	H 	0.30053 0.22197 0.98027 0.04700
C 	C 	0.24223 0.17577 0.96027 -0.01800
H 	H 	0.22773 0.19047 0.96817 0.03100
C 	C 	0.22073 0.13617 0.93817 -0.07400
H 	H 	0.19233 0.12527 0.92797 0.04000
O 	O 	0.22103 0.69147 0.94347 -0.34900
Ag	Ag	0.79746 0.92432 0.18607 0.50600
P 	P 	0.74874 0.88437 0.25162 0.00700
P 	P 	0.48007 0.60368 0.26650 0.00100
C 	C 	0.67250 0.69250 0.24390 -0.03900
C 	C 	0.69390 0.73980 0.24990 0.05300
C 	C 	0.70740 0.76400 0.20730 -0.08500
H 	H 	0.70520 0.75040 0.17720 0.05400
C 	C 	0.72370 0.80700 0.20780 -0.02700
H 	H 	0.73200 0.82250 0.17830 0.01400
C 	C 	0.72830 0.82800 0.25250 -0.03900
C 	C 	0.71690 0.80460 0.29380 -0.02100
H 	H 	0.72060 0.81780 0.32460 0.04000
C 	C 	0.69930 0.76010 0.29090 -0.09100
H 	H 	0.69120 0.74430 0.32020 0.06100
C 	C 	0.62530 0.67130 0.24980 0.04900
C 	C 	0.60060 0.65960 0.20940 -0.08600
H 	H 	0.61290 0.66430 0.17800 0.05500
C 	C 	0.55640 0.64030 0.21470 -0.01900
H 	H 	0.53970 0.63350 0.18610 0.03300
C 	C 	0.53670 0.63100 0.25830 -0.03600
C 	C 	0.56110 0.64380 0.29850 -0.02000
H 	H 	0.54820 0.63950 0.32950 0.01500
C 	C 	0.60460 0.66330 0.29530 -0.08200
H 	H 	0.62090 0.67130 0.32420 0.05600
C 	C 	0.70250 0.88950 0.24720 -0.00500
C 	C 	0.70740 0.92990 0.24710 -0.08600
H 	H 	0.73470 0.95400 0.25070 0.05500
C 	C 	0.67230 0.93490 0.24180 -0.00400
H 	H 	0.67600 0.96250 0.24010 0.02200
C 	C 	0.63320 0.90130 0.23890 -0.07200
H 	H 	0.60950 0.90520 0.23570 0.04600
C 	C 	0.62760 0.86130 0.24050 -0.00800
H 	H 	0.59990 0.83760 0.23890 0.03200
C 	C 	0.66120 0.85540 0.24430 -0.07300
H 	H 	0.65670 0.82750 0.24510 0.05600
C 	C 	0.76700 0.90100 0.31300 0.00600
C 	C 	0.80750 0.90750 0.32400 -0.07600
H 	H 	0.82450 0.90460 0.30010 0.04800
C 	C 	0.82140 0.91880 0.37290 -0.00800
H 	H 	0.84850 0.92350 0.38150 0.03100
C 	C 	0.79780 0.92330 0.40770 -0.06800
H 	H 	0.80800 0.92990 0.44000 0.05600
C 	C 	0.75900 0.91810 0.39630 -0.01100
H 	H 	0.74270 0.92230 0.42020 0.03700
C 	C 	0.74350 0.90640 0.34810 -0.07200
H 	H 	0.71640 0.90220 0.34010 0.05800
C 	C 	0.46190 0.63080 0.22550 0.02400
C 	C 	0.46570 0.63030 0.17660 -0.10000
H 	H 	0.47660 0.61440 0.16170 0.06100
C 	C 	0.45330 0.65390 0.14870 0.02400
H 	H 	0.45680 0.65450 0.11440 0.01400
C 	C 	0.43710 0.67510 0.16720 -0.10100
H 	H 	0.42860 0.69030 0.14650 0.06200
C 	C 	0.43220 0.67580 0.21520 0.01600
H 	H 	0.42050 0.69160 0.22880 0.02100
C 	C 	0.44460 0.65250 0.24600 -0.10100
H 	H 	0.44090 0.65210 0.28020 0.05600
C 	C 	0.46040 0.55390 0.23570 -0.01000
C 	C 	0.48510 0.53840 0.22120 -0.07300
H 	H 	0.51480 0.55480 0.22530 0.05200
C 	C 	0.46720 0.49760 0.19990 -0.01500
H 	H 	0.48490 0.48740 0.18840 0.03000
C 	C 	0.42450 0.47340 0.19610 -0.06300
H 	H 	0.41190 0.44470 0.18640 0.04700
C 	C 	0.39980 0.49090 0.20640 -0.01700
H 	H 	0.37060 0.47620 0.19850 0.03100
C 	C 	0.41790 0.53050 0.22850 -0.07400
H 	H 	0.40040 0.54140 0.23870 0.04000
O 	O 	0.86290 0.97520 0.22320 -0.34800
Ag	Ag	0.46413 0.25765 0.51940 0.50600
P 	P 	0.41541 0.21770 0.58495 0.00700
P 	P 	0.14674 0.93701 0.59983 0.00100
C 	C 	0.33917 0.02583 0.57723 -0.03800
C 	C 	0.36057 0.07313 0.58323 0.05200
C 	C 	0.37407 0.09733 0.54063 -0.08400
H 	H 	0.37187 0.08373 0.51053 0.05400
C 	C 	0.39037 0.14033 0.54113 -0.02700
H 	H 	0.39867 0.15583 0.51163 0.01400
C 	C 	0.39497 0.16133 0.58583 -0.03900
C 	C 	0.38357 0.13793 0.62713 -0.02100
H 	H 	0.38727 0.15113 0.65793 0.04000
C 	C 	0.36597 0.09343 0.62423 -0.09000
H 	H 	0.35787 0.07763 0.65353 0.06000
C 	C 	0.29197 0.00463 0.58313 0.04600
C 	C 	0.26727 0.99293 0.54273 -0.08400
H 	H 	0.27957 0.99763 0.51133 0.05500
C 	C 	0.22307 0.97363 0.54803 -0.02000
H 	H 	0.20637 0.96683 0.51943 0.03300
C 	C 	0.20337 0.96433 0.59163 -0.03500
C 	C 	0.22777 0.97713 0.63183 -0.02200
H 	H 	0.21487 0.97283 0.66283 0.01600
C 	C 	0.27127 0.99663 0.62863 -0.07800
H 	H 	0.28757 0.00463 0.65753 0.05500
C 	C 	0.36917 0.22283 0.58053 -0.00500
C 	C 	0.37407 0.26323 0.58043 -0.08600
H 	H 	0.40137 0.28733 0.58403 0.05500
C 	C 	0.33897 0.26823 0.57513 -0.00400
H 	H 	0.34267 0.29583 0.57343 0.02200
C 	C 	0.29987 0.23463 0.57223 -0.07200
H 	H 	0.27617 0.23853 0.56903 0.04600
C 	C 	0.29427 0.19463 0.57383 -0.00800
H 	H 	0.26657 0.17093 0.57223 0.03200
C 	C 	0.32787 0.18873 0.57763 -0.07300
H 	H 	0.32337 0.16083 0.57843 0.05600
C 	C 	0.43367 0.23433 0.64633 0.00600
C 	C 	0.47417 0.24083 0.65733 -0.07600
H 	H 	0.49117 0.23793 0.63343 0.04800
C 	C 	0.48807 0.25213 0.70623 -0.00800
H 	H 	0.51517 0.25683 0.71483 0.03000
C 	C 	0.46447 0.25663 0.74103 -0.06800
H 	H 	0.47467 0.26323 0.77333 0.05600
C 	C 	0.42567 0.25143 0.72963 -0.01100
H 	H 	0.40937 0.25563 0.75353 0.03700
C 	C 	0.41017 0.23973 0.68143 -0.07200
H 	H 	0.38307 0.23553 0.67343 0.05800
C 	C 	0.12857 0.96413 0.55883 0.02400
C 	C 	0.13237 0.96363 0.50993 -0.10100
H 	H 	0.14327 0.94773 0.49503 0.06100
C 	C 	0.11997 0.98723 0.48203 0.02500
H 	H 	0.12347 0.98783 0.44773 0.01400
C 	C 	0.10377 0.00843 0.50053 -0.10300
H 	H 	0.09527 0.02363 0.47983 0.06300
C 	C 	0.09887 0.00913 0.54853 0.01600
H 	H 	0.08717 0.02493 0.56213 0.02100
C 	C 	0.11127 0.98583 0.57933 -0.10100
H 	H 	0.10757 0.98543 0.61353 0.05600
C 	C 	0.12707 0.88723 0.56903 -0.01000
C 	C 	0.15177 0.87173 0.55453 -0.07300
H 	H 	0.18147 0.88813 0.55863 0.05200
C 	C 	0.13387 0.83093 0.53323 -0.01500
H 	H 	0.15157 0.82073 0.52173 0.03000
C 	C 	0.09117 0.80673 0.52943 -0.06300
H 	H 	0.07857 0.77803 0.51973 0.04700
C 	C 	0.06647 0.82423 0.53973 -0.01700
H 	H 	0.03727 0.80953 0.53183 0.03000
C 	C 	0.08457 0.86383 0.56183 -0.07400
H 	H 	0.06707 0.87473 0.57203 0.04000
O 	O 	0.52957 0.30853 0.55653 -0.34900
Ag	Ag	0.13079 0.59099 0.85274 0.50600
P 	P 	0.08207 0.55104 0.91829 0.00800
P 	P 	0.81340 0.27035 0.93317 0.00100
C 	C 	0.00583 0.35917 0.91057 -0.04000
C 	C 	0.02723 0.40647 0.91657 0.05300
C 	C 	0.04073 0.43067 0.87397 -0.08500
H 	H 	0.03853 0.41707 0.84387 0.05400
C 	C 	0.05703 0.47367 0.87447 -0.02700
H 	H 	0.06533 0.48917 0.84497 0.01400
C 	C 	0.06163 0.49467 0.91917 -0.03900
C 	C 	0.05023 0.47127 0.96047 -0.02100
H 	H 	0.05393 0.48447 0.99127 0.04000
C 	C 	0.03263 0.42677 0.95757 -0.09100
H 	H 	0.02453 0.41097 0.98687 0.06100
C 	C 	0.95863 0.33797 0.91647 0.05000
C 	C 	0.93393 0.32627 0.87607 -0.08700
H 	H 	0.94623 0.33097 0.84467 0.05600
C 	C 	0.88973 0.30697 0.88137 -0.01800
H 	H 	0.87303 0.30017 0.85277 0.03300
C 	C 	0.87003 0.29767 0.92497 -0.03700
C 	C 	0.89443 0.31047 0.96517 -0.02000
H 	H 	0.88153 0.30617 0.99617 0.01500
C 	C 	0.93793 0.32997 0.96197 -0.08300
H 	H 	0.95423 0.33797 0.99087 0.05700
C 	C 	0.03583 0.55617 0.91387 -0.00700
C 	C 	0.04073 0.59657 0.91377 -0.08400
H 	H 	0.06803 0.62067 0.91737 0.05500
C 	C 	0.00563 0.60157 0.90847 -0.00700
H 	H 	0.00933 0.62917 0.90677 0.02300
C 	C 	0.96653 0.56797 0.90557 -0.06900
H 	H 	0.94283 0.57187 0.90237 0.04500
C 	C 	0.96093 0.52797 0.90717 -0.01100
H 	H 	0.93323 0.50427 0.90557 0.03200
C 	C 	0.99453 0.52207 0.91097 -0.07000
H 	H 	0.99003 0.49417 0.91177 0.05500
C 	C 	0.10033 0.56767 0.97967 0.00600
C 	C 	0.14083 0.57417 0.99067 -0.07600
H 	H 	0.15783 0.57127 0.96677 0.04700
C 	C 	0.15473 0.58547 0.03957 -0.00800
H 	H 	0.18183 0.59017 0.04817 0.03000
C 	C 	0.13113 0.58997 0.07437 -0.06800
H 	H 	0.14133 0.59657 0.10667 0.05600
C 	C 	0.09233 0.58477 0.06297 -0.01100
H 	H 	0.07603 0.58897 0.08687 0.03700
C 	C 	0.07683 0.57307 0.01477 -0.07100
H 	H 	0.04973 0.56887 0.00677 0.05800
C 	C 	0.79523 0.29747 0.89217 0.02400
C 	C 	0.79903 0.29697 0.84327 -0.10000
H 	H 	0.80993 0.28107 0.82837 0.06100
C 	C 	0.78663 0.32057 0.81537 0.02400
H 	H 	0.79013 0.32117 0.78107 0.01400
C 	C 	0.77043 0.34177 0.83387 -0.10100
H 	H 	0.76193 0.35697 0.81317 0.06200
C 	C 	0.76553 0.34247 0.88187 0.01600
H 	H 	0.75383 0.35827 0.89547 0.02100
C 	C 	0.77793 0.31917 0.91267 -0.10100
H 	H 	0.77423 0.31877 0.94687 0.05600
C 	C 	0.79373 0.22057 0.90237 -0.01000
C 	C 	0.81843 0.20507 0.88787 -0.07300
H 	H 	0.84813 0.22147 0.89197 0.05200
C 	C 	0.80053 0.16427 0.86657 -0.01500
H 	H 	0.81823 0.15407 0.85507 0.03000
C 	C 	0.75783 0.14007 0.86277 -0.06300
H 	H 	0.74523 0.11137 0.85307 0.04700
C 	C 	0.73313 0.15757 0.87307 -0.01700
H 	H 	0.70393 0.14287 0.86517 0.03100
C 	C 	0.75123 0.19717 0.89517 -0.07400
H 	H 	0.73373 0.20807 0.90537 0.04000
O 	O 	0.19623 0.64187 0.88987 -0.34900
Ag	Ag	0.12686 0.20254 0.18607 0.50600
P 	P 	0.13563 0.25126 0.25162 0.00700
P 	P 	0.12361 0.51993 0.26650 0.00100
C 	C 	0.02000 0.32750 0.24390 -0.04000
C 	C 	0.04590 0.30610 0.24990 0.05300
C 	C 	0.05660 0.29260 0.20730 -0.08500
H 	H 	0.04520 0.29480 0.17720 0.05400
C 	C 	0.08330 0.27630 0.20780 -0.02700
H 	H 	0.09050 0.26800 0.17830 0.01400
C 	C 	0.09970 0.27170 0.25250 -0.03900
C 	C 	0.08770 0.28310 0.29380 -0.02100
H 	H 	0.09720 0.27940 0.32460 0.04000
C 	C 	0.06080 0.30070 0.29090 -0.09100
H 	H 	0.05310 0.30880 0.32020 0.06100
C 	C 	0.04600 0.37470 0.24980 0.04900
C 	C 	0.05900 0.39940 0.20940 -0.08700
H 	H 	0.05140 0.38710 0.17800 0.05500
C 	C 	0.08390 0.44360 0.21470 -0.01900
H 	H 	0.09380 0.46030 0.18610 0.03300
C 	C 	0.09430 0.46330 0.25830 -0.03600
C 	C 	0.08270 0.43890 0.29850 -0.02000
H 	H 	0.09130 0.45180 0.32950 0.01500
C 	C 	0.05870 0.39540 0.29530 -0.08200
H 	H 	0.05040 0.37910 0.32420 0.05600
C 	C 	0.18700 0.29750 0.24720 -0.00500
C 	C 	0.22250 0.29260 0.24710 -0.08600
H 	H 	0.21930 0.26530 0.25070 0.05500
C 	C 	0.26260 0.32770 0.24180 -0.00400
H 	H 	0.28650 0.32400 0.24010 0.02200
C 	C 	0.26810 0.36680 0.23890 -0.07200
H 	H 	0.29570 0.39050 0.23570 0.04600
C 	C 	0.23370 0.37240 0.24050 -0.00800
H 	H 	0.23770 0.40010 0.23890 0.03100
C 	C 	0.19420 0.33880 0.24430 -0.07300
H 	H 	0.17080 0.34330 0.24510 0.05600
C 	C 	0.13400 0.23300 0.31300 0.00600
C 	C 	0.10000 0.19250 0.32400 -0.07600
H 	H 	0.08010 0.17550 0.30010 0.04700
C 	C 	0.09740 0.17860 0.37290 -0.00800
H 	H 	0.07500 0.15150 0.38150 0.03000
C 	C 	0.12550 0.20220 0.40770 -0.06800
H 	H 	0.12190 0.19200 0.44000 0.05600
C 	C 	0.15910 0.24100 0.39630 -0.01100
H 	H 	0.17960 0.25730 0.42020 0.03700
C 	C 	0.16290 0.25650 0.34810 -0.07200
H 	H 	0.18580 0.28360 0.34010 0.05800
C 	C 	0.16890 0.53810 0.22550 0.02400
C 	C 	0.16460 0.53430 0.17660 -0.10000
H 	H 	0.13780 0.52340 0.16170 0.06100
C 	C 	0.20060 0.54670 0.14870 0.02400
H 	H 	0.19770 0.54320 0.11440 0.01400
C 	C 	0.23800 0.56290 0.16720 -0.10100
H 	H 	0.26170 0.57140 0.14650 0.06200
C 	C 	0.24360 0.56780 0.21520 0.01600
H 	H 	0.27110 0.57950 0.22880 0.02100
C 	C 	0.20790 0.55540 0.24600 -0.10100
H 	H 	0.21120 0.55910 0.28020 0.05600
C 	C 	0.09350 0.53960 0.23570 -0.01000
C 	C 	0.05330 0.51490 0.22120 -0.07300
H 	H 	0.04000 0.48520 0.22530 0.05200
C 	C 	0.03040 0.53280 0.19990 -0.01500
H 	H 	0.00250 0.51510 0.18840 0.03000
C 	C 	0.04890 0.57550 0.19610 -0.06300
H 	H 	0.03280 0.58810 0.18640 0.04700
C 	C 	0.09110 0.60020 0.20640 -0.01800
H 	H 	0.10560 0.62940 0.19850 0.03100
C 	C 	0.11260 0.58210 0.22850 -0.07400
H 	H 	0.14100 0.59960 0.23870 0.04000
O 	O 	0.11230 0.13710 0.22320 -0.34900
Ag	Ag	0.79353 0.53587 0.51940 0.50600
P 	P 	0.80230 0.58459 0.58495 0.00700
P 	P 	0.79028 0.85326 0.59983 0.00100
C 	C 	0.68667 0.66083 0.57723 -0.03900
C 	C 	0.71257 0.63943 0.58323 0.05300
C 	C 	0.72327 0.62593 0.54063 -0.08500
H 	H 	0.71187 0.62813 0.51053 0.05400
C 	C 	0.74997 0.60963 0.54113 -0.02700
H 	H 	0.75717 0.60133 0.51163 0.01400
C 	C 	0.76637 0.60503 0.58583 -0.03900
C 	C 	0.75437 0.61643 0.62713 -0.02100
H 	H 	0.76387 0.61273 0.65793 0.04000
C 	C 	0.72747 0.63403 0.62423 -0.09100
H 	H 	0.71977 0.64213 0.65353 0.06100
C 	C 	0.71267 0.70803 0.58313 0.04900
C 	C 	0.72567 0.73273 0.54273 -0.08600
H 	H 	0.71807 0.72043 0.51133 0.05500
C 	C 	0.75057 0.77693 0.54803 -0.01900
H 	H 	0.76047 0.79363 0.51943 0.03300
C 	C 	0.76097 0.79663 0.59163 -0.03600
C 	C 	0.74937 0.77223 0.63183 -0.02000
H 	H 	0.75797 0.78513 0.66283 0.01500
C 	C 	0.72537 0.72873 0.62863 -0.08200
H 	H 	0.71707 0.71243 0.65753 0.05600
C 	C 	0.85367 0.63083 0.58053 -0.00500
C 	C 	0.88917 0.62593 0.58043 -0.08600
H 	H 	0.88597 0.59863 0.58403 0.05500
C 	C 	0.92927 0.66103 0.57513 -0.00400
H 	H 	0.95317 0.65733 0.57343 0.02200
C 	C 	0.93477 0.70013 0.57223 -0.07200
H 	H 	0.96237 0.72383 0.56903 0.04600
C 	C 	0.90037 0.70573 0.57383 -0.00800
H 	H 	0.90437 0.73343 0.57223 0.03200
C 	C 	0.86087 0.67213 0.57763 -0.07300
H 	H 	0.83747 0.67663 0.57843 0.05600
C 	C 	0.80067 0.56633 0.64633 0.00600
C 	C 	0.76667 0.52583 0.65733 -0.07600
H 	H 	0.74677 0.50883 0.63343 0.04800
C 	C 	0.76407 0.51193 0.70623 -0.00800
H 	H 	0.74167 0.48483 0.71483 0.03000
C 	C 	0.79217 0.53553 0.74103 -0.06800
H 	H 	0.78857 0.52533 0.77333 0.05600
C 	C 	0.82577 0.57433 0.72963 -0.01100
H 	H 	0.84627 0.59063 0.75353 0.03700
C 	C 	0.82957 0.58983 0.68143 -0.07200
H 	H 	0.85247 0.61693 0.67343 0.05800
C 	C 	0.83557 0.87143 0.55883 0.02400
C 	C 	0.83127 0.86763 0.50993 -0.10000
H 	H 	0.80447 0.85673 0.49503 0.06100
C 	C 	0.86727 0.88003 0.48203 0.02400
H 	H 	0.86437 0.87653 0.44773 0.01400
C 	C 	0.90467 0.89623 0.50053 -0.10100
H 	H 	0.92837 0.90473 0.47983 0.06200
C 	C 	0.91027 0.90113 0.54853 0.01600
H 	H 	0.93777 0.91283 0.56213 0.02100
C 	C 	0.87457 0.88873 0.57933 -0.10100
H 	H 	0.87787 0.89243 0.61353 0.05600
C 	C 	0.76017 0.87293 0.56903 -0.01000
C 	C 	0.71997 0.84823 0.55453 -0.07300
H 	H 	0.70667 0.81853 0.55863 0.05200
C 	C 	0.69707 0.86613 0.53323 -0.01500
H 	H 	0.66917 0.84843 0.52173 0.03000
C 	C 	0.71557 0.90883 0.52943 -0.06300
H 	H 	0.69947 0.92143 0.51973 0.04700
C 	C 	0.75777 0.93353 0.53973 -0.01800
H 	H 	0.77227 0.96273 0.53183 0.03100
C 	C 	0.77927 0.91543 0.56183 -0.07400
H 	H 	0.80767 0.93293 0.57203 0.04000
O 	O 	0.77897 0.47043 0.55653 -0.34900
Ag	Ag	0.46019 0.86921 0.85274 0.50600
P 	P 	0.46896 0.91793 0.91829 0.00700
P 	P 	0.45694 0.18660 0.93317 0.00100
C 	C 	0.35333 0.99417 0.91057 -0.03800
C 	C 	0.37923 0.97277 0.91657 0.05300
C 	C 	0.38993 0.95927 0.87397 -0.08500
H 	H 	0.37853 0.96147 0.84387 0.05400
C 	C 	0.41663 0.94297 0.87447 -0.02700
H 	H 	0.42383 0.93467 0.84497 0.01400
C 	C 	0.43303 0.93837 0.91917 -0.03900
C 	C 	0.42103 0.94977 0.96047 -0.02100
H 	H 	0.43053 0.94607 0.99127 0.04000
C 	C 	0.39413 0.96737 0.95757 -0.09000
H 	H 	0.38643 0.97547 0.98687 0.06100
C 	C 	0.37933 0.04137 0.91647 0.04800
C 	C 	0.39233 0.06607 0.87607 -0.08600
H 	H 	0.38473 0.05377 0.84467 0.05500
C 	C 	0.41723 0.11027 0.88137 -0.01900
H 	H 	0.42713 0.12697 0.85277 0.03300
C 	C 	0.42763 0.12997 0.92497 -0.03600
C 	C 	0.41603 0.10557 0.96517 -0.02100
H 	H 	0.42463 0.11847 0.99617 0.01600
C 	C 	0.39203 0.06207 0.96197 -0.08100
H 	H 	0.38373 0.04577 0.99087 0.05600
C 	C 	0.52033 0.96417 0.91387 -0.00400
C 	C 	0.55583 0.95927 0.91377 -0.08800
H 	H 	0.55263 0.93197 0.91737 0.05600
C 	C 	0.59593 0.99437 0.90847 -0.00100
H 	H 	0.61983 0.99067 0.90677 0.02100
C 	C 	0.60143 0.03347 0.90557 -0.07500
H 	H 	0.62903 0.05717 0.90237 0.04700
C 	C 	0.56703 0.03907 0.90717 -0.00600
H 	H 	0.57103 0.06677 0.90557 0.03100
C 	C 	0.52753 0.00547 0.91097 -0.07600
H 	H 	0.50413 0.00997 0.91177 0.05700
C 	C 	0.46733 0.89967 0.97967 0.00600
C 	C 	0.43333 0.85917 0.99067 -0.07600
H 	H 	0.41343 0.84217 0.96677 0.04800
C 	C 	0.43073 0.84527 0.03957 -0.00800
H 	H 	0.40833 0.81817 0.04817 0.03000
C 	C 	0.45883 0.86887 0.07437 -0.06800
H 	H 	0.45523 0.85867 0.10667 0.05600
C 	C 	0.49243 0.90767 0.06297 -0.01100
H 	H 	0.51293 0.92397 0.08687 0.03700
C 	C 	0.49623 0.92317 0.01477 -0.07200
H 	H 	0.51913 0.95027 0.00677 0.05800
C 	C 	0.50223 0.20477 0.89217 0.02400
C 	C 	0.49793 0.20097 0.84327 -0.10000
H 	H 	0.47113 0.19007 0.82837 0.06100
C 	C 	0.53393 0.21337 0.81537 0.02400
H 	H 	0.53103 0.20987 0.78107 0.01400
C 	C 	0.57133 0.22957 0.83387 -0.10100
H 	H 	0.59503 0.23807 0.81317 0.06200
C 	C 	0.57693 0.23447 0.88187 0.01600
H 	H 	0.60443 0.24617 0.89547 0.02100
C 	C 	0.54123 0.22207 0.91267 -0.10100
H 	H 	0.54453 0.22577 0.94687 0.05600
C 	C 	0.42683 0.20627 0.90237 -0.01000
C 	C 	0.38663 0.18157 0.88787 -0.07300
H 	H 	0.37333 0.15187 0.89197 0.05200
C 	C 	0.36373 0.19947 0.86657 -0.01500
H 	H 	0.33583 0.18177 0.85507 0.03000
C 	C 	0.38223 0.24217 0.86277 -0.06300
H 	H 	0.36613 0.25477 0.85307 0.04700
C 	C 	0.42443 0.26687 0.87307 -0.01700
H 	H 	0.43893 0.29607 0.86517 0.03100
C 	C 	0.44593 0.24877 0.89517 -0.07400
H 	H 	0.47433 0.26627 0.90537 0.04000
O 	O 	0.44563 0.80377 0.88987 -0.34900
Ag	Ag	0.07568 0.87314 0.18607 0.50600
P 	P 	0.11563 0.86437 0.25162 0.00700
P 	P 	0.39632 0.87639 0.26650 0.00100
C 	C 	0.30750 0.98000 0.24390 -0.03800
C 	C 	0.26020 0.95410 0.24990 0.05300
C 	C 	0.23600 0.94340 0.20730 -0.08500
H 	H 	0.24960 0.95480 0.17720 0.05400
C 	C 	0.19300 0.91670 0.20780 -0.02700
H 	H 	0.17750 0.90950 0.17830 0.01400
C 	C 	0.17200 0.90030 0.25250 -0.03900
C 	C 	0.19540 0.91230 0.29380 -0.02100
H 	H 	0.18220 0.90280 0.32460 0.04000
C 	C 	0.23990 0.93920 0.29090 -0.09100
H 	H 	0.25570 0.94690 0.32020 0.06100
C 	C 	0.32870 0.95400 0.24980 0.04900
C 	C 	0.34040 0.94100 0.20940 -0.08600
H 	H 	0.33570 0.94860 0.17800 0.05500
C 	C 	0.35970 0.91610 0.21470 -0.01900
H 	H 	0.36650 0.90620 0.18610 0.03300
C 	C 	0.36900 0.90570 0.25830 -0.03600
C 	C 	0.35620 0.91730 0.29850 -0.02000
H 	H 	0.36050 0.90870 0.32950 0.01500
C 	C 	0.33670 0.94130 0.29530 -0.08200
H 	H 	0.32870 0.94960 0.32420 0.05600
C 	C 	0.11050 0.81300 0.24720 -0.00500
C 	C 	0.07010 0.77750 0.24710 -0.08600
H 	H 	0.04600 0.78070 0.25070 0.05500
C 	C 	0.06510 0.73740 0.24180 -0.00400
H 	H 	0.03750 0.71350 0.24010 0.02200
C 	C 	0.09870 0.73190 0.23890 -0.07200
H 	H 	0.09480 0.70430 0.23570 0.04600
C 	C 	0.13870 0.76630 0.24050 -0.00800
H 	H 	0.16240 0.76230 0.23890 0.03100
C 	C 	0.14460 0.80580 0.24430 -0.07300
H 	H 	0.17250 0.82920 0.24510 0.05600
C 	C 	0.09900 0.86600 0.31300 0.00600
C 	C 	0.09250 0.90000 0.32400 -0.07600
H 	H 	0.09540 0.91990 0.30010 0.04800
C 	C 	0.08120 0.90260 0.37290 -0.00800
H 	H 	0.07650 0.92500 0.38150 0.03000
C 	C 	0.07670 0.87450 0.40770 -0.06800
H 	H 	0.07010 0.87810 0.44000 0.05600
C 	C 	0.08190 0.84090 0.39630 -0.01100
H 	H 	0.07770 0.82040 0.42020 0.03700
C 	C 	0.09360 0.83710 0.34810 -0.07200
H 	H 	0.09780 0.81420 0.34010 0.05800
C 	C 	0.36920 0.83110 0.22550 0.02400
C 	C 	0.36970 0.83540 0.17660 -0.10000
H 	H 	0.38560 0.86220 0.16170 0.06100
C 	C 	0.34610 0.79940 0.14870 0.02400
H 	H 	0.34550 0.80230 0.11440 0.01400
C 	C 	0.32490 0.76200 0.16720 -0.10100
H 	H 	0.30970 0.73830 0.14650 0.06200
C 	C 	0.32420 0.75640 0.21520 0.01500
H 	H 	0.30840 0.72890 0.22880 0.02100
C 	C 	0.34750 0.79210 0.24600 -0.10100
H 	H 	0.34790 0.78880 0.28020 0.05600
C 	C 	0.44610 0.90650 0.23570 -0.01000
C 	C 	0.46160 0.94670 0.22120 -0.07300
H 	H 	0.44520 0.96000 0.22530 0.05300
C 	C 	0.50240 0.96960 0.19990 -0.01500
H 	H 	0.51260 0.99750 0.18840 0.03000
C 	C 	0.52660 0.95110 0.19610 -0.06300
H 	H 	0.55530 0.96720 0.18640 0.04700
C 	C 	0.50910 0.90890 0.20640 -0.01700
H 	H 	0.52380 0.89440 0.19850 0.03100
C 	C 	0.46950 0.88740 0.22850 -0.07400
H 	H 	0.45860 0.85900 0.23870 0.04000
O 	O 	0.02480 0.88770 0.22320 -0.34900
Ag	Ag	0.74235 0.20647 0.51940 0.50600
P 	P 	0.78230 0.19770 0.58495 0.00700
P 	P 	0.06299 0.20972 0.59983 0.00100
C 	C 	0.97417 0.31333 0.57723 -0.04000
C 	C 	0.92687 0.28743 0.58323 0.05400
C 	C 	0.90267 0.27673 0.54063 -0.08500
H 	H 	0.91627 0.28813 0.51053 0.05500
C 	C 	0.85967 0.25003 0.54113 -0.02700
H 	H 	0.84417 0.24283 0.51163 0.01400
C 	C 	0.83867 0.23363 0.58583 -0.03900
C 	C 	0.86207 0.24563 0.62713 -0.02100
H 	H 	0.84887 0.23613 0.65793 0.04000
C 	C 	0.90657 0.27253 0.62423 -0.09100
H 	H 	0.92237 0.28023 0.65353 0.06100
C 	C 	0.99537 0.28733 0.58313 0.05200
C 	C 	0.00707 0.27433 0.54273 -0.08900
H 	H 	0.00237 0.28193 0.51133 0.05600
C 	C 	0.02637 0.24943 0.54803 -0.01700
H 	H 	0.03317 0.23953 0.51943 0.03200
C 	C 	0.03567 0.23903 0.59163 -0.03800
C 	C 	0.02287 0.25063 0.63183 -0.01800
H 	H 	0.02717 0.24203 0.66283 0.01400
C 	C 	0.00337 0.27463 0.62863 -0.08600
H 	H 	0.99537 0.28293 0.65753 0.05800
C 	C 	0.77717 0.14633 0.58053 -0.00500
C 	C 	0.73677 0.11083 0.58043 -0.08600
H 	H 	0.71267 0.11403 0.58403 0.05500
C 	C 	0.73177 0.07073 0.57513 -0.00400
H 	H 	0.70417 0.04683 0.57343 0.02200
C 	C 	0.76537 0.06523 0.57223 -0.07200
H 	H 	0.76147 0.03763 0.56903 0.04600
C 	C 	0.80537 0.09963 0.57383 -0.00800
H 	H 	0.82907 0.09563 0.57223 0.03100
C 	C 	0.81127 0.13913 0.57763 -0.07300
H 	H 	0.83917 0.16253 0.57843 0.05600
C 	C 	0.76567 0.19933 0.64633 0.00600
C 	C 	0.75917 0.23333 0.65733 -0.07600
H 	H 	0.76207 0.25323 0.63343 0.04800
C 	C 	0.74787 0.23593 0.70623 -0.00800
H 	H 	0.74317 0.25833 0.71483 0.03000
C 	C 	0.74337 0.20783 0.74103 -0.06800
H 	H 	0.73677 0.21143 0.77333 0.05600
C 	C 	0.74857 0.17423 0.72963 -0.01100
H 	H 	0.74437 0.15373 0.75353 0.03700
C 	C 	0.76027 0.17043 0.68143 -0.07200
H 	H 	0.76447 0.14753 0.67343 0.05800
C 	C 	0.03587 0.16443 0.55883 0.02400
C 	C 	0.03637 0.16873 0.50993 -0.09900
H 	H 	0.05227 0.19553 0.49503 0.06100
C 	C 	0.01277 0.13273 0.48203 0.02200
H 	H 	0.01217 0.13563 0.44773 0.01500
C 	C 	0.99157 0.09533 0.50053 -0.10000
H 	H 	0.97637 0.07163 0.47983 0.06200
C 	C 	0.99087 0.08973 0.54853 0.01500
H 	H 	0.97507 0.06223 0.56213 0.02100
C 	C 	0.01417 0.12543 0.57933 -0.10100
H 	H 	0.01457 0.12213 0.61353 0.05600
C 	C 	0.11277 0.23983 0.56903 -0.01000
C 	C 	0.12827 0.28003 0.55453 -0.07300
H 	H 	0.11187 0.29333 0.55863 0.05200
C 	C 	0.16907 0.30293 0.53323 -0.01500
H 	H 	0.17927 0.33083 0.52173 0.03000
C 	C 	0.19327 0.28443 0.52943 -0.06300
H 	H 	0.22197 0.30053 0.51973 0.04700
C 	C 	0.17577 0.24223 0.53973 -0.01800
H 	H 	0.19047 0.22773 0.53183 0.03100
C 	C 	0.13617 0.22073 0.56183 -0.07400
H 	H 	0.12527 0.19233 0.57203 0.04000
O 	O 	0.69147 0.22103 0.55653 -0.34900
Ag	Ag	0.40901 0.53981 0.85274 0.50600
P 	P 	0.44896 0.53104 0.91829 0.00700
P 	P 	0.72965 0.54306 0.93317 0.00100
C 	C 	0.64083 0.64667 0.91057 -0.03900
C 	C 	0.59353 0.62077 0.91657 0.05300
C 	C 	0.56933 0.61007 0.87397 -0.08500
H 	H 	0.58293 0.62147 0.84387 0.05400
C 	C 	0.52633 0.58337 0.87447 -0.02700
H 	H 	0.51083 0.57617 0.84497 0.01400
C 	C 	0.50533 0.56697 0.91917 -0.03900
C 	C 	0.52873 0.57897 0.96047 -0.02100
H 	H 	0.51553 0.56947 0.99127 0.04000
C 	C 	0.57323 0.60587 0.95757 -0.09100
H 	H 	0.58903 0.61357 0.98687 0.06100
C 	C 	0.66203 0.62067 0.91647 0.04900
C 	C 	0.67373 0.60767 0.87607 -0.08600
H 	H 	0.66903 0.61527 0.84467 0.05500
C 	C 	0.69303 0.58277 0.88137 -0.01900
H 	H 	0.69983 0.57287 0.85277 0.03300
C 	C 	0.70233 0.57237 0.92497 -0.03600
C 	C 	0.68953 0.58397 0.96517 -0.02000
H 	H 	0.69383 0.57537 0.99617 0.01500
C 	C 	0.67003 0.60797 0.96197 -0.08200
H 	H 	0.66203 0.61627 0.99087 0.05600
C 	C 	0.44383 0.47967 0.91387 -0.00500
C 	C 	0.40343 0.44417 0.91377 -0.08600
H 	H 	0.37933 0.44737 0.91737 0.05500
C 	C 	0.39843 0.40407 0.90847 -0.00400
H 	H 	0.37083 0.38017 0.90677 0.02200
C 	C 	0.43203 0.39857 0.90557 -0.07200
H 	H 	0.42813 0.37097 0.90237 0.04600
C 	C 	0.47203 0.43297 0.90717 -0.00800
H 	H 	0.49573 0.42897 0.90557 0.03200
C 	C 	0.47793 0.47247 0.91097 -0.07300
H 	H 	0.50583 0.49587 0.91177 0.05600
C 	C 	0.43233 0.53267 0.97967 0.00600
C 	C 	0.42583 0.56667 0.99067 -0.07600
H 	H 	0.42873 0.58657 0.96677 0.04800
C 	C 	0.41453 0.56927 0.03957 -0.00800
H 	H 	0.40983 0.59167 0.04817 0.03000
C 	C 	0.41003 0.54117 0.07437 -0.06800
H 	H 	0.40343 0.54477 0.10667 0.05600
C 	C 	0.41523 0.50757 0.06297 -0.01100
H 	H 	0.41103 0.48707 0.08687 0.03700
C 	C 	0.42693 0.50377 0.01477 -0.07200
H 	H 	0.43113 0.48087 0.00677 0.05800
C 	C 	0.70253 0.49777 0.89217 0.02400
C 	C 	0.70303 0.50207 0.84327 -0.10000
H 	H 	0.71893 0.52887 0.82837 0.06100
C 	C 	0.67943 0.46607 0.81537 0.02400
H 	H 	0.67883 0.46897 0.78107 0.01400
C 	C 	0.65823 0.42867 0.83387 -0.10100
H 	H 	0.64303 0.40497 0.81317 0.06200
C 	C 	0.65753 0.42307 0.88187 0.01600
H 	H 	0.64173 0.39557 0.89547 0.02100
C 	C 	0.68083 0.45877 0.91267 -0.10100
H 	H 	0.68123 0.45547 0.94687 0.05600
C 	C 	0.77943 0.57317 0.90237 -0.01000
C 	C 	0.79493 0.61337 0.88787 -0.07300
H 	H 	0.77853 0.62667 0.89197 0.05200
C 	C 	0.83573 0.63627 0.86657 -0.01500
H 	H 	0.84593 0.66417 0.85507 0.03000
C 	C 	0.85993 0.61777 0.86277 -0.06300
H 	H 	0.88863 0.63387 0.85307 0.04700
C 	C 	0.84243 0.57557 0.87307 -0.01700
H 	H 	0.85713 0.56107 0.86517 0.03100
C 	C 	0.80283 0.55407 0.89517 -0.07400
H 	H 	0.79193 0.52567 0.90537 0.04000
O 	O 	0.35813 0.55437 0.88987 -0.34900
C 	C 	-0.00000 0.14350 0.75000 0.49300
O 	O 	-0.00000 0.17680 0.75000 -0.37100
C 	C 	0.66667 0.47683 0.08333 0.49400
O 	O 	0.66667 0.51013 0.08333 -0.37100
C 	C 	0.33333 0.81017 0.41667 0.49400
O 	O 	0.33333 0.84347 0.41667 -0.37100
C 	C 	0.85650 0.85650 0.75000 0.49400
O 	O 	0.82320 0.82320 0.75000 -0.37100
C 	C 	0.52317 0.18983 0.08333 0.49400
O 	O 	0.48987 0.15653 0.08333 -0.37100
C 	C 	0.18983 0.52317 0.41667 0.49400
O 	O 	0.15653 0.48987 0.41667 -0.37100
C 	C 	0.14350 0.00000 0.75000 0.49300
O 	O 	0.17680 0.00000 0.75000 -0.37100
C 	C 	0.81017 0.33333 0.08333 0.49400
O 	O 	0.84347 0.33333 0.08333 -0.37100
C 	C 	0.47683 0.66667 0.41667 0.49400
O 	O 	0.51013 0.66667 0.41667 -0.37100
C 	C 	-0.00000 0.85650 0.25000 0.49300
O 	O 	-0.00000 0.82320 0.25000 -0.37100
C 	C 	0.66667 0.18983 0.58333 0.49400
O 	O 	0.66667 0.15653 0.58333 -0.37100
C 	C 	0.33333 0.52317 0.91667 0.49400
O 	O 	0.33333 0.48987 0.91667 -0.37100
C 	C 	0.14350 0.14350 0.25000 0.49400
O 	O 	0.17680 0.17680 0.25000 -0.37100
C 	C 	0.81017 0.47683 0.58333 0.49400
O 	O 	0.84347 0.51013 0.58333 -0.37100
C 	C 	0.47683 0.81017 0.91667 0.49400
O 	O 	0.51013 0.84347 0.91667 -0.37100
C 	C 	0.85650 0.00000 0.25000 0.49300
O 	O 	0.82320 0.00000 0.25000 -0.37100
C 	C 	0.52317 0.33333 0.58333 0.49400
O 	O 	0.48987 0.33333 0.58333 -0.37100
C 	C 	0.18983 0.66667 0.91667 0.49400
O 	O 	0.15653 0.66667 0.91667 -0.37100
