data_crystal

_cell_length_a 16.18000
_cell_length_b 43.07700
_cell_length_c 45.48500
_cell_angle_alpha 90.00000
_cell_angle_beta  90.00000
_cell_angle_gamma 90.00000

_symmetry_space_group_name_	'P 1'
_symmetry_space_group_name_H-M	'P 1'

loop_
_symmetry_equiv_pos_as_xyz
  x,y,z

loop_
_atom_site_label
_atom_site_type_symbol
_atom_site_fract_x
_atom_site_fract_y
_atom_site_fract_z
_atom_site_charge
Cu	Cu	0.50118 0.42879 0.06245 0.83900
Cu	Cu	0.43155 0.40796 0.98948 0.83900
C 	C 	0.53330 0.49541 0.16348 -0.02400
C 	C 	0.58230 0.47863 0.18251 -0.03000
H 	H 	0.59620 0.45830 0.17780 -0.00600
C 	C 	0.61160 0.49157 0.20858 -0.03000
C 	C 	0.59090 0.52226 0.21518 -0.03300
H 	H 	0.61000 0.53130 0.23250 0.02400
C 	C 	0.54210 0.53926 0.19614 -0.02200
C 	C 	0.51180 0.52553 0.17050 -0.03900
H 	H 	0.47700 0.53670 0.15810 0.06800
C 	C 	0.30260 0.36899 0.12112 -0.02100
H 	H 	0.25400 0.36500 0.11090 -0.00900
C 	C 	0.30230 0.36891 0.15178 -0.03300
N 	N 	0.43470 0.49453 0.12222 -0.08400
C 	C 	0.49940 0.48255 0.13639 0.11700
N 	N 	0.52790 0.45872 0.12062 -0.20400
N 	N 	0.48074 0.45600 0.09671 -0.17800
N 	N 	0.42310 0.47812 0.09769 -0.05400
N 	N 	0.71463 0.45163 0.22553 -0.20100
N 	N 	0.74250 0.44224 0.25162 -0.17600
N 	N 	0.70570 0.45930 0.27226 -0.05500
N 	N 	0.65510 0.47923 0.25892 -0.08700
C 	C 	0.66062 0.47448 0.23004 0.12000
N 	N 	0.52510 0.61853 0.21847 -0.16100
N 	N 	0.45690 0.61507 0.20313 -0.04700
N 	N 	0.45290 0.58603 0.19246 -0.08300
N 	N 	0.39860 0.38740 0.02872 -0.17400
N 	N 	0.41500 0.39574 0.05676 -0.21100
C 	C 	0.22713 0.36390 0.16880 0.11800
N 	N 	0.21830 0.37230 0.19679 -0.08500
N 	N 	0.14379 0.36321 0.20574 -0.05500
N 	N 	0.10657 0.34919 0.18326 -0.16300
N 	N 	0.15806 0.34961 0.16044 -0.20600
C 	C 	0.52080 0.57175 0.20259 0.11500
N 	N 	0.56760 0.59127 0.21874 -0.20500
Cu	Cu	0.50118 0.92879 0.56245 0.83800
Cu	Cu	0.43155 0.90796 0.48948 0.83800
C 	C 	0.53330 0.99541 0.66348 -0.02600
C 	C 	0.58230 0.97863 0.68251 -0.03100
H 	H 	0.59620 0.95830 0.67780 -0.00700
C 	C 	0.61160 0.99157 0.70858 -0.03100
C 	C 	0.59090 0.02226 0.71518 -0.03400
H 	H 	0.61000 0.03130 0.73250 0.02300
C 	C 	0.54210 0.03926 0.69614 -0.02300
C 	C 	0.51180 0.02553 0.67050 -0.04000
H 	H 	0.47700 0.03670 0.65810 0.06700
C 	C 	0.30260 0.86899 0.62112 -0.02200
H 	H 	0.25400 0.86500 0.61090 -0.01000
C 	C 	0.30230 0.86891 0.65178 -0.03400
N 	N 	0.43470 0.99453 0.62222 -0.08500
C 	C 	0.49940 0.98255 0.63639 0.11600
N 	N 	0.52790 0.95872 0.62062 -0.20500
N 	N 	0.48074 0.95600 0.59671 -0.17900
N 	N 	0.42310 0.97812 0.59769 -0.05500
N 	N 	0.71463 0.95163 0.72553 -0.20200
N 	N 	0.74250 0.94224 0.75162 -0.17700
N 	N 	0.70570 0.95930 0.77226 -0.05600
N 	N 	0.65510 0.97923 0.75892 -0.08800
C 	C 	0.66062 0.97448 0.73004 0.11900
N 	N 	0.52510 0.11853 0.71847 -0.16200
N 	N 	0.45690 0.11507 0.70313 -0.04800
N 	N 	0.45290 0.08603 0.69246 -0.08400
N 	N 	0.39860 0.88740 0.52872 -0.17500
N 	N 	0.41500 0.89574 0.55676 -0.21100
C 	C 	0.22713 0.86390 0.66880 0.11800
N 	N 	0.21830 0.87230 0.69679 -0.08500
N 	N 	0.14379 0.86321 0.70574 -0.05500
N 	N 	0.10657 0.84919 0.68326 -0.16300
N 	N 	0.15806 0.84961 0.66044 -0.20600
C 	C 	0.52080 0.07175 0.70259 0.11500
N 	N 	0.56760 0.09127 0.71874 -0.20500
Cu	Cu	0.00118 0.42879 0.56245 0.83800
Cu	Cu	0.93155 0.40796 0.48948 0.83800
C 	C 	0.03330 0.49541 0.66348 -0.02600
C 	C 	0.08230 0.47863 0.68251 -0.03100
H 	H 	0.09620 0.45830 0.67780 -0.00700
C 	C 	0.11160 0.49157 0.70858 -0.03100
C 	C 	0.09090 0.52226 0.71518 -0.03400
H 	H 	0.11000 0.53130 0.73250 0.02300
C 	C 	0.04210 0.53926 0.69614 -0.02300
C 	C 	0.01180 0.52553 0.67050 -0.04000
H 	H 	0.97700 0.53670 0.65810 0.06700
C 	C 	0.80260 0.36899 0.62112 -0.02200
H 	H 	0.75400 0.36500 0.61090 -0.01000
C 	C 	0.80230 0.36891 0.65178 -0.03400
N 	N 	0.93470 0.49453 0.62222 -0.08500
C 	C 	0.99940 0.48255 0.63639 0.11600
N 	N 	0.02790 0.45872 0.62062 -0.20500
N 	N 	0.98074 0.45600 0.59671 -0.17900
N 	N 	0.92310 0.47812 0.59769 -0.05500
N 	N 	0.21463 0.45163 0.72553 -0.20200
N 	N 	0.24250 0.44224 0.75162 -0.17700
N 	N 	0.20570 0.45930 0.77226 -0.05600
N 	N 	0.15510 0.47923 0.75892 -0.08800
C 	C 	0.16062 0.47448 0.73004 0.11900
N 	N 	0.02510 0.61853 0.71847 -0.16200
N 	N 	0.95690 0.61507 0.70313 -0.04800
N 	N 	0.95290 0.58603 0.69246 -0.08400
N 	N 	0.89860 0.38740 0.52872 -0.17500
N 	N 	0.91500 0.39574 0.55676 -0.21100
C 	C 	0.72713 0.36390 0.66880 0.11800
N 	N 	0.71830 0.37230 0.69679 -0.08500
N 	N 	0.64379 0.36321 0.70574 -0.05500
N 	N 	0.60657 0.34919 0.68326 -0.16300
N 	N 	0.65806 0.34961 0.66044 -0.20600
C 	C 	0.02080 0.57175 0.70259 0.11500
N 	N 	0.06760 0.59127 0.71874 -0.20500
Cu	Cu	0.00118 0.92879 0.06245 0.83800
Cu	Cu	0.93155 0.90796 0.98948 0.83800
C 	C 	0.03330 0.99541 0.16348 -0.02600
C 	C 	0.08230 0.97863 0.18251 -0.03100
H 	H 	0.09620 0.95830 0.17780 -0.00700
C 	C 	0.11160 0.99157 0.20858 -0.03100
C 	C 	0.09090 0.02226 0.21518 -0.03400
H 	H 	0.11000 0.03130 0.23250 0.02300
C 	C 	0.04210 0.03926 0.19614 -0.02300
C 	C 	0.01180 0.02553 0.17050 -0.04000
H 	H 	0.97700 0.03670 0.15810 0.06700
C 	C 	0.80260 0.86899 0.12112 -0.02200
H 	H 	0.75400 0.86500 0.11090 -0.01000
C 	C 	0.80230 0.86891 0.15178 -0.03400
N 	N 	0.93470 0.99453 0.12222 -0.08500
C 	C 	0.99940 0.98255 0.13639 0.11600
N 	N 	0.02790 0.95872 0.12062 -0.20500
N 	N 	0.98074 0.95600 0.09671 -0.17900
N 	N 	0.92310 0.97812 0.09769 -0.05500
N 	N 	0.21463 0.95163 0.22553 -0.20200
N 	N 	0.24250 0.94224 0.25162 -0.17700
N 	N 	0.20570 0.95930 0.27226 -0.05600
N 	N 	0.15510 0.97923 0.25892 -0.08800
C 	C 	0.16062 0.97448 0.23004 0.11900
N 	N 	0.02510 0.11853 0.21847 -0.16200
N 	N 	0.95690 0.11507 0.20313 -0.04800
N 	N 	0.95290 0.08603 0.19246 -0.08400
N 	N 	0.89860 0.88740 0.02872 -0.17500
N 	N 	0.91500 0.89574 0.05676 -0.21100
C 	C 	0.72713 0.86390 0.16880 0.11800
N 	N 	0.71830 0.87230 0.19679 -0.08500
N 	N 	0.64379 0.86321 0.20574 -0.05500
N 	N 	0.60657 0.84919 0.18326 -0.16300
N 	N 	0.65806 0.84961 0.16044 -0.20600
C 	C 	0.02080 0.07175 0.20259 0.11500
N 	N 	0.06760 0.09127 0.21874 -0.20500
Cu	Cu	0.24882 0.32121 0.06245 0.83800
Cu	Cu	0.31845 0.34204 0.98948 0.83800
C 	C 	0.21670 0.25459 0.16348 -0.02500
C 	C 	0.16770 0.27137 0.18251 -0.03100
H 	H 	0.15380 0.29170 0.17780 -0.00700
C 	C 	0.13840 0.25843 0.20858 -0.03100
C 	C 	0.15910 0.22774 0.21518 -0.03400
H 	H 	0.14000 0.21870 0.23250 0.02300
C 	C 	0.20790 0.21074 0.19614 -0.02300
C 	C 	0.23820 0.22447 0.17050 -0.04000
H 	H 	0.27300 0.21330 0.15810 0.06700
C 	C 	0.44740 0.38101 0.12112 -0.02200
H 	H 	0.49600 0.38500 0.11090 -0.01000
C 	C 	0.44770 0.38109 0.15178 -0.03400
N 	N 	0.31530 0.25547 0.12222 -0.08500
C 	C 	0.25060 0.26745 0.13639 0.11600
N 	N 	0.22210 0.29128 0.12062 -0.20500
N 	N 	0.26926 0.29400 0.09671 -0.17900
N 	N 	0.32690 0.27188 0.09769 -0.05500
N 	N 	0.03537 0.29837 0.22553 -0.20200
N 	N 	0.00750 0.30776 0.25162 -0.17700
N 	N 	0.04430 0.29070 0.27226 -0.05600
N 	N 	0.09490 0.27077 0.25892 -0.08800
C 	C 	0.08938 0.27552 0.23004 0.11900
N 	N 	0.22490 0.13147 0.21847 -0.16200
N 	N 	0.29310 0.13493 0.20313 -0.04800
N 	N 	0.29710 0.16397 0.19246 -0.08400
N 	N 	0.35140 0.36260 0.02872 -0.17500
N 	N 	0.33500 0.35426 0.05676 -0.21100
C 	C 	0.52287 0.38610 0.16880 0.11800
N 	N 	0.53170 0.37770 0.19679 -0.08500
N 	N 	0.60621 0.38679 0.20574 -0.05500
N 	N 	0.64343 0.40081 0.18326 -0.16300
N 	N 	0.59194 0.40039 0.16044 -0.20600
C 	C 	0.22920 0.17825 0.20259 0.11500
N 	N 	0.18240 0.15873 0.21874 -0.20500
Cu	Cu	0.24882 0.82121 0.56245 0.83800
Cu	Cu	0.31845 0.84204 0.48948 0.83800
C 	C 	0.21670 0.75459 0.66348 -0.02500
C 	C 	0.16770 0.77137 0.68251 -0.03100
H 	H 	0.15380 0.79170 0.67780 -0.00700
C 	C 	0.13840 0.75843 0.70858 -0.03100
C 	C 	0.15910 0.72774 0.71518 -0.03400
H 	H 	0.14000 0.71870 0.73250 0.02300
C 	C 	0.20790 0.71074 0.69614 -0.02300
C 	C 	0.23820 0.72447 0.67050 -0.04000
H 	H 	0.27300 0.71330 0.65810 0.06700
C 	C 	0.44740 0.88101 0.62112 -0.02200
H 	H 	0.49600 0.88500 0.61090 -0.01000
C 	C 	0.44770 0.88109 0.65178 -0.03400
N 	N 	0.31530 0.75547 0.62222 -0.08500
C 	C 	0.25060 0.76745 0.63639 0.11600
N 	N 	0.22210 0.79128 0.62062 -0.20500
N 	N 	0.26926 0.79400 0.59671 -0.17900
N 	N 	0.32690 0.77188 0.59769 -0.05500
N 	N 	0.03537 0.79837 0.72553 -0.20200
N 	N 	0.00750 0.80776 0.75162 -0.17700
N 	N 	0.04430 0.79070 0.77226 -0.05600
N 	N 	0.09490 0.77077 0.75892 -0.08800
C 	C 	0.08938 0.77552 0.73004 0.11900
N 	N 	0.22490 0.63147 0.71847 -0.16200
N 	N 	0.29310 0.63493 0.70313 -0.04800
N 	N 	0.29710 0.66397 0.69246 -0.08400
N 	N 	0.35140 0.86260 0.52872 -0.17500
N 	N 	0.33500 0.85426 0.55676 -0.21100
C 	C 	0.52287 0.88610 0.66880 0.11800
N 	N 	0.53170 0.87770 0.69679 -0.08500
N 	N 	0.60621 0.88679 0.70574 -0.05500
N 	N 	0.64343 0.90081 0.68326 -0.16300
N 	N 	0.59194 0.90039 0.66044 -0.20600
C 	C 	0.22920 0.67825 0.70259 0.11500
N 	N 	0.18240 0.65873 0.71874 -0.20500
Cu	Cu	0.74882 0.32121 0.56245 0.83800
Cu	Cu	0.81845 0.34204 0.48948 0.83800
C 	C 	0.71670 0.25459 0.66348 -0.02500
C 	C 	0.66770 0.27137 0.68251 -0.03100
H 	H 	0.65380 0.29170 0.67780 -0.00700
C 	C 	0.63840 0.25843 0.70858 -0.03100
C 	C 	0.65910 0.22774 0.71518 -0.03400
H 	H 	0.64000 0.21870 0.73250 0.02300
C 	C 	0.70790 0.21074 0.69614 -0.02300
C 	C 	0.73820 0.22447 0.67050 -0.04000
H 	H 	0.77300 0.21330 0.65810 0.06700
C 	C 	0.94740 0.38101 0.62112 -0.02200
H 	H 	0.99600 0.38500 0.61090 -0.01000
C 	C 	0.94770 0.38109 0.65178 -0.03400
N 	N 	0.81530 0.25547 0.62222 -0.08500
C 	C 	0.75060 0.26745 0.63639 0.11600
N 	N 	0.72210 0.29128 0.62062 -0.20500
N 	N 	0.76926 0.29400 0.59671 -0.17900
N 	N 	0.82690 0.27188 0.59769 -0.05500
N 	N 	0.53537 0.29837 0.72553 -0.20200
N 	N 	0.50750 0.30776 0.75162 -0.17700
N 	N 	0.54430 0.29070 0.77226 -0.05600
N 	N 	0.59490 0.27077 0.75892 -0.08800
C 	C 	0.58938 0.27552 0.73004 0.11900
N 	N 	0.72490 0.13147 0.71847 -0.16200
N 	N 	0.79310 0.13493 0.70313 -0.04800
N 	N 	0.79710 0.16397 0.69246 -0.08400
N 	N 	0.85140 0.36260 0.52872 -0.17500
N 	N 	0.83500 0.35426 0.55676 -0.21100
C 	C 	0.02287 0.38610 0.66880 0.11800
N 	N 	0.03170 0.37770 0.69679 -0.08500
N 	N 	0.10621 0.38679 0.70574 -0.05500
N 	N 	0.14343 0.40081 0.68326 -0.16300
N 	N 	0.09194 0.40039 0.66044 -0.20600
C 	C 	0.72920 0.17825 0.70259 0.11500
N 	N 	0.68240 0.15873 0.71874 -0.20500
Cu	Cu	0.74882 0.82121 0.06245 0.83800
Cu	Cu	0.81845 0.84204 0.98948 0.83800
C 	C 	0.71670 0.75459 0.16348 -0.02500
C 	C 	0.66770 0.77137 0.18251 -0.03100
H 	H 	0.65380 0.79170 0.17780 -0.00700
C 	C 	0.63840 0.75843 0.20858 -0.03100
C 	C 	0.65910 0.72774 0.21518 -0.03400
H 	H 	0.64000 0.71870 0.23250 0.02300
C 	C 	0.70790 0.71074 0.19614 -0.02300
C 	C 	0.73820 0.72447 0.17050 -0.04000
H 	H 	0.77300 0.71330 0.15810 0.06700
C 	C 	0.94740 0.88101 0.12112 -0.02200
H 	H 	0.99600 0.88500 0.11090 -0.01000
C 	C 	0.94770 0.88109 0.15178 -0.03400
N 	N 	0.81530 0.75547 0.12222 -0.08500
C 	C 	0.75060 0.76745 0.13639 0.11600
N 	N 	0.72210 0.79128 0.12062 -0.20500
N 	N 	0.76926 0.79400 0.09671 -0.17900
N 	N 	0.82690 0.77188 0.09769 -0.05500
N 	N 	0.53537 0.79837 0.22553 -0.20200
N 	N 	0.50750 0.80776 0.25162 -0.17700
N 	N 	0.54430 0.79070 0.27226 -0.05600
N 	N 	0.59490 0.77077 0.25892 -0.08800
C 	C 	0.58938 0.77552 0.23004 0.11900
N 	N 	0.72490 0.63147 0.21847 -0.16200
N 	N 	0.79310 0.63493 0.20313 -0.04800
N 	N 	0.79710 0.66397 0.19246 -0.08400
N 	N 	0.85140 0.86260 0.02872 -0.17500
N 	N 	0.83500 0.85426 0.05676 -0.21100
C 	C 	0.02287 0.88610 0.16880 0.11800
N 	N 	0.03170 0.87770 0.19679 -0.08500
N 	N 	0.10621 0.88679 0.20574 -0.05500
N 	N 	0.14343 0.90081 0.18326 -0.16300
N 	N 	0.09194 0.90039 0.16044 -0.20600
C 	C 	0.72920 0.67825 0.20259 0.11500
N 	N 	0.68240 0.65873 0.21874 -0.20500
Cu	Cu	0.24882 0.42879 0.68755 0.83800
Cu	Cu	0.31845 0.40796 0.76052 0.83800
C 	C 	0.21670 0.49541 0.58652 -0.02500
C 	C 	0.16770 0.47863 0.56749 -0.03100
H 	H 	0.15380 0.45830 0.57220 -0.00700
C 	C 	0.13840 0.49157 0.54142 -0.03100
C 	C 	0.15910 0.52226 0.53482 -0.03400
H 	H 	0.14000 0.53130 0.51750 0.02300
C 	C 	0.20790 0.53926 0.55386 -0.02300
C 	C 	0.23820 0.52553 0.57950 -0.04000
H 	H 	0.27300 0.53670 0.59190 0.06700
C 	C 	0.44740 0.36899 0.62888 -0.02200
H 	H 	0.49600 0.36500 0.63910 -0.01000
C 	C 	0.44770 0.36891 0.59822 -0.03400
N 	N 	0.31530 0.49453 0.62778 -0.08500
C 	C 	0.25060 0.48255 0.61361 0.11600
N 	N 	0.22210 0.45872 0.62938 -0.20500
N 	N 	0.26926 0.45600 0.65329 -0.17900
N 	N 	0.32690 0.47812 0.65231 -0.05500
N 	N 	0.03537 0.45163 0.52447 -0.20200
N 	N 	0.00750 0.44224 0.49838 -0.17700
N 	N 	0.04430 0.45930 0.47774 -0.05600
N 	N 	0.09490 0.47923 0.49108 -0.08800
C 	C 	0.08938 0.47448 0.51996 0.11900
N 	N 	0.22490 0.61853 0.53153 -0.16200
N 	N 	0.29310 0.61507 0.54687 -0.04800
N 	N 	0.29710 0.58603 0.55754 -0.08400
N 	N 	0.35140 0.38740 0.72128 -0.17500
N 	N 	0.33500 0.39574 0.69324 -0.21100
C 	C 	0.52287 0.36390 0.58120 0.11800
N 	N 	0.53170 0.37230 0.55321 -0.08500
N 	N 	0.60621 0.36321 0.54426 -0.05500
N 	N 	0.64343 0.34919 0.56674 -0.16300
N 	N 	0.59194 0.34961 0.58956 -0.20600
C 	C 	0.22920 0.57175 0.54741 0.11500
N 	N 	0.18240 0.59127 0.53126 -0.20500
Cu	Cu	0.24882 0.92879 0.18755 0.83800
Cu	Cu	0.31845 0.90796 0.26052 0.83800
C 	C 	0.21670 0.99541 0.08652 -0.02600
C 	C 	0.16770 0.97863 0.06749 -0.03100
H 	H 	0.15380 0.95830 0.07220 -0.00700
C 	C 	0.13840 0.99157 0.04142 -0.03100
C 	C 	0.15910 0.02226 0.03482 -0.03400
H 	H 	0.14000 0.03130 0.01750 0.02300
C 	C 	0.20790 0.03926 0.05386 -0.02300
C 	C 	0.23820 0.02553 0.07950 -0.04000
H 	H 	0.27300 0.03670 0.09190 0.06700
C 	C 	0.44740 0.86899 0.12888 -0.02200
H 	H 	0.49600 0.86500 0.13910 -0.01000
C 	C 	0.44770 0.86891 0.09822 -0.03400
N 	N 	0.31530 0.99453 0.12778 -0.08500
C 	C 	0.25060 0.98255 0.11361 0.11600
N 	N 	0.22210 0.95872 0.12938 -0.20500
N 	N 	0.26926 0.95600 0.15329 -0.17900
N 	N 	0.32690 0.97812 0.15231 -0.05500
N 	N 	0.03537 0.95163 0.02447 -0.20200
N 	N 	0.00750 0.94224 0.99838 -0.17700
N 	N 	0.04430 0.95930 0.97774 -0.05600
N 	N 	0.09490 0.97923 0.99108 -0.08800
C 	C 	0.08938 0.97448 0.01996 0.11900
N 	N 	0.22490 0.11853 0.03153 -0.16200
N 	N 	0.29310 0.11507 0.04687 -0.04800
N 	N 	0.29710 0.08603 0.05754 -0.08400
N 	N 	0.35140 0.88740 0.22128 -0.17500
N 	N 	0.33500 0.89574 0.19324 -0.21100
C 	C 	0.52287 0.86390 0.08120 0.11800
N 	N 	0.53170 0.87230 0.05321 -0.08500
N 	N 	0.60621 0.86321 0.04426 -0.05500
N 	N 	0.64343 0.84919 0.06674 -0.16300
N 	N 	0.59194 0.84961 0.08956 -0.20600
C 	C 	0.22920 0.07175 0.04741 0.11500
N 	N 	0.18240 0.09127 0.03126 -0.20500
Cu	Cu	0.74882 0.42879 0.18755 0.83800
Cu	Cu	0.81845 0.40796 0.26052 0.83800
C 	C 	0.71670 0.49541 0.08652 -0.02500
C 	C 	0.66770 0.47863 0.06749 -0.03100
H 	H 	0.65380 0.45830 0.07220 -0.00700
C 	C 	0.63840 0.49157 0.04142 -0.03100
C 	C 	0.65910 0.52226 0.03482 -0.03400
H 	H 	0.64000 0.53130 0.01750 0.02300
C 	C 	0.70790 0.53926 0.05386 -0.02300
C 	C 	0.73820 0.52553 0.07950 -0.04000
H 	H 	0.77300 0.53670 0.09190 0.06700
C 	C 	0.94740 0.36899 0.12888 -0.02200
H 	H 	0.99600 0.36500 0.13910 -0.01000
C 	C 	0.94770 0.36891 0.09822 -0.03400
N 	N 	0.81530 0.49453 0.12778 -0.08500
C 	C 	0.75060 0.48255 0.11361 0.11600
N 	N 	0.72210 0.45872 0.12938 -0.20500
N 	N 	0.76926 0.45600 0.15329 -0.17900
N 	N 	0.82690 0.47812 0.15231 -0.05500
N 	N 	0.53537 0.45163 0.02447 -0.20200
N 	N 	0.50750 0.44224 0.99838 -0.17700
N 	N 	0.54430 0.45930 0.97774 -0.05600
N 	N 	0.59490 0.47923 0.99108 -0.08800
C 	C 	0.58938 0.47448 0.01996 0.11900
N 	N 	0.72490 0.61853 0.03153 -0.16200
N 	N 	0.79310 0.61507 0.04687 -0.04800
N 	N 	0.79710 0.58603 0.05754 -0.08400
N 	N 	0.85140 0.38740 0.22128 -0.17500
N 	N 	0.83500 0.39574 0.19324 -0.21100
C 	C 	0.02287 0.36390 0.08120 0.11800
N 	N 	0.03170 0.37230 0.05321 -0.08500
N 	N 	0.10621 0.36321 0.04426 -0.05500
N 	N 	0.14343 0.34919 0.06674 -0.16300
N 	N 	0.09194 0.34961 0.08956 -0.20600
C 	C 	0.72920 0.57175 0.04741 0.11500
N 	N 	0.68240 0.59127 0.03126 -0.20500
Cu	Cu	0.74882 0.92879 0.68755 0.83800
Cu	Cu	0.81845 0.90796 0.76052 0.83800
C 	C 	0.71670 0.99541 0.58652 -0.02500
C 	C 	0.66770 0.97863 0.56749 -0.03100
H 	H 	0.65380 0.95830 0.57220 -0.00700
C 	C 	0.63840 0.99157 0.54142 -0.03100
C 	C 	0.65910 0.02226 0.53482 -0.03400
H 	H 	0.64000 0.03130 0.51750 0.02300
C 	C 	0.70790 0.03926 0.55386 -0.02300
C 	C 	0.73820 0.02553 0.57950 -0.04000
H 	H 	0.77300 0.03670 0.59190 0.06700
C 	C 	0.94740 0.86899 0.62888 -0.02200
H 	H 	0.99600 0.86500 0.63910 -0.01000
C 	C 	0.94770 0.86891 0.59822 -0.03400
N 	N 	0.81530 0.99453 0.62778 -0.08500
C 	C 	0.75060 0.98255 0.61361 0.11600
N 	N 	0.72210 0.95872 0.62938 -0.20500
N 	N 	0.76926 0.95600 0.65329 -0.17900
N 	N 	0.82690 0.97812 0.65231 -0.05500
N 	N 	0.53537 0.95163 0.52447 -0.20200
N 	N 	0.50750 0.94224 0.49838 -0.17700
N 	N 	0.54430 0.95930 0.47774 -0.05600
N 	N 	0.59490 0.97923 0.49108 -0.08800
C 	C 	0.58938 0.97448 0.51996 0.11900
N 	N 	0.72490 0.11853 0.53153 -0.16200
N 	N 	0.79310 0.11507 0.54687 -0.04800
N 	N 	0.79710 0.08603 0.55754 -0.08400
N 	N 	0.85140 0.88740 0.72128 -0.17500
N 	N 	0.83500 0.89574 0.69324 -0.21100
C 	C 	0.02287 0.86390 0.58120 0.11800
N 	N 	0.03170 0.87230 0.55321 -0.08500
N 	N 	0.10621 0.86321 0.54426 -0.05500
N 	N 	0.14343 0.84919 0.56674 -0.16300
N 	N 	0.09194 0.84961 0.58956 -0.20600
C 	C 	0.72920 0.07175 0.54741 0.11500
N 	N 	0.68240 0.09127 0.53126 -0.20500
Cu	Cu	0.50118 0.32121 0.68755 0.83800
Cu	Cu	0.43155 0.34204 0.76052 0.83800
C 	C 	0.53330 0.25459 0.58652 -0.02500
C 	C 	0.58230 0.27137 0.56749 -0.03100
H 	H 	0.59620 0.29170 0.57220 -0.00700
C 	C 	0.61160 0.25843 0.54142 -0.03100
C 	C 	0.59090 0.22774 0.53482 -0.03400
H 	H 	0.61000 0.21870 0.51750 0.02300
C 	C 	0.54210 0.21074 0.55386 -0.02300
C 	C 	0.51180 0.22447 0.57950 -0.04000
H 	H 	0.47700 0.21330 0.59190 0.06700
C 	C 	0.30260 0.38101 0.62888 -0.02200
H 	H 	0.25400 0.38500 0.63910 -0.01000
C 	C 	0.30230 0.38109 0.59822 -0.03400
N 	N 	0.43470 0.25547 0.62778 -0.08500
C 	C 	0.49940 0.26745 0.61361 0.11600
N 	N 	0.52790 0.29128 0.62938 -0.20500
N 	N 	0.48074 0.29400 0.65329 -0.17900
N 	N 	0.42310 0.27188 0.65231 -0.05500
N 	N 	0.71463 0.29837 0.52447 -0.20200
N 	N 	0.74250 0.30776 0.49838 -0.17700
N 	N 	0.70570 0.29070 0.47774 -0.05600
N 	N 	0.65510 0.27077 0.49108 -0.08800
C 	C 	0.66062 0.27552 0.51996 0.11900
N 	N 	0.52510 0.13147 0.53153 -0.16200
N 	N 	0.45690 0.13493 0.54687 -0.04800
N 	N 	0.45290 0.16397 0.55754 -0.08400
N 	N 	0.39860 0.36260 0.72128 -0.17500
N 	N 	0.41500 0.35426 0.69324 -0.21100
C 	C 	0.22713 0.38610 0.58120 0.11800
N 	N 	0.21830 0.37770 0.55321 -0.08500
N 	N 	0.14379 0.38679 0.54426 -0.05500
N 	N 	0.10657 0.40081 0.56674 -0.16300
N 	N 	0.15806 0.40039 0.58956 -0.20600
C 	C 	0.52080 0.17825 0.54741 0.11500
N 	N 	0.56760 0.15873 0.53126 -0.20500
Cu	Cu	0.50118 0.82121 0.18755 0.83800
Cu	Cu	0.43155 0.84204 0.26052 0.83800
C 	C 	0.53330 0.75459 0.08652 -0.02500
C 	C 	0.58230 0.77137 0.06749 -0.03100
H 	H 	0.59620 0.79170 0.07220 -0.00700
C 	C 	0.61160 0.75843 0.04142 -0.03100
C 	C 	0.59090 0.72774 0.03482 -0.03400
H 	H 	0.61000 0.71870 0.01750 0.02300
C 	C 	0.54210 0.71074 0.05386 -0.02300
C 	C 	0.51180 0.72447 0.07950 -0.04000
H 	H 	0.47700 0.71330 0.09190 0.06700
C 	C 	0.30260 0.88101 0.12888 -0.02200
H 	H 	0.25400 0.88500 0.13910 -0.01000
C 	C 	0.30230 0.88109 0.09822 -0.03400
N 	N 	0.43470 0.75547 0.12778 -0.08500
C 	C 	0.49940 0.76745 0.11361 0.11600
N 	N 	0.52790 0.79128 0.12938 -0.20500
N 	N 	0.48074 0.79400 0.15329 -0.17900
N 	N 	0.42310 0.77188 0.15231 -0.05500
N 	N 	0.71463 0.79837 0.02447 -0.20200
N 	N 	0.74250 0.80776 0.99838 -0.17700
N 	N 	0.70570 0.79070 0.97774 -0.05600
N 	N 	0.65510 0.77077 0.99108 -0.08800
C 	C 	0.66062 0.77552 0.01996 0.11900
N 	N 	0.52510 0.63147 0.03153 -0.16200
N 	N 	0.45690 0.63493 0.04687 -0.04800
N 	N 	0.45290 0.66397 0.05754 -0.08400
N 	N 	0.39860 0.86260 0.22128 -0.17500
N 	N 	0.41500 0.85426 0.19324 -0.21100
C 	C 	0.22713 0.88610 0.08120 0.11800
N 	N 	0.21830 0.87770 0.05321 -0.08500
N 	N 	0.14379 0.88679 0.04426 -0.05500
N 	N 	0.10657 0.90081 0.06674 -0.16300
N 	N 	0.15806 0.90039 0.08956 -0.20600
C 	C 	0.52080 0.67825 0.04741 0.11500
N 	N 	0.56760 0.65873 0.03126 -0.20500
Cu	Cu	0.00118 0.32121 0.18755 0.83800
Cu	Cu	0.93155 0.34204 0.26052 0.83800
C 	C 	0.03330 0.25459 0.08652 -0.02600
C 	C 	0.08230 0.27137 0.06749 -0.03100
H 	H 	0.09620 0.29170 0.07220 -0.00700
C 	C 	0.11160 0.25843 0.04142 -0.03100
C 	C 	0.09090 0.22774 0.03482 -0.03400
H 	H 	0.11000 0.21870 0.01750 0.02300
C 	C 	0.04210 0.21074 0.05386 -0.02300
C 	C 	0.01180 0.22447 0.07950 -0.04000
H 	H 	0.97700 0.21330 0.09190 0.06700
C 	C 	0.80260 0.38101 0.12888 -0.02200
H 	H 	0.75400 0.38500 0.13910 -0.01000
C 	C 	0.80230 0.38109 0.09822 -0.03400
N 	N 	0.93470 0.25547 0.12778 -0.08500
C 	C 	0.99940 0.26745 0.11361 0.11600
N 	N 	0.02790 0.29128 0.12938 -0.20500
N 	N 	0.98074 0.29400 0.15329 -0.17900
N 	N 	0.92310 0.27188 0.15231 -0.05500
N 	N 	0.21463 0.29837 0.02447 -0.20200
N 	N 	0.24250 0.30776 0.99838 -0.17700
N 	N 	0.20570 0.29070 0.97774 -0.05600
N 	N 	0.15510 0.27077 0.99108 -0.08800
C 	C 	0.16062 0.27552 0.01996 0.11900
N 	N 	0.02510 0.13147 0.03153 -0.16200
N 	N 	0.95690 0.13493 0.04687 -0.04800
N 	N 	0.95290 0.16397 0.05754 -0.08400
N 	N 	0.89860 0.36260 0.22128 -0.17500
N 	N 	0.91500 0.35426 0.19324 -0.21100
C 	C 	0.72713 0.38610 0.08120 0.11800
N 	N 	0.71830 0.37770 0.05321 -0.08500
N 	N 	0.64379 0.38679 0.04426 -0.05500
N 	N 	0.60657 0.40081 0.06674 -0.16300
N 	N 	0.65806 0.40039 0.08956 -0.20600
C 	C 	0.02080 0.17825 0.04741 0.11500
N 	N 	0.06760 0.15873 0.03126 -0.20500
Cu	Cu	0.00118 0.82121 0.68755 0.83800
Cu	Cu	0.93155 0.84204 0.76052 0.83800
C 	C 	0.03330 0.75459 0.58652 -0.02600
C 	C 	0.08230 0.77137 0.56749 -0.03100
H 	H 	0.09620 0.79170 0.57220 -0.00700
C 	C 	0.11160 0.75843 0.54142 -0.03100
C 	C 	0.09090 0.72774 0.53482 -0.03400
H 	H 	0.11000 0.71870 0.51750 0.02300
C 	C 	0.04210 0.71074 0.55386 -0.02300
C 	C 	0.01180 0.72447 0.57950 -0.04000
H 	H 	0.97700 0.71330 0.59190 0.06700
C 	C 	0.80260 0.88101 0.62888 -0.02200
H 	H 	0.75400 0.88500 0.63910 -0.01000
C 	C 	0.80230 0.88109 0.59822 -0.03400
N 	N 	0.93470 0.75547 0.62778 -0.08500
C 	C 	0.99940 0.76745 0.61361 0.11600
N 	N 	0.02790 0.79128 0.62938 -0.20500
N 	N 	0.98074 0.79400 0.65329 -0.17900
N 	N 	0.92310 0.77188 0.65231 -0.05500
N 	N 	0.21463 0.79837 0.52447 -0.20200
N 	N 	0.24250 0.80776 0.49838 -0.17700
N 	N 	0.20570 0.79070 0.47774 -0.05600
N 	N 	0.15510 0.77077 0.49108 -0.08800
C 	C 	0.16062 0.77552 0.51996 0.11900
N 	N 	0.02510 0.63147 0.53153 -0.16200
N 	N 	0.95690 0.63493 0.54687 -0.04800
N 	N 	0.95290 0.66397 0.55754 -0.08400
N 	N 	0.89860 0.86260 0.72128 -0.17500
N 	N 	0.91500 0.85426 0.69324 -0.21100
C 	C 	0.72713 0.88610 0.58120 0.11800
N 	N 	0.71830 0.87770 0.55321 -0.08500
N 	N 	0.64379 0.88679 0.54426 -0.05500
N 	N 	0.60657 0.90081 0.56674 -0.16300
N 	N 	0.65806 0.90039 0.58956 -0.20600
C 	C 	0.02080 0.67825 0.54741 0.11500
N 	N 	0.06760 0.65873 0.53126 -0.20500
Cu	Cu	0.49882 0.57121 0.93755 0.83800
Cu	Cu	0.56845 0.59204 0.01052 0.83800
C 	C 	0.46670 0.50459 0.83652 -0.02500
C 	C 	0.41770 0.52137 0.81749 -0.03100
H 	H 	0.40380 0.54170 0.82220 -0.00700
C 	C 	0.38840 0.50843 0.79142 -0.03100
C 	C 	0.40910 0.47774 0.78482 -0.03400
H 	H 	0.39000 0.46870 0.76750 0.02300
C 	C 	0.45790 0.46074 0.80386 -0.02300
C 	C 	0.48820 0.47447 0.82950 -0.04000
H 	H 	0.52300 0.46330 0.84190 0.06700
C 	C 	0.69740 0.63101 0.87888 -0.02200
H 	H 	0.74600 0.63500 0.88910 -0.01000
C 	C 	0.69770 0.63109 0.84822 -0.03400
N 	N 	0.56530 0.50547 0.87778 -0.08500
C 	C 	0.50060 0.51745 0.86361 0.11600
N 	N 	0.47210 0.54128 0.87938 -0.20500
N 	N 	0.51926 0.54400 0.90329 -0.17900
N 	N 	0.57690 0.52188 0.90231 -0.05500
N 	N 	0.28537 0.54837 0.77447 -0.20200
N 	N 	0.25750 0.55776 0.74838 -0.17700
N 	N 	0.29430 0.54070 0.72774 -0.05600
N 	N 	0.34490 0.52077 0.74108 -0.08800
C 	C 	0.33938 0.52552 0.76996 0.11900
N 	N 	0.47490 0.38147 0.78153 -0.16200
N 	N 	0.54310 0.38493 0.79687 -0.04800
N 	N 	0.54710 0.41397 0.80754 -0.08400
N 	N 	0.60140 0.61260 0.97128 -0.17500
N 	N 	0.58500 0.60426 0.94324 -0.21100
C 	C 	0.77287 0.63610 0.83120 0.11800
N 	N 	0.78170 0.62770 0.80321 -0.08500
N 	N 	0.85621 0.63679 0.79426 -0.05500
N 	N 	0.89343 0.65081 0.81674 -0.16300
N 	N 	0.84194 0.65039 0.83956 -0.20600
C 	C 	0.47920 0.42825 0.79741 0.11500
N 	N 	0.43240 0.40873 0.78126 -0.20500
Cu	Cu	0.49882 0.07121 0.43755 0.83800
Cu	Cu	0.56845 0.09204 0.51052 0.83800
C 	C 	0.46670 0.00459 0.33652 -0.02600
C 	C 	0.41770 0.02137 0.31749 -0.03100
H 	H 	0.40380 0.04170 0.32220 -0.00700
C 	C 	0.38840 0.00843 0.29142 -0.03100
C 	C 	0.40910 0.97774 0.28482 -0.03400
H 	H 	0.39000 0.96870 0.26750 0.02300
C 	C 	0.45790 0.96074 0.30386 -0.02300
C 	C 	0.48820 0.97447 0.32950 -0.04000
H 	H 	0.52300 0.96330 0.34190 0.06700
C 	C 	0.69740 0.13101 0.37888 -0.02200
H 	H 	0.74600 0.13500 0.38910 -0.01000
C 	C 	0.69770 0.13109 0.34822 -0.03400
N 	N 	0.56530 0.00547 0.37778 -0.08500
C 	C 	0.50060 0.01745 0.36361 0.11600
N 	N 	0.47210 0.04128 0.37938 -0.20500
N 	N 	0.51926 0.04400 0.40329 -0.17900
N 	N 	0.57690 0.02188 0.40231 -0.05500
N 	N 	0.28537 0.04837 0.27447 -0.20200
N 	N 	0.25750 0.05776 0.24838 -0.17700
N 	N 	0.29430 0.04070 0.22774 -0.05600
N 	N 	0.34490 0.02077 0.24108 -0.08800
C 	C 	0.33938 0.02552 0.26996 0.11900
N 	N 	0.47490 0.88147 0.28153 -0.16200
N 	N 	0.54310 0.88493 0.29687 -0.04800
N 	N 	0.54710 0.91397 0.30754 -0.08400
N 	N 	0.60140 0.11260 0.47128 -0.17500
N 	N 	0.58500 0.10426 0.44324 -0.21100
C 	C 	0.77287 0.13610 0.33120 0.11800
N 	N 	0.78170 0.12770 0.30321 -0.08500
N 	N 	0.85621 0.13679 0.29426 -0.05500
N 	N 	0.89343 0.15081 0.31674 -0.16300
N 	N 	0.84194 0.15039 0.33956 -0.20600
C 	C 	0.47920 0.92825 0.29741 0.11500
N 	N 	0.43240 0.90873 0.28126 -0.20500
Cu	Cu	0.99882 0.57121 0.43755 0.83800
Cu	Cu	0.06845 0.59204 0.51052 0.83800
C 	C 	0.96670 0.50459 0.33652 -0.02600
C 	C 	0.91770 0.52137 0.31749 -0.03100
H 	H 	0.90380 0.54170 0.32220 -0.00700
C 	C 	0.88840 0.50843 0.29142 -0.03100
C 	C 	0.90910 0.47774 0.28482 -0.03400
H 	H 	0.89000 0.46870 0.26750 0.02300
C 	C 	0.95790 0.46074 0.30386 -0.02300
C 	C 	0.98820 0.47447 0.32950 -0.04000
H 	H 	0.02300 0.46330 0.34190 0.06700
C 	C 	0.19740 0.63101 0.37888 -0.02200
H 	H 	0.24600 0.63500 0.38910 -0.01000
C 	C 	0.19770 0.63109 0.34822 -0.03400
N 	N 	0.06530 0.50547 0.37778 -0.08500
C 	C 	0.00060 0.51745 0.36361 0.11600
N 	N 	0.97210 0.54128 0.37938 -0.20500
N 	N 	0.01926 0.54400 0.40329 -0.17900
N 	N 	0.07690 0.52188 0.40231 -0.05500
N 	N 	0.78537 0.54837 0.27447 -0.20200
N 	N 	0.75750 0.55776 0.24838 -0.17700
N 	N 	0.79430 0.54070 0.22774 -0.05600
N 	N 	0.84490 0.52077 0.24108 -0.08800
C 	C 	0.83938 0.52552 0.26996 0.11900
N 	N 	0.97490 0.38147 0.28153 -0.16200
N 	N 	0.04310 0.38493 0.29687 -0.04800
N 	N 	0.04710 0.41397 0.30754 -0.08400
N 	N 	0.10140 0.61260 0.47128 -0.17500
N 	N 	0.08500 0.60426 0.44324 -0.21100
C 	C 	0.27287 0.63610 0.33120 0.11800
N 	N 	0.28170 0.62770 0.30321 -0.08500
N 	N 	0.35621 0.63679 0.29426 -0.05500
N 	N 	0.39343 0.65081 0.31674 -0.16300
N 	N 	0.34194 0.65039 0.33956 -0.20600
C 	C 	0.97920 0.42825 0.29741 0.11500
N 	N 	0.93240 0.40873 0.28126 -0.20500
Cu	Cu	0.99882 0.07121 0.93755 0.83800
Cu	Cu	0.06845 0.09204 0.01052 0.83800
C 	C 	0.96670 0.00459 0.83652 -0.02600
C 	C 	0.91770 0.02137 0.81749 -0.03100
H 	H 	0.90380 0.04170 0.82220 -0.00700
C 	C 	0.88840 0.00843 0.79142 -0.03100
C 	C 	0.90910 0.97774 0.78482 -0.03400
H 	H 	0.89000 0.96870 0.76750 0.02300
C 	C 	0.95790 0.96074 0.80386 -0.02300
C 	C 	0.98820 0.97447 0.82950 -0.04000
H 	H 	0.02300 0.96330 0.84190 0.06700
C 	C 	0.19740 0.13101 0.87888 -0.02200
H 	H 	0.24600 0.13500 0.88910 -0.01000
C 	C 	0.19770 0.13109 0.84822 -0.03400
N 	N 	0.06530 0.00547 0.87778 -0.08500
C 	C 	0.00060 0.01745 0.86361 0.11600
N 	N 	0.97210 0.04128 0.87938 -0.20500
N 	N 	0.01926 0.04400 0.90329 -0.17900
N 	N 	0.07690 0.02188 0.90231 -0.05500
N 	N 	0.78537 0.04837 0.77447 -0.20200
N 	N 	0.75750 0.05776 0.74838 -0.17700
N 	N 	0.79430 0.04070 0.72774 -0.05600
N 	N 	0.84490 0.02077 0.74108 -0.08800
C 	C 	0.83938 0.02552 0.76996 0.11900
N 	N 	0.97490 0.88147 0.78153 -0.16200
N 	N 	0.04310 0.88493 0.79687 -0.04800
N 	N 	0.04710 0.91397 0.80754 -0.08400
N 	N 	0.10140 0.11260 0.97128 -0.17500
N 	N 	0.08500 0.10426 0.94324 -0.21100
C 	C 	0.27287 0.13610 0.83120 0.11800
N 	N 	0.28170 0.12770 0.80321 -0.08500
N 	N 	0.35621 0.13679 0.79426 -0.05500
N 	N 	0.39343 0.15081 0.81674 -0.16300
N 	N 	0.34194 0.15039 0.83956 -0.20600
C 	C 	0.97920 0.92825 0.79741 0.11500
N 	N 	0.93240 0.90873 0.78126 -0.20500
Cu	Cu	0.75118 0.67879 0.93755 0.83800
Cu	Cu	0.68155 0.65796 0.01052 0.83800
C 	C 	0.78330 0.74541 0.83652 -0.02500
C 	C 	0.83230 0.72863 0.81749 -0.03100
H 	H 	0.84620 0.70830 0.82220 -0.00700
C 	C 	0.86160 0.74157 0.79142 -0.03100
C 	C 	0.84090 0.77226 0.78482 -0.03400
H 	H 	0.86000 0.78130 0.76750 0.02300
C 	C 	0.79210 0.78926 0.80386 -0.02300
C 	C 	0.76180 0.77553 0.82950 -0.04000
H 	H 	0.72700 0.78670 0.84190 0.06700
C 	C 	0.55260 0.61899 0.87888 -0.02200
H 	H 	0.50400 0.61500 0.88910 -0.01000
C 	C 	0.55230 0.61891 0.84822 -0.03400
N 	N 	0.68470 0.74453 0.87778 -0.08500
C 	C 	0.74940 0.73255 0.86361 0.11600
N 	N 	0.77790 0.70872 0.87938 -0.20500
N 	N 	0.73074 0.70600 0.90329 -0.17900
N 	N 	0.67310 0.72812 0.90231 -0.05500
N 	N 	0.96463 0.70163 0.77447 -0.20200
N 	N 	0.99250 0.69224 0.74838 -0.17700
N 	N 	0.95570 0.70930 0.72774 -0.05600
N 	N 	0.90510 0.72923 0.74108 -0.08800
C 	C 	0.91062 0.72448 0.76996 0.11900
N 	N 	0.77510 0.86853 0.78153 -0.16200
N 	N 	0.70690 0.86507 0.79687 -0.04800
N 	N 	0.70290 0.83603 0.80754 -0.08400
N 	N 	0.64860 0.63740 0.97128 -0.17500
N 	N 	0.66500 0.64574 0.94324 -0.21100
C 	C 	0.47713 0.61390 0.83120 0.11800
N 	N 	0.46830 0.62230 0.80321 -0.08500
N 	N 	0.39379 0.61321 0.79426 -0.05500
N 	N 	0.35657 0.59919 0.81674 -0.16300
N 	N 	0.40806 0.59961 0.83956 -0.20600
C 	C 	0.77080 0.82175 0.79741 0.11500
N 	N 	0.81760 0.84127 0.78126 -0.20500
Cu	Cu	0.75118 0.17879 0.43755 0.83800
Cu	Cu	0.68155 0.15796 0.51052 0.83800
C 	C 	0.78330 0.24541 0.33652 -0.02500
C 	C 	0.83230 0.22863 0.31749 -0.03100
H 	H 	0.84620 0.20830 0.32220 -0.00700
C 	C 	0.86160 0.24157 0.29142 -0.03100
C 	C 	0.84090 0.27226 0.28482 -0.03400
H 	H 	0.86000 0.28130 0.26750 0.02300
C 	C 	0.79210 0.28926 0.30386 -0.02300
C 	C 	0.76180 0.27553 0.32950 -0.04000
H 	H 	0.72700 0.28670 0.34190 0.06700
C 	C 	0.55260 0.11899 0.37888 -0.02200
H 	H 	0.50400 0.11500 0.38910 -0.01000
C 	C 	0.55230 0.11891 0.34822 -0.03400
N 	N 	0.68470 0.24453 0.37778 -0.08500
C 	C 	0.74940 0.23255 0.36361 0.11600
N 	N 	0.77790 0.20872 0.37938 -0.20500
N 	N 	0.73074 0.20600 0.40329 -0.17900
N 	N 	0.67310 0.22812 0.40231 -0.05500
N 	N 	0.96463 0.20163 0.27447 -0.20200
N 	N 	0.99250 0.19224 0.24838 -0.17700
N 	N 	0.95570 0.20930 0.22774 -0.05600
N 	N 	0.90510 0.22923 0.24108 -0.08800
C 	C 	0.91062 0.22448 0.26996 0.11900
N 	N 	0.77510 0.36853 0.28153 -0.16200
N 	N 	0.70690 0.36507 0.29687 -0.04800
N 	N 	0.70290 0.33603 0.30754 -0.08400
N 	N 	0.64860 0.13740 0.47128 -0.17500
N 	N 	0.66500 0.14574 0.44324 -0.21100
C 	C 	0.47713 0.11390 0.33120 0.11800
N 	N 	0.46830 0.12230 0.30321 -0.08500
N 	N 	0.39379 0.11321 0.29426 -0.05500
N 	N 	0.35657 0.09919 0.31674 -0.16300
N 	N 	0.40806 0.09961 0.33956 -0.20600
C 	C 	0.77080 0.32175 0.29741 0.11500
N 	N 	0.81760 0.34127 0.28126 -0.20500
Cu	Cu	0.25118 0.67879 0.43755 0.83800
Cu	Cu	0.18155 0.65796 0.51052 0.83800
C 	C 	0.28330 0.74541 0.33652 -0.02500
C 	C 	0.33230 0.72863 0.31749 -0.03100
H 	H 	0.34620 0.70830 0.32220 -0.00700
C 	C 	0.36160 0.74157 0.29142 -0.03100
C 	C 	0.34090 0.77226 0.28482 -0.03400
H 	H 	0.36000 0.78130 0.26750 0.02300
C 	C 	0.29210 0.78926 0.30386 -0.02300
C 	C 	0.26180 0.77553 0.32950 -0.04000
H 	H 	0.22700 0.78670 0.34190 0.06700
C 	C 	0.05260 0.61899 0.37888 -0.02200
H 	H 	0.00400 0.61500 0.38910 -0.01000
C 	C 	0.05230 0.61891 0.34822 -0.03400
N 	N 	0.18470 0.74453 0.37778 -0.08500
C 	C 	0.24940 0.73255 0.36361 0.11600
N 	N 	0.27790 0.70872 0.37938 -0.20500
N 	N 	0.23074 0.70600 0.40329 -0.17900
N 	N 	0.17310 0.72812 0.40231 -0.05500
N 	N 	0.46463 0.70163 0.27447 -0.20200
N 	N 	0.49250 0.69224 0.24838 -0.17700
N 	N 	0.45570 0.70930 0.22774 -0.05600
N 	N 	0.40510 0.72923 0.24108 -0.08800
C 	C 	0.41062 0.72448 0.26996 0.11900
N 	N 	0.27510 0.86853 0.28153 -0.16200
N 	N 	0.20690 0.86507 0.29687 -0.04800
N 	N 	0.20290 0.83603 0.30754 -0.08400
N 	N 	0.14860 0.63740 0.47128 -0.17500
N 	N 	0.16500 0.64574 0.44324 -0.21100
C 	C 	0.97713 0.61390 0.33120 0.11800
N 	N 	0.96830 0.62230 0.30321 -0.08500
N 	N 	0.89379 0.61321 0.29426 -0.05500
N 	N 	0.85657 0.59919 0.31674 -0.16300
N 	N 	0.90806 0.59961 0.33956 -0.20600
C 	C 	0.27080 0.82175 0.29741 0.11500
N 	N 	0.31760 0.84127 0.28126 -0.20500
Cu	Cu	0.25118 0.17879 0.93755 0.83800
Cu	Cu	0.18155 0.15796 0.01052 0.83800
C 	C 	0.28330 0.24541 0.83652 -0.02500
C 	C 	0.33230 0.22863 0.81749 -0.03100
H 	H 	0.34620 0.20830 0.82220 -0.00700
C 	C 	0.36160 0.24157 0.79142 -0.03100
C 	C 	0.34090 0.27226 0.78482 -0.03400
H 	H 	0.36000 0.28130 0.76750 0.02300
C 	C 	0.29210 0.28926 0.80386 -0.02300
C 	C 	0.26180 0.27553 0.82950 -0.04000
H 	H 	0.22700 0.28670 0.84190 0.06700
C 	C 	0.05260 0.11899 0.87888 -0.02200
H 	H 	0.00400 0.11500 0.88910 -0.01000
C 	C 	0.05230 0.11891 0.84822 -0.03400
N 	N 	0.18470 0.24453 0.87778 -0.08500
C 	C 	0.24940 0.23255 0.86361 0.11600
N 	N 	0.27790 0.20872 0.87938 -0.20500
N 	N 	0.23074 0.20600 0.90329 -0.17900
N 	N 	0.17310 0.22812 0.90231 -0.05500
N 	N 	0.46463 0.20163 0.77447 -0.20200
N 	N 	0.49250 0.19224 0.74838 -0.17700
N 	N 	0.45570 0.20930 0.72774 -0.05600
N 	N 	0.40510 0.22923 0.74108 -0.08800
C 	C 	0.41062 0.22448 0.76996 0.11900
N 	N 	0.27510 0.36853 0.78153 -0.16200
N 	N 	0.20690 0.36507 0.79687 -0.04800
N 	N 	0.20290 0.33603 0.80754 -0.08400
N 	N 	0.14860 0.13740 0.97128 -0.17500
N 	N 	0.16500 0.14574 0.94324 -0.21100
C 	C 	0.97713 0.11390 0.83120 0.11800
N 	N 	0.96830 0.12230 0.80321 -0.08500
N 	N 	0.89379 0.11321 0.79426 -0.05500
N 	N 	0.85657 0.09919 0.81674 -0.16300
N 	N 	0.90806 0.09961 0.83956 -0.20600
C 	C 	0.27080 0.32175 0.79741 0.11500
N 	N 	0.31760 0.34127 0.78126 -0.20500
Cu	Cu	0.75118 0.57121 0.31245 0.83800
Cu	Cu	0.68155 0.59204 0.23948 0.83800
C 	C 	0.78330 0.50459 0.41348 -0.02500
C 	C 	0.83230 0.52137 0.43251 -0.03100
H 	H 	0.84620 0.54170 0.42780 -0.00700
C 	C 	0.86160 0.50843 0.45858 -0.03100
C 	C 	0.84090 0.47774 0.46518 -0.03400
H 	H 	0.86000 0.46870 0.48250 0.02300
C 	C 	0.79210 0.46074 0.44614 -0.02300
C 	C 	0.76180 0.47447 0.42050 -0.04000
H 	H 	0.72700 0.46330 0.40810 0.06700
C 	C 	0.55260 0.63101 0.37112 -0.02200
H 	H 	0.50400 0.63500 0.36090 -0.01000
C 	C 	0.55230 0.63109 0.40178 -0.03400
N 	N 	0.68470 0.50547 0.37222 -0.08500
C 	C 	0.74940 0.51745 0.38639 0.11600
N 	N 	0.77790 0.54128 0.37062 -0.20500
N 	N 	0.73074 0.54400 0.34671 -0.17900
N 	N 	0.67310 0.52188 0.34769 -0.05500
N 	N 	0.96463 0.54837 0.47553 -0.20200
N 	N 	0.99250 0.55776 0.50162 -0.17700
N 	N 	0.95570 0.54070 0.52226 -0.05600
N 	N 	0.90510 0.52077 0.50892 -0.08800
C 	C 	0.91062 0.52552 0.48004 0.11900
N 	N 	0.77510 0.38147 0.46847 -0.16200
N 	N 	0.70690 0.38493 0.45313 -0.04800
N 	N 	0.70290 0.41397 0.44246 -0.08400
N 	N 	0.64860 0.61260 0.27872 -0.17500
N 	N 	0.66500 0.60426 0.30676 -0.21100
C 	C 	0.47713 0.63610 0.41880 0.11800
N 	N 	0.46830 0.62770 0.44679 -0.08500
N 	N 	0.39379 0.63679 0.45574 -0.05500
N 	N 	0.35657 0.65081 0.43326 -0.16300
N 	N 	0.40806 0.65039 0.41044 -0.20600
C 	C 	0.77080 0.42825 0.45259 0.11500
N 	N 	0.81760 0.40873 0.46874 -0.20500
Cu	Cu	0.75118 0.07121 0.81245 0.83800
Cu	Cu	0.68155 0.09204 0.73948 0.83800
C 	C 	0.78330 0.00459 0.91348 -0.02600
C 	C 	0.83230 0.02137 0.93251 -0.03100
H 	H 	0.84620 0.04170 0.92780 -0.00700
C 	C 	0.86160 0.00843 0.95858 -0.03100
C 	C 	0.84090 0.97774 0.96518 -0.03400
H 	H 	0.86000 0.96870 0.98250 0.02300
C 	C 	0.79210 0.96074 0.94614 -0.02300
C 	C 	0.76180 0.97447 0.92050 -0.04000
H 	H 	0.72700 0.96330 0.90810 0.06700
C 	C 	0.55260 0.13101 0.87112 -0.02200
H 	H 	0.50400 0.13500 0.86090 -0.01000
C 	C 	0.55230 0.13109 0.90178 -0.03400
N 	N 	0.68470 0.00547 0.87222 -0.08500
C 	C 	0.74940 0.01745 0.88639 0.11600
N 	N 	0.77790 0.04128 0.87062 -0.20500
N 	N 	0.73074 0.04400 0.84671 -0.17900
N 	N 	0.67310 0.02188 0.84769 -0.05500
N 	N 	0.96463 0.04837 0.97553 -0.20200
N 	N 	0.99250 0.05776 0.00162 -0.17700
N 	N 	0.95570 0.04070 0.02226 -0.05600
N 	N 	0.90510 0.02077 0.00892 -0.08800
C 	C 	0.91062 0.02552 0.98004 0.11900
N 	N 	0.77510 0.88147 0.96847 -0.16200
N 	N 	0.70690 0.88493 0.95313 -0.04800
N 	N 	0.70290 0.91397 0.94246 -0.08400
N 	N 	0.64860 0.11260 0.77872 -0.17500
N 	N 	0.66500 0.10426 0.80676 -0.21100
C 	C 	0.47713 0.13610 0.91880 0.11800
N 	N 	0.46830 0.12770 0.94679 -0.08500
N 	N 	0.39379 0.13679 0.95574 -0.05500
N 	N 	0.35657 0.15081 0.93326 -0.16300
N 	N 	0.40806 0.15039 0.91044 -0.20600
C 	C 	0.77080 0.92825 0.95259 0.11500
N 	N 	0.81760 0.90873 0.96874 -0.20500
Cu	Cu	0.25118 0.57121 0.81245 0.83800
Cu	Cu	0.18155 0.59204 0.73948 0.83800
C 	C 	0.28330 0.50459 0.91348 -0.02500
C 	C 	0.33230 0.52137 0.93251 -0.03100
H 	H 	0.34620 0.54170 0.92780 -0.00700
C 	C 	0.36160 0.50843 0.95858 -0.03100
C 	C 	0.34090 0.47774 0.96518 -0.03400
H 	H 	0.36000 0.46870 0.98250 0.02300
C 	C 	0.29210 0.46074 0.94614 -0.02300
C 	C 	0.26180 0.47447 0.92050 -0.04000
H 	H 	0.22700 0.46330 0.90810 0.06700
C 	C 	0.05260 0.63101 0.87112 -0.02200
H 	H 	0.00400 0.63500 0.86090 -0.01000
C 	C 	0.05230 0.63109 0.90178 -0.03400
N 	N 	0.18470 0.50547 0.87222 -0.08500
C 	C 	0.24940 0.51745 0.88639 0.11600
N 	N 	0.27790 0.54128 0.87062 -0.20500
N 	N 	0.23074 0.54400 0.84671 -0.17900
N 	N 	0.17310 0.52188 0.84769 -0.05500
N 	N 	0.46463 0.54837 0.97553 -0.20200
N 	N 	0.49250 0.55776 0.00162 -0.17700
N 	N 	0.45570 0.54070 0.02226 -0.05600
N 	N 	0.40510 0.52077 0.00892 -0.08800
C 	C 	0.41062 0.52552 0.98004 0.11900
N 	N 	0.27510 0.38147 0.96847 -0.16200
N 	N 	0.20690 0.38493 0.95313 -0.04800
N 	N 	0.20290 0.41397 0.94246 -0.08400
N 	N 	0.14860 0.61260 0.77872 -0.17500
N 	N 	0.16500 0.60426 0.80676 -0.21100
C 	C 	0.97713 0.63610 0.91880 0.11800
N 	N 	0.96830 0.62770 0.94679 -0.08500
N 	N 	0.89379 0.63679 0.95574 -0.05500
N 	N 	0.85657 0.65081 0.93326 -0.16300
N 	N 	0.90806 0.65039 0.91044 -0.20600
C 	C 	0.27080 0.42825 0.95259 0.11500
N 	N 	0.31760 0.40873 0.96874 -0.20500
Cu	Cu	0.25118 0.07121 0.31245 0.83800
Cu	Cu	0.18155 0.09204 0.23948 0.83800
C 	C 	0.28330 0.00459 0.41348 -0.02500
C 	C 	0.33230 0.02137 0.43251 -0.03100
H 	H 	0.34620 0.04170 0.42780 -0.00700
C 	C 	0.36160 0.00843 0.45858 -0.03100
C 	C 	0.34090 0.97774 0.46518 -0.03400
H 	H 	0.36000 0.96870 0.48250 0.02300
C 	C 	0.29210 0.96074 0.44614 -0.02300
C 	C 	0.26180 0.97447 0.42050 -0.04000
H 	H 	0.22700 0.96330 0.40810 0.06700
C 	C 	0.05260 0.13101 0.37112 -0.02200
H 	H 	0.00400 0.13500 0.36090 -0.01000
C 	C 	0.05230 0.13109 0.40178 -0.03400
N 	N 	0.18470 0.00547 0.37222 -0.08500
C 	C 	0.24940 0.01745 0.38639 0.11600
N 	N 	0.27790 0.04128 0.37062 -0.20500
N 	N 	0.23074 0.04400 0.34671 -0.17900
N 	N 	0.17310 0.02188 0.34769 -0.05500
N 	N 	0.46463 0.04837 0.47553 -0.20200
N 	N 	0.49250 0.05776 0.50162 -0.17700
N 	N 	0.45570 0.04070 0.52226 -0.05600
N 	N 	0.40510 0.02077 0.50892 -0.08800
C 	C 	0.41062 0.02552 0.48004 0.11900
N 	N 	0.27510 0.88147 0.46847 -0.16200
N 	N 	0.20690 0.88493 0.45313 -0.04800
N 	N 	0.20290 0.91397 0.44246 -0.08400
N 	N 	0.14860 0.11260 0.27872 -0.17500
N 	N 	0.16500 0.10426 0.30676 -0.21100
C 	C 	0.97713 0.13610 0.41880 0.11800
N 	N 	0.96830 0.12770 0.44679 -0.08500
N 	N 	0.89379 0.13679 0.45574 -0.05500
N 	N 	0.85657 0.15081 0.43326 -0.16300
N 	N 	0.90806 0.15039 0.41044 -0.20600
C 	C 	0.27080 0.92825 0.45259 0.11500
N 	N 	0.31760 0.90873 0.46874 -0.20500
Cu	Cu	0.49882 0.67879 0.31245 0.83800
Cu	Cu	0.56845 0.65796 0.23948 0.83800
C 	C 	0.46670 0.74541 0.41348 -0.02500
C 	C 	0.41770 0.72863 0.43251 -0.03100
H 	H 	0.40380 0.70830 0.42780 -0.00700
C 	C 	0.38840 0.74157 0.45858 -0.03100
C 	C 	0.40910 0.77226 0.46518 -0.03400
H 	H 	0.39000 0.78130 0.48250 0.02300
C 	C 	0.45790 0.78926 0.44614 -0.02300
C 	C 	0.48820 0.77553 0.42050 -0.04000
H 	H 	0.52300 0.78670 0.40810 0.06700
C 	C 	0.69740 0.61899 0.37112 -0.02200
H 	H 	0.74600 0.61500 0.36090 -0.01000
C 	C 	0.69770 0.61891 0.40178 -0.03400
N 	N 	0.56530 0.74453 0.37222 -0.08500
C 	C 	0.50060 0.73255 0.38639 0.11600
N 	N 	0.47210 0.70872 0.37062 -0.20500
N 	N 	0.51926 0.70600 0.34671 -0.17900
N 	N 	0.57690 0.72812 0.34769 -0.05500
N 	N 	0.28537 0.70163 0.47553 -0.20200
N 	N 	0.25750 0.69224 0.50162 -0.17700
N 	N 	0.29430 0.70930 0.52226 -0.05600
N 	N 	0.34490 0.72923 0.50892 -0.08800
C 	C 	0.33938 0.72448 0.48004 0.11900
N 	N 	0.47490 0.86853 0.46847 -0.16200
N 	N 	0.54310 0.86507 0.45313 -0.04800
N 	N 	0.54710 0.83603 0.44246 -0.08400
N 	N 	0.60140 0.63740 0.27872 -0.17500
N 	N 	0.58500 0.64574 0.30676 -0.21100
C 	C 	0.77287 0.61390 0.41880 0.11800
N 	N 	0.78170 0.62230 0.44679 -0.08500
N 	N 	0.85621 0.61321 0.45574 -0.05500
N 	N 	0.89343 0.59919 0.43326 -0.16300
N 	N 	0.84194 0.59961 0.41044 -0.20600
C 	C 	0.47920 0.82175 0.45259 0.11500
N 	N 	0.43240 0.84127 0.46874 -0.20500
Cu	Cu	0.49882 0.17879 0.81245 0.83800
Cu	Cu	0.56845 0.15796 0.73948 0.83800
C 	C 	0.46670 0.24541 0.91348 -0.02500
C 	C 	0.41770 0.22863 0.93251 -0.03100
H 	H 	0.40380 0.20830 0.92780 -0.00700
C 	C 	0.38840 0.24157 0.95858 -0.03100
C 	C 	0.40910 0.27226 0.96518 -0.03400
H 	H 	0.39000 0.28130 0.98250 0.02300
C 	C 	0.45790 0.28926 0.94614 -0.02300
C 	C 	0.48820 0.27553 0.92050 -0.04000
H 	H 	0.52300 0.28670 0.90810 0.06700
C 	C 	0.69740 0.11899 0.87112 -0.02200
H 	H 	0.74600 0.11500 0.86090 -0.01000
C 	C 	0.69770 0.11891 0.90178 -0.03400
N 	N 	0.56530 0.24453 0.87222 -0.08500
C 	C 	0.50060 0.23255 0.88639 0.11600
N 	N 	0.47210 0.20872 0.87062 -0.20500
N 	N 	0.51926 0.20600 0.84671 -0.17900
N 	N 	0.57690 0.22812 0.84769 -0.05500
N 	N 	0.28537 0.20163 0.97553 -0.20200
N 	N 	0.25750 0.19224 0.00162 -0.17700
N 	N 	0.29430 0.20930 0.02226 -0.05600
N 	N 	0.34490 0.22923 0.00892 -0.08800
C 	C 	0.33938 0.22448 0.98004 0.11900
N 	N 	0.47490 0.36853 0.96847 -0.16200
N 	N 	0.54310 0.36507 0.95313 -0.04800
N 	N 	0.54710 0.33603 0.94246 -0.08400
N 	N 	0.60140 0.13740 0.77872 -0.17500
N 	N 	0.58500 0.14574 0.80676 -0.21100
C 	C 	0.77287 0.11390 0.91880 0.11800
N 	N 	0.78170 0.12230 0.94679 -0.08500
N 	N 	0.85621 0.11321 0.95574 -0.05500
N 	N 	0.89343 0.09919 0.93326 -0.16300
N 	N 	0.84194 0.09961 0.91044 -0.20600
C 	C 	0.47920 0.32175 0.95259 0.11500
N 	N 	0.43240 0.34127 0.96874 -0.20500
Cu	Cu	0.99882 0.67879 0.81245 0.83800
Cu	Cu	0.06845 0.65796 0.73948 0.83800
C 	C 	0.96670 0.74541 0.91348 -0.02600
C 	C 	0.91770 0.72863 0.93251 -0.03100
H 	H 	0.90380 0.70830 0.92780 -0.00700
C 	C 	0.88840 0.74157 0.95858 -0.03100
C 	C 	0.90910 0.77226 0.96518 -0.03400
H 	H 	0.89000 0.78130 0.98250 0.02300
C 	C 	0.95790 0.78926 0.94614 -0.02300
C 	C 	0.98820 0.77553 0.92050 -0.04000
H 	H 	0.02300 0.78670 0.90810 0.06700
C 	C 	0.19740 0.61899 0.87112 -0.02200
H 	H 	0.24600 0.61500 0.86090 -0.01000
C 	C 	0.19770 0.61891 0.90178 -0.03400
N 	N 	0.06530 0.74453 0.87222 -0.08500
C 	C 	0.00060 0.73255 0.88639 0.11600
N 	N 	0.97210 0.70872 0.87062 -0.20500
N 	N 	0.01926 0.70600 0.84671 -0.17900
N 	N 	0.07690 0.72812 0.84769 -0.05500
N 	N 	0.78537 0.70163 0.97553 -0.20200
N 	N 	0.75750 0.69224 0.00162 -0.17700
N 	N 	0.79430 0.70930 0.02226 -0.05600
N 	N 	0.84490 0.72923 0.00892 -0.08800
C 	C 	0.83938 0.72448 0.98004 0.11900
N 	N 	0.97490 0.86853 0.96847 -0.16200
N 	N 	0.04310 0.86507 0.95313 -0.04800
N 	N 	0.04710 0.83603 0.94246 -0.08400
N 	N 	0.10140 0.63740 0.77872 -0.17500
N 	N 	0.08500 0.64574 0.80676 -0.21100
C 	C 	0.27287 0.61390 0.91880 0.11800
N 	N 	0.28170 0.62230 0.94679 -0.08500
N 	N 	0.35621 0.61321 0.95574 -0.05500
N 	N 	0.39343 0.59919 0.93326 -0.16300
N 	N 	0.34194 0.59961 0.91044 -0.20600
C 	C 	0.97920 0.82175 0.95259 0.11500
N 	N 	0.93240 0.84127 0.96874 -0.20500
Cu	Cu	0.99882 0.17879 0.31245 0.83800
Cu	Cu	0.06845 0.15796 0.23948 0.83800
C 	C 	0.96670 0.24541 0.41348 -0.02600
C 	C 	0.91770 0.22863 0.43251 -0.03100
H 	H 	0.90380 0.20830 0.42780 -0.00700
C 	C 	0.88840 0.24157 0.45858 -0.03100
C 	C 	0.90910 0.27226 0.46518 -0.03400
H 	H 	0.89000 0.28130 0.48250 0.02300
C 	C 	0.95790 0.28926 0.44614 -0.02300
C 	C 	0.98820 0.27553 0.42050 -0.04000
H 	H 	0.02300 0.28670 0.40810 0.06700
C 	C 	0.19740 0.11899 0.37112 -0.02200
H 	H 	0.24600 0.11500 0.36090 -0.01000
C 	C 	0.19770 0.11891 0.40178 -0.03400
N 	N 	0.06530 0.24453 0.37222 -0.08500
C 	C 	0.00060 0.23255 0.38639 0.11600
N 	N 	0.97210 0.20872 0.37062 -0.20500
N 	N 	0.01926 0.20600 0.34671 -0.17900
N 	N 	0.07690 0.22812 0.34769 -0.05500
N 	N 	0.78537 0.20163 0.47553 -0.20200
N 	N 	0.75750 0.19224 0.50162 -0.17700
N 	N 	0.79430 0.20930 0.52226 -0.05600
N 	N 	0.84490 0.22923 0.50892 -0.08800
C 	C 	0.83938 0.22448 0.48004 0.11900
N 	N 	0.97490 0.36853 0.46847 -0.16200
N 	N 	0.04310 0.36507 0.45313 -0.04800
N 	N 	0.04710 0.33603 0.44246 -0.08400
N 	N 	0.10140 0.13740 0.27872 -0.17500
N 	N 	0.08500 0.14574 0.30676 -0.21100
C 	C 	0.27287 0.11390 0.41880 0.11800
N 	N 	0.28170 0.12230 0.44679 -0.08500
N 	N 	0.35621 0.11321 0.45574 -0.05500
N 	N 	0.39343 0.09919 0.43326 -0.16300
N 	N 	0.34194 0.09961 0.41044 -0.20600
C 	C 	0.97920 0.32175 0.45259 0.11500
N 	N 	0.93240 0.34127 0.46874 -0.20500
Cu	Cu	0.62500 0.42783 0.12500 0.83100
Cu	Cu	0.62500 0.92783 0.62500 0.83100
Cu	Cu	0.12500 0.32217 0.12500 0.83100
Cu	Cu	0.12500 0.82217 0.62500 0.83100
Cu	Cu	0.62500 0.32217 0.62500 0.83100
Cu	Cu	0.12500 0.42783 0.62500 0.83100
Cu	Cu	0.12500 0.92783 0.12500 0.83100
Cu	Cu	0.62500 0.82217 0.12500 0.83100
Cu	Cu	0.37500 0.57217 0.87500 0.83100
Cu	Cu	0.37500 0.07217 0.37500 0.83100
Cu	Cu	0.87500 0.67783 0.87500 0.83100
Cu	Cu	0.87500 0.17783 0.37500 0.83100
Cu	Cu	0.87500 0.57217 0.37500 0.83100
Cu	Cu	0.87500 0.07217 0.87500 0.83100
Cu	Cu	0.37500 0.67783 0.37500 0.83100
Cu	Cu	0.37500 0.17783 0.87500 0.83100
C 	C 	0.37500 0.37500 0.10576 -0.06100
C 	C 	0.37500 0.37500 0.16647 -0.03000
H 	H 	0.37500 0.37500 0.18690 0.06500
C 	C 	0.37500 0.37500 0.07342 0.12200
C 	C 	0.37500 0.87500 0.60576 -0.06100
C 	C 	0.37500 0.87500 0.66647 -0.03000
H 	H 	0.37500 0.87500 0.68690 0.06500
C 	C 	0.37500 0.87500 0.57342 0.12200
C 	C 	0.87500 0.37500 0.60576 -0.06100
C 	C 	0.87500 0.37500 0.66647 -0.03000
H 	H 	0.87500 0.37500 0.68690 0.06500
C 	C 	0.87500 0.37500 0.57342 0.12200
C 	C 	0.87500 0.87500 0.10576 -0.06100
C 	C 	0.87500 0.87500 0.16647 -0.03000
H 	H 	0.87500 0.87500 0.18690 0.06500
C 	C 	0.87500 0.87500 0.07342 0.12200
C 	C 	0.37500 0.37500 0.64424 -0.06100
C 	C 	0.37500 0.37500 0.58353 -0.03000
H 	H 	0.37500 0.37500 0.56310 0.06500
C 	C 	0.37500 0.37500 0.67658 0.12200
C 	C 	0.37500 0.87500 0.14424 -0.06100
C 	C 	0.37500 0.87500 0.08353 -0.03000
H 	H 	0.37500 0.87500 0.06310 0.06500
C 	C 	0.37500 0.87500 0.17658 0.12200
C 	C 	0.87500 0.37500 0.14424 -0.06100
C 	C 	0.87500 0.37500 0.08353 -0.03000
H 	H 	0.87500 0.37500 0.06310 0.06500
C 	C 	0.87500 0.37500 0.17658 0.12200
C 	C 	0.87500 0.87500 0.64424 -0.06100
C 	C 	0.87500 0.87500 0.58353 -0.03000
H 	H 	0.87500 0.87500 0.56310 0.06500
C 	C 	0.87500 0.87500 0.67658 0.12200
C 	C 	0.62500 0.62500 0.89424 -0.06100
C 	C 	0.62500 0.62500 0.83353 -0.03000
H 	H 	0.62500 0.62500 0.81310 0.06500
C 	C 	0.62500 0.62500 0.92658 0.12200
C 	C 	0.62500 0.12500 0.39424 -0.06100
C 	C 	0.62500 0.12500 0.33353 -0.03000
H 	H 	0.62500 0.12500 0.31310 0.06500
C 	C 	0.62500 0.12500 0.42658 0.12200
C 	C 	0.12500 0.62500 0.39424 -0.06100
C 	C 	0.12500 0.62500 0.33353 -0.03000
H 	H 	0.12500 0.62500 0.31310 0.06500
C 	C 	0.12500 0.62500 0.42658 0.12200
C 	C 	0.12500 0.12500 0.89424 -0.06100
C 	C 	0.12500 0.12500 0.83353 -0.03000
H 	H 	0.12500 0.12500 0.81310 0.06500
C 	C 	0.12500 0.12500 0.92658 0.12200
C 	C 	0.62500 0.62500 0.35576 -0.06100
C 	C 	0.62500 0.62500 0.41647 -0.03000
H 	H 	0.62500 0.62500 0.43690 0.06500
C 	C 	0.62500 0.62500 0.32342 0.12200
C 	C 	0.62500 0.12500 0.85576 -0.06100
C 	C 	0.62500 0.12500 0.91647 -0.03000
H 	H 	0.62500 0.12500 0.93690 0.06500
C 	C 	0.62500 0.12500 0.82342 0.12200
C 	C 	0.12500 0.62500 0.85576 -0.06100
C 	C 	0.12500 0.62500 0.91647 -0.03000
H 	H 	0.12500 0.62500 0.93690 0.06500
C 	C 	0.12500 0.62500 0.82342 0.12200
C 	C 	0.12500 0.12500 0.35576 -0.06100
C 	C 	0.12500 0.12500 0.41647 -0.03000
H 	H 	0.12500 0.12500 0.43690 0.06500
C 	C 	0.12500 0.12500 0.32342 0.12200
