data_crystal

_cell_length_a 18.90640
_cell_length_b 20.98430
_cell_length_c 23.42840
_cell_angle_alpha 90.00000
_cell_angle_beta  90.00000
_cell_angle_gamma 90.00000

_symmetry_space_group_name_	'P 1'
_symmetry_space_group_name_H-M	'P 1'

loop_
_symmetry_equiv_pos_as_xyz
  x,y,z

loop_
_atom_site_label
_atom_site_type_symbol
_atom_site_fract_x
_atom_site_fract_y
_atom_site_fract_z
_atom_site_charge
W 	W 	0.08693 0.17081 0.28994 1.39500
W 	W 	0.08723 0.27703 0.41967 1.09800
W 	W 	0.18000 0.12497 0.42060 2.76600
W 	W 	0.18043 0.04406 0.37095 1.31800
O 	O 	0.07990 0.23920 0.34540 -0.49500
O 	O 	0.14700 0.20880 0.24550 -0.52600
O 	O 	0.08160 0.09160 0.24720 -0.47300
O 	O 	0.14810 0.13040 0.34110 -0.85500
O 	O 	0.14940 0.20980 0.43890 -0.55600
O 	O 	0.18190 0.08370 0.44240 -1.41500
O 	O 	0.18610 0.03560 0.40690 -0.77900
O 	O 	0.06580 0.03490 0.39240 -0.19100
O 	O 	0.06590 0.10420 0.43420 -0.30200
C 	C 	0.19690 0.43740 0.31750 0.01700
H 	H 	0.20800 0.47700 0.33600 0.00800
C 	C 	0.24600 0.39000 0.30040 -0.06900
H 	H 	0.29620 0.39120 0.30640 0.04100
N 	N 	0.20790 0.34050 0.27280 -0.11500
C 	C 	0.13520 0.35730 0.27290 0.09700
H 	H 	0.09720 0.33250 0.25710 -0.00000
N 	N 	0.12830 0.41720 0.30060 -0.15600
C 	C 	0.06630 0.44550 0.30920 0.13300
H 	H 	0.09200 0.53890 0.34250 0.14800
O 	O 	0.24000 0.27420 0.16040 -0.24400
C 	C 	0.18780 0.44250 0.22510 -0.05600
H 	H 	0.19570 0.48770 0.22590 0.01400
H 	H 	0.09530 0.53630 0.15350 0.12700
N 	N 	0.20010 0.33490 0.23800 -0.16900
N 	N 	0.12670 0.40950 0.20560 -0.13000
C 	C 	0.14040 0.34320 0.21610 0.01200
H 	H 	0.10630 0.31010 0.20960 0.03800
C 	C 	0.23250 0.39410 0.24370 0.05600
C 	C 	0.06340 0.43350 0.18810 0.06100
O 	O 	0.24620 0.23490 0.15870 -0.13800
H 	H 	0.27920 0.40130 0.25860 -0.00900
W 	W 	0.58693 0.67081 0.78994 1.39400
W 	W 	0.58723 0.77703 0.91967 1.04800
W 	W 	0.68000 0.62497 0.92060 2.77100
W 	W 	0.68043 0.54406 0.87095 1.43400
O 	O 	0.57990 0.73920 0.84540 -0.49200
O 	O 	0.64700 0.70880 0.74550 -0.53000
O 	O 	0.58160 0.59160 0.74720 -0.47800
O 	O 	0.64810 0.63040 0.84110 -0.86700
O 	O 	0.64940 0.70980 0.93890 -0.55300
O 	O 	0.68190 0.58370 0.94240 -1.45200
O 	O 	0.68610 0.53560 0.90690 -0.87000
O 	O 	0.56580 0.53490 0.89240 -0.21200
O 	O 	0.56590 0.60420 0.93420 -0.32500
C 	C 	0.69690 0.93740 0.81750 0.03400
H 	H 	0.70800 0.97700 0.83600 -0.02400
C 	C 	0.74600 0.89000 0.80040 -0.09900
H 	H 	0.79620 0.89120 0.80640 0.04500
N 	N 	0.70790 0.84050 0.77280 -0.11600
C 	C 	0.63520 0.85730 0.77290 0.09700
H 	H 	0.59720 0.83250 0.75710 -0.00000
N 	N 	0.62830 0.91720 0.80060 -0.15100
C 	C 	0.56630 0.94550 0.80920 0.11400
H 	H 	0.59200 0.03890 0.84250 0.07400
O 	O 	0.74000 0.77420 0.66040 -0.24400
C 	C 	0.68780 0.94250 0.72510 -0.16500
H 	H 	0.69570 0.98770 0.72590 0.13900
H 	H 	0.59530 0.03630 0.65350 0.04500
N 	N 	0.70010 0.83490 0.73800 -0.17700
N 	N 	0.62670 0.90950 0.70560 -0.10600
C 	C 	0.64040 0.84320 0.71610 0.01000
H 	H 	0.60630 0.81010 0.70960 0.03400
C 	C 	0.73250 0.89410 0.74370 0.11200
C 	C 	0.56340 0.93350 0.68810 0.02100
O 	O 	0.74620 0.73490 0.65870 -0.14300
H 	H 	0.77920 0.90130 0.75860 -0.02800
W 	W 	0.91307 0.82919 0.28994 1.34000
W 	W 	0.91277 0.72297 0.41967 1.03600
W 	W 	0.82000 0.87503 0.42060 2.72500
W 	W 	0.81957 0.95594 0.37095 1.54600
O 	O 	0.92010 0.76080 0.34540 -0.50600
O 	O 	0.85300 0.79120 0.24550 -0.52700
O 	O 	0.91840 0.90840 0.24720 -0.50200
O 	O 	0.85190 0.86960 0.34110 -0.87100
O 	O 	0.85060 0.79020 0.43890 -0.52500
O 	O 	0.81810 0.91630 0.44240 -1.38600
O 	O 	0.81390 0.96440 0.40690 -0.95300
O 	O 	0.93420 0.96510 0.39240 -0.25200
O 	O 	0.93410 0.89580 0.43420 -0.32500
C 	C 	0.80310 0.56260 0.31750 0.01300
H 	H 	0.79200 0.52300 0.33600 0.00800
C 	C 	0.75400 0.61000 0.30040 -0.06800
H 	H 	0.70380 0.60880 0.30640 0.04100
N 	N 	0.79210 0.65950 0.27280 -0.11500
C 	C 	0.86480 0.64270 0.27290 0.09300
H 	H 	0.90280 0.66750 0.25710 -0.01000
N 	N 	0.87170 0.58280 0.30060 -0.15200
C 	C 	0.93370 0.55450 0.30920 0.08900
H 	H 	0.90800 0.46110 0.34250 0.16200
O 	O 	0.76000 0.72580 0.16040 -0.24800
C 	C 	0.81220 0.55750 0.22510 -0.05900
H 	H 	0.80430 0.51230 0.22590 0.01500
H 	H 	0.90470 0.46370 0.15350 0.14500
N 	N 	0.79990 0.66510 0.23800 -0.17000
N 	N 	0.87330 0.59050 0.20560 -0.12700
C 	C 	0.85960 0.65680 0.21610 0.01300
H 	H 	0.89370 0.68990 0.20960 0.02400
C 	C 	0.76750 0.60590 0.24370 0.05600
C 	C 	0.93660 0.56650 0.18810 0.01400
O 	O 	0.75380 0.76510 0.15870 -0.14300
H 	H 	0.72080 0.59870 0.25860 -0.00900
W 	W 	0.41307 0.32919 0.78994 1.39500
W 	W 	0.41277 0.22297 0.91967 1.05400
W 	W 	0.32000 0.37503 0.92060 2.78300
W 	W 	0.31957 0.45594 0.87095 1.43600
O 	O 	0.42010 0.26080 0.84540 -0.49200
O 	O 	0.35300 0.29120 0.74550 -0.53000
O 	O 	0.41840 0.40840 0.74720 -0.47800
O 	O 	0.35190 0.36960 0.84110 -0.86800
O 	O 	0.35060 0.29020 0.93890 -0.55200
O 	O 	0.31810 0.41630 0.94240 -1.45600
O 	O 	0.31390 0.46440 0.90690 -0.86900
O 	O 	0.43420 0.46510 0.89240 -0.21300
O 	O 	0.43410 0.39580 0.93420 -0.32600
C 	C 	0.30310 0.06260 0.81750 -0.00600
H 	H 	0.29200 0.02300 0.83600 0.03600
C 	C 	0.25400 0.11000 0.80040 -0.04100
H 	H 	0.20380 0.10880 0.80640 0.02900
N 	N 	0.29210 0.15950 0.77280 -0.11400
C 	C 	0.36480 0.14270 0.77290 0.09100
H 	H 	0.40280 0.16750 0.75710 0.00000
N 	N 	0.37170 0.08280 0.80060 -0.14400
C 	C 	0.43370 0.05450 0.80920 0.10900
H 	H 	0.40800 0.96110 0.84250 0.05700
O 	O 	0.26000 0.22580 0.66040 -0.24400
C 	C 	0.31220 0.05750 0.72510 0.05500
H 	H 	0.30430 0.01230 0.72590 -0.11900
H 	H 	0.40470 0.96370 0.65350 0.03100
N 	N 	0.29990 0.16510 0.73800 -0.16200
N 	N 	0.37330 0.09050 0.70560 -0.14900
C 	C 	0.35960 0.15680 0.71610 0.01600
H 	H 	0.39370 0.18990 0.70960 0.03100
C 	C 	0.26750 0.10590 0.74370 -0.00400
C 	C 	0.43660 0.06650 0.68810 0.09600
O 	O 	0.25380 0.26510 0.65870 -0.14400
H 	H 	0.22080 0.09870 0.75860 0.01000
W 	W 	0.91307 0.17081 0.71006 1.33300
W 	W 	0.91277 0.27703 0.58033 1.03900
W 	W 	0.82000 0.12497 0.57940 2.75500
W 	W 	0.81957 0.04406 0.62905 1.32100
O 	O 	0.92010 0.23920 0.65460 -0.50700
O 	O 	0.85300 0.20880 0.75450 -0.52700
O 	O 	0.91840 0.09160 0.75280 -0.49000
O 	O 	0.85190 0.13040 0.65890 -0.84800
O 	O 	0.85060 0.20980 0.56110 -0.54900
O 	O 	0.81810 0.08370 0.55760 -1.40900
O 	O 	0.81390 0.03560 0.59310 -0.78100
O 	O 	0.93420 0.03490 0.60760 -0.21500
O 	O 	0.93410 0.10420 0.56580 -0.32700
C 	C 	0.80310 0.43740 0.68250 0.01300
H 	H 	0.79200 0.47700 0.66400 0.00800
C 	C 	0.75400 0.39000 0.69960 -0.06800
H 	H 	0.70380 0.39120 0.69360 0.04000
N 	N 	0.79210 0.34050 0.72720 -0.11500
C 	C 	0.86480 0.35730 0.72710 0.09400
H 	H 	0.90280 0.33250 0.74290 -0.01000
N 	N 	0.87170 0.41720 0.69940 -0.15200
C 	C 	0.93370 0.44550 0.69080 0.08900
H 	H 	0.90800 0.53890 0.65750 0.16200
O 	O 	0.76000 0.27420 0.83960 -0.25100
C 	C 	0.81220 0.44250 0.77490 -0.06100
H 	H 	0.80430 0.48770 0.77410 0.01400
H 	H 	0.90470 0.53630 0.84650 0.13800
N 	N 	0.79990 0.33490 0.76200 -0.17000
N 	N 	0.87330 0.40950 0.79440 -0.12800
C 	C 	0.85960 0.34320 0.78390 0.01000
H 	H 	0.89370 0.31010 0.79040 0.02100
C 	C 	0.76750 0.39410 0.75630 0.05600
C 	C 	0.93660 0.43350 0.81190 0.01200
O 	O 	0.75380 0.23490 0.84130 -0.14900
H 	H 	0.72080 0.40130 0.74140 -0.00900
W 	W 	0.41307 0.67081 0.21006 1.39600
W 	W 	0.41277 0.77703 0.08033 1.10000
W 	W 	0.32000 0.62497 0.07940 2.82100
W 	W 	0.31957 0.54406 0.12905 1.41000
O 	O 	0.42010 0.73920 0.15460 -0.50000
O 	O 	0.35300 0.70880 0.25450 -0.53000
O 	O 	0.41840 0.59160 0.25280 -0.47800
O 	O 	0.35190 0.63040 0.15890 -0.87000
O 	O 	0.35060 0.70980 0.06110 -0.53100
O 	O 	0.31810 0.58370 0.05760 -1.44400
O 	O 	0.31390 0.53560 0.09310 -0.84600
O 	O 	0.43420 0.53490 0.10760 -0.20700
O 	O 	0.43410 0.60420 0.06580 -0.30400
C 	C 	0.30310 0.93740 0.18250 0.04100
H 	H 	0.29200 0.97700 0.16400 -0.02000
C 	C 	0.25400 0.89000 0.19960 -0.09600
H 	H 	0.20380 0.89120 0.19360 0.05300
N 	N 	0.29210 0.84050 0.22720 -0.11500
C 	C 	0.36480 0.85730 0.22710 0.09800
H 	H 	0.40280 0.83250 0.24290 -0.00100
N 	N 	0.37170 0.91720 0.19940 -0.15100
C 	C 	0.43370 0.94550 0.19080 0.11000
H 	H 	0.40800 0.03890 0.15750 0.08200
O 	O 	0.26000 0.77420 0.33960 -0.24500
C 	C 	0.31220 0.94250 0.27490 -0.17100
H 	H 	0.30430 0.98770 0.27410 0.14500
H 	H 	0.40470 0.03630 0.34650 0.04500
N 	N 	0.29990 0.83490 0.26200 -0.17700
N 	N 	0.37330 0.90950 0.29440 -0.10500
C 	C 	0.35960 0.84320 0.28390 0.00900
H 	H 	0.39370 0.81010 0.29040 0.03400
C 	C 	0.26750 0.89410 0.25630 0.11400
C 	C 	0.43660 0.93350 0.31190 0.02100
O 	O 	0.25380 0.73490 0.34130 -0.14300
H 	H 	0.22080 0.90130 0.24140 -0.03100
W 	W 	0.08693 0.82919 0.71006 1.39800
W 	W 	0.08723 0.72297 0.58033 1.09400
W 	W 	0.18000 0.87503 0.57940 2.73400
W 	W 	0.18043 0.95594 0.62905 1.55800
O 	O 	0.07990 0.76080 0.65460 -0.49400
O 	O 	0.14700 0.79120 0.75450 -0.53200
O 	O 	0.08160 0.90840 0.75280 -0.49300
O 	O 	0.14810 0.86960 0.65890 -0.87900
O 	O 	0.14940 0.79020 0.56110 -0.53000
O 	O 	0.18190 0.91630 0.55760 -1.39100
O 	O 	0.18610 0.96440 0.59310 -0.96300
O 	O 	0.06580 0.96510 0.60760 -0.23200
O 	O 	0.06590 0.89580 0.56580 -0.30200
C 	C 	0.19690 0.56260 0.68250 0.01700
H 	H 	0.20800 0.52300 0.66400 0.00800
C 	C 	0.24600 0.61000 0.69960 -0.06900
H 	H 	0.29620 0.60880 0.69360 0.04100
N 	N 	0.20790 0.65950 0.72720 -0.11500
C 	C 	0.13520 0.64270 0.72710 0.09800
H 	H 	0.09720 0.66750 0.74290 -0.00000
N 	N 	0.12830 0.58280 0.69940 -0.15600
C 	C 	0.06630 0.55450 0.69080 0.13300
H 	H 	0.09200 0.46110 0.65750 0.14800
O 	O 	0.24000 0.72580 0.83960 -0.24800
C 	C 	0.18780 0.55750 0.77490 -0.05800
H 	H 	0.19570 0.51230 0.77410 0.01300
H 	H 	0.09530 0.46370 0.84650 0.12100
N 	N 	0.20010 0.66510 0.76200 -0.16900
N 	N 	0.12670 0.59050 0.79440 -0.13100
C 	C 	0.14040 0.65680 0.78390 0.00800
H 	H 	0.10630 0.68990 0.79040 0.03400
C 	C 	0.23250 0.60590 0.75630 0.05500
C 	C 	0.06340 0.56650 0.81190 0.05900
O 	O 	0.24620 0.76510 0.84130 -0.14600
H 	H 	0.27920 0.59870 0.74140 -0.00900
W 	W 	0.58693 0.32919 0.21006 1.39600
W 	W 	0.58723 0.22297 0.08033 1.10100
W 	W 	0.68000 0.37503 0.07940 2.81300
W 	W 	0.68043 0.45594 0.12905 1.41600
O 	O 	0.57990 0.26080 0.15460 -0.50000
O 	O 	0.64700 0.29120 0.25450 -0.53100
O 	O 	0.58160 0.40840 0.25280 -0.47800
O 	O 	0.64810 0.36960 0.15890 -0.87000
O 	O 	0.64940 0.29020 0.06110 -0.53100
O 	O 	0.68190 0.41630 0.05760 -1.44200
O 	O 	0.68610 0.46440 0.09310 -0.85200
O 	O 	0.56580 0.46510 0.10760 -0.20700
O 	O 	0.56590 0.39580 0.06580 -0.30300
C 	C 	0.69690 0.06260 0.18250 -0.00200
H 	H 	0.70800 0.02300 0.16400 0.03700
C 	C 	0.74600 0.11000 0.19960 -0.04100
H 	H 	0.79620 0.10880 0.19360 0.03100
N 	N 	0.70790 0.15950 0.22720 -0.11400
C 	C 	0.63520 0.14270 0.22710 0.09200
H 	H 	0.59720 0.16750 0.24290 -0.00000
N 	N 	0.62830 0.08280 0.19940 -0.14300
C 	C 	0.56630 0.05450 0.19080 0.10600
H 	H 	0.59200 0.96110 0.15750 0.06500
O 	O 	0.74000 0.22580 0.33960 -0.24300
C 	C 	0.68780 0.05750 0.27490 0.05100
H 	H 	0.69570 0.01230 0.27410 -0.11400
H 	H 	0.59530 0.96370 0.34650 0.03200
N 	N 	0.70010 0.16510 0.26200 -0.16200
N 	N 	0.62670 0.09050 0.29440 -0.14900
C 	C 	0.64040 0.15680 0.28390 0.01600
H 	H 	0.60630 0.18990 0.29040 0.03100
C 	C 	0.73250 0.10590 0.25630 -0.00200
C 	C 	0.56340 0.06650 0.31190 0.09600
O 	O 	0.74620 0.26510 0.34130 -0.14400
H 	H 	0.77920 0.09870 0.24140 0.01100
W 	W 	0.91307 0.82919 0.71006 1.33900
W 	W 	0.91277 0.72297 0.58033 1.03600
W 	W 	0.82000 0.87503 0.57940 2.72500
W 	W 	0.81957 0.95594 0.62905 1.54500
O 	O 	0.92010 0.76080 0.65460 -0.50600
O 	O 	0.85300 0.79120 0.75450 -0.52900
O 	O 	0.91840 0.90840 0.75280 -0.50500
O 	O 	0.85190 0.86960 0.65890 -0.87100
O 	O 	0.85060 0.79020 0.56110 -0.52500
O 	O 	0.81810 0.91630 0.55760 -1.38600
O 	O 	0.81390 0.96440 0.59310 -0.95300
O 	O 	0.93420 0.96510 0.60760 -0.25200
O 	O 	0.93410 0.89580 0.56580 -0.32500
C 	C 	0.80310 0.56260 0.68250 0.01300
H 	H 	0.79200 0.52300 0.66400 0.00800
C 	C 	0.75400 0.61000 0.69960 -0.06800
H 	H 	0.70380 0.60880 0.69360 0.04100
N 	N 	0.79210 0.65950 0.72720 -0.11500
C 	C 	0.86480 0.64270 0.72710 0.09400
H 	H 	0.90280 0.66750 0.74290 -0.01000
N 	N 	0.87170 0.58280 0.69940 -0.15200
C 	C 	0.93370 0.55450 0.69080 0.08900
H 	H 	0.90800 0.46110 0.65750 0.16200
O 	O 	0.76000 0.72580 0.83960 -0.25100
C 	C 	0.81220 0.55750 0.77490 -0.06100
H 	H 	0.80430 0.51230 0.77410 0.01500
H 	H 	0.90470 0.46370 0.84650 0.13800
N 	N 	0.79990 0.66510 0.76200 -0.17000
N 	N 	0.87330 0.59050 0.79440 -0.12800
C 	C 	0.85960 0.65680 0.78390 0.01000
H 	H 	0.89370 0.68990 0.79040 0.02000
C 	C 	0.76750 0.60590 0.75630 0.05600
C 	C 	0.93660 0.56650 0.81190 0.01200
O 	O 	0.75380 0.76510 0.84130 -0.15000
H 	H 	0.72080 0.59870 0.74140 -0.00900
W 	W 	0.41307 0.32919 0.21006 1.39700
W 	W 	0.41277 0.22297 0.08033 1.10400
W 	W 	0.32000 0.37503 0.07940 2.82300
W 	W 	0.31957 0.45594 0.12905 1.41400
O 	O 	0.42010 0.26080 0.15460 -0.50000
O 	O 	0.35300 0.29120 0.25450 -0.53100
O 	O 	0.41840 0.40840 0.25280 -0.47800
O 	O 	0.35190 0.36960 0.15890 -0.87100
O 	O 	0.35060 0.29020 0.06110 -0.53100
O 	O 	0.31810 0.41630 0.05760 -1.44500
O 	O 	0.31390 0.46440 0.09310 -0.84900
O 	O 	0.43420 0.46510 0.10760 -0.20700
O 	O 	0.43410 0.39580 0.06580 -0.30400
C 	C 	0.30310 0.06260 0.18250 -0.00200
H 	H 	0.29200 0.02300 0.16400 0.04000
C 	C 	0.25400 0.11000 0.19960 -0.03800
H 	H 	0.20380 0.10880 0.19360 0.03400
N 	N 	0.29210 0.15950 0.22720 -0.11400
C 	C 	0.36480 0.14270 0.22710 0.09200
H 	H 	0.40280 0.16750 0.24290 -0.00000
N 	N 	0.37170 0.08280 0.19940 -0.14300
C 	C 	0.43370 0.05450 0.19080 0.10600
H 	H 	0.40800 0.96110 0.15750 0.06500
O 	O 	0.26000 0.22580 0.33960 -0.24500
C 	C 	0.31220 0.05750 0.27490 0.05500
H 	H 	0.30430 0.01230 0.27410 -0.12000
H 	H 	0.40470 0.96370 0.34650 0.03100
N 	N 	0.29990 0.16510 0.26200 -0.16200
N 	N 	0.37330 0.09050 0.29440 -0.14900
C 	C 	0.35960 0.15680 0.28390 0.01500
H 	H 	0.39370 0.18990 0.29040 0.03100
C 	C 	0.26750 0.10590 0.25630 -0.00500
C 	C 	0.43660 0.06650 0.31190 0.09600
O 	O 	0.25380 0.26510 0.34130 -0.14500
H 	H 	0.22080 0.09870 0.24140 0.01000
W 	W 	0.08693 0.17081 0.71006 1.39300
W 	W 	0.08723 0.27703 0.58033 1.09800
W 	W 	0.18000 0.12497 0.57940 2.76600
W 	W 	0.18043 0.04406 0.62905 1.31700
O 	O 	0.07990 0.23920 0.65460 -0.49500
O 	O 	0.14700 0.20880 0.75450 -0.52900
O 	O 	0.08160 0.09160 0.75280 -0.47600
O 	O 	0.14810 0.13040 0.65890 -0.85400
O 	O 	0.14940 0.20980 0.56110 -0.55600
O 	O 	0.18190 0.08370 0.55760 -1.41600
O 	O 	0.18610 0.03560 0.59310 -0.77800
O 	O 	0.06580 0.03490 0.60760 -0.19100
O 	O 	0.06590 0.10420 0.56580 -0.30200
C 	C 	0.19690 0.43740 0.68250 0.01700
H 	H 	0.20800 0.47700 0.66400 0.00800
C 	C 	0.24600 0.39000 0.69960 -0.06900
H 	H 	0.29620 0.39120 0.69360 0.04100
N 	N 	0.20790 0.34050 0.72720 -0.11600
C 	C 	0.13520 0.35730 0.72710 0.09800
H 	H 	0.09720 0.33250 0.74290 -0.00000
N 	N 	0.12830 0.41720 0.69940 -0.15600
C 	C 	0.06630 0.44550 0.69080 0.13300
H 	H 	0.09200 0.53890 0.65750 0.14800
O 	O 	0.24000 0.27420 0.83960 -0.24700
C 	C 	0.18780 0.44250 0.77490 -0.05800
H 	H 	0.19570 0.48770 0.77410 0.01300
H 	H 	0.09530 0.53630 0.84650 0.12000
N 	N 	0.20010 0.33490 0.76200 -0.16900
N 	N 	0.12670 0.40950 0.79440 -0.13100
C 	C 	0.14040 0.34320 0.78390 0.00900
H 	H 	0.10630 0.31010 0.79040 0.03400
C 	C 	0.23250 0.39410 0.75630 0.05500
C 	C 	0.06340 0.43350 0.81190 0.05900
O 	O 	0.24620 0.23490 0.84130 -0.14500
H 	H 	0.27920 0.40130 0.74140 -0.00900
W 	W 	0.58693 0.67081 0.21006 1.39600
W 	W 	0.58723 0.77703 0.08033 1.09700
W 	W 	0.68000 0.62497 0.07940 2.81100
W 	W 	0.68043 0.54406 0.12905 1.41200
O 	O 	0.57990 0.73920 0.15460 -0.50000
O 	O 	0.64700 0.70880 0.25450 -0.53000
O 	O 	0.58160 0.59160 0.25280 -0.47800
O 	O 	0.64810 0.63040 0.15890 -0.87000
O 	O 	0.64940 0.70980 0.06110 -0.53200
O 	O 	0.68190 0.58370 0.05760 -1.44100
O 	O 	0.68610 0.53560 0.09310 -0.84900
O 	O 	0.56580 0.53490 0.10760 -0.20700
O 	O 	0.56590 0.60420 0.06580 -0.30300
C 	C 	0.69690 0.93740 0.18250 0.03900
H 	H 	0.70800 0.97700 0.16400 -0.02000
C 	C 	0.74600 0.89000 0.19960 -0.09600
H 	H 	0.79620 0.89120 0.19360 0.04900
N 	N 	0.70790 0.84050 0.22720 -0.11500
C 	C 	0.63520 0.85730 0.22710 0.09800
H 	H 	0.59720 0.83250 0.24290 -0.00100
N 	N 	0.62830 0.91720 0.19940 -0.15100
C 	C 	0.56630 0.94550 0.19080 0.11100
H 	H 	0.59200 0.03890 0.15750 0.08200
O 	O 	0.74000 0.77420 0.33960 -0.24400
C 	C 	0.68780 0.94250 0.27490 -0.16500
H 	H 	0.69570 0.98770 0.27410 0.13900
H 	H 	0.59530 0.03630 0.34650 0.04500
N 	N 	0.70010 0.83490 0.26200 -0.17700
N 	N 	0.62670 0.90950 0.29440 -0.10600
C 	C 	0.64040 0.84320 0.28390 0.01000
H 	H 	0.60630 0.81010 0.29040 0.03400
C 	C 	0.73250 0.89410 0.25630 0.11100
C 	C 	0.56340 0.93350 0.31190 0.02100
O 	O 	0.74620 0.73490 0.34130 -0.14300
H 	H 	0.77920 0.90130 0.24140 -0.02800
W 	W 	0.08693 0.82919 0.28994 1.39900
W 	W 	0.08723 0.72297 0.41967 1.09400
W 	W 	0.18000 0.87503 0.42060 2.73400
W 	W 	0.18043 0.95594 0.37095 1.55800
O 	O 	0.07990 0.76080 0.34540 -0.49400
O 	O 	0.14700 0.79120 0.24550 -0.52900
O 	O 	0.08160 0.90840 0.24720 -0.49000
O 	O 	0.14810 0.86960 0.34110 -0.88000
O 	O 	0.14940 0.79020 0.43890 -0.53000
O 	O 	0.18190 0.91630 0.44240 -1.39100
O 	O 	0.18610 0.96440 0.40690 -0.96300
O 	O 	0.06580 0.96510 0.39240 -0.23200
O 	O 	0.06590 0.89580 0.43420 -0.30200
C 	C 	0.19690 0.56260 0.31750 0.01700
H 	H 	0.20800 0.52300 0.33600 0.00800
C 	C 	0.24600 0.61000 0.30040 -0.06900
H 	H 	0.29620 0.60880 0.30640 0.04100
N 	N 	0.20790 0.65950 0.27280 -0.11500
C 	C 	0.13520 0.64270 0.27290 0.09700
H 	H 	0.09720 0.66750 0.25710 -0.00000
N 	N 	0.12830 0.58280 0.30060 -0.15600
C 	C 	0.06630 0.55450 0.30920 0.13300
H 	H 	0.09200 0.46110 0.34250 0.14800
O 	O 	0.24000 0.72580 0.16040 -0.24400
C 	C 	0.18780 0.55750 0.22510 -0.05600
H 	H 	0.19570 0.51230 0.22590 0.01400
H 	H 	0.09530 0.46370 0.15350 0.12700
N 	N 	0.20010 0.66510 0.23800 -0.16900
N 	N 	0.12670 0.59050 0.20560 -0.13000
C 	C 	0.14040 0.65680 0.21610 0.01200
H 	H 	0.10630 0.68990 0.20960 0.03700
C 	C 	0.23250 0.60590 0.24370 0.05600
C 	C 	0.06340 0.56650 0.18810 0.06100
O 	O 	0.24620 0.76510 0.15870 -0.13900
H 	H 	0.27920 0.59870 0.25860 -0.00900
W 	W 	0.58693 0.32919 0.78994 1.39400
W 	W 	0.58723 0.22297 0.91967 1.05200
W 	W 	0.68000 0.37503 0.92060 2.77200
W 	W 	0.68043 0.45594 0.87095 1.43800
O 	O 	0.57990 0.26080 0.84540 -0.49200
O 	O 	0.64700 0.29120 0.74550 -0.53000
O 	O 	0.58160 0.40840 0.74720 -0.47800
O 	O 	0.64810 0.36960 0.84110 -0.86700
O 	O 	0.64940 0.29020 0.93890 -0.55200
O 	O 	0.68190 0.41630 0.94240 -1.45300
O 	O 	0.68610 0.46440 0.90690 -0.87300
O 	O 	0.56580 0.46510 0.89240 -0.21300
O 	O 	0.56590 0.39580 0.93420 -0.32500
C 	C 	0.69690 0.06260 0.81750 -0.00700
H 	H 	0.70800 0.02300 0.83600 0.03400
C 	C 	0.74600 0.11000 0.80040 -0.04400
H 	H 	0.79620 0.10880 0.80640 0.02600
N 	N 	0.70790 0.15950 0.77280 -0.11400
C 	C 	0.63520 0.14270 0.77290 0.09100
H 	H 	0.59720 0.16750 0.75710 0.00000
N 	N 	0.62830 0.08280 0.80060 -0.14400
C 	C 	0.56630 0.05450 0.80920 0.10900
H 	H 	0.59200 0.96110 0.84250 0.05700
O 	O 	0.74000 0.22580 0.66040 -0.24300
C 	C 	0.68780 0.05750 0.72510 0.05100
H 	H 	0.69570 0.01230 0.72590 -0.11400
H 	H 	0.59530 0.96370 0.65350 0.03200
N 	N 	0.70010 0.16510 0.73800 -0.16200
N 	N 	0.62670 0.09050 0.70560 -0.14900
C 	C 	0.64040 0.15680 0.71610 0.01600
H 	H 	0.60630 0.18990 0.70960 0.03100
C 	C 	0.73250 0.10590 0.74370 -0.00100
C 	C 	0.56340 0.06650 0.68810 0.09600
O 	O 	0.74620 0.26510 0.65870 -0.14400
H 	H 	0.77920 0.09870 0.75860 0.01100
W 	W 	0.91307 0.17081 0.28994 1.33300
W 	W 	0.91277 0.27703 0.41967 1.03900
W 	W 	0.82000 0.12497 0.42060 2.75500
W 	W 	0.81957 0.04406 0.37095 1.32200
O 	O 	0.92010 0.23920 0.34540 -0.50700
O 	O 	0.85300 0.20880 0.24550 -0.52400
O 	O 	0.91840 0.09160 0.24720 -0.48700
O 	O 	0.85190 0.13040 0.34110 -0.84800
O 	O 	0.85060 0.20980 0.43890 -0.54900
O 	O 	0.81810 0.08370 0.44240 -1.40800
O 	O 	0.81390 0.03560 0.40690 -0.78200
O 	O 	0.93420 0.03490 0.39240 -0.21500
O 	O 	0.93410 0.10420 0.43420 -0.32700
C 	C 	0.80310 0.43740 0.31750 0.01300
H 	H 	0.79200 0.47700 0.33600 0.00800
C 	C 	0.75400 0.39000 0.30040 -0.06800
H 	H 	0.70380 0.39120 0.30640 0.04100
N 	N 	0.79210 0.34050 0.27280 -0.11500
C 	C 	0.86480 0.35730 0.27290 0.09200
H 	H 	0.90280 0.33250 0.25710 -0.01000
N 	N 	0.87170 0.41720 0.30060 -0.15200
C 	C 	0.93370 0.44550 0.30920 0.08900
H 	H 	0.90800 0.53890 0.34250 0.16200
O 	O 	0.76000 0.27420 0.16040 -0.24700
C 	C 	0.81220 0.44250 0.22510 -0.05900
H 	H 	0.80430 0.48770 0.22590 0.01500
H 	H 	0.90470 0.53630 0.15350 0.14400
N 	N 	0.79990 0.33490 0.23800 -0.17000
N 	N 	0.87330 0.40950 0.20560 -0.12700
C 	C 	0.85960 0.34320 0.21610 0.01300
H 	H 	0.89370 0.31010 0.20960 0.02400
C 	C 	0.76750 0.39410 0.24370 0.05600
C 	C 	0.93660 0.43350 0.18810 0.01400
O 	O 	0.75380 0.23490 0.15870 -0.14200
H 	H 	0.72080 0.40130 0.25860 -0.00900
W 	W 	0.41307 0.67081 0.78994 1.39400
W 	W 	0.41277 0.77703 0.91967 1.05000
W 	W 	0.32000 0.62497 0.92060 2.78100
W 	W 	0.31957 0.54406 0.87095 1.43200
O 	O 	0.42010 0.73920 0.84540 -0.49200
O 	O 	0.35300 0.70880 0.74550 -0.53000
O 	O 	0.41840 0.59160 0.74720 -0.47800
O 	O 	0.35190 0.63040 0.84110 -0.86700
O 	O 	0.35060 0.70980 0.93890 -0.55200
O 	O 	0.31810 0.58370 0.94240 -1.45500
O 	O 	0.31390 0.53560 0.90690 -0.86700
O 	O 	0.43420 0.53490 0.89240 -0.21300
O 	O 	0.43410 0.60420 0.93420 -0.32600
C 	C 	0.30310 0.93740 0.81750 0.03600
H 	H 	0.29200 0.97700 0.83600 -0.02400
C 	C 	0.25400 0.89000 0.80040 -0.09900
H 	H 	0.20380 0.89120 0.80640 0.04800
N 	N 	0.29210 0.84050 0.77280 -0.11600
C 	C 	0.36480 0.85730 0.77290 0.09700
H 	H 	0.40280 0.83250 0.75710 -0.00000
N 	N 	0.37170 0.91720 0.80060 -0.15100
C 	C 	0.43370 0.94550 0.80920 0.11300
H 	H 	0.40800 0.03890 0.84250 0.07400
O 	O 	0.26000 0.77420 0.66040 -0.24500
C 	C 	0.31220 0.94250 0.72510 -0.17100
H 	H 	0.30430 0.98770 0.72590 0.14500
H 	H 	0.40470 0.03630 0.65350 0.04500
N 	N 	0.29990 0.83490 0.73800 -0.17700
N 	N 	0.37330 0.90950 0.70560 -0.10500
C 	C 	0.35960 0.84320 0.71610 0.01000
H 	H 	0.39370 0.81010 0.70960 0.03400
C 	C 	0.26750 0.89410 0.74370 0.11500
C 	C 	0.43660 0.93350 0.68810 0.02100
O 	O 	0.25380 0.73490 0.65870 -0.14300
H 	H 	0.22080 0.90130 0.75860 -0.03100
W 	W 	0.08778 0.00000 0.23895 1.15300
O 	O 	0.15000 0.00000 0.29990 -0.69100
W 	W 	0.58778 0.50000 0.73895 1.11900
O 	O 	0.65000 0.50000 0.79990 -0.70000
W 	W 	0.91222 0.00000 0.23895 1.08900
O 	O 	0.85000 0.00000 0.29990 -0.68400
W 	W 	0.41222 0.50000 0.73895 1.11900
O 	O 	0.35000 0.50000 0.79990 -0.69900
W 	W 	0.91222 0.00000 0.76105 1.08100
O 	O 	0.85000 0.00000 0.70010 -0.68300
W 	W 	0.41222 0.50000 0.26105 1.11800
O 	O 	0.35000 0.50000 0.20010 -0.69400
W 	W 	0.08778 0.00000 0.76105 1.14500
O 	O 	0.15000 0.00000 0.70010 -0.69000
W 	W 	0.58778 0.50000 0.26105 1.11800
O 	O 	0.65000 0.50000 0.20010 -0.69500
W 	W 	0.17931 0.14881 0.50000 -1.26700
O 	O 	0.08140 0.29550 0.50000 -0.43100
O 	O 	0.18680 0.11400 0.50000 0.62900
O 	O 	0.06620 0.12200 0.50000 -0.04600
W 	W 	0.67931 0.64881 -0.00000 -1.46900
O 	O 	0.58140 0.79550 -0.00000 -0.39800
O 	O 	0.68680 0.61400 -0.00000 0.79500
O 	O 	0.56620 0.62200 -0.00000 -0.01300
W 	W 	0.82069 0.85119 0.50000 -1.43800
O 	O 	0.91860 0.70450 0.50000 -0.44100
O 	O 	0.81320 0.88600 0.50000 0.74000
O 	O 	0.93380 0.87800 0.50000 -0.06300
W 	W 	0.32069 0.35119 -0.00000 -1.47200
O 	O 	0.41860 0.20450 -0.00000 -0.39500
O 	O 	0.31320 0.38600 -0.00000 0.80000
O 	O 	0.43380 0.37800 -0.00000 -0.01300
W 	W 	0.82069 0.14881 0.50000 -1.27000
O 	O 	0.91860 0.29550 0.50000 -0.44500
O 	O 	0.81320 0.11400 0.50000 0.63200
O 	O 	0.93380 0.12200 0.50000 -0.06900
W 	W 	0.32069 0.64881 -0.00000 -1.46700
O 	O 	0.41860 0.79550 -0.00000 -0.39800
O 	O 	0.31320 0.61400 -0.00000 0.79600
O 	O 	0.43380 0.62200 -0.00000 -0.01300
W 	W 	0.17931 0.85119 0.50000 -1.44700
O 	O 	0.08140 0.70450 0.50000 -0.42800
O 	O 	0.18680 0.88600 0.50000 0.74500
O 	O 	0.06620 0.87800 0.50000 -0.04100
W 	W 	0.67931 0.35119 -0.00000 -1.47400
O 	O 	0.58140 0.20450 -0.00000 -0.39600
O 	O 	0.68680 0.38600 -0.00000 0.79800
O 	O 	0.56620 0.37800 -0.00000 -0.01200
P 	P 	0.00000 0.16270 0.50000 0.40300
P 	P 	0.50000 0.66270 -0.00000 0.39900
P 	P 	0.00000 0.83730 0.50000 0.39900
P 	P 	0.50000 0.33730 -0.00000 0.39900
P 	P 	0.00000 0.13600 0.41370 0.52500
P 	P 	0.00000 0.04860 0.35850 0.48000
O 	O 	-0.00000 0.32100 0.40850 -0.42900
O 	O 	0.00000 0.19750 0.25400 -0.45000
O 	O 	0.00000 0.12740 0.34260 -0.46600
O 	O 	0.00000 0.20750 0.43930 -0.39800
C 	C 	0.00000 0.41500 0.29700 -0.16500
H 	H 	0.00000 0.37320 0.27980 0.09800
C 	C 	-0.00000 0.46100 0.34300 0.18400
H 	H 	-0.00000 0.41760 0.35490 -0.00900
C 	C 	0.00000 0.40600 0.20900 -0.02200
H 	H 	0.00000 0.37110 0.23540 0.04200
C 	C 	0.00000 0.48000 0.13700 0.14000
H 	H 	0.00000 0.44840 0.10740 -0.01400
P 	P 	0.50000 0.63600 0.91370 0.48900
P 	P 	0.50000 0.54860 0.85850 0.44800
O 	O 	0.50000 0.82100 0.90850 -0.46500
O 	O 	0.50000 0.69750 0.75400 -0.48600
O 	O 	0.50000 0.62740 0.84260 -0.48100
O 	O 	0.50000 0.70750 0.93930 -0.43400
C 	C 	0.50000 0.91500 0.79700 -0.15200
H 	H 	0.50000 0.87320 0.77980 0.07600
C 	C 	0.50000 0.96100 0.84300 -0.03000
H 	H 	0.50000 0.91760 0.85490 0.05000
C 	C 	0.50000 0.90600 0.70900 -0.07300
H 	H 	0.50000 0.87110 0.73540 0.04900
C 	C 	0.50000 0.98000 0.63700 0.24900
H 	H 	0.50000 0.94840 0.60740 -0.07000
P 	P 	-0.00000 0.86400 0.41370 0.52500
P 	P 	0.00000 0.95140 0.35850 0.46300
O 	O 	0.00000 0.67900 0.40850 -0.42800
O 	O 	0.00000 0.80250 0.25400 -0.45400
O 	O 	0.00000 0.87260 0.34260 -0.46800
O 	O 	0.00000 0.79250 0.43930 -0.39600
C 	C 	0.00000 0.58500 0.29700 -0.16600
H 	H 	-0.00000 0.62680 0.27980 0.09800
C 	C 	0.00000 0.53900 0.34300 0.18400
H 	H 	0.00000 0.58240 0.35490 -0.00800
C 	C 	-0.00000 0.59400 0.20900 -0.02300
H 	H 	-0.00000 0.62890 0.23540 0.04100
C 	C 	0.00000 0.52000 0.13700 0.14000
H 	H 	-0.00000 0.55160 0.10740 -0.01400
P 	P 	0.50000 0.36400 0.91370 0.48900
P 	P 	0.50000 0.45140 0.85850 0.44800
O 	O 	0.50000 0.17900 0.90850 -0.46200
O 	O 	0.50000 0.30250 0.75400 -0.48700
O 	O 	0.50000 0.37260 0.84260 -0.48100
O 	O 	0.50000 0.29250 0.93930 -0.43400
C 	C 	0.50000 0.08500 0.79700 -0.15200
H 	H 	0.50000 0.12680 0.77980 0.07500
C 	C 	0.50000 0.03900 0.84300 0.03500
H 	H 	0.50000 0.08240 0.85490 0.03200
C 	C 	0.50000 0.09400 0.70900 -0.10600
H 	H 	0.50000 0.12890 0.73540 0.06100
C 	C 	0.50000 0.02000 0.63700 -0.26700
H 	H 	0.50000 0.05160 0.60740 0.10500
P 	P 	0.00000 0.13600 0.58630 0.52500
P 	P 	0.00000 0.04860 0.64150 0.48000
O 	O 	-0.00000 0.32100 0.59150 -0.42900
O 	O 	0.00000 0.19750 0.74600 -0.45400
O 	O 	0.00000 0.12740 0.65740 -0.46600
O 	O 	0.00000 0.20750 0.56070 -0.39800
C 	C 	-0.00000 0.41500 0.70300 -0.16500
H 	H 	0.00000 0.37320 0.72020 0.09800
C 	C 	-0.00000 0.46100 0.65700 0.18400
H 	H 	-0.00000 0.41760 0.64510 -0.00900
C 	C 	0.00000 0.40600 0.79100 -0.02400
H 	H 	0.00000 0.37110 0.76460 0.04100
C 	C 	-0.00000 0.48000 0.86300 0.13900
H 	H 	0.00000 0.44840 0.89260 -0.02900
P 	P 	0.50000 0.63600 0.08630 0.49100
P 	P 	0.50000 0.54860 0.14150 0.44600
O 	O 	0.50000 0.82100 0.09150 -0.45900
O 	O 	0.50000 0.69750 0.24600 -0.48700
O 	O 	0.50000 0.62740 0.15740 -0.48300
O 	O 	0.50000 0.70750 0.06070 -0.41300
C 	C 	0.50000 0.91500 0.20300 -0.15300
H 	H 	0.50000 0.87320 0.22020 0.07700
C 	C 	0.50000 0.96100 0.15700 -0.01900
H 	H 	0.50000 0.91760 0.14510 0.05200
C 	C 	0.50000 0.90600 0.29100 -0.07300
H 	H 	0.50000 0.87110 0.26460 0.04900
C 	C 	0.50000 0.98000 0.36300 0.24900
H 	H 	0.50000 0.94840 0.39260 -0.07000
P 	P 	-0.00000 0.86400 0.58630 0.52500
P 	P 	-0.00000 0.95140 0.64150 0.46300
O 	O 	0.00000 0.67900 0.59150 -0.42800
O 	O 	0.00000 0.80250 0.74600 -0.45800
O 	O 	0.00000 0.87260 0.65740 -0.46700
O 	O 	0.00000 0.79250 0.56070 -0.39600
C 	C 	-0.00000 0.58500 0.70300 -0.16500
H 	H 	-0.00000 0.62680 0.72020 0.09800
C 	C 	0.00000 0.53900 0.65700 0.18400
H 	H 	-0.00000 0.58240 0.64510 -0.00800
C 	C 	0.00000 0.59400 0.79100 -0.02500
H 	H 	0.00000 0.62890 0.76460 0.04100
C 	C 	0.00000 0.52000 0.86300 0.13800
H 	H 	-0.00000 0.55160 0.89260 -0.03000
P 	P 	0.50000 0.36400 0.08630 0.49100
P 	P 	0.50000 0.45140 0.14150 0.44700
O 	O 	0.50000 0.17900 0.09150 -0.45600
O 	O 	0.50000 0.30250 0.24600 -0.48800
O 	O 	0.50000 0.37260 0.15740 -0.48300
O 	O 	0.50000 0.29250 0.06070 -0.41400
C 	C 	0.50000 0.08500 0.20300 -0.15200
H 	H 	0.50000 0.12680 0.22020 0.07500
C 	C 	0.50000 0.03900 0.15700 0.04600
H 	H 	0.50000 0.08240 0.14510 0.03400
C 	C 	0.50000 0.09400 0.29100 -0.10600
H 	H 	0.50000 0.12890 0.26460 0.06000
C 	C 	0.50000 0.02000 0.36300 -0.26700
H 	H 	0.50000 0.05160 0.39260 0.10500
O 	O 	0.00000 0.00000 0.19670 -0.41400
O 	O 	0.00000 0.00000 0.30470 -0.42600
O 	O 	0.50000 0.50000 0.69670 -0.45600
O 	O 	0.50000 0.50000 0.80470 -0.45200
O 	O 	-0.00000 0.00000 0.80330 -0.42300
O 	O 	0.00000 0.00000 0.69530 -0.42400
O 	O 	0.50000 0.50000 0.30330 -0.45600
O 	O 	0.50000 0.50000 0.19530 -0.45200
Co	Co	0.25000 0.25000 0.25000 1.18300
Co	Co	0.75000 0.75000 0.25000 1.18300
Co	Co	0.75000 0.25000 0.75000 1.18300
Co	Co	0.25000 0.75000 0.75000 1.18300
Co	Co	0.75000 0.75000 0.75000 1.18300
Co	Co	0.25000 0.25000 0.75000 1.18300
Co	Co	0.25000 0.75000 0.25000 1.18300
Co	Co	0.75000 0.25000 0.25000 1.18300
C 	C 	0.06690 0.50000 0.33510 -0.44500
C 	C 	0.06480 0.50000 0.15750 -0.35100
C 	C 	0.56690 0.00000 0.83510 -0.18200
C 	C 	0.56480 0.00000 0.65750 -0.09400
C 	C 	0.93310 0.50000 0.33510 -0.47900
C 	C 	0.93520 0.50000 0.15750 -0.40800
C 	C 	0.43310 0.00000 0.83510 -0.18100
C 	C 	0.43520 0.00000 0.65750 -0.09300
C 	C 	0.93310 0.50000 0.66490 -0.47900
C 	C 	0.93520 0.50000 0.84250 -0.40500
C 	C 	0.43310 0.00000 0.16490 -0.18800
C 	C 	0.43520 0.00000 0.34250 -0.09300
C 	C 	0.06690 0.50000 0.66490 -0.44500
C 	C 	0.06480 0.50000 0.84250 -0.34800
C 	C 	0.56690 0.00000 0.16490 -0.18900
C 	C 	0.56480 0.00000 0.34250 -0.09500
O 	O 	0.04600 0.00000 0.50000 -0.71900
K 	K 	0.08640 0.00000 0.50000 1.03500
O 	O 	0.54600 0.50000 -0.00000 -0.74200
K 	K 	0.58640 0.50000 -0.00000 1.04100
O 	O 	0.95400 0.00000 0.50000 -0.77600
K 	K 	0.91360 0.00000 0.50000 1.04700
O 	O 	0.45400 0.50000 -0.00000 -0.74200
K 	K 	0.41360 0.50000 -0.00000 1.04100
