data_crystal

_cell_length_a 9.59830
_cell_length_b 13.87890
_cell_length_c 15.34430
_cell_angle_alpha 90.00000
_cell_angle_beta  93.45100
_cell_angle_gamma 90.00000

_symmetry_space_group_name_	'P 1'
_symmetry_space_group_name_H-M	'P 1'

loop_
_symmetry_equiv_pos_as_xyz
  x,y,z

loop_
_atom_site_label
_atom_site_type_symbol
_atom_site_fract_x
_atom_site_fract_y
_atom_site_fract_z
_atom_site_charge
Dy	Dy	0.04247 0.88872 0.91421 1.58700
Dy	Dy	0.45753 0.38872 0.58579 1.61800
Dy	Dy	0.95753 0.11128 0.08579 1.58700
Dy	Dy	0.54247 0.61128 0.41421 1.61800
H 	H 	0.39550 0.09110 0.74310 0.03400
H 	H 	0.31030 0.16220 0.79900 0.03700
H 	H 	0.51540 0.23520 0.85530 0.08900
H 	H 	0.73580 0.18820 0.81220 0.01600
H 	H 	0.66830 0.10710 0.75200 0.04000
H 	H 	0.66270 0.11040 0.93630 0.08800
H 	H 	0.55210 0.96340 0.82580 0.02900
H 	H 	0.55220 0.96180 0.92810 0.01000
H 	H 	0.40940 0.09660 0.92550 0.07700
H 	H 	0.10450 0.59110 0.75690 0.03200
H 	H 	0.18970 0.66220 0.70100 0.03600
H 	H 	0.98460 0.73520 0.64470 0.09000
H 	H 	0.76420 0.68820 0.68780 0.01700
H 	H 	0.83170 0.60710 0.74800 0.04100
H 	H 	0.83730 0.61040 0.56370 0.08400
H 	H 	0.94790 0.46340 0.67420 0.03700
H 	H 	0.94780 0.46180 0.57190 0.01700
H 	H 	0.09060 0.59660 0.57450 0.07600
H 	H 	0.60450 0.90890 0.25690 0.03400
H 	H 	0.68970 0.83780 0.20100 0.03700
H 	H 	0.48460 0.76480 0.14470 0.08900
H 	H 	0.26420 0.81180 0.18780 0.01600
H 	H 	0.33170 0.89290 0.24800 0.04000
H 	H 	0.33730 0.88960 0.06370 0.08800
H 	H 	0.44790 0.03660 0.17420 0.02900
H 	H 	0.44780 0.03820 0.07190 0.01000
H 	H 	0.59060 0.90340 0.07450 0.07700
H 	H 	0.89550 0.40890 0.24310 0.03200
H 	H 	0.81030 0.33780 0.29900 0.03600
H 	H 	0.01540 0.26480 0.35530 0.09000
H 	H 	0.23580 0.31180 0.31220 0.01700
H 	H 	0.16830 0.39290 0.25200 0.04100
H 	H 	0.16270 0.38960 0.43630 0.08400
H 	H 	0.05210 0.53660 0.32580 0.03700
H 	H 	0.05220 0.53820 0.42810 0.01700
H 	H 	0.90940 0.40340 0.42550 0.07600
C 	C 	0.39700 0.12650 0.79760 0.00300
C 	C 	0.51960 0.19710 0.80180 -0.18000
C 	C 	0.65940 0.14250 0.80600 0.02600
C 	C 	0.66810 0.07270 0.88260 -0.22400
C 	C 	0.54670 0.00350 0.87720 0.04500
C 	C 	0.40790 0.05680 0.87270 -0.16600
C 	C 	0.28090 0.99110 0.87770 0.32100
C 	C 	0.50370 0.26540 0.72440 0.35100
C 	C 	0.80590 0.01870 0.88820 0.41300
C 	C 	0.10300 0.62650 0.70240 0.00200
C 	C 	0.98040 0.69710 0.69820 -0.17800
C 	C 	0.84060 0.64250 0.69400 0.02300
C 	C 	0.83190 0.57270 0.61740 -0.21900
C 	C 	0.95330 0.50350 0.62280 0.03000
C 	C 	0.09210 0.55680 0.62730 -0.17200
C 	C 	0.21910 0.49110 0.62230 0.33800
C 	C 	0.99630 0.76540 0.77560 0.36000
C 	C 	0.69410 0.51870 0.61180 0.41200
C 	C 	0.60300 0.87350 0.20240 0.00300
C 	C 	0.48040 0.80290 0.19820 -0.18000
C 	C 	0.34060 0.85750 0.19400 0.02600
C 	C 	0.33190 0.92730 0.11740 -0.22400
C 	C 	0.45330 0.99650 0.12280 0.04500
C 	C 	0.59210 0.94320 0.12730 -0.16600
C 	C 	0.71910 0.00890 0.12230 0.32100
C 	C 	0.49630 0.73460 0.27560 0.35100
C 	C 	0.19410 0.98130 0.11180 0.41300
C 	C 	0.89700 0.37350 0.29760 0.00200
C 	C 	0.01960 0.30290 0.30180 -0.17800
C 	C 	0.15940 0.35750 0.30600 0.02300
C 	C 	0.16810 0.42730 0.38260 -0.21900
C 	C 	0.04670 0.49650 0.37720 0.03000
C 	C 	0.90790 0.44320 0.37270 -0.17200
C 	C 	0.78090 0.50890 0.37770 0.33800
C 	C 	0.00370 0.23460 0.22440 0.36000
C 	C 	0.30590 0.48130 0.38820 0.41200
O 	O 	0.29500 0.90550 0.89750 -0.40800
O 	O 	0.16090 0.02980 0.86470 -0.39100
O 	O 	0.89380 0.03750 0.95070 -0.55500
O 	O 	0.83260 0.95560 0.83480 -0.41200
O 	O 	0.42290 0.33620 0.73240 -0.39900
O 	O 	0.56610 0.25210 0.65780 -0.43900
O 	O 	0.20500 0.40550 0.60250 -0.41200
O 	O 	0.33910 0.52980 0.63530 -0.40500
O 	O 	0.60620 0.53750 0.54930 -0.56400
O 	O 	0.66740 0.45560 0.66520 -0.41500
O 	O 	0.07710 0.83620 0.76760 -0.40500
O 	O 	0.93390 0.75210 0.84220 -0.43500
O 	O 	0.70500 0.09450 0.10250 -0.40800
O 	O 	0.83910 0.97020 0.13530 -0.39100
O 	O 	0.10620 0.96250 0.04930 -0.55500
O 	O 	0.16740 0.04440 0.16520 -0.41200
O 	O 	0.57710 0.66380 0.26760 -0.39900
O 	O 	0.43390 0.74790 0.34220 -0.43900
O 	O 	0.79500 0.59450 0.39750 -0.41200
O 	O 	0.66090 0.47020 0.36470 -0.40500
O 	O 	0.39380 0.46250 0.45070 -0.56400
O 	O 	0.33260 0.54440 0.33480 -0.41500
O 	O 	0.92290 0.16380 0.23240 -0.40500
O 	O 	0.06610 0.24790 0.15780 -0.43500
