data_crystal

_cell_length_a 16.70330
_cell_length_b 20.01950
_cell_length_c 17.46020
_cell_angle_alpha 90.00000
_cell_angle_beta  100.42300
_cell_angle_gamma 90.00000

_symmetry_space_group_name_	'P 1'
_symmetry_space_group_name_H-M	'P 1'

loop_
_symmetry_equiv_pos_as_xyz
  x,y,z

loop_
_atom_site_label
_atom_site_type_symbol
_atom_site_fract_x
_atom_site_fract_y
_atom_site_fract_z
_atom_site_charge
Co	Co	0.96851 0.33096 0.74136 1.20500
Co	Co	0.86543 0.36639 0.54754 1.14600
Co	Co	0.09065 0.35220 0.93744 1.13900
S 	S 	0.45430 0.22236 0.73844 0.26100
S 	S 	0.60746 0.48977 0.95545 0.26800
S 	S 	0.45469 0.43097 0.65249 0.26000
O 	O 	0.48590 0.23910 0.15890 -0.41900
O 	O 	0.09090 0.35580 0.74670 -0.43100
O 	O 	0.94890 0.39740 0.82830 -0.43900
O 	O 	0.50260 0.75750 0.67280 -0.44700
O 	O 	0.56040 0.90800 0.83970 -0.51100
O 	O 	0.84410 0.30660 0.73060 -0.40500
O 	O 	0.59090 0.95750 0.95050 -0.45400
O 	O 	0.44850 0.20070 0.03580 -0.47200
O 	O 	0.78570 0.32720 0.60540 -0.46800
O 	O 	0.40980 0.75520 0.56460 -0.48200
O 	O 	0.99040 0.39310 0.95770 -0.46400
O 	O 	0.15550 0.38910 0.86420 -0.47700
O 	O 	0.40110 0.21520 0.66390 -0.20700
O 	O 	0.43060 0.26480 0.79750 -0.21400
O 	O 	0.55740 0.50440 0.88090 -0.21700
O 	O 	0.61620 0.53830 0.01740 -0.21800
O 	O 	0.52460 0.41490 0.71080 -0.20500
O 	O 	0.44430 0.40150 0.57610 -0.20700
C 	C 	0.78470 0.30870 0.67600 0.37400
C 	C 	0.70300 0.28690 0.69220 -0.10000
C 	C 	0.64000 0.27540 0.62960 0.01500
H 	H 	0.64860 0.28140 0.57890 0.03500
C 	C 	0.56400 0.25480 0.64310 -0.07200
H 	H 	0.52230 0.24580 0.60140 0.07200
C 	C 	0.55080 0.24790 0.71960 0.01200
C 	C 	0.61310 0.26000 0.78310 -0.07300
H 	H 	0.60390 0.25600 0.83390 0.06700
C 	C 	0.68840 0.27790 0.76840 0.02400
H 	H 	0.73100 0.28420 0.81020 0.04100
C 	C 	0.47420 0.14270 0.78020 0.01200
C 	C 	0.47650 0.08860 0.73090 -0.09300
H 	H 	0.46250 0.09340 0.67710 0.07300
C 	C 	0.50010 0.02790 0.76390 0.04100
H 	H 	0.50060 0.99050 0.73240 0.02900
C 	C 	0.52310 0.02220 0.84410 -0.13200
C 	C 	0.52100 0.07570 0.89300 0.04000
H 	H 	0.53660 0.07090 0.94660 0.03300
C 	C 	0.49560 0.13670 0.86100 -0.10100
H 	H 	0.49270 0.17350 0.89290 0.07400
C 	C 	0.55730 0.95850 0.87880 0.39200
C 	C 	0.93750 0.40440 0.89750 0.36900
C 	C 	0.85640 0.42930 0.91190 -0.10700
C 	C 	0.78990 0.42510 0.85100 0.02700
H 	H 	0.79650 0.40990 0.80210 0.03900
C 	C 	0.71380 0.44380 0.86460 -0.08800
H 	H 	0.66840 0.43980 0.82540 0.08500
C 	C 	0.70580 0.46870 0.93740 0.01000
C 	C 	0.77130 0.47540 0.99770 -0.09500
H 	H 	0.76500 0.49330 0.04540 0.06900
C 	C 	0.84720 0.45460 0.98450 0.02600
H 	H 	0.89220 0.45750 0.02440 0.02500
C 	C 	0.57270 0.41610 0.99230 0.01800
C 	C 	0.53210 0.36980 0.94150 -0.07800
H 	H 	0.52430 0.37670 0.88800 0.08500
C 	C 	0.50310 0.31300 0.97150 0.03500
H 	H 	0.47540 0.28120 0.93800 0.04200
C 	C 	0.51510 0.30270 0.05240 -0.10900
C 	C 	0.55610 0.34950 0.10210 0.03900
H 	H 	0.56420 0.34260 0.15560 0.03600
C 	C 	0.58520 0.40670 0.07280 -0.07400
H 	H 	0.61280 0.43860 0.10630 0.07500
C 	C 	0.48150 0.24190 0.08580 0.38600
C 	C 	0.15050 0.37770 0.79140 0.39000
C 	C 	0.22670 0.39240 0.75660 -0.10500
C 	C 	0.29620 0.41550 0.80370 0.02800
H 	H 	0.29660 0.42300 0.85640 0.04600
C 	C 	0.36600 0.42790 0.77260 -0.07700
H 	H 	0.41240 0.44490 0.80410 0.08200
C 	C 	0.36620 0.41460 0.69380 0.01800
C 	C 	0.29790 0.38910 0.64680 -0.08000
H 	H 	0.29820 0.37970 0.59470 0.07800
C 	C 	0.22850 0.37780 0.67850 0.03000
H 	H 	0.18240 0.36010 0.64720 0.03900
C 	C 	0.45220 0.51850 0.64110 0.03100
C 	C 	0.48870 0.55650 0.70410 -0.11600
H 	H 	0.51260 0.53630 0.75050 0.10100
C 	C 	0.48870 0.62400 0.69650 0.06200
H 	H 	0.51320 0.65040 0.73800 0.03200
C 	C 	0.45230 0.65360 0.62680 -0.14000
C 	C 	0.41330 0.61480 0.56550 0.05900
H 	H 	0.38640 0.63490 0.52000 0.02100
C 	C 	0.41470 0.54690 0.57250 -0.10900
H 	H 	0.39040 0.52020 0.53120 0.08100
C 	C 	0.45490 0.72750 0.62180 0.40800
Co	Co	0.53149 0.83096 0.75864 1.20600
Co	Co	0.63457 0.86639 0.95246 1.14700
Co	Co	0.40935 0.85220 0.56256 1.14100
S 	S 	0.04570 0.72236 0.76156 0.26100
S 	S 	0.89254 0.98977 0.54455 0.26400
S 	S 	0.04531 0.93097 0.84751 0.26000
O 	O 	0.01410 0.73910 0.34110 -0.41900
O 	O 	0.40910 0.85580 0.75330 -0.43100
O 	O 	0.55110 0.89740 0.67170 -0.43900
O 	O 	0.99740 0.25750 0.82720 -0.44400
O 	O 	0.93960 0.40800 0.66030 -0.51100
O 	O 	0.65590 0.80660 0.76940 -0.40500
O 	O 	0.90910 0.45750 0.54950 -0.45400
O 	O 	0.05150 0.70070 0.46420 -0.47200
O 	O 	0.71430 0.82720 0.89460 -0.46800
O 	O 	0.09020 0.25520 0.93540 -0.48200
O 	O 	0.50960 0.89310 0.54230 -0.46500
O 	O 	0.34450 0.88910 0.63580 -0.47600
O 	O 	0.09890 0.71520 0.83610 -0.20700
O 	O 	0.06940 0.76480 0.70250 -0.21400
O 	O 	0.94260 0.00440 0.61910 -0.21600
O 	O 	0.88380 0.03830 0.48260 -0.21600
O 	O 	0.97540 0.91490 0.78920 -0.20500
O 	O 	0.05570 0.90150 0.92390 -0.20700
C 	C 	0.71530 0.80870 0.82400 0.37400
C 	C 	0.79700 0.78690 0.80780 -0.10000
C 	C 	0.86000 0.77540 0.87040 0.01600
H 	H 	0.85140 0.78140 0.92110 0.03500
C 	C 	0.93600 0.75480 0.85690 -0.07300
H 	H 	0.97770 0.74580 0.89860 0.07300
C 	C 	0.94920 0.74790 0.78040 0.01300
C 	C 	0.88690 0.76000 0.71690 -0.07400
H 	H 	0.89610 0.75600 0.66610 0.06700
C 	C 	0.81160 0.77790 0.73160 0.02400
H 	H 	0.76900 0.78420 0.68980 0.04100
C 	C 	0.02580 0.64270 0.71980 0.01400
C 	C 	0.02350 0.58860 0.76910 -0.09700
H 	H 	0.03750 0.59340 0.82290 0.07400
C 	C 	0.99990 0.52790 0.73610 0.04500
H 	H 	0.99940 0.49050 0.76760 0.02800
C 	C 	0.97690 0.52220 0.65590 -0.13500
C 	C 	0.97900 0.57570 0.60700 0.04300
H 	H 	0.96340 0.57090 0.55340 0.03200
C 	C 	0.00440 0.63670 0.63900 -0.10400
H 	H 	0.00730 0.67350 0.60710 0.07500
C 	C 	0.94270 0.45850 0.62120 0.39300
C 	C 	0.56250 0.90440 0.60250 0.36800
C 	C 	0.64360 0.92930 0.58810 -0.10600
C 	C 	0.71010 0.92510 0.64900 0.02600
H 	H 	0.70350 0.90990 0.69790 0.03900
C 	C 	0.78620 0.94380 0.63540 -0.08800
H 	H 	0.83160 0.93980 0.67460 0.08500
C 	C 	0.79420 0.96870 0.56260 0.01100
C 	C 	0.72870 0.97540 0.50230 -0.09700
H 	H 	0.73500 0.99330 0.45460 0.07100
C 	C 	0.65280 0.95460 0.51550 0.02300
H 	H 	0.60780 0.95750 0.47560 0.02800
C 	C 	0.92730 0.91610 0.50770 0.01700
C 	C 	0.96790 0.86980 0.55850 -0.07800
H 	H 	0.97570 0.87670 0.61200 0.08400
C 	C 	0.99690 0.81300 0.52850 0.03400
H 	H 	0.02460 0.78120 0.56200 0.04300
C 	C 	0.98490 0.80270 0.44760 -0.11000
C 	C 	0.94390 0.84950 0.39790 0.03900
H 	H 	0.93580 0.84260 0.34440 0.03500
C 	C 	0.91480 0.90670 0.42720 -0.07400
H 	H 	0.88720 0.93860 0.39370 0.07400
C 	C 	0.01850 0.74190 0.41420 0.38700
C 	C 	0.34950 0.87770 0.70860 0.39000
C 	C 	0.27330 0.89240 0.74340 -0.10400
C 	C 	0.20380 0.91550 0.69630 0.02800
H 	H 	0.20340 0.92300 0.64360 0.04600
C 	C 	0.13400 0.92790 0.72740 -0.07600
H 	H 	0.08760 0.94490 0.69590 0.08200
C 	C 	0.13380 0.91460 0.80620 0.01800
C 	C 	0.20210 0.88910 0.85320 -0.07900
H 	H 	0.20180 0.87970 0.90530 0.07800
C 	C 	0.27150 0.87780 0.82150 0.03000
H 	H 	0.31760 0.86010 0.85280 0.03900
C 	C 	0.04780 0.01850 0.85890 0.03100
C 	C 	0.01130 0.05650 0.79590 -0.11800
H 	H 	0.98740 0.03630 0.74950 0.10400
C 	C 	0.01130 0.12400 0.80350 0.05700
H 	H 	0.98680 0.15040 0.76200 0.03500
C 	C 	0.04770 0.15360 0.87320 -0.13800
C 	C 	0.08670 0.11480 0.93450 0.05700
H 	H 	0.11360 0.13490 0.98000 0.02100
C 	C 	0.08530 0.04690 0.92750 -0.10900
H 	H 	0.10960 0.02020 0.96880 0.08000
C 	C 	0.04510 0.22750 0.87820 0.40400
Co	Co	0.03149 0.66904 0.25864 1.20600
Co	Co	0.13457 0.63361 0.45246 1.14700
Co	Co	0.90935 0.64780 0.06256 1.14000
S 	S 	0.54570 0.77764 0.26156 0.26200
S 	S 	0.39254 0.51023 0.04455 0.26800
S 	S 	0.54531 0.56903 0.34751 0.26000
O 	O 	0.51410 0.76090 0.84110 -0.41900
O 	O 	0.90910 0.64420 0.25330 -0.43100
O 	O 	0.05110 0.60260 0.17170 -0.43900
O 	O 	0.49740 0.24250 0.32720 -0.44700
O 	O 	0.43960 0.09200 0.16030 -0.51100
O 	O 	0.15590 0.69340 0.26940 -0.40500
O 	O 	0.40910 0.04250 0.04950 -0.45400
O 	O 	0.55150 0.79930 0.96420 -0.47200
O 	O 	0.21430 0.67280 0.39460 -0.46800
O 	O 	0.59020 0.24480 0.43540 -0.48200
O 	O 	0.00960 0.60690 0.04230 -0.46400
O 	O 	0.84450 0.61090 0.13580 -0.47700
O 	O 	0.59890 0.78480 0.33610 -0.20700
O 	O 	0.56940 0.73520 0.20250 -0.21400
O 	O 	0.44260 0.49560 0.11910 -0.21700
O 	O 	0.38380 0.46170 0.98260 -0.21800
O 	O 	0.47540 0.58510 0.28920 -0.20500
O 	O 	0.55570 0.59850 0.42390 -0.20700
C 	C 	0.21530 0.69130 0.32400 0.37400
C 	C 	0.29700 0.71310 0.30780 -0.10000
C 	C 	0.36000 0.72460 0.37040 0.01500
H 	H 	0.35140 0.71860 0.42110 0.03500
C 	C 	0.43600 0.74520 0.35690 -0.07200
H 	H 	0.47770 0.75420 0.39860 0.07200
C 	C 	0.44920 0.75210 0.28040 0.01200
C 	C 	0.38690 0.74000 0.21690 -0.07300
H 	H 	0.39610 0.74400 0.16610 0.06700
C 	C 	0.31160 0.72210 0.23160 0.02400
H 	H 	0.26900 0.71580 0.18980 0.04100
C 	C 	0.52580 0.85730 0.21980 0.01200
C 	C 	0.52350 0.91140 0.26910 -0.09300
H 	H 	0.53750 0.90660 0.32290 0.07300
C 	C 	0.49990 0.97210 0.23610 0.04100
H 	H 	0.49940 0.00950 0.26760 0.02900
C 	C 	0.47690 0.97780 0.15590 -0.13200
C 	C 	0.47900 0.92430 0.10700 0.04000
H 	H 	0.46340 0.92910 0.05340 0.03300
C 	C 	0.50440 0.86330 0.13900 -0.10100
H 	H 	0.50730 0.82650 0.10710 0.07400
C 	C 	0.44270 0.04150 0.12120 0.39200
C 	C 	0.06250 0.59560 0.10250 0.36900
C 	C 	0.14360 0.57070 0.08810 -0.10700
C 	C 	0.21010 0.57490 0.14900 0.02700
H 	H 	0.20350 0.59010 0.19790 0.03900
C 	C 	0.28620 0.55620 0.13540 -0.08800
H 	H 	0.33160 0.56020 0.17460 0.08500
C 	C 	0.29420 0.53130 0.06260 0.01000
C 	C 	0.22870 0.52460 0.00230 -0.09500
H 	H 	0.23500 0.50670 0.95460 0.06900
C 	C 	0.15280 0.54540 0.01550 0.02600
H 	H 	0.10780 0.54250 0.97560 0.02500
C 	C 	0.42730 0.58390 0.00770 0.01800
C 	C 	0.46790 0.63020 0.05850 -0.07800
H 	H 	0.47570 0.62330 0.11200 0.08500
C 	C 	0.49690 0.68700 0.02850 0.03500
H 	H 	0.52460 0.71880 0.06200 0.04200
C 	C 	0.48490 0.69730 0.94760 -0.10900
C 	C 	0.44390 0.65050 0.89790 0.03900
H 	H 	0.43580 0.65740 0.84440 0.03600
C 	C 	0.41480 0.59330 0.92720 -0.07400
H 	H 	0.38720 0.56140 0.89370 0.07500
C 	C 	0.51850 0.75810 0.91420 0.38600
C 	C 	0.84950 0.62230 0.20860 0.39000
C 	C 	0.77330 0.60760 0.24340 -0.10500
C 	C 	0.70380 0.58450 0.19630 0.02800
H 	H 	0.70340 0.57700 0.14360 0.04600
C 	C 	0.63400 0.57210 0.22740 -0.07700
H 	H 	0.58760 0.55510 0.19590 0.08200
C 	C 	0.63380 0.58540 0.30620 0.01800
C 	C 	0.70210 0.61090 0.35320 -0.08000
H 	H 	0.70180 0.62030 0.40530 0.07800
C 	C 	0.77150 0.62220 0.32150 0.03000
H 	H 	0.81760 0.63990 0.35280 0.03900
C 	C 	0.54780 0.48150 0.35890 0.03100
C 	C 	0.51130 0.44350 0.29590 -0.11600
H 	H 	0.48740 0.46370 0.24950 0.10100
C 	C 	0.51130 0.37600 0.30350 0.06200
H 	H 	0.48680 0.34960 0.26200 0.03200
C 	C 	0.54770 0.34640 0.37320 -0.14000
C 	C 	0.58670 0.38520 0.43450 0.05900
H 	H 	0.61360 0.36510 0.48000 0.02100
C 	C 	0.58530 0.45310 0.42750 -0.10900
H 	H 	0.60960 0.47980 0.46880 0.08100
C 	C 	0.54510 0.27250 0.37820 0.40800
Co	Co	0.46851 0.16904 0.24136 1.20600
Co	Co	0.36543 0.13361 0.04754 1.14700
Co	Co	0.59065 0.14780 0.43744 1.14100
S 	S 	0.95430 0.27764 0.23844 0.26100
S 	S 	0.10746 0.01023 0.45545 0.26400
S 	S 	0.95469 0.06903 0.15249 0.26000
O 	O 	0.98590 0.26090 0.65890 -0.41900
O 	O 	0.59090 0.14420 0.24670 -0.43100
O 	O 	0.44890 0.10260 0.32830 -0.43900
O 	O 	0.00260 0.74250 0.17280 -0.44400
O 	O 	0.06040 0.59200 0.33970 -0.51100
O 	O 	0.34410 0.19340 0.23060 -0.40500
O 	O 	0.09090 0.54250 0.45050 -0.45400
O 	O 	0.94850 0.29930 0.53580 -0.47200
O 	O 	0.28570 0.17280 0.10540 -0.46800
O 	O 	0.90980 0.74480 0.06460 -0.48200
O 	O 	0.49040 0.10690 0.45770 -0.46500
O 	O 	0.65550 0.11090 0.36420 -0.47600
O 	O 	0.90110 0.28480 0.16390 -0.20700
O 	O 	0.93060 0.23520 0.29750 -0.21400
O 	O 	0.05740 0.99560 0.38090 -0.21600
O 	O 	0.11620 0.96170 0.51740 -0.21600
O 	O 	0.02460 0.08510 0.21080 -0.20500
O 	O 	0.94430 0.09850 0.07610 -0.20700
C 	C 	0.28470 0.19130 0.17600 0.37400
C 	C 	0.20300 0.21310 0.19220 -0.10000
C 	C 	0.14000 0.22460 0.12960 0.01600
H 	H 	0.14860 0.21860 0.07890 0.03500
C 	C 	0.06400 0.24520 0.14310 -0.07300
H 	H 	0.02230 0.25420 0.10140 0.07300
C 	C 	0.05080 0.25210 0.21960 0.01300
C 	C 	0.11310 0.24000 0.28310 -0.07400
H 	H 	0.10390 0.24400 0.33390 0.06700
C 	C 	0.18840 0.22210 0.26840 0.02400
H 	H 	0.23100 0.21580 0.31020 0.04100
C 	C 	0.97420 0.35730 0.28020 0.01400
C 	C 	0.97650 0.41140 0.23090 -0.09700
H 	H 	0.96250 0.40660 0.17710 0.07400
C 	C 	0.00010 0.47210 0.26390 0.04500
H 	H 	0.00060 0.50950 0.23240 0.02800
C 	C 	0.02310 0.47780 0.34410 -0.13500
C 	C 	0.02100 0.42430 0.39300 0.04300
H 	H 	0.03660 0.42910 0.44660 0.03200
C 	C 	0.99560 0.36330 0.36100 -0.10400
H 	H 	0.99270 0.32650 0.39290 0.07500
C 	C 	0.05730 0.54150 0.37880 0.39300
C 	C 	0.43750 0.09560 0.39750 0.36800
C 	C 	0.35640 0.07070 0.41190 -0.10600
C 	C 	0.28990 0.07490 0.35100 0.02600
H 	H 	0.29650 0.09010 0.30210 0.03900
C 	C 	0.21380 0.05620 0.36460 -0.08800
H 	H 	0.16840 0.06020 0.32540 0.08500
C 	C 	0.20580 0.03130 0.43740 0.01100
C 	C 	0.27130 0.02460 0.49770 -0.09700
H 	H 	0.26500 0.00670 0.54540 0.07100
C 	C 	0.34720 0.04540 0.48450 0.02300
H 	H 	0.39220 0.04250 0.52440 0.02800
C 	C 	0.07270 0.08390 0.49230 0.01700
C 	C 	0.03210 0.13020 0.44150 -0.07800
H 	H 	0.02430 0.12330 0.38800 0.08400
C 	C 	0.00310 0.18700 0.47150 0.03400
H 	H 	0.97540 0.21880 0.43800 0.04300
C 	C 	0.01510 0.19730 0.55240 -0.11000
C 	C 	0.05610 0.15050 0.60210 0.03900
H 	H 	0.06420 0.15740 0.65560 0.03500
C 	C 	0.08520 0.09330 0.57280 -0.07400
H 	H 	0.11280 0.06140 0.60630 0.07400
C 	C 	0.98150 0.25810 0.58580 0.38700
C 	C 	0.65050 0.12230 0.29140 0.39000
C 	C 	0.72670 0.10760 0.25660 -0.10400
C 	C 	0.79620 0.08450 0.30370 0.02800
H 	H 	0.79660 0.07700 0.35640 0.04600
C 	C 	0.86600 0.07210 0.27260 -0.07600
H 	H 	0.91240 0.05510 0.30410 0.08200
C 	C 	0.86620 0.08540 0.19380 0.01800
C 	C 	0.79790 0.11090 0.14680 -0.07900
H 	H 	0.79820 0.12030 0.09470 0.07800
C 	C 	0.72850 0.12220 0.17850 0.03000
H 	H 	0.68240 0.13990 0.14720 0.03900
C 	C 	0.95220 0.98150 0.14110 0.03100
C 	C 	0.98870 0.94350 0.20410 -0.11800
H 	H 	0.01260 0.96370 0.25050 0.10400
C 	C 	0.98870 0.87600 0.19650 0.05700
H 	H 	0.01320 0.84960 0.23800 0.03500
C 	C 	0.95230 0.84640 0.12680 -0.13800
C 	C 	0.91330 0.88520 0.06550 0.05700
H 	H 	0.88640 0.86510 0.02000 0.02100
C 	C 	0.91470 0.95310 0.07250 -0.10900
H 	H 	0.89040 0.97980 0.03120 0.08000
C 	C 	0.95490 0.77250 0.12180 0.40400
