data_crystal

_cell_length_a 16.70330
_cell_length_b 20.01950
_cell_length_c 17.46020
_cell_angle_alpha 90.00000
_cell_angle_beta  100.42300
_cell_angle_gamma 90.00000

_symmetry_space_group_name_	'P 1'
_symmetry_space_group_name_H-M	'P 1'

loop_
_symmetry_equiv_pos_as_xyz
  x,y,z

loop_
_atom_site_label
_atom_site_type_symbol
_atom_site_fract_x
_atom_site_fract_y
_atom_site_fract_z
_atom_site_charge
Co	Co	0.97583 0.33010 0.74861 1.19800
Co	Co	0.87669 0.37450 0.55576 1.11400
Co	Co	0.09087 0.34918 0.94262 1.13200
S 	S 	0.03806 0.72495 0.76686 0.27000
S 	S 	0.04208 0.93309 0.84508 0.22500
S 	S 	0.61128 0.48469 0.95687 0.28000
O 	O 	0.01520 0.25460 0.82830 -0.50600
O 	O 	0.94330 0.41535 0.68100 -0.50100
O 	O 	0.49400 0.23490 0.15580 -0.43300
O 	O 	0.40180 0.86210 0.74760 -0.44600
O 	O 	0.64970 0.80494 0.75870 -0.42200
O 	O 	0.96490 0.38640 0.85910 -0.47000
O 	O 	0.45440 0.19950 0.03550 -0.47500
O 	O 	0.69600 0.81960 0.88370 -0.47800
O 	O 	0.97570 0.44790 0.57030 -0.40600
O 	O 	0.08640 0.24868 0.94320 -0.50900
O 	O 	0.33550 0.88300 0.63140 -0.48000
O 	O 	0.99560 0.39760 0.98360 -0.44700
O 	O 	0.08700 0.72350 0.84110 -0.21300
O 	O 	0.06140 0.76414 0.70590 -0.21700
O 	O 	0.97320 0.91860 0.78900 -0.20200
O 	O 	0.05010 0.90420 0.92040 -0.20600
O 	O 	0.61410 0.53295 0.01640 -0.22300
O 	O 	0.56700 0.49677 0.88230 -0.22800
C 	C 	0.97300 0.45710 0.64170 0.37000
C 	C 	0.99790 0.52130 0.67480 -0.16100
C 	C 	0.00410 0.53290 0.75330 0.07600
H 	H 	0.99750 0.49770 0.78630 0.01400
C 	C 	0.01940 0.59450 0.78260 -0.12700
H 	H 	0.02500 0.60270 0.83570 0.08800
C 	C 	0.02660 0.64440 0.73130 0.03300
C 	C 	0.02190 0.63350 0.65310 -0.13100
H 	H 	0.02770 0.66870 0.61980 0.08500
C 	C 	0.00870 0.57160 0.62600 0.06800
H 	H 	0.00700 0.56290 0.57340 0.01600
C 	C 	0.93970 0.74770 0.78070 0.03000
C 	C 	0.92300 0.75890 0.85490 -0.09900
H 	H 	0.96430 0.75380 0.89800 0.08400
C 	C 	0.84690 0.77730 0.86570 0.05000
H 	H 	0.83650 0.78520 0.91540 0.02300
C 	C 	0.78720 0.78400 0.80260 -0.14100
C 	C 	0.80560 0.77310 0.72910 0.05900
H 	H 	0.76460 0.77830 0.68580 0.02800
C 	C 	0.88150 0.75500 0.71800 -0.10500
H 	H 	0.89230 0.74800 0.66820 0.07700
C 	C 	0.70410 0.80460 0.81570 0.42000
C 	C 	0.05050 0.22300 0.88230 0.54100
C 	C 	0.05020 0.15140 0.87510 -0.31800
C 	C 	0.01790 0.12340 0.80530 0.23500
H 	H 	0.99680 0.15080 0.76350 -0.02900
C 	C 	0.01600 0.05740 0.79570 -0.27000
H 	H 	0.99430 0.03850 0.74780 0.15200
C 	C 	0.04630 0.01880 0.85730 0.14600
C 	C 	0.07760 0.04430 0.92620 -0.26800
H 	H 	0.09750 0.01660 0.96800 0.13400
C 	C 	0.08000 0.11140 0.93450 0.23500
H 	H 	0.10280 0.12990 0.98230 -0.03900
C 	C 	0.12950 0.91500 0.80300 0.05900
C 	C 	0.12840 0.92420 0.72510 -0.12500
H 	H 	0.08100 0.93930 0.69360 0.09800
C 	C 	0.19630 0.91160 0.69240 0.08400
H 	H 	0.19400 0.91720 0.63920 0.02700
C 	C 	0.26600 0.89110 0.73790 -0.16700
C 	C 	0.26430 0.88140 0.81560 0.08600
H 	H 	0.31140 0.86620 0.84760 0.01900
C 	C 	0.19640 0.89310 0.84880 -0.13300
H 	H 	0.19770 0.88580 0.90160 0.09200
C 	C 	0.34050 0.87780 0.70350 0.45000
C 	C 	0.94660 0.40220 0.92250 0.40500
C 	C 	0.86390 0.42690 0.92840 -0.15100
C 	C 	0.84930 0.45760 0.99620 0.06400
H 	H 	0.89250 0.46510 0.03690 0.01400
C 	C 	0.77270 0.47700 0.00390 -0.12900
H 	H 	0.76360 0.49800 0.04900 0.08400
C 	C 	0.71120 0.46490 0.94490 0.03000
C 	C 	0.72540 0.43510 0.87700 -0.11600
H 	H 	0.68220 0.42760 0.83620 0.09200
C 	C 	0.80260 0.41660 0.86950 0.06800
H 	H 	0.81200 0.39700 0.82360 0.02300
C 	C 	0.57520 0.41270 0.99340 0.04200
C 	C 	0.58380 0.40300 0.07210 -0.11400
H 	H 	0.60930 0.43550 0.10610 0.08800
C 	C 	0.55580 0.34700 0.10090 0.09100
H 	H 	0.56190 0.34090 0.15440 0.01800
C 	C 	0.51920 0.30030 0.05180 -0.16400
C 	C 	0.51080 0.31040 0.97240 0.08600
H 	H 	0.48560 0.27780 0.93850 0.02600
C 	C 	0.53830 0.36680 0.94300 -0.12000
H 	H 	0.53190 0.37350 0.88950 0.09900
C 	C 	0.48720 0.23940 0.08420 0.44400
Co	Co	0.52417 0.83010 0.75139 1.19700
Co	Co	0.62331 0.87450 0.94424 1.11400
Co	Co	0.40913 0.84918 0.55738 1.13200
S 	S 	0.46194 0.22495 0.73314 0.27000
S 	S 	0.45792 0.43309 0.65492 0.22700
S 	S 	0.88872 0.98469 0.54313 0.28100
O 	O 	0.48480 0.75460 0.67170 -0.50600
O 	O 	0.55670 0.91535 0.81900 -0.50100
O 	O 	0.00600 0.73490 0.34420 -0.43300
O 	O 	0.09820 0.36210 0.75240 -0.44600
O 	O 	0.85030 0.30494 0.74130 -0.42200
O 	O 	0.53510 0.88640 0.64090 -0.47000
O 	O 	0.04560 0.69950 0.46450 -0.47500
O 	O 	0.80400 0.31960 0.61630 -0.47800
O 	O 	0.52430 0.94790 0.92970 -0.40600
O 	O 	0.41360 0.74868 0.55680 -0.50900
O 	O 	0.16450 0.38300 0.86860 -0.48000
O 	O 	0.50440 0.89760 0.51640 -0.44700
O 	O 	0.41300 0.22350 0.65890 -0.21300
O 	O 	0.43860 0.26414 0.79410 -0.21700
O 	O 	0.52680 0.41860 0.71100 -0.20300
O 	O 	0.44990 0.40420 0.57960 -0.20600
O 	O 	0.88590 0.03295 0.48360 -0.22400
O 	O 	0.93300 0.99677 0.61770 -0.22800
C 	C 	0.52700 0.95710 0.85830 0.37100
C 	C 	0.50210 0.02130 0.82520 -0.16300
C 	C 	0.49590 0.03290 0.74670 0.07900
H 	H 	0.50250 0.99770 0.71370 0.01300
C 	C 	0.48060 0.09450 0.71740 -0.12900
H 	H 	0.47500 0.10270 0.66430 0.08900
C 	C 	0.47340 0.14440 0.76870 0.03400
C 	C 	0.47810 0.13350 0.84690 -0.13200
H 	H 	0.47230 0.16870 0.88020 0.08500
C 	C 	0.49130 0.07160 0.87400 0.07100
H 	H 	0.49300 0.06290 0.92660 0.01500
C 	C 	0.56030 0.24770 0.71930 0.02900
C 	C 	0.57700 0.25890 0.64510 -0.09900
H 	H 	0.53570 0.25380 0.60200 0.08400
C 	C 	0.65310 0.27730 0.63430 0.05000
H 	H 	0.66350 0.28520 0.58460 0.02200
C 	C 	0.71280 0.28400 0.69740 -0.14100
C 	C 	0.69440 0.27310 0.77090 0.05800
H 	H 	0.73540 0.27830 0.81420 0.02800
C 	C 	0.61850 0.25500 0.78200 -0.10500
H 	H 	0.60770 0.24800 0.83180 0.07600
C 	C 	0.79590 0.30460 0.68430 0.42000
C 	C 	0.44950 0.72300 0.61770 0.54100
C 	C 	0.44980 0.65140 0.62490 -0.31700
C 	C 	0.48210 0.62340 0.69470 0.23300
H 	H 	0.50320 0.65080 0.73650 -0.02800
C 	C 	0.48400 0.55740 0.70430 -0.26900
H 	H 	0.50570 0.53850 0.75220 0.15200
C 	C 	0.45370 0.51880 0.64270 0.14400
C 	C 	0.42240 0.54430 0.57380 -0.26600
H 	H 	0.40250 0.51660 0.53200 0.13300
C 	C 	0.42000 0.61140 0.56550 0.23400
H 	H 	0.39720 0.62990 0.51770 -0.03900
C 	C 	0.37050 0.41500 0.69700 0.05900
C 	C 	0.37160 0.42420 0.77490 -0.12500
H 	H 	0.41900 0.43930 0.80640 0.09800
C 	C 	0.30370 0.41160 0.80760 0.08400
H 	H 	0.30600 0.41720 0.86080 0.02700
C 	C 	0.23400 0.39110 0.76210 -0.16700
C 	C 	0.23570 0.38140 0.68440 0.08600
H 	H 	0.18860 0.36620 0.65240 0.02000
C 	C 	0.30360 0.39310 0.65120 -0.13200
H 	H 	0.30230 0.38580 0.59840 0.09200
C 	C 	0.15950 0.37780 0.79650 0.44900
C 	C 	0.55340 0.90220 0.57750 0.40400
C 	C 	0.63610 0.92690 0.57160 -0.14900
C 	C 	0.65070 0.95760 0.50380 0.06100
H 	H 	0.60750 0.96510 0.46310 0.01500
C 	C 	0.72730 0.97700 0.49610 -0.12600
H 	H 	0.73640 0.99800 0.45100 0.08300
C 	C 	0.78880 0.96490 0.55510 0.02800
C 	C 	0.77460 0.93510 0.62300 -0.11400
H 	H 	0.81780 0.92760 0.66380 0.09100
C 	C 	0.69740 0.91660 0.63050 0.06600
H 	H 	0.68800 0.89700 0.67640 0.02400
C 	C 	0.92480 0.91270 0.50660 0.04200
C 	C 	0.91620 0.90300 0.42790 -0.11400
H 	H 	0.89070 0.93550 0.39390 0.08800
C 	C 	0.94420 0.84700 0.39910 0.09000
H 	H 	0.93810 0.84090 0.34560 0.01800
C 	C 	0.98080 0.80030 0.44820 -0.16400
C 	C 	0.98920 0.81040 0.52760 0.08700
H 	H 	0.01440 0.77780 0.56150 0.02500
C 	C 	0.96170 0.86680 0.55700 -0.12100
H 	H 	0.96810 0.87350 0.61050 0.09900
C 	C 	0.01280 0.73940 0.41580 0.44400
Co	Co	0.02417 0.66990 0.25139 1.19700
Co	Co	0.12331 0.62550 0.44424 1.11300
Co	Co	0.90913 0.65082 0.05738 1.13200
S 	S 	0.96194 0.27505 0.23314 0.27000
S 	S 	0.95792 0.06691 0.15492 0.22500
S 	S 	0.38872 0.51531 0.04313 0.28000
O 	O 	0.98480 0.74540 0.17170 -0.50600
O 	O 	0.05670 0.58465 0.31900 -0.50100
O 	O 	0.50600 0.76510 0.84420 -0.43300
O 	O 	0.59820 0.13790 0.25240 -0.44600
O 	O 	0.35030 0.19506 0.24130 -0.42200
O 	O 	0.03510 0.61360 0.14090 -0.47000
O 	O 	0.54560 0.80050 0.96450 -0.47500
O 	O 	0.30400 0.18040 0.11630 -0.47800
O 	O 	0.02430 0.55210 0.42970 -0.40600
O 	O 	0.91360 0.75132 0.05680 -0.50900
O 	O 	0.66450 0.11700 0.36860 -0.48000
O 	O 	0.00440 0.60240 0.01640 -0.44700
O 	O 	0.91300 0.27650 0.15890 -0.21300
O 	O 	0.93860 0.23586 0.29410 -0.21700
O 	O 	0.02680 0.08140 0.21100 -0.20200
O 	O 	0.94990 0.09580 0.07960 -0.20600
O 	O 	0.38590 0.46705 0.98360 -0.22300
O 	O 	0.43300 0.50323 0.11770 -0.22800
C 	C 	0.02700 0.54290 0.35830 0.37000
C 	C 	0.00210 0.47870 0.32520 -0.16100
C 	C 	0.99590 0.46710 0.24670 0.07600
H 	H 	0.00250 0.50230 0.21370 0.01400
C 	C 	0.98060 0.40550 0.21740 -0.12700
H 	H 	0.97500 0.39730 0.16430 0.08800
C 	C 	0.97340 0.35560 0.26870 0.03300
C 	C 	0.97810 0.36650 0.34690 -0.13100
H 	H 	0.97230 0.33130 0.38020 0.08500
C 	C 	0.99130 0.42840 0.37400 0.06800
H 	H 	0.99300 0.43710 0.42660 0.01600
C 	C 	0.06030 0.25230 0.21930 0.03000
C 	C 	0.07700 0.24110 0.14510 -0.09900
H 	H 	0.03570 0.24620 0.10200 0.08400
C 	C 	0.15310 0.22270 0.13430 0.05000
H 	H 	0.16350 0.21480 0.08460 0.02300
C 	C 	0.21280 0.21600 0.19740 -0.14100
C 	C 	0.19440 0.22690 0.27090 0.05900
H 	H 	0.23540 0.22170 0.31420 0.02800
C 	C 	0.11850 0.24500 0.28200 -0.10500
H 	H 	0.10770 0.25200 0.33180 0.07700
C 	C 	0.29590 0.19540 0.18430 0.42000
C 	C 	0.94950 0.77700 0.11770 0.54100
C 	C 	0.94980 0.84860 0.12490 -0.31800
C 	C 	0.98210 0.87660 0.19470 0.23500
H 	H 	0.00320 0.84920 0.23650 -0.02900
C 	C 	0.98400 0.94260 0.20430 -0.27000
H 	H 	0.00570 0.96150 0.25220 0.15200
C 	C 	0.95370 0.98120 0.14270 0.14600
C 	C 	0.92240 0.95570 0.07380 -0.26800
H 	H 	0.90250 0.98340 0.03200 0.13400
C 	C 	0.92000 0.88860 0.06550 0.23500
H 	H 	0.89720 0.87010 0.01770 -0.03900
C 	C 	0.87050 0.08500 0.19700 0.05900
C 	C 	0.87160 0.07580 0.27490 -0.12500
H 	H 	0.91900 0.06070 0.30640 0.09800
C 	C 	0.80370 0.08840 0.30760 0.08400
H 	H 	0.80600 0.08280 0.36080 0.02700
C 	C 	0.73400 0.10890 0.26210 -0.16700
C 	C 	0.73570 0.11860 0.18440 0.08600
H 	H 	0.68860 0.13380 0.15240 0.01900
C 	C 	0.80360 0.10690 0.15120 -0.13300
H 	H 	0.80230 0.11420 0.09840 0.09200
C 	C 	0.65950 0.12220 0.29650 0.45000
C 	C 	0.05340 0.59780 0.07750 0.40500
C 	C 	0.13610 0.57310 0.07160 -0.15100
C 	C 	0.15070 0.54240 0.00380 0.06400
H 	H 	0.10750 0.53490 0.96310 0.01400
C 	C 	0.22730 0.52300 0.99610 -0.12900
H 	H 	0.23640 0.50200 0.95100 0.08400
C 	C 	0.28880 0.53510 0.05510 0.03000
C 	C 	0.27460 0.56490 0.12300 -0.11600
H 	H 	0.31780 0.57240 0.16380 0.09200
C 	C 	0.19740 0.58340 0.13050 0.06800
H 	H 	0.18800 0.60300 0.17640 0.02300
C 	C 	0.42480 0.58730 0.00660 0.04200
C 	C 	0.41620 0.59700 0.92790 -0.11400
H 	H 	0.39070 0.56450 0.89390 0.08800
C 	C 	0.44420 0.65300 0.89910 0.09100
H 	H 	0.43810 0.65910 0.84560 0.01800
C 	C 	0.48080 0.69970 0.94820 -0.16400
C 	C 	0.48920 0.68960 0.02760 0.08600
H 	H 	0.51440 0.72220 0.06150 0.02600
C 	C 	0.46170 0.63320 0.05700 -0.12000
H 	H 	0.46810 0.62650 0.11050 0.09900
C 	C 	0.51280 0.76060 0.91580 0.44400
Co	Co	0.47583 0.16990 0.24861 1.19700
Co	Co	0.37669 0.12550 0.05576 1.11400
Co	Co	0.59087 0.15082 0.44262 1.13200
S 	S 	0.53806 0.77505 0.26686 0.27000
S 	S 	0.54208 0.56691 0.34508 0.22700
S 	S 	0.11128 0.01531 0.45687 0.28100
O 	O 	0.51520 0.24540 0.32830 -0.50600
O 	O 	0.44330 0.08465 0.18100 -0.50100
O 	O 	0.99400 0.26510 0.65580 -0.43300
O 	O 	0.90180 0.63790 0.24760 -0.44600
O 	O 	0.14970 0.69506 0.25870 -0.42200
O 	O 	0.46490 0.11360 0.35910 -0.47000
O 	O 	0.95440 0.30050 0.53550 -0.47500
O 	O 	0.19600 0.68040 0.38370 -0.47800
O 	O 	0.47570 0.05210 0.07030 -0.40600
O 	O 	0.58640 0.25132 0.44320 -0.50900
O 	O 	0.83550 0.61700 0.13140 -0.48000
O 	O 	0.49560 0.10240 0.48360 -0.44700
O 	O 	0.58700 0.77650 0.34110 -0.21300
O 	O 	0.56140 0.73586 0.20590 -0.21700
O 	O 	0.47320 0.58140 0.28900 -0.20300
O 	O 	0.55010 0.59580 0.42040 -0.20600
O 	O 	0.11410 0.96705 0.51640 -0.22400
O 	O 	0.06700 0.00323 0.38230 -0.22800
C 	C 	0.47300 0.04290 0.14170 0.37100
C 	C 	0.49790 0.97870 0.17480 -0.16300
C 	C 	0.50410 0.96710 0.25330 0.07900
H 	H 	0.49750 0.00230 0.28630 0.01300
C 	C 	0.51940 0.90550 0.28260 -0.12900
H 	H 	0.52500 0.89730 0.33570 0.08900
C 	C 	0.52660 0.85560 0.23130 0.03400
C 	C 	0.52190 0.86650 0.15310 -0.13200
H 	H 	0.52770 0.83130 0.11980 0.08500
C 	C 	0.50870 0.92840 0.12600 0.07100
H 	H 	0.50700 0.93710 0.07340 0.01500
C 	C 	0.43970 0.75230 0.28070 0.02900
C 	C 	0.42300 0.74110 0.35490 -0.09900
H 	H 	0.46430 0.74620 0.39800 0.08400
C 	C 	0.34690 0.72270 0.36570 0.05000
H 	H 	0.33650 0.71480 0.41540 0.02200
C 	C 	0.28720 0.71600 0.30260 -0.14100
C 	C 	0.30560 0.72690 0.22910 0.05800
H 	H 	0.26460 0.72170 0.18580 0.02800
C 	C 	0.38150 0.74500 0.21800 -0.10500
H 	H 	0.39230 0.75200 0.16820 0.07600
C 	C 	0.20410 0.69540 0.31570 0.42000
C 	C 	0.55050 0.27700 0.38230 0.54100
C 	C 	0.55020 0.34860 0.37510 -0.31700
C 	C 	0.51790 0.37660 0.30530 0.23300
H 	H 	0.49680 0.34920 0.26350 -0.02800
C 	C 	0.51600 0.44260 0.29570 -0.26900
H 	H 	0.49430 0.46150 0.24780 0.15200
C 	C 	0.54630 0.48120 0.35730 0.14400
C 	C 	0.57760 0.45570 0.42620 -0.26600
H 	H 	0.59750 0.48340 0.46800 0.13300
C 	C 	0.58000 0.38860 0.43450 0.23400
H 	H 	0.60280 0.37010 0.48230 -0.03900
C 	C 	0.62950 0.58500 0.30300 0.05900
C 	C 	0.62840 0.57580 0.22510 -0.12500
H 	H 	0.58100 0.56070 0.19360 0.09800
C 	C 	0.69630 0.58840 0.19240 0.08400
H 	H 	0.69400 0.58280 0.13920 0.02700
C 	C 	0.76600 0.60890 0.23790 -0.16700
C 	C 	0.76430 0.61860 0.31560 0.08600
H 	H 	0.81140 0.63380 0.34760 0.02000
C 	C 	0.69640 0.60690 0.34880 -0.13200
H 	H 	0.69770 0.61420 0.40160 0.09200
C 	C 	0.84050 0.62220 0.20350 0.44900
C 	C 	0.44660 0.09780 0.42250 0.40400
C 	C 	0.36390 0.07310 0.42840 -0.14900
C 	C 	0.34930 0.04240 0.49620 0.06100
H 	H 	0.39250 0.03490 0.53690 0.01500
C 	C 	0.27270 0.02300 0.50390 -0.12600
H 	H 	0.26360 0.00200 0.54900 0.08300
C 	C 	0.21120 0.03510 0.44490 0.02800
C 	C 	0.22540 0.06490 0.37700 -0.11400
H 	H 	0.18220 0.07240 0.33620 0.09100
C 	C 	0.30260 0.08340 0.36950 0.06600
H 	H 	0.31200 0.10300 0.32360 0.02400
C 	C 	0.07520 0.08730 0.49340 0.04200
C 	C 	0.08380 0.09700 0.57210 -0.11400
H 	H 	0.10930 0.06450 0.60610 0.08800
C 	C 	0.05580 0.15300 0.60090 0.09000
H 	H 	0.06190 0.15910 0.65440 0.01800
C 	C 	0.01920 0.19970 0.55180 -0.16400
C 	C 	0.01080 0.18960 0.47240 0.08700
H 	H 	0.98560 0.22220 0.43850 0.02500
C 	C 	0.03830 0.13320 0.44300 -0.12100
H 	H 	0.03190 0.12650 0.38950 0.09900
C 	C 	0.98720 0.26060 0.58420 0.44400
