data_crystal

_cell_length_a 16.70330
_cell_length_b 20.01950
_cell_length_c 17.46020
_cell_angle_alpha 90.00000
_cell_angle_beta  100.42300
_cell_angle_gamma 90.00000

_symmetry_space_group_name_	'P 1'
_symmetry_space_group_name_H-M	'P 1'

loop_
_symmetry_equiv_pos_as_xyz
  x,y,z

loop_
_atom_site_label
_atom_site_type_symbol
_atom_site_fract_x
_atom_site_fract_y
_atom_site_fract_z
_atom_site_charge
Co	Co	0.95911 0.16580 0.24332 1.20700
Co	Co	0.85349 0.12517 0.05558 1.13100
Co	Co	0.08528 0.14594 0.43907 1.14600
S 	S 	0.05238 0.77511 0.26585 0.27600
S 	S 	0.60313 0.01649 0.46048 0.27200
S 	S 	0.44446 0.06989 0.16560 0.27200
O 	O 	0.47840 0.26510 0.66260 -0.42200
O 	O 	0.93900 0.10070 0.33080 -0.45100
O 	O 	0.08040 0.13690 0.24900 -0.43500
O 	O 	0.66350 0.69350 0.26690 -0.41700
O 	O 	0.50820 0.74030 0.17220 -0.43400
O 	O 	0.92650 0.08666 0.16440 -0.50500
O 	O 	0.71840 0.68450 0.39340 -0.47400
O 	O 	0.43810 0.30590 0.54210 -0.45300
O 	O 	0.93290 0.04380 0.05150 -0.41900
O 	O 	0.98450 0.10860 0.45790 -0.48500
O 	O 	0.14690 0.10690 0.36690 -0.49700
O 	O 	0.41170 0.74360 0.06570 -0.46700
O 	O 	0.07190 0.73200 0.20620 -0.21500
O 	O 	0.10690 0.77990 0.33850 -0.21000
O 	O 	0.55190 0.00120 0.38770 -0.21700
O 	O 	0.61440 0.96740 0.52130 -0.21800
O 	O 	0.51340 0.08690 0.22350 -0.20800
O 	O 	0.43420 0.10140 0.09090 -0.21000
C 	C 	0.94980 0.04010 0.12340 0.35700
C 	C 	0.98850 0.97910 0.16140 -0.11400
C 	C 	0.00520 0.92670 0.11580 0.02000
H 	H 	0.00110 0.93320 0.06250 0.04700
C 	C 	0.02790 0.86490 0.14710 -0.08800
H 	H 	0.03730 0.82960 0.11540 0.07000
C 	C 	0.03620 0.85670 0.22560 0.00600
C 	C 	0.02450 0.90900 0.27440 -0.08200
H 	H 	0.03170 0.90280 0.32800 0.06700
C 	C 	0.00170 0.97110 0.24140 0.02600
H 	H 	0.99530 0.00720 0.27330 0.03400
C 	C 	0.95530 0.75250 0.28290 0.01300
C 	C 	0.89260 0.74270 0.22070 -0.07600
H 	H 	0.90210 0.74700 0.17010 0.06900
C 	C 	0.81630 0.72660 0.23330 0.02800
H 	H 	0.77370 0.72100 0.19150 0.03900
C 	C 	0.80330 0.71890 0.30900 -0.11100
C 	C 	0.86770 0.72760 0.37120 0.02200
H 	H 	0.85940 0.72040 0.42190 0.03200
C 	C 	0.94330 0.74680 0.35840 -0.08000
H 	H 	0.98530 0.75560 0.39990 0.07400
C 	C 	0.72040 0.69730 0.32300 0.39100
C 	C 	0.93000 0.09640 0.39970 0.40500
C 	C 	0.84980 0.07370 0.41460 -0.13700
C 	C 	0.78230 0.07940 0.35530 0.05000
H 	H 	0.78820 0.09480 0.30630 0.02900
C 	C 	0.70620 0.06180 0.36990 -0.10500
H 	H 	0.66000 0.06630 0.33160 0.09100
C 	C 	0.70060 0.03770 0.44250 0.02100
C 	C 	0.76700 0.03040 0.50100 -0.10900
H 	H 	0.76100 0.01340 0.54920 0.07800
C 	C 	0.84250 0.04880 0.48730 0.04700
H 	H 	0.88820 0.04460 0.52630 0.01900
C 	C 	0.56870 0.09070 0.49710 0.02100
C 	C 	0.52440 0.13690 0.44680 -0.08400
H 	H 	0.51520 0.13000 0.39330 0.08900
C 	C 	0.49440 0.19250 0.47700 0.04400
H 	H 	0.46420 0.22330 0.44380 0.03700
C 	C 	0.50850 0.20360 0.55650 -0.11600
C 	C 	0.55440 0.15810 0.60580 0.04300
H 	H 	0.56540 0.16600 0.65920 0.03400
C 	C 	0.58400 0.10100 0.57600 -0.07800
H 	H 	0.61380 0.06990 0.60920 0.07500
C 	C 	0.47240 0.26310 0.58970 0.39200
C 	C 	0.14090 0.11700 0.29560 0.41400
C 	C 	0.21640 0.10390 0.26240 -0.12400
C 	C 	0.28720 0.08190 0.31110 0.04200
H 	H 	0.28710 0.07430 0.36360 0.04100
C 	C 	0.35750 0.07150 0.28150 -0.08600
H 	H 	0.40480 0.05660 0.31350 0.08800
C 	C 	0.35590 0.08360 0.20320 0.01900
C 	C 	0.28760 0.10760 0.15530 -0.08700
H 	H 	0.28870 0.11750 0.10340 0.08000
C 	C 	0.21740 0.11700 0.18490 0.04400
H 	H 	0.17050 0.13220 0.15260 0.03500
C 	C 	0.44630 0.98220 0.15280 0.01500
C 	C 	0.48620 0.94270 0.21230 -0.09500
H 	H 	0.51050 0.96190 0.25930 0.09300
C 	C 	0.48990 0.87460 0.20150 0.03700
H 	H 	0.51850 0.84810 0.24090 0.04100
C 	C 	0.45100 0.84490 0.13200 -0.11800
C 	C 	0.40790 0.88650 0.07400 0.03900
H 	H 	0.38010 0.86740 0.02820 0.01800
C 	C 	0.40590 0.95310 0.08300 -0.09500
H 	H 	0.37790 0.97990 0.04350 0.06500
C 	C 	0.45760 0.77100 0.12340 0.38400
Co	Co	0.54089 0.66580 0.25668 1.20600
Co	Co	0.64651 0.62517 0.44442 1.13000
Co	Co	0.41472 0.64594 0.06093 1.14500
S 	S 	0.44762 0.27511 0.23415 0.27500
S 	S 	0.89687 0.51649 0.03952 0.27100
S 	S 	0.05554 0.56989 0.33440 0.27200
O 	O 	0.02160 0.76510 0.83740 -0.42300
O 	O 	0.56100 0.60070 0.16920 -0.45200
O 	O 	0.41960 0.63690 0.25100 -0.43500
O 	O 	0.83650 0.19350 0.23310 -0.41700
O 	O 	0.99180 0.24030 0.32780 -0.43400
O 	O 	0.57350 0.58666 0.33560 -0.50500
O 	O 	0.78160 0.18450 0.10660 -0.47400
O 	O 	0.06190 0.80590 0.95790 -0.45400
O 	O 	0.56710 0.54380 0.44850 -0.41900
O 	O 	0.51550 0.60860 0.04210 -0.48500
O 	O 	0.35310 0.60690 0.13310 -0.49700
O 	O 	0.08830 0.24360 0.43430 -0.46800
O 	O 	0.42810 0.23200 0.29380 -0.21500
O 	O 	0.39310 0.27990 0.16150 -0.21000
O 	O 	0.94810 0.50120 0.11230 -0.21700
O 	O 	0.88560 0.46740 0.97870 -0.21700
O 	O 	0.98660 0.58690 0.27650 -0.20900
O 	O 	0.06580 0.60140 0.40910 -0.21000
C 	C 	0.55020 0.54010 0.37660 0.35500
C 	C 	0.51150 0.47910 0.33860 -0.10900
C 	C 	0.49480 0.42670 0.38420 0.01600
H 	H 	0.49890 0.43320 0.43750 0.04800
C 	C 	0.47210 0.36490 0.35290 -0.08500
H 	H 	0.46270 0.32960 0.38460 0.06900
C 	C 	0.46380 0.35670 0.27440 0.00400
C 	C 	0.47550 0.40900 0.22560 -0.07900
H 	H 	0.46830 0.40280 0.17200 0.06500
C 	C 	0.49830 0.47110 0.25860 0.02200
H 	H 	0.50470 0.50720 0.22670 0.03600
C 	C 	0.54470 0.25250 0.21710 0.01400
C 	C 	0.60740 0.24270 0.27930 -0.07700
H 	H 	0.59790 0.24700 0.32990 0.06900
C 	C 	0.68370 0.22660 0.26670 0.02900
H 	H 	0.72630 0.22100 0.30850 0.03900
C 	C 	0.69670 0.21890 0.19100 -0.11100
C 	C 	0.63230 0.22760 0.12880 0.02300
H 	H 	0.64060 0.22040 0.07810 0.03200
C 	C 	0.55670 0.24680 0.14160 -0.08000
H 	H 	0.51470 0.25560 0.10010 0.07500
C 	C 	0.77960 0.19730 0.17700 0.39100
C 	C 	0.57000 0.59640 0.10030 0.40500
C 	C 	0.65020 0.57370 0.08540 -0.13600
C 	C 	0.71770 0.57940 0.14470 0.04900
H 	H 	0.71180 0.59480 0.19370 0.02900
C 	C 	0.79380 0.56180 0.13010 -0.10400
H 	H 	0.84000 0.56630 0.16840 0.09100
C 	C 	0.79940 0.53770 0.05750 0.02000
C 	C 	0.73300 0.53040 0.99900 -0.10700
H 	H 	0.73900 0.51340 0.95080 0.07700
C 	C 	0.65750 0.54880 0.01270 0.04500
H 	H 	0.61180 0.54460 0.97370 0.01900
C 	C 	0.93130 0.59070 0.00290 0.02100
C 	C 	0.97560 0.63690 0.05320 -0.08600
H 	H 	0.98480 0.63000 0.10670 0.08900
C 	C 	0.00560 0.69250 0.02300 0.04600
H 	H 	0.03580 0.72330 0.05620 0.03700
C 	C 	0.99150 0.70360 0.94350 -0.11700
C 	C 	0.94560 0.65810 0.89420 0.04300
H 	H 	0.93460 0.66600 0.84080 0.03400
C 	C 	0.91600 0.60100 0.92400 -0.07800
H 	H 	0.88620 0.56990 0.89080 0.07500
C 	C 	0.02760 0.76310 0.91030 0.39200
C 	C 	0.35910 0.61700 0.20440 0.41400
C 	C 	0.28360 0.60390 0.23760 -0.12400
C 	C 	0.21280 0.58190 0.18890 0.04200
H 	H 	0.21290 0.57430 0.13640 0.04100
C 	C 	0.14250 0.57150 0.21850 -0.08500
H 	H 	0.09520 0.55660 0.18650 0.08800
C 	C 	0.14410 0.58360 0.29680 0.01900
C 	C 	0.21240 0.60760 0.34470 -0.08700
H 	H 	0.21130 0.61750 0.39660 0.07900
C 	C 	0.28260 0.61700 0.31510 0.04400
H 	H 	0.32950 0.63220 0.34740 0.03500
C 	C 	0.05370 0.48220 0.34720 0.01400
C 	C 	0.01380 0.44270 0.28770 -0.09500
H 	H 	0.98950 0.46190 0.24070 0.09300
C 	C 	0.01010 0.37460 0.29850 0.03700
H 	H 	0.98150 0.34810 0.25910 0.04100
C 	C 	0.04900 0.34490 0.36800 -0.11800
C 	C 	0.09210 0.38650 0.42600 0.03900
H 	H 	0.11990 0.36740 0.47180 0.01800
C 	C 	0.09410 0.45310 0.41700 -0.09500
H 	H 	0.12210 0.47990 0.45650 0.06500
C 	C 	0.04240 0.27100 0.37660 0.38400
Co	Co	0.04089 0.83420 0.75668 1.20600
Co	Co	0.14651 0.87483 0.94442 1.13000
Co	Co	0.91472 0.85406 0.56093 1.14500
S 	S 	0.94762 0.22489 0.73415 0.27500
S 	S 	0.39687 0.98351 0.53952 0.27100
S 	S 	0.55554 0.93011 0.83440 0.27100
O 	O 	0.52160 0.73490 0.33740 -0.42300
O 	O 	0.06100 0.89930 0.66920 -0.45200
O 	O 	0.91960 0.86310 0.75100 -0.43500
O 	O 	0.33650 0.30650 0.73310 -0.41700
O 	O 	0.49180 0.25970 0.82780 -0.43400
O 	O 	0.07350 0.91334 0.83560 -0.50500
O 	O 	0.28160 0.31550 0.60660 -0.47400
O 	O 	0.56190 0.69410 0.45790 -0.45300
O 	O 	0.06710 0.95620 0.94850 -0.41900
O 	O 	0.01550 0.89140 0.54210 -0.48500
O 	O 	0.85310 0.89310 0.63310 -0.49700
O 	O 	0.58830 0.25640 0.93430 -0.46700
O 	O 	0.92810 0.26800 0.79380 -0.21500
O 	O 	0.89310 0.22010 0.66150 -0.21000
O 	O 	0.44810 0.99880 0.61230 -0.21700
O 	O 	0.38560 0.03260 0.47870 -0.21800
O 	O 	0.48660 0.91310 0.77650 -0.20800
O 	O 	0.56580 0.89860 0.90910 -0.21000
C 	C 	0.05020 0.95990 0.87660 0.35700
C 	C 	0.01150 0.02090 0.83860 -0.11400
C 	C 	0.99480 0.07330 0.88420 0.02000
H 	H 	0.99890 0.06680 0.93750 0.04700
C 	C 	0.97210 0.13510 0.85290 -0.08800
H 	H 	0.96270 0.17040 0.88460 0.07000
C 	C 	0.96380 0.14330 0.77440 0.00600
C 	C 	0.97550 0.09100 0.72560 -0.08200
H 	H 	0.96830 0.09720 0.67200 0.06700
C 	C 	0.99830 0.02890 0.75860 0.02600
H 	H 	0.00470 0.99280 0.72670 0.03400
C 	C 	0.04470 0.24750 0.71710 0.01300
C 	C 	0.10740 0.25730 0.77930 -0.07600
H 	H 	0.09790 0.25300 0.82990 0.06900
C 	C 	0.18370 0.27340 0.76670 0.02800
H 	H 	0.22630 0.27900 0.80850 0.03900
C 	C 	0.19670 0.28110 0.69100 -0.11100
C 	C 	0.13230 0.27240 0.62880 0.02200
H 	H 	0.14060 0.27960 0.57810 0.03200
C 	C 	0.05670 0.25320 0.64160 -0.08000
H 	H 	0.01470 0.24440 0.60010 0.07400
C 	C 	0.27960 0.30270 0.67700 0.39100
C 	C 	0.07000 0.90360 0.60030 0.40500
C 	C 	0.15020 0.92630 0.58540 -0.13700
C 	C 	0.21770 0.92060 0.64470 0.05000
H 	H 	0.21180 0.90520 0.69370 0.02900
C 	C 	0.29380 0.93820 0.63010 -0.10500
H 	H 	0.34000 0.93370 0.66840 0.09100
C 	C 	0.29940 0.96230 0.55750 0.02100
C 	C 	0.23300 0.96960 0.49900 -0.10900
H 	H 	0.23900 0.98660 0.45080 0.07800
C 	C 	0.15750 0.95120 0.51270 0.04700
H 	H 	0.11180 0.95540 0.47370 0.01900
C 	C 	0.43130 0.90930 0.50290 0.02100
C 	C 	0.47560 0.86310 0.55320 -0.08400
H 	H 	0.48480 0.87000 0.60670 0.08900
C 	C 	0.50560 0.80750 0.52300 0.04400
H 	H 	0.53580 0.77670 0.55620 0.03700
C 	C 	0.49150 0.79640 0.44350 -0.11600
C 	C 	0.44560 0.84190 0.39420 0.04300
H 	H 	0.43460 0.83400 0.34080 0.03400
C 	C 	0.41600 0.89900 0.42400 -0.07800
H 	H 	0.38620 0.93010 0.39080 0.07500
C 	C 	0.52760 0.73690 0.41030 0.39200
C 	C 	0.85910 0.88300 0.70440 0.41400
C 	C 	0.78360 0.89610 0.73760 -0.12400
C 	C 	0.71280 0.91810 0.68890 0.04200
H 	H 	0.71290 0.92570 0.63640 0.04100
C 	C 	0.64250 0.92850 0.71850 -0.08600
H 	H 	0.59520 0.94340 0.68650 0.08800
C 	C 	0.64410 0.91640 0.79680 0.01900
C 	C 	0.71240 0.89240 0.84470 -0.08700
H 	H 	0.71130 0.88250 0.89660 0.08000
C 	C 	0.78260 0.88300 0.81510 0.04400
H 	H 	0.82950 0.86780 0.84740 0.03500
C 	C 	0.55370 0.01780 0.84720 0.01500
C 	C 	0.51380 0.05730 0.78770 -0.09500
H 	H 	0.48950 0.03810 0.74070 0.09300
C 	C 	0.51010 0.12540 0.79850 0.03700
H 	H 	0.48150 0.15190 0.75910 0.04100
C 	C 	0.54900 0.15510 0.86800 -0.11800
C 	C 	0.59210 0.11350 0.92600 0.03900
H 	H 	0.61990 0.13260 0.97180 0.01800
C 	C 	0.59410 0.04690 0.91700 -0.09500
H 	H 	0.62210 0.02010 0.95650 0.06500
C 	C 	0.54240 0.22900 0.87660 0.38400
Co	Co	0.45911 0.33420 0.74332 1.20600
Co	Co	0.35349 0.37483 0.55558 1.13000
Co	Co	0.58528 0.35406 0.93907 1.14500
S 	S 	0.55238 0.72489 0.76585 0.27500
S 	S 	0.10313 0.48351 0.96048 0.27100
S 	S 	0.94446 0.43011 0.66560 0.27200
O 	O 	0.97840 0.23490 0.16260 -0.42300
O 	O 	0.43900 0.39930 0.83080 -0.45200
O 	O 	0.58040 0.36310 0.74900 -0.43500
O 	O 	0.16350 0.80650 0.76690 -0.41700
O 	O 	0.00820 0.75970 0.67220 -0.43400
O 	O 	0.42650 0.41334 0.66440 -0.50500
O 	O 	0.21840 0.81550 0.89340 -0.47400
O 	O 	0.93810 0.19410 0.04210 -0.45400
O 	O 	0.43290 0.45620 0.55150 -0.41900
O 	O 	0.48450 0.39140 0.95790 -0.48500
O 	O 	0.64690 0.39310 0.86690 -0.49700
O 	O 	0.91170 0.75640 0.56570 -0.46800
O 	O 	0.57190 0.76800 0.70620 -0.21500
O 	O 	0.60690 0.72010 0.83850 -0.21000
O 	O 	0.05190 0.49880 0.88770 -0.21700
O 	O 	0.11440 0.53260 0.02130 -0.21700
O 	O 	0.01340 0.41310 0.72350 -0.20900
O 	O 	0.93420 0.39860 0.59090 -0.21000
C 	C 	0.44980 0.45990 0.62340 0.35500
C 	C 	0.48850 0.52090 0.66140 -0.10900
C 	C 	0.50520 0.57330 0.61580 0.01600
H 	H 	0.50110 0.56680 0.56250 0.04800
C 	C 	0.52790 0.63510 0.64710 -0.08500
H 	H 	0.53730 0.67040 0.61540 0.06900
C 	C 	0.53620 0.64330 0.72560 0.00400
C 	C 	0.52450 0.59100 0.77440 -0.07900
H 	H 	0.53170 0.59720 0.82800 0.06500
C 	C 	0.50170 0.52890 0.74140 0.02200
H 	H 	0.49530 0.49280 0.77330 0.03600
C 	C 	0.45530 0.74750 0.78290 0.01400
C 	C 	0.39260 0.75730 0.72070 -0.07700
H 	H 	0.40210 0.75300 0.67010 0.06900
C 	C 	0.31630 0.77340 0.73330 0.02900
H 	H 	0.27370 0.77900 0.69150 0.03900
C 	C 	0.30330 0.78110 0.80900 -0.11100
C 	C 	0.36770 0.77240 0.87120 0.02300
H 	H 	0.35940 0.77960 0.92190 0.03200
C 	C 	0.44330 0.75320 0.85840 -0.08000
H 	H 	0.48530 0.74440 0.89990 0.07500
C 	C 	0.22040 0.80270 0.82300 0.39100
C 	C 	0.43000 0.40360 0.89970 0.40500
C 	C 	0.34980 0.42630 0.91460 -0.13600
C 	C 	0.28230 0.42060 0.85530 0.04900
H 	H 	0.28820 0.40520 0.80630 0.02900
C 	C 	0.20620 0.43820 0.86990 -0.10400
H 	H 	0.16000 0.43370 0.83160 0.09100
C 	C 	0.20060 0.46230 0.94250 0.02000
C 	C 	0.26700 0.46960 0.00100 -0.10700
H 	H 	0.26100 0.48660 0.04920 0.07700
C 	C 	0.34250 0.45120 0.98730 0.04500
H 	H 	0.38820 0.45540 0.02630 0.01900
C 	C 	0.06870 0.40930 0.99710 0.02100
C 	C 	0.02440 0.36310 0.94680 -0.08600
H 	H 	0.01520 0.37000 0.89330 0.08900
C 	C 	0.99440 0.30750 0.97700 0.04600
H 	H 	0.96420 0.27670 0.94380 0.03700
C 	C 	0.00850 0.29640 0.05650 -0.11700
C 	C 	0.05440 0.34190 0.10580 0.04300
H 	H 	0.06540 0.33400 0.15920 0.03400
C 	C 	0.08400 0.39900 0.07600 -0.07800
H 	H 	0.11380 0.43010 0.10920 0.07500
C 	C 	0.97240 0.23690 0.08970 0.39200
C 	C 	0.64090 0.38300 0.79560 0.41400
C 	C 	0.71640 0.39610 0.76240 -0.12400
C 	C 	0.78720 0.41810 0.81110 0.04200
H 	H 	0.78710 0.42570 0.86360 0.04100
C 	C 	0.85750 0.42850 0.78150 -0.08500
H 	H 	0.90480 0.44340 0.81350 0.08800
C 	C 	0.85590 0.41640 0.70320 0.01900
C 	C 	0.78760 0.39240 0.65530 -0.08700
H 	H 	0.78870 0.38250 0.60340 0.07900
C 	C 	0.71740 0.38300 0.68490 0.04400
H 	H 	0.67050 0.36780 0.65260 0.03500
C 	C 	0.94630 0.51780 0.65280 0.01400
C 	C 	0.98620 0.55730 0.71230 -0.09500
H 	H 	0.01050 0.53810 0.75930 0.09300
C 	C 	0.98990 0.62540 0.70150 0.03700
H 	H 	0.01850 0.65190 0.74090 0.04100
C 	C 	0.95100 0.65510 0.63200 -0.11800
C 	C 	0.90790 0.61350 0.57400 0.03900
H 	H 	0.88010 0.63260 0.52820 0.01800
C 	C 	0.90590 0.54690 0.58300 -0.09500
H 	H 	0.87790 0.52010 0.54350 0.06500
C 	C 	0.95760 0.72900 0.62340 0.38400
