data_crystal

_cell_length_a 15.58630
_cell_length_b 15.58630
_cell_length_c 15.58630
_cell_angle_alpha 90.00000
_cell_angle_beta  90.00000
_cell_angle_gamma 90.00000

_symmetry_space_group_name_	'P 1'
_symmetry_space_group_name_H-M	'P 1'

loop_
_symmetry_equiv_pos_as_xyz
  x,y,z

loop_
_atom_site_label
_atom_site_type_symbol
_atom_site_fract_x
_atom_site_fract_y
_atom_site_fract_z
_atom_site_charge
O 	O 	0.12292 0.01071 0.36103 -0.31700
O 	O 	0.62292 0.51071 0.86103 -0.31800
O 	O 	0.37708 0.98929 0.86103 -0.31800
O 	O 	0.87708 0.48929 0.36103 -0.31900
O 	O 	0.87708 0.51071 0.13897 -0.31800
O 	O 	0.37708 0.01071 0.63897 -0.31800
O 	O 	0.62292 0.48929 0.63897 -0.31800
O 	O 	0.12292 0.98929 0.13897 -0.31800
O 	O 	0.36103 0.12292 0.01071 -0.31800
O 	O 	0.86103 0.62292 0.51071 -0.31900
O 	O 	0.86103 0.37708 0.98929 -0.31900
O 	O 	0.36103 0.87708 0.48929 -0.31900
O 	O 	0.13897 0.87708 0.51071 -0.31800
O 	O 	0.63897 0.37708 0.01071 -0.31800
O 	O 	0.63897 0.62292 0.48929 -0.31800
O 	O 	0.13897 0.12292 0.98929 -0.31800
O 	O 	0.01071 0.36103 0.12292 -0.31800
O 	O 	0.51071 0.86103 0.62292 -0.31900
O 	O 	0.98929 0.86103 0.37708 -0.31900
O 	O 	0.48929 0.36103 0.87708 -0.31900
O 	O 	0.51071 0.13897 0.87708 -0.31800
O 	O 	0.01071 0.63897 0.37708 -0.31800
O 	O 	0.48929 0.63897 0.62292 -0.31800
O 	O 	0.98929 0.13897 0.12292 -0.31800
O 	O 	0.76071 0.37292 0.88897 -0.31900
O 	O 	0.26071 0.87292 0.38897 -0.31900
O 	O 	0.73929 0.62708 0.38897 -0.31800
O 	O 	0.23929 0.12708 0.88897 -0.31800
O 	O 	0.26071 0.12708 0.11103 -0.31800
O 	O 	0.76071 0.62708 0.61103 -0.31900
O 	O 	0.23929 0.87292 0.61103 -0.31900
O 	O 	0.73929 0.37292 0.11103 -0.31800
O 	O 	0.87292 0.61103 0.23929 -0.31900
O 	O 	0.37292 0.11103 0.73929 -0.31800
O 	O 	0.12708 0.11103 0.26071 -0.31800
O 	O 	0.62708 0.61103 0.76071 -0.31900
O 	O 	0.62708 0.38897 0.73929 -0.31800
O 	O 	0.12708 0.88897 0.23929 -0.31800
O 	O 	0.37292 0.88897 0.76071 -0.31900
O 	O 	0.87292 0.38897 0.26071 -0.31900
O 	O 	0.11103 0.26071 0.12708 -0.31800
O 	O 	0.61103 0.76071 0.62708 -0.31900
O 	O 	0.61103 0.23929 0.87292 -0.31900
O 	O 	0.11103 0.73929 0.37292 -0.31800
O 	O 	0.88897 0.76071 0.37292 -0.31900
O 	O 	0.38897 0.26071 0.87292 -0.31900
O 	O 	0.38897 0.73929 0.62708 -0.31800
O 	O 	0.88897 0.23929 0.12708 -0.31800
Fe	Fe	0.12500 0.87500 0.37500 1.20700
Fe	Fe	0.37500 0.12500 0.87500 1.20700
Fe	Fe	0.87500 0.37500 0.12500 1.20700
Fe	Fe	0.37500 0.87500 0.62500 1.20700
Fe	Fe	0.62500 0.62500 0.62500 1.20700
Fe	Fe	0.87500 0.62500 0.37500 1.20700
Fe	Fe	0.62500 0.37500 0.87500 1.20700
Fe	Fe	0.12500 0.12500 0.12500 1.20800
C 	C 	0.12500 0.03543 0.28543 0.23500
C 	C 	0.62500 0.53543 0.78543 0.23500
C 	C 	0.37500 0.96457 0.78543 0.23400
C 	C 	0.87500 0.46457 0.28543 0.23400
C 	C 	0.87500 0.53543 0.21457 0.23400
C 	C 	0.37500 0.03543 0.71457 0.23500
C 	C 	0.62500 0.46457 0.71457 0.23400
C 	C 	0.12500 0.96457 0.21457 0.23400
C 	C 	0.28543 0.12500 0.03543 0.23500
C 	C 	0.78543 0.62500 0.53543 0.23500
C 	C 	0.78543 0.37500 0.96457 0.23400
C 	C 	0.28543 0.87500 0.46457 0.23400
C 	C 	0.21457 0.87500 0.53543 0.23400
C 	C 	0.71457 0.37500 0.03543 0.23500
C 	C 	0.71457 0.62500 0.46457 0.23400
C 	C 	0.21457 0.12500 0.96457 0.23400
C 	C 	0.03543 0.28543 0.12500 0.23500
C 	C 	0.53543 0.78543 0.62500 0.23500
C 	C 	0.96457 0.78543 0.37500 0.23400
C 	C 	0.46457 0.28543 0.87500 0.23400
C 	C 	0.53543 0.21457 0.87500 0.23400
C 	C 	0.03543 0.71457 0.37500 0.23500
C 	C 	0.46457 0.71457 0.62500 0.23400
C 	C 	0.96457 0.21457 0.12500 0.23400
