data_crystal

_cell_length_a 12.13000
_cell_length_b 12.70160
_cell_length_c 21.81900
_cell_angle_alpha 82.74990
_cell_angle_beta  74.67500
_cell_angle_gamma 61.47770

_symmetry_space_group_name_	'P 1'
_symmetry_space_group_name_H-M	'P 1'

loop_
_symmetry_equiv_pos_as_xyz
  x,y,z

loop_
_atom_site_label
_atom_site_type_symbol
_atom_site_fract_x
_atom_site_fract_y
_atom_site_fract_z
_atom_site_charge
Tb	Tb	0.76826 0.73910 0.47444 1.76400
Tb	Tb	0.49264 0.73910 0.02556 1.76400
Tb	Tb	0.23174 0.26090 0.52556 1.76400
Tb	Tb	0.50736 0.26090 0.97444 1.76400
Tb	Tb	0.78750 0.42500 0.25000 1.47800
Tb	Tb	0.21250 0.57500 0.75000 1.47800
Tb	Tb	0.24702 0.50596 0.25000 1.89500
Tb	Tb	0.75298 0.49404 0.75000 1.89500
H 	H 	0.02770 0.87040 0.41450 0.04800
H 	H 	0.41750 0.70200 0.38380 0.05600
H 	H 	0.06360 0.04000 0.40710 0.05900
H 	H 	0.37130 0.80720 0.47590 0.06500
H 	H 	0.53320 0.87600 0.16270 0.05500
H 	H 	0.41710 0.05820 0.34550 0.06500
H 	H 	0.10190 0.87040 0.08550 0.04800
H 	H 	0.88050 0.70200 0.11620 0.05600
H 	H 	0.89640 0.04000 0.09290 0.05900
H 	H 	0.82150 0.80720 0.02410 0.06600
H 	H 	0.59080 0.87600 0.33730 0.05500
H 	H 	0.52470 0.05820 0.15450 0.06500
H 	H 	0.97230 0.12960 0.58550 0.04800
H 	H 	0.58250 0.29800 0.61620 0.05600
H 	H 	0.93640 0.96000 0.59290 0.05900
H 	H 	0.62870 0.19280 0.52410 0.06500
H 	H 	0.46680 0.12400 0.83730 0.05500
H 	H 	0.58290 0.94180 0.65450 0.06500
H 	H 	0.89810 0.12960 0.91450 0.04800
H 	H 	0.11950 0.29800 0.88380 0.05600
H 	H 	0.10360 0.96000 0.90710 0.05900
H 	H 	0.17850 0.19280 0.97590 0.06600
H 	H 	0.40920 0.12400 0.66270 0.05500
H 	H 	0.47530 0.94180 0.84550 0.06500
C 	C 	0.64650 0.63300 0.14940 0.41500
C 	C 	0.28140 0.30020 0.36090 0.39100
C 	C 	0.00340 0.71840 0.34700 0.38300
C 	C 	0.12050 0.72060 0.36080 -0.03700
C 	C 	0.11010 0.80840 0.39540 -0.04100
C 	C 	0.22300 0.80600 0.40240 0.00700
C 	C 	0.33930 0.71000 0.37730 -0.04800
C 	C 	0.34060 0.62480 0.34230 -0.02200
C 	C 	0.46480 0.51780 0.30650 0.39300
C 	C 	0.03370 0.24460 0.45560 0.32900
C 	C 	0.12780 0.11040 0.45920 0.00100
C 	C 	0.12640 0.02120 0.43080 -0.07500
C 	C 	0.21770 0.90140 0.43700 0.04000
C 	C 	0.30450 0.88540 0.47180 -0.09200
C 	C 	0.29680 0.98040 0.50100 0.05200
C 	C 	0.37240 0.98940 0.54720 0.22800
C 	C 	0.62590 0.71460 0.20080 -0.03700
C 	C 	0.56510 0.83580 0.19880 -0.03600
C 	C 	0.35890 0.21860 0.30280 -0.02200
C 	C 	0.41930 0.09760 0.30550 -0.05800
C 	C 	0.72050 0.63300 0.35060 0.41500
C 	C 	0.41840 0.30020 0.13910 0.39100
C 	C 	0.27820 0.71840 0.15300 0.38400
C 	C 	0.15890 0.72060 0.13920 -0.03700
C 	C 	0.08150 0.80840 0.10460 -0.04200
C 	C 	0.97100 0.80600 0.09760 0.00800
C 	C 	0.95070 0.71000 0.12270 -0.04800
C 	C 	0.03460 0.62480 0.15770 -0.02300
C 	C 	0.01740 0.51780 0.19350 0.39300
C 	C 	0.72170 0.24460 0.04440 0.32900
C 	C 	0.76180 0.11040 0.04080 0.00200
C 	C 	0.85240 0.02120 0.06920 -0.07500
C 	C 	0.88090 0.90140 0.06300 0.04100
C 	C 	0.81010 0.88540 0.02820 -0.09400
C 	C 	0.72280 0.98040 0.99900 0.05500
C 	C 	0.63820 0.98940 0.95280 0.22900
C 	C 	0.65950 0.71460 0.29920 -0.03700
C 	C 	0.59910 0.83580 0.30120 -0.03600
C 	C 	0.42250 0.21860 0.19720 -0.02200
C 	C 	0.48310 0.09760 0.19450 -0.05800
C 	C 	0.35350 0.36700 0.85060 0.41500
C 	C 	0.71860 0.69980 0.63910 0.39100
C 	C 	0.99660 0.28160 0.65300 0.38300
C 	C 	0.87950 0.27940 0.63920 -0.03700
C 	C 	0.88990 0.19160 0.60460 -0.04100
C 	C 	0.77700 0.19400 0.59760 0.00700
C 	C 	0.66070 0.29000 0.62270 -0.04800
C 	C 	0.65940 0.37520 0.65770 -0.02200
C 	C 	0.53520 0.48220 0.69350 0.39300
C 	C 	0.96630 0.75540 0.54440 0.32900
C 	C 	0.87220 0.88960 0.54080 0.00100
C 	C 	0.87360 0.97880 0.56920 -0.07500
C 	C 	0.78230 0.09860 0.56300 0.04000
C 	C 	0.69550 0.11460 0.52820 -0.09200
C 	C 	0.70320 0.01960 0.49900 0.05200
C 	C 	0.62760 0.01060 0.45280 0.22800
C 	C 	0.37410 0.28540 0.79920 -0.03700
C 	C 	0.43490 0.16420 0.80120 -0.03600
C 	C 	0.64110 0.78140 0.69720 -0.02200
C 	C 	0.58070 0.90240 0.69450 -0.05800
C 	C 	0.27950 0.36700 0.64940 0.41500
C 	C 	0.58160 0.69980 0.86090 0.39100
C 	C 	0.72180 0.28160 0.84700 0.38400
C 	C 	0.84110 0.27940 0.86080 -0.03700
C 	C 	0.91850 0.19160 0.89540 -0.04200
C 	C 	0.02900 0.19400 0.90240 0.00800
C 	C 	0.04930 0.29000 0.87730 -0.04800
C 	C 	0.96540 0.37520 0.84230 -0.02300
C 	C 	0.98260 0.48220 0.80650 0.39300
C 	C 	0.27830 0.75540 0.95560 0.32900
C 	C 	0.23820 0.88960 0.95920 0.00200
C 	C 	0.14760 0.97880 0.93080 -0.07500
C 	C 	0.11910 0.09860 0.93700 0.04100
C 	C 	0.18990 0.11460 0.97180 -0.09400
C 	C 	0.27720 0.01960 0.00100 0.05500
C 	C 	0.36180 0.01060 0.04720 0.22900
C 	C 	0.34050 0.28540 0.70080 -0.03700
C 	C 	0.40090 0.16420 0.69880 -0.03600
C 	C 	0.57750 0.78140 0.80280 -0.02200
C 	C 	0.51690 0.90240 0.80550 -0.05800
C 	C 	0.54910 0.90180 0.25000 0.00600
C 	C 	0.48460 0.03080 0.25000 0.02600
C 	C 	0.45090 0.09820 0.75000 0.00600
C 	C 	0.51540 0.96920 0.75000 0.02600
N 	N 	0.23430 0.63260 0.33140 -0.19300
N 	N 	0.21050 0.08980 0.49390 -0.19800
N 	N 	0.13310 0.63260 0.16860 -0.19300
N 	N 	0.69970 0.08980 0.00610 -0.19800
N 	N 	0.76570 0.36740 0.66860 -0.19300
N 	N 	0.78950 0.91020 0.50610 -0.19800
N 	N 	0.86690 0.36740 0.83140 -0.19300
N 	N 	0.30030 0.91020 0.99390 -0.19800
N 	N 	0.67350 0.65300 0.25000 -0.15400
N 	N 	0.35860 0.28280 0.25000 -0.19700
N 	N 	0.32650 0.34700 0.75000 -0.15400
N 	N 	0.64140 0.71720 0.75000 -0.19700
O 	O 	0.03200 0.64920 0.30160 -0.44500
O 	O 	0.89600 0.77820 0.38160 -0.46100
O 	O 	0.44780 0.45200 0.27610 -0.46700
O 	O 	0.56830 0.50660 0.31260 -0.44100
O 	O 	0.03820 0.31380 0.48980 -0.43300
O 	O 	0.95350 0.27500 0.42290 -0.28100
O 	O 	0.39920 0.08240 0.53540 -0.41100
O 	O 	0.38410 0.89180 0.58500 -0.23400
O 	O 	0.69370 0.52600 0.15820 -0.43800
O 	O 	0.61920 0.68980 0.09780 -0.48300
O 	O 	0.21910 0.41040 0.35240 -0.46300
O 	O 	0.28860 0.24600 0.41340 -0.46400
O 	O 	0.31880 0.64920 0.19840 -0.44500
O 	O 	0.32580 0.77820 0.11840 -0.46200
O 	O 	0.10020 0.45200 0.22390 -0.46700
O 	O 	0.92510 0.50660 0.18740 -0.44100
O 	O 	0.64800 0.31380 0.01020 -0.43300
O 	O 	0.77150 0.27500 0.07710 -0.28000
O 	O 	0.51840 0.08240 0.96460 -0.41200
O 	O 	0.72410 0.89180 0.91500 -0.23400
O 	O 	0.78030 0.52600 0.34180 -0.43800
O 	O 	0.69100 0.68980 0.40220 -0.48300
O 	O 	0.37050 0.41040 0.14760 -0.46300
O 	O 	0.46540 0.24600 0.08660 -0.46400
O 	O 	0.96800 0.35080 0.69840 -0.44500
O 	O 	0.10400 0.22180 0.61840 -0.46100
O 	O 	0.55220 0.54800 0.72390 -0.46700
O 	O 	0.43170 0.49340 0.68740 -0.44100
O 	O 	0.96180 0.68620 0.51020 -0.43300
O 	O 	0.04650 0.72500 0.57710 -0.28100
O 	O 	0.60080 0.91760 0.46460 -0.41100
O 	O 	0.61590 0.10820 0.41500 -0.23400
O 	O 	0.30630 0.47400 0.84180 -0.43800
O 	O 	0.38080 0.31020 0.90220 -0.48300
O 	O 	0.78090 0.58960 0.64760 -0.46300
O 	O 	0.71140 0.75400 0.58660 -0.46400
O 	O 	0.68120 0.35080 0.80160 -0.44500
O 	O 	0.67420 0.22180 0.88160 -0.46200
O 	O 	0.89980 0.54800 0.77610 -0.46700
O 	O 	0.07490 0.49340 0.81260 -0.44100
O 	O 	0.35200 0.68620 0.98980 -0.43300
O 	O 	0.22850 0.72500 0.92290 -0.28000
O 	O 	0.48160 0.91760 0.03540 -0.41200
O 	O 	0.27590 0.10820 0.08500 -0.23400
O 	O 	0.21970 0.47400 0.65820 -0.43800
O 	O 	0.30900 0.31020 0.59780 -0.48300
O 	O 	0.62950 0.58960 0.85240 -0.46300
O 	O 	0.53460 0.75400 0.91340 -0.46400
