data_crystal

_cell_length_a 15.50940
_cell_length_b 17.82510
_cell_length_c 24.22100
_cell_angle_alpha 90.00000
_cell_angle_beta  90.00000
_cell_angle_gamma 90.00000

_symmetry_space_group_name_	'P 1'
_symmetry_space_group_name_H-M	'P 1'

loop_
_symmetry_equiv_pos_as_xyz
  x,y,z

loop_
_atom_site_label
_atom_site_type_symbol
_atom_site_fract_x
_atom_site_fract_y
_atom_site_fract_z
_atom_site_charge
Co	Co	0.19555 0.70863 -0.00000 1.18300
Co	Co	0.80445 0.29137 1.00000 1.17000
Co	Co	0.30445 0.20863 0.50000 1.17900
Co	Co	0.69555 0.79137 0.50000 1.17900
Co	Co	0.60668 0.97493 0.50000 1.15100
Co	Co	0.39332 0.02507 0.50000 1.16000
Co	Co	0.89332 0.47493 1.00000 1.14200
Co	Co	0.10668 0.52507 -0.00000 1.16400
H 	H 	0.16460 0.89030 0.87860 0.01700
H 	H 	0.13430 0.97840 0.81380 0.08500
H 	H 	0.91660 0.87270 0.77590 0.09200
H 	H 	0.94820 0.78200 0.84040 0.02400
H 	H 	0.88200 0.85190 0.61530 0.00300
H 	H 	0.98260 0.88350 0.67930 0.08300
H 	H 	0.84650 0.06710 0.71640 0.08100
H 	H 	0.75180 0.03880 0.64530 0.01400
H 	H 	0.83540 0.10970 0.87860 0.01500
H 	H 	0.86570 0.02160 0.81380 0.09100
H 	H 	0.08340 0.12730 0.77590 0.08500
H 	H 	0.05180 0.21800 0.84040 0.02200
H 	H 	0.11800 0.14810 0.61530 0.00700
H 	H 	0.01740 0.11650 0.67930 0.10600
H 	H 	0.15350 0.93290 0.71640 0.10000
H 	H 	0.24820 0.96120 0.64530 0.01400
H 	H 	0.33540 0.39030 0.62140 0.01000
H 	H 	0.36570 0.47840 0.68620 0.10200
H 	H 	0.58340 0.37270 0.72410 0.10100
H 	H 	0.55180 0.28200 0.65960 0.01600
H 	H 	0.61800 0.35190 0.88470 -0.00600
H 	H 	0.51740 0.38350 0.82070 0.10900
H 	H 	0.65350 0.56710 0.78360 0.10200
H 	H 	0.74820 0.53880 0.85470 0.00200
H 	H 	0.66460 0.60970 0.62140 0.00700
H 	H 	0.63430 0.52160 0.68620 0.10100
H 	H 	0.41660 0.62730 0.72410 0.10200
H 	H 	0.44820 0.71800 0.65960 0.01400
H 	H 	0.38200 0.64810 0.88470 -0.00700
H 	H 	0.48260 0.61650 0.82070 0.10700
H 	H 	0.34650 0.43290 0.78360 0.10400
H 	H 	0.25180 0.46120 0.85470 0.00700
H 	H 	0.83540 0.10970 0.12140 0.02100
H 	H 	0.86570 0.02160 0.18620 0.09300
H 	H 	0.08340 0.12730 0.22410 0.08700
H 	H 	0.05180 0.21800 0.15960 0.02500
H 	H 	0.11800 0.14810 0.38470 0.00700
H 	H 	0.01740 0.11650 0.32070 0.10600
H 	H 	0.15350 0.93290 0.28360 0.10100
H 	H 	0.24820 0.96120 0.35470 0.01500
H 	H 	0.16460 0.89030 0.12140 0.02000
H 	H 	0.13430 0.97840 0.18620 0.08500
H 	H 	0.91660 0.87270 0.22410 0.09100
H 	H 	0.94820 0.78200 0.15960 0.02600
H 	H 	0.88200 0.85190 0.38470 0.00300
H 	H 	0.98260 0.88350 0.32070 0.08400
H 	H 	0.84650 0.06710 0.28360 0.08200
H 	H 	0.75180 0.03880 0.35470 0.01400
H 	H 	0.66460 0.60970 0.37860 0.00700
H 	H 	0.63430 0.52160 0.31380 0.10100
H 	H 	0.41660 0.62730 0.27590 0.10200
H 	H 	0.44820 0.71800 0.34040 0.01400
H 	H 	0.38200 0.64810 0.11530 -0.00300
H 	H 	0.48260 0.61650 0.17930 0.10700
H 	H 	0.34650 0.43290 0.21640 0.10400
H 	H 	0.25180 0.46120 0.14530 0.00900
H 	H 	0.33540 0.39030 0.37860 0.01100
H 	H 	0.36570 0.47840 0.31380 0.10200
H 	H 	0.58340 0.37270 0.27590 0.10100
H 	H 	0.55180 0.28200 0.34040 0.01600
H 	H 	0.61800 0.35190 0.11530 -0.00100
H 	H 	0.51740 0.38350 0.17930 0.10900
H 	H 	0.65350 0.56710 0.21640 0.10200
H 	H 	0.74820 0.53880 0.14530 0.00500
C 	C 	0.07830 0.76820 0.91063 0.35400
C 	C 	0.05970 0.82707 0.86768 -0.10800
C 	C 	0.11420 0.88610 0.85800 0.07400
C 	C 	0.09620 0.93870 0.81886 -0.16100
C 	C 	0.02220 0.93501 0.78616 0.12200
C 	C 	0.96740 0.87630 0.79607 -0.17900
C 	C 	0.98580 0.82210 0.83546 0.04500
C 	C 	0.74360 0.91820 0.58002 0.42500
C 	C 	0.80630 0.93980 0.62497 -0.18800
C 	C 	0.87510 0.89600 0.63533 0.10300
C 	C 	0.93490 0.91449 0.67426 -0.16600
C 	C 	0.92650 0.97818 0.70650 0.06500
C 	C 	0.85510 0.02400 0.69548 -0.13900
C 	C 	0.79680 0.00620 0.65373 0.10600
C 	C 	0.92170 0.23180 0.91063 0.36700
C 	C 	0.94030 0.17293 0.86768 -0.15700
C 	C 	0.88580 0.11390 0.85800 0.08500
C 	C 	0.90380 0.06130 0.81886 -0.15500
C 	C 	0.97780 0.06499 0.78616 0.07700
C 	C 	0.03260 0.12370 0.79607 -0.13400
C 	C 	0.01420 0.17790 0.83546 0.09500
C 	C 	0.25640 0.08180 0.58002 0.41900
C 	C 	0.19370 0.06020 0.62497 -0.15100
C 	C 	0.12490 0.10400 0.63533 0.11300
C 	C 	0.06510 0.08551 0.67426 -0.18700
C 	C 	0.07350 0.02182 0.70650 0.14800
C 	C 	0.14490 0.97600 0.69548 -0.19300
C 	C 	0.20320 0.99380 0.65373 0.07900
C 	C 	0.42170 0.26820 0.58937 0.36600
C 	C 	0.44030 0.32707 0.63232 -0.14800
C 	C 	0.38580 0.38610 0.64200 0.10500
C 	C 	0.40380 0.43870 0.68114 -0.19200
C 	C 	0.47780 0.43501 0.71384 0.14900
C 	C 	0.53260 0.37630 0.70393 -0.19100
C 	C 	0.51420 0.32210 0.66454 0.09500
C 	C 	0.75640 0.41820 0.91998 0.42900
C 	C 	0.69370 0.43980 0.87503 -0.19300
C 	C 	0.62490 0.39600 0.86467 0.13800
C 	C 	0.56510 0.41449 0.82574 -0.21600
C 	C 	0.57350 0.47818 0.79350 0.15600
C 	C 	0.64490 0.52400 0.80452 -0.20300
C 	C 	0.70320 0.50620 0.84627 0.11900
C 	C 	0.57830 0.73180 0.58937 0.36700
C 	C 	0.55970 0.67293 0.63232 -0.15100
C 	C 	0.61420 0.61390 0.64200 0.10600
C 	C 	0.59620 0.56130 0.68114 -0.19400
C 	C 	0.52220 0.56499 0.71384 0.14900
C 	C 	0.46740 0.62370 0.70393 -0.19300
C 	C 	0.48580 0.67790 0.66454 0.09600
C 	C 	0.24360 0.58180 0.91998 0.43000
C 	C 	0.30630 0.56020 0.87503 -0.19100
C 	C 	0.37510 0.60400 0.86467 0.13700
C 	C 	0.43490 0.58551 0.82574 -0.21500
C 	C 	0.42650 0.52182 0.79350 0.15600
C 	C 	0.35510 0.47600 0.80452 -0.20100
C 	C 	0.29680 0.49380 0.84627 0.11900
C 	C 	0.92170 0.23180 0.08937 0.36400
C 	C 	0.94030 0.17293 0.13232 -0.14600
C 	C 	0.88580 0.11390 0.14200 0.08300
C 	C 	0.90380 0.06130 0.18114 -0.15300
C 	C 	0.97780 0.06499 0.21384 0.08400
C 	C 	0.03260 0.12370 0.20393 -0.13600
C 	C 	0.01420 0.17790 0.16454 0.08800
C 	C 	0.25640 0.08180 0.41998 0.41900
C 	C 	0.19370 0.06020 0.37503 -0.15100
C 	C 	0.12490 0.10400 0.36467 0.11300
C 	C 	0.06510 0.08551 0.32574 -0.18800
C 	C 	0.07350 0.02182 0.29350 0.15000
C 	C 	0.14490 0.97600 0.30452 -0.19500
C 	C 	0.20320 0.99380 0.34627 0.07900
C 	C 	0.07830 0.76820 0.08937 0.35400
C 	C 	0.05970 0.82707 0.13232 -0.11000
C 	C 	0.11420 0.88610 0.14200 0.07400
C 	C 	0.09620 0.93870 0.18114 -0.15900
C 	C 	0.02220 0.93501 0.21384 0.11700
C 	C 	0.96740 0.87630 0.20393 -0.17400
C 	C 	0.98580 0.82210 0.16454 0.05000
C 	C 	0.74360 0.91820 0.41998 0.42600
C 	C 	0.80630 0.93980 0.37503 -0.19000
C 	C 	0.87510 0.89600 0.36467 0.10500
C 	C 	0.93490 0.91449 0.32574 -0.16800
C 	C 	0.92650 0.97818 0.29350 0.06700
C 	C 	0.85510 0.02400 0.30452 -0.14000
C 	C 	0.79680 0.00620 0.34627 0.10800
C 	C 	0.57830 0.73180 0.41063 0.36700
C 	C 	0.55970 0.67293 0.36768 -0.15100
C 	C 	0.61420 0.61390 0.35800 0.10600
C 	C 	0.59620 0.56130 0.31886 -0.19400
C 	C 	0.52220 0.56499 0.28616 0.14900
C 	C 	0.46740 0.62370 0.29607 -0.19300
C 	C 	0.48580 0.67790 0.33546 0.09600
C 	C 	0.24360 0.58180 0.08002 0.42900
C 	C 	0.30630 0.56020 0.12497 -0.18600
C 	C 	0.37510 0.60400 0.13533 0.13500
C 	C 	0.43490 0.58551 0.17426 -0.21200
C 	C 	0.42650 0.52182 0.20650 0.15400
C 	C 	0.35510 0.47600 0.19548 -0.19800
C 	C 	0.29680 0.49380 0.15373 0.11700
C 	C 	0.42170 0.26820 0.41063 0.36600
C 	C 	0.44030 0.32707 0.36768 -0.14800
C 	C 	0.38580 0.38610 0.35800 0.10500
C 	C 	0.40380 0.43870 0.31886 -0.19100
C 	C 	0.47780 0.43501 0.28616 0.14800
C 	C 	0.53260 0.37630 0.29607 -0.19100
C 	C 	0.51420 0.32210 0.33546 0.09500
C 	C 	0.75640 0.41820 0.08002 0.42800
C 	C 	0.69370 0.43980 0.12497 -0.18700
C 	C 	0.62490 0.39600 0.13533 0.13500
C 	C 	0.56510 0.41449 0.17426 -0.21200
C 	C 	0.57350 0.47818 0.20650 0.15400
C 	C 	0.64490 0.52400 0.19548 -0.20000
C 	C 	0.70320 0.50620 0.15373 0.11700
C 	C 	0.00000 0.00000 0.74632 -0.08800
C 	C 	0.50000 0.50000 0.75368 -0.17900
C 	C 	0.00000 0.00000 0.25368 -0.09200
C 	C 	0.50000 0.50000 0.24632 -0.17700
O 	O 	0.14429 0.77842 0.93958 -0.40300
O 	O 	0.02770 0.71431 0.91503 -0.25500
O 	O 	0.75175 0.85391 0.56100 -0.45700
O 	O 	0.68850 0.96638 0.56595 -0.45700
O 	O 	0.85571 0.22158 0.93958 -0.40600
O 	O 	0.97230 0.28569 0.91503 -0.27400
O 	O 	0.24825 0.14609 0.56100 -0.45100
O 	O 	0.31150 0.03362 0.56595 -0.44000
O 	O 	0.35571 0.27842 0.56042 -0.39900
O 	O 	0.47230 0.21431 0.58497 -0.25900
O 	O 	0.74825 0.35391 0.93900 -0.46000
O 	O 	0.81150 0.46638 0.93405 -0.45800
O 	O 	0.64429 0.72158 0.56042 -0.40200
O 	O 	0.52770 0.78569 0.58497 -0.26300
O 	O 	0.25175 0.64609 0.93900 -0.46200
O 	O 	0.18850 0.53362 0.93405 -0.45300
O 	O 	0.85571 0.22158 0.06042 -0.39200
O 	O 	0.97230 0.28569 0.08497 -0.26300
O 	O 	0.24825 0.14609 0.43900 -0.45100
O 	O 	0.31150 0.03362 0.43405 -0.44000
O 	O 	0.14429 0.77842 0.06042 -0.39500
O 	O 	0.02770 0.71431 0.08497 -0.25000
O 	O 	0.75175 0.85391 0.43900 -0.45700
O 	O 	0.68850 0.96638 0.43405 -0.45700
O 	O 	0.64429 0.72158 0.43958 -0.40200
O 	O 	0.52770 0.78569 0.41503 -0.26300
O 	O 	0.25175 0.64609 0.06100 -0.45300
O 	O 	0.18850 0.53362 0.06595 -0.44500
O 	O 	0.35571 0.27842 0.43958 -0.39900
O 	O 	0.47230 0.21431 0.41503 -0.25900
O 	O 	0.74825 0.35391 0.06100 -0.44800
O 	O 	0.81150 0.46638 0.06595 -0.44600
O 	O 	0.07720 0.63869 -0.00000 -0.36400
O 	O 	0.92280 0.36131 -0.00000 -0.36300
O 	O 	0.42280 0.13869 0.50000 -0.37200
O 	O 	0.57720 0.86131 0.50000 -0.37600
O 	O 	0.50000 0.00000 0.55802 -0.36300
O 	O 	0.00000 0.50000 0.94198 -0.36700
O 	O 	0.50000 -0.00000 0.44198 -0.36200
O 	O 	0.00000 0.50000 0.05802 -0.35900
