data_crystal

_cell_length_a 29.14530
_cell_length_b 29.14530
_cell_length_c 16.99100
_cell_angle_alpha 90.00000
_cell_angle_beta  90.00000
_cell_angle_gamma 120.00000

_symmetry_space_group_name_	'P 1'
_symmetry_space_group_name_H-M	'P 1'

loop_
_symmetry_equiv_pos_as_xyz
  x,y,z

loop_
_atom_site_label
_atom_site_type_symbol
_atom_site_fract_x
_atom_site_fract_y
_atom_site_fract_z
_atom_site_charge
In	In	0.53098 0.84293 0.38651 1.99900
C 	C 	0.59893 0.79216 0.21890 -0.04300
O 	O 	0.59175 0.82798 0.34111 -0.45100
O 	O 	0.44567 0.80374 0.36670 -0.45300
O 	O 	0.60022 0.70999 0.97708 -0.37600
O 	O 	0.74934 0.77432 0.15880 -0.46200
O 	O 	0.47735 0.74981 0.38057 -0.39300
O 	O 	0.53341 0.81588 0.24841 -0.36200
O 	O 	0.52694 0.70817 0.01040 -0.45100
C 	C 	0.64710 0.75193 0.12300 0.00300
H 	H 	0.66280 0.73770 0.09130 0.07600
C 	C 	0.43896 0.75726 0.37000 0.30100
C 	C 	0.64875 0.79994 0.23900 0.00500
H 	H 	0.66520 0.81790 0.28500 0.08000
C 	C 	0.67384 0.78083 0.19030 -0.04900
C 	C 	0.57386 0.76447 0.15100 0.00300
H 	H 	0.54070 0.75950 0.13770 0.07600
C 	C 	0.38424 0.71051 0.36400 -0.04600
O 	O 	0.75323 0.81869 0.26605 -0.37000
C 	C 	0.57374 0.71860 0.02610 0.28200
C 	C 	0.57237 0.81307 0.27180 0.29800
C 	C 	0.72826 0.79164 0.20750 0.30200
C 	C 	0.59792 0.74427 0.10310 -0.04700
C 	C 	0.37729 0.65943 0.36430 0.00200
H 	H 	0.40650 0.65470 0.36460 0.07900
In	In	0.19765 0.17626 0.71985 1.99800
C 	C 	0.26560 0.12549 0.55223 -0.05100
O 	O 	0.25842 0.16131 0.67444 -0.45400
O 	O 	0.11234 0.13707 0.70003 -0.46200
O 	O 	0.26689 0.04332 0.31041 -0.41200
O 	O 	0.41601 0.10765 0.49213 -0.46500
O 	O 	0.14402 0.08314 0.71390 -0.41100
O 	O 	0.20008 0.14921 0.58174 -0.36200
O 	O 	0.19361 0.04150 0.34373 -0.45600
C 	C 	0.31377 0.08526 0.45633 0.01100
H 	H 	0.32947 0.07103 0.42463 0.07300
C 	C 	0.10563 0.09059 0.70333 0.35100
C 	C 	0.31542 0.13327 0.57233 0.00800
H 	H 	0.33187 0.15123 0.61833 0.07600
C 	C 	0.34051 0.11416 0.52363 -0.05600
C 	C 	0.24053 0.09780 0.48433 0.01000
H 	H 	0.20737 0.09283 0.47103 0.07300
C 	C 	0.05091 0.04384 0.69733 -0.18900
O 	O 	0.41990 0.15202 0.59938 -0.37400
C 	C 	0.24041 0.05193 0.35943 0.30900
C 	C 	0.23904 0.14640 0.60513 0.29900
C 	C 	0.39493 0.12497 0.54083 0.30300
C 	C 	0.26459 0.07760 0.43643 -0.06000
C 	C 	0.04396 0.99276 0.69763 0.20500
H 	H 	0.07317 0.98803 0.69793 0.03100
In	In	0.86431 0.50960 0.05318 1.99500
C 	C 	0.93226 0.45883 0.88557 0.00200
O 	O 	0.92508 0.49465 0.00778 -0.47700
O 	O 	0.77900 0.47041 0.03337 -0.46100
O 	O 	0.93355 0.37666 0.64375 -0.40000
O 	O 	0.08267 0.44099 0.82547 -0.44000
O 	O 	0.81068 0.41648 0.04724 -0.40000
O 	O 	0.86674 0.48255 0.91508 -0.35800
O 	O 	0.86027 0.37484 0.67707 -0.44200
C 	C 	0.98043 0.41860 0.78967 -0.10600
H 	H 	0.99613 0.40437 0.75797 0.10500
C 	C 	0.77229 0.42393 0.03667 0.30300
C 	C 	0.98208 0.46661 0.90567 -0.10500
H 	H 	0.99853 0.48457 0.95167 0.10800
C 	C 	0.00717 0.44750 0.85697 0.08400
C 	C 	0.90719 0.43114 0.81767 -0.04600
H 	H 	0.87403 0.42617 0.80437 0.09300
C 	C 	0.71757 0.37718 0.03067 -0.05400
O 	O 	0.08656 0.48536 0.93272 -0.34800
C 	C 	0.90707 0.38527 0.69277 0.28600
C 	C 	0.90570 0.47974 0.93847 0.30300
C 	C 	0.06159 0.45831 0.87417 0.26300
C 	C 	0.93125 0.41094 0.76977 0.00200
C 	C 	0.71062 0.32610 0.03097 0.00700
H 	H 	0.73983 0.32137 0.03127 0.07400
In	In	0.15707 0.68805 0.38651 1.99800
C 	C 	0.20784 0.80677 0.21890 -0.04000
O 	O 	0.17202 0.76377 0.34111 -0.44900
O 	O 	0.19626 0.64193 0.36670 -0.45300
O 	O 	0.29001 0.89023 0.97708 -0.37100
O 	O 	0.22568 0.97502 0.15880 -0.44100
O 	O 	0.25019 0.72754 0.38057 -0.39100
O 	O 	0.18412 0.71753 0.24841 -0.36100
O 	O 	0.29183 0.81877 0.01040 -0.45000
C 	C 	0.24807 0.89517 0.12300 -0.00100
H 	H 	0.26230 0.92510 0.09130 0.08400
C 	C 	0.24274 0.68170 0.37000 0.30100
C 	C 	0.20006 0.84881 0.23900 0.00100
H 	H 	0.18210 0.84730 0.28500 0.08400
C 	C 	0.21917 0.89301 0.19030 -0.04000
C 	C 	0.23553 0.80939 0.15100 0.00000
H 	H 	0.24050 0.78120 0.13770 0.07800
C 	C 	0.28949 0.67373 0.36400 -0.04500
O 	O 	0.18131 0.93454 0.26605 -0.35600
C 	C 	0.28140 0.85514 0.02610 0.28100
C 	C 	0.18693 0.75930 0.27180 0.29800
C 	C 	0.20836 0.93662 0.20750 0.29900
C 	C 	0.25573 0.85365 0.10310 -0.04100
C 	C 	0.34057 0.71786 0.36430 0.00200
H 	H 	0.34530 0.75180 0.36460 0.08100
In	In	0.82374 0.02138 0.71985 1.99000
C 	C 	0.87451 0.14010 0.55223 -0.05700
O 	O 	0.83869 0.09710 0.67444 -0.46000
O 	O 	0.86293 0.97526 0.70003 -0.42500
O 	O 	0.95668 0.22356 0.31041 -0.41300
O 	O 	0.89235 0.30835 0.49213 -0.46500
O 	O 	0.91686 0.06087 0.71390 -0.40600
O 	O 	0.85079 0.05086 0.58174 -0.37900
O 	O 	0.95850 0.15210 0.34373 -0.46100
C 	C 	0.91474 0.22850 0.45633 0.01300
H 	H 	0.92897 0.25843 0.42463 0.07200
C 	C 	0.90941 0.01503 0.70333 0.30700
C 	C 	0.86673 0.18214 0.57233 0.01100
H 	H 	0.84877 0.18063 0.61833 0.07400
C 	C 	0.88584 0.22634 0.52363 -0.06000
C 	C 	0.90220 0.14272 0.48433 0.01300
H 	H 	0.90717 0.11453 0.47103 0.06700
C 	C 	0.95616 0.00706 0.69733 -0.21000
O 	O 	0.84798 0.26787 0.59938 -0.37500
C 	C 	0.94807 0.18847 0.35943 0.31000
C 	C 	0.85360 0.09263 0.60513 0.30100
C 	C 	0.87503 0.26995 0.54083 0.30400
C 	C 	0.92240 0.18698 0.43643 -0.06500
C 	C 	0.00724 0.05119 0.69763 0.16800
H 	H 	0.01197 0.08513 0.69793 0.03600
In	In	0.49040 0.35472 0.05318 1.99500
C 	C 	0.54117 0.47344 0.88557 -0.05200
O 	O 	0.50535 0.43044 0.00778 -0.47600
O 	O 	0.52959 0.30860 0.03337 -0.46100
O 	O 	0.62334 0.55690 0.64375 -0.39800
O 	O 	0.55901 0.64169 0.82547 -0.46000
O 	O 	0.58352 0.39421 0.04724 -0.39800
O 	O 	0.51745 0.38420 0.91508 -0.36100
O 	O 	0.62516 0.48544 0.67707 -0.44600
C 	C 	0.58140 0.56184 0.78967 0.01000
H 	H 	0.59563 0.59177 0.75797 0.07900
C 	C 	0.57607 0.34837 0.03667 0.30300
C 	C 	0.53339 0.51548 0.90567 0.01100
H 	H 	0.51543 0.51397 0.95167 0.08100
C 	C 	0.55250 0.55968 0.85697 -0.05100
C 	C 	0.56886 0.47606 0.81767 0.01200
H 	H 	0.57383 0.44787 0.80437 0.07500
C 	C 	0.62282 0.34040 0.03067 -0.05300
O 	O 	0.51464 0.60121 0.93272 -0.36800
C 	C 	0.61473 0.52181 0.69277 0.30800
C 	C 	0.52026 0.42597 0.93847 0.32400
C 	C 	0.54169 0.60329 0.87417 0.30300
C 	C 	0.58906 0.52032 0.76977 -0.05400
C 	C 	0.67390 0.38453 0.03097 0.00600
H 	H 	0.67863 0.41847 0.03127 0.07500
In	In	0.31195 0.46902 0.38651 1.99800
C 	C 	0.19323 0.40107 0.21890 -0.04300
O 	O 	0.23623 0.40825 0.34111 -0.45200
O 	O 	0.35807 0.55433 0.36670 -0.45600
O 	O 	0.10977 0.39978 0.97708 -0.37100
O 	O 	0.02498 0.25066 0.15880 -0.44300
O 	O 	0.27246 0.52265 0.38057 -0.39100
O 	O 	0.28247 0.46659 0.24841 -0.36400
O 	O 	0.18123 0.47306 0.01040 -0.45100
C 	C 	0.10483 0.35290 0.12300 -0.00000
H 	H 	0.07490 0.33720 0.09130 0.08300
C 	C 	0.31830 0.56104 0.37000 0.30100
C 	C 	0.15119 0.35125 0.23900 0.00200
H 	H 	0.15270 0.33480 0.28500 0.08100
C 	C 	0.10699 0.32616 0.19030 -0.04300
C 	C 	0.19061 0.42614 0.15100 0.00100
H 	H 	0.21880 0.45930 0.13770 0.07600
C 	C 	0.32627 0.61576 0.36400 -0.04600
O 	O 	0.06546 0.24677 0.26605 -0.36000
C 	C 	0.14486 0.42626 0.02610 0.28100
C 	C 	0.24070 0.42763 0.27180 0.29800
C 	C 	0.06338 0.27174 0.20750 0.29900
C 	C 	0.14635 0.40208 0.10310 -0.04300
C 	C 	0.28214 0.62271 0.36430 0.00200
H 	H 	0.24820 0.59350 0.36460 0.08100
In	In	0.97862 0.80235 0.71985 1.99000
C 	C 	0.85990 0.73440 0.55223 -0.05100
O 	O 	0.90290 0.74158 0.67444 -0.45800
O 	O 	0.02474 0.88766 0.70003 -0.41800
O 	O 	0.77644 0.73311 0.31041 -0.40000
O 	O 	0.69165 0.58399 0.49213 -0.46100
O 	O 	0.93913 0.85598 0.71390 -0.39300
O 	O 	0.94914 0.79992 0.58174 -0.37400
O 	O 	0.84790 0.80639 0.34373 -0.44700
C 	C 	0.77150 0.68623 0.45633 0.01000
H 	H 	0.74157 0.67053 0.42463 0.07800
C 	C 	0.98497 0.89437 0.70333 0.30400
C 	C 	0.81786 0.68458 0.57233 0.00800
H 	H 	0.81937 0.66813 0.61833 0.07700
C 	C 	0.77366 0.65949 0.52363 -0.05300
C 	C 	0.85728 0.75947 0.48433 0.00900
H 	H 	0.88547 0.79263 0.47103 0.07300
C 	C 	0.99294 0.94909 0.69733 -0.18000
O 	O 	0.73213 0.58010 0.59938 -0.37300
C 	C 	0.81153 0.75959 0.35943 0.30800
C 	C 	0.90737 0.76096 0.60513 0.30000
C 	C 	0.73005 0.60507 0.54083 0.30300
C 	C 	0.81302 0.73541 0.43643 -0.05500
C 	C 	0.94881 0.95604 0.69763 0.16200
H 	H 	0.91487 0.92683 0.69793 0.03100
In	In	0.64528 0.13569 0.05318 1.99500
C 	C 	0.52656 0.06774 0.88557 0.00300
O 	O 	0.56956 0.07492 0.00778 -0.47700
O 	O 	0.69140 0.22100 0.03337 -0.46200
O 	O 	0.44310 0.06645 0.64375 -0.40000
O 	O 	0.35831 0.91733 0.82547 -0.44000
O 	O 	0.60579 0.18932 0.04724 -0.40000
O 	O 	0.61580 0.13326 0.91508 -0.35800
O 	O 	0.51456 0.13973 0.67707 -0.44200
C 	C 	0.43816 0.01957 0.78967 -0.10600
H 	H 	0.40823 0.00387 0.75797 0.10500
C 	C 	0.65163 0.22771 0.03667 0.30300
C 	C 	0.48452 0.01792 0.90567 -0.10500
H 	H 	0.48603 0.00147 0.95167 0.10800
C 	C 	0.44032 0.99283 0.85697 0.08400
C 	C 	0.52394 0.09281 0.81767 -0.04600
H 	H 	0.55213 0.12597 0.80437 0.09300
C 	C 	0.65960 0.28243 0.03067 -0.05400
O 	O 	0.39879 0.91344 0.93272 -0.34800
C 	C 	0.47819 0.09293 0.69277 0.28600
C 	C 	0.57403 0.09430 0.93847 0.30300
C 	C 	0.39671 0.93841 0.87417 0.26300
C 	C 	0.47968 0.06875 0.76977 0.00200
C 	C 	0.61547 0.28938 0.03097 0.00700
H 	H 	0.58153 0.26017 0.03127 0.07400
In	In	0.15707 0.46902 0.88651 1.99900
C 	C 	0.20784 0.40107 0.71890 -0.04300
O 	O 	0.17202 0.40825 0.84111 -0.44800
O 	O 	0.19626 0.55433 0.86670 -0.45000
O 	O 	0.29001 0.39978 0.47708 -0.39800
O 	O 	0.22568 0.25066 0.65880 -0.45900
O 	O 	0.25019 0.52265 0.88057 -0.38800
O 	O 	0.18412 0.46659 0.74841 -0.36000
O 	O 	0.29183 0.47306 0.51040 -0.44600
C 	C 	0.24807 0.35290 0.62300 0.00800
H 	H 	0.26230 0.33720 0.59130 0.08000
C 	C 	0.24274 0.56104 0.87000 0.30100
C 	C 	0.20006 0.35125 0.73900 0.00600
H 	H 	0.18210 0.33480 0.78500 0.08200
C 	C 	0.21917 0.32616 0.69030 -0.04800
C 	C 	0.23553 0.42614 0.65100 0.00700
H 	H 	0.24050 0.45930 0.63770 0.07700
C 	C 	0.28949 0.61576 0.86400 -0.04200
O 	O 	0.18131 0.24677 0.76605 -0.36700
C 	C 	0.28140 0.42626 0.52610 0.30700
C 	C 	0.18693 0.42763 0.77180 0.29800
C 	C 	0.20836 0.27174 0.70750 0.30200
C 	C 	0.25573 0.40208 0.60310 -0.05100
C 	C 	0.34057 0.62271 0.86430 0.00200
H 	H 	0.34530 0.59350 0.86460 0.08100
In	In	0.82374 0.80235 0.21985 1.99800
C 	C 	0.87451 0.73440 0.05223 -0.09900
O 	O 	0.83869 0.74158 0.17444 -0.45900
O 	O 	0.86293 0.88766 0.20003 -0.46500
O 	O 	0.95668 0.73311 0.81041 -0.41300
O 	O 	0.89235 0.58399 0.99213 -0.44400
O 	O 	0.91686 0.85598 0.21390 -0.41400
O 	O 	0.85079 0.79992 0.08174 -0.37200
O 	O 	0.95850 0.80639 0.84373 -0.45600
C 	C 	0.91474 0.68623 0.95633 0.06400
H 	H 	0.92897 0.67053 0.92463 0.05900
C 	C 	0.90941 0.89437 0.20333 0.35200
C 	C 	0.86673 0.68458 0.07233 0.04100
H 	H 	0.84877 0.66813 0.11833 0.06400
C 	C 	0.88584 0.65949 0.02363 -0.09800
C 	C 	0.90220 0.75947 0.98433 0.06600
H 	H 	0.90717 0.79263 0.97103 0.06100
C 	C 	0.95616 0.94909 0.19733 -0.19500
O 	O 	0.84798 0.58010 0.09938 -0.37500
C 	C 	0.94807 0.75959 0.85943 0.32200
C 	C 	0.85360 0.76096 0.10513 0.31300
C 	C 	0.87503 0.60507 0.04083 0.29200
C 	C 	0.92240 0.73541 0.93643 -0.09200
C 	C 	0.00724 0.95604 0.19763 0.20900
H 	H 	0.01197 0.92683 0.19793 0.02700
In	In	0.49040 0.13569 0.55318 1.99700
C 	C 	0.54117 0.06774 0.38557 0.00700
O 	O 	0.50535 0.07492 0.50778 -0.45400
O 	O 	0.52959 0.22100 0.53337 -0.45500
O 	O 	0.62334 0.06645 0.14375 -0.40400
O 	O 	0.55901 0.91733 0.32547 -0.44200
O 	O 	0.58352 0.18932 0.54724 -0.39400
O 	O 	0.51745 0.13326 0.41508 -0.36000
O 	O 	0.62516 0.13973 0.17707 -0.44500
C 	C 	0.58140 0.01957 0.28967 -0.11000
H 	H 	0.59563 0.00387 0.25797 0.10400
C 	C 	0.57607 0.22771 0.53667 0.30200
C 	C 	0.53339 0.01792 0.40567 -0.11200
H 	H 	0.51543 0.00147 0.45167 0.10400
C 	C 	0.55250 0.99283 0.35697 0.08600
C 	C 	0.56886 0.09281 0.31767 -0.05200
H 	H 	0.57383 0.12597 0.30437 0.09300
C 	C 	0.62282 0.28243 0.53067 -0.04800
O 	O 	0.51464 0.91344 0.43272 -0.35300
C 	C 	0.61473 0.09293 0.19277 0.28600
C 	C 	0.52026 0.09430 0.43847 0.27700
C 	C 	0.54169 0.93841 0.37417 0.26200
C 	C 	0.58906 0.06875 0.26977 0.00200
C 	C 	0.67390 0.28938 0.53097 0.00500
H 	H 	0.67863 0.26017 0.53127 0.07800
In	In	0.31195 0.84293 0.88651 1.99900
C 	C 	0.19323 0.79216 0.71890 -0.03900
O 	O 	0.23623 0.82798 0.84111 -0.44600
O 	O 	0.35807 0.80374 0.86670 -0.45000
O 	O 	0.10977 0.70999 0.47708 -0.39200
O 	O 	0.02498 0.77432 0.65880 -0.43900
O 	O 	0.27246 0.74981 0.88057 -0.38600
O 	O 	0.28247 0.81588 0.74841 -0.35900
O 	O 	0.18123 0.70817 0.51040 -0.44400
C 	C 	0.10483 0.75193 0.62300 0.00400
H 	H 	0.07490 0.73770 0.59130 0.08700
C 	C 	0.31830 0.75726 0.87000 0.30100
C 	C 	0.15119 0.79994 0.73900 0.00200
H 	H 	0.15270 0.81790 0.78500 0.08600
C 	C 	0.10699 0.78083 0.69030 -0.03900
C 	C 	0.19061 0.76447 0.65100 0.00400
H 	H 	0.21880 0.75950 0.63770 0.07900
C 	C 	0.32627 0.71051 0.86400 -0.04200
O 	O 	0.06546 0.81869 0.76605 -0.35300
C 	C 	0.14486 0.71860 0.52610 0.30600
C 	C 	0.24070 0.81307 0.77180 0.29800
C 	C 	0.06338 0.79164 0.70750 0.29900
C 	C 	0.14635 0.74427 0.60310 -0.04500
C 	C 	0.28214 0.65943 0.86430 0.00100
H 	H 	0.24820 0.65470 0.86460 0.08300
In	In	0.97862 0.17626 0.21985 1.98900
C 	C 	0.85990 0.12549 0.05223 -0.10700
O 	O 	0.90290 0.16131 0.17444 -0.46600
O 	O 	0.02474 0.13707 0.20003 -0.42800
O 	O 	0.77644 0.04332 0.81041 -0.41400
O 	O 	0.69165 0.10765 0.99213 -0.44400
O 	O 	0.93913 0.08314 0.21390 -0.40900
O 	O 	0.94914 0.14921 0.08174 -0.38900
O 	O 	0.84790 0.04150 0.84373 -0.46100
C 	C 	0.77150 0.08526 0.95633 0.06800
H 	H 	0.74157 0.07103 0.92463 0.05800
C 	C 	0.98497 0.09059 0.20333 0.30700
C 	C 	0.81786 0.13327 0.07233 0.04400
H 	H 	0.81937 0.15123 0.11833 0.06100
C 	C 	0.77366 0.11416 0.02363 -0.10200
C 	C 	0.85728 0.09780 0.98433 0.07200
H 	H 	0.88547 0.09283 0.97103 0.05400
C 	C 	0.99294 0.04384 0.19733 -0.21600
O 	O 	0.73213 0.15202 0.09938 -0.37600
C 	C 	0.81153 0.05193 0.85943 0.32400
C 	C 	0.90737 0.14640 0.10513 0.31600
C 	C 	0.73005 0.12497 0.04083 0.29300
C 	C 	0.81302 0.07760 0.93643 -0.09800
C 	C 	0.94881 0.99276 0.19763 0.17100
H 	H 	0.91487 0.98803 0.19793 0.03300
In	In	0.64528 0.50960 0.55318 1.99800
C 	C 	0.52656 0.45883 0.38557 -0.04900
O 	O 	0.56956 0.49465 0.50778 -0.45400
O 	O 	0.69140 0.47041 0.53337 -0.45600
O 	O 	0.44310 0.37666 0.14375 -0.40300
O 	O 	0.35831 0.44099 0.32547 -0.46200
O 	O 	0.60579 0.41648 0.54724 -0.39300
O 	O 	0.61580 0.48255 0.41508 -0.36400
O 	O 	0.51456 0.37484 0.17707 -0.44800
C 	C 	0.43816 0.41860 0.28967 0.01000
H 	H 	0.40823 0.40437 0.25797 0.07700
C 	C 	0.65163 0.42393 0.53667 0.30200
C 	C 	0.48452 0.46661 0.40567 0.00800
H 	H 	0.48603 0.48457 0.45167 0.07700
C 	C 	0.44032 0.44750 0.35697 -0.05300
C 	C 	0.52394 0.43114 0.31767 0.00900
H 	H 	0.55213 0.42617 0.30437 0.07400
C 	C 	0.65960 0.37718 0.53067 -0.04800
O 	O 	0.39879 0.48536 0.43272 -0.37400
C 	C 	0.47819 0.38527 0.19277 0.30800
C 	C 	0.57403 0.47974 0.43847 0.29900
C 	C 	0.39671 0.45831 0.37417 0.30300
C 	C 	0.47968 0.41094 0.26977 -0.05600
C 	C 	0.61547 0.32610 0.53097 0.00400
H 	H 	0.58153 0.32137 0.53127 0.07900
In	In	0.53098 0.68805 0.88651 1.99900
C 	C 	0.59893 0.80677 0.71890 -0.04200
O 	O 	0.59175 0.76377 0.84111 -0.44800
O 	O 	0.44567 0.64193 0.86670 -0.45200
O 	O 	0.60022 0.89023 0.47708 -0.39300
O 	O 	0.74934 0.97502 0.65880 -0.44000
O 	O 	0.47735 0.72754 0.88057 -0.38600
O 	O 	0.53341 0.71753 0.74841 -0.36200
O 	O 	0.52694 0.81877 0.51040 -0.44500
C 	C 	0.64710 0.89517 0.62300 0.00400
H 	H 	0.66280 0.92510 0.59130 0.08600
C 	C 	0.43896 0.68170 0.87000 0.30100
C 	C 	0.64875 0.84881 0.73900 0.00300
H 	H 	0.66520 0.84730 0.78500 0.08300
C 	C 	0.67384 0.89301 0.69030 -0.04200
C 	C 	0.57386 0.80939 0.65100 0.00500
H 	H 	0.54070 0.78120 0.63770 0.07700
C 	C 	0.38424 0.67373 0.86400 -0.04200
O 	O 	0.75323 0.93454 0.76605 -0.35700
C 	C 	0.57374 0.85514 0.52610 0.30600
C 	C 	0.57237 0.75930 0.77180 0.29800
C 	C 	0.72826 0.93662 0.70750 0.29900
C 	C 	0.59792 0.85365 0.60310 -0.04700
C 	C 	0.37729 0.71786 0.86430 0.00100
H 	H 	0.40650 0.75180 0.86460 0.08300
In	In	0.19765 0.02138 0.21985 1.99000
C 	C 	0.26560 0.14010 0.05223 -0.09900
O 	O 	0.25842 0.09710 0.17444 -0.46300
O 	O 	0.11234 0.97526 0.20003 -0.42000
O 	O 	0.26689 0.22356 0.81041 -0.40100
O 	O 	0.41601 0.30835 0.99213 -0.44100
O 	O 	0.14402 0.06087 0.21390 -0.39600
O 	O 	0.20008 0.05086 0.08174 -0.38400
O 	O 	0.19361 0.15210 0.84373 -0.44800
C 	C 	0.31377 0.22850 0.95633 0.06200
H 	H 	0.32947 0.25843 0.92463 0.06400
C 	C 	0.10563 0.01503 0.20333 0.30400
C 	C 	0.31542 0.18214 0.07233 0.04000
H 	H 	0.33187 0.18063 0.11833 0.06400
C 	C 	0.34051 0.22634 0.02363 -0.09500
C 	C 	0.24053 0.14272 0.98433 0.06600
H 	H 	0.20737 0.11453 0.97103 0.06100
C 	C 	0.05091 0.00706 0.19733 -0.18600
O 	O 	0.41990 0.26787 0.09938 -0.37400
C 	C 	0.24041 0.18847 0.85943 0.32100
C 	C 	0.23904 0.09263 0.10513 0.31400
C 	C 	0.39493 0.26995 0.04083 0.29300
C 	C 	0.26459 0.18698 0.93643 -0.08700
C 	C 	0.04396 0.05119 0.19763 0.16500
H 	H 	0.07317 0.08513 0.19793 0.02800
In	In	0.86431 0.35472 0.55318 1.99700
C 	C 	0.93226 0.47344 0.38557 0.00700
O 	O 	0.92508 0.43044 0.50778 -0.45400
O 	O 	0.77900 0.30860 0.53337 -0.45600
O 	O 	0.93355 0.55690 0.14375 -0.40400
O 	O 	0.08267 0.64169 0.32547 -0.44200
O 	O 	0.81068 0.39421 0.54724 -0.39400
O 	O 	0.86674 0.38420 0.41508 -0.36000
O 	O 	0.86027 0.48544 0.17707 -0.44500
C 	C 	0.98043 0.56184 0.28967 -0.11000
H 	H 	0.99613 0.59177 0.25797 0.10400
C 	C 	0.77229 0.34837 0.53667 0.30200
C 	C 	0.98208 0.51548 0.40567 -0.11200
H 	H 	0.99853 0.51397 0.45167 0.10400
C 	C 	0.00717 0.55968 0.35697 0.08600
C 	C 	0.90719 0.47606 0.31767 -0.05200
H 	H 	0.87403 0.44787 0.30437 0.09300
C 	C 	0.71757 0.34040 0.53067 -0.04800
O 	O 	0.08656 0.60121 0.43272 -0.35300
C 	C 	0.90707 0.52181 0.19277 0.28600
C 	C 	0.90570 0.42597 0.43847 0.27700
C 	C 	0.06159 0.60329 0.37417 0.26200
C 	C 	0.93125 0.52032 0.26977 0.00300
C 	C 	0.71062 0.38453 0.53097 0.00500
H 	H 	0.73983 0.41847 0.53127 0.07800
