data_crystal

_cell_length_a 29.15500
_cell_length_b 29.15500
_cell_length_c 17.36700
_cell_angle_alpha 90.00000
_cell_angle_beta  90.00000
_cell_angle_gamma 120.00000

_symmetry_space_group_name_	'P 1'
_symmetry_space_group_name_H-M	'P 1'

loop_
_symmetry_equiv_pos_as_xyz
  x,y,z

loop_
_atom_site_label
_atom_site_type_symbol
_atom_site_fract_x
_atom_site_fract_y
_atom_site_fract_z
_atom_site_charge
In	In	0.69353 0.15960 0.11451 1.99700
O 	O 	0.72280 0.19040 0.25110 -0.36700
O 	O 	0.76670 0.17300 0.16530 -0.47300
O 	O 	0.64340 0.08830 0.17780 -0.44400
O 	O 	0.60650 0.08810 0.06540 -0.33200
O 	O 	0.71800 0.11190 0.02750 -0.36700
O 	O 	0.71570 0.18300 0.99360 -0.45000
O 	O 	0.73150 0.25310 0.11960 -0.38500
O 	O 	0.64550 0.19780 0.12770 -0.44600
C 	C 	0.80880 0.20700 0.28670 -0.04400
C 	C 	0.85130 0.20040 0.26430 0.00100
H 	H 	0.85150 0.18660 0.21610 0.08400
C 	C 	0.89360 0.21460 0.31540 -0.03900
C 	C 	0.89530 0.24100 0.38310 0.00400
H 	H 	0.92470 0.25360 0.41510 0.08400
C 	C 	0.85340 0.24860 0.40340 -0.04800
C 	C 	0.80900 0.22930 0.35250 0.00600
H 	H 	0.77990 0.23260 0.36620 0.07700
C 	C 	0.76180 0.18850 0.23000 0.32900
C 	C 	0.60520 0.06490 0.12860 0.23700
C 	C 	0.72700 0.14700 0.97810 0.28100
C 	C 	0.62330 0.28130 0.12780 -0.00300
H 	H 	0.59460 0.24700 0.12880 0.08400
C 	C 	0.67460 0.28990 0.12700 -0.03700
C 	C 	0.68510 0.24460 0.12620 0.29600
In	In	0.36020 0.49293 0.44784 1.99600
O 	O 	0.38947 0.52373 0.58443 -0.37000
O 	O 	0.43337 0.50633 0.49863 -0.47900
O 	O 	0.31007 0.42163 0.51113 -0.46000
O 	O 	0.27317 0.42143 0.39873 -0.35600
O 	O 	0.38467 0.44523 0.36083 -0.38900
O 	O 	0.38237 0.51633 0.32693 -0.44700
O 	O 	0.39817 0.58643 0.45293 -0.39000
O 	O 	0.31217 0.53113 0.46103 -0.45000
C 	C 	0.47547 0.54033 0.62003 -0.05200
C 	C 	0.51797 0.53373 0.59763 0.00500
H 	H 	0.51817 0.51993 0.54943 0.07700
C 	C 	0.56027 0.54793 0.64873 -0.05000
C 	C 	0.56197 0.57433 0.71643 0.00800
H 	H 	0.59137 0.58693 0.74843 0.07600
C 	C 	0.52007 0.58193 0.73673 -0.05700
C 	C 	0.47567 0.56263 0.68583 0.01000
H 	H 	0.44657 0.56593 0.69953 0.07400
C 	C 	0.42847 0.52183 0.56333 0.33100
C 	C 	0.27187 0.39823 0.46193 0.28200
C 	C 	0.39367 0.48033 0.31143 0.30300
C 	C 	0.28997 0.61463 0.46113 -0.00000
H 	H 	0.26127 0.58033 0.46213 0.08000
C 	C 	0.34127 0.62323 0.46033 -0.04200
C 	C 	0.35177 0.57793 0.45953 0.29700
In	In	0.02686 0.82627 0.78118 1.98900
O 	O 	0.05613 0.85707 0.91777 -0.39200
O 	O 	0.10003 0.83967 0.83197 -0.49000
O 	O 	0.97673 0.75497 0.84447 -0.44600
O 	O 	0.93983 0.75477 0.73207 -0.34500
O 	O 	0.05133 0.77857 0.69417 -0.40000
O 	O 	0.04903 0.84967 0.66027 -0.45900
O 	O 	0.06483 0.91977 0.78627 -0.40300
O 	O 	0.97883 0.86447 0.79437 -0.42700
C 	C 	0.14213 0.87367 0.95337 -0.10800
C 	C 	0.18463 0.86707 0.93097 0.03900
H 	H 	0.18483 0.85327 0.88277 0.06200
C 	C 	0.22693 0.88127 0.98207 -0.09400
C 	C 	0.22863 0.90767 0.04977 0.05900
H 	H 	0.25803 0.92027 0.08177 0.05900
C 	C 	0.18673 0.91527 0.07007 -0.09300
C 	C 	0.14233 0.89597 0.01917 0.07100
H 	H 	0.11323 0.89927 0.03287 0.05500
C 	C 	0.09513 0.85517 0.89667 0.34600
C 	C 	0.93853 0.73157 0.79527 0.28000
C 	C 	0.06033 0.81367 0.64477 0.30400
C 	C 	0.95663 0.94797 0.79447 0.12200
H 	H 	0.92793 0.91367 0.79547 0.04200
C 	C 	0.00793 0.95657 0.79367 -0.17200
C 	C 	0.01843 0.91127 0.79287 0.29900
In	In	0.84040 0.53393 0.11451 1.99700
O 	O 	0.80960 0.53240 0.25110 -0.36700
O 	O 	0.82700 0.59370 0.16530 -0.47500
O 	O 	0.91170 0.55510 0.17780 -0.44400
O 	O 	0.91190 0.51840 0.06540 -0.33200
O 	O 	0.88810 0.60610 0.02750 -0.36700
O 	O 	0.81700 0.53270 0.99360 -0.45100
O 	O 	0.74690 0.47840 0.11960 -0.38600
O 	O 	0.80220 0.44770 0.12770 -0.44600
C 	C 	0.79300 0.60180 0.28670 -0.04700
C 	C 	0.79960 0.65090 0.26430 0.00300
H 	H 	0.81340 0.66490 0.21610 0.08100
C 	C 	0.78540 0.67900 0.31540 -0.04500
C 	C 	0.75900 0.65430 0.38310 0.00700
H 	H 	0.74640 0.67110 0.41510 0.07800
C 	C 	0.75140 0.60480 0.40340 -0.05300
C 	C 	0.77070 0.57970 0.35250 0.00800
H 	H 	0.76740 0.54730 0.36620 0.07600
C 	C 	0.81150 0.57330 0.23000 0.33000
C 	C 	0.93510 0.54030 0.12860 0.23700
C 	C 	0.85300 0.58000 0.97810 0.28000
C 	C 	0.71870 0.34200 0.12780 -0.00300
H 	H 	0.75300 0.34760 0.12880 0.08400
C 	C 	0.71010 0.38470 0.12700 -0.03800
C 	C 	0.75540 0.44050 0.12620 0.29700
In	In	0.50707 0.86726 0.44784 1.99600
O 	O 	0.47627 0.86573 0.58443 -0.36500
O 	O 	0.49367 0.92703 0.49863 -0.47800
O 	O 	0.57837 0.88843 0.51113 -0.46300
O 	O 	0.57857 0.85173 0.39873 -0.35700
O 	O 	0.55477 0.93943 0.36083 -0.39000
O 	O 	0.48367 0.86603 0.32693 -0.44000
O 	O 	0.41357 0.81173 0.45293 -0.39100
O 	O 	0.46887 0.78103 0.46103 -0.45000
C 	C 	0.45967 0.93513 0.62003 0.01600
C 	C 	0.46627 0.98423 0.59763 -0.11600
H 	H 	0.48007 0.99823 0.54943 0.10700
C 	C 	0.45207 0.01233 0.64873 0.10000
C 	C 	0.42567 0.98763 0.71643 -0.17500
H 	H 	0.41307 0.00443 0.74843 0.16100
C 	C 	0.41807 0.93813 0.73673 0.02600
C 	C 	0.43737 0.91303 0.68583 -0.06700
H 	H 	0.43407 0.88063 0.69953 0.09800
C 	C 	0.47817 0.90663 0.56333 0.30700
C 	C 	0.60177 0.87363 0.46193 0.28200
C 	C 	0.51967 0.91333 0.31143 0.27000
C 	C 	0.38537 0.67533 0.46113 -0.00000
H 	H 	0.41967 0.68093 0.46213 0.08100
C 	C 	0.37677 0.71803 0.46033 -0.04200
C 	C 	0.42207 0.77383 0.45953 0.29700
In	In	0.17373 0.20060 0.78118 1.99600
O 	O 	0.14293 0.19907 0.91777 -0.37800
O 	O 	0.16033 0.26037 0.83197 -0.48500
O 	O 	0.24503 0.22177 0.84447 -0.46100
O 	O 	0.24523 0.18507 0.73207 -0.35300
O 	O 	0.22143 0.27277 0.69417 -0.39000
O 	O 	0.15033 0.19937 0.66027 -0.44800
O 	O 	0.08023 0.14507 0.78627 -0.40700
O 	O 	0.13553 0.11437 0.79437 -0.45700
C 	C 	0.12633 0.26847 0.95337 -0.10000
C 	C 	0.13293 0.31757 0.93097 0.03600
H 	H 	0.14673 0.33157 0.88277 0.06400
C 	C 	0.11873 0.34567 0.98207 -0.09000
C 	C 	0.09233 0.32097 0.04977 0.05500
H 	H 	0.07973 0.33777 0.08177 0.06100
C 	C 	0.08473 0.27147 0.07007 -0.08800
C 	C 	0.10403 0.24637 0.01917 0.06500
H 	H 	0.10073 0.21397 0.03287 0.06100
C 	C 	0.14483 0.23997 0.89667 0.34400
C 	C 	0.26843 0.20697 0.79527 0.28200
C 	C 	0.18633 0.24667 0.64477 0.30300
C 	C 	0.05203 0.00867 0.79447 0.12500
H 	H 	0.08633 0.01427 0.79547 0.04700
C 	C 	0.04343 0.05137 0.79367 -0.15300
C 	C 	0.08873 0.10717 0.79287 0.33400
In	In	0.46607 0.30647 0.11451 1.99700
O 	O 	0.46760 0.27720 0.25110 -0.36800
O 	O 	0.40630 0.23330 0.16530 -0.47500
O 	O 	0.44490 0.35660 0.17780 -0.45900
O 	O 	0.48160 0.39350 0.06540 -0.35100
O 	O 	0.39390 0.28200 0.02750 -0.37000
O 	O 	0.46730 0.28430 0.99360 -0.45200
O 	O 	0.52160 0.26850 0.11960 -0.38500
O 	O 	0.55230 0.35450 0.12770 -0.44700
C 	C 	0.39820 0.19120 0.28670 -0.04600
C 	C 	0.34910 0.14870 0.26430 0.00100
H 	H 	0.33510 0.14850 0.21610 0.08200
C 	C 	0.32100 0.10640 0.31540 -0.04100
C 	C 	0.34570 0.10470 0.38310 0.00400
H 	H 	0.32890 0.07530 0.41510 0.08300
C 	C 	0.39520 0.14660 0.40340 -0.05000
C 	C 	0.42030 0.19100 0.35250 0.00700
H 	H 	0.45270 0.22010 0.36620 0.07600
C 	C 	0.42670 0.23820 0.23000 0.32900
C 	C 	0.45970 0.39480 0.12860 0.28200
C 	C 	0.42000 0.27300 0.97810 0.28100
C 	C 	0.65800 0.37670 0.12780 -0.00300
H 	H 	0.65240 0.40540 0.12880 0.08300
C 	C 	0.61530 0.32540 0.12700 -0.03800
C 	C 	0.55950 0.31490 0.12620 0.29600
In	In	0.13274 0.63980 0.44784 1.99600
O 	O 	0.13427 0.61053 0.58443 -0.36500
O 	O 	0.07297 0.56663 0.49863 -0.47800
O 	O 	0.11157 0.68993 0.51113 -0.46400
O 	O 	0.14827 0.72683 0.39873 -0.35700
O 	O 	0.06057 0.61533 0.36083 -0.39000
O 	O 	0.13397 0.61763 0.32693 -0.44000
O 	O 	0.18827 0.60183 0.45293 -0.39100
O 	O 	0.21897 0.68783 0.46103 -0.45100
C 	C 	0.06487 0.52453 0.62003 0.01600
C 	C 	0.01577 0.48203 0.59763 -0.11600
H 	H 	0.00177 0.48183 0.54943 0.10700
C 	C 	0.98767 0.43973 0.64873 0.10000
C 	C 	0.01237 0.43803 0.71643 -0.17500
H 	H 	0.99557 0.40863 0.74843 0.16100
C 	C 	0.06187 0.47993 0.73673 0.02700
C 	C 	0.08697 0.52433 0.68583 -0.06700
H 	H 	0.11937 0.55343 0.69953 0.09800
C 	C 	0.09337 0.57153 0.56333 0.30700
C 	C 	0.12637 0.72813 0.46193 0.28200
C 	C 	0.08667 0.60633 0.31143 0.27000
C 	C 	0.32467 0.71003 0.46113 -0.00000
H 	H 	0.31907 0.73873 0.46213 0.08000
C 	C 	0.28197 0.65873 0.46033 -0.04300
C 	C 	0.22617 0.64823 0.45953 0.29800
In	In	0.79940 0.97314 0.78118 1.98900
O 	O 	0.80093 0.94387 0.91777 -0.38700
O 	O 	0.73963 0.89997 0.83197 -0.48800
O 	O 	0.77823 0.02327 0.84447 -0.44500
O 	O 	0.81493 0.06017 0.73207 -0.34200
O 	O 	0.72723 0.94867 0.69417 -0.40000
O 	O 	0.80063 0.95097 0.66027 -0.45400
O 	O 	0.85493 0.93517 0.78627 -0.39200
O 	O 	0.88563 0.02117 0.79437 -0.42100
C 	C 	0.73153 0.85787 0.95337 -0.10100
C 	C 	0.68243 0.81537 0.93097 0.03600
H 	H 	0.66843 0.81517 0.88277 0.06500
C 	C 	0.65433 0.77307 0.98207 -0.08800
C 	C 	0.67903 0.77137 0.04977 0.05500
H 	H 	0.66223 0.74197 0.08177 0.06400
C 	C 	0.72853 0.81327 0.07007 -0.08500
C 	C 	0.75363 0.85767 0.01917 0.06500
H 	H 	0.78603 0.88677 0.03287 0.06000
C 	C 	0.76003 0.90487 0.89667 0.34500
C 	C 	0.79303 0.06147 0.79527 0.27900
C 	C 	0.75333 0.93967 0.64477 0.30300
C 	C 	0.99133 0.04337 0.79447 0.15600
H 	H 	0.98573 0.07207 0.79547 0.04200
C 	C 	0.94863 0.99207 0.79367 -0.14700
C 	C 	0.89283 0.98157 0.79287 0.29700
In	In	0.84040 0.30647 0.61451 1.99600
O 	O 	0.80960 0.27720 0.75110 -0.36900
O 	O 	0.82700 0.23330 0.66530 -0.47600
O 	O 	0.91170 0.35660 0.67780 -0.44500
O 	O 	0.91190 0.39350 0.56540 -0.33700
O 	O 	0.88810 0.28200 0.52750 -0.38400
O 	O 	0.81700 0.28430 0.49360 -0.44500
O 	O 	0.74690 0.26850 0.61960 -0.38900
O 	O 	0.80220 0.35450 0.62770 -0.44800
C 	C 	0.79300 0.19120 0.78670 -0.04500
C 	C 	0.79960 0.14870 0.76430 0.00000
H 	H 	0.81340 0.14850 0.71610 0.08200
C 	C 	0.78540 0.10640 0.81540 -0.04000
C 	C 	0.75900 0.10470 0.88310 0.00000
H 	H 	0.74640 0.07530 0.91510 0.08100
C 	C 	0.75140 0.14660 0.90340 -0.04500
C 	C 	0.77070 0.19100 0.85250 0.00300
H 	H 	0.76740 0.22010 0.86620 0.07600
C 	C 	0.81150 0.23820 0.73000 0.32900
C 	C 	0.93510 0.39480 0.62860 0.23500
C 	C 	0.85300 0.27300 0.47810 0.30100
C 	C 	0.71870 0.37670 0.62780 -0.00200
H 	H 	0.75300 0.40540 0.62880 0.08200
C 	C 	0.71010 0.32540 0.62700 -0.04100
C 	C 	0.75540 0.31490 0.62620 0.29600
In	In	0.50707 0.63980 0.94784 1.99400
O 	O 	0.47627 0.61053 0.08443 -0.36900
O 	O 	0.49367 0.56663 0.99863 -0.50000
O 	O 	0.57837 0.68993 0.01113 -0.44300
O 	O 	0.57857 0.72683 0.89873 -0.35700
O 	O 	0.55477 0.61533 0.86083 -0.39300
O 	O 	0.48367 0.61763 0.82693 -0.44900
O 	O 	0.41357 0.60183 0.95293 -0.39500
O 	O 	0.46887 0.68783 0.96103 -0.45500
C 	C 	0.45967 0.52453 0.12003 -0.05500
C 	C 	0.46627 0.48203 0.09763 0.00800
H 	H 	0.48007 0.48183 0.04943 0.08100
C 	C 	0.45207 0.43973 0.14873 -0.04900
C 	C 	0.42567 0.43803 0.21643 0.00900
H 	H 	0.41307 0.40863 0.24843 0.07700
C 	C 	0.41807 0.47993 0.23673 -0.05600
C 	C 	0.43737 0.52433 0.18583 0.01400
H 	H 	0.43407 0.55343 0.19953 0.07400
C 	C 	0.47817 0.57153 0.06333 0.35300
C 	C 	0.60177 0.72813 0.96193 0.27500
C 	C 	0.51967 0.60633 0.81143 0.30300
C 	C 	0.38537 0.71003 0.96113 0.00100
H 	H 	0.41967 0.73873 0.96213 0.07700
C 	C 	0.37677 0.65873 0.96033 -0.04700
C 	C 	0.42207 0.64823 0.95953 0.29800
In	In	0.17373 0.97314 0.28118 1.99000
O 	O 	0.14293 0.94387 0.41777 -0.38200
O 	O 	0.16033 0.89997 0.33197 -0.48500
O 	O 	0.24503 0.02327 0.34447 -0.44400
O 	O 	0.24523 0.06017 0.23207 -0.34300
O 	O 	0.22143 0.94867 0.19417 -0.40100
O 	O 	0.15033 0.95097 0.16027 -0.45900
O 	O 	0.08023 0.93517 0.28627 -0.40100
O 	O 	0.13553 0.02117 0.29437 -0.42500
C 	C 	0.12633 0.85787 0.45337 -0.05900
C 	C 	0.13293 0.81537 0.43097 0.00700
H 	H 	0.14673 0.81517 0.38277 0.07400
C 	C 	0.11873 0.77307 0.48207 -0.05500
C 	C 	0.09233 0.77137 0.54977 0.01100
H 	H 	0.07973 0.74197 0.58177 0.07200
C 	C 	0.08473 0.81327 0.57007 -0.06400
C 	C 	0.10403 0.85767 0.51917 0.01400
H 	H 	0.10073 0.88677 0.53287 0.06800
C 	C 	0.14483 0.90487 0.39667 0.33200
C 	C 	0.26843 0.06147 0.29527 0.28000
C 	C 	0.18633 0.93967 0.14477 0.31600
C 	C 	0.05203 0.04337 0.29447 0.11900
H 	H 	0.08633 0.07207 0.29547 0.04500
C 	C 	0.04343 0.99207 0.29367 -0.16600
C 	C 	0.08873 0.98157 0.29287 0.29900
In	In	0.46607 0.15960 0.61451 1.99600
O 	O 	0.46760 0.19040 0.75110 -0.37000
O 	O 	0.40630 0.17300 0.66530 -0.47800
O 	O 	0.44490 0.08830 0.67780 -0.44500
O 	O 	0.48160 0.08810 0.56540 -0.33700
O 	O 	0.39390 0.11190 0.52750 -0.38500
O 	O 	0.46730 0.18300 0.49360 -0.44600
O 	O 	0.52160 0.25310 0.61960 -0.39000
O 	O 	0.55230 0.19780 0.62770 -0.44900
C 	C 	0.39820 0.20700 0.78670 -0.04800
C 	C 	0.34910 0.20040 0.76430 0.00200
H 	H 	0.33510 0.18660 0.71610 0.07900
C 	C 	0.32100 0.21460 0.81540 -0.04600
C 	C 	0.34570 0.24100 0.88310 0.00300
H 	H 	0.32890 0.25360 0.91510 0.07500
C 	C 	0.39520 0.24860 0.90340 -0.05000
C 	C 	0.42030 0.22930 0.85250 0.00500
H 	H 	0.45270 0.23260 0.86620 0.07500
C 	C 	0.42670 0.18850 0.73000 0.33000
C 	C 	0.45970 0.06490 0.62860 0.23500
C 	C 	0.42000 0.14700 0.47810 0.30100
C 	C 	0.65800 0.28130 0.62780 -0.00200
H 	H 	0.65240 0.24700 0.62880 0.08200
C 	C 	0.61530 0.28990 0.62700 -0.04100
C 	C 	0.55950 0.24460 0.62620 0.29700
In	In	0.13274 0.49293 0.94784 1.99300
O 	O 	0.13427 0.52373 0.08443 -0.36400
O 	O 	0.07297 0.50633 0.99863 -0.49900
O 	O 	0.11157 0.42163 0.01113 -0.44600
O 	O 	0.14827 0.42143 0.89873 -0.35800
O 	O 	0.06057 0.44523 0.86083 -0.39300
O 	O 	0.13397 0.51633 0.82693 -0.44200
O 	O 	0.18827 0.58643 0.95293 -0.39600
O 	O 	0.21897 0.53113 0.96103 -0.45500
C 	C 	0.06487 0.54033 0.12003 0.01000
C 	C 	0.01577 0.53373 0.09763 -0.10900
H 	H 	0.00177 0.51993 0.04943 0.11000
C 	C 	0.98767 0.54793 0.14873 0.09700
C 	C 	0.01237 0.57433 0.21643 -0.16900
H 	H 	0.99557 0.58693 0.24843 0.16000
C 	C 	0.06187 0.58193 0.23673 0.02500
C 	C 	0.08697 0.56263 0.18583 -0.06100
H 	H 	0.11937 0.56593 0.19953 0.09800
C 	C 	0.09337 0.52183 0.06333 0.33000
C 	C 	0.12637 0.39823 0.96193 0.27400
C 	C 	0.08667 0.48033 0.81143 0.26900
C 	C 	0.32467 0.61463 0.96113 0.00100
H 	H 	0.31907 0.58033 0.96213 0.07800
C 	C 	0.28197 0.62323 0.96033 -0.04700
C 	C 	0.22617 0.57793 0.95953 0.29800
In	In	0.79940 0.82627 0.28118 1.99600
O 	O 	0.80093 0.85707 0.41777 -0.36900
O 	O 	0.73963 0.83967 0.33197 -0.48000
O 	O 	0.77823 0.75497 0.34447 -0.45800
O 	O 	0.81493 0.75477 0.23207 -0.35100
O 	O 	0.72723 0.77857 0.19417 -0.39100
O 	O 	0.80063 0.84967 0.16027 -0.44800
O 	O 	0.85493 0.91977 0.28627 -0.40400
O 	O 	0.88563 0.86447 0.29437 -0.45400
C 	C 	0.73153 0.87367 0.45337 -0.05300
C 	C 	0.68243 0.86707 0.43097 0.00500
H 	H 	0.66843 0.85327 0.38277 0.07600
C 	C 	0.65433 0.88127 0.48207 -0.05200
C 	C 	0.67903 0.90767 0.54977 0.00900
H 	H 	0.66223 0.92027 0.58177 0.07300
C 	C 	0.72853 0.91527 0.57007 -0.06000
C 	C 	0.75363 0.89597 0.51917 0.01100
H 	H 	0.78603 0.89927 0.53287 0.07300
C 	C 	0.76003 0.85517 0.39667 0.33000
C 	C 	0.79303 0.73157 0.29527 0.28200
C 	C 	0.75333 0.81367 0.14477 0.31400
C 	C 	0.99133 0.94797 0.29447 0.12200
H 	H 	0.98573 0.91367 0.29547 0.04900
C 	C 	0.94863 0.95657 0.29367 -0.14800
C 	C 	0.89283 0.91127 0.29287 0.33400
In	In	0.69353 0.53393 0.61451 1.99600
O 	O 	0.72280 0.53240 0.75110 -0.37000
O 	O 	0.76670 0.59370 0.66530 -0.47800
O 	O 	0.64340 0.55510 0.67780 -0.46100
O 	O 	0.60650 0.51840 0.56540 -0.35600
O 	O 	0.71800 0.60610 0.52750 -0.38900
O 	O 	0.71570 0.53270 0.49360 -0.44700
O 	O 	0.73150 0.47840 0.61960 -0.38900
O 	O 	0.64550 0.44770 0.62770 -0.45000
C 	C 	0.80880 0.60180 0.78670 -0.04700
C 	C 	0.85130 0.65090 0.76430 0.00100
H 	H 	0.85150 0.66490 0.71610 0.08000
C 	C 	0.89360 0.67900 0.81540 -0.04200
C 	C 	0.89530 0.65430 0.88310 0.00100
H 	H 	0.92470 0.67110 0.91510 0.08000
C 	C 	0.85340 0.60480 0.90340 -0.04700
C 	C 	0.80900 0.57970 0.85250 0.00400
H 	H 	0.77990 0.54730 0.86620 0.07500
C 	C 	0.76180 0.57330 0.73000 0.33000
C 	C 	0.60520 0.54030 0.62860 0.28200
C 	C 	0.72700 0.58000 0.47810 0.30200
C 	C 	0.62330 0.34200 0.62780 -0.00200
H 	H 	0.59460 0.34760 0.62880 0.08100
C 	C 	0.67460 0.38470 0.62700 -0.04100
C 	C 	0.68510 0.44050 0.62620 0.29700
In	In	0.36020 0.86726 0.94784 1.99300
O 	O 	0.38947 0.86573 0.08443 -0.36400
O 	O 	0.43337 0.92703 0.99863 -0.49900
O 	O 	0.31007 0.88843 0.01113 -0.44600
O 	O 	0.27317 0.85173 0.89873 -0.35900
O 	O 	0.38467 0.93943 0.86083 -0.39400
O 	O 	0.38237 0.86603 0.82693 -0.44200
O 	O 	0.39817 0.81173 0.95293 -0.39600
O 	O 	0.31217 0.78103 0.96103 -0.45600
C 	C 	0.47547 0.93513 0.12003 0.01000
C 	C 	0.51797 0.98423 0.09763 -0.10900
H 	H 	0.51817 0.99823 0.04943 0.11000
C 	C 	0.56027 0.01233 0.14873 0.09700
C 	C 	0.56197 0.98763 0.21643 -0.16900
H 	H 	0.59137 0.00443 0.24843 0.16000
C 	C 	0.52007 0.93813 0.23673 0.02500
C 	C 	0.47567 0.91303 0.18583 -0.06100
H 	H 	0.44657 0.88063 0.19953 0.09800
C 	C 	0.42847 0.90663 0.06333 0.33100
C 	C 	0.27187 0.87363 0.96193 0.27500
C 	C 	0.39367 0.91333 0.81143 0.26900
C 	C 	0.28997 0.67533 0.96113 0.00100
H 	H 	0.26127 0.68093 0.96213 0.07700
C 	C 	0.34127 0.71803 0.96033 -0.04700
C 	C 	0.35177 0.77383 0.95953 0.29800
In	In	0.02686 0.20060 0.28118 1.99000
O 	O 	0.05613 0.19907 0.41777 -0.37800
O 	O 	0.10003 0.26037 0.33197 -0.48300
O 	O 	0.97673 0.22177 0.34447 -0.44300
O 	O 	0.93983 0.18507 0.23207 -0.34000
O 	O 	0.05133 0.27277 0.19417 -0.40100
O 	O 	0.04903 0.19937 0.16027 -0.45400
O 	O 	0.06483 0.14507 0.28627 -0.39000
O 	O 	0.97883 0.11437 0.29437 -0.42000
C 	C 	0.14213 0.26847 0.45337 -0.05400
C 	C 	0.18463 0.31757 0.43097 0.00500
H 	H 	0.18483 0.33157 0.38277 0.07700
C 	C 	0.22693 0.34567 0.48207 -0.05000
C 	C 	0.22863 0.32097 0.54977 0.00800
H 	H 	0.25803 0.33777 0.58177 0.07700
C 	C 	0.18673 0.27147 0.57007 -0.05700
C 	C 	0.14233 0.24637 0.51917 0.01100
H 	H 	0.11323 0.21397 0.53287 0.07300
C 	C 	0.09513 0.23997 0.39667 0.33200
C 	C 	0.93853 0.20697 0.29527 0.28000
C 	C 	0.06033 0.24667 0.14477 0.31500
C 	C 	0.95663 0.00867 0.29447 0.15200
H 	H 	0.92793 0.01427 0.29547 0.04500
C 	C 	0.00793 0.05137 0.29367 -0.14200
C 	C 	0.01843 0.10717 0.29287 0.29700
