data_crystal

_cell_length_a 36.76800
_cell_length_b 21.22800
_cell_length_c 19.23800
_cell_angle_alpha 90.00000
_cell_angle_beta  90.00000
_cell_angle_gamma 90.00000

_symmetry_space_group_name_	'P 1'
_symmetry_space_group_name_H-M	'P 1'

loop_
_symmetry_equiv_pos_as_xyz
  x,y,z

loop_
_atom_site_label
_atom_site_type_symbol
_atom_site_fract_x
_atom_site_fract_y
_atom_site_fract_z
_atom_site_charge
C 	C 	0.97283 0.14770 0.33000 -0.03500
C 	C 	0.00176 0.18490 0.34870 -0.03500
H 	H 	0.99910 0.22850 0.34980 0.06300
C 	C 	0.03490 0.15810 0.36570 -0.02500
H 	H 	0.05410 0.18380 0.37910 0.03800
C 	C 	0.03966 0.09494 0.36310 -0.04600
C 	C 	0.01115 0.05750 0.34330 -0.02900
H 	H 	0.01430 0.01410 0.34040 0.05500
C 	C 	0.97749 0.08390 0.32740 -0.03400
H 	H 	0.95810 0.05810 0.31510 0.04500
C 	C 	0.07615 0.06444 0.37490 0.22200
C 	C 	0.93820 0.18110 0.30900 0.22400
C 	C 	0.13456 0.08122 0.43647 0.11000
C 	C 	0.15635 0.13029 0.46105 -0.05300
H 	H 	0.14700 0.17090 0.46340 0.05100
C 	C 	0.19158 0.11914 0.48183 -0.13100
C 	C 	0.20571 0.05839 0.47934 0.01600
H 	H 	0.22940 0.05050 0.49390 0.04200
C 	C 	0.18413 0.00976 0.45503 -0.05100
C 	C 	0.14860 0.02057 0.43289 -0.09300
H 	H 	0.13450 0.98760 0.41590 0.09900
C 	C 	0.21466 0.17326 0.50710 0.50000
C 	C 	0.19846 0.94362 0.45318 0.30300
C 	C 	0.87404 0.17762 0.29300 0.11600
C 	C 	0.84918 0.17841 0.34685 -0.06100
H 	H 	0.85430 0.15810 0.38850 0.07400
C 	C 	0.81659 0.20984 0.33799 -0.11300
C 	C 	0.80936 0.24050 0.27565 0.02600
H 	H 	0.78770 0.26260 0.27030 0.02600
C 	C 	0.83369 0.23859 0.22226 -0.06100
C 	C 	0.86661 0.20720 0.23101 -0.07900
H 	H 	0.88350 0.20610 0.19510 0.08300
C 	C 	0.82560 0.27150 0.15460 0.33000
C 	C 	0.79057 0.21372 0.39700 0.46400
C 	C 	0.46545 0.85240 0.72130 -0.04500
C 	C 	0.48261 0.79940 0.73580 -0.03100
H 	H 	0.47120 0.76120 0.72690 0.05900
C 	C 	0.48204 0.90520 0.73630 -0.03200
H 	H 	0.47020 0.94330 0.72890 0.03500
C 	C 	0.42739 0.84800 0.69150 0.22900
C 	C 	0.37969 0.90765 0.63040 0.12000
C 	C 	0.35896 0.85714 0.60830 -0.08100
H 	H 	0.36640 0.81620 0.61780 0.09500
C 	C 	0.32686 0.86785 0.57192 -0.09400
C 	C 	0.31531 0.92829 0.55722 0.00700
H 	H 	0.29390 0.93480 0.53260 0.04500
C 	C 	0.33598 0.97940 0.57954 -0.05600
C 	C 	0.36811 0.96881 0.61670 -0.09800
H 	H 	0.38180 0.00280 0.63230 0.07600
C 	C 	0.30490 0.81126 0.54944 0.45300
C 	C 	0.32500 0.04575 0.56363 0.32500
N 	N 	0.90822 0.14741 0.30486 -0.23100
H 	H 	0.90930 0.10520 0.30930 0.12500
N 	N 	0.09845 0.09652 0.41728 -0.22700
H 	H 	0.08930 0.13200 0.43590 0.11600
N 	N 	0.41341 0.90019 0.66550 -0.23300
H 	H 	0.42690 0.93530 0.67060 0.11600
O 	O 	0.20185 0.22720 0.50300 -0.53800
O 	O 	0.24508 0.16067 0.53117 -0.52100
O 	O 	0.22876 0.93293 0.47955 -0.40800
O 	O 	0.17981 0.90077 0.42546 -0.41100
O 	O 	0.84890 0.27338 0.10844 -0.40400
O 	O 	0.79473 0.29573 0.14629 -0.41200
O 	O 	0.76283 0.24686 0.38653 -0.52600
O 	O 	0.79810 0.18412 0.45114 -0.47200
O 	O 	0.93914 0.23750 0.29670 -0.22500
O 	O 	0.08360 0.01519 0.34660 -0.23300
O 	O 	0.30060 0.05573 0.52049 -0.42500
O 	O 	0.34076 0.08984 0.59267 -0.41600
O 	O 	0.27927 0.82043 0.50788 -0.53000
O 	O 	0.31369 0.75900 0.57361 -0.47400
O 	O 	0.41175 0.79821 0.69250 -0.24100
Tb	Tb	0.22853 0.82431 0.43886 1.79400
Tb	Tb	0.19320 0.32968 0.46965 1.70400
C 	C 	0.47283 0.64770 0.33000 -0.03400
C 	C 	0.50176 0.68490 0.34870 -0.03400
H 	H 	0.49910 0.72850 0.34980 0.06400
C 	C 	0.53490 0.65810 0.36570 -0.02400
H 	H 	0.55410 0.68380 0.37910 0.03900
C 	C 	0.53966 0.59494 0.36310 -0.04500
C 	C 	0.51115 0.55750 0.34330 -0.02800
H 	H 	0.51430 0.51410 0.34040 0.05600
C 	C 	0.47749 0.58390 0.32740 -0.03300
H 	H 	0.45810 0.55810 0.31510 0.04600
C 	C 	0.57615 0.56444 0.37490 0.22300
C 	C 	0.43820 0.68110 0.30900 0.22500
C 	C 	0.63456 0.58122 0.43647 0.11100
C 	C 	0.65635 0.63029 0.46105 -0.05200
H 	H 	0.64700 0.67090 0.46340 0.05200
C 	C 	0.69158 0.61914 0.48183 -0.13000
C 	C 	0.70571 0.55839 0.47934 0.01700
H 	H 	0.72940 0.55050 0.49390 0.04300
C 	C 	0.68413 0.50976 0.45503 -0.04900
C 	C 	0.64860 0.52057 0.43289 -0.09300
H 	H 	0.63450 0.48760 0.41590 0.10000
C 	C 	0.71466 0.67326 0.50710 0.50100
C 	C 	0.69846 0.44362 0.45318 0.30400
C 	C 	0.37404 0.67762 0.29300 0.11700
C 	C 	0.34918 0.67841 0.34685 -0.06100
H 	H 	0.35430 0.65810 0.38850 0.07400
C 	C 	0.31659 0.70984 0.33799 -0.11300
C 	C 	0.30936 0.74050 0.27565 0.02600
H 	H 	0.28770 0.76260 0.27030 0.02600
C 	C 	0.33369 0.73859 0.22226 -0.06100
C 	C 	0.36661 0.70720 0.23101 -0.07900
H 	H 	0.38350 0.70610 0.19510 0.08300
C 	C 	0.32560 0.77150 0.15460 0.33000
C 	C 	0.29057 0.71372 0.39700 0.46400
C 	C 	0.96545 0.35240 0.72130 -0.04600
C 	C 	0.98261 0.29940 0.73580 -0.03100
H 	H 	0.97120 0.26120 0.72690 0.05900
C 	C 	0.98204 0.40520 0.73630 -0.03200
H 	H 	0.97020 0.44330 0.72890 0.03500
C 	C 	0.92739 0.34800 0.69150 0.22900
C 	C 	0.87969 0.40765 0.63040 0.12100
C 	C 	0.85896 0.35714 0.60830 -0.08100
H 	H 	0.86640 0.31620 0.61780 0.09500
C 	C 	0.82686 0.36785 0.57192 -0.09400
C 	C 	0.81531 0.42829 0.55722 0.00700
H 	H 	0.79390 0.43480 0.53260 0.04600
C 	C 	0.83598 0.47940 0.57954 -0.05600
C 	C 	0.86811 0.46881 0.61670 -0.09900
H 	H 	0.88180 0.50280 0.63230 0.07700
C 	C 	0.80490 0.31126 0.54944 0.45300
C 	C 	0.82500 0.54575 0.56363 0.32600
N 	N 	0.40822 0.64741 0.30486 -0.23100
H 	H 	0.40930 0.60520 0.30930 0.12500
N 	N 	0.59845 0.59652 0.41728 -0.22700
H 	H 	0.58930 0.63200 0.43590 0.11700
N 	N 	0.91341 0.40019 0.66550 -0.23300
H 	H 	0.92690 0.43530 0.67060 0.11600
O 	O 	0.70185 0.72720 0.50300 -0.53800
O 	O 	0.74508 0.66067 0.53117 -0.52100
O 	O 	0.72876 0.43293 0.47955 -0.40800
O 	O 	0.67981 0.40077 0.42546 -0.41000
O 	O 	0.34890 0.77338 0.10844 -0.40400
O 	O 	0.29473 0.79573 0.14629 -0.41200
O 	O 	0.26283 0.74686 0.38653 -0.52600
O 	O 	0.29810 0.68412 0.45114 -0.47300
O 	O 	0.43914 0.73750 0.29670 -0.22500
O 	O 	0.58360 0.51519 0.34660 -0.23300
O 	O 	0.80060 0.55573 0.52049 -0.42500
O 	O 	0.84076 0.58984 0.59267 -0.41600
O 	O 	0.77927 0.32043 0.50788 -0.53000
O 	O 	0.81369 0.25900 0.57361 -0.47400
O 	O 	0.91175 0.29821 0.69250 -0.24100
Tb	Tb	0.72853 0.32431 0.43886 1.79400
Tb	Tb	0.69320 0.82968 0.46965 1.70400
C 	C 	0.02717 0.14770 0.17000 -0.03400
C 	C 	0.99824 0.18490 0.15130 -0.03400
H 	H 	0.00090 0.22850 0.15020 0.06400
C 	C 	0.96510 0.15810 0.13430 -0.02400
H 	H 	0.94590 0.18380 0.12090 0.03900
C 	C 	0.96034 0.09494 0.13690 -0.04500
C 	C 	0.98885 0.05750 0.15670 -0.02800
H 	H 	0.98570 0.01410 0.15960 0.05600
C 	C 	0.02251 0.08390 0.17260 -0.03300
H 	H 	0.04190 0.05810 0.18490 0.04600
C 	C 	0.92385 0.06444 0.12510 0.22300
C 	C 	0.06180 0.18110 0.19100 0.22500
C 	C 	0.86544 0.08122 0.06353 0.11100
C 	C 	0.84365 0.13029 0.03895 -0.05200
H 	H 	0.85300 0.17090 0.03660 0.05200
C 	C 	0.80842 0.11914 0.01817 -0.12900
C 	C 	0.79429 0.05839 0.02066 0.01700
H 	H 	0.77060 0.05050 0.00610 0.04400
C 	C 	0.81587 0.00976 0.04497 -0.04900
C 	C 	0.85140 0.02057 0.06711 -0.09100
H 	H 	0.86550 0.98760 0.08410 0.09900
C 	C 	0.78534 0.17326 0.99290 0.50000
C 	C 	0.80154 0.94362 0.04682 0.30300
C 	C 	0.12596 0.17762 0.20700 0.11700
C 	C 	0.15082 0.17841 0.15315 -0.06100
H 	H 	0.14570 0.15810 0.11150 0.07400
C 	C 	0.18341 0.20984 0.16201 -0.11300
C 	C 	0.19064 0.24050 0.22435 0.02600
H 	H 	0.21230 0.26260 0.22970 0.02600
C 	C 	0.16631 0.23859 0.27774 -0.06100
C 	C 	0.13339 0.20720 0.26899 -0.07900
H 	H 	0.11650 0.20610 0.30490 0.08300
C 	C 	0.17440 0.27150 0.34540 0.33000
C 	C 	0.20943 0.21372 0.10300 0.46300
C 	C 	0.53455 0.85240 0.77870 -0.04500
C 	C 	0.51739 0.79940 0.76420 -0.03100
H 	H 	0.52880 0.76120 0.77310 0.05900
C 	C 	0.51796 0.90520 0.76370 -0.03200
H 	H 	0.52980 0.94330 0.77110 0.03600
C 	C 	0.57261 0.84800 0.80850 0.22900
C 	C 	0.62031 0.90765 0.86960 0.12000
C 	C 	0.64104 0.85714 0.89170 -0.08100
H 	H 	0.63360 0.81620 0.88220 0.09500
C 	C 	0.67314 0.86785 0.92808 -0.09400
C 	C 	0.68469 0.92829 0.94278 0.00700
H 	H 	0.70610 0.93480 0.96740 0.04600
C 	C 	0.66402 0.97940 0.92046 -0.05500
C 	C 	0.63189 0.96881 0.88330 -0.09700
H 	H 	0.61820 0.00280 0.86770 0.07600
C 	C 	0.69510 0.81126 0.95056 0.45300
C 	C 	0.67500 0.04575 0.93637 0.32500
N 	N 	0.09178 0.14741 0.19514 -0.23100
H 	H 	0.09070 0.10520 0.19070 0.12500
N 	N 	0.90155 0.09652 0.08272 -0.22700
H 	H 	0.91070 0.13200 0.06410 0.11700
N 	N 	0.58659 0.90019 0.83450 -0.23300
H 	H 	0.57310 0.93530 0.82940 0.11600
O 	O 	0.79815 0.22720 0.99700 -0.53800
O 	O 	0.75492 0.16067 0.96883 -0.52100
O 	O 	0.77124 0.93293 0.02045 -0.40900
O 	O 	0.82019 0.90077 0.07454 -0.41000
O 	O 	0.15110 0.27338 0.39156 -0.40400
O 	O 	0.20527 0.29573 0.35371 -0.41200
O 	O 	0.23717 0.24686 0.11347 -0.52600
O 	O 	0.20190 0.18412 0.04886 -0.47200
O 	O 	0.06086 0.23750 0.20330 -0.22500
O 	O 	0.91640 0.01519 0.15340 -0.23200
O 	O 	0.69940 0.05573 0.97951 -0.42500
O 	O 	0.65924 0.08984 0.90733 -0.41600
O 	O 	0.72073 0.82043 0.99212 -0.52900
O 	O 	0.68631 0.75900 0.92639 -0.47400
O 	O 	0.58825 0.79821 0.80750 -0.24100
Tb	Tb	0.77147 0.82431 0.06114 1.79300
Tb	Tb	0.80680 0.32968 0.03035 1.70500
C 	C 	0.52717 0.64770 0.17000 -0.03400
C 	C 	0.49824 0.68490 0.15130 -0.03400
H 	H 	0.50090 0.72850 0.15020 0.06400
C 	C 	0.46510 0.65810 0.13430 -0.02400
H 	H 	0.44590 0.68380 0.12090 0.03900
C 	C 	0.46034 0.59494 0.13690 -0.04500
C 	C 	0.48885 0.55750 0.15670 -0.02800
H 	H 	0.48570 0.51410 0.15960 0.05600
C 	C 	0.52251 0.58390 0.17260 -0.03300
H 	H 	0.54190 0.55810 0.18490 0.04600
C 	C 	0.42385 0.56444 0.12510 0.22300
C 	C 	0.56180 0.68110 0.19100 0.22500
C 	C 	0.36544 0.58122 0.06353 0.11100
C 	C 	0.34365 0.63029 0.03895 -0.05200
H 	H 	0.35300 0.67090 0.03660 0.05100
C 	C 	0.30842 0.61914 0.01817 -0.13100
C 	C 	0.29429 0.55839 0.02066 0.01700
H 	H 	0.27060 0.55050 0.00610 0.04300
C 	C 	0.31587 0.50976 0.04497 -0.04900
C 	C 	0.35140 0.52057 0.06711 -0.09300
H 	H 	0.36550 0.48760 0.08410 0.10000
C 	C 	0.28534 0.67326 0.99290 0.50100
C 	C 	0.30154 0.44362 0.04682 0.30400
C 	C 	0.62596 0.67762 0.20700 0.11700
C 	C 	0.65082 0.67841 0.15315 -0.06100
H 	H 	0.64570 0.65810 0.11150 0.07400
C 	C 	0.68341 0.70984 0.16201 -0.11300
C 	C 	0.69064 0.74050 0.22435 0.02600
H 	H 	0.71230 0.76260 0.22970 0.02600
C 	C 	0.66631 0.73859 0.27774 -0.06100
C 	C 	0.63339 0.70720 0.26899 -0.07900
H 	H 	0.61650 0.70610 0.30490 0.08300
C 	C 	0.67440 0.77150 0.34540 0.33000
C 	C 	0.70943 0.71372 0.10300 0.46300
C 	C 	0.03455 0.35240 0.77870 -0.04500
C 	C 	0.01739 0.29940 0.76420 -0.03100
H 	H 	0.02880 0.26120 0.77310 0.05900
C 	C 	0.01796 0.40520 0.76370 -0.03200
H 	H 	0.02980 0.44330 0.77110 0.03600
C 	C 	0.07261 0.34800 0.80850 0.22900
C 	C 	0.12031 0.40765 0.86960 0.12100
C 	C 	0.14104 0.35714 0.89170 -0.08100
H 	H 	0.13360 0.31620 0.88220 0.09500
C 	C 	0.17314 0.36785 0.92808 -0.09400
C 	C 	0.18469 0.42829 0.94278 0.00700
H 	H 	0.20610 0.43480 0.96740 0.04600
C 	C 	0.16402 0.47940 0.92046 -0.05600
C 	C 	0.13189 0.46881 0.88330 -0.09900
H 	H 	0.11820 0.50280 0.86770 0.07700
C 	C 	0.19510 0.31126 0.95056 0.45300
C 	C 	0.17500 0.54575 0.93637 0.32600
N 	N 	0.59178 0.64741 0.19514 -0.23100
H 	H 	0.59070 0.60520 0.19070 0.12500
N 	N 	0.40155 0.59652 0.08272 -0.22700
H 	H 	0.41070 0.63200 0.06410 0.11700
N 	N 	0.08659 0.40019 0.83450 -0.23300
H 	H 	0.07310 0.43530 0.82940 0.11600
O 	O 	0.29815 0.72720 0.99700 -0.53800
O 	O 	0.25492 0.66067 0.96883 -0.52100
O 	O 	0.27124 0.43293 0.02045 -0.40800
O 	O 	0.32019 0.40077 0.07454 -0.41000
O 	O 	0.65110 0.77338 0.39156 -0.40400
O 	O 	0.70527 0.79573 0.35371 -0.41200
O 	O 	0.73717 0.74686 0.11347 -0.52600
O 	O 	0.70190 0.68412 0.04886 -0.47300
O 	O 	0.56086 0.73750 0.20330 -0.22500
O 	O 	0.41640 0.51519 0.15340 -0.23300
O 	O 	0.19940 0.55573 0.97951 -0.42500
O 	O 	0.15924 0.58984 0.90733 -0.41600
O 	O 	0.22073 0.32043 0.99212 -0.53000
O 	O 	0.18631 0.25900 0.92639 -0.47400
O 	O 	0.08825 0.29821 0.80750 -0.24100
Tb	Tb	0.27147 0.32431 0.06114 1.79500
Tb	Tb	0.30680 0.82968 0.03035 1.70300
C 	C 	0.02717 0.85230 0.67000 -0.03400
C 	C 	0.99824 0.81510 0.65130 -0.03400
H 	H 	0.00090 0.77150 0.65020 0.06400
C 	C 	0.96510 0.84190 0.63430 -0.02400
H 	H 	0.94590 0.81620 0.62090 0.03900
C 	C 	0.96034 0.90506 0.63690 -0.04500
C 	C 	0.98885 0.94250 0.65670 -0.02800
H 	H 	0.98570 0.98590 0.65960 0.05600
C 	C 	0.02251 0.91610 0.67260 -0.03300
H 	H 	0.04190 0.94190 0.68490 0.04600
C 	C 	0.92385 0.93556 0.62510 0.22300
C 	C 	0.06180 0.81890 0.69100 0.22500
C 	C 	0.86544 0.91878 0.56353 0.11100
C 	C 	0.84365 0.86971 0.53895 -0.05200
H 	H 	0.85300 0.82910 0.53660 0.05200
C 	C 	0.80842 0.88086 0.51817 -0.13000
C 	C 	0.79429 0.94161 0.52066 0.01700
H 	H 	0.77060 0.94950 0.50610 0.04300
C 	C 	0.81587 0.99024 0.54497 -0.05000
C 	C 	0.85140 0.97943 0.56711 -0.09200
H 	H 	0.86550 0.01240 0.58410 0.10000
C 	C 	0.78534 0.82674 0.49290 0.50100
C 	C 	0.80154 0.05638 0.54682 0.30400
C 	C 	0.12596 0.82238 0.70700 0.11700
C 	C 	0.15082 0.82159 0.65315 -0.06100
H 	H 	0.14570 0.84190 0.61150 0.07400
C 	C 	0.18341 0.79016 0.66201 -0.11300
C 	C 	0.19064 0.75950 0.72435 0.02600
H 	H 	0.21230 0.73740 0.72970 0.02600
C 	C 	0.16631 0.76141 0.77774 -0.06100
C 	C 	0.13339 0.79280 0.76899 -0.07900
H 	H 	0.11650 0.79390 0.80490 0.08300
C 	C 	0.17440 0.72850 0.84540 0.33000
C 	C 	0.20943 0.78628 0.60300 0.46400
C 	C 	0.53455 0.14760 0.27870 -0.04500
C 	C 	0.51739 0.20060 0.26420 -0.03100
H 	H 	0.52880 0.23880 0.27310 0.05900
C 	C 	0.51796 0.09480 0.26370 -0.03200
H 	H 	0.52980 0.05670 0.27110 0.03500
C 	C 	0.57261 0.15200 0.30850 0.22900
C 	C 	0.62031 0.09235 0.36960 0.12000
C 	C 	0.64104 0.14286 0.39170 -0.08100
H 	H 	0.63360 0.18380 0.38220 0.09500
C 	C 	0.67314 0.13215 0.42808 -0.09400
C 	C 	0.68469 0.07171 0.44278 0.00700
H 	H 	0.70610 0.06520 0.46740 0.04500
C 	C 	0.66402 0.02060 0.42046 -0.05600
C 	C 	0.63189 0.03119 0.38330 -0.09800
H 	H 	0.61820 0.99720 0.36770 0.07600
C 	C 	0.69510 0.18874 0.45056 0.45300
C 	C 	0.67500 0.95425 0.43637 0.32500
N 	N 	0.09178 0.85259 0.69514 -0.23100
H 	H 	0.09070 0.89480 0.69070 0.12500
N 	N 	0.90155 0.90348 0.58272 -0.22700
H 	H 	0.91070 0.86800 0.56410 0.11600
N 	N 	0.58659 0.09981 0.33450 -0.23300
H 	H 	0.57310 0.06470 0.32940 0.11600
O 	O 	0.79815 0.77280 0.49700 -0.53800
O 	O 	0.75492 0.83933 0.46883 -0.52100
O 	O 	0.77124 0.06707 0.52045 -0.40800
O 	O 	0.82019 0.09923 0.57454 -0.41100
O 	O 	0.15110 0.72662 0.89156 -0.40400
O 	O 	0.20527 0.70427 0.85371 -0.41200
O 	O 	0.23717 0.75314 0.61347 -0.52600
O 	O 	0.20190 0.81588 0.54886 -0.47200
O 	O 	0.06086 0.76250 0.70330 -0.22500
O 	O 	0.91640 0.98481 0.65340 -0.23300
O 	O 	0.69940 0.94427 0.47951 -0.42500
O 	O 	0.65924 0.91016 0.40733 -0.41600
O 	O 	0.72073 0.17957 0.49212 -0.53000
O 	O 	0.68631 0.24100 0.42639 -0.47400
O 	O 	0.58825 0.20179 0.30750 -0.24100
Tb	Tb	0.77147 0.17569 0.56114 1.79400
Tb	Tb	0.80680 0.67032 0.53035 1.70400
C 	C 	0.52717 0.35230 0.67000 -0.03400
C 	C 	0.49824 0.31510 0.65130 -0.03400
H 	H 	0.50090 0.27150 0.65020 0.06400
C 	C 	0.46510 0.34190 0.63430 -0.02400
H 	H 	0.44590 0.31620 0.62090 0.03900
C 	C 	0.46034 0.40506 0.63690 -0.04500
C 	C 	0.48885 0.44250 0.65670 -0.02800
H 	H 	0.48570 0.48590 0.65960 0.05600
C 	C 	0.52251 0.41610 0.67260 -0.03300
H 	H 	0.54190 0.44190 0.68490 0.04600
C 	C 	0.42385 0.43556 0.62510 0.22300
C 	C 	0.56180 0.31890 0.69100 0.22500
C 	C 	0.36544 0.41878 0.56353 0.11100
C 	C 	0.34365 0.36971 0.53895 -0.05200
H 	H 	0.35300 0.32910 0.53660 0.05200
C 	C 	0.30842 0.38086 0.51817 -0.13000
C 	C 	0.29429 0.44161 0.52066 0.01700
H 	H 	0.27060 0.44950 0.50610 0.04300
C 	C 	0.31587 0.49024 0.54497 -0.04900
C 	C 	0.35140 0.47943 0.56711 -0.09300
H 	H 	0.36550 0.51240 0.58410 0.10000
C 	C 	0.28534 0.32674 0.49290 0.50100
C 	C 	0.30154 0.55638 0.54682 0.30400
C 	C 	0.62596 0.32238 0.70700 0.11700
C 	C 	0.65082 0.32159 0.65315 -0.06100
H 	H 	0.64570 0.34190 0.61150 0.07400
C 	C 	0.68341 0.29016 0.66201 -0.11300
C 	C 	0.69064 0.25950 0.72435 0.02600
H 	H 	0.71230 0.23740 0.72970 0.02600
C 	C 	0.66631 0.26141 0.77774 -0.06100
C 	C 	0.63339 0.29280 0.76899 -0.07900
H 	H 	0.61650 0.29390 0.80490 0.08300
C 	C 	0.67440 0.22850 0.84540 0.33000
C 	C 	0.70943 0.28628 0.60300 0.46400
C 	C 	0.03455 0.64760 0.27870 -0.04600
C 	C 	0.01739 0.70060 0.26420 -0.03100
H 	H 	0.02880 0.73880 0.27310 0.05900
C 	C 	0.01796 0.59480 0.26370 -0.03200
H 	H 	0.02980 0.55670 0.27110 0.03500
C 	C 	0.07261 0.65200 0.30850 0.22900
C 	C 	0.12031 0.59235 0.36960 0.12100
C 	C 	0.14104 0.64286 0.39170 -0.08100
H 	H 	0.13360 0.68380 0.38220 0.09500
C 	C 	0.17314 0.63215 0.42808 -0.09400
C 	C 	0.18469 0.57171 0.44278 0.00700
H 	H 	0.20610 0.56520 0.46740 0.04600
C 	C 	0.16402 0.52060 0.42046 -0.05600
C 	C 	0.13189 0.53119 0.38330 -0.09900
H 	H 	0.11820 0.49720 0.36770 0.07700
C 	C 	0.19510 0.68874 0.45056 0.45300
C 	C 	0.17500 0.45425 0.43637 0.32600
N 	N 	0.59178 0.35259 0.69514 -0.23100
H 	H 	0.59070 0.39480 0.69070 0.12500
N 	N 	0.40155 0.40348 0.58272 -0.22700
H 	H 	0.41070 0.36800 0.56410 0.11700
N 	N 	0.08659 0.59981 0.33450 -0.23300
H 	H 	0.07310 0.56470 0.32940 0.11600
O 	O 	0.29815 0.27280 0.49700 -0.53800
O 	O 	0.25492 0.33933 0.46883 -0.52100
O 	O 	0.27124 0.56707 0.52045 -0.40800
O 	O 	0.32019 0.59923 0.57454 -0.41000
O 	O 	0.65110 0.22662 0.89156 -0.40400
O 	O 	0.70527 0.20427 0.85371 -0.41200
O 	O 	0.73717 0.25314 0.61347 -0.52600
O 	O 	0.70190 0.31588 0.54886 -0.47300
O 	O 	0.56086 0.26250 0.70330 -0.22500
O 	O 	0.41640 0.48481 0.65340 -0.23300
O 	O 	0.19940 0.44427 0.47951 -0.42500
O 	O 	0.15924 0.41016 0.40733 -0.41600
O 	O 	0.22073 0.67957 0.49212 -0.53000
O 	O 	0.18631 0.74100 0.42639 -0.47400
O 	O 	0.08825 0.70179 0.30750 -0.24100
Tb	Tb	0.27147 0.67569 0.56114 1.79400
Tb	Tb	0.30680 0.17032 0.53035 1.70400
C 	C 	0.97283 0.85230 0.83000 -0.03400
C 	C 	0.00176 0.81510 0.84870 -0.03400
H 	H 	0.99910 0.77150 0.84980 0.06400
C 	C 	0.03490 0.84190 0.86570 -0.02400
H 	H 	0.05410 0.81620 0.87910 0.03900
C 	C 	0.03966 0.90506 0.86310 -0.04500
C 	C 	0.01115 0.94250 0.84330 -0.02800
H 	H 	0.01430 0.98590 0.84040 0.05600
C 	C 	0.97749 0.91610 0.82740 -0.03300
H 	H 	0.95810 0.94190 0.81510 0.04600
C 	C 	0.07615 0.93556 0.87490 0.22300
C 	C 	0.93820 0.81890 0.80900 0.22500
C 	C 	0.13456 0.91878 0.93647 0.11100
C 	C 	0.15635 0.86971 0.96105 -0.05200
H 	H 	0.14700 0.82910 0.96340 0.05200
C 	C 	0.19158 0.88086 0.98183 -0.12900
C 	C 	0.20571 0.94161 0.97934 0.01700
H 	H 	0.22940 0.94950 0.99390 0.04400
C 	C 	0.18413 0.99024 0.95503 -0.04900
C 	C 	0.14860 0.97943 0.93289 -0.09100
H 	H 	0.13450 0.01240 0.91590 0.09900
C 	C 	0.21466 0.82674 0.00710 0.50000
C 	C 	0.19846 0.05638 0.95318 0.30300
C 	C 	0.87404 0.82238 0.79300 0.11700
C 	C 	0.84918 0.82159 0.84685 -0.06100
H 	H 	0.85430 0.84190 0.88850 0.07400
C 	C 	0.81659 0.79016 0.83799 -0.11300
C 	C 	0.80936 0.75950 0.77565 0.02600
H 	H 	0.78770 0.73740 0.77030 0.02600
C 	C 	0.83369 0.76141 0.72226 -0.06100
C 	C 	0.86661 0.79280 0.73101 -0.07900
H 	H 	0.88350 0.79390 0.69510 0.08300
C 	C 	0.82560 0.72850 0.65460 0.33000
C 	C 	0.79057 0.78628 0.89700 0.46300
C 	C 	0.46545 0.14760 0.22130 -0.04500
C 	C 	0.48261 0.20060 0.23580 -0.03100
H 	H 	0.47120 0.23880 0.22690 0.05900
C 	C 	0.48204 0.09480 0.23630 -0.03200
H 	H 	0.47020 0.05670 0.22890 0.03600
C 	C 	0.42739 0.15200 0.19150 0.22900
C 	C 	0.37969 0.09235 0.13040 0.12000
C 	C 	0.35896 0.14286 0.10830 -0.08100
H 	H 	0.36640 0.18380 0.11780 0.09500
C 	C 	0.32686 0.13215 0.07192 -0.09400
C 	C 	0.31531 0.07171 0.05722 0.00700
H 	H 	0.29390 0.06520 0.03260 0.04600
C 	C 	0.33598 0.02060 0.07954 -0.05500
C 	C 	0.36811 0.03119 0.11670 -0.09700
H 	H 	0.38180 0.99720 0.13230 0.07600
C 	C 	0.30490 0.18874 0.04944 0.45300
C 	C 	0.32500 0.95425 0.06363 0.32500
N 	N 	0.90822 0.85259 0.80486 -0.23100
H 	H 	0.90930 0.89480 0.80930 0.12500
N 	N 	0.09845 0.90348 0.91728 -0.22700
H 	H 	0.08930 0.86800 0.93590 0.11700
N 	N 	0.41341 0.09981 0.16550 -0.23300
H 	H 	0.42690 0.06470 0.17060 0.11600
O 	O 	0.20185 0.77280 0.00300 -0.53800
O 	O 	0.24508 0.83933 0.03117 -0.52100
O 	O 	0.22876 0.06707 0.97955 -0.40900
O 	O 	0.17981 0.09923 0.92546 -0.41000
O 	O 	0.84890 0.72662 0.60844 -0.40400
O 	O 	0.79473 0.70427 0.64629 -0.41200
O 	O 	0.76283 0.75314 0.88653 -0.52600
O 	O 	0.79810 0.81588 0.95114 -0.47200
O 	O 	0.93914 0.76250 0.79670 -0.22500
O 	O 	0.08360 0.98481 0.84660 -0.23200
O 	O 	0.30060 0.94427 0.02049 -0.42500
O 	O 	0.34076 0.91016 0.09267 -0.41600
O 	O 	0.27927 0.17957 0.00788 -0.52900
O 	O 	0.31369 0.24100 0.07361 -0.47400
O 	O 	0.41175 0.20179 0.19250 -0.24100
Tb	Tb	0.22853 0.17569 0.93886 1.79300
Tb	Tb	0.19320 0.67032 0.96965 1.70500
C 	C 	0.47283 0.35230 0.83000 -0.03400
C 	C 	0.50176 0.31510 0.84870 -0.03400
H 	H 	0.49910 0.27150 0.84980 0.06400
C 	C 	0.53490 0.34190 0.86570 -0.02400
H 	H 	0.55410 0.31620 0.87910 0.03900
C 	C 	0.53966 0.40506 0.86310 -0.04500
C 	C 	0.51115 0.44250 0.84330 -0.02800
H 	H 	0.51430 0.48590 0.84040 0.05600
C 	C 	0.47749 0.41610 0.82740 -0.03300
H 	H 	0.45810 0.44190 0.81510 0.04600
C 	C 	0.57615 0.43556 0.87490 0.22300
C 	C 	0.43820 0.31890 0.80900 0.22500
C 	C 	0.63456 0.41878 0.93647 0.11100
C 	C 	0.65635 0.36971 0.96105 -0.05200
H 	H 	0.64700 0.32910 0.96340 0.05100
C 	C 	0.69158 0.38086 0.98183 -0.13100
C 	C 	0.70571 0.44161 0.97934 0.01700
H 	H 	0.72940 0.44950 0.99390 0.04300
C 	C 	0.68413 0.49024 0.95503 -0.04900
C 	C 	0.64860 0.47943 0.93289 -0.09300
H 	H 	0.63450 0.51240 0.91590 0.10000
C 	C 	0.71466 0.32674 0.00710 0.50100
C 	C 	0.69846 0.55638 0.95318 0.30400
C 	C 	0.37404 0.32238 0.79300 0.11700
C 	C 	0.34918 0.32159 0.84685 -0.06100
H 	H 	0.35430 0.34190 0.88850 0.07400
C 	C 	0.31659 0.29016 0.83799 -0.11300
C 	C 	0.30936 0.25950 0.77565 0.02600
H 	H 	0.28770 0.23740 0.77030 0.02600
C 	C 	0.33369 0.26141 0.72226 -0.06100
C 	C 	0.36661 0.29280 0.73101 -0.07900
H 	H 	0.38350 0.29390 0.69510 0.08300
C 	C 	0.32560 0.22850 0.65460 0.33000
C 	C 	0.29057 0.28628 0.89700 0.46300
C 	C 	0.96545 0.64760 0.22130 -0.04500
C 	C 	0.98261 0.70060 0.23580 -0.03100
H 	H 	0.97120 0.73880 0.22690 0.05900
C 	C 	0.98204 0.59480 0.23630 -0.03200
H 	H 	0.97020 0.55670 0.22890 0.03600
C 	C 	0.92739 0.65200 0.19150 0.22900
C 	C 	0.87969 0.59235 0.13040 0.12100
C 	C 	0.85896 0.64286 0.10830 -0.08100
H 	H 	0.86640 0.68380 0.11780 0.09500
C 	C 	0.82686 0.63215 0.07192 -0.09400
C 	C 	0.81531 0.57171 0.05722 0.00700
H 	H 	0.79390 0.56520 0.03260 0.04600
C 	C 	0.83598 0.52060 0.07954 -0.05600
C 	C 	0.86811 0.53119 0.11670 -0.09900
H 	H 	0.88180 0.49720 0.13230 0.07700
C 	C 	0.80490 0.68874 0.04944 0.45300
C 	C 	0.82500 0.45425 0.06363 0.32600
N 	N 	0.40822 0.35259 0.80486 -0.23100
H 	H 	0.40930 0.39480 0.80930 0.12500
N 	N 	0.59845 0.40348 0.91728 -0.22700
H 	H 	0.58930 0.36800 0.93590 0.11700
N 	N 	0.91341 0.59981 0.16550 -0.23300
H 	H 	0.92690 0.56470 0.17060 0.11600
O 	O 	0.70185 0.27280 0.00300 -0.53800
O 	O 	0.74508 0.33933 0.03117 -0.52100
O 	O 	0.72876 0.56707 0.97955 -0.40800
O 	O 	0.67981 0.59923 0.92546 -0.41000
O 	O 	0.34890 0.22662 0.60844 -0.40400
O 	O 	0.29473 0.20427 0.64629 -0.41200
O 	O 	0.26283 0.25314 0.88653 -0.52600
O 	O 	0.29810 0.31588 0.95114 -0.47300
O 	O 	0.43914 0.26250 0.79670 -0.22500
O 	O 	0.58360 0.48481 0.84660 -0.23300
O 	O 	0.80060 0.44427 0.02049 -0.42500
O 	O 	0.84076 0.41016 0.09267 -0.41600
O 	O 	0.77927 0.67957 0.00788 -0.53000
O 	O 	0.81369 0.74100 0.07361 -0.47400
O 	O 	0.91175 0.70179 0.19250 -0.24100
Tb	Tb	0.72853 0.67569 0.93886 1.79500
Tb	Tb	0.69320 0.17032 0.96965 1.70300
