data_crystal

_cell_length_a 10.84710
_cell_length_b 6.33890
_cell_length_c 16.88390
_cell_angle_alpha 90.00000
_cell_angle_beta  105.59200
_cell_angle_gamma 90.00000

_symmetry_space_group_name_	'P 1'
_symmetry_space_group_name_H-M	'P 1'

loop_
_symmetry_equiv_pos_as_xyz
  x,y,z

loop_
_atom_site_label
_atom_site_type_symbol
_atom_site_fract_x
_atom_site_fract_y
_atom_site_fract_z
_atom_site_charge
Co	Co	0.03419 0.50306 0.41605 1.07900
O 	O 	0.94460 0.68970 0.48330 -0.93500
O 	O 	0.85990 0.37400 0.34520 -0.41900
C 	C 	0.67790 0.25800 0.19880 -0.05200
H 	H 	0.71510 0.39040 0.19970 0.05700
C 	C 	0.83100 0.18580 0.33600 0.38000
C 	C 	0.53660 0.34680 0.06190 0.05400
C 	C 	0.41360 0.43210 0.04080 -0.12700
H 	H 	0.35480 0.38510 0.06800 0.05400
C 	C 	0.57750 0.19970 0.13190 0.04700
C 	C 	0.66660 0.92340 0.26060 -0.01000
H 	H 	0.69780 0.82670 0.30260 0.04400
C 	C 	0.72320 0.11940 0.26450 -0.11500
C 	C 	0.56490 0.86820 0.19570 0.07100
H 	H 	0.52650 0.73680 0.19510 0.01300
C 	C 	0.52000 0.00560 0.13210 -0.22500
H 	H 	0.45040 0.96810 0.08880 0.13100
O 	O 	0.88490 0.03720 0.38190 -0.41800
C 	C 	0.37700 0.58310 0.98110 -0.02300
C 	C 	0.24280 0.67210 0.96440 0.36400
O 	O 	0.15630 0.53340 0.95230 -0.47000
O 	O 	0.22450 0.86180 0.96580 -0.43700
H 	H 	0.88000 0.68400 0.46100 0.49500
Co	Co	0.96581 0.00306 0.08395 1.17300
O 	O 	0.05540 0.18970 0.01670 -1.21100
O 	O 	0.14010 0.87400 0.15480 -0.51000
C 	C 	0.32210 0.75800 0.30120 -0.03800
H 	H 	0.28490 0.89040 0.30030 0.04300
C 	C 	0.16900 0.68580 0.16400 0.38700
C 	C 	0.46340 0.84680 0.43810 -0.02600
C 	C 	0.58640 0.93210 0.45920 0.07400
H 	H 	0.64520 0.88510 0.43200 0.01300
C 	C 	0.42250 0.69970 0.36810 0.02600
C 	C 	0.33340 0.42340 0.23940 -0.00100
H 	H 	0.30220 0.32670 0.19740 0.01300
C 	C 	0.27680 0.61940 0.23550 -0.12400
C 	C 	0.43510 0.36820 0.30430 -0.05200
H 	H 	0.47350 0.23680 0.30490 0.04400
C 	C 	0.48000 0.50560 0.36790 -0.07100
H 	H 	0.54960 0.46810 0.41120 0.06600
O 	O 	0.11510 0.53720 0.11810 -0.51000
C 	C 	0.62300 0.08310 0.51890 -0.18500
C 	C 	0.75720 0.17210 0.53560 0.40300
O 	O 	0.84370 0.03340 0.54770 -0.43000
O 	O 	0.77550 0.36180 0.53420 -0.43500
H 	H 	0.12000 0.18400 0.03900 0.56900
Co	Co	0.96581 0.49694 0.58395 1.20100
O 	O 	0.05540 0.31030 0.51670 -1.18200
O 	O 	0.14010 0.62600 0.65480 -0.52400
C 	C 	0.32210 0.74200 0.80120 0.00600
H 	H 	0.28490 0.60960 0.80030 0.01900
C 	C 	0.16900 0.81420 0.66400 0.39600
C 	C 	0.46340 0.65320 0.93810 0.00700
C 	C 	0.58640 0.56790 0.95920 0.07100
H 	H 	0.64520 0.61490 0.93200 0.01800
C 	C 	0.42250 0.80030 0.86810 -0.04700
C 	C 	0.33340 0.07660 0.73940 0.03100
H 	H 	0.30220 0.17330 0.69740 0.00100
C 	C 	0.27680 0.88060 0.73550 -0.13000
C 	C 	0.43510 0.13180 0.80430 -0.18700
H 	H 	0.47350 0.26320 0.80490 0.10000
C 	C 	0.48000 0.99440 0.86790 0.11400
H 	H 	0.54960 0.03190 0.91120 -0.00700
O 	O 	0.11510 0.96280 0.61810 -0.48500
C 	C 	0.62300 0.41690 0.01890 -0.18300
C 	C 	0.75720 0.32790 0.03560 0.39900
O 	O 	0.84370 0.46660 0.04770 -0.42600
O 	O 	0.77550 0.13820 0.03420 -0.46200
H 	H 	0.12000 0.31600 0.53900 0.57000
Co	Co	0.03419 0.99694 0.91605 1.10100
O 	O 	0.94460 0.81030 0.98330 -0.89900
O 	O 	0.85990 0.12600 0.84520 -0.42900
C 	C 	0.67790 0.24200 0.69880 -0.00200
H 	H 	0.71510 0.10960 0.69970 0.03200
C 	C 	0.83100 0.31420 0.83600 0.38900
C 	C 	0.53660 0.15320 0.56190 0.09000
C 	C 	0.41360 0.06790 0.54080 -0.13600
H 	H 	0.35480 0.11490 0.56800 0.06000
C 	C 	0.57750 0.30030 0.63190 -0.03500
C 	C 	0.66660 0.57660 0.76060 0.02500
H 	H 	0.69780 0.67330 0.80260 0.03100
C 	C 	0.72320 0.38060 0.76450 -0.12000
C 	C 	0.56490 0.63180 0.69570 -0.07900
H 	H 	0.52650 0.76320 0.69510 0.07400
C 	C 	0.52000 0.49440 0.63210 -0.01900
H 	H 	0.45040 0.53190 0.58880 0.04800
O 	O 	0.88490 0.46280 0.88190 -0.38600
C 	C 	0.37700 0.91690 0.48110 -0.01900
C 	C 	0.24280 0.82790 0.46440 0.36000
O 	O 	0.15630 0.96660 0.45230 -0.46400
O 	O 	0.22450 0.63820 0.46580 -0.46000
H 	H 	0.88000 0.81600 0.96100 0.49300
Co	Co	0.00000 0.00000 0.50000 1.13600
Co	Co	-0.00000 0.50000 -0.00000 1.13300
