data_crystal

_cell_length_a 30.53010
_cell_length_b 15.90300
_cell_length_c 29.96860
_cell_angle_alpha 90.00000
_cell_angle_beta  107.98600
_cell_angle_gamma 90.00000

_symmetry_space_group_name_	'P 1'
_symmetry_space_group_name_H-M	'P 1'

loop_
_symmetry_equiv_pos_as_xyz
  x,y,z

loop_
_atom_site_label
_atom_site_type_symbol
_atom_site_fract_x
_atom_site_fract_y
_atom_site_fract_z
_atom_site_charge
U 	U 	0.22628 0.73009 0.77263 -0.01000
U 	U 	0.23849 0.67059 0.57186 0.01900
U 	U 	0.42283 0.66355 0.76361 0.01800
U 	U 	0.47956 0.97535 0.57560 0.01600
O 	O 	0.14610 0.77360 0.72070 -0.19200
O 	O 	0.18560 0.68450 0.69310 -0.18600
O 	O 	0.03630 0.60300 0.49380 -0.17800
O 	O 	0.04330 0.52200 0.55580 -0.18400
O 	O 	0.16620 0.60940 0.57400 -0.17200
O 	O 	0.22760 0.56810 0.63020 -0.15600
O 	O 	0.04900 0.62110 0.70710 -0.39700
O 	O 	0.01090 0.57600 0.63530 -0.20600
O 	O 	0.29310 0.75370 0.55250 -0.16600
O 	O 	0.31550 0.75930 0.48860 -0.17100
O 	O 	0.44680 0.73260 0.70600 -0.17600
O 	O 	0.50940 0.71630 0.68520 -0.17300
O 	O 	0.31020 0.62310 0.62520 -0.15600
O 	O 	0.36750 0.62100 0.69050 -0.15600
O 	O 	0.43310 0.97830 0.62920 -0.15900
O 	O 	0.41000 0.89340 0.57030 -0.17700
O 	O 	0.41470 0.61100 0.83750 -0.17700
O 	O 	0.35960 0.57840 0.77330 -0.15700
O 	O 	0.31140 0.48840 0.98520 -0.17700
O 	O 	0.35430 0.59920 0.98890 -0.18400
O 	O 	0.30380 0.68870 0.81620 -0.18900
O 	O 	0.27410 0.77270 0.85580 -0.19400
O 	O 	0.47420 0.57780 0.00240 -0.21000
O 	O 	0.44630 0.52120 0.93970 -0.21200
C 	C 	0.09800 0.65460 0.61480 0.05500
C 	C 	0.11310 0.72940 0.64000 -0.07000
C 	C 	0.09890 0.80740 0.62130 0.02900
H 	H 	0.10750 0.85650 0.64000 0.05200
C 	C 	0.07170 0.81310 0.57450 -0.07600
H 	H 	0.06230 0.86690 0.56130 0.09800
C 	C 	0.05840 0.74350 0.54760 0.03000
H 	H 	0.04210 0.74880 0.51520 0.05200
C 	C 	0.06890 0.66370 0.56800 -0.06000
C 	C 	0.14910 0.72740 0.68700 0.27300
C 	C 	0.04920 0.59080 0.53770 0.29400
C 	C 	0.11270 0.57300 0.63860 0.07700
C 	C 	0.15410 0.53510 0.63840 -0.06800
C 	C 	0.17050 0.46330 0.66710 0.02300
H 	H 	0.19910 0.43880 0.66780 0.06400
C 	C 	0.14560 0.42890 0.69360 -0.07800
H 	H 	0.15580 0.37900 0.71120 0.08200
C 	C 	0.10570 0.46810 0.69430 0.04400
H 	H 	0.08860 0.44560 0.71320 0.05100
C 	C 	0.08960 0.54070 0.66750 -0.10000
C 	C 	0.18340 0.57160 0.61300 0.27700
C 	C 	0.04650 0.58220 0.67000 0.38100
C 	C 	0.39330 0.73300 0.60500 0.05900
C 	C 	0.37100 0.71250 0.55800 -0.05100
C 	C 	0.39250 0.66390 0.53250 0.02400
H 	H 	0.37690 0.65080 0.50060 0.06000
C 	C 	0.43630 0.63470 0.55350 -0.06200
H 	H 	0.45090 0.60130 0.53600 0.08900
C 	C 	0.45890 0.65300 0.59880 0.01900
H 	H 	0.48900 0.63150 0.61300 0.07400
C 	C 	0.43810 0.70340 0.62500 -0.05500
C 	C 	0.32380 0.74400 0.53150 0.28500
C 	C 	0.46630 0.71880 0.67570 0.29200
C 	C 	0.37090 0.79030 0.63160 0.05800
C 	C 	0.34390 0.75590 0.65600 -0.04100
C 	C 	0.32210 0.80540 0.68160 0.00800
H 	H 	0.30420 0.78010 0.69890 0.06400
C 	C 	0.32730 0.89350 0.68120 -0.05600
H 	H 	0.31170 0.92870 0.69690 0.06800
C 	C 	0.35490 0.92760 0.65800 0.01600
H 	H 	0.35920 0.98680 0.65870 0.06600
C 	C 	0.37750 0.87700 0.63300 -0.05700
C 	C 	0.33970 0.66150 0.65760 0.27700
C 	C 	0.40850 0.91790 0.60980 0.28500
C 	C 	0.35040 0.56600 0.89000 0.03400
C 	C 	0.34890 0.53460 0.84560 -0.04100
C 	C 	0.32250 0.46670 0.82610 -0.00600
H 	H 	0.32110 0.44870 0.79540 0.07500
C 	C 	0.29790 0.42380 0.85080 -0.04300
H 	H 	0.27990 0.37610 0.83740 0.06900
C 	C 	0.29980 0.45140 0.89540 -0.00800
H 	H 	0.28380 0.42130 0.91290 0.07500
C 	C 	0.32470 0.52210 0.91440 -0.04600
C 	C 	0.37580 0.57730 0.81830 0.27300
C 	C 	0.32590 0.54720 0.96350 0.26400
C 	C 	0.37410 0.64750 0.90880 0.09900
C 	C 	0.35130 0.72350 0.89440 -0.08800
C 	C 	0.36930 0.79790 0.91430 0.05200
H 	H 	0.35250 0.84840 0.90450 0.04500
C 	C 	0.41240 0.80120 0.94920 -0.09300
H 	H 	0.42550 0.85340 0.96210 0.10600
C 	C 	0.43520 0.72690 0.96430 0.06900
H 	H 	0.46390 0.72760 0.98850 0.03900
C 	C 	0.41660 0.65110 0.94460 -0.12000
C 	C 	0.30650 0.72750 0.85440 0.29000
C 	C 	0.44320 0.58220 0.96470 0.33600
O 	O 	0.01200 0.77880 0.80160 -0.28600
O 	O 	0.95530 0.59940 0.70150 -0.40900
Dy	Dy	0.98533 0.66536 0.73986 1.00400
O 	O 	0.96860 0.52430 0.72200 -0.07500
U 	U 	0.72628 0.23009 0.77263 -0.01100
U 	U 	0.73849 0.17059 0.57186 0.01800
U 	U 	0.92283 0.16355 0.76361 0.01700
U 	U 	0.97956 0.47535 0.57560 0.01500
O 	O 	0.64610 0.27360 0.72070 -0.19200
O 	O 	0.68560 0.18450 0.69310 -0.18600
O 	O 	0.53630 0.10300 0.49380 -0.17900
O 	O 	0.54330 0.02200 0.55580 -0.18400
O 	O 	0.66620 0.10940 0.57400 -0.17200
O 	O 	0.72760 0.06810 0.63020 -0.15700
O 	O 	0.54900 0.12110 0.70710 -0.39700
O 	O 	0.51090 0.07600 0.63530 -0.20700
O 	O 	0.79310 0.25370 0.55250 -0.16600
O 	O 	0.81550 0.25930 0.48860 -0.17100
O 	O 	0.94680 0.23260 0.70600 -0.17600
O 	O 	0.00940 0.21630 0.68520 -0.17300
O 	O 	0.81020 0.12310 0.62520 -0.15600
O 	O 	0.86750 0.12100 0.69050 -0.15600
O 	O 	0.93310 0.47830 0.62920 -0.15900
O 	O 	0.91000 0.39340 0.57030 -0.17700
O 	O 	0.91470 0.11100 0.83750 -0.17700
O 	O 	0.85960 0.07840 0.77330 -0.15700
O 	O 	0.81140 0.98840 0.98520 -0.17700
O 	O 	0.85430 0.09920 0.98890 -0.18400
O 	O 	0.80380 0.18870 0.81620 -0.18900
O 	O 	0.77410 0.27270 0.85580 -0.19400
O 	O 	0.97420 0.07780 0.00240 -0.21000
O 	O 	0.94630 0.02120 0.93970 -0.21200
C 	C 	0.59800 0.15460 0.61480 0.05500
C 	C 	0.61310 0.22940 0.64000 -0.07000
C 	C 	0.59890 0.30740 0.62130 0.02900
H 	H 	0.60750 0.35650 0.64000 0.05200
C 	C 	0.57170 0.31310 0.57450 -0.07600
H 	H 	0.56230 0.36690 0.56130 0.09800
C 	C 	0.55840 0.24350 0.54760 0.03000
H 	H 	0.54210 0.24880 0.51520 0.05200
C 	C 	0.56890 0.16370 0.56800 -0.06000
C 	C 	0.64910 0.22740 0.68700 0.27300
C 	C 	0.54920 0.09080 0.53770 0.29400
C 	C 	0.61270 0.07300 0.63860 0.07700
C 	C 	0.65410 0.03510 0.63840 -0.06800
C 	C 	0.67050 0.96330 0.66710 0.02300
H 	H 	0.69910 0.93880 0.66780 0.06400
C 	C 	0.64560 0.92890 0.69360 -0.07800
H 	H 	0.65580 0.87900 0.71120 0.08200
C 	C 	0.60570 0.96810 0.69430 0.04400
H 	H 	0.58860 0.94560 0.71320 0.05100
C 	C 	0.58960 0.04070 0.66750 -0.10000
C 	C 	0.68340 0.07160 0.61300 0.27700
C 	C 	0.54650 0.08220 0.67000 0.38100
C 	C 	0.89330 0.23300 0.60500 0.05900
C 	C 	0.87100 0.21250 0.55800 -0.05100
C 	C 	0.89250 0.16390 0.53250 0.02400
H 	H 	0.87690 0.15080 0.50060 0.06000
C 	C 	0.93630 0.13470 0.55350 -0.06200
H 	H 	0.95090 0.10130 0.53600 0.08900
C 	C 	0.95890 0.15300 0.59880 0.01900
H 	H 	0.98900 0.13150 0.61300 0.07400
C 	C 	0.93810 0.20340 0.62500 -0.05500
C 	C 	0.82380 0.24400 0.53150 0.28500
C 	C 	0.96630 0.21880 0.67570 0.29200
C 	C 	0.87090 0.29030 0.63160 0.05800
C 	C 	0.84390 0.25590 0.65600 -0.04100
C 	C 	0.82210 0.30540 0.68160 0.00800
H 	H 	0.80420 0.28010 0.69890 0.06400
C 	C 	0.82730 0.39350 0.68120 -0.05600
H 	H 	0.81170 0.42870 0.69690 0.06800
C 	C 	0.85490 0.42760 0.65800 0.01600
H 	H 	0.85920 0.48680 0.65870 0.06700
C 	C 	0.87750 0.37700 0.63300 -0.05700
C 	C 	0.83970 0.16150 0.65760 0.27700
C 	C 	0.90850 0.41790 0.60980 0.28500
C 	C 	0.85040 0.06600 0.89000 0.03400
C 	C 	0.84890 0.03460 0.84560 -0.04100
C 	C 	0.82250 0.96670 0.82610 -0.00600
H 	H 	0.82110 0.94870 0.79540 0.07500
C 	C 	0.79790 0.92380 0.85080 -0.04300
H 	H 	0.77990 0.87610 0.83740 0.06900
C 	C 	0.79980 0.95140 0.89540 -0.00800
H 	H 	0.78380 0.92130 0.91290 0.07500
C 	C 	0.82470 0.02210 0.91440 -0.04600
C 	C 	0.87580 0.07730 0.81830 0.27300
C 	C 	0.82590 0.04720 0.96350 0.26400
C 	C 	0.87410 0.14750 0.90880 0.09900
C 	C 	0.85130 0.22350 0.89440 -0.08800
C 	C 	0.86930 0.29790 0.91430 0.05200
H 	H 	0.85250 0.34840 0.90450 0.04500
C 	C 	0.91240 0.30120 0.94920 -0.09200
H 	H 	0.92550 0.35340 0.96210 0.10500
C 	C 	0.93520 0.22690 0.96430 0.06800
H 	H 	0.96390 0.22760 0.98850 0.03900
C 	C 	0.91660 0.15110 0.94460 -0.12000
C 	C 	0.80650 0.22750 0.85440 0.29000
C 	C 	0.94320 0.08220 0.96470 0.33600
O 	O 	0.51200 0.27880 0.80160 -0.28600
O 	O 	0.45530 0.09940 0.70150 -0.40800
Dy	Dy	0.48533 0.16536 0.73986 1.00300
O 	O 	0.46860 0.02430 0.72200 -0.07500
U 	U 	0.77372 0.73009 0.72737 -0.01100
U 	U 	0.76151 0.67059 0.92814 0.01800
U 	U 	0.57717 0.66355 0.73639 0.01700
U 	U 	0.52044 0.97535 0.92440 0.01500
O 	O 	0.85390 0.77360 0.77930 -0.19200
O 	O 	0.81440 0.68450 0.80690 -0.18600
O 	O 	0.96370 0.60300 0.00620 -0.17800
O 	O 	0.95670 0.52200 0.94420 -0.18400
O 	O 	0.83380 0.60940 0.92600 -0.17200
O 	O 	0.77240 0.56810 0.86980 -0.15700
O 	O 	0.95100 0.62110 0.79290 -0.39700
O 	O 	0.98910 0.57600 0.86470 -0.20700
O 	O 	0.70690 0.75370 0.94750 -0.16600
O 	O 	0.68450 0.75930 0.01140 -0.17100
O 	O 	0.55320 0.73260 0.79400 -0.17600
O 	O 	0.49060 0.71630 0.81480 -0.17300
O 	O 	0.68980 0.62310 0.87480 -0.15600
O 	O 	0.63250 0.62100 0.80950 -0.15600
O 	O 	0.56690 0.97830 0.87080 -0.15900
O 	O 	0.59000 0.89340 0.92970 -0.17700
O 	O 	0.58530 0.61100 0.66250 -0.17700
O 	O 	0.64040 0.57840 0.72670 -0.15700
O 	O 	0.68860 0.48840 0.51480 -0.17700
O 	O 	0.64570 0.59920 0.51110 -0.18400
O 	O 	0.69620 0.68870 0.68380 -0.18900
O 	O 	0.72590 0.77270 0.64420 -0.19400
O 	O 	0.52580 0.57780 0.49760 -0.21000
O 	O 	0.55370 0.52120 0.56030 -0.21200
C 	C 	0.90200 0.65460 0.88520 0.05500
C 	C 	0.88690 0.72940 0.86000 -0.07000
C 	C 	0.90110 0.80740 0.87870 0.02900
H 	H 	0.89250 0.85650 0.86000 0.05200
C 	C 	0.92830 0.81310 0.92550 -0.07600
H 	H 	0.93770 0.86690 0.93870 0.09800
C 	C 	0.94160 0.74350 0.95240 0.03000
H 	H 	0.95790 0.74880 0.98480 0.05100
C 	C 	0.93110 0.66370 0.93200 -0.06000
C 	C 	0.85090 0.72740 0.81300 0.27300
C 	C 	0.95080 0.59080 0.96230 0.29400
C 	C 	0.88730 0.57300 0.86140 0.07700
C 	C 	0.84590 0.53510 0.86160 -0.06800
C 	C 	0.82950 0.46330 0.83290 0.02300
H 	H 	0.80090 0.43880 0.83220 0.06400
C 	C 	0.85440 0.42890 0.80640 -0.07800
H 	H 	0.84420 0.37900 0.78880 0.08200
C 	C 	0.89430 0.46810 0.80570 0.04400
H 	H 	0.91140 0.44560 0.78680 0.05100
C 	C 	0.91040 0.54070 0.83250 -0.10000
C 	C 	0.81660 0.57160 0.88700 0.27700
C 	C 	0.95350 0.58220 0.83000 0.38100
C 	C 	0.60670 0.73300 0.89500 0.05900
C 	C 	0.62900 0.71250 0.94200 -0.05100
C 	C 	0.60750 0.66390 0.96750 0.02400
H 	H 	0.62310 0.65080 0.99940 0.06000
C 	C 	0.56370 0.63470 0.94650 -0.06200
H 	H 	0.54910 0.60130 0.96400 0.08900
C 	C 	0.54110 0.65300 0.90120 0.01900
H 	H 	0.51100 0.63150 0.88700 0.07400
C 	C 	0.56190 0.70340 0.87500 -0.05500
C 	C 	0.67620 0.74400 0.96850 0.28500
C 	C 	0.53370 0.71880 0.82430 0.29200
C 	C 	0.62910 0.79030 0.86840 0.05800
C 	C 	0.65610 0.75590 0.84400 -0.04100
C 	C 	0.67790 0.80540 0.81840 0.00800
H 	H 	0.69580 0.78010 0.80110 0.06400
C 	C 	0.67270 0.89350 0.81880 -0.05600
H 	H 	0.68830 0.92870 0.80310 0.06800
C 	C 	0.64510 0.92760 0.84200 0.01600
H 	H 	0.64080 0.98680 0.84130 0.06600
C 	C 	0.62250 0.87700 0.86700 -0.05700
C 	C 	0.66030 0.66150 0.84240 0.27700
C 	C 	0.59150 0.91790 0.89020 0.28500
C 	C 	0.64960 0.56600 0.61000 0.03400
C 	C 	0.65110 0.53460 0.65440 -0.04100
C 	C 	0.67750 0.46670 0.67390 -0.00600
H 	H 	0.67890 0.44870 0.70460 0.07500
C 	C 	0.70210 0.42380 0.64920 -0.04300
H 	H 	0.72010 0.37610 0.66260 0.06900
C 	C 	0.70020 0.45140 0.60460 -0.00800
H 	H 	0.71620 0.42130 0.58710 0.07500
C 	C 	0.67530 0.52210 0.58560 -0.04600
C 	C 	0.62420 0.57730 0.68170 0.27300
C 	C 	0.67410 0.54720 0.53650 0.26400
C 	C 	0.62590 0.64750 0.59120 0.09900
C 	C 	0.64870 0.72350 0.60560 -0.08800
C 	C 	0.63070 0.79790 0.58570 0.05200
H 	H 	0.64750 0.84840 0.59550 0.04500
C 	C 	0.58760 0.80120 0.55080 -0.09200
H 	H 	0.57450 0.85340 0.53790 0.10600
C 	C 	0.56480 0.72690 0.53570 0.06900
H 	H 	0.53610 0.72760 0.51150 0.03900
C 	C 	0.58340 0.65110 0.55540 -0.12000
C 	C 	0.69350 0.72750 0.64560 0.29000
C 	C 	0.55680 0.58220 0.53530 0.33600
O 	O 	0.98800 0.77880 0.69840 -0.28600
O 	O 	0.04470 0.59940 0.79850 -0.40800
Dy	Dy	0.01467 0.66536 0.76014 1.00200
O 	O 	0.03140 0.52430 0.77800 -0.07500
U 	U 	0.27372 0.23009 0.72737 -0.01100
U 	U 	0.26151 0.17059 0.92814 0.01800
U 	U 	0.07717 0.16355 0.73639 0.01700
U 	U 	0.02044 0.47535 0.92440 0.01500
O 	O 	0.35390 0.27360 0.77930 -0.19200
O 	O 	0.31440 0.18450 0.80690 -0.18600
O 	O 	0.46370 0.10300 0.00620 -0.17900
O 	O 	0.45670 0.02200 0.94420 -0.18400
O 	O 	0.33380 0.10940 0.92600 -0.17200
O 	O 	0.27240 0.06810 0.86980 -0.15700
O 	O 	0.45100 0.12110 0.79290 -0.39700
O 	O 	0.48910 0.07600 0.86470 -0.20700
O 	O 	0.20690 0.25370 0.94750 -0.16600
O 	O 	0.18450 0.25930 0.01140 -0.17100
O 	O 	0.05320 0.23260 0.79400 -0.17600
O 	O 	0.99060 0.21630 0.81480 -0.17300
O 	O 	0.18980 0.12310 0.87480 -0.15600
O 	O 	0.13250 0.12100 0.80950 -0.15600
O 	O 	0.06690 0.47830 0.87080 -0.15900
O 	O 	0.09000 0.39340 0.92970 -0.17700
O 	O 	0.08530 0.11100 0.66250 -0.17700
O 	O 	0.14040 0.07840 0.72670 -0.15700
O 	O 	0.18860 0.98840 0.51480 -0.17700
O 	O 	0.14570 0.09920 0.51110 -0.18400
O 	O 	0.19620 0.18870 0.68380 -0.18900
O 	O 	0.22590 0.27270 0.64420 -0.19400
O 	O 	0.02580 0.07780 0.49760 -0.21000
O 	O 	0.05370 0.02120 0.56030 -0.21200
C 	C 	0.40200 0.15460 0.88520 0.05500
C 	C 	0.38690 0.22940 0.86000 -0.07000
C 	C 	0.40110 0.30740 0.87870 0.02900
H 	H 	0.39250 0.35650 0.86000 0.05200
C 	C 	0.42830 0.31310 0.92550 -0.07600
H 	H 	0.43770 0.36690 0.93870 0.09800
C 	C 	0.44160 0.24350 0.95240 0.03000
H 	H 	0.45790 0.24880 0.98480 0.05200
C 	C 	0.43110 0.16370 0.93200 -0.06000
C 	C 	0.35090 0.22740 0.81300 0.27300
C 	C 	0.45080 0.09080 0.96230 0.29400
C 	C 	0.38730 0.07300 0.86140 0.07700
C 	C 	0.34590 0.03510 0.86160 -0.06800
C 	C 	0.32950 0.96330 0.83290 0.02300
H 	H 	0.30090 0.93880 0.83220 0.06400
C 	C 	0.35440 0.92890 0.80640 -0.07800
H 	H 	0.34420 0.87900 0.78880 0.08200
C 	C 	0.39430 0.96810 0.80570 0.04400
H 	H 	0.41140 0.94560 0.78680 0.05100
C 	C 	0.41040 0.04070 0.83250 -0.10000
C 	C 	0.31660 0.07160 0.88700 0.27700
C 	C 	0.45350 0.08220 0.83000 0.38100
C 	C 	0.10670 0.23300 0.89500 0.05900
C 	C 	0.12900 0.21250 0.94200 -0.05100
C 	C 	0.10750 0.16390 0.96750 0.02400
H 	H 	0.12310 0.15080 0.99940 0.06000
C 	C 	0.06370 0.13470 0.94650 -0.06200
H 	H 	0.04910 0.10130 0.96400 0.08900
C 	C 	0.04110 0.15300 0.90120 0.01900
H 	H 	0.01100 0.13150 0.88700 0.07400
C 	C 	0.06190 0.20340 0.87500 -0.05500
C 	C 	0.17620 0.24400 0.96850 0.28500
C 	C 	0.03370 0.21880 0.82430 0.29200
C 	C 	0.12910 0.29030 0.86840 0.05800
C 	C 	0.15610 0.25590 0.84400 -0.04100
C 	C 	0.17790 0.30540 0.81840 0.00800
H 	H 	0.19580 0.28010 0.80110 0.06400
C 	C 	0.17270 0.39350 0.81880 -0.05600
H 	H 	0.18830 0.42870 0.80310 0.06800
C 	C 	0.14510 0.42760 0.84200 0.01600
H 	H 	0.14080 0.48680 0.84130 0.06700
C 	C 	0.12250 0.37700 0.86700 -0.05700
C 	C 	0.16030 0.16150 0.84240 0.27700
C 	C 	0.09150 0.41790 0.89020 0.28500
C 	C 	0.14960 0.06600 0.61000 0.03400
C 	C 	0.15110 0.03460 0.65440 -0.04100
C 	C 	0.17750 0.96670 0.67390 -0.00600
H 	H 	0.17890 0.94870 0.70460 0.07500
C 	C 	0.20210 0.92380 0.64920 -0.04300
H 	H 	0.22010 0.87610 0.66260 0.06900
C 	C 	0.20020 0.95140 0.60460 -0.00800
H 	H 	0.21620 0.92130 0.58710 0.07500
C 	C 	0.17530 0.02210 0.58560 -0.04600
C 	C 	0.12420 0.07730 0.68170 0.27300
C 	C 	0.17410 0.04720 0.53650 0.26400
C 	C 	0.12590 0.14750 0.59120 0.10000
C 	C 	0.14870 0.22350 0.60560 -0.08800
C 	C 	0.13070 0.29790 0.58570 0.05200
H 	H 	0.14750 0.34840 0.59550 0.04500
C 	C 	0.08760 0.30120 0.55080 -0.09200
H 	H 	0.07450 0.35340 0.53790 0.10600
C 	C 	0.06480 0.22690 0.53570 0.06900
H 	H 	0.03610 0.22760 0.51150 0.03900
C 	C 	0.08340 0.15110 0.55540 -0.12000
C 	C 	0.19350 0.22750 0.64560 0.29000
C 	C 	0.05680 0.08220 0.53530 0.33600
O 	O 	0.48800 0.27880 0.69840 -0.28600
O 	O 	0.54470 0.09940 0.79850 -0.40800
Dy	Dy	0.51467 0.16536 0.76014 1.00300
O 	O 	0.53140 0.02430 0.77800 -0.07500
U 	U 	0.77372 0.26991 0.22737 -0.01100
U 	U 	0.76151 0.32941 0.42814 0.01800
U 	U 	0.57717 0.33645 0.23639 0.01700
U 	U 	0.52044 0.02465 0.42440 0.01500
O 	O 	0.85390 0.22640 0.27930 -0.19200
O 	O 	0.81440 0.31550 0.30690 -0.18600
O 	O 	0.96370 0.39700 0.50620 -0.17800
O 	O 	0.95670 0.47800 0.44420 -0.18400
O 	O 	0.83380 0.39060 0.42600 -0.17200
O 	O 	0.77240 0.43190 0.36980 -0.15600
O 	O 	0.95100 0.37890 0.29290 -0.39700
O 	O 	0.98910 0.42400 0.36470 -0.20600
O 	O 	0.70690 0.24630 0.44750 -0.16600
O 	O 	0.68450 0.24070 0.51140 -0.17100
O 	O 	0.55320 0.26740 0.29400 -0.17600
O 	O 	0.49060 0.28370 0.31480 -0.17300
O 	O 	0.68980 0.37690 0.37480 -0.15600
O 	O 	0.63250 0.37900 0.30950 -0.15600
O 	O 	0.56690 0.02170 0.37080 -0.15900
O 	O 	0.59000 0.10660 0.42970 -0.17700
O 	O 	0.58530 0.38900 0.16250 -0.17700
O 	O 	0.64040 0.42160 0.22670 -0.15700
O 	O 	0.68860 0.51160 0.01480 -0.17700
O 	O 	0.64570 0.40080 0.01110 -0.18400
O 	O 	0.69620 0.31130 0.18380 -0.18900
O 	O 	0.72590 0.22730 0.14420 -0.19400
O 	O 	0.52580 0.42220 0.99760 -0.21000
O 	O 	0.55370 0.47880 0.06030 -0.21200
C 	C 	0.90200 0.34540 0.38520 0.05500
C 	C 	0.88690 0.27060 0.36000 -0.07000
C 	C 	0.90110 0.19260 0.37870 0.02900
H 	H 	0.89250 0.14350 0.36000 0.05200
C 	C 	0.92830 0.18690 0.42550 -0.07600
H 	H 	0.93770 0.13310 0.43870 0.09800
C 	C 	0.94160 0.25650 0.45240 0.03000
H 	H 	0.95790 0.25120 0.48480 0.05200
C 	C 	0.93110 0.33630 0.43200 -0.06000
C 	C 	0.85090 0.27260 0.31300 0.27300
C 	C 	0.95080 0.40920 0.46230 0.29400
C 	C 	0.88730 0.42700 0.36140 0.07700
C 	C 	0.84590 0.46490 0.36160 -0.06800
C 	C 	0.82950 0.53670 0.33290 0.02300
H 	H 	0.80090 0.56120 0.33220 0.06400
C 	C 	0.85440 0.57110 0.30640 -0.07800
H 	H 	0.84420 0.62100 0.28880 0.08200
C 	C 	0.89430 0.53190 0.30570 0.04400
H 	H 	0.91140 0.55440 0.28680 0.05100
C 	C 	0.91040 0.45930 0.33250 -0.10000
C 	C 	0.81660 0.42840 0.38700 0.27700
C 	C 	0.95350 0.41780 0.33000 0.38100
C 	C 	0.60670 0.26700 0.39500 0.05900
C 	C 	0.62900 0.28750 0.44200 -0.05100
C 	C 	0.60750 0.33610 0.46750 0.02400
H 	H 	0.62310 0.34920 0.49940 0.06000
C 	C 	0.56370 0.36530 0.44650 -0.06200
H 	H 	0.54910 0.39870 0.46400 0.08900
C 	C 	0.54110 0.34700 0.40120 0.01900
H 	H 	0.51100 0.36850 0.38700 0.07400
C 	C 	0.56190 0.29660 0.37500 -0.05500
C 	C 	0.67620 0.25600 0.46850 0.28500
C 	C 	0.53370 0.28120 0.32430 0.29200
C 	C 	0.62910 0.20970 0.36840 0.05800
C 	C 	0.65610 0.24410 0.34400 -0.04100
C 	C 	0.67790 0.19460 0.31840 0.00800
H 	H 	0.69580 0.21990 0.30110 0.06400
C 	C 	0.67270 0.10650 0.31880 -0.05600
H 	H 	0.68830 0.07130 0.30310 0.06800
C 	C 	0.64510 0.07240 0.34200 0.01600
H 	H 	0.64080 0.01320 0.34130 0.06600
C 	C 	0.62250 0.12300 0.36700 -0.05700
C 	C 	0.66030 0.33850 0.34240 0.27700
C 	C 	0.59150 0.08210 0.39020 0.28500
C 	C 	0.64960 0.43400 0.11000 0.03400
C 	C 	0.65110 0.46540 0.15440 -0.04100
C 	C 	0.67750 0.53330 0.17390 -0.00600
H 	H 	0.67890 0.55130 0.20460 0.07500
C 	C 	0.70210 0.57620 0.14920 -0.04300
H 	H 	0.72010 0.62390 0.16260 0.06900
C 	C 	0.70020 0.54860 0.10460 -0.00800
H 	H 	0.71620 0.57870 0.08710 0.07500
C 	C 	0.67530 0.47790 0.08560 -0.04600
C 	C 	0.62420 0.42270 0.18170 0.27300
C 	C 	0.67410 0.45280 0.03650 0.26400
C 	C 	0.62590 0.35250 0.09120 0.09900
C 	C 	0.64870 0.27650 0.10560 -0.08800
C 	C 	0.63070 0.20210 0.08570 0.05200
H 	H 	0.64750 0.15160 0.09550 0.04500
C 	C 	0.58760 0.19880 0.05080 -0.09300
H 	H 	0.57450 0.14660 0.03790 0.10600
C 	C 	0.56480 0.27310 0.03570 0.06900
H 	H 	0.53610 0.27240 0.01150 0.03900
C 	C 	0.58340 0.34890 0.05540 -0.12000
C 	C 	0.69350 0.27250 0.14560 0.29000
C 	C 	0.55680 0.41780 0.03530 0.33600
O 	O 	0.98800 0.22120 0.19840 -0.28600
O 	O 	0.04470 0.40060 0.29850 -0.40900
Dy	Dy	0.01467 0.33464 0.26014 1.00400
O 	O 	0.03140 0.47570 0.27800 -0.07500
U 	U 	0.27372 0.76991 0.22737 -0.01100
U 	U 	0.26151 0.82941 0.42814 0.01800
U 	U 	0.07717 0.83645 0.23639 0.01700
U 	U 	0.02044 0.52465 0.42440 0.01500
O 	O 	0.35390 0.72640 0.27930 -0.19200
O 	O 	0.31440 0.81550 0.30690 -0.18600
O 	O 	0.46370 0.89700 0.50620 -0.17900
O 	O 	0.45670 0.97800 0.44420 -0.18400
O 	O 	0.33380 0.89060 0.42600 -0.17200
O 	O 	0.27240 0.93190 0.36980 -0.15700
O 	O 	0.45100 0.87890 0.29290 -0.39700
O 	O 	0.48910 0.92400 0.36470 -0.20700
O 	O 	0.20690 0.74630 0.44750 -0.16600
O 	O 	0.18450 0.74070 0.51140 -0.17100
O 	O 	0.05320 0.76740 0.29400 -0.17600
O 	O 	0.99060 0.78370 0.31480 -0.17300
O 	O 	0.18980 0.87690 0.37480 -0.15600
O 	O 	0.13250 0.87900 0.30950 -0.15600
O 	O 	0.06690 0.52170 0.37080 -0.15900
O 	O 	0.09000 0.60660 0.42970 -0.17700
O 	O 	0.08530 0.88900 0.16250 -0.17700
O 	O 	0.14040 0.92160 0.22670 -0.15700
O 	O 	0.18860 0.01160 0.01480 -0.17700
O 	O 	0.14570 0.90080 0.01110 -0.18400
O 	O 	0.19620 0.81130 0.18380 -0.18900
O 	O 	0.22590 0.72730 0.14420 -0.19400
O 	O 	0.02580 0.92220 0.99760 -0.21000
O 	O 	0.05370 0.97880 0.06030 -0.21200
C 	C 	0.40200 0.84540 0.38520 0.05500
C 	C 	0.38690 0.77060 0.36000 -0.07000
C 	C 	0.40110 0.69260 0.37870 0.02900
H 	H 	0.39250 0.64350 0.36000 0.05200
C 	C 	0.42830 0.68690 0.42550 -0.07600
H 	H 	0.43770 0.63310 0.43870 0.09800
C 	C 	0.44160 0.75650 0.45240 0.03000
H 	H 	0.45790 0.75120 0.48480 0.05200
C 	C 	0.43110 0.83630 0.43200 -0.06000
C 	C 	0.35090 0.77260 0.31300 0.27300
C 	C 	0.45080 0.90920 0.46230 0.29400
C 	C 	0.38730 0.92700 0.36140 0.07700
C 	C 	0.34590 0.96490 0.36160 -0.06800
C 	C 	0.32950 0.03670 0.33290 0.02300
H 	H 	0.30090 0.06120 0.33220 0.06400
C 	C 	0.35440 0.07110 0.30640 -0.07800
H 	H 	0.34420 0.12100 0.28880 0.08200
C 	C 	0.39430 0.03190 0.30570 0.04400
H 	H 	0.41140 0.05440 0.28680 0.05100
C 	C 	0.41040 0.95930 0.33250 -0.10000
C 	C 	0.31660 0.92840 0.38700 0.27700
C 	C 	0.45350 0.91780 0.33000 0.38100
C 	C 	0.10670 0.76700 0.39500 0.05900
C 	C 	0.12900 0.78750 0.44200 -0.05100
C 	C 	0.10750 0.83610 0.46750 0.02400
H 	H 	0.12310 0.84920 0.49940 0.06000
C 	C 	0.06370 0.86530 0.44650 -0.06200
H 	H 	0.04910 0.89870 0.46400 0.08900
C 	C 	0.04110 0.84700 0.40120 0.01900
H 	H 	0.01100 0.86850 0.38700 0.07400
C 	C 	0.06190 0.79660 0.37500 -0.05500
C 	C 	0.17620 0.75600 0.46850 0.28500
C 	C 	0.03370 0.78120 0.32430 0.29200
C 	C 	0.12910 0.70970 0.36840 0.05800
C 	C 	0.15610 0.74410 0.34400 -0.04100
C 	C 	0.17790 0.69460 0.31840 0.00800
H 	H 	0.19580 0.71990 0.30110 0.06400
C 	C 	0.17270 0.60650 0.31880 -0.05600
H 	H 	0.18830 0.57130 0.30310 0.06800
C 	C 	0.14510 0.57240 0.34200 0.01600
H 	H 	0.14080 0.51320 0.34130 0.06700
C 	C 	0.12250 0.62300 0.36700 -0.05700
C 	C 	0.16030 0.83850 0.34240 0.27700
C 	C 	0.09150 0.58210 0.39020 0.28500
C 	C 	0.14960 0.93400 0.11000 0.03400
C 	C 	0.15110 0.96540 0.15440 -0.04100
C 	C 	0.17750 0.03330 0.17390 -0.00600
H 	H 	0.17890 0.05130 0.20460 0.07500
C 	C 	0.20210 0.07620 0.14920 -0.04300
H 	H 	0.22010 0.12390 0.16260 0.06900
C 	C 	0.20020 0.04860 0.10460 -0.00800
H 	H 	0.21620 0.07870 0.08710 0.07500
C 	C 	0.17530 0.97790 0.08560 -0.04600
C 	C 	0.12420 0.92270 0.18170 0.27300
C 	C 	0.17410 0.95280 0.03650 0.26400
C 	C 	0.12590 0.85250 0.09120 0.09900
C 	C 	0.14870 0.77650 0.10560 -0.08800
C 	C 	0.13070 0.70210 0.08570 0.05200
H 	H 	0.14750 0.65160 0.09550 0.04500
C 	C 	0.08760 0.69880 0.05080 -0.09200
H 	H 	0.07450 0.64660 0.03790 0.10500
C 	C 	0.06480 0.77310 0.03570 0.06800
H 	H 	0.03610 0.77240 0.01150 0.03900
C 	C 	0.08340 0.84890 0.05540 -0.12000
C 	C 	0.19350 0.77250 0.14560 0.29000
C 	C 	0.05680 0.91780 0.03530 0.33600
O 	O 	0.48800 0.72120 0.19840 -0.28600
O 	O 	0.54470 0.90060 0.29850 -0.40800
Dy	Dy	0.51467 0.83464 0.26014 1.00300
O 	O 	0.53140 0.97570 0.27800 -0.07500
U 	U 	0.22628 0.26991 0.27263 -0.01100
U 	U 	0.23849 0.32941 0.07186 0.01800
U 	U 	0.42283 0.33645 0.26361 0.01700
U 	U 	0.47956 0.02465 0.07560 0.01500
O 	O 	0.14610 0.22640 0.22070 -0.19200
O 	O 	0.18560 0.31550 0.19310 -0.18600
O 	O 	0.03630 0.39700 0.99380 -0.17800
O 	O 	0.04330 0.47800 0.05580 -0.18400
O 	O 	0.16620 0.39060 0.07400 -0.17200
O 	O 	0.22760 0.43190 0.13020 -0.15700
O 	O 	0.04900 0.37890 0.20710 -0.39700
O 	O 	0.01090 0.42400 0.13530 -0.20700
O 	O 	0.29310 0.24630 0.05250 -0.16600
O 	O 	0.31550 0.24070 0.98860 -0.17100
O 	O 	0.44680 0.26740 0.20600 -0.17600
O 	O 	0.50940 0.28370 0.18520 -0.17300
O 	O 	0.31020 0.37690 0.12520 -0.15600
O 	O 	0.36750 0.37900 0.19050 -0.15600
O 	O 	0.43310 0.02170 0.12920 -0.15900
O 	O 	0.41000 0.10660 0.07030 -0.17700
O 	O 	0.41470 0.38900 0.33750 -0.17700
O 	O 	0.35960 0.42160 0.27330 -0.15700
O 	O 	0.31140 0.51160 0.48520 -0.17700
O 	O 	0.35430 0.40080 0.48890 -0.18400
O 	O 	0.30380 0.31130 0.31620 -0.18900
O 	O 	0.27410 0.22730 0.35580 -0.19400
O 	O 	0.47420 0.42220 0.50240 -0.21000
O 	O 	0.44630 0.47880 0.43970 -0.21200
C 	C 	0.09800 0.34540 0.11480 0.05500
C 	C 	0.11310 0.27060 0.14000 -0.07000
C 	C 	0.09890 0.19260 0.12130 0.02900
H 	H 	0.10750 0.14350 0.14000 0.05200
C 	C 	0.07170 0.18690 0.07450 -0.07600
H 	H 	0.06230 0.13310 0.06130 0.09800
C 	C 	0.05840 0.25650 0.04760 0.03000
H 	H 	0.04210 0.25120 0.01520 0.05100
C 	C 	0.06890 0.33630 0.06800 -0.06000
C 	C 	0.14910 0.27260 0.18700 0.27300
C 	C 	0.04920 0.40920 0.03770 0.29400
C 	C 	0.11270 0.42700 0.13860 0.07700
C 	C 	0.15410 0.46490 0.13840 -0.06800
C 	C 	0.17050 0.53670 0.16710 0.02300
H 	H 	0.19910 0.56120 0.16780 0.06400
C 	C 	0.14560 0.57110 0.19360 -0.07800
H 	H 	0.15580 0.62100 0.21120 0.08200
C 	C 	0.10570 0.53190 0.19430 0.04400
H 	H 	0.08860 0.55440 0.21320 0.05100
C 	C 	0.08960 0.45930 0.16750 -0.10000
C 	C 	0.18340 0.42840 0.11300 0.27700
C 	C 	0.04650 0.41780 0.17000 0.38100
C 	C 	0.39330 0.26700 0.10500 0.05900
C 	C 	0.37100 0.28750 0.05800 -0.05100
C 	C 	0.39250 0.33610 0.03250 0.02400
H 	H 	0.37690 0.34920 0.00060 0.06000
C 	C 	0.43630 0.36530 0.05350 -0.06200
H 	H 	0.45090 0.39870 0.03600 0.08900
C 	C 	0.45890 0.34700 0.09880 0.01900
H 	H 	0.48900 0.36850 0.11300 0.07400
C 	C 	0.43810 0.29660 0.12500 -0.05500
C 	C 	0.32380 0.25600 0.03150 0.28500
C 	C 	0.46630 0.28120 0.17570 0.29200
C 	C 	0.37090 0.20970 0.13160 0.05800
C 	C 	0.34390 0.24410 0.15600 -0.04100
C 	C 	0.32210 0.19460 0.18160 0.00800
H 	H 	0.30420 0.21990 0.19890 0.06400
C 	C 	0.32730 0.10650 0.18120 -0.05600
H 	H 	0.31170 0.07130 0.19690 0.06800
C 	C 	0.35490 0.07240 0.15800 0.01600
H 	H 	0.35920 0.01320 0.15870 0.06600
C 	C 	0.37750 0.12300 0.13300 -0.05700
C 	C 	0.33970 0.33850 0.15760 0.27700
C 	C 	0.40850 0.08210 0.10980 0.28500
C 	C 	0.35040 0.43400 0.39000 0.03400
C 	C 	0.34890 0.46540 0.34560 -0.04100
C 	C 	0.32250 0.53330 0.32610 -0.00600
H 	H 	0.32110 0.55130 0.29540 0.07500
C 	C 	0.29790 0.57620 0.35080 -0.04300
H 	H 	0.27990 0.62390 0.33740 0.06900
C 	C 	0.29980 0.54860 0.39540 -0.00800
H 	H 	0.28380 0.57870 0.41290 0.07500
C 	C 	0.32470 0.47790 0.41440 -0.04600
C 	C 	0.37580 0.42270 0.31830 0.27300
C 	C 	0.32590 0.45280 0.46350 0.26400
C 	C 	0.37410 0.35250 0.40880 0.09900
C 	C 	0.35130 0.27650 0.39440 -0.08800
C 	C 	0.36930 0.20210 0.41430 0.05200
H 	H 	0.35250 0.15160 0.40450 0.04500
C 	C 	0.41240 0.19880 0.44920 -0.09200
H 	H 	0.42550 0.14660 0.46210 0.10600
C 	C 	0.43520 0.27310 0.46430 0.06900
H 	H 	0.46390 0.27240 0.48850 0.03900
C 	C 	0.41660 0.34890 0.44460 -0.12000
C 	C 	0.30650 0.27250 0.35440 0.29000
C 	C 	0.44320 0.41780 0.46470 0.33600
O 	O 	0.01200 0.22120 0.30160 -0.28600
O 	O 	0.95530 0.40060 0.20150 -0.40800
Dy	Dy	0.98533 0.33464 0.23986 1.00200
O 	O 	0.96860 0.47570 0.22200 -0.07500
U 	U 	0.72628 0.76991 0.27263 -0.01100
U 	U 	0.73849 0.82941 0.07186 0.01800
U 	U 	0.92283 0.83645 0.26361 0.01700
U 	U 	0.97956 0.52465 0.07560 0.01500
O 	O 	0.64610 0.72640 0.22070 -0.19200
O 	O 	0.68560 0.81550 0.19310 -0.18600
O 	O 	0.53630 0.89700 0.99380 -0.17900
O 	O 	0.54330 0.97800 0.05580 -0.18400
O 	O 	0.66620 0.89060 0.07400 -0.17200
O 	O 	0.72760 0.93190 0.13020 -0.15700
O 	O 	0.54900 0.87890 0.20710 -0.39700
O 	O 	0.51090 0.92400 0.13530 -0.20700
O 	O 	0.79310 0.74630 0.05250 -0.16600
O 	O 	0.81550 0.74070 0.98860 -0.17100
O 	O 	0.94680 0.76740 0.20600 -0.17600
O 	O 	0.00940 0.78370 0.18520 -0.17300
O 	O 	0.81020 0.87690 0.12520 -0.15600
O 	O 	0.86750 0.87900 0.19050 -0.15600
O 	O 	0.93310 0.52170 0.12920 -0.15900
O 	O 	0.91000 0.60660 0.07030 -0.17700
O 	O 	0.91470 0.88900 0.33750 -0.17700
O 	O 	0.85960 0.92160 0.27330 -0.15700
O 	O 	0.81140 0.01160 0.48520 -0.17700
O 	O 	0.85430 0.90080 0.48890 -0.18400
O 	O 	0.80380 0.81130 0.31620 -0.18900
O 	O 	0.77410 0.72730 0.35580 -0.19400
O 	O 	0.97420 0.92220 0.50240 -0.21000
O 	O 	0.94630 0.97880 0.43970 -0.21200
C 	C 	0.59800 0.84540 0.11480 0.05500
C 	C 	0.61310 0.77060 0.14000 -0.07000
C 	C 	0.59890 0.69260 0.12130 0.02900
H 	H 	0.60750 0.64350 0.14000 0.05200
C 	C 	0.57170 0.68690 0.07450 -0.07600
H 	H 	0.56230 0.63310 0.06130 0.09800
C 	C 	0.55840 0.75650 0.04760 0.03000
H 	H 	0.54210 0.75120 0.01520 0.05200
C 	C 	0.56890 0.83630 0.06800 -0.06000
C 	C 	0.64910 0.77260 0.18700 0.27300
C 	C 	0.54920 0.90920 0.03770 0.29400
C 	C 	0.61270 0.92700 0.13860 0.07700
C 	C 	0.65410 0.96490 0.13840 -0.06800
C 	C 	0.67050 0.03670 0.16710 0.02300
H 	H 	0.69910 0.06120 0.16780 0.06400
C 	C 	0.64560 0.07110 0.19360 -0.07800
H 	H 	0.65580 0.12100 0.21120 0.08200
C 	C 	0.60570 0.03190 0.19430 0.04400
H 	H 	0.58860 0.05440 0.21320 0.05100
C 	C 	0.58960 0.95930 0.16750 -0.10000
C 	C 	0.68340 0.92840 0.11300 0.27700
C 	C 	0.54650 0.91780 0.17000 0.38100
C 	C 	0.89330 0.76700 0.10500 0.05900
C 	C 	0.87100 0.78750 0.05800 -0.05100
C 	C 	0.89250 0.83610 0.03250 0.02400
H 	H 	0.87690 0.84920 0.00060 0.06000
C 	C 	0.93630 0.86530 0.05350 -0.06200
H 	H 	0.95090 0.89870 0.03600 0.08900
C 	C 	0.95890 0.84700 0.09880 0.01900
H 	H 	0.98900 0.86850 0.11300 0.07400
C 	C 	0.93810 0.79660 0.12500 -0.05500
C 	C 	0.82380 0.75600 0.03150 0.28500
C 	C 	0.96630 0.78120 0.17570 0.29200
C 	C 	0.87090 0.70970 0.13160 0.05800
C 	C 	0.84390 0.74410 0.15600 -0.04100
C 	C 	0.82210 0.69460 0.18160 0.00800
H 	H 	0.80420 0.71990 0.19890 0.06400
C 	C 	0.82730 0.60650 0.18120 -0.05600
H 	H 	0.81170 0.57130 0.19690 0.06800
C 	C 	0.85490 0.57240 0.15800 0.01600
H 	H 	0.85920 0.51320 0.15870 0.06700
C 	C 	0.87750 0.62300 0.13300 -0.05700
C 	C 	0.83970 0.83850 0.15760 0.27700
C 	C 	0.90850 0.58210 0.10980 0.28500
C 	C 	0.85040 0.93400 0.39000 0.03400
C 	C 	0.84890 0.96540 0.34560 -0.04100
C 	C 	0.82250 0.03330 0.32610 -0.00600
H 	H 	0.82110 0.05130 0.29540 0.07500
C 	C 	0.79790 0.07620 0.35080 -0.04300
H 	H 	0.77990 0.12390 0.33740 0.06900
C 	C 	0.79980 0.04860 0.39540 -0.00800
H 	H 	0.78380 0.07870 0.41290 0.07500
C 	C 	0.82470 0.97790 0.41440 -0.04600
C 	C 	0.87580 0.92270 0.31830 0.27300
C 	C 	0.82590 0.95280 0.46350 0.26400
C 	C 	0.87410 0.85250 0.40880 0.10000
C 	C 	0.85130 0.77650 0.39440 -0.08800
C 	C 	0.86930 0.70210 0.41430 0.05200
H 	H 	0.85250 0.65160 0.40450 0.04500
C 	C 	0.91240 0.69880 0.44920 -0.09200
H 	H 	0.92550 0.64660 0.46210 0.10600
C 	C 	0.93520 0.77310 0.46430 0.06900
H 	H 	0.96390 0.77240 0.48850 0.03900
C 	C 	0.91660 0.84890 0.44460 -0.12000
C 	C 	0.80650 0.77250 0.35440 0.29000
C 	C 	0.94320 0.91780 0.46470 0.33600
O 	O 	0.51200 0.72120 0.30160 -0.28600
O 	O 	0.45530 0.90060 0.20150 -0.40800
Dy	Dy	0.48533 0.83464 0.23986 1.00300
O 	O 	0.46860 0.97570 0.22200 -0.07500
