data_crystal

_cell_length_a 8.98100
_cell_length_b 16.00150
_cell_length_c 16.00150
_cell_angle_alpha 63.41670
_cell_angle_beta  79.21720
_cell_angle_gamma 100.78300

_symmetry_space_group_name_	'P 1'
_symmetry_space_group_name_H-M	'P 1'

loop_
_symmetry_equiv_pos_as_xyz
  x,y,z

loop_
_atom_site_label
_atom_site_type_symbol
_atom_site_fract_x
_atom_site_fract_y
_atom_site_fract_z
_atom_site_charge
Cu	Cu	-0.00000 -0.00000 0.50000 0.84600
Cu	Cu	0.50000 0.50000 0.50000 0.88000
Cu	Cu	-0.00000 0.50000 -0.00000 0.84500
H 	H 	0.32790 0.22760 0.63820 0.02100
H 	H 	0.08830 0.11820 0.74180 0.04600
H 	H 	0.91170 0.33170 0.69910 0.02600
H 	H 	0.90300 0.63910 0.62790 0.07900
H 	H 	0.85140 0.77890 0.61530 0.00200
H 	H 	0.21690 0.94490 0.38140 0.01100
H 	H 	0.28550 0.81100 0.39060 0.07700
H 	H 	0.96610 0.63820 0.13420 0.03700
H 	H 	0.83010 0.74180 0.14000 0.05300
H 	H 	0.61080 0.69910 0.96920 0.10400
H 	H 	0.53090 0.62790 0.73300 0.09500
H 	H 	0.46670 0.61530 0.60580 -0.00000
H 	H 	0.59830 0.38140 0.67370 -0.00000
H 	H 	0.67610 0.39060 0.79840 0.09700
H 	H 	0.10030 0.13420 0.22760 -0.05500
H 	H 	0.97010 0.14000 0.11820 0.07600
H 	H 	0.58000 0.96920 0.33170 0.09300
H 	H 	0.26390 0.73300 0.63910 0.09100
H 	H 	0.07250 0.60580 0.77890 -0.01200
H 	H 	0.27200 0.67370 0.94490 0.00500
H 	H 	0.47450 0.79840 0.81100 0.09400
H 	H 	0.67210 0.77240 0.36180 0.03600
H 	H 	0.91170 0.88180 0.25820 0.03900
H 	H 	0.08830 0.66830 0.30090 0.05800
H 	H 	0.09700 0.36090 0.37210 0.10700
H 	H 	0.14860 0.22110 0.38470 0.00100
H 	H 	0.78310 0.05510 0.61860 -0.01000
H 	H 	0.71450 0.18900 0.60940 0.10200
H 	H 	0.03390 0.36180 0.86580 0.02200
H 	H 	0.16990 0.25820 0.86000 0.03300
H 	H 	0.38920 0.30090 0.03080 -0.02300
H 	H 	0.46910 0.37210 0.26700 0.09100
H 	H 	0.53330 0.38470 0.39420 0.00100
H 	H 	0.40170 0.61860 0.32630 -0.00100
H 	H 	0.32390 0.60940 0.20160 0.08200
H 	H 	0.89970 0.86580 0.77240 0.10200
H 	H 	0.02990 0.86000 0.88180 0.01600
H 	H 	0.42000 0.03080 0.66830 -0.01300
H 	H 	0.73610 0.26700 0.36090 0.09400
H 	H 	0.92750 0.39420 0.22110 0.01600
H 	H 	0.72800 0.32630 0.05510 -0.00300
H 	H 	0.52550 0.20160 0.18900 0.08400
C 	C 	0.24320 0.25070 0.65020 0.02700
C 	C 	0.09890 0.18500 0.71230 -0.05100
C 	C 	0.99729 0.30908 0.68761 0.08900
C 	C 	0.14032 0.37538 0.62632 -0.05500
C 	C 	0.16988 0.48209 0.57775 0.11100
C 	C 	0.15656 0.62316 0.52718 0.09600
C 	C 	0.10537 0.70980 0.51359 -0.00100
C 	C 	0.97119 0.70071 0.57884 -0.06800
C 	C 	0.94022 0.78523 0.56967 0.10700
C 	C 	0.15537 0.88268 0.43297 0.06100
C 	C 	0.19706 0.80276 0.43768 -0.10500
C 	C 	0.89340 0.65020 0.09910 0.02800
C 	C 	0.81120 0.71230 0.10270 -0.00600
C 	C 	0.68490 0.68761 0.00331 -0.11500
C 	C 	0.76664 0.62632 0.99830 0.10900
C 	C 	0.74763 0.57775 0.94016 0.08500
C 	C 	0.68374 0.52718 0.84966 0.09100
C 	C 	0.61896 0.51359 0.77661 0.07500
C 	C 	0.55003 0.57884 0.72045 -0.14400
C 	C 	0.50989 0.56967 0.64510 0.08800
C 	C 	0.58834 0.43297 0.68435 0.09100
C 	C 	0.63474 0.43768 0.75956 -0.13800
C 	C 	0.99250 0.09910 0.25070 0.14800
C 	C 	0.91390 0.10270 0.18500 -0.06900
C 	C 	0.68821 0.00331 0.30908 -0.10300
C 	C 	0.76494 0.99830 0.37538 0.09400
C 	C 	0.68779 0.94016 0.48209 0.08500
C 	C 	0.53340 0.84966 0.62316 0.08700
C 	C 	0.39557 0.77661 0.70980 0.07200
C 	C 	0.27048 0.72045 0.70071 -0.14700
C 	C 	0.15499 0.64510 0.78523 0.08600
C 	C 	0.27269 0.68435 0.88268 0.08800
C 	C 	0.39430 0.75956 0.80276 -0.13900
C 	C 	0.75680 0.74930 0.34980 0.00200
C 	C 	0.90110 0.81500 0.28770 0.05700
C 	C 	0.00271 0.69092 0.31239 -0.07700
C 	C 	0.85968 0.62462 0.37368 0.07600
C 	C 	0.83012 0.51791 0.42225 0.09100
C 	C 	0.84344 0.37684 0.47282 0.07200
C 	C 	0.89463 0.29020 0.48641 0.14300
C 	C 	0.02881 0.29929 0.42116 -0.22100
C 	C 	0.05978 0.21477 0.43033 0.06100
C 	C 	0.84463 0.11732 0.56703 0.11400
C 	C 	0.80294 0.19724 0.56232 -0.17100
C 	C 	0.10660 0.34980 0.90090 -0.00100
C 	C 	0.18880 0.28770 0.89730 0.01500
C 	C 	0.31510 0.31239 0.99669 0.13500
C 	C 	0.23336 0.37368 0.00170 -0.09400
C 	C 	0.25237 0.42225 0.05984 0.11900
C 	C 	0.31626 0.47282 0.15034 0.07700
C 	C 	0.38104 0.48641 0.22339 0.06500
C 	C 	0.44997 0.42116 0.27955 -0.14200
C 	C 	0.49011 0.43033 0.35490 0.08400
C 	C 	0.41166 0.56703 0.31565 0.08300
C 	C 	0.36526 0.56232 0.24044 -0.13800
C 	C 	0.00750 0.90090 0.74930 -0.10100
C 	C 	0.08610 0.89730 0.81500 0.06900
C 	C 	0.31179 0.99669 0.69092 0.12300
C 	C 	0.23506 0.00170 0.62462 -0.08100
C 	C 	0.31221 0.05984 0.51791 0.11900
C 	C 	0.46660 0.15034 0.37684 0.08100
C 	C 	0.60443 0.22339 0.29020 0.06600
C 	C 	0.72952 0.27955 0.29929 -0.13800
C 	C 	0.84501 0.35490 0.21477 0.08600
C 	C 	0.72731 0.31565 0.11732 0.08600
C 	C 	0.60570 0.24044 0.19724 -0.13500
N 	N 	0.26684 0.34686 0.60614 -0.15200
N 	N 	0.97407 0.21194 0.73243 -0.08200
N 	N 	0.31353 0.54224 0.51685 -0.20400
N 	N 	0.30721 0.63630 0.48227 -0.10500
N 	N 	0.06436 0.52894 0.58806 -0.15000
N 	N 	0.03085 0.87519 0.49904 -0.23800
N 	N 	0.87298 0.60614 0.04700 -0.17800
N 	N 	0.70650 0.73243 0.05563 -0.08200
N 	N 	0.83038 0.51685 0.94091 -0.17600
N 	N 	0.78948 0.48227 0.88143 -0.09000
N 	N 	0.65242 0.58806 0.88300 -0.12300
N 	N 	0.52989 0.49904 0.62577 -0.22300
N 	N 	0.91998 0.04700 0.34686 -0.19200
N 	N 	0.76213 0.05563 0.21194 -0.07700
N 	N 	0.77129 0.94091 0.54224 -0.18100
N 	N 	0.67091 0.88143 0.63630 -0.09600
N 	N 	0.53542 0.88300 0.52894 -0.12500
N 	N 	0.15566 0.62577 0.87519 -0.22200
N 	N 	0.73316 0.65314 0.39386 -0.16200
N 	N 	0.02593 0.78806 0.26757 -0.12200
N 	N 	0.68647 0.45776 0.48315 -0.19900
N 	N 	0.69279 0.36370 0.51773 -0.09900
N 	N 	0.93564 0.47106 0.41194 -0.11000
N 	N 	0.96915 0.12481 0.50096 -0.19600
N 	N 	0.12702 0.39386 0.95300 -0.12800
N 	N 	0.29350 0.26757 0.94437 -0.12600
N 	N 	0.16962 0.48315 0.05909 -0.21800
N 	N 	0.21052 0.51773 0.11857 -0.11400
N 	N 	0.34758 0.41194 0.11700 -0.13800
N 	N 	0.47011 0.50096 0.37423 -0.22300
N 	N 	0.08002 0.95300 0.65314 -0.11700
N 	N 	0.23787 0.94437 0.78806 -0.12800
N 	N 	0.22871 0.05909 0.45776 -0.21400
N 	N 	0.32909 0.11857 0.36370 -0.10800
N 	N 	0.46458 0.11700 0.47106 -0.13600
N 	N 	0.84434 0.37423 0.12481 -0.21300
