data_crystal

_cell_length_a 10.77200
_cell_length_b 21.75240
_cell_length_c 9.85780
_cell_angle_alpha 90.00000
_cell_angle_beta  111.72800
_cell_angle_gamma 90.00000

_symmetry_space_group_name_	'P 1'
_symmetry_space_group_name_H-M	'P 1'

loop_
_symmetry_equiv_pos_as_xyz
  x,y,z

loop_
_atom_site_label
_atom_site_type_symbol
_atom_site_fract_x
_atom_site_fract_y
_atom_site_fract_z
_atom_site_charge
Cu	Cu	0.96344 0.11005 0.56382 0.88200
Cu	Cu	0.50815 0.86588 0.00403 0.87500
O 	O 	0.78966 0.08348 0.55450 -0.40900
O 	O 	0.66691 0.16845 0.47920 -0.28600
O 	O 	0.15527 0.10078 0.62115 -0.42100
O 	O 	0.19420 0.15644 0.45080 -0.28200
O 	O 	0.47750 0.93373 0.86820 -0.40300
O 	O 	0.68310 0.93968 0.86250 -0.28700
O 	O 	0.79962 0.16548 0.86510 -0.23100
N 	N 	0.92050 0.08320 0.35630 -0.19000
N 	N 	0.67850 0.13408 0.00390 -0.24600
N 	N 	0.47390 0.19894 0.84630 -0.20500
N 	N 	0.48510 0.28784 0.65240 -0.17200
C 	C 	0.81780 0.11053 0.25210 -0.03600
H 	H 	0.76560 0.13790 0.28030 0.03900
C 	C 	0.78550 0.10015 0.10430 0.09700
C 	C 	0.96360 0.02704 0.17240 -0.04200
H 	H 	0.01380 0.99750 0.14750 0.04600
C 	C 	0.99250 0.04189 0.31580 0.02500
H 	H 	0.06430 0.02270 0.38740 0.00900
C 	C 	0.85870 0.05643 0.06420 -0.08500
H 	H 	0.83810 0.04690 0.96630 0.07800
C 	C 	0.37100 0.23664 0.78410 0.02200
H 	H 	0.29400 0.23260 0.80500 0.01500
C 	C 	0.37850 0.28164 0.68870 0.01100
H 	H 	0.30690 0.30840 0.64860 0.03000
C 	C 	0.58650 0.24901 0.71350 0.03800
H 	H 	0.66150 0.25160 0.68840 0.03200
C 	C 	0.58260 0.20486 0.81370 -0.00800
C 	C 	0.69890 0.16427 0.89710 0.18400
C 	C 	0.68520 0.11602 0.53080 0.34600
C 	C 	0.58040 0.08639 0.57660 -0.10300
C 	C 	0.61310 0.03508 0.66730 0.04200
H 	H 	0.69710 0.01720 0.69220 0.04300
C 	C 	0.45430 0.11195 0.53720 0.04300
H 	H 	0.43150 0.14580 0.47540 0.04500
C 	C 	0.22700 0.11780 0.54780 0.33500
C 	C 	0.36080 0.08726 0.58960 -0.11400
C 	C 	0.39540 0.03640 0.68230 0.02600
H 	H 	0.33380 0.02000 0.71810 0.03700
C 	C 	0.52140 0.01021 0.72130 -0.11000
C 	C 	0.56520 0.95686 0.82480 0.33000
Cu	Cu	0.03656 0.61005 0.93618 0.88000
Cu	Cu	0.49185 0.36588 0.49597 0.87500
O 	O 	0.21034 0.58348 0.94550 -0.40900
O 	O 	0.33309 0.66845 0.02080 -0.28500
O 	O 	0.84473 0.60078 0.87885 -0.42000
O 	O 	0.80580 0.65644 0.04920 -0.28600
O 	O 	0.52250 0.43373 0.63180 -0.40300
O 	O 	0.31690 0.43968 0.63750 -0.28800
O 	O 	0.20038 0.66548 0.63490 -0.23100
N 	N 	0.07950 0.58320 0.14370 -0.19100
N 	N 	0.32150 0.63408 0.49610 -0.24600
N 	N 	0.52610 0.69894 0.65370 -0.20500
N 	N 	0.51490 0.78784 0.84760 -0.17100
C 	C 	0.18220 0.61053 0.24790 -0.03500
H 	H 	0.23440 0.63790 0.21970 0.03900
C 	C 	0.21450 0.60015 0.39570 0.09600
C 	C 	0.03640 0.52704 0.32760 -0.04400
H 	H 	0.98620 0.49750 0.35250 0.04600
C 	C 	0.00750 0.54189 0.18420 0.03400
H 	H 	0.93570 0.52270 0.11260 0.00200
C 	C 	0.14130 0.55643 0.43580 -0.08200
H 	H 	0.16190 0.54690 0.53370 0.07700
C 	C 	0.62900 0.73664 0.71590 0.02200
H 	H 	0.70600 0.73260 0.69500 0.01600
C 	C 	0.62150 0.78164 0.81130 0.01100
H 	H 	0.69310 0.80840 0.85140 0.03000
C 	C 	0.41350 0.74901 0.78650 0.03800
H 	H 	0.33850 0.75160 0.81160 0.03200
C 	C 	0.41740 0.70486 0.68630 -0.00800
C 	C 	0.30110 0.66427 0.60290 0.18500
C 	C 	0.31480 0.61602 0.96920 0.34500
C 	C 	0.41960 0.58639 0.92340 -0.10400
C 	C 	0.38690 0.53508 0.83270 0.04100
H 	H 	0.30290 0.51720 0.80780 0.04400
C 	C 	0.54570 0.61195 0.96280 0.04500
H 	H 	0.56850 0.64580 0.02460 0.04300
C 	C 	0.77300 0.61780 0.95220 0.33900
C 	C 	0.63920 0.58726 0.91040 -0.11500
C 	C 	0.60460 0.53640 0.81770 0.02600
H 	H 	0.66620 0.52000 0.78190 0.03700
C 	C 	0.47860 0.51021 0.77870 -0.10900
C 	C 	0.43480 0.45686 0.67520 0.33000
Cu	Cu	0.03656 0.88995 0.43618 0.88100
Cu	Cu	0.49185 0.13412 0.99597 0.87400
O 	O 	0.21034 0.91652 0.44550 -0.40900
O 	O 	0.33309 0.83155 0.52080 -0.28600
O 	O 	0.84473 0.89922 0.37885 -0.42100
O 	O 	0.80580 0.84356 0.54920 -0.28200
O 	O 	0.52250 0.06627 0.13180 -0.40300
O 	O 	0.31690 0.06032 0.13750 -0.28700
O 	O 	0.20038 0.83452 0.13490 -0.23100
N 	N 	0.07950 0.91680 0.64370 -0.19000
N 	N 	0.32150 0.86592 0.99610 -0.24600
N 	N 	0.52610 0.80106 0.15370 -0.20500
N 	N 	0.51490 0.71216 0.34760 -0.17200
C 	C 	0.18220 0.88947 0.74790 -0.03600
H 	H 	0.23440 0.86210 0.71970 0.03900
C 	C 	0.21450 0.89985 0.89570 0.09700
C 	C 	0.03640 0.97296 0.82760 -0.04200
H 	H 	0.98620 0.00250 0.85250 0.04600
C 	C 	0.00750 0.95811 0.68420 0.02500
H 	H 	0.93570 0.97730 0.61260 0.00900
C 	C 	0.14130 0.94357 0.93580 -0.08500
H 	H 	0.16190 0.95310 0.03370 0.07800
C 	C 	0.62900 0.76336 0.21590 0.02200
H 	H 	0.70600 0.76740 0.19500 0.01500
C 	C 	0.62150 0.71836 0.31130 0.01100
H 	H 	0.69310 0.69160 0.35140 0.03000
C 	C 	0.41350 0.75099 0.28650 0.03800
H 	H 	0.33850 0.74840 0.31160 0.03200
C 	C 	0.41740 0.79514 0.18630 -0.00800
C 	C 	0.30110 0.83573 0.10290 0.18400
C 	C 	0.31480 0.88398 0.46920 0.34600
C 	C 	0.41960 0.91361 0.42340 -0.10300
C 	C 	0.38690 0.96492 0.33270 0.04200
H 	H 	0.30290 0.98280 0.30780 0.04300
C 	C 	0.54570 0.88805 0.46280 0.04300
H 	H 	0.56850 0.85420 0.52460 0.04500
C 	C 	0.77300 0.88220 0.45220 0.33500
C 	C 	0.63920 0.91274 0.41040 -0.11400
C 	C 	0.60460 0.96360 0.31770 0.02600
H 	H 	0.66620 0.98000 0.28190 0.03700
C 	C 	0.47860 0.98979 0.27870 -0.11000
C 	C 	0.43480 0.04314 0.17520 0.33000
Cu	Cu	0.96344 0.38995 0.06382 0.88000
Cu	Cu	0.50815 0.63412 0.50403 0.87500
O 	O 	0.78966 0.41652 0.05450 -0.40900
O 	O 	0.66691 0.33155 0.97920 -0.28500
O 	O 	0.15527 0.39922 0.12115 -0.42000
O 	O 	0.19420 0.34356 0.95080 -0.28600
O 	O 	0.47750 0.56627 0.36820 -0.40300
O 	O 	0.68310 0.56032 0.36250 -0.28800
O 	O 	0.79962 0.33452 0.36510 -0.23100
N 	N 	0.92050 0.41680 0.85630 -0.19100
N 	N 	0.67850 0.36592 0.50390 -0.24600
N 	N 	0.47390 0.30106 0.34630 -0.20500
N 	N 	0.48510 0.21216 0.15240 -0.17100
C 	C 	0.81780 0.38947 0.75210 -0.03500
H 	H 	0.76560 0.36210 0.78030 0.03900
C 	C 	0.78550 0.39985 0.60430 0.09600
C 	C 	0.96360 0.47296 0.67240 -0.04400
H 	H 	0.01380 0.50250 0.64750 0.04600
C 	C 	0.99250 0.45811 0.81580 0.03400
H 	H 	0.06430 0.47730 0.88740 0.00200
C 	C 	0.85870 0.44357 0.56420 -0.08200
H 	H 	0.83810 0.45310 0.46630 0.07700
C 	C 	0.37100 0.26336 0.28410 0.02200
H 	H 	0.29400 0.26740 0.30500 0.01600
C 	C 	0.37850 0.21836 0.18870 0.01100
H 	H 	0.30690 0.19160 0.14860 0.03000
C 	C 	0.58650 0.25099 0.21350 0.03800
H 	H 	0.66150 0.24840 0.18840 0.03200
C 	C 	0.58260 0.29514 0.31370 -0.00800
C 	C 	0.69890 0.33573 0.39710 0.18500
C 	C 	0.68520 0.38398 0.03080 0.34500
C 	C 	0.58040 0.41361 0.07660 -0.10400
C 	C 	0.61310 0.46492 0.16730 0.04100
H 	H 	0.69710 0.48280 0.19220 0.04400
C 	C 	0.45430 0.38805 0.03720 0.04500
H 	H 	0.43150 0.35420 0.97540 0.04300
C 	C 	0.22700 0.38220 0.04780 0.33900
C 	C 	0.36080 0.41274 0.08960 -0.11500
C 	C 	0.39540 0.46360 0.18230 0.02600
H 	H 	0.33380 0.48000 0.21810 0.03700
C 	C 	0.52140 0.48979 0.22130 -0.10900
C 	C 	0.56520 0.54314 0.32480 0.33000
