data_crystal

_cell_length_a 38.01200
_cell_length_b 38.01200
_cell_length_c 29.60300
_cell_angle_alpha 90.00000
_cell_angle_beta  90.00000
_cell_angle_gamma 120.00000

_symmetry_space_group_name_	'P 1'
_symmetry_space_group_name_H-M	'P 1'

loop_
_symmetry_equiv_pos_as_xyz
  x,y,z

loop_
_atom_site_label
_atom_site_type_symbol
_atom_site_fract_x
_atom_site_fract_y
_atom_site_fract_z
_atom_site_charge
Co	Co	0.23329 0.10742 0.95255 1.15000
O 	O 	0.24285 0.08148 0.01165 -0.40400
O 	O 	0.29570 0.13040 0.97715 -0.49300
O 	O 	0.49771 0.10114 0.24473 -0.42600
O 	O 	0.42890 0.24002 0.93220 -0.46000
O 	O 	0.36367 0.20459 0.95099 -0.43600
O 	O 	0.46199 0.03555 0.22508 -0.43500
N 	N 	0.02244 0.04167 0.94285 -0.13800
N 	N 	0.16931 0.07812 0.95111 -0.24300
C 	C 	0.37467 0.12688 0.07630 -0.10000
H 	H 	0.40210 0.14630 0.07690 0.06900
C 	C 	0.03951 0.01835 0.94293 0.09200
C 	C 	0.08476 0.03903 0.94478 0.07500
C 	C 	0.38709 0.08973 0.13882 0.04500
C 	C 	0.34939 0.13033 0.04462 0.03600
H 	H 	0.36020 0.15160 0.02400 0.03200
C 	C 	0.40663 0.26410 0.99245 -0.14500
C 	C 	0.44008 0.07859 0.19582 -0.11800
C 	C 	0.30805 0.10208 0.04379 -0.11000
C 	C 	0.46927 0.07126 0.22390 0.38600
C 	C 	0.10491 0.01742 0.94783 -0.15800
H 	H 	0.09040 0.98920 0.94800 0.09600
C 	C 	0.28071 0.10461 0.00899 0.33900
C 	C 	0.10843 0.08137 0.94488 -0.14200
H 	H 	0.09620 0.09730 0.94280 0.08800
C 	C 	0.35937 0.09475 0.10722 0.03900
C 	C 	0.44984 0.11722 0.18163 0.04200
H 	H 	0.47400 0.13970 0.19100 0.02600
C 	C 	0.39884 0.23367 0.95568 0.40600
C 	C 	0.14993 0.09921 0.94809 0.08400
H 	H 	0.16530 0.12740 0.94820 -0.01400
C 	C 	0.40398 0.04567 0.18165 0.04300
H 	H 	0.39720 0.01960 0.19080 0.03200
C 	C 	0.29230 0.07086 0.07533 0.03400
H 	H 	0.26460 0.05210 0.07560 0.03000
C 	C 	0.39504 0.27957 0.06739 -0.12900
H 	H 	0.38030 0.27110 0.09410 0.07500
C 	C 	0.37770 0.05111 0.15393 -0.10900
H 	H 	0.35330 0.02860 0.14520 0.06900
C 	C 	0.31785 0.06757 0.10643 -0.10600
H 	H 	0.30680 0.04650 0.12740 0.06500
C 	C 	0.42369 0.12243 0.15358 -0.11100
H 	H 	0.43070 0.14850 0.14430 0.06800
C 	C 	0.14663 0.03788 0.95063 0.09500
H 	H 	0.15970 0.02270 0.95230 -0.00800
C 	C 	0.38543 0.25205 0.03147 0.06500
H 	H 	0.36440 0.22540 0.03460 0.01800
C 	C 	0.44590 0.33135 0.02232 -0.13100
H 	H 	0.46560 0.35840 0.01820 0.07700
C 	C 	0.42620 0.31900 0.06310 0.05500
C 	C 	0.43675 0.30400 0.98745 0.06800
H 	H 	0.45100 0.31260 0.96040 0.01600
Co	Co	0.89995 0.44075 0.28589 1.15000
O 	O 	0.90952 0.41481 0.34498 -0.40300
O 	O 	0.96237 0.46373 0.31048 -0.49000
O 	O 	0.16438 0.43447 0.57806 -0.42800
O 	O 	0.09557 0.57335 0.26553 -0.46200
O 	O 	0.03034 0.53792 0.28432 -0.43900
O 	O 	0.12866 0.36888 0.55841 -0.43500
N 	N 	0.68911 0.37500 0.27618 -0.13700
N 	N 	0.83598 0.41145 0.28444 -0.24200
C 	C 	0.04134 0.46021 0.40963 -0.08600
H 	H 	0.06877 0.47963 0.41023 0.06300
C 	C 	0.70618 0.35168 0.27626 0.09900
C 	C 	0.75143 0.37236 0.27811 0.06700
C 	C 	0.05376 0.42306 0.47215 0.05200
C 	C 	0.01606 0.46366 0.37795 0.01500
H 	H 	0.02687 0.48493 0.35733 0.03700
C 	C 	0.07330 0.59743 0.32578 -0.14700
C 	C 	0.10675 0.41192 0.52915 -0.12100
C 	C 	0.97472 0.43541 0.37712 -0.09400
C 	C 	0.13594 0.40459 0.55723 0.38600
C 	C 	0.77158 0.35075 0.28116 -0.14100
H 	H 	0.75707 0.32253 0.28133 0.08700
C 	C 	0.94738 0.43794 0.34232 0.33400
C 	C 	0.77510 0.41470 0.27821 -0.13700
H 	H 	0.76287 0.43063 0.27613 0.08600
C 	C 	0.02604 0.42808 0.44055 0.02200
C 	C 	0.11651 0.45055 0.51496 0.04500
H 	H 	0.14067 0.47303 0.52433 0.02500
C 	C 	0.06551 0.56700 0.28901 0.40700
C 	C 	0.81660 0.43254 0.28142 0.08100
H 	H 	0.83197 0.46073 0.28153 -0.01300
C 	C 	0.07065 0.37900 0.51498 0.04700
H 	H 	0.06387 0.35293 0.52413 0.03100
C 	C 	0.95897 0.40419 0.40866 0.01900
H 	H 	0.93127 0.38543 0.40893 0.03600
C 	C 	0.06171 0.61290 0.40072 -0.13000
H 	H 	0.04697 0.60443 0.42743 0.07500
C 	C 	0.04437 0.38444 0.48726 -0.11400
H 	H 	0.01997 0.36193 0.47853 0.07000
C 	C 	0.98452 0.40090 0.43976 -0.08500
H 	H 	0.97347 0.37983 0.46073 0.06100
C 	C 	0.09036 0.45576 0.48691 -0.11600
H 	H 	0.09737 0.48183 0.47763 0.07000
C 	C 	0.81330 0.37121 0.28396 0.08700
H 	H 	0.82637 0.35603 0.28563 -0.00400
C 	C 	0.05210 0.58538 0.36480 0.06600
H 	H 	0.03107 0.55873 0.36793 0.01600
C 	C 	0.11257 0.66468 0.35565 -0.13200
H 	H 	0.13227 0.69173 0.35153 0.07700
C 	C 	0.09287 0.65233 0.39643 0.05500
C 	C 	0.10342 0.63733 0.32078 0.06800
H 	H 	0.11767 0.64593 0.29373 0.01500
Co	Co	0.56662 0.77408 0.61922 1.14900
O 	O 	0.57618 0.74815 0.67832 -0.40400
O 	O 	0.62903 0.79707 0.64382 -0.49400
O 	O 	0.83104 0.76781 0.91140 -0.42700
O 	O 	0.76223 0.90669 0.59887 -0.46000
O 	O 	0.69700 0.87126 0.61766 -0.43600
O 	O 	0.79532 0.70222 0.89175 -0.43500
N 	N 	0.35577 0.70834 0.60952 -0.13700
N 	N 	0.50264 0.74479 0.61778 -0.24200
C 	C 	0.70800 0.79355 0.74297 -0.10100
H 	H 	0.73543 0.81297 0.74357 0.06800
C 	C 	0.37284 0.68502 0.60960 0.09900
C 	C 	0.41809 0.70570 0.61145 0.06700
C 	C 	0.72042 0.75640 0.80549 0.04400
C 	C 	0.68272 0.79700 0.71129 0.03500
H 	H 	0.69353 0.81827 0.69067 0.03100
C 	C 	0.73996 0.93077 0.65912 -0.13900
C 	C 	0.77341 0.74526 0.86249 -0.11800
C 	C 	0.64138 0.76875 0.71046 -0.11100
C 	C 	0.80260 0.73793 0.89057 0.38500
C 	C 	0.43824 0.68409 0.61450 -0.14100
H 	H 	0.42373 0.65587 0.61467 0.08700
C 	C 	0.61404 0.77128 0.67566 0.33900
C 	C 	0.44176 0.74804 0.61155 -0.13700
H 	H 	0.42953 0.76397 0.60947 0.08600
C 	C 	0.69270 0.76142 0.77389 0.03900
C 	C 	0.78317 0.78389 0.84830 0.04200
H 	H 	0.80733 0.80637 0.85767 0.02700
C 	C 	0.73217 0.90034 0.62235 0.40400
C 	C 	0.48326 0.76588 0.61476 0.08100
H 	H 	0.49863 0.79407 0.61487 -0.01300
C 	C 	0.73731 0.71234 0.84832 0.04300
H 	H 	0.73053 0.68627 0.85747 0.03300
C 	C 	0.62563 0.73753 0.74200 0.03400
H 	H 	0.59793 0.71877 0.74227 0.03100
C 	C 	0.72837 0.94624 0.73406 -0.12300
H 	H 	0.71363 0.93777 0.76077 0.07400
C 	C 	0.71103 0.71778 0.82060 -0.10800
H 	H 	0.68663 0.69527 0.81187 0.07000
C 	C 	0.65118 0.73424 0.77310 -0.10600
H 	H 	0.64013 0.71317 0.79407 0.06600
C 	C 	0.75702 0.78910 0.82025 -0.11000
H 	H 	0.76403 0.81517 0.81097 0.06900
C 	C 	0.47996 0.70455 0.61730 0.08700
H 	H 	0.49303 0.68937 0.61897 -0.00400
C 	C 	0.71876 0.91872 0.69814 0.06000
H 	H 	0.69773 0.89207 0.70127 0.02000
C 	C 	0.77923 0.99802 0.68899 -0.11400
H 	H 	0.79893 0.02507 0.68487 0.06800
C 	C 	0.75953 0.98567 0.72977 0.05000
C 	C 	0.77008 0.97067 0.65412 0.05800
H 	H 	0.78433 0.97927 0.62707 0.02100
Co	Co	0.89258 0.12587 0.95255 1.14900
O 	O 	0.91852 0.16137 0.01165 -0.40400
O 	O 	0.86960 0.16530 0.97715 -0.49400
O 	O 	0.89886 0.39657 0.24473 -0.42700
O 	O 	0.75998 0.18888 0.93220 -0.46100
O 	O 	0.79541 0.15908 0.95099 -0.43800
O 	O 	0.96445 0.42644 0.22508 -0.43200
N 	N 	0.95833 0.98077 0.94285 -0.13600
N 	N 	0.92188 0.09119 0.95111 -0.24200
C 	C 	0.87312 0.24779 0.07630 -0.10100
H 	H 	0.85370 0.25580 0.07690 0.06800
C 	C 	0.98165 0.02116 0.94293 0.09900
C 	C 	0.96097 0.04573 0.94478 0.06700
C 	C 	0.91027 0.29736 0.13882 0.04400
C 	C 	0.86967 0.21906 0.04462 0.03500
H 	H 	0.84840 0.20860 0.02400 0.03100
C 	C 	0.73590 0.14253 0.99245 -0.14600
C 	C 	0.92141 0.36149 0.19582 -0.11700
C 	C 	0.89792 0.20597 0.04379 -0.11100
C 	C 	0.92874 0.39801 0.22390 0.38500
C 	C 	0.98258 0.08749 0.94783 -0.12900
H 	H 	0.01080 0.10120 0.94800 0.07900
C 	C 	0.89539 0.17610 0.00899 0.33900
C 	C 	0.91863 0.02706 0.94488 -0.14800
H 	H 	0.90270 0.99890 0.94280 0.09400
C 	C 	0.90525 0.26462 0.10722 0.04000
C 	C 	0.88278 0.33262 0.18163 0.04100
H 	H 	0.86030 0.33430 0.19100 0.02700
C 	C 	0.76633 0.16517 0.95568 0.40600
C 	C 	0.90079 0.05072 0.94809 0.08600
H 	H 	0.87260 0.03790 0.94820 -0.01600
C 	C 	0.95433 0.35831 0.18165 0.04300
H 	H 	0.98040 0.37760 0.19080 0.03500
C 	C 	0.92914 0.22144 0.07533 0.03400
H 	H 	0.94790 0.21250 0.07560 0.03200
C 	C 	0.72043 0.11547 0.06739 -0.12900
H 	H 	0.72890 0.10920 0.09410 0.07500
C 	C 	0.94889 0.32659 0.15393 -0.10800
H 	H 	0.97140 0.32470 0.14520 0.07100
C 	C 	0.93243 0.25028 0.10643 -0.10500
H 	H 	0.95350 0.26030 0.12740 0.06700
C 	C 	0.87757 0.30126 0.15358 -0.11000
H 	H 	0.85150 0.28220 0.14430 0.06800
C 	C 	0.96212 0.10875 0.95063 0.08200
H 	H 	0.97730 0.13700 0.95230 -0.00100
C 	C 	0.74795 0.13338 0.03147 0.06500
H 	H 	0.77460 0.13900 0.03460 0.01800
C 	C 	0.66865 0.11455 0.02232 -0.13100
H 	H 	0.64160 0.10720 0.01820 0.07700
C 	C 	0.68100 0.10720 0.06310 0.05400
C 	C 	0.69600 0.13275 0.98745 0.06800
H 	H 	0.68740 0.13840 0.96040 0.01600
Co	Co	0.55925 0.45920 0.28589 1.14900
O 	O 	0.58519 0.49470 0.34498 -0.40400
O 	O 	0.53627 0.49863 0.31048 -0.49400
O 	O 	0.56553 0.72990 0.57806 -0.42700
O 	O 	0.42665 0.52221 0.26553 -0.46100
O 	O 	0.46208 0.49241 0.28432 -0.43700
O 	O 	0.63112 0.75977 0.55841 -0.43500
N 	N 	0.62500 0.31410 0.27618 -0.13700
N 	N 	0.58855 0.42452 0.28444 -0.24200
C 	C 	0.53979 0.58112 0.40963 -0.10100
H 	H 	0.52037 0.58913 0.41023 0.06800
C 	C 	0.64832 0.35449 0.27626 0.09900
C 	C 	0.62764 0.37906 0.27811 0.06700
C 	C 	0.57694 0.63069 0.47215 0.04400
C 	C 	0.53634 0.55239 0.37795 0.03500
H 	H 	0.51507 0.54193 0.35733 0.03100
C 	C 	0.40257 0.47586 0.32578 -0.14600
C 	C 	0.58808 0.69482 0.52915 -0.11800
C 	C 	0.56459 0.53930 0.37712 -0.11100
C 	C 	0.59541 0.73134 0.55723 0.38500
C 	C 	0.64925 0.42082 0.28116 -0.14100
H 	H 	0.67747 0.43453 0.28133 0.08700
C 	C 	0.56206 0.50943 0.34232 0.33900
C 	C 	0.58530 0.36039 0.27821 -0.13700
H 	H 	0.56937 0.33223 0.27613 0.08600
C 	C 	0.57192 0.59795 0.44055 0.03900
C 	C 	0.54945 0.66595 0.51496 0.04200
H 	H 	0.52697 0.66763 0.52433 0.02700
C 	C 	0.43300 0.49850 0.28901 0.40600
C 	C 	0.56746 0.38405 0.28142 0.08100
H 	H 	0.53927 0.37123 0.28153 -0.01300
C 	C 	0.62100 0.69164 0.51498 0.04300
H 	H 	0.64707 0.71093 0.52413 0.03300
C 	C 	0.59581 0.55477 0.40866 0.03400
H 	H 	0.61457 0.54583 0.40893 0.03100
C 	C 	0.38710 0.44880 0.40072 -0.12900
H 	H 	0.39557 0.44253 0.42743 0.07500
C 	C 	0.61556 0.65992 0.48726 -0.10800
H 	H 	0.63807 0.65803 0.47853 0.07000
C 	C 	0.59910 0.58361 0.43976 -0.10500
H 	H 	0.62017 0.59363 0.46073 0.06600
C 	C 	0.54424 0.63459 0.48691 -0.11100
H 	H 	0.51817 0.61553 0.47763 0.06800
C 	C 	0.62879 0.44208 0.28396 0.08700
H 	H 	0.64397 0.47033 0.28563 -0.00400
C 	C 	0.41462 0.46671 0.36480 0.06500
H 	H 	0.44127 0.47233 0.36793 0.01800
C 	C 	0.33532 0.44788 0.35565 -0.13100
H 	H 	0.30827 0.44053 0.35153 0.07700
C 	C 	0.34767 0.44053 0.39643 0.05500
C 	C 	0.36267 0.46608 0.32078 0.06800
H 	H 	0.35407 0.47173 0.29373 0.01600
Co	Co	0.22592 0.79254 0.61922 1.14900
O 	O 	0.25185 0.82804 0.67832 -0.40400
O 	O 	0.20293 0.83197 0.64382 -0.49400
O 	O 	0.23219 0.06324 0.91140 -0.42900
O 	O 	0.09331 0.85555 0.59887 -0.46200
O 	O 	0.12874 0.82575 0.61766 -0.43800
O 	O 	0.29778 0.09311 0.89175 -0.43600
N 	N 	0.29166 0.64744 0.60952 -0.13700
N 	N 	0.25521 0.75786 0.61778 -0.24200
C 	C 	0.20645 0.91446 0.74297 -0.09900
H 	H 	0.18703 0.92247 0.74357 0.06800
C 	C 	0.31498 0.68783 0.60960 0.09900
C 	C 	0.29430 0.71240 0.61145 0.06700
C 	C 	0.24360 0.96403 0.80549 0.05000
C 	C 	0.20300 0.88573 0.71129 0.03400
H 	H 	0.18173 0.87527 0.69067 0.03200
C 	C 	0.06923 0.80920 0.65912 -0.15200
C 	C 	0.25474 0.02816 0.86249 -0.13100
C 	C 	0.23125 0.87264 0.71046 -0.11000
C 	C 	0.26207 0.06468 0.89057 0.38900
C 	C 	0.31591 0.75416 0.61450 -0.14100
H 	H 	0.34413 0.76787 0.61467 0.08700
C 	C 	0.22872 0.84277 0.67566 0.33900
C 	C 	0.25196 0.69373 0.61155 -0.13700
H 	H 	0.23603 0.66557 0.60947 0.08600
C 	C 	0.23858 0.93129 0.77389 0.03800
C 	C 	0.21611 0.99929 0.84830 0.06700
H 	H 	0.19363 0.00097 0.85767 0.01400
C 	C 	0.09966 0.83184 0.62235 0.40800
C 	C 	0.23412 0.71739 0.61476 0.08100
H 	H 	0.20593 0.70457 0.61487 -0.01300
C 	C 	0.28766 0.02498 0.84832 0.04300
H 	H 	0.31373 0.04427 0.85747 0.03200
C 	C 	0.26247 0.88811 0.74200 0.03300
H 	H 	0.28123 0.87917 0.74227 0.03100
C 	C 	0.05376 0.78214 0.73406 -0.13500
H 	H 	0.06223 0.77587 0.76077 0.07700
C 	C 	0.28222 0.99326 0.82060 -0.10600
H 	H 	0.30473 0.99137 0.81187 0.07000
C 	C 	0.26576 0.91695 0.77310 -0.10400
H 	H 	0.28683 0.92697 0.79407 0.06600
C 	C 	0.21090 0.96793 0.82025 -0.12300
H 	H 	0.18483 0.94887 0.81097 0.07300
C 	C 	0.29545 0.77542 0.61730 0.08700
H 	H 	0.31063 0.80367 0.61897 -0.00400
C 	C 	0.08128 0.80005 0.69814 0.07100
H 	H 	0.10793 0.80567 0.70127 0.01600
C 	C 	0.00198 0.78122 0.68899 -0.14900
H 	H 	0.97493 0.77387 0.68487 0.08600
C 	C 	0.01433 0.77387 0.72977 0.06000
C 	C 	0.02933 0.79942 0.65412 0.07800
H 	H 	0.02073 0.80507 0.62707 0.01100
Co	Co	0.87413 0.76671 0.95255 1.15000
O 	O 	0.83863 0.75715 0.01165 -0.40400
O 	O 	0.83470 0.70430 0.97715 -0.49400
O 	O 	0.60343 0.50229 0.24473 -0.42700
O 	O 	0.81112 0.57110 0.93220 -0.46100
O 	O 	0.84092 0.63633 0.95099 -0.43700
O 	O 	0.57356 0.53801 0.22508 -0.43500
N 	N 	0.01923 0.97756 0.94285 -0.13800
N 	N 	0.90881 0.83069 0.95111 -0.24000
C 	C 	0.75221 0.62533 0.07630 -0.10100
H 	H 	0.74420 0.59790 0.07690 0.06800
C 	C 	0.97884 0.96049 0.94293 0.10700
C 	C 	0.95427 0.91524 0.94478 0.06000
C 	C 	0.70264 0.61291 0.13882 0.04400
C 	C 	0.78094 0.65061 0.04462 0.03500
H 	H 	0.79140 0.63980 0.02400 0.03100
C 	C 	0.85747 0.59337 0.99245 -0.14600
C 	C 	0.63851 0.55992 0.19582 -0.11800
C 	C 	0.79403 0.69195 0.04379 -0.11100
C 	C 	0.60199 0.53073 0.22390 0.38500
C 	C 	0.91251 0.89509 0.94783 -0.13600
H 	H 	0.89880 0.90960 0.94800 0.08500
C 	C 	0.82390 0.71929 0.00899 0.33900
C 	C 	0.97294 0.89157 0.94488 -0.12000
H 	H 	0.00110 0.90380 0.94280 0.07700
C 	C 	0.73538 0.64063 0.10722 0.03900
C 	C 	0.66738 0.55016 0.18163 0.04200
H 	H 	0.66570 0.52600 0.19100 0.02700
C 	C 	0.83483 0.60116 0.95568 0.40600
C 	C 	0.94928 0.85007 0.94809 0.07400
H 	H 	0.96210 0.83470 0.94820 -0.00900
C 	C 	0.64169 0.59602 0.18165 0.04300
H 	H 	0.62240 0.60280 0.19080 0.03300
C 	C 	0.77856 0.70770 0.07533 0.03400
H 	H 	0.78750 0.73540 0.07560 0.03100
C 	C 	0.88453 0.60496 0.06739 -0.12900
H 	H 	0.89080 0.61970 0.09410 0.07600
C 	C 	0.67341 0.62230 0.15393 -0.10800
H 	H 	0.67530 0.64670 0.14520 0.07000
C 	C 	0.74972 0.68215 0.10643 -0.10500
H 	H 	0.73970 0.69320 0.12740 0.06600
C 	C 	0.69874 0.57631 0.15358 -0.11100
H 	H 	0.71780 0.56930 0.14430 0.06800
C 	C 	0.89125 0.85337 0.95063 0.08400
H 	H 	0.86300 0.84030 0.95230 -0.00300
C 	C 	0.86662 0.61457 0.03147 0.06600
H 	H 	0.86100 0.63560 0.03460 0.01800
C 	C 	0.88545 0.55410 0.02232 -0.13100
H 	H 	0.89280 0.53440 0.01820 0.07700
C 	C 	0.89280 0.57380 0.06310 0.05500
C 	C 	0.86725 0.56325 0.98745 0.06800
H 	H 	0.86160 0.54900 0.96040 0.01600
Co	Co	0.54080 0.10005 0.28589 1.14900
O 	O 	0.50530 0.09048 0.34498 -0.40600
O 	O 	0.50137 0.03763 0.31048 -0.49700
O 	O 	0.27010 0.83562 0.57806 -0.42700
O 	O 	0.47779 0.90443 0.26553 -0.46100
O 	O 	0.50759 0.96966 0.28432 -0.43400
O 	O 	0.24023 0.87134 0.55841 -0.43400
N 	N 	0.68590 0.31089 0.27618 -0.13700
N 	N 	0.57548 0.16402 0.28444 -0.24200
C 	C 	0.41888 0.95866 0.40963 -0.11600
H 	H 	0.41087 0.93123 0.41023 0.07400
C 	C 	0.64551 0.29382 0.27626 0.09900
C 	C 	0.62094 0.24857 0.27811 0.06700
C 	C 	0.36931 0.94624 0.47215 0.03700
C 	C 	0.44761 0.98394 0.37795 0.05500
H 	H 	0.45807 0.97313 0.35733 0.02600
C 	C 	0.52414 0.92670 0.32578 -0.14400
C 	C 	0.30518 0.89325 0.52915 -0.11500
C 	C 	0.46070 0.02528 0.37712 -0.12700
C 	C 	0.26866 0.86406 0.55723 0.38500
C 	C 	0.57918 0.22842 0.28116 -0.14100
H 	H 	0.56547 0.24293 0.28133 0.08700
C 	C 	0.49057 0.05262 0.34232 0.34400
C 	C 	0.63961 0.22490 0.27821 -0.13700
H 	H 	0.66777 0.23713 0.27613 0.08600
C 	C 	0.40205 0.97396 0.44055 0.05700
C 	C 	0.33405 0.88349 0.51496 0.03800
H 	H 	0.33237 0.85933 0.52433 0.02800
C 	C 	0.50150 0.93449 0.28901 0.40600
C 	C 	0.61595 0.18340 0.28142 0.08100
H 	H 	0.62877 0.16803 0.28153 -0.01300
C 	C 	0.30836 0.92935 0.51498 0.04000
H 	H 	0.28907 0.93613 0.52413 0.03500
C 	C 	0.44523 0.04103 0.40866 0.04900
H 	H 	0.45417 0.06873 0.40893 0.02500
C 	C 	0.55120 0.93829 0.40072 -0.12800
H 	H 	0.55747 0.95303 0.42743 0.07600
C 	C 	0.34008 0.95563 0.48726 -0.10300
H 	H 	0.34197 0.98003 0.47853 0.06900
C 	C 	0.41639 0.01548 0.43976 -0.12600
H 	H 	0.40637 0.02653 0.46073 0.07100
C 	C 	0.36541 0.90964 0.48691 -0.10500
H 	H 	0.38447 0.90263 0.47763 0.06600
C 	C 	0.55792 0.18670 0.28396 0.08700
H 	H 	0.52967 0.17363 0.28563 -0.00400
C 	C 	0.53329 0.94790 0.36480 0.06500
H 	H 	0.52767 0.96893 0.36793 0.01900
C 	C 	0.55212 0.88743 0.35565 -0.13100
H 	H 	0.55947 0.86773 0.35153 0.07700
C 	C 	0.55947 0.90713 0.39643 0.05500
C 	C 	0.53392 0.89658 0.32078 0.06700
H 	H 	0.52827 0.88233 0.29373 0.01600
Co	Co	0.20746 0.43338 0.61922 1.14900
O 	O 	0.17196 0.42382 0.67832 -0.40400
O 	O 	0.16803 0.37097 0.64382 -0.49400
O 	O 	0.93676 0.16896 0.91140 -0.42600
O 	O 	0.14445 0.23777 0.59887 -0.46100
O 	O 	0.17425 0.30300 0.61766 -0.43700
O 	O 	0.90689 0.20468 0.89175 -0.43400
N 	N 	0.35256 0.64423 0.60952 -0.13700
N 	N 	0.24214 0.49736 0.61778 -0.24200
C 	C 	0.08554 0.29200 0.74297 -0.10300
H 	H 	0.07753 0.26457 0.74357 0.06800
C 	C 	0.31217 0.62716 0.60960 0.09900
C 	C 	0.28760 0.58191 0.61145 0.06700
C 	C 	0.03597 0.27958 0.80549 0.03900
C 	C 	0.11427 0.31728 0.71129 0.03600
H 	H 	0.12473 0.30647 0.69067 0.03100
C 	C 	0.19080 0.26004 0.65912 -0.14600
C 	C 	0.97184 0.22659 0.86249 -0.10500
C 	C 	0.12736 0.35862 0.71046 -0.11100
C 	C 	0.93532 0.19740 0.89057 0.38100
C 	C 	0.24584 0.56176 0.61450 -0.14100
H 	H 	0.23213 0.57627 0.61467 0.08700
C 	C 	0.15723 0.38596 0.67566 0.33900
C 	C 	0.30627 0.55824 0.61155 -0.13700
H 	H 	0.33443 0.57047 0.60947 0.08600
C 	C 	0.06871 0.30730 0.77389 0.04100
C 	C 	0.00071 0.21683 0.84830 0.01600
H 	H 	0.99903 0.19267 0.85767 0.03900
C 	C 	0.16816 0.26783 0.62235 0.40600
C 	C 	0.28261 0.51674 0.61476 0.08100
H 	H 	0.29543 0.50137 0.61487 -0.01300
C 	C 	0.97502 0.26269 0.84832 0.04400
H 	H 	0.95573 0.26947 0.85747 0.03400
C 	C 	0.11189 0.37437 0.74200 0.03400
H 	H 	0.12083 0.40207 0.74227 0.03000
C 	C 	0.21786 0.27163 0.73406 -0.12900
H 	H 	0.22413 0.28637 0.76077 0.07500
C 	C 	0.00674 0.28897 0.82060 -0.11100
H 	H 	0.00863 0.31337 0.81187 0.06900
C 	C 	0.08305 0.34882 0.77310 -0.10700
H 	H 	0.07303 0.35987 0.79407 0.06600
C 	C 	0.03207 0.24298 0.82025 -0.09800
H 	H 	0.05113 0.23597 0.81097 0.06300
C 	C 	0.22458 0.52004 0.61730 0.08700
H 	H 	0.19633 0.50697 0.61897 -0.00400
C 	C 	0.19995 0.28124 0.69814 0.06500
H 	H 	0.19433 0.30227 0.70127 0.01800
C 	C 	0.21878 0.22077 0.68899 -0.13100
H 	H 	0.22613 0.20107 0.68487 0.07700
C 	C 	0.22613 0.24047 0.72977 0.05500
C 	C 	0.20058 0.22992 0.65412 0.06800
H 	H 	0.19493 0.21567 0.62707 0.01600
Co	Co	0.10742 0.23329 0.54745 1.14900
O 	O 	0.08148 0.24285 0.48835 -0.40500
O 	O 	0.13040 0.29570 0.52285 -0.49400
O 	O 	0.10114 0.49771 0.25527 -0.42700
O 	O 	0.24002 0.42890 0.56780 -0.46100
O 	O 	0.20459 0.36367 0.54901 -0.43700
O 	O 	0.03555 0.46199 0.27492 -0.43600
N 	N 	0.04167 0.02244 0.55715 -0.13900
N 	N 	0.07812 0.16931 0.54889 -0.24400
C 	C 	0.12688 0.37467 0.42370 -0.10100
H 	H 	0.14630 0.40210 0.42310 0.06800
C 	C 	0.01835 0.03951 0.55707 0.09100
C 	C 	0.03903 0.08476 0.55522 0.07400
C 	C 	0.08973 0.38709 0.36118 0.04400
C 	C 	0.13033 0.34939 0.45538 0.03500
H 	H 	0.15160 0.36020 0.47600 0.03100
C 	C 	0.26410 0.40663 0.50755 -0.14600
C 	C 	0.07859 0.44008 0.30418 -0.11900
C 	C 	0.10208 0.30805 0.45621 -0.11100
C 	C 	0.07126 0.46927 0.27610 0.38600
C 	C 	0.01742 0.10491 0.55217 -0.15800
H 	H 	0.98920 0.09040 0.55200 0.09600
C 	C 	0.10461 0.28071 0.49101 0.33900
C 	C 	0.08137 0.10843 0.55512 -0.14200
H 	H 	0.09730 0.09620 0.55720 0.08800
C 	C 	0.09475 0.35937 0.39278 0.03900
C 	C 	0.11722 0.44984 0.31837 0.04200
H 	H 	0.13970 0.47400 0.30900 0.02600
C 	C 	0.23367 0.39884 0.54432 0.40600
C 	C 	0.09921 0.14993 0.55191 0.08400
H 	H 	0.12740 0.16530 0.55180 -0.01400
C 	C 	0.04567 0.40398 0.31835 0.04300
H 	H 	0.01960 0.39720 0.30920 0.03200
C 	C 	0.07086 0.29230 0.42467 0.03400
H 	H 	0.05210 0.26460 0.42440 0.03000
C 	C 	0.27957 0.39504 0.43261 -0.12900
H 	H 	0.27110 0.38030 0.40590 0.07500
C 	C 	0.05111 0.37770 0.34607 -0.10900
H 	H 	0.02860 0.35330 0.35480 0.06900
C 	C 	0.06757 0.31785 0.39357 -0.10600
H 	H 	0.04650 0.30680 0.37260 0.06500
C 	C 	0.12243 0.42369 0.34642 -0.11100
H 	H 	0.14850 0.43070 0.35570 0.06800
C 	C 	0.03788 0.14663 0.54937 0.09500
H 	H 	0.02270 0.15970 0.54770 -0.00800
C 	C 	0.25205 0.38543 0.46853 0.06500
H 	H 	0.22540 0.36440 0.46540 0.01800
C 	C 	0.33135 0.44590 0.47768 -0.13100
H 	H 	0.35840 0.46560 0.48180 0.07700
C 	C 	0.31900 0.42620 0.43690 0.05500
C 	C 	0.30400 0.43675 0.51255 0.06800
H 	H 	0.31260 0.45100 0.53960 0.01600
Co	Co	0.77408 0.56662 0.88078 1.14900
O 	O 	0.74815 0.57618 0.82168 -0.40400
O 	O 	0.79707 0.62903 0.85618 -0.49400
O 	O 	0.76781 0.83104 0.58860 -0.42700
O 	O 	0.90669 0.76223 0.90113 -0.46000
O 	O 	0.87126 0.69700 0.88234 -0.43600
O 	O 	0.70222 0.79532 0.60825 -0.43500
N 	N 	0.70834 0.35577 0.89048 -0.13700
N 	N 	0.74479 0.50264 0.88222 -0.24200
C 	C 	0.79355 0.70800 0.75703 -0.10100
H 	H 	0.81297 0.73543 0.75643 0.06800
C 	C 	0.68502 0.37284 0.89040 0.09900
C 	C 	0.70570 0.41809 0.88855 0.06700
C 	C 	0.75640 0.72042 0.69451 0.04400
C 	C 	0.79700 0.68272 0.78871 0.03500
H 	H 	0.81827 0.69353 0.80933 0.03100
C 	C 	0.93077 0.73996 0.84088 -0.13900
C 	C 	0.74526 0.77341 0.63751 -0.11800
C 	C 	0.76875 0.64138 0.78954 -0.11100
C 	C 	0.73793 0.80260 0.60943 0.38500
C 	C 	0.68409 0.43824 0.88550 -0.14100
H 	H 	0.65587 0.42373 0.88533 0.08700
C 	C 	0.77128 0.61404 0.82434 0.33900
C 	C 	0.74804 0.44176 0.88845 -0.13700
H 	H 	0.76397 0.42953 0.89053 0.08600
C 	C 	0.76142 0.69270 0.72611 0.03900
C 	C 	0.78389 0.78317 0.65170 0.04200
H 	H 	0.80637 0.80733 0.64233 0.02700
C 	C 	0.90034 0.73217 0.87765 0.40400
C 	C 	0.76588 0.48326 0.88524 0.08100
H 	H 	0.79407 0.49863 0.88513 -0.01300
C 	C 	0.71234 0.73731 0.65168 0.04300
H 	H 	0.68627 0.73053 0.64253 0.03300
C 	C 	0.73753 0.62563 0.75800 0.03400
H 	H 	0.71877 0.59793 0.75773 0.03100
C 	C 	0.94624 0.72837 0.76594 -0.12300
H 	H 	0.93777 0.71363 0.73923 0.07400
C 	C 	0.71778 0.71103 0.67940 -0.10800
H 	H 	0.69527 0.68663 0.68813 0.07000
C 	C 	0.73424 0.65118 0.72690 -0.10600
H 	H 	0.71317 0.64013 0.70593 0.06600
C 	C 	0.78910 0.75702 0.67975 -0.11000
H 	H 	0.81517 0.76403 0.68903 0.06900
C 	C 	0.70455 0.47996 0.88270 0.08700
H 	H 	0.68937 0.49303 0.88103 -0.00400
C 	C 	0.91872 0.71876 0.80186 0.06000
H 	H 	0.89207 0.69773 0.79873 0.02000
C 	C 	0.99802 0.77923 0.81101 -0.11400
H 	H 	0.02507 0.79893 0.81513 0.06800
C 	C 	0.98567 0.75953 0.77023 0.05000
C 	C 	0.97067 0.77008 0.84588 0.05800
H 	H 	0.97927 0.78433 0.87293 0.02100
Co	Co	0.44075 0.89995 0.21411 1.15000
O 	O 	0.41481 0.90952 0.15502 -0.40300
O 	O 	0.46373 0.96237 0.18952 -0.49000
O 	O 	0.43447 0.16438 0.92194 -0.42800
O 	O 	0.57335 0.09557 0.23447 -0.46200
O 	O 	0.53792 0.03034 0.21568 -0.43900
O 	O 	0.36888 0.12866 0.94159 -0.43500
N 	N 	0.37500 0.68911 0.22382 -0.13700
N 	N 	0.41145 0.83598 0.21556 -0.24200
C 	C 	0.46021 0.04134 0.09037 -0.08600
H 	H 	0.47963 0.06877 0.08977 0.06300
C 	C 	0.35168 0.70618 0.22374 0.09900
C 	C 	0.37236 0.75143 0.22189 0.06700
C 	C 	0.42306 0.05376 0.02785 0.05200
C 	C 	0.46366 0.01606 0.12205 0.01500
H 	H 	0.48493 0.02687 0.14267 0.03700
C 	C 	0.59743 0.07330 0.17422 -0.14700
C 	C 	0.41192 0.10675 0.97085 -0.12100
C 	C 	0.43541 0.97472 0.12288 -0.09400
C 	C 	0.40459 0.13594 0.94277 0.38600
C 	C 	0.35075 0.77158 0.21884 -0.14100
H 	H 	0.32253 0.75707 0.21867 0.08700
C 	C 	0.43794 0.94738 0.15768 0.33400
C 	C 	0.41470 0.77510 0.22179 -0.13700
H 	H 	0.43063 0.76287 0.22387 0.08600
C 	C 	0.42808 0.02604 0.05945 0.02200
C 	C 	0.45055 0.11651 0.98504 0.04500
H 	H 	0.47303 0.14067 0.97567 0.02500
C 	C 	0.56700 0.06551 0.21099 0.40700
C 	C 	0.43254 0.81660 0.21858 0.08100
H 	H 	0.46073 0.83197 0.21847 -0.01300
C 	C 	0.37900 0.07065 0.98502 0.04700
H 	H 	0.35293 0.06387 0.97587 0.03200
C 	C 	0.40419 0.95897 0.09134 0.01900
H 	H 	0.38543 0.93127 0.09107 0.03600
C 	C 	0.61290 0.06171 0.09928 -0.13000
H 	H 	0.60443 0.04697 0.07257 0.07500
C 	C 	0.38444 0.04437 0.01274 -0.11400
H 	H 	0.36193 0.01997 0.02147 0.07000
C 	C 	0.40090 0.98452 0.06024 -0.08500
H 	H 	0.37983 0.97347 0.03927 0.06100
C 	C 	0.45576 0.09036 0.01309 -0.11600
H 	H 	0.48183 0.09737 0.02237 0.07000
C 	C 	0.37121 0.81330 0.21604 0.08700
H 	H 	0.35603 0.82637 0.21437 -0.00400
C 	C 	0.58538 0.05210 0.13520 0.06600
H 	H 	0.55873 0.03107 0.13207 0.01600
C 	C 	0.66468 0.11257 0.14435 -0.13200
H 	H 	0.69173 0.13227 0.14847 0.07700
C 	C 	0.65233 0.09287 0.10357 0.05500
C 	C 	0.63733 0.10342 0.17922 0.06800
H 	H 	0.64593 0.11767 0.20627 0.01500
Co	Co	0.12587 0.89258 0.54745 1.14900
O 	O 	0.16137 0.91852 0.48835 -0.40400
O 	O 	0.16530 0.86960 0.52285 -0.49400
O 	O 	0.39657 0.89886 0.25527 -0.42700
O 	O 	0.18888 0.75998 0.56780 -0.46100
O 	O 	0.15908 0.79541 0.54901 -0.43800
O 	O 	0.42644 0.96445 0.27492 -0.43200
N 	N 	0.98077 0.95833 0.55715 -0.13600
N 	N 	0.09119 0.92188 0.54889 -0.24200
C 	C 	0.24779 0.87312 0.42370 -0.10100
H 	H 	0.25580 0.85370 0.42310 0.06800
C 	C 	0.02116 0.98165 0.55707 0.09900
C 	C 	0.04573 0.96097 0.55522 0.06700
C 	C 	0.29736 0.91027 0.36118 0.04400
C 	C 	0.21906 0.86967 0.45538 0.03500
H 	H 	0.20860 0.84840 0.47600 0.03100
C 	C 	0.14253 0.73590 0.50755 -0.14600
C 	C 	0.36149 0.92141 0.30418 -0.11700
C 	C 	0.20597 0.89792 0.45621 -0.11100
C 	C 	0.39801 0.92874 0.27610 0.38500
C 	C 	0.08749 0.98258 0.55217 -0.12900
H 	H 	0.10120 0.01080 0.55200 0.07900
C 	C 	0.17610 0.89539 0.49101 0.33900
C 	C 	0.02706 0.91863 0.55512 -0.14800
H 	H 	0.99890 0.90270 0.55720 0.09400
C 	C 	0.26462 0.90525 0.39278 0.04000
C 	C 	0.33262 0.88278 0.31837 0.04100
H 	H 	0.33430 0.86030 0.30900 0.02700
C 	C 	0.16517 0.76633 0.54432 0.40600
C 	C 	0.05072 0.90079 0.55191 0.08600
H 	H 	0.03790 0.87260 0.55180 -0.01600
C 	C 	0.35831 0.95433 0.31835 0.04300
H 	H 	0.37760 0.98040 0.30920 0.03500
C 	C 	0.22144 0.92914 0.42467 0.03400
H 	H 	0.21250 0.94790 0.42440 0.03200
C 	C 	0.11547 0.72043 0.43261 -0.12900
H 	H 	0.10920 0.72890 0.40590 0.07500
C 	C 	0.32659 0.94889 0.34607 -0.10800
H 	H 	0.32470 0.97140 0.35480 0.07100
C 	C 	0.25028 0.93243 0.39357 -0.10500
H 	H 	0.26030 0.95350 0.37260 0.06700
C 	C 	0.30126 0.87757 0.34642 -0.11000
H 	H 	0.28220 0.85150 0.35570 0.06800
C 	C 	0.10875 0.96212 0.54937 0.08200
H 	H 	0.13700 0.97730 0.54770 -0.00100
C 	C 	0.13338 0.74795 0.46853 0.06500
H 	H 	0.13900 0.77460 0.46540 0.01800
C 	C 	0.11455 0.66865 0.47768 -0.13100
H 	H 	0.10720 0.64160 0.48180 0.07700
C 	C 	0.10720 0.68100 0.43690 0.05400
C 	C 	0.13275 0.69600 0.51255 0.06800
H 	H 	0.13840 0.68740 0.53960 0.01600
Co	Co	0.79254 0.22592 0.88078 1.14900
O 	O 	0.82804 0.25185 0.82168 -0.40400
O 	O 	0.83197 0.20293 0.85618 -0.49400
O 	O 	0.06324 0.23219 0.58860 -0.42900
O 	O 	0.85555 0.09331 0.90113 -0.46200
O 	O 	0.82575 0.12874 0.88234 -0.43800
O 	O 	0.09311 0.29778 0.60825 -0.43600
N 	N 	0.64744 0.29166 0.89048 -0.13700
N 	N 	0.75786 0.25521 0.88222 -0.24200
C 	C 	0.91446 0.20645 0.75703 -0.09900
H 	H 	0.92247 0.18703 0.75643 0.06800
C 	C 	0.68783 0.31498 0.89040 0.09900
C 	C 	0.71240 0.29430 0.88855 0.06700
C 	C 	0.96403 0.24360 0.69451 0.05000
C 	C 	0.88573 0.20300 0.78871 0.03400
H 	H 	0.87527 0.18173 0.80933 0.03200
C 	C 	0.80920 0.06923 0.84088 -0.15200
C 	C 	0.02816 0.25474 0.63751 -0.13100
C 	C 	0.87264 0.23125 0.78954 -0.11000
C 	C 	0.06468 0.26207 0.60943 0.38900
C 	C 	0.75416 0.31591 0.88550 -0.14100
H 	H 	0.76787 0.34413 0.88533 0.08700
C 	C 	0.84277 0.22872 0.82434 0.33900
C 	C 	0.69373 0.25196 0.88845 -0.13700
H 	H 	0.66557 0.23603 0.89053 0.08600
C 	C 	0.93129 0.23858 0.72611 0.03800
C 	C 	0.99929 0.21611 0.65170 0.06700
H 	H 	0.00097 0.19363 0.64233 0.01400
C 	C 	0.83184 0.09966 0.87765 0.40800
C 	C 	0.71739 0.23412 0.88524 0.08100
H 	H 	0.70457 0.20593 0.88513 -0.01300
C 	C 	0.02498 0.28766 0.65168 0.04300
H 	H 	0.04427 0.31373 0.64253 0.03200
C 	C 	0.88811 0.26247 0.75800 0.03300
H 	H 	0.87917 0.28123 0.75773 0.03100
C 	C 	0.78214 0.05376 0.76594 -0.13500
H 	H 	0.77587 0.06223 0.73923 0.07700
C 	C 	0.99326 0.28222 0.67940 -0.10600
H 	H 	0.99137 0.30473 0.68813 0.07000
C 	C 	0.91695 0.26576 0.72690 -0.10400
H 	H 	0.92697 0.28683 0.70593 0.06600
C 	C 	0.96793 0.21090 0.67975 -0.12300
H 	H 	0.94887 0.18483 0.68903 0.07300
C 	C 	0.77542 0.29545 0.88270 0.08700
H 	H 	0.80367 0.31063 0.88103 -0.00400
C 	C 	0.80005 0.08128 0.80186 0.07100
H 	H 	0.80567 0.10793 0.79873 0.01600
C 	C 	0.78122 0.00198 0.81101 -0.14900
H 	H 	0.77387 0.97493 0.81513 0.08600
C 	C 	0.77387 0.01433 0.77023 0.06000
C 	C 	0.79942 0.02933 0.84588 0.07800
H 	H 	0.80507 0.02073 0.87293 0.01100
Co	Co	0.45920 0.55925 0.21411 1.14900
O 	O 	0.49470 0.58519 0.15502 -0.40400
O 	O 	0.49863 0.53627 0.18952 -0.49400
O 	O 	0.72990 0.56553 0.92194 -0.42700
O 	O 	0.52221 0.42665 0.23447 -0.46100
O 	O 	0.49241 0.46208 0.21568 -0.43700
O 	O 	0.75977 0.63112 0.94159 -0.43500
N 	N 	0.31410 0.62500 0.22382 -0.13700
N 	N 	0.42452 0.58855 0.21556 -0.24200
C 	C 	0.58112 0.53979 0.09037 -0.10100
H 	H 	0.58913 0.52037 0.08977 0.06800
C 	C 	0.35449 0.64832 0.22374 0.09900
C 	C 	0.37906 0.62764 0.22189 0.06700
C 	C 	0.63069 0.57694 0.02785 0.04400
C 	C 	0.55239 0.53634 0.12205 0.03500
H 	H 	0.54193 0.51507 0.14267 0.03100
C 	C 	0.47586 0.40257 0.17422 -0.14600
C 	C 	0.69482 0.58808 0.97085 -0.11800
C 	C 	0.53930 0.56459 0.12288 -0.11100
C 	C 	0.73134 0.59541 0.94277 0.38500
C 	C 	0.42082 0.64925 0.21884 -0.14100
H 	H 	0.43453 0.67747 0.21867 0.08700
C 	C 	0.50943 0.56206 0.15768 0.33900
C 	C 	0.36039 0.58530 0.22179 -0.13700
H 	H 	0.33223 0.56937 0.22387 0.08600
C 	C 	0.59795 0.57192 0.05945 0.03900
C 	C 	0.66595 0.54945 0.98504 0.04200
H 	H 	0.66763 0.52697 0.97567 0.02700
C 	C 	0.49850 0.43300 0.21099 0.40600
C 	C 	0.38405 0.56746 0.21858 0.08100
H 	H 	0.37123 0.53927 0.21847 -0.01300
C 	C 	0.69164 0.62100 0.98502 0.04300
H 	H 	0.71093 0.64707 0.97587 0.03300
C 	C 	0.55477 0.59581 0.09134 0.03400
H 	H 	0.54583 0.61457 0.09107 0.03100
C 	C 	0.44880 0.38710 0.09928 -0.12900
H 	H 	0.44253 0.39557 0.07257 0.07500
C 	C 	0.65992 0.61556 0.01274 -0.10800
H 	H 	0.65803 0.63807 0.02147 0.07000
C 	C 	0.58361 0.59910 0.06024 -0.10500
H 	H 	0.59363 0.62017 0.03927 0.06600
C 	C 	0.63459 0.54424 0.01309 -0.11100
H 	H 	0.61553 0.51817 0.02237 0.06800
C 	C 	0.44208 0.62879 0.21604 0.08700
H 	H 	0.47033 0.64397 0.21437 -0.00400
C 	C 	0.46671 0.41462 0.13520 0.06500
H 	H 	0.47233 0.44127 0.13207 0.01800
C 	C 	0.44788 0.33532 0.14435 -0.13100
H 	H 	0.44053 0.30827 0.14847 0.07700
C 	C 	0.44053 0.34767 0.10357 0.05500
C 	C 	0.46608 0.36267 0.17922 0.06800
H 	H 	0.47173 0.35407 0.20627 0.01600
Co	Co	0.76671 0.87413 0.54745 1.15000
O 	O 	0.75715 0.83863 0.48835 -0.40400
O 	O 	0.70430 0.83470 0.52285 -0.49400
O 	O 	0.50229 0.60343 0.25527 -0.42700
O 	O 	0.57110 0.81112 0.56780 -0.46100
O 	O 	0.63633 0.84092 0.54901 -0.43700
O 	O 	0.53801 0.57356 0.27492 -0.43500
N 	N 	0.97756 0.01923 0.55715 -0.13800
N 	N 	0.83069 0.90881 0.54889 -0.24000
C 	C 	0.62533 0.75221 0.42370 -0.10100
H 	H 	0.59790 0.74420 0.42310 0.06800
C 	C 	0.96049 0.97884 0.55707 0.10700
C 	C 	0.91524 0.95427 0.55522 0.06000
C 	C 	0.61291 0.70264 0.36118 0.04400
C 	C 	0.65061 0.78094 0.45538 0.03500
H 	H 	0.63980 0.79140 0.47600 0.03100
C 	C 	0.59337 0.85747 0.50755 -0.14500
C 	C 	0.55992 0.63851 0.30418 -0.11800
C 	C 	0.69195 0.79403 0.45621 -0.11100
C 	C 	0.53073 0.60199 0.27610 0.38500
C 	C 	0.89509 0.91251 0.55217 -0.13500
H 	H 	0.90960 0.89880 0.55200 0.08500
C 	C 	0.71929 0.82390 0.49101 0.33900
C 	C 	0.89157 0.97294 0.55512 -0.12000
H 	H 	0.90380 0.00110 0.55720 0.07700
C 	C 	0.64063 0.73538 0.39278 0.03900
C 	C 	0.55016 0.66738 0.31837 0.04200
H 	H 	0.52600 0.66570 0.30900 0.02700
C 	C 	0.60116 0.83483 0.54432 0.40600
C 	C 	0.85007 0.94928 0.55191 0.07400
H 	H 	0.83470 0.96210 0.55180 -0.00900
C 	C 	0.59602 0.64169 0.31835 0.04300
H 	H 	0.60280 0.62240 0.30920 0.03300
C 	C 	0.70770 0.77856 0.42467 0.03400
H 	H 	0.73540 0.78750 0.42440 0.03100
C 	C 	0.60496 0.88453 0.43261 -0.12900
H 	H 	0.61970 0.89080 0.40590 0.07600
C 	C 	0.62230 0.67341 0.34607 -0.10800
H 	H 	0.64670 0.67530 0.35480 0.07000
C 	C 	0.68215 0.74972 0.39357 -0.10500
H 	H 	0.69320 0.73970 0.37260 0.06600
C 	C 	0.57631 0.69874 0.34642 -0.11100
H 	H 	0.56930 0.71780 0.35570 0.06800
C 	C 	0.85337 0.89125 0.54937 0.08400
H 	H 	0.84030 0.86300 0.54770 -0.00300
C 	C 	0.61457 0.86662 0.46853 0.06600
H 	H 	0.63560 0.86100 0.46540 0.01800
C 	C 	0.55410 0.88545 0.47768 -0.13100
H 	H 	0.53440 0.89280 0.48180 0.07700
C 	C 	0.57380 0.89280 0.43690 0.05500
C 	C 	0.56325 0.86725 0.51255 0.06800
H 	H 	0.54900 0.86160 0.53960 0.01600
Co	Co	0.43338 0.20746 0.88078 1.14900
O 	O 	0.42382 0.17196 0.82168 -0.40400
O 	O 	0.37097 0.16803 0.85618 -0.49400
O 	O 	0.16896 0.93676 0.58860 -0.42600
O 	O 	0.23777 0.14445 0.90113 -0.46100
O 	O 	0.30300 0.17425 0.88234 -0.43700
O 	O 	0.20468 0.90689 0.60825 -0.43400
N 	N 	0.64423 0.35256 0.89048 -0.13700
N 	N 	0.49736 0.24214 0.88222 -0.24200
C 	C 	0.29200 0.08554 0.75703 -0.10300
H 	H 	0.26457 0.07753 0.75643 0.06800
C 	C 	0.62716 0.31217 0.89040 0.09900
C 	C 	0.58191 0.28760 0.88855 0.06700
C 	C 	0.27958 0.03597 0.69451 0.03900
C 	C 	0.31728 0.11427 0.78871 0.03600
H 	H 	0.30647 0.12473 0.80933 0.03100
C 	C 	0.26004 0.19080 0.84088 -0.14600
C 	C 	0.22659 0.97184 0.63751 -0.10500
C 	C 	0.35862 0.12736 0.78954 -0.11100
C 	C 	0.19740 0.93532 0.60943 0.38100
C 	C 	0.56176 0.24584 0.88550 -0.14100
H 	H 	0.57627 0.23213 0.88533 0.08700
C 	C 	0.38596 0.15723 0.82434 0.33900
C 	C 	0.55824 0.30627 0.88845 -0.13700
H 	H 	0.57047 0.33443 0.89053 0.08600
C 	C 	0.30730 0.06871 0.72611 0.04100
C 	C 	0.21683 0.00071 0.65170 0.01600
H 	H 	0.19267 0.99903 0.64233 0.03900
C 	C 	0.26783 0.16816 0.87765 0.40600
C 	C 	0.51674 0.28261 0.88524 0.08100
H 	H 	0.50137 0.29543 0.88513 -0.01300
C 	C 	0.26269 0.97502 0.65168 0.04400
H 	H 	0.26947 0.95573 0.64253 0.03400
C 	C 	0.37437 0.11189 0.75800 0.03400
H 	H 	0.40207 0.12083 0.75773 0.03000
C 	C 	0.27163 0.21786 0.76594 -0.12900
H 	H 	0.28637 0.22413 0.73923 0.07500
C 	C 	0.28897 0.00674 0.67940 -0.11100
H 	H 	0.31337 0.00863 0.68813 0.06900
C 	C 	0.34882 0.08305 0.72690 -0.10700
H 	H 	0.35987 0.07303 0.70593 0.06600
C 	C 	0.24298 0.03207 0.67975 -0.09800
H 	H 	0.23597 0.05113 0.68903 0.06300
C 	C 	0.52004 0.22458 0.88270 0.08700
H 	H 	0.50697 0.19633 0.88103 -0.00400
C 	C 	0.28124 0.19995 0.80186 0.06500
H 	H 	0.30227 0.19433 0.79873 0.01800
C 	C 	0.22077 0.21878 0.81101 -0.13100
H 	H 	0.20107 0.22613 0.81513 0.07700
C 	C 	0.24047 0.22613 0.77023 0.05500
C 	C 	0.22992 0.20058 0.84588 0.06800
H 	H 	0.21567 0.19493 0.87293 0.01600
Co	Co	0.10005 0.54080 0.21411 1.14900
O 	O 	0.09048 0.50530 0.15502 -0.40600
O 	O 	0.03763 0.50137 0.18952 -0.49700
O 	O 	0.83562 0.27010 0.92194 -0.42700
O 	O 	0.90443 0.47779 0.23447 -0.46100
O 	O 	0.96966 0.50759 0.21568 -0.43400
O 	O 	0.87134 0.24023 0.94159 -0.43400
N 	N 	0.31089 0.68590 0.22382 -0.13700
N 	N 	0.16402 0.57548 0.21556 -0.24200
C 	C 	0.95866 0.41888 0.09037 -0.11600
H 	H 	0.93123 0.41087 0.08977 0.07400
C 	C 	0.29382 0.64551 0.22374 0.09900
C 	C 	0.24857 0.62094 0.22189 0.06700
C 	C 	0.94624 0.36931 0.02785 0.03700
C 	C 	0.98394 0.44761 0.12205 0.05500
H 	H 	0.97313 0.45807 0.14267 0.02600
C 	C 	0.92670 0.52414 0.17422 -0.14400
C 	C 	0.89325 0.30518 0.97085 -0.11500
C 	C 	0.02528 0.46070 0.12288 -0.12700
C 	C 	0.86406 0.26866 0.94277 0.38500
C 	C 	0.22842 0.57918 0.21884 -0.14100
H 	H 	0.24293 0.56547 0.21867 0.08700
C 	C 	0.05262 0.49057 0.15768 0.34400
C 	C 	0.22490 0.63961 0.22179 -0.13700
H 	H 	0.23713 0.66777 0.22387 0.08600
C 	C 	0.97396 0.40205 0.05945 0.05600
C 	C 	0.88349 0.33405 0.98504 0.03800
H 	H 	0.85933 0.33237 0.97567 0.02800
C 	C 	0.93449 0.50150 0.21099 0.40600
C 	C 	0.18340 0.61595 0.21858 0.08100
H 	H 	0.16803 0.62877 0.21847 -0.01300
C 	C 	0.92935 0.30836 0.98502 0.04000
H 	H 	0.93613 0.28907 0.97587 0.03500
C 	C 	0.04103 0.44523 0.09134 0.04900
H 	H 	0.06873 0.45417 0.09107 0.02500
C 	C 	0.93829 0.55120 0.09928 -0.12800
H 	H 	0.95303 0.55747 0.07257 0.07600
C 	C 	0.95563 0.34008 0.01274 -0.10300
H 	H 	0.98003 0.34197 0.02147 0.06900
C 	C 	0.01548 0.41639 0.06024 -0.12600
H 	H 	0.02653 0.40637 0.03927 0.07100
C 	C 	0.90964 0.36541 0.01309 -0.10500
H 	H 	0.90263 0.38447 0.02237 0.06600
C 	C 	0.18670 0.55792 0.21604 0.08700
H 	H 	0.17363 0.52967 0.21437 -0.00400
C 	C 	0.94790 0.53329 0.13520 0.06500
H 	H 	0.96893 0.52767 0.13207 0.01900
C 	C 	0.88743 0.55212 0.14435 -0.13100
H 	H 	0.86773 0.55947 0.14847 0.07700
C 	C 	0.90713 0.55947 0.10357 0.05500
C 	C 	0.89658 0.53392 0.17922 0.06700
H 	H 	0.88233 0.52827 0.20627 0.01600
Co	Co	0.33333 0.14991 0.91667 1.20000
Co	Co	0.00000 0.48324 0.25000 1.19700
Co	Co	0.85009 0.18343 0.91667 1.20000
Co	Co	0.51676 0.51676 0.25000 1.20000
Co	Co	0.81657 0.66667 0.91667 1.20000
Co	Co	0.48324 0.00000 0.25000 1.19700
Co	Co	0.14991 0.33333 0.58333 1.20000
Co	Co	0.18343 0.85009 0.58333 1.20000
Co	Co	0.66667 0.81657 0.58333 1.20000
Co	Co	0.76671 0.89258 0.04745 1.14900
O 	O 	0.75715 0.91852 0.98835 -0.40400
O 	O 	0.70430 0.86960 0.02285 -0.49400
O 	O 	0.50229 0.89886 0.75527 -0.42700
O 	O 	0.57110 0.75998 0.06780 -0.46100
O 	O 	0.63633 0.79541 0.04901 -0.43700
O 	O 	0.53801 0.96445 0.77492 -0.43200
N 	N 	0.97756 0.95833 0.05715 -0.13600
N 	N 	0.83069 0.92188 0.04889 -0.24000
C 	C 	0.62533 0.87312 0.92370 -0.10100
H 	H 	0.59790 0.85370 0.92310 0.06800
C 	C 	0.96049 0.98165 0.05707 0.10700
C 	C 	0.91524 0.96097 0.05522 0.06000
C 	C 	0.61291 0.91027 0.86118 0.04400
C 	C 	0.65061 0.86967 0.95538 0.03500
H 	H 	0.63980 0.84840 0.97600 0.03100
C 	C 	0.59337 0.73590 0.00755 -0.14600
C 	C 	0.55992 0.92141 0.80418 -0.11700
C 	C 	0.69195 0.89792 0.95621 -0.11000
C 	C 	0.53073 0.92874 0.77610 0.38500
C 	C 	0.89509 0.98258 0.05217 -0.12400
H 	H 	0.90960 0.01080 0.05200 0.07800
C 	C 	0.71929 0.89539 0.99101 0.33900
C 	C 	0.89157 0.91863 0.05512 -0.13100
H 	H 	0.90380 0.90270 0.05720 0.08500
C 	C 	0.64063 0.90525 0.89278 0.04000
C 	C 	0.55016 0.88278 0.81837 0.04100
H 	H 	0.52600 0.86030 0.80900 0.02700
C 	C 	0.60116 0.76633 0.04432 0.40600
C 	C 	0.85007 0.90079 0.05191 0.07900
H 	H 	0.83470 0.87260 0.05180 -0.01200
C 	C 	0.59602 0.95433 0.81835 0.04300
H 	H 	0.60280 0.98040 0.80920 0.03500
C 	C 	0.70770 0.92914 0.92467 0.03400
H 	H 	0.73540 0.94790 0.92440 0.03200
C 	C 	0.60496 0.72043 0.93261 -0.12900
H 	H 	0.61970 0.72890 0.90590 0.07500
C 	C 	0.62230 0.94889 0.84607 -0.10800
H 	H 	0.64670 0.97140 0.85480 0.07100
C 	C 	0.68215 0.93243 0.89357 -0.10500
H 	H 	0.69320 0.95350 0.87260 0.06700
C 	C 	0.57631 0.87757 0.84642 -0.11000
H 	H 	0.56930 0.85150 0.85570 0.06800
C 	C 	0.85337 0.96212 0.04937 0.07900
H 	H 	0.84030 0.97730 0.04770 -0.00000
C 	C 	0.61457 0.74795 0.96853 0.06500
H 	H 	0.63560 0.77460 0.96540 0.01800
C 	C 	0.55410 0.66865 0.97768 -0.13100
H 	H 	0.53440 0.64160 0.98180 0.07700
C 	C 	0.57380 0.68100 0.93690 0.05500
C 	C 	0.56325 0.69600 0.01255 0.06800
H 	H 	0.54900 0.68740 0.03960 0.01600
Co	Co	0.43338 0.22592 0.38078 1.14900
O 	O 	0.42382 0.25185 0.32168 -0.40400
O 	O 	0.37097 0.20293 0.35618 -0.49400
O 	O 	0.16896 0.23219 0.08860 -0.42700
O 	O 	0.23777 0.09331 0.40113 -0.46200
O 	O 	0.30300 0.12874 0.38234 -0.43800
O 	O 	0.20468 0.29778 0.10825 -0.43500
N 	N 	0.64423 0.29166 0.39048 -0.13700
N 	N 	0.49736 0.25521 0.38222 -0.24200
C 	C 	0.29200 0.20645 0.25703 -0.10100
H 	H 	0.26457 0.18703 0.25643 0.06800
C 	C 	0.62716 0.31498 0.39040 0.09900
C 	C 	0.58191 0.29430 0.38855 0.06700
C 	C 	0.27958 0.24360 0.19451 0.04400
C 	C 	0.31728 0.20300 0.28871 0.03500
H 	H 	0.30647 0.18173 0.30933 0.03100
C 	C 	0.26004 0.06923 0.34088 -0.15200
C 	C 	0.22659 0.25474 0.13751 -0.11800
C 	C 	0.35862 0.23125 0.28954 -0.11100
C 	C 	0.19740 0.26207 0.10943 0.38500
C 	C 	0.56176 0.31591 0.38550 -0.14100
H 	H 	0.57627 0.34413 0.38533 0.08700
C 	C 	0.38596 0.22872 0.32434 0.33900
C 	C 	0.55824 0.25196 0.38845 -0.13700
H 	H 	0.57047 0.23603 0.39053 0.08600
C 	C 	0.30730 0.23858 0.22611 0.03900
C 	C 	0.21683 0.21611 0.15170 0.04200
H 	H 	0.19267 0.19363 0.14233 0.02600
C 	C 	0.26783 0.09966 0.37765 0.40800
C 	C 	0.51674 0.23412 0.38524 0.08100
H 	H 	0.50137 0.20593 0.38513 -0.01300
C 	C 	0.26269 0.28766 0.15168 0.04300
H 	H 	0.26947 0.31373 0.14253 0.03300
C 	C 	0.37437 0.26247 0.25800 0.03400
H 	H 	0.40207 0.28123 0.25773 0.03100
C 	C 	0.27163 0.05376 0.26594 -0.13500
H 	H 	0.28637 0.06223 0.23923 0.07700
C 	C 	0.28897 0.28222 0.17940 -0.10800
H 	H 	0.31337 0.30473 0.18813 0.07000
C 	C 	0.34882 0.26576 0.22690 -0.10500
H 	H 	0.35987 0.28683 0.20593 0.06600
C 	C 	0.24298 0.21090 0.17975 -0.11100
H 	H 	0.23597 0.18483 0.18903 0.06800
C 	C 	0.52004 0.29545 0.38270 0.08700
H 	H 	0.50697 0.31063 0.38103 -0.00400
C 	C 	0.28124 0.08128 0.30186 0.07100
H 	H 	0.30227 0.10793 0.29873 0.01600
C 	C 	0.22077 0.00198 0.31101 -0.14900
H 	H 	0.20107 0.97493 0.31513 0.08600
C 	C 	0.24047 0.01433 0.27023 0.06000
C 	C 	0.22992 0.02933 0.34588 0.07800
H 	H 	0.21567 0.02073 0.37293 0.01100
Co	Co	0.10005 0.55925 0.71411 1.14900
O 	O 	0.09048 0.58519 0.65502 -0.40600
O 	O 	0.03763 0.53627 0.68952 -0.49700
O 	O 	0.83562 0.56553 0.42194 -0.42700
O 	O 	0.90443 0.42665 0.73447 -0.46100
O 	O 	0.96966 0.46208 0.71568 -0.43500
O 	O 	0.87134 0.63112 0.44159 -0.43400
N 	N 	0.31089 0.62500 0.72382 -0.13700
N 	N 	0.16402 0.58855 0.71556 -0.24200
C 	C 	0.95866 0.53979 0.59037 -0.11600
H 	H 	0.93123 0.52037 0.58977 0.07400
C 	C 	0.29382 0.64832 0.72374 0.09900
C 	C 	0.24857 0.62764 0.72189 0.06700
C 	C 	0.94624 0.57694 0.52785 0.03700
C 	C 	0.98394 0.53634 0.62205 0.05500
H 	H 	0.97313 0.51507 0.64267 0.02600
C 	C 	0.92670 0.40257 0.67422 -0.14400
C 	C 	0.89325 0.58808 0.47085 -0.11500
C 	C 	0.02528 0.56459 0.62288 -0.12700
C 	C 	0.86406 0.59541 0.44277 0.38500
C 	C 	0.22842 0.64925 0.71884 -0.14100
H 	H 	0.24293 0.67747 0.71867 0.08700
C 	C 	0.05262 0.56206 0.65768 0.34400
C 	C 	0.22490 0.58530 0.72179 -0.13700
H 	H 	0.23713 0.56937 0.72387 0.08600
C 	C 	0.97396 0.57192 0.55945 0.05700
C 	C 	0.88349 0.54945 0.48504 0.03800
H 	H 	0.85933 0.52697 0.47567 0.02800
C 	C 	0.93449 0.43300 0.71099 0.40600
C 	C 	0.18340 0.56746 0.71858 0.08100
H 	H 	0.16803 0.53927 0.71847 -0.01300
C 	C 	0.92935 0.62100 0.48502 0.04000
H 	H 	0.93613 0.64707 0.47587 0.03500
C 	C 	0.04103 0.59581 0.59134 0.04900
H 	H 	0.06873 0.61457 0.59107 0.02500
C 	C 	0.93829 0.38710 0.59928 -0.12800
H 	H 	0.95303 0.39557 0.57257 0.07600
C 	C 	0.95563 0.61556 0.51274 -0.10300
H 	H 	0.98003 0.63807 0.52147 0.06900
C 	C 	0.01548 0.59910 0.56024 -0.12600
H 	H 	0.02653 0.62017 0.53927 0.07100
C 	C 	0.90964 0.54424 0.51309 -0.10500
H 	H 	0.90263 0.51817 0.52237 0.06600
C 	C 	0.18670 0.62879 0.71604 0.08700
H 	H 	0.17363 0.64397 0.71437 -0.00400
C 	C 	0.94790 0.41462 0.63520 0.06500
H 	H 	0.96893 0.44127 0.63207 0.01900
C 	C 	0.88743 0.33532 0.64435 -0.13100
H 	H 	0.86773 0.30827 0.64847 0.07700
C 	C 	0.90713 0.34767 0.60357 0.05500
C 	C 	0.89658 0.36267 0.67922 0.06700
H 	H 	0.88233 0.35407 0.70627 0.01600
Co	Co	0.10742 0.87413 0.04745 1.15000
O 	O 	0.08148 0.83863 0.98835 -0.40500
O 	O 	0.13040 0.83470 0.02285 -0.49400
O 	O 	0.10114 0.60343 0.75527 -0.42700
O 	O 	0.24002 0.81112 0.06780 -0.46100
O 	O 	0.20459 0.84092 0.04901 -0.43700
O 	O 	0.03555 0.57356 0.77492 -0.43600
N 	N 	0.04167 0.01923 0.05715 -0.13900
N 	N 	0.07812 0.90881 0.04889 -0.24200
C 	C 	0.12688 0.75221 0.92370 -0.10100
H 	H 	0.14630 0.74420 0.92310 0.06800
C 	C 	0.01835 0.97884 0.05707 0.09900
C 	C 	0.03903 0.95427 0.05522 0.06700
C 	C 	0.08973 0.70264 0.86118 0.04400
C 	C 	0.13033 0.78094 0.95538 0.03500
H 	H 	0.15160 0.79140 0.97600 0.03100
C 	C 	0.26410 0.85747 0.00755 -0.14600
C 	C 	0.07859 0.63851 0.80418 -0.11900
C 	C 	0.10208 0.79403 0.95621 -0.11100
C 	C 	0.07126 0.60199 0.77610 0.38600
C 	C 	0.01742 0.91251 0.05217 -0.15200
H 	H 	0.98920 0.89880 0.05200 0.09500
C 	C 	0.10461 0.82390 0.99101 0.33900
C 	C 	0.08137 0.97294 0.05512 -0.12600
H 	H 	0.09730 0.00110 0.05720 0.07900
C 	C 	0.09475 0.73538 0.89278 0.03900
C 	C 	0.11722 0.66738 0.81837 0.04200
H 	H 	0.13970 0.66570 0.80900 0.02600
C 	C 	0.23367 0.83483 0.04432 0.40600
C 	C 	0.09921 0.94928 0.05191 0.07700
H 	H 	0.12740 0.96210 0.05180 -0.01000
C 	C 	0.04567 0.64169 0.81835 0.04300
H 	H 	0.01960 0.62240 0.80920 0.03200
C 	C 	0.07086 0.77856 0.92467 0.03400
H 	H 	0.05210 0.78750 0.92440 0.03000
C 	C 	0.27957 0.88453 0.93261 -0.12900
H 	H 	0.27110 0.89080 0.90590 0.07600
C 	C 	0.05111 0.67341 0.84607 -0.10900
H 	H 	0.02860 0.67530 0.85480 0.06900
C 	C 	0.06757 0.74972 0.89357 -0.10600
H 	H 	0.04650 0.73970 0.87260 0.06500
C 	C 	0.12243 0.69874 0.84642 -0.11100
H 	H 	0.14850 0.71780 0.85570 0.06800
C 	C 	0.03788 0.89125 0.04937 0.09200
H 	H 	0.02270 0.86300 0.04770 -0.00700
C 	C 	0.25205 0.86662 0.96853 0.06600
H 	H 	0.22540 0.86100 0.96540 0.01800
C 	C 	0.33135 0.88545 0.97768 -0.13100
H 	H 	0.35840 0.89280 0.98180 0.07700
C 	C 	0.31900 0.89280 0.93690 0.05500
C 	C 	0.30400 0.86725 0.01255 0.06800
H 	H 	0.31260 0.86160 0.03960 0.01600
Co	Co	0.77408 0.20746 0.38078 1.14900
O 	O 	0.74815 0.17196 0.32168 -0.40500
O 	O 	0.79707 0.16803 0.35618 -0.49400
O 	O 	0.76781 0.93676 0.08860 -0.42600
O 	O 	0.90669 0.14445 0.40113 -0.46000
O 	O 	0.87126 0.17425 0.38234 -0.43600
O 	O 	0.70222 0.90689 0.10825 -0.43400
N 	N 	0.70834 0.35256 0.39048 -0.13700
N 	N 	0.74479 0.24214 0.38222 -0.24200
C 	C 	0.79355 0.08554 0.25703 -0.10300
H 	H 	0.81297 0.07753 0.25643 0.06800
C 	C 	0.68502 0.31217 0.39040 0.09900
C 	C 	0.70570 0.28760 0.38855 0.06700
C 	C 	0.75640 0.03597 0.19451 0.03900
C 	C 	0.79700 0.11427 0.28871 0.03600
H 	H 	0.81827 0.12473 0.30933 0.03100
C 	C 	0.93077 0.19080 0.34088 -0.13900
C 	C 	0.74526 0.97184 0.13751 -0.10500
C 	C 	0.76875 0.12736 0.28954 -0.11200
C 	C 	0.73793 0.93532 0.10943 0.38100
C 	C 	0.68409 0.24584 0.38550 -0.14100
H 	H 	0.65587 0.23213 0.38533 0.08700
C 	C 	0.77128 0.15723 0.32434 0.33900
C 	C 	0.74804 0.30627 0.38845 -0.13700
H 	H 	0.76397 0.33443 0.39053 0.08600
C 	C 	0.76142 0.06871 0.22611 0.04100
C 	C 	0.78389 0.00071 0.15170 0.01600
H 	H 	0.80637 0.99903 0.14233 0.03900
C 	C 	0.90034 0.16816 0.37765 0.40400
C 	C 	0.76588 0.28261 0.38524 0.08100
H 	H 	0.79407 0.29543 0.38513 -0.01300
C 	C 	0.71234 0.97502 0.15168 0.04400
H 	H 	0.68627 0.95573 0.14253 0.03400
C 	C 	0.73753 0.11189 0.25800 0.03400
H 	H 	0.71877 0.12083 0.25773 0.03000
C 	C 	0.94624 0.21786 0.26594 -0.12300
H 	H 	0.93777 0.22413 0.23923 0.07400
C 	C 	0.71778 0.00674 0.17940 -0.11100
H 	H 	0.69527 0.00863 0.18813 0.06900
C 	C 	0.73424 0.08305 0.22690 -0.10700
H 	H 	0.71317 0.07303 0.20593 0.06600
C 	C 	0.78910 0.03207 0.17975 -0.09800
H 	H 	0.81517 0.05113 0.18903 0.06300
C 	C 	0.70455 0.22458 0.38270 0.08700
H 	H 	0.68937 0.19633 0.38103 -0.00400
C 	C 	0.91872 0.19995 0.30186 0.06000
H 	H 	0.89207 0.19433 0.29873 0.02000
C 	C 	0.99802 0.21878 0.31101 -0.11400
H 	H 	0.02507 0.22613 0.31513 0.06700
C 	C 	0.98567 0.22613 0.27023 0.05000
C 	C 	0.97067 0.20058 0.34588 0.05800
H 	H 	0.97927 0.19493 0.37293 0.02100
Co	Co	0.44075 0.54080 0.71411 1.14900
O 	O 	0.41481 0.50530 0.65502 -0.40400
O 	O 	0.46373 0.50137 0.68952 -0.49400
O 	O 	0.43447 0.27010 0.42194 -0.42700
O 	O 	0.57335 0.47779 0.73447 -0.46100
O 	O 	0.53792 0.50759 0.71568 -0.43700
O 	O 	0.36888 0.24023 0.44159 -0.43500
N 	N 	0.37500 0.68590 0.72382 -0.13700
N 	N 	0.41145 0.57548 0.71556 -0.24200
C 	C 	0.46021 0.41888 0.59037 -0.10100
H 	H 	0.47963 0.41087 0.58977 0.06800
C 	C 	0.35168 0.64551 0.72374 0.09900
C 	C 	0.37236 0.62094 0.72189 0.06700
C 	C 	0.42306 0.36931 0.52785 0.04400
C 	C 	0.46366 0.44761 0.62205 0.03500
H 	H 	0.48493 0.45807 0.64267 0.03100
C 	C 	0.59743 0.52414 0.67422 -0.14600
C 	C 	0.41192 0.30518 0.47085 -0.11800
C 	C 	0.43541 0.46070 0.62288 -0.11100
C 	C 	0.40459 0.26866 0.44277 0.38500
C 	C 	0.35075 0.57918 0.71884 -0.14100
H 	H 	0.32253 0.56547 0.71867 0.08700
C 	C 	0.43794 0.49057 0.65768 0.33900
C 	C 	0.41470 0.63961 0.72179 -0.13700
H 	H 	0.43063 0.66777 0.72387 0.08600
C 	C 	0.42808 0.40205 0.55945 0.03900
C 	C 	0.45055 0.33405 0.48504 0.04200
H 	H 	0.47303 0.33237 0.47567 0.02700
C 	C 	0.56700 0.50150 0.71099 0.40600
C 	C 	0.43254 0.61595 0.71858 0.08100
H 	H 	0.46073 0.62877 0.71847 -0.01300
C 	C 	0.37900 0.30836 0.48502 0.04300
H 	H 	0.35293 0.28907 0.47587 0.03300
C 	C 	0.40419 0.44523 0.59134 0.03400
H 	H 	0.38543 0.45417 0.59107 0.03100
C 	C 	0.61290 0.55120 0.59928 -0.12900
H 	H 	0.60443 0.55747 0.57257 0.07500
C 	C 	0.38444 0.34008 0.51274 -0.10800
H 	H 	0.36193 0.34197 0.52147 0.07000
C 	C 	0.40090 0.41639 0.56024 -0.10500
H 	H 	0.37983 0.40637 0.53927 0.06600
C 	C 	0.45576 0.36541 0.51309 -0.11100
H 	H 	0.48183 0.38447 0.52237 0.06800
C 	C 	0.37121 0.55792 0.71604 0.08700
H 	H 	0.35603 0.52967 0.71437 -0.00400
C 	C 	0.58538 0.53329 0.63520 0.06500
H 	H 	0.55873 0.52767 0.63207 0.01800
C 	C 	0.66468 0.55212 0.64435 -0.13100
H 	H 	0.69173 0.55947 0.64847 0.07700
C 	C 	0.65233 0.55947 0.60357 0.05500
C 	C 	0.63733 0.53392 0.67922 0.06800
H 	H 	0.64593 0.52827 0.70627 0.01600
Co	Co	0.12587 0.23329 0.04745 1.14900
O 	O 	0.16137 0.24285 0.98835 -0.40500
O 	O 	0.16530 0.29570 0.02285 -0.49400
O 	O 	0.39657 0.49771 0.75527 -0.42700
O 	O 	0.18888 0.42890 0.06780 -0.46100
O 	O 	0.15908 0.36367 0.04901 -0.43700
O 	O 	0.42644 0.46199 0.77492 -0.43500
N 	N 	0.98077 0.02244 0.05715 -0.13700
N 	N 	0.09119 0.16931 0.04889 -0.24400
C 	C 	0.24779 0.37467 0.92370 -0.10100
H 	H 	0.25580 0.40210 0.92310 0.06800
C 	C 	0.02116 0.03951 0.05707 0.09100
C 	C 	0.04573 0.08476 0.05522 0.07400
C 	C 	0.29736 0.38709 0.86118 0.04400
C 	C 	0.21906 0.34939 0.95538 0.03500
H 	H 	0.20860 0.36020 0.97600 0.03100
C 	C 	0.14253 0.40663 0.00755 -0.14600
C 	C 	0.36149 0.44008 0.80418 -0.11800
C 	C 	0.20597 0.30805 0.95621 -0.11100
C 	C 	0.39801 0.46927 0.77610 0.38500
C 	C 	0.08749 0.10491 0.05217 -0.14600
H 	H 	0.10120 0.09040 0.05200 0.08900
C 	C 	0.17610 0.28071 0.99101 0.33900
C 	C 	0.02706 0.10843 0.05512 -0.15300
H 	H 	0.99890 0.09620 0.05720 0.09500
C 	C 	0.26462 0.35937 0.89278 0.03900
C 	C 	0.33262 0.44984 0.81837 0.04200
H 	H 	0.33430 0.47400 0.80900 0.02700
C 	C 	0.16517 0.39884 0.04432 0.40600
C 	C 	0.05072 0.14993 0.05191 0.08900
H 	H 	0.03790 0.16530 0.05180 -0.01700
C 	C 	0.35831 0.40398 0.81835 0.04300
H 	H 	0.37760 0.39720 0.80920 0.03300
C 	C 	0.22144 0.29230 0.92467 0.03400
H 	H 	0.21250 0.26460 0.92440 0.03100
C 	C 	0.11547 0.39504 0.93261 -0.12900
H 	H 	0.10920 0.38030 0.90590 0.07500
C 	C 	0.32659 0.37770 0.84607 -0.10800
H 	H 	0.32470 0.35330 0.85480 0.07000
C 	C 	0.25028 0.31785 0.89357 -0.10600
H 	H 	0.26030 0.30680 0.87260 0.06600
C 	C 	0.30126 0.42369 0.84642 -0.11100
H 	H 	0.28220 0.43070 0.85570 0.06800
C 	C 	0.10875 0.14663 0.04937 0.09000
H 	H 	0.13700 0.15970 0.04770 -0.00500
C 	C 	0.13338 0.38543 0.96853 0.06500
H 	H 	0.13900 0.36440 0.96540 0.01800
C 	C 	0.11455 0.44590 0.97768 -0.13100
H 	H 	0.10720 0.46560 0.98180 0.07700
C 	C 	0.10720 0.42620 0.93690 0.05400
C 	C 	0.13275 0.43675 0.01255 0.06800
H 	H 	0.13840 0.45100 0.03960 0.01600
Co	Co	0.79254 0.56662 0.38078 1.14900
O 	O 	0.82804 0.57618 0.32168 -0.40400
O 	O 	0.83197 0.62903 0.35618 -0.49400
O 	O 	0.06324 0.83104 0.08860 -0.42900
O 	O 	0.85555 0.76223 0.40113 -0.46100
O 	O 	0.82575 0.69700 0.38234 -0.43700
O 	O 	0.09311 0.79532 0.10825 -0.43600
N 	N 	0.64744 0.35577 0.39048 -0.13700
N 	N 	0.75786 0.50264 0.38222 -0.24200
C 	C 	0.91446 0.70800 0.25703 -0.10000
H 	H 	0.92247 0.73543 0.25643 0.06800
C 	C 	0.68783 0.37284 0.39040 0.09900
C 	C 	0.71240 0.41809 0.38855 0.06700
C 	C 	0.96403 0.72042 0.19451 0.05000
C 	C 	0.88573 0.68272 0.28871 0.03400
H 	H 	0.87527 0.69353 0.30933 0.03200
C 	C 	0.80920 0.73996 0.34088 -0.14600
C 	C 	0.02816 0.77341 0.13751 -0.13100
C 	C 	0.87264 0.64138 0.28954 -0.11000
C 	C 	0.06468 0.80260 0.10943 0.38900
C 	C 	0.75416 0.43824 0.38550 -0.14100
H 	H 	0.76787 0.42373 0.38533 0.08700
C 	C 	0.84277 0.61404 0.32434 0.33900
C 	C 	0.69373 0.44176 0.38845 -0.13700
H 	H 	0.66557 0.42953 0.39053 0.08600
C 	C 	0.93129 0.69270 0.22611 0.03800
C 	C 	0.99929 0.78317 0.15170 0.06700
H 	H 	0.00097 0.80733 0.14233 0.01400
C 	C 	0.83184 0.73217 0.37765 0.40600
C 	C 	0.71739 0.48326 0.38524 0.08100
H 	H 	0.70457 0.49863 0.38513 -0.01300
C 	C 	0.02498 0.73731 0.15168 0.04300
H 	H 	0.04427 0.73053 0.14253 0.03200
C 	C 	0.88811 0.62563 0.25800 0.03300
H 	H 	0.87917 0.59793 0.25773 0.03100
C 	C 	0.78214 0.72837 0.26594 -0.12900
H 	H 	0.77587 0.71363 0.23923 0.07500
C 	C 	0.99326 0.71103 0.17940 -0.10600
H 	H 	0.99137 0.68663 0.18813 0.07000
C 	C 	0.91695 0.65118 0.22690 -0.10400
H 	H 	0.92697 0.64013 0.20593 0.06600
C 	C 	0.96793 0.75702 0.17975 -0.12300
H 	H 	0.94887 0.76403 0.18903 0.07400
C 	C 	0.77542 0.47996 0.38270 0.08700
H 	H 	0.80367 0.49303 0.38103 -0.00400
C 	C 	0.80005 0.71876 0.30186 0.06600
H 	H 	0.80567 0.69773 0.29873 0.01800
C 	C 	0.78122 0.77923 0.31101 -0.13100
H 	H 	0.77387 0.79893 0.31513 0.07700
C 	C 	0.77387 0.75953 0.27023 0.05500
C 	C 	0.79942 0.77008 0.34588 0.06800
H 	H 	0.80507 0.78433 0.37293 0.01600
Co	Co	0.45920 0.89995 0.71411 1.15000
O 	O 	0.49470 0.90952 0.65502 -0.40300
O 	O 	0.49863 0.96237 0.68952 -0.49000
O 	O 	0.72990 0.16438 0.42194 -0.42800
O 	O 	0.52221 0.09557 0.73447 -0.46100
O 	O 	0.49241 0.03034 0.71568 -0.43900
O 	O 	0.75977 0.12866 0.44159 -0.43500
N 	N 	0.31410 0.68911 0.72382 -0.13700
N 	N 	0.42452 0.83598 0.71556 -0.24200
C 	C 	0.58112 0.04134 0.59037 -0.08600
H 	H 	0.58913 0.06877 0.58977 0.06300
C 	C 	0.35449 0.70618 0.72374 0.09900
C 	C 	0.37906 0.75143 0.72189 0.06700
C 	C 	0.63069 0.05376 0.52785 0.05200
C 	C 	0.55239 0.01606 0.62205 0.01500
H 	H 	0.54193 0.02687 0.64267 0.03700
C 	C 	0.47586 0.07330 0.67422 -0.14700
C 	C 	0.69482 0.10675 0.47085 -0.12100
C 	C 	0.53930 0.97472 0.62288 -0.09400
C 	C 	0.73134 0.13594 0.44277 0.38600
C 	C 	0.42082 0.77158 0.71884 -0.14100
H 	H 	0.43453 0.75707 0.71867 0.08700
C 	C 	0.50943 0.94738 0.65768 0.33400
C 	C 	0.36039 0.77510 0.72179 -0.13700
H 	H 	0.33223 0.76287 0.72387 0.08600
C 	C 	0.59795 0.02604 0.55945 0.02200
C 	C 	0.66595 0.11651 0.48504 0.04500
H 	H 	0.66763 0.14067 0.47567 0.02500
C 	C 	0.49850 0.06551 0.71099 0.40700
C 	C 	0.38405 0.81660 0.71858 0.08100
H 	H 	0.37123 0.83197 0.71847 -0.01300
C 	C 	0.69164 0.07065 0.48502 0.04700
H 	H 	0.71093 0.06387 0.47587 0.03100
C 	C 	0.55477 0.95897 0.59134 0.01900
H 	H 	0.54583 0.93127 0.59107 0.03600
C 	C 	0.44880 0.06171 0.59928 -0.12900
H 	H 	0.44253 0.04697 0.57257 0.07500
C 	C 	0.65992 0.04437 0.51274 -0.11400
H 	H 	0.65803 0.01997 0.52147 0.07000
C 	C 	0.58361 0.98452 0.56024 -0.08500
H 	H 	0.59363 0.97347 0.53927 0.06100
C 	C 	0.63459 0.09036 0.51309 -0.11600
H 	H 	0.61553 0.09737 0.52237 0.07000
C 	C 	0.44208 0.81330 0.71604 0.08700
H 	H 	0.47033 0.82637 0.71437 -0.00400
C 	C 	0.46671 0.05210 0.63520 0.06600
H 	H 	0.47233 0.03107 0.63207 0.01600
C 	C 	0.44788 0.11257 0.64435 -0.13200
H 	H 	0.44053 0.13227 0.64847 0.07700
C 	C 	0.44053 0.09287 0.60357 0.05500
C 	C 	0.46608 0.10342 0.67922 0.06800
H 	H 	0.47173 0.11767 0.70627 0.01500
Co	Co	0.89258 0.76671 0.45255 1.14900
O 	O 	0.91852 0.75715 0.51165 -0.40400
O 	O 	0.86960 0.70430 0.47715 -0.49400
O 	O 	0.89886 0.50229 0.74473 -0.42700
O 	O 	0.75998 0.57110 0.43220 -0.46100
O 	O 	0.79541 0.63633 0.45099 -0.43700
O 	O 	0.96445 0.53801 0.72508 -0.43200
N 	N 	0.95833 0.97756 0.44285 -0.13600
N 	N 	0.92188 0.83069 0.45111 -0.24000
C 	C 	0.87312 0.62533 0.57630 -0.10100
H 	H 	0.85370 0.59790 0.57690 0.06800
C 	C 	0.98165 0.96049 0.44293 0.10700
C 	C 	0.96097 0.91524 0.44478 0.05900
C 	C 	0.91027 0.61291 0.63882 0.04400
C 	C 	0.86967 0.65061 0.54462 0.03500
H 	H 	0.84840 0.63980 0.52400 0.03100
C 	C 	0.73590 0.59337 0.49245 -0.14600
C 	C 	0.92141 0.55992 0.69582 -0.11700
C 	C 	0.89792 0.69195 0.54379 -0.11000
C 	C 	0.92874 0.53073 0.72390 0.38500
C 	C 	0.98258 0.89509 0.44783 -0.12400
H 	H 	0.01080 0.90960 0.44800 0.07800
C 	C 	0.89539 0.71929 0.50899 0.33900
C 	C 	0.91863 0.89157 0.44488 -0.13100
H 	H 	0.90270 0.90380 0.44280 0.08500
C 	C 	0.90525 0.64063 0.60722 0.04000
C 	C 	0.88278 0.55016 0.68163 0.04100
H 	H 	0.86030 0.52600 0.69100 0.02700
C 	C 	0.76633 0.60116 0.45568 0.40600
C 	C 	0.90079 0.85007 0.44809 0.07800
H 	H 	0.87260 0.83470 0.44820 -0.01200
C 	C 	0.95433 0.59602 0.68165 0.04300
H 	H 	0.98040 0.60280 0.69080 0.03500
C 	C 	0.92914 0.70770 0.57533 0.03400
H 	H 	0.94790 0.73540 0.57560 0.03200
C 	C 	0.72043 0.60496 0.56739 -0.12900
H 	H 	0.72890 0.61970 0.59410 0.07500
C 	C 	0.94889 0.62230 0.65393 -0.10800
H 	H 	0.97140 0.64670 0.64520 0.07100
C 	C 	0.93243 0.68215 0.60643 -0.10500
H 	H 	0.95350 0.69320 0.62740 0.06700
C 	C 	0.87757 0.57631 0.65358 -0.11000
H 	H 	0.85150 0.56930 0.64430 0.06800
C 	C 	0.96212 0.85337 0.45063 0.07900
H 	H 	0.97730 0.84030 0.45230 -0.00000
C 	C 	0.74795 0.61457 0.53147 0.06500
H 	H 	0.77460 0.63560 0.53460 0.01800
C 	C 	0.66865 0.55410 0.52232 -0.13100
H 	H 	0.64160 0.53440 0.51820 0.07700
C 	C 	0.68100 0.57380 0.56310 0.05500
C 	C 	0.69600 0.56325 0.48745 0.06800
H 	H 	0.68740 0.54900 0.46040 0.01600
Co	Co	0.55925 0.10005 0.78589 1.14900
O 	O 	0.58519 0.09048 0.84498 -0.40600
O 	O 	0.53627 0.03763 0.81048 -0.49700
O 	O 	0.56553 0.83562 0.07806 -0.42700
O 	O 	0.42665 0.90443 0.76553 -0.46100
O 	O 	0.46208 0.96966 0.78432 -0.43500
O 	O 	0.63112 0.87134 0.05841 -0.43400
N 	N 	0.62500 0.31089 0.77618 -0.13700
N 	N 	0.58855 0.16402 0.78444 -0.24200
C 	C 	0.53979 0.95866 0.90963 -0.11600
H 	H 	0.52037 0.93123 0.91023 0.07400
C 	C 	0.64832 0.29382 0.77626 0.09900
C 	C 	0.62764 0.24857 0.77811 0.06700
C 	C 	0.57694 0.94624 0.97215 0.03700
C 	C 	0.53634 0.98394 0.87795 0.05500
H 	H 	0.51507 0.97313 0.85733 0.02600
C 	C 	0.40257 0.92670 0.82578 -0.14400
C 	C 	0.58808 0.89325 0.02915 -0.11500
C 	C 	0.56459 0.02528 0.87712 -0.12700
C 	C 	0.59541 0.86406 0.05723 0.38500
C 	C 	0.64925 0.22842 0.78116 -0.14100
H 	H 	0.67747 0.24293 0.78133 0.08700
C 	C 	0.56206 0.05262 0.84232 0.34400
C 	C 	0.58530 0.22490 0.77821 -0.13700
H 	H 	0.56937 0.23713 0.77613 0.08600
C 	C 	0.57192 0.97396 0.94055 0.05600
C 	C 	0.54945 0.88349 0.01496 0.03800
H 	H 	0.52697 0.85933 0.02433 0.02800
C 	C 	0.43300 0.93449 0.78901 0.40600
C 	C 	0.56746 0.18340 0.78142 0.08100
H 	H 	0.53927 0.16803 0.78153 -0.01300
C 	C 	0.62100 0.92935 0.01498 0.04000
H 	H 	0.64707 0.93613 0.02413 0.03500
C 	C 	0.59581 0.04103 0.90866 0.04900
H 	H 	0.61457 0.06873 0.90893 0.02500
C 	C 	0.38710 0.93829 0.90072 -0.12800
H 	H 	0.39557 0.95303 0.92743 0.07600
C 	C 	0.61556 0.95563 0.98726 -0.10300
H 	H 	0.63807 0.98003 0.97853 0.06900
C 	C 	0.59910 0.01548 0.93976 -0.12600
H 	H 	0.62017 0.02653 0.96073 0.07100
C 	C 	0.54424 0.90964 0.98691 -0.10500
H 	H 	0.51817 0.90263 0.97763 0.06600
C 	C 	0.62879 0.18670 0.78396 0.08700
H 	H 	0.64397 0.17363 0.78563 -0.00400
C 	C 	0.41462 0.94790 0.86480 0.06500
H 	H 	0.44127 0.96893 0.86793 0.01900
C 	C 	0.33532 0.88743 0.85565 -0.13100
H 	H 	0.30827 0.86773 0.85153 0.07700
C 	C 	0.34767 0.90713 0.89643 0.05500
C 	C 	0.36267 0.89658 0.82078 0.06700
H 	H 	0.35407 0.88233 0.79373 0.01600
Co	Co	0.22592 0.43338 0.11922 1.14900
O 	O 	0.25185 0.42382 0.17832 -0.40400
O 	O 	0.20293 0.37097 0.14382 -0.49400
O 	O 	0.23219 0.16896 0.41140 -0.42700
O 	O 	0.09331 0.23777 0.09887 -0.46200
O 	O 	0.12874 0.30300 0.11766 -0.43800
O 	O 	0.29778 0.20468 0.39175 -0.43500
N 	N 	0.29166 0.64423 0.10952 -0.13700
N 	N 	0.25521 0.49736 0.11778 -0.24200
C 	C 	0.20645 0.29200 0.24297 -0.10100
H 	H 	0.18703 0.26457 0.24357 0.06800
C 	C 	0.31498 0.62716 0.10960 0.09900
C 	C 	0.29430 0.58191 0.11145 0.06700
C 	C 	0.24360 0.27958 0.30549 0.04400
C 	C 	0.20300 0.31728 0.21129 0.03500
H 	H 	0.18173 0.30647 0.19067 0.03100
C 	C 	0.06923 0.26004 0.15912 -0.15200
C 	C 	0.25474 0.22659 0.36249 -0.11800
C 	C 	0.23125 0.35862 0.21046 -0.11100
C 	C 	0.26207 0.19740 0.39057 0.38500
C 	C 	0.31591 0.56176 0.11450 -0.14100
H 	H 	0.34413 0.57627 0.11467 0.08700
C 	C 	0.22872 0.38596 0.17566 0.33900
C 	C 	0.25196 0.55824 0.11155 -0.13700
H 	H 	0.23603 0.57047 0.10947 0.08600
C 	C 	0.23858 0.30730 0.27389 0.03900
C 	C 	0.21611 0.21683 0.34830 0.04200
H 	H 	0.19363 0.19267 0.35767 0.02600
C 	C 	0.09966 0.26783 0.12235 0.40800
C 	C 	0.23412 0.51674 0.11476 0.08100
H 	H 	0.20593 0.50137 0.11487 -0.01300
C 	C 	0.28766 0.26269 0.34832 0.04300
H 	H 	0.31373 0.26947 0.35747 0.03300
C 	C 	0.26247 0.37437 0.24200 0.03400
H 	H 	0.28123 0.40207 0.24227 0.03100
C 	C 	0.05376 0.27163 0.23406 -0.13500
H 	H 	0.06223 0.28637 0.26077 0.07700
C 	C 	0.28222 0.28897 0.32060 -0.10800
H 	H 	0.30473 0.31337 0.31187 0.07000
C 	C 	0.26576 0.34882 0.27310 -0.10500
H 	H 	0.28683 0.35987 0.29407 0.06600
C 	C 	0.21090 0.24298 0.32025 -0.11100
H 	H 	0.18483 0.23597 0.31097 0.06800
C 	C 	0.29545 0.52004 0.11730 0.08700
H 	H 	0.31063 0.50697 0.11897 -0.00400
C 	C 	0.08128 0.28124 0.19814 0.07100
H 	H 	0.10793 0.30227 0.20127 0.01600
C 	C 	0.00198 0.22077 0.18899 -0.14900
H 	H 	0.97493 0.20107 0.18487 0.08600
C 	C 	0.01433 0.24047 0.22977 0.06000
C 	C 	0.02933 0.22992 0.15412 0.07800
H 	H 	0.02073 0.21567 0.12707 0.01100
Co	Co	0.87413 0.10742 0.45255 1.15000
O 	O 	0.83863 0.08148 0.51165 -0.40500
O 	O 	0.83470 0.13040 0.47715 -0.49400
O 	O 	0.60343 0.10114 0.74473 -0.42700
O 	O 	0.81112 0.24002 0.43220 -0.46100
O 	O 	0.84092 0.20459 0.45099 -0.43700
O 	O 	0.57356 0.03555 0.72508 -0.43600
N 	N 	0.01923 0.04167 0.44285 -0.13900
N 	N 	0.90881 0.07812 0.45111 -0.24200
C 	C 	0.75221 0.12688 0.57630 -0.10100
H 	H 	0.74420 0.14630 0.57690 0.06800
C 	C 	0.97884 0.01835 0.44293 0.09900
C 	C 	0.95427 0.03903 0.44478 0.06700
C 	C 	0.70264 0.08973 0.63882 0.04400
C 	C 	0.78094 0.13033 0.54462 0.03500
H 	H 	0.79140 0.15160 0.52400 0.03100
C 	C 	0.85747 0.26410 0.49245 -0.14500
C 	C 	0.63851 0.07859 0.69582 -0.11900
C 	C 	0.79403 0.10208 0.54379 -0.11100
C 	C 	0.60199 0.07126 0.72390 0.38600
C 	C 	0.91251 0.01742 0.44783 -0.15300
H 	H 	0.89880 0.98920 0.44800 0.09500
C 	C 	0.82390 0.10461 0.50899 0.33900
C 	C 	0.97294 0.08137 0.44488 -0.12500
H 	H 	0.00110 0.09730 0.44280 0.07900
C 	C 	0.73538 0.09475 0.60722 0.03900
C 	C 	0.66738 0.11722 0.68163 0.04200
H 	H 	0.66570 0.13970 0.69100 0.02600
C 	C 	0.83483 0.23367 0.45568 0.40600
C 	C 	0.94928 0.09921 0.44809 0.07700
H 	H 	0.96210 0.12740 0.44820 -0.01000
C 	C 	0.64169 0.04567 0.68165 0.04300
H 	H 	0.62240 0.01960 0.69080 0.03200
C 	C 	0.77856 0.07086 0.57533 0.03400
H 	H 	0.78750 0.05210 0.57560 0.03000
C 	C 	0.88453 0.27957 0.56739 -0.12900
H 	H 	0.89080 0.27110 0.59410 0.07600
C 	C 	0.67341 0.05111 0.65393 -0.10900
H 	H 	0.67530 0.02860 0.64520 0.06900
C 	C 	0.74972 0.06757 0.60643 -0.10600
H 	H 	0.73970 0.04650 0.62740 0.06500
C 	C 	0.69874 0.12243 0.65358 -0.11100
H 	H 	0.71780 0.14850 0.64430 0.06800
C 	C 	0.89125 0.03788 0.45063 0.09200
H 	H 	0.86300 0.02270 0.45230 -0.00700
C 	C 	0.86662 0.25205 0.53147 0.06600
H 	H 	0.86100 0.22540 0.53460 0.01800
C 	C 	0.88545 0.33135 0.52232 -0.13100
H 	H 	0.89280 0.35840 0.51820 0.07700
C 	C 	0.89280 0.31900 0.56310 0.05500
C 	C 	0.86725 0.30400 0.48745 0.06800
H 	H 	0.86160 0.31260 0.46040 0.01600
Co	Co	0.54080 0.44075 0.78589 1.14900
O 	O 	0.50530 0.41481 0.84498 -0.40400
O 	O 	0.50137 0.46373 0.81048 -0.49400
O 	O 	0.27010 0.43447 0.07806 -0.42700
O 	O 	0.47779 0.57335 0.76553 -0.46100
O 	O 	0.50759 0.53792 0.78432 -0.43700
O 	O 	0.24023 0.36888 0.05841 -0.43500
N 	N 	0.68590 0.37500 0.77618 -0.13700
N 	N 	0.57548 0.41145 0.78444 -0.24200
C 	C 	0.41888 0.46021 0.90963 -0.10100
H 	H 	0.41087 0.47963 0.91023 0.06800
C 	C 	0.64551 0.35168 0.77626 0.09900
C 	C 	0.62094 0.37236 0.77811 0.06700
C 	C 	0.36931 0.42306 0.97215 0.04400
C 	C 	0.44761 0.46366 0.87795 0.03500
H 	H 	0.45807 0.48493 0.85733 0.03100
C 	C 	0.52414 0.59743 0.82578 -0.14600
C 	C 	0.30518 0.41192 0.02915 -0.11800
C 	C 	0.46070 0.43541 0.87712 -0.11100
C 	C 	0.26866 0.40459 0.05723 0.38500
C 	C 	0.57918 0.35075 0.78116 -0.14100
H 	H 	0.56547 0.32253 0.78133 0.08700
C 	C 	0.49057 0.43794 0.84232 0.33900
C 	C 	0.63961 0.41470 0.77821 -0.13700
H 	H 	0.66777 0.43063 0.77613 0.08600
C 	C 	0.40205 0.42808 0.94055 0.03900
C 	C 	0.33405 0.45055 0.01496 0.04200
H 	H 	0.33237 0.47303 0.02433 0.02700
C 	C 	0.50150 0.56700 0.78901 0.40600
C 	C 	0.61595 0.43254 0.78142 0.08100
H 	H 	0.62877 0.46073 0.78153 -0.01300
C 	C 	0.30836 0.37900 0.01498 0.04300
H 	H 	0.28907 0.35293 0.02413 0.03300
C 	C 	0.44523 0.40419 0.90866 0.03400
H 	H 	0.45417 0.38543 0.90893 0.03100
C 	C 	0.55120 0.61290 0.90072 -0.12900
H 	H 	0.55747 0.60443 0.92743 0.07500
C 	C 	0.34008 0.38444 0.98726 -0.10800
H 	H 	0.34197 0.36193 0.97853 0.07000
C 	C 	0.41639 0.40090 0.93976 -0.10500
H 	H 	0.40637 0.37983 0.96073 0.06600
C 	C 	0.36541 0.45576 0.98691 -0.11100
H 	H 	0.38447 0.48183 0.97763 0.06800
C 	C 	0.55792 0.37121 0.78396 0.08700
H 	H 	0.52967 0.35603 0.78563 -0.00400
C 	C 	0.53329 0.58538 0.86480 0.06500
H 	H 	0.52767 0.55873 0.86793 0.01800
C 	C 	0.55212 0.66468 0.85565 -0.13100
H 	H 	0.55947 0.69173 0.85153 0.07700
C 	C 	0.55947 0.65233 0.89643 0.05500
C 	C 	0.53392 0.63733 0.82078 0.06800
H 	H 	0.52827 0.64593 0.79373 0.01600
Co	Co	0.20746 0.77408 0.11922 1.14900
O 	O 	0.17196 0.74815 0.17832 -0.40500
O 	O 	0.16803 0.79707 0.14382 -0.49400
O 	O 	0.93676 0.76781 0.41140 -0.42600
O 	O 	0.14445 0.90669 0.09887 -0.46000
O 	O 	0.17425 0.87126 0.11766 -0.43600
O 	O 	0.90689 0.70222 0.39175 -0.43400
N 	N 	0.35256 0.70834 0.10952 -0.13700
N 	N 	0.24214 0.74479 0.11778 -0.24200
C 	C 	0.08554 0.79355 0.24297 -0.10300
H 	H 	0.07753 0.81297 0.24357 0.06800
C 	C 	0.31217 0.68502 0.10960 0.09900
C 	C 	0.28760 0.70570 0.11145 0.06700
C 	C 	0.03597 0.75640 0.30549 0.03900
C 	C 	0.11427 0.79700 0.21129 0.03600
H 	H 	0.12473 0.81827 0.19067 0.03100
C 	C 	0.19080 0.93077 0.15912 -0.13900
C 	C 	0.97184 0.74526 0.36249 -0.10500
C 	C 	0.12736 0.76875 0.21046 -0.11200
C 	C 	0.93532 0.73793 0.39057 0.38100
C 	C 	0.24584 0.68409 0.11450 -0.14100
H 	H 	0.23213 0.65587 0.11467 0.08700
C 	C 	0.15723 0.77128 0.17566 0.33900
C 	C 	0.30627 0.74804 0.11155 -0.13700
H 	H 	0.33443 0.76397 0.10947 0.08600
C 	C 	0.06871 0.76142 0.27389 0.04100
C 	C 	0.00071 0.78389 0.34830 0.01600
H 	H 	0.99903 0.80637 0.35767 0.03900
C 	C 	0.16816 0.90034 0.12235 0.40400
C 	C 	0.28261 0.76588 0.11476 0.08100
H 	H 	0.29543 0.79407 0.11487 -0.01300
C 	C 	0.97502 0.71234 0.34832 0.04400
H 	H 	0.95573 0.68627 0.35747 0.03400
C 	C 	0.11189 0.73753 0.24200 0.03500
H 	H 	0.12083 0.71877 0.24227 0.03000
C 	C 	0.21786 0.94624 0.23406 -0.12300
H 	H 	0.22413 0.93777 0.26077 0.07400
C 	C 	0.00674 0.71778 0.32060 -0.11100
H 	H 	0.00863 0.69527 0.31187 0.06900
C 	C 	0.08305 0.73424 0.27310 -0.10700
H 	H 	0.07303 0.71317 0.29407 0.06600
C 	C 	0.03207 0.78910 0.32025 -0.09800
H 	H 	0.05113 0.81517 0.31097 0.06300
C 	C 	0.22458 0.70455 0.11730 0.08700
H 	H 	0.19633 0.68937 0.11897 -0.00400
C 	C 	0.19995 0.91872 0.19814 0.06000
H 	H 	0.19433 0.89207 0.20127 0.02000
C 	C 	0.21878 0.99802 0.18899 -0.11400
H 	H 	0.22613 0.02507 0.18487 0.06700
C 	C 	0.22613 0.98567 0.22977 0.05000
C 	C 	0.20058 0.97067 0.15412 0.05800
H 	H 	0.19493 0.97927 0.12707 0.02100
Co	Co	0.23329 0.12587 0.45255 1.14900
O 	O 	0.24285 0.16137 0.51165 -0.40500
O 	O 	0.29570 0.16530 0.47715 -0.49400
O 	O 	0.49771 0.39657 0.74473 -0.42700
O 	O 	0.42890 0.18888 0.43220 -0.46100
O 	O 	0.36367 0.15908 0.45099 -0.43700
O 	O 	0.46199 0.42644 0.72508 -0.43500
N 	N 	0.02244 0.98077 0.44285 -0.13700
N 	N 	0.16931 0.09119 0.45111 -0.24400
C 	C 	0.37467 0.24779 0.57630 -0.10100
H 	H 	0.40210 0.25580 0.57690 0.06800
C 	C 	0.03951 0.02116 0.44293 0.09100
C 	C 	0.08476 0.04573 0.44478 0.07400
C 	C 	0.38709 0.29736 0.63882 0.04400
C 	C 	0.34939 0.21906 0.54462 0.03500
H 	H 	0.36020 0.20860 0.52400 0.03100
C 	C 	0.40663 0.14253 0.49245 -0.14600
C 	C 	0.44008 0.36149 0.69582 -0.11800
C 	C 	0.30805 0.20597 0.54379 -0.11100
C 	C 	0.46927 0.39801 0.72390 0.38500
C 	C 	0.10491 0.08749 0.44783 -0.14600
H 	H 	0.09040 0.10120 0.44800 0.08900
C 	C 	0.28071 0.17610 0.50899 0.33900
C 	C 	0.10843 0.02706 0.44488 -0.15300
H 	H 	0.09620 0.99890 0.44280 0.09500
C 	C 	0.35937 0.26462 0.60722 0.03900
C 	C 	0.44984 0.33262 0.68163 0.04200
H 	H 	0.47400 0.33430 0.69100 0.02700
C 	C 	0.39884 0.16517 0.45568 0.40600
C 	C 	0.14993 0.05072 0.44809 0.08900
H 	H 	0.16530 0.03790 0.44820 -0.01700
C 	C 	0.40398 0.35831 0.68165 0.04300
H 	H 	0.39720 0.37760 0.69080 0.03300
C 	C 	0.29230 0.22144 0.57533 0.03400
H 	H 	0.26460 0.21250 0.57560 0.03100
C 	C 	0.39504 0.11547 0.56739 -0.12900
H 	H 	0.38030 0.10920 0.59410 0.07500
C 	C 	0.37770 0.32659 0.65393 -0.10800
H 	H 	0.35330 0.32470 0.64520 0.07000
C 	C 	0.31785 0.25028 0.60643 -0.10600
H 	H 	0.30680 0.26030 0.62740 0.06600
C 	C 	0.42369 0.30126 0.65358 -0.11100
H 	H 	0.43070 0.28220 0.64430 0.06800
C 	C 	0.14663 0.10875 0.45063 0.09000
H 	H 	0.15970 0.13700 0.45230 -0.00500
C 	C 	0.38543 0.13338 0.53147 0.06500
H 	H 	0.36440 0.13900 0.53460 0.01800
C 	C 	0.44590 0.11455 0.52232 -0.13100
H 	H 	0.46560 0.10720 0.51820 0.07700
C 	C 	0.42620 0.10720 0.56310 0.05400
C 	C 	0.43675 0.13275 0.48745 0.06800
H 	H 	0.45100 0.13840 0.46040 0.01600
Co	Co	0.89995 0.45920 0.78589 1.15000
O 	O 	0.90952 0.49470 0.84498 -0.40300
O 	O 	0.96237 0.49863 0.81048 -0.49000
O 	O 	0.16438 0.72990 0.07806 -0.42800
O 	O 	0.09557 0.52221 0.76553 -0.46100
O 	O 	0.03034 0.49241 0.78432 -0.43900
O 	O 	0.12866 0.75977 0.05841 -0.43500
N 	N 	0.68911 0.31410 0.77618 -0.13700
N 	N 	0.83598 0.42452 0.78444 -0.24200
C 	C 	0.04134 0.58112 0.90963 -0.08600
H 	H 	0.06877 0.58913 0.91023 0.06300
C 	C 	0.70618 0.35449 0.77626 0.09900
C 	C 	0.75143 0.37906 0.77811 0.06700
C 	C 	0.05376 0.63069 0.97215 0.05200
C 	C 	0.01606 0.55239 0.87795 0.01500
H 	H 	0.02687 0.54193 0.85733 0.03700
C 	C 	0.07330 0.47586 0.82578 -0.14700
C 	C 	0.10675 0.69482 0.02915 -0.12100
C 	C 	0.97472 0.53930 0.87712 -0.09400
C 	C 	0.13594 0.73134 0.05723 0.38600
C 	C 	0.77158 0.42082 0.78116 -0.14100
H 	H 	0.75707 0.43453 0.78133 0.08700
C 	C 	0.94738 0.50943 0.84232 0.33400
C 	C 	0.77510 0.36039 0.77821 -0.13700
H 	H 	0.76287 0.33223 0.77613 0.08600
C 	C 	0.02604 0.59795 0.94055 0.02200
C 	C 	0.11651 0.66595 0.01496 0.04500
H 	H 	0.14067 0.66763 0.02433 0.02500
C 	C 	0.06551 0.49850 0.78901 0.40700
C 	C 	0.81660 0.38405 0.78142 0.08100
H 	H 	0.83197 0.37123 0.78153 -0.01300
C 	C 	0.07065 0.69164 0.01498 0.04700
H 	H 	0.06387 0.71093 0.02413 0.03100
C 	C 	0.95897 0.55477 0.90866 0.01900
H 	H 	0.93127 0.54583 0.90893 0.03600
C 	C 	0.06171 0.44880 0.90072 -0.12900
H 	H 	0.04697 0.44253 0.92743 0.07500
C 	C 	0.04437 0.65992 0.98726 -0.11400
H 	H 	0.01997 0.65803 0.97853 0.07000
C 	C 	0.98452 0.58361 0.93976 -0.08500
H 	H 	0.97347 0.59363 0.96073 0.06100
C 	C 	0.09036 0.63459 0.98691 -0.11600
H 	H 	0.09737 0.61553 0.97763 0.07000
C 	C 	0.81330 0.44208 0.78396 0.08700
H 	H 	0.82637 0.47033 0.78563 -0.00400
C 	C 	0.05210 0.46671 0.86480 0.06600
H 	H 	0.03107 0.47233 0.86793 0.01600
C 	C 	0.11257 0.44788 0.85565 -0.13200
H 	H 	0.13227 0.44053 0.85153 0.07700
C 	C 	0.09287 0.44053 0.89643 0.05500
C 	C 	0.10342 0.46608 0.82078 0.06800
H 	H 	0.11767 0.47173 0.79373 0.01500
Co	Co	0.56662 0.79254 0.11922 1.14900
O 	O 	0.57618 0.82804 0.17832 -0.40400
O 	O 	0.62903 0.83197 0.14382 -0.49400
O 	O 	0.83104 0.06324 0.41140 -0.42900
O 	O 	0.76223 0.85555 0.09887 -0.46100
O 	O 	0.69700 0.82575 0.11766 -0.43700
O 	O 	0.79532 0.09311 0.39175 -0.43600
N 	N 	0.35577 0.64744 0.10952 -0.13700
N 	N 	0.50264 0.75786 0.11778 -0.24200
C 	C 	0.70800 0.91446 0.24297 -0.10000
H 	H 	0.73543 0.92247 0.24357 0.06800
C 	C 	0.37284 0.68783 0.10960 0.09900
C 	C 	0.41809 0.71240 0.11145 0.06700
C 	C 	0.72042 0.96403 0.30549 0.05000
C 	C 	0.68272 0.88573 0.21129 0.03400
H 	H 	0.69353 0.87527 0.19067 0.03200
C 	C 	0.73996 0.80920 0.15912 -0.14600
C 	C 	0.77341 0.02816 0.36249 -0.13100
C 	C 	0.64138 0.87264 0.21046 -0.11000
C 	C 	0.80260 0.06468 0.39057 0.38900
C 	C 	0.43824 0.75416 0.11450 -0.14100
H 	H 	0.42373 0.76787 0.11467 0.08700
C 	C 	0.61404 0.84277 0.17566 0.33900
C 	C 	0.44176 0.69373 0.11155 -0.13700
H 	H 	0.42953 0.66557 0.10947 0.08600
C 	C 	0.69270 0.93129 0.27389 0.03800
C 	C 	0.78317 0.99929 0.34830 0.06700
H 	H 	0.80733 0.00097 0.35767 0.01400
C 	C 	0.73217 0.83184 0.12235 0.40600
C 	C 	0.48326 0.71739 0.11476 0.08100
H 	H 	0.49863 0.70457 0.11487 -0.01300
C 	C 	0.73731 0.02498 0.34832 0.04300
H 	H 	0.73053 0.04427 0.35747 0.03200
C 	C 	0.62563 0.88811 0.24200 0.03300
H 	H 	0.59793 0.87917 0.24227 0.03100
C 	C 	0.72837 0.78214 0.23406 -0.12900
H 	H 	0.71363 0.77587 0.26077 0.07500
C 	C 	0.71103 0.99326 0.32060 -0.10600
H 	H 	0.68663 0.99137 0.31187 0.07000
C 	C 	0.65118 0.91695 0.27310 -0.10400
H 	H 	0.64013 0.92697 0.29407 0.06600
C 	C 	0.75702 0.96793 0.32025 -0.12300
H 	H 	0.76403 0.94887 0.31097 0.07400
C 	C 	0.47996 0.77542 0.11730 0.08700
H 	H 	0.49303 0.80367 0.11897 -0.00400
C 	C 	0.71876 0.80005 0.19814 0.06600
H 	H 	0.69773 0.80567 0.20127 0.01800
C 	C 	0.77923 0.78122 0.18899 -0.13100
H 	H 	0.79893 0.77387 0.18487 0.07700
C 	C 	0.75953 0.77387 0.22977 0.05500
C 	C 	0.77008 0.79942 0.15412 0.06800
H 	H 	0.78433 0.80507 0.12707 0.01600
Co	Co	0.66667 0.85009 0.08333 1.20000
Co	Co	0.33333 0.18343 0.41667 1.20000
Co	Co	0.14991 0.81657 0.08333 1.20000
Co	Co	0.48324 0.48324 0.75000 1.20000
Co	Co	0.18343 0.33333 0.08333 1.20000
Co	Co	0.85009 0.66667 0.41667 1.20000
Co	Co	0.51676 0.00000 0.75000 1.19700
Co	Co	0.81657 0.14991 0.41667 1.20000
Co	Co	0.00000 0.51676 0.75000 1.19700
