data_crystal

_cell_length_a 10.54840
_cell_length_b 10.54840
_cell_length_c 14.72430
_cell_angle_alpha 90.57040
_cell_angle_beta  90.57040
_cell_angle_gamma 105.63500

_symmetry_space_group_name_	'P 1'
_symmetry_space_group_name_H-M	'P 1'

loop_
_symmetry_equiv_pos_as_xyz
  x,y,z

loop_
_atom_site_label
_atom_site_type_symbol
_atom_site_fract_x
_atom_site_fract_y
_atom_site_fract_z
_atom_site_charge
Tb	Tb	0.57250 0.67472 0.55754 1.76000
Tb	Tb	0.82528 0.92750 0.94246 1.74300
Tb	Tb	0.42750 0.32528 0.44246 1.76000
Tb	Tb	0.17472 0.07250 0.05754 1.74300
H 	H 	0.78900 0.55980 0.28730 0.12600
H 	H 	0.64520 0.55260 0.25470 0.13300
H 	H 	0.32100 0.61360 0.24790 0.14100
H 	H 	0.20540 0.64120 0.30360 0.13400
H 	H 	0.32420 0.96200 0.34120 0.09200
H 	H 	0.19630 0.84550 0.33140 0.10300
H 	H 	0.94020 0.71100 0.21270 0.12600
H 	H 	0.94740 0.85480 0.24530 0.13400
H 	H 	0.88640 0.17900 0.25210 0.14100
H 	H 	0.85880 0.29460 0.19640 0.13500
H 	H 	0.53800 0.17580 0.15880 0.09000
H 	H 	0.65450 0.30370 0.16860 0.10300
H 	H 	0.21100 0.44020 0.71270 0.12600
H 	H 	0.35480 0.44740 0.74530 0.13300
H 	H 	0.67900 0.38640 0.75210 0.14100
H 	H 	0.79460 0.35880 0.69640 0.13400
H 	H 	0.67580 0.03800 0.65880 0.09200
H 	H 	0.80370 0.15450 0.66860 0.10300
H 	H 	0.05980 0.28900 0.78730 0.12600
H 	H 	0.05260 0.14520 0.75470 0.13400
H 	H 	0.11360 0.82100 0.74790 0.14100
H 	H 	0.14120 0.70540 0.80360 0.13500
H 	H 	0.46200 0.82420 0.84120 0.09000
H 	H 	0.34550 0.69630 0.83140 0.10300
C 	C 	0.48580 0.84560 0.26920 0.16100
C 	C 	0.71990 0.60450 0.28960 -0.31200
C 	C 	0.67940 0.61520 0.38840 0.47400
C 	C 	0.30030 0.65850 0.30130 -0.33100
C 	C 	0.34710 0.59970 0.38510 0.50800
C 	C 	0.27750 0.89030 0.30160 -0.24800
C 	C 	0.24320 0.94720 0.21400 0.36400
C 	C 	0.65440 0.01420 0.23080 0.15500
C 	C 	0.89550 0.78010 0.21040 -0.31100
C 	C 	0.88480 0.82060 0.11160 0.47200
C 	C 	0.84150 0.19970 0.19870 -0.33300
C 	C 	0.90030 0.15290 0.11490 0.51100
C 	C 	0.60970 0.22250 0.19840 -0.24600
C 	C 	0.55280 0.25680 0.28600 0.35900
C 	C 	0.51420 0.15440 0.73080 0.16100
C 	C 	0.28010 0.39550 0.71040 -0.31200
C 	C 	0.32060 0.38480 0.61160 0.47400
C 	C 	0.69970 0.34150 0.69870 -0.33100
C 	C 	0.65290 0.40030 0.61490 0.50800
C 	C 	0.72250 0.10970 0.69840 -0.24800
C 	C 	0.75680 0.05280 0.78600 0.36400
C 	C 	0.34560 0.98580 0.76920 0.15500
C 	C 	0.10450 0.21990 0.78960 -0.31100
C 	C 	0.11520 0.17940 0.88840 0.47200
C 	C 	0.15850 0.80030 0.80130 -0.33300
C 	C 	0.09970 0.84710 0.88510 0.51100
C 	C 	0.39030 0.77750 0.80160 -0.24600
C 	C 	0.44720 0.74320 0.71400 0.35900
C 	C 	0.68560 0.81440 0.25000 0.16500
C 	C 	0.31440 0.18560 0.75000 0.16500
N 	N 	0.55898 0.75982 0.26900 -0.16500
N 	N 	0.35695 0.79885 0.29100 -0.05200
N 	N 	0.74018 0.94102 0.23100 -0.16200
N 	N 	0.70115 0.14305 0.20900 -0.05200
N 	N 	0.44102 0.24018 0.73100 -0.16500
N 	N 	0.64305 0.20115 0.70900 -0.05200
N 	N 	0.25982 0.05898 0.76900 -0.16200
N 	N 	0.29885 0.85695 0.79100 -0.05200
N 	N 	0.52650 0.97350 0.25000 -0.16300
N 	N 	0.76640 0.73360 0.25000 -0.04700
N 	N 	0.47350 0.02650 0.75000 -0.16300
N 	N 	0.23360 0.26640 0.75000 -0.04700
O 	O 	0.73528 0.71284 0.43596 -0.46800
O 	O 	0.58932 0.52348 0.42060 -0.56700
O 	O 	0.40822 0.67546 0.44634 -0.48500
O 	O 	0.31816 0.47550 0.38543 -0.49800
O 	O 	0.20355 0.05093 0.21984 -0.44600
O 	O 	0.24864 0.89554 0.13819 -0.39600
O 	O 	0.78716 0.76472 0.06404 -0.46300
O 	O 	0.97652 0.91068 0.07940 -0.55800
O 	O 	0.82454 0.09178 0.05366 -0.48600
O 	O 	0.02450 0.18184 0.11457 -0.50100
O 	O 	0.44907 0.29645 0.28016 -0.44200
O 	O 	0.60446 0.25136 0.36181 -0.39800
O 	O 	0.26472 0.28716 0.56404 -0.46800
O 	O 	0.41068 0.47652 0.57940 -0.56700
O 	O 	0.59178 0.32454 0.55366 -0.48500
O 	O 	0.68184 0.52450 0.61457 -0.49800
O 	O 	0.79645 0.94907 0.78016 -0.44600
O 	O 	0.75136 0.10446 0.86181 -0.39600
O 	O 	0.21284 0.23528 0.93596 -0.46300
O 	O 	0.02348 0.08932 0.92060 -0.55800
O 	O 	0.17546 0.90822 0.94634 -0.48600
O 	O 	0.97550 0.81816 0.88543 -0.50100
O 	O 	0.55093 0.70355 0.71984 -0.44200
O 	O 	0.39554 0.74864 0.63819 -0.39800
