data_crystal

_cell_length_a 10.56210
_cell_length_b 10.56210
_cell_length_c 14.80200
_cell_angle_alpha 90.59680
_cell_angle_beta  90.59680
_cell_angle_gamma 105.76100

_symmetry_space_group_name_	'P 1'
_symmetry_space_group_name_H-M	'P 1'

loop_
_symmetry_equiv_pos_as_xyz
  x,y,z

loop_
_atom_site_label
_atom_site_type_symbol
_atom_site_fract_x
_atom_site_fract_y
_atom_site_fract_z
_atom_site_charge
Dy	Dy	0.82357 0.42673 0.44291 1.64000
Dy	Dy	0.57327 0.17643 0.05709 1.63300
Dy	Dy	0.17643 0.57327 0.55709 1.64100
Dy	Dy	0.42673 0.82357 0.94291 1.63400
H 	H 	0.94700 0.35340 0.74560 0.13000
H 	H 	0.93900 0.20920 0.71360 0.12300
H 	H 	0.86110 0.79330 0.69990 0.13500
H 	H 	0.88770 0.67530 0.75280 0.14300
H 	H 	0.65640 0.80200 0.67010 0.10800
H 	H 	0.53990 0.67410 0.65990 0.09800
H 	H 	0.64660 0.05300 0.75440 0.13000
H 	H 	0.79080 0.06100 0.78640 0.12400
H 	H 	0.20670 0.13890 0.80010 0.13700
H 	H 	0.32470 0.11230 0.74720 0.14400
H 	H 	0.19800 0.34360 0.82990 0.10900
H 	H 	0.32590 0.46010 0.84010 0.09800
H 	H 	0.05300 0.64660 0.25440 0.13000
H 	H 	0.06100 0.79080 0.28640 0.12300
H 	H 	0.13890 0.20670 0.30010 0.13500
H 	H 	0.11230 0.32470 0.24720 0.14300
H 	H 	0.34360 0.19800 0.32990 0.10800
H 	H 	0.46010 0.32590 0.34010 0.09800
H 	H 	0.35340 0.94700 0.24560 0.13000
H 	H 	0.20920 0.93900 0.21360 0.12400
H 	H 	0.79330 0.86110 0.19990 0.13700
H 	H 	0.67530 0.88770 0.25280 0.14400
H 	H 	0.80200 0.65640 0.17010 0.10900
H 	H 	0.67410 0.53990 0.15990 0.09800
C 	C 	0.65500 0.51360 0.73150 0.16000
C 	C 	0.89480 0.27840 0.71110 -0.29700
C 	C 	0.88270 0.31850 0.61140 0.46300
C 	C 	0.84280 0.69820 0.70060 -0.33400
C 	C 	0.89800 0.65320 0.61650 0.48800
C 	C 	0.61130 0.72090 0.69960 -0.26100
C 	C 	0.55410 0.75470 0.78600 0.37600
C 	C 	0.48640 0.34500 0.76850 0.16000
C 	C 	0.72160 0.10520 0.78890 -0.29700
C 	C 	0.68150 0.11730 0.88860 0.46200
C 	C 	0.30180 0.15720 0.79940 -0.33600
C 	C 	0.34680 0.10200 0.88350 0.49200
C 	C 	0.27910 0.38870 0.80040 -0.26200
C 	C 	0.24530 0.44590 0.71400 0.37700
C 	C 	0.34500 0.48640 0.26850 0.16000
C 	C 	0.10520 0.72160 0.28890 -0.29700
C 	C 	0.11730 0.68150 0.38860 0.46300
C 	C 	0.15720 0.30180 0.29940 -0.33400
C 	C 	0.10200 0.34680 0.38350 0.48800
C 	C 	0.38870 0.27910 0.30040 -0.26100
C 	C 	0.44590 0.24530 0.21400 0.37600
C 	C 	0.51360 0.65500 0.23150 0.16000
C 	C 	0.27840 0.89480 0.21110 -0.29700
C 	C 	0.31850 0.88270 0.11140 0.46200
C 	C 	0.69820 0.84280 0.20060 -0.33600
C 	C 	0.65320 0.89800 0.11650 0.49200
C 	C 	0.72090 0.61130 0.19960 -0.26200
C 	C 	0.75470 0.55410 0.28600 0.37700
C 	C 	0.68730 0.31270 0.75000 0.16200
C 	C 	0.31270 0.68730 0.25000 0.16200
N 	N 	0.74200 0.44040 0.73080 -0.16200
N 	N 	0.70210 0.64190 0.71050 -0.05000
N 	N 	0.55960 0.25800 0.76920 -0.16200
N 	N 	0.35810 0.29790 0.78950 -0.05000
N 	N 	0.25800 0.55960 0.26920 -0.16200
N 	N 	0.29790 0.35810 0.28950 -0.05000
N 	N 	0.44040 0.74200 0.23080 -0.16200
N 	N 	0.64190 0.70210 0.21050 -0.05000
N 	N 	0.52750 0.47250 0.75000 -0.16600
N 	N 	0.76690 0.23310 0.75000 -0.04900
N 	N 	0.47250 0.52750 0.25000 -0.16600
N 	N 	0.23310 0.76690 0.25000 -0.04900
O 	O 	0.97530 0.40910 0.58010 -0.53400
O 	O 	0.78790 0.26050 0.56510 -0.45200
O 	O 	0.02350 0.68210 0.61510 -0.46700
O 	O 	0.82360 0.59420 0.55430 -0.46100
O 	O 	0.45150 0.79530 0.77920 -0.42800
O 	O 	0.60400 0.74940 0.86070 -0.39400
O 	O 	0.59090 0.02470 0.91990 -0.53000
O 	O 	0.73950 0.21210 0.93490 -0.44900
O 	O 	0.31790 0.97650 0.88490 -0.47000
O 	O 	0.40580 0.17640 0.94570 -0.46000
O 	O 	0.20470 0.54850 0.72080 -0.42800
O 	O 	0.25060 0.39600 0.63930 -0.39400
O 	O 	0.02470 0.59090 0.41990 -0.53400
O 	O 	0.21210 0.73950 0.43490 -0.45200
O 	O 	0.97650 0.31790 0.38490 -0.46700
O 	O 	0.17640 0.40580 0.44570 -0.46100
O 	O 	0.54850 0.20470 0.22080 -0.42800
O 	O 	0.39600 0.25060 0.13930 -0.39400
O 	O 	0.40910 0.97530 0.08010 -0.53000
O 	O 	0.26050 0.78790 0.06510 -0.44900
O 	O 	0.68210 0.02350 0.11510 -0.47000
O 	O 	0.59420 0.82360 0.05430 -0.46000
O 	O 	0.79530 0.45150 0.27920 -0.42800
O 	O 	0.74940 0.60400 0.36070 -0.39400
