data_crystal

_cell_length_a 15.41910
_cell_length_b 15.41910
_cell_length_c 15.41910
_cell_angle_alpha 68.76910
_cell_angle_beta  73.99350
_cell_angle_gamma 111.23100

_symmetry_space_group_name_	'P 1'
_symmetry_space_group_name_H-M	'P 1'

loop_
_symmetry_equiv_pos_as_xyz
  x,y,z

loop_
_atom_site_label
_atom_site_type_symbol
_atom_site_fract_x
_atom_site_fract_y
_atom_site_fract_z
_atom_site_charge
Cu	Cu	0.55255 0.80695 0.10854 0.70400
Cu	Cu	0.22598 0.93156 0.09752 0.80100
Cu	Cu	0.58451 0.69305 0.25440 0.70400
Cu	Cu	0.47092 0.56844 0.70558 0.80200
Cu	Cu	0.24560 0.16109 0.94745 0.70300
Cu	Cu	0.79442 0.82350 0.27402 0.80200
Cu	Cu	0.39146 0.33891 0.91549 0.70300
Cu	Cu	0.40248 0.67650 0.02908 0.80100
Cu	Cu	0.44745 0.19305 0.89146 0.70300
Cu	Cu	0.77402 0.06844 0.90248 0.80000
Cu	Cu	0.41549 0.30695 0.74560 0.70400
Cu	Cu	0.52908 0.43156 0.29442 0.80200
Cu	Cu	0.75440 0.83891 0.05255 0.70300
Cu	Cu	0.20558 0.17650 0.72598 0.80200
Cu	Cu	0.60854 0.66109 0.08451 0.70300
Cu	Cu	0.59752 0.32350 0.97092 0.80100
H 	H 	0.23250 0.70410 0.01180 0.13200
H 	H 	0.24380 0.82070 0.95910 0.16500
H 	H 	0.15680 0.73020 0.07860 0.14100
H 	H 	0.46260 0.92850 0.20330 0.17800
H 	H 	0.37280 0.95760 0.20460 0.16800
H 	H 	0.48550 0.03120 0.10230 0.18400
H 	H 	0.78410 0.79590 0.47160 0.12800
H 	H 	0.72020 0.67930 0.57690 0.15600
H 	H 	0.69120 0.76980 0.57340 0.13700
H 	H 	0.36820 0.57150 0.46590 0.17400
H 	H 	0.33780 0.54240 0.58480 0.16400
H 	H 	0.36650 0.46880 0.54570 0.17500
H 	H 	0.02840 0.74430 0.26750 0.12200
H 	H 	0.92310 0.70290 0.25620 0.15200
H 	H 	0.92660 0.73540 0.34320 0.13300
H 	H 	0.03410 0.16590 0.03740 0.17200
H 	H 	0.91520 0.07740 0.12720 0.16400
H 	H 	0.95430 0.08780 0.01450 0.17700
H 	H 	0.48820 0.75570 0.71590 0.12800
H 	H 	0.54090 0.79710 0.77980 0.15700
H 	H 	0.42140 0.76460 0.80880 0.13800
H 	H 	0.29670 0.33410 0.13180 0.17400
H 	H 	0.29540 0.42260 0.16220 0.16400
H 	H 	0.39770 0.41220 0.13350 0.17500
H 	H 	0.76750 0.29590 0.98820 0.13200
H 	H 	0.75620 0.17930 0.04090 0.16500
H 	H 	0.84320 0.26980 0.92140 0.14100
H 	H 	0.53740 0.07150 0.79670 0.17800
H 	H 	0.62720 0.04240 0.79540 0.16800
H 	H 	0.51450 0.96880 0.89770 0.18400
H 	H 	0.21590 0.20410 0.52840 0.12800
H 	H 	0.27980 0.32070 0.42310 0.15600
H 	H 	0.30880 0.23020 0.42660 0.13700
H 	H 	0.63180 0.42850 0.53410 0.17400
H 	H 	0.66220 0.45760 0.41520 0.16400
H 	H 	0.63350 0.53120 0.45430 0.17500
H 	H 	0.97160 0.25570 0.73250 0.12200
H 	H 	0.07690 0.29710 0.74380 0.15200
H 	H 	0.07340 0.26460 0.65680 0.13300
H 	H 	0.96590 0.83410 0.96260 0.17200
H 	H 	0.08480 0.92260 0.87280 0.16400
H 	H 	0.04570 0.91220 0.98550 0.17700
H 	H 	0.51180 0.24430 0.28410 0.12800
H 	H 	0.45910 0.20290 0.22020 0.15700
H 	H 	0.57860 0.23540 0.19120 0.13800
H 	H 	0.70330 0.66590 0.86820 0.17400
H 	H 	0.70460 0.57740 0.83780 0.16400
H 	H 	0.60230 0.58780 0.86650 0.17500
C 	C 	0.39380 0.88680 0.11800 0.22000
C 	C 	0.30640 0.80170 0.06130 0.19000
C 	C 	0.22810 0.76060 0.02450 -0.57600
C 	C 	0.43200 0.95710 0.16070 -0.63200
C 	C 	0.49520 0.61320 0.49300 0.21700
C 	C 	0.63700 0.69830 0.49530 0.18600
C 	C 	0.71490 0.73940 0.53250 -0.55800
C 	C 	0.38220 0.54290 0.52510 -0.61500
C 	C 	0.00700 0.01180 0.10620 0.21700
C 	C 	0.00470 0.86770 0.19360 0.17700
C 	C 	0.96750 0.75260 0.27190 -0.54100
C 	C 	0.97490 0.09270 0.06800 -0.61100
C 	C 	0.38200 0.48820 0.00480 0.21600
C 	C 	0.43870 0.63230 0.86300 0.18700
C 	C 	0.47550 0.74740 0.78510 -0.55800
C 	C 	0.33930 0.40730 0.11780 -0.61400
C 	C 	0.60620 0.11320 0.88200 0.22000
C 	C 	0.69360 0.19830 0.93870 0.19000
C 	C 	0.77190 0.23940 0.97550 -0.57600
C 	C 	0.56800 0.04290 0.83930 -0.63200
C 	C 	0.50480 0.38680 0.50700 0.21700
C 	C 	0.36300 0.30170 0.50470 0.18600
C 	C 	0.28510 0.26060 0.46750 -0.55800
C 	C 	0.61780 0.45710 0.47490 -0.61500
C 	C 	0.99300 0.98820 0.89380 0.21700
C 	C 	0.99530 0.13230 0.80640 0.17700
C 	C 	0.03250 0.24740 0.72810 -0.54100
C 	C 	0.02510 0.90730 0.93200 -0.61100
C 	C 	0.61800 0.51180 0.99520 0.21600
C 	C 	0.56130 0.36770 0.13700 0.18700
C 	C 	0.52450 0.25260 0.21490 -0.55800
C 	C 	0.66070 0.59270 0.88220 -0.61400
I 	I 	0.41956 0.57910 0.24564 -0.80500
I 	I 	0.67526 0.92090 0.15954 -0.80700
I 	I 	0.34046 0.16520 0.08044 -0.80000
I 	I 	0.25436 0.33480 0.82474 -0.80400
I 	I 	0.58044 0.42090 0.75436 -0.80500
I 	I 	0.32474 0.07910 0.84046 -0.80700
I 	I 	0.65954 0.83480 0.91956 -0.80000
I 	I 	0.74564 0.66520 0.17526 -0.80400
N 	N 	0.43430 0.82760 0.10090 -0.26100
N 	N 	0.31420 0.87310 0.09350 -0.33200
N 	N 	0.37820 0.77350 0.06330 -0.27800
N 	N 	0.57150 0.67240 0.39330 -0.26000
N 	N 	0.53340 0.62690 0.55890 -0.33000
N 	N 	0.66320 0.72650 0.39530 -0.27600
N 	N 	0.10670 0.03520 0.06570 -0.25700
N 	N 	0.94110 0.90770 0.18580 -0.32900
N 	N 	0.10470 0.94150 0.12180 -0.27800
N 	N 	0.39910 0.46480 0.92850 -0.26000
N 	N 	0.40650 0.59230 0.96660 -0.32900
N 	N 	0.43670 0.55850 0.83680 -0.27600
N 	N 	0.56570 0.17240 0.89910 -0.26100
N 	N 	0.68580 0.12690 0.90650 -0.33200
N 	N 	0.62180 0.22650 0.93670 -0.27800
N 	N 	0.42850 0.32760 0.60670 -0.26000
N 	N 	0.46660 0.37310 0.44110 -0.33000
N 	N 	0.33680 0.27350 0.60470 -0.27600
N 	N 	0.89330 0.96480 0.93430 -0.25700
N 	N 	0.05890 0.09230 0.81420 -0.32900
N 	N 	0.89530 0.05850 0.87820 -0.27800
N 	N 	0.60090 0.53520 0.07150 -0.26000
N 	N 	0.59350 0.40770 0.03340 -0.32900
N 	N 	0.56330 0.44150 0.16320 -0.27600
