data_crystal

_cell_length_a 5.63390
_cell_length_b 15.94280
_cell_length_c 9.61830
_cell_angle_alpha 90.00000
_cell_angle_beta  91.11560
_cell_angle_gamma 90.00000

_symmetry_space_group_name_	'P 1'
_symmetry_space_group_name_H-M	'P 1'

loop_
_symmetry_equiv_pos_as_xyz
  x,y,z

loop_
_atom_site_label
_atom_site_type_symbol
_atom_site_fract_x
_atom_site_fract_y
_atom_site_fract_z
_atom_site_charge
Cd	Cd	0.29808 0.33175 0.93741 1.23800
P 	P 	0.30750 0.19603 0.65010 0.55900
O 	O 	0.36380 0.22620 0.79730 -0.38700
O 	O 	0.49210 0.22440 0.54840 -0.40000
O 	O 	0.05620 0.21960 0.60740 -0.36900
O 	O 	0.31310 0.09630 0.65790 -0.45600
H 	H 	0.44800 0.07960 0.64340 0.28200
O 	O 	0.57590 0.42880 0.86840 -0.35200
O 	O 	0.74570 0.54970 0.92800 -0.36500
C 	C 	0.59240 0.49390 0.94110 0.25000
Cd	Cd	0.20192 0.83175 0.56259 1.23900
P 	P 	0.19250 0.69603 0.84990 0.56000
O 	O 	0.13620 0.72620 0.70270 -0.38700
O 	O 	0.00790 0.72440 0.95160 -0.40100
O 	O 	0.44380 0.71960 0.89260 -0.36800
O 	O 	0.18690 0.59630 0.84210 -0.45600
H 	H 	0.05200 0.57960 0.85660 0.28100
O 	O 	0.92410 0.92880 0.63160 -0.35200
O 	O 	0.75430 0.04970 0.57200 -0.36700
C 	C 	0.90760 0.99390 0.55890 0.25000
Cd	Cd	0.70192 0.66825 0.06259 1.23900
P 	P 	0.69250 0.80397 0.34990 0.56000
O 	O 	0.63620 0.77380 0.20270 -0.38700
O 	O 	0.50790 0.77560 0.45160 -0.40000
O 	O 	0.94380 0.78040 0.39260 -0.36900
O 	O 	0.68690 0.90370 0.34210 -0.45600
H 	H 	0.55200 0.92040 0.35660 0.28200
O 	O 	0.42410 0.57120 0.13160 -0.35200
O 	O 	0.25430 0.45030 0.07200 -0.36500
C 	C 	0.40760 0.50610 0.05890 0.25000
Cd	Cd	0.79808 0.16825 0.43741 1.23900
P 	P 	0.80750 0.30397 0.15010 0.56000
O 	O 	0.86380 0.27380 0.29730 -0.38700
O 	O 	0.99210 0.27560 0.04840 -0.40100
O 	O 	0.55620 0.28040 0.10740 -0.36800
O 	O 	0.81310 0.40370 0.15790 -0.45600
H 	H 	0.94800 0.42040 0.14340 0.28100
O 	O 	0.07590 0.07120 0.36840 -0.35200
O 	O 	0.24570 0.95030 0.42800 -0.36700
C 	C 	0.09240 0.00610 0.44110 0.25000
