data_crystal

_cell_length_a 18.09730
_cell_length_b 28.43690
_cell_length_c 28.50160
_cell_angle_alpha 90.00000
_cell_angle_beta  90.00000
_cell_angle_gamma 90.00000

_symmetry_space_group_name_	'P 1'
_symmetry_space_group_name_H-M	'P 1'

loop_
_symmetry_equiv_pos_as_xyz
  x,y,z

loop_
_atom_site_label
_atom_site_type_symbol
_atom_site_fract_x
_atom_site_fract_y
_atom_site_fract_z
_atom_site_charge
Cu	Cu	0.98439 0.24352 0.76392 0.85100
Cu	Cu	0.74176 0.48614 0.50309 0.85100
N 	N 	0.53250 0.29336 0.28897 -0.23700
N 	N 	0.93990 0.28653 0.71588 -0.24000
N 	N 	0.78660 0.43611 0.54502 -0.24000
N 	N 	0.96490 0.70338 0.68782 -0.24500
N 	N 	0.68880 0.43612 0.46496 -0.24200
N 	N 	0.93880 0.28440 0.81493 -0.23600
N 	N 	0.80170 0.46264 0.96243 -0.24500
N 	N 	0.79290 0.53639 0.54142 -0.24200
C 	C 	0.88120 0.35030 0.87670 0.04900
C 	C 	0.89710 0.64050 0.62610 0.05900
C 	C 	0.87870 0.34480 0.64810 0.05300
C 	C 	0.60160 0.29760 0.36030 -0.14000
H 	H 	0.62860 0.28190 0.38330 0.07500
C 	C 	0.98080 0.30280 0.84900 0.07300
H 	H 	0.02990 0.29350 0.85150 -0.01800
C 	C 	0.62340 0.37470 0.40070 0.05700
C 	C 	0.84640 0.37640 0.61190 0.05700
C 	C 	0.83670 0.33020 0.84180 -0.13600
H 	H 	0.78740 0.33890 0.83870 0.07100
C 	C 	0.77210 0.37370 0.60010 -0.14100
H 	H 	0.74150 0.35170 0.61440 0.07300
C 	C 	0.89420 0.26950 0.68360 0.07900
H 	H 	0.88450 0.23740 0.68350 -0.02500
C 	C 	0.61830 0.43990 0.45380 0.08400
H 	H 	0.59030 0.46340 0.46790 -0.02500
C 	C 	0.81850 0.56980 0.61660 -0.14300
H 	H 	0.81170 0.56920 0.64900 0.07400
C 	C 	0.85330 0.38960 0.90690 0.06500
C 	C 	0.72670 0.40030 0.44660 0.07700
H 	H 	0.77550 0.39610 0.45580 -0.02100
C 	C 	0.57070 0.27300 0.32330 0.07900
H 	H 	0.57700 0.24060 0.32240 -0.01900
C 	C 	0.86040 0.29760 0.65000 -0.14200
H 	H 	0.82610 0.28500 0.62930 0.07500
C 	C 	0.00190 0.68480 0.65160 0.07400
H 	H 	0.05120 0.69320 0.64750 -0.02000
C 	C 	0.89030 0.40800 0.58840 -0.14500
H 	H 	0.94070 0.40970 0.59470 0.07400
C 	C 	0.58400 0.41020 0.42190 -0.14700
H 	H 	0.53430 0.41430 0.41470 0.07400
C 	C 	0.97020 0.65380 0.62000 -0.14100
H 	H 	0.99760 0.64210 0.59490 0.07200
C 	C 	0.85920 0.66020 0.66250 -0.15000
H 	H 	0.80970 0.65290 0.66730 0.07500
C 	C 	0.86120 0.60400 0.59620 0.05600
C 	C 	0.74400 0.40440 0.56650 0.07400
H 	H 	0.69410 0.40270 0.55890 -0.02000
C 	C 	0.86810 0.39110 0.95470 -0.15500
H 	H 	0.89640 0.36770 0.96870 0.08000
C 	C 	0.92710 0.36300 0.68200 -0.13800
H 	H 	0.93910 0.39480 0.68220 0.07200
C 	C 	0.85850 0.43730 0.55550 0.07900
H 	H 	0.88850 0.45870 0.53990 -0.02300
C 	C 	0.69690 0.36940 0.41460 -0.14300
H 	H 	0.72550 0.34520 0.40230 0.07400
C 	C 	0.89500 0.69130 0.69220 0.08600
H 	H 	0.86810 0.70440 0.71670 -0.02500
C 	C 	0.55110 0.36730 0.32720 -0.13500
H 	H 	0.54270 0.39960 0.32810 0.07100
C 	C 	0.52330 0.34060 0.29090 0.06700
H 	H 	0.49740 0.35560 0.26690 -0.01900
C 	C 	0.87020 0.60370 0.54770 -0.14800
H 	H 	0.89980 0.62600 0.53290 0.07600
C 	C 	0.95640 0.33320 0.71500 0.07100
H 	H 	0.98860 0.34520 0.73740 -0.01900
C 	C 	0.59190 0.34570 0.36270 0.05100
C 	C 	0.86710 0.29760 0.81220 0.07100
H 	H 	0.83740 0.28400 0.78930 -0.01900
C 	C 	0.95310 0.33510 0.88050 -0.13700
H 	H 	0.98320 0.34670 0.90430 0.07200
C 	C 	0.83420 0.56950 0.52220 0.08600
H 	H 	0.83910 0.56980 0.48970 -0.02300
C 	C 	0.81210 0.42580 0.88810 -0.15300
H 	H 	0.80000 0.42570 0.85640 0.07700
C 	C 	0.78580 0.53620 0.58830 0.07400
H 	H 	0.75780 0.51270 0.60230 -0.02100
C 	C 	0.84060 0.42750 0.98070 0.09100
H 	H 	0.84950 0.42770 0.01290 -0.02700
C 	C 	0.78910 0.46180 0.91610 0.08400
H 	H 	0.76370 0.48670 0.90260 -0.02500
Cu	Cu	0.51561 0.75648 0.26392 0.85000
Cu	Cu	0.75824 0.51386 0.00309 0.85000
N 	N 	0.96750 0.70664 0.78897 -0.23800
N 	N 	0.56010 0.71347 0.21588 -0.24100
N 	N 	0.71340 0.56389 0.04502 -0.24100
N 	N 	0.53510 0.29662 0.18782 -0.24700
N 	N 	0.81120 0.56388 0.96496 -0.24300
N 	N 	0.56120 0.71560 0.31493 -0.23700
N 	N 	0.69830 0.53736 0.46243 -0.24600
N 	N 	0.70710 0.46361 0.04142 -0.24300
C 	C 	0.61880 0.64970 0.37670 0.04800
C 	C 	0.60290 0.35950 0.12610 0.05900
C 	C 	0.62130 0.65520 0.14810 0.05200
C 	C 	0.89840 0.70240 0.86030 -0.14200
H 	H 	0.87140 0.71810 0.88330 0.07400
C 	C 	0.51920 0.69720 0.34900 0.07100
H 	H 	0.47010 0.70650 0.35150 -0.01800
C 	C 	0.87660 0.62530 0.90070 0.05700
C 	C 	0.65360 0.62360 0.11190 0.05700
C 	C 	0.66330 0.66980 0.34180 -0.13600
H 	H 	0.71260 0.66110 0.33870 0.07100
C 	C 	0.72790 0.62630 0.10010 -0.14100
H 	H 	0.75850 0.64830 0.11440 0.07300
C 	C 	0.60580 0.73050 0.18360 0.07900
H 	H 	0.61550 0.76260 0.18350 -0.02500
C 	C 	0.88170 0.56010 0.95380 0.08400
H 	H 	0.90970 0.53660 0.96790 -0.02400
C 	C 	0.68150 0.43020 0.11660 -0.14200
H 	H 	0.68830 0.43080 0.14900 0.07300
C 	C 	0.64670 0.61040 0.40690 0.06400
C 	C 	0.77330 0.59970 0.94660 0.07700
H 	H 	0.72450 0.60390 0.95580 -0.02100
C 	C 	0.92930 0.72700 0.82330 0.08000
H 	H 	0.92300 0.75940 0.82240 -0.01900
C 	C 	0.63960 0.70240 0.15000 -0.14200
H 	H 	0.67390 0.71500 0.12930 0.07500
C 	C 	0.49810 0.31520 0.15160 0.07500
H 	H 	0.44880 0.30680 0.14750 -0.02000
C 	C 	0.60970 0.59200 0.08840 -0.14500
H 	H 	0.55930 0.59030 0.09470 0.07400
C 	C 	0.91600 0.58980 0.92190 -0.14600
H 	H 	0.96570 0.58570 0.91470 0.07400
C 	C 	0.52980 0.34620 0.12000 -0.14300
H 	H 	0.50240 0.35790 0.09490 0.07300
C 	C 	0.64080 0.33980 0.16250 -0.15000
H 	H 	0.69030 0.34710 0.16730 0.07500
C 	C 	0.63880 0.39600 0.09620 0.05600
C 	C 	0.75600 0.59560 0.06650 0.07400
H 	H 	0.80590 0.59730 0.05890 -0.02000
C 	C 	0.63190 0.60890 0.45470 -0.15400
H 	H 	0.60360 0.63230 0.46870 0.07900
C 	C 	0.57290 0.63700 0.18200 -0.13800
H 	H 	0.56090 0.60520 0.18220 0.07200
C 	C 	0.64150 0.56270 0.05550 0.07900
H 	H 	0.61150 0.54130 0.03990 -0.02300
C 	C 	0.80310 0.63060 0.91460 -0.14300
H 	H 	0.77450 0.65480 0.90230 0.07400
C 	C 	0.60500 0.30870 0.19220 0.08600
H 	H 	0.63190 0.29560 0.21670 -0.02500
C 	C 	0.94890 0.63270 0.82720 -0.13600
H 	H 	0.95730 0.60040 0.82810 0.07100
C 	C 	0.97670 0.65940 0.79090 0.06800
H 	H 	0.00260 0.64440 0.76690 -0.02000
C 	C 	0.62980 0.39630 0.04770 -0.14700
H 	H 	0.60020 0.37400 0.03290 0.07600
C 	C 	0.54360 0.66680 0.21500 0.07100
H 	H 	0.51140 0.65480 0.23740 -0.01900
C 	C 	0.90810 0.65430 0.86270 0.05100
C 	C 	0.63290 0.70240 0.31220 0.07100
H 	H 	0.66260 0.71600 0.28930 -0.01900
C 	C 	0.54690 0.66490 0.38050 -0.13700
H 	H 	0.51680 0.65330 0.40430 0.07200
C 	C 	0.66580 0.43050 0.02220 0.08500
H 	H 	0.66090 0.43020 0.98970 -0.02200
C 	C 	0.68790 0.57420 0.38810 -0.15300
H 	H 	0.70000 0.57430 0.35640 0.07700
C 	C 	0.71420 0.46380 0.08830 0.07400
H 	H 	0.74220 0.48730 0.10230 -0.02000
C 	C 	0.65940 0.57250 0.48070 0.09000
H 	H 	0.65050 0.57230 0.51290 -0.02600
C 	C 	0.71090 0.53820 0.41610 0.08400
H 	H 	0.73630 0.51330 0.40260 -0.02500
Cu	Cu	0.01561 0.74352 0.73608 0.85000
Cu	Cu	0.25824 0.98614 0.99691 0.84900
N 	N 	0.46750 0.79336 0.21103 -0.23800
N 	N 	0.06010 0.78653 0.78412 -0.24100
N 	N 	0.21340 0.93611 0.95498 -0.24100
N 	N 	0.03510 0.20338 0.81218 -0.24600
N 	N 	0.31120 0.93612 0.03504 -0.24300
N 	N 	0.06120 0.78440 0.68507 -0.23700
N 	N 	0.19830 0.96264 0.53757 -0.24600
N 	N 	0.20710 0.03639 0.95858 -0.24300
C 	C 	0.11880 0.85030 0.62330 0.04800
C 	C 	0.10290 0.14050 0.87390 0.05900
C 	C 	0.12130 0.84480 0.85190 0.05200
C 	C 	0.39840 0.79760 0.13970 -0.14100
H 	H 	0.37140 0.78190 0.11670 0.07400
C 	C 	0.01920 0.80280 0.65100 0.07000
H 	H 	0.97010 0.79350 0.64850 -0.01700
C 	C 	0.37660 0.87470 0.09930 0.05700
C 	C 	0.15360 0.87640 0.88810 0.05700
C 	C 	0.16330 0.83020 0.65820 -0.13500
H 	H 	0.21260 0.83890 0.66130 0.07100
C 	C 	0.22790 0.87370 0.89990 -0.14100
H 	H 	0.25850 0.85170 0.88560 0.07200
C 	C 	0.10580 0.76950 0.81640 0.07900
H 	H 	0.11550 0.73740 0.81650 -0.02500
C 	C 	0.38170 0.93990 0.04620 0.08400
H 	H 	0.40970 0.96340 0.03210 -0.02400
C 	C 	0.18150 0.06980 0.88340 -0.14300
H 	H 	0.18830 0.06920 0.85100 0.07400
C 	C 	0.14670 0.88960 0.59310 0.06400
C 	C 	0.27330 0.90030 0.05340 0.07700
H 	H 	0.22450 0.89610 0.04420 -0.02100
C 	C 	0.42930 0.77300 0.17670 0.07900
H 	H 	0.42300 0.74060 0.17760 -0.01900
C 	C 	0.13960 0.79760 0.85000 -0.14200
H 	H 	0.17390 0.78500 0.87070 0.07500
C 	C 	0.99810 0.18480 0.84840 0.07500
H 	H 	0.94880 0.19320 0.85250 -0.02000
C 	C 	0.10970 0.90800 0.91160 -0.14500
H 	H 	0.05930 0.90970 0.90530 0.07400
C 	C 	0.41600 0.91020 0.07810 -0.14600
H 	H 	0.46570 0.91430 0.08530 0.07400
C 	C 	0.02980 0.15380 0.88000 -0.14300
H 	H 	0.00240 0.14210 0.90510 0.07300
C 	C 	0.14080 0.16020 0.83750 -0.15000
H 	H 	0.19030 0.15290 0.83270 0.07500
C 	C 	0.13880 0.10400 0.90380 0.05600
C 	C 	0.25600 0.90440 0.93350 0.07400
H 	H 	0.30590 0.90270 0.94110 -0.02000
C 	C 	0.13190 0.89110 0.54530 -0.15500
H 	H 	0.10360 0.86770 0.53130 0.07900
C 	C 	0.07290 0.86300 0.81800 -0.13800
H 	H 	0.06090 0.89480 0.81780 0.07200
C 	C 	0.14150 0.93730 0.94450 0.07900
H 	H 	0.11150 0.95870 0.96010 -0.02300
C 	C 	0.30310 0.86940 0.08540 -0.14300
H 	H 	0.27450 0.84520 0.09770 0.07400
C 	C 	0.10500 0.19130 0.80780 0.08600
H 	H 	0.13190 0.20440 0.78330 -0.02500
C 	C 	0.44890 0.86730 0.17280 -0.13500
H 	H 	0.45730 0.89960 0.17190 0.07100
C 	C 	0.47670 0.84060 0.20910 0.06700
H 	H 	0.50260 0.85560 0.23310 -0.01900
C 	C 	0.12980 0.10370 0.95230 -0.14800
H 	H 	0.10020 0.12600 0.96710 0.07600
C 	C 	0.04360 0.83320 0.78500 0.07100
H 	H 	0.01140 0.84520 0.76260 -0.01900
C 	C 	0.40810 0.84570 0.13730 0.05100
C 	C 	0.13290 0.79760 0.68780 0.07100
H 	H 	0.16260 0.78400 0.71070 -0.01900
C 	C 	0.04690 0.83510 0.61950 -0.13600
H 	H 	0.01680 0.84670 0.59570 0.07100
C 	C 	0.16580 0.06950 0.97780 0.08600
H 	H 	0.16090 0.06980 0.01030 -0.02300
C 	C 	0.18790 0.92580 0.61190 -0.15300
H 	H 	0.20000 0.92570 0.64360 0.07700
C 	C 	0.21420 0.03620 0.91170 0.07400
H 	H 	0.24220 0.01270 0.89770 -0.02000
C 	C 	0.15940 0.92750 0.51930 0.09000
H 	H 	0.15050 0.92770 0.48710 -0.02600
C 	C 	0.21090 0.96180 0.58390 0.08400
H 	H 	0.23630 0.98670 0.59740 -0.02500
Cu	Cu	0.48439 0.25648 0.23608 0.85000
Cu	Cu	0.24176 0.01386 0.49691 0.85000
N 	N 	0.03250 0.20664 0.71103 -0.23800
N 	N 	0.43990 0.21347 0.28412 -0.24100
N 	N 	0.28660 0.06389 0.45498 -0.24100
N 	N 	0.46490 0.79662 0.31218 -0.24700
N 	N 	0.18880 0.06388 0.53504 -0.24300
N 	N 	0.43880 0.21560 0.18507 -0.23700
N 	N 	0.30170 0.03736 0.03757 -0.24500
N 	N 	0.29290 0.96361 0.45858 -0.24300
C 	C 	0.38120 0.14970 0.12330 0.04800
C 	C 	0.39710 0.85950 0.37390 0.05900
C 	C 	0.37870 0.15520 0.35190 0.05200
C 	C 	0.10160 0.20240 0.63970 -0.14100
H 	H 	0.12860 0.21810 0.61670 0.07400
C 	C 	0.48080 0.19720 0.15100 0.07100
H 	H 	0.52990 0.20650 0.14850 -0.01800
C 	C 	0.12340 0.12530 0.59930 0.05700
C 	C 	0.34640 0.12360 0.38810 0.05700
C 	C 	0.33670 0.16980 0.15820 -0.13600
H 	H 	0.28740 0.16110 0.16130 0.07100
C 	C 	0.27210 0.12630 0.39990 -0.14100
H 	H 	0.24150 0.14830 0.38560 0.07300
C 	C 	0.39420 0.23050 0.31640 0.07900
H 	H 	0.38450 0.26260 0.31650 -0.02500
C 	C 	0.11830 0.06010 0.54620 0.08400
H 	H 	0.09030 0.03660 0.53210 -0.02400
C 	C 	0.31850 0.93020 0.38340 -0.14300
H 	H 	0.31170 0.93080 0.35100 0.07400
C 	C 	0.35330 0.11040 0.09310 0.06400
C 	C 	0.22670 0.09970 0.55340 0.07700
H 	H 	0.27550 0.10390 0.54420 -0.02100
C 	C 	0.07070 0.22700 0.67670 0.07900
H 	H 	0.07700 0.25940 0.67760 -0.01900
C 	C 	0.36040 0.20240 0.35000 -0.14200
H 	H 	0.32610 0.21500 0.37070 0.07500
C 	C 	0.50190 0.81520 0.34840 0.07500
H 	H 	0.55120 0.80680 0.35250 -0.02000
C 	C 	0.39030 0.09200 0.41160 -0.14500
H 	H 	0.44070 0.09030 0.40530 0.07400
C 	C 	0.08400 0.08980 0.57810 -0.14600
H 	H 	0.03430 0.08570 0.58530 0.07400
C 	C 	0.47020 0.84620 0.38000 -0.14300
H 	H 	0.49760 0.85790 0.40510 0.07300
C 	C 	0.35920 0.83980 0.33750 -0.15000
H 	H 	0.30970 0.84710 0.33270 0.07500
C 	C 	0.36120 0.89600 0.40380 0.05600
C 	C 	0.24400 0.09560 0.43350 0.07400
H 	H 	0.19410 0.09730 0.44110 -0.01900
C 	C 	0.36810 0.10890 0.04530 -0.15400
H 	H 	0.39640 0.13230 0.03130 0.07900
C 	C 	0.42710 0.13700 0.31800 -0.13800
H 	H 	0.43910 0.10520 0.31780 0.07200
C 	C 	0.35850 0.06270 0.44450 0.07900
H 	H 	0.38850 0.04130 0.46010 -0.02300
C 	C 	0.19690 0.13060 0.58540 -0.14300
H 	H 	0.22550 0.15480 0.59770 0.07400
C 	C 	0.39500 0.80870 0.30780 0.08600
H 	H 	0.36810 0.79560 0.28330 -0.02500
C 	C 	0.05110 0.13270 0.67280 -0.13500
H 	H 	0.04270 0.10040 0.67190 0.07100
C 	C 	0.02330 0.15940 0.70910 0.06700
H 	H 	0.99740 0.14440 0.73310 -0.02000
C 	C 	0.37020 0.89630 0.45230 -0.14800
H 	H 	0.39980 0.87400 0.46710 0.07600
C 	C 	0.45640 0.16680 0.28500 0.07100
H 	H 	0.48860 0.15480 0.26260 -0.01900
C 	C 	0.09190 0.15430 0.63730 0.05100
C 	C 	0.36710 0.20240 0.18780 0.07100
H 	H 	0.33740 0.21600 0.21070 -0.01900
C 	C 	0.45310 0.16490 0.11950 -0.13700
H 	H 	0.48320 0.15330 0.09570 0.07200
C 	C 	0.33420 0.93050 0.47780 0.08600
H 	H 	0.33910 0.93020 0.51030 -0.02300
C 	C 	0.31210 0.07420 0.11190 -0.15200
H 	H 	0.30000 0.07430 0.14360 0.07700
C 	C 	0.28580 0.96380 0.41170 0.07400
H 	H 	0.25780 0.98730 0.39770 -0.02000
C 	C 	0.34060 0.07250 0.01930 0.08900
H 	H 	0.34950 0.07230 0.98710 -0.02500
C 	C 	0.28910 0.03820 0.08390 0.08400
H 	H 	0.26370 0.01330 0.09740 -0.02500
Cu	Cu	0.01561 0.75648 0.23608 0.85000
Cu	Cu	0.25824 0.51386 0.49691 0.85000
N 	N 	0.46750 0.70664 0.71103 -0.23800
N 	N 	0.06010 0.71347 0.28412 -0.24100
N 	N 	0.21340 0.56389 0.45498 -0.24100
N 	N 	0.03510 0.29662 0.31218 -0.24600
N 	N 	0.31120 0.56388 0.53504 -0.24300
N 	N 	0.06120 0.71560 0.18507 -0.23700
N 	N 	0.19830 0.53736 0.03757 -0.24600
N 	N 	0.20710 0.46361 0.45858 -0.24300
C 	C 	0.11880 0.64970 0.12330 0.04800
C 	C 	0.10290 0.35950 0.37390 0.05800
C 	C 	0.12130 0.65520 0.35190 0.05200
C 	C 	0.39840 0.70240 0.63970 -0.14100
H 	H 	0.37140 0.71810 0.61670 0.07400
C 	C 	0.01920 0.69720 0.15100 0.07200
H 	H 	0.97010 0.70650 0.14850 -0.01800
C 	C 	0.37660 0.62530 0.59930 0.05700
C 	C 	0.15360 0.62360 0.38810 0.05700
C 	C 	0.16330 0.66980 0.15820 -0.13600
H 	H 	0.21260 0.66110 0.16130 0.07100
C 	C 	0.22790 0.62630 0.39990 -0.14100
H 	H 	0.25850 0.64830 0.38560 0.07300
C 	C 	0.10580 0.73050 0.31640 0.07900
H 	H 	0.11550 0.76260 0.31650 -0.02500
C 	C 	0.38170 0.56010 0.54620 0.08400
H 	H 	0.40970 0.53660 0.53210 -0.02500
C 	C 	0.18150 0.43020 0.38340 -0.14300
H 	H 	0.18830 0.43080 0.35100 0.07400
C 	C 	0.14670 0.61040 0.09310 0.06500
C 	C 	0.27330 0.59970 0.55340 0.07700
H 	H 	0.22450 0.60390 0.54420 -0.02100
C 	C 	0.42930 0.72700 0.67670 0.07900
H 	H 	0.42300 0.75940 0.67760 -0.01900
C 	C 	0.13960 0.70240 0.35000 -0.14200
H 	H 	0.17390 0.71500 0.37070 0.07500
C 	C 	0.99810 0.31520 0.34840 0.07400
H 	H 	0.94880 0.30680 0.35250 -0.02000
C 	C 	0.10970 0.59200 0.41160 -0.14500
H 	H 	0.05930 0.59030 0.40530 0.07400
C 	C 	0.41600 0.58980 0.57810 -0.14700
H 	H 	0.46570 0.58570 0.58530 0.07400
C 	C 	0.02980 0.34620 0.38000 -0.14100
H 	H 	0.00240 0.35790 0.40510 0.07200
C 	C 	0.14080 0.33980 0.33750 -0.15000
H 	H 	0.19030 0.34710 0.33270 0.07500
C 	C 	0.13880 0.39600 0.40380 0.05600
C 	C 	0.25600 0.59560 0.43350 0.07400
H 	H 	0.30590 0.59730 0.44110 -0.02000
C 	C 	0.13190 0.60890 0.04530 -0.15500
H 	H 	0.10360 0.63230 0.03130 0.08000
C 	C 	0.07290 0.63700 0.31800 -0.13800
H 	H 	0.06090 0.60520 0.31780 0.07200
C 	C 	0.14150 0.56270 0.44450 0.07900
H 	H 	0.11150 0.54130 0.46010 -0.02300
C 	C 	0.30310 0.63060 0.58540 -0.14300
H 	H 	0.27450 0.65480 0.59770 0.07400
C 	C 	0.10500 0.30870 0.30780 0.08600
H 	H 	0.13190 0.29560 0.28330 -0.02500
C 	C 	0.44890 0.63270 0.67280 -0.13500
H 	H 	0.45730 0.60040 0.67190 0.07100
C 	C 	0.47670 0.65940 0.70910 0.06700
H 	H 	0.50260 0.64440 0.73310 -0.01900
C 	C 	0.12980 0.39630 0.45230 -0.14800
H 	H 	0.10020 0.37400 0.46710 0.07600
C 	C 	0.04360 0.66680 0.28500 0.07100
H 	H 	0.01140 0.65480 0.26260 -0.01900
C 	C 	0.40810 0.65430 0.63730 0.05100
C 	C 	0.13290 0.70240 0.18780 0.07100
H 	H 	0.16260 0.71600 0.21070 -0.01900
C 	C 	0.04690 0.66490 0.11950 -0.13700
H 	H 	0.01680 0.65330 0.09570 0.07200
C 	C 	0.16580 0.43050 0.47780 0.08600
H 	H 	0.16090 0.43020 0.51030 -0.02300
C 	C 	0.18790 0.57420 0.11190 -0.15300
H 	H 	0.20000 0.57430 0.14360 0.07700
C 	C 	0.21420 0.46380 0.41170 0.07400
H 	H 	0.24220 0.48730 0.39770 -0.02100
C 	C 	0.15940 0.57250 0.01930 0.09100
H 	H 	0.15050 0.57230 0.98710 -0.02700
C 	C 	0.21090 0.53820 0.08390 0.08400
H 	H 	0.23630 0.51330 0.09740 -0.02500
Cu	Cu	0.48439 0.24352 0.73608 0.85000
Cu	Cu	0.24176 0.48614 0.99691 0.85000
N 	N 	0.03250 0.29336 0.21103 -0.23800
N 	N 	0.43990 0.28653 0.78412 -0.24100
N 	N 	0.28660 0.43611 0.95498 -0.24100
N 	N 	0.46490 0.70338 0.81218 -0.24700
N 	N 	0.18880 0.43612 0.03504 -0.24300
N 	N 	0.43880 0.28440 0.68507 -0.23700
N 	N 	0.30170 0.46264 0.53757 -0.24600
N 	N 	0.29290 0.53639 0.95858 -0.24300
C 	C 	0.38120 0.35030 0.62330 0.04800
C 	C 	0.39710 0.64050 0.87390 0.05900
C 	C 	0.37870 0.34480 0.85190 0.05200
C 	C 	0.10160 0.29760 0.13970 -0.14200
H 	H 	0.12860 0.28190 0.11670 0.07400
C 	C 	0.48080 0.30280 0.65100 0.07100
H 	H 	0.52990 0.29350 0.64850 -0.01800
C 	C 	0.12340 0.37470 0.09930 0.05700
C 	C 	0.34640 0.37640 0.88810 0.05700
C 	C 	0.33670 0.33020 0.65820 -0.13600
H 	H 	0.28740 0.33890 0.66130 0.07100
C 	C 	0.27210 0.37370 0.89990 -0.14100
H 	H 	0.24150 0.35170 0.88560 0.07300
C 	C 	0.39420 0.26950 0.81640 0.07900
H 	H 	0.38450 0.23740 0.81650 -0.02500
C 	C 	0.11830 0.43990 0.04620 0.08400
H 	H 	0.09030 0.46340 0.03210 -0.02400
C 	C 	0.31850 0.56980 0.88340 -0.14200
H 	H 	0.31170 0.56920 0.85100 0.07300
C 	C 	0.35330 0.38960 0.59310 0.06400
C 	C 	0.22670 0.40030 0.05340 0.07700
H 	H 	0.27550 0.39610 0.04420 -0.02100
C 	C 	0.07070 0.27300 0.17670 0.08000
H 	H 	0.07700 0.24060 0.17760 -0.01900
C 	C 	0.36040 0.29760 0.85000 -0.14200
H 	H 	0.32610 0.28500 0.87070 0.07500
C 	C 	0.50190 0.68480 0.84840 0.07500
H 	H 	0.55120 0.69320 0.85250 -0.02000
C 	C 	0.39030 0.40800 0.91160 -0.14500
H 	H 	0.44070 0.40970 0.90530 0.07400
C 	C 	0.08400 0.41020 0.07810 -0.14600
H 	H 	0.03430 0.41430 0.08530 0.07400
C 	C 	0.47020 0.65380 0.88000 -0.14300
H 	H 	0.49760 0.64210 0.90510 0.07300
C 	C 	0.35920 0.66020 0.83750 -0.15000
H 	H 	0.30970 0.65290 0.83270 0.07500
C 	C 	0.36120 0.60400 0.90380 0.05600
C 	C 	0.24400 0.40440 0.93350 0.07400
H 	H 	0.19410 0.40270 0.94110 -0.02000
C 	C 	0.36810 0.39110 0.54530 -0.15400
H 	H 	0.39640 0.36770 0.53130 0.07900
C 	C 	0.42710 0.36300 0.81800 -0.13800
H 	H 	0.43910 0.39480 0.81780 0.07200
C 	C 	0.35850 0.43730 0.94450 0.07900
H 	H 	0.38850 0.45870 0.96010 -0.02300
C 	C 	0.19690 0.36940 0.08540 -0.14300
H 	H 	0.22550 0.34520 0.09770 0.07400
C 	C 	0.39500 0.69130 0.80780 0.08600
H 	H 	0.36810 0.70440 0.78330 -0.02500
C 	C 	0.05110 0.36730 0.17280 -0.13600
H 	H 	0.04270 0.39960 0.17190 0.07100
C 	C 	0.02330 0.34060 0.20910 0.06800
H 	H 	0.99740 0.35560 0.23310 -0.02000
C 	C 	0.37020 0.60370 0.95230 -0.14700
H 	H 	0.39980 0.62600 0.96710 0.07600
C 	C 	0.45640 0.33320 0.78500 0.07100
H 	H 	0.48860 0.34520 0.76260 -0.01900
C 	C 	0.09190 0.34570 0.13730 0.05100
C 	C 	0.36710 0.29760 0.68780 0.07100
H 	H 	0.33740 0.28400 0.71070 -0.01900
C 	C 	0.45310 0.33510 0.61950 -0.13700
H 	H 	0.48320 0.34670 0.59570 0.07200
C 	C 	0.33420 0.56950 0.97780 0.08500
H 	H 	0.33910 0.56980 0.01030 -0.02200
C 	C 	0.31210 0.42580 0.61190 -0.15300
H 	H 	0.30000 0.42570 0.64360 0.07700
C 	C 	0.28580 0.53620 0.91170 0.07400
H 	H 	0.25780 0.51270 0.89770 -0.02000
C 	C 	0.34060 0.42750 0.51930 0.09000
H 	H 	0.34950 0.42770 0.48710 -0.02600
C 	C 	0.28910 0.46180 0.58390 0.08400
H 	H 	0.26370 0.48670 0.59740 -0.02500
Cu	Cu	0.98439 0.25648 0.26392 0.85000
Cu	Cu	0.74176 0.01386 0.00309 0.84900
N 	N 	0.53250 0.20664 0.78897 -0.23800
N 	N 	0.93990 0.21347 0.21588 -0.24100
N 	N 	0.78660 0.06389 0.04502 -0.24100
N 	N 	0.96490 0.79662 0.18782 -0.24600
N 	N 	0.68880 0.06388 0.96496 -0.24300
N 	N 	0.93880 0.21560 0.31493 -0.23700
N 	N 	0.80170 0.03736 0.46243 -0.24600
N 	N 	0.79290 0.96361 0.04142 -0.24300
C 	C 	0.88120 0.14970 0.37670 0.04800
C 	C 	0.89710 0.85950 0.12610 0.05900
C 	C 	0.87870 0.15520 0.14810 0.05200
C 	C 	0.60160 0.20240 0.86030 -0.14100
H 	H 	0.62860 0.21810 0.88330 0.07400
C 	C 	0.98080 0.19720 0.34900 0.07000
H 	H 	0.02990 0.20650 0.35150 -0.01700
C 	C 	0.62340 0.12530 0.90070 0.05700
C 	C 	0.84640 0.12360 0.11190 0.05700
C 	C 	0.83670 0.16980 0.34180 -0.13500
H 	H 	0.78740 0.16110 0.33870 0.07100
C 	C 	0.77210 0.12630 0.10010 -0.14100
H 	H 	0.74150 0.14830 0.11440 0.07200
C 	C 	0.89420 0.23050 0.18360 0.07900
H 	H 	0.88450 0.26260 0.18350 -0.02500
C 	C 	0.61830 0.06010 0.95380 0.08400
H 	H 	0.59030 0.03660 0.96790 -0.02400
C 	C 	0.81850 0.93020 0.11660 -0.14300
H 	H 	0.81170 0.93080 0.14900 0.07400
C 	C 	0.85330 0.11040 0.40690 0.06400
C 	C 	0.72670 0.09970 0.94660 0.07700
H 	H 	0.77550 0.10390 0.95580 -0.02100
C 	C 	0.57070 0.22700 0.82330 0.07900
H 	H 	0.57700 0.25940 0.82240 -0.01900
C 	C 	0.86040 0.20240 0.15000 -0.14200
H 	H 	0.82610 0.21500 0.12930 0.07500
C 	C 	0.00190 0.81520 0.15160 0.07500
H 	H 	0.05120 0.80680 0.14750 -0.02000
C 	C 	0.89030 0.09200 0.08840 -0.14500
H 	H 	0.94070 0.09030 0.09470 0.07400
C 	C 	0.58400 0.08980 0.92190 -0.14600
H 	H 	0.53430 0.08570 0.91470 0.07400
C 	C 	0.97020 0.84620 0.12000 -0.14300
H 	H 	0.99760 0.85790 0.09490 0.07300
C 	C 	0.85920 0.83980 0.16250 -0.15000
H 	H 	0.80970 0.84710 0.16730 0.07500
C 	C 	0.86120 0.89600 0.09620 0.05600
C 	C 	0.74400 0.09560 0.06650 0.07400
H 	H 	0.69410 0.09730 0.05890 -0.02000
C 	C 	0.86810 0.10890 0.45470 -0.15500
H 	H 	0.89640 0.13230 0.46870 0.07900
C 	C 	0.92710 0.13700 0.18200 -0.13800
H 	H 	0.93910 0.10520 0.18220 0.07200
C 	C 	0.85850 0.06270 0.05550 0.07900
H 	H 	0.88850 0.04130 0.03990 -0.02300
C 	C 	0.69690 0.13060 0.91460 -0.14300
H 	H 	0.72550 0.15480 0.90230 0.07400
C 	C 	0.89500 0.80870 0.19220 0.08600
H 	H 	0.86810 0.79560 0.21670 -0.02500
C 	C 	0.55110 0.13270 0.82720 -0.13500
H 	H 	0.54270 0.10040 0.82810 0.07100
C 	C 	0.52330 0.15940 0.79090 0.06700
H 	H 	0.49740 0.14440 0.76690 -0.01900
C 	C 	0.87020 0.89630 0.04770 -0.14800
H 	H 	0.89980 0.87400 0.03290 0.07600
C 	C 	0.95640 0.16680 0.21500 0.07100
H 	H 	0.98860 0.15480 0.23740 -0.01900
C 	C 	0.59190 0.15430 0.86270 0.05100
C 	C 	0.86710 0.20240 0.31220 0.07100
H 	H 	0.83740 0.21600 0.28930 -0.01900
C 	C 	0.95310 0.16490 0.38050 -0.13600
H 	H 	0.98320 0.15330 0.40430 0.07100
C 	C 	0.83420 0.93050 0.02220 0.08600
H 	H 	0.83910 0.93020 0.98970 -0.02300
C 	C 	0.81210 0.07420 0.38810 -0.15300
H 	H 	0.80000 0.07430 0.35640 0.07700
C 	C 	0.78580 0.96380 0.08830 0.07400
H 	H 	0.75780 0.98730 0.10230 -0.02000
C 	C 	0.84060 0.07250 0.48070 0.09000
H 	H 	0.84950 0.07230 0.51290 -0.02600
C 	C 	0.78910 0.03820 0.41610 0.08400
H 	H 	0.76370 0.01330 0.40260 -0.02500
Cu	Cu	0.51561 0.74352 0.76392 0.85000
Cu	Cu	0.75824 0.98614 0.50309 0.85000
N 	N 	0.96750 0.79336 0.28897 -0.23800
N 	N 	0.56010 0.78653 0.71588 -0.24100
N 	N 	0.71340 0.93611 0.54502 -0.24100
N 	N 	0.53510 0.20338 0.68782 -0.24700
N 	N 	0.81120 0.93612 0.46496 -0.24300
N 	N 	0.56120 0.78440 0.81493 -0.23700
N 	N 	0.69830 0.96264 0.96243 -0.24500
N 	N 	0.70710 0.03639 0.54142 -0.24300
C 	C 	0.61880 0.85030 0.87670 0.04800
C 	C 	0.60290 0.14050 0.62610 0.05900
C 	C 	0.62130 0.84480 0.64810 0.05200
C 	C 	0.89840 0.79760 0.36030 -0.14100
H 	H 	0.87140 0.78190 0.38330 0.07400
C 	C 	0.51920 0.80280 0.84900 0.07100
H 	H 	0.47010 0.79350 0.85150 -0.01800
C 	C 	0.87660 0.87470 0.40070 0.05700
C 	C 	0.65360 0.87640 0.61190 0.05700
C 	C 	0.66330 0.83020 0.84180 -0.13600
H 	H 	0.71260 0.83890 0.83870 0.07100
C 	C 	0.72790 0.87370 0.60010 -0.14100
H 	H 	0.75850 0.85170 0.61440 0.07300
C 	C 	0.60580 0.76950 0.68360 0.07900
H 	H 	0.61550 0.73740 0.68350 -0.02500
C 	C 	0.88170 0.93990 0.45380 0.08400
H 	H 	0.90970 0.96340 0.46790 -0.02400
C 	C 	0.68150 0.06980 0.61660 -0.14300
H 	H 	0.68830 0.06920 0.64900 0.07400
C 	C 	0.64670 0.88960 0.90690 0.06400
C 	C 	0.77330 0.90030 0.44660 0.07700
H 	H 	0.72450 0.89610 0.45580 -0.02100
C 	C 	0.92930 0.77300 0.32330 0.07900
H 	H 	0.92300 0.74060 0.32240 -0.01900
C 	C 	0.63960 0.79760 0.65000 -0.14200
H 	H 	0.67390 0.78500 0.62930 0.07500
C 	C 	0.49810 0.18480 0.65160 0.07500
H 	H 	0.44880 0.19320 0.64750 -0.02000
C 	C 	0.60970 0.90800 0.58840 -0.14500
H 	H 	0.55930 0.90970 0.59470 0.07400
C 	C 	0.91600 0.91020 0.42190 -0.14600
H 	H 	0.96570 0.91430 0.41470 0.07400
C 	C 	0.52980 0.15380 0.62000 -0.14300
H 	H 	0.50240 0.14210 0.59490 0.07300
C 	C 	0.64080 0.16020 0.66250 -0.15000
H 	H 	0.69030 0.15290 0.66730 0.07500
C 	C 	0.63880 0.10400 0.59620 0.05600
C 	C 	0.75600 0.90440 0.56650 0.07400
H 	H 	0.80590 0.90270 0.55890 -0.01900
C 	C 	0.63190 0.89110 0.95470 -0.15400
H 	H 	0.60360 0.86770 0.96870 0.07900
C 	C 	0.57290 0.86300 0.68200 -0.13800
H 	H 	0.56090 0.89480 0.68220 0.07200
C 	C 	0.64150 0.93730 0.55550 0.07900
H 	H 	0.61150 0.95870 0.53990 -0.02300
C 	C 	0.80310 0.86940 0.41460 -0.14300
H 	H 	0.77450 0.84520 0.40230 0.07400
C 	C 	0.60500 0.19130 0.69220 0.08600
H 	H 	0.63190 0.20440 0.71670 -0.02500
C 	C 	0.94890 0.86730 0.32720 -0.13500
H 	H 	0.95730 0.89960 0.32810 0.07100
C 	C 	0.97670 0.84060 0.29090 0.06700
H 	H 	0.00260 0.85560 0.26690 -0.02000
C 	C 	0.62980 0.10370 0.54770 -0.14800
H 	H 	0.60020 0.12600 0.53290 0.07600
C 	C 	0.54360 0.83320 0.71500 0.07100
H 	H 	0.51140 0.84520 0.73740 -0.01900
C 	C 	0.90810 0.84570 0.36270 0.05100
C 	C 	0.63290 0.79760 0.81220 0.07100
H 	H 	0.66260 0.78400 0.78930 -0.01900
C 	C 	0.54690 0.83510 0.88050 -0.13700
H 	H 	0.51680 0.84670 0.90430 0.07200
C 	C 	0.66580 0.06950 0.52220 0.08600
H 	H 	0.66090 0.06980 0.48970 -0.02300
C 	C 	0.68790 0.92580 0.88810 -0.15200
H 	H 	0.70000 0.92570 0.85640 0.07700
C 	C 	0.71420 0.03620 0.58830 0.07400
H 	H 	0.74220 0.01270 0.60230 -0.02000
C 	C 	0.65940 0.92750 0.98070 0.08900
H 	H 	0.65050 0.92770 0.01290 -0.02500
C 	C 	0.71090 0.96180 0.91610 0.08400
H 	H 	0.73630 0.98670 0.90260 -0.02500
