data_crystal

_cell_length_a 39.35600
_cell_length_b 9.33200
_cell_length_c 9.84200
_cell_angle_alpha 90.00000
_cell_angle_beta  101.86400
_cell_angle_gamma 90.00000

_symmetry_space_group_name_	'P 1'
_symmetry_space_group_name_H-M	'P 1'

loop_
_symmetry_equiv_pos_as_xyz
  x,y,z

loop_
_atom_site_label
_atom_site_type_symbol
_atom_site_fract_x
_atom_site_fract_y
_atom_site_fract_z
_atom_site_charge
Zn	Zn	0.21419 0.31089 0.08561 1.18300
N 	N 	0.24832 0.15240 0.15140 -0.30800
N 	N 	0.27597 0.11550 0.09380 -0.31000
N 	N 	0.27571 0.97310 0.27160 -0.36700
O 	O 	0.16600 0.27100 0.08230 -0.56800
O 	O 	0.16866 0.09760 0.95080 -0.42400
C 	C 	0.15240 0.17070 0.01020 0.50500
C 	C 	0.11553 0.13540 0.01400 -0.29800
C 	C 	0.09809 0.21110 0.09050 0.22700
H 	H 	0.10870 0.28850 0.14170 -0.05300
C 	C 	0.09910 0.02390 0.94290 0.20600
H 	H 	0.11090 0.96540 0.89150 -0.03500
C 	C 	0.06400 0.99480 0.94570 -0.27400
H 	H 	0.05290 0.91870 0.89380 0.11900
C 	C 	0.06400 0.17620 0.09520 -0.29600
H 	H 	0.05310 0.22850 0.15450 0.12100
C 	C 	0.04629 0.07380 0.02110 0.21500
C 	C 	0.00985 0.04700 0.02740 -0.11400
H 	H 	0.00040 0.11140 0.08140 0.06000
C 	C 	0.29185 0.00840 0.16800 0.29900
C 	C 	0.32344 0.93940 0.13750 -0.89800
H 	H 	0.31700 0.85440 0.08330 0.26500
H 	H 	0.33890 0.91430 0.22310 0.29200
H 	H 	0.33490 0.00480 0.08650 0.26400
C 	C 	0.24892 0.06550 0.25600 0.28400
C 	C 	0.22331 0.07230 0.34770 -0.86200
H 	H 	0.23450 0.10770 0.43730 0.24800
H 	H 	0.21430 0.97810 0.35740 0.26400
H 	H 	0.20470 0.13530 0.30760 0.25200
Zn	Zn	0.71419 0.81089 0.08561 1.18400
N 	N 	0.74832 0.65240 0.15140 -0.30700
N 	N 	0.77597 0.61550 0.09380 -0.31000
N 	N 	0.77571 0.47310 0.27160 -0.36700
O 	O 	0.66600 0.77100 0.08230 -0.56800
O 	O 	0.66866 0.59760 0.95080 -0.42400
C 	C 	0.65240 0.67070 0.01020 0.50400
C 	C 	0.61553 0.63540 0.01400 -0.29300
C 	C 	0.59809 0.71110 0.09050 0.22200
H 	H 	0.60870 0.78850 0.14170 -0.05200
C 	C 	0.59910 0.52390 0.94290 0.19800
H 	H 	0.61090 0.46540 0.89150 -0.03200
C 	C 	0.56400 0.49480 0.94570 -0.26700
H 	H 	0.55290 0.41870 0.89380 0.11700
C 	C 	0.56400 0.67620 0.09520 -0.29200
H 	H 	0.55310 0.72850 0.15450 0.11900
C 	C 	0.54629 0.57380 0.02110 0.21100
C 	C 	0.50985 0.54700 0.02740 -0.11200
H 	H 	0.50040 0.61140 0.08140 0.06000
C 	C 	0.79185 0.50840 0.16800 0.30100
C 	C 	0.82344 0.43940 0.13750 -0.90200
H 	H 	0.81700 0.35440 0.08330 0.26600
H 	H 	0.83890 0.41430 0.22310 0.29300
H 	H 	0.83490 0.50480 0.08650 0.26600
C 	C 	0.74892 0.56550 0.25600 0.28500
C 	C 	0.72331 0.57230 0.34770 -0.86100
H 	H 	0.73450 0.60770 0.43730 0.24800
H 	H 	0.71430 0.47810 0.35740 0.26400
H 	H 	0.70470 0.63530 0.30760 0.25200
Zn	Zn	0.78581 0.31089 0.41439 1.18400
N 	N 	0.75168 0.15240 0.34860 -0.30700
N 	N 	0.72403 0.11550 0.40620 -0.31000
N 	N 	0.72429 0.97310 0.22840 -0.36600
O 	O 	0.83400 0.27100 0.41770 -0.56800
O 	O 	0.83134 0.09760 0.54920 -0.42500
C 	C 	0.84760 0.17070 0.48980 0.50400
C 	C 	0.88447 0.13540 0.48600 -0.29400
C 	C 	0.90191 0.21110 0.40950 0.22300
H 	H 	0.89130 0.28850 0.35830 -0.05200
C 	C 	0.90090 0.02390 0.55710 0.19800
H 	H 	0.88910 0.96540 0.60850 -0.03200
C 	C 	0.93600 0.99480 0.55430 -0.26800
H 	H 	0.94710 0.91870 0.60620 0.11700
C 	C 	0.93600 0.17620 0.40480 -0.29300
H 	H 	0.94690 0.22850 0.34550 0.11900
C 	C 	0.95371 0.07380 0.47890 0.21100
C 	C 	0.99015 0.04700 0.47260 -0.11300
H 	H 	0.99960 0.11140 0.41860 0.06000
C 	C 	0.70815 0.00840 0.33200 0.29900
C 	C 	0.67656 0.93940 0.36250 -0.89800
H 	H 	0.68300 0.85440 0.41670 0.26500
H 	H 	0.66110 0.91430 0.27690 0.29200
H 	H 	0.66510 0.00480 0.41350 0.26400
C 	C 	0.75108 0.06550 0.24400 0.28500
C 	C 	0.77669 0.07230 0.15230 -0.86400
H 	H 	0.76550 0.10770 0.06270 0.24900
H 	H 	0.78570 0.97810 0.14260 0.26500
H 	H 	0.79530 0.13530 0.19240 0.25300
Zn	Zn	0.28581 0.81089 0.41439 1.18400
N 	N 	0.25168 0.65240 0.34860 -0.30700
N 	N 	0.22403 0.61550 0.40620 -0.31000
N 	N 	0.22429 0.47310 0.22840 -0.36700
O 	O 	0.33400 0.77100 0.41770 -0.56800
O 	O 	0.33134 0.59760 0.54920 -0.42400
C 	C 	0.34760 0.67070 0.48980 0.50400
C 	C 	0.38447 0.63540 0.48600 -0.29300
C 	C 	0.40191 0.71110 0.40950 0.22200
H 	H 	0.39130 0.78850 0.35830 -0.05200
C 	C 	0.40090 0.52390 0.55710 0.19800
H 	H 	0.38910 0.46540 0.60850 -0.03200
C 	C 	0.43600 0.49480 0.55430 -0.26700
H 	H 	0.44710 0.41870 0.60620 0.11600
C 	C 	0.43600 0.67620 0.40480 -0.29200
H 	H 	0.44690 0.72850 0.34550 0.11900
C 	C 	0.45371 0.57380 0.47890 0.21100
C 	C 	0.49015 0.54700 0.47260 -0.11200
H 	H 	0.49960 0.61140 0.41860 0.06000
C 	C 	0.20815 0.50840 0.33200 0.30100
C 	C 	0.17656 0.43940 0.36250 -0.90200
H 	H 	0.18300 0.35440 0.41670 0.26600
H 	H 	0.16110 0.41430 0.27690 0.29300
H 	H 	0.16510 0.50480 0.41350 0.26500
C 	C 	0.25108 0.56550 0.24400 0.28500
C 	C 	0.27669 0.57230 0.15230 -0.86200
H 	H 	0.26550 0.60770 0.06270 0.24900
H 	H 	0.28570 0.47810 0.14260 0.26400
H 	H 	0.29530 0.63530 0.19240 0.25200
Zn	Zn	0.78581 0.68911 0.91439 1.18400
N 	N 	0.75168 0.84760 0.84860 -0.30700
N 	N 	0.72403 0.88450 0.90620 -0.31000
N 	N 	0.72429 0.02690 0.72840 -0.36700
O 	O 	0.83400 0.72900 0.91770 -0.56800
O 	O 	0.83134 0.90240 0.04920 -0.42400
C 	C 	0.84760 0.82930 0.98980 0.50500
C 	C 	0.88447 0.86460 0.98600 -0.29800
C 	C 	0.90191 0.78890 0.90950 0.22700
H 	H 	0.89130 0.71150 0.85830 -0.05300
C 	C 	0.90090 0.97610 0.05710 0.20600
H 	H 	0.88910 0.03460 0.10850 -0.03500
C 	C 	0.93600 0.00520 0.05430 -0.27400
H 	H 	0.94710 0.08130 0.10620 0.11900
C 	C 	0.93600 0.82380 0.90480 -0.29600
H 	H 	0.94690 0.77150 0.84550 0.12100
C 	C 	0.95371 0.92620 0.97890 0.21500
C 	C 	0.99015 0.95300 0.97260 -0.11400
H 	H 	0.99960 0.88860 0.91860 0.06000
C 	C 	0.70815 0.99160 0.83200 0.29900
C 	C 	0.67656 0.06060 0.86250 -0.89800
H 	H 	0.68300 0.14560 0.91670 0.26500
H 	H 	0.66110 0.08570 0.77690 0.29200
H 	H 	0.66510 0.99520 0.91350 0.26400
C 	C 	0.75108 0.93450 0.74400 0.28400
C 	C 	0.77669 0.92770 0.65230 -0.86200
H 	H 	0.76550 0.89230 0.56270 0.24800
H 	H 	0.78570 0.02190 0.64260 0.26400
H 	H 	0.79530 0.86470 0.69240 0.25200
Zn	Zn	0.28581 0.18911 0.91439 1.18400
N 	N 	0.25168 0.34760 0.84860 -0.30700
N 	N 	0.22403 0.38450 0.90620 -0.31000
N 	N 	0.22429 0.52690 0.72840 -0.36700
O 	O 	0.33400 0.22900 0.91770 -0.56800
O 	O 	0.33134 0.40240 0.04920 -0.42400
C 	C 	0.34760 0.32930 0.98980 0.50400
C 	C 	0.38447 0.36460 0.98600 -0.29300
C 	C 	0.40191 0.28890 0.90950 0.22200
H 	H 	0.39130 0.21150 0.85830 -0.05200
C 	C 	0.40090 0.47610 0.05710 0.19800
H 	H 	0.38910 0.53460 0.10850 -0.03200
C 	C 	0.43600 0.50520 0.05430 -0.26700
H 	H 	0.44710 0.58130 0.10620 0.11700
C 	C 	0.43600 0.32380 0.90480 -0.29200
H 	H 	0.44690 0.27150 0.84550 0.11900
C 	C 	0.45371 0.42620 0.97890 0.21100
C 	C 	0.49015 0.45300 0.97260 -0.11200
H 	H 	0.49960 0.38860 0.91860 0.06000
C 	C 	0.20815 0.49160 0.83200 0.30100
C 	C 	0.17656 0.56060 0.86250 -0.90200
H 	H 	0.18300 0.64560 0.91670 0.26600
H 	H 	0.16110 0.58570 0.77690 0.29300
H 	H 	0.16510 0.49520 0.91350 0.26600
C 	C 	0.25108 0.43450 0.74400 0.28500
C 	C 	0.27669 0.42770 0.65230 -0.86100
H 	H 	0.26550 0.39230 0.56270 0.24800
H 	H 	0.28570 0.52190 0.64260 0.26400
H 	H 	0.29530 0.36470 0.69240 0.25200
Zn	Zn	0.21419 0.68911 0.58561 1.18400
N 	N 	0.24832 0.84760 0.65140 -0.30700
N 	N 	0.27597 0.88450 0.59380 -0.31000
N 	N 	0.27571 0.02690 0.77160 -0.36600
O 	O 	0.16600 0.72900 0.58230 -0.56800
O 	O 	0.16866 0.90240 0.45080 -0.42500
C 	C 	0.15240 0.82930 0.51020 0.50400
C 	C 	0.11553 0.86460 0.51400 -0.29400
C 	C 	0.09809 0.78890 0.59050 0.22300
H 	H 	0.10870 0.71150 0.64170 -0.05200
C 	C 	0.09910 0.97610 0.44290 0.19800
H 	H 	0.11090 0.03460 0.39150 -0.03200
C 	C 	0.06400 0.00520 0.44570 -0.26800
H 	H 	0.05290 0.08130 0.39380 0.11700
C 	C 	0.06400 0.82380 0.59520 -0.29300
H 	H 	0.05310 0.77150 0.65450 0.11900
C 	C 	0.04629 0.92620 0.52110 0.21100
C 	C 	0.00985 0.95300 0.52740 -0.11300
H 	H 	0.00040 0.88860 0.58140 0.06000
C 	C 	0.29185 0.99160 0.66800 0.29900
C 	C 	0.32344 0.06060 0.63750 -0.89800
H 	H 	0.31700 0.14560 0.58330 0.26500
H 	H 	0.33890 0.08570 0.72310 0.29200
H 	H 	0.33490 0.99520 0.58650 0.26400
C 	C 	0.24892 0.93450 0.75600 0.28500
C 	C 	0.22331 0.92770 0.84770 -0.86400
H 	H 	0.23450 0.89230 0.93730 0.24900
H 	H 	0.21430 0.02190 0.85740 0.26500
H 	H 	0.20470 0.86470 0.80760 0.25300
Zn	Zn	0.71419 0.18911 0.58561 1.18400
N 	N 	0.74832 0.34760 0.65140 -0.30700
N 	N 	0.77597 0.38450 0.59380 -0.31000
N 	N 	0.77571 0.52690 0.77160 -0.36700
O 	O 	0.66600 0.22900 0.58230 -0.56800
O 	O 	0.66866 0.40240 0.45080 -0.42400
C 	C 	0.65240 0.32930 0.51020 0.50400
C 	C 	0.61553 0.36460 0.51400 -0.29300
C 	C 	0.59809 0.28890 0.59050 0.22200
H 	H 	0.60870 0.21150 0.64170 -0.05200
C 	C 	0.59910 0.47610 0.44290 0.19800
H 	H 	0.61090 0.53460 0.39150 -0.03200
C 	C 	0.56400 0.50520 0.44570 -0.26700
H 	H 	0.55290 0.58130 0.39380 0.11600
C 	C 	0.56400 0.32380 0.59520 -0.29200
H 	H 	0.55310 0.27150 0.65450 0.11900
C 	C 	0.54629 0.42620 0.52110 0.21100
C 	C 	0.50985 0.45300 0.52740 -0.11200
H 	H 	0.50040 0.38860 0.58140 0.06000
C 	C 	0.79185 0.49160 0.66800 0.30100
C 	C 	0.82344 0.56060 0.63750 -0.90200
H 	H 	0.81700 0.64560 0.58330 0.26600
H 	H 	0.83890 0.58570 0.72310 0.29300
H 	H 	0.83490 0.49520 0.58650 0.26500
C 	C 	0.74892 0.43450 0.75600 0.28500
C 	C 	0.72331 0.42770 0.84770 -0.86200
H 	H 	0.73450 0.39230 0.93730 0.24900
H 	H 	0.71430 0.52190 0.85740 0.26400
H 	H 	0.70470 0.36470 0.80760 0.25200
