data_crystal

_cell_length_a 38.50300
_cell_length_b 9.45110
_cell_length_c 9.80230
_cell_angle_alpha 90.00000
_cell_angle_beta  100.57800
_cell_angle_gamma 90.00000

_symmetry_space_group_name_	'P 1'
_symmetry_space_group_name_H-M	'P 1'

loop_
_symmetry_equiv_pos_as_xyz
  x,y,z

loop_
_atom_site_label
_atom_site_type_symbol
_atom_site_fract_x
_atom_site_fract_y
_atom_site_fract_z
_atom_site_charge
Zn	Zn	0.21400 0.18806 0.09078 1.18200
N 	N 	0.24843 0.34540 0.15360 -0.30400
N 	N 	0.27630 0.38400 0.09120 -0.30900
N 	N 	0.27621 0.52610 0.27020 -0.36300
O 	O 	0.16480 0.22660 0.09150 -0.54700
O 	O 	0.16700 0.39400 0.94920 -0.40200
C 	C 	0.24891 0.43100 0.25830 0.25600
C 	C 	0.29230 0.49220 0.16440 0.30800
C 	C 	0.22320 0.42250 0.35620 -0.79400
H 	H 	0.20070 0.39030 0.30680 0.24100
H 	H 	0.22050 0.51440 0.39470 0.23300
H 	H 	0.23190 0.35740 0.42970 0.22500
C 	C 	0.32340 0.56330 0.12640 -0.91300
H 	H 	0.33410 0.50230 0.06760 0.26800
H 	H 	0.34020 0.58420 0.20900 0.29700
H 	H 	0.31610 0.64970 0.07800 0.27000
C 	C 	0.15100 0.32510 0.01660 0.45000
C 	C 	0.11240 0.35840 0.01880 -0.22900
C 	C 	0.09600 0.46220 0.93490 0.14900
H 	H 	0.10800 0.50870 0.87370 -0.01200
C 	C 	0.09430 0.28150 0.09760 0.16400
H 	H 	0.10530 0.20680 0.15040 -0.03000
C 	C 	0.05890 0.31340 0.10060 -0.25300
H 	H 	0.04660 0.26080 0.15620 0.11900
C 	C 	0.06090 0.49930 0.94100 -0.23200
H 	H 	0.05010 0.57580 0.89060 0.12200
C 	C 	0.04290 0.42010 0.02300 0.20900
N 	N 	0.00650 0.44660 0.03160 -0.10700
Zn	Zn	0.71400 0.68806 0.09078 1.18300
N 	N 	0.74843 0.84540 0.15360 -0.30300
N 	N 	0.77630 0.88400 0.09120 -0.30800
N 	N 	0.77621 0.02610 0.27020 -0.36100
O 	O 	0.66480 0.72660 0.09150 -0.54700
O 	O 	0.66700 0.89400 0.94920 -0.40100
C 	C 	0.74891 0.93100 0.25830 0.25600
C 	C 	0.79230 0.99220 0.16440 0.30600
C 	C 	0.72320 0.92250 0.35620 -0.79500
H 	H 	0.70070 0.89030 0.30680 0.24100
H 	H 	0.72050 0.01440 0.39470 0.23400
H 	H 	0.73190 0.85740 0.42970 0.22500
C 	C 	0.82340 0.06330 0.12640 -0.91100
H 	H 	0.83410 0.00230 0.06760 0.26800
H 	H 	0.84020 0.08420 0.20900 0.29600
H 	H 	0.81610 0.14970 0.07800 0.27000
C 	C 	0.65100 0.82510 0.01660 0.44900
C 	C 	0.61240 0.85840 0.01880 -0.23000
C 	C 	0.59600 0.96220 0.93490 0.15100
H 	H 	0.60800 0.00870 0.87370 -0.01300
C 	C 	0.59430 0.78150 0.09760 0.16400
H 	H 	0.60530 0.70680 0.15040 -0.03000
C 	C 	0.55890 0.81340 0.10060 -0.25200
H 	H 	0.54660 0.76080 0.15620 0.11900
C 	C 	0.56090 0.99930 0.94100 -0.23000
H 	H 	0.55010 0.07580 0.89060 0.12000
C 	C 	0.54290 0.92010 0.02300 0.20700
N 	N 	0.50650 0.94660 0.03160 -0.10700
Zn	Zn	0.78600 0.18806 0.40922 1.18300
N 	N 	0.75157 0.34540 0.34640 -0.30300
N 	N 	0.72370 0.38400 0.40880 -0.30800
N 	N 	0.72379 0.52610 0.22980 -0.36200
O 	O 	0.83520 0.22660 0.40850 -0.54700
O 	O 	0.83300 0.39400 0.55080 -0.40200
C 	C 	0.75109 0.43100 0.24170 0.25600
C 	C 	0.70770 0.49220 0.33560 0.30700
C 	C 	0.77680 0.42250 0.14380 -0.79500
H 	H 	0.79930 0.39030 0.19320 0.24100
H 	H 	0.77950 0.51440 0.10530 0.23300
H 	H 	0.76810 0.35740 0.07030 0.22500
C 	C 	0.67660 0.56330 0.37360 -0.91300
H 	H 	0.66590 0.50230 0.43240 0.26800
H 	H 	0.65980 0.58420 0.29100 0.29700
H 	H 	0.68390 0.64970 0.42200 0.27000
C 	C 	0.84900 0.32510 0.48340 0.44900
C 	C 	0.88760 0.35840 0.48120 -0.22900
C 	C 	0.90400 0.46220 0.56510 0.14900
H 	H 	0.89200 0.50870 0.62630 -0.01200
C 	C 	0.90570 0.28150 0.40240 0.16400
H 	H 	0.89470 0.20680 0.34960 -0.03000
C 	C 	0.94110 0.31340 0.39940 -0.25300
H 	H 	0.95340 0.26080 0.34380 0.11900
C 	C 	0.93910 0.49930 0.55900 -0.23200
H 	H 	0.94990 0.57580 0.60940 0.12200
C 	C 	0.95710 0.42010 0.47700 0.20900
N 	N 	0.99350 0.44660 0.46840 -0.10700
Zn	Zn	0.28600 0.68806 0.40922 1.18300
N 	N 	0.25157 0.84540 0.34640 -0.30300
N 	N 	0.22370 0.88400 0.40880 -0.30800
N 	N 	0.22379 0.02610 0.22980 -0.36100
O 	O 	0.33520 0.72660 0.40850 -0.54700
O 	O 	0.33300 0.89400 0.55080 -0.40200
C 	C 	0.25109 0.93100 0.24170 0.25600
C 	C 	0.20770 0.99220 0.33560 0.30700
C 	C 	0.27680 0.92250 0.14380 -0.79700
H 	H 	0.29930 0.89030 0.19320 0.24100
H 	H 	0.27950 0.01440 0.10530 0.23400
H 	H 	0.26810 0.85740 0.07030 0.22500
C 	C 	0.17660 0.06330 0.37360 -0.91100
H 	H 	0.16590 0.00230 0.43240 0.26700
H 	H 	0.15980 0.08420 0.29100 0.29700
H 	H 	0.18390 0.14970 0.42200 0.27000
C 	C 	0.34900 0.82510 0.48340 0.45000
C 	C 	0.38760 0.85840 0.48120 -0.22900
C 	C 	0.40400 0.96220 0.56510 0.14900
H 	H 	0.39200 0.00870 0.62630 -0.01200
C 	C 	0.40570 0.78150 0.40240 0.16400
H 	H 	0.39470 0.70680 0.34960 -0.03000
C 	C 	0.44110 0.81340 0.39940 -0.25300
H 	H 	0.45340 0.76080 0.34380 0.11900
C 	C 	0.43910 0.99930 0.55900 -0.23300
H 	H 	0.44990 0.07580 0.60940 0.12200
C 	C 	0.45710 0.92010 0.47700 0.20900
N 	N 	0.49350 0.94660 0.46840 -0.10700
Zn	Zn	0.78600 0.81194 0.90922 1.18300
N 	N 	0.75157 0.65460 0.84640 -0.30300
N 	N 	0.72370 0.61600 0.90880 -0.30800
N 	N 	0.72379 0.47390 0.72980 -0.36200
O 	O 	0.83520 0.77340 0.90850 -0.54700
O 	O 	0.83300 0.60600 0.05080 -0.40200
C 	C 	0.75109 0.56900 0.74170 0.25600
C 	C 	0.70770 0.50780 0.83560 0.30800
C 	C 	0.77680 0.57750 0.64380 -0.79400
H 	H 	0.79930 0.60970 0.69320 0.24100
H 	H 	0.77950 0.48560 0.60530 0.23300
H 	H 	0.76810 0.64260 0.57030 0.22500
C 	C 	0.67660 0.43670 0.87360 -0.91300
H 	H 	0.66590 0.49770 0.93240 0.26800
H 	H 	0.65980 0.41580 0.79100 0.29700
H 	H 	0.68390 0.35030 0.92200 0.27000
C 	C 	0.84900 0.67490 0.98340 0.45000
C 	C 	0.88760 0.64160 0.98120 -0.22900
C 	C 	0.90400 0.53780 0.06510 0.14900
H 	H 	0.89200 0.49130 0.12630 -0.01200
C 	C 	0.90570 0.71850 0.90240 0.16400
H 	H 	0.89470 0.79320 0.84960 -0.03000
C 	C 	0.94110 0.68660 0.89940 -0.25300
H 	H 	0.95340 0.73920 0.84380 0.11900
C 	C 	0.93910 0.50070 0.05900 -0.23200
H 	H 	0.94990 0.42420 0.10940 0.12200
C 	C 	0.95710 0.57990 0.97700 0.20900
N 	N 	0.99350 0.55340 0.96840 -0.10700
Zn	Zn	0.28600 0.31194 0.90922 1.18300
N 	N 	0.25157 0.15460 0.84640 -0.30300
N 	N 	0.22370 0.11600 0.90880 -0.30800
N 	N 	0.22379 0.97390 0.72980 -0.36100
O 	O 	0.33520 0.27340 0.90850 -0.54700
O 	O 	0.33300 0.10600 0.05080 -0.40100
C 	C 	0.25109 0.06900 0.74170 0.25600
C 	C 	0.20770 0.00780 0.83560 0.30600
C 	C 	0.27680 0.07750 0.64380 -0.79500
H 	H 	0.29930 0.10970 0.69320 0.24100
H 	H 	0.27950 0.98560 0.60530 0.23400
H 	H 	0.26810 0.14260 0.57030 0.22500
C 	C 	0.17660 0.93670 0.87360 -0.91100
H 	H 	0.16590 0.99770 0.93240 0.26800
H 	H 	0.15980 0.91580 0.79100 0.29600
H 	H 	0.18390 0.85030 0.92200 0.27000
C 	C 	0.34900 0.17490 0.98340 0.44900
C 	C 	0.38760 0.14160 0.98120 -0.23000
C 	C 	0.40400 0.03780 0.06510 0.15100
H 	H 	0.39200 0.99130 0.12630 -0.01300
C 	C 	0.40570 0.21850 0.90240 0.16400
H 	H 	0.39470 0.29320 0.84960 -0.03000
C 	C 	0.44110 0.18660 0.89940 -0.25200
H 	H 	0.45340 0.23920 0.84380 0.11900
C 	C 	0.43910 0.00070 0.05900 -0.23000
H 	H 	0.44990 0.92420 0.10940 0.12000
C 	C 	0.45710 0.07990 0.97700 0.20700
N 	N 	0.49350 0.05340 0.96840 -0.10700
Zn	Zn	0.21400 0.81194 0.59078 1.18300
N 	N 	0.24843 0.65460 0.65360 -0.30300
N 	N 	0.27630 0.61600 0.59120 -0.30800
N 	N 	0.27621 0.47390 0.77020 -0.36200
O 	O 	0.16480 0.77340 0.59150 -0.54700
O 	O 	0.16700 0.60600 0.44920 -0.40200
C 	C 	0.24891 0.56900 0.75830 0.25600
C 	C 	0.29230 0.50780 0.66440 0.30700
C 	C 	0.22320 0.57750 0.85620 -0.79500
H 	H 	0.20070 0.60970 0.80680 0.24100
H 	H 	0.22050 0.48560 0.89470 0.23300
H 	H 	0.23190 0.64260 0.92970 0.22500
C 	C 	0.32340 0.43670 0.62640 -0.91300
H 	H 	0.33410 0.49770 0.56760 0.26800
H 	H 	0.34020 0.41580 0.70900 0.29700
H 	H 	0.31610 0.35030 0.57800 0.27000
C 	C 	0.15100 0.67490 0.51660 0.44900
C 	C 	0.11240 0.64160 0.51880 -0.22900
C 	C 	0.09600 0.53780 0.43490 0.14900
H 	H 	0.10800 0.49130 0.37370 -0.01200
C 	C 	0.09430 0.71850 0.59760 0.16400
H 	H 	0.10530 0.79320 0.65040 -0.03000
C 	C 	0.05890 0.68660 0.60060 -0.25300
H 	H 	0.04660 0.73920 0.65620 0.11900
C 	C 	0.06090 0.50070 0.44100 -0.23200
H 	H 	0.05010 0.42420 0.39060 0.12200
C 	C 	0.04290 0.57990 0.52300 0.20900
N 	N 	0.00650 0.55340 0.53160 -0.10700
Zn	Zn	0.71400 0.31194 0.59078 1.18300
N 	N 	0.74843 0.15460 0.65360 -0.30300
N 	N 	0.77630 0.11600 0.59120 -0.30800
N 	N 	0.77621 0.97390 0.77020 -0.36100
O 	O 	0.66480 0.27340 0.59150 -0.54700
O 	O 	0.66700 0.10600 0.44920 -0.40200
C 	C 	0.74891 0.06900 0.75830 0.25600
C 	C 	0.79230 0.00780 0.66440 0.30700
C 	C 	0.72320 0.07750 0.85620 -0.79700
H 	H 	0.70070 0.10970 0.80680 0.24100
H 	H 	0.72050 0.98560 0.89470 0.23400
H 	H 	0.73190 0.14260 0.92970 0.22500
C 	C 	0.82340 0.93670 0.62640 -0.91100
H 	H 	0.83410 0.99770 0.56760 0.26700
H 	H 	0.84020 0.91580 0.70900 0.29700
H 	H 	0.81610 0.85030 0.57800 0.27000
C 	C 	0.65100 0.17490 0.51660 0.45000
C 	C 	0.61240 0.14160 0.51880 -0.22900
C 	C 	0.59600 0.03780 0.43490 0.14900
H 	H 	0.60800 0.99130 0.37370 -0.01200
C 	C 	0.59430 0.21850 0.59760 0.16400
H 	H 	0.60530 0.29320 0.65040 -0.03000
C 	C 	0.55890 0.18660 0.60060 -0.25300
H 	H 	0.54660 0.23920 0.65620 0.11900
C 	C 	0.56090 0.00070 0.44100 -0.23300
H 	H 	0.55010 0.92420 0.39060 0.12200
C 	C 	0.54290 0.07990 0.52300 0.20900
N 	N 	0.50650 0.05340 0.53160 -0.10700
