data_crystal

_cell_length_a 29.59940
_cell_length_b 29.59940
_cell_length_c 52.25500
_cell_angle_alpha 90.00000
_cell_angle_beta  90.00000
_cell_angle_gamma 120.00000

_symmetry_space_group_name_	'P 1'
_symmetry_space_group_name_H-M	'P 1'

loop_
_symmetry_equiv_pos_as_xyz
  x,y,z

loop_
_atom_site_label
_atom_site_type_symbol
_atom_site_fract_x
_atom_site_fract_y
_atom_site_fract_z
_atom_site_charge
Cu	Cu	0.28871 0.48534 0.38208 0.85700
O 	O 	0.10680 0.49650 0.56068 -0.14800
O 	O 	0.06709 0.45334 0.60542 -0.22700
O 	O 	0.05246 0.51718 0.60893 -0.26400
O 	O 	0.38080 0.48380 0.53933 -0.14500
O 	O 	0.32890 0.51850 0.51169 -0.25600
O 	O 	0.25920 0.43480 0.51539 -0.27600
O 	O 	0.19910 0.35717 0.66282 -0.13000
O 	O 	0.28790 0.36760 0.64360 -0.45500
O 	O 	0.34260 0.40310 0.67510 -0.29700
N 	N 	0.28210 0.48070 0.42161 -0.22600
N 	N 	0.32630 0.59660 0.37433 -0.20800
N 	N 	0.39480 0.19250 0.64672 -0.20200
C 	C 	0.21580 0.53223 0.61949 0.08400
C 	C 	0.16298 0.50085 0.62482 -0.15600
H 	H 	0.15200 0.48770 0.64160 0.10200
C 	C 	0.12629 0.48865 0.60554 0.12600
C 	C 	0.14242 0.50784 0.58094 0.08500
C 	C 	0.19524 0.53921 0.57561 -0.11400
H 	H 	0.20630 0.55230 0.55880 0.07700
C 	C 	0.23193 0.55141 0.59489 0.03500
C 	C 	0.28780 0.58787 0.58834 -0.17700
H 	H 	0.30650 0.60630 0.60410 0.06500
H 	H 	0.28950 0.61440 0.57620 0.07400
C 	C 	0.31628 0.56164 0.57649 0.04100
C 	C 	0.30965 0.55309 0.55002 -0.11800
H 	H 	0.29210 0.56640 0.54000 0.08000
C 	C 	0.33241 0.52077 0.53783 0.13400
C 	C 	0.35722 0.50904 0.55293 0.05100
C 	C 	0.36576 0.51879 0.57992 -0.09900
H 	H 	0.38650 0.50890 0.58970 0.08200
C 	C 	0.33946 0.54562 0.59118 0.05100
C 	C 	0.34799 0.55146 0.61970 -0.20900
H 	H 	0.34470 0.58130 0.62580 0.07700
H 	H 	0.38360 0.55860 0.62380 0.09500
C 	C 	0.30836 0.50215 0.63318 0.07700
C 	C 	0.31692 0.46143 0.63614 -0.17900
H 	H 	0.34940 0.46550 0.63070 0.10500
C 	C 	0.28189 0.41627 0.64630 0.15800
C 	C 	0.23625 0.40721 0.65391 0.06400
C 	C 	0.22316 0.44795 0.65144 -0.10200
H 	H 	0.18960 0.44240 0.65590 0.07900
C 	C 	0.26300 0.49651 0.64205 0.03900
C 	C 	0.24588 0.53573 0.64023 -0.21100
H 	H 	0.22600 0.53320 0.65590 0.08400
H 	H 	0.27740 0.57080 0.64010 0.07300
C 	C 	0.12063 0.51128 0.53482 -0.18400
H 	H 	0.14470 0.54900 0.53390 0.09700
H 	H 	0.08920 0.50230 0.52490 0.09600
H 	H 	0.13760 0.49280 0.52780 0.09400
C 	C 	0.03224 0.47231 0.60516 0.29500
C 	C 	0.98552 0.43227 0.61149 -0.05600
C 	C 	0.97432 0.38072 0.61145 -0.01600
H 	H 	0.00170 0.37300 0.60950 0.05800
C 	C 	0.92312 0.34048 0.61427 0.01100
H 	H 	0.91550 0.30520 0.61420 0.01000
N 	N 	0.88313 0.35178 0.61714 -0.19600
C 	C 	0.89432 0.40333 0.61718 0.01700
H 	H 	0.86700 0.41110 0.61910 0.00800
C 	C 	0.94552 0.44357 0.61436 -0.03800
H 	H 	0.95320 0.47880 0.61440 0.05100
C 	C 	0.14362 0.34250 0.66662 -0.21200
H 	H 	0.14180 0.36800 0.67800 0.11200
H 	H 	0.12450 0.30780 0.67440 0.10000
H 	H 	0.12790 0.34220 0.65010 0.11100
C 	C 	0.31130 0.37140 0.65690 0.51000
C 	C 	0.32660 0.32153 0.66085 -0.02300
C 	C 	0.36320 0.31982 0.67684 -0.06500
H 	H 	0.38480 0.34880 0.68740 0.06000
C 	C 	0.36842 0.27568 0.67732 0.02300
H 	H 	0.39350 0.27450 0.68820 -0.00700
N 	N 	0.33694 0.23323 0.66182 -0.22800
C 	C 	0.30029 0.23493 0.64583 0.02400
H 	H 	0.27880 0.20590 0.63520 -0.01000
C 	C 	0.29511 0.27908 0.64535 -0.07100
H 	H 	0.27010 0.28020 0.63440 0.07100
C 	C 	0.41042 0.47113 0.55228 -0.15300
H 	H 	0.43780 0.50210 0.56100 0.09700
H 	H 	0.42640 0.45720 0.54060 0.08500
H 	H 	0.38930 0.44450 0.56500 0.08800
C 	C 	0.29170 0.46555 0.50495 0.30600
C 	C 	0.29435 0.47921 0.47472 -0.00000
C 	C 	0.25244 0.43039 0.46040 -0.11200
H 	H 	0.22790 0.39860 0.46830 0.07900
C 	C 	0.25584 0.43956 0.43515 0.09000
H 	H 	0.23430 0.40930 0.42530 -0.02200
C 	C 	0.31653 0.52882 0.43168 0.01000
H 	H 	0.33450 0.55960 0.42170 -0.00200
C 	C 	0.32254 0.52761 0.45977 -0.06100
H 	H 	0.34540 0.55920 0.46840 0.06200
C 	C 	0.32130 0.55149 0.37503 -0.25300
C 	C 	0.42800 0.19860 0.63471 -0.17500
Cu	Cu	0.95538 0.81867 0.71541 0.85900
O 	O 	0.77347 0.82983 0.89401 -0.14600
O 	O 	0.73376 0.78667 0.93875 -0.22600
O 	O 	0.71913 0.85051 0.94226 -0.26400
O 	O 	0.04747 0.81713 0.87266 -0.14300
O 	O 	0.99557 0.85183 0.84502 -0.25600
O 	O 	0.92587 0.76813 0.84872 -0.27400
O 	O 	0.86577 0.69050 0.99615 -0.12900
O 	O 	0.95457 0.70093 0.97693 -0.45500
O 	O 	0.00927 0.73643 0.00843 -0.30700
N 	N 	0.94877 0.81403 0.75494 -0.22700
N 	N 	0.99297 0.92993 0.70766 -0.20300
N 	N 	0.06147 0.52583 0.98005 -0.20300
C 	C 	0.88247 0.86556 0.95282 0.08200
C 	C 	0.82965 0.83418 0.95815 -0.15500
H 	H 	0.81867 0.82103 0.97493 0.10200
C 	C 	0.79296 0.82198 0.93887 0.12600
C 	C 	0.80909 0.84117 0.91427 0.08600
C 	C 	0.86191 0.87254 0.90894 -0.11700
H 	H 	0.87297 0.88563 0.89213 0.07800
C 	C 	0.89860 0.88474 0.92822 0.04100
C 	C 	0.95447 0.92120 0.92167 -0.19100
H 	H 	0.97317 0.93963 0.93743 0.07400
H 	H 	0.95617 0.94773 0.90953 0.08200
C 	C 	0.98295 0.89497 0.90982 0.06500
C 	C 	0.97632 0.88642 0.88335 -0.13000
H 	H 	0.95877 0.89973 0.87333 0.08600
C 	C 	0.99908 0.85410 0.87116 0.15300
C 	C 	0.02389 0.84237 0.88626 0.03200
C 	C 	0.03243 0.85212 0.91325 -0.08600
H 	H 	0.05317 0.84223 0.92303 0.07700
C 	C 	0.00613 0.87895 0.92451 0.03100
C 	C 	0.01466 0.88479 0.95303 -0.20400
H 	H 	0.01137 0.91463 0.95913 0.07400
H 	H 	0.05027 0.89193 0.95713 0.09400
C 	C 	0.97503 0.83548 0.96651 0.07600
C 	C 	0.98359 0.79476 0.96947 -0.16100
H 	H 	0.01607 0.79883 0.96403 0.09400
C 	C 	0.94856 0.74960 0.97963 0.15200
C 	C 	0.90292 0.74054 0.98724 0.06800
C 	C 	0.88983 0.78128 0.98477 -0.10500
H 	H 	0.85627 0.77573 0.98923 0.08000
C 	C 	0.92967 0.82984 0.97538 0.04300
C 	C 	0.91255 0.86906 0.97356 -0.21200
H 	H 	0.89267 0.86653 0.98923 0.08500
H 	H 	0.94407 0.90413 0.97343 0.07600
C 	C 	0.78730 0.84461 0.86815 -0.18800
H 	H 	0.81137 0.88233 0.86723 0.10000
H 	H 	0.75587 0.83563 0.85823 0.09900
H 	H 	0.80427 0.82613 0.86113 0.09600
C 	C 	0.69891 0.80564 0.93849 0.30500
C 	C 	0.65219 0.76560 0.94482 -0.06300
C 	C 	0.64099 0.71405 0.94478 -0.03000
H 	H 	0.66837 0.70633 0.94283 0.06800
C 	C 	0.58979 0.67381 0.94760 0.01600
H 	H 	0.58217 0.63853 0.94753 0.00700
N 	N 	0.54980 0.68511 0.95047 -0.19700
C 	C 	0.56099 0.73666 0.95051 0.01500
H 	H 	0.53367 0.74443 0.95243 0.00800
C 	C 	0.61219 0.77690 0.94769 -0.03700
H 	H 	0.61987 0.81213 0.94773 0.04800
C 	C 	0.81029 0.67583 0.99995 -0.21100
H 	H 	0.80847 0.70133 0.01133 0.11100
H 	H 	0.79117 0.64113 0.00773 0.10000
H 	H 	0.79457 0.67553 0.98343 0.11100
C 	C 	0.97797 0.70473 0.99023 0.51900
C 	C 	0.99327 0.65486 0.99418 -0.00900
C 	C 	0.02987 0.65315 0.01017 -0.08200
H 	H 	0.05147 0.68213 0.02073 0.06400
C 	C 	0.03509 0.60901 0.01065 0.02700
H 	H 	0.06017 0.60783 0.02153 -0.01000
N 	N 	0.00361 0.56656 0.99515 -0.23400
C 	C 	0.96696 0.56826 0.97916 0.03700
H 	H 	0.94547 0.53923 0.96853 -0.01200
C 	C 	0.96178 0.61241 0.97868 -0.07900
H 	H 	0.93677 0.61353 0.96773 0.07600
C 	C 	0.07709 0.80446 0.88561 -0.15400
H 	H 	0.10447 0.83543 0.89433 0.09700
H 	H 	0.09307 0.79053 0.87393 0.08500
H 	H 	0.05597 0.77783 0.89833 0.08700
C 	C 	0.95837 0.79888 0.83828 0.30800
C 	C 	0.96102 0.81254 0.80805 -0.00100
C 	C 	0.91911 0.76372 0.79373 -0.11100
H 	H 	0.89457 0.73193 0.80163 0.08100
C 	C 	0.92251 0.77289 0.76848 0.09100
H 	H 	0.90097 0.74263 0.75863 -0.02100
C 	C 	0.98320 0.86215 0.76501 0.02100
H 	H 	0.00117 0.89293 0.75503 -0.01000
C 	C 	0.98921 0.86094 0.79310 -0.05100
H 	H 	0.01207 0.89253 0.80173 0.05400
C 	C 	0.98797 0.88482 0.70836 -0.24800
C 	C 	0.09467 0.53193 0.96804 -0.17500
Cu	Cu	0.62204 0.15201 0.04875 0.85800
O 	O 	0.44013 0.16317 0.22735 -0.14600
O 	O 	0.40042 0.12001 0.27209 -0.22700
O 	O 	0.38579 0.18385 0.27560 -0.26400
O 	O 	0.71413 0.15047 0.20600 -0.14500
O 	O 	0.66223 0.18517 0.17836 -0.25500
O 	O 	0.59253 0.10147 0.18206 -0.27600
O 	O 	0.53243 0.02384 0.32949 -0.12600
O 	O 	0.62123 0.03427 0.31027 -0.45500
O 	O 	0.67593 0.06977 0.34177 -0.29800
N 	N 	0.61543 0.14737 0.08828 -0.22600
N 	N 	0.65963 0.26327 0.04100 -0.20800
N 	N 	0.72813 0.85917 0.31339 -0.20200
C 	C 	0.54913 0.19890 0.28616 0.08400
C 	C 	0.49631 0.16752 0.29149 -0.15700
H 	H 	0.48533 0.15437 0.30827 0.10200
C 	C 	0.45962 0.15532 0.27221 0.12700
C 	C 	0.47575 0.17451 0.24761 0.08500
C 	C 	0.52857 0.20588 0.24228 -0.11400
H 	H 	0.53963 0.21897 0.22547 0.07700
C 	C 	0.56526 0.21808 0.26156 0.03500
C 	C 	0.62113 0.25454 0.25501 -0.17600
H 	H 	0.63983 0.27297 0.27077 0.06500
H 	H 	0.62283 0.28107 0.24287 0.07400
C 	C 	0.64961 0.22831 0.24316 0.04100
C 	C 	0.64298 0.21976 0.21669 -0.11800
H 	H 	0.62543 0.23307 0.20667 0.08000
C 	C 	0.66574 0.18744 0.20450 0.13400
C 	C 	0.69055 0.17571 0.21960 0.05100
C 	C 	0.69909 0.18546 0.24659 -0.09900
H 	H 	0.71983 0.17557 0.25637 0.08200
C 	C 	0.67279 0.21229 0.25785 0.05100
C 	C 	0.68132 0.21813 0.28637 -0.20900
H 	H 	0.67803 0.24797 0.29247 0.07700
H 	H 	0.71693 0.22527 0.29047 0.09500
C 	C 	0.64169 0.16882 0.29985 0.07800
C 	C 	0.65025 0.12810 0.30281 -0.18000
H 	H 	0.68273 0.13217 0.29737 0.10500
C 	C 	0.61522 0.08294 0.31297 0.15800
C 	C 	0.56958 0.07388 0.32058 0.06200
C 	C 	0.55649 0.11462 0.31811 -0.10100
H 	H 	0.52293 0.10907 0.32257 0.07900
C 	C 	0.59633 0.16318 0.30872 0.03800
C 	C 	0.57921 0.20240 0.30690 -0.21100
H 	H 	0.55933 0.19987 0.32257 0.08400
H 	H 	0.61073 0.23747 0.30677 0.07300
C 	C 	0.45396 0.17795 0.20149 -0.18500
H 	H 	0.47803 0.21567 0.20057 0.09800
H 	H 	0.42253 0.16897 0.19157 0.09700
H 	H 	0.47093 0.15947 0.19447 0.09500
C 	C 	0.36557 0.13898 0.27183 0.30700
C 	C 	0.31885 0.09894 0.27816 -0.06800
C 	C 	0.30765 0.04739 0.27812 -0.02000
H 	H 	0.33503 0.03967 0.27617 0.06300
C 	C 	0.25645 0.00715 0.28094 -0.00300
H 	H 	0.24883 0.97187 0.28087 0.01800
N 	N 	0.21646 0.01845 0.28381 -0.19700
C 	C 	0.22765 0.07000 0.28385 0.01200
H 	H 	0.20033 0.07777 0.28577 0.00700
C 	C 	0.27885 0.11024 0.28103 -0.03300
H 	H 	0.28653 0.14547 0.28107 0.04600
C 	C 	0.47695 0.00917 0.33329 -0.23900
H 	H 	0.47513 0.03467 0.34467 0.11800
H 	H 	0.45783 0.97447 0.34107 0.11400
H 	H 	0.46123 0.00887 0.31677 0.11700
C 	C 	0.64463 0.03807 0.32357 0.50600
C 	C 	0.65993 0.98820 0.32752 -0.02100
C 	C 	0.69653 0.98649 0.34351 -0.04900
H 	H 	0.71813 0.01547 0.35407 0.05000
C 	C 	0.70175 0.94235 0.34399 0.01700
H 	H 	0.72683 0.94117 0.35487 -0.00200
N 	N 	0.67027 0.89990 0.32849 -0.22600
C 	C 	0.63362 0.90160 0.31250 0.02400
H 	H 	0.61213 0.87257 0.30187 -0.00900
C 	C 	0.62844 0.94575 0.31202 -0.06900
H 	H 	0.60343 0.94687 0.30107 0.07400
C 	C 	0.74375 0.13780 0.21895 -0.15200
H 	H 	0.77113 0.16877 0.22767 0.09600
H 	H 	0.75973 0.12387 0.20727 0.08500
H 	H 	0.72263 0.11117 0.23167 0.08700
C 	C 	0.62503 0.13222 0.17162 0.30600
C 	C 	0.62768 0.14588 0.14139 -0.00000
C 	C 	0.58577 0.09706 0.12707 -0.11300
H 	H 	0.56123 0.06527 0.13497 0.07900
C 	C 	0.58917 0.10623 0.10182 0.09000
H 	H 	0.56763 0.07597 0.09197 -0.02200
C 	C 	0.64986 0.19549 0.09835 0.01000
H 	H 	0.66783 0.22627 0.08837 -0.00200
C 	C 	0.65587 0.19428 0.12644 -0.06100
H 	H 	0.67873 0.22587 0.13507 0.06200
C 	C 	0.65463 0.21816 0.04170 -0.25300
C 	C 	0.76133 0.86527 0.30138 -0.17200
Cu	Cu	0.51466 0.80337 0.38208 0.85800
O 	O 	0.50350 0.61030 0.56068 -0.14600
O 	O 	0.54666 0.61375 0.60542 -0.22600
O 	O 	0.48282 0.53528 0.60893 -0.26400
O 	O 	0.51620 0.89700 0.53933 -0.14200
O 	O 	0.48150 0.81040 0.51169 -0.25500
O 	O 	0.56520 0.82440 0.51539 -0.27300
O 	O 	0.64283 0.84193 0.66282 -0.12700
O 	O 	0.63240 0.92030 0.64360 -0.45400
O 	O 	0.59690 0.93950 0.67510 -0.29600
N 	N 	0.51930 0.80140 0.42161 -0.22600
N 	N 	0.40340 0.72970 0.37433 -0.20800
N 	N 	0.80750 0.20230 0.64672 -0.20200
C 	C 	0.46777 0.68357 0.61949 0.08400
C 	C 	0.49915 0.66213 0.62482 -0.15600
H 	H 	0.51230 0.66430 0.64160 0.10200
C 	C 	0.51135 0.63764 0.60554 0.12700
C 	C 	0.49216 0.63458 0.58094 0.08500
C 	C 	0.46079 0.65603 0.57561 -0.11400
H 	H 	0.44770 0.65400 0.55880 0.07700
C 	C 	0.44859 0.68052 0.59489 0.03500
C 	C 	0.41213 0.69993 0.58834 -0.17600
H 	H 	0.39370 0.70020 0.60410 0.06500
H 	H 	0.38560 0.67510 0.57620 0.07400
C 	C 	0.43836 0.75464 0.57649 0.04100
C 	C 	0.44691 0.75656 0.55002 -0.11800
H 	H 	0.43360 0.72570 0.54000 0.08000
C 	C 	0.47923 0.81164 0.53783 0.13500
C 	C 	0.49096 0.84818 0.55293 0.05000
C 	C 	0.48121 0.84697 0.57992 -0.09800
H 	H 	0.49110 0.87760 0.58970 0.08200
C 	C 	0.45438 0.79384 0.59118 0.05200
C 	C 	0.44854 0.79653 0.61970 -0.20900
H 	H 	0.41870 0.76340 0.62580 0.07700
H 	H 	0.44140 0.82500 0.62380 0.09600
C 	C 	0.49785 0.80621 0.63318 0.07800
C 	C 	0.53857 0.85549 0.63614 -0.17900
H 	H 	0.53450 0.88390 0.63070 0.10500
C 	C 	0.58373 0.86562 0.64630 0.15800
C 	C 	0.59279 0.82904 0.65391 0.06400
C 	C 	0.55205 0.77521 0.65144 -0.10200
H 	H 	0.55760 0.74720 0.65590 0.07900
C 	C 	0.50349 0.76649 0.64205 0.03900
C 	C 	0.46427 0.71015 0.64023 -0.21100
H 	H 	0.46680 0.69280 0.65590 0.08400
H 	H 	0.42920 0.70660 0.64010 0.07300
C 	C 	0.48872 0.60935 0.53482 -0.18600
H 	H 	0.45100 0.59570 0.53390 0.09800
H 	H 	0.49770 0.58690 0.52490 0.09800
H 	H 	0.50720 0.64480 0.52780 0.09600
C 	C 	0.52769 0.55993 0.60516 0.30500
C 	C 	0.56773 0.55325 0.61149 -0.06300
C 	C 	0.61928 0.59360 0.61145 -0.02900
H 	H 	0.62700 0.62870 0.60950 0.06800
C 	C 	0.65952 0.58264 0.61427 0.01600
H 	H 	0.69480 0.61030 0.61420 0.00700
N 	N 	0.64822 0.53135 0.61714 -0.19700
C 	C 	0.59667 0.49099 0.61718 0.01500
H 	H 	0.58890 0.45590 0.61910 0.00800
C 	C 	0.55643 0.50195 0.61436 -0.03600
H 	H 	0.52120 0.47440 0.61440 0.04800
C 	C 	0.65750 0.80112 0.66662 -0.21500
H 	H 	0.63200 0.77380 0.67800 0.11300
H 	H 	0.69220 0.81670 0.67440 0.10200
H 	H 	0.65780 0.78570 0.65010 0.11300
C 	C 	0.62860 0.93990 0.65690 0.51500
C 	C 	0.67847 0.00507 0.66085 -0.02400
C 	C 	0.68018 0.04338 0.67684 -0.06600
H 	H 	0.65120 0.03600 0.68740 0.05800
C 	C 	0.72432 0.09274 0.67732 0.02300
H 	H 	0.72550 0.11900 0.68820 -0.00700
N 	N 	0.76677 0.10371 0.66182 -0.22900
C 	C 	0.76507 0.06536 0.64583 0.03000
H 	H 	0.79410 0.07290 0.63520 -0.01300
C 	C 	0.72092 0.01603 0.64535 -0.08700
H 	H 	0.71980 0.98990 0.63440 0.08300
C 	C 	0.52887 0.93929 0.55228 -0.15900
H 	H 	0.49790 0.93570 0.56100 0.09900
H 	H 	0.54280 0.96920 0.54060 0.08900
H 	H 	0.55550 0.94480 0.56500 0.09100
C 	C 	0.53445 0.82615 0.50495 0.30600
C 	C 	0.52079 0.81514 0.47472 0.00100
C 	C 	0.56961 0.82205 0.46040 -0.11200
H 	H 	0.60140 0.82930 0.46830 0.08100
C 	C 	0.56044 0.81628 0.43515 0.09000
H 	H 	0.59070 0.82500 0.42530 -0.02100
C 	C 	0.47118 0.78771 0.43168 0.01100
H 	H 	0.44040 0.77490 0.42170 -0.00200
C 	C 	0.47239 0.79493 0.45977 -0.06100
H 	H 	0.44080 0.78620 0.46840 0.06200
C 	C 	0.44851 0.76981 0.37503 -0.25300
C 	C 	0.80140 0.22940 0.63471 -0.17400
Cu	Cu	0.18133 0.13670 0.71541 0.85800
O 	O 	0.17017 0.94363 0.89401 -0.14400
O 	O 	0.21333 0.94708 0.93875 -0.22500
O 	O 	0.14949 0.86861 0.94226 -0.26300
O 	O 	0.18287 0.23033 0.87266 -0.14400
O 	O 	0.14817 0.14373 0.84502 -0.25600
O 	O 	0.23187 0.15773 0.84872 -0.27600
O 	O 	0.30950 0.17526 0.99615 -0.12800
O 	O 	0.29907 0.25363 0.97693 -0.45400
O 	O 	0.26357 0.27283 0.00843 -0.29800
N 	N 	0.18597 0.13473 0.75494 -0.22600
N 	N 	0.07007 0.06303 0.70766 -0.21100
N 	N 	0.47417 0.53563 0.98005 -0.20200
C 	C 	0.13444 0.01690 0.95282 0.07400
C 	C 	0.16582 0.99546 0.95815 -0.14500
H 	H 	0.17897 0.99763 0.97493 0.10100
C 	C 	0.17802 0.97097 0.93887 0.12600
C 	C 	0.15883 0.96791 0.91427 0.08300
C 	C 	0.12746 0.98936 0.90894 -0.10200
H 	H 	0.11437 0.98733 0.89213 0.07400
C 	C 	0.11526 0.01385 0.92822 0.02500
C 	C 	0.07880 0.03326 0.92167 -0.16800
H 	H 	0.06037 0.03353 0.93743 0.06000
H 	H 	0.05227 0.00843 0.90953 0.06600
C 	C 	0.10503 0.08797 0.90982 0.03500
C 	C 	0.11358 0.08989 0.88335 -0.11600
H 	H 	0.10027 0.05903 0.87333 0.07600
C 	C 	0.14590 0.14497 0.87116 0.13300
C 	C 	0.15763 0.18151 0.88626 0.05200
C 	C 	0.14788 0.18030 0.91325 -0.10000
H 	H 	0.15777 0.21093 0.92303 0.08200
C 	C 	0.12105 0.12717 0.92451 0.05400
C 	C 	0.11521 0.12986 0.95303 -0.21100
H 	H 	0.08537 0.09673 0.95913 0.07700
H 	H 	0.10807 0.15833 0.95713 0.09500
C 	C 	0.16452 0.13954 0.96651 0.08000
C 	C 	0.20524 0.18882 0.96947 -0.18100
H 	H 	0.20117 0.21723 0.96403 0.10500
C 	C 	0.25040 0.19895 0.97963 0.15900
C 	C 	0.25946 0.16237 0.98724 0.06300
C 	C 	0.21872 0.10854 0.98477 -0.10000
H 	H 	0.22427 0.08053 0.98923 0.07700
C 	C 	0.17016 0.09982 0.97538 0.03500
C 	C 	0.13094 0.04348 0.97356 -0.20300
H 	H 	0.13347 0.02613 0.98923 0.08000
H 	H 	0.09587 0.03993 0.97343 0.07000
C 	C 	0.15539 0.94268 0.86815 -0.18800
H 	H 	0.11767 0.92903 0.86723 0.09900
H 	H 	0.16437 0.92023 0.85823 0.09900
H 	H 	0.17387 0.97813 0.86113 0.09800
C 	C 	0.19436 0.89326 0.93849 0.30400
C 	C 	0.23440 0.88658 0.94482 -0.06200
C 	C 	0.28595 0.92693 0.94478 -0.03000
H 	H 	0.29367 0.96203 0.94283 0.07000
C 	C 	0.32619 0.91597 0.94760 0.01600
H 	H 	0.36147 0.94363 0.94753 0.00900
N 	N 	0.31489 0.86468 0.95047 -0.19700
C 	C 	0.26334 0.82432 0.95051 0.01500
H 	H 	0.25557 0.78923 0.95243 0.00800
C 	C 	0.22310 0.83528 0.94769 -0.03700
H 	H 	0.18787 0.80773 0.94773 0.04800
C 	C 	0.32417 0.13445 0.99995 -0.21000
H 	H 	0.29867 0.10713 0.01133 0.11100
H 	H 	0.35887 0.15003 0.00773 0.10000
H 	H 	0.32447 0.11903 0.98343 0.11000
C 	C 	0.29527 0.27323 0.99023 0.51100
C 	C 	0.34514 0.33840 0.99418 -0.02200
C 	C 	0.34685 0.37671 0.01017 -0.06600
H 	H 	0.31787 0.36933 0.02073 0.06000
C 	C 	0.39099 0.42607 0.01065 0.02200
H 	H 	0.39217 0.45233 0.02153 -0.00700
N 	N 	0.43344 0.43704 0.99515 -0.22800
C 	C 	0.43174 0.39869 0.97916 0.02400
H 	H 	0.46077 0.40623 0.96853 -0.01000
C 	C 	0.38759 0.34936 0.97868 -0.07100
H 	H 	0.38647 0.32323 0.96773 0.07200
C 	C 	0.19554 0.27262 0.88561 -0.15300
H 	H 	0.16457 0.26903 0.89433 0.09700
H 	H 	0.20947 0.30253 0.87393 0.08500
H 	H 	0.22217 0.27813 0.89833 0.08800
C 	C 	0.20112 0.15948 0.83828 0.30600
C 	C 	0.18746 0.14847 0.80805 -0.00100
C 	C 	0.23628 0.15538 0.79373 -0.11300
H 	H 	0.26807 0.16263 0.80163 0.07900
C 	C 	0.22711 0.14961 0.76848 0.08900
H 	H 	0.25737 0.15833 0.75863 -0.02200
C 	C 	0.13785 0.12104 0.76501 0.00900
H 	H 	0.10707 0.10823 0.75503 -0.00300
C 	C 	0.13906 0.12826 0.79310 -0.06200
H 	H 	0.10747 0.11953 0.80173 0.06000
C 	C 	0.11518 0.10314 0.70836 -0.25600
C 	C 	0.46807 0.56273 0.96804 -0.17400
Cu	Cu	0.84799 0.47004 0.04875 0.85800
O 	O 	0.83683 0.27697 0.22735 -0.14500
O 	O 	0.87999 0.28042 0.27209 -0.22500
O 	O 	0.81615 0.20195 0.27560 -0.26300
O 	O 	0.84953 0.56367 0.20600 -0.14300
O 	O 	0.81483 0.47707 0.17836 -0.25500
O 	O 	0.89853 0.49107 0.18206 -0.27300
O 	O 	0.97616 0.50860 0.32949 -0.13000
O 	O 	0.96573 0.58697 0.31027 -0.45300
O 	O 	0.93023 0.60617 0.34177 -0.29700
N 	N 	0.85263 0.46807 0.08828 -0.22600
N 	N 	0.73673 0.39637 0.04100 -0.20800
N 	N 	0.14083 0.86897 0.31339 -0.20200
C 	C 	0.80110 0.35024 0.28616 0.08400
C 	C 	0.83248 0.32880 0.29149 -0.15600
H 	H 	0.84563 0.33097 0.30827 0.10200
C 	C 	0.84468 0.30431 0.27221 0.12700
C 	C 	0.82549 0.30125 0.24761 0.08500
C 	C 	0.79412 0.32270 0.24228 -0.11400
H 	H 	0.78103 0.32067 0.22547 0.07700
C 	C 	0.78192 0.34719 0.26156 0.03500
C 	C 	0.74546 0.36660 0.25501 -0.17600
H 	H 	0.72703 0.36687 0.27077 0.06500
H 	H 	0.71893 0.34177 0.24287 0.07400
C 	C 	0.77169 0.42131 0.24316 0.04100
C 	C 	0.78024 0.42323 0.21669 -0.11700
H 	H 	0.76693 0.39237 0.20667 0.08000
C 	C 	0.81256 0.47831 0.20450 0.13500
C 	C 	0.82429 0.51485 0.21960 0.05100
C 	C 	0.81454 0.51364 0.24659 -0.09800
H 	H 	0.82443 0.54427 0.25637 0.08200
C 	C 	0.78771 0.46051 0.25785 0.05100
C 	C 	0.78187 0.46320 0.28637 -0.20900
H 	H 	0.75203 0.43007 0.29247 0.07700
H 	H 	0.77473 0.49167 0.29047 0.09500
C 	C 	0.83118 0.47288 0.29985 0.07700
C 	C 	0.87190 0.52216 0.30281 -0.17900
H 	H 	0.86783 0.55057 0.29737 0.10500
C 	C 	0.91706 0.53229 0.31297 0.15700
C 	C 	0.92612 0.49571 0.32058 0.06600
C 	C 	0.88538 0.44188 0.31811 -0.10300
H 	H 	0.89093 0.41387 0.32257 0.08000
C 	C 	0.83682 0.43316 0.30872 0.03900
C 	C 	0.79760 0.37682 0.30690 -0.21100
H 	H 	0.80013 0.35947 0.32257 0.08500
H 	H 	0.76253 0.37327 0.30677 0.07300
C 	C 	0.82205 0.27602 0.20149 -0.18700
H 	H 	0.78433 0.26237 0.20057 0.09900
H 	H 	0.83103 0.25357 0.19157 0.09900
H 	H 	0.84053 0.31147 0.19447 0.09600
C 	C 	0.86102 0.22660 0.27183 0.30200
C 	C 	0.90106 0.21992 0.27816 -0.05700
C 	C 	0.95261 0.26027 0.27812 -0.03900
H 	H 	0.96033 0.29537 0.27617 0.07300
C 	C 	0.99285 0.24931 0.28094 0.03500
H 	H 	0.02813 0.27697 0.28087 -0.00400
N 	N 	0.98155 0.19802 0.28381 -0.19700
C 	C 	0.93000 0.15766 0.28385 0.01800
H 	H 	0.92223 0.12257 0.28577 0.00800
C 	C 	0.88976 0.16862 0.28103 -0.04000
H 	H 	0.85453 0.14107 0.28107 0.04900
C 	C 	0.99083 0.46779 0.33329 -0.18900
H 	H 	0.96533 0.44047 0.34467 0.10700
H 	H 	0.02553 0.48337 0.34107 0.08900
H 	H 	0.99113 0.45237 0.31677 0.10700
C 	C 	0.96193 0.60657 0.32357 0.51400
C 	C 	0.01180 0.67174 0.32752 -0.02400
C 	C 	0.01351 0.71005 0.34351 -0.08100
H 	H 	0.98453 0.70267 0.35407 0.07000
C 	C 	0.05765 0.75941 0.34399 0.02900
H 	H 	0.05883 0.78567 0.35487 -0.01000
N 	N 	0.10010 0.77038 0.32849 -0.22900
C 	C 	0.09840 0.73203 0.31250 0.02400
H 	H 	0.12743 0.73957 0.30187 -0.01000
C 	C 	0.05425 0.68270 0.31202 -0.07100
H 	H 	0.05313 0.65657 0.30107 0.07000
C 	C 	0.86220 0.60596 0.21895 -0.15600
H 	H 	0.83123 0.60237 0.22767 0.09800
H 	H 	0.87613 0.63587 0.20727 0.08700
H 	H 	0.88883 0.61147 0.23167 0.09000
C 	C 	0.86778 0.49282 0.17162 0.30600
C 	C 	0.85412 0.48181 0.14139 0.00100
C 	C 	0.90294 0.48872 0.12707 -0.11200
H 	H 	0.93473 0.49597 0.13497 0.08100
C 	C 	0.89377 0.48295 0.10182 0.09000
H 	H 	0.92403 0.49167 0.09197 -0.02000
C 	C 	0.80451 0.45438 0.09835 0.01100
H 	H 	0.77373 0.44157 0.08837 -0.00200
C 	C 	0.80572 0.46160 0.12644 -0.06100
H 	H 	0.77413 0.45287 0.13507 0.06200
C 	C 	0.78184 0.43648 0.04170 -0.25300
C 	C 	0.13473 0.89607 0.30138 -0.17400
Cu	Cu	0.19663 0.71129 0.38208 0.85800
O 	O 	0.38970 0.89320 0.56068 -0.14400
O 	O 	0.38625 0.93291 0.60542 -0.22700
O 	O 	0.46472 0.94754 0.60893 -0.26500
O 	O 	0.10300 0.61920 0.53933 -0.14600
O 	O 	0.18960 0.67110 0.51169 -0.25500
O 	O 	0.17560 0.74080 0.51539 -0.27400
O 	O 	0.15807 0.80090 0.66282 -0.12800
O 	O 	0.07970 0.71210 0.64360 -0.45300
O 	O 	0.06050 0.65740 0.67510 -0.29800
N 	N 	0.19860 0.71790 0.42161 -0.22600
N 	N 	0.27030 0.67370 0.37433 -0.20800
N 	N 	0.79770 0.60520 0.64672 -0.20200
C 	C 	0.31643 0.78420 0.61949 0.08400
C 	C 	0.33787 0.83702 0.62482 -0.15700
H 	H 	0.33570 0.84800 0.64160 0.10200
C 	C 	0.36236 0.87371 0.60554 0.12700
C 	C 	0.36542 0.85758 0.58094 0.08400
C 	C 	0.34397 0.80476 0.57561 -0.11300
H 	H 	0.34600 0.79370 0.55880 0.07700
C 	C 	0.31948 0.76807 0.59489 0.03500
C 	C 	0.30007 0.71220 0.58834 -0.17600
H 	H 	0.29980 0.69350 0.60410 0.06500
H 	H 	0.32490 0.71050 0.57620 0.07400
C 	C 	0.24536 0.68372 0.57649 0.04100
C 	C 	0.24344 0.69035 0.55002 -0.11700
H 	H 	0.27430 0.70790 0.54000 0.08000
C 	C 	0.18836 0.66759 0.53783 0.13400
C 	C 	0.15182 0.64278 0.55293 0.05100
C 	C 	0.15303 0.63424 0.57992 -0.09900
H 	H 	0.12240 0.61350 0.58970 0.08100
C 	C 	0.20616 0.66054 0.59118 0.05100
C 	C 	0.20347 0.65201 0.61970 -0.20900
H 	H 	0.23660 0.65530 0.62580 0.07700
H 	H 	0.17500 0.61640 0.62380 0.09500
C 	C 	0.19379 0.69164 0.63318 0.07700
C 	C 	0.14451 0.68308 0.63614 -0.17900
H 	H 	0.11610 0.65060 0.63070 0.10400
C 	C 	0.13438 0.71811 0.64630 0.15700
C 	C 	0.17096 0.76375 0.65391 0.06400
C 	C 	0.22479 0.77684 0.65144 -0.10200
H 	H 	0.25280 0.81040 0.65590 0.07900
C 	C 	0.23351 0.73700 0.64205 0.03900
C 	C 	0.28985 0.75412 0.64023 -0.21100
H 	H 	0.30720 0.77400 0.65590 0.08500
H 	H 	0.29340 0.72260 0.64010 0.07300
C 	C 	0.39065 0.87937 0.53482 -0.18800
H 	H 	0.40430 0.85530 0.53390 0.09900
H 	H 	0.41310 0.91080 0.52490 0.10000
H 	H 	0.35520 0.86240 0.52780 0.09700
C 	C 	0.44007 0.96776 0.60516 0.31400
C 	C 	0.44675 0.01448 0.61149 -0.07000
C 	C 	0.40640 0.02568 0.61145 -0.04300
H 	H 	0.37130 0.99830 0.60950 0.07800
C 	C 	0.41736 0.07688 0.61427 0.02100
H 	H 	0.38970 0.08450 0.61420 0.00400
N 	N 	0.46865 0.11687 0.61714 -0.19800
C 	C 	0.50901 0.10568 0.61718 0.01400
H 	H 	0.54410 0.13300 0.61910 0.00800
C 	C 	0.49805 0.05448 0.61436 -0.03400
H 	H 	0.52560 0.04680 0.61440 0.04500
C 	C 	0.19888 0.85638 0.66662 -0.21500
H 	H 	0.22620 0.85820 0.67800 0.11300
H 	H 	0.18330 0.87550 0.67440 0.10200
H 	H 	0.21430 0.87210 0.65010 0.11200
C 	C 	0.06010 0.68870 0.65690 0.50600
C 	C 	0.99493 0.67340 0.66085 -0.02100
C 	C 	0.95662 0.63680 0.67684 -0.06400
H 	H 	0.96400 0.61520 0.68740 0.06200
C 	C 	0.90726 0.63158 0.67732 0.02300
H 	H 	0.88100 0.60650 0.68820 -0.00600
N 	N 	0.89629 0.66306 0.66182 -0.22700
C 	C 	0.93464 0.69971 0.64583 0.01800
H 	H 	0.92710 0.72120 0.63520 -0.00600
C 	C 	0.98397 0.70489 0.64535 -0.05400
H 	H 	0.01010 0.72990 0.63440 0.06200
C 	C 	0.06071 0.58958 0.55228 -0.14900
H 	H 	0.06430 0.56220 0.56100 0.09500
H 	H 	0.03080 0.57360 0.54060 0.08200
H 	H 	0.05520 0.61070 0.56500 0.08600
C 	C 	0.17385 0.70830 0.50495 0.30600
C 	C 	0.18486 0.70565 0.47472 -0.00000
C 	C 	0.17795 0.74756 0.46040 -0.11200
H 	H 	0.17070 0.77210 0.46830 0.08000
C 	C 	0.18372 0.74416 0.43515 0.09000
H 	H 	0.17500 0.76570 0.42530 -0.02100
C 	C 	0.21229 0.68347 0.43168 0.01000
H 	H 	0.22510 0.66550 0.42170 -0.00200
C 	C 	0.20507 0.67746 0.45977 -0.06100
H 	H 	0.21380 0.65460 0.46840 0.06100
C 	C 	0.23019 0.67870 0.37503 -0.25300
C 	C 	0.77060 0.57200 0.63471 -0.17400
Cu	Cu	0.86330 0.04462 0.71541 0.85700
O 	O 	0.05637 0.22653 0.89401 -0.14700
O 	O 	0.05292 0.26624 0.93875 -0.22800
O 	O 	0.13139 0.28087 0.94226 -0.26400
O 	O 	0.76967 0.95253 0.87266 -0.14400
O 	O 	0.85627 0.00443 0.84502 -0.25300
O 	O 	0.84227 0.07413 0.84872 -0.27300
O 	O 	0.82474 0.13423 0.99615 -0.12800
O 	O 	0.74637 0.04543 0.97693 -0.45200
O 	O 	0.72717 0.99073 0.00843 -0.28900
N 	N 	0.86527 0.05123 0.75494 -0.22500
N 	N 	0.93697 0.00703 0.70766 -0.20700
N 	N 	0.46437 0.93853 0.98005 -0.19900
C 	C 	0.98310 0.11753 0.95282 0.09600
C 	C 	0.00454 0.17035 0.95815 -0.17000
H 	H 	0.00237 0.18133 0.97493 0.10400
C 	C 	0.02903 0.20704 0.93887 0.12900
C 	C 	0.03209 0.19091 0.91427 0.08500
C 	C 	0.01064 0.13809 0.90894 -0.12200
H 	H 	0.01267 0.12703 0.89213 0.07700
C 	C 	0.98615 0.10140 0.92822 0.03900
C 	C 	0.96674 0.04553 0.92167 -0.17000
H 	H 	0.96647 0.02683 0.93743 0.06200
H 	H 	0.99157 0.04383 0.90953 0.07400
C 	C 	0.91203 0.01705 0.90982 0.02200
C 	C 	0.91011 0.02368 0.88335 -0.10700
H 	H 	0.94097 0.04123 0.87333 0.07700
C 	C 	0.85503 0.00092 0.87116 0.11700
C 	C 	0.81849 0.97611 0.88626 0.06900
C 	C 	0.81970 0.96757 0.91325 -0.11000
H 	H 	0.78907 0.94683 0.92303 0.08600
C 	C 	0.87283 0.99387 0.92451 0.07000
C 	C 	0.87014 0.98534 0.95303 -0.21300
H 	H 	0.90327 0.98863 0.95913 0.08100
H 	H 	0.84167 0.94973 0.95713 0.09700
C 	C 	0.86046 0.02497 0.96651 0.07700
C 	C 	0.81118 0.01641 0.96947 -0.19500
H 	H 	0.78277 0.98393 0.96403 0.11400
C 	C 	0.80105 0.05144 0.97963 0.16200
C 	C 	0.83763 0.09708 0.98724 0.06200
C 	C 	0.89146 0.11017 0.98477 -0.10200
H 	H 	0.91947 0.14373 0.98923 0.08000
C 	C 	0.90018 0.07033 0.97538 0.04000
C 	C 	0.95652 0.08745 0.97356 -0.21900
H 	H 	0.97387 0.10733 0.98923 0.08900
H 	H 	0.96007 0.05593 0.97343 0.07500
C 	C 	0.05732 0.21270 0.86815 -0.18300
H 	H 	0.07097 0.18863 0.86723 0.09700
H 	H 	0.07977 0.24413 0.85823 0.09600
H 	H 	0.02187 0.19573 0.86113 0.09300
C 	C 	0.10674 0.30109 0.93849 0.30500
C 	C 	0.11342 0.34781 0.94482 -0.06400
C 	C 	0.07307 0.35901 0.94478 -0.02900
H 	H 	0.03797 0.33163 0.94283 0.06600
C 	C 	0.08403 0.41021 0.94760 0.01600
H 	H 	0.05637 0.41783 0.94753 0.00600
N 	N 	0.13532 0.45020 0.95047 -0.19700
C 	C 	0.17568 0.43901 0.95051 0.01500
H 	H 	0.21077 0.46633 0.95243 0.00800
C 	C 	0.16472 0.38781 0.94769 -0.03600
H 	H 	0.19227 0.38013 0.94773 0.04800
C 	C 	0.86555 0.18971 0.99995 -0.21200
H 	H 	0.89287 0.19153 0.01133 0.11300
H 	H 	0.84997 0.20883 0.00773 0.10100
H 	H 	0.88097 0.20543 0.98343 0.11200
C 	C 	0.72677 0.02203 0.99023 0.50300
C 	C 	0.66160 0.00673 0.99418 -0.03600
C 	C 	0.62329 0.97013 0.01017 -0.05000
H 	H 	0.63067 0.94853 0.02073 0.05600
C 	C 	0.57393 0.96491 0.01065 0.01800
H 	H 	0.54767 0.93983 0.02153 -0.00300
N 	N 	0.56296 0.99639 0.99515 -0.22000
C 	C 	0.60131 0.03304 0.97916 0.01200
H 	H 	0.59377 0.05453 0.96853 -0.00700
C 	C 	0.65064 0.03822 0.97868 -0.06200
H 	H 	0.67677 0.06323 0.96773 0.06900
C 	C 	0.72738 0.92291 0.88561 -0.15400
H 	H 	0.73097 0.89553 0.89433 0.09700
H 	H 	0.69747 0.90693 0.87393 0.08700
H 	H 	0.72187 0.94403 0.89833 0.09000
C 	C 	0.84052 0.04163 0.83828 0.30300
C 	C 	0.85153 0.03898 0.80805 0.00200
C 	C 	0.84462 0.08089 0.79373 -0.11300
H 	H 	0.83737 0.10543 0.80163 0.08100
C 	C 	0.85039 0.07749 0.76848 0.09000
H 	H 	0.84167 0.09903 0.75863 -0.02100
C 	C 	0.87896 0.01680 0.76501 0.00100
H 	H 	0.89177 0.99883 0.75503 0.00800
C 	C 	0.87174 0.01079 0.79310 -0.07000
H 	H 	0.88047 0.98793 0.80173 0.07100
C 	C 	0.89686 0.01203 0.70836 -0.25600
C 	C 	0.43727 0.90533 0.96804 -0.17300
Cu	Cu	0.52996 0.37796 0.04875 0.85800
O 	O 	0.72303 0.55987 0.22735 -0.14600
O 	O 	0.71958 0.59958 0.27209 -0.22600
O 	O 	0.79805 0.61421 0.27560 -0.26300
O 	O 	0.43633 0.28587 0.20600 -0.14400
O 	O 	0.52293 0.33777 0.17836 -0.25500
O 	O 	0.50893 0.40747 0.18206 -0.27400
O 	O 	0.49140 0.46757 0.32949 -0.12800
O 	O 	0.41303 0.37877 0.31027 -0.45400
O 	O 	0.39383 0.32407 0.34177 -0.29700
N 	N 	0.53193 0.38457 0.08828 -0.22600
N 	N 	0.60363 0.34037 0.04100 -0.20800
N 	N 	0.13103 0.27187 0.31339 -0.20200
C 	C 	0.64976 0.45087 0.28616 0.08400
C 	C 	0.67120 0.50369 0.29149 -0.15700
H 	H 	0.66903 0.51467 0.30827 0.10200
C 	C 	0.69569 0.54038 0.27221 0.12700
C 	C 	0.69875 0.52425 0.24761 0.08500
C 	C 	0.67730 0.47143 0.24228 -0.11400
H 	H 	0.67933 0.46037 0.22547 0.07700
C 	C 	0.65281 0.43474 0.26156 0.03500
C 	C 	0.63340 0.37887 0.25501 -0.17600
H 	H 	0.63313 0.36017 0.27077 0.06500
H 	H 	0.65823 0.37717 0.24287 0.07400
C 	C 	0.57869 0.35039 0.24316 0.04100
C 	C 	0.57677 0.35702 0.21669 -0.11700
H 	H 	0.60763 0.37457 0.20667 0.08000
C 	C 	0.52169 0.33426 0.20450 0.13400
C 	C 	0.48515 0.30945 0.21960 0.05100
C 	C 	0.48636 0.30091 0.24659 -0.09900
H 	H 	0.45573 0.28017 0.25637 0.08200
C 	C 	0.53949 0.32721 0.25785 0.05200
C 	C 	0.53680 0.31868 0.28637 -0.20900
H 	H 	0.56993 0.32197 0.29247 0.07700
H 	H 	0.50833 0.28307 0.29047 0.09500
C 	C 	0.52712 0.35831 0.29985 0.07800
C 	C 	0.47784 0.34975 0.30281 -0.17900
H 	H 	0.44943 0.31727 0.29737 0.10500
C 	C 	0.46771 0.38478 0.31297 0.15800
C 	C 	0.50429 0.43042 0.32058 0.06400
C 	C 	0.55812 0.44351 0.31811 -0.10200
H 	H 	0.58613 0.47707 0.32257 0.07900
C 	C 	0.56684 0.40367 0.30872 0.03900
C 	C 	0.62318 0.42079 0.30690 -0.21100
H 	H 	0.64053 0.44067 0.32257 0.08400
H 	H 	0.62673 0.38927 0.30677 0.07300
C 	C 	0.72398 0.54604 0.20149 -0.18600
H 	H 	0.73763 0.52197 0.20057 0.09800
H 	H 	0.74643 0.57747 0.19157 0.09800
H 	H 	0.68853 0.52907 0.19447 0.09600
C 	C 	0.77340 0.63443 0.27183 0.30500
C 	C 	0.78008 0.68115 0.27816 -0.06300
C 	C 	0.73973 0.69235 0.27812 -0.02900
H 	H 	0.70463 0.66497 0.27617 0.06800
C 	C 	0.75069 0.74355 0.28094 0.01600
H 	H 	0.72303 0.75117 0.28087 0.00700
N 	N 	0.80198 0.78354 0.28381 -0.19700
C 	C 	0.84234 0.77235 0.28385 0.01600
H 	H 	0.87743 0.79967 0.28577 0.00900
C 	C 	0.83138 0.72115 0.28103 -0.03600
H 	H 	0.85893 0.71347 0.28107 0.04900
C 	C 	0.53221 0.52305 0.33329 -0.21400
H 	H 	0.55953 0.52487 0.34467 0.11300
H 	H 	0.51663 0.54217 0.34107 0.10200
H 	H 	0.54763 0.53877 0.31677 0.11200
C 	C 	0.39343 0.35537 0.32357 0.51000
C 	C 	0.32826 0.34007 0.32752 -0.02300
C 	C 	0.28995 0.30347 0.34351 -0.06500
H 	H 	0.29733 0.28187 0.35407 0.05900
C 	C 	0.24059 0.29825 0.34399 0.02300
H 	H 	0.21433 0.27317 0.35487 -0.00700
N 	N 	0.22962 0.32973 0.32849 -0.22800
C 	C 	0.26797 0.36638 0.31250 0.02400
H 	H 	0.26043 0.38787 0.30187 -0.01000
C 	C 	0.31730 0.37156 0.31202 -0.07000
H 	H 	0.34343 0.39657 0.30107 0.07200
C 	C 	0.39404 0.25625 0.21895 -0.15300
H 	H 	0.39763 0.22887 0.22767 0.09600
H 	H 	0.36413 0.24027 0.20727 0.08500
H 	H 	0.38853 0.27737 0.23167 0.08800
C 	C 	0.50718 0.37497 0.17162 0.30600
C 	C 	0.51819 0.37232 0.14139 0.00000
C 	C 	0.51128 0.41423 0.12707 -0.11200
H 	H 	0.50403 0.43877 0.13497 0.08000
C 	C 	0.51705 0.41083 0.10182 0.09000
H 	H 	0.50833 0.43237 0.09197 -0.02100
C 	C 	0.54562 0.35014 0.09835 0.01000
H 	H 	0.55843 0.33217 0.08837 -0.00200
C 	C 	0.53840 0.34413 0.12644 -0.06100
H 	H 	0.54713 0.32127 0.13507 0.06200
C 	C 	0.56352 0.34537 0.04170 -0.25300
C 	C 	0.10393 0.23867 0.30138 -0.17600
Cu	Cu	0.71129 0.51466 0.61792 0.85800
O 	O 	0.89320 0.50350 0.43932 -0.14400
O 	O 	0.93291 0.54666 0.39458 -0.22700
O 	O 	0.94754 0.48282 0.39107 -0.26500
O 	O 	0.61920 0.51620 0.46067 -0.14400
O 	O 	0.67110 0.48150 0.48831 -0.25500
O 	O 	0.74080 0.56520 0.48461 -0.27300
O 	O 	0.80090 0.64283 0.33718 -0.12700
O 	O 	0.71210 0.63240 0.35640 -0.45300
O 	O 	0.65740 0.59690 0.32490 -0.29700
N 	N 	0.71790 0.51930 0.57839 -0.22600
N 	N 	0.67370 0.40340 0.62567 -0.20800
N 	N 	0.60520 0.80750 0.35328 -0.20200
C 	C 	0.78420 0.46777 0.38051 0.08400
C 	C 	0.83702 0.49915 0.37518 -0.15700
H 	H 	0.84800 0.51230 0.35840 0.10200
C 	C 	0.87371 0.51135 0.39446 0.12700
C 	C 	0.85758 0.49216 0.41906 0.08400
C 	C 	0.80476 0.46079 0.42439 -0.11300
H 	H 	0.79370 0.44770 0.44120 0.07700
C 	C 	0.76807 0.44859 0.40511 0.03500
C 	C 	0.71220 0.41213 0.41166 -0.17600
H 	H 	0.69350 0.39370 0.39590 0.06500
H 	H 	0.71050 0.38560 0.42380 0.07400
C 	C 	0.68372 0.43836 0.42351 0.04100
C 	C 	0.69035 0.44691 0.44998 -0.11700
H 	H 	0.70790 0.43360 0.46000 0.08000
C 	C 	0.66759 0.47923 0.46217 0.13400
C 	C 	0.64278 0.49096 0.44707 0.05100
C 	C 	0.63424 0.48121 0.42008 -0.09900
H 	H 	0.61350 0.49110 0.41030 0.08200
C 	C 	0.66054 0.45438 0.40882 0.05200
C 	C 	0.65201 0.44854 0.38030 -0.20900
H 	H 	0.65530 0.41870 0.37420 0.07700
H 	H 	0.61640 0.44140 0.37620 0.09500
C 	C 	0.69164 0.49785 0.36682 0.07800
C 	C 	0.68308 0.53857 0.36386 -0.17900
H 	H 	0.65060 0.53450 0.36930 0.10500
C 	C 	0.71811 0.58373 0.35370 0.15800
C 	C 	0.76375 0.59279 0.34609 0.06400
C 	C 	0.77684 0.55205 0.34856 -0.10200
H 	H 	0.81040 0.55760 0.34410 0.07900
C 	C 	0.73700 0.50349 0.35795 0.03900
C 	C 	0.75412 0.46427 0.35977 -0.21100
H 	H 	0.77400 0.46680 0.34410 0.08400
H 	H 	0.72260 0.42920 0.35990 0.07300
C 	C 	0.87937 0.48872 0.46518 -0.18800
H 	H 	0.85530 0.45100 0.46610 0.09900
H 	H 	0.91080 0.49770 0.47510 0.10000
H 	H 	0.86240 0.50720 0.47220 0.09700
C 	C 	0.96776 0.52769 0.39484 0.31400
C 	C 	0.01448 0.56773 0.38851 -0.07000
C 	C 	0.02568 0.61928 0.38855 -0.04200
H 	H 	0.99830 0.62700 0.39050 0.07800
C 	C 	0.07688 0.65952 0.38573 0.02100
H 	H 	0.08450 0.69480 0.38580 0.00500
N 	N 	0.11687 0.64822 0.38286 -0.19800
C 	C 	0.10568 0.59667 0.38282 0.01400
H 	H 	0.13300 0.58890 0.38090 0.00800
C 	C 	0.05448 0.55643 0.38564 -0.03400
H 	H 	0.04680 0.52120 0.38560 0.04500
C 	C 	0.85638 0.65750 0.33338 -0.21600
H 	H 	0.85820 0.63200 0.32200 0.11400
H 	H 	0.87550 0.69220 0.32560 0.10300
H 	H 	0.87210 0.65780 0.34990 0.11300
C 	C 	0.68870 0.62860 0.34310 0.51000
C 	C 	0.67340 0.67847 0.33915 -0.02300
C 	C 	0.63680 0.68018 0.32316 -0.06500
H 	H 	0.61520 0.65120 0.31260 0.06000
C 	C 	0.63158 0.72432 0.32268 0.02300
H 	H 	0.60650 0.72550 0.31180 -0.00600
N 	N 	0.66306 0.76677 0.33818 -0.22800
C 	C 	0.69971 0.76507 0.35417 0.02400
H 	H 	0.72120 0.79410 0.36480 -0.00900
C 	C 	0.70489 0.72092 0.35465 -0.07000
H 	H 	0.72990 0.71980 0.36560 0.07200
C 	C 	0.58958 0.52887 0.44772 -0.15400
H 	H 	0.56220 0.49790 0.43900 0.09700
H 	H 	0.57360 0.54280 0.45940 0.08600
H 	H 	0.61070 0.55550 0.43500 0.08900
C 	C 	0.70830 0.53445 0.49505 0.30600
C 	C 	0.70565 0.52079 0.52528 0.00000
C 	C 	0.74756 0.56961 0.53960 -0.11200
H 	H 	0.77210 0.60140 0.53170 0.08100
C 	C 	0.74416 0.56044 0.56485 0.09000
H 	H 	0.76570 0.59070 0.57470 -0.02100
C 	C 	0.68347 0.47118 0.56832 0.01100
H 	H 	0.66550 0.44040 0.57830 -0.00200
C 	C 	0.67746 0.47239 0.54023 -0.06100
H 	H 	0.65460 0.44080 0.53160 0.06200
C 	C 	0.67870 0.44851 0.62497 -0.25300
C 	C 	0.57200 0.80140 0.36529 -0.17400
Cu	Cu	0.37796 0.84799 0.95125 0.85800
O 	O 	0.55987 0.83683 0.77265 -0.14500
O 	O 	0.59958 0.87999 0.72791 -0.22600
O 	O 	0.61421 0.81615 0.72440 -0.26300
O 	O 	0.28587 0.84953 0.79400 -0.14300
O 	O 	0.33777 0.81483 0.82164 -0.25500
O 	O 	0.40747 0.89853 0.81794 -0.27300
O 	O 	0.46757 0.97616 0.67051 -0.12900
O 	O 	0.37877 0.96573 0.68973 -0.45300
O 	O 	0.32407 0.93023 0.65823 -0.29700
N 	N 	0.38457 0.85263 0.91172 -0.22600
N 	N 	0.34037 0.73673 0.95900 -0.20800
N 	N 	0.27187 0.14083 0.68661 -0.20200
C 	C 	0.45087 0.80110 0.71384 0.08400
C 	C 	0.50369 0.83248 0.70851 -0.15600
H 	H 	0.51467 0.84563 0.69173 0.10200
C 	C 	0.54038 0.84468 0.72779 0.12700
C 	C 	0.52425 0.82549 0.75239 0.08500
C 	C 	0.47143 0.79412 0.75772 -0.11400
H 	H 	0.46037 0.78103 0.77453 0.07700
C 	C 	0.43474 0.78192 0.73844 0.03500
C 	C 	0.37887 0.74546 0.74499 -0.17600
H 	H 	0.36017 0.72703 0.72923 0.06500
H 	H 	0.37717 0.71893 0.75713 0.07400
C 	C 	0.35039 0.77169 0.75684 0.04100
C 	C 	0.35702 0.78024 0.78331 -0.11700
H 	H 	0.37457 0.76693 0.79333 0.08000
C 	C 	0.33426 0.81256 0.79550 0.13500
C 	C 	0.30945 0.82429 0.78040 0.05100
C 	C 	0.30091 0.81454 0.75341 -0.09800
H 	H 	0.28017 0.82443 0.74363 0.08200
C 	C 	0.32721 0.78771 0.74215 0.05100
C 	C 	0.31868 0.78187 0.71363 -0.20900
H 	H 	0.32197 0.75203 0.70753 0.07700
H 	H 	0.28307 0.77473 0.70953 0.09500
C 	C 	0.35831 0.83118 0.70015 0.07700
C 	C 	0.34975 0.87190 0.69719 -0.17900
H 	H 	0.31727 0.86783 0.70263 0.10500
C 	C 	0.38478 0.91706 0.68703 0.15700
C 	C 	0.43042 0.92612 0.67942 0.06600
C 	C 	0.44351 0.88538 0.68189 -0.10300
H 	H 	0.47707 0.89093 0.67743 0.08000
C 	C 	0.40367 0.83682 0.69128 0.03900
C 	C 	0.42079 0.79760 0.69310 -0.21100
H 	H 	0.44067 0.80013 0.67743 0.08500
H 	H 	0.38927 0.76253 0.69323 0.07300
C 	C 	0.54604 0.82205 0.79851 -0.18700
H 	H 	0.52197 0.78433 0.79943 0.09900
H 	H 	0.57747 0.83103 0.80843 0.09900
H 	H 	0.52907 0.84053 0.80553 0.09600
C 	C 	0.63443 0.86102 0.72817 0.30300
C 	C 	0.68115 0.90106 0.72184 -0.05700
C 	C 	0.69235 0.95261 0.72188 -0.03900
H 	H 	0.66497 0.96033 0.72383 0.07300
C 	C 	0.74355 0.99285 0.71906 0.03400
H 	H 	0.75117 0.02813 0.71913 -0.00400
N 	N 	0.78354 0.98155 0.71619 -0.19700
C 	C 	0.77235 0.93000 0.71615 0.01800
H 	H 	0.79967 0.92223 0.71423 0.00900
C 	C 	0.72115 0.88976 0.71897 -0.04000
H 	H 	0.71347 0.85453 0.71893 0.04900
C 	C 	0.52305 0.99083 0.66671 -0.18900
H 	H 	0.52487 0.96533 0.65533 0.10700
H 	H 	0.54217 0.02553 0.65893 0.08900
H 	H 	0.53877 0.99113 0.68323 0.10700
C 	C 	0.35537 0.96193 0.67643 0.51500
C 	C 	0.34007 0.01180 0.67248 -0.02400
C 	C 	0.30347 0.01351 0.65649 -0.08200
H 	H 	0.28187 0.98453 0.64593 0.07100
C 	C 	0.29825 0.05765 0.65601 0.02900
H 	H 	0.27317 0.05883 0.64513 -0.01100
N 	N 	0.32973 0.10010 0.67151 -0.22900
C 	C 	0.36638 0.09840 0.68750 0.02400
H 	H 	0.38787 0.12743 0.69813 -0.01000
C 	C 	0.37156 0.05425 0.68798 -0.07200
H 	H 	0.39657 0.05313 0.69893 0.07000
C 	C 	0.25625 0.86220 0.78105 -0.15500
H 	H 	0.22887 0.83123 0.77233 0.09700
H 	H 	0.24027 0.87613 0.79273 0.08700
H 	H 	0.27737 0.88883 0.76833 0.09000
C 	C 	0.37497 0.86778 0.82838 0.30600
C 	C 	0.37232 0.85412 0.85861 0.00100
C 	C 	0.41423 0.90294 0.87293 -0.11200
H 	H 	0.43877 0.93473 0.86503 0.08100
C 	C 	0.41083 0.89377 0.89818 0.09000
H 	H 	0.43237 0.92403 0.90803 -0.02000
C 	C 	0.35014 0.80451 0.90165 0.01100
H 	H 	0.33217 0.77373 0.91163 -0.00200
C 	C 	0.34413 0.80572 0.87356 -0.06100
H 	H 	0.32127 0.77413 0.86493 0.06200
C 	C 	0.34537 0.78184 0.95830 -0.25300
C 	C 	0.23867 0.13473 0.69862 -0.17600
Cu	Cu	0.04462 0.18133 0.28459 0.85600
O 	O 	0.22653 0.17017 0.10599 -0.14600
O 	O 	0.26624 0.21333 0.06125 -0.22700
O 	O 	0.28087 0.14949 0.05774 -0.26400
O 	O 	0.95253 0.18287 0.12734 -0.14500
O 	O 	0.00443 0.14817 0.15498 -0.25400
O 	O 	0.07413 0.23187 0.15128 -0.27500
O 	O 	0.13423 0.30950 0.00385 -0.12700
O 	O 	0.04543 0.29907 0.02307 -0.45200
O 	O 	0.99073 0.26357 0.99157 -0.28700
N 	N 	0.05123 0.18597 0.24506 -0.22500
N 	N 	0.00703 0.07007 0.29234 -0.21100
N 	N 	0.93853 0.47417 0.01995 -0.20000
C 	C 	0.11753 0.13444 0.04718 0.08600
C 	C 	0.17035 0.16582 0.04185 -0.15800
H 	H 	0.18133 0.17897 0.02507 0.10300
C 	C 	0.20704 0.17802 0.06113 0.12800
C 	C 	0.19091 0.15883 0.08573 0.08300
C 	C 	0.13809 0.12746 0.09106 -0.11000
H 	H 	0.12703 0.11437 0.10787 0.07500
C 	C 	0.10140 0.11526 0.07178 0.02900
C 	C 	0.04553 0.07880 0.07833 -0.16100
H 	H 	0.02683 0.06037 0.06257 0.05600
H 	H 	0.04383 0.05227 0.09047 0.06600
C 	C 	0.01705 0.10503 0.09018 0.01500
C 	C 	0.02368 0.11358 0.11665 -0.10400
H 	H 	0.04123 0.10027 0.12667 0.07300
C 	C 	0.00092 0.14590 0.12884 0.11400
C 	C 	0.97611 0.15763 0.11374 0.07100
C 	C 	0.96757 0.14788 0.08675 -0.11200
H 	H 	0.94683 0.15777 0.07697 0.08700
C 	C 	0.99387 0.12105 0.07549 0.07400
C 	C 	0.98534 0.11521 0.04697 -0.21500
H 	H 	0.98863 0.08537 0.04087 0.08100
H 	H 	0.94973 0.10807 0.04287 0.09700
C 	C 	0.02497 0.16452 0.03349 0.07900
C 	C 	0.01641 0.20524 0.03053 -0.19800
H 	H 	0.98393 0.20117 0.03597 0.11600
C 	C 	0.05144 0.25040 0.02037 0.16300
C 	C 	0.09708 0.25946 0.01276 0.06000
C 	C 	0.11017 0.21872 0.01523 -0.09900
H 	H 	0.14373 0.22427 0.01077 0.07800
C 	C 	0.07033 0.17016 0.02462 0.03500
C 	C 	0.08745 0.13094 0.02644 -0.21000
H 	H 	0.10733 0.13347 0.01077 0.08300
H 	H 	0.05593 0.09587 0.02657 0.07000
C 	C 	0.21270 0.15539 0.13185 -0.18500
H 	H 	0.18863 0.11767 0.13277 0.09700
H 	H 	0.24413 0.16437 0.14177 0.09700
H 	H 	0.19573 0.17387 0.13887 0.09500
C 	C 	0.30109 0.19436 0.06151 0.30500
C 	C 	0.34781 0.23440 0.05518 -0.06300
C 	C 	0.35901 0.28595 0.05522 -0.02900
H 	H 	0.33163 0.29367 0.05717 0.06800
C 	C 	0.41021 0.32619 0.05240 0.01600
H 	H 	0.41783 0.36147 0.05247 0.00700
N 	N 	0.45020 0.31489 0.04953 -0.19700
C 	C 	0.43901 0.26334 0.04949 0.01500
H 	H 	0.46633 0.25557 0.04757 0.00800
C 	C 	0.38781 0.22310 0.05231 -0.03600
H 	H 	0.38013 0.18787 0.05227 0.04700
C 	C 	0.18971 0.32417 0.00005 -0.21700
H 	H 	0.19153 0.29867 0.98867 0.11400
H 	H 	0.20883 0.35887 0.99227 0.10300
H 	H 	0.20543 0.32447 0.01657 0.11300
C 	C 	0.02203 0.29527 0.00977 0.50100
C 	C 	0.00673 0.34514 0.00582 -0.03700
C 	C 	0.97013 0.34685 0.98983 -0.04800
H 	H 	0.94853 0.31787 0.97927 0.05600
C 	C 	0.96491 0.39099 0.98935 0.01800
H 	H 	0.93983 0.39217 0.97847 -0.00300
N 	N 	0.99639 0.43344 0.00485 -0.22000
C 	C 	0.03304 0.43174 0.02084 0.01100
H 	H 	0.05453 0.46077 0.03147 -0.00700
C 	C 	0.03822 0.38759 0.02132 -0.06100
H 	H 	0.06323 0.38647 0.03227 0.06800
C 	C 	0.92291 0.19554 0.11439 -0.15300
H 	H 	0.89553 0.16457 0.10567 0.09700
H 	H 	0.90693 0.20947 0.12607 0.08700
H 	H 	0.94403 0.22217 0.10167 0.08900
C 	C 	0.04163 0.20112 0.16172 0.30300
C 	C 	0.03898 0.18746 0.19195 0.00100
C 	C 	0.08089 0.23628 0.20627 -0.11300
H 	H 	0.10543 0.26807 0.19837 0.08000
C 	C 	0.07749 0.22711 0.23152 0.08900
H 	H 	0.09903 0.25737 0.24137 -0.02200
C 	C 	0.01680 0.13785 0.23499 -0.00100
H 	H 	0.99883 0.10707 0.24497 0.00700
C 	C 	0.01079 0.13906 0.20690 -0.07200
H 	H 	0.98793 0.10747 0.19827 0.07000
C 	C 	0.01203 0.11518 0.29164 -0.25900
C 	C 	0.90533 0.46807 0.03196 -0.17300
Cu	Cu	0.48534 0.19663 0.61792 0.85800
O 	O 	0.49650 0.38970 0.43932 -0.14600
O 	O 	0.45334 0.38625 0.39458 -0.22700
O 	O 	0.51718 0.46472 0.39107 -0.26400
O 	O 	0.48380 0.10300 0.46067 -0.14600
O 	O 	0.51850 0.18960 0.48831 -0.25500
O 	O 	0.43480 0.17560 0.48461 -0.27500
O 	O 	0.35717 0.15807 0.33718 -0.12900
O 	O 	0.36760 0.07970 0.35640 -0.45300
O 	O 	0.40310 0.06050 0.32490 -0.29900
N 	N 	0.48070 0.19860 0.57839 -0.22600
N 	N 	0.59660 0.27030 0.62567 -0.20800
N 	N 	0.19250 0.79770 0.35328 -0.20200
C 	C 	0.53223 0.31643 0.38051 0.08400
C 	C 	0.50085 0.33787 0.37518 -0.15700
H 	H 	0.48770 0.33570 0.35840 0.10200
C 	C 	0.48865 0.36236 0.39446 0.12700
C 	C 	0.50784 0.36542 0.41906 0.08500
C 	C 	0.53921 0.34397 0.42439 -0.11400
H 	H 	0.55230 0.34600 0.44120 0.07700
C 	C 	0.55141 0.31948 0.40511 0.03500
C 	C 	0.58787 0.30007 0.41166 -0.17600
H 	H 	0.60630 0.29980 0.39590 0.06500
H 	H 	0.61440 0.32490 0.42380 0.07400
C 	C 	0.56164 0.24536 0.42351 0.04100
C 	C 	0.55309 0.24344 0.44998 -0.11700
H 	H 	0.56640 0.27430 0.46000 0.08000
C 	C 	0.52077 0.18836 0.46217 0.13400
C 	C 	0.50904 0.15182 0.44707 0.05100
C 	C 	0.51879 0.15303 0.42008 -0.09900
H 	H 	0.50890 0.12240 0.41030 0.08100
C 	C 	0.54562 0.20616 0.40882 0.05100
C 	C 	0.55146 0.20347 0.38030 -0.20900
H 	H 	0.58130 0.23660 0.37420 0.07700
H 	H 	0.55860 0.17500 0.37620 0.09500
C 	C 	0.50215 0.19379 0.36682 0.07700
C 	C 	0.46143 0.14451 0.36386 -0.17900
H 	H 	0.46550 0.11610 0.36930 0.10400
C 	C 	0.41627 0.13438 0.35370 0.15700
C 	C 	0.40721 0.17096 0.34609 0.06400
C 	C 	0.44795 0.22479 0.34856 -0.10200
H 	H 	0.44240 0.25280 0.34410 0.07900
C 	C 	0.49651 0.23351 0.35795 0.03900
C 	C 	0.53573 0.28985 0.35977 -0.21100
H 	H 	0.53320 0.30720 0.34410 0.08500
H 	H 	0.57080 0.29340 0.35990 0.07300
C 	C 	0.51128 0.39065 0.46518 -0.18600
H 	H 	0.54900 0.40430 0.46610 0.09800
H 	H 	0.50230 0.41310 0.47510 0.09800
H 	H 	0.49280 0.35520 0.47220 0.09500
C 	C 	0.47231 0.44007 0.39484 0.30500
C 	C 	0.43227 0.44675 0.38851 -0.06300
C 	C 	0.38072 0.40640 0.38855 -0.03000
H 	H 	0.37300 0.37130 0.39050 0.06800
C 	C 	0.34048 0.41736 0.38573 0.01600
H 	H 	0.30520 0.38970 0.38580 0.00700
N 	N 	0.35178 0.46865 0.38286 -0.19700
C 	C 	0.40333 0.50901 0.38282 0.01500
H 	H 	0.41110 0.54410 0.38090 0.00800
C 	C 	0.44357 0.49805 0.38564 -0.03600
H 	H 	0.47880 0.52560 0.38560 0.04800
C 	C 	0.34250 0.19888 0.33338 -0.21300
H 	H 	0.36800 0.22620 0.32200 0.11300
H 	H 	0.30780 0.18330 0.32560 0.10100
H 	H 	0.34220 0.21430 0.34990 0.11100
C 	C 	0.37140 0.06010 0.34310 0.50600
C 	C 	0.32153 0.99493 0.33915 -0.02100
C 	C 	0.31982 0.95662 0.32316 -0.06400
H 	H 	0.34880 0.96400 0.31260 0.06200
C 	C 	0.27568 0.90726 0.32268 0.02300
H 	H 	0.27450 0.88100 0.31180 -0.00600
N 	N 	0.23323 0.89629 0.33818 -0.22700
C 	C 	0.23493 0.93464 0.35417 0.01800
H 	H 	0.20590 0.92710 0.36480 -0.00600
C 	C 	0.27908 0.98397 0.35465 -0.05400
H 	H 	0.28020 0.01010 0.36560 0.06100
C 	C 	0.47113 0.06071 0.44772 -0.14800
H 	H 	0.50210 0.06430 0.43900 0.09400
H 	H 	0.45720 0.03080 0.45940 0.08200
H 	H 	0.44450 0.05520 0.43500 0.08500
C 	C 	0.46555 0.17385 0.49505 0.30600
C 	C 	0.47921 0.18486 0.52528 -0.00000
C 	C 	0.43039 0.17795 0.53960 -0.11300
H 	H 	0.39860 0.17070 0.53170 0.07900
C 	C 	0.43956 0.18372 0.56485 0.08900
H 	H 	0.40930 0.17500 0.57470 -0.02200
C 	C 	0.52882 0.21229 0.56832 0.01000
H 	H 	0.55960 0.22510 0.57830 -0.00200
C 	C 	0.52761 0.20507 0.54023 -0.06100
H 	H 	0.55920 0.21380 0.53160 0.06100
C 	C 	0.55149 0.23019 0.62497 -0.25400
C 	C 	0.19860 0.77060 0.36529 -0.17400
Cu	Cu	0.15201 0.52996 0.95125 0.85800
O 	O 	0.16317 0.72303 0.77265 -0.14600
O 	O 	0.12001 0.71958 0.72791 -0.22700
O 	O 	0.18385 0.79805 0.72440 -0.26400
O 	O 	0.15047 0.43633 0.79400 -0.14500
O 	O 	0.18517 0.52293 0.82164 -0.25500
O 	O 	0.10147 0.50893 0.81794 -0.27600
O 	O 	0.02384 0.49140 0.67051 -0.12600
O 	O 	0.03427 0.41303 0.68973 -0.45500
O 	O 	0.06977 0.39383 0.65823 -0.29800
N 	N 	0.14737 0.53193 0.91172 -0.22600
N 	N 	0.26327 0.60363 0.95900 -0.20800
N 	N 	0.85917 0.13103 0.68661 -0.20200
C 	C 	0.19890 0.64976 0.71384 0.08400
C 	C 	0.16752 0.67120 0.70851 -0.15700
H 	H 	0.15437 0.66903 0.69173 0.10200
C 	C 	0.15532 0.69569 0.72779 0.12700
C 	C 	0.17451 0.69875 0.75239 0.08500
C 	C 	0.20588 0.67730 0.75772 -0.11400
H 	H 	0.21897 0.67933 0.77453 0.07700
C 	C 	0.21808 0.65281 0.73844 0.03500
C 	C 	0.25454 0.63340 0.74499 -0.17600
H 	H 	0.27297 0.63313 0.72923 0.06500
H 	H 	0.28107 0.65823 0.75713 0.07400
C 	C 	0.22831 0.57869 0.75684 0.04100
C 	C 	0.21976 0.57677 0.78331 -0.11800
H 	H 	0.23307 0.60763 0.79333 0.08000
C 	C 	0.18744 0.52169 0.79550 0.13400
C 	C 	0.17571 0.48515 0.78040 0.05100
C 	C 	0.18546 0.48636 0.75341 -0.09900
H 	H 	0.17557 0.45573 0.74363 0.08200
C 	C 	0.21229 0.53949 0.74215 0.05200
C 	C 	0.21813 0.53680 0.71363 -0.20900
H 	H 	0.24797 0.56993 0.70753 0.07700
H 	H 	0.22527 0.50833 0.70953 0.09600
C 	C 	0.16882 0.52712 0.70015 0.07800
C 	C 	0.12810 0.47784 0.69719 -0.18000
H 	H 	0.13217 0.44943 0.70263 0.10500
C 	C 	0.08294 0.46771 0.68703 0.15800
C 	C 	0.07388 0.50429 0.67942 0.06200
C 	C 	0.11462 0.55812 0.68189 -0.10100
H 	H 	0.10907 0.58613 0.67743 0.07900
C 	C 	0.16318 0.56684 0.69128 0.03800
C 	C 	0.20240 0.62318 0.69310 -0.21100
H 	H 	0.19987 0.64053 0.67743 0.08400
H 	H 	0.23747 0.62673 0.69323 0.07300
C 	C 	0.17795 0.72398 0.79851 -0.18500
H 	H 	0.21567 0.73763 0.79943 0.09800
H 	H 	0.16897 0.74643 0.80843 0.09700
H 	H 	0.15947 0.68853 0.80553 0.09500
C 	C 	0.13898 0.77340 0.72817 0.30700
C 	C 	0.09894 0.78008 0.72184 -0.06800
C 	C 	0.04739 0.73973 0.72188 -0.02100
H 	H 	0.03967 0.70463 0.72383 0.06300
C 	C 	0.00715 0.75069 0.71906 -0.00200
H 	H 	0.97187 0.72303 0.71913 0.01800
N 	N 	0.01845 0.80198 0.71619 -0.19700
C 	C 	0.07000 0.84234 0.71615 0.01300
H 	H 	0.07777 0.87743 0.71423 0.00900
C 	C 	0.11024 0.83138 0.71897 -0.03300
H 	H 	0.14547 0.85893 0.71893 0.04700
C 	C 	0.00917 0.53221 0.66671 -0.23800
H 	H 	0.03467 0.55953 0.65533 0.11800
H 	H 	0.97447 0.51663 0.65893 0.11400
H 	H 	0.00887 0.54763 0.68323 0.11700
C 	C 	0.03807 0.39343 0.67643 0.50600
C 	C 	0.98820 0.32826 0.67248 -0.02100
C 	C 	0.98649 0.28995 0.65649 -0.04900
H 	H 	0.01547 0.29733 0.64593 0.04900
C 	C 	0.94235 0.24059 0.65601 0.01600
H 	H 	0.94117 0.21433 0.64513 -0.00300
N 	N 	0.89990 0.22962 0.67151 -0.22700
C 	C 	0.90160 0.26797 0.68750 0.02400
H 	H 	0.87257 0.26043 0.69813 -0.00900
C 	C 	0.94575 0.31730 0.68798 -0.06900
H 	H 	0.94687 0.34343 0.69893 0.07400
C 	C 	0.13780 0.39404 0.78105 -0.15100
H 	H 	0.16877 0.39763 0.77233 0.09600
H 	H 	0.12387 0.36413 0.79273 0.08400
H 	H 	0.11117 0.38853 0.76833 0.08700
C 	C 	0.13222 0.50718 0.82838 0.30600
C 	C 	0.14588 0.51819 0.85861 -0.00000
C 	C 	0.09706 0.51128 0.87293 -0.11300
H 	H 	0.06527 0.50403 0.86503 0.07900
C 	C 	0.10623 0.51705 0.89818 0.09000
H 	H 	0.07597 0.50833 0.90803 -0.02200
C 	C 	0.19549 0.54562 0.90165 0.01000
H 	H 	0.22627 0.55843 0.91163 -0.00200
C 	C 	0.19428 0.53840 0.87356 -0.06100
H 	H 	0.22587 0.54713 0.86493 0.06200
C 	C 	0.21816 0.56352 0.95830 -0.25300
C 	C 	0.86527 0.10393 0.69862 -0.17400
Cu	Cu	0.81867 0.86330 0.28459 0.85800
O 	O 	0.82983 0.05637 0.10599 -0.14700
O 	O 	0.78667 0.05292 0.06125 -0.22800
O 	O 	0.85051 0.13139 0.05774 -0.26400
O 	O 	0.81713 0.76967 0.12734 -0.14300
O 	O 	0.85183 0.85627 0.15498 -0.25400
O 	O 	0.76813 0.84227 0.15128 -0.27300
O 	O 	0.69050 0.82474 0.00385 -0.12700
O 	O 	0.70093 0.74637 0.02307 -0.45300
O 	O 	0.73643 0.72717 0.99157 -0.29700
N 	N 	0.81403 0.86527 0.24506 -0.22600
N 	N 	0.92993 0.93697 0.29234 -0.20300
N 	N 	0.52583 0.46437 0.01995 -0.20200
C 	C 	0.86556 0.98310 0.04718 0.09300
C 	C 	0.83418 0.00454 0.04185 -0.16800
H 	H 	0.82103 0.00237 0.02507 0.10300
C 	C 	0.82198 0.02903 0.06113 0.12700
C 	C 	0.84117 0.03209 0.08573 0.08600
C 	C 	0.87254 0.01064 0.09106 -0.12500
H 	H 	0.88563 0.01267 0.10787 0.07900
C 	C 	0.88474 0.98615 0.07178 0.04500
C 	C 	0.92120 0.96674 0.07833 -0.18400
H 	H 	0.93963 0.96647 0.06257 0.07000
H 	H 	0.94773 0.99157 0.09047 0.08200
C 	C 	0.89497 0.91203 0.09018 0.04600
C 	C 	0.88642 0.91011 0.11665 -0.11900
H 	H 	0.89973 0.94097 0.12667 0.08300
C 	C 	0.85410 0.85503 0.12884 0.13600
C 	C 	0.84237 0.81849 0.11374 0.05000
C 	C 	0.85212 0.81970 0.08675 -0.09700
H 	H 	0.84223 0.78907 0.07697 0.08100
C 	C 	0.87895 0.87283 0.07549 0.04900
C 	C 	0.88479 0.87014 0.04697 -0.20800
H 	H 	0.91463 0.90327 0.04087 0.07800
H 	H 	0.89193 0.84167 0.04287 0.09600
C 	C 	0.83548 0.86046 0.03349 0.07500
C 	C 	0.79476 0.81118 0.03053 -0.17800
H 	H 	0.79883 0.78277 0.03597 0.10400
C 	C 	0.74960 0.80105 0.02037 0.15700
C 	C 	0.74054 0.83763 0.01276 0.06500
C 	C 	0.78128 0.89146 0.01523 -0.10400
H 	H 	0.77573 0.91947 0.01077 0.08100
C 	C 	0.82984 0.90018 0.02462 0.04300
C 	C 	0.86906 0.95652 0.02644 -0.21900
H 	H 	0.86653 0.97387 0.01077 0.08900
H 	H 	0.90413 0.96007 0.02657 0.07700
C 	C 	0.84461 0.05732 0.13185 -0.18500
H 	H 	0.88233 0.07097 0.13277 0.09800
H 	H 	0.83563 0.07977 0.14177 0.09700
H 	H 	0.82613 0.02187 0.13887 0.09400
C 	C 	0.80564 0.10674 0.06151 0.30500
C 	C 	0.76560 0.11342 0.05518 -0.06300
C 	C 	0.71405 0.07307 0.05522 -0.02900
H 	H 	0.70633 0.03797 0.05717 0.06600
C 	C 	0.67381 0.08403 0.05240 0.01600
H 	H 	0.63853 0.05637 0.05247 0.00600
N 	N 	0.68511 0.13532 0.04953 -0.19700
C 	C 	0.73666 0.17568 0.04949 0.01500
H 	H 	0.74443 0.21077 0.04757 0.00800
C 	C 	0.77690 0.16472 0.05231 -0.03600
H 	H 	0.81213 0.19227 0.05227 0.04800
C 	C 	0.67583 0.86555 0.00005 -0.21800
H 	H 	0.70133 0.89287 0.98867 0.11500
H 	H 	0.64113 0.84997 0.99227 0.10300
H 	H 	0.67553 0.88097 0.01657 0.11400
C 	C 	0.70473 0.72677 0.00977 0.50900
C 	C 	0.65486 0.66160 0.00582 -0.02300
C 	C 	0.65315 0.62329 0.98983 -0.06500
H 	H 	0.68213 0.63067 0.97927 0.06000
C 	C 	0.60901 0.57393 0.98935 0.02300
H 	H 	0.60783 0.54767 0.97847 -0.00700
N 	N 	0.56656 0.56296 0.00485 -0.22800
C 	C 	0.56826 0.60131 0.02084 0.02400
H 	H 	0.53923 0.59377 0.03147 -0.00900
C 	C 	0.61241 0.65064 0.02132 -0.07000
H 	H 	0.61353 0.67677 0.03227 0.07200
C 	C 	0.80446 0.72738 0.11439 -0.15400
H 	H 	0.83543 0.73097 0.10567 0.09700
H 	H 	0.79053 0.69747 0.12607 0.08600
H 	H 	0.77783 0.72187 0.10167 0.08900
C 	C 	0.79888 0.84052 0.16172 0.30600
C 	C 	0.81254 0.85153 0.19195 0.00100
C 	C 	0.76372 0.84462 0.20627 -0.11200
H 	H 	0.73193 0.83737 0.19837 0.08100
C 	C 	0.77289 0.85039 0.23152 0.09100
H 	H 	0.74263 0.84167 0.24137 -0.02100
C 	C 	0.86215 0.87896 0.23499 0.01100
H 	H 	0.89293 0.89177 0.24497 -0.00000
C 	C 	0.86094 0.87174 0.20690 -0.06100
H 	H 	0.89253 0.88047 0.19827 0.06300
C 	C 	0.88482 0.89686 0.29164 -0.25100
C 	C 	0.53193 0.43727 0.03196 -0.17400
Cu	Cu	0.80337 0.28871 0.61792 0.85800
O 	O 	0.61030 0.10680 0.43932 -0.14700
O 	O 	0.61375 0.06709 0.39458 -0.22600
O 	O 	0.53528 0.05246 0.39107 -0.26300
O 	O 	0.89700 0.38080 0.46067 -0.14200
O 	O 	0.81040 0.32890 0.48831 -0.25500
O 	O 	0.82440 0.25920 0.48461 -0.27400
O 	O 	0.84193 0.19910 0.33718 -0.12800
O 	O 	0.92030 0.28790 0.35640 -0.45500
O 	O 	0.93950 0.34260 0.32490 -0.29600
N 	N 	0.80140 0.28210 0.57839 -0.22600
N 	N 	0.72970 0.32630 0.62567 -0.20800
N 	N 	0.20230 0.39480 0.35328 -0.20200
C 	C 	0.68357 0.21580 0.38051 0.08400
C 	C 	0.66213 0.16298 0.37518 -0.15600
H 	H 	0.66430 0.15200 0.35840 0.10200
C 	C 	0.63764 0.12629 0.39446 0.12600
C 	C 	0.63458 0.14242 0.41906 0.08500
C 	C 	0.65603 0.19524 0.42439 -0.11400
H 	H 	0.65400 0.20630 0.44120 0.07700
C 	C 	0.68052 0.23193 0.40511 0.03500
C 	C 	0.69993 0.28780 0.41166 -0.17700
H 	H 	0.70020 0.30650 0.39590 0.06500
H 	H 	0.67510 0.28950 0.42380 0.07400
C 	C 	0.75464 0.31628 0.42351 0.04100
C 	C 	0.75656 0.30965 0.44998 -0.11800
H 	H 	0.72570 0.29210 0.46000 0.08000
C 	C 	0.81164 0.33241 0.46217 0.13500
C 	C 	0.84818 0.35722 0.44707 0.05000
C 	C 	0.84697 0.36576 0.42008 -0.09800
H 	H 	0.87760 0.38650 0.41030 0.08200
C 	C 	0.79384 0.33946 0.40882 0.05100
C 	C 	0.79653 0.34799 0.38030 -0.20900
H 	H 	0.76340 0.34470 0.37420 0.07700
H 	H 	0.82500 0.38360 0.37620 0.09600
C 	C 	0.80621 0.30836 0.36682 0.07800
C 	C 	0.85549 0.31692 0.36386 -0.17900
H 	H 	0.88390 0.34940 0.36930 0.10500
C 	C 	0.86562 0.28189 0.35370 0.15800
C 	C 	0.82904 0.23625 0.34609 0.06400
C 	C 	0.77521 0.22316 0.34856 -0.10200
H 	H 	0.74720 0.18960 0.34410 0.07900
C 	C 	0.76649 0.26300 0.35795 0.03900
C 	C 	0.71015 0.24588 0.35977 -0.21100
H 	H 	0.69280 0.22600 0.34410 0.08400
H 	H 	0.70660 0.27740 0.35990 0.07300
C 	C 	0.60935 0.12063 0.46518 -0.18400
H 	H 	0.59570 0.14470 0.46610 0.09800
H 	H 	0.58690 0.08920 0.47510 0.09600
H 	H 	0.64480 0.13760 0.47220 0.09400
C 	C 	0.55993 0.03224 0.39484 0.29500
C 	C 	0.55325 0.98552 0.38851 -0.05600
C 	C 	0.59360 0.97432 0.38855 -0.01700
H 	H 	0.62870 0.00170 0.39050 0.05900
C 	C 	0.58264 0.92312 0.38573 0.01100
H 	H 	0.61030 0.91550 0.38580 0.01000
N 	N 	0.53135 0.88313 0.38286 -0.19600
C 	C 	0.49099 0.89432 0.38282 0.01700
H 	H 	0.45590 0.86700 0.38090 0.00800
C 	C 	0.50195 0.94552 0.38564 -0.03900
H 	H 	0.47440 0.95320 0.38560 0.05100
C 	C 	0.80112 0.14362 0.33338 -0.21300
H 	H 	0.77380 0.14180 0.32200 0.11200
H 	H 	0.81670 0.12450 0.32560 0.10100
H 	H 	0.78570 0.12790 0.34990 0.11100
C 	C 	0.93990 0.31130 0.34310 0.51500
C 	C 	0.00507 0.32660 0.33915 -0.02400
C 	C 	0.04338 0.36320 0.32316 -0.06600
H 	H 	0.03600 0.38480 0.31260 0.05800
C 	C 	0.09274 0.36842 0.32268 0.02300
H 	H 	0.11900 0.39350 0.31180 -0.00700
N 	N 	0.10371 0.33694 0.33818 -0.22900
C 	C 	0.06536 0.30029 0.35417 0.03000
H 	H 	0.07290 0.27880 0.36480 -0.01400
C 	C 	0.01603 0.29511 0.35465 -0.08700
H 	H 	0.98990 0.27010 0.36560 0.08300
C 	C 	0.93929 0.41042 0.44772 -0.15800
H 	H 	0.93570 0.43780 0.43900 0.09900
H 	H 	0.96920 0.42640 0.45940 0.08900
H 	H 	0.94480 0.38930 0.43500 0.09100
C 	C 	0.82615 0.29170 0.49505 0.30600
C 	C 	0.81514 0.29435 0.52528 0.00000
C 	C 	0.82205 0.25244 0.53960 -0.11200
H 	H 	0.82930 0.22790 0.53170 0.08000
C 	C 	0.81628 0.25584 0.56485 0.09000
H 	H 	0.82500 0.23430 0.57470 -0.02100
C 	C 	0.78771 0.31653 0.56832 0.01000
H 	H 	0.77490 0.33450 0.57830 -0.00200
C 	C 	0.79493 0.32254 0.54023 -0.06100
H 	H 	0.78620 0.34540 0.53160 0.06200
C 	C 	0.76981 0.32130 0.62497 -0.25300
C 	C 	0.22940 0.42800 0.36529 -0.17500
Cu	Cu	0.47004 0.62204 0.95125 0.85800
O 	O 	0.27697 0.44013 0.77265 -0.14600
O 	O 	0.28042 0.40042 0.72791 -0.22600
O 	O 	0.20195 0.38579 0.72440 -0.26400
O 	O 	0.56367 0.71413 0.79400 -0.14400
O 	O 	0.47707 0.66223 0.82164 -0.25500
O 	O 	0.49107 0.59253 0.81794 -0.27400
O 	O 	0.50860 0.53243 0.67051 -0.12800
O 	O 	0.58697 0.62123 0.68973 -0.45400
O 	O 	0.60617 0.67593 0.65823 -0.29700
N 	N 	0.46807 0.61543 0.91172 -0.22600
N 	N 	0.39637 0.65963 0.95900 -0.20800
N 	N 	0.86897 0.72813 0.68661 -0.20200
C 	C 	0.35024 0.54913 0.71384 0.08400
C 	C 	0.32880 0.49631 0.70851 -0.15700
H 	H 	0.33097 0.48533 0.69173 0.10200
C 	C 	0.30431 0.45962 0.72779 0.12700
C 	C 	0.30125 0.47575 0.75239 0.08500
C 	C 	0.32270 0.52857 0.75772 -0.11400
H 	H 	0.32067 0.53963 0.77453 0.07700
C 	C 	0.34719 0.56526 0.73844 0.03500
C 	C 	0.36660 0.62113 0.74499 -0.17600
H 	H 	0.36687 0.63983 0.72923 0.06500
H 	H 	0.34177 0.62283 0.75713 0.07400
C 	C 	0.42131 0.64961 0.75684 0.04100
C 	C 	0.42323 0.64298 0.78331 -0.11800
H 	H 	0.39237 0.62543 0.79333 0.08000
C 	C 	0.47831 0.66574 0.79550 0.13400
C 	C 	0.51485 0.69055 0.78040 0.05100
C 	C 	0.51364 0.69909 0.75341 -0.09900
H 	H 	0.54427 0.71983 0.74363 0.08200
C 	C 	0.46051 0.67279 0.74215 0.05100
C 	C 	0.46320 0.68132 0.71363 -0.20900
H 	H 	0.43007 0.67803 0.70753 0.07700
H 	H 	0.49167 0.71693 0.70953 0.09500
C 	C 	0.47288 0.64169 0.70015 0.07700
C 	C 	0.52216 0.65025 0.69719 -0.17900
H 	H 	0.55057 0.68273 0.70263 0.10500
C 	C 	0.53229 0.61522 0.68703 0.15800
C 	C 	0.49571 0.56958 0.67942 0.06400
C 	C 	0.44188 0.55649 0.68189 -0.10200
H 	H 	0.41387 0.52293 0.67743 0.07900
C 	C 	0.43316 0.59633 0.69128 0.03900
C 	C 	0.37682 0.57921 0.69310 -0.21100
H 	H 	0.35947 0.55933 0.67743 0.08400
H 	H 	0.37327 0.61073 0.69323 0.07300
C 	C 	0.27602 0.45396 0.79851 -0.18600
H 	H 	0.26237 0.47803 0.79943 0.09800
H 	H 	0.25357 0.42253 0.80843 0.09800
H 	H 	0.31147 0.47093 0.80553 0.09500
C 	C 	0.22660 0.36557 0.72817 0.30500
C 	C 	0.21992 0.31885 0.72184 -0.06300
C 	C 	0.26027 0.30765 0.72188 -0.03000
H 	H 	0.29537 0.33503 0.72383 0.06800
C 	C 	0.24931 0.25645 0.71906 0.01600
H 	H 	0.27697 0.24883 0.71913 0.00700
N 	N 	0.19802 0.21646 0.71619 -0.19700
C 	C 	0.15766 0.22765 0.71615 0.01500
H 	H 	0.12257 0.20033 0.71423 0.00700
C 	C 	0.16862 0.27885 0.71897 -0.03700
H 	H 	0.14107 0.28653 0.71893 0.04700
C 	C 	0.46779 0.47695 0.66671 -0.21400
H 	H 	0.44047 0.47513 0.65533 0.11300
H 	H 	0.48337 0.45783 0.65893 0.10100
H 	H 	0.45237 0.46123 0.68323 0.11200
C 	C 	0.60657 0.64463 0.67643 0.51000
C 	C 	0.67174 0.65993 0.67248 -0.02300
C 	C 	0.71005 0.69653 0.65649 -0.06500
H 	H 	0.70267 0.71813 0.64593 0.06000
C 	C 	0.75941 0.70175 0.65601 0.02300
H 	H 	0.78567 0.72683 0.64513 -0.00600
N 	N 	0.77038 0.67027 0.67151 -0.22800
C 	C 	0.73203 0.63362 0.68750 0.02400
H 	H 	0.73957 0.61213 0.69813 -0.00900
C 	C 	0.68270 0.62844 0.68798 -0.07000
H 	H 	0.65657 0.60343 0.69893 0.07200
C 	C 	0.60596 0.74375 0.78105 -0.15400
H 	H 	0.60237 0.77113 0.77233 0.09700
H 	H 	0.63587 0.75973 0.79273 0.08600
H 	H 	0.61147 0.72263 0.76833 0.08900
C 	C 	0.49282 0.62503 0.82838 0.30600
C 	C 	0.48181 0.62768 0.85861 0.00000
C 	C 	0.48872 0.58577 0.87293 -0.11200
H 	H 	0.49597 0.56123 0.86503 0.08000
C 	C 	0.48295 0.58917 0.89818 0.09000
H 	H 	0.49167 0.56763 0.90803 -0.02100
C 	C 	0.45438 0.64986 0.90165 0.01000
H 	H 	0.44157 0.66783 0.91163 -0.00200
C 	C 	0.46160 0.65587 0.87356 -0.06100
H 	H 	0.45287 0.67873 0.86493 0.06200
C 	C 	0.43648 0.65463 0.95830 -0.25300
C 	C 	0.89607 0.76133 0.69862 -0.17200
Cu	Cu	0.13670 0.95538 0.28459 0.85900
O 	O 	0.94363 0.77347 0.10599 -0.14400
O 	O 	0.94708 0.73376 0.06125 -0.22500
O 	O 	0.86861 0.71913 0.05774 -0.26300
O 	O 	0.23033 0.04747 0.12734 -0.14300
O 	O 	0.14373 0.99557 0.15498 -0.25700
O 	O 	0.15773 0.92587 0.15128 -0.27500
O 	O 	0.17526 0.86577 0.00385 -0.12800
O 	O 	0.25363 0.95457 0.02307 -0.45500
O 	O 	0.27283 0.00927 0.99157 -0.30600
N 	N 	0.13473 0.94877 0.24506 -0.22700
N 	N 	0.06303 0.99297 0.29234 -0.20700
N 	N 	0.53563 0.06147 0.01995 -0.20300
C 	C 	0.01690 0.88247 0.04718 0.07200
C 	C 	0.99546 0.82965 0.04185 -0.14400
H 	H 	0.99763 0.81867 0.02507 0.10100
C 	C 	0.97097 0.79296 0.06113 0.12500
C 	C 	0.96791 0.80909 0.08573 0.08500
C 	C 	0.98936 0.86191 0.09106 -0.10600
H 	H 	0.98733 0.87297 0.10787 0.07600
C 	C 	0.01385 0.89860 0.07178 0.03200
C 	C 	0.03326 0.95447 0.07833 -0.18400
H 	H 	0.03353 0.97317 0.06257 0.06900
H 	H 	0.00843 0.95617 0.09047 0.07500
C 	C 	0.08797 0.98295 0.09018 0.06100
C 	C 	0.08989 0.97632 0.11665 -0.12900
H 	H 	0.05903 0.95877 0.12667 0.08300
C 	C 	0.14497 0.99908 0.12884 0.15300
C 	C 	0.18151 0.02389 0.11374 0.03200
C 	C 	0.18030 0.03243 0.08675 -0.08600
H 	H 	0.21093 0.05317 0.07697 0.07700
C 	C 	0.12717 0.00613 0.07549 0.03100
C 	C 	0.12986 0.01466 0.04697 -0.20500
H 	H 	0.09673 0.01137 0.04087 0.07300
H 	H 	0.15833 0.05027 0.04287 0.09400
C 	C 	0.13954 0.97503 0.03349 0.07800
C 	C 	0.18882 0.98359 0.03053 -0.16200
H 	H 	0.21723 0.01607 0.03597 0.09400
C 	C 	0.19895 0.94856 0.02037 0.15300
C 	C 	0.16237 0.90292 0.01276 0.06600
C 	C 	0.10854 0.88983 0.01523 -0.10300
H 	H 	0.08053 0.85627 0.01077 0.07800
C 	C 	0.09982 0.92967 0.02462 0.03800
C 	C 	0.04348 0.91255 0.02644 -0.20400
H 	H 	0.02613 0.89267 0.01077 0.08000
H 	H 	0.03993 0.94407 0.02657 0.07200
C 	C 	0.94268 0.78730 0.13185 -0.18900
H 	H 	0.92903 0.81137 0.13277 0.10000
H 	H 	0.92023 0.75587 0.14177 0.09900
H 	H 	0.97813 0.80427 0.13887 0.09800
C 	C 	0.89326 0.69891 0.06151 0.30400
C 	C 	0.88658 0.65219 0.05518 -0.06200
C 	C 	0.92693 0.64099 0.05522 -0.03000
H 	H 	0.96203 0.66837 0.05717 0.07000
C 	C 	0.91597 0.58979 0.05240 0.01600
H 	H 	0.94363 0.58217 0.05247 0.00900
N 	N 	0.86468 0.54980 0.04953 -0.19700
C 	C 	0.82432 0.56099 0.04949 0.01600
H 	H 	0.78923 0.53367 0.04757 0.00800
C 	C 	0.83528 0.61219 0.05231 -0.03700
H 	H 	0.80773 0.61987 0.05227 0.04800
C 	C 	0.13445 0.81029 0.00005 -0.21500
H 	H 	0.10713 0.80847 0.98867 0.11300
H 	H 	0.15003 0.79117 0.99227 0.10200
H 	H 	0.11903 0.79457 0.01657 0.11100
C 	C 	0.27323 0.97797 0.00977 0.51800
C 	C 	0.33840 0.99327 0.00582 -0.00900
C 	C 	0.37671 0.02987 0.98983 -0.08100
H 	H 	0.36933 0.05147 0.97927 0.06300
C 	C 	0.42607 0.03509 0.98935 0.02800
H 	H 	0.45233 0.06017 0.97847 -0.01000
N 	N 	0.43704 0.00361 0.00485 -0.23500
C 	C 	0.39869 0.96696 0.02084 0.03700
H 	H 	0.40623 0.94547 0.03147 -0.01200
C 	C 	0.34936 0.96178 0.02132 -0.07900
H 	H 	0.32323 0.93677 0.03227 0.07500
C 	C 	0.27262 0.07709 0.11439 -0.15300
H 	H 	0.26903 0.10447 0.10567 0.09700
H 	H 	0.30253 0.09307 0.12607 0.08500
H 	H 	0.27813 0.05597 0.10167 0.08700
C 	C 	0.15948 0.95837 0.16172 0.30900
C 	C 	0.14847 0.96102 0.19195 -0.00200
C 	C 	0.15538 0.91911 0.20627 -0.11200
H 	H 	0.16263 0.89457 0.19837 0.08000
C 	C 	0.14961 0.92251 0.23152 0.09000
H 	H 	0.15833 0.90097 0.24137 -0.02100
C 	C 	0.12104 0.98320 0.23499 0.02000
H 	H 	0.10823 0.00117 0.24497 -0.01200
C 	C 	0.12826 0.98921 0.20690 -0.05100
H 	H 	0.11953 0.01207 0.19827 0.05200
C 	C 	0.10314 0.98797 0.29164 -0.25000
C 	C 	0.56273 0.09467 0.03196 -0.17500
Cu	Cu	0.33333 0.16667 0.66667 0.86200
Cu	Cu	-0.00000 0.50000 -0.00000 0.85900
Cu	Cu	0.83333 0.16667 0.66667 0.86200
Cu	Cu	0.50000 0.50000 -0.00000 0.86200
Cu	Cu	0.83333 0.66667 0.66667 0.86300
Cu	Cu	0.50000 0.00000 -0.00000 0.85900
Cu	Cu	0.66667 0.83333 0.33333 0.86300
Cu	Cu	0.16667 0.83333 0.33333 0.86200
Cu	Cu	0.16667 0.33333 0.33333 0.86200
Cu	Cu	0.33333 0.66667 0.37324 0.81600
Cu	Cu	0.00000 0.00000 0.70657 0.81000
Cu	Cu	0.66667 0.33333 0.03991 0.81600
Cu	Cu	0.66667 0.33333 0.62676 0.81600
Cu	Cu	0.33333 0.66667 0.96009 0.81600
Cu	Cu	-0.00000 0.00000 0.29343 0.81000
