data_crystal

_cell_length_a 28.91230
_cell_length_b 20.77060
_cell_length_c 29.72840
_cell_angle_alpha 90.00000
_cell_angle_beta  101.22400
_cell_angle_gamma 90.00000

_symmetry_space_group_name_	'P 1'
_symmetry_space_group_name_H-M	'P 1'

loop_
_symmetry_equiv_pos_as_xyz
  x,y,z

loop_
_atom_site_label
_atom_site_type_symbol
_atom_site_fract_x
_atom_site_fract_y
_atom_site_fract_z
_atom_site_charge
Cu	Cu	0.74012 0.50369 0.56474 0.82500
O 	O 	0.34210 0.83010 0.25930 -0.14700
N 	N 	0.28330 0.60050 0.12047 -0.24100
C 	C 	0.45700 0.91430 0.28400 0.05400
Cu	Cu	0.23860 0.54932 0.07284 0.82300
O 	O 	0.60870 0.66980 0.30200 -0.14900
N 	N 	0.77110 0.43070 0.60240 -0.24100
O 	O 	0.57450 0.64420 0.39120 -0.23500
O 	O 	0.12420 0.35700 0.89600 -0.25900
O 	O 	0.38870 0.76390 0.20500 -0.25600
N 	N 	0.70170 0.55040 0.51220 -0.24200
C 	C 	0.40910 0.90020 0.28360 -0.12000
H 	H 	0.39160 0.92730 0.29990 0.07700
O 	O 	0.38580 0.69290 0.26190 -0.22800
N 	N 	0.28610 0.94300 0.53070 -0.22800
C 	C 	0.38740 0.84740 0.26000 0.08700
C 	C 	0.41270 0.81060 0.23520 0.14800
O 	O 	0.63808 0.70650 0.39049 -0.25900
N 	N 	0.19461 0.49900 0.02431 -0.23700
C 	C 	0.45910 0.82210 0.23470 -0.14700
H 	H 	0.47570 0.79530 0.21730 0.09400
N 	N 	0.79490 0.99840 0.03160 -0.22800
C 	C 	0.48240 0.87470 0.26030 0.05900
O 	O 	0.50614 0.90820 0.50098 -0.14400
C 	C 	0.53530 0.88110 0.26150 -0.19500
H 	H 	0.54190 0.87050 0.23090 0.08200
H 	H 	0.54500 0.92630 0.26860 0.07800
O 	O 	0.42469 0.95860 0.45713 -0.26500
C 	C 	0.56360 0.83710 0.29700 0.05200
O 	O 	0.39380 0.86610 0.43060 -0.24800
C 	C 	0.57250 0.77540 0.28270 -0.12700
H 	H 	0.56190 0.76380 0.25150 0.07400
O 	O 	0.82810 0.19370 0.74770 -0.14700
C 	C 	0.59680 0.73050 0.31310 0.08800
O 	O 	0.87315 0.28000 0.70475 -0.26200
C 	C 	0.61080 0.74930 0.35840 0.14200
O 	O 	0.84480 0.21470 0.64580 -0.24000
C 	C 	0.60370 0.81000 0.37310 -0.15100
H 	H 	0.61470 0.82110 0.40440 0.09000
O 	O 	0.08260 0.40060 0.81200 -0.14900
C 	C 	0.58040 0.85600 0.34250 0.05600
C 	C 	0.57510 0.92440 0.36040 -0.18800
H 	H 	0.60460 0.93620 0.38180 0.07700
H 	H 	0.57110 0.95470 0.33420 0.07500
O 	O 	0.05921 0.39320 0.91890 -0.23900
C 	C 	0.53390 0.93320 0.38490 0.04400
O 	O 	0.99029 0.14500 0.99601 -0.14000
C 	C 	0.54040 0.91700 0.43170 -0.11600
H 	H 	0.57010 0.90090 0.44690 0.07100
O 	O 	0.91304 0.08550 0.94940 -0.24900
C 	C 	0.50440 0.92410 0.45630 0.08800
O 	O 	0.94560 0.98960 0.97230 -0.22800
C 	C 	0.46100 0.94940 0.43220 0.16100
C 	C 	0.45460 0.96670 0.38770 -0.16200
H 	H 	0.42540 0.98490 0.37310 0.09400
C 	C 	0.49050 0.95810 0.36230 0.07100
C 	C 	0.47840 0.97200 0.31150 -0.20300
H 	H 	0.50730 0.98530 0.30080 0.08200
H 	H 	0.45570 0.00830 0.30610 0.08600
C 	C 	0.31720 0.86530 0.28680 -0.17700
H 	H 	0.33560 0.86740 0.31810 0.09800
H 	H 	0.28690 0.84420 0.28700 0.09800
H 	H 	0.31160 0.90900 0.27450 0.08500
C 	C 	0.37490 0.70880 0.22180 0.26900
C 	C 	0.34410 0.67030 0.18550 -0.00400
C 	C 	0.32980 0.61070 0.19640 -0.08800
H 	H 	0.34070 0.59270 0.22590 0.06700
C 	C 	0.29850 0.57690 0.16240 0.04600
H 	H 	0.28770 0.53560 0.16960 -0.02500
C 	C 	0.29980 0.65740 0.11050 0.05600
H 	H 	0.29050 0.67330 0.08010 -0.01000
C 	C 	0.32960 0.69500 0.14210 -0.08700
H 	H 	0.33980 0.73620 0.13410 0.07600
C 	C 	0.60200 0.65540 0.25350 -0.16900
H 	H 	0.56840 0.65840 0.23970 0.08300
H 	H 	0.61330 0.61170 0.24940 0.08600
H 	H 	0.61980 0.68630 0.23870 0.07900
C 	C 	0.61520 0.65690 0.40490 0.28100
C 	C 	0.64710 0.61960 0.44130 -0.01400
C 	C 	0.63060 0.56070 0.45570 -0.07800
H 	H 	0.60100 0.54360 0.44100 0.06900
C 	C 	0.65850 0.52870 0.49130 0.03900
H 	H 	0.64710 0.48980 0.50190 -0.01400
C 	C 	0.71750 0.60500 0.49710 0.04700
H 	H 	0.74810 0.61970 0.51090 -0.01300
C 	C 	0.69130 0.64130 0.46230 -0.07900
H 	H 	0.70350 0.68050 0.45290 0.06800
C 	C 	0.54910 0.88040 0.52450 -0.17100
H 	H 	0.55520 0.84040 0.50920 0.08600
H 	H 	0.54670 0.87100 0.55630 0.09000
H 	H 	0.57510 0.91070 0.52430 0.09100
C 	C 	0.39210 0.91300 0.45290 0.29000
C 	C 	0.35530 0.92560 0.48000 -0.01600
C 	C 	0.31780 0.88450 0.47530 -0.08100
H 	H 	0.31570 0.84860 0.45520 0.07100
C 	C 	0.28270 0.89620 0.50030 0.05700
H 	H 	0.25550 0.86960 0.49530 -0.01100
C 	C 	0.32330 0.98240 0.53590 0.05300
H 	H 	0.32540 0.01660 0.55740 -0.01900
C 	C 	0.35860 0.97510 0.51130 -0.07900
H 	H 	0.38480 0.00360 0.51590 0.06800
C 	C 	0.97370 0.17950 0.75800 0.06200
C 	C 	0.94690 0.22720 0.73170 -0.15400
H 	H 	0.96180 0.25850 0.71610 0.09400
C 	C 	0.89910 0.22840 0.72850 0.14900
C 	C 	0.87580 0.18480 0.75090 0.08200
C 	C 	0.90200 0.13620 0.77520 -0.12200
H 	H 	0.88640 0.10420 0.78950 0.07500
C 	C 	0.95100 0.13300 0.77930 0.04800
C 	C 	0.97660 0.07890 0.80860 -0.19800
H 	H 	0.95790 0.03880 0.80270 0.08300
H 	H 	0.00750 0.07130 0.80000 0.07800
C 	C 	0.98390 0.09560 0.85920 0.06600
C 	C 	0.94720 0.08270 0.88210 -0.15500
H 	H 	0.91930 0.06240 0.86640 0.09200
C 	C 	0.95130 0.09920 0.92700 0.14500
C 	C 	0.99150 0.13000 0.95150 0.09200
C 	C 	0.02800 0.14150 0.92920 -0.12400
H 	H 	0.05580 0.16160 0.94540 0.07500
C 	C 	0.02520 0.12420 0.88310 0.04800
C 	C 	0.06770 0.13720 0.86180 -0.19100
H 	H 	0.06670 0.10770 0.83550 0.07400
H 	H 	0.09660 0.12730 0.88460 0.07700
C 	C 	0.07080 0.20700 0.84500 0.05700
C 	C 	0.09350 0.25120 0.87650 -0.15300
H 	H 	0.10680 0.23770 0.90670 0.08900
C 	C 	0.09720 0.31530 0.86430 0.14600
C 	C 	0.07770 0.33710 0.82070 0.08400
C 	C 	0.05540 0.29150 0.78890 -0.12500
H 	H 	0.04230 0.30510 0.75860 0.07400
C 	C 	0.05190 0.22740 0.80030 0.04800
C 	C 	0.02730 0.18330 0.76200 -0.19500
H 	H 	0.04070 0.13950 0.76740 0.07700
H 	H 	0.03420 0.19880 0.73250 0.08300
C 	C 	0.80630 0.15890 0.78030 -0.18700
H 	H 	0.80270 0.11360 0.77130 0.08900
H 	H 	0.77530 0.17760 0.78090 0.09700
H 	H 	0.82630 0.16220 0.81090 0.09000
C 	C 	0.84650 0.26650 0.66410 0.28300
C 	C 	0.82010 0.32410 0.64320 -0.01100
C 	C 	0.78250 0.31610 0.60720 -0.07800
H 	H 	0.77290 0.27440 0.59600 0.06900
C 	C 	0.75900 0.37060 0.58780 0.04600
H 	H 	0.73310 0.36520 0.56310 -0.01600
C 	C 	0.80750 0.43750 0.63740 0.05300
H 	H 	0.81660 0.47970 0.64780 -0.02000
C 	C 	0.83240 0.38560 0.65920 -0.08100
H 	H 	0.85750 0.39200 0.68470 0.06900
C 	C 	0.05680 0.42460 0.76870 -0.17100
H 	H 	0.07090 0.40760 0.74370 0.08100
H 	H 	0.05830 0.47180 0.76850 0.08700
H 	H 	0.02390 0.41080 0.76450 0.08500
C 	C 	0.10160 0.39170 0.92290 0.27700
C 	C 	0.13480 0.42810 0.95810 -0.01600
C 	C 	0.11840 0.48220 0.97780 -0.07600
H 	H 	0.08650 0.49580 0.96870 0.06900
C 	C 	0.14970 0.51610 0.01110 0.04400
H 	H 	0.13850 0.55270 0.02490 -0.01600
C 	C 	0.21040 0.44670 0.00510 0.04200
H 	H 	0.24250 0.43450 0.01460 -0.00800
C 	C 	0.18170 0.41000 0.97200 -0.07400
H 	H 	0.19380 0.37330 0.95900 0.06500
C 	C 	0.03320 0.17190 0.02210 -0.18600
H 	H 	0.05920 0.14170 0.02230 0.10000
H 	H 	0.02930 0.17980 0.05370 0.09700
H 	H 	0.04010 0.21260 0.00810 0.09000
C 	C 	0.91420 0.02750 0.97060 0.26700
C 	C 	0.87180 0.01800 0.99100 -0.00300
C 	C 	0.87400 0.97580 0.02660 -0.09200
H 	H 	0.90220 0.95240 0.03750 0.07100
C 	C 	0.83570 0.96740 0.04640 0.05900
H 	H 	0.83800 0.93870 0.07160 -0.02100
C 	C 	0.79230 0.03860 0.99580 0.05500
H 	H 	0.76340 0.06020 0.98460 -0.01000
C 	C 	0.82980 0.04980 0.97490 -0.08400
H 	H 	0.82700 0.07880 0.94990 0.07100
Cu	Cu	0.74012 0.99631 0.06474 0.82400
O 	O 	0.34210 0.66990 0.75930 -0.14800
N 	N 	0.28330 0.89950 0.62047 -0.24200
C 	C 	0.45700 0.58570 0.78400 0.05300
Cu	Cu	0.23860 0.95068 0.57284 0.82200
O 	O 	0.60870 0.83020 0.80200 -0.15000
N 	N 	0.77110 0.06930 0.10240 -0.24200
O 	O 	0.57450 0.85580 0.89120 -0.23600
O 	O 	0.12420 0.14300 0.39600 -0.26000
O 	O 	0.38870 0.73610 0.70500 -0.25700
N 	N 	0.70170 0.94960 0.01220 -0.24300
C 	C 	0.40910 0.59980 0.78360 -0.12100
H 	H 	0.39160 0.57270 0.79990 0.07600
O 	O 	0.38580 0.80710 0.76190 -0.22900
N 	N 	0.28610 0.55700 0.03070 -0.22900
C 	C 	0.38740 0.65260 0.76000 0.08600
C 	C 	0.41270 0.68940 0.73520 0.14700
O 	O 	0.63808 0.79350 0.89049 -0.26000
N 	N 	0.19461 0.00100 0.52431 -0.23800
C 	C 	0.45910 0.67790 0.73470 -0.14800
H 	H 	0.47570 0.70470 0.71730 0.09300
N 	N 	0.79490 0.50160 0.53160 -0.22900
C 	C 	0.48240 0.62530 0.76030 0.05900
O 	O 	0.50614 0.59180 0.00098 -0.14400
C 	C 	0.53530 0.61890 0.76150 -0.19600
H 	H 	0.54190 0.62950 0.73090 0.08200
H 	H 	0.54500 0.57370 0.76860 0.07800
O 	O 	0.42469 0.54140 0.95713 -0.26500
C 	C 	0.56360 0.66290 0.79700 0.05200
O 	O 	0.39380 0.63390 0.93060 -0.24800
C 	C 	0.57250 0.72460 0.78270 -0.12700
H 	H 	0.56190 0.73620 0.75150 0.07400
O 	O 	0.82810 0.30630 0.24770 -0.14700
C 	C 	0.59680 0.76950 0.81310 0.08800
O 	O 	0.87315 0.22000 0.20475 -0.26200
C 	C 	0.61080 0.75070 0.85840 0.14200
O 	O 	0.84480 0.28530 0.14580 -0.24000
C 	C 	0.60370 0.69000 0.87310 -0.15100
H 	H 	0.61470 0.67890 0.90440 0.09000
O 	O 	0.08260 0.09940 0.31200 -0.14900
C 	C 	0.58040 0.64400 0.84250 0.05600
C 	C 	0.57510 0.57560 0.86040 -0.18800
H 	H 	0.60460 0.56380 0.88180 0.07700
H 	H 	0.57110 0.54530 0.83420 0.07500
O 	O 	0.05921 0.10680 0.41890 -0.23900
C 	C 	0.53390 0.56680 0.88490 0.04400
O 	O 	0.99029 0.35500 0.49601 -0.14000
C 	C 	0.54040 0.58300 0.93170 -0.11700
H 	H 	0.57010 0.59910 0.94690 0.07100
O 	O 	0.91304 0.41450 0.44940 -0.24900
C 	C 	0.50440 0.57590 0.95630 0.08900
O 	O 	0.94560 0.51040 0.47230 -0.22900
C 	C 	0.46100 0.55060 0.93220 0.16100
C 	C 	0.45460 0.53330 0.88770 -0.16200
H 	H 	0.42540 0.51510 0.87310 0.09400
C 	C 	0.49050 0.54190 0.86230 0.07100
C 	C 	0.47840 0.52800 0.81150 -0.20200
H 	H 	0.50730 0.51470 0.80080 0.08200
H 	H 	0.45570 0.49170 0.80610 0.08500
C 	C 	0.31720 0.63470 0.78680 -0.17700
H 	H 	0.33560 0.63260 0.81810 0.09800
H 	H 	0.28690 0.65580 0.78700 0.09800
H 	H 	0.31160 0.59100 0.77450 0.08500
C 	C 	0.37490 0.79120 0.72180 0.26900
C 	C 	0.34410 0.82970 0.68550 -0.00400
C 	C 	0.32980 0.88930 0.69640 -0.08800
H 	H 	0.34070 0.90730 0.72590 0.06700
C 	C 	0.29850 0.92310 0.66240 0.04600
H 	H 	0.28770 0.96440 0.66960 -0.02400
C 	C 	0.29980 0.84260 0.61050 0.05600
H 	H 	0.29050 0.82670 0.58010 -0.01000
C 	C 	0.32960 0.80500 0.64210 -0.08700
H 	H 	0.33980 0.76380 0.63410 0.07600
C 	C 	0.60200 0.84460 0.75350 -0.16900
H 	H 	0.56840 0.84160 0.73970 0.08300
H 	H 	0.61330 0.88830 0.74940 0.08600
H 	H 	0.61980 0.81370 0.73870 0.07900
C 	C 	0.61520 0.84310 0.90490 0.28100
C 	C 	0.64710 0.88040 0.94130 -0.01300
C 	C 	0.63060 0.93930 0.95570 -0.07900
H 	H 	0.60100 0.95640 0.94100 0.06900
C 	C 	0.65850 0.97130 0.99130 0.04000
H 	H 	0.64710 0.01020 0.00190 -0.01400
C 	C 	0.71750 0.89500 0.99710 0.04900
H 	H 	0.74810 0.88030 0.01090 -0.01300
C 	C 	0.69130 0.85870 0.96230 -0.08000
H 	H 	0.70350 0.81950 0.95290 0.06800
C 	C 	0.54910 0.61960 0.02450 -0.17100
H 	H 	0.55520 0.65960 0.00920 0.08600
H 	H 	0.54670 0.62900 0.05630 0.09000
H 	H 	0.57510 0.58930 0.02430 0.09100
C 	C 	0.39210 0.58700 0.95290 0.29000
C 	C 	0.35530 0.57440 0.98000 -0.01600
C 	C 	0.31780 0.61550 0.97530 -0.08100
H 	H 	0.31570 0.65140 0.95520 0.07100
C 	C 	0.28270 0.60380 0.00030 0.05700
H 	H 	0.25550 0.63040 0.99530 -0.01100
C 	C 	0.32330 0.51760 0.03590 0.05300
H 	H 	0.32540 0.48340 0.05740 -0.01900
C 	C 	0.35860 0.52490 0.01130 -0.07900
H 	H 	0.38480 0.49640 0.01590 0.06800
C 	C 	0.97370 0.32050 0.25800 0.06300
C 	C 	0.94690 0.27280 0.23170 -0.15400
H 	H 	0.96180 0.24150 0.21610 0.09400
C 	C 	0.89910 0.27160 0.22850 0.14900
C 	C 	0.87580 0.31520 0.25090 0.08200
C 	C 	0.90200 0.36380 0.27520 -0.12200
H 	H 	0.88640 0.39580 0.28950 0.07500
C 	C 	0.95100 0.36700 0.27930 0.04800
C 	C 	0.97660 0.42110 0.30860 -0.19800
H 	H 	0.95790 0.46120 0.30270 0.08300
H 	H 	0.00750 0.42870 0.30000 0.07800
C 	C 	0.98390 0.40440 0.35920 0.06600
C 	C 	0.94720 0.41730 0.38210 -0.15500
H 	H 	0.91930 0.43760 0.36640 0.09200
C 	C 	0.95130 0.40080 0.42700 0.14600
C 	C 	0.99150 0.37000 0.45150 0.09200
C 	C 	0.02800 0.35850 0.42920 -0.12400
H 	H 	0.05580 0.33840 0.44540 0.07500
C 	C 	0.02520 0.37580 0.38310 0.04800
C 	C 	0.06770 0.36280 0.36180 -0.19100
H 	H 	0.06670 0.39230 0.33550 0.07400
H 	H 	0.09660 0.37270 0.38460 0.07700
C 	C 	0.07080 0.29300 0.34500 0.05700
C 	C 	0.09350 0.24880 0.37650 -0.15300
H 	H 	0.10680 0.26230 0.40670 0.08900
C 	C 	0.09720 0.18470 0.36430 0.14600
C 	C 	0.07770 0.16290 0.32070 0.08400
C 	C 	0.05540 0.20850 0.28890 -0.12500
H 	H 	0.04230 0.19490 0.25860 0.07400
C 	C 	0.05190 0.27260 0.30030 0.04800
C 	C 	0.02730 0.31670 0.26200 -0.19500
H 	H 	0.04070 0.36050 0.26740 0.07700
H 	H 	0.03420 0.30120 0.23250 0.08300
C 	C 	0.80630 0.34110 0.28030 -0.18700
H 	H 	0.80270 0.38640 0.27130 0.08900
H 	H 	0.77530 0.32240 0.28090 0.09700
H 	H 	0.82630 0.33780 0.31090 0.09000
C 	C 	0.84650 0.23350 0.16410 0.28300
C 	C 	0.82010 0.17590 0.14320 -0.01100
C 	C 	0.78250 0.18390 0.10720 -0.07800
H 	H 	0.77290 0.22560 0.09600 0.06900
C 	C 	0.75900 0.12940 0.08780 0.04600
H 	H 	0.73310 0.13480 0.06310 -0.01600
C 	C 	0.80750 0.06250 0.13740 0.05300
H 	H 	0.81660 0.02030 0.14780 -0.02000
C 	C 	0.83240 0.11440 0.15920 -0.08100
H 	H 	0.85750 0.10800 0.18470 0.06900
C 	C 	0.05680 0.07540 0.26870 -0.17100
H 	H 	0.07090 0.09240 0.24370 0.08100
H 	H 	0.05830 0.02820 0.26850 0.08800
H 	H 	0.02390 0.08920 0.26450 0.08500
C 	C 	0.10160 0.10830 0.42290 0.27700
C 	C 	0.13480 0.07190 0.45810 -0.01600
C 	C 	0.11840 0.01780 0.47780 -0.07600
H 	H 	0.08650 0.00420 0.46870 0.06900
C 	C 	0.14970 0.98390 0.51110 0.04400
H 	H 	0.13850 0.94730 0.52490 -0.01600
C 	C 	0.21040 0.05330 0.50510 0.04200
H 	H 	0.24250 0.06550 0.51460 -0.00800
C 	C 	0.18170 0.09000 0.47200 -0.07300
H 	H 	0.19380 0.12670 0.45900 0.06500
C 	C 	0.03320 0.32810 0.52210 -0.18600
H 	H 	0.05920 0.35830 0.52230 0.10000
H 	H 	0.02930 0.32020 0.55370 0.09700
H 	H 	0.04010 0.28740 0.50810 0.09000
C 	C 	0.91420 0.47250 0.47060 0.26800
C 	C 	0.87180 0.48200 0.49100 -0.00300
C 	C 	0.87400 0.52420 0.52660 -0.09200
H 	H 	0.90220 0.54760 0.53750 0.07100
C 	C 	0.83570 0.53260 0.54640 0.05900
H 	H 	0.83800 0.56130 0.57160 -0.02100
C 	C 	0.79230 0.46140 0.49580 0.05600
H 	H 	0.76340 0.43980 0.48460 -0.01000
C 	C 	0.82980 0.45020 0.47490 -0.08400
H 	H 	0.82700 0.42120 0.44990 0.07100
Cu	Cu	0.25988 0.00369 0.93526 0.82400
O 	O 	0.65790 0.33010 0.24070 -0.14800
N 	N 	0.71670 0.10050 0.37953 -0.24200
C 	C 	0.54300 0.41430 0.21600 0.05300
Cu	Cu	0.76140 0.04932 0.42716 0.82200
O 	O 	0.39130 0.16980 0.19800 -0.15000
N 	N 	0.22890 0.93070 0.89760 -0.24200
O 	O 	0.42550 0.14420 0.10880 -0.23600
O 	O 	0.87580 0.85700 0.60400 -0.26000
O 	O 	0.61130 0.26390 0.29500 -0.25700
N 	N 	0.29830 0.05040 0.98780 -0.24300
C 	C 	0.59090 0.40020 0.21640 -0.12100
H 	H 	0.60840 0.42730 0.20010 0.07600
O 	O 	0.61420 0.19290 0.23810 -0.22900
N 	N 	0.71390 0.44300 0.96930 -0.22900
C 	C 	0.61260 0.34740 0.24000 0.08600
C 	C 	0.58730 0.31060 0.26480 0.14700
O 	O 	0.36192 0.20650 0.10951 -0.26000
N 	N 	0.80539 0.99900 0.47569 -0.23800
C 	C 	0.54090 0.32210 0.26530 -0.14800
H 	H 	0.52430 0.29530 0.28270 0.09300
N 	N 	0.20510 0.49840 0.46840 -0.22900
C 	C 	0.51760 0.37470 0.23970 0.05900
O 	O 	0.49386 0.40820 0.99902 -0.14400
C 	C 	0.46470 0.38110 0.23850 -0.19600
H 	H 	0.45810 0.37050 0.26910 0.08200
H 	H 	0.45500 0.42630 0.23140 0.07800
O 	O 	0.57531 0.45860 0.04287 -0.26500
C 	C 	0.43640 0.33710 0.20300 0.05200
O 	O 	0.60620 0.36610 0.06940 -0.24800
C 	C 	0.42750 0.27540 0.21730 -0.12700
H 	H 	0.43810 0.26380 0.24850 0.07400
O 	O 	0.17190 0.69370 0.75230 -0.14700
C 	C 	0.40320 0.23050 0.18690 0.08800
O 	O 	0.12685 0.78000 0.79525 -0.26200
C 	C 	0.38920 0.24930 0.14160 0.14200
O 	O 	0.15520 0.71470 0.85420 -0.24000
C 	C 	0.39630 0.31000 0.12690 -0.15100
H 	H 	0.38530 0.32110 0.09560 0.09000
O 	O 	0.91740 0.90060 0.68800 -0.14900
C 	C 	0.41960 0.35600 0.15750 0.05600
C 	C 	0.42490 0.42440 0.13960 -0.18800
H 	H 	0.39540 0.43620 0.11820 0.07700
H 	H 	0.42890 0.45470 0.16580 0.07500
O 	O 	0.94079 0.89320 0.58110 -0.23900
C 	C 	0.46610 0.43320 0.11510 0.04400
O 	O 	0.00971 0.64500 0.50399 -0.14000
C 	C 	0.45960 0.41700 0.06830 -0.11700
H 	H 	0.42990 0.40090 0.05310 0.07100
O 	O 	0.08696 0.58550 0.55060 -0.24900
C 	C 	0.49560 0.42410 0.04370 0.08900
O 	O 	0.05440 0.48960 0.52770 -0.22900
C 	C 	0.53900 0.44940 0.06780 0.16100
C 	C 	0.54540 0.46670 0.11230 -0.16200
H 	H 	0.57460 0.48490 0.12690 0.09400
C 	C 	0.50950 0.45810 0.13770 0.07100
C 	C 	0.52160 0.47200 0.18850 -0.20200
H 	H 	0.49270 0.48530 0.19920 0.08200
H 	H 	0.54430 0.50830 0.19390 0.08500
C 	C 	0.68280 0.36530 0.21320 -0.17700
H 	H 	0.66440 0.36740 0.18190 0.09800
H 	H 	0.71310 0.34420 0.21300 0.09800
H 	H 	0.68840 0.40900 0.22550 0.08500
C 	C 	0.62510 0.20880 0.27820 0.26900
C 	C 	0.65590 0.17030 0.31450 -0.00400
C 	C 	0.67020 0.11070 0.30360 -0.08800
H 	H 	0.65930 0.09270 0.27410 0.06700
C 	C 	0.70150 0.07690 0.33760 0.04600
H 	H 	0.71230 0.03560 0.33040 -0.02400
C 	C 	0.70020 0.15740 0.38950 0.05600
H 	H 	0.70950 0.17330 0.41990 -0.01000
C 	C 	0.67040 0.19500 0.35790 -0.08700
H 	H 	0.66020 0.23620 0.36590 0.07600
C 	C 	0.39800 0.15540 0.24650 -0.16900
H 	H 	0.43160 0.15840 0.26030 0.08300
H 	H 	0.38670 0.11170 0.25060 0.08600
H 	H 	0.38020 0.18630 0.26130 0.07900
C 	C 	0.38480 0.15690 0.09510 0.28100
C 	C 	0.35290 0.11960 0.05870 -0.01300
C 	C 	0.36940 0.06070 0.04430 -0.07900
H 	H 	0.39900 0.04360 0.05900 0.06900
C 	C 	0.34150 0.02870 0.00870 0.04000
H 	H 	0.35290 0.98980 0.99810 -0.01400
C 	C 	0.28250 0.10500 0.00290 0.04900
H 	H 	0.25190 0.11970 0.98910 -0.01300
C 	C 	0.30870 0.14130 0.03770 -0.08000
H 	H 	0.29650 0.18050 0.04710 0.06800
C 	C 	0.45090 0.38040 0.97550 -0.17100
H 	H 	0.44480 0.34040 0.99080 0.08600
H 	H 	0.45330 0.37100 0.94370 0.09000
H 	H 	0.42490 0.41070 0.97570 0.09100
C 	C 	0.60790 0.41300 0.04710 0.29000
C 	C 	0.64470 0.42560 0.02000 -0.01600
C 	C 	0.68220 0.38450 0.02470 -0.08100
H 	H 	0.68430 0.34860 0.04480 0.07100
C 	C 	0.71730 0.39620 0.99970 0.05700
H 	H 	0.74450 0.36960 0.00470 -0.01100
C 	C 	0.67670 0.48240 0.96410 0.05300
H 	H 	0.67460 0.51660 0.94260 -0.01900
C 	C 	0.64140 0.47510 0.98870 -0.07900
H 	H 	0.61520 0.50360 0.98410 0.06800
C 	C 	0.02630 0.67950 0.74200 0.06300
C 	C 	0.05310 0.72720 0.76830 -0.15400
H 	H 	0.03820 0.75850 0.78390 0.09400
C 	C 	0.10090 0.72840 0.77150 0.14900
C 	C 	0.12420 0.68480 0.74910 0.08200
C 	C 	0.09800 0.63620 0.72480 -0.12200
H 	H 	0.11360 0.60420 0.71050 0.07500
C 	C 	0.04900 0.63300 0.72070 0.04800
C 	C 	0.02340 0.57890 0.69140 -0.19800
H 	H 	0.04210 0.53880 0.69730 0.08300
H 	H 	0.99250 0.57130 0.70000 0.07800
C 	C 	0.01610 0.59560 0.64080 0.06600
C 	C 	0.05280 0.58270 0.61790 -0.15500
H 	H 	0.08070 0.56240 0.63360 0.09200
C 	C 	0.04870 0.59920 0.57300 0.14600
C 	C 	0.00850 0.63000 0.54850 0.09200
C 	C 	0.97200 0.64150 0.57080 -0.12400
H 	H 	0.94420 0.66160 0.55460 0.07500
C 	C 	0.97480 0.62420 0.61690 0.04800
C 	C 	0.93230 0.63720 0.63820 -0.19100
H 	H 	0.93330 0.60770 0.66450 0.07400
H 	H 	0.90340 0.62730 0.61540 0.07700
C 	C 	0.92920 0.70700 0.65500 0.05700
C 	C 	0.90650 0.75120 0.62350 -0.15300
H 	H 	0.89320 0.73770 0.59330 0.08900
C 	C 	0.90280 0.81530 0.63570 0.14600
C 	C 	0.92230 0.83710 0.67930 0.08400
C 	C 	0.94460 0.79150 0.71110 -0.12500
H 	H 	0.95770 0.80510 0.74140 0.07400
C 	C 	0.94810 0.72740 0.69970 0.04800
C 	C 	0.97270 0.68330 0.73800 -0.19500
H 	H 	0.95930 0.63950 0.73260 0.07700
H 	H 	0.96580 0.69880 0.76750 0.08300
C 	C 	0.19370 0.65890 0.71970 -0.18700
H 	H 	0.19730 0.61360 0.72870 0.08900
H 	H 	0.22470 0.67760 0.71910 0.09700
H 	H 	0.17370 0.66220 0.68910 0.09000
C 	C 	0.15350 0.76650 0.83590 0.28300
C 	C 	0.17990 0.82410 0.85680 -0.01100
C 	C 	0.21750 0.81610 0.89280 -0.07800
H 	H 	0.22710 0.77440 0.90400 0.06900
C 	C 	0.24100 0.87060 0.91220 0.04600
H 	H 	0.26690 0.86520 0.93690 -0.01600
C 	C 	0.19250 0.93750 0.86260 0.05300
H 	H 	0.18340 0.97970 0.85220 -0.02000
C 	C 	0.16760 0.88560 0.84080 -0.08100
H 	H 	0.14250 0.89200 0.81530 0.06900
C 	C 	0.94320 0.92460 0.73130 -0.17100
H 	H 	0.92910 0.90760 0.75630 0.08100
H 	H 	0.94170 0.97180 0.73150 0.08800
H 	H 	0.97610 0.91080 0.73550 0.08500
C 	C 	0.89840 0.89170 0.57710 0.27700
C 	C 	0.86520 0.92810 0.54190 -0.01600
C 	C 	0.88160 0.98220 0.52220 -0.07600
H 	H 	0.91350 0.99580 0.53130 0.06900
C 	C 	0.85030 0.01610 0.48890 0.04400
H 	H 	0.86150 0.05270 0.47510 -0.01600
C 	C 	0.78960 0.94670 0.49490 0.04200
H 	H 	0.75750 0.93450 0.48540 -0.00800
C 	C 	0.81830 0.91000 0.52800 -0.07300
H 	H 	0.80620 0.87330 0.54100 0.06500
C 	C 	0.96680 0.67190 0.47790 -0.18600
H 	H 	0.94080 0.64170 0.47770 0.10000
H 	H 	0.97070 0.67980 0.44630 0.09700
H 	H 	0.95990 0.71260 0.49190 0.09000
C 	C 	0.08580 0.52750 0.52940 0.26800
C 	C 	0.12820 0.51800 0.50900 -0.00300
C 	C 	0.12600 0.47580 0.47340 -0.09200
H 	H 	0.09780 0.45240 0.46250 0.07100
C 	C 	0.16430 0.46740 0.45360 0.05900
H 	H 	0.16200 0.43870 0.42840 -0.02100
C 	C 	0.20770 0.53860 0.50420 0.05600
H 	H 	0.23660 0.56020 0.51540 -0.01000
C 	C 	0.17020 0.54980 0.52510 -0.08400
H 	H 	0.17300 0.57880 0.55010 0.07100
Cu	Cu	0.25988 0.49631 0.43526 0.82400
O 	O 	0.65790 0.16990 0.74070 -0.14800
N 	N 	0.71670 0.39950 0.87953 -0.24200
C 	C 	0.54300 0.08570 0.71600 0.05300
Cu	Cu	0.76140 0.45068 0.92716 0.82200
O 	O 	0.39130 0.33020 0.69800 -0.15000
N 	N 	0.22890 0.56930 0.39760 -0.24200
O 	O 	0.42550 0.35580 0.60880 -0.23600
O 	O 	0.87580 0.64300 0.10400 -0.26000
O 	O 	0.61130 0.23610 0.79500 -0.25700
N 	N 	0.29830 0.44960 0.48780 -0.24300
C 	C 	0.59090 0.09980 0.71640 -0.12100
H 	H 	0.60840 0.07270 0.70010 0.07600
O 	O 	0.61420 0.30710 0.73810 -0.22900
N 	N 	0.71390 0.05700 0.46930 -0.22900
C 	C 	0.61260 0.15260 0.74000 0.08600
C 	C 	0.58730 0.18940 0.76480 0.14700
O 	O 	0.36192 0.29350 0.60951 -0.26000
N 	N 	0.80539 0.50100 0.97569 -0.23800
C 	C 	0.54090 0.17790 0.76530 -0.14800
H 	H 	0.52430 0.20470 0.78270 0.09300
N 	N 	0.20510 0.00160 0.96840 -0.22900
C 	C 	0.51760 0.12530 0.73970 0.05900
O 	O 	0.49386 0.09180 0.49902 -0.14400
C 	C 	0.46470 0.11890 0.73850 -0.19500
H 	H 	0.45810 0.12950 0.76910 0.08200
H 	H 	0.45500 0.07370 0.73140 0.07800
O 	O 	0.57531 0.04140 0.54287 -0.26500
C 	C 	0.43640 0.16290 0.70300 0.05200
O 	O 	0.60620 0.13390 0.56940 -0.24800
C 	C 	0.42750 0.22460 0.71730 -0.12700
H 	H 	0.43810 0.23620 0.74850 0.07400
O 	O 	0.17190 0.80630 0.25230 -0.14700
C 	C 	0.40320 0.26950 0.68690 0.08800
O 	O 	0.12685 0.72000 0.29525 -0.26200
C 	C 	0.38920 0.25070 0.64160 0.14200
O 	O 	0.15520 0.78530 0.35420 -0.24000
C 	C 	0.39630 0.19000 0.62690 -0.15100
H 	H 	0.38530 0.17890 0.59560 0.09000
O 	O 	0.91740 0.59940 0.18800 -0.14900
C 	C 	0.41960 0.14400 0.65750 0.05600
C 	C 	0.42490 0.07560 0.63960 -0.18800
H 	H 	0.39540 0.06380 0.61820 0.07700
H 	H 	0.42890 0.04530 0.66580 0.07500
O 	O 	0.94079 0.60680 0.08110 -0.23900
C 	C 	0.46610 0.06680 0.61510 0.04400
O 	O 	0.00971 0.85500 0.00399 -0.14000
C 	C 	0.45960 0.08300 0.56830 -0.11600
H 	H 	0.42990 0.09910 0.55310 0.07100
O 	O 	0.08696 0.91450 0.05060 -0.24900
C 	C 	0.49560 0.07590 0.54370 0.08800
O 	O 	0.05440 0.01040 0.02770 -0.22800
C 	C 	0.53900 0.05060 0.56780 0.16100
C 	C 	0.54540 0.03330 0.61230 -0.16200
H 	H 	0.57460 0.01510 0.62690 0.09400
C 	C 	0.50950 0.04190 0.63770 0.07100
C 	C 	0.52160 0.02800 0.68850 -0.20300
H 	H 	0.49270 0.01470 0.69920 0.08200
H 	H 	0.54430 0.99170 0.69390 0.08600
C 	C 	0.68280 0.13470 0.71320 -0.17700
H 	H 	0.66440 0.13260 0.68190 0.09800
H 	H 	0.71310 0.15580 0.71300 0.09800
H 	H 	0.68840 0.09100 0.72550 0.08500
C 	C 	0.62510 0.29120 0.77820 0.26900
C 	C 	0.65590 0.32970 0.81450 -0.00400
C 	C 	0.67020 0.38930 0.80360 -0.08800
H 	H 	0.65930 0.40730 0.77410 0.06700
C 	C 	0.70150 0.42310 0.83760 0.04600
H 	H 	0.71230 0.46440 0.83040 -0.02500
C 	C 	0.70020 0.34260 0.88950 0.05600
H 	H 	0.70950 0.32670 0.91990 -0.01000
C 	C 	0.67040 0.30500 0.85790 -0.08700
H 	H 	0.66020 0.26380 0.86590 0.07600
C 	C 	0.39800 0.34460 0.74650 -0.16900
H 	H 	0.43160 0.34160 0.76030 0.08300
H 	H 	0.38670 0.38830 0.75060 0.08600
H 	H 	0.38020 0.31370 0.76130 0.07900
C 	C 	0.38480 0.34310 0.59510 0.28100
C 	C 	0.35290 0.38040 0.55870 -0.01400
C 	C 	0.36940 0.43930 0.54430 -0.07800
H 	H 	0.39900 0.45640 0.55900 0.06900
C 	C 	0.34150 0.47130 0.50870 0.03900
H 	H 	0.35290 0.51020 0.49810 -0.01400
C 	C 	0.28250 0.39500 0.50290 0.04700
H 	H 	0.25190 0.38030 0.48910 -0.01300
C 	C 	0.30870 0.35870 0.53770 -0.07900
H 	H 	0.29650 0.31950 0.54710 0.06800
C 	C 	0.45090 0.11960 0.47550 -0.17100
H 	H 	0.44480 0.15960 0.49080 0.08600
H 	H 	0.45330 0.12900 0.44370 0.09000
H 	H 	0.42490 0.08930 0.47570 0.09100
C 	C 	0.60790 0.08700 0.54710 0.29000
C 	C 	0.64470 0.07440 0.52000 -0.01600
C 	C 	0.68220 0.11550 0.52470 -0.08100
H 	H 	0.68430 0.15140 0.54480 0.07100
C 	C 	0.71730 0.10380 0.49970 0.05700
H 	H 	0.74450 0.13040 0.50470 -0.01100
C 	C 	0.67670 0.01760 0.46410 0.05300
H 	H 	0.67460 0.98340 0.44260 -0.01900
C 	C 	0.64140 0.02490 0.48870 -0.07900
H 	H 	0.61520 0.99640 0.48410 0.06800
C 	C 	0.02630 0.82050 0.24200 0.06200
C 	C 	0.05310 0.77280 0.26830 -0.15400
H 	H 	0.03820 0.74150 0.28390 0.09400
C 	C 	0.10090 0.77160 0.27150 0.14900
C 	C 	0.12420 0.81520 0.24910 0.08200
C 	C 	0.09800 0.86380 0.22480 -0.12200
H 	H 	0.11360 0.89580 0.21050 0.07500
C 	C 	0.04900 0.86700 0.22070 0.04800
C 	C 	0.02340 0.92110 0.19140 -0.19800
H 	H 	0.04210 0.96120 0.19730 0.08300
H 	H 	0.99250 0.92870 0.20000 0.07800
C 	C 	0.01610 0.90440 0.14080 0.06600
C 	C 	0.05280 0.91730 0.11790 -0.15500
H 	H 	0.08070 0.93760 0.13360 0.09200
C 	C 	0.04870 0.90080 0.07300 0.14500
C 	C 	0.00850 0.87000 0.04850 0.09200
C 	C 	0.97200 0.85850 0.07080 -0.12400
H 	H 	0.94420 0.83840 0.05460 0.07500
C 	C 	0.97480 0.87580 0.11690 0.04800
C 	C 	0.93230 0.86280 0.13820 -0.19100
H 	H 	0.93330 0.89230 0.16450 0.07400
H 	H 	0.90340 0.87270 0.11540 0.07700
C 	C 	0.92920 0.79300 0.15500 0.05700
C 	C 	0.90650 0.74880 0.12350 -0.15300
H 	H 	0.89320 0.76230 0.09330 0.08900
C 	C 	0.90280 0.68470 0.13570 0.14600
C 	C 	0.92230 0.66290 0.17930 0.08400
C 	C 	0.94460 0.70850 0.21110 -0.12500
H 	H 	0.95770 0.69490 0.24140 0.07400
C 	C 	0.94810 0.77260 0.19970 0.04800
C 	C 	0.97270 0.81670 0.23800 -0.19500
H 	H 	0.95930 0.86050 0.23260 0.07700
H 	H 	0.96580 0.80120 0.26750 0.08300
C 	C 	0.19370 0.84110 0.21970 -0.18700
H 	H 	0.19730 0.88640 0.22870 0.08900
H 	H 	0.22470 0.82240 0.21910 0.09700
H 	H 	0.17370 0.83780 0.18910 0.09000
C 	C 	0.15350 0.73350 0.33590 0.28300
C 	C 	0.17990 0.67590 0.35680 -0.01100
C 	C 	0.21750 0.68390 0.39280 -0.07800
H 	H 	0.22710 0.72560 0.40400 0.06900
C 	C 	0.24100 0.62940 0.41220 0.04600
H 	H 	0.26690 0.63480 0.43690 -0.01600
C 	C 	0.19250 0.56250 0.36260 0.05300
H 	H 	0.18340 0.52030 0.35220 -0.02000
C 	C 	0.16760 0.61440 0.34080 -0.08100
H 	H 	0.14250 0.60800 0.31530 0.06900
C 	C 	0.94320 0.57540 0.23130 -0.17100
H 	H 	0.92910 0.59240 0.25630 0.08100
H 	H 	0.94170 0.52820 0.23150 0.08700
H 	H 	0.97610 0.58920 0.23550 0.08500
C 	C 	0.89840 0.60830 0.07710 0.27700
C 	C 	0.86520 0.57190 0.04190 -0.01600
C 	C 	0.88160 0.51780 0.02220 -0.07600
H 	H 	0.91350 0.50420 0.03130 0.06900
C 	C 	0.85030 0.48390 0.98890 0.04400
H 	H 	0.86150 0.44730 0.97510 -0.01600
C 	C 	0.78960 0.55330 0.99490 0.04200
H 	H 	0.75750 0.56550 0.98540 -0.00800
C 	C 	0.81830 0.59000 0.02800 -0.07400
H 	H 	0.80620 0.62670 0.04100 0.06500
C 	C 	0.96680 0.82810 0.97790 -0.18600
H 	H 	0.94080 0.85830 0.97770 0.10000
H 	H 	0.97070 0.82020 0.94630 0.09700
H 	H 	0.95990 0.78740 0.99190 0.09000
C 	C 	0.08580 0.97250 0.02940 0.26700
C 	C 	0.12820 0.98200 0.00900 -0.00300
C 	C 	0.12600 0.02420 0.97340 -0.09200
H 	H 	0.09780 0.04760 0.96250 0.07100
C 	C 	0.16430 0.03260 0.95360 0.05900
H 	H 	0.16200 0.06130 0.92840 -0.02100
C 	C 	0.20770 0.96140 0.00420 0.05500
H 	H 	0.23660 0.93980 0.01540 -0.01000
C 	C 	0.17020 0.95020 0.02510 -0.08400
H 	H 	0.17300 0.92120 0.05010 0.07100
