data_crystal

_cell_length_a 27.93190
_cell_length_b 14.31670
_cell_length_c 21.44760
_cell_angle_alpha 90.00000
_cell_angle_beta  90.00000
_cell_angle_gamma 90.00000

_symmetry_space_group_name_	'P 1'
_symmetry_space_group_name_H-M	'P 1'

loop_
_symmetry_equiv_pos_as_xyz
  x,y,z

loop_
_atom_site_label
_atom_site_type_symbol
_atom_site_fract_x
_atom_site_fract_y
_atom_site_fract_z
_atom_site_charge
N 	N 	0.10900 0.37260 0.82620 -0.20900
N 	N 	0.93250 0.67650 0.89540 -0.20900
C 	C 	0.20710 0.25160 0.95890 0.29000
H 	H 	0.69490 0.68710 0.96710 -0.83800
O 	O 	0.18990 0.16290 0.97510 0.85800
H 	H 	0.21310 0.12750 0.98330 -0.10700
C 	C 	0.25750 0.24030 0.93240 -0.48300
H 	H 	0.25610 0.19980 0.89510 0.17400
H 	H 	0.26950 0.30230 0.91910 0.14100
C 	C 	0.20750 0.30150 0.02110 0.62600
H 	H 	0.21860 0.36670 0.01270 -1.23800
O 	O 	0.77700 0.60120 0.99220 1.32200
H 	H 	0.74700 0.59800 0.99040 -0.33600
C 	C 	0.17340 0.29460 0.91190 -0.07500
C 	C 	0.18470 0.37320 0.88020 -0.05000
H 	H 	0.21490 0.40230 0.88620 0.00300
C 	C 	0.15180 0.41100 0.83870 0.01000
H 	H 	0.16010 0.46730 0.81790 0.01800
C 	C 	0.09700 0.30070 0.85880 0.02000
H 	H 	0.06550 0.27670 0.85380 0.01700
C 	C 	0.12830 0.25460 0.90210 -0.04400
H 	H 	0.11880 0.19930 0.92320 0.02000
C 	C 	0.15820 0.30960 0.05010 -0.23600
C 	C 	0.13620 0.39590 0.06000 0.07000
H 	H 	0.15230 0.45180 0.04840 -0.04500
C 	C 	0.90840 0.59940 0.91340 -0.04500
H 	H 	0.92280 0.53990 0.90760 0.02700
C 	C 	0.91150 0.75590 0.90450 -0.01400
H 	H 	0.92800 0.81050 0.89150 -0.01000
C 	C 	0.13300 0.23210 0.06830 0.03900
H 	H 	0.14580 0.17130 0.06240 -0.03000
N 	N 	0.60900 0.87260 0.82620 -0.20800
N 	N 	0.43250 0.17650 0.89540 -0.21000
C 	C 	0.70710 0.75160 0.95890 0.29200
H 	H 	0.19490 0.18710 0.96710 -0.83700
O 	O 	0.68990 0.66290 0.97510 0.85800
H 	H 	0.71310 0.62750 0.98330 -0.10600
C 	C 	0.75750 0.74030 0.93240 -0.48200
H 	H 	0.75610 0.69980 0.89510 0.17500
H 	H 	0.76950 0.80230 0.91910 0.14200
C 	C 	0.70750 0.80150 0.02110 0.62700
H 	H 	0.71860 0.86670 0.01270 -1.23800
O 	O 	0.27700 0.10120 0.99220 1.32300
H 	H 	0.24700 0.09800 0.99040 -0.33600
C 	C 	0.67340 0.79460 0.91190 -0.07500
C 	C 	0.68470 0.87320 0.88020 -0.05000
H 	H 	0.71490 0.90230 0.88620 0.00400
C 	C 	0.65180 0.91100 0.83870 0.01000
H 	H 	0.66010 0.96730 0.81790 0.01800
C 	C 	0.59700 0.80070 0.85880 0.02000
H 	H 	0.56550 0.77670 0.85380 0.01800
C 	C 	0.62830 0.75460 0.90210 -0.04300
H 	H 	0.61880 0.69930 0.92320 0.02100
C 	C 	0.65820 0.80960 0.05010 -0.23600
C 	C 	0.63620 0.89590 0.06000 0.07000
H 	H 	0.65230 0.95180 0.04840 -0.04500
C 	C 	0.40840 0.09940 0.91340 -0.04500
H 	H 	0.42280 0.03990 0.90760 0.02500
C 	C 	0.41150 0.25590 0.90450 -0.01400
H 	H 	0.42800 0.31050 0.89150 -0.01200
C 	C 	0.63300 0.73210 0.06830 0.04000
H 	H 	0.64580 0.67130 0.06240 -0.03000
N 	N 	0.89100 0.62740 0.32620 -0.20700
N 	N 	0.06750 0.32350 0.39540 -0.21100
C 	C 	0.79290 0.74840 0.45890 0.29100
H 	H 	0.30510 0.31290 0.46710 -0.83700
O 	O 	0.81010 0.83710 0.47510 0.85800
H 	H 	0.78690 0.87250 0.48330 -0.10600
C 	C 	0.74250 0.75970 0.43240 -0.48200
H 	H 	0.74390 0.80020 0.39510 0.17500
H 	H 	0.73050 0.69770 0.41910 0.14200
C 	C 	0.79250 0.69850 0.52110 0.62700
H 	H 	0.78140 0.63330 0.51270 -1.23800
O 	O 	0.22300 0.39880 0.49220 1.32300
H 	H 	0.25300 0.40200 0.49040 -0.33600
C 	C 	0.82660 0.70540 0.41190 -0.07500
C 	C 	0.81530 0.62680 0.38020 -0.05000
H 	H 	0.78510 0.59770 0.38620 0.00300
C 	C 	0.84820 0.58900 0.33870 0.01000
H 	H 	0.83990 0.53270 0.31790 0.01800
C 	C 	0.90300 0.69930 0.35880 0.02000
H 	H 	0.93450 0.72330 0.35380 0.02000
C 	C 	0.87170 0.74540 0.40210 -0.04300
H 	H 	0.88120 0.80070 0.42320 0.02100
C 	C 	0.84180 0.69040 0.55010 -0.23600
C 	C 	0.86380 0.60410 0.56000 0.07100
H 	H 	0.84770 0.54820 0.54840 -0.04500
C 	C 	0.09160 0.40060 0.41340 -0.04600
H 	H 	0.07720 0.46010 0.40760 0.02500
C 	C 	0.08850 0.24410 0.40450 -0.01400
H 	H 	0.07200 0.18950 0.39150 -0.01300
C 	C 	0.86700 0.76790 0.56830 0.04000
H 	H 	0.85420 0.82870 0.56240 -0.03000
N 	N 	0.39100 0.12740 0.32620 -0.20800
N 	N 	0.56750 0.82350 0.39540 -0.21000
C 	C 	0.29290 0.24840 0.45890 0.29100
H 	H 	0.80510 0.81290 0.46710 -0.83700
O 	O 	0.31010 0.33710 0.47510 0.85900
H 	H 	0.28690 0.37250 0.48330 -0.10600
C 	C 	0.24250 0.25970 0.43240 -0.48200
H 	H 	0.24390 0.30020 0.39510 0.17500
H 	H 	0.23050 0.19770 0.41910 0.14200
C 	C 	0.29250 0.19850 0.52110 0.62700
H 	H 	0.28140 0.13330 0.51270 -1.23800
O 	O 	0.72300 0.89880 0.49220 1.32300
H 	H 	0.75300 0.90200 0.49040 -0.33600
C 	C 	0.32660 0.20540 0.41190 -0.07500
C 	C 	0.31530 0.12680 0.38020 -0.05000
H 	H 	0.28510 0.09770 0.38620 0.00300
C 	C 	0.34820 0.08900 0.33870 0.01000
H 	H 	0.33990 0.03270 0.31790 0.01800
C 	C 	0.40300 0.19930 0.35880 0.02000
H 	H 	0.43450 0.22330 0.35380 0.01800
C 	C 	0.37170 0.24540 0.40210 -0.04300
H 	H 	0.38120 0.30070 0.42320 0.02100
C 	C 	0.34180 0.19040 0.55010 -0.23600
C 	C 	0.36380 0.10410 0.56000 0.07000
H 	H 	0.34770 0.04820 0.54840 -0.04500
C 	C 	0.59160 0.90060 0.41340 -0.04500
H 	H 	0.57720 0.96010 0.40760 0.02500
C 	C 	0.58850 0.74410 0.40450 -0.01400
H 	H 	0.57200 0.68950 0.39150 -0.01200
C 	C 	0.36700 0.26790 0.56830 0.04000
H 	H 	0.35420 0.32870 0.56240 -0.03000
N 	N 	0.89100 0.37260 0.67380 -0.20700
N 	N 	0.06750 0.67650 0.60460 -0.21100
C 	C 	0.79290 0.25160 0.54110 0.29100
H 	H 	0.30510 0.68710 0.53290 -0.83700
O 	O 	0.81010 0.16290 0.52490 0.85800
H 	H 	0.78690 0.12750 0.51670 -0.10600
C 	C 	0.74250 0.24030 0.56760 -0.48200
H 	H 	0.74390 0.19980 0.60490 0.17500
H 	H 	0.73050 0.30230 0.58090 0.14200
C 	C 	0.79250 0.30150 0.47890 0.62700
H 	H 	0.78140 0.36670 0.48730 -1.23800
O 	O 	0.22300 0.60120 0.50780 1.32300
H 	H 	0.25300 0.59800 0.50960 -0.33600
C 	C 	0.82660 0.29460 0.58810 -0.07500
C 	C 	0.81530 0.37320 0.61980 -0.05000
H 	H 	0.78510 0.40230 0.61380 0.00300
C 	C 	0.84820 0.41100 0.66130 0.01000
H 	H 	0.83990 0.46730 0.68210 0.01800
C 	C 	0.90300 0.30070 0.64120 0.02000
H 	H 	0.93450 0.27670 0.64620 0.02000
C 	C 	0.87170 0.25460 0.59790 -0.04300
H 	H 	0.88120 0.19930 0.57680 0.02100
C 	C 	0.84180 0.30960 0.44990 -0.23600
C 	C 	0.86380 0.39590 0.44000 0.07100
H 	H 	0.84770 0.45180 0.45160 -0.04500
C 	C 	0.09160 0.59940 0.58660 -0.04600
H 	H 	0.07720 0.53990 0.59240 0.02500
C 	C 	0.08850 0.75590 0.59550 -0.01400
H 	H 	0.07200 0.81050 0.60850 -0.01300
C 	C 	0.86700 0.23210 0.43170 0.04000
H 	H 	0.85420 0.17130 0.43760 -0.03000
N 	N 	0.39100 0.87260 0.67380 -0.20800
N 	N 	0.56750 0.17650 0.60460 -0.21000
C 	C 	0.29290 0.75160 0.54110 0.29100
H 	H 	0.80510 0.18710 0.53290 -0.83700
O 	O 	0.31010 0.66290 0.52490 0.85900
H 	H 	0.28690 0.62750 0.51670 -0.10600
C 	C 	0.24250 0.74030 0.56760 -0.48200
H 	H 	0.24390 0.69980 0.60490 0.17500
H 	H 	0.23050 0.80230 0.58090 0.14200
C 	C 	0.29250 0.80150 0.47890 0.62700
H 	H 	0.28140 0.86670 0.48730 -1.23800
O 	O 	0.72300 0.10120 0.50780 1.32300
H 	H 	0.75300 0.09800 0.50960 -0.33600
C 	C 	0.32660 0.79460 0.58810 -0.07500
C 	C 	0.31530 0.87320 0.61980 -0.05000
H 	H 	0.28510 0.90230 0.61380 0.00300
C 	C 	0.34820 0.91100 0.66130 0.01000
H 	H 	0.33990 0.96730 0.68210 0.01800
C 	C 	0.40300 0.80070 0.64120 0.02000
H 	H 	0.43450 0.77670 0.64620 0.01800
C 	C 	0.37170 0.75460 0.59790 -0.04300
H 	H 	0.38120 0.69930 0.57680 0.02100
C 	C 	0.34180 0.80960 0.44990 -0.23600
C 	C 	0.36380 0.89590 0.44000 0.07000
H 	H 	0.34770 0.95180 0.45160 -0.04500
C 	C 	0.59160 0.09940 0.58660 -0.04500
H 	H 	0.57720 0.03990 0.59240 0.02500
C 	C 	0.58850 0.25590 0.59550 -0.01400
H 	H 	0.57200 0.31050 0.60850 -0.01200
C 	C 	0.36700 0.73210 0.43170 0.04000
H 	H 	0.35420 0.67130 0.43760 -0.03000
N 	N 	0.10900 0.62740 0.17380 -0.20800
N 	N 	0.93250 0.32350 0.10460 -0.20800
C 	C 	0.20710 0.74840 0.04110 0.29100
H 	H 	0.69490 0.31290 0.03290 -0.83700
O 	O 	0.18990 0.83710 0.02490 0.85900
H 	H 	0.21310 0.87250 0.01670 -0.10600
C 	C 	0.25750 0.75970 0.06760 -0.48200
H 	H 	0.25610 0.80020 0.10490 0.17500
H 	H 	0.26950 0.69770 0.08090 0.14200
C 	C 	0.20750 0.69850 0.97890 0.62700
H 	H 	0.21860 0.63330 0.98730 -1.23800
O 	O 	0.77700 0.39880 0.00780 1.32200
H 	H 	0.74700 0.40200 0.00960 -0.33600
C 	C 	0.17340 0.70540 0.08810 -0.07500
C 	C 	0.18470 0.62680 0.11980 -0.05000
H 	H 	0.21490 0.59770 0.11380 0.00300
C 	C 	0.15180 0.58900 0.16130 0.01000
H 	H 	0.16010 0.53270 0.18210 0.01800
C 	C 	0.09700 0.69930 0.14120 0.02000
H 	H 	0.06550 0.72330 0.14620 0.01700
C 	C 	0.12830 0.74540 0.09790 -0.04400
H 	H 	0.11880 0.80070 0.07680 0.02000
C 	C 	0.15820 0.69040 0.94990 -0.23600
C 	C 	0.13620 0.60410 0.94000 0.07000
H 	H 	0.15230 0.54820 0.95160 -0.04500
C 	C 	0.90840 0.40060 0.08660 -0.04500
H 	H 	0.92280 0.46010 0.09240 0.02700
C 	C 	0.91150 0.24410 0.09550 -0.01400
H 	H 	0.92800 0.18950 0.10850 -0.01000
C 	C 	0.13300 0.76790 0.93170 0.03900
H 	H 	0.14580 0.82870 0.93760 -0.03000
N 	N 	0.60900 0.12740 0.17380 -0.20800
N 	N 	0.43250 0.82350 0.10460 -0.21000
C 	C 	0.70710 0.24840 0.04110 0.29200
H 	H 	0.19490 0.81290 0.03290 -0.83700
O 	O 	0.68990 0.33710 0.02490 0.85800
H 	H 	0.71310 0.37250 0.01670 -0.10600
C 	C 	0.75750 0.25970 0.06760 -0.48200
H 	H 	0.75610 0.30020 0.10490 0.17500
H 	H 	0.76950 0.19770 0.08090 0.14200
C 	C 	0.70750 0.19850 0.97890 0.62700
H 	H 	0.71860 0.13330 0.98730 -1.23800
O 	O 	0.27700 0.89880 0.00780 1.32300
H 	H 	0.24700 0.90200 0.00960 -0.33600
C 	C 	0.67340 0.20540 0.08810 -0.07500
C 	C 	0.68470 0.12680 0.11980 -0.05000
H 	H 	0.71490 0.09770 0.11380 0.00400
C 	C 	0.65180 0.08900 0.16130 0.01000
H 	H 	0.66010 0.03270 0.18210 0.01800
C 	C 	0.59700 0.19930 0.14120 0.02000
H 	H 	0.56550 0.22330 0.14620 0.01800
C 	C 	0.62830 0.24540 0.09790 -0.04300
H 	H 	0.61880 0.30070 0.07680 0.02100
C 	C 	0.65820 0.19040 0.94990 -0.23600
C 	C 	0.63620 0.10410 0.94000 0.07000
H 	H 	0.65230 0.04820 0.95160 -0.04500
C 	C 	0.40840 0.90060 0.08660 -0.04500
H 	H 	0.42280 0.96010 0.09240 0.02500
C 	C 	0.41150 0.74410 0.09550 -0.01400
H 	H 	0.42800 0.68950 0.10850 -0.01200
C 	C 	0.63300 0.26790 0.93170 0.04000
H 	H 	0.64580 0.32870 0.93760 -0.03000
N 	N 	0.89100 0.62740 0.17380 -0.20700
N 	N 	0.06750 0.32350 0.10460 -0.21100
C 	C 	0.79290 0.74840 0.04110 0.29100
H 	H 	0.30510 0.31290 0.03290 -0.83700
O 	O 	0.81010 0.83710 0.02490 0.85800
H 	H 	0.78690 0.87250 0.01670 -0.10600
C 	C 	0.74250 0.75970 0.06760 -0.48200
H 	H 	0.74390 0.80020 0.10490 0.17500
H 	H 	0.73050 0.69770 0.08090 0.14200
C 	C 	0.79250 0.69850 0.97890 0.62800
H 	H 	0.78140 0.63330 0.98730 -1.23700
O 	O 	0.22300 0.39880 0.00780 1.32300
H 	H 	0.25300 0.40200 0.00960 -0.33600
C 	C 	0.82660 0.70540 0.08810 -0.07500
C 	C 	0.81530 0.62680 0.11980 -0.05000
H 	H 	0.78510 0.59770 0.11380 0.00300
C 	C 	0.84820 0.58900 0.16130 0.01000
H 	H 	0.83990 0.53270 0.18210 0.01800
C 	C 	0.90300 0.69930 0.14120 0.02000
H 	H 	0.93450 0.72330 0.14620 0.02000
C 	C 	0.87170 0.74540 0.09790 -0.04300
H 	H 	0.88120 0.80070 0.07680 0.02100
C 	C 	0.84180 0.69040 0.94990 -0.23600
C 	C 	0.86380 0.60410 0.94000 0.07100
H 	H 	0.84770 0.54820 0.95160 -0.04500
C 	C 	0.09160 0.40060 0.08660 -0.04500
H 	H 	0.07720 0.46010 0.09240 0.02500
C 	C 	0.08850 0.24410 0.09550 -0.01400
H 	H 	0.07200 0.18950 0.10850 -0.01300
C 	C 	0.86700 0.76790 0.93170 0.04000
H 	H 	0.85420 0.82870 0.93760 -0.03000
N 	N 	0.39100 0.12740 0.17380 -0.20800
N 	N 	0.56750 0.82350 0.10460 -0.21000
C 	C 	0.29290 0.24840 0.04110 0.29200
H 	H 	0.80510 0.81290 0.03290 -0.83700
O 	O 	0.31010 0.33710 0.02490 0.85800
H 	H 	0.28690 0.37250 0.01670 -0.10600
C 	C 	0.24250 0.25970 0.06760 -0.48200
H 	H 	0.24390 0.30020 0.10490 0.17500
H 	H 	0.23050 0.19770 0.08090 0.14200
C 	C 	0.29250 0.19850 0.97890 0.62700
H 	H 	0.28140 0.13330 0.98730 -1.23800
O 	O 	0.72300 0.89880 0.00780 1.32300
H 	H 	0.75300 0.90200 0.00960 -0.33600
C 	C 	0.32660 0.20540 0.08810 -0.07500
C 	C 	0.31530 0.12680 0.11980 -0.05000
H 	H 	0.28510 0.09770 0.11380 0.00400
C 	C 	0.34820 0.08900 0.16130 0.01000
H 	H 	0.33990 0.03270 0.18210 0.01800
C 	C 	0.40300 0.19930 0.14120 0.02000
H 	H 	0.43450 0.22330 0.14620 0.01800
C 	C 	0.37170 0.24540 0.09790 -0.04300
H 	H 	0.38120 0.30070 0.07680 0.02100
C 	C 	0.34180 0.19040 0.94990 -0.23600
C 	C 	0.36380 0.10410 0.94000 0.07000
H 	H 	0.34770 0.04820 0.95160 -0.04500
C 	C 	0.59160 0.90060 0.08660 -0.04500
H 	H 	0.57720 0.96010 0.09240 0.02500
C 	C 	0.58850 0.74410 0.09550 -0.01400
H 	H 	0.57200 0.68950 0.10850 -0.01200
C 	C 	0.36700 0.26790 0.93170 0.04000
H 	H 	0.35420 0.32870 0.93760 -0.03000
N 	N 	0.10900 0.37260 0.67380 -0.20800
N 	N 	0.93250 0.67650 0.60460 -0.20800
C 	C 	0.20710 0.25160 0.54110 0.29200
H 	H 	0.69490 0.68710 0.53290 -0.83700
O 	O 	0.18990 0.16290 0.52490 0.85900
H 	H 	0.21310 0.12750 0.51670 -0.10600
C 	C 	0.25750 0.24030 0.56760 -0.48200
H 	H 	0.25610 0.19980 0.60490 0.17500
H 	H 	0.26950 0.30230 0.58090 0.14200
C 	C 	0.20750 0.30150 0.47890 0.62700
H 	H 	0.21860 0.36670 0.48730 -1.23800
O 	O 	0.77700 0.60120 0.50780 1.32300
H 	H 	0.74700 0.59800 0.50960 -0.33600
C 	C 	0.17340 0.29460 0.58810 -0.07600
C 	C 	0.18470 0.37320 0.61980 -0.05000
H 	H 	0.21490 0.40230 0.61380 0.00300
C 	C 	0.15180 0.41100 0.66130 0.01000
H 	H 	0.16010 0.46730 0.68210 0.01800
C 	C 	0.09700 0.30070 0.64120 0.02000
H 	H 	0.06550 0.27670 0.64620 0.01700
C 	C 	0.12830 0.25460 0.59790 -0.04400
H 	H 	0.11880 0.19930 0.57680 0.02000
C 	C 	0.15820 0.30960 0.44990 -0.23600
C 	C 	0.13620 0.39590 0.44000 0.07000
H 	H 	0.15230 0.45180 0.45160 -0.04500
C 	C 	0.90840 0.59940 0.58660 -0.04500
H 	H 	0.92280 0.53990 0.59240 0.02700
C 	C 	0.91150 0.75590 0.59550 -0.01400
H 	H 	0.92800 0.81050 0.60850 -0.01000
C 	C 	0.13300 0.23210 0.43170 0.03900
H 	H 	0.14580 0.17130 0.43760 -0.03000
N 	N 	0.60900 0.87260 0.67380 -0.20800
N 	N 	0.43250 0.17650 0.60460 -0.21000
C 	C 	0.70710 0.75160 0.54110 0.29100
H 	H 	0.19490 0.18710 0.53290 -0.83700
O 	O 	0.68990 0.66290 0.52490 0.85800
H 	H 	0.71310 0.62750 0.51670 -0.10600
C 	C 	0.75750 0.74030 0.56760 -0.48200
H 	H 	0.75610 0.69980 0.60490 0.17500
H 	H 	0.76950 0.80230 0.58090 0.14200
C 	C 	0.70750 0.80150 0.47890 0.62700
H 	H 	0.71860 0.86670 0.48730 -1.23800
O 	O 	0.27700 0.10120 0.50780 1.32300
H 	H 	0.24700 0.09800 0.50960 -0.33600
C 	C 	0.67340 0.79460 0.58810 -0.07500
C 	C 	0.68470 0.87320 0.61980 -0.05000
H 	H 	0.71490 0.90230 0.61380 0.00300
C 	C 	0.65180 0.91100 0.66130 0.01000
H 	H 	0.66010 0.96730 0.68210 0.01800
C 	C 	0.59700 0.80070 0.64120 0.02000
H 	H 	0.56550 0.77670 0.64620 0.01800
C 	C 	0.62830 0.75460 0.59790 -0.04300
H 	H 	0.61880 0.69930 0.57680 0.02000
C 	C 	0.65820 0.80960 0.44990 -0.23600
C 	C 	0.63620 0.89590 0.44000 0.07000
H 	H 	0.65230 0.95180 0.45160 -0.04500
C 	C 	0.40840 0.09940 0.58660 -0.04500
H 	H 	0.42280 0.03990 0.59240 0.02500
C 	C 	0.41150 0.25590 0.59550 -0.01400
H 	H 	0.42800 0.31050 0.60850 -0.01200
C 	C 	0.63300 0.73210 0.43170 0.04000
H 	H 	0.64580 0.67130 0.43760 -0.03000
N 	N 	0.10900 0.62740 0.32620 -0.20800
N 	N 	0.93250 0.32350 0.39540 -0.20800
C 	C 	0.20710 0.74840 0.45890 0.29200
H 	H 	0.69490 0.31290 0.46710 -0.83700
O 	O 	0.18990 0.83710 0.47510 0.85900
H 	H 	0.21310 0.87250 0.48330 -0.10600
C 	C 	0.25750 0.75970 0.43240 -0.48200
H 	H 	0.25610 0.80020 0.39510 0.17500
H 	H 	0.26950 0.69770 0.41910 0.14200
C 	C 	0.20750 0.69850 0.52110 0.62700
H 	H 	0.21860 0.63330 0.51270 -1.23800
O 	O 	0.77700 0.39880 0.49220 1.32300
H 	H 	0.74700 0.40200 0.49040 -0.33600
C 	C 	0.17340 0.70540 0.41190 -0.07600
C 	C 	0.18470 0.62680 0.38020 -0.05000
H 	H 	0.21490 0.59770 0.38620 0.00300
C 	C 	0.15180 0.58900 0.33870 0.01000
H 	H 	0.16010 0.53270 0.31790 0.01800
C 	C 	0.09700 0.69930 0.35880 0.02000
H 	H 	0.06550 0.72330 0.35380 0.01700
C 	C 	0.12830 0.74540 0.40210 -0.04400
H 	H 	0.11880 0.80070 0.42320 0.02000
C 	C 	0.15820 0.69040 0.55010 -0.23600
C 	C 	0.13620 0.60410 0.56000 0.07000
H 	H 	0.15230 0.54820 0.54840 -0.04500
C 	C 	0.90840 0.40060 0.41340 -0.04500
H 	H 	0.92280 0.46010 0.40760 0.02700
C 	C 	0.91150 0.24410 0.40450 -0.01400
H 	H 	0.92800 0.18950 0.39150 -0.01000
C 	C 	0.13300 0.76790 0.56830 0.03900
H 	H 	0.14580 0.82870 0.56240 -0.03000
N 	N 	0.60900 0.12740 0.32620 -0.20800
N 	N 	0.43250 0.82350 0.39540 -0.21000
C 	C 	0.70710 0.24840 0.45890 0.29100
H 	H 	0.19490 0.81290 0.46710 -0.83700
O 	O 	0.68990 0.33710 0.47510 0.85800
H 	H 	0.71310 0.37250 0.48330 -0.10600
C 	C 	0.75750 0.25970 0.43240 -0.48200
H 	H 	0.75610 0.30020 0.39510 0.17500
H 	H 	0.76950 0.19770 0.41910 0.14200
C 	C 	0.70750 0.19850 0.52110 0.62700
H 	H 	0.71860 0.13330 0.51270 -1.23800
O 	O 	0.27700 0.89880 0.49220 1.32300
H 	H 	0.24700 0.90200 0.49040 -0.33600
C 	C 	0.67340 0.20540 0.41190 -0.07500
C 	C 	0.68470 0.12680 0.38020 -0.05000
H 	H 	0.71490 0.09770 0.38620 0.00300
C 	C 	0.65180 0.08900 0.33870 0.01000
H 	H 	0.66010 0.03270 0.31790 0.01800
C 	C 	0.59700 0.19930 0.35880 0.02000
H 	H 	0.56550 0.22330 0.35380 0.01800
C 	C 	0.62830 0.24540 0.40210 -0.04300
H 	H 	0.61880 0.30070 0.42320 0.02000
C 	C 	0.65820 0.19040 0.55010 -0.23600
C 	C 	0.63620 0.10410 0.56000 0.07000
H 	H 	0.65230 0.04820 0.54840 -0.04500
C 	C 	0.40840 0.90060 0.41340 -0.04500
H 	H 	0.42280 0.96010 0.40760 0.02500
C 	C 	0.41150 0.74410 0.40450 -0.01400
H 	H 	0.42800 0.68950 0.39150 -0.01200
C 	C 	0.63300 0.26790 0.56830 0.04000
H 	H 	0.64580 0.32870 0.56240 -0.03000
N 	N 	0.89100 0.37260 0.82620 -0.20700
N 	N 	0.06750 0.67650 0.89540 -0.21100
C 	C 	0.79290 0.25160 0.95890 0.29100
H 	H 	0.30510 0.68710 0.96710 -0.83700
O 	O 	0.81010 0.16290 0.97510 0.85800
H 	H 	0.78690 0.12750 0.98330 -0.10600
C 	C 	0.74250 0.24030 0.93240 -0.48200
H 	H 	0.74390 0.19980 0.89510 0.17500
H 	H 	0.73050 0.30230 0.91910 0.14200
C 	C 	0.79250 0.30150 0.02110 0.62800
H 	H 	0.78140 0.36670 0.01270 -1.23700
O 	O 	0.22300 0.60120 0.99220 1.32300
H 	H 	0.25300 0.59800 0.99040 -0.33600
C 	C 	0.82660 0.29460 0.91190 -0.07500
C 	C 	0.81530 0.37320 0.88020 -0.05000
H 	H 	0.78510 0.40230 0.88620 0.00300
C 	C 	0.84820 0.41100 0.83870 0.01000
H 	H 	0.83990 0.46730 0.81790 0.01800
C 	C 	0.90300 0.30070 0.85880 0.02000
H 	H 	0.93450 0.27670 0.85380 0.02000
C 	C 	0.87170 0.25460 0.90210 -0.04300
H 	H 	0.88120 0.19930 0.92320 0.02100
C 	C 	0.84180 0.30960 0.05010 -0.23600
C 	C 	0.86380 0.39590 0.06000 0.07100
H 	H 	0.84770 0.45180 0.04840 -0.04500
C 	C 	0.09160 0.59940 0.91340 -0.04500
H 	H 	0.07720 0.53990 0.90760 0.02500
C 	C 	0.08850 0.75590 0.90450 -0.01400
H 	H 	0.07200 0.81050 0.89150 -0.01300
C 	C 	0.86700 0.23210 0.06830 0.04000
H 	H 	0.85420 0.17130 0.06240 -0.03000
N 	N 	0.39100 0.87260 0.82620 -0.20800
N 	N 	0.56750 0.17650 0.89540 -0.21000
C 	C 	0.29290 0.75160 0.95890 0.29200
H 	H 	0.80510 0.18710 0.96710 -0.83700
O 	O 	0.31010 0.66290 0.97510 0.85800
H 	H 	0.28690 0.62750 0.98330 -0.10600
C 	C 	0.24250 0.74030 0.93240 -0.48200
H 	H 	0.24390 0.69980 0.89510 0.17500
H 	H 	0.23050 0.80230 0.91910 0.14200
C 	C 	0.29250 0.80150 0.02110 0.62700
H 	H 	0.28140 0.86670 0.01270 -1.23800
O 	O 	0.72300 0.10120 0.99220 1.32300
H 	H 	0.75300 0.09800 0.99040 -0.33600
C 	C 	0.32660 0.79460 0.91190 -0.07500
C 	C 	0.31530 0.87320 0.88020 -0.05000
H 	H 	0.28510 0.90230 0.88620 0.00400
C 	C 	0.34820 0.91100 0.83870 0.01000
H 	H 	0.33990 0.96730 0.81790 0.01800
C 	C 	0.40300 0.80070 0.85880 0.02000
H 	H 	0.43450 0.77670 0.85380 0.01800
C 	C 	0.37170 0.75460 0.90210 -0.04300
H 	H 	0.38120 0.69930 0.92320 0.02100
C 	C 	0.34180 0.80960 0.05010 -0.23600
C 	C 	0.36380 0.89590 0.06000 0.07000
H 	H 	0.34770 0.95180 0.04840 -0.04500
C 	C 	0.59160 0.09940 0.91340 -0.04500
H 	H 	0.57720 0.03990 0.90760 0.02500
C 	C 	0.58850 0.25590 0.90450 -0.01400
H 	H 	0.57200 0.31050 0.89150 -0.01200
C 	C 	0.36700 0.73210 0.06830 0.04000
H 	H 	0.35420 0.67130 0.06240 -0.03000
Cd	Cd	0.00000 0.66464 0.83405 1.21100
Cl	Cl	-0.00000 0.49480 0.83240 -1.19000
Cd	Cd	0.50000 0.16464 0.83405 1.21200
Cl	Cl	0.50000 0.99480 0.83240 -1.18600
Cd	Cd	0.00000 0.33536 0.33405 1.21000
Cl	Cl	0.00000 0.50520 0.33240 -1.19000
Cd	Cd	0.50000 0.83536 0.33405 1.21200
Cl	Cl	0.50000 0.00520 0.33240 -1.18600
Cd	Cd	0.00000 0.66464 0.66595 1.21000
Cl	Cl	0.00000 0.49480 0.66760 -1.19000
Cd	Cd	0.50000 0.16464 0.66595 1.21200
Cl	Cl	0.50000 0.99480 0.66760 -1.18600
Cd	Cd	0.00000 0.33536 0.16595 1.21100
Cl	Cl	0.00000 0.50520 0.16760 -1.19000
Cd	Cd	0.50000 0.83536 0.16595 1.21200
Cl	Cl	0.50000 0.00520 0.16760 -1.18600
Cd	Cd	0.05959 0.43526 0.75000 1.24200
O 	O 	0.05350 0.67650 0.75000 -0.55400
O 	O 	0.10840 0.56250 0.75000 -0.44700
C 	C 	0.13570 0.71600 0.75000 -0.15600
C 	C 	0.12400 0.81000 0.75000 0.05100
H 	H 	0.09130 0.82830 0.75000 -0.01100
C 	C 	0.16000 0.87870 0.75000 -0.11800
H 	H 	0.15190 0.94310 0.75000 0.05500
C 	C 	0.20760 0.85100 0.75000 0.01800
H 	H 	0.23230 0.89670 0.75000 0.01200
C 	C 	0.21950 0.75480 0.75000 -0.11600
H 	H 	0.25210 0.73580 0.75000 0.05900
C 	C 	0.18300 0.68810 0.75000 0.05100
H 	H 	0.19070 0.62350 0.75000 0.01400
C 	C 	0.09720 0.64470 0.75000 0.40100
Cd	Cd	0.55959 0.93526 0.75000 1.24300
O 	O 	0.55350 0.17650 0.75000 -0.55300
O 	O 	0.60840 0.06250 0.75000 -0.44700
C 	C 	0.63570 0.21600 0.75000 -0.15500
C 	C 	0.62400 0.31000 0.75000 0.05100
H 	H 	0.59130 0.32830 0.75000 -0.01000
C 	C 	0.66000 0.37870 0.75000 -0.11700
H 	H 	0.65190 0.44310 0.75000 0.05500
C 	C 	0.70760 0.35100 0.75000 0.01800
H 	H 	0.73230 0.39670 0.75000 0.01200
C 	C 	0.71950 0.25480 0.75000 -0.11600
H 	H 	0.75210 0.23580 0.75000 0.05900
C 	C 	0.68300 0.18810 0.75000 0.05100
H 	H 	0.69070 0.12350 0.75000 0.01400
C 	C 	0.59720 0.14470 0.75000 0.40100
Cd	Cd	0.94041 0.56474 0.25000 1.24500
O 	O 	0.94650 0.32350 0.25000 -0.54900
O 	O 	0.89160 0.43750 0.25000 -0.44500
C 	C 	0.86430 0.28400 0.25000 -0.15400
C 	C 	0.87600 0.19000 0.25000 0.05000
H 	H 	0.90870 0.17170 0.25000 -0.00900
C 	C 	0.84000 0.12130 0.25000 -0.11600
H 	H 	0.84810 0.05690 0.25000 0.05500
C 	C 	0.79240 0.14900 0.25000 0.01700
H 	H 	0.76770 0.10330 0.25000 0.01200
C 	C 	0.78050 0.24520 0.25000 -0.11500
H 	H 	0.74790 0.26420 0.25000 0.05900
C 	C 	0.81700 0.31190 0.25000 0.05000
H 	H 	0.80930 0.37650 0.25000 0.01500
C 	C 	0.90280 0.35530 0.25000 0.40000
Cd	Cd	0.44041 0.06474 0.25000 1.24300
O 	O 	0.44650 0.82350 0.25000 -0.55300
O 	O 	0.39160 0.93750 0.25000 -0.44700
C 	C 	0.36430 0.78400 0.25000 -0.15500
C 	C 	0.37600 0.69000 0.25000 0.05100
H 	H 	0.40870 0.67170 0.25000 -0.01000
C 	C 	0.34000 0.62130 0.25000 -0.11700
H 	H 	0.34810 0.55690 0.25000 0.05500
C 	C 	0.29240 0.64900 0.25000 0.01800
H 	H 	0.26770 0.60330 0.25000 0.01200
C 	C 	0.28050 0.74520 0.25000 -0.11600
H 	H 	0.24790 0.76420 0.25000 0.05900
C 	C 	0.31700 0.81190 0.25000 0.05100
H 	H 	0.30930 0.87650 0.25000 0.01400
C 	C 	0.40280 0.85530 0.25000 0.40100
Cd	Cd	0.94041 0.43526 0.75000 1.24500
O 	O 	0.94650 0.67650 0.75000 -0.54900
O 	O 	0.89160 0.56250 0.75000 -0.44500
C 	C 	0.86430 0.71600 0.75000 -0.15400
C 	C 	0.87600 0.81000 0.75000 0.05000
H 	H 	0.90870 0.82830 0.75000 -0.00900
C 	C 	0.84000 0.87870 0.75000 -0.11600
H 	H 	0.84810 0.94310 0.75000 0.05500
C 	C 	0.79240 0.85100 0.75000 0.01700
H 	H 	0.76770 0.89670 0.75000 0.01200
C 	C 	0.78050 0.75480 0.75000 -0.11500
H 	H 	0.74790 0.73580 0.75000 0.05900
C 	C 	0.81700 0.68810 0.75000 0.05000
H 	H 	0.80930 0.62350 0.75000 0.01500
C 	C 	0.90280 0.64470 0.75000 0.40000
Cd	Cd	0.44041 0.93526 0.75000 1.24300
O 	O 	0.44650 0.17650 0.75000 -0.55300
O 	O 	0.39160 0.06250 0.75000 -0.44700
C 	C 	0.36430 0.21600 0.75000 -0.15500
C 	C 	0.37600 0.31000 0.75000 0.05100
H 	H 	0.40870 0.32830 0.75000 -0.01000
C 	C 	0.34000 0.37870 0.75000 -0.11700
H 	H 	0.34810 0.44310 0.75000 0.05500
C 	C 	0.29240 0.35100 0.75000 0.01800
H 	H 	0.26770 0.39670 0.75000 0.01200
C 	C 	0.28050 0.25480 0.75000 -0.11600
H 	H 	0.24790 0.23580 0.75000 0.05900
C 	C 	0.31700 0.18810 0.75000 0.05100
H 	H 	0.30930 0.12350 0.75000 0.01400
C 	C 	0.40280 0.14470 0.75000 0.40100
Cd	Cd	0.05959 0.56474 0.25000 1.24200
O 	O 	0.05350 0.32350 0.25000 -0.55400
O 	O 	0.10840 0.43750 0.25000 -0.44700
C 	C 	0.13570 0.28400 0.25000 -0.15600
C 	C 	0.12400 0.19000 0.25000 0.05100
H 	H 	0.09130 0.17170 0.25000 -0.01100
C 	C 	0.16000 0.12130 0.25000 -0.11800
H 	H 	0.15190 0.05690 0.25000 0.05500
C 	C 	0.20760 0.14900 0.25000 0.01800
H 	H 	0.23230 0.10330 0.25000 0.01200
C 	C 	0.21950 0.24520 0.25000 -0.11600
H 	H 	0.25210 0.26420 0.25000 0.05900
C 	C 	0.18300 0.31190 0.25000 0.05100
H 	H 	0.19070 0.37650 0.25000 0.01400
C 	C 	0.09720 0.35530 0.25000 0.40100
Cd	Cd	0.55959 0.06474 0.25000 1.24300
O 	O 	0.55350 0.82350 0.25000 -0.55300
O 	O 	0.60840 0.93750 0.25000 -0.44700
C 	C 	0.63570 0.78400 0.25000 -0.15500
C 	C 	0.62400 0.69000 0.25000 0.05100
H 	H 	0.59130 0.67170 0.25000 -0.01000
C 	C 	0.66000 0.62130 0.25000 -0.11700
H 	H 	0.65190 0.55690 0.25000 0.05500
C 	C 	0.70760 0.64900 0.25000 0.01800
H 	H 	0.73230 0.60330 0.25000 0.01200
C 	C 	0.71950 0.74520 0.25000 -0.11600
H 	H 	0.75210 0.76420 0.25000 0.05900
C 	C 	0.68300 0.81190 0.25000 0.05100
H 	H 	0.69070 0.87650 0.25000 0.01400
C 	C 	0.59720 0.85530 0.25000 0.40100
H 	H 	0.50000 0.96230 0.87370 0.41700
H 	H 	-0.00000 0.46230 0.87370 0.41600
H 	H 	0.50000 0.03770 0.37370 0.41700
H 	H 	0.00000 0.53770 0.37370 0.41600
H 	H 	0.50000 0.96230 0.62630 0.41700
H 	H 	0.00000 0.46230 0.62630 0.41600
H 	H 	0.50000 0.03770 0.12630 0.41700
H 	H 	0.00000 0.53770 0.12630 0.41600
Cl	Cl	-0.00000 0.28800 0.75000 -0.59700
Cl	Cl	0.50000 0.78800 0.75000 -0.59100
Cl	Cl	0.00000 0.71200 0.25000 -0.59700
Cl	Cl	0.50000 0.21200 0.25000 -0.59100
