data_crystal

_cell_length_a 52.02200
_cell_length_b 52.02200
_cell_length_c 42.31600
_cell_angle_alpha 90.00000
_cell_angle_beta  90.00000
_cell_angle_gamma 120.00000

_symmetry_space_group_name_	'P 1'
_symmetry_space_group_name_H-M	'P 1'

loop_
_symmetry_equiv_pos_as_xyz
  x,y,z

loop_
_atom_site_label
_atom_site_type_symbol
_atom_site_fract_x
_atom_site_fract_y
_atom_site_fract_z
_atom_site_charge
Zn	Zn	0.20796 0.35671 0.25799 1.23700
Zn	Zn	0.14742 0.30703 0.28706 1.26000
Zn	Zn	0.36516 0.66092 0.72810 1.13100
O 	O 	0.17654 0.32442 0.32146 -0.49800
O 	O 	0.21832 0.35699 0.30295 -0.47600
O 	O 	0.23388 0.34757 0.23179 -0.47500
O 	O 	0.11605 0.31443 0.29999 -0.49300
O 	O 	0.33101 0.62854 0.69092 -0.50900
O 	O 	0.33910 0.61155 0.73345 -0.53800
O 	O 	0.22039 0.39862 0.24841 -0.52800
O 	O 	0.12827 0.26587 0.27560 -0.49000
O 	O 	0.18239 0.31056 0.26933 -0.43400
C 	C 	0.28431 0.39102 0.54708 0.07600
C 	C 	0.28979 0.37105 0.56337 -0.14200
H 	H 	0.28680 0.35380 0.55350 0.08000
C 	C 	0.29979 0.37688 0.59442 0.07900
C 	C 	0.30431 0.40268 0.60919 -0.13600
H 	H 	0.31100 0.40660 0.63000 0.07500
C 	C 	0.29883 0.42265 0.59290 0.06200
C 	C 	0.28883 0.41682 0.56185 -0.13500
H 	H 	0.28520 0.43020 0.55090 0.07500
C 	C 	0.24957 0.37122 0.45209 -0.00200
C 	C 	0.24170 0.34820 0.47351 -0.05000
H 	H 	0.22910 0.32870 0.46730 0.04900
C 	C 	0.25263 0.35439 0.50420 -0.04600
H 	H 	0.24740 0.33900 0.51850 0.04600
C 	C 	0.27143 0.38358 0.51350 -0.00500
C 	C 	0.27929 0.40658 0.49209 -0.04600
H 	H 	0.29190 0.42610 0.49830 0.04600
C 	C 	0.26837 0.40041 0.46138 -0.05000
H 	H 	0.27360 0.41580 0.44710 0.04800
C 	C 	0.21481 0.35098 0.35695 -0.14600
C 	C 	0.19745 0.33527 0.38269 0.07000
H 	H 	0.17790 0.32040 0.37960 0.02000
C 	C 	0.20933 0.34187 0.41300 -0.13700
H 	H 	0.19770 0.33140 0.43020 0.08000
C 	C 	0.23856 0.36418 0.41756 0.07500
C 	C 	0.25592 0.37989 0.39182 -0.13700
H 	H 	0.27550 0.39480 0.39490 0.08000
C 	C 	0.24405 0.37329 0.36151 0.07100
H 	H 	0.25570 0.38380 0.34430 0.02200
C 	C 	0.20020 0.34619 0.32480 0.45600
C 	C 	0.30605 0.35645 0.61265 -0.01100
C 	C 	0.29349 0.32782 0.60060 -0.03900
H 	H 	0.28270 0.32300 0.58190 0.04100
C 	C 	0.29709 0.30646 0.61652 -0.05600
H 	H 	0.28870 0.28730 0.60850 0.04800
C 	C 	0.31324 0.31372 0.64449 0.00500
C 	C 	0.32580 0.34235 0.65654 -0.05400
H 	H 	0.33660 0.34720 0.67530 0.04500
C 	C 	0.32220 0.36372 0.64062 -0.04100
H 	H 	0.33060 0.38290 0.64870 0.04100
C 	C 	0.31712 0.28841 0.65852 0.06300
C 	C 	0.30435 0.25865 0.65027 -0.11700
H 	H 	0.29210 0.25140 0.63260 0.07000
C 	C 	0.30987 0.23965 0.66839 0.04000
H 	H 	0.30130 0.21970 0.66290 0.03300
C 	C 	0.32816 0.25040 0.69477 -0.12600
C 	C 	0.34093 0.28017 0.70302 0.05900
H 	H 	0.35320 0.28740 0.72070 0.02500
C 	C 	0.33541 0.29917 0.68490 -0.12400
H 	H 	0.34400 0.31910 0.69040 0.07300
C 	C 	0.22500 0.32991 0.21005 0.41800
C 	C 	0.30530 0.45231 0.60860 0.02500
C 	C 	0.32890 0.46710 0.62940 -0.09500
H 	H 	0.34160 0.45970 0.63340 0.05800
C 	C 	0.33360 0.49290 0.64430 0.02600
H 	H 	0.34940 0.50280 0.65820 0.01200
C 	C 	0.31460 0.50390 0.63840 -0.07300
C 	C 	0.29100 0.48910 0.61750 0.00900
H 	H 	0.27830 0.49650 0.61350 0.01400
C 	C 	0.28640 0.46330 0.60260 -0.07700
H 	H 	0.27060 0.45350 0.58870 0.05300
C 	C 	0.31676 0.52858 0.65497 0.19000
C 	C 	0.34114 0.54427 0.67465 -0.27800
H 	H 	0.35430 0.53740 0.67810 0.12600
C 	C 	0.34581 0.57024 0.68914 0.25800
H 	H 	0.36210 0.58070 0.70230 -0.04100
C 	C 	0.32612 0.58053 0.68395 -0.40000
C 	C 	0.30175 0.56484 0.66427 0.27200
H 	H 	0.28860 0.57170 0.66080 -0.04300
C 	C 	0.29707 0.53886 0.64979 -0.28500
H 	H 	0.28080 0.52840 0.63660 0.12800
C 	C 	0.33040 0.60620 0.70440 1.00700
C 	C 	0.25154 0.45922 0.24744 0.10000
H 	H 	0.26190 0.44900 0.24560 0.01100
C 	C 	0.26733 0.48989 0.24739 -0.15100
H 	H 	0.28790 0.49960 0.24560 0.08100
C 	C 	0.30049 0.55750 0.24500 -0.08300
H 	H 	0.31060 0.54760 0.23990 0.05700
C 	C 	0.31591 0.58787 0.24730 -0.00100
H 	H 	0.33650 0.59800 0.24690 0.02600
C 	C 	0.10700 0.20630 0.22281 0.12300
H 	H 	0.11540 0.21670 0.20430 0.00400
C 	C 	0.09090 0.17520 0.22279 -0.17900
H 	H 	0.08760 0.16510 0.20380 0.09500
C 	C 	0.03344 0.10950 0.25790 -0.04300
H 	H 	0.02320 0.11950 0.26200 0.04600
C 	C 	0.01900 0.07940 0.25980 -0.05000
H 	H 	0.99980 0.06900 0.26790 0.04500
O 	O 	0.30530 0.60720 0.70460 -0.52600
O 	O 	0.35290 0.62476 0.70980 -0.56300
C 	C 	0.30570 0.45520 0.64060 -0.00800
H 	H 	0.30270 0.43970 0.65390 0.02800
C 	C 	0.31090 0.48220 0.65240 -0.03600
H 	H 	0.31150 0.48370 0.67430 0.03900
C 	C 	0.30770 0.49920 0.60870 -0.01800
H 	H 	0.30190 0.51120 0.59830 0.03000
C 	C 	0.30860 0.47660 0.59160 -0.02400
H 	H 	0.31130 0.47780 0.56990 0.03400
Zn	Zn	0.64329 0.85126 0.25799 1.23600
Zn	Zn	0.69297 0.84038 0.28706 1.25900
Zn	Zn	0.33908 0.70424 0.72810 1.13000
O 	O 	0.67558 0.85212 0.32146 -0.49900
O 	O 	0.64301 0.86133 0.30295 -0.47700
O 	O 	0.65243 0.88631 0.23179 -0.47600
O 	O 	0.68557 0.80162 0.29999 -0.49400
O 	O 	0.37146 0.70247 0.69092 -0.51000
O 	O 	0.38845 0.72755 0.73345 -0.53900
O 	O 	0.60138 0.82177 0.24841 -0.52900
O 	O 	0.73413 0.86240 0.27560 -0.49100
O 	O 	0.68944 0.87183 0.26933 -0.43500
C 	C 	0.60898 0.89329 0.54708 0.07500
C 	C 	0.62895 0.91874 0.56337 -0.14300
H 	H 	0.64620 0.93300 0.55350 0.07900
C 	C 	0.62312 0.92291 0.59442 0.07800
C 	C 	0.59732 0.90163 0.60919 -0.13700
H 	H 	0.59340 0.90440 0.63000 0.07400
C 	C 	0.57735 0.87618 0.59290 0.06100
C 	C 	0.58318 0.87201 0.56185 -0.13600
H 	H 	0.56980 0.85500 0.55090 0.07400
C 	C 	0.62878 0.87835 0.45209 -0.00300
C 	C 	0.65180 0.89350 0.47351 -0.05100
H 	H 	0.67130 0.90040 0.46730 0.04800
C 	C 	0.64561 0.89824 0.50420 -0.04700
H 	H 	0.66100 0.90840 0.51850 0.04500
C 	C 	0.61642 0.88785 0.51350 -0.00600
C 	C 	0.59342 0.87271 0.49209 -0.04700
H 	H 	0.57390 0.86580 0.49830 0.04500
C 	C 	0.59959 0.86796 0.46138 -0.05100
H 	H 	0.58420 0.85780 0.44710 0.04700
C 	C 	0.64902 0.86383 0.35695 -0.14700
C 	C 	0.66473 0.86218 0.38269 0.06900
H 	H 	0.67960 0.85750 0.37960 0.01900
C 	C 	0.65813 0.86746 0.41300 -0.13800
H 	H 	0.66860 0.86630 0.43020 0.07900
C 	C 	0.63582 0.87438 0.41756 0.07400
C 	C 	0.62011 0.87603 0.39182 -0.13800
H 	H 	0.60520 0.88070 0.39490 0.07900
C 	C 	0.62671 0.87076 0.36151 0.07000
H 	H 	0.61620 0.87190 0.34430 0.02100
C 	C 	0.65381 0.85401 0.32480 0.45500
C 	C 	0.64355 0.94960 0.61265 -0.01200
C 	C 	0.67218 0.96567 0.60060 -0.04000
H 	H 	0.67700 0.95970 0.58190 0.04100
C 	C 	0.69354 0.99063 0.61652 -0.05600
H 	H 	0.71270 0.00140 0.60850 0.04800
C 	C 	0.68628 0.99952 0.64449 0.00500
C 	C 	0.65765 0.98345 0.65654 -0.05400
H 	H 	0.65280 0.98940 0.67530 0.04500
C 	C 	0.63628 0.95848 0.64062 -0.04100
H 	H 	0.61710 0.94770 0.64870 0.04100
C 	C 	0.71159 0.02871 0.65852 0.06300
C 	C 	0.74135 0.04570 0.65027 -0.11700
H 	H 	0.74860 0.04070 0.63260 0.07000
C 	C 	0.76035 0.07022 0.66839 0.04000
H 	H 	0.78030 0.08160 0.66290 0.03300
C 	C 	0.74960 0.07776 0.69477 -0.12600
C 	C 	0.71983 0.06076 0.70302 0.05900
H 	H 	0.71260 0.06580 0.72070 0.02500
C 	C 	0.70083 0.03624 0.68490 -0.12400
H 	H 	0.68090 0.02490 0.69040 0.07300
C 	C 	0.67009 0.89509 0.21005 0.41800
C 	C 	0.54769 0.85299 0.60860 0.02500
C 	C 	0.53290 0.86180 0.62940 -0.09500
H 	H 	0.54030 0.88190 0.63340 0.05800
C 	C 	0.50710 0.84070 0.64430 0.02600
H 	H 	0.49720 0.84660 0.65820 0.01200
C 	C 	0.49610 0.81070 0.63840 -0.07300
C 	C 	0.51090 0.80190 0.61750 0.00900
H 	H 	0.50350 0.78180 0.61350 0.01400
C 	C 	0.53670 0.82310 0.60260 -0.07700
H 	H 	0.54650 0.81710 0.58870 0.05300
C 	C 	0.47142 0.78818 0.65497 0.19000
C 	C 	0.45573 0.79687 0.67465 -0.27800
H 	H 	0.46260 0.81690 0.67810 0.12600
C 	C 	0.42976 0.77557 0.68914 0.25800
H 	H 	0.41930 0.78140 0.70230 -0.04100
C 	C 	0.41947 0.74559 0.68395 -0.40000
C 	C 	0.43516 0.73691 0.66427 0.27200
H 	H 	0.42830 0.71690 0.66080 -0.04300
C 	C 	0.46114 0.75821 0.64979 -0.28500
H 	H 	0.47160 0.75240 0.63660 0.12800
C 	C 	0.39380 0.72420 0.70440 1.00700
C 	C 	0.54078 0.79232 0.24744 0.10000
H 	H 	0.55100 0.81290 0.24560 0.01100
C 	C 	0.51011 0.77744 0.24739 -0.15100
H 	H 	0.50040 0.78830 0.24560 0.08100
C 	C 	0.44250 0.74299 0.24500 -0.08300
H 	H 	0.45240 0.76300 0.23990 0.05700
C 	C 	0.41213 0.72804 0.24730 -0.00100
H 	H 	0.40200 0.73850 0.24690 0.02600
C 	C 	0.79370 0.90070 0.22281 0.12300
H 	H 	0.78330 0.89870 0.20430 0.00400
C 	C 	0.82480 0.91570 0.22279 -0.17900
H 	H 	0.83490 0.92250 0.20380 0.09500
C 	C 	0.89050 0.92394 0.25790 -0.04300
H 	H 	0.88050 0.90370 0.26200 0.04600
C 	C 	0.92060 0.93960 0.25980 -0.05000
H 	H 	0.93100 0.93080 0.26790 0.04500
O 	O 	0.39280 0.69810 0.70460 -0.52600
O 	O 	0.37524 0.72814 0.70980 -0.56300
C 	C 	0.54480 0.85050 0.64060 -0.00800
H 	H 	0.56030 0.86300 0.65390 0.02800
C 	C 	0.51780 0.82870 0.65240 -0.03600
H 	H 	0.51630 0.82780 0.67430 0.03900
C 	C 	0.50080 0.80850 0.60870 -0.01800
H 	H 	0.48880 0.79070 0.59830 0.03000
C 	C 	0.52340 0.83200 0.59160 -0.02400
H 	H 	0.52220 0.83350 0.56990 0.03400
Zn	Zn	0.14874 0.79204 0.25799 1.23600
Zn	Zn	0.15962 0.85258 0.28706 1.25900
Zn	Zn	0.29576 0.63484 0.72810 1.13000
O 	O 	0.14788 0.82346 0.32146 -0.49900
O 	O 	0.13867 0.78168 0.30295 -0.47700
O 	O 	0.11369 0.76612 0.23179 -0.47600
O 	O 	0.19838 0.88395 0.29999 -0.49400
O 	O 	0.29753 0.66899 0.69092 -0.51000
O 	O 	0.27245 0.66090 0.73345 -0.53900
O 	O 	0.17823 0.77961 0.24841 -0.52900
O 	O 	0.13760 0.87173 0.27560 -0.49100
O 	O 	0.12817 0.81761 0.26933 -0.43500
C 	C 	0.10671 0.71569 0.54708 0.07500
C 	C 	0.08126 0.71021 0.56337 -0.14300
H 	H 	0.06700 0.71320 0.55350 0.07900
C 	C 	0.07709 0.70021 0.59442 0.07800
C 	C 	0.09837 0.69569 0.60919 -0.13700
H 	H 	0.09560 0.68900 0.63000 0.07400
C 	C 	0.12382 0.70117 0.59290 0.06100
C 	C 	0.12799 0.71117 0.56185 -0.13600
H 	H 	0.14500 0.71480 0.55090 0.07400
C 	C 	0.12165 0.75043 0.45209 -0.00300
C 	C 	0.10650 0.75830 0.47351 -0.05100
H 	H 	0.09960 0.77090 0.46730 0.04800
C 	C 	0.10176 0.74737 0.50420 -0.04700
H 	H 	0.09160 0.75260 0.51850 0.04500
C 	C 	0.11215 0.72857 0.51350 -0.00600
C 	C 	0.12729 0.72071 0.49209 -0.04700
H 	H 	0.13420 0.70810 0.49830 0.04500
C 	C 	0.13204 0.73163 0.46138 -0.05100
H 	H 	0.14220 0.72640 0.44710 0.04700
C 	C 	0.13617 0.78519 0.35695 -0.14700
C 	C 	0.13782 0.80255 0.38269 0.06900
H 	H 	0.14250 0.82210 0.37960 0.01900
C 	C 	0.13254 0.79067 0.41300 -0.13800
H 	H 	0.13370 0.80230 0.43020 0.07900
C 	C 	0.12562 0.76144 0.41756 0.07400
C 	C 	0.12397 0.74408 0.39182 -0.13800
H 	H 	0.11930 0.72450 0.39490 0.07900
C 	C 	0.12924 0.75595 0.36151 0.07000
H 	H 	0.12810 0.74430 0.34430 0.02100
C 	C 	0.14599 0.79980 0.32480 0.45500
C 	C 	0.05040 0.69395 0.61265 -0.01200
C 	C 	0.03433 0.70651 0.60060 -0.04000
H 	H 	0.04030 0.71730 0.58190 0.04100
C 	C 	0.00937 0.70291 0.61652 -0.05600
H 	H 	0.99860 0.71130 0.60850 0.04800
C 	C 	0.00048 0.68676 0.64449 0.00500
C 	C 	0.01655 0.67420 0.65654 -0.05400
H 	H 	0.01060 0.66340 0.67530 0.04500
C 	C 	0.04152 0.67780 0.64062 -0.04100
H 	H 	0.05230 0.66940 0.64870 0.04100
C 	C 	0.97129 0.68288 0.65852 0.06300
C 	C 	0.95430 0.69565 0.65027 -0.11700
H 	H 	0.95930 0.70790 0.63260 0.07000
C 	C 	0.92978 0.69013 0.66839 0.04000
H 	H 	0.91840 0.69870 0.66290 0.03300
C 	C 	0.92224 0.67184 0.69477 -0.12600
C 	C 	0.93924 0.65907 0.70302 0.05900
H 	H 	0.93420 0.64680 0.72070 0.02500
C 	C 	0.96376 0.66459 0.68490 -0.12400
H 	H 	0.97510 0.65600 0.69040 0.07300
C 	C 	0.10491 0.77500 0.21005 0.41800
C 	C 	0.14701 0.69470 0.60860 0.02500
C 	C 	0.13820 0.67110 0.62940 -0.09500
H 	H 	0.11810 0.65840 0.63340 0.05800
C 	C 	0.15930 0.66640 0.64430 0.02600
H 	H 	0.15340 0.65060 0.65820 0.01200
C 	C 	0.18930 0.68540 0.63840 -0.07300
C 	C 	0.19810 0.70900 0.61750 0.00900
H 	H 	0.21820 0.72170 0.61350 0.01400
C 	C 	0.17690 0.71360 0.60260 -0.07700
H 	H 	0.18290 0.72940 0.58870 0.05300
C 	C 	0.21182 0.68324 0.65497 0.19000
C 	C 	0.20313 0.65886 0.67465 -0.27800
H 	H 	0.18310 0.64570 0.67810 0.12600
C 	C 	0.22443 0.65419 0.68914 0.25800
H 	H 	0.21860 0.63790 0.70230 -0.04100
C 	C 	0.25441 0.67388 0.68395 -0.40000
C 	C 	0.26309 0.69825 0.66427 0.27200
H 	H 	0.28310 0.71140 0.66080 -0.04300
C 	C 	0.24179 0.70293 0.64979 -0.28500
H 	H 	0.24760 0.71920 0.63660 0.12800
C 	C 	0.27580 0.66960 0.70440 1.00700
C 	C 	0.20768 0.74846 0.24744 0.10000
H 	H 	0.18710 0.73810 0.24560 0.01100
C 	C 	0.22256 0.73267 0.24739 -0.15100
H 	H 	0.21170 0.71210 0.24560 0.08100
C 	C 	0.25701 0.69951 0.24500 -0.08300
H 	H 	0.23700 0.68940 0.23990 0.05700
C 	C 	0.27196 0.68409 0.24730 -0.00100
H 	H 	0.26150 0.66350 0.24690 0.02600
C 	C 	0.09930 0.89300 0.22281 0.12300
H 	H 	0.10130 0.88460 0.20430 0.00400
C 	C 	0.08430 0.90910 0.22279 -0.17900
H 	H 	0.07750 0.91240 0.20380 0.09500
C 	C 	0.07606 0.96656 0.25790 -0.04300
H 	H 	0.09630 0.97680 0.26200 0.04600
C 	C 	0.06040 0.98100 0.25980 -0.05000
H 	H 	0.06920 0.00020 0.26790 0.04500
O 	O 	0.30190 0.69470 0.70460 -0.52600
O 	O 	0.27186 0.64710 0.70980 -0.56300
C 	C 	0.14950 0.69430 0.64060 -0.00800
H 	H 	0.13700 0.69730 0.65390 0.02800
C 	C 	0.17130 0.68910 0.65240 -0.03600
H 	H 	0.17220 0.68850 0.67430 0.03900
C 	C 	0.19150 0.69230 0.60870 -0.01800
H 	H 	0.20930 0.69810 0.59830 0.03000
C 	C 	0.16800 0.69140 0.59160 -0.02400
H 	H 	0.16650 0.68870 0.56990 0.03400
Zn	Zn	0.64329 0.79204 0.24201 1.23600
Zn	Zn	0.69297 0.85258 0.21294 1.25900
Zn	Zn	0.33908 0.63484 0.77190 1.13000
O 	O 	0.67558 0.82346 0.17854 -0.49900
O 	O 	0.64301 0.78168 0.19705 -0.47700
O 	O 	0.65243 0.76612 0.26821 -0.47600
O 	O 	0.68557 0.88395 0.20001 -0.49400
O 	O 	0.37146 0.66899 0.80908 -0.51000
O 	O 	0.38845 0.66090 0.76655 -0.53900
O 	O 	0.60138 0.77961 0.25159 -0.52900
O 	O 	0.73413 0.87173 0.22440 -0.49100
O 	O 	0.68944 0.81761 0.23067 -0.43500
C 	C 	0.60898 0.71569 0.95292 0.07500
C 	C 	0.62895 0.71021 0.93663 -0.14300
H 	H 	0.64620 0.71320 0.94650 0.07900
C 	C 	0.62312 0.70021 0.90558 0.07800
C 	C 	0.59732 0.69569 0.89081 -0.13700
H 	H 	0.59340 0.68900 0.87000 0.07400
C 	C 	0.57735 0.70117 0.90710 0.06100
C 	C 	0.58318 0.71117 0.93815 -0.13600
H 	H 	0.56980 0.71480 0.94910 0.07400
C 	C 	0.62878 0.75043 0.04791 -0.00300
C 	C 	0.65180 0.75830 0.02649 -0.05100
H 	H 	0.67130 0.77090 0.03270 0.04800
C 	C 	0.64561 0.74737 0.99580 -0.04700
H 	H 	0.66100 0.75260 0.98150 0.04500
C 	C 	0.61642 0.72857 0.98650 -0.00600
C 	C 	0.59342 0.72071 0.00791 -0.04700
H 	H 	0.57390 0.70810 0.00170 0.04500
C 	C 	0.59959 0.73163 0.03862 -0.05100
H 	H 	0.58420 0.72640 0.05290 0.04700
C 	C 	0.64902 0.78519 0.14305 -0.14700
C 	C 	0.66473 0.80255 0.11731 0.06900
H 	H 	0.67960 0.82210 0.12040 0.01900
C 	C 	0.65813 0.79067 0.08700 -0.13800
H 	H 	0.66860 0.80230 0.06980 0.07900
C 	C 	0.63582 0.76144 0.08244 0.07400
C 	C 	0.62011 0.74408 0.10818 -0.13800
H 	H 	0.60520 0.72450 0.10510 0.07900
C 	C 	0.62671 0.75595 0.13849 0.07000
H 	H 	0.61620 0.74430 0.15570 0.02100
C 	C 	0.65381 0.79980 0.17520 0.45500
C 	C 	0.64355 0.69395 0.88735 -0.01200
C 	C 	0.67218 0.70651 0.89940 -0.04000
H 	H 	0.67700 0.71730 0.91810 0.04100
C 	C 	0.69354 0.70291 0.88348 -0.05600
H 	H 	0.71270 0.71130 0.89150 0.04800
C 	C 	0.68628 0.68676 0.85551 0.00500
C 	C 	0.65765 0.67420 0.84346 -0.05400
H 	H 	0.65280 0.66340 0.82470 0.04500
C 	C 	0.63628 0.67780 0.85938 -0.04100
H 	H 	0.61710 0.66940 0.85130 0.04100
C 	C 	0.71159 0.68288 0.84148 0.06300
C 	C 	0.74135 0.69565 0.84973 -0.11700
H 	H 	0.74860 0.70790 0.86740 0.07000
C 	C 	0.76035 0.69013 0.83161 0.04000
H 	H 	0.78030 0.69870 0.83710 0.03300
C 	C 	0.74960 0.67184 0.80523 -0.12600
C 	C 	0.71983 0.65907 0.79698 0.05900
H 	H 	0.71260 0.64680 0.77930 0.02500
C 	C 	0.70083 0.66459 0.81510 -0.12400
H 	H 	0.68090 0.65600 0.80960 0.07300
C 	C 	0.67009 0.77500 0.28995 0.41800
C 	C 	0.54769 0.69470 0.89140 0.02500
C 	C 	0.53290 0.67110 0.87060 -0.09500
H 	H 	0.54030 0.65840 0.86660 0.05800
C 	C 	0.50710 0.66640 0.85570 0.02600
H 	H 	0.49720 0.65060 0.84180 0.01200
C 	C 	0.49610 0.68540 0.86160 -0.07300
C 	C 	0.51090 0.70900 0.88250 0.00900
H 	H 	0.50350 0.72170 0.88650 0.01400
C 	C 	0.53670 0.71360 0.89740 -0.07700
H 	H 	0.54650 0.72940 0.91130 0.05300
C 	C 	0.47142 0.68324 0.84503 0.19000
C 	C 	0.45573 0.65886 0.82535 -0.27800
H 	H 	0.46260 0.64570 0.82190 0.12600
C 	C 	0.42976 0.65419 0.81086 0.25800
H 	H 	0.41930 0.63790 0.79770 -0.04100
C 	C 	0.41947 0.67388 0.81605 -0.40000
C 	C 	0.43516 0.69825 0.83573 0.27200
H 	H 	0.42830 0.71140 0.83920 -0.04300
C 	C 	0.46114 0.70293 0.85021 -0.28500
H 	H 	0.47160 0.71920 0.86340 0.12800
C 	C 	0.39380 0.66960 0.79560 1.00700
C 	C 	0.54078 0.74846 0.25256 0.10000
H 	H 	0.55100 0.73810 0.25440 0.01100
C 	C 	0.51011 0.73267 0.25261 -0.15100
H 	H 	0.50040 0.71210 0.25440 0.08100
C 	C 	0.44250 0.69951 0.25500 -0.08300
H 	H 	0.45240 0.68940 0.26010 0.05700
C 	C 	0.41213 0.68409 0.25270 -0.00100
H 	H 	0.40200 0.66350 0.25310 0.02600
C 	C 	0.79370 0.89300 0.27719 0.12300
H 	H 	0.78330 0.88460 0.29570 0.00400
C 	C 	0.82480 0.90910 0.27721 -0.17900
H 	H 	0.83490 0.91240 0.29620 0.09500
C 	C 	0.89050 0.96656 0.24210 -0.04300
H 	H 	0.88050 0.97680 0.23800 0.04600
C 	C 	0.92060 0.98100 0.24020 -0.05000
H 	H 	0.93100 0.00020 0.23210 0.04500
O 	O 	0.39280 0.69470 0.79540 -0.52600
O 	O 	0.37524 0.64710 0.79020 -0.56300
C 	C 	0.54480 0.69430 0.85940 -0.00800
H 	H 	0.56030 0.69730 0.84610 0.02800
C 	C 	0.51780 0.68910 0.84760 -0.03600
H 	H 	0.51630 0.68850 0.82570 0.03900
C 	C 	0.50080 0.69230 0.89130 -0.01800
H 	H 	0.48880 0.69810 0.90170 0.03000
C 	C 	0.52340 0.69140 0.90840 -0.02400
H 	H 	0.52220 0.68870 0.93010 0.03400
Zn	Zn	0.14874 0.35671 0.24201 1.23600
Zn	Zn	0.15962 0.30703 0.21294 1.25900
Zn	Zn	0.29576 0.66092 0.77190 1.13000
O 	O 	0.14788 0.32442 0.17854 -0.49900
O 	O 	0.13867 0.35699 0.19705 -0.47700
O 	O 	0.11369 0.34757 0.26821 -0.47600
O 	O 	0.19838 0.31443 0.20001 -0.49400
O 	O 	0.29753 0.62854 0.80908 -0.51000
O 	O 	0.27245 0.61155 0.76655 -0.53900
O 	O 	0.17823 0.39862 0.25159 -0.52900
O 	O 	0.13760 0.26587 0.22440 -0.49100
O 	O 	0.12817 0.31056 0.23067 -0.43500
C 	C 	0.10671 0.39102 0.95292 0.07500
C 	C 	0.08126 0.37105 0.93663 -0.14300
H 	H 	0.06700 0.35380 0.94650 0.07900
C 	C 	0.07709 0.37688 0.90558 0.07800
C 	C 	0.09837 0.40268 0.89081 -0.13700
H 	H 	0.09560 0.40660 0.87000 0.07400
C 	C 	0.12382 0.42265 0.90710 0.06100
C 	C 	0.12799 0.41682 0.93815 -0.13600
H 	H 	0.14500 0.43020 0.94910 0.07400
C 	C 	0.12165 0.37122 0.04791 -0.00300
C 	C 	0.10650 0.34820 0.02649 -0.05100
H 	H 	0.09960 0.32870 0.03270 0.04800
C 	C 	0.10176 0.35439 0.99580 -0.04700
H 	H 	0.09160 0.33900 0.98150 0.04500
C 	C 	0.11215 0.38358 0.98650 -0.00600
C 	C 	0.12729 0.40658 0.00791 -0.04700
H 	H 	0.13420 0.42610 0.00170 0.04500
C 	C 	0.13204 0.40041 0.03862 -0.05100
H 	H 	0.14220 0.41580 0.05290 0.04700
C 	C 	0.13617 0.35098 0.14305 -0.14700
C 	C 	0.13782 0.33527 0.11731 0.06900
H 	H 	0.14250 0.32040 0.12040 0.01900
C 	C 	0.13254 0.34187 0.08700 -0.13800
H 	H 	0.13370 0.33140 0.06980 0.07900
C 	C 	0.12562 0.36418 0.08244 0.07400
C 	C 	0.12397 0.37989 0.10818 -0.13800
H 	H 	0.11930 0.39480 0.10510 0.07900
C 	C 	0.12924 0.37329 0.13849 0.07000
H 	H 	0.12810 0.38380 0.15570 0.02100
C 	C 	0.14599 0.34619 0.17520 0.45500
C 	C 	0.05040 0.35645 0.88735 -0.01200
C 	C 	0.03433 0.32782 0.89940 -0.04000
H 	H 	0.04030 0.32300 0.91810 0.04100
C 	C 	0.00937 0.30646 0.88348 -0.05600
H 	H 	0.99860 0.28730 0.89150 0.04800
C 	C 	0.00048 0.31372 0.85551 0.00500
C 	C 	0.01655 0.34235 0.84346 -0.05400
H 	H 	0.01060 0.34720 0.82470 0.04500
C 	C 	0.04152 0.36372 0.85938 -0.04100
H 	H 	0.05230 0.38290 0.85130 0.04100
C 	C 	0.97129 0.28841 0.84148 0.06300
C 	C 	0.95430 0.25865 0.84973 -0.11700
H 	H 	0.95930 0.25140 0.86740 0.07000
C 	C 	0.92978 0.23965 0.83161 0.04000
H 	H 	0.91840 0.21970 0.83710 0.03300
C 	C 	0.92224 0.25040 0.80523 -0.12600
C 	C 	0.93924 0.28017 0.79698 0.05900
H 	H 	0.93420 0.28740 0.77930 0.02500
C 	C 	0.96376 0.29917 0.81510 -0.12400
H 	H 	0.97510 0.31910 0.80960 0.07300
C 	C 	0.10491 0.32991 0.28995 0.41800
C 	C 	0.14701 0.45231 0.89140 0.02500
C 	C 	0.13820 0.46710 0.87060 -0.09500
H 	H 	0.11810 0.45970 0.86660 0.05800
C 	C 	0.15930 0.49290 0.85570 0.02600
H 	H 	0.15340 0.50280 0.84180 0.01200
C 	C 	0.18930 0.50390 0.86160 -0.07300
C 	C 	0.19810 0.48910 0.88250 0.00900
H 	H 	0.21820 0.49650 0.88650 0.01400
C 	C 	0.17690 0.46330 0.89740 -0.07700
H 	H 	0.18290 0.45350 0.91130 0.05300
C 	C 	0.21182 0.52858 0.84503 0.19000
C 	C 	0.20313 0.54427 0.82535 -0.27800
H 	H 	0.18310 0.53740 0.82190 0.12600
C 	C 	0.22443 0.57024 0.81086 0.25800
H 	H 	0.21860 0.58070 0.79770 -0.04100
C 	C 	0.25441 0.58053 0.81605 -0.40000
C 	C 	0.26309 0.56484 0.83573 0.27200
H 	H 	0.28310 0.57170 0.83920 -0.04300
C 	C 	0.24179 0.53886 0.85021 -0.28500
H 	H 	0.24760 0.52840 0.86340 0.12800
C 	C 	0.27580 0.60620 0.79560 1.00700
C 	C 	0.20768 0.45922 0.25256 0.10000
H 	H 	0.18710 0.44900 0.25440 0.01100
C 	C 	0.22256 0.48989 0.25261 -0.15100
H 	H 	0.21170 0.49960 0.25440 0.08100
C 	C 	0.25701 0.55750 0.25500 -0.08300
H 	H 	0.23700 0.54760 0.26010 0.05700
C 	C 	0.27196 0.58787 0.25270 -0.00100
H 	H 	0.26150 0.59800 0.25310 0.02600
C 	C 	0.09930 0.20630 0.27719 0.12300
H 	H 	0.10130 0.21670 0.29570 0.00400
C 	C 	0.08430 0.17520 0.27721 -0.17900
H 	H 	0.07750 0.16510 0.29620 0.09500
C 	C 	0.07606 0.10950 0.24210 -0.04300
H 	H 	0.09630 0.11950 0.23800 0.04600
C 	C 	0.06040 0.07940 0.24020 -0.05000
H 	H 	0.06920 0.06900 0.23210 0.04500
O 	O 	0.30190 0.60720 0.79540 -0.52600
O 	O 	0.27186 0.62476 0.79020 -0.56300
C 	C 	0.14950 0.45520 0.85940 -0.00800
H 	H 	0.13700 0.43970 0.84610 0.02800
C 	C 	0.17130 0.48220 0.84760 -0.03600
H 	H 	0.17220 0.48370 0.82570 0.03900
C 	C 	0.19150 0.49920 0.89130 -0.01800
H 	H 	0.20930 0.51120 0.90170 0.03000
C 	C 	0.16800 0.47660 0.90840 -0.02400
H 	H 	0.16650 0.47780 0.93010 0.03400
Zn	Zn	0.20796 0.85126 0.24201 1.23600
Zn	Zn	0.14742 0.84038 0.21294 1.25900
Zn	Zn	0.36516 0.70424 0.77190 1.13000
O 	O 	0.17654 0.85212 0.17854 -0.49900
O 	O 	0.21832 0.86133 0.19705 -0.47700
O 	O 	0.23388 0.88631 0.26821 -0.47600
O 	O 	0.11605 0.80162 0.20001 -0.49400
O 	O 	0.33101 0.70247 0.80908 -0.51000
O 	O 	0.33910 0.72755 0.76655 -0.53900
O 	O 	0.22039 0.82177 0.25159 -0.52900
O 	O 	0.12827 0.86240 0.22440 -0.49100
O 	O 	0.18239 0.87183 0.23067 -0.43500
C 	C 	0.28431 0.89329 0.95292 0.07500
C 	C 	0.28979 0.91874 0.93663 -0.14300
H 	H 	0.28680 0.93300 0.94650 0.07900
C 	C 	0.29979 0.92291 0.90558 0.07800
C 	C 	0.30431 0.90163 0.89081 -0.13700
H 	H 	0.31100 0.90440 0.87000 0.07400
C 	C 	0.29883 0.87618 0.90710 0.06100
C 	C 	0.28883 0.87201 0.93815 -0.13600
H 	H 	0.28520 0.85500 0.94910 0.07400
C 	C 	0.24957 0.87835 0.04791 -0.00300
C 	C 	0.24170 0.89350 0.02649 -0.05100
H 	H 	0.22910 0.90040 0.03270 0.04800
C 	C 	0.25263 0.89824 0.99580 -0.04700
H 	H 	0.24740 0.90840 0.98150 0.04500
C 	C 	0.27143 0.88785 0.98650 -0.00600
C 	C 	0.27929 0.87271 0.00791 -0.04700
H 	H 	0.29190 0.86580 0.00170 0.04500
C 	C 	0.26837 0.86796 0.03862 -0.05100
H 	H 	0.27360 0.85780 0.05290 0.04700
C 	C 	0.21481 0.86383 0.14305 -0.14700
C 	C 	0.19745 0.86218 0.11731 0.06900
H 	H 	0.17790 0.85750 0.12040 0.01900
C 	C 	0.20933 0.86746 0.08700 -0.13800
H 	H 	0.19770 0.86630 0.06980 0.07900
C 	C 	0.23856 0.87438 0.08244 0.07400
C 	C 	0.25592 0.87603 0.10818 -0.13800
H 	H 	0.27550 0.88070 0.10510 0.07900
C 	C 	0.24405 0.87076 0.13849 0.07000
H 	H 	0.25570 0.87190 0.15570 0.02100
C 	C 	0.20020 0.85401 0.17520 0.45500
C 	C 	0.30605 0.94960 0.88735 -0.01200
C 	C 	0.29349 0.96567 0.89940 -0.04000
H 	H 	0.28270 0.95970 0.91810 0.04100
C 	C 	0.29709 0.99063 0.88348 -0.05600
H 	H 	0.28870 0.00140 0.89150 0.04800
C 	C 	0.31324 0.99952 0.85551 0.00500
C 	C 	0.32580 0.98345 0.84346 -0.05400
H 	H 	0.33660 0.98940 0.82470 0.04500
C 	C 	0.32220 0.95848 0.85938 -0.04100
H 	H 	0.33060 0.94770 0.85130 0.04100
C 	C 	0.31712 0.02871 0.84148 0.06300
C 	C 	0.30435 0.04570 0.84973 -0.11700
H 	H 	0.29210 0.04070 0.86740 0.07000
C 	C 	0.30987 0.07022 0.83161 0.04000
H 	H 	0.30130 0.08160 0.83710 0.03300
C 	C 	0.32816 0.07776 0.80523 -0.12600
C 	C 	0.34093 0.06076 0.79698 0.05900
H 	H 	0.35320 0.06580 0.77930 0.02500
C 	C 	0.33541 0.03624 0.81510 -0.12400
H 	H 	0.34400 0.02490 0.80960 0.07300
C 	C 	0.22500 0.89509 0.28995 0.41800
C 	C 	0.30530 0.85299 0.89140 0.02500
C 	C 	0.32890 0.86180 0.87060 -0.09500
H 	H 	0.34160 0.88190 0.86660 0.05800
C 	C 	0.33360 0.84070 0.85570 0.02600
H 	H 	0.34940 0.84660 0.84180 0.01200
C 	C 	0.31460 0.81070 0.86160 -0.07300
C 	C 	0.29100 0.80190 0.88250 0.00900
H 	H 	0.27830 0.78180 0.88650 0.01400
C 	C 	0.28640 0.82310 0.89740 -0.07700
H 	H 	0.27060 0.81710 0.91130 0.05300
C 	C 	0.31676 0.78818 0.84503 0.19000
C 	C 	0.34114 0.79687 0.82535 -0.27800
H 	H 	0.35430 0.81690 0.82190 0.12600
C 	C 	0.34581 0.77557 0.81086 0.25800
H 	H 	0.36210 0.78140 0.79770 -0.04100
C 	C 	0.32612 0.74559 0.81605 -0.40000
C 	C 	0.30175 0.73691 0.83573 0.27200
H 	H 	0.28860 0.71690 0.83920 -0.04300
C 	C 	0.29707 0.75821 0.85021 -0.28500
H 	H 	0.28080 0.75240 0.86340 0.12800
C 	C 	0.33040 0.72420 0.79560 1.00700
C 	C 	0.25154 0.79232 0.25256 0.10000
H 	H 	0.26190 0.81290 0.25440 0.01100
C 	C 	0.26733 0.77744 0.25261 -0.15100
H 	H 	0.28790 0.78830 0.25440 0.08100
C 	C 	0.30049 0.74299 0.25500 -0.08300
H 	H 	0.31060 0.76300 0.26010 0.05700
C 	C 	0.31591 0.72804 0.25270 -0.00100
H 	H 	0.33650 0.73850 0.25310 0.02600
C 	C 	0.10700 0.90070 0.27719 0.12300
H 	H 	0.11540 0.89870 0.29570 0.00400
C 	C 	0.09090 0.91570 0.27721 -0.17900
H 	H 	0.08760 0.92250 0.29620 0.09500
C 	C 	0.03344 0.92394 0.24210 -0.04300
H 	H 	0.02320 0.90370 0.23800 0.04600
C 	C 	0.01900 0.93960 0.24020 -0.05000
H 	H 	0.99980 0.93080 0.23210 0.04500
O 	O 	0.30530 0.69810 0.79540 -0.52600
O 	O 	0.35290 0.72814 0.79020 -0.56300
C 	C 	0.30570 0.85050 0.85940 -0.00800
H 	H 	0.30270 0.86300 0.84610 0.02800
C 	C 	0.31090 0.82870 0.84760 -0.03600
H 	H 	0.31150 0.82780 0.82570 0.03900
C 	C 	0.30770 0.80850 0.89130 -0.01800
H 	H 	0.30190 0.79070 0.90170 0.03000
C 	C 	0.30860 0.83200 0.90840 -0.02400
H 	H 	0.31130 0.83350 0.93010 0.03400
Zn	Zn	0.79204 0.64329 0.74201 1.23600
Zn	Zn	0.85258 0.69297 0.71294 1.25900
Zn	Zn	0.63484 0.33908 0.27190 1.13000
O 	O 	0.82346 0.67558 0.67854 -0.49900
O 	O 	0.78168 0.64301 0.69705 -0.47700
O 	O 	0.76612 0.65243 0.76821 -0.47600
O 	O 	0.88395 0.68557 0.70001 -0.49400
O 	O 	0.66899 0.37146 0.30908 -0.51000
O 	O 	0.66090 0.38845 0.26655 -0.53900
O 	O 	0.77961 0.60138 0.75159 -0.52900
O 	O 	0.87173 0.73413 0.72440 -0.49100
O 	O 	0.81761 0.68944 0.73067 -0.43500
C 	C 	0.71569 0.60898 0.45292 0.07500
C 	C 	0.71021 0.62895 0.43663 -0.14300
H 	H 	0.71320 0.64620 0.44650 0.07900
C 	C 	0.70021 0.62312 0.40558 0.07800
C 	C 	0.69569 0.59732 0.39081 -0.13700
H 	H 	0.68900 0.59340 0.37000 0.07400
C 	C 	0.70117 0.57735 0.40710 0.06100
C 	C 	0.71117 0.58318 0.43815 -0.13600
H 	H 	0.71480 0.56980 0.44910 0.07400
C 	C 	0.75043 0.62878 0.54791 -0.00300
C 	C 	0.75830 0.65180 0.52649 -0.05100
H 	H 	0.77090 0.67130 0.53270 0.04800
C 	C 	0.74737 0.64561 0.49580 -0.04700
H 	H 	0.75260 0.66100 0.48150 0.04500
C 	C 	0.72857 0.61642 0.48650 -0.00600
C 	C 	0.72071 0.59342 0.50791 -0.04700
H 	H 	0.70810 0.57390 0.50170 0.04500
C 	C 	0.73163 0.59959 0.53862 -0.05100
H 	H 	0.72640 0.58420 0.55290 0.04700
C 	C 	0.78519 0.64902 0.64305 -0.14700
C 	C 	0.80255 0.66473 0.61731 0.06900
H 	H 	0.82210 0.67960 0.62040 0.01900
C 	C 	0.79067 0.65813 0.58700 -0.13800
H 	H 	0.80230 0.66860 0.56980 0.07900
C 	C 	0.76144 0.63582 0.58244 0.07400
C 	C 	0.74408 0.62011 0.60818 -0.13800
H 	H 	0.72450 0.60520 0.60510 0.07900
C 	C 	0.75595 0.62671 0.63849 0.07000
H 	H 	0.74430 0.61620 0.65570 0.02100
C 	C 	0.79980 0.65381 0.67520 0.45500
C 	C 	0.69395 0.64355 0.38735 -0.01200
C 	C 	0.70651 0.67218 0.39940 -0.04000
H 	H 	0.71730 0.67700 0.41810 0.04100
C 	C 	0.70291 0.69354 0.38348 -0.05600
H 	H 	0.71130 0.71270 0.39150 0.04800
C 	C 	0.68676 0.68628 0.35551 0.00500
C 	C 	0.67420 0.65765 0.34346 -0.05400
H 	H 	0.66340 0.65280 0.32470 0.04500
C 	C 	0.67780 0.63628 0.35938 -0.04100
H 	H 	0.66940 0.61710 0.35130 0.04100
C 	C 	0.68288 0.71159 0.34148 0.06300
C 	C 	0.69565 0.74135 0.34973 -0.11700
H 	H 	0.70790 0.74860 0.36740 0.07000
C 	C 	0.69013 0.76035 0.33161 0.04000
H 	H 	0.69870 0.78030 0.33710 0.03300
C 	C 	0.67184 0.74960 0.30523 -0.12600
C 	C 	0.65907 0.71983 0.29698 0.05900
H 	H 	0.64680 0.71260 0.27930 0.02500
C 	C 	0.66459 0.70083 0.31510 -0.12400
H 	H 	0.65600 0.68090 0.30960 0.07300
C 	C 	0.77500 0.67009 0.78995 0.41800
C 	C 	0.69470 0.54769 0.39140 0.02500
C 	C 	0.67110 0.53290 0.37060 -0.09500
H 	H 	0.65840 0.54030 0.36660 0.05800
C 	C 	0.66640 0.50710 0.35570 0.02600
H 	H 	0.65060 0.49720 0.34180 0.01200
C 	C 	0.68540 0.49610 0.36160 -0.07300
C 	C 	0.70900 0.51090 0.38250 0.00900
H 	H 	0.72170 0.50350 0.38650 0.01400
C 	C 	0.71360 0.53670 0.39740 -0.07700
H 	H 	0.72940 0.54650 0.41130 0.05300
C 	C 	0.68324 0.47142 0.34503 0.19000
C 	C 	0.65886 0.45573 0.32535 -0.27800
H 	H 	0.64570 0.46260 0.32190 0.12600
C 	C 	0.65419 0.42976 0.31086 0.25800
H 	H 	0.63790 0.41930 0.29770 -0.04100
C 	C 	0.67388 0.41947 0.31605 -0.40000
C 	C 	0.69825 0.43516 0.33573 0.27200
H 	H 	0.71140 0.42830 0.33920 -0.04300
C 	C 	0.70293 0.46114 0.35021 -0.28500
H 	H 	0.71920 0.47160 0.36340 0.12800
C 	C 	0.66960 0.39380 0.29560 1.00700
C 	C 	0.74846 0.54078 0.75256 0.10000
H 	H 	0.73810 0.55100 0.75440 0.01100
C 	C 	0.73267 0.51011 0.75261 -0.15100
H 	H 	0.71210 0.50040 0.75440 0.08100
C 	C 	0.69951 0.44250 0.75500 -0.08300
H 	H 	0.68940 0.45240 0.76010 0.05700
C 	C 	0.68409 0.41213 0.75270 -0.00100
H 	H 	0.66350 0.40200 0.75310 0.02600
C 	C 	0.89300 0.79370 0.77719 0.12300
H 	H 	0.88460 0.78330 0.79570 0.00400
C 	C 	0.90910 0.82480 0.77721 -0.17900
H 	H 	0.91240 0.83490 0.79620 0.09500
C 	C 	0.96656 0.89050 0.74210 -0.04300
H 	H 	0.97680 0.88050 0.73800 0.04600
C 	C 	0.98100 0.92060 0.74020 -0.05000
H 	H 	0.00020 0.93100 0.73210 0.04500
O 	O 	0.69470 0.39280 0.29540 -0.52600
O 	O 	0.64710 0.37524 0.29020 -0.56300
C 	C 	0.69430 0.54480 0.35940 -0.00800
H 	H 	0.69730 0.56030 0.34610 0.02800
C 	C 	0.68910 0.51780 0.34760 -0.03600
H 	H 	0.68850 0.51630 0.32570 0.03900
C 	C 	0.69230 0.50080 0.39130 -0.01800
H 	H 	0.69810 0.48880 0.40170 0.03000
C 	C 	0.69140 0.52340 0.40840 -0.02400
H 	H 	0.68870 0.52220 0.43010 0.03400
Zn	Zn	0.35671 0.14874 0.74201 1.23600
Zn	Zn	0.30703 0.15962 0.71294 1.25900
Zn	Zn	0.66092 0.29576 0.27190 1.13000
O 	O 	0.32442 0.14788 0.67854 -0.49900
O 	O 	0.35699 0.13867 0.69705 -0.47700
O 	O 	0.34757 0.11369 0.76821 -0.47600
O 	O 	0.31443 0.19838 0.70001 -0.49400
O 	O 	0.62854 0.29753 0.30908 -0.51000
O 	O 	0.61155 0.27245 0.26655 -0.53900
O 	O 	0.39862 0.17823 0.75159 -0.52900
O 	O 	0.26587 0.13760 0.72440 -0.49100
O 	O 	0.31056 0.12817 0.73067 -0.43500
C 	C 	0.39102 0.10671 0.45292 0.07500
C 	C 	0.37105 0.08126 0.43663 -0.14300
H 	H 	0.35380 0.06700 0.44650 0.07900
C 	C 	0.37688 0.07709 0.40558 0.07800
C 	C 	0.40268 0.09837 0.39081 -0.13700
H 	H 	0.40660 0.09560 0.37000 0.07400
C 	C 	0.42265 0.12382 0.40710 0.06100
C 	C 	0.41682 0.12799 0.43815 -0.13600
H 	H 	0.43020 0.14500 0.44910 0.07400
C 	C 	0.37122 0.12165 0.54791 -0.00300
C 	C 	0.34820 0.10650 0.52649 -0.05100
H 	H 	0.32870 0.09960 0.53270 0.04800
C 	C 	0.35439 0.10176 0.49580 -0.04700
H 	H 	0.33900 0.09160 0.48150 0.04500
C 	C 	0.38358 0.11215 0.48650 -0.00600
C 	C 	0.40658 0.12729 0.50791 -0.04700
H 	H 	0.42610 0.13420 0.50170 0.04500
C 	C 	0.40041 0.13204 0.53862 -0.05100
H 	H 	0.41580 0.14220 0.55290 0.04700
C 	C 	0.35098 0.13617 0.64305 -0.14700
C 	C 	0.33527 0.13782 0.61731 0.06900
H 	H 	0.32040 0.14250 0.62040 0.01900
C 	C 	0.34187 0.13254 0.58700 -0.13800
H 	H 	0.33140 0.13370 0.56980 0.07900
C 	C 	0.36418 0.12562 0.58244 0.07400
C 	C 	0.37989 0.12397 0.60818 -0.13800
H 	H 	0.39480 0.11930 0.60510 0.07900
C 	C 	0.37329 0.12924 0.63849 0.07000
H 	H 	0.38380 0.12810 0.65570 0.02100
C 	C 	0.34619 0.14599 0.67520 0.45500
C 	C 	0.35645 0.05040 0.38735 -0.01200
C 	C 	0.32782 0.03433 0.39940 -0.04000
H 	H 	0.32300 0.04030 0.41810 0.04100
C 	C 	0.30646 0.00937 0.38348 -0.05600
H 	H 	0.28730 0.99860 0.39150 0.04800
C 	C 	0.31372 0.00048 0.35551 0.00500
C 	C 	0.34235 0.01655 0.34346 -0.05400
H 	H 	0.34720 0.01060 0.32470 0.04500
C 	C 	0.36372 0.04152 0.35938 -0.04100
H 	H 	0.38290 0.05230 0.35130 0.04100
C 	C 	0.28841 0.97129 0.34148 0.06300
C 	C 	0.25865 0.95430 0.34973 -0.11700
H 	H 	0.25140 0.95930 0.36740 0.07000
C 	C 	0.23965 0.92978 0.33161 0.04000
H 	H 	0.21970 0.91840 0.33710 0.03300
C 	C 	0.25040 0.92224 0.30523 -0.12600
C 	C 	0.28017 0.93924 0.29698 0.05900
H 	H 	0.28740 0.93420 0.27930 0.02500
C 	C 	0.29917 0.96376 0.31510 -0.12400
H 	H 	0.31910 0.97510 0.30960 0.07300
C 	C 	0.32991 0.10491 0.78995 0.41800
C 	C 	0.45231 0.14701 0.39140 0.02500
C 	C 	0.46710 0.13820 0.37060 -0.09500
H 	H 	0.45970 0.11810 0.36660 0.05800
C 	C 	0.49290 0.15930 0.35570 0.02600
H 	H 	0.50280 0.15340 0.34180 0.01200
C 	C 	0.50390 0.18930 0.36160 -0.07300
C 	C 	0.48910 0.19810 0.38250 0.00900
H 	H 	0.49650 0.21820 0.38650 0.01400
C 	C 	0.46330 0.17690 0.39740 -0.07700
H 	H 	0.45350 0.18290 0.41130 0.05300
C 	C 	0.52858 0.21182 0.34503 0.19000
C 	C 	0.54427 0.20313 0.32535 -0.27800
H 	H 	0.53740 0.18310 0.32190 0.12600
C 	C 	0.57024 0.22443 0.31086 0.25800
H 	H 	0.58070 0.21860 0.29770 -0.04100
C 	C 	0.58053 0.25441 0.31605 -0.40000
C 	C 	0.56484 0.26309 0.33573 0.27200
H 	H 	0.57170 0.28310 0.33920 -0.04300
C 	C 	0.53886 0.24179 0.35021 -0.28500
H 	H 	0.52840 0.24760 0.36340 0.12800
C 	C 	0.60620 0.27580 0.29560 1.00700
C 	C 	0.45922 0.20768 0.75256 0.10000
H 	H 	0.44900 0.18710 0.75440 0.01100
C 	C 	0.48989 0.22256 0.75261 -0.15100
H 	H 	0.49960 0.21170 0.75440 0.08100
C 	C 	0.55750 0.25701 0.75500 -0.08300
H 	H 	0.54760 0.23700 0.76010 0.05700
C 	C 	0.58787 0.27196 0.75270 -0.00100
H 	H 	0.59800 0.26150 0.75310 0.02600
C 	C 	0.20630 0.09930 0.77719 0.12300
H 	H 	0.21670 0.10130 0.79570 0.00400
C 	C 	0.17520 0.08430 0.77721 -0.17900
H 	H 	0.16510 0.07750 0.79620 0.09500
C 	C 	0.10950 0.07606 0.74210 -0.04300
H 	H 	0.11950 0.09630 0.73800 0.04600
C 	C 	0.07940 0.06040 0.74020 -0.05000
H 	H 	0.06900 0.06920 0.73210 0.04500
O 	O 	0.60720 0.30190 0.29540 -0.52600
O 	O 	0.62476 0.27186 0.29020 -0.56300
C 	C 	0.45520 0.14950 0.35940 -0.00800
H 	H 	0.43970 0.13700 0.34610 0.02800
C 	C 	0.48220 0.17130 0.34760 -0.03600
H 	H 	0.48370 0.17220 0.32570 0.03900
C 	C 	0.49920 0.19150 0.39130 -0.01800
H 	H 	0.51120 0.20930 0.40170 0.03000
C 	C 	0.47660 0.16800 0.40840 -0.02400
H 	H 	0.47780 0.16650 0.43010 0.03400
Zn	Zn	0.85126 0.20796 0.74201 1.23600
Zn	Zn	0.84038 0.14742 0.71294 1.25900
Zn	Zn	0.70424 0.36516 0.27190 1.13000
O 	O 	0.85212 0.17654 0.67854 -0.49900
O 	O 	0.86133 0.21832 0.69705 -0.47700
O 	O 	0.88631 0.23388 0.76821 -0.47600
O 	O 	0.80162 0.11605 0.70001 -0.49400
O 	O 	0.70247 0.33101 0.30908 -0.51000
O 	O 	0.72755 0.33910 0.26655 -0.53900
O 	O 	0.82177 0.22039 0.75159 -0.52900
O 	O 	0.86240 0.12827 0.72440 -0.49100
O 	O 	0.87183 0.18239 0.73067 -0.43500
C 	C 	0.89329 0.28431 0.45292 0.07500
C 	C 	0.91874 0.28979 0.43663 -0.14300
H 	H 	0.93300 0.28680 0.44650 0.07900
C 	C 	0.92291 0.29979 0.40558 0.07800
C 	C 	0.90163 0.30431 0.39081 -0.13700
H 	H 	0.90440 0.31100 0.37000 0.07400
C 	C 	0.87618 0.29883 0.40710 0.06100
C 	C 	0.87201 0.28883 0.43815 -0.13600
H 	H 	0.85500 0.28520 0.44910 0.07400
C 	C 	0.87835 0.24957 0.54791 -0.00300
C 	C 	0.89350 0.24170 0.52649 -0.05100
H 	H 	0.90040 0.22910 0.53270 0.04800
C 	C 	0.89824 0.25263 0.49580 -0.04700
H 	H 	0.90840 0.24740 0.48150 0.04500
C 	C 	0.88785 0.27143 0.48650 -0.00600
C 	C 	0.87271 0.27929 0.50791 -0.04700
H 	H 	0.86580 0.29190 0.50170 0.04500
C 	C 	0.86796 0.26837 0.53862 -0.05100
H 	H 	0.85780 0.27360 0.55290 0.04700
C 	C 	0.86383 0.21481 0.64305 -0.14700
C 	C 	0.86218 0.19745 0.61731 0.06900
H 	H 	0.85750 0.17790 0.62040 0.01900
C 	C 	0.86746 0.20933 0.58700 -0.13800
H 	H 	0.86630 0.19770 0.56980 0.07900
C 	C 	0.87438 0.23856 0.58244 0.07400
C 	C 	0.87603 0.25592 0.60818 -0.13800
H 	H 	0.88070 0.27550 0.60510 0.07900
C 	C 	0.87076 0.24405 0.63849 0.07000
H 	H 	0.87190 0.25570 0.65570 0.02100
C 	C 	0.85401 0.20020 0.67520 0.45500
C 	C 	0.94960 0.30605 0.38735 -0.01200
C 	C 	0.96567 0.29349 0.39940 -0.04000
H 	H 	0.95970 0.28270 0.41810 0.04100
C 	C 	0.99063 0.29709 0.38348 -0.05600
H 	H 	0.00140 0.28870 0.39150 0.04800
C 	C 	0.99952 0.31324 0.35551 0.00500
C 	C 	0.98345 0.32580 0.34346 -0.05400
H 	H 	0.98940 0.33660 0.32470 0.04500
C 	C 	0.95848 0.32220 0.35938 -0.04100
H 	H 	0.94770 0.33060 0.35130 0.04100
C 	C 	0.02871 0.31712 0.34148 0.06300
C 	C 	0.04570 0.30435 0.34973 -0.11700
H 	H 	0.04070 0.29210 0.36740 0.07000
C 	C 	0.07022 0.30987 0.33161 0.04000
H 	H 	0.08160 0.30130 0.33710 0.03300
C 	C 	0.07776 0.32816 0.30523 -0.12600
C 	C 	0.06076 0.34093 0.29698 0.05900
H 	H 	0.06580 0.35320 0.27930 0.02500
C 	C 	0.03624 0.33541 0.31510 -0.12400
H 	H 	0.02490 0.34400 0.30960 0.07300
C 	C 	0.89509 0.22500 0.78995 0.41800
C 	C 	0.85299 0.30530 0.39140 0.02500
C 	C 	0.86180 0.32890 0.37060 -0.09500
H 	H 	0.88190 0.34160 0.36660 0.05800
C 	C 	0.84070 0.33360 0.35570 0.02600
H 	H 	0.84660 0.34940 0.34180 0.01200
C 	C 	0.81070 0.31460 0.36160 -0.07300
C 	C 	0.80190 0.29100 0.38250 0.00900
H 	H 	0.78180 0.27830 0.38650 0.01400
C 	C 	0.82310 0.28640 0.39740 -0.07700
H 	H 	0.81710 0.27060 0.41130 0.05300
C 	C 	0.78818 0.31676 0.34503 0.19000
C 	C 	0.79687 0.34114 0.32535 -0.27800
H 	H 	0.81690 0.35430 0.32190 0.12600
C 	C 	0.77557 0.34581 0.31086 0.25800
H 	H 	0.78140 0.36210 0.29770 -0.04100
C 	C 	0.74559 0.32612 0.31605 -0.40000
C 	C 	0.73691 0.30175 0.33573 0.27200
H 	H 	0.71690 0.28860 0.33920 -0.04300
C 	C 	0.75821 0.29707 0.35021 -0.28500
H 	H 	0.75240 0.28080 0.36340 0.12800
C 	C 	0.72420 0.33040 0.29560 1.00700
C 	C 	0.79232 0.25154 0.75256 0.10000
H 	H 	0.81290 0.26190 0.75440 0.01100
C 	C 	0.77744 0.26733 0.75261 -0.15100
H 	H 	0.78830 0.28790 0.75440 0.08100
C 	C 	0.74299 0.30049 0.75500 -0.08300
H 	H 	0.76300 0.31060 0.76010 0.05700
C 	C 	0.72804 0.31591 0.75270 -0.00100
H 	H 	0.73850 0.33650 0.75310 0.02600
C 	C 	0.90070 0.10700 0.77719 0.12300
H 	H 	0.89870 0.11540 0.79570 0.00400
C 	C 	0.91570 0.09090 0.77721 -0.17900
H 	H 	0.92250 0.08760 0.79620 0.09500
C 	C 	0.92394 0.03344 0.74210 -0.04300
H 	H 	0.90370 0.02320 0.73800 0.04600
C 	C 	0.93960 0.01900 0.74020 -0.05000
H 	H 	0.93080 0.99980 0.73210 0.04500
O 	O 	0.69810 0.30530 0.29540 -0.52600
O 	O 	0.72814 0.35290 0.29020 -0.56300
C 	C 	0.85050 0.30570 0.35940 -0.00800
H 	H 	0.86300 0.30270 0.34610 0.02800
C 	C 	0.82870 0.31090 0.34760 -0.03600
H 	H 	0.82780 0.31150 0.32570 0.03900
C 	C 	0.80850 0.30770 0.39130 -0.01800
H 	H 	0.79070 0.30190 0.40170 0.03000
C 	C 	0.83200 0.30860 0.40840 -0.02400
H 	H 	0.83350 0.31130 0.43010 0.03400
Zn	Zn	0.35671 0.20796 0.75799 1.23600
Zn	Zn	0.30703 0.14742 0.78706 1.25900
Zn	Zn	0.66092 0.36516 0.22810 1.13000
O 	O 	0.32442 0.17654 0.82146 -0.49900
O 	O 	0.35699 0.21832 0.80295 -0.47700
O 	O 	0.34757 0.23388 0.73179 -0.47600
O 	O 	0.31443 0.11605 0.79999 -0.49400
O 	O 	0.62854 0.33101 0.19092 -0.51000
O 	O 	0.61155 0.33910 0.23345 -0.53900
O 	O 	0.39862 0.22039 0.74841 -0.52900
O 	O 	0.26587 0.12827 0.77560 -0.49100
O 	O 	0.31056 0.18239 0.76933 -0.43500
C 	C 	0.39102 0.28431 0.04708 0.07500
C 	C 	0.37105 0.28979 0.06337 -0.14300
H 	H 	0.35380 0.28680 0.05350 0.07900
C 	C 	0.37688 0.29979 0.09442 0.07800
C 	C 	0.40268 0.30431 0.10919 -0.13700
H 	H 	0.40660 0.31100 0.13000 0.07400
C 	C 	0.42265 0.29883 0.09290 0.06100
C 	C 	0.41682 0.28883 0.06185 -0.13600
H 	H 	0.43020 0.28520 0.05090 0.07400
C 	C 	0.37122 0.24957 0.95209 -0.00300
C 	C 	0.34820 0.24170 0.97351 -0.05100
H 	H 	0.32870 0.22910 0.96730 0.04800
C 	C 	0.35439 0.25263 0.00420 -0.04700
H 	H 	0.33900 0.24740 0.01850 0.04500
C 	C 	0.38358 0.27143 0.01350 -0.00600
C 	C 	0.40658 0.27929 0.99209 -0.04700
H 	H 	0.42610 0.29190 0.99830 0.04500
C 	C 	0.40041 0.26837 0.96138 -0.05100
H 	H 	0.41580 0.27360 0.94710 0.04700
C 	C 	0.35098 0.21481 0.85695 -0.14700
C 	C 	0.33527 0.19745 0.88269 0.06900
H 	H 	0.32040 0.17790 0.87960 0.01900
C 	C 	0.34187 0.20933 0.91300 -0.13800
H 	H 	0.33140 0.19770 0.93020 0.07900
C 	C 	0.36418 0.23856 0.91756 0.07400
C 	C 	0.37989 0.25592 0.89182 -0.13800
H 	H 	0.39480 0.27550 0.89490 0.07900
C 	C 	0.37329 0.24405 0.86151 0.07000
H 	H 	0.38380 0.25570 0.84430 0.02100
C 	C 	0.34619 0.20020 0.82480 0.45500
C 	C 	0.35645 0.30605 0.11265 -0.01200
C 	C 	0.32782 0.29349 0.10060 -0.04000
H 	H 	0.32300 0.28270 0.08190 0.04100
C 	C 	0.30646 0.29709 0.11652 -0.05600
H 	H 	0.28730 0.28870 0.10850 0.04800
C 	C 	0.31372 0.31324 0.14449 0.00500
C 	C 	0.34235 0.32580 0.15654 -0.05400
H 	H 	0.34720 0.33660 0.17530 0.04500
C 	C 	0.36372 0.32220 0.14062 -0.04100
H 	H 	0.38290 0.33060 0.14870 0.04100
C 	C 	0.28841 0.31712 0.15852 0.06300
C 	C 	0.25865 0.30435 0.15027 -0.11700
H 	H 	0.25140 0.29210 0.13260 0.07000
C 	C 	0.23965 0.30987 0.16839 0.04000
H 	H 	0.21970 0.30130 0.16290 0.03300
C 	C 	0.25040 0.32816 0.19477 -0.12600
C 	C 	0.28017 0.34093 0.20302 0.05900
H 	H 	0.28740 0.35320 0.22070 0.02500
C 	C 	0.29917 0.33541 0.18490 -0.12400
H 	H 	0.31910 0.34400 0.19040 0.07300
C 	C 	0.32991 0.22500 0.71005 0.41800
C 	C 	0.45231 0.30530 0.10860 0.02500
C 	C 	0.46710 0.32890 0.12940 -0.09500
H 	H 	0.45970 0.34160 0.13340 0.05800
C 	C 	0.49290 0.33360 0.14430 0.02600
H 	H 	0.50280 0.34940 0.15820 0.01200
C 	C 	0.50390 0.31460 0.13840 -0.07300
C 	C 	0.48910 0.29100 0.11750 0.00900
H 	H 	0.49650 0.27830 0.11350 0.01400
C 	C 	0.46330 0.28640 0.10260 -0.07700
H 	H 	0.45350 0.27060 0.08870 0.05300
C 	C 	0.52858 0.31676 0.15497 0.19000
C 	C 	0.54427 0.34114 0.17465 -0.27800
H 	H 	0.53740 0.35430 0.17810 0.12600
C 	C 	0.57024 0.34581 0.18914 0.25800
H 	H 	0.58070 0.36210 0.20230 -0.04100
C 	C 	0.58053 0.32612 0.18395 -0.40000
C 	C 	0.56484 0.30175 0.16427 0.27200
H 	H 	0.57170 0.28860 0.16080 -0.04300
C 	C 	0.53886 0.29707 0.14979 -0.28500
H 	H 	0.52840 0.28080 0.13660 0.12800
C 	C 	0.60620 0.33040 0.20440 1.00700
C 	C 	0.45922 0.25154 0.74744 0.10000
H 	H 	0.44900 0.26190 0.74560 0.01100
C 	C 	0.48989 0.26733 0.74739 -0.15100
H 	H 	0.49960 0.28790 0.74560 0.08100
C 	C 	0.55750 0.30049 0.74500 -0.08300
H 	H 	0.54760 0.31060 0.73990 0.05700
C 	C 	0.58787 0.31591 0.74730 -0.00100
H 	H 	0.59800 0.33650 0.74690 0.02600
C 	C 	0.20630 0.10700 0.72281 0.12300
H 	H 	0.21670 0.11540 0.70430 0.00400
C 	C 	0.17520 0.09090 0.72279 -0.17900
H 	H 	0.16510 0.08760 0.70380 0.09500
C 	C 	0.10950 0.03344 0.75790 -0.04300
H 	H 	0.11950 0.02320 0.76200 0.04600
C 	C 	0.07940 0.01900 0.75980 -0.05000
H 	H 	0.06900 0.99980 0.76790 0.04500
O 	O 	0.60720 0.30530 0.20460 -0.52600
O 	O 	0.62476 0.35290 0.20980 -0.56300
C 	C 	0.45520 0.30570 0.14060 -0.00800
H 	H 	0.43970 0.30270 0.15390 0.02800
C 	C 	0.48220 0.31090 0.15240 -0.03600
H 	H 	0.48370 0.31150 0.17430 0.03900
C 	C 	0.49920 0.30770 0.10870 -0.01800
H 	H 	0.51120 0.30190 0.09830 0.03000
C 	C 	0.47660 0.30860 0.09160 -0.02400
H 	H 	0.47780 0.31130 0.06990 0.03400
Zn	Zn	0.85126 0.64329 0.75799 1.23600
Zn	Zn	0.84038 0.69297 0.78706 1.25900
Zn	Zn	0.70424 0.33908 0.22810 1.13000
O 	O 	0.85212 0.67558 0.82146 -0.49900
O 	O 	0.86133 0.64301 0.80295 -0.47700
O 	O 	0.88631 0.65243 0.73179 -0.47600
O 	O 	0.80162 0.68557 0.79999 -0.49400
O 	O 	0.70247 0.37146 0.19092 -0.51000
O 	O 	0.72755 0.38845 0.23345 -0.53900
O 	O 	0.82177 0.60138 0.74841 -0.52900
O 	O 	0.86240 0.73413 0.77560 -0.49100
O 	O 	0.87183 0.68944 0.76933 -0.43500
C 	C 	0.89329 0.60898 0.04708 0.07500
C 	C 	0.91874 0.62895 0.06337 -0.14300
H 	H 	0.93300 0.64620 0.05350 0.07900
C 	C 	0.92291 0.62312 0.09442 0.07800
C 	C 	0.90163 0.59732 0.10919 -0.13700
H 	H 	0.90440 0.59340 0.13000 0.07400
C 	C 	0.87618 0.57735 0.09290 0.06100
C 	C 	0.87201 0.58318 0.06185 -0.13600
H 	H 	0.85500 0.56980 0.05090 0.07400
C 	C 	0.87835 0.62878 0.95209 -0.00300
C 	C 	0.89350 0.65180 0.97351 -0.05100
H 	H 	0.90040 0.67130 0.96730 0.04800
C 	C 	0.89824 0.64561 0.00420 -0.04700
H 	H 	0.90840 0.66100 0.01850 0.04500
C 	C 	0.88785 0.61642 0.01350 -0.00600
C 	C 	0.87271 0.59342 0.99209 -0.04700
H 	H 	0.86580 0.57390 0.99830 0.04500
C 	C 	0.86796 0.59959 0.96138 -0.05100
H 	H 	0.85780 0.58420 0.94710 0.04700
C 	C 	0.86383 0.64902 0.85695 -0.14700
C 	C 	0.86218 0.66473 0.88269 0.06900
H 	H 	0.85750 0.67960 0.87960 0.01900
C 	C 	0.86746 0.65813 0.91300 -0.13800
H 	H 	0.86630 0.66860 0.93020 0.07900
C 	C 	0.87438 0.63582 0.91756 0.07400
C 	C 	0.87603 0.62011 0.89182 -0.13800
H 	H 	0.88070 0.60520 0.89490 0.07900
C 	C 	0.87076 0.62671 0.86151 0.07000
H 	H 	0.87190 0.61620 0.84430 0.02100
C 	C 	0.85401 0.65381 0.82480 0.45500
C 	C 	0.94960 0.64355 0.11265 -0.01200
C 	C 	0.96567 0.67218 0.10060 -0.04000
H 	H 	0.95970 0.67700 0.08190 0.04100
C 	C 	0.99063 0.69354 0.11652 -0.05600
H 	H 	0.00140 0.71270 0.10850 0.04800
C 	C 	0.99952 0.68628 0.14449 0.00500
C 	C 	0.98345 0.65765 0.15654 -0.05400
H 	H 	0.98940 0.65280 0.17530 0.04500
C 	C 	0.95848 0.63628 0.14062 -0.04100
H 	H 	0.94770 0.61710 0.14870 0.04100
C 	C 	0.02871 0.71159 0.15852 0.06300
C 	C 	0.04570 0.74135 0.15027 -0.11700
H 	H 	0.04070 0.74860 0.13260 0.07000
C 	C 	0.07022 0.76035 0.16839 0.04000
H 	H 	0.08160 0.78030 0.16290 0.03300
C 	C 	0.07776 0.74960 0.19477 -0.12600
C 	C 	0.06076 0.71983 0.20302 0.05900
H 	H 	0.06580 0.71260 0.22070 0.02500
C 	C 	0.03624 0.70083 0.18490 -0.12400
H 	H 	0.02490 0.68090 0.19040 0.07300
C 	C 	0.89509 0.67009 0.71005 0.41800
C 	C 	0.85299 0.54769 0.10860 0.02500
C 	C 	0.86180 0.53290 0.12940 -0.09500
H 	H 	0.88190 0.54030 0.13340 0.05800
C 	C 	0.84070 0.50710 0.14430 0.02600
H 	H 	0.84660 0.49720 0.15820 0.01200
C 	C 	0.81070 0.49610 0.13840 -0.07300
C 	C 	0.80190 0.51090 0.11750 0.00900
H 	H 	0.78180 0.50350 0.11350 0.01400
C 	C 	0.82310 0.53670 0.10260 -0.07700
H 	H 	0.81710 0.54650 0.08870 0.05300
C 	C 	0.78818 0.47142 0.15497 0.19000
C 	C 	0.79687 0.45573 0.17465 -0.27800
H 	H 	0.81690 0.46260 0.17810 0.12600
C 	C 	0.77557 0.42976 0.18914 0.25800
H 	H 	0.78140 0.41930 0.20230 -0.04100
C 	C 	0.74559 0.41947 0.18395 -0.40000
C 	C 	0.73691 0.43516 0.16427 0.27200
H 	H 	0.71690 0.42830 0.16080 -0.04300
C 	C 	0.75821 0.46114 0.14979 -0.28500
H 	H 	0.75240 0.47160 0.13660 0.12800
C 	C 	0.72420 0.39380 0.20440 1.00700
C 	C 	0.79232 0.54078 0.74744 0.10000
H 	H 	0.81290 0.55100 0.74560 0.01100
C 	C 	0.77744 0.51011 0.74739 -0.15100
H 	H 	0.78830 0.50040 0.74560 0.08100
C 	C 	0.74299 0.44250 0.74500 -0.08300
H 	H 	0.76300 0.45240 0.73990 0.05700
C 	C 	0.72804 0.41213 0.74730 -0.00100
H 	H 	0.73850 0.40200 0.74690 0.02600
C 	C 	0.90070 0.79370 0.72281 0.12300
H 	H 	0.89870 0.78330 0.70430 0.00400
C 	C 	0.91570 0.82480 0.72279 -0.17900
H 	H 	0.92250 0.83490 0.70380 0.09500
C 	C 	0.92394 0.89050 0.75790 -0.04300
H 	H 	0.90370 0.88050 0.76200 0.04600
C 	C 	0.93960 0.92060 0.75980 -0.05000
H 	H 	0.93080 0.93100 0.76790 0.04500
O 	O 	0.69810 0.39280 0.20460 -0.52600
O 	O 	0.72814 0.37524 0.20980 -0.56300
C 	C 	0.85050 0.54480 0.14060 -0.00800
H 	H 	0.86300 0.56030 0.15390 0.02800
C 	C 	0.82870 0.51780 0.15240 -0.03600
H 	H 	0.82780 0.51630 0.17430 0.03900
C 	C 	0.80850 0.50080 0.10870 -0.01800
H 	H 	0.79070 0.48880 0.09830 0.03000
C 	C 	0.83200 0.52340 0.09160 -0.02400
H 	H 	0.83350 0.52220 0.06990 0.03400
Zn	Zn	0.79204 0.14874 0.75799 1.23600
Zn	Zn	0.85258 0.15962 0.78706 1.25900
Zn	Zn	0.63484 0.29576 0.22810 1.13000
O 	O 	0.82346 0.14788 0.82146 -0.49900
O 	O 	0.78168 0.13867 0.80295 -0.47700
O 	O 	0.76612 0.11369 0.73179 -0.47600
O 	O 	0.88395 0.19838 0.79999 -0.49400
O 	O 	0.66899 0.29753 0.19092 -0.51000
O 	O 	0.66090 0.27245 0.23345 -0.53900
O 	O 	0.77961 0.17823 0.74841 -0.52900
O 	O 	0.87173 0.13760 0.77560 -0.49100
O 	O 	0.81761 0.12817 0.76933 -0.43500
C 	C 	0.71569 0.10671 0.04708 0.07500
C 	C 	0.71021 0.08126 0.06337 -0.14300
H 	H 	0.71320 0.06700 0.05350 0.07900
C 	C 	0.70021 0.07709 0.09442 0.07800
C 	C 	0.69569 0.09837 0.10919 -0.13700
H 	H 	0.68900 0.09560 0.13000 0.07400
C 	C 	0.70117 0.12382 0.09290 0.06100
C 	C 	0.71117 0.12799 0.06185 -0.13600
H 	H 	0.71480 0.14500 0.05090 0.07400
C 	C 	0.75043 0.12165 0.95209 -0.00300
C 	C 	0.75830 0.10650 0.97351 -0.05100
H 	H 	0.77090 0.09960 0.96730 0.04800
C 	C 	0.74737 0.10176 0.00420 -0.04700
H 	H 	0.75260 0.09160 0.01850 0.04500
C 	C 	0.72857 0.11215 0.01350 -0.00600
C 	C 	0.72071 0.12729 0.99209 -0.04700
H 	H 	0.70810 0.13420 0.99830 0.04500
C 	C 	0.73163 0.13204 0.96138 -0.05100
H 	H 	0.72640 0.14220 0.94710 0.04700
C 	C 	0.78519 0.13617 0.85695 -0.14700
C 	C 	0.80255 0.13782 0.88269 0.06900
H 	H 	0.82210 0.14250 0.87960 0.01900
C 	C 	0.79067 0.13254 0.91300 -0.13800
H 	H 	0.80230 0.13370 0.93020 0.07900
C 	C 	0.76144 0.12562 0.91756 0.07400
C 	C 	0.74408 0.12397 0.89182 -0.13800
H 	H 	0.72450 0.11930 0.89490 0.07900
C 	C 	0.75595 0.12924 0.86151 0.07000
H 	H 	0.74430 0.12810 0.84430 0.02100
C 	C 	0.79980 0.14599 0.82480 0.45500
C 	C 	0.69395 0.05040 0.11265 -0.01200
C 	C 	0.70651 0.03433 0.10060 -0.04000
H 	H 	0.71730 0.04030 0.08190 0.04100
C 	C 	0.70291 0.00937 0.11652 -0.05600
H 	H 	0.71130 0.99860 0.10850 0.04800
C 	C 	0.68676 0.00048 0.14449 0.00500
C 	C 	0.67420 0.01655 0.15654 -0.05400
H 	H 	0.66340 0.01060 0.17530 0.04500
C 	C 	0.67780 0.04152 0.14062 -0.04100
H 	H 	0.66940 0.05230 0.14870 0.04100
C 	C 	0.68288 0.97129 0.15852 0.06300
C 	C 	0.69565 0.95430 0.15027 -0.11700
H 	H 	0.70790 0.95930 0.13260 0.07000
C 	C 	0.69013 0.92978 0.16839 0.04000
H 	H 	0.69870 0.91840 0.16290 0.03300
C 	C 	0.67184 0.92224 0.19477 -0.12600
C 	C 	0.65907 0.93924 0.20302 0.05900
H 	H 	0.64680 0.93420 0.22070 0.02500
C 	C 	0.66459 0.96376 0.18490 -0.12400
H 	H 	0.65600 0.97510 0.19040 0.07300
C 	C 	0.77500 0.10491 0.71005 0.41800
C 	C 	0.69470 0.14701 0.10860 0.02500
C 	C 	0.67110 0.13820 0.12940 -0.09500
H 	H 	0.65840 0.11810 0.13340 0.05800
C 	C 	0.66640 0.15930 0.14430 0.02600
H 	H 	0.65060 0.15340 0.15820 0.01200
C 	C 	0.68540 0.18930 0.13840 -0.07300
C 	C 	0.70900 0.19810 0.11750 0.00900
H 	H 	0.72170 0.21820 0.11350 0.01400
C 	C 	0.71360 0.17690 0.10260 -0.07700
H 	H 	0.72940 0.18290 0.08870 0.05300
C 	C 	0.68324 0.21182 0.15497 0.19000
C 	C 	0.65886 0.20313 0.17465 -0.27800
H 	H 	0.64570 0.18310 0.17810 0.12600
C 	C 	0.65419 0.22443 0.18914 0.25800
H 	H 	0.63790 0.21860 0.20230 -0.04100
C 	C 	0.67388 0.25441 0.18395 -0.40000
C 	C 	0.69825 0.26309 0.16427 0.27200
H 	H 	0.71140 0.28310 0.16080 -0.04300
C 	C 	0.70293 0.24179 0.14979 -0.28500
H 	H 	0.71920 0.24760 0.13660 0.12800
C 	C 	0.66960 0.27580 0.20440 1.00700
C 	C 	0.74846 0.20768 0.74744 0.10000
H 	H 	0.73810 0.18710 0.74560 0.01100
C 	C 	0.73267 0.22256 0.74739 -0.15100
H 	H 	0.71210 0.21170 0.74560 0.08100
C 	C 	0.69951 0.25701 0.74500 -0.08300
H 	H 	0.68940 0.23700 0.73990 0.05700
C 	C 	0.68409 0.27196 0.74730 -0.00100
H 	H 	0.66350 0.26150 0.74690 0.02600
C 	C 	0.89300 0.09930 0.72281 0.12300
H 	H 	0.88460 0.10130 0.70430 0.00400
C 	C 	0.90910 0.08430 0.72279 -0.17900
H 	H 	0.91240 0.07750 0.70380 0.09500
C 	C 	0.96656 0.07606 0.75790 -0.04300
H 	H 	0.97680 0.09630 0.76200 0.04600
C 	C 	0.98100 0.06040 0.75980 -0.05000
H 	H 	0.00020 0.06920 0.76790 0.04500
O 	O 	0.69470 0.30190 0.20460 -0.52600
O 	O 	0.64710 0.27186 0.20980 -0.56300
C 	C 	0.69430 0.14950 0.14060 -0.00800
H 	H 	0.69730 0.13700 0.15390 0.02800
C 	C 	0.68910 0.17130 0.15240 -0.03600
H 	H 	0.68850 0.17220 0.17430 0.03900
C 	C 	0.69230 0.19150 0.10870 -0.01800
H 	H 	0.69810 0.20930 0.09830 0.03000
C 	C 	0.69140 0.16800 0.09160 -0.02400
H 	H 	0.68870 0.16650 0.06990 0.03400
Zn	Zn	0.33333 0.66667 0.70985 1.05500
Zn	Zn	0.33333 0.66667 0.79015 1.05500
Zn	Zn	0.66667 0.33333 0.29015 1.05500
Zn	Zn	0.66667 0.33333 0.20985 1.05500
O 	O 	0.33333 0.66667 0.75000 -1.56100
O 	O 	0.66667 0.33333 0.25000 -1.56100
O 	O 	0.16660 0.33319 0.25000 -0.80600
C 	C 	0.20515 0.41030 0.25000 0.47200
C 	C 	0.22170 0.44340 0.25000 -0.19000
C 	C 	0.25335 0.50670 0.25000 0.07400
C 	C 	0.27095 0.54190 0.25000 0.02200
C 	C 	0.30155 0.60310 0.25000 -0.05800
C 	C 	0.31829 0.63658 0.25000 0.15400
C 	C 	0.12695 0.25390 0.25000 0.47900
C 	C 	0.11020 0.22040 0.25000 -0.19800
C 	C 	0.07975 0.15950 0.25000 0.10900
C 	C 	0.06250 0.12500 0.25000 -0.01700
C 	C 	0.03265 0.06530 0.25000 -0.00700
C 	C 	0.01497 0.02993 0.25000 0.10900
O 	O 	0.66681 0.83341 0.25000 -0.80600
C 	C 	0.58970 0.79485 0.25000 0.47200
C 	C 	0.55660 0.77830 0.25000 -0.19000
C 	C 	0.49330 0.74665 0.25000 0.07400
C 	C 	0.45810 0.72905 0.25000 0.02200
C 	C 	0.39690 0.69845 0.25000 -0.05800
C 	C 	0.36342 0.68171 0.25000 0.15400
C 	C 	0.74610 0.87305 0.25000 0.47900
C 	C 	0.77960 0.88980 0.25000 -0.19800
C 	C 	0.84050 0.92025 0.25000 0.10900
C 	C 	0.87500 0.93750 0.25000 -0.01700
C 	C 	0.93470 0.96735 0.25000 -0.00700
C 	C 	0.97007 0.98504 0.25000 0.10900
O 	O 	0.16660 0.83341 0.25000 -0.80700
C 	C 	0.20515 0.79485 0.25000 0.47200
C 	C 	0.22170 0.77830 0.25000 -0.19000
C 	C 	0.25335 0.74665 0.25000 0.07400
C 	C 	0.27095 0.72905 0.25000 0.02200
C 	C 	0.30155 0.69845 0.25000 -0.05800
C 	C 	0.31829 0.68171 0.25000 0.15400
C 	C 	0.12695 0.87305 0.25000 0.47900
C 	C 	0.11020 0.88980 0.25000 -0.19800
C 	C 	0.07975 0.92025 0.25000 0.10900
C 	C 	0.06250 0.93750 0.25000 -0.01700
C 	C 	0.03265 0.96735 0.25000 -0.00700
C 	C 	0.01497 0.98504 0.25000 0.10900
O 	O 	0.83340 0.66681 0.75000 -0.80600
C 	C 	0.79485 0.58970 0.75000 0.47200
C 	C 	0.77830 0.55660 0.75000 -0.19000
C 	C 	0.74665 0.49330 0.75000 0.07400
C 	C 	0.72905 0.45810 0.75000 0.02200
C 	C 	0.69845 0.39690 0.75000 -0.05800
C 	C 	0.68171 0.36342 0.75000 0.15400
C 	C 	0.87305 0.74610 0.75000 0.47900
C 	C 	0.88980 0.77960 0.75000 -0.19800
C 	C 	0.92025 0.84050 0.75000 0.10900
C 	C 	0.93750 0.87500 0.75000 -0.01700
C 	C 	0.96735 0.93470 0.75000 -0.00700
C 	C 	0.98503 0.97007 0.75000 0.10900
O 	O 	0.33319 0.16660 0.75000 -0.80600
C 	C 	0.41030 0.20515 0.75000 0.47200
C 	C 	0.44340 0.22170 0.75000 -0.19000
C 	C 	0.50670 0.25335 0.75000 0.07400
C 	C 	0.54190 0.27095 0.75000 0.02200
C 	C 	0.60310 0.30155 0.75000 -0.05800
C 	C 	0.63658 0.31829 0.75000 0.15400
C 	C 	0.25390 0.12695 0.75000 0.47900
C 	C 	0.22040 0.11020 0.75000 -0.19800
C 	C 	0.15950 0.07975 0.75000 0.10900
C 	C 	0.12500 0.06250 0.75000 -0.01700
C 	C 	0.06530 0.03265 0.75000 -0.00700
C 	C 	0.02993 0.01497 0.75000 0.10900
O 	O 	0.83340 0.16660 0.75000 -0.80700
C 	C 	0.79485 0.20515 0.75000 0.47200
C 	C 	0.77830 0.22170 0.75000 -0.19000
C 	C 	0.74665 0.25335 0.75000 0.07400
C 	C 	0.72905 0.27095 0.75000 0.02200
C 	C 	0.69845 0.30155 0.75000 -0.05800
C 	C 	0.68171 0.31829 0.75000 0.15400
C 	C 	0.87305 0.12695 0.75000 0.47900
C 	C 	0.88980 0.11020 0.75000 -0.19800
C 	C 	0.92025 0.07975 0.75000 0.10900
C 	C 	0.93750 0.06250 0.75000 -0.01700
C 	C 	0.96735 0.03265 0.75000 -0.00700
C 	C 	0.98503 0.01496 0.75000 0.10900
C 	C 	0.34837 0.65163 0.25000 -0.22300
H 	H 	0.35870 0.64130 0.25000 0.10600
C 	C 	0.34837 0.69674 0.25000 -0.22300
H 	H 	0.35870 0.71740 0.25000 0.10600
C 	C 	0.30326 0.65163 0.25000 -0.22300
H 	H 	0.28260 0.64130 0.25000 0.10600
C 	C 	0.65163 0.34837 0.75000 -0.22300
H 	H 	0.64130 0.35870 0.75000 0.10600
C 	C 	0.65163 0.30326 0.75000 -0.22300
H 	H 	0.64130 0.28260 0.75000 0.10600
C 	C 	0.69674 0.34837 0.75000 -0.22300
H 	H 	0.71740 0.35870 0.75000 0.10600
C 	C 	0.03016 0.01508 0.25000 -0.18100
H 	H 	0.05080 0.02540 0.25000 0.09100
C 	C 	0.98492 0.01508 0.25000 -0.18100
H 	H 	0.97460 0.02540 0.25000 0.09100
C 	C 	0.98492 0.96984 0.25000 -0.18100
H 	H 	0.97460 0.94920 0.25000 0.09100
C 	C 	0.96984 0.98492 0.75000 -0.18100
H 	H 	0.94920 0.97460 0.75000 0.09100
C 	C 	0.01508 0.98492 0.75000 -0.18100
H 	H 	0.02540 0.97460 0.75000 0.09100
C 	C 	0.01508 0.03016 0.75000 -0.18100
H 	H 	0.02540 0.05080 0.75000 0.09100
