data_crystal

_cell_length_a 45.84600
_cell_length_b 45.84600
_cell_length_c 37.11000
_cell_angle_alpha 90.00000
_cell_angle_beta  90.00000
_cell_angle_gamma 120.00000

_symmetry_space_group_name_	'P 1'
_symmetry_space_group_name_H-M	'P 1'

loop_
_symmetry_equiv_pos_as_xyz
  x,y,z

loop_
_atom_site_label
_atom_site_type_symbol
_atom_site_fract_x
_atom_site_fract_y
_atom_site_fract_z
_atom_site_charge
Zn	Zn	0.15630 0.30302 0.21060 1.27400
Zn	Zn	0.14869 0.36437 0.24100 1.27900
Zn	Zn	0.29500 0.63270 0.72850 1.17900
O 	O 	0.14150 0.36250 0.19640 -0.57000
O 	O 	0.14830 0.32160 0.17410 -0.54700
O 	O 	0.89000 0.19590 0.79950 -0.52400
O 	O 	0.88850 0.23520 0.76650 -0.53900
O 	O 	0.26930 0.60640 0.76290 -0.56200
O 	O 	0.29920 0.62940 0.81190 -0.59600
O 	O 	0.12760 0.26560 0.22110 -0.61600
O 	O 	0.17760 0.40210 0.25640 -0.57200
C 	C 	0.10830 0.38900 0.95730 0.08200
C 	C 	0.08030 0.36560 0.93720 -0.13700
C 	C 	0.07590 0.37250 0.90130 0.08200
C 	C 	0.09990 0.40310 0.88550 -0.13100
C 	C 	0.12800 0.42670 0.90530 0.07600
C 	C 	0.13210 0.41950 0.94120 -0.13100
C 	C 	0.11300 0.38150 0.99420 -0.03100
C 	C 	0.11730 0.37530 0.02490 -0.02700
C 	C 	0.12280 0.36750 0.06140 0.07600
C 	C 	0.12210 0.38640 0.09080 -0.12300
C 	C 	0.12790 0.37910 0.12600 0.06000
C 	C 	0.13480 0.35280 0.13240 -0.14900
C 	C 	0.13530 0.33380 0.10270 0.06000
C 	C 	0.12940 0.34120 0.06760 -0.12300
C 	C 	0.14190 0.34530 0.16970 0.44600
C 	C 	0.04690 0.34800 0.88070 -0.03100
C 	C 	0.02260 0.32720 0.86380 -0.02600
C 	C 	0.99330 0.30200 0.84410 0.07300
C 	C 	0.97970 0.26770 0.85210 -0.12300
C 	C 	0.95080 0.24330 0.83400 0.05800
C 	C 	0.93490 0.25260 0.80750 -0.14400
C 	C 	0.94910 0.28710 0.79930 0.05600
C 	C 	0.97800 0.31150 0.81740 -0.11900
C 	C 	0.90290 0.22650 0.78980 0.43300
C 	C 	0.15310 0.45810 0.88870 -0.02000
C 	C 	0.17410 0.48420 0.87470 -0.05000
C 	C 	0.19930 0.51500 0.85740 0.12400
C 	C 	0.19510 0.52180 0.81900 -0.07200
C 	C 	0.21870 0.55060 0.80000 0.06700
C 	C 	0.24870 0.57410 0.82190 -0.39500
C 	C 	0.25150 0.57220 0.85500 0.15600
C 	C 	0.22770 0.54320 0.87300 -0.11600
C 	C 	0.27480 0.60400 0.80140 1.03600
C 	C 	0.10240 0.19340 0.28240 0.06600
C 	C 	0.08440 0.15850 0.27940 -0.13000
C 	C 	0.21120 0.47400 0.25690 0.06100
C 	C 	0.22890 0.50940 0.25690 -0.12500
H 	H 	0.06400 0.34500 0.94800 0.08200
H 	H 	0.09700 0.40800 0.86100 0.07800
H 	H 	0.15100 0.43600 0.95500 0.07800
H 	H 	0.11700 0.40400 0.08700 0.07400
H 	H 	0.12700 0.39200 0.14600 0.02300
H 	H 	0.14000 0.31600 0.10600 0.02500
H 	H 	0.13000 0.32800 0.04800 0.07500
H 	H 	0.99000 0.26100 0.87000 0.07500
H 	H 	0.94200 0.22000 0.84000 0.02500
H 	H 	0.93900 0.29400 0.78100 0.02500
H 	H 	0.98700 0.33500 0.81200 0.07200
H 	H 	0.17100 0.50200 0.80400 0.04400
H 	H 	0.21700 0.55700 0.77100 0.03700
H 	H 	0.27300 0.59400 0.87000 0.01200
H 	H 	0.23300 0.54300 0.90300 0.05400
H 	H 	0.11200 0.20400 0.30500 0.02100
H 	H 	0.08200 0.14600 0.30100 0.07600
H 	H 	0.18700 0.46200 0.26200 0.02400
H 	H 	0.21700 0.52100 0.26200 0.07500
O 	O 	0.26980 0.62480 0.79610 -0.60400
O 	O 	0.30410 0.60430 0.79900 -0.53500
C 	C 	0.19260 0.53800 0.85000 -0.11500
C 	C 	0.21770 0.56750 0.83300 0.12600
C 	C 	0.25640 0.54610 0.83700 0.05300
C 	C 	0.23120 0.51660 0.85300 -0.07700
H 	H 	0.16700 0.53500 0.85600 0.05500
H 	H 	0.21000 0.58700 0.82900 0.01500
H 	H 	0.28300 0.55000 0.83400 0.03500
H 	H 	0.23500 0.49500 0.86300 0.04700
Zn	Zn	0.69698 0.85328 0.21060 1.27500
Zn	Zn	0.63563 0.78432 0.24100 1.28000
Zn	Zn	0.36730 0.66230 0.72850 1.17900
O 	O 	0.63750 0.77900 0.19640 -0.57000
O 	O 	0.67840 0.82670 0.17410 -0.54700
O 	O 	0.80410 0.69410 0.79950 -0.52400
O 	O 	0.76480 0.65330 0.76650 -0.53900
O 	O 	0.39360 0.66290 0.76290 -0.56200
O 	O 	0.37060 0.66980 0.81190 -0.59600
O 	O 	0.73440 0.86200 0.22110 -0.61600
O 	O 	0.59790 0.77550 0.25640 -0.57200
C 	C 	0.61100 0.71930 0.95730 0.08200
C 	C 	0.63440 0.71470 0.93720 -0.13700
C 	C 	0.62750 0.70340 0.90130 0.08200
C 	C 	0.59690 0.69680 0.88550 -0.13100
C 	C 	0.57330 0.70130 0.90530 0.07600
C 	C 	0.58050 0.71260 0.94120 -0.13100
C 	C 	0.61850 0.73150 0.99420 -0.03100
C 	C 	0.62470 0.74200 0.02490 -0.02700
C 	C 	0.63250 0.75530 0.06140 0.07600
C 	C 	0.61360 0.73570 0.09080 -0.12300
C 	C 	0.62090 0.74880 0.12600 0.06000
C 	C 	0.64720 0.78200 0.13240 -0.14900
C 	C 	0.66620 0.80150 0.10270 0.06000
C 	C 	0.65880 0.78820 0.06760 -0.12300
C 	C 	0.65470 0.79660 0.16970 0.44600
C 	C 	0.65200 0.69890 0.88070 -0.03100
C 	C 	0.67280 0.69540 0.86380 -0.02600
C 	C 	0.69800 0.69130 0.84410 0.07300
C 	C 	0.73230 0.71200 0.85210 -0.12300
C 	C 	0.75670 0.70750 0.83400 0.05800
C 	C 	0.74740 0.68230 0.80750 -0.14400
C 	C 	0.71290 0.66200 0.79930 0.05600
C 	C 	0.68850 0.66650 0.81740 -0.11900
C 	C 	0.77350 0.67640 0.78980 0.43300
C 	C 	0.54190 0.69500 0.88870 -0.02000
C 	C 	0.51580 0.68990 0.87470 -0.05000
C 	C 	0.48500 0.68430 0.85740 0.12400
C 	C 	0.47820 0.67330 0.81900 -0.07200
C 	C 	0.44940 0.66810 0.80000 0.06700
C 	C 	0.42590 0.67460 0.82190 -0.39500
C 	C 	0.42780 0.67930 0.85500 0.15600
C 	C 	0.45680 0.68450 0.87300 -0.11600
C 	C 	0.39600 0.67080 0.80140 1.03600
C 	C 	0.80660 0.90900 0.28240 0.06600
C 	C 	0.84150 0.92590 0.27940 -0.13000
C 	C 	0.52600 0.73720 0.25690 0.06100
C 	C 	0.49060 0.71950 0.25690 -0.12500
H 	H 	0.65500 0.71900 0.94800 0.08200
H 	H 	0.59200 0.68900 0.86100 0.07800
H 	H 	0.56400 0.71500 0.95500 0.07800
H 	H 	0.59600 0.71300 0.08700 0.07400
H 	H 	0.60800 0.73500 0.14600 0.02300
H 	H 	0.68400 0.82400 0.10600 0.02500
H 	H 	0.67200 0.80200 0.04800 0.07500
H 	H 	0.73900 0.72900 0.87000 0.07500
H 	H 	0.78000 0.72200 0.84000 0.02500
H 	H 	0.70600 0.64500 0.78100 0.02500
H 	H 	0.66500 0.65200 0.81200 0.07200
H 	H 	0.49800 0.66900 0.80400 0.04400
H 	H 	0.44300 0.66000 0.77100 0.03700
H 	H 	0.40600 0.67900 0.87000 0.01200
H 	H 	0.45700 0.69000 0.90300 0.05400
H 	H 	0.79600 0.90800 0.30500 0.02100
H 	H 	0.85400 0.93600 0.30100 0.07600
H 	H 	0.53800 0.72500 0.26200 0.02400
H 	H 	0.47900 0.69600 0.26200 0.07500
O 	O 	0.37520 0.64500 0.79610 -0.60400
O 	O 	0.39570 0.69980 0.79900 -0.53500
C 	C 	0.46200 0.65460 0.85000 -0.11500
C 	C 	0.43250 0.65020 0.83300 0.12600
C 	C 	0.45390 0.71030 0.83700 0.05300
C 	C 	0.48340 0.71460 0.85300 -0.07700
H 	H 	0.46500 0.63200 0.85600 0.05500
H 	H 	0.41300 0.62300 0.82900 0.01500
H 	H 	0.45000 0.73300 0.83400 0.03500
H 	H 	0.50500 0.74000 0.86300 0.04700
Zn	Zn	0.14672 0.84370 0.21060 1.27500
Zn	Zn	0.21568 0.85131 0.24100 1.28000
Zn	Zn	0.33770 0.70500 0.72850 1.17900
O 	O 	0.22100 0.85850 0.19640 -0.57000
O 	O 	0.17330 0.85170 0.17410 -0.54700
O 	O 	0.30590 0.11000 0.79950 -0.52400
O 	O 	0.34670 0.11150 0.76650 -0.53900
O 	O 	0.33710 0.73070 0.76290 -0.56200
O 	O 	0.33020 0.70080 0.81190 -0.59600
O 	O 	0.13800 0.87240 0.22110 -0.61600
O 	O 	0.22450 0.82240 0.25640 -0.57200
C 	C 	0.28070 0.89170 0.95730 0.08200
C 	C 	0.28530 0.91970 0.93720 -0.13700
C 	C 	0.29660 0.92410 0.90130 0.08200
C 	C 	0.30320 0.90010 0.88550 -0.13100
C 	C 	0.29870 0.87200 0.90530 0.07600
C 	C 	0.28740 0.86790 0.94120 -0.13100
C 	C 	0.26850 0.88700 0.99420 -0.03100
C 	C 	0.25800 0.88270 0.02490 -0.02700
C 	C 	0.24470 0.87720 0.06140 0.07600
C 	C 	0.26430 0.87790 0.09080 -0.12300
C 	C 	0.25120 0.87210 0.12600 0.06000
C 	C 	0.21800 0.86520 0.13240 -0.14900
C 	C 	0.19850 0.86470 0.10270 0.06000
C 	C 	0.21180 0.87060 0.06760 -0.12300
C 	C 	0.20340 0.85810 0.16970 0.44600
C 	C 	0.30110 0.95310 0.88070 -0.03100
C 	C 	0.30460 0.97740 0.86380 -0.02600
C 	C 	0.30870 0.00670 0.84410 0.07300
C 	C 	0.28800 0.02030 0.85210 -0.12300
C 	C 	0.29250 0.04920 0.83400 0.05800
C 	C 	0.31770 0.06510 0.80750 -0.14400
C 	C 	0.33800 0.05090 0.79930 0.05600
C 	C 	0.33350 0.02200 0.81740 -0.11900
C 	C 	0.32360 0.09710 0.78980 0.43300
C 	C 	0.30500 0.84690 0.88870 -0.02000
C 	C 	0.31010 0.82590 0.87470 -0.05000
C 	C 	0.31570 0.80070 0.85740 0.12400
C 	C 	0.32670 0.80490 0.81900 -0.07200
C 	C 	0.33190 0.78130 0.80000 0.06700
C 	C 	0.32540 0.75130 0.82190 -0.39500
C 	C 	0.32070 0.74850 0.85500 0.15600
C 	C 	0.31550 0.77230 0.87300 -0.11600
C 	C 	0.32920 0.72520 0.80140 1.03600
C 	C 	0.09100 0.89760 0.28240 0.06600
C 	C 	0.07410 0.91560 0.27940 -0.13000
C 	C 	0.26280 0.78880 0.25690 0.06100
C 	C 	0.28050 0.77110 0.25690 -0.12500
H 	H 	0.28100 0.93600 0.94800 0.08200
H 	H 	0.31100 0.90300 0.86100 0.07800
H 	H 	0.28500 0.84900 0.95500 0.07800
H 	H 	0.28700 0.88300 0.08700 0.07400
H 	H 	0.26500 0.87300 0.14600 0.02300
H 	H 	0.17600 0.86000 0.10600 0.02500
H 	H 	0.19800 0.87000 0.04800 0.07500
H 	H 	0.27100 0.01000 0.87000 0.07500
H 	H 	0.27800 0.05800 0.84000 0.02500
H 	H 	0.35500 0.06100 0.78100 0.02500
H 	H 	0.34800 0.01300 0.81200 0.07200
H 	H 	0.33100 0.82900 0.80400 0.04400
H 	H 	0.34000 0.78300 0.77100 0.03700
H 	H 	0.32100 0.72700 0.87000 0.01200
H 	H 	0.31000 0.76700 0.90300 0.05400
H 	H 	0.09200 0.88800 0.30500 0.02100
H 	H 	0.06400 0.91800 0.30100 0.07600
H 	H 	0.27500 0.81300 0.26200 0.02400
H 	H 	0.30400 0.78300 0.26200 0.07500
O 	O 	0.35500 0.73020 0.79610 -0.60400
O 	O 	0.30020 0.69590 0.79900 -0.53500
C 	C 	0.34540 0.80740 0.85000 -0.11500
C 	C 	0.34980 0.78230 0.83300 0.12600
C 	C 	0.28970 0.74360 0.83700 0.05300
C 	C 	0.28540 0.76880 0.85300 -0.07700
H 	H 	0.36800 0.83300 0.85600 0.05500
H 	H 	0.37700 0.79000 0.82900 0.01500
H 	H 	0.26700 0.71700 0.83400 0.03500
H 	H 	0.26000 0.76500 0.86300 0.04700
Zn	Zn	0.69698 0.84370 0.28940 1.27500
Zn	Zn	0.63563 0.85131 0.25900 1.28000
Zn	Zn	0.36730 0.70500 0.77150 1.17900
O 	O 	0.63750 0.85850 0.30360 -0.57000
O 	O 	0.67840 0.85170 0.32590 -0.54700
O 	O 	0.80410 0.11000 0.70050 -0.52400
O 	O 	0.76480 0.11150 0.73350 -0.53900
O 	O 	0.39360 0.73070 0.73710 -0.56200
O 	O 	0.37060 0.70080 0.68810 -0.59600
O 	O 	0.73440 0.87240 0.27890 -0.61600
O 	O 	0.59790 0.82240 0.24360 -0.57200
C 	C 	0.61100 0.89170 0.54270 0.08200
C 	C 	0.63440 0.91970 0.56280 -0.13700
C 	C 	0.62750 0.92410 0.59870 0.08200
C 	C 	0.59690 0.90010 0.61450 -0.13100
C 	C 	0.57330 0.87200 0.59470 0.07600
C 	C 	0.58050 0.86790 0.55880 -0.13100
C 	C 	0.61850 0.88700 0.50580 -0.03100
C 	C 	0.62470 0.88270 0.47510 -0.02700
C 	C 	0.63250 0.87720 0.43860 0.07600
C 	C 	0.61360 0.87790 0.40920 -0.12300
C 	C 	0.62090 0.87210 0.37400 0.06000
C 	C 	0.64720 0.86520 0.36760 -0.14900
C 	C 	0.66620 0.86470 0.39730 0.06000
C 	C 	0.65880 0.87060 0.43240 -0.12300
C 	C 	0.65470 0.85810 0.33030 0.44600
C 	C 	0.65200 0.95310 0.61930 -0.03100
C 	C 	0.67280 0.97740 0.63620 -0.02600
C 	C 	0.69800 0.00670 0.65590 0.07300
C 	C 	0.73230 0.02030 0.64790 -0.12300
C 	C 	0.75670 0.04920 0.66600 0.05800
C 	C 	0.74740 0.06510 0.69250 -0.14400
C 	C 	0.71290 0.05090 0.70070 0.05600
C 	C 	0.68850 0.02200 0.68260 -0.11900
C 	C 	0.77350 0.09710 0.71020 0.43300
C 	C 	0.54190 0.84690 0.61130 -0.02000
C 	C 	0.51580 0.82590 0.62530 -0.05000
C 	C 	0.48500 0.80070 0.64260 0.12400
C 	C 	0.47820 0.80490 0.68100 -0.07200
C 	C 	0.44940 0.78130 0.70000 0.06700
C 	C 	0.42590 0.75130 0.67810 -0.39500
C 	C 	0.42780 0.74850 0.64500 0.15600
C 	C 	0.45680 0.77230 0.62700 -0.11600
C 	C 	0.39600 0.72520 0.69860 1.03600
C 	C 	0.80660 0.89760 0.21760 0.06600
C 	C 	0.84150 0.91560 0.22060 -0.13000
C 	C 	0.52600 0.78880 0.24310 0.06100
C 	C 	0.49060 0.77110 0.24310 -0.12500
H 	H 	0.65500 0.93600 0.55200 0.08200
H 	H 	0.59200 0.90300 0.63900 0.07800
H 	H 	0.56400 0.84900 0.54500 0.07800
H 	H 	0.59600 0.88300 0.41300 0.07400
H 	H 	0.60800 0.87300 0.35400 0.02300
H 	H 	0.68400 0.86000 0.39400 0.02500
H 	H 	0.67200 0.87000 0.45200 0.07500
H 	H 	0.73900 0.01000 0.63000 0.07500
H 	H 	0.78000 0.05800 0.66000 0.02500
H 	H 	0.70600 0.06100 0.71900 0.02500
H 	H 	0.66500 0.01300 0.68800 0.07200
H 	H 	0.49800 0.82900 0.69600 0.04400
H 	H 	0.44300 0.78300 0.72900 0.03700
H 	H 	0.40600 0.72700 0.63000 0.01200
H 	H 	0.45700 0.76700 0.59700 0.05400
H 	H 	0.79600 0.88800 0.19500 0.02100
H 	H 	0.85400 0.91800 0.19900 0.07600
H 	H 	0.53800 0.81300 0.23800 0.02400
H 	H 	0.47900 0.78300 0.23800 0.07500
O 	O 	0.37520 0.73020 0.70390 -0.60400
O 	O 	0.39570 0.69590 0.70100 -0.53500
C 	C 	0.46200 0.80740 0.65000 -0.11500
C 	C 	0.43250 0.78230 0.66700 0.12600
C 	C 	0.45390 0.74360 0.66300 0.05300
C 	C 	0.48340 0.76880 0.64700 -0.07700
H 	H 	0.46500 0.83300 0.64400 0.05500
H 	H 	0.41300 0.79000 0.67100 0.01500
H 	H 	0.45000 0.71700 0.66600 0.03500
H 	H 	0.50500 0.76500 0.63700 0.04700
Zn	Zn	0.14672 0.30302 0.28940 1.27500
Zn	Zn	0.21568 0.36437 0.25900 1.28000
Zn	Zn	0.33770 0.63270 0.77150 1.17900
O 	O 	0.22100 0.36250 0.30360 -0.57000
O 	O 	0.17330 0.32160 0.32590 -0.54700
O 	O 	0.30590 0.19590 0.70050 -0.52400
O 	O 	0.34670 0.23520 0.73350 -0.53900
O 	O 	0.33710 0.60640 0.73710 -0.56200
O 	O 	0.33020 0.62940 0.68810 -0.59600
O 	O 	0.13800 0.26560 0.27890 -0.61600
O 	O 	0.22450 0.40210 0.24360 -0.57200
C 	C 	0.28070 0.38900 0.54270 0.08200
C 	C 	0.28530 0.36560 0.56280 -0.13700
C 	C 	0.29660 0.37250 0.59870 0.08200
C 	C 	0.30320 0.40310 0.61450 -0.13100
C 	C 	0.29870 0.42670 0.59470 0.07600
C 	C 	0.28740 0.41950 0.55880 -0.13100
C 	C 	0.26850 0.38150 0.50580 -0.03100
C 	C 	0.25800 0.37530 0.47510 -0.02700
C 	C 	0.24470 0.36750 0.43860 0.07600
C 	C 	0.26430 0.38640 0.40920 -0.12300
C 	C 	0.25120 0.37910 0.37400 0.06000
C 	C 	0.21800 0.35280 0.36760 -0.14900
C 	C 	0.19850 0.33380 0.39730 0.06000
C 	C 	0.21180 0.34120 0.43240 -0.12300
C 	C 	0.20340 0.34530 0.33030 0.44600
C 	C 	0.30110 0.34800 0.61930 -0.03100
C 	C 	0.30460 0.32720 0.63620 -0.02600
C 	C 	0.30870 0.30200 0.65590 0.07300
C 	C 	0.28800 0.26770 0.64790 -0.12300
C 	C 	0.29250 0.24330 0.66600 0.05800
C 	C 	0.31770 0.25260 0.69250 -0.14400
C 	C 	0.33800 0.28710 0.70070 0.05600
C 	C 	0.33350 0.31150 0.68260 -0.11900
C 	C 	0.32360 0.22650 0.71020 0.43300
C 	C 	0.30500 0.45810 0.61130 -0.02000
C 	C 	0.31010 0.48420 0.62530 -0.05000
C 	C 	0.31570 0.51500 0.64260 0.12400
C 	C 	0.32670 0.52180 0.68100 -0.07200
C 	C 	0.33190 0.55060 0.70000 0.06700
C 	C 	0.32540 0.57410 0.67810 -0.39500
C 	C 	0.32070 0.57220 0.64500 0.15600
C 	C 	0.31550 0.54320 0.62700 -0.11600
C 	C 	0.32920 0.60400 0.69860 1.03600
C 	C 	0.09100 0.19340 0.21760 0.06600
C 	C 	0.07410 0.15850 0.22060 -0.13000
C 	C 	0.26280 0.47400 0.24310 0.06100
C 	C 	0.28050 0.50940 0.24310 -0.12500
H 	H 	0.28100 0.34500 0.55200 0.08200
H 	H 	0.31100 0.40800 0.63900 0.07800
H 	H 	0.28500 0.43600 0.54500 0.07800
H 	H 	0.28700 0.40400 0.41300 0.07400
H 	H 	0.26500 0.39200 0.35400 0.02300
H 	H 	0.17600 0.31600 0.39400 0.02500
H 	H 	0.19800 0.32800 0.45200 0.07500
H 	H 	0.27100 0.26100 0.63000 0.07500
H 	H 	0.27800 0.22000 0.66000 0.02500
H 	H 	0.35500 0.29400 0.71900 0.02500
H 	H 	0.34800 0.33500 0.68800 0.07200
H 	H 	0.33100 0.50200 0.69600 0.04400
H 	H 	0.34000 0.55700 0.72900 0.03700
H 	H 	0.32100 0.59400 0.63000 0.01200
H 	H 	0.31000 0.54300 0.59700 0.05400
H 	H 	0.09200 0.20400 0.19500 0.02100
H 	H 	0.06400 0.14600 0.19900 0.07600
H 	H 	0.27500 0.46200 0.23800 0.02400
H 	H 	0.30400 0.52100 0.23800 0.07500
O 	O 	0.35500 0.62480 0.70390 -0.60400
O 	O 	0.30020 0.60430 0.70100 -0.53500
C 	C 	0.34540 0.53800 0.65000 -0.11500
C 	C 	0.34980 0.56750 0.66700 0.12600
C 	C 	0.28970 0.54610 0.66300 0.05300
C 	C 	0.28540 0.51660 0.64700 -0.07700
H 	H 	0.36800 0.53500 0.64400 0.05500
H 	H 	0.37700 0.58700 0.67100 0.01500
H 	H 	0.26700 0.55000 0.66600 0.03500
H 	H 	0.26000 0.49500 0.63700 0.04700
Zn	Zn	0.15630 0.85328 0.28940 1.27500
Zn	Zn	0.14869 0.78432 0.25900 1.28000
Zn	Zn	0.29500 0.66230 0.77150 1.17900
O 	O 	0.14150 0.77900 0.30360 -0.57000
O 	O 	0.14830 0.82670 0.32590 -0.54700
O 	O 	0.89000 0.69410 0.70050 -0.52400
O 	O 	0.88850 0.65330 0.73350 -0.53900
O 	O 	0.26930 0.66290 0.73710 -0.56200
O 	O 	0.29920 0.66980 0.68810 -0.59600
O 	O 	0.12760 0.86200 0.27890 -0.61600
O 	O 	0.17760 0.77550 0.24360 -0.57200
C 	C 	0.10830 0.71930 0.54270 0.08200
C 	C 	0.08030 0.71470 0.56280 -0.13700
C 	C 	0.07590 0.70340 0.59870 0.08200
C 	C 	0.09990 0.69680 0.61450 -0.13100
C 	C 	0.12800 0.70130 0.59470 0.07600
C 	C 	0.13210 0.71260 0.55880 -0.13100
C 	C 	0.11300 0.73150 0.50580 -0.03100
C 	C 	0.11730 0.74200 0.47510 -0.02700
C 	C 	0.12280 0.75530 0.43860 0.07600
C 	C 	0.12210 0.73570 0.40920 -0.12300
C 	C 	0.12790 0.74880 0.37400 0.06000
C 	C 	0.13480 0.78200 0.36760 -0.14900
C 	C 	0.13530 0.80150 0.39730 0.06000
C 	C 	0.12940 0.78820 0.43240 -0.12300
C 	C 	0.14190 0.79660 0.33030 0.44600
C 	C 	0.04690 0.69890 0.61930 -0.03100
C 	C 	0.02260 0.69540 0.63620 -0.02600
C 	C 	0.99330 0.69130 0.65590 0.07300
C 	C 	0.97970 0.71200 0.64790 -0.12300
C 	C 	0.95080 0.70750 0.66600 0.05800
C 	C 	0.93490 0.68230 0.69250 -0.14400
C 	C 	0.94910 0.66200 0.70070 0.05600
C 	C 	0.97800 0.66650 0.68260 -0.11900
C 	C 	0.90290 0.67640 0.71020 0.43300
C 	C 	0.15310 0.69500 0.61130 -0.02000
C 	C 	0.17410 0.68990 0.62530 -0.05000
C 	C 	0.19930 0.68430 0.64260 0.12400
C 	C 	0.19510 0.67330 0.68100 -0.07200
C 	C 	0.21870 0.66810 0.70000 0.06700
C 	C 	0.24870 0.67460 0.67810 -0.39500
C 	C 	0.25150 0.67930 0.64500 0.15600
C 	C 	0.22770 0.68450 0.62700 -0.11600
C 	C 	0.27480 0.67080 0.69860 1.03600
C 	C 	0.10240 0.90900 0.21760 0.06600
C 	C 	0.08440 0.92590 0.22060 -0.13000
C 	C 	0.21120 0.73720 0.24310 0.06100
C 	C 	0.22890 0.71950 0.24310 -0.12500
H 	H 	0.06400 0.71900 0.55200 0.08200
H 	H 	0.09700 0.68900 0.63900 0.07800
H 	H 	0.15100 0.71500 0.54500 0.07800
H 	H 	0.11700 0.71300 0.41300 0.07400
H 	H 	0.12700 0.73500 0.35400 0.02300
H 	H 	0.14000 0.82400 0.39400 0.02500
H 	H 	0.13000 0.80200 0.45200 0.07500
H 	H 	0.99000 0.72900 0.63000 0.07500
H 	H 	0.94200 0.72200 0.66000 0.02500
H 	H 	0.93900 0.64500 0.71900 0.02500
H 	H 	0.98700 0.65200 0.68800 0.07200
H 	H 	0.17100 0.66900 0.69600 0.04400
H 	H 	0.21700 0.66000 0.72900 0.03700
H 	H 	0.27300 0.67900 0.63000 0.01200
H 	H 	0.23300 0.69000 0.59700 0.05400
H 	H 	0.11200 0.90800 0.19500 0.02100
H 	H 	0.08200 0.93600 0.19900 0.07600
H 	H 	0.18700 0.72500 0.23800 0.02400
H 	H 	0.21700 0.69600 0.23800 0.07500
O 	O 	0.26980 0.64500 0.70390 -0.60400
O 	O 	0.30410 0.69980 0.70100 -0.53500
C 	C 	0.19260 0.65460 0.65000 -0.11500
C 	C 	0.21770 0.65020 0.66700 0.12600
C 	C 	0.25640 0.71030 0.66300 0.05300
C 	C 	0.23120 0.71460 0.64700 -0.07700
H 	H 	0.16700 0.63200 0.64400 0.05500
H 	H 	0.21000 0.62300 0.67100 0.01500
H 	H 	0.28300 0.73300 0.66600 0.03500
H 	H 	0.23500 0.74000 0.63700 0.04700
Zn	Zn	0.84370 0.69698 0.78940 1.27500
Zn	Zn	0.85131 0.63563 0.75900 1.28000
Zn	Zn	0.70500 0.36730 0.27150 1.17900
O 	O 	0.85850 0.63750 0.80360 -0.57000
O 	O 	0.85170 0.67840 0.82590 -0.54700
O 	O 	0.11000 0.80410 0.20050 -0.52400
O 	O 	0.11150 0.76480 0.23350 -0.53900
O 	O 	0.73070 0.39360 0.23710 -0.56200
O 	O 	0.70080 0.37060 0.18810 -0.59600
O 	O 	0.87240 0.73440 0.77890 -0.61600
O 	O 	0.82240 0.59790 0.74360 -0.57200
C 	C 	0.89170 0.61100 0.04270 0.08200
C 	C 	0.91970 0.63440 0.06280 -0.13700
C 	C 	0.92410 0.62750 0.09870 0.08200
C 	C 	0.90010 0.59690 0.11450 -0.13100
C 	C 	0.87200 0.57330 0.09470 0.07600
C 	C 	0.86790 0.58050 0.05880 -0.13100
C 	C 	0.88700 0.61850 0.00580 -0.03100
C 	C 	0.88270 0.62470 0.97510 -0.02700
C 	C 	0.87720 0.63250 0.93860 0.07600
C 	C 	0.87790 0.61360 0.90920 -0.12300
C 	C 	0.87210 0.62090 0.87400 0.06000
C 	C 	0.86520 0.64720 0.86760 -0.14900
C 	C 	0.86470 0.66620 0.89730 0.06000
C 	C 	0.87060 0.65880 0.93240 -0.12300
C 	C 	0.85810 0.65470 0.83030 0.44600
C 	C 	0.95310 0.65200 0.11930 -0.03100
C 	C 	0.97740 0.67280 0.13620 -0.02600
C 	C 	0.00670 0.69800 0.15590 0.07300
C 	C 	0.02030 0.73230 0.14790 -0.12300
C 	C 	0.04920 0.75670 0.16600 0.05800
C 	C 	0.06510 0.74740 0.19250 -0.14400
C 	C 	0.05090 0.71290 0.20070 0.05600
C 	C 	0.02200 0.68850 0.18260 -0.11900
C 	C 	0.09710 0.77350 0.21020 0.43300
C 	C 	0.84690 0.54190 0.11130 -0.02000
C 	C 	0.82590 0.51580 0.12530 -0.05000
C 	C 	0.80070 0.48500 0.14260 0.12400
C 	C 	0.80490 0.47820 0.18100 -0.07200
C 	C 	0.78130 0.44940 0.20000 0.06700
C 	C 	0.75130 0.42590 0.17810 -0.39500
C 	C 	0.74850 0.42780 0.14500 0.15600
C 	C 	0.77230 0.45680 0.12700 -0.11600
C 	C 	0.72520 0.39600 0.19860 1.03600
C 	C 	0.89760 0.80660 0.71760 0.06600
C 	C 	0.91560 0.84150 0.72060 -0.13000
C 	C 	0.78880 0.52600 0.74310 0.06100
C 	C 	0.77110 0.49060 0.74310 -0.12500
H 	H 	0.93600 0.65500 0.05200 0.08200
H 	H 	0.90300 0.59200 0.13900 0.07800
H 	H 	0.84900 0.56400 0.04500 0.07800
H 	H 	0.88300 0.59600 0.91300 0.07400
H 	H 	0.87300 0.60800 0.85400 0.02300
H 	H 	0.86000 0.68400 0.89400 0.02500
H 	H 	0.87000 0.67200 0.95200 0.07500
H 	H 	0.01000 0.73900 0.13000 0.07500
H 	H 	0.05800 0.78000 0.16000 0.02500
H 	H 	0.06100 0.70600 0.21900 0.02500
H 	H 	0.01300 0.66500 0.18800 0.07200
H 	H 	0.82900 0.49800 0.19600 0.04400
H 	H 	0.78300 0.44300 0.22900 0.03700
H 	H 	0.72700 0.40600 0.13000 0.01200
H 	H 	0.76700 0.45700 0.09700 0.05400
H 	H 	0.88800 0.79600 0.69500 0.02100
H 	H 	0.91800 0.85400 0.69900 0.07600
H 	H 	0.81300 0.53800 0.73800 0.02400
H 	H 	0.78300 0.47900 0.73800 0.07500
O 	O 	0.73020 0.37520 0.20390 -0.60400
O 	O 	0.69590 0.39570 0.20100 -0.53500
C 	C 	0.80740 0.46200 0.15000 -0.11500
C 	C 	0.78230 0.43250 0.16700 0.12600
C 	C 	0.74360 0.45390 0.16300 0.05300
C 	C 	0.76880 0.48340 0.14700 -0.07700
H 	H 	0.83300 0.46500 0.14400 0.05500
H 	H 	0.79000 0.41300 0.17100 0.01500
H 	H 	0.71700 0.45000 0.16600 0.03500
H 	H 	0.76500 0.50500 0.13700 0.04700
Zn	Zn	0.30302 0.14672 0.78940 1.27500
Zn	Zn	0.36437 0.21568 0.75900 1.28000
Zn	Zn	0.63270 0.33770 0.27150 1.17900
O 	O 	0.36250 0.22100 0.80360 -0.57000
O 	O 	0.32160 0.17330 0.82590 -0.54700
O 	O 	0.19590 0.30590 0.20050 -0.52400
O 	O 	0.23520 0.34670 0.23350 -0.53900
O 	O 	0.60640 0.33710 0.23710 -0.56200
O 	O 	0.62940 0.33020 0.18810 -0.59600
O 	O 	0.26560 0.13800 0.77890 -0.61600
O 	O 	0.40210 0.22450 0.74360 -0.57200
C 	C 	0.38900 0.28070 0.04270 0.08200
C 	C 	0.36560 0.28530 0.06280 -0.13700
C 	C 	0.37250 0.29660 0.09870 0.08200
C 	C 	0.40310 0.30320 0.11450 -0.13100
C 	C 	0.42670 0.29870 0.09470 0.07600
C 	C 	0.41950 0.28740 0.05880 -0.13100
C 	C 	0.38150 0.26850 0.00580 -0.03100
C 	C 	0.37530 0.25800 0.97510 -0.02700
C 	C 	0.36750 0.24470 0.93860 0.07600
C 	C 	0.38640 0.26430 0.90920 -0.12300
C 	C 	0.37910 0.25120 0.87400 0.06000
C 	C 	0.35280 0.21800 0.86760 -0.14900
C 	C 	0.33380 0.19850 0.89730 0.06000
C 	C 	0.34120 0.21180 0.93240 -0.12300
C 	C 	0.34530 0.20340 0.83030 0.44600
C 	C 	0.34800 0.30110 0.11930 -0.03100
C 	C 	0.32720 0.30460 0.13620 -0.02600
C 	C 	0.30200 0.30870 0.15590 0.07300
C 	C 	0.26770 0.28800 0.14790 -0.12300
C 	C 	0.24330 0.29250 0.16600 0.05800
C 	C 	0.25260 0.31770 0.19250 -0.14400
C 	C 	0.28710 0.33800 0.20070 0.05600
C 	C 	0.31150 0.33350 0.18260 -0.11900
C 	C 	0.22650 0.32360 0.21020 0.43300
C 	C 	0.45810 0.30500 0.11130 -0.02000
C 	C 	0.48420 0.31010 0.12530 -0.05000
C 	C 	0.51500 0.31570 0.14260 0.12400
C 	C 	0.52180 0.32670 0.18100 -0.07200
C 	C 	0.55060 0.33190 0.20000 0.06700
C 	C 	0.57410 0.32540 0.17810 -0.39500
C 	C 	0.57220 0.32070 0.14500 0.15600
C 	C 	0.54320 0.31550 0.12700 -0.11600
C 	C 	0.60400 0.32920 0.19860 1.03600
C 	C 	0.19340 0.09100 0.71760 0.06600
C 	C 	0.15850 0.07410 0.72060 -0.13000
C 	C 	0.47400 0.26280 0.74310 0.06100
C 	C 	0.50940 0.28050 0.74310 -0.12500
H 	H 	0.34500 0.28100 0.05200 0.08200
H 	H 	0.40800 0.31100 0.13900 0.07800
H 	H 	0.43600 0.28500 0.04500 0.07800
H 	H 	0.40400 0.28700 0.91300 0.07400
H 	H 	0.39200 0.26500 0.85400 0.02300
H 	H 	0.31600 0.17600 0.89400 0.02500
H 	H 	0.32800 0.19800 0.95200 0.07500
H 	H 	0.26100 0.27100 0.13000 0.07500
H 	H 	0.22000 0.27800 0.16000 0.02500
H 	H 	0.29400 0.35500 0.21900 0.02500
H 	H 	0.33500 0.34800 0.18800 0.07200
H 	H 	0.50200 0.33100 0.19600 0.04400
H 	H 	0.55700 0.34000 0.22900 0.03700
H 	H 	0.59400 0.32100 0.13000 0.01200
H 	H 	0.54300 0.31000 0.09700 0.05400
H 	H 	0.20400 0.09200 0.69500 0.02100
H 	H 	0.14600 0.06400 0.69900 0.07600
H 	H 	0.46200 0.27500 0.73800 0.02400
H 	H 	0.52100 0.30400 0.73800 0.07500
O 	O 	0.62480 0.35500 0.20390 -0.60400
O 	O 	0.60430 0.30020 0.20100 -0.53500
C 	C 	0.53800 0.34540 0.15000 -0.11500
C 	C 	0.56750 0.34980 0.16700 0.12600
C 	C 	0.54610 0.28970 0.16300 0.05300
C 	C 	0.51660 0.28540 0.14700 -0.07700
H 	H 	0.53500 0.36800 0.14400 0.05500
H 	H 	0.58700 0.37700 0.17100 0.01500
H 	H 	0.55000 0.26700 0.16600 0.03500
H 	H 	0.49500 0.26000 0.13700 0.04700
Zn	Zn	0.85328 0.15630 0.78940 1.27500
Zn	Zn	0.78432 0.14869 0.75900 1.28000
Zn	Zn	0.66230 0.29500 0.27150 1.17900
O 	O 	0.77900 0.14150 0.80360 -0.57000
O 	O 	0.82670 0.14830 0.82590 -0.54700
O 	O 	0.69410 0.89000 0.20050 -0.52400
O 	O 	0.65330 0.88850 0.23350 -0.53900
O 	O 	0.66290 0.26930 0.23710 -0.56200
O 	O 	0.66980 0.29920 0.18810 -0.59600
O 	O 	0.86200 0.12760 0.77890 -0.61600
O 	O 	0.77550 0.17760 0.74360 -0.57200
C 	C 	0.71930 0.10830 0.04270 0.08200
C 	C 	0.71470 0.08030 0.06280 -0.13700
C 	C 	0.70340 0.07590 0.09870 0.08200
C 	C 	0.69680 0.09990 0.11450 -0.13100
C 	C 	0.70130 0.12800 0.09470 0.07600
C 	C 	0.71260 0.13210 0.05880 -0.13100
C 	C 	0.73150 0.11300 0.00580 -0.03100
C 	C 	0.74200 0.11730 0.97510 -0.02700
C 	C 	0.75530 0.12280 0.93860 0.07600
C 	C 	0.73570 0.12210 0.90920 -0.12300
C 	C 	0.74880 0.12790 0.87400 0.06000
C 	C 	0.78200 0.13480 0.86760 -0.14900
C 	C 	0.80150 0.13530 0.89730 0.06000
C 	C 	0.78820 0.12940 0.93240 -0.12300
C 	C 	0.79660 0.14190 0.83030 0.44600
C 	C 	0.69890 0.04690 0.11930 -0.03100
C 	C 	0.69540 0.02260 0.13620 -0.02600
C 	C 	0.69130 0.99330 0.15590 0.07300
C 	C 	0.71200 0.97970 0.14790 -0.12300
C 	C 	0.70750 0.95080 0.16600 0.05800
C 	C 	0.68230 0.93490 0.19250 -0.14400
C 	C 	0.66200 0.94910 0.20070 0.05600
C 	C 	0.66650 0.97800 0.18260 -0.11900
C 	C 	0.67640 0.90290 0.21020 0.43300
C 	C 	0.69500 0.15310 0.11130 -0.02000
C 	C 	0.68990 0.17410 0.12530 -0.05000
C 	C 	0.68430 0.19930 0.14260 0.12400
C 	C 	0.67330 0.19510 0.18100 -0.07200
C 	C 	0.66810 0.21870 0.20000 0.06700
C 	C 	0.67460 0.24870 0.17810 -0.39500
C 	C 	0.67930 0.25150 0.14500 0.15600
C 	C 	0.68450 0.22770 0.12700 -0.11600
C 	C 	0.67080 0.27480 0.19860 1.03600
C 	C 	0.90900 0.10240 0.71760 0.06600
C 	C 	0.92590 0.08440 0.72060 -0.13000
C 	C 	0.73720 0.21120 0.74310 0.06100
C 	C 	0.71950 0.22890 0.74310 -0.12500
H 	H 	0.71900 0.06400 0.05200 0.08200
H 	H 	0.68900 0.09700 0.13900 0.07800
H 	H 	0.71500 0.15100 0.04500 0.07800
H 	H 	0.71300 0.11700 0.91300 0.07400
H 	H 	0.73500 0.12700 0.85400 0.02300
H 	H 	0.82400 0.14000 0.89400 0.02500
H 	H 	0.80200 0.13000 0.95200 0.07500
H 	H 	0.72900 0.99000 0.13000 0.07500
H 	H 	0.72200 0.94200 0.16000 0.02500
H 	H 	0.64500 0.93900 0.21900 0.02500
H 	H 	0.65200 0.98700 0.18800 0.07200
H 	H 	0.66900 0.17100 0.19600 0.04400
H 	H 	0.66000 0.21700 0.22900 0.03700
H 	H 	0.67900 0.27300 0.13000 0.01200
H 	H 	0.69000 0.23300 0.09700 0.05400
H 	H 	0.90800 0.11200 0.69500 0.02100
H 	H 	0.93600 0.08200 0.69900 0.07600
H 	H 	0.72500 0.18700 0.73800 0.02400
H 	H 	0.69600 0.21700 0.73800 0.07500
O 	O 	0.64500 0.26980 0.20390 -0.60400
O 	O 	0.69980 0.30410 0.20100 -0.53500
C 	C 	0.65460 0.19260 0.15000 -0.11500
C 	C 	0.65020 0.21770 0.16700 0.12600
C 	C 	0.71030 0.25640 0.16300 0.05300
C 	C 	0.71460 0.23120 0.14700 -0.07700
H 	H 	0.63200 0.16700 0.14400 0.05500
H 	H 	0.62300 0.21000 0.17100 0.01500
H 	H 	0.73300 0.28300 0.16600 0.03500
H 	H 	0.74000 0.23500 0.13700 0.04700
Zn	Zn	0.30302 0.15630 0.71060 1.27500
Zn	Zn	0.36437 0.14869 0.74100 1.28000
Zn	Zn	0.63270 0.29500 0.22850 1.17900
O 	O 	0.36250 0.14150 0.69640 -0.57000
O 	O 	0.32160 0.14830 0.67410 -0.54700
O 	O 	0.19590 0.89000 0.29950 -0.52400
O 	O 	0.23520 0.88850 0.26650 -0.53900
O 	O 	0.60640 0.26930 0.26290 -0.56200
O 	O 	0.62940 0.29920 0.31190 -0.59600
O 	O 	0.26560 0.12760 0.72110 -0.61600
O 	O 	0.40210 0.17760 0.75640 -0.57200
C 	C 	0.38900 0.10830 0.45730 0.08200
C 	C 	0.36560 0.08030 0.43720 -0.13700
C 	C 	0.37250 0.07590 0.40130 0.08200
C 	C 	0.40310 0.09990 0.38550 -0.13100
C 	C 	0.42670 0.12800 0.40530 0.07600
C 	C 	0.41950 0.13210 0.44120 -0.13100
C 	C 	0.38150 0.11300 0.49420 -0.03100
C 	C 	0.37530 0.11730 0.52490 -0.02700
C 	C 	0.36750 0.12280 0.56140 0.07600
C 	C 	0.38640 0.12210 0.59080 -0.12300
C 	C 	0.37910 0.12790 0.62600 0.06000
C 	C 	0.35280 0.13480 0.63240 -0.14900
C 	C 	0.33380 0.13530 0.60270 0.06000
C 	C 	0.34120 0.12940 0.56760 -0.12300
C 	C 	0.34530 0.14190 0.66970 0.44600
C 	C 	0.34800 0.04690 0.38070 -0.03100
C 	C 	0.32720 0.02260 0.36380 -0.02600
C 	C 	0.30200 0.99330 0.34410 0.07300
C 	C 	0.26770 0.97970 0.35210 -0.12300
C 	C 	0.24330 0.95080 0.33400 0.05800
C 	C 	0.25260 0.93490 0.30750 -0.14400
C 	C 	0.28710 0.94910 0.29930 0.05600
C 	C 	0.31150 0.97800 0.31740 -0.11900
C 	C 	0.22650 0.90290 0.28980 0.43300
C 	C 	0.45810 0.15310 0.38870 -0.02000
C 	C 	0.48420 0.17410 0.37470 -0.05000
C 	C 	0.51500 0.19930 0.35740 0.12400
C 	C 	0.52180 0.19510 0.31900 -0.07200
C 	C 	0.55060 0.21870 0.30000 0.06700
C 	C 	0.57410 0.24870 0.32190 -0.39500
C 	C 	0.57220 0.25150 0.35500 0.15600
C 	C 	0.54320 0.22770 0.37300 -0.11600
C 	C 	0.60400 0.27480 0.30140 1.03600
C 	C 	0.19340 0.10240 0.78240 0.06600
C 	C 	0.15850 0.08440 0.77940 -0.13000
C 	C 	0.47400 0.21120 0.75690 0.06100
C 	C 	0.50940 0.22890 0.75690 -0.12500
H 	H 	0.34500 0.06400 0.44800 0.08200
H 	H 	0.40800 0.09700 0.36100 0.07800
H 	H 	0.43600 0.15100 0.45500 0.07800
H 	H 	0.40400 0.11700 0.58700 0.07400
H 	H 	0.39200 0.12700 0.64600 0.02300
H 	H 	0.31600 0.14000 0.60600 0.02500
H 	H 	0.32800 0.13000 0.54800 0.07500
H 	H 	0.26100 0.99000 0.37000 0.07500
H 	H 	0.22000 0.94200 0.34000 0.02500
H 	H 	0.29400 0.93900 0.28100 0.02500
H 	H 	0.33500 0.98700 0.31200 0.07200
H 	H 	0.50200 0.17100 0.30400 0.04400
H 	H 	0.55700 0.21700 0.27100 0.03700
H 	H 	0.59400 0.27300 0.37000 0.01200
H 	H 	0.54300 0.23300 0.40300 0.05400
H 	H 	0.20400 0.11200 0.80500 0.02100
H 	H 	0.14600 0.08200 0.80100 0.07600
H 	H 	0.46200 0.18700 0.76200 0.02400
H 	H 	0.52100 0.21700 0.76200 0.07500
O 	O 	0.62480 0.26980 0.29610 -0.60400
O 	O 	0.60430 0.30410 0.29900 -0.53500
C 	C 	0.53800 0.19260 0.35000 -0.11500
C 	C 	0.56750 0.21770 0.33300 0.12600
C 	C 	0.54610 0.25640 0.33700 0.05300
C 	C 	0.51660 0.23120 0.35300 -0.07700
H 	H 	0.53500 0.16700 0.35600 0.05500
H 	H 	0.58700 0.21000 0.32900 0.01500
H 	H 	0.55000 0.28300 0.33400 0.03500
H 	H 	0.49500 0.23500 0.36300 0.04700
Zn	Zn	0.85328 0.69698 0.71060 1.27500
Zn	Zn	0.78432 0.63563 0.74100 1.28000
Zn	Zn	0.66230 0.36730 0.22850 1.17900
O 	O 	0.77900 0.63750 0.69640 -0.57000
O 	O 	0.82670 0.67840 0.67410 -0.54700
O 	O 	0.69410 0.80410 0.29950 -0.52400
O 	O 	0.65330 0.76480 0.26650 -0.53900
O 	O 	0.66290 0.39360 0.26290 -0.56200
O 	O 	0.66980 0.37060 0.31190 -0.59600
O 	O 	0.86200 0.73440 0.72110 -0.61600
O 	O 	0.77550 0.59790 0.75640 -0.57200
C 	C 	0.71930 0.61100 0.45730 0.08200
C 	C 	0.71470 0.63440 0.43720 -0.13700
C 	C 	0.70340 0.62750 0.40130 0.08200
C 	C 	0.69680 0.59690 0.38550 -0.13100
C 	C 	0.70130 0.57330 0.40530 0.07600
C 	C 	0.71260 0.58050 0.44120 -0.13100
C 	C 	0.73150 0.61850 0.49420 -0.03100
C 	C 	0.74200 0.62470 0.52490 -0.02700
C 	C 	0.75530 0.63250 0.56140 0.07600
C 	C 	0.73570 0.61360 0.59080 -0.12300
C 	C 	0.74880 0.62090 0.62600 0.06000
C 	C 	0.78200 0.64720 0.63240 -0.14900
C 	C 	0.80150 0.66620 0.60270 0.06000
C 	C 	0.78820 0.65880 0.56760 -0.12300
C 	C 	0.79660 0.65470 0.66970 0.44600
C 	C 	0.69890 0.65200 0.38070 -0.03100
C 	C 	0.69540 0.67280 0.36380 -0.02600
C 	C 	0.69130 0.69800 0.34410 0.07300
C 	C 	0.71200 0.73230 0.35210 -0.12300
C 	C 	0.70750 0.75670 0.33400 0.05800
C 	C 	0.68230 0.74740 0.30750 -0.14400
C 	C 	0.66200 0.71290 0.29930 0.05600
C 	C 	0.66650 0.68850 0.31740 -0.11900
C 	C 	0.67640 0.77350 0.28980 0.43300
C 	C 	0.69500 0.54190 0.38870 -0.02000
C 	C 	0.68990 0.51580 0.37470 -0.05000
C 	C 	0.68430 0.48500 0.35740 0.12400
C 	C 	0.67330 0.47820 0.31900 -0.07200
C 	C 	0.66810 0.44940 0.30000 0.06700
C 	C 	0.67460 0.42590 0.32190 -0.39500
C 	C 	0.67930 0.42780 0.35500 0.15600
C 	C 	0.68450 0.45680 0.37300 -0.11600
C 	C 	0.67080 0.39600 0.30140 1.03600
C 	C 	0.90900 0.80660 0.78240 0.06600
C 	C 	0.92590 0.84150 0.77940 -0.13000
C 	C 	0.73720 0.52600 0.75690 0.06100
C 	C 	0.71950 0.49060 0.75690 -0.12500
H 	H 	0.71900 0.65500 0.44800 0.08200
H 	H 	0.68900 0.59200 0.36100 0.07800
H 	H 	0.71500 0.56400 0.45500 0.07800
H 	H 	0.71300 0.59600 0.58700 0.07400
H 	H 	0.73500 0.60800 0.64600 0.02300
H 	H 	0.82400 0.68400 0.60600 0.02500
H 	H 	0.80200 0.67200 0.54800 0.07500
H 	H 	0.72900 0.73900 0.37000 0.07500
H 	H 	0.72200 0.78000 0.34000 0.02500
H 	H 	0.64500 0.70600 0.28100 0.02500
H 	H 	0.65200 0.66500 0.31200 0.07200
H 	H 	0.66900 0.49800 0.30400 0.04400
H 	H 	0.66000 0.44300 0.27100 0.03700
H 	H 	0.67900 0.40600 0.37000 0.01200
H 	H 	0.69000 0.45700 0.40300 0.05400
H 	H 	0.90800 0.79600 0.80500 0.02100
H 	H 	0.93600 0.85400 0.80100 0.07600
H 	H 	0.72500 0.53800 0.76200 0.02400
H 	H 	0.69600 0.47900 0.76200 0.07500
O 	O 	0.64500 0.37520 0.29610 -0.60400
O 	O 	0.69980 0.39570 0.29900 -0.53500
C 	C 	0.65460 0.46200 0.35000 -0.11500
C 	C 	0.65020 0.43250 0.33300 0.12600
C 	C 	0.71030 0.45390 0.33700 0.05300
C 	C 	0.71460 0.48340 0.35300 -0.07700
H 	H 	0.63200 0.46500 0.35600 0.05500
H 	H 	0.62300 0.41300 0.32900 0.01500
H 	H 	0.73300 0.45000 0.33400 0.03500
H 	H 	0.74000 0.50500 0.36300 0.04700
Zn	Zn	0.84370 0.14672 0.71060 1.27500
Zn	Zn	0.85131 0.21568 0.74100 1.28000
Zn	Zn	0.70500 0.33770 0.22850 1.17900
O 	O 	0.85850 0.22100 0.69640 -0.57000
O 	O 	0.85170 0.17330 0.67410 -0.54700
O 	O 	0.11000 0.30590 0.29950 -0.52400
O 	O 	0.11150 0.34670 0.26650 -0.53900
O 	O 	0.73070 0.33710 0.26290 -0.56200
O 	O 	0.70080 0.33020 0.31190 -0.59600
O 	O 	0.87240 0.13800 0.72110 -0.61600
O 	O 	0.82240 0.22450 0.75640 -0.57200
C 	C 	0.89170 0.28070 0.45730 0.08200
C 	C 	0.91970 0.28530 0.43720 -0.13700
C 	C 	0.92410 0.29660 0.40130 0.08200
C 	C 	0.90010 0.30320 0.38550 -0.13100
C 	C 	0.87200 0.29870 0.40530 0.07600
C 	C 	0.86790 0.28740 0.44120 -0.13100
C 	C 	0.88700 0.26850 0.49420 -0.03100
C 	C 	0.88270 0.25800 0.52490 -0.02700
C 	C 	0.87720 0.24470 0.56140 0.07600
C 	C 	0.87790 0.26430 0.59080 -0.12300
C 	C 	0.87210 0.25120 0.62600 0.06000
C 	C 	0.86520 0.21800 0.63240 -0.14900
C 	C 	0.86470 0.19850 0.60270 0.06000
C 	C 	0.87060 0.21180 0.56760 -0.12300
C 	C 	0.85810 0.20340 0.66970 0.44600
C 	C 	0.95310 0.30110 0.38070 -0.03100
C 	C 	0.97740 0.30460 0.36380 -0.02600
C 	C 	0.00670 0.30870 0.34410 0.07300
C 	C 	0.02030 0.28800 0.35210 -0.12300
C 	C 	0.04920 0.29250 0.33400 0.05800
C 	C 	0.06510 0.31770 0.30750 -0.14400
C 	C 	0.05090 0.33800 0.29930 0.05600
C 	C 	0.02200 0.33350 0.31740 -0.11900
C 	C 	0.09710 0.32360 0.28980 0.43300
C 	C 	0.84690 0.30500 0.38870 -0.02000
C 	C 	0.82590 0.31010 0.37470 -0.05000
C 	C 	0.80070 0.31570 0.35740 0.12400
C 	C 	0.80490 0.32670 0.31900 -0.07200
C 	C 	0.78130 0.33190 0.30000 0.06700
C 	C 	0.75130 0.32540 0.32190 -0.39500
C 	C 	0.74850 0.32070 0.35500 0.15600
C 	C 	0.77230 0.31550 0.37300 -0.11600
C 	C 	0.72520 0.32920 0.30140 1.03600
C 	C 	0.89760 0.09100 0.78240 0.06600
C 	C 	0.91560 0.07410 0.77940 -0.13000
C 	C 	0.78880 0.26280 0.75690 0.06100
C 	C 	0.77110 0.28050 0.75690 -0.12500
H 	H 	0.93600 0.28100 0.44800 0.08200
H 	H 	0.90300 0.31100 0.36100 0.07800
H 	H 	0.84900 0.28500 0.45500 0.07800
H 	H 	0.88300 0.28700 0.58700 0.07400
H 	H 	0.87300 0.26500 0.64600 0.02300
H 	H 	0.86000 0.17600 0.60600 0.02500
H 	H 	0.87000 0.19800 0.54800 0.07500
H 	H 	0.01000 0.27100 0.37000 0.07500
H 	H 	0.05800 0.27800 0.34000 0.02500
H 	H 	0.06100 0.35500 0.28100 0.02500
H 	H 	0.01300 0.34800 0.31200 0.07200
H 	H 	0.82900 0.33100 0.30400 0.04400
H 	H 	0.78300 0.34000 0.27100 0.03700
H 	H 	0.72700 0.32100 0.37000 0.01200
H 	H 	0.76700 0.31000 0.40300 0.05400
H 	H 	0.88800 0.09200 0.80500 0.02100
H 	H 	0.91800 0.06400 0.80100 0.07600
H 	H 	0.81300 0.27500 0.76200 0.02400
H 	H 	0.78300 0.30400 0.76200 0.07500
O 	O 	0.73020 0.35500 0.29610 -0.60400
O 	O 	0.69590 0.30020 0.29900 -0.53500
C 	C 	0.80740 0.34540 0.35000 -0.11500
C 	C 	0.78230 0.34980 0.33300 0.12600
C 	C 	0.74360 0.28970 0.33700 0.05300
C 	C 	0.76880 0.28540 0.35300 -0.07700
H 	H 	0.83300 0.36800 0.35600 0.05500
H 	H 	0.79000 0.37700 0.32900 0.01500
H 	H 	0.71700 0.26700 0.33400 0.03500
H 	H 	0.76500 0.26000 0.36300 0.04700
O 	O 	0.16765 0.33530 0.25000 -0.85200
C 	C 	0.12485 0.24970 0.25000 0.46100
C 	C 	0.10600 0.21200 0.25000 -0.15300
C 	C 	0.06965 0.13930 0.25000 0.08900
C 	C 	0.05140 0.10280 0.25000 -0.03800
C 	C 	0.03610 0.07220 0.25000 -0.02200
C 	C 	0.01775 0.03550 0.25000 0.07000
C 	C 	0.20900 0.41800 0.25000 0.43900
C 	C 	0.22790 0.45580 0.25000 -0.15000
C 	C 	0.26365 0.52730 0.25000 0.07700
C 	C 	0.28195 0.56390 0.25000 -0.02700
C 	C 	0.29725 0.59450 0.25000 -0.03200
C 	C 	0.31555 0.63110 0.25000 0.08600
O 	O 	0.66470 0.83235 0.25000 -0.85200
C 	C 	0.75030 0.87515 0.25000 0.46100
C 	C 	0.78800 0.89400 0.25000 -0.15300
C 	C 	0.86070 0.93035 0.25000 0.08900
C 	C 	0.89720 0.94860 0.25000 -0.03800
C 	C 	0.92780 0.96390 0.25000 -0.02200
C 	C 	0.96450 0.98225 0.25000 0.07000
C 	C 	0.58200 0.79100 0.25000 0.43900
C 	C 	0.54420 0.77210 0.25000 -0.15000
C 	C 	0.47270 0.73635 0.25000 0.07700
C 	C 	0.43610 0.71805 0.25000 -0.02700
C 	C 	0.40550 0.70275 0.25000 -0.03200
C 	C 	0.36890 0.68445 0.25000 0.08600
O 	O 	0.16765 0.83235 0.25000 -0.85200
C 	C 	0.12485 0.87515 0.25000 0.46100
C 	C 	0.10600 0.89400 0.25000 -0.15300
C 	C 	0.06965 0.93035 0.25000 0.08900
C 	C 	0.05140 0.94860 0.25000 -0.03800
C 	C 	0.03610 0.96390 0.25000 -0.02200
C 	C 	0.01775 0.98225 0.25000 0.07000
C 	C 	0.20900 0.79100 0.25000 0.43900
C 	C 	0.22790 0.77210 0.25000 -0.15000
C 	C 	0.26365 0.73635 0.25000 0.07700
C 	C 	0.28195 0.71805 0.25000 -0.02700
C 	C 	0.29725 0.70275 0.25000 -0.03200
C 	C 	0.31555 0.68445 0.25000 0.08600
O 	O 	0.83235 0.66470 0.75000 -0.85200
C 	C 	0.87515 0.75030 0.75000 0.46100
C 	C 	0.89400 0.78800 0.75000 -0.15300
C 	C 	0.93035 0.86070 0.75000 0.08900
C 	C 	0.94860 0.89720 0.75000 -0.03800
C 	C 	0.96390 0.92780 0.75000 -0.02200
C 	C 	0.98225 0.96450 0.75000 0.07000
C 	C 	0.79100 0.58200 0.75000 0.43900
C 	C 	0.77210 0.54420 0.75000 -0.15000
C 	C 	0.73635 0.47270 0.75000 0.07700
C 	C 	0.71805 0.43610 0.75000 -0.02700
C 	C 	0.70275 0.40550 0.75000 -0.03200
C 	C 	0.68445 0.36890 0.75000 0.08600
O 	O 	0.33530 0.16765 0.75000 -0.85200
C 	C 	0.24970 0.12485 0.75000 0.46100
C 	C 	0.21200 0.10600 0.75000 -0.15300
C 	C 	0.13930 0.06965 0.75000 0.08900
C 	C 	0.10280 0.05140 0.75000 -0.03800
C 	C 	0.07220 0.03610 0.75000 -0.02200
C 	C 	0.03550 0.01775 0.75000 0.07000
C 	C 	0.41800 0.20900 0.75000 0.43900
C 	C 	0.45580 0.22790 0.75000 -0.15000
C 	C 	0.52730 0.26365 0.75000 0.07700
C 	C 	0.56390 0.28195 0.75000 -0.02700
C 	C 	0.59450 0.29725 0.75000 -0.03200
C 	C 	0.63110 0.31555 0.75000 0.08600
O 	O 	0.83235 0.16765 0.75000 -0.85200
C 	C 	0.87515 0.12485 0.75000 0.46100
C 	C 	0.89400 0.10600 0.75000 -0.15300
C 	C 	0.93035 0.06965 0.75000 0.08900
C 	C 	0.94860 0.05140 0.75000 -0.03800
C 	C 	0.96390 0.03610 0.75000 -0.02200
C 	C 	0.98225 0.01775 0.75000 0.07000
C 	C 	0.79100 0.20900 0.75000 0.43900
C 	C 	0.77210 0.22790 0.75000 -0.15000
C 	C 	0.73635 0.26365 0.75000 0.07700
C 	C 	0.71805 0.28195 0.75000 -0.02700
C 	C 	0.70275 0.29725 0.75000 -0.03200
C 	C 	0.68445 0.31555 0.75000 0.08600
Zn	Zn	0.33333 0.66667 0.79310 1.13100
Zn	Zn	0.33333 0.66667 0.70690 1.13100
Zn	Zn	0.66667 0.33333 0.20690 1.13100
Zn	Zn	0.66667 0.33333 0.29310 1.13100
O 	O 	0.33333 0.66667 0.75000 -1.74800
O 	O 	0.66667 0.33333 0.25000 -1.74800
C 	C 	0.03530 0.01765 0.25000 -0.11900
H 	H 	0.06000 0.03000 0.25000 0.07300
C 	C 	0.98235 0.01765 0.25000 -0.11900
H 	H 	0.97000 0.03000 0.25000 0.07300
C 	C 	0.98235 0.96470 0.25000 -0.11900
H 	H 	0.97000 0.94000 0.25000 0.07300
C 	C 	0.96470 0.98235 0.75000 -0.11900
H 	H 	0.94000 0.97000 0.75000 0.07300
C 	C 	0.01765 0.98235 0.75000 -0.11900
H 	H 	0.03000 0.97000 0.75000 0.07300
C 	C 	0.01765 0.03530 0.75000 -0.11900
H 	H 	0.03000 0.06000 0.75000 0.07300
C 	C 	0.35100 0.64900 0.25000 -0.13900
H 	H 	0.36300 0.63700 0.25000 0.08200
C 	C 	0.35100 0.70200 0.25000 -0.13900
H 	H 	0.36300 0.72600 0.25000 0.08200
C 	C 	0.29800 0.64900 0.25000 -0.13900
H 	H 	0.27400 0.63700 0.25000 0.08200
C 	C 	0.64900 0.35100 0.75000 -0.13900
H 	H 	0.63700 0.36300 0.75000 0.08200
C 	C 	0.64900 0.29800 0.75000 -0.13900
H 	H 	0.63700 0.27400 0.75000 0.08200
C 	C 	0.70200 0.35100 0.75000 -0.13900
H 	H 	0.72600 0.36300 0.75000 0.08200
