data_crystal

_cell_length_a 50.74500
_cell_length_b 50.74500
_cell_length_c 71.07160
_cell_angle_alpha 69.08400
_cell_angle_beta  69.08400
_cell_angle_gamma 60.00000

_symmetry_space_group_name_	'P 1'
_symmetry_space_group_name_H-M	'P 1'

loop_
_symmetry_equiv_pos_as_xyz
  x,y,z

loop_
_atom_site_label
_atom_site_type_symbol
_atom_site_fract_x
_atom_site_fract_y
_atom_site_fract_z
_atom_site_charge
Zn	Zn	0.49310 0.97110 0.75570 1.24500
Zn	Zn	0.60430 0.06630 0.41110 1.24700
Zn	Zn	0.34840 0.61140 0.90980 1.24900
Zn	Zn	0.43530 0.88130 0.56310 1.25700
Zn	Zn	0.47370 0.03370 0.72690 1.25700
Zn	Zn	0.10410 0.41710 0.91070 1.24100
Zn	Zn	0.88130 0.12030 0.56310 1.25800
Zn	Zn	0.78010 0.49310 0.75570 1.24600
Zn	Zn	0.02870 0.73370 0.77190 1.25200
Zn	Zn	0.03370 0.76570 0.72690 1.25800
Zn	Zn	0.42410 0.86310 0.61170 1.25200
Zn	Zn	0.13040 0.34840 0.90980 1.25000
Zn	Zn	0.00800 0.71800 0.74400 1.25500
Zn	Zn	0.12030 0.43530 0.56310 1.25800
Zn	Zn	0.38230 0.93430 0.06410 1.25400
Zn	Zn	0.43190 0.89590 0.08930 1.24200
Zn	Zn	0.23430 0.52630 0.27310 1.25800
Zn	Zn	0.36340 0.92440 0.11080 1.25000
Zn	Zn	0.99200 0.28200 0.25600 1.25500
Zn	Zn	0.13690 0.89890 0.38830 1.25200
Zn	Zn	0.76570 0.47370 0.72690 1.25800
Zn	Zn	0.96630 0.23430 0.27310 1.25800
Zn	Zn	0.11090 0.84790 0.40930 1.25400
Zn	Zn	0.50690 0.02890 0.24430 1.24600
Zn	Zn	0.60140 0.36340 0.11080 1.25000
Zn	Zn	0.63190 0.11090 0.40930 1.25400
Zn	Zn	0.57590 0.13690 0.38830 1.25200
Zn	Zn	0.65160 0.38860 0.09020 1.25000
Zn	Zn	0.56810 0.10410 0.91070 1.24200
Zn	Zn	0.08170 0.39570 0.58890 1.24800
Zn	Zn	0.53430 0.97130 0.22810 1.25200
Zn	Zn	0.73370 0.46570 0.77190 1.25200
Zn	Zn	0.11870 0.87970 0.43690 1.25800
Zn	Zn	0.84790 0.63190 0.40930 1.25400
Zn	Zn	0.61140 0.13040 0.90980 1.25000
Zn	Zn	0.93370 0.08170 0.58890 1.24800
Zn	Zn	0.71800 0.53000 0.74400 1.25500
Zn	Zn	0.89890 0.57590 0.38830 1.25200
Zn	Zn	0.93430 0.61930 0.06410 1.25400
Zn	Zn	0.15210 0.36810 0.59070 1.25400
Zn	Zn	0.92440 0.60140 0.11080 1.25000
Zn	Zn	0.38070 0.61770 0.93590 1.25400
Zn	Zn	0.53000 0.00800 0.74400 1.25500
Zn	Zn	0.41710 0.56810 0.91070 1.24200
Zn	Zn	0.10110 0.42410 0.61170 1.25200
Zn	Zn	0.61930 0.38230 0.06410 1.25400
Zn	Zn	0.88910 0.15210 0.59070 1.25400
Zn	Zn	0.52630 0.96630 0.27310 1.25800
Zn	Zn	0.58290 0.43190 0.08930 1.24200
Zn	Zn	0.46570 0.02870 0.77190 1.25200
Zn	Zn	0.39860 0.63660 0.88920 1.25000
Zn	Zn	0.06630 0.91830 0.41110 1.24800
Zn	Zn	0.89590 0.58290 0.08930 1.24200
Zn	Zn	0.87970 0.56470 0.43690 1.25800
Zn	Zn	0.61770 0.06570 0.93590 1.25400
Zn	Zn	0.26630 0.53430 0.22810 1.25200
Zn	Zn	0.97130 0.26630 0.22810 1.25200
Zn	Zn	0.07560 0.39860 0.88920 1.25000
Zn	Zn	0.06570 0.38070 0.93590 1.25400
Zn	Zn	0.21990 0.50690 0.24430 1.24600
Zn	Zn	0.02890 0.21990 0.24430 1.24600
Zn	Zn	0.28200 0.47000 0.25600 1.25500
Zn	Zn	0.39570 0.93370 0.58890 1.24800
Zn	Zn	0.86960 0.65160 0.09020 1.25000
Zn	Zn	0.91830 0.60430 0.41110 1.24800
Zn	Zn	0.47000 0.99200 0.25600 1.25500
Zn	Zn	0.63660 0.07560 0.88920 1.25000
Zn	Zn	0.97110 0.78010 0.75570 1.24600
Zn	Zn	0.56470 0.11870 0.43690 1.25800
Zn	Zn	0.86310 0.10110 0.61170 1.25200
Zn	Zn	0.36810 0.88910 0.59070 1.25400
Zn	Zn	0.38860 0.86960 0.09020 1.25000
H 	H 	0.99990 0.39920 0.63210 0.02800
H 	H 	0.26560 0.05210 0.59700 0.07100
H 	H 	0.60080 0.03120 0.36790 0.02800
H 	H 	0.97800 0.01140 0.47350 0.05800
H 	H 	0.26300 0.06450 0.04900 0.07600
H 	H 	0.73700 0.93550 0.95100 0.07600
H 	H 	0.85230 0.26550 0.21820 0.07900
H 	H 	0.48060 0.19010 0.44850 0.02200
H 	H 	0.95340 0.32010 0.30720 0.02100
H 	H 	0.37650 0.73700 0.95100 0.07600
H 	H 	0.96330 0.46670 0.67590 0.06400
H 	H 	0.83740 0.23890 0.49320 0.07600
H 	H 	0.97730 0.77030 0.86010 0.07500
H 	H 	0.91270 0.92770 0.70530 0.06700
H 	H 	0.63070 0.21750 0.30790 0.08000
H 	H 	0.30450 0.76340 0.75390 0.08900
H 	H 	0.67320 0.45430 0.09500 0.02300
H 	H 	0.89290 0.27140 0.35910 0.07900
H 	H 	0.25580 0.24400 0.72210 0.08500
H 	H 	0.04510 0.48710 0.84630 0.03100
H 	H 	0.92940 0.33450 0.33930 0.07800
H 	H 	0.35900 0.70010 0.84120 0.02600
H 	H 	0.37010 0.35600 0.39300 0.08300
H 	H 	0.45550 0.87850 0.65340 0.02800
H 	H 	0.96880 0.99990 0.63210 0.02800
H 	H 	0.16230 0.22470 0.98570 0.07500
H 	H 	0.54450 0.12150 0.34660 0.02800
H 	H 	0.01080 0.08110 0.59280 0.02900
H 	H 	0.01560 0.04890 0.34510 0.07300
H 	H 	0.62150 0.04510 0.84630 0.03100
H 	H 	0.00530 0.97790 0.45070 0.03200
H 	H 	0.53640 0.60530 0.82410 0.06200
H 	H 	0.13120 0.70830 0.57280 0.08400
H 	H 	0.29860 0.81360 0.66390 0.08100
H 	H 	0.99120 0.45710 0.00740 0.06400
H 	H 	0.29170 0.41230 0.42720 0.08400
H 	H 	0.24870 0.76140 0.21520 0.08700
H 	H 	0.03660 0.51210 0.97320 0.06500
H 	H 	0.04920 0.60380 0.11170 0.07400
H 	H 	0.20940 0.43370 0.23980 0.03000
H 	H 	0.76470 0.95080 0.88830 0.07400
H 	H 	0.10160 0.16480 0.16030 0.07300
H 	H 	0.35600 0.88090 0.39300 0.08300
H 	H 	0.33330 0.82790 0.13150 0.02700
H 	H 	0.80630 0.13620 0.66210 0.02000
H 	H 	0.39920 0.96880 0.63210 0.02800
H 	H 	0.49920 0.91660 0.32730 0.02100
H 	H 	0.83670 0.79040 0.76050 0.07700
H 	H 	0.88870 0.22330 0.27940 0.02200
H 	H 	0.33600 0.14770 0.78180 0.07900
H 	H 	0.35750 0.83190 0.95610 0.08800
H 	H 	0.50490 0.05910 0.83700 0.06500
H 	H 	0.12940 0.62070 0.10660 0.09000
H 	H 	0.95490 0.17220 0.59580 0.02500
H 	H 	0.60770 0.02270 0.13990 0.07500
H 	H 	0.11340 0.29260 0.25690 0.07300
H 	H 	0.69840 0.19310 0.84120 0.07800
H 	H 	0.88660 0.70740 0.74310 0.07300
H 	H 	0.22190 0.74420 0.27790 0.08500
H 	H 	0.93450 0.52110 0.04990 0.03200
H 	H 	0.49510 0.94090 0.16300 0.06500
H 	H 	0.27220 0.32230 0.90200 0.07700
H 	H 	0.95520 0.04240 0.49290 0.06600
H 	H 	0.92940 0.87760 0.72690 0.03300
H 	H 	0.39620 0.76470 0.88830 0.07400
H 	H 	0.56320 0.76220 0.54880 0.08000
H 	H 	0.87850 0.01260 0.65340 0.02800
H 	H 	0.80690 0.73270 0.15880 0.07800
H 	H 	0.24510 0.58300 0.17140 0.02900
H 	H 	0.06550 0.47890 0.95010 0.03200
H 	H 	0.95200 0.35120 0.18430 0.03300
H 	H 	0.70010 0.09970 0.84120 0.02600
H 	H 	0.43390 0.99470 0.54930 0.03200
H 	H 	0.56950 0.03520 0.77340 0.03000
H 	H 	0.57140 0.02000 0.98430 0.02900
H 	H 	0.21860 0.65750 0.27820 0.07600
H 	H 	0.78140 0.34250 0.72180 0.07600
H 	H 	0.77530 0.37270 0.01430 0.07500
H 	H 	0.00560 0.59680 0.11440 0.02600
H 	H 	0.41930 0.95340 0.30720 0.02100
H 	H 	0.02200 0.98860 0.52650 0.05800
H 	H 	0.66080 0.06830 0.00790 0.08100
H 	H 	0.28320 0.00560 0.11440 0.02600
H 	H 	0.67770 0.49650 0.09800 0.07700
H 	H 	0.92440 0.51940 0.48430 0.03100
H 	H 	0.65750 0.84570 0.27820 0.07600
H 	H 	0.65850 0.11820 0.45670 0.02300
H 	H 	0.65350 0.06270 0.97910 0.01800
H 	H 	0.54670 0.51560 0.84450 0.06000
H 	H 	0.42430 0.57140 0.98430 0.02900
H 	H 	0.49040 0.18480 0.90620 0.02400
H 	H 	0.66380 0.12430 0.48640 0.07500
H 	H 	0.52340 0.10710 0.64090 0.07900
H 	H 	0.02270 0.22970 0.13990 0.07500
H 	H 	0.50080 0.08340 0.67270 0.02100
H 	H 	0.77750 0.67320 0.09500 0.02300
H 	H 	0.70280 0.74950 0.75240 0.10100
H 	H 	0.89570 0.45120 0.38850 0.07900
H 	H 	0.74950 0.79530 0.75240 0.10100
H 	H 	0.95270 0.42830 0.20560 0.06800
H 	H 	0.97910 0.38340 0.94830 0.02600
H 	H 	0.18480 0.41860 0.90620 0.02400
H 	H 	0.48060 0.92810 0.51570 0.03100
H 	H 	0.24400 0.77810 0.72210 0.08500
H 	H 	0.79530 0.70280 0.75240 0.10100
H 	H 	0.04240 0.50950 0.49290 0.06600
H 	H 	0.99440 0.40320 0.88560 0.02600
H 	H 	0.62350 0.26300 0.04900 0.07600
H 	H 	0.26550 0.66400 0.21820 0.07900
H 	H 	0.00350 0.82360 0.40030 0.07600
H 	H 	0.16330 0.20960 0.23950 0.07700
H 	H 	0.44370 0.99430 0.66300 0.06600
H 	H 	0.23780 0.87420 0.45120 0.08000
H 	H 	0.41390 0.44870 0.90320 0.08300
H 	H 	0.98920 0.91890 0.40720 0.02900
H 	H 	0.88090 0.37010 0.39300 0.08300
H 	H 	0.52190 0.96340 0.02680 0.06500
H 	H 	0.46360 0.39470 0.17590 0.06200
H 	H 	0.63150 0.67980 0.10130 0.09200
H 	H 	0.86380 0.60460 0.33790 0.02000
H 	H 	0.91370 0.79310 0.92760 0.08600
H 	H 	0.61660 0.31080 0.05170 0.02600
H 	H 	0.77260 0.00350 0.40030 0.07600
H 	H 	0.97790 0.56610 0.45070 0.03200
H 	H 	0.17870 0.13100 0.60420 0.08500
H 	H 	0.56950 0.16260 0.50680 0.07600
H 	H 	0.40320 0.71680 0.88560 0.02600
H 	H 	0.07230 0.54570 0.29470 0.06700
H 	H 	0.76220 0.12580 0.54880 0.08000
H 	H 	0.02090 0.61660 0.05170 0.02600
H 	H 	0.54570 0.22250 0.90500 0.02300
H 	H 	0.01120 0.84940 0.68460 0.03200
H 	H 	0.10470 0.72960 0.78090 0.02400
H 	H 	0.66290 0.88660 0.74310 0.07300
H 	H 	0.84940 0.45480 0.68460 0.03200
H 	H 	0.94090 0.40100 0.16300 0.06500
H 	H 	0.53390 0.07060 0.27310 0.03300
H 	H 	0.48750 0.04800 0.81570 0.03300
H 	H 	0.57170 0.58660 0.79440 0.06800
H 	H 	0.22740 0.99650 0.59970 0.07600
H 	H 	0.73700 0.33920 0.99210 0.08100
H 	H 	0.87570 0.27450 0.51360 0.07500
H 	H 	0.57330 0.10160 0.16030 0.07300
H 	H 	0.99470 0.02210 0.54930 0.03200
H 	H 	0.91390 0.82130 0.39580 0.08500
H 	H 	0.62990 0.64400 0.60700 0.08300
H 	H 	0.46830 0.89670 0.13300 0.03300
H 	H 	0.47890 0.50550 0.95010 0.03200
H 	H 	0.98000 0.57570 0.01570 0.02900
H 	H 	0.95760 0.49050 0.50710 0.06600
H 	H 	0.96480 0.37810 0.22660 0.03000
H 	H 	0.45570 0.00880 0.99260 0.06400
H 	H 	0.17820 0.30450 0.75390 0.08900
H 	H 	0.93730 0.69530 0.02090 0.01800
H 	H 	0.04660 0.67990 0.69280 0.02100
H 	H 	0.06450 0.62350 0.04900 0.07600
H 	H 	0.09970 0.35900 0.84120 0.02600
H 	H 	0.99950 0.75490 0.82860 0.02900
H 	H 	0.03670 0.53330 0.32410 0.06400
H 	H 	0.79600 0.67560 0.36580 0.01900
H 	H 	0.98880 0.15060 0.31540 0.03200
H 	H 	0.55130 0.76580 0.09680 0.08300
H 	H 	0.86900 0.91390 0.39580 0.08500
H 	H 	0.08340 0.74310 0.67270 0.02100
H 	H 	0.26830 0.87910 0.18610 0.07800
H 	H 	0.04510 0.82780 0.40420 0.02500
H 	H 	0.83770 0.77530 0.01430 0.07500
H 	H 	0.22390 0.29860 0.66390 0.08100
H 	H 	0.62190 0.56950 0.77340 0.03000
H 	H 	0.20690 0.63440 0.07240 0.08600
H 	H 	0.57570 0.42860 0.01570 0.02900
H 	H 	0.20470 0.29720 0.24760 0.10100
H 	H 	0.51940 0.07190 0.48430 0.03100
H 	H 	0.06830 0.26300 0.00790 0.08100
H 	H 	0.75600 0.22190 0.27790 0.08500
H 	H 	0.94790 0.91470 0.40300 0.07100
H 	H 	0.30160 0.80690 0.15880 0.07800
H 	H 	0.46670 0.89410 0.67590 0.06400
H 	H 	0.33450 0.39680 0.33930 0.07800
H 	H 	0.00050 0.24510 0.17140 0.02900
H 	H 	0.32020 0.41260 0.89870 0.09200
H 	H 	0.23420 0.41390 0.90320 0.08300
H 	H 	0.41230 0.86880 0.42720 0.08400
H 	H 	0.62070 0.14330 0.10660 0.09000
H 	H 	0.37850 0.95490 0.15370 0.03100
H 	H 	0.81360 0.22390 0.66390 0.08100
H 	H 	0.83520 0.42670 0.83970 0.07300
H 	H 	0.82000 0.45170 0.80790 0.03000
H 	H 	0.05910 0.59900 0.83700 0.06500
H 	H 	0.51940 0.80990 0.55150 0.02200
H 	H 	0.71680 0.99440 0.88560 0.02600
H 	H 	0.85450 0.35750 0.95610 0.08800
H 	H 	0.32440 0.83740 0.63420 0.01900
H 	H 	0.38480 0.10470 0.78090 0.02400
H 	H 	0.84390 0.63070 0.30790 0.08000
H 	H 	0.58070 0.04660 0.69280 0.02100
H 	H 	0.02000 0.42430 0.98430 0.02900
H 	H 	0.58140 0.50960 0.09380 0.02400
H 	H 	0.50490 0.78310 0.61450 0.02100
H 	H 	0.72960 0.38480 0.78090 0.02400
H 	H 	0.93310 0.70750 0.74250 0.02900
H 	H 	0.13620 0.39540 0.66210 0.02000
H 	H 	0.04730 0.57170 0.79440 0.06800
H 	H 	0.61240 0.83670 0.76050 0.07700
H 	H 	0.33620 0.87570 0.51360 0.07500
H 	H 	0.20960 0.38760 0.23950 0.07700
H 	H 	0.33170 0.85840 0.45570 0.08600
H 	H 	0.43050 0.96480 0.22660 0.03000
H 	H 	0.53330 0.10590 0.32410 0.06400
H 	H 	0.48440 0.90680 0.15550 0.06000
H 	H 	0.47810 0.03660 0.97320 0.06500
H 	H 	0.87060 0.37930 0.89340 0.09000
H 	H 	0.23860 0.22530 0.78480 0.08700
H 	H 	0.49650 0.72780 0.09800 0.07700
H 	H 	0.59040 0.01560 0.34510 0.07300
H 	H 	0.73440 0.94790 0.40300 0.07100
H 	H 	0.21750 0.84390 0.30790 0.08000
H 	H 	0.72860 0.52340 0.64090 0.07900
H 	H 	0.54290 0.45570 0.99260 0.06400
H 	H 	0.14160 0.64580 0.54430 0.08600
H 	H 	0.76340 0.17820 0.75390 0.08900
H 	H 	0.51210 0.47810 0.97320 0.06500
H 	H 	0.17210 0.29270 0.86850 0.02700
H 	H 	0.08110 0.31530 0.59280 0.02900
H 	H 	0.09320 0.54670 0.84450 0.06000
H 	H 	0.63440 0.08630 0.07240 0.08600
H 	H 	0.15430 0.78140 0.72180 0.07600
H 	H 	0.86880 0.29170 0.42720 0.08400
H 	H 	0.85670 0.87060 0.89340 0.09000
H 	H 	0.08610 0.17870 0.60420 0.08500
H 	H 	0.03420 0.53640 0.82410 0.06200
H 	H 	0.45480 0.01120 0.68460 0.03200
H 	H 	0.11130 0.77670 0.72060 0.02200
H 	H 	0.26730 0.69840 0.84120 0.07800
H 	H 	0.26460 0.89570 0.38850 0.07900
H 	H 	0.27140 0.47660 0.35910 0.07900
H 	H 	0.84330 0.73370 0.04340 0.01800
H 	H 	0.37270 0.83770 0.01430 0.07500
H 	H 	0.06690 0.29250 0.25750 0.02900
H 	H 	0.98860 0.46290 0.52650 0.05800
H 	H 	0.79310 0.36560 0.92760 0.08600
H 	H 	0.60460 0.19370 0.33790 0.02000
H 	H 	0.50200 0.46830 0.13300 0.03300
H 	H 	0.47660 0.89290 0.35910 0.07900
H 	H 	0.15060 0.54520 0.31540 0.03200
H 	H 	0.37960 0.84330 0.04340 0.01800
H 	H 	0.32680 0.54570 0.90500 0.02300
H 	H 	0.39540 0.80630 0.66210 0.02000
H 	H 	0.59900 0.50490 0.83700 0.06500
H 	H 	0.77810 0.25580 0.72210 0.08500
H 	H 	0.79040 0.61240 0.76050 0.07700
H 	H 	0.45430 0.91270 0.70530 0.06700
H 	H 	0.70140 0.18640 0.33610 0.08100
H 	H 	0.55630 0.00570 0.33700 0.06600
H 	H 	0.81520 0.58140 0.09380 0.02400
H 	H 	0.70740 0.66290 0.74310 0.07300
H 	H 	0.19010 0.88080 0.44850 0.02200
H 	H 	0.82790 0.70730 0.13150 0.02700
H 	H 	0.56400 0.15640 0.47740 0.02300
H 	H 	0.27450 0.33620 0.51360 0.07500
H 	H 	0.16480 0.57330 0.16030 0.07300
H 	H 	0.92810 0.07560 0.51570 0.03100
H 	H 	0.80220 0.56400 0.47740 0.02300
H 	H 	0.14330 0.12940 0.10660 0.09000
H 	H 	0.15670 0.26630 0.95660 0.01800
H 	H 	0.11920 0.51940 0.55150 0.02200
H 	H 	0.60380 0.23530 0.11170 0.07400
H 	H 	0.53710 0.97800 0.47350 0.05800
H 	H 	0.90680 0.45330 0.15550 0.06000
H 	H 	0.76580 0.58610 0.09680 0.08300
H 	H 	0.41260 0.36850 0.89870 0.09200
H 	H 	0.99650 0.17640 0.59970 0.07600
H 	H 	0.48790 0.52190 0.02680 0.06500
H 	H 	0.88290 0.79060 0.76020 0.03000
H 	H 	0.83190 0.85450 0.95610 0.08800
H 	H 	0.69530 0.34650 0.02090 0.01800
H 	H 	0.22250 0.32680 0.90500 0.02300
H 	H 	0.49510 0.21690 0.38550 0.02100
H 	H 	0.03520 0.62190 0.77340 0.03000
H 	H 	0.66650 0.26830 0.18610 0.07800
H 	H 	0.22330 0.60860 0.27940 0.02200
H 	H 	0.77470 0.24870 0.21520 0.08700
H 	H 	0.62730 0.16230 0.98570 0.07500
H 	H 	0.07060 0.66550 0.66070 0.07800
H 	H 	0.35120 0.51250 0.18430 0.03300
H 	H 	0.64100 0.29990 0.15880 0.02600
H 	H 	0.22530 0.75130 0.78480 0.08700
H 	H 	0.23530 0.04920 0.11170 0.07400
H 	H 	0.45430 0.77750 0.09500 0.02300
H 	H 	0.76140 0.77470 0.21520 0.08700
H 	H 	0.07190 0.92440 0.48430 0.03100
H 	H 	0.15640 0.80220 0.47740 0.02300
H 	H 	0.58300 0.00050 0.17140 0.02900
H 	H 	0.70750 0.61690 0.74250 0.02900
H 	H 	0.34650 0.93730 0.02090 0.01800
H 	H 	0.72290 0.04510 0.40420 0.02500
H 	H 	0.73540 0.10430 0.61150 0.07900
H 	H 	0.01260 0.45550 0.65340 0.02800
H 	H 	0.64250 0.16810 0.04390 0.08800
H 	H 	0.18000 0.54830 0.19210 0.03000
H 	H 	0.80990 0.11920 0.55150 0.02200
H 	H 	0.25050 0.20470 0.24760 0.10100
H 	H 	0.68920 0.97910 0.94830 0.02600
H 	H 	0.91470 0.73440 0.40300 0.07100
H 	H 	0.45170 0.92040 0.80790 0.03000
H 	H 	0.51560 0.09320 0.84450 0.06000
H 	H 	0.88180 0.23340 0.54330 0.02300
H 	H 	0.33710 0.11340 0.25690 0.07300
H 	H 	0.87420 0.43680 0.45120 0.08000
H 	H 	0.09750 0.50490 0.61450 0.02100
H 	H 	0.73270 0.30160 0.15880 0.07800
H 	H 	0.54570 0.08730 0.29470 0.06700
H 	H 	0.45710 0.54430 0.00740 0.06400
H 	H 	0.62040 0.15670 0.95660 0.01800
H 	H 	0.50950 0.95520 0.49290 0.06600
H 	H 	0.98440 0.95110 0.65490 0.07300
H 	H 	0.66670 0.17210 0.86850 0.02700
H 	H 	0.42670 0.89840 0.83970 0.07300
H 	H 	0.40100 0.49510 0.16300 0.06500
H 	H 	0.74420 0.75600 0.27790 0.08500
H 	H 	0.91890 0.68470 0.40720 0.02900
H 	H 	0.17640 0.22740 0.59970 0.07600
H 	H 	0.23340 0.34150 0.54330 0.02300
H 	H 	0.50350 0.27220 0.90200 0.07700
H 	H 	0.39230 0.97730 0.86010 0.07500
H 	H 	0.39680 0.92940 0.33930 0.07800
H 	H 	0.78310 0.09750 0.61450 0.02100
H 	H 	0.22470 0.62730 0.98570 0.07500
H 	H 	0.52110 0.49450 0.04990 0.03200
H 	H 	0.38340 0.68920 0.94830 0.02600
H 	H 	0.34150 0.88180 0.54330 0.02300
H 	H 	0.37810 0.43050 0.22660 0.03000
H 	H 	0.87910 0.66650 0.18610 0.07800
H 	H 	0.67990 0.58070 0.69280 0.02100
H 	H 	0.58740 0.63150 0.10130 0.09200
H 	H 	0.15610 0.36930 0.69210 0.08000
H 	H 	0.42830 0.41340 0.20560 0.06800
H 	H 	0.12240 0.53390 0.27310 0.03300
H 	H 	0.68470 0.98920 0.40720 0.02900
H 	H 	0.93550 0.37650 0.95100 0.07600
H 	H 	0.50960 0.81520 0.09380 0.02400
H 	H 	0.37930 0.85670 0.89340 0.09000
H 	H 	0.76660 0.65850 0.45670 0.02300
H 	H 	0.73170 0.12090 0.81390 0.07800
H 	H 	0.54830 0.07960 0.19210 0.03000
H 	H 	0.32010 0.41930 0.30720 0.02100
H 	H 	0.29260 0.33710 0.25690 0.07300
H 	H 	0.41340 0.95270 0.20560 0.06800
H 	H 	0.06270 0.30470 0.97910 0.01800
H 	H 	0.74310 0.50080 0.67270 0.02100
H 	H 	0.82130 0.86900 0.39580 0.08500
H 	H 	0.36560 0.91370 0.92760 0.08600
H 	H 	0.56630 0.88290 0.76020 0.03000
H 	H 	0.13100 0.08610 0.60420 0.08500
H 	H 	0.04480 0.95760 0.50710 0.06600
H 	H 	0.31530 0.01080 0.59280 0.02900
H 	H 	0.03120 0.00010 0.36790 0.02800
H 	H 	0.10100 0.55630 0.33700 0.06600
H 	H 	0.45120 0.26460 0.38850 0.07900
H 	H 	0.11710 0.20940 0.23980 0.03000
H 	H 	0.17220 0.27710 0.59580 0.02500
H 	H 	0.78250 0.15610 0.69210 0.08000
H 	H 	0.77030 0.39230 0.86010 0.07500
H 	H 	0.08530 0.26560 0.59700 0.07100
H 	H 	0.54880 0.73540 0.61150 0.07900
H 	H 	0.00880 0.54290 0.99260 0.06400
H 	H 	0.90030 0.64100 0.15880 0.02600
H 	H 	0.91660 0.25690 0.32730 0.02100
H 	H 	0.75490 0.41700 0.82860 0.02900
H 	H 	0.88080 0.48060 0.44850 0.02200
H 	H 	0.34250 0.15430 0.72180 0.07600
H 	H 	0.39470 0.96580 0.17590 0.06200
H 	H 	0.70830 0.58770 0.57280 0.08400
H 	H 	0.82180 0.69550 0.24610 0.08900
H 	H 	0.82360 0.77260 0.40030 0.07600
H 	H 	0.61520 0.89530 0.21910 0.02400
H 	H 	0.51290 0.37850 0.15370 0.03100
H 	H 	0.08630 0.20690 0.07240 0.08600
H 	H 	0.19780 0.43600 0.52260 0.02300
H 	H 	0.30470 0.65350 0.97910 0.01800
H 	H 	0.46610 0.92940 0.72690 0.03300
H 	H 	0.95110 0.40960 0.65490 0.07300
H 	H 	0.48710 0.62150 0.84630 0.03100
H 	H 	0.89670 0.50200 0.13300 0.03300
H 	H 	0.93170 0.73700 0.99210 0.08100
H 	H 	0.69550 0.23660 0.24610 0.08900
H 	H 	0.29720 0.25050 0.24760 0.10100
H 	H 	0.64400 0.11910 0.60700 0.08300
H 	H 	0.84570 0.21860 0.27820 0.07600
H 	H 	0.21690 0.90250 0.38550 0.02100
H 	H 	0.04890 0.59040 0.34510 0.07300
H 	H 	0.23890 0.43050 0.49320 0.07600
H 	H 	0.11820 0.76660 0.45670 0.02300
H 	H 	0.76110 0.56950 0.50680 0.07600
H 	H 	0.85840 0.35420 0.45570 0.08600
H 	H 	0.19370 0.86380 0.33790 0.02000
H 	H 	0.29990 0.90030 0.15880 0.02600
H 	H 	0.67980 0.58740 0.10130 0.09200
H 	H 	0.70730 0.33330 0.13150 0.02700
H 	H 	0.96340 0.48790 0.02680 0.06500
H 	H 	0.41860 0.49040 0.90620 0.02400
H 	H 	0.89530 0.27040 0.21910 0.02400
H 	H 	0.89900 0.44370 0.66300 0.06600
H 	H 	0.26630 0.62040 0.95660 0.01800
H 	H 	0.31080 0.02090 0.05170 0.02600
H 	H 	0.29250 0.38310 0.25750 0.02900
H 	H 	0.73370 0.37960 0.04340 0.01800
H 	H 	0.16810 0.14550 0.04390 0.08800
H 	H 	0.45330 0.48440 0.15550 0.06000
H 	H 	0.58660 0.04730 0.79440 0.06800
H 	H 	0.87760 0.46610 0.72690 0.03300
H 	H 	0.32230 0.50350 0.90200 0.07700
H 	H 	0.33920 0.93170 0.99210 0.08100
H 	H 	0.49450 0.93450 0.04990 0.03200
H 	H 	0.29270 0.66670 0.86850 0.02700
H 	H 	0.77610 0.70140 0.33610 0.08100
H 	H 	0.36850 0.32020 0.89870 0.09200
H 	H 	0.49050 0.04480 0.50710 0.06600
H 	H 	0.77670 0.39140 0.72060 0.02200
H 	H 	0.08730 0.07230 0.29470 0.06700
H 	H 	0.00570 0.10100 0.33700 0.06600
H 	H 	0.40960 0.98440 0.65490 0.07300
H 	H 	0.50550 0.06550 0.95010 0.03200
H 	H 	0.51250 0.95200 0.18430 0.03300
H 	H 	0.18640 0.77610 0.33610 0.08100
H 	H 	0.66830 0.14160 0.54430 0.08600
H 	H 	0.95490 0.51290 0.15370 0.03100
H 	H 	0.60530 0.03420 0.82410 0.06200
H 	H 	0.35420 0.33170 0.45570 0.08600
H 	H 	0.07060 0.12240 0.27310 0.03300
H 	H 	0.73450 0.33600 0.78180 0.07900
H 	H 	0.33350 0.73170 0.81390 0.07800
H 	H 	0.05210 0.08530 0.59700 0.07100
H 	H 	0.75130 0.23860 0.78480 0.08700
H 	H 	0.38760 0.16330 0.23950 0.07700
H 	H 	0.54520 0.98880 0.31540 0.03200
H 	H 	0.79060 0.56630 0.76020 0.03000
H 	H 	0.49800 0.53170 0.86700 0.03300
H 	H 	0.07560 0.48060 0.51570 0.03100
H 	H 	0.41700 0.99950 0.82860 0.02900
H 	H 	0.39140 0.11130 0.72060 0.02200
H 	H 	0.25690 0.49920 0.32730 0.02100
H 	H 	0.66400 0.85230 0.21820 0.07900
H 	H 	0.54430 0.99120 0.00740 0.06400
H 	H 	0.10590 0.03670 0.32410 0.06400
H 	H 	0.60320 0.07060 0.66070 0.07800
H 	H 	0.11910 0.62990 0.60700 0.08300
H 	H 	0.16260 0.79600 0.36580 0.01900
H 	H 	0.98740 0.54450 0.34660 0.02800
H 	H 	0.72550 0.66380 0.48640 0.07500
H 	H 	0.12580 0.56320 0.54880 0.08000
H 	H 	0.84360 0.19780 0.52260 0.02300
H 	H 	0.44870 0.23420 0.90320 0.08300
H 	H 	0.14770 0.73450 0.78180 0.07900
H 	H 	0.00010 0.60080 0.36790 0.02800
H 	H 	0.10710 0.72860 0.64090 0.07900
H 	H 	0.43050 0.83740 0.49320 0.07600
H 	H 	0.61690 0.93310 0.74250 0.02900
H 	H 	0.14550 0.64250 0.04390 0.08800
H 	H 	0.99430 0.89900 0.66300 0.06600
H 	H 	0.19310 0.26730 0.84120 0.07800
H 	H 	0.64880 0.48750 0.81570 0.03300
H 	H 	0.20400 0.32440 0.63420 0.01900
H 	H 	0.83740 0.20400 0.63420 0.01900
H 	H 	0.89840 0.83520 0.83970 0.07300
H 	H 	0.92770 0.45430 0.70530 0.06700
H 	H 	0.04800 0.64880 0.81570 0.03300
H 	H 	0.10330 0.49800 0.86700 0.03300
H 	H 	0.02210 0.43390 0.54930 0.03200
H 	H 	0.26300 0.66080 0.00790 0.08100
H 	H 	0.72780 0.67770 0.09800 0.07700
H 	H 	0.23660 0.82180 0.24610 0.08900
H 	H 	0.95080 0.39620 0.88830 0.07400
H 	H 	0.16260 0.76110 0.50680 0.07600
H 	H 	0.66550 0.60320 0.66070 0.07800
H 	H 	0.07960 0.18000 0.19210 0.03000
H 	H 	0.43600 0.84360 0.52260 0.02300
H 	H 	0.22970 0.60770 0.13990 0.07500
H 	H 	0.38310 0.06690 0.25750 0.02900
H 	H 	0.90250 0.49510 0.38550 0.02100
H 	H 	0.59680 0.28320 0.11440 0.02600
H 	H 	0.43370 0.11710 0.23980 0.03000
H 	H 	0.46290 0.02200 0.52650 0.05800
H 	H 	0.96580 0.46360 0.17590 0.06200
H 	H 	0.56610 0.00530 0.45070 0.03200
H 	H 	0.01140 0.53710 0.47350 0.05800
H 	H 	0.82780 0.72290 0.40420 0.02500
H 	H 	0.67560 0.16260 0.36580 0.01900
H 	H 	0.58610 0.55130 0.09680 0.08300
H 	H 	0.27710 0.95490 0.59580 0.02500
H 	H 	0.92040 0.82000 0.80790 0.03000
H 	H 	0.12430 0.72550 0.48640 0.07500
H 	H 	0.60860 0.88870 0.27940 0.02200
H 	H 	0.42860 0.98000 0.01570 0.02900
H 	H 	0.36930 0.78250 0.69210 0.08000
H 	H 	0.53170 0.10330 0.86700 0.03300
H 	H 	0.64580 0.66830 0.54430 0.08600
H 	H 	0.89410 0.96330 0.67590 0.06400
H 	H 	0.12150 0.98740 0.34660 0.02800
H 	H 	0.27040 0.61520 0.21910 0.02400
H 	H 	0.10430 0.54880 0.61150 0.07900
H 	H 	0.58770 0.13120 0.57280 0.08400
H 	H 	0.43680 0.23780 0.45120 0.08000
H 	H 	0.12090 0.33350 0.81390 0.07800
C 	C 	0.02090 0.22890 0.16930 0.05500
C 	C 	0.48990 0.99190 0.50730 0.03600
C 	C 	0.56270 0.03770 0.18490 -0.13300
C 	C 	0.84040 0.89640 0.39580 0.09800
C 	C 	0.27780 0.22380 0.24760 0.11900
C 	C 	0.01830 0.10530 0.32410 -0.10200
C 	C 	0.02100 0.39300 0.91500 0.40200
C 	C 	0.34170 0.50070 0.90290 -0.12700
C 	C 	0.39400 0.34100 0.89900 0.12600
C 	C 	0.48750 0.94850 0.03850 0.03900
C 	C 	0.48300 0.22100 0.39900 0.07100
C 	C 	0.11640 0.52540 0.56380 0.07300
C 	C 	0.82670 0.19370 0.64590 0.07900
C 	C 	0.27530 0.97430 0.59610 0.05900
C 	C 	0.60700 0.69000 0.57700 -0.03400
C 	C 	0.66000 0.60600 0.10100 -0.17900
C 	C 	0.42150 0.92550 0.14050 -0.12300
C 	C 	0.23860 0.75660 0.77220 -0.15500
C 	C 	0.86090 0.85790 0.90630 -0.15700
C 	C 	0.86460 0.21060 0.53520 -0.14800
C 	C 	0.86220 0.34820 0.44340 -0.14900
C 	C 	0.91660 0.46560 0.15520 -0.08900
C 	C 	0.54540 0.04140 0.46480 -0.12500
C 	C 	0.49890 0.59990 0.84630 0.03800
C 	C 	0.85560 0.22960 0.26620 -0.13000
C 	C 	0.06060 0.92860 0.44920 0.39400
C 	C 	0.98350 0.82550 0.72150 0.39400
C 	C 	0.24450 0.79450 0.22750 0.10000
C 	C 	0.32500 0.71900 0.82500 -0.12900
C 	C 	0.19670 0.28570 0.75390 -0.15500
C 	C 	0.31000 0.87400 0.42300 -0.03400
C 	C 	0.99380 0.53280 0.47560 -0.09100
C 	C 	0.90020 0.00020 0.65340 0.04700
C 	C 	0.77900 0.10300 0.60100 0.07100
C 	C 	0.05460 0.13260 0.60120 -0.01900
C 	C 	0.05700 0.11800 0.28600 0.03800
C 	C 	0.24300 0.25000 0.73500 -0.15200
C 	C 	0.79700 0.19100 0.68100 0.08500
C 	C 	0.15310 0.37510 0.66270 0.07700
C 	C 	0.08770 0.54570 0.29890 -0.10200
C 	C 	0.78410 0.72310 0.26470 0.10100
C 	C 	0.63860 0.15360 0.05620 -0.15600
C 	C 	0.52190 0.07990 0.67030 0.07600
C 	C 	0.29790 0.00790 0.59430 0.05100
C 	C 	0.75280 0.39280 0.75060 -0.15700
C 	C 	0.62390 0.45190 0.09230 0.42100
C 	C 	0.05270 0.94270 0.48190 0.04300
C 	C 	0.21800 0.64400 0.01900 -0.02800
C 	C 	0.94300 0.88200 0.71400 0.03800
C 	C 	0.26660 0.05260 0.06220 -0.12300
C 	C 	0.02100 0.87400 0.40600 -0.13600
C 	C 	0.63210 0.52910 0.09770 0.07900
C 	C 	0.10300 0.51700 0.60100 0.07100
C 	C 	0.20580 0.31780 0.66360 -0.14000
C 	C 	0.97440 0.55040 0.46180 0.03600
C 	C 	0.59520 0.03420 0.15040 -0.12200
C 	C 	0.51010 0.00810 0.49270 0.03600
C 	C 	0.30670 0.19470 0.24790 -0.04300
C 	C 	0.98660 0.02560 0.53820 0.03600
C 	C 	0.96720 0.50520 0.02440 -0.10000
C 	C 	0.79700 0.23600 0.24700 -0.03700
C 	C 	0.98240 0.39740 0.89880 0.05700
C 	C 	0.26650 0.75550 0.77250 0.10000
C 	C 	0.51250 0.05150 0.96150 0.03900
C 	C 	0.88360 0.47460 0.43620 0.07300
C 	C 	0.50520 0.50320 0.02440 -0.10000
C 	C 	0.24340 0.76740 0.22780 -0.15500
C 	C 	0.11600 0.56000 0.58000 0.08500
C 	C 	0.53520 0.09420 0.65140 -0.13800
C 	C 	0.76560 0.64060 0.46720 0.06000
C 	C 	0.81890 0.23890 0.24730 -0.02700
C 	C 	0.07840 0.98840 0.35980 -0.13500
C 	C 	0.32970 0.17170 0.24790 -0.01900
C 	C 	0.12600 0.30100 0.59400 -0.13600
C 	C 	0.60690 0.12690 0.44830 0.41300
C 	C 	0.61270 0.12370 0.59290 0.09200
C 	C 	0.03790 0.49490 0.50430 -0.10400
C 	C 	0.77370 0.61370 0.75690 -0.12300
C 	C 	0.38370 0.90770 0.88890 -0.03800
C 	C 	0.47460 0.20560 0.43620 0.07300
C 	C 	0.97390 0.38590 0.93630 0.05700
C 	C 	0.74250 0.34750 0.76950 -0.13300
C 	C 	0.71120 0.35220 0.01940 0.08300
C 	C 	0.27580 0.35680 0.25360 -0.11700
C 	C 	0.56000 0.74400 0.58000 0.08500
C 	C 	0.87400 0.39300 0.42300 -0.03400
C 	C 	0.60660 0.30160 0.08320 -0.14600
C 	C 	0.13100 0.32500 0.82500 -0.12900
C 	C 	0.83190 0.62390 0.09230 0.42100
C 	C 	0.45320 0.91120 0.14140 0.03400
C 	C 	0.22800 0.75700 0.26500 -0.15200
C 	C 	0.50760 0.04760 0.81120 0.03800
C 	C 	0.05260 0.61860 0.06220 -0.12300
C 	C 	0.88530 0.26030 0.23110 0.06800
C 	C 	0.49190 0.98990 0.00730 0.04000
C 	C 	0.86880 0.31080 0.42660 -0.14600
C 	C 	0.14430 0.22630 0.24310 -0.12300
C 	C 	0.49930 0.74530 0.09710 -0.12700
C 	C 	0.13430 0.32930 0.85710 -0.14400
C 	C 	0.63940 0.12440 0.59380 -0.14500
C 	C 	0.20560 0.88360 0.43620 0.07300
C 	C 	0.18790 0.63390 0.07330 -0.15000
C 	C 	0.99780 0.99380 0.47560 -0.09100
C 	C 	0.96010 0.35910 0.20770 -0.12500
C 	C 	0.86740 0.78840 0.39880 -0.01900
C 	C 	0.10490 0.18790 0.07330 -0.15000
C 	C 	0.95160 0.47160 0.16720 -0.09300
C 	C 	0.95490 0.27590 0.29430 0.46200
C 	C 	0.41260 0.91960 0.12520 0.38600
C 	C 	0.22630 0.38630 0.24310 -0.12300
C 	C 	0.80330 0.71430 0.24610 -0.15500
C 	C 	0.34220 0.87720 0.12640 0.41200
C 	C 	0.72410 0.52510 0.70570 0.46200
C 	C 	0.53610 0.00610 0.99570 -0.10400
C 	C 	0.74530 0.65830 0.09710 -0.12700
C 	C 	0.59350 0.11450 0.61150 -0.03400
C 	C 	0.82550 0.46950 0.72150 0.39400
C 	C 	0.61630 0.91330 0.74610 0.05100
C 	C 	0.63490 0.10890 0.96530 -0.17700
C 	C 	0.80910 0.15310 0.66270 0.07700
C 	C 	0.38210 0.44410 0.21370 0.04200
C 	C 	0.24910 0.57710 0.24970 0.42900
C 	C 	0.17170 0.25070 0.24790 -0.01900
C 	C 	0.92410 0.24910 0.24970 0.42900
C 	C 	0.31010 0.43110 0.31770 0.07200
C 	C 	0.52270 0.05270 0.48190 0.04300
C 	C 	0.58450 0.14950 0.47950 0.06800
C 	C 	0.10400 0.68800 0.62800 -0.03000
C 	C 	0.05430 0.58030 0.81810 0.04600
C 	C 	0.57720 0.68720 0.10040 -0.04500
C 	C 	0.04140 0.94840 0.46480 -0.12500
C 	C 	0.03210 0.10310 0.59670 -0.11700
C 	C 	0.78530 0.43730 0.81510 -0.13300
C 	C 	0.91230 0.45430 0.70110 -0.10200
C 	C 	0.43840 0.93940 0.55080 0.39400
C 	C 	0.54740 0.09040 0.33280 -0.10200
C 	C 	0.30510 0.18110 0.75270 -0.02700
C 	C 	0.81300 0.92300 0.39700 -0.04300
C 	C 	0.89460 0.68160 0.05120 0.45300
C 	C 	0.97900 0.12600 0.59400 -0.13600
C 	C 	0.05430 0.60330 0.82410 -0.10200
C 	C 	0.71430 0.30130 0.15910 -0.12800
C 	C 	0.11640 0.24040 0.99980 0.08700
C 	C 	0.53740 0.08340 0.84480 -0.08900
C 	C 	0.72220 0.77620 0.75240 0.11900
C 	C 	0.03710 0.96210 0.49570 -0.10400
C 	C 	0.70210 0.99210 0.40570 0.05100
C 	C 	0.73970 0.37670 0.76890 0.06800
C 	C 	0.32930 0.67930 0.85710 -0.14400
C 	C 	0.53870 0.06170 0.68590 -0.16600
C 	C 	0.66040 0.13040 0.57580 0.09400
C 	C 	0.10890 0.50690 0.58330 -0.16000
C 	C 	0.57040 0.44040 0.05080 0.41100
C 	C 	0.87340 0.23440 0.53280 0.06000
C 	C 	0.97430 0.15430 0.59610 0.05900
C 	C 	0.11630 0.22630 0.24310 0.05300
C 	C 	0.36750 0.85850 0.01550 -0.13300
C 	C 	0.51090 0.49190 0.00730 0.04000
C 	C 	0.54770 0.55870 0.83190 0.02900
C 	C 	0.55960 0.06160 0.94920 0.41100
C 	C 	0.63460 0.55460 0.09920 -0.02200
C 	C 	0.05490 0.49890 0.84630 0.03800
C 	C 	0.14050 0.74250 0.76950 -0.13300
C 	C 	0.22380 0.25080 0.24760 0.11900
C 	C 	0.86170 0.73370 0.03290 0.07700
C 	C 	0.76370 0.19670 0.75390 -0.15500
C 	C 	0.64320 0.88620 0.74640 -0.11700
C 	C 	0.93840 0.57040 0.05080 0.41100
C 	C 	0.98170 0.89470 0.67590 -0.10200
C 	C 	0.81890 0.42490 0.83730 -0.11900
C 	C 	0.60720 0.89620 0.24940 -0.15700
C 	C 	0.71430 0.23630 0.24610 -0.15500
C 	C 	0.14360 0.25060 0.24820 0.07000
C 	C 	0.84640 0.84840 0.94380 -0.15600
C 	C 	0.89230 0.37430 0.92310 -0.03900
C 	C 	0.44010 0.93110 0.81870 0.04900
C 	C 	0.50580 0.54680 0.85860 0.03400
C 	C 	0.71400 0.26700 0.19300 -0.02700
C 	C 	0.23620 0.74820 0.24640 0.10000
C 	C 	0.69490 0.81890 0.24730 -0.02700
C 	C 	0.89640 0.86740 0.39580 0.09800
C 	C 	0.36660 0.33960 0.42420 0.09400
C 	C 	0.11380 0.27580 0.25360 -0.11700
C 	C 	0.24040 0.64340 0.99980 0.08700
C 	C 	0.34000 0.39400 0.89900 -0.17900
C 	C 	0.63250 0.14150 0.98450 -0.13300
C 	C 	0.29810 0.71810 0.82470 0.08100
C 	C 	0.58660 0.91260 0.75120 -0.13400
C 	C 	0.24150 0.63250 0.98450 -0.13300
C 	C 	0.31080 0.39380 0.42660 -0.14600
C 	C 	0.84730 0.23730 0.50310 -0.12900
C 	C 	0.68130 0.58230 0.66310 -0.13500
C 	C 	0.08630 0.62130 0.07810 -0.02300
C 	C 	0.69970 0.11870 0.84090 0.06100
C 	C 	0.98990 0.51090 0.00730 0.04000
C 	C 	0.52610 0.22510 0.90470 0.06700
C 	C 	0.60600 0.63300 0.10100 -0.17900
C 	C 	0.31280 0.36480 0.89960 -0.04500
C 	C 	0.94170 0.74970 0.75090 0.39600
C 	C 	0.87560 0.35760 0.40620 -0.14500
C 	C 	0.51250 0.42150 0.14050 -0.12300
C 	C 	0.96210 0.50510 0.49570 -0.10400
C 	C 	0.45230 0.44130 0.16810 0.02900
C 	C 	0.00220 0.00620 0.52440 -0.09100
C 	C 	0.35660 0.88360 0.00020 0.08700
C 	C 	0.47490 0.95490 0.29430 0.46200
C 	C 	0.90960 0.97060 0.66720 -0.10200
C 	C 	0.25820 0.35620 0.51540 -0.12500
C 	C 	0.19100 0.33100 0.68100 0.08500
C 	C 	0.37170 0.86170 0.03290 0.07700
C 	C 	0.54680 0.08880 0.85860 0.03400
C 	C 	0.35680 0.11380 0.25360 -0.11700
C 	C 	0.08880 0.50580 0.85860 0.03400
C 	C 	0.76740 0.76140 0.22780 -0.15500
C 	C 	0.04660 0.00760 0.35920 0.04700
C 	C 	0.67930 0.13430 0.85710 -0.14400
C 	C 	0.91890 0.81890 0.83730 -0.11900
C 	C 	0.39650 0.46750 0.90350 -0.13800
C 	C 	0.15960 0.10360 0.60420 0.09800
C 	C 	0.00810 0.98910 0.49270 0.03600
C 	C 	0.93570 0.80370 0.85290 0.07400
C 	C 	0.76270 0.58770 0.49690 -0.12900
C 	C 	0.23730 0.41230 0.50310 -0.12900
C 	C 	0.60260 0.27860 0.10120 0.05700
C 	C 	0.88200 0.46100 0.71400 0.03800
C 	C 	0.10750 0.54250 0.59950 -0.13600
C 	C 	0.39890 0.49290 0.90530 0.06800
C 	C 	0.94840 0.54540 0.46480 -0.12500
C 	C 	0.65780 0.12280 0.87360 0.41200
C 	C 	0.20300 0.76400 0.75300 -0.03700
C 	C 	0.12100 0.55100 0.56200 -0.13700
C 	C 	0.99140 0.86540 0.68880 0.03700
C 	C 	0.21470 0.56270 0.18490 -0.13300
C 	C 	0.71160 0.63460 0.09920 -0.02200
C 	C 	0.87310 0.18210 0.55170 0.41300
C 	C 	0.87020 0.25820 0.51540 -0.12500
C 	C 	0.85920 0.29920 0.46440 -0.03600
C 	C 	0.25750 0.65250 0.23050 -0.13300
C 	C 	0.78570 0.91370 0.92190 -0.02300
C 	C 	0.96230 0.78530 0.81510 -0.13300
C 	C 	0.82100 0.36100 0.94500 0.09900
C 	C 	0.60110 0.50710 0.09470 0.06800
C 	C 	0.61410 0.29610 0.06370 0.05700
C 	C 	0.58560 0.71460 0.57820 -0.02900
C 	C 	0.30160 0.00860 0.08320 -0.14600
C 	C 	0.58000 0.10400 0.62800 -0.03000
C 	C 	0.20060 0.31260 0.70020 -0.02700
C 	C 	0.11450 0.68050 0.61150 -0.03400
C 	C 	0.84690 0.62490 0.33730 0.07700
C 	C 	0.13720 0.68020 0.55540 0.09500
C 	C 	0.53050 0.01650 0.27850 0.39400
C 	C 	0.64240 0.85640 0.75180 0.07000
C 	C 	0.38430 0.75630 0.92010 0.07500
C 	C 	0.88360 0.75960 0.00020 0.08700
C 	C 	0.55730 0.44830 0.01810 0.05500
C 	C 	0.41440 0.28540 0.42180 -0.02900
C 	C 	0.39300 0.31000 0.42300 -0.03400
C 	C 	0.34750 0.14050 0.76950 -0.13300
C 	C 	0.04320 0.60720 0.09940 -0.12100
C 	C 	0.47390 0.77490 0.09530 0.06700
C 	C 	0.85640 0.74940 0.75180 0.07000
C 	C 	0.23630 0.80330 0.24610 -0.15500
C 	C 	0.80130 0.62730 0.09410 -0.16000
C 	C 	0.61790 0.55590 0.78630 0.04200
C 	C 	0.63360 0.50760 0.81120 0.03800
C 	C 	0.75700 0.75000 0.26500 -0.15200
C 	C 	0.39280 0.10380 0.75060 -0.15700
C 	C 	0.24370 0.06070 0.07990 0.07500
C 	C 	0.49490 0.96290 0.50430 -0.10400
C 	C 	0.29610 0.02610 0.06370 0.05700
C 	C 	0.75550 0.20550 0.77250 0.10000
C 	C 	0.41970 0.45270 0.18190 0.04600
C 	C 	0.26410 0.65210 0.99770 -0.14000
C 	C 	0.22960 0.64860 0.26620 -0.13000
C 	C 	0.41550 0.85050 0.52050 0.06800
C 	C 	0.85770 0.28170 0.48090 -0.02500
C 	C 	0.60620 0.13120 0.57340 -0.14600
C 	C 	0.73190 0.96790 0.40330 -0.11700
C 	C 	0.23890 0.69490 0.24730 -0.02700
C 	C 	0.81210 0.36610 0.92670 -0.15000
C 	C 	0.20300 0.80900 0.31900 0.08500
C 	C 	0.45850 0.95450 0.03550 -0.14300
C 	C 	0.52550 0.48750 0.03850 0.03900
C 	C 	0.92670 0.31870 0.33690 -0.13500
C 	C 	0.59040 0.04840 0.83280 -0.09300
C 	C 	0.31200 0.42000 0.37200 -0.03000
C 	C 	0.23080 0.76380 0.75360 0.10000
C 	C 	0.74110 0.63210 0.09770 0.07900
C 	C 	0.43110 0.94110 0.31770 0.07200
C 	C 	0.76760 0.38060 0.73320 0.07100
C 	C 	0.69900 0.02100 0.40600 -0.13600
C 	C 	0.54250 0.75050 0.59950 -0.13600
C 	C 	0.35760 0.36060 0.40620 -0.14500
C 	C 	0.28190 0.84090 0.17530 0.08100
C 	C 	0.03990 0.61790 0.78630 0.04200
C 	C 	0.39280 0.74980 0.90060 -0.12100
C 	C 	0.37260 0.89460 0.05120 0.45300
C 	C 	0.45270 0.94570 0.18190 0.04600
C 	C 	0.19470 0.25070 0.24790 -0.04300
C 	C 	0.42960 0.55960 0.94920 0.41100
C 	C 	0.20550 0.26650 0.77250 0.10000
C 	C 	0.91120 0.49420 0.14140 0.03400
C 	C 	0.24240 0.02740 0.59880 0.07200
C 	C 	0.47090 0.25890 0.90230 0.07900
C 	C 	0.81210 0.39410 0.87270 -0.02200
C 	C 	0.26700 0.82600 0.19300 -0.02700
C 	C 	0.72420 0.64320 0.74640 -0.11700
C 	C 	0.63980 0.20580 0.31960 -0.13800
C 	C 	0.00150 0.84250 0.40150 -0.12600
C 	C 	0.74180 0.64380 0.48460 -0.12500
C 	C 	0.15360 0.15160 0.05620 -0.15600
C 	C 	0.02570 0.84570 0.40390 0.05900
C 	C 	0.85790 0.37490 0.90630 -0.15700
C 	C 	0.18790 0.60590 0.12730 -0.02200
C 	C 	0.40010 0.94510 0.15370 0.03800
C 	C 	0.94730 0.05730 0.51810 0.04300
C 	C 	0.61370 0.85570 0.75690 -0.12300
C 	C 	0.75000 0.22800 0.26500 -0.15200
C 	C 	0.80090 0.10890 0.58330 -0.16000
C 	C 	0.78660 0.20060 0.70020 -0.02700
C 	C 	0.00610 0.46210 0.99570 -0.10400
C 	C 	0.64340 0.11640 0.99980 0.08700
C 	C 	0.71900 0.13100 0.82500 -0.12900
C 	C 	0.05150 0.47450 0.96150 0.03900
C 	C 	0.46200 0.97200 0.70800 -0.12000
C 	C 	0.90960 0.30360 0.35220 0.08800
C 	C 	0.77190 0.21590 0.73530 0.10100
C 	C 	0.44780 0.95180 0.68160 0.03700
C 	C 	0.36880 0.83980 0.92460 0.10200
C 	C 	0.51830 0.05430 0.82410 -0.10200
C 	C 	0.54810 0.16810 0.90770 0.42100
C 	C 	0.28840 0.36540 0.90080 -0.02200
C 	C 	0.42000 0.89600 0.37200 -0.03000
C 	C 	0.86700 0.81300 0.39700 -0.04300
C 	C 	0.93830 0.45230 0.16810 0.02900
C 	C 	0.21060 0.38960 0.53520 -0.14800
C 	C 	0.18720 0.79420 0.33640 -0.14000
C 	C 	0.45750 0.24950 0.40050 -0.13600
C 	C 	0.89470 0.44770 0.67590 -0.10200
C 	C 	0.22280 0.27880 0.24760 -0.18300
C 	C 	0.58670 0.56670 0.79890 -0.10700
C 	C 	0.99390 0.53790 0.00430 -0.10400
C 	C 	0.69000 0.12600 0.57700 -0.03400
C 	C 	0.22020 0.59520 0.15040 -0.12200
C 	C 	0.37430 0.81030 0.92310 -0.03900
C 	C 	0.76600 0.12100 0.56200 -0.13700
C 	C 	0.09990 0.29790 0.59430 0.05100
C 	C 	0.73370 0.37170 0.03290 0.07700
C 	C 	0.89200 0.52300 0.41400 0.44400
C 	C 	0.29920 0.37720 0.46440 -0.03600
C 	C 	0.39400 0.36700 0.89900 -0.17900
C 	C 	0.62650 0.11150 0.09250 0.10000
C 	C 	0.08280 0.28880 0.98060 0.08300
C 	C 	0.79420 0.16520 0.68040 -0.13800
C 	C 	0.64400 0.11900 0.01900 -0.02800
C 	C 	0.99210 0.90010 0.40570 0.05100
C 	C 	0.53790 0.46390 0.00430 -0.10400
C 	C 	0.28170 0.37970 0.48090 -0.02500
C 	C 	0.63300 0.66000 0.10100 -0.17900
C 	C 	0.65420 0.34220 0.12640 0.41200
C 	C 	0.94570 0.41970 0.18190 0.04600
C 	C 	0.39740 0.72140 0.89880 0.05700
C 	C 	0.12280 0.34580 0.87360 0.41200
C 	C 	0.62130 0.21430 0.07810 -0.02300
C 	C 	0.91960 0.54260 0.12520 0.38600
C 	C 	0.03230 0.67330 0.77910 0.39400
C 	C 	0.55150 0.45850 0.03550 -0.14300
C 	C 	0.43730 0.96230 0.81510 -0.13300
C 	C 	0.50690 0.80090 0.58330 -0.16000
C 	C 	0.77110 0.41910 0.83070 0.05500
C 	C 	0.41230 0.84730 0.50310 -0.12900
C 	C 	0.13320 0.63120 0.07540 0.10200
C 	C 	0.03280 0.49480 0.97560 -0.10000
C 	C 	0.00860 0.60660 0.08320 -0.14600
C 	C 	0.37720 0.85920 0.46440 -0.03600
C 	C 	0.87750 0.80050 0.96450 -0.03600
C 	C 	0.80530 0.74930 0.75210 -0.04300
C 	C 	0.44270 0.55170 0.98190 0.05500
C 	C 	0.44000 0.25600 0.42000 0.08500
C 	C 	0.93930 0.38430 0.92010 0.07500
C 	C 	0.52690 0.03990 0.79230 -0.12500
C 	C 	0.09040 0.02940 0.33280 -0.10200
C 	C 	0.38370 0.08670 0.25390 0.05100
C 	C 	0.87900 0.44900 0.43800 -0.13700
C 	C 	0.15750 0.24550 0.59850 -0.12600
C 	C 	0.08340 0.53440 0.84480 -0.08900
C 	C 	0.95230 0.41330 0.20110 -0.10700
C 	C 	0.62720 0.13720 0.55540 0.09500
C 	C 	0.34620 0.86220 0.44340 -0.14900
C 	C 	0.25080 0.22280 0.24760 -0.18300
C 	C 	0.39300 0.67100 0.91500 0.40200
C 	C 	0.91330 0.72430 0.74610 0.05100
C 	C 	0.93230 0.91230 0.70110 -0.10200
C 	C 	0.18820 0.27620 0.79140 -0.03700
C 	C 	0.63340 0.66040 0.57580 0.09400
C 	C 	0.52840 0.59040 0.83280 -0.09300
C 	C 	0.85850 0.75850 0.01550 -0.13300
C 	C 	0.34070 0.69970 0.84090 0.06100
C 	C 	0.82530 0.71430 0.15910 -0.12800
C 	C 	0.08610 0.26410 0.99770 -0.14000
C 	C 	0.62280 0.14080 0.53560 -0.03600
C 	C 	0.10890 0.29090 0.96530 -0.17700
C 	C 	0.72140 0.98240 0.89880 0.05700
C 	C 	0.55170 0.02370 0.98190 0.05500
C 	C 	0.83780 0.69880 0.14260 0.05500
C 	C 	0.50110 0.40010 0.15370 0.03800
C 	C 	0.12690 0.81790 0.44830 0.41300
C 	C 	0.54570 0.06770 0.29890 -0.10200
C 	C 	0.60330 0.51830 0.82410 -0.10200
C 	C 	0.86740 0.84040 0.39580 0.09800
C 	C 	0.02740 0.13140 0.59880 0.07200
C 	C 	0.71810 0.15910 0.82470 0.08100
C 	C 	0.37350 0.88850 0.90750 0.10000
C 	C 	0.68160 0.37260 0.05120 0.45300
C 	C 	0.23260 0.23860 0.77220 -0.15500
C 	C 	0.12370 0.67070 0.59290 0.09200
C 	C 	0.57510 0.08110 0.16270 -0.11900
C 	C 	0.36100 0.87300 0.94500 0.09900
C 	C 	0.47730 0.80130 0.09410 -0.16000
C 	C 	0.26630 0.62830 0.96710 0.07700
C 	C 	0.06070 0.61570 0.07990 0.07500
C 	C 	0.01340 0.97440 0.46180 0.03600
C 	C 	0.75630 0.93930 0.92010 0.07500
C 	C 	0.41340 0.95340 0.64080 0.04700
C 	C 	0.13460 0.54560 0.31120 0.03700
C 	C 	0.25000 0.77200 0.73500 -0.15200
C 	C 	0.36020 0.79420 0.68040 -0.13800
C 	C 	0.08730 0.95730 0.37510 0.42300
C 	C 	0.96010 0.38210 0.21370 0.04200
C 	C 	0.48470 0.96770 0.22090 0.39400
C 	C 	0.37670 0.11470 0.76890 0.06800
C 	C 	0.89110 0.49310 0.41670 -0.16000
C 	C 	0.69840 0.99140 0.91680 -0.14600
C 	C 	0.94850 0.52550 0.03850 0.03900
C 	C 	0.33960 0.86960 0.42420 0.09400
C 	C 	0.04550 0.44850 0.96450 -0.14300
C 	C 	0.64380 0.12980 0.48460 -0.12500
C 	C 	0.46260 0.91660 0.15520 -0.08900
C 	C 	0.04510 0.72410 0.70570 0.46200
C 	C 	0.97910 0.77110 0.83070 0.05500
C 	C 	0.34580 0.65780 0.87360 0.41200
C 	C 	0.25470 0.34170 0.90290 -0.12700
C 	C 	0.64090 0.52690 0.79230 -0.12500
C 	C 	0.98910 0.51010 0.49270 0.03600
C 	C 	0.78840 0.94540 0.39880 -0.01900
C 	C 	0.77490 0.65590 0.09530 0.06700
C 	C 	0.92550 0.51250 0.14050 -0.12300
C 	C 	0.63120 0.16020 0.07540 0.10200
C 	C 	0.05860 0.04860 0.33220 0.04300
C 	C 	0.80050 0.35750 0.96450 -0.03600
C 	C 	0.79940 0.68740 0.29980 -0.02700
C 	C 	0.66630 0.17330 0.35410 0.07900
C 	C 	0.00790 0.09990 0.59430 0.05100
C 	C 	0.95140 0.43940 0.66780 0.04300
C 	C 	0.15430 0.27530 0.59610 0.05900
C 	C 	0.56540 0.09040 0.64780 0.08800
C 	C 	0.28000 0.20300 0.75300 -0.03700
C 	C 	0.25070 0.32970 0.24790 -0.01900
C 	C 	0.64780 0.08280 0.98060 0.08300
C 	C 	0.72120 0.74920 0.75240 -0.18300
C 	C 	0.55770 0.94170 0.75090 0.39600
C 	C 	0.94140 0.95140 0.66780 0.04300
C 	C 	0.86540 0.45440 0.68880 0.03700
C 	C 	0.16520 0.36020 0.68040 -0.13800
C 	C 	0.03990 0.64090 0.79230 -0.12500
C 	C 	0.55100 0.76600 0.56200 -0.13700
C 	C 	0.10540 0.31840 0.94880 0.45300
C 	C 	0.74930 0.67030 0.75210 -0.01900
C 	C 	0.38140 0.73340 0.93780 -0.12300
C 	C 	0.62430 0.15530 0.37210 0.44300
C 	C 	0.37490 0.86090 0.90630 -0.15700
C 	C 	0.83480 0.63980 0.31960 -0.13800
C 	C 	0.15170 0.37570 0.62790 0.44300
C 	C 	0.61860 0.26660 0.06220 -0.12300
C 	C 	0.49680 0.03280 0.97560 -0.10000
C 	C 	0.39410 0.92110 0.87270 -0.02200
C 	C 	0.96290 0.03790 0.50430 -0.10400
C 	C 	0.52510 0.04510 0.70570 0.46200
C 	C 	0.42280 0.31280 0.89960 -0.04500
C 	C 	0.55220 0.04820 0.31840 0.03700
C 	C 	0.09980 0.99980 0.34660 0.04700
C 	C 	0.61940 0.88140 0.26680 0.07100
C 	C 	0.14080 0.70080 0.53560 -0.03600
C 	C 	0.40650 0.88550 0.38850 -0.03400
C 	C 	0.12660 0.76560 0.46720 0.06000
C 	C 	0.95180 0.91880 0.68160 0.03700
C 	C 	0.75090 0.42290 0.75030 0.42900
C 	C 	0.80900 0.66900 0.31900 0.08500
C 	C 	0.58570 0.88370 0.75690 0.05300
C 	C 	0.30030 0.88130 0.15910 0.06100
C 	C 	0.31950 0.40650 0.38850 -0.03400
C 	C 	0.95340 0.99240 0.64080 0.04700
C 	C 	0.68020 0.62720 0.55540 0.09500
C 	C 	0.89700 0.48300 0.39900 0.07100
C 	C 	0.08740 0.25040 0.24880 -0.13400
C 	C 	0.63520 0.57720 0.10040 -0.04500
C 	C 	0.41770 0.92670 0.33690 -0.13500
C 	C 	0.01010 0.48910 0.99270 0.04000
C 	C 	0.41330 0.43330 0.20110 -0.10700
C 	C 	0.83980 0.86680 0.92460 0.10200
C 	C 	0.44960 0.98660 0.53820 0.03600
C 	C 	0.10800 0.47700 0.58600 0.44400
C 	C 	0.66740 0.04740 0.40780 0.39900
C 	C 	0.76750 0.60350 0.09650 -0.13800
C 	C 	0.85050 0.21350 0.52050 0.06800
C 	C 	0.91370 0.37870 0.92190 -0.02300
C 	C 	0.45460 0.95860 0.53520 -0.12500
C 	C 	0.24550 0.99850 0.59850 -0.12600
C 	C 	0.19630 0.59230 0.14710 0.07400
C 	C 	0.34790 0.91390 0.00230 -0.14000
C 	C 	0.93830 0.28630 0.31410 -0.16600
C 	C 	0.28570 0.76370 0.75390 -0.15500
C 	C 	0.44230 0.05830 0.24910 0.39600
C 	C 	0.43330 0.95230 0.20110 -0.10700
C 	C 	0.81970 0.38370 0.88890 -0.03800
C 	C 	0.22070 0.79270 0.28390 -0.03600
C 	C 	0.36790 0.47090 0.90230 0.07900
C 	C 	0.86840 0.89540 0.39580 -0.14800
C 	C 	0.24950 0.89250 0.40050 -0.13600
C 	C 	0.95860 0.05160 0.53520 -0.12500
C 	C 	0.44540 0.28840 0.90080 -0.02200
C 	C 	0.00860 0.13460 0.31120 0.03700
C 	C 	0.12260 0.33260 0.59220 0.39900
C 	C 	0.20730 0.29730 0.71610 -0.03600
C 	C 	0.00020 0.44620 0.65340 0.04700
C 	C 	0.53900 0.05700 0.28600 0.03800
C 	C 	0.41880 0.96380 0.65460 -0.11600
C 	C 	0.89620 0.24720 0.24940 -0.15700
C 	C 	0.59990 0.05490 0.84630 0.03800
C 	C 	0.37870 0.78570 0.92190 -0.02300
C 	C 	0.91270 0.04270 0.62490 0.42300
C 	C 	0.76380 0.25180 0.75360 0.10000
C 	C 	0.83050 0.37350 0.90750 0.10000
C 	C 	0.56670 0.04770 0.79890 -0.10700
C 	C 	0.70080 0.62280 0.53560 -0.03600
C 	C 	0.73340 0.94740 0.93780 -0.12300
C 	C 	0.65590 0.47390 0.09530 0.06700
C 	C 	0.27860 0.01760 0.10120 0.05700
C 	C 	0.58030 0.08730 0.37510 0.42300
C 	C 	0.82590 0.16690 0.64530 -0.16900
C 	C 	0.90010 0.70210 0.40570 0.05100
C 	C 	0.60720 0.25020 0.09940 -0.12100
C 	C 	0.35910 0.47310 0.20770 -0.12500
C 	C 	0.71460 0.12160 0.57820 -0.02900
C 	C 	0.19370 0.33370 0.64590 0.07900
C 	C 	0.10380 0.75280 0.75060 -0.15700
C 	C 	0.77040 0.35140 0.73380 -0.13000
C 	C 	0.82900 0.10800 0.58600 0.44400
C 	C 	0.58090 0.02090 0.16930 0.05500
C 	C 	0.27690 0.77190 0.73530 0.10100
C 	C 	0.62330 0.88530 0.23110 0.06800
C 	C 	0.18110 0.57510 0.16270 -0.11900
C 	C 	0.46390 0.99390 0.00430 -0.10400
C 	C 	0.72470 0.02570 0.40390 0.05900
C 	C 	0.46750 0.23250 0.90350 -0.13800
C 	C 	0.30360 0.43460 0.35220 0.08800
C 	C 	0.92160 0.01160 0.64020 -0.13500
C 	C 	0.68720 0.63520 0.10040 -0.04500
C 	C 	0.07990 0.72790 0.67030 0.07600
C 	C 	0.87300 0.82100 0.94500 0.09900
C 	C 	0.15910 0.29810 0.82470 0.08100
C 	C 	0.04760 0.63360 0.81120 0.03800
C 	C 	0.85570 0.77370 0.75690 -0.12300
C 	C 	0.10460 0.15960 0.60420 -0.14800
C 	C 	0.55590 0.03990 0.78630 0.04200
C 	C 	0.55380 0.09980 0.34660 0.04700
C 	C 	0.12160 0.58560 0.57820 -0.02900
C 	C 	0.87720 0.65420 0.12640 0.41200
C 	C 	0.69880 0.32080 0.14260 0.05500
C 	C 	0.87630 0.32930 0.40710 0.09200
C 	C 	0.25600 0.88400 0.42000 0.08500
C 	C 	0.68800 0.58000 0.62800 -0.03000
C 	C 	0.04860 0.56060 0.33220 0.04300
C 	C 	0.78940 0.61040 0.46480 -0.14800
C 	C 	0.27590 0.47490 0.29430 0.46200
C 	C 	0.32070 0.86570 0.14290 -0.14400
C 	C 	0.00760 0.58660 0.35920 0.04700
C 	C 	0.54560 0.00860 0.31120 0.03700
C 	C 	0.25020 0.04320 0.09940 -0.12100
C 	C 	0.70390 0.97390 0.93630 0.05700
C 	C 	0.65380 0.13780 0.55660 -0.14900
C 	C 	0.62830 0.13830 0.96710 0.07700
C 	C 	0.74920 0.72220 0.75240 0.11900
C 	C 	0.17410 0.83310 0.35470 -0.16900
C 	C 	0.58120 0.03620 0.34540 -0.11600
C 	C 	0.77980 0.40480 0.84960 -0.12200
C 	C 	0.62730 0.47730 0.09410 -0.16000
C 	C 	0.34100 0.36600 0.89900 0.12600
C 	C 	0.84570 0.24070 0.24790 0.08300
C 	C 	0.55990 0.06890 0.18130 0.04900
C 	C 	0.95730 0.58030 0.37510 0.42300
C 	C 	0.50070 0.25470 0.90290 -0.12700
C 	C 	0.91720 0.71120 0.01940 0.08300
C 	C 	0.77370 0.58570 0.75690 0.05300
C 	C 	0.99240 0.41340 0.64080 0.04700
C 	C 	0.11800 0.53900 0.28600 0.03800
C 	C 	0.41910 0.97910 0.83070 0.05500
C 	C 	0.76920 0.23620 0.24640 0.10000
C 	C 	0.52270 0.19870 0.90590 -0.16000
C 	C 	0.68920 0.60620 0.57340 -0.14600
C 	C 	0.38960 0.86460 0.53520 -0.14800
C 	C 	0.13540 0.78940 0.46480 -0.14800
C 	C 	0.76110 0.30510 0.75270 -0.02700
C 	C 	0.85950 0.25750 0.23050 -0.13300
C 	C 	0.31780 0.81280 0.66360 -0.14000
C 	C 	0.05830 0.25030 0.24910 0.39600
C 	C 	0.38320 0.85620 0.50040 0.07700
C 	C 	0.04740 0.87740 0.40780 0.39900
C 	C 	0.17400 0.28600 0.80700 -0.02700
C 	C 	0.44850 0.54150 0.96450 -0.14300
C 	C 	0.74820 0.76920 0.24640 0.10000
C 	C 	0.31980 0.37280 0.44460 0.09500
C 	C 	0.45380 0.97580 0.79560 0.39500
C 	C 	0.97060 0.45260 0.66720 -0.10200
C 	C 	0.53250 0.76750 0.09650 -0.13800
C 	C 	0.12600 0.60700 0.57700 -0.03400
C 	C 	0.55230 0.01830 0.32410 -0.10200
C 	C 	0.16220 0.30120 0.85740 0.05500
C 	C 	0.88620 0.72420 0.74640 -0.11700
C 	C 	0.23440 0.35940 0.53280 0.06000
C 	C 	0.56060 0.05860 0.33220 0.04300
C 	C 	0.14950 0.78650 0.47950 0.06800
C 	C 	0.57850 0.07450 0.85950 -0.12300
C 	C 	0.29090 0.63490 0.96530 -0.17700
C 	C 	0.06170 0.71370 0.68590 -0.16600
C 	C 	0.72790 0.52190 0.67030 0.07600
C 	C 	0.85800 0.46200 0.70800 -0.12000
C 	C 	0.54730 0.05430 0.81810 0.04600
C 	C 	0.87400 0.69900 0.40600 -0.13600
C 	C 	0.27570 0.38370 0.25390 0.05100
C 	C 	0.76400 0.28000 0.75300 -0.03700
C 	C 	0.35140 0.14440 0.73380 -0.13000
C 	C 	0.55040 0.01340 0.46180 0.03600
C 	C 	0.07330 0.68130 0.66310 -0.13500
C 	C 	0.30100 0.97900 0.59400 -0.13600
C 	C 	0.39310 0.87310 0.55170 0.41300
C 	C 	0.88850 0.83050 0.90750 0.10000
C 	C 	0.41340 0.08740 0.24880 -0.13400
C 	C 	0.96790 0.89690 0.40330 -0.11700
C 	C 	0.10530 0.55230 0.32410 -0.10200
C 	C 	0.99140 0.39340 0.91680 -0.14600
C 	C 	0.84570 0.72470 0.40390 0.05900
C 	C 	0.46130 0.93830 0.31410 -0.16600
C 	C 	0.16020 0.13320 0.07540 0.10200
C 	C 	0.27620 0.74420 0.79140 -0.03700
C 	C 	0.10360 0.13260 0.60420 0.09800
C 	C 	0.46210 0.53610 0.99570 -0.10400
C 	C 	0.13830 0.26630 0.96710 0.07700
C 	C 	0.95450 0.55150 0.03550 -0.14300
C 	C 	0.75960 0.35660 0.00020 0.08700
C 	C 	0.92300 0.86700 0.39700 -0.04300
C 	C 	0.61040 0.13540 0.46480 -0.14800
C 	C 	0.57340 0.07840 0.35980 -0.13500
C 	C 	0.59230 0.06430 0.14710 0.07400
C 	C 	0.98840 0.57340 0.35980 -0.13500
C 	C 	0.95260 0.12260 0.59220 0.39900
C 	C 	0.13300 0.18700 0.60300 -0.04300
C 	C 	0.15960 0.13160 0.60420 -0.14800
C 	C 	0.19910 0.89110 0.41670 -0.16000
C 	C 	0.29730 0.77930 0.71610 -0.03600
C 	C 	0.22510 0.34410 0.90470 0.06700
C 	C 	0.44130 0.93830 0.16810 0.02900
C 	C 	0.33260 0.95260 0.59220 0.39900
C 	C 	0.12980 0.74180 0.48460 -0.12500
C 	C 	0.73590 0.34790 0.00230 -0.14000
C 	C 	0.77480 0.45380 0.79560 0.39500
C 	C 	0.63810 0.17410 0.35470 -0.16900
C 	C 	0.16690 0.36190 0.64530 -0.16900
C 	C 	0.65900 0.63400 0.10100 0.12600
C 	C 	0.89250 0.45750 0.40050 -0.13600
C 	C 	0.83310 0.63810 0.35470 -0.16900
C 	C 	0.46560 0.46260 0.15520 -0.08900
C 	C 	0.26020 0.38320 0.50040 0.07700
C 	C 	0.91260 0.74960 0.75120 -0.13400
C 	C 	0.32080 0.83780 0.14260 0.05500
C 	C 	0.28570 0.69870 0.84090 -0.12800
C 	C 	0.18990 0.55990 0.18130 0.04900
C 	C 	0.23400 0.87900 0.43800 -0.13700
C 	C 	0.77930 0.20730 0.71610 -0.03600
C 	C 	0.86860 0.75760 0.40120 0.07200
C 	C 	0.63400 0.60600 0.10100 0.12600
C 	C 	0.32930 0.38730 0.40710 0.09200
C 	C 	0.60590 0.07890 0.12730 -0.02200
C 	C 	0.02370 0.44270 0.98190 0.05500
C 	C 	0.58230 0.07330 0.66310 -0.13500
C 	C 	0.47700 0.82900 0.58600 0.44400
C 	C 	0.50510 0.03710 0.49570 -0.10400
C 	C 	0.34410 0.52610 0.90470 0.06700
C 	C 	0.03720 0.58120 0.34540 -0.11600
C 	C 	0.89110 0.70910 0.03470 -0.17700
C 	C 	0.72380 0.25580 0.20860 -0.03700
C 	C 	0.79710 0.60110 0.09470 0.06800
C 	C 	0.34820 0.34620 0.44340 -0.14900
C 	C 	0.35620 0.87020 0.51540 -0.12500
C 	C 	0.97900 0.60700 0.08500 0.40200
C 	C 	0.87840 0.41440 0.42180 -0.02900
C 	C 	0.12440 0.64240 0.59380 -0.14500
C 	C 	0.61570 0.24370 0.07990 0.07500
C 	C 	0.50810 0.01010 0.99270 0.04000
C 	C 	0.97580 0.77480 0.79560 0.39500
C 	C 	0.42290 0.07590 0.75030 0.42900
C 	C 	0.72430 0.61630 0.74610 0.05100
C 	C 	0.23250 0.39650 0.90350 -0.13800
C 	C 	0.67100 0.02100 0.91500 0.40200
C 	C 	0.26810 0.03210 0.59670 -0.11700
C 	C 	0.14150 0.24150 0.98450 -0.13300
C 	C 	0.65930 0.30030 0.15910 0.06100
C 	C 	0.65250 0.85950 0.23050 -0.13300
C 	C 	0.53280 0.99780 0.47560 -0.09100
C 	C 	0.44900 0.23400 0.43800 -0.13700
C 	C 	0.02420 0.22520 0.20440 0.39500
C 	C 	0.62030 0.14230 0.51910 -0.02500
C 	C 	0.78200 0.35600 0.98100 -0.02800
C 	C 	0.69640 0.56540 0.64780 0.08800
C 	C 	0.73350 0.24450 0.22750 0.10000
C 	C 	0.14230 0.71830 0.51910 -0.02500
C 	C 	0.94540 0.86740 0.39880 -0.01900
C 	C 	0.52910 0.74110 0.09770 0.07900
C 	C 	0.84250 0.75450 0.40150 -0.12600
C 	C 	0.46720 0.00220 0.52440 -0.09100
C 	C 	0.22100 0.89700 0.39900 0.07100
C 	C 	0.76140 0.24340 0.22780 -0.15500
C 	C 	0.99190 0.01090 0.50730 0.03600
C 	C 	0.81030 0.89230 0.92310 -0.03900
C 	C 	0.61630 0.09230 0.11110 -0.03800
C 	C 	0.64860 0.85560 0.26620 -0.13000
C 	C 	0.45740 0.58740 0.87480 0.38600
C 	C 	0.02610 0.61410 0.06370 0.05700
C 	C 	0.70910 0.36510 0.03470 -0.17700
C 	C 	0.97630 0.55730 0.01810 0.05500
C 	C 	0.96580 0.77980 0.84960 -0.12200
C 	C 	0.44040 0.93840 0.05080 0.41100
C 	C 	0.79420 0.68220 0.33640 -0.14000
C 	C 	0.17900 0.63900 0.05500 0.09900
C 	C 	0.75050 0.10750 0.59950 -0.13600
C 	C 	0.36190 0.82590 0.64530 -0.16900
C 	C 	0.97260 0.86860 0.40120 0.07200
C 	C 	0.84840 0.36140 0.94380 -0.15600
C 	C 	0.43940 0.94140 0.66780 0.04300
C 	C 	0.25890 0.36790 0.90230 0.07900
C 	C 	0.56160 0.06060 0.44920 0.39400
C 	C 	0.78650 0.58450 0.47950 0.06800
C 	C 	0.86280 0.31980 0.44460 0.09500
C 	C 	0.07700 0.13300 0.60300 -0.04300
C 	C 	0.96380 0.96280 0.65460 -0.11600
C 	C 	0.40770 0.93570 0.85290 0.07400
C 	C 	0.93940 0.07140 0.55080 0.39400
C 	C 	0.25040 0.41340 0.24880 -0.13400
C 	C 	0.88130 0.65930 0.15910 0.06100
C 	C 	0.07140 0.43840 0.55080 0.39400
C 	C 	0.68990 0.56890 0.68230 0.07200
C 	C 	0.84830 0.62430 0.37210 0.44300
C 	C 	0.03620 0.03720 0.34540 -0.11600
C 	C 	0.49420 0.45320 0.14140 0.03400
C 	C 	0.17470 0.28570 0.84090 -0.12800
C 	C 	0.07890 0.18790 0.12730 -0.02200
C 	C 	0.88100 0.78200 0.98100 -0.02800
C 	C 	0.91880 0.44780 0.68160 0.03700
C 	C 	0.64250 0.12250 0.03550 -0.03600
C 	C 	0.62740 0.10540 0.94880 0.45300
C 	C 	0.35600 0.88100 0.98100 -0.02800
C 	C 	0.15430 0.75930 0.75210 0.08300
C 	C 	0.32670 0.48470 0.22090 0.39400
C 	C 	0.38730 0.87630 0.40710 0.09200
C 	C 	0.94510 0.50110 0.15370 0.03800
C 	C 	0.14380 0.73980 0.49960 0.07700
C 	C 	0.86570 0.67070 0.14290 -0.14400
C 	C 	0.67070 0.32070 0.14290 -0.14400
C 	C 	0.74940 0.64240 0.75180 0.07000
C 	C 	0.74980 0.95680 0.90060 -0.12100
C 	C 	0.39380 0.86880 0.42660 -0.14600
C 	C 	0.43460 0.90960 0.35220 0.08800
C 	C 	0.25080 0.27780 0.24760 0.11900
C 	C 	0.65180 0.65380 0.55660 -0.14900
C 	C 	0.50710 0.79710 0.09470 0.06800
C 	C 	0.21590 0.27690 0.73530 0.10100
C 	C 	0.70270 0.22070 0.28390 -0.03600
C 	C 	0.37610 0.54810 0.90770 0.42100
C 	C 	0.42490 0.91890 0.83730 -0.11900
C 	C 	0.47730 0.94730 0.51810 0.04300
C 	C 	0.16950 0.62650 0.09250 0.10000
C 	C 	0.66570 0.84570 0.24790 0.08300
C 	C 	0.50320 0.96720 0.02440 -0.10000
C 	C 	0.36480 0.42280 0.89960 -0.04500
C 	C 	0.13160 0.10460 0.60420 -0.14800
C 	C 	0.18970 0.10770 0.07690 -0.03900
C 	C 	0.82600 0.71400 0.19300 -0.02700
C 	C 	0.36640 0.49240 0.18880 0.03800
C 	C 	0.95240 0.36640 0.18880 0.03800
C 	C 	0.67500 0.28100 0.17500 -0.12900
C 	C 	0.86680 0.36880 0.92460 0.10200
C 	C 	0.15530 0.84830 0.37210 0.44300
C 	C 	0.27880 0.25080 0.24760 -0.18300
C 	C 	0.94270 0.52270 0.48190 0.04300
C 	C 	0.49310 0.19910 0.41670 -0.16000
C 	C 	0.13910 0.14210 0.09370 -0.15700
C 	C 	0.33100 0.79700 0.68100 0.08500
C 	C 	0.11860 0.76760 0.73320 0.07100
C 	C 	0.91390 0.73590 0.00230 -0.14000
C 	C 	0.53800 0.02800 0.29200 -0.12000
C 	C 	0.58030 0.54730 0.81810 0.04600
C 	C 	0.65830 0.49930 0.09710 -0.12700
C 	C 	0.68220 0.18720 0.33640 -0.14000
C 	C 	0.40480 0.96580 0.84960 -0.12200
C 	C 	0.09040 0.69640 0.64780 0.08800
C 	C 	0.94110 0.31010 0.31770 0.07200
C 	C 	0.01650 0.17450 0.27850 0.39400
C 	C 	0.10310 0.26810 0.59670 -0.11700
C 	C 	0.35750 0.87750 0.96450 -0.03600
C 	C 	0.67330 0.51530 0.77910 0.39400
C 	C 	0.85620 0.26020 0.50040 0.07700
C 	C 	0.77200 0.24300 0.73500 -0.15200
C 	C 	0.58740 0.08040 0.87480 0.38600
C 	C 	0.72310 0.22810 0.26470 0.10100
C 	C 	0.37280 0.86280 0.44460 0.09500
C 	C 	0.08120 0.55220 0.31840 0.03700
C 	C 	0.30130 0.82530 0.15910 -0.12800
C 	C 	0.74400 0.11600 0.58000 0.08500
C 	C 	0.28630 0.46130 0.31410 -0.16600
C 	C 	0.89510 0.81210 0.92670 -0.15000
C 	C 	0.25180 0.23080 0.75360 0.10000
C 	C 	0.54620 0.02420 0.20440 0.39500
C 	C 	0.13260 0.15960 0.60420 0.09800
C 	C 	0.42660 0.92160 0.64020 -0.13500
C 	C 	0.41970 0.91270 0.62490 0.42300
C 	C 	0.74920 0.77720 0.75240 -0.18300
C 	C 	0.18030 0.61630 0.11110 -0.03800
C 	C 	0.26030 0.62330 0.23110 0.06800
C 	C 	0.58770 0.15270 0.49690 -0.12900
C 	C 	0.03770 0.21470 0.18490 -0.13300
C 	C 	0.10770 0.62570 0.07690 -0.03900
C 	C 	0.19950 0.64250 0.03550 -0.03600
C 	C 	0.92110 0.81210 0.87270 -0.02200
C 	C 	0.48910 0.50810 0.99270 0.04000
C 	C 	0.09420 0.71920 0.65140 -0.13800
C 	C 	0.45190 0.83190 0.09230 0.42100
C 	C 	0.39670 0.48170 0.17590 -0.10200
C 	C 	0.51700 0.77900 0.60100 0.07100
C 	C 	0.73980 0.61680 0.49960 0.07700
C 	C 	0.86960 0.36660 0.42420 0.09400
C 	C 	0.06170 0.54770 0.83190 0.02900
C 	C 	0.23600 0.72000 0.24700 -0.03700
C 	C 	0.79270 0.70270 0.28390 -0.03600
C 	C 	0.64060 0.12660 0.46720 0.06000
C 	C 	0.06890 0.18990 0.18130 0.04900
C 	C 	0.08110 0.18110 0.16270 -0.11900
C 	C 	0.97200 0.85800 0.70800 -0.12000
C 	C 	0.67920 0.16220 0.85740 0.05500
C 	C 	0.74960 0.58660 0.75120 -0.13400
C 	C 	0.32900 0.97900 0.08500 0.40200
C 	C 	0.57710 0.92410 0.24970 0.42900
C 	C 	0.79450 0.73350 0.22750 0.10000
C 	C 	0.37510 0.80910 0.66270 0.07700
C 	C 	0.04270 0.41970 0.62490 0.42300
C 	C 	0.46950 0.98350 0.72150 0.39400
C 	C 	0.18700 0.07700 0.60300 -0.04300
C 	C 	0.00620 0.46720 0.52440 -0.09100
C 	C 	0.22520 0.54620 0.20440 0.39500
C 	C 	0.62570 0.18970 0.07690 -0.03900
C 	C 	0.31260 0.78660 0.70020 -0.02700
C 	C 	0.14210 0.62510 0.09370 -0.15700
C 	C 	0.05730 0.47730 0.51810 0.04300
C 	C 	0.30120 0.67920 0.85740 0.05500
C 	C 	0.68740 0.21340 0.29980 -0.02700
C 	C 	0.01760 0.60260 0.10120 0.05700
C 	C 	0.28600 0.73300 0.80700 -0.02700
C 	C 	0.25580 0.81180 0.20860 -0.03700
C 	C 	0.25060 0.35760 0.24820 0.07000
C 	C 	0.71830 0.62030 0.51910 -0.02500
C 	C 	0.44620 0.90020 0.65340 0.04700
C 	C 	0.28100 0.86900 0.17500 -0.12900
C 	C 	0.05890 0.68990 0.68230 0.07200
C 	C 	0.49240 0.95240 0.18880 0.03800
C 	C 	0.13040 0.63340 0.57580 0.09400
C 	C 	0.93110 0.81010 0.81870 0.04900
C 	C 	0.48750 0.57850 0.85950 -0.12300
C 	C 	0.17450 0.53050 0.27850 0.39400
C 	C 	0.12250 0.19950 0.03550 -0.03600
C 	C 	0.11900 0.21800 0.01900 -0.02800
C 	C 	0.25030 0.44230 0.24910 0.39600
C 	C 	0.70190 0.28190 0.17530 0.08100
C 	C 	0.11470 0.73970 0.76890 0.06800
C 	C 	0.55870 0.06170 0.83190 0.02900
C 	C 	0.88550 0.31950 0.38850 -0.03400
C 	C 	0.75930 0.33430 0.75210 0.08300
C 	C 	0.45260 0.90960 0.66720 -0.10200
C 	C 	0.82830 0.74930 0.75210 -0.01900
C 	C 	0.21340 0.79940 0.29980 -0.02700
C 	C 	0.67070 0.61270 0.59290 0.09200
C 	C 	0.99980 0.55380 0.34660 0.04700
C 	C 	0.92860 0.56160 0.44920 0.39400
C 	C 	0.36600 0.39400 0.89900 0.12600
C 	C 	0.35760 0.14360 0.24820 0.07000
C 	C 	0.60600 0.65900 0.10100 0.12600
C 	C 	0.87740 0.66740 0.40780 0.39900
C 	C 	0.04840 0.52840 0.83280 -0.09300
C 	C 	0.44410 0.96010 0.21370 0.04200
C 	C 	0.20580 0.83480 0.31960 -0.13800
C 	C 	0.28540 0.87840 0.42180 -0.02900
C 	C 	0.17100 0.89200 0.41400 0.44400
C 	C 	0.19870 0.37270 0.90590 -0.16000
C 	C 	0.60700 0.32900 0.08500 0.40200
C 	C 	0.77620 0.74920 0.75240 0.11900
C 	C 	0.46100 0.94300 0.71400 0.03800
C 	C 	0.33370 0.82670 0.64590 0.07900
C 	C 	0.89600 0.31200 0.37200 -0.03000
C 	C 	0.23240 0.61940 0.26680 0.07100
C 	C 	0.47450 0.51250 0.96150 0.03900
C 	C 	0.21160 0.05460 0.60120 -0.01900
C 	C 	0.52540 0.79440 0.56380 0.07300
C 	C 	0.88370 0.77370 0.75690 0.05300
C 	C 	0.68050 0.59350 0.61150 -0.03400
C 	C 	0.09230 0.18030 0.11110 -0.03800
C 	C 	0.74930 0.69330 0.75210 -0.04300
C 	C 	0.61680 0.14380 0.49960 0.07700
C 	C 	0.08670 0.27570 0.25390 0.05100
C 	C 	0.75660 0.23260 0.77220 -0.15500
C 	C 	0.36700 0.34000 0.89900 -0.17900
C 	C 	0.41430 0.11630 0.24310 0.05300
C 	C 	0.13140 0.24240 0.59880 0.07200
C 	C 	0.31870 0.41770 0.33690 -0.13500
C 	C 	0.88400 0.44000 0.42000 0.08500
C 	C 	0.69330 0.80530 0.75210 -0.04300
C 	C 	0.02940 0.54740 0.33280 -0.10200
C 	C 	0.18210 0.39310 0.55170 0.41300
C 	C 	0.12700 0.17900 0.05500 0.09900
C 	C 	0.13260 0.21160 0.60120 -0.01900
C 	C 	0.73300 0.17400 0.80700 -0.02700
C 	C 	0.96280 0.41880 0.65460 -0.11600
C 	C 	0.96770 0.32670 0.22090 0.39400
C 	C 	0.35220 0.91720 0.01940 0.08300
C 	C 	0.01160 0.42660 0.64020 -0.13500
C 	C 	0.04770 0.58670 0.79890 -0.10700
C 	C 	0.92010 0.27210 0.32970 0.07600
C 	C 	0.40960 0.95160 0.16720 -0.09300
C 	C 	0.58660 0.04660 0.35920 0.04700
C 	C 	0.13120 0.68920 0.57340 -0.14600
C 	C 	0.37970 0.85770 0.48090 -0.02500
C 	C 	0.90580 0.28080 0.34860 -0.13800
C 	C 	0.47310 0.96010 0.20770 -0.12500
C 	C 	0.28080 0.46480 0.34860 -0.13800
C 	C 	0.15270 0.76270 0.49690 -0.12900
C 	C 	0.80630 0.66630 0.35410 0.07900
C 	C 	0.36510 0.89110 0.03470 -0.17700
C 	C 	0.28880 0.64780 0.98060 0.08300
C 	C 	0.13780 0.65180 0.55660 -0.14900
C 	C 	0.45440 0.99140 0.68880 0.03700
C 	C 	0.72000 0.79700 0.24700 -0.03700
C 	C 	0.22890 0.58090 0.16930 0.05500
C 	C 	0.24070 0.66570 0.24790 0.08300
C 	C 	0.54260 0.41260 0.12520 0.38600
C 	C 	0.79440 0.11640 0.56380 0.07300
C 	C 	0.36610 0.89510 0.92670 -0.15000
C 	C 	0.75760 0.97260 0.40120 0.07200
C 	C 	0.62490 0.19090 0.33730 0.07700
C 	C 	0.07590 0.75090 0.75030 0.42900
C 	C 	0.17330 0.80630 0.35410 0.07900
C 	C 	0.94740 0.38140 0.93780 -0.12300
C 	C 	0.36140 0.84640 0.94380 -0.15600
C 	C 	0.86900 0.67500 0.17500 -0.12900
C 	C 	0.81180 0.72380 0.20860 -0.03700
C 	C 	0.44830 0.97630 0.01810 0.05500
C 	C 	0.25070 0.30670 0.24790 -0.04300
C 	C 	0.02560 0.44960 0.53820 0.03600
C 	C 	0.84040 0.86840 0.39580 -0.14800
C 	C 	0.74970 0.55770 0.75090 0.39600
C 	C 	0.81010 0.44010 0.81870 0.04900
C 	C 	0.48170 0.94570 0.17590 -0.10200
C 	C 	0.37270 0.52270 0.90590 -0.16000
C 	C 	0.69870 0.17470 0.84090 -0.12800
C 	C 	0.22630 0.41430 0.24310 0.05300
C 	C 	0.06160 0.42960 0.94920 0.41100
C 	C 	0.38630 0.14430 0.24310 -0.12300
C 	C 	0.44770 0.98170 0.67590 -0.10200
C 	C 	0.84090 0.70190 0.17530 0.08100
C 	C 	0.90770 0.81970 0.88890 -0.03800
C 	C 	0.22810 0.78410 0.26470 0.10100
C 	C 	0.11150 0.16950 0.09250 0.10000
C 	C 	0.51530 0.03230 0.77910 0.39400
C 	C 	0.88140 0.23240 0.26680 0.07100
C 	C 	0.04820 0.08120 0.31840 0.03700
C 	C 	0.52300 0.17100 0.41400 0.44400
C 	C 	0.01090 0.48990 0.50730 0.03600
C 	C 	0.46480 0.90580 0.34860 -0.13800
C 	C 	0.06770 0.08770 0.29890 -0.10200
C 	C 	0.21350 0.41550 0.52050 0.06800
C 	C 	0.35940 0.87340 0.53280 0.06000
C 	C 	0.38590 0.70390 0.93630 0.05700
C 	C 	0.14200 0.53800 0.29200 -0.12000
C 	C 	0.19090 0.84690 0.33730 0.07700
C 	C 	0.84470 0.15170 0.62790 0.44300
C 	C 	0.94570 0.39670 0.17590 -0.10200
C 	C 	0.75450 0.00150 0.40150 -0.12600
C 	C 	0.03420 0.22020 0.15040 -0.12200
C 	C 	0.47160 0.40960 0.16720 -0.09300
C 	C 	0.89540 0.84040 0.39580 -0.14800
C 	C 	0.05160 0.45460 0.53520 -0.12500
C 	C 	0.08040 0.45740 0.87480 0.38600
C 	C 	0.31840 0.62740 0.94880 0.45300
C 	C 	0.37570 0.84470 0.62790 0.44300
C 	C 	0.20290 0.39890 0.90530 0.06800
C 	C 	0.66900 0.20300 0.31900 0.08500
C 	C 	0.02800 0.14200 0.29200 -0.12000
C 	C 	0.77720 0.72120 0.75240 -0.18300
C 	C 	0.75850 0.36750 0.01550 -0.13300
C 	C 	0.49480 0.49680 0.97560 -0.10000
C 	C 	0.14440 0.77040 0.73380 -0.13000
C 	C 	0.49290 0.20290 0.90530 0.06800
C 	C 	0.15160 0.63860 0.05620 -0.15600
C 	C 	0.67030 0.82830 0.75210 -0.01900
C 	C 	0.53440 0.53740 0.84480 -0.08900
C 	C 	0.16810 0.37610 0.90770 0.42100
C 	C 	0.71920 0.53520 0.65140 -0.13800
C 	C 	0.54150 0.04550 0.96450 -0.14300
C 	C 	0.07450 0.48750 0.85950 -0.12300
C 	C 	0.27210 0.47810 0.32970 0.07600
C 	C 	0.81790 0.60690 0.44830 0.41300
C 	C 	0.63900 0.12700 0.05500 0.09900
C 	C 	0.56890 0.05890 0.68230 0.07200
C 	C 	0.45430 0.93230 0.70110 -0.10200
C 	C 	0.21430 0.08630 0.07810 -0.02300
C 	C 	0.36060 0.87560 0.40620 -0.14500
C 	C 	0.24720 0.60720 0.24940 -0.15700
C 	C 	0.71370 0.53870 0.68590 -0.16600
C 	C 	0.38060 0.11860 0.73320 0.07100
C 	C 	0.18110 0.76110 0.75270 -0.02700
C 	C 	0.36540 0.44540 0.90080 -0.02200
C 	C 	0.74420 0.18820 0.79140 -0.03700
C 	C 	0.80370 0.40770 0.85290 0.07400
C 	C 	0.99850 0.15750 0.59850 -0.12600
C 	C 	0.60350 0.53250 0.09650 -0.13800
C 	C 	0.64240 0.63940 0.59380 -0.14500
C 	C 	0.95680 0.39280 0.90060 -0.12100
C 	C 	0.81280 0.20580 0.66360 -0.14000
C 	C 	0.47810 0.92010 0.32970 0.07600
C 	C 	0.06430 0.19630 0.14710 0.07400
C 	C 	0.89690 0.73190 0.40330 -0.11700
C 	C 	0.11870 0.34070 0.84090 0.06100
C 	C 	0.55460 0.71160 0.09920 -0.02200
C 	C 	0.33430 0.15430 0.75210 0.08300
C 	C 	0.62510 0.13910 0.09370 -0.15700
C 	C 	0.63390 0.10490 0.07330 -0.15000
C 	C 	0.39340 0.69840 0.91680 -0.14600
C 	C 	0.65210 0.08610 0.99770 -0.14000
O 	O 	0.53210 0.94010 0.75570 -0.51800
O 	O 	0.40790 0.58690 0.95130 -0.52100
O 	O 	0.81840 0.62840 0.43180 -0.52900
O 	O 	0.61690 0.07190 0.87330 -0.49500
O 	O 	0.34280 0.90180 0.12760 -0.52800
O 	O 	0.84460 0.12660 0.62820 -0.55900
O 	O 	0.88630 0.59440 0.41140 -0.92000
O 	O 	0.06530 0.76330 0.73410 -0.54100
O 	O 	0.66500 0.36000 0.11200 -0.53900
O 	O 	0.04940 0.74540 0.70780 -0.56900
O 	O 	0.18160 0.37160 0.56820 -0.52900
O 	O 	0.39120 0.90660 0.08870 -0.98600
O 	O 	0.16410 0.35310 0.90770 -0.53100
O 	O 	0.88420 0.06120 0.62640 -0.51700
O 	O 	0.02060 0.68160 0.76320 -0.50500
O 	O 	0.90390 0.64490 0.40930 -0.53300
O 	O 	0.25460 0.50260 0.29220 -0.56900
O 	O 	0.12660 0.40060 0.62820 -0.55900
O 	O 	0.46610 0.01110 0.71670 -0.53200
O 	O 	0.45060 0.00360 0.79320 -0.51000
O 	O 	0.60880 0.09340 0.91130 -0.98600
O 	O 	0.62840 0.12140 0.43180 -0.52900
O 	O 	0.37820 0.87320 0.06740 -0.54000
O 	O 	0.97060 0.28860 0.28020 -0.57800
O 	O 	0.13700 0.33500 0.88800 -0.53900
O 	O 	0.86300 0.66500 0.11200 -0.53900
O 	O 	0.15540 0.87340 0.37180 -0.55900
O 	O 	0.65150 0.03050 0.93150 -0.51900
O 	O 	0.25040 0.50910 0.25030 -1.01500
O 	O 	0.48010 0.96410 0.73770 -0.50300
O 	O 	0.38310 0.92810 0.12670 -0.49500
O 	O 	0.81810 0.48010 0.73770 -0.50300
O 	O 	0.50260 0.95060 0.29220 -0.56900
O 	O 	0.36000 0.86300 0.11200 -0.53900
O 	O 	0.33510 0.96210 0.10270 -0.53100
O 	O 	0.00980 0.74960 0.74970 -1.01500
O 	O 	0.64490 0.04190 0.40930 -0.53300
O 	O 	0.03790 0.39990 0.89730 -0.53100
O 	O 	0.59940 0.15540 0.37180 -0.55900
O 	O 	0.45020 0.91820 0.06640 -0.51400
O 	O 	0.51990 0.03590 0.26230 -0.50300
O 	O 	0.41310 0.94610 0.04870 -0.52100
O 	O 	0.93340 0.04940 0.61080 -0.53300
O 	O 	0.46790 0.05990 0.24430 -0.51800
O 	O 	0.11480 0.46880 0.56860 -0.54000
O 	O 	0.61350 0.39120 0.08870 -0.98600
O 	O 	0.90630 0.54930 0.11110 -0.51400
O 	O 	0.43730 0.06530 0.73410 -0.54100
O 	O 	0.96430 0.30730 0.21610 -0.51200
O 	O 	0.61350 0.34850 0.06850 -0.51900
O 	O 	0.59740 0.45640 0.09080 -0.53800
O 	O 	0.96830 0.72630 0.74610 -0.51300
O 	O 	0.54940 0.99640 0.20680 -0.51000
O 	O 	0.43480 0.54980 0.93360 -0.51400
O 	O 	0.04970 0.93370 0.43390 -0.52300
O 	O 	0.75260 0.45060 0.79320 -0.51000
O 	O 	0.21250 0.52950 0.21850 -0.51000
O 	O 	0.40560 0.89210 0.58860 -0.92000
O 	O 	0.64000 0.13700 0.88800 -0.53900
O 	O 	0.56660 0.93760 0.23320 -0.55600
O 	O 	0.31880 0.62180 0.93260 -0.54000
O 	O 	0.16360 0.36160 0.61320 -0.54900
O 	O 	0.90680 0.55380 0.45160 -0.52600
O 	O 	0.41730 0.95030 0.56610 -0.52300
O 	O 	0.38650 0.65150 0.93150 -0.51900
O 	O 	0.04940 0.40640 0.61080 -0.53300
O 	O 	0.37440 0.91940 0.04880 -0.55300
O 	O 	0.03050 0.38650 0.93150 -0.51900
O 	O 	0.78750 0.47050 0.78150 -0.51000
O 	O 	0.43340 0.06240 0.76680 -0.55600
O 	O 	0.46880 0.84780 0.56860 -0.54000
O 	O 	0.90660 0.61350 0.08870 -0.98600
O 	O 	0.03950 0.21250 0.21850 -0.51000
O 	O 	0.24740 0.54940 0.20680 -0.51000
O 	O 	0.37220 0.65720 0.87240 -0.52800
O 	O 	0.58100 0.12600 0.45100 -0.54700
O 	O 	0.10140 0.46140 0.60280 -0.56300
O 	O 	0.93370 0.58270 0.43390 -0.52300
O 	O 	0.09340 0.38650 0.91130 -0.98600
O 	O 	0.40640 0.93340 0.61080 -0.53300
O 	O 	0.62560 0.08060 0.95120 -0.55300
O 	O 	0.15220 0.88520 0.43140 -0.54000
O 	O 	0.58270 0.04970 0.43390 -0.52300
O 	O 	0.06120 0.42820 0.62640 -0.51700
O 	O 	0.96050 0.78750 0.78150 -0.51000
O 	O 	0.96950 0.61350 0.06850 -0.51900
O 	O 	0.05390 0.40790 0.95130 -0.52100
O 	O 	0.39990 0.66490 0.89730 -0.53100
O 	O 	0.55930 0.96830 0.74610 -0.51300
O 	O 	0.49090 0.00980 0.74970 -1.01500
O 	O 	0.80610 0.46610 0.71670 -0.53200
O 	O 	0.95030 0.06630 0.56610 -0.52300
O 	O 	0.56270 0.93470 0.26590 -0.54100
O 	O 	0.08780 0.90680 0.45160 -0.52600
O 	O 	0.56670 0.09370 0.88890 -0.51400
O 	O 	0.74960 0.49090 0.74970 -1.01500
O 	O 	0.56520 0.45020 0.06640 -0.51400
O 	O 	0.88520 0.53120 0.43140 -0.54000
O 	O 	0.46060 0.97060 0.28020 -0.57800
O 	O 	0.40060 0.84460 0.62820 -0.55900
O 	O 	0.18190 0.51990 0.26230 -0.50300
O 	O 	0.53120 0.15220 0.43140 -0.54000
O 	O 	0.59440 0.10790 0.41140 -0.92000
O 	O 	0.92560 0.14660 0.59220 -0.52800
O 	O 	0.95060 0.25460 0.29220 -0.56900
O 	O 	0.45640 0.85540 0.09080 -0.53800
O 	O 	0.00360 0.75260 0.79320 -0.51000
O 	O 	0.89860 0.53860 0.39720 -0.56300
O 	O 	0.48770 0.03570 0.78390 -0.51200
O 	O 	0.01110 0.80610 0.71670 -0.53200
O 	O 	0.10790 0.88630 0.41140 -0.92000
O 	O 	0.91820 0.56520 0.06640 -0.51400
O 	O 	0.69270 0.48770 0.78390 -0.51200
O 	O 	0.03570 0.69270 0.78390 -0.51200
O 	O 	0.87860 0.18160 0.56820 -0.52900
O 	O 	0.59360 0.06660 0.38920 -0.53300
O 	O 	0.84780 0.11480 0.56860 -0.54000
O 	O 	0.87340 0.59940 0.37180 -0.55900
O 	O 	0.06660 0.95060 0.38920 -0.53300
O 	O 	0.46540 0.97940 0.23680 -0.50500
O 	O 	0.89210 0.11370 0.58860 -0.92000
O 	O 	0.27370 0.44070 0.25390 -0.51300
O 	O 	0.68120 0.37820 0.06740 -0.54000
O 	O 	0.11580 0.93880 0.37360 -0.51700
O 	O 	0.42490 0.83590 0.09230 -0.53100
O 	O 	0.43790 0.61690 0.87330 -0.49500
O 	O 	0.09610 0.35510 0.59070 -0.53300
O 	O 	0.14460 0.40260 0.90920 -0.53800
O 	O 	0.36160 0.86160 0.61320 -0.54900
O 	O 	0.15800 0.41900 0.54900 -0.54700
O 	O 	0.90180 0.62780 0.12760 -0.52800
O 	O 	0.08180 0.43480 0.93360 -0.51400
O 	O 	0.09820 0.37220 0.87240 -0.52800
O 	O 	0.59210 0.41310 0.04870 -0.52100
O 	O 	0.68160 0.53460 0.76320 -0.50500
O 	O 	0.34260 0.62560 0.95120 -0.55300
O 	O 	0.46140 0.83440 0.60280 -0.56300
O 	O 	0.65740 0.37440 0.04880 -0.55300
O 	O 	0.12680 0.31880 0.93260 -0.54000
O 	O 	0.53390 0.98890 0.28330 -0.53200
O 	O 	0.06630 0.41730 0.56610 -0.52300
O 	O 	0.40260 0.54360 0.90920 -0.53800
O 	O 	0.51230 0.96430 0.21610 -0.51200
O 	O 	0.62780 0.34280 0.12760 -0.52800
O 	O 	0.37160 0.87860 0.56820 -0.52900
O 	O 	0.30730 0.51230 0.21610 -0.51200
O 	O 	0.74540 0.49740 0.70780 -0.56900
O 	O 	0.07440 0.85340 0.40780 -0.52800
O 	O 	0.71140 0.53940 0.71980 -0.57800
O 	O 	0.57180 0.11580 0.37360 -0.51700
O 	O 	0.07190 0.43790 0.87330 -0.49500
O 	O 	0.38650 0.60880 0.91130 -0.98600
O 	O 	0.73740 0.43340 0.76680 -0.55600
O 	O 	0.35510 0.95810 0.59070 -0.53300
O 	O 	0.93880 0.57180 0.37360 -0.51700
O 	O 	0.28860 0.46060 0.28020 -0.57800
O 	O 	0.14660 0.33560 0.59220 -0.52800
O 	O 	0.13840 0.83640 0.38680 -0.54900
O 	O 	0.62180 0.12680 0.93260 -0.54000
O 	O 	0.12600 0.84200 0.45100 -0.54700
O 	O 	0.66490 0.03790 0.89730 -0.53100
O 	O 	0.86160 0.16360 0.61320 -0.54900
O 	O 	0.43330 0.90630 0.11110 -0.51400
O 	O 	0.54360 0.14460 0.90920 -0.53800
O 	O 	0.96410 0.81810 0.73770 -0.50300
O 	O 	0.87320 0.68120 0.06740 -0.54000
O 	O 	0.33560 0.92560 0.59220 -0.52800
O 	O 	0.53860 0.16560 0.39720 -0.56300
O 	O 	0.35310 0.57510 0.90770 -0.53100
O 	O 	0.58690 0.05390 0.95130 -0.52100
O 	O 	0.63840 0.13840 0.38680 -0.54900
O 	O 	0.96210 0.60010 0.10270 -0.53100
O 	O 	0.98890 0.19390 0.28330 -0.53200
O 	O 	0.03590 0.18190 0.26230 -0.50300
O 	O 	0.03170 0.27370 0.25390 -0.51300
O 	O 	0.11370 0.40560 0.58860 -0.92000
O 	O 	0.47050 0.96050 0.78150 -0.51000
O 	O 	0.95060 0.59360 0.38920 -0.53300
O 	O 	0.31840 0.46540 0.23680 -0.50500
O 	O 	0.95810 0.09610 0.59070 -0.53300
O 	O 	0.60010 0.33510 0.10270 -0.53100
O 	O 	0.12140 0.81840 0.43180 -0.52900
O 	O 	0.04190 0.90390 0.40930 -0.53300
O 	O 	0.22790 0.46790 0.24430 -0.51800
O 	O 	0.33500 0.64000 0.88800 -0.53900
O 	O 	0.02940 0.71140 0.71980 -0.57800
O 	O 	0.45070 0.56670 0.88890 -0.51400
O 	O 	0.65720 0.09820 0.87240 -0.52800
O 	O 	0.49740 0.04940 0.70780 -0.56900
O 	O 	0.94610 0.59210 0.04870 -0.52100
O 	O 	0.44070 0.03170 0.25390 -0.51300
O 	O 	0.83590 0.64690 0.09230 -0.53100
O 	O 	0.99020 0.25040 0.25030 -1.01500
O 	O 	0.09370 0.45070 0.88890 -0.51400
O 	O 	0.97940 0.31840 0.23680 -0.50500
O 	O 	0.94010 0.77210 0.75570 -0.51800
O 	O 	0.56210 0.38310 0.12670 -0.49500
O 	O 	0.93760 0.26260 0.23320 -0.55600
O 	O 	0.87400 0.15800 0.54900 -0.54700
O 	O 	0.92810 0.56210 0.12670 -0.49500
O 	O 	0.41900 0.87400 0.54900 -0.54700
O 	O 	0.23670 0.56270 0.26590 -0.54100
O 	O 	0.42820 0.88420 0.62640 -0.51700
O 	O 	0.91220 0.09320 0.54840 -0.52600
O 	O 	0.85540 0.59740 0.09080 -0.53800
O 	O 	0.55380 0.08780 0.45160 -0.52600
O 	O 	0.26260 0.56660 0.23320 -0.55600
O 	O 	0.54930 0.43330 0.11110 -0.51400
O 	O 	0.05990 0.22790 0.24430 -0.51800
O 	O 	0.50910 0.99020 0.25030 -1.01500
O 	O 	0.34850 0.96950 0.06850 -0.51900
O 	O 	0.53460 0.02060 0.76320 -0.50500
O 	O 	0.09320 0.44620 0.54840 -0.52600
O 	O 	0.06240 0.73740 0.76680 -0.55600
O 	O 	0.52950 0.03950 0.21850 -0.51000
O 	O 	0.91940 0.65740 0.04880 -0.55300
O 	O 	0.54980 0.08180 0.93360 -0.51400
O 	O 	0.64690 0.42490 0.09230 -0.53100
O 	O 	0.16560 0.89860 0.39720 -0.56300
O 	O 	0.83640 0.63840 0.38680 -0.54900
O 	O 	0.66440 0.07440 0.40780 -0.52800
O 	O 	0.99640 0.24740 0.20680 -0.51000
O 	O 	0.93470 0.23670 0.26590 -0.54100
O 	O 	0.72630 0.55930 0.74610 -0.51300
O 	O 	0.08060 0.34260 0.95120 -0.55300
O 	O 	0.19390 0.53390 0.28330 -0.53200
O 	O 	0.76330 0.43730 0.73410 -0.54100
O 	O 	0.84200 0.58100 0.45100 -0.54700
O 	O 	0.53940 0.02940 0.71980 -0.57800
O 	O 	0.83440 0.10140 0.60280 -0.56300
O 	O 	0.77210 0.53210 0.75570 -0.51800
O 	O 	0.85340 0.66440 0.40780 -0.52800
O 	O 	0.57510 0.16410 0.90770 -0.53100
O 	O 	0.44620 0.91220 0.54840 -0.52600
