data_crystal

_cell_length_a 32.11800
_cell_length_b 15.21330
_cell_length_c 13.17890
_cell_angle_alpha 90.00000
_cell_angle_beta  95.25600
_cell_angle_gamma 90.00000

_symmetry_space_group_name_	'P 1'
_symmetry_space_group_name_H-M	'P 1'

loop_
_symmetry_equiv_pos_as_xyz
  x,y,z

loop_
_atom_site_label
_atom_site_type_symbol
_atom_site_fract_x
_atom_site_fract_y
_atom_site_fract_z
_atom_site_charge
La	La	0.81188 0.79352 0.52861 1.60500
O 	O 	0.86373 0.67320 0.49720 -0.36400
O 	O 	0.88440 0.80720 0.45830 -0.37900
O 	O 	0.23031 0.34010 0.44660 -0.48200
O 	O 	0.28446 0.42080 0.41720 -0.41000
O 	O 	0.20612 0.72990 0.14450 -0.41100
O 	O 	0.26574 0.65480 0.15850 -0.45600
C 	C 	0.92969 0.68610 0.43200 -0.10300
C 	C 	0.93408 0.59520 0.43100 0.05800
C 	C 	0.97103 0.55774 0.40440 0.00200
C 	C 	0.00360 0.61115 0.37893 0.00200
C 	C 	0.99922 0.70204 0.38000 -0.01900
C 	C 	0.96227 0.73951 0.40650 0.04100
C 	C 	0.04197 0.57402 0.35333 0.04600
C 	C 	0.08243 0.60948 0.34530 0.03800
N 	N 	0.10951 0.53920 0.32470 -0.08600
N 	N 	0.08578 0.46033 0.31990 -0.04900
N 	N 	0.04403 0.48184 0.33760 -0.07100
C 	C 	0.15005 0.53870 0.31440 0.02600
C 	C 	0.17532 0.47500 0.36420 0.04700
C 	C 	0.21804 0.47420 0.35430 -0.16000
C 	C 	0.23549 0.53720 0.29460 0.10300
C 	C 	0.21022 0.60090 0.24480 -0.15400
C 	C 	0.16750 0.60170 0.25470 0.05600
C 	C 	0.89050 0.72540 0.46450 0.31300
C 	C 	0.24600 0.40720 0.40820 0.39200
C 	C 	0.22910 0.66720 0.17720 0.41700
La	La	0.31188 0.29352 0.52861 1.60400
O 	O 	0.36373 0.17320 0.49720 -0.36500
O 	O 	0.38440 0.30720 0.45830 -0.37900
O 	O 	0.73031 0.84010 0.44660 -0.48300
O 	O 	0.78446 0.92080 0.41720 -0.41000
O 	O 	0.70612 0.22990 0.14450 -0.41100
O 	O 	0.76574 0.15480 0.15850 -0.45600
C 	C 	0.42969 0.18610 0.43200 -0.10300
C 	C 	0.43408 0.09520 0.43100 0.05800
C 	C 	0.47103 0.05774 0.40440 0.00200
C 	C 	0.50360 0.11115 0.37893 0.00200
C 	C 	0.49922 0.20204 0.38000 -0.01900
C 	C 	0.46227 0.23951 0.40650 0.04100
C 	C 	0.54197 0.07402 0.35333 0.04500
C 	C 	0.58243 0.10948 0.34530 0.03800
N 	N 	0.60951 0.03920 0.32470 -0.08600
N 	N 	0.58578 0.96033 0.31990 -0.04900
N 	N 	0.54403 0.98184 0.33760 -0.07100
C 	C 	0.65005 0.03870 0.31440 0.02500
C 	C 	0.67532 0.97500 0.36420 0.04800
C 	C 	0.71804 0.97420 0.35430 -0.15900
C 	C 	0.73549 0.03720 0.29460 0.10200
C 	C 	0.71022 0.10090 0.24480 -0.15400
C 	C 	0.66750 0.10170 0.25470 0.05600
C 	C 	0.39050 0.22540 0.46450 0.31300
C 	C 	0.74600 0.90720 0.40820 0.39200
C 	C 	0.72910 0.16720 0.17720 0.41700
La	La	0.18812 0.79352 0.97139 1.60300
O 	O 	0.13627 0.67320 0.00280 -0.36400
O 	O 	0.11560 0.80720 0.04170 -0.37900
O 	O 	0.76969 0.34010 0.05340 -0.48300
O 	O 	0.71554 0.42080 0.08280 -0.41000
O 	O 	0.79388 0.72990 0.35550 -0.41100
O 	O 	0.73426 0.65480 0.34150 -0.45600
C 	C 	0.07031 0.68610 0.06800 -0.10300
C 	C 	0.06592 0.59520 0.06900 0.05800
C 	C 	0.02897 0.55774 0.09560 0.00300
C 	C 	0.99640 0.61115 0.12107 0.00100
C 	C 	0.00078 0.70204 0.12000 -0.01800
C 	C 	0.03773 0.73951 0.09350 0.04100
C 	C 	0.95803 0.57402 0.14667 0.04600
C 	C 	0.91757 0.60948 0.15470 0.03800
N 	N 	0.89049 0.53920 0.17530 -0.08600
N 	N 	0.91422 0.46033 0.18010 -0.04900
N 	N 	0.95597 0.48184 0.16240 -0.07100
C 	C 	0.84995 0.53870 0.18560 0.02600
C 	C 	0.82468 0.47500 0.13580 0.04700
C 	C 	0.78196 0.47420 0.14570 -0.16000
C 	C 	0.76451 0.53720 0.20540 0.10300
C 	C 	0.78978 0.60090 0.25520 -0.15400
C 	C 	0.83250 0.60170 0.24530 0.05600
C 	C 	0.10950 0.72540 0.03550 0.31300
C 	C 	0.75400 0.40720 0.09180 0.39200
C 	C 	0.77090 0.66720 0.32280 0.41700
La	La	0.68812 0.29352 0.97139 1.60600
O 	O 	0.63627 0.17320 0.00280 -0.36600
O 	O 	0.61560 0.30720 0.04170 -0.38000
O 	O 	0.26969 0.84010 0.05340 -0.48200
O 	O 	0.21554 0.92080 0.08280 -0.40900
O 	O 	0.29388 0.22990 0.35550 -0.41100
O 	O 	0.23426 0.15480 0.34150 -0.45600
C 	C 	0.57031 0.18610 0.06800 -0.10300
C 	C 	0.56592 0.09520 0.06900 0.05800
C 	C 	0.52897 0.05774 0.09560 0.00200
C 	C 	0.49640 0.11115 0.12107 0.00200
C 	C 	0.50078 0.20204 0.12000 -0.01900
C 	C 	0.53773 0.23951 0.09350 0.04100
C 	C 	0.45803 0.07402 0.14667 0.04500
C 	C 	0.41757 0.10948 0.15470 0.03800
N 	N 	0.39049 0.03920 0.17530 -0.08600
N 	N 	0.41422 0.96033 0.18010 -0.04800
N 	N 	0.45597 0.98184 0.16240 -0.07000
C 	C 	0.34995 0.03870 0.18560 0.02400
C 	C 	0.32468 0.97500 0.13580 0.04900
C 	C 	0.28196 0.97420 0.14570 -0.15900
C 	C 	0.26451 0.03720 0.20540 0.10200
C 	C 	0.28978 0.10090 0.25520 -0.15400
C 	C 	0.33250 0.10170 0.24530 0.05600
C 	C 	0.60950 0.22540 0.03550 0.31300
C 	C 	0.25400 0.90720 0.09180 0.39200
C 	C 	0.27090 0.16720 0.32280 0.41700
La	La	0.18812 0.20648 0.47139 1.60400
O 	O 	0.13627 0.32680 0.50280 -0.36500
O 	O 	0.11560 0.19280 0.54170 -0.38000
O 	O 	0.76969 0.65990 0.55340 -0.48300
O 	O 	0.71554 0.57920 0.58280 -0.41000
O 	O 	0.79388 0.27010 0.85550 -0.41100
O 	O 	0.73426 0.34520 0.84150 -0.45600
C 	C 	0.07031 0.31390 0.56800 -0.10300
C 	C 	0.06592 0.40480 0.56900 0.05800
C 	C 	0.02897 0.44226 0.59560 0.00200
C 	C 	0.99640 0.38885 0.62107 0.00200
C 	C 	0.00078 0.29796 0.62000 -0.01900
C 	C 	0.03773 0.26049 0.59350 0.04100
C 	C 	0.95803 0.42598 0.64667 0.04600
C 	C 	0.91757 0.39052 0.65470 0.03800
N 	N 	0.89049 0.46080 0.67530 -0.08600
N 	N 	0.91422 0.53967 0.68010 -0.04900
N 	N 	0.95597 0.51816 0.66240 -0.07100
C 	C 	0.84995 0.46130 0.68560 0.02600
C 	C 	0.82468 0.52500 0.63580 0.04700
C 	C 	0.78196 0.52580 0.64570 -0.16000
C 	C 	0.76451 0.46280 0.70540 0.10300
C 	C 	0.78978 0.39910 0.75520 -0.15400
C 	C 	0.83250 0.39830 0.74530 0.05600
C 	C 	0.10950 0.27460 0.53550 0.31300
C 	C 	0.75400 0.59280 0.59180 0.39200
C 	C 	0.77090 0.33280 0.82280 0.41700
La	La	0.68812 0.70648 0.47139 1.60400
O 	O 	0.63627 0.82680 0.50280 -0.36500
O 	O 	0.61560 0.69280 0.54170 -0.37900
O 	O 	0.26969 0.15990 0.55340 -0.48300
O 	O 	0.21554 0.07920 0.58280 -0.41000
O 	O 	0.29388 0.77010 0.85550 -0.41100
O 	O 	0.23426 0.84520 0.84150 -0.45600
C 	C 	0.57031 0.81390 0.56800 -0.10300
C 	C 	0.56592 0.90480 0.56900 0.05800
C 	C 	0.52897 0.94226 0.59560 0.00200
C 	C 	0.49640 0.88885 0.62107 0.00200
C 	C 	0.50078 0.79796 0.62000 -0.01900
C 	C 	0.53773 0.76049 0.59350 0.04100
C 	C 	0.45803 0.92598 0.64667 0.04500
C 	C 	0.41757 0.89052 0.65470 0.03800
N 	N 	0.39049 0.96080 0.67530 -0.08600
N 	N 	0.41422 0.03967 0.68010 -0.04900
N 	N 	0.45597 0.01816 0.66240 -0.07100
C 	C 	0.34995 0.96130 0.68560 0.02500
C 	C 	0.32468 0.02500 0.63580 0.04800
C 	C 	0.28196 0.02580 0.64570 -0.15900
C 	C 	0.26451 0.96280 0.70540 0.10200
C 	C 	0.28978 0.89910 0.75520 -0.15400
C 	C 	0.33250 0.89830 0.74530 0.05600
C 	C 	0.60950 0.77460 0.53550 0.31300
C 	C 	0.25400 0.09280 0.59180 0.39200
C 	C 	0.27090 0.83280 0.82280 0.41700
La	La	0.81188 0.20648 0.02861 1.60300
O 	O 	0.86373 0.32680 0.99720 -0.36400
O 	O 	0.88440 0.19280 0.95830 -0.37900
O 	O 	0.23031 0.65990 0.94660 -0.48300
O 	O 	0.28446 0.57920 0.91720 -0.41000
O 	O 	0.20612 0.27010 0.64450 -0.41100
O 	O 	0.26574 0.34520 0.65850 -0.45600
C 	C 	0.92969 0.31390 0.93200 -0.10300
C 	C 	0.93408 0.40480 0.93100 0.05800
C 	C 	0.97103 0.44226 0.90440 0.00300
C 	C 	0.00360 0.38885 0.87893 0.00100
C 	C 	0.99922 0.29796 0.88000 -0.01800
C 	C 	0.96227 0.26049 0.90650 0.04100
C 	C 	0.04197 0.42598 0.85333 0.04600
C 	C 	0.08243 0.39052 0.84530 0.03800
N 	N 	0.10951 0.46080 0.82470 -0.08600
N 	N 	0.08578 0.53967 0.81990 -0.04900
N 	N 	0.04403 0.51816 0.83760 -0.07100
C 	C 	0.15005 0.46130 0.81440 0.02600
C 	C 	0.17532 0.52500 0.86420 0.04700
C 	C 	0.21804 0.52580 0.85430 -0.16000
C 	C 	0.23549 0.46280 0.79460 0.10300
C 	C 	0.21022 0.39910 0.74480 -0.15400
C 	C 	0.16750 0.39830 0.75470 0.05600
C 	C 	0.89050 0.27460 0.96450 0.31300
C 	C 	0.24600 0.59280 0.90820 0.39200
C 	C 	0.22910 0.33280 0.67720 0.41700
La	La	0.31188 0.70648 0.02861 1.60600
O 	O 	0.36373 0.82680 0.99720 -0.36600
O 	O 	0.38440 0.69280 0.95830 -0.38000
O 	O 	0.73031 0.15990 0.94660 -0.48200
O 	O 	0.78446 0.07920 0.91720 -0.40900
O 	O 	0.70612 0.77010 0.64450 -0.41100
O 	O 	0.76574 0.84520 0.65850 -0.45600
C 	C 	0.42969 0.81390 0.93200 -0.10300
C 	C 	0.43408 0.90480 0.93100 0.05800
C 	C 	0.47103 0.94226 0.90440 0.00200
C 	C 	0.50360 0.88885 0.87893 0.00200
C 	C 	0.49922 0.79796 0.88000 -0.01900
C 	C 	0.46227 0.76049 0.90650 0.04100
C 	C 	0.54197 0.92598 0.85333 0.04500
C 	C 	0.58243 0.89052 0.84530 0.03800
N 	N 	0.60951 0.96080 0.82470 -0.08600
N 	N 	0.58578 0.03967 0.81990 -0.04800
N 	N 	0.54403 0.01816 0.83760 -0.07000
C 	C 	0.65005 0.96130 0.81440 0.02400
C 	C 	0.67532 0.02500 0.86420 0.04900
C 	C 	0.71804 0.02580 0.85430 -0.15900
C 	C 	0.73549 0.96280 0.79460 0.10200
C 	C 	0.71022 0.89910 0.74480 -0.15400
C 	C 	0.66750 0.89830 0.75470 0.05600
C 	C 	0.39050 0.77460 0.96450 0.31300
C 	C 	0.74600 0.09280 0.90820 0.39200
C 	C 	0.72910 0.83280 0.67720 0.41700
