data_crystal

_cell_length_a 31.64910
_cell_length_b 14.91430
_cell_length_c 13.26560
_cell_angle_alpha 90.00000
_cell_angle_beta  96.46600
_cell_angle_gamma 90.00000

_symmetry_space_group_name_	'P 1'
_symmetry_space_group_name_H-M	'P 1'

loop_
_symmetry_equiv_pos_as_xyz
  x,y,z

loop_
_atom_site_label
_atom_site_type_symbol
_atom_site_fract_x
_atom_site_fract_y
_atom_site_fract_z
_atom_site_charge
Tb	Tb	0.18948 0.20545 0.46936 1.75500
O 	O 	0.12167 0.18830 0.54480 -0.42000
O 	O 	0.13583 0.31710 0.48580 -0.41500
O 	O 	0.79555 0.27610 0.87120 -0.45600
O 	O 	0.73482 0.35490 0.85690 -0.50500
O 	O 	0.77052 0.66720 0.56020 -0.55100
O 	O 	0.71508 0.58540 0.58300 -0.45200
C 	C 	0.85011 0.45872 0.68881 0.00400
C 	C 	0.82475 0.52474 0.63894 0.06300
C 	C 	0.78176 0.52940 0.65123 -0.17900
C 	C 	0.76414 0.46803 0.71339 0.11500
C 	C 	0.78951 0.40201 0.76326 -0.17700
C 	C 	0.83249 0.39735 0.75097 0.06900
C 	C 	0.99739 0.38153 0.61882 0.00100
C 	C 	0.00246 0.28895 0.62054 -0.02100
C 	C 	0.03979 0.25103 0.59405 0.04200
C 	C 	0.07204 0.30570 0.56584 -0.11100
C 	C 	0.06695 0.39828 0.56413 0.05900
C 	C 	0.02964 0.43619 0.59061 0.00100
N 	N 	0.89466 0.45642 0.67705 -0.08200
N 	N 	0.91741 0.53331 0.68134 -0.04300
N 	N 	0.95549 0.51186 0.66253 -0.07200
C 	C 	0.95794 0.42264 0.64489 0.05100
C 	C 	0.91844 0.38390 0.65767 0.03700
C 	C 	0.75439 0.60020 0.59490 0.45300
C 	C 	0.77199 0.33958 0.83716 0.47000
C 	C 	0.11212 0.26660 0.53090 0.36400
Tb	Tb	0.68948 0.70545 0.46936 1.75600
O 	O 	0.62167 0.68830 0.54480 -0.42000
O 	O 	0.63583 0.81710 0.48580 -0.41500
O 	O 	0.29555 0.77610 0.87120 -0.45700
O 	O 	0.23482 0.85490 0.85690 -0.50600
O 	O 	0.27052 0.16720 0.56020 -0.55100
O 	O 	0.21508 0.08540 0.58300 -0.45100
C 	C 	0.35011 0.95872 0.68881 0.00300
C 	C 	0.32475 0.02474 0.63894 0.06300
C 	C 	0.28176 0.02940 0.65123 -0.17800
C 	C 	0.26414 0.96803 0.71339 0.11300
C 	C 	0.28951 0.90201 0.76326 -0.17700
C 	C 	0.33249 0.89735 0.75097 0.06900
C 	C 	0.49739 0.88153 0.61882 0.00100
C 	C 	0.50246 0.78895 0.62054 -0.02100
C 	C 	0.53979 0.75103 0.59405 0.04200
C 	C 	0.57204 0.80570 0.56584 -0.11100
C 	C 	0.56695 0.89828 0.56413 0.05900
C 	C 	0.52964 0.93619 0.59061 0.00000
N 	N 	0.39466 0.95642 0.67705 -0.08200
N 	N 	0.41741 0.03331 0.68134 -0.04300
N 	N 	0.45549 0.01186 0.66253 -0.07100
C 	C 	0.45794 0.92264 0.64489 0.05000
C 	C 	0.41844 0.88390 0.65767 0.03800
C 	C 	0.25439 0.10020 0.59490 0.45300
C 	C 	0.27199 0.83958 0.83716 0.47000
C 	C 	0.61212 0.76660 0.53090 0.36400
Tb	Tb	0.81052 0.20545 0.03064 1.75200
O 	O 	0.87833 0.18830 0.95520 -0.42000
O 	O 	0.86417 0.31710 0.01420 -0.41500
O 	O 	0.20445 0.27610 0.62880 -0.45600
O 	O 	0.26518 0.35490 0.64310 -0.50500
O 	O 	0.22948 0.66720 0.93980 -0.55100
O 	O 	0.28492 0.58540 0.91700 -0.45200
C 	C 	0.14989 0.45872 0.81119 0.00400
C 	C 	0.17525 0.52474 0.86106 0.06300
C 	C 	0.21824 0.52940 0.84877 -0.17900
C 	C 	0.23586 0.46803 0.78661 0.11500
C 	C 	0.21049 0.40201 0.73674 -0.17700
C 	C 	0.16751 0.39735 0.74903 0.06900
C 	C 	0.00261 0.38153 0.88118 0.00000
C 	C 	0.99754 0.28895 0.87946 -0.02000
C 	C 	0.96021 0.25103 0.90595 0.04200
C 	C 	0.92796 0.30570 0.93416 -0.11100
C 	C 	0.93305 0.39828 0.93587 0.05900
C 	C 	0.97036 0.43619 0.90939 0.00100
N 	N 	0.10534 0.45642 0.82295 -0.08200
N 	N 	0.08259 0.53331 0.81866 -0.04300
N 	N 	0.04451 0.51186 0.83747 -0.07200
C 	C 	0.04206 0.42264 0.85511 0.05100
C 	C 	0.08156 0.38390 0.84233 0.03800
C 	C 	0.24561 0.60020 0.90510 0.45300
C 	C 	0.22801 0.33958 0.66284 0.47000
C 	C 	0.88788 0.26660 0.96910 0.36500
Tb	Tb	0.31052 0.70545 0.03064 1.75800
O 	O 	0.37833 0.68830 0.95520 -0.42000
O 	O 	0.36417 0.81710 0.01420 -0.41300
O 	O 	0.70445 0.77610 0.62880 -0.45600
O 	O 	0.76518 0.85490 0.64310 -0.50600
O 	O 	0.72948 0.16720 0.93980 -0.55000
O 	O 	0.78492 0.08540 0.91700 -0.45000
C 	C 	0.64989 0.95872 0.81119 0.00200
C 	C 	0.67525 0.02474 0.86106 0.06400
C 	C 	0.71824 0.02940 0.84877 -0.17700
C 	C 	0.73586 0.96803 0.78661 0.11200
C 	C 	0.71049 0.90201 0.73674 -0.17700
C 	C 	0.66751 0.89735 0.74903 0.06900
C 	C 	0.50261 0.88153 0.88118 0.00100
C 	C 	0.49754 0.78895 0.87946 -0.02100
C 	C 	0.46021 0.75103 0.90595 0.04200
C 	C 	0.42796 0.80570 0.93416 -0.11000
C 	C 	0.43305 0.89828 0.93587 0.05800
C 	C 	0.47036 0.93619 0.90939 0.00000
N 	N 	0.60534 0.95642 0.82295 -0.08200
N 	N 	0.58259 0.03331 0.81866 -0.04300
N 	N 	0.54451 0.01186 0.83747 -0.07000
C 	C 	0.54206 0.92264 0.85511 0.04900
C 	C 	0.58156 0.88390 0.84233 0.03800
C 	C 	0.74561 0.10020 0.90510 0.45300
C 	C 	0.72801 0.83958 0.66284 0.47000
C 	C 	0.38788 0.76660 0.96910 0.36200
Tb	Tb	0.81052 0.79455 0.53064 1.75500
O 	O 	0.87833 0.81170 0.45520 -0.42000
O 	O 	0.86417 0.68290 0.51420 -0.41500
O 	O 	0.20445 0.72390 0.12880 -0.45600
O 	O 	0.26518 0.64510 0.14310 -0.50500
O 	O 	0.22948 0.33280 0.43980 -0.55100
O 	O 	0.28492 0.41460 0.41700 -0.45200
C 	C 	0.14989 0.54128 0.31119 0.00400
C 	C 	0.17525 0.47526 0.36106 0.06300
C 	C 	0.21824 0.47060 0.34877 -0.17900
C 	C 	0.23586 0.53197 0.28661 0.11500
C 	C 	0.21049 0.59799 0.23674 -0.17700
C 	C 	0.16751 0.60265 0.24903 0.06900
C 	C 	0.00261 0.61847 0.38118 0.00100
C 	C 	0.99754 0.71105 0.37946 -0.02100
C 	C 	0.96021 0.74897 0.40595 0.04200
C 	C 	0.92796 0.69430 0.43416 -0.11100
C 	C 	0.93305 0.60172 0.43587 0.05900
C 	C 	0.97036 0.56381 0.40939 0.00100
N 	N 	0.10534 0.54358 0.32295 -0.08200
N 	N 	0.08259 0.46669 0.31866 -0.04300
N 	N 	0.04451 0.48814 0.33747 -0.07200
C 	C 	0.04206 0.57736 0.35511 0.05100
C 	C 	0.08156 0.61610 0.34233 0.03700
C 	C 	0.24561 0.39980 0.40510 0.45300
C 	C 	0.22801 0.66042 0.16284 0.47000
C 	C 	0.88788 0.73340 0.46910 0.36400
Tb	Tb	0.31052 0.29455 0.53064 1.75600
O 	O 	0.37833 0.31170 0.45520 -0.42000
O 	O 	0.36417 0.18290 0.51420 -0.41500
O 	O 	0.70445 0.22390 0.12880 -0.45700
O 	O 	0.76518 0.14510 0.14310 -0.50600
O 	O 	0.72948 0.83280 0.43980 -0.55100
O 	O 	0.78492 0.91460 0.41700 -0.45100
C 	C 	0.64989 0.04128 0.31119 0.00300
C 	C 	0.67525 0.97526 0.36106 0.06300
C 	C 	0.71824 0.97060 0.34877 -0.17800
C 	C 	0.73586 0.03197 0.28661 0.11300
C 	C 	0.71049 0.09799 0.23674 -0.17700
C 	C 	0.66751 0.10265 0.24903 0.06900
C 	C 	0.50261 0.11847 0.38118 0.00100
C 	C 	0.49754 0.21105 0.37946 -0.02100
C 	C 	0.46021 0.24897 0.40595 0.04200
C 	C 	0.42796 0.19430 0.43416 -0.11100
C 	C 	0.43305 0.10172 0.43587 0.05900
C 	C 	0.47036 0.06381 0.40939 0.00000
N 	N 	0.60534 0.04358 0.32295 -0.08200
N 	N 	0.58259 0.96669 0.31866 -0.04300
N 	N 	0.54451 0.98814 0.33747 -0.07100
C 	C 	0.54206 0.07736 0.35511 0.05000
C 	C 	0.58156 0.11610 0.34233 0.03800
C 	C 	0.74561 0.89980 0.40510 0.45300
C 	C 	0.72801 0.16042 0.16284 0.47000
C 	C 	0.38788 0.23340 0.46910 0.36400
Tb	Tb	0.18948 0.79455 0.96936 1.75200
O 	O 	0.12167 0.81170 0.04480 -0.42000
O 	O 	0.13583 0.68290 0.98580 -0.41500
O 	O 	0.79555 0.72390 0.37120 -0.45600
O 	O 	0.73482 0.64510 0.35690 -0.50500
O 	O 	0.77052 0.33280 0.06020 -0.55100
O 	O 	0.71508 0.41460 0.08300 -0.45200
C 	C 	0.85011 0.54128 0.18881 0.00400
C 	C 	0.82475 0.47526 0.13894 0.06300
C 	C 	0.78176 0.47060 0.15123 -0.17900
C 	C 	0.76414 0.53197 0.21339 0.11500
C 	C 	0.78951 0.59799 0.26326 -0.17700
C 	C 	0.83249 0.60265 0.25097 0.06900
C 	C 	0.99739 0.61847 0.11882 0.00000
C 	C 	0.00246 0.71105 0.12054 -0.02000
C 	C 	0.03979 0.74897 0.09405 0.04200
C 	C 	0.07204 0.69430 0.06584 -0.11100
C 	C 	0.06695 0.60172 0.06413 0.05900
C 	C 	0.02964 0.56381 0.09061 0.00100
N 	N 	0.89466 0.54358 0.17705 -0.08200
N 	N 	0.91741 0.46669 0.18134 -0.04300
N 	N 	0.95549 0.48814 0.16253 -0.07200
C 	C 	0.95794 0.57736 0.14489 0.05100
C 	C 	0.91844 0.61610 0.15767 0.03800
C 	C 	0.75439 0.39980 0.09490 0.45300
C 	C 	0.77199 0.66042 0.33716 0.47000
C 	C 	0.11212 0.73340 0.03090 0.36500
Tb	Tb	0.68948 0.29455 0.96936 1.75800
O 	O 	0.62167 0.31170 0.04480 -0.42000
O 	O 	0.63583 0.18290 0.98580 -0.41300
O 	O 	0.29555 0.22390 0.37120 -0.45600
O 	O 	0.23482 0.14510 0.35690 -0.50600
O 	O 	0.27052 0.83280 0.06020 -0.55000
O 	O 	0.21508 0.91460 0.08300 -0.45000
C 	C 	0.35011 0.04128 0.18881 0.00200
C 	C 	0.32475 0.97526 0.13894 0.06400
C 	C 	0.28176 0.97060 0.15123 -0.17700
C 	C 	0.26414 0.03197 0.21339 0.11200
C 	C 	0.28951 0.09799 0.26326 -0.17700
C 	C 	0.33249 0.10265 0.25097 0.06900
C 	C 	0.49739 0.11847 0.11882 0.00100
C 	C 	0.50246 0.21105 0.12054 -0.02100
C 	C 	0.53979 0.24897 0.09405 0.04200
C 	C 	0.57204 0.19430 0.06584 -0.11000
C 	C 	0.56695 0.10172 0.06413 0.05800
C 	C 	0.52964 0.06381 0.09061 0.00000
N 	N 	0.39466 0.04358 0.17705 -0.08200
N 	N 	0.41741 0.96669 0.18134 -0.04300
N 	N 	0.45549 0.98814 0.16253 -0.07000
C 	C 	0.45794 0.07736 0.14489 0.04900
C 	C 	0.41844 0.11610 0.15767 0.03800
C 	C 	0.25439 0.89980 0.09490 0.45300
C 	C 	0.27199 0.16042 0.33716 0.47000
C 	C 	0.61212 0.23340 0.03090 0.36200
