data_crystal

_cell_length_a 26.72640
_cell_length_b 26.72640
_cell_length_c 26.72640
_cell_angle_alpha 90.00000
_cell_angle_beta  90.00000
_cell_angle_gamma 90.00000

_symmetry_space_group_name_	'P 1'
_symmetry_space_group_name_H-M	'P 1'

loop_
_symmetry_equiv_pos_as_xyz
  x,y,z

loop_
_atom_site_label
_atom_site_type_symbol
_atom_site_fract_x
_atom_site_fract_y
_atom_site_fract_z
_atom_site_charge
O 	O 	0.05730 0.42810 0.39380 35.80000
O 	O 	0.03690 0.43180 0.32020 -1.68400
C 	C 	0.07410 0.43030 0.35050 0.57700
C 	C 	0.11900 0.39840 0.33830 -0.24900
C 	C 	0.13780 0.39940 0.29050 0.42200
C 	C 	0.14200 0.36890 0.37280 0.44000
H 	H 	0.12180 0.41820 0.26600 -0.03500
C 	C 	0.18020 0.37250 0.27850 -0.28100
C 	C 	0.18390 0.34040 0.36110 -0.26100
H 	H 	0.12920 0.36770 0.40520 -0.28200
H 	H 	0.19320 0.37450 0.24630 0.18900
C 	C 	0.20320 0.34310 0.31280 0.27100
H 	H 	0.19870 0.31990 0.38500 0.23900
C 	C 	0.24710 0.31310 0.29890 0.11000
N 	N 	0.27340 0.32790 0.25880 -0.08700
O 	O 	0.06790 0.44530 0.39400 -34.89100
O 	O 	0.06680 0.46740 0.32050 1.83700
O 	O 	0.94270 0.57190 0.39380 -33.56800
O 	O 	0.96310 0.56820 0.32020 1.10800
C 	C 	0.92590 0.56970 0.35050 0.21000
C 	C 	0.88100 0.60160 0.33830 0.05600
C 	C 	0.86220 0.60060 0.29050 -0.32100
C 	C 	0.85800 0.63110 0.37280 -0.33500
H 	H 	0.87820 0.58180 0.26600 0.17700
C 	C 	0.81980 0.62750 0.27850 0.09800
C 	C 	0.81610 0.65960 0.36110 0.06600
H 	H 	0.87080 0.63230 0.40520 0.33400
H 	H 	0.80680 0.62550 0.24630 0.00000
C 	C 	0.79680 0.65690 0.31280 -0.15800
H 	H 	0.80130 0.68010 0.38500 -0.06200
C 	C 	0.75290 0.68690 0.29890 0.13500
N 	N 	0.72660 0.67210 0.25880 -0.14700
O 	O 	0.93210 0.55470 0.39400 31.98900
O 	O 	0.93320 0.53260 0.32050 -2.11800
O 	O 	0.94270 0.42810 0.60620 -33.48400
O 	O 	0.96310 0.43180 0.67980 1.07500
C 	C 	0.92590 0.43030 0.64950 0.24000
C 	C 	0.88100 0.39840 0.66170 -0.00300
C 	C 	0.86220 0.39940 0.70950 -0.27100
C 	C 	0.85800 0.36890 0.62720 -0.28300
H 	H 	0.87820 0.41820 0.73400 0.10100
C 	C 	0.81980 0.37250 0.72150 0.02600
C 	C 	0.81610 0.34040 0.63890 0.00900
H 	H 	0.87080 0.36770 0.59480 0.32800
H 	H 	0.80680 0.37450 0.75370 -0.00500
C 	C 	0.79680 0.34310 0.68720 -0.12000
H 	H 	0.80130 0.31990 0.61500 0.00100
C 	C 	0.75290 0.31310 0.70110 0.11800
N 	N 	0.72660 0.32790 0.74120 -0.17500
O 	O 	0.93210 0.44530 0.60600 31.89900
O 	O 	0.93320 0.46740 0.67950 -2.14700
O 	O 	0.05730 0.57190 0.60620 36.02000
O 	O 	0.03690 0.56820 0.67980 -1.72400
C 	C 	0.07410 0.56970 0.64950 0.59900
C 	C 	0.11900 0.60160 0.66170 -0.28800
C 	C 	0.13780 0.60060 0.70950 0.44200
C 	C 	0.14200 0.63110 0.62720 0.43900
H 	H 	0.12180 0.58180 0.73400 -0.10900
C 	C 	0.18020 0.62750 0.72150 -0.32200
C 	C 	0.18390 0.65960 0.63890 -0.28100
H 	H 	0.12920 0.63230 0.59480 -0.30600
H 	H 	0.19320 0.62550 0.75370 0.16300
C 	C 	0.20320 0.65690 0.68720 0.25000
H 	H 	0.19870 0.68010 0.61500 0.17800
C 	C 	0.24710 0.68690 0.70110 0.05300
N 	N 	0.27340 0.67210 0.74120 -0.12800
O 	O 	0.06790 0.55470 0.60600 -35.13000
O 	O 	0.06680 0.53260 0.67950 1.81200
O 	O 	0.39380 0.05730 0.42810 35.79900
O 	O 	0.32020 0.03690 0.43180 -1.68500
C 	C 	0.35050 0.07410 0.43030 0.57600
C 	C 	0.33830 0.11900 0.39840 -0.25000
C 	C 	0.29050 0.13780 0.39940 0.42100
C 	C 	0.37280 0.14200 0.36890 0.43900
H 	H 	0.26600 0.12180 0.41820 -0.03600
C 	C 	0.27850 0.18020 0.37250 -0.28200
C 	C 	0.36110 0.18390 0.34040 -0.26200
H 	H 	0.40520 0.12920 0.36770 -0.28300
H 	H 	0.24630 0.19320 0.37450 0.18800
C 	C 	0.31280 0.20320 0.34310 0.27000
H 	H 	0.38500 0.19870 0.31990 0.23800
C 	C 	0.29890 0.24710 0.31310 0.10900
N 	N 	0.25880 0.27340 0.32790 -0.08800
O 	O 	0.39400 0.06790 0.44530 -34.89200
O 	O 	0.32050 0.06680 0.46740 1.83600
O 	O 	0.39380 0.94270 0.57190 -33.56900
O 	O 	0.32020 0.96310 0.56820 1.10700
C 	C 	0.35050 0.92590 0.56970 0.20900
C 	C 	0.33830 0.88100 0.60160 0.05500
C 	C 	0.29050 0.86220 0.60060 -0.32200
C 	C 	0.37280 0.85800 0.63110 -0.33600
H 	H 	0.26600 0.87820 0.58180 0.17600
C 	C 	0.27850 0.81980 0.62750 0.09700
C 	C 	0.36110 0.81610 0.65960 0.06500
H 	H 	0.40520 0.87080 0.63230 0.33300
H 	H 	0.24630 0.80680 0.62550 -0.00100
C 	C 	0.31280 0.79680 0.65690 -0.15900
H 	H 	0.38500 0.80130 0.68010 -0.06300
C 	C 	0.29890 0.75290 0.68690 0.13500
N 	N 	0.25880 0.72660 0.67210 -0.14700
O 	O 	0.39400 0.93210 0.55470 31.98900
O 	O 	0.32050 0.93320 0.53260 -2.11800
O 	O 	0.60620 0.94270 0.42810 -33.48400
O 	O 	0.67980 0.96310 0.43180 1.07500
C 	C 	0.64950 0.92590 0.43030 0.24000
C 	C 	0.66170 0.88100 0.39840 -0.00300
C 	C 	0.70950 0.86220 0.39940 -0.27100
C 	C 	0.62720 0.85800 0.36890 -0.28300
H 	H 	0.73400 0.87820 0.41820 0.10100
C 	C 	0.72150 0.81980 0.37250 0.02600
C 	C 	0.63890 0.81610 0.34040 0.00900
H 	H 	0.59480 0.87080 0.36770 0.32800
H 	H 	0.75370 0.80680 0.37450 -0.00500
C 	C 	0.68720 0.79680 0.34310 -0.12000
H 	H 	0.61500 0.80130 0.31990 0.00100
C 	C 	0.70110 0.75290 0.31310 0.11800
N 	N 	0.74120 0.72660 0.32790 -0.17500
O 	O 	0.60600 0.93210 0.44530 31.89900
O 	O 	0.67950 0.93320 0.46740 -2.14700
O 	O 	0.60620 0.05730 0.57190 36.02000
O 	O 	0.67980 0.03690 0.56820 -1.72400
C 	C 	0.64950 0.07410 0.56970 0.59900
C 	C 	0.66170 0.11900 0.60160 -0.28800
C 	C 	0.70950 0.13780 0.60060 0.44200
C 	C 	0.62720 0.14200 0.63110 0.43900
H 	H 	0.73400 0.12180 0.58180 -0.10900
C 	C 	0.72150 0.18020 0.62750 -0.32200
C 	C 	0.63890 0.18390 0.65960 -0.28100
H 	H 	0.59480 0.12920 0.63230 -0.30600
H 	H 	0.75370 0.19320 0.62550 0.16300
C 	C 	0.68720 0.20320 0.65690 0.25000
H 	H 	0.61500 0.19870 0.68010 0.17800
C 	C 	0.70110 0.24710 0.68690 0.05300
N 	N 	0.74120 0.27340 0.67210 -0.12800
O 	O 	0.60600 0.06790 0.55470 -35.13000
O 	O 	0.67950 0.06680 0.53260 1.81200
O 	O 	0.42810 0.39380 0.05730 35.79900
O 	O 	0.43180 0.32020 0.03690 -1.68500
C 	C 	0.43030 0.35050 0.07410 0.57600
C 	C 	0.39840 0.33830 0.11900 -0.25000
C 	C 	0.39940 0.29050 0.13780 0.42100
C 	C 	0.36890 0.37280 0.14200 0.43900
H 	H 	0.41820 0.26600 0.12180 -0.03600
C 	C 	0.37250 0.27850 0.18020 -0.28200
C 	C 	0.34040 0.36110 0.18390 -0.26200
H 	H 	0.36770 0.40520 0.12920 -0.28300
H 	H 	0.37450 0.24630 0.19320 0.18800
C 	C 	0.34310 0.31280 0.20320 0.27000
H 	H 	0.31990 0.38500 0.19870 0.23800
C 	C 	0.31310 0.29890 0.24710 0.10900
N 	N 	0.32790 0.25880 0.27340 -0.08800
O 	O 	0.44530 0.39400 0.06790 -34.89200
O 	O 	0.46740 0.32050 0.06680 1.83600
O 	O 	0.57190 0.39380 0.94270 -33.56900
O 	O 	0.56820 0.32020 0.96310 1.10700
C 	C 	0.56970 0.35050 0.92590 0.20900
C 	C 	0.60160 0.33830 0.88100 0.05500
C 	C 	0.60060 0.29050 0.86220 -0.32200
C 	C 	0.63110 0.37280 0.85800 -0.33600
H 	H 	0.58180 0.26600 0.87820 0.17600
C 	C 	0.62750 0.27850 0.81980 0.09700
C 	C 	0.65960 0.36110 0.81610 0.06500
H 	H 	0.63230 0.40520 0.87080 0.33300
H 	H 	0.62550 0.24630 0.80680 -0.00100
C 	C 	0.65690 0.31280 0.79680 -0.15900
H 	H 	0.68010 0.38500 0.80130 -0.06300
C 	C 	0.68690 0.29890 0.75290 0.13500
N 	N 	0.67210 0.25880 0.72660 -0.14700
O 	O 	0.55470 0.39400 0.93210 31.98900
O 	O 	0.53260 0.32050 0.93320 -2.11800
O 	O 	0.42810 0.60620 0.94270 -33.48400
O 	O 	0.43180 0.67980 0.96310 1.07500
C 	C 	0.43030 0.64950 0.92590 0.24000
C 	C 	0.39840 0.66170 0.88100 -0.00300
C 	C 	0.39940 0.70950 0.86220 -0.27100
C 	C 	0.36890 0.62720 0.85800 -0.28300
H 	H 	0.41820 0.73400 0.87820 0.10100
C 	C 	0.37250 0.72150 0.81980 0.02600
C 	C 	0.34040 0.63890 0.81610 0.00900
H 	H 	0.36770 0.59480 0.87080 0.32800
H 	H 	0.37450 0.75370 0.80680 -0.00500
C 	C 	0.34310 0.68720 0.79680 -0.12000
H 	H 	0.31990 0.61500 0.80130 0.00100
C 	C 	0.31310 0.70110 0.75290 0.11800
N 	N 	0.32790 0.74120 0.72660 -0.17500
O 	O 	0.44530 0.60600 0.93210 31.89900
O 	O 	0.46740 0.67950 0.93320 -2.14700
O 	O 	0.57190 0.60620 0.05730 36.02000
O 	O 	0.56820 0.67980 0.03690 -1.72400
C 	C 	0.56970 0.64950 0.07410 0.59900
C 	C 	0.60160 0.66170 0.11900 -0.28800
C 	C 	0.60060 0.70950 0.13780 0.44200
C 	C 	0.63110 0.62720 0.14200 0.43900
H 	H 	0.58180 0.73400 0.12180 -0.10900
C 	C 	0.62750 0.72150 0.18020 -0.32200
C 	C 	0.65960 0.63890 0.18390 -0.28100
H 	H 	0.63230 0.59480 0.12920 -0.30600
H 	H 	0.62550 0.75370 0.19320 0.16300
C 	C 	0.65690 0.68720 0.20320 0.25000
H 	H 	0.68010 0.61500 0.19870 0.17800
C 	C 	0.68690 0.70110 0.24710 0.05300
N 	N 	0.67210 0.74120 0.27340 -0.12800
O 	O 	0.55470 0.60600 0.06790 -35.13000
O 	O 	0.53260 0.67950 0.06680 1.81200
O 	O 	0.94270 0.57190 0.60620 -33.41800
O 	O 	0.96310 0.56820 0.67980 1.07200
C 	C 	0.92590 0.56970 0.64950 0.23600
C 	C 	0.88100 0.60160 0.66170 0.00700
C 	C 	0.86220 0.60060 0.70950 -0.28600
C 	C 	0.85800 0.63110 0.62720 -0.30900
H 	H 	0.87820 0.58180 0.73400 0.10200
C 	C 	0.81980 0.62750 0.72150 0.04100
C 	C 	0.81610 0.65960 0.63890 0.02800
H 	H 	0.87080 0.63230 0.59480 0.31900
H 	H 	0.80680 0.62550 0.75370 -0.01500
C 	C 	0.79680 0.65690 0.68720 -0.15000
H 	H 	0.80130 0.68010 0.61500 -0.06100
C 	C 	0.75290 0.68690 0.70110 0.09800
N 	N 	0.72660 0.67210 0.74120 -0.18100
O 	O 	0.93210 0.55470 0.60600 31.82600
O 	O 	0.93320 0.53260 0.67950 -2.14500
O 	O 	0.05730 0.42810 0.60620 35.95400
O 	O 	0.03690 0.43180 0.67980 -1.72100
C 	C 	0.07410 0.43030 0.64950 0.60300
C 	C 	0.11900 0.39840 0.66170 -0.29800
C 	C 	0.13780 0.39940 0.70950 0.45700
C 	C 	0.14200 0.36890 0.62720 0.46500
H 	H 	0.12180 0.41820 0.73400 -0.11000
C 	C 	0.18020 0.37250 0.72150 -0.33700
C 	C 	0.18390 0.34040 0.63890 -0.29900
H 	H 	0.12920 0.36770 0.59480 -0.29700
H 	H 	0.19320 0.37450 0.75370 0.17300
C 	C 	0.20320 0.34310 0.68720 0.27900
H 	H 	0.19870 0.31990 0.61500 0.24000
C 	C 	0.24710 0.31310 0.70110 0.07200
N 	N 	0.27340 0.32790 0.74120 -0.12200
O 	O 	0.06790 0.44530 0.60600 -35.05700
O 	O 	0.06680 0.46740 0.67950 1.80900
O 	O 	0.05730 0.57190 0.39380 35.86500
O 	O 	0.03690 0.56820 0.32020 -1.68800
C 	C 	0.07410 0.56970 0.35050 0.57200
C 	C 	0.11900 0.60160 0.33830 -0.24000
C 	C 	0.13780 0.60060 0.29050 0.40600
C 	C 	0.14200 0.63110 0.37280 0.41200
H 	H 	0.12180 0.58180 0.26600 -0.03500
C 	C 	0.18020 0.62750 0.27850 -0.26600
C 	C 	0.18390 0.65960 0.36110 -0.24400
H 	H 	0.12920 0.63230 0.40520 -0.29200
H 	H 	0.19320 0.62550 0.24630 0.17700
C 	C 	0.20320 0.65690 0.31280 0.24000
H 	H 	0.19870 0.68010 0.38500 0.17700
C 	C 	0.24710 0.68690 0.29890 0.09000
N 	N 	0.27340 0.67210 0.25880 -0.09400
O 	O 	0.06790 0.55470 0.39400 -34.96500
O 	O 	0.06680 0.53260 0.32050 1.83900
O 	O 	0.94270 0.42810 0.39380 -33.63500
O 	O 	0.96310 0.43180 0.32020 1.11100
C 	C 	0.92590 0.43030 0.35050 0.21300
C 	C 	0.88100 0.39840 0.33830 0.04500
C 	C 	0.86220 0.39940 0.29050 -0.30700
C 	C 	0.85800 0.36890 0.37280 -0.30900
H 	H 	0.87820 0.41820 0.26600 0.17400
C 	C 	0.81980 0.37250 0.27850 0.08100
C 	C 	0.81610 0.34040 0.36110 0.04600
H 	H 	0.87080 0.36770 0.40520 0.34200
H 	H 	0.80680 0.37450 0.24630 0.01000
C 	C 	0.79680 0.34310 0.31280 -0.13000
H 	H 	0.80130 0.31990 0.38500 -0.00100
C 	C 	0.75290 0.31310 0.29890 0.15400
N 	N 	0.72660 0.32790 0.25880 -0.14100
O 	O 	0.93210 0.44530 0.39400 32.06200
O 	O 	0.93320 0.46740 0.32050 -2.12100
O 	O 	0.60620 0.94270 0.57190 -33.41800
O 	O 	0.67980 0.96310 0.56820 1.07200
C 	C 	0.64950 0.92590 0.56970 0.23600
C 	C 	0.66170 0.88100 0.60160 0.00700
C 	C 	0.70950 0.86220 0.60060 -0.28600
C 	C 	0.62720 0.85800 0.63110 -0.30900
H 	H 	0.73400 0.87820 0.58180 0.10200
C 	C 	0.72150 0.81980 0.62750 0.04100
C 	C 	0.63890 0.81610 0.65960 0.02800
H 	H 	0.59480 0.87080 0.63230 0.31900
H 	H 	0.75370 0.80680 0.62550 -0.01500
C 	C 	0.68720 0.79680 0.65690 -0.15000
H 	H 	0.61500 0.80130 0.68010 -0.06100
C 	C 	0.70110 0.75290 0.68690 0.09800
N 	N 	0.74120 0.72660 0.67210 -0.18100
O 	O 	0.60600 0.93210 0.55470 31.82600
O 	O 	0.67950 0.93320 0.53260 -2.14500
O 	O 	0.60620 0.05730 0.42810 35.95400
O 	O 	0.67980 0.03690 0.43180 -1.72100
C 	C 	0.64950 0.07410 0.43030 0.60300
C 	C 	0.66170 0.11900 0.39840 -0.29800
C 	C 	0.70950 0.13780 0.39940 0.45700
C 	C 	0.62720 0.14200 0.36890 0.46500
H 	H 	0.73400 0.12180 0.41820 -0.11000
C 	C 	0.72150 0.18020 0.37250 -0.33700
C 	C 	0.63890 0.18390 0.34040 -0.29900
H 	H 	0.59480 0.12920 0.36770 -0.29700
H 	H 	0.75370 0.19320 0.37450 0.17300
C 	C 	0.68720 0.20320 0.34310 0.27900
H 	H 	0.61500 0.19870 0.31990 0.24000
C 	C 	0.70110 0.24710 0.31310 0.07200
N 	N 	0.74120 0.27340 0.32790 -0.12200
O 	O 	0.60600 0.06790 0.44530 -35.05700
O 	O 	0.67950 0.06680 0.46740 1.80900
O 	O 	0.39380 0.05730 0.57190 35.86500
O 	O 	0.32020 0.03690 0.56820 -1.68800
C 	C 	0.35050 0.07410 0.56970 0.57200
C 	C 	0.33830 0.11900 0.60160 -0.24000
C 	C 	0.29050 0.13780 0.60060 0.40600
C 	C 	0.37280 0.14200 0.63110 0.41200
H 	H 	0.26600 0.12180 0.58180 -0.03500
C 	C 	0.27850 0.18020 0.62750 -0.26600
C 	C 	0.36110 0.18390 0.65960 -0.24400
H 	H 	0.40520 0.12920 0.63230 -0.29200
H 	H 	0.24630 0.19320 0.62550 0.17700
C 	C 	0.31280 0.20320 0.65690 0.24000
H 	H 	0.38500 0.19870 0.68010 0.17700
C 	C 	0.29890 0.24710 0.68690 0.09000
N 	N 	0.25880 0.27340 0.67210 -0.09400
O 	O 	0.39400 0.06790 0.55470 -34.96500
O 	O 	0.32050 0.06680 0.53260 1.83900
O 	O 	0.39380 0.94270 0.42810 -33.63500
O 	O 	0.32020 0.96310 0.43180 1.11100
C 	C 	0.35050 0.92590 0.43030 0.21300
C 	C 	0.33830 0.88100 0.39840 0.04500
C 	C 	0.29050 0.86220 0.39940 -0.30700
C 	C 	0.37280 0.85800 0.36890 -0.30900
H 	H 	0.26600 0.87820 0.41820 0.17400
C 	C 	0.27850 0.81980 0.37250 0.08100
C 	C 	0.36110 0.81610 0.34040 0.04600
H 	H 	0.40520 0.87080 0.36770 0.34200
H 	H 	0.24630 0.80680 0.37450 0.01000
C 	C 	0.31280 0.79680 0.34310 -0.13000
H 	H 	0.38500 0.80130 0.31990 -0.00100
C 	C 	0.29890 0.75290 0.31310 0.15400
N 	N 	0.25880 0.72660 0.32790 -0.14100
O 	O 	0.39400 0.93210 0.44530 32.06200
O 	O 	0.32050 0.93320 0.46740 -2.12100
O 	O 	0.57190 0.60620 0.94270 -33.41800
O 	O 	0.56820 0.67980 0.96310 1.07200
C 	C 	0.56970 0.64950 0.92590 0.23600
C 	C 	0.60160 0.66170 0.88100 0.00700
C 	C 	0.60060 0.70950 0.86220 -0.28600
C 	C 	0.63110 0.62720 0.85800 -0.30900
H 	H 	0.58180 0.73400 0.87820 0.10200
C 	C 	0.62750 0.72150 0.81980 0.04100
C 	C 	0.65960 0.63890 0.81610 0.02800
H 	H 	0.63230 0.59480 0.87080 0.31900
H 	H 	0.62550 0.75370 0.80680 -0.01500
C 	C 	0.65690 0.68720 0.79680 -0.15000
H 	H 	0.68010 0.61500 0.80130 -0.06100
C 	C 	0.68690 0.70110 0.75290 0.09800
N 	N 	0.67210 0.74120 0.72660 -0.18100
O 	O 	0.55470 0.60600 0.93210 31.82600
O 	O 	0.53260 0.67950 0.93320 -2.14500
O 	O 	0.42810 0.60620 0.05730 35.95400
O 	O 	0.43180 0.67980 0.03690 -1.72100
C 	C 	0.43030 0.64950 0.07410 0.60300
C 	C 	0.39840 0.66170 0.11900 -0.29800
C 	C 	0.39940 0.70950 0.13780 0.45700
C 	C 	0.36890 0.62720 0.14200 0.46500
H 	H 	0.41820 0.73400 0.12180 -0.11000
C 	C 	0.37250 0.72150 0.18020 -0.33700
C 	C 	0.34040 0.63890 0.18390 -0.29900
H 	H 	0.36770 0.59480 0.12920 -0.29700
H 	H 	0.37450 0.75370 0.19320 0.17300
C 	C 	0.34310 0.68720 0.20320 0.27900
H 	H 	0.31990 0.61500 0.19870 0.24000
C 	C 	0.31310 0.70110 0.24710 0.07200
N 	N 	0.32790 0.74120 0.27340 -0.12200
O 	O 	0.44530 0.60600 0.06790 -35.05700
O 	O 	0.46740 0.67950 0.06680 1.80900
O 	O 	0.57190 0.39380 0.05730 35.86500
O 	O 	0.56820 0.32020 0.03690 -1.68800
C 	C 	0.56970 0.35050 0.07410 0.57200
C 	C 	0.60160 0.33830 0.11900 -0.24000
C 	C 	0.60060 0.29050 0.13780 0.40600
C 	C 	0.63110 0.37280 0.14200 0.41200
H 	H 	0.58180 0.26600 0.12180 -0.03500
C 	C 	0.62750 0.27850 0.18020 -0.26600
C 	C 	0.65960 0.36110 0.18390 -0.24400
H 	H 	0.63230 0.40520 0.12920 -0.29200
H 	H 	0.62550 0.24630 0.19320 0.17700
C 	C 	0.65690 0.31280 0.20320 0.24000
H 	H 	0.68010 0.38500 0.19870 0.17700
C 	C 	0.68690 0.29890 0.24710 0.09000
N 	N 	0.67210 0.25880 0.27340 -0.09400
O 	O 	0.55470 0.39400 0.06790 -34.96500
O 	O 	0.53260 0.32050 0.06680 1.83900
O 	O 	0.42810 0.39380 0.94270 -33.63500
O 	O 	0.43180 0.32020 0.96310 1.11100
C 	C 	0.43030 0.35050 0.92590 0.21300
C 	C 	0.39840 0.33830 0.88100 0.04500
C 	C 	0.39940 0.29050 0.86220 -0.30700
C 	C 	0.36890 0.37280 0.85800 -0.30900
H 	H 	0.41820 0.26600 0.87820 0.17400
C 	C 	0.37250 0.27850 0.81980 0.08100
C 	C 	0.34040 0.36110 0.81610 0.04600
H 	H 	0.36770 0.40520 0.87080 0.34200
H 	H 	0.37450 0.24630 0.80680 0.01000
C 	C 	0.34310 0.31280 0.79680 -0.13000
H 	H 	0.31990 0.38500 0.80130 -0.00100
C 	C 	0.31310 0.29890 0.75290 0.15400
N 	N 	0.32790 0.25880 0.72660 -0.14100
O 	O 	0.44530 0.39400 0.93210 32.06200
O 	O 	0.46740 0.32050 0.93320 -2.12100
Tb	Tb	0.00000 0.50000 0.37297 1.76800
O 	O 	0.00000 0.50000 0.45770 -0.85900
Tb	Tb	-0.00000 0.50000 0.62703 1.79800
O 	O 	-0.00000 0.50000 0.54230 -0.85800
Tb	Tb	0.37297 0.00000 0.50000 1.76800
O 	O 	0.45770 0.00000 0.50000 -0.85900
Tb	Tb	0.62703 0.00000 0.50000 1.79800
O 	O 	0.54230 0.00000 0.50000 -0.85800
Tb	Tb	0.50000 0.37297 -0.00000 1.76800
O 	O 	0.50000 0.45770 -0.00000 -0.85900
Tb	Tb	0.50000 0.62703 -0.00000 1.79800
O 	O 	0.50000 0.54230 -0.00000 -0.85800
C 	C 	0.01750 0.50000 0.50000 3.67500
C 	C 	0.98250 0.50000 0.50000 -2.53300
C 	C 	0.50000 0.01750 0.50000 3.67500
C 	C 	0.50000 0.98250 0.50000 -2.53300
C 	C 	0.50000 0.50000 0.01750 3.67500
C 	C 	0.50000 0.50000 0.98250 -2.53300
O 	O 	0.55730 0.92810 0.89380 5.68400
O 	O 	0.53690 0.93180 0.82020 -0.49500
C 	C 	0.57410 0.93030 0.85050 0.33500
C 	C 	0.61900 0.89840 0.83830 -0.08700
C 	C 	0.63780 0.89940 0.79050 0.07400
C 	C 	0.64200 0.86890 0.87280 0.08400
H 	H 	0.62180 0.91820 0.76600 0.13500
C 	C 	0.68020 0.87250 0.77850 -0.09000
C 	C 	0.68390 0.84040 0.86110 -0.09100
H 	H 	0.62920 0.86770 0.90520 0.02200
H 	H 	0.69320 0.87450 0.74630 0.15300
C 	C 	0.70320 0.84310 0.81280 0.09000
H 	H 	0.69870 0.81990 0.88500 0.15100
C 	C 	0.74710 0.81310 0.79890 0.14000
N 	N 	0.77340 0.82790 0.75880 -0.11100
O 	O 	0.56790 0.94530 0.89400 -5.97300
O 	O 	0.56680 0.96740 0.82050 0.23100
O 	O 	0.44270 0.07190 0.89380 -3.66000
O 	O 	0.46310 0.06820 0.82020 -0.09100
C 	C 	0.42590 0.06970 0.85050 0.43800
C 	C 	0.38100 0.10160 0.83830 -0.09700
C 	C 	0.36220 0.10060 0.79050 0.03000
C 	C 	0.35800 0.13110 0.87280 0.02400
H 	H 	0.37820 0.08180 0.76600 -0.06600
C 	C 	0.31980 0.12750 0.77850 -0.12600
C 	C 	0.31610 0.15960 0.86110 -0.09200
H 	H 	0.37080 0.13230 0.90520 0.13700
H 	H 	0.30680 0.12550 0.74630 0.01400
C 	C 	0.29680 0.15690 0.81280 0.03800
H 	H 	0.30130 0.18010 0.88500 0.11300
C 	C 	0.25290 0.18690 0.79890 0.09800
N 	N 	0.22660 0.17210 0.75880 -0.15200
O 	O 	0.43210 0.05470 0.89400 3.40600
O 	O 	0.43320 0.03260 0.82050 -0.54100
O 	O 	0.44270 0.92810 0.10620 3.57700
O 	O 	0.46310 0.93180 0.17980 -0.41500
C 	C 	0.42590 0.93030 0.14950 0.35000
C 	C 	0.38100 0.89840 0.16170 -0.12600
C 	C 	0.36220 0.89940 0.20950 0.06900
C 	C 	0.35800 0.86890 0.12720 0.06500
H 	H 	0.37820 0.91820 0.23400 0.13800
C 	C 	0.31980 0.87250 0.22150 -0.10000
C 	C 	0.31610 0.84040 0.13890 -0.12700
H 	H 	0.37080 0.86770 0.09480 -0.07000
H 	H 	0.30680 0.87450 0.25370 0.14800
C 	C 	0.29680 0.84310 0.18720 0.05700
H 	H 	0.30130 0.81990 0.11500 0.04300
C 	C 	0.25290 0.81310 0.20110 0.09700
N 	N 	0.22660 0.82790 0.24120 -0.12400
O 	O 	0.43210 0.94530 0.10600 -4.05200
O 	O 	0.43320 0.96740 0.17950 0.10100
O 	O 	0.55730 0.07190 0.10620 -1.29400
O 	O 	0.53690 0.06820 0.17980 -0.17200
C 	C 	0.57410 0.06970 0.14950 0.46900
C 	C 	0.61900 0.10160 0.16170 -0.14200
C 	C 	0.63780 0.10060 0.20950 0.07300
C 	C 	0.64200 0.13110 0.12720 0.05900
H 	H 	0.62180 0.08180 0.23400 -0.07400
C 	C 	0.68020 0.12750 0.22150 -0.14700
C 	C 	0.68390 0.15960 0.13890 -0.13400
H 	H 	0.62920 0.13230 0.09480 0.01800
H 	H 	0.69320 0.12550 0.25370 0.02200
C 	C 	0.70320 0.15690 0.18720 0.04300
H 	H 	0.69870 0.18010 0.11500 0.04400
C 	C 	0.74710 0.18690 0.20110 0.08600
N 	N 	0.77340 0.17210 0.24120 -0.15200
O 	O 	0.56790 0.05470 0.10600 1.03300
O 	O 	0.56680 0.03260 0.17950 -0.40900
O 	O 	0.89380 0.55730 0.92810 5.68400
O 	O 	0.82020 0.53690 0.93180 -0.49500
C 	C 	0.85050 0.57410 0.93030 0.33500
C 	C 	0.83830 0.61900 0.89840 -0.08700
C 	C 	0.79050 0.63780 0.89940 0.07400
C 	C 	0.87280 0.64200 0.86890 0.08400
H 	H 	0.76600 0.62180 0.91820 0.13500
C 	C 	0.77850 0.68020 0.87250 -0.09000
C 	C 	0.86110 0.68390 0.84040 -0.09100
H 	H 	0.90520 0.62920 0.86770 0.02200
H 	H 	0.74630 0.69320 0.87450 0.15300
C 	C 	0.81280 0.70320 0.84310 0.09000
H 	H 	0.88500 0.69870 0.81990 0.15100
C 	C 	0.79890 0.74710 0.81310 0.14000
N 	N 	0.75880 0.77340 0.82790 -0.11100
O 	O 	0.89400 0.56790 0.94530 -5.97300
O 	O 	0.82050 0.56680 0.96740 0.23100
O 	O 	0.89380 0.44270 0.07190 -3.66000
O 	O 	0.82020 0.46310 0.06820 -0.09100
C 	C 	0.85050 0.42590 0.06970 0.43800
C 	C 	0.83830 0.38100 0.10160 -0.09700
C 	C 	0.79050 0.36220 0.10060 0.03000
C 	C 	0.87280 0.35800 0.13110 0.02400
H 	H 	0.76600 0.37820 0.08180 -0.06600
C 	C 	0.77850 0.31980 0.12750 -0.12600
C 	C 	0.86110 0.31610 0.15960 -0.09200
H 	H 	0.90520 0.37080 0.13230 0.13700
H 	H 	0.74630 0.30680 0.12550 0.01400
C 	C 	0.81280 0.29680 0.15690 0.03800
H 	H 	0.88500 0.30130 0.18010 0.11300
C 	C 	0.79890 0.25290 0.18690 0.09800
N 	N 	0.75880 0.22660 0.17210 -0.15200
O 	O 	0.89400 0.43210 0.05470 3.40600
O 	O 	0.82050 0.43320 0.03260 -0.54100
O 	O 	0.10620 0.44270 0.92810 3.57700
O 	O 	0.17980 0.46310 0.93180 -0.41500
C 	C 	0.14950 0.42590 0.93030 0.35000
C 	C 	0.16170 0.38100 0.89840 -0.12600
C 	C 	0.20950 0.36220 0.89940 0.06900
C 	C 	0.12720 0.35800 0.86890 0.06500
H 	H 	0.23400 0.37820 0.91820 0.13800
C 	C 	0.22150 0.31980 0.87250 -0.10000
C 	C 	0.13890 0.31610 0.84040 -0.12700
H 	H 	0.09480 0.37080 0.86770 -0.07000
H 	H 	0.25370 0.30680 0.87450 0.14800
C 	C 	0.18720 0.29680 0.84310 0.05700
H 	H 	0.11500 0.30130 0.81990 0.04300
C 	C 	0.20110 0.25290 0.81310 0.09700
N 	N 	0.24120 0.22660 0.82790 -0.12400
O 	O 	0.10600 0.43210 0.94530 -4.05200
O 	O 	0.17950 0.43320 0.96740 0.10100
O 	O 	0.10620 0.55730 0.07190 -1.29400
O 	O 	0.17980 0.53690 0.06820 -0.17200
C 	C 	0.14950 0.57410 0.06970 0.46900
C 	C 	0.16170 0.61900 0.10160 -0.14200
C 	C 	0.20950 0.63780 0.10060 0.07300
C 	C 	0.12720 0.64200 0.13110 0.05900
H 	H 	0.23400 0.62180 0.08180 -0.07400
C 	C 	0.22150 0.68020 0.12750 -0.14700
C 	C 	0.13890 0.68390 0.15960 -0.13400
H 	H 	0.09480 0.62920 0.13230 0.01800
H 	H 	0.25370 0.69320 0.12550 0.02200
C 	C 	0.18720 0.70320 0.15690 0.04300
H 	H 	0.11500 0.69870 0.18010 0.04400
C 	C 	0.20110 0.74710 0.18690 0.08600
N 	N 	0.24120 0.77340 0.17210 -0.15200
O 	O 	0.10600 0.56790 0.05470 1.03300
O 	O 	0.17950 0.56680 0.03260 -0.40900
O 	O 	0.92810 0.89380 0.55730 5.68400
O 	O 	0.93180 0.82020 0.53690 -0.49500
C 	C 	0.93030 0.85050 0.57410 0.33500
C 	C 	0.89840 0.83830 0.61900 -0.08700
C 	C 	0.89940 0.79050 0.63780 0.07400
C 	C 	0.86890 0.87280 0.64200 0.08400
H 	H 	0.91820 0.76600 0.62180 0.13500
C 	C 	0.87250 0.77850 0.68020 -0.09000
C 	C 	0.84040 0.86110 0.68390 -0.09100
H 	H 	0.86770 0.90520 0.62920 0.02200
H 	H 	0.87450 0.74630 0.69320 0.15300
C 	C 	0.84310 0.81280 0.70320 0.09000
H 	H 	0.81990 0.88500 0.69870 0.15100
C 	C 	0.81310 0.79890 0.74710 0.14000
N 	N 	0.82790 0.75880 0.77340 -0.11100
O 	O 	0.94530 0.89400 0.56790 -5.97300
O 	O 	0.96740 0.82050 0.56680 0.23100
O 	O 	0.07190 0.89380 0.44270 -3.66000
O 	O 	0.06820 0.82020 0.46310 -0.09100
C 	C 	0.06970 0.85050 0.42590 0.43800
C 	C 	0.10160 0.83830 0.38100 -0.09700
C 	C 	0.10060 0.79050 0.36220 0.03000
C 	C 	0.13110 0.87280 0.35800 0.02400
H 	H 	0.08180 0.76600 0.37820 -0.06600
C 	C 	0.12750 0.77850 0.31980 -0.12600
C 	C 	0.15960 0.86110 0.31610 -0.09200
H 	H 	0.13230 0.90520 0.37080 0.13700
H 	H 	0.12550 0.74630 0.30680 0.01400
C 	C 	0.15690 0.81280 0.29680 0.03800
H 	H 	0.18010 0.88500 0.30130 0.11300
C 	C 	0.18690 0.79890 0.25290 0.09800
N 	N 	0.17210 0.75880 0.22660 -0.15200
O 	O 	0.05470 0.89400 0.43210 3.40600
O 	O 	0.03260 0.82050 0.43320 -0.54100
O 	O 	0.92810 0.10620 0.44270 3.57700
O 	O 	0.93180 0.17980 0.46310 -0.41500
C 	C 	0.93030 0.14950 0.42590 0.35000
C 	C 	0.89840 0.16170 0.38100 -0.12600
C 	C 	0.89940 0.20950 0.36220 0.06900
C 	C 	0.86890 0.12720 0.35800 0.06500
H 	H 	0.91820 0.23400 0.37820 0.13800
C 	C 	0.87250 0.22150 0.31980 -0.10000
C 	C 	0.84040 0.13890 0.31610 -0.12700
H 	H 	0.86770 0.09480 0.37080 -0.07000
H 	H 	0.87450 0.25370 0.30680 0.14800
C 	C 	0.84310 0.18720 0.29680 0.05700
H 	H 	0.81990 0.11500 0.30130 0.04300
C 	C 	0.81310 0.20110 0.25290 0.09700
N 	N 	0.82790 0.24120 0.22660 -0.12400
O 	O 	0.94530 0.10600 0.43210 -4.05200
O 	O 	0.96740 0.17950 0.43320 0.10100
O 	O 	0.07190 0.10620 0.55730 -1.29400
O 	O 	0.06820 0.17980 0.53690 -0.17200
C 	C 	0.06970 0.14950 0.57410 0.46900
C 	C 	0.10160 0.16170 0.61900 -0.14200
C 	C 	0.10060 0.20950 0.63780 0.07300
C 	C 	0.13110 0.12720 0.64200 0.05900
H 	H 	0.08180 0.23400 0.62180 -0.07400
C 	C 	0.12750 0.22150 0.68020 -0.14700
C 	C 	0.15960 0.13890 0.68390 -0.13400
H 	H 	0.13230 0.09480 0.62920 0.01800
H 	H 	0.12550 0.25370 0.69320 0.02200
C 	C 	0.15690 0.18720 0.70320 0.04300
H 	H 	0.18010 0.11500 0.69870 0.04400
C 	C 	0.18690 0.20110 0.74710 0.08600
N 	N 	0.17210 0.24120 0.77340 -0.15200
O 	O 	0.05470 0.10600 0.56790 1.03300
O 	O 	0.03260 0.17950 0.56680 -0.40900
O 	O 	0.44270 0.07190 0.10620 -3.52800
O 	O 	0.46310 0.06820 0.17980 -0.09200
C 	C 	0.42590 0.06970 0.14950 0.46100
C 	C 	0.38100 0.10160 0.16170 -0.13900
C 	C 	0.36220 0.10060 0.20950 0.04900
C 	C 	0.35800 0.13110 0.12720 0.03200
H 	H 	0.37820 0.08180 0.23400 -0.06900
C 	C 	0.31980 0.12750 0.22150 -0.14100
C 	C 	0.31610 0.15960 0.13890 -0.13200
H 	H 	0.37080 0.13230 0.09480 0.03100
H 	H 	0.30680 0.12550 0.25370 0.01500
C 	C 	0.29680 0.15690 0.18720 0.02400
H 	H 	0.30130 0.18010 0.11500 0.02400
C 	C 	0.25290 0.18690 0.20110 0.07000
N 	N 	0.22660 0.17210 0.24120 -0.15800
O 	O 	0.43210 0.05470 0.10600 3.17800
O 	O 	0.43320 0.03260 0.17950 -0.54000
O 	O 	0.55730 0.92810 0.10620 5.81100
O 	O 	0.53690 0.93180 0.17980 -0.49500
C 	C 	0.57410 0.93030 0.14950 0.35800
C 	C 	0.61900 0.89840 0.16170 -0.12800
C 	C 	0.63780 0.89940 0.20950 0.09300
C 	C 	0.64200 0.86890 0.12720 0.09200
H 	H 	0.62180 0.91820 0.23400 0.13200
C 	C 	0.68020 0.87250 0.22150 -0.10600
C 	C 	0.68390 0.84040 0.13890 -0.13000
H 	H 	0.62920 0.86770 0.09480 -0.08300
H 	H 	0.69320 0.87450 0.25370 0.15500
C 	C 	0.70320 0.84310 0.18720 0.07600
H 	H 	0.69870 0.81990 0.11500 0.06300
C 	C 	0.74710 0.81310 0.20110 0.11300
N 	N 	0.77340 0.82790 0.24120 -0.11700
O 	O 	0.56790 0.94530 0.10600 -6.19700
O 	O 	0.56680 0.96740 0.17950 0.23100
O 	O 	0.55730 0.07190 0.89380 -1.42400
O 	O 	0.53690 0.06820 0.82020 -0.17200
C 	C 	0.57410 0.06970 0.85050 0.44600
C 	C 	0.61900 0.10160 0.83830 -0.10000
C 	C 	0.63780 0.10060 0.79050 0.05400
C 	C 	0.64200 0.13110 0.87280 0.05100
H 	H 	0.62180 0.08180 0.76600 -0.07200
C 	C 	0.68020 0.12750 0.77850 -0.13200
C 	C 	0.68390 0.15960 0.86110 -0.09500
H 	H 	0.62920 0.13230 0.90520 0.12300
H 	H 	0.69320 0.12550 0.74630 0.02000
C 	C 	0.70320 0.15690 0.81280 0.05700
H 	H 	0.69870 0.18010 0.88500 0.13200
C 	C 	0.74710 0.18690 0.79890 0.11300
N 	N 	0.77340 0.17210 0.75880 -0.14500
O 	O 	0.56790 0.05470 0.89400 1.25900
O 	O 	0.56680 0.03260 0.82050 -0.41000
O 	O 	0.44270 0.92810 0.89380 3.44800
O 	O 	0.46310 0.93180 0.82020 -0.41500
C 	C 	0.42590 0.93030 0.85050 0.32700
C 	C 	0.38100 0.89840 0.83830 -0.08400
C 	C 	0.36220 0.89940 0.79050 0.05000
C 	C 	0.35800 0.86890 0.87280 0.05700
H 	H 	0.37820 0.91820 0.76600 0.14000
C 	C 	0.31980 0.87250 0.77850 -0.08400
C 	C 	0.31610 0.84040 0.86110 -0.08800
H 	H 	0.37080 0.86770 0.90520 0.03600
H 	H 	0.30680 0.87450 0.74630 0.14700
C 	C 	0.29680 0.84310 0.81280 0.07100
H 	H 	0.30130 0.81990 0.88500 0.13200
C 	C 	0.25290 0.81310 0.79890 0.12500
N 	N 	0.22660 0.82790 0.75880 -0.11800
O 	O 	0.43210 0.94530 0.89400 -3.82700
O 	O 	0.43320 0.96740 0.82050 0.10100
O 	O 	0.10620 0.44270 0.07190 -3.52800
O 	O 	0.17980 0.46310 0.06820 -0.09200
C 	C 	0.14950 0.42590 0.06970 0.46100
C 	C 	0.16170 0.38100 0.10160 -0.13900
C 	C 	0.20950 0.36220 0.10060 0.04900
C 	C 	0.12720 0.35800 0.13110 0.03200
H 	H 	0.23400 0.37820 0.08180 -0.06900
C 	C 	0.22150 0.31980 0.12750 -0.14100
C 	C 	0.13890 0.31610 0.15960 -0.13200
H 	H 	0.09480 0.37080 0.13230 0.03100
H 	H 	0.25370 0.30680 0.12550 0.01500
C 	C 	0.18720 0.29680 0.15690 0.02400
H 	H 	0.11500 0.30130 0.18010 0.02400
C 	C 	0.20110 0.25290 0.18690 0.07000
N 	N 	0.24120 0.22660 0.17210 -0.15800
O 	O 	0.10600 0.43210 0.05470 3.17800
O 	O 	0.17950 0.43320 0.03260 -0.54000
O 	O 	0.10620 0.55730 0.92810 5.81100
O 	O 	0.17980 0.53690 0.93180 -0.49500
C 	C 	0.14950 0.57410 0.93030 0.35800
C 	C 	0.16170 0.61900 0.89840 -0.12800
C 	C 	0.20950 0.63780 0.89940 0.09300
C 	C 	0.12720 0.64200 0.86890 0.09200
H 	H 	0.23400 0.62180 0.91820 0.13200
C 	C 	0.22150 0.68020 0.87250 -0.10600
C 	C 	0.13890 0.68390 0.84040 -0.13000
H 	H 	0.09480 0.62920 0.86770 -0.08300
H 	H 	0.25370 0.69320 0.87450 0.15500
C 	C 	0.18720 0.70320 0.84310 0.07600
H 	H 	0.11500 0.69870 0.81990 0.06300
C 	C 	0.20110 0.74710 0.81310 0.11300
N 	N 	0.24120 0.77340 0.82790 -0.11700
O 	O 	0.10600 0.56790 0.94530 -6.19700
O 	O 	0.17950 0.56680 0.96740 0.23100
O 	O 	0.89380 0.55730 0.07190 -1.42400
O 	O 	0.82020 0.53690 0.06820 -0.17200
C 	C 	0.85050 0.57410 0.06970 0.44600
C 	C 	0.83830 0.61900 0.10160 -0.10000
C 	C 	0.79050 0.63780 0.10060 0.05400
C 	C 	0.87280 0.64200 0.13110 0.05100
H 	H 	0.76600 0.62180 0.08180 -0.07200
C 	C 	0.77850 0.68020 0.12750 -0.13200
C 	C 	0.86110 0.68390 0.15960 -0.09500
H 	H 	0.90520 0.62920 0.13230 0.12300
H 	H 	0.74630 0.69320 0.12550 0.02000
C 	C 	0.81280 0.70320 0.15690 0.05700
H 	H 	0.88500 0.69870 0.18010 0.13200
C 	C 	0.79890 0.74710 0.18690 0.11300
N 	N 	0.75880 0.77340 0.17210 -0.14500
O 	O 	0.89400 0.56790 0.05470 1.25900
O 	O 	0.82050 0.56680 0.03260 -0.41000
O 	O 	0.89380 0.44270 0.92810 3.44800
O 	O 	0.82020 0.46310 0.93180 -0.41500
C 	C 	0.85050 0.42590 0.93030 0.32700
C 	C 	0.83830 0.38100 0.89840 -0.08400
C 	C 	0.79050 0.36220 0.89940 0.05000
C 	C 	0.87280 0.35800 0.86890 0.05700
H 	H 	0.76600 0.37820 0.91820 0.14000
C 	C 	0.77850 0.31980 0.87250 -0.08400
C 	C 	0.86110 0.31610 0.84040 -0.08800
H 	H 	0.90520 0.37080 0.86770 0.03600
H 	H 	0.74630 0.30680 0.87450 0.14700
C 	C 	0.81280 0.29680 0.84310 0.07100
H 	H 	0.88500 0.30130 0.81990 0.13200
C 	C 	0.79890 0.25290 0.81310 0.12500
N 	N 	0.75880 0.22660 0.82790 -0.11800
O 	O 	0.89400 0.43210 0.94530 -3.82700
O 	O 	0.82050 0.43320 0.96740 0.10100
O 	O 	0.07190 0.10620 0.44270 -3.52800
O 	O 	0.06820 0.17980 0.46310 -0.09200
C 	C 	0.06970 0.14950 0.42590 0.46100
C 	C 	0.10160 0.16170 0.38100 -0.13900
C 	C 	0.10060 0.20950 0.36220 0.04900
C 	C 	0.13110 0.12720 0.35800 0.03200
H 	H 	0.08180 0.23400 0.37820 -0.06900
C 	C 	0.12750 0.22150 0.31980 -0.14100
C 	C 	0.15960 0.13890 0.31610 -0.13200
H 	H 	0.13230 0.09480 0.37080 0.03100
H 	H 	0.12550 0.25370 0.30680 0.01500
C 	C 	0.15690 0.18720 0.29680 0.02400
H 	H 	0.18010 0.11500 0.30130 0.02400
C 	C 	0.18690 0.20110 0.25290 0.07000
N 	N 	0.17210 0.24120 0.22660 -0.15800
O 	O 	0.05470 0.10600 0.43210 3.17800
O 	O 	0.03260 0.17950 0.43320 -0.54000
O 	O 	0.92810 0.10620 0.55730 5.81100
O 	O 	0.93180 0.17980 0.53690 -0.49500
C 	C 	0.93030 0.14950 0.57410 0.35800
C 	C 	0.89840 0.16170 0.61900 -0.12800
C 	C 	0.89940 0.20950 0.63780 0.09300
C 	C 	0.86890 0.12720 0.64200 0.09200
H 	H 	0.91820 0.23400 0.62180 0.13200
C 	C 	0.87250 0.22150 0.68020 -0.10600
C 	C 	0.84040 0.13890 0.68390 -0.13000
H 	H 	0.86770 0.09480 0.62920 -0.08300
H 	H 	0.87450 0.25370 0.69320 0.15500
C 	C 	0.84310 0.18720 0.70320 0.07600
H 	H 	0.81990 0.11500 0.69870 0.06300
C 	C 	0.81310 0.20110 0.74710 0.11300
N 	N 	0.82790 0.24120 0.77340 -0.11700
O 	O 	0.94530 0.10600 0.56790 -6.19700
O 	O 	0.96740 0.17950 0.56680 0.23100
O 	O 	0.07190 0.89380 0.55730 -1.42400
O 	O 	0.06820 0.82020 0.53690 -0.17200
C 	C 	0.06970 0.85050 0.57410 0.44600
C 	C 	0.10160 0.83830 0.61900 -0.10000
C 	C 	0.10060 0.79050 0.63780 0.05400
C 	C 	0.13110 0.87280 0.64200 0.05100
H 	H 	0.08180 0.76600 0.62180 -0.07200
C 	C 	0.12750 0.77850 0.68020 -0.13200
C 	C 	0.15960 0.86110 0.68390 -0.09500
H 	H 	0.13230 0.90520 0.62920 0.12300
H 	H 	0.12550 0.74630 0.69320 0.02000
C 	C 	0.15690 0.81280 0.70320 0.05700
H 	H 	0.18010 0.88500 0.69870 0.13200
C 	C 	0.18690 0.79890 0.74710 0.11300
N 	N 	0.17210 0.75880 0.77340 -0.14500
O 	O 	0.05470 0.89400 0.56790 1.25900
O 	O 	0.03260 0.82050 0.56680 -0.41000
O 	O 	0.92810 0.89380 0.44270 3.44800
O 	O 	0.93180 0.82020 0.46310 -0.41500
C 	C 	0.93030 0.85050 0.42590 0.32700
C 	C 	0.89840 0.83830 0.38100 -0.08400
C 	C 	0.89940 0.79050 0.36220 0.05000
C 	C 	0.86890 0.87280 0.35800 0.05700
H 	H 	0.91820 0.76600 0.37820 0.14000
C 	C 	0.87250 0.77850 0.31980 -0.08400
C 	C 	0.84040 0.86110 0.31610 -0.08800
H 	H 	0.86770 0.90520 0.37080 0.03600
H 	H 	0.87450 0.74630 0.30680 0.14700
C 	C 	0.84310 0.81280 0.29680 0.07100
H 	H 	0.81990 0.88500 0.30130 0.13200
C 	C 	0.81310 0.79890 0.25290 0.12500
N 	N 	0.82790 0.75880 0.22660 -0.11800
O 	O 	0.94530 0.89400 0.43210 -3.82700
O 	O 	0.96740 0.82050 0.43320 0.10100
Tb	Tb	0.50000 0.00000 0.87297 1.66300
O 	O 	0.50000 0.00000 0.95770 -0.17500
Tb	Tb	0.50000 0.00000 0.12703 1.64900
O 	O 	0.50000 0.00000 0.04230 -0.45200
Tb	Tb	0.87297 0.50000 -0.00000 1.66300
O 	O 	0.95770 0.50000 -0.00000 -0.17500
Tb	Tb	0.12703 0.50000 -0.00000 1.64900
O 	O 	0.04230 0.50000 -0.00000 -0.45200
Tb	Tb	0.00000 0.87297 0.50000 1.66300
O 	O 	0.00000 0.95770 0.50000 -0.17500
Tb	Tb	-0.00000 0.12703 0.50000 1.64900
O 	O 	-0.00000 0.04230 0.50000 -0.45200
C 	C 	0.51750 0.00000 -0.00000 0.09400
C 	C 	0.48250 0.00000 -0.00000 -0.18400
C 	C 	-0.00000 0.51750 -0.00000 0.09400
C 	C 	-0.00000 0.48250 -0.00000 -0.18400
C 	C 	0.00000 0.00000 0.51750 0.09400
C 	C 	0.00000 0.00000 0.48250 -0.18400
