data_crystal

_cell_length_a 28.83400
_cell_length_b 16.38100
_cell_length_c 23.19900
_cell_angle_alpha 90.00000
_cell_angle_beta  92.89300
_cell_angle_gamma 90.00000

_symmetry_space_group_name_	'P 1'
_symmetry_space_group_name_H-M	'P 1'

loop_
_symmetry_equiv_pos_as_xyz
  x,y,z

loop_
_atom_site_label
_atom_site_type_symbol
_atom_site_fract_x
_atom_site_fract_y
_atom_site_fract_z
_atom_site_charge
Co	Co	0.79806 0.71863 0.03516 1.19200
Co	Co	0.79511 0.60635 0.15666 1.13600
Co	Co	0.70884 0.75547 0.12981 1.15900
O 	O 	0.83554 0.61350 0.02550 -0.44300
O 	O 	0.81482 0.52597 0.09462 -0.47500
O 	O 	0.95339 0.30230 0.96141 -0.29700
O 	O 	0.16622 0.23888 0.03774 -0.47800
O 	O 	0.14036 0.28590 0.11915 -0.41900
O 	O 	0.83778 0.78428 0.09316 -0.44000
O 	O 	0.85230 0.68366 0.15687 -0.45400
O 	O 	0.75595 0.82299 0.02397 -0.55600
O 	O 	0.73208 0.87213 0.10698 -0.41900
O 	O 	0.81055 0.18340 0.97365 -0.30300
O 	O 	0.72708 0.22210 0.71380 -0.45200
O 	O 	0.77226 0.33210 0.72645 -0.49200
O 	O 	0.75527 0.67601 0.09884 -0.79200
H 	H 	0.73730 0.64210 0.08130 0.23500
C 	C 	0.83598 0.54460 0.05009 0.40800
C 	C 	0.86526 0.47920 0.02474 -0.20300
C 	C 	0.86021 0.39830 0.03974 0.15300
H 	H 	0.83670 0.38310 0.06490 -0.01000
C 	C 	0.88925 0.33870 0.01850 -0.27200
H 	H 	0.88550 0.28300 0.02860 0.14000
C 	C 	0.92351 0.36170 0.98260 0.28000
C 	C 	0.92878 0.44180 0.96590 -0.26200
H 	H 	0.95220 0.45670 0.94050 0.12700
C 	C 	0.89912 0.50060 0.98700 0.14500
H 	H 	0.90210 0.55590 0.97550 -0.00000
C 	C 	0.13306 0.26620 0.06666 0.36100
C 	C 	0.08542 0.27400 0.04060 -0.17700
C 	C 	0.05030 0.31150 0.07100 0.12200
H 	H 	0.05690 0.32980 0.10940 0.00600
C 	C 	0.00608 0.32200 0.04560 -0.23300
H 	H 	0.98260 0.34810 0.06620 0.11100
C 	C 	0.99635 0.29430 0.99000 0.25700
C 	C 	0.03052 0.25480 0.95990 -0.22600
H 	H 	0.02350 0.23410 0.92220 0.12200
C 	C 	0.07467 0.24570 0.98510 0.12100
H 	H 	0.09800 0.21980 0.96420 0.00200
C 	C 	0.85821 0.75370 0.13698 0.40700
C 	C 	0.89467 0.80590 0.16800 -0.19400
C 	C 	0.91043 0.87770 0.14379 0.14000
H 	H 	0.89700 0.89550 0.10770 -0.00100
C 	C 	0.94513 0.92350 0.17110 -0.25600
H 	H 	0.95590 0.97200 0.15380 0.12800
C 	C 	0.96406 0.89760 0.22410 0.27400
C 	C 	0.94751 0.82860 0.25040 -0.26000
H 	H 	0.95980 0.81260 0.28750 0.12500
C 	C 	0.91269 0.78250 0.22210 0.14100
H 	H 	0.90120 0.73490 0.23990 -0.00600
C 	C 	0.75097 0.88100 0.05963 0.41000
C 	C 	0.76855 0.96220 0.04150 -0.20600
C 	C 	0.74913 0.03470 0.05997 0.15400
H 	H 	0.72640 0.03360 0.08820 -0.00700
C 	C 	0.76278 0.10880 0.03730 -0.26600
H 	H 	0.74940 0.15850 0.04950 0.13800
C 	C 	0.79642 0.10880 0.99659 0.28400
C 	C 	0.81758 0.03800 0.97980 -0.27100
H 	H 	0.84160 0.03980 0.95330 0.12300
C 	C 	0.80353 0.96390 0.00186 0.13700
H 	H 	0.81760 0.91450 0.99010 -0.01900
C 	C 	0.75431 0.26780 0.74359 0.42100
C 	C 	0.76758 0.24360 0.80484 -0.20800
C 	C 	0.74611 0.17960 0.83199 0.15400
H 	H 	0.72160 0.15100 0.81200 -0.01800
C 	C 	0.75981 0.15640 0.88791 -0.27800
H 	H 	0.74510 0.11190 0.90590 0.12500
C 	C 	0.79517 0.19920 0.91690 0.28300
C 	C 	0.81732 0.26370 0.89070 -0.26400
H 	H 	0.84180 0.29220 0.91090 0.13800
C 	C 	0.80335 0.28590 0.83482 0.15000
H 	H 	0.81820 0.33020 0.81680 -0.01200
Co	Co	0.29806 0.21863 0.03516 1.19100
Co	Co	0.29511 0.10635 0.15666 1.13500
Co	Co	0.20884 0.25547 0.12981 1.15800
O 	O 	0.33554 0.11350 0.02550 -0.44300
O 	O 	0.31482 0.02597 0.09462 -0.47500
O 	O 	0.45339 0.80230 0.96141 -0.30100
O 	O 	0.66622 0.73888 0.03774 -0.47800
O 	O 	0.64036 0.78590 0.11915 -0.42000
O 	O 	0.33778 0.28428 0.09316 -0.44000
O 	O 	0.35230 0.18366 0.15687 -0.45400
O 	O 	0.25595 0.32299 0.02397 -0.55700
O 	O 	0.23208 0.37213 0.10698 -0.41900
O 	O 	0.31055 0.68340 0.97365 -0.30200
O 	O 	0.22708 0.72210 0.71380 -0.45200
O 	O 	0.27226 0.83210 0.72645 -0.49200
O 	O 	0.25527 0.17601 0.09884 -0.79200
H 	H 	0.23730 0.14210 0.08130 0.23500
C 	C 	0.33598 0.04460 0.05009 0.40800
C 	C 	0.36526 0.97920 0.02474 -0.20200
C 	C 	0.36021 0.89830 0.03974 0.15300
H 	H 	0.33670 0.88310 0.06490 -0.01000
C 	C 	0.38925 0.83870 0.01850 -0.27200
H 	H 	0.38550 0.78300 0.02860 0.14100
C 	C 	0.42351 0.86170 0.98260 0.28100
C 	C 	0.42878 0.94180 0.96590 -0.26300
H 	H 	0.45220 0.95670 0.94050 0.12800
C 	C 	0.39912 0.00060 0.98700 0.14700
H 	H 	0.40210 0.05590 0.97550 0.00000
C 	C 	0.63306 0.76620 0.06666 0.36400
C 	C 	0.58542 0.77400 0.04060 -0.18600
C 	C 	0.55030 0.81150 0.07100 0.13700
H 	H 	0.55690 0.82980 0.10940 0.00000
C 	C 	0.50608 0.82200 0.04560 -0.25700
H 	H 	0.48260 0.84810 0.06620 0.12200
C 	C 	0.49635 0.79430 0.99000 0.27700
C 	C 	0.53052 0.75480 0.95990 -0.24200
H 	H 	0.52350 0.73410 0.92220 0.12700
C 	C 	0.57467 0.74570 0.98510 0.13100
H 	H 	0.59800 0.71980 0.96420 -0.00200
C 	C 	0.35821 0.25370 0.13698 0.40800
C 	C 	0.39467 0.30590 0.16800 -0.19500
C 	C 	0.41043 0.37770 0.14379 0.14300
H 	H 	0.39700 0.39550 0.10770 -0.00200
C 	C 	0.44513 0.42350 0.17110 -0.25900
H 	H 	0.45590 0.47200 0.15380 0.13100
C 	C 	0.46406 0.39760 0.22410 0.28100
C 	C 	0.44751 0.32860 0.25040 -0.26300
H 	H 	0.45980 0.31260 0.28750 0.12700
C 	C 	0.41269 0.28250 0.22210 0.14400
H 	H 	0.40120 0.23490 0.23990 -0.00700
C 	C 	0.25097 0.38100 0.05963 0.41000
C 	C 	0.26855 0.46220 0.04150 -0.20600
C 	C 	0.24913 0.53470 0.05997 0.15400
H 	H 	0.22640 0.53360 0.08820 -0.00700
C 	C 	0.26278 0.60880 0.03730 -0.26500
H 	H 	0.24940 0.65850 0.04950 0.13800
C 	C 	0.29642 0.60880 0.99659 0.28300
C 	C 	0.31758 0.53800 0.97980 -0.26900
H 	H 	0.34160 0.53980 0.95330 0.12200
C 	C 	0.30353 0.46390 0.00186 0.13500
H 	H 	0.31760 0.41450 0.99010 -0.01800
C 	C 	0.25431 0.76780 0.74359 0.42100
C 	C 	0.26758 0.74360 0.80484 -0.20800
C 	C 	0.24611 0.67960 0.83199 0.15400
H 	H 	0.22160 0.65100 0.81200 -0.01800
C 	C 	0.25981 0.65640 0.88791 -0.27800
H 	H 	0.24510 0.61190 0.90590 0.12500
C 	C 	0.29517 0.69920 0.91690 0.28300
C 	C 	0.31732 0.76370 0.89070 -0.26400
H 	H 	0.34180 0.79220 0.91090 0.13800
C 	C 	0.30335 0.78590 0.83482 0.15000
H 	H 	0.31820 0.83020 0.81680 -0.01200
Co	Co	0.20194 0.71863 0.46484 1.19100
Co	Co	0.20489 0.60635 0.34334 1.13500
Co	Co	0.29116 0.75547 0.37019 1.15800
O 	O 	0.16446 0.61350 0.47450 -0.44300
O 	O 	0.18518 0.52597 0.40538 -0.47500
O 	O 	0.04661 0.30230 0.53859 -0.30500
O 	O 	0.83378 0.23888 0.46226 -0.47900
O 	O 	0.85964 0.28590 0.38085 -0.42100
O 	O 	0.16222 0.78428 0.40684 -0.44000
O 	O 	0.14770 0.68366 0.34313 -0.45400
O 	O 	0.24405 0.82299 0.47603 -0.55600
O 	O 	0.26792 0.87213 0.39302 -0.41900
O 	O 	0.18945 0.18340 0.52635 -0.30200
O 	O 	0.27292 0.22210 0.78620 -0.45200
O 	O 	0.22774 0.33210 0.77355 -0.49200
O 	O 	0.24473 0.67601 0.40116 -0.79200
H 	H 	0.26270 0.64210 0.41870 0.23500
C 	C 	0.16402 0.54460 0.44991 0.40800
C 	C 	0.13474 0.47920 0.47526 -0.20300
C 	C 	0.13979 0.39830 0.46026 0.15400
H 	H 	0.16330 0.38310 0.43510 -0.01000
C 	C 	0.11075 0.33870 0.48150 -0.27300
H 	H 	0.11450 0.28300 0.47140 0.14200
C 	C 	0.07649 0.36170 0.51740 0.28400
C 	C 	0.07122 0.44180 0.53410 -0.26300
H 	H 	0.04780 0.45670 0.55950 0.12900
C 	C 	0.10088 0.50060 0.51300 0.14600
H 	H 	0.09790 0.55590 0.52450 0.00000
C 	C 	0.86694 0.26620 0.43334 0.36800
C 	C 	0.91458 0.27400 0.45940 -0.19700
C 	C 	0.94970 0.31150 0.42900 0.15300
H 	H 	0.94310 0.32980 0.39060 -0.00600
C 	C 	0.99392 0.32200 0.45440 -0.28500
H 	H 	0.01740 0.34810 0.43380 0.13400
C 	C 	0.00365 0.29430 0.51000 0.29800
C 	C 	0.96948 0.25480 0.54010 -0.26100
H 	H 	0.97650 0.23410 0.57780 0.13200
C 	C 	0.92533 0.24570 0.51490 0.14400
H 	H 	0.90200 0.21980 0.53580 -0.00600
C 	C 	0.14179 0.75370 0.36302 0.40800
C 	C 	0.10533 0.80590 0.33200 -0.19500
C 	C 	0.08957 0.87770 0.35621 0.14300
H 	H 	0.10300 0.89550 0.39230 -0.00200
C 	C 	0.05487 0.92350 0.32890 -0.25900
H 	H 	0.04410 0.97200 0.34620 0.13100
C 	C 	0.03594 0.89760 0.27590 0.28100
C 	C 	0.05249 0.82860 0.24960 -0.26200
H 	H 	0.04020 0.81260 0.21250 0.12800
C 	C 	0.08731 0.78250 0.27790 0.14400
H 	H 	0.09880 0.73490 0.26010 -0.00600
C 	C 	0.24903 0.88100 0.44037 0.41000
C 	C 	0.23145 0.96220 0.45850 -0.20700
C 	C 	0.25087 0.03470 0.44003 0.15400
H 	H 	0.27360 0.03360 0.41180 -0.00700
C 	C 	0.23722 0.10880 0.46270 -0.26500
H 	H 	0.25060 0.15850 0.45050 0.13800
C 	C 	0.20358 0.10880 0.50341 0.28300
C 	C 	0.18242 0.03800 0.52020 -0.27100
H 	H 	0.15840 0.03980 0.54670 0.12300
C 	C 	0.19647 0.96390 0.49814 0.13800
H 	H 	0.18240 0.91450 0.50990 -0.01900
C 	C 	0.24569 0.26780 0.75641 0.42100
C 	C 	0.23242 0.24360 0.69516 -0.20800
C 	C 	0.25389 0.17960 0.66801 0.15400
H 	H 	0.27840 0.15100 0.68800 -0.01800
C 	C 	0.24019 0.15640 0.61209 -0.27800
H 	H 	0.25490 0.11190 0.59410 0.12500
C 	C 	0.20483 0.19920 0.58310 0.28300
C 	C 	0.18268 0.26370 0.60930 -0.26400
H 	H 	0.15820 0.29220 0.58910 0.13800
C 	C 	0.19665 0.28590 0.66518 0.15000
H 	H 	0.18180 0.33020 0.68320 -0.01200
Co	Co	0.70194 0.21863 0.46484 1.19100
Co	Co	0.70489 0.10635 0.34334 1.13500
Co	Co	0.79116 0.25547 0.37019 1.15800
O 	O 	0.66446 0.11350 0.47450 -0.44200
O 	O 	0.68518 0.02597 0.40538 -0.47500
O 	O 	0.54661 0.80230 0.53859 -0.30100
O 	O 	0.33378 0.73888 0.46226 -0.47800
O 	O 	0.35964 0.78590 0.38085 -0.42000
O 	O 	0.66222 0.28428 0.40684 -0.44000
O 	O 	0.64770 0.18366 0.34313 -0.45400
O 	O 	0.74405 0.32299 0.47603 -0.55600
O 	O 	0.76792 0.37213 0.39302 -0.41900
O 	O 	0.68945 0.68340 0.52635 -0.30200
O 	O 	0.77292 0.72210 0.78620 -0.45200
O 	O 	0.72774 0.83210 0.77355 -0.49300
O 	O 	0.74473 0.17601 0.40116 -0.79200
H 	H 	0.76270 0.14210 0.41870 0.23500
C 	C 	0.66402 0.04460 0.44991 0.40800
C 	C 	0.63474 0.97920 0.47526 -0.20200
C 	C 	0.63979 0.89830 0.46026 0.15300
H 	H 	0.66330 0.88310 0.43510 -0.01000
C 	C 	0.61075 0.83870 0.48150 -0.27100
H 	H 	0.61450 0.78300 0.47140 0.14100
C 	C 	0.57649 0.86170 0.51740 0.28100
C 	C 	0.57122 0.94180 0.53410 -0.26100
H 	H 	0.54780 0.95670 0.55950 0.12800
C 	C 	0.60088 0.00060 0.51300 0.14500
H 	H 	0.59790 0.05590 0.52450 0.00000
C 	C 	0.36694 0.76620 0.43334 0.36400
C 	C 	0.41458 0.77400 0.45940 -0.18600
C 	C 	0.44970 0.81150 0.42900 0.13700
H 	H 	0.44310 0.82980 0.39060 0.00000
C 	C 	0.49392 0.82200 0.45440 -0.25700
H 	H 	0.51740 0.84810 0.43380 0.12200
C 	C 	0.50365 0.79430 0.51000 0.27700
C 	C 	0.46948 0.75480 0.54010 -0.24200
H 	H 	0.47650 0.73410 0.57780 0.12700
C 	C 	0.42533 0.74570 0.51490 0.13100
H 	H 	0.40200 0.71980 0.53580 -0.00200
C 	C 	0.64179 0.25370 0.36302 0.40800
C 	C 	0.60533 0.30590 0.33200 -0.19500
C 	C 	0.58957 0.37770 0.35621 0.14300
H 	H 	0.60300 0.39550 0.39230 -0.00200
C 	C 	0.55487 0.42350 0.32890 -0.25900
H 	H 	0.54410 0.47200 0.34620 0.13100
C 	C 	0.53594 0.39760 0.27590 0.28100
C 	C 	0.55249 0.32860 0.24960 -0.26300
H 	H 	0.54020 0.31260 0.21250 0.12700
C 	C 	0.58731 0.28250 0.27790 0.14400
H 	H 	0.59880 0.23490 0.26010 -0.00700
C 	C 	0.74903 0.38100 0.44037 0.41000
C 	C 	0.73145 0.46220 0.45850 -0.20700
C 	C 	0.75087 0.53470 0.44003 0.15500
H 	H 	0.77360 0.53360 0.41180 -0.00700
C 	C 	0.73722 0.60880 0.46270 -0.26500
H 	H 	0.75060 0.65850 0.45050 0.13800
C 	C 	0.70358 0.60880 0.50341 0.28300
C 	C 	0.68242 0.53800 0.52020 -0.27100
H 	H 	0.65840 0.53980 0.54670 0.12300
C 	C 	0.69647 0.46390 0.49814 0.13800
H 	H 	0.68240 0.41450 0.50990 -0.01900
C 	C 	0.74569 0.76780 0.75641 0.42100
C 	C 	0.73242 0.74360 0.69516 -0.20800
C 	C 	0.75389 0.67960 0.66801 0.15400
H 	H 	0.77840 0.65100 0.68800 -0.01800
C 	C 	0.74019 0.65640 0.61209 -0.27800
H 	H 	0.75490 0.61190 0.59410 0.12500
C 	C 	0.70483 0.69920 0.58310 0.28300
C 	C 	0.68268 0.76370 0.60930 -0.26400
H 	H 	0.65820 0.79220 0.58910 0.13800
C 	C 	0.69665 0.78590 0.66518 0.15000
H 	H 	0.68180 0.83020 0.68320 -0.01200
Co	Co	0.20194 0.28137 0.96484 1.19100
Co	Co	0.20489 0.39365 0.84334 1.13500
Co	Co	0.29116 0.24453 0.87019 1.15800
O 	O 	0.16446 0.38650 0.97450 -0.44200
O 	O 	0.18518 0.47403 0.90538 -0.47500
O 	O 	0.04661 0.69770 0.03859 -0.30500
O 	O 	0.83378 0.76112 0.96226 -0.47900
O 	O 	0.85964 0.71410 0.88085 -0.42100
O 	O 	0.16222 0.21572 0.90684 -0.44000
O 	O 	0.14770 0.31634 0.84313 -0.45400
O 	O 	0.24405 0.17701 0.97603 -0.55600
O 	O 	0.26792 0.12787 0.89302 -0.41900
O 	O 	0.18945 0.81660 0.02635 -0.30300
O 	O 	0.27292 0.77790 0.28620 -0.45200
O 	O 	0.22774 0.66790 0.27355 -0.49200
O 	O 	0.24473 0.32399 0.90116 -0.79200
H 	H 	0.26270 0.35790 0.91870 0.23500
C 	C 	0.16402 0.45540 0.94991 0.40800
C 	C 	0.13474 0.52080 0.97526 -0.20200
C 	C 	0.13979 0.60170 0.96026 0.15400
H 	H 	0.16330 0.61690 0.93510 -0.01000
C 	C 	0.11075 0.66130 0.98150 -0.27200
H 	H 	0.11450 0.71700 0.97140 0.14100
C 	C 	0.07649 0.63830 0.01740 0.28300
C 	C 	0.07122 0.55820 0.03410 -0.26300
H 	H 	0.04780 0.54330 0.05950 0.12900
C 	C 	0.10088 0.49940 0.01300 0.14500
H 	H 	0.09790 0.44410 0.02450 0.00000
C 	C 	0.86694 0.73380 0.93334 0.36700
C 	C 	0.91458 0.72600 0.95940 -0.19600
C 	C 	0.94970 0.68850 0.92900 0.15200
H 	H 	0.94310 0.67020 0.89060 -0.00600
C 	C 	0.99392 0.67800 0.95440 -0.28400
H 	H 	0.01740 0.65190 0.93380 0.13300
C 	C 	0.00365 0.70570 0.01000 0.29800
C 	C 	0.96948 0.74520 0.04010 -0.26100
H 	H 	0.97650 0.76590 0.07780 0.13100
C 	C 	0.92533 0.75430 0.01490 0.14300
H 	H 	0.90200 0.78020 0.03580 -0.00600
C 	C 	0.14179 0.24630 0.86302 0.40800
C 	C 	0.10533 0.19410 0.83200 -0.19500
C 	C 	0.08957 0.12230 0.85621 0.14300
H 	H 	0.10300 0.10450 0.89230 -0.00200
C 	C 	0.05487 0.07650 0.82890 -0.25900
H 	H 	0.04410 0.02800 0.84620 0.13100
C 	C 	0.03594 0.10240 0.77590 0.28100
C 	C 	0.05249 0.17140 0.74960 -0.26200
H 	H 	0.04020 0.18740 0.71250 0.12800
C 	C 	0.08731 0.21750 0.77790 0.14400
H 	H 	0.09880 0.26510 0.76010 -0.00600
C 	C 	0.24903 0.11900 0.94037 0.41100
C 	C 	0.23145 0.03780 0.95850 -0.20800
C 	C 	0.25087 0.96530 0.94003 0.15500
H 	H 	0.27360 0.96640 0.91180 -0.00700
C 	C 	0.23722 0.89120 0.96270 -0.26600
H 	H 	0.25060 0.84150 0.95050 0.13800
C 	C 	0.20358 0.89120 0.00341 0.28400
C 	C 	0.18242 0.96200 0.02020 -0.27300
H 	H 	0.15840 0.96020 0.04670 0.12400
C 	C 	0.19647 0.03610 0.99814 0.14100
H 	H 	0.18240 0.08550 0.00990 -0.02100
C 	C 	0.24569 0.73220 0.25641 0.42100
C 	C 	0.23242 0.75640 0.19516 -0.20800
C 	C 	0.25389 0.82040 0.16801 0.15400
H 	H 	0.27840 0.84900 0.18800 -0.01800
C 	C 	0.24019 0.84360 0.11209 -0.27800
H 	H 	0.25490 0.88810 0.09410 0.12500
C 	C 	0.20483 0.80080 0.08310 0.28300
C 	C 	0.18268 0.73630 0.10930 -0.26400
H 	H 	0.15820 0.70780 0.08910 0.13800
C 	C 	0.19665 0.71410 0.16518 0.15000
H 	H 	0.18180 0.66980 0.18320 -0.01200
Co	Co	0.70194 0.78137 0.96484 1.19100
Co	Co	0.70489 0.89365 0.84334 1.13500
Co	Co	0.79116 0.74453 0.87019 1.15800
O 	O 	0.66446 0.88650 0.97450 -0.44200
O 	O 	0.68518 0.97403 0.90538 -0.47500
O 	O 	0.54661 0.19770 0.03859 -0.30000
O 	O 	0.33378 0.26112 0.96226 -0.47800
O 	O 	0.35964 0.21410 0.88085 -0.42000
O 	O 	0.66222 0.71572 0.90684 -0.44000
O 	O 	0.64770 0.81634 0.84313 -0.45400
O 	O 	0.74405 0.67701 0.97603 -0.55600
O 	O 	0.76792 0.62787 0.89302 -0.41900
O 	O 	0.68945 0.31660 0.02635 -0.30300
O 	O 	0.77292 0.27790 0.28620 -0.45200
O 	O 	0.72774 0.16790 0.27355 -0.49300
O 	O 	0.74473 0.82399 0.90116 -0.79200
H 	H 	0.76270 0.85790 0.91870 0.23500
C 	C 	0.66402 0.95540 0.94991 0.40700
C 	C 	0.63474 0.02080 0.97526 -0.20100
C 	C 	0.63979 0.10170 0.96026 0.15200
H 	H 	0.66330 0.11690 0.93510 -0.00900
C 	C 	0.61075 0.16130 0.98150 -0.26900
H 	H 	0.61450 0.21700 0.97140 0.14000
C 	C 	0.57649 0.13830 0.01740 0.27900
C 	C 	0.57122 0.05820 0.03410 -0.26200
H 	H 	0.54780 0.04330 0.05950 0.12800
C 	C 	0.60088 0.99940 0.01300 0.14400
H 	H 	0.59790 0.94410 0.02450 0.00100
C 	C 	0.36694 0.23380 0.93334 0.36300
C 	C 	0.41458 0.22600 0.95940 -0.18400
C 	C 	0.44970 0.18850 0.92900 0.13500
H 	H 	0.44310 0.17020 0.89060 0.00100
C 	C 	0.49392 0.17800 0.95440 -0.25400
H 	H 	0.51740 0.15190 0.93380 0.12100
C 	C 	0.50365 0.20570 0.01000 0.27400
C 	C 	0.46948 0.24520 0.04010 -0.24000
H 	H 	0.47650 0.26590 0.07780 0.12600
C 	C 	0.42533 0.25430 0.01490 0.12800
H 	H 	0.40200 0.28020 0.03580 -0.00100
C 	C 	0.64179 0.74630 0.86302 0.40800
C 	C 	0.60533 0.69410 0.83200 -0.19500
C 	C 	0.58957 0.62230 0.85621 0.14300
H 	H 	0.60300 0.60450 0.89230 -0.00200
C 	C 	0.55487 0.57650 0.82890 -0.25900
H 	H 	0.54410 0.52800 0.84620 0.13100
C 	C 	0.53594 0.60240 0.77590 0.28100
C 	C 	0.55249 0.67140 0.74960 -0.26300
H 	H 	0.54020 0.68740 0.71250 0.12700
C 	C 	0.58731 0.71750 0.77790 0.14400
H 	H 	0.59880 0.76510 0.76010 -0.00700
C 	C 	0.74903 0.61900 0.94037 0.41100
C 	C 	0.73145 0.53780 0.95850 -0.20800
C 	C 	0.75087 0.46530 0.94003 0.15500
H 	H 	0.77360 0.46640 0.91180 -0.00700
C 	C 	0.73722 0.39120 0.96270 -0.26400
H 	H 	0.75060 0.34150 0.95050 0.13800
C 	C 	0.70358 0.39120 0.00341 0.28300
C 	C 	0.68242 0.46200 0.02020 -0.27200
H 	H 	0.65840 0.46020 0.04670 0.12300
C 	C 	0.69647 0.53610 0.99814 0.13900
H 	H 	0.68240 0.58550 0.00990 -0.02000
C 	C 	0.74569 0.23220 0.25641 0.42100
C 	C 	0.73242 0.25640 0.19516 -0.20800
C 	C 	0.75389 0.32040 0.16801 0.15400
H 	H 	0.77840 0.34900 0.18800 -0.01800
C 	C 	0.74019 0.34360 0.11209 -0.27800
H 	H 	0.75490 0.38810 0.09410 0.12500
C 	C 	0.70483 0.30080 0.08310 0.28300
C 	C 	0.68268 0.23630 0.10930 -0.26400
H 	H 	0.65820 0.20780 0.08910 0.13800
C 	C 	0.69665 0.21410 0.16518 0.15000
H 	H 	0.68180 0.16980 0.18320 -0.01200
Co	Co	0.79806 0.28137 0.53516 1.19100
Co	Co	0.79511 0.39365 0.65666 1.13500
Co	Co	0.70884 0.24453 0.62981 1.15800
O 	O 	0.83554 0.38650 0.52550 -0.44200
O 	O 	0.81482 0.47403 0.59462 -0.47500
O 	O 	0.95339 0.69770 0.46141 -0.29600
O 	O 	0.16622 0.76112 0.53774 -0.47700
O 	O 	0.14036 0.71410 0.61915 -0.41900
O 	O 	0.83778 0.21572 0.59316 -0.44000
O 	O 	0.85230 0.31634 0.65687 -0.45400
O 	O 	0.75595 0.17701 0.52397 -0.55600
O 	O 	0.73208 0.12787 0.60698 -0.41900
O 	O 	0.81055 0.81660 0.47365 -0.30300
O 	O 	0.72708 0.77790 0.21380 -0.45200
O 	O 	0.77226 0.66790 0.22645 -0.49200
O 	O 	0.75527 0.32399 0.59884 -0.79200
H 	H 	0.73730 0.35790 0.58130 0.23500
C 	C 	0.83598 0.45540 0.55009 0.40800
C 	C 	0.86526 0.52080 0.52474 -0.20100
C 	C 	0.86021 0.60170 0.53974 0.15200
H 	H 	0.83670 0.61690 0.56490 -0.01000
C 	C 	0.88925 0.66130 0.51850 -0.27000
H 	H 	0.88550 0.71700 0.52860 0.14000
C 	C 	0.92351 0.63830 0.48260 0.27800
C 	C 	0.92878 0.55820 0.46590 -0.26000
H 	H 	0.95220 0.54330 0.44050 0.12600
C 	C 	0.89912 0.49940 0.48700 0.14300
H 	H 	0.90210 0.44410 0.47550 0.00100
C 	C 	0.13306 0.73380 0.56666 0.36000
C 	C 	0.08542 0.72600 0.54060 -0.17500
C 	C 	0.05030 0.68850 0.57100 0.12000
H 	H 	0.05690 0.67020 0.60940 0.00600
C 	C 	0.00608 0.67800 0.54560 -0.23000
H 	H 	0.98260 0.65190 0.56620 0.11000
C 	C 	0.99635 0.70570 0.49000 0.25500
C 	C 	0.03052 0.74520 0.45990 -0.22400
H 	H 	0.02350 0.76590 0.42220 0.12200
C 	C 	0.07467 0.75430 0.48510 0.11800
H 	H 	0.09800 0.78020 0.46420 0.00300
C 	C 	0.85821 0.24630 0.63698 0.40700
C 	C 	0.89467 0.19410 0.66800 -0.19400
C 	C 	0.91043 0.12230 0.64379 0.14000
H 	H 	0.89700 0.10450 0.60770 -0.00100
C 	C 	0.94513 0.07650 0.67110 -0.25600
H 	H 	0.95590 0.02800 0.65380 0.12800
C 	C 	0.96406 0.10240 0.72410 0.27400
C 	C 	0.94751 0.17140 0.75040 -0.26000
H 	H 	0.95980 0.18740 0.78750 0.12500
C 	C 	0.91269 0.21750 0.72210 0.14100
H 	H 	0.90120 0.26510 0.73990 -0.00600
C 	C 	0.75097 0.11900 0.55963 0.41000
C 	C 	0.76855 0.03780 0.54150 -0.20700
C 	C 	0.74913 0.96530 0.55997 0.15400
H 	H 	0.72640 0.96640 0.58820 -0.00700
C 	C 	0.76278 0.89120 0.53730 -0.26500
H 	H 	0.74940 0.84150 0.54950 0.13800
C 	C 	0.79642 0.89120 0.49659 0.28300
C 	C 	0.81758 0.96200 0.47980 -0.27100
H 	H 	0.84160 0.96020 0.45330 0.12300
C 	C 	0.80353 0.03610 0.50186 0.13700
H 	H 	0.81760 0.08550 0.49010 -0.01900
C 	C 	0.75431 0.73220 0.24359 0.42100
C 	C 	0.76758 0.75640 0.30484 -0.20800
C 	C 	0.74611 0.82040 0.33199 0.15400
H 	H 	0.72160 0.84900 0.31200 -0.01800
C 	C 	0.75981 0.84360 0.38791 -0.27800
H 	H 	0.74510 0.88810 0.40590 0.12500
C 	C 	0.79517 0.80080 0.41690 0.28300
C 	C 	0.81732 0.73630 0.39070 -0.26400
H 	H 	0.84180 0.70780 0.41090 0.13800
C 	C 	0.80335 0.71410 0.33482 0.15000
H 	H 	0.81820 0.66980 0.31680 -0.01200
Co	Co	0.29806 0.78137 0.53516 1.19100
Co	Co	0.29511 0.89365 0.65666 1.13500
Co	Co	0.20884 0.74453 0.62981 1.15800
O 	O 	0.33554 0.88650 0.52550 -0.44300
O 	O 	0.31482 0.97403 0.59462 -0.47500
O 	O 	0.45339 0.19770 0.46141 -0.30100
O 	O 	0.66622 0.26112 0.53774 -0.47800
O 	O 	0.64036 0.21410 0.61915 -0.42000
O 	O 	0.33778 0.71572 0.59316 -0.44000
O 	O 	0.35230 0.81634 0.65687 -0.45400
O 	O 	0.25595 0.67701 0.52397 -0.55600
O 	O 	0.23208 0.62787 0.60698 -0.41900
O 	O 	0.31055 0.31660 0.47365 -0.30200
O 	O 	0.22708 0.27790 0.21380 -0.45200
O 	O 	0.27226 0.16790 0.22645 -0.49200
O 	O 	0.25527 0.82399 0.59884 -0.79200
H 	H 	0.23730 0.85790 0.58130 0.23500
C 	C 	0.33598 0.95540 0.55009 0.40800
C 	C 	0.36526 0.02080 0.52474 -0.20200
C 	C 	0.36021 0.10170 0.53974 0.15300
H 	H 	0.33670 0.11690 0.56490 -0.01000
C 	C 	0.38925 0.16130 0.51850 -0.27200
H 	H 	0.38550 0.21700 0.52860 0.14100
C 	C 	0.42351 0.13830 0.48260 0.28100
C 	C 	0.42878 0.05820 0.46590 -0.26200
H 	H 	0.45220 0.04330 0.44050 0.12800
C 	C 	0.39912 0.99940 0.48700 0.14500
H 	H 	0.40210 0.94410 0.47550 0.00000
C 	C 	0.63306 0.23380 0.56666 0.36400
C 	C 	0.58542 0.22600 0.54060 -0.18600
C 	C 	0.55030 0.18850 0.57100 0.13700
H 	H 	0.55690 0.17020 0.60940 0.00000
C 	C 	0.50608 0.17800 0.54560 -0.25700
H 	H 	0.48260 0.15190 0.56620 0.12200
C 	C 	0.49635 0.20570 0.49000 0.27700
C 	C 	0.53052 0.24520 0.45990 -0.24200
H 	H 	0.52350 0.26590 0.42220 0.12700
C 	C 	0.57467 0.25430 0.48510 0.13100
H 	H 	0.59800 0.28020 0.46420 -0.00200
C 	C 	0.35821 0.74630 0.63698 0.40800
C 	C 	0.39467 0.69410 0.66800 -0.19500
C 	C 	0.41043 0.62230 0.64379 0.14300
H 	H 	0.39700 0.60450 0.60770 -0.00200
C 	C 	0.44513 0.57650 0.67110 -0.25900
H 	H 	0.45590 0.52800 0.65380 0.13100
C 	C 	0.46406 0.60240 0.72410 0.28100
C 	C 	0.44751 0.67140 0.75040 -0.26300
H 	H 	0.45980 0.68740 0.78750 0.12700
C 	C 	0.41269 0.71750 0.72210 0.14400
H 	H 	0.40120 0.76510 0.73990 -0.00700
C 	C 	0.25097 0.61900 0.55963 0.41000
C 	C 	0.26855 0.53780 0.54150 -0.20700
C 	C 	0.24913 0.46530 0.55997 0.15500
H 	H 	0.22640 0.46640 0.58820 -0.00700
C 	C 	0.26278 0.39120 0.53730 -0.26500
H 	H 	0.24940 0.34150 0.54950 0.13800
C 	C 	0.29642 0.39120 0.49659 0.28300
C 	C 	0.31758 0.46200 0.47980 -0.27100
H 	H 	0.34160 0.46020 0.45330 0.12300
C 	C 	0.30353 0.53610 0.50186 0.13700
H 	H 	0.31760 0.58550 0.49010 -0.01900
C 	C 	0.25431 0.23220 0.24359 0.42100
C 	C 	0.26758 0.25640 0.30484 -0.20800
C 	C 	0.24611 0.32040 0.33199 0.15400
H 	H 	0.22160 0.34900 0.31200 -0.01800
C 	C 	0.25981 0.34360 0.38791 -0.27800
H 	H 	0.24510 0.38810 0.40590 0.12500
C 	C 	0.29517 0.30080 0.41690 0.28300
C 	C 	0.31732 0.23630 0.39070 -0.26400
H 	H 	0.34180 0.20780 0.41090 0.13800
C 	C 	0.30335 0.21410 0.33482 0.15000
H 	H 	0.31820 0.16980 0.31680 -0.01200
O 	O 	0.00000 0.94330 0.25000 -0.29700
O 	O 	0.50000 0.44330 0.25000 -0.30200
O 	O 	0.00000 0.05670 0.75000 -0.29700
O 	O 	0.50000 0.55670 0.75000 -0.30200
