data_crystal

_cell_length_a 15.89830
_cell_length_b 26.42200
_cell_length_c 16.34180
_cell_angle_alpha 90.00000
_cell_angle_beta  116.88100
_cell_angle_gamma 90.00000

_symmetry_space_group_name_	'P 1'
_symmetry_space_group_name_H-M	'P 1'

loop_
_symmetry_equiv_pos_as_xyz
  x,y,z

loop_
_atom_site_label
_atom_site_type_symbol
_atom_site_fract_x
_atom_site_fract_y
_atom_site_fract_z
_atom_site_charge
Co	Co	0.23019 0.50347 0.52220 1.19000
Co	Co	0.44686 0.50841 0.67991 1.18900
Co	Co	0.39105 0.52369 0.44082 1.19200
N 	N 	0.08770 0.50248 0.50150 -0.18000
O 	O 	0.39150 0.44325 0.71120 -0.42900
O 	O 	0.24260 0.43873 0.60150 -0.42700
O 	O 	0.23510 0.25734 0.84870 -0.31200
O 	O 	0.48610 0.07336 0.84000 -0.42200
O 	O 	0.46820 0.05013 0.96270 -0.52900
O 	O 	0.25880 0.54857 0.63940 -0.44200
O 	O 	0.40390 0.55482 0.75290 -0.40700
O 	O 	0.17160 0.68748 0.90680 -0.30900
O 	O 	0.20240 0.92681 0.95560 -0.43100
O 	O 	0.33520 0.90765 0.94640 -0.43400
O 	O 	0.42070 0.54616 0.33500 -0.46700
O 	O 	0.42640 0.51052 0.21560 -0.39700
O 	O 	0.03730 0.62516 0.00390 -0.29400
O 	O 	0.81620 0.53981 0.59660 -0.43000
O 	O 	0.72890 0.50998 0.66160 -0.42800
O 	O 	0.36970 0.49622 0.54620 -0.92100
C 	C 	0.30920 0.42578 0.67620 0.40500
C 	C 	0.28920 0.38370 0.72620 -0.18900
C 	C 	0.19890 0.36310 0.69380 0.15300
H 	H 	0.14830 0.37810 0.64210 -0.00400
C 	C 	0.18110 0.32200 0.73460 -0.26900
H 	H 	0.11920 0.30840 0.71080 0.13500
C 	C 	0.25360 0.30040 0.81020 0.29600
C 	C 	0.34240 0.31980 0.84670 -0.26100
H 	H 	0.39120 0.30500 0.90010 0.12900
C 	C 	0.36200 0.36260 0.80400 0.13400
H 	H 	0.42380 0.37640 0.82850 0.00500
C 	C 	0.29000 0.21470 0.85820 0.32500
C 	C 	0.33900 0.20650 0.80980 -0.31800
H 	H 	0.33760 0.23100 0.76660 0.14700
C 	C 	0.39060 0.16330 0.82280 0.20100
H 	H 	0.42290 0.15810 0.78680 -0.01200
C 	C 	0.39770 0.12670 0.88570 -0.23500
C 	C 	0.34340 0.13480 0.93170 0.19300
H 	H 	0.34310 0.10990 0.97350 -0.03700
C 	C 	0.29000 0.17800 0.91820 -0.29700
H 	H 	0.25320 0.18250 0.95010 0.14800
C 	C 	0.45570 0.08020 0.89640 0.43000
C 	C 	0.31580 0.56395 0.71650 0.40800
C 	C 	0.28090 0.59591 0.76960 -0.20300
C 	C 	0.19290 0.62020 0.72290 0.16200
H 	H 	0.15680 0.61550 0.65860 -0.01000
C 	C 	0.15890 0.65050 0.76930 -0.28200
H 	H 	0.10050 0.66760 0.73670 0.13500
C 	C 	0.20850 0.65620 0.86190 0.29600
C 	C 	0.29450 0.63210 0.91070 -0.27600
H 	H 	0.32900 0.63620 0.97530 0.13700
C 	C 	0.32890 0.60210 0.86340 0.16100
H 	H 	0.38740 0.58520 0.89650 -0.00200
C 	C 	0.19030 0.73870 0.90980 0.29900
C 	C 	0.13410 0.77070 0.92980 -0.26900
H 	H 	0.08170 0.75780 0.93640 0.13600
C 	C 	0.15460 0.82230 0.94030 0.15500
H 	H 	0.11620 0.84450 0.95460 -0.00800
C 	C 	0.22970 0.84160 0.93020 -0.19800
C 	C 	0.28450 0.80870 0.90950 0.15700
H 	H 	0.33730 0.82150 0.90370 -0.00200
C 	C 	0.26460 0.75760 0.89700 -0.27500
H 	H 	0.30140 0.73580 0.87970 0.13200
C 	C 	0.25800 0.89730 0.94540 0.41300
C 	C 	0.38560 0.53817 0.24930 0.38600
C 	C 	0.29350 0.56237 0.18360 -0.19100
C 	C 	0.24460 0.59239 0.21450 0.14800
H 	H 	0.26980 0.59950 0.27820 -0.00600
C 	C 	0.15810 0.61290 0.15370 -0.25100
H 	H 	0.12350 0.63360 0.17540 0.13300
C 	C 	0.12310 0.60247 0.06030 0.29000
C 	C 	0.17170 0.57220 0.02880 -0.26900
H 	H 	0.14670 0.56470 0.96520 0.13300
C 	C 	0.25840 0.55260 0.09080 0.15000
H 	H 	0.29380 0.53240 0.06930 0.00500
C 	C 	0.98140 0.60170 0.91830 0.29200
C 	C 	0.94040 0.55550 0.91870 -0.26300
H 	H 	0.95310 0.53890 0.97470 0.12800
C 	C 	0.87980 0.53430 0.83430 0.15200
H 	H 	0.84860 0.50330 0.83270 -0.00200
C 	C 	0.86440 0.55740 0.75340 -0.19700
C 	C 	0.90980 0.60270 0.75610 0.16300
H 	H 	0.90120 0.61840 0.70060 -0.00900
C 	C 	0.96700 0.62500 0.83900 -0.27700
H 	H 	0.99640 0.65660 0.84070 0.14600
C 	C 	0.79840 0.53370 0.66260 0.41100
C 	C 	0.04070 0.45910 0.48720 -0.01000
H 	H 	0.05600 0.43300 0.47500 0.05000
C 	C 	0.04510 0.54380 0.51340 0.02300
H 	H 	0.07900 0.57410 0.52100 0.03400
H 	H 	0.38700 0.46900 0.55100 0.37500
Co	Co	0.76981 0.00347 0.97780 1.18900
Co	Co	0.55314 0.00841 0.82009 1.18800
Co	Co	0.60895 0.02369 0.05918 1.19200
N 	N 	0.91230 0.00248 0.99850 -0.18100
O 	O 	0.60850 0.94325 0.78880 -0.42800
O 	O 	0.75740 0.93873 0.89850 -0.42600
O 	O 	0.76490 0.75734 0.65130 -0.31200
O 	O 	0.51390 0.57336 0.66000 -0.42200
O 	O 	0.53180 0.55013 0.53730 -0.52900
O 	O 	0.74120 0.04857 0.86060 -0.44300
O 	O 	0.59610 0.05482 0.74710 -0.40700
O 	O 	0.82840 0.18748 0.59320 -0.30900
O 	O 	0.79760 0.42681 0.54440 -0.43200
O 	O 	0.66480 0.40765 0.55360 -0.43500
O 	O 	0.57930 0.04616 0.16500 -0.46600
O 	O 	0.57360 0.01052 0.28440 -0.39700
O 	O 	0.96270 0.12516 0.49610 -0.29400
O 	O 	0.18380 0.03981 0.90340 -0.43000
O 	O 	0.27110 0.00998 0.83840 -0.42900
O 	O 	0.63030 0.99622 0.95380 -0.91900
C 	C 	0.69080 0.92578 0.82380 0.40500
C 	C 	0.71080 0.88370 0.77380 -0.18800
C 	C 	0.80110 0.86310 0.80620 0.15300
H 	H 	0.85170 0.87810 0.85790 -0.00400
C 	C 	0.81890 0.82200 0.76540 -0.26900
H 	H 	0.88080 0.80840 0.78920 0.13500
C 	C 	0.74640 0.80040 0.68980 0.29600
C 	C 	0.65760 0.81980 0.65330 -0.26100
H 	H 	0.60880 0.80500 0.59990 0.12900
C 	C 	0.63800 0.86260 0.69600 0.13400
H 	H 	0.57620 0.87640 0.67150 0.00500
C 	C 	0.71000 0.71470 0.64180 0.32500
C 	C 	0.66100 0.70650 0.69020 -0.31800
H 	H 	0.66240 0.73100 0.73340 0.14700
C 	C 	0.60940 0.66330 0.67720 0.20100
H 	H 	0.57710 0.65810 0.71320 -0.01200
C 	C 	0.60230 0.62670 0.61430 -0.23500
C 	C 	0.65660 0.63480 0.56830 0.19300
H 	H 	0.65690 0.60990 0.52650 -0.03700
C 	C 	0.71000 0.67800 0.58180 -0.29600
H 	H 	0.74680 0.68250 0.54990 0.14800
C 	C 	0.54430 0.58020 0.60360 0.43000
C 	C 	0.68420 0.06395 0.78350 0.40800
C 	C 	0.71910 0.09591 0.73040 -0.20300
C 	C 	0.80710 0.12020 0.77710 0.16200
H 	H 	0.84320 0.11550 0.84140 -0.01100
C 	C 	0.84110 0.15050 0.73070 -0.28200
H 	H 	0.89950 0.16760 0.76330 0.13400
C 	C 	0.79150 0.15620 0.63810 0.29600
C 	C 	0.70550 0.13210 0.58930 -0.27600
H 	H 	0.67100 0.13620 0.52470 0.13700
C 	C 	0.67110 0.10210 0.63660 0.16100
H 	H 	0.61260 0.08520 0.60350 -0.00200
C 	C 	0.80970 0.23870 0.59020 0.29900
C 	C 	0.86590 0.27070 0.57020 -0.26900
H 	H 	0.91830 0.25780 0.56360 0.13600
C 	C 	0.84540 0.32230 0.55970 0.15500
H 	H 	0.88380 0.34450 0.54540 -0.00800
C 	C 	0.77030 0.34160 0.56980 -0.19800
C 	C 	0.71550 0.30870 0.59050 0.15700
H 	H 	0.66270 0.32150 0.59630 -0.00200
C 	C 	0.73540 0.25760 0.60300 -0.27500
H 	H 	0.69860 0.23580 0.62030 0.13200
C 	C 	0.74200 0.39730 0.55460 0.41300
C 	C 	0.61440 0.03817 0.25070 0.38500
C 	C 	0.70650 0.06237 0.31640 -0.19000
C 	C 	0.75540 0.09239 0.28550 0.14700
H 	H 	0.73020 0.09950 0.22180 -0.00600
C 	C 	0.84190 0.11290 0.34630 -0.25000
H 	H 	0.87650 0.13360 0.32460 0.13300
C 	C 	0.87690 0.10247 0.43970 0.28900
C 	C 	0.82830 0.07220 0.47120 -0.26700
H 	H 	0.85330 0.06470 0.53480 0.13200
C 	C 	0.74160 0.05260 0.40920 0.14900
H 	H 	0.70620 0.03240 0.43070 0.00500
C 	C 	0.01860 0.10170 0.58170 0.29200
C 	C 	0.05960 0.05550 0.58130 -0.26300
H 	H 	0.04690 0.03890 0.52530 0.12800
C 	C 	0.12020 0.03430 0.66570 0.15200
H 	H 	0.15140 0.00330 0.66730 -0.00200
C 	C 	0.13560 0.05740 0.74660 -0.19700
C 	C 	0.09020 0.10270 0.74390 0.16300
H 	H 	0.09880 0.11840 0.79940 -0.00900
C 	C 	0.03300 0.12500 0.66100 -0.27700
H 	H 	0.00360 0.15660 0.65930 0.14700
C 	C 	0.20160 0.03370 0.83740 0.41100
C 	C 	0.95930 0.95910 0.01280 -0.00400
H 	H 	0.94400 0.93300 0.02500 0.04800
C 	C 	0.95490 0.04380 0.98660 0.01900
H 	H 	0.92100 0.07410 0.97900 0.03500
H 	H 	0.61300 0.96900 0.94900 0.37500
Co	Co	0.76981 0.49653 0.47780 1.18900
Co	Co	0.55314 0.49159 0.32009 1.18800
Co	Co	0.60895 0.47631 0.55918 1.19200
N 	N 	0.91230 0.49752 0.49850 -0.18000
O 	O 	0.60850 0.55675 0.28880 -0.42900
O 	O 	0.75740 0.56127 0.39850 -0.42700
O 	O 	0.76490 0.74266 0.15130 -0.31200
O 	O 	0.51390 0.92664 0.16000 -0.42200
O 	O 	0.53180 0.94987 0.03730 -0.52900
O 	O 	0.74120 0.45143 0.36060 -0.44200
O 	O 	0.59610 0.44518 0.24710 -0.40700
O 	O 	0.82840 0.31252 0.09320 -0.30900
O 	O 	0.79760 0.07319 0.04440 -0.43100
O 	O 	0.66480 0.09235 0.05360 -0.43400
O 	O 	0.57930 0.45384 0.66500 -0.46700
O 	O 	0.57360 0.48948 0.78440 -0.39700
O 	O 	0.96270 0.37484 0.99610 -0.29400
O 	O 	0.18380 0.46019 0.40340 -0.43000
O 	O 	0.27110 0.49002 0.33840 -0.42800
O 	O 	0.63030 0.50378 0.45380 -0.92100
C 	C 	0.69080 0.57422 0.32380 0.40500
C 	C 	0.71080 0.61630 0.27380 -0.18900
C 	C 	0.80110 0.63690 0.30620 0.15300
H 	H 	0.85170 0.62190 0.35790 -0.00400
C 	C 	0.81890 0.67800 0.26540 -0.26900
H 	H 	0.88080 0.69160 0.28920 0.13500
C 	C 	0.74640 0.69960 0.18980 0.29600
C 	C 	0.65760 0.68020 0.15330 -0.26100
H 	H 	0.60880 0.69500 0.09990 0.12900
C 	C 	0.63800 0.63740 0.19600 0.13400
H 	H 	0.57620 0.62360 0.17150 0.00500
C 	C 	0.71000 0.78530 0.14180 0.32500
C 	C 	0.66100 0.79350 0.19020 -0.31800
H 	H 	0.66240 0.76900 0.23340 0.14700
C 	C 	0.60940 0.83670 0.17720 0.20100
H 	H 	0.57710 0.84190 0.21320 -0.01200
C 	C 	0.60230 0.87330 0.11430 -0.23500
C 	C 	0.65660 0.86520 0.06830 0.19300
H 	H 	0.65690 0.89010 0.02650 -0.03700
C 	C 	0.71000 0.82200 0.08180 -0.29700
H 	H 	0.74680 0.81750 0.04990 0.14800
C 	C 	0.54430 0.91980 0.10360 0.43000
C 	C 	0.68420 0.43605 0.28350 0.40800
C 	C 	0.71910 0.40409 0.23040 -0.20300
C 	C 	0.80710 0.37980 0.27710 0.16200
H 	H 	0.84320 0.38450 0.34140 -0.01000
C 	C 	0.84110 0.34950 0.23070 -0.28200
H 	H 	0.89950 0.33240 0.26330 0.13500
C 	C 	0.79150 0.34380 0.13810 0.29600
C 	C 	0.70550 0.36790 0.08930 -0.27600
H 	H 	0.67100 0.36380 0.02470 0.13700
C 	C 	0.67110 0.39790 0.13660 0.16100
H 	H 	0.61260 0.41480 0.10350 -0.00200
C 	C 	0.80970 0.26130 0.09020 0.29900
C 	C 	0.86590 0.22930 0.07020 -0.26900
H 	H 	0.91830 0.24220 0.06360 0.13600
C 	C 	0.84540 0.17770 0.05970 0.15500
H 	H 	0.88380 0.15550 0.04540 -0.00800
C 	C 	0.77030 0.15840 0.06980 -0.19800
C 	C 	0.71550 0.19130 0.09050 0.15700
H 	H 	0.66270 0.17850 0.09630 -0.00200
C 	C 	0.73540 0.24240 0.10300 -0.27500
H 	H 	0.69860 0.26420 0.12030 0.13200
C 	C 	0.74200 0.10270 0.05460 0.41300
C 	C 	0.61440 0.46183 0.75070 0.38600
C 	C 	0.70650 0.43763 0.81640 -0.19100
C 	C 	0.75540 0.40761 0.78550 0.14800
H 	H 	0.73020 0.40050 0.72180 -0.00600
C 	C 	0.84190 0.38710 0.84630 -0.25100
H 	H 	0.87650 0.36640 0.82460 0.13300
C 	C 	0.87690 0.39753 0.93970 0.29000
C 	C 	0.82830 0.42780 0.97120 -0.26900
H 	H 	0.85330 0.43530 0.03480 0.13300
C 	C 	0.74160 0.44740 0.90920 0.15000
H 	H 	0.70620 0.46760 0.93070 0.00500
C 	C 	0.01860 0.39830 0.08170 0.29200
C 	C 	0.05960 0.44450 0.08130 -0.26300
H 	H 	0.04690 0.46110 0.02530 0.12800
C 	C 	0.12020 0.46570 0.16570 0.15200
H 	H 	0.15140 0.49670 0.16730 -0.00200
C 	C 	0.13560 0.44260 0.24660 -0.19700
C 	C 	0.09020 0.39730 0.24390 0.16300
H 	H 	0.09880 0.38160 0.29940 -0.00900
C 	C 	0.03300 0.37500 0.16100 -0.27700
H 	H 	0.00360 0.34340 0.15930 0.14600
C 	C 	0.20160 0.46630 0.33740 0.41100
C 	C 	0.95930 0.54090 0.51280 -0.01000
H 	H 	0.94400 0.56700 0.52500 0.05000
C 	C 	0.95490 0.45620 0.48660 0.02300
H 	H 	0.92100 0.42590 0.47900 0.03400
H 	H 	0.61300 0.53100 0.44900 0.37500
Co	Co	0.23019 0.99653 0.02220 1.18900
Co	Co	0.44686 0.99159 0.17991 1.18800
Co	Co	0.39105 0.97631 0.94082 1.19200
N 	N 	0.08770 0.99752 0.00150 -0.18100
O 	O 	0.39150 0.05675 0.21120 -0.42800
O 	O 	0.24260 0.06127 0.10150 -0.42600
O 	O 	0.23510 0.24266 0.34870 -0.31200
O 	O 	0.48610 0.42664 0.34000 -0.42200
O 	O 	0.46820 0.44987 0.46270 -0.52900
O 	O 	0.25880 0.95143 0.13940 -0.44300
O 	O 	0.40390 0.94518 0.25290 -0.40700
O 	O 	0.17160 0.81252 0.40680 -0.30900
O 	O 	0.20240 0.57319 0.45560 -0.43200
O 	O 	0.33520 0.59235 0.44640 -0.43500
O 	O 	0.42070 0.95384 0.83500 -0.46600
O 	O 	0.42640 0.98948 0.71560 -0.39700
O 	O 	0.03730 0.87484 0.50390 -0.29400
O 	O 	0.81620 0.96019 0.09660 -0.43000
O 	O 	0.72890 0.99002 0.16160 -0.42900
O 	O 	0.36970 0.00378 0.04620 -0.91900
C 	C 	0.30920 0.07422 0.17620 0.40500
C 	C 	0.28920 0.11630 0.22620 -0.18800
C 	C 	0.19890 0.13690 0.19380 0.15300
H 	H 	0.14830 0.12190 0.14210 -0.00400
C 	C 	0.18110 0.17800 0.23460 -0.26900
H 	H 	0.11920 0.19160 0.21080 0.13500
C 	C 	0.25360 0.19960 0.31020 0.29600
C 	C 	0.34240 0.18020 0.34670 -0.26100
H 	H 	0.39120 0.19500 0.40010 0.12900
C 	C 	0.36200 0.13740 0.30400 0.13400
H 	H 	0.42380 0.12360 0.32850 0.00500
C 	C 	0.29000 0.28530 0.35820 0.32500
C 	C 	0.33900 0.29350 0.30980 -0.31800
H 	H 	0.33760 0.26900 0.26660 0.14700
C 	C 	0.39060 0.33670 0.32280 0.20100
H 	H 	0.42290 0.34190 0.28680 -0.01200
C 	C 	0.39770 0.37330 0.38570 -0.23500
C 	C 	0.34340 0.36520 0.43170 0.19300
H 	H 	0.34310 0.39010 0.47350 -0.03700
C 	C 	0.29000 0.32200 0.41820 -0.29600
H 	H 	0.25320 0.31750 0.45010 0.14800
C 	C 	0.45570 0.41980 0.39640 0.43000
C 	C 	0.31580 0.93605 0.21650 0.40800
C 	C 	0.28090 0.90409 0.26960 -0.20300
C 	C 	0.19290 0.87980 0.22290 0.16200
H 	H 	0.15680 0.88450 0.15860 -0.01100
C 	C 	0.15890 0.84950 0.26930 -0.28200
H 	H 	0.10050 0.83240 0.23670 0.13400
C 	C 	0.20850 0.84380 0.36190 0.29600
C 	C 	0.29450 0.86790 0.41070 -0.27600
H 	H 	0.32900 0.86380 0.47530 0.13700
C 	C 	0.32890 0.89790 0.36340 0.16100
H 	H 	0.38740 0.91480 0.39650 -0.00200
C 	C 	0.19030 0.76130 0.40980 0.29900
C 	C 	0.13410 0.72930 0.42980 -0.26900
H 	H 	0.08170 0.74220 0.43640 0.13600
C 	C 	0.15460 0.67770 0.44030 0.15500
H 	H 	0.11620 0.65550 0.45460 -0.00800
C 	C 	0.22970 0.65840 0.43020 -0.19800
C 	C 	0.28450 0.69130 0.40950 0.15700
H 	H 	0.33730 0.67850 0.40370 -0.00200
C 	C 	0.26460 0.74240 0.39700 -0.27500
H 	H 	0.30140 0.76420 0.37970 0.13200
C 	C 	0.25800 0.60270 0.44540 0.41300
C 	C 	0.38560 0.96183 0.74930 0.38500
C 	C 	0.29350 0.93763 0.68360 -0.19000
C 	C 	0.24460 0.90761 0.71450 0.14700
H 	H 	0.26980 0.90050 0.77820 -0.00600
C 	C 	0.15810 0.88710 0.65370 -0.25000
H 	H 	0.12350 0.86640 0.67540 0.13300
C 	C 	0.12310 0.89753 0.56030 0.28900
C 	C 	0.17170 0.92780 0.52880 -0.26700
H 	H 	0.14670 0.93530 0.46520 0.13200
C 	C 	0.25840 0.94740 0.59080 0.14900
H 	H 	0.29380 0.96760 0.56930 0.00500
C 	C 	0.98140 0.89830 0.41830 0.29200
C 	C 	0.94040 0.94450 0.41870 -0.26300
H 	H 	0.95310 0.96110 0.47470 0.12800
C 	C 	0.87980 0.96570 0.33430 0.15200
H 	H 	0.84860 0.99670 0.33270 -0.00200
C 	C 	0.86440 0.94260 0.25340 -0.19700
C 	C 	0.90980 0.89730 0.25610 0.16300
H 	H 	0.90120 0.88160 0.20060 -0.00900
C 	C 	0.96700 0.87500 0.33900 -0.27700
H 	H 	0.99640 0.84340 0.34070 0.14700
C 	C 	0.79840 0.96630 0.16260 0.41100
C 	C 	0.04070 0.04090 0.98720 -0.00400
H 	H 	0.05600 0.06700 0.97500 0.04800
C 	C 	0.04510 0.95620 0.01340 0.01900
H 	H 	0.07900 0.92590 0.02100 0.03500
H 	H 	0.38700 0.03100 0.05100 0.37500
