data_crystal

_cell_length_a 7.66200
_cell_length_b 9.90560
_cell_length_c 36.85700
_cell_angle_alpha 96.24500
_cell_angle_beta  90.00000
_cell_angle_gamma 90.00000

_symmetry_space_group_name_	'P 1'
_symmetry_space_group_name_H-M	'P 1'

loop_
_symmetry_equiv_pos_as_xyz
  x,y,z

loop_
_atom_site_label
_atom_site_type_symbol
_atom_site_fract_x
_atom_site_fract_y
_atom_site_fract_z
_atom_site_charge
Zn	Zn	0.45754 0.16822 0.02738 1.19900
Zn	Zn	0.66216 0.72786 0.33186 1.18600
Zn	Zn	0.95754 0.83178 0.47262 1.19900
Zn	Zn	0.16216 0.27214 0.16814 1.18600
Zn	Zn	0.54246 0.83178 0.97262 1.20000
Zn	Zn	0.33784 0.27214 0.66814 1.18700
Zn	Zn	0.04246 0.16822 0.52738 1.20000
Zn	Zn	0.83784 0.72786 0.83186 1.18700
H 	H 	0.79720 0.72570 0.09220 0.15200
H 	H 	0.70120 0.87790 0.19600 0.14600
H 	H 	0.58140 0.48900 0.16200 0.14000
H 	H 	0.91250 0.50950 0.06590 0.03900
H 	H 	0.81980 0.30830 0.02610 0.04600
H 	H 	0.46190 0.37810 0.10230 -0.01300
H 	H 	0.36380 0.53400 0.21570 0.02100
H 	H 	0.36920 0.55390 0.28230 0.02900
H 	H 	0.75040 0.77430 0.25180 -0.02300
H 	H 	0.78760 0.96880 0.08220 0.02900
H 	H 	0.96690 0.17260 0.09200 0.02200
H 	H 	0.95300 0.01030 0.18430 -0.02400
H 	H 	0.72140 0.50490 0.42740 0.05100
H 	H 	0.80340 0.35490 0.46700 0.02500
H 	H 	0.81490 0.05670 0.38460 0.03300
H 	H 	0.72110 0.20490 0.34500 0.06000
H 	H 	0.29720 0.27430 0.40780 0.15200
H 	H 	0.20120 0.12210 0.30400 0.14400
H 	H 	0.08140 0.51100 0.33800 0.13800
H 	H 	0.41250 0.49050 0.43410 0.03800
H 	H 	0.31980 0.69170 0.47390 0.04600
H 	H 	0.96190 0.62190 0.39770 -0.01000
H 	H 	0.86380 0.46600 0.28430 0.02100
H 	H 	0.86920 0.44610 0.21770 0.02900
H 	H 	0.25040 0.22570 0.24820 -0.02400
H 	H 	0.28760 0.03120 0.41780 0.02900
H 	H 	0.46690 0.82740 0.40800 0.02100
H 	H 	0.45300 0.98970 0.31570 -0.02500
H 	H 	0.22140 0.49510 0.07260 0.05100
H 	H 	0.30340 0.64510 0.03300 0.02500
H 	H 	0.31490 0.94330 0.11540 0.03200
H 	H 	0.22110 0.79510 0.15500 0.05900
H 	H 	0.20280 0.27430 0.90780 0.15200
H 	H 	0.29880 0.12210 0.80400 0.14600
H 	H 	0.41860 0.51100 0.83800 0.14000
H 	H 	0.08750 0.49050 0.93410 0.03900
H 	H 	0.18020 0.69170 0.97390 0.04600
H 	H 	0.53810 0.62190 0.89770 -0.01300
H 	H 	0.63620 0.46600 0.78430 0.02100
H 	H 	0.63080 0.44610 0.71770 0.02900
H 	H 	0.24960 0.22570 0.74820 -0.02300
H 	H 	0.21240 0.03120 0.91780 0.02900
H 	H 	0.03310 0.82740 0.90800 0.02200
H 	H 	0.04700 0.98970 0.81570 -0.02400
H 	H 	0.27860 0.49510 0.57260 0.05100
H 	H 	0.19660 0.64510 0.53300 0.02500
H 	H 	0.18510 0.94330 0.61540 0.03300
H 	H 	0.27890 0.79510 0.65500 0.06000
H 	H 	0.70280 0.72570 0.59220 0.15200
H 	H 	0.79880 0.87790 0.69600 0.14400
H 	H 	0.91860 0.48900 0.66200 0.13800
H 	H 	0.58750 0.50950 0.56590 0.03800
H 	H 	0.68020 0.30830 0.52610 0.04600
H 	H 	0.03810 0.37810 0.60230 -0.01000
H 	H 	0.13620 0.53400 0.71570 0.02100
H 	H 	0.13080 0.55390 0.78230 0.02900
H 	H 	0.74960 0.77430 0.75180 -0.02400
H 	H 	0.71240 0.96880 0.58220 0.02900
H 	H 	0.53310 0.17260 0.59200 0.02100
H 	H 	0.54700 0.01030 0.68430 -0.02500
H 	H 	0.77860 0.50490 0.92740 0.05100
H 	H 	0.69660 0.35490 0.96700 0.02500
H 	H 	0.68510 0.05670 0.88460 0.03200
H 	H 	0.77890 0.20490 0.84500 0.05900
C 	C 	0.68590 0.59130 0.12335 0.24500
C 	C 	0.75580 0.71450 0.11542 -0.29400
C 	C 	0.76130 0.81920 0.14323 0.24600
C 	C 	0.69820 0.80550 0.17769 -0.29200
C 	C 	0.63070 0.68130 0.18422 0.24000
C 	C 	0.62530 0.57270 0.15719 -0.29700
C 	C 	0.81200 0.45860 0.06832 0.02000
C 	C 	0.75910 0.34770 0.04644 -0.01400
C 	C 	0.56180 0.38510 0.08829 0.10000
C 	C 	0.44160 0.58490 0.23099 0.01900
C 	C 	0.44600 0.59640 0.26766 0.00700
C 	C 	0.65410 0.71700 0.25133 0.11300
C 	C 	0.84280 0.00210 0.10380 0.01900
C 	C 	0.94130 0.11460 0.10956 0.00300
C 	C 	0.93450 0.02620 0.16020 0.11500
C 	C 	0.71180 0.37120 0.38175 -0.04900
C 	C 	0.73790 0.41400 0.41884 -0.04500
C 	C 	0.78700 0.32480 0.44245 0.01900
C 	C 	0.81250 0.18930 0.43006 -0.11600
C 	C 	0.79220 0.14670 0.39325 0.02100
C 	C 	0.73900 0.23560 0.36946 -0.04500
C 	C 	0.65940 0.46980 0.35575 0.32700
C 	C 	0.86950 0.09070 0.45538 0.39500
C 	C 	0.18590 0.40870 0.37665 0.24400
C 	C 	0.25580 0.28550 0.38458 -0.29400
C 	C 	0.26130 0.18080 0.35677 0.24500
C 	C 	0.19820 0.19450 0.32231 -0.29100
C 	C 	0.13070 0.31870 0.31578 0.23800
C 	C 	0.12530 0.42730 0.34281 -0.29700
C 	C 	0.31200 0.54140 0.43168 0.01900
C 	C 	0.25910 0.65230 0.45356 -0.01400
C 	C 	0.06180 0.61490 0.41171 0.09600
C 	C 	0.94160 0.41510 0.26901 0.02300
C 	C 	0.94600 0.40360 0.23234 0.01200
C 	C 	0.15410 0.28300 0.24867 0.11200
C 	C 	0.34280 0.99790 0.39620 0.01700
C 	C 	0.44130 0.88540 0.39044 0.00300
C 	C 	0.43450 0.97380 0.33980 0.11400
C 	C 	0.21180 0.62880 0.11825 -0.05000
C 	C 	0.23790 0.58600 0.08116 -0.04500
C 	C 	0.28700 0.67520 0.05755 0.01800
C 	C 	0.31250 0.81070 0.06994 -0.11600
C 	C 	0.29220 0.85330 0.10675 0.01900
C 	C 	0.23900 0.76440 0.13054 -0.04500
C 	C 	0.15940 0.53020 0.14425 0.32700
C 	C 	0.36950 0.90930 0.04462 0.39400
C 	C 	0.31410 0.40870 0.87665 0.24500
C 	C 	0.24420 0.28550 0.88458 -0.29400
C 	C 	0.23870 0.18080 0.85677 0.24600
C 	C 	0.30180 0.19450 0.82231 -0.29200
C 	C 	0.36930 0.31870 0.81578 0.24000
C 	C 	0.37470 0.42730 0.84281 -0.29700
C 	C 	0.18800 0.54140 0.93168 0.02000
C 	C 	0.24090 0.65230 0.95356 -0.01400
C 	C 	0.43820 0.61490 0.91171 0.10000
C 	C 	0.55840 0.41510 0.76901 0.01900
C 	C 	0.55400 0.40360 0.73234 0.00700
C 	C 	0.34590 0.28300 0.74867 0.11300
C 	C 	0.15720 0.99790 0.89620 0.01900
C 	C 	0.05870 0.88540 0.89044 0.00300
C 	C 	0.06550 0.97380 0.83980 0.11500
C 	C 	0.28820 0.62880 0.61825 -0.04900
C 	C 	0.26210 0.58600 0.58116 -0.04500
C 	C 	0.21300 0.67520 0.55755 0.01900
C 	C 	0.18750 0.81070 0.56994 -0.11600
C 	C 	0.20780 0.85330 0.60675 0.02100
C 	C 	0.26100 0.76440 0.63054 -0.04500
C 	C 	0.34060 0.53020 0.64425 0.32700
C 	C 	0.13050 0.90930 0.54462 0.39500
C 	C 	0.81410 0.59130 0.62335 0.24400
C 	C 	0.74420 0.71450 0.61542 -0.29400
C 	C 	0.73870 0.81920 0.64323 0.24500
C 	C 	0.80180 0.80550 0.67769 -0.29100
C 	C 	0.86930 0.68130 0.68422 0.23800
C 	C 	0.87470 0.57270 0.65719 -0.29700
C 	C 	0.68800 0.45860 0.56832 0.01900
C 	C 	0.74090 0.34770 0.54644 -0.01400
C 	C 	0.93820 0.38510 0.58829 0.09600
C 	C 	0.05840 0.58490 0.73099 0.02300
C 	C 	0.05400 0.59640 0.76766 0.01200
C 	C 	0.84590 0.71700 0.75133 0.11200
C 	C 	0.65720 0.00210 0.60380 0.01700
C 	C 	0.55870 0.11460 0.60956 0.00300
C 	C 	0.56550 0.02620 0.66020 0.11400
C 	C 	0.78820 0.37120 0.88175 -0.05000
C 	C 	0.76210 0.41400 0.91884 -0.04500
C 	C 	0.71300 0.32480 0.94245 0.01800
C 	C 	0.68750 0.18930 0.93006 -0.11600
C 	C 	0.70780 0.14670 0.89325 0.01900
C 	C 	0.76100 0.23560 0.86946 -0.04500
C 	C 	0.84060 0.46980 0.85575 0.32700
C 	C 	0.63050 0.09070 0.95538 0.39400
I 	I 	0.19335 0.25890 0.99723 -0.38600
I 	I 	0.97949 0.81627 0.32507 -0.36300
I 	I 	0.69335 0.74110 0.50277 -0.38500
I 	I 	0.47949 0.18373 0.17493 -0.36700
I 	I 	0.80665 0.74110 0.00277 -0.38600
I 	I 	0.02051 0.18373 0.67493 -0.36300
I 	I 	0.30665 0.25890 0.49723 -0.38500
I 	I 	0.52051 0.81627 0.82507 -0.36700
N 	N 	0.60340 0.30180 0.05848 -0.26100
N 	N 	0.68640 0.48050 0.09493 -0.16100
N 	N 	0.58030 0.67980 0.28020 -0.27500
N 	N 	0.57510 0.66340 0.22091 -0.16300
N 	N 	0.99900 0.13170 0.14522 -0.27400
N 	N 	0.84040 0.94640 0.13643 -0.15900
N 	N 	0.10340 0.69820 0.44152 -0.26000
N 	N 	0.18640 0.51950 0.40507 -0.16000
N 	N 	0.08030 0.32020 0.21980 -0.27800
N 	N 	0.07510 0.33660 0.27909 -0.16600
N 	N 	0.49900 0.86830 0.35478 -0.27600
N 	N 	0.34040 0.05360 0.36357 -0.15900
N 	N 	0.39660 0.69820 0.94152 -0.26100
N 	N 	0.31360 0.51950 0.90507 -0.16100
N 	N 	0.41970 0.32020 0.71980 -0.27500
N 	N 	0.42490 0.33660 0.77909 -0.16300
N 	N 	0.00100 0.86830 0.85478 -0.27400
N 	N 	0.15960 0.05360 0.86357 -0.15900
N 	N 	0.89660 0.30180 0.55848 -0.26000
N 	N 	0.81360 0.48050 0.59493 -0.16000
N 	N 	0.91970 0.67980 0.78020 -0.27800
N 	N 	0.92490 0.66340 0.72091 -0.16600
N 	N 	0.50100 0.13170 0.64522 -0.27600
N 	N 	0.65960 0.94640 0.63643 -0.15900
O 	O 	0.67740 0.59630 0.36720 -0.47200
O 	O 	0.61120 0.42910 0.32505 -0.30800
O 	O 	0.86400 0.12430 0.48908 -0.51900
O 	O 	0.91730 0.97370 0.44156 -0.50100
O 	O 	0.17740 0.40370 0.13280 -0.47300
O 	O 	0.11120 0.57090 0.17495 -0.31100
O 	O 	0.36400 0.87570 0.01092 -0.51900
O 	O 	0.41730 0.02630 0.05844 -0.50100
O 	O 	0.32260 0.40370 0.63280 -0.47200
O 	O 	0.38880 0.57090 0.67495 -0.30800
O 	O 	0.13600 0.87570 0.51092 -0.51900
O 	O 	0.08270 0.02630 0.55844 -0.50100
O 	O 	0.82260 0.59630 0.86720 -0.47300
O 	O 	0.88880 0.42910 0.82505 -0.31100
O 	O 	0.63600 0.12430 0.98908 -0.51900
O 	O 	0.58270 0.97370 0.94156 -0.50100
