data_crystal

_cell_length_a 7.87580
_cell_length_b 9.18770
_cell_length_c 11.34270
_cell_angle_alpha 112.88300
_cell_angle_beta  91.05700
_cell_angle_gamma 105.87700

_symmetry_space_group_name_	'P 1'
_symmetry_space_group_name_H-M	'P 1'

loop_
_symmetry_equiv_pos_as_xyz
  x,y,z

loop_
_atom_site_label
_atom_site_type_symbol
_atom_site_fract_x
_atom_site_fract_y
_atom_site_fract_z
_atom_site_charge
O 	O 	0.71600 0.88920 0.47710 -0.80500
H 	H 	0.68100 0.84100 0.52900 0.32800
H 	H 	0.71100 0.81300 0.39880 0.31800
O 	O 	0.98190 0.17990 0.67790 -0.40800
O 	O 	0.26710 0.32380 0.75390 -0.33400
O 	O 	0.50030 0.98610 0.31560 -0.31100
O 	O 	0.38510 0.18690 0.32750 -0.33500
C 	C 	0.10540 0.29360 0.76410 0.31100
C 	C 	0.05010 0.39770 0.88640 -0.23600
C 	C 	0.87100 0.37690 0.90150 0.18900
H 	H 	0.78350 0.29460 0.83530 -0.02700
C 	C 	0.17870 0.52410 0.98730 0.12600
H 	H 	0.29910 0.54120 0.97910 0.00300
C 	C 	0.45240 0.07450 0.26920 0.26800
C 	C 	0.47760 0.03780 0.12960 -0.35800
C 	C 	0.43110 0.12730 0.06710 0.22800
H 	H 	0.38460 0.21300 0.11170 -0.04600
C 	C 	0.54700 0.90970 0.06140 0.34800
H 	H 	0.57870 0.84860 0.10210 -0.05200
O 	O 	0.28400 0.11080 0.52290 -0.92400
H 	H 	0.31900 0.15900 0.47100 0.31500
H 	H 	0.28900 0.18700 0.60120 0.32100
O 	O 	0.01810 0.82010 0.32210 -0.42600
O 	O 	0.73290 0.67620 0.24610 -0.30900
O 	O 	0.49970 0.01390 0.68440 -0.55000
O 	O 	0.61490 0.81310 0.67250 -0.31700
C 	C 	0.89460 0.70640 0.23590 0.33900
C 	C 	0.94990 0.60230 0.11360 0.09300
C 	C 	0.12900 0.62310 0.09850 -0.21400
H 	H 	0.21650 0.70540 0.16470 0.12300
C 	C 	0.82130 0.47590 0.01270 -0.18100
H 	H 	0.70090 0.45880 0.02090 0.10700
C 	C 	0.54760 0.92550 0.73080 0.40100
C 	C 	0.52240 0.96220 0.87040 0.22600
C 	C 	0.56890 0.87270 0.93290 -0.27500
H 	H 	0.61540 0.78700 0.88830 0.15300
C 	C 	0.45300 0.09030 0.93860 -0.39200
H 	H 	0.42130 0.15140 0.89790 0.16100
Co	Co	0.00000 0.00000 0.50000 1.05500
Co	Co	0.50000 0.00000 0.50000 1.08700
