data_crystal

_cell_length_a 23.00650
_cell_length_b 23.00650
_cell_length_c 23.00650
_cell_angle_alpha 90.00000
_cell_angle_beta  90.00000
_cell_angle_gamma 90.00000

_symmetry_space_group_name_	'P 1'
_symmetry_space_group_name_H-M	'P 1'

loop_
_symmetry_equiv_pos_as_xyz
  x,y,z

loop_
_atom_site_label
_atom_site_type_symbol
_atom_site_fract_x
_atom_site_fract_y
_atom_site_fract_z
_atom_site_charge
N 	N 	0.70171 0.89850 0.11370 -0.22400
C 	C 	0.72830 0.90250 0.05957 0.04700
C 	C 	0.78830 0.90850 0.05580 -0.09700
H 	H 	0.80650 0.91130 0.01880 0.05300
C 	C 	0.82172 0.91040 0.10610 0.01400
H 	H 	0.86270 0.91450 0.10340 0.01400
C 	C 	0.79510 0.90630 0.16020 -0.10000
H 	H 	0.81800 0.90760 0.19450 0.05500
C 	C 	0.73510 0.90040 0.16397 0.04000
H 	H 	0.71700 0.89760 0.20090 0.00400
N 	N 	0.60450 0.89820 0.96620 -0.07700
N 	N 	0.63190 0.89520 0.02146 -0.19100
C 	C 	0.69267 0.90180 0.01300 0.02000
C 	C 	0.70280 0.90890 0.95250 -0.07600
H 	H 	0.73960 0.91420 0.93450 0.04900
C 	C 	0.64830 0.90660 0.92361 0.01800
H 	H 	0.64230 0.91010 0.88290 0.02200
C 	C 	0.54640 0.88430 0.95850 -0.10800
H 	H 	0.53180 0.90430 0.92330 0.06100
H 	H 	0.52390 0.89880 0.99220 0.05800
C 	C 	0.53560 0.81742 0.95190 0.05100
C 	C 	0.58248 0.77950 0.95450 -0.09100
H 	H 	0.62080 0.79430 0.95880 0.07100
C 	C 	0.57340 0.71985 0.95070 -0.00500
H 	H 	0.60540 0.69390 0.95250 0.03000
C 	C 	0.51730 0.69821 0.94440 -0.05300
C 	C 	0.47038 0.73620 0.94180 0.04700
C 	C 	0.47950 0.79580 0.94560 -0.03000
C 	C 	0.41530 0.71260 0.93380 -0.08700
H 	H 	0.41080 0.67180 0.92960 0.05700
C 	C 	0.36694 0.74870 0.93180 -0.01600
H 	H 	0.32870 0.73320 0.93100 0.03000
C 	C 	0.37659 0.80830 0.93110 -0.05500
H 	H 	0.34480 0.83370 0.92390 0.04100
C 	C 	0.43150 0.83215 0.94070 -0.03100
H 	H 	0.43610 0.87310 0.94380 0.03700
C 	C 	0.51120 0.63760 0.94790 0.05700
N 	N 	0.50400 0.58360 0.94970 -0.18700
N 	N 	0.79829 0.10150 0.61370 -0.22300
C 	C 	0.77170 0.09750 0.55957 0.04800
C 	C 	0.71170 0.09150 0.55580 -0.09600
H 	H 	0.69350 0.08870 0.51880 0.05400
C 	C 	0.67828 0.08960 0.60610 0.01500
H 	H 	0.63730 0.08550 0.60340 0.01500
C 	C 	0.70490 0.09370 0.66020 -0.09900
H 	H 	0.68200 0.09240 0.69450 0.05600
C 	C 	0.76490 0.09960 0.66397 0.04100
H 	H 	0.78300 0.10240 0.70090 0.00500
N 	N 	0.89550 0.10180 0.46620 -0.07600
N 	N 	0.86810 0.10480 0.52146 -0.19000
C 	C 	0.80733 0.09820 0.51300 0.02000
C 	C 	0.79720 0.09110 0.45250 -0.07500
H 	H 	0.76040 0.08580 0.43450 0.05000
C 	C 	0.85170 0.09340 0.42361 0.01900
H 	H 	0.85770 0.08990 0.38290 0.02300
C 	C 	0.95360 0.11570 0.45850 -0.10700
H 	H 	0.96820 0.09570 0.42330 0.06200
H 	H 	0.97610 0.10120 0.49220 0.05900
C 	C 	0.96440 0.18258 0.45190 0.05200
C 	C 	0.91752 0.22050 0.45450 -0.09000
H 	H 	0.87920 0.20570 0.45880 0.07200
C 	C 	0.92660 0.28015 0.45070 -0.00400
H 	H 	0.89460 0.30610 0.45250 0.03100
C 	C 	0.98270 0.30179 0.44440 -0.05100
C 	C 	0.02962 0.26380 0.44180 0.04800
C 	C 	0.02050 0.20420 0.44560 -0.03000
C 	C 	0.08470 0.28740 0.43380 -0.08700
H 	H 	0.08920 0.32820 0.42960 0.05700
C 	C 	0.13306 0.25130 0.43180 -0.01600
H 	H 	0.17130 0.26680 0.43100 0.03000
C 	C 	0.12341 0.19170 0.43110 -0.05500
H 	H 	0.15520 0.16630 0.42390 0.04100
C 	C 	0.06850 0.16785 0.44070 -0.03100
H 	H 	0.06390 0.12690 0.44380 0.03700
C 	C 	0.98880 0.36240 0.44790 0.05700
N 	N 	0.99600 0.41640 0.44970 -0.18700
N 	N 	0.29829 0.39850 0.38630 -0.22300
C 	C 	0.27170 0.40250 0.44043 0.04800
C 	C 	0.21170 0.40850 0.44420 -0.09600
H 	H 	0.19350 0.41130 0.48120 0.05400
C 	C 	0.17828 0.41040 0.39390 0.01500
H 	H 	0.13730 0.41450 0.39660 0.01500
C 	C 	0.20490 0.40630 0.33980 -0.09900
H 	H 	0.18200 0.40760 0.30550 0.05600
C 	C 	0.26490 0.40040 0.33603 0.04100
H 	H 	0.28300 0.39760 0.29910 0.00500
N 	N 	0.39550 0.39820 0.53380 -0.07600
N 	N 	0.36810 0.39520 0.47854 -0.19000
C 	C 	0.30733 0.40180 0.48700 0.02000
C 	C 	0.29720 0.40890 0.54750 -0.07500
H 	H 	0.26040 0.41420 0.56550 0.05000
C 	C 	0.35170 0.40660 0.57639 0.01900
H 	H 	0.35770 0.41010 0.61710 0.02300
C 	C 	0.45360 0.38430 0.54150 -0.10700
H 	H 	0.46820 0.40430 0.57670 0.06200
H 	H 	0.47610 0.39880 0.50780 0.05900
C 	C 	0.46440 0.31742 0.54810 0.05200
C 	C 	0.41752 0.27950 0.54550 -0.09000
H 	H 	0.37920 0.29430 0.54120 0.07200
C 	C 	0.42660 0.21985 0.54930 -0.00400
H 	H 	0.39460 0.19390 0.54750 0.03100
C 	C 	0.48270 0.19821 0.55560 -0.05200
C 	C 	0.52962 0.23620 0.55820 0.04800
C 	C 	0.52050 0.29580 0.55440 -0.03000
C 	C 	0.58470 0.21260 0.56620 -0.08700
H 	H 	0.58920 0.17180 0.57040 0.05700
C 	C 	0.63306 0.24870 0.56820 -0.01600
H 	H 	0.67130 0.23320 0.56900 0.03000
C 	C 	0.62341 0.30830 0.56890 -0.05500
H 	H 	0.65520 0.33370 0.57610 0.04100
C 	C 	0.56850 0.33215 0.55930 -0.03100
H 	H 	0.56390 0.37310 0.55620 0.03700
C 	C 	0.48880 0.13760 0.55210 0.05700
N 	N 	0.49600 0.08360 0.55030 -0.18700
N 	N 	0.20171 0.60150 0.88630 -0.22300
C 	C 	0.22830 0.59750 0.94043 0.04800
C 	C 	0.28830 0.59150 0.94420 -0.09600
H 	H 	0.30650 0.58870 0.98120 0.05400
C 	C 	0.32172 0.58960 0.89390 0.01500
H 	H 	0.36270 0.58550 0.89660 0.01500
C 	C 	0.29510 0.59370 0.83980 -0.09900
H 	H 	0.31800 0.59240 0.80550 0.05600
C 	C 	0.23510 0.59960 0.83603 0.04100
H 	H 	0.21700 0.60240 0.79910 0.00500
N 	N 	0.10450 0.60180 0.03380 -0.07600
N 	N 	0.13190 0.60480 0.97854 -0.19000
C 	C 	0.19267 0.59820 0.98700 0.02100
C 	C 	0.20280 0.59110 0.04750 -0.07600
H 	H 	0.23960 0.58580 0.06550 0.05000
C 	C 	0.14830 0.59340 0.07639 0.01900
H 	H 	0.14230 0.58990 0.11710 0.02300
C 	C 	0.04640 0.61570 0.04150 -0.10700
H 	H 	0.03180 0.59570 0.07670 0.06200
H 	H 	0.02390 0.60120 0.00780 0.05900
C 	C 	0.03560 0.68258 0.04810 0.05100
C 	C 	0.08248 0.72050 0.04550 -0.09000
H 	H 	0.12080 0.70570 0.04120 0.07200
C 	C 	0.07340 0.78015 0.04930 -0.00400
H 	H 	0.10540 0.80610 0.04750 0.03100
C 	C 	0.01730 0.80179 0.05560 -0.05200
C 	C 	0.97038 0.76380 0.05820 0.04800
C 	C 	0.97950 0.70420 0.05440 -0.03000
C 	C 	0.91530 0.78740 0.06620 -0.08700
H 	H 	0.91080 0.82820 0.07040 0.05700
C 	C 	0.86694 0.75130 0.06820 -0.01600
H 	H 	0.82870 0.76680 0.06900 0.03000
C 	C 	0.87659 0.69170 0.06890 -0.05500
H 	H 	0.84480 0.66630 0.07610 0.04100
C 	C 	0.93150 0.66785 0.05930 -0.03100
H 	H 	0.93610 0.62690 0.05620 0.03700
C 	C 	0.01120 0.86240 0.05210 0.05700
N 	N 	0.00400 0.91640 0.05030 -0.18700
N 	N 	0.11370 0.70171 0.89850 -0.22300
C 	C 	0.05957 0.72830 0.90250 0.04800
C 	C 	0.05580 0.78830 0.90850 -0.09600
H 	H 	0.01880 0.80650 0.91130 0.05400
C 	C 	0.10610 0.82172 0.91040 0.01500
H 	H 	0.10340 0.86270 0.91450 0.01500
C 	C 	0.16020 0.79510 0.90630 -0.09900
H 	H 	0.19450 0.81800 0.90760 0.05600
C 	C 	0.16397 0.73510 0.90040 0.04100
H 	H 	0.20090 0.71700 0.89760 0.00500
N 	N 	0.96620 0.60450 0.89820 -0.07600
N 	N 	0.02146 0.63190 0.89520 -0.19000
C 	C 	0.01300 0.69267 0.90180 0.02100
C 	C 	0.95250 0.70280 0.90890 -0.07500
H 	H 	0.93450 0.73960 0.91420 0.05000
C 	C 	0.92361 0.64830 0.90660 0.01900
H 	H 	0.88290 0.64230 0.91010 0.02300
C 	C 	0.95850 0.54640 0.88430 -0.10700
H 	H 	0.92330 0.53180 0.90430 0.06200
H 	H 	0.99220 0.52390 0.89880 0.05900
C 	C 	0.95190 0.53560 0.81742 0.05200
C 	C 	0.95450 0.58248 0.77950 -0.09000
H 	H 	0.95880 0.62080 0.79430 0.07200
C 	C 	0.95070 0.57340 0.71985 -0.00400
H 	H 	0.95250 0.60540 0.69390 0.03100
C 	C 	0.94440 0.51730 0.69821 -0.05200
C 	C 	0.94180 0.47038 0.73620 0.04800
C 	C 	0.94560 0.47950 0.79580 -0.03000
C 	C 	0.93380 0.41530 0.71260 -0.08700
H 	H 	0.92960 0.41080 0.67180 0.05700
C 	C 	0.93180 0.36694 0.74870 -0.01600
H 	H 	0.93100 0.32870 0.73320 0.03000
C 	C 	0.93110 0.37659 0.80830 -0.05500
H 	H 	0.92390 0.34480 0.83370 0.04100
C 	C 	0.94070 0.43150 0.83215 -0.03100
H 	H 	0.94380 0.43610 0.87310 0.03700
C 	C 	0.94790 0.51120 0.63760 0.05700
N 	N 	0.94970 0.50400 0.58360 -0.18700
N 	N 	0.61370 0.79829 0.10150 -0.22300
C 	C 	0.55957 0.77170 0.09750 0.04800
C 	C 	0.55580 0.71170 0.09150 -0.09600
H 	H 	0.51880 0.69350 0.08870 0.05400
C 	C 	0.60610 0.67828 0.08960 0.01500
H 	H 	0.60340 0.63730 0.08550 0.01500
C 	C 	0.66020 0.70490 0.09370 -0.09900
H 	H 	0.69450 0.68200 0.09240 0.05600
C 	C 	0.66397 0.76490 0.09960 0.04100
H 	H 	0.70090 0.78300 0.10240 0.00500
N 	N 	0.46620 0.89550 0.10180 -0.07600
N 	N 	0.52146 0.86810 0.10480 -0.19000
C 	C 	0.51300 0.80733 0.09820 0.02000
C 	C 	0.45250 0.79720 0.09110 -0.07500
H 	H 	0.43450 0.76040 0.08580 0.05000
C 	C 	0.42361 0.85170 0.09340 0.01900
H 	H 	0.38290 0.85770 0.08990 0.02300
C 	C 	0.45850 0.95360 0.11570 -0.10700
H 	H 	0.42330 0.96820 0.09570 0.06200
H 	H 	0.49220 0.97610 0.10120 0.05900
C 	C 	0.45190 0.96440 0.18258 0.05200
C 	C 	0.45450 0.91752 0.22050 -0.09000
H 	H 	0.45880 0.87920 0.20570 0.07200
C 	C 	0.45070 0.92660 0.28015 -0.00400
H 	H 	0.45250 0.89460 0.30610 0.03100
C 	C 	0.44440 0.98270 0.30179 -0.05100
C 	C 	0.44180 0.02962 0.26380 0.04800
C 	C 	0.44560 0.02050 0.20420 -0.03000
C 	C 	0.43380 0.08470 0.28740 -0.08700
H 	H 	0.42960 0.08920 0.32820 0.05700
C 	C 	0.43180 0.13306 0.25130 -0.01600
H 	H 	0.43100 0.17130 0.26680 0.03000
C 	C 	0.43110 0.12341 0.19170 -0.05500
H 	H 	0.42390 0.15520 0.16630 0.04100
C 	C 	0.44070 0.06850 0.16785 -0.03100
H 	H 	0.44380 0.06390 0.12690 0.03700
C 	C 	0.44790 0.98880 0.36240 0.05700
N 	N 	0.44970 0.99600 0.41640 -0.18700
N 	N 	0.38630 0.29829 0.39850 -0.22300
C 	C 	0.44043 0.27170 0.40250 0.04800
C 	C 	0.44420 0.21170 0.40850 -0.09600
H 	H 	0.48120 0.19350 0.41130 0.05400
C 	C 	0.39390 0.17828 0.41040 0.01500
H 	H 	0.39660 0.13730 0.41450 0.01500
C 	C 	0.33980 0.20490 0.40630 -0.09900
H 	H 	0.30550 0.18200 0.40760 0.05600
C 	C 	0.33603 0.26490 0.40040 0.04100
H 	H 	0.29910 0.28300 0.39760 0.00500
N 	N 	0.53380 0.39550 0.39820 -0.07600
N 	N 	0.47854 0.36810 0.39520 -0.19000
C 	C 	0.48700 0.30733 0.40180 0.02000
C 	C 	0.54750 0.29720 0.40890 -0.07500
H 	H 	0.56550 0.26040 0.41420 0.05000
C 	C 	0.57639 0.35170 0.40660 0.01900
H 	H 	0.61710 0.35770 0.41010 0.02300
C 	C 	0.54150 0.45360 0.38430 -0.10700
H 	H 	0.57670 0.46820 0.40430 0.06200
H 	H 	0.50780 0.47610 0.39880 0.05900
C 	C 	0.54810 0.46440 0.31742 0.05200
C 	C 	0.54550 0.41752 0.27950 -0.09000
H 	H 	0.54120 0.37920 0.29430 0.07200
C 	C 	0.54930 0.42660 0.21985 -0.00400
H 	H 	0.54750 0.39460 0.19390 0.03100
C 	C 	0.55560 0.48270 0.19821 -0.05200
C 	C 	0.55820 0.52962 0.23620 0.04800
C 	C 	0.55440 0.52050 0.29580 -0.03000
C 	C 	0.56620 0.58470 0.21260 -0.08700
H 	H 	0.57040 0.58920 0.17180 0.05700
C 	C 	0.56820 0.63306 0.24870 -0.01600
H 	H 	0.56900 0.67130 0.23320 0.03000
C 	C 	0.56890 0.62341 0.30830 -0.05500
H 	H 	0.57610 0.65520 0.33370 0.04100
C 	C 	0.55930 0.56850 0.33215 -0.03100
H 	H 	0.55620 0.56390 0.37310 0.03700
C 	C 	0.55210 0.48880 0.13760 0.05700
N 	N 	0.55030 0.49600 0.08360 -0.18700
N 	N 	0.88630 0.20171 0.60150 -0.22300
C 	C 	0.94043 0.22830 0.59750 0.04800
C 	C 	0.94420 0.28830 0.59150 -0.09600
H 	H 	0.98120 0.30650 0.58870 0.05400
C 	C 	0.89390 0.32172 0.58960 0.01500
H 	H 	0.89660 0.36270 0.58550 0.01500
C 	C 	0.83980 0.29510 0.59370 -0.09900
H 	H 	0.80550 0.31800 0.59240 0.05600
C 	C 	0.83603 0.23510 0.59960 0.04100
H 	H 	0.79910 0.21700 0.60240 0.00500
N 	N 	0.03380 0.10450 0.60180 -0.07600
N 	N 	0.97854 0.13190 0.60480 -0.19000
C 	C 	0.98700 0.19267 0.59820 0.02100
C 	C 	0.04750 0.20280 0.59110 -0.07600
H 	H 	0.06550 0.23960 0.58580 0.05000
C 	C 	0.07639 0.14830 0.59340 0.01900
H 	H 	0.11710 0.14230 0.58990 0.02300
C 	C 	0.04150 0.04640 0.61570 -0.10700
H 	H 	0.07670 0.03180 0.59570 0.06200
H 	H 	0.00780 0.02390 0.60120 0.05900
C 	C 	0.04810 0.03560 0.68258 0.05100
C 	C 	0.04550 0.08248 0.72050 -0.09000
H 	H 	0.04120 0.12080 0.70570 0.07200
C 	C 	0.04930 0.07340 0.78015 -0.00400
H 	H 	0.04750 0.10540 0.80610 0.03100
C 	C 	0.05560 0.01730 0.80179 -0.05200
C 	C 	0.05820 0.97038 0.76380 0.04800
C 	C 	0.05440 0.97950 0.70420 -0.03000
C 	C 	0.06620 0.91530 0.78740 -0.08700
H 	H 	0.07040 0.91080 0.82820 0.05700
C 	C 	0.06820 0.86694 0.75130 -0.01600
H 	H 	0.06900 0.82870 0.76680 0.03000
C 	C 	0.06890 0.87659 0.69170 -0.05500
H 	H 	0.07610 0.84480 0.66630 0.04100
C 	C 	0.05930 0.93150 0.66785 -0.03100
H 	H 	0.05620 0.93610 0.62690 0.03700
C 	C 	0.05210 0.01120 0.86240 0.05700
N 	N 	0.05030 0.00400 0.91640 -0.18700
N 	N 	0.89850 0.11370 0.70171 -0.22300
C 	C 	0.90250 0.05957 0.72830 0.04800
C 	C 	0.90850 0.05580 0.78830 -0.09600
H 	H 	0.91130 0.01880 0.80650 0.05400
C 	C 	0.91040 0.10610 0.82172 0.01500
H 	H 	0.91450 0.10340 0.86270 0.01500
C 	C 	0.90630 0.16020 0.79510 -0.09900
H 	H 	0.90760 0.19450 0.81800 0.05600
C 	C 	0.90040 0.16397 0.73510 0.04100
H 	H 	0.89760 0.20090 0.71700 0.00500
N 	N 	0.89820 0.96620 0.60450 -0.07600
N 	N 	0.89520 0.02146 0.63190 -0.19000
C 	C 	0.90180 0.01300 0.69267 0.02100
C 	C 	0.90890 0.95250 0.70280 -0.07500
H 	H 	0.91420 0.93450 0.73960 0.05000
C 	C 	0.90660 0.92361 0.64830 0.01900
H 	H 	0.91010 0.88290 0.64230 0.02300
C 	C 	0.88430 0.95850 0.54640 -0.10700
H 	H 	0.90430 0.92330 0.53180 0.06200
H 	H 	0.89880 0.99220 0.52390 0.05900
C 	C 	0.81742 0.95190 0.53560 0.05200
C 	C 	0.77950 0.95450 0.58248 -0.09000
H 	H 	0.79430 0.95880 0.62080 0.07200
C 	C 	0.71985 0.95070 0.57340 -0.00400
H 	H 	0.69390 0.95250 0.60540 0.03100
C 	C 	0.69821 0.94440 0.51730 -0.05200
C 	C 	0.73620 0.94180 0.47038 0.04800
C 	C 	0.79580 0.94560 0.47950 -0.03000
C 	C 	0.71260 0.93380 0.41530 -0.08700
H 	H 	0.67180 0.92960 0.41080 0.05700
C 	C 	0.74870 0.93180 0.36694 -0.01600
H 	H 	0.73320 0.93100 0.32870 0.03000
C 	C 	0.80830 0.93110 0.37659 -0.05500
H 	H 	0.83370 0.92390 0.34480 0.04100
C 	C 	0.83215 0.94070 0.43150 -0.03100
H 	H 	0.87310 0.94380 0.43610 0.03700
C 	C 	0.63760 0.94790 0.51120 0.05700
N 	N 	0.58360 0.94970 0.50400 -0.18700
N 	N 	0.10150 0.61370 0.79829 -0.22300
C 	C 	0.09750 0.55957 0.77170 0.04800
C 	C 	0.09150 0.55580 0.71170 -0.09600
H 	H 	0.08870 0.51880 0.69350 0.05400
C 	C 	0.08960 0.60610 0.67828 0.01500
H 	H 	0.08550 0.60340 0.63730 0.01500
C 	C 	0.09370 0.66020 0.70490 -0.09900
H 	H 	0.09240 0.69450 0.68200 0.05600
C 	C 	0.09960 0.66397 0.76490 0.04100
H 	H 	0.10240 0.70090 0.78300 0.00500
N 	N 	0.10180 0.46620 0.89550 -0.07600
N 	N 	0.10480 0.52146 0.86810 -0.19000
C 	C 	0.09820 0.51300 0.80733 0.02000
C 	C 	0.09110 0.45250 0.79720 -0.07500
H 	H 	0.08580 0.43450 0.76040 0.05000
C 	C 	0.09340 0.42361 0.85170 0.01900
H 	H 	0.08990 0.38290 0.85770 0.02300
C 	C 	0.11570 0.45850 0.95360 -0.10700
H 	H 	0.09570 0.42330 0.96820 0.06200
H 	H 	0.10120 0.49220 0.97610 0.05900
C 	C 	0.18258 0.45190 0.96440 0.05200
C 	C 	0.22050 0.45450 0.91752 -0.09000
H 	H 	0.20570 0.45880 0.87920 0.07200
C 	C 	0.28015 0.45070 0.92660 -0.00400
H 	H 	0.30610 0.45250 0.89460 0.03100
C 	C 	0.30179 0.44440 0.98270 -0.05100
C 	C 	0.26380 0.44180 0.02962 0.04800
C 	C 	0.20420 0.44560 0.02050 -0.03000
C 	C 	0.28740 0.43380 0.08470 -0.08700
H 	H 	0.32820 0.42960 0.08920 0.05700
C 	C 	0.25130 0.43180 0.13306 -0.01600
H 	H 	0.26680 0.43100 0.17130 0.03000
C 	C 	0.19170 0.43110 0.12341 -0.05500
H 	H 	0.16630 0.42390 0.15520 0.04100
C 	C 	0.16785 0.44070 0.06850 -0.03100
H 	H 	0.12690 0.44380 0.06390 0.03700
C 	C 	0.36240 0.44790 0.98880 0.05700
N 	N 	0.41640 0.44970 0.99600 -0.18700
N 	N 	0.39850 0.38630 0.29829 -0.22300
C 	C 	0.40250 0.44043 0.27170 0.04800
C 	C 	0.40850 0.44420 0.21170 -0.09600
H 	H 	0.41130 0.48120 0.19350 0.05400
C 	C 	0.41040 0.39390 0.17828 0.01500
H 	H 	0.41450 0.39660 0.13730 0.01500
C 	C 	0.40630 0.33980 0.20490 -0.09900
H 	H 	0.40760 0.30550 0.18200 0.05600
C 	C 	0.40040 0.33603 0.26490 0.04100
H 	H 	0.39760 0.29910 0.28300 0.00500
N 	N 	0.39820 0.53380 0.39550 -0.07600
N 	N 	0.39520 0.47854 0.36810 -0.19000
C 	C 	0.40180 0.48700 0.30733 0.02000
C 	C 	0.40890 0.54750 0.29720 -0.07500
H 	H 	0.41420 0.56550 0.26040 0.05000
C 	C 	0.40660 0.57639 0.35170 0.01900
H 	H 	0.41010 0.61710 0.35770 0.02300
C 	C 	0.38430 0.54150 0.45360 -0.10700
H 	H 	0.40430 0.57670 0.46820 0.06200
H 	H 	0.39880 0.50780 0.47610 0.05900
C 	C 	0.31742 0.54810 0.46440 0.05200
C 	C 	0.27950 0.54550 0.41752 -0.09000
H 	H 	0.29430 0.54120 0.37920 0.07200
C 	C 	0.21985 0.54930 0.42660 -0.00400
H 	H 	0.19390 0.54750 0.39460 0.03100
C 	C 	0.19821 0.55560 0.48270 -0.05200
C 	C 	0.23620 0.55820 0.52962 0.04800
C 	C 	0.29580 0.55440 0.52050 -0.03000
C 	C 	0.21260 0.56620 0.58470 -0.08700
H 	H 	0.17180 0.57040 0.58920 0.05700
C 	C 	0.24870 0.56820 0.63306 -0.01600
H 	H 	0.23320 0.56900 0.67130 0.03000
C 	C 	0.30830 0.56890 0.62341 -0.05500
H 	H 	0.33370 0.57610 0.65520 0.04100
C 	C 	0.33215 0.55930 0.56850 -0.03100
H 	H 	0.37310 0.55620 0.56390 0.03700
C 	C 	0.13760 0.55210 0.48880 0.05700
N 	N 	0.08360 0.55030 0.49600 -0.18700
N 	N 	0.60150 0.88630 0.20171 -0.22300
C 	C 	0.59750 0.94043 0.22830 0.04800
C 	C 	0.59150 0.94420 0.28830 -0.09600
H 	H 	0.58870 0.98120 0.30650 0.05400
C 	C 	0.58960 0.89390 0.32172 0.01500
H 	H 	0.58550 0.89660 0.36270 0.01500
C 	C 	0.59370 0.83980 0.29510 -0.09900
H 	H 	0.59240 0.80550 0.31800 0.05600
C 	C 	0.59960 0.83603 0.23510 0.04100
H 	H 	0.60240 0.79910 0.21700 0.00500
N 	N 	0.60180 0.03380 0.10450 -0.07600
N 	N 	0.60480 0.97854 0.13190 -0.19000
C 	C 	0.59820 0.98700 0.19267 0.02100
C 	C 	0.59110 0.04750 0.20280 -0.07600
H 	H 	0.58580 0.06550 0.23960 0.05000
C 	C 	0.59340 0.07639 0.14830 0.01900
H 	H 	0.58990 0.11710 0.14230 0.02300
C 	C 	0.61570 0.04150 0.04640 -0.10700
H 	H 	0.59570 0.07670 0.03180 0.06200
H 	H 	0.60120 0.00780 0.02390 0.05900
C 	C 	0.68258 0.04810 0.03560 0.05100
C 	C 	0.72050 0.04550 0.08248 -0.09000
H 	H 	0.70570 0.04120 0.12080 0.07200
C 	C 	0.78015 0.04930 0.07340 -0.00400
H 	H 	0.80610 0.04750 0.10540 0.03100
C 	C 	0.80179 0.05560 0.01730 -0.05200
C 	C 	0.76380 0.05820 0.97038 0.04800
C 	C 	0.70420 0.05440 0.97950 -0.03000
C 	C 	0.78740 0.06620 0.91530 -0.08700
H 	H 	0.82820 0.07040 0.91080 0.05700
C 	C 	0.75130 0.06820 0.86694 -0.01600
H 	H 	0.76680 0.06900 0.82870 0.03000
C 	C 	0.69170 0.06890 0.87659 -0.05500
H 	H 	0.66630 0.07610 0.84480 0.04100
C 	C 	0.66785 0.05930 0.93150 -0.03100
H 	H 	0.62690 0.05620 0.93610 0.03700
C 	C 	0.86240 0.05210 0.01120 0.05700
N 	N 	0.91640 0.05030 0.00400 -0.18700
Ag	Ag	0.48961 0.51039 0.01039 0.52800
Ag	Ag	0.01039 0.48961 0.51039 0.52800
Ag	Ag	0.51039 0.01039 0.48961 0.52800
Ag	Ag	0.98961 0.98961 0.98961 0.52900
Ni	Ni	0.61095 0.88905 0.11095 1.06100
Ni	Ni	0.88905 0.11095 0.61095 1.06100
Ni	Ni	0.38905 0.38905 0.38905 1.06100
Ni	Ni	0.11095 0.61095 0.88905 1.06100
N 	N 	0.61220 0.36810 0.97231 -0.22300
C 	C 	0.66530 0.36240 0.00060 0.04700
C 	C 	0.66680 0.35010 0.05970 -0.09500
H 	H 	0.70310 0.34620 0.07910 0.05500
C 	C 	0.61530 0.34340 0.09056 0.01800
H 	H 	0.61630 0.33500 0.13100 0.01700
C 	C 	0.56220 0.34910 0.06230 -0.09800
H 	H 	0.52700 0.34450 0.08330 0.05500
C 	C 	0.56070 0.36140 0.00310 0.03400
H 	H 	0.52440 0.36530 0.98380 0.00000
N 	N 	0.76240 0.37220 0.88015 -0.07500
N 	N 	0.70622 0.37180 0.90568 -0.19100
C 	C 	0.71300 0.36530 0.96667 0.02200
C 	C 	0.77340 0.36160 0.97880 -0.07500
H 	H 	0.79040 0.35700 0.01620 0.05100
C 	C 	0.80395 0.36580 0.92540 0.01800
H 	H 	0.84500 0.36470 0.92070 0.02200
C 	C 	0.77360 0.38650 0.82330 -0.11300
H 	H 	0.74070 0.37270 0.79920 0.06100
H 	H 	0.80870 0.36490 0.81070 0.06500
C 	C 	0.78310 0.45004 0.81040 0.06000
C 	C 	0.78640 0.48880 0.85662 -0.09900
H 	H 	0.78350 0.47500 0.89540 0.07200
C 	C 	0.79410 0.54780 0.84610 0.00400
H 	H 	0.79630 0.57430 0.87770 0.02600
C 	C 	0.79840 0.56804 0.78930 -0.06600
C 	C 	0.79510 0.52930 0.74310 0.05600
C 	C 	0.78750 0.47030 0.75363 -0.03600
C 	C 	0.79370 0.55020 0.68644 -0.09100
H 	H 	0.79440 0.59090 0.67950 0.05400
C 	C 	0.79120 0.51170 0.64000 -0.00700
H 	H 	0.79210 0.52580 0.60120 0.03000
C 	C 	0.78740 0.45230 0.65052 -0.05800
H 	H 	0.78510 0.42590 0.61890 0.04300
C 	C 	0.78680 0.43140 0.70740 -0.02500
H 	H 	0.78600 0.39080 0.71450 0.03600
C 	C 	0.80580 0.62900 0.78380 0.07300
N 	N 	0.81270 0.67900 0.77800 -0.19600
N 	N 	0.88780 0.63190 0.47231 -0.22300
C 	C 	0.83470 0.63760 0.50060 0.04800
C 	C 	0.83320 0.64990 0.55970 -0.09500
H 	H 	0.79690 0.65380 0.57910 0.05500
C 	C 	0.88470 0.65660 0.59056 0.01800
H 	H 	0.88370 0.66500 0.63100 0.01700
C 	C 	0.93780 0.65090 0.56230 -0.09800
H 	H 	0.97300 0.65550 0.58330 0.05600
C 	C 	0.93930 0.63860 0.50310 0.03400
H 	H 	0.97560 0.63470 0.48380 0.00000
N 	N 	0.73760 0.62780 0.38015 -0.07500
N 	N 	0.79378 0.62820 0.40568 -0.19100
C 	C 	0.78700 0.63470 0.46667 0.02200
C 	C 	0.72660 0.63840 0.47880 -0.07600
H 	H 	0.70960 0.64300 0.51620 0.05100
C 	C 	0.69605 0.63420 0.42540 0.01800
H 	H 	0.65500 0.63530 0.42070 0.02200
C 	C 	0.72640 0.61350 0.32330 -0.11300
H 	H 	0.75930 0.62730 0.29920 0.06100
H 	H 	0.69130 0.63510 0.31070 0.06500
C 	C 	0.71690 0.54996 0.31040 0.06000
C 	C 	0.71360 0.51120 0.35662 -0.09900
H 	H 	0.71650 0.52500 0.39540 0.07200
C 	C 	0.70590 0.45220 0.34610 0.00400
H 	H 	0.70370 0.42570 0.37770 0.02600
C 	C 	0.70160 0.43196 0.28930 -0.06600
C 	C 	0.70490 0.47070 0.24310 0.05600
C 	C 	0.71250 0.52970 0.25363 -0.03600
C 	C 	0.70630 0.44980 0.18644 -0.09100
H 	H 	0.70560 0.40910 0.17950 0.05400
C 	C 	0.70880 0.48830 0.14000 -0.00700
H 	H 	0.70790 0.47420 0.10120 0.03000
C 	C 	0.71260 0.54770 0.15052 -0.05800
H 	H 	0.71490 0.57410 0.11890 0.04300
C 	C 	0.71320 0.56860 0.20740 -0.02500
H 	H 	0.71400 0.60920 0.21450 0.03600
C 	C 	0.69420 0.37100 0.28380 0.07300
N 	N 	0.68730 0.32100 0.27800 -0.19600
N 	N 	0.38780 0.86810 0.52769 -0.22300
C 	C 	0.33470 0.86240 0.49940 0.04800
C 	C 	0.33320 0.85010 0.44030 -0.09500
H 	H 	0.29690 0.84620 0.42090 0.05500
C 	C 	0.38470 0.84340 0.40944 0.01800
H 	H 	0.38370 0.83500 0.36900 0.01700
C 	C 	0.43780 0.84910 0.43770 -0.09800
H 	H 	0.47300 0.84450 0.41670 0.05600
C 	C 	0.43930 0.86140 0.49690 0.03400
H 	H 	0.47560 0.86530 0.51620 0.00000
N 	N 	0.23760 0.87220 0.61985 -0.07500
N 	N 	0.29378 0.87180 0.59432 -0.19100
C 	C 	0.28700 0.86530 0.53333 0.02200
C 	C 	0.22660 0.86160 0.52120 -0.07600
H 	H 	0.20960 0.85700 0.48380 0.05100
C 	C 	0.19605 0.86580 0.57460 0.01800
H 	H 	0.15500 0.86470 0.57930 0.02200
C 	C 	0.22640 0.88650 0.67670 -0.11300
H 	H 	0.25930 0.87270 0.70080 0.06000
H 	H 	0.19130 0.86490 0.68930 0.06500
C 	C 	0.21690 0.95004 0.68960 0.06000
C 	C 	0.21360 0.98880 0.64338 -0.09800
H 	H 	0.21650 0.97500 0.60460 0.07200
C 	C 	0.20590 0.04780 0.65390 0.00300
H 	H 	0.20370 0.07430 0.62230 0.02600
C 	C 	0.20160 0.06804 0.71070 -0.06500
C 	C 	0.20490 0.02930 0.75690 0.05500
C 	C 	0.21250 0.97030 0.74637 -0.03500
C 	C 	0.20630 0.05020 0.81356 -0.09000
H 	H 	0.20560 0.09090 0.82050 0.05400
C 	C 	0.20880 0.01170 0.86000 -0.00800
H 	H 	0.20790 0.02580 0.89880 0.03000
C 	C 	0.21260 0.95230 0.84948 -0.05700
H 	H 	0.21490 0.92590 0.88110 0.04200
C 	C 	0.21320 0.93140 0.79260 -0.02600
H 	H 	0.21400 0.89080 0.78550 0.03600
C 	C 	0.19420 0.12900 0.71620 0.07300
N 	N 	0.18730 0.17900 0.72200 -0.19600
N 	N 	0.11220 0.13190 0.02769 -0.22300
C 	C 	0.16530 0.13760 0.99940 0.04900
C 	C 	0.16680 0.14990 0.94030 -0.09600
H 	H 	0.20310 0.15380 0.92090 0.05500
C 	C 	0.11530 0.15660 0.90944 0.01900
H 	H 	0.11630 0.16500 0.86900 0.01600
C 	C 	0.06220 0.15090 0.93770 -0.09900
H 	H 	0.02700 0.15550 0.91670 0.05600
C 	C 	0.06070 0.13860 0.99690 0.03600
H 	H 	0.02440 0.13470 0.01620 -0.00100
N 	N 	0.26240 0.12780 0.11985 -0.07500
N 	N 	0.20622 0.12820 0.09432 -0.19100
C 	C 	0.21300 0.13470 0.03333 0.02200
C 	C 	0.27340 0.13840 0.02120 -0.07600
H 	H 	0.29040 0.14300 0.98380 0.05100
C 	C 	0.30395 0.13420 0.07460 0.01800
H 	H 	0.34500 0.13530 0.07930 0.02200
C 	C 	0.27360 0.11350 0.17670 -0.11300
H 	H 	0.24070 0.12730 0.20080 0.06100
H 	H 	0.30870 0.13510 0.18930 0.06500
C 	C 	0.28310 0.04996 0.18960 0.06100
C 	C 	0.28640 0.01120 0.14338 -0.10000
H 	H 	0.28350 0.02500 0.10460 0.07300
C 	C 	0.29410 0.95220 0.15390 0.00500
H 	H 	0.29630 0.92570 0.12230 0.02600
C 	C 	0.29840 0.93196 0.21070 -0.06600
C 	C 	0.29510 0.97070 0.25690 0.05700
C 	C 	0.28750 0.02970 0.24637 -0.03700
C 	C 	0.29370 0.94980 0.31356 -0.09200
H 	H 	0.29440 0.90910 0.32050 0.05400
C 	C 	0.29120 0.98830 0.36000 -0.00600
H 	H 	0.29210 0.97420 0.39880 0.02900
C 	C 	0.28740 0.04770 0.34948 -0.05900
H 	H 	0.28510 0.07410 0.38110 0.04300
C 	C 	0.28680 0.06860 0.29260 -0.02400
H 	H 	0.28600 0.10920 0.28550 0.03500
C 	C 	0.30580 0.87100 0.21620 0.07300
N 	N 	0.31270 0.82100 0.22200 -0.19700
N 	N 	0.97231 0.61220 0.36810 -0.22300
C 	C 	0.00060 0.66530 0.36240 0.04700
C 	C 	0.05970 0.66680 0.35010 -0.09500
H 	H 	0.07910 0.70310 0.34620 0.05500
C 	C 	0.09056 0.61530 0.34340 0.01800
H 	H 	0.13100 0.61630 0.33500 0.01700
C 	C 	0.06230 0.56220 0.34910 -0.09800
H 	H 	0.08330 0.52700 0.34450 0.05500
C 	C 	0.00310 0.56070 0.36140 0.03400
H 	H 	0.98380 0.52440 0.36530 0.00000
N 	N 	0.88015 0.76240 0.37220 -0.07500
N 	N 	0.90568 0.70622 0.37180 -0.19100
C 	C 	0.96667 0.71300 0.36530 0.02200
C 	C 	0.97880 0.77340 0.36160 -0.07500
H 	H 	0.01620 0.79040 0.35700 0.05100
C 	C 	0.92540 0.80395 0.36580 0.01800
H 	H 	0.92070 0.84500 0.36470 0.02200
C 	C 	0.82330 0.77360 0.38650 -0.11300
H 	H 	0.79920 0.74070 0.37270 0.06100
H 	H 	0.81070 0.80870 0.36490 0.06500
C 	C 	0.81040 0.78310 0.45004 0.06000
C 	C 	0.85662 0.78640 0.48880 -0.09900
H 	H 	0.89540 0.78350 0.47500 0.07200
C 	C 	0.84610 0.79410 0.54780 0.00400
H 	H 	0.87770 0.79630 0.57430 0.02600
C 	C 	0.78930 0.79840 0.56804 -0.06600
C 	C 	0.74310 0.79510 0.52930 0.05600
C 	C 	0.75363 0.78750 0.47030 -0.03600
C 	C 	0.68644 0.79370 0.55020 -0.09100
H 	H 	0.67950 0.79440 0.59090 0.05400
C 	C 	0.64000 0.79120 0.51170 -0.00700
H 	H 	0.60120 0.79210 0.52580 0.03000
C 	C 	0.65052 0.78740 0.45230 -0.05800
H 	H 	0.61890 0.78510 0.42590 0.04300
C 	C 	0.70740 0.78680 0.43140 -0.02500
H 	H 	0.71450 0.78600 0.39080 0.03600
C 	C 	0.78380 0.80580 0.62900 0.07300
N 	N 	0.77800 0.81270 0.67900 -0.19600
N 	N 	0.47231 0.88780 0.63190 -0.22300
C 	C 	0.50060 0.83470 0.63760 0.04800
C 	C 	0.55970 0.83320 0.64990 -0.09500
H 	H 	0.57910 0.79690 0.65380 0.05500
C 	C 	0.59056 0.88470 0.65660 0.01800
H 	H 	0.63100 0.88370 0.66500 0.01700
C 	C 	0.56230 0.93780 0.65090 -0.09800
H 	H 	0.58330 0.97300 0.65550 0.05600
C 	C 	0.50310 0.93930 0.63860 0.03400
H 	H 	0.48380 0.97560 0.63470 0.00000
N 	N 	0.38015 0.73760 0.62780 -0.07500
N 	N 	0.40568 0.79378 0.62820 -0.19100
C 	C 	0.46667 0.78700 0.63470 0.02200
C 	C 	0.47880 0.72660 0.63840 -0.07600
H 	H 	0.51620 0.70960 0.64300 0.05100
C 	C 	0.42540 0.69605 0.63420 0.01800
H 	H 	0.42070 0.65500 0.63530 0.02200
C 	C 	0.32330 0.72640 0.61350 -0.11300
H 	H 	0.29920 0.75930 0.62730 0.06100
H 	H 	0.31070 0.69130 0.63510 0.06500
C 	C 	0.31040 0.71690 0.54996 0.06000
C 	C 	0.35662 0.71360 0.51120 -0.09900
H 	H 	0.39540 0.71650 0.52500 0.07200
C 	C 	0.34610 0.70590 0.45220 0.00400
H 	H 	0.37770 0.70370 0.42570 0.02600
C 	C 	0.28930 0.70160 0.43196 -0.06600
C 	C 	0.24310 0.70490 0.47070 0.05600
C 	C 	0.25363 0.71250 0.52970 -0.03600
C 	C 	0.18644 0.70630 0.44980 -0.09100
H 	H 	0.17950 0.70560 0.40910 0.05400
C 	C 	0.14000 0.70880 0.48830 -0.00700
H 	H 	0.10120 0.70790 0.47420 0.03000
C 	C 	0.15052 0.71260 0.54770 -0.05800
H 	H 	0.11890 0.71490 0.57410 0.04300
C 	C 	0.20740 0.71320 0.56860 -0.02500
H 	H 	0.21450 0.71400 0.60920 0.03600
C 	C 	0.28380 0.69420 0.37100 0.07300
N 	N 	0.27800 0.68730 0.32100 -0.19600
N 	N 	0.52769 0.38780 0.86810 -0.22300
C 	C 	0.49940 0.33470 0.86240 0.04800
C 	C 	0.44030 0.33320 0.85010 -0.09500
H 	H 	0.42090 0.29690 0.84620 0.05500
C 	C 	0.40944 0.38470 0.84340 0.01800
H 	H 	0.36900 0.38370 0.83500 0.01700
C 	C 	0.43770 0.43780 0.84910 -0.09800
H 	H 	0.41670 0.47300 0.84450 0.05600
C 	C 	0.49690 0.43930 0.86140 0.03400
H 	H 	0.51620 0.47560 0.86530 0.00000
N 	N 	0.61985 0.23760 0.87220 -0.07500
N 	N 	0.59432 0.29378 0.87180 -0.19100
C 	C 	0.53333 0.28700 0.86530 0.02200
C 	C 	0.52120 0.22660 0.86160 -0.07600
H 	H 	0.48380 0.20960 0.85700 0.05100
C 	C 	0.57460 0.19605 0.86580 0.01800
H 	H 	0.57930 0.15500 0.86470 0.02200
C 	C 	0.67670 0.22640 0.88650 -0.11300
H 	H 	0.70080 0.25930 0.87270 0.06000
H 	H 	0.68930 0.19130 0.86490 0.06500
C 	C 	0.68960 0.21690 0.95004 0.06000
C 	C 	0.64338 0.21360 0.98880 -0.09800
H 	H 	0.60460 0.21650 0.97500 0.07200
C 	C 	0.65390 0.20590 0.04780 0.00300
H 	H 	0.62230 0.20370 0.07430 0.02600
C 	C 	0.71070 0.20160 0.06804 -0.06500
C 	C 	0.75690 0.20490 0.02930 0.05500
C 	C 	0.74637 0.21250 0.97030 -0.03500
C 	C 	0.81356 0.20630 0.05020 -0.09000
H 	H 	0.82050 0.20560 0.09090 0.05400
C 	C 	0.86000 0.20880 0.01170 -0.00800
H 	H 	0.89880 0.20790 0.02580 0.03000
C 	C 	0.84948 0.21260 0.95230 -0.05700
H 	H 	0.88110 0.21490 0.92590 0.04200
C 	C 	0.79260 0.21320 0.93140 -0.02600
H 	H 	0.78550 0.21400 0.89080 0.03600
C 	C 	0.71620 0.19420 0.12900 0.07300
N 	N 	0.72200 0.18730 0.17900 -0.19600
N 	N 	0.02769 0.11220 0.13190 -0.22300
C 	C 	0.99940 0.16530 0.13760 0.04900
C 	C 	0.94030 0.16680 0.14990 -0.09600
H 	H 	0.92090 0.20310 0.15380 0.05500
C 	C 	0.90944 0.11530 0.15660 0.01900
H 	H 	0.86900 0.11630 0.16500 0.01600
C 	C 	0.93770 0.06220 0.15090 -0.09900
H 	H 	0.91670 0.02700 0.15550 0.05600
C 	C 	0.99690 0.06070 0.13860 0.03600
H 	H 	0.01620 0.02440 0.13470 -0.00100
N 	N 	0.11985 0.26240 0.12780 -0.07500
N 	N 	0.09432 0.20622 0.12820 -0.19100
C 	C 	0.03333 0.21300 0.13470 0.02200
C 	C 	0.02120 0.27340 0.13840 -0.07600
H 	H 	0.98380 0.29040 0.14300 0.05100
C 	C 	0.07460 0.30395 0.13420 0.01800
H 	H 	0.07930 0.34500 0.13530 0.02200
C 	C 	0.17670 0.27360 0.11350 -0.11300
H 	H 	0.20080 0.24070 0.12730 0.06100
H 	H 	0.18930 0.30870 0.13510 0.06500
C 	C 	0.18960 0.28310 0.04996 0.06100
C 	C 	0.14338 0.28640 0.01120 -0.10000
H 	H 	0.10460 0.28350 0.02500 0.07300
C 	C 	0.15390 0.29410 0.95220 0.00500
H 	H 	0.12230 0.29630 0.92570 0.02600
C 	C 	0.21070 0.29840 0.93196 -0.06600
C 	C 	0.25690 0.29510 0.97070 0.05700
C 	C 	0.24637 0.28750 0.02970 -0.03700
C 	C 	0.31356 0.29370 0.94980 -0.09200
H 	H 	0.32050 0.29440 0.90910 0.05400
C 	C 	0.36000 0.29120 0.98830 -0.00600
H 	H 	0.39880 0.29210 0.97420 0.02900
C 	C 	0.34948 0.28740 0.04770 -0.05900
H 	H 	0.38110 0.28510 0.07410 0.04300
C 	C 	0.29260 0.28680 0.06860 -0.02400
H 	H 	0.28550 0.28600 0.10920 0.03500
C 	C 	0.21620 0.30580 0.87100 0.07300
N 	N 	0.22200 0.31270 0.82100 -0.19700
N 	N 	0.36810 0.97231 0.61220 -0.22300
C 	C 	0.36240 0.00060 0.66530 0.04700
C 	C 	0.35010 0.05970 0.66680 -0.09500
H 	H 	0.34620 0.07910 0.70310 0.05500
C 	C 	0.34340 0.09056 0.61530 0.01800
H 	H 	0.33500 0.13100 0.61630 0.01700
C 	C 	0.34910 0.06230 0.56220 -0.09800
H 	H 	0.34450 0.08330 0.52700 0.05500
C 	C 	0.36140 0.00310 0.56070 0.03400
H 	H 	0.36530 0.98380 0.52440 0.00000
N 	N 	0.37220 0.88015 0.76240 -0.07500
N 	N 	0.37180 0.90568 0.70622 -0.19100
C 	C 	0.36530 0.96667 0.71300 0.02200
C 	C 	0.36160 0.97880 0.77340 -0.07500
H 	H 	0.35700 0.01620 0.79040 0.05100
C 	C 	0.36580 0.92540 0.80395 0.01800
H 	H 	0.36470 0.92070 0.84500 0.02200
C 	C 	0.38650 0.82330 0.77360 -0.11300
H 	H 	0.37270 0.79920 0.74070 0.06100
H 	H 	0.36490 0.81070 0.80870 0.06500
C 	C 	0.45004 0.81040 0.78310 0.06000
C 	C 	0.48880 0.85662 0.78640 -0.09900
H 	H 	0.47500 0.89540 0.78350 0.07200
C 	C 	0.54780 0.84610 0.79410 0.00400
H 	H 	0.57430 0.87770 0.79630 0.02600
C 	C 	0.56804 0.78930 0.79840 -0.06600
C 	C 	0.52930 0.74310 0.79510 0.05600
C 	C 	0.47030 0.75363 0.78750 -0.03600
C 	C 	0.55020 0.68644 0.79370 -0.09100
H 	H 	0.59090 0.67950 0.79440 0.05400
C 	C 	0.51170 0.64000 0.79120 -0.00700
H 	H 	0.52580 0.60120 0.79210 0.03000
C 	C 	0.45230 0.65052 0.78740 -0.05800
H 	H 	0.42590 0.61890 0.78510 0.04300
C 	C 	0.43140 0.70740 0.78680 -0.02500
H 	H 	0.39080 0.71450 0.78600 0.03600
C 	C 	0.62900 0.78380 0.80580 0.07300
N 	N 	0.67900 0.77800 0.81270 -0.19600
N 	N 	0.63190 0.47231 0.88780 -0.22300
C 	C 	0.63760 0.50060 0.83470 0.04800
C 	C 	0.64990 0.55970 0.83320 -0.09500
H 	H 	0.65380 0.57910 0.79690 0.05500
C 	C 	0.65660 0.59056 0.88470 0.01800
H 	H 	0.66500 0.63100 0.88370 0.01700
C 	C 	0.65090 0.56230 0.93780 -0.09800
H 	H 	0.65550 0.58330 0.97300 0.05600
C 	C 	0.63860 0.50310 0.93930 0.03400
H 	H 	0.63470 0.48380 0.97560 0.00000
N 	N 	0.62780 0.38015 0.73760 -0.07500
N 	N 	0.62820 0.40568 0.79378 -0.19100
C 	C 	0.63470 0.46667 0.78700 0.02200
C 	C 	0.63840 0.47880 0.72660 -0.07600
H 	H 	0.64300 0.51620 0.70960 0.05100
C 	C 	0.63420 0.42540 0.69605 0.01800
H 	H 	0.63530 0.42070 0.65500 0.02200
C 	C 	0.61350 0.32330 0.72640 -0.11300
H 	H 	0.62730 0.29920 0.75930 0.06100
H 	H 	0.63510 0.31070 0.69130 0.06500
C 	C 	0.54996 0.31040 0.71690 0.06000
C 	C 	0.51120 0.35662 0.71360 -0.09900
H 	H 	0.52500 0.39540 0.71650 0.07200
C 	C 	0.45220 0.34610 0.70590 0.00400
H 	H 	0.42570 0.37770 0.70370 0.02600
C 	C 	0.43196 0.28930 0.70160 -0.06600
C 	C 	0.47070 0.24310 0.70490 0.05600
C 	C 	0.52970 0.25363 0.71250 -0.03600
C 	C 	0.44980 0.18644 0.70630 -0.09100
H 	H 	0.40910 0.17950 0.70560 0.05400
C 	C 	0.48830 0.14000 0.70880 -0.00700
H 	H 	0.47420 0.10120 0.70790 0.03000
C 	C 	0.54770 0.15052 0.71260 -0.05800
H 	H 	0.57410 0.11890 0.71490 0.04300
C 	C 	0.56860 0.20740 0.71320 -0.02500
H 	H 	0.60920 0.21450 0.71400 0.03600
C 	C 	0.37100 0.28380 0.69420 0.07300
N 	N 	0.32100 0.27800 0.68730 -0.19600
N 	N 	0.86810 0.52769 0.38780 -0.22300
C 	C 	0.86240 0.49940 0.33470 0.04800
C 	C 	0.85010 0.44030 0.33320 -0.09500
H 	H 	0.84620 0.42090 0.29690 0.05500
C 	C 	0.84340 0.40944 0.38470 0.01800
H 	H 	0.83500 0.36900 0.38370 0.01700
C 	C 	0.84910 0.43770 0.43780 -0.09800
H 	H 	0.84450 0.41670 0.47300 0.05600
C 	C 	0.86140 0.49690 0.43930 0.03400
H 	H 	0.86530 0.51620 0.47560 0.00000
N 	N 	0.87220 0.61985 0.23760 -0.07500
N 	N 	0.87180 0.59432 0.29378 -0.19100
C 	C 	0.86530 0.53333 0.28700 0.02200
C 	C 	0.86160 0.52120 0.22660 -0.07600
H 	H 	0.85700 0.48380 0.20960 0.05100
C 	C 	0.86580 0.57460 0.19605 0.01800
H 	H 	0.86470 0.57930 0.15500 0.02200
C 	C 	0.88650 0.67670 0.22640 -0.11300
H 	H 	0.87270 0.70080 0.25930 0.06000
H 	H 	0.86490 0.68930 0.19130 0.06500
C 	C 	0.95004 0.68960 0.21690 0.06000
C 	C 	0.98880 0.64338 0.21360 -0.09800
H 	H 	0.97500 0.60460 0.21650 0.07200
C 	C 	0.04780 0.65390 0.20590 0.00300
H 	H 	0.07430 0.62230 0.20370 0.02600
C 	C 	0.06804 0.71070 0.20160 -0.06500
C 	C 	0.02930 0.75690 0.20490 0.05500
C 	C 	0.97030 0.74637 0.21250 -0.03500
C 	C 	0.05020 0.81356 0.20630 -0.09000
H 	H 	0.09090 0.82050 0.20560 0.05400
C 	C 	0.01170 0.86000 0.20880 -0.00800
H 	H 	0.02580 0.89880 0.20790 0.03000
C 	C 	0.95230 0.84948 0.21260 -0.05700
H 	H 	0.92590 0.88110 0.21490 0.04200
C 	C 	0.93140 0.79260 0.21320 -0.02600
H 	H 	0.89080 0.78550 0.21400 0.03600
C 	C 	0.12900 0.71620 0.19420 0.07300
N 	N 	0.17900 0.72200 0.18730 -0.19600
N 	N 	0.13190 0.02769 0.11220 -0.22300
C 	C 	0.13760 0.99940 0.16530 0.04900
C 	C 	0.14990 0.94030 0.16680 -0.09600
H 	H 	0.15380 0.92090 0.20310 0.05500
C 	C 	0.15660 0.90944 0.11530 0.01900
H 	H 	0.16500 0.86900 0.11630 0.01600
C 	C 	0.15090 0.93770 0.06220 -0.09900
H 	H 	0.15550 0.91670 0.02700 0.05600
C 	C 	0.13860 0.99690 0.06070 0.03600
H 	H 	0.13470 0.01620 0.02440 -0.00100
N 	N 	0.12780 0.11985 0.26240 -0.07500
N 	N 	0.12820 0.09432 0.20622 -0.19100
C 	C 	0.13470 0.03333 0.21300 0.02200
C 	C 	0.13840 0.02120 0.27340 -0.07600
H 	H 	0.14300 0.98380 0.29040 0.05100
C 	C 	0.13420 0.07460 0.30395 0.01800
H 	H 	0.13530 0.07930 0.34500 0.02200
C 	C 	0.11350 0.17670 0.27360 -0.11300
H 	H 	0.12730 0.20080 0.24070 0.06100
H 	H 	0.13510 0.18930 0.30870 0.06500
C 	C 	0.04996 0.18960 0.28310 0.06100
C 	C 	0.01120 0.14338 0.28640 -0.10000
H 	H 	0.02500 0.10460 0.28350 0.07300
C 	C 	0.95220 0.15390 0.29410 0.00500
H 	H 	0.92570 0.12230 0.29630 0.02600
C 	C 	0.93196 0.21070 0.29840 -0.06600
C 	C 	0.97070 0.25690 0.29510 0.05700
C 	C 	0.02970 0.24637 0.28750 -0.03700
C 	C 	0.94980 0.31356 0.29370 -0.09200
H 	H 	0.90910 0.32050 0.29440 0.05400
C 	C 	0.98830 0.36000 0.29120 -0.00600
H 	H 	0.97420 0.39880 0.29210 0.02900
C 	C 	0.04770 0.34948 0.28740 -0.05900
H 	H 	0.07410 0.38110 0.28510 0.04300
C 	C 	0.06860 0.29260 0.28680 -0.02400
H 	H 	0.10920 0.28550 0.28600 0.03500
C 	C 	0.87100 0.21620 0.30580 0.07300
N 	N 	0.82100 0.22200 0.31270 -0.19700
Ni	Ni	0.61829 0.38171 0.88171 1.05900
Ni	Ni	0.88171 0.61829 0.38171 1.05900
Ni	Ni	0.38171 0.88171 0.61829 1.05900
Ni	Ni	0.11829 0.11829 0.11829 1.05900
Ag	Ag	0.75736 0.75736 0.75736 0.52200
Ag	Ag	0.74264 0.24264 0.25736 0.52200
Ag	Ag	0.24264 0.25736 0.74264 0.52200
Ag	Ag	0.25736 0.74264 0.24264 0.52200
