data_crystal

_cell_length_a 23.05380
_cell_length_b 23.05380
_cell_length_c 23.05380
_cell_angle_alpha 90.00000
_cell_angle_beta  90.00000
_cell_angle_gamma 90.00000

_symmetry_space_group_name_	'P 1'
_symmetry_space_group_name_H-M	'P 1'

loop_
_symmetry_equiv_pos_as_xyz
  x,y,z

loop_
_atom_site_label
_atom_site_type_symbol
_atom_site_fract_x
_atom_site_fract_y
_atom_site_fract_z
_atom_site_charge
N 	N 	0.22300 0.88350 0.36580 -0.22400
C 	C 	0.25150 0.88920 0.41860 0.03700
C 	C 	0.31040 0.90200 0.41980 -0.09000
H 	H 	0.32990 0.90590 0.45590 0.05200
C 	C 	0.34080 0.90920 0.36830 0.01300
H 	H 	0.38100 0.91790 0.36910 0.01600
C 	C 	0.31230 0.90350 0.31540 -0.09500
H 	H 	0.33300 0.90840 0.28020 0.05300
C 	C 	0.25340 0.89060 0.31420 0.03000
H 	H 	0.23390 0.88670 0.27810 -0.00300
N 	N 	0.13460 0.87660 0.51450 -0.08200
N 	N 	0.15620 0.87910 0.45980 -0.19900
C 	C 	0.21440 0.88640 0.46900 0.04300
C 	C 	0.22710 0.88960 0.52850 -0.10700
H 	H 	0.26390 0.89360 0.54660 0.06100
C 	C 	0.17410 0.88580 0.55390 0.04800
H 	H 	0.16690 0.88920 0.59440 0.01100
C 	C 	0.07410 0.86340 0.52490 -0.12400
H 	H 	0.05120 0.87710 0.49120 0.05700
H 	H 	0.06110 0.88570 0.55920 0.06600
C 	C 	0.06060 0.80110 0.53470 0.06300
C 	C 	0.10630 0.76200 0.53780 -0.10300
H 	H 	0.14520 0.77550 0.53590 0.07100
C 	C 	0.09520 0.70300 0.54380 0.00400
H 	H 	0.12650 0.67630 0.54590 0.02500
C 	C 	0.03830 0.68320 0.54660 -0.06700
C 	C 	0.99260 0.72230 0.54350 0.05600
C 	C 	0.00370 0.78130 0.53750 -0.04000
C 	C 	0.93600 0.70160 0.54620 -0.09400
H 	H 	0.92910 0.66150 0.55230 0.05500
C 	C 	0.88960 0.73960 0.53990 -0.00700
H 	H 	0.85100 0.72540 0.53770 0.02800
C 	C 	0.90070 0.79880 0.53690 -0.05900
H 	H 	0.86930 0.82520 0.53320 0.04300
C 	C 	0.95760 0.82010 0.53920 -0.02400
H 	H 	0.96450 0.86060 0.54190 0.03500
C 	C 	0.03260 0.62020 0.55290 0.07700
N 	N 	0.02830 0.57090 0.55780 -0.20300
N 	N 	0.27700 0.11650 0.86580 -0.22300
C 	C 	0.24850 0.11080 0.91860 0.03800
C 	C 	0.18960 0.09800 0.91980 -0.08900
H 	H 	0.17010 0.09410 0.95590 0.05300
C 	C 	0.15920 0.09080 0.86830 0.01400
H 	H 	0.11900 0.08210 0.86910 0.01700
C 	C 	0.18770 0.09650 0.81540 -0.09400
H 	H 	0.16700 0.09160 0.78020 0.05400
C 	C 	0.24660 0.10940 0.81420 0.03100
H 	H 	0.26610 0.11330 0.77810 -0.00200
N 	N 	0.36540 0.12340 0.01450 -0.08100
N 	N 	0.34380 0.12090 0.95980 -0.19800
C 	C 	0.28560 0.11360 0.96900 0.04500
C 	C 	0.27290 0.11040 0.02850 -0.10700
H 	H 	0.23610 0.10640 0.04660 0.06200
C 	C 	0.32590 0.11420 0.05390 0.04900
H 	H 	0.33310 0.11080 0.09440 0.01200
C 	C 	0.42590 0.13660 0.02490 -0.12400
H 	H 	0.44880 0.12290 0.99120 0.05800
H 	H 	0.43890 0.11430 0.05920 0.06700
C 	C 	0.43940 0.19890 0.03470 0.06400
C 	C 	0.39370 0.23800 0.03780 -0.10200
H 	H 	0.35480 0.22450 0.03590 0.07200
C 	C 	0.40480 0.29700 0.04380 0.00500
H 	H 	0.37350 0.32370 0.04590 0.02600
C 	C 	0.46170 0.31680 0.04660 -0.06600
C 	C 	0.50740 0.27770 0.04350 0.05700
C 	C 	0.49630 0.21870 0.03750 -0.03900
C 	C 	0.56400 0.29840 0.04620 -0.09300
H 	H 	0.57090 0.33850 0.05230 0.05600
C 	C 	0.61040 0.26040 0.03990 -0.00600
H 	H 	0.64900 0.27460 0.03770 0.02900
C 	C 	0.59930 0.20120 0.03690 -0.05900
H 	H 	0.63070 0.17480 0.03320 0.04300
C 	C 	0.54240 0.17990 0.03920 -0.02400
H 	H 	0.53550 0.13940 0.04190 0.03500
C 	C 	0.46740 0.37980 0.05290 0.07700
N 	N 	0.47170 0.42910 0.05780 -0.20300
N 	N 	0.77700 0.38350 0.13420 -0.22300
C 	C 	0.74850 0.38920 0.08140 0.03800
C 	C 	0.68960 0.40200 0.08020 -0.08900
H 	H 	0.67010 0.40590 0.04410 0.05300
C 	C 	0.65920 0.40920 0.13170 0.01400
H 	H 	0.61900 0.41790 0.13090 0.01700
C 	C 	0.68770 0.40350 0.18460 -0.09500
H 	H 	0.66700 0.40840 0.21980 0.05400
C 	C 	0.74660 0.39060 0.18580 0.03100
H 	H 	0.76610 0.38670 0.22190 -0.00200
N 	N 	0.86540 0.37660 0.98550 -0.08100
N 	N 	0.84380 0.37910 0.04020 -0.19800
C 	C 	0.78560 0.38640 0.03100 0.04400
C 	C 	0.77290 0.38960 0.97150 -0.10600
H 	H 	0.73610 0.39360 0.95340 0.06200
C 	C 	0.82590 0.38580 0.94610 0.04900
H 	H 	0.83310 0.38920 0.90560 0.01200
C 	C 	0.92590 0.36340 0.97510 -0.12300
H 	H 	0.94880 0.37710 0.00880 0.05800
H 	H 	0.93890 0.38570 0.94080 0.06700
C 	C 	0.93940 0.30110 0.96530 0.06400
C 	C 	0.89370 0.26200 0.96220 -0.10200
H 	H 	0.85480 0.27550 0.96410 0.07200
C 	C 	0.90480 0.20300 0.95620 0.00500
H 	H 	0.87350 0.17630 0.95410 0.02600
C 	C 	0.96170 0.18320 0.95340 -0.06600
C 	C 	0.00740 0.22230 0.95650 0.05700
C 	C 	0.99630 0.28130 0.96250 -0.03900
C 	C 	0.06400 0.20160 0.95380 -0.09300
H 	H 	0.07090 0.16150 0.94770 0.05600
C 	C 	0.11040 0.23960 0.96010 -0.00700
H 	H 	0.14900 0.22540 0.96230 0.02900
C 	C 	0.09930 0.29880 0.96310 -0.05800
H 	H 	0.13070 0.32520 0.96680 0.04300
C 	C 	0.04240 0.32010 0.96080 -0.02400
H 	H 	0.03550 0.36060 0.95810 0.03500
C 	C 	0.96740 0.12020 0.94710 0.07800
N 	N 	0.97170 0.07090 0.94220 -0.20200
N 	N 	0.72300 0.61650 0.63420 -0.22300
C 	C 	0.75150 0.61080 0.58140 0.03800
C 	C 	0.81040 0.59800 0.58020 -0.08900
H 	H 	0.82990 0.59410 0.54410 0.05300
C 	C 	0.84080 0.59080 0.63170 0.01400
H 	H 	0.88100 0.58210 0.63090 0.01700
C 	C 	0.81230 0.59650 0.68460 -0.09500
H 	H 	0.83300 0.59160 0.71980 0.05400
C 	C 	0.75340 0.60940 0.68580 0.03100
H 	H 	0.73390 0.61330 0.72190 -0.00200
N 	N 	0.63460 0.62340 0.48550 -0.08100
N 	N 	0.65620 0.62090 0.54020 -0.19800
C 	C 	0.71440 0.61360 0.53100 0.04400
C 	C 	0.72710 0.61040 0.47150 -0.10600
H 	H 	0.76390 0.60640 0.45340 0.06200
C 	C 	0.67410 0.61420 0.44610 0.04900
H 	H 	0.66690 0.61080 0.40560 0.01200
C 	C 	0.57410 0.63660 0.47510 -0.12300
H 	H 	0.55120 0.62290 0.50880 0.05800
H 	H 	0.56110 0.61430 0.44080 0.06700
C 	C 	0.56060 0.69890 0.46530 0.06400
C 	C 	0.60630 0.73800 0.46220 -0.10200
H 	H 	0.64520 0.72450 0.46410 0.07200
C 	C 	0.59520 0.79700 0.45620 0.00500
H 	H 	0.62650 0.82370 0.45410 0.02600
C 	C 	0.53830 0.81680 0.45340 -0.06600
C 	C 	0.49260 0.77770 0.45650 0.05700
C 	C 	0.50370 0.71870 0.46250 -0.03900
C 	C 	0.43600 0.79840 0.45380 -0.09300
H 	H 	0.42910 0.83850 0.44770 0.05600
C 	C 	0.38960 0.76040 0.46010 -0.00600
H 	H 	0.35100 0.77460 0.46230 0.02900
C 	C 	0.40070 0.70120 0.46310 -0.05800
H 	H 	0.36930 0.67480 0.46680 0.04300
C 	C 	0.45760 0.67990 0.46080 -0.02400
H 	H 	0.46450 0.63940 0.45810 0.03500
C 	C 	0.53260 0.87980 0.44710 0.07800
N 	N 	0.52830 0.92910 0.44220 -0.20300
N 	N 	0.36580 0.22300 0.88350 -0.22300
C 	C 	0.41860 0.25150 0.88920 0.03800
C 	C 	0.41980 0.31040 0.90200 -0.08900
H 	H 	0.45590 0.32990 0.90590 0.05300
C 	C 	0.36830 0.34080 0.90920 0.01400
H 	H 	0.36910 0.38100 0.91790 0.01700
C 	C 	0.31540 0.31230 0.90350 -0.09400
H 	H 	0.28020 0.33300 0.90840 0.05400
C 	C 	0.31420 0.25340 0.89060 0.03100
H 	H 	0.27810 0.23390 0.88670 -0.00200
N 	N 	0.51450 0.13460 0.87660 -0.08100
N 	N 	0.45980 0.15620 0.87910 -0.19800
C 	C 	0.46900 0.21440 0.88640 0.04400
C 	C 	0.52850 0.22710 0.88960 -0.10600
H 	H 	0.54660 0.26390 0.89360 0.06200
C 	C 	0.55390 0.17410 0.88580 0.04900
H 	H 	0.59440 0.16690 0.88920 0.01200
C 	C 	0.52490 0.07410 0.86340 -0.12300
H 	H 	0.49120 0.05120 0.87710 0.05800
H 	H 	0.55920 0.06110 0.88570 0.06700
C 	C 	0.53470 0.06060 0.80110 0.06400
C 	C 	0.53780 0.10630 0.76200 -0.10200
H 	H 	0.53590 0.14520 0.77550 0.07200
C 	C 	0.54380 0.09520 0.70300 0.00500
H 	H 	0.54590 0.12650 0.67630 0.02600
C 	C 	0.54660 0.03830 0.68320 -0.06600
C 	C 	0.54350 0.99260 0.72230 0.05700
C 	C 	0.53750 0.00370 0.78130 -0.03900
C 	C 	0.54620 0.93600 0.70160 -0.09300
H 	H 	0.55230 0.92910 0.66150 0.05600
C 	C 	0.53990 0.88960 0.73960 -0.00600
H 	H 	0.53770 0.85100 0.72540 0.02900
C 	C 	0.53690 0.90070 0.79880 -0.05800
H 	H 	0.53320 0.86930 0.82520 0.04300
C 	C 	0.53920 0.95760 0.82010 -0.02400
H 	H 	0.54190 0.96450 0.86060 0.03500
C 	C 	0.55290 0.03260 0.62020 0.07700
N 	N 	0.55780 0.02830 0.57090 -0.20300
N 	N 	0.86580 0.27700 0.11650 -0.22300
C 	C 	0.91860 0.24850 0.11080 0.03800
C 	C 	0.91980 0.18960 0.09800 -0.08900
H 	H 	0.95590 0.17010 0.09410 0.05300
C 	C 	0.86830 0.15920 0.09080 0.01400
H 	H 	0.86910 0.11900 0.08210 0.01700
C 	C 	0.81540 0.18770 0.09650 -0.09400
H 	H 	0.78020 0.16700 0.09160 0.05400
C 	C 	0.81420 0.24660 0.10940 0.03100
H 	H 	0.77810 0.26610 0.11330 -0.00200
N 	N 	0.01450 0.36540 0.12340 -0.08100
N 	N 	0.95980 0.34380 0.12090 -0.19800
C 	C 	0.96900 0.28560 0.11360 0.04500
C 	C 	0.02850 0.27290 0.11040 -0.10700
H 	H 	0.04660 0.23610 0.10640 0.06200
C 	C 	0.05390 0.32590 0.11420 0.04900
H 	H 	0.09440 0.33310 0.11080 0.01200
C 	C 	0.02490 0.42590 0.13660 -0.12400
H 	H 	0.99120 0.44880 0.12290 0.05800
H 	H 	0.05920 0.43890 0.11430 0.06700
C 	C 	0.03470 0.43940 0.19890 0.06400
C 	C 	0.03780 0.39370 0.23800 -0.10200
H 	H 	0.03590 0.35480 0.22450 0.07200
C 	C 	0.04380 0.40480 0.29700 0.00500
H 	H 	0.04590 0.37350 0.32370 0.02600
C 	C 	0.04660 0.46170 0.31680 -0.06600
C 	C 	0.04350 0.50740 0.27770 0.05700
C 	C 	0.03750 0.49630 0.21870 -0.03900
C 	C 	0.04620 0.56400 0.29840 -0.09300
H 	H 	0.05230 0.57090 0.33850 0.05600
C 	C 	0.03990 0.61040 0.26040 -0.00600
H 	H 	0.03770 0.64900 0.27460 0.02900
C 	C 	0.03690 0.59930 0.20120 -0.05900
H 	H 	0.03320 0.63070 0.17480 0.04300
C 	C 	0.03920 0.54240 0.17990 -0.02400
H 	H 	0.04190 0.53550 0.13940 0.03500
C 	C 	0.05290 0.46740 0.37980 0.07700
N 	N 	0.05780 0.47170 0.42910 -0.20300
N 	N 	0.13420 0.77700 0.38350 -0.22300
C 	C 	0.08140 0.74850 0.38920 0.03800
C 	C 	0.08020 0.68960 0.40200 -0.08900
H 	H 	0.04410 0.67010 0.40590 0.05300
C 	C 	0.13170 0.65920 0.40920 0.01400
H 	H 	0.13090 0.61900 0.41790 0.01700
C 	C 	0.18460 0.68770 0.40350 -0.09500
H 	H 	0.21980 0.66700 0.40840 0.05400
C 	C 	0.18580 0.74660 0.39060 0.03100
H 	H 	0.22190 0.76610 0.38670 -0.00200
N 	N 	0.98550 0.86540 0.37660 -0.08100
N 	N 	0.04020 0.84380 0.37910 -0.19800
C 	C 	0.03100 0.78560 0.38640 0.04400
C 	C 	0.97150 0.77290 0.38960 -0.10600
H 	H 	0.95340 0.73610 0.39360 0.06200
C 	C 	0.94610 0.82590 0.38580 0.04900
H 	H 	0.90560 0.83310 0.38920 0.01200
C 	C 	0.97510 0.92590 0.36340 -0.12300
H 	H 	0.00880 0.94880 0.37710 0.05800
H 	H 	0.94080 0.93890 0.38570 0.06700
C 	C 	0.96530 0.93940 0.30110 0.06400
C 	C 	0.96220 0.89370 0.26200 -0.10200
H 	H 	0.96410 0.85480 0.27550 0.07200
C 	C 	0.95620 0.90480 0.20300 0.00500
H 	H 	0.95410 0.87350 0.17630 0.02600
C 	C 	0.95340 0.96170 0.18320 -0.06600
C 	C 	0.95650 0.00740 0.22230 0.05700
C 	C 	0.96250 0.99630 0.28130 -0.03900
C 	C 	0.95380 0.06400 0.20160 -0.09300
H 	H 	0.94770 0.07090 0.16150 0.05600
C 	C 	0.96010 0.11040 0.23960 -0.00700
H 	H 	0.96230 0.14900 0.22540 0.02900
C 	C 	0.96310 0.09930 0.29880 -0.05800
H 	H 	0.96680 0.13070 0.32520 0.04300
C 	C 	0.96080 0.04240 0.32010 -0.02400
H 	H 	0.95810 0.03550 0.36060 0.03500
C 	C 	0.94710 0.96740 0.12020 0.07800
N 	N 	0.94220 0.97170 0.07090 -0.20200
N 	N 	0.63420 0.72300 0.61650 -0.22300
C 	C 	0.58140 0.75150 0.61080 0.03800
C 	C 	0.58020 0.81040 0.59800 -0.08900
H 	H 	0.54410 0.82990 0.59410 0.05300
C 	C 	0.63170 0.84080 0.59080 0.01400
H 	H 	0.63090 0.88100 0.58210 0.01700
C 	C 	0.68460 0.81230 0.59650 -0.09500
H 	H 	0.71980 0.83300 0.59160 0.05400
C 	C 	0.68580 0.75340 0.60940 0.03100
H 	H 	0.72190 0.73390 0.61330 -0.00200
N 	N 	0.48550 0.63460 0.62340 -0.08100
N 	N 	0.54020 0.65620 0.62090 -0.19800
C 	C 	0.53100 0.71440 0.61360 0.04400
C 	C 	0.47150 0.72710 0.61040 -0.10600
H 	H 	0.45340 0.76390 0.60640 0.06200
C 	C 	0.44610 0.67410 0.61420 0.04900
H 	H 	0.40560 0.66690 0.61080 0.01200
C 	C 	0.47510 0.57410 0.63660 -0.12300
H 	H 	0.50880 0.55120 0.62290 0.05800
H 	H 	0.44080 0.56110 0.61430 0.06700
C 	C 	0.46530 0.56060 0.69890 0.06400
C 	C 	0.46220 0.60630 0.73800 -0.10200
H 	H 	0.46410 0.64520 0.72450 0.07200
C 	C 	0.45620 0.59520 0.79700 0.00500
H 	H 	0.45410 0.62650 0.82370 0.02600
C 	C 	0.45340 0.53830 0.81680 -0.06600
C 	C 	0.45650 0.49260 0.77770 0.05700
C 	C 	0.46250 0.50370 0.71870 -0.03900
C 	C 	0.45380 0.43600 0.79840 -0.09300
H 	H 	0.44770 0.42910 0.83850 0.05600
C 	C 	0.46010 0.38960 0.76040 -0.00600
H 	H 	0.46230 0.35100 0.77460 0.02900
C 	C 	0.46310 0.40070 0.70120 -0.05800
H 	H 	0.46680 0.36930 0.67480 0.04300
C 	C 	0.46080 0.45760 0.67990 -0.02400
H 	H 	0.45810 0.46450 0.63940 0.03500
C 	C 	0.44710 0.53260 0.87980 0.07800
N 	N 	0.44220 0.52830 0.92910 -0.20300
N 	N 	0.88350 0.36580 0.22300 -0.22300
C 	C 	0.88920 0.41860 0.25150 0.03800
C 	C 	0.90200 0.41980 0.31040 -0.08900
H 	H 	0.90590 0.45590 0.32990 0.05300
C 	C 	0.90920 0.36830 0.34080 0.01400
H 	H 	0.91790 0.36910 0.38100 0.01700
C 	C 	0.90350 0.31540 0.31230 -0.09400
H 	H 	0.90840 0.28020 0.33300 0.05400
C 	C 	0.89060 0.31420 0.25340 0.03100
H 	H 	0.88670 0.27810 0.23390 -0.00200
N 	N 	0.87660 0.51450 0.13460 -0.08100
N 	N 	0.87910 0.45980 0.15620 -0.19800
C 	C 	0.88640 0.46900 0.21440 0.04400
C 	C 	0.88960 0.52850 0.22710 -0.10600
H 	H 	0.89360 0.54660 0.26390 0.06200
C 	C 	0.88580 0.55390 0.17410 0.04900
H 	H 	0.88920 0.59440 0.16690 0.01200
C 	C 	0.86340 0.52490 0.07410 -0.12300
H 	H 	0.87710 0.49120 0.05120 0.05800
H 	H 	0.88570 0.55920 0.06110 0.06700
C 	C 	0.80110 0.53470 0.06060 0.06400
C 	C 	0.76200 0.53780 0.10630 -0.10200
H 	H 	0.77550 0.53590 0.14520 0.07200
C 	C 	0.70300 0.54380 0.09520 0.00500
H 	H 	0.67630 0.54590 0.12650 0.02600
C 	C 	0.68320 0.54660 0.03830 -0.06600
C 	C 	0.72230 0.54350 0.99260 0.05700
C 	C 	0.78130 0.53750 0.00370 -0.03900
C 	C 	0.70160 0.54620 0.93600 -0.09300
H 	H 	0.66150 0.55230 0.92910 0.05600
C 	C 	0.73960 0.53990 0.88960 -0.00600
H 	H 	0.72540 0.53770 0.85100 0.02900
C 	C 	0.79880 0.53690 0.90070 -0.05800
H 	H 	0.82520 0.53320 0.86930 0.04300
C 	C 	0.82010 0.53920 0.95760 -0.02400
H 	H 	0.86060 0.54190 0.96450 0.03500
C 	C 	0.62020 0.55290 0.03260 0.07700
N 	N 	0.57090 0.55780 0.02830 -0.20300
N 	N 	0.11650 0.86580 0.27700 -0.22300
C 	C 	0.11080 0.91860 0.24850 0.03800
C 	C 	0.09800 0.91980 0.18960 -0.08900
H 	H 	0.09410 0.95590 0.17010 0.05300
C 	C 	0.09080 0.86830 0.15920 0.01400
H 	H 	0.08210 0.86910 0.11900 0.01700
C 	C 	0.09650 0.81540 0.18770 -0.09400
H 	H 	0.09160 0.78020 0.16700 0.05400
C 	C 	0.10940 0.81420 0.24660 0.03100
H 	H 	0.11330 0.77810 0.26610 -0.00200
N 	N 	0.12340 0.01450 0.36540 -0.08100
N 	N 	0.12090 0.95980 0.34380 -0.19800
C 	C 	0.11360 0.96900 0.28560 0.04500
C 	C 	0.11040 0.02850 0.27290 -0.10700
H 	H 	0.10640 0.04660 0.23610 0.06200
C 	C 	0.11420 0.05390 0.32590 0.04900
H 	H 	0.11080 0.09440 0.33310 0.01200
C 	C 	0.13660 0.02490 0.42590 -0.12400
H 	H 	0.12290 0.99120 0.44880 0.05800
H 	H 	0.11430 0.05920 0.43890 0.06700
C 	C 	0.19890 0.03470 0.43940 0.06400
C 	C 	0.23800 0.03780 0.39370 -0.10200
H 	H 	0.22450 0.03590 0.35480 0.07200
C 	C 	0.29700 0.04380 0.40480 0.00500
H 	H 	0.32370 0.04590 0.37350 0.02600
C 	C 	0.31680 0.04660 0.46170 -0.06600
C 	C 	0.27770 0.04350 0.50740 0.05700
C 	C 	0.21870 0.03750 0.49630 -0.03900
C 	C 	0.29840 0.04620 0.56400 -0.09300
H 	H 	0.33850 0.05230 0.57090 0.05600
C 	C 	0.26040 0.03990 0.61040 -0.00600
H 	H 	0.27460 0.03770 0.64900 0.02900
C 	C 	0.20120 0.03690 0.59930 -0.05900
H 	H 	0.17480 0.03320 0.63070 0.04300
C 	C 	0.17990 0.03920 0.54240 -0.02400
H 	H 	0.13940 0.04190 0.53550 0.03500
C 	C 	0.37980 0.05290 0.46740 0.07700
N 	N 	0.42910 0.05780 0.47170 -0.20300
N 	N 	0.38350 0.13420 0.77700 -0.22300
C 	C 	0.38920 0.08140 0.74850 0.03800
C 	C 	0.40200 0.08020 0.68960 -0.08900
H 	H 	0.40590 0.04410 0.67010 0.05300
C 	C 	0.40920 0.13170 0.65920 0.01400
H 	H 	0.41790 0.13090 0.61900 0.01700
C 	C 	0.40350 0.18460 0.68770 -0.09500
H 	H 	0.40840 0.21980 0.66700 0.05400
C 	C 	0.39060 0.18580 0.74660 0.03100
H 	H 	0.38670 0.22190 0.76610 -0.00200
N 	N 	0.37660 0.98550 0.86540 -0.08100
N 	N 	0.37910 0.04020 0.84380 -0.19800
C 	C 	0.38640 0.03100 0.78560 0.04400
C 	C 	0.38960 0.97150 0.77290 -0.10600
H 	H 	0.39360 0.95340 0.73610 0.06200
C 	C 	0.38580 0.94610 0.82590 0.04900
H 	H 	0.38920 0.90560 0.83310 0.01200
C 	C 	0.36340 0.97510 0.92590 -0.12300
H 	H 	0.37710 0.00880 0.94880 0.05800
H 	H 	0.38570 0.94080 0.93890 0.06700
C 	C 	0.30110 0.96530 0.93940 0.06400
C 	C 	0.26200 0.96220 0.89370 -0.10200
H 	H 	0.27550 0.96410 0.85480 0.07200
C 	C 	0.20300 0.95620 0.90480 0.00500
H 	H 	0.17630 0.95410 0.87350 0.02600
C 	C 	0.18320 0.95340 0.96170 -0.06600
C 	C 	0.22230 0.95650 0.00740 0.05700
C 	C 	0.28130 0.96250 0.99630 -0.03900
C 	C 	0.20160 0.95380 0.06400 -0.09300
H 	H 	0.16150 0.94770 0.07090 0.05600
C 	C 	0.23960 0.96010 0.11040 -0.00700
H 	H 	0.22540 0.96230 0.14900 0.02900
C 	C 	0.29880 0.96310 0.09930 -0.05800
H 	H 	0.32520 0.96680 0.13070 0.04300
C 	C 	0.32010 0.96080 0.04240 -0.02400
H 	H 	0.36060 0.95810 0.03550 0.03500
C 	C 	0.12020 0.94710 0.96740 0.07800
N 	N 	0.07090 0.94220 0.97170 -0.20200
N 	N 	0.61650 0.63420 0.72300 -0.22300
C 	C 	0.61080 0.58140 0.75150 0.03800
C 	C 	0.59800 0.58020 0.81040 -0.08900
H 	H 	0.59410 0.54410 0.82990 0.05300
C 	C 	0.59080 0.63170 0.84080 0.01400
H 	H 	0.58210 0.63090 0.88100 0.01700
C 	C 	0.59650 0.68460 0.81230 -0.09500
H 	H 	0.59160 0.71980 0.83300 0.05400
C 	C 	0.60940 0.68580 0.75340 0.03100
H 	H 	0.61330 0.72190 0.73390 -0.00200
N 	N 	0.62340 0.48550 0.63460 -0.08100
N 	N 	0.62090 0.54020 0.65620 -0.19800
C 	C 	0.61360 0.53100 0.71440 0.04400
C 	C 	0.61040 0.47150 0.72710 -0.10600
H 	H 	0.60640 0.45340 0.76390 0.06200
C 	C 	0.61420 0.44610 0.67410 0.04900
H 	H 	0.61080 0.40560 0.66690 0.01200
C 	C 	0.63660 0.47510 0.57410 -0.12300
H 	H 	0.62290 0.50880 0.55120 0.05800
H 	H 	0.61430 0.44080 0.56110 0.06700
C 	C 	0.69890 0.46530 0.56060 0.06400
C 	C 	0.73800 0.46220 0.60630 -0.10200
H 	H 	0.72450 0.46410 0.64520 0.07200
C 	C 	0.79700 0.45620 0.59520 0.00500
H 	H 	0.82370 0.45410 0.62650 0.02600
C 	C 	0.81680 0.45340 0.53830 -0.06600
C 	C 	0.77770 0.45650 0.49260 0.05700
C 	C 	0.71870 0.46250 0.50370 -0.03900
C 	C 	0.79840 0.45380 0.43600 -0.09300
H 	H 	0.83850 0.44770 0.42910 0.05600
C 	C 	0.76040 0.46010 0.38960 -0.00600
H 	H 	0.77460 0.46230 0.35100 0.02900
C 	C 	0.70120 0.46310 0.40070 -0.05800
H 	H 	0.67480 0.46680 0.36930 0.04300
C 	C 	0.67990 0.46080 0.45760 -0.02400
H 	H 	0.63940 0.45810 0.46450 0.03500
C 	C 	0.87980 0.44710 0.53260 0.07800
N 	N 	0.92910 0.44220 0.52830 -0.20300
Ag	Ag	0.00679 0.49321 0.50679 0.52700
Ag	Ag	0.49321 0.50679 0.00679 0.52700
Ag	Ag	0.99321 0.99321 0.99321 0.52700
Ag	Ag	0.50679 0.00679 0.49321 0.52700
Co	Co	0.12978 0.87022 0.37022 1.11300
Co	Co	0.37022 0.12978 0.87022 1.11300
Co	Co	0.87022 0.37022 0.12978 1.11300
Co	Co	0.62978 0.62978 0.62978 1.11300
N 	N 	0.85260 0.04650 0.63680 -0.22600
C 	C 	0.85050 0.01930 0.69060 0.03200
C 	C 	0.84390 0.95950 0.69400 -0.08800
H 	H 	0.84250 0.94100 0.73070 0.05000
C 	C 	0.83930 0.92680 0.64350 0.01000
H 	H 	0.83470 0.88590 0.64580 0.01600
C 	C 	0.84140 0.95400 0.58970 -0.09500
H 	H 	0.83830 0.93170 0.55520 0.05400
C 	C 	0.84800 0.01380 0.58640 0.03700
H 	H 	0.84950 0.03240 0.54960 0.00400
N 	N 	0.85270 0.14010 0.78330 -0.08000
N 	N 	0.85480 0.11500 0.72880 -0.20100
C 	C 	0.84760 0.05860 0.73910 0.05300
C 	C 	0.84290 0.04660 0.79780 -0.11100
H 	H 	0.83950 0.00940 0.81520 0.06100
C 	C 	0.84400 0.09660 0.82440 0.04500
H 	H 	0.83960 0.10230 0.86500 0.01400
C 	C 	0.86770 0.20230 0.78970 -0.11900
H 	H 	0.84660 0.21840 0.82340 0.06500
H 	H 	0.85460 0.22340 0.75470 0.05900
C 	C 	0.93410 0.21280 0.79820 0.05600
C 	C 	0.97190 0.16590 0.79590 -0.09500
H 	H 	0.95700 0.12770 0.79210 0.07200
C 	C 	0.03140 0.17500 0.79920 0.00100
H 	H 	0.05720 0.14290 0.79760 0.02800
C 	C 	0.05310 0.23100 0.80470 -0.05800
C 	C 	0.01530 0.27790 0.80700 0.05200
C 	C 	0.95580 0.26880 0.80380 -0.03400
C 	C 	0.03810 0.33340 0.81250 -0.08900
H 	H 	0.07890 0.33880 0.81540 0.05700
C 	C 	0.00130 0.38120 0.81390 -0.01300
H 	H 	0.01640 0.41950 0.81290 0.02900
C 	C 	0.94190 0.37150 0.81680 -0.05700
H 	H 	0.91650 0.40290 0.82510 0.04200
C 	C 	0.91880 0.31630 0.80780 -0.02900
H 	H 	0.87810 0.31120 0.80440 0.03600
C 	C 	0.11380 0.23770 0.80070 0.06600
N 	N 	0.16610 0.24260 0.79990 -0.19100
N 	N 	0.64740 0.95350 0.13680 -0.22600
C 	C 	0.64950 0.98070 0.19060 0.03300
C 	C 	0.65610 0.04050 0.19400 -0.08800
H 	H 	0.65750 0.05900 0.23070 0.05000
C 	C 	0.66070 0.07320 0.14350 0.01000
H 	H 	0.66530 0.11410 0.14580 0.01600
C 	C 	0.65860 0.04600 0.08970 -0.09600
H 	H 	0.66170 0.06830 0.05520 0.05400
C 	C 	0.65200 0.98620 0.08640 0.03700
H 	H 	0.65050 0.96760 0.04960 0.00300
N 	N 	0.64730 0.85990 0.28330 -0.08000
N 	N 	0.64520 0.88500 0.22880 -0.20100
C 	C 	0.65240 0.94140 0.23910 0.05300
C 	C 	0.65710 0.95340 0.29780 -0.11100
H 	H 	0.66050 0.99060 0.31520 0.06100
C 	C 	0.65600 0.90340 0.32440 0.04500
H 	H 	0.66040 0.89770 0.36500 0.01400
C 	C 	0.63230 0.79770 0.28970 -0.11900
H 	H 	0.65340 0.78160 0.32340 0.06500
H 	H 	0.64540 0.77660 0.25470 0.05900
C 	C 	0.56590 0.78720 0.29820 0.05600
C 	C 	0.52810 0.83410 0.29590 -0.09600
H 	H 	0.54300 0.87230 0.29210 0.07200
C 	C 	0.46860 0.82500 0.29920 0.00100
H 	H 	0.44280 0.85710 0.29760 0.02800
C 	C 	0.44690 0.76900 0.30470 -0.05800
C 	C 	0.48470 0.72210 0.30700 0.05200
C 	C 	0.54420 0.73120 0.30380 -0.03400
C 	C 	0.46190 0.66660 0.31250 -0.09000
H 	H 	0.42110 0.66120 0.31540 0.05700
C 	C 	0.49870 0.61880 0.31390 -0.01300
H 	H 	0.48360 0.58050 0.31290 0.02900
C 	C 	0.55810 0.62850 0.31680 -0.05700
H 	H 	0.58350 0.59710 0.32510 0.04200
C 	C 	0.58120 0.68370 0.30780 -0.02800
H 	H 	0.62190 0.68880 0.30440 0.03600
C 	C 	0.38620 0.76230 0.30070 0.06600
N 	N 	0.33390 0.75740 0.29990 -0.19100
N 	N 	0.14740 0.54650 0.86320 -0.22600
C 	C 	0.14950 0.51930 0.80940 0.03200
C 	C 	0.15610 0.45950 0.80600 -0.08800
H 	H 	0.15750 0.44100 0.76930 0.05000
C 	C 	0.16070 0.42680 0.85650 0.01000
H 	H 	0.16530 0.38590 0.85420 0.01600
C 	C 	0.15860 0.45400 0.91030 -0.09500
H 	H 	0.16170 0.43170 0.94480 0.05400
C 	C 	0.15200 0.51380 0.91360 0.03700
H 	H 	0.15050 0.53240 0.95040 0.00400
N 	N 	0.14730 0.64010 0.71670 -0.08000
N 	N 	0.14520 0.61500 0.77120 -0.20100
C 	C 	0.15240 0.55860 0.76090 0.05300
C 	C 	0.15710 0.54660 0.70220 -0.11100
H 	H 	0.16050 0.50940 0.68480 0.06100
C 	C 	0.15600 0.59660 0.67560 0.04500
H 	H 	0.16040 0.60230 0.63500 0.01400
C 	C 	0.13230 0.70230 0.71030 -0.11900
H 	H 	0.15340 0.71840 0.67660 0.06500
H 	H 	0.14540 0.72340 0.74530 0.05900
C 	C 	0.06590 0.71280 0.70180 0.05600
C 	C 	0.02810 0.66590 0.70410 -0.09500
H 	H 	0.04300 0.62770 0.70790 0.07200
C 	C 	0.96860 0.67500 0.70080 0.00100
H 	H 	0.94280 0.64290 0.70240 0.02800
C 	C 	0.94690 0.73100 0.69530 -0.05800
C 	C 	0.98470 0.77790 0.69300 0.05200
C 	C 	0.04420 0.76880 0.69620 -0.03400
C 	C 	0.96190 0.83340 0.68750 -0.08900
H 	H 	0.92110 0.83880 0.68460 0.05700
C 	C 	0.99870 0.88120 0.68610 -0.01300
H 	H 	0.98360 0.91950 0.68710 0.02900
C 	C 	0.05810 0.87150 0.68320 -0.05700
H 	H 	0.08350 0.90290 0.67490 0.04200
C 	C 	0.08120 0.81630 0.69220 -0.02900
H 	H 	0.12190 0.81120 0.69560 0.03600
C 	C 	0.88620 0.73770 0.69930 0.06600
N 	N 	0.83390 0.74260 0.70010 -0.19100
N 	N 	0.35260 0.45350 0.36320 -0.22600
C 	C 	0.35050 0.48070 0.30940 0.03200
C 	C 	0.34390 0.54050 0.30600 -0.08800
H 	H 	0.34250 0.55900 0.26930 0.05000
C 	C 	0.33930 0.57320 0.35650 0.01000
H 	H 	0.33470 0.61410 0.35420 0.01600
C 	C 	0.34140 0.54600 0.41030 -0.09500
H 	H 	0.33830 0.56830 0.44480 0.05400
C 	C 	0.34800 0.48620 0.41360 0.03700
H 	H 	0.34950 0.46760 0.45040 0.00400
N 	N 	0.35270 0.35990 0.21670 -0.08000
N 	N 	0.35480 0.38500 0.27120 -0.20100
C 	C 	0.34760 0.44140 0.26090 0.05300
C 	C 	0.34290 0.45340 0.20220 -0.11100
H 	H 	0.33950 0.49060 0.18480 0.06100
C 	C 	0.34400 0.40340 0.17560 0.04500
H 	H 	0.33960 0.39770 0.13500 0.01400
C 	C 	0.36770 0.29770 0.21030 -0.11900
H 	H 	0.34660 0.28160 0.17660 0.06500
H 	H 	0.35460 0.27660 0.24530 0.05900
C 	C 	0.43410 0.28720 0.20180 0.05600
C 	C 	0.47190 0.33410 0.20410 -0.09600
H 	H 	0.45700 0.37230 0.20790 0.07200
C 	C 	0.53140 0.32500 0.20080 0.00100
H 	H 	0.55720 0.35710 0.20240 0.02800
C 	C 	0.55310 0.26900 0.19530 -0.05800
C 	C 	0.51530 0.22210 0.19300 0.05200
C 	C 	0.45580 0.23120 0.19620 -0.03400
C 	C 	0.53810 0.16660 0.18750 -0.09000
H 	H 	0.57890 0.16120 0.18460 0.05700
C 	C 	0.50130 0.11880 0.18610 -0.01300
H 	H 	0.51640 0.08050 0.18710 0.02900
C 	C 	0.44190 0.12850 0.18320 -0.05700
H 	H 	0.41650 0.09710 0.17490 0.04200
C 	C 	0.41880 0.18370 0.19220 -0.02800
H 	H 	0.37810 0.18880 0.19560 0.03600
C 	C 	0.61380 0.26230 0.19930 0.06600
N 	N 	0.66610 0.25740 0.20010 -0.19100
N 	N 	0.63680 0.85260 0.04650 -0.22600
C 	C 	0.69060 0.85050 0.01930 0.03200
C 	C 	0.69400 0.84390 0.95950 -0.08800
H 	H 	0.73070 0.84250 0.94100 0.05000
C 	C 	0.64350 0.83930 0.92680 0.01000
H 	H 	0.64580 0.83470 0.88590 0.01600
C 	C 	0.58970 0.84140 0.95400 -0.09500
H 	H 	0.55520 0.83830 0.93170 0.05400
C 	C 	0.58640 0.84800 0.01380 0.03700
H 	H 	0.54960 0.84950 0.03240 0.00400
N 	N 	0.78330 0.85270 0.14010 -0.08000
N 	N 	0.72880 0.85480 0.11500 -0.20100
C 	C 	0.73910 0.84760 0.05860 0.05300
C 	C 	0.79780 0.84290 0.04660 -0.11100
H 	H 	0.81520 0.83950 0.00940 0.06100
C 	C 	0.82440 0.84400 0.09660 0.04500
H 	H 	0.86500 0.83960 0.10230 0.01400
C 	C 	0.78970 0.86770 0.20230 -0.11900
H 	H 	0.82340 0.84660 0.21840 0.06500
H 	H 	0.75470 0.85460 0.22340 0.05900
C 	C 	0.79820 0.93410 0.21280 0.05600
C 	C 	0.79590 0.97190 0.16590 -0.09500
H 	H 	0.79210 0.95700 0.12770 0.07200
C 	C 	0.79920 0.03140 0.17500 0.00100
H 	H 	0.79760 0.05720 0.14290 0.02800
C 	C 	0.80470 0.05310 0.23100 -0.05800
C 	C 	0.80700 0.01530 0.27790 0.05200
C 	C 	0.80380 0.95580 0.26880 -0.03400
C 	C 	0.81250 0.03810 0.33340 -0.08900
H 	H 	0.81540 0.07890 0.33880 0.05700
C 	C 	0.81390 0.00130 0.38120 -0.01300
H 	H 	0.81290 0.01640 0.41950 0.02900
C 	C 	0.81680 0.94190 0.37150 -0.05700
H 	H 	0.82510 0.91650 0.40290 0.04200
C 	C 	0.80780 0.91880 0.31630 -0.02900
H 	H 	0.80440 0.87810 0.31120 0.03600
C 	C 	0.80070 0.11380 0.23770 0.06600
N 	N 	0.79990 0.16610 0.24260 -0.19100
N 	N 	0.13680 0.64740 0.95350 -0.22600
C 	C 	0.19060 0.64950 0.98070 0.03300
C 	C 	0.19400 0.65610 0.04050 -0.08800
H 	H 	0.23070 0.65750 0.05900 0.05000
C 	C 	0.14350 0.66070 0.07320 0.01000
H 	H 	0.14580 0.66530 0.11410 0.01600
C 	C 	0.08970 0.65860 0.04600 -0.09600
H 	H 	0.05520 0.66170 0.06830 0.05400
C 	C 	0.08640 0.65200 0.98620 0.03700
H 	H 	0.04960 0.65050 0.96760 0.00300
N 	N 	0.28330 0.64730 0.85990 -0.08000
N 	N 	0.22880 0.64520 0.88500 -0.20100
C 	C 	0.23910 0.65240 0.94140 0.05300
C 	C 	0.29780 0.65710 0.95340 -0.11100
H 	H 	0.31520 0.66050 0.99060 0.06100
C 	C 	0.32440 0.65600 0.90340 0.04500
H 	H 	0.36500 0.66040 0.89770 0.01400
C 	C 	0.28970 0.63230 0.79770 -0.11900
H 	H 	0.32340 0.65340 0.78160 0.06500
H 	H 	0.25470 0.64540 0.77660 0.05900
C 	C 	0.29820 0.56590 0.78720 0.05600
C 	C 	0.29590 0.52810 0.83410 -0.09600
H 	H 	0.29210 0.54300 0.87230 0.07200
C 	C 	0.29920 0.46860 0.82500 0.00100
H 	H 	0.29760 0.44280 0.85710 0.02800
C 	C 	0.30470 0.44690 0.76900 -0.05800
C 	C 	0.30700 0.48470 0.72210 0.05200
C 	C 	0.30380 0.54420 0.73120 -0.03400
C 	C 	0.31250 0.46190 0.66660 -0.09000
H 	H 	0.31540 0.42110 0.66120 0.05700
C 	C 	0.31390 0.49870 0.61880 -0.01300
H 	H 	0.31290 0.48360 0.58050 0.02900
C 	C 	0.31680 0.55810 0.62850 -0.05700
H 	H 	0.32510 0.58350 0.59710 0.04200
C 	C 	0.30780 0.58120 0.68370 -0.02800
H 	H 	0.30440 0.62190 0.68880 0.03600
C 	C 	0.30070 0.38620 0.76230 0.06600
N 	N 	0.29990 0.33390 0.75740 -0.19100
N 	N 	0.86320 0.14740 0.54650 -0.22600
C 	C 	0.80940 0.14950 0.51930 0.03200
C 	C 	0.80600 0.15610 0.45950 -0.08800
H 	H 	0.76930 0.15750 0.44100 0.05000
C 	C 	0.85650 0.16070 0.42680 0.01000
H 	H 	0.85420 0.16530 0.38590 0.01600
C 	C 	0.91030 0.15860 0.45400 -0.09500
H 	H 	0.94480 0.16170 0.43170 0.05400
C 	C 	0.91360 0.15200 0.51380 0.03700
H 	H 	0.95040 0.15050 0.53240 0.00400
N 	N 	0.71670 0.14730 0.64010 -0.08000
N 	N 	0.77120 0.14520 0.61500 -0.20100
C 	C 	0.76090 0.15240 0.55860 0.05300
C 	C 	0.70220 0.15710 0.54660 -0.11100
H 	H 	0.68480 0.16050 0.50940 0.06100
C 	C 	0.67560 0.15600 0.59660 0.04500
H 	H 	0.63500 0.16040 0.60230 0.01400
C 	C 	0.71030 0.13230 0.70230 -0.11900
H 	H 	0.67660 0.15340 0.71840 0.06500
H 	H 	0.74530 0.14540 0.72340 0.05900
C 	C 	0.70180 0.06590 0.71280 0.05600
C 	C 	0.70410 0.02810 0.66590 -0.09500
H 	H 	0.70790 0.04300 0.62770 0.07200
C 	C 	0.70080 0.96860 0.67500 0.00100
H 	H 	0.70240 0.94280 0.64290 0.02800
C 	C 	0.69530 0.94690 0.73100 -0.05800
C 	C 	0.69300 0.98470 0.77790 0.05200
C 	C 	0.69620 0.04420 0.76880 -0.03400
C 	C 	0.68750 0.96190 0.83340 -0.08900
H 	H 	0.68460 0.92110 0.83880 0.05700
C 	C 	0.68610 0.99870 0.88120 -0.01300
H 	H 	0.68710 0.98360 0.91950 0.02900
C 	C 	0.68320 0.05810 0.87150 -0.05700
H 	H 	0.67490 0.08350 0.90290 0.04200
C 	C 	0.69220 0.08120 0.81630 -0.02900
H 	H 	0.69560 0.12190 0.81120 0.03600
C 	C 	0.69930 0.88620 0.73770 0.06600
N 	N 	0.70010 0.83390 0.74260 -0.19100
N 	N 	0.36320 0.35260 0.45350 -0.22600
C 	C 	0.30940 0.35050 0.48070 0.03200
C 	C 	0.30600 0.34390 0.54050 -0.08800
H 	H 	0.26930 0.34250 0.55900 0.05000
C 	C 	0.35650 0.33930 0.57320 0.01000
H 	H 	0.35420 0.33470 0.61410 0.01600
C 	C 	0.41030 0.34140 0.54600 -0.09500
H 	H 	0.44480 0.33830 0.56830 0.05400
C 	C 	0.41360 0.34800 0.48620 0.03700
H 	H 	0.45040 0.34950 0.46760 0.00400
N 	N 	0.21670 0.35270 0.35990 -0.08000
N 	N 	0.27120 0.35480 0.38500 -0.20100
C 	C 	0.26090 0.34760 0.44140 0.05300
C 	C 	0.20220 0.34290 0.45340 -0.11100
H 	H 	0.18480 0.33950 0.49060 0.06100
C 	C 	0.17560 0.34400 0.40340 0.04500
H 	H 	0.13500 0.33960 0.39770 0.01400
C 	C 	0.21030 0.36770 0.29770 -0.11900
H 	H 	0.17660 0.34660 0.28160 0.06500
H 	H 	0.24530 0.35460 0.27660 0.05900
C 	C 	0.20180 0.43410 0.28720 0.05600
C 	C 	0.20410 0.47190 0.33410 -0.09600
H 	H 	0.20790 0.45700 0.37230 0.07200
C 	C 	0.20080 0.53140 0.32500 0.00100
H 	H 	0.20240 0.55720 0.35710 0.02800
C 	C 	0.19530 0.55310 0.26900 -0.05800
C 	C 	0.19300 0.51530 0.22210 0.05200
C 	C 	0.19620 0.45580 0.23120 -0.03400
C 	C 	0.18750 0.53810 0.16660 -0.09000
H 	H 	0.18460 0.57890 0.16120 0.05700
C 	C 	0.18610 0.50130 0.11880 -0.01300
H 	H 	0.18710 0.51640 0.08050 0.02900
C 	C 	0.18320 0.44190 0.12850 -0.05700
H 	H 	0.17490 0.41650 0.09710 0.04200
C 	C 	0.19220 0.41880 0.18370 -0.02800
H 	H 	0.19560 0.37810 0.18880 0.03600
C 	C 	0.19930 0.61380 0.26230 0.06600
N 	N 	0.20010 0.66610 0.25740 -0.19100
N 	N 	0.04650 0.63680 0.85260 -0.22600
C 	C 	0.01930 0.69060 0.85050 0.03200
C 	C 	0.95950 0.69400 0.84390 -0.08800
H 	H 	0.94100 0.73070 0.84250 0.05000
C 	C 	0.92680 0.64350 0.83930 0.01000
H 	H 	0.88590 0.64580 0.83470 0.01600
C 	C 	0.95400 0.58970 0.84140 -0.09500
H 	H 	0.93170 0.55520 0.83830 0.05400
C 	C 	0.01380 0.58640 0.84800 0.03700
H 	H 	0.03240 0.54960 0.84950 0.00400
N 	N 	0.14010 0.78330 0.85270 -0.08000
N 	N 	0.11500 0.72880 0.85480 -0.20100
C 	C 	0.05860 0.73910 0.84760 0.05300
C 	C 	0.04660 0.79780 0.84290 -0.11100
H 	H 	0.00940 0.81520 0.83950 0.06100
C 	C 	0.09660 0.82440 0.84400 0.04500
H 	H 	0.10230 0.86500 0.83960 0.01400
C 	C 	0.20230 0.78970 0.86770 -0.11900
H 	H 	0.21840 0.82340 0.84660 0.06500
H 	H 	0.22340 0.75470 0.85460 0.05900
C 	C 	0.21280 0.79820 0.93410 0.05600
C 	C 	0.16590 0.79590 0.97190 -0.09500
H 	H 	0.12770 0.79210 0.95700 0.07200
C 	C 	0.17500 0.79920 0.03140 0.00100
H 	H 	0.14290 0.79760 0.05720 0.02800
C 	C 	0.23100 0.80470 0.05310 -0.05800
C 	C 	0.27790 0.80700 0.01530 0.05200
C 	C 	0.26880 0.80380 0.95580 -0.03400
C 	C 	0.33340 0.81250 0.03810 -0.08900
H 	H 	0.33880 0.81540 0.07890 0.05700
C 	C 	0.38120 0.81390 0.00130 -0.01300
H 	H 	0.41950 0.81290 0.01640 0.02900
C 	C 	0.37150 0.81680 0.94190 -0.05700
H 	H 	0.40290 0.82510 0.91650 0.04200
C 	C 	0.31630 0.80780 0.91880 -0.02900
H 	H 	0.31120 0.80440 0.87810 0.03600
C 	C 	0.23770 0.80070 0.11380 0.06600
N 	N 	0.24260 0.79990 0.16610 -0.19100
N 	N 	0.95350 0.13680 0.64740 -0.22600
C 	C 	0.98070 0.19060 0.64950 0.03300
C 	C 	0.04050 0.19400 0.65610 -0.08800
H 	H 	0.05900 0.23070 0.65750 0.05000
C 	C 	0.07320 0.14350 0.66070 0.01000
H 	H 	0.11410 0.14580 0.66530 0.01600
C 	C 	0.04600 0.08970 0.65860 -0.09600
H 	H 	0.06830 0.05520 0.66170 0.05400
C 	C 	0.98620 0.08640 0.65200 0.03700
H 	H 	0.96760 0.04960 0.65050 0.00300
N 	N 	0.85990 0.28330 0.64730 -0.08000
N 	N 	0.88500 0.22880 0.64520 -0.20100
C 	C 	0.94140 0.23910 0.65240 0.05300
C 	C 	0.95340 0.29780 0.65710 -0.11100
H 	H 	0.99060 0.31520 0.66050 0.06100
C 	C 	0.90340 0.32440 0.65600 0.04500
H 	H 	0.89770 0.36500 0.66040 0.01400
C 	C 	0.79770 0.28970 0.63230 -0.11900
H 	H 	0.78160 0.32340 0.65340 0.06500
H 	H 	0.77660 0.25470 0.64540 0.05900
C 	C 	0.78720 0.29820 0.56590 0.05600
C 	C 	0.83410 0.29590 0.52810 -0.09600
H 	H 	0.87230 0.29210 0.54300 0.07200
C 	C 	0.82500 0.29920 0.46860 0.00100
H 	H 	0.85710 0.29760 0.44280 0.02800
C 	C 	0.76900 0.30470 0.44690 -0.05800
C 	C 	0.72210 0.30700 0.48470 0.05200
C 	C 	0.73120 0.30380 0.54420 -0.03400
C 	C 	0.66660 0.31250 0.46190 -0.09000
H 	H 	0.66120 0.31540 0.42110 0.05700
C 	C 	0.61880 0.31390 0.49870 -0.01300
H 	H 	0.58050 0.31290 0.48360 0.02900
C 	C 	0.62850 0.31680 0.55810 -0.05700
H 	H 	0.59710 0.32510 0.58350 0.04200
C 	C 	0.68370 0.30780 0.58120 -0.02800
H 	H 	0.68880 0.30440 0.62190 0.03600
C 	C 	0.76230 0.30070 0.38620 0.06600
N 	N 	0.75740 0.29990 0.33390 -0.19100
N 	N 	0.54650 0.86320 0.14740 -0.22600
C 	C 	0.51930 0.80940 0.14950 0.03200
C 	C 	0.45950 0.80600 0.15610 -0.08800
H 	H 	0.44100 0.76930 0.15750 0.05000
C 	C 	0.42680 0.85650 0.16070 0.01000
H 	H 	0.38590 0.85420 0.16530 0.01600
C 	C 	0.45400 0.91030 0.15860 -0.09500
H 	H 	0.43170 0.94480 0.16170 0.05400
C 	C 	0.51380 0.91360 0.15200 0.03700
H 	H 	0.53240 0.95040 0.15050 0.00400
N 	N 	0.64010 0.71670 0.14730 -0.08000
N 	N 	0.61500 0.77120 0.14520 -0.20100
C 	C 	0.55860 0.76090 0.15240 0.05300
C 	C 	0.54660 0.70220 0.15710 -0.11100
H 	H 	0.50940 0.68480 0.16050 0.06100
C 	C 	0.59660 0.67560 0.15600 0.04500
H 	H 	0.60230 0.63500 0.16040 0.01400
C 	C 	0.70230 0.71030 0.13230 -0.11900
H 	H 	0.71840 0.67660 0.15340 0.06500
H 	H 	0.72340 0.74530 0.14540 0.05900
C 	C 	0.71280 0.70180 0.06590 0.05600
C 	C 	0.66590 0.70410 0.02810 -0.09500
H 	H 	0.62770 0.70790 0.04300 0.07200
C 	C 	0.67500 0.70080 0.96860 0.00100
H 	H 	0.64290 0.70240 0.94280 0.02800
C 	C 	0.73100 0.69530 0.94690 -0.05800
C 	C 	0.77790 0.69300 0.98470 0.05200
C 	C 	0.76880 0.69620 0.04420 -0.03400
C 	C 	0.83340 0.68750 0.96190 -0.08900
H 	H 	0.83880 0.68460 0.92110 0.05700
C 	C 	0.88120 0.68610 0.99870 -0.01300
H 	H 	0.91950 0.68710 0.98360 0.02900
C 	C 	0.87150 0.68320 0.05810 -0.05700
H 	H 	0.90290 0.67490 0.08350 0.04200
C 	C 	0.81630 0.69220 0.08120 -0.02900
H 	H 	0.81120 0.69560 0.12190 0.03600
C 	C 	0.73770 0.69930 0.88620 0.06600
N 	N 	0.74260 0.70010 0.83390 -0.19100
N 	N 	0.45350 0.36320 0.35260 -0.22600
C 	C 	0.48070 0.30940 0.35050 0.03200
C 	C 	0.54050 0.30600 0.34390 -0.08800
H 	H 	0.55900 0.26930 0.34250 0.05000
C 	C 	0.57320 0.35650 0.33930 0.01000
H 	H 	0.61410 0.35420 0.33470 0.01600
C 	C 	0.54600 0.41030 0.34140 -0.09500
H 	H 	0.56830 0.44480 0.33830 0.05400
C 	C 	0.48620 0.41360 0.34800 0.03700
H 	H 	0.46760 0.45040 0.34950 0.00400
N 	N 	0.35990 0.21670 0.35270 -0.08000
N 	N 	0.38500 0.27120 0.35480 -0.20100
C 	C 	0.44140 0.26090 0.34760 0.05300
C 	C 	0.45340 0.20220 0.34290 -0.11100
H 	H 	0.49060 0.18480 0.33950 0.06100
C 	C 	0.40340 0.17560 0.34400 0.04500
H 	H 	0.39770 0.13500 0.33960 0.01400
C 	C 	0.29770 0.21030 0.36770 -0.11900
H 	H 	0.28160 0.17660 0.34660 0.06500
H 	H 	0.27660 0.24530 0.35460 0.05900
C 	C 	0.28720 0.20180 0.43410 0.05600
C 	C 	0.33410 0.20410 0.47190 -0.09600
H 	H 	0.37230 0.20790 0.45700 0.07200
C 	C 	0.32500 0.20080 0.53140 0.00100
H 	H 	0.35710 0.20240 0.55720 0.02800
C 	C 	0.26900 0.19530 0.55310 -0.05800
C 	C 	0.22210 0.19300 0.51530 0.05200
C 	C 	0.23120 0.19620 0.45580 -0.03400
C 	C 	0.16660 0.18750 0.53810 -0.09000
H 	H 	0.16120 0.18460 0.57890 0.05700
C 	C 	0.11880 0.18610 0.50130 -0.01300
H 	H 	0.08050 0.18710 0.51640 0.02900
C 	C 	0.12850 0.18320 0.44190 -0.05700
H 	H 	0.09710 0.17490 0.41650 0.04200
C 	C 	0.18370 0.19220 0.41880 -0.02800
H 	H 	0.18880 0.19560 0.37810 0.03600
C 	C 	0.26230 0.19930 0.61380 0.06600
N 	N 	0.25740 0.20010 0.66610 -0.19100
Ag	Ag	0.24084 0.25916 0.74084 0.52600
Ag	Ag	0.25916 0.74084 0.24084 0.52600
Ag	Ag	0.75916 0.75916 0.75916 0.52600
Ag	Ag	0.74084 0.24084 0.25916 0.52600
Co	Co	0.86161 0.13839 0.63839 1.11900
Co	Co	0.63839 0.86161 0.13839 1.11900
Co	Co	0.13839 0.63839 0.86161 1.11900
Co	Co	0.36161 0.36161 0.36161 1.11900
