data_crystal

_cell_length_a 18.55400
_cell_length_b 18.55400
_cell_length_c 38.82200
_cell_angle_alpha 90.00000
_cell_angle_beta  90.00000
_cell_angle_gamma 120.00000

_symmetry_space_group_name_	'P 1'
_symmetry_space_group_name_H-M	'P 1'

loop_
_symmetry_equiv_pos_as_xyz
  x,y,z

loop_
_atom_site_label
_atom_site_type_symbol
_atom_site_fract_x
_atom_site_fract_y
_atom_site_fract_z
_atom_site_charge
C 	C 	0.97470 0.21520 0.19350 0.36500
O 	O 	0.96320 0.18580 0.16354 -0.40500
O 	O 	0.92080 0.22430 0.21047 -0.40500
C 	C 	0.05210 0.23470 0.21010 -0.10600
C 	C 	0.06510 0.26250 0.24390 0.00800
H 	H 	0.03010 0.27900 0.25380 0.04800
C 	C 	0.10290 0.28500 0.32050 -0.05100
H 	H 	0.05190 0.23790 0.31270 0.15200
C 	C 	0.11370 0.30800 0.35480 -0.03100
H 	H 	0.06980 0.27610 0.37100 0.18500
C 	C 	0.24940 0.42200 0.34220 -0.02200
C 	C 	0.23780 0.40000 0.30760 -0.05200
Se	Se	0.38620 0.50860 0.31080 0.13900
N 	N 	0.29670 0.43400 0.28490 -0.19300
N 	N 	0.32370 0.48200 0.35080 -0.16900
C 	C 	0.64137 0.54853 0.52683 0.36600
O 	O 	0.62987 0.51913 0.49687 -0.40500
O 	O 	0.58747 0.55763 0.54380 -0.40400
C 	C 	0.71877 0.56803 0.54343 -0.10700
C 	C 	0.73177 0.59583 0.57723 0.00800
H 	H 	0.69677 0.61233 0.58713 0.04800
C 	C 	0.76957 0.61833 0.65383 -0.05100
H 	H 	0.71857 0.57123 0.64603 0.15200
C 	C 	0.78037 0.64133 0.68813 -0.03100
H 	H 	0.73647 0.60943 0.70433 0.18600
C 	C 	0.91607 0.75533 0.67553 -0.02100
C 	C 	0.90447 0.73333 0.64093 -0.05200
Se	Se	0.05287 0.84193 0.64413 0.13900
N 	N 	0.96337 0.76733 0.61823 -0.19200
N 	N 	0.99037 0.81533 0.68413 -0.16800
C 	C 	0.30803 0.88187 0.86017 0.36700
O 	O 	0.29653 0.85247 0.83021 -0.40400
O 	O 	0.25413 0.89097 0.87714 -0.40400
C 	C 	0.38543 0.90137 0.87677 -0.10600
C 	C 	0.39843 0.92917 0.91057 0.00900
H 	H 	0.36343 0.94567 0.92047 0.04900
C 	C 	0.43623 0.95167 0.98717 -0.05000
H 	H 	0.38523 0.90457 0.97937 0.15300
C 	C 	0.44703 0.97467 0.02147 -0.02900
H 	H 	0.40313 0.94277 0.03767 0.18600
C 	C 	0.58273 0.08867 0.00887 -0.02000
C 	C 	0.57113 0.06667 0.97427 -0.05200
Se	Se	0.71953 0.17527 0.97747 0.14000
N 	N 	0.63003 0.10067 0.95157 -0.19200
N 	N 	0.65703 0.14867 0.01747 -0.16800
C 	C 	0.78480 0.75950 0.19350 0.36700
O 	O 	0.81420 0.77740 0.16354 -0.40400
O 	O 	0.77570 0.69650 0.21047 -0.40300
C 	C 	0.76530 0.81740 0.21010 -0.10600
C 	C 	0.73750 0.80260 0.24390 0.00900
H 	H 	0.72100 0.75110 0.25380 0.04900
C 	C 	0.71500 0.81790 0.32050 -0.05000
H 	H 	0.76210 0.81400 0.31270 0.15300
C 	C 	0.69200 0.80570 0.35480 -0.02900
H 	H 	0.72390 0.79370 0.37100 0.18600
C 	C 	0.57800 0.82740 0.34220 -0.02100
C 	C 	0.60000 0.83780 0.30760 -0.05100
Se	Se	0.49140 0.87760 0.31080 0.14000
N 	N 	0.56600 0.86270 0.28490 -0.19200
N 	N 	0.51800 0.84170 0.35080 -0.16800
C 	C 	0.45147 0.09283 0.52683 0.36700
O 	O 	0.48087 0.11073 0.49687 -0.40400
O 	O 	0.44237 0.02983 0.54380 -0.40400
C 	C 	0.43197 0.15073 0.54343 -0.10600
C 	C 	0.40417 0.13593 0.57723 0.00900
H 	H 	0.38767 0.08443 0.58713 0.04900
C 	C 	0.38167 0.15123 0.65383 -0.05000
H 	H 	0.42877 0.14733 0.64603 0.15300
C 	C 	0.35867 0.13903 0.68813 -0.03000
H 	H 	0.39057 0.12703 0.70433 0.18600
C 	C 	0.24467 0.16073 0.67553 -0.02100
C 	C 	0.26667 0.17113 0.64093 -0.05200
Se	Se	0.15807 0.21093 0.64413 0.14000
N 	N 	0.23267 0.19603 0.61823 -0.19200
N 	N 	0.18467 0.17503 0.68413 -0.16800
C 	C 	0.11813 0.42617 0.86017 0.36700
O 	O 	0.14753 0.44407 0.83021 -0.40400
O 	O 	0.10903 0.36317 0.87714 -0.40300
C 	C 	0.09863 0.48407 0.87677 -0.10600
C 	C 	0.07083 0.46927 0.91057 0.00900
H 	H 	0.05433 0.41777 0.92047 0.04900
C 	C 	0.04833 0.48457 0.98717 -0.05000
H 	H 	0.09543 0.48067 0.97937 0.15300
C 	C 	0.02533 0.47237 0.02147 -0.03000
H 	H 	0.05723 0.46037 0.03767 0.18600
C 	C 	0.91133 0.49407 0.00887 -0.02000
C 	C 	0.93333 0.50447 0.97427 -0.05100
Se	Se	0.82473 0.54427 0.97747 0.14000
N 	N 	0.89933 0.52937 0.95157 -0.19200
N 	N 	0.85133 0.50837 0.01747 -0.16800
C 	C 	0.24050 0.02530 0.19350 0.36600
O 	O 	0.22260 0.03680 0.16354 -0.40400
O 	O 	0.30350 0.07920 0.21047 -0.40300
C 	C 	0.18260 0.94790 0.21010 -0.10500
C 	C 	0.19740 0.93490 0.24390 0.00900
H 	H 	0.24890 0.96990 0.25380 0.04900
C 	C 	0.18210 0.89710 0.32050 -0.05000
H 	H 	0.18600 0.94810 0.31270 0.15300
C 	C 	0.19430 0.88630 0.35480 -0.02900
H 	H 	0.20630 0.93020 0.37100 0.18600
C 	C 	0.17260 0.75060 0.34220 -0.02000
C 	C 	0.16220 0.76220 0.30760 -0.05100
Se	Se	0.12240 0.61380 0.31080 0.14000
N 	N 	0.13730 0.70330 0.28490 -0.19200
N 	N 	0.15830 0.67630 0.35080 -0.16800
C 	C 	0.90717 0.35863 0.52683 0.36700
O 	O 	0.88927 0.37013 0.49687 -0.40400
O 	O 	0.97017 0.41253 0.54380 -0.40300
C 	C 	0.84927 0.28123 0.54343 -0.10600
C 	C 	0.86407 0.26823 0.57723 0.00900
H 	H 	0.91557 0.30323 0.58713 0.04900
C 	C 	0.84877 0.23043 0.65383 -0.05100
H 	H 	0.85267 0.28143 0.64603 0.15300
C 	C 	0.86097 0.21963 0.68813 -0.03000
H 	H 	0.87297 0.26353 0.70433 0.18600
C 	C 	0.83927 0.08393 0.67553 -0.02100
C 	C 	0.82887 0.09553 0.64093 -0.05200
Se	Se	0.78907 0.94713 0.64413 0.13900
N 	N 	0.80397 0.03663 0.61823 -0.19200
N 	N 	0.82497 0.00963 0.68413 -0.16700
C 	C 	0.57383 0.69197 0.86017 0.36700
O 	O 	0.55593 0.70347 0.83021 -0.40400
O 	O 	0.63683 0.74587 0.87714 -0.40300
C 	C 	0.51593 0.61457 0.87677 -0.10600
C 	C 	0.53073 0.60157 0.91057 0.00900
H 	H 	0.58223 0.63657 0.92047 0.04900
C 	C 	0.51543 0.56377 0.98717 -0.05000
H 	H 	0.51933 0.61477 0.97937 0.15300
C 	C 	0.52763 0.55297 0.02147 -0.02900
H 	H 	0.53963 0.59687 0.03767 0.18600
C 	C 	0.50593 0.41727 0.00887 -0.02100
C 	C 	0.49553 0.42887 0.97427 -0.05200
Se	Se	0.45573 0.28047 0.97747 0.14000
N 	N 	0.47063 0.36997 0.95157 -0.19200
N 	N 	0.49163 0.34297 0.01747 -0.16800
C 	C 	0.21520 0.97470 0.80650 0.36600
O 	O 	0.18580 0.96320 0.83646 -0.40400
O 	O 	0.22430 0.92080 0.78953 -0.40400
C 	C 	0.23470 0.05210 0.78990 -0.10500
C 	C 	0.26250 0.06510 0.75610 0.00900
H 	H 	0.27900 0.03010 0.74620 0.04900
C 	C 	0.28500 0.10290 0.67950 -0.05000
H 	H 	0.23790 0.05190 0.68730 0.15300
C 	C 	0.30800 0.11370 0.64520 -0.03000
H 	H 	0.27610 0.06980 0.62900 0.18600
C 	C 	0.42200 0.24940 0.65780 -0.02100
C 	C 	0.40000 0.23780 0.69240 -0.05100
Se	Se	0.50860 0.38620 0.68920 0.14000
N 	N 	0.43400 0.29670 0.71510 -0.19200
N 	N 	0.48200 0.32370 0.64920 -0.16800
C 	C 	0.88187 0.30803 0.13983 0.36700
O 	O 	0.85247 0.29653 0.16979 -0.40400
O 	O 	0.89097 0.25413 0.12286 -0.40400
C 	C 	0.90137 0.38543 0.12323 -0.10600
C 	C 	0.92917 0.39843 0.08943 0.00900
H 	H 	0.94567 0.36343 0.07953 0.04900
C 	C 	0.95167 0.43623 0.01283 -0.05000
H 	H 	0.90457 0.38523 0.02063 0.15300
C 	C 	0.97467 0.44703 0.97853 -0.02900
H 	H 	0.94277 0.40313 0.96233 0.18600
C 	C 	0.08867 0.58273 0.99113 -0.02000
C 	C 	0.06667 0.57113 0.02573 -0.05200
Se	Se	0.17527 0.71953 0.02253 0.14000
N 	N 	0.10067 0.63003 0.04843 -0.19200
N 	N 	0.14867 0.65703 0.98253 -0.16800
C 	C 	0.54853 0.64137 0.47317 0.36700
O 	O 	0.51913 0.62987 0.50313 -0.40400
O 	O 	0.55763 0.58747 0.45620 -0.40300
C 	C 	0.56803 0.71877 0.45657 -0.10600
C 	C 	0.59583 0.73177 0.42277 0.00900
H 	H 	0.61233 0.69677 0.41287 0.04900
C 	C 	0.61833 0.76957 0.34617 -0.05000
H 	H 	0.57123 0.71857 0.35397 0.15300
C 	C 	0.64133 0.78037 0.31187 -0.03000
H 	H 	0.60943 0.73647 0.29567 0.18600
C 	C 	0.75533 0.91607 0.32447 -0.02100
C 	C 	0.73333 0.90447 0.35907 -0.05200
Se	Se	0.84193 0.05287 0.35587 0.13900
N 	N 	0.76733 0.96337 0.38177 -0.19200
N 	N 	0.81533 0.99037 0.31587 -0.16800
C 	C 	0.75950 0.78480 0.80650 0.36700
O 	O 	0.77740 0.81420 0.83646 -0.40400
O 	O 	0.69650 0.77570 0.78953 -0.40300
C 	C 	0.81740 0.76530 0.78990 -0.10600
C 	C 	0.80260 0.73750 0.75610 0.00900
H 	H 	0.75110 0.72100 0.74620 0.04900
C 	C 	0.81790 0.71500 0.67950 -0.05000
H 	H 	0.81400 0.76210 0.68730 0.15300
C 	C 	0.80570 0.69200 0.64520 -0.02900
H 	H 	0.79370 0.72390 0.62900 0.18600
C 	C 	0.82740 0.57800 0.65780 -0.02100
C 	C 	0.83780 0.60000 0.69240 -0.05100
Se	Se	0.87760 0.49140 0.68920 0.14000
N 	N 	0.86270 0.56600 0.71510 -0.19200
N 	N 	0.84170 0.51800 0.64920 -0.16800
C 	C 	0.42617 0.11813 0.13983 0.36700
O 	O 	0.44407 0.14753 0.16979 -0.40400
O 	O 	0.36317 0.10903 0.12286 -0.40300
C 	C 	0.48407 0.09863 0.12323 -0.10600
C 	C 	0.46927 0.07083 0.08943 0.00900
H 	H 	0.41777 0.05433 0.07953 0.04900
C 	C 	0.48457 0.04833 0.01283 -0.05000
H 	H 	0.48067 0.09543 0.02063 0.15300
C 	C 	0.47237 0.02533 0.97853 -0.03000
H 	H 	0.46037 0.05723 0.96233 0.18600
C 	C 	0.49407 0.91133 0.99113 -0.02000
C 	C 	0.50447 0.93333 0.02573 -0.05100
Se	Se	0.54427 0.82473 0.02253 0.14000
N 	N 	0.52937 0.89933 0.04843 -0.19200
N 	N 	0.50837 0.85133 0.98253 -0.16800
C 	C 	0.09283 0.45147 0.47317 0.36700
O 	O 	0.11073 0.48087 0.50313 -0.40400
O 	O 	0.02983 0.44237 0.45620 -0.40400
C 	C 	0.15073 0.43197 0.45657 -0.10600
C 	C 	0.13593 0.40417 0.42277 0.00900
H 	H 	0.08443 0.38767 0.41287 0.04900
C 	C 	0.15123 0.38167 0.34617 -0.05000
H 	H 	0.14733 0.42877 0.35397 0.15300
C 	C 	0.13903 0.35867 0.31187 -0.03000
H 	H 	0.12703 0.39057 0.29567 0.18600
C 	C 	0.16073 0.24467 0.32447 -0.02100
C 	C 	0.17113 0.26667 0.35907 -0.05200
Se	Se	0.21093 0.15807 0.35587 0.14000
N 	N 	0.19603 0.23267 0.38177 -0.19200
N 	N 	0.17503 0.18467 0.31587 -0.16800
C 	C 	0.02530 0.24050 0.80650 0.36600
O 	O 	0.03680 0.22260 0.83646 -0.40400
O 	O 	0.07920 0.30350 0.78953 -0.40300
C 	C 	0.94790 0.18260 0.78990 -0.10500
C 	C 	0.93490 0.19740 0.75610 0.00900
H 	H 	0.96990 0.24890 0.74620 0.04900
C 	C 	0.89710 0.18210 0.67950 -0.05000
H 	H 	0.94810 0.18600 0.68730 0.15300
C 	C 	0.88630 0.19430 0.64520 -0.02900
H 	H 	0.93020 0.20630 0.62900 0.18600
C 	C 	0.75060 0.17260 0.65780 -0.02000
C 	C 	0.76220 0.16220 0.69240 -0.05100
Se	Se	0.61380 0.12240 0.68920 0.14000
N 	N 	0.70330 0.13730 0.71510 -0.19200
N 	N 	0.67630 0.15830 0.64920 -0.16800
C 	C 	0.69197 0.57383 0.13983 0.36700
O 	O 	0.70347 0.55593 0.16979 -0.40400
O 	O 	0.74587 0.63683 0.12286 -0.40300
C 	C 	0.61457 0.51593 0.12323 -0.10600
C 	C 	0.60157 0.53073 0.08943 0.00900
H 	H 	0.63657 0.58223 0.07953 0.04900
C 	C 	0.56377 0.51543 0.01283 -0.05000
H 	H 	0.61477 0.51933 0.02063 0.15300
C 	C 	0.55297 0.52763 0.97853 -0.02900
H 	H 	0.59687 0.53963 0.96233 0.18600
C 	C 	0.41727 0.50593 0.99113 -0.02100
C 	C 	0.42887 0.49553 0.02573 -0.05200
Se	Se	0.28047 0.45573 0.02253 0.14000
N 	N 	0.36997 0.47063 0.04843 -0.19200
N 	N 	0.34297 0.49163 0.98253 -0.16800
C 	C 	0.35863 0.90717 0.47317 0.36700
O 	O 	0.37013 0.88927 0.50313 -0.40400
O 	O 	0.41253 0.97017 0.45620 -0.40300
C 	C 	0.28123 0.84927 0.45657 -0.10600
C 	C 	0.26823 0.86407 0.42277 0.00900
H 	H 	0.30323 0.91557 0.41287 0.04900
C 	C 	0.23043 0.84877 0.34617 -0.05100
H 	H 	0.28143 0.85267 0.35397 0.15300
C 	C 	0.21963 0.86097 0.31187 -0.03000
H 	H 	0.26353 0.87297 0.29567 0.18600
C 	C 	0.08393 0.83927 0.32447 -0.02100
C 	C 	0.09553 0.82887 0.35907 -0.05200
Se	Se	0.94713 0.78907 0.35587 0.13900
N 	N 	0.03663 0.80397 0.38177 -0.19200
N 	N 	0.00963 0.82497 0.31587 -0.16700
C 	C 	0.02530 0.78480 0.80650 0.36600
O 	O 	0.03680 0.81420 0.83646 -0.40400
O 	O 	0.07920 0.77570 0.78953 -0.40400
C 	C 	0.94790 0.76530 0.78990 -0.10500
C 	C 	0.93490 0.73750 0.75610 0.00900
H 	H 	0.96990 0.72100 0.74620 0.04900
C 	C 	0.89710 0.71500 0.67950 -0.05000
H 	H 	0.94810 0.76210 0.68730 0.15300
C 	C 	0.88630 0.69200 0.64520 -0.03000
H 	H 	0.93020 0.72390 0.62900 0.18600
C 	C 	0.75060 0.57800 0.65780 -0.02100
C 	C 	0.76220 0.60000 0.69240 -0.05100
Se	Se	0.61380 0.49140 0.68920 0.14000
N 	N 	0.70330 0.56600 0.71510 -0.19200
N 	N 	0.67630 0.51800 0.64920 -0.16800
C 	C 	0.69197 0.11813 0.13983 0.36700
O 	O 	0.70347 0.14753 0.16979 -0.40400
O 	O 	0.74587 0.10903 0.12286 -0.40400
C 	C 	0.61457 0.09863 0.12323 -0.10600
C 	C 	0.60157 0.07083 0.08943 0.00900
H 	H 	0.63657 0.05433 0.07953 0.04900
C 	C 	0.56377 0.04833 0.01283 -0.05000
H 	H 	0.61477 0.09543 0.02063 0.15300
C 	C 	0.55297 0.02533 0.97853 -0.02900
H 	H 	0.59687 0.05723 0.96233 0.18600
C 	C 	0.41727 0.91133 0.99113 -0.02000
C 	C 	0.42887 0.93333 0.02573 -0.05200
Se	Se	0.28047 0.82473 0.02253 0.14000
N 	N 	0.36997 0.89933 0.04843 -0.19200
N 	N 	0.34297 0.85133 0.98253 -0.16800
C 	C 	0.35863 0.45147 0.47317 0.36700
O 	O 	0.37013 0.48087 0.50313 -0.40400
O 	O 	0.41253 0.44237 0.45620 -0.40300
C 	C 	0.28123 0.43197 0.45657 -0.10600
C 	C 	0.26823 0.40417 0.42277 0.00900
H 	H 	0.30323 0.38767 0.41287 0.04900
C 	C 	0.23043 0.38167 0.34617 -0.05000
H 	H 	0.28143 0.42877 0.35397 0.15300
C 	C 	0.21963 0.35867 0.31187 -0.03000
H 	H 	0.26353 0.39057 0.29567 0.18600
C 	C 	0.08393 0.24467 0.32447 -0.02100
C 	C 	0.09553 0.26667 0.35907 -0.05200
Se	Se	0.94713 0.15807 0.35587 0.13900
N 	N 	0.03663 0.23267 0.38177 -0.19200
N 	N 	0.00963 0.18467 0.31587 -0.16800
C 	C 	0.21520 0.24050 0.80650 0.36700
O 	O 	0.18580 0.22260 0.83646 -0.40400
O 	O 	0.22430 0.30350 0.78953 -0.40300
C 	C 	0.23470 0.18260 0.78990 -0.10600
C 	C 	0.26250 0.19740 0.75610 0.00900
H 	H 	0.27900 0.24890 0.74620 0.04900
C 	C 	0.28500 0.18210 0.67950 -0.05000
H 	H 	0.23790 0.18600 0.68730 0.15300
C 	C 	0.30800 0.19430 0.64520 -0.02900
H 	H 	0.27610 0.20630 0.62900 0.18600
C 	C 	0.42200 0.17260 0.65780 -0.02100
C 	C 	0.40000 0.16220 0.69240 -0.05100
Se	Se	0.50860 0.12240 0.68920 0.14000
N 	N 	0.43400 0.13730 0.71510 -0.19200
N 	N 	0.48200 0.15830 0.64920 -0.16800
C 	C 	0.88187 0.57383 0.13983 0.36700
O 	O 	0.85247 0.55593 0.16979 -0.40400
O 	O 	0.89097 0.63683 0.12286 -0.40300
C 	C 	0.90137 0.51593 0.12323 -0.10600
C 	C 	0.92917 0.53073 0.08943 0.00900
H 	H 	0.94567 0.58223 0.07953 0.04900
C 	C 	0.95167 0.51543 0.01283 -0.05000
H 	H 	0.90457 0.51933 0.02063 0.15300
C 	C 	0.97467 0.52763 0.97853 -0.03000
H 	H 	0.94277 0.53963 0.96233 0.18600
C 	C 	0.08867 0.50593 0.99113 -0.02000
C 	C 	0.06667 0.49553 0.02573 -0.05100
Se	Se	0.17527 0.45573 0.02253 0.14000
N 	N 	0.10067 0.47063 0.04843 -0.19200
N 	N 	0.14867 0.49163 0.98253 -0.16800
C 	C 	0.54853 0.90717 0.47317 0.36700
O 	O 	0.51913 0.88927 0.50313 -0.40400
O 	O 	0.55763 0.97017 0.45620 -0.40400
C 	C 	0.56803 0.84927 0.45657 -0.10600
C 	C 	0.59583 0.86407 0.42277 0.00900
H 	H 	0.61233 0.91557 0.41287 0.04900
C 	C 	0.61833 0.84877 0.34617 -0.05000
H 	H 	0.57123 0.85267 0.35397 0.15300
C 	C 	0.64133 0.86097 0.31187 -0.03000
H 	H 	0.60943 0.87297 0.29567 0.18600
C 	C 	0.75533 0.83927 0.32447 -0.02100
C 	C 	0.73333 0.82887 0.35907 -0.05200
Se	Se	0.84193 0.78907 0.35587 0.14000
N 	N 	0.76733 0.80397 0.38177 -0.19200
N 	N 	0.81533 0.82497 0.31587 -0.16800
C 	C 	0.75950 0.97470 0.80650 0.36600
O 	O 	0.77740 0.96320 0.83646 -0.40400
O 	O 	0.69650 0.92080 0.78953 -0.40300
C 	C 	0.81740 0.05210 0.78990 -0.10500
C 	C 	0.80260 0.06510 0.75610 0.00900
H 	H 	0.75110 0.03010 0.74620 0.04900
C 	C 	0.81790 0.10290 0.67950 -0.05000
H 	H 	0.81400 0.05190 0.68730 0.15300
C 	C 	0.80570 0.11370 0.64520 -0.02900
H 	H 	0.79370 0.06980 0.62900 0.18600
C 	C 	0.82740 0.24940 0.65780 -0.02000
C 	C 	0.83780 0.23780 0.69240 -0.05100
Se	Se	0.87760 0.38620 0.68920 0.14000
N 	N 	0.86270 0.29670 0.71510 -0.19200
N 	N 	0.84170 0.32370 0.64920 -0.16800
C 	C 	0.42617 0.30803 0.13983 0.36700
O 	O 	0.44407 0.29653 0.16979 -0.40400
O 	O 	0.36317 0.25413 0.12286 -0.40300
C 	C 	0.48407 0.38543 0.12323 -0.10600
C 	C 	0.46927 0.39843 0.08943 0.00900
H 	H 	0.41777 0.36343 0.07953 0.04900
C 	C 	0.48457 0.43623 0.01283 -0.05000
H 	H 	0.48067 0.38523 0.02063 0.15300
C 	C 	0.47237 0.44703 0.97853 -0.02900
H 	H 	0.46037 0.40313 0.96233 0.18600
C 	C 	0.49407 0.58273 0.99113 -0.02100
C 	C 	0.50447 0.57113 0.02573 -0.05200
Se	Se	0.54427 0.71953 0.02253 0.14000
N 	N 	0.52937 0.63003 0.04843 -0.19200
N 	N 	0.50837 0.65703 0.98253 -0.16800
C 	C 	0.09283 0.64137 0.47317 0.36700
O 	O 	0.11073 0.62987 0.50313 -0.40400
O 	O 	0.02983 0.58747 0.45620 -0.40300
C 	C 	0.15073 0.71877 0.45657 -0.10600
C 	C 	0.13593 0.73177 0.42277 0.00900
H 	H 	0.08443 0.69677 0.41287 0.04900
C 	C 	0.15123 0.76957 0.34617 -0.05100
H 	H 	0.14733 0.71857 0.35397 0.15300
C 	C 	0.13903 0.78037 0.31187 -0.03000
H 	H 	0.12703 0.73647 0.29567 0.18600
C 	C 	0.16073 0.91607 0.32447 -0.02100
C 	C 	0.17113 0.90447 0.35907 -0.05200
Se	Se	0.21093 0.05287 0.35587 0.13900
N 	N 	0.19603 0.96337 0.38177 -0.19200
N 	N 	0.17503 0.99037 0.31587 -0.16700
C 	C 	0.78480 0.02530 0.19350 0.36600
O 	O 	0.81420 0.03680 0.16354 -0.40400
O 	O 	0.77570 0.07920 0.21047 -0.40400
C 	C 	0.76530 0.94790 0.21010 -0.10500
C 	C 	0.73750 0.93490 0.24390 0.00900
H 	H 	0.72100 0.96990 0.25380 0.04900
C 	C 	0.71500 0.89710 0.32050 -0.05000
H 	H 	0.76210 0.94810 0.31270 0.15300
C 	C 	0.69200 0.88630 0.35480 -0.03000
H 	H 	0.72390 0.93020 0.37100 0.18600
C 	C 	0.57800 0.75060 0.34220 -0.02100
C 	C 	0.60000 0.76220 0.30760 -0.05100
Se	Se	0.49140 0.61380 0.31080 0.14000
N 	N 	0.56600 0.70330 0.28490 -0.19200
N 	N 	0.51800 0.67630 0.35080 -0.16800
C 	C 	0.45147 0.35863 0.52683 0.36700
O 	O 	0.48087 0.37013 0.49687 -0.40400
O 	O 	0.44237 0.41253 0.54380 -0.40300
C 	C 	0.43197 0.28123 0.54343 -0.10600
C 	C 	0.40417 0.26823 0.57723 0.00900
H 	H 	0.38767 0.30323 0.58713 0.04900
C 	C 	0.38167 0.23043 0.65383 -0.05000
H 	H 	0.42877 0.28143 0.64603 0.15300
C 	C 	0.35867 0.21963 0.68813 -0.03000
H 	H 	0.39057 0.26353 0.70433 0.18600
C 	C 	0.24467 0.08393 0.67553 -0.02100
C 	C 	0.26667 0.09553 0.64093 -0.05200
Se	Se	0.15807 0.94713 0.64413 0.13900
N 	N 	0.23267 0.03663 0.61823 -0.19200
N 	N 	0.18467 0.00963 0.68413 -0.16800
C 	C 	0.11813 0.69197 0.86017 0.36700
O 	O 	0.14753 0.70347 0.83021 -0.40400
O 	O 	0.10903 0.74587 0.87714 -0.40400
C 	C 	0.09863 0.61457 0.87677 -0.10600
C 	C 	0.07083 0.60157 0.91057 0.00900
H 	H 	0.05433 0.63657 0.92047 0.04900
C 	C 	0.04833 0.56377 0.98717 -0.05000
H 	H 	0.09543 0.61477 0.97937 0.15300
C 	C 	0.02533 0.55297 0.02147 -0.02900
H 	H 	0.05723 0.59687 0.03767 0.18600
C 	C 	0.91133 0.41727 0.00887 -0.02000
C 	C 	0.93333 0.42887 0.97427 -0.05200
Se	Se	0.82473 0.28047 0.97747 0.14000
N 	N 	0.89933 0.36997 0.95157 -0.19200
N 	N 	0.85133 0.34297 0.01747 -0.16800
C 	C 	0.24050 0.21520 0.19350 0.36700
O 	O 	0.22260 0.18580 0.16354 -0.40400
O 	O 	0.30350 0.22430 0.21047 -0.40300
C 	C 	0.18260 0.23470 0.21010 -0.10600
C 	C 	0.19740 0.26250 0.24390 0.00900
H 	H 	0.24890 0.27900 0.25380 0.04900
C 	C 	0.18210 0.28500 0.32050 -0.05000
H 	H 	0.18600 0.23790 0.31270 0.15300
C 	C 	0.19430 0.30800 0.35480 -0.02900
H 	H 	0.20630 0.27610 0.37100 0.18600
C 	C 	0.17260 0.42200 0.34220 -0.02100
C 	C 	0.16220 0.40000 0.30760 -0.05100
Se	Se	0.12240 0.50860 0.31080 0.14000
N 	N 	0.13730 0.43400 0.28490 -0.19200
N 	N 	0.15830 0.48200 0.35080 -0.16800
C 	C 	0.90717 0.54853 0.52683 0.36700
O 	O 	0.88927 0.51913 0.49687 -0.40400
O 	O 	0.97017 0.55763 0.54380 -0.40400
C 	C 	0.84927 0.56803 0.54343 -0.10600
C 	C 	0.86407 0.59583 0.57723 0.00900
H 	H 	0.91557 0.61233 0.58713 0.04900
C 	C 	0.84877 0.61833 0.65383 -0.05000
H 	H 	0.85267 0.57123 0.64603 0.15300
C 	C 	0.86097 0.64133 0.68813 -0.03000
H 	H 	0.87297 0.60943 0.70433 0.18600
C 	C 	0.83927 0.75533 0.67553 -0.02100
C 	C 	0.82887 0.73333 0.64093 -0.05200
Se	Se	0.78907 0.84193 0.64413 0.14000
N 	N 	0.80397 0.76733 0.61823 -0.19200
N 	N 	0.82497 0.81533 0.68413 -0.16800
C 	C 	0.57383 0.88187 0.86017 0.36700
O 	O 	0.55593 0.85247 0.83021 -0.40400
O 	O 	0.63683 0.89097 0.87714 -0.40300
C 	C 	0.51593 0.90137 0.87677 -0.10600
C 	C 	0.53073 0.92917 0.91057 0.00900
H 	H 	0.58223 0.94567 0.92047 0.04900
C 	C 	0.51543 0.95167 0.98717 -0.05000
H 	H 	0.51933 0.90457 0.97937 0.15300
C 	C 	0.52763 0.97467 0.02147 -0.03000
H 	H 	0.53963 0.94277 0.03767 0.18600
C 	C 	0.50593 0.08867 0.00887 -0.02000
C 	C 	0.49553 0.06667 0.97427 -0.05100
Se	Se	0.45573 0.17527 0.97747 0.14000
N 	N 	0.47063 0.10067 0.95157 -0.19200
N 	N 	0.49163 0.14867 0.01747 -0.16800
C 	C 	0.97470 0.75950 0.19350 0.36600
O 	O 	0.96320 0.77740 0.16354 -0.40400
O 	O 	0.92080 0.69650 0.21047 -0.40300
C 	C 	0.05210 0.81740 0.21010 -0.10500
C 	C 	0.06510 0.80260 0.24390 0.00900
H 	H 	0.03010 0.75110 0.25380 0.04900
C 	C 	0.10290 0.81790 0.32050 -0.05000
H 	H 	0.05190 0.81400 0.31270 0.15300
C 	C 	0.11370 0.80570 0.35480 -0.02900
H 	H 	0.06980 0.79370 0.37100 0.18600
C 	C 	0.24940 0.82740 0.34220 -0.02000
C 	C 	0.23780 0.83780 0.30760 -0.05100
Se	Se	0.38620 0.87760 0.31080 0.14000
N 	N 	0.29670 0.86270 0.28490 -0.19200
N 	N 	0.32370 0.84170 0.35080 -0.16800
C 	C 	0.64137 0.09283 0.52683 0.36700
O 	O 	0.62987 0.11073 0.49687 -0.40400
O 	O 	0.58747 0.02983 0.54380 -0.40300
C 	C 	0.71877 0.15073 0.54343 -0.10600
C 	C 	0.73177 0.13593 0.57723 0.00900
H 	H 	0.69677 0.08443 0.58713 0.04900
C 	C 	0.76957 0.15123 0.65383 -0.05100
H 	H 	0.71857 0.14733 0.64603 0.15300
C 	C 	0.78037 0.13903 0.68813 -0.03000
H 	H 	0.73647 0.12703 0.70433 0.18600
C 	C 	0.91607 0.16073 0.67553 -0.02100
C 	C 	0.90447 0.17113 0.64093 -0.05200
Se	Se	0.05287 0.21093 0.64413 0.13900
N 	N 	0.96337 0.19603 0.61823 -0.19200
N 	N 	0.99037 0.17503 0.68413 -0.16700
C 	C 	0.30803 0.42617 0.86017 0.36700
O 	O 	0.29653 0.44407 0.83021 -0.40400
O 	O 	0.25413 0.36317 0.87714 -0.40300
C 	C 	0.38543 0.48407 0.87677 -0.10600
C 	C 	0.39843 0.46927 0.91057 0.00900
H 	H 	0.36343 0.41777 0.92047 0.04900
C 	C 	0.43623 0.48457 0.98717 -0.05000
H 	H 	0.38523 0.48067 0.97937 0.15300
C 	C 	0.44703 0.47237 0.02147 -0.02900
H 	H 	0.40313 0.46037 0.03767 0.18600
C 	C 	0.58273 0.49407 0.00887 -0.02100
C 	C 	0.57113 0.50447 0.97427 -0.05200
Se	Se	0.71953 0.54427 0.97747 0.14000
N 	N 	0.63003 0.52937 0.95157 -0.19200
N 	N 	0.65703 0.50837 0.01747 -0.16800
Cu	Cu	0.85731 0.14269 0.13892 0.90800
Cu	Cu	0.52398 0.47602 0.47225 0.90800
Cu	Cu	0.19064 0.80936 0.80559 0.90800
Cu	Cu	0.85731 0.71462 0.13892 0.90800
Cu	Cu	0.52398 0.04795 0.47225 0.90800
Cu	Cu	0.19064 0.38129 0.80559 0.90800
Cu	Cu	0.28538 0.14269 0.13892 0.90800
Cu	Cu	0.95205 0.47602 0.47225 0.90800
Cu	Cu	0.61871 0.80936 0.80559 0.90800
Cu	Cu	0.14269 0.85731 0.86108 0.90800
Cu	Cu	0.80936 0.19064 0.19441 0.90800
Cu	Cu	0.47602 0.52398 0.52775 0.90800
Cu	Cu	0.71462 0.85731 0.86108 0.90800
Cu	Cu	0.38129 0.19064 0.19441 0.90800
Cu	Cu	0.04795 0.52398 0.52775 0.90800
Cu	Cu	0.14269 0.28538 0.86108 0.90800
Cu	Cu	0.80936 0.61871 0.19441 0.90800
Cu	Cu	0.47602 0.95205 0.52775 0.90800
C 	C 	0.11010 0.22020 0.19410 0.05600
H 	H 	0.09995 0.19990 0.17170 0.04600
C 	C 	0.13300 0.26600 0.26410 -0.02100
C 	C 	0.16550 0.33100 0.29700 0.02000
C 	C 	0.18750 0.37500 0.36570 0.03400
C 	C 	0.77677 0.55353 0.52743 0.05700
H 	H 	0.76662 0.53323 0.50503 0.04600
C 	C 	0.79967 0.59933 0.59743 -0.02100
C 	C 	0.83217 0.66433 0.63033 0.02100
C 	C 	0.85417 0.70833 0.69903 0.03400
C 	C 	0.44343 0.88687 0.86077 0.05700
H 	H 	0.43328 0.86657 0.83837 0.04600
C 	C 	0.46633 0.93267 0.93077 -0.02100
C 	C 	0.49883 0.99767 0.96367 0.02100
C 	C 	0.52083 0.04167 0.03237 0.03300
C 	C 	0.77980 0.88990 0.19410 0.05600
H 	H 	0.80010 0.90005 0.17170 0.04600
C 	C 	0.73400 0.86700 0.26410 -0.02100
C 	C 	0.66900 0.83450 0.29700 0.02000
C 	C 	0.62500 0.81250 0.36570 0.03400
C 	C 	0.44647 0.22323 0.52743 0.05700
H 	H 	0.46677 0.23338 0.50503 0.04600
C 	C 	0.40067 0.20033 0.59743 -0.02100
C 	C 	0.33567 0.16783 0.63033 0.02100
C 	C 	0.29167 0.14583 0.69903 0.03400
C 	C 	0.11313 0.55657 0.86077 0.05700
H 	H 	0.13343 0.56672 0.83837 0.04600
C 	C 	0.06733 0.53367 0.93077 -0.02100
C 	C 	0.00233 0.50117 0.96367 0.02100
C 	C 	0.95833 0.47917 0.03237 0.03300
C 	C 	0.11010 0.88990 0.19410 0.05600
H 	H 	0.09995 0.90005 0.17170 0.04600
C 	C 	0.13300 0.86700 0.26410 -0.02100
C 	C 	0.16550 0.83450 0.29700 0.02000
C 	C 	0.18750 0.81250 0.36570 0.03300
C 	C 	0.77677 0.22323 0.52743 0.05700
H 	H 	0.76662 0.23338 0.50503 0.04600
C 	C 	0.79967 0.20033 0.59743 -0.02100
C 	C 	0.83217 0.16783 0.63033 0.02100
C 	C 	0.85417 0.14583 0.69903 0.03400
C 	C 	0.44343 0.55657 0.86077 0.05700
H 	H 	0.43328 0.56672 0.83837 0.04600
C 	C 	0.46633 0.53367 0.93077 -0.02100
C 	C 	0.49883 0.50117 0.96367 0.02100
C 	C 	0.52083 0.47917 0.03237 0.03400
C 	C 	0.22020 0.11010 0.80590 0.05600
H 	H 	0.19990 0.09995 0.82830 0.04600
C 	C 	0.26600 0.13300 0.73590 -0.02100
C 	C 	0.33100 0.16550 0.70300 0.02000
C 	C 	0.37500 0.18750 0.63430 0.03400
C 	C 	0.88687 0.44343 0.13923 0.05700
H 	H 	0.86657 0.43328 0.16163 0.04600
C 	C 	0.93267 0.46633 0.06923 -0.02100
C 	C 	0.99767 0.49883 0.03633 0.02100
C 	C 	0.04167 0.52083 0.96763 0.03300
C 	C 	0.55353 0.77677 0.47257 0.05700
H 	H 	0.53323 0.76662 0.49497 0.04600
C 	C 	0.59933 0.79967 0.40257 -0.02100
C 	C 	0.66433 0.83217 0.36967 0.02100
C 	C 	0.70833 0.85417 0.30097 0.03400
C 	C 	0.88990 0.77980 0.80590 0.05600
H 	H 	0.90005 0.80010 0.82830 0.04600
C 	C 	0.86700 0.73400 0.73590 -0.02100
C 	C 	0.83450 0.66900 0.70300 0.02000
C 	C 	0.81250 0.62500 0.63430 0.03400
C 	C 	0.55657 0.11313 0.13923 0.05700
H 	H 	0.56672 0.13343 0.16163 0.04600
C 	C 	0.53367 0.06733 0.06923 -0.02100
C 	C 	0.50117 0.00233 0.03633 0.02100
C 	C 	0.47917 0.95833 0.96763 0.03300
C 	C 	0.22323 0.44647 0.47257 0.05700
H 	H 	0.23338 0.46677 0.49497 0.04600
C 	C 	0.20033 0.40067 0.40257 -0.02100
C 	C 	0.16783 0.33567 0.36967 0.02100
C 	C 	0.14583 0.29167 0.30097 0.03400
C 	C 	0.88990 0.11010 0.80590 0.05600
H 	H 	0.90005 0.09995 0.82830 0.04600
C 	C 	0.86700 0.13300 0.73590 -0.02100
C 	C 	0.83450 0.16550 0.70300 0.02000
C 	C 	0.81250 0.18750 0.63430 0.03300
C 	C 	0.55657 0.44343 0.13923 0.05700
H 	H 	0.56672 0.43328 0.16163 0.04600
C 	C 	0.53367 0.46633 0.06923 -0.02100
C 	C 	0.50117 0.49883 0.03633 0.02100
C 	C 	0.47917 0.52083 0.96763 0.03400
C 	C 	0.22323 0.77677 0.47257 0.05700
H 	H 	0.23338 0.76662 0.49497 0.04600
C 	C 	0.20033 0.79967 0.40257 -0.02100
C 	C 	0.16783 0.83217 0.36967 0.02100
C 	C 	0.14583 0.85417 0.30097 0.03400
