data_crystal

_cell_length_a 10.15650
_cell_length_b 37.90510
_cell_length_c 41.21750
_cell_angle_alpha 90.00000
_cell_angle_beta  99.89400
_cell_angle_gamma 90.00000

_symmetry_space_group_name_	'P 1'
_symmetry_space_group_name_H-M	'P 1'

loop_
_symmetry_equiv_pos_as_xyz
  x,y,z

loop_
_atom_site_label
_atom_site_type_symbol
_atom_site_fract_x
_atom_site_fract_y
_atom_site_fract_z
_atom_site_charge
Mn	Mn	0.84924 0.33299 0.29257 1.29300
Mn	Mn	0.52712 0.37998 0.28139 1.30700
Mn	Mn	0.92424 0.89928 0.22683 1.27700
O 	O 	0.64750 0.33280 0.26850 -0.53700
O 	O 	0.50150 0.35630 0.22920 -0.43000
O 	O 	0.17250 0.12340 0.82026 -0.39600
O 	O 	0.80890 0.94407 0.21492 -0.47600
O 	O 	0.92580 0.32630 0.24646 -0.46900
O 	O 	0.31570 0.91540 0.22349 -0.45500
O 	O 	0.11190 0.88870 0.21321 -0.58100
O 	O 	0.11800 0.35600 0.24500 -0.48100
O 	O 	0.05160 0.17270 0.81856 -0.42300
O 	O 	0.58320 0.12690 0.83212 -0.42200
O 	O 	0.78550 0.15100 0.83710 -0.47800
O 	O 	0.61710 0.91874 0.22168 -0.49200
N 	N 	0.76630 0.13290 0.09520 -0.17500
N 	N 	0.23870 0.14680 0.07840 -0.17600
C 	C 	0.58420 0.28010 0.16210 -0.14900
H 	H 	0.55800 0.28250 0.13950 0.08000
C 	C 	0.72800 0.19590 0.10300 -0.14700
H 	H 	0.75380 0.20130 0.08300 0.08200
C 	C 	0.41570 0.10170 0.09080 -0.17000
H 	H 	0.45630 0.11140 0.07430 0.09300
C 	C 	0.70220 0.13650 0.88510 -0.15000
C 	C 	0.30050 0.11530 0.09660 0.14000
C 	C 	0.65720 0.21660 0.15170 -0.05900
C 	C 	0.16210 0.18210 0.92000 -0.18300
H 	H 	0.14770 0.20300 0.93060 0.09400
C 	C 	0.72820 0.16040 0.11350 0.12500
C 	C 	0.73700 0.13680 0.99090 -0.06700
C 	C 	0.64810 0.27070 0.22980 0.07700
H 	H 	0.67120 0.26770 0.25240 -0.00800
C 	C 	0.95640 0.04250 0.14550 -0.08600
C 	C 	0.98620 0.97730 0.15090 -0.16900
H 	H 	0.92880 0.97520 0.13090 0.09000
C 	C 	0.99940 0.25740 0.17430 -0.14400
H 	H 	0.93370 0.24150 0.16510 0.08400
C 	C 	0.75890 0.13590 0.06140 0.14100
C 	C 	0.20850 0.15100 0.93970 0.12000
C 	C 	0.41820 0.05870 0.13370 -0.08100
C 	C 	0.58080 0.33330 0.23780 0.37300
C 	C 	0.60510 0.30380 0.21650 -0.15500
C 	C 	0.21860 0.12050 0.88820 0.08500
H 	H 	0.24320 0.10040 0.87780 0.01500
C 	C 	0.14030 0.18110 0.88760 0.11400
H 	H 	0.10940 0.20150 0.87620 0.00200
C 	C 	0.16140 0.15050 0.86890 -0.17600
C 	C 	0.65560 0.24260 0.20870 -0.15000
H 	H 	0.67600 0.22030 0.21770 0.08000
C 	C 	0.20720 0.11970 0.99260 0.05800
H 	H 	0.18830 0.09880 0.98090 0.00600
C 	C 	0.09160 0.19360 0.09350 -0.14900
H 	H 	0.02670 0.18660 0.07600 0.08600
C 	C 	0.64710 0.18140 0.16320 0.01200
H 	H 	0.62040 0.17710 0.18330 0.02200
C 	C 	0.83030 0.10160 0.11350 0.13400
C 	C 	0.23650 0.14810 0.04500 0.15300
C 	C 	0.28930 0.21420 0.14640 0.01300
H 	H 	0.35360 0.22060 0.16430 0.02900
C 	C 	0.24560 0.18010 0.02870 -0.16100
H 	H 	0.25570 0.20080 0.04090 0.08900
C 	C 	0.61350 0.97260 0.19160 -0.19200
C 	C 	0.67750 0.15430 0.14420 -0.13700
H 	H 	0.66560 0.13130 0.15080 0.08100
C 	C 	0.16680 0.98460 0.20900 0.09700
H 	H 	0.22750 0.98800 0.22840 -0.00500
C 	C 	0.24000 0.18200 0.99400 0.03300
H 	H 	0.24750 0.20370 0.98390 0.01600
C 	C 	0.21760 0.11850 0.02500 -0.18200
H 	H 	0.21190 0.09660 0.03490 0.09500
C 	C 	0.69100 0.22230 0.12170 0.02200
H 	H 	0.68850 0.24530 0.11360 0.01900
C 	C 	0.69400 0.13840 0.84860 0.42400
C 	C 	0.10780 0.01170 0.19180 -0.18900
H 	H 	0.13060 0.03410 0.20000 0.09300
C 	C 	0.59020 0.13390 0.90090 0.07400
H 	H 	0.50560 0.13250 0.88810 0.03100
C 	C 	0.85930 0.12470 0.04510 -0.16100
H 	H 	0.93760 0.11610 0.05770 0.09100
C 	C 	0.23170 0.10060 0.11960 -0.15100
H 	H 	0.14900 0.10920 0.12270 0.09100
C 	C 	0.85150 0.12530 0.01160 0.03400
H 	H 	0.92450 0.11790 0.00250 0.01900
C 	C 	0.63380 0.24630 0.17460 0.08600
C 	C 	0.22280 0.15040 0.97480 -0.09000
C 	C 	0.88030 0.04060 0.11410 0.04700
H 	H 	0.86900 0.01870 0.10380 0.01000
C 	C 	0.96200 0.07520 0.16010 0.03400
H 	H 	0.00340 0.07700 0.18190 0.01400
C 	C 	0.48580 0.02800 0.15310 0.14200
C 	C 	0.82500 0.14170 0.90620 0.07900
H 	H 	0.90100 0.14590 0.89700 0.01600
C 	C 	0.03800 0.94640 0.16730 0.07500
H 	H 	0.01010 0.92430 0.15900 -0.00200
C 	C 	0.83720 0.14090 0.93970 -0.15800
H 	H 	0.92150 0.14230 0.95270 0.08900
C 	C 	0.72250 0.13790 0.95490 0.10800
C 	C 	0.03440 0.33180 0.23750 0.41100
C 	C 	0.82230 0.06900 0.09810 -0.16900
H 	H 	0.77680 0.06680 0.07660 0.09100
C 	C 	0.60180 0.13330 0.93560 -0.15600
H 	H 	0.52630 0.12970 0.94520 0.08800
C 	C 	0.18860 0.30590 0.20000 0.06700
H 	H 	0.24810 0.32400 0.20740 0.02400
C 	C 	0.57330 0.30830 0.18120 0.07100
H 	H 	0.54630 0.33010 0.17200 0.01200
C 	C 	0.12700 0.25700 0.16420 0.08300
C 	C 	0.61890 0.02920 0.16380 -0.19000
H 	H 	0.66700 0.04860 0.15840 0.09900
C 	C 	0.06100 0.30510 0.21170 -0.14100
C 	C 	0.31290 0.18820 0.12390 -0.14400
H 	H 	0.39750 0.17810 0.12620 0.08800
C 	C 	0.06500 0.21950 0.11350 0.02000
H 	H 	0.98210 0.23060 0.10990 0.02300
C 	C 	0.23670 0.12200 0.92330 -0.17200
H 	H 	0.26940 0.10220 0.93530 0.08800
C 	C 	0.90980 0.10610 0.14420 -0.16200
H 	H 	0.92720 0.12830 0.15360 0.09000
C 	C 	0.64160 0.14910 0.04200 -0.15100
H 	H 	0.57230 0.15790 0.05170 0.08500
C 	C 	0.41330 0.00090 0.16030 -0.19300
H 	H 	0.32200 0.00000 0.15230 0.10500
C 	C 	0.16350 0.22980 0.14010 -0.04900
C 	C 	0.97280 0.28130 0.19770 0.07600
H 	H 	0.88910 0.28070 0.20390 0.01900
C 	C 	0.21580 0.17700 0.09890 0.13000
C 	C 	0.29490 0.07130 0.13850 0.02800
H 	H 	0.25230 0.06080 0.15420 0.02100
C 	C 	0.47530 0.07360 0.10870 0.04100
H 	H 	0.55500 0.06460 0.10400 0.01700
C 	C 	0.22550 0.28180 0.17910 -0.14200
H 	H 	0.31200 0.28140 0.17460 0.08700
C 	C 	0.19500 0.91640 0.21310 0.36100
C 	C 	0.01670 0.00980 0.16320 0.12600
C 	C 	0.68720 0.00180 0.18320 0.10400
H 	H 	0.77910 0.00300 0.19020 0.00800
C 	C 	0.68310 0.94390 0.21100 0.42700
C 	C 	0.12800 0.14840 0.83500 0.40500
C 	C 	0.13220 0.94960 0.19610 -0.19000
C 	C 	0.47830 0.97260 0.18090 0.11100
H 	H 	0.42700 0.95420 0.18680 -0.00400
C 	C 	0.63130 0.14860 0.00750 0.02000
H 	H 	0.55210 0.15640 0.99480 0.02500
O 	O 	0.35760 0.34360 0.28499 -1.18100
H 	H 	0.35600 0.35100 0.27300 0.86300
Mn	Mn	0.15076 0.83299 0.20743 1.29200
Mn	Mn	0.47288 0.87998 0.21861 1.30600
Mn	Mn	0.07576 0.39928 0.27317 1.27600
O 	O 	0.35250 0.83280 0.23150 -0.53800
O 	O 	0.49850 0.85630 0.27080 -0.43000
O 	O 	0.82750 0.62340 0.67974 -0.39600
O 	O 	0.19110 0.44407 0.28508 -0.47600
O 	O 	0.07420 0.82630 0.25354 -0.46900
O 	O 	0.68430 0.41540 0.27651 -0.45500
O 	O 	0.88810 0.38870 0.28679 -0.58100
O 	O 	0.88200 0.85600 0.25500 -0.48100
O 	O 	0.94840 0.67270 0.68144 -0.42300
O 	O 	0.41680 0.62690 0.66788 -0.42200
O 	O 	0.21450 0.65100 0.66290 -0.47800
O 	O 	0.38290 0.41874 0.27832 -0.49200
N 	N 	0.23370 0.63290 0.40480 -0.17500
N 	N 	0.76130 0.64680 0.42160 -0.17600
C 	C 	0.41580 0.78010 0.33790 -0.14800
H 	H 	0.44200 0.78250 0.36050 0.08000
C 	C 	0.27200 0.69590 0.39700 -0.14700
H 	H 	0.24620 0.70130 0.41700 0.08200
C 	C 	0.58430 0.60170 0.40920 -0.17000
H 	H 	0.54370 0.61140 0.42570 0.09300
C 	C 	0.29780 0.63650 0.61490 -0.15000
C 	C 	0.69950 0.61530 0.40340 0.14000
C 	C 	0.34280 0.71660 0.34830 -0.05900
C 	C 	0.83790 0.68210 0.58000 -0.18300
H 	H 	0.85230 0.70300 0.56940 0.09400
C 	C 	0.27180 0.66040 0.38650 0.12500
C 	C 	0.26300 0.63680 0.50910 -0.06700
C 	C 	0.35190 0.77070 0.27020 0.07700
H 	H 	0.32880 0.76770 0.24760 -0.00800
C 	C 	0.04360 0.54250 0.35450 -0.08600
C 	C 	0.01380 0.47730 0.34910 -0.17000
H 	H 	0.07120 0.47520 0.36910 0.09000
C 	C 	0.00060 0.75740 0.32570 -0.14400
H 	H 	0.06630 0.74150 0.33490 0.08400
C 	C 	0.24110 0.63590 0.43860 0.14100
C 	C 	0.79150 0.65100 0.56030 0.12000
C 	C 	0.58180 0.55870 0.36630 -0.08100
C 	C 	0.41920 0.83330 0.26220 0.37300
C 	C 	0.39490 0.80380 0.28350 -0.15500
C 	C 	0.78140 0.62050 0.61180 0.08500
H 	H 	0.75680 0.60040 0.62220 0.01500
C 	C 	0.85970 0.68110 0.61240 0.11400
H 	H 	0.89060 0.70150 0.62380 0.00200
C 	C 	0.83860 0.65050 0.63110 -0.17600
C 	C 	0.34440 0.74260 0.29130 -0.15000
H 	H 	0.32400 0.72030 0.28230 0.08000
C 	C 	0.79280 0.61970 0.50740 0.05800
H 	H 	0.81170 0.59880 0.51910 0.00600
C 	C 	0.90840 0.69360 0.40650 -0.14900
H 	H 	0.97330 0.68660 0.42400 0.08600
C 	C 	0.35290 0.68140 0.33680 0.01200
H 	H 	0.37960 0.67710 0.31670 0.02200
C 	C 	0.16970 0.60160 0.38650 0.13400
C 	C 	0.76350 0.64810 0.45500 0.15300
C 	C 	0.71070 0.71420 0.35360 0.01300
H 	H 	0.64640 0.72060 0.33570 0.02900
C 	C 	0.75440 0.68010 0.47130 -0.16100
H 	H 	0.74430 0.70080 0.45910 0.08900
C 	C 	0.38650 0.47260 0.30840 -0.19200
C 	C 	0.32250 0.65430 0.35580 -0.13700
H 	H 	0.33440 0.63130 0.34920 0.08100
C 	C 	0.83320 0.48460 0.29100 0.09600
H 	H 	0.77250 0.48800 0.27160 -0.00500
C 	C 	0.76000 0.68200 0.50600 0.03300
H 	H 	0.75250 0.70370 0.51610 0.01600
C 	C 	0.78240 0.61850 0.47500 -0.18200
H 	H 	0.78810 0.59660 0.46510 0.09500
C 	C 	0.30900 0.72230 0.37830 0.02200
H 	H 	0.31150 0.74530 0.38640 0.01900
C 	C 	0.30600 0.63840 0.65140 0.42400
C 	C 	0.89220 0.51170 0.30820 -0.18800
H 	H 	0.86940 0.53410 0.30000 0.09200
C 	C 	0.40980 0.63390 0.59910 0.07400
H 	H 	0.49440 0.63250 0.61190 0.03100
C 	C 	0.14070 0.62470 0.45490 -0.16100
H 	H 	0.06240 0.61610 0.44230 0.09100
C 	C 	0.76830 0.60060 0.38040 -0.15100
H 	H 	0.85100 0.60920 0.37730 0.09100
C 	C 	0.14850 0.62530 0.48840 0.03400
H 	H 	0.07550 0.61790 0.49750 0.01900
C 	C 	0.36620 0.74630 0.32540 0.08600
C 	C 	0.77720 0.65040 0.52520 -0.09000
C 	C 	0.11970 0.54060 0.38590 0.04700
H 	H 	0.13100 0.51870 0.39620 0.01000
C 	C 	0.03800 0.57520 0.33990 0.03400
H 	H 	0.99660 0.57700 0.31810 0.01400
C 	C 	0.51420 0.52800 0.34690 0.14200
C 	C 	0.17500 0.64170 0.59380 0.07900
H 	H 	0.09900 0.64590 0.60300 0.01600
C 	C 	0.96200 0.44640 0.33270 0.07400
H 	H 	0.98990 0.42430 0.34100 -0.00200
C 	C 	0.16280 0.64090 0.56030 -0.15800
H 	H 	0.07850 0.64230 0.54730 0.08900
C 	C 	0.27750 0.63790 0.54510 0.10800
C 	C 	0.96560 0.83180 0.26250 0.41100
C 	C 	0.17770 0.56900 0.40190 -0.16900
H 	H 	0.22320 0.56680 0.42340 0.09200
C 	C 	0.39820 0.63330 0.56440 -0.15600
H 	H 	0.47370 0.62970 0.55480 0.08800
C 	C 	0.81140 0.80590 0.30000 0.06700
H 	H 	0.75190 0.82400 0.29260 0.02400
C 	C 	0.42670 0.80830 0.31880 0.07100
H 	H 	0.45370 0.83010 0.32800 0.01300
C 	C 	0.87300 0.75700 0.33580 0.08300
C 	C 	0.38110 0.52920 0.33620 -0.19000
H 	H 	0.33300 0.54860 0.34160 0.09900
C 	C 	0.93900 0.80510 0.28830 -0.14100
C 	C 	0.68710 0.68820 0.37610 -0.14400
H 	H 	0.60250 0.67810 0.37380 0.08800
C 	C 	0.93500 0.71950 0.38650 0.02000
H 	H 	0.01790 0.73060 0.39010 0.02300
C 	C 	0.76330 0.62200 0.57670 -0.17200
H 	H 	0.73060 0.60220 0.56470 0.08800
C 	C 	0.09020 0.60610 0.35580 -0.16200
H 	H 	0.07280 0.62830 0.34640 0.09000
C 	C 	0.35840 0.64910 0.45800 -0.15100
H 	H 	0.42770 0.65790 0.44830 0.08500
C 	C 	0.58670 0.50090 0.33970 -0.19200
H 	H 	0.67800 0.50000 0.34770 0.10500
C 	C 	0.83650 0.72980 0.35990 -0.04900
C 	C 	0.02720 0.78130 0.30230 0.07600
H 	H 	0.11090 0.78070 0.29610 0.01900
C 	C 	0.78420 0.67700 0.40110 0.13000
C 	C 	0.70510 0.57130 0.36150 0.02800
H 	H 	0.74770 0.56080 0.34580 0.02100
C 	C 	0.52470 0.57360 0.39130 0.04100
H 	H 	0.44500 0.56460 0.39600 0.01700
C 	C 	0.77450 0.78180 0.32090 -0.14200
H 	H 	0.68800 0.78140 0.32540 0.08700
C 	C 	0.80500 0.41640 0.28690 0.36100
C 	C 	0.98330 0.50980 0.33680 0.12600
C 	C 	0.31280 0.50180 0.31680 0.10400
H 	H 	0.22090 0.50300 0.30980 0.00800
C 	C 	0.31690 0.44390 0.28900 0.42700
C 	C 	0.87200 0.64840 0.66500 0.40500
C 	C 	0.86780 0.44960 0.30390 -0.19000
C 	C 	0.52170 0.47260 0.31910 0.11100
H 	H 	0.57300 0.45420 0.31320 -0.00300
C 	C 	0.36870 0.64860 0.49250 0.02000
H 	H 	0.44790 0.65640 0.50520 0.02500
O 	O 	0.64240 0.84360 0.21501 -1.18100
H 	H 	0.64400 0.85100 0.22700 0.86300
Mn	Mn	0.15076 0.66701 0.70743 1.29200
Mn	Mn	0.47288 0.62002 0.71861 1.30600
Mn	Mn	0.07576 0.10072 0.77317 1.27600
O 	O 	0.35250 0.66720 0.73150 -0.53800
O 	O 	0.49850 0.64370 0.77080 -0.43000
O 	O 	0.82750 0.87660 0.17974 -0.39600
O 	O 	0.19110 0.05593 0.78508 -0.47600
O 	O 	0.07420 0.67370 0.75354 -0.46900
O 	O 	0.68430 0.08460 0.77651 -0.45500
O 	O 	0.88810 0.11130 0.78679 -0.58100
O 	O 	0.88200 0.64400 0.75500 -0.48100
O 	O 	0.94840 0.82730 0.18144 -0.42300
O 	O 	0.41680 0.87310 0.16788 -0.42200
O 	O 	0.21450 0.84900 0.16290 -0.47800
O 	O 	0.38290 0.08126 0.77832 -0.49200
N 	N 	0.23370 0.86710 0.90480 -0.17500
N 	N 	0.76130 0.85320 0.92160 -0.17600
C 	C 	0.41580 0.71990 0.83790 -0.14900
H 	H 	0.44200 0.71750 0.86050 0.08000
C 	C 	0.27200 0.80410 0.89700 -0.14700
H 	H 	0.24620 0.79870 0.91700 0.08200
C 	C 	0.58430 0.89830 0.90920 -0.16900
H 	H 	0.54370 0.88860 0.92570 0.09300
C 	C 	0.29780 0.86350 0.11490 -0.15000
C 	C 	0.69950 0.88470 0.90340 0.13900
C 	C 	0.34280 0.78340 0.84830 -0.05900
C 	C 	0.83790 0.81790 0.08000 -0.18300
H 	H 	0.85230 0.79700 0.06940 0.09400
C 	C 	0.27180 0.83960 0.88650 0.12500
C 	C 	0.26300 0.86320 0.00910 -0.06700
C 	C 	0.35190 0.72930 0.77020 0.07700
H 	H 	0.32880 0.73230 0.74760 -0.00800
C 	C 	0.04360 0.95750 0.85450 -0.08600
C 	C 	0.01380 0.02270 0.84910 -0.17000
H 	H 	0.07120 0.02480 0.86910 0.09100
C 	C 	0.00060 0.74260 0.82570 -0.14400
H 	H 	0.06630 0.75850 0.83490 0.08400
C 	C 	0.24110 0.86410 0.93860 0.14100
C 	C 	0.79150 0.84900 0.06030 0.12000
C 	C 	0.58180 0.94130 0.86630 -0.08000
C 	C 	0.41920 0.66670 0.76220 0.37300
C 	C 	0.39490 0.69620 0.78350 -0.15500
C 	C 	0.78140 0.87950 0.11180 0.08500
H 	H 	0.75680 0.89960 0.12220 0.01500
C 	C 	0.85970 0.81890 0.11240 0.11400
H 	H 	0.89060 0.79850 0.12380 0.00200
C 	C 	0.83860 0.84950 0.13110 -0.17600
C 	C 	0.34440 0.75740 0.79130 -0.15000
H 	H 	0.32400 0.77970 0.78230 0.08000
C 	C 	0.79280 0.88030 0.00740 0.05800
H 	H 	0.81170 0.90120 0.01910 0.00600
C 	C 	0.90840 0.80640 0.90650 -0.14900
H 	H 	0.97330 0.81340 0.92400 0.08600
C 	C 	0.35290 0.81860 0.83680 0.01200
H 	H 	0.37960 0.82290 0.81670 0.02200
C 	C 	0.16970 0.89840 0.88650 0.13400
C 	C 	0.76350 0.85190 0.95500 0.15300
C 	C 	0.71070 0.78580 0.85360 0.01300
H 	H 	0.64640 0.77940 0.83570 0.02900
C 	C 	0.75440 0.81990 0.97130 -0.16100
H 	H 	0.74430 0.79920 0.95910 0.08900
C 	C 	0.38650 0.02740 0.80840 -0.19200
C 	C 	0.32250 0.84570 0.85580 -0.13700
H 	H 	0.33440 0.86870 0.84920 0.08100
C 	C 	0.83320 0.01540 0.79100 0.09500
H 	H 	0.77250 0.01200 0.77160 -0.00500
C 	C 	0.76000 0.81800 0.00600 0.03300
H 	H 	0.75250 0.79630 0.01610 0.01600
C 	C 	0.78240 0.88150 0.97500 -0.18200
H 	H 	0.78810 0.90340 0.96510 0.09500
C 	C 	0.30900 0.77770 0.87830 0.02200
H 	H 	0.31150 0.75470 0.88640 0.01900
C 	C 	0.30600 0.86160 0.15140 0.42400
C 	C 	0.89220 0.98830 0.80820 -0.18700
H 	H 	0.86940 0.96590 0.80000 0.09200
C 	C 	0.40980 0.86610 0.09910 0.07400
H 	H 	0.49440 0.86750 0.11190 0.03100
C 	C 	0.14070 0.87530 0.95490 -0.16100
H 	H 	0.06240 0.88390 0.94230 0.09100
C 	C 	0.76830 0.89940 0.88040 -0.15100
H 	H 	0.85100 0.89080 0.87730 0.09100
C 	C 	0.14850 0.87470 0.98840 0.03400
H 	H 	0.07550 0.88210 0.99750 0.01900
C 	C 	0.36620 0.75370 0.82540 0.08600
C 	C 	0.77720 0.84960 0.02520 -0.09000
C 	C 	0.11970 0.95940 0.88590 0.04700
H 	H 	0.13100 0.98130 0.89620 0.01000
C 	C 	0.03800 0.92480 0.83990 0.03400
H 	H 	0.99660 0.92300 0.81810 0.01400
C 	C 	0.51420 0.97200 0.84690 0.14100
C 	C 	0.17500 0.85830 0.09380 0.07900
H 	H 	0.09900 0.85410 0.10300 0.01600
C 	C 	0.96200 0.05360 0.83270 0.07500
H 	H 	0.98990 0.07570 0.84100 -0.00200
C 	C 	0.16280 0.85910 0.06030 -0.15800
H 	H 	0.07850 0.85770 0.04730 0.08900
C 	C 	0.27750 0.86210 0.04510 0.10800
C 	C 	0.96560 0.66820 0.76250 0.41100
C 	C 	0.17770 0.93100 0.90190 -0.16900
H 	H 	0.22320 0.93320 0.92340 0.09200
C 	C 	0.39820 0.86670 0.06440 -0.15600
H 	H 	0.47370 0.87030 0.05480 0.08800
C 	C 	0.81140 0.69410 0.80000 0.06700
H 	H 	0.75190 0.67600 0.79260 0.02400
C 	C 	0.42670 0.69170 0.81880 0.07100
H 	H 	0.45370 0.66990 0.82800 0.01200
C 	C 	0.87300 0.74300 0.83580 0.08300
C 	C 	0.38110 0.97080 0.83620 -0.18900
H 	H 	0.33300 0.95140 0.84160 0.09900
C 	C 	0.93900 0.69490 0.78830 -0.14100
C 	C 	0.68710 0.81180 0.87610 -0.14400
H 	H 	0.60250 0.82190 0.87380 0.08800
C 	C 	0.93500 0.78050 0.88650 0.02000
H 	H 	0.01790 0.76940 0.89010 0.02300
C 	C 	0.76330 0.87800 0.07670 -0.17200
H 	H 	0.73060 0.89780 0.06470 0.08800
C 	C 	0.09020 0.89390 0.85580 -0.16200
H 	H 	0.07280 0.87170 0.84640 0.09000
C 	C 	0.35840 0.85090 0.95800 -0.15100
H 	H 	0.42770 0.84210 0.94830 0.08500
C 	C 	0.58670 0.99910 0.83970 -0.19000
H 	H 	0.67800 0.00000 0.84770 0.10300
C 	C 	0.83650 0.77020 0.85990 -0.04900
C 	C 	0.02720 0.71870 0.80230 0.07600
H 	H 	0.11090 0.71930 0.79610 0.01900
C 	C 	0.78420 0.82300 0.90110 0.13000
C 	C 	0.70510 0.92870 0.86150 0.02700
H 	H 	0.74770 0.93920 0.84580 0.02200
C 	C 	0.52470 0.92640 0.89130 0.04100
H 	H 	0.44500 0.93540 0.89600 0.01700
C 	C 	0.77450 0.71820 0.82090 -0.14200
H 	H 	0.68800 0.71860 0.82540 0.08700
C 	C 	0.80500 0.08360 0.78690 0.36100
C 	C 	0.98330 0.99020 0.83680 0.12600
C 	C 	0.31280 0.99820 0.81680 0.10400
H 	H 	0.22090 0.99700 0.80980 0.00800
C 	C 	0.31690 0.05610 0.78900 0.42700
C 	C 	0.87200 0.85160 0.16500 0.40500
C 	C 	0.86780 0.05040 0.80390 -0.18900
C 	C 	0.52170 0.02740 0.81910 0.10900
H 	H 	0.57300 0.04580 0.81320 -0.00300
C 	C 	0.36870 0.85140 0.99250 0.02000
H 	H 	0.44790 0.84360 0.00520 0.02500
O 	O 	0.64240 0.65640 0.71501 -1.18100
H 	H 	0.64400 0.64900 0.72700 0.86300
Mn	Mn	0.84924 0.16701 0.79257 1.29200
Mn	Mn	0.52712 0.12002 0.78139 1.30600
Mn	Mn	0.92424 0.60072 0.72683 1.27600
O 	O 	0.64750 0.16720 0.76850 -0.53800
O 	O 	0.50150 0.14370 0.72920 -0.43000
O 	O 	0.17250 0.37660 0.32026 -0.39600
O 	O 	0.80890 0.55593 0.71492 -0.47600
O 	O 	0.92580 0.17370 0.74646 -0.46900
O 	O 	0.31570 0.58460 0.72349 -0.45500
O 	O 	0.11190 0.61130 0.71321 -0.58100
O 	O 	0.11800 0.14400 0.74500 -0.48100
O 	O 	0.05160 0.32730 0.31856 -0.42300
O 	O 	0.58320 0.37310 0.33212 -0.42200
O 	O 	0.78550 0.34900 0.33710 -0.47800
O 	O 	0.61710 0.58126 0.72168 -0.49200
N 	N 	0.76630 0.36710 0.59520 -0.17500
N 	N 	0.23870 0.35320 0.57840 -0.17600
C 	C 	0.58420 0.21990 0.66210 -0.14900
H 	H 	0.55800 0.21750 0.63950 0.08000
C 	C 	0.72800 0.30410 0.60300 -0.14700
H 	H 	0.75380 0.29870 0.58300 0.08200
C 	C 	0.41570 0.39830 0.59080 -0.17000
H 	H 	0.45630 0.38860 0.57430 0.09300
C 	C 	0.70220 0.36350 0.38510 -0.15000
C 	C 	0.30050 0.38470 0.59660 0.14000
C 	C 	0.65720 0.28340 0.65170 -0.05900
C 	C 	0.16210 0.31790 0.42000 -0.18300
H 	H 	0.14770 0.29700 0.43060 0.09400
C 	C 	0.72820 0.33960 0.61350 0.12500
C 	C 	0.73700 0.36320 0.49090 -0.06700
C 	C 	0.64810 0.22930 0.72980 0.07700
H 	H 	0.67120 0.23230 0.75240 -0.00800
C 	C 	0.95640 0.45750 0.64550 -0.08600
C 	C 	0.98620 0.52270 0.65090 -0.17000
H 	H 	0.92880 0.52480 0.63090 0.09000
C 	C 	0.99940 0.24260 0.67430 -0.14400
H 	H 	0.93370 0.25850 0.66510 0.08400
C 	C 	0.75890 0.36410 0.56140 0.14100
C 	C 	0.20850 0.34900 0.43970 0.12000
C 	C 	0.41820 0.44130 0.63370 -0.08100
C 	C 	0.58080 0.16670 0.73780 0.37300
C 	C 	0.60510 0.19620 0.71650 -0.15500
C 	C 	0.21860 0.37950 0.38820 0.08500
H 	H 	0.24320 0.39960 0.37780 0.01500
C 	C 	0.14030 0.31890 0.38760 0.11400
H 	H 	0.10940 0.29850 0.37620 0.00200
C 	C 	0.16140 0.34950 0.36890 -0.17600
C 	C 	0.65560 0.25740 0.70870 -0.15000
H 	H 	0.67600 0.27970 0.71770 0.08000
C 	C 	0.20720 0.38030 0.49260 0.05800
H 	H 	0.18830 0.40120 0.48090 0.00600
C 	C 	0.09160 0.30640 0.59350 -0.14900
H 	H 	0.02670 0.31340 0.57600 0.08600
C 	C 	0.64710 0.31860 0.66320 0.01200
H 	H 	0.62040 0.32290 0.68330 0.02200
C 	C 	0.83030 0.39840 0.61350 0.13400
C 	C 	0.23650 0.35190 0.54500 0.15300
C 	C 	0.28930 0.28580 0.64640 0.01300
H 	H 	0.35360 0.27940 0.66430 0.02900
C 	C 	0.24560 0.31990 0.52870 -0.16100
H 	H 	0.25570 0.29920 0.54090 0.08900
C 	C 	0.61350 0.52740 0.69160 -0.19200
C 	C 	0.67750 0.34570 0.64420 -0.13700
H 	H 	0.66560 0.36870 0.65080 0.08100
C 	C 	0.16680 0.51540 0.70900 0.09600
H 	H 	0.22750 0.51200 0.72840 -0.00500
C 	C 	0.24000 0.31800 0.49400 0.03300
H 	H 	0.24750 0.29630 0.48390 0.01600
C 	C 	0.21760 0.38150 0.52500 -0.18200
H 	H 	0.21190 0.40340 0.53490 0.09500
C 	C 	0.69100 0.27770 0.62170 0.02200
H 	H 	0.68850 0.25470 0.61360 0.01900
C 	C 	0.69400 0.36160 0.34860 0.42400
C 	C 	0.10780 0.48830 0.69180 -0.18800
H 	H 	0.13060 0.46590 0.70000 0.09200
C 	C 	0.59020 0.36610 0.40090 0.07400
H 	H 	0.50560 0.36750 0.38810 0.03100
C 	C 	0.85930 0.37530 0.54510 -0.16100
H 	H 	0.93760 0.38390 0.55770 0.09100
C 	C 	0.23170 0.39940 0.61960 -0.15100
H 	H 	0.14900 0.39080 0.62270 0.09100
C 	C 	0.85150 0.37470 0.51160 0.03400
H 	H 	0.92450 0.38210 0.50250 0.01900
C 	C 	0.63380 0.25370 0.67460 0.08600
C 	C 	0.22280 0.34960 0.47480 -0.09000
C 	C 	0.88030 0.45940 0.61410 0.04700
H 	H 	0.86900 0.48130 0.60380 0.01000
C 	C 	0.96200 0.42480 0.66010 0.03400
H 	H 	0.00340 0.42300 0.68190 0.01400
C 	C 	0.48580 0.47200 0.65310 0.14200
C 	C 	0.82500 0.35830 0.40620 0.07900
H 	H 	0.90100 0.35410 0.39700 0.01600
C 	C 	0.03800 0.55360 0.66730 0.07400
H 	H 	0.01010 0.57570 0.65900 -0.00200
C 	C 	0.83720 0.35910 0.43970 -0.15800
H 	H 	0.92150 0.35770 0.45270 0.08900
C 	C 	0.72250 0.36210 0.45490 0.10800
C 	C 	0.03440 0.16820 0.73750 0.41100
C 	C 	0.82230 0.43100 0.59810 -0.16900
H 	H 	0.77680 0.43320 0.57660 0.09200
C 	C 	0.60180 0.36670 0.43560 -0.15600
H 	H 	0.52630 0.37030 0.44520 0.08800
C 	C 	0.18860 0.19410 0.70000 0.06700
H 	H 	0.24810 0.17600 0.70740 0.02400
C 	C 	0.57330 0.19170 0.68120 0.07100
H 	H 	0.54630 0.16990 0.67200 0.01200
C 	C 	0.12700 0.24300 0.66420 0.08300
C 	C 	0.61890 0.47080 0.66380 -0.19000
H 	H 	0.66700 0.45140 0.65840 0.09900
C 	C 	0.06100 0.19490 0.71170 -0.14100
C 	C 	0.31290 0.31180 0.62390 -0.14400
H 	H 	0.39750 0.32190 0.62620 0.08800
C 	C 	0.06500 0.28050 0.61350 0.02000
H 	H 	0.98210 0.26940 0.60990 0.02300
C 	C 	0.23670 0.37800 0.42330 -0.17200
H 	H 	0.26940 0.39780 0.43530 0.08800
C 	C 	0.90980 0.39390 0.64420 -0.16200
H 	H 	0.92720 0.37170 0.65360 0.09000
C 	C 	0.64160 0.35090 0.54200 -0.15100
H 	H 	0.57230 0.34210 0.55170 0.08500
C 	C 	0.41330 0.49910 0.66030 -0.19200
H 	H 	0.32200 0.50000 0.65230 0.10500
C 	C 	0.16350 0.27020 0.64010 -0.04900
C 	C 	0.97280 0.21870 0.69770 0.07600
H 	H 	0.88910 0.21930 0.70390 0.01900
C 	C 	0.21580 0.32300 0.59890 0.13000
C 	C 	0.29490 0.42870 0.63850 0.02800
H 	H 	0.25230 0.43920 0.65420 0.02100
C 	C 	0.47530 0.42640 0.60870 0.04100
H 	H 	0.55500 0.43540 0.60400 0.01700
C 	C 	0.22550 0.21820 0.67910 -0.14200
H 	H 	0.31200 0.21860 0.67460 0.08700
C 	C 	0.19500 0.58360 0.71310 0.36100
C 	C 	0.01670 0.49020 0.66320 0.12600
C 	C 	0.68720 0.49820 0.68320 0.10400
H 	H 	0.77910 0.49700 0.69020 0.00800
C 	C 	0.68310 0.55610 0.71100 0.42700
C 	C 	0.12800 0.35160 0.33500 0.40500
C 	C 	0.13220 0.55040 0.69610 -0.19000
C 	C 	0.47830 0.52740 0.68090 0.11100
H 	H 	0.42700 0.54580 0.68680 -0.00300
C 	C 	0.63130 0.35140 0.50750 0.02000
H 	H 	0.55210 0.34360 0.49480 0.02500
O 	O 	0.35760 0.15640 0.78499 -1.18100
H 	H 	0.35600 0.14900 0.77300 0.86300
