data_crystal

_cell_length_a 37.47500
_cell_length_b 13.32700
_cell_length_c 15.99410
_cell_angle_alpha 90.00000
_cell_angle_beta  90.00000
_cell_angle_gamma 90.00000

_symmetry_space_group_name_	'P 1'
_symmetry_space_group_name_H-M	'P 1'

loop_
_symmetry_equiv_pos_as_xyz
  x,y,z

loop_
_atom_site_label
_atom_site_type_symbol
_atom_site_fract_x
_atom_site_fract_y
_atom_site_fract_z
_atom_site_charge
Mn	Mn	0.97164 0.13597 0.13880 1.24700
C 	C 	0.74608 0.87710 0.93520 0.16000
C 	C 	0.68552 0.87250 0.83410 -0.09700
C 	C 	0.80996 0.23280 0.17690 0.14000
C 	C 	0.83798 0.62890 0.05000 -0.07400
C 	C 	0.80019 0.14640 0.12480 -0.09700
C 	C 	0.73760 0.95910 0.88500 -0.17500
H 	H 	0.75230 0.01540 0.88400 0.10500
C 	C 	0.69410 0.79190 0.88280 0.05200
H 	H 	0.67950 0.73540 0.88240 0.02900
C 	C 	0.80355 0.72770 0.95050 -0.14100
H 	H 	0.79460 0.73490 0.89660 0.08900
C 	C 	0.87470 0.36720 0.04740 0.06100
H 	H 	0.86930 0.30560 0.02320 0.01800
C 	C 	0.85966 0.54170 0.06960 0.10700
C 	C 	0.58485 0.89340 0.70610 -0.20600
C 	C 	0.64999 0.87740 0.78580 0.16300
C 	C 	0.90511 0.37640 0.09790 -0.11500
C 	C 	0.72439 0.79360 0.93270 -0.17400
H 	H 	0.73010 0.73780 0.96490 0.10300
C 	C 	0.79637 0.79800 0.00970 0.12700
C 	C 	0.91154 0.46790 0.13750 0.05700
H 	H 	0.93070 0.47420 0.17400 0.02800
C 	C 	0.80070 0.39900 0.23150 0.11000
H 	H 	0.78600 0.45510 0.23510 0.00300
C 	C 	0.78927 0.31580 0.18760 -0.19200
H 	H 	0.76650 0.31650 0.16440 0.09900
C 	C 	0.70691 0.95540 0.83630 0.05300
H 	H 	0.70080 0.01100 0.80430 0.00800
C 	C 	0.76569 0.10960 0.12280 0.04700
H 	H 	0.74800 0.14160 0.15370 0.01800
C 	C 	0.85240 0.45040 0.03290 -0.16600
H 	H 	0.83260 0.44370 0.99820 0.09900
C 	C 	0.88947 0.54940 0.12250 -0.14400
H 	H 	0.89450 0.61040 0.14810 0.08600
C 	C 	0.59130 0.81680 0.76150 0.13300
H 	H 	0.57360 0.77030 0.77360 -0.01000
C 	C 	0.82975 0.70200 0.11040 0.02600
H 	H 	0.83830 0.69450 0.16460 0.03400
C 	C 	0.78226 0.97500 0.03310 0.14100
C 	C 	0.80930 0.78440 0.09100 -0.14500
H 	H 	0.80400 0.83140 0.13220 0.08700
C 	C 	0.54810 0.90820 0.66920 0.38300
C 	C 	0.92860 0.28740 0.11290 0.29800
C 	C 	0.84270 0.23510 0.21810 -0.19500
H 	H 	0.85740 0.17910 0.21440 0.09600
C 	C 	0.83350 0.39990 0.26990 -0.17900
C 	C 	0.82506 0.64220 0.97150 0.03400
H 	H 	0.83020 0.59500 0.93050 0.02000
C 	C 	0.62429 0.80950 0.79890 -0.22300
H 	H 	0.62880 0.75580 0.83440 0.11300
C 	C 	0.85410 0.31470 0.26320 0.12600
H 	H 	0.87610 0.31190 0.28990 0.00600
C 	C 	0.81787 0.01430 0.03270 -0.16400
H 	H 	0.83580 0.98290 0.00230 0.09900
C 	C 	0.82462 0.09700 0.07690 0.04800
H 	H 	0.84770 0.12280 0.07490 0.02000
C 	C 	0.61090 0.96050 0.68930 0.12600
H 	H 	0.60730 0.01180 0.65080 -0.02000
C 	C 	0.84410 0.49260 0.31450 0.42600
C 	C 	0.75702 0.02630 0.07590 -0.17300
H 	H 	0.73340 0.00510 0.07360 0.09400
C 	C 	0.64323 0.95090 0.73080 -0.22000
H 	H 	0.66110 0.99770 0.72000 0.10500
O 	O 	0.91899 0.20180 0.09060 -0.40700
O 	O 	0.95823 0.30160 0.15110 -0.39700
O 	O 	0.54299 0.98380 0.62240 -0.51900
O 	O 	0.52473 0.84110 0.68110 -0.47600
O 	O 	0.87538 0.47630 0.35250 -0.48900
H 	H 	0.88200 0.52800 0.37550 0.27500
O 	O 	0.82884 0.56820 0.31730 -0.32800
N 	N 	0.77557 0.88320 0.98940 -0.17100
Mn	Mn	0.02836 0.86403 0.13880 1.24600
C 	C 	0.25392 0.12290 0.93520 0.15900
C 	C 	0.31448 0.12750 0.83410 -0.09800
C 	C 	0.19004 0.76720 0.17690 0.13900
C 	C 	0.16202 0.37110 0.05000 -0.07500
C 	C 	0.19981 0.85360 0.12480 -0.09800
C 	C 	0.26240 0.04090 0.88500 -0.17500
H 	H 	0.24770 0.98460 0.88400 0.10500
C 	C 	0.30590 0.20810 0.88280 0.05200
H 	H 	0.32050 0.26460 0.88240 0.02900
C 	C 	0.19645 0.27230 0.95050 -0.14100
H 	H 	0.20540 0.26510 0.89660 0.08900
C 	C 	0.12530 0.63280 0.04740 0.06100
H 	H 	0.13070 0.69440 0.02320 0.01800
C 	C 	0.14034 0.45830 0.06960 0.10700
C 	C 	0.41515 0.10660 0.70610 -0.20600
C 	C 	0.35001 0.12260 0.78580 0.16300
C 	C 	0.09489 0.62360 0.09790 -0.11500
C 	C 	0.27561 0.20640 0.93270 -0.17400
H 	H 	0.26990 0.26220 0.96490 0.10300
C 	C 	0.20363 0.20200 0.00970 0.12700
C 	C 	0.08846 0.53210 0.13750 0.05700
H 	H 	0.06930 0.52580 0.17400 0.02800
C 	C 	0.19930 0.60100 0.23150 0.11000
H 	H 	0.21400 0.54490 0.23510 0.00300
C 	C 	0.21073 0.68420 0.18760 -0.19200
H 	H 	0.23350 0.68350 0.16440 0.09900
C 	C 	0.29309 0.04460 0.83630 0.05300
H 	H 	0.29920 0.98900 0.80430 0.00800
C 	C 	0.23431 0.89040 0.12280 0.04700
H 	H 	0.25200 0.85840 0.15370 0.01800
C 	C 	0.14760 0.54960 0.03290 -0.16600
H 	H 	0.16740 0.55630 0.99820 0.09900
C 	C 	0.11053 0.45060 0.12250 -0.14400
H 	H 	0.10550 0.38960 0.14810 0.08600
C 	C 	0.40870 0.18320 0.76150 0.13300
H 	H 	0.42640 0.22970 0.77360 -0.01000
C 	C 	0.17025 0.29800 0.11040 0.02600
H 	H 	0.16170 0.30550 0.16460 0.03400
C 	C 	0.21774 0.02500 0.03310 0.14100
C 	C 	0.19070 0.21560 0.09100 -0.14500
H 	H 	0.19600 0.16860 0.13220 0.08700
C 	C 	0.45190 0.09180 0.66920 0.38300
C 	C 	0.07140 0.71260 0.11290 0.29800
C 	C 	0.15730 0.76490 0.21810 -0.19500
H 	H 	0.14260 0.82090 0.21440 0.09600
C 	C 	0.16650 0.60010 0.26990 -0.17900
C 	C 	0.17494 0.35780 0.97150 0.03400
H 	H 	0.16980 0.40500 0.93050 0.02000
C 	C 	0.37571 0.19050 0.79890 -0.22300
H 	H 	0.37120 0.24420 0.83440 0.11300
C 	C 	0.14590 0.68530 0.26320 0.12600
H 	H 	0.12390 0.68810 0.28990 0.00600
C 	C 	0.18213 0.98570 0.03270 -0.16400
H 	H 	0.16420 0.01710 0.00230 0.09900
C 	C 	0.17538 0.90300 0.07690 0.04800
H 	H 	0.15230 0.87720 0.07490 0.02000
C 	C 	0.38910 0.03950 0.68930 0.12600
H 	H 	0.39270 0.98820 0.65080 -0.02000
C 	C 	0.15590 0.50740 0.31450 0.42600
C 	C 	0.24298 0.97370 0.07590 -0.17300
H 	H 	0.26660 0.99490 0.07360 0.09400
C 	C 	0.35677 0.04910 0.73080 -0.22000
H 	H 	0.33890 0.00230 0.72000 0.10500
O 	O 	0.08101 0.79820 0.09060 -0.40700
O 	O 	0.04177 0.69840 0.15110 -0.39700
O 	O 	0.45701 0.01620 0.62240 -0.51900
O 	O 	0.47527 0.15890 0.68110 -0.47600
O 	O 	0.12462 0.52370 0.35250 -0.48900
H 	H 	0.11800 0.47200 0.37550 0.27500
O 	O 	0.17116 0.43180 0.31730 -0.32800
N 	N 	0.22443 0.11680 0.98940 -0.17100
Mn	Mn	0.47164 0.86403 0.63880 1.24700
C 	C 	0.24608 0.12290 0.43520 0.15800
C 	C 	0.18552 0.12750 0.33410 -0.09900
C 	C 	0.30996 0.76720 0.67690 0.14300
C 	C 	0.33798 0.37110 0.55000 -0.05700
C 	C 	0.30019 0.85360 0.62480 -0.10300
C 	C 	0.23760 0.04090 0.38500 -0.17600
H 	H 	0.25230 0.98460 0.38400 0.10400
C 	C 	0.19410 0.20810 0.38280 0.05100
H 	H 	0.17950 0.26460 0.38240 0.02700
C 	C 	0.30355 0.27230 0.45050 -0.15200
H 	H 	0.29460 0.26510 0.39660 0.09200
C 	C 	0.37470 0.63280 0.54740 0.04200
H 	H 	0.36930 0.69440 0.52320 0.02700
C 	C 	0.35966 0.45830 0.56960 0.08800
C 	C 	0.08485 0.10660 0.20610 -0.20700
C 	C 	0.14999 0.12260 0.28580 0.16300
C 	C 	0.40511 0.62360 0.59790 -0.10300
C 	C 	0.22439 0.20640 0.43270 -0.17500
H 	H 	0.23010 0.26220 0.46490 0.10000
C 	C 	0.29637 0.20200 0.50970 0.14300
C 	C 	0.41154 0.53210 0.63750 0.04500
H 	H 	0.43070 0.52580 0.67400 0.03300
C 	C 	0.30070 0.60100 0.73150 0.11200
H 	H 	0.28600 0.54490 0.73510 0.00200
C 	C 	0.28927 0.68420 0.68760 -0.19400
H 	H 	0.26650 0.68350 0.66440 0.10000
C 	C 	0.20691 0.04460 0.33630 0.05300
H 	H 	0.20080 0.98900 0.30430 0.00800
C 	C 	0.26569 0.89040 0.62280 0.05500
H 	H 	0.24800 0.85840 0.65370 0.01600
C 	C 	0.35240 0.54960 0.53290 -0.13300
H 	H 	0.33260 0.55630 0.49820 0.08100
C 	C 	0.38947 0.45060 0.62250 -0.12900
H 	H 	0.39450 0.38960 0.64810 0.08200
C 	C 	0.09130 0.18320 0.26150 0.13400
H 	H 	0.07360 0.22970 0.27360 -0.01100
C 	C 	0.32975 0.29800 0.61040 0.02200
H 	H 	0.33830 0.30550 0.66460 0.03600
C 	C 	0.28226 0.02500 0.53310 0.15400
C 	C 	0.30930 0.21560 0.59100 -0.14800
H 	H 	0.30400 0.16860 0.63220 0.08800
C 	C 	0.04810 0.09180 0.16920 0.38300
C 	C 	0.42860 0.71260 0.61290 0.29400
C 	C 	0.34270 0.76490 0.71810 -0.19800
H 	H 	0.35740 0.82090 0.71440 0.09700
C 	C 	0.33350 0.60010 0.76990 -0.18000
C 	C 	0.32506 0.35780 0.47150 0.02000
H 	H 	0.33020 0.40500 0.43050 0.02400
C 	C 	0.12429 0.19050 0.29890 -0.22400
H 	H 	0.12880 0.24420 0.33440 0.11200
C 	C 	0.35410 0.68530 0.76320 0.12700
H 	H 	0.37610 0.68810 0.78990 0.00600
C 	C 	0.31787 0.98570 0.53270 -0.17200
H 	H 	0.33580 0.01710 0.50230 0.10400
C 	C 	0.32462 0.90300 0.57690 0.05600
H 	H 	0.34770 0.87720 0.57490 0.01800
C 	C 	0.11090 0.03950 0.18930 0.12600
H 	H 	0.10730 0.98820 0.15080 -0.02000
C 	C 	0.34410 0.50740 0.81450 0.42700
C 	C 	0.25702 0.97370 0.57590 -0.18200
H 	H 	0.23340 0.99490 0.57360 0.09900
C 	C 	0.14323 0.04910 0.23080 -0.22100
H 	H 	0.16110 0.00230 0.22000 0.10600
O 	O 	0.41899 0.79820 0.59060 -0.40500
O 	O 	0.45823 0.69840 0.65110 -0.39400
O 	O 	0.04299 0.01620 0.12240 -0.52100
O 	O 	0.02473 0.15890 0.18110 -0.47700
O 	O 	0.37538 0.52370 0.85250 -0.48800
H 	H 	0.38200 0.47200 0.87550 0.27600
O 	O 	0.32884 0.43180 0.81730 -0.32700
N 	N 	0.27557 0.11680 0.48940 -0.18100
Mn	Mn	0.52836 0.13597 0.63880 1.24700
C 	C 	0.75392 0.87710 0.43520 0.15800
C 	C 	0.81448 0.87250 0.33410 -0.09900
C 	C 	0.69004 0.23280 0.67690 0.14300
C 	C 	0.66202 0.62890 0.55000 -0.05700
C 	C 	0.69981 0.14640 0.62480 -0.10300
C 	C 	0.76240 0.95910 0.38500 -0.17600
H 	H 	0.74770 0.01540 0.38400 0.10400
C 	C 	0.80590 0.79190 0.38280 0.05100
H 	H 	0.82050 0.73540 0.38240 0.02700
C 	C 	0.69645 0.72770 0.45050 -0.15200
H 	H 	0.70540 0.73490 0.39660 0.09200
C 	C 	0.62530 0.36720 0.54740 0.04200
H 	H 	0.63070 0.30560 0.52320 0.02700
C 	C 	0.64034 0.54170 0.56960 0.08800
C 	C 	0.91515 0.89340 0.20610 -0.20700
C 	C 	0.85001 0.87740 0.28580 0.16300
C 	C 	0.59489 0.37640 0.59790 -0.10300
C 	C 	0.77561 0.79360 0.43270 -0.17500
H 	H 	0.76990 0.73780 0.46490 0.10000
C 	C 	0.70363 0.79800 0.50970 0.14300
C 	C 	0.58846 0.46790 0.63750 0.04500
H 	H 	0.56930 0.47420 0.67400 0.03300
C 	C 	0.69930 0.39900 0.73150 0.11200
H 	H 	0.71400 0.45510 0.73510 0.00200
C 	C 	0.71073 0.31580 0.68760 -0.19400
H 	H 	0.73350 0.31650 0.66440 0.10000
C 	C 	0.79309 0.95540 0.33630 0.05300
H 	H 	0.79920 0.01100 0.30430 0.00800
C 	C 	0.73431 0.10960 0.62280 0.05500
H 	H 	0.75200 0.14160 0.65370 0.01600
C 	C 	0.64760 0.45040 0.53290 -0.13300
H 	H 	0.66740 0.44370 0.49820 0.08100
C 	C 	0.61053 0.54940 0.62250 -0.12900
H 	H 	0.60550 0.61040 0.64810 0.08200
C 	C 	0.90870 0.81680 0.26150 0.13400
H 	H 	0.92640 0.77030 0.27360 -0.01100
C 	C 	0.67025 0.70200 0.61040 0.02200
H 	H 	0.66170 0.69450 0.66460 0.03600
C 	C 	0.71774 0.97500 0.53310 0.15400
C 	C 	0.69070 0.78440 0.59100 -0.14800
H 	H 	0.69600 0.83140 0.63220 0.08800
C 	C 	0.95190 0.90820 0.16920 0.38300
C 	C 	0.57140 0.28740 0.61290 0.29400
C 	C 	0.65730 0.23510 0.71810 -0.19800
H 	H 	0.64260 0.17910 0.71440 0.09700
C 	C 	0.66650 0.39990 0.76990 -0.18000
C 	C 	0.67494 0.64220 0.47150 0.02000
H 	H 	0.66980 0.59500 0.43050 0.02400
C 	C 	0.87571 0.80950 0.29890 -0.22400
H 	H 	0.87120 0.75580 0.33440 0.11200
C 	C 	0.64590 0.31470 0.76320 0.12700
H 	H 	0.62390 0.31190 0.78990 0.00600
C 	C 	0.68213 0.01430 0.53270 -0.17200
H 	H 	0.66420 0.98290 0.50230 0.10400
C 	C 	0.67538 0.09700 0.57690 0.05600
H 	H 	0.65230 0.12280 0.57490 0.01800
C 	C 	0.88910 0.96050 0.18930 0.12600
H 	H 	0.89270 0.01180 0.15080 -0.02000
C 	C 	0.65590 0.49260 0.81450 0.42700
C 	C 	0.74298 0.02630 0.57590 -0.18200
H 	H 	0.76660 0.00510 0.57360 0.09900
C 	C 	0.85677 0.95090 0.23080 -0.22100
H 	H 	0.83890 0.99770 0.22000 0.10600
O 	O 	0.58101 0.20180 0.59060 -0.40500
O 	O 	0.54177 0.30160 0.65110 -0.39400
O 	O 	0.95701 0.98380 0.12240 -0.52100
O 	O 	0.97527 0.84110 0.18110 -0.47700
O 	O 	0.62462 0.47630 0.85250 -0.48800
H 	H 	0.61800 0.52800 0.87550 0.27600
O 	O 	0.67116 0.56820 0.81730 -0.32700
N 	N 	0.72443 0.88320 0.48940 -0.18100
Mn	Mn	0.97164 0.63597 0.63880 1.24700
C 	C 	0.74608 0.37710 0.43520 0.15800
C 	C 	0.68552 0.37250 0.33410 -0.09900
C 	C 	0.80996 0.73280 0.67690 0.14200
C 	C 	0.83798 0.12890 0.55000 -0.05700
C 	C 	0.80019 0.64640 0.62480 -0.10300
C 	C 	0.73760 0.45910 0.38500 -0.17600
H 	H 	0.75230 0.51540 0.38400 0.10400
C 	C 	0.69410 0.29190 0.38280 0.05100
H 	H 	0.67950 0.23540 0.38240 0.02700
C 	C 	0.80355 0.22770 0.45050 -0.15200
H 	H 	0.79460 0.23490 0.39660 0.09200
C 	C 	0.87470 0.86720 0.54740 0.04200
H 	H 	0.86930 0.80560 0.52320 0.02700
C 	C 	0.85966 0.04170 0.56960 0.08800
C 	C 	0.58485 0.39340 0.20610 -0.20700
C 	C 	0.64999 0.37740 0.28580 0.16300
C 	C 	0.90511 0.87640 0.59790 -0.10300
C 	C 	0.72439 0.29360 0.43270 -0.17500
H 	H 	0.73010 0.23780 0.46490 0.10000
C 	C 	0.79637 0.29800 0.50970 0.14300
C 	C 	0.91154 0.96790 0.63750 0.04500
H 	H 	0.93070 0.97420 0.67400 0.03300
C 	C 	0.80070 0.89900 0.73150 0.11200
H 	H 	0.78600 0.95510 0.73510 0.00300
C 	C 	0.78927 0.81580 0.68760 -0.19400
H 	H 	0.76650 0.81650 0.66440 0.10000
C 	C 	0.70691 0.45540 0.33630 0.05300
H 	H 	0.70080 0.51100 0.30430 0.00800
C 	C 	0.76569 0.60960 0.62280 0.05400
H 	H 	0.74800 0.64160 0.65370 0.01600
C 	C 	0.85240 0.95040 0.53290 -0.13300
H 	H 	0.83260 0.94370 0.49820 0.08100
C 	C 	0.88947 0.04940 0.62250 -0.12900
H 	H 	0.89450 0.11040 0.64810 0.08200
C 	C 	0.59130 0.31680 0.26150 0.13300
H 	H 	0.57360 0.27030 0.27360 -0.01100
C 	C 	0.82975 0.20200 0.61040 0.02200
H 	H 	0.83830 0.19450 0.66460 0.03600
C 	C 	0.78226 0.47500 0.53310 0.15300
C 	C 	0.80930 0.28440 0.59100 -0.14800
H 	H 	0.80400 0.33140 0.63220 0.08800
C 	C 	0.54810 0.40820 0.16920 0.38300
C 	C 	0.92860 0.78740 0.61290 0.29400
C 	C 	0.84270 0.73510 0.71810 -0.19700
H 	H 	0.85740 0.67910 0.71440 0.09700
C 	C 	0.83350 0.89990 0.76990 -0.18000
C 	C 	0.82506 0.14220 0.47150 0.02000
H 	H 	0.83020 0.09500 0.43050 0.02400
C 	C 	0.62429 0.30950 0.29890 -0.22400
H 	H 	0.62880 0.25580 0.33440 0.11200
C 	C 	0.85410 0.81470 0.76320 0.12700
H 	H 	0.87610 0.81190 0.78990 0.00600
C 	C 	0.81787 0.51430 0.53270 -0.17100
H 	H 	0.83580 0.48290 0.50230 0.10400
C 	C 	0.82462 0.59700 0.57690 0.05600
H 	H 	0.84770 0.62280 0.57490 0.01800
C 	C 	0.61090 0.46050 0.18930 0.12600
H 	H 	0.60730 0.51180 0.15080 -0.02000
C 	C 	0.84410 0.99260 0.81450 0.42700
C 	C 	0.75702 0.52630 0.57590 -0.18100
H 	H 	0.73340 0.50510 0.57360 0.09900
C 	C 	0.64323 0.45090 0.23080 -0.22000
H 	H 	0.66110 0.49770 0.22000 0.10600
O 	O 	0.91899 0.70180 0.59060 -0.40500
O 	O 	0.95823 0.80160 0.65110 -0.39400
O 	O 	0.54299 0.48380 0.12240 -0.52100
O 	O 	0.52473 0.34110 0.18110 -0.47700
O 	O 	0.87538 0.97630 0.85250 -0.48800
H 	H 	0.88200 0.02800 0.87550 0.27600
O 	O 	0.82884 0.06820 0.81730 -0.32700
N 	N 	0.77557 0.38320 0.48940 -0.18100
Mn	Mn	0.02836 0.36403 0.63880 1.24700
C 	C 	0.25392 0.62290 0.43520 0.15800
C 	C 	0.31448 0.62750 0.33410 -0.09900
C 	C 	0.19004 0.26720 0.67690 0.14200
C 	C 	0.16202 0.87110 0.55000 -0.05700
C 	C 	0.19981 0.35360 0.62480 -0.10300
C 	C 	0.26240 0.54090 0.38500 -0.17600
H 	H 	0.24770 0.48460 0.38400 0.10400
C 	C 	0.30590 0.70810 0.38280 0.05100
H 	H 	0.32050 0.76460 0.38240 0.02700
C 	C 	0.19645 0.77230 0.45050 -0.15200
H 	H 	0.20540 0.76510 0.39660 0.09200
C 	C 	0.12530 0.13280 0.54740 0.04200
H 	H 	0.13070 0.19440 0.52320 0.02700
C 	C 	0.14034 0.95830 0.56960 0.08800
C 	C 	0.41515 0.60660 0.20610 -0.20700
C 	C 	0.35001 0.62260 0.28580 0.16300
C 	C 	0.09489 0.12360 0.59790 -0.10300
C 	C 	0.27561 0.70640 0.43270 -0.17500
H 	H 	0.26990 0.76220 0.46490 0.10000
C 	C 	0.20363 0.70200 0.50970 0.14300
C 	C 	0.08846 0.03210 0.63750 0.04500
H 	H 	0.06930 0.02580 0.67400 0.03300
C 	C 	0.19930 0.10100 0.73150 0.11200
H 	H 	0.21400 0.04490 0.73510 0.00300
C 	C 	0.21073 0.18420 0.68760 -0.19400
H 	H 	0.23350 0.18350 0.66440 0.10000
C 	C 	0.29309 0.54460 0.33630 0.05300
H 	H 	0.29920 0.48900 0.30430 0.00800
C 	C 	0.23431 0.39040 0.62280 0.05400
H 	H 	0.25200 0.35840 0.65370 0.01600
C 	C 	0.14760 0.04960 0.53290 -0.13300
H 	H 	0.16740 0.05630 0.49820 0.08100
C 	C 	0.11053 0.95060 0.62250 -0.12900
H 	H 	0.10550 0.88960 0.64810 0.08200
C 	C 	0.40870 0.68320 0.26150 0.13300
H 	H 	0.42640 0.72970 0.27360 -0.01100
C 	C 	0.17025 0.79800 0.61040 0.02200
H 	H 	0.16170 0.80550 0.66460 0.03600
C 	C 	0.21774 0.52500 0.53310 0.15300
C 	C 	0.19070 0.71560 0.59100 -0.14800
H 	H 	0.19600 0.66860 0.63220 0.08800
C 	C 	0.45190 0.59180 0.16920 0.38300
C 	C 	0.07140 0.21260 0.61290 0.29400
C 	C 	0.15730 0.26490 0.71810 -0.19700
H 	H 	0.14260 0.32090 0.71440 0.09700
C 	C 	0.16650 0.10010 0.76990 -0.18000
C 	C 	0.17494 0.85780 0.47150 0.02000
H 	H 	0.16980 0.90500 0.43050 0.02400
C 	C 	0.37571 0.69050 0.29890 -0.22400
H 	H 	0.37120 0.74420 0.33440 0.11200
C 	C 	0.14590 0.18530 0.76320 0.12700
H 	H 	0.12390 0.18810 0.78990 0.00600
C 	C 	0.18213 0.48570 0.53270 -0.17100
H 	H 	0.16420 0.51710 0.50230 0.10400
C 	C 	0.17538 0.40300 0.57690 0.05600
H 	H 	0.15230 0.37720 0.57490 0.01800
C 	C 	0.38910 0.53950 0.18930 0.12600
H 	H 	0.39270 0.48820 0.15080 -0.02000
C 	C 	0.15590 0.00740 0.81450 0.42700
C 	C 	0.24298 0.47370 0.57590 -0.18100
H 	H 	0.26660 0.49490 0.57360 0.09900
C 	C 	0.35677 0.54910 0.23080 -0.22000
H 	H 	0.33890 0.50230 0.22000 0.10600
O 	O 	0.08101 0.29820 0.59060 -0.40500
O 	O 	0.04177 0.19840 0.65110 -0.39400
O 	O 	0.45701 0.51620 0.12240 -0.52100
O 	O 	0.47527 0.65890 0.18110 -0.47700
O 	O 	0.12462 0.02370 0.85250 -0.48800
H 	H 	0.11800 0.97200 0.87550 0.27600
O 	O 	0.17116 0.93180 0.81730 -0.32700
N 	N 	0.22443 0.61680 0.48940 -0.18100
Mn	Mn	0.47164 0.36403 0.13880 1.24600
C 	C 	0.24608 0.62290 0.93520 0.15900
C 	C 	0.18552 0.62750 0.83410 -0.09800
C 	C 	0.30996 0.26720 0.17690 0.13800
C 	C 	0.33798 0.87110 0.05000 -0.07500
C 	C 	0.30019 0.35360 0.12480 -0.09800
C 	C 	0.23760 0.54090 0.88500 -0.17500
H 	H 	0.25230 0.48460 0.88400 0.10500
C 	C 	0.19410 0.70810 0.88280 0.05200
H 	H 	0.17950 0.76460 0.88240 0.02900
C 	C 	0.30355 0.77230 0.95050 -0.14000
H 	H 	0.29460 0.76510 0.89660 0.08900
C 	C 	0.37470 0.13280 0.04740 0.06100
H 	H 	0.36930 0.19440 0.02320 0.01800
C 	C 	0.35966 0.95830 0.06960 0.10700
C 	C 	0.08485 0.60660 0.70610 -0.20600
C 	C 	0.14999 0.62260 0.78580 0.16300
C 	C 	0.40511 0.12360 0.09790 -0.11500
C 	C 	0.22439 0.70640 0.93270 -0.17400
H 	H 	0.23010 0.76220 0.96490 0.10300
C 	C 	0.29637 0.70200 0.00970 0.12700
C 	C 	0.41154 0.03210 0.13750 0.05700
H 	H 	0.43070 0.02580 0.17400 0.02800
C 	C 	0.30070 0.10100 0.23150 0.11000
H 	H 	0.28600 0.04490 0.23510 0.00300
C 	C 	0.28927 0.18420 0.18760 -0.19200
H 	H 	0.26650 0.18350 0.16440 0.09900
C 	C 	0.20691 0.54460 0.83630 0.05300
H 	H 	0.20080 0.48900 0.80430 0.00800
C 	C 	0.26569 0.39040 0.12280 0.04600
H 	H 	0.24800 0.35840 0.15370 0.01800
C 	C 	0.35240 0.04960 0.03290 -0.16600
H 	H 	0.33260 0.05630 0.99820 0.09900
C 	C 	0.38947 0.95060 0.12250 -0.14400
H 	H 	0.39450 0.88960 0.14810 0.08600
C 	C 	0.09130 0.68320 0.76150 0.13300
H 	H 	0.07360 0.72970 0.77360 -0.01000
C 	C 	0.32975 0.79800 0.11040 0.02600
H 	H 	0.33830 0.80550 0.16460 0.03400
C 	C 	0.28226 0.52500 0.03310 0.14000
C 	C 	0.30930 0.71560 0.09100 -0.14500
H 	H 	0.30400 0.66860 0.13220 0.08700
C 	C 	0.04810 0.59180 0.66920 0.38300
C 	C 	0.42860 0.21260 0.11290 0.29800
C 	C 	0.34270 0.26490 0.21810 -0.19500
H 	H 	0.35740 0.32090 0.21440 0.09500
C 	C 	0.33350 0.10010 0.26990 -0.17900
C 	C 	0.32506 0.85780 0.97150 0.03300
H 	H 	0.33020 0.90500 0.93050 0.02000
C 	C 	0.12429 0.69050 0.79890 -0.22300
H 	H 	0.12880 0.74420 0.83440 0.11300
C 	C 	0.35410 0.18530 0.26320 0.12500
H 	H 	0.37610 0.18810 0.28990 0.00600
C 	C 	0.31787 0.48570 0.03270 -0.16300
H 	H 	0.33580 0.51710 0.00230 0.09900
C 	C 	0.32462 0.40300 0.07690 0.04700
H 	H 	0.34770 0.37720 0.07490 0.02100
C 	C 	0.11090 0.53950 0.68930 0.12600
H 	H 	0.10730 0.48820 0.65080 -0.01900
C 	C 	0.34410 0.00740 0.31450 0.42600
C 	C 	0.25702 0.47370 0.07590 -0.17300
H 	H 	0.23340 0.49490 0.07360 0.09400
C 	C 	0.14323 0.54910 0.73080 -0.22000
H 	H 	0.16110 0.50230 0.72000 0.10500
O 	O 	0.41899 0.29820 0.09060 -0.40700
O 	O 	0.45823 0.19840 0.15110 -0.39700
O 	O 	0.04299 0.51620 0.62240 -0.51900
O 	O 	0.02473 0.65890 0.68110 -0.47600
O 	O 	0.37538 0.02370 0.35250 -0.48900
H 	H 	0.38200 0.97200 0.37550 0.27400
O 	O 	0.32884 0.93180 0.31730 -0.32800
N 	N 	0.27557 0.61680 0.98940 -0.17100
Mn	Mn	0.52836 0.63597 0.13880 1.24600
C 	C 	0.75392 0.37710 0.93520 0.15900
C 	C 	0.81448 0.37250 0.83410 -0.09800
C 	C 	0.69004 0.73280 0.17690 0.13800
C 	C 	0.66202 0.12890 0.05000 -0.07500
C 	C 	0.69981 0.64640 0.12480 -0.09800
C 	C 	0.76240 0.45910 0.88500 -0.17500
H 	H 	0.74770 0.51540 0.88400 0.10500
C 	C 	0.80590 0.29190 0.88280 0.05200
H 	H 	0.82050 0.23540 0.88240 0.02900
C 	C 	0.69645 0.22770 0.95050 -0.14000
H 	H 	0.70540 0.23490 0.89660 0.08900
C 	C 	0.62530 0.86720 0.04740 0.06100
H 	H 	0.63070 0.80560 0.02320 0.01800
C 	C 	0.64034 0.04170 0.06960 0.10700
C 	C 	0.91515 0.39340 0.70610 -0.20600
C 	C 	0.85001 0.37740 0.78580 0.16300
C 	C 	0.59489 0.87640 0.09790 -0.11500
C 	C 	0.77561 0.29360 0.93270 -0.17400
H 	H 	0.76990 0.23780 0.96490 0.10300
C 	C 	0.70363 0.29800 0.00970 0.12700
C 	C 	0.58846 0.96790 0.13750 0.05700
H 	H 	0.56930 0.97420 0.17400 0.02800
C 	C 	0.69930 0.89900 0.23150 0.11000
H 	H 	0.71400 0.95510 0.23510 0.00300
C 	C 	0.71073 0.81580 0.18760 -0.19200
H 	H 	0.73350 0.81650 0.16440 0.09900
C 	C 	0.79309 0.45540 0.83630 0.05300
H 	H 	0.79920 0.51100 0.80430 0.00800
C 	C 	0.73431 0.60960 0.12280 0.04600
H 	H 	0.75200 0.64160 0.15370 0.01800
C 	C 	0.64760 0.95040 0.03290 -0.16600
H 	H 	0.66740 0.94370 0.99820 0.09900
C 	C 	0.61053 0.04940 0.12250 -0.14400
H 	H 	0.60550 0.11040 0.14810 0.08600
C 	C 	0.90870 0.31680 0.76150 0.13300
H 	H 	0.92640 0.27030 0.77360 -0.01000
C 	C 	0.67025 0.20200 0.11040 0.02600
H 	H 	0.66170 0.19450 0.16460 0.03400
C 	C 	0.71774 0.47500 0.03310 0.14000
C 	C 	0.69070 0.28440 0.09100 -0.14500
H 	H 	0.69600 0.33140 0.13220 0.08700
C 	C 	0.95190 0.40820 0.66920 0.38300
C 	C 	0.57140 0.78740 0.11290 0.29800
C 	C 	0.65730 0.73510 0.21810 -0.19500
H 	H 	0.64260 0.67910 0.21440 0.09500
C 	C 	0.66650 0.89990 0.26990 -0.17900
C 	C 	0.67494 0.14220 0.97150 0.03300
H 	H 	0.66980 0.09500 0.93050 0.02000
C 	C 	0.87571 0.30950 0.79890 -0.22300
H 	H 	0.87120 0.25580 0.83440 0.11300
C 	C 	0.64590 0.81470 0.26320 0.12500
H 	H 	0.62390 0.81190 0.28990 0.00600
C 	C 	0.68213 0.51430 0.03270 -0.16300
H 	H 	0.66420 0.48290 0.00230 0.09900
C 	C 	0.67538 0.59700 0.07690 0.04700
H 	H 	0.65230 0.62280 0.07490 0.02100
C 	C 	0.88910 0.46050 0.68930 0.12600
H 	H 	0.89270 0.51180 0.65080 -0.01900
C 	C 	0.65590 0.99260 0.31450 0.42600
C 	C 	0.74298 0.52630 0.07590 -0.17300
H 	H 	0.76660 0.50510 0.07360 0.09400
C 	C 	0.85677 0.45090 0.73080 -0.22000
H 	H 	0.83890 0.49770 0.72000 0.10500
O 	O 	0.58101 0.70180 0.09060 -0.40700
O 	O 	0.54177 0.80160 0.15110 -0.39700
O 	O 	0.95701 0.48380 0.62240 -0.51900
O 	O 	0.97527 0.34110 0.68110 -0.47600
O 	O 	0.62462 0.97630 0.35250 -0.48900
H 	H 	0.61800 0.02800 0.37550 0.27400
O 	O 	0.67116 0.06820 0.31730 -0.32800
N 	N 	0.72443 0.38320 0.98940 -0.17100
