data_crystal

_cell_length_a 15.57600
_cell_length_b 16.42700
_cell_length_c 12.47700
_cell_angle_alpha 90.00000
_cell_angle_beta  92.31400
_cell_angle_gamma 90.00000

_symmetry_space_group_name_	'P 1'
_symmetry_space_group_name_H-M	'P 1'

loop_
_symmetry_equiv_pos_as_xyz
  x,y,z

loop_
_atom_site_label
_atom_site_type_symbol
_atom_site_fract_x
_atom_site_fract_y
_atom_site_fract_z
_atom_site_charge
Dy	Dy	0.11973 0.18711 0.90730 1.98800
S 	S 	0.10489 0.21941 0.66356 0.78200
S 	S 	0.18876 0.35127 0.07290 0.87000
O 	O 	0.05680 0.06250 0.89930 -0.50100
O 	O 	0.10110 0.14100 0.72360 -0.59800
O 	O 	0.08370 0.14510 0.07280 -0.45300
O 	O 	0.02160 0.23370 0.60750 -0.54300
O 	O 	0.13580 0.31110 0.99020 -0.50700
O 	O 	0.12070 0.28190 0.74820 -0.40000
O 	O 	0.07280 0.04230 0.18280 -0.40400
O 	O 	0.17350 0.21770 0.58930 -0.25300
O 	O 	0.26010 0.39370 0.02740 -0.47500
C 	C 	0.06500 0.07310 0.09230 0.41500
O 	O 	0.13480 0.40020 0.13500 -0.28900
O 	O 	0.23410 0.29130 0.13940 -0.48300
C 	C 	0.04160 0.01920 0.99780 -0.13600
H 	H 	0.08350 0.97470 0.00090 0.08100
Dy	Dy	0.61973 0.68711 0.90730 2.05300
S 	S 	0.60489 0.71941 0.66356 0.77300
S 	S 	0.68876 0.85127 0.07290 0.86300
O 	O 	0.55680 0.56250 0.89930 -0.50200
O 	O 	0.60110 0.64100 0.72360 -0.58500
O 	O 	0.58370 0.64510 0.07280 -0.43500
O 	O 	0.52160 0.73370 0.60750 -0.48400
O 	O 	0.63580 0.81110 0.99020 -0.49100
O 	O 	0.62070 0.78190 0.74820 -0.38300
O 	O 	0.57280 0.54230 0.18280 -0.37500
O 	O 	0.67350 0.71770 0.58930 -0.23800
O 	O 	0.76010 0.89370 0.02740 -0.47700
C 	C 	0.56500 0.57310 0.09230 0.39100
O 	O 	0.63480 0.90020 0.13500 -0.26600
O 	O 	0.73410 0.79130 0.13940 -0.48400
C 	C 	0.54160 0.51920 0.99780 -0.01600
H 	H 	0.58350 0.47470 0.00090 0.05900
Dy	Dy	0.88027 0.18711 0.59270 2.11300
S 	S 	0.89511 0.21941 0.83644 0.76400
S 	S 	0.81124 0.35127 0.42710 0.86500
O 	O 	0.94320 0.06250 0.60070 -0.48800
O 	O 	0.89890 0.14100 0.77640 -0.56400
O 	O 	0.91630 0.14510 0.42720 -0.41500
O 	O 	0.97840 0.23370 0.89250 -0.42300
O 	O 	0.86420 0.31110 0.50980 -0.48300
O 	O 	0.87930 0.28190 0.75180 -0.36700
O 	O 	0.92720 0.04230 0.31720 -0.33700
O 	O 	0.82650 0.21770 0.91070 -0.23200
O 	O 	0.73990 0.39370 0.47260 -0.46600
C 	C 	0.93500 0.07310 0.40770 0.38000
O 	O 	0.86520 0.40020 0.36500 -0.24300
O 	O 	0.76590 0.29130 0.36060 -0.47500
C 	C 	0.95840 0.01920 0.50220 0.07300
H 	H 	0.91650 0.97470 0.49910 0.05100
Dy	Dy	0.38027 0.68711 0.59270 2.04800
S 	S 	0.39511 0.71941 0.83644 0.77400
S 	S 	0.31124 0.85127 0.42710 0.86600
O 	O 	0.44320 0.56250 0.60070 -0.50000
O 	O 	0.39890 0.64100 0.77640 -0.58800
O 	O 	0.41630 0.64510 0.42720 -0.43500
O 	O 	0.47840 0.73370 0.89250 -0.48400
O 	O 	0.36420 0.81110 0.50980 -0.49500
O 	O 	0.37930 0.78190 0.75180 -0.38500
O 	O 	0.42720 0.54230 0.31720 -0.38000
O 	O 	0.32650 0.71770 0.91070 -0.24600
O 	O 	0.23990 0.89370 0.47260 -0.46400
C 	C 	0.43500 0.57310 0.40770 0.39900
O 	O 	0.36520 0.90020 0.36500 -0.26600
O 	O 	0.26590 0.79130 0.36060 -0.47400
C 	C 	0.45840 0.51920 0.50220 -0.03500
H 	H 	0.41650 0.47470 0.49910 0.06500
Dy	Dy	0.88027 0.81289 0.09270 2.10500
S 	S 	0.89511 0.78059 0.33644 0.76500
S 	S 	0.81124 0.64873 0.92710 0.87300
O 	O 	0.94320 0.93750 0.10070 -0.48600
O 	O 	0.89890 0.85900 0.27640 -0.56400
O 	O 	0.91630 0.85490 0.92720 -0.41300
O 	O 	0.97840 0.76630 0.39250 -0.42400
O 	O 	0.86420 0.68890 0.00980 -0.48900
O 	O 	0.87930 0.71810 0.25180 -0.36800
O 	O 	0.92720 0.95770 0.81720 -0.33700
O 	O 	0.82650 0.78230 0.41070 -0.23200
O 	O 	0.73990 0.60630 0.97260 -0.46600
C 	C 	0.93500 0.92690 0.90770 0.39000
O 	O 	0.86520 0.59980 0.86500 -0.24300
O 	O 	0.76590 0.70870 0.86060 -0.47600
C 	C 	0.95840 0.98080 0.00220 0.05700
H 	H 	0.91650 0.02530 0.99910 0.05600
Dy	Dy	0.38027 0.31289 0.09270 2.04500
S 	S 	0.39511 0.28059 0.33644 0.77400
S 	S 	0.31124 0.14873 0.92710 0.86800
O 	O 	0.44320 0.43750 0.10070 -0.49800
O 	O 	0.39890 0.35900 0.27640 -0.58800
O 	O 	0.41630 0.35490 0.92720 -0.43500
O 	O 	0.47840 0.26630 0.39250 -0.48500
O 	O 	0.36420 0.18890 0.00980 -0.49600
O 	O 	0.37930 0.21810 0.25180 -0.38500
O 	O 	0.42720 0.45770 0.81720 -0.38100
O 	O 	0.32650 0.28230 0.41070 -0.24800
O 	O 	0.23990 0.10630 0.97260 -0.46500
C 	C 	0.43500 0.42690 0.90770 0.40800
O 	O 	0.36520 0.09980 0.86500 -0.26600
O 	O 	0.26590 0.20870 0.86060 -0.47400
C 	C 	0.45840 0.48080 0.00220 -0.05500
H 	H 	0.41650 0.52530 0.99910 0.07300
Dy	Dy	0.11973 0.81289 0.40730 1.98700
S 	S 	0.10489 0.78059 0.16356 0.78100
S 	S 	0.18876 0.64873 0.57290 0.87100
O 	O 	0.05680 0.93750 0.39930 -0.49900
O 	O 	0.10110 0.85900 0.22360 -0.59800
O 	O 	0.08370 0.85490 0.57280 -0.45300
O 	O 	0.02160 0.76630 0.10750 -0.54200
O 	O 	0.13580 0.68890 0.49020 -0.50800
O 	O 	0.12070 0.71810 0.24820 -0.40100
O 	O 	0.07280 0.95770 0.68280 -0.40300
O 	O 	0.17350 0.78230 0.08930 -0.25400
O 	O 	0.26010 0.60630 0.52740 -0.47500
C 	C 	0.06500 0.92690 0.59230 0.41700
O 	O 	0.13480 0.59980 0.63500 -0.28800
O 	O 	0.23410 0.70870 0.63940 -0.48300
C 	C 	0.04160 0.98080 0.49780 -0.14400
H 	H 	0.08350 0.02530 0.50090 0.08300
Dy	Dy	0.61973 0.31289 0.40730 2.04900
S 	S 	0.60489 0.28059 0.16356 0.77300
S 	S 	0.68876 0.14873 0.57290 0.87100
O 	O 	0.55680 0.43750 0.39930 -0.49900
O 	O 	0.60110 0.35900 0.22360 -0.58600
O 	O 	0.58370 0.35490 0.57280 -0.43400
O 	O 	0.52160 0.26630 0.10750 -0.48400
O 	O 	0.63580 0.18890 0.49020 -0.49700
O 	O 	0.62070 0.21810 0.24820 -0.38300
O 	O 	0.57280 0.45770 0.68280 -0.37700
O 	O 	0.67350 0.28230 0.08930 -0.24000
O 	O 	0.76010 0.10630 0.52740 -0.47700
C 	C 	0.56500 0.42690 0.59230 0.40000
O 	O 	0.63480 0.09980 0.63500 -0.26600
O 	O 	0.73410 0.20870 0.63940 -0.48500
C 	C 	0.54160 0.48080 0.49780 -0.03700
H 	H 	0.58350 0.52530 0.50090 0.06800
Fe	Fe	0.00000 0.04831 0.75000 1.15800
Fe	Fe	0.50000 0.54831 0.75000 1.20300
Fe	Fe	0.00000 0.95169 0.25000 1.15900
Fe	Fe	0.50000 0.45169 0.25000 1.20300
