data_crystal

_cell_length_a 13.09200
_cell_length_b 14.49000
_cell_length_c 12.64000
_cell_angle_alpha 90.00000
_cell_angle_beta  116.85000
_cell_angle_gamma 90.00000

_symmetry_space_group_name_	'P 1'
_symmetry_space_group_name_H-M	'P 1'

loop_
_symmetry_equiv_pos_as_xyz
  x,y,z

loop_
_atom_site_label
_atom_site_type_symbol
_atom_site_fract_x
_atom_site_fract_y
_atom_site_fract_z
_atom_site_charge
Mn	Mn	0.27135 0.44289 0.24477 1.30100
O 	O 	0.97150 0.05690 0.32830 -0.40400
O 	O 	0.81840 0.00100 0.17170 -0.46600
O 	O 	0.19280 0.30470 0.25480 -0.38500
O 	O 	0.11640 0.38170 0.08690 -0.54300
O 	O 	0.14420 0.57350 0.00550 -0.48800
O 	O 	0.30790 0.56090 0.17220 -0.45900
O 	O 	0.58390 0.83510 0.25540 -0.32300
O 	O 	0.57400 0.91090 0.09930 -0.36000
C 	C 	0.93580 0.10590 0.13500 -0.00800
C 	C 	0.01400 0.17760 0.17790 -0.06200
H 	H 	0.05540 0.18650 0.25920 0.05100
C 	C 	0.03140 0.23670 0.09980 -0.20400
C 	C 	0.97180 0.22300 0.97800 0.15400
H 	H 	0.98260 0.26240 0.92570 0.01700
C 	C 	0.89520 0.14860 0.93560 -0.09000
H 	H 	0.85560 0.13760 0.85450 0.06900
C 	C 	0.87830 0.09170 0.01360 -0.02000
H 	H 	0.82720 0.04260 0.98410 0.05900
C 	C 	0.90880 0.04900 0.21920 0.35300
C 	C 	0.11800 0.31260 0.15040 0.35500
C 	C 	0.29340 0.67470 0.03030 -0.17700
C 	C 	0.39190 0.72290 0.10760 0.08300
H 	H 	0.42900 0.70700 0.18750 0.03500
C 	C 	0.43450 0.79450 0.06530 -0.12600
C 	C 	0.37990 0.81610 0.94400 0.09400
H 	H 	0.40890 0.86290 0.91500 0.03600
C 	C 	0.28340 0.76820 0.86750 -0.15300
H 	H 	0.24800 0.78210 0.78700 0.08700
C 	C 	0.23950 0.69890 0.91160 0.11400
H 	H 	0.17280 0.66850 0.86050 -0.00300
C 	C 	0.24370 0.59770 0.07190 0.41400
C 	C 	0.53770 0.84910 0.14690 0.31400
Mn	Mn	0.72865 0.94289 0.25523 1.32600
O 	O 	0.02850 0.55690 0.17170 -0.48000
O 	O 	0.18160 0.50100 0.32830 -0.45600
O 	O 	0.80720 0.80470 0.24520 -0.35000
O 	O 	0.88360 0.88170 0.41310 -0.45200
O 	O 	0.85580 0.07350 0.49450 -0.44300
O 	O 	0.69210 0.06090 0.32780 -0.47800
O 	O 	0.41610 0.33510 0.24460 -0.34100
O 	O 	0.42600 0.41090 0.40070 -0.37800
C 	C 	0.06420 0.60590 0.36500 -0.21100
C 	C 	0.98600 0.67760 0.32210 0.14400
H 	H 	0.94460 0.68650 0.24080 0.03500
C 	C 	0.96860 0.73670 0.40020 -0.02900
C 	C 	0.02820 0.72300 0.52200 -0.07300
H 	H 	0.01740 0.76240 0.57430 0.04600
C 	C 	0.10480 0.64860 0.56440 -0.08400
H 	H 	0.14440 0.63760 0.64550 0.05800
C 	C 	0.12170 0.59170 0.48640 0.05500
H 	H 	0.17280 0.54260 0.51590 0.02900
C 	C 	0.09120 0.54900 0.28080 0.40700
C 	C 	0.88200 0.81260 0.34960 0.32600
C 	C 	0.70660 0.17470 0.46970 -0.11600
C 	C 	0.60810 0.22290 0.39240 0.03700
H 	H 	0.57100 0.20700 0.31250 0.04300
C 	C 	0.56550 0.29450 0.43470 -0.08100
C 	C 	0.62010 0.31610 0.55600 0.02200
H 	H 	0.59110 0.36290 0.58500 0.04400
C 	C 	0.71660 0.26820 0.63250 -0.09000
H 	H 	0.75200 0.28210 0.71300 0.06700
C 	C 	0.76050 0.19890 0.58840 0.03600
H 	H 	0.82720 0.16850 0.63950 0.04100
C 	C 	0.75630 0.09770 0.42810 0.38600
C 	C 	0.46230 0.34910 0.35310 0.30100
Mn	Mn	0.72865 0.55711 0.75523 1.30200
O 	O 	0.02850 0.94310 0.67170 -0.44300
O 	O 	0.18160 0.99900 0.82830 -0.40900
O 	O 	0.80720 0.69530 0.74520 -0.35200
O 	O 	0.88360 0.61830 0.91310 -0.47000
O 	O 	0.85580 0.42650 0.99450 -0.41100
O 	O 	0.69210 0.43910 0.82780 -0.44300
O 	O 	0.41610 0.16490 0.74460 -0.34500
O 	O 	0.42600 0.08910 0.90070 -0.39900
C 	C 	0.06420 0.89410 0.86500 -0.22400
C 	C 	0.98600 0.82240 0.82210 0.15200
H 	H 	0.94460 0.81350 0.74080 0.03600
C 	C 	0.96860 0.76330 0.90020 -0.02300
C 	C 	0.02820 0.77700 0.02200 -0.06000
H 	H 	0.01740 0.73760 0.07430 0.03800
C 	C 	0.10480 0.85140 0.06440 -0.14600
H 	H 	0.14440 0.86240 0.14550 0.08800
C 	C 	0.12170 0.90830 0.98640 0.15400
H 	H 	0.17280 0.95740 0.01590 -0.00200
C 	C 	0.09120 0.95100 0.78080 0.41300
C 	C 	0.88200 0.68740 0.84960 0.33000
C 	C 	0.70660 0.32530 0.96970 -0.06400
C 	C 	0.60810 0.27710 0.89240 0.00500
H 	H 	0.57100 0.29300 0.81250 0.05800
C 	C 	0.56550 0.20550 0.93470 -0.04500
C 	C 	0.62010 0.18390 0.05600 -0.02700
H 	H 	0.59110 0.13710 0.08500 0.04900
C 	C 	0.71660 0.23180 0.13250 -0.04300
H 	H 	0.75200 0.21790 0.21300 0.05100
C 	C 	0.76050 0.30110 0.08840 -0.02000
H 	H 	0.82720 0.33150 0.13950 0.06400
C 	C 	0.75630 0.40230 0.92810 0.36900
C 	C 	0.46230 0.15090 0.85310 0.29300
Mn	Mn	0.27135 0.05711 0.74477 1.27200
O 	O 	0.97150 0.44310 0.82830 -0.38300
O 	O 	0.81840 0.49900 0.67170 -0.43000
O 	O 	0.19280 0.19530 0.75480 -0.39000
O 	O 	0.11640 0.11830 0.58690 -0.56000
O 	O 	0.14420 0.92650 0.50550 -0.43900
O 	O 	0.30790 0.93910 0.67220 -0.41700
O 	O 	0.58390 0.66490 0.75540 -0.32400
O 	O 	0.57400 0.58910 0.59930 -0.37400
C 	C 	0.93580 0.39410 0.63500 -0.02000
C 	C 	0.01400 0.32240 0.67790 -0.04400
H 	H 	0.05540 0.31350 0.75920 0.05100
C 	C 	0.03140 0.26330 0.59980 -0.19900
C 	C 	0.97180 0.27700 0.47800 0.16100
H 	H 	0.98260 0.23760 0.42570 0.01500
C 	C 	0.89520 0.35140 0.43560 -0.12300
H 	H 	0.85560 0.36240 0.35450 0.08900
C 	C 	0.87830 0.40830 0.51360 0.03900
H 	H 	0.82720 0.45740 0.48410 0.04800
C 	C 	0.90880 0.45100 0.71920 0.35900
C 	C 	0.11800 0.18740 0.65040 0.35700
C 	C 	0.29340 0.82530 0.53030 -0.10600
C 	C 	0.39190 0.77710 0.60760 0.03600
H 	H 	0.42900 0.79300 0.68750 0.05600
C 	C 	0.43450 0.70550 0.56530 -0.07100
C 	C 	0.37990 0.68390 0.44400 0.02300
H 	H 	0.40890 0.63710 0.41500 0.04700
C 	C 	0.28340 0.73180 0.36750 -0.08800
H 	H 	0.24800 0.71790 0.28700 0.06400
C 	C 	0.23950 0.80110 0.41160 0.03700
H 	H 	0.17280 0.83150 0.36050 0.02700
C 	C 	0.24370 0.90230 0.57190 0.38600
C 	C 	0.53770 0.65090 0.64690 0.30000
Mn	Mn	-0.00000 0.50000 -0.00000 1.27300
Mn	Mn	0.00000 0.00000 0.50000 1.24600
