data_crystal

_cell_length_a 15.49120
_cell_length_b 11.66870
_cell_length_c 23.75020
_cell_angle_alpha 90.00000
_cell_angle_beta  90.00000
_cell_angle_gamma 90.00000

_symmetry_space_group_name_	'P 1'
_symmetry_space_group_name_H-M	'P 1'

loop_
_symmetry_equiv_pos_as_xyz
  x,y,z

loop_
_atom_site_label
_atom_site_type_symbol
_atom_site_fract_x
_atom_site_fract_y
_atom_site_fract_z
_atom_site_charge
Ni	Ni	0.04698 0.35733 0.12311 1.10800
O 	O 	0.15795 0.28741 0.08386 -0.38000
O 	O 	0.09892 0.44945 0.05684 -0.50500
O 	O 	0.44279 0.15831 0.00153 -0.45200
O 	O 	0.46705 0.24271 0.91802 -0.43500
O 	O 	0.86427 0.90019 0.30551 -0.30100
O 	O 	0.95286 0.75446 0.30710 -0.32100
O 	O 	0.92689 0.55096 0.06680 -0.39200
O 	O 	0.96081 0.47185 0.15059 -0.37100
C 	C 	0.23919 0.39990 0.01992 -0.20500
C 	C 	0.30005 0.31420 0.01263 0.07100
H 	H 	0.29180 0.24350 0.02990 0.02800
C 	C 	0.37295 0.33200 0.98002 -0.13000
C 	C 	0.38650 0.44140 0.95776 0.11000
H 	H 	0.43550 0.45580 0.93630 0.02100
C 	C 	0.32794 0.52810 0.96732 -0.19900
H 	H 	0.33910 0.60130 0.95380 0.11800
C 	C 	0.25214 0.50690 0.99714 0.21200
H 	H 	0.21100 0.56420 0.00160 -0.04200
C 	C 	0.16141 0.37620 0.05426 0.35500
C 	C 	0.43357 0.23510 0.96601 0.44000
C 	C 	0.86343 0.77270 0.22684 -0.05100
C 	C 	0.90081 0.67680 0.20173 0.02300
H 	H 	0.94250 0.63540 0.22120 0.07700
C 	C 	0.87685 0.64230 0.14821 -0.08100
C 	C 	0.81298 0.70180 0.12097 0.02400
H 	H 	0.79630 0.67900 0.08510 0.03900
C 	C 	0.77283 0.79510 0.14569 -0.07000
H 	H 	0.72890 0.83350 0.12690 0.07200
C 	C 	0.79869 0.83060 0.19877 0.01200
H 	H 	0.77240 0.89360 0.21550 0.06700
C 	C 	0.89356 0.81210 0.28359 0.29900
C 	C 	0.92502 0.54630 0.11937 0.36600
Ni	Ni	0.45302 0.64267 0.62311 1.13200
O 	O 	0.34205 0.71259 0.58386 -0.35000
O 	O 	0.40108 0.55055 0.55684 -0.47700
O 	O 	0.05721 0.84169 0.50153 -0.41300
O 	O 	0.03295 0.75729 0.41802 -0.45200
O 	O 	0.63573 0.09981 0.80551 -0.33500
O 	O 	0.54714 0.24554 0.80710 -0.35000
O 	O 	0.57311 0.44904 0.56680 -0.41500
O 	O 	0.53919 0.52815 0.65059 -0.40400
C 	C 	0.26081 0.60010 0.51992 -0.10900
C 	C 	0.19995 0.68580 0.51263 0.05300
H 	H 	0.20820 0.75650 0.52990 0.04400
C 	C 	0.12705 0.66800 0.48002 -0.12500
C 	C 	0.11350 0.55860 0.45776 0.04800
H 	H 	0.06450 0.54420 0.43630 0.02300
C 	C 	0.17206 0.47190 0.46732 -0.11000
H 	H 	0.16090 0.39870 0.45380 0.07300
C 	C 	0.24786 0.49310 0.49714 0.04400
H 	H 	0.28900 0.43580 0.50160 0.03500
C 	C 	0.33859 0.62380 0.55426 0.32300
C 	C 	0.06643 0.76490 0.46601 0.39200
C 	C 	0.63657 0.22730 0.72684 -0.07700
C 	C 	0.59919 0.32320 0.70173 0.03500
H 	H 	0.55750 0.36460 0.72120 0.05900
C 	C 	0.62315 0.35770 0.64821 -0.09900
C 	C 	0.68702 0.29820 0.62097 0.03200
H 	H 	0.70370 0.32100 0.58510 0.03700
C 	C 	0.72717 0.20490 0.64569 -0.08900
H 	H 	0.77110 0.16650 0.62690 0.07000
C 	C 	0.70131 0.16940 0.69877 0.02400
H 	H 	0.72760 0.10640 0.71550 0.04600
C 	C 	0.60644 0.18790 0.78359 0.30800
C 	C 	0.57498 0.45370 0.61937 0.37100
Ni	Ni	0.95302 0.85733 0.37689 1.15500
O 	O 	0.84205 0.78741 0.41614 -0.33700
O 	O 	0.90108 0.94945 0.44316 -0.42600
O 	O 	0.55721 0.65831 0.49847 -0.41000
O 	O 	0.53295 0.74271 0.58198 -0.42200
O 	O 	0.13573 0.40019 0.19449 -0.34000
O 	O 	0.04714 0.25446 0.19290 -0.38600
O 	O 	0.07311 0.05096 0.43320 -0.43100
O 	O 	0.03919 0.97185 0.34941 -0.38100
C 	C 	0.76081 0.89990 0.48008 -0.05100
C 	C 	0.69995 0.81420 0.48737 0.04200
H 	H 	0.70820 0.74350 0.47010 0.04900
C 	C 	0.62705 0.83200 0.51998 -0.12400
C 	C 	0.61350 0.94140 0.54224 0.11400
H 	H 	0.56450 0.95580 0.56370 0.03000
C 	C 	0.67206 0.02810 0.53268 -0.15900
H 	H 	0.66090 0.10130 0.54620 0.08900
C 	C 	0.74786 0.00690 0.50286 -0.00600
H 	H 	0.78900 0.06420 0.49840 0.04400
C 	C 	0.83859 0.87620 0.44574 0.30400
C 	C 	0.56643 0.73510 0.53399 0.39600
C 	C 	0.13657 0.27270 0.27316 -0.08800
C 	C 	0.09919 0.17680 0.29827 0.02800
H 	H 	0.05750 0.13540 0.27880 0.03600
C 	C 	0.12315 0.14230 0.35179 -0.10000
C 	C 	0.18702 0.20180 0.37903 0.02400
H 	H 	0.20370 0.17900 0.41490 0.03500
C 	C 	0.22717 0.29510 0.35431 -0.09100
H 	H 	0.27110 0.33350 0.37310 0.07200
C 	C 	0.20131 0.33060 0.30123 0.02200
H 	H 	0.22760 0.39360 0.28450 0.04800
C 	C 	0.10644 0.31210 0.21641 0.31000
C 	C 	0.07498 0.04630 0.38063 0.30800
Ni	Ni	0.54698 0.14267 0.87689 1.13200
O 	O 	0.65795 0.21259 0.91614 -0.34400
O 	O 	0.59892 0.05055 0.94316 -0.48000
O 	O 	0.94279 0.34169 0.99847 -0.34400
O 	O 	0.96705 0.25729 0.08198 -0.38200
O 	O 	0.36427 0.59981 0.69449 -0.32800
O 	O 	0.45286 0.74554 0.69290 -0.34400
O 	O 	0.42689 0.94904 0.93320 -0.39400
O 	O 	0.46081 0.02815 0.84941 -0.44900
C 	C 	0.73919 0.10010 0.98008 -0.05800
C 	C 	0.80005 0.18580 0.98737 0.03800
H 	H 	0.79180 0.25650 0.97010 0.05300
C 	C 	0.87295 0.16800 0.01998 -0.07700
C 	C 	0.88650 0.05860 0.04224 -0.08600
H 	H 	0.93550 0.04420 0.06370 0.08400
C 	C 	0.82794 0.97190 0.03268 0.05500
H 	H 	0.83910 0.89870 0.04620 0.02800
C 	C 	0.75214 0.99310 0.00286 -0.07200
H 	H 	0.71100 0.93580 0.99840 0.10700
C 	C 	0.66141 0.12380 0.94574 0.30800
C 	C 	0.93357 0.26490 0.03399 0.33300
C 	C 	0.36343 0.72730 0.77316 -0.07500
C 	C 	0.40081 0.82320 0.79827 0.04300
H 	H 	0.44250 0.86460 0.77880 0.06700
C 	C 	0.37685 0.85770 0.85179 -0.10400
C 	C 	0.31298 0.79820 0.87903 0.04000
H 	H 	0.29630 0.82100 0.91490 0.04300
C 	C 	0.27283 0.70490 0.85431 -0.09100
H 	H 	0.22890 0.66650 0.87310 0.07500
C 	C 	0.29869 0.66940 0.80123 0.02700
H 	H 	0.27240 0.60640 0.78450 0.04900
C 	C 	0.39356 0.68790 0.71641 0.30800
C 	C 	0.42502 0.95370 0.88063 0.42500
Ni	Ni	0.95302 0.64267 0.87689 1.15600
O 	O 	0.84205 0.71259 0.91614 -0.32700
O 	O 	0.90108 0.55055 0.94316 -0.43600
O 	O 	0.55721 0.84169 0.99847 -0.35900
O 	O 	0.53295 0.75729 0.08198 -0.41200
O 	O 	0.13573 0.09981 0.69449 -0.35200
O 	O 	0.04714 0.24554 0.69290 -0.38000
O 	O 	0.07311 0.44904 0.93320 -0.41800
O 	O 	0.03919 0.52815 0.84941 -0.43200
C 	C 	0.76081 0.60010 0.98008 -0.00600
C 	C 	0.69995 0.68580 0.98737 0.02900
H 	H 	0.70820 0.75650 0.97010 0.05900
C 	C 	0.62705 0.66800 0.01998 -0.09600
C 	C 	0.61350 0.55860 0.04224 -0.01900
H 	H 	0.56450 0.54420 0.06370 0.05800
C 	C 	0.67206 0.47190 0.03268 -0.00500
H 	H 	0.66090 0.39870 0.04620 0.03600
C 	C 	0.74786 0.49310 0.00286 -0.12400
H 	H 	0.78900 0.43580 0.99840 0.11500
C 	C 	0.83859 0.62380 0.94574 0.28900
C 	C 	0.56643 0.76490 0.03399 0.34200
C 	C 	0.13657 0.22730 0.77316 -0.09500
C 	C 	0.09919 0.32320 0.79827 0.04100
H 	H 	0.05750 0.36460 0.77880 0.04400
C 	C 	0.12315 0.35770 0.85179 -0.11200
C 	C 	0.18702 0.29820 0.87903 0.03600
H 	H 	0.20370 0.32100 0.91490 0.03800
C 	C 	0.22717 0.20490 0.85431 -0.10100
H 	H 	0.27110 0.16650 0.87310 0.07200
C 	C 	0.20131 0.16940 0.80123 0.03000
H 	H 	0.22760 0.10640 0.78450 0.03700
C 	C 	0.10644 0.18790 0.71641 0.31300
C 	C 	0.07498 0.45370 0.88063 0.37200
Ni	Ni	0.54698 0.35733 0.37689 1.13200
O 	O 	0.65795 0.28741 0.41614 -0.35500
O 	O 	0.59892 0.44945 0.44316 -0.47600
O 	O 	0.94279 0.15831 0.49847 -0.38600
O 	O 	0.96705 0.24271 0.58198 -0.39000
O 	O 	0.36427 0.90019 0.19449 -0.31600
O 	O 	0.45286 0.75446 0.19290 -0.35000
O 	O 	0.42689 0.55096 0.43320 -0.41300
O 	O 	0.46081 0.47185 0.34941 -0.40500
C 	C 	0.73919 0.39990 0.48008 -0.10000
C 	C 	0.80005 0.31420 0.48737 0.04600
H 	H 	0.79180 0.24350 0.47010 0.04500
C 	C 	0.87295 0.33200 0.51998 -0.10000
C 	C 	0.88650 0.44140 0.54224 0.04000
H 	H 	0.93550 0.45580 0.56370 0.05700
C 	C 	0.82794 0.52810 0.53268 -0.08900
H 	H 	0.83910 0.60130 0.54620 0.07900
C 	C 	0.75214 0.50690 0.50286 0.03800
H 	H 	0.71100 0.56420 0.49840 0.03900
C 	C 	0.66141 0.37620 0.44574 0.32200
C 	C 	0.93357 0.23510 0.53399 0.38400
C 	C 	0.36343 0.77270 0.27316 -0.06900
C 	C 	0.40081 0.67680 0.29827 0.03200
H 	H 	0.44250 0.63540 0.27880 0.06000
C 	C 	0.37685 0.64230 0.35179 -0.09600
C 	C 	0.31298 0.70180 0.37903 0.03000
H 	H 	0.29630 0.67900 0.41490 0.03900
C 	C 	0.27283 0.79510 0.35431 -0.08300
H 	H 	0.22890 0.83350 0.37310 0.07600
C 	C 	0.29869 0.83060 0.30123 0.02000
H 	H 	0.27240 0.89360 0.28450 0.06000
C 	C 	0.39356 0.81210 0.21641 0.30500
C 	C 	0.42502 0.54630 0.38063 0.37100
Ni	Ni	0.04698 0.14267 0.62311 1.10700
O 	O 	0.15795 0.21259 0.58386 -0.36900
O 	O 	0.09892 0.05055 0.55684 -0.51600
O 	O 	0.44279 0.34169 0.50153 -0.41100
O 	O 	0.46705 0.25729 0.41802 -0.42700
O 	O 	0.86427 0.59981 0.80551 -0.31200
O 	O 	0.95286 0.74554 0.80710 -0.31700
O 	O 	0.92689 0.94904 0.56680 -0.38000
O 	O 	0.96081 0.02815 0.65059 -0.41100
C 	C 	0.23919 0.10010 0.51992 -0.16500
C 	C 	0.30005 0.18580 0.51263 0.06100
H 	H 	0.29180 0.25650 0.52990 0.03800
C 	C 	0.37295 0.16800 0.48002 -0.10400
C 	C 	0.38650 0.05860 0.45776 -0.02800
H 	H 	0.43550 0.04420 0.43630 0.05000
C 	C 	0.32794 0.97190 0.46732 -0.04000
H 	H 	0.33910 0.89870 0.45380 0.06300
C 	C 	0.25214 0.99310 0.49714 0.09600
H 	H 	0.21100 0.93580 0.50160 0.03000
C 	C 	0.16141 0.12380 0.55426 0.34100
C 	C 	0.43357 0.26490 0.46601 0.38500
C 	C 	0.86343 0.72730 0.72684 -0.05700
C 	C 	0.90081 0.82320 0.70173 0.03400
H 	H 	0.94250 0.86460 0.72120 0.08200
C 	C 	0.87685 0.85770 0.64821 -0.08900
C 	C 	0.81298 0.79820 0.62097 0.03300
H 	H 	0.79630 0.82100 0.58510 0.04300
C 	C 	0.77283 0.70490 0.64569 -0.07700
H 	H 	0.72890 0.66650 0.62690 0.07100
C 	C 	0.79869 0.66940 0.69877 0.01800
H 	H 	0.77240 0.60640 0.71550 0.05800
C 	C 	0.89356 0.68790 0.78359 0.30300
C 	C 	0.92502 0.95370 0.61937 0.41400
Ni	Ni	0.45302 0.85733 0.12311 1.13200
O 	O 	0.34205 0.78741 0.08386 -0.36100
O 	O 	0.40108 0.94945 0.05684 -0.46100
O 	O 	0.05721 0.65831 0.00153 -0.46300
O 	O 	0.03295 0.74271 0.91802 -0.46200
O 	O 	0.63573 0.40019 0.30551 -0.32400
O 	O 	0.54714 0.25446 0.30710 -0.35600
O 	O 	0.57311 0.05096 0.06680 -0.42200
O 	O 	0.53919 0.97185 0.15059 -0.35700
C 	C 	0.26081 0.89990 0.01992 -0.15200
C 	C 	0.19995 0.81420 0.01263 0.06700
H 	H 	0.20820 0.74350 0.02990 0.03300
C 	C 	0.12705 0.83200 0.98002 -0.15500
C 	C 	0.11350 0.94140 0.95776 0.18900
H 	H 	0.06450 0.95580 0.93630 -0.00700
C 	C 	0.17206 0.02810 0.96732 -0.27300
H 	H 	0.16090 0.10130 0.95380 0.12900
C 	C 	0.24786 0.00690 0.99714 0.16500
H 	H 	0.28900 0.06420 0.00160 -0.03900
C 	C 	0.33859 0.87620 0.05426 0.33700
C 	C 	0.06643 0.73510 0.96601 0.44900
C 	C 	0.63657 0.27270 0.22684 -0.07100
C 	C 	0.59919 0.17680 0.20173 0.02200
H 	H 	0.55750 0.13540 0.22120 0.05200
C 	C 	0.62315 0.14230 0.14821 -0.08800
C 	C 	0.68702 0.20180 0.12097 0.02100
H 	H 	0.70370 0.17900 0.08510 0.03400
C 	C 	0.72717 0.29510 0.14569 -0.07900
H 	H 	0.77110 0.33350 0.12690 0.06900
C 	C 	0.70131 0.33060 0.19877 0.01700
H 	H 	0.72760 0.39360 0.21550 0.05600
C 	C 	0.60644 0.31210 0.28359 0.30500
C 	C 	0.57498 0.04630 0.11937 0.31200
Ni	Ni	-0.00000 0.50000 -0.00000 1.09600
Ni	Ni	0.50000 0.50000 0.50000 1.13700
Ni	Ni	-0.00000 0.00000 0.50000 1.08800
Ni	Ni	0.50000 0.00000 -0.00000 1.10400
