data_crystal

_cell_length_a 15.41400
_cell_length_b 11.87700
_cell_length_c 24.15400
_cell_angle_alpha 90.00000
_cell_angle_beta  90.00000
_cell_angle_gamma 90.00000

_symmetry_space_group_name_	'P 1'
_symmetry_space_group_name_H-M	'P 1'

loop_
_symmetry_equiv_pos_as_xyz
  x,y,z

loop_
_atom_site_label
_atom_site_type_symbol
_atom_site_fract_x
_atom_site_fract_y
_atom_site_fract_z
_atom_site_charge
Co	Co	0.55003 0.35951 0.62469 1.19100
O 	O 	0.42830 0.54630 0.56845 -0.42700
O 	O 	0.46910 0.48100 0.65159 -0.41900
O 	O 	0.35600 0.90150 0.79954 -0.30800
O 	O 	0.44580 0.75960 0.80559 -0.36700
O 	O 	0.39440 0.54740 0.44396 -0.48100
O 	O 	0.33340 0.70130 0.41325 -0.36800
O 	O 	0.05580 0.84160 0.50050 -0.42300
O 	O 	0.02880 0.75840 0.58232 -0.46300
C 	C 	0.38190 0.64550 0.64770 -0.10400
C 	C 	0.40200 0.68080 0.70000 0.04100
H 	H 	0.44330 0.64150 0.72030 0.05600
C 	C 	0.36220 0.77400 0.72350 -0.07800
C 	C 	0.29950 0.83010 0.69350 0.02400
H 	H 	0.27260 0.89310 0.70860 0.05600
C 	C 	0.27610 0.79360 0.64120 -0.08700
H 	H 	0.23280 0.83100 0.62170 0.07400
C 	C 	0.31690 0.70200 0.61790 0.03100
H 	H 	0.30150 0.67770 0.58260 0.03800
C 	C 	0.42980 0.55010 0.62020 0.37900
C 	C 	0.38940 0.81540 0.77950 0.31300
C 	C 	0.25450 0.59780 0.47960 -0.13000
C 	C 	0.19560 0.68310 0.48780 0.06900
H 	H 	0.20450 0.75230 0.47070 0.03700
C 	C 	0.12300 0.66800 0.52110 -0.13900
C 	C 	0.10760 0.56160 0.54240 0.06100
H 	H 	0.05810 0.54860 0.56350 0.01500
C 	C 	0.16490 0.47500 0.53260 -0.12700
H 	H 	0.15360 0.40370 0.54670 0.07600
C 	C 	0.23960 0.49350 0.50180 0.05900
H 	H 	0.27910 0.43550 0.49620 0.02800
C 	C 	0.33120 0.61810 0.44450 0.34100
C 	C 	0.06260 0.76320 0.53470 0.39100
Co	Co	0.94997 0.64049 0.12469 1.21600
O 	O 	0.07170 0.45370 0.06845 -0.45400
O 	O 	0.03090 0.51900 0.15159 -0.45300
O 	O 	0.14400 0.09850 0.29954 -0.34300
O 	O 	0.05420 0.24040 0.30559 -0.39800
O 	O 	0.10560 0.45260 0.94396 -0.48300
O 	O 	0.16660 0.29870 0.91325 -0.37600
O 	O 	0.44420 0.15840 0.00050 -0.44400
O 	O 	0.47120 0.24160 0.08232 -0.43900
C 	C 	0.11810 0.35450 0.14770 -0.13000
C 	C 	0.09800 0.31920 0.20000 0.05600
H 	H 	0.05670 0.35850 0.22030 0.03700
C 	C 	0.13780 0.22600 0.22350 -0.10700
C 	C 	0.20050 0.16990 0.19350 0.03900
H 	H 	0.22740 0.10690 0.20860 0.03300
C 	C 	0.22390 0.20640 0.14120 -0.11100
H 	H 	0.26720 0.16900 0.12170 0.07100
C 	C 	0.18310 0.29800 0.11790 0.04500
H 	H 	0.19850 0.32230 0.08260 0.02500
C 	C 	0.07020 0.44990 0.12020 0.38500
C 	C 	0.11060 0.18460 0.27950 0.32200
C 	C 	0.24550 0.40220 0.97960 -0.05300
C 	C 	0.30440 0.31690 0.98780 0.06600
H 	H 	0.29550 0.24770 0.97070 0.03800
C 	C 	0.37700 0.33200 0.02110 -0.13500
C 	C 	0.39240 0.43840 0.04240 0.01800
H 	H 	0.44190 0.45140 0.06350 0.04300
C 	C 	0.33510 0.52500 0.03260 -0.04400
H 	H 	0.34640 0.59630 0.04670 0.04800
C 	C 	0.26040 0.50650 0.00180 -0.08000
H 	H 	0.22090 0.56450 0.99620 0.09600
C 	C 	0.16880 0.38190 0.94450 0.31900
C 	C 	0.43740 0.23680 0.03470 0.39000
Co	Co	0.44997 0.85951 0.87531 1.19200
O 	O 	0.57170 0.04630 0.93155 -0.41900
O 	O 	0.53090 0.98100 0.84841 -0.37300
O 	O 	0.64400 0.40150 0.70046 -0.31500
O 	O 	0.55420 0.25960 0.69441 -0.37300
O 	O 	0.60560 0.04740 0.05604 -0.51000
O 	O 	0.66660 0.20130 0.08675 -0.38100
O 	O 	0.94420 0.34160 0.99950 -0.37000
O 	O 	0.97120 0.25840 0.91768 -0.40000
C 	C 	0.61810 0.14550 0.85230 -0.08900
C 	C 	0.59800 0.18080 0.80000 0.02700
H 	H 	0.55670 0.14150 0.77970 0.05000
C 	C 	0.63780 0.27400 0.77650 -0.07600
C 	C 	0.70050 0.33010 0.80650 0.01800
H 	H 	0.72740 0.39310 0.79140 0.05400
C 	C 	0.72390 0.29360 0.85880 -0.07900
H 	H 	0.76720 0.33100 0.87830 0.06900
C 	C 	0.68310 0.20200 0.88210 0.01600
H 	H 	0.69850 0.17770 0.91740 0.04400
C 	C 	0.57020 0.05010 0.87980 0.31900
C 	C 	0.61060 0.31540 0.72050 0.31200
C 	C 	0.74550 0.09780 0.02040 -0.24500
C 	C 	0.80440 0.18310 0.01220 0.07400
H 	H 	0.79550 0.25230 0.02930 0.03200
C 	C 	0.87700 0.16800 0.97890 -0.10000
C 	C 	0.89240 0.06160 0.95760 0.03700
H 	H 	0.94190 0.04860 0.93650 0.04700
C 	C 	0.83510 0.97500 0.96740 -0.13300
H 	H 	0.84640 0.90370 0.95330 0.10600
C 	C 	0.76040 0.99350 0.99820 0.24000
H 	H 	0.72090 0.93550 0.00380 -0.04000
C 	C 	0.66880 0.11810 0.05550 0.37800
C 	C 	0.93740 0.26320 0.96530 0.38200
Co	Co	0.05003 0.14049 0.37531 1.16300
O 	O 	0.92830 0.95370 0.43155 -0.39400
O 	O 	0.96910 0.01900 0.34841 -0.42200
O 	O 	0.85600 0.59850 0.20046 -0.30500
O 	O 	0.94580 0.74040 0.19441 -0.33800
O 	O 	0.89440 0.95260 0.55604 -0.43100
O 	O 	0.83340 0.79870 0.58675 -0.35400
O 	O 	0.55580 0.65840 0.49950 -0.42000
O 	O 	0.52880 0.74160 0.41768 -0.43300
C 	C 	0.88190 0.85450 0.35230 -0.09600
C 	C 	0.90200 0.81920 0.30000 0.04200
H 	H 	0.94330 0.85850 0.27970 0.07700
C 	C 	0.86220 0.72600 0.27650 -0.06600
C 	C 	0.79950 0.66990 0.30650 0.02300
H 	H 	0.77260 0.60690 0.29140 0.05400
C 	C 	0.77610 0.70640 0.35880 -0.08100
H 	H 	0.73280 0.66900 0.37830 0.07000
C 	C 	0.81690 0.79800 0.38210 0.03300
H 	H 	0.80150 0.82230 0.41740 0.04200
C 	C 	0.92980 0.94990 0.37980 0.41800
C 	C 	0.88940 0.68460 0.22050 0.31200
C 	C 	0.75450 0.90220 0.52040 -0.07300
C 	C 	0.69560 0.81690 0.51220 0.05800
H 	H 	0.70450 0.74770 0.52930 0.04300
C 	C 	0.62300 0.83200 0.47890 -0.13800
C 	C 	0.60760 0.93840 0.45760 0.12500
H 	H 	0.55810 0.95140 0.43650 0.02300
C 	C 	0.66490 0.02500 0.46740 -0.17200
H 	H 	0.65360 0.09630 0.45330 0.09200
C 	C 	0.73960 0.00650 0.49820 0.01200
H 	H 	0.77910 0.06450 0.50380 0.03700
C 	C 	0.83120 0.88190 0.55550 0.32200
C 	C 	0.56260 0.73680 0.46530 0.39700
Co	Co	0.44997 0.64049 0.37531 1.19100
O 	O 	0.57170 0.45370 0.43155 -0.43000
O 	O 	0.53090 0.51900 0.34841 -0.42000
O 	O 	0.64400 0.09850 0.20046 -0.32600
O 	O 	0.55420 0.24040 0.19441 -0.37000
O 	O 	0.60560 0.45260 0.55604 -0.47900
O 	O 	0.66660 0.29870 0.58675 -0.37200
O 	O 	0.94420 0.15840 0.49950 -0.39500
O 	O 	0.97120 0.24160 0.41768 -0.40100
C 	C 	0.61810 0.35450 0.35230 -0.10800
C 	C 	0.59800 0.31920 0.30000 0.04500
H 	H 	0.55670 0.35850 0.27970 0.05400
C 	C 	0.63780 0.22600 0.27650 -0.08700
C 	C 	0.70050 0.16990 0.30650 0.02900
H 	H 	0.72740 0.10690 0.29140 0.04300
C 	C 	0.72390 0.20640 0.35880 -0.09400
H 	H 	0.76720 0.16900 0.37830 0.06900
C 	C 	0.68310 0.29800 0.38210 0.03400
H 	H 	0.69850 0.32230 0.41740 0.03500
C 	C 	0.57020 0.44990 0.37980 0.37900
C 	C 	0.61060 0.18460 0.22050 0.31700
C 	C 	0.74550 0.40220 0.52040 -0.12000
C 	C 	0.80440 0.31690 0.51220 0.06300
H 	H 	0.79550 0.24770 0.52930 0.03900
C 	C 	0.87700 0.33200 0.47890 -0.11400
C 	C 	0.89240 0.43840 0.45760 0.05400
H 	H 	0.94190 0.45140 0.43650 0.05100
C 	C 	0.83510 0.52500 0.46740 -0.10500
H 	H 	0.84640 0.59630 0.45330 0.08300
C 	C 	0.76040 0.50650 0.49820 0.05400
H 	H 	0.72090 0.56450 0.50380 0.03200
C 	C 	0.66880 0.38190 0.55550 0.34000
C 	C 	0.93740 0.23680 0.46530 0.38500
Co	Co	0.05003 0.35951 0.87531 1.16400
O 	O 	0.92830 0.54630 0.93155 -0.39000
O 	O 	0.96910 0.48100 0.84841 -0.38300
O 	O 	0.85600 0.90150 0.70046 -0.29500
O 	O 	0.94580 0.75960 0.69441 -0.34100
O 	O 	0.89440 0.54740 0.05604 -0.46600
O 	O 	0.83340 0.70130 0.08675 -0.36500
O 	O 	0.55580 0.84160 0.99950 -0.38700
O 	O 	0.52880 0.75840 0.91768 -0.43000
C 	C 	0.88190 0.64550 0.85230 -0.08000
C 	C 	0.90200 0.68080 0.80000 0.02800
H 	H 	0.94330 0.64150 0.77970 0.07400
C 	C 	0.86220 0.77400 0.77650 -0.05700
C 	C 	0.79950 0.83010 0.80650 0.01300
H 	H 	0.77260 0.89310 0.79140 0.06500
C 	C 	0.77610 0.79360 0.85880 -0.06900
H 	H 	0.73280 0.83100 0.87830 0.07100
C 	C 	0.81690 0.70200 0.88210 0.01800
H 	H 	0.80150 0.67770 0.91740 0.04900
C 	C 	0.92980 0.55010 0.87980 0.36800
C 	C 	0.88940 0.81540 0.72050 0.30700
C 	C 	0.75450 0.59780 0.02040 -0.19800
C 	C 	0.69560 0.68310 0.01220 0.06700
H 	H 	0.70450 0.75230 0.02930 0.03700
C 	C 	0.62300 0.66800 0.97890 -0.12100
C 	C 	0.60760 0.56160 0.95760 0.10100
H 	H 	0.55810 0.54860 0.93650 0.02100
C 	C 	0.66490 0.47500 0.96740 -0.19200
H 	H 	0.65360 0.40370 0.95330 0.11300
C 	C 	0.73960 0.49350 0.99820 0.19700
H 	H 	0.77910 0.43550 0.00380 -0.03700
C 	C 	0.83120 0.61810 0.05550 0.36000
C 	C 	0.56260 0.76320 0.96530 0.39000
Co	Co	0.55003 0.14049 0.12469 1.18900
O 	O 	0.42830 0.95370 0.06845 -0.42800
O 	O 	0.46910 0.01900 0.15159 -0.46600
O 	O 	0.35600 0.59850 0.29954 -0.32000
O 	O 	0.44580 0.74040 0.30559 -0.36400
O 	O 	0.39440 0.95260 0.94396 -0.44100
O 	O 	0.33340 0.79870 0.91325 -0.35800
O 	O 	0.05580 0.65840 0.00050 -0.45500
O 	O 	0.02880 0.74160 0.08232 -0.46600
C 	C 	0.38190 0.85450 0.14770 -0.12100
C 	C 	0.40200 0.81920 0.20000 0.05700
H 	H 	0.44330 0.85850 0.22030 0.06000
C 	C 	0.36220 0.72600 0.22350 -0.08800
C 	C 	0.29950 0.66990 0.19350 0.03500
H 	H 	0.27260 0.60690 0.20860 0.04400
C 	C 	0.27610 0.70640 0.14120 -0.10100
H 	H 	0.23280 0.66900 0.12170 0.07300
C 	C 	0.31690 0.79800 0.11790 0.04800
H 	H 	0.30150 0.82230 0.08260 0.03000
C 	C 	0.42980 0.94990 0.12020 0.43600
C 	C 	0.38940 0.68460 0.27950 0.31800
C 	C 	0.25450 0.90220 0.97960 -0.00000
C 	C 	0.19560 0.81690 0.98780 0.05800
H 	H 	0.20450 0.74770 0.97070 0.04300
C 	C 	0.12300 0.83200 0.02110 -0.15700
C 	C 	0.10760 0.93840 0.04240 0.09500
H 	H 	0.05810 0.95140 0.06350 0.01600
C 	C 	0.16490 0.02500 0.03260 -0.11700
H 	H 	0.15360 0.09630 0.04670 0.05800
C 	C 	0.23960 0.00650 0.00180 -0.12700
H 	H 	0.27910 0.06450 0.99620 0.10100
C 	C 	0.33120 0.88190 0.94450 0.30100
C 	C 	0.06260 0.73680 0.03470 0.39800
Co	Co	0.94997 0.85951 0.62469 1.21600
O 	O 	0.07170 0.04630 0.56845 -0.44700
O 	O 	0.03090 0.98100 0.65159 -0.40000
O 	O 	0.14400 0.40150 0.79954 -0.33100
O 	O 	0.05420 0.25960 0.80559 -0.40100
O 	O 	0.10560 0.04740 0.44396 -0.51900
O 	O 	0.16660 0.20130 0.41325 -0.38700
O 	O 	0.44420 0.34160 0.50050 -0.42100
O 	O 	0.47120 0.25840 0.58232 -0.43800
C 	C 	0.11810 0.14550 0.64770 -0.10900
C 	C 	0.09800 0.18080 0.70000 0.03800
H 	H 	0.05670 0.14150 0.72030 0.03300
C 	C 	0.13780 0.27400 0.72350 -0.09600
C 	C 	0.20050 0.33010 0.69350 0.02700
H 	H 	0.22740 0.39310 0.70860 0.04500
C 	C 	0.22390 0.29360 0.64120 -0.09600
H 	H 	0.26720 0.33100 0.62170 0.07100
C 	C 	0.18310 0.20200 0.61790 0.02600
H 	H 	0.19850 0.17770 0.58260 0.03300
C 	C 	0.07020 0.05010 0.62020 0.31900
C 	C 	0.11060 0.31540 0.77950 0.31700
C 	C 	0.24550 0.09780 0.47960 -0.18500
C 	C 	0.30440 0.18310 0.48780 0.07800
H 	H 	0.29550 0.25230 0.47070 0.03100
C 	C 	0.37700 0.16800 0.52110 -0.12000
C 	C 	0.39240 0.06160 0.54240 -0.01000
H 	H 	0.44190 0.04860 0.56350 0.04200
C 	C 	0.33510 0.97500 0.53260 -0.06100
H 	H 	0.34640 0.90370 0.54670 0.06800
C 	C 	0.26040 0.99350 0.50180 0.11200
H 	H 	0.22090 0.93550 0.49620 0.02300
C 	C 	0.16880 0.11810 0.44450 0.35900
C 	C 	0.43740 0.26320 0.53470 0.38600
Co	Co	0.50000 0.50000 0.50000 1.19800
Co	Co	-0.00000 0.50000 -0.00000 1.15700
Co	Co	0.50000 0.00000 -0.00000 1.16600
Co	Co	0.00000 0.00000 0.50000 1.14700
