data_crystal

_cell_length_a 16.61650
_cell_length_b 16.61650
_cell_length_c 15.33660
_cell_angle_alpha 90.00000
_cell_angle_beta  90.00000
_cell_angle_gamma 120.00000

_symmetry_space_group_name_	'P 1'
_symmetry_space_group_name_H-M	'P 1'

loop_
_symmetry_equiv_pos_as_xyz
  x,y,z

loop_
_atom_site_label
_atom_site_type_symbol
_atom_site_fract_x
_atom_site_fract_y
_atom_site_fract_z
_atom_site_charge
C 	C 	0.44550 0.03510 0.03150 0.18900
O 	O 	0.52000 0.17490 0.15646 -0.51700
O 	O 	0.38570 0.06530 0.05410 -0.36800
H 	H 	0.41020 0.10640 0.09090 0.26900
C 	C 	0.96490 0.41040 0.03150 0.18900
O 	O 	0.82510 0.34510 0.15646 -0.51700
O 	O 	0.93470 0.32040 0.05410 -0.36800
H 	H 	0.89360 0.30380 0.09090 0.26900
C 	C 	0.58960 0.55450 0.03150 0.18900
O 	O 	0.65490 0.48000 0.15646 -0.51700
O 	O 	0.67960 0.61430 0.05410 -0.36800
H 	H 	0.69620 0.58980 0.09090 0.26900
C 	C 	0.55450 0.96490 0.53150 0.18900
O 	O 	0.48000 0.82510 0.65646 -0.51700
O 	O 	0.61430 0.93470 0.55410 -0.36800
H 	H 	0.58980 0.89360 0.59090 0.26900
C 	C 	0.03510 0.58960 0.53150 0.18900
O 	O 	0.17490 0.65490 0.65646 -0.51700
O 	O 	0.06530 0.67960 0.55410 -0.36800
H 	H 	0.10640 0.69620 0.59090 0.26900
C 	C 	0.41040 0.44550 0.53150 0.19000
O 	O 	0.34510 0.52000 0.65646 -0.51600
O 	O 	0.32040 0.38570 0.55410 -0.36700
H 	H 	0.30380 0.41020 0.59090 0.27000
C 	C 	0.03510 0.44550 0.96850 0.19000
O 	O 	0.17490 0.52000 0.84354 -0.51600
O 	O 	0.06530 0.38570 0.94590 -0.36700
H 	H 	0.10640 0.41020 0.90910 0.27000
C 	C 	0.41040 0.96490 0.96850 0.19000
O 	O 	0.34510 0.82510 0.84354 -0.51600
O 	O 	0.32040 0.93470 0.94590 -0.36700
H 	H 	0.30380 0.89360 0.90910 0.27000
C 	C 	0.55450 0.58960 0.96850 0.19000
O 	O 	0.48000 0.65490 0.84354 -0.51600
O 	O 	0.61430 0.67960 0.94590 -0.36700
H 	H 	0.58980 0.69620 0.90910 0.27000
C 	C 	0.96490 0.55450 0.46850 0.19000
O 	O 	0.82510 0.48000 0.34354 -0.51600
O 	O 	0.93470 0.61430 0.44590 -0.36700
H 	H 	0.89360 0.58980 0.40910 0.27000
C 	C 	0.58960 0.03510 0.46850 0.19000
O 	O 	0.65490 0.17490 0.34354 -0.51600
O 	O 	0.67960 0.06530 0.44590 -0.36700
H 	H 	0.69620 0.10640 0.40910 0.27000
C 	C 	0.44550 0.41040 0.46850 0.19000
O 	O 	0.52000 0.34510 0.34354 -0.51600
O 	O 	0.38570 0.32040 0.44590 -0.36700
H 	H 	0.41020 0.30380 0.40910 0.27000
C 	C 	0.55450 0.96490 0.96850 0.19000
O 	O 	0.48000 0.82510 0.84354 -0.51600
O 	O 	0.61430 0.93470 0.94590 -0.36700
H 	H 	0.58980 0.89360 0.90910 0.27000
C 	C 	0.03510 0.58960 0.96850 0.19000
O 	O 	0.17490 0.65490 0.84354 -0.51600
O 	O 	0.06530 0.67960 0.94590 -0.36700
H 	H 	0.10640 0.69620 0.90910 0.27000
C 	C 	0.41040 0.44550 0.96850 0.19000
O 	O 	0.34510 0.52000 0.84354 -0.51600
O 	O 	0.32040 0.38570 0.94590 -0.36700
H 	H 	0.30380 0.41020 0.90910 0.27000
C 	C 	0.44550 0.03510 0.46850 0.19000
O 	O 	0.52000 0.17490 0.34354 -0.51600
O 	O 	0.38570 0.06530 0.44590 -0.36700
H 	H 	0.41020 0.10640 0.40910 0.27000
C 	C 	0.96490 0.41040 0.46850 0.19000
O 	O 	0.82510 0.34510 0.34354 -0.51600
O 	O 	0.93470 0.32040 0.44590 -0.36700
H 	H 	0.89360 0.30380 0.40910 0.27000
C 	C 	0.58960 0.55450 0.46850 0.19000
O 	O 	0.65490 0.48000 0.34354 -0.51600
O 	O 	0.67960 0.61430 0.44590 -0.36700
H 	H 	0.69620 0.58980 0.40910 0.27000
C 	C 	0.96490 0.55450 0.03150 0.19000
O 	O 	0.82510 0.48000 0.15646 -0.51600
O 	O 	0.93470 0.61430 0.05410 -0.36700
H 	H 	0.89360 0.58980 0.09090 0.27000
C 	C 	0.58960 0.03510 0.03150 0.19000
O 	O 	0.65490 0.17490 0.15646 -0.51600
O 	O 	0.67960 0.06530 0.05410 -0.36700
H 	H 	0.69620 0.10640 0.09090 0.27000
C 	C 	0.44550 0.41040 0.03150 0.19000
O 	O 	0.52000 0.34510 0.15646 -0.51600
O 	O 	0.38570 0.32040 0.05410 -0.36700
H 	H 	0.41020 0.30380 0.09090 0.27000
C 	C 	0.03510 0.44550 0.53150 0.19000
O 	O 	0.17490 0.52000 0.65646 -0.51600
O 	O 	0.06530 0.38570 0.55410 -0.36700
H 	H 	0.10640 0.41020 0.59090 0.27000
C 	C 	0.41040 0.96490 0.53150 0.19000
O 	O 	0.34510 0.82510 0.65646 -0.51600
O 	O 	0.32040 0.93470 0.55410 -0.36700
H 	H 	0.30380 0.89360 0.59090 0.27000
C 	C 	0.55450 0.58960 0.53150 0.19000
O 	O 	0.48000 0.65490 0.65646 -0.51600
O 	O 	0.61430 0.67960 0.55410 -0.36700
H 	H 	0.58980 0.69620 0.59090 0.27000
Mg	Mg	0.53007 0.26503 0.25000 1.48100
N 	N 	0.38130 0.19065 0.25000 -0.24400
C 	C 	0.19910 0.09955 0.25000 0.10100
C 	C 	0.09380 0.04690 0.25000 0.10400
Mg	Mg	0.73497 0.26503 0.25000 1.48100
N 	N 	0.80935 0.19065 0.25000 -0.24400
C 	C 	0.90045 0.09955 0.25000 0.10000
C 	C 	0.95310 0.04690 0.25000 0.10400
Mg	Mg	0.73497 0.46993 0.25000 1.48100
N 	N 	0.80935 0.61870 0.25000 -0.24400
C 	C 	0.90045 0.80090 0.25000 0.10100
C 	C 	0.95310 0.90620 0.25000 0.10400
Mg	Mg	0.46993 0.73497 0.75000 1.48100
N 	N 	0.61870 0.80935 0.75000 -0.24400
C 	C 	0.80090 0.90045 0.75000 0.10100
C 	C 	0.90620 0.95310 0.75000 0.10400
Mg	Mg	0.26503 0.73497 0.75000 1.48100
N 	N 	0.19065 0.80935 0.75000 -0.24400
C 	C 	0.09955 0.90045 0.75000 0.10000
C 	C 	0.04690 0.95310 0.75000 0.10400
Mg	Mg	0.26503 0.53007 0.75000 1.48100
N 	N 	0.19065 0.38130 0.75000 -0.24400
C 	C 	0.09955 0.19910 0.75000 0.10100
C 	C 	0.04690 0.09380 0.75000 0.10400
C 	C 	0.57260 0.14520 0.13080 0.48100
C 	C 	0.53505 0.07010 0.06270 -0.24100
C 	C 	0.85480 0.42740 0.13080 0.48100
C 	C 	0.92990 0.46495 0.06270 -0.24100
C 	C 	0.57260 0.42740 0.13080 0.48100
C 	C 	0.53505 0.46495 0.06270 -0.24100
C 	C 	0.42740 0.85480 0.63080 0.48100
C 	C 	0.46495 0.92990 0.56270 -0.24100
C 	C 	0.14520 0.57260 0.63080 0.48100
C 	C 	0.07010 0.53505 0.56270 -0.24100
C 	C 	0.42740 0.57260 0.63080 0.48100
C 	C 	0.46495 0.53505 0.56270 -0.24100
C 	C 	0.14520 0.57260 0.86920 0.48100
C 	C 	0.07010 0.53505 0.93730 -0.24100
C 	C 	0.42740 0.85480 0.86920 0.48100
C 	C 	0.46495 0.92990 0.93730 -0.24100
C 	C 	0.42740 0.57260 0.86920 0.48100
C 	C 	0.46495 0.53505 0.93730 -0.24100
C 	C 	0.85480 0.42740 0.36920 0.48100
C 	C 	0.92990 0.46495 0.43730 -0.24100
C 	C 	0.57260 0.14520 0.36920 0.48100
C 	C 	0.53505 0.07010 0.43730 -0.24100
C 	C 	0.57260 0.42740 0.36920 0.48100
C 	C 	0.53505 0.46495 0.43730 -0.24100
C 	C 	0.33720 0.23970 0.25000 0.10200
H 	H 	0.37060 0.30430 0.25000 0.00700
C 	C 	0.24270 0.19330 0.25000 -0.14300
H 	H 	0.20960 0.22470 0.25000 0.11100
C 	C 	0.76030 0.09750 0.25000 0.10200
H 	H 	0.69570 0.06630 0.25000 0.00700
C 	C 	0.80670 0.04940 0.25000 -0.14200
H 	H 	0.77530 0.98490 0.25000 0.11100
C 	C 	0.90250 0.66280 0.25000 0.10200
H 	H 	0.93370 0.62940 0.25000 0.00700
C 	C 	0.95060 0.75730 0.25000 -0.14300
H 	H 	0.01510 0.79040 0.25000 0.11100
C 	C 	0.66280 0.76030 0.75000 0.10200
H 	H 	0.62940 0.69570 0.75000 0.00700
C 	C 	0.75730 0.80670 0.75000 -0.14300
H 	H 	0.79040 0.77530 0.75000 0.11100
C 	C 	0.23970 0.90250 0.75000 0.10200
H 	H 	0.30430 0.93370 0.75000 0.00700
C 	C 	0.19330 0.95060 0.75000 -0.14200
H 	H 	0.22470 0.01510 0.75000 0.11100
C 	C 	0.09750 0.33720 0.75000 0.10200
H 	H 	0.06630 0.37060 0.75000 0.00700
C 	C 	0.04940 0.24270 0.75000 -0.14300
H 	H 	0.98490 0.20960 0.75000 0.11100
C 	C 	0.23970 0.33720 0.75000 0.10200
H 	H 	0.30430 0.37060 0.75000 0.00700
C 	C 	0.19330 0.24270 0.75000 -0.14300
H 	H 	0.22470 0.20960 0.75000 0.11100
C 	C 	0.09750 0.76030 0.75000 0.10200
H 	H 	0.06630 0.69570 0.75000 0.00700
C 	C 	0.04940 0.80670 0.75000 -0.14200
H 	H 	0.98490 0.77530 0.75000 0.11100
C 	C 	0.66280 0.90250 0.75000 0.10200
H 	H 	0.62940 0.93370 0.75000 0.00700
C 	C 	0.75730 0.95060 0.75000 -0.14300
H 	H 	0.79040 0.01510 0.75000 0.11100
C 	C 	0.76030 0.66280 0.25000 0.10200
H 	H 	0.69570 0.62940 0.25000 0.00700
C 	C 	0.80670 0.75730 0.25000 -0.14300
H 	H 	0.77530 0.79040 0.25000 0.11100
C 	C 	0.90250 0.23970 0.25000 0.10200
H 	H 	0.93370 0.30430 0.25000 0.00700
C 	C 	0.95060 0.19330 0.25000 -0.14200
H 	H 	0.01510 0.22470 0.25000 0.11100
C 	C 	0.33720 0.09750 0.25000 0.10200
H 	H 	0.37060 0.06630 0.25000 0.00700
C 	C 	0.24270 0.04940 0.25000 -0.14300
H 	H 	0.20960 0.98490 0.25000 0.11100
O 	O 	0.66667 0.33333 0.25000 -0.76800
O 	O 	0.33333 0.66667 0.75000 -0.76800
N 	N 	0.04720 0.09440 0.25000 -0.12500
N 	N 	0.90560 0.95280 0.25000 -0.12500
N 	N 	0.04720 0.95280 0.25000 -0.12500
N 	N 	0.95280 0.90560 0.75000 -0.12500
N 	N 	0.09440 0.04720 0.75000 -0.12500
N 	N 	0.95280 0.04720 0.75000 -0.12500
