data_crystal

_cell_length_a 16.90650
_cell_length_b 16.90650
_cell_length_c 14.71540
_cell_angle_alpha 90.00000
_cell_angle_beta  90.00000
_cell_angle_gamma 120.00000

_symmetry_space_group_name_	'P 1'
_symmetry_space_group_name_H-M	'P 1'

loop_
_symmetry_equiv_pos_as_xyz
  x,y,z

loop_
_atom_site_label
_atom_site_type_symbol
_atom_site_fract_x
_atom_site_fract_y
_atom_site_fract_z
_atom_site_charge
O 	O 	0.52359 0.17850 0.65400 -0.47700
C 	C 	0.45240 0.03760 0.53000 0.10800
N 	N 	0.39090 0.07250 0.55670 0.00100
O 	O 	0.41400 0.13720 0.50470 -0.06400
O 	O 	0.33300 0.04200 0.61570 -0.09300
O 	O 	0.82150 0.34509 0.65400 -0.47700
C 	C 	0.96240 0.41480 0.53000 0.10800
N 	N 	0.92750 0.31840 0.55670 0.00100
O 	O 	0.86280 0.27680 0.50470 -0.06400
O 	O 	0.95800 0.29100 0.61570 -0.09300
O 	O 	0.65491 0.47641 0.65400 -0.47700
C 	C 	0.58520 0.54760 0.53000 0.10800
N 	N 	0.68160 0.60910 0.55670 0.00000
O 	O 	0.72320 0.58600 0.50470 -0.06500
O 	O 	0.70900 0.66700 0.61570 -0.09400
O 	O 	0.47641 0.82150 0.15400 -0.47800
C 	C 	0.54760 0.96240 0.03000 0.10700
N 	N 	0.60910 0.92750 0.05670 0.00000
O 	O 	0.58600 0.86280 0.00470 -0.06500
O 	O 	0.66700 0.95800 0.11570 -0.09400
O 	O 	0.17850 0.65491 0.15400 -0.47800
C 	C 	0.03760 0.58520 0.03000 0.10700
N 	N 	0.07250 0.68160 0.05670 0.00000
O 	O 	0.13720 0.72320 0.00470 -0.06500
O 	O 	0.04200 0.70900 0.11570 -0.09400
O 	O 	0.34509 0.52359 0.15400 -0.47800
C 	C 	0.41480 0.45240 0.03000 0.10700
N 	N 	0.31840 0.39090 0.05670 0.00000
O 	O 	0.27680 0.41400 0.00470 -0.06500
O 	O 	0.29100 0.33300 0.11570 -0.09400
O 	O 	0.17850 0.52359 0.34600 -0.47800
C 	C 	0.03760 0.45240 0.47000 0.10700
N 	N 	0.07250 0.39090 0.44330 0.00000
O 	O 	0.13720 0.41400 0.49530 -0.06500
O 	O 	0.04200 0.33300 0.38430 -0.09400
O 	O 	0.34509 0.82150 0.34600 -0.47800
C 	C 	0.41480 0.96240 0.47000 0.10700
N 	N 	0.31840 0.92750 0.44330 0.00000
O 	O 	0.27680 0.86280 0.49530 -0.06500
O 	O 	0.29100 0.95800 0.38430 -0.09400
O 	O 	0.47641 0.65491 0.34600 -0.47800
C 	C 	0.54760 0.58520 0.47000 0.10700
N 	N 	0.60910 0.68160 0.44330 0.00000
O 	O 	0.58600 0.72320 0.49530 -0.06500
O 	O 	0.66700 0.70900 0.38430 -0.09400
O 	O 	0.82150 0.47641 0.84600 -0.47800
C 	C 	0.96240 0.54760 0.97000 0.10700
N 	N 	0.92750 0.60910 0.94330 0.00000
O 	O 	0.86280 0.58600 0.99530 -0.06500
O 	O 	0.95800 0.66700 0.88430 -0.09400
O 	O 	0.65491 0.17850 0.84600 -0.47800
C 	C 	0.58520 0.03760 0.97000 0.10700
N 	N 	0.68160 0.07250 0.94330 0.00000
O 	O 	0.72320 0.13720 0.99530 -0.06500
O 	O 	0.70900 0.04200 0.88430 -0.09400
O 	O 	0.52359 0.34509 0.84600 -0.47800
C 	C 	0.45240 0.41480 0.97000 0.10700
N 	N 	0.39090 0.31840 0.94330 0.00000
O 	O 	0.41400 0.27680 0.99530 -0.06500
O 	O 	0.33300 0.29100 0.88430 -0.09400
O 	O 	0.47641 0.82150 0.34600 -0.47800
C 	C 	0.54760 0.96240 0.47000 0.10700
N 	N 	0.60910 0.92750 0.44330 0.00000
O 	O 	0.58600 0.86280 0.49530 -0.06500
O 	O 	0.66700 0.95800 0.38430 -0.09400
O 	O 	0.17850 0.65491 0.34600 -0.47800
C 	C 	0.03760 0.58520 0.47000 0.10700
N 	N 	0.07250 0.68160 0.44330 0.00000
O 	O 	0.13720 0.72320 0.49530 -0.06500
O 	O 	0.04200 0.70900 0.38430 -0.09400
O 	O 	0.34509 0.52359 0.34600 -0.47800
C 	C 	0.41480 0.45240 0.47000 0.10700
N 	N 	0.31840 0.39090 0.44330 0.00000
O 	O 	0.27680 0.41400 0.49530 -0.06500
O 	O 	0.29100 0.33300 0.38430 -0.09400
O 	O 	0.52359 0.17850 0.84600 -0.47800
C 	C 	0.45240 0.03760 0.97000 0.10700
N 	N 	0.39090 0.07250 0.94330 0.00000
O 	O 	0.41400 0.13720 0.99530 -0.06500
O 	O 	0.33300 0.04200 0.88430 -0.09400
O 	O 	0.82150 0.34509 0.84600 -0.47800
C 	C 	0.96240 0.41480 0.97000 0.10700
N 	N 	0.92750 0.31840 0.94330 0.00000
O 	O 	0.86280 0.27680 0.99530 -0.06500
O 	O 	0.95800 0.29100 0.88430 -0.09400
O 	O 	0.65491 0.47641 0.84600 -0.47800
C 	C 	0.58520 0.54760 0.97000 0.10700
N 	N 	0.68160 0.60910 0.94330 0.00000
O 	O 	0.72320 0.58600 0.99530 -0.06500
O 	O 	0.70900 0.66700 0.88430 -0.09400
O 	O 	0.82150 0.47641 0.65400 -0.47800
C 	C 	0.96240 0.54760 0.53000 0.10700
N 	N 	0.92750 0.60910 0.55670 0.00000
O 	O 	0.86280 0.58600 0.50470 -0.06500
O 	O 	0.95800 0.66700 0.61570 -0.09400
O 	O 	0.65491 0.17850 0.65400 -0.47800
C 	C 	0.58520 0.03760 0.53000 0.10700
N 	N 	0.68160 0.07250 0.55670 0.00000
O 	O 	0.72320 0.13720 0.50470 -0.06500
O 	O 	0.70900 0.04200 0.61570 -0.09400
O 	O 	0.52359 0.34509 0.65400 -0.47800
C 	C 	0.45240 0.41480 0.53000 0.10700
N 	N 	0.39090 0.31840 0.55670 0.00000
O 	O 	0.41400 0.27680 0.50470 -0.06500
O 	O 	0.33300 0.29100 0.61570 -0.09400
O 	O 	0.17850 0.52359 0.15400 -0.47800
C 	C 	0.03760 0.45240 0.03000 0.10700
N 	N 	0.07250 0.39090 0.05670 0.00000
O 	O 	0.13720 0.41400 0.00470 -0.06500
O 	O 	0.04200 0.33300 0.11570 -0.09400
O 	O 	0.34509 0.82150 0.15400 -0.47800
C 	C 	0.41480 0.96240 0.03000 0.10800
N 	N 	0.31840 0.92750 0.05670 0.00000
O 	O 	0.27680 0.86280 0.00470 -0.06500
O 	O 	0.29100 0.95800 0.11570 -0.09400
O 	O 	0.47641 0.65491 0.15400 -0.47800
C 	C 	0.54760 0.58520 0.03000 0.10700
N 	N 	0.60910 0.68160 0.05670 0.00000
O 	O 	0.58600 0.72320 0.00470 -0.06500
O 	O 	0.66700 0.70900 0.11570 -0.09400
Mg	Mg	0.53289 0.26645 0.75000 1.48300
N 	N 	0.38000 0.19000 0.75000 -0.21200
C 	C 	0.19080 0.09540 0.75000 0.09800
C 	C 	0.08860 0.04430 0.75000 0.11400
Mg	Mg	0.73355 0.26645 0.75000 1.48300
N 	N 	0.81000 0.19000 0.75000 -0.21200
C 	C 	0.90460 0.09540 0.75000 0.09700
C 	C 	0.95570 0.04430 0.75000 0.11500
Mg	Mg	0.73356 0.46711 0.75000 1.48300
N 	N 	0.81000 0.62000 0.75000 -0.21200
C 	C 	0.90460 0.80920 0.75000 0.09800
C 	C 	0.95570 0.91140 0.75000 0.11400
Mg	Mg	0.46711 0.73356 0.25000 1.48300
N 	N 	0.62000 0.81000 0.25000 -0.21200
C 	C 	0.80920 0.90460 0.25000 0.09800
C 	C 	0.91140 0.95570 0.25000 0.11400
Mg	Mg	0.26645 0.73356 0.25000 1.48300
N 	N 	0.19000 0.81000 0.25000 -0.21200
C 	C 	0.09540 0.90460 0.25000 0.09700
C 	C 	0.04430 0.95570 0.25000 0.11500
Mg	Mg	0.26644 0.53289 0.25000 1.48300
N 	N 	0.19000 0.38000 0.25000 -0.21200
C 	C 	0.09540 0.19080 0.25000 0.09800
C 	C 	0.04430 0.08860 0.25000 0.11400
O 	O 	0.66667 0.33333 0.75000 -0.76400
O 	O 	0.33333 0.66667 0.25000 -0.76300
C 	C 	0.57515 0.15030 0.62850 0.48300
C 	C 	0.53705 0.07410 0.55970 -0.14800
C 	C 	0.84970 0.42485 0.62850 0.48300
C 	C 	0.92590 0.46295 0.55970 -0.14800
C 	C 	0.57515 0.42485 0.62850 0.48300
C 	C 	0.53705 0.46295 0.55970 -0.14800
C 	C 	0.42485 0.84970 0.12850 0.48300
C 	C 	0.46295 0.92590 0.05970 -0.14800
C 	C 	0.15030 0.57515 0.12850 0.48300
C 	C 	0.07410 0.53705 0.05970 -0.14800
C 	C 	0.42485 0.57515 0.12850 0.48300
C 	C 	0.46295 0.53705 0.05970 -0.14800
C 	C 	0.15030 0.57515 0.37150 0.48300
C 	C 	0.07410 0.53705 0.44030 -0.14800
C 	C 	0.42485 0.84970 0.37150 0.48300
C 	C 	0.46295 0.92590 0.44030 -0.14800
C 	C 	0.42485 0.57515 0.37150 0.48300
C 	C 	0.46295 0.53705 0.44030 -0.14800
C 	C 	0.84970 0.42485 0.87150 0.48300
C 	C 	0.92590 0.46295 0.94030 -0.14800
C 	C 	0.57515 0.15030 0.87150 0.48300
C 	C 	0.53705 0.07410 0.94030 -0.14800
C 	C 	0.57515 0.42485 0.87150 0.48300
C 	C 	0.53705 0.46295 0.94030 -0.14800
C 	C 	0.23800 0.18900 0.75000 -0.12200
H 	H 	0.20730 0.22180 0.75000 0.12000
C 	C 	0.33360 0.23390 0.75000 0.14300
H 	H 	0.36590 0.29740 0.75000 0.03200
C 	C 	0.81100 0.04900 0.75000 -0.12100
H 	H 	0.77820 0.98550 0.75000 0.12000
C 	C 	0.76610 0.09970 0.75000 0.14200
H 	H 	0.70260 0.06850 0.75000 0.03200
C 	C 	0.95100 0.76200 0.75000 -0.12200
H 	H 	0.01450 0.79270 0.75000 0.12000
C 	C 	0.90030 0.66640 0.75000 0.14200
H 	H 	0.93150 0.63410 0.75000 0.03200
C 	C 	0.76200 0.81100 0.25000 -0.12200
H 	H 	0.79270 0.77820 0.25000 0.12000
C 	C 	0.66640 0.76610 0.25000 0.14300
H 	H 	0.63410 0.70260 0.25000 0.03200
C 	C 	0.18900 0.95100 0.25000 -0.12100
H 	H 	0.22180 0.01450 0.25000 0.12000
C 	C 	0.23390 0.90030 0.25000 0.14200
H 	H 	0.29740 0.93150 0.25000 0.03200
C 	C 	0.04900 0.23800 0.25000 -0.12200
H 	H 	0.98550 0.20730 0.25000 0.12000
C 	C 	0.09970 0.33360 0.25000 0.14200
H 	H 	0.06850 0.36590 0.25000 0.03200
C 	C 	0.18900 0.23800 0.25000 -0.12200
H 	H 	0.22180 0.20730 0.25000 0.12000
C 	C 	0.23390 0.33360 0.25000 0.14300
H 	H 	0.29740 0.36590 0.25000 0.03200
C 	C 	0.04900 0.81100 0.25000 -0.12100
H 	H 	0.98550 0.77820 0.25000 0.12000
C 	C 	0.09970 0.76610 0.25000 0.14200
H 	H 	0.06850 0.70260 0.25000 0.03200
C 	C 	0.76200 0.95100 0.25000 -0.12200
H 	H 	0.79270 0.01450 0.25000 0.12000
C 	C 	0.66640 0.90030 0.25000 0.14200
H 	H 	0.63410 0.93150 0.25000 0.03200
C 	C 	0.81100 0.76200 0.75000 -0.12200
H 	H 	0.77820 0.79270 0.75000 0.12000
C 	C 	0.76610 0.66640 0.75000 0.14300
H 	H 	0.70260 0.63410 0.75000 0.03200
C 	C 	0.95100 0.18900 0.75000 -0.12100
H 	H 	0.01450 0.22180 0.75000 0.12000
C 	C 	0.90030 0.23390 0.75000 0.14200
H 	H 	0.93150 0.29740 0.75000 0.03200
C 	C 	0.23800 0.04900 0.75000 -0.12200
H 	H 	0.20730 0.98550 0.75000 0.12000
C 	C 	0.33360 0.09970 0.75000 0.14200
H 	H 	0.36590 0.06850 0.75000 0.03200
N 	N 	0.04700 0.95300 0.75000 -0.12600
N 	N 	0.04700 0.09400 0.75000 -0.12600
N 	N 	0.90600 0.95300 0.75000 -0.12600
N 	N 	0.95300 0.04700 0.25000 -0.12600
N 	N 	0.95300 0.90600 0.25000 -0.12600
N 	N 	0.09400 0.04700 0.25000 -0.12600
