data_crystal

_cell_length_a 8.94500
_cell_length_b 14.85600
_cell_length_c 19.86100
_cell_angle_alpha 91.64400
_cell_angle_beta  101.97400
_cell_angle_gamma 93.75500

_symmetry_space_group_name_	'P 1'
_symmetry_space_group_name_H-M	'P 1'

loop_
_symmetry_equiv_pos_as_xyz
  x,y,z

loop_
_atom_site_label
_atom_site_type_symbol
_atom_site_fract_x
_atom_site_fract_y
_atom_site_fract_z
_atom_site_charge
Cd	Cd	0.95981 0.02052 0.27183 1.21500
N 	N 	0.78450 0.96800 0.17891 -0.24200
N 	N 	0.65800 0.89940 0.08237 -0.16100
N 	N 	0.21110 0.54700 0.96044 -0.24300
N 	N 	0.40420 0.63780 0.94616 -0.16600
N 	N 	0.85090 0.91339 0.77785 -0.21700
N 	N 	0.69710 0.86210 0.84331 -0.15600
O 	O 	0.83980 0.52699 0.89670 -0.39100
O 	O 	0.91490 0.67361 0.89670 -0.27100
O 	O 	0.98110 0.13819 0.35219 -0.38300
O 	O 	0.79220 0.15518 0.26364 -0.35600
O 	O 	0.14900 0.87443 0.23842 -0.33900
O 	O 	0.13360 0.94224 0.33649 -0.44100
C 	C 	0.68310 0.88060 0.96325 -0.23300
H 	H 	0.74280 0.93490 0.96700 0.13400
C 	C 	0.62650 0.84820 0.01876 0.19300
C 	C 	0.53660 0.76780 0.01364 -0.33000
H 	H 	0.50020 0.74690 0.05140 0.13800
C 	C 	0.50190 0.71890 0.95103 0.27100
C 	C 	0.55650 0.74860 0.89493 -0.29000
H 	H 	0.53300 0.71540 0.85320 0.14400
C 	C 	0.64720 0.82900 0.90227 0.23200
C 	C 	0.79670 0.92940 0.12041 0.10700
H 	H 	0.88900 0.92320 0.10680 -0.01100
C 	C 	0.63010 0.96320 0.17870 -0.00700
H 	H 	0.58720 0.98540 0.21410 0.01800
C 	C 	0.55030 0.92170 0.11980 0.00900
H 	H 	0.44450 0.91030 0.10690 0.02500
C 	C 	0.27680 0.62860 0.97112 0.11900
H 	H 	0.23920 0.67520 0.99360 -0.02200
C 	C 	0.30250 0.50080 0.92650 0.00900
H 	H 	0.28520 0.44020 0.91220 0.01200
C 	C 	0.42110 0.55590 0.91690 0.01100
H 	H 	0.49880 0.54120 0.89470 0.03500
C 	C 	0.84190 0.89250 0.84038 0.11600
H 	H 	0.92410 0.89780 0.87800 0.00100
C 	C 	0.70550 0.89600 0.73832 -0.00000
H 	H 	0.67750 0.90510 0.69140 0.02600
C 	C 	0.60980 0.86410 0.77742 0.00400
H 	H 	0.50600 0.84680 0.76300 0.03900
C 	C 	0.85780 0.60040 0.86687 0.31900
C 	C 	0.81090 0.59610 0.78944 -0.09600
C 	C 	0.75490 0.51510 0.75288 0.03100
H 	H 	0.73890 0.46340 0.77660 0.03100
C 	C 	0.72320 0.51110 0.68189 -0.10900
H 	H 	0.68750 0.45640 0.65830 0.07200
C 	C 	0.74370 0.58750 0.64482 0.04600
C 	C 	0.79540 0.66880 0.68124 -0.10600
H 	H 	0.80740 0.72090 0.65750 0.08100
C 	C 	0.82910 0.67290 0.75232 0.03400
H 	H 	0.86450 0.72770 0.77580 0.04000
C 	C 	0.70870 0.58080 0.56813 0.04300
C 	C 	0.74650 0.50570 0.53353 -0.09900
H 	H 	0.79640 0.46060 0.55880 0.07100
C 	C 	0.71140 0.49660 0.46210 0.03000
C 	C 	0.63630 0.56470 0.42521 -0.09800
H 	H 	0.61480 0.56010 0.37730 0.06400
C 	C 	0.59240 0.63950 0.45837 0.03800
C 	C 	0.63250 0.64760 0.53003 -0.10500
H 	H 	0.60800 0.69840 0.55280 0.06900
C 	C 	0.75170 0.41520 0.42684 0.08100
C 	C 	0.65710 0.37780 0.36625 -0.14600
H 	H 	0.56610 0.40360 0.34830 0.08500
C 	C 	0.69650 0.30340 0.33269 0.07300
H 	H 	0.63290 0.28090 0.29170 0.01700
C 	C 	0.82850 0.26140 0.35869 -0.14300
C 	C 	0.92260 0.29730 0.41961 0.14400
H 	H 	0.01170 0.27000 0.43830 -0.03200
C 	C 	0.88480 0.37320 0.45260 -0.17200
H 	H 	0.94990 0.39660 0.49290 0.10400
C 	C 	0.87020 0.17920 0.32210 0.32700
C 	C 	0.49630 0.70650 0.41882 0.04600
C 	C 	0.49790 0.72100 0.35010 -0.11700
H 	H 	0.56550 0.69130 0.32900 0.06700
C 	C 	0.40060 0.77910 0.31226 0.03600
H 	H 	0.40290 0.78690 0.26620 0.02100
C 	C 	0.30030 0.82560 0.34222 -0.11500
C 	C 	0.29990 0.81190 0.41080 0.03900
H 	H 	0.23460 0.84300 0.43220 0.02400
C 	C 	0.39470 0.75290 0.44803 -0.11600
H 	H 	0.39010 0.74410 0.49380 0.07200
C 	C 	0.18630 0.88500 0.30190 0.33900
Cd	Cd	0.04019 0.97948 0.72817 1.19500
N 	N 	0.21550 0.03200 0.82109 -0.25200
N 	N 	0.34200 0.10060 0.91763 -0.16400
N 	N 	0.78890 0.45300 0.03956 -0.24300
N 	N 	0.59580 0.36220 0.05384 -0.15800
N 	N 	0.14910 0.08661 0.22215 -0.23500
N 	N 	0.30290 0.13790 0.15669 -0.16100
O 	O 	0.16020 0.47301 0.10330 -0.43100
O 	O 	0.08510 0.32639 0.10330 -0.31000
O 	O 	0.01890 0.86181 0.64781 -0.41300
O 	O 	0.20780 0.84482 0.73636 -0.35800
O 	O 	0.85100 0.12557 0.76158 -0.30800
O 	O 	0.86640 0.05776 0.66351 -0.41100
C 	C 	0.31690 0.11940 0.03675 -0.33700
H 	H 	0.25720 0.06510 0.03300 0.13800
C 	C 	0.37350 0.15180 0.98124 0.26000
C 	C 	0.46340 0.23220 0.98636 -0.23200
H 	H 	0.49980 0.25310 0.94860 0.12400
C 	C 	0.49810 0.28110 0.04897 0.17900
C 	C 	0.44350 0.25140 0.10507 -0.27000
H 	H 	0.46700 0.28460 0.14680 0.13900
C 	C 	0.35280 0.17100 0.09773 0.23900
C 	C 	0.20330 0.07060 0.87959 0.11100
H 	H 	0.11100 0.07680 0.89320 -0.02100
C 	C 	0.36990 0.03680 0.82130 -0.00700
H 	H 	0.41280 0.01460 0.78590 0.01700
C 	C 	0.44970 0.07830 0.88020 0.01300
H 	H 	0.55550 0.08970 0.89310 0.03700
C 	C 	0.72320 0.37140 0.02888 0.10800
H 	H 	0.76080 0.32480 0.00640 -0.02900
C 	C 	0.69750 0.49920 0.07350 0.00600
H 	H 	0.71480 0.55980 0.08780 0.01000
C 	C 	0.57890 0.44410 0.08310 -0.00100
H 	H 	0.50120 0.45880 0.10530 0.03300
C 	C 	0.15810 0.10750 0.15962 0.11400
H 	H 	0.07590 0.10220 0.12200 -0.02800
C 	C 	0.29450 0.10400 0.26168 -0.00100
H 	H 	0.32250 0.09490 0.30860 0.02200
C 	C 	0.39020 0.13590 0.22258 0.00300
H 	H 	0.49400 0.15320 0.23700 0.04100
C 	C 	0.14220 0.39960 0.13313 0.32500
C 	C 	0.18910 0.40390 0.21056 -0.10900
C 	C 	0.24510 0.48490 0.24712 0.03000
H 	H 	0.26110 0.53660 0.22340 0.02300
C 	C 	0.27680 0.48890 0.31811 -0.11400
H 	H 	0.31250 0.54360 0.34170 0.06900
C 	C 	0.25630 0.41250 0.35518 0.03500
C 	C 	0.20460 0.33120 0.31876 -0.11200
H 	H 	0.19260 0.27910 0.34250 0.07000
C 	C 	0.17090 0.32710 0.24768 0.03100
H 	H 	0.13550 0.27230 0.22420 0.02900
C 	C 	0.29130 0.41920 0.43187 0.05200
C 	C 	0.25350 0.49430 0.46647 -0.13200
H 	H 	0.20360 0.53940 0.44120 0.07400
C 	C 	0.28860 0.50340 0.53790 0.06800
C 	C 	0.36370 0.43530 0.57479 -0.13200
H 	H 	0.38520 0.43990 0.62270 0.07200
C 	C 	0.40760 0.36050 0.54163 0.05300
C 	C 	0.36750 0.35240 0.46997 -0.12300
H 	H 	0.39200 0.30160 0.44720 0.07300
C 	C 	0.24830 0.58480 0.57316 -0.01800
C 	C 	0.34290 0.62220 0.63375 -0.05700
H 	H 	0.43390 0.59640 0.65170 0.05200
C 	C 	0.30350 0.69660 0.66731 -0.02700
H 	H 	0.36710 0.71910 0.70830 0.04700
C 	C 	0.17150 0.73860 0.64131 -0.03700
C 	C 	0.07740 0.70270 0.58039 -0.11100
H 	H 	0.98830 0.73000 0.56170 0.11100
C 	C 	0.11520 0.62680 0.54740 -0.02000
H 	H 	0.05010 0.60340 0.50710 0.02600
C 	C 	0.12980 0.82080 0.67790 0.28100
C 	C 	0.50370 0.29350 0.58118 0.02700
C 	C 	0.50210 0.27900 0.64990 -0.10000
H 	H 	0.43450 0.30870 0.67100 0.05600
C 	C 	0.59940 0.22090 0.68774 0.01900
H 	H 	0.59710 0.21310 0.73380 0.03000
C 	C 	0.69970 0.17440 0.65778 -0.09500
C 	C 	0.70010 0.18810 0.58920 0.02300
H 	H 	0.76540 0.15700 0.56780 0.03800
C 	C 	0.60530 0.24710 0.55197 -0.09800
H 	H 	0.60990 0.25590 0.50620 0.06700
C 	C 	0.81370 0.11500 0.69810 0.32800
Cd	Cd	0.00000 0.50000 -0.00000 1.16800
