data_crystal

_cell_length_a 16.68400
_cell_length_b 17.03400
_cell_length_c 20.54500
_cell_angle_alpha 94.16100
_cell_angle_beta  90.00000
_cell_angle_gamma 90.00000

_symmetry_space_group_name_	'P 1'
_symmetry_space_group_name_H-M	'P 1'

loop_
_symmetry_equiv_pos_as_xyz
  x,y,z

loop_
_atom_site_label
_atom_site_type_symbol
_atom_site_fract_x
_atom_site_fract_y
_atom_site_fract_z
_atom_site_charge
K 	K 	0.67250 0.89490 0.90010 0.63300
K 	K 	0.83260 0.41410 0.13778 0.65900
K 	K 	0.67250 0.10510 0.59990 0.63400
K 	K 	0.83260 0.58590 0.36222 0.66000
K 	K 	0.32750 0.10510 0.09990 0.63400
K 	K 	0.16740 0.58590 0.86222 0.66000
K 	K 	0.32750 0.89490 0.40010 0.63400
K 	K 	0.16740 0.41410 0.63778 0.66000
Th	Th	0.79544 0.72439 0.94643 -0.04800
Th	Th	0.79544 0.27561 0.55357 -0.04700
Th	Th	0.20456 0.27561 0.05357 -0.04800
Th	Th	0.20456 0.72439 0.44643 -0.04700
H 	H 	0.87520 0.99910 0.83990 0.05400
H 	H 	0.83470 0.04590 0.95650 0.04700
H 	H 	0.93680 0.97750 0.07900 -0.04300
H 	H 	0.91850 0.90270 0.11770 -0.04500
H 	H 	0.03510 0.88370 0.05730 0.19000
H 	H 	0.98750 0.89590 0.99210 0.20600
H 	H 	0.96990 0.82130 0.03160 0.21600
H 	H 	0.81100 0.03720 0.07400 -0.01900
H 	H 	0.73170 0.98830 0.05890 -0.02300
H 	H 	0.74050 0.02360 0.17230 0.14800
H 	H 	0.82360 0.97910 0.17560 0.15200
H 	H 	0.74380 0.93070 0.16050 0.15600
H 	H 	0.86900 0.76520 0.10300 0.05200
H 	H 	0.75080 0.67220 0.09930 0.07100
H 	H 	0.55990 0.84970 0.06950 -0.04100
H 	H 	0.49320 0.78440 0.07390 -0.04100
H 	H 	0.52750 0.83460 0.17770 0.18300
H 	H 	0.61840 0.81120 0.16510 0.18900
H 	H 	0.55260 0.74470 0.16940 0.19000
H 	H 	0.62440 0.61870 0.03040 -0.01300
H 	H 	0.60410 0.64910 0.10310 -0.03100
H 	H 	0.50170 0.56950 0.06060 0.17200
H 	H 	0.48910 0.62540 0.00310 0.18300
H 	H 	0.46870 0.65610 0.07580 0.18000
H 	H 	0.47070 0.79090 0.95640 0.04800
H 	H 	0.49890 0.75610 0.83420 0.04900
H 	H 	0.61540 0.56440 0.76010 -0.05100
H 	H 	0.60290 0.49460 0.85090 0.18700
H 	H 	0.57680 0.57420 0.88970 0.20300
H 	H 	0.66860 0.55090 0.88470 0.21600
H 	H 	0.56890 0.70820 0.73510 -0.03600
H 	H 	0.63480 0.77350 0.75140 -0.03500
H 	H 	0.65630 0.71310 0.64650 0.17400
H 	H 	0.66530 0.63010 0.67600 0.17200
H 	H 	0.73050 0.69640 0.69170 0.18300
H 	H 	0.79710 0.57610 0.81950 0.05000
H 	H 	0.92390 0.65720 0.82250 0.07500
H 	H 	0.82240 0.86950 0.74590 -0.00900
H 	H 	0.90660 0.91250 0.74770 -0.01500
H 	H 	0.89700 0.82660 0.65200 0.15800
H 	H 	0.88310 0.75420 0.69490 0.16600
H 	H 	0.96710 0.79760 0.69650 0.16200
H 	H 	0.99700 0.79510 0.87060 -0.00600
H 	H 	0.00410 0.77080 0.79530 -0.01800
H 	H 	0.10040 0.86240 0.82700 0.17900
H 	H 	0.03330 0.92330 0.85150 0.18500
H 	H 	0.04170 0.89790 0.77610 0.17600
H 	H 	0.66560 0.09090 0.92090 0.02900
H 	H 	0.62020 0.13500 0.86650 0.04300
H 	H 	0.71490 0.12960 0.86570 0.04800
H 	H 	0.70720 0.06960 0.75840 0.01800
H 	H 	0.61230 0.06890 0.75940 0.00900
H 	H 	0.88000 0.21860 0.02210 0.05100
H 	H 	0.74710 0.18820 0.03530 0.02400
H 	H 	0.64960 0.28060 0.02120 0.02800
H 	H 	0.68480 0.39990 0.98110 0.04400
H 	H 	0.96880 0.29840 0.94430 0.06800
H 	H 	0.01700 0.42800 0.93320 0.04000
H 	H 	0.92410 0.51280 0.90930 0.05300
H 	H 	0.78710 0.46280 0.90910 0.06700
H 	H 	0.64180 0.50000 0.10010 0.07900
H 	H 	0.57360 0.48970 0.15250 0.06900
H 	H 	0.59740 0.41800 0.10270 0.06800
H 	H 	0.61810 0.41720 0.25330 0.07200
H 	H 	0.60190 0.35480 0.19390 0.06900
H 	H 	0.66500 0.29940 0.25980 -0.02500
H 	H 	0.72250 0.37090 0.27560 -0.01000
H 	H 	0.78560 0.19960 0.17460 0.00600
H 	H 	0.69230 0.21120 0.18570 0.01000
H 	H 	0.75010 0.20500 0.24630 0.00800
H 	H 	0.85390 0.33430 0.29650 0.08400
H 	H 	0.90730 0.37980 0.35080 0.08200
H 	H 	0.94840 0.32450 0.29510 0.07200
H 	H 	0.02310 0.43340 0.25670 0.02600
H 	H 	0.98620 0.48710 0.31510 0.02600
H 	H 	0.87520 0.00090 0.66010 0.05500
H 	H 	0.83470 0.95410 0.54350 0.04600
H 	H 	0.93680 0.02250 0.42100 -0.05400
H 	H 	0.91850 0.09730 0.38230 -0.05500
H 	H 	0.03510 0.11630 0.44270 0.20800
H 	H 	0.98750 0.10410 0.50790 0.22600
H 	H 	0.96990 0.17870 0.46840 0.23000
H 	H 	0.81100 0.96280 0.42600 -0.02000
H 	H 	0.73170 0.01170 0.44110 -0.02600
H 	H 	0.74050 0.97640 0.32770 0.15300
H 	H 	0.82360 0.02090 0.32440 0.15500
H 	H 	0.74380 0.06930 0.33950 0.16000
H 	H 	0.86900 0.23480 0.39700 0.05300
H 	H 	0.75080 0.32780 0.40070 0.07000
H 	H 	0.55990 0.15030 0.43050 -0.04200
H 	H 	0.49320 0.21560 0.42610 -0.04100
H 	H 	0.52750 0.16540 0.32230 0.18300
H 	H 	0.61840 0.18880 0.33490 0.18900
H 	H 	0.55260 0.25530 0.33060 0.19100
H 	H 	0.62440 0.38130 0.46960 -0.01400
H 	H 	0.60410 0.35090 0.39690 -0.03100
H 	H 	0.50170 0.43050 0.43940 0.17300
H 	H 	0.48910 0.37460 0.49690 0.18300
H 	H 	0.46870 0.34390 0.42420 0.18100
H 	H 	0.47070 0.20910 0.54360 0.04800
H 	H 	0.49890 0.24390 0.66580 0.04900
H 	H 	0.61540 0.43560 0.73990 -0.05100
H 	H 	0.60290 0.50540 0.64910 0.18700
H 	H 	0.57680 0.42580 0.61030 0.20300
H 	H 	0.66860 0.44910 0.61530 0.21600
H 	H 	0.56890 0.29180 0.76490 -0.03600
H 	H 	0.63480 0.22650 0.74860 -0.03500
H 	H 	0.65630 0.28690 0.85350 0.17400
H 	H 	0.66530 0.36990 0.82400 0.17200
H 	H 	0.73050 0.30360 0.80830 0.18300
H 	H 	0.79710 0.42390 0.68050 0.05000
H 	H 	0.92390 0.34280 0.67750 0.07600
H 	H 	0.82240 0.13050 0.75410 -0.01000
H 	H 	0.90660 0.08750 0.75230 -0.01500
H 	H 	0.89700 0.17340 0.84800 0.15900
H 	H 	0.88310 0.24580 0.80510 0.16600
H 	H 	0.96710 0.20240 0.80350 0.16200
H 	H 	0.99700 0.20490 0.62940 -0.00700
H 	H 	0.00410 0.22920 0.70470 -0.02100
H 	H 	0.10040 0.13760 0.67300 0.18100
H 	H 	0.03330 0.07670 0.64850 0.18700
H 	H 	0.04170 0.10210 0.72390 0.17900
H 	H 	0.66560 0.90910 0.57910 0.02900
H 	H 	0.62020 0.86500 0.63350 0.04300
H 	H 	0.71490 0.87040 0.63430 0.04800
H 	H 	0.70720 0.93040 0.74160 0.01900
H 	H 	0.61230 0.93110 0.74060 0.01000
H 	H 	0.88000 0.78140 0.47790 0.05300
H 	H 	0.74710 0.81180 0.46470 0.02100
H 	H 	0.64960 0.71940 0.47880 0.03100
H 	H 	0.68480 0.60010 0.51890 0.04100
H 	H 	0.96880 0.70160 0.55570 0.07000
H 	H 	0.01700 0.57200 0.56680 0.03400
H 	H 	0.92410 0.48720 0.59070 0.05600
H 	H 	0.78710 0.53720 0.59090 0.06600
H 	H 	0.64180 0.50000 0.39990 0.07900
H 	H 	0.57360 0.51030 0.34750 0.06900
H 	H 	0.59740 0.58200 0.39730 0.06700
H 	H 	0.61810 0.58280 0.24670 0.07200
H 	H 	0.60190 0.64520 0.30610 0.06900
H 	H 	0.66500 0.70060 0.24020 -0.02500
H 	H 	0.72250 0.62910 0.22440 -0.01100
H 	H 	0.78560 0.80040 0.32540 0.00600
H 	H 	0.69230 0.78880 0.31430 0.01000
H 	H 	0.75010 0.79500 0.25370 0.00800
H 	H 	0.85390 0.66570 0.20350 0.08400
H 	H 	0.90730 0.62020 0.14920 0.08200
H 	H 	0.94840 0.67550 0.20490 0.07200
H 	H 	0.02310 0.56660 0.24330 0.02600
H 	H 	0.98620 0.51290 0.18490 0.02700
H 	H 	0.12480 0.00090 0.16010 0.05400
H 	H 	0.16530 0.95410 0.04350 0.04700
H 	H 	0.06320 0.02250 0.92100 -0.04300
H 	H 	0.08150 0.09730 0.88230 -0.04500
H 	H 	0.96490 0.11630 0.94270 0.19000
H 	H 	0.01250 0.10410 0.00790 0.20600
H 	H 	0.03010 0.17870 0.96840 0.21600
H 	H 	0.18900 0.96280 0.92600 -0.01900
H 	H 	0.26830 0.01170 0.94110 -0.02300
H 	H 	0.25950 0.97640 0.82770 0.14800
H 	H 	0.17640 0.02090 0.82440 0.15200
H 	H 	0.25620 0.06930 0.83950 0.15600
H 	H 	0.13100 0.23480 0.89700 0.05200
H 	H 	0.24920 0.32780 0.90070 0.07100
H 	H 	0.44010 0.15030 0.93050 -0.04100
H 	H 	0.50680 0.21560 0.92610 -0.04100
H 	H 	0.47250 0.16540 0.82230 0.18300
H 	H 	0.38160 0.18880 0.83490 0.18900
H 	H 	0.44740 0.25530 0.83060 0.19000
H 	H 	0.37560 0.38130 0.96960 -0.01300
H 	H 	0.39590 0.35090 0.89690 -0.03100
H 	H 	0.49830 0.43050 0.93940 0.17200
H 	H 	0.51090 0.37460 0.99690 0.18300
H 	H 	0.53130 0.34390 0.92420 0.18000
H 	H 	0.52930 0.20910 0.04360 0.04800
H 	H 	0.50110 0.24390 0.16580 0.04900
H 	H 	0.38460 0.43560 0.23990 -0.05100
H 	H 	0.39710 0.50540 0.14910 0.18700
H 	H 	0.42320 0.42580 0.11030 0.20300
H 	H 	0.33140 0.44910 0.11530 0.21600
H 	H 	0.43110 0.29180 0.26490 -0.03600
H 	H 	0.36520 0.22650 0.24860 -0.03500
H 	H 	0.34370 0.28690 0.35350 0.17400
H 	H 	0.33470 0.36990 0.32400 0.17200
H 	H 	0.26950 0.30360 0.30830 0.18300
H 	H 	0.20290 0.42390 0.18050 0.05000
H 	H 	0.07610 0.34280 0.17750 0.07500
H 	H 	0.17760 0.13050 0.25410 -0.00900
H 	H 	0.09340 0.08750 0.25230 -0.01500
H 	H 	0.10300 0.17340 0.34800 0.15800
H 	H 	0.11690 0.24580 0.30510 0.16600
H 	H 	0.03290 0.20240 0.30350 0.16200
H 	H 	0.00300 0.20490 0.12940 -0.00600
H 	H 	0.99590 0.22920 0.20470 -0.01800
H 	H 	0.89960 0.13760 0.17300 0.17900
H 	H 	0.96670 0.07670 0.14850 0.18500
H 	H 	0.95830 0.10210 0.22390 0.17600
H 	H 	0.33440 0.90910 0.07910 0.02900
H 	H 	0.37980 0.86500 0.13350 0.04300
H 	H 	0.28510 0.87040 0.13430 0.04800
H 	H 	0.29280 0.93040 0.24160 0.01800
H 	H 	0.38770 0.93110 0.24060 0.00900
H 	H 	0.12000 0.78140 0.97790 0.05100
H 	H 	0.25290 0.81180 0.96470 0.02400
H 	H 	0.35040 0.71940 0.97880 0.02800
H 	H 	0.31520 0.60010 0.01890 0.04400
H 	H 	0.03120 0.70160 0.05570 0.06800
H 	H 	0.98300 0.57200 0.06680 0.04000
H 	H 	0.07590 0.48720 0.09070 0.05300
H 	H 	0.21290 0.53720 0.09090 0.06700
H 	H 	0.35820 0.50000 0.89990 0.07900
H 	H 	0.42640 0.51030 0.84750 0.06900
H 	H 	0.40260 0.58200 0.89730 0.06800
H 	H 	0.38190 0.58280 0.74670 0.07200
H 	H 	0.39810 0.64520 0.80610 0.06900
H 	H 	0.33500 0.70060 0.74020 -0.02500
H 	H 	0.27750 0.62910 0.72440 -0.01000
H 	H 	0.21440 0.80040 0.82540 0.00600
H 	H 	0.30770 0.78880 0.81430 0.01000
H 	H 	0.24990 0.79500 0.75370 0.00800
H 	H 	0.14610 0.66570 0.70350 0.08400
H 	H 	0.09270 0.62020 0.64920 0.08200
H 	H 	0.05160 0.67550 0.70490 0.07200
H 	H 	0.97690 0.56660 0.74330 0.02600
H 	H 	0.01380 0.51290 0.68490 0.02600
H 	H 	0.12480 0.99910 0.33990 0.05500
H 	H 	0.16530 0.04590 0.45650 0.04600
H 	H 	0.06320 0.97750 0.57900 -0.05400
H 	H 	0.08150 0.90270 0.61770 -0.05500
H 	H 	0.96490 0.88370 0.55730 0.20800
H 	H 	0.01250 0.89590 0.49210 0.22600
H 	H 	0.03010 0.82130 0.53160 0.23000
H 	H 	0.18900 0.03720 0.57400 -0.02000
H 	H 	0.26830 0.98830 0.55890 -0.02600
H 	H 	0.25950 0.02360 0.67230 0.15300
H 	H 	0.17640 0.97910 0.67560 0.15500
H 	H 	0.25620 0.93070 0.66050 0.16000
H 	H 	0.13100 0.76520 0.60300 0.05300
H 	H 	0.24920 0.67220 0.59930 0.07000
H 	H 	0.44010 0.84970 0.56950 -0.04200
H 	H 	0.50680 0.78440 0.57390 -0.04100
H 	H 	0.47250 0.83460 0.67770 0.18300
H 	H 	0.38160 0.81120 0.66510 0.18900
H 	H 	0.44740 0.74470 0.66940 0.19100
H 	H 	0.37560 0.61870 0.53040 -0.01400
H 	H 	0.39590 0.64910 0.60310 -0.03100
H 	H 	0.49830 0.56950 0.56060 0.17300
H 	H 	0.51090 0.62540 0.50310 0.18300
H 	H 	0.53130 0.65610 0.57580 0.18100
H 	H 	0.52930 0.79090 0.45640 0.04800
H 	H 	0.50110 0.75610 0.33420 0.04900
H 	H 	0.38460 0.56440 0.26010 -0.05100
H 	H 	0.39710 0.49460 0.35090 0.18700
H 	H 	0.42320 0.57420 0.38970 0.20300
H 	H 	0.33140 0.55090 0.38470 0.21600
H 	H 	0.43110 0.70820 0.23510 -0.03600
H 	H 	0.36520 0.77350 0.25140 -0.03500
H 	H 	0.34370 0.71310 0.14650 0.17400
H 	H 	0.33470 0.63010 0.17600 0.17200
H 	H 	0.26950 0.69640 0.19170 0.18300
H 	H 	0.20290 0.57610 0.31950 0.05000
H 	H 	0.07610 0.65720 0.32250 0.07600
H 	H 	0.17760 0.86950 0.24590 -0.01000
H 	H 	0.09340 0.91250 0.24770 -0.01500
H 	H 	0.10300 0.82660 0.15200 0.15900
H 	H 	0.11690 0.75420 0.19490 0.16600
H 	H 	0.03290 0.79760 0.19650 0.16200
H 	H 	0.00300 0.79510 0.37060 -0.00700
H 	H 	0.99590 0.77080 0.29530 -0.02100
H 	H 	0.89960 0.86240 0.32700 0.18100
H 	H 	0.96670 0.92330 0.35150 0.18700
H 	H 	0.95830 0.89790 0.27610 0.17900
H 	H 	0.33440 0.09090 0.42090 0.02900
H 	H 	0.37980 0.13500 0.36650 0.04300
H 	H 	0.28510 0.12960 0.36570 0.04800
H 	H 	0.29280 0.06960 0.25840 0.01900
H 	H 	0.38770 0.06890 0.25940 0.01000
H 	H 	0.12000 0.21860 0.52210 0.05300
H 	H 	0.25290 0.18820 0.53530 0.02100
H 	H 	0.35040 0.28060 0.52120 0.03100
H 	H 	0.31520 0.39990 0.48110 0.04100
H 	H 	0.03120 0.29840 0.44430 0.07000
H 	H 	0.98300 0.42800 0.43320 0.03400
H 	H 	0.07590 0.51280 0.40930 0.05600
H 	H 	0.21290 0.46280 0.40910 0.06600
H 	H 	0.35820 0.50000 0.60010 0.07900
H 	H 	0.42640 0.48970 0.65250 0.06900
H 	H 	0.40260 0.41800 0.60270 0.06700
H 	H 	0.38190 0.41720 0.75330 0.07200
H 	H 	0.39810 0.35480 0.69390 0.06900
H 	H 	0.33500 0.29940 0.75980 -0.02500
H 	H 	0.27750 0.37090 0.77560 -0.01100
H 	H 	0.21440 0.19960 0.67460 0.00600
H 	H 	0.30770 0.21120 0.68570 0.01000
H 	H 	0.24990 0.20500 0.74630 0.00800
H 	H 	0.14610 0.33430 0.79650 0.08400
H 	H 	0.09270 0.37980 0.85080 0.08200
H 	H 	0.05160 0.32450 0.79510 0.07200
H 	H 	0.97690 0.43340 0.75670 0.02600
H 	H 	0.01380 0.48710 0.81510 0.02700
C 	C 	0.86860 0.88910 0.87040 0.08000
C 	C 	0.86540 0.96700 0.87430 -0.11200
C 	C 	0.84410 0.99390 0.93980 -0.11100
C 	C 	0.84070 0.92590 0.97320 0.07200
C 	C 	0.83570 0.91780 0.04520 -0.14200
C 	C 	0.92050 0.92210 0.07400 0.19200
C 	C 	0.98390 0.87670 0.03530 -0.60100
C 	C 	0.78420 0.98710 0.08010 0.10400
C 	C 	0.77190 0.97940 0.15400 -0.48400
C 	C 	0.79530 0.84100 0.05580 0.10600
C 	C 	0.81840 0.77430 0.08490 -0.07400
C 	C 	0.75290 0.72210 0.08260 -0.07400
C 	C 	0.69100 0.76000 0.05010 0.11000
C 	C 	0.60190 0.73790 0.04010 -0.15400
C 	C 	0.54970 0.79650 0.08290 0.17500
C 	C 	0.56330 0.79680 0.15520 -0.58300
C 	C 	0.58860 0.65310 0.05740 0.16300
C 	C 	0.50460 0.62340 0.04840 -0.56600
C 	C 	0.58590 0.74300 0.96870 0.08300
C 	C 	0.51700 0.76770 0.93740 -0.11600
C 	C 	0.53390 0.74910 0.86920 -0.12000
C 	C 	0.60720 0.72050 0.86480 0.07600
C 	C 	0.64830 0.67680 0.80690 -0.15700
C 	C 	0.62500 0.59080 0.80110 0.17800
C 	C 	0.61770 0.54900 0.86190 -0.61200
C 	C 	0.62610 0.71660 0.74400 0.15100
C 	C 	0.67390 0.68630 0.68410 -0.54700
C 	C 	0.73730 0.68710 0.81620 0.10200
C 	C 	0.80120 0.63110 0.81910 -0.06300
C 	C 	0.87130 0.67690 0.82130 -0.08800
C 	C 	0.85080 0.75430 0.82150 0.11100
C 	C 	0.89770 0.83020 0.81870 -0.12700
C 	C 	0.88020 0.86140 0.75030 0.09900
C 	C 	0.90960 0.80470 0.69310 -0.49700
C 	C 	0.98910 0.81390 0.82710 0.13800
C 	C 	0.04610 0.88020 0.81980 -0.55500
C 	C 	0.66590 0.10220 0.87530 -0.09000
C 	C 	0.66020 0.03910 0.77030 0.00600
C 	C 	0.84020 0.25490 0.01200 -0.10100
C 	C 	0.76140 0.23780 0.02170 -0.03000
C 	C 	0.70350 0.29160 0.01200 -0.04500
C 	C 	0.72460 0.36250 0.98850 -0.09300
C 	C 	0.80470 0.37910 0.97550 0.01900
C 	C 	0.86230 0.32650 0.98710 0.02500
C 	C 	0.94950 0.34150 0.97520 -0.15900
C 	C 	0.96380 0.41660 0.94420 -0.01300
C 	C 	0.90860 0.46840 0.93080 -0.02800
C 	C 	0.81980 0.45920 0.94900 -0.14900
C 	C 	0.79890 0.53010 0.99720 0.30700
C 	C 	0.00170 0.34020 0.03760 0.30900
C 	C 	0.61750 0.46370 0.12860 -0.17400
C 	C 	0.64360 0.38670 0.21670 -0.14300
C 	C 	0.69600 0.34000 0.24000 0.14800
C 	C 	0.74500 0.22420 0.20310 0.02100
C 	C 	0.90470 0.36090 0.30510 -0.16700
C 	C 	0.97770 0.46760 0.26960 0.00200
C 	C 	0.86860 0.11090 0.62960 0.08100
C 	C 	0.86540 0.03300 0.62570 -0.11300
C 	C 	0.84410 0.00610 0.56020 -0.11000
C 	C 	0.84070 0.07410 0.52680 0.07900
C 	C 	0.83570 0.08220 0.45480 -0.15600
C 	C 	0.92050 0.07790 0.42600 0.22200
C 	C 	0.98390 0.12330 0.46470 -0.65500
C 	C 	0.78420 0.01290 0.41990 0.11200
C 	C 	0.77190 0.02060 0.34600 -0.49600
C 	C 	0.79530 0.15900 0.44420 0.10900
C 	C 	0.81840 0.22570 0.41510 -0.07700
C 	C 	0.75290 0.27790 0.41740 -0.07300
C 	C 	0.69100 0.24000 0.44990 0.10900
C 	C 	0.60190 0.26210 0.45990 -0.15600
C 	C 	0.54970 0.20350 0.41710 0.17700
C 	C 	0.56330 0.20320 0.34480 -0.58400
C 	C 	0.58860 0.34690 0.44260 0.16400
C 	C 	0.50460 0.37660 0.45160 -0.56800
C 	C 	0.58590 0.25700 0.53130 0.08500
C 	C 	0.51700 0.23230 0.56260 -0.11700
C 	C 	0.53390 0.25090 0.63080 -0.11900
C 	C 	0.60720 0.27950 0.63520 0.07600
C 	C 	0.64830 0.32320 0.69310 -0.15700
C 	C 	0.62500 0.40920 0.69890 0.17800
C 	C 	0.61770 0.45100 0.63810 -0.61200
C 	C 	0.62610 0.28340 0.75600 0.15000
C 	C 	0.67390 0.31370 0.81590 -0.54600
C 	C 	0.73730 0.31290 0.68380 0.10200
C 	C 	0.80120 0.36890 0.68090 -0.06200
C 	C 	0.87130 0.32310 0.67870 -0.08800
C 	C 	0.85080 0.24570 0.67850 0.11200
C 	C 	0.89770 0.16980 0.68130 -0.12900
C 	C 	0.88020 0.13860 0.74970 0.10000
C 	C 	0.90960 0.19530 0.80690 -0.49800
C 	C 	0.98910 0.18610 0.67290 0.14500
C 	C 	0.04610 0.11980 0.68020 -0.56300
C 	C 	0.66590 0.89780 0.62470 -0.09000
C 	C 	0.66020 0.96090 0.72970 0.00400
C 	C 	0.84020 0.74510 0.48800 -0.11000
C 	C 	0.76140 0.76220 0.47830 -0.02200
C 	C 	0.70350 0.70840 0.48800 -0.05400
C 	C 	0.72460 0.63750 0.51150 -0.08500
C 	C 	0.80470 0.62090 0.52450 0.01400
C 	C 	0.86230 0.67350 0.51290 0.03300
C 	C 	0.94950 0.65850 0.52480 -0.16700
C 	C 	0.96380 0.58340 0.55580 -0.00200
C 	C 	0.90860 0.53160 0.56920 -0.03400
C 	C 	0.81980 0.54080 0.55100 -0.14500
C 	C 	0.79890 0.46990 0.50280 0.30900
C 	C 	0.00170 0.65980 0.46240 0.31500
C 	C 	0.61750 0.53630 0.37140 -0.17400
C 	C 	0.64360 0.61330 0.28330 -0.14300
C 	C 	0.69600 0.66000 0.26000 0.14800
C 	C 	0.74500 0.77580 0.29690 0.02100
C 	C 	0.90470 0.63910 0.19490 -0.16800
C 	C 	0.97770 0.53240 0.23040 0.00100
C 	C 	0.13140 0.11090 0.12960 0.08000
C 	C 	0.13460 0.03300 0.12570 -0.11200
C 	C 	0.15590 0.00610 0.06020 -0.11100
C 	C 	0.15930 0.07410 0.02680 0.07200
C 	C 	0.16430 0.08220 0.95480 -0.14200
C 	C 	0.07950 0.07790 0.92600 0.19200
C 	C 	0.01610 0.12330 0.96470 -0.60100
C 	C 	0.21580 0.01290 0.91990 0.10400
C 	C 	0.22810 0.02060 0.84600 -0.48400
C 	C 	0.20470 0.15900 0.94420 0.10600
C 	C 	0.18160 0.22570 0.91510 -0.07400
C 	C 	0.24710 0.27790 0.91740 -0.07400
C 	C 	0.30900 0.24000 0.94990 0.11000
C 	C 	0.39810 0.26210 0.95990 -0.15400
C 	C 	0.45030 0.20350 0.91710 0.17500
C 	C 	0.43670 0.20320 0.84480 -0.58300
C 	C 	0.41140 0.34690 0.94260 0.16300
C 	C 	0.49540 0.37660 0.95160 -0.56600
C 	C 	0.41410 0.25700 0.03130 0.08300
C 	C 	0.48300 0.23230 0.06260 -0.11600
C 	C 	0.46610 0.25090 0.13080 -0.12000
C 	C 	0.39280 0.27950 0.13520 0.07600
C 	C 	0.35170 0.32320 0.19310 -0.15700
C 	C 	0.37500 0.40920 0.19890 0.17800
C 	C 	0.38230 0.45100 0.13810 -0.61200
C 	C 	0.37390 0.28340 0.25600 0.15100
C 	C 	0.32610 0.31370 0.31590 -0.54700
C 	C 	0.26270 0.31290 0.18380 0.10200
C 	C 	0.19880 0.36890 0.18090 -0.06300
C 	C 	0.12870 0.32310 0.17870 -0.08800
C 	C 	0.14920 0.24570 0.17850 0.11100
C 	C 	0.10230 0.16980 0.18130 -0.12700
C 	C 	0.11980 0.13860 0.24970 0.09900
C 	C 	0.09040 0.19530 0.30690 -0.49700
C 	C 	0.01090 0.18610 0.17290 0.13800
C 	C 	0.95390 0.11980 0.18020 -0.55500
C 	C 	0.33410 0.89780 0.12470 -0.09000
C 	C 	0.33980 0.96090 0.22970 0.00600
C 	C 	0.15980 0.74510 0.98800 -0.10100
C 	C 	0.23860 0.76220 0.97830 -0.03000
C 	C 	0.29650 0.70840 0.98800 -0.04500
C 	C 	0.27540 0.63750 0.01150 -0.09300
C 	C 	0.19530 0.62090 0.02450 0.01900
C 	C 	0.13770 0.67350 0.01290 0.02500
C 	C 	0.05050 0.65850 0.02480 -0.15900
C 	C 	0.03620 0.58340 0.05580 -0.01300
C 	C 	0.09140 0.53160 0.06920 -0.02800
C 	C 	0.18020 0.54080 0.05100 -0.14900
C 	C 	0.20110 0.46990 0.00280 0.30700
C 	C 	0.99830 0.65980 0.96240 0.30900
C 	C 	0.38250 0.53630 0.87140 -0.17400
C 	C 	0.35640 0.61330 0.78330 -0.14300
C 	C 	0.30400 0.66000 0.76000 0.14800
C 	C 	0.25500 0.77580 0.79690 0.02100
C 	C 	0.09530 0.63910 0.69490 -0.16700
C 	C 	0.02230 0.53240 0.73040 0.00200
C 	C 	0.13140 0.88910 0.37040 0.08100
C 	C 	0.13460 0.96700 0.37430 -0.11300
C 	C 	0.15590 0.99390 0.43980 -0.11000
C 	C 	0.15930 0.92590 0.47320 0.07900
C 	C 	0.16430 0.91780 0.54520 -0.15600
C 	C 	0.07950 0.92210 0.57400 0.22200
C 	C 	0.01610 0.87670 0.53530 -0.65500
C 	C 	0.21580 0.98710 0.58010 0.11200
C 	C 	0.22810 0.97940 0.65400 -0.49600
C 	C 	0.20470 0.84100 0.55580 0.10900
C 	C 	0.18160 0.77430 0.58490 -0.07700
C 	C 	0.24710 0.72210 0.58260 -0.07300
C 	C 	0.30900 0.76000 0.55010 0.10900
C 	C 	0.39810 0.73790 0.54010 -0.15600
C 	C 	0.45030 0.79650 0.58290 0.17700
C 	C 	0.43670 0.79680 0.65520 -0.58400
C 	C 	0.41140 0.65310 0.55740 0.16400
C 	C 	0.49540 0.62340 0.54840 -0.56800
C 	C 	0.41410 0.74300 0.46870 0.08500
C 	C 	0.48300 0.76770 0.43740 -0.11700
C 	C 	0.46610 0.74910 0.36920 -0.11900
C 	C 	0.39280 0.72050 0.36480 0.07600
C 	C 	0.35170 0.67680 0.30690 -0.15700
C 	C 	0.37500 0.59080 0.30110 0.17800
C 	C 	0.38230 0.54900 0.36190 -0.61200
C 	C 	0.37390 0.71660 0.24400 0.15000
C 	C 	0.32610 0.68630 0.18410 -0.54600
C 	C 	0.26270 0.68710 0.31620 0.10200
C 	C 	0.19880 0.63110 0.31910 -0.06200
C 	C 	0.12870 0.67690 0.32130 -0.08800
C 	C 	0.14920 0.75430 0.32150 0.11200
C 	C 	0.10230 0.83020 0.31870 -0.12900
C 	C 	0.11980 0.86140 0.25030 0.10000
C 	C 	0.09040 0.80470 0.19310 -0.49800
C 	C 	0.01090 0.81390 0.32710 0.14500
C 	C 	0.95390 0.88020 0.31980 -0.56300
C 	C 	0.33410 0.10220 0.37530 -0.09000
C 	C 	0.33980 0.03910 0.27030 0.00400
C 	C 	0.15980 0.25490 0.51200 -0.11000
C 	C 	0.23860 0.23780 0.52170 -0.02200
C 	C 	0.29650 0.29160 0.51200 -0.05400
C 	C 	0.27540 0.36250 0.48850 -0.08500
C 	C 	0.19530 0.37910 0.47550 0.01400
C 	C 	0.13770 0.32650 0.48710 0.03300
C 	C 	0.05050 0.34150 0.47520 -0.16700
C 	C 	0.03620 0.41660 0.44420 -0.00200
C 	C 	0.09140 0.46840 0.43080 -0.03400
C 	C 	0.18020 0.45920 0.44900 -0.14500
C 	C 	0.20110 0.53010 0.49720 0.30900
C 	C 	0.99830 0.34020 0.53760 0.31500
C 	C 	0.38250 0.46370 0.62860 -0.17400
C 	C 	0.35640 0.38670 0.71670 -0.14300
C 	C 	0.30400 0.34000 0.74000 0.14800
C 	C 	0.25500 0.22420 0.70310 0.02100
C 	C 	0.09530 0.36090 0.80510 -0.16800
C 	C 	0.02230 0.46760 0.76960 0.00100
N 	N 	0.85010 0.86090 0.93130 -0.13600
N 	N 	0.71880 0.83100 0.03120 -0.16200
N 	N 	0.64460 0.72020 0.92620 -0.13900
N 	N 	0.76850 0.76220 0.82260 -0.15800
N 	N 	0.85010 0.13910 0.56870 -0.13700
N 	N 	0.71880 0.16900 0.46880 -0.16300
N 	N 	0.64460 0.27980 0.57380 -0.13800
N 	N 	0.76850 0.23780 0.67740 -0.15800
N 	N 	0.14990 0.13910 0.06870 -0.13600
N 	N 	0.28120 0.16900 0.96880 -0.16200
N 	N 	0.35540 0.27980 0.07380 -0.13900
N 	N 	0.23150 0.23780 0.17740 -0.15800
N 	N 	0.14990 0.86090 0.43130 -0.13700
N 	N 	0.28120 0.83100 0.53120 -0.16300
N 	N 	0.35540 0.72020 0.42620 -0.13800
N 	N 	0.23150 0.76220 0.32260 -0.15800
O 	O 	0.66140 0.03180 0.83630 -0.24500
O 	O 	0.78490 0.59480 0.96900 -0.22000
O 	O 	0.80030 0.52380 0.05610 -0.31200
O 	O 	0.97320 0.36790 0.08970 -0.31300
O 	O 	0.07310 0.31430 0.02940 -0.22800
O 	O 	0.67550 0.43970 0.17310 -0.16700
O 	O 	0.75490 0.30140 0.20710 -0.27500
O 	O 	0.91100 0.42460 0.26620 -0.19900
O 	O 	0.66140 0.96820 0.66370 -0.24500
O 	O 	0.78490 0.40520 0.53100 -0.22000
O 	O 	0.80030 0.47620 0.44390 -0.31500
O 	O 	0.97320 0.63210 0.41030 -0.31700
O 	O 	0.07310 0.68570 0.47060 -0.22900
O 	O 	0.67550 0.56030 0.32690 -0.16700
O 	O 	0.75490 0.69860 0.29290 -0.27500
O 	O 	0.91100 0.57540 0.23380 -0.19900
O 	O 	0.33860 0.96820 0.16370 -0.24500
O 	O 	0.21510 0.40520 0.03100 -0.22000
O 	O 	0.19970 0.47620 0.94390 -0.31200
O 	O 	0.02680 0.63210 0.91030 -0.31300
O 	O 	0.92690 0.68570 0.97060 -0.22800
O 	O 	0.32450 0.56030 0.82690 -0.16700
O 	O 	0.24510 0.69860 0.79290 -0.27500
O 	O 	0.08900 0.57540 0.73380 -0.19900
O 	O 	0.33860 0.03180 0.33630 -0.24500
O 	O 	0.21510 0.59480 0.46900 -0.22000
O 	O 	0.19970 0.52380 0.55610 -0.31500
O 	O 	0.02680 0.36790 0.58970 -0.31700
O 	O 	0.92690 0.31430 0.52940 -0.22900
O 	O 	0.32450 0.43970 0.67310 -0.16700
O 	O 	0.24510 0.30140 0.70710 -0.27500
O 	O 	0.08900 0.42460 0.76620 -0.19900
