data_crystal

_cell_length_a 10.16500
_cell_length_b 22.00500
_cell_length_c 14.14400
_cell_angle_alpha 91.55000
_cell_angle_beta  90.00000
_cell_angle_gamma 90.00000

_symmetry_space_group_name_	'P 1'
_symmetry_space_group_name_H-M	'P 1'

loop_
_symmetry_equiv_pos_as_xyz
  x,y,z

loop_
_atom_site_label
_atom_site_type_symbol
_atom_site_fract_x
_atom_site_fract_y
_atom_site_fract_z
_atom_site_charge
Eu	Eu	0.74940 0.24940 0.02511 1.97600
Eu	Eu	0.55780 0.25940 0.76737 1.83900
Eu	Eu	0.24940 0.75060 0.47489 1.97800
Eu	Eu	0.05780 0.74060 0.73263 1.83500
Eu	Eu	0.25060 0.75060 0.97489 1.97500
Eu	Eu	0.44220 0.74060 0.23263 1.83800
Eu	Eu	0.75060 0.24940 0.52511 1.97800
Eu	Eu	0.94220 0.25940 0.26737 1.83500
H 	H 	0.68470 0.08430 0.94500 0.19700
H 	H 	0.54360 0.09440 0.98650 0.19600
H 	H 	0.72680 0.99290 0.86340 0.07700
H 	H 	0.65960 0.90310 0.79010 0.05200
H 	H 	0.28660 0.95640 0.81280 0.06500
H 	H 	0.35320 0.04680 0.88370 0.07300
H 	H 	0.49290 0.84240 0.71200 0.16700
H 	H 	0.35230 0.87040 0.69940 0.17100
H 	H 	0.87640 0.34120 0.72220 0.16100
H 	H 	0.01120 0.31480 0.75690 0.15300
H 	H 	0.17240 0.38570 0.81390 0.05100
H 	H 	0.23130 0.48120 0.87070 0.08000
H 	H 	0.85770 0.53350 0.86930 0.07800
H 	H 	0.79620 0.43840 0.81260 0.06300
H 	H 	0.03950 0.58800 0.97080 0.17500
H 	H 	0.18370 0.57520 0.93730 0.17800
H 	H 	0.36290 0.37390 0.08720 0.18400
H 	H 	0.29920 0.37870 0.98650 0.18800
H 	H 	0.42030 0.47200 0.14530 0.07300
H 	H 	0.49040 0.43300 0.87180 0.08300
H 	H 	0.15160 0.13220 0.04990 0.17000
H 	H 	0.08710 0.11520 0.14620 0.18000
H 	H 	0.96640 0.02250 0.15920 0.07900
H 	H 	0.09490 0.07120 0.90420 0.06200
H 	H 	0.18470 0.91570 0.55500 0.19400
H 	H 	0.04360 0.90560 0.51350 0.19400
H 	H 	0.22680 0.00710 0.63660 0.07400
H 	H 	0.15960 0.09690 0.70990 0.05400
H 	H 	0.78660 0.04360 0.68720 0.06800
H 	H 	0.85320 0.95320 0.61630 0.07100
H 	H 	0.99290 0.15760 0.78800 0.16900
H 	H 	0.85230 0.12960 0.80060 0.17400
H 	H 	0.37640 0.65880 0.77780 0.16100
H 	H 	0.51120 0.68520 0.74310 0.15500
H 	H 	0.67240 0.61430 0.68610 0.04700
H 	H 	0.73130 0.51880 0.62930 0.08400
H 	H 	0.35770 0.46650 0.63070 0.08200
H 	H 	0.29620 0.56160 0.68740 0.05900
H 	H 	0.53950 0.41200 0.52920 0.17900
H 	H 	0.68370 0.42480 0.56270 0.18100
H 	H 	0.86290 0.62610 0.41280 0.18400
H 	H 	0.79920 0.62130 0.51350 0.19000
H 	H 	0.92030 0.52800 0.35470 0.07300
H 	H 	0.99040 0.56700 0.62820 0.08400
H 	H 	0.65160 0.86780 0.45010 0.16900
H 	H 	0.58710 0.88480 0.35380 0.18000
H 	H 	0.46640 0.97750 0.34080 0.07800
H 	H 	0.59490 0.92880 0.59580 0.06200
H 	H 	0.31530 0.91570 0.05500 0.19700
H 	H 	0.45640 0.90560 0.01350 0.19600
H 	H 	0.27320 0.00710 0.13660 0.07700
H 	H 	0.34040 0.09690 0.20990 0.05200
H 	H 	0.71340 0.04360 0.18720 0.06500
H 	H 	0.64680 0.95320 0.11630 0.07300
H 	H 	0.50710 0.15760 0.28800 0.16700
H 	H 	0.64770 0.12960 0.30060 0.17100
H 	H 	0.12360 0.65880 0.27780 0.16100
H 	H 	0.98880 0.68520 0.24310 0.15300
H 	H 	0.82760 0.61430 0.18610 0.05100
H 	H 	0.76870 0.51880 0.12930 0.08000
H 	H 	0.14230 0.46650 0.13070 0.07800
H 	H 	0.20380 0.56160 0.18740 0.06300
H 	H 	0.96050 0.41200 0.02920 0.17500
H 	H 	0.81630 0.42480 0.06270 0.17800
H 	H 	0.63710 0.62610 0.91280 0.18400
H 	H 	0.70080 0.62130 0.01350 0.18800
H 	H 	0.57970 0.52800 0.85470 0.07300
H 	H 	0.50960 0.56700 0.12820 0.08300
H 	H 	0.84840 0.86780 0.95010 0.17000
H 	H 	0.91290 0.88480 0.85380 0.18000
H 	H 	0.03360 0.97750 0.84080 0.07900
H 	H 	0.90510 0.92880 0.09580 0.06200
H 	H 	0.81530 0.08430 0.44500 0.19400
H 	H 	0.95640 0.09440 0.48650 0.19400
H 	H 	0.77320 0.99290 0.36340 0.07400
H 	H 	0.84040 0.90310 0.29010 0.05400
H 	H 	0.21340 0.95640 0.31280 0.06800
H 	H 	0.14680 0.04680 0.38370 0.07100
H 	H 	0.00710 0.84240 0.21200 0.16900
H 	H 	0.14770 0.87040 0.19940 0.17400
H 	H 	0.62360 0.34120 0.22220 0.16100
H 	H 	0.48880 0.31480 0.25690 0.15500
H 	H 	0.32760 0.38570 0.31390 0.04700
H 	H 	0.26870 0.48120 0.37070 0.08400
H 	H 	0.64230 0.53350 0.36930 0.08200
H 	H 	0.70380 0.43840 0.31260 0.05900
H 	H 	0.46050 0.58800 0.47080 0.17900
H 	H 	0.31630 0.57520 0.43730 0.18100
H 	H 	0.13710 0.37390 0.58720 0.18400
H 	H 	0.20080 0.37870 0.48650 0.19000
H 	H 	0.07970 0.47200 0.64530 0.07300
H 	H 	0.00960 0.43300 0.37180 0.08400
H 	H 	0.34840 0.13220 0.54990 0.16900
H 	H 	0.41290 0.11520 0.64620 0.18000
H 	H 	0.53360 0.02250 0.65920 0.07800
H 	H 	0.40510 0.07120 0.40420 0.06200
C 	C 	0.57820 0.14506 0.87100 0.53600
C 	C 	0.59270 0.08860 0.92810 -0.54200
C 	C 	0.54760 0.02995 0.88060 0.19900
C 	C 	0.63760 0.98610 0.85270 -0.14400
C 	C 	0.59710 0.93186 0.80880 -0.09500
C 	C 	0.46640 0.92031 0.79270 0.15700
C 	C 	0.37580 0.96370 0.82200 -0.10300
C 	C 	0.41580 0.01800 0.86510 -0.12800
C 	C 	0.41990 0.86140 0.74540 -0.49100
C 	C 	0.36560 0.81792 0.81570 0.50300
C 	C 	0.86460 0.30757 0.85590 0.48000
C 	C 	0.93480 0.33845 0.77620 -0.45700
C 	C 	0.97720 0.40159 0.80910 0.13900
C 	C 	0.10810 0.41510 0.82540 -0.09300
C 	C 	0.14310 0.47270 0.85910 -0.14900
C 	C 	0.05140 0.51720 0.87570 0.19700
C 	C 	0.92150 0.50390 0.85840 -0.13200
C 	C 	0.88440 0.44660 0.82470 -0.09300
C 	C 	0.09340 0.57840 0.91580 -0.52300
C 	C 	0.08480 0.63072 0.84970 0.52600
C 	C 	0.47240 0.33012 0.98350 0.59300
C 	C 	0.38170 0.38027 0.02090 -0.54200
C 	C 	0.44420 0.44206 0.01040 0.18000
C 	C 	0.45200 0.48310 0.08650 -0.11900
C 	C 	0.49380 0.45980 0.92360 -0.12200
C 	C 	0.96470 0.16477 0.06410 0.50400
C 	C 	0.07100 0.11837 0.07890 -0.50700
C 	C 	0.03680 0.05664 0.03830 0.19000
C 	C 	0.98000 0.01368 0.09520 -0.13000
C 	C 	0.05670 0.04259 0.94280 -0.11000
C 	C 	0.07820 0.85494 0.62900 0.53400
C 	C 	0.09270 0.91140 0.57190 -0.53600
C 	C 	0.04760 0.97005 0.61940 0.19000
C 	C 	0.13760 0.01390 0.64730 -0.13400
C 	C 	0.09710 0.06814 0.69120 -0.10400
C 	C 	0.96640 0.07969 0.70730 0.16500
C 	C 	0.87580 0.03630 0.67800 -0.11000
C 	C 	0.91580 0.98200 0.63490 -0.11900
C 	C 	0.91990 0.13860 0.75460 -0.49600
C 	C 	0.86560 0.18208 0.68430 0.50500
C 	C 	0.36460 0.69243 0.64410 0.48000
C 	C 	0.43480 0.66155 0.72380 -0.45700
C 	C 	0.47720 0.59841 0.69090 0.12900
C 	C 	0.60810 0.58490 0.67460 -0.08000
C 	C 	0.64310 0.52730 0.64090 -0.16000
C 	C 	0.55140 0.48280 0.62430 0.21000
C 	C 	0.42150 0.49610 0.64160 -0.14700
C 	C 	0.38440 0.55340 0.67530 -0.08400
C 	C 	0.59340 0.42160 0.58420 -0.53200
C 	C 	0.58480 0.36928 0.65030 0.52900
C 	C 	0.97240 0.66988 0.51650 0.59300
C 	C 	0.88170 0.61973 0.47910 -0.54600
C 	C 	0.94420 0.55794 0.48960 0.18000
C 	C 	0.95200 0.51690 0.41350 -0.12100
C 	C 	0.99380 0.54020 0.57640 -0.12100
C 	C 	0.46470 0.83523 0.43590 0.50700
C 	C 	0.57100 0.88163 0.42110 -0.50800
C 	C 	0.53680 0.94336 0.46170 0.18100
C 	C 	0.48000 0.98632 0.40480 -0.12200
C 	C 	0.55670 0.95741 0.55720 -0.10700
C 	C 	0.42180 0.85494 0.12900 0.53600
C 	C 	0.40730 0.91140 0.07190 -0.54200
C 	C 	0.45240 0.97005 0.11940 0.19900
C 	C 	0.36240 0.01390 0.14730 -0.14400
C 	C 	0.40290 0.06814 0.19120 -0.09500
C 	C 	0.53360 0.07969 0.20730 0.15700
C 	C 	0.62420 0.03630 0.17800 -0.10300
C 	C 	0.58420 0.98200 0.13490 -0.12800
C 	C 	0.58010 0.13860 0.25460 -0.49100
C 	C 	0.63440 0.18208 0.18430 0.50300
C 	C 	0.13540 0.69243 0.14410 0.48000
C 	C 	0.06520 0.66155 0.22380 -0.45700
C 	C 	0.02280 0.59841 0.19090 0.13900
C 	C 	0.89190 0.58490 0.17460 -0.09300
C 	C 	0.85690 0.52730 0.14090 -0.14900
C 	C 	0.94860 0.48280 0.12430 0.19700
C 	C 	0.07850 0.49610 0.14160 -0.13200
C 	C 	0.11560 0.55340 0.17530 -0.09300
C 	C 	0.90660 0.42160 0.08420 -0.52300
C 	C 	0.91520 0.36928 0.15030 0.52600
C 	C 	0.52760 0.66988 0.01650 0.59300
C 	C 	0.61830 0.61973 0.97910 -0.54200
C 	C 	0.55580 0.55794 0.98960 0.18000
C 	C 	0.54800 0.51690 0.91350 -0.11900
C 	C 	0.50620 0.54020 0.07640 -0.12200
C 	C 	0.03530 0.83523 0.93590 0.50400
C 	C 	0.92900 0.88163 0.92110 -0.50700
C 	C 	0.96320 0.94336 0.96170 0.19000
C 	C 	0.02000 0.98632 0.90480 -0.13000
C 	C 	0.94330 0.95741 0.05720 -0.11000
C 	C 	0.92180 0.14506 0.37100 0.53400
C 	C 	0.90730 0.08860 0.42810 -0.53600
C 	C 	0.95240 0.02995 0.38060 0.19000
C 	C 	0.86240 0.98610 0.35270 -0.13400
C 	C 	0.90290 0.93186 0.30880 -0.10400
C 	C 	0.03360 0.92031 0.29270 0.16500
C 	C 	0.12420 0.96370 0.32200 -0.11000
C 	C 	0.08420 0.01800 0.36510 -0.11900
C 	C 	0.08010 0.86140 0.24540 -0.49600
C 	C 	0.13440 0.81792 0.31570 0.50500
C 	C 	0.63540 0.30757 0.35590 0.48000
C 	C 	0.56520 0.33845 0.27620 -0.45700
C 	C 	0.52280 0.40159 0.30910 0.12900
C 	C 	0.39190 0.41510 0.32540 -0.08000
C 	C 	0.35690 0.47270 0.35910 -0.16000
C 	C 	0.44860 0.51720 0.37570 0.21000
C 	C 	0.57850 0.50390 0.35840 -0.14700
C 	C 	0.61560 0.44660 0.32470 -0.08400
C 	C 	0.40660 0.57840 0.41580 -0.53200
C 	C 	0.41520 0.63072 0.34970 0.52900
C 	C 	0.02760 0.33012 0.48350 0.59300
C 	C 	0.11830 0.38027 0.52090 -0.54600
C 	C 	0.05580 0.44206 0.51040 0.18000
C 	C 	0.04800 0.48310 0.58650 -0.12100
C 	C 	0.00620 0.45980 0.42360 -0.12100
C 	C 	0.53530 0.16477 0.56410 0.50700
C 	C 	0.42900 0.11837 0.57890 -0.50800
C 	C 	0.46320 0.05664 0.53830 0.18100
C 	C 	0.52000 0.01368 0.59520 -0.12200
C 	C 	0.44330 0.04259 0.44280 -0.10700
O 	O 	0.63180 0.19401 0.90235 -0.62800
O 	O 	0.51820 0.14588 0.79510 -0.48700
O 	O 	0.26550 0.78578 0.79550 -0.57700
O 	O 	0.42060 0.81280 0.89350 -0.47800
O 	O 	0.74100 0.30805 0.86100 -0.56000
O 	O 	0.93130 0.28358 0.91910 -0.47800
O 	O 	0.16200 0.67509 0.86519 -0.61900
O 	O 	0.00660 0.63223 0.78280 -0.47700
O 	O 	0.44840 0.30630 0.90440 -0.54500
O 	O 	0.56640 0.31628 0.03450 -0.55700
O 	O 	0.97480 0.21672 0.10593 -0.58900
O 	O 	0.86940 0.15293 0.01190 -0.49800
O 	O 	0.13180 0.80599 0.59765 -0.62900
O 	O 	0.01820 0.85412 0.70490 -0.48700
O 	O 	0.76550 0.21422 0.70450 -0.57800
O 	O 	0.92060 0.18720 0.60650 -0.47900
O 	O 	0.24100 0.69195 0.63900 -0.56100
O 	O 	0.43130 0.71642 0.58090 -0.48100
O 	O 	0.66200 0.32491 0.63481 -0.62000
O 	O 	0.50660 0.36777 0.71720 -0.47700
O 	O 	0.94840 0.69370 0.59560 -0.54400
O 	O 	0.06640 0.68372 0.46550 -0.55700
O 	O 	0.47480 0.78328 0.39407 -0.58900
O 	O 	0.36940 0.84707 0.48810 -0.49700
O 	O 	0.36820 0.80599 0.09765 -0.62800
O 	O 	0.48180 0.85412 0.20490 -0.48700
O 	O 	0.73450 0.21422 0.20450 -0.57700
O 	O 	0.57940 0.18720 0.10650 -0.47800
O 	O 	0.25900 0.69195 0.13900 -0.56000
O 	O 	0.06870 0.71642 0.08090 -0.47800
O 	O 	0.83800 0.32491 0.13481 -0.61900
O 	O 	0.99340 0.36777 0.21720 -0.47700
O 	O 	0.55160 0.69370 0.09560 -0.54500
O 	O 	0.43360 0.68372 0.96550 -0.55700
O 	O 	0.02520 0.78328 0.89407 -0.58900
O 	O 	0.13060 0.84707 0.98810 -0.49800
O 	O 	0.86820 0.19401 0.40235 -0.62900
O 	O 	0.98180 0.14588 0.29510 -0.48700
O 	O 	0.23450 0.78578 0.29550 -0.57800
O 	O 	0.07940 0.81280 0.39350 -0.47900
O 	O 	0.75900 0.30805 0.36100 -0.56100
O 	O 	0.56870 0.28358 0.41910 -0.48100
O 	O 	0.33800 0.67509 0.36519 -0.62000
O 	O 	0.49340 0.63223 0.28280 -0.47700
O 	O 	0.05160 0.30630 0.40440 -0.54400
O 	O 	0.93360 0.31628 0.53450 -0.55700
O 	O 	0.52520 0.21672 0.60593 -0.58900
O 	O 	0.63060 0.15293 0.51190 -0.49700
