data_crystal

_cell_length_a 33.64730
_cell_length_b 33.64730
_cell_length_c 33.64730
_cell_angle_alpha 90.00000
_cell_angle_beta  90.00000
_cell_angle_gamma 90.00000

_symmetry_space_group_name_	'P 1'
_symmetry_space_group_name_H-M	'P 1'

loop_
_symmetry_equiv_pos_as_xyz
  x,y,z

loop_
_atom_site_label
_atom_site_type_symbol
_atom_site_fract_x
_atom_site_fract_y
_atom_site_fract_z
_atom_site_charge
C 	C 	0.40820 0.09470 0.49720 0.46100
C 	C 	0.37810 0.12550 0.48650 -0.08900
C 	C 	0.38940 0.16380 0.47290 -0.07700
H 	H 	0.41670 0.17020 0.46990 0.07400
C 	C 	0.36130 0.19130 0.46420 0.11100
C 	C 	0.32020 0.18260 0.46930 -0.03100
C 	C 	0.31050 0.14500 0.48400 -0.06800
H 	H 	0.28340 0.13950 0.48990 0.04800
C 	C 	0.33830 0.11530 0.49050 0.00200
H 	H 	0.33040 0.08910 0.49740 0.03900
C 	C 	0.29130 0.21190 0.46270 -0.03000
C 	C 	0.26490 0.23620 0.46070 -0.03000
O 	O 	0.36770 0.22850 0.44920 -0.20000
C 	C 	0.40760 0.24270 0.44430 -0.08500
H 	H 	0.42140 0.22700 0.42360 0.05600
H 	H 	0.42250 0.24000 0.46950 0.05800
C 	C 	0.40570 0.28520 0.43220 0.16700
C 	C 	0.38210 0.30990 0.46310 -0.24700
H 	H 	0.35420 0.30050 0.46320 0.11100
H 	H 	0.38200 0.33800 0.45450 0.09600
C 	C 	0.37110 0.26860 0.53610 -0.45200
H 	H 	0.38370 0.24270 0.53170 0.16900
H 	H 	0.34450 0.26860 0.52440 0.17500
H 	H 	0.36910 0.27360 0.56480 0.18000
C 	C 	0.44880 0.29960 0.42770 -0.24100
H 	H 	0.46180 0.28330 0.40690 0.09600
H 	H 	0.46290 0.29430 0.45300 0.09600
C 	C 	0.46470 0.37340 0.46460 -0.39300
H 	H 	0.48800 0.36100 0.47690 0.13100
H 	H 	0.44140 0.36920 0.48160 0.13400
H 	H 	0.46940 0.40190 0.46150 0.12700
C 	C 	0.38240 0.29260 0.39370 -0.22000
H 	H 	0.38090 0.32160 0.38920 0.08600
H 	H 	0.35490 0.28270 0.39740 0.09500
C 	C 	0.37000 0.22580 0.34500 0.45900
H 	H 	0.37770 0.20980 0.32140 -0.74400
H 	H 	0.37210 0.20950 0.36860 -0.15200
H 	H 	0.34270 0.23500 0.34130 -0.10600
C 	C 	0.59560 0.09000 0.49260 0.49700
C 	C 	0.62700 0.12050 0.48280 -0.04500
C 	C 	0.61630 0.16130 0.48620 -0.08300
H 	H 	0.58970 0.16820 0.49290 -0.04300
C 	C 	0.64350 0.19010 0.48020 0.00100
C 	C 	0.68160 0.18020 0.46460 0.00900
C 	C 	0.69120 0.14020 0.46020 -0.01400
H 	H 	0.71630 0.13330 0.44930 0.03500
C 	C 	0.66530 0.10980 0.47120 0.01200
H 	H 	0.67350 0.08280 0.47090 0.03200
C 	C 	0.71050 0.20960 0.45750 0.04900
C 	C 	0.73590 0.23520 0.45540 0.00900
O 	O 	0.63590 0.22980 0.48370 -0.20000
C 	C 	0.60430 0.24200 0.50920 -0.27100
H 	H 	0.60790 0.23100 0.53620 1.11500
H 	H 	0.57840 0.23300 0.49860 -1.12800
C 	C 	0.60660 0.28910 0.50990 0.34000
C 	C 	0.64280 0.30170 0.52670 -0.40600
H 	H 	0.64330 0.33110 0.52600 0.15000
H 	H 	0.66450 0.29230 0.50920 0.16300
S 	S 	0.65410 0.28680 0.57500 0.11800
C 	C 	0.70180 0.31410 0.57270 -0.45600
H 	H 	0.71600 0.31090 0.59790 0.17300
H 	H 	0.71800 0.30340 0.55100 0.16500
H 	H 	0.69660 0.34230 0.56790 0.17300
C 	C 	0.57520 0.30070 0.53760 -0.35800
H 	H 	0.57950 0.28650 0.56300 0.17300
H 	H 	0.54940 0.29170 0.52670 0.17000
C 	C 	0.52170 0.36170 0.56930 -0.43400
H 	H 	0.51890 0.39010 0.57530 0.14100
H 	H 	0.50130 0.35380 0.55010 0.14300
H 	H 	0.51850 0.34630 0.59380 0.17000
C 	C 	0.60050 0.30430 0.46770 -0.36600
H 	H 	0.62360 0.29560 0.45160 0.15500
H 	H 	0.60090 0.33370 0.46850 0.14100
C 	C 	0.57350 0.24530 0.41440 -0.46100
H 	H 	0.60170 0.24120 0.42020 0.15400
H 	H 	0.57000 0.24970 0.38580 0.17300
H 	H 	0.55840 0.22170 0.42250 0.14500
O 	O 	0.44550 0.10780 0.49760 -0.63500
O 	O 	0.39660 0.05990 0.50100 -0.66500
O 	O 	0.56000 0.10360 0.49590 -0.64100
O 	O 	0.60630 0.05450 0.49510 -0.67000
S 	S 	0.40110 0.30740 0.51310 0.08900
S 	S 	0.45580 0.35074 0.41530 0.05400
S 	S 	0.40350 0.26900 0.34880 -0.01300
S 	S 	0.57160 0.35230 0.54800 0.09200
S 	S 	0.55530 0.28880 0.44190 0.09300
Zr	Zr	0.50169 0.07346 0.49820 3.25100
O 	O 	0.53200 0.02950 0.46990 -2.57000
Hg	Hg	0.65763 0.38376 0.38919 0.10600
Cl	Cl	0.69730 0.35070 0.43980 -0.34500
Cl	Cl	0.61870 0.34920 0.34350 -0.32900
C 	C 	0.39300 0.23000 0.31100 -0.61000
H 	H 	0.41490 0.22910 0.29220 0.20100
H 	H 	0.38980 0.20470 0.32440 0.82400
H 	H 	0.36830 0.23710 0.29720 0.26400
C 	C 	0.62530 0.12270 0.49000 -0.03600
C 	C 	0.61610 0.16310 0.49760 0.03600
H 	H 	0.58990 0.17090 0.50480 0.10400
C 	C 	0.64550 0.19010 0.49430 0.06400
C 	C 	0.68430 0.17740 0.48350 -0.00500
C 	C 	0.69230 0.13760 0.47620 -0.05100
H 	H 	0.71850 0.12980 0.46900 0.05100
C 	C 	0.66270 0.10900 0.47940 -0.00400
H 	H 	0.66780 0.08160 0.47450 0.01900
C 	C 	0.71470 0.20610 0.48020 -0.04300
C 	C 	0.73720 0.23410 0.47870 -0.00300
O 	O 	0.64350 0.23000 0.50010 -0.08400
H 	H 	0.59580 0.23150 0.53530 -0.93200
H 	H 	0.58550 0.23270 0.48850 1.30800
O 	O 	0.54090 0.03770 0.45570 1.79500
H 	H 	0.55810 0.05380 0.43750 -0.55800
C 	C 	0.09180 0.40530 0.49720 0.46000
C 	C 	0.12190 0.37450 0.48650 -0.09000
C 	C 	0.11060 0.33620 0.47290 -0.07800
H 	H 	0.08330 0.32980 0.46990 0.07300
C 	C 	0.13870 0.30870 0.46420 0.11000
C 	C 	0.17980 0.31740 0.46930 -0.03200
C 	C 	0.18950 0.35500 0.48400 -0.06900
H 	H 	0.21660 0.36050 0.48990 0.04700
C 	C 	0.16170 0.38470 0.49050 0.00100
H 	H 	0.16960 0.41090 0.49740 0.03800
C 	C 	0.20870 0.28810 0.46270 -0.03100
C 	C 	0.23510 0.26380 0.46070 -0.03100
O 	O 	0.13230 0.27150 0.44920 -0.20100
C 	C 	0.09240 0.25730 0.44430 -0.08600
H 	H 	0.07860 0.27300 0.42360 0.05500
H 	H 	0.07750 0.26000 0.46950 0.05700
C 	C 	0.09430 0.21480 0.43220 0.16600
C 	C 	0.11790 0.19010 0.46310 -0.24800
H 	H 	0.14580 0.19950 0.46320 0.11000
H 	H 	0.11800 0.16200 0.45450 0.09500
C 	C 	0.12890 0.23140 0.53610 -0.45300
H 	H 	0.11630 0.25730 0.53170 0.16800
H 	H 	0.15550 0.23140 0.52440 0.17400
H 	H 	0.13090 0.22640 0.56480 0.17900
C 	C 	0.05120 0.20040 0.42770 -0.24200
H 	H 	0.03820 0.21670 0.40690 0.09600
H 	H 	0.03710 0.20570 0.45300 0.09500
C 	C 	0.03530 0.12660 0.46460 -0.39500
H 	H 	0.01200 0.13900 0.47690 0.13000
H 	H 	0.05860 0.13080 0.48160 0.13300
H 	H 	0.03060 0.09810 0.46150 0.12600
C 	C 	0.11760 0.20740 0.39370 -0.22100
H 	H 	0.11910 0.17840 0.38920 0.08600
H 	H 	0.14510 0.21730 0.39740 0.09500
C 	C 	0.13000 0.27420 0.34500 0.45900
H 	H 	0.12230 0.29020 0.32140 -0.74500
H 	H 	0.12790 0.29050 0.36860 -0.15200
H 	H 	0.15730 0.26500 0.34130 -0.10600
C 	C 	0.90440 0.41000 0.49260 0.49700
C 	C 	0.87300 0.37950 0.48280 -0.04500
C 	C 	0.88370 0.33870 0.48620 -0.08300
H 	H 	0.91030 0.33180 0.49290 -0.04300
C 	C 	0.85650 0.30990 0.48020 0.00100
C 	C 	0.81840 0.31980 0.46460 0.00900
C 	C 	0.80880 0.35980 0.46020 -0.01300
H 	H 	0.78370 0.36670 0.44930 0.03500
C 	C 	0.83470 0.39020 0.47120 0.01200
H 	H 	0.82650 0.41720 0.47090 0.03200
C 	C 	0.78950 0.29040 0.45750 0.04900
C 	C 	0.76410 0.26480 0.45540 0.00900
O 	O 	0.86410 0.27020 0.48370 -0.20000
C 	C 	0.89570 0.25800 0.50920 -0.27100
H 	H 	0.89210 0.26900 0.53620 1.11400
H 	H 	0.92160 0.26700 0.49860 -1.12800
C 	C 	0.89340 0.21090 0.50990 0.34000
C 	C 	0.85720 0.19830 0.52670 -0.40600
H 	H 	0.85670 0.16890 0.52600 0.15000
H 	H 	0.83550 0.20770 0.50920 0.16300
S 	S 	0.84590 0.21320 0.57500 0.11800
C 	C 	0.79820 0.18590 0.57270 -0.45600
H 	H 	0.78400 0.18910 0.59790 0.17300
H 	H 	0.78200 0.19660 0.55100 0.16500
H 	H 	0.80340 0.15770 0.56790 0.17300
C 	C 	0.92480 0.19930 0.53760 -0.35800
H 	H 	0.92050 0.21350 0.56300 0.17300
H 	H 	0.95060 0.20830 0.52670 0.17000
C 	C 	0.97830 0.13830 0.56930 -0.43400
H 	H 	0.98110 0.10990 0.57530 0.14100
H 	H 	0.99870 0.14620 0.55010 0.14300
H 	H 	0.98150 0.15370 0.59380 0.17000
C 	C 	0.89950 0.19570 0.46770 -0.36600
H 	H 	0.87640 0.20440 0.45160 0.15500
H 	H 	0.89910 0.16630 0.46850 0.14100
C 	C 	0.92650 0.25470 0.41440 -0.46100
H 	H 	0.89830 0.25880 0.42020 0.15400
H 	H 	0.93000 0.25030 0.38580 0.17300
H 	H 	0.94160 0.27830 0.42250 0.14500
O 	O 	0.05450 0.39220 0.49760 -0.63500
O 	O 	0.10340 0.44010 0.50100 -0.66500
O 	O 	0.94000 0.39640 0.49590 -0.64100
O 	O 	0.89370 0.44550 0.49510 -0.67000
S 	S 	0.09890 0.19260 0.51310 0.08900
S 	S 	0.04420 0.14926 0.41530 0.05400
S 	S 	0.09650 0.23100 0.34880 -0.01300
S 	S 	0.92840 0.14770 0.54800 0.09200
S 	S 	0.94470 0.21120 0.44190 0.09300
Zr	Zr	0.99831 0.42654 0.49820 3.25100
O 	O 	0.96800 0.47050 0.46990 -2.57100
Hg	Hg	0.84237 0.11624 0.38919 0.10600
Cl	Cl	0.80270 0.14930 0.43980 -0.34500
Cl	Cl	0.88130 0.15080 0.34350 -0.32900
C 	C 	0.10700 0.27000 0.31100 -0.61000
H 	H 	0.08510 0.27090 0.29220 0.20100
H 	H 	0.11020 0.29530 0.32440 0.82400
H 	H 	0.13170 0.26290 0.29720 0.26400
C 	C 	0.87470 0.37730 0.49000 -0.03600
C 	C 	0.88390 0.33690 0.49760 0.03600
H 	H 	0.91010 0.32910 0.50480 0.10500
C 	C 	0.85450 0.30990 0.49430 0.06400
C 	C 	0.81570 0.32260 0.48350 -0.00500
C 	C 	0.80770 0.36240 0.47620 -0.05100
H 	H 	0.78150 0.37020 0.46900 0.05100
C 	C 	0.83730 0.39100 0.47940 -0.00400
H 	H 	0.83220 0.41840 0.47450 0.01900
C 	C 	0.78530 0.29390 0.48020 -0.04300
C 	C 	0.76280 0.26590 0.47870 -0.00300
O 	O 	0.85650 0.27000 0.50010 -0.08400
H 	H 	0.90420 0.26850 0.53530 -0.93200
H 	H 	0.91450 0.26730 0.48850 1.30700
O 	O 	0.95910 0.46230 0.45570 1.79700
H 	H 	0.94190 0.44620 0.43750 -0.55800
C 	C 	0.09180 0.09470 0.00280 0.46100
C 	C 	0.12190 0.12550 0.01350 -0.09000
C 	C 	0.11060 0.16380 0.02710 -0.07800
H 	H 	0.08330 0.17020 0.03010 0.07300
C 	C 	0.13870 0.19130 0.03580 0.11000
C 	C 	0.17980 0.18260 0.03070 -0.03200
C 	C 	0.18950 0.14500 0.01600 -0.06900
H 	H 	0.21660 0.13950 0.01010 0.04700
C 	C 	0.16170 0.11530 0.00950 0.00100
H 	H 	0.16960 0.08910 0.00260 0.03800
C 	C 	0.20870 0.21190 0.03730 -0.03100
C 	C 	0.23510 0.23620 0.03930 -0.03100
O 	O 	0.13230 0.22850 0.05080 -0.20100
C 	C 	0.09240 0.24270 0.05570 -0.08600
H 	H 	0.07860 0.22700 0.07640 0.05500
H 	H 	0.07750 0.24000 0.03050 0.05700
C 	C 	0.09430 0.28520 0.06780 0.16600
C 	C 	0.11790 0.30990 0.03690 -0.24800
H 	H 	0.14580 0.30050 0.03680 0.11000
H 	H 	0.11800 0.33800 0.04550 0.09500
C 	C 	0.12890 0.26860 0.96390 -0.45300
H 	H 	0.11630 0.24270 0.96830 0.16800
H 	H 	0.15550 0.26860 0.97560 0.17400
H 	H 	0.13090 0.27360 0.93520 0.17900
C 	C 	0.05120 0.29960 0.07230 -0.24300
H 	H 	0.03820 0.28330 0.09310 0.09600
H 	H 	0.03710 0.29430 0.04700 0.09500
C 	C 	0.03530 0.37340 0.03540 -0.39500
H 	H 	0.01200 0.36100 0.02310 0.13100
H 	H 	0.05860 0.36920 0.01840 0.13300
H 	H 	0.03060 0.40190 0.03850 0.12600
C 	C 	0.11760 0.29260 0.10630 -0.22100
H 	H 	0.11910 0.32160 0.11080 0.08600
H 	H 	0.14510 0.28270 0.10260 0.09500
C 	C 	0.13000 0.22580 0.15500 0.45900
H 	H 	0.12230 0.20980 0.17860 -0.74500
H 	H 	0.12790 0.20950 0.13140 -0.15200
H 	H 	0.15730 0.23500 0.15870 -0.10600
C 	C 	0.90440 0.09000 0.00740 0.49700
C 	C 	0.87300 0.12050 0.01720 -0.04400
C 	C 	0.88370 0.16130 0.01380 -0.08100
H 	H 	0.91030 0.16820 0.00710 -0.03400
C 	C 	0.85650 0.19010 0.01980 0.00200
C 	C 	0.81840 0.18020 0.03540 0.00700
C 	C 	0.80880 0.14020 0.03980 -0.01400
H 	H 	0.78370 0.13330 0.05070 0.03500
C 	C 	0.83470 0.10980 0.02880 0.01200
H 	H 	0.82650 0.08280 0.02910 0.03200
C 	C 	0.78950 0.20960 0.04250 0.04800
C 	C 	0.76410 0.23520 0.04460 0.01000
O 	O 	0.86410 0.22980 0.01630 -0.20100
C 	C 	0.89570 0.24200 0.99080 -0.27000
H 	H 	0.89210 0.23100 0.96380 1.11000
H 	H 	0.92160 0.23300 0.00140 -1.12300
C 	C 	0.89340 0.28910 0.99010 0.34000
C 	C 	0.85720 0.30170 0.97330 -0.40600
H 	H 	0.85670 0.33110 0.97400 0.15000
H 	H 	0.83550 0.29230 0.99080 0.16400
S 	S 	0.84590 0.28680 0.92500 0.11800
C 	C 	0.79820 0.31410 0.92730 -0.45600
H 	H 	0.78400 0.31090 0.90210 0.17300
H 	H 	0.78200 0.30340 0.94900 0.16500
H 	H 	0.80340 0.34230 0.93210 0.17300
C 	C 	0.92480 0.30070 0.96240 -0.35900
H 	H 	0.92050 0.28650 0.93700 0.17300
H 	H 	0.95060 0.29170 0.97330 0.17000
C 	C 	0.97830 0.36170 0.93070 -0.43400
H 	H 	0.98110 0.39010 0.92470 0.14100
H 	H 	0.99870 0.35380 0.94990 0.14300
H 	H 	0.98150 0.34630 0.90620 0.17000
C 	C 	0.89950 0.30430 0.03230 -0.36600
H 	H 	0.87640 0.29560 0.04840 0.15500
H 	H 	0.89910 0.33370 0.03150 0.14100
C 	C 	0.92650 0.24530 0.08560 -0.46100
H 	H 	0.89830 0.24120 0.07980 0.15400
H 	H 	0.93000 0.24970 0.11420 0.17300
H 	H 	0.94160 0.22170 0.07750 0.14500
O 	O 	0.05450 0.10780 0.00240 -0.63400
O 	O 	0.10340 0.05990 0.99900 -0.66600
O 	O 	0.94000 0.10360 0.00410 -0.64100
O 	O 	0.89370 0.05450 0.00490 -0.66900
S 	S 	0.09890 0.30740 0.98690 0.08900
S 	S 	0.04420 0.35074 0.08470 0.05400
S 	S 	0.09650 0.26900 0.15120 -0.01300
S 	S 	0.92840 0.35230 0.95200 0.09200
S 	S 	0.94470 0.28880 0.05810 0.09300
Zr	Zr	0.99831 0.07346 0.00180 3.25100
O 	O 	0.96800 0.02950 0.03010 -2.57000
Hg	Hg	0.84237 0.38376 0.11081 0.10600
Cl	Cl	0.80270 0.35070 0.06020 -0.34500
Cl	Cl	0.88130 0.34920 0.15650 -0.32900
C 	C 	0.10700 0.23000 0.18900 -0.61000
H 	H 	0.08510 0.22910 0.20780 0.20100
H 	H 	0.11020 0.20470 0.17560 0.82400
H 	H 	0.13170 0.23710 0.20280 0.26400
C 	C 	0.87470 0.12270 0.01000 -0.03600
C 	C 	0.88390 0.16310 0.00240 0.03100
H 	H 	0.91010 0.17090 0.99520 0.09700
C 	C 	0.85450 0.19010 0.00570 0.06400
C 	C 	0.81570 0.17740 0.01650 -0.00300
C 	C 	0.80770 0.13760 0.02380 -0.05000
H 	H 	0.78150 0.12980 0.03100 0.05100
C 	C 	0.83730 0.10900 0.02060 -0.00400
H 	H 	0.83220 0.08160 0.02550 0.01900
C 	C 	0.78530 0.20610 0.01980 -0.04100
C 	C 	0.76280 0.23410 0.02130 -0.00400
O 	O 	0.85650 0.23000 0.99990 -0.08200
H 	H 	0.90420 0.23150 0.96470 -0.92700
H 	H 	0.91450 0.23270 0.01150 1.30200
O 	O 	0.95910 0.03770 0.04430 1.79500
H 	H 	0.94190 0.05380 0.06250 -0.55800
C 	C 	0.40820 0.40530 0.00280 0.46100
C 	C 	0.37810 0.37450 0.01350 -0.09000
C 	C 	0.38940 0.33620 0.02710 -0.07800
H 	H 	0.41670 0.32980 0.03010 0.07300
C 	C 	0.36130 0.30870 0.03580 0.11000
C 	C 	0.32020 0.31740 0.03070 -0.03200
C 	C 	0.31050 0.35500 0.01600 -0.06900
H 	H 	0.28340 0.36050 0.01010 0.04700
C 	C 	0.33830 0.38470 0.00950 0.00100
H 	H 	0.33040 0.41090 0.00260 0.03800
C 	C 	0.29130 0.28810 0.03730 -0.03100
C 	C 	0.26490 0.26380 0.03930 -0.03100
O 	O 	0.36770 0.27150 0.05080 -0.20100
C 	C 	0.40760 0.25730 0.05570 -0.08600
H 	H 	0.42140 0.27300 0.07640 0.05500
H 	H 	0.42250 0.26000 0.03050 0.05700
C 	C 	0.40570 0.21480 0.06780 0.16600
C 	C 	0.38210 0.19010 0.03690 -0.24800
H 	H 	0.35420 0.19950 0.03680 0.11000
H 	H 	0.38200 0.16200 0.04550 0.09500
C 	C 	0.37110 0.23140 0.96390 -0.45300
H 	H 	0.38370 0.25730 0.96830 0.16800
H 	H 	0.34450 0.23140 0.97560 0.17400
H 	H 	0.36910 0.22640 0.93520 0.17900
C 	C 	0.44880 0.20040 0.07230 -0.24200
H 	H 	0.46180 0.21670 0.09310 0.09500
H 	H 	0.46290 0.20570 0.04700 0.09500
C 	C 	0.46470 0.12660 0.03540 -0.39500
H 	H 	0.48800 0.13900 0.02310 0.13000
H 	H 	0.44140 0.13080 0.01840 0.13300
H 	H 	0.46940 0.09810 0.03850 0.12600
C 	C 	0.38240 0.20740 0.10630 -0.22100
H 	H 	0.38090 0.17840 0.11080 0.08600
H 	H 	0.35490 0.21730 0.10260 0.09500
C 	C 	0.37000 0.27420 0.15500 0.45900
H 	H 	0.37770 0.29020 0.17860 -0.74400
H 	H 	0.37210 0.29050 0.13140 -0.15200
H 	H 	0.34270 0.26500 0.15870 -0.10600
C 	C 	0.59560 0.41000 0.00740 0.49700
C 	C 	0.62700 0.37950 0.01720 -0.04500
C 	C 	0.61630 0.33870 0.01380 -0.08100
H 	H 	0.58970 0.33180 0.00710 -0.03700
C 	C 	0.64350 0.30990 0.01980 0.00200
C 	C 	0.68160 0.31980 0.03540 0.01000
C 	C 	0.69120 0.35980 0.03980 -0.01300
H 	H 	0.71630 0.36670 0.05070 0.03500
C 	C 	0.66530 0.39020 0.02880 0.01200
H 	H 	0.67350 0.41720 0.02910 0.03200
C 	C 	0.71050 0.29040 0.04250 0.04800
C 	C 	0.73590 0.26480 0.04460 0.00900
O 	O 	0.63590 0.27020 0.01630 -0.20100
C 	C 	0.60430 0.25800 0.99080 -0.27100
H 	H 	0.60790 0.26900 0.96380 1.11100
H 	H 	0.57840 0.26700 0.00140 -1.12400
C 	C 	0.60660 0.21090 0.99010 0.34000
C 	C 	0.64280 0.19830 0.97330 -0.40600
H 	H 	0.64330 0.16890 0.97400 0.15000
H 	H 	0.66450 0.20770 0.99080 0.16300
S 	S 	0.65410 0.21320 0.92500 0.11800
C 	C 	0.70180 0.18590 0.92730 -0.45600
H 	H 	0.71600 0.18910 0.90210 0.17300
H 	H 	0.71800 0.19660 0.94900 0.16500
H 	H 	0.69660 0.15770 0.93210 0.17300
C 	C 	0.57520 0.19930 0.96240 -0.35800
H 	H 	0.57950 0.21350 0.93700 0.17200
H 	H 	0.54940 0.20830 0.97330 0.17000
C 	C 	0.52170 0.13830 0.93070 -0.43400
H 	H 	0.51890 0.10990 0.92470 0.14100
H 	H 	0.50130 0.14620 0.94990 0.14300
H 	H 	0.51850 0.15370 0.90620 0.17000
C 	C 	0.60050 0.19570 0.03230 -0.36600
H 	H 	0.62360 0.20440 0.04840 0.15500
H 	H 	0.60090 0.16630 0.03150 0.14100
C 	C 	0.57350 0.25470 0.08560 -0.46100
H 	H 	0.60170 0.25880 0.07980 0.15400
H 	H 	0.57000 0.25030 0.11420 0.17300
H 	H 	0.55840 0.27830 0.07750 0.14500
O 	O 	0.44550 0.39220 0.00240 -0.63500
O 	O 	0.39660 0.44010 0.99900 -0.66500
O 	O 	0.56000 0.39640 0.00410 -0.64100
O 	O 	0.60630 0.44550 0.00490 -0.66900
S 	S 	0.40110 0.19260 0.98690 0.08900
S 	S 	0.45580 0.14926 0.08470 0.05400
S 	S 	0.40350 0.23100 0.15120 -0.01300
S 	S 	0.57160 0.14770 0.95200 0.09200
S 	S 	0.55530 0.21120 0.05810 0.09300
Zr	Zr	0.50169 0.42654 0.00180 3.25100
O 	O 	0.53200 0.47050 0.03010 -2.56900
Hg	Hg	0.65763 0.11624 0.11081 0.10600
Cl	Cl	0.69730 0.14930 0.06020 -0.34500
Cl	Cl	0.61870 0.15080 0.15650 -0.32900
C 	C 	0.39300 0.27000 0.18900 -0.61000
H 	H 	0.41490 0.27090 0.20780 0.20100
H 	H 	0.38980 0.29530 0.17560 0.82400
H 	H 	0.36830 0.26290 0.20280 0.26400
C 	C 	0.62530 0.37730 0.01000 -0.03600
C 	C 	0.61610 0.33690 0.00240 0.03300
H 	H 	0.58990 0.32910 0.99520 0.10000
C 	C 	0.64550 0.30990 0.00570 0.06300
C 	C 	0.68430 0.32260 0.01650 -0.00600
C 	C 	0.69230 0.36240 0.02380 -0.05200
H 	H 	0.71850 0.37020 0.03100 0.05200
C 	C 	0.66270 0.39100 0.02060 -0.00400
H 	H 	0.66780 0.41840 0.02550 0.01900
C 	C 	0.71470 0.29390 0.01980 -0.04100
C 	C 	0.73720 0.26590 0.02130 -0.00300
O 	O 	0.64350 0.27000 0.99990 -0.08200
H 	H 	0.59580 0.26850 0.96470 -0.92800
H 	H 	0.58550 0.26730 0.01150 1.30300
O 	O 	0.54090 0.46230 0.04430 1.79500
H 	H 	0.55810 0.44620 0.06250 -0.55800
C 	C 	0.49720 0.40820 0.09470 0.46000
C 	C 	0.48650 0.37810 0.12550 -0.09000
C 	C 	0.47290 0.38940 0.16380 -0.07800
H 	H 	0.46990 0.41670 0.17020 0.07300
C 	C 	0.46420 0.36130 0.19130 0.11000
C 	C 	0.46930 0.32020 0.18260 -0.03200
C 	C 	0.48400 0.31050 0.14500 -0.06900
H 	H 	0.48990 0.28340 0.13950 0.04700
C 	C 	0.49050 0.33830 0.11530 0.00100
H 	H 	0.49740 0.33040 0.08910 0.03800
C 	C 	0.46270 0.29130 0.21190 -0.03100
C 	C 	0.46070 0.26490 0.23620 -0.03100
O 	O 	0.44920 0.36770 0.22850 -0.20100
C 	C 	0.44430 0.40760 0.24270 -0.08600
H 	H 	0.42360 0.42140 0.22700 0.05500
H 	H 	0.46950 0.42250 0.24000 0.05700
C 	C 	0.43220 0.40570 0.28520 0.16600
C 	C 	0.46310 0.38210 0.30990 -0.24800
H 	H 	0.46320 0.35420 0.30050 0.11000
H 	H 	0.45450 0.38200 0.33800 0.09500
C 	C 	0.53610 0.37110 0.26860 -0.45300
H 	H 	0.53170 0.38370 0.24270 0.16800
H 	H 	0.52440 0.34450 0.26860 0.17400
H 	H 	0.56480 0.36910 0.27360 0.17900
C 	C 	0.42770 0.44880 0.29960 -0.24200
H 	H 	0.40690 0.46180 0.28330 0.09500
H 	H 	0.45300 0.46290 0.29430 0.09500
C 	C 	0.46460 0.46470 0.37340 -0.39400
H 	H 	0.47690 0.48800 0.36100 0.13000
H 	H 	0.48160 0.44140 0.36920 0.13300
H 	H 	0.46150 0.46940 0.40190 0.12600
C 	C 	0.39370 0.38240 0.29260 -0.22100
H 	H 	0.38920 0.38090 0.32160 0.08600
H 	H 	0.39740 0.35490 0.28270 0.09500
C 	C 	0.34500 0.37000 0.22580 0.45900
H 	H 	0.32140 0.37770 0.20980 -0.74400
H 	H 	0.36860 0.37210 0.20950 -0.15200
H 	H 	0.34130 0.34270 0.23500 -0.10600
C 	C 	0.49260 0.59560 0.09000 0.49700
C 	C 	0.48280 0.62700 0.12050 -0.04500
C 	C 	0.48620 0.61630 0.16130 -0.08300
H 	H 	0.49290 0.58970 0.16820 -0.04300
C 	C 	0.48020 0.64350 0.19010 0.00100
C 	C 	0.46460 0.68160 0.18020 0.00900
C 	C 	0.46020 0.69120 0.14020 -0.01400
H 	H 	0.44930 0.71630 0.13330 0.03500
C 	C 	0.47120 0.66530 0.10980 0.01200
H 	H 	0.47090 0.67350 0.08280 0.03200
C 	C 	0.45750 0.71050 0.20960 0.04900
C 	C 	0.45540 0.73590 0.23520 0.00900
O 	O 	0.48370 0.63590 0.22980 -0.20000
C 	C 	0.50920 0.60430 0.24200 -0.27100
H 	H 	0.53620 0.60790 0.23100 1.11500
H 	H 	0.49860 0.57840 0.23300 -1.12800
C 	C 	0.50990 0.60660 0.28910 0.34000
C 	C 	0.52670 0.64280 0.30170 -0.40600
H 	H 	0.52600 0.64330 0.33110 0.15000
H 	H 	0.50920 0.66450 0.29230 0.16300
S 	S 	0.57500 0.65410 0.28680 0.11800
C 	C 	0.57270 0.70180 0.31410 -0.45600
H 	H 	0.59790 0.71600 0.31090 0.17300
H 	H 	0.55100 0.71800 0.30340 0.16500
H 	H 	0.56790 0.69660 0.34230 0.17300
C 	C 	0.53760 0.57520 0.30070 -0.35800
H 	H 	0.56300 0.57950 0.28650 0.17300
H 	H 	0.52670 0.54940 0.29170 0.17000
C 	C 	0.56930 0.52170 0.36170 -0.43400
H 	H 	0.57530 0.51890 0.39010 0.14100
H 	H 	0.55010 0.50130 0.35380 0.14300
H 	H 	0.59380 0.51850 0.34630 0.17000
C 	C 	0.46770 0.60050 0.30430 -0.36600
H 	H 	0.45160 0.62360 0.29560 0.15500
H 	H 	0.46850 0.60090 0.33370 0.14100
C 	C 	0.41440 0.57350 0.24530 -0.46100
H 	H 	0.42020 0.60170 0.24120 0.15400
H 	H 	0.38580 0.57000 0.24970 0.17300
H 	H 	0.42250 0.55840 0.22170 0.14500
O 	O 	0.49760 0.44550 0.10780 -0.63500
O 	O 	0.50100 0.39660 0.05990 -0.66500
O 	O 	0.49590 0.56000 0.10360 -0.64100
O 	O 	0.49510 0.60630 0.05450 -0.67000
S 	S 	0.51310 0.40110 0.30740 0.08900
S 	S 	0.41530 0.45580 0.35074 0.05400
S 	S 	0.34880 0.40350 0.26900 -0.01300
S 	S 	0.54800 0.57160 0.35230 0.09200
S 	S 	0.44190 0.55530 0.28880 0.09300
Zr	Zr	0.49820 0.50169 0.07346 3.25100
O 	O 	0.46990 0.53200 0.02950 -2.57000
Hg	Hg	0.38919 0.65763 0.38376 0.10600
Cl	Cl	0.43980 0.69730 0.35070 -0.34500
Cl	Cl	0.34350 0.61870 0.34920 -0.32900
C 	C 	0.31100 0.39300 0.23000 -0.61000
H 	H 	0.29220 0.41490 0.22910 0.20100
H 	H 	0.32440 0.38980 0.20470 0.82400
H 	H 	0.29720 0.36830 0.23710 0.26400
C 	C 	0.49000 0.62530 0.12270 -0.03600
C 	C 	0.49760 0.61610 0.16310 0.03600
H 	H 	0.50480 0.58990 0.17090 0.10400
C 	C 	0.49430 0.64550 0.19010 0.06400
C 	C 	0.48350 0.68430 0.17740 -0.00500
C 	C 	0.47620 0.69230 0.13760 -0.05100
H 	H 	0.46900 0.71850 0.12980 0.05100
C 	C 	0.47940 0.66270 0.10900 -0.00400
H 	H 	0.47450 0.66780 0.08160 0.01900
C 	C 	0.48020 0.71470 0.20610 -0.04300
C 	C 	0.47870 0.73720 0.23410 -0.00300
O 	O 	0.50010 0.64350 0.23000 -0.08400
H 	H 	0.53530 0.59580 0.23150 -0.93200
H 	H 	0.48850 0.58550 0.23270 1.30800
O 	O 	0.45570 0.54090 0.03770 1.79500
H 	H 	0.43750 0.55810 0.05380 -0.55800
C 	C 	0.49720 0.09180 0.40530 0.46000
C 	C 	0.48650 0.12190 0.37450 -0.09000
C 	C 	0.47290 0.11060 0.33620 -0.07800
H 	H 	0.46990 0.08330 0.32980 0.07300
C 	C 	0.46420 0.13870 0.30870 0.11000
C 	C 	0.46930 0.17980 0.31740 -0.03200
C 	C 	0.48400 0.18950 0.35500 -0.06900
H 	H 	0.48990 0.21660 0.36050 0.04700
C 	C 	0.49050 0.16170 0.38470 0.00100
H 	H 	0.49740 0.16960 0.41090 0.03800
C 	C 	0.46270 0.20870 0.28810 -0.03100
C 	C 	0.46070 0.23510 0.26380 -0.03100
O 	O 	0.44920 0.13230 0.27150 -0.20100
C 	C 	0.44430 0.09240 0.25730 -0.08600
H 	H 	0.42360 0.07860 0.27300 0.05500
H 	H 	0.46950 0.07750 0.26000 0.05700
C 	C 	0.43220 0.09430 0.21480 0.16600
C 	C 	0.46310 0.11790 0.19010 -0.24800
H 	H 	0.46320 0.14580 0.19950 0.11000
H 	H 	0.45450 0.11800 0.16200 0.09500
C 	C 	0.53610 0.12890 0.23140 -0.45300
H 	H 	0.53170 0.11630 0.25730 0.16800
H 	H 	0.52440 0.15550 0.23140 0.17400
H 	H 	0.56480 0.13090 0.22640 0.17900
C 	C 	0.42770 0.05120 0.20040 -0.24200
H 	H 	0.40690 0.03820 0.21670 0.09600
H 	H 	0.45300 0.03710 0.20570 0.09500
C 	C 	0.46460 0.03530 0.12660 -0.39500
H 	H 	0.47690 0.01200 0.13900 0.13000
H 	H 	0.48160 0.05860 0.13080 0.13300
H 	H 	0.46150 0.03060 0.09810 0.12600
C 	C 	0.39370 0.11760 0.20740 -0.22100
H 	H 	0.38920 0.11910 0.17840 0.08600
H 	H 	0.39740 0.14510 0.21730 0.09500
C 	C 	0.34500 0.13000 0.27420 0.45900
H 	H 	0.32140 0.12230 0.29020 -0.74500
H 	H 	0.36860 0.12790 0.29050 -0.15200
H 	H 	0.34130 0.15730 0.26500 -0.10600
C 	C 	0.49260 0.90440 0.41000 0.49700
C 	C 	0.48280 0.87300 0.37950 -0.04500
C 	C 	0.48620 0.88370 0.33870 -0.08300
H 	H 	0.49290 0.91030 0.33180 -0.04300
C 	C 	0.48020 0.85650 0.30990 0.00100
C 	C 	0.46460 0.81840 0.31980 0.00900
C 	C 	0.46020 0.80880 0.35980 -0.01300
H 	H 	0.44930 0.78370 0.36670 0.03500
C 	C 	0.47120 0.83470 0.39020 0.01200
H 	H 	0.47090 0.82650 0.41720 0.03200
C 	C 	0.45750 0.78950 0.29040 0.04900
C 	C 	0.45540 0.76410 0.26480 0.00900
O 	O 	0.48370 0.86410 0.27020 -0.20000
C 	C 	0.50920 0.89570 0.25800 -0.27100
H 	H 	0.53620 0.89210 0.26900 1.11400
H 	H 	0.49860 0.92160 0.26700 -1.12800
C 	C 	0.50990 0.89340 0.21090 0.34000
C 	C 	0.52670 0.85720 0.19830 -0.40600
H 	H 	0.52600 0.85670 0.16890 0.15000
H 	H 	0.50920 0.83550 0.20770 0.16300
S 	S 	0.57500 0.84590 0.21320 0.11800
C 	C 	0.57270 0.79820 0.18590 -0.45600
H 	H 	0.59790 0.78400 0.18910 0.17300
H 	H 	0.55100 0.78200 0.19660 0.16500
H 	H 	0.56790 0.80340 0.15770 0.17300
C 	C 	0.53760 0.92480 0.19930 -0.35800
H 	H 	0.56300 0.92050 0.21350 0.17300
H 	H 	0.52670 0.95060 0.20830 0.17000
C 	C 	0.56930 0.97830 0.13830 -0.43400
H 	H 	0.57530 0.98110 0.10990 0.14100
H 	H 	0.55010 0.99870 0.14620 0.14300
H 	H 	0.59380 0.98150 0.15370 0.17000
C 	C 	0.46770 0.89950 0.19570 -0.36600
H 	H 	0.45160 0.87640 0.20440 0.15500
H 	H 	0.46850 0.89910 0.16630 0.14100
C 	C 	0.41440 0.92650 0.25470 -0.46100
H 	H 	0.42020 0.89830 0.25880 0.15400
H 	H 	0.38580 0.93000 0.25030 0.17300
H 	H 	0.42250 0.94160 0.27830 0.14500
O 	O 	0.49760 0.05450 0.39220 -0.63500
O 	O 	0.50100 0.10340 0.44010 -0.66500
O 	O 	0.49590 0.94000 0.39640 -0.64100
O 	O 	0.49510 0.89370 0.44550 -0.67000
S 	S 	0.51310 0.09890 0.19260 0.08900
S 	S 	0.41530 0.04420 0.14926 0.05400
S 	S 	0.34880 0.09650 0.23100 -0.01300
S 	S 	0.54800 0.92840 0.14770 0.09200
S 	S 	0.44190 0.94470 0.21120 0.09300
Zr	Zr	0.49820 0.99831 0.42654 3.25100
O 	O 	0.46990 0.96800 0.47050 -2.57100
Hg	Hg	0.38919 0.84237 0.11624 0.10600
Cl	Cl	0.43980 0.80270 0.14930 -0.34500
Cl	Cl	0.34350 0.88130 0.15080 -0.32900
C 	C 	0.31100 0.10700 0.27000 -0.61000
H 	H 	0.29220 0.08510 0.27090 0.20100
H 	H 	0.32440 0.11020 0.29530 0.82400
H 	H 	0.29720 0.13170 0.26290 0.26400
C 	C 	0.49000 0.87470 0.37730 -0.03600
C 	C 	0.49760 0.88390 0.33690 0.03600
H 	H 	0.50480 0.91010 0.32910 0.10500
C 	C 	0.49430 0.85450 0.30990 0.06400
C 	C 	0.48350 0.81570 0.32260 -0.00500
C 	C 	0.47620 0.80770 0.36240 -0.05100
H 	H 	0.46900 0.78150 0.37020 0.05100
C 	C 	0.47940 0.83730 0.39100 -0.00400
H 	H 	0.47450 0.83220 0.41840 0.01900
C 	C 	0.48020 0.78530 0.29390 -0.04300
C 	C 	0.47870 0.76280 0.26590 -0.00300
O 	O 	0.50010 0.85650 0.27000 -0.08400
H 	H 	0.53530 0.90420 0.26850 -0.93200
H 	H 	0.48850 0.91450 0.26730 1.30700
O 	O 	0.45570 0.95910 0.46230 1.79700
H 	H 	0.43750 0.94190 0.44620 -0.55800
C 	C 	0.00280 0.09180 0.09470 0.46100
C 	C 	0.01350 0.12190 0.12550 -0.09000
C 	C 	0.02710 0.11060 0.16380 -0.07800
H 	H 	0.03010 0.08330 0.17020 0.07300
C 	C 	0.03580 0.13870 0.19130 0.11000
C 	C 	0.03070 0.17980 0.18260 -0.03200
C 	C 	0.01600 0.18950 0.14500 -0.06900
H 	H 	0.01010 0.21660 0.13950 0.04700
C 	C 	0.00950 0.16170 0.11530 0.00100
H 	H 	0.00260 0.16960 0.08910 0.03800
C 	C 	0.03730 0.20870 0.21190 -0.03100
C 	C 	0.03930 0.23510 0.23620 -0.03100
O 	O 	0.05080 0.13230 0.22850 -0.20100
C 	C 	0.05570 0.09240 0.24270 -0.08600
H 	H 	0.07640 0.07860 0.22700 0.05500
H 	H 	0.03050 0.07750 0.24000 0.05700
C 	C 	0.06780 0.09430 0.28520 0.16600
C 	C 	0.03690 0.11790 0.30990 -0.24800
H 	H 	0.03680 0.14580 0.30050 0.11000
H 	H 	0.04550 0.11800 0.33800 0.09500
C 	C 	0.96390 0.12890 0.26860 -0.45300
H 	H 	0.96830 0.11630 0.24270 0.16800
H 	H 	0.97560 0.15550 0.26860 0.17400
H 	H 	0.93520 0.13090 0.27360 0.17900
C 	C 	0.07230 0.05120 0.29960 -0.24300
H 	H 	0.09310 0.03820 0.28330 0.09600
H 	H 	0.04700 0.03710 0.29430 0.09500
C 	C 	0.03540 0.03530 0.37340 -0.39500
H 	H 	0.02310 0.01200 0.36100 0.13100
H 	H 	0.01840 0.05860 0.36920 0.13300
H 	H 	0.03850 0.03060 0.40190 0.12600
C 	C 	0.10630 0.11760 0.29260 -0.22100
H 	H 	0.11080 0.11910 0.32160 0.08600
H 	H 	0.10260 0.14510 0.28270 0.09500
C 	C 	0.15500 0.13000 0.22580 0.45900
H 	H 	0.17860 0.12230 0.20980 -0.74500
H 	H 	0.13140 0.12790 0.20950 -0.15200
H 	H 	0.15870 0.15730 0.23500 -0.10600
C 	C 	0.00740 0.90440 0.09000 0.49700
C 	C 	0.01720 0.87300 0.12050 -0.04400
C 	C 	0.01380 0.88370 0.16130 -0.08100
H 	H 	0.00710 0.91030 0.16820 -0.03400
C 	C 	0.01980 0.85650 0.19010 0.00200
C 	C 	0.03540 0.81840 0.18020 0.00700
C 	C 	0.03980 0.80880 0.14020 -0.01400
H 	H 	0.05070 0.78370 0.13330 0.03500
C 	C 	0.02880 0.83470 0.10980 0.01200
H 	H 	0.02910 0.82650 0.08280 0.03200
C 	C 	0.04250 0.78950 0.20960 0.04800
C 	C 	0.04460 0.76410 0.23520 0.01000
O 	O 	0.01630 0.86410 0.22980 -0.20100
C 	C 	0.99080 0.89570 0.24200 -0.27000
H 	H 	0.96380 0.89210 0.23100 1.11000
H 	H 	0.00140 0.92160 0.23300 -1.12300
C 	C 	0.99010 0.89340 0.28910 0.34000
C 	C 	0.97330 0.85720 0.30170 -0.40600
H 	H 	0.97400 0.85670 0.33110 0.15000
H 	H 	0.99080 0.83550 0.29230 0.16400
S 	S 	0.92500 0.84590 0.28680 0.11800
C 	C 	0.92730 0.79820 0.31410 -0.45600
H 	H 	0.90210 0.78400 0.31090 0.17300
H 	H 	0.94900 0.78200 0.30340 0.16500
H 	H 	0.93210 0.80340 0.34230 0.17300
C 	C 	0.96240 0.92480 0.30070 -0.35900
H 	H 	0.93700 0.92050 0.28650 0.17300
H 	H 	0.97330 0.95060 0.29170 0.17000
C 	C 	0.93070 0.97830 0.36170 -0.43400
H 	H 	0.92470 0.98110 0.39010 0.14100
H 	H 	0.94990 0.99870 0.35380 0.14300
H 	H 	0.90620 0.98150 0.34630 0.17000
C 	C 	0.03230 0.89950 0.30430 -0.36600
H 	H 	0.04840 0.87640 0.29560 0.15500
H 	H 	0.03150 0.89910 0.33370 0.14100
C 	C 	0.08560 0.92650 0.24530 -0.46100
H 	H 	0.07980 0.89830 0.24120 0.15400
H 	H 	0.11420 0.93000 0.24970 0.17300
H 	H 	0.07750 0.94160 0.22170 0.14500
O 	O 	0.00240 0.05450 0.10780 -0.63400
O 	O 	0.99900 0.10340 0.05990 -0.66600
O 	O 	0.00410 0.94000 0.10360 -0.64100
O 	O 	0.00490 0.89370 0.05450 -0.66900
S 	S 	0.98690 0.09890 0.30740 0.08900
S 	S 	0.08470 0.04420 0.35074 0.05400
S 	S 	0.15120 0.09650 0.26900 -0.01300
S 	S 	0.95200 0.92840 0.35230 0.09200
S 	S 	0.05810 0.94470 0.28880 0.09300
Zr	Zr	0.00180 0.99831 0.07346 3.25100
O 	O 	0.03010 0.96800 0.02950 -2.57000
Hg	Hg	0.11081 0.84237 0.38376 0.10600
Cl	Cl	0.06020 0.80270 0.35070 -0.34500
Cl	Cl	0.15650 0.88130 0.34920 -0.32900
C 	C 	0.18900 0.10700 0.23000 -0.61000
H 	H 	0.20780 0.08510 0.22910 0.20100
H 	H 	0.17560 0.11020 0.20470 0.82400
H 	H 	0.20280 0.13170 0.23710 0.26400
C 	C 	0.01000 0.87470 0.12270 -0.03600
C 	C 	0.00240 0.88390 0.16310 0.03100
H 	H 	0.99520 0.91010 0.17090 0.09700
C 	C 	0.00570 0.85450 0.19010 0.06400
C 	C 	0.01650 0.81570 0.17740 -0.00300
C 	C 	0.02380 0.80770 0.13760 -0.05000
H 	H 	0.03100 0.78150 0.12980 0.05100
C 	C 	0.02060 0.83730 0.10900 -0.00400
H 	H 	0.02550 0.83220 0.08160 0.01900
C 	C 	0.01980 0.78530 0.20610 -0.04100
C 	C 	0.02130 0.76280 0.23410 -0.00400
O 	O 	0.99990 0.85650 0.23000 -0.08200
H 	H 	0.96470 0.90420 0.23150 -0.92700
H 	H 	0.01150 0.91450 0.23270 1.30200
O 	O 	0.04430 0.95910 0.03770 1.79500
H 	H 	0.06250 0.94190 0.05380 -0.55800
C 	C 	0.00280 0.40820 0.40530 0.46100
C 	C 	0.01350 0.37810 0.37450 -0.09000
C 	C 	0.02710 0.38940 0.33620 -0.07800
H 	H 	0.03010 0.41670 0.32980 0.07300
C 	C 	0.03580 0.36130 0.30870 0.11000
C 	C 	0.03070 0.32020 0.31740 -0.03200
C 	C 	0.01600 0.31050 0.35500 -0.06900
H 	H 	0.01010 0.28340 0.36050 0.04700
C 	C 	0.00950 0.33830 0.38470 0.00100
H 	H 	0.00260 0.33040 0.41090 0.03800
C 	C 	0.03730 0.29130 0.28810 -0.03100
C 	C 	0.03930 0.26490 0.26380 -0.03100
O 	O 	0.05080 0.36770 0.27150 -0.20100
C 	C 	0.05570 0.40760 0.25730 -0.08600
H 	H 	0.07640 0.42140 0.27300 0.05500
H 	H 	0.03050 0.42250 0.26000 0.05700
C 	C 	0.06780 0.40570 0.21480 0.16600
C 	C 	0.03690 0.38210 0.19010 -0.24800
H 	H 	0.03680 0.35420 0.19950 0.11000
H 	H 	0.04550 0.38200 0.16200 0.09500
C 	C 	0.96390 0.37110 0.23140 -0.45300
H 	H 	0.96830 0.38370 0.25730 0.16800
H 	H 	0.97560 0.34450 0.23140 0.17400
H 	H 	0.93520 0.36910 0.22640 0.17900
C 	C 	0.07230 0.44880 0.20040 -0.24200
H 	H 	0.09310 0.46180 0.21670 0.09500
H 	H 	0.04700 0.46290 0.20570 0.09500
C 	C 	0.03540 0.46470 0.12660 -0.39500
H 	H 	0.02310 0.48800 0.13900 0.13000
H 	H 	0.01840 0.44140 0.13080 0.13300
H 	H 	0.03850 0.46940 0.09810 0.12600
C 	C 	0.10630 0.38240 0.20740 -0.22100
H 	H 	0.11080 0.38090 0.17840 0.08600
H 	H 	0.10260 0.35490 0.21730 0.09500
C 	C 	0.15500 0.37000 0.27420 0.45900
H 	H 	0.17860 0.37770 0.29020 -0.74400
H 	H 	0.13140 0.37210 0.29050 -0.15200
H 	H 	0.15870 0.34270 0.26500 -0.10600
C 	C 	0.00740 0.59560 0.41000 0.49700
C 	C 	0.01720 0.62700 0.37950 -0.04500
C 	C 	0.01380 0.61630 0.33870 -0.08100
H 	H 	0.00710 0.58970 0.33180 -0.03700
C 	C 	0.01980 0.64350 0.30990 0.00200
C 	C 	0.03540 0.68160 0.31980 0.01000
C 	C 	0.03980 0.69120 0.35980 -0.01300
H 	H 	0.05070 0.71630 0.36670 0.03500
C 	C 	0.02880 0.66530 0.39020 0.01200
H 	H 	0.02910 0.67350 0.41720 0.03200
C 	C 	0.04250 0.71050 0.29040 0.04800
C 	C 	0.04460 0.73590 0.26480 0.00900
O 	O 	0.01630 0.63590 0.27020 -0.20100
C 	C 	0.99080 0.60430 0.25800 -0.27100
H 	H 	0.96380 0.60790 0.26900 1.11100
H 	H 	0.00140 0.57840 0.26700 -1.12400
C 	C 	0.99010 0.60660 0.21090 0.34000
C 	C 	0.97330 0.64280 0.19830 -0.40600
H 	H 	0.97400 0.64330 0.16890 0.15000
H 	H 	0.99080 0.66450 0.20770 0.16300
S 	S 	0.92500 0.65410 0.21320 0.11800
C 	C 	0.92730 0.70180 0.18590 -0.45600
H 	H 	0.90210 0.71600 0.18910 0.17300
H 	H 	0.94900 0.71800 0.19660 0.16500
H 	H 	0.93210 0.69660 0.15770 0.17300
C 	C 	0.96240 0.57520 0.19930 -0.35800
H 	H 	0.93700 0.57950 0.21350 0.17200
H 	H 	0.97330 0.54940 0.20830 0.17000
C 	C 	0.93070 0.52170 0.13830 -0.43400
H 	H 	0.92470 0.51890 0.10990 0.14100
H 	H 	0.94990 0.50130 0.14620 0.14300
H 	H 	0.90620 0.51850 0.15370 0.17000
C 	C 	0.03230 0.60050 0.19570 -0.36600
H 	H 	0.04840 0.62360 0.20440 0.15500
H 	H 	0.03150 0.60090 0.16630 0.14100
C 	C 	0.08560 0.57350 0.25470 -0.46100
H 	H 	0.07980 0.60170 0.25880 0.15400
H 	H 	0.11420 0.57000 0.25030 0.17300
H 	H 	0.07750 0.55840 0.27830 0.14500
O 	O 	0.00240 0.44550 0.39220 -0.63500
O 	O 	0.99900 0.39660 0.44010 -0.66500
O 	O 	0.00410 0.56000 0.39640 -0.64100
O 	O 	0.00490 0.60630 0.44550 -0.66900
S 	S 	0.98690 0.40110 0.19260 0.08900
S 	S 	0.08470 0.45580 0.14926 0.05400
S 	S 	0.15120 0.40350 0.23100 -0.01300
S 	S 	0.95200 0.57160 0.14770 0.09200
S 	S 	0.05810 0.55530 0.21120 0.09300
Zr	Zr	0.00180 0.50169 0.42654 3.25100
O 	O 	0.03010 0.53200 0.47050 -2.56900
Hg	Hg	0.11081 0.65763 0.11624 0.10600
Cl	Cl	0.06020 0.69730 0.14930 -0.34500
Cl	Cl	0.15650 0.61870 0.15080 -0.32900
C 	C 	0.18900 0.39300 0.27000 -0.61000
H 	H 	0.20780 0.41490 0.27090 0.20100
H 	H 	0.17560 0.38980 0.29530 0.82400
H 	H 	0.20280 0.36830 0.26290 0.26400
C 	C 	0.01000 0.62530 0.37730 -0.03600
C 	C 	0.00240 0.61610 0.33690 0.03300
H 	H 	0.99520 0.58990 0.32910 0.10000
C 	C 	0.00570 0.64550 0.30990 0.06300
C 	C 	0.01650 0.68430 0.32260 -0.00600
C 	C 	0.02380 0.69230 0.36240 -0.05200
H 	H 	0.03100 0.71850 0.37020 0.05200
C 	C 	0.02060 0.66270 0.39100 -0.00400
H 	H 	0.02550 0.66780 0.41840 0.01900
C 	C 	0.01980 0.71470 0.29390 -0.04100
C 	C 	0.02130 0.73720 0.26590 -0.00300
O 	O 	0.99990 0.64350 0.27000 -0.08200
H 	H 	0.96470 0.59580 0.26850 -0.92800
H 	H 	0.01150 0.58550 0.26730 1.30300
O 	O 	0.04430 0.54090 0.46230 1.79500
H 	H 	0.06250 0.55810 0.44620 -0.55800
C 	C 	0.09470 0.49720 0.40820 0.46000
C 	C 	0.12550 0.48650 0.37810 -0.09000
C 	C 	0.16380 0.47290 0.38940 -0.07800
H 	H 	0.17020 0.46990 0.41670 0.07300
C 	C 	0.19130 0.46420 0.36130 0.11000
C 	C 	0.18260 0.46930 0.32020 -0.03200
C 	C 	0.14500 0.48400 0.31050 -0.06900
H 	H 	0.13950 0.48990 0.28340 0.04700
C 	C 	0.11530 0.49050 0.33830 0.00100
H 	H 	0.08910 0.49740 0.33040 0.03800
C 	C 	0.21190 0.46270 0.29130 -0.03100
C 	C 	0.23620 0.46070 0.26490 -0.03100
O 	O 	0.22850 0.44920 0.36770 -0.20100
C 	C 	0.24270 0.44430 0.40760 -0.08600
H 	H 	0.22700 0.42360 0.42140 0.05500
H 	H 	0.24000 0.46950 0.42250 0.05700
C 	C 	0.28520 0.43220 0.40570 0.16600
C 	C 	0.30990 0.46310 0.38210 -0.24800
H 	H 	0.30050 0.46320 0.35420 0.11000
H 	H 	0.33800 0.45450 0.38200 0.09500
C 	C 	0.26860 0.53610 0.37110 -0.45300
H 	H 	0.24270 0.53170 0.38370 0.16800
H 	H 	0.26860 0.52440 0.34450 0.17400
H 	H 	0.27360 0.56480 0.36910 0.17900
C 	C 	0.29960 0.42770 0.44880 -0.24200
H 	H 	0.28330 0.40690 0.46180 0.09500
H 	H 	0.29430 0.45300 0.46290 0.09500
C 	C 	0.37340 0.46460 0.46470 -0.39400
H 	H 	0.36100 0.47690 0.48800 0.13000
H 	H 	0.36920 0.48160 0.44140 0.13300
H 	H 	0.40190 0.46150 0.46940 0.12600
C 	C 	0.29260 0.39370 0.38240 -0.22100
H 	H 	0.32160 0.38920 0.38090 0.08600
H 	H 	0.28270 0.39740 0.35490 0.09500
C 	C 	0.22580 0.34500 0.37000 0.45900
H 	H 	0.20980 0.32140 0.37770 -0.74400
H 	H 	0.20950 0.36860 0.37210 -0.15200
H 	H 	0.23500 0.34130 0.34270 -0.10600
C 	C 	0.09000 0.49260 0.59560 0.49700
C 	C 	0.12050 0.48280 0.62700 -0.04500
C 	C 	0.16130 0.48620 0.61630 -0.08300
H 	H 	0.16820 0.49290 0.58970 -0.04300
C 	C 	0.19010 0.48020 0.64350 0.00100
C 	C 	0.18020 0.46460 0.68160 0.00900
C 	C 	0.14020 0.46020 0.69120 -0.01400
H 	H 	0.13330 0.44930 0.71630 0.03500
C 	C 	0.10980 0.47120 0.66530 0.01200
H 	H 	0.08280 0.47090 0.67350 0.03200
C 	C 	0.20960 0.45750 0.71050 0.04900
C 	C 	0.23520 0.45540 0.73590 0.00900
O 	O 	0.22980 0.48370 0.63590 -0.20000
C 	C 	0.24200 0.50920 0.60430 -0.27100
H 	H 	0.23100 0.53620 0.60790 1.11500
H 	H 	0.23300 0.49860 0.57840 -1.12800
C 	C 	0.28910 0.50990 0.60660 0.34000
C 	C 	0.30170 0.52670 0.64280 -0.40600
H 	H 	0.33110 0.52600 0.64330 0.15000
H 	H 	0.29230 0.50920 0.66450 0.16300
S 	S 	0.28680 0.57500 0.65410 0.11800
C 	C 	0.31410 0.57270 0.70180 -0.45600
H 	H 	0.31090 0.59790 0.71600 0.17300
H 	H 	0.30340 0.55100 0.71800 0.16500
H 	H 	0.34230 0.56790 0.69660 0.17300
C 	C 	0.30070 0.53760 0.57520 -0.35800
H 	H 	0.28650 0.56300 0.57950 0.17300
H 	H 	0.29170 0.52670 0.54940 0.17000
C 	C 	0.36170 0.56930 0.52170 -0.43400
H 	H 	0.39010 0.57530 0.51890 0.14100
H 	H 	0.35380 0.55010 0.50130 0.14300
H 	H 	0.34630 0.59380 0.51850 0.17000
C 	C 	0.30430 0.46770 0.60050 -0.36600
H 	H 	0.29560 0.45160 0.62360 0.15500
H 	H 	0.33370 0.46850 0.60090 0.14100
C 	C 	0.24530 0.41440 0.57350 -0.46100
H 	H 	0.24120 0.42020 0.60170 0.15400
H 	H 	0.24970 0.38580 0.57000 0.17300
H 	H 	0.22170 0.42250 0.55840 0.14500
O 	O 	0.10780 0.49760 0.44550 -0.63500
O 	O 	0.05990 0.50100 0.39660 -0.66500
O 	O 	0.10360 0.49590 0.56000 -0.64100
O 	O 	0.05450 0.49510 0.60630 -0.67000
S 	S 	0.30740 0.51310 0.40110 0.08900
S 	S 	0.35074 0.41530 0.45580 0.05400
S 	S 	0.26900 0.34880 0.40350 -0.01300
S 	S 	0.35230 0.54800 0.57160 0.09200
S 	S 	0.28880 0.44190 0.55530 0.09300
Zr	Zr	0.07346 0.49820 0.50169 3.25100
O 	O 	0.02950 0.46990 0.53200 -2.57000
Hg	Hg	0.38376 0.38919 0.65763 0.10600
Cl	Cl	0.35070 0.43980 0.69730 -0.34500
Cl	Cl	0.34920 0.34350 0.61870 -0.32900
C 	C 	0.23000 0.31100 0.39300 -0.61000
H 	H 	0.22910 0.29220 0.41490 0.20100
H 	H 	0.20470 0.32440 0.38980 0.82400
H 	H 	0.23710 0.29720 0.36830 0.26400
C 	C 	0.12270 0.49000 0.62530 -0.03600
C 	C 	0.16310 0.49760 0.61610 0.03600
H 	H 	0.17090 0.50480 0.58990 0.10400
C 	C 	0.19010 0.49430 0.64550 0.06400
C 	C 	0.17740 0.48350 0.68430 -0.00500
C 	C 	0.13760 0.47620 0.69230 -0.05100
H 	H 	0.12980 0.46900 0.71850 0.05100
C 	C 	0.10900 0.47940 0.66270 -0.00400
H 	H 	0.08160 0.47450 0.66780 0.01900
C 	C 	0.20610 0.48020 0.71470 -0.04300
C 	C 	0.23410 0.47870 0.73720 -0.00300
O 	O 	0.23000 0.50010 0.64350 -0.08400
H 	H 	0.23150 0.53530 0.59580 -0.93200
H 	H 	0.23270 0.48850 0.58550 1.30800
O 	O 	0.03770 0.45570 0.54090 1.79500
H 	H 	0.05380 0.43750 0.55810 -0.55800
C 	C 	0.40530 0.49720 0.09180 0.46000
C 	C 	0.37450 0.48650 0.12190 -0.09000
C 	C 	0.33620 0.47290 0.11060 -0.07800
H 	H 	0.32980 0.46990 0.08330 0.07300
C 	C 	0.30870 0.46420 0.13870 0.11000
C 	C 	0.31740 0.46930 0.17980 -0.03200
C 	C 	0.35500 0.48400 0.18950 -0.06900
H 	H 	0.36050 0.48990 0.21660 0.04700
C 	C 	0.38470 0.49050 0.16170 0.00100
H 	H 	0.41090 0.49740 0.16960 0.03800
C 	C 	0.28810 0.46270 0.20870 -0.03100
C 	C 	0.26380 0.46070 0.23510 -0.03100
O 	O 	0.27150 0.44920 0.13230 -0.20100
C 	C 	0.25730 0.44430 0.09240 -0.08600
H 	H 	0.27300 0.42360 0.07860 0.05500
H 	H 	0.26000 0.46950 0.07750 0.05700
C 	C 	0.21480 0.43220 0.09430 0.16600
C 	C 	0.19010 0.46310 0.11790 -0.24800
H 	H 	0.19950 0.46320 0.14580 0.11000
H 	H 	0.16200 0.45450 0.11800 0.09500
C 	C 	0.23140 0.53610 0.12890 -0.45300
H 	H 	0.25730 0.53170 0.11630 0.16800
H 	H 	0.23140 0.52440 0.15550 0.17400
H 	H 	0.22640 0.56480 0.13090 0.17900
C 	C 	0.20040 0.42770 0.05120 -0.24200
H 	H 	0.21670 0.40690 0.03820 0.09600
H 	H 	0.20570 0.45300 0.03710 0.09500
C 	C 	0.12660 0.46460 0.03530 -0.39500
H 	H 	0.13900 0.47690 0.01200 0.13000
H 	H 	0.13080 0.48160 0.05860 0.13300
H 	H 	0.09810 0.46150 0.03060 0.12600
C 	C 	0.20740 0.39370 0.11760 -0.22100
H 	H 	0.17840 0.38920 0.11910 0.08600
H 	H 	0.21730 0.39740 0.14510 0.09500
C 	C 	0.27420 0.34500 0.13000 0.45900
H 	H 	0.29020 0.32140 0.12230 -0.74500
H 	H 	0.29050 0.36860 0.12790 -0.15200
H 	H 	0.26500 0.34130 0.15730 -0.10600
C 	C 	0.41000 0.49260 0.90440 0.49700
C 	C 	0.37950 0.48280 0.87300 -0.04500
C 	C 	0.33870 0.48620 0.88370 -0.08300
H 	H 	0.33180 0.49290 0.91030 -0.04300
C 	C 	0.30990 0.48020 0.85650 0.00100
C 	C 	0.31980 0.46460 0.81840 0.00900
C 	C 	0.35980 0.46020 0.80880 -0.01300
H 	H 	0.36670 0.44930 0.78370 0.03500
C 	C 	0.39020 0.47120 0.83470 0.01200
H 	H 	0.41720 0.47090 0.82650 0.03200
C 	C 	0.29040 0.45750 0.78950 0.04900
C 	C 	0.26480 0.45540 0.76410 0.00900
O 	O 	0.27020 0.48370 0.86410 -0.20000
C 	C 	0.25800 0.50920 0.89570 -0.27100
H 	H 	0.26900 0.53620 0.89210 1.11400
H 	H 	0.26700 0.49860 0.92160 -1.12800
C 	C 	0.21090 0.50990 0.89340 0.34000
C 	C 	0.19830 0.52670 0.85720 -0.40600
H 	H 	0.16890 0.52600 0.85670 0.15000
H 	H 	0.20770 0.50920 0.83550 0.16300
S 	S 	0.21320 0.57500 0.84590 0.11800
C 	C 	0.18590 0.57270 0.79820 -0.45600
H 	H 	0.18910 0.59790 0.78400 0.17300
H 	H 	0.19660 0.55100 0.78200 0.16500
H 	H 	0.15770 0.56790 0.80340 0.17300
C 	C 	0.19930 0.53760 0.92480 -0.35800
H 	H 	0.21350 0.56300 0.92050 0.17300
H 	H 	0.20830 0.52670 0.95060 0.17000
C 	C 	0.13830 0.56930 0.97830 -0.43400
H 	H 	0.10990 0.57530 0.98110 0.14100
H 	H 	0.14620 0.55010 0.99870 0.14300
H 	H 	0.15370 0.59380 0.98150 0.17000
C 	C 	0.19570 0.46770 0.89950 -0.36600
H 	H 	0.20440 0.45160 0.87640 0.15500
H 	H 	0.16630 0.46850 0.89910 0.14100
C 	C 	0.25470 0.41440 0.92650 -0.46100
H 	H 	0.25880 0.42020 0.89830 0.15400
H 	H 	0.25030 0.38580 0.93000 0.17300
H 	H 	0.27830 0.42250 0.94160 0.14500
O 	O 	0.39220 0.49760 0.05450 -0.63500
O 	O 	0.44010 0.50100 0.10340 -0.66500
O 	O 	0.39640 0.49590 0.94000 -0.64100
O 	O 	0.44550 0.49510 0.89370 -0.67000
S 	S 	0.19260 0.51310 0.09890 0.08900
S 	S 	0.14926 0.41530 0.04420 0.05400
S 	S 	0.23100 0.34880 0.09650 -0.01300
S 	S 	0.14770 0.54800 0.92840 0.09200
S 	S 	0.21120 0.44190 0.94470 0.09300
Zr	Zr	0.42654 0.49820 0.99831 3.25100
O 	O 	0.47050 0.46990 0.96800 -2.57100
Hg	Hg	0.11624 0.38919 0.84237 0.10600
Cl	Cl	0.14930 0.43980 0.80270 -0.34500
Cl	Cl	0.15080 0.34350 0.88130 -0.32900
C 	C 	0.27000 0.31100 0.10700 -0.61000
H 	H 	0.27090 0.29220 0.08510 0.20100
H 	H 	0.29530 0.32440 0.11020 0.82400
H 	H 	0.26290 0.29720 0.13170 0.26400
C 	C 	0.37730 0.49000 0.87470 -0.03600
C 	C 	0.33690 0.49760 0.88390 0.03600
H 	H 	0.32910 0.50480 0.91010 0.10500
C 	C 	0.30990 0.49430 0.85450 0.06400
C 	C 	0.32260 0.48350 0.81570 -0.00500
C 	C 	0.36240 0.47620 0.80770 -0.05100
H 	H 	0.37020 0.46900 0.78150 0.05100
C 	C 	0.39100 0.47940 0.83730 -0.00400
H 	H 	0.41840 0.47450 0.83220 0.01900
C 	C 	0.29390 0.48020 0.78530 -0.04300
C 	C 	0.26590 0.47870 0.76280 -0.00300
O 	O 	0.27000 0.50010 0.85650 -0.08400
H 	H 	0.26850 0.53530 0.90420 -0.93200
H 	H 	0.26730 0.48850 0.91450 1.30700
O 	O 	0.46230 0.45570 0.95910 1.79700
H 	H 	0.44620 0.43750 0.94190 -0.55800
C 	C 	0.09470 0.00280 0.09180 0.46100
C 	C 	0.12550 0.01350 0.12190 -0.09000
C 	C 	0.16380 0.02710 0.11060 -0.07800
H 	H 	0.17020 0.03010 0.08330 0.07300
C 	C 	0.19130 0.03580 0.13870 0.11000
C 	C 	0.18260 0.03070 0.17980 -0.03200
C 	C 	0.14500 0.01600 0.18950 -0.06900
H 	H 	0.13950 0.01010 0.21660 0.04700
C 	C 	0.11530 0.00950 0.16170 0.00100
H 	H 	0.08910 0.00260 0.16960 0.03800
C 	C 	0.21190 0.03730 0.20870 -0.03100
C 	C 	0.23620 0.03930 0.23510 -0.03100
O 	O 	0.22850 0.05080 0.13230 -0.20100
C 	C 	0.24270 0.05570 0.09240 -0.08600
H 	H 	0.22700 0.07640 0.07860 0.05500
H 	H 	0.24000 0.03050 0.07750 0.05700
C 	C 	0.28520 0.06780 0.09430 0.16600
C 	C 	0.30990 0.03690 0.11790 -0.24800
H 	H 	0.30050 0.03680 0.14580 0.11000
H 	H 	0.33800 0.04550 0.11800 0.09500
C 	C 	0.26860 0.96390 0.12890 -0.45300
H 	H 	0.24270 0.96830 0.11630 0.16800
H 	H 	0.26860 0.97560 0.15550 0.17400
H 	H 	0.27360 0.93520 0.13090 0.17900
C 	C 	0.29960 0.07230 0.05120 -0.24300
H 	H 	0.28330 0.09310 0.03820 0.09600
H 	H 	0.29430 0.04700 0.03710 0.09500
C 	C 	0.37340 0.03540 0.03530 -0.39500
H 	H 	0.36100 0.02310 0.01200 0.13100
H 	H 	0.36920 0.01840 0.05860 0.13300
H 	H 	0.40190 0.03850 0.03060 0.12600
C 	C 	0.29260 0.10630 0.11760 -0.22100
H 	H 	0.32160 0.11080 0.11910 0.08600
H 	H 	0.28270 0.10260 0.14510 0.09500
C 	C 	0.22580 0.15500 0.13000 0.45900
H 	H 	0.20980 0.17860 0.12230 -0.74500
H 	H 	0.20950 0.13140 0.12790 -0.15200
H 	H 	0.23500 0.15870 0.15730 -0.10600
C 	C 	0.09000 0.00740 0.90440 0.49700
C 	C 	0.12050 0.01720 0.87300 -0.04400
C 	C 	0.16130 0.01380 0.88370 -0.08100
H 	H 	0.16820 0.00710 0.91030 -0.03400
C 	C 	0.19010 0.01980 0.85650 0.00200
C 	C 	0.18020 0.03540 0.81840 0.00700
C 	C 	0.14020 0.03980 0.80880 -0.01400
H 	H 	0.13330 0.05070 0.78370 0.03500
C 	C 	0.10980 0.02880 0.83470 0.01200
H 	H 	0.08280 0.02910 0.82650 0.03200
C 	C 	0.20960 0.04250 0.78950 0.04800
C 	C 	0.23520 0.04460 0.76410 0.01000
O 	O 	0.22980 0.01630 0.86410 -0.20100
C 	C 	0.24200 0.99080 0.89570 -0.27000
H 	H 	0.23100 0.96380 0.89210 1.11000
H 	H 	0.23300 0.00140 0.92160 -1.12300
C 	C 	0.28910 0.99010 0.89340 0.34000
C 	C 	0.30170 0.97330 0.85720 -0.40600
H 	H 	0.33110 0.97400 0.85670 0.15000
H 	H 	0.29230 0.99080 0.83550 0.16400
S 	S 	0.28680 0.92500 0.84590 0.11800
C 	C 	0.31410 0.92730 0.79820 -0.45600
H 	H 	0.31090 0.90210 0.78400 0.17300
H 	H 	0.30340 0.94900 0.78200 0.16500
H 	H 	0.34230 0.93210 0.80340 0.17300
C 	C 	0.30070 0.96240 0.92480 -0.35900
H 	H 	0.28650 0.93700 0.92050 0.17300
H 	H 	0.29170 0.97330 0.95060 0.17000
C 	C 	0.36170 0.93070 0.97830 -0.43400
H 	H 	0.39010 0.92470 0.98110 0.14100
H 	H 	0.35380 0.94990 0.99870 0.14300
H 	H 	0.34630 0.90620 0.98150 0.17000
C 	C 	0.30430 0.03230 0.89950 -0.36600
H 	H 	0.29560 0.04840 0.87640 0.15500
H 	H 	0.33370 0.03150 0.89910 0.14100
C 	C 	0.24530 0.08560 0.92650 -0.46100
H 	H 	0.24120 0.07980 0.89830 0.15400
H 	H 	0.24970 0.11420 0.93000 0.17300
H 	H 	0.22170 0.07750 0.94160 0.14500
O 	O 	0.10780 0.00240 0.05450 -0.63400
O 	O 	0.05990 0.99900 0.10340 -0.66600
O 	O 	0.10360 0.00410 0.94000 -0.64100
O 	O 	0.05450 0.00490 0.89370 -0.66900
S 	S 	0.30740 0.98690 0.09890 0.08900
S 	S 	0.35074 0.08470 0.04420 0.05400
S 	S 	0.26900 0.15120 0.09650 -0.01300
S 	S 	0.35230 0.95200 0.92840 0.09200
S 	S 	0.28880 0.05810 0.94470 0.09300
Zr	Zr	0.07346 0.00180 0.99831 3.25100
O 	O 	0.02950 0.03010 0.96800 -2.57000
Hg	Hg	0.38376 0.11081 0.84237 0.10600
Cl	Cl	0.35070 0.06020 0.80270 -0.34500
Cl	Cl	0.34920 0.15650 0.88130 -0.32900
C 	C 	0.23000 0.18900 0.10700 -0.61000
H 	H 	0.22910 0.20780 0.08510 0.20100
H 	H 	0.20470 0.17560 0.11020 0.82400
H 	H 	0.23710 0.20280 0.13170 0.26400
C 	C 	0.12270 0.01000 0.87470 -0.03600
C 	C 	0.16310 0.00240 0.88390 0.03100
H 	H 	0.17090 0.99520 0.91010 0.09700
C 	C 	0.19010 0.00570 0.85450 0.06400
C 	C 	0.17740 0.01650 0.81570 -0.00300
C 	C 	0.13760 0.02380 0.80770 -0.05000
H 	H 	0.12980 0.03100 0.78150 0.05100
C 	C 	0.10900 0.02060 0.83730 -0.00400
H 	H 	0.08160 0.02550 0.83220 0.01900
C 	C 	0.20610 0.01980 0.78530 -0.04100
C 	C 	0.23410 0.02130 0.76280 -0.00400
O 	O 	0.23000 0.99990 0.85650 -0.08200
H 	H 	0.23150 0.96470 0.90420 -0.92700
H 	H 	0.23270 0.01150 0.91450 1.30200
O 	O 	0.03770 0.04430 0.95910 1.79500
H 	H 	0.05380 0.06250 0.94190 -0.55800
C 	C 	0.40530 0.00280 0.40820 0.46100
C 	C 	0.37450 0.01350 0.37810 -0.09000
C 	C 	0.33620 0.02710 0.38940 -0.07800
H 	H 	0.32980 0.03010 0.41670 0.07300
C 	C 	0.30870 0.03580 0.36130 0.11000
C 	C 	0.31740 0.03070 0.32020 -0.03200
C 	C 	0.35500 0.01600 0.31050 -0.06900
H 	H 	0.36050 0.01010 0.28340 0.04700
C 	C 	0.38470 0.00950 0.33830 0.00100
H 	H 	0.41090 0.00260 0.33040 0.03800
C 	C 	0.28810 0.03730 0.29130 -0.03100
C 	C 	0.26380 0.03930 0.26490 -0.03100
O 	O 	0.27150 0.05080 0.36770 -0.20100
C 	C 	0.25730 0.05570 0.40760 -0.08600
H 	H 	0.27300 0.07640 0.42140 0.05500
H 	H 	0.26000 0.03050 0.42250 0.05700
C 	C 	0.21480 0.06780 0.40570 0.16600
C 	C 	0.19010 0.03690 0.38210 -0.24800
H 	H 	0.19950 0.03680 0.35420 0.11000
H 	H 	0.16200 0.04550 0.38200 0.09500
C 	C 	0.23140 0.96390 0.37110 -0.45300
H 	H 	0.25730 0.96830 0.38370 0.16800
H 	H 	0.23140 0.97560 0.34450 0.17400
H 	H 	0.22640 0.93520 0.36910 0.17900
C 	C 	0.20040 0.07230 0.44880 -0.24200
H 	H 	0.21670 0.09310 0.46180 0.09500
H 	H 	0.20570 0.04700 0.46290 0.09500
C 	C 	0.12660 0.03540 0.46470 -0.39500
H 	H 	0.13900 0.02310 0.48800 0.13000
H 	H 	0.13080 0.01840 0.44140 0.13300
H 	H 	0.09810 0.03850 0.46940 0.12600
C 	C 	0.20740 0.10630 0.38240 -0.22100
H 	H 	0.17840 0.11080 0.38090 0.08600
H 	H 	0.21730 0.10260 0.35490 0.09500
C 	C 	0.27420 0.15500 0.37000 0.45900
H 	H 	0.29020 0.17860 0.37770 -0.74400
H 	H 	0.29050 0.13140 0.37210 -0.15200
H 	H 	0.26500 0.15870 0.34270 -0.10600
C 	C 	0.41000 0.00740 0.59560 0.49700
C 	C 	0.37950 0.01720 0.62700 -0.04500
C 	C 	0.33870 0.01380 0.61630 -0.08100
H 	H 	0.33180 0.00710 0.58970 -0.03700
C 	C 	0.30990 0.01980 0.64350 0.00200
C 	C 	0.31980 0.03540 0.68160 0.01000
C 	C 	0.35980 0.03980 0.69120 -0.01300
H 	H 	0.36670 0.05070 0.71630 0.03500
C 	C 	0.39020 0.02880 0.66530 0.01200
H 	H 	0.41720 0.02910 0.67350 0.03200
C 	C 	0.29040 0.04250 0.71050 0.04800
C 	C 	0.26480 0.04460 0.73590 0.00900
O 	O 	0.27020 0.01630 0.63590 -0.20100
C 	C 	0.25800 0.99080 0.60430 -0.27100
H 	H 	0.26900 0.96380 0.60790 1.11100
H 	H 	0.26700 0.00140 0.57840 -1.12400
C 	C 	0.21090 0.99010 0.60660 0.34000
C 	C 	0.19830 0.97330 0.64280 -0.40600
H 	H 	0.16890 0.97400 0.64330 0.15000
H 	H 	0.20770 0.99080 0.66450 0.16300
S 	S 	0.21320 0.92500 0.65410 0.11800
C 	C 	0.18590 0.92730 0.70180 -0.45600
H 	H 	0.18910 0.90210 0.71600 0.17300
H 	H 	0.19660 0.94900 0.71800 0.16500
H 	H 	0.15770 0.93210 0.69660 0.17300
C 	C 	0.19930 0.96240 0.57520 -0.35800
H 	H 	0.21350 0.93700 0.57950 0.17200
H 	H 	0.20830 0.97330 0.54940 0.17000
C 	C 	0.13830 0.93070 0.52170 -0.43400
H 	H 	0.10990 0.92470 0.51890 0.14100
H 	H 	0.14620 0.94990 0.50130 0.14300
H 	H 	0.15370 0.90620 0.51850 0.17000
C 	C 	0.19570 0.03230 0.60050 -0.36600
H 	H 	0.20440 0.04840 0.62360 0.15500
H 	H 	0.16630 0.03150 0.60090 0.14100
C 	C 	0.25470 0.08560 0.57350 -0.46100
H 	H 	0.25880 0.07980 0.60170 0.15400
H 	H 	0.25030 0.11420 0.57000 0.17300
H 	H 	0.27830 0.07750 0.55840 0.14500
O 	O 	0.39220 0.00240 0.44550 -0.63500
O 	O 	0.44010 0.99900 0.39660 -0.66500
O 	O 	0.39640 0.00410 0.56000 -0.64100
O 	O 	0.44550 0.00490 0.60630 -0.66900
S 	S 	0.19260 0.98690 0.40110 0.08900
S 	S 	0.14926 0.08470 0.45580 0.05400
S 	S 	0.23100 0.15120 0.40350 -0.01300
S 	S 	0.14770 0.95200 0.57160 0.09200
S 	S 	0.21120 0.05810 0.55530 0.09300
Zr	Zr	0.42654 0.00180 0.50169 3.25100
O 	O 	0.47050 0.03010 0.53200 -2.56900
Hg	Hg	0.11624 0.11081 0.65763 0.10600
Cl	Cl	0.14930 0.06020 0.69730 -0.34500
Cl	Cl	0.15080 0.15650 0.61870 -0.32900
C 	C 	0.27000 0.18900 0.39300 -0.61000
H 	H 	0.27090 0.20780 0.41490 0.20100
H 	H 	0.29530 0.17560 0.38980 0.82400
H 	H 	0.26290 0.20280 0.36830 0.26400
C 	C 	0.37730 0.01000 0.62530 -0.03600
C 	C 	0.33690 0.00240 0.61610 0.03300
H 	H 	0.32910 0.99520 0.58990 0.10000
C 	C 	0.30990 0.00570 0.64550 0.06300
C 	C 	0.32260 0.01650 0.68430 -0.00600
C 	C 	0.36240 0.02380 0.69230 -0.05200
H 	H 	0.37020 0.03100 0.71850 0.05200
C 	C 	0.39100 0.02060 0.66270 -0.00400
H 	H 	0.41840 0.02550 0.66780 0.01900
C 	C 	0.29390 0.01980 0.71470 -0.04100
C 	C 	0.26590 0.02130 0.73720 -0.00300
O 	O 	0.27000 0.99990 0.64350 -0.08200
H 	H 	0.26850 0.96470 0.59580 -0.92800
H 	H 	0.26730 0.01150 0.58550 1.30300
O 	O 	0.46230 0.04430 0.54090 1.79500
H 	H 	0.44620 0.06250 0.55810 -0.55800
C 	C 	0.59180 0.90530 0.50280 0.46000
C 	C 	0.62190 0.87450 0.51350 -0.09000
C 	C 	0.61060 0.83620 0.52710 -0.07800
H 	H 	0.58330 0.82980 0.53010 0.07300
C 	C 	0.63870 0.80870 0.53580 0.11000
C 	C 	0.67980 0.81740 0.53070 -0.03200
C 	C 	0.68950 0.85500 0.51600 -0.06900
H 	H 	0.71660 0.86050 0.51010 0.04700
C 	C 	0.66170 0.88470 0.50950 0.00100
H 	H 	0.66960 0.91090 0.50260 0.03800
C 	C 	0.70870 0.78810 0.53730 -0.03100
C 	C 	0.73510 0.76380 0.53930 -0.03100
O 	O 	0.63230 0.77150 0.55080 -0.20100
C 	C 	0.59240 0.75730 0.55570 -0.08600
H 	H 	0.57860 0.77300 0.57640 0.05500
H 	H 	0.57750 0.76000 0.53050 0.05700
C 	C 	0.59430 0.71480 0.56780 0.16600
C 	C 	0.61790 0.69010 0.53690 -0.24800
H 	H 	0.64580 0.69950 0.53680 0.11000
H 	H 	0.61800 0.66200 0.54550 0.09500
C 	C 	0.62890 0.73140 0.46390 -0.45300
H 	H 	0.61630 0.75730 0.46830 0.16800
H 	H 	0.65550 0.73140 0.47560 0.17400
H 	H 	0.63090 0.72640 0.43520 0.17900
C 	C 	0.55120 0.70040 0.57230 -0.24200
H 	H 	0.53820 0.71670 0.59310 0.09500
H 	H 	0.53710 0.70570 0.54700 0.09500
C 	C 	0.53530 0.62660 0.53540 -0.39400
H 	H 	0.51200 0.63900 0.52310 0.13000
H 	H 	0.55860 0.63080 0.51840 0.13300
H 	H 	0.53060 0.59810 0.53850 0.12600
C 	C 	0.61760 0.70740 0.60630 -0.22100
H 	H 	0.61910 0.67840 0.61080 0.08600
H 	H 	0.64510 0.71730 0.60260 0.09500
C 	C 	0.63000 0.77420 0.65500 0.45900
H 	H 	0.62230 0.79020 0.67860 -0.74400
H 	H 	0.62790 0.79050 0.63140 -0.15200
H 	H 	0.65730 0.76500 0.65870 -0.10600
C 	C 	0.40440 0.91000 0.50740 0.49700
C 	C 	0.37300 0.87950 0.51720 -0.04500
C 	C 	0.38370 0.83870 0.51380 -0.08300
H 	H 	0.41030 0.83180 0.50710 -0.04300
C 	C 	0.35650 0.80990 0.51980 0.00100
C 	C 	0.31840 0.81980 0.53540 0.00900
C 	C 	0.30880 0.85980 0.53980 -0.01400
H 	H 	0.28370 0.86670 0.55070 0.03500
C 	C 	0.33470 0.89020 0.52880 0.01200
H 	H 	0.32650 0.91720 0.52910 0.03200
C 	C 	0.28950 0.79040 0.54250 0.04900
C 	C 	0.26410 0.76480 0.54460 0.00900
O 	O 	0.36410 0.77020 0.51630 -0.20000
C 	C 	0.39570 0.75800 0.49080 -0.27100
H 	H 	0.39210 0.76900 0.46380 1.11500
H 	H 	0.42160 0.76700 0.50140 -1.12800
C 	C 	0.39340 0.71090 0.49010 0.34000
C 	C 	0.35720 0.69830 0.47330 -0.40600
H 	H 	0.35670 0.66890 0.47400 0.15000
H 	H 	0.33550 0.70770 0.49080 0.16300
S 	S 	0.34590 0.71320 0.42500 0.11800
C 	C 	0.29820 0.68590 0.42730 -0.45600
H 	H 	0.28400 0.68910 0.40210 0.17300
H 	H 	0.28200 0.69660 0.44900 0.16500
H 	H 	0.30340 0.65770 0.43210 0.17300
C 	C 	0.42480 0.69930 0.46240 -0.35800
H 	H 	0.42050 0.71350 0.43700 0.17300
H 	H 	0.45060 0.70830 0.47330 0.17000
C 	C 	0.47830 0.63830 0.43070 -0.43400
H 	H 	0.48110 0.60990 0.42470 0.14100
H 	H 	0.49870 0.64620 0.44990 0.14300
H 	H 	0.48150 0.65370 0.40620 0.17000
C 	C 	0.39950 0.69570 0.53230 -0.36600
H 	H 	0.37640 0.70440 0.54840 0.15500
H 	H 	0.39910 0.66630 0.53150 0.14100
C 	C 	0.42650 0.75470 0.58560 -0.46100
H 	H 	0.39830 0.75880 0.57980 0.15400
H 	H 	0.43000 0.75030 0.61420 0.17300
H 	H 	0.44160 0.77830 0.57750 0.14500
O 	O 	0.55450 0.89220 0.50240 -0.63500
O 	O 	0.60340 0.94010 0.49900 -0.66500
O 	O 	0.44000 0.89640 0.50410 -0.64100
O 	O 	0.39370 0.94550 0.50490 -0.67000
S 	S 	0.59890 0.69260 0.48690 0.08900
S 	S 	0.54420 0.64926 0.58470 0.05400
S 	S 	0.59650 0.73100 0.65120 -0.01300
S 	S 	0.42840 0.64770 0.45200 0.09200
S 	S 	0.44470 0.71120 0.55810 0.09300
Zr	Zr	0.49831 0.92654 0.50180 3.25100
O 	O 	0.46800 0.97050 0.53010 -2.57000
Hg	Hg	0.34237 0.61624 0.61081 0.10600
Cl	Cl	0.30270 0.64930 0.56020 -0.34500
Cl	Cl	0.38130 0.65080 0.65650 -0.32900
C 	C 	0.60700 0.77000 0.68900 -0.61000
H 	H 	0.58510 0.77090 0.70780 0.20100
H 	H 	0.61020 0.79530 0.67560 0.82400
H 	H 	0.63170 0.76290 0.70280 0.26400
C 	C 	0.37470 0.87730 0.51000 -0.03600
C 	C 	0.38390 0.83690 0.50240 0.03600
H 	H 	0.41010 0.82910 0.49520 0.10400
C 	C 	0.35450 0.80990 0.50570 0.06400
C 	C 	0.31570 0.82260 0.51650 -0.00500
C 	C 	0.30770 0.86240 0.52380 -0.05100
H 	H 	0.28150 0.87020 0.53100 0.05100
C 	C 	0.33730 0.89100 0.52060 -0.00400
H 	H 	0.33220 0.91840 0.52550 0.01900
C 	C 	0.28530 0.79390 0.51980 -0.04300
C 	C 	0.26280 0.76590 0.52130 -0.00300
O 	O 	0.35650 0.77000 0.49990 -0.08400
H 	H 	0.40420 0.76850 0.46470 -0.93200
H 	H 	0.41450 0.76730 0.51150 1.30800
O 	O 	0.45910 0.96230 0.54430 1.79500
H 	H 	0.44190 0.94620 0.56250 -0.55800
C 	C 	0.90820 0.59470 0.50280 0.46000
C 	C 	0.87810 0.62550 0.51350 -0.09000
C 	C 	0.88940 0.66380 0.52710 -0.07800
H 	H 	0.91670 0.67020 0.53010 0.07300
C 	C 	0.86130 0.69130 0.53580 0.11000
C 	C 	0.82020 0.68260 0.53070 -0.03200
C 	C 	0.81050 0.64500 0.51600 -0.06900
H 	H 	0.78340 0.63950 0.51010 0.04700
C 	C 	0.83830 0.61530 0.50950 0.00100
H 	H 	0.83040 0.58910 0.50260 0.03800
C 	C 	0.79130 0.71190 0.53730 -0.03100
C 	C 	0.76490 0.73620 0.53930 -0.03100
O 	O 	0.86770 0.72850 0.55080 -0.20100
C 	C 	0.90760 0.74270 0.55570 -0.08600
H 	H 	0.92140 0.72700 0.57640 0.05500
H 	H 	0.92250 0.74000 0.53050 0.05700
C 	C 	0.90570 0.78520 0.56780 0.16600
C 	C 	0.88210 0.80990 0.53690 -0.24800
H 	H 	0.85420 0.80050 0.53680 0.11000
H 	H 	0.88200 0.83800 0.54550 0.09500
C 	C 	0.87110 0.76860 0.46390 -0.45300
H 	H 	0.88370 0.74270 0.46830 0.16800
H 	H 	0.84450 0.76860 0.47560 0.17400
H 	H 	0.86910 0.77360 0.43520 0.17900
C 	C 	0.94880 0.79960 0.57230 -0.24200
H 	H 	0.96180 0.78330 0.59310 0.09600
H 	H 	0.96290 0.79430 0.54700 0.09500
C 	C 	0.96470 0.87340 0.53540 -0.39500
H 	H 	0.98800 0.86100 0.52310 0.13000
H 	H 	0.94140 0.86920 0.51840 0.13300
H 	H 	0.96940 0.90190 0.53850 0.12600
C 	C 	0.88240 0.79260 0.60630 -0.22100
H 	H 	0.88090 0.82160 0.61080 0.08600
H 	H 	0.85490 0.78270 0.60260 0.09500
C 	C 	0.87000 0.72580 0.65500 0.45900
H 	H 	0.87770 0.70980 0.67860 -0.74500
H 	H 	0.87210 0.70950 0.63140 -0.15200
H 	H 	0.84270 0.73500 0.65870 -0.10600
C 	C 	0.09560 0.59000 0.50740 0.49700
C 	C 	0.12700 0.62050 0.51720 -0.04500
C 	C 	0.11630 0.66130 0.51380 -0.08300
H 	H 	0.08970 0.66820 0.50710 -0.04300
C 	C 	0.14350 0.69010 0.51980 0.00100
C 	C 	0.18160 0.68020 0.53540 0.00900
C 	C 	0.19120 0.64020 0.53980 -0.01300
H 	H 	0.21630 0.63330 0.55070 0.03500
C 	C 	0.16530 0.60980 0.52880 0.01200
H 	H 	0.17350 0.58280 0.52910 0.03200
C 	C 	0.21050 0.70960 0.54250 0.04900
C 	C 	0.23590 0.73520 0.54460 0.00900
O 	O 	0.13590 0.72980 0.51630 -0.20000
C 	C 	0.10430 0.74200 0.49080 -0.27100
H 	H 	0.10790 0.73100 0.46380 1.11400
H 	H 	0.07840 0.73300 0.50140 -1.12800
C 	C 	0.10660 0.78910 0.49010 0.34000
C 	C 	0.14280 0.80170 0.47330 -0.40600
H 	H 	0.14330 0.83110 0.47400 0.15000
H 	H 	0.16450 0.79230 0.49080 0.16300
S 	S 	0.15410 0.78680 0.42500 0.11800
C 	C 	0.20180 0.81410 0.42730 -0.45600
H 	H 	0.21600 0.81090 0.40210 0.17300
H 	H 	0.21800 0.80340 0.44900 0.16500
H 	H 	0.19660 0.84230 0.43210 0.17300
C 	C 	0.07520 0.80070 0.46240 -0.35800
H 	H 	0.07950 0.78650 0.43700 0.17300
H 	H 	0.04940 0.79170 0.47330 0.17000
C 	C 	0.02170 0.86170 0.43070 -0.43400
H 	H 	0.01890 0.89010 0.42470 0.14100
H 	H 	0.00130 0.85380 0.44990 0.14300
H 	H 	0.01850 0.84630 0.40620 0.17000
C 	C 	0.10050 0.80430 0.53230 -0.36600
H 	H 	0.12360 0.79560 0.54840 0.15500
H 	H 	0.10090 0.83370 0.53150 0.14100
C 	C 	0.07350 0.74530 0.58560 -0.46100
H 	H 	0.10170 0.74120 0.57980 0.15400
H 	H 	0.07000 0.74970 0.61420 0.17300
H 	H 	0.05840 0.72170 0.57750 0.14500
O 	O 	0.94550 0.60780 0.50240 -0.63500
O 	O 	0.89660 0.55990 0.49900 -0.66500
O 	O 	0.06000 0.60360 0.50410 -0.64100
O 	O 	0.10630 0.55450 0.50490 -0.67000
S 	S 	0.90110 0.80740 0.48690 0.08900
S 	S 	0.95580 0.85074 0.58470 0.05400
S 	S 	0.90350 0.76900 0.65120 -0.01300
S 	S 	0.07160 0.85230 0.45200 0.09200
S 	S 	0.05530 0.78880 0.55810 0.09300
Zr	Zr	0.00169 0.57346 0.50180 3.25100
O 	O 	0.03200 0.52950 0.53010 -2.57100
Hg	Hg	0.15763 0.88376 0.61081 0.10600
Cl	Cl	0.19730 0.85070 0.56020 -0.34500
Cl	Cl	0.11870 0.84920 0.65650 -0.32900
C 	C 	0.89300 0.73000 0.68900 -0.61000
H 	H 	0.91490 0.72910 0.70780 0.20100
H 	H 	0.88980 0.70470 0.67560 0.82400
H 	H 	0.86830 0.73710 0.70280 0.26400
C 	C 	0.12530 0.62270 0.51000 -0.03600
C 	C 	0.11610 0.66310 0.50240 0.03600
H 	H 	0.08990 0.67090 0.49520 0.10500
C 	C 	0.14550 0.69010 0.50570 0.06400
C 	C 	0.18430 0.67740 0.51650 -0.00500
C 	C 	0.19230 0.63760 0.52380 -0.05100
H 	H 	0.21850 0.62980 0.53100 0.05100
C 	C 	0.16270 0.60900 0.52060 -0.00400
H 	H 	0.16780 0.58160 0.52550 0.01900
C 	C 	0.21470 0.70610 0.51980 -0.04300
C 	C 	0.23720 0.73410 0.52130 -0.00300
O 	O 	0.14350 0.73000 0.49990 -0.08400
H 	H 	0.09580 0.73150 0.46470 -0.93200
H 	H 	0.08550 0.73270 0.51150 1.30700
O 	O 	0.04090 0.53770 0.54430 1.79700
H 	H 	0.05810 0.55380 0.56250 -0.55800
C 	C 	0.90820 0.90530 0.99720 0.46100
C 	C 	0.87810 0.87450 0.98650 -0.09000
C 	C 	0.88940 0.83620 0.97290 -0.07800
H 	H 	0.91670 0.82980 0.96990 0.07300
C 	C 	0.86130 0.80870 0.96420 0.11000
C 	C 	0.82020 0.81740 0.96930 -0.03200
C 	C 	0.81050 0.85500 0.98400 -0.06900
H 	H 	0.78340 0.86050 0.98990 0.04700
C 	C 	0.83830 0.88470 0.99050 0.00100
H 	H 	0.83040 0.91090 0.99740 0.03800
C 	C 	0.79130 0.78810 0.96270 -0.03100
C 	C 	0.76490 0.76380 0.96070 -0.03100
O 	O 	0.86770 0.77150 0.94920 -0.20100
C 	C 	0.90760 0.75730 0.94430 -0.08600
H 	H 	0.92140 0.77300 0.92360 0.05500
H 	H 	0.92250 0.76000 0.96950 0.05700
C 	C 	0.90570 0.71480 0.93220 0.16600
C 	C 	0.88210 0.69010 0.96310 -0.24800
H 	H 	0.85420 0.69950 0.96320 0.11000
H 	H 	0.88200 0.66200 0.95450 0.09500
C 	C 	0.87110 0.73140 0.03610 -0.45300
H 	H 	0.88370 0.75730 0.03170 0.16800
H 	H 	0.84450 0.73140 0.02440 0.17400
H 	H 	0.86910 0.72640 0.06480 0.17900
C 	C 	0.94880 0.70040 0.92770 -0.24300
H 	H 	0.96180 0.71670 0.90690 0.09600
H 	H 	0.96290 0.70570 0.95300 0.09500
C 	C 	0.96470 0.62660 0.96460 -0.39500
H 	H 	0.98800 0.63900 0.97690 0.13100
H 	H 	0.94140 0.63080 0.98160 0.13300
H 	H 	0.96940 0.59810 0.96150 0.12600
C 	C 	0.88240 0.70740 0.89370 -0.22100
H 	H 	0.88090 0.67840 0.88920 0.08600
H 	H 	0.85490 0.71730 0.89740 0.09500
C 	C 	0.87000 0.77420 0.84500 0.45900
H 	H 	0.87770 0.79020 0.82140 -0.74500
H 	H 	0.87210 0.79050 0.86860 -0.15200
H 	H 	0.84270 0.76500 0.84130 -0.10600
C 	C 	0.09560 0.91000 0.99260 0.49700
C 	C 	0.12700 0.87950 0.98280 -0.04400
C 	C 	0.11630 0.83870 0.98620 -0.08100
H 	H 	0.08970 0.83180 0.99290 -0.03400
C 	C 	0.14350 0.80990 0.98020 0.00200
C 	C 	0.18160 0.81980 0.96460 0.00700
C 	C 	0.19120 0.85980 0.96020 -0.01400
H 	H 	0.21630 0.86670 0.94930 0.03500
C 	C 	0.16530 0.89020 0.97120 0.01200
H 	H 	0.17350 0.91720 0.97090 0.03200
C 	C 	0.21050 0.79040 0.95750 0.04800
C 	C 	0.23590 0.76480 0.95540 0.01000
O 	O 	0.13590 0.77020 0.98370 -0.20100
C 	C 	0.10430 0.75800 0.00920 -0.27000
H 	H 	0.10790 0.76900 0.03620 1.11000
H 	H 	0.07840 0.76700 0.99860 -1.12300
C 	C 	0.10660 0.71090 0.00990 0.34000
C 	C 	0.14280 0.69830 0.02670 -0.40600
H 	H 	0.14330 0.66890 0.02600 0.15000
H 	H 	0.16450 0.70770 0.00920 0.16400
S 	S 	0.15410 0.71320 0.07500 0.11800
C 	C 	0.20180 0.68590 0.07270 -0.45600
H 	H 	0.21600 0.68910 0.09790 0.17300
H 	H 	0.21800 0.69660 0.05100 0.16500
H 	H 	0.19660 0.65770 0.06790 0.17300
C 	C 	0.07520 0.69930 0.03760 -0.35900
H 	H 	0.07950 0.71350 0.06300 0.17300
H 	H 	0.04940 0.70830 0.02670 0.17000
C 	C 	0.02170 0.63830 0.06930 -0.43400
H 	H 	0.01890 0.60990 0.07530 0.14100
H 	H 	0.00130 0.64620 0.05010 0.14300
H 	H 	0.01850 0.65370 0.09380 0.17000
C 	C 	0.10050 0.69570 0.96770 -0.36600
H 	H 	0.12360 0.70440 0.95160 0.15500
H 	H 	0.10090 0.66630 0.96850 0.14100
C 	C 	0.07350 0.75470 0.91440 -0.46100
H 	H 	0.10170 0.75880 0.92020 0.15400
H 	H 	0.07000 0.75030 0.88580 0.17300
H 	H 	0.05840 0.77830 0.92250 0.14500
O 	O 	0.94550 0.89220 0.99760 -0.63400
O 	O 	0.89660 0.94010 0.00100 -0.66600
O 	O 	0.06000 0.89640 0.99590 -0.64100
O 	O 	0.10630 0.94550 0.99510 -0.66900
S 	S 	0.90110 0.69260 0.01310 0.08900
S 	S 	0.95580 0.64926 0.91530 0.05400
S 	S 	0.90350 0.73100 0.84880 -0.01300
S 	S 	0.07160 0.64770 0.04800 0.09200
S 	S 	0.05530 0.71120 0.94190 0.09300
Zr	Zr	0.00169 0.92654 0.99820 3.25100
O 	O 	0.03200 0.97050 0.96990 -2.57000
Hg	Hg	0.15763 0.61624 0.88919 0.10600
Cl	Cl	0.19730 0.64930 0.93980 -0.34500
Cl	Cl	0.11870 0.65080 0.84350 -0.32900
C 	C 	0.89300 0.77000 0.81100 -0.61000
H 	H 	0.91490 0.77090 0.79220 0.20100
H 	H 	0.88980 0.79530 0.82440 0.82400
H 	H 	0.86830 0.76290 0.79720 0.26400
C 	C 	0.12530 0.87730 0.99000 -0.03600
C 	C 	0.11610 0.83690 0.99760 0.03100
H 	H 	0.08990 0.82910 0.00480 0.09700
C 	C 	0.14550 0.80990 0.99430 0.06400
C 	C 	0.18430 0.82260 0.98350 -0.00300
C 	C 	0.19230 0.86240 0.97620 -0.05000
H 	H 	0.21850 0.87020 0.96900 0.05100
C 	C 	0.16270 0.89100 0.97940 -0.00400
H 	H 	0.16780 0.91840 0.97450 0.01900
C 	C 	0.21470 0.79390 0.98020 -0.04100
C 	C 	0.23720 0.76590 0.97870 -0.00400
O 	O 	0.14350 0.77000 0.00010 -0.08200
H 	H 	0.09580 0.76850 0.03530 -0.92700
H 	H 	0.08550 0.76730 0.98850 1.30200
O 	O 	0.04090 0.96230 0.95570 1.79500
H 	H 	0.05810 0.94620 0.93750 -0.55800
C 	C 	0.59180 0.59470 0.99720 0.46100
C 	C 	0.62190 0.62550 0.98650 -0.09000
C 	C 	0.61060 0.66380 0.97290 -0.07800
H 	H 	0.58330 0.67020 0.96990 0.07300
C 	C 	0.63870 0.69130 0.96420 0.11000
C 	C 	0.67980 0.68260 0.96930 -0.03200
C 	C 	0.68950 0.64500 0.98400 -0.06900
H 	H 	0.71660 0.63950 0.98990 0.04700
C 	C 	0.66170 0.61530 0.99050 0.00100
H 	H 	0.66960 0.58910 0.99740 0.03800
C 	C 	0.70870 0.71190 0.96270 -0.03100
C 	C 	0.73510 0.73620 0.96070 -0.03100
O 	O 	0.63230 0.72850 0.94920 -0.20100
C 	C 	0.59240 0.74270 0.94430 -0.08600
H 	H 	0.57860 0.72700 0.92360 0.05500
H 	H 	0.57750 0.74000 0.96950 0.05700
C 	C 	0.59430 0.78520 0.93220 0.16600
C 	C 	0.61790 0.80990 0.96310 -0.24800
H 	H 	0.64580 0.80050 0.96320 0.11000
H 	H 	0.61800 0.83800 0.95450 0.09500
C 	C 	0.62890 0.76860 0.03610 -0.45300
H 	H 	0.61630 0.74270 0.03170 0.16800
H 	H 	0.65550 0.76860 0.02440 0.17400
H 	H 	0.63090 0.77360 0.06480 0.17900
C 	C 	0.55120 0.79960 0.92770 -0.24200
H 	H 	0.53820 0.78330 0.90690 0.09500
H 	H 	0.53710 0.79430 0.95300 0.09500
C 	C 	0.53530 0.87340 0.96460 -0.39500
H 	H 	0.51200 0.86100 0.97690 0.13000
H 	H 	0.55860 0.86920 0.98160 0.13300
H 	H 	0.53060 0.90190 0.96150 0.12600
C 	C 	0.61760 0.79260 0.89370 -0.22100
H 	H 	0.61910 0.82160 0.88920 0.08600
H 	H 	0.64510 0.78270 0.89740 0.09500
C 	C 	0.63000 0.72580 0.84500 0.45900
H 	H 	0.62230 0.70980 0.82140 -0.74400
H 	H 	0.62790 0.70950 0.86860 -0.15200
H 	H 	0.65730 0.73500 0.84130 -0.10600
C 	C 	0.40440 0.59000 0.99260 0.49700
C 	C 	0.37300 0.62050 0.98280 -0.04500
C 	C 	0.38370 0.66130 0.98620 -0.08100
H 	H 	0.41030 0.66820 0.99290 -0.03700
C 	C 	0.35650 0.69010 0.98020 0.00200
C 	C 	0.31840 0.68020 0.96460 0.01000
C 	C 	0.30880 0.64020 0.96020 -0.01300
H 	H 	0.28370 0.63330 0.94930 0.03500
C 	C 	0.33470 0.60980 0.97120 0.01200
H 	H 	0.32650 0.58280 0.97090 0.03200
C 	C 	0.28950 0.70960 0.95750 0.04800
C 	C 	0.26410 0.73520 0.95540 0.00900
O 	O 	0.36410 0.72980 0.98370 -0.20100
C 	C 	0.39570 0.74200 0.00920 -0.27100
H 	H 	0.39210 0.73100 0.03620 1.11100
H 	H 	0.42160 0.73300 0.99860 -1.12400
C 	C 	0.39340 0.78910 0.00990 0.34000
C 	C 	0.35720 0.80170 0.02670 -0.40600
H 	H 	0.35670 0.83110 0.02600 0.15000
H 	H 	0.33550 0.79230 0.00920 0.16300
S 	S 	0.34590 0.78680 0.07500 0.11800
C 	C 	0.29820 0.81410 0.07270 -0.45600
H 	H 	0.28400 0.81090 0.09790 0.17300
H 	H 	0.28200 0.80340 0.05100 0.16500
H 	H 	0.30340 0.84230 0.06790 0.17300
C 	C 	0.42480 0.80070 0.03760 -0.35800
H 	H 	0.42050 0.78650 0.06300 0.17200
H 	H 	0.45060 0.79170 0.02670 0.17000
C 	C 	0.47830 0.86170 0.06930 -0.43400
H 	H 	0.48110 0.89010 0.07530 0.14100
H 	H 	0.49870 0.85380 0.05010 0.14300
H 	H 	0.48150 0.84630 0.09380 0.17000
C 	C 	0.39950 0.80430 0.96770 -0.36600
H 	H 	0.37640 0.79560 0.95160 0.15500
H 	H 	0.39910 0.83370 0.96850 0.14100
C 	C 	0.42650 0.74530 0.91440 -0.46100
H 	H 	0.39830 0.74120 0.92020 0.15400
H 	H 	0.43000 0.74970 0.88580 0.17300
H 	H 	0.44160 0.72170 0.92250 0.14500
O 	O 	0.55450 0.60780 0.99760 -0.63500
O 	O 	0.60340 0.55990 0.00100 -0.66500
O 	O 	0.44000 0.60360 0.99590 -0.64100
O 	O 	0.39370 0.55450 0.99510 -0.66900
S 	S 	0.59890 0.80740 0.01310 0.08900
S 	S 	0.54420 0.85074 0.91530 0.05400
S 	S 	0.59650 0.76900 0.84880 -0.01300
S 	S 	0.42840 0.85230 0.04800 0.09200
S 	S 	0.44470 0.78880 0.94190 0.09300
Zr	Zr	0.49831 0.57346 0.99820 3.25100
O 	O 	0.46800 0.52950 0.96990 -2.56900
Hg	Hg	0.34237 0.88376 0.88919 0.10600
Cl	Cl	0.30270 0.85070 0.93980 -0.34500
Cl	Cl	0.38130 0.84920 0.84350 -0.32900
C 	C 	0.60700 0.73000 0.81100 -0.61000
H 	H 	0.58510 0.72910 0.79220 0.20100
H 	H 	0.61020 0.70470 0.82440 0.82400
H 	H 	0.63170 0.73710 0.79720 0.26400
C 	C 	0.37470 0.62270 0.99000 -0.03600
C 	C 	0.38390 0.66310 0.99760 0.03300
H 	H 	0.41010 0.67090 0.00480 0.10000
C 	C 	0.35450 0.69010 0.99430 0.06300
C 	C 	0.31570 0.67740 0.98350 -0.00600
C 	C 	0.30770 0.63760 0.97620 -0.05200
H 	H 	0.28150 0.62980 0.96900 0.05200
C 	C 	0.33730 0.60900 0.97940 -0.00400
H 	H 	0.33220 0.58160 0.97450 0.01900
C 	C 	0.28530 0.70610 0.98020 -0.04100
C 	C 	0.26280 0.73410 0.97870 -0.00300
O 	O 	0.35650 0.73000 0.00010 -0.08200
H 	H 	0.40420 0.73150 0.03530 -0.92800
H 	H 	0.41450 0.73270 0.98850 1.30300
O 	O 	0.45910 0.53770 0.95570 1.79500
H 	H 	0.44190 0.55380 0.93750 -0.55800
C 	C 	0.50280 0.59180 0.90530 0.46000
C 	C 	0.51350 0.62190 0.87450 -0.09000
C 	C 	0.52710 0.61060 0.83620 -0.07800
H 	H 	0.53010 0.58330 0.82980 0.07300
C 	C 	0.53580 0.63870 0.80870 0.11000
C 	C 	0.53070 0.67980 0.81740 -0.03200
C 	C 	0.51600 0.68950 0.85500 -0.06900
H 	H 	0.51010 0.71660 0.86050 0.04700
C 	C 	0.50950 0.66170 0.88470 0.00100
H 	H 	0.50260 0.66960 0.91090 0.03800
C 	C 	0.53730 0.70870 0.78810 -0.03100
C 	C 	0.53930 0.73510 0.76380 -0.03100
O 	O 	0.55080 0.63230 0.77150 -0.20100
C 	C 	0.55570 0.59240 0.75730 -0.08600
H 	H 	0.57640 0.57860 0.77300 0.05500
H 	H 	0.53050 0.57750 0.76000 0.05700
C 	C 	0.56780 0.59430 0.71480 0.16600
C 	C 	0.53690 0.61790 0.69010 -0.24800
H 	H 	0.53680 0.64580 0.69950 0.11000
H 	H 	0.54550 0.61800 0.66200 0.09500
C 	C 	0.46390 0.62890 0.73140 -0.45300
H 	H 	0.46830 0.61630 0.75730 0.16800
H 	H 	0.47560 0.65550 0.73140 0.17400
H 	H 	0.43520 0.63090 0.72640 0.17900
C 	C 	0.57230 0.55120 0.70040 -0.24200
H 	H 	0.59310 0.53820 0.71670 0.09500
H 	H 	0.54700 0.53710 0.70570 0.09500
C 	C 	0.53540 0.53530 0.62660 -0.39400
H 	H 	0.52310 0.51200 0.63900 0.13000
H 	H 	0.51840 0.55860 0.63080 0.13300
H 	H 	0.53850 0.53060 0.59810 0.12600
C 	C 	0.60630 0.61760 0.70740 -0.22100
H 	H 	0.61080 0.61910 0.67840 0.08600
H 	H 	0.60260 0.64510 0.71730 0.09500
C 	C 	0.65500 0.63000 0.77420 0.45900
H 	H 	0.67860 0.62230 0.79020 -0.74400
H 	H 	0.63140 0.62790 0.79050 -0.15200
H 	H 	0.65870 0.65730 0.76500 -0.10600
C 	C 	0.50740 0.40440 0.91000 0.49700
C 	C 	0.51720 0.37300 0.87950 -0.04500
C 	C 	0.51380 0.38370 0.83870 -0.08300
H 	H 	0.50710 0.41030 0.83180 -0.04300
C 	C 	0.51980 0.35650 0.80990 0.00100
C 	C 	0.53540 0.31840 0.81980 0.00900
C 	C 	0.53980 0.30880 0.85980 -0.01400
H 	H 	0.55070 0.28370 0.86670 0.03500
C 	C 	0.52880 0.33470 0.89020 0.01200
H 	H 	0.52910 0.32650 0.91720 0.03200
C 	C 	0.54250 0.28950 0.79040 0.04900
C 	C 	0.54460 0.26410 0.76480 0.00900
O 	O 	0.51630 0.36410 0.77020 -0.20000
C 	C 	0.49080 0.39570 0.75800 -0.27100
H 	H 	0.46380 0.39210 0.76900 1.11500
H 	H 	0.50140 0.42160 0.76700 -1.12800
C 	C 	0.49010 0.39340 0.71090 0.34000
C 	C 	0.47330 0.35720 0.69830 -0.40600
H 	H 	0.47400 0.35670 0.66890 0.15000
H 	H 	0.49080 0.33550 0.70770 0.16300
S 	S 	0.42500 0.34590 0.71320 0.11800
C 	C 	0.42730 0.29820 0.68590 -0.45600
H 	H 	0.40210 0.28400 0.68910 0.17300
H 	H 	0.44900 0.28200 0.69660 0.16500
H 	H 	0.43210 0.30340 0.65770 0.17300
C 	C 	0.46240 0.42480 0.69930 -0.35800
H 	H 	0.43700 0.42050 0.71350 0.17300
H 	H 	0.47330 0.45060 0.70830 0.17000
C 	C 	0.43070 0.47830 0.63830 -0.43400
H 	H 	0.42470 0.48110 0.60990 0.14100
H 	H 	0.44990 0.49870 0.64620 0.14300
H 	H 	0.40620 0.48150 0.65370 0.17000
C 	C 	0.53230 0.39950 0.69570 -0.36600
H 	H 	0.54840 0.37640 0.70440 0.15500
H 	H 	0.53150 0.39910 0.66630 0.14100
C 	C 	0.58560 0.42650 0.75470 -0.46100
H 	H 	0.57980 0.39830 0.75880 0.15400
H 	H 	0.61420 0.43000 0.75030 0.17300
H 	H 	0.57750 0.44160 0.77830 0.14500
O 	O 	0.50240 0.55450 0.89220 -0.63500
O 	O 	0.49900 0.60340 0.94010 -0.66500
O 	O 	0.50410 0.44000 0.89640 -0.64100
O 	O 	0.50490 0.39370 0.94550 -0.67000
S 	S 	0.48690 0.59890 0.69260 0.08900
S 	S 	0.58470 0.54420 0.64926 0.05400
S 	S 	0.65120 0.59650 0.73100 -0.01300
S 	S 	0.45200 0.42840 0.64770 0.09200
S 	S 	0.55810 0.44470 0.71120 0.09300
Zr	Zr	0.50180 0.49831 0.92654 3.25100
O 	O 	0.53010 0.46800 0.97050 -2.57000
Hg	Hg	0.61081 0.34237 0.61624 0.10600
Cl	Cl	0.56020 0.30270 0.64930 -0.34500
Cl	Cl	0.65650 0.38130 0.65080 -0.32900
C 	C 	0.68900 0.60700 0.77000 -0.61000
H 	H 	0.70780 0.58510 0.77090 0.20100
H 	H 	0.67560 0.61020 0.79530 0.82400
H 	H 	0.70280 0.63170 0.76290 0.26400
C 	C 	0.51000 0.37470 0.87730 -0.03600
C 	C 	0.50240 0.38390 0.83690 0.03600
H 	H 	0.49520 0.41010 0.82910 0.10400
C 	C 	0.50570 0.35450 0.80990 0.06400
C 	C 	0.51650 0.31570 0.82260 -0.00500
C 	C 	0.52380 0.30770 0.86240 -0.05100
H 	H 	0.53100 0.28150 0.87020 0.05100
C 	C 	0.52060 0.33730 0.89100 -0.00400
H 	H 	0.52550 0.33220 0.91840 0.01900
C 	C 	0.51980 0.28530 0.79390 -0.04300
C 	C 	0.52130 0.26280 0.76590 -0.00300
O 	O 	0.49990 0.35650 0.77000 -0.08400
H 	H 	0.46470 0.40420 0.76850 -0.93200
H 	H 	0.51150 0.41450 0.76730 1.30800
O 	O 	0.54430 0.45910 0.96230 1.79500
H 	H 	0.56250 0.44190 0.94620 -0.55800
C 	C 	0.50280 0.90820 0.59470 0.46000
C 	C 	0.51350 0.87810 0.62550 -0.09000
C 	C 	0.52710 0.88940 0.66380 -0.07800
H 	H 	0.53010 0.91670 0.67020 0.07300
C 	C 	0.53580 0.86130 0.69130 0.11000
C 	C 	0.53070 0.82020 0.68260 -0.03200
C 	C 	0.51600 0.81050 0.64500 -0.06900
H 	H 	0.51010 0.78340 0.63950 0.04700
C 	C 	0.50950 0.83830 0.61530 0.00100
H 	H 	0.50260 0.83040 0.58910 0.03800
C 	C 	0.53730 0.79130 0.71190 -0.03100
C 	C 	0.53930 0.76490 0.73620 -0.03100
O 	O 	0.55080 0.86770 0.72850 -0.20100
C 	C 	0.55570 0.90760 0.74270 -0.08600
H 	H 	0.57640 0.92140 0.72700 0.05500
H 	H 	0.53050 0.92250 0.74000 0.05700
C 	C 	0.56780 0.90570 0.78520 0.16600
C 	C 	0.53690 0.88210 0.80990 -0.24800
H 	H 	0.53680 0.85420 0.80050 0.11000
H 	H 	0.54550 0.88200 0.83800 0.09500
C 	C 	0.46390 0.87110 0.76860 -0.45300
H 	H 	0.46830 0.88370 0.74270 0.16800
H 	H 	0.47560 0.84450 0.76860 0.17400
H 	H 	0.43520 0.86910 0.77360 0.17900
C 	C 	0.57230 0.94880 0.79960 -0.24200
H 	H 	0.59310 0.96180 0.78330 0.09600
H 	H 	0.54700 0.96290 0.79430 0.09500
C 	C 	0.53540 0.96470 0.87340 -0.39500
H 	H 	0.52310 0.98800 0.86100 0.13000
H 	H 	0.51840 0.94140 0.86920 0.13300
H 	H 	0.53850 0.96940 0.90190 0.12600
C 	C 	0.60630 0.88240 0.79260 -0.22100
H 	H 	0.61080 0.88090 0.82160 0.08600
H 	H 	0.60260 0.85490 0.78270 0.09500
C 	C 	0.65500 0.87000 0.72580 0.45900
H 	H 	0.67860 0.87770 0.70980 -0.74500
H 	H 	0.63140 0.87210 0.70950 -0.15200
H 	H 	0.65870 0.84270 0.73500 -0.10600
C 	C 	0.50740 0.09560 0.59000 0.49700
C 	C 	0.51720 0.12700 0.62050 -0.04500
C 	C 	0.51380 0.11630 0.66130 -0.08300
H 	H 	0.50710 0.08970 0.66820 -0.04300
C 	C 	0.51980 0.14350 0.69010 0.00100
C 	C 	0.53540 0.18160 0.68020 0.00900
C 	C 	0.53980 0.19120 0.64020 -0.01300
H 	H 	0.55070 0.21630 0.63330 0.03500
C 	C 	0.52880 0.16530 0.60980 0.01200
H 	H 	0.52910 0.17350 0.58280 0.03200
C 	C 	0.54250 0.21050 0.70960 0.04900
C 	C 	0.54460 0.23590 0.73520 0.00900
O 	O 	0.51630 0.13590 0.72980 -0.20000
C 	C 	0.49080 0.10430 0.74200 -0.27100
H 	H 	0.46380 0.10790 0.73100 1.11400
H 	H 	0.50140 0.07840 0.73300 -1.12800
C 	C 	0.49010 0.10660 0.78910 0.34000
C 	C 	0.47330 0.14280 0.80170 -0.40600
H 	H 	0.47400 0.14330 0.83110 0.15000
H 	H 	0.49080 0.16450 0.79230 0.16300
S 	S 	0.42500 0.15410 0.78680 0.11800
C 	C 	0.42730 0.20180 0.81410 -0.45600
H 	H 	0.40210 0.21600 0.81090 0.17300
H 	H 	0.44900 0.21800 0.80340 0.16500
H 	H 	0.43210 0.19660 0.84230 0.17300
C 	C 	0.46240 0.07520 0.80070 -0.35800
H 	H 	0.43700 0.07950 0.78650 0.17300
H 	H 	0.47330 0.04940 0.79170 0.17000
C 	C 	0.43070 0.02170 0.86170 -0.43400
H 	H 	0.42470 0.01890 0.89010 0.14100
H 	H 	0.44990 0.00130 0.85380 0.14300
H 	H 	0.40620 0.01850 0.84630 0.17000
C 	C 	0.53230 0.10050 0.80430 -0.36600
H 	H 	0.54840 0.12360 0.79560 0.15500
H 	H 	0.53150 0.10090 0.83370 0.14100
C 	C 	0.58560 0.07350 0.74530 -0.46100
H 	H 	0.57980 0.10170 0.74120 0.15400
H 	H 	0.61420 0.07000 0.74970 0.17300
H 	H 	0.57750 0.05840 0.72170 0.14500
O 	O 	0.50240 0.94550 0.60780 -0.63500
O 	O 	0.49900 0.89660 0.55990 -0.66500
O 	O 	0.50410 0.06000 0.60360 -0.64100
O 	O 	0.50490 0.10630 0.55450 -0.67000
S 	S 	0.48690 0.90110 0.80740 0.08900
S 	S 	0.58470 0.95580 0.85074 0.05400
S 	S 	0.65120 0.90350 0.76900 -0.01300
S 	S 	0.45200 0.07160 0.85230 0.09200
S 	S 	0.55810 0.05530 0.78880 0.09300
Zr	Zr	0.50180 0.00169 0.57346 3.25100
O 	O 	0.53010 0.03200 0.52950 -2.57100
Hg	Hg	0.61081 0.15763 0.88376 0.10600
Cl	Cl	0.56020 0.19730 0.85070 -0.34500
Cl	Cl	0.65650 0.11870 0.84920 -0.32900
C 	C 	0.68900 0.89300 0.73000 -0.61000
H 	H 	0.70780 0.91490 0.72910 0.20100
H 	H 	0.67560 0.88980 0.70470 0.82400
H 	H 	0.70280 0.86830 0.73710 0.26400
C 	C 	0.51000 0.12530 0.62270 -0.03600
C 	C 	0.50240 0.11610 0.66310 0.03600
H 	H 	0.49520 0.08990 0.67090 0.10500
C 	C 	0.50570 0.14550 0.69010 0.06400
C 	C 	0.51650 0.18430 0.67740 -0.00500
C 	C 	0.52380 0.19230 0.63760 -0.05100
H 	H 	0.53100 0.21850 0.62980 0.05100
C 	C 	0.52060 0.16270 0.60900 -0.00400
H 	H 	0.52550 0.16780 0.58160 0.01900
C 	C 	0.51980 0.21470 0.70610 -0.04300
C 	C 	0.52130 0.23720 0.73410 -0.00300
O 	O 	0.49990 0.14350 0.73000 -0.08400
H 	H 	0.46470 0.09580 0.73150 -0.93200
H 	H 	0.51150 0.08550 0.73270 1.30700
O 	O 	0.54430 0.04090 0.53770 1.79700
H 	H 	0.56250 0.05810 0.55380 -0.55800
C 	C 	0.99720 0.90820 0.90530 0.46100
C 	C 	0.98650 0.87810 0.87450 -0.09000
C 	C 	0.97290 0.88940 0.83620 -0.07800
H 	H 	0.96990 0.91670 0.82980 0.07300
C 	C 	0.96420 0.86130 0.80870 0.11000
C 	C 	0.96930 0.82020 0.81740 -0.03200
C 	C 	0.98400 0.81050 0.85500 -0.06900
H 	H 	0.98990 0.78340 0.86050 0.04700
C 	C 	0.99050 0.83830 0.88470 0.00100
H 	H 	0.99740 0.83040 0.91090 0.03800
C 	C 	0.96270 0.79130 0.78810 -0.03100
C 	C 	0.96070 0.76490 0.76380 -0.03100
O 	O 	0.94920 0.86770 0.77150 -0.20100
C 	C 	0.94430 0.90760 0.75730 -0.08600
H 	H 	0.92360 0.92140 0.77300 0.05500
H 	H 	0.96950 0.92250 0.76000 0.05700
C 	C 	0.93220 0.90570 0.71480 0.16600
C 	C 	0.96310 0.88210 0.69010 -0.24800
H 	H 	0.96320 0.85420 0.69950 0.11000
H 	H 	0.95450 0.88200 0.66200 0.09500
C 	C 	0.03610 0.87110 0.73140 -0.45300
H 	H 	0.03170 0.88370 0.75730 0.16800
H 	H 	0.02440 0.84450 0.73140 0.17400
H 	H 	0.06480 0.86910 0.72640 0.17900
C 	C 	0.92770 0.94880 0.70040 -0.24300
H 	H 	0.90690 0.96180 0.71670 0.09600
H 	H 	0.95300 0.96290 0.70570 0.09500
C 	C 	0.96460 0.96470 0.62660 -0.39500
H 	H 	0.97690 0.98800 0.63900 0.13100
H 	H 	0.98160 0.94140 0.63080 0.13300
H 	H 	0.96150 0.96940 0.59810 0.12600
C 	C 	0.89370 0.88240 0.70740 -0.22100
H 	H 	0.88920 0.88090 0.67840 0.08600
H 	H 	0.89740 0.85490 0.71730 0.09500
C 	C 	0.84500 0.87000 0.77420 0.45900
H 	H 	0.82140 0.87770 0.79020 -0.74500
H 	H 	0.86860 0.87210 0.79050 -0.15200
H 	H 	0.84130 0.84270 0.76500 -0.10600
C 	C 	0.99260 0.09560 0.91000 0.49700
C 	C 	0.98280 0.12700 0.87950 -0.04400
C 	C 	0.98620 0.11630 0.83870 -0.08100
H 	H 	0.99290 0.08970 0.83180 -0.03400
C 	C 	0.98020 0.14350 0.80990 0.00200
C 	C 	0.96460 0.18160 0.81980 0.00700
C 	C 	0.96020 0.19120 0.85980 -0.01400
H 	H 	0.94930 0.21630 0.86670 0.03500
C 	C 	0.97120 0.16530 0.89020 0.01200
H 	H 	0.97090 0.17350 0.91720 0.03200
C 	C 	0.95750 0.21050 0.79040 0.04800
C 	C 	0.95540 0.23590 0.76480 0.01000
O 	O 	0.98370 0.13590 0.77020 -0.20100
C 	C 	0.00920 0.10430 0.75800 -0.27000
H 	H 	0.03620 0.10790 0.76900 1.11000
H 	H 	0.99860 0.07840 0.76700 -1.12300
C 	C 	0.00990 0.10660 0.71090 0.34000
C 	C 	0.02670 0.14280 0.69830 -0.40600
H 	H 	0.02600 0.14330 0.66890 0.15000
H 	H 	0.00920 0.16450 0.70770 0.16400
S 	S 	0.07500 0.15410 0.71320 0.11800
C 	C 	0.07270 0.20180 0.68590 -0.45600
H 	H 	0.09790 0.21600 0.68910 0.17300
H 	H 	0.05100 0.21800 0.69660 0.16500
H 	H 	0.06790 0.19660 0.65770 0.17300
C 	C 	0.03760 0.07520 0.69930 -0.35900
H 	H 	0.06300 0.07950 0.71350 0.17300
H 	H 	0.02670 0.04940 0.70830 0.17000
C 	C 	0.06930 0.02170 0.63830 -0.43400
H 	H 	0.07530 0.01890 0.60990 0.14100
H 	H 	0.05010 0.00130 0.64620 0.14300
H 	H 	0.09380 0.01850 0.65370 0.17000
C 	C 	0.96770 0.10050 0.69570 -0.36600
H 	H 	0.95160 0.12360 0.70440 0.15500
H 	H 	0.96850 0.10090 0.66630 0.14100
C 	C 	0.91440 0.07350 0.75470 -0.46100
H 	H 	0.92020 0.10170 0.75880 0.15400
H 	H 	0.88580 0.07000 0.75030 0.17300
H 	H 	0.92250 0.05840 0.77830 0.14500
O 	O 	0.99760 0.94550 0.89220 -0.63400
O 	O 	0.00100 0.89660 0.94010 -0.66600
O 	O 	0.99590 0.06000 0.89640 -0.64100
O 	O 	0.99510 0.10630 0.94550 -0.66900
S 	S 	0.01310 0.90110 0.69260 0.08900
S 	S 	0.91530 0.95580 0.64926 0.05400
S 	S 	0.84880 0.90350 0.73100 -0.01300
S 	S 	0.04800 0.07160 0.64770 0.09200
S 	S 	0.94190 0.05530 0.71120 0.09300
Zr	Zr	0.99820 0.00169 0.92654 3.25100
O 	O 	0.96990 0.03200 0.97050 -2.57000
Hg	Hg	0.88919 0.15763 0.61624 0.10600
Cl	Cl	0.93980 0.19730 0.64930 -0.34500
Cl	Cl	0.84350 0.11870 0.65080 -0.32900
C 	C 	0.81100 0.89300 0.77000 -0.61000
H 	H 	0.79220 0.91490 0.77090 0.20100
H 	H 	0.82440 0.88980 0.79530 0.82400
H 	H 	0.79720 0.86830 0.76290 0.26400
C 	C 	0.99000 0.12530 0.87730 -0.03600
C 	C 	0.99760 0.11610 0.83690 0.03100
H 	H 	0.00480 0.08990 0.82910 0.09700
C 	C 	0.99430 0.14550 0.80990 0.06400
C 	C 	0.98350 0.18430 0.82260 -0.00300
C 	C 	0.97620 0.19230 0.86240 -0.05000
H 	H 	0.96900 0.21850 0.87020 0.05100
C 	C 	0.97940 0.16270 0.89100 -0.00400
H 	H 	0.97450 0.16780 0.91840 0.01900
C 	C 	0.98020 0.21470 0.79390 -0.04100
C 	C 	0.97870 0.23720 0.76590 -0.00400
O 	O 	0.00010 0.14350 0.77000 -0.08200
H 	H 	0.03530 0.09580 0.76850 -0.92700
H 	H 	0.98850 0.08550 0.76730 1.30200
O 	O 	0.95570 0.04090 0.96230 1.79500
H 	H 	0.93750 0.05810 0.94620 -0.55800
C 	C 	0.99720 0.59180 0.59470 0.46100
C 	C 	0.98650 0.62190 0.62550 -0.09000
C 	C 	0.97290 0.61060 0.66380 -0.07800
H 	H 	0.96990 0.58330 0.67020 0.07300
C 	C 	0.96420 0.63870 0.69130 0.11000
C 	C 	0.96930 0.67980 0.68260 -0.03200
C 	C 	0.98400 0.68950 0.64500 -0.06900
H 	H 	0.98990 0.71660 0.63950 0.04700
C 	C 	0.99050 0.66170 0.61530 0.00100
H 	H 	0.99740 0.66960 0.58910 0.03800
C 	C 	0.96270 0.70870 0.71190 -0.03100
C 	C 	0.96070 0.73510 0.73620 -0.03100
O 	O 	0.94920 0.63230 0.72850 -0.20100
C 	C 	0.94430 0.59240 0.74270 -0.08600
H 	H 	0.92360 0.57860 0.72700 0.05500
H 	H 	0.96950 0.57750 0.74000 0.05700
C 	C 	0.93220 0.59430 0.78520 0.16600
C 	C 	0.96310 0.61790 0.80990 -0.24800
H 	H 	0.96320 0.64580 0.80050 0.11000
H 	H 	0.95450 0.61800 0.83800 0.09500
C 	C 	0.03610 0.62890 0.76860 -0.45300
H 	H 	0.03170 0.61630 0.74270 0.16800
H 	H 	0.02440 0.65550 0.76860 0.17400
H 	H 	0.06480 0.63090 0.77360 0.17900
C 	C 	0.92770 0.55120 0.79960 -0.24200
H 	H 	0.90690 0.53820 0.78330 0.09500
H 	H 	0.95300 0.53710 0.79430 0.09500
C 	C 	0.96460 0.53530 0.87340 -0.39500
H 	H 	0.97690 0.51200 0.86100 0.13000
H 	H 	0.98160 0.55860 0.86920 0.13300
H 	H 	0.96150 0.53060 0.90190 0.12600
C 	C 	0.89370 0.61760 0.79260 -0.22100
H 	H 	0.88920 0.61910 0.82160 0.08600
H 	H 	0.89740 0.64510 0.78270 0.09500
C 	C 	0.84500 0.63000 0.72580 0.45900
H 	H 	0.82140 0.62230 0.70980 -0.74400
H 	H 	0.86860 0.62790 0.70950 -0.15200
H 	H 	0.84130 0.65730 0.73500 -0.10600
C 	C 	0.99260 0.40440 0.59000 0.49700
C 	C 	0.98280 0.37300 0.62050 -0.04500
C 	C 	0.98620 0.38370 0.66130 -0.08100
H 	H 	0.99290 0.41030 0.66820 -0.03700
C 	C 	0.98020 0.35650 0.69010 0.00200
C 	C 	0.96460 0.31840 0.68020 0.01000
C 	C 	0.96020 0.30880 0.64020 -0.01300
H 	H 	0.94930 0.28370 0.63330 0.03500
C 	C 	0.97120 0.33470 0.60980 0.01200
H 	H 	0.97090 0.32650 0.58280 0.03200
C 	C 	0.95750 0.28950 0.70960 0.04800
C 	C 	0.95540 0.26410 0.73520 0.00900
O 	O 	0.98370 0.36410 0.72980 -0.20100
C 	C 	0.00920 0.39570 0.74200 -0.27100
H 	H 	0.03620 0.39210 0.73100 1.11100
H 	H 	0.99860 0.42160 0.73300 -1.12400
C 	C 	0.00990 0.39340 0.78910 0.34000
C 	C 	0.02670 0.35720 0.80170 -0.40600
H 	H 	0.02600 0.35670 0.83110 0.15000
H 	H 	0.00920 0.33550 0.79230 0.16300
S 	S 	0.07500 0.34590 0.78680 0.11800
C 	C 	0.07270 0.29820 0.81410 -0.45600
H 	H 	0.09790 0.28400 0.81090 0.17300
H 	H 	0.05100 0.28200 0.80340 0.16500
H 	H 	0.06790 0.30340 0.84230 0.17300
C 	C 	0.03760 0.42480 0.80070 -0.35800
H 	H 	0.06300 0.42050 0.78650 0.17200
H 	H 	0.02670 0.45060 0.79170 0.17000
C 	C 	0.06930 0.47830 0.86170 -0.43400
H 	H 	0.07530 0.48110 0.89010 0.14100
H 	H 	0.05010 0.49870 0.85380 0.14300
H 	H 	0.09380 0.48150 0.84630 0.17000
C 	C 	0.96770 0.39950 0.80430 -0.36600
H 	H 	0.95160 0.37640 0.79560 0.15500
H 	H 	0.96850 0.39910 0.83370 0.14100
C 	C 	0.91440 0.42650 0.74530 -0.46100
H 	H 	0.92020 0.39830 0.74120 0.15400
H 	H 	0.88580 0.43000 0.74970 0.17300
H 	H 	0.92250 0.44160 0.72170 0.14500
O 	O 	0.99760 0.55450 0.60780 -0.63500
O 	O 	0.00100 0.60340 0.55990 -0.66500
O 	O 	0.99590 0.44000 0.60360 -0.64100
O 	O 	0.99510 0.39370 0.55450 -0.66900
S 	S 	0.01310 0.59890 0.80740 0.08900
S 	S 	0.91530 0.54420 0.85074 0.05400
S 	S 	0.84880 0.59650 0.76900 -0.01300
S 	S 	0.04800 0.42840 0.85230 0.09200
S 	S 	0.94190 0.44470 0.78880 0.09300
Zr	Zr	0.99820 0.49831 0.57346 3.25100
O 	O 	0.96990 0.46800 0.52950 -2.56900
Hg	Hg	0.88919 0.34237 0.88376 0.10600
Cl	Cl	0.93980 0.30270 0.85070 -0.34500
Cl	Cl	0.84350 0.38130 0.84920 -0.32900
C 	C 	0.81100 0.60700 0.73000 -0.61000
H 	H 	0.79220 0.58510 0.72910 0.20100
H 	H 	0.82440 0.61020 0.70470 0.82400
H 	H 	0.79720 0.63170 0.73710 0.26400
C 	C 	0.99000 0.37470 0.62270 -0.03600
C 	C 	0.99760 0.38390 0.66310 0.03300
H 	H 	0.00480 0.41010 0.67090 0.10000
C 	C 	0.99430 0.35450 0.69010 0.06300
C 	C 	0.98350 0.31570 0.67740 -0.00600
C 	C 	0.97620 0.30770 0.63760 -0.05200
H 	H 	0.96900 0.28150 0.62980 0.05200
C 	C 	0.97940 0.33730 0.60900 -0.00400
H 	H 	0.97450 0.33220 0.58160 0.01900
C 	C 	0.98020 0.28530 0.70610 -0.04100
C 	C 	0.97870 0.26280 0.73410 -0.00300
O 	O 	0.00010 0.35650 0.73000 -0.08200
H 	H 	0.03530 0.40420 0.73150 -0.92800
H 	H 	0.98850 0.41450 0.73270 1.30300
O 	O 	0.95570 0.45910 0.53770 1.79500
H 	H 	0.93750 0.44190 0.55380 -0.55800
C 	C 	0.90530 0.50280 0.59180 0.46000
C 	C 	0.87450 0.51350 0.62190 -0.09000
C 	C 	0.83620 0.52710 0.61060 -0.07800
H 	H 	0.82980 0.53010 0.58330 0.07300
C 	C 	0.80870 0.53580 0.63870 0.11000
C 	C 	0.81740 0.53070 0.67980 -0.03200
C 	C 	0.85500 0.51600 0.68950 -0.06900
H 	H 	0.86050 0.51010 0.71660 0.04700
C 	C 	0.88470 0.50950 0.66170 0.00100
H 	H 	0.91090 0.50260 0.66960 0.03800
C 	C 	0.78810 0.53730 0.70870 -0.03100
C 	C 	0.76380 0.53930 0.73510 -0.03100
O 	O 	0.77150 0.55080 0.63230 -0.20100
C 	C 	0.75730 0.55570 0.59240 -0.08600
H 	H 	0.77300 0.57640 0.57860 0.05500
H 	H 	0.76000 0.53050 0.57750 0.05700
C 	C 	0.71480 0.56780 0.59430 0.16600
C 	C 	0.69010 0.53690 0.61790 -0.24800
H 	H 	0.69950 0.53680 0.64580 0.11000
H 	H 	0.66200 0.54550 0.61800 0.09500
C 	C 	0.73140 0.46390 0.62890 -0.45300
H 	H 	0.75730 0.46830 0.61630 0.16800
H 	H 	0.73140 0.47560 0.65550 0.17400
H 	H 	0.72640 0.43520 0.63090 0.17900
C 	C 	0.70040 0.57230 0.55120 -0.24200
H 	H 	0.71670 0.59310 0.53820 0.09500
H 	H 	0.70570 0.54700 0.53710 0.09500
C 	C 	0.62660 0.53540 0.53530 -0.39400
H 	H 	0.63900 0.52310 0.51200 0.13000
H 	H 	0.63080 0.51840 0.55860 0.13300
H 	H 	0.59810 0.53850 0.53060 0.12600
C 	C 	0.70740 0.60630 0.61760 -0.22100
H 	H 	0.67840 0.61080 0.61910 0.08600
H 	H 	0.71730 0.60260 0.64510 0.09500
C 	C 	0.77420 0.65500 0.63000 0.45900
H 	H 	0.79020 0.67860 0.62230 -0.74400
H 	H 	0.79050 0.63140 0.62790 -0.15200
H 	H 	0.76500 0.65870 0.65730 -0.10600
C 	C 	0.91000 0.50740 0.40440 0.49700
C 	C 	0.87950 0.51720 0.37300 -0.04500
C 	C 	0.83870 0.51380 0.38370 -0.08300
H 	H 	0.83180 0.50710 0.41030 -0.04300
C 	C 	0.80990 0.51980 0.35650 0.00100
C 	C 	0.81980 0.53540 0.31840 0.00900
C 	C 	0.85980 0.53980 0.30880 -0.01400
H 	H 	0.86670 0.55070 0.28370 0.03500
C 	C 	0.89020 0.52880 0.33470 0.01200
H 	H 	0.91720 0.52910 0.32650 0.03200
C 	C 	0.79040 0.54250 0.28950 0.04900
C 	C 	0.76480 0.54460 0.26410 0.00900
O 	O 	0.77020 0.51630 0.36410 -0.20000
C 	C 	0.75800 0.49080 0.39570 -0.27100
H 	H 	0.76900 0.46380 0.39210 1.11500
H 	H 	0.76700 0.50140 0.42160 -1.12800
C 	C 	0.71090 0.49010 0.39340 0.34000
C 	C 	0.69830 0.47330 0.35720 -0.40600
H 	H 	0.66890 0.47400 0.35670 0.15000
H 	H 	0.70770 0.49080 0.33550 0.16300
S 	S 	0.71320 0.42500 0.34590 0.11800
C 	C 	0.68590 0.42730 0.29820 -0.45600
H 	H 	0.68910 0.40210 0.28400 0.17300
H 	H 	0.69660 0.44900 0.28200 0.16500
H 	H 	0.65770 0.43210 0.30340 0.17300
C 	C 	0.69930 0.46240 0.42480 -0.35800
H 	H 	0.71350 0.43700 0.42050 0.17300
H 	H 	0.70830 0.47330 0.45060 0.17000
C 	C 	0.63830 0.43070 0.47830 -0.43400
H 	H 	0.60990 0.42470 0.48110 0.14100
H 	H 	0.64620 0.44990 0.49870 0.14300
H 	H 	0.65370 0.40620 0.48150 0.17000
C 	C 	0.69570 0.53230 0.39950 -0.36600
H 	H 	0.70440 0.54840 0.37640 0.15500
H 	H 	0.66630 0.53150 0.39910 0.14100
C 	C 	0.75470 0.58560 0.42650 -0.46100
H 	H 	0.75880 0.57980 0.39830 0.15400
H 	H 	0.75030 0.61420 0.43000 0.17300
H 	H 	0.77830 0.57750 0.44160 0.14500
O 	O 	0.89220 0.50240 0.55450 -0.63500
O 	O 	0.94010 0.49900 0.60340 -0.66500
O 	O 	0.89640 0.50410 0.44000 -0.64100
O 	O 	0.94550 0.50490 0.39370 -0.67000
S 	S 	0.69260 0.48690 0.59890 0.08900
S 	S 	0.64926 0.58470 0.54420 0.05400
S 	S 	0.73100 0.65120 0.59650 -0.01300
S 	S 	0.64770 0.45200 0.42840 0.09200
S 	S 	0.71120 0.55810 0.44470 0.09300
Zr	Zr	0.92654 0.50180 0.49831 3.25100
O 	O 	0.97050 0.53010 0.46800 -2.57000
Hg	Hg	0.61624 0.61081 0.34237 0.10600
Cl	Cl	0.64930 0.56020 0.30270 -0.34500
Cl	Cl	0.65080 0.65650 0.38130 -0.32900
C 	C 	0.77000 0.68900 0.60700 -0.61000
H 	H 	0.77090 0.70780 0.58510 0.20100
H 	H 	0.79530 0.67560 0.61020 0.82400
H 	H 	0.76290 0.70280 0.63170 0.26400
C 	C 	0.87730 0.51000 0.37470 -0.03600
C 	C 	0.83690 0.50240 0.38390 0.03600
H 	H 	0.82910 0.49520 0.41010 0.10400
C 	C 	0.80990 0.50570 0.35450 0.06400
C 	C 	0.82260 0.51650 0.31570 -0.00500
C 	C 	0.86240 0.52380 0.30770 -0.05100
H 	H 	0.87020 0.53100 0.28150 0.05100
C 	C 	0.89100 0.52060 0.33730 -0.00400
H 	H 	0.91840 0.52550 0.33220 0.01900
C 	C 	0.79390 0.51980 0.28530 -0.04300
C 	C 	0.76590 0.52130 0.26280 -0.00300
O 	O 	0.77000 0.49990 0.35650 -0.08400
H 	H 	0.76850 0.46470 0.40420 -0.93200
H 	H 	0.76730 0.51150 0.41450 1.30800
O 	O 	0.96230 0.54430 0.45910 1.79500
H 	H 	0.94620 0.56250 0.44190 -0.55800
C 	C 	0.59470 0.50280 0.90820 0.46000
C 	C 	0.62550 0.51350 0.87810 -0.09000
C 	C 	0.66380 0.52710 0.88940 -0.07800
H 	H 	0.67020 0.53010 0.91670 0.07300
C 	C 	0.69130 0.53580 0.86130 0.11000
C 	C 	0.68260 0.53070 0.82020 -0.03200
C 	C 	0.64500 0.51600 0.81050 -0.06900
H 	H 	0.63950 0.51010 0.78340 0.04700
C 	C 	0.61530 0.50950 0.83830 0.00100
H 	H 	0.58910 0.50260 0.83040 0.03800
C 	C 	0.71190 0.53730 0.79130 -0.03100
C 	C 	0.73620 0.53930 0.76490 -0.03100
O 	O 	0.72850 0.55080 0.86770 -0.20100
C 	C 	0.74270 0.55570 0.90760 -0.08600
H 	H 	0.72700 0.57640 0.92140 0.05500
H 	H 	0.74000 0.53050 0.92250 0.05700
C 	C 	0.78520 0.56780 0.90570 0.16600
C 	C 	0.80990 0.53690 0.88210 -0.24800
H 	H 	0.80050 0.53680 0.85420 0.11000
H 	H 	0.83800 0.54550 0.88200 0.09500
C 	C 	0.76860 0.46390 0.87110 -0.45300
H 	H 	0.74270 0.46830 0.88370 0.16800
H 	H 	0.76860 0.47560 0.84450 0.17400
H 	H 	0.77360 0.43520 0.86910 0.17900
C 	C 	0.79960 0.57230 0.94880 -0.24200
H 	H 	0.78330 0.59310 0.96180 0.09600
H 	H 	0.79430 0.54700 0.96290 0.09500
C 	C 	0.87340 0.53540 0.96470 -0.39500
H 	H 	0.86100 0.52310 0.98800 0.13000
H 	H 	0.86920 0.51840 0.94140 0.13300
H 	H 	0.90190 0.53850 0.96940 0.12600
C 	C 	0.79260 0.60630 0.88240 -0.22100
H 	H 	0.82160 0.61080 0.88090 0.08600
H 	H 	0.78270 0.60260 0.85490 0.09500
C 	C 	0.72580 0.65500 0.87000 0.45900
H 	H 	0.70980 0.67860 0.87770 -0.74500
H 	H 	0.70950 0.63140 0.87210 -0.15200
H 	H 	0.73500 0.65870 0.84270 -0.10600
C 	C 	0.59000 0.50740 0.09560 0.49700
C 	C 	0.62050 0.51720 0.12700 -0.04500
C 	C 	0.66130 0.51380 0.11630 -0.08300
H 	H 	0.66820 0.50710 0.08970 -0.04300
C 	C 	0.69010 0.51980 0.14350 0.00100
C 	C 	0.68020 0.53540 0.18160 0.00900
C 	C 	0.64020 0.53980 0.19120 -0.01300
H 	H 	0.63330 0.55070 0.21630 0.03500
C 	C 	0.60980 0.52880 0.16530 0.01200
H 	H 	0.58280 0.52910 0.17350 0.03200
C 	C 	0.70960 0.54250 0.21050 0.04900
C 	C 	0.73520 0.54460 0.23590 0.00900
O 	O 	0.72980 0.51630 0.13590 -0.20000
C 	C 	0.74200 0.49080 0.10430 -0.27100
H 	H 	0.73100 0.46380 0.10790 1.11400
H 	H 	0.73300 0.50140 0.07840 -1.12800
C 	C 	0.78910 0.49010 0.10660 0.34000
C 	C 	0.80170 0.47330 0.14280 -0.40600
H 	H 	0.83110 0.47400 0.14330 0.15000
H 	H 	0.79230 0.49080 0.16450 0.16300
S 	S 	0.78680 0.42500 0.15410 0.11800
C 	C 	0.81410 0.42730 0.20180 -0.45600
H 	H 	0.81090 0.40210 0.21600 0.17300
H 	H 	0.80340 0.44900 0.21800 0.16500
H 	H 	0.84230 0.43210 0.19660 0.17300
C 	C 	0.80070 0.46240 0.07520 -0.35800
H 	H 	0.78650 0.43700 0.07950 0.17300
H 	H 	0.79170 0.47330 0.04940 0.17000
C 	C 	0.86170 0.43070 0.02170 -0.43400
H 	H 	0.89010 0.42470 0.01890 0.14100
H 	H 	0.85380 0.44990 0.00130 0.14300
H 	H 	0.84630 0.40620 0.01850 0.17000
C 	C 	0.80430 0.53230 0.10050 -0.36600
H 	H 	0.79560 0.54840 0.12360 0.15500
H 	H 	0.83370 0.53150 0.10090 0.14100
C 	C 	0.74530 0.58560 0.07350 -0.46100
H 	H 	0.74120 0.57980 0.10170 0.15400
H 	H 	0.74970 0.61420 0.07000 0.17300
H 	H 	0.72170 0.57750 0.05840 0.14500
O 	O 	0.60780 0.50240 0.94550 -0.63500
O 	O 	0.55990 0.49900 0.89660 -0.66500
O 	O 	0.60360 0.50410 0.06000 -0.64100
O 	O 	0.55450 0.50490 0.10630 -0.67000
S 	S 	0.80740 0.48690 0.90110 0.08900
S 	S 	0.85074 0.58470 0.95580 0.05400
S 	S 	0.76900 0.65120 0.90350 -0.01300
S 	S 	0.85230 0.45200 0.07160 0.09200
S 	S 	0.78880 0.55810 0.05530 0.09300
Zr	Zr	0.57346 0.50180 0.00169 3.25100
O 	O 	0.52950 0.53010 0.03200 -2.57100
Hg	Hg	0.88376 0.61081 0.15763 0.10600
Cl	Cl	0.85070 0.56020 0.19730 -0.34500
Cl	Cl	0.84920 0.65650 0.11870 -0.32900
C 	C 	0.73000 0.68900 0.89300 -0.61000
H 	H 	0.72910 0.70780 0.91490 0.20100
H 	H 	0.70470 0.67560 0.88980 0.82400
H 	H 	0.73710 0.70280 0.86830 0.26400
C 	C 	0.62270 0.51000 0.12530 -0.03600
C 	C 	0.66310 0.50240 0.11610 0.03600
H 	H 	0.67090 0.49520 0.08990 0.10500
C 	C 	0.69010 0.50570 0.14550 0.06400
C 	C 	0.67740 0.51650 0.18430 -0.00500
C 	C 	0.63760 0.52380 0.19230 -0.05100
H 	H 	0.62980 0.53100 0.21850 0.05100
C 	C 	0.60900 0.52060 0.16270 -0.00400
H 	H 	0.58160 0.52550 0.16780 0.01900
C 	C 	0.70610 0.51980 0.21470 -0.04300
C 	C 	0.73410 0.52130 0.23720 -0.00300
O 	O 	0.73000 0.49990 0.14350 -0.08400
H 	H 	0.73150 0.46470 0.09580 -0.93200
H 	H 	0.73270 0.51150 0.08550 1.30700
O 	O 	0.53770 0.54430 0.04090 1.79700
H 	H 	0.55380 0.56250 0.05810 -0.55800
C 	C 	0.90530 0.99720 0.90820 0.46100
C 	C 	0.87450 0.98650 0.87810 -0.09000
C 	C 	0.83620 0.97290 0.88940 -0.07800
H 	H 	0.82980 0.96990 0.91670 0.07300
C 	C 	0.80870 0.96420 0.86130 0.11000
C 	C 	0.81740 0.96930 0.82020 -0.03200
C 	C 	0.85500 0.98400 0.81050 -0.06900
H 	H 	0.86050 0.98990 0.78340 0.04700
C 	C 	0.88470 0.99050 0.83830 0.00100
H 	H 	0.91090 0.99740 0.83040 0.03800
C 	C 	0.78810 0.96270 0.79130 -0.03100
C 	C 	0.76380 0.96070 0.76490 -0.03100
O 	O 	0.77150 0.94920 0.86770 -0.20100
C 	C 	0.75730 0.94430 0.90760 -0.08600
H 	H 	0.77300 0.92360 0.92140 0.05500
H 	H 	0.76000 0.96950 0.92250 0.05700
C 	C 	0.71480 0.93220 0.90570 0.16600
C 	C 	0.69010 0.96310 0.88210 -0.24800
H 	H 	0.69950 0.96320 0.85420 0.11000
H 	H 	0.66200 0.95450 0.88200 0.09500
C 	C 	0.73140 0.03610 0.87110 -0.45300
H 	H 	0.75730 0.03170 0.88370 0.16800
H 	H 	0.73140 0.02440 0.84450 0.17400
H 	H 	0.72640 0.06480 0.86910 0.17900
C 	C 	0.70040 0.92770 0.94880 -0.24300
H 	H 	0.71670 0.90690 0.96180 0.09600
H 	H 	0.70570 0.95300 0.96290 0.09500
C 	C 	0.62660 0.96460 0.96470 -0.39500
H 	H 	0.63900 0.97690 0.98800 0.13100
H 	H 	0.63080 0.98160 0.94140 0.13300
H 	H 	0.59810 0.96150 0.96940 0.12600
C 	C 	0.70740 0.89370 0.88240 -0.22100
H 	H 	0.67840 0.88920 0.88090 0.08600
H 	H 	0.71730 0.89740 0.85490 0.09500
C 	C 	0.77420 0.84500 0.87000 0.45900
H 	H 	0.79020 0.82140 0.87770 -0.74500
H 	H 	0.79050 0.86860 0.87210 -0.15200
H 	H 	0.76500 0.84130 0.84270 -0.10600
C 	C 	0.91000 0.99260 0.09560 0.49700
C 	C 	0.87950 0.98280 0.12700 -0.04400
C 	C 	0.83870 0.98620 0.11630 -0.08100
H 	H 	0.83180 0.99290 0.08970 -0.03400
C 	C 	0.80990 0.98020 0.14350 0.00200
C 	C 	0.81980 0.96460 0.18160 0.00700
C 	C 	0.85980 0.96020 0.19120 -0.01400
H 	H 	0.86670 0.94930 0.21630 0.03500
C 	C 	0.89020 0.97120 0.16530 0.01200
H 	H 	0.91720 0.97090 0.17350 0.03200
C 	C 	0.79040 0.95750 0.21050 0.04800
C 	C 	0.76480 0.95540 0.23590 0.01000
O 	O 	0.77020 0.98370 0.13590 -0.20100
C 	C 	0.75800 0.00920 0.10430 -0.27000
H 	H 	0.76900 0.03620 0.10790 1.11000
H 	H 	0.76700 0.99860 0.07840 -1.12300
C 	C 	0.71090 0.00990 0.10660 0.34000
C 	C 	0.69830 0.02670 0.14280 -0.40600
H 	H 	0.66890 0.02600 0.14330 0.15000
H 	H 	0.70770 0.00920 0.16450 0.16400
S 	S 	0.71320 0.07500 0.15410 0.11800
C 	C 	0.68590 0.07270 0.20180 -0.45600
H 	H 	0.68910 0.09790 0.21600 0.17300
H 	H 	0.69660 0.05100 0.21800 0.16500
H 	H 	0.65770 0.06790 0.19660 0.17300
C 	C 	0.69930 0.03760 0.07520 -0.35900
H 	H 	0.71350 0.06300 0.07950 0.17300
H 	H 	0.70830 0.02670 0.04940 0.17000
C 	C 	0.63830 0.06930 0.02170 -0.43400
H 	H 	0.60990 0.07530 0.01890 0.14100
H 	H 	0.64620 0.05010 0.00130 0.14300
H 	H 	0.65370 0.09380 0.01850 0.17000
C 	C 	0.69570 0.96770 0.10050 -0.36600
H 	H 	0.70440 0.95160 0.12360 0.15500
H 	H 	0.66630 0.96850 0.10090 0.14100
C 	C 	0.75470 0.91440 0.07350 -0.46100
H 	H 	0.75880 0.92020 0.10170 0.15400
H 	H 	0.75030 0.88580 0.07000 0.17300
H 	H 	0.77830 0.92250 0.05840 0.14500
O 	O 	0.89220 0.99760 0.94550 -0.63400
O 	O 	0.94010 0.00100 0.89660 -0.66600
O 	O 	0.89640 0.99590 0.06000 -0.64100
O 	O 	0.94550 0.99510 0.10630 -0.66900
S 	S 	0.69260 0.01310 0.90110 0.08900
S 	S 	0.64926 0.91530 0.95580 0.05400
S 	S 	0.73100 0.84880 0.90350 -0.01300
S 	S 	0.64770 0.04800 0.07160 0.09200
S 	S 	0.71120 0.94190 0.05530 0.09300
Zr	Zr	0.92654 0.99820 0.00169 3.25100
O 	O 	0.97050 0.96990 0.03200 -2.57000
Hg	Hg	0.61624 0.88919 0.15763 0.10600
Cl	Cl	0.64930 0.93980 0.19730 -0.34500
Cl	Cl	0.65080 0.84350 0.11870 -0.32900
C 	C 	0.77000 0.81100 0.89300 -0.61000
H 	H 	0.77090 0.79220 0.91490 0.20100
H 	H 	0.79530 0.82440 0.88980 0.82400
H 	H 	0.76290 0.79720 0.86830 0.26400
C 	C 	0.87730 0.99000 0.12530 -0.03600
C 	C 	0.83690 0.99760 0.11610 0.03100
H 	H 	0.82910 0.00480 0.08990 0.09700
C 	C 	0.80990 0.99430 0.14550 0.06400
C 	C 	0.82260 0.98350 0.18430 -0.00300
C 	C 	0.86240 0.97620 0.19230 -0.05000
H 	H 	0.87020 0.96900 0.21850 0.05100
C 	C 	0.89100 0.97940 0.16270 -0.00400
H 	H 	0.91840 0.97450 0.16780 0.01900
C 	C 	0.79390 0.98020 0.21470 -0.04100
C 	C 	0.76590 0.97870 0.23720 -0.00400
O 	O 	0.77000 0.00010 0.14350 -0.08200
H 	H 	0.76850 0.03530 0.09580 -0.92700
H 	H 	0.76730 0.98850 0.08550 1.30200
O 	O 	0.96230 0.95570 0.04090 1.79500
H 	H 	0.94620 0.93750 0.05810 -0.55800
C 	C 	0.59470 0.99720 0.59180 0.46100
C 	C 	0.62550 0.98650 0.62190 -0.09000
C 	C 	0.66380 0.97290 0.61060 -0.07800
H 	H 	0.67020 0.96990 0.58330 0.07300
C 	C 	0.69130 0.96420 0.63870 0.11000
C 	C 	0.68260 0.96930 0.67980 -0.03200
C 	C 	0.64500 0.98400 0.68950 -0.06900
H 	H 	0.63950 0.98990 0.71660 0.04700
C 	C 	0.61530 0.99050 0.66170 0.00100
H 	H 	0.58910 0.99740 0.66960 0.03800
C 	C 	0.71190 0.96270 0.70870 -0.03100
C 	C 	0.73620 0.96070 0.73510 -0.03100
O 	O 	0.72850 0.94920 0.63230 -0.20100
C 	C 	0.74270 0.94430 0.59240 -0.08600
H 	H 	0.72700 0.92360 0.57860 0.05500
H 	H 	0.74000 0.96950 0.57750 0.05700
C 	C 	0.78520 0.93220 0.59430 0.16600
C 	C 	0.80990 0.96310 0.61790 -0.24800
H 	H 	0.80050 0.96320 0.64580 0.11000
H 	H 	0.83800 0.95450 0.61800 0.09500
C 	C 	0.76860 0.03610 0.62890 -0.45300
H 	H 	0.74270 0.03170 0.61630 0.16800
H 	H 	0.76860 0.02440 0.65550 0.17400
H 	H 	0.77360 0.06480 0.63090 0.17900
C 	C 	0.79960 0.92770 0.55120 -0.24200
H 	H 	0.78330 0.90690 0.53820 0.09500
H 	H 	0.79430 0.95300 0.53710 0.09500
C 	C 	0.87340 0.96460 0.53530 -0.39500
H 	H 	0.86100 0.97690 0.51200 0.13000
H 	H 	0.86920 0.98160 0.55860 0.13300
H 	H 	0.90190 0.96150 0.53060 0.12600
C 	C 	0.79260 0.89370 0.61760 -0.22100
H 	H 	0.82160 0.88920 0.61910 0.08600
H 	H 	0.78270 0.89740 0.64510 0.09500
C 	C 	0.72580 0.84500 0.63000 0.45900
H 	H 	0.70980 0.82140 0.62230 -0.74400
H 	H 	0.70950 0.86860 0.62790 -0.15200
H 	H 	0.73500 0.84130 0.65730 -0.10600
C 	C 	0.59000 0.99260 0.40440 0.49700
C 	C 	0.62050 0.98280 0.37300 -0.04500
C 	C 	0.66130 0.98620 0.38370 -0.08100
H 	H 	0.66820 0.99290 0.41030 -0.03700
C 	C 	0.69010 0.98020 0.35650 0.00200
C 	C 	0.68020 0.96460 0.31840 0.01000
C 	C 	0.64020 0.96020 0.30880 -0.01300
H 	H 	0.63330 0.94930 0.28370 0.03500
C 	C 	0.60980 0.97120 0.33470 0.01200
H 	H 	0.58280 0.97090 0.32650 0.03200
C 	C 	0.70960 0.95750 0.28950 0.04800
C 	C 	0.73520 0.95540 0.26410 0.00900
O 	O 	0.72980 0.98370 0.36410 -0.20100
C 	C 	0.74200 0.00920 0.39570 -0.27100
H 	H 	0.73100 0.03620 0.39210 1.11100
H 	H 	0.73300 0.99860 0.42160 -1.12400
C 	C 	0.78910 0.00990 0.39340 0.34000
C 	C 	0.80170 0.02670 0.35720 -0.40600
H 	H 	0.83110 0.02600 0.35670 0.15000
H 	H 	0.79230 0.00920 0.33550 0.16300
S 	S 	0.78680 0.07500 0.34590 0.11800
C 	C 	0.81410 0.07270 0.29820 -0.45600
H 	H 	0.81090 0.09790 0.28400 0.17300
H 	H 	0.80340 0.05100 0.28200 0.16500
H 	H 	0.84230 0.06790 0.30340 0.17300
C 	C 	0.80070 0.03760 0.42480 -0.35800
H 	H 	0.78650 0.06300 0.42050 0.17200
H 	H 	0.79170 0.02670 0.45060 0.17000
C 	C 	0.86170 0.06930 0.47830 -0.43400
H 	H 	0.89010 0.07530 0.48110 0.14100
H 	H 	0.85380 0.05010 0.49870 0.14300
H 	H 	0.84630 0.09380 0.48150 0.17000
C 	C 	0.80430 0.96770 0.39950 -0.36600
H 	H 	0.79560 0.95160 0.37640 0.15500
H 	H 	0.83370 0.96850 0.39910 0.14100
C 	C 	0.74530 0.91440 0.42650 -0.46100
H 	H 	0.74120 0.92020 0.39830 0.15400
H 	H 	0.74970 0.88580 0.43000 0.17300
H 	H 	0.72170 0.92250 0.44160 0.14500
O 	O 	0.60780 0.99760 0.55450 -0.63500
O 	O 	0.55990 0.00100 0.60340 -0.66500
O 	O 	0.60360 0.99590 0.44000 -0.64100
O 	O 	0.55450 0.99510 0.39370 -0.66900
S 	S 	0.80740 0.01310 0.59890 0.08900
S 	S 	0.85074 0.91530 0.54420 0.05400
S 	S 	0.76900 0.84880 0.59650 -0.01300
S 	S 	0.85230 0.04800 0.42840 0.09200
S 	S 	0.78880 0.94190 0.44470 0.09300
Zr	Zr	0.57346 0.99820 0.49831 3.25100
O 	O 	0.52950 0.96990 0.46800 -2.56900
Hg	Hg	0.88376 0.88919 0.34237 0.10600
Cl	Cl	0.85070 0.93980 0.30270 -0.34500
Cl	Cl	0.84920 0.84350 0.38130 -0.32900
C 	C 	0.73000 0.81100 0.60700 -0.61000
H 	H 	0.72910 0.79220 0.58510 0.20100
H 	H 	0.70470 0.82440 0.61020 0.82400
H 	H 	0.73710 0.79720 0.63170 0.26400
C 	C 	0.62270 0.99000 0.37470 -0.03600
C 	C 	0.66310 0.99760 0.38390 0.03300
H 	H 	0.67090 0.00480 0.41010 0.10000
C 	C 	0.69010 0.99430 0.35450 0.06300
C 	C 	0.67740 0.98350 0.31570 -0.00600
C 	C 	0.63760 0.97620 0.30770 -0.05200
H 	H 	0.62980 0.96900 0.28150 0.05200
C 	C 	0.60900 0.97940 0.33730 -0.00400
H 	H 	0.58160 0.97450 0.33220 0.01900
C 	C 	0.70610 0.98020 0.28530 -0.04100
C 	C 	0.73410 0.97870 0.26280 -0.00300
O 	O 	0.73000 0.00010 0.35650 -0.08200
H 	H 	0.73150 0.03530 0.40420 -0.92800
H 	H 	0.73270 0.98850 0.41450 1.30300
O 	O 	0.53770 0.95570 0.45910 1.79500
H 	H 	0.55380 0.93750 0.44190 -0.55800
O 	O 	0.45900 0.04100 0.45900 -0.85200
H 	H 	0.44190 0.05810 0.44190 0.18600
O 	O 	0.46830 0.03170 0.46830 -0.16100
O 	O 	0.04100 0.45900 0.45900 -0.85200
H 	H 	0.05810 0.44190 0.44190 0.18600
O 	O 	0.03170 0.46830 0.46830 -0.16100
O 	O 	0.04100 0.04100 0.04100 -0.85100
H 	H 	0.05810 0.05810 0.05810 0.18600
O 	O 	0.03170 0.03170 0.03170 -0.16100
O 	O 	0.45900 0.45900 0.04100 -0.85200
H 	H 	0.44190 0.44190 0.05810 0.18600
O 	O 	0.46830 0.46830 0.03170 -0.16100
O 	O 	0.54100 0.95900 0.54100 -0.85200
H 	H 	0.55810 0.94190 0.55810 0.18600
O 	O 	0.53170 0.96830 0.53170 -0.16100
O 	O 	0.95900 0.54100 0.54100 -0.85200
H 	H 	0.94190 0.55810 0.55810 0.18600
O 	O 	0.96830 0.53170 0.53170 -0.16100
O 	O 	0.95900 0.95900 0.95900 -0.85100
H 	H 	0.94190 0.94190 0.94190 0.18600
O 	O 	0.96830 0.96830 0.96830 -0.16100
O 	O 	0.54100 0.54100 0.95900 -0.85200
H 	H 	0.55810 0.55810 0.94190 0.18600
O 	O 	0.53170 0.53170 0.96830 -0.16100
