data_crystal

_cell_length_a 12.78000
_cell_length_b 13.35800
_cell_length_c 28.66800
_cell_angle_alpha 90.00000
_cell_angle_beta  90.00000
_cell_angle_gamma 90.00000

_symmetry_space_group_name_	'P 1'
_symmetry_space_group_name_H-M	'P 1'

loop_
_symmetry_equiv_pos_as_xyz
  x,y,z

loop_
_atom_site_label
_atom_site_type_symbol
_atom_site_fract_x
_atom_site_fract_y
_atom_site_fract_z
_atom_site_charge
Eu	Eu	0.58915 0.45801 0.93004 1.77000
O 	O 	0.59050 0.56290 0.86600 -0.50100
O 	O 	0.66420 0.71150 0.88090 -0.32100
O 	O 	0.53960 0.85360 0.82900 -0.11600
O 	O 	0.68660 0.91410 0.80720 -0.14500
O 	O 	0.94690 0.89650 0.61908 -0.40500
O 	O 	0.95140 0.83850 0.54712 -0.41600
O 	O 	0.66680 0.61150 0.49520 -0.55200
O 	O 	0.55270 0.55310 0.54450 -0.54200
N 	N 	0.62260 0.84710 0.80830 -0.01900
C 	C 	0.63000 0.64470 0.85440 0.42400
C 	C 	0.63460 0.66340 0.80230 -0.18200
C 	C 	0.64310 0.75590 0.78140 0.18300
C 	C 	0.66580 0.77010 0.73470 -0.20300
H 	H 	0.67400 0.83450 0.72280 0.12700
C 	C 	0.67630 0.68690 0.70550 0.14300
C 	C 	0.66280 0.59240 0.72500 -0.18000
H 	H 	0.66760 0.53610 0.70600 0.10600
C 	C 	0.64210 0.58050 0.77250 0.11300
H 	H 	0.63300 0.51650 0.78460 0.00800
C 	C 	0.70510 0.70030 0.65580 -0.07300
C 	C 	0.78560 0.76540 0.64390 0.02700
H 	H 	0.81770 0.80310 0.66720 0.03800
C 	C 	0.81950 0.77540 0.59800 -0.11700
C 	C 	0.76830 0.72100 0.56340 0.08300
H 	H 	0.78960 0.72770 0.53260 0.01500
C 	C 	0.68710 0.65780 0.57390 -0.18400
C 	C 	0.65570 0.64660 0.62100 0.06000
H 	H 	0.60160 0.60290 0.62850 0.02600
C 	C 	0.91060 0.84070 0.58740 0.31700
C 	C 	0.63140 0.60350 0.53540 0.51200
Eu	Eu	0.91085 0.04199 0.43004 1.77100
O 	O 	0.90950 0.93710 0.36600 -0.49900
O 	O 	0.83580 0.78850 0.38090 -0.32100
O 	O 	0.96040 0.64640 0.32900 -0.11600
O 	O 	0.81340 0.58590 0.30720 -0.14400
O 	O 	0.55310 0.60350 0.11908 -0.40500
O 	O 	0.54860 0.66150 0.04712 -0.41500
O 	O 	0.83320 0.88850 0.99520 -0.55400
O 	O 	0.94730 0.94690 0.04450 -0.54100
N 	N 	0.87740 0.65290 0.30830 -0.01900
C 	C 	0.87000 0.85530 0.35440 0.42400
C 	C 	0.86540 0.83660 0.30230 -0.18200
C 	C 	0.85690 0.74410 0.28140 0.18300
C 	C 	0.83420 0.72990 0.23470 -0.20300
H 	H 	0.82600 0.66550 0.22280 0.12700
C 	C 	0.82370 0.81310 0.20550 0.14300
C 	C 	0.83720 0.90760 0.22500 -0.18000
H 	H 	0.83240 0.96390 0.20600 0.10700
C 	C 	0.85790 0.91950 0.27250 0.11300
H 	H 	0.86700 0.98350 0.28460 0.00900
C 	C 	0.79490 0.79970 0.15580 -0.07300
C 	C 	0.71440 0.73460 0.14390 0.02700
H 	H 	0.68230 0.69690 0.16720 0.03800
C 	C 	0.68050 0.72460 0.09800 -0.11700
C 	C 	0.73170 0.77900 0.06340 0.08300
H 	H 	0.71040 0.77230 0.03260 0.01500
C 	C 	0.81290 0.84220 0.07390 -0.18400
C 	C 	0.84430 0.85340 0.12100 0.06100
H 	H 	0.89840 0.89710 0.12850 0.02700
C 	C 	0.58940 0.65930 0.08740 0.31700
C 	C 	0.86860 0.89650 0.03540 0.51400
Eu	Eu	0.41085 0.45801 0.56996 1.77100
O 	O 	0.40950 0.56290 0.63400 -0.50000
O 	O 	0.33580 0.71150 0.61910 -0.32100
O 	O 	0.46040 0.85360 0.67100 -0.11600
O 	O 	0.31340 0.91410 0.69280 -0.14500
O 	O 	0.05310 0.89650 0.88092 -0.40500
O 	O 	0.04860 0.83850 0.95288 -0.41500
O 	O 	0.33320 0.61150 0.00480 -0.55200
O 	O 	0.44730 0.55310 0.95550 -0.54200
N 	N 	0.37740 0.84710 0.69170 -0.01900
C 	C 	0.37000 0.64470 0.64560 0.42400
C 	C 	0.36540 0.66340 0.69770 -0.18200
C 	C 	0.35690 0.75590 0.71860 0.18300
C 	C 	0.33420 0.77010 0.76530 -0.20300
H 	H 	0.32600 0.83450 0.77720 0.12700
C 	C 	0.32370 0.68690 0.79450 0.14300
C 	C 	0.33720 0.59240 0.77500 -0.18000
H 	H 	0.33240 0.53610 0.79400 0.10600
C 	C 	0.35790 0.58050 0.72750 0.11300
H 	H 	0.36700 0.51650 0.71540 0.00800
C 	C 	0.29490 0.70030 0.84420 -0.07300
C 	C 	0.21440 0.76540 0.85610 0.02700
H 	H 	0.18230 0.80310 0.83280 0.03800
C 	C 	0.18050 0.77540 0.90200 -0.11700
C 	C 	0.23170 0.72100 0.93660 0.08300
H 	H 	0.21040 0.72770 0.96740 0.01500
C 	C 	0.31290 0.65780 0.92610 -0.18400
C 	C 	0.34430 0.64660 0.87900 0.06000
H 	H 	0.39840 0.60290 0.87150 0.02600
C 	C 	0.08940 0.84070 0.91260 0.31700
C 	C 	0.36860 0.60350 0.96460 0.51200
Eu	Eu	0.08915 0.04199 0.06996 1.76700
O 	O 	0.09050 0.93710 0.13400 -0.49900
O 	O 	0.16420 0.78850 0.11910 -0.32000
O 	O 	0.03960 0.64640 0.17100 -0.11700
O 	O 	0.18660 0.58590 0.19280 -0.14500
O 	O 	0.44690 0.60350 0.38092 -0.40500
O 	O 	0.45140 0.66150 0.45288 -0.41500
O 	O 	0.16680 0.88850 0.50480 -0.55200
O 	O 	0.05270 0.94690 0.45550 -0.54200
N 	N 	0.12260 0.65290 0.19170 -0.01900
C 	C 	0.13000 0.85530 0.14560 0.42400
C 	C 	0.13460 0.83660 0.19770 -0.18200
C 	C 	0.14310 0.74410 0.21860 0.18300
C 	C 	0.16580 0.72990 0.26530 -0.20300
H 	H 	0.17400 0.66550 0.27720 0.12700
C 	C 	0.17630 0.81310 0.29450 0.14300
C 	C 	0.16280 0.90760 0.27500 -0.18000
H 	H 	0.16760 0.96390 0.29400 0.10700
C 	C 	0.14210 0.91950 0.22750 0.11300
H 	H 	0.13300 0.98350 0.21540 0.00900
C 	C 	0.20510 0.79970 0.34420 -0.07300
C 	C 	0.28560 0.73460 0.35610 0.02700
H 	H 	0.31770 0.69690 0.33280 0.03800
C 	C 	0.31950 0.72460 0.40200 -0.11700
C 	C 	0.26830 0.77900 0.43660 0.08300
H 	H 	0.28960 0.77230 0.46740 0.01500
C 	C 	0.18710 0.84220 0.42610 -0.18400
C 	C 	0.15570 0.85340 0.37900 0.06000
H 	H 	0.10160 0.89710 0.37150 0.02600
C 	C 	0.41060 0.65930 0.41260 0.31700
C 	C 	0.13140 0.89650 0.46460 0.51200
Eu	Eu	0.41085 0.54199 0.06996 1.77100
O 	O 	0.40950 0.43710 0.13400 -0.50000
O 	O 	0.33580 0.28850 0.11910 -0.32100
O 	O 	0.46040 0.14640 0.17100 -0.11600
O 	O 	0.31340 0.08590 0.19280 -0.14500
O 	O 	0.05310 0.10350 0.38092 -0.40500
O 	O 	0.04860 0.16150 0.45288 -0.41600
O 	O 	0.33320 0.38850 0.50480 -0.55200
O 	O 	0.44730 0.44690 0.45550 -0.54200
N 	N 	0.37740 0.15290 0.19170 -0.01900
C 	C 	0.37000 0.35530 0.14560 0.42400
C 	C 	0.36540 0.33660 0.19770 -0.18200
C 	C 	0.35690 0.24410 0.21860 0.18300
C 	C 	0.33420 0.22990 0.26530 -0.20300
H 	H 	0.32600 0.16550 0.27720 0.12700
C 	C 	0.32370 0.31310 0.29450 0.14300
C 	C 	0.33720 0.40760 0.27500 -0.18000
H 	H 	0.33240 0.46390 0.29400 0.10600
C 	C 	0.35790 0.41950 0.22750 0.11300
H 	H 	0.36700 0.48350 0.21540 0.00800
C 	C 	0.29490 0.29970 0.34420 -0.07300
C 	C 	0.21440 0.23460 0.35610 0.02700
H 	H 	0.18230 0.19690 0.33280 0.03800
C 	C 	0.18050 0.22460 0.40200 -0.11700
C 	C 	0.23170 0.27900 0.43660 0.08300
H 	H 	0.21040 0.27230 0.46740 0.01500
C 	C 	0.31290 0.34220 0.42610 -0.18400
C 	C 	0.34430 0.35340 0.37900 0.06000
H 	H 	0.39840 0.39710 0.37150 0.02600
C 	C 	0.08940 0.15930 0.41260 0.31700
C 	C 	0.36860 0.39650 0.46460 0.51200
Eu	Eu	0.08915 0.95801 0.56996 1.77100
O 	O 	0.09050 0.06290 0.63400 -0.49900
O 	O 	0.16420 0.21150 0.61910 -0.32100
O 	O 	0.03960 0.35360 0.67100 -0.11600
O 	O 	0.18660 0.41410 0.69280 -0.14400
O 	O 	0.44690 0.39650 0.88092 -0.40500
O 	O 	0.45140 0.33850 0.95288 -0.41500
O 	O 	0.16680 0.11150 0.00480 -0.55400
O 	O 	0.05270 0.05310 0.95550 -0.54100
N 	N 	0.12260 0.34710 0.69170 -0.01900
C 	C 	0.13000 0.14470 0.64560 0.42400
C 	C 	0.13460 0.16340 0.69770 -0.18200
C 	C 	0.14310 0.25590 0.71860 0.18300
C 	C 	0.16580 0.27010 0.76530 -0.20300
H 	H 	0.17400 0.33450 0.77720 0.12700
C 	C 	0.17630 0.18690 0.79450 0.14300
C 	C 	0.16280 0.09240 0.77500 -0.18000
H 	H 	0.16760 0.03610 0.79400 0.10700
C 	C 	0.14210 0.08050 0.72750 0.11300
H 	H 	0.13300 0.01650 0.71540 0.00900
C 	C 	0.20510 0.20030 0.84420 -0.07300
C 	C 	0.28560 0.26540 0.85610 0.02700
H 	H 	0.31770 0.30310 0.83280 0.03800
C 	C 	0.31950 0.27540 0.90200 -0.11700
C 	C 	0.26830 0.22100 0.93660 0.08300
H 	H 	0.28960 0.22770 0.96740 0.01500
C 	C 	0.18710 0.15780 0.92610 -0.18400
C 	C 	0.15570 0.14660 0.87900 0.06100
H 	H 	0.10160 0.10290 0.87150 0.02700
C 	C 	0.41060 0.34070 0.91260 0.31700
C 	C 	0.13140 0.10350 0.96460 0.51400
Eu	Eu	0.58915 0.54199 0.43004 1.77100
O 	O 	0.59050 0.43710 0.36600 -0.50000
O 	O 	0.66420 0.28850 0.38090 -0.32100
O 	O 	0.53960 0.14640 0.32900 -0.11600
O 	O 	0.68660 0.08590 0.30720 -0.14500
O 	O 	0.94690 0.10350 0.11908 -0.40500
O 	O 	0.95140 0.16150 0.04712 -0.41500
O 	O 	0.66680 0.38850 0.99520 -0.55200
O 	O 	0.55270 0.44690 0.04450 -0.54200
N 	N 	0.62260 0.15290 0.30830 -0.01900
C 	C 	0.63000 0.35530 0.35440 0.42400
C 	C 	0.63460 0.33660 0.30230 -0.18200
C 	C 	0.64310 0.24410 0.28140 0.18300
C 	C 	0.66580 0.22990 0.23470 -0.20300
H 	H 	0.67400 0.16550 0.22280 0.12700
C 	C 	0.67630 0.31310 0.20550 0.14300
C 	C 	0.66280 0.40760 0.22500 -0.18000
H 	H 	0.66760 0.46390 0.20600 0.10600
C 	C 	0.64210 0.41950 0.27250 0.11300
H 	H 	0.63300 0.48350 0.28460 0.00800
C 	C 	0.70510 0.29970 0.15580 -0.07300
C 	C 	0.78560 0.23460 0.14390 0.02700
H 	H 	0.81770 0.19690 0.16720 0.03800
C 	C 	0.81950 0.22460 0.09800 -0.11700
C 	C 	0.76830 0.27900 0.06340 0.08300
H 	H 	0.78960 0.27230 0.03260 0.01500
C 	C 	0.68710 0.34220 0.07390 -0.18400
C 	C 	0.65570 0.35340 0.12100 0.06000
H 	H 	0.60160 0.39710 0.12850 0.02600
C 	C 	0.91060 0.15930 0.08740 0.31700
C 	C 	0.63140 0.39650 0.03540 0.51200
Eu	Eu	0.91085 0.95801 0.93004 1.76700
O 	O 	0.90950 0.06290 0.86600 -0.49900
O 	O 	0.83580 0.21150 0.88090 -0.32000
O 	O 	0.96040 0.35360 0.82900 -0.11700
O 	O 	0.81340 0.41410 0.80720 -0.14500
O 	O 	0.55310 0.39650 0.61908 -0.40500
O 	O 	0.54860 0.33850 0.54712 -0.41500
O 	O 	0.83320 0.11150 0.49520 -0.55200
O 	O 	0.94730 0.05310 0.54450 -0.54200
N 	N 	0.87740 0.34710 0.80830 -0.01900
C 	C 	0.87000 0.14470 0.85440 0.42400
C 	C 	0.86540 0.16340 0.80230 -0.18200
C 	C 	0.85690 0.25590 0.78140 0.18300
C 	C 	0.83420 0.27010 0.73470 -0.20300
H 	H 	0.82600 0.33450 0.72280 0.12700
C 	C 	0.82370 0.18690 0.70550 0.14300
C 	C 	0.83720 0.09240 0.72500 -0.18000
H 	H 	0.83240 0.03610 0.70600 0.10700
C 	C 	0.85790 0.08050 0.77250 0.11300
H 	H 	0.86700 0.01650 0.78460 0.00900
C 	C 	0.79490 0.20030 0.65580 -0.07300
C 	C 	0.71440 0.26540 0.64390 0.02700
H 	H 	0.68230 0.30310 0.66720 0.03800
C 	C 	0.68050 0.27540 0.59800 -0.11700
C 	C 	0.73170 0.22100 0.56340 0.08300
H 	H 	0.71040 0.22770 0.53260 0.01500
C 	C 	0.81290 0.15780 0.57390 -0.18400
C 	C 	0.84430 0.14660 0.62100 0.06000
H 	H 	0.89840 0.10290 0.62850 0.02600
C 	C 	0.58940 0.34070 0.58740 0.31700
C 	C 	0.86860 0.10350 0.53540 0.51200
