data_crystal

_cell_length_a 34.96700
_cell_length_b 21.61250
_cell_length_c 41.29600
_cell_angle_alpha 90.00000
_cell_angle_beta  90.00000
_cell_angle_gamma 90.00000

_symmetry_space_group_name_	'P 1'
_symmetry_space_group_name_H-M	'P 1'

loop_
_symmetry_equiv_pos_as_xyz
  x,y,z

loop_
_atom_site_label
_atom_site_type_symbol
_atom_site_fract_x
_atom_site_fract_y
_atom_site_fract_z
_atom_site_charge
Gd	Gd	0.27660 0.06248 0.04341 1.53200
Gd	Gd	0.52233 0.27573 0.89407 1.55200
Gd	Gd	0.44891 0.14542 0.83986 1.51500
Gd	Gd	0.59304 0.35301 0.14623 1.61500
Gd	Gd	0.35367 0.78027 0.92994 1.49800
Gd	Gd	0.34570 0.94007 0.98324 1.64100
C 	C 	0.27420 0.25680 0.06170 -0.10000
C 	C 	0.27300 0.18810 0.05700 0.33600
O 	O 	0.24940 0.16710 0.03740 -0.37900
O 	O 	0.29270 0.15530 0.07500 -0.38100
C 	C 	0.24950 0.29490 0.04510 0.05200
H 	H 	0.23120 0.27750 0.03150 0.03700
C 	C 	0.25120 0.35930 0.04830 -0.14400
C 	C 	0.22340 0.39980 0.03040 0.40900
O 	O 	0.22540 0.45790 0.03610 -0.48200
O 	O 	0.19980 0.37480 0.01060 -0.42000
C 	C 	0.27900 0.38610 0.06640 0.04000
H 	H 	0.28120 0.42900 0.06750 0.00000
C 	C 	0.30460 0.34730 0.08360 -0.05500
C 	C 	0.33160 0.37390 0.10290 0.08000
N 	N 	0.35750 0.39330 0.11940 -0.11600
C 	C 	0.38600 0.33080 0.81840 0.03300
H 	H 	0.38210 0.28840 0.81620 0.01600
C 	C 	0.30120 0.28430 0.08090 0.01300
H 	H 	0.31790 0.25930 0.09260 0.04800
C 	C 	0.37710 0.14960 0.98610 -0.15400
C 	C 	0.34880 0.10000 0.99720 0.47400
O 	O 	0.32210 0.11520 0.01460 -0.45300
O 	O 	0.35570 0.04590 0.98770 -0.47600
C 	C 	0.39790 0.14290 0.95870 0.09000
H 	H 	0.39620 0.10680 0.94650 0.02200
C 	C 	0.42240 0.19130 0.94890 -0.16000
C 	C 	0.44190 0.19040 0.91730 0.44300
O 	O 	0.46960 0.22890 0.91350 -0.45100
O 	O 	0.43100 0.15400 0.89600 -0.42800
C 	C 	0.42650 0.24130 0.96950 0.04300
H 	H 	0.44210 0.27400 0.96320 0.03500
C 	C 	0.40800 0.24460 0.99920 -0.05900
C 	C 	0.40930 0.30020 0.01860 0.09400
N 	N 	0.41310 0.34320 0.03450 -0.12000
C 	C 	0.38190 0.19850 0.00820 0.03300
H 	H 	0.36860 0.20010 0.02760 0.03700
C 	C 	0.55490 0.06640 0.88940 -0.16300
C 	C 	0.53030 0.12380 0.88680 0.47000
O 	O 	0.54090 0.17030 0.90170 -0.45000
O 	O 	0.50350 0.11850 0.86740 -0.45900
C 	C 	0.58420 0.06320 0.91240 0.09300
H 	H 	0.58830 0.09720 0.92570 0.01600
C 	C 	0.60800 0.01060 0.91620 -0.17900
C 	C 	0.63930 0.00960 0.93980 0.45900
O 	O 	0.63710 0.04930 0.96290 -0.46800
O 	O 	0.66400 0.96930 0.93670 -0.46100
C 	C 	0.60200 0.96060 0.89870 0.05400
H 	H 	0.61690 0.92550 0.90180 0.02900
C 	C 	0.57190 0.96070 0.87440 -0.06700
C 	C 	0.56200 0.90200 0.86620 0.09900
N 	N 	0.55800 0.87100 0.84380 -0.12000
C 	C 	0.54860 0.01670 0.87020 0.05000
H 	H 	0.52950 0.01790 0.85450 0.03500
C 	C 	0.52200 0.35280 0.99000 -0.10600
C 	C 	0.52200 0.32830 0.95710 0.31000
O 	O 	0.49900 0.35080 0.93560 -0.34900
O 	O 	0.54350 0.28390 0.94960 -0.38800
C 	C 	0.54700 0.33200 0.01320 0.07600
H 	H 	0.56330 0.29960 0.00800 0.02900
C 	C 	0.54890 0.35650 0.04370 -0.16800
C 	C 	0.57720 0.33270 0.06580 0.43800
O 	O 	0.58490 0.36670 0.09040 -0.44300
O 	O 	0.59280 0.28060 0.06160 -0.43700
C 	C 	0.52330 0.40200 0.05220 0.05000
H 	H 	0.52420 0.41870 0.07300 0.02400
C 	C 	0.49580 0.42350 0.03020 -0.05200
C 	C 	0.46850 0.47230 0.04020 0.10400
N 	N 	0.44780 0.50870 0.04800 -0.12800
C 	C 	0.49540 0.40010 0.99940 0.01600
H 	H 	0.47780 0.41510 0.98440 0.04900
C 	C 	0.55780 0.23260 0.79290 -0.16400
C 	C 	0.52600 0.21530 0.81370 0.44900
O 	O 	0.52630 0.24350 0.84190 -0.47500
O 	O 	0.50110 0.17950 0.80520 -0.42500
C 	C 	0.56080 0.20430 0.76190 0.05800
H 	H 	0.54240 0.17630 0.75480 0.04200
C 	C 	0.59180 0.21970 0.74260 -0.08400
C 	C 	0.59440 0.19090 0.70920 0.29600
O 	O 	0.56460 0.16320 0.69870 -0.38500
O 	O 	0.62450 0.19840 0.69270 -0.35000
C 	C 	0.61960 0.25840 0.75220 0.01600
H 	H 	0.64150 0.26650 0.74010 0.04600
C 	C 	0.61260 0.28500 0.78200 -0.07200
C 	C 	0.64180 0.32100 0.79200 0.09500
N 	N 	0.66270 0.35900 0.80020 -0.12600
C 	C 	0.58520 0.27260 0.80320 0.07000
H 	H 	0.58470 0.29010 0.82380 -0.00800
C 	C 	0.45190 0.94740 0.82900 -0.11200
C 	C 	0.44950 0.01540 0.83150 0.32400
O 	O 	0.46640 0.04940 0.81150 -0.37300
O 	O 	0.43040 0.03790 0.85440 -0.36600
C 	C 	0.43510 0.91110 0.85070 0.06700
H 	H 	0.42160 0.92900 0.86770 0.03300
C 	C 	0.43720 0.84490 0.84850 -0.16000
C 	C 	0.41530 0.80660 0.87260 0.44600
O 	O 	0.40110 0.82960 0.89770 -0.44400
O 	O 	0.41390 0.75000 0.86600 -0.49200
C 	C 	0.45530 0.82150 0.82300 0.05900
H 	H 	0.45540 0.77880 0.82020 0.01500
C 	C 	0.47400 0.85870 0.80020 -0.05900
C 	C 	0.49500 0.83230 0.77370 0.09700
N 	N 	0.51250 0.81390 0.75170 -0.12000
C 	C 	0.47120 0.92060 0.80340 0.02300
H 	H 	0.48250 0.94600 0.78790 0.04500
C 	C 	0.24180 0.02940 0.93400 -0.15800
C 	C 	0.26430 0.02140 0.96480 0.42200
O 	O 	0.25660 0.05490 0.98850 -0.43000
O 	O 	0.28840 0.97450 0.96580 -0.44900
C 	C 	0.21880 0.07860 0.93130 0.09700
H 	H 	0.21540 0.10520 0.94880 0.02300
C 	C 	0.20040 0.08960 0.90300 -0.15100
C 	C 	0.17360 0.14530 0.89830 0.44900
O 	O 	0.17270 0.18180 0.92110 -0.46500
O 	O 	0.15430 0.15160 0.87260 -0.47100
C 	C 	0.20480 0.05040 0.87520 0.03200
H 	H 	0.19280 0.05940 0.85570 0.03900
C 	C 	0.22780 0.99900 0.87860 -0.07100
C 	C 	0.23470 0.95940 0.85140 0.10400
N 	N 	0.23950 0.92780 0.83090 -0.12900
C 	C 	0.24760 0.99250 0.90720 0.05300
H 	H 	0.26600 0.96150 0.90860 0.02100
C 	C 	0.41730 0.35070 0.83510 -0.13300
C 	C 	0.44640 0.30710 0.85110 0.44900
O 	O 	0.47180 0.32800 0.86820 -0.44700
O 	O 	0.44040 0.25050 0.84290 -0.47300
C 	C 	0.41980 0.41400 0.84130 0.05300
H 	H 	0.43970 0.42840 0.85420 0.04100
C 	C 	0.39470 0.45490 0.82930 -0.09400
C 	C 	0.39920 0.52200 0.83600 0.31200
O 	O 	0.42510 0.54000 0.85430 -0.39500
O 	O 	0.37540 0.56140 0.82370 -0.34700
C 	C 	0.36520 0.43480 0.81030 0.00600
H 	H 	0.34860 0.46350 0.80100 0.05300
C 	C 	0.35950 0.37130 0.80450 -0.04300
C 	C 	0.32720 0.34700 0.78400 0.09200
N 	N 	0.30380 0.32930 0.76740 -0.11700
O 	O 	0.34170 0.89000 0.93010 -0.55700
C 	C 	0.34990 0.93900 0.91170 0.51500
H 	H 	0.35120 0.93520 0.88930 -0.13800
O 	O 	0.35540 0.98610 0.92380 -0.41700
O 	O 	0.36790 0.83350 0.98140 -0.51800
C 	C 	0.35840 0.78540 0.99950 0.41500
H 	H 	0.35940 0.78920 0.02190 -0.09700
O 	O 	0.34830 0.73600 0.98770 -0.37200
Gd	Gd	0.22340 0.93752 0.54341 1.53400
Gd	Gd	0.97767 0.72427 0.39407 1.55200
Gd	Gd	0.05109 0.85458 0.33986 1.51700
Gd	Gd	0.90696 0.64699 0.64623 1.61600
Gd	Gd	0.14633 0.21973 0.42994 1.49900
Gd	Gd	0.15430 0.05993 0.48324 1.64200
C 	C 	0.22580 0.74320 0.56170 -0.09900
C 	C 	0.22700 0.81190 0.55700 0.33700
O 	O 	0.25060 0.83290 0.53740 -0.37800
O 	O 	0.20730 0.84470 0.57500 -0.38000
C 	C 	0.25050 0.70510 0.54510 0.05300
H 	H 	0.26880 0.72250 0.53150 0.03800
C 	C 	0.24880 0.64070 0.54830 -0.14300
C 	C 	0.27660 0.60020 0.53040 0.41000
O 	O 	0.27460 0.54210 0.53610 -0.48100
O 	O 	0.30020 0.62520 0.51060 -0.41900
C 	C 	0.22100 0.61390 0.56640 0.04100
H 	H 	0.21880 0.57100 0.56750 0.00100
C 	C 	0.19540 0.65270 0.58360 -0.05400
C 	C 	0.16840 0.62610 0.60290 0.08100
N 	N 	0.14250 0.60670 0.61940 -0.11500
C 	C 	0.11400 0.66920 0.31840 0.03400
H 	H 	0.11790 0.71160 0.31620 0.01700
C 	C 	0.19880 0.71570 0.58090 0.01400
H 	H 	0.18210 0.74070 0.59260 0.04900
C 	C 	0.12290 0.85040 0.48610 -0.15300
C 	C 	0.15120 0.90000 0.49720 0.47500
O 	O 	0.17790 0.88480 0.51460 -0.45200
O 	O 	0.14430 0.95410 0.48770 -0.47500
C 	C 	0.10210 0.85710 0.45870 0.09100
H 	H 	0.10380 0.89320 0.44650 0.02300
C 	C 	0.07760 0.80870 0.44890 -0.15900
C 	C 	0.05810 0.80960 0.41730 0.44400
O 	O 	0.03040 0.77110 0.41350 -0.45000
O 	O 	0.06900 0.84600 0.39600 -0.42700
C 	C 	0.07350 0.75870 0.46950 0.04400
H 	H 	0.05790 0.72600 0.46320 0.03600
C 	C 	0.09200 0.75540 0.49920 -0.05800
C 	C 	0.09070 0.69980 0.51860 0.09500
N 	N 	0.08690 0.65680 0.53450 -0.11900
C 	C 	0.11810 0.80150 0.50820 0.03400
H 	H 	0.13140 0.79990 0.52760 0.03800
C 	C 	0.94510 0.93360 0.38940 -0.16200
C 	C 	0.96970 0.87620 0.38680 0.47100
O 	O 	0.95910 0.82970 0.40170 -0.44900
O 	O 	0.99650 0.88150 0.36740 -0.45900
C 	C 	0.91580 0.93680 0.41240 0.09400
H 	H 	0.91170 0.90280 0.42570 0.01700
C 	C 	0.89200 0.98940 0.41620 -0.17800
C 	C 	0.86070 0.99040 0.43980 0.46000
O 	O 	0.86290 0.95070 0.46290 -0.46700
O 	O 	0.83600 0.03070 0.43670 -0.46000
C 	C 	0.89800 0.03940 0.39870 0.05500
H 	H 	0.88310 0.07450 0.40180 0.03000
C 	C 	0.92810 0.03930 0.37440 -0.06600
C 	C 	0.93800 0.09800 0.36620 0.10000
N 	N 	0.94200 0.12900 0.34380 -0.11900
C 	C 	0.95140 0.98330 0.37020 0.05000
H 	H 	0.97050 0.98210 0.35450 0.03600
C 	C 	0.97800 0.64720 0.49000 -0.10500
C 	C 	0.97800 0.67170 0.45710 0.31100
O 	O 	0.00100 0.64920 0.43560 -0.34800
O 	O 	0.95650 0.71610 0.44960 -0.38700
C 	C 	0.95300 0.66800 0.51320 0.07800
H 	H 	0.93670 0.70040 0.50800 0.03000
C 	C 	0.95110 0.64350 0.54370 -0.16700
C 	C 	0.92280 0.66730 0.56580 0.43800
O 	O 	0.91510 0.63330 0.59040 -0.44300
O 	O 	0.90720 0.71940 0.56160 -0.43700
C 	C 	0.97670 0.59800 0.55220 0.05000
H 	H 	0.97580 0.58130 0.57300 0.02400
C 	C 	0.00420 0.57650 0.53020 -0.05200
C 	C 	0.03150 0.52770 0.54020 0.10400
N 	N 	0.05220 0.49130 0.54800 -0.12800
C 	C 	0.00460 0.59990 0.49940 0.01600
H 	H 	0.02220 0.58490 0.48440 0.04900
C 	C 	0.94220 0.76740 0.29290 -0.16400
C 	C 	0.97400 0.78470 0.31370 0.44900
O 	O 	0.97370 0.75650 0.34190 -0.47500
O 	O 	0.99890 0.82050 0.30520 -0.42500
C 	C 	0.93920 0.79570 0.26190 0.05800
H 	H 	0.95760 0.82370 0.25480 0.04200
C 	C 	0.90820 0.78030 0.24260 -0.08400
C 	C 	0.90560 0.80910 0.20920 0.29600
O 	O 	0.93540 0.83680 0.19870 -0.38500
O 	O 	0.87550 0.80160 0.19270 -0.35000
C 	C 	0.88040 0.74160 0.25220 0.01600
H 	H 	0.85850 0.73350 0.24010 0.04600
C 	C 	0.88740 0.71500 0.28200 -0.07200
C 	C 	0.85820 0.67900 0.29200 0.09500
N 	N 	0.83730 0.64100 0.30020 -0.12600
C 	C 	0.91480 0.72740 0.30320 0.07000
H 	H 	0.91530 0.70990 0.32380 -0.00800
C 	C 	0.04810 0.05260 0.32900 -0.11300
C 	C 	0.05050 0.98460 0.33150 0.32400
O 	O 	0.03360 0.95060 0.31150 -0.37300
O 	O 	0.06960 0.96210 0.35440 -0.36600
C 	C 	0.06490 0.08890 0.35070 0.06700
H 	H 	0.07840 0.07100 0.36770 0.03300
C 	C 	0.06280 0.15510 0.34850 -0.16000
C 	C 	0.08470 0.19340 0.37260 0.44600
O 	O 	0.09890 0.17040 0.39770 -0.44400
O 	O 	0.08610 0.25000 0.36600 -0.49200
C 	C 	0.04470 0.17850 0.32300 0.05900
H 	H 	0.04460 0.22120 0.32020 0.01500
C 	C 	0.02600 0.14130 0.30020 -0.05900
C 	C 	0.00500 0.16770 0.27370 0.09700
N 	N 	0.98750 0.18610 0.25170 -0.12000
C 	C 	0.02880 0.07940 0.30340 0.02400
H 	H 	0.01750 0.05400 0.28790 0.04500
C 	C 	0.25820 0.97060 0.43400 -0.15700
C 	C 	0.23570 0.97860 0.46480 0.42200
O 	O 	0.24340 0.94510 0.48850 -0.43000
O 	O 	0.21160 0.02550 0.46580 -0.44900
C 	C 	0.28120 0.92140 0.43130 0.09700
H 	H 	0.28460 0.89480 0.44880 0.02300
C 	C 	0.29960 0.91040 0.40300 -0.15100
C 	C 	0.32640 0.85470 0.39830 0.45000
O 	O 	0.32730 0.81820 0.42110 -0.46500
O 	O 	0.34570 0.84840 0.37260 -0.47100
C 	C 	0.29520 0.94960 0.37520 0.03300
H 	H 	0.30720 0.94060 0.35570 0.03900
C 	C 	0.27220 0.00100 0.37860 -0.07100
C 	C 	0.26530 0.04060 0.35140 0.10400
N 	N 	0.26050 0.07220 0.33090 -0.12900
C 	C 	0.25240 0.00750 0.40720 0.05300
H 	H 	0.23400 0.03850 0.40860 0.02100
C 	C 	0.08270 0.64930 0.33510 -0.13300
C 	C 	0.05360 0.69290 0.35110 0.44900
O 	O 	0.02820 0.67200 0.36820 -0.44700
O 	O 	0.05960 0.74950 0.34290 -0.47300
C 	C 	0.08020 0.58600 0.34130 0.05300
H 	H 	0.06030 0.57160 0.35420 0.04100
C 	C 	0.10530 0.54510 0.32930 -0.09400
C 	C 	0.10080 0.47800 0.33600 0.31200
O 	O 	0.07490 0.46000 0.35430 -0.39500
O 	O 	0.12460 0.43860 0.32370 -0.34700
C 	C 	0.13480 0.56520 0.31030 0.00600
H 	H 	0.15140 0.53650 0.30100 0.05300
C 	C 	0.14050 0.62870 0.30450 -0.04300
C 	C 	0.17280 0.65300 0.28400 0.09200
N 	N 	0.19620 0.67070 0.26740 -0.11700
O 	O 	0.15830 0.11000 0.43010 -0.55700
C 	C 	0.15010 0.06100 0.41170 0.51500
H 	H 	0.14880 0.06480 0.38930 -0.13800
O 	O 	0.14460 0.01390 0.42380 -0.41700
O 	O 	0.13210 0.16650 0.48140 -0.51800
C 	C 	0.14160 0.21460 0.49950 0.41500
H 	H 	0.14060 0.21080 0.52190 -0.09700
O 	O 	0.15170 0.26400 0.48770 -0.37300
Gd	Gd	0.72340 0.56248 0.45659 1.53400
Gd	Gd	0.47767 0.77573 0.60593 1.55300
Gd	Gd	0.55109 0.64542 0.66014 1.51600
Gd	Gd	0.40696 0.85301 0.35377 1.61600
Gd	Gd	0.64633 0.28027 0.57006 1.49900
Gd	Gd	0.65430 0.44007 0.51676 1.64200
C 	C 	0.72580 0.75680 0.43830 -0.09900
C 	C 	0.72700 0.68810 0.44300 0.33700
O 	O 	0.75060 0.66710 0.46260 -0.37800
O 	O 	0.70730 0.65530 0.42500 -0.38000
C 	C 	0.75050 0.79490 0.45490 0.05300
H 	H 	0.76880 0.77750 0.46850 0.03800
C 	C 	0.74880 0.85930 0.45170 -0.14300
C 	C 	0.77660 0.89980 0.46960 0.41000
O 	O 	0.77460 0.95790 0.46390 -0.48100
O 	O 	0.80020 0.87480 0.48940 -0.41900
C 	C 	0.72100 0.88610 0.43360 0.04100
H 	H 	0.71880 0.92900 0.43250 0.00100
C 	C 	0.69540 0.84730 0.41640 -0.05400
C 	C 	0.66840 0.87390 0.39710 0.08100
N 	N 	0.64250 0.89330 0.38060 -0.11500
C 	C 	0.61400 0.83080 0.68160 0.03400
H 	H 	0.61790 0.78840 0.68380 0.01700
C 	C 	0.69880 0.78430 0.41910 0.01400
H 	H 	0.68210 0.75930 0.40740 0.04900
C 	C 	0.62290 0.64960 0.51390 -0.15300
C 	C 	0.65120 0.60000 0.50280 0.47500
O 	O 	0.67790 0.61520 0.48540 -0.45200
O 	O 	0.64430 0.54590 0.51230 -0.47500
C 	C 	0.60210 0.64290 0.54130 0.09100
H 	H 	0.60380 0.60680 0.55350 0.02300
C 	C 	0.57760 0.69130 0.55110 -0.15900
C 	C 	0.55810 0.69040 0.58270 0.44400
O 	O 	0.53040 0.72890 0.58650 -0.45000
O 	O 	0.56900 0.65400 0.60400 -0.42700
C 	C 	0.57350 0.74130 0.53050 0.04400
H 	H 	0.55790 0.77400 0.53680 0.03600
C 	C 	0.59200 0.74460 0.50080 -0.05800
C 	C 	0.59070 0.80020 0.48140 0.09500
N 	N 	0.58690 0.84320 0.46550 -0.11900
C 	C 	0.61810 0.69850 0.49180 0.03400
H 	H 	0.63140 0.70010 0.47240 0.03800
C 	C 	0.44510 0.56640 0.61060 -0.16200
C 	C 	0.46970 0.62380 0.61320 0.47100
O 	O 	0.45910 0.67030 0.59830 -0.44900
O 	O 	0.49650 0.61850 0.63260 -0.45800
C 	C 	0.41580 0.56320 0.58760 0.09400
H 	H 	0.41170 0.59720 0.57430 0.01700
C 	C 	0.39200 0.51060 0.58380 -0.17800
C 	C 	0.36070 0.50960 0.56020 0.46000
O 	O 	0.36290 0.54930 0.53710 -0.46700
O 	O 	0.33600 0.46930 0.56330 -0.46000
C 	C 	0.39800 0.46060 0.60130 0.05500
H 	H 	0.38310 0.42550 0.59820 0.03000
C 	C 	0.42810 0.46070 0.62560 -0.06600
C 	C 	0.43800 0.40200 0.63380 0.10000
N 	N 	0.44200 0.37100 0.65620 -0.11900
C 	C 	0.45140 0.51670 0.62980 0.05100
H 	H 	0.47050 0.51790 0.64550 0.03600
C 	C 	0.47800 0.85280 0.51000 -0.10500
C 	C 	0.47800 0.82830 0.54290 0.31100
O 	O 	0.50100 0.85080 0.56440 -0.34800
O 	O 	0.45650 0.78390 0.55040 -0.38700
C 	C 	0.45300 0.83200 0.48680 0.07800
H 	H 	0.43670 0.79960 0.49200 0.03000
C 	C 	0.45110 0.85650 0.45630 -0.16700
C 	C 	0.42280 0.83270 0.43420 0.43800
O 	O 	0.41510 0.86670 0.40960 -0.44300
O 	O 	0.40720 0.78060 0.43840 -0.43700
C 	C 	0.47670 0.90200 0.44780 0.05000
H 	H 	0.47580 0.91870 0.42700 0.02400
C 	C 	0.50420 0.92350 0.46980 -0.05200
C 	C 	0.53150 0.97230 0.45980 0.10400
N 	N 	0.55220 0.00870 0.45200 -0.12800
C 	C 	0.50460 0.90010 0.50060 0.01600
H 	H 	0.52220 0.91510 0.51560 0.04900
C 	C 	0.44220 0.73260 0.70710 -0.16400
C 	C 	0.47400 0.71530 0.68630 0.44900
O 	O 	0.47370 0.74350 0.65810 -0.47500
O 	O 	0.49890 0.67950 0.69480 -0.42500
C 	C 	0.43920 0.70430 0.73810 0.05800
H 	H 	0.45760 0.67630 0.74520 0.04200
C 	C 	0.40820 0.71970 0.75740 -0.08400
C 	C 	0.40560 0.69090 0.79080 0.29600
O 	O 	0.43540 0.66320 0.80130 -0.38500
O 	O 	0.37550 0.69840 0.80730 -0.35000
C 	C 	0.38040 0.75840 0.74780 0.01600
H 	H 	0.35850 0.76650 0.75990 0.04600
C 	C 	0.38740 0.78500 0.71800 -0.07200
C 	C 	0.35820 0.82100 0.70800 0.09500
N 	N 	0.33730 0.85900 0.69980 -0.12600
C 	C 	0.41480 0.77260 0.69680 0.07000
H 	H 	0.41530 0.79010 0.67620 -0.00800
C 	C 	0.54810 0.44740 0.67100 -0.11200
C 	C 	0.55050 0.51540 0.66850 0.32400
O 	O 	0.53360 0.54940 0.68850 -0.37300
O 	O 	0.56960 0.53790 0.64560 -0.36600
C 	C 	0.56490 0.41110 0.64930 0.06700
H 	H 	0.57840 0.42900 0.63230 0.03300
C 	C 	0.56280 0.34490 0.65150 -0.16000
C 	C 	0.58470 0.30660 0.62740 0.44600
O 	O 	0.59890 0.32960 0.60230 -0.44400
O 	O 	0.58610 0.25000 0.63400 -0.49200
C 	C 	0.54470 0.32150 0.67700 0.05900
H 	H 	0.54460 0.27880 0.67980 0.01500
C 	C 	0.52600 0.35870 0.69980 -0.05900
C 	C 	0.50500 0.33230 0.72630 0.09700
N 	N 	0.48750 0.31390 0.74830 -0.12000
C 	C 	0.52880 0.42060 0.69660 0.02300
H 	H 	0.51750 0.44600 0.71210 0.04500
C 	C 	0.75820 0.52940 0.56600 -0.15700
C 	C 	0.73570 0.52140 0.53520 0.42200
O 	O 	0.74340 0.55490 0.51150 -0.43000
O 	O 	0.71160 0.47450 0.53420 -0.44900
C 	C 	0.78120 0.57860 0.56870 0.09700
H 	H 	0.78460 0.60520 0.55120 0.02300
C 	C 	0.79960 0.58960 0.59700 -0.15100
C 	C 	0.82640 0.64530 0.60170 0.44900
O 	O 	0.82730 0.68180 0.57890 -0.46500
O 	O 	0.84570 0.65160 0.62740 -0.47100
C 	C 	0.79520 0.55040 0.62480 0.03200
H 	H 	0.80720 0.55940 0.64430 0.03900
C 	C 	0.77220 0.49900 0.62140 -0.07100
C 	C 	0.76530 0.45940 0.64860 0.10400
N 	N 	0.76050 0.42780 0.66910 -0.12900
C 	C 	0.75240 0.49250 0.59280 0.05300
H 	H 	0.73400 0.46150 0.59140 0.02100
C 	C 	0.58270 0.85070 0.66490 -0.13300
C 	C 	0.55360 0.80710 0.64890 0.44900
O 	O 	0.52820 0.82800 0.63180 -0.44700
O 	O 	0.55960 0.75050 0.65710 -0.47300
C 	C 	0.58020 0.91400 0.65870 0.05300
H 	H 	0.56030 0.92840 0.64580 0.04100
C 	C 	0.60530 0.95490 0.67070 -0.09400
C 	C 	0.60080 0.02200 0.66400 0.31200
O 	O 	0.57490 0.04000 0.64570 -0.39500
O 	O 	0.62460 0.06140 0.67630 -0.34700
C 	C 	0.63480 0.93480 0.68970 0.00600
H 	H 	0.65140 0.96350 0.69900 0.05300
C 	C 	0.64050 0.87130 0.69550 -0.04300
C 	C 	0.67280 0.84700 0.71600 0.09200
N 	N 	0.69620 0.82930 0.73260 -0.11700
O 	O 	0.65830 0.39000 0.56990 -0.55700
C 	C 	0.65010 0.43900 0.58830 0.51400
H 	H 	0.64880 0.43520 0.61070 -0.13800
O 	O 	0.64460 0.48610 0.57620 -0.41700
O 	O 	0.63210 0.33350 0.51860 -0.51800
C 	C 	0.64160 0.28540 0.50050 0.41500
H 	H 	0.64060 0.28920 0.47810 -0.09700
O 	O 	0.65170 0.23600 0.51230 -0.37300
Gd	Gd	0.77660 0.43752 0.95659 1.53400
Gd	Gd	0.02233 0.22427 0.10593 1.55200
Gd	Gd	0.94891 0.35458 0.16014 1.51600
Gd	Gd	0.09304 0.14699 0.85377 1.61600
Gd	Gd	0.85367 0.71973 0.07006 1.49900
Gd	Gd	0.84570 0.55993 0.01676 1.64200
C 	C 	0.77420 0.24320 0.93830 -0.09900
C 	C 	0.77300 0.31190 0.94300 0.33700
O 	O 	0.74940 0.33290 0.96260 -0.37800
O 	O 	0.79270 0.34470 0.92500 -0.38000
C 	C 	0.74950 0.20510 0.95490 0.05300
H 	H 	0.73120 0.22250 0.96850 0.03800
C 	C 	0.75120 0.14070 0.95170 -0.14300
C 	C 	0.72340 0.10020 0.96960 0.41000
O 	O 	0.72540 0.04210 0.96390 -0.48100
O 	O 	0.69980 0.12520 0.98940 -0.41900
C 	C 	0.77900 0.11390 0.93360 0.04100
H 	H 	0.78120 0.07100 0.93250 0.00100
C 	C 	0.80460 0.15270 0.91640 -0.05400
C 	C 	0.83160 0.12610 0.89710 0.08100
N 	N 	0.85750 0.10670 0.88060 -0.11500
C 	C 	0.88600 0.16920 0.18160 0.03400
H 	H 	0.88210 0.21160 0.18380 0.01700
C 	C 	0.80120 0.21570 0.91910 0.01400
H 	H 	0.81790 0.24070 0.90740 0.04900
C 	C 	0.87710 0.35040 0.01390 -0.15300
C 	C 	0.84880 0.40000 0.00280 0.47500
O 	O 	0.82210 0.38480 0.98540 -0.45200
O 	O 	0.85570 0.45410 0.01230 -0.47500
C 	C 	0.89790 0.35710 0.04130 0.09100
H 	H 	0.89620 0.39320 0.05350 0.02300
C 	C 	0.92240 0.30870 0.05110 -0.15900
C 	C 	0.94190 0.30960 0.08270 0.44400
O 	O 	0.96960 0.27110 0.08650 -0.45000
O 	O 	0.93100 0.34600 0.10400 -0.42700
C 	C 	0.92650 0.25870 0.03050 0.04400
H 	H 	0.94210 0.22600 0.03680 0.03600
C 	C 	0.90800 0.25540 0.00080 -0.05900
C 	C 	0.90930 0.19980 0.98140 0.09500
N 	N 	0.91310 0.15680 0.96550 -0.11900
C 	C 	0.88190 0.30150 0.99180 0.03400
H 	H 	0.86860 0.29990 0.97240 0.03800
C 	C 	0.05490 0.43360 0.11060 -0.16200
C 	C 	0.03030 0.37620 0.11320 0.47100
O 	O 	0.04090 0.32970 0.09830 -0.44900
O 	O 	0.00350 0.38150 0.13260 -0.45800
C 	C 	0.08420 0.43680 0.08760 0.09400
H 	H 	0.08830 0.40280 0.07430 0.01700
C 	C 	0.10800 0.48940 0.08380 -0.17800
C 	C 	0.13930 0.49040 0.06020 0.46000
O 	O 	0.13710 0.45070 0.03710 -0.46700
O 	O 	0.16400 0.53070 0.06330 -0.46000
C 	C 	0.10200 0.53940 0.10130 0.05500
H 	H 	0.11690 0.57450 0.09820 0.03000
C 	C 	0.07190 0.53930 0.12560 -0.06600
C 	C 	0.06200 0.59800 0.13380 0.10000
N 	N 	0.05800 0.62900 0.15620 -0.11900
C 	C 	0.04860 0.48330 0.12980 0.05100
H 	H 	0.02950 0.48210 0.14550 0.03600
C 	C 	0.02200 0.14720 0.01000 -0.10600
C 	C 	0.02200 0.17170 0.04290 0.31000
O 	O 	0.99900 0.14920 0.06440 -0.34800
O 	O 	0.04350 0.21610 0.05040 -0.38700
C 	C 	0.04700 0.16800 0.98680 0.07800
H 	H 	0.06330 0.20040 0.99200 0.03000
C 	C 	0.04890 0.14350 0.95630 -0.16700
C 	C 	0.07720 0.16730 0.93420 0.43800
O 	O 	0.08490 0.13330 0.90960 -0.44300
O 	O 	0.09280 0.21940 0.93840 -0.43700
C 	C 	0.02330 0.09800 0.94780 0.05000
H 	H 	0.02420 0.08130 0.92700 0.02400
C 	C 	0.99580 0.07650 0.96980 -0.05200
C 	C 	0.96850 0.02770 0.95980 0.10500
N 	N 	0.94780 0.99130 0.95200 -0.12900
C 	C 	0.99540 0.09990 0.00060 0.01600
H 	H 	0.97780 0.08490 0.01560 0.04900
C 	C 	0.05780 0.26740 0.20710 -0.16400
C 	C 	0.02600 0.28470 0.18630 0.44900
O 	O 	0.02630 0.25650 0.15810 -0.47500
O 	O 	0.00110 0.32050 0.19480 -0.42500
C 	C 	0.06080 0.29570 0.23810 0.05800
H 	H 	0.04240 0.32370 0.24520 0.04200
C 	C 	0.09180 0.28030 0.25740 -0.08400
C 	C 	0.09440 0.30910 0.29080 0.29600
O 	O 	0.06460 0.33680 0.30130 -0.38500
O 	O 	0.12450 0.30160 0.30730 -0.35000
C 	C 	0.11960 0.24160 0.24780 0.01600
H 	H 	0.14150 0.23350 0.25990 0.04600
C 	C 	0.11260 0.21500 0.21800 -0.07200
C 	C 	0.14180 0.17900 0.20800 0.09500
N 	N 	0.16270 0.14100 0.19980 -0.12600
C 	C 	0.08520 0.22740 0.19680 0.07000
H 	H 	0.08470 0.20990 0.17620 -0.00800
C 	C 	0.95190 0.55260 0.17100 -0.11200
C 	C 	0.94950 0.48460 0.16850 0.32400
O 	O 	0.96640 0.45060 0.18850 -0.37300
O 	O 	0.93040 0.46210 0.14560 -0.36600
C 	C 	0.93510 0.58890 0.14930 0.06700
H 	H 	0.92160 0.57100 0.13230 0.03300
C 	C 	0.93720 0.65510 0.15150 -0.16000
C 	C 	0.91530 0.69340 0.12740 0.44600
O 	O 	0.90110 0.67040 0.10230 -0.44400
O 	O 	0.91390 0.75000 0.13400 -0.49200
C 	C 	0.95530 0.67850 0.17700 0.05900
H 	H 	0.95540 0.72120 0.17980 0.01500
C 	C 	0.97400 0.64130 0.19980 -0.05900
C 	C 	0.99500 0.66770 0.22630 0.09700
N 	N 	0.01250 0.68610 0.24830 -0.12000
C 	C 	0.97120 0.57940 0.19660 0.02300
H 	H 	0.98250 0.55400 0.21210 0.04500
C 	C 	0.74180 0.47060 0.06600 -0.15800
C 	C 	0.76430 0.47860 0.03520 0.42200
O 	O 	0.75660 0.44510 0.01150 -0.43000
O 	O 	0.78840 0.52550 0.03420 -0.44900
C 	C 	0.71880 0.42140 0.06870 0.09700
H 	H 	0.71540 0.39480 0.05120 0.02300
C 	C 	0.70040 0.41040 0.09700 -0.15100
C 	C 	0.67360 0.35470 0.10170 0.44900
O 	O 	0.67270 0.31820 0.07890 -0.46500
O 	O 	0.65430 0.34840 0.12740 -0.47100
C 	C 	0.70480 0.44960 0.12480 0.03200
H 	H 	0.69280 0.44060 0.14430 0.03900
C 	C 	0.72780 0.50100 0.12140 -0.07100
C 	C 	0.73470 0.54060 0.14860 0.10400
N 	N 	0.73950 0.57220 0.16910 -0.12900
C 	C 	0.74760 0.50750 0.09280 0.05300
H 	H 	0.76600 0.53850 0.09140 0.02100
C 	C 	0.91730 0.14930 0.16490 -0.13300
C 	C 	0.94640 0.19290 0.14890 0.44900
O 	O 	0.97180 0.17200 0.13180 -0.44700
O 	O 	0.94040 0.24950 0.15710 -0.47300
C 	C 	0.91980 0.08600 0.15870 0.05200
H 	H 	0.93970 0.07160 0.14580 0.04100
C 	C 	0.89470 0.04510 0.17070 -0.09400
C 	C 	0.89920 0.97800 0.16400 0.31100
O 	O 	0.92510 0.96000 0.14570 -0.39500
O 	O 	0.87540 0.93860 0.17630 -0.34700
C 	C 	0.86520 0.06520 0.18970 0.00600
H 	H 	0.84860 0.03650 0.19900 0.05300
C 	C 	0.85950 0.12870 0.19550 -0.04300
C 	C 	0.82720 0.15300 0.21600 0.09200
N 	N 	0.80380 0.17070 0.23260 -0.11700
O 	O 	0.84170 0.61000 0.06990 -0.55700
C 	C 	0.84990 0.56100 0.08830 0.51400
H 	H 	0.85120 0.56480 0.11070 -0.13800
O 	O 	0.85540 0.51390 0.07620 -0.41700
O 	O 	0.86790 0.66650 0.01860 -0.51800
C 	C 	0.85840 0.71460 0.00050 0.41500
H 	H 	0.85940 0.71080 0.97810 -0.09700
O 	O 	0.84830 0.76400 0.01230 -0.37300
Gd	Gd	0.72340 0.93752 0.95659 1.53300
Gd	Gd	0.47767 0.72427 0.10593 1.55300
Gd	Gd	0.55109 0.85458 0.16014 1.51600
Gd	Gd	0.40696 0.64699 0.85377 1.61600
Gd	Gd	0.64633 0.21973 0.07006 1.49900
Gd	Gd	0.65430 0.05993 0.01676 1.64200
C 	C 	0.72580 0.74320 0.93830 -0.09900
C 	C 	0.72700 0.81190 0.94300 0.33700
O 	O 	0.75060 0.83290 0.96260 -0.37800
O 	O 	0.70730 0.84470 0.92500 -0.38000
C 	C 	0.75050 0.70510 0.95490 0.05300
H 	H 	0.76880 0.72250 0.96850 0.03800
C 	C 	0.74880 0.64070 0.95170 -0.14300
C 	C 	0.77660 0.60020 0.96960 0.41000
O 	O 	0.77460 0.54210 0.96390 -0.48100
O 	O 	0.80020 0.62520 0.98940 -0.41900
C 	C 	0.72100 0.61390 0.93360 0.04100
H 	H 	0.71880 0.57100 0.93250 0.00100
C 	C 	0.69540 0.65270 0.91640 -0.05400
C 	C 	0.66840 0.62610 0.89710 0.08100
N 	N 	0.64250 0.60670 0.88060 -0.11500
C 	C 	0.61400 0.66920 0.18160 0.03400
H 	H 	0.61790 0.71160 0.18380 0.01700
C 	C 	0.69880 0.71570 0.91910 0.01400
H 	H 	0.68210 0.74070 0.90740 0.04900
C 	C 	0.62290 0.85040 0.01390 -0.15300
C 	C 	0.65120 0.90000 0.00280 0.47500
O 	O 	0.67790 0.88480 0.98540 -0.45200
O 	O 	0.64430 0.95410 0.01230 -0.47500
C 	C 	0.60210 0.85710 0.04130 0.09100
H 	H 	0.60380 0.89320 0.05350 0.02300
C 	C 	0.57760 0.80870 0.05110 -0.15900
C 	C 	0.55810 0.80960 0.08270 0.44400
O 	O 	0.53040 0.77110 0.08650 -0.45000
O 	O 	0.56900 0.84600 0.10400 -0.42700
C 	C 	0.57350 0.75870 0.03050 0.04400
H 	H 	0.55790 0.72600 0.03680 0.03600
C 	C 	0.59200 0.75540 0.00080 -0.05800
C 	C 	0.59070 0.69980 0.98140 0.09500
N 	N 	0.58690 0.65680 0.96550 -0.11900
C 	C 	0.61810 0.80150 0.99180 0.03400
H 	H 	0.63140 0.79990 0.97240 0.03800
C 	C 	0.44510 0.93360 0.11060 -0.16200
C 	C 	0.46970 0.87620 0.11320 0.47100
O 	O 	0.45910 0.82970 0.09830 -0.44900
O 	O 	0.49650 0.88150 0.13260 -0.45800
C 	C 	0.41580 0.93680 0.08760 0.09400
H 	H 	0.41170 0.90280 0.07430 0.01700
C 	C 	0.39200 0.98940 0.08380 -0.17800
C 	C 	0.36070 0.99040 0.06020 0.46000
O 	O 	0.36290 0.95070 0.03710 -0.46700
O 	O 	0.33600 0.03070 0.06330 -0.46000
C 	C 	0.39800 0.03940 0.10130 0.05500
H 	H 	0.38310 0.07450 0.09820 0.03000
C 	C 	0.42810 0.03930 0.12560 -0.06600
C 	C 	0.43800 0.09800 0.13380 0.10000
N 	N 	0.44200 0.12900 0.15620 -0.11900
C 	C 	0.45140 0.98330 0.12980 0.05100
H 	H 	0.47050 0.98210 0.14550 0.03600
C 	C 	0.47800 0.64720 0.01000 -0.10500
C 	C 	0.47800 0.67170 0.04290 0.31100
O 	O 	0.50100 0.64920 0.06440 -0.34800
O 	O 	0.45650 0.71610 0.05040 -0.38700
C 	C 	0.45300 0.66800 0.98680 0.07700
H 	H 	0.43670 0.70040 0.99200 0.03000
C 	C 	0.45110 0.64350 0.95630 -0.16700
C 	C 	0.42280 0.66730 0.93420 0.43800
O 	O 	0.41510 0.63330 0.90960 -0.44300
O 	O 	0.40720 0.71940 0.93840 -0.43700
C 	C 	0.47670 0.59800 0.94780 0.05000
H 	H 	0.47580 0.58130 0.92700 0.02400
C 	C 	0.50420 0.57650 0.96980 -0.05200
C 	C 	0.53150 0.52770 0.95980 0.10400
N 	N 	0.55220 0.49130 0.95200 -0.12800
C 	C 	0.50460 0.59990 0.00060 0.01600
H 	H 	0.52220 0.58490 0.01560 0.04900
C 	C 	0.44220 0.76740 0.20710 -0.16400
C 	C 	0.47400 0.78470 0.18630 0.44900
O 	O 	0.47370 0.75650 0.15810 -0.47500
O 	O 	0.49890 0.82050 0.19480 -0.42500
C 	C 	0.43920 0.79570 0.23810 0.05800
H 	H 	0.45760 0.82370 0.24520 0.04200
C 	C 	0.40820 0.78030 0.25740 -0.08400
C 	C 	0.40560 0.80910 0.29080 0.29600
O 	O 	0.43540 0.83680 0.30130 -0.38500
O 	O 	0.37550 0.80160 0.30730 -0.35000
C 	C 	0.38040 0.74160 0.24780 0.01600
H 	H 	0.35850 0.73350 0.25990 0.04600
C 	C 	0.38740 0.71500 0.21800 -0.07200
C 	C 	0.35820 0.67900 0.20800 0.09500
N 	N 	0.33730 0.64100 0.19980 -0.12600
C 	C 	0.41480 0.72740 0.19680 0.07000
H 	H 	0.41530 0.70990 0.17620 -0.00800
C 	C 	0.54810 0.05260 0.17100 -0.11200
C 	C 	0.55050 0.98460 0.16850 0.32400
O 	O 	0.53360 0.95060 0.18850 -0.37300
O 	O 	0.56960 0.96210 0.14560 -0.36600
C 	C 	0.56490 0.08890 0.14930 0.06700
H 	H 	0.57840 0.07100 0.13230 0.03300
C 	C 	0.56280 0.15510 0.15150 -0.16000
C 	C 	0.58470 0.19340 0.12740 0.44600
O 	O 	0.59890 0.17040 0.10230 -0.44400
O 	O 	0.58610 0.25000 0.13400 -0.49200
C 	C 	0.54470 0.17850 0.17700 0.05900
H 	H 	0.54460 0.22120 0.17980 0.01500
C 	C 	0.52600 0.14130 0.19980 -0.05900
C 	C 	0.50500 0.16770 0.22630 0.09700
N 	N 	0.48750 0.18610 0.24830 -0.12000
C 	C 	0.52880 0.07940 0.19660 0.02300
H 	H 	0.51750 0.05400 0.21210 0.04500
C 	C 	0.75820 0.97060 0.06600 -0.15800
C 	C 	0.73570 0.97860 0.03520 0.42200
O 	O 	0.74340 0.94510 0.01150 -0.43000
O 	O 	0.71160 0.02550 0.03420 -0.44900
C 	C 	0.78120 0.92140 0.06870 0.09700
H 	H 	0.78460 0.89480 0.05120 0.02300
C 	C 	0.79960 0.91040 0.09700 -0.15100
C 	C 	0.82640 0.85470 0.10170 0.44900
O 	O 	0.82730 0.81820 0.07890 -0.46500
O 	O 	0.84570 0.84840 0.12740 -0.47100
C 	C 	0.79520 0.94960 0.12480 0.03200
H 	H 	0.80720 0.94060 0.14430 0.03900
C 	C 	0.77220 0.00100 0.12140 -0.07100
C 	C 	0.76530 0.04060 0.14860 0.10400
N 	N 	0.76050 0.07220 0.16910 -0.12900
C 	C 	0.75240 0.00750 0.09280 0.05300
H 	H 	0.73400 0.03850 0.09140 0.02100
C 	C 	0.58270 0.64930 0.16490 -0.13300
C 	C 	0.55360 0.69290 0.14890 0.44900
O 	O 	0.52820 0.67200 0.13180 -0.44700
O 	O 	0.55960 0.74950 0.15710 -0.47300
C 	C 	0.58020 0.58600 0.15870 0.05300
H 	H 	0.56030 0.57160 0.14580 0.04100
C 	C 	0.60530 0.54510 0.17070 -0.09400
C 	C 	0.60080 0.47800 0.16400 0.31200
O 	O 	0.57490 0.46000 0.14570 -0.39500
O 	O 	0.62460 0.43860 0.17630 -0.34700
C 	C 	0.63480 0.56520 0.18970 0.00600
H 	H 	0.65140 0.53650 0.19900 0.05300
C 	C 	0.64050 0.62870 0.19550 -0.04300
C 	C 	0.67280 0.65300 0.21600 0.09200
N 	N 	0.69620 0.67070 0.23260 -0.11700
O 	O 	0.65830 0.11000 0.06990 -0.55700
C 	C 	0.65010 0.06100 0.08830 0.51500
H 	H 	0.64880 0.06480 0.11070 -0.13800
O 	O 	0.64460 0.01390 0.07620 -0.41700
O 	O 	0.63210 0.16650 0.01860 -0.51800
C 	C 	0.64160 0.21460 0.00050 0.41500
H 	H 	0.64060 0.21080 0.97810 -0.09700
O 	O 	0.65170 0.26400 0.01230 -0.37200
Gd	Gd	0.77660 0.06248 0.45659 1.53400
Gd	Gd	0.02233 0.27573 0.60593 1.55200
Gd	Gd	0.94891 0.14542 0.66014 1.51700
Gd	Gd	0.09304 0.35301 0.35377 1.61600
Gd	Gd	0.85367 0.78027 0.57006 1.49900
Gd	Gd	0.84570 0.94007 0.51676 1.64200
C 	C 	0.77420 0.25680 0.43830 -0.09900
C 	C 	0.77300 0.18810 0.44300 0.33700
O 	O 	0.74940 0.16710 0.46260 -0.37800
O 	O 	0.79270 0.15530 0.42500 -0.38000
C 	C 	0.74950 0.29490 0.45490 0.05300
H 	H 	0.73120 0.27750 0.46850 0.03800
C 	C 	0.75120 0.35930 0.45170 -0.14300
C 	C 	0.72340 0.39980 0.46960 0.41000
O 	O 	0.72540 0.45790 0.46390 -0.48100
O 	O 	0.69980 0.37480 0.48940 -0.41900
C 	C 	0.77900 0.38610 0.43360 0.04100
H 	H 	0.78120 0.42900 0.43250 0.00100
C 	C 	0.80460 0.34730 0.41640 -0.05400
C 	C 	0.83160 0.37390 0.39710 0.08100
N 	N 	0.85750 0.39330 0.38060 -0.11500
C 	C 	0.88600 0.33080 0.68160 0.03400
H 	H 	0.88210 0.28840 0.68380 0.01700
C 	C 	0.80120 0.28430 0.41910 0.01400
H 	H 	0.81790 0.25930 0.40740 0.04900
C 	C 	0.87710 0.14960 0.51390 -0.15300
C 	C 	0.84880 0.10000 0.50280 0.47500
O 	O 	0.82210 0.11520 0.48540 -0.45200
O 	O 	0.85570 0.04590 0.51230 -0.47500
C 	C 	0.89790 0.14290 0.54130 0.09100
H 	H 	0.89620 0.10680 0.55350 0.02300
C 	C 	0.92240 0.19130 0.55110 -0.15900
C 	C 	0.94190 0.19040 0.58270 0.44400
O 	O 	0.96960 0.22890 0.58650 -0.45000
O 	O 	0.93100 0.15400 0.60400 -0.42700
C 	C 	0.92650 0.24130 0.53050 0.04400
H 	H 	0.94210 0.27400 0.53680 0.03600
C 	C 	0.90800 0.24460 0.50080 -0.05800
C 	C 	0.90930 0.30020 0.48140 0.09500
N 	N 	0.91310 0.34320 0.46550 -0.11900
C 	C 	0.88190 0.19850 0.49180 0.03400
H 	H 	0.86860 0.20010 0.47240 0.03800
C 	C 	0.05490 0.06640 0.61060 -0.16200
C 	C 	0.03030 0.12380 0.61320 0.47100
O 	O 	0.04090 0.17030 0.59830 -0.44900
O 	O 	0.00350 0.11850 0.63260 -0.45900
C 	C 	0.08420 0.06320 0.58760 0.09400
H 	H 	0.08830 0.09720 0.57430 0.01700
C 	C 	0.10800 0.01060 0.58380 -0.17800
C 	C 	0.13930 0.00960 0.56020 0.46000
O 	O 	0.13710 0.04930 0.53710 -0.46700
O 	O 	0.16400 0.96930 0.56330 -0.46000
C 	C 	0.10200 0.96060 0.60130 0.05500
H 	H 	0.11690 0.92550 0.59820 0.03000
C 	C 	0.07190 0.96070 0.62560 -0.06600
C 	C 	0.06200 0.90200 0.63380 0.10000
N 	N 	0.05800 0.87100 0.65620 -0.11900
C 	C 	0.04860 0.01670 0.62980 0.05000
H 	H 	0.02950 0.01790 0.64550 0.03600
C 	C 	0.02200 0.35280 0.51000 -0.10500
C 	C 	0.02200 0.32830 0.54290 0.31100
O 	O 	0.99900 0.35080 0.56440 -0.34800
O 	O 	0.04350 0.28390 0.55040 -0.38700
C 	C 	0.04700 0.33200 0.48680 0.07800
H 	H 	0.06330 0.29960 0.49200 0.03000
C 	C 	0.04890 0.35650 0.45630 -0.16700
C 	C 	0.07720 0.33270 0.43420 0.43800
O 	O 	0.08490 0.36670 0.40960 -0.44300
O 	O 	0.09280 0.28060 0.43840 -0.43700
C 	C 	0.02330 0.40200 0.44780 0.05000
H 	H 	0.02420 0.41870 0.42700 0.02400
C 	C 	0.99580 0.42350 0.46980 -0.05200
C 	C 	0.96850 0.47230 0.45980 0.10400
N 	N 	0.94780 0.50870 0.45200 -0.12800
C 	C 	0.99540 0.40010 0.50060 0.01600
H 	H 	0.97780 0.41510 0.51560 0.04900
C 	C 	0.05780 0.23260 0.70710 -0.16400
C 	C 	0.02600 0.21530 0.68630 0.44900
O 	O 	0.02630 0.24350 0.65810 -0.47500
O 	O 	0.00110 0.17950 0.69480 -0.42500
C 	C 	0.06080 0.20430 0.73810 0.05800
H 	H 	0.04240 0.17630 0.74520 0.04200
C 	C 	0.09180 0.21970 0.75740 -0.08400
C 	C 	0.09440 0.19090 0.79080 0.29600
O 	O 	0.06460 0.16320 0.80130 -0.38500
O 	O 	0.12450 0.19840 0.80730 -0.35000
C 	C 	0.11960 0.25840 0.74780 0.01600
H 	H 	0.14150 0.26650 0.75990 0.04600
C 	C 	0.11260 0.28500 0.71800 -0.07200
C 	C 	0.14180 0.32100 0.70800 0.09500
N 	N 	0.16270 0.35900 0.69980 -0.12600
C 	C 	0.08520 0.27260 0.69680 0.07000
H 	H 	0.08470 0.29010 0.67620 -0.00800
C 	C 	0.95190 0.94740 0.67100 -0.11300
C 	C 	0.94950 0.01540 0.66850 0.32400
O 	O 	0.96640 0.04940 0.68850 -0.37300
O 	O 	0.93040 0.03790 0.64560 -0.36600
C 	C 	0.93510 0.91110 0.64930 0.06700
H 	H 	0.92160 0.92900 0.63230 0.03300
C 	C 	0.93720 0.84490 0.65150 -0.16000
C 	C 	0.91530 0.80660 0.62740 0.44600
O 	O 	0.90110 0.82960 0.60230 -0.44400
O 	O 	0.91390 0.75000 0.63400 -0.49200
C 	C 	0.95530 0.82150 0.67700 0.05900
H 	H 	0.95540 0.77880 0.67980 0.01500
C 	C 	0.97400 0.85870 0.69980 -0.05900
C 	C 	0.99500 0.83230 0.72630 0.09700
N 	N 	0.01250 0.81390 0.74830 -0.12000
C 	C 	0.97120 0.92060 0.69660 0.02400
H 	H 	0.98250 0.94600 0.71210 0.04500
C 	C 	0.74180 0.02940 0.56600 -0.15700
C 	C 	0.76430 0.02140 0.53520 0.42200
O 	O 	0.75660 0.05490 0.51150 -0.43000
O 	O 	0.78840 0.97450 0.53420 -0.44900
C 	C 	0.71880 0.07860 0.56870 0.09700
H 	H 	0.71540 0.10520 0.55120 0.02300
C 	C 	0.70040 0.08960 0.59700 -0.15100
C 	C 	0.67360 0.14530 0.60170 0.45000
O 	O 	0.67270 0.18180 0.57890 -0.46500
O 	O 	0.65430 0.15160 0.62740 -0.47100
C 	C 	0.70480 0.05040 0.62480 0.03300
H 	H 	0.69280 0.05940 0.64430 0.03900
C 	C 	0.72780 0.99900 0.62140 -0.07100
C 	C 	0.73470 0.95940 0.64860 0.10400
N 	N 	0.73950 0.92780 0.66910 -0.12900
C 	C 	0.74760 0.99250 0.59280 0.05300
H 	H 	0.76600 0.96150 0.59140 0.02100
C 	C 	0.91730 0.35070 0.66490 -0.13300
C 	C 	0.94640 0.30710 0.64890 0.44900
O 	O 	0.97180 0.32800 0.63180 -0.44700
O 	O 	0.94040 0.25050 0.65710 -0.47300
C 	C 	0.91980 0.41400 0.65870 0.05300
H 	H 	0.93970 0.42840 0.64580 0.04100
C 	C 	0.89470 0.45490 0.67070 -0.09400
C 	C 	0.89920 0.52200 0.66400 0.31200
O 	O 	0.92510 0.54000 0.64570 -0.39500
O 	O 	0.87540 0.56140 0.67630 -0.34700
C 	C 	0.86520 0.43480 0.68970 0.00600
H 	H 	0.84860 0.46350 0.69900 0.05300
C 	C 	0.85950 0.37130 0.69550 -0.04300
C 	C 	0.82720 0.34700 0.71600 0.09200
N 	N 	0.80380 0.32930 0.73260 -0.11700
O 	O 	0.84170 0.89000 0.56990 -0.55700
C 	C 	0.84990 0.93900 0.58830 0.51500
H 	H 	0.85120 0.93520 0.61070 -0.13800
O 	O 	0.85540 0.98610 0.57620 -0.41700
O 	O 	0.86790 0.83350 0.51860 -0.51800
C 	C 	0.85840 0.78540 0.50050 0.41500
H 	H 	0.85940 0.78920 0.47810 -0.09700
O 	O 	0.84830 0.73600 0.51230 -0.37300
Gd	Gd	0.27660 0.43752 0.54341 1.53400
Gd	Gd	0.52233 0.22427 0.39407 1.55300
Gd	Gd	0.44891 0.35458 0.33986 1.51600
Gd	Gd	0.59304 0.14699 0.64623 1.61600
Gd	Gd	0.35367 0.71973 0.42994 1.49900
Gd	Gd	0.34570 0.55993 0.48324 1.64200
C 	C 	0.27420 0.24320 0.56170 -0.09900
C 	C 	0.27300 0.31190 0.55700 0.33700
O 	O 	0.24940 0.33290 0.53740 -0.37800
O 	O 	0.29270 0.34470 0.57500 -0.38000
C 	C 	0.24950 0.20510 0.54510 0.05300
H 	H 	0.23120 0.22250 0.53150 0.03800
C 	C 	0.25120 0.14070 0.54830 -0.14300
C 	C 	0.22340 0.10020 0.53040 0.41000
O 	O 	0.22540 0.04210 0.53610 -0.48100
O 	O 	0.19980 0.12520 0.51060 -0.41900
C 	C 	0.27900 0.11390 0.56640 0.04100
H 	H 	0.28120 0.07100 0.56750 0.00100
C 	C 	0.30460 0.15270 0.58360 -0.05400
C 	C 	0.33160 0.12610 0.60290 0.08100
N 	N 	0.35750 0.10670 0.61940 -0.11500
C 	C 	0.38600 0.16920 0.31840 0.03400
H 	H 	0.38210 0.21160 0.31620 0.01700
C 	C 	0.30120 0.21570 0.58090 0.01400
H 	H 	0.31790 0.24070 0.59260 0.04900
C 	C 	0.37710 0.35040 0.48610 -0.15300
C 	C 	0.34880 0.40000 0.49720 0.47500
O 	O 	0.32210 0.38480 0.51460 -0.45200
O 	O 	0.35570 0.45410 0.48770 -0.47500
C 	C 	0.39790 0.35710 0.45870 0.09100
H 	H 	0.39620 0.39320 0.44650 0.02300
C 	C 	0.42240 0.30870 0.44890 -0.15900
C 	C 	0.44190 0.30960 0.41730 0.44400
O 	O 	0.46960 0.27110 0.41350 -0.45000
O 	O 	0.43100 0.34600 0.39600 -0.42700
C 	C 	0.42650 0.25870 0.46950 0.04400
H 	H 	0.44210 0.22600 0.46320 0.03600
C 	C 	0.40800 0.25540 0.49920 -0.05800
C 	C 	0.40930 0.19980 0.51860 0.09500
N 	N 	0.41310 0.15680 0.53450 -0.11900
C 	C 	0.38190 0.30150 0.50820 0.03400
H 	H 	0.36860 0.29990 0.52760 0.03800
C 	C 	0.55490 0.43360 0.38940 -0.16200
C 	C 	0.53030 0.37620 0.38680 0.47100
O 	O 	0.54090 0.32970 0.40170 -0.44900
O 	O 	0.50350 0.38150 0.36740 -0.45800
C 	C 	0.58420 0.43680 0.41240 0.09400
H 	H 	0.58830 0.40280 0.42570 0.01700
C 	C 	0.60800 0.48940 0.41620 -0.17800
C 	C 	0.63930 0.49040 0.43980 0.46000
O 	O 	0.63710 0.45070 0.46290 -0.46700
O 	O 	0.66400 0.53070 0.43670 -0.46000
C 	C 	0.60200 0.53940 0.39870 0.05500
H 	H 	0.61690 0.57450 0.40180 0.03000
C 	C 	0.57190 0.53930 0.37440 -0.06600
C 	C 	0.56200 0.59800 0.36620 0.10000
N 	N 	0.55800 0.62900 0.34380 -0.11900
C 	C 	0.54860 0.48330 0.37020 0.05100
H 	H 	0.52950 0.48210 0.35450 0.03600
C 	C 	0.52200 0.14720 0.49000 -0.10500
C 	C 	0.52200 0.17170 0.45710 0.31100
O 	O 	0.49900 0.14920 0.43560 -0.34800
O 	O 	0.54350 0.21610 0.44960 -0.38700
C 	C 	0.54700 0.16800 0.51320 0.07800
H 	H 	0.56330 0.20040 0.50800 0.03000
C 	C 	0.54890 0.14350 0.54370 -0.16700
C 	C 	0.57720 0.16730 0.56580 0.43800
O 	O 	0.58490 0.13330 0.59040 -0.44300
O 	O 	0.59280 0.21940 0.56160 -0.43700
C 	C 	0.52330 0.09800 0.55220 0.05000
H 	H 	0.52420 0.08130 0.57300 0.02400
C 	C 	0.49580 0.07650 0.53020 -0.05200
C 	C 	0.46850 0.02770 0.54020 0.10400
N 	N 	0.44780 0.99130 0.54800 -0.12800
C 	C 	0.49540 0.09990 0.49940 0.01600
H 	H 	0.47780 0.08490 0.48440 0.04900
C 	C 	0.55780 0.26740 0.29290 -0.16400
C 	C 	0.52600 0.28470 0.31370 0.44900
O 	O 	0.52630 0.25650 0.34190 -0.47500
O 	O 	0.50110 0.32050 0.30520 -0.42500
C 	C 	0.56080 0.29570 0.26190 0.05800
H 	H 	0.54240 0.32370 0.25480 0.04200
C 	C 	0.59180 0.28030 0.24260 -0.08400
C 	C 	0.59440 0.30910 0.20920 0.29600
O 	O 	0.56460 0.33680 0.19870 -0.38500
O 	O 	0.62450 0.30160 0.19270 -0.35000
C 	C 	0.61960 0.24160 0.25220 0.01600
H 	H 	0.64150 0.23350 0.24010 0.04600
C 	C 	0.61260 0.21500 0.28200 -0.07200
C 	C 	0.64180 0.17900 0.29200 0.09500
N 	N 	0.66270 0.14100 0.30020 -0.12600
C 	C 	0.58520 0.22740 0.30320 0.07000
H 	H 	0.58470 0.20990 0.32380 -0.00800
C 	C 	0.45190 0.55260 0.32900 -0.11200
C 	C 	0.44950 0.48460 0.33150 0.32400
O 	O 	0.46640 0.45060 0.31150 -0.37300
O 	O 	0.43040 0.46210 0.35440 -0.36600
C 	C 	0.43510 0.58890 0.35070 0.06700
H 	H 	0.42160 0.57100 0.36770 0.03300
C 	C 	0.43720 0.65510 0.34850 -0.16000
C 	C 	0.41530 0.69340 0.37260 0.44600
O 	O 	0.40110 0.67040 0.39770 -0.44400
O 	O 	0.41390 0.75000 0.36600 -0.49200
C 	C 	0.45530 0.67850 0.32300 0.05900
H 	H 	0.45540 0.72120 0.32020 0.01500
C 	C 	0.47400 0.64130 0.30020 -0.05900
C 	C 	0.49500 0.66770 0.27370 0.09700
N 	N 	0.51250 0.68610 0.25170 -0.12000
C 	C 	0.47120 0.57940 0.30340 0.02300
H 	H 	0.48250 0.55400 0.28790 0.04500
C 	C 	0.24180 0.47060 0.43400 -0.15700
C 	C 	0.26430 0.47860 0.46480 0.42200
O 	O 	0.25660 0.44510 0.48850 -0.43000
O 	O 	0.28840 0.52550 0.46580 -0.44900
C 	C 	0.21880 0.42140 0.43130 0.09700
H 	H 	0.21540 0.39480 0.44880 0.02300
C 	C 	0.20040 0.41040 0.40300 -0.15100
C 	C 	0.17360 0.35470 0.39830 0.44900
O 	O 	0.17270 0.31820 0.42110 -0.46500
O 	O 	0.15430 0.34840 0.37260 -0.47100
C 	C 	0.20480 0.44960 0.37520 0.03200
H 	H 	0.19280 0.44060 0.35570 0.03900
C 	C 	0.22780 0.50100 0.37860 -0.07100
C 	C 	0.23470 0.54060 0.35140 0.10400
N 	N 	0.23950 0.57220 0.33090 -0.12900
C 	C 	0.24760 0.50750 0.40720 0.05300
H 	H 	0.26600 0.53850 0.40860 0.02100
C 	C 	0.41730 0.14930 0.33510 -0.13300
C 	C 	0.44640 0.19290 0.35110 0.44900
O 	O 	0.47180 0.17200 0.36820 -0.44700
O 	O 	0.44040 0.24950 0.34290 -0.47300
C 	C 	0.41980 0.08600 0.34130 0.05300
H 	H 	0.43970 0.07160 0.35420 0.04100
C 	C 	0.39470 0.04510 0.32930 -0.09400
C 	C 	0.39920 0.97800 0.33600 0.31200
O 	O 	0.42510 0.96000 0.35430 -0.39500
O 	O 	0.37540 0.93860 0.32370 -0.34700
C 	C 	0.36520 0.06520 0.31030 0.00600
H 	H 	0.34860 0.03650 0.30100 0.05300
C 	C 	0.35950 0.12870 0.30450 -0.04300
C 	C 	0.32720 0.15300 0.28400 0.09200
N 	N 	0.30380 0.17070 0.26740 -0.11700
O 	O 	0.34170 0.61000 0.43010 -0.55700
C 	C 	0.34990 0.56100 0.41170 0.51400
H 	H 	0.35120 0.56480 0.38930 -0.13800
O 	O 	0.35540 0.51390 0.42380 -0.41700
O 	O 	0.36790 0.66650 0.48140 -0.51800
C 	C 	0.35840 0.71460 0.49950 0.41500
H 	H 	0.35940 0.71080 0.52190 -0.09700
O 	O 	0.34830 0.76400 0.48770 -0.37300
Gd	Gd	0.22340 0.56248 0.04341 1.53400
Gd	Gd	0.97767 0.77573 0.89407 1.55200
Gd	Gd	0.05109 0.64542 0.83986 1.51600
Gd	Gd	0.90696 0.85301 0.14623 1.61600
Gd	Gd	0.14633 0.28027 0.92994 1.49900
Gd	Gd	0.15430 0.44007 0.98324 1.64200
C 	C 	0.22580 0.75680 0.06170 -0.09900
C 	C 	0.22700 0.68810 0.05700 0.33700
O 	O 	0.25060 0.66710 0.03740 -0.37800
O 	O 	0.20730 0.65530 0.07500 -0.38000
C 	C 	0.25050 0.79490 0.04510 0.05300
H 	H 	0.26880 0.77750 0.03150 0.03800
C 	C 	0.24880 0.85930 0.04830 -0.14300
C 	C 	0.27660 0.89980 0.03040 0.41000
O 	O 	0.27460 0.95790 0.03610 -0.48100
O 	O 	0.30020 0.87480 0.01060 -0.41900
C 	C 	0.22100 0.88610 0.06640 0.04100
H 	H 	0.21880 0.92900 0.06750 0.00100
C 	C 	0.19540 0.84730 0.08360 -0.05400
C 	C 	0.16840 0.87390 0.10290 0.08100
N 	N 	0.14250 0.89330 0.11940 -0.11500
C 	C 	0.11400 0.83080 0.81840 0.03400
H 	H 	0.11790 0.78840 0.81620 0.01700
C 	C 	0.19880 0.78430 0.08090 0.01400
H 	H 	0.18210 0.75930 0.09260 0.04900
C 	C 	0.12290 0.64960 0.98610 -0.15300
C 	C 	0.15120 0.60000 0.99720 0.47500
O 	O 	0.17790 0.61520 0.01460 -0.45200
O 	O 	0.14430 0.54590 0.98770 -0.47500
C 	C 	0.10210 0.64290 0.95870 0.09100
H 	H 	0.10380 0.60680 0.94650 0.02300
C 	C 	0.07760 0.69130 0.94890 -0.15900
C 	C 	0.05810 0.69040 0.91730 0.44400
O 	O 	0.03040 0.72890 0.91350 -0.45000
O 	O 	0.06900 0.65400 0.89600 -0.42700
C 	C 	0.07350 0.74130 0.96950 0.04400
H 	H 	0.05790 0.77400 0.96320 0.03600
C 	C 	0.09200 0.74460 0.99920 -0.05900
C 	C 	0.09070 0.80020 0.01860 0.09500
N 	N 	0.08690 0.84320 0.03450 -0.11900
C 	C 	0.11810 0.69850 0.00820 0.03400
H 	H 	0.13140 0.70010 0.02760 0.03800
C 	C 	0.94510 0.56640 0.88940 -0.16200
C 	C 	0.96970 0.62380 0.88680 0.47100
O 	O 	0.95910 0.67030 0.90170 -0.44900
O 	O 	0.99650 0.61850 0.86740 -0.45800
C 	C 	0.91580 0.56320 0.91240 0.09400
H 	H 	0.91170 0.59720 0.92570 0.01700
C 	C 	0.89200 0.51060 0.91620 -0.17800
C 	C 	0.86070 0.50960 0.93980 0.46000
O 	O 	0.86290 0.54930 0.96290 -0.46700
O 	O 	0.83600 0.46930 0.93670 -0.46000
C 	C 	0.89800 0.46060 0.89870 0.05500
H 	H 	0.88310 0.42550 0.90180 0.03000
C 	C 	0.92810 0.46070 0.87440 -0.06600
C 	C 	0.93800 0.40200 0.86620 0.10000
N 	N 	0.94200 0.37100 0.84380 -0.11900
C 	C 	0.95140 0.51670 0.87020 0.05100
H 	H 	0.97050 0.51790 0.85450 0.03600
C 	C 	0.97800 0.85280 0.99000 -0.10600
C 	C 	0.97800 0.82830 0.95710 0.31000
O 	O 	0.00100 0.85080 0.93560 -0.34800
O 	O 	0.95650 0.78390 0.94960 -0.38700
C 	C 	0.95300 0.83200 0.01320 0.07800
H 	H 	0.93670 0.79960 0.00800 0.03000
C 	C 	0.95110 0.85650 0.04370 -0.16700
C 	C 	0.92280 0.83270 0.06580 0.43800
O 	O 	0.91510 0.86670 0.09040 -0.44300
O 	O 	0.90720 0.78060 0.06160 -0.43700
C 	C 	0.97670 0.90200 0.05220 0.05000
H 	H 	0.97580 0.91870 0.07300 0.02400
C 	C 	0.00420 0.92350 0.03020 -0.05200
C 	C 	0.03150 0.97230 0.04020 0.10500
N 	N 	0.05220 0.00870 0.04800 -0.12900
C 	C 	0.00460 0.90010 0.99940 0.01600
H 	H 	0.02220 0.91510 0.98440 0.04900
C 	C 	0.94220 0.73260 0.79290 -0.16400
C 	C 	0.97400 0.71530 0.81370 0.44900
O 	O 	0.97370 0.74350 0.84190 -0.47500
O 	O 	0.99890 0.67950 0.80520 -0.42500
C 	C 	0.93920 0.70430 0.76190 0.05800
H 	H 	0.95760 0.67630 0.75480 0.04200
C 	C 	0.90820 0.71970 0.74260 -0.08400
C 	C 	0.90560 0.69090 0.70920 0.29600
O 	O 	0.93540 0.66320 0.69870 -0.38500
O 	O 	0.87550 0.69840 0.69270 -0.35000
C 	C 	0.88040 0.75840 0.75220 0.01600
H 	H 	0.85850 0.76650 0.74010 0.04600
C 	C 	0.88740 0.78500 0.78200 -0.07200
C 	C 	0.85820 0.82100 0.79200 0.09500
N 	N 	0.83730 0.85900 0.80020 -0.12600
C 	C 	0.91480 0.77260 0.80320 0.07000
H 	H 	0.91530 0.79010 0.82380 -0.00800
C 	C 	0.04810 0.44740 0.82900 -0.11200
C 	C 	0.05050 0.51540 0.83150 0.32400
O 	O 	0.03360 0.54940 0.81150 -0.37300
O 	O 	0.06960 0.53790 0.85440 -0.36600
C 	C 	0.06490 0.41110 0.85070 0.06700
H 	H 	0.07840 0.42900 0.86770 0.03300
C 	C 	0.06280 0.34490 0.84850 -0.16000
C 	C 	0.08470 0.30660 0.87260 0.44600
O 	O 	0.09890 0.32960 0.89770 -0.44400
O 	O 	0.08610 0.25000 0.86600 -0.49200
C 	C 	0.04470 0.32150 0.82300 0.05900
H 	H 	0.04460 0.27880 0.82020 0.01500
C 	C 	0.02600 0.35870 0.80020 -0.05900
C 	C 	0.00500 0.33230 0.77370 0.09700
N 	N 	0.98750 0.31390 0.75170 -0.12000
C 	C 	0.02880 0.42060 0.80340 0.02300
H 	H 	0.01750 0.44600 0.78790 0.04500
C 	C 	0.25820 0.52940 0.93400 -0.15800
C 	C 	0.23570 0.52140 0.96480 0.42200
O 	O 	0.24340 0.55490 0.98850 -0.43000
O 	O 	0.21160 0.47450 0.96580 -0.44900
C 	C 	0.28120 0.57860 0.93130 0.09700
H 	H 	0.28460 0.60520 0.94880 0.02300
C 	C 	0.29960 0.58960 0.90300 -0.15100
C 	C 	0.32640 0.64530 0.89830 0.44900
O 	O 	0.32730 0.68180 0.92110 -0.46500
O 	O 	0.34570 0.65160 0.87260 -0.47100
C 	C 	0.29520 0.55040 0.87520 0.03200
H 	H 	0.30720 0.55940 0.85570 0.03900
C 	C 	0.27220 0.49900 0.87860 -0.07100
C 	C 	0.26530 0.45940 0.85140 0.10400
N 	N 	0.26050 0.42780 0.83090 -0.12900
C 	C 	0.25240 0.49250 0.90720 0.05300
H 	H 	0.23400 0.46150 0.90860 0.02100
C 	C 	0.08270 0.85070 0.83510 -0.13300
C 	C 	0.05360 0.80710 0.85110 0.44900
O 	O 	0.02820 0.82800 0.86820 -0.44700
O 	O 	0.05960 0.75050 0.84290 -0.47300
C 	C 	0.08020 0.91400 0.84130 0.05200
H 	H 	0.06030 0.92840 0.85420 0.04100
C 	C 	0.10530 0.95490 0.82930 -0.09400
C 	C 	0.10080 0.02200 0.83600 0.31100
O 	O 	0.07490 0.04000 0.85430 -0.39500
O 	O 	0.12460 0.06140 0.82370 -0.34700
C 	C 	0.13480 0.93480 0.81030 0.00600
H 	H 	0.15140 0.96350 0.80100 0.05300
C 	C 	0.14050 0.87130 0.80450 -0.04300
C 	C 	0.17280 0.84700 0.78400 0.09200
N 	N 	0.19620 0.82930 0.76740 -0.11700
O 	O 	0.15830 0.39000 0.93010 -0.55700
C 	C 	0.15010 0.43900 0.91170 0.51400
H 	H 	0.14880 0.43520 0.88930 -0.13800
O 	O 	0.14460 0.48610 0.92380 -0.41700
O 	O 	0.13210 0.33350 0.98140 -0.51800
C 	C 	0.14160 0.28540 0.99950 0.41500
H 	H 	0.14060 0.28920 0.02190 -0.09700
O 	O 	0.15170 0.23600 0.98770 -0.37300
