data_crystal

_cell_length_a 28.07240
_cell_length_b 14.00070
_cell_length_c 44.71590
_cell_angle_alpha 90.00000
_cell_angle_beta  90.00000
_cell_angle_gamma 90.00000

_symmetry_space_group_name_	'P 1'
_symmetry_space_group_name_H-M	'P 1'

loop_
_symmetry_equiv_pos_as_xyz
  x,y,z

loop_
_atom_site_label
_atom_site_type_symbol
_atom_site_fract_x
_atom_site_fract_y
_atom_site_fract_z
_atom_site_charge
I 	I 	0.19848 0.66410 0.81559 -0.37300
I 	I 	0.32596 0.82782 0.83457 -0.37500
I 	I 	0.42567 0.30643 0.37482 -0.37300
I 	I 	0.49551 0.30448 0.46362 -0.39400
I 	I 	0.44196 0.31918 0.58343 -0.38300
I 	I 	0.51462 0.05536 0.61641 -0.36800
Zn	Zn	0.23815 0.82645 0.82081 1.16400
Zn	Zn	0.47724 0.38529 0.41372 1.16300
Zn	Zn	0.45002 0.13820 0.58689 1.16300
N 	N 	0.22910 0.89970 0.78160 -0.27400
N 	N 	0.38590 0.09490 0.60540 -0.27300
N 	N 	0.04140 0.08490 0.60711 -0.27200
N 	N 	0.25743 0.02430 0.67933 -0.14200
N 	N 	0.17400 0.01960 0.68089 -0.14200
N 	N 	0.21355 0.06240 0.63608 -0.14000
N 	N 	0.44581 0.08050 0.54458 -0.27600
N 	N 	0.44900 0.51800 0.42261 -0.27600
N 	N 	0.30040 0.09390 0.35082 -0.28100
N 	N 	0.42180 0.84720 0.46103 -0.14300
N 	N 	0.37830 0.84680 0.41542 -0.13300
N 	N 	0.38670 0.99040 0.44279 -0.13900
C 	C 	0.18710 0.89780 0.76721 0.06500
H 	H 	0.16060 0.86930 0.77690 -0.01000
C 	C 	0.18100 0.93540 0.73903 -0.11600
H 	H 	0.15060 0.93440 0.72970 0.07900
C 	C 	0.22010 0.97480 0.72458 0.05100
C 	C 	0.26240 0.97780 0.73905 -0.11200
H 	H 	0.28940 0.00520 0.72960 0.08000
C 	C 	0.26620 0.94070 0.76785 0.05900
H 	H 	0.29590 0.94440 0.77800 0.00200
C 	C 	0.21580 0.00970 0.69293 0.10900
C 	C 	0.17430 0.04650 0.65206 0.10200
C 	C 	0.25430 0.04910 0.65055 0.10400
C 	C 	0.12810 0.05850 0.63677 0.05600
C 	C 	0.08550 0.04830 0.65141 -0.12000
H 	H 	0.08480 0.03190 0.67200 0.08200
C 	C 	0.04350 0.06220 0.63592 0.07700
H 	H 	0.01440 0.05510 0.64650 -0.01100
C 	C 	0.08320 0.09280 0.59278 0.07400
H 	H 	0.08270 0.10750 0.57200 -0.01000
C 	C 	0.12630 0.08110 0.60628 -0.11600
H 	H 	0.15490 0.08810 0.59510 0.08000
C 	C 	0.29970 0.06400 0.63445 0.05000
C 	C 	0.30060 0.09430 0.60500 -0.11700
H 	H 	0.27190 0.10510 0.59430 0.07800
C 	C 	0.34480 0.10880 0.59134 0.07000
H 	H 	0.34540 0.12960 0.57110 -0.01600
C 	C 	0.38430 0.06410 0.63388 0.06200
H 	H 	0.41350 0.05300 0.64410 -0.00900
C 	C 	0.34300 0.04830 0.64874 -0.11600
H 	H 	0.34360 0.02660 0.66890 0.07900
C 	C 	0.42810 0.12910 0.52159 0.07500
H 	H 	0.42260 0.19560 0.52390 -0.00900
C 	C 	0.41760 0.08720 0.49459 -0.12200
H 	H 	0.40540 0.12420 0.47850 0.08200
C 	C 	0.42500 0.99020 0.49124 0.06000
C 	C 	0.44480 0.94070 0.51468 -0.12800
H 	H 	0.45190 0.87470 0.51270 0.09400
C 	C 	0.45450 0.98760 0.54122 0.07400
H 	H 	0.46770 0.95270 0.55750 -0.01700
C 	C 	0.41040 0.93960 0.46339 0.09300
C 	C 	0.37180 0.93920 0.41972 0.10500
C 	C 	0.40520 0.80430 0.43686 0.08700
C 	C 	0.45400 0.56020 0.44913 0.08300
H 	H 	0.46860 0.52500 0.46480 -0.01000
C 	C 	0.43920 0.65170 0.45508 -0.13400
H 	H 	0.44290 0.67830 0.47450 0.09400
C 	C 	0.41880 0.70430 0.43222 0.05800
C 	C 	0.41180 0.65910 0.40510 -0.13300
H 	H 	0.39630 0.69190 0.38920 0.09800
C 	C 	0.42690 0.56760 0.40115 0.07900
H 	H 	0.42160 0.53780 0.38240 -0.00700
C 	C 	0.34670 0.99330 0.39526 0.07300
C 	C 	0.34620 0.09000 0.39558 -0.12200
H 	H 	0.36150 0.12420 0.41120 0.08400
C 	C 	0.32310 0.13850 0.37270 0.07400
H 	H 	0.32350 0.20640 0.37280 -0.00800
C 	C 	0.30160 0.00090 0.35050 0.09500
H 	H 	0.28550 0.96830 0.33480 -0.02000
C 	C 	0.32520 0.94720 0.37194 -0.13700
H 	H 	0.32650 0.87950 0.37040 0.08900
I 	I 	0.30152 0.33590 0.31559 -0.37200
I 	I 	0.17404 0.17218 0.33457 -0.37400
I 	I 	0.07433 0.69357 0.87482 -0.37200
I 	I 	0.00449 0.69552 0.96362 -0.39300
I 	I 	0.05804 0.68082 0.08343 -0.38200
I 	I 	0.98538 0.94464 0.11641 -0.36600
Zn	Zn	0.26185 0.17355 0.32081 1.16500
Zn	Zn	0.02276 0.61471 0.91372 1.16400
Zn	Zn	0.04998 0.86180 0.08689 1.16400
N 	N 	0.27090 0.10030 0.28160 -0.27200
N 	N 	0.11410 0.90510 0.10540 -0.27200
N 	N 	0.45860 0.91510 0.10711 -0.27100
N 	N 	0.24257 0.97570 0.17933 -0.14200
N 	N 	0.32600 0.98040 0.18089 -0.14200
N 	N 	0.28645 0.93760 0.13608 -0.14000
N 	N 	0.05419 0.91950 0.04458 -0.27700
N 	N 	0.05100 0.48200 0.92261 -0.27600
N 	N 	0.19960 0.90610 0.85082 -0.28100
N 	N 	0.07820 0.15280 0.96103 -0.14300
N 	N 	0.12170 0.15320 0.91542 -0.13300
N 	N 	0.11330 0.00960 0.94279 -0.13900
C 	C 	0.31290 0.10220 0.26721 0.06500
H 	H 	0.33940 0.13070 0.27690 -0.01000
C 	C 	0.31900 0.06460 0.23903 -0.11600
H 	H 	0.34940 0.06560 0.22970 0.08000
C 	C 	0.27990 0.02520 0.22458 0.05100
C 	C 	0.23760 0.02220 0.23905 -0.11000
H 	H 	0.21060 0.99480 0.22960 0.07900
C 	C 	0.23380 0.05930 0.26785 0.05800
H 	H 	0.20410 0.05560 0.27800 0.00300
C 	C 	0.28420 0.99030 0.19293 0.10800
C 	C 	0.32570 0.95350 0.15206 0.10200
C 	C 	0.24570 0.95090 0.15055 0.10400
C 	C 	0.37190 0.94150 0.13677 0.05600
C 	C 	0.41450 0.95170 0.15141 -0.12000
H 	H 	0.41520 0.96810 0.17200 0.08200
C 	C 	0.45650 0.93780 0.13592 0.07700
H 	H 	0.48560 0.94490 0.14650 -0.01100
C 	C 	0.41680 0.90720 0.09278 0.07400
H 	H 	0.41730 0.89250 0.07200 -0.01000
C 	C 	0.37370 0.91890 0.10628 -0.11600
H 	H 	0.34510 0.91190 0.09510 0.08000
C 	C 	0.20030 0.93600 0.13445 0.05000
C 	C 	0.19940 0.90570 0.10500 -0.11700
H 	H 	0.22810 0.89490 0.09430 0.07800
C 	C 	0.15520 0.89120 0.09134 0.07000
H 	H 	0.15460 0.87040 0.07110 -0.01600
C 	C 	0.11570 0.93590 0.13388 0.06200
H 	H 	0.08650 0.94700 0.14410 -0.00900
C 	C 	0.15700 0.95170 0.14874 -0.11600
H 	H 	0.15640 0.97340 0.16890 0.07900
C 	C 	0.07190 0.87090 0.02159 0.07500
H 	H 	0.07740 0.80440 0.02390 -0.00900
C 	C 	0.08240 0.91280 0.99459 -0.12400
H 	H 	0.09460 0.87580 0.97850 0.08200
C 	C 	0.07500 0.00980 0.99124 0.06200
C 	C 	0.05520 0.05930 0.01468 -0.12900
H 	H 	0.04810 0.12530 0.01270 0.09400
C 	C 	0.04550 0.01240 0.04122 0.07500
H 	H 	0.03230 0.04730 0.05750 -0.01700
C 	C 	0.08960 0.06040 0.96339 0.09300
C 	C 	0.12820 0.06080 0.91972 0.10500
C 	C 	0.09480 0.19570 0.93686 0.08700
C 	C 	0.04600 0.43980 0.94913 0.08300
H 	H 	0.03140 0.47500 0.96480 -0.01000
C 	C 	0.06080 0.34830 0.95508 -0.13400
H 	H 	0.05710 0.32170 0.97450 0.09400
C 	C 	0.08120 0.29570 0.93222 0.05800
C 	C 	0.08820 0.34090 0.90510 -0.13300
H 	H 	0.10370 0.30810 0.88920 0.09800
C 	C 	0.07310 0.43240 0.90115 0.07900
H 	H 	0.07840 0.46220 0.88240 -0.00700
C 	C 	0.15330 0.00670 0.89526 0.07300
C 	C 	0.15380 0.91000 0.89558 -0.12300
H 	H 	0.13850 0.87580 0.91120 0.08500
C 	C 	0.17690 0.86150 0.87270 0.07500
H 	H 	0.17650 0.79360 0.87280 -0.00800
C 	C 	0.19840 0.99910 0.85050 0.09200
H 	H 	0.21450 0.03170 0.83480 -0.01900
C 	C 	0.17480 0.05280 0.87194 -0.13600
H 	H 	0.17350 0.12050 0.87040 0.08900
I 	I 	0.80152 0.16410 0.68441 -0.37200
I 	I 	0.67404 0.32782 0.66543 -0.37400
I 	I 	0.57433 0.80643 0.12518 -0.37200
I 	I 	0.50449 0.80448 0.03638 -0.39300
I 	I 	0.55804 0.81918 0.91657 -0.38200
I 	I 	0.48538 0.55536 0.88359 -0.36600
Zn	Zn	0.76185 0.32645 0.67919 1.16500
Zn	Zn	0.52276 0.88529 0.08628 1.16400
Zn	Zn	0.54998 0.63820 0.91311 1.16400
N 	N 	0.77090 0.39970 0.71840 -0.27300
N 	N 	0.61410 0.59490 0.89460 -0.27200
N 	N 	0.95860 0.58490 0.89289 -0.27100
N 	N 	0.74257 0.52430 0.82067 -0.14200
N 	N 	0.82600 0.51960 0.81911 -0.14200
N 	N 	0.78645 0.56240 0.86392 -0.14000
N 	N 	0.55419 0.58050 0.95542 -0.27600
N 	N 	0.55100 0.01800 0.07739 -0.27600
N 	N 	0.69960 0.59390 0.14918 -0.28100
N 	N 	0.57820 0.34720 0.03897 -0.14300
N 	N 	0.62170 0.34680 0.08458 -0.13300
N 	N 	0.61330 0.49040 0.05721 -0.13900
C 	C 	0.81290 0.39780 0.73279 0.06500
H 	H 	0.83940 0.36930 0.72310 -0.01000
C 	C 	0.81900 0.43540 0.76097 -0.11600
H 	H 	0.84940 0.43440 0.77030 0.07900
C 	C 	0.77990 0.47480 0.77542 0.05100
C 	C 	0.73760 0.47780 0.76095 -0.11200
H 	H 	0.71060 0.50520 0.77040 0.08100
C 	C 	0.73380 0.44070 0.73215 0.05900
H 	H 	0.70410 0.44440 0.72200 0.00200
C 	C 	0.78420 0.50970 0.80707 0.10900
C 	C 	0.82570 0.54650 0.84794 0.10200
C 	C 	0.74570 0.54910 0.84945 0.10400
C 	C 	0.87190 0.55850 0.86323 0.05600
C 	C 	0.91450 0.54830 0.84859 -0.12000
H 	H 	0.91520 0.53190 0.82800 0.08200
C 	C 	0.95650 0.56220 0.86408 0.07700
H 	H 	0.98560 0.55510 0.85350 -0.01100
C 	C 	0.91680 0.59280 0.90722 0.07400
H 	H 	0.91730 0.60750 0.92800 -0.01000
C 	C 	0.87370 0.58110 0.89372 -0.11600
H 	H 	0.84510 0.58810 0.90490 0.08000
C 	C 	0.70030 0.56400 0.86555 0.05000
C 	C 	0.69940 0.59430 0.89500 -0.11700
H 	H 	0.72810 0.60510 0.90570 0.07800
C 	C 	0.65520 0.60880 0.90866 0.07000
H 	H 	0.65460 0.62960 0.92890 -0.01600
C 	C 	0.61570 0.56410 0.86612 0.06200
H 	H 	0.58650 0.55300 0.85590 -0.00900
C 	C 	0.65700 0.54830 0.85126 -0.11600
H 	H 	0.65640 0.52660 0.83110 0.07900
C 	C 	0.57190 0.62910 0.97841 0.07500
H 	H 	0.57740 0.69560 0.97610 -0.00900
C 	C 	0.58240 0.58720 0.00541 -0.12300
H 	H 	0.59460 0.62420 0.02150 0.08200
C 	C 	0.57500 0.49020 0.00876 0.06000
C 	C 	0.55520 0.44070 0.98532 -0.12800
H 	H 	0.54810 0.37470 0.98730 0.09400
C 	C 	0.54550 0.48760 0.95878 0.07400
H 	H 	0.53230 0.45270 0.94250 -0.01700
C 	C 	0.58960 0.43960 0.03661 0.09300
C 	C 	0.62820 0.43920 0.08028 0.10500
C 	C 	0.59480 0.30430 0.06314 0.08700
C 	C 	0.54600 0.06020 0.05087 0.08300
H 	H 	0.53140 0.02500 0.03520 -0.01000
C 	C 	0.56080 0.15170 0.04492 -0.13400
H 	H 	0.55710 0.17830 0.02550 0.09400
C 	C 	0.58120 0.20430 0.06778 0.05800
C 	C 	0.58820 0.15910 0.09490 -0.13300
H 	H 	0.60370 0.19190 0.11080 0.09800
C 	C 	0.57310 0.06760 0.09885 0.07900
H 	H 	0.57840 0.03780 0.11760 -0.00700
C 	C 	0.65330 0.49330 0.10474 0.07300
C 	C 	0.65380 0.59000 0.10442 -0.12200
H 	H 	0.63850 0.62420 0.08880 0.08500
C 	C 	0.67690 0.63850 0.12730 0.07400
H 	H 	0.67650 0.70640 0.12720 -0.00800
C 	C 	0.69840 0.50090 0.14950 0.09200
H 	H 	0.71450 0.46830 0.16520 -0.01900
C 	C 	0.67480 0.44720 0.12806 -0.13600
H 	H 	0.67350 0.37950 0.12960 0.08900
I 	I 	0.69848 0.83590 0.18441 -0.37200
I 	I 	0.82596 0.67218 0.16543 -0.37400
I 	I 	0.92567 0.19357 0.62518 -0.37300
I 	I 	0.99551 0.19552 0.53638 -0.39400
I 	I 	0.94196 0.18082 0.41657 -0.38200
I 	I 	0.01462 0.44464 0.38359 -0.36600
Zn	Zn	0.73815 0.67355 0.17919 1.16500
Zn	Zn	0.97724 0.11471 0.58628 1.16400
Zn	Zn	0.95002 0.36180 0.41311 1.16400
N 	N 	0.72910 0.60030 0.21840 -0.27300
N 	N 	0.88590 0.40510 0.39460 -0.27200
N 	N 	0.54140 0.41510 0.39289 -0.27100
N 	N 	0.75743 0.47570 0.32067 -0.14200
N 	N 	0.67400 0.48040 0.31911 -0.14200
N 	N 	0.71355 0.43760 0.36392 -0.14000
N 	N 	0.94581 0.41950 0.45542 -0.27600
N 	N 	0.94900 0.98200 0.57739 -0.27600
N 	N 	0.80040 0.40610 0.64918 -0.28100
N 	N 	0.92180 0.65280 0.53897 -0.14300
N 	N 	0.87830 0.65320 0.58458 -0.13300
N 	N 	0.88670 0.50960 0.55721 -0.13900
C 	C 	0.68710 0.60220 0.23279 0.06500
H 	H 	0.66060 0.63070 0.22310 -0.01000
C 	C 	0.68100 0.56460 0.26097 -0.11600
H 	H 	0.65060 0.56560 0.27030 0.07900
C 	C 	0.72010 0.52520 0.27542 0.05100
C 	C 	0.76240 0.52220 0.26095 -0.11200
H 	H 	0.78940 0.49480 0.27040 0.08100
C 	C 	0.76620 0.55930 0.23215 0.05900
H 	H 	0.79590 0.55560 0.22200 0.00200
C 	C 	0.71580 0.49030 0.30707 0.10900
C 	C 	0.67430 0.45350 0.34794 0.10200
C 	C 	0.75430 0.45090 0.34945 0.10400
C 	C 	0.62810 0.44150 0.36323 0.05600
C 	C 	0.58550 0.45170 0.34859 -0.12000
H 	H 	0.58480 0.46810 0.32800 0.08200
C 	C 	0.54350 0.43780 0.36408 0.07700
H 	H 	0.51440 0.44490 0.35350 -0.01100
C 	C 	0.58320 0.40720 0.40722 0.07400
H 	H 	0.58270 0.39250 0.42800 -0.01000
C 	C 	0.62630 0.41890 0.39372 -0.11600
H 	H 	0.65490 0.41190 0.40490 0.08000
C 	C 	0.79970 0.43600 0.36555 0.05000
C 	C 	0.80060 0.40570 0.39500 -0.11700
H 	H 	0.77190 0.39490 0.40570 0.07800
C 	C 	0.84480 0.39120 0.40866 0.07000
H 	H 	0.84540 0.37040 0.42890 -0.01600
C 	C 	0.88430 0.43590 0.36612 0.06200
H 	H 	0.91350 0.44700 0.35590 -0.00900
C 	C 	0.84300 0.45170 0.35126 -0.11600
H 	H 	0.84360 0.47340 0.33110 0.07900
C 	C 	0.92810 0.37090 0.47841 0.07500
H 	H 	0.92260 0.30440 0.47610 -0.00900
C 	C 	0.91760 0.41280 0.50541 -0.12300
H 	H 	0.90540 0.37580 0.52150 0.08200
C 	C 	0.92500 0.50980 0.50876 0.06000
C 	C 	0.94480 0.55930 0.48532 -0.12800
H 	H 	0.95190 0.62530 0.48730 0.09400
C 	C 	0.95450 0.51240 0.45878 0.07400
H 	H 	0.96770 0.54730 0.44250 -0.01700
C 	C 	0.91040 0.56040 0.53661 0.09300
C 	C 	0.87180 0.56080 0.58028 0.10500
C 	C 	0.90520 0.69570 0.56314 0.08700
C 	C 	0.95400 0.93980 0.55087 0.08300
H 	H 	0.96860 0.97500 0.53520 -0.01000
C 	C 	0.93920 0.84830 0.54492 -0.13400
H 	H 	0.94290 0.82170 0.52550 0.09400
C 	C 	0.91880 0.79570 0.56778 0.05800
C 	C 	0.91180 0.84090 0.59490 -0.13200
H 	H 	0.89630 0.80810 0.61080 0.09800
C 	C 	0.92690 0.93240 0.59885 0.07900
H 	H 	0.92160 0.96220 0.61760 -0.00700
C 	C 	0.84670 0.50670 0.60474 0.07300
C 	C 	0.84620 0.41000 0.60442 -0.12200
H 	H 	0.86150 0.37580 0.58880 0.08400
C 	C 	0.82310 0.36150 0.62730 0.07400
H 	H 	0.82350 0.29360 0.62720 -0.00800
C 	C 	0.80160 0.49910 0.64950 0.09200
H 	H 	0.78550 0.53170 0.66520 -0.01900
C 	C 	0.82520 0.55280 0.62806 -0.13600
H 	H 	0.82650 0.62050 0.62960 0.08900
I 	I 	0.80152 0.33590 0.18441 -0.37200
I 	I 	0.67404 0.17218 0.16543 -0.37400
I 	I 	0.57433 0.69357 0.62518 -0.37200
I 	I 	0.50449 0.69552 0.53638 -0.39300
I 	I 	0.55804 0.68082 0.41657 -0.38200
I 	I 	0.48538 0.94464 0.38359 -0.36700
Zn	Zn	0.76185 0.17355 0.17919 1.16500
Zn	Zn	0.52276 0.61471 0.58628 1.16400
Zn	Zn	0.54998 0.86180 0.41311 1.16400
N 	N 	0.77090 0.10030 0.21840 -0.27300
N 	N 	0.61410 0.90510 0.39460 -0.27200
N 	N 	0.95860 0.91510 0.39289 -0.27100
N 	N 	0.74257 0.97570 0.32067 -0.14200
N 	N 	0.82600 0.98040 0.31911 -0.14200
N 	N 	0.78645 0.93760 0.36392 -0.14000
N 	N 	0.55419 0.91950 0.45542 -0.27600
N 	N 	0.55100 0.48200 0.57739 -0.27600
N 	N 	0.69960 0.90610 0.64918 -0.28100
N 	N 	0.57820 0.15280 0.53897 -0.14300
N 	N 	0.62170 0.15320 0.58458 -0.13300
N 	N 	0.61330 0.00960 0.55721 -0.13900
C 	C 	0.81290 0.10220 0.23279 0.06500
H 	H 	0.83940 0.13070 0.22310 -0.01000
C 	C 	0.81900 0.06460 0.26097 -0.11600
H 	H 	0.84940 0.06560 0.27030 0.07900
C 	C 	0.77990 0.02520 0.27542 0.05100
C 	C 	0.73760 0.02220 0.26095 -0.11200
H 	H 	0.71060 0.99480 0.27040 0.08000
C 	C 	0.73380 0.05930 0.23215 0.05900
H 	H 	0.70410 0.05560 0.22200 0.00200
C 	C 	0.78420 0.99030 0.30707 0.10900
C 	C 	0.82570 0.95350 0.34794 0.10200
C 	C 	0.74570 0.95090 0.34945 0.10400
C 	C 	0.87190 0.94150 0.36323 0.05600
C 	C 	0.91450 0.95170 0.34859 -0.12000
H 	H 	0.91520 0.96810 0.32800 0.08200
C 	C 	0.95650 0.93780 0.36408 0.07700
H 	H 	0.98560 0.94490 0.35350 -0.01100
C 	C 	0.91680 0.90720 0.40722 0.07400
H 	H 	0.91730 0.89250 0.42800 -0.01000
C 	C 	0.87370 0.91890 0.39372 -0.11600
H 	H 	0.84510 0.91190 0.40490 0.08000
C 	C 	0.70030 0.93600 0.36555 0.05000
C 	C 	0.69940 0.90570 0.39500 -0.11700
H 	H 	0.72810 0.89490 0.40570 0.07800
C 	C 	0.65520 0.89120 0.40866 0.07000
H 	H 	0.65460 0.87040 0.42890 -0.01600
C 	C 	0.61570 0.93590 0.36612 0.06200
H 	H 	0.58650 0.94700 0.35590 -0.00900
C 	C 	0.65700 0.95170 0.35126 -0.11600
H 	H 	0.65640 0.97340 0.33110 0.07900
C 	C 	0.57190 0.87090 0.47841 0.07500
H 	H 	0.57740 0.80440 0.47610 -0.00900
C 	C 	0.58240 0.91280 0.50541 -0.12200
H 	H 	0.59460 0.87580 0.52150 0.08200
C 	C 	0.57500 0.00980 0.50876 0.06000
C 	C 	0.55520 0.05930 0.48532 -0.12800
H 	H 	0.54810 0.12530 0.48730 0.09400
C 	C 	0.54550 0.01240 0.45878 0.07400
H 	H 	0.53230 0.04730 0.44250 -0.01700
C 	C 	0.58960 0.06040 0.53661 0.09300
C 	C 	0.62820 0.06080 0.58028 0.10500
C 	C 	0.59480 0.19570 0.56314 0.08700
C 	C 	0.54600 0.43980 0.55087 0.08300
H 	H 	0.53140 0.47500 0.53520 -0.01000
C 	C 	0.56080 0.34830 0.54492 -0.13400
H 	H 	0.55710 0.32170 0.52550 0.09400
C 	C 	0.58120 0.29570 0.56778 0.05800
C 	C 	0.58820 0.34090 0.59490 -0.13300
H 	H 	0.60370 0.30810 0.61080 0.09800
C 	C 	0.57310 0.43240 0.59885 0.07900
H 	H 	0.57840 0.46220 0.61760 -0.00700
C 	C 	0.65330 0.00670 0.60474 0.07300
C 	C 	0.65380 0.91000 0.60442 -0.12200
H 	H 	0.63850 0.87580 0.58880 0.08400
C 	C 	0.67690 0.86150 0.62730 0.07400
H 	H 	0.67650 0.79360 0.62720 -0.00800
C 	C 	0.69840 0.99910 0.64950 0.09500
H 	H 	0.71450 0.03170 0.66520 -0.02000
C 	C 	0.67480 0.05280 0.62806 -0.13700
H 	H 	0.67350 0.12050 0.62960 0.08900
I 	I 	0.69848 0.66410 0.68441 -0.37200
I 	I 	0.82596 0.82782 0.66543 -0.37400
I 	I 	0.92567 0.30643 0.12518 -0.37200
I 	I 	0.99551 0.30448 0.03638 -0.39300
I 	I 	0.94196 0.31918 0.91657 -0.38200
I 	I 	0.01462 0.05536 0.88359 -0.36600
Zn	Zn	0.73815 0.82645 0.67919 1.16500
Zn	Zn	0.97724 0.38529 0.08628 1.16400
Zn	Zn	0.95002 0.13820 0.91311 1.16400
N 	N 	0.72910 0.89970 0.71840 -0.27200
N 	N 	0.88590 0.09490 0.89460 -0.27200
N 	N 	0.54140 0.08490 0.89289 -0.27100
N 	N 	0.75743 0.02430 0.82067 -0.14200
N 	N 	0.67400 0.01960 0.81911 -0.14200
N 	N 	0.71355 0.06240 0.86392 -0.14000
N 	N 	0.94581 0.08050 0.95542 -0.27700
N 	N 	0.94900 0.51800 0.07739 -0.27600
N 	N 	0.80040 0.09390 0.14918 -0.28100
N 	N 	0.92180 0.84720 0.03897 -0.14300
N 	N 	0.87830 0.84680 0.08458 -0.13300
N 	N 	0.88670 0.99040 0.05721 -0.13900
C 	C 	0.68710 0.89780 0.73279 0.06500
H 	H 	0.66060 0.86930 0.72310 -0.01000
C 	C 	0.68100 0.93540 0.76097 -0.11600
H 	H 	0.65060 0.93440 0.77030 0.08000
C 	C 	0.72010 0.97480 0.77542 0.05100
C 	C 	0.76240 0.97780 0.76095 -0.11000
H 	H 	0.78940 0.00520 0.77040 0.07900
C 	C 	0.76620 0.94070 0.73215 0.05800
H 	H 	0.79590 0.94440 0.72200 0.00300
C 	C 	0.71580 0.00970 0.80707 0.10800
C 	C 	0.67430 0.04650 0.84794 0.10200
C 	C 	0.75430 0.04910 0.84945 0.10400
C 	C 	0.62810 0.05850 0.86323 0.05600
C 	C 	0.58550 0.04830 0.84859 -0.12000
H 	H 	0.58480 0.03190 0.82800 0.08200
C 	C 	0.54350 0.06220 0.86408 0.07700
H 	H 	0.51440 0.05510 0.85350 -0.01100
C 	C 	0.58320 0.09280 0.90722 0.07400
H 	H 	0.58270 0.10750 0.92800 -0.01000
C 	C 	0.62630 0.08110 0.89372 -0.11600
H 	H 	0.65490 0.08810 0.90490 0.08000
C 	C 	0.79970 0.06400 0.86555 0.05000
C 	C 	0.80060 0.09430 0.89500 -0.11700
H 	H 	0.77190 0.10510 0.90570 0.07800
C 	C 	0.84480 0.10880 0.90866 0.07000
H 	H 	0.84540 0.12960 0.92890 -0.01600
C 	C 	0.88430 0.06410 0.86612 0.06200
H 	H 	0.91350 0.05300 0.85590 -0.00900
C 	C 	0.84300 0.04830 0.85126 -0.11600
H 	H 	0.84360 0.02660 0.83110 0.07900
C 	C 	0.92810 0.12910 0.97841 0.07500
H 	H 	0.92260 0.19560 0.97610 -0.00900
C 	C 	0.91760 0.08720 0.00541 -0.12400
H 	H 	0.90540 0.12420 0.02150 0.08200
C 	C 	0.92500 0.99020 0.00876 0.06200
C 	C 	0.94480 0.94070 0.98532 -0.12900
H 	H 	0.95190 0.87470 0.98730 0.09400
C 	C 	0.95450 0.98760 0.95878 0.07500
H 	H 	0.96770 0.95270 0.94250 -0.01700
C 	C 	0.91040 0.93960 0.03661 0.09300
C 	C 	0.87180 0.93920 0.08028 0.10500
C 	C 	0.90520 0.80430 0.06314 0.08700
C 	C 	0.95400 0.56020 0.05087 0.08300
H 	H 	0.96860 0.52500 0.03520 -0.01000
C 	C 	0.93920 0.65170 0.04492 -0.13400
H 	H 	0.94290 0.67830 0.02550 0.09400
C 	C 	0.91880 0.70430 0.06778 0.05800
C 	C 	0.91180 0.65910 0.09490 -0.13300
H 	H 	0.89630 0.69190 0.11080 0.09800
C 	C 	0.92690 0.56760 0.09885 0.07900
H 	H 	0.92160 0.53780 0.11760 -0.00700
C 	C 	0.84670 0.99330 0.10474 0.07300
C 	C 	0.84620 0.09000 0.10442 -0.12300
H 	H 	0.86150 0.12420 0.08880 0.08500
C 	C 	0.82310 0.13850 0.12730 0.07500
H 	H 	0.82350 0.20640 0.12720 -0.00800
C 	C 	0.80160 0.00090 0.14950 0.09200
H 	H 	0.78550 0.96830 0.16520 -0.01900
C 	C 	0.82520 0.94720 0.12806 -0.13600
H 	H 	0.82650 0.87950 0.12960 0.08900
I 	I 	0.19848 0.83590 0.31559 -0.37200
I 	I 	0.32596 0.67218 0.33457 -0.37400
I 	I 	0.42567 0.19357 0.87482 -0.37200
I 	I 	0.49551 0.19552 0.96362 -0.39300
I 	I 	0.44196 0.18082 0.08343 -0.38200
I 	I 	0.51462 0.44464 0.11641 -0.36600
Zn	Zn	0.23815 0.67355 0.32081 1.16500
Zn	Zn	0.47724 0.11471 0.91372 1.16400
Zn	Zn	0.45002 0.36180 0.08689 1.16400
N 	N 	0.22910 0.60030 0.28160 -0.27300
N 	N 	0.38590 0.40510 0.10540 -0.27200
N 	N 	0.04140 0.41510 0.10711 -0.27100
N 	N 	0.25743 0.47570 0.17933 -0.14200
N 	N 	0.17400 0.48040 0.18089 -0.14200
N 	N 	0.21355 0.43760 0.13608 -0.14000
N 	N 	0.44581 0.41950 0.04458 -0.27600
N 	N 	0.44900 0.98200 0.92261 -0.27600
N 	N 	0.30040 0.40610 0.85082 -0.28100
N 	N 	0.42180 0.65280 0.96103 -0.14300
N 	N 	0.37830 0.65320 0.91542 -0.13300
N 	N 	0.38670 0.50960 0.94279 -0.13900
C 	C 	0.18710 0.60220 0.26721 0.06500
H 	H 	0.16060 0.63070 0.27690 -0.01000
C 	C 	0.18100 0.56460 0.23903 -0.11600
H 	H 	0.15060 0.56560 0.22970 0.07900
C 	C 	0.22010 0.52520 0.22458 0.05100
C 	C 	0.26240 0.52220 0.23905 -0.11200
H 	H 	0.28940 0.49480 0.22960 0.08100
C 	C 	0.26620 0.55930 0.26785 0.05900
H 	H 	0.29590 0.55560 0.27800 0.00200
C 	C 	0.21580 0.49030 0.19293 0.10900
C 	C 	0.17430 0.45350 0.15206 0.10200
C 	C 	0.25430 0.45090 0.15055 0.10400
C 	C 	0.12810 0.44150 0.13677 0.05600
C 	C 	0.08550 0.45170 0.15141 -0.12000
H 	H 	0.08480 0.46810 0.17200 0.08200
C 	C 	0.04350 0.43780 0.13592 0.07700
H 	H 	0.01440 0.44490 0.14650 -0.01100
C 	C 	0.08320 0.40720 0.09278 0.07400
H 	H 	0.08270 0.39250 0.07200 -0.01000
C 	C 	0.12630 0.41890 0.10628 -0.11600
H 	H 	0.15490 0.41190 0.09510 0.08000
C 	C 	0.29970 0.43600 0.13445 0.05000
C 	C 	0.30060 0.40570 0.10500 -0.11700
H 	H 	0.27190 0.39490 0.09430 0.07800
C 	C 	0.34480 0.39120 0.09134 0.07000
H 	H 	0.34540 0.37040 0.07110 -0.01600
C 	C 	0.38430 0.43590 0.13388 0.06200
H 	H 	0.41350 0.44700 0.14410 -0.00900
C 	C 	0.34300 0.45170 0.14874 -0.11600
H 	H 	0.34360 0.47340 0.16890 0.07900
C 	C 	0.42810 0.37090 0.02159 0.07500
H 	H 	0.42260 0.30440 0.02390 -0.00900
C 	C 	0.41760 0.41280 0.99459 -0.12300
H 	H 	0.40540 0.37580 0.97850 0.08200
C 	C 	0.42500 0.50980 0.99124 0.06000
C 	C 	0.44480 0.55930 0.01468 -0.12800
H 	H 	0.45190 0.62530 0.01270 0.09400
C 	C 	0.45450 0.51240 0.04122 0.07400
H 	H 	0.46770 0.54730 0.05750 -0.01700
C 	C 	0.41040 0.56040 0.96339 0.09300
C 	C 	0.37180 0.56080 0.91972 0.10500
C 	C 	0.40520 0.69570 0.93686 0.08700
C 	C 	0.45400 0.93980 0.94913 0.08300
H 	H 	0.46860 0.97500 0.96480 -0.01000
C 	C 	0.43920 0.84830 0.95508 -0.13400
H 	H 	0.44290 0.82170 0.97450 0.09400
C 	C 	0.41880 0.79570 0.93222 0.05800
C 	C 	0.41180 0.84090 0.90510 -0.13300
H 	H 	0.39630 0.80810 0.88920 0.09800
C 	C 	0.42690 0.93240 0.90115 0.07900
H 	H 	0.42160 0.96220 0.88240 -0.00700
C 	C 	0.34670 0.50670 0.89526 0.07300
C 	C 	0.34620 0.41000 0.89558 -0.12200
H 	H 	0.36150 0.37580 0.91120 0.08500
C 	C 	0.32310 0.36150 0.87270 0.07400
H 	H 	0.32350 0.29360 0.87280 -0.00800
C 	C 	0.30160 0.49910 0.85050 0.09200
H 	H 	0.28550 0.53170 0.83480 -0.01900
C 	C 	0.32520 0.55280 0.87194 -0.13600
H 	H 	0.32650 0.62050 0.87040 0.08900
I 	I 	0.30152 0.16410 0.81559 -0.37200
I 	I 	0.17404 0.32782 0.83457 -0.37400
I 	I 	0.07433 0.80643 0.37482 -0.37300
I 	I 	0.00449 0.80448 0.46362 -0.39400
I 	I 	0.05804 0.81918 0.58343 -0.38200
I 	I 	0.98538 0.55536 0.61641 -0.36600
Zn	Zn	0.26185 0.32645 0.82081 1.16500
Zn	Zn	0.02276 0.88529 0.41372 1.16400
Zn	Zn	0.04998 0.63820 0.58689 1.16400
N 	N 	0.27090 0.39970 0.78160 -0.27300
N 	N 	0.11410 0.59490 0.60540 -0.27200
N 	N 	0.45860 0.58490 0.60711 -0.27100
N 	N 	0.24257 0.52430 0.67933 -0.14200
N 	N 	0.32600 0.51960 0.68089 -0.14200
N 	N 	0.28645 0.56240 0.63608 -0.14000
N 	N 	0.05419 0.58050 0.54458 -0.27600
N 	N 	0.05100 0.01800 0.42261 -0.27600
N 	N 	0.19960 0.59390 0.35082 -0.28100
N 	N 	0.07820 0.34720 0.46103 -0.14300
N 	N 	0.12170 0.34680 0.41542 -0.13300
N 	N 	0.11330 0.49040 0.44279 -0.13900
C 	C 	0.31290 0.39780 0.76721 0.06500
H 	H 	0.33940 0.36930 0.77690 -0.01000
C 	C 	0.31900 0.43540 0.73903 -0.11600
H 	H 	0.34940 0.43440 0.72970 0.07900
C 	C 	0.27990 0.47480 0.72458 0.05100
C 	C 	0.23760 0.47780 0.73905 -0.11200
H 	H 	0.21060 0.50520 0.72960 0.08100
C 	C 	0.23380 0.44070 0.76785 0.05900
H 	H 	0.20410 0.44440 0.77800 0.00200
C 	C 	0.28420 0.50970 0.69293 0.10900
C 	C 	0.32570 0.54650 0.65206 0.10200
C 	C 	0.24570 0.54910 0.65055 0.10400
C 	C 	0.37190 0.55850 0.63677 0.05600
C 	C 	0.41450 0.54830 0.65141 -0.12000
H 	H 	0.41520 0.53190 0.67200 0.08200
C 	C 	0.45650 0.56220 0.63592 0.07700
H 	H 	0.48560 0.55510 0.64650 -0.01100
C 	C 	0.41680 0.59280 0.59278 0.07400
H 	H 	0.41730 0.60750 0.57200 -0.01000
C 	C 	0.37370 0.58110 0.60628 -0.11600
H 	H 	0.34510 0.58810 0.59510 0.08000
C 	C 	0.20030 0.56400 0.63445 0.05000
C 	C 	0.19940 0.59430 0.60500 -0.11700
H 	H 	0.22810 0.60510 0.59430 0.07800
C 	C 	0.15520 0.60880 0.59134 0.07000
H 	H 	0.15460 0.62960 0.57110 -0.01600
C 	C 	0.11570 0.56410 0.63388 0.06200
H 	H 	0.08650 0.55300 0.64410 -0.00900
C 	C 	0.15700 0.54830 0.64874 -0.11600
H 	H 	0.15640 0.52660 0.66890 0.07900
C 	C 	0.07190 0.62910 0.52159 0.07500
H 	H 	0.07740 0.69560 0.52390 -0.00900
C 	C 	0.08240 0.58720 0.49459 -0.12300
H 	H 	0.09460 0.62420 0.47850 0.08200
C 	C 	0.07500 0.49020 0.49124 0.06000
C 	C 	0.05520 0.44070 0.51468 -0.12800
H 	H 	0.04810 0.37470 0.51270 0.09400
C 	C 	0.04550 0.48760 0.54122 0.07400
H 	H 	0.03230 0.45270 0.55750 -0.01700
C 	C 	0.08960 0.43960 0.46339 0.09300
C 	C 	0.12820 0.43920 0.41972 0.10500
C 	C 	0.09480 0.30430 0.43686 0.08700
C 	C 	0.04600 0.06020 0.44913 0.08300
H 	H 	0.03140 0.02500 0.46480 -0.01000
C 	C 	0.06080 0.15170 0.45508 -0.13400
H 	H 	0.05710 0.17830 0.47450 0.09400
C 	C 	0.08120 0.20430 0.43222 0.05800
C 	C 	0.08820 0.15910 0.40510 -0.13200
H 	H 	0.10370 0.19190 0.38920 0.09800
C 	C 	0.07310 0.06760 0.40115 0.07900
H 	H 	0.07840 0.03780 0.38240 -0.00700
C 	C 	0.15330 0.49330 0.39526 0.07300
C 	C 	0.15380 0.59000 0.39558 -0.12200
H 	H 	0.13850 0.62420 0.41120 0.08400
C 	C 	0.17690 0.63850 0.37270 0.07400
H 	H 	0.17650 0.70640 0.37280 -0.00800
C 	C 	0.19840 0.50090 0.35050 0.09200
H 	H 	0.21450 0.46830 0.33480 -0.01900
C 	C 	0.17480 0.44720 0.37194 -0.13600
H 	H 	0.17350 0.37950 0.37040 0.08900
