data_crystal

_cell_length_a 19.60250
_cell_length_b 23.52740
_cell_length_c 25.92230
_cell_angle_alpha 90.00000
_cell_angle_beta  90.00000
_cell_angle_gamma 90.00000

_symmetry_space_group_name_	'P 1'
_symmetry_space_group_name_H-M	'P 1'

loop_
_symmetry_equiv_pos_as_xyz
  x,y,z

loop_
_atom_site_label
_atom_site_type_symbol
_atom_site_fract_x
_atom_site_fract_y
_atom_site_fract_z
_atom_site_charge
Ni	Ni	0.31620 0.33524 0.20028 1.07800
O 	O 	0.95578 0.31981 0.22792 -0.27300
O 	O 	0.91264 0.36338 0.29714 -0.41400
O 	O 	0.21078 0.32640 0.21488 -0.38200
O 	O 	0.26743 0.39625 0.25100 -0.35600
O 	O 	0.08408 0.51714 0.33438 -0.27300
C 	C 	0.75765 0.38041 0.60693 0.07800
H 	H 	0.77130 0.34190 0.60330 -0.00100
C 	C 	0.78994 0.42040 0.57724 -0.12000
H 	H 	0.82470 0.40930 0.55370 0.07200
C 	C 	0.77167 0.47712 0.58164 0.05400
C 	C 	0.71856 0.48933 0.61505 -0.12100
H 	H 	0.70280 0.52730 0.61860 0.08400
C 	C 	0.68881 0.44656 0.64296 0.08000
H 	H 	0.65220 0.45610 0.66530 0.00800
C 	C 	0.80991 0.52319 0.55507 0.08800
C 	C 	0.85011 0.51393 0.51165 -0.15300
H 	H 	0.85060 0.47750 0.49590 0.08400
C 	C 	0.88944 0.55750 0.49122 0.11700
C 	C 	0.88591 0.61023 0.51543 -0.15500
H 	H 	0.91170 0.64150 0.50280 0.08100
C 	C 	0.84396 0.61651 0.55844 0.08100
C 	C 	0.83971 0.67070 0.58831 0.05800
C 	C 	0.88967 0.71140 0.58899 -0.13000
H 	H 	0.92930 0.70680 0.56830 0.07000
C 	C 	0.88261 0.75924 0.61968 0.08000
H 	H 	0.91770 0.78710 0.61890 -0.00400
C 	C 	0.78123 0.72810 0.64936 0.07400
H 	H 	0.74210 0.73340 0.67040 -0.01200
C 	C 	0.78487 0.67994 0.62008 -0.12600
H 	H 	0.74920 0.65270 0.62170 0.08400
C 	C 	0.93782 0.54675 0.44826 -0.10600
C 	C 	0.95938 0.58953 0.41470 0.08100
H 	H 	0.94110 0.62670 0.41820 0.00600
C 	C 	0.00671 0.57880 0.37650 -0.22200
H 	H 	0.02020 0.60830 0.35360 0.12900
C 	C 	0.03429 0.52532 0.37167 0.25900
C 	C 	0.01469 0.48269 0.40476 -0.23100
H 	H 	0.03450 0.44600 0.40190 0.12000
C 	C 	0.96656 0.49327 0.44191 0.08700
H 	H 	0.95250 0.46320 0.46390 0.00200
C 	C 	0.08361 0.46515 0.30855 0.21200
C 	C 	0.02333 0.43650 0.29869 -0.14900
H 	H 	0.98110 0.45200 0.30980 0.09900
C 	C 	0.02470 0.38543 0.27268 -0.00400
C 	C 	0.08635 0.36432 0.25450 -0.05300
H 	H 	0.08730 0.32970 0.23560 0.07400
C 	C 	0.14627 0.39340 0.26378 0.00700
C 	C 	0.14536 0.44426 0.29154 -0.14400
H 	H 	0.18650 0.46410 0.29860 0.11200
C 	C 	0.95942 0.35351 0.26491 0.30700
C 	C 	0.21202 0.37107 0.24262 0.26500
N 	N 	0.70823 0.39229 0.64062 -0.22500
N 	N 	0.80604 0.57420 0.57758 -0.13300
N 	N 	0.82922 0.76792 0.65007 -0.24600
Ni	Ni	0.81620 0.83524 0.70028 1.07900
O 	O 	0.45578 0.81981 0.72792 -0.27200
O 	O 	0.41264 0.86338 0.79714 -0.41400
O 	O 	0.71078 0.82640 0.71488 -0.38200
O 	O 	0.76743 0.89625 0.75100 -0.35600
O 	O 	0.58408 0.01714 0.83438 -0.27300
C 	C 	0.25765 0.88041 0.10693 0.07800
H 	H 	0.27130 0.84190 0.10330 -0.00100
C 	C 	0.28994 0.92040 0.07724 -0.12000
H 	H 	0.32470 0.90930 0.05370 0.07300
C 	C 	0.27167 0.97712 0.08164 0.05400
C 	C 	0.21856 0.98933 0.11505 -0.12100
H 	H 	0.20280 0.02730 0.11860 0.08400
C 	C 	0.18881 0.94656 0.14296 0.08000
H 	H 	0.15220 0.95610 0.16530 0.00800
C 	C 	0.30991 0.02319 0.05507 0.08800
C 	C 	0.35011 0.01393 0.01165 -0.15300
H 	H 	0.35060 0.97750 0.99590 0.08400
C 	C 	0.38944 0.05750 0.99122 0.11700
C 	C 	0.38591 0.11023 0.01543 -0.15500
H 	H 	0.41170 0.14150 0.00280 0.08100
C 	C 	0.34396 0.11651 0.05844 0.08100
C 	C 	0.33971 0.17070 0.08831 0.05800
C 	C 	0.38967 0.21140 0.08899 -0.13000
H 	H 	0.42930 0.20680 0.06830 0.07000
C 	C 	0.38261 0.25924 0.11968 0.08000
H 	H 	0.41770 0.28710 0.11890 -0.00400
C 	C 	0.28123 0.22810 0.14936 0.07400
H 	H 	0.24210 0.23340 0.17040 -0.01200
C 	C 	0.28487 0.17994 0.12008 -0.12600
H 	H 	0.24920 0.15270 0.12170 0.08400
C 	C 	0.43782 0.04675 0.94826 -0.10600
C 	C 	0.45938 0.08953 0.91470 0.08100
H 	H 	0.44110 0.12670 0.91820 0.00600
C 	C 	0.50671 0.07880 0.87650 -0.22200
H 	H 	0.52020 0.10830 0.85360 0.12900
C 	C 	0.53429 0.02532 0.87167 0.25900
C 	C 	0.51469 0.98269 0.90476 -0.23100
H 	H 	0.53450 0.94600 0.90190 0.12000
C 	C 	0.46656 0.99327 0.94191 0.08700
H 	H 	0.45250 0.96320 0.96390 0.00200
C 	C 	0.58361 0.96515 0.80855 0.21200
C 	C 	0.52333 0.93650 0.79869 -0.14900
H 	H 	0.48110 0.95200 0.80980 0.09900
C 	C 	0.52470 0.88543 0.77268 -0.00400
C 	C 	0.58635 0.86432 0.75450 -0.05300
H 	H 	0.58730 0.82970 0.73560 0.07400
C 	C 	0.64627 0.89340 0.76378 0.00700
C 	C 	0.64536 0.94426 0.79154 -0.14400
H 	H 	0.68650 0.96410 0.79860 0.11200
C 	C 	0.45942 0.85351 0.76491 0.30700
C 	C 	0.71202 0.87107 0.74262 0.26500
N 	N 	0.20823 0.89229 0.14062 -0.22500
N 	N 	0.30604 0.07420 0.07758 -0.13300
N 	N 	0.32922 0.26792 0.15007 -0.24600
Ni	Ni	0.68380 0.83524 0.29972 1.07900
O 	O 	0.04422 0.81981 0.27208 -0.27200
O 	O 	0.08736 0.86338 0.20286 -0.41400
O 	O 	0.78922 0.82640 0.28512 -0.38200
O 	O 	0.73257 0.89625 0.24900 -0.35600
O 	O 	0.91592 0.01714 0.16562 -0.27300
C 	C 	0.24235 0.88041 0.89307 0.07800
H 	H 	0.22870 0.84190 0.89670 -0.00100
C 	C 	0.21006 0.92040 0.92276 -0.12000
H 	H 	0.17530 0.90930 0.94630 0.07300
C 	C 	0.22833 0.97712 0.91836 0.05400
C 	C 	0.28144 0.98933 0.88495 -0.12100
H 	H 	0.29720 0.02730 0.88140 0.08400
C 	C 	0.31119 0.94656 0.85704 0.08000
H 	H 	0.34780 0.95610 0.83470 0.00800
C 	C 	0.19009 0.02319 0.94493 0.08800
C 	C 	0.14989 0.01393 0.98835 -0.15400
H 	H 	0.14940 0.97750 0.00410 0.08400
C 	C 	0.11056 0.05750 0.00878 0.11700
C 	C 	0.11409 0.11023 0.98457 -0.15500
H 	H 	0.08830 0.14150 0.99720 0.08100
C 	C 	0.15604 0.11651 0.94156 0.08100
C 	C 	0.16029 0.17070 0.91169 0.05800
C 	C 	0.11033 0.21140 0.91101 -0.13000
H 	H 	0.07070 0.20680 0.93170 0.07000
C 	C 	0.11739 0.25924 0.88032 0.08000
H 	H 	0.08230 0.28710 0.88110 -0.00400
C 	C 	0.21877 0.22810 0.85064 0.07400
H 	H 	0.25790 0.23340 0.82960 -0.01200
C 	C 	0.21513 0.17994 0.87992 -0.12600
H 	H 	0.25080 0.15270 0.87830 0.08400
C 	C 	0.06218 0.04675 0.05174 -0.10600
C 	C 	0.04062 0.08953 0.08530 0.08100
H 	H 	0.05890 0.12670 0.08180 0.00600
C 	C 	0.99329 0.07880 0.12350 -0.22200
H 	H 	0.97980 0.10830 0.14640 0.12900
C 	C 	0.96571 0.02532 0.12833 0.25900
C 	C 	0.98531 0.98269 0.09524 -0.23100
H 	H 	0.96550 0.94600 0.09810 0.12000
C 	C 	0.03344 0.99327 0.05809 0.08700
H 	H 	0.04750 0.96320 0.03610 0.00200
C 	C 	0.91639 0.96515 0.19145 0.21200
C 	C 	0.97667 0.93650 0.20131 -0.14900
H 	H 	0.01890 0.95200 0.19020 0.09900
C 	C 	0.97530 0.88543 0.22732 -0.00400
C 	C 	0.91365 0.86432 0.24550 -0.05300
H 	H 	0.91270 0.82970 0.26440 0.07300
C 	C 	0.85373 0.89340 0.23622 0.00700
C 	C 	0.85464 0.94426 0.20846 -0.14400
H 	H 	0.81350 0.96410 0.20140 0.11200
C 	C 	0.04058 0.85351 0.23509 0.30700
C 	C 	0.78798 0.87107 0.25738 0.26500
N 	N 	0.29177 0.89229 0.85938 -0.22500
N 	N 	0.19396 0.07420 0.92242 -0.13300
N 	N 	0.17078 0.26792 0.84993 -0.24600
Ni	Ni	0.18380 0.33524 0.79972 1.07900
O 	O 	0.54422 0.31981 0.77208 -0.27200
O 	O 	0.58736 0.36338 0.70286 -0.41400
O 	O 	0.28922 0.32640 0.78512 -0.38200
O 	O 	0.23257 0.39625 0.74900 -0.35600
O 	O 	0.41592 0.51714 0.66562 -0.27300
C 	C 	0.74235 0.38041 0.39307 0.07800
H 	H 	0.72870 0.34190 0.39670 -0.00100
C 	C 	0.71006 0.42040 0.42276 -0.12000
H 	H 	0.67530 0.40930 0.44630 0.07200
C 	C 	0.72833 0.47712 0.41836 0.05400
C 	C 	0.78144 0.48933 0.38495 -0.12100
H 	H 	0.79720 0.52730 0.38140 0.08400
C 	C 	0.81119 0.44656 0.35704 0.08000
H 	H 	0.84780 0.45610 0.33470 0.00800
C 	C 	0.69009 0.52319 0.44493 0.08800
C 	C 	0.64989 0.51393 0.48835 -0.15300
H 	H 	0.64940 0.47750 0.50410 0.08400
C 	C 	0.61056 0.55750 0.50878 0.11700
C 	C 	0.61409 0.61023 0.48457 -0.15500
H 	H 	0.58830 0.64150 0.49720 0.08100
C 	C 	0.65604 0.61651 0.44156 0.08100
C 	C 	0.66029 0.67070 0.41169 0.05800
C 	C 	0.61033 0.71140 0.41101 -0.13000
H 	H 	0.57070 0.70680 0.43170 0.07000
C 	C 	0.61739 0.75924 0.38032 0.08000
H 	H 	0.58230 0.78710 0.38110 -0.00400
C 	C 	0.71877 0.72810 0.35064 0.07400
H 	H 	0.75790 0.73340 0.32960 -0.01200
C 	C 	0.71513 0.67994 0.37992 -0.12600
H 	H 	0.75080 0.65270 0.37830 0.08400
C 	C 	0.56218 0.54675 0.55174 -0.10600
C 	C 	0.54062 0.58953 0.58530 0.08100
H 	H 	0.55890 0.62670 0.58180 0.00600
C 	C 	0.49329 0.57880 0.62350 -0.22200
H 	H 	0.47980 0.60830 0.64640 0.12900
C 	C 	0.46571 0.52532 0.62833 0.25900
C 	C 	0.48531 0.48269 0.59524 -0.23100
H 	H 	0.46550 0.44600 0.59810 0.12000
C 	C 	0.53344 0.49327 0.55809 0.08700
H 	H 	0.54750 0.46320 0.53610 0.00200
C 	C 	0.41639 0.46515 0.69145 0.21200
C 	C 	0.47667 0.43650 0.70131 -0.14900
H 	H 	0.51890 0.45200 0.69020 0.09900
C 	C 	0.47530 0.38543 0.72732 -0.00400
C 	C 	0.41365 0.36432 0.74550 -0.05300
H 	H 	0.41270 0.32970 0.76440 0.07400
C 	C 	0.35373 0.39340 0.73622 0.00700
C 	C 	0.35464 0.44426 0.70846 -0.14400
H 	H 	0.31350 0.46410 0.70140 0.11200
C 	C 	0.54058 0.35351 0.73509 0.30700
C 	C 	0.28798 0.37107 0.75738 0.26500
N 	N 	0.79177 0.39229 0.35938 -0.22500
N 	N 	0.69396 0.57420 0.42242 -0.13300
N 	N 	0.67078 0.76792 0.34993 -0.24600
Ni	Ni	0.81620 0.33524 0.29972 1.07900
O 	O 	0.45578 0.31981 0.27208 -0.27200
O 	O 	0.41264 0.36338 0.20286 -0.41400
O 	O 	0.71078 0.32640 0.28512 -0.38200
O 	O 	0.76743 0.39625 0.24900 -0.35600
O 	O 	0.58408 0.51714 0.16562 -0.27300
C 	C 	0.25765 0.38041 0.89307 0.07800
H 	H 	0.27130 0.34190 0.89670 -0.00100
C 	C 	0.28994 0.42040 0.92276 -0.12000
H 	H 	0.32470 0.40930 0.94630 0.07300
C 	C 	0.27167 0.47712 0.91836 0.05400
C 	C 	0.21856 0.48933 0.88495 -0.12100
H 	H 	0.20280 0.52730 0.88140 0.08400
C 	C 	0.18881 0.44656 0.85704 0.08000
H 	H 	0.15220 0.45610 0.83470 0.00800
C 	C 	0.30991 0.52319 0.94493 0.08800
C 	C 	0.35011 0.51393 0.98835 -0.15300
H 	H 	0.35060 0.47750 0.00410 0.08400
C 	C 	0.38944 0.55750 0.00878 0.11700
C 	C 	0.38591 0.61023 0.98457 -0.15500
H 	H 	0.41170 0.64150 0.99720 0.08100
C 	C 	0.34396 0.61651 0.94156 0.08100
C 	C 	0.33971 0.67070 0.91169 0.05800
C 	C 	0.38967 0.71140 0.91101 -0.13000
H 	H 	0.42930 0.70680 0.93170 0.07000
C 	C 	0.38261 0.75924 0.88032 0.08000
H 	H 	0.41770 0.78710 0.88110 -0.00400
C 	C 	0.28123 0.72810 0.85064 0.07400
H 	H 	0.24210 0.73340 0.82960 -0.01200
C 	C 	0.28487 0.67994 0.87992 -0.12600
H 	H 	0.24920 0.65270 0.87830 0.08400
C 	C 	0.43782 0.54675 0.05174 -0.10600
C 	C 	0.45938 0.58953 0.08530 0.08100
H 	H 	0.44110 0.62670 0.08180 0.00600
C 	C 	0.50671 0.57880 0.12350 -0.22200
H 	H 	0.52020 0.60830 0.14640 0.12900
C 	C 	0.53429 0.52532 0.12833 0.25900
C 	C 	0.51469 0.48269 0.09524 -0.23100
H 	H 	0.53450 0.44600 0.09810 0.12000
C 	C 	0.46656 0.49327 0.05809 0.08700
H 	H 	0.45250 0.46320 0.03610 0.00200
C 	C 	0.58361 0.46515 0.19145 0.21200
C 	C 	0.52333 0.43650 0.20131 -0.14900
H 	H 	0.48110 0.45200 0.19020 0.09900
C 	C 	0.52470 0.38543 0.22732 -0.00400
C 	C 	0.58635 0.36432 0.24550 -0.05300
H 	H 	0.58730 0.32970 0.26440 0.07400
C 	C 	0.64627 0.39340 0.23622 0.00700
C 	C 	0.64536 0.44426 0.20846 -0.14400
H 	H 	0.68650 0.46410 0.20140 0.11200
C 	C 	0.45942 0.35351 0.23509 0.30700
C 	C 	0.71202 0.37107 0.25738 0.26500
N 	N 	0.20823 0.39229 0.85938 -0.22500
N 	N 	0.30604 0.57420 0.92242 -0.13300
N 	N 	0.32922 0.76792 0.84993 -0.24600
Ni	Ni	0.31620 0.83524 0.79972 1.07900
O 	O 	0.95578 0.81981 0.77208 -0.27200
O 	O 	0.91264 0.86338 0.70286 -0.41400
O 	O 	0.21078 0.82640 0.78512 -0.38200
O 	O 	0.26743 0.89625 0.74900 -0.35600
O 	O 	0.08408 0.01714 0.66562 -0.27300
C 	C 	0.75765 0.88041 0.39307 0.07800
H 	H 	0.77130 0.84190 0.39670 -0.00100
C 	C 	0.78994 0.92040 0.42276 -0.12000
H 	H 	0.82470 0.90930 0.44630 0.07200
C 	C 	0.77167 0.97712 0.41836 0.05400
C 	C 	0.71856 0.98933 0.38495 -0.12100
H 	H 	0.70280 0.02730 0.38140 0.08400
C 	C 	0.68881 0.94656 0.35704 0.08000
H 	H 	0.65220 0.95610 0.33470 0.00800
C 	C 	0.80991 0.02319 0.44493 0.08800
C 	C 	0.85011 0.01393 0.48835 -0.15300
H 	H 	0.85060 0.97750 0.50410 0.08400
C 	C 	0.88944 0.05750 0.50878 0.11700
C 	C 	0.88591 0.11023 0.48457 -0.15500
H 	H 	0.91170 0.14150 0.49720 0.08100
C 	C 	0.84396 0.11651 0.44156 0.08100
C 	C 	0.83971 0.17070 0.41169 0.05800
C 	C 	0.88967 0.21140 0.41101 -0.13000
H 	H 	0.92930 0.20680 0.43170 0.07000
C 	C 	0.88261 0.25924 0.38032 0.08000
H 	H 	0.91770 0.28710 0.38110 -0.00400
C 	C 	0.78123 0.22810 0.35064 0.07400
H 	H 	0.74210 0.23340 0.32960 -0.01200
C 	C 	0.78487 0.17994 0.37992 -0.12600
H 	H 	0.74920 0.15270 0.37830 0.08400
C 	C 	0.93782 0.04675 0.55174 -0.10600
C 	C 	0.95938 0.08953 0.58530 0.08100
H 	H 	0.94110 0.12670 0.58180 0.00600
C 	C 	0.00671 0.07880 0.62350 -0.22200
H 	H 	0.02020 0.10830 0.64640 0.12900
C 	C 	0.03429 0.02532 0.62833 0.25900
C 	C 	0.01469 0.98269 0.59524 -0.23100
H 	H 	0.03450 0.94600 0.59810 0.12000
C 	C 	0.96656 0.99327 0.55809 0.08700
H 	H 	0.95250 0.96320 0.53610 0.00200
C 	C 	0.08361 0.96515 0.69145 0.21200
C 	C 	0.02333 0.93650 0.70131 -0.14900
H 	H 	0.98110 0.95200 0.69020 0.09900
C 	C 	0.02470 0.88543 0.72732 -0.00400
C 	C 	0.08635 0.86432 0.74550 -0.05300
H 	H 	0.08730 0.82970 0.76440 0.07300
C 	C 	0.14627 0.89340 0.73622 0.00700
C 	C 	0.14536 0.94426 0.70846 -0.14400
H 	H 	0.18650 0.96410 0.70140 0.11200
C 	C 	0.95942 0.85351 0.73509 0.30700
C 	C 	0.21202 0.87107 0.75738 0.26500
N 	N 	0.70823 0.89229 0.35938 -0.22500
N 	N 	0.80604 0.07420 0.42242 -0.13300
N 	N 	0.82922 0.26792 0.34993 -0.24600
Ni	Ni	0.18380 0.83524 0.20028 1.07900
O 	O 	0.54422 0.81981 0.22792 -0.27200
O 	O 	0.58736 0.86338 0.29714 -0.41400
O 	O 	0.28922 0.82640 0.21488 -0.38200
O 	O 	0.23257 0.89625 0.25100 -0.35600
O 	O 	0.41592 0.01714 0.33438 -0.27300
C 	C 	0.74235 0.88041 0.60693 0.07800
H 	H 	0.72870 0.84190 0.60330 -0.00100
C 	C 	0.71006 0.92040 0.57724 -0.12000
H 	H 	0.67530 0.90930 0.55370 0.07200
C 	C 	0.72833 0.97712 0.58164 0.05400
C 	C 	0.78144 0.98933 0.61505 -0.12100
H 	H 	0.79720 0.02730 0.61860 0.08400
C 	C 	0.81119 0.94656 0.64296 0.08000
H 	H 	0.84780 0.95610 0.66530 0.00800
C 	C 	0.69009 0.02319 0.55507 0.08800
C 	C 	0.64989 0.01393 0.51165 -0.15300
H 	H 	0.64940 0.97750 0.49590 0.08400
C 	C 	0.61056 0.05750 0.49122 0.11700
C 	C 	0.61409 0.11023 0.51543 -0.15500
H 	H 	0.58830 0.14150 0.50280 0.08100
C 	C 	0.65604 0.11651 0.55844 0.08100
C 	C 	0.66029 0.17070 0.58831 0.05800
C 	C 	0.61033 0.21140 0.58899 -0.13000
H 	H 	0.57070 0.20680 0.56830 0.07000
C 	C 	0.61739 0.25924 0.61968 0.08000
H 	H 	0.58230 0.28710 0.61890 -0.00400
C 	C 	0.71877 0.22810 0.64936 0.07400
H 	H 	0.75790 0.23340 0.67040 -0.01200
C 	C 	0.71513 0.17994 0.62008 -0.12600
H 	H 	0.75080 0.15270 0.62170 0.08400
C 	C 	0.56218 0.04675 0.44826 -0.10600
C 	C 	0.54062 0.08953 0.41470 0.08100
H 	H 	0.55890 0.12670 0.41820 0.00600
C 	C 	0.49329 0.07880 0.37650 -0.22200
H 	H 	0.47980 0.10830 0.35360 0.12900
C 	C 	0.46571 0.02532 0.37167 0.25900
C 	C 	0.48531 0.98269 0.40476 -0.23100
H 	H 	0.46550 0.94600 0.40190 0.12000
C 	C 	0.53344 0.99327 0.44191 0.08700
H 	H 	0.54750 0.96320 0.46390 0.00200
C 	C 	0.41639 0.96515 0.30855 0.21200
C 	C 	0.47667 0.93650 0.29869 -0.14900
H 	H 	0.51890 0.95200 0.30980 0.09900
C 	C 	0.47530 0.88543 0.27268 -0.00400
C 	C 	0.41365 0.86432 0.25450 -0.05300
H 	H 	0.41270 0.82970 0.23560 0.07400
C 	C 	0.35373 0.89340 0.26378 0.00700
C 	C 	0.35464 0.94426 0.29154 -0.14400
H 	H 	0.31350 0.96410 0.29860 0.11200
C 	C 	0.54058 0.85351 0.26491 0.30700
C 	C 	0.28798 0.87107 0.24262 0.26500
N 	N 	0.79177 0.89229 0.64062 -0.22500
N 	N 	0.69396 0.07420 0.57758 -0.13300
N 	N 	0.67078 0.26792 0.65007 -0.24600
Ni	Ni	0.68380 0.33524 0.70028 1.07900
O 	O 	0.04422 0.31981 0.72792 -0.27200
O 	O 	0.08736 0.36338 0.79714 -0.41400
O 	O 	0.78922 0.32640 0.71488 -0.38200
O 	O 	0.73257 0.39625 0.75100 -0.35600
O 	O 	0.91592 0.51714 0.83438 -0.27300
C 	C 	0.24235 0.38041 0.10693 0.07800
H 	H 	0.22870 0.34190 0.10330 -0.00100
C 	C 	0.21006 0.42040 0.07724 -0.12000
H 	H 	0.17530 0.40930 0.05370 0.07300
C 	C 	0.22833 0.47712 0.08164 0.05400
C 	C 	0.28144 0.48933 0.11505 -0.12100
H 	H 	0.29720 0.52730 0.11860 0.08400
C 	C 	0.31119 0.44656 0.14296 0.08000
H 	H 	0.34780 0.45610 0.16530 0.00800
C 	C 	0.19009 0.52319 0.05507 0.08800
C 	C 	0.14989 0.51393 0.01165 -0.15300
H 	H 	0.14940 0.47750 0.99590 0.08400
C 	C 	0.11056 0.55750 0.99122 0.11700
C 	C 	0.11409 0.61023 0.01543 -0.15500
H 	H 	0.08830 0.64150 0.00280 0.08100
C 	C 	0.15604 0.61651 0.05844 0.08100
C 	C 	0.16029 0.67070 0.08831 0.05800
C 	C 	0.11033 0.71140 0.08899 -0.13000
H 	H 	0.07070 0.70680 0.06830 0.07000
C 	C 	0.11739 0.75924 0.11968 0.08000
H 	H 	0.08230 0.78710 0.11890 -0.00400
C 	C 	0.21877 0.72810 0.14936 0.07400
H 	H 	0.25790 0.73340 0.17040 -0.01200
C 	C 	0.21513 0.67994 0.12008 -0.12600
H 	H 	0.25080 0.65270 0.12170 0.08400
C 	C 	0.06218 0.54675 0.94826 -0.10600
C 	C 	0.04062 0.58953 0.91470 0.08100
H 	H 	0.05890 0.62670 0.91820 0.00600
C 	C 	0.99329 0.57880 0.87650 -0.22200
H 	H 	0.97980 0.60830 0.85360 0.12900
C 	C 	0.96571 0.52532 0.87167 0.25900
C 	C 	0.98531 0.48269 0.90476 -0.23100
H 	H 	0.96550 0.44600 0.90190 0.12000
C 	C 	0.03344 0.49327 0.94191 0.08700
H 	H 	0.04750 0.46320 0.96390 0.00200
C 	C 	0.91639 0.46515 0.80855 0.21200
C 	C 	0.97667 0.43650 0.79869 -0.14900
H 	H 	0.01890 0.45200 0.80980 0.09900
C 	C 	0.97530 0.38543 0.77268 -0.00400
C 	C 	0.91365 0.36432 0.75450 -0.05300
H 	H 	0.91270 0.32970 0.73560 0.07400
C 	C 	0.85373 0.39340 0.76378 0.00700
C 	C 	0.85464 0.44426 0.79154 -0.14400
H 	H 	0.81350 0.46410 0.79860 0.11200
C 	C 	0.04058 0.35351 0.76491 0.30700
C 	C 	0.78798 0.37107 0.74262 0.26500
N 	N 	0.29177 0.39229 0.14062 -0.22500
N 	N 	0.19396 0.57420 0.07758 -0.13300
N 	N 	0.17078 0.76792 0.15007 -0.24600
Ni	Ni	0.18380 0.66476 0.70028 1.07900
O 	O 	0.54422 0.68019 0.72792 -0.27200
O 	O 	0.58736 0.63662 0.79714 -0.41400
O 	O 	0.28922 0.67360 0.71488 -0.38200
O 	O 	0.23257 0.60375 0.75100 -0.35600
O 	O 	0.41592 0.48286 0.83438 -0.27300
C 	C 	0.74235 0.61959 0.10693 0.07800
H 	H 	0.72870 0.65810 0.10330 -0.00100
C 	C 	0.71006 0.57960 0.07724 -0.12000
H 	H 	0.67530 0.59070 0.05370 0.07300
C 	C 	0.72833 0.52288 0.08164 0.05400
C 	C 	0.78144 0.51067 0.11505 -0.12100
H 	H 	0.79720 0.47270 0.11860 0.08400
C 	C 	0.81119 0.55344 0.14296 0.08000
H 	H 	0.84780 0.54390 0.16530 0.00800
C 	C 	0.69009 0.47681 0.05507 0.08800
C 	C 	0.64989 0.48607 0.01165 -0.15300
H 	H 	0.64940 0.52250 0.99590 0.08400
C 	C 	0.61056 0.44250 0.99122 0.11700
C 	C 	0.61409 0.38977 0.01543 -0.15500
H 	H 	0.58830 0.35850 0.00280 0.08100
C 	C 	0.65604 0.38349 0.05844 0.08100
C 	C 	0.66029 0.32930 0.08831 0.05800
C 	C 	0.61033 0.28860 0.08899 -0.13000
H 	H 	0.57070 0.29320 0.06830 0.07000
C 	C 	0.61739 0.24076 0.11968 0.08000
H 	H 	0.58230 0.21290 0.11890 -0.00400
C 	C 	0.71877 0.27190 0.14936 0.07400
H 	H 	0.75790 0.26660 0.17040 -0.01200
C 	C 	0.71513 0.32006 0.12008 -0.12600
H 	H 	0.75080 0.34730 0.12170 0.08400
C 	C 	0.56218 0.45325 0.94826 -0.10600
C 	C 	0.54062 0.41047 0.91470 0.08100
H 	H 	0.55890 0.37330 0.91820 0.00600
C 	C 	0.49329 0.42120 0.87650 -0.22200
H 	H 	0.47980 0.39170 0.85360 0.12900
C 	C 	0.46571 0.47468 0.87167 0.25900
C 	C 	0.48531 0.51731 0.90476 -0.23100
H 	H 	0.46550 0.55400 0.90190 0.12000
C 	C 	0.53344 0.50673 0.94191 0.08700
H 	H 	0.54750 0.53680 0.96390 0.00200
C 	C 	0.41639 0.53485 0.80855 0.21200
C 	C 	0.47667 0.56350 0.79869 -0.14900
H 	H 	0.51890 0.54800 0.80980 0.09900
C 	C 	0.47530 0.61457 0.77268 -0.00400
C 	C 	0.41365 0.63568 0.75450 -0.05300
H 	H 	0.41270 0.67030 0.73560 0.07400
C 	C 	0.35373 0.60660 0.76378 0.00700
C 	C 	0.35464 0.55574 0.79154 -0.14400
H 	H 	0.31350 0.53590 0.79860 0.11200
C 	C 	0.54058 0.64649 0.76491 0.30700
C 	C 	0.28798 0.62893 0.74262 0.26500
N 	N 	0.79177 0.60771 0.14062 -0.22500
N 	N 	0.69396 0.42580 0.07758 -0.13300
N 	N 	0.67078 0.23208 0.15007 -0.24600
Ni	Ni	0.68380 0.16476 0.20028 1.07900
O 	O 	0.04422 0.18019 0.22792 -0.27200
O 	O 	0.08736 0.13662 0.29714 -0.41400
O 	O 	0.78922 0.17360 0.21488 -0.38200
O 	O 	0.73257 0.10375 0.25100 -0.35600
O 	O 	0.91592 0.98286 0.33438 -0.27300
C 	C 	0.24235 0.11959 0.60693 0.07800
H 	H 	0.22870 0.15810 0.60330 -0.00100
C 	C 	0.21006 0.07960 0.57724 -0.12000
H 	H 	0.17530 0.09070 0.55370 0.07200
C 	C 	0.22833 0.02288 0.58164 0.05400
C 	C 	0.28144 0.01067 0.61505 -0.12100
H 	H 	0.29720 0.97270 0.61860 0.08400
C 	C 	0.31119 0.05344 0.64296 0.08000
H 	H 	0.34780 0.04390 0.66530 0.00800
C 	C 	0.19009 0.97681 0.55507 0.08800
C 	C 	0.14989 0.98607 0.51165 -0.15300
H 	H 	0.14940 0.02250 0.49590 0.08400
C 	C 	0.11056 0.94250 0.49122 0.11700
C 	C 	0.11409 0.88977 0.51543 -0.15500
H 	H 	0.08830 0.85850 0.50280 0.08100
C 	C 	0.15604 0.88349 0.55844 0.08100
C 	C 	0.16029 0.82930 0.58831 0.05800
C 	C 	0.11033 0.78860 0.58899 -0.13000
H 	H 	0.07070 0.79320 0.56830 0.07000
C 	C 	0.11739 0.74076 0.61968 0.08000
H 	H 	0.08230 0.71290 0.61890 -0.00400
C 	C 	0.21877 0.77190 0.64936 0.07400
H 	H 	0.25790 0.76660 0.67040 -0.01200
C 	C 	0.21513 0.82006 0.62008 -0.12600
H 	H 	0.25080 0.84730 0.62170 0.08400
C 	C 	0.06218 0.95325 0.44826 -0.10600
C 	C 	0.04062 0.91047 0.41470 0.08100
H 	H 	0.05890 0.87330 0.41820 0.00600
C 	C 	0.99329 0.92120 0.37650 -0.22200
H 	H 	0.97980 0.89170 0.35360 0.12900
C 	C 	0.96571 0.97468 0.37167 0.25900
C 	C 	0.98531 0.01731 0.40476 -0.23100
H 	H 	0.96550 0.05400 0.40190 0.12000
C 	C 	0.03344 0.00673 0.44191 0.08700
H 	H 	0.04750 0.03680 0.46390 0.00200
C 	C 	0.91639 0.03485 0.30855 0.21200
C 	C 	0.97667 0.06350 0.29869 -0.14900
H 	H 	0.01890 0.04800 0.30980 0.09900
C 	C 	0.97530 0.11457 0.27268 -0.00400
C 	C 	0.91365 0.13568 0.25450 -0.05300
H 	H 	0.91270 0.17030 0.23560 0.07300
C 	C 	0.85373 0.10660 0.26378 0.00700
C 	C 	0.85464 0.05574 0.29154 -0.14400
H 	H 	0.81350 0.03590 0.29860 0.11200
C 	C 	0.04058 0.14649 0.26491 0.30700
C 	C 	0.78798 0.12893 0.24262 0.26500
N 	N 	0.29177 0.10771 0.64062 -0.22500
N 	N 	0.19396 0.92580 0.57758 -0.13300
N 	N 	0.17078 0.73208 0.65007 -0.24600
Ni	Ni	0.81620 0.16476 0.79972 1.07900
O 	O 	0.45578 0.18019 0.77208 -0.27200
O 	O 	0.41264 0.13662 0.70286 -0.41400
O 	O 	0.71078 0.17360 0.78512 -0.38200
O 	O 	0.76743 0.10375 0.74900 -0.35600
O 	O 	0.58408 0.98286 0.66562 -0.27300
C 	C 	0.25765 0.11959 0.39307 0.07800
H 	H 	0.27130 0.15810 0.39670 -0.00100
C 	C 	0.28994 0.07960 0.42276 -0.12000
H 	H 	0.32470 0.09070 0.44630 0.07200
C 	C 	0.27167 0.02288 0.41836 0.05400
C 	C 	0.21856 0.01067 0.38495 -0.12100
H 	H 	0.20280 0.97270 0.38140 0.08400
C 	C 	0.18881 0.05344 0.35704 0.08000
H 	H 	0.15220 0.04390 0.33470 0.00800
C 	C 	0.30991 0.97681 0.44493 0.08800
C 	C 	0.35011 0.98607 0.48835 -0.15300
H 	H 	0.35060 0.02250 0.50410 0.08400
C 	C 	0.38944 0.94250 0.50878 0.11700
C 	C 	0.38591 0.88977 0.48457 -0.15500
H 	H 	0.41170 0.85850 0.49720 0.08100
C 	C 	0.34396 0.88349 0.44156 0.08100
C 	C 	0.33971 0.82930 0.41169 0.05800
C 	C 	0.38967 0.78860 0.41101 -0.13000
H 	H 	0.42930 0.79320 0.43170 0.07000
C 	C 	0.38261 0.74076 0.38032 0.08000
H 	H 	0.41770 0.71290 0.38110 -0.00400
C 	C 	0.28123 0.77190 0.35064 0.07400
H 	H 	0.24210 0.76660 0.32960 -0.01200
C 	C 	0.28487 0.82006 0.37992 -0.12600
H 	H 	0.24920 0.84730 0.37830 0.08400
C 	C 	0.43782 0.95325 0.55174 -0.10600
C 	C 	0.45938 0.91047 0.58530 0.08100
H 	H 	0.44110 0.87330 0.58180 0.00600
C 	C 	0.50671 0.92120 0.62350 -0.22200
H 	H 	0.52020 0.89170 0.64640 0.12900
C 	C 	0.53429 0.97468 0.62833 0.25900
C 	C 	0.51469 0.01731 0.59524 -0.23100
H 	H 	0.53450 0.05400 0.59810 0.12000
C 	C 	0.46656 0.00673 0.55809 0.08700
H 	H 	0.45250 0.03680 0.53610 0.00200
C 	C 	0.58361 0.03485 0.69145 0.21200
C 	C 	0.52333 0.06350 0.70131 -0.14900
H 	H 	0.48110 0.04800 0.69020 0.09900
C 	C 	0.52470 0.11457 0.72732 -0.00400
C 	C 	0.58635 0.13568 0.74550 -0.05300
H 	H 	0.58730 0.17030 0.76440 0.07400
C 	C 	0.64627 0.10660 0.73622 0.00700
C 	C 	0.64536 0.05574 0.70846 -0.14400
H 	H 	0.68650 0.03590 0.70140 0.11200
C 	C 	0.45942 0.14649 0.73509 0.30700
C 	C 	0.71202 0.12893 0.75738 0.26500
N 	N 	0.20823 0.10771 0.35938 -0.22500
N 	N 	0.30604 0.92580 0.42242 -0.13300
N 	N 	0.32922 0.73208 0.34993 -0.24600
Ni	Ni	0.31620 0.66476 0.29972 1.07900
O 	O 	0.95578 0.68019 0.27208 -0.27200
O 	O 	0.91264 0.63662 0.20286 -0.41400
O 	O 	0.21078 0.67360 0.28512 -0.38200
O 	O 	0.26743 0.60375 0.24900 -0.35600
O 	O 	0.08408 0.48286 0.16562 -0.27300
C 	C 	0.75765 0.61959 0.89307 0.07800
H 	H 	0.77130 0.65810 0.89670 -0.00100
C 	C 	0.78994 0.57960 0.92276 -0.12000
H 	H 	0.82470 0.59070 0.94630 0.07300
C 	C 	0.77167 0.52288 0.91836 0.05400
C 	C 	0.71856 0.51067 0.88495 -0.12100
H 	H 	0.70280 0.47270 0.88140 0.08400
C 	C 	0.68881 0.55344 0.85704 0.08000
H 	H 	0.65220 0.54390 0.83470 0.00800
C 	C 	0.80991 0.47681 0.94493 0.08800
C 	C 	0.85011 0.48607 0.98835 -0.15300
H 	H 	0.85060 0.52250 0.00410 0.08400
C 	C 	0.88944 0.44250 0.00878 0.11700
C 	C 	0.88591 0.38977 0.98457 -0.15500
H 	H 	0.91170 0.35850 0.99720 0.08100
C 	C 	0.84396 0.38349 0.94156 0.08100
C 	C 	0.83971 0.32930 0.91169 0.05800
C 	C 	0.88967 0.28860 0.91101 -0.13000
H 	H 	0.92930 0.29320 0.93170 0.07000
C 	C 	0.88261 0.24076 0.88032 0.08000
H 	H 	0.91770 0.21290 0.88110 -0.00400
C 	C 	0.78123 0.27190 0.85064 0.07400
H 	H 	0.74210 0.26660 0.82960 -0.01200
C 	C 	0.78487 0.32006 0.87992 -0.12600
H 	H 	0.74920 0.34730 0.87830 0.08400
C 	C 	0.93782 0.45325 0.05174 -0.10600
C 	C 	0.95938 0.41047 0.08530 0.08100
H 	H 	0.94110 0.37330 0.08180 0.00600
C 	C 	0.00671 0.42120 0.12350 -0.22200
H 	H 	0.02020 0.39170 0.14640 0.12900
C 	C 	0.03429 0.47468 0.12833 0.25900
C 	C 	0.01469 0.51731 0.09524 -0.23100
H 	H 	0.03450 0.55400 0.09810 0.12000
C 	C 	0.96656 0.50673 0.05809 0.08700
H 	H 	0.95250 0.53680 0.03610 0.00200
C 	C 	0.08361 0.53485 0.19145 0.21200
C 	C 	0.02333 0.56350 0.20131 -0.14900
H 	H 	0.98110 0.54800 0.19020 0.09900
C 	C 	0.02470 0.61457 0.22732 -0.00400
C 	C 	0.08635 0.63568 0.24550 -0.05300
H 	H 	0.08730 0.67030 0.26440 0.07400
C 	C 	0.14627 0.60660 0.23622 0.00700
C 	C 	0.14536 0.55574 0.20846 -0.14400
H 	H 	0.18650 0.53590 0.20140 0.11200
C 	C 	0.95942 0.64649 0.23509 0.30700
C 	C 	0.21202 0.62893 0.25738 0.26500
N 	N 	0.70823 0.60771 0.85938 -0.22500
N 	N 	0.80604 0.42580 0.92242 -0.13300
N 	N 	0.82922 0.23208 0.84993 -0.24600
Ni	Ni	0.68380 0.66476 0.79972 1.07900
O 	O 	0.04422 0.68019 0.77208 -0.27200
O 	O 	0.08736 0.63662 0.70286 -0.41400
O 	O 	0.78922 0.67360 0.78512 -0.38200
O 	O 	0.73257 0.60375 0.74900 -0.35600
O 	O 	0.91592 0.48286 0.66562 -0.27300
C 	C 	0.24235 0.61959 0.39307 0.07800
H 	H 	0.22870 0.65810 0.39670 -0.00100
C 	C 	0.21006 0.57960 0.42276 -0.12000
H 	H 	0.17530 0.59070 0.44630 0.07200
C 	C 	0.22833 0.52288 0.41836 0.05400
C 	C 	0.28144 0.51067 0.38495 -0.12100
H 	H 	0.29720 0.47270 0.38140 0.08400
C 	C 	0.31119 0.55344 0.35704 0.08000
H 	H 	0.34780 0.54390 0.33470 0.00800
C 	C 	0.19009 0.47681 0.44493 0.08800
C 	C 	0.14989 0.48607 0.48835 -0.15300
H 	H 	0.14940 0.52250 0.50410 0.08400
C 	C 	0.11056 0.44250 0.50878 0.11700
C 	C 	0.11409 0.38977 0.48457 -0.15500
H 	H 	0.08830 0.35850 0.49720 0.08100
C 	C 	0.15604 0.38349 0.44156 0.08100
C 	C 	0.16029 0.32930 0.41169 0.05800
C 	C 	0.11033 0.28860 0.41101 -0.13000
H 	H 	0.07070 0.29320 0.43170 0.07000
C 	C 	0.11739 0.24076 0.38032 0.08000
H 	H 	0.08230 0.21290 0.38110 -0.00400
C 	C 	0.21877 0.27190 0.35064 0.07400
H 	H 	0.25790 0.26660 0.32960 -0.01200
C 	C 	0.21513 0.32006 0.37992 -0.12600
H 	H 	0.25080 0.34730 0.37830 0.08400
C 	C 	0.06218 0.45325 0.55174 -0.10600
C 	C 	0.04062 0.41047 0.58530 0.08100
H 	H 	0.05890 0.37330 0.58180 0.00600
C 	C 	0.99329 0.42120 0.62350 -0.22200
H 	H 	0.97980 0.39170 0.64640 0.12900
C 	C 	0.96571 0.47468 0.62833 0.25900
C 	C 	0.98531 0.51731 0.59524 -0.23100
H 	H 	0.96550 0.55400 0.59810 0.12000
C 	C 	0.03344 0.50673 0.55809 0.08700
H 	H 	0.04750 0.53680 0.53610 0.00200
C 	C 	0.91639 0.53485 0.69145 0.21200
C 	C 	0.97667 0.56350 0.70131 -0.14900
H 	H 	0.01890 0.54800 0.69020 0.09900
C 	C 	0.97530 0.61457 0.72732 -0.00400
C 	C 	0.91365 0.63568 0.74550 -0.05300
H 	H 	0.91270 0.67030 0.76440 0.07400
C 	C 	0.85373 0.60660 0.73622 0.00700
C 	C 	0.85464 0.55574 0.70846 -0.14400
H 	H 	0.81350 0.53590 0.70140 0.11200
C 	C 	0.04058 0.64649 0.73509 0.30700
C 	C 	0.78798 0.62893 0.75738 0.26500
N 	N 	0.29177 0.60771 0.35938 -0.22500
N 	N 	0.19396 0.42580 0.42242 -0.13300
N 	N 	0.17078 0.23208 0.34993 -0.24600
Ni	Ni	0.18380 0.16476 0.29972 1.07900
O 	O 	0.54422 0.18019 0.27208 -0.27200
O 	O 	0.58736 0.13662 0.20286 -0.41400
O 	O 	0.28922 0.17360 0.28512 -0.38200
O 	O 	0.23257 0.10375 0.24900 -0.35600
O 	O 	0.41592 0.98286 0.16562 -0.27300
C 	C 	0.74235 0.11959 0.89307 0.07800
H 	H 	0.72870 0.15810 0.89670 -0.00100
C 	C 	0.71006 0.07960 0.92276 -0.12000
H 	H 	0.67530 0.09070 0.94630 0.07300
C 	C 	0.72833 0.02288 0.91836 0.05400
C 	C 	0.78144 0.01067 0.88495 -0.12100
H 	H 	0.79720 0.97270 0.88140 0.08400
C 	C 	0.81119 0.05344 0.85704 0.08000
H 	H 	0.84780 0.04390 0.83470 0.00800
C 	C 	0.69009 0.97681 0.94493 0.08800
C 	C 	0.64989 0.98607 0.98835 -0.15300
H 	H 	0.64940 0.02250 0.00410 0.08400
C 	C 	0.61056 0.94250 0.00878 0.11700
C 	C 	0.61409 0.88977 0.98457 -0.15500
H 	H 	0.58830 0.85850 0.99720 0.08100
C 	C 	0.65604 0.88349 0.94156 0.08100
C 	C 	0.66029 0.82930 0.91169 0.05800
C 	C 	0.61033 0.78860 0.91101 -0.13000
H 	H 	0.57070 0.79320 0.93170 0.07000
C 	C 	0.61739 0.74076 0.88032 0.08000
H 	H 	0.58230 0.71290 0.88110 -0.00400
C 	C 	0.71877 0.77190 0.85064 0.07400
H 	H 	0.75790 0.76660 0.82960 -0.01200
C 	C 	0.71513 0.82006 0.87992 -0.12600
H 	H 	0.75080 0.84730 0.87830 0.08400
C 	C 	0.56218 0.95325 0.05174 -0.10600
C 	C 	0.54062 0.91047 0.08530 0.08100
H 	H 	0.55890 0.87330 0.08180 0.00600
C 	C 	0.49329 0.92120 0.12350 -0.22200
H 	H 	0.47980 0.89170 0.14640 0.12900
C 	C 	0.46571 0.97468 0.12833 0.25900
C 	C 	0.48531 0.01731 0.09524 -0.23100
H 	H 	0.46550 0.05400 0.09810 0.12000
C 	C 	0.53344 0.00673 0.05809 0.08700
H 	H 	0.54750 0.03680 0.03610 0.00200
C 	C 	0.41639 0.03485 0.19145 0.21200
C 	C 	0.47667 0.06350 0.20131 -0.14900
H 	H 	0.51890 0.04800 0.19020 0.09900
C 	C 	0.47530 0.11457 0.22732 -0.00400
C 	C 	0.41365 0.13568 0.24550 -0.05300
H 	H 	0.41270 0.17030 0.26440 0.07400
C 	C 	0.35373 0.10660 0.23622 0.00700
C 	C 	0.35464 0.05574 0.20846 -0.14400
H 	H 	0.31350 0.03590 0.20140 0.11200
C 	C 	0.54058 0.14649 0.23509 0.30700
C 	C 	0.28798 0.12893 0.25738 0.26500
N 	N 	0.79177 0.10771 0.85938 -0.22500
N 	N 	0.69396 0.92580 0.92242 -0.13300
N 	N 	0.67078 0.73208 0.84993 -0.24600
Ni	Ni	0.31620 0.16476 0.70028 1.07900
O 	O 	0.95578 0.18019 0.72792 -0.27200
O 	O 	0.91264 0.13662 0.79714 -0.41400
O 	O 	0.21078 0.17360 0.71488 -0.38200
O 	O 	0.26743 0.10375 0.75100 -0.35600
O 	O 	0.08408 0.98286 0.83438 -0.27300
C 	C 	0.75765 0.11959 0.10693 0.07800
H 	H 	0.77130 0.15810 0.10330 -0.00100
C 	C 	0.78994 0.07960 0.07724 -0.12000
H 	H 	0.82470 0.09070 0.05370 0.07300
C 	C 	0.77167 0.02288 0.08164 0.05400
C 	C 	0.71856 0.01067 0.11505 -0.12100
H 	H 	0.70280 0.97270 0.11860 0.08400
C 	C 	0.68881 0.05344 0.14296 0.08000
H 	H 	0.65220 0.04390 0.16530 0.00800
C 	C 	0.80991 0.97681 0.05507 0.08800
C 	C 	0.85011 0.98607 0.01165 -0.15400
H 	H 	0.85060 0.02250 0.99590 0.08400
C 	C 	0.88944 0.94250 0.99122 0.11700
C 	C 	0.88591 0.88977 0.01543 -0.15500
H 	H 	0.91170 0.85850 0.00280 0.08100
C 	C 	0.84396 0.88349 0.05844 0.08100
C 	C 	0.83971 0.82930 0.08831 0.05800
C 	C 	0.88967 0.78860 0.08899 -0.13000
H 	H 	0.92930 0.79320 0.06830 0.07000
C 	C 	0.88261 0.74076 0.11968 0.08000
H 	H 	0.91770 0.71290 0.11890 -0.00400
C 	C 	0.78123 0.77190 0.14936 0.07400
H 	H 	0.74210 0.76660 0.17040 -0.01200
C 	C 	0.78487 0.82006 0.12008 -0.12600
H 	H 	0.74920 0.84730 0.12170 0.08400
C 	C 	0.93782 0.95325 0.94826 -0.10600
C 	C 	0.95938 0.91047 0.91470 0.08100
H 	H 	0.94110 0.87330 0.91820 0.00600
C 	C 	0.00671 0.92120 0.87650 -0.22200
H 	H 	0.02020 0.89170 0.85360 0.12900
C 	C 	0.03429 0.97468 0.87167 0.25900
C 	C 	0.01469 0.01731 0.90476 -0.23100
H 	H 	0.03450 0.05400 0.90190 0.12000
C 	C 	0.96656 0.00673 0.94191 0.08700
H 	H 	0.95250 0.03680 0.96390 0.00200
C 	C 	0.08361 0.03485 0.80855 0.21200
C 	C 	0.02333 0.06350 0.79869 -0.14900
H 	H 	0.98110 0.04800 0.80980 0.09900
C 	C 	0.02470 0.11457 0.77268 -0.00400
C 	C 	0.08635 0.13568 0.75450 -0.05300
H 	H 	0.08730 0.17030 0.73560 0.07300
C 	C 	0.14627 0.10660 0.76378 0.00700
C 	C 	0.14536 0.05574 0.79154 -0.14400
H 	H 	0.18650 0.03590 0.79860 0.11200
C 	C 	0.95942 0.14649 0.76491 0.30700
C 	C 	0.21202 0.12893 0.74262 0.26500
N 	N 	0.70823 0.10771 0.14062 -0.22500
N 	N 	0.80604 0.92580 0.07758 -0.13300
N 	N 	0.82922 0.73208 0.15007 -0.24600
Ni	Ni	0.81620 0.66476 0.20028 1.07900
O 	O 	0.45578 0.68019 0.22792 -0.27200
O 	O 	0.41264 0.63662 0.29714 -0.41400
O 	O 	0.71078 0.67360 0.21488 -0.38200
O 	O 	0.76743 0.60375 0.25100 -0.35600
O 	O 	0.58408 0.48286 0.33438 -0.27300
C 	C 	0.25765 0.61959 0.60693 0.07800
H 	H 	0.27130 0.65810 0.60330 -0.00100
C 	C 	0.28994 0.57960 0.57724 -0.12000
H 	H 	0.32470 0.59070 0.55370 0.07200
C 	C 	0.27167 0.52288 0.58164 0.05400
C 	C 	0.21856 0.51067 0.61505 -0.12100
H 	H 	0.20280 0.47270 0.61860 0.08400
C 	C 	0.18881 0.55344 0.64296 0.08000
H 	H 	0.15220 0.54390 0.66530 0.00800
C 	C 	0.30991 0.47681 0.55507 0.08800
C 	C 	0.35011 0.48607 0.51165 -0.15300
H 	H 	0.35060 0.52250 0.49590 0.08400
C 	C 	0.38944 0.44250 0.49122 0.11700
C 	C 	0.38591 0.38977 0.51543 -0.15500
H 	H 	0.41170 0.35850 0.50280 0.08100
C 	C 	0.34396 0.38349 0.55844 0.08100
C 	C 	0.33971 0.32930 0.58831 0.05800
C 	C 	0.38967 0.28860 0.58899 -0.13000
H 	H 	0.42930 0.29320 0.56830 0.07000
C 	C 	0.38261 0.24076 0.61968 0.08000
H 	H 	0.41770 0.21290 0.61890 -0.00400
C 	C 	0.28123 0.27190 0.64936 0.07400
H 	H 	0.24210 0.26660 0.67040 -0.01200
C 	C 	0.28487 0.32006 0.62008 -0.12600
H 	H 	0.24920 0.34730 0.62170 0.08400
C 	C 	0.43782 0.45325 0.44826 -0.10600
C 	C 	0.45938 0.41047 0.41470 0.08100
H 	H 	0.44110 0.37330 0.41820 0.00600
C 	C 	0.50671 0.42120 0.37650 -0.22200
H 	H 	0.52020 0.39170 0.35360 0.12900
C 	C 	0.53429 0.47468 0.37167 0.25900
C 	C 	0.51469 0.51731 0.40476 -0.23100
H 	H 	0.53450 0.55400 0.40190 0.12000
C 	C 	0.46656 0.50673 0.44191 0.08700
H 	H 	0.45250 0.53680 0.46390 0.00200
C 	C 	0.58361 0.53485 0.30855 0.21200
C 	C 	0.52333 0.56350 0.29869 -0.14900
H 	H 	0.48110 0.54800 0.30980 0.09900
C 	C 	0.52470 0.61457 0.27268 -0.00400
C 	C 	0.58635 0.63568 0.25450 -0.05300
H 	H 	0.58730 0.67030 0.23560 0.07400
C 	C 	0.64627 0.60660 0.26378 0.00700
C 	C 	0.64536 0.55574 0.29154 -0.14400
H 	H 	0.68650 0.53590 0.29860 0.11200
C 	C 	0.45942 0.64649 0.26491 0.30700
C 	C 	0.71202 0.62893 0.24262 0.26500
N 	N 	0.20823 0.60771 0.64062 -0.22500
N 	N 	0.30604 0.42580 0.57758 -0.13300
N 	N 	0.32922 0.23208 0.65007 -0.24600
