data_crystal

_cell_length_a 19.98180
_cell_length_b 19.98180
_cell_length_c 19.98180
_cell_angle_alpha 90.00000
_cell_angle_beta  90.00000
_cell_angle_gamma 90.00000

_symmetry_space_group_name_	'P 1'
_symmetry_space_group_name_H-M	'P 1'

loop_
_symmetry_equiv_pos_as_xyz
  x,y,z

loop_
_atom_site_label
_atom_site_type_symbol
_atom_site_fract_x
_atom_site_fract_y
_atom_site_fract_z
_atom_site_charge
La	La	0.74739 0.15339 0.00707 1.49600
O 	O 	0.64430 0.20980 0.04670 -0.45400
O 	O 	0.58580 0.29810 0.08090 -0.43600
O 	O 	0.84370 0.21470 0.95860 -0.45200
O 	O 	0.88910 0.30170 0.90610 -0.42500
N 	N 	0.74240 0.28260 0.99940 -0.18400
C 	C 	0.63480 0.27340 0.05300 0.33200
C 	C 	0.68820 0.31750 0.02470 -0.07400
C 	C 	0.68650 0.38600 0.02700 -0.02200
H 	H 	0.65080 0.40790 0.04730 0.01900
C 	C 	0.73710 0.42140 0.99930 -0.05300
H 	H 	0.73570 0.46790 0.00030 0.01600
C 	C 	0.79170 0.38900 0.96910 -0.03200
H 	H 	0.82570 0.41260 0.94790 0.01900
C 	C 	0.79160 0.31930 0.97300 -0.06200
C 	C 	0.84550 0.27730 0.94410 0.31500
La	La	0.75261 0.84661 0.50707 1.49600
O 	O 	0.85570 0.79020 0.54670 -0.45400
O 	O 	0.91420 0.70190 0.58090 -0.43600
O 	O 	0.65630 0.78530 0.45860 -0.45200
O 	O 	0.61090 0.69830 0.40610 -0.42500
N 	N 	0.75760 0.71740 0.49940 -0.18400
C 	C 	0.86520 0.72660 0.55300 0.33200
C 	C 	0.81180 0.68250 0.52470 -0.07600
C 	C 	0.81350 0.61400 0.52700 -0.01800
H 	H 	0.84920 0.59210 0.54730 0.01700
C 	C 	0.76290 0.57860 0.49930 -0.05900
H 	H 	0.76430 0.53210 0.50030 0.01800
C 	C 	0.70830 0.61100 0.46910 -0.02900
H 	H 	0.67430 0.58740 0.44790 0.01800
C 	C 	0.70840 0.68070 0.47300 -0.06400
C 	C 	0.65450 0.72270 0.44410 0.31500
La	La	0.25261 0.65339 0.49293 1.49500
O 	O 	0.35570 0.70980 0.45330 -0.45400
O 	O 	0.41420 0.79810 0.41910 -0.43700
O 	O 	0.15630 0.71470 0.54140 -0.45200
O 	O 	0.11090 0.80170 0.59390 -0.42600
N 	N 	0.25760 0.78260 0.50060 -0.18400
C 	C 	0.36520 0.77340 0.44700 0.33200
C 	C 	0.31180 0.81750 0.47530 -0.07600
C 	C 	0.31350 0.88600 0.47300 -0.01800
H 	H 	0.34920 0.90790 0.45270 0.01700
C 	C 	0.26290 0.92140 0.50070 -0.05900
H 	H 	0.26430 0.96790 0.49970 0.01800
C 	C 	0.20830 0.88900 0.53090 -0.02900
H 	H 	0.17430 0.91260 0.55210 0.01800
C 	C 	0.20840 0.81930 0.52700 -0.06400
C 	C 	0.15450 0.77730 0.55590 0.31500
La	La	0.24739 0.34661 0.99293 1.49300
O 	O 	0.14430 0.29020 0.95330 -0.45500
O 	O 	0.08580 0.20190 0.91910 -0.43600
O 	O 	0.34370 0.28530 0.04140 -0.45100
O 	O 	0.38910 0.19830 0.09390 -0.42400
N 	N 	0.24240 0.21740 0.00060 -0.18300
C 	C 	0.13480 0.22660 0.94700 0.33000
C 	C 	0.18820 0.18250 0.97530 -0.07200
C 	C 	0.18650 0.11400 0.97300 -0.03500
H 	H 	0.15080 0.09210 0.95270 0.02300
C 	C 	0.23710 0.07860 0.00070 -0.03400
H 	H 	0.23570 0.03210 0.99970 0.00800
C 	C 	0.29170 0.11100 0.03090 -0.04100
H 	H 	0.32570 0.08740 0.05210 0.02300
C 	C 	0.29160 0.18070 0.02700 -0.05800
C 	C 	0.34550 0.22270 0.05590 0.31400
La	La	0.00707 0.74739 0.15339 1.49600
O 	O 	0.04670 0.64430 0.20980 -0.45400
O 	O 	0.08090 0.58580 0.29810 -0.43600
O 	O 	0.95860 0.84370 0.21470 -0.45200
O 	O 	0.90610 0.88910 0.30170 -0.42500
N 	N 	0.99940 0.74240 0.28260 -0.18400
C 	C 	0.05300 0.63480 0.27340 0.33200
C 	C 	0.02470 0.68820 0.31750 -0.07400
C 	C 	0.02700 0.68650 0.38600 -0.02200
H 	H 	0.04730 0.65080 0.40790 0.01900
C 	C 	0.99930 0.73710 0.42140 -0.05300
H 	H 	0.00030 0.73570 0.46790 0.01600
C 	C 	0.96910 0.79170 0.38900 -0.03200
H 	H 	0.94790 0.82570 0.41260 0.01900
C 	C 	0.97300 0.79160 0.31930 -0.06200
C 	C 	0.94410 0.84550 0.27730 0.31500
La	La	0.50707 0.75261 0.84661 1.49600
O 	O 	0.54670 0.85570 0.79020 -0.45400
O 	O 	0.58090 0.91420 0.70190 -0.43600
O 	O 	0.45860 0.65630 0.78530 -0.45200
O 	O 	0.40610 0.61090 0.69830 -0.42500
N 	N 	0.49940 0.75760 0.71740 -0.18400
C 	C 	0.55300 0.86520 0.72660 0.33200
C 	C 	0.52470 0.81180 0.68250 -0.07600
C 	C 	0.52700 0.81350 0.61400 -0.01800
H 	H 	0.54730 0.84920 0.59210 0.01700
C 	C 	0.49930 0.76290 0.57860 -0.05900
H 	H 	0.50030 0.76430 0.53210 0.01800
C 	C 	0.46910 0.70830 0.61100 -0.02900
H 	H 	0.44790 0.67430 0.58740 0.01800
C 	C 	0.47300 0.70840 0.68070 -0.06400
C 	C 	0.44410 0.65450 0.72270 0.31500
La	La	0.49293 0.25261 0.65339 1.49500
O 	O 	0.45330 0.35570 0.70980 -0.45400
O 	O 	0.41910 0.41420 0.79810 -0.43700
O 	O 	0.54140 0.15630 0.71470 -0.45200
O 	O 	0.59390 0.11090 0.80170 -0.42600
N 	N 	0.50060 0.25760 0.78260 -0.18400
C 	C 	0.44700 0.36520 0.77340 0.33200
C 	C 	0.47530 0.31180 0.81750 -0.07600
C 	C 	0.47300 0.31350 0.88600 -0.01800
H 	H 	0.45270 0.34920 0.90790 0.01700
C 	C 	0.50070 0.26290 0.92140 -0.05900
H 	H 	0.49970 0.26430 0.96790 0.01800
C 	C 	0.53090 0.20830 0.88900 -0.02900
H 	H 	0.55210 0.17430 0.91260 0.01800
C 	C 	0.52700 0.20840 0.81930 -0.06400
C 	C 	0.55590 0.15450 0.77730 0.31500
La	La	0.99293 0.24739 0.34661 1.49300
O 	O 	0.95330 0.14430 0.29020 -0.45500
O 	O 	0.91910 0.08580 0.20190 -0.43600
O 	O 	0.04140 0.34370 0.28530 -0.45100
O 	O 	0.09390 0.38910 0.19830 -0.42400
N 	N 	0.00060 0.24240 0.21740 -0.18300
C 	C 	0.94700 0.13480 0.22660 0.33000
C 	C 	0.97530 0.18820 0.18250 -0.07200
C 	C 	0.97300 0.18650 0.11400 -0.03500
H 	H 	0.95270 0.15080 0.09210 0.02300
C 	C 	0.00070 0.23710 0.07860 -0.03400
H 	H 	0.99970 0.23570 0.03210 0.00800
C 	C 	0.03090 0.29170 0.11100 -0.04100
H 	H 	0.05210 0.32570 0.08740 0.02300
C 	C 	0.02700 0.29160 0.18070 -0.05800
C 	C 	0.05590 0.34550 0.22270 0.31400
La	La	0.15339 0.00707 0.74739 1.49600
O 	O 	0.20980 0.04670 0.64430 -0.45400
O 	O 	0.29810 0.08090 0.58580 -0.43600
O 	O 	0.21470 0.95860 0.84370 -0.45200
O 	O 	0.30170 0.90610 0.88910 -0.42500
N 	N 	0.28260 0.99940 0.74240 -0.18400
C 	C 	0.27340 0.05300 0.63480 0.33200
C 	C 	0.31750 0.02470 0.68820 -0.07400
C 	C 	0.38600 0.02700 0.68650 -0.02200
H 	H 	0.40790 0.04730 0.65080 0.01900
C 	C 	0.42140 0.99930 0.73710 -0.05300
H 	H 	0.46790 0.00030 0.73570 0.01600
C 	C 	0.38900 0.96910 0.79170 -0.03200
H 	H 	0.41260 0.94790 0.82570 0.01900
C 	C 	0.31930 0.97300 0.79160 -0.06200
C 	C 	0.27730 0.94410 0.84550 0.31500
La	La	0.84661 0.50707 0.75261 1.49600
O 	O 	0.79020 0.54670 0.85570 -0.45400
O 	O 	0.70190 0.58090 0.91420 -0.43600
O 	O 	0.78530 0.45860 0.65630 -0.45200
O 	O 	0.69830 0.40610 0.61090 -0.42500
N 	N 	0.71740 0.49940 0.75760 -0.18400
C 	C 	0.72660 0.55300 0.86520 0.33200
C 	C 	0.68250 0.52470 0.81180 -0.07600
C 	C 	0.61400 0.52700 0.81350 -0.01800
H 	H 	0.59210 0.54730 0.84920 0.01700
C 	C 	0.57860 0.49930 0.76290 -0.05900
H 	H 	0.53210 0.50030 0.76430 0.01800
C 	C 	0.61100 0.46910 0.70830 -0.02900
H 	H 	0.58740 0.44790 0.67430 0.01800
C 	C 	0.68070 0.47300 0.70840 -0.06400
C 	C 	0.72270 0.44410 0.65450 0.31500
La	La	0.65339 0.49293 0.25261 1.49500
O 	O 	0.70980 0.45330 0.35570 -0.45400
O 	O 	0.79810 0.41910 0.41420 -0.43700
O 	O 	0.71470 0.54140 0.15630 -0.45200
O 	O 	0.80170 0.59390 0.11090 -0.42600
N 	N 	0.78260 0.50060 0.25760 -0.18400
C 	C 	0.77340 0.44700 0.36520 0.33200
C 	C 	0.81750 0.47530 0.31180 -0.07600
C 	C 	0.88600 0.47300 0.31350 -0.01800
H 	H 	0.90790 0.45270 0.34920 0.01700
C 	C 	0.92140 0.50070 0.26290 -0.05900
H 	H 	0.96790 0.49970 0.26430 0.01800
C 	C 	0.88900 0.53090 0.20830 -0.02900
H 	H 	0.91260 0.55210 0.17430 0.01800
C 	C 	0.81930 0.52700 0.20840 -0.06400
C 	C 	0.77730 0.55590 0.15450 0.31500
La	La	0.34661 0.99293 0.24739 1.49300
O 	O 	0.29020 0.95330 0.14430 -0.45500
O 	O 	0.20190 0.91910 0.08580 -0.43600
O 	O 	0.28530 0.04140 0.34370 -0.45100
O 	O 	0.19830 0.09390 0.38910 -0.42400
N 	N 	0.21740 0.00060 0.24240 -0.18300
C 	C 	0.22660 0.94700 0.13480 0.33000
C 	C 	0.18250 0.97530 0.18820 -0.07200
C 	C 	0.11400 0.97300 0.18650 -0.03500
H 	H 	0.09210 0.95270 0.15080 0.02300
C 	C 	0.07860 0.00070 0.23710 -0.03400
H 	H 	0.03210 0.99970 0.23570 0.00800
C 	C 	0.11100 0.03090 0.29170 -0.04100
H 	H 	0.08740 0.05210 0.32570 0.02300
C 	C 	0.18070 0.02700 0.29160 -0.05800
C 	C 	0.22270 0.05590 0.34550 0.31400
La	La	0.25261 0.84661 0.99293 1.49600
O 	O 	0.35570 0.79020 0.95330 -0.45400
O 	O 	0.41420 0.70190 0.91910 -0.43600
O 	O 	0.15630 0.78530 0.04140 -0.45200
O 	O 	0.11090 0.69830 0.09390 -0.42500
N 	N 	0.25760 0.71740 0.00060 -0.18400
C 	C 	0.36520 0.72660 0.94700 0.33200
C 	C 	0.31180 0.68250 0.97530 -0.07400
C 	C 	0.31350 0.61400 0.97300 -0.02200
H 	H 	0.34920 0.59210 0.95270 0.01900
C 	C 	0.26290 0.57860 0.00070 -0.05300
H 	H 	0.26430 0.53210 0.99970 0.01600
C 	C 	0.20830 0.61100 0.03090 -0.03200
H 	H 	0.17430 0.58740 0.05210 0.01900
C 	C 	0.20840 0.68070 0.02700 -0.06200
C 	C 	0.15450 0.72270 0.05590 0.31500
La	La	0.24739 0.15339 0.49293 1.49600
O 	O 	0.14430 0.20980 0.45330 -0.45400
O 	O 	0.08580 0.29810 0.41910 -0.43600
O 	O 	0.34370 0.21470 0.54140 -0.45200
O 	O 	0.38910 0.30170 0.59390 -0.42500
N 	N 	0.24240 0.28260 0.50060 -0.18400
C 	C 	0.13480 0.27340 0.44700 0.33200
C 	C 	0.18820 0.31750 0.47530 -0.07600
C 	C 	0.18650 0.38600 0.47300 -0.01800
H 	H 	0.15080 0.40790 0.45270 0.01700
C 	C 	0.23710 0.42140 0.50070 -0.05900
H 	H 	0.23570 0.46790 0.49970 0.01800
C 	C 	0.29170 0.38900 0.53090 -0.02900
H 	H 	0.32570 0.41260 0.55210 0.01800
C 	C 	0.29160 0.31930 0.52700 -0.06400
C 	C 	0.34550 0.27730 0.55590 0.31500
La	La	0.74739 0.34661 0.50707 1.49500
O 	O 	0.64430 0.29020 0.54670 -0.45400
O 	O 	0.58580 0.20190 0.58090 -0.43700
O 	O 	0.84370 0.28530 0.45860 -0.45200
O 	O 	0.88910 0.19830 0.40610 -0.42600
N 	N 	0.74240 0.21740 0.49940 -0.18400
C 	C 	0.63480 0.22660 0.55300 0.33200
C 	C 	0.68820 0.18250 0.52470 -0.07600
C 	C 	0.68650 0.11400 0.52700 -0.01800
H 	H 	0.65080 0.09210 0.54730 0.01700
C 	C 	0.73710 0.07860 0.49930 -0.05900
H 	H 	0.73570 0.03210 0.50030 0.01800
C 	C 	0.79170 0.11100 0.46910 -0.02900
H 	H 	0.82570 0.08740 0.44790 0.01800
C 	C 	0.79160 0.18070 0.47300 -0.06400
C 	C 	0.84550 0.22270 0.44410 0.31500
La	La	0.75261 0.65339 0.00707 1.49300
O 	O 	0.85570 0.70980 0.04670 -0.45500
O 	O 	0.91420 0.79810 0.08090 -0.43600
O 	O 	0.65630 0.71470 0.95860 -0.45100
O 	O 	0.61090 0.80170 0.90610 -0.42400
N 	N 	0.75760 0.78260 0.99940 -0.18300
C 	C 	0.86520 0.77340 0.05300 0.33000
C 	C 	0.81180 0.81750 0.02470 -0.07200
C 	C 	0.81350 0.88600 0.02700 -0.03500
H 	H 	0.84920 0.90790 0.04730 0.02300
C 	C 	0.76290 0.92140 0.99930 -0.03400
H 	H 	0.76430 0.96790 0.00030 0.00800
C 	C 	0.70830 0.88900 0.96910 -0.04100
H 	H 	0.67430 0.91260 0.94790 0.02300
C 	C 	0.70840 0.81930 0.97300 -0.05800
C 	C 	0.65450 0.77730 0.94410 0.31400
La	La	0.99293 0.25261 0.84661 1.49600
O 	O 	0.95330 0.35570 0.79020 -0.45400
O 	O 	0.91910 0.41420 0.70190 -0.43600
O 	O 	0.04140 0.15630 0.78530 -0.45200
O 	O 	0.09390 0.11090 0.69830 -0.42500
N 	N 	0.00060 0.25760 0.71740 -0.18400
C 	C 	0.94700 0.36520 0.72660 0.33200
C 	C 	0.97530 0.31180 0.68250 -0.07400
C 	C 	0.97300 0.31350 0.61400 -0.02200
H 	H 	0.95270 0.34920 0.59210 0.01900
C 	C 	0.00070 0.26290 0.57860 -0.05300
H 	H 	0.99970 0.26430 0.53210 0.01600
C 	C 	0.03090 0.20830 0.61100 -0.03200
H 	H 	0.05210 0.17430 0.58740 0.01900
C 	C 	0.02700 0.20840 0.68070 -0.06200
C 	C 	0.05590 0.15450 0.72270 0.31500
La	La	0.49293 0.24739 0.15339 1.49600
O 	O 	0.45330 0.14430 0.20980 -0.45400
O 	O 	0.41910 0.08580 0.29810 -0.43600
O 	O 	0.54140 0.34370 0.21470 -0.45200
O 	O 	0.59390 0.38910 0.30170 -0.42500
N 	N 	0.50060 0.24240 0.28260 -0.18400
C 	C 	0.44700 0.13480 0.27340 0.33200
C 	C 	0.47530 0.18820 0.31750 -0.07600
C 	C 	0.47300 0.18650 0.38600 -0.01800
H 	H 	0.45270 0.15080 0.40790 0.01700
C 	C 	0.50070 0.23710 0.42140 -0.05900
H 	H 	0.49970 0.23570 0.46790 0.01800
C 	C 	0.53090 0.29170 0.38900 -0.02900
H 	H 	0.55210 0.32570 0.41260 0.01800
C 	C 	0.52700 0.29160 0.31930 -0.06400
C 	C 	0.55590 0.34550 0.27730 0.31500
La	La	0.50707 0.74739 0.34661 1.49500
O 	O 	0.54670 0.64430 0.29020 -0.45400
O 	O 	0.58090 0.58580 0.20190 -0.43700
O 	O 	0.45860 0.84370 0.28530 -0.45200
O 	O 	0.40610 0.88910 0.19830 -0.42600
N 	N 	0.49940 0.74240 0.21740 -0.18400
C 	C 	0.55300 0.63480 0.22660 0.33200
C 	C 	0.52470 0.68820 0.18250 -0.07600
C 	C 	0.52700 0.68650 0.11400 -0.01800
H 	H 	0.54730 0.65080 0.09210 0.01700
C 	C 	0.49930 0.73710 0.07860 -0.05900
H 	H 	0.50030 0.73570 0.03210 0.01800
C 	C 	0.46910 0.79170 0.11100 -0.02900
H 	H 	0.44790 0.82570 0.08740 0.01800
C 	C 	0.47300 0.79160 0.18070 -0.06400
C 	C 	0.44410 0.84550 0.22270 0.31500
La	La	0.00707 0.75261 0.65339 1.49300
O 	O 	0.04670 0.85570 0.70980 -0.45500
O 	O 	0.08090 0.91420 0.79810 -0.43600
O 	O 	0.95860 0.65630 0.71470 -0.45100
O 	O 	0.90610 0.61090 0.80170 -0.42400
N 	N 	0.99940 0.75760 0.78260 -0.18300
C 	C 	0.05300 0.86520 0.77340 0.33000
C 	C 	0.02470 0.81180 0.81750 -0.07200
C 	C 	0.02700 0.81350 0.88600 -0.03500
H 	H 	0.04730 0.84920 0.90790 0.02300
C 	C 	0.99930 0.76290 0.92140 -0.03400
H 	H 	0.00030 0.76430 0.96790 0.00800
C 	C 	0.96910 0.70830 0.88900 -0.04100
H 	H 	0.94790 0.67430 0.91260 0.02300
C 	C 	0.97300 0.70840 0.81930 -0.05800
C 	C 	0.94410 0.65450 0.77730 0.31400
La	La	0.84661 0.99293 0.25261 1.49600
O 	O 	0.79020 0.95330 0.35570 -0.45400
O 	O 	0.70190 0.91910 0.41420 -0.43600
O 	O 	0.78530 0.04140 0.15630 -0.45200
O 	O 	0.69830 0.09390 0.11090 -0.42500
N 	N 	0.71740 0.00060 0.25760 -0.18400
C 	C 	0.72660 0.94700 0.36520 0.33200
C 	C 	0.68250 0.97530 0.31180 -0.07400
C 	C 	0.61400 0.97300 0.31350 -0.02200
H 	H 	0.59210 0.95270 0.34920 0.01900
C 	C 	0.57860 0.00070 0.26290 -0.05300
H 	H 	0.53210 0.99970 0.26430 0.01600
C 	C 	0.61100 0.03090 0.20830 -0.03200
H 	H 	0.58740 0.05210 0.17430 0.01900
C 	C 	0.68070 0.02700 0.20840 -0.06200
C 	C 	0.72270 0.05590 0.15450 0.31500
La	La	0.15339 0.49293 0.24739 1.49600
O 	O 	0.20980 0.45330 0.14430 -0.45400
O 	O 	0.29810 0.41910 0.08580 -0.43600
O 	O 	0.21470 0.54140 0.34370 -0.45200
O 	O 	0.30170 0.59390 0.38910 -0.42500
N 	N 	0.28260 0.50060 0.24240 -0.18400
C 	C 	0.27340 0.44700 0.13480 0.33200
C 	C 	0.31750 0.47530 0.18820 -0.07600
C 	C 	0.38600 0.47300 0.18650 -0.01800
H 	H 	0.40790 0.45270 0.15080 0.01700
C 	C 	0.42140 0.50070 0.23710 -0.05900
H 	H 	0.46790 0.49970 0.23570 0.01800
C 	C 	0.38900 0.53090 0.29170 -0.02900
H 	H 	0.41260 0.55210 0.32570 0.01800
C 	C 	0.31930 0.52700 0.29160 -0.06400
C 	C 	0.27730 0.55590 0.34550 0.31500
La	La	0.34661 0.50707 0.74739 1.49500
O 	O 	0.29020 0.54670 0.64430 -0.45400
O 	O 	0.20190 0.58090 0.58580 -0.43700
O 	O 	0.28530 0.45860 0.84370 -0.45200
O 	O 	0.19830 0.40610 0.88910 -0.42600
N 	N 	0.21740 0.49940 0.74240 -0.18400
C 	C 	0.22660 0.55300 0.63480 0.33200
C 	C 	0.18250 0.52470 0.68820 -0.07600
C 	C 	0.11400 0.52700 0.68650 -0.01800
H 	H 	0.09210 0.54730 0.65080 0.01700
C 	C 	0.07860 0.49930 0.73710 -0.05900
H 	H 	0.03210 0.50030 0.73570 0.01800
C 	C 	0.11100 0.46910 0.79170 -0.02900
H 	H 	0.08740 0.44790 0.82570 0.01800
C 	C 	0.18070 0.47300 0.79160 -0.06400
C 	C 	0.22270 0.44410 0.84550 0.31500
La	La	0.65339 0.00707 0.75261 1.49300
O 	O 	0.70980 0.04670 0.85570 -0.45500
O 	O 	0.79810 0.08090 0.91420 -0.43600
O 	O 	0.71470 0.95860 0.65630 -0.45100
O 	O 	0.80170 0.90610 0.61090 -0.42400
N 	N 	0.78260 0.99940 0.75760 -0.18300
C 	C 	0.77340 0.05300 0.86520 0.33000
C 	C 	0.81750 0.02470 0.81180 -0.07200
C 	C 	0.88600 0.02700 0.81350 -0.03500
H 	H 	0.90790 0.04730 0.84920 0.02300
C 	C 	0.92140 0.99930 0.76290 -0.03400
H 	H 	0.96790 0.00030 0.76430 0.00800
C 	C 	0.88900 0.96910 0.70830 -0.04100
H 	H 	0.91260 0.94790 0.67430 0.02300
C 	C 	0.81930 0.97300 0.70840 -0.05800
C 	C 	0.77730 0.94410 0.65450 0.31400
