data_crystal

_cell_length_a 26.57170
_cell_length_b 26.57170
_cell_length_c 26.57170
_cell_angle_alpha 90.00000
_cell_angle_beta  90.00000
_cell_angle_gamma 90.00000

_symmetry_space_group_name_	'P 1'
_symmetry_space_group_name_H-M	'P 1'

loop_
_symmetry_equiv_pos_as_xyz
  x,y,z

loop_
_atom_site_label
_atom_site_type_symbol
_atom_site_fract_x
_atom_site_fract_y
_atom_site_fract_z
_atom_site_charge
O 	O 	0.68290 0.94630 0.25810 -0.43800
O 	O 	0.68290 0.44630 0.75810 -0.47300
O 	O 	0.18290 0.94630 0.75810 -0.43900
O 	O 	0.18290 0.44630 0.25810 -0.48400
O 	O 	0.31710 0.05370 0.25810 -0.49700
O 	O 	0.31710 0.55370 0.75810 -0.47400
O 	O 	0.81710 0.05370 0.75810 -0.48600
O 	O 	0.81710 0.55370 0.25810 -0.47100
O 	O 	0.31710 0.94630 0.74190 -0.43300
O 	O 	0.31710 0.44630 0.24190 -0.47800
O 	O 	0.81710 0.94630 0.24190 -0.43100
O 	O 	0.81710 0.44630 0.74190 -0.46600
O 	O 	0.68290 0.05370 0.74190 -0.49200
O 	O 	0.68290 0.55370 0.24190 -0.47700
O 	O 	0.18290 0.05370 0.24190 -0.50200
O 	O 	0.18290 0.55370 0.74190 -0.47900
O 	O 	0.25810 0.68290 0.94630 -0.43800
O 	O 	0.25810 0.18290 0.44630 -0.48400
O 	O 	0.75810 0.68290 0.44630 -0.47300
O 	O 	0.75810 0.18290 0.94630 -0.43900
O 	O 	0.25810 0.31710 0.05370 -0.49700
O 	O 	0.25810 0.81710 0.55370 -0.47100
O 	O 	0.75810 0.31710 0.55370 -0.47400
O 	O 	0.75810 0.81710 0.05370 -0.48600
O 	O 	0.74190 0.31710 0.94630 -0.43300
O 	O 	0.74190 0.81710 0.44630 -0.46600
O 	O 	0.24190 0.31710 0.44630 -0.47800
O 	O 	0.24190 0.81710 0.94630 -0.43100
O 	O 	0.74190 0.68290 0.05370 -0.49200
O 	O 	0.74190 0.18290 0.55370 -0.47900
O 	O 	0.24190 0.68290 0.55370 -0.47700
O 	O 	0.24190 0.18290 0.05370 -0.50200
O 	O 	0.94630 0.25810 0.68290 -0.43800
O 	O 	0.94630 0.75810 0.18290 -0.43900
O 	O 	0.44630 0.25810 0.18290 -0.48400
O 	O 	0.44630 0.75810 0.68290 -0.47300
O 	O 	0.05370 0.25810 0.31710 -0.49800
O 	O 	0.05370 0.75810 0.81710 -0.48700
O 	O 	0.55370 0.25810 0.81710 -0.47200
O 	O 	0.55370 0.75810 0.31710 -0.47500
O 	O 	0.94630 0.74190 0.31710 -0.43400
O 	O 	0.94630 0.24190 0.81710 -0.43200
O 	O 	0.44630 0.74190 0.81710 -0.46700
O 	O 	0.44630 0.24190 0.31710 -0.47900
O 	O 	0.05370 0.74190 0.68290 -0.49300
O 	O 	0.05370 0.24190 0.18290 -0.50300
O 	O 	0.55370 0.74190 0.18290 -0.48000
O 	O 	0.55370 0.24190 0.68290 -0.47800
O 	O 	0.94630 0.68290 0.74190 -0.43400
O 	O 	0.94630 0.18290 0.24190 -0.44400
O 	O 	0.44630 0.68290 0.24190 -0.47800
O 	O 	0.44630 0.18290 0.74190 -0.48000
O 	O 	0.05370 0.31710 0.74190 -0.49300
O 	O 	0.05370 0.81710 0.24190 -0.49000
O 	O 	0.55370 0.31710 0.24190 -0.47900
O 	O 	0.55370 0.81710 0.74190 -0.46700
O 	O 	0.94630 0.31710 0.25810 -0.43900
O 	O 	0.94630 0.81710 0.75810 -0.42800
O 	O 	0.44630 0.31710 0.75810 -0.47500
O 	O 	0.44630 0.81710 0.25810 -0.47200
O 	O 	0.05370 0.68290 0.25810 -0.49700
O 	O 	0.05370 0.18290 0.75810 -0.49900
O 	O 	0.55370 0.68290 0.75810 -0.47400
O 	O 	0.55370 0.18290 0.25810 -0.48500
O 	O 	0.68290 0.25810 0.05370 -0.49700
O 	O 	0.68290 0.75810 0.55370 -0.47400
O 	O 	0.18290 0.25810 0.55370 -0.48500
O 	O 	0.18290 0.75810 0.05370 -0.49900
O 	O 	0.31710 0.25810 0.94630 -0.43900
O 	O 	0.31710 0.75810 0.44630 -0.47500
O 	O 	0.81710 0.25810 0.44630 -0.47200
O 	O 	0.81710 0.75810 0.94630 -0.42800
O 	O 	0.31710 0.74190 0.05370 -0.49300
O 	O 	0.31710 0.24190 0.55370 -0.47900
O 	O 	0.81710 0.74190 0.55370 -0.46700
O 	O 	0.81710 0.24190 0.05370 -0.49000
O 	O 	0.68290 0.74190 0.94630 -0.43400
O 	O 	0.68290 0.24190 0.44630 -0.47800
O 	O 	0.18290 0.74190 0.44630 -0.48000
O 	O 	0.18290 0.24190 0.94630 -0.44400
O 	O 	0.25810 0.94630 0.31710 -0.43900
O 	O 	0.25810 0.44630 0.81710 -0.47200
O 	O 	0.75810 0.94630 0.81710 -0.42800
O 	O 	0.75810 0.44630 0.31710 -0.47500
O 	O 	0.25810 0.05370 0.68290 -0.49700
O 	O 	0.25810 0.55370 0.18290 -0.48500
O 	O 	0.75810 0.05370 0.18290 -0.49900
O 	O 	0.75810 0.55370 0.68290 -0.47400
O 	O 	0.74190 0.94630 0.68290 -0.43400
O 	O 	0.74190 0.44630 0.18290 -0.48000
O 	O 	0.24190 0.94630 0.18290 -0.44400
O 	O 	0.24190 0.44630 0.68290 -0.47800
O 	O 	0.74190 0.05370 0.31710 -0.49300
O 	O 	0.74190 0.55370 0.81710 -0.46700
O 	O 	0.24190 0.05370 0.81710 -0.49000
O 	O 	0.24190 0.55370 0.31710 -0.47900
O 	O 	0.31710 0.05370 0.74190 -0.49300
O 	O 	0.31710 0.55370 0.24190 -0.47900
O 	O 	0.81710 0.05370 0.24190 -0.49000
O 	O 	0.81710 0.55370 0.74190 -0.46700
O 	O 	0.68290 0.94630 0.74190 -0.43400
O 	O 	0.68290 0.44630 0.24190 -0.47800
O 	O 	0.18290 0.94630 0.24190 -0.44400
O 	O 	0.18290 0.44630 0.74190 -0.48000
O 	O 	0.68290 0.05370 0.25810 -0.49700
O 	O 	0.68290 0.55370 0.75810 -0.47400
O 	O 	0.18290 0.05370 0.75810 -0.49900
O 	O 	0.18290 0.55370 0.25810 -0.48500
O 	O 	0.31710 0.94630 0.25810 -0.43900
O 	O 	0.31710 0.44630 0.75810 -0.47500
O 	O 	0.81710 0.94630 0.75810 -0.42800
O 	O 	0.81710 0.44630 0.25810 -0.47200
O 	O 	0.74190 0.31710 0.05370 -0.49300
O 	O 	0.74190 0.81710 0.55370 -0.46700
O 	O 	0.24190 0.31710 0.55370 -0.47900
O 	O 	0.24190 0.81710 0.05370 -0.49000
O 	O 	0.74190 0.68290 0.94630 -0.43400
O 	O 	0.74190 0.18290 0.44630 -0.48000
O 	O 	0.24190 0.68290 0.44630 -0.47800
O 	O 	0.24190 0.18290 0.94630 -0.44400
O 	O 	0.25810 0.68290 0.05370 -0.49700
O 	O 	0.25810 0.18290 0.55370 -0.48500
O 	O 	0.75810 0.68290 0.55370 -0.47400
O 	O 	0.75810 0.18290 0.05370 -0.49900
O 	O 	0.25810 0.31710 0.94630 -0.43900
O 	O 	0.25810 0.81710 0.44630 -0.47200
O 	O 	0.75810 0.31710 0.44630 -0.47500
O 	O 	0.75810 0.81710 0.94630 -0.42800
O 	O 	0.05370 0.74190 0.31710 -0.49300
O 	O 	0.05370 0.24190 0.81710 -0.49000
O 	O 	0.55370 0.74190 0.81710 -0.46700
O 	O 	0.55370 0.24190 0.31710 -0.47900
O 	O 	0.94630 0.74190 0.68290 -0.43400
O 	O 	0.94630 0.24190 0.18290 -0.44400
O 	O 	0.44630 0.74190 0.18290 -0.48000
O 	O 	0.44630 0.24190 0.68290 -0.47800
O 	O 	0.05370 0.25810 0.68290 -0.49700
O 	O 	0.05370 0.75810 0.18290 -0.49900
O 	O 	0.55370 0.25810 0.18290 -0.48500
O 	O 	0.55370 0.75810 0.68290 -0.47400
O 	O 	0.94630 0.25810 0.31710 -0.43900
O 	O 	0.94630 0.75810 0.81710 -0.42800
O 	O 	0.44630 0.25810 0.81710 -0.47200
O 	O 	0.44630 0.75810 0.31710 -0.47500
O 	O 	0.05370 0.31710 0.25810 -0.49800
O 	O 	0.05370 0.81710 0.75810 -0.48700
O 	O 	0.55370 0.31710 0.75810 -0.47500
O 	O 	0.55370 0.81710 0.25810 -0.47200
O 	O 	0.94630 0.68290 0.25810 -0.43900
O 	O 	0.94630 0.18290 0.75810 -0.44000
O 	O 	0.44630 0.68290 0.75810 -0.47400
O 	O 	0.44630 0.18290 0.25810 -0.48500
O 	O 	0.05370 0.68290 0.74190 -0.49300
O 	O 	0.05370 0.18290 0.24190 -0.50300
O 	O 	0.55370 0.68290 0.24190 -0.47800
O 	O 	0.55370 0.18290 0.74190 -0.48000
O 	O 	0.94630 0.31710 0.74190 -0.43400
O 	O 	0.94630 0.81710 0.24190 -0.43200
O 	O 	0.44630 0.31710 0.24190 -0.47900
O 	O 	0.44630 0.81710 0.74190 -0.46700
O 	O 	0.31710 0.74190 0.94630 -0.43400
O 	O 	0.31710 0.24190 0.44630 -0.47900
O 	O 	0.81710 0.74190 0.44630 -0.46700
O 	O 	0.81710 0.24190 0.94630 -0.43200
O 	O 	0.68290 0.74190 0.05370 -0.49300
O 	O 	0.68290 0.24190 0.55370 -0.47800
O 	O 	0.18290 0.74190 0.55370 -0.48000
O 	O 	0.18290 0.24190 0.05370 -0.50300
O 	O 	0.68290 0.25810 0.94630 -0.43900
O 	O 	0.68290 0.75810 0.44630 -0.47400
O 	O 	0.18290 0.25810 0.44630 -0.48500
O 	O 	0.18290 0.75810 0.94630 -0.44000
O 	O 	0.31710 0.25810 0.05370 -0.49800
O 	O 	0.31710 0.75810 0.55370 -0.47500
O 	O 	0.81710 0.25810 0.55370 -0.47200
O 	O 	0.81710 0.75810 0.05370 -0.48700
O 	O 	0.74190 0.05370 0.68290 -0.49300
O 	O 	0.74190 0.55370 0.18290 -0.48000
O 	O 	0.24190 0.05370 0.18290 -0.50300
O 	O 	0.24190 0.55370 0.68290 -0.47800
O 	O 	0.74190 0.94630 0.31710 -0.43400
O 	O 	0.74190 0.44630 0.81710 -0.46700
O 	O 	0.24190 0.94630 0.81710 -0.43200
O 	O 	0.24190 0.44630 0.31710 -0.47900
O 	O 	0.25810 0.05370 0.31710 -0.49800
O 	O 	0.25810 0.55370 0.81710 -0.47200
O 	O 	0.75810 0.05370 0.81710 -0.48700
O 	O 	0.75810 0.55370 0.31710 -0.47500
O 	O 	0.25810 0.94630 0.68290 -0.43900
O 	O 	0.25810 0.44630 0.18290 -0.48500
O 	O 	0.75810 0.94630 0.18290 -0.44000
O 	O 	0.75810 0.44630 0.68290 -0.47400
Fe	Fe	0.71081 0.00000 0.21081 1.09800
Fe	Fe	0.71081 0.50000 0.71081 1.14200
Fe	Fe	0.28919 0.00000 0.21081 1.09800
Fe	Fe	0.28919 0.50000 0.71081 1.14200
Fe	Fe	0.78919 0.00000 0.71081 1.10400
Fe	Fe	0.28919 0.00000 0.78919 1.10400
Fe	Fe	0.28919 0.50000 0.28919 1.14200
Fe	Fe	0.78919 0.50000 0.78919 1.14900
Fe	Fe	0.71081 0.00000 0.78919 1.10400
Fe	Fe	0.71081 0.50000 0.28919 1.14200
Fe	Fe	0.21081 0.71081 -0.00000 1.09800
Fe	Fe	0.21081 0.21081 0.50000 1.13700
Fe	Fe	0.71081 0.71081 0.50000 1.14200
Fe	Fe	0.21081 0.28919 -0.00000 1.09800
Fe	Fe	0.21081 0.78919 0.50000 1.14300
Fe	Fe	0.71081 0.78919 -0.00000 1.10400
Fe	Fe	0.78919 0.28919 -0.00000 1.10400
Fe	Fe	0.78919 0.78919 0.50000 1.14900
Fe	Fe	0.78919 0.71081 -0.00000 1.10400
Fe	Fe	0.78919 0.21081 0.50000 1.14300
Fe	Fe	0.00000 0.21081 0.71081 1.09800
Fe	Fe	0.50000 0.21081 0.21081 1.13700
Fe	Fe	0.50000 0.71081 0.71081 1.14200
Fe	Fe	0.00000 0.21081 0.28919 1.09800
Fe	Fe	0.00000 0.71081 0.78919 1.10400
Fe	Fe	0.50000 0.21081 0.78919 1.14300
Fe	Fe	-0.00000 0.78919 0.28919 1.10400
Fe	Fe	0.50000 0.78919 0.78919 1.14900
Fe	Fe	0.00000 0.78919 0.71081 1.10400
Fe	Fe	0.50000 0.78919 0.21081 1.14300
Fe	Fe	0.50000 0.71081 0.28919 1.14200
Fe	Fe	0.00000 0.28919 0.78919 1.10400
Fe	Fe	0.50000 0.28919 0.28919 1.14200
Fe	Fe	0.00000 0.28919 0.21081 1.09800
Fe	Fe	0.50000 0.28919 0.71081 1.14200
Fe	Fe	0.00000 0.71081 0.21081 1.09800
Fe	Fe	0.71081 0.21081 -0.00000 1.09800
Fe	Fe	0.28919 0.21081 -0.00000 1.09800
Fe	Fe	0.28919 0.71081 0.50000 1.14200
Fe	Fe	0.28919 0.78919 -0.00000 1.10400
Fe	Fe	0.28919 0.28919 0.50000 1.14200
Fe	Fe	0.71081 0.28919 0.50000 1.14200
Fe	Fe	0.21081 0.00000 0.28919 1.09800
Fe	Fe	0.21081 0.50000 0.78919 1.14300
Fe	Fe	0.21081 0.00000 0.71081 1.09800
Fe	Fe	0.21081 0.50000 0.21081 1.13700
Fe	Fe	0.78919 0.50000 0.21081 1.14300
Fe	Fe	0.78919 0.00000 0.28919 1.10400
C 	C 	0.67750 0.88680 0.32250 -0.17400
C 	C 	0.70250 0.93030 0.29750 0.42600
C 	C 	0.67750 0.38680 0.82250 -0.18100
C 	C 	0.70250 0.43030 0.79750 0.43300
C 	C 	0.17750 0.88680 0.82250 -0.17200
C 	C 	0.20250 0.93030 0.79750 0.42500
C 	C 	0.17750 0.38680 0.32250 -0.20300
C 	C 	0.20250 0.43030 0.29750 0.44000
C 	C 	0.32250 0.11320 0.32250 -0.20900
C 	C 	0.29750 0.06970 0.29750 0.44000
C 	C 	0.32250 0.61320 0.82250 -0.18300
C 	C 	0.29750 0.56970 0.79750 0.43500
C 	C 	0.82250 0.11320 0.82250 -0.18500
C 	C 	0.79750 0.06970 0.79750 0.43300
C 	C 	0.82250 0.61320 0.32250 -0.18300
C 	C 	0.79750 0.56970 0.29750 0.43500
C 	C 	0.32250 0.88680 0.67750 -0.17400
C 	C 	0.29750 0.93030 0.70250 0.42600
C 	C 	0.32250 0.38680 0.17750 -0.20300
C 	C 	0.29750 0.43030 0.20250 0.44000
C 	C 	0.82250 0.88680 0.17750 -0.17200
C 	C 	0.79750 0.93030 0.20250 0.42500
C 	C 	0.82250 0.38680 0.67750 -0.18100
C 	C 	0.79750 0.43030 0.70250 0.43300
C 	C 	0.67750 0.11320 0.67750 -0.20200
C 	C 	0.70250 0.06970 0.70250 0.43600
C 	C 	0.67750 0.61320 0.17750 -0.19800
C 	C 	0.70250 0.56970 0.20250 0.43700
C 	C 	0.17750 0.11320 0.17750 -0.22100
C 	C 	0.20250 0.06970 0.20250 0.44200
C 	C 	0.17750 0.61320 0.67750 -0.19800
C 	C 	0.20250 0.56970 0.70250 0.43700
C 	C 	0.32250 0.67750 0.88680 -0.17400
C 	C 	0.29750 0.70250 0.93030 0.42600
C 	C 	0.32250 0.17750 0.38680 -0.20300
C 	C 	0.29750 0.20250 0.43030 0.44000
C 	C 	0.82250 0.67750 0.38680 -0.18100
C 	C 	0.79750 0.70250 0.43030 0.43300
C 	C 	0.82250 0.17750 0.88680 -0.17200
C 	C 	0.79750 0.20250 0.93030 0.42500
C 	C 	0.32250 0.32250 0.11320 -0.20900
C 	C 	0.29750 0.29750 0.06970 0.44000
C 	C 	0.32250 0.82250 0.61320 -0.18300
C 	C 	0.29750 0.79750 0.56970 0.43500
C 	C 	0.82250 0.32250 0.61320 -0.18300
C 	C 	0.79750 0.29750 0.56970 0.43500
C 	C 	0.82250 0.82250 0.11320 -0.18500
C 	C 	0.79750 0.79750 0.06970 0.43300
C 	C 	0.67750 0.32250 0.88680 -0.17400
C 	C 	0.70250 0.29750 0.93030 0.42600
C 	C 	0.67750 0.82250 0.38680 -0.18100
C 	C 	0.70250 0.79750 0.43030 0.43300
C 	C 	0.17750 0.32250 0.38680 -0.20300
C 	C 	0.20250 0.29750 0.43030 0.44000
C 	C 	0.17750 0.82250 0.88680 -0.17200
C 	C 	0.20250 0.79750 0.93030 0.42500
C 	C 	0.67750 0.67750 0.11320 -0.20200
C 	C 	0.70250 0.70250 0.06970 0.43600
C 	C 	0.67750 0.17750 0.61320 -0.19800
C 	C 	0.70250 0.20250 0.56970 0.43700
C 	C 	0.17750 0.67750 0.61320 -0.19800
C 	C 	0.20250 0.70250 0.56970 0.43700
C 	C 	0.17750 0.17750 0.11320 -0.22100
C 	C 	0.20250 0.20250 0.06970 0.44200
C 	C 	0.88680 0.32250 0.67750 -0.17400
C 	C 	0.93030 0.29750 0.70250 0.42600
C 	C 	0.88680 0.82250 0.17750 -0.17200
C 	C 	0.93030 0.79750 0.20250 0.42500
C 	C 	0.38680 0.32250 0.17750 -0.20300
C 	C 	0.43030 0.29750 0.20250 0.44000
C 	C 	0.38680 0.82250 0.67750 -0.18100
C 	C 	0.43030 0.79750 0.70250 0.43300
C 	C 	0.11320 0.32250 0.32250 -0.20900
C 	C 	0.06970 0.29750 0.29750 0.44000
C 	C 	0.11320 0.82250 0.82250 -0.18500
C 	C 	0.06970 0.79750 0.79750 0.43300
C 	C 	0.61320 0.32250 0.82250 -0.18300
C 	C 	0.56970 0.29750 0.79750 0.43500
C 	C 	0.61320 0.82250 0.32250 -0.18300
C 	C 	0.56970 0.79750 0.29750 0.43500
C 	C 	0.88680 0.67750 0.32250 -0.17400
C 	C 	0.93030 0.70250 0.29750 0.42600
C 	C 	0.88680 0.17750 0.82250 -0.17200
C 	C 	0.93030 0.20250 0.79750 0.42500
C 	C 	0.38680 0.67750 0.82250 -0.18100
C 	C 	0.43030 0.70250 0.79750 0.43300
C 	C 	0.38680 0.17750 0.32250 -0.20300
C 	C 	0.43030 0.20250 0.29750 0.44000
C 	C 	0.11320 0.67750 0.67750 -0.20200
C 	C 	0.06970 0.70250 0.70250 0.43600
C 	C 	0.11320 0.17750 0.17750 -0.22100
C 	C 	0.06970 0.20250 0.20250 0.44200
C 	C 	0.61320 0.67750 0.17750 -0.19800
C 	C 	0.56970 0.70250 0.20250 0.43700
C 	C 	0.61320 0.17750 0.67750 -0.19800
C 	C 	0.56970 0.20250 0.70250 0.43700
C 	C 	0.88680 0.67750 0.67750 -0.17100
C 	C 	0.93030 0.70250 0.70250 0.42400
C 	C 	0.88680 0.17750 0.17750 -0.19000
C 	C 	0.93030 0.20250 0.20250 0.42900
C 	C 	0.38680 0.67750 0.17750 -0.20000
C 	C 	0.43030 0.70250 0.20250 0.43800
C 	C 	0.38680 0.17750 0.67750 -0.20000
C 	C 	0.43030 0.20250 0.70250 0.43800
C 	C 	0.11320 0.32250 0.67750 -0.20500
C 	C 	0.06970 0.29750 0.70250 0.43800
C 	C 	0.11320 0.82250 0.17750 -0.20300
C 	C 	0.06970 0.79750 0.20250 0.43800
C 	C 	0.61320 0.32250 0.17750 -0.20200
C 	C 	0.56970 0.29750 0.20250 0.43900
C 	C 	0.61320 0.82250 0.67750 -0.18000
C 	C 	0.56970 0.79750 0.70250 0.43300
C 	C 	0.88680 0.32250 0.32250 -0.17700
C 	C 	0.93030 0.29750 0.29750 0.42800
C 	C 	0.88680 0.82250 0.82250 -0.15400
C 	C 	0.93030 0.79750 0.79750 0.42100
C 	C 	0.38680 0.32250 0.82250 -0.18500
C 	C 	0.43030 0.29750 0.79750 0.43500
C 	C 	0.38680 0.82250 0.32250 -0.18500
C 	C 	0.43030 0.79750 0.29750 0.43500
C 	C 	0.11320 0.67750 0.32250 -0.20500
C 	C 	0.06970 0.70250 0.29750 0.43800
C 	C 	0.11320 0.17750 0.82250 -0.20300
C 	C 	0.06970 0.20250 0.79750 0.43800
C 	C 	0.61320 0.67750 0.82250 -0.18000
C 	C 	0.56970 0.70250 0.79750 0.43300
C 	C 	0.61320 0.17750 0.32250 -0.20200
C 	C 	0.56970 0.20250 0.29750 0.43900
C 	C 	0.67750 0.32250 0.11320 -0.20500
C 	C 	0.70250 0.29750 0.06970 0.43800
C 	C 	0.67750 0.82250 0.61320 -0.18000
C 	C 	0.70250 0.79750 0.56970 0.43300
C 	C 	0.17750 0.32250 0.61320 -0.20200
C 	C 	0.20250 0.29750 0.56970 0.43900
C 	C 	0.17750 0.82250 0.11320 -0.20300
C 	C 	0.20250 0.79750 0.06970 0.43800
C 	C 	0.32250 0.32250 0.88680 -0.17700
C 	C 	0.29750 0.29750 0.93030 0.42800
C 	C 	0.32250 0.82250 0.38680 -0.18500
C 	C 	0.29750 0.79750 0.43030 0.43500
C 	C 	0.82250 0.32250 0.38680 -0.18500
C 	C 	0.79750 0.29750 0.43030 0.43500
C 	C 	0.82250 0.82250 0.88680 -0.15400
C 	C 	0.79750 0.79750 0.93030 0.42100
C 	C 	0.32250 0.67750 0.11320 -0.20500
C 	C 	0.29750 0.70250 0.06970 0.43800
C 	C 	0.32250 0.17750 0.61320 -0.20200
C 	C 	0.29750 0.20250 0.56970 0.43900
C 	C 	0.82250 0.67750 0.61320 -0.18000
C 	C 	0.79750 0.70250 0.56970 0.43300
C 	C 	0.82250 0.17750 0.11320 -0.20300
C 	C 	0.79750 0.20250 0.06970 0.43800
C 	C 	0.67750 0.67750 0.88680 -0.17100
C 	C 	0.70250 0.70250 0.93030 0.42400
C 	C 	0.67750 0.17750 0.38680 -0.20000
C 	C 	0.70250 0.20250 0.43030 0.43800
C 	C 	0.17750 0.67750 0.38680 -0.20000
C 	C 	0.20250 0.70250 0.43030 0.43800
C 	C 	0.17750 0.17750 0.88680 -0.19000
C 	C 	0.20250 0.20250 0.93030 0.42900
C 	C 	0.32250 0.88680 0.32250 -0.17700
C 	C 	0.29750 0.93030 0.29750 0.42800
C 	C 	0.32250 0.38680 0.82250 -0.18500
C 	C 	0.29750 0.43030 0.79750 0.43500
C 	C 	0.82250 0.88680 0.82250 -0.15400
C 	C 	0.79750 0.93030 0.79750 0.42100
C 	C 	0.82250 0.38680 0.32250 -0.18500
C 	C 	0.79750 0.43030 0.29750 0.43500
C 	C 	0.32250 0.11320 0.67750 -0.20500
C 	C 	0.29750 0.06970 0.70250 0.43800
C 	C 	0.32250 0.61320 0.17750 -0.20200
C 	C 	0.29750 0.56970 0.20250 0.43900
C 	C 	0.82250 0.11320 0.17750 -0.20300
C 	C 	0.79750 0.06970 0.20250 0.43800
C 	C 	0.82250 0.61320 0.67750 -0.18000
C 	C 	0.79750 0.56970 0.70250 0.43300
C 	C 	0.67750 0.88680 0.67750 -0.17100
C 	C 	0.70250 0.93030 0.70250 0.42400
C 	C 	0.67750 0.38680 0.17750 -0.20000
C 	C 	0.70250 0.43030 0.20250 0.43800
C 	C 	0.17750 0.88680 0.17750 -0.19000
C 	C 	0.20250 0.93030 0.20250 0.42900
C 	C 	0.17750 0.38680 0.67750 -0.20000
C 	C 	0.20250 0.43030 0.70250 0.43800
C 	C 	0.67750 0.11320 0.32250 -0.20500
C 	C 	0.70250 0.06970 0.29750 0.43800
C 	C 	0.67750 0.61320 0.82250 -0.18000
C 	C 	0.70250 0.56970 0.79750 0.43300
C 	C 	0.17750 0.11320 0.82250 -0.20300
C 	C 	0.20250 0.06970 0.79750 0.43800
C 	C 	0.17750 0.61320 0.32250 -0.20200
C 	C 	0.20250 0.56970 0.29750 0.43900
C 	C 	0.63520 0.86480 0.30170 0.12000
H 	H 	0.62090 0.87910 0.27220 0.01800
C 	C 	0.63520 0.36480 0.80170 0.12200
H 	H 	0.62090 0.37910 0.77220 0.01300
C 	C 	0.36480 0.13520 0.30170 0.13500
H 	H 	0.37910 0.12090 0.27220 -0.00100
C 	C 	0.36480 0.63520 0.80170 0.12200
H 	H 	0.37910 0.62090 0.77220 0.01300
C 	C 	0.86480 0.63520 0.30170 0.12000
H 	H 	0.87910 0.62090 0.27220 0.01800
C 	C 	0.36480 0.86480 0.69830 0.12000
H 	H 	0.37910 0.87910 0.72780 0.02200
C 	C 	0.36480 0.36480 0.19830 0.13400
H 	H 	0.37910 0.37910 0.22780 0.00600
C 	C 	0.86480 0.86480 0.19830 0.11600
H 	H 	0.87910 0.87910 0.22780 0.02800
C 	C 	0.63520 0.13520 0.69830 0.13000
H 	H 	0.62090 0.12090 0.72780 0.00400
C 	C 	0.63520 0.63520 0.19830 0.13000
H 	H 	0.62090 0.62090 0.22780 0.00800
C 	C 	0.30170 0.63520 0.86480 0.12000
H 	H 	0.27220 0.62090 0.87910 0.01800
C 	C 	0.80170 0.63520 0.36480 0.12200
H 	H 	0.77220 0.62090 0.37910 0.01300
C 	C 	0.30170 0.36480 0.13520 0.13500
H 	H 	0.27220 0.37910 0.12090 -0.00100
C 	C 	0.30170 0.86480 0.63520 0.12000
H 	H 	0.27220 0.87910 0.62090 0.01800
C 	C 	0.80170 0.36480 0.63520 0.12200
H 	H 	0.77220 0.37910 0.62090 0.01300
C 	C 	0.69830 0.36480 0.86480 0.12000
H 	H 	0.72780 0.37910 0.87910 0.02200
C 	C 	0.19830 0.36480 0.36480 0.13400
H 	H 	0.22780 0.37910 0.37910 0.00600
C 	C 	0.19830 0.86480 0.86480 0.11600
H 	H 	0.22780 0.87910 0.87910 0.02800
C 	C 	0.69830 0.63520 0.13520 0.13000
H 	H 	0.72780 0.62090 0.12090 0.00400
C 	C 	0.19830 0.63520 0.63520 0.13000
H 	H 	0.22780 0.62090 0.62090 0.00800
C 	C 	0.86480 0.30170 0.63520 0.12000
H 	H 	0.87910 0.27220 0.62090 0.01800
C 	C 	0.86480 0.80170 0.13520 0.11900
H 	H 	0.87910 0.77220 0.12090 0.01500
C 	C 	0.13520 0.30170 0.36480 0.13500
H 	H 	0.12090 0.27220 0.37910 -0.00100
C 	C 	0.13520 0.80170 0.86480 0.11900
H 	H 	0.12090 0.77220 0.87910 0.01500
C 	C 	0.63520 0.30170 0.86480 0.12000
H 	H 	0.62090 0.27220 0.87910 0.01800
C 	C 	0.86480 0.69830 0.36480 0.12000
H 	H 	0.87910 0.72780 0.37910 0.02200
C 	C 	0.86480 0.19830 0.86480 0.11600
H 	H 	0.87910 0.22780 0.87910 0.02800
C 	C 	0.13520 0.69830 0.63520 0.13000
H 	H 	0.12090 0.72780 0.62090 0.00400
C 	C 	0.13520 0.19830 0.13520 0.14100
H 	H 	0.12090 0.22780 0.12090 -0.00900
C 	C 	0.63520 0.19830 0.63520 0.13000
H 	H 	0.62090 0.22780 0.62090 0.00800
C 	C 	0.86480 0.63520 0.69830 0.11800
H 	H 	0.87910 0.62090 0.72780 0.02300
C 	C 	0.86480 0.13520 0.19830 0.12900
H 	H 	0.87910 0.12090 0.22780 0.00900
C 	C 	0.13520 0.36480 0.69830 0.13200
H 	H 	0.12090 0.37910 0.72780 0.00400
C 	C 	0.13520 0.86480 0.19830 0.12900
H 	H 	0.12090 0.87910 0.22780 0.00900
C 	C 	0.63520 0.86480 0.69830 0.11800
H 	H 	0.62090 0.87910 0.72780 0.02300
C 	C 	0.86480 0.36480 0.30170 0.12200
H 	H 	0.87910 0.37910 0.27220 0.01700
C 	C 	0.86480 0.86480 0.80170 0.10600
H 	H 	0.87910 0.87910 0.77220 0.03300
C 	C 	0.13520 0.63520 0.30170 0.13300
H 	H 	0.12090 0.62090 0.27220 -0.00100
C 	C 	0.13520 0.13520 0.80170 0.13200
H 	H 	0.12090 0.12090 0.77220 -0.00400
C 	C 	0.63520 0.63520 0.80170 0.12000
H 	H 	0.62090 0.62090 0.77220 0.01300
C 	C 	0.63520 0.30170 0.13520 0.13300
H 	H 	0.62090 0.27220 0.12090 -0.00100
C 	C 	0.63520 0.80170 0.63520 0.12000
H 	H 	0.62090 0.77220 0.62090 0.01300
C 	C 	0.36480 0.30170 0.86480 0.12200
H 	H 	0.37910 0.27220 0.87910 0.01700
C 	C 	0.36480 0.80170 0.36480 0.12400
H 	H 	0.37910 0.77220 0.37910 0.01200
C 	C 	0.86480 0.80170 0.86480 0.10600
H 	H 	0.87910 0.77220 0.87910 0.03300
C 	C 	0.36480 0.69830 0.13520 0.13200
H 	H 	0.37910 0.72780 0.12090 0.00400
C 	C 	0.36480 0.19830 0.63520 0.13200
H 	H 	0.37910 0.22780 0.62090 0.00700
C 	C 	0.86480 0.69830 0.63520 0.11800
H 	H 	0.87910 0.72780 0.62090 0.02300
C 	C 	0.63520 0.69830 0.86480 0.11800
H 	H 	0.62090 0.72780 0.87910 0.02300
C 	C 	0.63520 0.19830 0.36480 0.13200
H 	H 	0.62090 0.22780 0.37910 0.00700
C 	C 	0.30170 0.86480 0.36480 0.12200
H 	H 	0.27220 0.87910 0.37910 0.01700
C 	C 	0.80170 0.86480 0.86480 0.10600
H 	H 	0.77220 0.87910 0.87910 0.03300
C 	C 	0.30170 0.13520 0.63520 0.13300
H 	H 	0.27220 0.12090 0.62090 -0.00100
C 	C 	0.80170 0.13520 0.13520 0.13200
H 	H 	0.77220 0.12090 0.12090 -0.00400
C 	C 	0.80170 0.63520 0.63520 0.12000
H 	H 	0.77220 0.62090 0.62090 0.01300
C 	C 	0.69830 0.86480 0.63520 0.11800
H 	H 	0.72780 0.87910 0.62090 0.02300
C 	C 	0.19830 0.86480 0.13520 0.12900
H 	H 	0.22780 0.87910 0.12090 0.00900
C 	C 	0.69830 0.13520 0.36480 0.13200
H 	H 	0.72780 0.12090 0.37910 0.00400
C 	C 	0.69830 0.63520 0.86480 0.11800
H 	H 	0.72780 0.62090 0.87910 0.02300
C 	C 	0.19830 0.13520 0.86480 0.12900
H 	H 	0.22780 0.12090 0.87910 0.00900
C 	C 	0.36480 0.13520 0.69830 0.13200
H 	H 	0.37910 0.12090 0.72780 0.00400
C 	C 	0.36480 0.63520 0.19830 0.13200
H 	H 	0.37910 0.62090 0.22780 0.00700
C 	C 	0.63520 0.36480 0.19830 0.13200
H 	H 	0.62090 0.37910 0.22780 0.00700
C 	C 	0.63520 0.13520 0.30170 0.13300
H 	H 	0.62090 0.12090 0.27220 -0.00100
C 	C 	0.36480 0.86480 0.30170 0.12200
H 	H 	0.37910 0.87910 0.27220 0.01700
C 	C 	0.36480 0.36480 0.80170 0.12400
H 	H 	0.37910 0.37910 0.77220 0.01200
C 	C 	0.69830 0.36480 0.13520 0.13200
H 	H 	0.72780 0.37910 0.12090 0.00400
C 	C 	0.19830 0.36480 0.63520 0.13200
H 	H 	0.22780 0.37910 0.62090 0.00700
C 	C 	0.19830 0.63520 0.36480 0.13200
H 	H 	0.22780 0.62090 0.37910 0.00700
C 	C 	0.30170 0.63520 0.13520 0.13300
H 	H 	0.27220 0.62090 0.12090 -0.00100
C 	C 	0.30170 0.36480 0.86480 0.12200
H 	H 	0.27220 0.37910 0.87910 0.01700
C 	C 	0.80170 0.36480 0.36480 0.12400
H 	H 	0.77220 0.37910 0.37910 0.01200
C 	C 	0.13520 0.69830 0.36480 0.13200
H 	H 	0.12090 0.72780 0.37910 0.00400
C 	C 	0.13520 0.19830 0.86480 0.12900
H 	H 	0.12090 0.22780 0.87910 0.00900
C 	C 	0.86480 0.19830 0.13520 0.12900
H 	H 	0.87910 0.22780 0.12090 0.00900
C 	C 	0.13520 0.30170 0.63520 0.13300
H 	H 	0.12090 0.27220 0.62090 -0.00100
C 	C 	0.13520 0.80170 0.13520 0.13200
H 	H 	0.12090 0.77220 0.12090 -0.00400
C 	C 	0.86480 0.30170 0.36480 0.12200
H 	H 	0.87910 0.27220 0.37910 0.01700
C 	C 	0.13520 0.36480 0.30170 0.13500
H 	H 	0.12090 0.37910 0.27220 -0.00100
C 	C 	0.13520 0.86480 0.80170 0.11900
H 	H 	0.12090 0.87910 0.77220 0.01500
C 	C 	0.86480 0.13520 0.80170 0.11900
H 	H 	0.87910 0.12090 0.77220 0.01500
C 	C 	0.13520 0.63520 0.69830 0.13000
H 	H 	0.12090 0.62090 0.72780 0.00400
C 	C 	0.13520 0.13520 0.19830 0.14100
H 	H 	0.12090 0.12090 0.22780 -0.00900
C 	C 	0.86480 0.36480 0.69830 0.12000
H 	H 	0.87910 0.37910 0.72780 0.02200
C 	C 	0.36480 0.69830 0.86480 0.12000
H 	H 	0.37910 0.72780 0.87910 0.02200
C 	C 	0.36480 0.19830 0.36480 0.13400
H 	H 	0.37910 0.22780 0.37910 0.00600
C 	C 	0.63520 0.69830 0.13520 0.13000
H 	H 	0.62090 0.72780 0.12090 0.00400
C 	C 	0.63520 0.80170 0.36480 0.12200
H 	H 	0.62090 0.77220 0.37910 0.01300
C 	C 	0.36480 0.30170 0.13520 0.13500
H 	H 	0.37910 0.27220 0.12090 -0.00100
C 	C 	0.36480 0.80170 0.63520 0.12200
H 	H 	0.37910 0.77220 0.62090 0.01300
C 	C 	0.69830 0.13520 0.63520 0.13000
H 	H 	0.72780 0.12090 0.62090 0.00400
C 	C 	0.19830 0.13520 0.13520 0.14100
H 	H 	0.22780 0.12090 0.12090 -0.00900
C 	C 	0.69830 0.86480 0.36480 0.12000
H 	H 	0.72780 0.87910 0.37910 0.02200
C 	C 	0.30170 0.13520 0.36480 0.13500
H 	H 	0.27220 0.12090 0.37910 -0.00100
C 	C 	0.80170 0.13520 0.86480 0.11900
H 	H 	0.77220 0.12090 0.87910 0.01500
C 	C 	0.80170 0.86480 0.13520 0.11900
H 	H 	0.77220 0.87910 0.12090 0.01500
