data_crystal

_cell_length_a 38.56900
_cell_length_b 38.56900
_cell_length_c 28.64700
_cell_angle_alpha 90.00000
_cell_angle_beta  90.00000
_cell_angle_gamma 120.00000

_symmetry_space_group_name_	'P 1'
_symmetry_space_group_name_H-M	'P 1'

loop_
_symmetry_equiv_pos_as_xyz
  x,y,z

loop_
_atom_site_label
_atom_site_type_symbol
_atom_site_fract_x
_atom_site_fract_y
_atom_site_fract_z
_atom_site_charge
Zn	Zn	0.71944 0.24205 0.45337 1.19600
Zn	Zn	0.73865 0.21700 0.54392 1.19800
Zn	Zn	0.96966 0.23275 0.54976 1.19500
Zn	Zn	0.01533 0.25878 0.46014 1.19900
C 	C 	0.84180 0.26180 0.45620 -0.09800
C 	C 	0.84980 0.27860 0.41230 -0.03800
H 	H 	0.83040 0.28260 0.39660 0.05600
C 	C 	0.88530 0.28940 0.39140 0.06800
C 	C 	0.91420 0.28420 0.41310 -0.03600
H 	H 	0.93870 0.29150 0.39760 0.06300
C 	C 	0.90740 0.26800 0.45850 -0.09700
C 	C 	0.87010 0.25700 0.47960 0.03700
H 	H 	0.86460 0.24620 0.51020 0.04000
C 	C 	0.80230 0.24910 0.47720 0.38000
C 	C 	0.93670 0.25960 0.48170 0.40000
C 	C 	0.92930 0.33830 0.28540 0.06800
C 	C 	0.90140 0.34490 0.26360 -0.03100
H 	H 	0.87640 0.33680 0.27810 0.06200
C 	C 	0.91010 0.36390 0.21890 -0.11900
C 	C 	0.94610 0.37490 0.19930 0.05800
H 	H 	0.95160 0.38640 0.16900 0.03300
C 	C 	0.97560 0.37000 0.22220 -0.11300
C 	C 	0.96640 0.35110 0.26460 -0.02800
H 	H 	0.98560 0.34670 0.28020 0.05500
C 	C 	0.87990 0.37080 0.19670 0.42100
C 	C 	0.01610 0.38390 0.20120 0.43600
C 	C 	0.91950 0.13690 0.44870 -0.09300
C 	C 	0.92760 0.12750 0.40700 -0.03600
H 	H 	0.95200 0.14580 0.39220 0.06300
C 	C 	0.90140 0.09160 0.38390 0.07100
C 	C 	0.86440 0.06660 0.40190 -0.03900
H 	H 	0.84450 0.04480 0.38440 0.05600
C 	C 	0.85660 0.07460 0.44780 -0.10400
C 	C 	0.88350 0.10860 0.47110 0.03900
H 	H 	0.87800 0.11320 0.50210 0.04000
C 	C 	0.94740 0.17450 0.47160 0.36400
C 	C 	0.81730 0.04530 0.46910 0.42400
C 	C 	0.98340 0.11000 0.25720 -0.03900
H 	H 	0.00420 0.13220 0.27340 0.06000
C 	C 	0.99090 0.09940 0.21400 -0.09900
C 	C 	0.95910 0.06550 0.19040 0.03000
H 	H 	0.96350 0.05810 0.16030 0.04300
C 	C 	0.92370 0.04460 0.21080 -0.07200
C 	C 	0.91500 0.05360 0.25460 -0.05100
H 	H 	0.88970 0.03720 0.26890 0.06900
C 	C 	0.94520 0.08830 0.27710 0.08100
C 	C 	0.03170 0.12230 0.19490 0.41100
C 	C 	0.88880 0.00540 0.18750 0.40500
N 	N 	0.89090 0.30810 0.34540 -0.08500
N 	N 	0.92500 0.32050 0.32890 -0.08800
N 	N 	0.90790 0.08030 0.33950 -0.08700
N 	N 	0.94120 0.10090 0.32060 -0.08900
O 	O 	0.77624 0.25030 0.45220 -0.48600
O 	O 	0.79418 0.23370 0.51860 -0.44900
O 	O 	0.96583 0.26580 0.45660 -0.48600
O 	O 	0.93062 0.24770 0.52313 -0.47300
O 	O 	0.85124 0.36628 0.22137 -0.48300
O 	O 	0.88721 0.38497 0.15640 -0.48500
O 	O 	0.02151 0.39980 0.16010 -0.48000
O 	O 	0.04045 0.38387 0.22570 -0.51400
O 	O 	0.97697 0.20169 0.44746 -0.47100
O 	O 	0.93818 0.18077 0.51250 -0.45400
O 	O 	0.81000 0.05338 0.50970 -0.47200
O 	O 	0.79516 0.01670 0.44570 -0.50700
O 	O 	0.05776 0.14798 0.21930 -0.50100
O 	O 	0.03725 0.11451 0.15270 -0.46700
O 	O 	0.89609 0.99980 0.14730 -0.48900
O 	O 	0.85982 0.98585 0.21310 -0.49500
Zn	Zn	0.38611 0.57538 0.78670 1.19700
Zn	Zn	0.40532 0.55033 0.87725 1.19900
Zn	Zn	0.63633 0.56608 0.88309 1.19600
Zn	Zn	0.68200 0.59211 0.79347 1.20000
C 	C 	0.50847 0.59513 0.78953 -0.09700
C 	C 	0.51647 0.61193 0.74563 -0.03700
H 	H 	0.49707 0.61593 0.72993 0.05700
C 	C 	0.55197 0.62273 0.72473 0.06900
C 	C 	0.58087 0.61753 0.74643 -0.03500
H 	H 	0.60537 0.62483 0.73093 0.06400
C 	C 	0.57407 0.60133 0.79183 -0.09600
C 	C 	0.53677 0.59033 0.81293 0.03800
H 	H 	0.53127 0.57953 0.84353 0.04100
C 	C 	0.46897 0.58243 0.81053 0.38100
C 	C 	0.60337 0.59293 0.81503 0.40100
C 	C 	0.59597 0.67163 0.61873 0.06900
C 	C 	0.56807 0.67823 0.59693 -0.03000
H 	H 	0.54307 0.67013 0.61143 0.06300
C 	C 	0.57677 0.69723 0.55223 -0.11800
C 	C 	0.61277 0.70823 0.53263 0.05900
H 	H 	0.61827 0.71973 0.50233 0.03400
C 	C 	0.64227 0.70333 0.55553 -0.11200
C 	C 	0.63307 0.68443 0.59793 -0.02700
H 	H 	0.65227 0.68003 0.61353 0.05600
C 	C 	0.54657 0.70413 0.53003 0.42200
C 	C 	0.68277 0.71723 0.53453 0.43700
C 	C 	0.58617 0.47023 0.78203 -0.09200
C 	C 	0.59427 0.46083 0.74033 -0.03500
H 	H 	0.61867 0.47913 0.72553 0.06400
C 	C 	0.56807 0.42493 0.71723 0.07200
C 	C 	0.53107 0.39993 0.73523 -0.03800
H 	H 	0.51117 0.37813 0.71773 0.05700
C 	C 	0.52327 0.40793 0.78113 -0.10300
C 	C 	0.55017 0.44193 0.80443 0.04000
H 	H 	0.54467 0.44653 0.83543 0.04000
C 	C 	0.61407 0.50783 0.80493 0.36400
C 	C 	0.48397 0.37863 0.80243 0.42400
C 	C 	0.65007 0.44333 0.59053 -0.03900
H 	H 	0.67087 0.46553 0.60673 0.06100
C 	C 	0.65757 0.43273 0.54733 -0.09900
C 	C 	0.62577 0.39883 0.52373 0.03000
H 	H 	0.63017 0.39143 0.49363 0.04300
C 	C 	0.59037 0.37793 0.54413 -0.07200
C 	C 	0.58167 0.38693 0.58793 -0.05100
H 	H 	0.55637 0.37053 0.60223 0.06900
C 	C 	0.61187 0.42163 0.61043 0.08100
C 	C 	0.69837 0.45563 0.52823 0.41100
C 	C 	0.55547 0.33873 0.52083 0.40500
N 	N 	0.55757 0.64143 0.67873 -0.08500
N 	N 	0.59167 0.65383 0.66223 -0.08800
N 	N 	0.57457 0.41363 0.67283 -0.08700
N 	N 	0.60787 0.43423 0.65393 -0.08900
O 	O 	0.44291 0.58363 0.78553 -0.48600
O 	O 	0.46085 0.56703 0.85193 -0.44900
O 	O 	0.63250 0.59913 0.78993 -0.48600
O 	O 	0.59729 0.58103 0.85646 -0.47300
O 	O 	0.51791 0.69961 0.55470 -0.48300
O 	O 	0.55388 0.71830 0.48973 -0.48500
O 	O 	0.68818 0.73313 0.49343 -0.48000
O 	O 	0.70712 0.71720 0.55903 -0.51400
O 	O 	0.64364 0.53502 0.78079 -0.47100
O 	O 	0.60485 0.51410 0.84583 -0.45400
O 	O 	0.47667 0.38671 0.84303 -0.47200
O 	O 	0.46183 0.35003 0.77903 -0.50700
O 	O 	0.72443 0.48131 0.55263 -0.50100
O 	O 	0.70392 0.44784 0.48603 -0.46700
O 	O 	0.56276 0.33313 0.48063 -0.48900
O 	O 	0.52649 0.31918 0.54643 -0.49500
Zn	Zn	0.05277 0.90872 0.12004 1.19700
Zn	Zn	0.07198 0.88367 0.21059 1.19900
Zn	Zn	0.30299 0.89942 0.21643 1.19600
Zn	Zn	0.34866 0.92545 0.12681 1.20000
C 	C 	0.17513 0.92847 0.12287 -0.09700
C 	C 	0.18313 0.94527 0.07897 -0.03700
H 	H 	0.16373 0.94927 0.06327 0.05700
C 	C 	0.21863 0.95607 0.05807 0.06900
C 	C 	0.24753 0.95087 0.07977 -0.03500
H 	H 	0.27203 0.95817 0.06427 0.06400
C 	C 	0.24073 0.93467 0.12517 -0.09600
C 	C 	0.20343 0.92367 0.14627 0.03800
H 	H 	0.19793 0.91287 0.17687 0.04100
C 	C 	0.13563 0.91577 0.14387 0.38100
C 	C 	0.27003 0.92627 0.14837 0.40100
C 	C 	0.26263 0.00497 0.95207 0.06900
C 	C 	0.23473 0.01157 0.93027 -0.03000
H 	H 	0.20973 0.00347 0.94477 0.06300
C 	C 	0.24343 0.03057 0.88557 -0.11800
C 	C 	0.27943 0.04157 0.86597 0.05900
H 	H 	0.28493 0.05307 0.83567 0.03400
C 	C 	0.30893 0.03667 0.88887 -0.11200
C 	C 	0.29973 0.01777 0.93127 -0.02700
H 	H 	0.31893 0.01337 0.94687 0.05600
C 	C 	0.21323 0.03747 0.86337 0.42200
C 	C 	0.34943 0.05057 0.86787 0.43700
C 	C 	0.25283 0.80357 0.11537 -0.09200
C 	C 	0.26093 0.79417 0.07367 -0.03500
H 	H 	0.28533 0.81247 0.05887 0.06400
C 	C 	0.23473 0.75827 0.05057 0.07200
C 	C 	0.19773 0.73327 0.06857 -0.03800
H 	H 	0.17783 0.71147 0.05107 0.05700
C 	C 	0.18993 0.74127 0.11447 -0.10300
C 	C 	0.21683 0.77527 0.13777 0.04000
H 	H 	0.21133 0.77987 0.16877 0.04000
C 	C 	0.28073 0.84117 0.13827 0.36400
C 	C 	0.15063 0.71197 0.13577 0.42400
C 	C 	0.31673 0.77667 0.92387 -0.03900
H 	H 	0.33753 0.79887 0.94007 0.06100
C 	C 	0.32423 0.76607 0.88067 -0.09900
C 	C 	0.29243 0.73217 0.85707 0.03000
H 	H 	0.29683 0.72477 0.82697 0.04300
C 	C 	0.25703 0.71127 0.87747 -0.07200
C 	C 	0.24833 0.72027 0.92127 -0.05100
H 	H 	0.22303 0.70387 0.93557 0.06900
C 	C 	0.27853 0.75497 0.94377 0.08100
C 	C 	0.36503 0.78897 0.86157 0.41100
C 	C 	0.22213 0.67207 0.85417 0.40500
N 	N 	0.22423 0.97477 0.01207 -0.08500
N 	N 	0.25833 0.98717 0.99557 -0.08800
N 	N 	0.24123 0.74697 0.00617 -0.08700
N 	N 	0.27453 0.76757 0.98727 -0.08900
O 	O 	0.10957 0.91697 0.11887 -0.48600
O 	O 	0.12751 0.90037 0.18527 -0.44900
O 	O 	0.29916 0.93247 0.12327 -0.48600
O 	O 	0.26395 0.91437 0.18980 -0.47300
O 	O 	0.18457 0.03295 0.88804 -0.48300
O 	O 	0.22054 0.05164 0.82307 -0.48500
O 	O 	0.35484 0.06647 0.82677 -0.48000
O 	O 	0.37378 0.05054 0.89237 -0.51400
O 	O 	0.31030 0.86836 0.11413 -0.47100
O 	O 	0.27151 0.84744 0.17917 -0.45400
O 	O 	0.14333 0.72005 0.17637 -0.47200
O 	O 	0.12849 0.68337 0.11237 -0.50700
O 	O 	0.39109 0.81465 0.88597 -0.50100
O 	O 	0.37058 0.78118 0.81937 -0.46700
O 	O 	0.22942 0.66647 0.81397 -0.48900
O 	O 	0.19315 0.65252 0.87977 -0.49500
Zn	Zn	0.75795 0.47739 0.45337 1.19700
Zn	Zn	0.78300 0.52165 0.54392 1.19900
Zn	Zn	0.76725 0.73691 0.54976 1.19600
Zn	Zn	0.74122 0.75655 0.46014 1.20000
C 	C 	0.73820 0.58000 0.45620 -0.09700
C 	C 	0.72140 0.57120 0.41230 -0.03700
H 	H 	0.71740 0.54780 0.39660 0.05700
C 	C 	0.71060 0.59590 0.39140 0.06900
C 	C 	0.71580 0.63000 0.41310 -0.03500
H 	H 	0.70850 0.64720 0.39760 0.06400
C 	C 	0.73200 0.63940 0.45850 -0.09600
C 	C 	0.74300 0.61310 0.47960 0.03800
H 	H 	0.75380 0.61840 0.51020 0.04100
C 	C 	0.75090 0.55320 0.47720 0.38100
C 	C 	0.74040 0.67710 0.48170 0.40100
C 	C 	0.66170 0.59100 0.28540 0.06900
C 	C 	0.65510 0.55650 0.26360 -0.03000
H 	H 	0.66320 0.53960 0.27810 0.06300
C 	C 	0.63610 0.54620 0.21890 -0.11800
C 	C 	0.62510 0.57120 0.19930 0.05900
H 	H 	0.61360 0.56520 0.16900 0.03400
C 	C 	0.63000 0.60560 0.22220 -0.11200
C 	C 	0.64890 0.61530 0.26460 -0.02700
H 	H 	0.65330 0.63890 0.28020 0.05600
C 	C 	0.62920 0.50910 0.19670 0.42200
C 	C 	0.61610 0.63220 0.20120 0.43700
C 	C 	0.86310 0.78260 0.44870 -0.09200
C 	C 	0.87250 0.80010 0.40700 -0.03500
H 	H 	0.85420 0.80620 0.39220 0.06400
C 	C 	0.90840 0.80980 0.38390 0.07200
C 	C 	0.93340 0.79780 0.40190 -0.03800
H 	H 	0.95520 0.79970 0.38440 0.05700
C 	C 	0.92540 0.78200 0.44780 -0.10300
C 	C 	0.89140 0.77490 0.47110 0.04000
H 	H 	0.88680 0.76480 0.50210 0.04000
C 	C 	0.82550 0.77290 0.47160 0.36400
C 	C 	0.95470 0.77200 0.46910 0.42400
C 	C 	0.89000 0.87340 0.25720 -0.03900
H 	H 	0.86780 0.87200 0.27340 0.06100
C 	C 	0.90060 0.89150 0.21400 -0.09900
C 	C 	0.93450 0.89360 0.19040 0.03000
H 	H 	0.94190 0.90540 0.16030 0.04300
C 	C 	0.95540 0.87910 0.21080 -0.07200
C 	C 	0.94640 0.86140 0.25460 -0.05100
H 	H 	0.96280 0.85250 0.26890 0.06900
C 	C 	0.91170 0.85690 0.27710 0.08100
C 	C 	0.87770 0.90940 0.19490 0.41100
C 	C 	0.99460 0.88340 0.18750 0.40500
N 	N 	0.69190 0.58280 0.34540 -0.08500
N 	N 	0.67950 0.60450 0.32890 -0.08800
N 	N 	0.91970 0.82760 0.33950 -0.08700
N 	N 	0.89910 0.84030 0.32060 -0.08900
O 	O 	0.74970 0.52594 0.45220 -0.48600
O 	O 	0.76630 0.56048 0.51860 -0.44900
O 	O 	0.73420 0.70003 0.45660 -0.48600
O 	O 	0.75230 0.68292 0.52313 -0.47300
O 	O 	0.63372 0.48496 0.22137 -0.48300
O 	O 	0.61503 0.50224 0.15640 -0.48500
O 	O 	0.60020 0.62171 0.16010 -0.48000
O 	O 	0.61613 0.65658 0.22570 -0.51400
O 	O 	0.79831 0.77528 0.44746 -0.47100
O 	O 	0.81923 0.75741 0.51250 -0.45400
O 	O 	0.94662 0.75662 0.50970 -0.47200
O 	O 	0.98330 0.77846 0.44570 -0.50700
O 	O 	0.85202 0.90978 0.21930 -0.50100
O 	O 	0.88549 0.92274 0.15270 -0.46700
O 	O 	0.00020 0.89629 0.14730 -0.48900
O 	O 	0.01415 0.87397 0.21310 -0.49500
Zn	Zn	0.42462 0.81072 0.78670 1.19700
Zn	Zn	0.44967 0.85498 0.87725 1.19900
Zn	Zn	0.43392 0.07024 0.88309 1.19600
Zn	Zn	0.40789 0.08988 0.79347 1.20000
C 	C 	0.40487 0.91333 0.78953 -0.09700
C 	C 	0.38807 0.90453 0.74563 -0.03700
H 	H 	0.38407 0.88113 0.72993 0.05700
C 	C 	0.37727 0.92923 0.72473 0.06900
C 	C 	0.38247 0.96333 0.74643 -0.03500
H 	H 	0.37517 0.98053 0.73093 0.06400
C 	C 	0.39867 0.97273 0.79183 -0.09600
C 	C 	0.40967 0.94643 0.81293 0.03800
H 	H 	0.42047 0.95173 0.84353 0.04100
C 	C 	0.41757 0.88653 0.81053 0.38100
C 	C 	0.40707 0.01043 0.81503 0.40100
C 	C 	0.32837 0.92433 0.61873 0.06900
C 	C 	0.32177 0.88983 0.59693 -0.03000
H 	H 	0.32987 0.87293 0.61143 0.06300
C 	C 	0.30277 0.87953 0.55223 -0.11800
C 	C 	0.29177 0.90453 0.53263 0.05900
H 	H 	0.28027 0.89853 0.50233 0.03400
C 	C 	0.29667 0.93893 0.55553 -0.11200
C 	C 	0.31557 0.94863 0.59793 -0.02700
H 	H 	0.31997 0.97223 0.61353 0.05600
C 	C 	0.29587 0.84243 0.53003 0.42200
C 	C 	0.28277 0.96553 0.53453 0.43700
C 	C 	0.52977 0.11593 0.78203 -0.09200
C 	C 	0.53917 0.13343 0.74033 -0.03500
H 	H 	0.52087 0.13953 0.72553 0.06400
C 	C 	0.57507 0.14313 0.71723 0.07200
C 	C 	0.60007 0.13113 0.73523 -0.03800
H 	H 	0.62187 0.13303 0.71773 0.05700
C 	C 	0.59207 0.11533 0.78113 -0.10300
C 	C 	0.55807 0.10823 0.80443 0.04000
H 	H 	0.55347 0.09813 0.83543 0.04000
C 	C 	0.49217 0.10623 0.80493 0.36400
C 	C 	0.62137 0.10533 0.80243 0.42400
C 	C 	0.55667 0.20673 0.59053 -0.03900
H 	H 	0.53447 0.20533 0.60673 0.06100
C 	C 	0.56727 0.22483 0.54733 -0.09900
C 	C 	0.60117 0.22693 0.52373 0.03000
H 	H 	0.60857 0.23873 0.49363 0.04300
C 	C 	0.62207 0.21243 0.54413 -0.07200
C 	C 	0.61307 0.19473 0.58793 -0.05100
H 	H 	0.62947 0.18583 0.60223 0.06900
C 	C 	0.57837 0.19023 0.61043 0.08100
C 	C 	0.54437 0.24273 0.52823 0.41100
C 	C 	0.66127 0.21673 0.52083 0.40500
N 	N 	0.35857 0.91613 0.67873 -0.08500
N 	N 	0.34617 0.93783 0.66223 -0.08800
N 	N 	0.58637 0.16093 0.67283 -0.08700
N 	N 	0.56577 0.17363 0.65393 -0.08900
O 	O 	0.41637 0.85927 0.78553 -0.48600
O 	O 	0.43297 0.89381 0.85193 -0.44900
O 	O 	0.40087 0.03336 0.78993 -0.48600
O 	O 	0.41897 0.01625 0.85646 -0.47300
O 	O 	0.30039 0.81829 0.55470 -0.48300
O 	O 	0.28170 0.83557 0.48973 -0.48500
O 	O 	0.26687 0.95504 0.49343 -0.48000
O 	O 	0.28280 0.98991 0.55903 -0.51400
O 	O 	0.46498 0.10861 0.78079 -0.47100
O 	O 	0.48590 0.09074 0.84583 -0.45400
O 	O 	0.61329 0.08995 0.84303 -0.47200
O 	O 	0.64997 0.11179 0.77903 -0.50700
O 	O 	0.51869 0.24311 0.55263 -0.50100
O 	O 	0.55216 0.25607 0.48603 -0.46700
O 	O 	0.66687 0.22962 0.48063 -0.48900
O 	O 	0.68082 0.20730 0.54643 -0.49500
Zn	Zn	0.09128 0.14406 0.12004 1.19700
Zn	Zn	0.11633 0.18832 0.21059 1.19900
Zn	Zn	0.10058 0.40358 0.21643 1.19600
Zn	Zn	0.07455 0.42322 0.12681 1.20000
C 	C 	0.07153 0.24667 0.12287 -0.09700
C 	C 	0.05473 0.23787 0.07897 -0.03700
H 	H 	0.05073 0.21447 0.06327 0.05700
C 	C 	0.04393 0.26257 0.05807 0.06900
C 	C 	0.04913 0.29667 0.07977 -0.03500
H 	H 	0.04183 0.31387 0.06427 0.06400
C 	C 	0.06533 0.30607 0.12517 -0.09600
C 	C 	0.07633 0.27977 0.14627 0.03800
H 	H 	0.08713 0.28507 0.17687 0.04100
C 	C 	0.08423 0.21987 0.14387 0.38100
C 	C 	0.07373 0.34377 0.14837 0.40100
C 	C 	0.99503 0.25767 0.95207 0.06900
C 	C 	0.98843 0.22317 0.93027 -0.03000
H 	H 	0.99653 0.20627 0.94477 0.06300
C 	C 	0.96943 0.21287 0.88557 -0.11800
C 	C 	0.95843 0.23787 0.86597 0.05900
H 	H 	0.94693 0.23187 0.83567 0.03400
C 	C 	0.96333 0.27227 0.88887 -0.11200
C 	C 	0.98223 0.28197 0.93127 -0.02700
H 	H 	0.98663 0.30557 0.94687 0.05600
C 	C 	0.96253 0.17577 0.86337 0.42200
C 	C 	0.94943 0.29887 0.86787 0.43800
C 	C 	0.19643 0.44927 0.11537 -0.09200
C 	C 	0.20583 0.46677 0.07367 -0.03500
H 	H 	0.18753 0.47287 0.05887 0.06400
C 	C 	0.24173 0.47647 0.05057 0.07200
C 	C 	0.26673 0.46447 0.06857 -0.03800
H 	H 	0.28853 0.46637 0.05107 0.05700
C 	C 	0.25873 0.44867 0.11447 -0.10300
C 	C 	0.22473 0.44157 0.13777 0.04000
H 	H 	0.22013 0.43147 0.16877 0.04000
C 	C 	0.15883 0.43957 0.13827 0.36400
C 	C 	0.28803 0.43867 0.13577 0.42400
C 	C 	0.22333 0.54007 0.92387 -0.03900
H 	H 	0.20113 0.53867 0.94007 0.06000
C 	C 	0.23393 0.55817 0.88067 -0.09900
C 	C 	0.26783 0.56027 0.85707 0.03000
H 	H 	0.27523 0.57207 0.82697 0.04300
C 	C 	0.28873 0.54577 0.87747 -0.07200
C 	C 	0.27973 0.52807 0.92127 -0.05100
H 	H 	0.29613 0.51917 0.93557 0.06900
C 	C 	0.24503 0.52357 0.94377 0.08100
C 	C 	0.21103 0.57607 0.86157 0.41100
C 	C 	0.32793 0.55007 0.85417 0.40500
N 	N 	0.02523 0.24947 0.01207 -0.08500
N 	N 	0.01283 0.27117 0.99557 -0.08800
N 	N 	0.25303 0.49427 0.00617 -0.08700
N 	N 	0.23243 0.50697 0.98727 -0.08900
O 	O 	0.08303 0.19261 0.11887 -0.48600
O 	O 	0.09963 0.22715 0.18527 -0.44900
O 	O 	0.06753 0.36670 0.12327 -0.48600
O 	O 	0.08563 0.34959 0.18980 -0.47300
O 	O 	0.96705 0.15163 0.88804 -0.48300
O 	O 	0.94836 0.16891 0.82307 -0.48500
O 	O 	0.93353 0.28838 0.82677 -0.48000
O 	O 	0.94946 0.32325 0.89237 -0.51400
O 	O 	0.13164 0.44195 0.11413 -0.47100
O 	O 	0.15256 0.42408 0.17917 -0.45400
O 	O 	0.27995 0.42329 0.17637 -0.47200
O 	O 	0.31663 0.44513 0.11237 -0.50700
O 	O 	0.18535 0.57645 0.88597 -0.50100
O 	O 	0.21882 0.58941 0.81937 -0.46700
O 	O 	0.33353 0.56296 0.81397 -0.48800
O 	O 	0.34748 0.54064 0.87977 -0.49400
Zn	Zn	0.52261 0.28056 0.45337 1.19700
Zn	Zn	0.47835 0.26135 0.54392 1.19900
Zn	Zn	0.26309 0.03034 0.54976 1.19600
Zn	Zn	0.24345 0.98467 0.46014 1.20000
C 	C 	0.42000 0.15820 0.45620 -0.09700
C 	C 	0.42880 0.15020 0.41230 -0.03700
H 	H 	0.45220 0.16960 0.39660 0.05700
C 	C 	0.40410 0.11470 0.39140 0.06900
C 	C 	0.37000 0.08580 0.41310 -0.03500
H 	H 	0.35280 0.06130 0.39760 0.06400
C 	C 	0.36060 0.09260 0.45850 -0.09600
C 	C 	0.38690 0.12990 0.47960 0.03800
H 	H 	0.38160 0.13540 0.51020 0.04100
C 	C 	0.44680 0.19770 0.47720 0.38100
C 	C 	0.32290 0.06330 0.48170 0.40100
C 	C 	0.40900 0.07070 0.28540 0.06900
C 	C 	0.44350 0.09860 0.26360 -0.03000
H 	H 	0.46040 0.12360 0.27810 0.06300
C 	C 	0.45380 0.08990 0.21890 -0.11800
C 	C 	0.42880 0.05390 0.19930 0.05900
H 	H 	0.43480 0.04840 0.16900 0.03400
C 	C 	0.39440 0.02440 0.22220 -0.11200
C 	C 	0.38470 0.03360 0.26460 -0.02700
H 	H 	0.36110 0.01440 0.28020 0.05600
C 	C 	0.49090 0.12010 0.19670 0.42200
C 	C 	0.36780 0.98390 0.20120 0.43700
C 	C 	0.21740 0.08050 0.44870 -0.09200
C 	C 	0.19990 0.07240 0.40700 -0.03500
H 	H 	0.19380 0.04800 0.39220 0.06400
C 	C 	0.19020 0.09860 0.38390 0.07200
C 	C 	0.20220 0.13560 0.40190 -0.03800
H 	H 	0.20030 0.15550 0.38440 0.05700
C 	C 	0.21800 0.14340 0.44780 -0.10300
C 	C 	0.22510 0.11650 0.47110 0.04000
H 	H 	0.23520 0.12200 0.50210 0.04000
C 	C 	0.22710 0.05260 0.47160 0.36400
C 	C 	0.22800 0.18270 0.46910 0.42400
C 	C 	0.12660 0.01660 0.25720 -0.03900
H 	H 	0.12800 0.99580 0.27340 0.06000
C 	C 	0.10850 0.00910 0.21400 -0.09900
C 	C 	0.10640 0.04090 0.19040 0.03000
H 	H 	0.09460 0.03650 0.16030 0.04300
C 	C 	0.12090 0.07630 0.21080 -0.07200
C 	C 	0.13860 0.08500 0.25460 -0.05100
H 	H 	0.14750 0.11030 0.26890 0.06900
C 	C 	0.14310 0.05480 0.27710 0.08100
C 	C 	0.09060 0.96830 0.19490 0.41100
C 	C 	0.11660 0.11120 0.18750 0.40500
N 	N 	0.41720 0.10910 0.34540 -0.08500
N 	N 	0.39550 0.07500 0.32890 -0.08800
N 	N 	0.17240 0.09210 0.33950 -0.08700
N 	N 	0.15970 0.05880 0.32060 -0.08900
O 	O 	0.47406 0.22376 0.45220 -0.48600
O 	O 	0.43952 0.20582 0.51860 -0.44900
O 	O 	0.29997 0.03417 0.45660 -0.48600
O 	O 	0.31708 0.06938 0.52313 -0.47300
O 	O 	0.51504 0.14876 0.22137 -0.48300
O 	O 	0.49776 0.11279 0.15640 -0.48500
O 	O 	0.37829 0.97849 0.16010 -0.48000
O 	O 	0.34342 0.95955 0.22570 -0.51400
O 	O 	0.22472 0.02303 0.44746 -0.47100
O 	O 	0.24259 0.06182 0.51250 -0.45400
O 	O 	0.24338 0.19000 0.50970 -0.47200
O 	O 	0.22154 0.20484 0.44570 -0.50700
O 	O 	0.09022 0.94224 0.21930 -0.50100
O 	O 	0.07726 0.96275 0.15270 -0.46700
O 	O 	0.10371 0.10391 0.14730 -0.48900
O 	O 	0.12603 0.14018 0.21310 -0.49500
Zn	Zn	0.18928 0.61389 0.78670 1.19700
Zn	Zn	0.14502 0.59468 0.87725 1.19900
Zn	Zn	0.92976 0.36367 0.88309 1.19600
Zn	Zn	0.91012 0.31800 0.79347 1.20000
C 	C 	0.08667 0.49153 0.78953 -0.09700
C 	C 	0.09547 0.48353 0.74563 -0.03700
H 	H 	0.11887 0.50293 0.72993 0.05700
C 	C 	0.07077 0.44803 0.72473 0.06900
C 	C 	0.03667 0.41913 0.74643 -0.03500
H 	H 	0.01947 0.39463 0.73093 0.06400
C 	C 	0.02727 0.42593 0.79183 -0.09600
C 	C 	0.05357 0.46323 0.81293 0.03800
H 	H 	0.04827 0.46873 0.84353 0.04100
C 	C 	0.11347 0.53103 0.81053 0.38100
C 	C 	0.98957 0.39663 0.81503 0.40100
C 	C 	0.07567 0.40403 0.61873 0.06900
C 	C 	0.11017 0.43193 0.59693 -0.03000
H 	H 	0.12707 0.45693 0.61143 0.06300
C 	C 	0.12047 0.42323 0.55223 -0.11800
C 	C 	0.09547 0.38723 0.53263 0.05900
H 	H 	0.10147 0.38173 0.50233 0.03400
C 	C 	0.06107 0.35773 0.55553 -0.11200
C 	C 	0.05137 0.36693 0.59793 -0.02700
H 	H 	0.02777 0.34773 0.61353 0.05600
C 	C 	0.15757 0.45343 0.53003 0.42200
C 	C 	0.03447 0.31723 0.53453 0.43700
C 	C 	0.88407 0.41383 0.78203 -0.09200
C 	C 	0.86657 0.40573 0.74033 -0.03500
H 	H 	0.86047 0.38133 0.72553 0.06400
C 	C 	0.85687 0.43193 0.71723 0.07200
C 	C 	0.86887 0.46893 0.73523 -0.03800
H 	H 	0.86697 0.48883 0.71773 0.05700
C 	C 	0.88467 0.47673 0.78113 -0.10300
C 	C 	0.89177 0.44983 0.80443 0.04000
H 	H 	0.90187 0.45533 0.83543 0.04000
C 	C 	0.89377 0.38593 0.80493 0.36400
C 	C 	0.89467 0.51603 0.80243 0.42400
C 	C 	0.79327 0.34993 0.59053 -0.03900
H 	H 	0.79467 0.32913 0.60673 0.06100
C 	C 	0.77517 0.34243 0.54733 -0.09900
C 	C 	0.77307 0.37423 0.52373 0.03000
H 	H 	0.76127 0.36983 0.49363 0.04300
C 	C 	0.78757 0.40963 0.54413 -0.07200
C 	C 	0.80527 0.41833 0.58793 -0.05100
H 	H 	0.81417 0.44363 0.60223 0.06900
C 	C 	0.80977 0.38813 0.61043 0.08100
C 	C 	0.75727 0.30163 0.52823 0.41100
C 	C 	0.78327 0.44453 0.52083 0.40500
N 	N 	0.08387 0.44243 0.67873 -0.08500
N 	N 	0.06217 0.40833 0.66223 -0.08800
N 	N 	0.83907 0.42543 0.67283 -0.08700
N 	N 	0.82637 0.39213 0.65393 -0.08900
O 	O 	0.14073 0.55709 0.78553 -0.48600
O 	O 	0.10619 0.53915 0.85193 -0.44900
O 	O 	0.96664 0.36750 0.78993 -0.48600
O 	O 	0.98375 0.40271 0.85646 -0.47300
O 	O 	0.18171 0.48209 0.55470 -0.48300
O 	O 	0.16443 0.44612 0.48973 -0.48500
O 	O 	0.04496 0.31182 0.49343 -0.48000
O 	O 	0.01009 0.29288 0.55903 -0.51400
O 	O 	0.89139 0.35636 0.78079 -0.47100
O 	O 	0.90926 0.39515 0.84583 -0.45400
O 	O 	0.91005 0.52333 0.84303 -0.47200
O 	O 	0.88821 0.53817 0.77903 -0.50700
O 	O 	0.75689 0.27557 0.55263 -0.50100
O 	O 	0.74393 0.29608 0.48603 -0.46700
O 	O 	0.77038 0.43724 0.48063 -0.48900
O 	O 	0.79270 0.47351 0.54643 -0.49500
Zn	Zn	0.85594 0.94723 0.12004 1.19700
Zn	Zn	0.81168 0.92802 0.21059 1.19900
Zn	Zn	0.59642 0.69701 0.21643 1.19600
Zn	Zn	0.57678 0.65134 0.12681 1.20000
C 	C 	0.75333 0.82487 0.12287 -0.09700
C 	C 	0.76213 0.81687 0.07897 -0.03700
H 	H 	0.78553 0.83627 0.06327 0.05700
C 	C 	0.73743 0.78137 0.05807 0.06900
C 	C 	0.70333 0.75247 0.07977 -0.03500
H 	H 	0.68613 0.72797 0.06427 0.06400
C 	C 	0.69393 0.75927 0.12517 -0.09600
C 	C 	0.72023 0.79657 0.14627 0.03800
H 	H 	0.71493 0.80207 0.17687 0.04100
C 	C 	0.78013 0.86437 0.14387 0.38100
C 	C 	0.65623 0.72997 0.14837 0.40100
C 	C 	0.74233 0.73737 0.95207 0.06900
C 	C 	0.77683 0.76527 0.93027 -0.03000
H 	H 	0.79373 0.79027 0.94477 0.06300
C 	C 	0.78713 0.75657 0.88557 -0.11800
C 	C 	0.76213 0.72057 0.86597 0.05900
H 	H 	0.76813 0.71507 0.83567 0.03400
C 	C 	0.72773 0.69107 0.88887 -0.11200
C 	C 	0.71803 0.70027 0.93127 -0.02700
H 	H 	0.69443 0.68107 0.94687 0.05600
C 	C 	0.82423 0.78677 0.86337 0.42200
C 	C 	0.70113 0.65057 0.86787 0.43700
C 	C 	0.55073 0.74717 0.11537 -0.09200
C 	C 	0.53323 0.73907 0.07367 -0.03500
H 	H 	0.52713 0.71467 0.05887 0.06400
C 	C 	0.52353 0.76527 0.05057 0.07200
C 	C 	0.53553 0.80227 0.06857 -0.03800
H 	H 	0.53363 0.82217 0.05107 0.05700
C 	C 	0.55133 0.81007 0.11447 -0.10300
C 	C 	0.55843 0.78317 0.13777 0.04000
H 	H 	0.56853 0.78867 0.16877 0.04000
C 	C 	0.56043 0.71927 0.13827 0.36400
C 	C 	0.56133 0.84937 0.13577 0.42400
C 	C 	0.45993 0.68327 0.92387 -0.03900
H 	H 	0.46133 0.66247 0.94007 0.06000
C 	C 	0.44183 0.67577 0.88067 -0.09900
C 	C 	0.43973 0.70757 0.85707 0.03000
H 	H 	0.42793 0.70317 0.82697 0.04300
C 	C 	0.45423 0.74297 0.87747 -0.07200
C 	C 	0.47193 0.75167 0.92127 -0.05100
H 	H 	0.48083 0.77697 0.93557 0.06900
C 	C 	0.47643 0.72147 0.94377 0.08100
C 	C 	0.42393 0.63497 0.86157 0.41100
C 	C 	0.44993 0.77787 0.85417 0.40500
N 	N 	0.75053 0.77577 0.01207 -0.08500
N 	N 	0.72883 0.74167 0.99557 -0.08800
N 	N 	0.50573 0.75877 0.00617 -0.08700
N 	N 	0.49303 0.72547 0.98727 -0.08900
O 	O 	0.80739 0.89043 0.11887 -0.48600
O 	O 	0.77285 0.87249 0.18527 -0.44900
O 	O 	0.63330 0.70084 0.12327 -0.48600
O 	O 	0.65041 0.73605 0.18980 -0.47300
O 	O 	0.84837 0.81543 0.88804 -0.48300
O 	O 	0.83109 0.77946 0.82307 -0.48500
O 	O 	0.71162 0.64516 0.82677 -0.48000
O 	O 	0.67675 0.62622 0.89237 -0.51400
O 	O 	0.55805 0.68970 0.11413 -0.47100
O 	O 	0.57592 0.72849 0.17917 -0.45400
O 	O 	0.57671 0.85667 0.17637 -0.47200
O 	O 	0.55487 0.87151 0.11237 -0.50700
O 	O 	0.42355 0.60891 0.88597 -0.50100
O 	O 	0.41059 0.62942 0.81937 -0.46700
O 	O 	0.43704 0.77058 0.81397 -0.48900
O 	O 	0.45936 0.80685 0.87977 -0.49500
Zn	Zn	0.28056 0.75795 0.54663 1.19700
Zn	Zn	0.26135 0.78300 0.45608 1.19900
Zn	Zn	0.03034 0.76725 0.45024 1.19600
Zn	Zn	0.98467 0.74122 0.53986 1.20000
C 	C 	0.15820 0.73820 0.54380 -0.09700
C 	C 	0.15020 0.72140 0.58770 -0.03700
H 	H 	0.16960 0.71740 0.60340 0.05700
C 	C 	0.11470 0.71060 0.60860 0.06900
C 	C 	0.08580 0.71580 0.58690 -0.03500
H 	H 	0.06130 0.70850 0.60240 0.06400
C 	C 	0.09260 0.73200 0.54150 -0.09600
C 	C 	0.12990 0.74300 0.52040 0.03800
H 	H 	0.13540 0.75380 0.48980 0.04100
C 	C 	0.19770 0.75090 0.52280 0.38100
C 	C 	0.06330 0.74040 0.51830 0.40100
C 	C 	0.07070 0.66170 0.71460 0.06900
C 	C 	0.09860 0.65510 0.73640 -0.03000
H 	H 	0.12360 0.66320 0.72190 0.06300
C 	C 	0.08990 0.63610 0.78110 -0.11800
C 	C 	0.05390 0.62510 0.80070 0.05900
H 	H 	0.04840 0.61360 0.83100 0.03400
C 	C 	0.02440 0.63000 0.77780 -0.11200
C 	C 	0.03360 0.64890 0.73540 -0.02700
H 	H 	0.01440 0.65330 0.71980 0.05600
C 	C 	0.12010 0.62920 0.80330 0.42200
C 	C 	0.98390 0.61610 0.79880 0.43700
C 	C 	0.08050 0.86310 0.55130 -0.09200
C 	C 	0.07240 0.87250 0.59300 -0.03500
H 	H 	0.04800 0.85420 0.60780 0.06400
C 	C 	0.09860 0.90840 0.61610 0.07200
C 	C 	0.13560 0.93340 0.59810 -0.03800
H 	H 	0.15550 0.95520 0.61560 0.05700
C 	C 	0.14340 0.92540 0.55220 -0.10300
C 	C 	0.11650 0.89140 0.52890 0.04000
H 	H 	0.12200 0.88680 0.49790 0.04000
C 	C 	0.05260 0.82550 0.52840 0.36400
C 	C 	0.18270 0.95470 0.53090 0.42400
C 	C 	0.01660 0.89000 0.74280 -0.03900
H 	H 	0.99580 0.86780 0.72660 0.06000
C 	C 	0.00910 0.90060 0.78600 -0.09900
C 	C 	0.04090 0.93450 0.80960 0.03000
H 	H 	0.03650 0.94190 0.83970 0.04300
C 	C 	0.07630 0.95540 0.78920 -0.07200
C 	C 	0.08500 0.94640 0.74540 -0.05100
H 	H 	0.11030 0.96280 0.73110 0.06900
C 	C 	0.05480 0.91170 0.72290 0.08100
C 	C 	0.96830 0.87770 0.80510 0.41100
C 	C 	0.11120 0.99460 0.81250 0.40500
N 	N 	0.10910 0.69190 0.65460 -0.08500
N 	N 	0.07500 0.67950 0.67110 -0.08800
N 	N 	0.09210 0.91970 0.66050 -0.08700
N 	N 	0.05880 0.89910 0.67940 -0.08900
O 	O 	0.22376 0.74970 0.54780 -0.48600
O 	O 	0.20582 0.76630 0.48140 -0.44900
O 	O 	0.03417 0.73420 0.54340 -0.48600
O 	O 	0.06938 0.75230 0.47687 -0.47300
O 	O 	0.14876 0.63372 0.77863 -0.48300
O 	O 	0.11279 0.61503 0.84360 -0.48500
O 	O 	0.97849 0.60020 0.83990 -0.48000
O 	O 	0.95955 0.61613 0.77430 -0.51400
O 	O 	0.02303 0.79831 0.55254 -0.47100
O 	O 	0.06182 0.81923 0.48750 -0.45400
O 	O 	0.19000 0.94662 0.49030 -0.47200
O 	O 	0.20484 0.98330 0.55430 -0.50700
O 	O 	0.94224 0.85202 0.78070 -0.50100
O 	O 	0.96275 0.88549 0.84730 -0.46700
O 	O 	0.10391 0.00020 0.85270 -0.48900
O 	O 	0.14018 0.01415 0.78690 -0.49500
Zn	Zn	0.94723 0.09128 0.87996 1.19700
Zn	Zn	0.92802 0.11633 0.78941 1.19900
Zn	Zn	0.69701 0.10058 0.78357 1.19600
Zn	Zn	0.65134 0.07455 0.87319 1.20000
C 	C 	0.82487 0.07153 0.87713 -0.09700
C 	C 	0.81687 0.05473 0.92103 -0.03700
H 	H 	0.83627 0.05073 0.93673 0.05700
C 	C 	0.78137 0.04393 0.94193 0.06900
C 	C 	0.75247 0.04913 0.92023 -0.03500
H 	H 	0.72797 0.04183 0.93573 0.06400
C 	C 	0.75927 0.06533 0.87483 -0.09600
C 	C 	0.79657 0.07633 0.85373 0.03800
H 	H 	0.80207 0.08713 0.82313 0.04100
C 	C 	0.86437 0.08423 0.85613 0.38100
C 	C 	0.72997 0.07373 0.85163 0.40100
C 	C 	0.73737 0.99503 0.04793 0.06900
C 	C 	0.76527 0.98843 0.06973 -0.03000
H 	H 	0.79027 0.99653 0.05523 0.06300
C 	C 	0.75657 0.96943 0.11443 -0.11800
C 	C 	0.72057 0.95843 0.13403 0.05900
H 	H 	0.71507 0.94693 0.16433 0.03400
C 	C 	0.69107 0.96333 0.11113 -0.11200
C 	C 	0.70027 0.98223 0.06873 -0.02700
H 	H 	0.68107 0.98663 0.05313 0.05600
C 	C 	0.78677 0.96253 0.13663 0.42200
C 	C 	0.65057 0.94943 0.13213 0.43700
C 	C 	0.74717 0.19643 0.88463 -0.09200
C 	C 	0.73907 0.20583 0.92633 -0.03500
H 	H 	0.71467 0.18753 0.94113 0.06400
C 	C 	0.76527 0.24173 0.94943 0.07200
C 	C 	0.80227 0.26673 0.93143 -0.03800
H 	H 	0.82217 0.28853 0.94893 0.05700
C 	C 	0.81007 0.25873 0.88553 -0.10300
C 	C 	0.78317 0.22473 0.86223 0.04000
H 	H 	0.78867 0.22013 0.83123 0.04000
C 	C 	0.71927 0.15883 0.86173 0.36400
C 	C 	0.84937 0.28803 0.86423 0.42400
C 	C 	0.68327 0.22333 0.07613 -0.03900
H 	H 	0.66247 0.20113 0.05993 0.06100
C 	C 	0.67577 0.23393 0.11933 -0.09900
C 	C 	0.70757 0.26783 0.14293 0.03000
H 	H 	0.70317 0.27523 0.17303 0.04300
C 	C 	0.74297 0.28873 0.12253 -0.07200
C 	C 	0.75167 0.27973 0.07873 -0.05100
H 	H 	0.77697 0.29613 0.06443 0.06900
C 	C 	0.72147 0.24503 0.05623 0.08100
C 	C 	0.63497 0.21103 0.13843 0.41100
C 	C 	0.77787 0.32793 0.14583 0.40500
N 	N 	0.77577 0.02523 0.98793 -0.08500
N 	N 	0.74167 0.01283 0.00443 -0.08800
N 	N 	0.75877 0.25303 0.99383 -0.08700
N 	N 	0.72547 0.23243 0.01273 -0.08900
O 	O 	0.89043 0.08303 0.88113 -0.48600
O 	O 	0.87249 0.09963 0.81473 -0.44900
O 	O 	0.70084 0.06753 0.87673 -0.48600
O 	O 	0.73605 0.08563 0.81020 -0.47300
O 	O 	0.81543 0.96705 0.11196 -0.48300
O 	O 	0.77946 0.94836 0.17693 -0.48500
O 	O 	0.64516 0.93353 0.17323 -0.48000
O 	O 	0.62622 0.94946 0.10763 -0.51400
O 	O 	0.68970 0.13164 0.88587 -0.47100
O 	O 	0.72849 0.15256 0.82083 -0.45400
O 	O 	0.85667 0.27995 0.82363 -0.47200
O 	O 	0.87151 0.31663 0.88763 -0.50700
O 	O 	0.60891 0.18535 0.11403 -0.50100
O 	O 	0.62942 0.21882 0.18063 -0.46700
O 	O 	0.77058 0.33353 0.18603 -0.48900
O 	O 	0.80685 0.34748 0.12023 -0.49500
Zn	Zn	0.61389 0.42462 0.21330 1.19700
Zn	Zn	0.59468 0.44967 0.12275 1.19900
Zn	Zn	0.36367 0.43392 0.11691 1.19600
Zn	Zn	0.31800 0.40789 0.20653 1.20000
C 	C 	0.49153 0.40487 0.21047 -0.09700
C 	C 	0.48353 0.38807 0.25437 -0.03700
H 	H 	0.50293 0.38407 0.27007 0.05700
C 	C 	0.44803 0.37727 0.27527 0.06900
C 	C 	0.41913 0.38247 0.25357 -0.03500
H 	H 	0.39463 0.37517 0.26907 0.06400
C 	C 	0.42593 0.39867 0.20817 -0.09600
C 	C 	0.46323 0.40967 0.18707 0.03800
H 	H 	0.46873 0.42047 0.15647 0.04100
C 	C 	0.53103 0.41757 0.18947 0.38100
C 	C 	0.39663 0.40707 0.18497 0.40100
C 	C 	0.40403 0.32837 0.38127 0.06900
C 	C 	0.43193 0.32177 0.40307 -0.03000
H 	H 	0.45693 0.32987 0.38857 0.06300
C 	C 	0.42323 0.30277 0.44777 -0.11800
C 	C 	0.38723 0.29177 0.46737 0.05900
H 	H 	0.38173 0.28027 0.49767 0.03400
C 	C 	0.35773 0.29667 0.44447 -0.11200
C 	C 	0.36693 0.31557 0.40207 -0.02700
H 	H 	0.34773 0.31997 0.38647 0.05600
C 	C 	0.45343 0.29587 0.46997 0.42200
C 	C 	0.31723 0.28277 0.46547 0.43700
C 	C 	0.41383 0.52977 0.21797 -0.09200
C 	C 	0.40573 0.53917 0.25967 -0.03500
H 	H 	0.38133 0.52087 0.27447 0.06400
C 	C 	0.43193 0.57507 0.28277 0.07200
C 	C 	0.46893 0.60007 0.26477 -0.03800
H 	H 	0.48883 0.62187 0.28227 0.05700
C 	C 	0.47673 0.59207 0.21887 -0.10300
C 	C 	0.44983 0.55807 0.19557 0.04000
H 	H 	0.45533 0.55347 0.16457 0.04000
C 	C 	0.38593 0.49217 0.19507 0.36400
C 	C 	0.51603 0.62137 0.19757 0.42400
C 	C 	0.34993 0.55667 0.40947 -0.03900
H 	H 	0.32913 0.53447 0.39327 0.06100
C 	C 	0.34243 0.56727 0.45267 -0.09900
C 	C 	0.37423 0.60117 0.47627 0.03000
H 	H 	0.36983 0.60857 0.50637 0.04300
C 	C 	0.40963 0.62207 0.45587 -0.07200
C 	C 	0.41833 0.61307 0.41207 -0.05100
H 	H 	0.44363 0.62947 0.39777 0.06900
C 	C 	0.38813 0.57837 0.38957 0.08100
C 	C 	0.30163 0.54437 0.47177 0.41100
C 	C 	0.44453 0.66127 0.47917 0.40500
N 	N 	0.44243 0.35857 0.32127 -0.08500
N 	N 	0.40833 0.34617 0.33777 -0.08800
N 	N 	0.42543 0.58637 0.32717 -0.08700
N 	N 	0.39213 0.56577 0.34607 -0.08900
O 	O 	0.55709 0.41637 0.21447 -0.48600
O 	O 	0.53915 0.43297 0.14807 -0.44900
O 	O 	0.36750 0.40087 0.21007 -0.48600
O 	O 	0.40271 0.41897 0.14354 -0.47300
O 	O 	0.48209 0.30039 0.44530 -0.48300
O 	O 	0.44612 0.28170 0.51027 -0.48500
O 	O 	0.31182 0.26687 0.50657 -0.48000
O 	O 	0.29288 0.28280 0.44097 -0.51400
O 	O 	0.35636 0.46498 0.21921 -0.47100
O 	O 	0.39515 0.48590 0.15417 -0.45400
O 	O 	0.52333 0.61329 0.15697 -0.47200
O 	O 	0.53817 0.64997 0.22097 -0.50700
O 	O 	0.27557 0.51869 0.44737 -0.50100
O 	O 	0.29608 0.55216 0.51397 -0.46700
O 	O 	0.43724 0.66687 0.51937 -0.48900
O 	O 	0.47351 0.68082 0.45357 -0.49500
Zn	Zn	0.24205 0.52261 0.54663 1.19700
Zn	Zn	0.21700 0.47835 0.45608 1.19900
Zn	Zn	0.23275 0.26309 0.45024 1.19600
Zn	Zn	0.25878 0.24345 0.53986 1.20000
C 	C 	0.26180 0.42000 0.54380 -0.09700
C 	C 	0.27860 0.42880 0.58770 -0.03700
H 	H 	0.28260 0.45220 0.60340 0.05700
C 	C 	0.28940 0.40410 0.60860 0.06900
C 	C 	0.28420 0.37000 0.58690 -0.03500
H 	H 	0.29150 0.35280 0.60240 0.06400
C 	C 	0.26800 0.36060 0.54150 -0.09600
C 	C 	0.25700 0.38690 0.52040 0.03800
H 	H 	0.24620 0.38160 0.48980 0.04100
C 	C 	0.24910 0.44680 0.52280 0.38100
C 	C 	0.25960 0.32290 0.51830 0.40100
C 	C 	0.33830 0.40900 0.71460 0.06900
C 	C 	0.34490 0.44350 0.73640 -0.03000
H 	H 	0.33680 0.46040 0.72190 0.06300
C 	C 	0.36390 0.45380 0.78110 -0.11800
C 	C 	0.37490 0.42880 0.80070 0.05900
H 	H 	0.38640 0.43480 0.83100 0.03400
C 	C 	0.37000 0.39440 0.77780 -0.11200
C 	C 	0.35110 0.38470 0.73540 -0.02700
H 	H 	0.34670 0.36110 0.71980 0.05600
C 	C 	0.37080 0.49090 0.80330 0.42200
C 	C 	0.38390 0.36780 0.79880 0.43700
C 	C 	0.13690 0.21740 0.55130 -0.09200
C 	C 	0.12750 0.19990 0.59300 -0.03500
H 	H 	0.14580 0.19380 0.60780 0.06400
C 	C 	0.09160 0.19020 0.61610 0.07200
C 	C 	0.06660 0.20220 0.59810 -0.03800
H 	H 	0.04480 0.20030 0.61560 0.05700
C 	C 	0.07460 0.21800 0.55220 -0.10300
C 	C 	0.10860 0.22510 0.52890 0.04000
H 	H 	0.11320 0.23520 0.49790 0.04000
C 	C 	0.17450 0.22710 0.52840 0.36400
C 	C 	0.04530 0.22800 0.53090 0.42400
C 	C 	0.11000 0.12660 0.74280 -0.03900
H 	H 	0.13220 0.12800 0.72660 0.06100
C 	C 	0.09940 0.10850 0.78600 -0.09900
C 	C 	0.06550 0.10640 0.80960 0.03000
H 	H 	0.05810 0.09460 0.83970 0.04300
C 	C 	0.04460 0.12090 0.78920 -0.07200
C 	C 	0.05360 0.13860 0.74540 -0.05100
H 	H 	0.03720 0.14750 0.73110 0.06900
C 	C 	0.08830 0.14310 0.72290 0.08100
C 	C 	0.12230 0.09060 0.80510 0.41100
C 	C 	0.00540 0.11660 0.81250 0.40500
N 	N 	0.30810 0.41720 0.65460 -0.08500
N 	N 	0.32050 0.39550 0.67110 -0.08800
N 	N 	0.08030 0.17240 0.66050 -0.08700
N 	N 	0.10090 0.15970 0.67940 -0.08900
O 	O 	0.25030 0.47406 0.54780 -0.48600
O 	O 	0.23370 0.43952 0.48140 -0.44900
O 	O 	0.26580 0.29997 0.54340 -0.48600
O 	O 	0.24770 0.31708 0.47687 -0.47300
O 	O 	0.36628 0.51504 0.77863 -0.48300
O 	O 	0.38497 0.49776 0.84360 -0.48500
O 	O 	0.39980 0.37829 0.83990 -0.48000
O 	O 	0.38387 0.34342 0.77430 -0.51400
O 	O 	0.20169 0.22472 0.55254 -0.47100
O 	O 	0.18077 0.24259 0.48750 -0.45400
O 	O 	0.05338 0.24338 0.49030 -0.47200
O 	O 	0.01670 0.22154 0.55430 -0.50700
O 	O 	0.14798 0.09022 0.78070 -0.50100
O 	O 	0.11451 0.07726 0.84730 -0.46700
O 	O 	0.99980 0.10371 0.85270 -0.48900
O 	O 	0.98585 0.12603 0.78690 -0.49500
Zn	Zn	0.90872 0.85594 0.87996 1.19700
Zn	Zn	0.88367 0.81168 0.78941 1.19900
Zn	Zn	0.89942 0.59642 0.78357 1.19600
Zn	Zn	0.92545 0.57678 0.87319 1.20000
C 	C 	0.92847 0.75333 0.87713 -0.09700
C 	C 	0.94527 0.76213 0.92103 -0.03700
H 	H 	0.94927 0.78553 0.93673 0.05700
C 	C 	0.95607 0.73743 0.94193 0.06900
C 	C 	0.95087 0.70333 0.92023 -0.03500
H 	H 	0.95817 0.68613 0.93573 0.06400
C 	C 	0.93467 0.69393 0.87483 -0.09600
C 	C 	0.92367 0.72023 0.85373 0.03800
H 	H 	0.91287 0.71493 0.82313 0.04100
C 	C 	0.91577 0.78013 0.85613 0.38100
C 	C 	0.92627 0.65623 0.85163 0.40100
C 	C 	0.00497 0.74233 0.04793 0.06900
C 	C 	0.01157 0.77683 0.06973 -0.03000
H 	H 	0.00347 0.79373 0.05523 0.06300
C 	C 	0.03057 0.78713 0.11443 -0.11800
C 	C 	0.04157 0.76213 0.13403 0.05900
H 	H 	0.05307 0.76813 0.16433 0.03400
C 	C 	0.03667 0.72773 0.11113 -0.11200
C 	C 	0.01777 0.71803 0.06873 -0.02700
H 	H 	0.01337 0.69443 0.05313 0.05600
C 	C 	0.03747 0.82423 0.13663 0.42200
C 	C 	0.05057 0.70113 0.13213 0.43800
C 	C 	0.80357 0.55073 0.88463 -0.09200
C 	C 	0.79417 0.53323 0.92633 -0.03500
H 	H 	0.81247 0.52713 0.94113 0.06400
C 	C 	0.75827 0.52353 0.94943 0.07200
C 	C 	0.73327 0.53553 0.93143 -0.03800
H 	H 	0.71147 0.53363 0.94893 0.05700
C 	C 	0.74127 0.55133 0.88553 -0.10300
C 	C 	0.77527 0.55843 0.86223 0.04000
H 	H 	0.77987 0.56853 0.83123 0.04000
C 	C 	0.84117 0.56043 0.86173 0.36400
C 	C 	0.71197 0.56133 0.86423 0.42400
C 	C 	0.77667 0.45993 0.07613 -0.03900
H 	H 	0.79887 0.46133 0.05993 0.06000
C 	C 	0.76607 0.44183 0.11933 -0.09900
C 	C 	0.73217 0.43973 0.14293 0.03000
H 	H 	0.72477 0.42793 0.17303 0.04300
C 	C 	0.71127 0.45423 0.12253 -0.07200
C 	C 	0.72027 0.47193 0.07873 -0.05100
H 	H 	0.70387 0.48083 0.06443 0.06900
C 	C 	0.75497 0.47643 0.05623 0.08100
C 	C 	0.78897 0.42393 0.13843 0.41100
C 	C 	0.67207 0.44993 0.14583 0.40500
N 	N 	0.97477 0.75053 0.98793 -0.08500
N 	N 	0.98717 0.72883 0.00443 -0.08800
N 	N 	0.74697 0.50573 0.99383 -0.08700
N 	N 	0.76757 0.49303 0.01273 -0.08900
O 	O 	0.91697 0.80739 0.88113 -0.48600
O 	O 	0.90037 0.77285 0.81473 -0.44900
O 	O 	0.93247 0.63330 0.87673 -0.48600
O 	O 	0.91437 0.65041 0.81020 -0.47300
O 	O 	0.03295 0.84837 0.11196 -0.48300
O 	O 	0.05164 0.83109 0.17693 -0.48500
O 	O 	0.06647 0.71162 0.17323 -0.48000
O 	O 	0.05054 0.67675 0.10763 -0.51400
O 	O 	0.86836 0.55805 0.88587 -0.47100
O 	O 	0.84744 0.57592 0.82083 -0.45400
O 	O 	0.72005 0.57671 0.82363 -0.47200
O 	O 	0.68337 0.55487 0.88763 -0.50700
O 	O 	0.81465 0.42355 0.11403 -0.50100
O 	O 	0.78118 0.41059 0.18063 -0.46700
O 	O 	0.66647 0.43704 0.18603 -0.48800
O 	O 	0.65252 0.45936 0.12023 -0.49400
Zn	Zn	0.57538 0.18928 0.21330 1.19700
Zn	Zn	0.55033 0.14502 0.12275 1.19900
Zn	Zn	0.56608 0.92976 0.11691 1.19600
Zn	Zn	0.59211 0.91012 0.20653 1.20000
C 	C 	0.59513 0.08667 0.21047 -0.09700
C 	C 	0.61193 0.09547 0.25437 -0.03700
H 	H 	0.61593 0.11887 0.27007 0.05700
C 	C 	0.62273 0.07077 0.27527 0.06900
C 	C 	0.61753 0.03667 0.25357 -0.03500
H 	H 	0.62483 0.01947 0.26907 0.06400
C 	C 	0.60133 0.02727 0.20817 -0.09600
C 	C 	0.59033 0.05357 0.18707 0.03800
H 	H 	0.57953 0.04827 0.15647 0.04100
C 	C 	0.58243 0.11347 0.18947 0.38100
C 	C 	0.59293 0.98957 0.18497 0.40100
C 	C 	0.67163 0.07567 0.38127 0.06900
C 	C 	0.67823 0.11017 0.40307 -0.03000
H 	H 	0.67013 0.12707 0.38857 0.06300
C 	C 	0.69723 0.12047 0.44777 -0.11800
C 	C 	0.70823 0.09547 0.46737 0.05900
H 	H 	0.71973 0.10147 0.49767 0.03400
C 	C 	0.70333 0.06107 0.44447 -0.11200
C 	C 	0.68443 0.05137 0.40207 -0.02700
H 	H 	0.68003 0.02777 0.38647 0.05600
C 	C 	0.70413 0.15757 0.46997 0.42200
C 	C 	0.71723 0.03447 0.46547 0.43700
C 	C 	0.47023 0.88407 0.21797 -0.09200
C 	C 	0.46083 0.86657 0.25967 -0.03500
H 	H 	0.47913 0.86047 0.27447 0.06400
C 	C 	0.42493 0.85687 0.28277 0.07200
C 	C 	0.39993 0.86887 0.26477 -0.03800
H 	H 	0.37813 0.86697 0.28227 0.05700
C 	C 	0.40793 0.88467 0.21887 -0.10300
C 	C 	0.44193 0.89177 0.19557 0.04000
H 	H 	0.44653 0.90187 0.16457 0.04000
C 	C 	0.50783 0.89377 0.19507 0.36400
C 	C 	0.37863 0.89467 0.19757 0.42400
C 	C 	0.44333 0.79327 0.40947 -0.03900
H 	H 	0.46553 0.79467 0.39327 0.06100
C 	C 	0.43273 0.77517 0.45267 -0.09900
C 	C 	0.39883 0.77307 0.47627 0.03000
H 	H 	0.39143 0.76127 0.50637 0.04300
C 	C 	0.37793 0.78757 0.45587 -0.07200
C 	C 	0.38693 0.80527 0.41207 -0.05100
H 	H 	0.37053 0.81417 0.39777 0.06900
C 	C 	0.42163 0.80977 0.38957 0.08100
C 	C 	0.45563 0.75727 0.47177 0.41100
C 	C 	0.33873 0.78327 0.47917 0.40500
N 	N 	0.64143 0.08387 0.32127 -0.08500
N 	N 	0.65383 0.06217 0.33777 -0.08800
N 	N 	0.41363 0.83907 0.32717 -0.08700
N 	N 	0.43423 0.82637 0.34607 -0.08900
O 	O 	0.58363 0.14073 0.21447 -0.48600
O 	O 	0.56703 0.10619 0.14807 -0.44900
O 	O 	0.59913 0.96664 0.21007 -0.48600
O 	O 	0.58103 0.98375 0.14354 -0.47300
O 	O 	0.69961 0.18171 0.44530 -0.48300
O 	O 	0.71830 0.16443 0.51027 -0.48500
O 	O 	0.73313 0.04496 0.50657 -0.48000
O 	O 	0.71720 0.01009 0.44097 -0.51400
O 	O 	0.53502 0.89139 0.21921 -0.47100
O 	O 	0.51410 0.90926 0.15417 -0.45400
O 	O 	0.38671 0.91005 0.15697 -0.47200
O 	O 	0.35003 0.88821 0.22097 -0.50700
O 	O 	0.48131 0.75689 0.44737 -0.50100
O 	O 	0.44784 0.74393 0.51397 -0.46700
O 	O 	0.33313 0.77038 0.51937 -0.48900
O 	O 	0.31918 0.79270 0.45357 -0.49500
Zn	Zn	0.47739 0.71944 0.54663 1.19700
Zn	Zn	0.52165 0.73865 0.45608 1.19900
Zn	Zn	0.73691 0.96966 0.45024 1.19600
Zn	Zn	0.75655 0.01533 0.53986 1.20000
C 	C 	0.58000 0.84180 0.54380 -0.09700
C 	C 	0.57120 0.84980 0.58770 -0.03700
H 	H 	0.54780 0.83040 0.60340 0.05700
C 	C 	0.59590 0.88530 0.60860 0.06900
C 	C 	0.63000 0.91420 0.58690 -0.03500
H 	H 	0.64720 0.93870 0.60240 0.06400
C 	C 	0.63940 0.90740 0.54150 -0.09600
C 	C 	0.61310 0.87010 0.52040 0.03800
H 	H 	0.61840 0.86460 0.48980 0.04100
C 	C 	0.55320 0.80230 0.52280 0.38100
C 	C 	0.67710 0.93670 0.51830 0.40100
C 	C 	0.59100 0.92930 0.71460 0.06900
C 	C 	0.55650 0.90140 0.73640 -0.03000
H 	H 	0.53960 0.87640 0.72190 0.06300
C 	C 	0.54620 0.91010 0.78110 -0.11800
C 	C 	0.57120 0.94610 0.80070 0.05900
H 	H 	0.56520 0.95160 0.83100 0.03400
C 	C 	0.60560 0.97560 0.77780 -0.11200
C 	C 	0.61530 0.96640 0.73540 -0.02700
H 	H 	0.63890 0.98560 0.71980 0.05600
C 	C 	0.50910 0.87990 0.80330 0.42200
C 	C 	0.63220 0.01610 0.79880 0.43700
C 	C 	0.78260 0.91950 0.55130 -0.09200
C 	C 	0.80010 0.92760 0.59300 -0.03500
H 	H 	0.80620 0.95200 0.60780 0.06400
C 	C 	0.80980 0.90140 0.61610 0.07200
C 	C 	0.79780 0.86440 0.59810 -0.03800
H 	H 	0.79970 0.84450 0.61560 0.05700
C 	C 	0.78200 0.85660 0.55220 -0.10300
C 	C 	0.77490 0.88350 0.52890 0.04000
H 	H 	0.76480 0.87800 0.49790 0.04000
C 	C 	0.77290 0.94740 0.52840 0.36400
C 	C 	0.77200 0.81730 0.53090 0.42400
C 	C 	0.87340 0.98340 0.74280 -0.03900
H 	H 	0.87200 0.00420 0.72660 0.06000
C 	C 	0.89150 0.99090 0.78600 -0.09900
C 	C 	0.89360 0.95910 0.80960 0.03000
H 	H 	0.90540 0.96350 0.83970 0.04300
C 	C 	0.87910 0.92370 0.78920 -0.07200
C 	C 	0.86140 0.91500 0.74540 -0.05100
H 	H 	0.85250 0.88970 0.73110 0.06900
C 	C 	0.85690 0.94520 0.72290 0.08100
C 	C 	0.90940 0.03170 0.80510 0.41100
C 	C 	0.88340 0.88880 0.81250 0.40500
N 	N 	0.58280 0.89090 0.65460 -0.08500
N 	N 	0.60450 0.92500 0.67110 -0.08800
N 	N 	0.82760 0.90790 0.66050 -0.08700
N 	N 	0.84030 0.94120 0.67940 -0.08900
O 	O 	0.52594 0.77624 0.54780 -0.48600
O 	O 	0.56048 0.79418 0.48140 -0.44900
O 	O 	0.70003 0.96583 0.54340 -0.48600
O 	O 	0.68292 0.93062 0.47687 -0.47300
O 	O 	0.48496 0.85124 0.77863 -0.48300
O 	O 	0.50224 0.88721 0.84360 -0.48500
O 	O 	0.62171 0.02151 0.83990 -0.48000
O 	O 	0.65658 0.04045 0.77430 -0.51400
O 	O 	0.77528 0.97697 0.55254 -0.47100
O 	O 	0.75741 0.93818 0.48750 -0.45400
O 	O 	0.75662 0.81000 0.49030 -0.47200
O 	O 	0.77846 0.79516 0.55430 -0.50700
O 	O 	0.90978 0.05776 0.78070 -0.50100
O 	O 	0.92274 0.03725 0.84730 -0.46700
O 	O 	0.89629 0.89609 0.85270 -0.48900
O 	O 	0.87397 0.85982 0.78690 -0.49500
Zn	Zn	0.14406 0.05277 0.87996 1.19700
Zn	Zn	0.18832 0.07198 0.78941 1.19900
Zn	Zn	0.40358 0.30299 0.78357 1.19600
Zn	Zn	0.42322 0.34866 0.87319 1.20000
C 	C 	0.24667 0.17513 0.87713 -0.09700
C 	C 	0.23787 0.18313 0.92103 -0.03700
H 	H 	0.21447 0.16373 0.93673 0.05700
C 	C 	0.26257 0.21863 0.94193 0.06900
C 	C 	0.29667 0.24753 0.92023 -0.03500
H 	H 	0.31387 0.27203 0.93573 0.06400
C 	C 	0.30607 0.24073 0.87483 -0.09600
C 	C 	0.27977 0.20343 0.85373 0.03800
H 	H 	0.28507 0.19793 0.82313 0.04100
C 	C 	0.21987 0.13563 0.85613 0.38100
C 	C 	0.34377 0.27003 0.85163 0.40100
C 	C 	0.25767 0.26263 0.04793 0.06900
C 	C 	0.22317 0.23473 0.06973 -0.03000
H 	H 	0.20627 0.20973 0.05523 0.06300
C 	C 	0.21287 0.24343 0.11443 -0.11800
C 	C 	0.23787 0.27943 0.13403 0.05900
H 	H 	0.23187 0.28493 0.16433 0.03400
C 	C 	0.27227 0.30893 0.11113 -0.11200
C 	C 	0.28197 0.29973 0.06873 -0.02700
H 	H 	0.30557 0.31893 0.05313 0.05600
C 	C 	0.17577 0.21323 0.13663 0.42200
C 	C 	0.29887 0.34943 0.13213 0.43700
C 	C 	0.44927 0.25283 0.88463 -0.09200
C 	C 	0.46677 0.26093 0.92633 -0.03500
H 	H 	0.47287 0.28533 0.94113 0.06400
C 	C 	0.47647 0.23473 0.94943 0.07200
C 	C 	0.46447 0.19773 0.93143 -0.03800
H 	H 	0.46637 0.17783 0.94893 0.05700
C 	C 	0.44867 0.18993 0.88553 -0.10300
C 	C 	0.44157 0.21683 0.86223 0.04000
H 	H 	0.43147 0.21133 0.83123 0.04000
C 	C 	0.43957 0.28073 0.86173 0.36400
C 	C 	0.43867 0.15063 0.86423 0.42400
C 	C 	0.54007 0.31673 0.07613 -0.03900
H 	H 	0.53867 0.33753 0.05993 0.06000
C 	C 	0.55817 0.32423 0.11933 -0.09900
C 	C 	0.56027 0.29243 0.14293 0.03000
H 	H 	0.57207 0.29683 0.17303 0.04300
C 	C 	0.54577 0.25703 0.12253 -0.07200
C 	C 	0.52807 0.24833 0.07873 -0.05100
H 	H 	0.51917 0.22303 0.06443 0.06900
C 	C 	0.52357 0.27853 0.05623 0.08100
C 	C 	0.57607 0.36503 0.13843 0.41100
C 	C 	0.55007 0.22213 0.14583 0.40500
N 	N 	0.24947 0.22423 0.98793 -0.08500
N 	N 	0.27117 0.25833 0.00443 -0.08800
N 	N 	0.49427 0.24123 0.99383 -0.08700
N 	N 	0.50697 0.27453 0.01273 -0.08900
O 	O 	0.19261 0.10957 0.88113 -0.48600
O 	O 	0.22715 0.12751 0.81473 -0.44900
O 	O 	0.36670 0.29916 0.87673 -0.48600
O 	O 	0.34959 0.26395 0.81020 -0.47300
O 	O 	0.15163 0.18457 0.11196 -0.48300
O 	O 	0.16891 0.22054 0.17693 -0.48500
O 	O 	0.28838 0.35484 0.17323 -0.48000
O 	O 	0.32325 0.37378 0.10763 -0.51400
O 	O 	0.44195 0.31030 0.88587 -0.47100
O 	O 	0.42408 0.27151 0.82083 -0.45400
O 	O 	0.42329 0.14333 0.82363 -0.47200
O 	O 	0.44513 0.12849 0.88763 -0.50700
O 	O 	0.57645 0.39109 0.11403 -0.50100
O 	O 	0.58941 0.37058 0.18063 -0.46700
O 	O 	0.56296 0.22942 0.18603 -0.48900
O 	O 	0.54064 0.19315 0.12023 -0.49500
Zn	Zn	0.81072 0.38611 0.21330 1.19700
Zn	Zn	0.85498 0.40532 0.12275 1.19900
Zn	Zn	0.07024 0.63633 0.11691 1.19600
Zn	Zn	0.08988 0.68200 0.20653 1.20000
C 	C 	0.91333 0.50847 0.21047 -0.09700
C 	C 	0.90453 0.51647 0.25437 -0.03700
H 	H 	0.88113 0.49707 0.27007 0.05700
C 	C 	0.92923 0.55197 0.27527 0.06900
C 	C 	0.96333 0.58087 0.25357 -0.03500
H 	H 	0.98053 0.60537 0.26907 0.06400
C 	C 	0.97273 0.57407 0.20817 -0.09600
C 	C 	0.94643 0.53677 0.18707 0.03800
H 	H 	0.95173 0.53127 0.15647 0.04100
C 	C 	0.88653 0.46897 0.18947 0.38100
C 	C 	0.01043 0.60337 0.18497 0.40100
C 	C 	0.92433 0.59597 0.38127 0.06900
C 	C 	0.88983 0.56807 0.40307 -0.03000
H 	H 	0.87293 0.54307 0.38857 0.06300
C 	C 	0.87953 0.57677 0.44777 -0.11800
C 	C 	0.90453 0.61277 0.46737 0.05900
H 	H 	0.89853 0.61827 0.49767 0.03400
C 	C 	0.93893 0.64227 0.44447 -0.11200
C 	C 	0.94863 0.63307 0.40207 -0.02700
H 	H 	0.97223 0.65227 0.38647 0.05600
C 	C 	0.84243 0.54657 0.46997 0.42200
C 	C 	0.96553 0.68277 0.46547 0.43700
C 	C 	0.11593 0.58617 0.21797 -0.09200
C 	C 	0.13343 0.59427 0.25967 -0.03500
H 	H 	0.13953 0.61867 0.27447 0.06400
C 	C 	0.14313 0.56807 0.28277 0.07200
C 	C 	0.13113 0.53107 0.26477 -0.03800
H 	H 	0.13303 0.51117 0.28227 0.05700
C 	C 	0.11533 0.52327 0.21887 -0.10300
C 	C 	0.10823 0.55017 0.19557 0.04000
H 	H 	0.09813 0.54467 0.16457 0.04000
C 	C 	0.10623 0.61407 0.19507 0.36400
C 	C 	0.10533 0.48397 0.19757 0.42400
C 	C 	0.20673 0.65007 0.40947 -0.03900
H 	H 	0.20533 0.67087 0.39327 0.06100
C 	C 	0.22483 0.65757 0.45267 -0.09900
C 	C 	0.22693 0.62577 0.47627 0.03000
H 	H 	0.23873 0.63017 0.50637 0.04300
C 	C 	0.21243 0.59037 0.45587 -0.07200
C 	C 	0.19473 0.58167 0.41207 -0.05100
H 	H 	0.18583 0.55637 0.39777 0.06900
C 	C 	0.19023 0.61187 0.38957 0.08100
C 	C 	0.24273 0.69837 0.47177 0.41100
C 	C 	0.21673 0.55547 0.47917 0.40500
N 	N 	0.91613 0.55757 0.32127 -0.08500
N 	N 	0.93783 0.59167 0.33777 -0.08800
N 	N 	0.16093 0.57457 0.32717 -0.08700
N 	N 	0.17363 0.60787 0.34607 -0.08900
O 	O 	0.85927 0.44291 0.21447 -0.48600
O 	O 	0.89381 0.46085 0.14807 -0.44900
O 	O 	0.03336 0.63250 0.21007 -0.48600
O 	O 	0.01625 0.59729 0.14354 -0.47300
O 	O 	0.81829 0.51791 0.44530 -0.48300
O 	O 	0.83557 0.55388 0.51027 -0.48500
O 	O 	0.95504 0.68818 0.50657 -0.48000
O 	O 	0.98991 0.70712 0.44097 -0.51400
O 	O 	0.10861 0.64364 0.21921 -0.47100
O 	O 	0.09074 0.60485 0.15417 -0.45400
O 	O 	0.08995 0.47667 0.15697 -0.47200
O 	O 	0.11179 0.46183 0.22097 -0.50700
O 	O 	0.24311 0.72443 0.44737 -0.50100
O 	O 	0.25607 0.70392 0.51397 -0.46700
O 	O 	0.22962 0.56276 0.51937 -0.48900
O 	O 	0.20730 0.52649 0.45357 -0.49500
