data_crystal

_cell_length_a 27.51400
_cell_length_b 14.25200
_cell_length_c 24.00400
_cell_angle_alpha 90.00000
_cell_angle_beta  113.52100
_cell_angle_gamma 90.00000

_symmetry_space_group_name_	'P 1'
_symmetry_space_group_name_H-M	'P 1'

loop_
_symmetry_equiv_pos_as_xyz
  x,y,z

loop_
_atom_site_label
_atom_site_type_symbol
_atom_site_fract_x
_atom_site_fract_y
_atom_site_fract_z
_atom_site_charge
Ag	Ag	0.25069 0.78135 0.21921 0.50100
P 	P 	0.25191 0.62858 0.17324 0.01300
P 	P 	0.24666 0.93949 0.17801 0.01500
N 	N 	0.33864 0.79160 0.29690 -0.17800
N 	N 	0.42139 0.83690 0.34190 -0.11000
N 	N 	0.16426 0.80080 0.34130 -0.10600
N 	N 	0.19511 0.76980 0.27181 -0.18100
C 	C 	0.27390 0.53600 0.23120 -0.15300
H 	H 	0.27250 0.47560 0.21190 0.06200
H 	H 	0.31030 0.54750 0.25910 0.06300
C 	C 	0.26200 0.03500 0.23420 -0.15100
H 	H 	0.29850 0.02870 0.26300 0.06300
H 	H 	0.25870 0.09450 0.21340 0.05900
C 	C 	0.18990 0.58620 0.11780 -0.01300
C 	C 	0.14990 0.64880 0.08950 -0.06900
H 	H 	0.15570 0.71220 0.09920 0.02600
C 	C 	0.10130 0.62050 0.04690 -0.02300
H 	H 	0.07450 0.66380 0.02780 0.02800
C 	C 	0.09330 0.52400 0.03300 -0.06800
H 	H 	0.06070 0.50290 0.00510 0.04400
C 	C 	0.13160 0.46430 0.05940 -0.01100
H 	H 	0.12650 0.40100 0.04920 0.02900
C 	C 	0.17870 0.49400 0.10170 -0.07000
H 	H 	0.20470 0.44940 0.12070 0.04800
C 	C 	0.29750 0.61800 0.13590 0.00200
C 	C 	0.28120 0.60850 0.07450 -0.09000
H 	H 	0.24520 0.60280 0.05020 0.05800
C 	C 	0.31740 0.60730 0.04790 -0.00100
H 	H 	0.30560 0.60100 0.00600 0.02800
C 	C 	0.37020 0.61510 0.08260 -0.08400
H 	H 	0.39440 0.61360 0.06450 0.05600
C 	C 	0.38740 0.62510 0.14350 0.00200
H 	H 	0.42330 0.63010 0.16780 0.02400
C 	C 	0.35010 0.62770 0.16870 -0.08800
H 	H 	0.36190 0.63650 0.21050 0.05100
C 	C 	0.18570 0.97700 0.11770 -0.00700
C 	C 	0.13950 0.93010 0.10890 -0.07400
H 	H 	0.14040 0.88040 0.13440 0.03200
C 	C 	0.09110 0.95560 0.06240 -0.01900
H 	H 	0.06040 0.92200 0.05620 0.02800
C 	C 	0.08980 0.03020 0.02660 -0.06600
H 	H 	0.05760 0.04880 0.99660 0.04500
C 	C 	0.13460 0.07810 0.03400 -0.01500
H 	H 	0.13290 0.12920 0.00910 0.03000
C 	C 	0.18330 0.05070 0.07880 -0.07400
H 	H 	0.21410 0.08200 0.08260 0.05700
C 	C 	0.29630 0.95410 0.14700 -0.01300
C 	C 	0.33310 0.02790 0.16210 -0.06900
H 	H 	0.33080 0.07590 0.18710 0.05300
C 	C 	0.37250 0.03040 0.14060 -0.01200
H 	H 	0.39710 0.07910 0.15230 0.03100
C 	C 	0.37620 0.96280 0.10240 -0.06300
H 	H 	0.40270 0.96550 0.08760 0.04800
C 	C 	0.33920 0.88840 0.08560 -0.01700
H 	H 	0.34110 0.84190 0.05940 0.03500
C 	C 	0.30030 0.88470 0.10810 -0.07000
H 	H 	0.27630 0.83510 0.09710 0.03600
C 	C 	0.37580 0.84650 0.29420 0.08200
H 	H 	0.37080 0.88760 0.26230 -0.00100
C 	C 	0.36290 0.74690 0.35060 0.00200
H 	H 	0.34670 0.70320 0.36640 0.02400
C 	C 	0.41350 0.77410 0.37800 -0.00600
H 	H 	0.43820 0.75290 0.41510 0.02900
C 	C 	0.46960 0.88870 0.35390 -0.11800
H 	H 	0.49810 0.86120 0.38860 0.06400
H 	H 	0.46490 0.95290 0.36420 0.06400
C 	C 	0.48530 0.88880 0.29950 0.05600
C 	C 	0.49260 0.80740 0.27300 -0.06700
H 	H 	0.48690 0.75020 0.28810 0.05400
C 	C 	0.49170 0.97040 0.27410 -0.07200
H 	H 	0.48510 0.02710 0.28890 0.05000
C 	C 	0.20500 0.69830 0.47010 -0.07300
H 	H 	0.17460 0.66310 0.45000 0.05700
C 	C 	0.25300 0.84080 0.48270 -0.07600
H 	H 	0.25520 0.90240 0.47120 0.05700
C 	C 	0.20770 0.78980 0.45230 0.06200
C 	C 	0.16250 0.83320 0.39930 -0.13300
H 	H 	0.12900 0.81540 0.40060 0.06900
H 	H 	0.16530 0.90110 0.40180 0.07500
C 	C 	0.20760 0.79360 0.32900 0.07600
H 	H 	0.24200 0.80420 0.35710 -0.00200
C 	C 	0.12190 0.77850 0.28860 -0.01400
H 	H 	0.08650 0.77650 0.28310 0.03100
C 	C 	0.14100 0.76050 0.24680 -0.00200
H 	H 	0.12070 0.74410 0.20670 0.01600
Ag	Ag	0.75069 0.28135 0.21921 0.50200
P 	P 	0.75191 0.12858 0.17324 0.01400
P 	P 	0.74666 0.43949 0.17801 0.01600
N 	N 	0.83864 0.29160 0.29690 -0.17700
N 	N 	0.92139 0.33690 0.34190 -0.10900
N 	N 	0.66426 0.30080 0.34130 -0.10500
N 	N 	0.69511 0.26980 0.27181 -0.18000
C 	C 	0.77390 0.03600 0.23120 -0.15200
H 	H 	0.77250 0.97560 0.21190 0.06300
H 	H 	0.81030 0.04750 0.25910 0.06400
C 	C 	0.76200 0.53500 0.23420 -0.15000
H 	H 	0.79850 0.52870 0.26300 0.06400
H 	H 	0.75870 0.59450 0.21340 0.06000
C 	C 	0.68990 0.08620 0.11780 -0.01100
C 	C 	0.64990 0.14880 0.08950 -0.06800
H 	H 	0.65570 0.21220 0.09920 0.02700
C 	C 	0.60130 0.12050 0.04690 -0.02300
H 	H 	0.57450 0.16380 0.02780 0.03000
C 	C 	0.59330 0.02400 0.03300 -0.06600
H 	H 	0.56070 0.00290 0.00510 0.04500
C 	C 	0.63160 0.96430 0.05940 -0.01100
H 	H 	0.62650 0.90100 0.04920 0.03000
C 	C 	0.67870 0.99400 0.10170 -0.06900
H 	H 	0.70470 0.94940 0.12070 0.04800
C 	C 	0.79750 0.11800 0.13590 0.00300
C 	C 	0.78120 0.10850 0.07450 -0.08900
H 	H 	0.74520 0.10280 0.05020 0.05900
C 	C 	0.81740 0.10730 0.04790 -0.00000
H 	H 	0.80560 0.10100 0.00600 0.02800
C 	C 	0.87020 0.11510 0.08260 -0.08400
H 	H 	0.89440 0.11360 0.06450 0.05600
C 	C 	0.88740 0.12510 0.14350 0.00200
H 	H 	0.92330 0.13010 0.16780 0.02400
C 	C 	0.85010 0.12770 0.16870 -0.08800
H 	H 	0.86190 0.13650 0.21050 0.05100
C 	C 	0.68570 0.47700 0.11770 -0.00500
C 	C 	0.63950 0.43010 0.10890 -0.07700
H 	H 	0.64040 0.38040 0.13440 0.03200
C 	C 	0.59110 0.45560 0.06240 -0.01500
H 	H 	0.56040 0.42200 0.05620 0.02700
C 	C 	0.58980 0.53020 0.02660 -0.07000
H 	H 	0.55760 0.54880 0.99660 0.04700
C 	C 	0.63460 0.57810 0.03400 -0.01200
H 	H 	0.63290 0.62920 0.00910 0.02800
C 	C 	0.68330 0.55070 0.07880 -0.07700
H 	H 	0.71410 0.58200 0.08260 0.05800
C 	C 	0.79630 0.45410 0.14700 -0.01300
C 	C 	0.83310 0.52790 0.16210 -0.06900
H 	H 	0.83080 0.57590 0.18710 0.05300
C 	C 	0.87250 0.53040 0.14060 -0.01300
H 	H 	0.89710 0.57910 0.15230 0.03100
C 	C 	0.87620 0.46280 0.10240 -0.06300
H 	H 	0.90270 0.46550 0.08760 0.04800
C 	C 	0.83920 0.38840 0.08560 -0.01700
H 	H 	0.84110 0.34190 0.05940 0.03500
C 	C 	0.80030 0.38470 0.10810 -0.07000
H 	H 	0.77630 0.33510 0.09710 0.03600
C 	C 	0.87580 0.34650 0.29420 0.08200
H 	H 	0.87080 0.38760 0.26230 -0.00100
C 	C 	0.86290 0.24690 0.35060 0.00200
H 	H 	0.84670 0.20320 0.36640 0.02400
C 	C 	0.91350 0.27410 0.37800 -0.00600
H 	H 	0.93820 0.25290 0.41510 0.02900
C 	C 	0.96960 0.38870 0.35390 -0.11800
H 	H 	0.99810 0.36120 0.38860 0.06400
H 	H 	0.96490 0.45290 0.36420 0.06400
C 	C 	0.98530 0.38880 0.29950 0.05700
C 	C 	0.99260 0.30740 0.27300 -0.06700
H 	H 	0.98690 0.25020 0.28810 0.05400
C 	C 	0.99170 0.47040 0.27410 -0.07200
H 	H 	0.98510 0.52710 0.28890 0.04900
C 	C 	0.70500 0.19830 0.47010 -0.07300
H 	H 	0.67460 0.16310 0.45000 0.05700
C 	C 	0.75300 0.34080 0.48270 -0.07600
H 	H 	0.75520 0.40240 0.47120 0.05700
C 	C 	0.70770 0.28980 0.45230 0.06200
C 	C 	0.66250 0.33320 0.39930 -0.13300
H 	H 	0.62900 0.31540 0.40060 0.06900
H 	H 	0.66530 0.40110 0.40180 0.07500
C 	C 	0.70760 0.29360 0.32900 0.07600
H 	H 	0.74200 0.30420 0.35710 -0.00200
C 	C 	0.62190 0.27850 0.28860 -0.01400
H 	H 	0.58650 0.27650 0.28310 0.03100
C 	C 	0.64100 0.26050 0.24680 -0.00200
H 	H 	0.62070 0.24410 0.20670 0.01600
Ag	Ag	0.74930 0.78135 0.28079 0.50200
P 	P 	0.74809 0.62858 0.32676 0.01400
P 	P 	0.75334 0.93949 0.32199 0.01600
N 	N 	0.66136 0.79160 0.20310 -0.17700
N 	N 	0.57861 0.83690 0.15810 -0.10900
N 	N 	0.83574 0.80080 0.15870 -0.10500
N 	N 	0.80489 0.76980 0.22819 -0.18000
C 	C 	0.72610 0.53600 0.26880 -0.15200
H 	H 	0.72750 0.47560 0.28810 0.06300
H 	H 	0.68970 0.54750 0.24090 0.06400
C 	C 	0.73800 0.03500 0.26580 -0.15000
H 	H 	0.70150 0.02870 0.23700 0.06400
H 	H 	0.74130 0.09450 0.28660 0.06000
C 	C 	0.81010 0.58620 0.38220 -0.01200
C 	C 	0.85010 0.64880 0.41050 -0.06800
H 	H 	0.84430 0.71220 0.40080 0.02700
C 	C 	0.89870 0.62050 0.45310 -0.02200
H 	H 	0.92550 0.66380 0.47220 0.02900
C 	C 	0.90670 0.52400 0.46700 -0.06700
H 	H 	0.93930 0.50290 0.49490 0.04500
C 	C 	0.86840 0.46430 0.44060 -0.01000
H 	H 	0.87350 0.40100 0.45080 0.03000
C 	C 	0.82130 0.49400 0.39830 -0.06900
H 	H 	0.79530 0.44940 0.37930 0.04900
C 	C 	0.70250 0.61800 0.36410 0.00300
C 	C 	0.71880 0.60850 0.42550 -0.08900
H 	H 	0.75480 0.60280 0.44980 0.05900
C 	C 	0.68260 0.60730 0.45210 -0.00000
H 	H 	0.69440 0.60100 0.49400 0.02800
C 	C 	0.62980 0.61510 0.41740 -0.08400
H 	H 	0.60560 0.61360 0.43550 0.05600
C 	C 	0.61260 0.62510 0.35650 0.00200
H 	H 	0.57670 0.63010 0.33220 0.02400
C 	C 	0.64990 0.62770 0.33130 -0.08800
H 	H 	0.63810 0.63650 0.28950 0.05100
C 	C 	0.81430 0.97700 0.38230 -0.00600
C 	C 	0.86050 0.93010 0.39110 -0.07600
H 	H 	0.85960 0.88040 0.36560 0.03200
C 	C 	0.90890 0.95560 0.43760 -0.01500
H 	H 	0.93960 0.92200 0.44380 0.02700
C 	C 	0.91020 0.03020 0.47340 -0.07000
H 	H 	0.94240 0.04880 0.50340 0.04600
C 	C 	0.86540 0.07810 0.46600 -0.01200
H 	H 	0.86710 0.12920 0.49090 0.02800
C 	C 	0.81670 0.05070 0.42120 -0.07600
H 	H 	0.78590 0.08200 0.41740 0.05800
C 	C 	0.70370 0.95410 0.35300 -0.01300
C 	C 	0.66690 0.02790 0.33790 -0.06900
H 	H 	0.66920 0.07590 0.31290 0.05300
C 	C 	0.62750 0.03040 0.35940 -0.01300
H 	H 	0.60290 0.07910 0.34770 0.03100
C 	C 	0.62380 0.96280 0.39760 -0.06300
H 	H 	0.59730 0.96550 0.41240 0.04800
C 	C 	0.66080 0.88840 0.41440 -0.01700
H 	H 	0.65890 0.84190 0.44060 0.03500
C 	C 	0.69970 0.88470 0.39190 -0.07000
H 	H 	0.72370 0.83510 0.40290 0.03600
C 	C 	0.62420 0.84650 0.20580 0.08200
H 	H 	0.62920 0.88760 0.23770 -0.00100
C 	C 	0.63710 0.74690 0.14940 0.00200
H 	H 	0.65330 0.70320 0.13360 0.02400
C 	C 	0.58650 0.77410 0.12200 -0.00600
H 	H 	0.56180 0.75290 0.08490 0.02900
C 	C 	0.53040 0.88870 0.14610 -0.11800
H 	H 	0.50190 0.86120 0.11140 0.06400
H 	H 	0.53510 0.95290 0.13580 0.06400
C 	C 	0.51470 0.88880 0.20050 0.05700
C 	C 	0.50740 0.80740 0.22700 -0.06700
H 	H 	0.51310 0.75020 0.21190 0.05400
C 	C 	0.50830 0.97040 0.22590 -0.07200
H 	H 	0.51490 0.02710 0.21110 0.05000
C 	C 	0.79500 0.69830 0.02990 -0.07400
H 	H 	0.82540 0.66310 0.05000 0.05700
C 	C 	0.74700 0.84080 0.01730 -0.07700
H 	H 	0.74480 0.90240 0.02880 0.05700
C 	C 	0.79230 0.78980 0.04770 0.06300
C 	C 	0.83750 0.83320 0.10070 -0.13300
H 	H 	0.87100 0.81540 0.09940 0.06900
H 	H 	0.83470 0.90110 0.09820 0.07500
C 	C 	0.79240 0.79360 0.17100 0.07600
H 	H 	0.75800 0.80420 0.14290 -0.00200
C 	C 	0.87810 0.77850 0.21140 -0.01400
H 	H 	0.91350 0.77650 0.21690 0.03100
C 	C 	0.85900 0.76050 0.25320 -0.00200
H 	H 	0.87930 0.74410 0.29330 0.01600
Ag	Ag	0.24930 0.28135 0.28079 0.50200
P 	P 	0.24809 0.12858 0.32676 0.01400
P 	P 	0.25334 0.43949 0.32199 0.01600
N 	N 	0.16136 0.29160 0.20310 -0.17700
N 	N 	0.07861 0.33690 0.15810 -0.10900
N 	N 	0.33574 0.30080 0.15870 -0.10500
N 	N 	0.30489 0.26980 0.22819 -0.18000
C 	C 	0.22610 0.03600 0.26880 -0.15200
H 	H 	0.22750 0.97560 0.28810 0.06300
H 	H 	0.18970 0.04750 0.24090 0.06400
C 	C 	0.23800 0.53500 0.26580 -0.15000
H 	H 	0.20150 0.52870 0.23700 0.06400
H 	H 	0.24130 0.59450 0.28660 0.06000
C 	C 	0.31010 0.08620 0.38220 -0.01100
C 	C 	0.35010 0.14880 0.41050 -0.06800
H 	H 	0.34430 0.21220 0.40080 0.02700
C 	C 	0.39870 0.12050 0.45310 -0.02200
H 	H 	0.42550 0.16380 0.47220 0.02900
C 	C 	0.40670 0.02400 0.46700 -0.06700
H 	H 	0.43930 0.00290 0.49490 0.04500
C 	C 	0.36840 0.96430 0.44060 -0.00900
H 	H 	0.37350 0.90100 0.45080 0.03000
C 	C 	0.32130 0.99400 0.39830 -0.06900
H 	H 	0.29530 0.94940 0.37930 0.04900
C 	C 	0.20250 0.11800 0.36410 0.00300
C 	C 	0.21880 0.10850 0.42550 -0.08900
H 	H 	0.25480 0.10280 0.44980 0.05900
C 	C 	0.18260 0.10730 0.45210 -0.00000
H 	H 	0.19440 0.10100 0.49400 0.02800
C 	C 	0.12980 0.11510 0.41740 -0.08400
H 	H 	0.10560 0.11360 0.43550 0.05600
C 	C 	0.11260 0.12510 0.35650 0.00200
H 	H 	0.07670 0.13010 0.33220 0.02400
C 	C 	0.14990 0.12770 0.33130 -0.08800
H 	H 	0.13810 0.13650 0.28950 0.05100
C 	C 	0.31430 0.47700 0.38230 -0.00500
C 	C 	0.36050 0.43010 0.39110 -0.07600
H 	H 	0.35960 0.38040 0.36560 0.03200
C 	C 	0.40890 0.45560 0.43760 -0.01500
H 	H 	0.43960 0.42200 0.44380 0.02700
C 	C 	0.41020 0.53020 0.47340 -0.07000
H 	H 	0.44240 0.54880 0.50340 0.04700
C 	C 	0.36540 0.57810 0.46600 -0.01200
H 	H 	0.36710 0.62920 0.49090 0.02800
C 	C 	0.31670 0.55070 0.42120 -0.07700
H 	H 	0.28590 0.58200 0.41740 0.05800
C 	C 	0.20370 0.45410 0.35300 -0.01300
C 	C 	0.16690 0.52790 0.33790 -0.06900
H 	H 	0.16920 0.57590 0.31290 0.05300
C 	C 	0.12750 0.53040 0.35940 -0.01300
H 	H 	0.10290 0.57910 0.34770 0.03100
C 	C 	0.12380 0.46280 0.39760 -0.06300
H 	H 	0.09730 0.46550 0.41240 0.04800
C 	C 	0.16080 0.38840 0.41440 -0.01700
H 	H 	0.15890 0.34190 0.44060 0.03500
C 	C 	0.19970 0.38470 0.39190 -0.07000
H 	H 	0.22370 0.33510 0.40290 0.03600
C 	C 	0.12420 0.34650 0.20580 0.08200
H 	H 	0.12920 0.38760 0.23770 -0.00100
C 	C 	0.13710 0.24690 0.14940 0.00200
H 	H 	0.15330 0.20320 0.13360 0.02400
C 	C 	0.08650 0.27410 0.12200 -0.00600
H 	H 	0.06180 0.25290 0.08490 0.02900
C 	C 	0.03040 0.38870 0.14610 -0.11800
H 	H 	0.00190 0.36120 0.11140 0.06400
H 	H 	0.03510 0.45290 0.13580 0.06400
C 	C 	0.01470 0.38880 0.20050 0.05600
C 	C 	0.00740 0.30740 0.22700 -0.06600
H 	H 	0.01310 0.25020 0.21190 0.05400
C 	C 	0.00830 0.47040 0.22590 -0.07200
H 	H 	0.01490 0.52710 0.21110 0.04900
C 	C 	0.29500 0.19830 0.02990 -0.07200
H 	H 	0.32540 0.16310 0.05000 0.05700
C 	C 	0.24700 0.34080 0.01730 -0.07500
H 	H 	0.24480 0.40240 0.02880 0.05700
C 	C 	0.29230 0.28980 0.04770 0.06100
C 	C 	0.33750 0.33320 0.10070 -0.13200
H 	H 	0.37100 0.31540 0.09940 0.06900
H 	H 	0.33470 0.40110 0.09820 0.07400
C 	C 	0.29240 0.29360 0.17100 0.07600
H 	H 	0.25800 0.30420 0.14290 -0.00200
C 	C 	0.37810 0.27850 0.21140 -0.01400
H 	H 	0.41350 0.27650 0.21690 0.03100
C 	C 	0.35900 0.26050 0.25320 -0.00200
H 	H 	0.37930 0.24410 0.29330 0.01600
Ag	Ag	0.74930 0.21865 0.78079 0.50200
P 	P 	0.74809 0.37142 0.82676 0.01400
P 	P 	0.75334 0.06051 0.82199 0.01600
N 	N 	0.66136 0.20840 0.70310 -0.17700
N 	N 	0.57861 0.16310 0.65810 -0.10900
N 	N 	0.83574 0.19920 0.65870 -0.10500
N 	N 	0.80489 0.23020 0.72819 -0.18000
C 	C 	0.72610 0.46400 0.76880 -0.15200
H 	H 	0.72750 0.52440 0.78810 0.06300
H 	H 	0.68970 0.45250 0.74090 0.06400
C 	C 	0.73800 0.96500 0.76580 -0.15000
H 	H 	0.70150 0.97130 0.73700 0.06400
H 	H 	0.74130 0.90550 0.78660 0.06000
C 	C 	0.81010 0.41380 0.88220 -0.01200
C 	C 	0.85010 0.35120 0.91050 -0.06800
H 	H 	0.84430 0.28780 0.90080 0.02700
C 	C 	0.89870 0.37950 0.95310 -0.02200
H 	H 	0.92550 0.33620 0.97220 0.02900
C 	C 	0.90670 0.47600 0.96700 -0.06700
H 	H 	0.93930 0.49710 0.99490 0.04500
C 	C 	0.86840 0.53570 0.94060 -0.01000
H 	H 	0.87350 0.59900 0.95080 0.03000
C 	C 	0.82130 0.50600 0.89830 -0.06900
H 	H 	0.79530 0.55060 0.87930 0.04900
C 	C 	0.70250 0.38200 0.86410 0.00300
C 	C 	0.71880 0.39150 0.92550 -0.08900
H 	H 	0.75480 0.39720 0.94980 0.05900
C 	C 	0.68260 0.39270 0.95210 -0.00000
H 	H 	0.69440 0.39900 0.99400 0.02800
C 	C 	0.62980 0.38490 0.91740 -0.08400
H 	H 	0.60560 0.38640 0.93550 0.05600
C 	C 	0.61260 0.37490 0.85650 0.00200
H 	H 	0.57670 0.36990 0.83220 0.02400
C 	C 	0.64990 0.37230 0.83130 -0.08800
H 	H 	0.63810 0.36350 0.78950 0.05100
C 	C 	0.81430 0.02300 0.88230 -0.00700
C 	C 	0.86050 0.06990 0.89110 -0.07400
H 	H 	0.85960 0.11960 0.86560 0.03200
C 	C 	0.90890 0.04440 0.93760 -0.01900
H 	H 	0.93960 0.07800 0.94380 0.02800
C 	C 	0.91020 0.96980 0.97340 -0.06600
H 	H 	0.94240 0.95120 0.00340 0.04500
C 	C 	0.86540 0.92190 0.96600 -0.01500
H 	H 	0.86710 0.87080 0.99090 0.03000
C 	C 	0.81670 0.94930 0.92120 -0.07400
H 	H 	0.78590 0.91800 0.91740 0.05700
C 	C 	0.70370 0.04590 0.85300 -0.01300
C 	C 	0.66690 0.97210 0.83790 -0.06900
H 	H 	0.66920 0.92410 0.81290 0.05300
C 	C 	0.62750 0.96960 0.85940 -0.01200
H 	H 	0.60290 0.92090 0.84770 0.03100
C 	C 	0.62380 0.03720 0.89760 -0.06300
H 	H 	0.59730 0.03450 0.91240 0.04800
C 	C 	0.66080 0.11160 0.91440 -0.01700
H 	H 	0.65890 0.15810 0.94060 0.03500
C 	C 	0.69970 0.11530 0.89190 -0.07000
H 	H 	0.72370 0.16490 0.90290 0.03600
C 	C 	0.62420 0.15350 0.70580 0.08200
H 	H 	0.62920 0.11240 0.73770 -0.00100
C 	C 	0.63710 0.25310 0.64940 0.00200
H 	H 	0.65330 0.29680 0.63360 0.02400
C 	C 	0.58650 0.22590 0.62200 -0.00600
H 	H 	0.56180 0.24710 0.58490 0.02900
C 	C 	0.53040 0.11130 0.64610 -0.11800
H 	H 	0.50190 0.13880 0.61140 0.06400
H 	H 	0.53510 0.04710 0.63580 0.06400
C 	C 	0.51470 0.11120 0.70050 0.05600
C 	C 	0.50740 0.19260 0.72700 -0.06700
H 	H 	0.51310 0.24980 0.71190 0.05400
C 	C 	0.50830 0.02960 0.72590 -0.07200
H 	H 	0.51490 0.97290 0.71110 0.05000
C 	C 	0.79500 0.30170 0.52990 -0.07300
H 	H 	0.82540 0.33690 0.55000 0.05700
C 	C 	0.74700 0.15920 0.51730 -0.07600
H 	H 	0.74480 0.09760 0.52880 0.05700
C 	C 	0.79230 0.21020 0.54770 0.06200
C 	C 	0.83750 0.16680 0.60070 -0.13300
H 	H 	0.87100 0.18460 0.59940 0.06900
H 	H 	0.83470 0.09890 0.59820 0.07500
C 	C 	0.79240 0.20640 0.67100 0.07600
H 	H 	0.75800 0.19580 0.64290 -0.00200
C 	C 	0.87810 0.22150 0.71140 -0.01400
H 	H 	0.91350 0.22350 0.71690 0.03100
C 	C 	0.85900 0.23950 0.75320 -0.00200
H 	H 	0.87930 0.25590 0.79330 0.01600
Ag	Ag	0.24930 0.71865 0.78079 0.50200
P 	P 	0.24809 0.87142 0.82676 0.01400
P 	P 	0.25334 0.56051 0.82199 0.01600
N 	N 	0.16136 0.70840 0.70310 -0.17700
N 	N 	0.07861 0.66310 0.65810 -0.10900
N 	N 	0.33574 0.69920 0.65870 -0.10500
N 	N 	0.30489 0.73020 0.72819 -0.18000
C 	C 	0.22610 0.96400 0.76880 -0.15200
H 	H 	0.22750 0.02440 0.78810 0.06300
H 	H 	0.18970 0.95250 0.74090 0.06400
C 	C 	0.23800 0.46500 0.76580 -0.15000
H 	H 	0.20150 0.47130 0.73700 0.06400
H 	H 	0.24130 0.40550 0.78660 0.06000
C 	C 	0.31010 0.91380 0.88220 -0.01100
C 	C 	0.35010 0.85120 0.91050 -0.06800
H 	H 	0.34430 0.78780 0.90080 0.02700
C 	C 	0.39870 0.87950 0.95310 -0.02300
H 	H 	0.42550 0.83620 0.97220 0.03000
C 	C 	0.40670 0.97600 0.96700 -0.06600
H 	H 	0.43930 0.99710 0.99490 0.04500
C 	C 	0.36840 0.03570 0.94060 -0.01100
H 	H 	0.37350 0.09900 0.95080 0.03000
C 	C 	0.32130 0.00600 0.89830 -0.06900
H 	H 	0.29530 0.05060 0.87930 0.04800
C 	C 	0.20250 0.88200 0.86410 0.00300
C 	C 	0.21880 0.89150 0.92550 -0.08900
H 	H 	0.25480 0.89720 0.94980 0.05900
C 	C 	0.18260 0.89270 0.95210 -0.00000
H 	H 	0.19440 0.89900 0.99400 0.02800
C 	C 	0.12980 0.88490 0.91740 -0.08400
H 	H 	0.10560 0.88640 0.93550 0.05600
C 	C 	0.11260 0.87490 0.85650 0.00200
H 	H 	0.07670 0.86990 0.83220 0.02400
C 	C 	0.14990 0.87230 0.83130 -0.08800
H 	H 	0.13810 0.86350 0.78950 0.05100
C 	C 	0.31430 0.52300 0.88230 -0.00500
C 	C 	0.36050 0.56990 0.89110 -0.07700
H 	H 	0.35960 0.61960 0.86560 0.03200
C 	C 	0.40890 0.54440 0.93760 -0.01500
H 	H 	0.43960 0.57800 0.94380 0.02700
C 	C 	0.41020 0.46980 0.97340 -0.07000
H 	H 	0.44240 0.45120 0.00340 0.04700
C 	C 	0.36540 0.42190 0.96600 -0.01200
H 	H 	0.36710 0.37080 0.99090 0.02800
C 	C 	0.31670 0.44930 0.92120 -0.07700
H 	H 	0.28590 0.41800 0.91740 0.05800
C 	C 	0.20370 0.54590 0.85300 -0.01300
C 	C 	0.16690 0.47210 0.83790 -0.06900
H 	H 	0.16920 0.42410 0.81290 0.05300
C 	C 	0.12750 0.46960 0.85940 -0.01300
H 	H 	0.10290 0.42090 0.84770 0.03100
C 	C 	0.12380 0.53720 0.89760 -0.06300
H 	H 	0.09730 0.53450 0.91240 0.04800
C 	C 	0.16080 0.61160 0.91440 -0.01700
H 	H 	0.15890 0.65810 0.94060 0.03500
C 	C 	0.19970 0.61530 0.89190 -0.07000
H 	H 	0.22370 0.66490 0.90290 0.03600
C 	C 	0.12420 0.65350 0.70580 0.08200
H 	H 	0.12920 0.61240 0.73770 -0.00100
C 	C 	0.13710 0.75310 0.64940 0.00200
H 	H 	0.15330 0.79680 0.63360 0.02400
C 	C 	0.08650 0.72590 0.62200 -0.00600
H 	H 	0.06180 0.74710 0.58490 0.02900
C 	C 	0.03040 0.61130 0.64610 -0.11800
H 	H 	0.00190 0.63880 0.61140 0.06400
H 	H 	0.03510 0.54710 0.63580 0.06400
C 	C 	0.01470 0.61120 0.70050 0.05700
C 	C 	0.00740 0.69260 0.72700 -0.06700
H 	H 	0.01310 0.74980 0.71190 0.05400
C 	C 	0.00830 0.52960 0.72590 -0.07200
H 	H 	0.01490 0.47290 0.71110 0.04900
C 	C 	0.29500 0.80170 0.52990 -0.07300
H 	H 	0.32540 0.83690 0.55000 0.05700
C 	C 	0.24700 0.65920 0.51730 -0.07600
H 	H 	0.24480 0.59760 0.52880 0.05700
C 	C 	0.29230 0.71020 0.54770 0.06200
C 	C 	0.33750 0.66680 0.60070 -0.13300
H 	H 	0.37100 0.68460 0.59940 0.06900
H 	H 	0.33470 0.59890 0.59820 0.07500
C 	C 	0.29240 0.70640 0.67100 0.07600
H 	H 	0.25800 0.69580 0.64290 -0.00200
C 	C 	0.37810 0.72150 0.71140 -0.01400
H 	H 	0.41350 0.72350 0.71690 0.03100
C 	C 	0.35900 0.73950 0.75320 -0.00200
H 	H 	0.37930 0.75590 0.79330 0.01600
Ag	Ag	0.25069 0.21865 0.71921 0.50200
P 	P 	0.25191 0.37142 0.67324 0.01400
P 	P 	0.24666 0.06051 0.67801 0.01600
N 	N 	0.33864 0.20840 0.79690 -0.17700
N 	N 	0.42139 0.16310 0.84190 -0.10900
N 	N 	0.16426 0.19920 0.84130 -0.10500
N 	N 	0.19511 0.23020 0.77181 -0.18000
C 	C 	0.27390 0.46400 0.73120 -0.15200
H 	H 	0.27250 0.52440 0.71190 0.06300
H 	H 	0.31030 0.45250 0.75910 0.06400
C 	C 	0.26200 0.96500 0.73420 -0.15000
H 	H 	0.29850 0.97130 0.76300 0.06400
H 	H 	0.25870 0.90550 0.71340 0.06000
C 	C 	0.18990 0.41380 0.61780 -0.01200
C 	C 	0.14990 0.35120 0.58950 -0.06800
H 	H 	0.15570 0.28780 0.59920 0.02700
C 	C 	0.10130 0.37950 0.54690 -0.02200
H 	H 	0.07450 0.33620 0.52780 0.02900
C 	C 	0.09330 0.47600 0.53300 -0.06700
H 	H 	0.06070 0.49710 0.50510 0.04500
C 	C 	0.13160 0.53570 0.55940 -0.01000
H 	H 	0.12650 0.59900 0.54920 0.03000
C 	C 	0.17870 0.50600 0.60170 -0.06900
H 	H 	0.20470 0.55060 0.62070 0.04900
C 	C 	0.29750 0.38200 0.63590 0.00300
C 	C 	0.28120 0.39150 0.57450 -0.08900
H 	H 	0.24520 0.39720 0.55020 0.05900
C 	C 	0.31740 0.39270 0.54790 -0.00000
H 	H 	0.30560 0.39900 0.50600 0.02800
C 	C 	0.37020 0.38490 0.58260 -0.08400
H 	H 	0.39440 0.38640 0.56450 0.05600
C 	C 	0.38740 0.37490 0.64350 0.00200
H 	H 	0.42330 0.36990 0.66780 0.02400
C 	C 	0.35010 0.37230 0.66870 -0.08800
H 	H 	0.36190 0.36350 0.71050 0.05100
C 	C 	0.18570 0.02300 0.61770 -0.00600
C 	C 	0.13950 0.06990 0.60890 -0.07600
H 	H 	0.14040 0.11960 0.63440 0.03200
C 	C 	0.09110 0.04440 0.56240 -0.01500
H 	H 	0.06040 0.07800 0.55620 0.02700
C 	C 	0.08980 0.96980 0.52660 -0.07000
H 	H 	0.05760 0.95120 0.49660 0.04600
C 	C 	0.13460 0.92190 0.53400 -0.01200
H 	H 	0.13290 0.87080 0.50910 0.02800
C 	C 	0.18330 0.94930 0.57880 -0.07600
H 	H 	0.21410 0.91800 0.58260 0.05800
C 	C 	0.29630 0.04590 0.64700 -0.01300
C 	C 	0.33310 0.97210 0.66210 -0.06900
H 	H 	0.33080 0.92410 0.68710 0.05300
C 	C 	0.37250 0.96960 0.64060 -0.01300
H 	H 	0.39710 0.92090 0.65230 0.03100
C 	C 	0.37620 0.03720 0.60240 -0.06300
H 	H 	0.40270 0.03450 0.58760 0.04800
C 	C 	0.33920 0.11160 0.58560 -0.01700
H 	H 	0.34110 0.15810 0.55940 0.03500
C 	C 	0.30030 0.11530 0.60810 -0.07000
H 	H 	0.27630 0.16490 0.59710 0.03600
C 	C 	0.37580 0.15350 0.79420 0.08200
H 	H 	0.37080 0.11240 0.76230 -0.00100
C 	C 	0.36290 0.25310 0.85060 0.00200
H 	H 	0.34670 0.29680 0.86640 0.02400
C 	C 	0.41350 0.22590 0.87800 -0.00600
H 	H 	0.43820 0.24710 0.91510 0.02900
C 	C 	0.46960 0.11130 0.85390 -0.11800
H 	H 	0.49810 0.13880 0.88860 0.06400
H 	H 	0.46490 0.04710 0.86420 0.06400
C 	C 	0.48530 0.11120 0.79950 0.05700
C 	C 	0.49260 0.19260 0.77300 -0.06700
H 	H 	0.48690 0.24980 0.78810 0.05400
C 	C 	0.49170 0.02960 0.77410 -0.07200
H 	H 	0.48510 0.97290 0.78890 0.05000
C 	C 	0.20500 0.30170 0.97010 -0.07400
H 	H 	0.17460 0.33690 0.95000 0.05700
C 	C 	0.25300 0.15920 0.98270 -0.07700
H 	H 	0.25520 0.09760 0.97120 0.05700
C 	C 	0.20770 0.21020 0.95230 0.06300
C 	C 	0.16250 0.16680 0.89930 -0.13300
H 	H 	0.12900 0.18460 0.90060 0.06900
H 	H 	0.16530 0.09890 0.90180 0.07500
C 	C 	0.20760 0.20640 0.82900 0.07600
H 	H 	0.24200 0.19580 0.85710 -0.00200
C 	C 	0.12190 0.22150 0.78860 -0.01400
H 	H 	0.08650 0.22350 0.78310 0.03100
C 	C 	0.14100 0.23950 0.74680 -0.00200
H 	H 	0.12070 0.25590 0.70670 0.01600
Ag	Ag	0.75069 0.71865 0.71921 0.50200
P 	P 	0.75191 0.87142 0.67324 0.01400
P 	P 	0.74666 0.56051 0.67801 0.01600
N 	N 	0.83864 0.70840 0.79690 -0.17700
N 	N 	0.92139 0.66310 0.84190 -0.10900
N 	N 	0.66426 0.69920 0.84130 -0.10500
N 	N 	0.69511 0.73020 0.77181 -0.18000
C 	C 	0.77390 0.96400 0.73120 -0.15200
H 	H 	0.77250 0.02440 0.71190 0.06300
H 	H 	0.81030 0.95250 0.75910 0.06400
C 	C 	0.76200 0.46500 0.73420 -0.15000
H 	H 	0.79850 0.47130 0.76300 0.06400
H 	H 	0.75870 0.40550 0.71340 0.06000
C 	C 	0.68990 0.91380 0.61780 -0.01100
C 	C 	0.64990 0.85120 0.58950 -0.06800
H 	H 	0.65570 0.78780 0.59920 0.02700
C 	C 	0.60130 0.87950 0.54690 -0.02200
H 	H 	0.57450 0.83620 0.52780 0.02900
C 	C 	0.59330 0.97600 0.53300 -0.06700
H 	H 	0.56070 0.99710 0.50510 0.04500
C 	C 	0.63160 0.03570 0.55940 -0.00900
H 	H 	0.62650 0.09900 0.54920 0.03000
C 	C 	0.67870 0.00600 0.60170 -0.06900
H 	H 	0.70470 0.05060 0.62070 0.04900
C 	C 	0.79750 0.88200 0.63590 0.00300
C 	C 	0.78120 0.89150 0.57450 -0.08900
H 	H 	0.74520 0.89720 0.55020 0.05900
C 	C 	0.81740 0.89270 0.54790 -0.00000
H 	H 	0.80560 0.89900 0.50600 0.02800
C 	C 	0.87020 0.88490 0.58260 -0.08400
H 	H 	0.89440 0.88640 0.56450 0.05600
C 	C 	0.88740 0.87490 0.64350 0.00200
H 	H 	0.92330 0.86990 0.66780 0.02400
C 	C 	0.85010 0.87230 0.66870 -0.08800
H 	H 	0.86190 0.86350 0.71050 0.05100
C 	C 	0.68570 0.52300 0.61770 -0.00500
C 	C 	0.63950 0.56990 0.60890 -0.07600
H 	H 	0.64040 0.61960 0.63440 0.03200
C 	C 	0.59110 0.54440 0.56240 -0.01500
H 	H 	0.56040 0.57800 0.55620 0.02700
C 	C 	0.58980 0.46980 0.52660 -0.07000
H 	H 	0.55760 0.45120 0.49660 0.04700
C 	C 	0.63460 0.42190 0.53400 -0.01200
H 	H 	0.63290 0.37080 0.50910 0.02800
C 	C 	0.68330 0.44930 0.57880 -0.07700
H 	H 	0.71410 0.41800 0.58260 0.05800
C 	C 	0.79630 0.54590 0.64700 -0.01300
C 	C 	0.83310 0.47210 0.66210 -0.06900
H 	H 	0.83080 0.42410 0.68710 0.05300
C 	C 	0.87250 0.46960 0.64060 -0.01300
H 	H 	0.89710 0.42090 0.65230 0.03100
C 	C 	0.87620 0.53720 0.60240 -0.06300
H 	H 	0.90270 0.53450 0.58760 0.04800
C 	C 	0.83920 0.61160 0.58560 -0.01700
H 	H 	0.84110 0.65810 0.55940 0.03500
C 	C 	0.80030 0.61530 0.60810 -0.07000
H 	H 	0.77630 0.66490 0.59710 0.03600
C 	C 	0.87580 0.65350 0.79420 0.08200
H 	H 	0.87080 0.61240 0.76230 -0.00100
C 	C 	0.86290 0.75310 0.85060 0.00200
H 	H 	0.84670 0.79680 0.86640 0.02400
C 	C 	0.91350 0.72590 0.87800 -0.00600
H 	H 	0.93820 0.74710 0.91510 0.02900
C 	C 	0.96960 0.61130 0.85390 -0.11800
H 	H 	0.99810 0.63880 0.88860 0.06400
H 	H 	0.96490 0.54710 0.86420 0.06400
C 	C 	0.98530 0.61120 0.79950 0.05600
C 	C 	0.99260 0.69260 0.77300 -0.06600
H 	H 	0.98690 0.74980 0.78810 0.05400
C 	C 	0.99170 0.52960 0.77410 -0.07200
H 	H 	0.98510 0.47290 0.78890 0.04900
C 	C 	0.70500 0.80170 0.97010 -0.07200
H 	H 	0.67460 0.83690 0.95000 0.05700
C 	C 	0.75300 0.65920 0.98270 -0.07500
H 	H 	0.75520 0.59760 0.97120 0.05700
C 	C 	0.70770 0.71020 0.95230 0.06100
C 	C 	0.66250 0.66680 0.89930 -0.13200
H 	H 	0.62900 0.68460 0.90060 0.06900
H 	H 	0.66530 0.59890 0.90180 0.07400
C 	C 	0.70760 0.70640 0.82900 0.07600
H 	H 	0.74200 0.69580 0.85710 -0.00200
C 	C 	0.62190 0.72150 0.78860 -0.01400
H 	H 	0.58650 0.72350 0.78310 0.03100
C 	C 	0.64100 0.73950 0.74680 -0.00200
H 	H 	0.62070 0.75590 0.70670 0.01600
