data_crystal

_cell_length_a 27.88100
_cell_length_b 14.25200
_cell_length_c 24.05900
_cell_angle_alpha 90.00000
_cell_angle_beta  111.79900
_cell_angle_gamma 90.00000

_symmetry_space_group_name_	'P 1'
_symmetry_space_group_name_H-M	'P 1'

loop_
_symmetry_equiv_pos_as_xyz
  x,y,z

loop_
_atom_site_label
_atom_site_type_symbol
_atom_site_fract_x
_atom_site_fract_y
_atom_site_fract_z
_atom_site_charge
Ag	Ag	0.25384 0.71701 0.22063 0.50100
P 	P 	0.24917 0.55883 0.17985 0.01200
P 	P 	0.24557 0.36946 0.32564 0.01500
N 	N 	0.33826 0.70840 0.29636 -0.18000
N 	N 	0.41923 0.66590 0.34000 -0.10900
N 	N 	0.16750 0.69890 0.34376 -0.10600
N 	N 	0.19953 0.72820 0.27488 -0.18000
C 	C 	0.26287 0.46440 0.23554 -0.14800
H 	H 	0.26060 0.40460 0.21540 0.05900
H 	H 	0.29800 0.47130 0.26400 0.06300
C 	C 	0.22672 0.46290 0.26936 -0.15400
H 	H 	0.19160 0.45240 0.24160 0.06500
H 	H 	0.22790 0.52290 0.28880 0.06400
C 	C 	0.29870 0.54220 0.14815 -0.00500
C 	C 	0.33480 0.47090 0.16480 -0.07700
H 	H 	0.33280 0.42440 0.19100 0.05500
C 	C 	0.37370 0.46880 0.14230 -0.00500
H 	H 	0.39870 0.42200 0.15480 0.02800
C 	C 	0.37620 0.53450 0.10210 -0.07400
H 	H 	0.40160 0.53060 0.08580 0.05100
C 	C 	0.34130 0.60510 0.08620 -0.00400
H 	H 	0.34340 0.65070 0.05950 0.03000
C 	C 	0.30260 0.61040 0.10910 -0.08200
H 	H 	0.27930 0.65990 0.09820 0.04000
C 	C 	0.18966 0.52260 0.12047 -0.00100
C 	C 	0.14540 0.56950 0.11350 -0.08100
H 	H 	0.14640 0.61940 0.13880 0.03400
C 	C 	0.09880 0.54440 0.06940 -0.01000
H 	H 	0.06890 0.57790 0.06450 0.02500
C 	C 	0.09740 0.46930 0.03290 -0.07500
H 	H 	0.06610 0.45110 0.00380 0.04800
C 	C 	0.14090 0.42180 0.03890 -0.00600
H 	H 	0.13970 0.37140 0.01390 0.02600
C 	C 	0.18710 0.44850 0.08240 -0.08100
H 	H 	0.21710 0.41610 0.08620 0.06000
C 	C 	0.20030 0.38030 0.36360 0.00200
C 	C 	0.14860 0.37270 0.33070 -0.08800
H 	H 	0.13760 0.36600 0.28930 0.05100
C 	C 	0.11240 0.37460 0.35670 0.00200
H 	H 	0.07740 0.36870 0.33350 0.02400
C 	C 	0.12850 0.38520 0.41700 -0.08200
H 	H 	0.10430 0.38800 0.43510 0.05500
C 	C 	0.18070 0.39180 0.45160 -0.00100
H 	H 	0.19140 0.39760 0.49300 0.02800
C 	C 	0.21640 0.39000 0.42520 -0.08900
H 	H 	0.25130 0.39510 0.44850 0.05900
C 	C 	0.30570 0.40870 0.38000 -0.01600
C 	C 	0.34210 0.34260 0.40970 -0.06500
H 	H 	0.33460 0.27940 0.40130 0.02600
C 	C 	0.38990 0.36790 0.45180 -0.02800
H 	H 	0.41420 0.32240 0.47140 0.03200
C 	C 	0.40070 0.46260 0.46420 -0.05800
H 	H 	0.43240 0.48020 0.49260 0.04100
C 	C 	0.36640 0.52810 0.43630 -0.02200
H 	H 	0.37420 0.59120 0.44490 0.03500
C 	C 	0.31890 0.50180 0.39390 -0.06100
H 	H 	0.29530 0.54830 0.37430 0.04600
C 	C 	0.37570 0.65450 0.29380 0.08200
H 	H 	0.37190 0.61290 0.26260 -0.00100
C 	C 	0.35990 0.75650 0.34740 0.00900
H 	H 	0.34290 0.80090 0.36160 0.02100
C 	C 	0.40960 0.73210 0.37520 -0.01600
H 	H 	0.43270 0.75570 0.41130 0.03300
C 	C 	0.46750 0.61590 0.35240 -0.11900
H 	H 	0.46360 0.55180 0.36360 0.06500
H 	H 	0.49440 0.64530 0.38590 0.06400
C 	C 	0.48380 0.61490 0.29820 0.05600
C 	C 	0.49290 0.69830 0.27370 -0.06700
H 	H 	0.48910 0.75510 0.29060 0.05400
C 	C 	0.49250 0.53480 0.27380 -0.07100
H 	H 	0.48820 0.47770 0.29000 0.04900
C 	C 	0.20700 0.80160 0.46970 -0.07700
H 	H 	0.17810 0.83800 0.44940 0.05900
C 	C 	0.25180 0.65910 0.48310 -0.07700
H 	H 	0.25380 0.59720 0.47190 0.05800
C 	C 	0.20850 0.71090 0.45320 0.06700
C 	C 	0.16520 0.66890 0.40190 -0.13700
H 	H 	0.16720 0.60100 0.40470 0.07600
H 	H 	0.13250 0.68820 0.40380 0.07000
C 	C 	0.21045 0.70710 0.33160 0.07700
H 	H 	0.24370 0.69890 0.35960 -0.00100
C 	C 	0.12675 0.71770 0.29200 -0.01300
H 	H 	0.09190 0.71800 0.28660 0.03100
C 	C 	0.14670 0.73560 0.25090 -0.00200
H 	H 	0.12750 0.75100 0.21130 0.01600
Ag	Ag	0.75384 0.21701 0.22063 0.50200
P 	P 	0.74917 0.05883 0.17985 0.01300
P 	P 	0.74557 0.86946 0.32564 0.01600
N 	N 	0.83826 0.20840 0.29636 -0.17900
N 	N 	0.91923 0.16590 0.34000 -0.10800
N 	N 	0.66750 0.19890 0.34376 -0.10500
N 	N 	0.69953 0.22820 0.27488 -0.18000
C 	C 	0.76287 0.96440 0.23554 -0.14800
H 	H 	0.76060 0.90460 0.21540 0.05900
H 	H 	0.79800 0.97130 0.26400 0.06300
C 	C 	0.72672 0.96290 0.26936 -0.15400
H 	H 	0.69160 0.95240 0.24160 0.06500
H 	H 	0.72790 0.02290 0.28880 0.06400
C 	C 	0.79870 0.04220 0.14815 -0.00500
C 	C 	0.83480 0.97090 0.16480 -0.07700
H 	H 	0.83280 0.92440 0.19100 0.05500
C 	C 	0.87370 0.96880 0.14230 -0.00400
H 	H 	0.89870 0.92200 0.15480 0.02700
C 	C 	0.87620 0.03450 0.10210 -0.07400
H 	H 	0.90160 0.03060 0.08580 0.05200
C 	C 	0.84130 0.10510 0.08620 -0.00400
H 	H 	0.84340 0.15070 0.05950 0.03000
C 	C 	0.80260 0.11040 0.10910 -0.08200
H 	H 	0.77930 0.15990 0.09820 0.04000
C 	C 	0.68966 0.02260 0.12047 -0.00200
C 	C 	0.64540 0.06950 0.11350 -0.08000
H 	H 	0.64640 0.11940 0.13880 0.03300
C 	C 	0.59880 0.04440 0.06940 -0.01200
H 	H 	0.56890 0.07790 0.06450 0.02600
C 	C 	0.59740 0.96930 0.03290 -0.07400
H 	H 	0.56610 0.95110 0.00380 0.04800
C 	C 	0.64090 0.92180 0.03890 -0.00700
H 	H 	0.63970 0.87140 0.01390 0.02700
C 	C 	0.68710 0.94850 0.08240 -0.08000
H 	H 	0.71710 0.91610 0.08620 0.05900
C 	C 	0.70030 0.88030 0.36360 0.00200
C 	C 	0.64860 0.87270 0.33070 -0.08800
H 	H 	0.63760 0.86600 0.28930 0.05100
C 	C 	0.61240 0.87460 0.35670 0.00200
H 	H 	0.57740 0.86870 0.33350 0.02400
C 	C 	0.62850 0.88520 0.41700 -0.08200
H 	H 	0.60430 0.88800 0.43510 0.05500
C 	C 	0.68070 0.89180 0.45160 -0.00100
H 	H 	0.69140 0.89760 0.49300 0.02800
C 	C 	0.71640 0.89000 0.42520 -0.08900
H 	H 	0.75130 0.89510 0.44850 0.05900
C 	C 	0.80570 0.90870 0.38000 -0.01600
C 	C 	0.84210 0.84260 0.40970 -0.06500
H 	H 	0.83460 0.77940 0.40130 0.02600
C 	C 	0.88990 0.86790 0.45180 -0.02800
H 	H 	0.91420 0.82240 0.47140 0.03200
C 	C 	0.90070 0.96260 0.46420 -0.05800
H 	H 	0.93240 0.98020 0.49260 0.04100
C 	C 	0.86640 0.02810 0.43630 -0.02200
H 	H 	0.87420 0.09120 0.44490 0.03500
C 	C 	0.81890 0.00180 0.39390 -0.06200
H 	H 	0.79530 0.04830 0.37430 0.04600
C 	C 	0.87570 0.15450 0.29380 0.08200
H 	H 	0.87190 0.11290 0.26260 -0.00100
C 	C 	0.85990 0.25650 0.34740 0.00900
H 	H 	0.84290 0.30090 0.36160 0.02100
C 	C 	0.90960 0.23210 0.37520 -0.01600
H 	H 	0.93270 0.25570 0.41130 0.03300
C 	C 	0.96750 0.11590 0.35240 -0.11900
H 	H 	0.96360 0.05180 0.36360 0.06500
H 	H 	0.99440 0.14530 0.38590 0.06400
C 	C 	0.98380 0.11490 0.29820 0.05600
C 	C 	0.99290 0.19830 0.27370 -0.06700
H 	H 	0.98910 0.25510 0.29060 0.05400
C 	C 	0.99250 0.03480 0.27380 -0.07100
H 	H 	0.98820 0.97770 0.29000 0.04900
C 	C 	0.70700 0.30160 0.46970 -0.07700
H 	H 	0.67810 0.33800 0.44940 0.05900
C 	C 	0.75180 0.15910 0.48310 -0.07700
H 	H 	0.75380 0.09720 0.47190 0.05700
C 	C 	0.70850 0.21090 0.45320 0.06700
C 	C 	0.66520 0.16890 0.40190 -0.13700
H 	H 	0.66720 0.10100 0.40470 0.07600
H 	H 	0.63250 0.18820 0.40380 0.07000
C 	C 	0.71045 0.20710 0.33160 0.07700
H 	H 	0.74370 0.19890 0.35960 -0.00100
C 	C 	0.62675 0.21770 0.29200 -0.01300
H 	H 	0.59190 0.21800 0.28660 0.03100
C 	C 	0.64670 0.23560 0.25090 -0.00200
H 	H 	0.62750 0.25100 0.21130 0.01600
Ag	Ag	0.74615 0.71701 0.27937 0.50200
P 	P 	0.75083 0.55883 0.32015 0.01300
P 	P 	0.75443 0.36946 0.17436 0.01600
N 	N 	0.66174 0.70840 0.20364 -0.17900
N 	N 	0.58077 0.66590 0.16000 -0.10800
N 	N 	0.83250 0.69890 0.15624 -0.10500
N 	N 	0.80047 0.72820 0.22512 -0.18000
C 	C 	0.73713 0.46440 0.26446 -0.14800
H 	H 	0.73940 0.40460 0.28460 0.05900
H 	H 	0.70200 0.47130 0.23600 0.06300
C 	C 	0.77328 0.46290 0.23064 -0.15400
H 	H 	0.80840 0.45240 0.25840 0.06500
H 	H 	0.77210 0.52290 0.21120 0.06400
C 	C 	0.70130 0.54220 0.35185 -0.00500
C 	C 	0.66520 0.47090 0.33520 -0.07700
H 	H 	0.66720 0.42440 0.30900 0.05500
C 	C 	0.62630 0.46880 0.35770 -0.00500
H 	H 	0.60130 0.42200 0.34520 0.02800
C 	C 	0.62380 0.53450 0.39790 -0.07400
H 	H 	0.59840 0.53060 0.41420 0.05100
C 	C 	0.65870 0.60510 0.41380 -0.00400
H 	H 	0.65660 0.65070 0.44050 0.03000
C 	C 	0.69740 0.61040 0.39090 -0.08200
H 	H 	0.72070 0.65990 0.40180 0.04000
C 	C 	0.81034 0.52260 0.37953 -0.00100
C 	C 	0.85460 0.56950 0.38650 -0.08100
H 	H 	0.85360 0.61940 0.36120 0.03400
C 	C 	0.90120 0.54440 0.43060 -0.01000
H 	H 	0.93110 0.57790 0.43550 0.02500
C 	C 	0.90260 0.46930 0.46710 -0.07500
H 	H 	0.93390 0.45110 0.49620 0.04800
C 	C 	0.85910 0.42180 0.46110 -0.00600
H 	H 	0.86030 0.37140 0.48610 0.02700
C 	C 	0.81290 0.44850 0.41760 -0.08100
H 	H 	0.78290 0.41610 0.41380 0.06000
C 	C 	0.79970 0.38030 0.13640 0.00200
C 	C 	0.85140 0.37270 0.16930 -0.08800
H 	H 	0.86240 0.36600 0.21070 0.05100
C 	C 	0.88760 0.37460 0.14330 0.00200
H 	H 	0.92260 0.36870 0.16650 0.02400
C 	C 	0.87150 0.38520 0.08300 -0.08200
H 	H 	0.89570 0.38800 0.06490 0.05500
C 	C 	0.81930 0.39180 0.04840 -0.00100
H 	H 	0.80860 0.39760 0.00700 0.02800
C 	C 	0.78360 0.39000 0.07480 -0.08900
H 	H 	0.74870 0.39510 0.05150 0.05900
C 	C 	0.69430 0.40870 0.12000 -0.01600
C 	C 	0.65790 0.34260 0.09030 -0.06500
H 	H 	0.66540 0.27940 0.09870 0.02600
C 	C 	0.61010 0.36790 0.04820 -0.02800
H 	H 	0.58580 0.32240 0.02860 0.03200
C 	C 	0.59930 0.46260 0.03580 -0.05800
H 	H 	0.56760 0.48020 0.00740 0.04100
C 	C 	0.63360 0.52810 0.06370 -0.02200
H 	H 	0.62580 0.59120 0.05510 0.03500
C 	C 	0.68110 0.50180 0.10610 -0.06100
H 	H 	0.70470 0.54830 0.12570 0.04600
C 	C 	0.62430 0.65450 0.20620 0.08200
H 	H 	0.62810 0.61290 0.23740 -0.00100
C 	C 	0.64010 0.75650 0.15260 0.00900
H 	H 	0.65710 0.80090 0.13840 0.02100
C 	C 	0.59040 0.73210 0.12480 -0.01600
H 	H 	0.56730 0.75570 0.08870 0.03300
C 	C 	0.53250 0.61590 0.14760 -0.11900
H 	H 	0.53640 0.55180 0.13640 0.06500
H 	H 	0.50560 0.64530 0.11410 0.06400
C 	C 	0.51620 0.61490 0.20180 0.05600
C 	C 	0.50710 0.69830 0.22630 -0.06700
H 	H 	0.51090 0.75510 0.20940 0.05400
C 	C 	0.50750 0.53480 0.22620 -0.07100
H 	H 	0.51180 0.47770 0.21000 0.04900
C 	C 	0.79300 0.80160 0.03030 -0.07600
H 	H 	0.82190 0.83800 0.05060 0.05900
C 	C 	0.74820 0.65910 0.01690 -0.07700
H 	H 	0.74620 0.59720 0.02810 0.05700
C 	C 	0.79150 0.71090 0.04680 0.06700
C 	C 	0.83480 0.66890 0.09810 -0.13600
H 	H 	0.83280 0.60100 0.09530 0.07600
H 	H 	0.86750 0.68820 0.09620 0.07000
C 	C 	0.78955 0.70710 0.16840 0.07700
H 	H 	0.75630 0.69890 0.14040 -0.00100
C 	C 	0.87325 0.71770 0.20800 -0.01300
H 	H 	0.90810 0.71800 0.21340 0.03100
C 	C 	0.85330 0.73560 0.24910 -0.00200
H 	H 	0.87250 0.75100 0.28870 0.01600
Ag	Ag	0.24616 0.21701 0.27937 0.50200
P 	P 	0.25083 0.05883 0.32015 0.01300
P 	P 	0.25443 0.86946 0.17436 0.01600
N 	N 	0.16174 0.20840 0.20364 -0.17900
N 	N 	0.08077 0.16590 0.16000 -0.10800
N 	N 	0.33250 0.19890 0.15624 -0.10500
N 	N 	0.30047 0.22820 0.22512 -0.18000
C 	C 	0.23713 0.96440 0.26446 -0.14800
H 	H 	0.23940 0.90460 0.28460 0.05900
H 	H 	0.20200 0.97130 0.23600 0.06300
C 	C 	0.27328 0.96290 0.23064 -0.15300
H 	H 	0.30840 0.95240 0.25840 0.06500
H 	H 	0.27210 0.02290 0.21120 0.06400
C 	C 	0.20130 0.04220 0.35185 -0.00500
C 	C 	0.16520 0.97090 0.33520 -0.07700
H 	H 	0.16720 0.92440 0.30900 0.05500
C 	C 	0.12630 0.96880 0.35770 -0.00500
H 	H 	0.10130 0.92200 0.34520 0.02800
C 	C 	0.12380 0.03450 0.39790 -0.07400
H 	H 	0.09840 0.03060 0.41420 0.05100
C 	C 	0.15870 0.10510 0.41380 -0.00400
H 	H 	0.15660 0.15070 0.44050 0.03000
C 	C 	0.19740 0.11040 0.39090 -0.08200
H 	H 	0.22070 0.15990 0.40180 0.04000
C 	C 	0.31034 0.02260 0.37953 -0.00100
C 	C 	0.35460 0.06950 0.38650 -0.08100
H 	H 	0.35360 0.11940 0.36120 0.03400
C 	C 	0.40120 0.04440 0.43060 -0.01100
H 	H 	0.43110 0.07790 0.43550 0.02500
C 	C 	0.40260 0.96930 0.46710 -0.07500
H 	H 	0.43390 0.95110 0.49620 0.04800
C 	C 	0.35910 0.92180 0.46110 -0.00600
H 	H 	0.36030 0.87140 0.48610 0.02700
C 	C 	0.31290 0.94850 0.41760 -0.08100
H 	H 	0.28290 0.91610 0.41380 0.05900
C 	C 	0.29970 0.88030 0.13640 0.00200
C 	C 	0.35140 0.87270 0.16930 -0.08800
H 	H 	0.36240 0.86600 0.21070 0.05100
C 	C 	0.38760 0.87460 0.14330 0.00200
H 	H 	0.42260 0.86870 0.16650 0.02400
C 	C 	0.37150 0.88520 0.08300 -0.08200
H 	H 	0.39570 0.88800 0.06490 0.05500
C 	C 	0.31930 0.89180 0.04840 -0.00100
H 	H 	0.30860 0.89760 0.00700 0.02800
C 	C 	0.28360 0.89000 0.07480 -0.08900
H 	H 	0.24870 0.89510 0.05150 0.05900
C 	C 	0.19430 0.90870 0.12000 -0.01600
C 	C 	0.15790 0.84260 0.09030 -0.06500
H 	H 	0.16540 0.77940 0.09870 0.02600
C 	C 	0.11010 0.86790 0.04820 -0.02800
H 	H 	0.08580 0.82240 0.02860 0.03200
C 	C 	0.09930 0.96260 0.03580 -0.05700
H 	H 	0.06760 0.98020 0.00740 0.04100
C 	C 	0.13360 0.02810 0.06370 -0.02300
H 	H 	0.12580 0.09120 0.05510 0.03500
C 	C 	0.18110 0.00180 0.10610 -0.06200
H 	H 	0.20470 0.04830 0.12570 0.04600
C 	C 	0.12430 0.15450 0.20620 0.08200
H 	H 	0.12810 0.11290 0.23740 -0.00100
C 	C 	0.14010 0.25650 0.15260 0.00900
H 	H 	0.15710 0.30090 0.13840 0.02100
C 	C 	0.09040 0.23210 0.12480 -0.01600
H 	H 	0.06730 0.25570 0.08870 0.03300
C 	C 	0.03250 0.11590 0.14760 -0.11900
H 	H 	0.03640 0.05180 0.13640 0.06500
H 	H 	0.00560 0.14530 0.11410 0.06400
C 	C 	0.01620 0.11490 0.20180 0.05600
C 	C 	0.00710 0.19830 0.22630 -0.06700
H 	H 	0.01090 0.25510 0.20940 0.05400
C 	C 	0.00750 0.03480 0.22620 -0.07100
H 	H 	0.01180 0.97770 0.21000 0.04900
C 	C 	0.29300 0.30160 0.03030 -0.07700
H 	H 	0.32190 0.33800 0.05060 0.05900
C 	C 	0.24820 0.15910 0.01690 -0.07800
H 	H 	0.24620 0.09720 0.02810 0.05800
C 	C 	0.29150 0.21090 0.04680 0.06800
C 	C 	0.33480 0.16890 0.09810 -0.13700
H 	H 	0.33280 0.10100 0.09530 0.07600
H 	H 	0.36750 0.18820 0.09620 0.07000
C 	C 	0.28955 0.20710 0.16840 0.07700
H 	H 	0.25630 0.19890 0.14040 -0.00100
C 	C 	0.37325 0.21770 0.20800 -0.01300
H 	H 	0.40810 0.21800 0.21340 0.03100
C 	C 	0.35330 0.23560 0.24910 -0.00200
H 	H 	0.37250 0.25100 0.28870 0.01600
Ag	Ag	0.74615 0.28299 0.77937 0.50200
P 	P 	0.75083 0.44117 0.82015 0.01300
P 	P 	0.75443 0.63054 0.67436 0.01600
N 	N 	0.66174 0.29160 0.70364 -0.17900
N 	N 	0.58077 0.33410 0.66000 -0.10800
N 	N 	0.83250 0.30110 0.65624 -0.10500
N 	N 	0.80047 0.27180 0.72512 -0.18000
C 	C 	0.73713 0.53560 0.76446 -0.14800
H 	H 	0.73940 0.59540 0.78460 0.05900
H 	H 	0.70200 0.52870 0.73600 0.06300
C 	C 	0.77328 0.53710 0.73064 -0.15400
H 	H 	0.80840 0.54760 0.75840 0.06500
H 	H 	0.77210 0.47710 0.71120 0.06400
C 	C 	0.70130 0.45780 0.85185 -0.00500
C 	C 	0.66520 0.52910 0.83520 -0.07700
H 	H 	0.66720 0.57560 0.80900 0.05500
C 	C 	0.62630 0.53120 0.85770 -0.00500
H 	H 	0.60130 0.57800 0.84520 0.02800
C 	C 	0.62380 0.46550 0.89790 -0.07400
H 	H 	0.59840 0.46940 0.91420 0.05100
C 	C 	0.65870 0.39490 0.91380 -0.00400
H 	H 	0.65660 0.34930 0.94050 0.03000
C 	C 	0.69740 0.38960 0.89090 -0.08200
H 	H 	0.72070 0.34010 0.90180 0.04000
C 	C 	0.81034 0.47740 0.87953 -0.00100
C 	C 	0.85460 0.43050 0.88650 -0.08100
H 	H 	0.85360 0.38060 0.86120 0.03400
C 	C 	0.90120 0.45560 0.93060 -0.01000
H 	H 	0.93110 0.42210 0.93550 0.02500
C 	C 	0.90260 0.53070 0.96710 -0.07500
H 	H 	0.93390 0.54890 0.99620 0.04800
C 	C 	0.85910 0.57820 0.96110 -0.00600
H 	H 	0.86030 0.62860 0.98610 0.02600
C 	C 	0.81290 0.55150 0.91760 -0.08100
H 	H 	0.78290 0.58390 0.91380 0.06000
C 	C 	0.79970 0.61970 0.63640 0.00200
C 	C 	0.85140 0.62730 0.66930 -0.08800
H 	H 	0.86240 0.63400 0.71070 0.05100
C 	C 	0.88760 0.62540 0.64330 0.00200
H 	H 	0.92260 0.63130 0.66650 0.02400
C 	C 	0.87150 0.61480 0.58300 -0.08200
H 	H 	0.89570 0.61200 0.56490 0.05500
C 	C 	0.81930 0.60820 0.54840 -0.00100
H 	H 	0.80860 0.60240 0.50700 0.02800
C 	C 	0.78360 0.61000 0.57480 -0.08900
H 	H 	0.74870 0.60490 0.55150 0.05900
C 	C 	0.69430 0.59130 0.62000 -0.01600
C 	C 	0.65790 0.65740 0.59030 -0.06500
H 	H 	0.66540 0.72060 0.59870 0.02600
C 	C 	0.61010 0.63210 0.54820 -0.02800
H 	H 	0.58580 0.67760 0.52860 0.03200
C 	C 	0.59930 0.53740 0.53580 -0.05800
H 	H 	0.56760 0.51980 0.50740 0.04100
C 	C 	0.63360 0.47190 0.56370 -0.02200
H 	H 	0.62580 0.40880 0.55510 0.03500
C 	C 	0.68110 0.49820 0.60610 -0.06100
H 	H 	0.70470 0.45170 0.62570 0.04600
C 	C 	0.62430 0.34550 0.70620 0.08200
H 	H 	0.62810 0.38710 0.73740 -0.00100
C 	C 	0.64010 0.24350 0.65260 0.00900
H 	H 	0.65710 0.19910 0.63840 0.02100
C 	C 	0.59040 0.26790 0.62480 -0.01600
H 	H 	0.56730 0.24430 0.58870 0.03300
C 	C 	0.53250 0.38410 0.64760 -0.11900
H 	H 	0.53640 0.44820 0.63640 0.06500
H 	H 	0.50560 0.35470 0.61410 0.06400
C 	C 	0.51620 0.38510 0.70180 0.05600
C 	C 	0.50710 0.30170 0.72630 -0.06700
H 	H 	0.51090 0.24490 0.70940 0.05400
C 	C 	0.50750 0.46520 0.72620 -0.07100
H 	H 	0.51180 0.52230 0.71000 0.04900
C 	C 	0.79300 0.19840 0.53030 -0.07700
H 	H 	0.82190 0.16200 0.55060 0.05900
C 	C 	0.74820 0.34090 0.51690 -0.07700
H 	H 	0.74620 0.40280 0.52810 0.05800
C 	C 	0.79150 0.28910 0.54680 0.06700
C 	C 	0.83480 0.33110 0.59810 -0.13700
H 	H 	0.83280 0.39900 0.59530 0.07600
H 	H 	0.86750 0.31180 0.59620 0.07000
C 	C 	0.78955 0.29290 0.66840 0.07700
H 	H 	0.75630 0.30110 0.64040 -0.00100
C 	C 	0.87325 0.28230 0.70800 -0.01300
H 	H 	0.90810 0.28200 0.71340 0.03100
C 	C 	0.85330 0.26440 0.74910 -0.00200
H 	H 	0.87250 0.24900 0.78870 0.01600
Ag	Ag	0.24616 0.78299 0.77937 0.50200
P 	P 	0.25083 0.94117 0.82015 0.01300
P 	P 	0.25443 0.13054 0.67436 0.01600
N 	N 	0.16174 0.79160 0.70364 -0.17900
N 	N 	0.08077 0.83410 0.66000 -0.10800
N 	N 	0.33250 0.80110 0.65624 -0.10500
N 	N 	0.30047 0.77180 0.72512 -0.18000
C 	C 	0.23713 0.03560 0.76446 -0.14800
H 	H 	0.23940 0.09540 0.78460 0.05900
H 	H 	0.20200 0.02870 0.73600 0.06300
C 	C 	0.27328 0.03710 0.73064 -0.15400
H 	H 	0.30840 0.04760 0.75840 0.06500
H 	H 	0.27210 0.97710 0.71120 0.06400
C 	C 	0.20130 0.95780 0.85185 -0.00500
C 	C 	0.16520 0.02910 0.83520 -0.07700
H 	H 	0.16720 0.07560 0.80900 0.05500
C 	C 	0.12630 0.03120 0.85770 -0.00400
H 	H 	0.10130 0.07800 0.84520 0.02700
C 	C 	0.12380 0.96550 0.89790 -0.07400
H 	H 	0.09840 0.96940 0.91420 0.05200
C 	C 	0.15870 0.89490 0.91380 -0.00400
H 	H 	0.15660 0.84930 0.94050 0.03000
C 	C 	0.19740 0.88960 0.89090 -0.08200
H 	H 	0.22070 0.84010 0.90180 0.04000
C 	C 	0.31034 0.97740 0.87953 -0.00200
C 	C 	0.35460 0.93050 0.88650 -0.08000
H 	H 	0.35360 0.88060 0.86120 0.03300
C 	C 	0.40120 0.95560 0.93060 -0.01200
H 	H 	0.43110 0.92210 0.93550 0.02600
C 	C 	0.40260 0.03070 0.96710 -0.07400
H 	H 	0.43390 0.04890 0.99620 0.04800
C 	C 	0.35910 0.07820 0.96110 -0.00700
H 	H 	0.36030 0.12860 0.98610 0.02700
C 	C 	0.31290 0.05150 0.91760 -0.08000
H 	H 	0.28290 0.08390 0.91380 0.05900
C 	C 	0.29970 0.11970 0.63640 0.00200
C 	C 	0.35140 0.12730 0.66930 -0.08800
H 	H 	0.36240 0.13400 0.71070 0.05100
C 	C 	0.38760 0.12540 0.64330 0.00200
H 	H 	0.42260 0.13130 0.66650 0.02400
C 	C 	0.37150 0.11480 0.58300 -0.08200
H 	H 	0.39570 0.11200 0.56490 0.05500
C 	C 	0.31930 0.10820 0.54840 -0.00100
H 	H 	0.30860 0.10240 0.50700 0.02800
C 	C 	0.28360 0.11000 0.57480 -0.08900
H 	H 	0.24870 0.10490 0.55150 0.05900
C 	C 	0.19430 0.09130 0.62000 -0.01600
C 	C 	0.15790 0.15740 0.59030 -0.06500
H 	H 	0.16540 0.22060 0.59870 0.02600
C 	C 	0.11010 0.13210 0.54820 -0.02800
H 	H 	0.08580 0.17760 0.52860 0.03200
C 	C 	0.09930 0.03740 0.53580 -0.05800
H 	H 	0.06760 0.01980 0.50740 0.04100
C 	C 	0.13360 0.97190 0.56370 -0.02200
H 	H 	0.12580 0.90880 0.55510 0.03500
C 	C 	0.18110 0.99820 0.60610 -0.06200
H 	H 	0.20470 0.95170 0.62570 0.04600
C 	C 	0.12430 0.84550 0.70620 0.08200
H 	H 	0.12810 0.88710 0.73740 -0.00100
C 	C 	0.14010 0.74350 0.65260 0.00900
H 	H 	0.15710 0.69910 0.63840 0.02100
C 	C 	0.09040 0.76790 0.62480 -0.01600
H 	H 	0.06730 0.74430 0.58870 0.03300
C 	C 	0.03250 0.88410 0.64760 -0.11900
H 	H 	0.03640 0.94820 0.63640 0.06500
H 	H 	0.00560 0.85470 0.61410 0.06400
C 	C 	0.01620 0.88510 0.70180 0.05600
C 	C 	0.00710 0.80170 0.72630 -0.06700
H 	H 	0.01090 0.74490 0.70940 0.05400
C 	C 	0.00750 0.96520 0.72620 -0.07100
H 	H 	0.01180 0.02230 0.71000 0.04900
C 	C 	0.29300 0.69840 0.53030 -0.07700
H 	H 	0.32190 0.66200 0.55060 0.05900
C 	C 	0.24820 0.84090 0.51690 -0.07700
H 	H 	0.24620 0.90280 0.52810 0.05700
C 	C 	0.29150 0.78910 0.54680 0.06700
C 	C 	0.33480 0.83110 0.59810 -0.13700
H 	H 	0.33280 0.89900 0.59530 0.07600
H 	H 	0.36750 0.81180 0.59620 0.07000
C 	C 	0.28955 0.79290 0.66840 0.07700
H 	H 	0.25630 0.80110 0.64040 -0.00100
C 	C 	0.37325 0.78230 0.70800 -0.01300
H 	H 	0.40810 0.78200 0.71340 0.03100
C 	C 	0.35330 0.76440 0.74910 -0.00200
H 	H 	0.37250 0.74900 0.78870 0.01600
Ag	Ag	0.25384 0.28299 0.72063 0.50200
P 	P 	0.24917 0.44117 0.67985 0.01300
P 	P 	0.24557 0.63054 0.82564 0.01600
N 	N 	0.33826 0.29160 0.79636 -0.17900
N 	N 	0.41923 0.33410 0.84000 -0.10800
N 	N 	0.16750 0.30110 0.84376 -0.10500
N 	N 	0.19953 0.27180 0.77488 -0.18000
C 	C 	0.26287 0.53560 0.73554 -0.14800
H 	H 	0.26060 0.59540 0.71540 0.05900
H 	H 	0.29800 0.52870 0.76400 0.06300
C 	C 	0.22672 0.53710 0.76936 -0.15400
H 	H 	0.19160 0.54760 0.74160 0.06500
H 	H 	0.22790 0.47710 0.78880 0.06400
C 	C 	0.29870 0.45780 0.64815 -0.00500
C 	C 	0.33480 0.52910 0.66480 -0.07700
H 	H 	0.33280 0.57560 0.69100 0.05500
C 	C 	0.37370 0.53120 0.64230 -0.00500
H 	H 	0.39870 0.57800 0.65480 0.02800
C 	C 	0.37620 0.46550 0.60210 -0.07400
H 	H 	0.40160 0.46940 0.58580 0.05100
C 	C 	0.34130 0.39490 0.58620 -0.00400
H 	H 	0.34340 0.34930 0.55950 0.03000
C 	C 	0.30260 0.38960 0.60910 -0.08200
H 	H 	0.27930 0.34010 0.59820 0.04000
C 	C 	0.18966 0.47740 0.62047 -0.00100
C 	C 	0.14540 0.43050 0.61350 -0.08100
H 	H 	0.14640 0.38060 0.63880 0.03400
C 	C 	0.09880 0.45560 0.56940 -0.01000
H 	H 	0.06890 0.42210 0.56450 0.02500
C 	C 	0.09740 0.53070 0.53290 -0.07500
H 	H 	0.06610 0.54890 0.50380 0.04800
C 	C 	0.14090 0.57820 0.53890 -0.00600
H 	H 	0.13970 0.62860 0.51390 0.02700
C 	C 	0.18710 0.55150 0.58240 -0.08100
H 	H 	0.21710 0.58390 0.58620 0.06000
C 	C 	0.20030 0.61970 0.86360 0.00200
C 	C 	0.14860 0.62730 0.83070 -0.08800
H 	H 	0.13760 0.63400 0.78930 0.05100
C 	C 	0.11240 0.62540 0.85670 0.00200
H 	H 	0.07740 0.63130 0.83350 0.02400
C 	C 	0.12850 0.61480 0.91700 -0.08200
H 	H 	0.10430 0.61200 0.93510 0.05500
C 	C 	0.18070 0.60820 0.95160 -0.00100
H 	H 	0.19140 0.60240 0.99300 0.02800
C 	C 	0.21640 0.61000 0.92520 -0.08900
H 	H 	0.25130 0.60490 0.94850 0.05900
C 	C 	0.30570 0.59130 0.88000 -0.01600
C 	C 	0.34210 0.65740 0.90970 -0.06500
H 	H 	0.33460 0.72060 0.90130 0.02600
C 	C 	0.38990 0.63210 0.95180 -0.02800
H 	H 	0.41420 0.67760 0.97140 0.03200
C 	C 	0.40070 0.53740 0.96420 -0.05800
H 	H 	0.43240 0.51980 0.99260 0.04100
C 	C 	0.36640 0.47190 0.93630 -0.02200
H 	H 	0.37420 0.40880 0.94490 0.03500
C 	C 	0.31890 0.49820 0.89390 -0.06100
H 	H 	0.29530 0.45170 0.87430 0.04600
C 	C 	0.37570 0.34550 0.79380 0.08200
H 	H 	0.37190 0.38710 0.76260 -0.00100
C 	C 	0.35990 0.24350 0.84740 0.00900
H 	H 	0.34290 0.19910 0.86160 0.02100
C 	C 	0.40960 0.26790 0.87520 -0.01600
H 	H 	0.43270 0.24430 0.91130 0.03300
C 	C 	0.46750 0.38410 0.85240 -0.11900
H 	H 	0.46360 0.44820 0.86360 0.06500
H 	H 	0.49440 0.35470 0.88590 0.06400
C 	C 	0.48380 0.38510 0.79820 0.05600
C 	C 	0.49290 0.30170 0.77370 -0.06700
H 	H 	0.48910 0.24490 0.79060 0.05400
C 	C 	0.49250 0.46520 0.77380 -0.07100
H 	H 	0.48820 0.52230 0.79000 0.04900
C 	C 	0.20700 0.19840 0.96970 -0.07600
H 	H 	0.17810 0.16200 0.94940 0.05900
C 	C 	0.25180 0.34090 0.98310 -0.07700
H 	H 	0.25380 0.40280 0.97190 0.05700
C 	C 	0.20850 0.28910 0.95320 0.06700
C 	C 	0.16520 0.33110 0.90190 -0.13600
H 	H 	0.16720 0.39900 0.90470 0.07600
H 	H 	0.13250 0.31180 0.90380 0.07000
C 	C 	0.21045 0.29290 0.83160 0.07700
H 	H 	0.24370 0.30110 0.85960 -0.00100
C 	C 	0.12675 0.28230 0.79200 -0.01300
H 	H 	0.09190 0.28200 0.78660 0.03100
C 	C 	0.14670 0.26440 0.75090 -0.00200
H 	H 	0.12750 0.24900 0.71130 0.01600
Ag	Ag	0.75384 0.78299 0.72063 0.50200
P 	P 	0.74917 0.94117 0.67985 0.01300
P 	P 	0.74557 0.13054 0.82564 0.01600
N 	N 	0.83826 0.79160 0.79636 -0.17900
N 	N 	0.91923 0.83410 0.84000 -0.10800
N 	N 	0.66750 0.80110 0.84376 -0.10500
N 	N 	0.69953 0.77180 0.77488 -0.18000
C 	C 	0.76287 0.03560 0.73554 -0.14800
H 	H 	0.76060 0.09540 0.71540 0.05900
H 	H 	0.79800 0.02870 0.76400 0.06300
C 	C 	0.72672 0.03710 0.76936 -0.15300
H 	H 	0.69160 0.04760 0.74160 0.06500
H 	H 	0.72790 0.97710 0.78880 0.06400
C 	C 	0.79870 0.95780 0.64815 -0.00500
C 	C 	0.83480 0.02910 0.66480 -0.07700
H 	H 	0.83280 0.07560 0.69100 0.05500
C 	C 	0.87370 0.03120 0.64230 -0.00500
H 	H 	0.89870 0.07800 0.65480 0.02800
C 	C 	0.87620 0.96550 0.60210 -0.07400
H 	H 	0.90160 0.96940 0.58580 0.05100
C 	C 	0.84130 0.89490 0.58620 -0.00400
H 	H 	0.84340 0.84930 0.55950 0.03000
C 	C 	0.80260 0.88960 0.60910 -0.08200
H 	H 	0.77930 0.84010 0.59820 0.04000
C 	C 	0.68966 0.97740 0.62047 -0.00100
C 	C 	0.64540 0.93050 0.61350 -0.08100
H 	H 	0.64640 0.88060 0.63880 0.03400
C 	C 	0.59880 0.95560 0.56940 -0.01100
H 	H 	0.56890 0.92210 0.56450 0.02500
C 	C 	0.59740 0.03070 0.53290 -0.07500
H 	H 	0.56610 0.04890 0.50380 0.04800
C 	C 	0.64090 0.07820 0.53890 -0.00600
H 	H 	0.63970 0.12860 0.51390 0.02700
C 	C 	0.68710 0.05150 0.58240 -0.08100
H 	H 	0.71710 0.08390 0.58620 0.05900
C 	C 	0.70030 0.11970 0.86360 0.00200
C 	C 	0.64860 0.12730 0.83070 -0.08800
H 	H 	0.63760 0.13400 0.78930 0.05100
C 	C 	0.61240 0.12540 0.85670 0.00200
H 	H 	0.57740 0.13130 0.83350 0.02400
C 	C 	0.62850 0.11480 0.91700 -0.08200
H 	H 	0.60430 0.11200 0.93510 0.05500
C 	C 	0.68070 0.10820 0.95160 -0.00100
H 	H 	0.69140 0.10240 0.99300 0.02800
C 	C 	0.71640 0.11000 0.92520 -0.08900
H 	H 	0.75130 0.10490 0.94850 0.05900
C 	C 	0.80570 0.09130 0.88000 -0.01600
C 	C 	0.84210 0.15740 0.90970 -0.06500
H 	H 	0.83460 0.22060 0.90130 0.02600
C 	C 	0.88990 0.13210 0.95180 -0.02800
H 	H 	0.91420 0.17760 0.97140 0.03200
C 	C 	0.90070 0.03740 0.96420 -0.05700
H 	H 	0.93240 0.01980 0.99260 0.04100
C 	C 	0.86640 0.97190 0.93630 -0.02300
H 	H 	0.87420 0.90880 0.94490 0.03500
C 	C 	0.81890 0.99820 0.89390 -0.06200
H 	H 	0.79530 0.95170 0.87430 0.04600
C 	C 	0.87570 0.84550 0.79380 0.08200
H 	H 	0.87190 0.88710 0.76260 -0.00100
C 	C 	0.85990 0.74350 0.84740 0.00900
H 	H 	0.84290 0.69910 0.86160 0.02100
C 	C 	0.90960 0.76790 0.87520 -0.01600
H 	H 	0.93270 0.74430 0.91130 0.03300
C 	C 	0.96750 0.88410 0.85240 -0.11900
H 	H 	0.96360 0.94820 0.86360 0.06500
H 	H 	0.99440 0.85470 0.88590 0.06400
C 	C 	0.98380 0.88510 0.79820 0.05600
C 	C 	0.99290 0.80170 0.77370 -0.06700
H 	H 	0.98910 0.74490 0.79060 0.05400
C 	C 	0.99250 0.96520 0.77380 -0.07100
H 	H 	0.98820 0.02230 0.79000 0.04900
C 	C 	0.70700 0.69840 0.96970 -0.07700
H 	H 	0.67810 0.66200 0.94940 0.05900
C 	C 	0.75180 0.84090 0.98310 -0.07800
H 	H 	0.75380 0.90280 0.97190 0.05800
C 	C 	0.70850 0.78910 0.95320 0.06800
C 	C 	0.66520 0.83110 0.90190 -0.13700
H 	H 	0.66720 0.89900 0.90470 0.07600
H 	H 	0.63250 0.81180 0.90380 0.07000
C 	C 	0.71045 0.79290 0.83160 0.07700
H 	H 	0.74370 0.80110 0.85960 -0.00100
C 	C 	0.62675 0.78230 0.79200 -0.01300
H 	H 	0.59190 0.78200 0.78660 0.03100
C 	C 	0.64670 0.76440 0.75090 -0.00200
H 	H 	0.62750 0.74900 0.71130 0.01600
