data_crystal

_cell_length_a 9.87070
_cell_length_b 16.50870
_cell_length_c 16.47220
_cell_angle_alpha 90.00000
_cell_angle_beta  90.00000
_cell_angle_gamma 90.00000

_symmetry_space_group_name_	'P 1'
_symmetry_space_group_name_H-M	'P 1'

loop_
_symmetry_equiv_pos_as_xyz
  x,y,z

loop_
_atom_site_label
_atom_site_type_symbol
_atom_site_fract_x
_atom_site_fract_y
_atom_site_fract_z
_atom_site_charge
Ni	Ni	0.37116 0.55204 0.03555 1.01200
Ni	Ni	0.62884 0.44796 0.53555 1.08100
Ni	Ni	0.62884 0.05204 0.03555 1.01100
Ni	Ni	0.37116 0.94796 0.53555 1.07900
Ge	Ge	0.09054 0.47498 0.05226 1.39200
Ge	Ge	0.95452 0.57292 0.91424 1.73600
Ge	Ge	0.06377 0.66318 0.06008 1.35600
Ge	Ge	0.86759 0.34875 0.07743 1.57000
Ge	Ge	0.97565 0.44186 0.22244 1.63000
Ge	Ge	0.72958 0.50521 0.02202 1.10700
Ge	Ge	0.82667 0.59544 0.16394 1.26000
Ge	Ge	0.90946 0.52502 0.55226 1.59800
Ge	Ge	0.04548 0.42708 0.41424 1.68400
Ge	Ge	0.93623 0.33682 0.56008 1.66700
Ge	Ge	0.13241 0.65125 0.57743 1.63400
Ge	Ge	0.02435 0.55814 0.72244 1.65200
Ge	Ge	0.27042 0.49479 0.52202 1.59400
Ge	Ge	0.17333 0.40456 0.66394 1.31600
Ge	Ge	0.90946 0.97498 0.05226 1.40900
Ge	Ge	0.04548 0.07292 0.91424 1.73100
Ge	Ge	0.93623 0.16318 0.06008 1.34300
Ge	Ge	0.13241 0.84875 0.07743 1.55900
Ge	Ge	0.02435 0.94186 0.22244 1.58600
Ge	Ge	0.27042 0.00521 0.02202 1.12900
Ge	Ge	0.17333 0.09544 0.16394 1.26000
Ge	Ge	0.09054 0.02502 0.55226 1.60500
Ge	Ge	0.95452 0.92708 0.41424 1.69000
Ge	Ge	0.06377 0.83682 0.56008 1.65300
Ge	Ge	0.86759 0.15125 0.57743 1.61900
Ge	Ge	0.97565 0.05814 0.72244 1.59600
Ge	Ge	0.72958 0.99479 0.52202 1.60700
Ge	Ge	0.82667 0.90456 0.66394 1.31700
H 	H 	0.51540 0.40310 0.12920 0.07600
H 	H 	0.39930 0.38740 0.19230 0.09900
H 	H 	0.38730 0.34620 0.03890 -0.09700
H 	H 	0.26290 0.34580 0.09800 -0.05800
H 	H 	0.41280 0.52080 0.81110 0.06900
H 	H 	0.51290 0.58430 0.84930 0.08300
H 	H 	0.45710 0.42930 0.91200 0.06800
H 	H 	0.59840 0.45920 0.87960 0.04100
H 	H 	0.48460 0.59690 0.62920 0.08000
H 	H 	0.60070 0.61260 0.69230 0.09600
H 	H 	0.61270 0.65380 0.53890 -0.03300
H 	H 	0.73710 0.65420 0.59800 -0.03600
H 	H 	0.58720 0.47920 0.31110 0.08600
H 	H 	0.48710 0.41570 0.34930 0.08800
H 	H 	0.54290 0.57070 0.41200 -0.02700
H 	H 	0.40160 0.54080 0.37960 -0.03200
H 	H 	0.48460 0.90310 0.12920 0.07500
H 	H 	0.60070 0.88740 0.19230 0.09800
H 	H 	0.61270 0.84620 0.03890 -0.09600
H 	H 	0.73710 0.84580 0.09800 -0.05700
H 	H 	0.58720 0.02080 0.81110 0.06900
H 	H 	0.48710 0.08430 0.84930 0.08600
H 	H 	0.54290 0.92930 0.91200 0.06500
H 	H 	0.40160 0.95920 0.87960 0.03600
H 	H 	0.51540 0.09690 0.62920 0.07900
H 	H 	0.39930 0.11260 0.69230 0.09500
H 	H 	0.38730 0.15380 0.53890 -0.03300
H 	H 	0.26290 0.15420 0.59800 -0.03600
H 	H 	0.41280 0.97920 0.31110 0.08400
H 	H 	0.51290 0.91570 0.34930 0.08700
H 	H 	0.45710 0.07070 0.41200 -0.02500
H 	H 	0.59840 0.04080 0.37960 -0.03300
C 	C 	0.42120 0.41430 0.14160 -0.23600
C 	C 	0.33220 0.37990 0.07410 0.24600
C 	C 	0.44830 0.54190 0.86180 -0.12200
C 	C 	0.51670 0.47580 0.90780 0.06800
C 	C 	0.57880 0.58570 0.64160 -0.20500
C 	C 	0.66780 0.62010 0.57410 0.21000
C 	C 	0.55170 0.45810 0.36180 -0.20100
C 	C 	0.48330 0.52420 0.40780 0.19700
C 	C 	0.57880 0.91430 0.14160 -0.23100
C 	C 	0.66780 0.87990 0.07410 0.24400
C 	C 	0.55170 0.04190 0.86180 -0.13300
C 	C 	0.48330 0.97580 0.90780 0.08400
C 	C 	0.42120 0.08570 0.64160 -0.20400
C 	C 	0.33220 0.12010 0.57410 0.20900
C 	C 	0.44830 0.95810 0.36180 -0.19600
C 	C 	0.51670 0.02420 0.40780 0.19100
N 	N 	0.40230 0.50750 0.15240 -0.19000
N 	N 	0.33480 0.57560 0.91230 -0.14000
N 	N 	0.59770 0.49250 0.65240 -0.18100
N 	N 	0.66520 0.42440 0.41230 -0.19700
N 	N 	0.59770 0.00750 0.15240 -0.19300
N 	N 	0.66520 0.07560 0.91230 -0.14300
N 	N 	0.40230 0.99250 0.65240 -0.18200
N 	N 	0.33480 0.92440 0.41230 -0.19900
O 	O 	0.26860 0.44160 0.02660 -0.57500
O 	O 	0.16750 0.57950 0.06840 -0.81600
O 	O 	0.06830 0.49770 0.94020 -0.59100
O 	O 	0.11730 0.45570 0.16250 -0.70300
O 	O 	0.02340 0.37110 0.03460 -0.75000
O 	O 	0.17140 0.74640 0.06680 -0.77500
O 	O 	0.97200 0.60010 0.81400 -0.78800
O 	O 	0.98610 0.66530 0.96500 -0.61800
O 	O 	0.91090 0.51770 0.07350 -0.80000
O 	O 	0.88470 0.53120 0.24260 -0.73300
O 	O 	0.86430 0.36850 0.18130 -0.78000
O 	O 	0.94350 0.67120 0.13640 -0.72800
O 	O 	0.78670 0.54710 0.92810 -0.62500
O 	O 	0.73380 0.39770 0.02920 -0.75400
O 	O 	0.68270 0.56830 0.10410 -0.70200
O 	O 	0.55060 0.50510 0.98810 -0.30900
O 	O 	0.73140 0.55840 0.52660 -0.51500
O 	O 	0.83250 0.42050 0.56840 -0.85200
O 	O 	0.93170 0.50230 0.44020 -0.73700
O 	O 	0.88270 0.54430 0.66250 -0.74000
O 	O 	0.97660 0.62890 0.53460 -0.73500
O 	O 	0.82860 0.25360 0.56680 -0.79300
O 	O 	0.02800 0.39990 0.31400 -0.78500
O 	O 	0.01390 0.33470 0.46500 -0.80500
O 	O 	0.08910 0.48230 0.57350 -0.85200
O 	O 	0.11530 0.46880 0.74260 -0.73900
O 	O 	0.13570 0.63150 0.68130 -0.79500
O 	O 	0.05650 0.32880 0.63640 -0.77300
O 	O 	0.21330 0.45290 0.42810 -0.79100
O 	O 	0.26620 0.60230 0.52920 -0.77300
O 	O 	0.31730 0.43170 0.60410 -0.74700
O 	O 	0.44940 0.49490 0.48810 -0.56000
O 	O 	0.73140 0.94160 0.02660 -0.57400
O 	O 	0.83250 0.07950 0.06840 -0.82300
O 	O 	0.93170 0.99770 0.94020 -0.58600
O 	O 	0.88270 0.95570 0.16250 -0.69000
O 	O 	0.97660 0.87110 0.03460 -0.74800
O 	O 	0.82860 0.24640 0.06680 -0.77500
O 	O 	0.02800 0.10010 0.81400 -0.77300
O 	O 	0.01390 0.16530 0.96500 -0.61500
O 	O 	0.08910 0.01770 0.07350 -0.79700
O 	O 	0.11530 0.03120 0.24260 -0.72000
O 	O 	0.13570 0.86850 0.18130 -0.77300
O 	O 	0.05650 0.17120 0.13640 -0.72400
O 	O 	0.21330 0.04710 0.92810 -0.62800
O 	O 	0.26620 0.89770 0.02920 -0.75900
O 	O 	0.31730 0.06830 0.10410 -0.70300
O 	O 	0.44940 0.00510 0.98810 -0.31900
O 	O 	0.26860 0.05840 0.52660 -0.51500
O 	O 	0.16750 0.92050 0.56840 -0.85600
O 	O 	0.06830 0.00230 0.44020 -0.73400
O 	O 	0.11730 0.04430 0.66250 -0.72600
O 	O 	0.02340 0.12890 0.53460 -0.73000
O 	O 	0.17140 0.75360 0.56680 -0.79300
O 	O 	0.97200 0.89990 0.31400 -0.77300
O 	O 	0.98610 0.83470 0.46500 -0.80200
O 	O 	0.91090 0.98230 0.57350 -0.84600
O 	O 	0.88470 0.96880 0.74260 -0.72200
O 	O 	0.86430 0.13150 0.68130 -0.78700
O 	O 	0.94350 0.82880 0.63640 -0.76900
O 	O 	0.78670 0.95290 0.42810 -0.79200
O 	O 	0.73380 0.10230 0.52920 -0.77800
O 	O 	0.68270 0.93170 0.60410 -0.74800
O 	O 	0.55060 0.99490 0.48810 -0.55900
