data_crystal

_cell_length_a 36.35100
_cell_length_b 36.35100
_cell_length_c 14.94300
_cell_angle_alpha 90.00000
_cell_angle_beta  90.00000
_cell_angle_gamma 90.00000

_symmetry_space_group_name_	'P 1'
_symmetry_space_group_name_H-M	'P 1'

loop_
_symmetry_equiv_pos_as_xyz
  x,y,z

loop_
_atom_site_label
_atom_site_type_symbol
_atom_site_fract_x
_atom_site_fract_y
_atom_site_fract_z
_atom_site_charge
C 	C 	0.33725 0.03848 0.28940 0.25700
C 	C 	0.31588 0.03992 0.20060 0.07300
C 	C 	0.29072 0.00775 0.08000 0.19400
C 	C 	0.25290 0.00862 0.08150 -0.23300
H 	H 	0.24010 0.00890 0.13540 0.09300
C 	C 	0.26896 0.17037 0.21260 0.27700
C 	C 	0.25802 0.15298 0.30230 0.07200
C 	C 	0.21607 0.15085 0.41980 0.21200
C 	C 	0.19236 0.12150 0.41950 -0.26200
H 	H 	0.18380 0.11190 0.36580 0.10300
C 	C 	0.40266 0.13430 0.21490 0.27000
C 	C 	0.39408 0.15451 0.30280 0.06400
C 	C 	0.41731 0.19127 0.41870 0.20000
C 	C 	0.41344 0.22891 0.41830 -0.25100
H 	H 	0.41170 0.24190 0.36480 0.09100
Cu	Cu	0.33538 0.96779 0.23322 0.85900
Mn	Mn	0.32614 0.11688 0.25393 1.29900
Na	Na	0.46720 0.12480 0.93770 0.52900
N 	N 	0.31029 0.00807 0.16380 -0.26400
N 	N 	0.22811 0.16666 0.33697 -0.26800
N 	N 	0.42212 0.17229 0.33660 -0.26800
O 	O 	0.34254 0.06814 0.32894 -0.40700
O 	O 	0.30650 0.07150 0.17042 -0.35900
O 	O 	0.34875 0.00781 0.31660 -0.48000
O 	O 	0.29689 0.15833 0.17459 -0.50600
O 	O 	0.27835 0.12761 0.33232 -0.34900
O 	O 	0.24911 0.19580 0.18337 -0.53300
O 	O 	0.37718 0.11742 0.17840 -0.45200
O 	O 	0.36152 0.15247 0.33329 -0.34300
O 	O 	0.43497 0.13661 0.18540 -0.52000
C 	C 	0.66275 0.96152 0.28940 0.25800
C 	C 	0.68412 0.96008 0.20060 0.07400
C 	C 	0.70928 0.99225 0.08000 0.19500
C 	C 	0.74710 0.99138 0.08150 -0.23200
H 	H 	0.75990 0.99110 0.13540 0.09400
C 	C 	0.73104 0.82963 0.21260 0.27800
C 	C 	0.74198 0.84702 0.30230 0.07200
C 	C 	0.78393 0.84915 0.41980 0.21200
C 	C 	0.80764 0.87850 0.41950 -0.26200
H 	H 	0.81620 0.88810 0.36580 0.10300
C 	C 	0.59734 0.86570 0.21490 0.27000
C 	C 	0.60592 0.84549 0.30280 0.06400
C 	C 	0.58269 0.80873 0.41870 0.20000
C 	C 	0.58656 0.77109 0.41830 -0.25100
H 	H 	0.58830 0.75810 0.36480 0.09100
Cu	Cu	0.66462 0.03221 0.23322 0.85900
Mn	Mn	0.67386 0.88312 0.25393 1.29900
Na	Na	0.53280 0.87520 0.93770 0.52900
N 	N 	0.68971 0.99193 0.16380 -0.26400
N 	N 	0.77189 0.83334 0.33697 -0.26800
N 	N 	0.57788 0.82771 0.33660 -0.26800
O 	O 	0.65746 0.93186 0.32894 -0.40700
O 	O 	0.69350 0.92850 0.17042 -0.35900
O 	O 	0.65125 0.99219 0.31660 -0.48000
O 	O 	0.70311 0.84167 0.17459 -0.50600
O 	O 	0.72165 0.87239 0.33232 -0.34900
O 	O 	0.75089 0.80420 0.18337 -0.53300
O 	O 	0.62282 0.88258 0.17840 -0.45200
O 	O 	0.63848 0.84753 0.33329 -0.34300
O 	O 	0.56503 0.86339 0.18540 -0.52000
C 	C 	0.46152 0.83725 0.78940 0.25800
C 	C 	0.46008 0.81588 0.70060 0.07500
C 	C 	0.49225 0.79072 0.58000 0.19600
C 	C 	0.49138 0.75290 0.58150 -0.23900
H 	H 	0.49110 0.74010 0.63540 0.09800
C 	C 	0.32963 0.76896 0.71260 0.27800
C 	C 	0.34702 0.75802 0.80230 0.07400
C 	C 	0.34915 0.71607 0.91980 0.21900
C 	C 	0.37850 0.69236 0.91950 -0.24000
H 	H 	0.38810 0.68380 0.86580 0.09800
C 	C 	0.36570 0.90266 0.71490 0.27000
C 	C 	0.34549 0.89408 0.80280 0.06500
C 	C 	0.30873 0.91731 0.91870 0.20800
C 	C 	0.27109 0.91344 0.91830 -0.23000
H 	H 	0.25810 0.91170 0.86480 0.08700
Cu	Cu	0.53221 0.83538 0.73322 0.86000
Mn	Mn	0.38312 0.82614 0.75393 1.29900
Na	Na	0.37520 0.96720 0.43770 0.52800
N 	N 	0.49193 0.81029 0.66380 -0.26400
N 	N 	0.33334 0.72811 0.83697 -0.26800
N 	N 	0.32771 0.92212 0.83660 -0.26800
O 	O 	0.43186 0.84254 0.82894 -0.40400
O 	O 	0.42850 0.80650 0.67042 -0.35700
O 	O 	0.49219 0.84875 0.81660 -0.47700
O 	O 	0.34167 0.79689 0.67459 -0.50300
O 	O 	0.37239 0.77835 0.83232 -0.34700
O 	O 	0.30420 0.74911 0.68337 -0.53000
O 	O 	0.38258 0.87718 0.67840 -0.45000
O 	O 	0.34753 0.86152 0.83329 -0.34000
O 	O 	0.36339 0.93497 0.68540 -0.51700
C 	C 	0.53848 0.16275 0.78940 0.25800
C 	C 	0.53992 0.18412 0.70060 0.07500
C 	C 	0.50775 0.20928 0.58000 0.19600
C 	C 	0.50862 0.24710 0.58150 -0.23900
H 	H 	0.50890 0.25990 0.63540 0.09800
C 	C 	0.67037 0.23104 0.71260 0.27800
C 	C 	0.65298 0.24198 0.80230 0.07400
C 	C 	0.65085 0.28393 0.91980 0.21900
C 	C 	0.62150 0.30764 0.91950 -0.24000
H 	H 	0.61190 0.31620 0.86580 0.09800
C 	C 	0.63430 0.09734 0.71490 0.27000
C 	C 	0.65451 0.10592 0.80280 0.06500
C 	C 	0.69127 0.08269 0.91870 0.20800
C 	C 	0.72891 0.08656 0.91830 -0.23000
H 	H 	0.74190 0.08830 0.86480 0.08700
Cu	Cu	0.46779 0.16462 0.73322 0.86000
Mn	Mn	0.61688 0.17386 0.75393 1.29900
Na	Na	0.62480 0.03280 0.43770 0.52800
N 	N 	0.50807 0.18971 0.66380 -0.26400
N 	N 	0.66666 0.27189 0.83697 -0.26800
N 	N 	0.67229 0.07788 0.83660 -0.26800
O 	O 	0.56814 0.15746 0.82894 -0.40400
O 	O 	0.57150 0.19350 0.67042 -0.35700
O 	O 	0.50781 0.15125 0.81660 -0.47700
O 	O 	0.65833 0.20311 0.67459 -0.50300
O 	O 	0.62761 0.22165 0.83232 -0.34700
O 	O 	0.69580 0.25089 0.68337 -0.53000
O 	O 	0.61742 0.12282 0.67840 -0.45000
O 	O 	0.65247 0.13848 0.83329 -0.34000
O 	O 	0.63661 0.06503 0.68540 -0.51700
C 	C 	0.16275 0.53848 0.21060 0.25800
C 	C 	0.18412 0.53992 0.29940 0.07400
C 	C 	0.20928 0.50775 0.42000 0.19600
C 	C 	0.24710 0.50862 0.41850 -0.23900
H 	H 	0.25990 0.50890 0.36460 0.09600
C 	C 	0.23104 0.67037 0.28740 0.27800
C 	C 	0.24198 0.65298 0.19770 0.07300
C 	C 	0.28393 0.65085 0.08020 0.21000
C 	C 	0.30764 0.62150 0.08050 -0.25200
H 	H 	0.31620 0.61190 0.13420 0.09900
C 	C 	0.09734 0.63430 0.28510 0.26900
C 	C 	0.10592 0.65451 0.19720 0.06400
C 	C 	0.08269 0.69127 0.08130 0.19900
C 	C 	0.08656 0.72891 0.08170 -0.24200
H 	H 	0.08830 0.74190 0.13520 0.08800
Cu	Cu	0.16462 0.46779 0.26678 0.85900
Mn	Mn	0.17386 0.61688 0.24607 1.29900
Na	Na	0.03280 0.62480 0.56230 0.52800
N 	N 	0.18971 0.50807 0.33620 -0.26400
N 	N 	0.27189 0.66666 0.16303 -0.26800
N 	N 	0.07788 0.67229 0.16340 -0.26800
O 	O 	0.15746 0.56814 0.17106 -0.41000
O 	O 	0.19350 0.57150 0.32958 -0.35700
O 	O 	0.15125 0.50781 0.18340 -0.48200
O 	O 	0.20311 0.65833 0.32541 -0.50400
O 	O 	0.22165 0.62761 0.16768 -0.35100
O 	O 	0.25089 0.69580 0.31663 -0.53100
O 	O 	0.12282 0.61742 0.32160 -0.45000
O 	O 	0.13848 0.65247 0.16671 -0.34400
O 	O 	0.06503 0.63661 0.31460 -0.51800
C 	C 	0.83725 0.46152 0.21060 0.25800
C 	C 	0.81588 0.46008 0.29940 0.07400
C 	C 	0.79072 0.49225 0.42000 0.19600
C 	C 	0.75290 0.49138 0.41850 -0.23900
H 	H 	0.74010 0.49110 0.36460 0.09600
C 	C 	0.76896 0.32963 0.28740 0.27800
C 	C 	0.75802 0.34702 0.19770 0.07300
C 	C 	0.71607 0.34915 0.08020 0.21000
C 	C 	0.69236 0.37850 0.08050 -0.25200
H 	H 	0.68380 0.38810 0.13420 0.09900
C 	C 	0.90266 0.36570 0.28510 0.26900
C 	C 	0.89408 0.34549 0.19720 0.06400
C 	C 	0.91731 0.30873 0.08130 0.19900
C 	C 	0.91344 0.27109 0.08170 -0.24200
H 	H 	0.91170 0.25810 0.13520 0.08800
Cu	Cu	0.83538 0.53221 0.26678 0.85900
Mn	Mn	0.82614 0.38312 0.24607 1.29900
Na	Na	0.96720 0.37520 0.56230 0.52800
N 	N 	0.81029 0.49193 0.33620 -0.26400
N 	N 	0.72811 0.33334 0.16303 -0.26800
N 	N 	0.92212 0.32771 0.16340 -0.26800
O 	O 	0.84254 0.43186 0.17106 -0.41000
O 	O 	0.80650 0.42850 0.32958 -0.35700
O 	O 	0.84875 0.49219 0.18340 -0.48200
O 	O 	0.79689 0.34167 0.32541 -0.50400
O 	O 	0.77835 0.37239 0.16768 -0.35100
O 	O 	0.74911 0.30420 0.31663 -0.53100
O 	O 	0.87718 0.38258 0.32160 -0.45000
O 	O 	0.86152 0.34753 0.16671 -0.34400
O 	O 	0.93497 0.36339 0.31460 -0.51800
C 	C 	0.03848 0.33725 0.71060 0.25800
C 	C 	0.03992 0.31588 0.79940 0.07500
C 	C 	0.00775 0.29072 0.92000 0.20500
C 	C 	0.00862 0.25290 0.91850 -0.22000
H 	H 	0.00890 0.24010 0.86460 0.09300
C 	C 	0.17037 0.26896 0.78740 0.27800
C 	C 	0.15298 0.25802 0.69770 0.07400
C 	C 	0.15085 0.21607 0.58020 0.21200
C 	C 	0.12150 0.19236 0.58050 -0.26200
H 	H 	0.11190 0.18380 0.63420 0.10500
C 	C 	0.13430 0.40266 0.78510 0.27000
C 	C 	0.15451 0.39408 0.69720 0.06500
C 	C 	0.19127 0.41731 0.58130 0.20100
C 	C 	0.22891 0.41344 0.58170 -0.25100
H 	H 	0.24190 0.41170 0.63520 0.09300
Cu	Cu	0.96779 0.33538 0.76678 0.86000
Mn	Mn	0.11688 0.32614 0.74607 1.29900
Na	Na	0.12480 0.46720 0.06230 0.52600
N 	N 	0.00807 0.31029 0.83620 -0.26400
N 	N 	0.16666 0.22811 0.66303 -0.26800
N 	N 	0.17229 0.42212 0.66340 -0.26800
O 	O 	0.06814 0.34254 0.67106 -0.40700
O 	O 	0.07150 0.30650 0.82958 -0.35500
O 	O 	0.00781 0.34875 0.68340 -0.47900
O 	O 	0.15833 0.29689 0.82541 -0.50100
O 	O 	0.12761 0.27835 0.66768 -0.34900
O 	O 	0.19580 0.24911 0.81663 -0.52800
O 	O 	0.11742 0.37718 0.82160 -0.44700
O 	O 	0.15247 0.36152 0.66671 -0.34200
O 	O 	0.13661 0.43497 0.81460 -0.51500
C 	C 	0.96152 0.66275 0.71060 0.25800
C 	C 	0.96008 0.68412 0.79940 0.07500
C 	C 	0.99225 0.70928 0.92000 0.20500
C 	C 	0.99138 0.74710 0.91850 -0.22000
H 	H 	0.99110 0.75990 0.86460 0.09300
C 	C 	0.82963 0.73104 0.78740 0.27800
C 	C 	0.84702 0.74198 0.69770 0.07400
C 	C 	0.84915 0.78393 0.58020 0.21200
C 	C 	0.87850 0.80764 0.58050 -0.26200
H 	H 	0.88810 0.81620 0.63420 0.10500
C 	C 	0.86570 0.59734 0.78510 0.27000
C 	C 	0.84549 0.60592 0.69720 0.06500
C 	C 	0.80873 0.58269 0.58130 0.20100
C 	C 	0.77109 0.58656 0.58170 -0.25100
H 	H 	0.75810 0.58830 0.63520 0.09300
Cu	Cu	0.03221 0.66462 0.76678 0.86000
Mn	Mn	0.88312 0.67386 0.74607 1.29900
Na	Na	0.87520 0.53280 0.06230 0.52600
N 	N 	0.99193 0.68971 0.83620 -0.26400
N 	N 	0.83334 0.77189 0.66303 -0.26800
N 	N 	0.82771 0.57788 0.66340 -0.26800
O 	O 	0.93186 0.65746 0.67106 -0.40700
O 	O 	0.92850 0.69350 0.82958 -0.35500
O 	O 	0.99219 0.65125 0.68340 -0.47900
O 	O 	0.84167 0.70311 0.82541 -0.50100
O 	O 	0.87239 0.72165 0.66768 -0.34900
O 	O 	0.80420 0.75089 0.81663 -0.52800
O 	O 	0.88258 0.62282 0.82160 -0.44700
O 	O 	0.84753 0.63848 0.66671 -0.34200
O 	O 	0.86339 0.56503 0.81460 -0.51500
C 	C 	0.66275 0.96152 0.71060 0.25800
C 	C 	0.68412 0.96008 0.79940 0.07500
C 	C 	0.70928 0.99225 0.92000 0.20500
C 	C 	0.74710 0.99138 0.91850 -0.22000
H 	H 	0.75990 0.99110 0.86460 0.09300
C 	C 	0.73104 0.82963 0.78740 0.27800
C 	C 	0.74198 0.84702 0.69770 0.07400
C 	C 	0.78393 0.84915 0.58020 0.21200
C 	C 	0.80764 0.87850 0.58050 -0.26200
H 	H 	0.81620 0.88810 0.63420 0.10500
C 	C 	0.59734 0.86570 0.78510 0.27000
C 	C 	0.60592 0.84549 0.69720 0.06500
C 	C 	0.58269 0.80873 0.58130 0.20100
C 	C 	0.58656 0.77109 0.58170 -0.25100
H 	H 	0.58830 0.75810 0.63520 0.09300
Cu	Cu	0.66462 0.03221 0.76678 0.86000
Mn	Mn	0.67386 0.88312 0.74607 1.29900
Na	Na	0.53280 0.87520 0.06230 0.52600
N 	N 	0.68971 0.99193 0.83620 -0.26400
N 	N 	0.77189 0.83334 0.66303 -0.26800
N 	N 	0.57788 0.82771 0.66340 -0.26800
O 	O 	0.65746 0.93186 0.67106 -0.40700
O 	O 	0.69350 0.92850 0.82958 -0.35500
O 	O 	0.65125 0.99219 0.68340 -0.47900
O 	O 	0.70311 0.84167 0.82541 -0.50100
O 	O 	0.72165 0.87239 0.66768 -0.34900
O 	O 	0.75089 0.80420 0.81663 -0.52800
O 	O 	0.62282 0.88258 0.82160 -0.44700
O 	O 	0.63848 0.84753 0.66671 -0.34200
O 	O 	0.56503 0.86339 0.81460 -0.51500
C 	C 	0.33725 0.03848 0.71060 0.25800
C 	C 	0.31588 0.03992 0.79940 0.07500
C 	C 	0.29072 0.00775 0.92000 0.20500
C 	C 	0.25290 0.00862 0.91850 -0.22000
H 	H 	0.24010 0.00890 0.86460 0.09300
C 	C 	0.26896 0.17037 0.78740 0.27800
C 	C 	0.25802 0.15298 0.69770 0.07400
C 	C 	0.21607 0.15085 0.58020 0.21200
C 	C 	0.19236 0.12150 0.58050 -0.26200
H 	H 	0.18380 0.11190 0.63420 0.10500
C 	C 	0.40266 0.13430 0.78510 0.27000
C 	C 	0.39408 0.15451 0.69720 0.06500
C 	C 	0.41731 0.19127 0.58130 0.20100
C 	C 	0.41344 0.22891 0.58170 -0.25100
H 	H 	0.41170 0.24190 0.63520 0.09300
Cu	Cu	0.33538 0.96779 0.76678 0.86000
Mn	Mn	0.32614 0.11688 0.74607 1.29900
Na	Na	0.46720 0.12480 0.06230 0.52600
N 	N 	0.31029 0.00807 0.83620 -0.26400
N 	N 	0.22811 0.16666 0.66303 -0.26800
N 	N 	0.42212 0.17229 0.66340 -0.26800
O 	O 	0.34254 0.06814 0.67106 -0.40700
O 	O 	0.30650 0.07150 0.82958 -0.35500
O 	O 	0.34875 0.00781 0.68340 -0.47900
O 	O 	0.29689 0.15833 0.82541 -0.50100
O 	O 	0.27835 0.12761 0.66768 -0.34900
O 	O 	0.24911 0.19580 0.81663 -0.52800
O 	O 	0.37718 0.11742 0.82160 -0.44700
O 	O 	0.36152 0.15247 0.66671 -0.34200
O 	O 	0.43497 0.13661 0.81460 -0.51500
C 	C 	0.53848 0.16275 0.21060 0.25800
C 	C 	0.53992 0.18412 0.29940 0.07400
C 	C 	0.50775 0.20928 0.42000 0.19600
C 	C 	0.50862 0.24710 0.41850 -0.23900
H 	H 	0.50890 0.25990 0.36460 0.09600
C 	C 	0.67037 0.23104 0.28740 0.27800
C 	C 	0.65298 0.24198 0.19770 0.07300
C 	C 	0.65085 0.28393 0.08020 0.21000
C 	C 	0.62150 0.30764 0.08050 -0.25200
H 	H 	0.61190 0.31620 0.13420 0.09900
C 	C 	0.63430 0.09734 0.28510 0.26900
C 	C 	0.65451 0.10592 0.19720 0.06400
C 	C 	0.69127 0.08269 0.08130 0.19900
C 	C 	0.72891 0.08656 0.08170 -0.24200
H 	H 	0.74190 0.08830 0.13520 0.08800
Cu	Cu	0.46779 0.16462 0.26678 0.85900
Mn	Mn	0.61688 0.17386 0.24607 1.29900
Na	Na	0.62480 0.03280 0.56230 0.52800
N 	N 	0.50807 0.18971 0.33620 -0.26400
N 	N 	0.66666 0.27189 0.16303 -0.26800
N 	N 	0.67229 0.07788 0.16340 -0.26800
O 	O 	0.56814 0.15746 0.17106 -0.41000
O 	O 	0.57150 0.19350 0.32958 -0.35700
O 	O 	0.50781 0.15125 0.18340 -0.48200
O 	O 	0.65833 0.20311 0.32541 -0.50400
O 	O 	0.62761 0.22165 0.16768 -0.35100
O 	O 	0.69580 0.25089 0.31663 -0.53100
O 	O 	0.61742 0.12282 0.32160 -0.45000
O 	O 	0.65247 0.13848 0.16671 -0.34400
O 	O 	0.63661 0.06503 0.31460 -0.51800
C 	C 	0.46152 0.83725 0.21060 0.25800
C 	C 	0.46008 0.81588 0.29940 0.07400
C 	C 	0.49225 0.79072 0.42000 0.19600
C 	C 	0.49138 0.75290 0.41850 -0.23900
H 	H 	0.49110 0.74010 0.36460 0.09600
C 	C 	0.32963 0.76896 0.28740 0.27800
C 	C 	0.34702 0.75802 0.19770 0.07300
C 	C 	0.34915 0.71607 0.08020 0.21000
C 	C 	0.37850 0.69236 0.08050 -0.25200
H 	H 	0.38810 0.68380 0.13420 0.09900
C 	C 	0.36570 0.90266 0.28510 0.26900
C 	C 	0.34549 0.89408 0.19720 0.06400
C 	C 	0.30873 0.91731 0.08130 0.19900
C 	C 	0.27109 0.91344 0.08170 -0.24200
H 	H 	0.25810 0.91170 0.13520 0.08800
Cu	Cu	0.53221 0.83538 0.26678 0.85900
Mn	Mn	0.38312 0.82614 0.24607 1.29900
Na	Na	0.37520 0.96720 0.56230 0.52800
N 	N 	0.49193 0.81029 0.33620 -0.26400
N 	N 	0.33334 0.72811 0.16303 -0.26800
N 	N 	0.32771 0.92212 0.16340 -0.26800
O 	O 	0.43186 0.84254 0.17106 -0.41000
O 	O 	0.42850 0.80650 0.32958 -0.35700
O 	O 	0.49219 0.84875 0.18340 -0.48200
O 	O 	0.34167 0.79689 0.32541 -0.50400
O 	O 	0.37239 0.77835 0.16768 -0.35100
O 	O 	0.30420 0.74911 0.31663 -0.53100
O 	O 	0.38258 0.87718 0.32160 -0.45000
O 	O 	0.34753 0.86152 0.16671 -0.34400
O 	O 	0.36339 0.93497 0.31460 -0.51800
C 	C 	0.83725 0.46152 0.78940 0.25800
C 	C 	0.81588 0.46008 0.70060 0.07500
C 	C 	0.79072 0.49225 0.58000 0.19600
C 	C 	0.75290 0.49138 0.58150 -0.23900
H 	H 	0.74010 0.49110 0.63540 0.09800
C 	C 	0.76896 0.32963 0.71260 0.27800
C 	C 	0.75802 0.34702 0.80230 0.07400
C 	C 	0.71607 0.34915 0.91980 0.21900
C 	C 	0.69236 0.37850 0.91950 -0.24000
H 	H 	0.68380 0.38810 0.86580 0.09800
C 	C 	0.90266 0.36570 0.71490 0.27000
C 	C 	0.89408 0.34549 0.80280 0.06500
C 	C 	0.91731 0.30873 0.91870 0.20800
C 	C 	0.91344 0.27109 0.91830 -0.23000
H 	H 	0.91170 0.25810 0.86480 0.08700
Cu	Cu	0.83538 0.53221 0.73322 0.86000
Mn	Mn	0.82614 0.38312 0.75393 1.29900
Na	Na	0.96720 0.37520 0.43770 0.52800
N 	N 	0.81029 0.49193 0.66380 -0.26400
N 	N 	0.72811 0.33334 0.83697 -0.26800
N 	N 	0.92212 0.32771 0.83660 -0.26800
O 	O 	0.84254 0.43186 0.82894 -0.40400
O 	O 	0.80650 0.42850 0.67042 -0.35700
O 	O 	0.84875 0.49219 0.81660 -0.47700
O 	O 	0.79689 0.34167 0.67459 -0.50300
O 	O 	0.77835 0.37239 0.83232 -0.34700
O 	O 	0.74911 0.30420 0.68337 -0.53000
O 	O 	0.87718 0.38258 0.67840 -0.45000
O 	O 	0.86152 0.34753 0.83329 -0.34000
O 	O 	0.93497 0.36339 0.68540 -0.51700
C 	C 	0.16275 0.53848 0.78940 0.25800
C 	C 	0.18412 0.53992 0.70060 0.07500
C 	C 	0.20928 0.50775 0.58000 0.19600
C 	C 	0.24710 0.50862 0.58150 -0.23900
H 	H 	0.25990 0.50890 0.63540 0.09800
C 	C 	0.23104 0.67037 0.71260 0.27800
C 	C 	0.24198 0.65298 0.80230 0.07400
C 	C 	0.28393 0.65085 0.91980 0.21900
C 	C 	0.30764 0.62150 0.91950 -0.24000
H 	H 	0.31620 0.61190 0.86580 0.09800
C 	C 	0.09734 0.63430 0.71490 0.27000
C 	C 	0.10592 0.65451 0.80280 0.06500
C 	C 	0.08269 0.69127 0.91870 0.20800
C 	C 	0.08656 0.72891 0.91830 -0.23000
H 	H 	0.08830 0.74190 0.86480 0.08700
Cu	Cu	0.16462 0.46779 0.73322 0.86000
Mn	Mn	0.17386 0.61688 0.75393 1.29900
Na	Na	0.03280 0.62480 0.43770 0.52800
N 	N 	0.18971 0.50807 0.66380 -0.26400
N 	N 	0.27189 0.66666 0.83697 -0.26800
N 	N 	0.07788 0.67229 0.83660 -0.26800
O 	O 	0.15746 0.56814 0.82894 -0.40400
O 	O 	0.19350 0.57150 0.67042 -0.35700
O 	O 	0.15125 0.50781 0.81660 -0.47700
O 	O 	0.20311 0.65833 0.67459 -0.50300
O 	O 	0.22165 0.62761 0.83232 -0.34700
O 	O 	0.25089 0.69580 0.68337 -0.53000
O 	O 	0.12282 0.61742 0.67840 -0.45000
O 	O 	0.13848 0.65247 0.83329 -0.34000
O 	O 	0.06503 0.63661 0.68540 -0.51700
C 	C 	0.96152 0.66275 0.28940 0.25800
C 	C 	0.96008 0.68412 0.20060 0.07400
C 	C 	0.99225 0.70928 0.08000 0.19500
C 	C 	0.99138 0.74710 0.08150 -0.23200
H 	H 	0.99110 0.75990 0.13540 0.09400
C 	C 	0.82963 0.73104 0.21260 0.27800
C 	C 	0.84702 0.74198 0.30230 0.07200
C 	C 	0.84915 0.78393 0.41980 0.21200
C 	C 	0.87850 0.80764 0.41950 -0.26200
H 	H 	0.88810 0.81620 0.36580 0.10300
C 	C 	0.86570 0.59734 0.21490 0.27000
C 	C 	0.84549 0.60592 0.30280 0.06400
C 	C 	0.80873 0.58269 0.41870 0.20000
C 	C 	0.77109 0.58656 0.41830 -0.25100
H 	H 	0.75810 0.58830 0.36480 0.09100
Cu	Cu	0.03221 0.66462 0.23322 0.85900
Mn	Mn	0.88312 0.67386 0.25393 1.29900
Na	Na	0.87520 0.53280 0.93770 0.52900
N 	N 	0.99193 0.68971 0.16380 -0.26400
N 	N 	0.83334 0.77189 0.33697 -0.26800
N 	N 	0.82771 0.57788 0.33660 -0.26800
O 	O 	0.93186 0.65746 0.32894 -0.40700
O 	O 	0.92850 0.69350 0.17042 -0.35900
O 	O 	0.99219 0.65125 0.31660 -0.48000
O 	O 	0.84167 0.70311 0.17459 -0.50600
O 	O 	0.87239 0.72165 0.33232 -0.34900
O 	O 	0.80420 0.75089 0.18337 -0.53300
O 	O 	0.88258 0.62282 0.17840 -0.45200
O 	O 	0.84753 0.63848 0.33329 -0.34300
O 	O 	0.86339 0.56503 0.18540 -0.52000
C 	C 	0.03848 0.33725 0.28940 0.25800
C 	C 	0.03992 0.31588 0.20060 0.07400
C 	C 	0.00775 0.29072 0.08000 0.19500
C 	C 	0.00862 0.25290 0.08150 -0.23200
H 	H 	0.00890 0.24010 0.13540 0.09400
C 	C 	0.17037 0.26896 0.21260 0.27800
C 	C 	0.15298 0.25802 0.30230 0.07200
C 	C 	0.15085 0.21607 0.41980 0.21200
C 	C 	0.12150 0.19236 0.41950 -0.26200
H 	H 	0.11190 0.18380 0.36580 0.10300
C 	C 	0.13430 0.40266 0.21490 0.27000
C 	C 	0.15451 0.39408 0.30280 0.06400
C 	C 	0.19127 0.41731 0.41870 0.20000
C 	C 	0.22891 0.41344 0.41830 -0.25100
H 	H 	0.24190 0.41170 0.36480 0.09100
Cu	Cu	0.96779 0.33538 0.23322 0.85900
Mn	Mn	0.11688 0.32614 0.25393 1.29900
Na	Na	0.12480 0.46720 0.93770 0.52900
N 	N 	0.00807 0.31029 0.16380 -0.26400
N 	N 	0.16666 0.22811 0.33697 -0.26800
N 	N 	0.17229 0.42212 0.33660 -0.26800
O 	O 	0.06814 0.34254 0.32894 -0.40700
O 	O 	0.07150 0.30650 0.17042 -0.35900
O 	O 	0.00781 0.34875 0.31660 -0.48000
O 	O 	0.15833 0.29689 0.17459 -0.50600
O 	O 	0.12761 0.27835 0.33232 -0.34900
O 	O 	0.19580 0.24911 0.18337 -0.53300
O 	O 	0.11742 0.37718 0.17840 -0.45200
O 	O 	0.15247 0.36152 0.33329 -0.34300
O 	O 	0.13661 0.43497 0.18540 -0.52000
C 	C 	0.23429 0.00910 -0.00000 0.11200
H 	H 	0.20870 0.00980 -0.00000 -0.03300
C 	C 	0.30995 0.00736 -0.00000 -0.27700
H 	H 	0.33550 0.00690 -0.00000 0.09500
Na	Na	0.29973 0.16348 -0.00000 0.54200
C 	C 	0.76571 0.99090 -0.00000 0.11200
H 	H 	0.79130 0.99020 -0.00000 -0.03300
C 	C 	0.69005 0.99264 -0.00000 -0.27700
H 	H 	0.66450 0.99310 -0.00000 0.09500
Na	Na	0.70027 0.83652 -0.00000 0.54200
C 	C 	0.49090 0.73429 0.50000 0.13500
H 	H 	0.49020 0.70870 0.50000 -0.03700
C 	C 	0.49264 0.80995 0.50000 -0.26300
H 	H 	0.49310 0.83550 0.50000 0.09300
Na	Na	0.33652 0.79973 0.50000 0.54400
C 	C 	0.50910 0.26571 0.50000 0.13500
H 	H 	0.50980 0.29130 0.50000 -0.03700
C 	C 	0.50736 0.19005 0.50000 -0.26300
H 	H 	0.50690 0.16450 0.50000 0.09300
Na	Na	0.66348 0.20027 0.50000 0.54400
C 	C 	0.26571 0.50910 0.50000 0.13500
H 	H 	0.29130 0.50980 0.50000 -0.03700
C 	C 	0.19005 0.50736 0.50000 -0.26300
H 	H 	0.16450 0.50690 0.50000 0.09300
Na	Na	0.20027 0.66348 0.50000 0.54400
C 	C 	0.73429 0.49090 0.50000 0.13500
H 	H 	0.70870 0.49020 0.50000 -0.03700
C 	C 	0.80995 0.49264 0.50000 -0.26300
H 	H 	0.83550 0.49310 0.50000 0.09300
Na	Na	0.79973 0.33652 0.50000 0.54400
C 	C 	0.00910 0.23429 -0.00000 0.11200
H 	H 	0.00980 0.20870 -0.00000 -0.03300
C 	C 	0.00736 0.30995 -0.00000 -0.27700
H 	H 	0.00690 0.33550 -0.00000 0.09500
Na	Na	0.16348 0.29973 -0.00000 0.54200
C 	C 	0.99090 0.76571 -0.00000 0.11200
H 	H 	0.99020 0.79130 -0.00000 -0.03300
C 	C 	0.99264 0.69005 -0.00000 -0.27700
H 	H 	0.99310 0.66450 -0.00000 0.09500
Na	Na	0.83652 0.70027 -0.00000 0.54200
C 	C 	0.18140 0.10650 0.50000 0.16800
H 	H 	0.16630 0.08580 0.50000 -0.04700
C 	C 	0.22854 0.16579 0.50000 -0.26900
H 	H 	0.24490 0.18540 0.50000 0.11200
C 	C 	0.41220 0.24690 0.50000 0.15200
H 	H 	0.41050 0.27240 0.50000 -0.04200
C 	C 	0.41912 0.17256 0.50000 -0.25800
H 	H 	0.42160 0.14710 0.50000 0.10600
C 	C 	0.81860 0.89350 0.50000 0.16800
H 	H 	0.83370 0.91420 0.50000 -0.04700
C 	C 	0.77146 0.83421 0.50000 -0.26900
H 	H 	0.75510 0.81460 0.50000 0.11200
C 	C 	0.58780 0.75310 0.50000 0.15200
H 	H 	0.58950 0.72760 0.50000 -0.04200
C 	C 	0.58088 0.82744 0.50000 -0.25800
H 	H 	0.57840 0.85290 0.50000 0.10600
C 	C 	0.39350 0.68140 -0.00000 0.14200
H 	H 	0.41420 0.66630 -0.00000 -0.04200
C 	C 	0.33421 0.72854 -0.00000 -0.28200
H 	H 	0.31460 0.74490 -0.00000 0.11300
C 	C 	0.25310 0.91220 -0.00000 0.12700
H 	H 	0.22760 0.91050 -0.00000 -0.03700
C 	C 	0.32744 0.91912 -0.00000 -0.27200
H 	H 	0.35290 0.92160 -0.00000 0.10700
C 	C 	0.60650 0.31860 -0.00000 0.14200
H 	H 	0.58580 0.33370 -0.00000 -0.04200
C 	C 	0.66579 0.27146 -0.00000 -0.28200
H 	H 	0.68540 0.25510 -0.00000 0.11300
C 	C 	0.74690 0.08780 -0.00000 0.12700
H 	H 	0.77240 0.08950 -0.00000 -0.03700
C 	C 	0.67256 0.08088 -0.00000 -0.27200
H 	H 	0.64710 0.07840 -0.00000 0.10700
C 	C 	0.31860 0.60650 -0.00000 0.14200
H 	H 	0.33370 0.58580 -0.00000 -0.04200
C 	C 	0.27146 0.66579 -0.00000 -0.28200
H 	H 	0.25510 0.68540 -0.00000 0.11300
C 	C 	0.08780 0.74690 -0.00000 0.12700
H 	H 	0.08950 0.77240 -0.00000 -0.03700
C 	C 	0.08088 0.67256 -0.00000 -0.27200
H 	H 	0.07840 0.64710 -0.00000 0.10700
C 	C 	0.68140 0.39350 -0.00000 0.14200
H 	H 	0.66630 0.41420 -0.00000 -0.04200
C 	C 	0.72854 0.33421 -0.00000 -0.28200
H 	H 	0.74490 0.31460 -0.00000 0.11300
C 	C 	0.91220 0.25310 -0.00000 0.12700
H 	H 	0.91050 0.22760 -0.00000 -0.03700
C 	C 	0.91912 0.32744 -0.00000 -0.27200
H 	H 	0.92160 0.35290 -0.00000 0.10700
C 	C 	0.10650 0.18140 0.50000 0.16800
H 	H 	0.08580 0.16630 0.50000 -0.04700
C 	C 	0.16579 0.22854 0.50000 -0.26900
H 	H 	0.18540 0.24490 0.50000 0.11200
C 	C 	0.24690 0.41220 0.50000 0.15200
H 	H 	0.27240 0.41050 0.50000 -0.04200
C 	C 	0.17256 0.41912 0.50000 -0.25800
H 	H 	0.14710 0.42160 0.50000 0.10600
C 	C 	0.89350 0.81860 0.50000 0.16800
H 	H 	0.91420 0.83370 0.50000 -0.04700
C 	C 	0.83421 0.77146 0.50000 -0.26900
H 	H 	0.81460 0.75510 0.50000 0.11200
C 	C 	0.75310 0.58780 0.50000 0.15200
H 	H 	0.72760 0.58950 0.50000 -0.04200
C 	C 	0.82744 0.58088 0.50000 -0.25800
H 	H 	0.85290 0.57840 0.50000 0.10600
Cu	Cu	0.20803 0.20803 0.26671 0.86100
Na	Na	0.24174 0.24174 0.07140 0.51800
Cu	Cu	0.79197 0.79197 0.26671 0.86100
Na	Na	0.75826 0.75826 0.07140 0.51800
Cu	Cu	0.29197 0.70803 0.76671 0.86300
Na	Na	0.25826 0.74174 0.57140 0.51900
Cu	Cu	0.70803 0.29197 0.76671 0.86300
Na	Na	0.74174 0.25826 0.57140 0.51900
Cu	Cu	0.29197 0.70803 0.23329 0.86100
Na	Na	0.25826 0.74174 0.42860 0.51900
Cu	Cu	0.70803 0.29197 0.23329 0.86100
Na	Na	0.74174 0.25826 0.42860 0.51900
Cu	Cu	0.20803 0.20803 0.73329 0.86200
Na	Na	0.24174 0.24174 0.92860 0.52000
Cu	Cu	0.79197 0.79197 0.73329 0.86200
Na	Na	0.75826 0.75826 0.92860 0.52000
