data_crystal

_cell_length_a 8.88500
_cell_length_b 14.23100
_cell_length_c 15.04900
_cell_angle_alpha 90.00000
_cell_angle_beta  94.95700
_cell_angle_gamma 90.00000

_symmetry_space_group_name_	'P 1'
_symmetry_space_group_name_H-M	'P 1'

loop_
_symmetry_equiv_pos_as_xyz
  x,y,z

loop_
_atom_site_label
_atom_site_type_symbol
_atom_site_fract_x
_atom_site_fract_y
_atom_site_fract_z
_atom_site_charge
Al	Al	0.32124 0.94097 0.24364 2.39000
Al	Al	0.87886 0.94029 0.09008 2.39000
Al	Al	0.14067 0.57051 0.11507 2.39600
Zn	Zn	0.92411 0.71420 0.83571 1.29000
Al	Al	0.92411 0.78580 0.33571 2.39600
O 	O 	0.99630 0.03790 0.12240 -0.85700
O 	O 	0.20030 0.96070 0.50930 -0.74000
P 	P 	0.09925 0.78182 0.16227 0.85400
O 	O 	0.20130 0.05310 0.02150 -0.79400
O 	O 	0.26540 0.04670 0.18510 -0.77900
P 	P 	0.14955 0.07982 0.11219 0.81500
O 	O 	0.73420 0.02460 0.30090 -0.82300
P 	P 	0.14032 0.94420 0.41283 0.78200
O 	O 	0.14600 0.69270 0.11780 -0.76500
O 	O 	0.04570 0.85500 0.40860 -0.83100
P 	P 	0.68561 0.93384 0.25361 0.86500
O 	O 	0.72650 0.93630 0.15840 -0.81900
O 	O 	0.04420 0.02640 0.37760 -0.83200
O 	O 	0.27450 0.93440 0.35870 -0.74800
O 	O 	0.98700 0.83450 0.09980 -0.82100
O 	O 	0.76470 0.85270 0.30310 -0.84700
O 	O 	0.51910 0.92040 0.25170 -0.76800
O 	O 	0.02820 0.75590 0.24610 -0.85800
O 	O 	0.13860 0.18590 0.11550 -0.80200
O 	O 	0.23890 0.83950 0.18290 -0.78300
Al	Al	0.67876 0.44097 0.25636 2.38900
Al	Al	0.12114 0.44029 0.40992 2.39100
Al	Al	0.85933 0.07051 0.38493 2.39500
Zn	Zn	0.07589 0.21420 0.66429 1.29000
Al	Al	0.07589 0.28580 0.16429 2.39600
O 	O 	0.00370 0.53790 0.37760 -0.87200
O 	O 	0.79970 0.46070 0.99070 -0.74200
P 	P 	0.90075 0.28182 0.33773 0.85500
O 	O 	0.79870 0.55310 0.47850 -0.80000
O 	O 	0.73460 0.54670 0.31490 -0.78500
P 	P 	0.85045 0.57982 0.38781 0.82100
O 	O 	0.26580 0.52460 0.19910 -0.83500
P 	P 	0.85968 0.44420 0.08717 0.78400
O 	O 	0.85400 0.19270 0.38220 -0.76100
O 	O 	0.95430 0.35500 0.09140 -0.82900
P 	P 	0.31439 0.43384 0.24639 0.87500
O 	O 	0.27350 0.43630 0.34160 -0.81000
O 	O 	0.95580 0.52640 0.12240 -0.83300
O 	O 	0.72550 0.43440 0.14130 -0.74600
O 	O 	0.01300 0.33450 0.40020 -0.81300
O 	O 	0.23530 0.35270 0.19690 -0.84600
O 	O 	0.48090 0.42040 0.24830 -0.76500
O 	O 	0.97180 0.25590 0.25390 -0.85500
O 	O 	0.86140 0.68590 0.38450 -0.80300
O 	O 	0.76110 0.33950 0.31710 -0.77800
Al	Al	0.67876 0.05903 0.75636 2.38900
Al	Al	0.12114 0.05971 0.90992 2.39000
Al	Al	0.85933 0.42949 0.88493 2.39500
O 	O 	0.00370 0.96210 0.87760 -0.83300
O 	O 	0.79970 0.03930 0.49070 -0.73700
P 	P 	0.90075 0.21818 0.83773 0.79900
O 	O 	0.79870 0.94690 0.97850 -0.78700
O 	O 	0.73460 0.95330 0.81490 -0.76300
P 	P 	0.85045 0.92018 0.88781 0.75900
O 	O 	0.26580 0.97540 0.69910 -0.81100
P 	P 	0.85968 0.05580 0.58717 0.74300
O 	O 	0.85400 0.30730 0.88220 -0.76000
O 	O 	0.95430 0.14500 0.59140 -0.57100
P 	P 	0.31439 0.06616 0.74639 0.81700
O 	O 	0.27350 0.06370 0.84160 -0.79500
O 	O 	0.95580 0.97360 0.62240 -0.81700
O 	O 	0.72550 0.06560 0.64130 -0.72900
O 	O 	0.01300 0.16550 0.90020 -0.80300
O 	O 	0.23530 0.14730 0.69690 -0.57500
O 	O 	0.48090 0.07960 0.74830 -0.75800
O 	O 	0.97180 0.24410 0.75390 -0.58800
O 	O 	0.86140 0.81410 0.88450 -0.51800
O 	O 	0.76110 0.16050 0.81710 -0.76500
Al	Al	0.32124 0.55903 0.74364 2.38900
Al	Al	0.87886 0.55971 0.59008 2.39100
Al	Al	0.14067 0.92949 0.61507 2.39500
O 	O 	0.99630 0.46210 0.62240 -0.84600
O 	O 	0.20030 0.53930 0.00930 -0.74700
P 	P 	0.09925 0.71818 0.66227 0.80000
O 	O 	0.20130 0.44690 0.52150 -0.79400
O 	O 	0.26540 0.45330 0.68510 -0.76600
P 	P 	0.14955 0.42018 0.61219 0.76500
O 	O 	0.73420 0.47540 0.80090 -0.81700
P 	P 	0.14032 0.55580 0.91283 0.74400
O 	O 	0.14600 0.80730 0.61780 -0.75700
O 	O 	0.04570 0.64500 0.90860 -0.56800
P 	P 	0.68561 0.56616 0.75361 0.82100
O 	O 	0.72650 0.56370 0.65840 -0.79000
O 	O 	0.04420 0.47360 0.87760 -0.81100
O 	O 	0.27450 0.56560 0.85870 -0.72700
O 	O 	0.98700 0.66550 0.59980 -0.80000
O 	O 	0.76470 0.64730 0.80310 -0.57400
O 	O 	0.51910 0.57960 0.75170 -0.75600
O 	O 	0.02820 0.74410 0.74610 -0.58500
O 	O 	0.13860 0.31410 0.61550 -0.52000
O 	O 	0.23890 0.66050 0.68290 -0.76300
