data_crystal

_cell_length_a 6.64000
_cell_length_b 26.17920
_cell_length_c 7.67020
_cell_angle_alpha 90.00000
_cell_angle_beta  90.00000
_cell_angle_gamma 90.00000

_symmetry_space_group_name_	'P 1'
_symmetry_space_group_name_H-M	'P 1'

loop_
_symmetry_equiv_pos_as_xyz
  x,y,z

loop_
_atom_site_label
_atom_site_type_symbol
_atom_site_fract_x
_atom_site_fract_y
_atom_site_fract_z
_atom_site_charge
Ni	Ni	0.00194 0.71677 0.75360 1.13200
Ni	Ni	0.99806 0.28323 0.75360 1.13200
Ni	Ni	0.50194 0.78323 0.24640 1.13600
Ni	Ni	0.49806 0.21677 0.24640 1.13600
H 	H 	0.38080 0.61110 0.68880 0.13000
H 	H 	0.01080 0.85130 0.90870 0.01800
H 	H 	0.90700 0.86320 0.63090 0.18600
H 	H 	0.71330 0.85650 0.74420 0.18200
H 	H 	0.58380 0.68180 0.67780 -0.00000
H 	H 	0.03710 0.60560 0.86570 -0.01300
H 	H 	0.84390 0.53160 0.87810 0.11600
H 	H 	0.61920 0.38890 0.68880 0.12900
H 	H 	0.98920 0.14870 0.90870 0.01700
H 	H 	0.09300 0.13680 0.63090 0.18600
H 	H 	0.28670 0.14350 0.74420 0.18200
H 	H 	0.41620 0.31820 0.67780 -0.00000
H 	H 	0.96290 0.39440 0.86570 -0.01300
H 	H 	0.15610 0.46840 0.87810 0.11600
H 	H 	0.88080 0.88890 0.31120 0.13800
H 	H 	0.51080 0.64870 0.09130 0.03000
H 	H 	0.40700 0.63680 0.36910 0.18000
H 	H 	0.21330 0.64350 0.25580 0.17700
H 	H 	0.08380 0.81820 0.32220 -0.00600
H 	H 	0.53710 0.89440 0.13430 -0.00500
H 	H 	0.34390 0.96840 0.12190 0.11400
H 	H 	0.11920 0.11110 0.31120 0.13800
H 	H 	0.48920 0.35130 0.09130 0.03000
H 	H 	0.59300 0.36320 0.36910 0.18000
H 	H 	0.78670 0.35650 0.25580 0.17700
H 	H 	0.91620 0.18180 0.32220 -0.00600
H 	H 	0.46290 0.10560 0.13430 -0.00500
H 	H 	0.65610 0.03160 0.12190 0.11400
C 	C 	0.51470 0.60890 0.72340 -0.23100
C 	C 	0.95700 0.82110 0.84900 0.11000
C 	C 	0.82950 0.83860 0.69760 -0.46000
C 	C 	0.83010 0.79050 0.97820 0.28100
C 	C 	0.75400 0.79780 0.57260 0.48100
C 	C 	0.63770 0.65110 0.71740 0.13700
C 	C 	0.59100 0.56420 0.78000 0.19800
C 	C 	0.90430 0.60650 0.82720 0.13700
C 	C 	0.78920 0.56190 0.83600 -0.21400
C 	C 	0.48530 0.39110 0.72340 -0.23100
C 	C 	0.04300 0.17890 0.84900 0.11000
C 	C 	0.17050 0.16140 0.69760 -0.46000
C 	C 	0.16990 0.20950 0.97820 0.28100
C 	C 	0.24600 0.20220 0.57260 0.48100
C 	C 	0.36230 0.34890 0.71740 0.13700
C 	C 	0.40900 0.43580 0.78000 0.19800
C 	C 	0.09570 0.39350 0.82720 0.13700
C 	C 	0.21080 0.43810 0.83600 -0.21400
C 	C 	0.01470 0.89110 0.27660 -0.24700
C 	C 	0.45700 0.67890 0.15100 0.08300
C 	C 	0.32950 0.66140 0.30240 -0.44600
C 	C 	0.33010 0.70950 0.02180 0.28600
C 	C 	0.25400 0.70220 0.42740 0.47500
C 	C 	0.13770 0.84890 0.28260 0.14400
C 	C 	0.09100 0.93580 0.22000 0.20000
C 	C 	0.40430 0.89350 0.17280 0.12400
C 	C 	0.28920 0.93810 0.16400 -0.21000
C 	C 	0.98530 0.10890 0.27660 -0.24700
C 	C 	0.54300 0.32110 0.15100 0.08300
C 	C 	0.67050 0.33860 0.30240 -0.44600
C 	C 	0.66990 0.29050 0.02180 0.28600
C 	C 	0.74600 0.29780 0.42740 0.47500
C 	C 	0.86230 0.15110 0.28260 0.14400
C 	C 	0.90900 0.06420 0.22000 0.20000
C 	C 	0.59570 0.10650 0.17280 0.12400
C 	C 	0.71080 0.06190 0.16400 -0.21000
N 	N 	0.83020 0.65017 0.76550 -0.23000
N 	N 	0.45630 0.52100 0.78120 -0.10400
N 	N 	0.16980 0.34983 0.76550 -0.23000
N 	N 	0.54370 0.47900 0.78120 -0.10400
N 	N 	0.33020 0.84983 0.23450 -0.23200
N 	N 	0.95630 0.97900 0.21880 -0.10400
N 	N 	0.66980 0.15017 0.23450 -0.23200
N 	N 	0.04370 0.02100 0.21880 -0.10400
O 	O 	0.71690 0.81417 0.07800 -0.36200
O 	O 	0.79340 0.75133 0.59530 -0.42500
O 	O 	0.65400 0.81496 0.44570 -0.43300
O 	O 	0.85000 0.74224 0.97230 -0.34900
O 	O 	0.12060 0.79219 0.78160 -0.27500
O 	O 	0.28310 0.18583 0.07800 -0.36200
O 	O 	0.20660 0.24867 0.59530 -0.42500
O 	O 	0.34600 0.18504 0.44570 -0.43300
O 	O 	0.15000 0.25776 0.97230 -0.34900
O 	O 	0.87940 0.20781 0.78160 -0.27500
O 	O 	0.21690 0.68583 0.92200 -0.36600
O 	O 	0.29340 0.74867 0.40470 -0.42800
O 	O 	0.15400 0.68504 0.55430 -0.43500
O 	O 	0.35000 0.75776 0.02770 -0.35600
O 	O 	0.62060 0.70781 0.21840 -0.26300
O 	O 	0.78310 0.31417 0.92200 -0.36600
O 	O 	0.70660 0.25133 0.40470 -0.42800
O 	O 	0.84600 0.31496 0.55430 -0.43500
O 	O 	0.65000 0.24224 0.02770 -0.35600
O 	O 	0.37940 0.29219 0.21840 -0.26300
