data_crystal

_cell_length_a 16.74800
_cell_length_b 24.51800
_cell_length_c 33.29100
_cell_angle_alpha 90.00000
_cell_angle_beta  90.00000
_cell_angle_gamma 90.00000

_symmetry_space_group_name_	'P 1'
_symmetry_space_group_name_H-M	'P 1'

loop_
_symmetry_equiv_pos_as_xyz
  x,y,z

loop_
_atom_site_label
_atom_site_type_symbol
_atom_site_fract_x
_atom_site_fract_y
_atom_site_fract_z
_atom_site_charge
Zn	Zn	0.89737 0.77535 0.84927 1.21100
Zn	Zn	0.04382 0.28041 0.07038 1.21900
Zn	Zn	0.04327 0.69441 0.84771 1.20500
Zn	Zn	0.93186 0.19073 0.11370 1.17900
Zn	Zn	0.39737 0.72465 0.65073 1.21200
Zn	Zn	0.54382 0.21959 0.42962 1.22000
Zn	Zn	0.54327 0.80559 0.65229 1.20600
Zn	Zn	0.43186 0.30927 0.38630 1.17900
Zn	Zn	0.60263 0.77535 0.15073 1.21200
Zn	Zn	0.45618 0.28041 0.92962 1.22000
Zn	Zn	0.45673 0.69441 0.15229 1.20600
Zn	Zn	0.56814 0.19073 0.88630 1.17900
Zn	Zn	0.10263 0.72465 0.34927 1.21200
Zn	Zn	0.95618 0.21959 0.57038 1.22000
Zn	Zn	0.95673 0.80559 0.34771 1.20500
Zn	Zn	0.06814 0.30927 0.61370 1.17900
Zn	Zn	0.10263 0.22465 0.15073 1.21200
Zn	Zn	0.95618 0.71959 0.92962 1.22000
Zn	Zn	0.95673 0.30559 0.15229 1.20500
Zn	Zn	0.06814 0.80927 0.88630 1.17900
Zn	Zn	0.60263 0.27535 0.34927 1.21200
Zn	Zn	0.45618 0.78041 0.57038 1.22000
Zn	Zn	0.45673 0.19441 0.34771 1.20600
Zn	Zn	0.56814 0.69073 0.61370 1.17900
Zn	Zn	0.39737 0.22465 0.84927 1.21200
Zn	Zn	0.54382 0.71959 0.07038 1.22000
Zn	Zn	0.54327 0.30559 0.84771 1.20600
Zn	Zn	0.43186 0.80927 0.11370 1.17900
Zn	Zn	0.89737 0.27535 0.65073 1.21200
Zn	Zn	0.04382 0.78041 0.42962 1.22000
Zn	Zn	0.04327 0.19441 0.65229 1.20500
Zn	Zn	0.93186 0.69073 0.38630 1.17900
H 	H 	0.83270 0.14700 0.00610 -0.01000
H 	H 	0.78770 0.11140 0.94560 0.10300
H 	H 	0.97500 0.17900 0.88890 0.11300
H 	H 	0.02000 0.21450 0.94940 -0.00100
H 	H 	0.78290 0.11830 0.87470 0.08700
H 	H 	0.76280 0.03190 0.84180 0.09500
H 	H 	0.79290 0.93970 0.83710 -0.00100
H 	H 	0.99490 0.96460 0.89960 -0.01200
H 	H 	0.96490 0.05680 0.90430 0.11100
H 	H 	0.96850 0.09390 0.82290 0.12700
H 	H 	0.78500 0.19790 0.83270 0.09900
H 	H 	0.74050 0.66360 0.96670 -0.00400
H 	H 	0.61770 0.62460 0.98130 0.11600
H 	H 	0.52700 0.68760 0.87960 0.11400
H 	H 	0.64990 0.72660 0.86500 -0.00600
H 	H 	0.47530 0.62450 0.97210 0.11700
H 	H 	0.40760 0.60590 0.87230 0.11500
H 	H 	0.38830 0.70150 0.96920 0.12200
H 	H 	0.00620 0.13380 0.76660 -0.02400
H 	H 	0.82550 0.23850 0.77280 -0.01000
H 	H 	0.29010 0.64120 0.84670 -0.00400
H 	H 	0.27850 0.74110 0.94150 -0.00700
H 	H 	0.56030 0.47440 0.86810 -0.00900
H 	H 	0.55820 0.56660 0.88400 0.11900
H 	H 	0.42260 0.53650 0.97940 0.11800
H 	H 	0.42770 0.44440 0.96530 -0.01400
H 	H 	0.33270 0.35300 0.49390 -0.00800
H 	H 	0.28770 0.38860 0.55440 0.10200
H 	H 	0.47500 0.32100 0.61110 0.11200
H 	H 	0.52000 0.28550 0.55060 0.00200
H 	H 	0.28290 0.38170 0.62530 0.08700
H 	H 	0.26280 0.46810 0.65820 0.09500
H 	H 	0.29290 0.56030 0.66290 -0.00200
H 	H 	0.49490 0.53540 0.60040 -0.01200
H 	H 	0.46490 0.44320 0.59570 0.11200
H 	H 	0.46850 0.40610 0.67710 0.12500
H 	H 	0.28500 0.30210 0.66730 0.09800
H 	H 	0.24050 0.83640 0.53330 -0.00400
H 	H 	0.11770 0.87540 0.51870 0.11500
H 	H 	0.02700 0.81240 0.62040 0.11300
H 	H 	0.14990 0.77340 0.63500 -0.00600
H 	H 	0.97530 0.87550 0.52790 0.11700
H 	H 	0.90760 0.89410 0.62770 0.11500
H 	H 	0.88830 0.79850 0.53080 0.12200
H 	H 	0.50620 0.36620 0.73340 -0.02000
H 	H 	0.32550 0.26150 0.72720 -0.00900
H 	H 	0.79010 0.85880 0.65330 -0.00300
H 	H 	0.77850 0.75890 0.55850 -0.00700
H 	H 	0.06030 0.02560 0.63190 -0.00700
H 	H 	0.05820 0.93340 0.61600 0.11700
H 	H 	0.92260 0.96350 0.52060 0.11700
H 	H 	0.92770 0.05560 0.53470 -0.01300
H 	H 	0.66730 0.14700 0.99390 -0.00700
H 	H 	0.71230 0.11140 0.05440 0.10100
H 	H 	0.52500 0.17900 0.11110 0.11100
H 	H 	0.48000 0.21450 0.05060 0.00200
H 	H 	0.71710 0.11830 0.12530 0.08700
H 	H 	0.73720 0.03190 0.15820 0.09500
H 	H 	0.70710 0.93970 0.16290 -0.00200
H 	H 	0.50510 0.96460 0.10040 -0.01200
H 	H 	0.53510 0.05680 0.09570 0.11100
H 	H 	0.53150 0.09390 0.17710 0.12500
H 	H 	0.71500 0.19790 0.16730 0.09800
H 	H 	0.75950 0.66360 0.03330 -0.00400
H 	H 	0.88230 0.62460 0.01870 0.11400
H 	H 	0.97300 0.68760 0.12040 0.11200
H 	H 	0.85010 0.72660 0.13500 -0.00600
H 	H 	0.02470 0.62450 0.02790 0.11700
H 	H 	0.09240 0.60590 0.12770 0.11500
H 	H 	0.11170 0.70150 0.03080 0.12200
H 	H 	0.49380 0.13380 0.23340 -0.02000
H 	H 	0.67450 0.23850 0.22720 -0.00900
H 	H 	0.20990 0.64120 0.15330 -0.00300
H 	H 	0.22150 0.74110 0.05850 -0.00700
H 	H 	0.93970 0.47440 0.13190 -0.00800
H 	H 	0.94180 0.56660 0.11600 0.11800
H 	H 	0.07740 0.53650 0.02060 0.11700
H 	H 	0.07230 0.44440 0.03470 -0.01300
H 	H 	0.16730 0.35300 0.50610 -0.00800
H 	H 	0.21230 0.38860 0.44560 0.10200
H 	H 	0.02500 0.32100 0.38890 0.11200
H 	H 	0.98000 0.28550 0.44940 0.00200
H 	H 	0.21710 0.38170 0.37470 0.08700
H 	H 	0.23720 0.46810 0.34180 0.09500
H 	H 	0.20710 0.56030 0.33710 -0.00200
H 	H 	0.00510 0.53540 0.39960 -0.01200
H 	H 	0.03510 0.44320 0.40430 0.11200
H 	H 	0.03150 0.40610 0.32290 0.12600
H 	H 	0.21500 0.30210 0.33270 0.09800
H 	H 	0.25950 0.83640 0.46670 -0.00400
H 	H 	0.38230 0.87540 0.48130 0.11600
H 	H 	0.47300 0.81240 0.37960 0.11400
H 	H 	0.35010 0.77340 0.36500 -0.00600
H 	H 	0.52470 0.87550 0.47210 0.11700
H 	H 	0.59240 0.89410 0.37230 0.11500
H 	H 	0.61170 0.79850 0.46920 0.12200
H 	H 	0.99380 0.36620 0.26660 -0.02300
H 	H 	0.17450 0.26150 0.27280 -0.00900
H 	H 	0.70990 0.85880 0.34670 -0.00400
H 	H 	0.72150 0.75890 0.44150 -0.00700
H 	H 	0.43970 0.02560 0.36810 -0.00900
H 	H 	0.44180 0.93340 0.38400 0.11900
H 	H 	0.57740 0.96350 0.47940 0.11800
H 	H 	0.57230 0.05560 0.46530 -0.01400
H 	H 	0.16730 0.85300 0.99390 -0.01000
H 	H 	0.21230 0.88860 0.05440 0.10300
H 	H 	0.02500 0.82100 0.11110 0.11300
H 	H 	0.98000 0.78550 0.05060 -0.00100
H 	H 	0.21710 0.88170 0.12530 0.08700
H 	H 	0.23720 0.96810 0.15820 0.09500
H 	H 	0.20710 0.06030 0.16290 -0.00100
H 	H 	0.00510 0.03540 0.10040 -0.01200
H 	H 	0.03510 0.94320 0.09570 0.11100
H 	H 	0.03150 0.90610 0.17710 0.12700
H 	H 	0.21500 0.80210 0.16730 0.09900
H 	H 	0.25950 0.33640 0.03330 -0.00400
H 	H 	0.38230 0.37540 0.01870 0.11600
H 	H 	0.47300 0.31240 0.12040 0.11400
H 	H 	0.35010 0.27340 0.13500 -0.00600
H 	H 	0.52470 0.37550 0.02790 0.11700
H 	H 	0.59240 0.39410 0.12770 0.11500
H 	H 	0.61170 0.29850 0.03080 0.12200
H 	H 	0.99380 0.86620 0.23340 -0.02400
H 	H 	0.17450 0.76150 0.22720 -0.01000
H 	H 	0.70990 0.35880 0.15330 -0.00400
H 	H 	0.72150 0.25890 0.05850 -0.00700
H 	H 	0.43970 0.52560 0.13190 -0.00900
H 	H 	0.44180 0.43340 0.11600 0.11900
H 	H 	0.57740 0.46350 0.02060 0.11800
H 	H 	0.57230 0.55560 0.03470 -0.01400
H 	H 	0.66730 0.64700 0.50610 -0.00800
H 	H 	0.71230 0.61140 0.44560 0.10200
H 	H 	0.52500 0.67900 0.38890 0.11200
H 	H 	0.48000 0.71450 0.44940 0.00200
H 	H 	0.71710 0.61830 0.37470 0.08700
H 	H 	0.73720 0.53190 0.34180 0.09500
H 	H 	0.70710 0.43970 0.33710 -0.00200
H 	H 	0.50510 0.46460 0.39960 -0.01200
H 	H 	0.53510 0.55680 0.40430 0.11200
H 	H 	0.53150 0.59390 0.32290 0.12500
H 	H 	0.71500 0.69790 0.33270 0.09800
H 	H 	0.75950 0.16360 0.46670 -0.00400
H 	H 	0.88230 0.12460 0.48130 0.11500
H 	H 	0.97300 0.18760 0.37960 0.11300
H 	H 	0.85010 0.22660 0.36500 -0.00600
H 	H 	0.02470 0.12450 0.47210 0.11700
H 	H 	0.09240 0.10590 0.37230 0.11500
H 	H 	0.11170 0.20150 0.46920 0.12200
H 	H 	0.49380 0.63380 0.26660 -0.02000
H 	H 	0.67450 0.73850 0.27280 -0.00900
H 	H 	0.20990 0.14120 0.34670 -0.00300
H 	H 	0.22150 0.24110 0.44150 -0.00700
H 	H 	0.93970 0.97440 0.36810 -0.00700
H 	H 	0.94180 0.06660 0.38400 0.11700
H 	H 	0.07740 0.03650 0.47940 0.11700
H 	H 	0.07230 0.94440 0.46530 -0.01300
H 	H 	0.33270 0.85300 0.00610 -0.00700
H 	H 	0.28770 0.88860 0.94560 0.10100
H 	H 	0.47500 0.82100 0.88890 0.11100
H 	H 	0.52000 0.78550 0.94940 0.00200
H 	H 	0.28290 0.88170 0.87470 0.08700
H 	H 	0.26280 0.96810 0.84180 0.09500
H 	H 	0.29290 0.06030 0.83710 -0.00200
H 	H 	0.49490 0.03540 0.89960 -0.01200
H 	H 	0.46490 0.94320 0.90430 0.11100
H 	H 	0.46850 0.90610 0.82290 0.12500
H 	H 	0.28500 0.80210 0.83270 0.09800
H 	H 	0.24050 0.33640 0.96670 -0.00400
H 	H 	0.11770 0.37540 0.98130 0.11400
H 	H 	0.02700 0.31240 0.87960 0.11200
H 	H 	0.14990 0.27340 0.86500 -0.00600
H 	H 	0.97530 0.37550 0.97210 0.11700
H 	H 	0.90760 0.39410 0.87230 0.11500
H 	H 	0.88830 0.29850 0.96920 0.12200
H 	H 	0.50620 0.86620 0.76660 -0.02000
H 	H 	0.32550 0.76150 0.77280 -0.00900
H 	H 	0.79010 0.35880 0.84670 -0.00300
H 	H 	0.77850 0.25890 0.94150 -0.00700
H 	H 	0.06030 0.52560 0.86810 -0.00800
H 	H 	0.05820 0.43340 0.88400 0.11800
H 	H 	0.92260 0.46350 0.97940 0.11700
H 	H 	0.92770 0.55560 0.96530 -0.01300
H 	H 	0.83270 0.64700 0.49390 -0.00800
H 	H 	0.78770 0.61140 0.55440 0.10200
H 	H 	0.97500 0.67900 0.61110 0.11200
H 	H 	0.02000 0.71450 0.55060 0.00200
H 	H 	0.78290 0.61830 0.62530 0.08700
H 	H 	0.76280 0.53190 0.65820 0.09500
H 	H 	0.79290 0.43970 0.66290 -0.00200
H 	H 	0.99490 0.46460 0.60040 -0.01200
H 	H 	0.96490 0.55680 0.59570 0.11200
H 	H 	0.96850 0.59390 0.67710 0.12600
H 	H 	0.78500 0.69790 0.66730 0.09800
H 	H 	0.74050 0.16360 0.53330 -0.00400
H 	H 	0.61770 0.12460 0.51870 0.11600
H 	H 	0.52700 0.18760 0.62040 0.11400
H 	H 	0.64990 0.22660 0.63500 -0.00600
H 	H 	0.47530 0.12450 0.52790 0.11700
H 	H 	0.40760 0.10590 0.62770 0.11500
H 	H 	0.38830 0.20150 0.53080 0.12200
H 	H 	0.00620 0.63380 0.73340 -0.02300
H 	H 	0.82550 0.73850 0.72720 -0.00900
H 	H 	0.29010 0.14120 0.65330 -0.00400
H 	H 	0.27850 0.24110 0.55850 -0.00700
H 	H 	0.56030 0.97440 0.63190 -0.00900
H 	H 	0.55820 0.06660 0.61600 0.11900
H 	H 	0.42260 0.03650 0.52060 0.11800
H 	H 	0.42770 0.94440 0.53470 -0.01400
C 	C 	0.95950 0.20652 0.02234 0.43800
C 	C 	0.93081 0.18427 0.98373 -0.20300
C 	C 	0.86124 0.15339 0.98261 0.13500
C 	C 	0.83428 0.13211 0.94637 -0.22100
C 	C 	0.87689 0.14170 0.91124 0.18400
C 	C 	0.94646 0.17258 0.91236 -0.22700
C 	C 	0.97342 0.19387 0.94860 0.13500
C 	C 	0.84110 0.11406 0.87393 -0.25700
C 	C 	0.86088 0.05344 0.87353 0.18100
C 	C 	0.80936 0.01837 0.85341 -0.21900
C 	C 	0.82737 0.96316 0.85061 0.12500
C 	C 	0.89689 0.94302 0.86792 -0.20200
C 	C 	0.94841 0.97808 0.88804 0.12800
C 	C 	0.93040 0.03329 0.89084 -0.22600
C 	C 	0.87290 0.14157 0.83523 0.19500
C 	C 	0.93890 0.12310 0.81320 -0.27400
C 	C 	0.82970 0.18460 0.81921 -0.23500
C 	C 	0.78670 0.72197 0.90522 0.44000
C 	C 	0.70736 0.69899 0.91441 -0.20700
C 	C 	0.69772 0.66844 0.94925 0.14000
C 	C 	0.62413 0.64506 0.95799 -0.23100
C 	C 	0.56019 0.65224 0.93191 0.19700
C 	C 	0.56982 0.68279 0.89707 -0.23600
C 	C 	0.64341 0.70617 0.88832 0.13900
C 	C 	0.48150 0.62218 0.94287 -0.28200
C 	C 	0.40900 0.64824 0.92433 0.20800
C 	C 	0.37980 0.63200 0.88691 -0.23800
C 	C 	0.36950 0.68947 0.94442 -0.24900
C 	C 	0.93700 0.20850 0.72119 0.45600
C 	C 	0.91670 0.18767 0.76077 -0.23900
C 	C 	0.95990 0.14600 0.77915 0.19100
C 	C 	0.85310 0.20840 0.78256 0.14400
C 	C 	0.19250 0.71720 0.87689 0.41300
C 	C 	0.27080 0.69509 0.89187 -0.20000
C 	C 	0.31020 0.65390 0.87104 0.13600
C 	C 	0.30310 0.71250 0.92799 0.14800
C 	C 	0.91800 0.88323 0.86599 0.44900
C 	C 	0.50070 0.39043 0.90868 0.42600
C 	C 	0.49490 0.44958 0.91578 -0.21400
C 	C 	0.53310 0.48648 0.89080 0.14900
C 	C 	0.53040 0.54202 0.90009 -0.25200
C 	C 	0.48840 0.56108 0.93199 0.21200
C 	C 	0.45040 0.52420 0.95696 -0.24800
C 	C 	0.45380 0.46889 0.94849 0.15200
C 	C 	0.45950 0.29348 0.47766 0.44000
C 	C 	0.43081 0.31573 0.51627 -0.20100
C 	C 	0.36124 0.34661 0.51739 0.13100
C 	C 	0.33428 0.36789 0.55363 -0.21800
C 	C 	0.37689 0.35830 0.58876 0.18100
C 	C 	0.44646 0.32742 0.58764 -0.22300
C 	C 	0.47342 0.30613 0.55140 0.12900
C 	C 	0.34110 0.38594 0.62607 -0.25500
C 	C 	0.36088 0.44656 0.62647 0.18100
C 	C 	0.30936 0.48163 0.64659 -0.22000
C 	C 	0.32737 0.53684 0.64939 0.12600
C 	C 	0.39689 0.55698 0.63208 -0.20300
C 	C 	0.44841 0.52192 0.61196 0.12900
C 	C 	0.43040 0.46671 0.60916 -0.22700
C 	C 	0.37290 0.35843 0.66477 0.19200
C 	C 	0.43890 0.37690 0.68680 -0.26800
C 	C 	0.32970 0.31540 0.68079 -0.23200
C 	C 	0.28670 0.77803 0.59478 0.44000
C 	C 	0.20736 0.80101 0.58559 -0.20700
C 	C 	0.19772 0.83156 0.55075 0.14000
C 	C 	0.12413 0.85494 0.54201 -0.23100
C 	C 	0.06019 0.84776 0.56809 0.19700
C 	C 	0.06982 0.81721 0.60293 -0.23500
C 	C 	0.14341 0.79383 0.61168 0.13900
C 	C 	0.98150 0.87782 0.55713 -0.28100
C 	C 	0.90900 0.85176 0.57567 0.20800
C 	C 	0.87980 0.86800 0.61309 -0.23700
C 	C 	0.86950 0.81053 0.55558 -0.24900
C 	C 	0.43700 0.29150 0.77881 0.45400
C 	C 	0.41670 0.31233 0.73923 -0.23500
C 	C 	0.45990 0.35400 0.72085 0.18300
C 	C 	0.35310 0.29160 0.71744 0.14100
C 	C 	0.69250 0.78280 0.62311 0.41300
C 	C 	0.77080 0.80491 0.60813 -0.20000
C 	C 	0.81020 0.84610 0.62896 0.13500
C 	C 	0.80310 0.78750 0.57201 0.14700
C 	C 	0.41800 0.61677 0.63401 0.45000
C 	C 	0.00070 0.10957 0.59132 0.42200
C 	C 	0.99490 0.05042 0.58422 -0.20800
C 	C 	0.03310 0.01352 0.60920 0.14300
C 	C 	0.03040 0.95798 0.59991 -0.24800
C 	C 	0.98840 0.93892 0.56801 0.20900
C 	C 	0.95040 0.97580 0.54304 -0.24600
C 	C 	0.95380 0.03111 0.55151 0.14900
C 	C 	0.54050 0.20652 0.97766 0.44000
C 	C 	0.56919 0.18427 0.01627 -0.20000
C 	C 	0.63876 0.15339 0.01739 0.12900
C 	C 	0.66572 0.13211 0.05363 -0.21800
C 	C 	0.62311 0.14170 0.08876 0.18100
C 	C 	0.55354 0.17258 0.08764 -0.22300
C 	C 	0.52658 0.19387 0.05140 0.12900
C 	C 	0.65890 0.11406 0.12607 -0.25500
C 	C 	0.63912 0.05344 0.12647 0.18000
C 	C 	0.69064 0.01837 0.14659 -0.21900
C 	C 	0.67263 0.96316 0.14939 0.12600
C 	C 	0.60311 0.94302 0.13208 -0.20300
C 	C 	0.55159 0.97808 0.11196 0.12800
C 	C 	0.56960 0.03329 0.10916 -0.22600
C 	C 	0.62710 0.14157 0.16477 0.19100
C 	C 	0.56110 0.12310 0.18680 -0.26800
C 	C 	0.67030 0.18460 0.18079 -0.23200
C 	C 	0.71330 0.72197 0.09478 0.43900
C 	C 	0.79264 0.69899 0.08559 -0.20700
C 	C 	0.80228 0.66844 0.05075 0.13900
C 	C 	0.87587 0.64506 0.04201 -0.23000
C 	C 	0.93981 0.65224 0.06809 0.19400
C 	C 	0.93018 0.68279 0.10293 -0.23400
C 	C 	0.85659 0.70617 0.11168 0.13800
C 	C 	0.01850 0.62218 0.05713 -0.28000
C 	C 	0.09100 0.64824 0.07567 0.20800
C 	C 	0.12020 0.63200 0.11309 -0.23700
C 	C 	0.13050 0.68947 0.05558 -0.24800
C 	C 	0.56300 0.20850 0.27881 0.45400
C 	C 	0.58330 0.18767 0.23923 -0.23500
C 	C 	0.54010 0.14600 0.22085 0.18300
C 	C 	0.64690 0.20840 0.21744 0.14100
C 	C 	0.30750 0.71720 0.12311 0.41300
C 	C 	0.22920 0.69509 0.10813 -0.20000
C 	C 	0.18980 0.65390 0.12896 0.13500
C 	C 	0.19690 0.71250 0.07201 0.14700
C 	C 	0.58200 0.88323 0.13401 0.45000
C 	C 	0.99930 0.39043 0.09132 0.42100
C 	C 	0.00510 0.44958 0.08422 -0.20800
C 	C 	0.96690 0.48648 0.10920 0.14500
C 	C 	0.96960 0.54202 0.09991 -0.25200
C 	C 	0.01160 0.56108 0.06801 0.21200
C 	C 	0.04960 0.52420 0.04304 -0.24600
C 	C 	0.04620 0.46889 0.05151 0.14900
C 	C 	0.04050 0.29348 0.52234 0.44000
C 	C 	0.06919 0.31573 0.48373 -0.20100
C 	C 	0.13876 0.34661 0.48261 0.13100
C 	C 	0.16572 0.36789 0.44637 -0.21900
C 	C 	0.12311 0.35830 0.41124 0.18200
C 	C 	0.05354 0.32742 0.41236 -0.22400
C 	C 	0.02658 0.30613 0.44860 0.13000
C 	C 	0.15890 0.38594 0.37393 -0.25600
C 	C 	0.13912 0.44656 0.37353 0.18100
C 	C 	0.19064 0.48163 0.35341 -0.22000
C 	C 	0.17263 0.53684 0.35061 0.12700
C 	C 	0.10311 0.55698 0.36792 -0.20300
C 	C 	0.05159 0.52192 0.38804 0.12900
C 	C 	0.06960 0.46671 0.39084 -0.22700
C 	C 	0.12710 0.35843 0.33523 0.19300
C 	C 	0.06110 0.37690 0.31320 -0.27200
C 	C 	0.17030 0.31540 0.31921 -0.23400
C 	C 	0.21330 0.77803 0.40522 0.44000
C 	C 	0.29264 0.80101 0.41441 -0.20700
C 	C 	0.30228 0.83156 0.44925 0.14100
C 	C 	0.37587 0.85494 0.45799 -0.23100
C 	C 	0.43981 0.84776 0.43191 0.19700
C 	C 	0.43018 0.81721 0.39707 -0.23600
C 	C 	0.35659 0.79383 0.38832 0.13900
C 	C 	0.51850 0.87782 0.44287 -0.28200
C 	C 	0.59100 0.85176 0.42433 0.20800
C 	C 	0.62020 0.86800 0.38691 -0.23800
C 	C 	0.63050 0.81053 0.44442 -0.24900
C 	C 	0.06300 0.29150 0.22119 0.45500
C 	C 	0.08330 0.31233 0.26077 -0.23700
C 	C 	0.04010 0.35400 0.27915 0.18800
C 	C 	0.14690 0.29160 0.28256 0.14300
C 	C 	0.80750 0.78280 0.37689 0.41300
C 	C 	0.72920 0.80491 0.39187 -0.20000
C 	C 	0.68980 0.84610 0.37104 0.13600
C 	C 	0.69690 0.78750 0.42799 0.14800
C 	C 	0.08200 0.61677 0.36599 0.45000
C 	C 	0.49930 0.10957 0.40868 0.42600
C 	C 	0.50510 0.05042 0.41578 -0.21400
C 	C 	0.46690 0.01352 0.39080 0.14900
C 	C 	0.46960 0.95798 0.40009 -0.25200
C 	C 	0.51160 0.93892 0.43199 0.21200
C 	C 	0.54960 0.97580 0.45696 -0.24800
C 	C 	0.54620 0.03111 0.44849 0.15200
C 	C 	0.04050 0.79348 0.97766 0.43800
C 	C 	0.06919 0.81573 0.01627 -0.20300
C 	C 	0.13876 0.84661 0.01739 0.13500
C 	C 	0.16572 0.86789 0.05363 -0.22100
C 	C 	0.12311 0.85830 0.08876 0.18400
C 	C 	0.05354 0.82742 0.08764 -0.22700
C 	C 	0.02658 0.80613 0.05140 0.13500
C 	C 	0.15890 0.88594 0.12607 -0.25700
C 	C 	0.13912 0.94656 0.12647 0.18100
C 	C 	0.19064 0.98163 0.14659 -0.21900
C 	C 	0.17263 0.03684 0.14939 0.12500
C 	C 	0.10311 0.05698 0.13208 -0.20200
C 	C 	0.05159 0.02192 0.11196 0.12800
C 	C 	0.06960 0.96671 0.10916 -0.22600
C 	C 	0.12710 0.85843 0.16477 0.19500
C 	C 	0.06110 0.87690 0.18680 -0.27400
C 	C 	0.17030 0.81540 0.18079 -0.23500
C 	C 	0.21330 0.27803 0.09478 0.44000
C 	C 	0.29264 0.30101 0.08559 -0.20700
C 	C 	0.30228 0.33156 0.05075 0.14000
C 	C 	0.37587 0.35494 0.04201 -0.23100
C 	C 	0.43981 0.34776 0.06809 0.19700
C 	C 	0.43018 0.31721 0.10293 -0.23600
C 	C 	0.35659 0.29383 0.11168 0.13900
C 	C 	0.51850 0.37782 0.05713 -0.28200
C 	C 	0.59100 0.35176 0.07567 0.20800
C 	C 	0.62020 0.36800 0.11309 -0.23800
C 	C 	0.63050 0.31053 0.05558 -0.24900
C 	C 	0.06300 0.79150 0.27881 0.45600
C 	C 	0.08330 0.81233 0.23923 -0.23900
C 	C 	0.04010 0.85400 0.22085 0.19100
C 	C 	0.14690 0.79160 0.21744 0.14400
C 	C 	0.80750 0.28280 0.12311 0.41300
C 	C 	0.72920 0.30491 0.10813 -0.20000
C 	C 	0.68980 0.34610 0.12896 0.13600
C 	C 	0.69690 0.28750 0.07201 0.14800
C 	C 	0.08200 0.11677 0.13401 0.44900
C 	C 	0.49930 0.60957 0.09132 0.42600
C 	C 	0.50510 0.55042 0.08422 -0.21400
C 	C 	0.46690 0.51352 0.10920 0.14900
C 	C 	0.46960 0.45798 0.09991 -0.25200
C 	C 	0.51160 0.43892 0.06801 0.21200
C 	C 	0.54960 0.47580 0.04304 -0.24800
C 	C 	0.54620 0.53111 0.05151 0.15200
C 	C 	0.54050 0.70652 0.52234 0.44000
C 	C 	0.56919 0.68427 0.48373 -0.20100
C 	C 	0.63876 0.65339 0.48261 0.13100
C 	C 	0.66572 0.63211 0.44637 -0.21800
C 	C 	0.62311 0.64170 0.41124 0.18100
C 	C 	0.55354 0.67258 0.41236 -0.22300
C 	C 	0.52658 0.69387 0.44860 0.12900
C 	C 	0.65890 0.61406 0.37393 -0.25500
C 	C 	0.63912 0.55344 0.37353 0.18100
C 	C 	0.69064 0.51837 0.35341 -0.22000
C 	C 	0.67263 0.46316 0.35061 0.12600
C 	C 	0.60311 0.44302 0.36792 -0.20300
C 	C 	0.55159 0.47808 0.38804 0.12900
C 	C 	0.56960 0.53329 0.39084 -0.22700
C 	C 	0.62710 0.64157 0.33523 0.19200
C 	C 	0.56110 0.62310 0.31320 -0.26800
C 	C 	0.67030 0.68460 0.31921 -0.23200
C 	C 	0.71330 0.22197 0.40522 0.44000
C 	C 	0.79264 0.19899 0.41441 -0.20700
C 	C 	0.80228 0.16844 0.44925 0.14000
C 	C 	0.87587 0.14506 0.45799 -0.23100
C 	C 	0.93981 0.15224 0.43191 0.19700
C 	C 	0.93018 0.18279 0.39707 -0.23500
C 	C 	0.85659 0.20617 0.38832 0.13900
C 	C 	0.01850 0.12218 0.44287 -0.28100
C 	C 	0.09100 0.14824 0.42433 0.20800
C 	C 	0.12020 0.13200 0.38691 -0.23700
C 	C 	0.13050 0.18947 0.44442 -0.24900
C 	C 	0.56300 0.70850 0.22119 0.45400
C 	C 	0.58330 0.68767 0.26077 -0.23500
C 	C 	0.54010 0.64600 0.27915 0.18300
C 	C 	0.64690 0.70840 0.28256 0.14100
C 	C 	0.30750 0.21720 0.37689 0.41300
C 	C 	0.22920 0.19509 0.39187 -0.20000
C 	C 	0.18980 0.15390 0.37104 0.13500
C 	C 	0.19690 0.21250 0.42799 0.14700
C 	C 	0.58200 0.38323 0.36599 0.45000
C 	C 	0.99930 0.89043 0.40868 0.42200
C 	C 	0.00510 0.94958 0.41578 -0.20800
C 	C 	0.96690 0.98648 0.39080 0.14300
C 	C 	0.96960 0.04202 0.40009 -0.24800
C 	C 	0.01160 0.06108 0.43199 0.20900
C 	C 	0.04960 0.02420 0.45696 -0.24600
C 	C 	0.04620 0.96889 0.44849 0.14900
C 	C 	0.45950 0.79348 0.02234 0.44000
C 	C 	0.43081 0.81573 0.98373 -0.20000
C 	C 	0.36124 0.84661 0.98261 0.12900
C 	C 	0.33428 0.86789 0.94637 -0.21800
C 	C 	0.37689 0.85830 0.91124 0.18100
C 	C 	0.44646 0.82742 0.91236 -0.22300
C 	C 	0.47342 0.80613 0.94860 0.12900
C 	C 	0.34110 0.88594 0.87393 -0.25500
C 	C 	0.36088 0.94656 0.87353 0.18000
C 	C 	0.30936 0.98163 0.85341 -0.21900
C 	C 	0.32737 0.03684 0.85061 0.12600
C 	C 	0.39689 0.05698 0.86792 -0.20300
C 	C 	0.44841 0.02192 0.88804 0.12800
C 	C 	0.43040 0.96671 0.89084 -0.22600
C 	C 	0.37290 0.85843 0.83523 0.19100
C 	C 	0.43890 0.87690 0.81320 -0.26800
C 	C 	0.32970 0.81540 0.81921 -0.23200
C 	C 	0.28670 0.27803 0.90522 0.43900
C 	C 	0.20736 0.30101 0.91441 -0.20700
C 	C 	0.19772 0.33156 0.94925 0.13900
C 	C 	0.12413 0.35494 0.95799 -0.23000
C 	C 	0.06019 0.34776 0.93191 0.19400
C 	C 	0.06982 0.31721 0.89707 -0.23400
C 	C 	0.14341 0.29383 0.88832 0.13800
C 	C 	0.98150 0.37782 0.94287 -0.28000
C 	C 	0.90900 0.35176 0.92433 0.20800
C 	C 	0.87980 0.36800 0.88691 -0.23700
C 	C 	0.86950 0.31053 0.94442 -0.24800
C 	C 	0.43700 0.79150 0.72119 0.45400
C 	C 	0.41670 0.81233 0.76077 -0.23500
C 	C 	0.45990 0.85400 0.77915 0.18300
C 	C 	0.35310 0.79160 0.78256 0.14100
C 	C 	0.69250 0.28280 0.87689 0.41300
C 	C 	0.77080 0.30491 0.89187 -0.20000
C 	C 	0.81020 0.34610 0.87104 0.13500
C 	C 	0.80310 0.28750 0.92799 0.14700
C 	C 	0.41800 0.11677 0.86599 0.45000
C 	C 	0.00070 0.60957 0.90868 0.42100
C 	C 	0.99490 0.55042 0.91578 -0.20800
C 	C 	0.03310 0.51352 0.89080 0.14500
C 	C 	0.03040 0.45798 0.90009 -0.25200
C 	C 	0.98840 0.43892 0.93199 0.21200
C 	C 	0.95040 0.47580 0.95696 -0.24600
C 	C 	0.95380 0.53111 0.94849 0.14900
C 	C 	0.95950 0.70652 0.47766 0.44000
C 	C 	0.93081 0.68427 0.51627 -0.20100
C 	C 	0.86124 0.65339 0.51739 0.13100
C 	C 	0.83428 0.63211 0.55363 -0.21900
C 	C 	0.87689 0.64170 0.58876 0.18200
C 	C 	0.94646 0.67258 0.58764 -0.22400
C 	C 	0.97342 0.69387 0.55140 0.13000
C 	C 	0.84110 0.61406 0.62607 -0.25600
C 	C 	0.86088 0.55344 0.62647 0.18100
C 	C 	0.80936 0.51837 0.64659 -0.22000
C 	C 	0.82737 0.46316 0.64939 0.12700
C 	C 	0.89689 0.44302 0.63208 -0.20300
C 	C 	0.94841 0.47808 0.61196 0.12900
C 	C 	0.93040 0.53329 0.60916 -0.22700
C 	C 	0.87290 0.64157 0.66477 0.19300
C 	C 	0.93890 0.62310 0.68680 -0.27200
C 	C 	0.82970 0.68460 0.68079 -0.23400
C 	C 	0.78670 0.22197 0.59478 0.44000
C 	C 	0.70736 0.19899 0.58559 -0.20700
C 	C 	0.69772 0.16844 0.55075 0.14100
C 	C 	0.62413 0.14506 0.54201 -0.23100
C 	C 	0.56019 0.15224 0.56809 0.19700
C 	C 	0.56982 0.18279 0.60293 -0.23600
C 	C 	0.64341 0.20617 0.61168 0.13900
C 	C 	0.48150 0.12218 0.55713 -0.28200
C 	C 	0.40900 0.14824 0.57567 0.20800
C 	C 	0.37980 0.13200 0.61309 -0.23800
C 	C 	0.36950 0.18947 0.55558 -0.24900
C 	C 	0.93700 0.70850 0.77881 0.45500
C 	C 	0.91670 0.68767 0.73923 -0.23700
C 	C 	0.95990 0.64600 0.72085 0.18800
C 	C 	0.85310 0.70840 0.71744 0.14300
C 	C 	0.19250 0.21720 0.62311 0.41300
C 	C 	0.27080 0.19509 0.60813 -0.20000
C 	C 	0.31020 0.15390 0.62896 0.13600
C 	C 	0.30310 0.21250 0.57201 0.14800
C 	C 	0.91800 0.38323 0.63401 0.45000
C 	C 	0.50070 0.89043 0.59132 0.42600
C 	C 	0.49490 0.94958 0.58422 -0.21400
C 	C 	0.53310 0.98648 0.60920 0.14900
C 	C 	0.53040 0.04202 0.59991 -0.25200
C 	C 	0.48840 0.06108 0.56801 0.21200
C 	C 	0.45040 0.02420 0.54304 -0.24800
C 	C 	0.45380 0.96889 0.55151 0.15200
O 	O 	0.87260 0.85232 0.84631 -0.50700
O 	O 	0.93130 0.18359 0.05335 -0.49800
O 	O 	0.00690 0.24519 0.02207 -0.51000
O 	O 	0.51880 0.37756 0.87241 -0.49400
O 	O 	0.48100 0.35863 0.93567 -0.51100
O 	O 	0.84018 0.71781 0.93136 -0.51300
O 	O 	0.79811 0.74388 0.87161 -0.49900
O 	O 	0.89560 0.24561 0.70568 -0.52200
O 	O 	0.99710 0.18721 0.70523 -0.53500
O 	O 	0.16890 0.76070 0.89294 -0.51900
O 	O 	0.15820 0.69169 0.84971 -0.52100
O 	O 	0.98841 0.74959 0.87921 -0.95700
O 	O 	0.97380 0.86739 0.88531 -0.54200
O 	O 	0.37260 0.64768 0.65369 -0.50800
O 	O 	0.43130 0.31641 0.44665 -0.49800
O 	O 	0.50690 0.25481 0.47793 -0.51200
O 	O 	0.01880 0.12244 0.62759 -0.49300
O 	O 	0.98100 0.14137 0.56433 -0.50900
O 	O 	0.34018 0.78219 0.56864 -0.51300
O 	O 	0.29811 0.75612 0.62839 -0.49900
O 	O 	0.39560 0.25439 0.79432 -0.52200
O 	O 	0.49710 0.31279 0.79477 -0.53500
O 	O 	0.66890 0.73930 0.60706 -0.51900
O 	O 	0.65820 0.80831 0.65029 -0.52100
O 	O 	0.48841 0.75041 0.62079 -0.95700
O 	O 	0.47380 0.63261 0.61469 -0.54300
O 	O 	0.62740 0.85232 0.15369 -0.50800
O 	O 	0.56870 0.18359 0.94665 -0.49800
O 	O 	0.49310 0.24519 0.97793 -0.51200
O 	O 	0.98120 0.37756 0.12759 -0.49300
O 	O 	0.01900 0.35863 0.06433 -0.50900
O 	O 	0.65982 0.71781 0.06864 -0.51300
O 	O 	0.70189 0.74388 0.12839 -0.49900
O 	O 	0.60440 0.24561 0.29432 -0.52100
O 	O 	0.50290 0.18721 0.29477 -0.53500
O 	O 	0.33110 0.76070 0.10706 -0.51900
O 	O 	0.34180 0.69169 0.15029 -0.52100
O 	O 	0.51159 0.74959 0.12079 -0.95700
O 	O 	0.52620 0.86739 0.11469 -0.54300
O 	O 	0.12740 0.64768 0.34631 -0.50800
O 	O 	0.06870 0.31641 0.55335 -0.49800
O 	O 	0.99310 0.25481 0.52207 -0.51100
O 	O 	0.48120 0.12244 0.37241 -0.49400
O 	O 	0.51900 0.14137 0.43567 -0.51100
O 	O 	0.15982 0.78219 0.43136 -0.51300
O 	O 	0.20189 0.75612 0.37161 -0.49900
O 	O 	0.10440 0.25439 0.20568 -0.52200
O 	O 	0.00290 0.31279 0.20523 -0.53500
O 	O 	0.83110 0.73930 0.39294 -0.51900
O 	O 	0.84180 0.80831 0.34971 -0.52100
O 	O 	0.01159 0.75041 0.37921 -0.95700
O 	O 	0.02620 0.63261 0.38531 -0.54200
O 	O 	0.12740 0.14768 0.15369 -0.50700
O 	O 	0.06870 0.81641 0.94665 -0.49800
O 	O 	0.99310 0.75481 0.97793 -0.51000
O 	O 	0.48120 0.62244 0.12759 -0.49400
O 	O 	0.51900 0.64137 0.06433 -0.51100
O 	O 	0.15982 0.28219 0.06864 -0.51300
O 	O 	0.20189 0.25612 0.12839 -0.49900
O 	O 	0.10440 0.75439 0.29432 -0.52200
O 	O 	0.00290 0.81279 0.29477 -0.53500
O 	O 	0.83110 0.23930 0.10706 -0.51900
O 	O 	0.84180 0.30831 0.15029 -0.52100
O 	O 	0.01159 0.25041 0.12079 -0.95700
O 	O 	0.02620 0.13261 0.11469 -0.54200
O 	O 	0.62740 0.35232 0.34631 -0.50800
O 	O 	0.56870 0.68359 0.55335 -0.49800
O 	O 	0.49310 0.74519 0.52207 -0.51200
O 	O 	0.98120 0.87756 0.37241 -0.49300
O 	O 	0.01900 0.85863 0.43567 -0.50900
O 	O 	0.65982 0.21781 0.43136 -0.51300
O 	O 	0.70189 0.24388 0.37161 -0.49900
O 	O 	0.60440 0.74561 0.20568 -0.52200
O 	O 	0.50290 0.68721 0.20523 -0.53500
O 	O 	0.33110 0.26070 0.39294 -0.51900
O 	O 	0.34180 0.19169 0.34971 -0.52100
O 	O 	0.51159 0.24959 0.37921 -0.95700
O 	O 	0.52620 0.36739 0.38531 -0.54300
O 	O 	0.37260 0.14768 0.84631 -0.50800
O 	O 	0.43130 0.81641 0.05335 -0.49800
O 	O 	0.50690 0.75481 0.02207 -0.51200
O 	O 	0.01880 0.62244 0.87241 -0.49300
O 	O 	0.98100 0.64137 0.93567 -0.50900
O 	O 	0.34018 0.28219 0.93136 -0.51300
O 	O 	0.29811 0.25612 0.87161 -0.49900
O 	O 	0.39560 0.75439 0.70568 -0.52100
O 	O 	0.49710 0.81279 0.70523 -0.53500
O 	O 	0.66890 0.23930 0.89294 -0.51900
O 	O 	0.65820 0.30831 0.84971 -0.52100
O 	O 	0.48841 0.25041 0.87921 -0.95700
O 	O 	0.47380 0.13261 0.88531 -0.54300
O 	O 	0.87260 0.35232 0.65369 -0.50800
O 	O 	0.93130 0.68359 0.44665 -0.49800
O 	O 	0.00690 0.74519 0.47793 -0.51100
O 	O 	0.51880 0.87756 0.62759 -0.49400
O 	O 	0.48100 0.85863 0.56433 -0.51100
O 	O 	0.84018 0.21781 0.56864 -0.51300
O 	O 	0.79811 0.24388 0.62839 -0.49900
O 	O 	0.89560 0.74561 0.79432 -0.52200
O 	O 	0.99710 0.68721 0.79477 -0.53500
O 	O 	0.16890 0.26070 0.60706 -0.51900
O 	O 	0.15820 0.19169 0.65029 -0.52100
O 	O 	0.98841 0.24959 0.62079 -0.95700
O 	O 	0.97380 0.36739 0.61469 -0.54200
