data_crystal

_cell_length_a 12.58790
_cell_length_b 12.58790
_cell_length_c 25.09000
_cell_angle_alpha 90.00000
_cell_angle_beta  90.00000
_cell_angle_gamma 90.00000

_symmetry_space_group_name_	'P 1'
_symmetry_space_group_name_H-M	'P 1'

loop_
_symmetry_equiv_pos_as_xyz
  x,y,z

loop_
_atom_site_label
_atom_site_type_symbol
_atom_site_fract_x
_atom_site_fract_y
_atom_site_fract_z
_atom_site_charge
Co	Co	0.67718 0.25051 0.87543 1.13000
Co	Co	0.32282 0.74949 0.37543 1.12900
Co	Co	0.24949 0.17718 0.12543 1.12800
Co	Co	0.75051 0.82282 0.62543 1.12800
Co	Co	0.82282 0.75051 0.37457 1.12700
Co	Co	0.17718 0.24949 0.87457 1.12800
Co	Co	0.25051 0.67718 0.12457 1.12700
Co	Co	0.74949 0.32282 0.62457 1.12800
Co	Co	0.43081 0.56919 0.75000 1.14800
Co	Co	0.56919 0.43081 0.25000 1.14700
Co	Co	0.93081 0.93081 -0.00000 1.12900
Co	Co	0.06919 0.06919 0.50000 1.14100
H 	H 	0.45320 0.29910 0.06880 -0.00400
H 	H 	0.49580 0.08530 0.91960 0.10500
H 	H 	0.37300 0.07100 0.91120 0.09800
H 	H 	0.28040 0.08020 0.00330 0.01500
H 	H 	0.54680 0.70090 0.56880 -0.01000
H 	H 	0.50420 0.91470 0.41960 0.10000
H 	H 	0.62700 0.92900 0.41120 0.09300
H 	H 	0.71960 0.91980 0.50330 0.01300
H 	H 	0.20090 0.95320 0.31880 -0.00900
H 	H 	0.41470 0.99580 0.16960 0.10000
H 	H 	0.42900 0.87300 0.16120 0.09200
H 	H 	0.41980 0.78040 0.25330 0.01400
H 	H 	0.79910 0.04680 0.81880 -0.00800
H 	H 	0.58530 0.00420 0.66960 0.10000
H 	H 	0.57100 0.12700 0.66120 0.09300
H 	H 	0.58020 0.21960 0.75330 0.01400
H 	H 	0.04680 0.79910 0.18120 -0.00900
H 	H 	0.00420 0.58530 0.33040 0.10100
H 	H 	0.12700 0.57100 0.33880 0.09400
H 	H 	0.21960 0.58020 0.24670 0.01400
H 	H 	0.95320 0.20090 0.68120 -0.00900
H 	H 	0.99580 0.41470 0.83040 0.10300
H 	H 	0.87300 0.42900 0.83880 0.09700
H 	H 	0.78040 0.41980 0.74670 0.01500
H 	H 	0.29910 0.45320 0.93120 -0.01600
H 	H 	0.08530 0.49580 0.08040 0.09600
H 	H 	0.07100 0.37300 0.08880 0.08700
H 	H 	0.08020 0.28040 0.99670 0.01200
H 	H 	0.70090 0.54680 0.43120 -0.01000
H 	H 	0.91470 0.50420 0.58040 0.10000
H 	H 	0.92900 0.62700 0.58880 0.09300
H 	H 	0.91980 0.71960 0.49670 0.01300
C 	C 	0.56580 0.42440 0.82220 0.33100
C 	C 	0.48090 0.34930 0.83860 -0.05700
C 	C 	0.42780 0.21150 0.88280 0.17400
C 	C 	0.28800 0.40880 0.81090 0.34300
C 	C 	0.37270 0.34380 0.83560 -0.06300
C 	C 	0.42740 0.25000 0.04440 0.06800
C 	C 	0.42780 0.12150 0.92110 -0.22300
C 	C 	0.33250 0.13110 0.00950 0.03800
C 	C 	0.43420 0.57560 0.32220 0.33100
C 	C 	0.51910 0.65070 0.33860 -0.05800
C 	C 	0.57220 0.78850 0.38280 0.17100
C 	C 	0.71200 0.59120 0.31090 0.34300
C 	C 	0.62730 0.65620 0.33560 -0.06300
C 	C 	0.57260 0.75000 0.54440 0.10000
C 	C 	0.57220 0.87850 0.42110 -0.21800
C 	C 	0.66750 0.86890 0.50950 0.06900
C 	C 	0.07560 0.06580 0.07220 0.31300
C 	C 	0.15070 0.98090 0.08860 -0.04600
C 	C 	0.28850 0.92780 0.13280 0.17300
C 	C 	0.09120 0.78800 0.06090 0.34400
C 	C 	0.15620 0.87270 0.08560 -0.06900
C 	C 	0.25000 0.92740 0.29440 0.10000
C 	C 	0.37850 0.92780 0.17110 -0.21800
C 	C 	0.36890 0.83250 0.25950 0.06900
C 	C 	0.92440 0.93420 0.57220 0.31400
C 	C 	0.84930 0.01910 0.58860 -0.04600
C 	C 	0.71150 0.07220 0.63280 0.17400
C 	C 	0.90880 0.21200 0.56090 0.34400
C 	C 	0.84380 0.12730 0.58560 -0.06600
C 	C 	0.75000 0.07260 0.79440 0.10000
C 	C 	0.62150 0.07220 0.67110 -0.21800
C 	C 	0.63110 0.16750 0.75950 0.06900
C 	C 	0.93420 0.92440 0.42780 0.31300
C 	C 	0.01910 0.84930 0.41140 -0.04400
C 	C 	0.07220 0.71150 0.36720 0.17500
C 	C 	0.21200 0.90880 0.43910 0.34500
C 	C 	0.12730 0.84380 0.41440 -0.06700
C 	C 	0.07260 0.75000 0.20560 0.09900
C 	C 	0.07220 0.62150 0.32890 -0.21900
C 	C 	0.16750 0.63110 0.24050 0.06900
C 	C 	0.06580 0.07560 0.92780 0.30800
C 	C 	0.98090 0.15070 0.91140 -0.03900
C 	C 	0.92780 0.28850 0.86720 0.17800
C 	C 	0.78800 0.09120 0.93910 0.34400
C 	C 	0.87270 0.15620 0.91440 -0.06500
C 	C 	0.92740 0.25000 0.70560 0.10000
C 	C 	0.92780 0.37850 0.82890 -0.22200
C 	C 	0.83250 0.36890 0.74050 0.06900
C 	C 	0.42440 0.56580 0.17780 0.33000
C 	C 	0.34930 0.48090 0.16140 -0.05900
C 	C 	0.21150 0.42780 0.11720 0.16800
C 	C 	0.40880 0.28800 0.18910 0.34300
C 	C 	0.34380 0.37270 0.16440 -0.06400
C 	C 	0.25000 0.42740 0.95560 0.13100
C 	C 	0.12150 0.42780 0.07890 -0.21200
C 	C 	0.13110 0.33250 0.99050 0.10100
C 	C 	0.57560 0.43420 0.67780 0.33100
C 	C 	0.65070 0.51910 0.66140 -0.05800
C 	C 	0.78850 0.57220 0.61720 0.17100
C 	C 	0.59120 0.71200 0.68910 0.34300
C 	C 	0.65620 0.62730 0.66440 -0.06300
C 	C 	0.75000 0.57260 0.45560 0.10000
C 	C 	0.87850 0.57220 0.57890 -0.21800
C 	C 	0.86890 0.66750 0.49050 0.06900
N 	N 	0.33870 0.25770 0.86405 -0.24600
N 	N 	0.51470 0.26280 0.86794 -0.24600
N 	N 	0.34270 0.18780 0.05440 -0.22800
N 	N 	0.40860 0.15880 0.97482 -0.05100
N 	N 	0.47100 0.23560 0.99690 -0.09100
N 	N 	0.66130 0.74230 0.36405 -0.24600
N 	N 	0.48530 0.73720 0.36794 -0.24600
N 	N 	0.65730 0.81220 0.55440 -0.23500
N 	N 	0.59140 0.84120 0.47482 -0.06700
N 	N 	0.52900 0.76440 0.49690 -0.10900
N 	N 	0.24230 0.83870 0.11405 -0.24600
N 	N 	0.23720 0.01470 0.11794 -0.25200
N 	N 	0.31220 0.84270 0.30440 -0.23500
N 	N 	0.34120 0.90860 0.22482 -0.06700
N 	N 	0.26440 0.97100 0.24690 -0.10800
N 	N 	0.75770 0.16130 0.61405 -0.24500
N 	N 	0.76280 0.98530 0.61794 -0.25000
N 	N 	0.68780 0.15730 0.80440 -0.23500
N 	N 	0.65880 0.09140 0.72482 -0.06700
N 	N 	0.73560 0.02900 0.74690 -0.10800
N 	N 	0.16130 0.75770 0.38595 -0.24500
N 	N 	0.98530 0.76280 0.38206 -0.25200
N 	N 	0.15730 0.68780 0.19560 -0.23500
N 	N 	0.09140 0.65880 0.27518 -0.06700
N 	N 	0.02900 0.73560 0.25310 -0.10900
N 	N 	0.83870 0.24230 0.88595 -0.24500
N 	N 	0.01470 0.23720 0.88206 -0.25300
N 	N 	0.84270 0.31220 0.69560 -0.23500
N 	N 	0.90860 0.34120 0.77518 -0.06700
N 	N 	0.97100 0.26440 0.75310 -0.10800
N 	N 	0.25770 0.33870 0.13595 -0.24600
N 	N 	0.26280 0.51470 0.13206 -0.24600
N 	N 	0.18780 0.34270 0.94560 -0.24100
N 	N 	0.15880 0.40860 0.02518 -0.08400
N 	N 	0.23560 0.47100 0.00310 -0.12800
N 	N 	0.74230 0.66130 0.63595 -0.24600
N 	N 	0.73720 0.48530 0.63206 -0.24600
N 	N 	0.81220 0.65730 0.44560 -0.23500
N 	N 	0.84120 0.59140 0.52518 -0.06700
N 	N 	0.76440 0.52900 0.50310 -0.10900
O 	O 	0.66030 0.39540 0.83198 -0.40600
O 	O 	0.19390 0.38740 0.82553 -0.41000
O 	O 	0.54500 0.51280 0.80250 -0.41000
O 	O 	0.30800 0.48170 0.77910 -0.44300
O 	O 	0.33970 0.60460 0.33198 -0.40800
O 	O 	0.80610 0.61260 0.32553 -0.41100
O 	O 	0.45500 0.48720 0.30250 -0.41200
O 	O 	0.69200 0.51830 0.27910 -0.44500
O 	O 	0.10460 0.16030 0.08198 -0.41100
O 	O 	0.11260 0.69390 0.07553 -0.41400
O 	O 	0.98720 0.04500 0.05250 -0.41000
O 	O 	0.01830 0.80800 0.02910 -0.45000
O 	O 	0.89540 0.83970 0.58198 -0.40500
O 	O 	0.88740 0.30610 0.57553 -0.41000
O 	O 	0.01280 0.95500 0.55250 -0.40000
O 	O 	0.98170 0.19200 0.52910 -0.44200
O 	O 	0.83970 0.89540 0.41802 -0.40500
O 	O 	0.30610 0.88740 0.42447 -0.41000
O 	O 	0.95500 0.01280 0.44750 -0.40200
O 	O 	0.19200 0.98170 0.47090 -0.44100
O 	O 	0.16030 0.10460 0.91802 -0.39900
O 	O 	0.69390 0.11260 0.92447 -0.40600
O 	O 	0.04500 0.98720 0.94750 -0.38400
O 	O 	0.80800 0.01830 0.97090 -0.42900
O 	O 	0.39540 0.66030 0.16802 -0.41000
O 	O 	0.38740 0.19390 0.17447 -0.41200
O 	O 	0.51280 0.54500 0.19750 -0.41300
O 	O 	0.48170 0.30800 0.22090 -0.44500
O 	O 	0.60460 0.33970 0.66802 -0.40800
O 	O 	0.61260 0.80610 0.67447 -0.41000
O 	O 	0.48720 0.45500 0.69750 -0.41200
O 	O 	0.51830 0.69200 0.72090 -0.44200
