data_crystal

_cell_length_a 12.17000
_cell_length_b 13.60100
_cell_length_c 17.40000
_cell_angle_alpha 90.00000
_cell_angle_beta  90.00000
_cell_angle_gamma 90.00000

_symmetry_space_group_name_	'P 1'
_symmetry_space_group_name_H-M	'P 1'

loop_
_symmetry_equiv_pos_as_xyz
  x,y,z

loop_
_atom_site_label
_atom_site_type_symbol
_atom_site_fract_x
_atom_site_fract_y
_atom_site_fract_z
_atom_site_charge
Mn	Mn	0.21266 0.75497 0.21202 1.25700
Mn	Mn	0.28734 0.24503 0.71202 1.25800
Mn	Mn	0.78734 0.25497 0.28798 1.25700
Mn	Mn	0.71266 0.74503 0.78798 1.27200
Mn	Mn	0.78734 0.24503 0.78798 1.26500
Mn	Mn	0.71266 0.75497 0.28798 1.26500
Mn	Mn	0.21266 0.74503 0.71202 1.26500
Mn	Mn	0.28734 0.25497 0.21202 1.25000
Mn	Mn	0.50000 0.50000 0.50000 1.22400
Mn	Mn	-0.00000 0.50000 -0.00000 1.16100
Mn	Mn	0.50000 0.00000 -0.00000 1.14400
Mn	Mn	0.00000 0.00000 0.50000 1.17500
H 	H 	0.01170 0.59470 0.27640 -0.02700
H 	H 	0.32380 0.56000 0.30220 -0.00600
H 	H 	0.19960 0.34860 0.39290 0.08700
H 	H 	0.24820 0.42950 0.44780 0.07000
H 	H 	0.48830 0.40530 0.77640 -0.00700
H 	H 	0.17620 0.44000 0.80220 -0.01000
H 	H 	0.30040 0.65140 0.89290 0.12200
H 	H 	0.25180 0.57050 0.94780 0.12100
H 	H 	0.98830 0.09470 0.22360 0.01800
H 	H 	0.67620 0.06000 0.19780 -0.00000
H 	H 	0.80040 0.84860 0.10710 0.08900
H 	H 	0.75180 0.92950 0.05220 0.06800
H 	H 	0.51170 0.90530 0.72360 -0.02500
H 	H 	0.82380 0.94000 0.69780 -0.00300
H 	H 	0.69960 0.15140 0.60710 0.08900
H 	H 	0.74820 0.07050 0.55220 0.05200
H 	H 	0.98830 0.40530 0.72360 0.00600
H 	H 	0.67620 0.44000 0.69780 -0.00400
H 	H 	0.80040 0.65140 0.60710 0.10500
H 	H 	0.75180 0.57050 0.55220 0.08200
H 	H 	0.51170 0.59470 0.22360 -0.01500
H 	H 	0.82380 0.56000 0.19780 0.00200
H 	H 	0.69960 0.34860 0.10710 0.07200
H 	H 	0.74820 0.42950 0.05220 0.03600
H 	H 	0.01170 0.90530 0.77640 -0.03700
H 	H 	0.32380 0.94000 0.80220 -0.00900
H 	H 	0.19960 0.15140 0.89290 0.10600
H 	H 	0.24820 0.07050 0.94780 0.09100
H 	H 	0.48830 0.09470 0.27640 0.00500
H 	H 	0.17620 0.06000 0.30220 -0.00700
H 	H 	0.30040 0.84860 0.39290 0.10400
H 	H 	0.25180 0.92950 0.44780 0.10300
C 	C 	0.07920 0.56960 0.29200 0.09200
C 	C 	0.24800 0.55230 0.30520 0.07400
C 	C 	0.24510 0.40710 0.39490 -0.20400
C 	C 	0.35840 0.38370 0.36693 0.15100
C 	C 	0.49110 0.33030 0.29612 -0.06700
C 	C 	0.53560 0.27460 0.22960 0.35200
C 	C 	0.53520 0.38540 0.35612 -0.07400
C 	C 	0.64760 0.41930 0.37720 0.32200
C 	C 	0.42080 0.43040 0.79200 0.09800
C 	C 	0.25200 0.44770 0.80520 0.08100
C 	C 	0.25490 0.59290 0.89490 -0.23500
C 	C 	0.14160 0.61630 0.86693 0.17500
C 	C 	0.00890 0.66970 0.79612 -0.17500
C 	C 	0.96440 0.72540 0.72960 0.46400
C 	C 	0.96480 0.61460 0.85612 0.04300
C 	C 	0.85240 0.58070 0.87720 0.29200
C 	C 	0.92080 0.06960 0.20800 -0.00800
C 	C 	0.75200 0.05230 0.19480 -0.02400
C 	C 	0.75490 0.90710 0.10510 -0.20500
C 	C 	0.64160 0.88370 0.13307 0.15900
C 	C 	0.50890 0.83030 0.20388 -0.06000
C 	C 	0.46440 0.77460 0.27040 0.34900
C 	C 	0.46480 0.88540 0.14388 -0.07100
C 	C 	0.35240 0.91930 0.12280 0.32600
C 	C 	0.57920 0.93040 0.70800 0.18700
C 	C 	0.74800 0.94770 0.69480 0.16600
C 	C 	0.74510 0.09290 0.60510 -0.19200
C 	C 	0.85840 0.11630 0.63307 0.14000
C 	C 	0.99110 0.16970 0.70388 0.06500
C 	C 	0.03560 0.22540 0.77040 0.21600
C 	C 	0.03520 0.11460 0.64388 -0.20000
C 	C 	0.14760 0.08070 0.62280 0.35800
C 	C 	0.92080 0.43040 0.70800 0.09300
C 	C 	0.75200 0.44770 0.69480 0.07700
C 	C 	0.75490 0.59290 0.60510 -0.21400
C 	C 	0.64160 0.61630 0.63307 0.15900
C 	C 	0.50890 0.66970 0.70388 -0.05700
C 	C 	0.46440 0.72540 0.77040 0.34500
C 	C 	0.46480 0.61460 0.64388 -0.07400
C 	C 	0.35240 0.58070 0.62280 0.32600
C 	C 	0.57920 0.56960 0.20800 0.08800
C 	C 	0.74800 0.55230 0.19480 0.07100
C 	C 	0.74510 0.40710 0.10510 -0.18300
C 	C 	0.85840 0.38370 0.13307 0.13700
C 	C 	0.99110 0.33030 0.20388 0.06600
C 	C 	0.03560 0.27460 0.27040 0.21600
C 	C 	0.03520 0.38540 0.14388 -0.20100
C 	C 	0.14760 0.41930 0.12280 0.35900
C 	C 	0.07920 0.93040 0.79200 0.19400
C 	C 	0.24800 0.94770 0.80520 0.17300
C 	C 	0.24510 0.09290 0.89490 -0.21400
C 	C 	0.35840 0.11630 0.86693 0.15500
C 	C 	0.49110 0.16970 0.79612 -0.06600
C 	C 	0.53560 0.22540 0.72960 0.35000
C 	C 	0.53520 0.11460 0.85612 -0.06900
C 	C 	0.64760 0.08070 0.87720 0.32000
C 	C 	0.42080 0.06960 0.29200 -0.00900
C 	C 	0.25200 0.05230 0.30520 -0.02500
C 	C 	0.25490 0.90710 0.39490 -0.22600
C 	C 	0.14160 0.88370 0.36693 0.17400
C 	C 	0.00890 0.83030 0.29612 -0.17700
C 	C 	0.96440 0.77460 0.22960 0.47200
C 	C 	0.96480 0.88540 0.35612 0.04200
C 	C 	0.85240 0.91930 0.37720 0.29300
N 	N 	0.19770 0.48390 0.34624 -0.07600
N 	N 	0.08820 0.49380 0.33800 -0.11000
N 	N 	0.17590 0.60820 0.26910 -0.24900
N 	N 	0.37830 0.33110 0.30357 -0.23200
N 	N 	0.44930 0.41880 0.39992 -0.26500
N 	N 	0.30230 0.51610 0.84624 -0.06600
N 	N 	0.41180 0.50620 0.83800 -0.09100
N 	N 	0.32410 0.39180 0.76910 -0.24600
N 	N 	0.12170 0.66890 0.80357 -0.21900
N 	N 	0.05070 0.58120 0.89992 -0.27600
N 	N 	0.80230 0.98390 0.15376 -0.02700
N 	N 	0.91180 0.99380 0.16200 -0.04600
N 	N 	0.82410 0.10820 0.23090 -0.22500
N 	N 	0.62170 0.83110 0.19643 -0.22900
N 	N 	0.55070 0.91880 0.10008 -0.25700
N 	N 	0.69770 0.01610 0.65376 -0.12400
N 	N 	0.58820 0.00620 0.66200 -0.15500
N 	N 	0.67590 0.89180 0.73090 -0.25900
N 	N 	0.87830 0.16890 0.69643 -0.24700
N 	N 	0.94930 0.08120 0.60008 -0.23000
N 	N 	0.80230 0.51610 0.65376 -0.07300
N 	N 	0.91180 0.50620 0.66200 -0.09200
N 	N 	0.82410 0.39180 0.73090 -0.24100
N 	N 	0.62170 0.66890 0.69643 -0.23100
N 	N 	0.55070 0.58120 0.60008 -0.26400
N 	N 	0.69770 0.48390 0.15376 -0.08100
N 	N 	0.58820 0.49380 0.16200 -0.11000
N 	N 	0.67590 0.60820 0.23090 -0.24400
N 	N 	0.87830 0.33110 0.19643 -0.24600
N 	N 	0.94930 0.41880 0.10008 -0.23200
N 	N 	0.19770 0.01610 0.84624 -0.11900
N 	N 	0.08820 0.00620 0.83800 -0.15500
N 	N 	0.17590 0.89180 0.76910 -0.26400
N 	N 	0.37830 0.16890 0.80357 -0.23300
N 	N 	0.44930 0.08120 0.89992 -0.25100
N 	N 	0.30230 0.98390 0.34624 -0.01900
N 	N 	0.41180 0.99380 0.33800 -0.04300
N 	N 	0.32410 0.10820 0.26910 -0.23000
N 	N 	0.12170 0.83110 0.30357 -0.21700
N 	N 	0.05070 0.91880 0.39992 -0.28100
O 	O 	0.46630 0.24889 0.17913 -0.45500
O 	O 	0.63540 0.25183 0.22624 -0.46000
O 	O 	0.65160 0.48473 0.42944 -0.44400
O 	O 	0.73220 0.38640 0.34552 -0.43400
O 	O 	0.03370 0.75111 0.67913 -0.47600
O 	O 	0.86460 0.74817 0.72624 -0.46200
O 	O 	0.84840 0.51527 0.92944 -0.37100
O 	O 	0.76780 0.61360 0.84552 -0.40600
O 	O 	0.53370 0.74889 0.32087 -0.42400
O 	O 	0.36460 0.75183 0.27376 -0.45000
O 	O 	0.34840 0.98473 0.07056 -0.44100
O 	O 	0.26780 0.88640 0.15448 -0.43800
O 	O 	0.96630 0.25111 0.82087 -0.35100
O 	O 	0.13540 0.24817 0.77376 -0.42000
O 	O 	0.15160 0.01527 0.57056 -0.50200
O 	O 	0.23220 0.11360 0.65448 -0.46800
O 	O 	0.53370 0.75111 0.82087 -0.40100
O 	O 	0.36460 0.74817 0.77376 -0.43700
O 	O 	0.34840 0.51527 0.57056 -0.45100
O 	O 	0.26780 0.61360 0.65448 -0.44000
O 	O 	0.96630 0.24889 0.32087 -0.37100
O 	O 	0.13540 0.25183 0.27376 -0.43300
O 	O 	0.15160 0.48473 0.07056 -0.50500
O 	O 	0.23220 0.38640 0.15448 -0.46800
O 	O 	0.46630 0.25111 0.67913 -0.43400
O 	O 	0.63540 0.24817 0.72624 -0.44800
O 	O 	0.65160 0.01527 0.92944 -0.42200
O 	O 	0.73220 0.11360 0.84552 -0.43200
O 	O 	0.03370 0.74889 0.17913 -0.49900
O 	O 	0.86460 0.75183 0.22624 -0.47400
O 	O 	0.84840 0.98473 0.42944 -0.38200
O 	O 	0.76780 0.88640 0.34552 -0.40700
