data_crystal

_cell_length_a 9.15900
_cell_length_b 9.15900
_cell_length_c 24.44500
_cell_angle_alpha 90.00000
_cell_angle_beta  90.00000
_cell_angle_gamma 90.00000

_symmetry_space_group_name_	'P 1'
_symmetry_space_group_name_H-M	'P 1'

loop_
_symmetry_equiv_pos_as_xyz
  x,y,z

loop_
_atom_site_label
_atom_site_type_symbol
_atom_site_fract_x
_atom_site_fract_y
_atom_site_fract_z
_atom_site_charge
N 	N 	0.01470 0.09320 0.54413 -0.32700
C 	C 	0.13210 0.04310 0.51775 0.11200
H 	H 	0.22490 0.07090 0.52920 0.02200
C 	C 	0.88310 0.05020 0.52670 0.11700
C 	C 	0.75080 0.10780 0.55761 0.28800
O 	O 	0.77930 0.19350 0.59799 -0.42300
O 	O 	0.62920 0.06770 0.54293 -0.18900
N 	N 	0.51470 0.59320 0.04413 -0.20500
C 	C 	0.63210 0.54310 0.01775 0.05700
H 	H 	0.72490 0.57090 0.02920 0.06200
C 	C 	0.38310 0.55020 0.02670 -0.06100
C 	C 	0.25080 0.60780 0.05761 0.33400
O 	O 	0.27930 0.69350 0.09799 -0.49200
O 	O 	0.12920 0.56770 0.04293 -0.26500
N 	N 	0.48530 0.90680 0.04413 -0.21600
C 	C 	0.36790 0.95690 0.01775 0.07100
H 	H 	0.27510 0.92910 0.02920 0.02000
C 	C 	0.61690 0.94980 0.02670 -0.03200
C 	C 	0.74920 0.89220 0.05761 0.31400
O 	O 	0.72070 0.80650 0.09799 -0.44200
O 	O 	0.87080 0.93230 0.04293 -0.13800
N 	N 	0.98530 0.40680 0.54413 -0.08500
C 	C 	0.86790 0.45690 0.51775 0.01800
H 	H 	0.77510 0.42910 0.52920 0.06300
C 	C 	0.11690 0.44980 0.52670 -0.21100
C 	C 	0.24920 0.39220 0.55761 0.35900
O 	O 	0.22070 0.30650 0.59799 -0.49900
O 	O 	0.37080 0.43230 0.54293 -0.21300
N 	N 	0.65680 0.26470 0.79413 -0.20800
C 	C 	0.70690 0.38210 0.76775 0.06900
H 	H 	0.67910 0.47490 0.77920 0.04800
C 	C 	0.69980 0.13310 0.77670 -0.03300
C 	C 	0.64220 0.00080 0.80761 0.32200
O 	O 	0.55650 0.02930 0.84799 -0.46400
O 	O 	0.68230 0.87920 0.79293 -0.17900
N 	N 	0.15680 0.76470 0.29413 -0.23300
C 	C 	0.20690 0.88210 0.26775 0.05200
H 	H 	0.17910 0.97490 0.27920 0.01100
C 	C 	0.19980 0.63310 0.27670 -0.06700
C 	C 	0.14220 0.50080 0.30761 0.32000
O 	O 	0.05650 0.52930 0.34799 -0.52900
O 	O 	0.18230 0.37920 0.29293 -0.23500
N 	N 	0.84320 0.73530 0.29413 -0.18100
C 	C 	0.79310 0.61790 0.26775 0.07500
H 	H 	0.82090 0.52510 0.27920 0.07200
C 	C 	0.80020 0.86690 0.27670 -0.02200
C 	C 	0.85780 0.99920 0.30761 0.32300
O 	O 	0.94350 0.97070 0.34799 -0.39200
O 	O 	0.81770 0.12080 0.29293 -0.16500
N 	N 	0.34320 0.23530 0.79413 -0.21300
C 	C 	0.29310 0.11790 0.76775 0.05900
H 	H 	0.32090 0.02510 0.77920 0.03400
C 	C 	0.30020 0.36690 0.77670 -0.05900
C 	C 	0.35780 0.49920 0.80761 0.32100
O 	O 	0.44350 0.47070 0.84799 -0.47000
O 	O 	0.31770 0.62080 0.79293 -0.22000
N 	N 	0.98530 0.90680 0.45587 -0.08500
C 	C 	0.86790 0.95690 0.48225 0.02000
H 	H 	0.77510 0.92910 0.47080 0.06200
C 	C 	0.11690 0.94980 0.47330 -0.21100
C 	C 	0.24920 0.89220 0.44239 0.35900
O 	O 	0.22070 0.80650 0.40201 -0.49900
O 	O 	0.37080 0.93230 0.45707 -0.21400
N 	N 	0.48530 0.40680 0.95587 -0.21600
C 	C 	0.36790 0.45690 0.98225 0.07200
H 	H 	0.27510 0.42910 0.97080 0.02000
C 	C 	0.61690 0.44980 0.97330 -0.03200
C 	C 	0.74920 0.39220 0.94239 0.31400
O 	O 	0.72070 0.30650 0.90201 -0.44200
O 	O 	0.87080 0.43230 0.95707 -0.13700
N 	N 	0.51470 0.09320 0.95587 -0.20500
C 	C 	0.63210 0.04310 0.98225 0.05600
H 	H 	0.72490 0.07090 0.97080 0.06100
C 	C 	0.38310 0.05020 0.97330 -0.06100
C 	C 	0.25080 0.10780 0.94239 0.33400
O 	O 	0.27930 0.19350 0.90201 -0.49100
O 	O 	0.12920 0.06770 0.95707 -0.26400
N 	N 	0.01470 0.59320 0.45587 -0.33000
C 	C 	0.13210 0.54310 0.48225 0.11000
H 	H 	0.22490 0.57090 0.47080 0.02100
C 	C 	0.88310 0.55020 0.47330 0.12100
C 	C 	0.75080 0.60780 0.44239 0.28700
O 	O 	0.77930 0.69350 0.40201 -0.42200
O 	O 	0.62920 0.56770 0.45707 -0.18800
N 	N 	0.34320 0.73530 0.20587 -0.21300
C 	C 	0.29310 0.61790 0.23225 0.05900
H 	H 	0.32090 0.52510 0.22080 0.03500
C 	C 	0.30020 0.86690 0.22330 -0.05900
C 	C 	0.35780 0.99920 0.19239 0.31800
O 	O 	0.44350 0.97070 0.15201 -0.47000
O 	O 	0.31770 0.12080 0.20707 -0.21700
N 	N 	0.84320 0.23530 0.70587 -0.18200
C 	C 	0.79310 0.11790 0.73225 0.07500
H 	H 	0.82090 0.02510 0.72080 0.07000
C 	C 	0.80020 0.36690 0.72330 -0.02300
C 	C 	0.85780 0.49920 0.69239 0.32600
O 	O 	0.94350 0.47070 0.65201 -0.39100
O 	O 	0.81770 0.62080 0.70707 -0.16500
N 	N 	0.15680 0.26470 0.70587 -0.23300
C 	C 	0.20690 0.38210 0.73225 0.05300
H 	H 	0.17910 0.47490 0.72080 0.01200
C 	C 	0.19980 0.13310 0.72330 -0.06700
C 	C 	0.14220 0.00080 0.69239 0.31900
O 	O 	0.05650 0.02930 0.65201 -0.52800
O 	O 	0.18230 0.87920 0.70707 -0.23400
N 	N 	0.65680 0.76470 0.20587 -0.20800
C 	C 	0.70690 0.88210 0.23225 0.06800
H 	H 	0.67910 0.97490 0.22080 0.04700
C 	C 	0.69980 0.63310 0.22330 -0.03300
C 	C 	0.64220 0.50080 0.19239 0.32700
O 	O 	0.55650 0.52930 0.15201 -0.46400
O 	O 	0.68230 0.37920 0.20707 -0.18200
In	In	0.00000 0.25000 0.62500 1.94200
In	In	0.50000 0.75000 0.12500 1.98100
In	In	0.50000 0.25000 0.87500 1.98100
In	In	-0.00000 0.75000 0.37500 1.94100
