data_crystal

_cell_length_a 30.58500
_cell_length_b 30.58500
_cell_length_c 30.58500
_cell_angle_alpha 90.00000
_cell_angle_beta  90.00000
_cell_angle_gamma 90.00000

_symmetry_space_group_name_	'P 1'
_symmetry_space_group_name_H-M	'P 1'

loop_
_symmetry_equiv_pos_as_xyz
  x,y,z

loop_
_atom_site_label
_atom_site_type_symbol
_atom_site_fract_x
_atom_site_fract_y
_atom_site_fract_z
_atom_site_charge
O 	O 	0.27236 0.79105 0.04484 -0.39500
O 	O 	0.22016 0.84271 0.04498 -0.40400
O 	O 	0.41460 0.83580 0.08130 -0.18200
H 	H 	0.39260 0.81950 0.15200 0.10300
C 	C 	0.25534 0.82592 0.05872 0.33300
C 	C 	0.27847 0.85019 0.09450 -0.03200
C 	C 	0.32060 0.83790 0.10630 -0.09700
H 	H 	0.33450 0.81370 0.09210 0.09400
C 	C 	0.41800 0.83710 0.12210 0.14800
C 	C 	0.46310 0.80350 0.18440 0.02000
C 	C 	0.46140 0.82420 0.14350 -0.03700
O 	O 	0.77236 0.29105 0.54484 -0.38900
O 	O 	0.72016 0.34271 0.54498 -0.39800
O 	O 	0.91460 0.33580 0.58130 -0.16700
H 	H 	0.89260 0.31950 0.65200 0.10300
C 	C 	0.75534 0.32592 0.55872 0.33400
C 	C 	0.77847 0.35019 0.59450 -0.03000
C 	C 	0.82060 0.33790 0.60630 -0.09600
H 	H 	0.83450 0.31370 0.59210 0.09600
C 	C 	0.91800 0.33710 0.62210 0.14200
C 	C 	0.96310 0.30350 0.68440 0.02800
C 	C 	0.96140 0.32420 0.64350 -0.00700
O 	O 	0.72764 0.20895 0.04484 -0.39600
O 	O 	0.77984 0.15729 0.04498 -0.40700
O 	O 	0.58540 0.16420 0.08130 -0.18500
H 	H 	0.60740 0.18050 0.15200 0.10300
C 	C 	0.74466 0.17408 0.05872 0.33300
C 	C 	0.72153 0.14981 0.09450 -0.03600
C 	C 	0.67940 0.16210 0.10630 -0.09600
H 	H 	0.66550 0.18630 0.09210 0.09300
C 	C 	0.58200 0.16290 0.12210 0.14600
C 	C 	0.53690 0.19650 0.18440 0.02100
C 	C 	0.53860 0.17580 0.14350 -0.03600
O 	O 	0.22764 0.70895 0.54484 -0.39000
O 	O 	0.27984 0.65729 0.54498 -0.39800
O 	O 	0.08540 0.66420 0.58130 -0.17900
H 	H 	0.10740 0.68050 0.65200 0.10300
C 	C 	0.24466 0.67408 0.55872 0.33400
C 	C 	0.22153 0.64981 0.59450 -0.03200
C 	C 	0.17940 0.66210 0.60630 -0.09600
H 	H 	0.16550 0.68630 0.59210 0.09500
C 	C 	0.08200 0.66290 0.62210 0.14300
C 	C 	0.03690 0.69650 0.68440 0.01700
C 	C 	0.03860 0.67580 0.64350 -0.02700
O 	O 	0.72764 0.79105 0.95516 -0.37500
O 	O 	0.77984 0.84271 0.95502 -0.38100
O 	O 	0.58540 0.83580 0.91870 -0.16700
H 	H 	0.60740 0.81950 0.84800 0.10400
C 	C 	0.74466 0.82592 0.94128 0.33100
C 	C 	0.72153 0.85019 0.90550 -0.02100
C 	C 	0.67940 0.83790 0.89370 -0.09800
H 	H 	0.66550 0.81370 0.90790 0.10000
C 	C 	0.58200 0.83710 0.87790 0.14600
C 	C 	0.53690 0.80350 0.81560 0.02200
C 	C 	0.53860 0.82420 0.85650 -0.03100
O 	O 	0.22764 0.29105 0.45516 -0.38900
O 	O 	0.27984 0.34271 0.45502 -0.39700
O 	O 	0.08540 0.33580 0.41870 -0.17800
H 	H 	0.10740 0.31950 0.34800 0.10400
C 	C 	0.24466 0.32592 0.44128 0.33500
C 	C 	0.22153 0.35019 0.40550 -0.03000
C 	C 	0.17940 0.33790 0.39370 -0.09500
H 	H 	0.16550 0.31370 0.40790 0.09600
C 	C 	0.08200 0.33710 0.37790 0.14400
C 	C 	0.03690 0.30350 0.31560 0.01800
C 	C 	0.03860 0.32420 0.35650 -0.02600
O 	O 	0.27236 0.20895 0.95516 -0.37500
O 	O 	0.22016 0.15729 0.95502 -0.38600
O 	O 	0.41460 0.16420 0.91870 -0.17000
H 	H 	0.39260 0.18050 0.84800 0.10500
C 	C 	0.25534 0.17408 0.94128 0.33200
C 	C 	0.27847 0.14981 0.90550 -0.02700
C 	C 	0.32060 0.16210 0.89370 -0.09600
H 	H 	0.33450 0.18630 0.90790 0.09900
C 	C 	0.41800 0.16290 0.87790 0.14500
C 	C 	0.46310 0.19650 0.81560 0.02300
C 	C 	0.46140 0.17580 0.85650 -0.02900
O 	O 	0.77236 0.70895 0.45516 -0.38800
O 	O 	0.72016 0.65729 0.45502 -0.39700
O 	O 	0.91460 0.66420 0.41870 -0.16600
H 	H 	0.89260 0.68050 0.34800 0.10400
C 	C 	0.75534 0.67408 0.44128 0.33400
C 	C 	0.77847 0.64981 0.40550 -0.03000
C 	C 	0.82060 0.66210 0.39370 -0.09500
H 	H 	0.83450 0.68630 0.40790 0.09700
C 	C 	0.91800 0.66290 0.37790 0.14200
C 	C 	0.96310 0.69650 0.31560 0.02900
C 	C 	0.96140 0.67580 0.35650 -0.00600
O 	O 	0.04484 0.27236 0.79105 -0.39400
O 	O 	0.04498 0.22016 0.84271 -0.40300
O 	O 	0.08130 0.41460 0.83580 -0.18100
H 	H 	0.15200 0.39260 0.81950 0.10400
C 	C 	0.05872 0.25534 0.82592 0.33400
C 	C 	0.09450 0.27847 0.85019 -0.03100
C 	C 	0.10630 0.32060 0.83790 -0.09600
H 	H 	0.09210 0.33450 0.81370 0.09500
C 	C 	0.12210 0.41800 0.83710 0.14900
C 	C 	0.18440 0.46310 0.80350 0.02100
C 	C 	0.14350 0.46140 0.82420 -0.03600
O 	O 	0.54484 0.77236 0.29105 -0.38800
O 	O 	0.54498 0.72016 0.34271 -0.39700
O 	O 	0.58130 0.91460 0.33580 -0.16600
H 	H 	0.65200 0.89260 0.31950 0.10400
C 	C 	0.55872 0.75534 0.32592 0.33500
C 	C 	0.59450 0.77847 0.35019 -0.02900
C 	C 	0.60630 0.82060 0.33790 -0.09500
H 	H 	0.59210 0.83450 0.31370 0.09700
C 	C 	0.62210 0.91800 0.33710 0.14300
C 	C 	0.68440 0.96310 0.30350 0.02900
C 	C 	0.64350 0.96140 0.32420 -0.00600
O 	O 	0.04484 0.72764 0.20895 -0.39500
O 	O 	0.04498 0.77984 0.15729 -0.40600
O 	O 	0.08130 0.58540 0.16420 -0.18400
H 	H 	0.15200 0.60740 0.18050 0.10400
C 	C 	0.05872 0.74466 0.17408 0.33400
C 	C 	0.09450 0.72153 0.14981 -0.03500
C 	C 	0.10630 0.67940 0.16210 -0.09500
H 	H 	0.09210 0.66550 0.18630 0.09400
C 	C 	0.12210 0.58200 0.16290 0.14700
C 	C 	0.18440 0.53690 0.19650 0.02200
C 	C 	0.14350 0.53860 0.17580 -0.03500
O 	O 	0.54484 0.22764 0.70895 -0.38900
O 	O 	0.54498 0.27984 0.65729 -0.39700
O 	O 	0.58130 0.08540 0.66420 -0.17800
H 	H 	0.65200 0.10740 0.68050 0.10400
C 	C 	0.55872 0.24466 0.67408 0.33500
C 	C 	0.59450 0.22153 0.64981 -0.03100
C 	C 	0.60630 0.17940 0.66210 -0.09500
H 	H 	0.59210 0.16550 0.68630 0.09600
C 	C 	0.62210 0.08200 0.66290 0.14400
C 	C 	0.68440 0.03690 0.69650 0.01800
C 	C 	0.64350 0.03860 0.67580 -0.02600
O 	O 	0.95516 0.72764 0.79105 -0.37400
O 	O 	0.95502 0.77984 0.84271 -0.38000
O 	O 	0.91870 0.58540 0.83580 -0.16600
H 	H 	0.84800 0.60740 0.81950 0.10500
C 	C 	0.94128 0.74466 0.82592 0.33100
C 	C 	0.90550 0.72153 0.85019 -0.02100
C 	C 	0.89370 0.67940 0.83790 -0.09800
H 	H 	0.90790 0.66550 0.81370 0.10000
C 	C 	0.87790 0.58200 0.83710 0.14600
C 	C 	0.81560 0.53690 0.80350 0.02200
C 	C 	0.85650 0.53860 0.82420 -0.03100
O 	O 	0.45516 0.22764 0.29105 -0.38900
O 	O 	0.45502 0.27984 0.34271 -0.39700
O 	O 	0.41870 0.08540 0.33580 -0.17800
H 	H 	0.34800 0.10740 0.31950 0.10400
C 	C 	0.44128 0.24466 0.32592 0.33500
C 	C 	0.40550 0.22153 0.35019 -0.03000
C 	C 	0.39370 0.17940 0.33790 -0.09500
H 	H 	0.40790 0.16550 0.31370 0.09600
C 	C 	0.37790 0.08200 0.33710 0.14400
C 	C 	0.31560 0.03690 0.30350 0.01800
C 	C 	0.35650 0.03860 0.32420 -0.02600
O 	O 	0.95516 0.27236 0.20895 -0.37500
O 	O 	0.95502 0.22016 0.15729 -0.38600
O 	O 	0.91870 0.41460 0.16420 -0.17000
H 	H 	0.84800 0.39260 0.18050 0.10500
C 	C 	0.94128 0.25534 0.17408 0.33200
C 	C 	0.90550 0.27847 0.14981 -0.02700
C 	C 	0.89370 0.32060 0.16210 -0.09600
H 	H 	0.90790 0.33450 0.18630 0.09900
C 	C 	0.87790 0.41800 0.16290 0.14500
C 	C 	0.81560 0.46310 0.19650 0.02300
C 	C 	0.85650 0.46140 0.17580 -0.02900
O 	O 	0.45516 0.77236 0.70895 -0.38800
O 	O 	0.45502 0.72016 0.65729 -0.39700
O 	O 	0.41870 0.91460 0.66420 -0.16600
H 	H 	0.34800 0.89260 0.68050 0.10400
C 	C 	0.44128 0.75534 0.67408 0.33400
C 	C 	0.40550 0.77847 0.64981 -0.03000
C 	C 	0.39370 0.82060 0.66210 -0.09500
H 	H 	0.40790 0.83450 0.68630 0.09700
C 	C 	0.37790 0.91800 0.66290 0.14200
C 	C 	0.31560 0.96310 0.69650 0.02900
C 	C 	0.35650 0.96140 0.67580 -0.00600
O 	O 	0.79105 0.04484 0.27236 -0.39400
O 	O 	0.84271 0.04498 0.22016 -0.40300
O 	O 	0.83580 0.08130 0.41460 -0.18100
H 	H 	0.81950 0.15200 0.39260 0.10400
C 	C 	0.82592 0.05872 0.25534 0.33400
C 	C 	0.85019 0.09450 0.27847 -0.03100
C 	C 	0.83790 0.10630 0.32060 -0.09600
H 	H 	0.81370 0.09210 0.33450 0.09500
C 	C 	0.83710 0.12210 0.41800 0.14900
C 	C 	0.80350 0.18440 0.46310 0.02100
C 	C 	0.82420 0.14350 0.46140 -0.03600
O 	O 	0.29105 0.54484 0.77236 -0.38800
O 	O 	0.34271 0.54498 0.72016 -0.39700
O 	O 	0.33580 0.58130 0.91460 -0.16600
H 	H 	0.31950 0.65200 0.89260 0.10400
C 	C 	0.32592 0.55872 0.75534 0.33500
C 	C 	0.35019 0.59450 0.77847 -0.02900
C 	C 	0.33790 0.60630 0.82060 -0.09500
H 	H 	0.31370 0.59210 0.83450 0.09700
C 	C 	0.33710 0.62210 0.91800 0.14300
C 	C 	0.30350 0.68440 0.96310 0.02900
C 	C 	0.32420 0.64350 0.96140 -0.00600
O 	O 	0.20895 0.04484 0.72764 -0.39500
O 	O 	0.15729 0.04498 0.77984 -0.40600
O 	O 	0.16420 0.08130 0.58540 -0.18400
H 	H 	0.18050 0.15200 0.60740 0.10400
C 	C 	0.17408 0.05872 0.74466 0.33400
C 	C 	0.14981 0.09450 0.72153 -0.03500
C 	C 	0.16210 0.10630 0.67940 -0.09500
H 	H 	0.18630 0.09210 0.66550 0.09400
C 	C 	0.16290 0.12210 0.58200 0.14700
C 	C 	0.19650 0.18440 0.53690 0.02200
C 	C 	0.17580 0.14350 0.53860 -0.03500
O 	O 	0.70895 0.54484 0.22764 -0.38900
O 	O 	0.65729 0.54498 0.27984 -0.39700
O 	O 	0.66420 0.58130 0.08540 -0.17800
H 	H 	0.68050 0.65200 0.10740 0.10400
C 	C 	0.67408 0.55872 0.24466 0.33500
C 	C 	0.64981 0.59450 0.22153 -0.03100
C 	C 	0.66210 0.60630 0.17940 -0.09500
H 	H 	0.68630 0.59210 0.16550 0.09600
C 	C 	0.66290 0.62210 0.08200 0.14400
C 	C 	0.69650 0.68440 0.03690 0.01800
C 	C 	0.67580 0.64350 0.03860 -0.02600
O 	O 	0.79105 0.95516 0.72764 -0.37400
O 	O 	0.84271 0.95502 0.77984 -0.38000
O 	O 	0.83580 0.91870 0.58540 -0.16600
H 	H 	0.81950 0.84800 0.60740 0.10500
C 	C 	0.82592 0.94128 0.74466 0.33100
C 	C 	0.85019 0.90550 0.72153 -0.02100
C 	C 	0.83790 0.89370 0.67940 -0.09800
H 	H 	0.81370 0.90790 0.66550 0.10000
C 	C 	0.83710 0.87790 0.58200 0.14600
C 	C 	0.80350 0.81560 0.53690 0.02200
C 	C 	0.82420 0.85650 0.53860 -0.03100
O 	O 	0.29105 0.45516 0.22764 -0.38900
O 	O 	0.34271 0.45502 0.27984 -0.39700
O 	O 	0.33580 0.41870 0.08540 -0.17800
H 	H 	0.31950 0.34800 0.10740 0.10400
C 	C 	0.32592 0.44128 0.24466 0.33500
C 	C 	0.35019 0.40550 0.22153 -0.03000
C 	C 	0.33790 0.39370 0.17940 -0.09500
H 	H 	0.31370 0.40790 0.16550 0.09600
C 	C 	0.33710 0.37790 0.08200 0.14400
C 	C 	0.30350 0.31560 0.03690 0.01800
C 	C 	0.32420 0.35650 0.03860 -0.02600
O 	O 	0.20895 0.95516 0.27236 -0.37500
O 	O 	0.15729 0.95502 0.22016 -0.38600
O 	O 	0.16420 0.91870 0.41460 -0.17000
H 	H 	0.18050 0.84800 0.39260 0.10500
C 	C 	0.17408 0.94128 0.25534 0.33200
C 	C 	0.14981 0.90550 0.27847 -0.02700
C 	C 	0.16210 0.89370 0.32060 -0.09600
H 	H 	0.18630 0.90790 0.33450 0.09900
C 	C 	0.16290 0.87790 0.41800 0.14500
C 	C 	0.19650 0.81560 0.46310 0.02300
C 	C 	0.17580 0.85650 0.46140 -0.02900
O 	O 	0.70895 0.45516 0.77236 -0.38800
O 	O 	0.65729 0.45502 0.72016 -0.39700
O 	O 	0.66420 0.41870 0.91460 -0.16600
H 	H 	0.68050 0.34800 0.89260 0.10400
C 	C 	0.67408 0.44128 0.75534 0.33400
C 	C 	0.64981 0.40550 0.77847 -0.03000
C 	C 	0.66210 0.39370 0.82060 -0.09500
H 	H 	0.68630 0.40790 0.83450 0.09700
C 	C 	0.66290 0.37790 0.91800 0.14200
C 	C 	0.69650 0.31560 0.96310 0.02900
C 	C 	0.67580 0.35650 0.96140 -0.00600
O 	O 	0.79105 0.27236 0.95516 -0.37400
O 	O 	0.84271 0.22016 0.95502 -0.38100
O 	O 	0.83580 0.41460 0.91870 -0.16600
H 	H 	0.81950 0.39260 0.84800 0.10500
C 	C 	0.82592 0.25534 0.94128 0.33100
C 	C 	0.85019 0.27847 0.90550 -0.02200
C 	C 	0.83790 0.32060 0.89370 -0.09800
H 	H 	0.81370 0.33450 0.90790 0.10000
C 	C 	0.83710 0.41800 0.87790 0.14600
C 	C 	0.80350 0.46310 0.81560 0.02200
C 	C 	0.82420 0.46140 0.85650 -0.03100
O 	O 	0.29105 0.77236 0.45516 -0.38800
O 	O 	0.34271 0.72016 0.45502 -0.39700
O 	O 	0.33580 0.91460 0.41870 -0.16600
H 	H 	0.31950 0.89260 0.34800 0.10400
C 	C 	0.32592 0.75534 0.44128 0.33500
C 	C 	0.35019 0.77847 0.40550 -0.02900
C 	C 	0.33790 0.82060 0.39370 -0.09500
H 	H 	0.31370 0.83450 0.40790 0.09700
C 	C 	0.33710 0.91800 0.37790 0.14200
C 	C 	0.30350 0.96310 0.31560 0.02900
C 	C 	0.32420 0.96140 0.35650 -0.00600
O 	O 	0.20895 0.72764 0.95516 -0.37500
O 	O 	0.15729 0.77984 0.95502 -0.38400
O 	O 	0.16420 0.58540 0.91870 -0.17000
H 	H 	0.18050 0.60740 0.84800 0.10500
C 	C 	0.17408 0.74466 0.94128 0.33200
C 	C 	0.14981 0.72153 0.90550 -0.02600
C 	C 	0.16210 0.67940 0.89370 -0.09700
H 	H 	0.18630 0.66550 0.90790 0.09900
C 	C 	0.16290 0.58200 0.87790 0.14500
C 	C 	0.19650 0.53690 0.81560 0.02300
C 	C 	0.17580 0.53860 0.85650 -0.02900
O 	O 	0.70895 0.22764 0.45516 -0.38900
O 	O 	0.65729 0.27984 0.45502 -0.39700
O 	O 	0.66420 0.08540 0.41870 -0.17800
H 	H 	0.68050 0.10740 0.34800 0.10400
C 	C 	0.67408 0.24466 0.44128 0.33500
C 	C 	0.64981 0.22153 0.40550 -0.03000
C 	C 	0.66210 0.17940 0.39370 -0.09500
H 	H 	0.68630 0.16550 0.40790 0.09600
C 	C 	0.66290 0.08200 0.37790 0.14400
C 	C 	0.69650 0.03690 0.31560 0.01800
C 	C 	0.67580 0.03860 0.35650 -0.02600
O 	O 	0.79105 0.72764 0.04484 -0.39400
O 	O 	0.84271 0.77984 0.04498 -0.40100
O 	O 	0.83580 0.58540 0.08130 -0.18100
H 	H 	0.81950 0.60740 0.15200 0.10400
C 	C 	0.82592 0.74466 0.05872 0.33300
C 	C 	0.85019 0.72153 0.09450 -0.03000
C 	C 	0.83790 0.67940 0.10630 -0.09600
H 	H 	0.81370 0.66550 0.09210 0.09500
C 	C 	0.83710 0.58200 0.12210 0.14900
C 	C 	0.80350 0.53690 0.18440 0.02100
C 	C 	0.82420 0.53860 0.14350 -0.03600
O 	O 	0.29105 0.22764 0.54484 -0.38900
O 	O 	0.34271 0.27984 0.54498 -0.39700
O 	O 	0.33580 0.08540 0.58130 -0.17800
H 	H 	0.31950 0.10740 0.65200 0.10400
C 	C 	0.32592 0.24466 0.55872 0.33500
C 	C 	0.35019 0.22153 0.59450 -0.03000
C 	C 	0.33790 0.17940 0.60630 -0.09500
H 	H 	0.31370 0.16550 0.59210 0.09600
C 	C 	0.33710 0.08200 0.62210 0.14400
C 	C 	0.30350 0.03690 0.68440 0.01800
C 	C 	0.32420 0.03860 0.64350 -0.02600
O 	O 	0.20895 0.27236 0.04484 -0.39500
O 	O 	0.15729 0.22016 0.04498 -0.40800
O 	O 	0.16420 0.41460 0.08130 -0.18400
H 	H 	0.18050 0.39260 0.15200 0.10400
C 	C 	0.17408 0.25534 0.05872 0.33500
C 	C 	0.14981 0.27847 0.09450 -0.03600
C 	C 	0.16210 0.32060 0.10630 -0.09400
H 	H 	0.18630 0.33450 0.09210 0.09400
C 	C 	0.16290 0.41800 0.12210 0.14700
C 	C 	0.19650 0.46310 0.18440 0.02200
C 	C 	0.17580 0.46140 0.14350 -0.03500
O 	O 	0.70895 0.77236 0.54484 -0.38800
O 	O 	0.65729 0.72016 0.54498 -0.39700
O 	O 	0.66420 0.91460 0.58130 -0.16600
H 	H 	0.68050 0.89260 0.65200 0.10400
C 	C 	0.67408 0.75534 0.55872 0.33400
C 	C 	0.64981 0.77847 0.59450 -0.03000
C 	C 	0.66210 0.82060 0.60630 -0.09500
H 	H 	0.68630 0.83450 0.59210 0.09700
C 	C 	0.66290 0.91800 0.62210 0.14200
C 	C 	0.69650 0.96310 0.68440 0.02900
C 	C 	0.67580 0.96140 0.64350 -0.00600
O 	O 	0.27236 0.04484 0.20895 -0.39500
O 	O 	0.22016 0.04498 0.15729 -0.40800
O 	O 	0.41460 0.08130 0.16420 -0.18400
H 	H 	0.39260 0.15200 0.18050 0.10400
C 	C 	0.25534 0.05872 0.17408 0.33500
C 	C 	0.27847 0.09450 0.14981 -0.03600
C 	C 	0.32060 0.10630 0.16210 -0.09400
H 	H 	0.33450 0.09210 0.18630 0.09400
C 	C 	0.41800 0.12210 0.16290 0.14700
C 	C 	0.46310 0.18440 0.19650 0.02200
C 	C 	0.46140 0.14350 0.17580 -0.03500
O 	O 	0.77236 0.54484 0.70895 -0.38800
O 	O 	0.72016 0.54498 0.65729 -0.39700
O 	O 	0.91460 0.58130 0.66420 -0.16600
H 	H 	0.89260 0.65200 0.68050 0.10400
C 	C 	0.75534 0.55872 0.67408 0.33400
C 	C 	0.77847 0.59450 0.64981 -0.03000
C 	C 	0.82060 0.60630 0.66210 -0.09500
H 	H 	0.83450 0.59210 0.68630 0.09700
C 	C 	0.91800 0.62210 0.66290 0.14200
C 	C 	0.96310 0.68440 0.69650 0.02900
C 	C 	0.96140 0.64350 0.67580 -0.00600
O 	O 	0.72764 0.04484 0.79105 -0.39400
O 	O 	0.77984 0.04498 0.84271 -0.40100
O 	O 	0.58540 0.08130 0.83580 -0.18100
H 	H 	0.60740 0.15200 0.81950 0.10400
C 	C 	0.74466 0.05872 0.82592 0.33300
C 	C 	0.72153 0.09450 0.85019 -0.03000
C 	C 	0.67940 0.10630 0.83790 -0.09600
H 	H 	0.66550 0.09210 0.81370 0.09500
C 	C 	0.58200 0.12210 0.83710 0.14900
C 	C 	0.53690 0.18440 0.80350 0.02100
C 	C 	0.53860 0.14350 0.82420 -0.03600
O 	O 	0.22764 0.54484 0.29105 -0.38900
O 	O 	0.27984 0.54498 0.34271 -0.39700
O 	O 	0.08540 0.58130 0.33580 -0.17800
H 	H 	0.10740 0.65200 0.31950 0.10400
C 	C 	0.24466 0.55872 0.32592 0.33500
C 	C 	0.22153 0.59450 0.35019 -0.03000
C 	C 	0.17940 0.60630 0.33790 -0.09500
H 	H 	0.16550 0.59210 0.31370 0.09600
C 	C 	0.08200 0.62210 0.33710 0.14400
C 	C 	0.03690 0.68440 0.30350 0.01800
C 	C 	0.03860 0.64350 0.32420 -0.02600
O 	O 	0.72764 0.95516 0.20895 -0.37500
O 	O 	0.77984 0.95502 0.15729 -0.38400
O 	O 	0.58540 0.91870 0.16420 -0.17000
H 	H 	0.60740 0.84800 0.18050 0.10500
C 	C 	0.74466 0.94128 0.17408 0.33200
C 	C 	0.72153 0.90550 0.14981 -0.02600
C 	C 	0.67940 0.89370 0.16210 -0.09700
H 	H 	0.66550 0.90790 0.18630 0.09900
C 	C 	0.58200 0.87790 0.16290 0.14500
C 	C 	0.53690 0.81560 0.19650 0.02300
C 	C 	0.53860 0.85650 0.17580 -0.02900
O 	O 	0.22764 0.45516 0.70895 -0.38900
O 	O 	0.27984 0.45502 0.65729 -0.39700
O 	O 	0.08540 0.41870 0.66420 -0.17800
H 	H 	0.10740 0.34800 0.68050 0.10400
C 	C 	0.24466 0.44128 0.67408 0.33500
C 	C 	0.22153 0.40550 0.64981 -0.03000
C 	C 	0.17940 0.39370 0.66210 -0.09500
H 	H 	0.16550 0.40790 0.68630 0.09600
C 	C 	0.08200 0.37790 0.66290 0.14400
C 	C 	0.03690 0.31560 0.69650 0.01800
C 	C 	0.03860 0.35650 0.67580 -0.02600
O 	O 	0.27236 0.95516 0.79105 -0.37400
O 	O 	0.22016 0.95502 0.84271 -0.38100
O 	O 	0.41460 0.91870 0.83580 -0.16600
H 	H 	0.39260 0.84800 0.81950 0.10500
C 	C 	0.25534 0.94128 0.82592 0.33100
C 	C 	0.27847 0.90550 0.85019 -0.02200
C 	C 	0.32060 0.89370 0.83790 -0.09800
H 	H 	0.33450 0.90790 0.81370 0.10000
C 	C 	0.41800 0.87790 0.83710 0.14600
C 	C 	0.46310 0.81560 0.80350 0.02200
C 	C 	0.46140 0.85650 0.82420 -0.03100
O 	O 	0.77236 0.45516 0.29105 -0.38800
O 	O 	0.72016 0.45502 0.34271 -0.39700
O 	O 	0.91460 0.41870 0.33580 -0.16600
H 	H 	0.89260 0.34800 0.31950 0.10400
C 	C 	0.75534 0.44128 0.32592 0.33500
C 	C 	0.77847 0.40550 0.35019 -0.02900
C 	C 	0.82060 0.39370 0.33790 -0.09500
H 	H 	0.83450 0.40790 0.31370 0.09700
C 	C 	0.91800 0.37790 0.33710 0.14200
C 	C 	0.96310 0.31560 0.30350 0.02900
C 	C 	0.96140 0.35650 0.32420 -0.00600
O 	O 	0.04484 0.79105 0.72764 -0.39400
O 	O 	0.04498 0.84271 0.77984 -0.40100
O 	O 	0.08130 0.83580 0.58540 -0.18100
H 	H 	0.15200 0.81950 0.60740 0.10400
C 	C 	0.05872 0.82592 0.74466 0.33300
C 	C 	0.09450 0.85019 0.72153 -0.03000
C 	C 	0.10630 0.83790 0.67940 -0.09600
H 	H 	0.09210 0.81370 0.66550 0.09500
C 	C 	0.12210 0.83710 0.58200 0.14900
C 	C 	0.18440 0.80350 0.53690 0.02100
C 	C 	0.14350 0.82420 0.53860 -0.03600
O 	O 	0.54484 0.29105 0.22764 -0.38900
O 	O 	0.54498 0.34271 0.27984 -0.39700
O 	O 	0.58130 0.33580 0.08540 -0.17800
H 	H 	0.65200 0.31950 0.10740 0.10400
C 	C 	0.55872 0.32592 0.24466 0.33500
C 	C 	0.59450 0.35019 0.22153 -0.03000
C 	C 	0.60630 0.33790 0.17940 -0.09500
H 	H 	0.59210 0.31370 0.16550 0.09600
C 	C 	0.62210 0.33710 0.08200 0.14400
C 	C 	0.68440 0.30350 0.03690 0.01800
C 	C 	0.64350 0.32420 0.03860 -0.02600
O 	O 	0.04484 0.20895 0.27236 -0.39500
O 	O 	0.04498 0.15729 0.22016 -0.40800
O 	O 	0.08130 0.16420 0.41460 -0.18400
H 	H 	0.15200 0.18050 0.39260 0.10400
C 	C 	0.05872 0.17408 0.25534 0.33500
C 	C 	0.09450 0.14981 0.27847 -0.03600
C 	C 	0.10630 0.16210 0.32060 -0.09400
H 	H 	0.09210 0.18630 0.33450 0.09400
C 	C 	0.12210 0.16290 0.41800 0.14700
C 	C 	0.18440 0.19650 0.46310 0.02200
C 	C 	0.14350 0.17580 0.46140 -0.03500
O 	O 	0.54484 0.70895 0.77236 -0.38800
O 	O 	0.54498 0.65729 0.72016 -0.39700
O 	O 	0.58130 0.66420 0.91460 -0.16600
H 	H 	0.65200 0.68050 0.89260 0.10400
C 	C 	0.55872 0.67408 0.75534 0.33400
C 	C 	0.59450 0.64981 0.77847 -0.03000
C 	C 	0.60630 0.66210 0.82060 -0.09500
H 	H 	0.59210 0.68630 0.83450 0.09700
C 	C 	0.62210 0.66290 0.91800 0.14200
C 	C 	0.68440 0.69650 0.96310 0.02900
C 	C 	0.64350 0.67580 0.96140 -0.00600
O 	O 	0.95516 0.79105 0.27236 -0.37400
O 	O 	0.95502 0.84271 0.22016 -0.38100
O 	O 	0.91870 0.83580 0.41460 -0.16600
H 	H 	0.84800 0.81950 0.39260 0.10500
C 	C 	0.94128 0.82592 0.25534 0.33100
C 	C 	0.90550 0.85019 0.27847 -0.02200
C 	C 	0.89370 0.83790 0.32060 -0.09800
H 	H 	0.90790 0.81370 0.33450 0.10000
C 	C 	0.87790 0.83710 0.41800 0.14600
C 	C 	0.81560 0.80350 0.46310 0.02200
C 	C 	0.85650 0.82420 0.46140 -0.03100
O 	O 	0.45516 0.29105 0.77236 -0.38800
O 	O 	0.45502 0.34271 0.72016 -0.39700
O 	O 	0.41870 0.33580 0.91460 -0.16600
H 	H 	0.34800 0.31950 0.89260 0.10400
C 	C 	0.44128 0.32592 0.75534 0.33500
C 	C 	0.40550 0.35019 0.77847 -0.02900
C 	C 	0.39370 0.33790 0.82060 -0.09500
H 	H 	0.40790 0.31370 0.83450 0.09700
C 	C 	0.37790 0.33710 0.91800 0.14200
C 	C 	0.31560 0.30350 0.96310 0.02900
C 	C 	0.35650 0.32420 0.96140 -0.00600
O 	O 	0.95516 0.20895 0.72764 -0.37500
O 	O 	0.95502 0.15729 0.77984 -0.38400
O 	O 	0.91870 0.16420 0.58540 -0.17000
H 	H 	0.84800 0.18050 0.60740 0.10500
C 	C 	0.94128 0.17408 0.74466 0.33200
C 	C 	0.90550 0.14981 0.72153 -0.02600
C 	C 	0.89370 0.16210 0.67940 -0.09700
H 	H 	0.90790 0.18630 0.66550 0.09900
C 	C 	0.87790 0.16290 0.58200 0.14500
C 	C 	0.81560 0.19650 0.53690 0.02300
C 	C 	0.85650 0.17580 0.53860 -0.02900
O 	O 	0.45516 0.70895 0.22764 -0.38900
O 	O 	0.45502 0.65729 0.27984 -0.39700
O 	O 	0.41870 0.66420 0.08540 -0.17800
H 	H 	0.34800 0.68050 0.10740 0.10400
C 	C 	0.44128 0.67408 0.24466 0.33500
C 	C 	0.40550 0.64981 0.22153 -0.03000
C 	C 	0.39370 0.66210 0.17940 -0.09500
H 	H 	0.40790 0.68630 0.16550 0.09600
C 	C 	0.37790 0.66290 0.08200 0.14400
C 	C 	0.31560 0.69650 0.03690 0.01800
C 	C 	0.35650 0.67580 0.03860 -0.02600
O 	O 	0.72764 0.20895 0.95516 -0.37500
O 	O 	0.77984 0.15729 0.95502 -0.38400
O 	O 	0.58540 0.16420 0.91870 -0.17000
H 	H 	0.60740 0.18050 0.84800 0.10500
C 	C 	0.74466 0.17408 0.94128 0.33200
C 	C 	0.72153 0.14981 0.90550 -0.02600
C 	C 	0.67940 0.16210 0.89370 -0.09700
H 	H 	0.66550 0.18630 0.90790 0.09900
C 	C 	0.58200 0.16290 0.87790 0.14500
C 	C 	0.53690 0.19650 0.81560 0.02300
C 	C 	0.53860 0.17580 0.85650 -0.02900
O 	O 	0.22764 0.70895 0.45516 -0.38900
O 	O 	0.27984 0.65729 0.45502 -0.39700
O 	O 	0.08540 0.66420 0.41870 -0.17800
H 	H 	0.10740 0.68050 0.34800 0.10400
C 	C 	0.24466 0.67408 0.44128 0.33500
C 	C 	0.22153 0.64981 0.40550 -0.03000
C 	C 	0.17940 0.66210 0.39370 -0.09500
H 	H 	0.16550 0.68630 0.40790 0.09600
C 	C 	0.08200 0.66290 0.37790 0.14400
C 	C 	0.03690 0.69650 0.31560 0.01800
C 	C 	0.03860 0.67580 0.35650 -0.02600
O 	O 	0.27236 0.79105 0.95516 -0.37400
O 	O 	0.22016 0.84271 0.95502 -0.38100
O 	O 	0.41460 0.83580 0.91870 -0.16600
H 	H 	0.39260 0.81950 0.84800 0.10500
C 	C 	0.25534 0.82592 0.94128 0.33100
C 	C 	0.27847 0.85019 0.90550 -0.02200
C 	C 	0.32060 0.83790 0.89370 -0.09800
H 	H 	0.33450 0.81370 0.90790 0.10000
C 	C 	0.41800 0.83710 0.87790 0.14600
C 	C 	0.46310 0.80350 0.81560 0.02200
C 	C 	0.46140 0.82420 0.85650 -0.03100
O 	O 	0.77236 0.29105 0.45516 -0.38800
O 	O 	0.72016 0.34271 0.45502 -0.39700
O 	O 	0.91460 0.33580 0.41870 -0.16600
H 	H 	0.89260 0.31950 0.34800 0.10400
C 	C 	0.75534 0.32592 0.44128 0.33500
C 	C 	0.77847 0.35019 0.40550 -0.02900
C 	C 	0.82060 0.33790 0.39370 -0.09500
H 	H 	0.83450 0.31370 0.40790 0.09700
C 	C 	0.91800 0.33710 0.37790 0.14200
C 	C 	0.96310 0.30350 0.31560 0.02900
C 	C 	0.96140 0.32420 0.35650 -0.00600
O 	O 	0.27236 0.20895 0.04484 -0.39500
O 	O 	0.22016 0.15729 0.04498 -0.40800
O 	O 	0.41460 0.16420 0.08130 -0.18400
H 	H 	0.39260 0.18050 0.15200 0.10400
C 	C 	0.25534 0.17408 0.05872 0.33500
C 	C 	0.27847 0.14981 0.09450 -0.03600
C 	C 	0.32060 0.16210 0.10630 -0.09400
H 	H 	0.33450 0.18630 0.09210 0.09400
C 	C 	0.41800 0.16290 0.12210 0.14700
C 	C 	0.46310 0.19650 0.18440 0.02200
C 	C 	0.46140 0.17580 0.14350 -0.03500
O 	O 	0.77236 0.70895 0.54484 -0.38800
O 	O 	0.72016 0.65729 0.54498 -0.39700
O 	O 	0.91460 0.66420 0.58130 -0.16600
H 	H 	0.89260 0.68050 0.65200 0.10400
C 	C 	0.75534 0.67408 0.55872 0.33400
C 	C 	0.77847 0.64981 0.59450 -0.03000
C 	C 	0.82060 0.66210 0.60630 -0.09500
H 	H 	0.83450 0.68630 0.59210 0.09700
C 	C 	0.91800 0.66290 0.62210 0.14200
C 	C 	0.96310 0.69650 0.68440 0.02900
C 	C 	0.96140 0.67580 0.64350 -0.00600
O 	O 	0.72764 0.79105 0.04484 -0.39400
O 	O 	0.77984 0.84271 0.04498 -0.40100
O 	O 	0.58540 0.83580 0.08130 -0.18100
H 	H 	0.60740 0.81950 0.15200 0.10400
C 	C 	0.74466 0.82592 0.05872 0.33300
C 	C 	0.72153 0.85019 0.09450 -0.03000
C 	C 	0.67940 0.83790 0.10630 -0.09600
H 	H 	0.66550 0.81370 0.09210 0.09500
C 	C 	0.58200 0.83710 0.12210 0.14900
C 	C 	0.53690 0.80350 0.18440 0.02100
C 	C 	0.53860 0.82420 0.14350 -0.03600
O 	O 	0.22764 0.29105 0.54484 -0.38900
O 	O 	0.27984 0.34271 0.54498 -0.39700
O 	O 	0.08540 0.33580 0.58130 -0.17800
H 	H 	0.10740 0.31950 0.65200 0.10400
C 	C 	0.24466 0.32592 0.55872 0.33500
C 	C 	0.22153 0.35019 0.59450 -0.03000
C 	C 	0.17940 0.33790 0.60630 -0.09500
H 	H 	0.16550 0.31370 0.59210 0.09600
C 	C 	0.08200 0.33710 0.62210 0.14400
C 	C 	0.03690 0.30350 0.68440 0.01800
C 	C 	0.03860 0.32420 0.64350 -0.02600
O 	O 	0.95516 0.72764 0.20895 -0.37500
O 	O 	0.95502 0.77984 0.15729 -0.38400
O 	O 	0.91870 0.58540 0.16420 -0.17000
H 	H 	0.84800 0.60740 0.18050 0.10500
C 	C 	0.94128 0.74466 0.17408 0.33200
C 	C 	0.90550 0.72153 0.14981 -0.02600
C 	C 	0.89370 0.67940 0.16210 -0.09700
H 	H 	0.90790 0.66550 0.18630 0.09900
C 	C 	0.87790 0.58200 0.16290 0.14500
C 	C 	0.81560 0.53690 0.19650 0.02300
C 	C 	0.85650 0.53860 0.17580 -0.02900
O 	O 	0.45516 0.22764 0.70895 -0.38900
O 	O 	0.45502 0.27984 0.65729 -0.39700
O 	O 	0.41870 0.08540 0.66420 -0.17800
H 	H 	0.34800 0.10740 0.68050 0.10400
C 	C 	0.44128 0.24466 0.67408 0.33500
C 	C 	0.40550 0.22153 0.64981 -0.03000
C 	C 	0.39370 0.17940 0.66210 -0.09500
H 	H 	0.40790 0.16550 0.68630 0.09600
C 	C 	0.37790 0.08200 0.66290 0.14400
C 	C 	0.31560 0.03690 0.69650 0.01800
C 	C 	0.35650 0.03860 0.67580 -0.02600
O 	O 	0.95516 0.27236 0.79105 -0.37400
O 	O 	0.95502 0.22016 0.84271 -0.38100
O 	O 	0.91870 0.41460 0.83580 -0.16600
H 	H 	0.84800 0.39260 0.81950 0.10500
C 	C 	0.94128 0.25534 0.82592 0.33100
C 	C 	0.90550 0.27847 0.85019 -0.02200
C 	C 	0.89370 0.32060 0.83790 -0.09800
H 	H 	0.90790 0.33450 0.81370 0.10000
C 	C 	0.87790 0.41800 0.83710 0.14600
C 	C 	0.81560 0.46310 0.80350 0.02200
C 	C 	0.85650 0.46140 0.82420 -0.03100
O 	O 	0.45516 0.77236 0.29105 -0.38800
O 	O 	0.45502 0.72016 0.34271 -0.39700
O 	O 	0.41870 0.91460 0.33580 -0.16600
H 	H 	0.34800 0.89260 0.31950 0.10400
C 	C 	0.44128 0.75534 0.32592 0.33500
C 	C 	0.40550 0.77847 0.35019 -0.02900
C 	C 	0.39370 0.82060 0.33790 -0.09500
H 	H 	0.40790 0.83450 0.31370 0.09700
C 	C 	0.37790 0.91800 0.33710 0.14200
C 	C 	0.31560 0.96310 0.30350 0.02900
C 	C 	0.35650 0.96140 0.32420 -0.00600
O 	O 	0.04484 0.27236 0.20895 -0.39500
O 	O 	0.04498 0.22016 0.15729 -0.40800
O 	O 	0.08130 0.41460 0.16420 -0.18400
H 	H 	0.15200 0.39260 0.18050 0.10400
C 	C 	0.05872 0.25534 0.17408 0.33500
C 	C 	0.09450 0.27847 0.14981 -0.03600
C 	C 	0.10630 0.32060 0.16210 -0.09400
H 	H 	0.09210 0.33450 0.18630 0.09400
C 	C 	0.12210 0.41800 0.16290 0.14700
C 	C 	0.18440 0.46310 0.19650 0.02200
C 	C 	0.14350 0.46140 0.17580 -0.03500
O 	O 	0.54484 0.77236 0.70895 -0.38800
O 	O 	0.54498 0.72016 0.65729 -0.39700
O 	O 	0.58130 0.91460 0.66420 -0.16600
H 	H 	0.65200 0.89260 0.68050 0.10400
C 	C 	0.55872 0.75534 0.67408 0.33400
C 	C 	0.59450 0.77847 0.64981 -0.03000
C 	C 	0.60630 0.82060 0.66210 -0.09500
H 	H 	0.59210 0.83450 0.68630 0.09700
C 	C 	0.62210 0.91800 0.66290 0.14200
C 	C 	0.68440 0.96310 0.69650 0.02900
C 	C 	0.64350 0.96140 0.67580 -0.00600
O 	O 	0.04484 0.72764 0.79105 -0.39400
O 	O 	0.04498 0.77984 0.84271 -0.40100
O 	O 	0.08130 0.58540 0.83580 -0.18100
H 	H 	0.15200 0.60740 0.81950 0.10400
C 	C 	0.05872 0.74466 0.82592 0.33300
C 	C 	0.09450 0.72153 0.85019 -0.03000
C 	C 	0.10630 0.67940 0.83790 -0.09600
H 	H 	0.09210 0.66550 0.81370 0.09500
C 	C 	0.12210 0.58200 0.83710 0.14900
C 	C 	0.18440 0.53690 0.80350 0.02100
C 	C 	0.14350 0.53860 0.82420 -0.03600
O 	O 	0.54484 0.22764 0.29105 -0.38900
O 	O 	0.54498 0.27984 0.34271 -0.39700
O 	O 	0.58130 0.08540 0.33580 -0.17800
H 	H 	0.65200 0.10740 0.31950 0.10400
C 	C 	0.55872 0.24466 0.32592 0.33500
C 	C 	0.59450 0.22153 0.35019 -0.03000
C 	C 	0.60630 0.17940 0.33790 -0.09500
H 	H 	0.59210 0.16550 0.31370 0.09600
C 	C 	0.62210 0.08200 0.33710 0.14400
C 	C 	0.68440 0.03690 0.30350 0.01800
C 	C 	0.64350 0.03860 0.32420 -0.02600
O 	O 	0.20895 0.95516 0.72764 -0.37500
O 	O 	0.15729 0.95502 0.77984 -0.38400
O 	O 	0.16420 0.91870 0.58540 -0.17000
H 	H 	0.18050 0.84800 0.60740 0.10500
C 	C 	0.17408 0.94128 0.74466 0.33200
C 	C 	0.14981 0.90550 0.72153 -0.02600
C 	C 	0.16210 0.89370 0.67940 -0.09700
H 	H 	0.18630 0.90790 0.66550 0.09900
C 	C 	0.16290 0.87790 0.58200 0.14500
C 	C 	0.19650 0.81560 0.53690 0.02300
C 	C 	0.17580 0.85650 0.53860 -0.02900
O 	O 	0.70895 0.45516 0.22764 -0.38900
O 	O 	0.65729 0.45502 0.27984 -0.39700
O 	O 	0.66420 0.41870 0.08540 -0.17800
H 	H 	0.68050 0.34800 0.10740 0.10400
C 	C 	0.67408 0.44128 0.24466 0.33500
C 	C 	0.64981 0.40550 0.22153 -0.03000
C 	C 	0.66210 0.39370 0.17940 -0.09500
H 	H 	0.68630 0.40790 0.16550 0.09600
C 	C 	0.66290 0.37790 0.08200 0.14400
C 	C 	0.69650 0.31560 0.03690 0.01800
C 	C 	0.67580 0.35650 0.03860 -0.02600
O 	O 	0.79105 0.95516 0.27236 -0.37400
O 	O 	0.84271 0.95502 0.22016 -0.38100
O 	O 	0.83580 0.91870 0.41460 -0.16600
H 	H 	0.81950 0.84800 0.39260 0.10500
C 	C 	0.82592 0.94128 0.25534 0.33100
C 	C 	0.85019 0.90550 0.27847 -0.02200
C 	C 	0.83790 0.89370 0.32060 -0.09800
H 	H 	0.81370 0.90790 0.33450 0.10000
C 	C 	0.83710 0.87790 0.41800 0.14600
C 	C 	0.80350 0.81560 0.46310 0.02200
C 	C 	0.82420 0.85650 0.46140 -0.03100
O 	O 	0.29105 0.45516 0.77236 -0.38800
O 	O 	0.34271 0.45502 0.72016 -0.39700
O 	O 	0.33580 0.41870 0.91460 -0.16600
H 	H 	0.31950 0.34800 0.89260 0.10400
C 	C 	0.32592 0.44128 0.75534 0.33500
C 	C 	0.35019 0.40550 0.77847 -0.02900
C 	C 	0.33790 0.39370 0.82060 -0.09500
H 	H 	0.31370 0.40790 0.83450 0.09700
C 	C 	0.33710 0.37790 0.91800 0.14200
C 	C 	0.30350 0.31560 0.96310 0.02900
C 	C 	0.32420 0.35650 0.96140 -0.00600
O 	O 	0.20895 0.04484 0.27236 -0.39500
O 	O 	0.15729 0.04498 0.22016 -0.40800
O 	O 	0.16420 0.08130 0.41460 -0.18400
H 	H 	0.18050 0.15200 0.39260 0.10400
C 	C 	0.17408 0.05872 0.25534 0.33500
C 	C 	0.14981 0.09450 0.27847 -0.03600
C 	C 	0.16210 0.10630 0.32060 -0.09400
H 	H 	0.18630 0.09210 0.33450 0.09400
C 	C 	0.16290 0.12210 0.41800 0.14700
C 	C 	0.19650 0.18440 0.46310 0.02200
C 	C 	0.17580 0.14350 0.46140 -0.03500
O 	O 	0.70895 0.54484 0.77236 -0.38800
O 	O 	0.65729 0.54498 0.72016 -0.39700
O 	O 	0.66420 0.58130 0.91460 -0.16600
H 	H 	0.68050 0.65200 0.89260 0.10400
C 	C 	0.67408 0.55872 0.75534 0.33400
C 	C 	0.64981 0.59450 0.77847 -0.03000
C 	C 	0.66210 0.60630 0.82060 -0.09500
H 	H 	0.68630 0.59210 0.83450 0.09700
C 	C 	0.66290 0.62210 0.91800 0.14200
C 	C 	0.69650 0.68440 0.96310 0.02900
C 	C 	0.67580 0.64350 0.96140 -0.00600
O 	O 	0.79105 0.04484 0.72764 -0.39400
O 	O 	0.84271 0.04498 0.77984 -0.40100
O 	O 	0.83580 0.08130 0.58540 -0.18100
H 	H 	0.81950 0.15200 0.60740 0.10400
C 	C 	0.82592 0.05872 0.74466 0.33300
C 	C 	0.85019 0.09450 0.72153 -0.03000
C 	C 	0.83790 0.10630 0.67940 -0.09600
H 	H 	0.81370 0.09210 0.66550 0.09500
C 	C 	0.83710 0.12210 0.58200 0.14900
C 	C 	0.80350 0.18440 0.53690 0.02100
C 	C 	0.82420 0.14350 0.53860 -0.03600
O 	O 	0.29105 0.54484 0.22764 -0.38900
O 	O 	0.34271 0.54498 0.27984 -0.39700
O 	O 	0.33580 0.58130 0.08540 -0.17800
H 	H 	0.31950 0.65200 0.10740 0.10400
C 	C 	0.32592 0.55872 0.24466 0.33500
C 	C 	0.35019 0.59450 0.22153 -0.03000
C 	C 	0.33790 0.60630 0.17940 -0.09500
H 	H 	0.31370 0.59210 0.16550 0.09600
C 	C 	0.33710 0.62210 0.08200 0.14400
C 	C 	0.30350 0.68440 0.03690 0.01800
C 	C 	0.32420 0.64350 0.03860 -0.02600
O 	O 	0.20895 0.72764 0.04484 -0.39500
O 	O 	0.15729 0.77984 0.04498 -0.40600
O 	O 	0.16420 0.58540 0.08130 -0.18400
H 	H 	0.18050 0.60740 0.15200 0.10400
C 	C 	0.17408 0.74466 0.05872 0.33400
C 	C 	0.14981 0.72153 0.09450 -0.03500
C 	C 	0.16210 0.67940 0.10630 -0.09500
H 	H 	0.18630 0.66550 0.09210 0.09400
C 	C 	0.16290 0.58200 0.12210 0.14700
C 	C 	0.19650 0.53690 0.18440 0.02200
C 	C 	0.17580 0.53860 0.14350 -0.03500
O 	O 	0.70895 0.22764 0.54484 -0.38900
O 	O 	0.65729 0.27984 0.54498 -0.39700
O 	O 	0.66420 0.08540 0.58130 -0.17800
H 	H 	0.68050 0.10740 0.65200 0.10400
C 	C 	0.67408 0.24466 0.55872 0.33500
C 	C 	0.64981 0.22153 0.59450 -0.03100
C 	C 	0.66210 0.17940 0.60630 -0.09500
H 	H 	0.68630 0.16550 0.59210 0.09600
C 	C 	0.66290 0.08200 0.62210 0.14400
C 	C 	0.69650 0.03690 0.68440 0.01800
C 	C 	0.67580 0.03860 0.64350 -0.02600
O 	O 	0.79105 0.27236 0.04484 -0.39400
O 	O 	0.84271 0.22016 0.04498 -0.40300
O 	O 	0.83580 0.41460 0.08130 -0.18100
H 	H 	0.81950 0.39260 0.15200 0.10400
C 	C 	0.82592 0.25534 0.05872 0.33400
C 	C 	0.85019 0.27847 0.09450 -0.03100
C 	C 	0.83790 0.32060 0.10630 -0.09600
H 	H 	0.81370 0.33450 0.09210 0.09500
C 	C 	0.83710 0.41800 0.12210 0.14900
C 	C 	0.80350 0.46310 0.18440 0.02100
C 	C 	0.82420 0.46140 0.14350 -0.03600
O 	O 	0.29105 0.77236 0.54484 -0.38800
O 	O 	0.34271 0.72016 0.54498 -0.39700
O 	O 	0.33580 0.91460 0.58130 -0.16600
H 	H 	0.31950 0.89260 0.65200 0.10400
C 	C 	0.32592 0.75534 0.55872 0.33500
C 	C 	0.35019 0.77847 0.59450 -0.02900
C 	C 	0.33790 0.82060 0.60630 -0.09500
H 	H 	0.31370 0.83450 0.59210 0.09700
C 	C 	0.33710 0.91800 0.62210 0.14300
C 	C 	0.30350 0.96310 0.68440 0.02900
C 	C 	0.32420 0.96140 0.64350 -0.00600
O 	O 	0.20895 0.27236 0.95516 -0.37500
O 	O 	0.15729 0.22016 0.95502 -0.38600
O 	O 	0.16420 0.41460 0.91870 -0.17000
H 	H 	0.18050 0.39260 0.84800 0.10500
C 	C 	0.17408 0.25534 0.94128 0.33200
C 	C 	0.14981 0.27847 0.90550 -0.02700
C 	C 	0.16210 0.32060 0.89370 -0.09600
H 	H 	0.18630 0.33450 0.90790 0.09900
C 	C 	0.16290 0.41800 0.87790 0.14500
C 	C 	0.19650 0.46310 0.81560 0.02300
C 	C 	0.17580 0.46140 0.85650 -0.02900
O 	O 	0.70895 0.77236 0.45516 -0.38800
O 	O 	0.65729 0.72016 0.45502 -0.39700
O 	O 	0.66420 0.91460 0.41870 -0.16600
H 	H 	0.68050 0.89260 0.34800 0.10400
C 	C 	0.67408 0.75534 0.44128 0.33400
C 	C 	0.64981 0.77847 0.40550 -0.03000
C 	C 	0.66210 0.82060 0.39370 -0.09500
H 	H 	0.68630 0.83450 0.40790 0.09700
C 	C 	0.66290 0.91800 0.37790 0.14200
C 	C 	0.69650 0.96310 0.31560 0.02900
C 	C 	0.67580 0.96140 0.35650 -0.00600
O 	O 	0.79105 0.72764 0.95516 -0.37400
O 	O 	0.84271 0.77984 0.95502 -0.38000
O 	O 	0.83580 0.58540 0.91870 -0.16600
H 	H 	0.81950 0.60740 0.84800 0.10500
C 	C 	0.82592 0.74466 0.94128 0.33100
C 	C 	0.85019 0.72153 0.90550 -0.02100
C 	C 	0.83790 0.67940 0.89370 -0.09800
H 	H 	0.81370 0.66550 0.90790 0.10000
C 	C 	0.83710 0.58200 0.87790 0.14600
C 	C 	0.80350 0.53690 0.81560 0.02200
C 	C 	0.82420 0.53860 0.85650 -0.03100
O 	O 	0.29105 0.22764 0.45516 -0.38900
O 	O 	0.34271 0.27984 0.45502 -0.39700
O 	O 	0.33580 0.08540 0.41870 -0.17800
H 	H 	0.31950 0.10740 0.34800 0.10400
C 	C 	0.32592 0.24466 0.44128 0.33500
C 	C 	0.35019 0.22153 0.40550 -0.03000
C 	C 	0.33790 0.17940 0.39370 -0.09500
H 	H 	0.31370 0.16550 0.40790 0.09600
C 	C 	0.33710 0.08200 0.37790 0.14400
C 	C 	0.30350 0.03690 0.31560 0.01800
C 	C 	0.32420 0.03860 0.35650 -0.02600
O 	O 	0.72764 0.95516 0.79105 -0.37400
O 	O 	0.77984 0.95502 0.84271 -0.38000
O 	O 	0.58540 0.91870 0.83580 -0.16600
H 	H 	0.60740 0.84800 0.81950 0.10500
C 	C 	0.74466 0.94128 0.82592 0.33100
C 	C 	0.72153 0.90550 0.85019 -0.02100
C 	C 	0.67940 0.89370 0.83790 -0.09800
H 	H 	0.66550 0.90790 0.81370 0.10000
C 	C 	0.58200 0.87790 0.83710 0.14600
C 	C 	0.53690 0.81560 0.80350 0.02200
C 	C 	0.53860 0.85650 0.82420 -0.03100
O 	O 	0.22764 0.45516 0.29105 -0.38900
O 	O 	0.27984 0.45502 0.34271 -0.39700
O 	O 	0.08540 0.41870 0.33580 -0.17800
H 	H 	0.10740 0.34800 0.31950 0.10400
C 	C 	0.24466 0.44128 0.32592 0.33500
C 	C 	0.22153 0.40550 0.35019 -0.03000
C 	C 	0.17940 0.39370 0.33790 -0.09500
H 	H 	0.16550 0.40790 0.31370 0.09600
C 	C 	0.08200 0.37790 0.33710 0.14400
C 	C 	0.03690 0.31560 0.30350 0.01800
C 	C 	0.03860 0.35650 0.32420 -0.02600
O 	O 	0.27236 0.95516 0.20895 -0.37500
O 	O 	0.22016 0.95502 0.15729 -0.38600
O 	O 	0.41460 0.91870 0.16420 -0.17000
H 	H 	0.39260 0.84800 0.18050 0.10500
C 	C 	0.25534 0.94128 0.17408 0.33200
C 	C 	0.27847 0.90550 0.14981 -0.02700
C 	C 	0.32060 0.89370 0.16210 -0.09600
H 	H 	0.33450 0.90790 0.18630 0.09900
C 	C 	0.41800 0.87790 0.16290 0.14500
C 	C 	0.46310 0.81560 0.19650 0.02300
C 	C 	0.46140 0.85650 0.17580 -0.02900
O 	O 	0.77236 0.45516 0.70895 -0.38800
O 	O 	0.72016 0.45502 0.65729 -0.39700
O 	O 	0.91460 0.41870 0.66420 -0.16600
H 	H 	0.89260 0.34800 0.68050 0.10400
C 	C 	0.75534 0.44128 0.67408 0.33400
C 	C 	0.77847 0.40550 0.64981 -0.03000
C 	C 	0.82060 0.39370 0.66210 -0.09500
H 	H 	0.83450 0.40790 0.68630 0.09700
C 	C 	0.91800 0.37790 0.66290 0.14200
C 	C 	0.96310 0.31560 0.69650 0.02900
C 	C 	0.96140 0.35650 0.67580 -0.00600
O 	O 	0.27236 0.04484 0.79105 -0.39400
O 	O 	0.22016 0.04498 0.84271 -0.40300
O 	O 	0.41460 0.08130 0.83580 -0.18100
H 	H 	0.39260 0.15200 0.81950 0.10400
C 	C 	0.25534 0.05872 0.82592 0.33400
C 	C 	0.27847 0.09450 0.85019 -0.03100
C 	C 	0.32060 0.10630 0.83790 -0.09600
H 	H 	0.33450 0.09210 0.81370 0.09500
C 	C 	0.41800 0.12210 0.83710 0.14900
C 	C 	0.46310 0.18440 0.80350 0.02100
C 	C 	0.46140 0.14350 0.82420 -0.03600
O 	O 	0.77236 0.54484 0.29105 -0.38800
O 	O 	0.72016 0.54498 0.34271 -0.39700
O 	O 	0.91460 0.58130 0.33580 -0.16600
H 	H 	0.89260 0.65200 0.31950 0.10400
C 	C 	0.75534 0.55872 0.32592 0.33500
C 	C 	0.77847 0.59450 0.35019 -0.02900
C 	C 	0.82060 0.60630 0.33790 -0.09500
H 	H 	0.83450 0.59210 0.31370 0.09700
C 	C 	0.91800 0.62210 0.33710 0.14300
C 	C 	0.96310 0.68440 0.30350 0.02900
C 	C 	0.96140 0.64350 0.32420 -0.00600
O 	O 	0.72764 0.04484 0.20895 -0.39500
O 	O 	0.77984 0.04498 0.15729 -0.40600
O 	O 	0.58540 0.08130 0.16420 -0.18400
H 	H 	0.60740 0.15200 0.18050 0.10400
C 	C 	0.74466 0.05872 0.17408 0.33400
C 	C 	0.72153 0.09450 0.14981 -0.03500
C 	C 	0.67940 0.10630 0.16210 -0.09500
H 	H 	0.66550 0.09210 0.18630 0.09400
C 	C 	0.58200 0.12210 0.16290 0.14700
C 	C 	0.53690 0.18440 0.19650 0.02200
C 	C 	0.53860 0.14350 0.17580 -0.03500
O 	O 	0.22764 0.54484 0.70895 -0.38900
O 	O 	0.27984 0.54498 0.65729 -0.39700
O 	O 	0.08540 0.58130 0.66420 -0.17800
H 	H 	0.10740 0.65200 0.68050 0.10400
C 	C 	0.24466 0.55872 0.67408 0.33500
C 	C 	0.22153 0.59450 0.64981 -0.03100
C 	C 	0.17940 0.60630 0.66210 -0.09500
H 	H 	0.16550 0.59210 0.68630 0.09600
C 	C 	0.08200 0.62210 0.66290 0.14400
C 	C 	0.03690 0.68440 0.69650 0.01800
C 	C 	0.03860 0.64350 0.67580 -0.02600
O 	O 	0.95516 0.20895 0.27236 -0.37500
O 	O 	0.95502 0.15729 0.22016 -0.38600
O 	O 	0.91870 0.16420 0.41460 -0.17000
H 	H 	0.84800 0.18050 0.39260 0.10500
C 	C 	0.94128 0.17408 0.25534 0.33200
C 	C 	0.90550 0.14981 0.27847 -0.02700
C 	C 	0.89370 0.16210 0.32060 -0.09600
H 	H 	0.90790 0.18630 0.33450 0.09900
C 	C 	0.87790 0.16290 0.41800 0.14500
C 	C 	0.81560 0.19650 0.46310 0.02300
C 	C 	0.85650 0.17580 0.46140 -0.02900
O 	O 	0.45516 0.70895 0.77236 -0.38800
O 	O 	0.45502 0.65729 0.72016 -0.39700
O 	O 	0.41870 0.66420 0.91460 -0.16600
H 	H 	0.34800 0.68050 0.89260 0.10400
C 	C 	0.44128 0.67408 0.75534 0.33400
C 	C 	0.40550 0.64981 0.77847 -0.03000
C 	C 	0.39370 0.66210 0.82060 -0.09500
H 	H 	0.40790 0.68630 0.83450 0.09700
C 	C 	0.37790 0.66290 0.91800 0.14200
C 	C 	0.31560 0.69650 0.96310 0.02900
C 	C 	0.35650 0.67580 0.96140 -0.00600
O 	O 	0.95516 0.79105 0.72764 -0.37400
O 	O 	0.95502 0.84271 0.77984 -0.38000
O 	O 	0.91870 0.83580 0.58540 -0.16600
H 	H 	0.84800 0.81950 0.60740 0.10500
C 	C 	0.94128 0.82592 0.74466 0.33100
C 	C 	0.90550 0.85019 0.72153 -0.02100
C 	C 	0.89370 0.83790 0.67940 -0.09800
H 	H 	0.90790 0.81370 0.66550 0.10000
C 	C 	0.87790 0.83710 0.58200 0.14600
C 	C 	0.81560 0.80350 0.53690 0.02200
C 	C 	0.85650 0.82420 0.53860 -0.03100
O 	O 	0.45516 0.29105 0.22764 -0.38900
O 	O 	0.45502 0.34271 0.27984 -0.39700
O 	O 	0.41870 0.33580 0.08540 -0.17800
H 	H 	0.34800 0.31950 0.10740 0.10400
C 	C 	0.44128 0.32592 0.24466 0.33500
C 	C 	0.40550 0.35019 0.22153 -0.03000
C 	C 	0.39370 0.33790 0.17940 -0.09500
H 	H 	0.40790 0.31370 0.16550 0.09600
C 	C 	0.37790 0.33710 0.08200 0.14400
C 	C 	0.31560 0.30350 0.03690 0.01800
C 	C 	0.35650 0.32420 0.03860 -0.02600
O 	O 	0.04484 0.20895 0.72764 -0.39500
O 	O 	0.04498 0.15729 0.77984 -0.40600
O 	O 	0.08130 0.16420 0.58540 -0.18400
H 	H 	0.15200 0.18050 0.60740 0.10400
C 	C 	0.05872 0.17408 0.74466 0.33400
C 	C 	0.09450 0.14981 0.72153 -0.03500
C 	C 	0.10630 0.16210 0.67940 -0.09500
H 	H 	0.09210 0.18630 0.66550 0.09400
C 	C 	0.12210 0.16290 0.58200 0.14700
C 	C 	0.18440 0.19650 0.53690 0.02200
C 	C 	0.14350 0.17580 0.53860 -0.03500
O 	O 	0.54484 0.70895 0.22764 -0.38900
O 	O 	0.54498 0.65729 0.27984 -0.39700
O 	O 	0.58130 0.66420 0.08540 -0.17800
H 	H 	0.65200 0.68050 0.10740 0.10400
C 	C 	0.55872 0.67408 0.24466 0.33500
C 	C 	0.59450 0.64981 0.22153 -0.03100
C 	C 	0.60630 0.66210 0.17940 -0.09500
H 	H 	0.59210 0.68630 0.16550 0.09600
C 	C 	0.62210 0.66290 0.08200 0.14400
C 	C 	0.68440 0.69650 0.03690 0.01800
C 	C 	0.64350 0.67580 0.03860 -0.02600
O 	O 	0.04484 0.79105 0.27236 -0.39400
O 	O 	0.04498 0.84271 0.22016 -0.40300
O 	O 	0.08130 0.83580 0.41460 -0.18100
H 	H 	0.15200 0.81950 0.39260 0.10400
C 	C 	0.05872 0.82592 0.25534 0.33400
C 	C 	0.09450 0.85019 0.27847 -0.03100
C 	C 	0.10630 0.83790 0.32060 -0.09600
H 	H 	0.09210 0.81370 0.33450 0.09500
C 	C 	0.12210 0.83710 0.41800 0.14900
C 	C 	0.18440 0.80350 0.46310 0.02100
C 	C 	0.14350 0.82420 0.46140 -0.03600
O 	O 	0.54484 0.29105 0.77236 -0.38800
O 	O 	0.54498 0.34271 0.72016 -0.39700
O 	O 	0.58130 0.33580 0.91460 -0.16600
H 	H 	0.65200 0.31950 0.89260 0.10400
C 	C 	0.55872 0.32592 0.75534 0.33500
C 	C 	0.59450 0.35019 0.77847 -0.02900
C 	C 	0.60630 0.33790 0.82060 -0.09500
H 	H 	0.59210 0.31370 0.83450 0.09700
C 	C 	0.62210 0.33710 0.91800 0.14300
C 	C 	0.68440 0.30350 0.96310 0.02900
C 	C 	0.64350 0.32420 0.96140 -0.00600
Cu	Cu	0.18401 0.81599 -0.00000 0.89400
Cu	Cu	0.24503 0.75497 -0.00000 0.91000
Cu	Cu	0.68401 0.31599 0.50000 0.90700
Cu	Cu	0.74503 0.25497 0.50000 0.92200
Cu	Cu	0.81599 0.18401 -0.00000 0.89400
Cu	Cu	0.75497 0.24503 -0.00000 0.91000
Cu	Cu	0.31599 0.68401 0.50000 0.90700
Cu	Cu	0.25497 0.74503 0.50000 0.92200
Cu	Cu	0.81599 0.81599 -0.00000 0.89500
Cu	Cu	0.75497 0.75497 -0.00000 0.90900
Cu	Cu	0.31599 0.31599 0.50000 0.90700
Cu	Cu	0.25497 0.25497 0.50000 0.92200
Cu	Cu	0.18401 0.18401 -0.00000 0.89200
Cu	Cu	0.24503 0.24503 -0.00000 0.91000
Cu	Cu	0.68401 0.68401 0.50000 0.90700
Cu	Cu	0.74503 0.74503 0.50000 0.92200
Cu	Cu	-0.00000 0.18401 0.81599 0.89400
Cu	Cu	-0.00000 0.24503 0.75497 0.91000
Cu	Cu	0.50000 0.68401 0.31599 0.90700
Cu	Cu	0.50000 0.74503 0.25497 0.92200
Cu	Cu	0.00000 0.81599 0.18401 0.89400
Cu	Cu	0.00000 0.75497 0.24503 0.91000
Cu	Cu	0.50000 0.31599 0.68401 0.90700
Cu	Cu	0.50000 0.25497 0.74503 0.92200
Cu	Cu	0.00000 0.81599 0.81599 0.89500
Cu	Cu	0.00000 0.75497 0.75497 0.90900
Cu	Cu	0.50000 0.31599 0.31599 0.90700
Cu	Cu	0.50000 0.25497 0.25497 0.92200
Cu	Cu	-0.00000 0.18401 0.18401 0.89200
Cu	Cu	-0.00000 0.24503 0.24503 0.91000
Cu	Cu	0.50000 0.68401 0.68401 0.90700
Cu	Cu	0.50000 0.74503 0.74503 0.92200
Cu	Cu	0.81599 -0.00000 0.18401 0.89400
Cu	Cu	0.75497 0.00000 0.24503 0.91000
Cu	Cu	0.31599 0.50000 0.68401 0.90700
Cu	Cu	0.25497 0.50000 0.74503 0.92200
Cu	Cu	0.18401 0.00000 0.81599 0.89400
Cu	Cu	0.24503 0.00000 0.75497 0.91000
Cu	Cu	0.68401 0.50000 0.31599 0.90700
Cu	Cu	0.74503 0.50000 0.25497 0.92200
Cu	Cu	0.81599 0.00000 0.81599 0.89500
Cu	Cu	0.75497 0.00000 0.75497 0.90900
Cu	Cu	0.31599 0.50000 0.31599 0.90700
Cu	Cu	0.25497 0.50000 0.25497 0.92200
Cu	Cu	0.18401 -0.00000 0.18401 0.89200
Cu	Cu	0.24503 0.00000 0.24503 0.91000
Cu	Cu	0.68401 0.50000 0.68401 0.90700
Cu	Cu	0.74503 0.50000 0.74503 0.92200
N 	N 	0.50000 0.79450 0.20550 -0.17300
N 	N 	0.00000 0.29450 0.70550 -0.18900
N 	N 	0.50000 0.20550 0.20550 -0.17300
N 	N 	0.00000 0.70550 0.70550 -0.18900
N 	N 	0.50000 0.79450 0.79450 -0.17200
N 	N 	0.00000 0.29450 0.29450 -0.18900
N 	N 	0.50000 0.20550 0.79450 -0.17300
N 	N 	0.00000 0.70550 0.29450 -0.18900
N 	N 	0.20550 0.50000 0.79450 -0.17300
N 	N 	0.70550 0.00000 0.29450 -0.18900
N 	N 	0.20550 0.50000 0.20550 -0.17300
N 	N 	0.70550 0.00000 0.70550 -0.18900
N 	N 	0.79450 0.50000 0.79450 -0.17200
N 	N 	0.29450 0.00000 0.29450 -0.18900
N 	N 	0.79450 0.50000 0.20550 -0.17300
N 	N 	0.29450 0.00000 0.70550 -0.18900
N 	N 	0.79450 0.20550 0.50000 -0.17300
N 	N 	0.29450 0.70550 -0.00000 -0.18900
N 	N 	0.20550 0.20550 0.50000 -0.17300
N 	N 	0.70550 0.70550 -0.00000 -0.18900
N 	N 	0.79450 0.79450 0.50000 -0.17200
N 	N 	0.29450 0.29450 -0.00000 -0.18900
N 	N 	0.20550 0.79450 0.50000 -0.17300
N 	N 	0.70550 0.29450 -0.00000 -0.18900
N 	N 	0.38590 0.84810 0.15190 -0.27900
C 	C 	0.25800 0.88480 0.11520 -0.01500
H 	H 	0.22970 0.89440 0.10560 0.06800
C 	C 	0.34150 0.86060 0.13940 0.14500
H 	H 	0.43610 0.79730 0.20270 0.02000
N 	N 	0.88590 0.34810 0.65190 -0.27800
C 	C 	0.75800 0.38480 0.61520 -0.01500
H 	H 	0.72970 0.39440 0.60560 0.06800
C 	C 	0.84150 0.36060 0.63940 0.14500
H 	H 	0.93610 0.29730 0.70270 0.01900
N 	N 	0.61410 0.15190 0.15190 -0.28000
C 	C 	0.74200 0.11520 0.11520 -0.01300
H 	H 	0.77030 0.10560 0.10560 0.06400
C 	C 	0.65850 0.13940 0.13940 0.14100
H 	H 	0.56390 0.20270 0.20270 0.01900
N 	N 	0.11410 0.65190 0.65190 -0.27800
C 	C 	0.24200 0.61520 0.61520 -0.01400
H 	H 	0.27030 0.60560 0.60560 0.06800
C 	C 	0.15850 0.63940 0.63940 0.14400
H 	H 	0.06390 0.70270 0.70270 0.02100
N 	N 	0.61410 0.84810 0.84810 -0.27900
C 	C 	0.74200 0.88480 0.88480 -0.01900
H 	H 	0.77030 0.89440 0.89440 0.07500
C 	C 	0.65850 0.86060 0.86060 0.14900
H 	H 	0.56390 0.79730 0.79730 0.02000
N 	N 	0.11410 0.34810 0.34810 -0.27800
C 	C 	0.24200 0.38480 0.38480 -0.01400
H 	H 	0.27030 0.39440 0.39440 0.06800
C 	C 	0.15850 0.36060 0.36060 0.14400
H 	H 	0.06390 0.29730 0.29730 0.02100
N 	N 	0.38590 0.15190 0.84810 -0.27900
C 	C 	0.25800 0.11520 0.88480 -0.01500
H 	H 	0.22970 0.10560 0.89440 0.06800
C 	C 	0.34150 0.13940 0.86060 0.14500
H 	H 	0.43610 0.20270 0.79730 0.02000
N 	N 	0.88590 0.65190 0.34810 -0.27800
C 	C 	0.75800 0.61520 0.38480 -0.01500
H 	H 	0.72970 0.60560 0.39440 0.06800
C 	C 	0.84150 0.63940 0.36060 0.14500
H 	H 	0.93610 0.70270 0.29730 0.01900
N 	N 	0.15190 0.38590 0.84810 -0.27900
C 	C 	0.11520 0.25800 0.88480 -0.01500
H 	H 	0.10560 0.22970 0.89440 0.06800
C 	C 	0.13940 0.34150 0.86060 0.14500
H 	H 	0.20270 0.43610 0.79730 0.02000
N 	N 	0.65190 0.88590 0.34810 -0.27800
C 	C 	0.61520 0.75800 0.38480 -0.01500
H 	H 	0.60560 0.72970 0.39440 0.06800
C 	C 	0.63940 0.84150 0.36060 0.14500
H 	H 	0.70270 0.93610 0.29730 0.01900
N 	N 	0.15190 0.61410 0.15190 -0.28000
C 	C 	0.11520 0.74200 0.11520 -0.01300
H 	H 	0.10560 0.77030 0.10560 0.06400
C 	C 	0.13940 0.65850 0.13940 0.14100
H 	H 	0.20270 0.56390 0.20270 0.01900
N 	N 	0.65190 0.11410 0.65190 -0.27800
C 	C 	0.61520 0.24200 0.61520 -0.01400
H 	H 	0.60560 0.27030 0.60560 0.06800
C 	C 	0.63940 0.15850 0.63940 0.14400
H 	H 	0.70270 0.06390 0.70270 0.02100
N 	N 	0.84810 0.61410 0.84810 -0.27900
C 	C 	0.88480 0.74200 0.88480 -0.01900
H 	H 	0.89440 0.77030 0.89440 0.07500
C 	C 	0.86060 0.65850 0.86060 0.14900
H 	H 	0.79730 0.56390 0.79730 0.02000
N 	N 	0.34810 0.11410 0.34810 -0.27800
C 	C 	0.38480 0.24200 0.38480 -0.01400
H 	H 	0.39440 0.27030 0.39440 0.06800
C 	C 	0.36060 0.15850 0.36060 0.14400
H 	H 	0.29730 0.06390 0.29730 0.02100
N 	N 	0.84810 0.38590 0.15190 -0.27900
C 	C 	0.88480 0.25800 0.11520 -0.01500
H 	H 	0.89440 0.22970 0.10560 0.06800
C 	C 	0.86060 0.34150 0.13940 0.14500
H 	H 	0.79730 0.43610 0.20270 0.02000
N 	N 	0.34810 0.88590 0.65190 -0.27800
C 	C 	0.38480 0.75800 0.61520 -0.01500
H 	H 	0.39440 0.72970 0.60560 0.06800
C 	C 	0.36060 0.84150 0.63940 0.14500
H 	H 	0.29730 0.93610 0.70270 0.01900
N 	N 	0.84810 0.15190 0.38590 -0.27900
C 	C 	0.88480 0.11520 0.25800 -0.01500
H 	H 	0.89440 0.10560 0.22970 0.06800
C 	C 	0.86060 0.13940 0.34150 0.14500
H 	H 	0.79730 0.20270 0.43610 0.02000
N 	N 	0.34810 0.65190 0.88590 -0.27800
C 	C 	0.38480 0.61520 0.75800 -0.01500
H 	H 	0.39440 0.60560 0.72970 0.06800
C 	C 	0.36060 0.63940 0.84150 0.14500
H 	H 	0.29730 0.70270 0.93610 0.01900
N 	N 	0.15190 0.15190 0.61410 -0.28000
C 	C 	0.11520 0.11520 0.74200 -0.01300
H 	H 	0.10560 0.10560 0.77030 0.06400
C 	C 	0.13940 0.13940 0.65850 0.14100
H 	H 	0.20270 0.20270 0.56390 0.01900
N 	N 	0.65190 0.65190 0.11410 -0.27800
C 	C 	0.61520 0.61520 0.24200 -0.01400
H 	H 	0.60560 0.60560 0.27030 0.06800
C 	C 	0.63940 0.63940 0.15850 0.14400
H 	H 	0.70270 0.70270 0.06390 0.02100
N 	N 	0.84810 0.84810 0.61410 -0.27900
C 	C 	0.88480 0.88480 0.74200 -0.01900
H 	H 	0.89440 0.89440 0.77030 0.07500
C 	C 	0.86060 0.86060 0.65850 0.14900
H 	H 	0.79730 0.79730 0.56390 0.02000
N 	N 	0.34810 0.34810 0.11410 -0.27800
C 	C 	0.38480 0.38480 0.24200 -0.01400
H 	H 	0.39440 0.39440 0.27030 0.06800
C 	C 	0.36060 0.36060 0.15850 0.14400
H 	H 	0.29730 0.29730 0.06390 0.02100
N 	N 	0.15190 0.84810 0.38590 -0.27900
C 	C 	0.11520 0.88480 0.25800 -0.01500
H 	H 	0.10560 0.89440 0.22970 0.06800
C 	C 	0.13940 0.86060 0.34150 0.14500
H 	H 	0.20270 0.79730 0.43610 0.02000
N 	N 	0.65190 0.34810 0.88590 -0.27800
C 	C 	0.61520 0.38480 0.75800 -0.01500
H 	H 	0.60560 0.39440 0.72970 0.06800
C 	C 	0.63940 0.36060 0.84150 0.14500
H 	H 	0.70270 0.29730 0.93610 0.01900
N 	N 	0.84810 0.38590 0.84810 -0.27900
C 	C 	0.88480 0.25800 0.88480 -0.01800
H 	H 	0.89440 0.22970 0.89440 0.07400
C 	C 	0.86060 0.34150 0.86060 0.14900
H 	H 	0.79730 0.43610 0.79730 0.02000
N 	N 	0.34810 0.88590 0.34810 -0.27800
C 	C 	0.38480 0.75800 0.38480 -0.01500
H 	H 	0.39440 0.72970 0.39440 0.06800
C 	C 	0.36060 0.84150 0.36060 0.14500
H 	H 	0.29730 0.93610 0.29730 0.01900
N 	N 	0.15190 0.61410 0.84810 -0.27900
C 	C 	0.11520 0.74200 0.88480 -0.01600
H 	H 	0.10560 0.77030 0.89440 0.07000
C 	C 	0.13940 0.65850 0.86060 0.14500
H 	H 	0.20270 0.56390 0.79730 0.02000
N 	N 	0.65190 0.11410 0.34810 -0.27800
C 	C 	0.61520 0.24200 0.38480 -0.01400
H 	H 	0.60560 0.27030 0.39440 0.06800
C 	C 	0.63940 0.15850 0.36060 0.14400
H 	H 	0.70270 0.06390 0.29730 0.02100
N 	N 	0.84810 0.61410 0.15190 -0.27900
C 	C 	0.88480 0.74200 0.11520 -0.01600
H 	H 	0.89440 0.77030 0.10560 0.07000
C 	C 	0.86060 0.65850 0.13940 0.14500
H 	H 	0.79730 0.56390 0.20270 0.02000
N 	N 	0.34810 0.11410 0.65190 -0.27800
C 	C 	0.38480 0.24200 0.61520 -0.01400
H 	H 	0.39440 0.27030 0.60560 0.06800
C 	C 	0.36060 0.15850 0.63940 0.14400
H 	H 	0.29730 0.06390 0.70270 0.02100
N 	N 	0.15190 0.38590 0.15190 -0.28000
C 	C 	0.11520 0.25800 0.11520 -0.01200
H 	H 	0.10560 0.22970 0.10560 0.06200
C 	C 	0.13940 0.34150 0.13940 0.14100
H 	H 	0.20270 0.43610 0.20270 0.01900
N 	N 	0.65190 0.88590 0.65190 -0.27800
C 	C 	0.61520 0.75800 0.61520 -0.01500
H 	H 	0.60560 0.72970 0.60560 0.06800
C 	C 	0.63940 0.84150 0.63940 0.14500
H 	H 	0.70270 0.93610 0.70270 0.01900
N 	N 	0.38590 0.15190 0.15190 -0.28000
C 	C 	0.25800 0.11520 0.11520 -0.01200
H 	H 	0.22970 0.10560 0.10560 0.06200
C 	C 	0.34150 0.13940 0.13940 0.14100
H 	H 	0.43610 0.20270 0.20270 0.01900
N 	N 	0.88590 0.65190 0.65190 -0.27800
C 	C 	0.75800 0.61520 0.61520 -0.01500
H 	H 	0.72970 0.60560 0.60560 0.06800
C 	C 	0.84150 0.63940 0.63940 0.14500
H 	H 	0.93610 0.70270 0.70270 0.01900
N 	N 	0.61410 0.15190 0.84810 -0.27900
C 	C 	0.74200 0.11520 0.88480 -0.01600
H 	H 	0.77030 0.10560 0.89440 0.07000
C 	C 	0.65850 0.13940 0.86060 0.14500
H 	H 	0.56390 0.20270 0.79730 0.02000
N 	N 	0.11410 0.65190 0.34810 -0.27800
C 	C 	0.24200 0.61520 0.38480 -0.01400
H 	H 	0.27030 0.60560 0.39440 0.06800
C 	C 	0.15850 0.63940 0.36060 0.14400
H 	H 	0.06390 0.70270 0.29730 0.02100
N 	N 	0.61410 0.84810 0.15190 -0.27900
C 	C 	0.74200 0.88480 0.11520 -0.01600
H 	H 	0.77030 0.89440 0.10560 0.07000
C 	C 	0.65850 0.86060 0.13940 0.14500
H 	H 	0.56390 0.79730 0.20270 0.02000
N 	N 	0.11410 0.34810 0.65190 -0.27800
C 	C 	0.24200 0.38480 0.61520 -0.01400
H 	H 	0.27030 0.39440 0.60560 0.06800
C 	C 	0.15850 0.36060 0.63940 0.14400
H 	H 	0.06390 0.29730 0.70270 0.02100
N 	N 	0.38590 0.84810 0.84810 -0.27900
C 	C 	0.25800 0.88480 0.88480 -0.01800
H 	H 	0.22970 0.89440 0.89440 0.07400
C 	C 	0.34150 0.86060 0.86060 0.14900
H 	H 	0.43610 0.79730 0.79730 0.02000
N 	N 	0.88590 0.34810 0.34810 -0.27800
C 	C 	0.75800 0.38480 0.38480 -0.01500
H 	H 	0.72970 0.39440 0.39440 0.06800
C 	C 	0.84150 0.36060 0.36060 0.14500
H 	H 	0.93610 0.29730 0.29730 0.01900
N 	N 	0.15190 0.84810 0.61410 -0.27900
C 	C 	0.11520 0.88480 0.74200 -0.01600
H 	H 	0.10560 0.89440 0.77030 0.07000
C 	C 	0.13940 0.86060 0.65850 0.14500
H 	H 	0.20270 0.79730 0.56390 0.02000
N 	N 	0.65190 0.34810 0.11410 -0.27800
C 	C 	0.61520 0.38480 0.24200 -0.01400
H 	H 	0.60560 0.39440 0.27030 0.06800
C 	C 	0.63940 0.36060 0.15850 0.14400
H 	H 	0.70270 0.29730 0.06390 0.02100
N 	N 	0.15190 0.15190 0.38590 -0.28000
C 	C 	0.11520 0.11520 0.25800 -0.01200
H 	H 	0.10560 0.10560 0.22970 0.06200
C 	C 	0.13940 0.13940 0.34150 0.14100
H 	H 	0.20270 0.20270 0.43610 0.01900
N 	N 	0.65190 0.65190 0.88590 -0.27800
C 	C 	0.61520 0.61520 0.75800 -0.01500
H 	H 	0.60560 0.60560 0.72970 0.06800
C 	C 	0.63940 0.63940 0.84150 0.14500
H 	H 	0.70270 0.70270 0.93610 0.01900
N 	N 	0.84810 0.84810 0.38590 -0.27900
C 	C 	0.88480 0.88480 0.25800 -0.01800
H 	H 	0.89440 0.89440 0.22970 0.07400
C 	C 	0.86060 0.86060 0.34150 0.14900
H 	H 	0.79730 0.79730 0.43610 0.02000
N 	N 	0.34810 0.34810 0.88590 -0.27800
C 	C 	0.38480 0.38480 0.75800 -0.01500
H 	H 	0.39440 0.39440 0.72970 0.06800
C 	C 	0.36060 0.36060 0.84150 0.14500
H 	H 	0.29730 0.29730 0.93610 0.01900
N 	N 	0.84810 0.15190 0.61410 -0.27900
C 	C 	0.88480 0.11520 0.74200 -0.01600
H 	H 	0.89440 0.10560 0.77030 0.07000
C 	C 	0.86060 0.13940 0.65850 0.14500
H 	H 	0.79730 0.20270 0.56390 0.02000
N 	N 	0.34810 0.65190 0.11410 -0.27800
C 	C 	0.38480 0.61520 0.24200 -0.01400
H 	H 	0.39440 0.60560 0.27030 0.06800
C 	C 	0.36060 0.63940 0.15850 0.14400
H 	H 	0.29730 0.70270 0.06390 0.02100
C 	C 	0.50000 0.83640 0.12380 -0.00500
H 	H 	0.50000 0.84920 0.09510 0.06900
C 	C 	0.00000 0.33640 0.62380 -0.04200
H 	H 	-0.00000 0.34920 0.59510 0.07400
C 	C 	0.50000 0.16360 0.12380 -0.00600
H 	H 	0.50000 0.15080 0.09510 0.06600
C 	C 	0.00000 0.66360 0.62380 -0.04200
H 	H 	0.00000 0.65080 0.59510 0.07400
C 	C 	0.50000 0.83640 0.87620 -0.00900
H 	H 	0.50000 0.84920 0.90490 0.07800
C 	C 	0.00000 0.33640 0.37620 -0.04200
H 	H 	0.00000 0.34920 0.40490 0.07400
C 	C 	0.50000 0.16360 0.87620 -0.01000
H 	H 	0.50000 0.15080 0.90490 0.07500
C 	C 	0.00000 0.66360 0.37620 -0.04200
H 	H 	0.00000 0.65080 0.40490 0.07400
C 	C 	0.12380 0.50000 0.83640 -0.00500
H 	H 	0.09510 0.50000 0.84920 0.06900
C 	C 	0.62380 0.00000 0.33640 -0.04200
H 	H 	0.59510 0.00000 0.34920 0.07400
C 	C 	0.12380 0.50000 0.16360 -0.00600
H 	H 	0.09510 0.50000 0.15080 0.06600
C 	C 	0.62380 0.00000 0.66360 -0.04200
H 	H 	0.59510 -0.00000 0.65080 0.07400
C 	C 	0.87620 0.50000 0.83640 -0.00900
H 	H 	0.90490 0.50000 0.84920 0.07800
C 	C 	0.37620 0.00000 0.33640 -0.04200
H 	H 	0.40490 0.00000 0.34920 0.07400
C 	C 	0.87620 0.50000 0.16360 -0.01000
H 	H 	0.90490 0.50000 0.15080 0.07500
C 	C 	0.37620 0.00000 0.66360 -0.04200
H 	H 	0.40490 -0.00000 0.65080 0.07400
C 	C 	0.83640 0.12380 0.50000 -0.00500
H 	H 	0.84920 0.09510 0.50000 0.06900
C 	C 	0.33640 0.62380 -0.00000 -0.04200
H 	H 	0.34920 0.59510 -0.00000 0.07400
C 	C 	0.16360 0.12380 0.50000 -0.00600
H 	H 	0.15080 0.09510 0.50000 0.06600
C 	C 	0.66360 0.62380 -0.00000 -0.04200
H 	H 	0.65080 0.59510 -0.00000 0.07400
C 	C 	0.83640 0.87620 0.50000 -0.00900
H 	H 	0.84920 0.90490 0.50000 0.07800
C 	C 	0.33640 0.37620 -0.00000 -0.04200
H 	H 	0.34920 0.40490 -0.00000 0.07400
C 	C 	0.16360 0.87620 0.50000 -0.01000
H 	H 	0.15080 0.90490 0.50000 0.07500
C 	C 	0.66360 0.37620 -0.00000 -0.04200
H 	H 	0.65080 0.40490 -0.00000 0.07400
C 	C 	0.83640 0.50000 0.87620 -0.00900
H 	H 	0.84920 0.50000 0.90490 0.07800
C 	C 	0.33640 -0.00000 0.37620 -0.04200
H 	H 	0.34920 0.00000 0.40490 0.07400
C 	C 	0.16360 0.50000 0.87620 -0.01000
H 	H 	0.15080 0.50000 0.90490 0.07500
C 	C 	0.66360 -0.00000 0.37620 -0.04200
H 	H 	0.65080 0.00000 0.40490 0.07400
C 	C 	0.83640 0.50000 0.12380 -0.00500
H 	H 	0.84920 0.50000 0.09510 0.06900
C 	C 	0.33640 0.00000 0.62380 -0.04200
H 	H 	0.34920 0.00000 0.59510 0.07400
C 	C 	0.16360 0.50000 0.12380 -0.00600
H 	H 	0.15080 0.50000 0.09510 0.06600
C 	C 	0.66360 0.00000 0.62380 -0.04200
H 	H 	0.65080 0.00000 0.59510 0.07400
C 	C 	0.50000 0.12380 0.16360 -0.00600
H 	H 	0.50000 0.09510 0.15080 0.06600
C 	C 	0.00000 0.62380 0.66360 -0.04200
H 	H 	0.00000 0.59510 0.65080 0.07400
C 	C 	0.50000 0.12380 0.83640 -0.00500
H 	H 	0.50000 0.09510 0.84920 0.06900
C 	C 	0.00000 0.62380 0.33640 -0.04200
H 	H 	-0.00000 0.59510 0.34920 0.07400
C 	C 	0.50000 0.87620 0.16360 -0.01000
H 	H 	0.50000 0.90490 0.15080 0.07500
C 	C 	0.00000 0.37620 0.66360 -0.04200
H 	H 	0.00000 0.40490 0.65080 0.07400
C 	C 	0.50000 0.87620 0.83640 -0.00900
H 	H 	0.50000 0.90490 0.84920 0.07800
C 	C 	0.00000 0.37620 0.33640 -0.04200
H 	H 	0.00000 0.40490 0.34920 0.07400
C 	C 	0.12380 0.83640 0.50000 -0.00500
H 	H 	0.09510 0.84920 0.50000 0.06900
C 	C 	0.62380 0.33640 -0.00000 -0.04200
H 	H 	0.59510 0.34920 -0.00000 0.07400
C 	C 	0.12380 0.16360 0.50000 -0.00600
H 	H 	0.09510 0.15080 0.50000 0.06600
C 	C 	0.62380 0.66360 -0.00000 -0.04200
H 	H 	0.59510 0.65080 -0.00000 0.07400
C 	C 	0.87620 0.83640 0.50000 -0.00900
H 	H 	0.90490 0.84920 0.50000 0.07800
C 	C 	0.37620 0.33640 -0.00000 -0.04200
H 	H 	0.40490 0.34920 -0.00000 0.07400
C 	C 	0.87620 0.16360 0.50000 -0.01000
H 	H 	0.90490 0.15080 0.50000 0.07500
C 	C 	0.37620 0.66360 -0.00000 -0.04200
H 	H 	0.40490 0.65080 -0.00000 0.07400
