data_crystal

_cell_length_a 7.77450
_cell_length_b 11.46350
_cell_length_c 13.53770
_cell_angle_alpha 96.80300
_cell_angle_beta  105.71000
_cell_angle_gamma 99.22500

_symmetry_space_group_name_	'P 1'
_symmetry_space_group_name_H-M	'P 1'

loop_
_symmetry_equiv_pos_as_xyz
  x,y,z

loop_
_atom_site_label
_atom_site_type_symbol
_atom_site_fract_x
_atom_site_fract_y
_atom_site_fract_z
_atom_site_charge
V 	V 	0.85757 0.67661 0.97477 1.86000
V 	V 	0.79445 0.41953 0.86044 1.73900
V 	V 	0.14243 0.32339 0.02523 1.79200
V 	V 	0.20555 0.58047 0.13956 1.72900
Co	Co	0.50000 0.50000 -0.00000 1.10600
Co	Co	-0.00000 0.00000 -0.00000 1.01800
H 	H 	0.07810 0.86390 0.81840 -0.02300
H 	H 	0.08200 0.87360 0.65130 0.07300
H 	H 	0.87290 0.17070 0.66760 0.05500
H 	H 	0.86870 0.14880 0.83350 -0.05100
H 	H 	0.94920 0.10770 0.51050 0.06700
H 	H 	0.66330 0.65570 0.21730 -0.03500
H 	H 	0.81950 0.64200 0.38660 0.05700
H 	H 	0.91360 0.32750 0.27340 0.06800
H 	H 	0.73080 0.34100 0.11360 -0.04200
H 	H 	0.05910 0.40570 0.45730 -0.02500
H 	H 	0.92190 0.13610 0.18160 -0.03100
H 	H 	0.91800 0.12640 0.34870 0.08400
H 	H 	0.12710 0.82930 0.33240 0.05700
H 	H 	0.13130 0.85120 0.16650 -0.09500
H 	H 	0.05080 0.89230 0.48950 0.03200
H 	H 	0.33670 0.34430 0.78270 -0.03100
H 	H 	0.18050 0.35800 0.61340 0.08000
H 	H 	0.08640 0.67250 0.72660 0.09600
H 	H 	0.26920 0.65900 0.88640 0.00800
H 	H 	0.94090 0.59430 0.54270 0.11700
C 	C 	0.03610 0.92622 0.78735 0.11800
C 	C 	0.03930 0.93157 0.68690 -0.14100
C 	C 	0.97810 0.02451 0.63882 0.08600
C 	C 	0.91470 0.10696 0.69623 -0.18300
C 	C 	0.91420 0.09375 0.79664 0.08500
C 	C 	0.97980 0.03820 0.53305 -0.16600
C 	C 	0.70910 0.58707 0.23002 0.02400
C 	C 	0.80740 0.58070 0.33220 -0.13700
C 	C 	0.88680 0.48160 0.35140 0.02100
C 	C 	0.85910 0.39370 0.26550 -0.14700
C 	C 	0.75150 0.40360 0.16850 0.04800
C 	C 	0.99370 0.46700 0.45466 0.06100
C 	C 	0.96390 0.07378 0.21265 0.04500
C 	C 	0.96070 0.06843 0.31310 -0.22600
C 	C 	0.02190 0.97549 0.36118 0.13700
C 	C 	0.08530 0.89304 0.30377 -0.19500
C 	C 	0.08580 0.90625 0.20336 0.08700
C 	C 	0.02020 0.96180 0.46695 -0.03100
C 	C 	0.29090 0.41293 0.76998 0.06100
C 	C 	0.19260 0.41930 0.66780 -0.22200
C 	C 	0.11320 0.51840 0.64860 0.16000
C 	C 	0.14090 0.60630 0.73450 -0.22500
C 	C 	0.24850 0.59640 0.83150 0.08200
C 	C 	0.00630 0.53300 0.54534 -0.26400
N 	N 	0.97560 0.00610 0.84259 -0.25600
N 	N 	0.67610 0.49765 0.14954 -0.25500
N 	N 	0.02440 0.99390 0.15741 -0.24900
N 	N 	0.32390 0.50235 0.85046 -0.22600
O 	O 	0.65409 0.40366 0.93261 -0.69800
O 	O 	0.65056 0.66348 0.98979 -0.61100
O 	O 	0.00154 0.63258 0.08305 -0.96900
O 	O 	0.93805 0.81564 0.96682 -0.63400
O 	O 	0.84735 0.57848 0.85880 -0.81600
O 	O 	0.34591 0.59634 0.06739 -0.82600
O 	O 	0.34944 0.33652 0.01021 -0.76800
O 	O 	0.99846 0.36742 0.91695 -0.79600
O 	O 	0.06195 0.18436 0.03318 -0.81200
O 	O 	0.15265 0.42152 0.14120 -0.86700
