data_crystal

_cell_length_a 17.14540
_cell_length_b 17.14540
_cell_length_c 17.14540
_cell_angle_alpha 108.65100
_cell_angle_beta  109.88300
_cell_angle_gamma 109.88300

_symmetry_space_group_name_	'P 1'
_symmetry_space_group_name_H-M	'P 1'

loop_
_symmetry_equiv_pos_as_xyz
  x,y,z

loop_
_atom_site_label
_atom_site_type_symbol
_atom_site_fract_x
_atom_site_fract_y
_atom_site_fract_z
_atom_site_charge
Mn	Mn	0.87710 0.00646 0.91928 1.20500
Mn	Mn	0.62290 0.54218 0.12936 1.20700
Mn	Mn	0.91282 0.91928 0.54218 1.20700
Mn	Mn	0.58718 0.12936 0.00646 1.20800
Mn	Mn	0.12290 0.99354 0.08072 1.20500
Mn	Mn	0.37710 0.45782 0.87064 1.20700
Mn	Mn	0.08718 0.08072 0.45782 1.20700
Mn	Mn	0.41282 0.87064 0.99354 1.20800
H 	H 	0.54490 0.78910 0.92120 -0.01800
H 	H 	0.93410 0.33990 0.97860 0.07300
H 	H 	0.08030 0.40290 0.98620 -0.00000
H 	H 	0.15970 0.31750 0.98100 0.06200
H 	H 	0.08500 0.16620 0.95780 -0.03200
H 	H 	0.95510 0.87630 0.24420 -0.01800
H 	H 	0.56590 0.54450 0.40580 0.07100
H 	H 	0.41970 0.40590 0.32260 0.00300
H 	H 	0.34030 0.32130 0.15780 0.06000
H 	H 	0.41500 0.37280 0.08120 -0.02900
H 	H 	0.13210 0.92120 0.87630 -0.01700
H 	H 	0.63870 0.97860 0.54450 0.07100
H 	H 	0.58330 0.98620 0.40590 0.00300
H 	H 	0.66350 0.98100 0.32130 0.05900
H 	H 	0.79160 0.95780 0.37280 -0.02900
H 	H 	0.36790 0.24420 0.78910 -0.01800
H 	H 	0.86130 0.40580 0.33990 0.07100
H 	H 	0.91670 0.32260 0.40290 0.00200
H 	H 	0.83650 0.15780 0.31750 0.05900
H 	H 	0.70840 0.08120 0.16620 -0.02900
H 	H 	0.45510 0.21090 0.07880 -0.01800
H 	H 	0.06590 0.66010 0.02140 0.07300
H 	H 	0.91970 0.59710 0.01380 -0.00000
H 	H 	0.84030 0.68250 0.01900 0.06200
H 	H 	0.91500 0.83380 0.04220 -0.03200
H 	H 	0.04490 0.12370 0.75580 -0.01800
H 	H 	0.43410 0.45550 0.59420 0.07100
H 	H 	0.58030 0.59410 0.67740 0.00300
H 	H 	0.65970 0.67870 0.84220 0.06000
H 	H 	0.58500 0.62720 0.91880 -0.02900
H 	H 	0.86790 0.07880 0.12370 -0.01700
H 	H 	0.36130 0.02140 0.45550 0.07100
H 	H 	0.41670 0.01380 0.59410 0.00300
H 	H 	0.33650 0.01900 0.67870 0.05900
H 	H 	0.20840 0.04220 0.62720 -0.02900
H 	H 	0.63210 0.75580 0.21090 -0.01800
H 	H 	0.13870 0.59420 0.66010 0.07100
H 	H 	0.08330 0.67740 0.59710 0.00200
H 	H 	0.16350 0.84220 0.68250 0.05900
H 	H 	0.29160 0.91880 0.83380 -0.02900
C 	C 	0.56720 0.85120 0.93180 0.08900
C 	C 	0.64649 0.98171 0.94426 0.03900
C 	C 	0.71572 0.06460 0.95036 0.05200
C 	C 	0.83364 0.16854 0.96050 0.05800
C 	C 	0.92520 0.21420 0.96400 0.05100
C 	C 	0.96560 0.30520 0.97480 -0.13000
C 	C 	0.05260 0.34260 0.97980 0.05600
C 	C 	0.09960 0.29180 0.97540 -0.14800
C 	C 	0.05450 0.20180 0.96250 0.07900
C 	C 	0.93280 0.86460 0.28400 0.08900
C 	C 	0.85351 0.79777 0.33522 0.03500
C 	C 	0.78428 0.73464 0.34888 0.05600
C 	C 	0.66636 0.62686 0.33490 0.06000
C 	C 	0.57480 0.53880 0.28900 0.04800
C 	C 	0.53440 0.50920 0.33960 -0.12100
C 	C 	0.44740 0.42720 0.29000 0.04600
C 	C 	0.40040 0.37580 0.19220 -0.14000
C 	C 	0.44550 0.40800 0.14730 0.07100
C 	C 	0.08060 0.93180 0.86460 0.08900
C 	C 	0.96255 0.94426 0.79777 0.03600
C 	C 	0.88576 0.95036 0.73464 0.05600
C 	C 	0.79196 0.96050 0.62686 0.06000
C 	C 	0.74980 0.96400 0.53880 0.04900
C 	C 	0.66960 0.97480 0.50920 -0.12100
C 	C 	0.63720 0.97980 0.42720 0.04600
C 	C 	0.68360 0.97540 0.37580 -0.14000
C 	C 	0.76070 0.96250 0.40800 0.07200
C 	C 	0.41940 0.28400 0.85120 0.08900
C 	C 	0.53745 0.33522 0.98171 0.03400
C 	C 	0.61424 0.34888 0.06460 0.05700
C 	C 	0.70804 0.33490 0.16854 0.06000
C 	C 	0.75020 0.28900 0.21420 0.04900
C 	C 	0.83040 0.33960 0.30520 -0.12100
C 	C 	0.86280 0.29000 0.34260 0.04600
C 	C 	0.81640 0.19220 0.29180 -0.14000
C 	C 	0.73930 0.14730 0.20180 0.07200
C 	C 	0.43280 0.14880 0.06820 0.08900
C 	C 	0.35351 0.01829 0.05574 0.03900
C 	C 	0.28428 0.93540 0.04964 0.05200
C 	C 	0.16636 0.83146 0.03950 0.05800
C 	C 	0.07480 0.78580 0.03600 0.05100
C 	C 	0.03440 0.69480 0.02520 -0.13000
C 	C 	0.94740 0.65740 0.02020 0.05600
C 	C 	0.90040 0.70820 0.02460 -0.14800
C 	C 	0.94550 0.79820 0.03750 0.07900
C 	C 	0.06720 0.13540 0.71600 0.08900
C 	C 	0.14649 0.20223 0.66478 0.03500
C 	C 	0.21572 0.26536 0.65112 0.05600
C 	C 	0.33364 0.37314 0.66510 0.06000
C 	C 	0.42520 0.46120 0.71100 0.04800
C 	C 	0.46560 0.49080 0.66040 -0.12100
C 	C 	0.55260 0.57280 0.71000 0.04600
C 	C 	0.59960 0.62420 0.80780 -0.14000
C 	C 	0.55450 0.59200 0.85270 0.07100
C 	C 	0.91940 0.06820 0.13540 0.08900
C 	C 	0.03745 0.05574 0.20223 0.03600
C 	C 	0.11424 0.04964 0.26536 0.05600
C 	C 	0.20804 0.03950 0.37314 0.06000
C 	C 	0.25020 0.03600 0.46120 0.04900
C 	C 	0.33040 0.02520 0.49080 -0.12100
C 	C 	0.36280 0.02020 0.57280 0.04600
C 	C 	0.31640 0.02460 0.62420 -0.14000
C 	C 	0.23930 0.03750 0.59200 0.07200
C 	C 	0.58060 0.71600 0.14880 0.08900
C 	C 	0.46255 0.66478 0.01829 0.03400
C 	C 	0.38576 0.65112 0.93540 0.05700
C 	C 	0.29196 0.66510 0.83146 0.06000
C 	C 	0.24980 0.71100 0.78580 0.04900
C 	C 	0.16960 0.66040 0.69480 -0.12100
C 	C 	0.13720 0.71000 0.65740 0.04600
C 	C 	0.18360 0.80780 0.70820 -0.14000
C 	C 	0.26070 0.85270 0.79820 0.07200
N 	N 	0.64161 0.89690 0.92229 -0.15500
N 	N 	0.58057 0.98819 0.96602 -0.23500
N 	N 	0.52838 0.90247 0.95763 -0.24200
N 	N 	0.79336 0.07618 0.94150 -0.25400
N 	N 	0.78481 0.21041 0.97838 -0.10000
N 	N 	0.70714 0.14175 0.97105 -0.21200
N 	N 	0.96841 0.16230 0.95619 -0.24400
N 	N 	0.85839 0.78068 0.25529 -0.15500
N 	N 	0.91943 0.88545 0.40762 -0.23500
N 	N 	0.97162 0.92925 0.37409 -0.24200
N 	N 	0.70664 0.64814 0.28282 -0.25400
N 	N 	0.71519 0.69357 0.42560 -0.10000
N 	N 	0.79286 0.76391 0.43461 -0.21200
N 	N 	0.53159 0.48778 0.19389 -0.24000
N 	N 	0.02539 0.92229 0.78068 -0.15600
N 	N 	0.97783 0.96602 0.88545 -0.23400
N 	N 	0.05516 0.95763 0.92925 -0.24200
N 	N 	0.86532 0.94150 0.64814 -0.25400
N 	N 	0.76797 0.97838 0.69357 -0.09900
N 	N 	0.82930 0.97105 0.76391 -0.21100
N 	N 	0.79389 0.95619 0.48778 -0.24000
N 	N 	0.47461 0.25529 0.89690 -0.15500
N 	N 	0.52217 0.40762 0.98819 -0.23500
N 	N 	0.44484 0.37409 0.90247 -0.24200
N 	N 	0.63468 0.28282 0.07618 -0.25400
N 	N 	0.73203 0.42560 0.21041 -0.10000
N 	N 	0.67070 0.43461 0.14175 -0.21200
N 	N 	0.70611 0.19389 0.16230 -0.24000
N 	N 	0.35839 0.10310 0.07771 -0.15500
N 	N 	0.41943 0.01181 0.03398 -0.23500
N 	N 	0.47162 0.09753 0.04237 -0.24200
N 	N 	0.20664 0.92382 0.05850 -0.25400
N 	N 	0.21519 0.78959 0.02162 -0.10000
N 	N 	0.29286 0.85825 0.02895 -0.21200
N 	N 	0.03159 0.83770 0.04381 -0.24400
N 	N 	0.14161 0.21932 0.74471 -0.15500
N 	N 	0.08057 0.11455 0.59238 -0.23500
N 	N 	0.02838 0.07075 0.62591 -0.24200
N 	N 	0.29336 0.35186 0.71718 -0.25400
N 	N 	0.28481 0.30643 0.57440 -0.10000
N 	N 	0.20714 0.23609 0.56539 -0.21200
N 	N 	0.46841 0.51222 0.80611 -0.24000
N 	N 	0.97461 0.07771 0.21932 -0.15600
N 	N 	0.02217 0.03398 0.11455 -0.23400
N 	N 	0.94484 0.04237 0.07075 -0.24200
N 	N 	0.13468 0.05850 0.35186 -0.25400
N 	N 	0.23203 0.02162 0.30643 -0.09900
N 	N 	0.17070 0.02895 0.23609 -0.21100
N 	N 	0.20611 0.04381 0.51222 -0.24000
N 	N 	0.52539 0.74471 0.10310 -0.15500
N 	N 	0.47783 0.59238 0.01181 -0.23500
N 	N 	0.55516 0.62591 0.09753 -0.24200
N 	N 	0.36532 0.71718 0.92382 -0.25400
N 	N 	0.26797 0.57440 0.78959 -0.10000
N 	N 	0.32930 0.56539 0.85825 -0.21200
N 	N 	0.29389 0.80611 0.83770 -0.24000
