data_crystal

_cell_length_a 10.63900
_cell_length_b 10.69820
_cell_length_c 11.93750
_cell_angle_alpha 70.07800
_cell_angle_beta  77.61000
_cell_angle_gamma 60.79970

_symmetry_space_group_name_	'P 1'
_symmetry_space_group_name_H-M	'P 1'

loop_
_symmetry_equiv_pos_as_xyz
  x,y,z

loop_
_atom_site_label
_atom_site_type_symbol
_atom_site_fract_x
_atom_site_fract_y
_atom_site_fract_z
_atom_site_charge
Ho	Ho	0.54876 0.99808 0.16083 1.91700
Ho	Ho	0.45124 0.00192 0.83917 1.63800
Cu	Cu	-0.00000 0.00000 -0.00000 0.80200
Cu	Cu	-0.00000 0.00000 0.50000 0.81800
H 	H 	0.00960 0.27300 0.51400 -0.11400
H 	H 	0.91220 0.52470 0.42830 0.13400
H 	H 	0.68680 0.47990 0.23100 0.09500
H 	H 	0.78340 0.23070 0.32780 -0.01700
H 	H 	0.99710 0.72130 0.17870 0.12600
H 	H 	0.13180 0.46610 0.22070 0.01000
H 	H 	0.39420 0.52970 0.93560 0.05400
H 	H 	0.25340 0.77790 0.90020 0.01600
H 	H 	0.99040 0.72700 0.48600 0.12200
H 	H 	0.08780 0.47530 0.57170 0.02100
H 	H 	0.31320 0.52010 0.76900 0.07000
H 	H 	0.21660 0.76930 0.67220 0.02800
H 	H 	0.00290 0.27870 0.82130 -0.10400
H 	H 	0.86820 0.53390 0.77930 0.15000
H 	H 	0.60580 0.47030 0.06440 0.10900
H 	H 	0.74660 0.22210 0.09980 -0.04200
C 	C 	0.17750 0.97800 0.28190 -0.04800
C 	C 	0.17170 0.98870 0.16430 0.06600
C 	C 	0.28440 0.96480 0.35710 0.39500
C 	C 	0.26490 0.00280 0.05390 0.22300
C 	C 	0.94290 0.31540 0.45640 0.26200
C 	C 	0.88610 0.46660 0.40470 -0.20500
C 	C 	0.78990 0.53060 0.31730 0.06600
C 	C 	0.75230 0.44020 0.28900 -0.14200
C 	C 	0.81180 0.29020 0.34700 0.10400
C 	C 	0.72080 0.69690 0.25580 0.27600
C 	C 	0.07790 0.68150 0.12930 -0.13100
C 	C 	0.15830 0.52810 0.15520 0.03600
C 	C 	0.27940 0.46820 0.08140 -0.12700
C 	C 	0.31330 0.56590 0.98610 0.01200
C 	C 	0.22900 0.71440 0.96580 0.06800
C 	C 	0.37080 0.30320 0.10710 0.33500
C 	C 	0.82250 0.02200 0.71810 -0.00600
C 	C 	0.82830 0.01130 0.83570 -0.12000
C 	C 	0.71560 0.03520 0.64290 0.35100
C 	C 	0.73510 0.99720 0.94610 0.49500
C 	C 	0.05710 0.68460 0.54360 -0.09800
C 	C 	0.11390 0.53340 0.59530 0.00100
C 	C 	0.21010 0.46940 0.68270 -0.05400
C 	C 	0.24770 0.55980 0.71100 -0.05100
C 	C 	0.18820 0.70980 0.65300 0.04000
C 	C 	0.27920 0.30310 0.74420 0.31500
C 	C 	0.92210 0.31850 0.87070 0.26900
C 	C 	0.84170 0.47190 0.84480 -0.22200
C 	C 	0.72060 0.53180 0.91860 0.12500
C 	C 	0.68670 0.43410 0.01390 -0.21600
C 	C 	0.77100 0.28560 0.03420 0.10700
C 	C 	0.62920 0.69680 0.89290 0.23900
N 	N 	0.05390 0.97650 0.33700 -0.16800
N 	N 	0.97550 0.98110 0.26190 -0.00400
N 	N 	0.04730 0.98970 0.15600 -0.18500
N 	N 	0.90790 0.22650 0.42890 -0.24100
N 	N 	0.11210 0.77470 0.03560 -0.19000
N 	N 	0.94610 0.02350 0.66300 -0.13200
N 	N 	0.02450 0.01890 0.73810 -0.14000
N 	N 	0.95270 0.01030 0.84400 -0.11100
N 	N 	0.09210 0.77350 0.57110 -0.16700
N 	N 	0.88790 0.22530 0.96440 -0.22300
O 	O 	0.23510 0.99210 0.45450 -0.31000
O 	O 	0.41370 0.92300 0.31730 -0.44400
O 	O 	0.38210 0.00480 0.05660 -0.56200
O 	O 	0.22340 0.01460 0.95820 -0.44200
O 	O 	0.73820 0.78320 0.29260 -0.37500
O 	O 	0.64940 0.74120 0.16810 -0.39100
O 	O 	0.48700 0.25340 0.04610 -0.45900
O 	O 	0.33310 0.21760 0.19160 -0.45800
O 	O 	0.76490 0.00790 0.54550 -0.35900
O 	O 	0.58630 0.07700 0.68270 -0.45100
O 	O 	0.61790 0.99520 0.94340 -0.47800
O 	O 	0.77660 0.98540 0.04180 -0.48800
O 	O 	0.26180 0.21680 0.70740 -0.39200
O 	O 	0.35060 0.25880 0.83190 -0.38000
O 	O 	0.51300 0.74660 0.95390 -0.32600
O 	O 	0.66690 0.78240 0.80840 -0.32200
