data_crystal

_cell_length_a 26.30340
_cell_length_b 26.30340
_cell_length_c 26.30340
_cell_angle_alpha 90.00000
_cell_angle_beta  90.00000
_cell_angle_gamma 90.00000

_symmetry_space_group_name_	'P 1'
_symmetry_space_group_name_H-M	'P 1'

loop_
_symmetry_equiv_pos_as_xyz
  x,y,z

loop_
_atom_site_label
_atom_site_type_symbol
_atom_site_fract_x
_atom_site_fract_y
_atom_site_fract_z
_atom_site_charge
O 	O 	0.18783 0.74203 0.95096 -0.42200
O 	O 	0.18783 0.24203 0.45096 -0.46500
O 	O 	0.68783 0.74203 0.45096 -0.45500
O 	O 	0.68783 0.24203 0.95096 -0.42100
O 	O 	0.81217 0.25797 0.95096 -0.41500
O 	O 	0.81217 0.75797 0.45096 -0.45000
O 	O 	0.31217 0.25797 0.45096 -0.46000
O 	O 	0.31217 0.75797 0.95096 -0.41700
O 	O 	0.81217 0.74203 0.04904 -0.46900
O 	O 	0.81217 0.24203 0.54904 -0.45300
O 	O 	0.31217 0.74203 0.54904 -0.45500
O 	O 	0.31217 0.24203 0.04904 -0.47900
O 	O 	0.18783 0.25797 0.04904 -0.48400
O 	O 	0.18783 0.75797 0.54904 -0.46100
O 	O 	0.68783 0.25797 0.54904 -0.45900
O 	O 	0.68783 0.75797 0.04904 -0.47500
O 	O 	0.95096 0.18783 0.74203 -0.42200
O 	O 	0.95096 0.68783 0.24203 -0.42100
O 	O 	0.45096 0.18783 0.24203 -0.46400
O 	O 	0.45096 0.68783 0.74203 -0.45400
O 	O 	0.95096 0.81217 0.25797 -0.41400
O 	O 	0.95096 0.31217 0.75797 -0.41600
O 	O 	0.45096 0.81217 0.75797 -0.44900
O 	O 	0.45096 0.31217 0.25797 -0.45900
O 	O 	0.04904 0.81217 0.74203 -0.46800
O 	O 	0.04904 0.31217 0.24203 -0.47800
O 	O 	0.54904 0.81217 0.24203 -0.45200
O 	O 	0.54904 0.31217 0.74203 -0.45400
O 	O 	0.04904 0.18783 0.25797 -0.48300
O 	O 	0.04904 0.68783 0.75797 -0.47400
O 	O 	0.54904 0.18783 0.75797 -0.46000
O 	O 	0.54904 0.68783 0.25797 -0.45800
O 	O 	0.74203 0.95096 0.18783 -0.42100
O 	O 	0.74203 0.45096 0.68783 -0.45400
O 	O 	0.24203 0.95096 0.68783 -0.42000
O 	O 	0.24203 0.45096 0.18783 -0.46400
O 	O 	0.25797 0.95096 0.81217 -0.41400
O 	O 	0.25797 0.45096 0.31217 -0.45900
O 	O 	0.75797 0.95096 0.31217 -0.41600
O 	O 	0.75797 0.45096 0.81217 -0.44900
O 	O 	0.74203 0.04904 0.81217 -0.46800
O 	O 	0.74203 0.54904 0.31217 -0.45400
O 	O 	0.24203 0.04904 0.31217 -0.47800
O 	O 	0.24203 0.54904 0.81217 -0.45200
O 	O 	0.25797 0.04904 0.18783 -0.48300
O 	O 	0.25797 0.54904 0.68783 -0.45800
O 	O 	0.75797 0.04904 0.68783 -0.47400
O 	O 	0.75797 0.54904 0.18783 -0.46000
O 	O 	0.74203 0.18783 0.04904 -0.47900
O 	O 	0.74203 0.68783 0.54904 -0.45400
O 	O 	0.24203 0.18783 0.54904 -0.46300
O 	O 	0.24203 0.68783 0.04904 -0.47800
O 	O 	0.25797 0.81217 0.04904 -0.47200
O 	O 	0.25797 0.31217 0.54904 -0.45900
O 	O 	0.75797 0.81217 0.54904 -0.44800
O 	O 	0.75797 0.31217 0.04904 -0.47400
O 	O 	0.74203 0.81217 0.95096 -0.41000
O 	O 	0.74203 0.31217 0.45096 -0.45400
O 	O 	0.24203 0.81217 0.45096 -0.45200
O 	O 	0.24203 0.31217 0.95096 -0.42000
O 	O 	0.25797 0.18783 0.95096 -0.42500
O 	O 	0.25797 0.68783 0.45096 -0.45800
O 	O 	0.75797 0.18783 0.45096 -0.46000
O 	O 	0.75797 0.68783 0.95096 -0.41600
O 	O 	0.18783 0.95096 0.25797 -0.42500
O 	O 	0.18783 0.45096 0.75797 -0.46000
O 	O 	0.68783 0.95096 0.75797 -0.41600
O 	O 	0.68783 0.45096 0.25797 -0.45800
O 	O 	0.81217 0.95096 0.74203 -0.41000
O 	O 	0.81217 0.45096 0.24203 -0.45200
O 	O 	0.31217 0.95096 0.24203 -0.42000
O 	O 	0.31217 0.45096 0.74203 -0.45400
O 	O 	0.81217 0.04904 0.25797 -0.47200
O 	O 	0.81217 0.54904 0.75797 -0.44800
O 	O 	0.31217 0.04904 0.75797 -0.47400
O 	O 	0.31217 0.54904 0.25797 -0.45900
O 	O 	0.18783 0.04904 0.74203 -0.47900
O 	O 	0.18783 0.54904 0.24203 -0.46300
O 	O 	0.68783 0.04904 0.24203 -0.47800
O 	O 	0.68783 0.54904 0.74203 -0.45400
O 	O 	0.95096 0.74203 0.81217 -0.41000
O 	O 	0.95096 0.24203 0.31217 -0.42000
O 	O 	0.45096 0.74203 0.31217 -0.45400
O 	O 	0.45096 0.24203 0.81217 -0.45200
O 	O 	0.95096 0.25797 0.18783 -0.42500
O 	O 	0.95096 0.75797 0.68783 -0.41600
O 	O 	0.45096 0.25797 0.68783 -0.45800
O 	O 	0.45096 0.75797 0.18783 -0.46000
O 	O 	0.04904 0.74203 0.18783 -0.47900
O 	O 	0.04904 0.24203 0.68783 -0.47800
O 	O 	0.54904 0.74203 0.68783 -0.45400
O 	O 	0.54904 0.24203 0.18783 -0.46300
O 	O 	0.04904 0.25797 0.81217 -0.47200
O 	O 	0.04904 0.75797 0.31217 -0.47400
O 	O 	0.54904 0.25797 0.31217 -0.45900
O 	O 	0.54904 0.75797 0.81217 -0.44800
O 	O 	0.81217 0.25797 0.04904 -0.47200
O 	O 	0.81217 0.75797 0.54904 -0.44800
O 	O 	0.31217 0.25797 0.54904 -0.45900
O 	O 	0.31217 0.75797 0.04904 -0.47400
O 	O 	0.18783 0.74203 0.04904 -0.47900
O 	O 	0.18783 0.24203 0.54904 -0.46300
O 	O 	0.68783 0.74203 0.54904 -0.45400
O 	O 	0.68783 0.24203 0.04904 -0.47800
O 	O 	0.18783 0.25797 0.95096 -0.42500
O 	O 	0.18783 0.75797 0.45096 -0.46000
O 	O 	0.68783 0.25797 0.45096 -0.45800
O 	O 	0.68783 0.75797 0.95096 -0.41600
O 	O 	0.81217 0.74203 0.95096 -0.41000
O 	O 	0.81217 0.24203 0.45096 -0.45200
O 	O 	0.31217 0.74203 0.45096 -0.45400
O 	O 	0.31217 0.24203 0.95096 -0.42000
O 	O 	0.04904 0.81217 0.25797 -0.47200
O 	O 	0.04904 0.31217 0.75797 -0.47400
O 	O 	0.54904 0.81217 0.75797 -0.44800
O 	O 	0.54904 0.31217 0.25797 -0.45900
O 	O 	0.04904 0.18783 0.74203 -0.47900
O 	O 	0.04904 0.68783 0.24203 -0.47800
O 	O 	0.54904 0.18783 0.24203 -0.46300
O 	O 	0.54904 0.68783 0.74203 -0.45400
O 	O 	0.95096 0.18783 0.25797 -0.42500
O 	O 	0.95096 0.68783 0.75797 -0.41600
O 	O 	0.45096 0.18783 0.75797 -0.46000
O 	O 	0.45096 0.68783 0.25797 -0.45800
O 	O 	0.95096 0.81217 0.74203 -0.41000
O 	O 	0.95096 0.31217 0.24203 -0.42000
O 	O 	0.45096 0.81217 0.24203 -0.45200
O 	O 	0.45096 0.31217 0.74203 -0.45400
O 	O 	0.25797 0.04904 0.81217 -0.47200
O 	O 	0.25797 0.54904 0.31217 -0.45900
O 	O 	0.75797 0.04904 0.31217 -0.47400
O 	O 	0.75797 0.54904 0.81217 -0.44800
O 	O 	0.74203 0.04904 0.18783 -0.47900
O 	O 	0.74203 0.54904 0.68783 -0.45400
O 	O 	0.24203 0.04904 0.68783 -0.47800
O 	O 	0.24203 0.54904 0.18783 -0.46300
O 	O 	0.25797 0.95096 0.18783 -0.42500
O 	O 	0.25797 0.45096 0.68783 -0.45800
O 	O 	0.75797 0.95096 0.68783 -0.41600
O 	O 	0.75797 0.45096 0.18783 -0.46000
O 	O 	0.74203 0.95096 0.81217 -0.41000
O 	O 	0.74203 0.45096 0.31217 -0.45400
O 	O 	0.24203 0.95096 0.31217 -0.42000
O 	O 	0.24203 0.45096 0.81217 -0.45200
O 	O 	0.25797 0.81217 0.95096 -0.41400
O 	O 	0.25797 0.31217 0.45096 -0.45900
O 	O 	0.75797 0.81217 0.45096 -0.44900
O 	O 	0.75797 0.31217 0.95096 -0.41600
O 	O 	0.74203 0.18783 0.95096 -0.42100
O 	O 	0.74203 0.68783 0.45096 -0.45400
O 	O 	0.24203 0.18783 0.45096 -0.46400
O 	O 	0.24203 0.68783 0.95096 -0.42000
O 	O 	0.25797 0.18783 0.04904 -0.48300
O 	O 	0.25797 0.68783 0.54904 -0.45800
O 	O 	0.75797 0.18783 0.54904 -0.46000
O 	O 	0.75797 0.68783 0.04904 -0.47400
O 	O 	0.74203 0.81217 0.04904 -0.46800
O 	O 	0.74203 0.31217 0.54904 -0.45400
O 	O 	0.24203 0.81217 0.54904 -0.45200
O 	O 	0.24203 0.31217 0.04904 -0.47800
O 	O 	0.81217 0.04904 0.74203 -0.46800
O 	O 	0.81217 0.54904 0.24203 -0.45200
O 	O 	0.31217 0.04904 0.24203 -0.47800
O 	O 	0.31217 0.54904 0.74203 -0.45400
O 	O 	0.18783 0.04904 0.25797 -0.48300
O 	O 	0.18783 0.54904 0.75797 -0.46000
O 	O 	0.68783 0.04904 0.75797 -0.47400
O 	O 	0.68783 0.54904 0.25797 -0.45800
O 	O 	0.18783 0.95096 0.74203 -0.42100
O 	O 	0.18783 0.45096 0.24203 -0.46400
O 	O 	0.68783 0.95096 0.24203 -0.42000
O 	O 	0.68783 0.45096 0.74203 -0.45400
O 	O 	0.81217 0.95096 0.25797 -0.41400
O 	O 	0.81217 0.45096 0.75797 -0.44900
O 	O 	0.31217 0.95096 0.75797 -0.41600
O 	O 	0.31217 0.45096 0.25797 -0.45900
O 	O 	0.04904 0.25797 0.18783 -0.48300
O 	O 	0.04904 0.75797 0.68783 -0.47400
O 	O 	0.54904 0.25797 0.68783 -0.45800
O 	O 	0.54904 0.75797 0.18783 -0.46000
O 	O 	0.04904 0.74203 0.81217 -0.46800
O 	O 	0.04904 0.24203 0.31217 -0.47800
O 	O 	0.54904 0.74203 0.31217 -0.45400
O 	O 	0.54904 0.24203 0.81217 -0.45200
O 	O 	0.95096 0.25797 0.81217 -0.41400
O 	O 	0.95096 0.75797 0.31217 -0.41600
O 	O 	0.45096 0.25797 0.31217 -0.45900
O 	O 	0.45096 0.75797 0.81217 -0.44900
O 	O 	0.95096 0.74203 0.18783 -0.42100
O 	O 	0.95096 0.24203 0.68783 -0.42000
O 	O 	0.45096 0.74203 0.68783 -0.45400
O 	O 	0.45096 0.24203 0.18783 -0.46400
Cu	Cu	0.21612 0.78388 -0.00000 0.92000
Cu	Cu	0.21612 0.28388 0.50000 0.95000
Cu	Cu	0.71612 0.78388 0.50000 0.95300
Cu	Cu	0.71612 0.28388 -0.00000 0.92000
Cu	Cu	0.78388 0.21612 -0.00000 0.92000
Cu	Cu	0.78388 0.71612 0.50000 0.95300
Cu	Cu	0.28388 0.21612 0.50000 0.95000
Cu	Cu	0.28388 0.71612 -0.00000 0.92000
Cu	Cu	0.78388 0.78388 -0.00000 0.92300
Cu	Cu	0.78388 0.28388 0.50000 0.95300
Cu	Cu	0.28388 0.78388 0.50000 0.95300
Cu	Cu	0.28388 0.28388 -0.00000 0.92000
Cu	Cu	0.21612 0.21612 -0.00000 0.91700
Cu	Cu	0.21612 0.71612 0.50000 0.95000
Cu	Cu	0.71612 0.21612 0.50000 0.95000
Cu	Cu	0.71612 0.71612 -0.00000 0.91900
Cu	Cu	-0.00000 0.21612 0.78388 0.92000
Cu	Cu	-0.00000 0.71612 0.28388 0.92000
Cu	Cu	0.50000 0.21612 0.28388 0.95000
Cu	Cu	0.50000 0.71612 0.78388 0.95300
Cu	Cu	0.00000 0.78388 0.21612 0.92000
Cu	Cu	-0.00000 0.28388 0.71612 0.92000
Cu	Cu	0.50000 0.78388 0.71612 0.95300
Cu	Cu	0.50000 0.28388 0.21612 0.95000
Cu	Cu	0.00000 0.78388 0.78388 0.92300
Cu	Cu	-0.00000 0.28388 0.28388 0.92000
Cu	Cu	0.50000 0.78388 0.28388 0.95300
Cu	Cu	0.50000 0.28388 0.78388 0.95300
Cu	Cu	0.00000 0.21612 0.21612 0.91700
Cu	Cu	-0.00000 0.71612 0.71612 0.91900
Cu	Cu	0.50000 0.21612 0.71612 0.95000
Cu	Cu	0.50000 0.71612 0.21612 0.95000
Cu	Cu	0.78388 0.00000 0.21612 0.92000
Cu	Cu	0.78388 0.50000 0.71612 0.95300
Cu	Cu	0.28388 -0.00000 0.71612 0.92000
Cu	Cu	0.28388 0.50000 0.21612 0.95000
Cu	Cu	0.21612 0.00000 0.78388 0.92000
Cu	Cu	0.21612 0.50000 0.28388 0.95000
Cu	Cu	0.71612 -0.00000 0.28388 0.92000
Cu	Cu	0.71612 0.50000 0.78388 0.95300
Cu	Cu	0.78388 0.00000 0.78388 0.92300
Cu	Cu	0.78388 0.50000 0.28388 0.95300
Cu	Cu	0.28388 -0.00000 0.28388 0.92000
Cu	Cu	0.28388 0.50000 0.78388 0.95300
Cu	Cu	0.21612 0.00000 0.21612 0.91700
Cu	Cu	0.21612 0.50000 0.71612 0.95000
Cu	Cu	0.71612 -0.00000 0.71612 0.91900
Cu	Cu	0.71612 0.50000 0.21612 0.95000
C 	C 	0.20441 0.70441 0.93008 0.48200
C 	C 	0.18112 0.68112 0.88378 -0.21300
C 	C 	0.20441 0.20441 0.43008 0.50300
C 	C 	0.18112 0.18112 0.38378 -0.24500
C 	C 	0.70441 0.70441 0.43008 0.49700
C 	C 	0.68112 0.68112 0.38378 -0.22500
C 	C 	0.79559 0.29559 0.93008 0.47900
C 	C 	0.81888 0.31888 0.88378 -0.19700
C 	C 	0.79559 0.79559 0.43008 0.49300
C 	C 	0.81888 0.81888 0.38378 -0.20600
C 	C 	0.79559 0.70441 0.06992 0.50100
C 	C 	0.81888 0.68112 0.11622 -0.22800
C 	C 	0.79559 0.20441 0.56992 0.49800
C 	C 	0.81888 0.18112 0.61622 -0.22400
C 	C 	0.20441 0.29559 0.06992 0.50800
C 	C 	0.18112 0.31888 0.11622 -0.25100
C 	C 	0.20441 0.79559 0.56992 0.49800
C 	C 	0.18112 0.81888 0.61622 -0.22400
C 	C 	0.70441 0.79559 0.06992 0.50100
C 	C 	0.68112 0.81888 0.11622 -0.22800
C 	C 	0.93008 0.20441 0.70441 0.48200
C 	C 	0.88378 0.18112 0.68112 -0.21300
C 	C 	0.43008 0.20441 0.20441 0.50300
C 	C 	0.38378 0.18112 0.18112 -0.24500
C 	C 	0.43008 0.70441 0.70441 0.49700
C 	C 	0.38378 0.68112 0.68112 -0.22500
C 	C 	0.93008 0.79559 0.29559 0.47900
C 	C 	0.88378 0.81888 0.31888 -0.19700
C 	C 	0.43008 0.79559 0.79559 0.49300
C 	C 	0.38378 0.81888 0.81888 -0.20600
C 	C 	0.06992 0.79559 0.70441 0.50100
C 	C 	0.11622 0.81888 0.68112 -0.22800
C 	C 	0.56992 0.79559 0.20441 0.49800
C 	C 	0.61622 0.81888 0.18112 -0.22400
C 	C 	0.06992 0.20441 0.29559 0.50800
C 	C 	0.11622 0.18112 0.31888 -0.25100
C 	C 	0.06992 0.70441 0.79559 0.50100
C 	C 	0.11622 0.68112 0.81888 -0.22800
C 	C 	0.56992 0.20441 0.79559 0.49800
C 	C 	0.61622 0.18112 0.81888 -0.22400
C 	C 	0.70441 0.93008 0.20441 0.48200
C 	C 	0.68112 0.88378 0.18112 -0.21300
C 	C 	0.70441 0.43008 0.70441 0.49700
C 	C 	0.68112 0.38378 0.68112 -0.22500
C 	C 	0.29559 0.93008 0.79559 0.47900
C 	C 	0.31888 0.88378 0.81888 -0.19700
C 	C 	0.29559 0.43008 0.29559 0.50100
C 	C 	0.31888 0.38378 0.31888 -0.23100
C 	C 	0.79559 0.43008 0.79559 0.49300
C 	C 	0.81888 0.38378 0.81888 -0.20600
C 	C 	0.70441 0.06992 0.79559 0.50100
C 	C 	0.68112 0.11622 0.81888 -0.22800
C 	C 	0.70441 0.56992 0.29559 0.49800
C 	C 	0.68112 0.61622 0.31888 -0.22600
C 	C 	0.29559 0.06992 0.20441 0.50800
C 	C 	0.31888 0.11622 0.18112 -0.25100
C 	C 	0.29559 0.56992 0.70441 0.49800
C 	C 	0.31888 0.61622 0.68112 -0.22600
C 	C 	0.79559 0.06992 0.70441 0.50100
C 	C 	0.81888 0.11622 0.68112 -0.22800
C 	C 	0.70441 0.20441 0.06992 0.50600
C 	C 	0.68112 0.18112 0.11622 -0.24800
C 	C 	0.70441 0.70441 0.56992 0.49700
C 	C 	0.68112 0.68112 0.61622 -0.22300
C 	C 	0.29559 0.79559 0.06992 0.50300
C 	C 	0.31888 0.81888 0.11622 -0.23200
C 	C 	0.29559 0.29559 0.56992 0.50000
C 	C 	0.31888 0.31888 0.61622 -0.23000
C 	C 	0.79559 0.79559 0.56992 0.49300
C 	C 	0.81888 0.81888 0.61622 -0.20400
C 	C 	0.70441 0.79559 0.93008 0.47800
C 	C 	0.68112 0.81888 0.88378 -0.19400
C 	C 	0.70441 0.29559 0.43008 0.49900
C 	C 	0.68112 0.31888 0.38378 -0.22800
C 	C 	0.29559 0.20441 0.93008 0.48400
C 	C 	0.31888 0.18112 0.88378 -0.21600
C 	C 	0.29559 0.70441 0.43008 0.49900
C 	C 	0.31888 0.68112 0.38378 -0.22800
C 	C 	0.79559 0.70441 0.93008 0.47800
C 	C 	0.81888 0.68112 0.88378 -0.19400
C 	C 	0.20441 0.93008 0.29559 0.48400
C 	C 	0.18112 0.88378 0.31888 -0.21600
C 	C 	0.20441 0.43008 0.79559 0.49800
C 	C 	0.18112 0.38378 0.81888 -0.22500
C 	C 	0.70441 0.93008 0.79559 0.47800
C 	C 	0.68112 0.88378 0.81888 -0.19400
C 	C 	0.79559 0.93008 0.70441 0.47800
C 	C 	0.81888 0.88378 0.68112 -0.19400
C 	C 	0.79559 0.43008 0.20441 0.49800
C 	C 	0.81888 0.38378 0.18112 -0.22500
C 	C 	0.79559 0.06992 0.29559 0.50300
C 	C 	0.81888 0.11622 0.31888 -0.23200
C 	C 	0.79559 0.56992 0.79559 0.49300
C 	C 	0.81888 0.61622 0.81888 -0.20400
C 	C 	0.20441 0.06992 0.70441 0.50600
C 	C 	0.18112 0.11622 0.68112 -0.24800
C 	C 	0.20441 0.56992 0.20441 0.50200
C 	C 	0.18112 0.61622 0.18112 -0.24300
C 	C 	0.70441 0.56992 0.70441 0.49700
C 	C 	0.68112 0.61622 0.68112 -0.22300
C 	C 	0.93008 0.70441 0.79559 0.47800
C 	C 	0.88378 0.68112 0.81888 -0.19400
C 	C 	0.43008 0.70441 0.29559 0.49900
C 	C 	0.38378 0.68112 0.31888 -0.22800
C 	C 	0.93008 0.29559 0.20441 0.48400
C 	C 	0.88378 0.31888 0.18112 -0.21600
C 	C 	0.93008 0.79559 0.70441 0.47800
C 	C 	0.88378 0.81888 0.68112 -0.19400
C 	C 	0.43008 0.29559 0.70441 0.49900
C 	C 	0.38378 0.31888 0.68112 -0.22800
C 	C 	0.06992 0.70441 0.20441 0.50600
C 	C 	0.11622 0.68112 0.18112 -0.24800
C 	C 	0.56992 0.70441 0.70441 0.49700
C 	C 	0.61622 0.68112 0.68112 -0.22300
C 	C 	0.06992 0.29559 0.79559 0.50300
C 	C 	0.11622 0.31888 0.81888 -0.23200
C 	C 	0.56992 0.29559 0.29559 0.50000
C 	C 	0.61622 0.31888 0.31888 -0.23000
C 	C 	0.56992 0.79559 0.79559 0.49300
C 	C 	0.61622 0.81888 0.81888 -0.20400
C 	C 	0.79559 0.29559 0.06992 0.50300
C 	C 	0.81888 0.31888 0.11622 -0.23200
C 	C 	0.20441 0.70441 0.06992 0.50600
C 	C 	0.18112 0.68112 0.11622 -0.24800
C 	C 	0.20441 0.20441 0.56992 0.50200
C 	C 	0.18112 0.18112 0.61622 -0.24300
C 	C 	0.20441 0.29559 0.93008 0.48400
C 	C 	0.18112 0.31888 0.88378 -0.21600
C 	C 	0.20441 0.79559 0.43008 0.49800
C 	C 	0.18112 0.81888 0.38378 -0.22500
C 	C 	0.79559 0.20441 0.43008 0.49800
C 	C 	0.81888 0.18112 0.38378 -0.22500
C 	C 	0.06992 0.79559 0.29559 0.50300
C 	C 	0.11622 0.81888 0.31888 -0.23200
C 	C 	0.06992 0.20441 0.70441 0.50600
C 	C 	0.11622 0.18112 0.68112 -0.24800
C 	C 	0.56992 0.20441 0.20441 0.50200
C 	C 	0.61622 0.18112 0.18112 -0.24300
C 	C 	0.93008 0.20441 0.29559 0.48400
C 	C 	0.88378 0.18112 0.31888 -0.21600
C 	C 	0.43008 0.20441 0.79559 0.49800
C 	C 	0.38378 0.18112 0.81888 -0.22500
C 	C 	0.43008 0.79559 0.20441 0.49800
C 	C 	0.38378 0.81888 0.18112 -0.22500
C 	C 	0.29559 0.06992 0.79559 0.50300
C 	C 	0.31888 0.11622 0.81888 -0.23200
C 	C 	0.29559 0.56992 0.29559 0.50000
C 	C 	0.31888 0.61622 0.31888 -0.23000
C 	C 	0.70441 0.06992 0.20441 0.50600
C 	C 	0.68112 0.11622 0.18112 -0.24800
C 	C 	0.29559 0.93008 0.20441 0.48400
C 	C 	0.31888 0.88378 0.18112 -0.21600
C 	C 	0.29559 0.43008 0.70441 0.49900
C 	C 	0.31888 0.38378 0.68112 -0.22800
C 	C 	0.70441 0.43008 0.29559 0.49900
C 	C 	0.68112 0.38378 0.31888 -0.22800
C 	C 	0.29559 0.79559 0.93008 0.47900
C 	C 	0.31888 0.81888 0.88378 -0.19700
C 	C 	0.29559 0.29559 0.43008 0.50100
C 	C 	0.31888 0.31888 0.38378 -0.23100
C 	C 	0.70441 0.20441 0.93008 0.48200
C 	C 	0.68112 0.18112 0.88378 -0.21300
C 	C 	0.29559 0.20441 0.06992 0.50800
C 	C 	0.31888 0.18112 0.11622 -0.25100
C 	C 	0.29559 0.70441 0.56992 0.49800
C 	C 	0.31888 0.68112 0.61622 -0.22600
C 	C 	0.70441 0.29559 0.56992 0.49800
C 	C 	0.68112 0.31888 0.61622 -0.22600
C 	C 	0.79559 0.56992 0.20441 0.49800
C 	C 	0.81888 0.61622 0.18112 -0.22400
C 	C 	0.20441 0.06992 0.29559 0.50800
C 	C 	0.18112 0.11622 0.31888 -0.25100
C 	C 	0.20441 0.56992 0.79559 0.49800
C 	C 	0.18112 0.61622 0.81888 -0.22400
C 	C 	0.20441 0.93008 0.70441 0.48200
C 	C 	0.18112 0.88378 0.68112 -0.21300
C 	C 	0.20441 0.43008 0.20441 0.50300
C 	C 	0.18112 0.38378 0.18112 -0.24500
C 	C 	0.79559 0.93008 0.29559 0.47900
C 	C 	0.81888 0.88378 0.31888 -0.19700
C 	C 	0.06992 0.29559 0.20441 0.50800
C 	C 	0.11622 0.31888 0.18112 -0.25100
C 	C 	0.56992 0.29559 0.70441 0.49800
C 	C 	0.61622 0.31888 0.68112 -0.22600
C 	C 	0.56992 0.70441 0.29559 0.49800
C 	C 	0.61622 0.68112 0.31888 -0.22600
C 	C 	0.93008 0.29559 0.79559 0.47900
C 	C 	0.88378 0.31888 0.81888 -0.19700
C 	C 	0.43008 0.29559 0.29559 0.50100
C 	C 	0.38378 0.31888 0.31888 -0.23100
C 	C 	0.93008 0.70441 0.20441 0.48200
C 	C 	0.88378 0.68112 0.18112 -0.21300
C 	C 	0.20276 0.63785 0.86215 0.15800
H 	H 	0.23101 0.62373 0.87627 0.00800
C 	C 	0.70276 0.63785 0.36215 0.16400
H 	H 	0.73101 0.62373 0.37627 0.00200
C 	C 	0.79724 0.36215 0.86215 0.14800
H 	H 	0.76899 0.37627 0.87627 0.01400
C 	C 	0.29724 0.36215 0.36215 0.16900
H 	H 	0.26899 0.37627 0.37627 -0.00300
C 	C 	0.29724 0.86215 0.86215 0.14500
H 	H 	0.26899 0.87627 0.87627 0.01900
C 	C 	0.79724 0.63785 0.13785 0.16300
H 	H 	0.76899 0.62373 0.12373 -0.00400
C 	C 	0.29724 0.63785 0.63785 0.16500
H 	H 	0.26899 0.62373 0.62373 -0.00200
C 	C 	0.20276 0.36215 0.13785 0.17800
H 	H 	0.23101 0.37627 0.12373 -0.01200
C 	C 	0.20276 0.86215 0.63785 0.15800
H 	H 	0.23101 0.87627 0.62373 0.00800
C 	C 	0.70276 0.36215 0.63785 0.16400
H 	H 	0.73101 0.37627 0.62373 0.00200
C 	C 	0.86215 0.20276 0.63785 0.15800
H 	H 	0.87627 0.23101 0.62373 0.00800
C 	C 	0.86215 0.70276 0.13785 0.15900
H 	H 	0.87627 0.73101 0.12373 0.00500
C 	C 	0.86215 0.79724 0.36215 0.14800
H 	H 	0.87627 0.76899 0.37627 0.01400
C 	C 	0.86215 0.29724 0.86215 0.14500
H 	H 	0.87627 0.26899 0.87627 0.01900
C 	C 	0.13785 0.79724 0.63785 0.16300
H 	H 	0.12373 0.76899 0.62373 -0.00400
C 	C 	0.13785 0.29724 0.13785 0.18000
H 	H 	0.12373 0.26899 0.12373 -0.01900
C 	C 	0.63785 0.29724 0.63785 0.16500
H 	H 	0.62373 0.26899 0.62373 -0.00200
C 	C 	0.13785 0.20276 0.36215 0.17800
H 	H 	0.12373 0.23101 0.37627 -0.01200
C 	C 	0.13785 0.70276 0.86215 0.15900
H 	H 	0.12373 0.73101 0.87627 0.00500
C 	C 	0.63785 0.20276 0.86215 0.15800
H 	H 	0.62373 0.23101 0.87627 0.00800
C 	C 	0.63785 0.86215 0.20276 0.15800
H 	H 	0.62373 0.87627 0.23101 0.00800
C 	C 	0.63785 0.36215 0.70276 0.16400
H 	H 	0.62373 0.37627 0.73101 0.00200
C 	C 	0.36215 0.86215 0.79724 0.14800
H 	H 	0.37627 0.87627 0.76899 0.01400
C 	C 	0.36215 0.36215 0.29724 0.16900
H 	H 	0.37627 0.37627 0.26899 -0.00300
C 	C 	0.86215 0.86215 0.29724 0.14500
H 	H 	0.87627 0.87627 0.26899 0.01900
C 	C 	0.63785 0.13785 0.79724 0.16300
H 	H 	0.62373 0.12373 0.76899 -0.00400
C 	C 	0.63785 0.63785 0.29724 0.16500
H 	H 	0.62373 0.62373 0.26899 -0.00200
C 	C 	0.36215 0.13785 0.20276 0.17800
H 	H 	0.37627 0.12373 0.23101 -0.01200
C 	C 	0.36215 0.63785 0.70276 0.16400
H 	H 	0.37627 0.62373 0.73101 0.00200
C 	C 	0.86215 0.63785 0.20276 0.15800
H 	H 	0.87627 0.62373 0.23101 0.00800
C 	C 	0.63785 0.20276 0.13785 0.17600
H 	H 	0.62373 0.23101 0.12373 -0.01100
C 	C 	0.63785 0.70276 0.63785 0.16100
H 	H 	0.62373 0.73101 0.62373 0.00300
C 	C 	0.36215 0.79724 0.13785 0.16600
H 	H 	0.37627 0.76899 0.12373 -0.00500
C 	C 	0.36215 0.29724 0.63785 0.16700
H 	H 	0.37627 0.26899 0.62373 -0.00200
C 	C 	0.86215 0.79724 0.63785 0.14600
H 	H 	0.87627 0.76899 0.62373 0.01500
C 	C 	0.63785 0.79724 0.86215 0.14600
H 	H 	0.62373 0.76899 0.87627 0.01500
C 	C 	0.63785 0.29724 0.36215 0.16700
H 	H 	0.62373 0.26899 0.37627 -0.00200
C 	C 	0.36215 0.20276 0.86215 0.16000
H 	H 	0.37627 0.23101 0.87627 0.00700
C 	C 	0.36215 0.70276 0.36215 0.16600
H 	H 	0.37627 0.73101 0.37627 0.00200
C 	C 	0.86215 0.70276 0.86215 0.14200
H 	H 	0.87627 0.73101 0.87627 0.02300
C 	C 	0.20276 0.86215 0.36215 0.16000
H 	H 	0.23101 0.87627 0.37627 0.00700
C 	C 	0.70276 0.86215 0.86215 0.14200
H 	H 	0.73101 0.87627 0.87627 0.02300
C 	C 	0.79724 0.86215 0.63785 0.14600
H 	H 	0.76899 0.87627 0.62373 0.01500
C 	C 	0.29724 0.86215 0.13785 0.16300
H 	H 	0.26899 0.87627 0.12373 -0.00000
C 	C 	0.79724 0.13785 0.36215 0.16600
H 	H 	0.76899 0.12373 0.37627 -0.00500
C 	C 	0.79724 0.63785 0.86215 0.14600
H 	H 	0.76899 0.62373 0.87627 0.01500
C 	C 	0.29724 0.13785 0.86215 0.16300
H 	H 	0.26899 0.12373 0.87627 -0.00000
C 	C 	0.20276 0.13785 0.63785 0.17600
H 	H 	0.23101 0.12373 0.62373 -0.01100
C 	C 	0.70276 0.13785 0.13785 0.17700
H 	H 	0.73101 0.12373 0.12373 -0.01400
C 	C 	0.70276 0.63785 0.63785 0.16100
H 	H 	0.73101 0.62373 0.62373 0.00300
C 	C 	0.86215 0.63785 0.79724 0.14600
H 	H 	0.87627 0.62373 0.76899 0.01500
C 	C 	0.86215 0.13785 0.29724 0.16300
H 	H 	0.87627 0.12373 0.26899 -0.00000
C 	C 	0.86215 0.36215 0.20276 0.16000
H 	H 	0.87627 0.37627 0.23101 0.00700
C 	C 	0.86215 0.86215 0.70276 0.14200
H 	H 	0.87627 0.87627 0.73101 0.02300
C 	C 	0.13785 0.63785 0.20276 0.17600
H 	H 	0.12373 0.62373 0.23101 -0.01100
C 	C 	0.13785 0.13785 0.70276 0.17700
H 	H 	0.12373 0.12373 0.73101 -0.01400
C 	C 	0.63785 0.63785 0.70276 0.16100
H 	H 	0.62373 0.62373 0.73101 0.00300
C 	C 	0.13785 0.36215 0.79724 0.16600
H 	H 	0.12373 0.37627 0.76899 -0.00500
C 	C 	0.13785 0.86215 0.29724 0.16300
H 	H 	0.12373 0.87627 0.26899 -0.00000
C 	C 	0.63785 0.86215 0.79724 0.14600
H 	H 	0.62373 0.87627 0.76899 0.01500
C 	C 	0.79724 0.36215 0.13785 0.16600
H 	H 	0.76899 0.37627 0.12373 -0.00500
C 	C 	0.29724 0.36215 0.63785 0.16700
H 	H 	0.26899 0.37627 0.62373 -0.00200
C 	C 	0.20276 0.63785 0.13785 0.17600
H 	H 	0.23101 0.62373 0.12373 -0.01100
C 	C 	0.20276 0.36215 0.86215 0.16000
H 	H 	0.23101 0.37627 0.87627 0.00700
C 	C 	0.70276 0.36215 0.36215 0.16600
H 	H 	0.73101 0.37627 0.37627 0.00200
C 	C 	0.29724 0.63785 0.36215 0.16700
H 	H 	0.26899 0.62373 0.37627 -0.00200
C 	C 	0.13785 0.79724 0.36215 0.16600
H 	H 	0.12373 0.76899 0.37627 -0.00500
C 	C 	0.13785 0.29724 0.86215 0.16300
H 	H 	0.12373 0.26899 0.87627 -0.00000
C 	C 	0.13785 0.20276 0.63785 0.17600
H 	H 	0.12373 0.23101 0.62373 -0.01100
C 	C 	0.13785 0.70276 0.13785 0.17700
H 	H 	0.12373 0.73101 0.12373 -0.01400
C 	C 	0.86215 0.20276 0.36215 0.16000
H 	H 	0.87627 0.23101 0.37627 0.00700
C 	C 	0.86215 0.29724 0.13785 0.16300
H 	H 	0.87627 0.26899 0.12373 -0.00000
C 	C 	0.36215 0.13785 0.79724 0.16600
H 	H 	0.37627 0.12373 0.76899 -0.00500
C 	C 	0.36215 0.63785 0.29724 0.16700
H 	H 	0.37627 0.62373 0.26899 -0.00200
C 	C 	0.63785 0.13785 0.20276 0.17600
H 	H 	0.62373 0.12373 0.23101 -0.01100
C 	C 	0.36215 0.86215 0.20276 0.16000
H 	H 	0.37627 0.87627 0.23101 0.00700
C 	C 	0.36215 0.36215 0.70276 0.16600
H 	H 	0.37627 0.37627 0.73101 0.00200
C 	C 	0.63785 0.36215 0.29724 0.16700
H 	H 	0.62373 0.37627 0.26899 -0.00200
C 	C 	0.36215 0.79724 0.86215 0.14800
H 	H 	0.37627 0.76899 0.87627 0.01400
C 	C 	0.36215 0.29724 0.36215 0.16900
H 	H 	0.37627 0.26899 0.37627 -0.00300
C 	C 	0.63785 0.70276 0.36215 0.16400
H 	H 	0.62373 0.73101 0.37627 0.00200
C 	C 	0.36215 0.20276 0.13785 0.17800
H 	H 	0.37627 0.23101 0.12373 -0.01200
C 	C 	0.36215 0.70276 0.63785 0.16400
H 	H 	0.37627 0.73101 0.62373 0.00200
C 	C 	0.63785 0.79724 0.13785 0.16300
H 	H 	0.62373 0.76899 0.12373 -0.00400
C 	C 	0.79724 0.13785 0.63785 0.16300
H 	H 	0.76899 0.12373 0.62373 -0.00400
C 	C 	0.29724 0.13785 0.13785 0.18000
H 	H 	0.26899 0.12373 0.12373 -0.01900
C 	C 	0.20276 0.13785 0.36215 0.17800
H 	H 	0.23101 0.12373 0.37627 -0.01200
C 	C 	0.70276 0.13785 0.86215 0.15900
H 	H 	0.73101 0.12373 0.87627 0.00500
C 	C 	0.70276 0.86215 0.13785 0.15900
H 	H 	0.73101 0.87627 0.12373 0.00500
C 	C 	0.79724 0.86215 0.36215 0.14800
H 	H 	0.76899 0.87627 0.37627 0.01400
C 	C 	0.13785 0.36215 0.20276 0.17800
H 	H 	0.12373 0.37627 0.23101 -0.01200
C 	C 	0.13785 0.86215 0.70276 0.15900
H 	H 	0.12373 0.87627 0.73101 0.00500
C 	C 	0.13785 0.63785 0.79724 0.16300
H 	H 	0.12373 0.62373 0.76899 -0.00400
C 	C 	0.13785 0.13785 0.29724 0.18000
H 	H 	0.12373 0.12373 0.26899 -0.01900
C 	C 	0.86215 0.36215 0.79724 0.14800
H 	H 	0.87627 0.37627 0.76899 0.01400
C 	C 	0.86215 0.13785 0.70276 0.15900
H 	H 	0.87627 0.12373 0.73101 0.00500
