data_crystal

_cell_length_a 26.31670
_cell_length_b 26.31670
_cell_length_c 26.31670
_cell_angle_alpha 90.00000
_cell_angle_beta  90.00000
_cell_angle_gamma 90.00000

_symmetry_space_group_name_	'P 1'
_symmetry_space_group_name_H-M	'P 1'

loop_
_symmetry_equiv_pos_as_xyz
  x,y,z

loop_
_atom_site_label
_atom_site_type_symbol
_atom_site_fract_x
_atom_site_fract_y
_atom_site_fract_z
_atom_site_charge
O 	O 	0.18034 0.73992 0.95144 -0.37600
O 	O 	0.18034 0.23992 0.45144 -0.41400
O 	O 	0.68034 0.73992 0.45144 -0.40500
O 	O 	0.68034 0.23992 0.95144 -0.37500
O 	O 	0.81966 0.26008 0.95144 -0.37000
O 	O 	0.81966 0.76008 0.45144 -0.40000
O 	O 	0.31966 0.26008 0.45144 -0.41000
O 	O 	0.31966 0.76008 0.95144 -0.37200
O 	O 	0.81966 0.73992 0.04856 -0.41900
O 	O 	0.81966 0.23992 0.54856 -0.40300
O 	O 	0.31966 0.73992 0.54856 -0.40500
O 	O 	0.31966 0.23992 0.04856 -0.42900
O 	O 	0.18034 0.26008 0.04856 -0.43400
O 	O 	0.18034 0.76008 0.54856 -0.41100
O 	O 	0.68034 0.26008 0.54856 -0.40900
O 	O 	0.68034 0.76008 0.04856 -0.42500
O 	O 	0.95144 0.18034 0.73992 -0.37600
O 	O 	0.95144 0.68034 0.23992 -0.37500
O 	O 	0.45144 0.18034 0.23992 -0.41400
O 	O 	0.45144 0.68034 0.73992 -0.40500
O 	O 	0.95144 0.81966 0.26008 -0.37000
O 	O 	0.95144 0.31966 0.76008 -0.37200
O 	O 	0.45144 0.81966 0.76008 -0.40000
O 	O 	0.45144 0.31966 0.26008 -0.41000
O 	O 	0.04856 0.81966 0.73992 -0.41900
O 	O 	0.04856 0.31966 0.23992 -0.42900
O 	O 	0.54856 0.81966 0.23992 -0.40300
O 	O 	0.54856 0.31966 0.73992 -0.40500
O 	O 	0.04856 0.18034 0.26008 -0.43400
O 	O 	0.04856 0.68034 0.76008 -0.42500
O 	O 	0.54856 0.18034 0.76008 -0.41100
O 	O 	0.54856 0.68034 0.26008 -0.40900
O 	O 	0.73992 0.95144 0.18034 -0.37600
O 	O 	0.73992 0.45144 0.68034 -0.40500
O 	O 	0.23992 0.95144 0.68034 -0.37500
O 	O 	0.23992 0.45144 0.18034 -0.41400
O 	O 	0.26008 0.95144 0.81966 -0.37000
O 	O 	0.26008 0.45144 0.31966 -0.41000
O 	O 	0.76008 0.95144 0.31966 -0.37200
O 	O 	0.76008 0.45144 0.81966 -0.40000
O 	O 	0.73992 0.04856 0.81966 -0.41900
O 	O 	0.73992 0.54856 0.31966 -0.40500
O 	O 	0.23992 0.04856 0.31966 -0.42900
O 	O 	0.23992 0.54856 0.81966 -0.40300
O 	O 	0.26008 0.04856 0.18034 -0.43400
O 	O 	0.26008 0.54856 0.68034 -0.40900
O 	O 	0.76008 0.04856 0.68034 -0.42500
O 	O 	0.76008 0.54856 0.18034 -0.41100
O 	O 	0.73992 0.18034 0.04856 -0.43000
O 	O 	0.73992 0.68034 0.54856 -0.40500
O 	O 	0.23992 0.18034 0.54856 -0.41400
O 	O 	0.23992 0.68034 0.04856 -0.42800
O 	O 	0.26008 0.81966 0.04856 -0.42300
O 	O 	0.26008 0.31966 0.54856 -0.41000
O 	O 	0.76008 0.81966 0.54856 -0.40000
O 	O 	0.76008 0.31966 0.04856 -0.42500
O 	O 	0.73992 0.81966 0.95144 -0.36600
O 	O 	0.73992 0.31966 0.45144 -0.40600
O 	O 	0.23992 0.81966 0.45144 -0.40300
O 	O 	0.23992 0.31966 0.95144 -0.37500
O 	O 	0.26008 0.18034 0.95144 -0.38000
O 	O 	0.26008 0.68034 0.45144 -0.40900
O 	O 	0.76008 0.18034 0.45144 -0.41100
O 	O 	0.76008 0.68034 0.95144 -0.37200
O 	O 	0.18034 0.95144 0.26008 -0.38000
O 	O 	0.18034 0.45144 0.76008 -0.41100
O 	O 	0.68034 0.95144 0.76008 -0.37200
O 	O 	0.68034 0.45144 0.26008 -0.40900
O 	O 	0.81966 0.95144 0.73992 -0.36600
O 	O 	0.81966 0.45144 0.23992 -0.40300
O 	O 	0.31966 0.95144 0.23992 -0.37500
O 	O 	0.31966 0.45144 0.73992 -0.40600
O 	O 	0.81966 0.04856 0.26008 -0.42300
O 	O 	0.81966 0.54856 0.76008 -0.40000
O 	O 	0.31966 0.04856 0.76008 -0.42500
O 	O 	0.31966 0.54856 0.26008 -0.41000
O 	O 	0.18034 0.04856 0.73992 -0.43000
O 	O 	0.18034 0.54856 0.23992 -0.41400
O 	O 	0.68034 0.04856 0.23992 -0.42800
O 	O 	0.68034 0.54856 0.73992 -0.40500
O 	O 	0.95144 0.73992 0.81966 -0.36600
O 	O 	0.95144 0.23992 0.31966 -0.37500
O 	O 	0.45144 0.73992 0.31966 -0.40600
O 	O 	0.45144 0.23992 0.81966 -0.40300
O 	O 	0.95144 0.26008 0.18034 -0.38000
O 	O 	0.95144 0.76008 0.68034 -0.37200
O 	O 	0.45144 0.26008 0.68034 -0.40900
O 	O 	0.45144 0.76008 0.18034 -0.41100
O 	O 	0.04856 0.73992 0.18034 -0.43000
O 	O 	0.04856 0.23992 0.68034 -0.42800
O 	O 	0.54856 0.73992 0.68034 -0.40500
O 	O 	0.54856 0.23992 0.18034 -0.41400
O 	O 	0.04856 0.26008 0.81966 -0.42300
O 	O 	0.04856 0.76008 0.31966 -0.42500
O 	O 	0.54856 0.26008 0.31966 -0.41000
O 	O 	0.54856 0.76008 0.81966 -0.40000
O 	O 	0.81966 0.26008 0.04856 -0.42300
O 	O 	0.81966 0.76008 0.54856 -0.40000
O 	O 	0.31966 0.26008 0.54856 -0.41000
O 	O 	0.31966 0.76008 0.04856 -0.42500
O 	O 	0.18034 0.73992 0.04856 -0.43000
O 	O 	0.18034 0.23992 0.54856 -0.41400
O 	O 	0.68034 0.73992 0.54856 -0.40500
O 	O 	0.68034 0.23992 0.04856 -0.42800
O 	O 	0.18034 0.26008 0.95144 -0.38000
O 	O 	0.18034 0.76008 0.45144 -0.41100
O 	O 	0.68034 0.26008 0.45144 -0.40900
O 	O 	0.68034 0.76008 0.95144 -0.37200
O 	O 	0.81966 0.73992 0.95144 -0.36600
O 	O 	0.81966 0.23992 0.45144 -0.40300
O 	O 	0.31966 0.73992 0.45144 -0.40600
O 	O 	0.31966 0.23992 0.95144 -0.37500
O 	O 	0.04856 0.81966 0.26008 -0.42300
O 	O 	0.04856 0.31966 0.76008 -0.42500
O 	O 	0.54856 0.81966 0.76008 -0.40000
O 	O 	0.54856 0.31966 0.26008 -0.41000
O 	O 	0.04856 0.18034 0.73992 -0.43000
O 	O 	0.04856 0.68034 0.23992 -0.42800
O 	O 	0.54856 0.18034 0.23992 -0.41400
O 	O 	0.54856 0.68034 0.73992 -0.40500
O 	O 	0.95144 0.18034 0.26008 -0.38000
O 	O 	0.95144 0.68034 0.76008 -0.37200
O 	O 	0.45144 0.18034 0.76008 -0.41100
O 	O 	0.45144 0.68034 0.26008 -0.40900
O 	O 	0.95144 0.81966 0.73992 -0.36600
O 	O 	0.95144 0.31966 0.23992 -0.37500
O 	O 	0.45144 0.81966 0.23992 -0.40300
O 	O 	0.45144 0.31966 0.73992 -0.40600
O 	O 	0.26008 0.04856 0.81966 -0.42300
O 	O 	0.26008 0.54856 0.31966 -0.41000
O 	O 	0.76008 0.04856 0.31966 -0.42500
O 	O 	0.76008 0.54856 0.81966 -0.40000
O 	O 	0.73992 0.04856 0.18034 -0.43000
O 	O 	0.73992 0.54856 0.68034 -0.40500
O 	O 	0.23992 0.04856 0.68034 -0.42800
O 	O 	0.23992 0.54856 0.18034 -0.41400
O 	O 	0.26008 0.95144 0.18034 -0.38000
O 	O 	0.26008 0.45144 0.68034 -0.40900
O 	O 	0.76008 0.95144 0.68034 -0.37200
O 	O 	0.76008 0.45144 0.18034 -0.41100
O 	O 	0.73992 0.95144 0.81966 -0.36600
O 	O 	0.73992 0.45144 0.31966 -0.40600
O 	O 	0.23992 0.95144 0.31966 -0.37500
O 	O 	0.23992 0.45144 0.81966 -0.40300
O 	O 	0.26008 0.81966 0.95144 -0.37000
O 	O 	0.26008 0.31966 0.45144 -0.41000
O 	O 	0.76008 0.81966 0.45144 -0.40000
O 	O 	0.76008 0.31966 0.95144 -0.37200
O 	O 	0.73992 0.18034 0.95144 -0.37600
O 	O 	0.73992 0.68034 0.45144 -0.40500
O 	O 	0.23992 0.18034 0.45144 -0.41400
O 	O 	0.23992 0.68034 0.95144 -0.37500
O 	O 	0.26008 0.18034 0.04856 -0.43400
O 	O 	0.26008 0.68034 0.54856 -0.40900
O 	O 	0.76008 0.18034 0.54856 -0.41100
O 	O 	0.76008 0.68034 0.04856 -0.42500
O 	O 	0.73992 0.81966 0.04856 -0.41900
O 	O 	0.73992 0.31966 0.54856 -0.40500
O 	O 	0.23992 0.81966 0.54856 -0.40300
O 	O 	0.23992 0.31966 0.04856 -0.42900
O 	O 	0.81966 0.04856 0.73992 -0.41900
O 	O 	0.81966 0.54856 0.23992 -0.40300
O 	O 	0.31966 0.04856 0.23992 -0.42900
O 	O 	0.31966 0.54856 0.73992 -0.40500
O 	O 	0.18034 0.04856 0.26008 -0.43400
O 	O 	0.18034 0.54856 0.76008 -0.41100
O 	O 	0.68034 0.04856 0.76008 -0.42500
O 	O 	0.68034 0.54856 0.26008 -0.40900
O 	O 	0.18034 0.95144 0.73992 -0.37600
O 	O 	0.18034 0.45144 0.23992 -0.41400
O 	O 	0.68034 0.95144 0.23992 -0.37500
O 	O 	0.68034 0.45144 0.73992 -0.40500
O 	O 	0.81966 0.95144 0.26008 -0.37000
O 	O 	0.81966 0.45144 0.76008 -0.40000
O 	O 	0.31966 0.95144 0.76008 -0.37200
O 	O 	0.31966 0.45144 0.26008 -0.41000
O 	O 	0.04856 0.26008 0.18034 -0.43400
O 	O 	0.04856 0.76008 0.68034 -0.42500
O 	O 	0.54856 0.26008 0.68034 -0.40900
O 	O 	0.54856 0.76008 0.18034 -0.41100
O 	O 	0.04856 0.73992 0.81966 -0.41900
O 	O 	0.04856 0.23992 0.31966 -0.42900
O 	O 	0.54856 0.73992 0.31966 -0.40500
O 	O 	0.54856 0.23992 0.81966 -0.40300
O 	O 	0.95144 0.26008 0.81966 -0.37000
O 	O 	0.95144 0.76008 0.31966 -0.37200
O 	O 	0.45144 0.26008 0.31966 -0.41000
O 	O 	0.45144 0.76008 0.81966 -0.40000
O 	O 	0.95144 0.73992 0.18034 -0.37600
O 	O 	0.95144 0.23992 0.68034 -0.37500
O 	O 	0.45144 0.73992 0.68034 -0.40500
O 	O 	0.45144 0.23992 0.18034 -0.41400
Cu	Cu	0.21473 0.78527 -0.00000 0.87300
Cu	Cu	0.21473 0.28527 0.50000 0.90000
Cu	Cu	0.71473 0.78527 0.50000 0.90300
Cu	Cu	0.71473 0.28527 -0.00000 0.87300
Cu	Cu	0.78527 0.21473 -0.00000 0.87300
Cu	Cu	0.78527 0.71473 0.50000 0.90300
Cu	Cu	0.28527 0.21473 0.50000 0.90000
Cu	Cu	0.28527 0.71473 -0.00000 0.87300
Cu	Cu	0.78527 0.78527 -0.00000 0.87600
Cu	Cu	0.78527 0.28527 0.50000 0.90300
Cu	Cu	0.28527 0.78527 0.50000 0.90300
Cu	Cu	0.28527 0.28527 -0.00000 0.87300
Cu	Cu	0.21473 0.21473 -0.00000 0.87000
Cu	Cu	0.21473 0.71473 0.50000 0.90000
Cu	Cu	0.71473 0.21473 0.50000 0.90000
Cu	Cu	0.71473 0.71473 -0.00000 0.87300
Cu	Cu	-0.00000 0.21473 0.78527 0.87300
Cu	Cu	0.00000 0.71473 0.28527 0.87300
Cu	Cu	0.50000 0.21473 0.28527 0.90000
Cu	Cu	0.50000 0.71473 0.78527 0.90300
Cu	Cu	-0.00000 0.78527 0.21473 0.87300
Cu	Cu	0.00000 0.28527 0.71473 0.87300
Cu	Cu	0.50000 0.78527 0.71473 0.90300
Cu	Cu	0.50000 0.28527 0.21473 0.90000
Cu	Cu	-0.00000 0.78527 0.78527 0.87600
Cu	Cu	0.00000 0.28527 0.28527 0.87300
Cu	Cu	0.50000 0.78527 0.28527 0.90300
Cu	Cu	0.50000 0.28527 0.78527 0.90300
Cu	Cu	0.00000 0.21473 0.21473 0.87000
Cu	Cu	0.00000 0.71473 0.71473 0.87300
Cu	Cu	0.50000 0.21473 0.71473 0.90000
Cu	Cu	0.50000 0.71473 0.21473 0.90000
Cu	Cu	0.78527 0.00000 0.21473 0.87300
Cu	Cu	0.78527 0.50000 0.71473 0.90300
Cu	Cu	0.28527 0.00000 0.71473 0.87300
Cu	Cu	0.28527 0.50000 0.21473 0.90000
Cu	Cu	0.21473 -0.00000 0.78527 0.87300
Cu	Cu	0.21473 0.50000 0.28527 0.90000
Cu	Cu	0.71473 0.00000 0.28527 0.87300
Cu	Cu	0.71473 0.50000 0.78527 0.90300
Cu	Cu	0.78527 -0.00000 0.78527 0.87600
Cu	Cu	0.78527 0.50000 0.28527 0.90300
Cu	Cu	0.28527 0.00000 0.28527 0.87300
Cu	Cu	0.28527 0.50000 0.78527 0.90300
Cu	Cu	0.21473 0.00000 0.21473 0.87000
Cu	Cu	0.21473 0.50000 0.71473 0.90000
Cu	Cu	0.71473 0.00000 0.71473 0.87300
Cu	Cu	0.71473 0.50000 0.21473 0.90000
C 	C 	0.20124 0.70124 0.93375 0.37100
C 	C 	0.17793 0.67793 0.88729 -0.11000
C 	C 	0.20124 0.20124 0.43375 0.38200
C 	C 	0.17793 0.17793 0.38729 -0.13200
C 	C 	0.70124 0.70124 0.43375 0.37800
C 	C 	0.67793 0.67793 0.38729 -0.11700
C 	C 	0.79876 0.29876 0.93375 0.37000
C 	C 	0.82207 0.32207 0.88729 -0.09900
C 	C 	0.79876 0.79876 0.43375 0.37600
C 	C 	0.82207 0.82207 0.38729 -0.10500
C 	C 	0.79876 0.70124 0.06625 0.38000
C 	C 	0.82207 0.67793 0.11271 -0.12100
C 	C 	0.79876 0.20124 0.56625 0.37900
C 	C 	0.82207 0.17793 0.61271 -0.11700
C 	C 	0.20124 0.29876 0.06625 0.38400
C 	C 	0.17793 0.32207 0.11271 -0.13700
C 	C 	0.20124 0.79876 0.56625 0.37900
C 	C 	0.17793 0.82207 0.61271 -0.11700
C 	C 	0.70124 0.79876 0.06625 0.38000
C 	C 	0.67793 0.82207 0.11271 -0.12100
C 	C 	0.93375 0.20124 0.70124 0.37100
C 	C 	0.88729 0.17793 0.67793 -0.11000
C 	C 	0.43375 0.20124 0.20124 0.38200
C 	C 	0.38729 0.17793 0.17793 -0.13200
C 	C 	0.43375 0.70124 0.70124 0.37800
C 	C 	0.38729 0.67793 0.67793 -0.11700
C 	C 	0.93375 0.79876 0.29876 0.37000
C 	C 	0.88729 0.82207 0.32207 -0.09900
C 	C 	0.43375 0.79876 0.79876 0.37600
C 	C 	0.38729 0.82207 0.82207 -0.10500
C 	C 	0.06625 0.79876 0.70124 0.38000
C 	C 	0.11271 0.82207 0.67793 -0.12100
C 	C 	0.56625 0.79876 0.20124 0.37900
C 	C 	0.61271 0.82207 0.17793 -0.11700
C 	C 	0.06625 0.20124 0.29876 0.38400
C 	C 	0.11271 0.17793 0.32207 -0.13700
C 	C 	0.06625 0.70124 0.79876 0.38000
C 	C 	0.11271 0.67793 0.82207 -0.12100
C 	C 	0.56625 0.20124 0.79876 0.37900
C 	C 	0.61271 0.17793 0.82207 -0.11700
C 	C 	0.70124 0.93375 0.20124 0.37100
C 	C 	0.67793 0.88729 0.17793 -0.11000
C 	C 	0.70124 0.43375 0.70124 0.37800
C 	C 	0.67793 0.38729 0.67793 -0.11700
C 	C 	0.29876 0.93375 0.79876 0.37000
C 	C 	0.32207 0.88729 0.82207 -0.09900
C 	C 	0.29876 0.43375 0.29876 0.38100
C 	C 	0.32207 0.38729 0.32207 -0.12200
C 	C 	0.79876 0.43375 0.79876 0.37600
C 	C 	0.82207 0.38729 0.82207 -0.10500
C 	C 	0.70124 0.06625 0.79876 0.38000
C 	C 	0.67793 0.11271 0.82207 -0.12100
C 	C 	0.70124 0.56625 0.29876 0.37900
C 	C 	0.67793 0.61271 0.32207 -0.11800
C 	C 	0.29876 0.06625 0.20124 0.38400
C 	C 	0.32207 0.11271 0.17793 -0.13700
C 	C 	0.29876 0.56625 0.70124 0.37900
C 	C 	0.32207 0.61271 0.67793 -0.11800
C 	C 	0.79876 0.06625 0.70124 0.38000
C 	C 	0.82207 0.11271 0.67793 -0.12100
C 	C 	0.70124 0.20124 0.06625 0.38300
C 	C 	0.67793 0.17793 0.11271 -0.13400
C 	C 	0.70124 0.70124 0.56625 0.37700
C 	C 	0.67793 0.67793 0.61271 -0.11600
C 	C 	0.29876 0.79876 0.06625 0.38100
C 	C 	0.32207 0.82207 0.11271 -0.12300
C 	C 	0.29876 0.29876 0.56625 0.38100
C 	C 	0.32207 0.32207 0.61271 -0.12100
C 	C 	0.79876 0.79876 0.56625 0.37600
C 	C 	0.82207 0.82207 0.61271 -0.10300
C 	C 	0.70124 0.79876 0.93375 0.36900
C 	C 	0.67793 0.82207 0.88729 -0.09700
C 	C 	0.70124 0.29876 0.43375 0.37900
C 	C 	0.67793 0.32207 0.38729 -0.11900
C 	C 	0.29876 0.20124 0.93375 0.37300
C 	C 	0.32207 0.17793 0.88729 -0.11300
C 	C 	0.29876 0.70124 0.43375 0.37900
C 	C 	0.32207 0.67793 0.38729 -0.11900
C 	C 	0.79876 0.70124 0.93375 0.36900
C 	C 	0.82207 0.67793 0.88729 -0.09700
C 	C 	0.20124 0.93375 0.29876 0.37300
C 	C 	0.17793 0.88729 0.32207 -0.11300
C 	C 	0.20124 0.43375 0.79876 0.37900
C 	C 	0.17793 0.38729 0.82207 -0.11800
C 	C 	0.70124 0.93375 0.79876 0.36900
C 	C 	0.67793 0.88729 0.82207 -0.09700
C 	C 	0.79876 0.93375 0.70124 0.36900
C 	C 	0.82207 0.88729 0.67793 -0.09700
C 	C 	0.79876 0.43375 0.20124 0.37900
C 	C 	0.82207 0.38729 0.17793 -0.11800
C 	C 	0.79876 0.06625 0.29876 0.38100
C 	C 	0.82207 0.11271 0.32207 -0.12300
C 	C 	0.79876 0.56625 0.79876 0.37600
C 	C 	0.82207 0.61271 0.82207 -0.10300
C 	C 	0.20124 0.06625 0.70124 0.38300
C 	C 	0.17793 0.11271 0.67793 -0.13400
C 	C 	0.20124 0.56625 0.20124 0.38200
C 	C 	0.17793 0.61271 0.17793 -0.13100
C 	C 	0.70124 0.56625 0.70124 0.37700
C 	C 	0.67793 0.61271 0.67793 -0.11600
C 	C 	0.93375 0.70124 0.79876 0.36900
C 	C 	0.88729 0.67793 0.82207 -0.09700
C 	C 	0.43375 0.70124 0.29876 0.37900
C 	C 	0.38729 0.67793 0.32207 -0.11900
C 	C 	0.93375 0.29876 0.20124 0.37300
C 	C 	0.88729 0.32207 0.17793 -0.11300
C 	C 	0.93375 0.79876 0.70124 0.36900
C 	C 	0.88729 0.82207 0.67793 -0.09700
C 	C 	0.43375 0.29876 0.70124 0.37900
C 	C 	0.38729 0.32207 0.67793 -0.11900
C 	C 	0.06625 0.70124 0.20124 0.38300
C 	C 	0.11271 0.67793 0.17793 -0.13400
C 	C 	0.56625 0.70124 0.70124 0.37700
C 	C 	0.61271 0.67793 0.67793 -0.11600
C 	C 	0.06625 0.29876 0.79876 0.38100
C 	C 	0.11271 0.32207 0.82207 -0.12300
C 	C 	0.56625 0.29876 0.29876 0.38100
C 	C 	0.61271 0.32207 0.32207 -0.12100
C 	C 	0.56625 0.79876 0.79876 0.37600
C 	C 	0.61271 0.82207 0.82207 -0.10300
C 	C 	0.79876 0.29876 0.06625 0.38100
C 	C 	0.82207 0.32207 0.11271 -0.12300
C 	C 	0.20124 0.70124 0.06625 0.38300
C 	C 	0.17793 0.67793 0.11271 -0.13400
C 	C 	0.20124 0.20124 0.56625 0.38200
C 	C 	0.17793 0.17793 0.61271 -0.13100
C 	C 	0.20124 0.29876 0.93375 0.37300
C 	C 	0.17793 0.32207 0.88729 -0.11300
C 	C 	0.20124 0.79876 0.43375 0.37900
C 	C 	0.17793 0.82207 0.38729 -0.11800
C 	C 	0.79876 0.20124 0.43375 0.37900
C 	C 	0.82207 0.17793 0.38729 -0.11800
C 	C 	0.06625 0.79876 0.29876 0.38100
C 	C 	0.11271 0.82207 0.32207 -0.12300
C 	C 	0.06625 0.20124 0.70124 0.38300
C 	C 	0.11271 0.17793 0.67793 -0.13400
C 	C 	0.56625 0.20124 0.20124 0.38200
C 	C 	0.61271 0.17793 0.17793 -0.13100
C 	C 	0.93375 0.20124 0.29876 0.37300
C 	C 	0.88729 0.17793 0.32207 -0.11300
C 	C 	0.43375 0.20124 0.79876 0.37900
C 	C 	0.38729 0.17793 0.82207 -0.11800
C 	C 	0.43375 0.79876 0.20124 0.37900
C 	C 	0.38729 0.82207 0.17793 -0.11800
C 	C 	0.29876 0.06625 0.79876 0.38100
C 	C 	0.32207 0.11271 0.82207 -0.12300
C 	C 	0.29876 0.56625 0.29876 0.38100
C 	C 	0.32207 0.61271 0.32207 -0.12100
C 	C 	0.70124 0.06625 0.20124 0.38300
C 	C 	0.67793 0.11271 0.17793 -0.13400
C 	C 	0.29876 0.93375 0.20124 0.37300
C 	C 	0.32207 0.88729 0.17793 -0.11300
C 	C 	0.29876 0.43375 0.70124 0.37900
C 	C 	0.32207 0.38729 0.67793 -0.11900
C 	C 	0.70124 0.43375 0.29876 0.37900
C 	C 	0.67793 0.38729 0.32207 -0.11900
C 	C 	0.29876 0.79876 0.93375 0.37000
C 	C 	0.32207 0.82207 0.88729 -0.09900
C 	C 	0.29876 0.29876 0.43375 0.38100
C 	C 	0.32207 0.32207 0.38729 -0.12200
C 	C 	0.70124 0.20124 0.93375 0.37100
C 	C 	0.67793 0.17793 0.88729 -0.11000
C 	C 	0.29876 0.20124 0.06625 0.38400
C 	C 	0.32207 0.17793 0.11271 -0.13700
C 	C 	0.29876 0.70124 0.56625 0.37900
C 	C 	0.32207 0.67793 0.61271 -0.11800
C 	C 	0.70124 0.29876 0.56625 0.37900
C 	C 	0.67793 0.32207 0.61271 -0.11800
C 	C 	0.79876 0.56625 0.20124 0.37900
C 	C 	0.82207 0.61271 0.17793 -0.11700
C 	C 	0.20124 0.06625 0.29876 0.38400
C 	C 	0.17793 0.11271 0.32207 -0.13700
C 	C 	0.20124 0.56625 0.79876 0.37900
C 	C 	0.17793 0.61271 0.82207 -0.11700
C 	C 	0.20124 0.93375 0.70124 0.37100
C 	C 	0.17793 0.88729 0.67793 -0.11000
C 	C 	0.20124 0.43375 0.20124 0.38200
C 	C 	0.17793 0.38729 0.17793 -0.13200
C 	C 	0.79876 0.93375 0.29876 0.37000
C 	C 	0.82207 0.88729 0.32207 -0.09900
C 	C 	0.06625 0.29876 0.20124 0.38400
C 	C 	0.11271 0.32207 0.17793 -0.13700
C 	C 	0.56625 0.29876 0.70124 0.37900
C 	C 	0.61271 0.32207 0.67793 -0.11800
C 	C 	0.56625 0.70124 0.29876 0.37900
C 	C 	0.61271 0.67793 0.32207 -0.11800
C 	C 	0.93375 0.29876 0.79876 0.37000
C 	C 	0.88729 0.32207 0.82207 -0.09900
C 	C 	0.43375 0.29876 0.29876 0.38100
C 	C 	0.38729 0.32207 0.32207 -0.12200
C 	C 	0.93375 0.70124 0.20124 0.37100
C 	C 	0.88729 0.67793 0.17793 -0.11000
C 	C 	0.19967 0.63445 0.86555 0.05800
H 	H 	0.22852 0.62002 0.87998 0.04900
C 	C 	0.69967 0.63445 0.36555 0.06000
H 	H 	0.72852 0.62002 0.37998 0.04400
C 	C 	0.80033 0.36555 0.86555 0.05300
H 	H 	0.77148 0.37998 0.87998 0.05200
C 	C 	0.30033 0.36555 0.36555 0.06400
H 	H 	0.27148 0.37998 0.37998 0.04000
C 	C 	0.30033 0.86555 0.86555 0.05200
H 	H 	0.27148 0.87998 0.87998 0.05600
C 	C 	0.80033 0.63445 0.13445 0.06100
H 	H 	0.77148 0.62002 0.12002 0.03800
C 	C 	0.30033 0.63445 0.63445 0.06100
H 	H 	0.27148 0.62002 0.62002 0.04100
C 	C 	0.19967 0.36555 0.13445 0.06900
H 	H 	0.22852 0.37998 0.12002 0.03300
C 	C 	0.19967 0.86555 0.63445 0.05800
H 	H 	0.22852 0.87998 0.62002 0.04900
C 	C 	0.69967 0.36555 0.63445 0.06000
H 	H 	0.72852 0.37998 0.62002 0.04400
C 	C 	0.86555 0.19967 0.63445 0.05800
H 	H 	0.87998 0.22852 0.62002 0.04900
C 	C 	0.86555 0.69967 0.13445 0.05900
H 	H 	0.87998 0.72852 0.12002 0.04500
C 	C 	0.86555 0.80033 0.36555 0.05300
H 	H 	0.87998 0.77148 0.37998 0.05200
C 	C 	0.86555 0.30033 0.86555 0.05200
H 	H 	0.87998 0.27148 0.87998 0.05600
C 	C 	0.13445 0.80033 0.63445 0.06100
H 	H 	0.12002 0.77148 0.62002 0.03800
C 	C 	0.13445 0.30033 0.13445 0.07000
H 	H 	0.12002 0.27148 0.12002 0.02700
C 	C 	0.63445 0.30033 0.63445 0.06100
H 	H 	0.62002 0.27148 0.62002 0.04100
C 	C 	0.13445 0.19967 0.36555 0.06900
H 	H 	0.12002 0.22852 0.37998 0.03300
C 	C 	0.13445 0.69967 0.86555 0.05900
H 	H 	0.12002 0.72852 0.87998 0.04500
C 	C 	0.63445 0.19967 0.86555 0.05800
H 	H 	0.62002 0.22852 0.87998 0.04900
C 	C 	0.63445 0.86555 0.19967 0.05800
H 	H 	0.62002 0.87998 0.22852 0.04900
C 	C 	0.63445 0.36555 0.69967 0.06000
H 	H 	0.62002 0.37998 0.72852 0.04400
C 	C 	0.36555 0.86555 0.80033 0.05300
H 	H 	0.37998 0.87998 0.77148 0.05200
C 	C 	0.36555 0.36555 0.30033 0.06400
H 	H 	0.37998 0.37998 0.27148 0.04000
C 	C 	0.86555 0.86555 0.30033 0.05200
H 	H 	0.87998 0.87998 0.27148 0.05600
C 	C 	0.63445 0.13445 0.80033 0.06100
H 	H 	0.62002 0.12002 0.77148 0.03800
C 	C 	0.63445 0.63445 0.30033 0.06100
H 	H 	0.62002 0.62002 0.27148 0.04100
C 	C 	0.36555 0.13445 0.19967 0.06900
H 	H 	0.37998 0.12002 0.22852 0.03300
C 	C 	0.36555 0.63445 0.69967 0.06000
H 	H 	0.37998 0.62002 0.72852 0.04400
C 	C 	0.86555 0.63445 0.19967 0.05800
H 	H 	0.87998 0.62002 0.22852 0.04900
C 	C 	0.63445 0.19967 0.13445 0.06700
H 	H 	0.62002 0.22852 0.12002 0.03300
C 	C 	0.63445 0.69967 0.63445 0.05900
H 	H 	0.62002 0.72852 0.62002 0.04500
C 	C 	0.36555 0.80033 0.13445 0.06200
H 	H 	0.37998 0.77148 0.12002 0.03700
C 	C 	0.36555 0.30033 0.63445 0.06300
H 	H 	0.37998 0.27148 0.62002 0.04000
C 	C 	0.86555 0.80033 0.63445 0.05200
H 	H 	0.87998 0.77148 0.62002 0.05300
C 	C 	0.63445 0.80033 0.86555 0.05200
H 	H 	0.62002 0.77148 0.87998 0.05300
C 	C 	0.63445 0.30033 0.36555 0.06300
H 	H 	0.62002 0.27148 0.37998 0.04000
C 	C 	0.36555 0.19967 0.86555 0.06000
H 	H 	0.37998 0.22852 0.87998 0.04800
C 	C 	0.36555 0.69967 0.36555 0.06200
H 	H 	0.37998 0.72852 0.37998 0.04400
C 	C 	0.86555 0.69967 0.86555 0.04900
H 	H 	0.87998 0.72852 0.87998 0.06000
C 	C 	0.19967 0.86555 0.36555 0.06000
H 	H 	0.22852 0.87998 0.37998 0.04800
C 	C 	0.69967 0.86555 0.86555 0.04900
H 	H 	0.72852 0.87998 0.87998 0.06000
C 	C 	0.80033 0.86555 0.63445 0.05200
H 	H 	0.77148 0.87998 0.62002 0.05300
C 	C 	0.30033 0.86555 0.13445 0.06100
H 	H 	0.27148 0.87998 0.12002 0.04100
C 	C 	0.80033 0.13445 0.36555 0.06200
H 	H 	0.77148 0.12002 0.37998 0.03700
C 	C 	0.80033 0.63445 0.86555 0.05200
H 	H 	0.77148 0.62002 0.87998 0.05300
C 	C 	0.30033 0.13445 0.86555 0.06100
H 	H 	0.27148 0.12002 0.87998 0.04100
C 	C 	0.19967 0.13445 0.63445 0.06700
H 	H 	0.22852 0.12002 0.62002 0.03300
C 	C 	0.69967 0.13445 0.13445 0.06800
H 	H 	0.72852 0.12002 0.12002 0.03000
C 	C 	0.69967 0.63445 0.63445 0.05900
H 	H 	0.72852 0.62002 0.62002 0.04500
C 	C 	0.86555 0.63445 0.80033 0.05200
H 	H 	0.87998 0.62002 0.77148 0.05300
C 	C 	0.86555 0.13445 0.30033 0.06100
H 	H 	0.87998 0.12002 0.27148 0.04100
C 	C 	0.86555 0.36555 0.19967 0.06000
H 	H 	0.87998 0.37998 0.22852 0.04800
C 	C 	0.86555 0.86555 0.69967 0.04900
H 	H 	0.87998 0.87998 0.72852 0.06000
C 	C 	0.13445 0.63445 0.19967 0.06700
H 	H 	0.12002 0.62002 0.22852 0.03300
C 	C 	0.13445 0.13445 0.69967 0.06800
H 	H 	0.12002 0.12002 0.72852 0.03000
C 	C 	0.63445 0.63445 0.69967 0.05900
H 	H 	0.62002 0.62002 0.72852 0.04500
C 	C 	0.13445 0.36555 0.80033 0.06200
H 	H 	0.12002 0.37998 0.77148 0.03700
C 	C 	0.13445 0.86555 0.30033 0.06100
H 	H 	0.12002 0.87998 0.27148 0.04100
C 	C 	0.63445 0.86555 0.80033 0.05200
H 	H 	0.62002 0.87998 0.77148 0.05300
C 	C 	0.80033 0.36555 0.13445 0.06200
H 	H 	0.77148 0.37998 0.12002 0.03700
C 	C 	0.30033 0.36555 0.63445 0.06300
H 	H 	0.27148 0.37998 0.62002 0.04000
C 	C 	0.19967 0.63445 0.13445 0.06700
H 	H 	0.22852 0.62002 0.12002 0.03300
C 	C 	0.19967 0.36555 0.86555 0.06000
H 	H 	0.22852 0.37998 0.87998 0.04800
C 	C 	0.69967 0.36555 0.36555 0.06200
H 	H 	0.72852 0.37998 0.37998 0.04400
C 	C 	0.30033 0.63445 0.36555 0.06300
H 	H 	0.27148 0.62002 0.37998 0.04000
C 	C 	0.13445 0.80033 0.36555 0.06200
H 	H 	0.12002 0.77148 0.37998 0.03700
C 	C 	0.13445 0.30033 0.86555 0.06100
H 	H 	0.12002 0.27148 0.87998 0.04100
C 	C 	0.13445 0.19967 0.63445 0.06700
H 	H 	0.12002 0.22852 0.62002 0.03300
C 	C 	0.13445 0.69967 0.13445 0.06800
H 	H 	0.12002 0.72852 0.12002 0.03000
C 	C 	0.86555 0.19967 0.36555 0.06000
H 	H 	0.87998 0.22852 0.37998 0.04800
C 	C 	0.86555 0.30033 0.13445 0.06100
H 	H 	0.87998 0.27148 0.12002 0.04100
C 	C 	0.36555 0.13445 0.80033 0.06200
H 	H 	0.37998 0.12002 0.77148 0.03700
C 	C 	0.36555 0.63445 0.30033 0.06300
H 	H 	0.37998 0.62002 0.27148 0.04000
C 	C 	0.63445 0.13445 0.19967 0.06700
H 	H 	0.62002 0.12002 0.22852 0.03300
C 	C 	0.36555 0.86555 0.19967 0.06000
H 	H 	0.37998 0.87998 0.22852 0.04800
C 	C 	0.36555 0.36555 0.69967 0.06200
H 	H 	0.37998 0.37998 0.72852 0.04400
C 	C 	0.63445 0.36555 0.30033 0.06300
H 	H 	0.62002 0.37998 0.27148 0.04000
C 	C 	0.36555 0.80033 0.86555 0.05300
H 	H 	0.37998 0.77148 0.87998 0.05200
C 	C 	0.36555 0.30033 0.36555 0.06400
H 	H 	0.37998 0.27148 0.37998 0.04000
C 	C 	0.63445 0.69967 0.36555 0.06000
H 	H 	0.62002 0.72852 0.37998 0.04400
C 	C 	0.36555 0.19967 0.13445 0.06900
H 	H 	0.37998 0.22852 0.12002 0.03300
C 	C 	0.36555 0.69967 0.63445 0.06000
H 	H 	0.37998 0.72852 0.62002 0.04400
C 	C 	0.63445 0.80033 0.13445 0.06100
H 	H 	0.62002 0.77148 0.12002 0.03800
C 	C 	0.80033 0.13445 0.63445 0.06100
H 	H 	0.77148 0.12002 0.62002 0.03800
C 	C 	0.30033 0.13445 0.13445 0.07000
H 	H 	0.27148 0.12002 0.12002 0.02700
C 	C 	0.19967 0.13445 0.36555 0.06900
H 	H 	0.22852 0.12002 0.37998 0.03300
C 	C 	0.69967 0.13445 0.86555 0.05900
H 	H 	0.72852 0.12002 0.87998 0.04500
C 	C 	0.69967 0.86555 0.13445 0.05900
H 	H 	0.72852 0.87998 0.12002 0.04500
C 	C 	0.80033 0.86555 0.36555 0.05300
H 	H 	0.77148 0.87998 0.37998 0.05200
C 	C 	0.13445 0.36555 0.19967 0.06900
H 	H 	0.12002 0.37998 0.22852 0.03300
C 	C 	0.13445 0.86555 0.69967 0.05900
H 	H 	0.12002 0.87998 0.72852 0.04500
C 	C 	0.13445 0.63445 0.80033 0.06100
H 	H 	0.12002 0.62002 0.77148 0.03800
C 	C 	0.13445 0.13445 0.30033 0.07000
H 	H 	0.12002 0.12002 0.27148 0.02700
C 	C 	0.86555 0.36555 0.80033 0.05300
H 	H 	0.87998 0.37998 0.77148 0.05200
C 	C 	0.86555 0.13445 0.69967 0.05900
H 	H 	0.87998 0.12002 0.72852 0.04500
