data_crystal

_cell_length_a 27.79800
_cell_length_b 16.20000
_cell_length_c 19.12900
_cell_angle_alpha 90.00000
_cell_angle_beta  98.33800
_cell_angle_gamma 90.00000

_symmetry_space_group_name_	'P 1'
_symmetry_space_group_name_H-M	'P 1'

loop_
_symmetry_equiv_pos_as_xyz
  x,y,z

loop_
_atom_site_label
_atom_site_type_symbol
_atom_site_fract_x
_atom_site_fract_y
_atom_site_fract_z
_atom_site_charge
Cu	Cu	0.02180 0.38099 0.07243 0.91200
O 	O 	0.99275 0.27159 0.06301 -0.39800
O 	O 	0.99200 0.25729 0.17791 -0.16100
O 	O 	0.57085 0.10556 0.84456 -0.26000
O 	O 	0.54486 0.07305 0.94669 -0.42600
O 	O 	0.04752 0.49197 0.09276 -0.43200
O 	O 	0.01080 0.50054 0.19137 -0.30000
O 	O 	0.41397 0.83481 0.39006 -0.42800
O 	O 	0.42444 0.86220 0.27662 -0.27900
O 	O 	0.05411 0.47469 0.20500 -0.28200
O 	O 	0.96777 0.28036 0.16529 -0.30000
O 	O 	0.54689 0.04562 0.83701 -0.28500
O 	O 	0.43004 0.80173 0.28759 -0.27200
N 	N 	0.88216 0.03728 0.06301 -0.11300
N 	N 	0.71287 0.96975 0.96578 -0.11500
N 	N 	0.09851 0.76595 0.19028 -0.11200
N 	N 	0.25314 0.76833 0.25876 -0.11000
C 	C 	0.97527 0.24119 0.11251 0.44000
C 	C 	0.94437 0.16559 0.09637 -0.06600
C 	C 	0.91624 0.13627 0.14512 -0.03800
H 	H 	0.91850 0.16000 0.18970 0.07100
C 	C 	0.88503 0.07178 0.12668 0.03000
H 	H 	0.86570 0.05200 0.15880 0.02400
C 	C 	0.91047 0.06268 0.01581 0.02800
H 	H 	0.90870 0.03630 0.97230 0.02700
C 	C 	0.94189 0.12726 0.03170 -0.03600
H 	H 	0.96140 0.14510 0.99910 0.06400
C 	C 	0.84620 0.97110 0.04347 -0.03900
H 	H 	0.84190 0.93940 0.08510 0.04400
H 	H 	0.85800 0.93410 0.00990 0.04900
C 	C 	0.79774 0.00813 0.01094 -0.13200
H 	H 	0.78480 0.04280 0.04520 0.07600
H 	H 	0.80200 0.04180 0.97030 0.07300
C 	C 	0.76283 0.93744 0.98844 -0.04300
H 	H 	0.77370 0.90750 0.94970 0.04400
H 	H 	0.76250 0.89950 0.02760 0.04400
C 	C 	0.68222 0.97585 0.01306 0.03200
H 	H 	0.69240 0.95980 0.05950 0.02600
C 	C 	0.63593 0.00548 0.99414 -0.04900
H 	H 	0.61480 0.00970 0.02750 0.07200
C 	C 	0.62108 0.02903 0.92468 -0.07300
C 	C 	0.65326 0.02158 0.87595 -0.03500
H 	H 	0.64380 0.03660 0.82900 0.07100
C 	C 	0.69902 0.99190 0.89785 0.02100
H 	H 	0.72080 0.98690 0.86550 0.02600
C 	C 	0.57061 0.06240 0.90211 0.46800
C 	C 	0.04593 0.52296 0.15042 0.46200
C 	C 	0.06240 0.61060 0.16310 -0.08400
C 	C 	0.07724 0.65763 0.10945 -0.04200
H 	H 	0.07490 0.63670 0.06380 0.06400
C 	C 	0.09532 0.73518 0.12451 0.02100
H 	H 	0.10550 0.76690 0.08890 0.02800
C 	C 	0.08174 0.72326 0.24224 0.01300
H 	H 	0.08230 0.74680 0.28670 0.02300
C 	C 	0.06385 0.64502 0.22939 -0.03200
H 	H 	0.05270 0.61510 0.26530 0.06400
C 	C 	0.12411 0.84594 0.20774 -0.04100
H 	H 	0.11970 0.86290 0.25500 0.04000
H 	H 	0.11010 0.88810 0.17490 0.03900
C 	C 	0.17815 0.83774 0.20362 -0.12400
H 	H 	0.18300 0.84100 0.15450 0.06600
H 	H 	0.19520 0.88380 0.22840 0.06800
C 	C 	0.20015 0.75777 0.23495 -0.04400
H 	H 	0.18420 0.74170 0.27470 0.05200
H 	H 	0.19500 0.71430 0.19980 0.05300
C 	C 	0.28377 0.77504 0.21012 0.01400
H 	H 	0.27200 0.76940 0.16230 0.02800
C 	C 	0.33207 0.79016 0.23156 -0.02800
H 	H 	0.35320 0.79480 0.19830 0.06500
C 	C 	0.34934 0.79847 0.30265 -0.08300
C 	C 	0.31797 0.78808 0.35177 -0.03200
H 	H 	0.32940 0.79100 0.39990 0.05300
C 	C 	0.26938 0.77321 0.32830 0.01600
H 	H 	0.24780 0.76650 0.36080 0.02400
C 	C 	0.40151 0.82319 0.32695 0.47100
Cu	Cu	0.52180 0.88099 0.07243 0.93200
O 	O 	0.49275 0.77159 0.06301 -0.42800
O 	O 	0.49200 0.75729 0.17791 -0.20700
O 	O 	0.07085 0.60556 0.84456 -0.25500
O 	O 	0.04486 0.57305 0.94669 -0.44400
O 	O 	0.54752 0.99197 0.09276 -0.42300
O 	O 	0.51080 0.00054 0.19137 -0.27700
O 	O 	0.91397 0.33481 0.39006 -0.41300
O 	O 	0.92444 0.36220 0.27662 -0.26500
O 	O 	0.55411 0.97469 0.20500 -0.28900
O 	O 	0.46777 0.78036 0.16529 -0.30100
O 	O 	0.04689 0.54562 0.83701 -0.29800
O 	O 	0.93004 0.30173 0.28759 -0.24900
N 	N 	0.38216 0.53728 0.06301 -0.11200
N 	N 	0.21287 0.46975 0.96578 -0.11400
N 	N 	0.59851 0.26595 0.19028 -0.11100
N 	N 	0.75314 0.26833 0.25876 -0.11100
C 	C 	0.47527 0.74119 0.11251 0.45300
C 	C 	0.44437 0.66559 0.09637 -0.08200
C 	C 	0.41624 0.63627 0.14512 -0.03200
H 	H 	0.41850 0.66000 0.18970 0.06300
C 	C 	0.38503 0.57178 0.12668 0.02100
H 	H 	0.36570 0.55200 0.15880 0.02500
C 	C 	0.41047 0.56268 0.01581 0.01800
H 	H 	0.40870 0.53630 0.97230 0.02600
C 	C 	0.44189 0.62726 0.03170 -0.03200
H 	H 	0.46140 0.64510 0.99910 0.05500
C 	C 	0.34620 0.47110 0.04347 -0.03500
H 	H 	0.34190 0.43940 0.08510 0.04100
H 	H 	0.35800 0.43410 0.00990 0.04300
C 	C 	0.29774 0.50813 0.01094 -0.14100
H 	H 	0.28480 0.54280 0.04520 0.07900
H 	H 	0.30200 0.54180 0.97030 0.07600
C 	C 	0.26283 0.43744 0.98844 -0.03400
H 	H 	0.27370 0.40750 0.94970 0.04100
H 	H 	0.26250 0.39950 0.02760 0.04000
C 	C 	0.18222 0.47585 0.01306 0.02600
H 	H 	0.19240 0.45980 0.05950 0.02800
C 	C 	0.13593 0.50548 0.99414 -0.04300
H 	H 	0.11480 0.50970 0.02750 0.06900
C 	C 	0.12108 0.52903 0.92468 -0.07800
C 	C 	0.15326 0.52158 0.87595 -0.03300
H 	H 	0.14380 0.53660 0.82900 0.07000
C 	C 	0.19902 0.49190 0.89785 0.02000
H 	H 	0.22080 0.48690 0.86550 0.02600
C 	C 	0.07061 0.56240 0.90211 0.46900
C 	C 	0.54593 0.02296 0.15042 0.46300
C 	C 	0.56240 0.11060 0.16310 -0.07500
C 	C 	0.57724 0.15763 0.10945 -0.04300
H 	H 	0.57490 0.13670 0.06380 0.06800
C 	C 	0.59532 0.23518 0.12451 0.02600
H 	H 	0.60550 0.26690 0.08890 0.02800
C 	C 	0.58174 0.22326 0.24224 0.02000
H 	H 	0.58230 0.24680 0.28670 0.02800
C 	C 	0.56385 0.14502 0.22939 -0.03300
H 	H 	0.55270 0.11510 0.26530 0.07400
C 	C 	0.62411 0.34594 0.20774 -0.04400
H 	H 	0.61970 0.36290 0.25500 0.04500
H 	H 	0.61010 0.38810 0.17490 0.04400
C 	C 	0.67815 0.33774 0.20362 -0.12200
H 	H 	0.68300 0.34100 0.15450 0.06600
H 	H 	0.69520 0.38380 0.22840 0.06800
C 	C 	0.70015 0.25777 0.23495 -0.04500
H 	H 	0.68420 0.24170 0.27470 0.05200
H 	H 	0.69500 0.21430 0.19980 0.05300
C 	C 	0.78377 0.27504 0.21012 0.01700
H 	H 	0.77200 0.26940 0.16230 0.02700
C 	C 	0.83207 0.29016 0.23156 -0.03400
H 	H 	0.85320 0.29480 0.19830 0.06700
C 	C 	0.84934 0.29847 0.30265 -0.07400
C 	C 	0.81797 0.28808 0.35177 -0.03700
H 	H 	0.82940 0.29100 0.39990 0.05600
C 	C 	0.76938 0.27321 0.32830 0.01900
H 	H 	0.74780 0.26650 0.36080 0.02400
C 	C 	0.90151 0.32319 0.32695 0.45800
Cu	Cu	0.97820 0.38099 0.42757 0.95500
O 	O 	0.00725 0.27159 0.43699 -0.44900
O 	O 	0.00800 0.25729 0.32209 -0.23500
O 	O 	0.42915 0.10556 0.65544 -0.26100
O 	O 	0.45514 0.07305 0.55331 -0.42700
O 	O 	0.95248 0.49197 0.40724 -0.40700
O 	O 	0.98920 0.50054 0.30863 -0.23300
O 	O 	0.58603 0.83481 0.10994 -0.42800
O 	O 	0.57556 0.86220 0.22338 -0.27900
O 	O 	0.94589 0.47469 0.29500 -0.28000
O 	O 	0.03223 0.28036 0.33471 -0.28000
O 	O 	0.45311 0.04562 0.66299 -0.28500
O 	O 	0.56996 0.80173 0.21241 -0.27200
N 	N 	0.11784 0.03728 0.43699 -0.11300
N 	N 	0.28713 0.96975 0.53422 -0.11500
N 	N 	0.90149 0.76595 0.30972 -0.11100
N 	N 	0.74686 0.76833 0.24124 -0.11000
C 	C 	0.02473 0.24119 0.38749 0.45100
C 	C 	0.05563 0.16559 0.40363 -0.09000
C 	C 	0.08376 0.13627 0.35488 -0.03000
H 	H 	0.08150 0.16000 0.31030 0.05800
C 	C 	0.11497 0.07178 0.37332 0.01600
H 	H 	0.13430 0.05200 0.34120 0.02400
C 	C 	0.08953 0.06268 0.48419 0.01200
H 	H 	0.09130 0.03630 0.52770 0.02300
C 	C 	0.05811 0.12726 0.46830 -0.03100
H 	H 	0.03860 0.14510 0.50090 0.04600
C 	C 	0.15380 0.97110 0.45653 -0.03300
H 	H 	0.15810 0.93940 0.41490 0.03800
H 	H 	0.14200 0.93410 0.49010 0.03900
C 	C 	0.20226 0.00813 0.48906 -0.14100
H 	H 	0.21520 0.04280 0.45480 0.07900
H 	H 	0.19800 0.04180 0.52970 0.07600
C 	C 	0.23717 0.93744 0.51156 -0.03400
H 	H 	0.22630 0.90750 0.55030 0.04100
H 	H 	0.23750 0.89950 0.47240 0.04000
C 	C 	0.31778 0.97585 0.48694 0.02900
H 	H 	0.30760 0.95980 0.44050 0.02700
C 	C 	0.36407 0.00548 0.50586 -0.04700
H 	H 	0.38520 0.00970 0.47250 0.07200
C 	C 	0.37892 0.02903 0.57532 -0.07400
C 	C 	0.34674 0.02158 0.62405 -0.03500
H 	H 	0.35620 0.03660 0.67100 0.07100
C 	C 	0.30098 0.99190 0.60215 0.02100
H 	H 	0.27920 0.98690 0.63450 0.02600
C 	C 	0.42939 0.06240 0.59789 0.46800
C 	C 	0.95407 0.52296 0.34958 0.44900
C 	C 	0.93760 0.61060 0.33690 -0.05900
C 	C 	0.92276 0.65763 0.39055 -0.04900
H 	H 	0.92510 0.63670 0.43620 0.07200
C 	C 	0.90468 0.73518 0.37549 0.03300
H 	H 	0.89450 0.76690 0.41110 0.02700
C 	C 	0.91826 0.72326 0.25776 0.03000
H 	H 	0.91770 0.74680 0.21330 0.03200
C 	C 	0.93615 0.64502 0.27061 -0.03900
H 	H 	0.94730 0.61510 0.23470 0.08700
C 	C 	0.87589 0.84594 0.29226 -0.04700
H 	H 	0.88030 0.86290 0.24500 0.04900
H 	H 	0.88990 0.88810 0.32510 0.04900
C 	C 	0.82185 0.83774 0.29638 -0.12000
H 	H 	0.81700 0.84100 0.34550 0.06600
H 	H 	0.80480 0.88380 0.27160 0.06800
C 	C 	0.79985 0.75777 0.26505 -0.04600
H 	H 	0.81580 0.74170 0.22530 0.05300
H 	H 	0.80500 0.71430 0.30020 0.05300
C 	C 	0.71623 0.77504 0.28988 0.01400
H 	H 	0.72800 0.76940 0.33770 0.02800
C 	C 	0.66793 0.79016 0.26844 -0.02800
H 	H 	0.64680 0.79480 0.30170 0.06500
C 	C 	0.65066 0.79847 0.19735 -0.08300
C 	C 	0.68203 0.78808 0.14823 -0.03200
H 	H 	0.67060 0.79100 0.10010 0.05300
C 	C 	0.73062 0.77321 0.17170 0.01600
H 	H 	0.75220 0.76650 0.13920 0.02500
C 	C 	0.59849 0.82319 0.17305 0.47100
Cu	Cu	0.47820 0.88099 0.42757 0.93200
O 	O 	0.50725 0.77159 0.43699 -0.42800
O 	O 	0.50800 0.75729 0.32209 -0.20700
O 	O 	0.92915 0.60556 0.65544 -0.25200
O 	O 	0.95514 0.57305 0.55331 -0.40300
O 	O 	0.45248 0.99197 0.40724 -0.42300
O 	O 	0.48920 0.00054 0.30863 -0.27700
O 	O 	0.08603 0.33481 0.10994 -0.43600
O 	O 	0.07556 0.36220 0.22338 -0.26700
O 	O 	0.44589 0.97469 0.29500 -0.28900
O 	O 	0.53223 0.78036 0.33471 -0.30100
O 	O 	0.95311 0.54562 0.66299 -0.25100
O 	O 	0.06996 0.30173 0.21241 -0.28200
N 	N 	0.61784 0.53728 0.43699 -0.11200
N 	N 	0.78713 0.46975 0.53422 -0.11600
N 	N 	0.40149 0.26595 0.30972 -0.11100
N 	N 	0.24686 0.26833 0.24124 -0.11000
C 	C 	0.52473 0.74119 0.38749 0.45300
C 	C 	0.55563 0.66559 0.40363 -0.08200
C 	C 	0.58376 0.63627 0.35488 -0.03200
H 	H 	0.58150 0.66000 0.31030 0.06300
C 	C 	0.61497 0.57178 0.37332 0.02100
H 	H 	0.63430 0.55200 0.34120 0.02500
C 	C 	0.58953 0.56268 0.48419 0.01800
H 	H 	0.59130 0.53630 0.52770 0.02600
C 	C 	0.55811 0.62726 0.46830 -0.03300
H 	H 	0.53860 0.64510 0.50090 0.05500
C 	C 	0.65380 0.47110 0.45653 -0.03500
H 	H 	0.65810 0.43940 0.41490 0.04100
H 	H 	0.64200 0.43410 0.49010 0.04400
C 	C 	0.70226 0.50813 0.48906 -0.13900
H 	H 	0.71520 0.54280 0.45480 0.07800
H 	H 	0.69800 0.54180 0.52970 0.07500
C 	C 	0.73717 0.43744 0.51156 -0.03500
H 	H 	0.72630 0.40750 0.55030 0.04200
H 	H 	0.73750 0.39950 0.47240 0.04100
C 	C 	0.81778 0.47585 0.48694 0.03200
H 	H 	0.80760 0.45980 0.44050 0.02600
C 	C 	0.86407 0.50548 0.50586 -0.05100
H 	H 	0.88520 0.50970 0.47250 0.07400
C 	C 	0.87892 0.52903 0.57532 -0.06400
C 	C 	0.84674 0.52158 0.62405 -0.04100
H 	H 	0.85620 0.53660 0.67100 0.07300
C 	C 	0.80098 0.49190 0.60215 0.02500
H 	H 	0.77920 0.48690 0.63450 0.02500
C 	C 	0.92939 0.56240 0.59789 0.45300
C 	C 	0.45407 0.02296 0.34958 0.46300
C 	C 	0.43760 0.11060 0.33690 -0.07500
C 	C 	0.42276 0.15763 0.39055 -0.04300
H 	H 	0.42510 0.13670 0.43620 0.06800
C 	C 	0.40468 0.23518 0.37549 0.02600
H 	H 	0.39450 0.26690 0.41110 0.02800
C 	C 	0.41826 0.22326 0.25776 0.02000
H 	H 	0.41770 0.24680 0.21330 0.02800
C 	C 	0.43615 0.14502 0.27061 -0.03300
H 	H 	0.44730 0.11510 0.23470 0.07400
C 	C 	0.37589 0.34594 0.29226 -0.04400
H 	H 	0.38030 0.36290 0.24500 0.04500
H 	H 	0.38990 0.38810 0.32510 0.04400
C 	C 	0.32185 0.33774 0.29638 -0.12200
H 	H 	0.31700 0.34100 0.34550 0.06600
H 	H 	0.30480 0.38380 0.27160 0.06800
C 	C 	0.29985 0.25777 0.26505 -0.04500
H 	H 	0.31580 0.24170 0.22530 0.05200
H 	H 	0.30500 0.21430 0.30020 0.05300
C 	C 	0.21623 0.27504 0.28988 0.01400
H 	H 	0.22800 0.26940 0.33770 0.02900
C 	C 	0.16793 0.29016 0.26844 -0.02800
H 	H 	0.14680 0.29480 0.30170 0.06500
C 	C 	0.15066 0.29847 0.19735 -0.08500
C 	C 	0.18203 0.28808 0.14823 -0.03100
H 	H 	0.17060 0.29100 0.10010 0.05100
C 	C 	0.23062 0.27321 0.17170 0.01500
H 	H 	0.25220 0.26650 0.13920 0.02500
C 	C 	0.09849 0.32319 0.17305 0.46900
Cu	Cu	0.97820 0.61901 0.92757 0.95400
O 	O 	0.00725 0.72841 0.93699 -0.44900
O 	O 	0.00800 0.74271 0.82209 -0.23400
O 	O 	0.42915 0.89444 0.15544 -0.26100
O 	O 	0.45514 0.92695 0.05331 -0.42700
O 	O 	0.95248 0.50803 0.90724 -0.40800
O 	O 	0.98920 0.49946 0.80863 -0.23400
O 	O 	0.58603 0.16519 0.60994 -0.42800
O 	O 	0.57556 0.13780 0.72338 -0.27900
O 	O 	0.94589 0.52531 0.79500 -0.28000
O 	O 	0.03223 0.71964 0.83471 -0.28100
O 	O 	0.45311 0.95438 0.16299 -0.28500
O 	O 	0.56996 0.19827 0.71241 -0.27200
N 	N 	0.11784 0.96272 0.93699 -0.11300
N 	N 	0.28713 0.03025 0.03422 -0.11500
N 	N 	0.90149 0.23405 0.80972 -0.11100
N 	N 	0.74686 0.23167 0.74124 -0.11000
C 	C 	0.02473 0.75881 0.88749 0.45100
C 	C 	0.05563 0.83441 0.90363 -0.09000
C 	C 	0.08376 0.86373 0.85488 -0.03000
H 	H 	0.08150 0.84000 0.81030 0.05800
C 	C 	0.11497 0.92822 0.87332 0.01600
H 	H 	0.13430 0.94800 0.84120 0.02400
C 	C 	0.08953 0.93732 0.98419 0.01300
H 	H 	0.09130 0.96370 0.02770 0.02200
C 	C 	0.05811 0.87274 0.96830 -0.03000
H 	H 	0.03860 0.85490 0.00090 0.04600
C 	C 	0.15380 0.02890 0.95653 -0.03300
H 	H 	0.15810 0.06060 0.91490 0.03900
H 	H 	0.14200 0.06590 0.99010 0.04000
C 	C 	0.20226 0.99187 0.98906 -0.14000
H 	H 	0.21520 0.95720 0.95480 0.07800
H 	H 	0.19800 0.95820 0.02970 0.07500
C 	C 	0.23717 0.06256 0.01156 -0.03600
H 	H 	0.22630 0.09250 0.05030 0.04100
H 	H 	0.23750 0.10050 0.97240 0.04100
C 	C 	0.31778 0.02415 0.98694 0.03000
H 	H 	0.30760 0.04020 0.94050 0.02600
C 	C 	0.36407 0.99452 0.00586 -0.04700
H 	H 	0.38520 0.99030 0.97250 0.07100
C 	C 	0.37892 0.97097 0.07532 -0.07400
C 	C 	0.34674 0.97842 0.12405 -0.03500
H 	H 	0.35620 0.96340 0.17100 0.07100
C 	C 	0.30098 0.00810 0.10215 0.02100
H 	H 	0.27920 0.01310 0.13450 0.02600
C 	C 	0.42939 0.93760 0.09789 0.46800
C 	C 	0.95407 0.47704 0.84958 0.44900
C 	C 	0.93760 0.38940 0.83690 -0.06000
C 	C 	0.92276 0.34237 0.89055 -0.04800
H 	H 	0.92510 0.36330 0.93620 0.07100
C 	C 	0.90468 0.26482 0.87549 0.03300
H 	H 	0.89450 0.23310 0.91110 0.02600
C 	C 	0.91826 0.27674 0.75776 0.02900
H 	H 	0.91770 0.25320 0.71330 0.03200
C 	C 	0.93615 0.35498 0.77061 -0.03900
H 	H 	0.94730 0.38490 0.73470 0.08600
C 	C 	0.87589 0.15406 0.79226 -0.04700
H 	H 	0.88030 0.13710 0.74500 0.04900
H 	H 	0.88990 0.11190 0.82510 0.04900
C 	C 	0.82185 0.16226 0.79638 -0.12000
H 	H 	0.81700 0.15900 0.84550 0.06600
H 	H 	0.80480 0.11620 0.77160 0.06800
C 	C 	0.79985 0.24223 0.76505 -0.04600
H 	H 	0.81580 0.25830 0.72530 0.05300
H 	H 	0.80500 0.28570 0.80020 0.05300
C 	C 	0.71623 0.22496 0.78988 0.01400
H 	H 	0.72800 0.23060 0.83770 0.02800
C 	C 	0.66793 0.20984 0.76844 -0.02800
H 	H 	0.64680 0.20520 0.80170 0.06500
C 	C 	0.65066 0.20153 0.69735 -0.08300
C 	C 	0.68203 0.21192 0.64823 -0.03200
H 	H 	0.67060 0.20900 0.60010 0.05300
C 	C 	0.73062 0.22679 0.67170 0.01600
H 	H 	0.75220 0.23350 0.63920 0.02500
C 	C 	0.59849 0.17681 0.67305 0.47100
Cu	Cu	0.47820 0.11901 0.92757 0.93200
O 	O 	0.50725 0.22841 0.93699 -0.42800
O 	O 	0.50800 0.24271 0.82209 -0.20700
O 	O 	0.92915 0.39444 0.15544 -0.25200
O 	O 	0.95514 0.42695 0.05331 -0.40200
O 	O 	0.45248 0.00803 0.90724 -0.42300
O 	O 	0.48920 0.99946 0.80863 -0.27700
O 	O 	0.08603 0.66519 0.60994 -0.43600
O 	O 	0.07556 0.63780 0.72338 -0.26800
O 	O 	0.44589 0.02531 0.79500 -0.28900
O 	O 	0.53223 0.21964 0.83471 -0.30100
O 	O 	0.95311 0.45438 0.16299 -0.25000
O 	O 	0.06996 0.69827 0.71241 -0.28200
N 	N 	0.61784 0.46272 0.93699 -0.11300
N 	N 	0.78713 0.53025 0.03422 -0.11400
N 	N 	0.40149 0.73405 0.80972 -0.11100
N 	N 	0.24686 0.73167 0.74124 -0.11000
C 	C 	0.52473 0.25881 0.88749 0.45300
C 	C 	0.55563 0.33441 0.90363 -0.08200
C 	C 	0.58376 0.36373 0.85488 -0.03200
H 	H 	0.58150 0.34000 0.81030 0.06300
C 	C 	0.61497 0.42822 0.87332 0.02200
H 	H 	0.63430 0.44800 0.84120 0.02500
C 	C 	0.58953 0.43732 0.98419 0.01800
H 	H 	0.59130 0.46370 0.02770 0.02700
C 	C 	0.55811 0.37274 0.96830 -0.03300
H 	H 	0.53860 0.35490 0.00090 0.05600
C 	C 	0.65380 0.52890 0.95653 -0.03300
H 	H 	0.65810 0.56060 0.91490 0.04000
H 	H 	0.64200 0.56590 0.99010 0.04300
C 	C 	0.70226 0.49187 0.98906 -0.14500
H 	H 	0.71520 0.45720 0.95480 0.07900
H 	H 	0.69800 0.45820 0.02970 0.07700
C 	C 	0.73717 0.56256 0.01156 -0.03100
H 	H 	0.72630 0.59250 0.05030 0.04100
H 	H 	0.73750 0.60050 0.97240 0.03900
C 	C 	0.81778 0.52415 0.98694 0.02600
H 	H 	0.80760 0.54020 0.94050 0.02800
C 	C 	0.86407 0.49452 0.00586 -0.04300
H 	H 	0.88520 0.49030 0.97250 0.07000
C 	C 	0.87892 0.47097 0.07532 -0.06800
C 	C 	0.84674 0.47842 0.12405 -0.03800
H 	H 	0.85620 0.46340 0.17100 0.07200
C 	C 	0.80098 0.50810 0.10215 0.02300
H 	H 	0.77920 0.51310 0.13450 0.02500
C 	C 	0.92939 0.43760 0.09789 0.45400
C 	C 	0.45407 0.97704 0.84958 0.46300
C 	C 	0.43760 0.88940 0.83690 -0.07500
C 	C 	0.42276 0.84237 0.89055 -0.04300
H 	H 	0.42510 0.86330 0.93620 0.06700
C 	C 	0.40468 0.76482 0.87549 0.02600
H 	H 	0.39450 0.73310 0.91110 0.02800
C 	C 	0.41826 0.77674 0.75776 0.02000
H 	H 	0.41770 0.75320 0.71330 0.02800
C 	C 	0.43615 0.85498 0.77061 -0.03300
H 	H 	0.44730 0.88490 0.73470 0.07400
C 	C 	0.37589 0.65406 0.79226 -0.04400
H 	H 	0.38030 0.63710 0.74500 0.04500
H 	H 	0.38990 0.61190 0.82510 0.04400
C 	C 	0.32185 0.66226 0.79638 -0.12200
H 	H 	0.31700 0.65900 0.84550 0.06600
H 	H 	0.30480 0.61620 0.77160 0.06800
C 	C 	0.29985 0.74223 0.76505 -0.04500
H 	H 	0.31580 0.75830 0.72530 0.05200
H 	H 	0.30500 0.78570 0.80020 0.05300
C 	C 	0.21623 0.72496 0.78988 0.01400
H 	H 	0.22800 0.73060 0.83770 0.02900
C 	C 	0.16793 0.70984 0.76844 -0.02800
H 	H 	0.14680 0.70520 0.80170 0.06500
C 	C 	0.15066 0.70153 0.69735 -0.08500
C 	C 	0.18203 0.71192 0.64823 -0.03100
H 	H 	0.17060 0.70900 0.60010 0.05100
C 	C 	0.23062 0.72679 0.67170 0.01500
H 	H 	0.25220 0.73350 0.63920 0.02500
C 	C 	0.09849 0.67681 0.67305 0.47000
Cu	Cu	0.02180 0.61901 0.57243 0.91100
O 	O 	0.99275 0.72841 0.56301 -0.40000
O 	O 	0.99200 0.74271 0.67791 -0.16400
O 	O 	0.57085 0.89444 0.34456 -0.26100
O 	O 	0.54486 0.92695 0.44669 -0.42700
O 	O 	0.04752 0.50803 0.59276 -0.43300
O 	O 	0.01080 0.49946 0.69137 -0.30000
O 	O 	0.41397 0.16519 0.89006 -0.42800
O 	O 	0.42444 0.13780 0.77662 -0.27900
O 	O 	0.05411 0.52531 0.70500 -0.28200
O 	O 	0.96777 0.71964 0.66529 -0.30000
O 	O 	0.54689 0.95438 0.33701 -0.28500
O 	O 	0.43004 0.19827 0.78759 -0.27200
N 	N 	0.88216 0.96272 0.56301 -0.11300
N 	N 	0.71287 0.03025 0.46578 -0.11400
N 	N 	0.09851 0.23405 0.69028 -0.11200
N 	N 	0.25314 0.23167 0.75876 -0.11000
C 	C 	0.97527 0.75881 0.61251 0.44000
C 	C 	0.94437 0.83441 0.59637 -0.06500
C 	C 	0.91624 0.86373 0.64512 -0.03900
H 	H 	0.91850 0.84000 0.68970 0.07100
C 	C 	0.88503 0.92822 0.62668 0.03000
H 	H 	0.86570 0.94800 0.65880 0.02400
C 	C 	0.91047 0.93732 0.51581 0.02800
H 	H 	0.90870 0.96370 0.47230 0.02900
C 	C 	0.94189 0.87274 0.53170 -0.04000
H 	H 	0.96140 0.85490 0.49910 0.06700
C 	C 	0.84620 0.02890 0.54347 -0.03700
H 	H 	0.84190 0.06060 0.58510 0.04400
H 	H 	0.85800 0.06590 0.50990 0.04800
C 	C 	0.79774 0.99187 0.51094 -0.13800
H 	H 	0.78480 0.95720 0.54520 0.07800
H 	H 	0.80200 0.95820 0.47030 0.07500
C 	C 	0.76283 0.06256 0.48844 -0.03700
H 	H 	0.77370 0.09250 0.44970 0.04300
H 	H 	0.76250 0.10050 0.52760 0.04200
C 	C 	0.68222 0.02415 0.51306 0.02900
H 	H 	0.69240 0.04020 0.55950 0.02700
C 	C 	0.63593 0.99452 0.49414 -0.04700
H 	H 	0.61480 0.99030 0.52750 0.07100
C 	C 	0.62108 0.97097 0.42468 -0.07400
C 	C 	0.65326 0.97842 0.37595 -0.03500
H 	H 	0.64380 0.96340 0.32900 0.07100
C 	C 	0.69902 0.00810 0.39785 0.02100
H 	H 	0.72080 0.01310 0.36550 0.02600
C 	C 	0.57061 0.93760 0.40211 0.46800
C 	C 	0.04593 0.47704 0.65042 0.46200
C 	C 	0.06240 0.38940 0.66310 -0.08400
C 	C 	0.07724 0.34237 0.60945 -0.04200
H 	H 	0.07490 0.36330 0.56380 0.06400
C 	C 	0.09532 0.26482 0.62451 0.02100
H 	H 	0.10550 0.23310 0.58890 0.02900
C 	C 	0.08174 0.27674 0.74224 0.01400
H 	H 	0.08230 0.25320 0.78670 0.02300
C 	C 	0.06385 0.35498 0.72939 -0.03200
H 	H 	0.05270 0.38490 0.76530 0.06400
C 	C 	0.12411 0.15406 0.70774 -0.04100
H 	H 	0.11970 0.13710 0.75500 0.04000
H 	H 	0.11010 0.11190 0.67490 0.03900
C 	C 	0.17815 0.16226 0.70362 -0.12400
H 	H 	0.18300 0.15900 0.65450 0.06600
H 	H 	0.19520 0.11620 0.72840 0.06800
C 	C 	0.20015 0.24223 0.73495 -0.04400
H 	H 	0.18420 0.25830 0.77470 0.05200
H 	H 	0.19500 0.28570 0.69980 0.05300
C 	C 	0.28377 0.22496 0.71012 0.01400
H 	H 	0.27200 0.23060 0.66230 0.02800
C 	C 	0.33207 0.20984 0.73156 -0.02800
H 	H 	0.35320 0.20520 0.69830 0.06500
C 	C 	0.34934 0.20153 0.80265 -0.08300
C 	C 	0.31797 0.21192 0.85177 -0.03200
H 	H 	0.32940 0.20900 0.89990 0.05300
C 	C 	0.26938 0.22679 0.82830 0.01600
H 	H 	0.24780 0.23350 0.86080 0.02400
C 	C 	0.40151 0.17681 0.82695 0.47100
Cu	Cu	0.52180 0.11901 0.57243 0.93200
O 	O 	0.49275 0.22841 0.56301 -0.42800
O 	O 	0.49200 0.24271 0.67791 -0.20700
O 	O 	0.07085 0.39444 0.34456 -0.25500
O 	O 	0.04486 0.42695 0.44669 -0.44500
O 	O 	0.54752 0.00803 0.59276 -0.42300
O 	O 	0.51080 0.99946 0.69137 -0.27700
O 	O 	0.91397 0.66519 0.89006 -0.41400
O 	O 	0.92444 0.63780 0.77662 -0.26500
O 	O 	0.55411 0.02531 0.70500 -0.28900
O 	O 	0.46777 0.21964 0.66529 -0.30100
O 	O 	0.04689 0.45438 0.33701 -0.29800
O 	O 	0.93004 0.69827 0.78759 -0.25000
N 	N 	0.38216 0.46272 0.56301 -0.11200
N 	N 	0.21287 0.53025 0.46578 -0.11400
N 	N 	0.59851 0.73405 0.69028 -0.11100
N 	N 	0.75314 0.73167 0.75876 -0.11100
C 	C 	0.47527 0.25881 0.61251 0.45300
C 	C 	0.44437 0.33441 0.59637 -0.08200
C 	C 	0.41624 0.36373 0.64512 -0.03200
H 	H 	0.41850 0.34000 0.68970 0.06300
C 	C 	0.38503 0.42822 0.62668 0.02200
H 	H 	0.36570 0.44800 0.65880 0.02500
C 	C 	0.41047 0.43732 0.51581 0.01900
H 	H 	0.40870 0.46370 0.47230 0.02600
C 	C 	0.44189 0.37274 0.53170 -0.03300
H 	H 	0.46140 0.35490 0.49910 0.05500
C 	C 	0.34620 0.52890 0.54347 -0.03500
H 	H 	0.34190 0.56060 0.58510 0.04100
H 	H 	0.35800 0.56590 0.50990 0.04400
C 	C 	0.29774 0.49187 0.51094 -0.13900
H 	H 	0.28480 0.45720 0.54520 0.07800
H 	H 	0.30200 0.45820 0.47030 0.07500
C 	C 	0.26283 0.56256 0.48844 -0.03600
H 	H 	0.27370 0.59250 0.44970 0.04200
H 	H 	0.26250 0.60050 0.52760 0.04100
C 	C 	0.18222 0.52415 0.51306 0.02800
H 	H 	0.19240 0.54020 0.55950 0.02700
C 	C 	0.13593 0.49452 0.49414 -0.04600
H 	H 	0.11480 0.49030 0.52750 0.07000
C 	C 	0.12108 0.47097 0.42468 -0.07700
C 	C 	0.15326 0.47842 0.37595 -0.03400
H 	H 	0.14380 0.46340 0.32900 0.07000
C 	C 	0.19902 0.50810 0.39785 0.02000
H 	H 	0.22080 0.51310 0.36550 0.02600
C 	C 	0.07061 0.43760 0.40211 0.46900
C 	C 	0.54593 0.97704 0.65042 0.46300
C 	C 	0.56240 0.88940 0.66310 -0.07500
C 	C 	0.57724 0.84237 0.60945 -0.04300
H 	H 	0.57490 0.86330 0.56380 0.06800
C 	C 	0.59532 0.76482 0.62451 0.02600
H 	H 	0.60550 0.73310 0.58890 0.02800
C 	C 	0.58174 0.77674 0.74224 0.02000
H 	H 	0.58230 0.75320 0.78670 0.02800
C 	C 	0.56385 0.85498 0.72939 -0.03300
H 	H 	0.55270 0.88490 0.76530 0.07400
C 	C 	0.62411 0.65406 0.70774 -0.04400
H 	H 	0.61970 0.63710 0.75500 0.04500
H 	H 	0.61010 0.61190 0.67490 0.04400
C 	C 	0.67815 0.66226 0.70362 -0.12200
H 	H 	0.68300 0.65900 0.65450 0.06600
H 	H 	0.69520 0.61620 0.72840 0.06800
C 	C 	0.70015 0.74223 0.73495 -0.04500
H 	H 	0.68420 0.75830 0.77470 0.05200
H 	H 	0.69500 0.78570 0.69980 0.05300
C 	C 	0.78377 0.72496 0.71012 0.01700
H 	H 	0.77200 0.73060 0.66230 0.02700
C 	C 	0.83207 0.70984 0.73156 -0.03300
H 	H 	0.85320 0.70520 0.69830 0.06700
C 	C 	0.84934 0.70153 0.80265 -0.07500
C 	C 	0.81797 0.71192 0.85177 -0.03700
H 	H 	0.82940 0.70900 0.89990 0.05600
C 	C 	0.76938 0.72679 0.82830 0.01900
H 	H 	0.74780 0.73350 0.86080 0.02400
C 	C 	0.90151 0.67681 0.82695 0.45800
Gd	Gd	0.00000 0.37599 0.25000 1.88300
Gd	Gd	0.50000 0.87599 0.25000 2.00900
Gd	Gd	0.00000 0.62401 0.75000 1.88700
Gd	Gd	0.50000 0.12401 0.75000 2.00900
