data_crystal

_cell_length_a 21.29600
_cell_length_b 9.38200
_cell_length_c 18.80300
_cell_angle_alpha 90.00000
_cell_angle_beta  90.00000
_cell_angle_gamma 90.00000

_symmetry_space_group_name_	'P 1'
_symmetry_space_group_name_H-M	'P 1'

loop_
_symmetry_equiv_pos_as_xyz
  x,y,z

loop_
_atom_site_label
_atom_site_type_symbol
_atom_site_fract_x
_atom_site_fract_y
_atom_site_fract_z
_atom_site_charge
Cu	Cu	0.88791 0.01883 0.88200 0.84700
O 	O 	0.90320 0.49600 0.02130 -0.24500
N 	N 	0.95100 0.86700 0.91520 -0.23300
C 	C 	0.97670 0.67870 0.99460 -0.11000
C 	C 	0.93380 0.76600 0.96110 0.06700
H 	H 	0.89130 0.75380 0.97090 -0.00200
C 	C 	0.01330 0.88160 0.90110 0.06800
H 	H 	0.02590 0.95120 0.86890 -0.01200
C 	C 	0.05710 0.79990 0.93170 -0.11700
H 	H 	0.09900 0.81240 0.91960 0.07900
C 	C 	0.04090 0.69790 0.98070 0.02600
H 	H 	0.07130 0.64360 0.00370 0.04000
C 	C 	0.95280 0.55830 0.03740 0.23700
O 	O 	0.92470 0.45010 0.30060 -0.24400
N 	N 	0.05060 0.82140 0.40030 -0.23900
C 	C 	0.99060 0.62530 0.35460 -0.10800
C 	C 	0.03720 0.72150 0.34960 0.06700
H 	H 	0.06210 0.71980 0.30900 -0.01100
C 	C 	0.01340 0.81650 0.45770 0.08700
H 	H 	0.02100 0.88270 0.49350 -0.02000
C 	C 	0.96580 0.72320 0.46810 -0.13900
H 	H 	0.94320 0.72230 0.51040 0.08100
C 	C 	0.95220 0.63230 0.41530 0.04800
H 	H 	0.91720 0.57350 0.41880 0.04100
C 	C 	0.97560 0.51190 0.30030 0.24400
N 	N 	0.98360 0.52070 0.09700 -0.21700
H 	H 	0.01670 0.56710 0.10900 0.13200
N 	N 	0.01880 0.48120 0.25270 -0.22700
H 	H 	0.05340 0.52860 0.25270 0.14400
C 	C 	0.96200 0.40270 0.14210 -0.04600
H 	H 	0.95480 0.31930 0.11280 0.05000
H 	H 	0.92250 0.42860 0.16430 0.06400
C 	C 	0.00970 0.36710 0.19920 -0.02400
H 	H 	0.99630 0.28100 0.22340 0.04100
H 	H 	0.04970 0.34720 0.17660 0.04300
O 	O 	0.67160 0.46210 0.96950 -0.23800
N 	N 	0.82050 0.16710 0.85950 -0.22700
C 	C 	0.74890 0.33890 0.90270 -0.09100
C 	C 	0.80320 0.26220 0.90910 0.05700
H 	H 	0.82880 0.27630 0.94860 -0.00300
C 	C 	0.78220 0.14730 0.80210 0.06300
H 	H 	0.79320 0.07900 0.76850 -0.01200
C 	C 	0.72830 0.22370 0.79210 -0.11000
H 	H 	0.70460 0.21330 0.75090 0.07000
C 	C 	0.71020 0.31690 0.84520 0.02500
H 	H 	0.67200 0.36450 0.84200 0.04900
C 	C 	0.72820 0.43360 0.96130 0.21700
O 	O 	0.66750 0.52220 0.22880 -0.24400
N 	N 	0.67940 0.86720 0.36910 -0.23100
C 	C 	0.72600 0.68400 0.29900 -0.10200
C 	C 	0.67570 0.76730 0.31770 0.06400
H 	H 	0.63780 0.75440 0.29410 -0.00200
C 	C 	0.73390 0.87700 0.40680 0.06500
H 	H 	0.73690 0.94180 0.44400 -0.01300
C 	C 	0.78450 0.79240 0.39040 -0.11900
H 	H 	0.82120 0.80150 0.41680 0.07600
C 	C 	0.78230 0.69520 0.33640 0.03800
H 	H 	0.81690 0.63900 0.32510 0.02600
C 	C 	0.71720 0.58510 0.23720 0.23600
N 	N 	0.77300 0.49390 0.00330 -0.21200
H 	H 	0.81170 0.48280 0.99130 0.14600
N 	N 	0.76780 0.56630 0.19590 -0.22000
H 	H 	0.80180 0.60890 0.20850 0.12900
C 	C 	0.75980 0.57520 0.06660 -0.02600
H 	H 	0.78720 0.65770 0.06880 0.04600
H 	H 	0.71670 0.60850 0.06570 0.05900
C 	C 	0.77040 0.48070 0.13190 -0.03900
H 	H 	0.81100 0.43440 0.12850 0.05200
H 	H 	0.73840 0.40720 0.13380 0.06100
Cu	Cu	0.11209 0.98117 0.38200 0.84800
O 	O 	0.09680 0.50400 0.52130 -0.24700
N 	N 	0.04900 0.13300 0.41520 -0.23200
C 	C 	0.02330 0.32130 0.49460 -0.10400
C 	C 	0.06620 0.23400 0.46110 0.06700
H 	H 	0.10870 0.24620 0.47090 0.00000
C 	C 	0.98670 0.11840 0.40110 0.07000
H 	H 	0.97410 0.04880 0.36890 -0.01200
C 	C 	0.94290 0.20010 0.43170 -0.12300
H 	H 	0.90100 0.18760 0.41960 0.08200
C 	C 	0.95910 0.30210 0.48070 0.03700
H 	H 	0.92870 0.35640 0.50370 0.03200
C 	C 	0.04720 0.44170 0.53740 0.23000
O 	O 	0.07530 0.54990 0.80060 -0.24500
N 	N 	0.94940 0.17860 0.90030 -0.24100
C 	C 	0.00940 0.37470 0.85460 -0.11200
C 	C 	0.96280 0.27850 0.84960 0.06800
H 	H 	0.93790 0.28020 0.80900 -0.01200
C 	C 	0.98660 0.18350 0.95770 0.09600
H 	H 	0.97900 0.11730 0.99350 -0.02500
C 	C 	0.03420 0.27680 0.96810 -0.16000
H 	H 	0.05680 0.27770 0.01040 0.09300
C 	C 	0.04780 0.36770 0.91530 0.06000
H 	H 	0.08280 0.42650 0.91880 0.03600
C 	C 	0.02440 0.48810 0.80030 0.24600
N 	N 	0.01640 0.47930 0.59700 -0.21600
H 	H 	0.98330 0.43290 0.60900 0.13100
N 	N 	0.98120 0.51880 0.75270 -0.22800
H 	H 	0.94660 0.47140 0.75270 0.14400
C 	C 	0.03800 0.59730 0.64210 -0.04400
H 	H 	0.04520 0.68070 0.61280 0.04800
H 	H 	0.07750 0.57140 0.66430 0.06300
C 	C 	0.99030 0.63290 0.69920 -0.02600
H 	H 	0.00370 0.71900 0.72340 0.04100
H 	H 	0.95030 0.65280 0.67660 0.04300
O 	O 	0.32840 0.53790 0.46950 -0.23600
N 	N 	0.17950 0.83290 0.35950 -0.22700
C 	C 	0.25110 0.66110 0.40270 -0.09400
C 	C 	0.19680 0.73780 0.40910 0.05800
H 	H 	0.17120 0.72370 0.44860 -0.00300
C 	C 	0.21780 0.85270 0.30210 0.06400
H 	H 	0.20680 0.92100 0.26850 -0.01200
C 	C 	0.27170 0.77630 0.29210 -0.11100
H 	H 	0.29540 0.78670 0.25090 0.07100
C 	C 	0.28980 0.68310 0.34520 0.02700
H 	H 	0.32800 0.63550 0.34200 0.04800
C 	C 	0.27180 0.56640 0.46130 0.22400
O 	O 	0.33250 0.47780 0.72880 -0.24400
N 	N 	0.32060 0.13280 0.86910 -0.23200
C 	C 	0.27400 0.31600 0.79900 -0.10200
C 	C 	0.32430 0.23270 0.81770 0.06400
H 	H 	0.36220 0.24560 0.79410 -0.00200
C 	C 	0.26610 0.12300 0.90680 0.06500
H 	H 	0.26310 0.05820 0.94400 -0.01400
C 	C 	0.21550 0.20760 0.89040 -0.12000
H 	H 	0.17880 0.19850 0.91680 0.07500
C 	C 	0.21770 0.30480 0.83640 0.03700
H 	H 	0.18310 0.36100 0.82510 0.02600
C 	C 	0.28280 0.41490 0.73720 0.23600
N 	N 	0.22700 0.50610 0.50330 -0.22200
H 	H 	0.18830 0.51720 0.49130 0.15400
N 	N 	0.23220 0.43370 0.69590 -0.22000
H 	H 	0.19820 0.39110 0.70850 0.12900
C 	C 	0.24020 0.42480 0.56660 -0.02300
H 	H 	0.21280 0.34230 0.56880 0.04300
H 	H 	0.28330 0.39150 0.56570 0.05700
C 	C 	0.22960 0.51930 0.63190 -0.04100
H 	H 	0.18900 0.56560 0.62850 0.05100
H 	H 	0.26160 0.59280 0.63380 0.06000
Cu	Cu	0.38791 0.98117 0.88200 0.84900
O 	O 	0.40320 0.50400 0.02130 -0.24400
N 	N 	0.45100 0.13300 0.91520 -0.23200
C 	C 	0.47670 0.32130 0.99460 -0.10800
C 	C 	0.43380 0.23400 0.96110 0.06700
H 	H 	0.39130 0.24620 0.97090 -0.00200
C 	C 	0.51330 0.11840 0.90110 0.06800
H 	H 	0.52590 0.04880 0.86890 -0.01100
C 	C 	0.55710 0.20010 0.93170 -0.11600
H 	H 	0.59900 0.18760 0.91960 0.07900
C 	C 	0.54090 0.30210 0.98070 0.02400
H 	H 	0.57130 0.35640 0.00370 0.04200
C 	C 	0.45280 0.44170 0.03740 0.23600
O 	O 	0.42470 0.54990 0.30060 -0.24400
N 	N 	0.55060 0.17860 0.40030 -0.23900
C 	C 	0.49060 0.37470 0.35460 -0.10900
C 	C 	0.53720 0.27850 0.34960 0.06900
H 	H 	0.56210 0.28020 0.30900 -0.01100
C 	C 	0.51340 0.18350 0.45770 0.09000
H 	H 	0.52100 0.11730 0.49350 -0.02000
C 	C 	0.46580 0.27680 0.46810 -0.14300
H 	H 	0.44320 0.27770 0.51040 0.08200
C 	C 	0.45220 0.36770 0.41530 0.05000
H 	H 	0.41720 0.42650 0.41880 0.04000
C 	C 	0.47560 0.48810 0.30030 0.24500
N 	N 	0.48360 0.47930 0.09700 -0.21800
H 	H 	0.51670 0.43290 0.10900 0.13200
N 	N 	0.51880 0.51880 0.25270 -0.22700
H 	H 	0.55340 0.47140 0.25270 0.14400
C 	C 	0.46200 0.59730 0.14210 -0.04400
H 	H 	0.45480 0.68070 0.11280 0.05000
H 	H 	0.42250 0.57140 0.16430 0.06400
C 	C 	0.50970 0.63290 0.19920 -0.02600
H 	H 	0.49630 0.71900 0.22340 0.04200
H 	H 	0.54970 0.65280 0.17660 0.04400
O 	O 	0.17160 0.53790 0.96950 -0.23800
N 	N 	0.32050 0.83290 0.85950 -0.22700
C 	C 	0.24890 0.66110 0.90270 -0.09100
C 	C 	0.30320 0.73780 0.90910 0.05700
H 	H 	0.32880 0.72370 0.94860 -0.00300
C 	C 	0.28220 0.85270 0.80210 0.06300
H 	H 	0.29320 0.92100 0.76850 -0.01200
C 	C 	0.22830 0.77630 0.79210 -0.11000
H 	H 	0.20460 0.78670 0.75090 0.07000
C 	C 	0.21020 0.68310 0.84520 0.02500
H 	H 	0.17200 0.63550 0.84200 0.04900
C 	C 	0.22820 0.56640 0.96130 0.21700
O 	O 	0.16750 0.47780 0.22880 -0.24400
N 	N 	0.17940 0.13280 0.36910 -0.23100
C 	C 	0.22600 0.31600 0.29900 -0.10200
C 	C 	0.17570 0.23270 0.31770 0.06400
H 	H 	0.13780 0.24560 0.29410 -0.00200
C 	C 	0.23390 0.12300 0.40680 0.06500
H 	H 	0.23690 0.05820 0.44400 -0.01300
C 	C 	0.28450 0.20760 0.39040 -0.11900
H 	H 	0.32120 0.19850 0.41680 0.07500
C 	C 	0.28230 0.30480 0.33640 0.03700
H 	H 	0.31690 0.36100 0.32510 0.02600
C 	C 	0.21720 0.41490 0.23720 0.23600
N 	N 	0.27300 0.50610 0.00330 -0.21300
H 	H 	0.31170 0.51720 0.99130 0.14600
N 	N 	0.26780 0.43370 0.19590 -0.22000
H 	H 	0.30180 0.39110 0.20850 0.12900
C 	C 	0.25980 0.42480 0.06660 -0.02600
H 	H 	0.28720 0.34230 0.06880 0.04600
H 	H 	0.21670 0.39150 0.06570 0.05900
C 	C 	0.27040 0.51930 0.13190 -0.03900
H 	H 	0.31100 0.56560 0.12850 0.05200
H 	H 	0.23840 0.59280 0.13380 0.06100
Cu	Cu	0.61209 0.01883 0.38200 0.84900
O 	O 	0.59680 0.49600 0.52130 -0.24700
N 	N 	0.54900 0.86700 0.41520 -0.23300
C 	C 	0.52330 0.67870 0.49460 -0.10700
C 	C 	0.56620 0.76600 0.46110 0.06800
H 	H 	0.60870 0.75380 0.47090 -0.00100
C 	C 	0.48670 0.88160 0.40110 0.07400
H 	H 	0.47410 0.95120 0.36890 -0.01300
C 	C 	0.44290 0.79990 0.43170 -0.12600
H 	H 	0.40100 0.81240 0.41960 0.08300
C 	C 	0.45910 0.69790 0.48070 0.04100
H 	H 	0.42870 0.64360 0.50370 0.03000
C 	C 	0.54720 0.55830 0.53740 0.23100
O 	O 	0.57530 0.45010 0.80060 -0.24500
N 	N 	0.44940 0.82140 0.90030 -0.24300
C 	C 	0.50940 0.62530 0.85460 -0.11700
C 	C 	0.46280 0.72150 0.84960 0.07300
H 	H 	0.43790 0.71980 0.80900 -0.01300
C 	C 	0.48660 0.81650 0.95770 0.10300
H 	H 	0.47900 0.88270 0.99350 -0.02700
C 	C 	0.53420 0.72320 0.96810 -0.17000
H 	H 	0.55680 0.72230 0.01040 0.09700
C 	C 	0.54780 0.63230 0.91530 0.06600
H 	H 	0.58280 0.57350 0.91880 0.03400
C 	C 	0.52440 0.51190 0.80030 0.24700
N 	N 	0.51640 0.52070 0.59700 -0.21700
H 	H 	0.48330 0.56710 0.60900 0.13100
N 	N 	0.48120 0.48120 0.75270 -0.22800
H 	H 	0.44660 0.52860 0.75270 0.14400
C 	C 	0.53800 0.40270 0.64210 -0.04400
H 	H 	0.54520 0.31930 0.61280 0.04900
H 	H 	0.57750 0.42860 0.66430 0.06300
C 	C 	0.49030 0.36710 0.69920 -0.02600
H 	H 	0.50370 0.28100 0.72340 0.04200
H 	H 	0.45030 0.34720 0.67660 0.04300
O 	O 	0.82840 0.46210 0.46950 -0.23700
N 	N 	0.67950 0.16710 0.35950 -0.22700
C 	C 	0.75110 0.33890 0.40270 -0.09400
C 	C 	0.69680 0.26220 0.40910 0.05800
H 	H 	0.67120 0.27630 0.44860 -0.00300
C 	C 	0.71780 0.14730 0.30210 0.06400
H 	H 	0.70680 0.07900 0.26850 -0.01200
C 	C 	0.77170 0.22370 0.29210 -0.11100
H 	H 	0.79540 0.21330 0.25090 0.07100
C 	C 	0.78980 0.31690 0.34520 0.02700
H 	H 	0.82800 0.36450 0.34200 0.04800
C 	C 	0.77180 0.43360 0.46130 0.22400
O 	O 	0.83250 0.52220 0.72880 -0.24500
N 	N 	0.82060 0.86720 0.86910 -0.23100
C 	C 	0.77400 0.68400 0.79900 -0.10200
C 	C 	0.82430 0.76730 0.81770 0.06400
H 	H 	0.86220 0.75440 0.79410 -0.00200
C 	C 	0.76610 0.87700 0.90680 0.06400
H 	H 	0.76310 0.94180 0.94400 -0.01400
C 	C 	0.71550 0.79240 0.89040 -0.12000
H 	H 	0.67880 0.80150 0.91680 0.07400
C 	C 	0.71770 0.69520 0.83640 0.03700
H 	H 	0.68310 0.63900 0.82510 0.02600
C 	C 	0.78280 0.58510 0.73720 0.23600
N 	N 	0.72700 0.49390 0.50330 -0.22200
H 	H 	0.68830 0.48280 0.49130 0.15400
N 	N 	0.73220 0.56630 0.69590 -0.22000
H 	H 	0.69820 0.60890 0.70850 0.12900
C 	C 	0.74020 0.57520 0.56660 -0.02300
H 	H 	0.71280 0.65770 0.56880 0.04300
H 	H 	0.78330 0.60850 0.56570 0.05700
C 	C 	0.72960 0.48070 0.63190 -0.04100
H 	H 	0.68900 0.43440 0.62850 0.05100
H 	H 	0.76160 0.40720 0.63380 0.06000
