data_crystal

_cell_length_a 9.21400
_cell_length_b 13.02590
_cell_length_c 18.59590
_cell_angle_alpha 72.34640
_cell_angle_beta  75.65600
_cell_angle_gamma 69.28750

_symmetry_space_group_name_	'P 1'
_symmetry_space_group_name_H-M	'P 1'

loop_
_symmetry_equiv_pos_as_xyz
  x,y,z

loop_
_atom_site_label
_atom_site_type_symbol
_atom_site_fract_x
_atom_site_fract_y
_atom_site_fract_z
_atom_site_charge
Tb	Tb	0.76279 0.08921 0.99369 1.70500
Tb	Tb	0.23721 0.91079 0.00631 1.70500
Tb	Tb	0.84569 0.41079 0.50631 1.72100
Tb	Tb	0.15431 0.58921 0.49369 1.72100
Zn	Zn	0.77400 0.08895 0.33443 1.20400
Zn	Zn	0.22600 0.91105 0.66557 1.20400
Zn	Zn	0.19738 0.41105 0.16557 1.20400
Zn	Zn	0.80262 0.58895 0.83443 1.20400
H 	H 	0.62060 0.57780 0.69420 0.25100
H 	H 	0.64370 0.95720 0.64660 0.27800
H 	H 	0.28730 0.01360 0.44040 0.29300
H 	H 	0.11170 0.60670 0.90850 0.27400
H 	H 	0.99170 0.81950 0.86150 0.25400
H 	H 	0.00830 0.18050 0.13850 0.25400
H 	H 	0.50400 0.67380 0.64300 0.26100
H 	H 	0.17920 0.17380 0.14300 0.26400
H 	H 	0.49600 0.32620 0.35700 0.26100
H 	H 	0.25870 0.51360 0.94040 0.29500
H 	H 	0.37310 0.10670 0.40850 0.27200
H 	H 	0.32730 0.31950 0.36150 0.25200
H 	H 	0.71270 0.98640 0.55960 0.29300
H 	H 	0.26300 0.30750 0.96530 0.15700
H 	H 	0.37940 0.42220 0.30580 0.25100
H 	H 	0.74130 0.48640 0.05960 0.29500
H 	H 	0.62690 0.89330 0.59150 0.27200
H 	H 	0.73700 0.69250 0.03470 0.15700
H 	H 	0.82080 0.82620 0.85700 0.26400
H 	H 	0.88830 0.39330 0.09150 0.27400
H 	H 	0.53580 0.19250 0.53470 0.15600
H 	H 	0.67270 0.68050 0.63850 0.25200
H 	H 	0.35630 0.04280 0.35340 0.27800
H 	H 	0.89260 0.92220 0.80580 0.25500
H 	H 	0.75250 0.45720 0.14660 0.27900
H 	H 	0.10740 0.07780 0.19420 0.25500
H 	H 	0.46420 0.80750 0.46530 0.15600
H 	H 	0.24750 0.54280 0.85340 0.27900
C 	C 	0.06282 0.13966 0.58150 0.40100
C 	C 	0.89176 0.55218 0.08030 0.34100
C 	C 	0.77116 0.86098 0.42770 -0.09100
C 	C 	0.08467 0.15746 0.17180 -0.84100
C 	C 	0.88329 0.84492 0.02010 0.33600
C 	C 	0.58607 0.65746 0.67180 -0.83400
C 	C 	0.30459 0.21982 0.54320 -0.01500
C 	C 	0.24736 0.94078 0.81470 0.35000
C 	C 	0.50431 0.76828 0.83810 -0.07200
C 	C 	0.75264 0.05922 0.18530 0.35000
C 	C 	0.47448 0.28004 0.26660 0.30100
C 	C 	0.05984 0.63902 0.07230 -0.09700
C 	C 	0.97888 0.78004 0.76660 0.30400
C 	C 	0.94016 0.36098 0.92770 -0.09700
C 	C 	0.93239 0.71982 0.04320 -0.01000
C 	C 	0.44144 0.24012 0.09100 0.35600
C 	C 	0.62840 0.96450 0.59590 -0.87600
C 	C 	0.88931 0.26828 0.33810 -0.07300
C 	C 	0.69541 0.78018 0.45680 -0.01500
C 	C 	0.41393 0.34254 0.32820 -0.83400
C 	C 	0.47576 0.05218 0.58030 0.33600
C 	C 	0.02112 0.21996 0.23340 0.30400
C 	C 	0.11671 0.15508 0.97990 0.33600
C 	C 	0.37160 0.03550 0.40410 -0.87600
C 	C 	0.91533 0.84254 0.82820 -0.84100
C 	C 	0.38240 0.84170 0.79990 -0.07000
C 	C 	0.81120 0.46450 0.09590 -0.88200
C 	C 	0.18880 0.53550 0.90410 -0.88200
C 	C 	0.22884 0.13902 0.57230 -0.09100
C 	C 	0.99716 0.44078 0.31470 0.35200
C 	C 	0.02400 0.65830 0.70010 -0.07100
C 	C 	0.25169 0.34492 0.52010 0.33900
C 	C 	0.97600 0.34170 0.29990 -0.07100
C 	C 	0.22744 0.74012 0.59100 0.35600
C 	C 	0.52552 0.71996 0.73340 0.30100
C 	C 	0.74831 0.65508 0.47990 0.33900
C 	C 	0.55856 0.75988 0.90900 0.35600
C 	C 	0.93718 0.86034 0.41850 0.40100
C 	C 	0.61760 0.15830 0.20010 -0.07000
C 	C 	0.11069 0.73172 0.66190 -0.07300
C 	C 	0.21602 0.63966 0.08150 0.39800
C 	C 	0.06761 0.28018 0.95680 -0.01000
C 	C 	0.49569 0.23172 0.16190 -0.07200
C 	C 	0.52424 0.94782 0.41970 0.33600
C 	C 	0.77256 0.25988 0.40900 0.35600
C 	C 	0.78398 0.36034 0.91850 0.39800
C 	C 	0.00284 0.55922 0.68530 0.35200
C 	C 	0.10824 0.44782 0.91970 0.34100
N 	N 	0.03265 0.53494 0.09636 -0.27100
N 	N 	0.94194 0.68852 0.76680 -0.28700
N 	N 	0.17204 0.33742 0.95110 -0.25500
N 	N 	0.53944 0.83742 0.45110 -0.25400
N 	N 	0.08102 0.80859 0.70497 -0.28000
N 	N 	0.96735 0.46506 0.90364 -0.27100
N 	N 	0.46056 0.16258 0.54890 -0.25400
N 	N 	0.40542 0.30859 0.20497 -0.27800
N 	N 	0.33605 0.03494 0.59636 -0.26900
N 	N 	0.59458 0.69141 0.79503 -0.27800
N 	N 	0.05806 0.31148 0.23320 -0.28700
N 	N 	0.39726 0.81148 0.73320 -0.28600
N 	N 	0.82796 0.66258 0.04890 -0.25500
N 	N 	0.66395 0.96506 0.40364 -0.26900
N 	N 	0.60274 0.18852 0.26680 -0.28600
N 	N 	0.91898 0.19141 0.29503 -0.28000
O 	O 	0.65394 0.60265 0.48367 -0.44100
O 	O 	0.01883 0.10054 0.99520 -0.54100
O 	O 	0.68232 0.68102 0.92514 -0.43200
O 	O 	0.88543 0.60054 0.49520 -0.54700
O 	O 	0.03168 0.05151 0.62133 -0.43300
O 	O 	0.34606 0.39735 0.51633 -0.44100
O 	O 	0.21299 0.96587 0.87895 -0.46300
O 	O 	0.16696 0.99562 0.76246 -0.41800
O 	O 	0.98117 0.89946 0.00480 -0.54100
O 	O 	0.92504 0.50438 0.73754 -0.41900
O 	O 	0.78701 0.03413 0.12105 -0.46300
O 	O 	0.83304 0.00438 0.23754 -0.41800
O 	O 	0.51359 0.16741 0.05221 -0.47100
O 	O 	0.74026 0.89735 0.01633 -0.43900
O 	O 	0.73862 0.27509 0.95187 -0.50800
O 	O 	0.29548 0.55151 0.12133 -0.43400
O 	O 	0.11457 0.39946 0.50480 -0.54700
O 	O 	0.31768 0.31898 0.07486 -0.43200
O 	O 	0.07496 0.49562 0.26246 -0.41900
O 	O 	0.26679 0.66741 0.55221 -0.47500
O 	O 	0.05781 0.53413 0.62105 -0.46700
O 	O 	0.96558 0.22491 0.54813 -0.51200
O 	O 	0.71152 0.18102 0.42514 -0.43300
O 	O 	0.03442 0.77509 0.45187 -0.51200
O 	O 	0.48641 0.83259 0.94779 -0.47100
O 	O 	0.96832 0.94849 0.37867 -0.43300
O 	O 	0.73321 0.33259 0.44779 -0.47500
O 	O 	0.26138 0.72491 0.04813 -0.50800
O 	O 	0.94219 0.46587 0.37895 -0.46700
O 	O 	0.25974 0.10265 0.98367 -0.43900
O 	O 	0.70452 0.44849 0.87867 -0.43400
O 	O 	0.28848 0.81898 0.57486 -0.43300
