data_crystal

_cell_length_a 9.18160
_cell_length_b 12.98510
_cell_length_c 18.46270
_cell_angle_alpha 72.06440
_cell_angle_beta  75.60220
_cell_angle_gamma 69.29580

_symmetry_space_group_name_	'P 1'
_symmetry_space_group_name_H-M	'P 1'

loop_
_symmetry_equiv_pos_as_xyz
  x,y,z

loop_
_atom_site_label
_atom_site_type_symbol
_atom_site_fract_x
_atom_site_fract_y
_atom_site_fract_z
_atom_site_charge
Dy	Dy	0.23674 0.41071 0.50661 1.68900
Dy	Dy	0.76326 0.58929 0.49339 1.68900
Dy	Dy	0.84594 0.91071 0.00661 1.67000
Dy	Dy	0.15406 0.08929 0.99339 1.67000
Zn	Zn	0.77621 0.58862 0.83522 1.20500
Zn	Zn	0.20005 0.91138 0.66478 1.20500
Zn	Zn	0.79995 0.08862 0.33522 1.20500
Zn	Zn	0.22379 0.41138 0.16478 1.20500
H 	H 	0.75540 0.95440 0.65040 0.27400
H 	H 	0.24460 0.04560 0.34960 0.27400
H 	H 	0.49670 0.81890 0.86010 0.27400
H 	H 	0.71390 0.49070 0.06390 0.28900
H 	H 	0.46280 0.30580 0.96300 0.14700
H 	H 	0.39540 0.92250 0.80470 0.26300
H 	H 	0.26840 0.80580 0.46300 0.14800
H 	H 	0.63980 0.45440 0.15040 0.27300
H 	H 	0.28610 0.50930 0.93610 0.28900
H 	H 	0.67620 0.17390 0.14230 0.26300
H 	H 	0.87740 0.42250 0.30470 0.25900
H 	H 	0.63190 0.39480 0.09000 0.27000
H 	H 	0.73150 0.99070 0.56390 0.29100
H 	H 	0.00760 0.67390 0.64230 0.26000
H 	H 	0.53720 0.69420 0.03700 0.14700
H 	H 	0.11670 0.10520 0.41000 0.27100
H 	H 	0.99240 0.32610 0.35770 0.26000
H 	H 	0.12260 0.57750 0.69530 0.25900
H 	H 	0.73160 0.19420 0.53700 0.14800
H 	H 	0.88330 0.89480 0.59000 0.27100
H 	H 	0.50330 0.18110 0.13990 0.27400
H 	H 	0.82430 0.31890 0.36010 0.27100
H 	H 	0.36020 0.54560 0.84960 0.27300
H 	H 	0.26850 0.00930 0.43610 0.29100
H 	H 	0.32380 0.82610 0.85770 0.26300
H 	H 	0.36810 0.60520 0.91000 0.27000
H 	H 	0.17570 0.68110 0.63990 0.27100
H 	H 	0.60460 0.07750 0.19530 0.26300
C 	C 	0.06300 0.64010 0.07990 0.40200
C 	C 	0.62900 0.46530 0.09790 -0.86500
C 	C 	0.02388 0.71974 0.73370 0.31700
C 	C 	0.10940 0.94740 0.41840 0.33500
C 	C 	0.49751 0.73268 0.66130 -0.07300
C 	C 	0.41820 0.84230 0.82750 -0.87100
C 	C 	0.47520 0.55260 0.08160 0.33400
C 	C 	0.37100 0.53470 0.90210 -0.86500
C 	C 	0.24490 0.44080 0.31560 0.35400
C 	C 	0.77060 0.36150 0.92830 -0.08700
C 	C 	0.99870 0.94080 0.81560 0.35600
C 	C 	0.44425 0.73910 0.59060 0.35700
C 	C 	0.80780 0.96530 0.59790 -0.86700
C 	C 	0.55575 0.26090 0.40940 0.35700
C 	C 	0.02136 0.15758 0.20050 -0.07000
C 	C 	0.50249 0.26732 0.33870 -0.07300
C 	C 	0.25150 0.84560 0.01980 0.34800
C 	C 	0.97612 0.28026 0.26630 0.31700
C 	C 	0.93960 0.86150 0.42830 -0.08700
C 	C 	0.30450 0.72140 0.04260 -0.02400
C 	C 	0.69550 0.27860 0.95740 -0.02400
C 	C 	0.10851 0.23268 0.16130 -0.07200
C 	C 	0.06850 0.77860 0.45740 -0.02400
C 	C 	0.11690 0.65440 0.48020 0.35000
C 	C 	0.93700 0.35990 0.92010 0.40200
C 	C 	0.37944 0.34242 0.29950 -0.07300
C 	C 	0.00130 0.05920 0.18440 0.35600
C 	C 	0.97864 0.84242 0.79950 -0.07000
C 	C 	0.62056 0.65758 0.70050 -0.07300
C 	C 	0.89060 0.05260 0.58160 0.33500
C 	C 	0.77395 0.76090 0.90940 0.35600
C 	C 	0.58180 0.15770 0.17250 -0.87100
C 	C 	0.88310 0.34560 0.51980 0.35000
C 	C 	0.74850 0.15440 0.98020 0.34800
C 	C 	0.19220 0.03470 0.40210 -0.86700
C 	C 	0.93150 0.22140 0.54260 -0.02400
C 	C 	0.78300 0.85990 0.42010 0.39600
C 	C 	0.75510 0.55920 0.68440 0.35400
C 	C 	0.52480 0.44740 0.91840 0.33400
C 	C 	0.52268 0.21974 0.23370 0.32300
C 	C 	0.89149 0.76732 0.83870 -0.07200
C 	C 	0.91200 0.34230 0.32750 -0.86300
C 	C 	0.21700 0.14010 0.57990 0.39600
C 	C 	0.22605 0.23910 0.09060 0.35600
C 	C 	0.08800 0.65770 0.67250 -0.86300
C 	C 	0.22940 0.63850 0.07170 -0.08700
C 	C 	0.47732 0.78026 0.76630 0.32300
C 	C 	0.06040 0.13850 0.57170 -0.08700
N 	N 	0.03233 0.03534 0.59640 -0.27100
N 	N 	0.93926 0.18909 0.26699 -0.29200
N 	N 	0.45995 0.66350 0.05040 -0.24300
N 	N 	0.60466 0.68909 0.76699 -0.29100
N 	N 	0.59168 0.19074 0.29570 -0.28300
N 	N 	0.40832 0.80926 0.70430 -0.28300
N 	N 	0.39534 0.31091 0.23301 -0.29100
N 	N 	0.96767 0.96466 0.40360 -0.27100
N 	N 	0.33593 0.53534 0.09640 -0.27000
N 	N 	0.06074 0.81091 0.73301 -0.29200
N 	N 	0.82615 0.16350 0.55040 -0.24300
N 	N 	0.17385 0.83650 0.44960 -0.24300
N 	N 	0.07812 0.30926 0.20430 -0.28100
N 	N 	0.92188 0.69074 0.79570 -0.28100
N 	N 	0.66407 0.46466 0.90360 -0.27000
N 	N 	0.54005 0.33650 0.94960 -0.24300
O 	O 	0.03018 0.55224 0.12020 -0.43400
O 	O 	0.26788 0.16585 0.05239 -0.46400
O 	O 	0.28655 0.31934 0.07356 -0.42900
O 	O 	0.74016 0.39795 0.51673 -0.44000
O 	O 	0.65484 0.10205 0.98327 -0.43900
O 	O 	0.26263 0.22604 0.54630 -0.50700
O 	O 	0.83599 0.50357 0.73765 -0.41400
O 	O 	0.96982 0.44776 0.87980 -0.43400
O 	O 	0.71345 0.68066 0.92644 -0.42900
O 	O 	0.21297 0.46685 0.37901 -0.46500
O 	O 	0.78703 0.53315 0.62099 -0.46500
O 	O 	0.51388 0.66585 0.55239 -0.47000
O 	O 	0.29738 0.05224 0.62020 -0.43500
O 	O 	0.88584 0.09973 0.99519 -0.54100
O 	O 	0.94117 0.96685 0.87901 -0.45900
O 	O 	0.03497 0.27396 0.95370 -0.51100
O 	O 	0.25984 0.60205 0.48327 -0.44000
O 	O 	0.32055 0.81934 0.57356 -0.43100
O 	O 	0.16401 0.49643 0.26235 -0.41400
O 	O 	0.73212 0.83415 0.94761 -0.46400
O 	O 	0.67945 0.18066 0.42644 -0.43100
O 	O 	0.34516 0.89795 0.01673 -0.43900
O 	O 	0.96503 0.72604 0.04630 -0.51100
O 	O 	0.07721 0.99643 0.76235 -0.41600
O 	O 	0.01924 0.59973 0.49519 -0.54500
O 	O 	0.73737 0.77396 0.45370 -0.50700
O 	O 	0.98076 0.40027 0.50481 -0.54500
O 	O 	0.05883 0.03315 0.12099 -0.45900
O 	O 	0.11416 0.90027 0.00481 -0.54100
O 	O 	0.48612 0.33415 0.44761 -0.47000
O 	O 	0.70262 0.94776 0.37980 -0.43500
O 	O 	0.92279 0.00357 0.23765 -0.41600
