data_crystal

_cell_length_a 9.22360
_cell_length_b 13.04210
_cell_length_c 18.63890
_cell_angle_alpha 72.10350
_cell_angle_beta  75.67460
_cell_angle_gamma 69.29180

_symmetry_space_group_name_	'P 1'
_symmetry_space_group_name_H-M	'P 1'

loop_
_symmetry_equiv_pos_as_xyz
  x,y,z

loop_
_atom_site_label
_atom_site_type_symbol
_atom_site_fract_x
_atom_site_fract_y
_atom_site_fract_z
_atom_site_charge
Gd	Gd	0.26255 0.58914 0.49308 1.47800
Gd	Gd	0.65523 0.08914 0.99308 1.47200
Gd	Gd	0.73745 0.41086 0.50692 1.47800
Gd	Gd	0.34477 0.91086 0.00692 1.47200
Zn	Zn	0.72643 0.41054 0.16610 1.20400
Zn	Zn	0.27357 0.58946 0.83390 1.20400
Zn	Zn	0.30307 0.08946 0.33390 1.20400
Zn	Zn	0.69693 0.91054 0.66610 1.20400
H 	H 	0.38580 0.89790 0.58270 0.27400
H 	H 	0.13360 0.39790 0.08270 0.27600
H 	H 	0.13670 0.44910 0.14790 0.27700
H 	H 	0.73370 0.05090 0.35210 0.27600
H 	H 	0.86330 0.55090 0.85210 0.27700
H 	H 	0.26630 0.94910 0.64790 0.27600
H 	H 	0.36340 0.41840 0.30640 0.28000
H 	H 	0.50110 0.33690 0.35090 0.27800
H 	H 	0.91180 0.91840 0.80640 0.27900
H 	H 	0.65580 0.69300 0.63440 0.28800
H 	H 	0.98320 0.80700 0.86560 0.28600
H 	H 	0.23030 0.99380 0.56400 0.29900
H 	H 	0.81110 0.83690 0.85090 0.27800
H 	H 	0.21190 0.49380 0.06400 0.30000
H 	H 	0.78810 0.50620 0.93600 0.30000
H 	H 	0.34420 0.30700 0.36560 0.28800
H 	H 	0.01680 0.19300 0.13440 0.28600
H 	H 	0.76970 0.00620 0.43600 0.29900
H 	H 	0.86640 0.60210 0.91730 0.27600
H 	H 	0.49890 0.66310 0.64910 0.27800
H 	H 	0.61420 0.10210 0.41730 0.27400
H 	H 	0.63660 0.58160 0.69360 0.28000
H 	H 	0.18890 0.16310 0.14910 0.27800
H 	H 	0.08820 0.08160 0.19360 0.27900
C 	C 	0.02620 0.22050 0.23330 0.32200
C 	C 	0.11640 0.65840 0.70060 -0.05900
C 	C 	0.39310 0.05250 0.58030 0.32300
C 	C 	0.72740 0.24070 0.09170 0.34000
C 	C 	0.91480 0.84090 0.82770 -0.90000
C 	C 	0.97380 0.77950 0.76670 0.32200
C 	C 	0.58340 0.65910 0.67230 -0.90300
C 	C 	0.61170 0.23220 0.16200 -0.06600
C 	C 	0.12780 0.46560 0.09500 -0.87100
C 	C 	0.38310 0.34510 0.52010 0.34300
C 	C 	0.61690 0.65490 0.47990 0.34300
C 	C 	0.24830 0.15490 0.97990 0.34300
C 	C 	0.68840 0.03440 0.40500 -0.86400
C 	C 	0.47540 0.84160 0.79940 -0.06000
C 	C 	0.28380 0.86140 0.41700 0.38700
C 	C 	0.00590 0.26780 0.33800 -0.06900
C 	C 	0.27260 0.75930 0.90830 0.34000
C 	C 	0.80590 0.72050 0.04170 -0.03700
C 	C 	0.71620 0.13860 0.58300 0.38700
C 	C 	0.43780 0.36140 0.91700 0.38700
C 	C 	0.99410 0.73220 0.66200 -0.06900
C 	C 	0.52460 0.15840 0.20060 -0.06000
C 	C 	0.75170 0.84510 0.02010 0.34300
C 	C 	0.43190 0.22050 0.54170 -0.03700
C 	C 	0.38830 0.76780 0.83800 -0.06600
C 	C 	0.60690 0.94750 0.41970 0.32300
C 	C 	0.94020 0.74070 0.59170 0.34000
C 	C 	0.27010 0.36280 0.92700 -0.07300
C 	C 	0.88360 0.34160 0.29940 -0.05900
C 	C 	0.56220 0.63860 0.08300 0.38700
C 	C 	0.31160 0.96560 0.59500 -0.86400
C 	C 	0.97410 0.55250 0.08030 0.32700
C 	C 	0.72990 0.63720 0.07300 -0.07300
C 	C 	0.50250 0.06050 0.18490 0.32600
C 	C 	0.08520 0.15910 0.17230 -0.90000
C 	C 	0.56810 0.77950 0.45830 -0.03700
C 	C 	0.02590 0.44750 0.91970 0.32700
C 	C 	0.44010 0.86280 0.42700 -0.07300
C 	C 	0.25210 0.56050 0.68490 0.32600
C 	C 	0.49750 0.93950 0.81510 0.32600
C 	C 	0.52000 0.72050 0.73330 0.32500
C 	C 	0.19410 0.27950 0.95830 -0.03700
C 	C 	0.55990 0.13720 0.57300 -0.07300
C 	C 	0.41660 0.34090 0.32770 -0.90300
C 	C 	0.48000 0.27950 0.26670 0.32500
C 	C 	0.87220 0.53440 0.90500 -0.87100
C 	C 	0.74790 0.43950 0.31510 0.32600
C 	C 	0.05980 0.25930 0.40830 0.34000
N 	N 	0.55740 0.81060 0.73400 -0.29200
N 	N 	0.53210 0.03470 0.59710 -0.27000
N 	N 	0.44260 0.18940 0.26600 -0.29200
N 	N 	0.10200 0.68940 0.76600 -0.29100
N 	N 	0.90450 0.80780 0.70460 -0.28100
N 	N 	0.89800 0.31060 0.23400 -0.29100
N 	N 	0.41690 0.69220 0.79540 -0.28200
N 	N 	0.67220 0.83750 0.45150 -0.14600
N 	N 	0.83610 0.53470 0.09710 -0.27100
N 	N 	0.46790 0.96530 0.40290 -0.27000
N 	N 	0.16390 0.46530 0.90290 -0.27100
N 	N 	0.09550 0.19220 0.29540 -0.28100
N 	N 	0.32780 0.16250 0.54850 -0.14600
N 	N 	0.96120 0.66250 0.04850 -0.14600
N 	N 	0.03880 0.33750 0.95150 -0.14600
N 	N 	0.58310 0.30780 0.20460 -0.28200
O 	O 	0.21180 0.68000 0.92500 -0.41000
O 	O 	0.28440 0.53520 0.62100 -0.41900
O 	O 	0.75840 0.60360 0.48460 -0.39900
O 	O 	0.33360 0.50550 0.73730 -0.40300
O 	O 	0.38557 0.10116 0.99490 -0.49300
O 	O 	0.79480 0.05130 0.62210 -0.42700
O 	O 	0.71560 0.46480 0.37900 -0.41900
O 	O 	0.53550 0.27540 0.94940 -0.45800
O 	O 	0.42360 0.00550 0.23730 -0.40200
O 	O 	0.78820 0.32000 0.07500 -0.41000
O 	O 	0.98690 0.33020 0.44800 -0.41700
O 	O 	0.76510 0.16980 0.05200 -0.41400
O 	O 	0.53180 0.55130 0.12210 -0.42700
O 	O 	0.55940 0.03520 0.12100 -0.41600
O 	O 	0.61443 0.89884 0.00510 -0.49300
O 	O 	0.51837 0.60116 0.49490 -0.49400
O 	O 	0.66640 0.49450 0.26270 -0.40300
O 	O 	0.20520 0.94870 0.37790 -0.42700
O 	O 	0.01310 0.66980 0.55200 -0.41700
O 	O 	0.15340 0.10360 0.98460 -0.39900
O 	O 	0.81680 0.82000 0.57500 -0.41100
O 	O 	0.57640 0.99450 0.76270 -0.40200
O 	O 	0.24160 0.39640 0.51540 -0.39900
O 	O 	0.84660 0.89640 0.01540 -0.39900
O 	O 	0.76030 0.22460 0.55060 -0.45800
O 	O 	0.23970 0.77540 0.44940 -0.45800
O 	O 	0.18320 0.18000 0.42500 -0.41100
O 	O 	0.46820 0.44870 0.87790 -0.42700
O 	O 	0.23490 0.83020 0.94800 -0.41400
O 	O 	0.44060 0.96480 0.87900 -0.41600
O 	O 	0.46450 0.72460 0.05060 -0.45800
O 	O 	0.48163 0.39884 0.50510 -0.49400
