data_crystal

_cell_length_a 26.15140
_cell_length_b 31.93440
_cell_length_c 22.19320
_cell_angle_alpha 90.00000
_cell_angle_beta  90.00000
_cell_angle_gamma 90.00000

_symmetry_space_group_name_	'P 1'
_symmetry_space_group_name_H-M	'P 1'

loop_
_symmetry_equiv_pos_as_xyz
  x,y,z

loop_
_atom_site_label
_atom_site_type_symbol
_atom_site_fract_x
_atom_site_fract_y
_atom_site_fract_z
_atom_site_charge
Cd	Cd	0.13780 0.87438 0.80880 1.17800
Cd	Cd	0.88543 0.87781 0.33049 1.12600
O 	O 	0.13670 0.81321 0.87100 -0.40400
O 	O 	0.20200 0.81677 0.80940 -0.36600
O 	O 	0.32120 0.64917 0.88440 -0.44600
O 	O 	0.33400 0.69920 0.81820 -0.34700
O 	O 	0.14300 0.71880 0.04150 -0.13300
O 	O 	0.20310 0.67220 0.04920 -0.13100
N 	N 	0.09350 0.83944 0.73350 -0.23400
N 	N 	0.93780 0.84678 0.40140 -0.27600
N 	N 	0.18820 0.90530 0.88210 -0.25500
N 	N 	0.32390 0.90851 0.22970 -0.23900
N 	N 	0.18120 0.70100 0.02240 -0.01000
C 	C 	0.09710 0.79790 0.72850 0.77300
H 	H 	0.12070 0.78330 0.75320 -0.23500
C 	C 	0.06750 0.77580 0.68860 0.83000
H 	H 	0.06920 0.74610 0.68780 -0.26700
C 	C 	0.03800 0.84020 0.64910 0.18300
H 	H 	0.02000 0.85660 0.62030 -0.04000
C 	C 	0.06800 0.85950 0.69170 0.13100
H 	H 	0.07040 0.88920 0.69080 -0.05400
C 	C 	0.03400 0.79720 0.64820 0.10500
C 	C 	0.99960 0.77460 0.60550 -0.07400
H 	H 	0.96370 0.78450 0.61140 0.04300
C 	C 	0.01160 0.77260 0.53690 -0.06400
H 	H 	0.04940 0.77130 0.53030 0.06700
C 	C 	0.98790 0.80220 0.49280 0.10600
C 	C 	0.00630 0.80320 0.43370 -0.17400
H 	H 	0.03680 0.78860 0.42360 0.09300
C 	C 	0.98030 0.82540 0.39010 0.08900
H 	H 	0.99350 0.82550 0.35020 -0.06600
C 	C 	0.92080 0.84660 0.45910 0.07300
H 	H 	0.89070 0.86190 0.46820 -0.02400
C 	C 	0.94430 0.82560 0.50510 -0.16000
H 	H 	0.93100 0.82700 0.54490 0.07700
C 	C 	0.16810 0.90820 0.93790 0.06800
H 	H 	0.13610 0.89500 0.94500 -0.03800
C 	C 	0.19050 0.92850 0.98440 -0.14600
H 	H 	0.17450 0.92920 0.02280 0.05000
C 	C 	0.23780 0.94840 0.97530 0.09000
C 	C 	0.25980 0.94390 0.91890 -0.15700
H 	H 	0.29250 0.95570 0.91080 0.06400
C 	C 	0.23410 0.92210 0.87460 0.09100
H 	H 	0.25020 0.91900 0.83650 -0.03300
C 	C 	0.26090 0.97710 0.02080 -0.06900
H 	H 	0.29880 0.97790 0.01530 0.04100
C 	C 	0.24810 0.97560 0.08880 -0.04900
H 	H 	0.21130 0.96770 0.09320 0.01700
C 	C 	0.27820 0.95190 0.13460 0.04200
C 	C 	0.28000 0.90920 0.13480 -0.08300
H 	H 	0.26660 0.89380 0.10170 0.06100
C 	C 	0.30150 0.88840 0.18330 0.01500
H 	H 	0.30040 0.85860 0.18400 0.02500
C 	C 	0.32070 0.95120 0.22980 -0.01800
H 	H 	0.33330 0.96580 0.26400 -0.02300
C 	C 	0.30040 0.97400 0.18360 -0.07500
H 	H 	0.30100 0.00370 0.18420 0.02300
C 	C 	0.17920 0.80020 0.85220 0.31000
C 	C 	0.20260 0.76260 0.88320 -0.04300
C 	C 	0.24480 0.74230 0.85930 -0.00000
H 	H 	0.25990 0.75250 0.82320 0.06100
C 	C 	0.26530 0.70750 0.88730 -0.04700
C 	C 	0.31040 0.68410 0.86210 0.32000
C 	C 	0.24490 0.69420 0.94210 -0.06400
H 	H 	0.25950 0.67100 0.96270 0.08200
C 	C 	0.20310 0.71500 0.96600 0.09700
C 	C 	0.18160 0.74930 0.93720 -0.06300
H 	H 	0.15300 0.76340 0.95420 0.08100
C 	C 	0.10930 0.80600 0.70500 -0.74800
H 	H 	0.14260 0.79600 0.71420 0.23600
C 	C 	0.08180 0.78440 0.66320 -0.94700
H 	H 	0.09600 0.76040 0.64450 0.32000
C 	C 	0.01250 0.83120 0.67830 -0.31300
H 	H 	0.97830 0.83970 0.67050 0.07900
C 	C 	0.04170 0.85200 0.71920 -0.07700
H 	H 	0.02760 0.87560 0.73920 0.00000
C 	C 	0.26500 0.91030 0.14890 -0.03600
H 	H 	0.24000 0.89570 0.12600 0.01900
C 	C 	0.28860 0.89180 0.19560 0.02200
H 	H 	0.27860 0.86400 0.20470 -0.01200
C 	C 	0.34360 0.94640 0.20660 0.05000
H 	H 	0.37410 0.95740 0.22370 -0.04900
C 	C 	0.32140 0.96740 0.16180 -0.03600
H 	H 	0.33550 0.99320 0.14870 0.00200
Cd	Cd	0.63780 0.37438 0.80880 1.17700
Cd	Cd	0.38543 0.37781 0.33049 1.12500
O 	O 	0.63670 0.31321 0.87100 -0.40500
O 	O 	0.70200 0.31677 0.80940 -0.36700
O 	O 	0.82120 0.14917 0.88440 -0.44700
O 	O 	0.83400 0.19920 0.81820 -0.34800
O 	O 	0.64300 0.21880 0.04150 -0.13400
O 	O 	0.70310 0.17220 0.04920 -0.13200
N 	N 	0.59350 0.33944 0.73350 -0.23500
N 	N 	0.43780 0.34678 0.40140 -0.27700
N 	N 	0.68820 0.40530 0.88210 -0.25600
N 	N 	0.82390 0.40851 0.22970 -0.24000
N 	N 	0.68120 0.20100 0.02240 -0.01100
C 	C 	0.59710 0.29790 0.72850 0.77200
H 	H 	0.62070 0.28330 0.75320 -0.23600
C 	C 	0.56750 0.27580 0.68860 0.82900
H 	H 	0.56920 0.24610 0.68780 -0.26700
C 	C 	0.53800 0.34020 0.64910 0.18300
H 	H 	0.52000 0.35660 0.62030 -0.04000
C 	C 	0.56800 0.35950 0.69170 0.13100
H 	H 	0.57040 0.38920 0.69080 -0.05400
C 	C 	0.53400 0.29720 0.64820 0.10500
C 	C 	0.49960 0.27460 0.60550 -0.07400
H 	H 	0.46370 0.28450 0.61140 0.04300
C 	C 	0.51160 0.27260 0.53690 -0.06400
H 	H 	0.54940 0.27130 0.53030 0.06700
C 	C 	0.48790 0.30220 0.49280 0.10600
C 	C 	0.50630 0.30320 0.43370 -0.17400
H 	H 	0.53680 0.28860 0.42360 0.09300
C 	C 	0.48030 0.32540 0.39010 0.08900
H 	H 	0.49350 0.32550 0.35020 -0.06600
C 	C 	0.42080 0.34660 0.45910 0.07300
H 	H 	0.39070 0.36190 0.46820 -0.02400
C 	C 	0.44430 0.32560 0.50510 -0.16000
H 	H 	0.43100 0.32700 0.54490 0.07700
C 	C 	0.66810 0.40820 0.93790 0.06800
H 	H 	0.63610 0.39500 0.94500 -0.03800
C 	C 	0.69050 0.42850 0.98440 -0.14600
H 	H 	0.67450 0.42920 0.02280 0.05000
C 	C 	0.73780 0.44840 0.97530 0.09000
C 	C 	0.75980 0.44390 0.91890 -0.15700
H 	H 	0.79250 0.45570 0.91080 0.06400
C 	C 	0.73410 0.42210 0.87460 0.09100
H 	H 	0.75020 0.41900 0.83650 -0.03300
C 	C 	0.76090 0.47710 0.02080 -0.06900
H 	H 	0.79880 0.47790 0.01530 0.04100
C 	C 	0.74810 0.47560 0.08880 -0.04900
H 	H 	0.71130 0.46770 0.09320 0.01700
C 	C 	0.77820 0.45190 0.13460 0.04200
C 	C 	0.78000 0.40920 0.13480 -0.08300
H 	H 	0.76660 0.39380 0.10170 0.06100
C 	C 	0.80150 0.38840 0.18330 0.01500
H 	H 	0.80040 0.35860 0.18400 0.02500
C 	C 	0.82070 0.45120 0.22980 -0.01800
H 	H 	0.83330 0.46580 0.26400 -0.02300
C 	C 	0.80040 0.47400 0.18360 -0.07500
H 	H 	0.80100 0.50370 0.18420 0.02300
C 	C 	0.67920 0.30020 0.85220 0.31000
C 	C 	0.70260 0.26260 0.88320 -0.04300
C 	C 	0.74480 0.24230 0.85930 -0.00000
H 	H 	0.75990 0.25250 0.82320 0.06100
C 	C 	0.76530 0.20750 0.88730 -0.04700
C 	C 	0.81040 0.18410 0.86210 0.32000
C 	C 	0.74490 0.19420 0.94210 -0.06400
H 	H 	0.75950 0.17100 0.96270 0.08200
C 	C 	0.70310 0.21500 0.96600 0.09700
C 	C 	0.68160 0.24930 0.93720 -0.06300
H 	H 	0.65300 0.26340 0.95420 0.08100
C 	C 	0.60930 0.30600 0.70500 -0.74800
H 	H 	0.64260 0.29600 0.71420 0.23600
C 	C 	0.58180 0.28440 0.66320 -0.94700
H 	H 	0.59600 0.26040 0.64450 0.32000
C 	C 	0.51250 0.33120 0.67830 -0.31300
H 	H 	0.47830 0.33970 0.67050 0.07900
C 	C 	0.54170 0.35200 0.71920 -0.07700
H 	H 	0.52760 0.37560 0.73920 0.00000
C 	C 	0.76500 0.41030 0.14890 -0.03600
H 	H 	0.74000 0.39570 0.12600 0.01900
C 	C 	0.78860 0.39180 0.19560 0.02200
H 	H 	0.77860 0.36400 0.20470 -0.01200
C 	C 	0.84360 0.44640 0.20660 0.05000
H 	H 	0.87410 0.45740 0.22370 -0.04900
C 	C 	0.82140 0.46740 0.16180 -0.03600
H 	H 	0.83550 0.49320 0.14870 0.00200
Cd	Cd	0.36220 0.12562 0.80880 1.17700
Cd	Cd	0.61457 0.12219 0.33049 1.12500
O 	O 	0.36330 0.18679 0.87100 -0.40500
O 	O 	0.29800 0.18323 0.80940 -0.36700
O 	O 	0.17880 0.35083 0.88440 -0.44700
O 	O 	0.16600 0.30080 0.81820 -0.34800
O 	O 	0.35700 0.28120 0.04150 -0.13400
O 	O 	0.29690 0.32780 0.04920 -0.13200
N 	N 	0.40650 0.16056 0.73350 -0.23500
N 	N 	0.56220 0.15322 0.40140 -0.27700
N 	N 	0.31180 0.09470 0.88210 -0.25600
N 	N 	0.17610 0.09149 0.22970 -0.24000
N 	N 	0.31880 0.29900 0.02240 -0.01100
C 	C 	0.40290 0.20210 0.72850 0.77200
H 	H 	0.37930 0.21670 0.75320 -0.23600
C 	C 	0.43250 0.22420 0.68860 0.82900
H 	H 	0.43080 0.25390 0.68780 -0.26700
C 	C 	0.46200 0.15980 0.64910 0.18300
H 	H 	0.48000 0.14340 0.62030 -0.04000
C 	C 	0.43200 0.14050 0.69170 0.13100
H 	H 	0.42960 0.11080 0.69080 -0.05400
C 	C 	0.46600 0.20280 0.64820 0.10500
C 	C 	0.50040 0.22540 0.60550 -0.07400
H 	H 	0.53630 0.21550 0.61140 0.04300
C 	C 	0.48840 0.22740 0.53690 -0.06400
H 	H 	0.45060 0.22870 0.53030 0.06700
C 	C 	0.51210 0.19780 0.49280 0.10600
C 	C 	0.49370 0.19680 0.43370 -0.17400
H 	H 	0.46320 0.21140 0.42360 0.09300
C 	C 	0.51970 0.17460 0.39010 0.08900
H 	H 	0.50650 0.17450 0.35020 -0.06600
C 	C 	0.57920 0.15340 0.45910 0.07300
H 	H 	0.60930 0.13810 0.46820 -0.02400
C 	C 	0.55570 0.17440 0.50510 -0.16000
H 	H 	0.56900 0.17300 0.54490 0.07700
C 	C 	0.33190 0.09180 0.93790 0.06800
H 	H 	0.36390 0.10500 0.94500 -0.03800
C 	C 	0.30950 0.07150 0.98440 -0.14600
H 	H 	0.32550 0.07080 0.02280 0.05000
C 	C 	0.26220 0.05160 0.97530 0.09000
C 	C 	0.24020 0.05610 0.91890 -0.15700
H 	H 	0.20750 0.04430 0.91080 0.06400
C 	C 	0.26590 0.07790 0.87460 0.09100
H 	H 	0.24980 0.08100 0.83650 -0.03300
C 	C 	0.23910 0.02290 0.02080 -0.06900
H 	H 	0.20120 0.02210 0.01530 0.04100
C 	C 	0.25190 0.02440 0.08880 -0.04900
H 	H 	0.28870 0.03230 0.09320 0.01700
C 	C 	0.22180 0.04810 0.13460 0.04200
C 	C 	0.22000 0.09080 0.13480 -0.08300
H 	H 	0.23340 0.10620 0.10170 0.06100
C 	C 	0.19850 0.11160 0.18330 0.01500
H 	H 	0.19960 0.14140 0.18400 0.02500
C 	C 	0.17930 0.04880 0.22980 -0.01800
H 	H 	0.16670 0.03420 0.26400 -0.02300
C 	C 	0.19960 0.02600 0.18360 -0.07500
H 	H 	0.19900 0.99630 0.18420 0.02300
C 	C 	0.32080 0.19980 0.85220 0.31000
C 	C 	0.29740 0.23740 0.88320 -0.04300
C 	C 	0.25520 0.25770 0.85930 -0.00000
H 	H 	0.24010 0.24750 0.82320 0.06100
C 	C 	0.23470 0.29250 0.88730 -0.04700
C 	C 	0.18960 0.31590 0.86210 0.32000
C 	C 	0.25510 0.30580 0.94210 -0.06400
H 	H 	0.24050 0.32900 0.96270 0.08200
C 	C 	0.29690 0.28500 0.96600 0.09700
C 	C 	0.31840 0.25070 0.93720 -0.06300
H 	H 	0.34700 0.23660 0.95420 0.08100
C 	C 	0.39070 0.19400 0.70500 -0.74800
H 	H 	0.35740 0.20400 0.71420 0.23600
C 	C 	0.41820 0.21560 0.66320 -0.94700
H 	H 	0.40400 0.23960 0.64450 0.32000
C 	C 	0.48750 0.16880 0.67830 -0.31300
H 	H 	0.52170 0.16030 0.67050 0.07900
C 	C 	0.45830 0.14800 0.71920 -0.07700
H 	H 	0.47240 0.12440 0.73920 0.00000
C 	C 	0.23500 0.08970 0.14890 -0.03600
H 	H 	0.26000 0.10430 0.12600 0.01900
C 	C 	0.21140 0.10820 0.19560 0.02200
H 	H 	0.22140 0.13600 0.20470 -0.01200
C 	C 	0.15640 0.05360 0.20660 0.05000
H 	H 	0.12590 0.04260 0.22370 -0.04900
C 	C 	0.17860 0.03260 0.16180 -0.03600
H 	H 	0.16450 0.00680 0.14870 0.00200
Cd	Cd	0.86220 0.62562 0.80880 1.17700
Cd	Cd	0.11457 0.62219 0.33049 1.12500
O 	O 	0.86330 0.68679 0.87100 -0.40500
O 	O 	0.79800 0.68323 0.80940 -0.36700
O 	O 	0.67880 0.85083 0.88440 -0.44700
O 	O 	0.66600 0.80080 0.81820 -0.34800
O 	O 	0.85700 0.78120 0.04150 -0.13400
O 	O 	0.79690 0.82780 0.04920 -0.13200
N 	N 	0.90650 0.66056 0.73350 -0.23500
N 	N 	0.06220 0.65322 0.40140 -0.27700
N 	N 	0.81180 0.59470 0.88210 -0.25600
N 	N 	0.67610 0.59149 0.22970 -0.24000
N 	N 	0.81880 0.79900 0.02240 -0.01100
C 	C 	0.90290 0.70210 0.72850 0.77200
H 	H 	0.87930 0.71670 0.75320 -0.23600
C 	C 	0.93250 0.72420 0.68860 0.82900
H 	H 	0.93080 0.75390 0.68780 -0.26700
C 	C 	0.96200 0.65980 0.64910 0.18300
H 	H 	0.98000 0.64340 0.62030 -0.04000
C 	C 	0.93200 0.64050 0.69170 0.13100
H 	H 	0.92960 0.61080 0.69080 -0.05400
C 	C 	0.96600 0.70280 0.64820 0.10500
C 	C 	0.00040 0.72540 0.60550 -0.07400
H 	H 	0.03630 0.71550 0.61140 0.04300
C 	C 	0.98840 0.72740 0.53690 -0.06400
H 	H 	0.95060 0.72870 0.53030 0.06700
C 	C 	0.01210 0.69780 0.49280 0.10600
C 	C 	0.99370 0.69680 0.43370 -0.17400
H 	H 	0.96320 0.71140 0.42360 0.09300
C 	C 	0.01970 0.67460 0.39010 0.08900
H 	H 	0.00650 0.67450 0.35020 -0.06600
C 	C 	0.07920 0.65340 0.45910 0.07300
H 	H 	0.10930 0.63810 0.46820 -0.02400
C 	C 	0.05570 0.67440 0.50510 -0.16000
H 	H 	0.06900 0.67300 0.54490 0.07700
C 	C 	0.83190 0.59180 0.93790 0.06800
H 	H 	0.86390 0.60500 0.94500 -0.03800
C 	C 	0.80950 0.57150 0.98440 -0.14600
H 	H 	0.82550 0.57080 0.02280 0.05000
C 	C 	0.76220 0.55160 0.97530 0.09000
C 	C 	0.74020 0.55610 0.91890 -0.15700
H 	H 	0.70750 0.54430 0.91080 0.06400
C 	C 	0.76590 0.57790 0.87460 0.09100
H 	H 	0.74980 0.58100 0.83650 -0.03300
C 	C 	0.73910 0.52290 0.02080 -0.06900
H 	H 	0.70120 0.52210 0.01530 0.04100
C 	C 	0.75190 0.52440 0.08880 -0.04900
H 	H 	0.78870 0.53230 0.09320 0.01700
C 	C 	0.72180 0.54810 0.13460 0.04200
C 	C 	0.72000 0.59080 0.13480 -0.08300
H 	H 	0.73340 0.60620 0.10170 0.06100
C 	C 	0.69850 0.61160 0.18330 0.01500
H 	H 	0.69960 0.64140 0.18400 0.02500
C 	C 	0.67930 0.54880 0.22980 -0.01800
H 	H 	0.66670 0.53420 0.26400 -0.02300
C 	C 	0.69960 0.52600 0.18360 -0.07500
H 	H 	0.69900 0.49630 0.18420 0.02300
C 	C 	0.82080 0.69980 0.85220 0.31000
C 	C 	0.79740 0.73740 0.88320 -0.04300
C 	C 	0.75520 0.75770 0.85930 -0.00000
H 	H 	0.74010 0.74750 0.82320 0.06100
C 	C 	0.73470 0.79250 0.88730 -0.04700
C 	C 	0.68960 0.81590 0.86210 0.32000
C 	C 	0.75510 0.80580 0.94210 -0.06400
H 	H 	0.74050 0.82900 0.96270 0.08200
C 	C 	0.79690 0.78500 0.96600 0.09700
C 	C 	0.81840 0.75070 0.93720 -0.06300
H 	H 	0.84700 0.73660 0.95420 0.08100
C 	C 	0.89070 0.69400 0.70500 -0.74800
H 	H 	0.85740 0.70400 0.71420 0.23600
C 	C 	0.91820 0.71560 0.66320 -0.94700
H 	H 	0.90400 0.73960 0.64450 0.32000
C 	C 	0.98750 0.66880 0.67830 -0.31300
H 	H 	0.02170 0.66030 0.67050 0.07900
C 	C 	0.95830 0.64800 0.71920 -0.07700
H 	H 	0.97240 0.62440 0.73920 0.00000
C 	C 	0.73500 0.58970 0.14890 -0.03600
H 	H 	0.76000 0.60430 0.12600 0.01900
C 	C 	0.71140 0.60820 0.19560 0.02200
H 	H 	0.72140 0.63600 0.20470 -0.01200
C 	C 	0.65640 0.55360 0.20660 0.05000
H 	H 	0.62590 0.54260 0.22370 -0.04900
C 	C 	0.67860 0.53260 0.16180 -0.03600
H 	H 	0.66450 0.50680 0.14870 0.00200
Cd	Cd	0.13780 0.12562 0.30880 1.17700
Cd	Cd	0.88543 0.12219 0.83049 1.12500
O 	O 	0.13670 0.18679 0.37100 -0.40500
O 	O 	0.20200 0.18323 0.30940 -0.36700
O 	O 	0.32120 0.35083 0.38440 -0.44700
O 	O 	0.33400 0.30080 0.31820 -0.34800
O 	O 	0.14300 0.28120 0.54150 -0.13400
O 	O 	0.20310 0.32780 0.54920 -0.13200
N 	N 	0.09350 0.16056 0.23350 -0.23500
N 	N 	0.93780 0.15322 0.90140 -0.27700
N 	N 	0.18820 0.09470 0.38210 -0.25600
N 	N 	0.32390 0.09149 0.72970 -0.24000
N 	N 	0.18120 0.29900 0.52240 -0.01100
C 	C 	0.09710 0.20210 0.22850 0.77200
H 	H 	0.12070 0.21670 0.25320 -0.23600
C 	C 	0.06750 0.22420 0.18860 0.82800
H 	H 	0.06920 0.25390 0.18780 -0.26700
C 	C 	0.03800 0.15980 0.14910 0.18300
H 	H 	0.02000 0.14340 0.12030 -0.04000
C 	C 	0.06800 0.14050 0.19170 0.13100
H 	H 	0.07040 0.11080 0.19080 -0.05400
C 	C 	0.03400 0.20280 0.14820 0.10500
C 	C 	0.99960 0.22540 0.10550 -0.07400
H 	H 	0.96370 0.21550 0.11140 0.04300
C 	C 	0.01160 0.22740 0.03690 -0.06400
H 	H 	0.04940 0.22870 0.03030 0.06700
C 	C 	0.98790 0.19780 0.99280 0.10500
C 	C 	0.00630 0.19680 0.93370 -0.17400
H 	H 	0.03680 0.21140 0.92360 0.09300
C 	C 	0.98030 0.17460 0.89010 0.08900
H 	H 	0.99350 0.17450 0.85020 -0.06600
C 	C 	0.92080 0.15340 0.95910 0.07300
H 	H 	0.89070 0.13810 0.96820 -0.02400
C 	C 	0.94430 0.17440 0.00510 -0.16100
H 	H 	0.93100 0.17300 0.04490 0.07700
C 	C 	0.16810 0.09180 0.43790 0.06800
H 	H 	0.13610 0.10500 0.44500 -0.03800
C 	C 	0.19050 0.07150 0.48440 -0.14600
H 	H 	0.17450 0.07080 0.52280 0.05000
C 	C 	0.23780 0.05160 0.47530 0.09000
C 	C 	0.25980 0.05610 0.41890 -0.15700
H 	H 	0.29250 0.04430 0.41080 0.06400
C 	C 	0.23410 0.07790 0.37460 0.09100
H 	H 	0.25020 0.08100 0.33650 -0.03300
C 	C 	0.26090 0.02290 0.52080 -0.06900
H 	H 	0.29880 0.02210 0.51530 0.04100
C 	C 	0.24810 0.02440 0.58880 -0.04900
H 	H 	0.21130 0.03230 0.59320 0.01700
C 	C 	0.27820 0.04810 0.63460 0.04200
C 	C 	0.28000 0.09080 0.63480 -0.08300
H 	H 	0.26660 0.10620 0.60170 0.06100
C 	C 	0.30150 0.11160 0.68330 0.01500
H 	H 	0.30040 0.14140 0.68400 0.02500
C 	C 	0.32070 0.04880 0.72980 -0.01800
H 	H 	0.33330 0.03420 0.76400 -0.02300
C 	C 	0.30040 0.02600 0.68360 -0.07500
H 	H 	0.30100 0.99630 0.68420 0.02300
C 	C 	0.17920 0.19980 0.35220 0.31000
C 	C 	0.20260 0.23740 0.38320 -0.04300
C 	C 	0.24480 0.25770 0.35930 -0.00000
H 	H 	0.25990 0.24750 0.32320 0.06100
C 	C 	0.26530 0.29250 0.38730 -0.04700
C 	C 	0.31040 0.31590 0.36210 0.32000
C 	C 	0.24490 0.30580 0.44210 -0.06400
H 	H 	0.25950 0.32900 0.46270 0.08200
C 	C 	0.20310 0.28500 0.46600 0.09800
C 	C 	0.18160 0.25070 0.43720 -0.06300
H 	H 	0.15300 0.23660 0.45420 0.08100
C 	C 	0.10930 0.19400 0.20500 -0.74800
H 	H 	0.14260 0.20400 0.21420 0.23600
C 	C 	0.08180 0.21560 0.16320 -0.94600
H 	H 	0.09600 0.23960 0.14450 0.32000
C 	C 	0.01250 0.16880 0.17830 -0.31300
H 	H 	0.97830 0.16030 0.17050 0.07900
C 	C 	0.04170 0.14800 0.21920 -0.07700
H 	H 	0.02760 0.12440 0.23920 0.00000
C 	C 	0.26500 0.08970 0.64890 -0.03600
H 	H 	0.24000 0.10430 0.62600 0.01900
C 	C 	0.28860 0.10820 0.69560 0.02200
H 	H 	0.27860 0.13600 0.70470 -0.01200
C 	C 	0.34360 0.05360 0.70660 0.05000
H 	H 	0.37410 0.04260 0.72370 -0.04900
C 	C 	0.32140 0.03260 0.66180 -0.03500
H 	H 	0.33550 0.00680 0.64870 0.00200
Cd	Cd	0.63780 0.62562 0.30880 1.17700
Cd	Cd	0.38543 0.62219 0.83049 1.12500
O 	O 	0.63670 0.68679 0.37100 -0.40500
O 	O 	0.70200 0.68323 0.30940 -0.36700
O 	O 	0.82120 0.85083 0.38440 -0.44700
O 	O 	0.83400 0.80080 0.31820 -0.34800
O 	O 	0.64300 0.78120 0.54150 -0.13400
O 	O 	0.70310 0.82780 0.54920 -0.13200
N 	N 	0.59350 0.66056 0.23350 -0.23500
N 	N 	0.43780 0.65322 0.90140 -0.27700
N 	N 	0.68820 0.59470 0.38210 -0.25600
N 	N 	0.82390 0.59149 0.72970 -0.24000
N 	N 	0.68120 0.79900 0.52240 -0.01100
C 	C 	0.59710 0.70210 0.22850 0.77200
H 	H 	0.62070 0.71670 0.25320 -0.23600
C 	C 	0.56750 0.72420 0.18860 0.82800
H 	H 	0.56920 0.75390 0.18780 -0.26700
C 	C 	0.53800 0.65980 0.14910 0.18300
H 	H 	0.52000 0.64340 0.12030 -0.04000
C 	C 	0.56800 0.64050 0.19170 0.13100
H 	H 	0.57040 0.61080 0.19080 -0.05400
C 	C 	0.53400 0.70280 0.14820 0.10500
C 	C 	0.49960 0.72540 0.10550 -0.07400
H 	H 	0.46370 0.71550 0.11140 0.04300
C 	C 	0.51160 0.72740 0.03690 -0.06400
H 	H 	0.54940 0.72870 0.03030 0.06700
C 	C 	0.48790 0.69780 0.99280 0.10500
C 	C 	0.50630 0.69680 0.93370 -0.17400
H 	H 	0.53680 0.71140 0.92360 0.09300
C 	C 	0.48030 0.67460 0.89010 0.08900
H 	H 	0.49350 0.67450 0.85020 -0.06600
C 	C 	0.42080 0.65340 0.95910 0.07300
H 	H 	0.39070 0.63810 0.96820 -0.02400
C 	C 	0.44430 0.67440 0.00510 -0.16100
H 	H 	0.43100 0.67300 0.04490 0.07700
C 	C 	0.66810 0.59180 0.43790 0.06800
H 	H 	0.63610 0.60500 0.44500 -0.03800
C 	C 	0.69050 0.57150 0.48440 -0.14600
H 	H 	0.67450 0.57080 0.52280 0.05000
C 	C 	0.73780 0.55160 0.47530 0.09000
C 	C 	0.75980 0.55610 0.41890 -0.15700
H 	H 	0.79250 0.54430 0.41080 0.06400
C 	C 	0.73410 0.57790 0.37460 0.09100
H 	H 	0.75020 0.58100 0.33650 -0.03300
C 	C 	0.76090 0.52290 0.52080 -0.06900
H 	H 	0.79880 0.52210 0.51530 0.04100
C 	C 	0.74810 0.52440 0.58880 -0.04900
H 	H 	0.71130 0.53230 0.59320 0.01700
C 	C 	0.77820 0.54810 0.63460 0.04200
C 	C 	0.78000 0.59080 0.63480 -0.08300
H 	H 	0.76660 0.60620 0.60170 0.06100
C 	C 	0.80150 0.61160 0.68330 0.01500
H 	H 	0.80040 0.64140 0.68400 0.02500
C 	C 	0.82070 0.54880 0.72980 -0.01800
H 	H 	0.83330 0.53420 0.76400 -0.02300
C 	C 	0.80040 0.52600 0.68360 -0.07500
H 	H 	0.80100 0.49630 0.68420 0.02300
C 	C 	0.67920 0.69980 0.35220 0.31000
C 	C 	0.70260 0.73740 0.38320 -0.04300
C 	C 	0.74480 0.75770 0.35930 -0.00000
H 	H 	0.75990 0.74750 0.32320 0.06100
C 	C 	0.76530 0.79250 0.38730 -0.04700
C 	C 	0.81040 0.81590 0.36210 0.32000
C 	C 	0.74490 0.80580 0.44210 -0.06400
H 	H 	0.75950 0.82900 0.46270 0.08200
C 	C 	0.70310 0.78500 0.46600 0.09800
C 	C 	0.68160 0.75070 0.43720 -0.06300
H 	H 	0.65300 0.73660 0.45420 0.08100
C 	C 	0.60930 0.69400 0.20500 -0.74800
H 	H 	0.64260 0.70400 0.21420 0.23600
C 	C 	0.58180 0.71560 0.16320 -0.94600
H 	H 	0.59600 0.73960 0.14450 0.32000
C 	C 	0.51250 0.66880 0.17830 -0.31300
H 	H 	0.47830 0.66030 0.17050 0.07900
C 	C 	0.54170 0.64800 0.21920 -0.07700
H 	H 	0.52760 0.62440 0.23920 0.00000
C 	C 	0.76500 0.58970 0.64890 -0.03600
H 	H 	0.74000 0.60430 0.62600 0.01900
C 	C 	0.78860 0.60820 0.69560 0.02200
H 	H 	0.77860 0.63600 0.70470 -0.01200
C 	C 	0.84360 0.55360 0.70660 0.05000
H 	H 	0.87410 0.54260 0.72370 -0.04900
C 	C 	0.82140 0.53260 0.66180 -0.03500
H 	H 	0.83550 0.50680 0.64870 0.00200
Cd	Cd	0.36220 0.87438 0.30880 1.17700
Cd	Cd	0.61457 0.87781 0.83049 1.12500
O 	O 	0.36330 0.81321 0.37100 -0.40500
O 	O 	0.29800 0.81677 0.30940 -0.36700
O 	O 	0.17880 0.64917 0.38440 -0.44700
O 	O 	0.16600 0.69920 0.31820 -0.34800
O 	O 	0.35700 0.71880 0.54150 -0.13400
O 	O 	0.29690 0.67220 0.54920 -0.13200
N 	N 	0.40650 0.83944 0.23350 -0.23500
N 	N 	0.56220 0.84678 0.90140 -0.27700
N 	N 	0.31180 0.90530 0.38210 -0.25600
N 	N 	0.17610 0.90851 0.72970 -0.24000
N 	N 	0.31880 0.70100 0.52240 -0.01100
C 	C 	0.40290 0.79790 0.22850 0.77200
H 	H 	0.37930 0.78330 0.25320 -0.23600
C 	C 	0.43250 0.77580 0.18860 0.82800
H 	H 	0.43080 0.74610 0.18780 -0.26700
C 	C 	0.46200 0.84020 0.14910 0.18300
H 	H 	0.48000 0.85660 0.12030 -0.04000
C 	C 	0.43200 0.85950 0.19170 0.13100
H 	H 	0.42960 0.88920 0.19080 -0.05400
C 	C 	0.46600 0.79720 0.14820 0.10500
C 	C 	0.50040 0.77460 0.10550 -0.07400
H 	H 	0.53630 0.78450 0.11140 0.04300
C 	C 	0.48840 0.77260 0.03690 -0.06400
H 	H 	0.45060 0.77130 0.03030 0.06700
C 	C 	0.51210 0.80220 0.99280 0.10500
C 	C 	0.49370 0.80320 0.93370 -0.17400
H 	H 	0.46320 0.78860 0.92360 0.09300
C 	C 	0.51970 0.82540 0.89010 0.08900
H 	H 	0.50650 0.82550 0.85020 -0.06600
C 	C 	0.57920 0.84660 0.95910 0.07300
H 	H 	0.60930 0.86190 0.96820 -0.02400
C 	C 	0.55570 0.82560 0.00510 -0.16100
H 	H 	0.56900 0.82700 0.04490 0.07700
C 	C 	0.33190 0.90820 0.43790 0.06800
H 	H 	0.36390 0.89500 0.44500 -0.03800
C 	C 	0.30950 0.92850 0.48440 -0.14600
H 	H 	0.32550 0.92920 0.52280 0.05000
C 	C 	0.26220 0.94840 0.47530 0.09000
C 	C 	0.24020 0.94390 0.41890 -0.15700
H 	H 	0.20750 0.95570 0.41080 0.06400
C 	C 	0.26590 0.92210 0.37460 0.09100
H 	H 	0.24980 0.91900 0.33650 -0.03300
C 	C 	0.23910 0.97710 0.52080 -0.06900
H 	H 	0.20120 0.97790 0.51530 0.04100
C 	C 	0.25190 0.97560 0.58880 -0.04900
H 	H 	0.28870 0.96770 0.59320 0.01700
C 	C 	0.22180 0.95190 0.63460 0.04200
C 	C 	0.22000 0.90920 0.63480 -0.08300
H 	H 	0.23340 0.89380 0.60170 0.06100
C 	C 	0.19850 0.88840 0.68330 0.01500
H 	H 	0.19960 0.85860 0.68400 0.02500
C 	C 	0.17930 0.95120 0.72980 -0.01800
H 	H 	0.16670 0.96580 0.76400 -0.02300
C 	C 	0.19960 0.97400 0.68360 -0.07500
H 	H 	0.19900 0.00370 0.68420 0.02300
C 	C 	0.32080 0.80020 0.35220 0.31000
C 	C 	0.29740 0.76260 0.38320 -0.04300
C 	C 	0.25520 0.74230 0.35930 -0.00000
H 	H 	0.24010 0.75250 0.32320 0.06100
C 	C 	0.23470 0.70750 0.38730 -0.04700
C 	C 	0.18960 0.68410 0.36210 0.32000
C 	C 	0.25510 0.69420 0.44210 -0.06400
H 	H 	0.24050 0.67100 0.46270 0.08200
C 	C 	0.29690 0.71500 0.46600 0.09800
C 	C 	0.31840 0.74930 0.43720 -0.06300
H 	H 	0.34700 0.76340 0.45420 0.08100
C 	C 	0.39070 0.80600 0.20500 -0.74800
H 	H 	0.35740 0.79600 0.21420 0.23600
C 	C 	0.41820 0.78440 0.16320 -0.94600
H 	H 	0.40400 0.76040 0.14450 0.32000
C 	C 	0.48750 0.83120 0.17830 -0.31300
H 	H 	0.52170 0.83970 0.17050 0.07900
C 	C 	0.45830 0.85200 0.21920 -0.07700
H 	H 	0.47240 0.87560 0.23920 0.00000
C 	C 	0.23500 0.91030 0.64890 -0.03600
H 	H 	0.26000 0.89570 0.62600 0.01900
C 	C 	0.21140 0.89180 0.69560 0.02200
H 	H 	0.22140 0.86400 0.70470 -0.01200
C 	C 	0.15640 0.94640 0.70660 0.05000
H 	H 	0.12590 0.95740 0.72370 -0.04900
C 	C 	0.17860 0.96740 0.66180 -0.03500
H 	H 	0.16450 0.99320 0.64870 0.00200
Cd	Cd	0.86220 0.37438 0.30880 1.17700
Cd	Cd	0.11457 0.37781 0.83049 1.12500
O 	O 	0.86330 0.31321 0.37100 -0.40500
O 	O 	0.79800 0.31677 0.30940 -0.36700
O 	O 	0.67880 0.14917 0.38440 -0.44700
O 	O 	0.66600 0.19920 0.31820 -0.34800
O 	O 	0.85700 0.21880 0.54150 -0.13400
O 	O 	0.79690 0.17220 0.54920 -0.13200
N 	N 	0.90650 0.33944 0.23350 -0.23500
N 	N 	0.06220 0.34678 0.90140 -0.27700
N 	N 	0.81180 0.40530 0.38210 -0.25600
N 	N 	0.67610 0.40851 0.72970 -0.24000
N 	N 	0.81880 0.20100 0.52240 -0.01100
C 	C 	0.90290 0.29790 0.22850 0.77200
H 	H 	0.87930 0.28330 0.25320 -0.23600
C 	C 	0.93250 0.27580 0.18860 0.82800
H 	H 	0.93080 0.24610 0.18780 -0.26700
C 	C 	0.96200 0.34020 0.14910 0.18300
H 	H 	0.98000 0.35660 0.12030 -0.04000
C 	C 	0.93200 0.35950 0.19170 0.13100
H 	H 	0.92960 0.38920 0.19080 -0.05400
C 	C 	0.96600 0.29720 0.14820 0.10500
C 	C 	0.00040 0.27460 0.10550 -0.07400
H 	H 	0.03630 0.28450 0.11140 0.04300
C 	C 	0.98840 0.27260 0.03690 -0.06400
H 	H 	0.95060 0.27130 0.03030 0.06700
C 	C 	0.01210 0.30220 0.99280 0.10500
C 	C 	0.99370 0.30320 0.93370 -0.17400
H 	H 	0.96320 0.28860 0.92360 0.09300
C 	C 	0.01970 0.32540 0.89010 0.08900
H 	H 	0.00650 0.32550 0.85020 -0.06600
C 	C 	0.07920 0.34660 0.95910 0.07300
H 	H 	0.10930 0.36190 0.96820 -0.02400
C 	C 	0.05570 0.32560 0.00510 -0.16100
H 	H 	0.06900 0.32700 0.04490 0.07700
C 	C 	0.83190 0.40820 0.43790 0.06800
H 	H 	0.86390 0.39500 0.44500 -0.03800
C 	C 	0.80950 0.42850 0.48440 -0.14600
H 	H 	0.82550 0.42920 0.52280 0.05000
C 	C 	0.76220 0.44840 0.47530 0.09000
C 	C 	0.74020 0.44390 0.41890 -0.15700
H 	H 	0.70750 0.45570 0.41080 0.06400
C 	C 	0.76590 0.42210 0.37460 0.09100
H 	H 	0.74980 0.41900 0.33650 -0.03300
C 	C 	0.73910 0.47710 0.52080 -0.06900
H 	H 	0.70120 0.47790 0.51530 0.04100
C 	C 	0.75190 0.47560 0.58880 -0.04900
H 	H 	0.78870 0.46770 0.59320 0.01700
C 	C 	0.72180 0.45190 0.63460 0.04200
C 	C 	0.72000 0.40920 0.63480 -0.08300
H 	H 	0.73340 0.39380 0.60170 0.06100
C 	C 	0.69850 0.38840 0.68330 0.01500
H 	H 	0.69960 0.35860 0.68400 0.02500
C 	C 	0.67930 0.45120 0.72980 -0.01800
H 	H 	0.66670 0.46580 0.76400 -0.02300
C 	C 	0.69960 0.47400 0.68360 -0.07500
H 	H 	0.69900 0.50370 0.68420 0.02300
C 	C 	0.82080 0.30020 0.35220 0.31000
C 	C 	0.79740 0.26260 0.38320 -0.04300
C 	C 	0.75520 0.24230 0.35930 -0.00000
H 	H 	0.74010 0.25250 0.32320 0.06100
C 	C 	0.73470 0.20750 0.38730 -0.04700
C 	C 	0.68960 0.18410 0.36210 0.32000
C 	C 	0.75510 0.19420 0.44210 -0.06400
H 	H 	0.74050 0.17100 0.46270 0.08200
C 	C 	0.79690 0.21500 0.46600 0.09800
C 	C 	0.81840 0.24930 0.43720 -0.06300
H 	H 	0.84700 0.26340 0.45420 0.08100
C 	C 	0.89070 0.30600 0.20500 -0.74800
H 	H 	0.85740 0.29600 0.21420 0.23600
C 	C 	0.91820 0.28440 0.16320 -0.94600
H 	H 	0.90400 0.26040 0.14450 0.32000
C 	C 	0.98750 0.33120 0.17830 -0.31300
H 	H 	0.02170 0.33970 0.17050 0.07900
C 	C 	0.95830 0.35200 0.21920 -0.07700
H 	H 	0.97240 0.37560 0.23920 0.00000
C 	C 	0.73500 0.41030 0.64890 -0.03600
H 	H 	0.76000 0.39570 0.62600 0.01900
C 	C 	0.71140 0.39180 0.69560 0.02200
H 	H 	0.72140 0.36400 0.70470 -0.01200
C 	C 	0.65640 0.44640 0.70660 0.05000
H 	H 	0.62590 0.45740 0.72370 -0.04900
C 	C 	0.67860 0.46740 0.66180 -0.03500
H 	H 	0.66450 0.49320 0.64870 0.00200
Cd	Cd	0.86220 0.87438 0.69120 1.17700
Cd	Cd	0.11457 0.87781 0.16951 1.12500
O 	O 	0.86330 0.81321 0.62900 -0.40500
O 	O 	0.79800 0.81677 0.69060 -0.36700
O 	O 	0.67880 0.64917 0.61560 -0.44700
O 	O 	0.66600 0.69920 0.68180 -0.34800
O 	O 	0.85700 0.71880 0.45850 -0.13400
O 	O 	0.79690 0.67220 0.45080 -0.13200
N 	N 	0.90650 0.83944 0.76650 -0.23500
N 	N 	0.06220 0.84678 0.09860 -0.27700
N 	N 	0.81180 0.90530 0.61790 -0.25600
N 	N 	0.67610 0.90851 0.27030 -0.24000
N 	N 	0.81880 0.70100 0.47760 -0.01100
C 	C 	0.90290 0.79790 0.77150 0.77200
H 	H 	0.87930 0.78330 0.74680 -0.23600
C 	C 	0.93250 0.77580 0.81140 0.82800
H 	H 	0.93080 0.74610 0.81220 -0.26700
C 	C 	0.96200 0.84020 0.85090 0.18300
H 	H 	0.98000 0.85660 0.87970 -0.04000
C 	C 	0.93200 0.85950 0.80830 0.13100
H 	H 	0.92960 0.88920 0.80920 -0.05400
C 	C 	0.96600 0.79720 0.85180 0.10500
C 	C 	0.00040 0.77460 0.89450 -0.07400
H 	H 	0.03630 0.78450 0.88860 0.04300
C 	C 	0.98840 0.77260 0.96310 -0.06400
H 	H 	0.95060 0.77130 0.96970 0.06700
C 	C 	0.01210 0.80220 0.00720 0.10500
C 	C 	0.99370 0.80320 0.06630 -0.17400
H 	H 	0.96320 0.78860 0.07640 0.09300
C 	C 	0.01970 0.82540 0.10990 0.08900
H 	H 	0.00650 0.82550 0.14980 -0.06600
C 	C 	0.07920 0.84660 0.04090 0.07300
H 	H 	0.10930 0.86190 0.03180 -0.02400
C 	C 	0.05570 0.82560 0.99490 -0.16100
H 	H 	0.06900 0.82700 0.95510 0.07700
C 	C 	0.83190 0.90820 0.56210 0.06800
H 	H 	0.86390 0.89500 0.55500 -0.03800
C 	C 	0.80950 0.92850 0.51560 -0.14600
H 	H 	0.82550 0.92920 0.47720 0.05000
C 	C 	0.76220 0.94840 0.52470 0.09000
C 	C 	0.74020 0.94390 0.58110 -0.15700
H 	H 	0.70750 0.95570 0.58920 0.06400
C 	C 	0.76590 0.92210 0.62540 0.09100
H 	H 	0.74980 0.91900 0.66350 -0.03300
C 	C 	0.73910 0.97710 0.47920 -0.06900
H 	H 	0.70120 0.97790 0.48470 0.04100
C 	C 	0.75190 0.97560 0.41120 -0.04900
H 	H 	0.78870 0.96770 0.40680 0.01700
C 	C 	0.72180 0.95190 0.36540 0.04200
C 	C 	0.72000 0.90920 0.36520 -0.08300
H 	H 	0.73340 0.89380 0.39830 0.06100
C 	C 	0.69850 0.88840 0.31670 0.01500
H 	H 	0.69960 0.85860 0.31600 0.02500
C 	C 	0.67930 0.95120 0.27020 -0.01800
H 	H 	0.66670 0.96580 0.23600 -0.02300
C 	C 	0.69960 0.97400 0.31640 -0.07500
H 	H 	0.69900 0.00370 0.31580 0.02300
C 	C 	0.82080 0.80020 0.64780 0.31000
C 	C 	0.79740 0.76260 0.61680 -0.04300
C 	C 	0.75520 0.74230 0.64070 -0.00000
H 	H 	0.74010 0.75250 0.67680 0.06100
C 	C 	0.73470 0.70750 0.61270 -0.04700
C 	C 	0.68960 0.68410 0.63790 0.32000
C 	C 	0.75510 0.69420 0.55790 -0.06400
H 	H 	0.74050 0.67100 0.53730 0.08200
C 	C 	0.79690 0.71500 0.53400 0.09800
C 	C 	0.81840 0.74930 0.56280 -0.06300
H 	H 	0.84700 0.76340 0.54580 0.08100
C 	C 	0.89070 0.80600 0.79500 -0.74800
H 	H 	0.85740 0.79600 0.78580 0.23600
C 	C 	0.91820 0.78440 0.83680 -0.94600
H 	H 	0.90400 0.76040 0.85550 0.32000
C 	C 	0.98750 0.83120 0.82170 -0.31300
H 	H 	0.02170 0.83970 0.82950 0.07900
C 	C 	0.95830 0.85200 0.78080 -0.07700
H 	H 	0.97240 0.87560 0.76080 0.00000
C 	C 	0.73500 0.91030 0.35110 -0.03600
H 	H 	0.76000 0.89570 0.37400 0.01900
C 	C 	0.71140 0.89180 0.30440 0.02200
H 	H 	0.72140 0.86400 0.29530 -0.01200
C 	C 	0.65640 0.94640 0.29340 0.05000
H 	H 	0.62590 0.95740 0.27630 -0.04900
C 	C 	0.67860 0.96740 0.33820 -0.03500
H 	H 	0.66450 0.99320 0.35130 0.00200
Cd	Cd	0.36220 0.37438 0.69120 1.17700
Cd	Cd	0.61457 0.37781 0.16951 1.12500
O 	O 	0.36330 0.31321 0.62900 -0.40500
O 	O 	0.29800 0.31677 0.69060 -0.36700
O 	O 	0.17880 0.14917 0.61560 -0.44700
O 	O 	0.16600 0.19920 0.68180 -0.34800
O 	O 	0.35700 0.21880 0.45850 -0.13400
O 	O 	0.29690 0.17220 0.45080 -0.13200
N 	N 	0.40650 0.33944 0.76650 -0.23500
N 	N 	0.56220 0.34678 0.09860 -0.27700
N 	N 	0.31180 0.40530 0.61790 -0.25600
N 	N 	0.17610 0.40851 0.27030 -0.24000
N 	N 	0.31880 0.20100 0.47760 -0.01100
C 	C 	0.40290 0.29790 0.77150 0.77200
H 	H 	0.37930 0.28330 0.74680 -0.23600
C 	C 	0.43250 0.27580 0.81140 0.82800
H 	H 	0.43080 0.24610 0.81220 -0.26700
C 	C 	0.46200 0.34020 0.85090 0.18300
H 	H 	0.48000 0.35660 0.87970 -0.04000
C 	C 	0.43200 0.35950 0.80830 0.13100
H 	H 	0.42960 0.38920 0.80920 -0.05400
C 	C 	0.46600 0.29720 0.85180 0.10500
C 	C 	0.50040 0.27460 0.89450 -0.07400
H 	H 	0.53630 0.28450 0.88860 0.04300
C 	C 	0.48840 0.27260 0.96310 -0.06400
H 	H 	0.45060 0.27130 0.96970 0.06700
C 	C 	0.51210 0.30220 0.00720 0.10500
C 	C 	0.49370 0.30320 0.06630 -0.17400
H 	H 	0.46320 0.28860 0.07640 0.09300
C 	C 	0.51970 0.32540 0.10990 0.08900
H 	H 	0.50650 0.32550 0.14980 -0.06600
C 	C 	0.57920 0.34660 0.04090 0.07300
H 	H 	0.60930 0.36190 0.03180 -0.02400
C 	C 	0.55570 0.32560 0.99490 -0.16100
H 	H 	0.56900 0.32700 0.95510 0.07700
C 	C 	0.33190 0.40820 0.56210 0.06800
H 	H 	0.36390 0.39500 0.55500 -0.03800
C 	C 	0.30950 0.42850 0.51560 -0.14600
H 	H 	0.32550 0.42920 0.47720 0.05000
C 	C 	0.26220 0.44840 0.52470 0.09000
C 	C 	0.24020 0.44390 0.58110 -0.15700
H 	H 	0.20750 0.45570 0.58920 0.06400
C 	C 	0.26590 0.42210 0.62540 0.09100
H 	H 	0.24980 0.41900 0.66350 -0.03300
C 	C 	0.23910 0.47710 0.47920 -0.06900
H 	H 	0.20120 0.47790 0.48470 0.04100
C 	C 	0.25190 0.47560 0.41120 -0.04900
H 	H 	0.28870 0.46770 0.40680 0.01700
C 	C 	0.22180 0.45190 0.36540 0.04200
C 	C 	0.22000 0.40920 0.36520 -0.08300
H 	H 	0.23340 0.39380 0.39830 0.06100
C 	C 	0.19850 0.38840 0.31670 0.01500
H 	H 	0.19960 0.35860 0.31600 0.02500
C 	C 	0.17930 0.45120 0.27020 -0.01800
H 	H 	0.16670 0.46580 0.23600 -0.02300
C 	C 	0.19960 0.47400 0.31640 -0.07500
H 	H 	0.19900 0.50370 0.31580 0.02300
C 	C 	0.32080 0.30020 0.64780 0.31000
C 	C 	0.29740 0.26260 0.61680 -0.04300
C 	C 	0.25520 0.24230 0.64070 -0.00000
H 	H 	0.24010 0.25250 0.67680 0.06100
C 	C 	0.23470 0.20750 0.61270 -0.04700
C 	C 	0.18960 0.18410 0.63790 0.32000
C 	C 	0.25510 0.19420 0.55790 -0.06400
H 	H 	0.24050 0.17100 0.53730 0.08200
C 	C 	0.29690 0.21500 0.53400 0.09800
C 	C 	0.31840 0.24930 0.56280 -0.06300
H 	H 	0.34700 0.26340 0.54580 0.08100
C 	C 	0.39070 0.30600 0.79500 -0.74800
H 	H 	0.35740 0.29600 0.78580 0.23600
C 	C 	0.41820 0.28440 0.83680 -0.94600
H 	H 	0.40400 0.26040 0.85550 0.32000
C 	C 	0.48750 0.33120 0.82170 -0.31300
H 	H 	0.52170 0.33970 0.82950 0.07900
C 	C 	0.45830 0.35200 0.78080 -0.07700
H 	H 	0.47240 0.37560 0.76080 0.00000
C 	C 	0.23500 0.41030 0.35110 -0.03600
H 	H 	0.26000 0.39570 0.37400 0.01900
C 	C 	0.21140 0.39180 0.30440 0.02200
H 	H 	0.22140 0.36400 0.29530 -0.01200
C 	C 	0.15640 0.44640 0.29340 0.05000
H 	H 	0.12590 0.45740 0.27630 -0.04900
C 	C 	0.17860 0.46740 0.33820 -0.03500
H 	H 	0.16450 0.49320 0.35130 0.00200
Cd	Cd	0.63780 0.12562 0.69120 1.17700
Cd	Cd	0.38543 0.12219 0.16951 1.12500
O 	O 	0.63670 0.18679 0.62900 -0.40500
O 	O 	0.70200 0.18323 0.69060 -0.36700
O 	O 	0.82120 0.35083 0.61560 -0.44700
O 	O 	0.83400 0.30080 0.68180 -0.34800
O 	O 	0.64300 0.28120 0.45850 -0.13400
O 	O 	0.70310 0.32780 0.45080 -0.13200
N 	N 	0.59350 0.16056 0.76650 -0.23500
N 	N 	0.43780 0.15322 0.09860 -0.27700
N 	N 	0.68820 0.09470 0.61790 -0.25600
N 	N 	0.82390 0.09149 0.27030 -0.24000
N 	N 	0.68120 0.29900 0.47760 -0.01100
C 	C 	0.59710 0.20210 0.77150 0.77200
H 	H 	0.62070 0.21670 0.74680 -0.23600
C 	C 	0.56750 0.22420 0.81140 0.82800
H 	H 	0.56920 0.25390 0.81220 -0.26700
C 	C 	0.53800 0.15980 0.85090 0.18300
H 	H 	0.52000 0.14340 0.87970 -0.04000
C 	C 	0.56800 0.14050 0.80830 0.13100
H 	H 	0.57040 0.11080 0.80920 -0.05400
C 	C 	0.53400 0.20280 0.85180 0.10500
C 	C 	0.49960 0.22540 0.89450 -0.07400
H 	H 	0.46370 0.21550 0.88860 0.04300
C 	C 	0.51160 0.22740 0.96310 -0.06400
H 	H 	0.54940 0.22870 0.96970 0.06700
C 	C 	0.48790 0.19780 0.00720 0.10500
C 	C 	0.50630 0.19680 0.06630 -0.17400
H 	H 	0.53680 0.21140 0.07640 0.09300
C 	C 	0.48030 0.17460 0.10990 0.08900
H 	H 	0.49350 0.17450 0.14980 -0.06600
C 	C 	0.42080 0.15340 0.04090 0.07300
H 	H 	0.39070 0.13810 0.03180 -0.02400
C 	C 	0.44430 0.17440 0.99490 -0.16100
H 	H 	0.43100 0.17300 0.95510 0.07700
C 	C 	0.66810 0.09180 0.56210 0.06800
H 	H 	0.63610 0.10500 0.55500 -0.03800
C 	C 	0.69050 0.07150 0.51560 -0.14600
H 	H 	0.67450 0.07080 0.47720 0.05000
C 	C 	0.73780 0.05160 0.52470 0.09000
C 	C 	0.75980 0.05610 0.58110 -0.15700
H 	H 	0.79250 0.04430 0.58920 0.06400
C 	C 	0.73410 0.07790 0.62540 0.09100
H 	H 	0.75020 0.08100 0.66350 -0.03300
C 	C 	0.76090 0.02290 0.47920 -0.06900
H 	H 	0.79880 0.02210 0.48470 0.04100
C 	C 	0.74810 0.02440 0.41120 -0.04900
H 	H 	0.71130 0.03230 0.40680 0.01700
C 	C 	0.77820 0.04810 0.36540 0.04200
C 	C 	0.78000 0.09080 0.36520 -0.08300
H 	H 	0.76660 0.10620 0.39830 0.06100
C 	C 	0.80150 0.11160 0.31670 0.01500
H 	H 	0.80040 0.14140 0.31600 0.02500
C 	C 	0.82070 0.04880 0.27020 -0.01800
H 	H 	0.83330 0.03420 0.23600 -0.02300
C 	C 	0.80040 0.02600 0.31640 -0.07500
H 	H 	0.80100 0.99630 0.31580 0.02300
C 	C 	0.67920 0.19980 0.64780 0.31000
C 	C 	0.70260 0.23740 0.61680 -0.04300
C 	C 	0.74480 0.25770 0.64070 -0.00000
H 	H 	0.75990 0.24750 0.67680 0.06100
C 	C 	0.76530 0.29250 0.61270 -0.04700
C 	C 	0.81040 0.31590 0.63790 0.32000
C 	C 	0.74490 0.30580 0.55790 -0.06400
H 	H 	0.75950 0.32900 0.53730 0.08200
C 	C 	0.70310 0.28500 0.53400 0.09800
C 	C 	0.68160 0.25070 0.56280 -0.06300
H 	H 	0.65300 0.23660 0.54580 0.08100
C 	C 	0.60930 0.19400 0.79500 -0.74800
H 	H 	0.64260 0.20400 0.78580 0.23600
C 	C 	0.58180 0.21560 0.83680 -0.94600
H 	H 	0.59600 0.23960 0.85550 0.32000
C 	C 	0.51250 0.16880 0.82170 -0.31300
H 	H 	0.47830 0.16030 0.82950 0.07900
C 	C 	0.54170 0.14800 0.78080 -0.07700
H 	H 	0.52760 0.12440 0.76080 0.00000
C 	C 	0.76500 0.08970 0.35110 -0.03600
H 	H 	0.74000 0.10430 0.37400 0.01900
C 	C 	0.78860 0.10820 0.30440 0.02200
H 	H 	0.77860 0.13600 0.29530 -0.01200
C 	C 	0.84360 0.05360 0.29340 0.05000
H 	H 	0.87410 0.04260 0.27630 -0.04900
C 	C 	0.82140 0.03260 0.33820 -0.03500
H 	H 	0.83550 0.00680 0.35130 0.00200
Cd	Cd	0.13780 0.62562 0.69120 1.17700
Cd	Cd	0.88543 0.62219 0.16951 1.12500
O 	O 	0.13670 0.68679 0.62900 -0.40500
O 	O 	0.20200 0.68323 0.69060 -0.36700
O 	O 	0.32120 0.85083 0.61560 -0.44700
O 	O 	0.33400 0.80080 0.68180 -0.34800
O 	O 	0.14300 0.78120 0.45850 -0.13400
O 	O 	0.20310 0.82780 0.45080 -0.13200
N 	N 	0.09350 0.66056 0.76650 -0.23500
N 	N 	0.93780 0.65322 0.09860 -0.27700
N 	N 	0.18820 0.59470 0.61790 -0.25600
N 	N 	0.32390 0.59149 0.27030 -0.24000
N 	N 	0.18120 0.79900 0.47760 -0.01100
C 	C 	0.09710 0.70210 0.77150 0.77200
H 	H 	0.12070 0.71670 0.74680 -0.23600
C 	C 	0.06750 0.72420 0.81140 0.82800
H 	H 	0.06920 0.75390 0.81220 -0.26700
C 	C 	0.03800 0.65980 0.85090 0.18300
H 	H 	0.02000 0.64340 0.87970 -0.04000
C 	C 	0.06800 0.64050 0.80830 0.13100
H 	H 	0.07040 0.61080 0.80920 -0.05400
C 	C 	0.03400 0.70280 0.85180 0.10500
C 	C 	0.99960 0.72540 0.89450 -0.07400
H 	H 	0.96370 0.71550 0.88860 0.04300
C 	C 	0.01160 0.72740 0.96310 -0.06400
H 	H 	0.04940 0.72870 0.96970 0.06700
C 	C 	0.98790 0.69780 0.00720 0.10500
C 	C 	0.00630 0.69680 0.06630 -0.17400
H 	H 	0.03680 0.71140 0.07640 0.09300
C 	C 	0.98030 0.67460 0.10990 0.08900
H 	H 	0.99350 0.67450 0.14980 -0.06600
C 	C 	0.92080 0.65340 0.04090 0.07300
H 	H 	0.89070 0.63810 0.03180 -0.02400
C 	C 	0.94430 0.67440 0.99490 -0.16100
H 	H 	0.93100 0.67300 0.95510 0.07700
C 	C 	0.16810 0.59180 0.56210 0.06800
H 	H 	0.13610 0.60500 0.55500 -0.03800
C 	C 	0.19050 0.57150 0.51560 -0.14600
H 	H 	0.17450 0.57080 0.47720 0.05000
C 	C 	0.23780 0.55160 0.52470 0.09000
C 	C 	0.25980 0.55610 0.58110 -0.15700
H 	H 	0.29250 0.54430 0.58920 0.06400
C 	C 	0.23410 0.57790 0.62540 0.09100
H 	H 	0.25020 0.58100 0.66350 -0.03300
C 	C 	0.26090 0.52290 0.47920 -0.06900
H 	H 	0.29880 0.52210 0.48470 0.04100
C 	C 	0.24810 0.52440 0.41120 -0.04900
H 	H 	0.21130 0.53230 0.40680 0.01700
C 	C 	0.27820 0.54810 0.36540 0.04200
C 	C 	0.28000 0.59080 0.36520 -0.08300
H 	H 	0.26660 0.60620 0.39830 0.06100
C 	C 	0.30150 0.61160 0.31670 0.01500
H 	H 	0.30040 0.64140 0.31600 0.02500
C 	C 	0.32070 0.54880 0.27020 -0.01800
H 	H 	0.33330 0.53420 0.23600 -0.02300
C 	C 	0.30040 0.52600 0.31640 -0.07500
H 	H 	0.30100 0.49630 0.31580 0.02300
C 	C 	0.17920 0.69980 0.64780 0.31000
C 	C 	0.20260 0.73740 0.61680 -0.04300
C 	C 	0.24480 0.75770 0.64070 -0.00000
H 	H 	0.25990 0.74750 0.67680 0.06100
C 	C 	0.26530 0.79250 0.61270 -0.04700
C 	C 	0.31040 0.81590 0.63790 0.32000
C 	C 	0.24490 0.80580 0.55790 -0.06400
H 	H 	0.25950 0.82900 0.53730 0.08200
C 	C 	0.20310 0.78500 0.53400 0.09800
C 	C 	0.18160 0.75070 0.56280 -0.06300
H 	H 	0.15300 0.73660 0.54580 0.08100
C 	C 	0.10930 0.69400 0.79500 -0.74800
H 	H 	0.14260 0.70400 0.78580 0.23600
C 	C 	0.08180 0.71560 0.83680 -0.94600
H 	H 	0.09600 0.73960 0.85550 0.32000
C 	C 	0.01250 0.66880 0.82170 -0.31300
H 	H 	0.97830 0.66030 0.82950 0.07900
C 	C 	0.04170 0.64800 0.78080 -0.07700
H 	H 	0.02760 0.62440 0.76080 0.00000
C 	C 	0.26500 0.58970 0.35110 -0.03600
H 	H 	0.24000 0.60430 0.37400 0.01900
C 	C 	0.28860 0.60820 0.30440 0.02200
H 	H 	0.27860 0.63600 0.29530 -0.01200
C 	C 	0.34360 0.55360 0.29340 0.05000
H 	H 	0.37410 0.54260 0.27630 -0.04900
C 	C 	0.32140 0.53260 0.33820 -0.03500
H 	H 	0.33550 0.50680 0.35130 0.00200
Cd	Cd	0.86220 0.12562 0.19120 1.17700
Cd	Cd	0.11457 0.12219 0.66951 1.12500
O 	O 	0.86330 0.18679 0.12900 -0.40500
O 	O 	0.79800 0.18323 0.19060 -0.36700
O 	O 	0.67880 0.35083 0.11560 -0.44700
O 	O 	0.66600 0.30080 0.18180 -0.34800
O 	O 	0.85700 0.28120 0.95850 -0.13400
O 	O 	0.79690 0.32780 0.95080 -0.13200
N 	N 	0.90650 0.16056 0.26650 -0.23500
N 	N 	0.06220 0.15322 0.59860 -0.27700
N 	N 	0.81180 0.09470 0.11790 -0.25600
N 	N 	0.67610 0.09149 0.77030 -0.24000
N 	N 	0.81880 0.29900 0.97760 -0.01100
C 	C 	0.90290 0.20210 0.27150 0.77200
H 	H 	0.87930 0.21670 0.24680 -0.23600
C 	C 	0.93250 0.22420 0.31140 0.82900
H 	H 	0.93080 0.25390 0.31220 -0.26700
C 	C 	0.96200 0.15980 0.35090 0.18300
H 	H 	0.98000 0.14340 0.37970 -0.04000
C 	C 	0.93200 0.14050 0.30830 0.13100
H 	H 	0.92960 0.11080 0.30920 -0.05400
C 	C 	0.96600 0.20280 0.35180 0.10500
C 	C 	0.00040 0.22540 0.39450 -0.07400
H 	H 	0.03630 0.21550 0.38860 0.04300
C 	C 	0.98840 0.22740 0.46310 -0.06400
H 	H 	0.95060 0.22870 0.46970 0.06700
C 	C 	0.01210 0.19780 0.50720 0.10600
C 	C 	0.99370 0.19680 0.56630 -0.17400
H 	H 	0.96320 0.21140 0.57640 0.09300
C 	C 	0.01970 0.17460 0.60990 0.08900
H 	H 	0.00650 0.17450 0.64980 -0.06600
C 	C 	0.07920 0.15340 0.54090 0.07300
H 	H 	0.10930 0.13810 0.53180 -0.02400
C 	C 	0.05570 0.17440 0.49490 -0.16000
H 	H 	0.06900 0.17300 0.45510 0.07700
C 	C 	0.83190 0.09180 0.06210 0.06800
H 	H 	0.86390 0.10500 0.05500 -0.03800
C 	C 	0.80950 0.07150 0.01560 -0.14600
H 	H 	0.82550 0.07080 0.97720 0.05000
C 	C 	0.76220 0.05160 0.02470 0.09000
C 	C 	0.74020 0.05610 0.08110 -0.15700
H 	H 	0.70750 0.04430 0.08920 0.06400
C 	C 	0.76590 0.07790 0.12540 0.09100
H 	H 	0.74980 0.08100 0.16350 -0.03300
C 	C 	0.73910 0.02290 0.97920 -0.06900
H 	H 	0.70120 0.02210 0.98470 0.04100
C 	C 	0.75190 0.02440 0.91120 -0.04900
H 	H 	0.78870 0.03230 0.90680 0.01700
C 	C 	0.72180 0.04810 0.86540 0.04200
C 	C 	0.72000 0.09080 0.86520 -0.08300
H 	H 	0.73340 0.10620 0.89830 0.06100
C 	C 	0.69850 0.11160 0.81670 0.01500
H 	H 	0.69960 0.14140 0.81600 0.02500
C 	C 	0.67930 0.04880 0.77020 -0.01800
H 	H 	0.66670 0.03420 0.73600 -0.02300
C 	C 	0.69960 0.02600 0.81640 -0.07500
H 	H 	0.69900 0.99630 0.81580 0.02300
C 	C 	0.82080 0.19980 0.14780 0.31000
C 	C 	0.79740 0.23740 0.11680 -0.04300
C 	C 	0.75520 0.25770 0.14070 -0.00000
H 	H 	0.74010 0.24750 0.17680 0.06100
C 	C 	0.73470 0.29250 0.11270 -0.04700
C 	C 	0.68960 0.31590 0.13790 0.32000
C 	C 	0.75510 0.30580 0.05790 -0.06400
H 	H 	0.74050 0.32900 0.03730 0.08200
C 	C 	0.79690 0.28500 0.03400 0.09700
C 	C 	0.81840 0.25070 0.06280 -0.06300
H 	H 	0.84700 0.23660 0.04580 0.08100
C 	C 	0.89070 0.19400 0.29500 -0.74800
H 	H 	0.85740 0.20400 0.28580 0.23600
C 	C 	0.91820 0.21560 0.33680 -0.94700
H 	H 	0.90400 0.23960 0.35550 0.32000
C 	C 	0.98750 0.16880 0.32170 -0.31300
H 	H 	0.02170 0.16030 0.32950 0.07900
C 	C 	0.95830 0.14800 0.28080 -0.07700
H 	H 	0.97240 0.12440 0.26080 0.00000
C 	C 	0.73500 0.08970 0.85110 -0.03600
H 	H 	0.76000 0.10430 0.87400 0.01900
C 	C 	0.71140 0.10820 0.80440 0.02200
H 	H 	0.72140 0.13600 0.79530 -0.01200
C 	C 	0.65640 0.05360 0.79340 0.05000
H 	H 	0.62590 0.04260 0.77630 -0.04900
C 	C 	0.67860 0.03260 0.83820 -0.03600
H 	H 	0.66450 0.00680 0.85130 0.00200
Cd	Cd	0.36220 0.62562 0.19120 1.17700
Cd	Cd	0.61457 0.62219 0.66951 1.12500
O 	O 	0.36330 0.68679 0.12900 -0.40500
O 	O 	0.29800 0.68323 0.19060 -0.36700
O 	O 	0.17880 0.85083 0.11560 -0.44700
O 	O 	0.16600 0.80080 0.18180 -0.34800
O 	O 	0.35700 0.78120 0.95850 -0.13400
O 	O 	0.29690 0.82780 0.95080 -0.13200
N 	N 	0.40650 0.66056 0.26650 -0.23500
N 	N 	0.56220 0.65322 0.59860 -0.27700
N 	N 	0.31180 0.59470 0.11790 -0.25600
N 	N 	0.17610 0.59149 0.77030 -0.24000
N 	N 	0.31880 0.79900 0.97760 -0.01100
C 	C 	0.40290 0.70210 0.27150 0.77200
H 	H 	0.37930 0.71670 0.24680 -0.23600
C 	C 	0.43250 0.72420 0.31140 0.82900
H 	H 	0.43080 0.75390 0.31220 -0.26700
C 	C 	0.46200 0.65980 0.35090 0.18300
H 	H 	0.48000 0.64340 0.37970 -0.04000
C 	C 	0.43200 0.64050 0.30830 0.13100
H 	H 	0.42960 0.61080 0.30920 -0.05400
C 	C 	0.46600 0.70280 0.35180 0.10500
C 	C 	0.50040 0.72540 0.39450 -0.07400
H 	H 	0.53630 0.71550 0.38860 0.04300
C 	C 	0.48840 0.72740 0.46310 -0.06400
H 	H 	0.45060 0.72870 0.46970 0.06700
C 	C 	0.51210 0.69780 0.50720 0.10600
C 	C 	0.49370 0.69680 0.56630 -0.17400
H 	H 	0.46320 0.71140 0.57640 0.09300
C 	C 	0.51970 0.67460 0.60990 0.08900
H 	H 	0.50650 0.67450 0.64980 -0.06600
C 	C 	0.57920 0.65340 0.54090 0.07300
H 	H 	0.60930 0.63810 0.53180 -0.02400
C 	C 	0.55570 0.67440 0.49490 -0.16000
H 	H 	0.56900 0.67300 0.45510 0.07700
C 	C 	0.33190 0.59180 0.06210 0.06800
H 	H 	0.36390 0.60500 0.05500 -0.03800
C 	C 	0.30950 0.57150 0.01560 -0.14600
H 	H 	0.32550 0.57080 0.97720 0.05000
C 	C 	0.26220 0.55160 0.02470 0.09000
C 	C 	0.24020 0.55610 0.08110 -0.15700
H 	H 	0.20750 0.54430 0.08920 0.06400
C 	C 	0.26590 0.57790 0.12540 0.09100
H 	H 	0.24980 0.58100 0.16350 -0.03300
C 	C 	0.23910 0.52290 0.97920 -0.06900
H 	H 	0.20120 0.52210 0.98470 0.04100
C 	C 	0.25190 0.52440 0.91120 -0.04900
H 	H 	0.28870 0.53230 0.90680 0.01700
C 	C 	0.22180 0.54810 0.86540 0.04200
C 	C 	0.22000 0.59080 0.86520 -0.08300
H 	H 	0.23340 0.60620 0.89830 0.06100
C 	C 	0.19850 0.61160 0.81670 0.01500
H 	H 	0.19960 0.64140 0.81600 0.02500
C 	C 	0.17930 0.54880 0.77020 -0.01800
H 	H 	0.16670 0.53420 0.73600 -0.02300
C 	C 	0.19960 0.52600 0.81640 -0.07500
H 	H 	0.19900 0.49630 0.81580 0.02300
C 	C 	0.32080 0.69980 0.14780 0.31000
C 	C 	0.29740 0.73740 0.11680 -0.04300
C 	C 	0.25520 0.75770 0.14070 -0.00000
H 	H 	0.24010 0.74750 0.17680 0.06100
C 	C 	0.23470 0.79250 0.11270 -0.04700
C 	C 	0.18960 0.81590 0.13790 0.32000
C 	C 	0.25510 0.80580 0.05790 -0.06400
H 	H 	0.24050 0.82900 0.03730 0.08200
C 	C 	0.29690 0.78500 0.03400 0.09700
C 	C 	0.31840 0.75070 0.06280 -0.06300
H 	H 	0.34700 0.73660 0.04580 0.08100
C 	C 	0.39070 0.69400 0.29500 -0.74800
H 	H 	0.35740 0.70400 0.28580 0.23600
C 	C 	0.41820 0.71560 0.33680 -0.94700
H 	H 	0.40400 0.73960 0.35550 0.32000
C 	C 	0.48750 0.66880 0.32170 -0.31300
H 	H 	0.52170 0.66030 0.32950 0.07900
C 	C 	0.45830 0.64800 0.28080 -0.07700
H 	H 	0.47240 0.62440 0.26080 0.00000
C 	C 	0.23500 0.58970 0.85110 -0.03600
H 	H 	0.26000 0.60430 0.87400 0.01900
C 	C 	0.21140 0.60820 0.80440 0.02200
H 	H 	0.22140 0.63600 0.79530 -0.01200
C 	C 	0.15640 0.55360 0.79340 0.05000
H 	H 	0.12590 0.54260 0.77630 -0.04900
C 	C 	0.17860 0.53260 0.83820 -0.03600
H 	H 	0.16450 0.50680 0.85130 0.00200
Cd	Cd	0.63780 0.87438 0.19120 1.17700
Cd	Cd	0.38543 0.87781 0.66951 1.12500
O 	O 	0.63670 0.81321 0.12900 -0.40500
O 	O 	0.70200 0.81677 0.19060 -0.36700
O 	O 	0.82120 0.64917 0.11560 -0.44700
O 	O 	0.83400 0.69920 0.18180 -0.34800
O 	O 	0.64300 0.71880 0.95850 -0.13400
O 	O 	0.70310 0.67220 0.95080 -0.13200
N 	N 	0.59350 0.83944 0.26650 -0.23500
N 	N 	0.43780 0.84678 0.59860 -0.27700
N 	N 	0.68820 0.90530 0.11790 -0.25600
N 	N 	0.82390 0.90851 0.77030 -0.24000
N 	N 	0.68120 0.70100 0.97760 -0.01100
C 	C 	0.59710 0.79790 0.27150 0.77200
H 	H 	0.62070 0.78330 0.24680 -0.23600
C 	C 	0.56750 0.77580 0.31140 0.82900
H 	H 	0.56920 0.74610 0.31220 -0.26700
C 	C 	0.53800 0.84020 0.35090 0.18300
H 	H 	0.52000 0.85660 0.37970 -0.04000
C 	C 	0.56800 0.85950 0.30830 0.13100
H 	H 	0.57040 0.88920 0.30920 -0.05400
C 	C 	0.53400 0.79720 0.35180 0.10500
C 	C 	0.49960 0.77460 0.39450 -0.07400
H 	H 	0.46370 0.78450 0.38860 0.04300
C 	C 	0.51160 0.77260 0.46310 -0.06400
H 	H 	0.54940 0.77130 0.46970 0.06700
C 	C 	0.48790 0.80220 0.50720 0.10600
C 	C 	0.50630 0.80320 0.56630 -0.17400
H 	H 	0.53680 0.78860 0.57640 0.09300
C 	C 	0.48030 0.82540 0.60990 0.08900
H 	H 	0.49350 0.82550 0.64980 -0.06600
C 	C 	0.42080 0.84660 0.54090 0.07300
H 	H 	0.39070 0.86190 0.53180 -0.02400
C 	C 	0.44430 0.82560 0.49490 -0.16000
H 	H 	0.43100 0.82700 0.45510 0.07700
C 	C 	0.66810 0.90820 0.06210 0.06800
H 	H 	0.63610 0.89500 0.05500 -0.03800
C 	C 	0.69050 0.92850 0.01560 -0.14600
H 	H 	0.67450 0.92920 0.97720 0.05000
C 	C 	0.73780 0.94840 0.02470 0.09000
C 	C 	0.75980 0.94390 0.08110 -0.15700
H 	H 	0.79250 0.95570 0.08920 0.06400
C 	C 	0.73410 0.92210 0.12540 0.09100
H 	H 	0.75020 0.91900 0.16350 -0.03300
C 	C 	0.76090 0.97710 0.97920 -0.06900
H 	H 	0.79880 0.97790 0.98470 0.04100
C 	C 	0.74810 0.97560 0.91120 -0.04900
H 	H 	0.71130 0.96770 0.90680 0.01700
C 	C 	0.77820 0.95190 0.86540 0.04200
C 	C 	0.78000 0.90920 0.86520 -0.08300
H 	H 	0.76660 0.89380 0.89830 0.06100
C 	C 	0.80150 0.88840 0.81670 0.01500
H 	H 	0.80040 0.85860 0.81600 0.02500
C 	C 	0.82070 0.95120 0.77020 -0.01800
H 	H 	0.83330 0.96580 0.73600 -0.02300
C 	C 	0.80040 0.97400 0.81640 -0.07500
H 	H 	0.80100 0.00370 0.81580 0.02300
C 	C 	0.67920 0.80020 0.14780 0.31000
C 	C 	0.70260 0.76260 0.11680 -0.04300
C 	C 	0.74480 0.74230 0.14070 -0.00000
H 	H 	0.75990 0.75250 0.17680 0.06100
C 	C 	0.76530 0.70750 0.11270 -0.04700
C 	C 	0.81040 0.68410 0.13790 0.32000
C 	C 	0.74490 0.69420 0.05790 -0.06400
H 	H 	0.75950 0.67100 0.03730 0.08200
C 	C 	0.70310 0.71500 0.03400 0.09700
C 	C 	0.68160 0.74930 0.06280 -0.06300
H 	H 	0.65300 0.76340 0.04580 0.08100
C 	C 	0.60930 0.80600 0.29500 -0.74800
H 	H 	0.64260 0.79600 0.28580 0.23600
C 	C 	0.58180 0.78440 0.33680 -0.94700
H 	H 	0.59600 0.76040 0.35550 0.32000
C 	C 	0.51250 0.83120 0.32170 -0.31300
H 	H 	0.47830 0.83970 0.32950 0.07900
C 	C 	0.54170 0.85200 0.28080 -0.07700
H 	H 	0.52760 0.87560 0.26080 0.00000
C 	C 	0.76500 0.91030 0.85110 -0.03600
H 	H 	0.74000 0.89570 0.87400 0.01900
C 	C 	0.78860 0.89180 0.80440 0.02200
H 	H 	0.77860 0.86400 0.79530 -0.01200
C 	C 	0.84360 0.94640 0.79340 0.05000
H 	H 	0.87410 0.95740 0.77630 -0.04900
C 	C 	0.82140 0.96740 0.83820 -0.03600
H 	H 	0.83550 0.99320 0.85130 0.00200
Cd	Cd	0.13780 0.37438 0.19120 1.17700
Cd	Cd	0.88543 0.37781 0.66951 1.12500
O 	O 	0.13670 0.31321 0.12900 -0.40500
O 	O 	0.20200 0.31677 0.19060 -0.36700
O 	O 	0.32120 0.14917 0.11560 -0.44700
O 	O 	0.33400 0.19920 0.18180 -0.34800
O 	O 	0.14300 0.21880 0.95850 -0.13400
O 	O 	0.20310 0.17220 0.95080 -0.13200
N 	N 	0.09350 0.33944 0.26650 -0.23500
N 	N 	0.93780 0.34678 0.59860 -0.27700
N 	N 	0.18820 0.40530 0.11790 -0.25600
N 	N 	0.32390 0.40851 0.77030 -0.24000
N 	N 	0.18120 0.20100 0.97760 -0.01100
C 	C 	0.09710 0.29790 0.27150 0.77200
H 	H 	0.12070 0.28330 0.24680 -0.23600
C 	C 	0.06750 0.27580 0.31140 0.82900
H 	H 	0.06920 0.24610 0.31220 -0.26700
C 	C 	0.03800 0.34020 0.35090 0.18300
H 	H 	0.02000 0.35660 0.37970 -0.04000
C 	C 	0.06800 0.35950 0.30830 0.13100
H 	H 	0.07040 0.38920 0.30920 -0.05400
C 	C 	0.03400 0.29720 0.35180 0.10500
C 	C 	0.99960 0.27460 0.39450 -0.07400
H 	H 	0.96370 0.28450 0.38860 0.04300
C 	C 	0.01160 0.27260 0.46310 -0.06400
H 	H 	0.04940 0.27130 0.46970 0.06700
C 	C 	0.98790 0.30220 0.50720 0.10600
C 	C 	0.00630 0.30320 0.56630 -0.17400
H 	H 	0.03680 0.28860 0.57640 0.09300
C 	C 	0.98030 0.32540 0.60990 0.08900
H 	H 	0.99350 0.32550 0.64980 -0.06600
C 	C 	0.92080 0.34660 0.54090 0.07300
H 	H 	0.89070 0.36190 0.53180 -0.02400
C 	C 	0.94430 0.32560 0.49490 -0.16000
H 	H 	0.93100 0.32700 0.45510 0.07700
C 	C 	0.16810 0.40820 0.06210 0.06800
H 	H 	0.13610 0.39500 0.05500 -0.03800
C 	C 	0.19050 0.42850 0.01560 -0.14600
H 	H 	0.17450 0.42920 0.97720 0.05000
C 	C 	0.23780 0.44840 0.02470 0.09000
C 	C 	0.25980 0.44390 0.08110 -0.15700
H 	H 	0.29250 0.45570 0.08920 0.06400
C 	C 	0.23410 0.42210 0.12540 0.09100
H 	H 	0.25020 0.41900 0.16350 -0.03300
C 	C 	0.26090 0.47710 0.97920 -0.06900
H 	H 	0.29880 0.47790 0.98470 0.04100
C 	C 	0.24810 0.47560 0.91120 -0.04900
H 	H 	0.21130 0.46770 0.90680 0.01700
C 	C 	0.27820 0.45190 0.86540 0.04200
C 	C 	0.28000 0.40920 0.86520 -0.08300
H 	H 	0.26660 0.39380 0.89830 0.06100
C 	C 	0.30150 0.38840 0.81670 0.01500
H 	H 	0.30040 0.35860 0.81600 0.02500
C 	C 	0.32070 0.45120 0.77020 -0.01800
H 	H 	0.33330 0.46580 0.73600 -0.02300
C 	C 	0.30040 0.47400 0.81640 -0.07500
H 	H 	0.30100 0.50370 0.81580 0.02300
C 	C 	0.17920 0.30020 0.14780 0.31000
C 	C 	0.20260 0.26260 0.11680 -0.04300
C 	C 	0.24480 0.24230 0.14070 -0.00000
H 	H 	0.25990 0.25250 0.17680 0.06100
C 	C 	0.26530 0.20750 0.11270 -0.04700
C 	C 	0.31040 0.18410 0.13790 0.32000
C 	C 	0.24490 0.19420 0.05790 -0.06400
H 	H 	0.25950 0.17100 0.03730 0.08200
C 	C 	0.20310 0.21500 0.03400 0.09700
C 	C 	0.18160 0.24930 0.06280 -0.06300
H 	H 	0.15300 0.26340 0.04580 0.08100
C 	C 	0.10930 0.30600 0.29500 -0.74800
H 	H 	0.14260 0.29600 0.28580 0.23600
C 	C 	0.08180 0.28440 0.33680 -0.94700
H 	H 	0.09600 0.26040 0.35550 0.32000
C 	C 	0.01250 0.33120 0.32170 -0.31300
H 	H 	0.97830 0.33970 0.32950 0.07900
C 	C 	0.04170 0.35200 0.28080 -0.07700
H 	H 	0.02760 0.37560 0.26080 0.00000
C 	C 	0.26500 0.41030 0.85110 -0.03600
H 	H 	0.24000 0.39570 0.87400 0.01900
C 	C 	0.28860 0.39180 0.80440 0.02200
H 	H 	0.27860 0.36400 0.79530 -0.01200
C 	C 	0.34360 0.44640 0.79340 0.05000
H 	H 	0.37410 0.45740 0.77630 -0.04900
C 	C 	0.32140 0.46740 0.83820 -0.03600
H 	H 	0.33550 0.49320 0.85130 0.00200
