data_crystal

_cell_length_a 24.07400
_cell_length_b 24.07400
_cell_length_c 5.10210
_cell_angle_alpha 90.00000
_cell_angle_beta  90.00000
_cell_angle_gamma 90.00000

_symmetry_space_group_name_	'P 1'
_symmetry_space_group_name_H-M	'P 1'

loop_
_symmetry_equiv_pos_as_xyz
  x,y,z

loop_
_atom_site_label
_atom_site_type_symbol
_atom_site_fract_x
_atom_site_fract_y
_atom_site_fract_z
_atom_site_charge
C 	C 	0.56737 0.91159 0.87760 0.39800
O 	O 	0.51884 0.93015 0.81870 -0.36100
N 	N 	0.64082 0.83977 0.77620 -0.05800
C 	C 	0.58720 0.86471 0.68940 -0.25100
H 	H 	0.55910 0.83590 0.68170 0.12100
H 	H 	0.59160 0.87980 0.51440 0.14800
N 	N 	0.69011 0.85436 0.66560 -0.02800
O 	O 	0.59718 0.92796 0.05710 -0.28500
N 	N 	0.72908 0.82883 0.79400 -0.03800
N 	N 	0.70637 0.79748 0.99350 -0.16700
C 	C 	0.65123 0.80552 0.97600 0.15800
H 	H 	0.62460 0.78980 0.08540 -0.02700
C 	C 	0.06737 0.41159 0.37760 0.35500
O 	O 	0.01884 0.43015 0.31870 -0.40200
N 	N 	0.14082 0.33977 0.27620 -0.05500
C 	C 	0.08720 0.36471 0.18940 -0.24000
H 	H 	0.05910 0.33590 0.18170 0.10400
H 	H 	0.09160 0.37980 0.01440 0.13300
N 	N 	0.19011 0.35436 0.16560 -0.03600
O 	O 	0.09718 0.42796 0.55710 -0.26600
N 	N 	0.22908 0.32883 0.29400 -0.04600
N 	N 	0.20637 0.29748 0.49350 -0.16800
C 	C 	0.15123 0.30552 0.47600 0.10200
H 	H 	0.12460 0.28980 0.58540 0.00900
C 	C 	0.93263 0.08841 0.37760 0.35600
O 	O 	0.98116 0.06985 0.31870 -0.36300
N 	N 	0.85918 0.16023 0.27620 -0.05300
C 	C 	0.91280 0.13529 0.18940 -0.24700
H 	H 	0.94090 0.16410 0.18170 0.12400
H 	H 	0.90840 0.12020 0.01440 0.13900
N 	N 	0.80989 0.14564 0.16560 -0.03900
O 	O 	0.90282 0.07204 0.55710 -0.26900
N 	N 	0.77092 0.17117 0.29400 -0.04800
N 	N 	0.79363 0.20252 0.49350 -0.16800
C 	C 	0.84877 0.19448 0.47600 0.10100
H 	H 	0.87540 0.21020 0.58540 0.01600
C 	C 	0.43263 0.58841 0.87760 0.39700
O 	O 	0.48116 0.56985 0.81870 -0.37700
N 	N 	0.35918 0.66023 0.77620 -0.05800
C 	C 	0.41280 0.63529 0.68940 -0.25300
H 	H 	0.44090 0.66410 0.68170 0.12200
H 	H 	0.40840 0.62020 0.51440 0.14500
N 	N 	0.30989 0.64564 0.66560 -0.03100
O 	O 	0.40282 0.57204 0.05710 -0.30000
N 	N 	0.27092 0.67117 0.79400 -0.04000
N 	N 	0.29363 0.70252 0.99350 -0.16700
C 	C 	0.34877 0.69448 0.97600 0.15700
H 	H 	0.37540 0.71020 0.08540 -0.02700
C 	C 	0.83841 0.81737 0.12760 0.33400
O 	O 	0.81985 0.76884 0.06870 -0.38500
N 	N 	0.91023 0.89082 0.02620 -0.06900
C 	C 	0.88529 0.83720 0.93940 -0.20100
H 	H 	0.91410 0.80910 0.93170 0.11700
H 	H 	0.87020 0.84160 0.76440 0.13700
N 	N 	0.89564 0.94011 0.91560 -0.00600
O 	O 	0.82204 0.84718 0.30710 -0.25900
N 	N 	0.92117 0.97908 0.04400 -0.03500
N 	N 	0.95252 0.95637 0.24350 -0.14600
C 	C 	0.94448 0.90123 0.22600 0.10900
H 	H 	0.96020 0.87460 0.33540 0.01900
C 	C 	0.33841 0.31737 0.62760 0.35600
O 	O 	0.31985 0.26884 0.56870 -0.37700
N 	N 	0.41023 0.39082 0.52620 -0.05400
C 	C 	0.38529 0.33720 0.43940 -0.24000
H 	H 	0.41410 0.30910 0.43170 0.11400
H 	H 	0.37020 0.34160 0.26440 0.13600
N 	N 	0.39564 0.44011 0.41560 -0.03300
O 	O 	0.32204 0.34718 0.80710 -0.25700
N 	N 	0.42117 0.47908 0.54400 -0.04300
N 	N 	0.45252 0.45637 0.74350 -0.16100
C 	C 	0.44448 0.40123 0.72600 0.10400
H 	H 	0.46020 0.37460 0.83540 0.01800
C 	C 	0.66159 0.18263 0.62760 0.35600
O 	O 	0.68015 0.23116 0.56870 -0.37800
N 	N 	0.58977 0.10918 0.52620 -0.05400
C 	C 	0.61471 0.16280 0.43940 -0.24200
H 	H 	0.58590 0.19090 0.43170 0.11400
H 	H 	0.62980 0.15840 0.26440 0.13600
N 	N 	0.60436 0.05989 0.41560 -0.03900
O 	O 	0.67796 0.15282 0.80710 -0.26100
N 	N 	0.57883 0.02092 0.54400 -0.05600
N 	N 	0.54748 0.04363 0.74350 -0.16700
C 	C 	0.55552 0.09877 0.72600 0.10300
H 	H 	0.53980 0.12540 0.83540 0.01800
C 	C 	0.16159 0.68263 0.12760 0.33100
O 	O 	0.18015 0.73116 0.06870 -0.38600
N 	N 	0.08977 0.60918 0.02620 -0.07500
C 	C 	0.11471 0.66280 0.93940 -0.19900
H 	H 	0.08590 0.69090 0.93170 0.10300
H 	H 	0.12980 0.65840 0.76440 0.13200
N 	N 	0.10436 0.55989 0.91560 -0.01800
O 	O 	0.17796 0.65282 0.30710 -0.26400
N 	N 	0.07883 0.52092 0.04400 -0.05800
N 	N 	0.04748 0.54363 0.24350 -0.17700
C 	C 	0.05552 0.59877 0.22600 0.09500
H 	H 	0.03980 0.62540 0.33540 -0.00300
C 	C 	0.43263 0.08841 0.12240 0.32000
O 	O 	0.48116 0.06985 0.18130 -0.38600
N 	N 	0.35918 0.16023 0.22380 -0.04800
C 	C 	0.41280 0.13529 0.31060 -0.24100
H 	H 	0.44090 0.16410 0.31830 0.11400
H 	H 	0.40840 0.12020 0.48560 0.14200
N 	N 	0.30989 0.14564 0.33440 -0.03400
O 	O 	0.40282 0.07204 0.94290 -0.24700
N 	N 	0.27092 0.17117 0.20600 -0.04800
N 	N 	0.29363 0.20252 0.00650 -0.16900
C 	C 	0.34877 0.19448 0.02400 0.05200
H 	H 	0.37540 0.21020 0.91460 0.04400
C 	C 	0.93263 0.58841 0.62240 0.36100
O 	O 	0.98116 0.56985 0.68130 -0.35100
N 	N 	0.85918 0.66023 0.72380 -0.05000
C 	C 	0.91280 0.63529 0.81060 -0.25300
H 	H 	0.94090 0.66410 0.81830 0.13200
H 	H 	0.90840 0.62020 0.98560 0.15700
N 	N 	0.80989 0.64564 0.83440 -0.02600
O 	O 	0.90282 0.57204 0.44290 -0.26700
N 	N 	0.77092 0.67117 0.70600 -0.04000
N 	N 	0.79363 0.70252 0.50650 -0.16900
C 	C 	0.84877 0.69448 0.52400 0.10200
H 	H 	0.87540 0.71020 0.41460 0.01100
C 	C 	0.06737 0.91159 0.62240 0.35900
O 	O 	0.01884 0.93015 0.68130 -0.38100
N 	N 	0.14082 0.83977 0.72380 -0.05200
C 	C 	0.08720 0.86471 0.81060 -0.24600
H 	H 	0.05910 0.83590 0.81830 0.11100
H 	H 	0.09160 0.87980 0.98560 0.15100
N 	N 	0.19011 0.85436 0.83440 -0.02200
O 	O 	0.09718 0.92796 0.44290 -0.26100
N 	N 	0.22908 0.82883 0.70600 -0.03800
N 	N 	0.20637 0.79748 0.50650 -0.16900
C 	C 	0.15123 0.80552 0.52400 0.10300
H 	H 	0.12460 0.78980 0.41460 0.00400
C 	C 	0.56737 0.41159 0.12240 0.32200
O 	O 	0.51884 0.43015 0.18130 -0.37800
N 	N 	0.64082 0.33977 0.22380 -0.04800
C 	C 	0.58720 0.36471 0.31060 -0.23900
H 	H 	0.55910 0.33590 0.31830 0.11300
H 	H 	0.59160 0.37980 0.48560 0.14400
N 	N 	0.69011 0.35436 0.33440 -0.03100
O 	O 	0.59718 0.42796 0.94290 -0.23400
N 	N 	0.72908 0.32883 0.20600 -0.04600
N 	N 	0.70637 0.29748 0.00650 -0.16900
C 	C 	0.65123 0.30552 0.02400 0.05300
H 	H 	0.62460 0.28980 0.91460 0.04400
C 	C 	0.16159 0.18263 0.87240 0.37900
O 	O 	0.18015 0.23116 0.93130 -0.37700
N 	N 	0.08977 0.10918 0.97380 -0.03900
C 	C 	0.11471 0.16280 0.06060 -0.28500
H 	H 	0.08590 0.19090 0.06830 0.11700
H 	H 	0.12980 0.15840 0.23560 0.15000
N 	N 	0.10436 0.05989 0.08440 -0.05400
O 	O 	0.17796 0.15282 0.69290 -0.27500
N 	N 	0.07883 0.02092 0.95600 -0.05000
N 	N 	0.04748 0.04363 0.75650 -0.18000
C 	C 	0.05552 0.09877 0.77400 0.09400
H 	H 	0.03980 0.12540 0.66460 0.00200
C 	C 	0.66159 0.68263 0.37240 0.36200
O 	O 	0.68015 0.73116 0.43130 -0.38400
N 	N 	0.58977 0.60918 0.47380 -0.05100
C 	C 	0.61471 0.66280 0.56060 -0.25300
H 	H 	0.58590 0.69090 0.56830 0.12100
H 	H 	0.62980 0.65840 0.73560 0.15400
N 	N 	0.60436 0.55989 0.58440 -0.02800
O 	O 	0.67796 0.65282 0.19290 -0.27900
N 	N 	0.57883 0.52092 0.45600 -0.04300
N 	N 	0.54748 0.54363 0.25650 -0.17200
C 	C 	0.55552 0.59877 0.27400 0.10000
H 	H 	0.53980 0.62540 0.16460 0.00300
C 	C 	0.33841 0.81737 0.37240 0.36200
O 	O 	0.31985 0.76884 0.43130 -0.38300
N 	N 	0.41023 0.89082 0.47380 -0.05100
C 	C 	0.38529 0.83720 0.56060 -0.25200
H 	H 	0.41410 0.80910 0.56830 0.12100
H 	H 	0.37020 0.84160 0.73560 0.15500
N 	N 	0.39564 0.94011 0.58440 -0.02100
O 	O 	0.32204 0.84718 0.19290 -0.27500
N 	N 	0.42117 0.97908 0.45600 -0.02800
N 	N 	0.45252 0.95637 0.25650 -0.16000
C 	C 	0.44448 0.90123 0.27400 0.10100
H 	H 	0.46020 0.87460 0.16460 0.00300
C 	C 	0.83841 0.31737 0.87240 0.38200
O 	O 	0.81985 0.26884 0.93130 -0.37600
N 	N 	0.91023 0.39082 0.97380 -0.03300
C 	C 	0.88529 0.33720 0.06060 -0.28700
H 	H 	0.91410 0.30910 0.06830 0.13100
H 	H 	0.87020 0.34160 0.23560 0.15600
N 	N 	0.89564 0.44011 0.08440 -0.04200
O 	O 	0.82204 0.34718 0.69290 -0.27100
N 	N 	0.92117 0.47908 0.95600 -0.02900
N 	N 	0.95252 0.45637 0.75650 -0.15400
C 	C 	0.94448 0.40123 0.77400 0.10900
H 	H 	0.96020 0.37460 0.66460 0.02300
Cu	Cu	0.50000 0.00000 -0.00000 0.88100
Cu	Cu	-0.00000 0.50000 0.50000 0.89500
Cu	Cu	-0.00000 -0.00000 0.50000 0.87500
Cu	Cu	0.50000 0.50000 -0.00000 0.90100
Cu	Cu	0.75000 0.75000 0.25000 0.90900
Cu	Cu	0.75000 0.25000 0.75000 0.91800
Cu	Cu	0.25000 0.25000 0.75000 0.91700
Cu	Cu	0.25000 0.75000 0.25000 0.90900
