data_crystal

_cell_length_a 12.83870
_cell_length_b 12.83870
_cell_length_c 64.38240
_cell_angle_alpha 90.00000
_cell_angle_beta  90.00000
_cell_angle_gamma 120.00000

_symmetry_space_group_name_	'P 1'
_symmetry_space_group_name_H-M	'P 1'

loop_
_symmetry_equiv_pos_as_xyz
  x,y,z

loop_
_atom_site_label
_atom_site_type_symbol
_atom_site_fract_x
_atom_site_fract_y
_atom_site_fract_z
_atom_site_charge
Ag	Ag	0.96984 0.65218 0.07818 0.51000
Ag	Ag	0.62473 0.50863 0.16428 0.51600
Si	Si	0.97870 0.11940 0.09675 0.92300
Si	Si	0.42650 0.65350 0.07594 0.91500
Si	Si	0.51950 0.19230 0.07218 0.97500
N 	N 	0.98310 0.48230 0.08450 -0.15500
N 	N 	0.89330 0.91930 0.03245 -0.16600
N 	N 	0.79380 0.65400 0.07945 -0.15500
N 	N 	0.22760 0.55030 0.14034 -0.15800
N 	N 	0.14980 0.83070 0.07697 -0.15000
N 	N 	0.59220 0.41940 0.13331 -0.15500
N 	N 	0.58460 0.66130 0.16439 -0.15900
C 	C 	0.98650 0.41530 0.06868 -0.06400
H 	H 	0.99100 0.44270 0.05510 0.02200
C 	C 	0.98350 0.30800 0.07182 0.08800
H 	H 	0.98380 0.26420 0.06030 -0.02600
C 	C 	0.98020 0.26410 0.09096 -0.32200
C 	C 	0.97940 0.33580 0.10785 0.05300
H 	H 	0.97790 0.31140 0.12150 -0.01700
C 	C 	0.98100 0.44150 0.10357 -0.03300
H 	H 	0.98050 0.48740 0.11470 0.01300
C 	C 	0.11850 0.14230 0.10995 -0.58100
H 	H 	0.14990 0.09580 0.10330 0.18000
H 	H 	0.18030 0.22660 0.11010 0.17700
C 	C 	0.07260 0.09640 0.13180 0.01900
H 	H 	0.11770 0.06050 0.13730 0.00500
H 	H 	0.08980 0.16480 0.14050 0.00200
C 	C 	0.95030 0.01250 0.13350 0.06100
H 	H 	0.92400 0.01550 0.14750 -0.00600
H 	H 	0.93890 0.93260 0.13140 -0.00400
C 	C 	0.87230 0.03150 0.11838 -0.60700
H 	H 	0.83860 0.07670 0.12470 0.18400
H 	H 	0.80730 0.95530 0.11340 0.18800
C 	C 	0.94320 0.03160 0.07162 -0.33300
C 	C 	0.83000 0.98010 0.06223 0.09900
H 	H 	0.76780 0.98370 0.06900 -0.04100
C 	C 	0.80940 0.92570 0.04370 -0.06000
H 	H 	0.73180 0.89020 0.03840 0.01900
C 	C 	0.00120 0.96490 0.04106 -0.05500
H 	H 	0.06110 0.95840 0.03410 0.01400
C 	C 	0.02790 0.02380 0.06075 0.08700
H 	H 	0.10540 0.05710 0.06610 -0.03300
C 	C 	0.75030 0.68540 0.09588 -0.04800
H 	H 	0.79680 0.71160 0.10790 0.01900
C 	C 	0.64140 0.68070 0.09585 0.08100
H 	H 	0.61450 0.69970 0.10790 -0.02300
C 	C 	0.57170 0.64840 0.07835 -0.31300
C 	C 	0.61690 0.61690 0.06146 0.07400
H 	H 	0.57300 0.59330 0.04920 -0.03800
C 	C 	0.72440 0.61990 0.06247 -0.05000
H 	H 	0.75080 0.59720 0.05080 0.01000
C 	C 	0.45760 0.80340 0.06572 -0.56600
H 	H 	0.41420 0.83410 0.07360 0.17600
H 	H 	0.54290 0.86180 0.06610 0.16700
C 	C 	0.41100 0.77310 0.04320 0.01400
H 	H 	0.39390 0.83360 0.03780 0.00900
H 	H 	0.47100 0.77080 0.03430 0.00000
C 	C 	0.29920 0.65320 0.04350 0.07100
H 	H 	0.27220 0.62710 0.02940 -0.01400
H 	H 	0.23610 0.65870 0.05080 -0.01400
C 	C 	0.32440 0.56300 0.05420 -0.60000
H 	H 	0.36380 0.53400 0.04490 0.17700
H 	H 	0.25100 0.49510 0.05940 0.18200
C 	C 	0.35150 0.61610 0.10194 -0.32000
C 	C 	0.30390 0.67990 0.11120 0.07900
H 	H 	0.31210 0.74790 0.10460 -0.03000
C 	C 	0.24390 0.64600 0.13017 -0.04600
H 	H 	0.21430 0.69270 0.13580 0.01200
C 	C 	0.27330 0.48510 0.13181 -0.05100
H 	H 	0.26310 0.41720 0.13880 0.01700
C 	C 	0.33370 0.51540 0.11337 0.07700
H 	H 	0.36390 0.46810 0.10820 -0.02600
C 	C 	0.20740 0.89070 0.09381 -0.06400
H 	H 	0.17390 0.85870 0.10670 0.02500
C 	C 	0.31490 0.99880 0.09329 0.10100
H 	H 	0.35170 0.03750 0.10560 -0.03800
C 	C 	0.36730 0.04920 0.07444 -0.34900
C 	C 	0.30520 0.98670 0.05659 0.09700
H 	H 	0.33490 0.01770 0.04350 -0.04000
C 	C 	0.19980 0.87870 0.05866 -0.06000
H 	H 	0.16130 0.83690 0.04670 0.02000
C 	C 	0.64170 0.15450 0.06910 -0.72600
H 	H 	0.71220 0.20870 0.07710 0.22500
H 	H 	0.61460 0.07250 0.07340 0.21200
C 	C 	0.66700 0.16900 0.04740 0.23900
H 	H 	0.60660 0.09860 0.04010 -0.06400
H 	H 	0.74470 0.17590 0.04490 -0.06100
C 	C 	0.54490 0.26870 0.04688 -0.56900
H 	H 	0.48000 0.22130 0.03730 0.16900
H 	H 	0.55280 0.34750 0.04840 0.16700
C 	C 	0.66770 0.27900 0.03940 -0.08900
H 	H 	0.67260 0.28180 0.02430 0.03600
H 	H 	0.73580 0.35120 0.04490 0.03200
C 	C 	0.54540 0.28660 0.09586 -0.35200
C 	C 	0.65980 0.36520 0.10229 0.09500
H 	H 	0.72490 0.37500 0.09440 -0.03800
C 	C 	0.67970 0.43060 0.12052 -0.05200
H 	H 	0.75870 0.48580 0.12410 0.01700
C 	C 	0.48230 0.34400 0.12692 -0.05200
H 	H 	0.41880 0.33320 0.13530 0.02000
C 	C 	0.45470 0.27970 0.10861 0.09300
H 	H 	0.37470 0.23140 0.10480 -0.03400
C 	C 	0.66220 0.76510 0.15616 -0.03600
H 	H 	0.73110 0.77130 0.15020 0.01600
C 	C 	0.64950 0.86700 0.15562 0.06700
H 	H 	0.70550 0.93560 0.14860 -0.01600
C 	C 	0.55280 0.86540 0.16568 -0.32000
C 	C 	0.47320 0.75660 0.17461 0.07200
H 	H 	0.40610 0.74870 0.18150 -0.02300
C 	C 	0.49080 0.65820 0.17353 -0.03800
H 	H 	0.43340 0.58630 0.17960 0.01200
C 	C 	0.44190 0.00720 0.14490 -0.61100
H 	H 	0.49100 0.07110 0.13520 0.18400
H 	H 	0.40080 0.93150 0.13740 0.19100
C 	C 	0.35330 0.03290 0.15606 0.05100
H 	H 	0.28130 0.00520 0.14770 -0.00600
H 	H 	0.38870 0.11880 0.15820 -0.00800
Ag	Ag	0.34782 0.31766 0.74485 0.51000
Ag	Ag	0.49137 0.11610 0.83095 0.51500
Si	Si	0.88060 0.85930 0.76342 0.90900
Si	Si	0.34650 0.77300 0.74261 0.91000
Si	Si	0.80770 0.32720 0.73885 0.93000
N 	N 	0.51770 0.50080 0.75117 -0.15600
N 	N 	0.08070 0.97400 0.69912 -0.16300
N 	N 	0.34600 0.13980 0.74612 -0.15700
N 	N 	0.44970 0.67730 0.80701 -0.15800
N 	N 	0.16930 0.31910 0.74364 -0.17300
N 	N 	0.58060 0.17280 0.79998 -0.15800
N 	N 	0.33870 0.92330 0.83106 -0.15700
C 	C 	0.58470 0.57120 0.73535 -0.06200
H 	H 	0.55730 0.54830 0.72177 0.02200
C 	C 	0.69200 0.67550 0.73849 0.08400
H 	H 	0.73580 0.71960 0.72697 -0.02300
C 	C 	0.73590 0.71610 0.75763 -0.31500
C 	C 	0.66420 0.64360 0.77452 0.04900
H 	H 	0.68860 0.66650 0.78817 -0.01700
C 	C 	0.55850 0.53950 0.77024 -0.03100
H 	H 	0.51260 0.49310 0.78137 0.01200
C 	C 	0.85770 0.97620 0.77662 -0.54800
H 	H 	0.90420 0.05410 0.76997 0.17100
H 	H 	0.77340 0.95370 0.77677 0.16800
C 	C 	0.90360 0.97620 0.79847 -0.02100
H 	H 	0.93950 0.05720 0.80397 0.02000
H 	H 	0.83520 0.92500 0.80717 0.01500
C 	C 	0.98750 0.93780 0.80017 0.12000
H 	H 	0.98450 0.90850 0.81417 -0.01700
H 	H 	0.06740 0.00630 0.79807 -0.03700
C 	C 	0.96850 0.84080 0.78505 -0.59300
H 	H 	0.92330 0.76190 0.79137 0.18400
H 	H 	0.04470 0.85200 0.78007 0.17400
C 	C 	0.96840 0.91160 0.73829 -0.30500
C 	C 	0.01990 0.84990 0.72890 0.06700
H 	H 	0.01630 0.78410 0.73567 -0.03500
C 	C 	0.07430 0.88370 0.71037 -0.04800
H 	H 	0.10980 0.84160 0.70507 0.01400
C 	C 	0.03510 0.03630 0.70773 -0.08000
H 	H 	0.04160 0.10270 0.70077 0.01800
C 	C 	0.97620 0.00410 0.72742 0.09700
H 	H 	0.94290 0.04830 0.73277 -0.03200
C 	C 	0.31460 0.06490 0.76255 -0.05300
H 	H 	0.28840 0.08520 0.77457 0.01900
C 	C 	0.31930 0.96070 0.76252 0.08200
H 	H 	0.30030 0.91480 0.77457 -0.02300
C 	C 	0.35160 0.92330 0.74502 -0.30000
C 	C 	0.38310 0.00000 0.72813 0.04600
H 	H 	0.40670 0.97970 0.71587 -0.02300
C 	C 	0.38010 0.10450 0.72914 -0.03700
H 	H 	0.40280 0.15360 0.71747 0.00400
C 	C 	0.19660 0.65420 0.73239 -0.56200
H 	H 	0.16590 0.58010 0.74027 0.17300
H 	H 	0.13820 0.68110 0.73277 0.16300
C 	C 	0.22690 0.63790 0.70987 0.01400
H 	H 	0.16640 0.56030 0.70447 0.00700
H 	H 	0.22920 0.70020 0.70097 -0.00000
C 	C 	0.34680 0.64600 0.71017 0.07100
H 	H 	0.37290 0.64510 0.69607 -0.01300
H 	H 	0.34130 0.57740 0.71747 -0.01400
C 	C 	0.43700 0.76140 0.72087 -0.59800
H 	H 	0.46600 0.82980 0.71157 0.17800
H 	H 	0.50490 0.75590 0.72607 0.18300
C 	C 	0.38390 0.73540 0.76861 -0.31800
C 	C 	0.32010 0.62400 0.77787 0.07800
H 	H 	0.25210 0.56420 0.77127 -0.03100
C 	C 	0.35400 0.59790 0.79684 -0.04500
H 	H 	0.30730 0.52160 0.80247 0.01100
C 	C 	0.51490 0.78820 0.79848 -0.05000
H 	H 	0.58280 0.84590 0.80547 0.01700
C 	C 	0.48460 0.81830 0.78004 0.07600
H 	H 	0.53190 0.89580 0.77487 -0.02400
C 	C 	0.10930 0.31670 0.76048 -0.00500
H 	H 	0.14130 0.31520 0.77337 0.00100
C 	C 	0.00120 0.31610 0.75996 -0.02200
H 	H 	0.96250 0.31420 0.77227 0.01600
C 	C 	0.95080 0.31810 0.74111 -0.24600
C 	C 	0.01330 0.31850 0.72326 -0.02100
H 	H 	0.98230 0.31720 0.71017 0.01300
C 	C 	0.12130 0.32110 0.72533 -0.00100
H 	H 	0.16310 0.32440 0.71337 -0.00300
C 	C 	0.84550 0.48720 0.73577 -0.70100
H 	H 	0.79130 0.50350 0.74377 0.21900
H 	H 	0.92750 0.54210 0.74007 0.21000
C 	C 	0.83100 0.49800 0.71407 0.22300
H 	H 	0.90140 0.50800 0.70677 -0.05500
H 	H 	0.82410 0.56880 0.71157 -0.05400
C 	C 	0.73130 0.27620 0.71355 -0.55100
H 	H 	0.77870 0.25870 0.70397 0.16400
H 	H 	0.65250 0.20530 0.71507 0.16200
C 	C 	0.72100 0.38870 0.70607 -0.08700
H 	H 	0.71820 0.39080 0.69097 0.03600
H 	H 	0.64880 0.38460 0.71157 0.03200
C 	C 	0.71340 0.25880 0.76253 -0.33500
C 	C 	0.63480 0.29460 0.76896 0.08500
H 	H 	0.62500 0.34990 0.76107 -0.03300
C 	C 	0.56940 0.24910 0.78719 -0.04700
H 	H 	0.51420 0.27290 0.79077 0.01500
C 	C 	0.65600 0.13830 0.79359 -0.04600
H 	H 	0.66680 0.08560 0.80197 0.01800
C 	C 	0.72030 0.17500 0.77528 0.08100
H 	H 	0.76860 0.14330 0.77147 -0.02900
C 	C 	0.23490 0.89710 0.82283 -0.04000
H 	H 	0.22870 0.95980 0.81687 0.01700
C 	C 	0.13300 0.78250 0.82229 0.07200
H 	H 	0.06440 0.76990 0.81527 -0.02500
C 	C 	0.13460 0.68740 0.83235 -0.33000
C 	C 	0.24340 0.71660 0.84128 0.07700
H 	H 	0.25130 0.65740 0.84817 -0.02600
C 	C 	0.34180 0.83260 0.84020 -0.04100
H 	H 	0.41370 0.84710 0.84627 0.01300
C 	C 	0.99280 0.43470 0.81157 -0.55900
H 	H 	0.92890 0.41990 0.80187 0.17100
H 	H 	0.06850 0.46930 0.80407 0.16400
C 	C 	0.96710 0.32040 0.82273 0.03600
H 	H 	0.99480 0.27610 0.81437 0.00500
H 	H 	0.88120 0.26990 0.82487 -0.00200
Ag	Ag	0.68234 0.03016 0.41151 0.50600
Ag	Ag	0.88390 0.37527 0.49761 0.52000
Si	Si	0.14070 0.02130 0.43008 0.90500
Si	Si	0.22700 0.57350 0.40927 0.90700
Si	Si	0.67280 0.48050 0.40551 0.96600
N 	N 	0.49920 0.01690 0.41783 -0.15800
N 	N 	0.02600 0.10670 0.36578 -0.17600
N 	N 	0.86020 0.20620 0.41278 -0.16300
N 	N 	0.32270 0.77240 0.47367 -0.15700
N 	N 	0.68090 0.85020 0.41030 -0.15300
N 	N 	0.82720 0.40780 0.46664 -0.15500
N 	N 	0.07670 0.41540 0.49772 -0.16000
C 	C 	0.42880 0.01350 0.40201 -0.06500
H 	H 	0.45170 0.00900 0.38843 0.01900
C 	C 	0.32450 0.01650 0.40515 0.08400
H 	H 	0.28040 0.01620 0.39363 -0.02800
C 	C 	0.28390 0.01980 0.42429 -0.31900
C 	C 	0.35640 0.02060 0.44118 0.04900
H 	H 	0.33350 0.02210 0.45483 -0.01800
C 	C 	0.46050 0.01900 0.43690 -0.03300
H 	H 	0.50690 0.01950 0.44803 0.01000
C 	C 	0.02380 0.88150 0.44328 -0.60100
H 	H 	0.94590 0.85010 0.43663 0.19500
H 	H 	0.04630 0.81970 0.44343 0.18300
C 	C 	0.02380 0.92740 0.46513 0.06200
H 	H 	0.94280 0.88230 0.47063 0.00100
H 	H 	0.07500 0.91020 0.47383 -0.00900
C 	C 	0.06220 0.04970 0.46683 -0.00400
H 	H 	0.09150 0.07600 0.48083 0.01200
H 	H 	0.99370 0.06110 0.46473 0.01400
C 	C 	0.15920 0.12770 0.45171 -0.56000
H 	H 	0.23810 0.16140 0.45803 0.17100
H 	H 	0.14800 0.19270 0.44673 0.16800
C 	C 	0.08840 0.05680 0.40495 -0.35500
C 	C 	0.15010 0.17000 0.39556 0.10200
H 	H 	0.21590 0.23220 0.40233 -0.04300
C 	C 	0.11630 0.19060 0.37703 -0.06800
H 	H 	0.15840 0.26820 0.37173 0.02000
C 	C 	0.96370 0.99880 0.37439 -0.04600
H 	H 	0.89730 0.93890 0.36743 0.01500
C 	C 	0.99590 0.97210 0.39408 0.12300
H 	H 	0.95170 0.89460 0.39943 -0.03900
C 	C 	0.93510 0.24970 0.42921 -0.02400
H 	H 	0.91480 0.20320 0.44123 0.01200
C 	C 	0.03930 0.35860 0.42918 0.05200
H 	H 	0.08520 0.38550 0.44123 -0.01500
C 	C 	0.07670 0.42830 0.41168 -0.29700
C 	C 	-0.00000 0.38310 0.39479 0.04600
H 	H 	0.02030 0.42700 0.38253 -0.03000
C 	C 	0.89550 0.27560 0.39580 -0.02600
H 	H 	0.84640 0.24920 0.38413 0.00200
C 	C 	0.34580 0.54240 0.39905 -0.56200
H 	H 	0.41990 0.58580 0.40693 0.17500
H 	H 	0.31890 0.45710 0.39943 0.16500
C 	C 	0.36210 0.58900 0.37653 0.01500
H 	H 	0.43970 0.60610 0.37113 0.00900
H 	H 	0.29980 0.52900 0.36763 -0.00100
C 	C 	0.35400 0.70080 0.37683 0.06700
H 	H 	0.35490 0.72780 0.36273 -0.01100
H 	H 	0.42260 0.76390 0.38413 -0.01100
C 	C 	0.23860 0.67560 0.38753 -0.59500
H 	H 	0.17020 0.63620 0.37823 0.17500
H 	H 	0.24410 0.74900 0.39273 0.18400
C 	C 	0.26460 0.64850 0.43527 -0.31700
C 	C 	0.37600 0.69610 0.44453 0.07800
H 	H 	0.43580 0.68790 0.43793 -0.03000
C 	C 	0.40210 0.75610 0.46350 -0.04400
H 	H 	0.47840 0.78570 0.46913 0.01300
C 	C 	0.21180 0.72670 0.46514 -0.04900
H 	H 	0.15410 0.73690 0.47213 0.01600
C 	C 	0.18170 0.66630 0.44670 0.07600
H 	H 	0.10420 0.63610 0.44153 -0.02700
C 	C 	0.68330 0.79260 0.42714 -0.04700
H 	H 	0.68480 0.82610 0.44003 0.02000
C 	C 	0.68390 0.68510 0.42662 0.06600
H 	H 	0.68580 0.64830 0.43893 -0.02200
C 	C 	0.68190 0.63270 0.40777 -0.32200
C 	C 	0.68150 0.69480 0.38992 0.06900
H 	H 	0.68280 0.66510 0.37683 -0.02700
C 	C 	0.67890 0.80020 0.39199 -0.04600
H 	H 	0.67560 0.83870 0.38003 0.01700
C 	C 	0.51280 0.35830 0.40243 -0.72100
H 	H 	0.49650 0.28780 0.41043 0.22400
H 	H 	0.45790 0.38540 0.40673 0.21200
C 	C 	0.50200 0.33300 0.38073 0.23600
H 	H 	0.49200 0.39340 0.37343 -0.06300
H 	H 	0.43120 0.25530 0.37823 -0.06100
C 	C 	0.72380 0.45510 0.38021 -0.56700
H 	H 	0.74130 0.52000 0.37063 0.17000
H 	H 	0.79470 0.44720 0.38173 0.16800
C 	C 	0.61130 0.33230 0.37273 -0.08800
H 	H 	0.60920 0.32740 0.35763 0.03600
H 	H 	0.61540 0.26420 0.37823 0.03100
C 	C 	0.74120 0.45460 0.42919 -0.34700
C 	C 	0.70540 0.34020 0.43562 0.09300
H 	H 	0.65010 0.27510 0.42773 -0.03700
C 	C 	0.75090 0.32030 0.45385 -0.05000
H 	H 	0.72710 0.24130 0.45743 0.01600
C 	C 	0.86170 0.51770 0.46025 -0.05000
H 	H 	0.91440 0.58120 0.46863 0.02300
C 	C 	0.82500 0.54530 0.44194 0.09100
H 	H 	0.85670 0.62530 0.43813 -0.03100
C 	C 	0.10290 0.33780 0.48949 -0.04100
H 	H 	0.04020 0.26890 0.48353 0.01300
C 	C 	0.21750 0.35050 0.48895 0.07600
H 	H 	0.23010 0.29450 0.48193 -0.02400
C 	C 	0.31260 0.44720 0.49901 -0.34100
C 	C 	0.28340 0.52680 0.50794 0.08300
H 	H 	0.34260 0.59390 0.51483 -0.02800
C 	C 	0.16740 0.50920 0.50686 -0.04500
H 	H 	0.15290 0.56660 0.51293 0.01300
C 	C 	0.56530 0.55810 0.47823 -0.60700
H 	H 	0.58010 0.50900 0.46853 0.18400
H 	H 	0.53070 0.59920 0.47073 0.18400
C 	C 	0.67960 0.64670 0.48939 0.04900
H 	H 	0.72390 0.71870 0.48103 -0.00000
H 	H 	0.73010 0.61130 0.49153 -0.00600
Ag	Ag	0.65218 0.96984 0.92182 0.51100
Ag	Ag	0.50863 0.62473 0.83572 0.51600
Si	Si	0.11940 0.97870 0.90325 0.92300
Si	Si	0.65350 0.42650 0.92406 0.91500
Si	Si	0.19230 0.51950 0.92782 0.97500
N 	N 	0.48230 0.98310 0.91550 -0.15500
N 	N 	0.91930 0.89330 0.96755 -0.16600
N 	N 	0.65400 0.79380 0.92055 -0.15500
N 	N 	0.55030 0.22760 0.85966 -0.15800
N 	N 	0.83070 0.14980 0.92303 -0.15000
N 	N 	0.41940 0.59220 0.86669 -0.15500
N 	N 	0.66130 0.58460 0.83561 -0.15900
C 	C 	0.41530 0.98650 0.93132 -0.06400
H 	H 	0.44270 0.99100 0.94490 0.02200
C 	C 	0.30800 0.98350 0.92818 0.08800
H 	H 	0.26420 0.98380 0.93970 -0.02600
C 	C 	0.26410 0.98020 0.90904 -0.32200
C 	C 	0.33580 0.97940 0.89215 0.05300
H 	H 	0.31140 0.97790 0.87850 -0.01700
C 	C 	0.44150 0.98100 0.89643 -0.03300
H 	H 	0.48740 0.98050 0.88530 0.01300
C 	C 	0.14230 0.11850 0.89005 -0.58100
H 	H 	0.09580 0.14990 0.89670 0.18000
H 	H 	0.22660 0.18030 0.88990 0.17700
C 	C 	0.09640 0.07260 0.86820 0.01900
H 	H 	0.06050 0.11770 0.86270 0.00500
H 	H 	0.16480 0.08980 0.85950 0.00200
C 	C 	0.01250 0.95030 0.86650 0.06100
H 	H 	0.01550 0.92400 0.85250 -0.00600
H 	H 	0.93260 0.93890 0.86860 -0.00400
C 	C 	0.03150 0.87230 0.88162 -0.60700
H 	H 	0.07670 0.83860 0.87530 0.18400
H 	H 	0.95530 0.80730 0.88660 0.18800
C 	C 	0.03160 0.94320 0.92838 -0.33300
C 	C 	0.98010 0.83000 0.93777 0.09900
H 	H 	0.98370 0.76780 0.93100 -0.04100
C 	C 	0.92570 0.80940 0.95630 -0.06000
H 	H 	0.89020 0.73180 0.96160 0.01900
C 	C 	0.96490 0.00120 0.95894 -0.05500
H 	H 	0.95840 0.06110 0.96590 0.01400
C 	C 	0.02380 0.02790 0.93925 0.08700
H 	H 	0.05710 0.10540 0.93390 -0.03300
C 	C 	0.68540 0.75030 0.90412 -0.04800
H 	H 	0.71160 0.79680 0.89210 0.01900
C 	C 	0.68070 0.64140 0.90415 0.08100
H 	H 	0.69970 0.61450 0.89210 -0.02300
C 	C 	0.64840 0.57170 0.92165 -0.31300
C 	C 	0.61690 0.61690 0.93854 0.07400
H 	H 	0.59330 0.57300 0.95080 -0.03800
C 	C 	0.61990 0.72440 0.93753 -0.05000
H 	H 	0.59720 0.75080 0.94920 0.01000
C 	C 	0.80340 0.45760 0.93428 -0.56600
H 	H 	0.83410 0.41420 0.92640 0.17600
H 	H 	0.86180 0.54290 0.93390 0.16700
C 	C 	0.77310 0.41100 0.95680 0.01400
H 	H 	0.83360 0.39390 0.96220 0.00900
H 	H 	0.77080 0.47100 0.96570 0.00000
C 	C 	0.65320 0.29920 0.95650 0.07100
H 	H 	0.62710 0.27220 0.97060 -0.01400
H 	H 	0.65870 0.23610 0.94920 -0.01400
C 	C 	0.56300 0.32440 0.94580 -0.60000
H 	H 	0.53400 0.36380 0.95510 0.17700
H 	H 	0.49510 0.25100 0.94060 0.18200
C 	C 	0.61610 0.35150 0.89806 -0.32000
C 	C 	0.67990 0.30390 0.88880 0.07900
H 	H 	0.74790 0.31210 0.89540 -0.03000
C 	C 	0.64600 0.24390 0.86983 -0.04600
H 	H 	0.69270 0.21430 0.86420 0.01200
C 	C 	0.48510 0.27330 0.86819 -0.05100
H 	H 	0.41720 0.26310 0.86120 0.01700
C 	C 	0.51540 0.33370 0.88663 0.07700
H 	H 	0.46810 0.36390 0.89180 -0.02600
C 	C 	0.89070 0.20740 0.90619 -0.06400
H 	H 	0.85870 0.17390 0.89330 0.02500
C 	C 	0.99880 0.31490 0.90671 0.10100
H 	H 	0.03750 0.35170 0.89440 -0.03800
C 	C 	0.04920 0.36730 0.92556 -0.34900
C 	C 	0.98670 0.30520 0.94341 0.09700
H 	H 	0.01770 0.33490 0.95650 -0.04000
C 	C 	0.87870 0.19980 0.94134 -0.06000
H 	H 	0.83690 0.16130 0.95330 0.02000
C 	C 	0.15450 0.64170 0.93090 -0.72600
H 	H 	0.20870 0.71220 0.92290 0.22500
H 	H 	0.07250 0.61460 0.92660 0.21200
C 	C 	0.16900 0.66700 0.95260 0.23900
H 	H 	0.09860 0.60660 0.95990 -0.06400
H 	H 	0.17590 0.74470 0.95510 -0.06100
C 	C 	0.26870 0.54490 0.95312 -0.56900
H 	H 	0.22130 0.48000 0.96270 0.16900
H 	H 	0.34750 0.55280 0.95160 0.16700
C 	C 	0.27900 0.66770 0.96060 -0.08900
H 	H 	0.28180 0.67260 0.97570 0.03600
H 	H 	0.35120 0.73580 0.95510 0.03200
C 	C 	0.28660 0.54540 0.90414 -0.35200
C 	C 	0.36520 0.65980 0.89771 0.09500
H 	H 	0.37500 0.72490 0.90560 -0.03800
C 	C 	0.43060 0.67970 0.87948 -0.05200
H 	H 	0.48580 0.75870 0.87590 0.01700
C 	C 	0.34400 0.48230 0.87308 -0.05200
H 	H 	0.33320 0.41880 0.86470 0.02000
C 	C 	0.27970 0.45470 0.89139 0.09300
H 	H 	0.23140 0.37470 0.89520 -0.03400
C 	C 	0.76510 0.66220 0.84384 -0.03600
H 	H 	0.77130 0.73110 0.84980 0.01600
C 	C 	0.86700 0.64950 0.84438 0.06700
H 	H 	0.93560 0.70550 0.85140 -0.01600
C 	C 	0.86540 0.55280 0.83432 -0.32000
C 	C 	0.75660 0.47320 0.82539 0.07200
H 	H 	0.74870 0.40610 0.81850 -0.02300
C 	C 	0.65820 0.49080 0.82647 -0.03800
H 	H 	0.58630 0.43340 0.82040 0.01200
C 	C 	0.00720 0.44190 0.85510 -0.61100
H 	H 	0.07110 0.49100 0.86480 0.18400
H 	H 	0.93150 0.40080 0.86260 0.19100
C 	C 	0.03290 0.35330 0.84394 0.05100
H 	H 	0.00520 0.28130 0.85230 -0.00600
H 	H 	0.11880 0.38870 0.84180 -0.00800
Ag	Ag	0.31766 0.34782 0.25515 0.51000
Ag	Ag	0.11610 0.49137 0.16905 0.51500
Si	Si	0.85930 0.88060 0.23658 0.90900
Si	Si	0.77300 0.34650 0.25739 0.91000
Si	Si	0.32720 0.80770 0.26115 0.93000
N 	N 	0.50080 0.51770 0.24883 -0.15600
N 	N 	0.97400 0.08070 0.30088 -0.16300
N 	N 	0.13980 0.34600 0.25388 -0.15700
N 	N 	0.67730 0.44970 0.19299 -0.15800
N 	N 	0.31910 0.16930 0.25636 -0.17300
N 	N 	0.17280 0.58060 0.20002 -0.15800
N 	N 	0.92330 0.33870 0.16894 -0.15700
C 	C 	0.57120 0.58470 0.26465 -0.06200
H 	H 	0.54830 0.55730 0.27823 0.02200
C 	C 	0.67550 0.69200 0.26151 0.08400
H 	H 	0.71960 0.73580 0.27303 -0.02300
C 	C 	0.71610 0.73590 0.24237 -0.31500
C 	C 	0.64360 0.66420 0.22548 0.04900
H 	H 	0.66650 0.68860 0.21183 -0.01700
C 	C 	0.53950 0.55850 0.22976 -0.03100
H 	H 	0.49310 0.51260 0.21863 0.01200
C 	C 	0.97620 0.85770 0.22338 -0.54800
H 	H 	0.05410 0.90420 0.23003 0.17100
H 	H 	0.95370 0.77340 0.22323 0.16800
C 	C 	0.97620 0.90360 0.20153 -0.02100
H 	H 	0.05720 0.93950 0.19603 0.02000
H 	H 	0.92500 0.83520 0.19283 0.01500
C 	C 	0.93780 0.98750 0.19983 0.12000
H 	H 	0.90850 0.98450 0.18583 -0.01700
H 	H 	0.00630 0.06740 0.20193 -0.03700
C 	C 	0.84080 0.96850 0.21495 -0.59300
H 	H 	0.76190 0.92330 0.20863 0.18400
H 	H 	0.85200 0.04470 0.21993 0.17400
C 	C 	0.91160 0.96840 0.26171 -0.30500
C 	C 	0.84990 0.01990 0.27110 0.06700
H 	H 	0.78410 0.01630 0.26433 -0.03500
C 	C 	0.88370 0.07430 0.28963 -0.04800
H 	H 	0.84160 0.10980 0.29493 0.01400
C 	C 	0.03630 0.03510 0.29227 -0.08000
H 	H 	0.10270 0.04160 0.29923 0.01800
C 	C 	0.00410 0.97620 0.27258 0.09700
H 	H 	0.04830 0.94290 0.26723 -0.03200
C 	C 	0.06490 0.31460 0.23745 -0.05300
H 	H 	0.08520 0.28840 0.22543 0.01900
C 	C 	0.96070 0.31930 0.23748 0.08200
H 	H 	0.91480 0.30030 0.22543 -0.02300
C 	C 	0.92330 0.35160 0.25498 -0.30000
C 	C 	-0.00000 0.38310 0.27187 0.04600
H 	H 	0.97970 0.40670 0.28413 -0.02300
C 	C 	0.10450 0.38010 0.27086 -0.03700
H 	H 	0.15360 0.40280 0.28253 0.00400
C 	C 	0.65420 0.19660 0.26761 -0.56200
H 	H 	0.58010 0.16590 0.25973 0.17300
H 	H 	0.68110 0.13820 0.26723 0.16300
C 	C 	0.63790 0.22690 0.29013 0.01400
H 	H 	0.56030 0.16640 0.29553 0.00700
H 	H 	0.70020 0.22920 0.29903 -0.00000
C 	C 	0.64600 0.34680 0.28983 0.07100
H 	H 	0.64510 0.37290 0.30393 -0.01300
H 	H 	0.57740 0.34130 0.28253 -0.01400
C 	C 	0.76140 0.43700 0.27913 -0.59800
H 	H 	0.82980 0.46600 0.28843 0.17800
H 	H 	0.75590 0.50490 0.27393 0.18300
C 	C 	0.73540 0.38390 0.23139 -0.31800
C 	C 	0.62400 0.32010 0.22213 0.07800
H 	H 	0.56420 0.25210 0.22873 -0.03100
C 	C 	0.59790 0.35400 0.20316 -0.04500
H 	H 	0.52160 0.30730 0.19753 0.01100
C 	C 	0.78820 0.51490 0.20152 -0.05000
H 	H 	0.84590 0.58280 0.19453 0.01700
C 	C 	0.81830 0.48460 0.21996 0.07600
H 	H 	0.89580 0.53190 0.22513 -0.02400
C 	C 	0.31670 0.10930 0.23952 -0.00500
H 	H 	0.31520 0.14130 0.22663 0.00100
C 	C 	0.31610 0.00120 0.24004 -0.02200
H 	H 	0.31420 0.96250 0.22773 0.01600
C 	C 	0.31810 0.95080 0.25889 -0.24600
C 	C 	0.31850 0.01330 0.27674 -0.02100
H 	H 	0.31720 0.98230 0.28983 0.01300
C 	C 	0.32110 0.12130 0.27467 -0.00100
H 	H 	0.32440 0.16310 0.28663 -0.00300
C 	C 	0.48720 0.84550 0.26423 -0.70100
H 	H 	0.50350 0.79130 0.25623 0.21900
H 	H 	0.54210 0.92750 0.25993 0.21000
C 	C 	0.49800 0.83100 0.28593 0.22300
H 	H 	0.50800 0.90140 0.29323 -0.05500
H 	H 	0.56880 0.82410 0.28843 -0.05400
C 	C 	0.27620 0.73130 0.28645 -0.55100
H 	H 	0.25870 0.77870 0.29603 0.16400
H 	H 	0.20530 0.65250 0.28493 0.16200
C 	C 	0.38870 0.72100 0.29393 -0.08700
H 	H 	0.39080 0.71820 0.30903 0.03600
H 	H 	0.38460 0.64880 0.28843 0.03200
C 	C 	0.25880 0.71340 0.23747 -0.33500
C 	C 	0.29460 0.63480 0.23104 0.08500
H 	H 	0.34990 0.62500 0.23893 -0.03300
C 	C 	0.24910 0.56940 0.21281 -0.04700
H 	H 	0.27290 0.51420 0.20923 0.01500
C 	C 	0.13830 0.65600 0.20641 -0.04600
H 	H 	0.08560 0.66680 0.19803 0.01800
C 	C 	0.17500 0.72030 0.22472 0.08100
H 	H 	0.14330 0.76860 0.22853 -0.02900
C 	C 	0.89710 0.23490 0.17717 -0.04000
H 	H 	0.95980 0.22870 0.18313 0.01700
C 	C 	0.78250 0.13300 0.17771 0.07200
H 	H 	0.76990 0.06440 0.18473 -0.02500
C 	C 	0.68740 0.13460 0.16765 -0.33000
C 	C 	0.71660 0.24340 0.15872 0.07700
H 	H 	0.65740 0.25130 0.15183 -0.02600
C 	C 	0.83260 0.34180 0.15980 -0.04100
H 	H 	0.84710 0.41370 0.15373 0.01300
C 	C 	0.43470 0.99280 0.18843 -0.55900
H 	H 	0.41990 0.92890 0.19813 0.17100
H 	H 	0.46930 0.06850 0.19593 0.16400
C 	C 	0.32040 0.96710 0.17727 0.03600
H 	H 	0.27610 0.99480 0.18563 0.00500
H 	H 	0.26990 0.88120 0.17513 -0.00200
Ag	Ag	0.03016 0.68234 0.58849 0.50600
Ag	Ag	0.37527 0.88390 0.50239 0.52000
Si	Si	0.02130 0.14070 0.56992 0.90500
Si	Si	0.57350 0.22700 0.59073 0.90700
Si	Si	0.48050 0.67280 0.59449 0.96600
N 	N 	0.01690 0.49920 0.58217 -0.15800
N 	N 	0.10670 0.02600 0.63422 -0.17600
N 	N 	0.20620 0.86020 0.58722 -0.16300
N 	N 	0.77240 0.32270 0.52633 -0.15700
N 	N 	0.85020 0.68090 0.58970 -0.15300
N 	N 	0.40780 0.82720 0.53336 -0.15500
N 	N 	0.41540 0.07670 0.50228 -0.16000
C 	C 	0.01350 0.42880 0.59799 -0.06500
H 	H 	0.00900 0.45170 0.61157 0.01900
C 	C 	0.01650 0.32450 0.59485 0.08400
H 	H 	0.01620 0.28040 0.60637 -0.02800
C 	C 	0.01980 0.28390 0.57571 -0.31900
C 	C 	0.02060 0.35640 0.55882 0.04900
H 	H 	0.02210 0.33350 0.54517 -0.01800
C 	C 	0.01900 0.46050 0.56310 -0.03300
H 	H 	0.01950 0.50690 0.55197 0.01000
C 	C 	0.88150 0.02380 0.55672 -0.60100
H 	H 	0.85010 0.94590 0.56337 0.19500
H 	H 	0.81970 0.04630 0.55657 0.18300
C 	C 	0.92740 0.02380 0.53487 0.06200
H 	H 	0.88230 0.94280 0.52937 0.00100
H 	H 	0.91020 0.07500 0.52617 -0.00900
C 	C 	0.04970 0.06220 0.53317 -0.00400
H 	H 	0.07600 0.09150 0.51917 0.01200
H 	H 	0.06110 0.99370 0.53527 0.01400
C 	C 	0.12770 0.15920 0.54829 -0.56000
H 	H 	0.16140 0.23810 0.54197 0.17100
H 	H 	0.19270 0.14800 0.55327 0.16800
C 	C 	0.05680 0.08840 0.59505 -0.35500
C 	C 	0.17000 0.15010 0.60444 0.10200
H 	H 	0.23220 0.21590 0.59767 -0.04300
C 	C 	0.19060 0.11630 0.62297 -0.06800
H 	H 	0.26820 0.15840 0.62827 0.02000
C 	C 	0.99880 0.96370 0.62561 -0.04600
H 	H 	0.93890 0.89730 0.63257 0.01500
C 	C 	0.97210 0.99590 0.60592 0.12300
H 	H 	0.89460 0.95170 0.60057 -0.03900
C 	C 	0.24970 0.93510 0.57079 -0.02400
H 	H 	0.20320 0.91480 0.55877 0.01200
C 	C 	0.35860 0.03930 0.57082 0.05200
H 	H 	0.38550 0.08520 0.55877 -0.01500
C 	C 	0.42830 0.07670 0.58832 -0.29700
C 	C 	0.38310 0.00000 0.60521 0.04600
H 	H 	0.42700 0.02030 0.61747 -0.03000
C 	C 	0.27560 0.89550 0.60420 -0.02600
H 	H 	0.24920 0.84640 0.61587 0.00200
C 	C 	0.54240 0.34580 0.60095 -0.56200
H 	H 	0.58580 0.41990 0.59307 0.17500
H 	H 	0.45710 0.31890 0.60057 0.16500
C 	C 	0.58900 0.36210 0.62347 0.01500
H 	H 	0.60610 0.43970 0.62887 0.00900
H 	H 	0.52900 0.29980 0.63237 -0.00100
C 	C 	0.70080 0.35400 0.62317 0.06700
H 	H 	0.72780 0.35490 0.63727 -0.01100
H 	H 	0.76390 0.42260 0.61587 -0.01100
C 	C 	0.67560 0.23860 0.61247 -0.59500
H 	H 	0.63620 0.17020 0.62177 0.17500
H 	H 	0.74900 0.24410 0.60727 0.18400
C 	C 	0.64850 0.26460 0.56473 -0.31700
C 	C 	0.69610 0.37600 0.55547 0.07800
H 	H 	0.68790 0.43580 0.56207 -0.03000
C 	C 	0.75610 0.40210 0.53650 -0.04400
H 	H 	0.78570 0.47840 0.53087 0.01300
C 	C 	0.72670 0.21180 0.53486 -0.04900
H 	H 	0.73690 0.15410 0.52787 0.01600
C 	C 	0.66630 0.18170 0.55330 0.07600
H 	H 	0.63610 0.10420 0.55847 -0.02700
C 	C 	0.79260 0.68330 0.57286 -0.04700
H 	H 	0.82610 0.68480 0.55997 0.02000
C 	C 	0.68510 0.68390 0.57338 0.06600
H 	H 	0.64830 0.68580 0.56107 -0.02200
C 	C 	0.63270 0.68190 0.59223 -0.32200
C 	C 	0.69480 0.68150 0.61008 0.06900
H 	H 	0.66510 0.68280 0.62317 -0.02700
C 	C 	0.80020 0.67890 0.60801 -0.04600
H 	H 	0.83870 0.67560 0.61997 0.01700
C 	C 	0.35830 0.51280 0.59757 -0.72100
H 	H 	0.28780 0.49650 0.58957 0.22400
H 	H 	0.38540 0.45790 0.59327 0.21200
C 	C 	0.33300 0.50200 0.61927 0.23600
H 	H 	0.39340 0.49200 0.62657 -0.06300
H 	H 	0.25530 0.43120 0.62177 -0.06100
C 	C 	0.45510 0.72380 0.61979 -0.56700
H 	H 	0.52000 0.74130 0.62937 0.17000
H 	H 	0.44720 0.79470 0.61827 0.16800
C 	C 	0.33230 0.61130 0.62727 -0.08800
H 	H 	0.32740 0.60920 0.64237 0.03600
H 	H 	0.26420 0.61540 0.62177 0.03100
C 	C 	0.45460 0.74120 0.57081 -0.34700
C 	C 	0.34020 0.70540 0.56438 0.09300
H 	H 	0.27510 0.65010 0.57227 -0.03700
C 	C 	0.32030 0.75090 0.54615 -0.05000
H 	H 	0.24130 0.72710 0.54257 0.01600
C 	C 	0.51770 0.86170 0.53975 -0.05000
H 	H 	0.58120 0.91440 0.53137 0.02300
C 	C 	0.54530 0.82500 0.55806 0.09100
H 	H 	0.62530 0.85670 0.56187 -0.03100
C 	C 	0.33780 0.10290 0.51051 -0.04100
H 	H 	0.26890 0.04020 0.51647 0.01300
C 	C 	0.35050 0.21750 0.51105 0.07600
H 	H 	0.29450 0.23010 0.51807 -0.02400
C 	C 	0.44720 0.31260 0.50099 -0.34100
C 	C 	0.52680 0.28340 0.49206 0.08300
H 	H 	0.59390 0.34260 0.48517 -0.02800
C 	C 	0.50920 0.16740 0.49314 -0.04500
H 	H 	0.56660 0.15290 0.48707 0.01300
C 	C 	0.55810 0.56530 0.52177 -0.60700
H 	H 	0.50900 0.58010 0.53147 0.18400
H 	H 	0.59920 0.53070 0.52927 0.18400
C 	C 	0.64670 0.67960 0.51061 0.04900
H 	H 	0.71870 0.72390 0.51897 -0.00000
H 	H 	0.61130 0.73010 0.50847 -0.00600
Ag	Ag	0.87559 0.87559 -0.00000 0.49100
Ag	Ag	0.12441 0.00000 0.66667 0.48400
Ag	Ag	-0.00000 0.12441 0.33333 0.48400
Si	Si	0.53440 0.00000 0.16667 0.92200
Si	Si	-0.00000 0.53440 0.83333 0.92200
Si	Si	0.46560 0.46560 0.50000 0.96200
