data_crystal

_cell_length_a 43.98600
_cell_length_b 14.18930
_cell_length_c 26.36170
_cell_angle_alpha 90.00000
_cell_angle_beta  107.28300
_cell_angle_gamma 90.00000

_symmetry_space_group_name_	'P 1'
_symmetry_space_group_name_H-M	'P 1'

loop_
_symmetry_equiv_pos_as_xyz
  x,y,z

loop_
_atom_site_label
_atom_site_type_symbol
_atom_site_fract_x
_atom_site_fract_y
_atom_site_fract_z
_atom_site_charge
O 	O 	0.26000 0.09190 0.72810 0.47500
H 	H 	0.25540 0.06640 0.75370 -0.05100
Ca	Ca	0.13716 0.15554 0.43964 1.50600
Ca	Ca	0.20968 0.30803 0.45716 1.49000
Ca	Ca	0.05499 0.22706 0.34374 1.50200
C 	C 	0.05722 0.44810 0.11353 0.01000
C 	C 	0.07011 0.44130 0.16890 0.09100
C 	C 	0.06039 0.37030 0.19601 -0.05000
H 	H 	0.06970 0.36650 0.23340 0.03200
C 	C 	0.03796 0.30480 0.17162 -0.13400
C 	C 	0.02610 0.30740 0.11740 0.01300
H 	H 	0.01110 0.26170 0.09890 0.01700
C 	C 	0.03645 0.37900 0.09000 -0.09100
H 	H 	0.02840 0.37920 0.05230 0.05600
O 	O 	0.09292 0.50260 0.19529 -0.21400
C 	C 	0.02611 0.23360 0.20301 0.39100
O 	O 	0.04203 0.21670 0.25001 -0.56600
O 	O 	0.00075 0.18910 0.18061 -0.60000
C 	C 	0.06454 0.52860 0.08176 -0.07900
C 	C 	0.09456 0.56730 0.08900 0.22200
C 	C 	0.09925 0.63620 0.05490 -0.13400
H 	H 	0.11990 0.66220 0.06060 0.09000
C 	C 	0.07444 0.66760 0.01273 -0.05000
C 	C 	0.04448 0.63300 0.00700 -0.04100
H 	H 	0.02690 0.65510 0.97900 0.04200
C 	C 	0.03985 0.56670 0.04170 -0.01800
H 	H 	0.01880 0.54600 0.03800 0.03200
O 	O 	0.12028 0.53870 0.12840 -0.40700
H 	H 	0.11490 0.49630 0.14630 0.25900
C 	C 	0.08005 0.74230 0.97478 0.38700
O 	O 	0.05816 0.75450 0.93236 -0.49600
O 	O 	0.10626 0.78320 0.98834 -0.49500
C 	C 	0.10980 0.63730 0.35880 -0.02600
C 	C 	0.09941 0.57020 0.31830 0.20000
C 	C 	0.10640 0.47490 0.33040 -0.11300
H 	H 	0.09890 0.42910 0.30330 0.05300
C 	C 	0.12369 0.44590 0.38024 -0.12000
C 	C 	0.13577 0.51300 0.41950 -0.00100
H 	H 	0.14920 0.49440 0.45330 -0.00300
C 	C 	0.12814 0.60680 0.40910 -0.06300
H 	H 	0.13550 0.65170 0.43670 0.04400
O 	O 	0.08397 0.59640 0.26900 -0.36500
H 	H 	0.07960 0.54860 0.24940 0.24600
C 	C 	0.12892 0.34330 0.39246 0.40800
O 	O 	0.15356 0.31722 0.42710 -0.61200
O 	O 	0.10780 0.28545 0.36810 -0.55800
C 	C 	0.10074 0.73970 0.35040 0.01400
C 	C 	0.07029 0.76980 0.32360 0.14200
C 	C 	0.06206 0.86350 0.32400 -0.05900
H 	H 	0.04070 0.88230 0.30720 0.00200
C 	C 	0.08454 0.93100 0.34864 -0.14700
C 	C 	0.11540 0.90300 0.37210 0.04700
H 	H 	0.13130 0.94860 0.38730 -0.00000
C 	C 	0.12352 0.80800 0.37360 -0.07600
H 	H 	0.14490 0.78940 0.39060 0.07500
O 	O 	0.04704 0.70800 0.29520 -0.34200
H 	H 	0.03020 0.73790 0.28090 0.19300
C 	C 	0.07495 0.03130 0.34748 0.42500
O 	O 	0.09385 0.09165 0.37473 -0.58800
O 	O 	0.04699 0.05577 0.32040 -0.60800
C 	C 	0.20488 0.06290 0.68850 -0.90900
C 	C 	0.23286 0.09430 0.68360 0.92300
C 	C 	0.23510 0.13400 0.63710 -0.72000
H 	H 	0.25510 0.15510 0.63470 0.23400
C 	C 	0.20803 0.14310 0.59398 0.39800
C 	C 	0.17882 0.12360 0.60030 -0.86800
H 	H 	0.15990 0.14060 0.57330 0.31300
C 	C 	0.17688 0.07880 0.64620 1.28000
H 	H 	0.15680 0.05900 0.64900 -1.50800
C 	C 	0.20995 0.18100 0.54173 0.23300
O 	O 	0.23622 0.20090 0.53589 -0.57900
O 	O 	0.18458 0.19590 0.50604 -0.55500
C 	C 	0.20202 0.01370 0.73750 0.44600
O 	O 	0.17200 0.15710 0.76310 -2.31000
H 	H 	0.17500 0.18230 0.73610 0.74400
C 	C 	0.18160 0.05510 0.76550 -1.36400
C 	C 	0.17810 0.00270 0.80920 0.70200
H 	H 	0.16370 0.02460 0.82720 -0.16200
C 	C 	0.19506 0.92070 0.82680 -0.33000
C 	C 	0.21301 0.88540 0.79830 -0.10600
H 	H 	0.22340 0.82650 0.80800 0.08600
C 	C 	0.21670 0.93460 0.75420 0.47400
H 	H 	0.23040 0.90920 0.73580 -1.25500
C 	C 	0.18965 0.86750 0.87278 0.49300
O 	O 	0.20575 0.79580 0.88874 -0.54100
O 	O 	0.16918 0.90120 0.89221 -0.52500
H 	H 	0.25150 0.08880 0.71300 -0.71300
O 	O 	0.14590 0.06980 0.65310 1.43500
H 	H 	0.13220 0.09230 0.62650 -0.42000
H 	H 	0.17110 0.11360 0.75520 1.96500
O 	O 	0.23720 0.89000 0.72720 1.42200
H 	H 	0.24470 0.84000 0.74310 -0.41000
O 	O 	0.76000 0.59190 0.72810 0.47500
H 	H 	0.75540 0.56640 0.75370 -0.05100
Ca	Ca	0.63716 0.65554 0.43964 1.50600
Ca	Ca	0.70968 0.80803 0.45716 1.49000
Ca	Ca	0.55499 0.72706 0.34374 1.50200
C 	C 	0.55722 0.94810 0.11353 0.01000
C 	C 	0.57011 0.94130 0.16890 0.09100
C 	C 	0.56039 0.87030 0.19601 -0.05100
H 	H 	0.56970 0.86650 0.23340 0.03200
C 	C 	0.53796 0.80480 0.17162 -0.13300
C 	C 	0.52610 0.80740 0.11740 0.01300
H 	H 	0.51110 0.76170 0.09890 0.01900
C 	C 	0.53645 0.87900 0.09000 -0.09000
H 	H 	0.52840 0.87920 0.05230 0.05700
O 	O 	0.59292 0.00260 0.19529 -0.21400
C 	C 	0.52611 0.73360 0.20301 0.39000
O 	O 	0.54203 0.71670 0.25001 -0.56500
O 	O 	0.50075 0.68910 0.18061 -0.59800
C 	C 	0.56454 0.02860 0.08176 -0.07800
C 	C 	0.59456 0.06730 0.08900 0.22200
C 	C 	0.59925 0.13620 0.05490 -0.13400
H 	H 	0.61990 0.16220 0.06060 0.09000
C 	C 	0.57444 0.16760 0.01273 -0.04900
C 	C 	0.54448 0.13300 0.00700 -0.04000
H 	H 	0.52690 0.15510 0.97900 0.04300
C 	C 	0.53985 0.06670 0.04170 -0.01800
H 	H 	0.51880 0.04600 0.03800 0.03400
O 	O 	0.62028 0.03870 0.12840 -0.40600
H 	H 	0.61490 0.99630 0.14630 0.25900
C 	C 	0.58005 0.24230 0.97478 0.38600
O 	O 	0.55816 0.25450 0.93236 -0.49400
O 	O 	0.60626 0.28320 0.98834 -0.49400
C 	C 	0.60980 0.13730 0.35880 -0.02500
C 	C 	0.59941 0.07020 0.31830 0.20100
C 	C 	0.60640 0.97490 0.33040 -0.11300
H 	H 	0.59890 0.92910 0.30330 0.05400
C 	C 	0.62369 0.94590 0.38024 -0.12100
C 	C 	0.63577 0.01300 0.41950 -0.00000
H 	H 	0.64920 0.99440 0.45330 -0.00300
C 	C 	0.62814 0.10680 0.40910 -0.06300
H 	H 	0.63550 0.15170 0.43670 0.04400
O 	O 	0.58397 0.09640 0.26900 -0.36400
H 	H 	0.57960 0.04860 0.24940 0.24600
C 	C 	0.62892 0.84330 0.39246 0.40800
O 	O 	0.65356 0.81722 0.42710 -0.61300
O 	O 	0.60780 0.78545 0.36810 -0.55800
C 	C 	0.60074 0.23970 0.35040 0.01400
C 	C 	0.57029 0.26980 0.32360 0.14300
C 	C 	0.56206 0.36350 0.32400 -0.05900
H 	H 	0.54070 0.38230 0.30720 0.00300
C 	C 	0.58454 0.43100 0.34864 -0.14700
C 	C 	0.61540 0.40300 0.37210 0.04700
H 	H 	0.63130 0.44860 0.38730 -0.00000
C 	C 	0.62352 0.30800 0.37360 -0.07600
H 	H 	0.64490 0.28940 0.39060 0.07500
O 	O 	0.54704 0.20800 0.29520 -0.34200
H 	H 	0.53020 0.23790 0.28090 0.19400
C 	C 	0.57495 0.53130 0.34748 0.42400
O 	O 	0.59385 0.59165 0.37473 -0.58800
O 	O 	0.54699 0.55577 0.32040 -0.60600
C 	C 	0.70488 0.56290 0.68850 -0.90900
C 	C 	0.73286 0.59430 0.68360 0.92300
C 	C 	0.73510 0.63400 0.63710 -0.72000
H 	H 	0.75510 0.65510 0.63470 0.23400
C 	C 	0.70803 0.64310 0.59398 0.39800
C 	C 	0.67882 0.62360 0.60030 -0.86800
H 	H 	0.65990 0.64060 0.57330 0.31300
C 	C 	0.67688 0.57880 0.64620 1.28000
H 	H 	0.65680 0.55900 0.64900 -1.50700
C 	C 	0.70995 0.68100 0.54173 0.23300
O 	O 	0.73622 0.70090 0.53589 -0.57900
O 	O 	0.68458 0.69590 0.50604 -0.55500
C 	C 	0.70202 0.51370 0.73750 0.44600
O 	O 	0.67200 0.65710 0.76310 -2.31000
H 	H 	0.67500 0.68230 0.73610 0.74400
C 	C 	0.68160 0.55510 0.76550 -1.36400
C 	C 	0.67810 0.50270 0.80920 0.70300
H 	H 	0.66370 0.52460 0.82720 -0.16200
C 	C 	0.69506 0.42070 0.82680 -0.33000
C 	C 	0.71301 0.38540 0.79830 -0.10600
H 	H 	0.72340 0.32650 0.80800 0.08600
C 	C 	0.71670 0.43460 0.75420 0.47400
H 	H 	0.73040 0.40920 0.73580 -1.25500
C 	C 	0.68965 0.36750 0.87278 0.49300
O 	O 	0.70575 0.29580 0.88874 -0.54100
O 	O 	0.66918 0.40120 0.89221 -0.52500
H 	H 	0.75150 0.58880 0.71300 -0.71300
O 	O 	0.64590 0.56980 0.65310 1.43500
H 	H 	0.63220 0.59230 0.62650 -0.42000
H 	H 	0.67110 0.61360 0.75520 1.96600
O 	O 	0.73720 0.39000 0.72720 1.42300
H 	H 	0.74470 0.34000 0.74310 -0.41000
O 	O 	0.74000 0.09190 0.77190 0.47600
H 	H 	0.74460 0.06640 0.74630 -0.05100
Ca	Ca	0.86284 0.15554 0.06036 1.50600
Ca	Ca	0.79032 0.30803 0.04284 1.49000
Ca	Ca	0.94501 0.22706 0.15626 1.50200
C 	C 	0.94278 0.44810 0.38647 0.01000
C 	C 	0.92989 0.44130 0.33110 0.09100
C 	C 	0.93961 0.37030 0.30399 -0.05100
H 	H 	0.93030 0.36650 0.26660 0.03300
C 	C 	0.96204 0.30480 0.32838 -0.13200
C 	C 	0.97390 0.30740 0.38260 0.01400
H 	H 	0.98890 0.26170 0.40110 0.02000
C 	C 	0.96355 0.37900 0.41000 -0.09000
H 	H 	0.97160 0.37920 0.44770 0.05800
O 	O 	0.90708 0.50260 0.30471 -0.21400
C 	C 	0.97389 0.23360 0.29699 0.39000
O 	O 	0.95797 0.21670 0.24999 -0.56400
O 	O 	0.99925 0.18910 0.31939 -0.59500
C 	C 	0.93546 0.52860 0.41824 -0.07800
C 	C 	0.90544 0.56730 0.41100 0.22200
C 	C 	0.90075 0.63620 0.44510 -0.13400
H 	H 	0.88010 0.66220 0.43940 0.09100
C 	C 	0.92556 0.66760 0.48727 -0.04900
C 	C 	0.95552 0.63300 0.49300 -0.04100
H 	H 	0.97310 0.65510 0.52100 0.04500
C 	C 	0.96015 0.56670 0.45830 -0.01700
H 	H 	0.98120 0.54600 0.46200 0.03500
O 	O 	0.87972 0.53870 0.37160 -0.40700
H 	H 	0.88510 0.49630 0.35370 0.25900
C 	C 	0.91995 0.74230 0.52522 0.38600
O 	O 	0.94184 0.75450 0.56764 -0.49300
O 	O 	0.89374 0.78320 0.51166 -0.49400
C 	C 	0.89020 0.63730 0.14120 -0.02500
C 	C 	0.90059 0.57020 0.18170 0.20100
C 	C 	0.89360 0.47490 0.16960 -0.11300
H 	H 	0.90110 0.42910 0.19670 0.05400
C 	C 	0.87631 0.44590 0.11976 -0.12000
C 	C 	0.86423 0.51300 0.08050 -0.00000
H 	H 	0.85080 0.49440 0.04670 -0.00200
C 	C 	0.87186 0.60680 0.09090 -0.06300
H 	H 	0.86450 0.65170 0.06330 0.04400
O 	O 	0.91603 0.59640 0.23100 -0.36400
H 	H 	0.92040 0.54860 0.25060 0.24700
C 	C 	0.87108 0.34330 0.10754 0.40800
O 	O 	0.84644 0.31722 0.07290 -0.61200
O 	O 	0.89220 0.28545 0.13190 -0.55800
C 	C 	0.89926 0.73970 0.14960 0.01400
C 	C 	0.92971 0.76980 0.17640 0.14400
C 	C 	0.93794 0.86350 0.17600 -0.05900
H 	H 	0.95930 0.88230 0.19280 0.00400
C 	C 	0.91546 0.93100 0.15136 -0.14600
C 	C 	0.88460 0.90300 0.12790 0.04600
H 	H 	0.86870 0.94860 0.11270 -0.00000
C 	C 	0.87648 0.80800 0.12640 -0.07600
H 	H 	0.85510 0.78940 0.10940 0.07500
O 	O 	0.95296 0.70800 0.20480 -0.34200
H 	H 	0.96980 0.73790 0.21910 0.19600
C 	C 	0.92505 0.03130 0.15252 0.42400
O 	O 	0.90615 0.09165 0.12527 -0.58700
O 	O 	0.95301 0.05577 0.17960 -0.60500
C 	C 	0.79512 0.06290 0.81150 -0.90900
C 	C 	0.76714 0.09430 0.81640 0.92300
C 	C 	0.76490 0.13400 0.86290 -0.72000
H 	H 	0.74490 0.15510 0.86530 0.23400
C 	C 	0.79197 0.14310 0.90602 0.39800
C 	C 	0.82118 0.12360 0.89970 -0.86700
H 	H 	0.84010 0.14060 0.92670 0.31300
C 	C 	0.82312 0.07880 0.85380 1.28000
H 	H 	0.84320 0.05900 0.85100 -1.50700
C 	C 	0.79005 0.18100 0.95827 0.23300
O 	O 	0.76378 0.20090 0.96411 -0.57900
O 	O 	0.81542 0.19590 0.99396 -0.55500
C 	C 	0.79798 0.01370 0.76250 0.44600
O 	O 	0.82800 0.15710 0.73690 -2.31000
H 	H 	0.82500 0.18230 0.76390 0.74400
C 	C 	0.81840 0.05510 0.73450 -1.36400
C 	C 	0.82190 0.00270 0.69080 0.70300
H 	H 	0.83630 0.02460 0.67280 -0.16200
C 	C 	0.80494 0.92070 0.67320 -0.33000
C 	C 	0.78699 0.88540 0.70170 -0.10600
H 	H 	0.77660 0.82650 0.69200 0.08600
C 	C 	0.78330 0.93460 0.74580 0.47400
H 	H 	0.76960 0.90920 0.76420 -1.25500
C 	C 	0.81035 0.86750 0.62722 0.49300
O 	O 	0.79425 0.79580 0.61126 -0.54100
O 	O 	0.83082 0.90120 0.60779 -0.52500
H 	H 	0.74850 0.08880 0.78700 -0.71300
O 	O 	0.85410 0.06980 0.84690 1.43500
H 	H 	0.86780 0.09230 0.87350 -0.42000
H 	H 	0.82890 0.11360 0.74480 1.96500
O 	O 	0.76280 0.89000 0.77280 1.42300
H 	H 	0.75530 0.84000 0.75690 -0.41000
O 	O 	0.24000 0.59190 0.77190 0.47500
H 	H 	0.24460 0.56640 0.74630 -0.05100
Ca	Ca	0.36284 0.65554 0.06036 1.50600
Ca	Ca	0.29032 0.80803 0.04284 1.49000
Ca	Ca	0.44501 0.72706 0.15626 1.50200
C 	C 	0.44278 0.94810 0.38647 0.01000
C 	C 	0.42989 0.94130 0.33110 0.09100
C 	C 	0.43961 0.87030 0.30399 -0.05000
H 	H 	0.43030 0.86650 0.26660 0.03200
C 	C 	0.46204 0.80480 0.32838 -0.13300
C 	C 	0.47390 0.80740 0.38260 0.01300
H 	H 	0.48890 0.76170 0.40110 0.01800
C 	C 	0.46355 0.87900 0.41000 -0.09000
H 	H 	0.47160 0.87920 0.44770 0.05700
O 	O 	0.40708 0.00260 0.30471 -0.21400
C 	C 	0.47389 0.73360 0.29699 0.39100
O 	O 	0.45797 0.71670 0.24999 -0.56500
O 	O 	0.49925 0.68910 0.31939 -0.59800
C 	C 	0.43546 0.02860 0.41824 -0.07900
C 	C 	0.40544 0.06730 0.41100 0.22200
C 	C 	0.40075 0.13620 0.44510 -0.13400
H 	H 	0.38010 0.16220 0.43940 0.09000
C 	C 	0.42556 0.16760 0.48727 -0.04900
C 	C 	0.45552 0.13300 0.49300 -0.04100
H 	H 	0.47310 0.15510 0.52100 0.04400
C 	C 	0.46015 0.06670 0.45830 -0.01700
H 	H 	0.48120 0.04600 0.46200 0.03400
O 	O 	0.37972 0.03870 0.37160 -0.40700
H 	H 	0.38510 0.99630 0.35370 0.25900
C 	C 	0.41995 0.24230 0.52522 0.38700
O 	O 	0.44184 0.25450 0.56764 -0.49400
O 	O 	0.39374 0.28320 0.51166 -0.49400
C 	C 	0.39020 0.13730 0.14120 -0.02500
C 	C 	0.40059 0.07020 0.18170 0.20100
C 	C 	0.39360 0.97490 0.16960 -0.11300
H 	H 	0.40110 0.92910 0.19670 0.05300
C 	C 	0.37631 0.94590 0.11976 -0.12100
C 	C 	0.36423 0.01300 0.08050 0.00100
H 	H 	0.35080 0.99440 0.04670 -0.00300
C 	C 	0.37186 0.10680 0.09090 -0.06400
H 	H 	0.36450 0.15170 0.06330 0.04400
O 	O 	0.41603 0.09640 0.23100 -0.36400
H 	H 	0.42040 0.04860 0.25060 0.24600
C 	C 	0.37108 0.84330 0.10754 0.40800
O 	O 	0.34644 0.81722 0.07290 -0.61300
O 	O 	0.39220 0.78545 0.13190 -0.55800
C 	C 	0.39926 0.23970 0.14960 0.01400
C 	C 	0.42971 0.26980 0.17640 0.14300
C 	C 	0.43794 0.36350 0.17600 -0.05900
H 	H 	0.45930 0.38230 0.19280 0.00300
C 	C 	0.41546 0.43100 0.15136 -0.14700
C 	C 	0.38460 0.40300 0.12790 0.04700
H 	H 	0.36870 0.44860 0.11270 -0.00000
C 	C 	0.37648 0.30800 0.12640 -0.07600
H 	H 	0.35510 0.28940 0.10940 0.07500
O 	O 	0.45296 0.20800 0.20480 -0.34200
H 	H 	0.46980 0.23790 0.21910 0.19400
C 	C 	0.42505 0.53130 0.15252 0.42400
O 	O 	0.40615 0.59165 0.12527 -0.58800
O 	O 	0.45301 0.55577 0.17960 -0.60600
C 	C 	0.29512 0.56290 0.81150 -0.90900
C 	C 	0.26714 0.59430 0.81640 0.92300
C 	C 	0.26490 0.63400 0.86290 -0.72000
H 	H 	0.24490 0.65510 0.86530 0.23400
C 	C 	0.29197 0.64310 0.90602 0.39800
C 	C 	0.32118 0.62360 0.89970 -0.86800
H 	H 	0.34010 0.64060 0.92670 0.31300
C 	C 	0.32312 0.57880 0.85380 1.28000
H 	H 	0.34320 0.55900 0.85100 -1.50700
C 	C 	0.29005 0.68100 0.95827 0.23300
O 	O 	0.26378 0.70090 0.96411 -0.57900
O 	O 	0.31542 0.69590 0.99396 -0.55400
C 	C 	0.29798 0.51370 0.76250 0.44600
O 	O 	0.32800 0.65710 0.73690 -2.31000
H 	H 	0.32500 0.68230 0.76390 0.74400
C 	C 	0.31840 0.55510 0.73450 -1.36400
C 	C 	0.32190 0.50270 0.69080 0.70300
H 	H 	0.33630 0.52460 0.67280 -0.16200
C 	C 	0.30494 0.42070 0.67320 -0.33000
C 	C 	0.28699 0.38540 0.70170 -0.10600
H 	H 	0.27660 0.32650 0.69200 0.08600
C 	C 	0.28330 0.43460 0.74580 0.47400
H 	H 	0.26960 0.40920 0.76420 -1.25500
C 	C 	0.31035 0.36750 0.62722 0.49300
O 	O 	0.29425 0.29580 0.61126 -0.54100
O 	O 	0.33082 0.40120 0.60779 -0.52500
H 	H 	0.24850 0.58880 0.78700 -0.71300
O 	O 	0.35410 0.56980 0.84690 1.43500
H 	H 	0.36780 0.59230 0.87350 -0.42000
H 	H 	0.32890 0.61360 0.74480 1.96600
O 	O 	0.26280 0.39000 0.77280 1.42300
H 	H 	0.25530 0.34000 0.75690 -0.41000
O 	O 	0.74000 0.90810 0.27190 0.47600
H 	H 	0.74460 0.93360 0.24630 -0.05100
Ca	Ca	0.86284 0.84446 0.56036 1.50600
Ca	Ca	0.79032 0.69197 0.54284 1.49000
Ca	Ca	0.94501 0.77294 0.65626 1.50200
C 	C 	0.94278 0.55190 0.88647 0.01100
C 	C 	0.92989 0.55870 0.83110 0.09100
C 	C 	0.93961 0.62970 0.80399 -0.05100
H 	H 	0.93030 0.63350 0.76660 0.03300
C 	C 	0.96204 0.69520 0.82838 -0.13200
C 	C 	0.97390 0.69260 0.88260 0.01400
H 	H 	0.98890 0.73830 0.90110 0.02000
C 	C 	0.96355 0.62100 0.91000 -0.09000
H 	H 	0.97160 0.62080 0.94770 0.05800
O 	O 	0.90708 0.49740 0.80471 -0.21400
C 	C 	0.97389 0.76640 0.79699 0.39000
O 	O 	0.95797 0.78330 0.74999 -0.56400
O 	O 	0.99925 0.81090 0.81939 -0.59500
C 	C 	0.93546 0.47140 0.91824 -0.07900
C 	C 	0.90544 0.43270 0.91100 0.22200
C 	C 	0.90075 0.36380 0.94510 -0.13400
H 	H 	0.88010 0.33780 0.93940 0.09100
C 	C 	0.92556 0.33240 0.98727 -0.04900
C 	C 	0.95552 0.36700 0.99300 -0.04200
H 	H 	0.97310 0.34490 0.02100 0.04600
C 	C 	0.96015 0.43330 0.95830 -0.01600
H 	H 	0.98120 0.45400 0.96200 0.03500
O 	O 	0.87972 0.46130 0.87160 -0.40700
H 	H 	0.88510 0.50370 0.85370 0.25900
C 	C 	0.91995 0.25770 0.02522 0.38700
O 	O 	0.94184 0.24550 0.06764 -0.49300
O 	O 	0.89374 0.21680 0.01166 -0.49400
C 	C 	0.89020 0.36270 0.64120 -0.02500
C 	C 	0.90059 0.42980 0.68170 0.20100
C 	C 	0.89360 0.52510 0.66960 -0.11300
H 	H 	0.90110 0.57090 0.69670 0.05400
C 	C 	0.87631 0.55410 0.61976 -0.12000
C 	C 	0.86423 0.48700 0.58050 -0.00000
H 	H 	0.85080 0.50560 0.54670 -0.00300
C 	C 	0.87186 0.39320 0.59090 -0.06300
H 	H 	0.86450 0.34830 0.56330 0.04400
O 	O 	0.91603 0.40360 0.73100 -0.36400
H 	H 	0.92040 0.45140 0.75060 0.24700
C 	C 	0.87108 0.65670 0.60754 0.40800
O 	O 	0.84644 0.68278 0.57290 -0.61200
O 	O 	0.89220 0.71455 0.63190 -0.55800
C 	C 	0.89926 0.26030 0.64960 0.01400
C 	C 	0.92971 0.23020 0.67640 0.14400
C 	C 	0.93794 0.13650 0.67600 -0.05900
H 	H 	0.95930 0.11770 0.69280 0.00400
C 	C 	0.91546 0.06900 0.65136 -0.14600
C 	C 	0.88460 0.09700 0.62790 0.04600
H 	H 	0.86870 0.05140 0.61270 -0.00000
C 	C 	0.87648 0.19200 0.62640 -0.07600
H 	H 	0.85510 0.21060 0.60940 0.07500
O 	O 	0.95296 0.29200 0.70480 -0.34200
H 	H 	0.96980 0.26210 0.71910 0.19600
C 	C 	0.92505 0.96870 0.65252 0.42400
O 	O 	0.90615 0.90835 0.62527 -0.58700
O 	O 	0.95301 0.94423 0.67960 -0.60500
C 	C 	0.79512 0.93710 0.31150 -0.90900
C 	C 	0.76714 0.90570 0.31640 0.92300
C 	C 	0.76490 0.86600 0.36290 -0.72000
H 	H 	0.74490 0.84490 0.36530 0.23400
C 	C 	0.79197 0.85690 0.40602 0.39800
C 	C 	0.82118 0.87640 0.39970 -0.86700
H 	H 	0.84010 0.85940 0.42670 0.31300
C 	C 	0.82312 0.92120 0.35380 1.28000
H 	H 	0.84320 0.94100 0.35100 -1.50700
C 	C 	0.79005 0.81900 0.45827 0.23300
O 	O 	0.76378 0.79910 0.46411 -0.57900
O 	O 	0.81542 0.80410 0.49396 -0.55500
C 	C 	0.79798 0.98630 0.26250 0.44600
O 	O 	0.82800 0.84290 0.23690 -2.31000
H 	H 	0.82500 0.81770 0.26390 0.74400
C 	C 	0.81840 0.94490 0.23450 -1.36400
C 	C 	0.82190 0.99730 0.19080 0.70200
H 	H 	0.83630 0.97540 0.17280 -0.16200
C 	C 	0.80494 0.07930 0.17320 -0.33000
C 	C 	0.78699 0.11460 0.20170 -0.10600
H 	H 	0.77660 0.17350 0.19200 0.08600
C 	C 	0.78330 0.06540 0.24580 0.47400
H 	H 	0.76960 0.09080 0.26420 -1.25500
C 	C 	0.81035 0.13250 0.12722 0.49300
O 	O 	0.79425 0.20420 0.11126 -0.54100
O 	O 	0.83082 0.09880 0.10779 -0.52500
H 	H 	0.74850 0.91120 0.28700 -0.71300
O 	O 	0.85410 0.93020 0.34690 1.43500
H 	H 	0.86780 0.90770 0.37350 -0.42000
H 	H 	0.82890 0.88640 0.24480 1.96500
O 	O 	0.76280 0.11000 0.27280 1.42200
H 	H 	0.75530 0.16000 0.25690 -0.41000
O 	O 	0.24000 0.40810 0.27190 0.47500
H 	H 	0.24460 0.43360 0.24630 -0.05100
Ca	Ca	0.36284 0.34446 0.56036 1.50600
Ca	Ca	0.29032 0.19197 0.54284 1.49000
Ca	Ca	0.44501 0.27294 0.65626 1.50200
C 	C 	0.44278 0.05190 0.88647 0.01000
C 	C 	0.42989 0.05870 0.83110 0.09100
C 	C 	0.43961 0.12970 0.80399 -0.05100
H 	H 	0.43030 0.13350 0.76660 0.03200
C 	C 	0.46204 0.19520 0.82838 -0.13300
C 	C 	0.47390 0.19260 0.88260 0.01300
H 	H 	0.48890 0.23830 0.90110 0.01900
C 	C 	0.46355 0.12100 0.91000 -0.09000
H 	H 	0.47160 0.12080 0.94770 0.05700
O 	O 	0.40708 0.99740 0.80471 -0.21400
C 	C 	0.47389 0.26640 0.79699 0.39000
O 	O 	0.45797 0.28330 0.74999 -0.56500
O 	O 	0.49925 0.31090 0.81939 -0.59800
C 	C 	0.43546 0.97140 0.91824 -0.07800
C 	C 	0.40544 0.93270 0.91100 0.22200
C 	C 	0.40075 0.86380 0.94510 -0.13400
H 	H 	0.38010 0.83780 0.93940 0.09000
C 	C 	0.42556 0.83240 0.98727 -0.04900
C 	C 	0.45552 0.86700 0.99300 -0.04100
H 	H 	0.47310 0.84490 0.02100 0.04400
C 	C 	0.46015 0.93330 0.95830 -0.01700
H 	H 	0.48120 0.95400 0.96200 0.03400
O 	O 	0.37972 0.96130 0.87160 -0.40700
H 	H 	0.38510 0.00370 0.85370 0.25900
C 	C 	0.41995 0.75770 0.02522 0.38700
O 	O 	0.44184 0.74550 0.06764 -0.49400
O 	O 	0.39374 0.71680 0.01166 -0.49400
C 	C 	0.39020 0.86270 0.64120 -0.02500
C 	C 	0.40059 0.92980 0.68170 0.20100
C 	C 	0.39360 0.02510 0.66960 -0.11300
H 	H 	0.40110 0.07090 0.69670 0.05400
C 	C 	0.37631 0.05410 0.61976 -0.12100
C 	C 	0.36423 0.98700 0.58050 -0.00000
H 	H 	0.35080 0.00560 0.54670 -0.00300
C 	C 	0.37186 0.89320 0.59090 -0.06300
H 	H 	0.36450 0.84830 0.56330 0.04400
O 	O 	0.41603 0.90360 0.73100 -0.36400
H 	H 	0.42040 0.95140 0.75060 0.24600
C 	C 	0.37108 0.15670 0.60754 0.40800
O 	O 	0.34644 0.18278 0.57290 -0.61200
O 	O 	0.39220 0.21455 0.63190 -0.55800
C 	C 	0.39926 0.76030 0.64960 0.01400
C 	C 	0.42971 0.73020 0.67640 0.14300
C 	C 	0.43794 0.63650 0.67600 -0.05900
H 	H 	0.45930 0.61770 0.69280 0.00300
C 	C 	0.41546 0.56900 0.65136 -0.14700
C 	C 	0.38460 0.59700 0.62790 0.04700
H 	H 	0.36870 0.55140 0.61270 -0.00000
C 	C 	0.37648 0.69200 0.62640 -0.07600
H 	H 	0.35510 0.71060 0.60940 0.07500
O 	O 	0.45296 0.79200 0.70480 -0.34200
H 	H 	0.46980 0.76210 0.71910 0.19400
C 	C 	0.42505 0.46870 0.65252 0.42400
O 	O 	0.40615 0.40835 0.62527 -0.58800
O 	O 	0.45301 0.44423 0.67960 -0.60600
C 	C 	0.29512 0.43710 0.31150 -0.90900
C 	C 	0.26714 0.40570 0.31640 0.92300
C 	C 	0.26490 0.36600 0.36290 -0.72000
H 	H 	0.24490 0.34490 0.36530 0.23400
C 	C 	0.29197 0.35690 0.40602 0.39800
C 	C 	0.32118 0.37640 0.39970 -0.86800
H 	H 	0.34010 0.35940 0.42670 0.31300
C 	C 	0.32312 0.42120 0.35380 1.28000
H 	H 	0.34320 0.44100 0.35100 -1.50700
C 	C 	0.29005 0.31900 0.45827 0.23300
O 	O 	0.26378 0.29910 0.46411 -0.57900
O 	O 	0.31542 0.30410 0.49396 -0.55500
C 	C 	0.29798 0.48630 0.26250 0.44600
O 	O 	0.32800 0.34290 0.23690 -2.31000
H 	H 	0.32500 0.31770 0.26390 0.74400
C 	C 	0.31840 0.44490 0.23450 -1.36400
C 	C 	0.32190 0.49730 0.19080 0.70300
H 	H 	0.33630 0.47540 0.17280 -0.16200
C 	C 	0.30494 0.57930 0.17320 -0.33000
C 	C 	0.28699 0.61460 0.20170 -0.10600
H 	H 	0.27660 0.67350 0.19200 0.08600
C 	C 	0.28330 0.56540 0.24580 0.47400
H 	H 	0.26960 0.59080 0.26420 -1.25500
C 	C 	0.31035 0.63250 0.12722 0.49300
O 	O 	0.29425 0.70420 0.11126 -0.54100
O 	O 	0.33082 0.59880 0.10779 -0.52500
H 	H 	0.24850 0.41120 0.28700 -0.71300
O 	O 	0.35410 0.43020 0.34690 1.43500
H 	H 	0.36780 0.40770 0.37350 -0.42000
H 	H 	0.32890 0.38640 0.24480 1.96500
O 	O 	0.26280 0.61000 0.27280 1.42300
H 	H 	0.25530 0.66000 0.25690 -0.41000
O 	O 	0.26000 0.90810 0.22810 0.47500
H 	H 	0.25540 0.93360 0.25370 -0.05100
Ca	Ca	0.13716 0.84446 0.93964 1.50600
Ca	Ca	0.20968 0.69197 0.95716 1.49000
Ca	Ca	0.05499 0.77294 0.84374 1.50200
C 	C 	0.05722 0.55190 0.61353 0.01000
C 	C 	0.07011 0.55870 0.66890 0.09100
C 	C 	0.06039 0.62970 0.69601 -0.05000
H 	H 	0.06970 0.63350 0.73340 0.03200
C 	C 	0.03796 0.69520 0.67162 -0.13400
C 	C 	0.02610 0.69260 0.61740 0.01300
H 	H 	0.01110 0.73830 0.59890 0.01700
C 	C 	0.03645 0.62100 0.59000 -0.09100
H 	H 	0.02840 0.62080 0.55230 0.05600
O 	O 	0.09292 0.49740 0.69529 -0.21400
C 	C 	0.02611 0.76640 0.70301 0.39100
O 	O 	0.04203 0.78330 0.75001 -0.56600
O 	O 	0.00075 0.81090 0.68061 -0.60000
C 	C 	0.06454 0.47140 0.58176 -0.07900
C 	C 	0.09456 0.43270 0.58900 0.22200
C 	C 	0.09925 0.36380 0.55490 -0.13400
H 	H 	0.11990 0.33780 0.56060 0.09000
C 	C 	0.07444 0.33240 0.51273 -0.05000
C 	C 	0.04448 0.36700 0.50700 -0.04100
H 	H 	0.02690 0.34490 0.47900 0.04200
C 	C 	0.03985 0.43330 0.54170 -0.01700
H 	H 	0.01880 0.45400 0.53800 0.03200
O 	O 	0.12028 0.46130 0.62840 -0.40700
H 	H 	0.11490 0.50370 0.64630 0.25900
C 	C 	0.08005 0.25770 0.47478 0.38700
O 	O 	0.05816 0.24550 0.43236 -0.49600
O 	O 	0.10626 0.21680 0.48834 -0.49500
C 	C 	0.10980 0.36270 0.85880 -0.02600
C 	C 	0.09941 0.42980 0.81830 0.20000
C 	C 	0.10640 0.52510 0.83040 -0.11300
H 	H 	0.09890 0.57090 0.80330 0.05300
C 	C 	0.12369 0.55410 0.88024 -0.12000
C 	C 	0.13577 0.48700 0.91950 -0.00100
H 	H 	0.14920 0.50560 0.95330 -0.00300
C 	C 	0.12814 0.39320 0.90910 -0.06300
H 	H 	0.13550 0.34830 0.93670 0.04400
O 	O 	0.08397 0.40360 0.76900 -0.36500
H 	H 	0.07960 0.45140 0.74940 0.24600
C 	C 	0.12892 0.65670 0.89246 0.40800
O 	O 	0.15356 0.68278 0.92710 -0.61200
O 	O 	0.10780 0.71455 0.86810 -0.55800
C 	C 	0.10074 0.26030 0.85040 0.01400
C 	C 	0.07029 0.23020 0.82360 0.14200
C 	C 	0.06206 0.13650 0.82400 -0.05900
H 	H 	0.04070 0.11770 0.80720 0.00200
C 	C 	0.08454 0.06900 0.84864 -0.14800
C 	C 	0.11540 0.09700 0.87210 0.04700
H 	H 	0.13130 0.05140 0.88730 -0.00100
C 	C 	0.12352 0.19200 0.87360 -0.07700
H 	H 	0.14490 0.21060 0.89060 0.07500
O 	O 	0.04704 0.29200 0.79520 -0.34200
H 	H 	0.03020 0.26210 0.78090 0.19300
C 	C 	0.07495 0.96870 0.84748 0.42500
O 	O 	0.09385 0.90835 0.87473 -0.58800
O 	O 	0.04699 0.94423 0.82040 -0.60800
C 	C 	0.20488 0.93710 0.18850 -0.90900
C 	C 	0.23286 0.90570 0.18360 0.92300
C 	C 	0.23510 0.86600 0.13710 -0.72000
H 	H 	0.25510 0.84490 0.13470 0.23400
C 	C 	0.20803 0.85690 0.09398 0.39800
C 	C 	0.17882 0.87640 0.10030 -0.86800
H 	H 	0.15990 0.85940 0.07330 0.31300
C 	C 	0.17688 0.92120 0.14620 1.28000
H 	H 	0.15680 0.94100 0.14900 -1.50800
C 	C 	0.20995 0.81900 0.04173 0.23300
O 	O 	0.23622 0.79910 0.03589 -0.57900
O 	O 	0.18458 0.80410 0.00604 -0.55400
C 	C 	0.20202 0.98630 0.23750 0.44600
O 	O 	0.17200 0.84290 0.26310 -2.31000
H 	H 	0.17500 0.81770 0.23610 0.74400
C 	C 	0.18160 0.94490 0.26550 -1.36400
C 	C 	0.17810 0.99730 0.30920 0.70300
H 	H 	0.16370 0.97540 0.32720 -0.16200
C 	C 	0.19506 0.07930 0.32680 -0.33000
C 	C 	0.21301 0.11460 0.29830 -0.10600
H 	H 	0.22340 0.17350 0.30800 0.08600
C 	C 	0.21670 0.06540 0.25420 0.47400
H 	H 	0.23040 0.09080 0.23580 -1.25500
C 	C 	0.18965 0.13250 0.37278 0.49300
O 	O 	0.20575 0.20420 0.38874 -0.54100
O 	O 	0.16918 0.09880 0.39221 -0.52500
H 	H 	0.25150 0.91120 0.21300 -0.71300
O 	O 	0.14590 0.93020 0.15310 1.43500
H 	H 	0.13220 0.90770 0.12650 -0.42000
H 	H 	0.17110 0.88640 0.25520 1.96500
O 	O 	0.23720 0.11000 0.22720 1.42300
H 	H 	0.24470 0.16000 0.24310 -0.41000
O 	O 	0.76000 0.40810 0.22810 0.47500
H 	H 	0.75540 0.43360 0.25370 -0.05100
Ca	Ca	0.63716 0.34446 0.93964 1.50600
Ca	Ca	0.70968 0.19197 0.95716 1.49000
Ca	Ca	0.55499 0.27294 0.84374 1.50200
C 	C 	0.55722 0.05190 0.61353 0.01000
C 	C 	0.57011 0.05870 0.66890 0.09100
C 	C 	0.56039 0.12970 0.69601 -0.05000
H 	H 	0.56970 0.13350 0.73340 0.03200
C 	C 	0.53796 0.19520 0.67162 -0.13300
C 	C 	0.52610 0.19260 0.61740 0.01300
H 	H 	0.51110 0.23830 0.59890 0.01800
C 	C 	0.53645 0.12100 0.59000 -0.09000
H 	H 	0.52840 0.12080 0.55230 0.05700
O 	O 	0.59292 0.99740 0.69529 -0.21400
C 	C 	0.52611 0.26640 0.70301 0.39100
O 	O 	0.54203 0.28330 0.75001 -0.56500
O 	O 	0.50075 0.31090 0.68061 -0.59800
C 	C 	0.56454 0.97140 0.58176 -0.07900
C 	C 	0.59456 0.93270 0.58900 0.22200
C 	C 	0.59925 0.86380 0.55490 -0.13400
H 	H 	0.61990 0.83780 0.56060 0.09000
C 	C 	0.57444 0.83240 0.51273 -0.04900
C 	C 	0.54448 0.86700 0.50700 -0.04100
H 	H 	0.52690 0.84490 0.47900 0.04400
C 	C 	0.53985 0.93330 0.54170 -0.01700
H 	H 	0.51880 0.95400 0.53800 0.03400
O 	O 	0.62028 0.96130 0.62840 -0.40700
H 	H 	0.61490 0.00370 0.64630 0.25900
C 	C 	0.58005 0.75770 0.47478 0.38700
O 	O 	0.55816 0.74550 0.43236 -0.49400
O 	O 	0.60626 0.71680 0.48834 -0.49400
C 	C 	0.60980 0.86270 0.85880 -0.02500
C 	C 	0.59941 0.92980 0.81830 0.20100
C 	C 	0.60640 0.02510 0.83040 -0.11300
H 	H 	0.59890 0.07090 0.80330 0.05300
C 	C 	0.62369 0.05410 0.88024 -0.12100
C 	C 	0.63577 0.98700 0.91950 0.00100
H 	H 	0.64920 0.00560 0.95330 -0.00300
C 	C 	0.62814 0.89320 0.90910 -0.06400
H 	H 	0.63550 0.84830 0.93670 0.04400
O 	O 	0.58397 0.90360 0.76900 -0.36400
H 	H 	0.57960 0.95140 0.74940 0.24600
C 	C 	0.62892 0.15670 0.89246 0.40800
O 	O 	0.65356 0.18278 0.92710 -0.61300
O 	O 	0.60780 0.21455 0.86810 -0.55800
C 	C 	0.60074 0.76030 0.85040 0.01400
C 	C 	0.57029 0.73020 0.82360 0.14300
C 	C 	0.56206 0.63650 0.82400 -0.05900
H 	H 	0.54070 0.61770 0.80720 0.00300
C 	C 	0.58454 0.56900 0.84864 -0.14700
C 	C 	0.61540 0.59700 0.87210 0.04700
H 	H 	0.63130 0.55140 0.88730 -0.00000
C 	C 	0.62352 0.69200 0.87360 -0.07600
H 	H 	0.64490 0.71060 0.89060 0.07500
O 	O 	0.54704 0.79200 0.79520 -0.34200
H 	H 	0.53020 0.76210 0.78090 0.19400
C 	C 	0.57495 0.46870 0.84748 0.42400
O 	O 	0.59385 0.40835 0.87473 -0.58800
O 	O 	0.54699 0.44423 0.82040 -0.60600
C 	C 	0.70488 0.43710 0.18850 -0.90900
C 	C 	0.73286 0.40570 0.18360 0.92300
C 	C 	0.73510 0.36600 0.13710 -0.72000
H 	H 	0.75510 0.34490 0.13470 0.23400
C 	C 	0.70803 0.35690 0.09398 0.39800
C 	C 	0.67882 0.37640 0.10030 -0.86800
H 	H 	0.65990 0.35940 0.07330 0.31300
C 	C 	0.67688 0.42120 0.14620 1.28000
H 	H 	0.65680 0.44100 0.14900 -1.50700
C 	C 	0.70995 0.31900 0.04173 0.23300
O 	O 	0.73622 0.29910 0.03589 -0.57800
O 	O 	0.68458 0.30410 0.00604 -0.55400
C 	C 	0.70202 0.48630 0.23750 0.44600
O 	O 	0.67200 0.34290 0.26310 -2.31000
H 	H 	0.67500 0.31770 0.23610 0.74400
C 	C 	0.68160 0.44490 0.26550 -1.36400
C 	C 	0.67810 0.49730 0.30920 0.70300
H 	H 	0.66370 0.47540 0.32720 -0.16200
C 	C 	0.69506 0.57930 0.32680 -0.33000
C 	C 	0.71301 0.61460 0.29830 -0.10600
H 	H 	0.72340 0.67350 0.30800 0.08600
C 	C 	0.71670 0.56540 0.25420 0.47400
H 	H 	0.73040 0.59080 0.23580 -1.25500
C 	C 	0.68965 0.63250 0.37278 0.49300
O 	O 	0.70575 0.70420 0.38874 -0.54100
O 	O 	0.66918 0.59880 0.39221 -0.52500
H 	H 	0.75150 0.41120 0.21300 -0.71300
O 	O 	0.64590 0.43020 0.15310 1.43500
H 	H 	0.63220 0.40770 0.12650 -0.42000
H 	H 	0.67110 0.38640 0.25520 1.96600
O 	O 	0.73720 0.61000 0.22720 1.42300
H 	H 	0.74470 0.66000 0.24310 -0.41000
Ca	Ca	0.00000 0.07505 0.25000 1.48800
Ca	Ca	0.50000 0.57505 0.25000 1.48800
Ca	Ca	-0.00000 0.92495 0.75000 1.48800
Ca	Ca	0.50000 0.42495 0.75000 1.48800
