data_crystal

_cell_length_a 27.30620
_cell_length_b 19.43470
_cell_length_c 31.17700
_cell_angle_alpha 90.00000
_cell_angle_beta  90.00000
_cell_angle_gamma 90.00000

_symmetry_space_group_name_	'P 1'
_symmetry_space_group_name_H-M	'P 1'

loop_
_symmetry_equiv_pos_as_xyz
  x,y,z

loop_
_atom_site_label
_atom_site_type_symbol
_atom_site_fract_x
_atom_site_fract_y
_atom_site_fract_z
_atom_site_charge
Sr	Sr	0.21153 0.42002 0.17392 1.50200
Sr	Sr	0.29088 0.26572 0.19869 1.51500
Sr	Sr	0.22805 0.09955 0.14948 1.52100
C 	C 	0.32470 0.24240 0.43481 -0.04700
C 	C 	0.37160 0.25080 0.41910 0.20600
C 	C 	0.38030 0.25550 0.37588 -0.13600
H 	H 	0.41300 0.26110 0.36610 0.10500
C 	C 	0.34310 0.25240 0.34616 -0.03300
C 	C 	0.29570 0.24650 0.36110 -0.03700
H 	H 	0.26920 0.24560 0.34140 0.04600
C 	C 	0.28660 0.24170 0.40430 -0.03200
H 	H 	0.25370 0.23790 0.41400 0.04200
O 	O 	0.41126 0.25570 0.44587 -0.36000
H 	H 	0.41470 0.21860 0.45940 0.22000
C 	C 	0.35360 0.25780 0.29877 0.34200
O 	O 	0.39700 0.26758 0.28739 -0.32900
O 	O 	0.31834 0.25170 0.27350 -0.44200
C 	C 	0.31250 0.23520 0.48183 -0.02300
C 	C 	0.32910 0.28000 0.51323 0.17700
C 	C 	0.31270 0.27530 0.55477 -0.11900
H 	H 	0.32350 0.30770 0.57550 0.04900
C 	C 	0.28030 0.22320 0.56669 -0.10300
C 	C 	0.26500 0.17640 0.53600 -0.01100
H 	H 	0.24410 0.13960 0.54400 0.03300
C 	C 	0.27990 0.18300 0.49430 -0.06400
H 	H 	0.26790 0.15170 0.47340 0.04900
O 	O 	0.36201 0.33010 0.50147 -0.37100
H 	H 	0.36880 0.35460 0.52290 0.25700
C 	C 	0.26030 0.22250 0.61111 0.37300
O 	O 	0.25883 0.27764 0.63149 -0.56900
O 	O 	0.24499 0.16679 0.62714 -0.53400
C 	C 	0.42991 0.50490 0.30133 -0.03200
C 	C 	0.41860 0.43700 0.28904 0.18900
C 	C 	0.37924 0.42250 0.26278 -0.11600
H 	H 	0.37340 0.37640 0.25410 0.06300
C 	C 	0.34786 0.47460 0.24884 -0.08300
C 	C 	0.35760 0.54180 0.26182 -0.01000
H 	H 	0.33620 0.57780 0.25320 0.03300
C 	C 	0.39760 0.55670 0.28706 -0.06400
H 	H 	0.40360 0.60310 0.29510 0.05600
O 	O 	0.44862 0.38570 0.30345 -0.39200
H 	H 	0.43690 0.34740 0.29650 0.25800
C 	C 	0.30490 0.45800 0.22114 0.37200
O 	O 	0.29504 0.39542 0.21309 -0.54900
O 	O 	0.27961 0.50701 0.20633 -0.53600
C 	C 	0.47403 0.52280 0.32733 -0.03500
C 	C 	0.46947 0.56400 0.36413 0.18700
C 	C 	0.51179 0.58470 0.38653 -0.11700
H 	H 	0.50830 0.61240 0.41150 0.10100
C 	C 	0.55813 0.56590 0.37321 -0.04100
C 	C 	0.56261 0.52550 0.33669 -0.03200
H 	H 	0.59410 0.51260 0.32670 0.03800
C 	C 	0.52080 0.50380 0.31467 -0.03300
H 	H 	0.52450 0.47510 0.29020 0.06000
O 	O 	0.42390 0.58360 0.37845 -0.38000
H 	H 	0.40230 0.56770 0.36200 0.22900
C 	C 	0.60268 0.59090 0.39778 0.33700
O 	O 	0.64323 0.59364 0.37868 -0.43500
O 	O 	0.59515 0.60880 0.43598 -0.28500
C 	C 	0.47530 0.06720 0.24000 -0.01600
C 	C 	0.44380 0.12060 0.24990 0.19000
C 	C 	0.39840 0.12710 0.22910 -0.10300
H 	H 	0.37740 0.16450 0.23590 0.04900
C 	C 	0.38412 0.07930 0.19880 -0.11200
C 	C 	0.41500 0.02470 0.18790 -0.00300
H 	H 	0.40560 0.99200 0.16680 -0.01000
C 	C 	0.46050 0.01940 0.20900 -0.06600
H 	H 	0.48170 0.98240 0.20190 0.05100
O 	O 	0.45815 0.16460 0.28150 -0.38800
H 	H 	0.44050 0.20000 0.28100 0.26200
C 	C 	0.33436 0.08690 0.17857 0.37700
O 	O 	0.31038 0.14167 0.18598 -0.55800
O 	O 	0.31708 0.03866 0.15683 -0.57400
C 	C 	0.02700 0.25170 0.24430 -0.02600
C 	C 	0.05780 0.30670 0.25440 0.16700
C 	C 	0.10660 0.30480 0.24340 -0.09900
H 	H 	0.12640 0.34410 0.24880 0.04200
C 	C 	0.12790 0.24690 0.22449 -0.09800
C 	C 	0.09697 0.19180 0.21470 0.00000
H 	H 	0.11010 0.15180 0.20140 0.02400
C 	C 	0.04700 0.19480 0.22423 -0.05900
H 	H 	0.02640 0.15720 0.21680 0.05800
O 	O 	0.04000 0.36380 0.27560 -0.37600
H 	H 	0.02470 0.38880 0.25830 0.20000
C 	C 	0.18180 0.24450 0.21503 0.38200
O 	O 	0.20282 0.30267 0.21204 -0.57100
O 	O 	0.20287 0.18869 0.21161 -0.48200
O 	O 	0.22521 0.97809 0.11496 -0.48900
C 	C 	0.18730 0.94680 0.10627 0.26400
H 	H 	0.17280 0.91990 0.12830 -0.08000
N 	N 	0.16502 0.94780 0.06843 -0.09500
C 	C 	0.18490 0.98900 0.03370 -0.26900
H 	H 	0.15880 0.01730 0.02130 0.12300
H 	H 	0.19840 0.95870 0.01160 0.10900
H 	H 	0.21080 0.01890 0.04480 0.09400
C 	C 	0.11810 0.91040 0.06140 -0.28500
H 	H 	0.11150 0.88040 0.08610 0.10400
H 	H 	0.12060 0.88240 0.03540 0.11700
H 	H 	0.09140 0.94360 0.05830 0.12600
Sr	Sr	0.28847 0.07998 0.67392 1.50300
Sr	Sr	0.20912 0.23428 0.69869 1.51600
Sr	Sr	0.27195 0.40045 0.64948 1.52200
C 	C 	0.17530 0.25760 0.93481 -0.04600
C 	C 	0.12840 0.24920 0.91910 0.20700
C 	C 	0.11970 0.24450 0.87588 -0.13500
H 	H 	0.08700 0.23890 0.86610 0.10600
C 	C 	0.15690 0.24760 0.84616 -0.03200
C 	C 	0.20430 0.25350 0.86110 -0.03600
H 	H 	0.23080 0.25440 0.84140 0.04700
C 	C 	0.21340 0.25830 0.90430 -0.03100
H 	H 	0.24630 0.26210 0.91400 0.04300
O 	O 	0.08874 0.24430 0.94587 -0.36000
H 	H 	0.08530 0.28140 0.95940 0.22100
C 	C 	0.14640 0.24220 0.79877 0.34200
O 	O 	0.10300 0.23242 0.78739 -0.32900
O 	O 	0.18166 0.24830 0.77350 -0.44200
C 	C 	0.18750 0.26480 0.98183 -0.02300
C 	C 	0.17090 0.22000 0.01323 0.17700
C 	C 	0.18730 0.22470 0.05477 -0.12000
H 	H 	0.17650 0.19230 0.07550 0.04900
C 	C 	0.21970 0.27680 0.06669 -0.10300
C 	C 	0.23500 0.32360 0.03600 -0.01100
H 	H 	0.25590 0.36040 0.04400 0.03300
C 	C 	0.22010 0.31700 0.99430 -0.06500
H 	H 	0.23210 0.34830 0.97340 0.04900
O 	O 	0.13799 0.16990 0.00147 -0.37100
H 	H 	0.13120 0.14540 0.02290 0.25700
C 	C 	0.23970 0.27750 0.11111 0.37300
O 	O 	0.24117 0.22236 0.13149 -0.56900
O 	O 	0.25501 0.33321 0.12714 -0.53400
C 	C 	0.07009 0.99510 0.80133 -0.03100
C 	C 	0.08140 0.06300 0.78904 0.18900
C 	C 	0.12076 0.07750 0.76278 -0.11600
H 	H 	0.12660 0.12360 0.75410 0.06300
C 	C 	0.15214 0.02540 0.74884 -0.08400
C 	C 	0.14240 0.95820 0.76182 -0.01000
H 	H 	0.16380 0.92220 0.75320 0.03300
C 	C 	0.10240 0.94330 0.78706 -0.06500
H 	H 	0.09640 0.89690 0.79510 0.05600
O 	O 	0.05138 0.11430 0.80345 -0.39200
H 	H 	0.06310 0.15260 0.79650 0.25800
C 	C 	0.19510 0.04200 0.72114 0.37200
O 	O 	0.20496 0.10458 0.71309 -0.54900
O 	O 	0.22039 0.99299 0.70633 -0.53600
C 	C 	0.02597 0.97720 0.82733 -0.03600
C 	C 	0.03053 0.93600 0.86413 0.18800
C 	C 	0.98821 0.91530 0.88653 -0.11700
H 	H 	0.99170 0.88760 0.91150 0.10100
C 	C 	0.94187 0.93410 0.87321 -0.04100
C 	C 	0.93739 0.97450 0.83669 -0.03200
H 	H 	0.90590 0.98740 0.82670 0.03800
C 	C 	0.97920 0.99620 0.81467 -0.03300
H 	H 	0.97550 0.02490 0.79020 0.06000
O 	O 	0.07610 0.91640 0.87845 -0.38000
H 	H 	0.09770 0.93230 0.86200 0.22900
C 	C 	0.89732 0.90910 0.89778 0.33700
O 	O 	0.85677 0.90636 0.87868 -0.43500
O 	O 	0.90485 0.89120 0.93598 -0.28500
C 	C 	0.02470 0.43280 0.74000 -0.01600
C 	C 	0.05620 0.37940 0.74990 0.19000
C 	C 	0.10160 0.37290 0.72910 -0.10300
H 	H 	0.12260 0.33550 0.73590 0.04900
C 	C 	0.11588 0.42070 0.69880 -0.11200
C 	C 	0.08500 0.47530 0.68790 -0.00400
H 	H 	0.09440 0.50800 0.66680 -0.01000
C 	C 	0.03950 0.48060 0.70900 -0.06600
H 	H 	0.01830 0.51760 0.70190 0.05200
O 	O 	0.04185 0.33540 0.78150 -0.38800
H 	H 	0.05950 0.30000 0.78100 0.26200
C 	C 	0.16564 0.41310 0.67857 0.37700
O 	O 	0.18962 0.35833 0.68598 -0.55800
O 	O 	0.18292 0.46134 0.65683 -0.57400
C 	C 	0.47300 0.24830 0.74430 -0.02600
C 	C 	0.44220 0.19330 0.75440 0.16700
C 	C 	0.39340 0.19520 0.74340 -0.09900
H 	H 	0.37360 0.15590 0.74880 0.04200
C 	C 	0.37210 0.25310 0.72449 -0.09800
C 	C 	0.40303 0.30820 0.71470 0.00000
H 	H 	0.38990 0.34820 0.70140 0.02400
C 	C 	0.45300 0.30520 0.72423 -0.05900
H 	H 	0.47360 0.34280 0.71680 0.05800
O 	O 	0.46000 0.13620 0.77560 -0.37600
H 	H 	0.47530 0.11120 0.75830 0.20000
C 	C 	0.31820 0.25550 0.71503 0.38200
O 	O 	0.29718 0.19733 0.71204 -0.57100
O 	O 	0.29713 0.31131 0.71161 -0.48200
O 	O 	0.27479 0.52191 0.61496 -0.48900
C 	C 	0.31270 0.55320 0.60627 0.26400
H 	H 	0.32720 0.58010 0.62830 -0.08000
N 	N 	0.33498 0.55220 0.56843 -0.09500
C 	C 	0.31510 0.51100 0.53370 -0.26700
H 	H 	0.34120 0.48270 0.52130 0.12200
H 	H 	0.30160 0.54130 0.51160 0.10900
H 	H 	0.28920 0.48110 0.54480 0.09300
C 	C 	0.38190 0.58960 0.56140 -0.28500
H 	H 	0.38850 0.61960 0.58610 0.10400
H 	H 	0.37940 0.61760 0.53540 0.11700
H 	H 	0.40860 0.55640 0.55830 0.12700
Sr	Sr	0.78847 0.42002 0.32608 1.50300
Sr	Sr	0.70912 0.26572 0.30131 1.51600
Sr	Sr	0.77195 0.09955 0.35052 1.52200
C 	C 	0.67530 0.24240 0.06519 -0.04600
C 	C 	0.62840 0.25080 0.08090 0.20700
C 	C 	0.61970 0.25550 0.12412 -0.13500
H 	H 	0.58700 0.26110 0.13390 0.10600
C 	C 	0.65690 0.25240 0.15384 -0.03200
C 	C 	0.70430 0.24650 0.13890 -0.03600
H 	H 	0.73080 0.24560 0.15860 0.04700
C 	C 	0.71340 0.24170 0.09570 -0.03100
H 	H 	0.74630 0.23790 0.08600 0.04300
O 	O 	0.58874 0.25570 0.05413 -0.35900
H 	H 	0.58530 0.21860 0.04060 0.22100
C 	C 	0.64640 0.25780 0.20123 0.34200
O 	O 	0.60300 0.26758 0.21261 -0.32900
O 	O 	0.68166 0.25170 0.22650 -0.44200
C 	C 	0.68750 0.23520 0.01817 -0.02300
C 	C 	0.67090 0.28000 0.98677 0.17700
C 	C 	0.68730 0.27530 0.94523 -0.12000
H 	H 	0.67650 0.30770 0.92450 0.04900
C 	C 	0.71970 0.22320 0.93331 -0.10300
C 	C 	0.73500 0.17640 0.96400 -0.01200
H 	H 	0.75590 0.13960 0.95600 0.03300
C 	C 	0.72010 0.18300 0.00570 -0.06400
H 	H 	0.73210 0.15170 0.02660 0.04900
O 	O 	0.63799 0.33010 0.99853 -0.37100
H 	H 	0.63120 0.35460 0.97710 0.25700
C 	C 	0.73970 0.22250 0.88889 0.37300
O 	O 	0.74117 0.27764 0.86851 -0.56900
O 	O 	0.75501 0.16679 0.87286 -0.53400
C 	C 	0.57009 0.50490 0.19867 -0.03200
C 	C 	0.58140 0.43700 0.21096 0.18900
C 	C 	0.62076 0.42250 0.23722 -0.11600
H 	H 	0.62660 0.37640 0.24590 0.06300
C 	C 	0.65214 0.47460 0.25116 -0.08300
C 	C 	0.64240 0.54180 0.23818 -0.01000
H 	H 	0.66380 0.57780 0.24680 0.03300
C 	C 	0.60240 0.55670 0.21294 -0.06400
H 	H 	0.59640 0.60310 0.20490 0.05600
O 	O 	0.55138 0.38570 0.19655 -0.39200
H 	H 	0.56310 0.34740 0.20350 0.25800
C 	C 	0.69510 0.45800 0.27886 0.37200
O 	O 	0.70496 0.39542 0.28691 -0.54900
O 	O 	0.72039 0.50701 0.29367 -0.53600
C 	C 	0.52597 0.52280 0.17267 -0.03500
C 	C 	0.53053 0.56400 0.13587 0.18700
C 	C 	0.48821 0.58470 0.11347 -0.11700
H 	H 	0.49170 0.61240 0.08850 0.10100
C 	C 	0.44187 0.56590 0.12679 -0.04100
C 	C 	0.43739 0.52550 0.16331 -0.03200
H 	H 	0.40590 0.51260 0.17330 0.03800
C 	C 	0.47920 0.50380 0.18533 -0.03300
H 	H 	0.47550 0.47510 0.20980 0.06000
O 	O 	0.57610 0.58360 0.12155 -0.38000
H 	H 	0.59770 0.56770 0.13800 0.22900
C 	C 	0.39732 0.59090 0.10222 0.33700
O 	O 	0.35677 0.59364 0.12132 -0.43500
O 	O 	0.40485 0.60880 0.06402 -0.28500
C 	C 	0.52470 0.06720 0.26000 -0.01600
C 	C 	0.55620 0.12060 0.25010 0.19000
C 	C 	0.60160 0.12710 0.27090 -0.10300
H 	H 	0.62260 0.16450 0.26410 0.04900
C 	C 	0.61588 0.07930 0.30120 -0.11200
C 	C 	0.58500 0.02470 0.31210 -0.00400
H 	H 	0.59440 0.99200 0.33320 -0.01000
C 	C 	0.53950 0.01940 0.29100 -0.06600
H 	H 	0.51830 0.98240 0.29810 0.05100
O 	O 	0.54185 0.16460 0.21850 -0.38800
H 	H 	0.55950 0.20000 0.21900 0.26200
C 	C 	0.66564 0.08690 0.32143 0.37700
O 	O 	0.68962 0.14167 0.31402 -0.55800
O 	O 	0.68292 0.03866 0.34317 -0.57400
C 	C 	0.97300 0.25170 0.25570 -0.02600
C 	C 	0.94220 0.30670 0.24560 0.16700
C 	C 	0.89340 0.30480 0.25660 -0.09900
H 	H 	0.87360 0.34410 0.25120 0.04200
C 	C 	0.87210 0.24690 0.27551 -0.09800
C 	C 	0.90303 0.19180 0.28530 0.00000
H 	H 	0.88990 0.15180 0.29860 0.02400
C 	C 	0.95300 0.19480 0.27577 -0.05900
H 	H 	0.97360 0.15720 0.28320 0.05800
O 	O 	0.96000 0.36380 0.22440 -0.37600
H 	H 	0.97530 0.38880 0.24170 0.20000
C 	C 	0.81820 0.24450 0.28497 0.38200
O 	O 	0.79718 0.30267 0.28796 -0.57100
O 	O 	0.79713 0.18869 0.28839 -0.48200
O 	O 	0.77479 0.97809 0.38504 -0.48900
C 	C 	0.81270 0.94680 0.39373 0.26400
H 	H 	0.82720 0.91990 0.37170 -0.08000
N 	N 	0.83498 0.94780 0.43157 -0.09500
C 	C 	0.81510 0.98900 0.46630 -0.26700
H 	H 	0.84120 0.01730 0.47870 0.12200
H 	H 	0.80160 0.95870 0.48840 0.10900
H 	H 	0.78920 0.01890 0.45520 0.09300
C 	C 	0.88190 0.91040 0.43860 -0.28500
H 	H 	0.88850 0.88040 0.41390 0.10400
H 	H 	0.87940 0.88240 0.46460 0.11700
H 	H 	0.90860 0.94360 0.44170 0.12600
Sr	Sr	0.71153 0.07998 0.82608 1.50300
Sr	Sr	0.79088 0.23428 0.80131 1.51600
Sr	Sr	0.72805 0.40045 0.85052 1.52200
C 	C 	0.82470 0.25760 0.56519 -0.04600
C 	C 	0.87160 0.24920 0.58090 0.20700
C 	C 	0.88030 0.24450 0.62412 -0.13500
H 	H 	0.91300 0.23890 0.63390 0.10600
C 	C 	0.84310 0.24760 0.65384 -0.03200
C 	C 	0.79570 0.25350 0.63890 -0.03600
H 	H 	0.76920 0.25440 0.65860 0.04700
C 	C 	0.78660 0.25830 0.59570 -0.03100
H 	H 	0.75370 0.26210 0.58600 0.04300
O 	O 	0.91126 0.24430 0.55413 -0.36000
H 	H 	0.91470 0.28140 0.54060 0.22100
C 	C 	0.85360 0.24220 0.70123 0.34200
O 	O 	0.89700 0.23242 0.71261 -0.32900
O 	O 	0.81834 0.24830 0.72650 -0.44200
C 	C 	0.81250 0.26480 0.51817 -0.02300
C 	C 	0.82910 0.22000 0.48677 0.17700
C 	C 	0.81270 0.22470 0.44523 -0.12000
H 	H 	0.82350 0.19230 0.42450 0.04900
C 	C 	0.78030 0.27680 0.43331 -0.10300
C 	C 	0.76500 0.32360 0.46400 -0.01100
H 	H 	0.74410 0.36040 0.45600 0.03300
C 	C 	0.77990 0.31700 0.50570 -0.06400
H 	H 	0.76790 0.34830 0.52660 0.04900
O 	O 	0.86201 0.16990 0.49853 -0.37100
H 	H 	0.86880 0.14540 0.47710 0.25700
C 	C 	0.76030 0.27750 0.38889 0.37300
O 	O 	0.75883 0.22236 0.36851 -0.56900
O 	O 	0.74499 0.33321 0.37286 -0.53400
C 	C 	0.92991 0.99510 0.69867 -0.03100
C 	C 	0.91860 0.06300 0.71096 0.18900
C 	C 	0.87924 0.07750 0.73722 -0.11600
H 	H 	0.87340 0.12360 0.74590 0.06300
C 	C 	0.84786 0.02540 0.75116 -0.08400
C 	C 	0.85760 0.95820 0.73818 -0.01000
H 	H 	0.83620 0.92220 0.74680 0.03300
C 	C 	0.89760 0.94330 0.71294 -0.06500
H 	H 	0.90360 0.89690 0.70490 0.05600
O 	O 	0.94862 0.11430 0.69655 -0.39200
H 	H 	0.93690 0.15260 0.70350 0.25800
C 	C 	0.80490 0.04200 0.77886 0.37200
O 	O 	0.79504 0.10458 0.78691 -0.54900
O 	O 	0.77961 0.99299 0.79367 -0.53600
C 	C 	0.97403 0.97720 0.67267 -0.03600
C 	C 	0.96947 0.93600 0.63587 0.18800
C 	C 	0.01179 0.91530 0.61347 -0.11700
H 	H 	0.00830 0.88760 0.58850 0.10100
C 	C 	0.05813 0.93410 0.62679 -0.04100
C 	C 	0.06261 0.97450 0.66331 -0.03200
H 	H 	0.09410 0.98740 0.67330 0.03800
C 	C 	0.02080 0.99620 0.68533 -0.03300
H 	H 	0.02450 0.02490 0.70980 0.06000
O 	O 	0.92390 0.91640 0.62155 -0.38000
H 	H 	0.90230 0.93230 0.63800 0.22900
C 	C 	0.10268 0.90910 0.60222 0.33700
O 	O 	0.14323 0.90636 0.62132 -0.43500
O 	O 	0.09515 0.89120 0.56402 -0.28500
C 	C 	0.97530 0.43280 0.76000 -0.01600
C 	C 	0.94380 0.37940 0.75010 0.19000
C 	C 	0.89840 0.37290 0.77090 -0.10300
H 	H 	0.87740 0.33550 0.76410 0.04900
C 	C 	0.88412 0.42070 0.80120 -0.11200
C 	C 	0.91500 0.47530 0.81210 -0.00400
H 	H 	0.90560 0.50800 0.83320 -0.01000
C 	C 	0.96050 0.48060 0.79100 -0.06600
H 	H 	0.98170 0.51760 0.79810 0.05100
O 	O 	0.95815 0.33540 0.71850 -0.38800
H 	H 	0.94050 0.30000 0.71900 0.26200
C 	C 	0.83436 0.41310 0.82143 0.37700
O 	O 	0.81038 0.35833 0.81402 -0.55800
O 	O 	0.81708 0.46134 0.84317 -0.57400
C 	C 	0.52700 0.24830 0.75570 -0.02600
C 	C 	0.55780 0.19330 0.74560 0.16700
C 	C 	0.60660 0.19520 0.75660 -0.09900
H 	H 	0.62640 0.15590 0.75120 0.04200
C 	C 	0.62790 0.25310 0.77551 -0.09800
C 	C 	0.59697 0.30820 0.78530 0.00000
H 	H 	0.61010 0.34820 0.79860 0.02400
C 	C 	0.54700 0.30520 0.77577 -0.05900
H 	H 	0.52640 0.34280 0.78320 0.05800
O 	O 	0.54000 0.13620 0.72440 -0.37600
H 	H 	0.52470 0.11120 0.74170 0.20000
C 	C 	0.68180 0.25550 0.78497 0.38200
O 	O 	0.70282 0.19733 0.78796 -0.57100
O 	O 	0.70287 0.31131 0.78839 -0.48200
O 	O 	0.72521 0.52191 0.88504 -0.48900
C 	C 	0.68730 0.55320 0.89373 0.26400
H 	H 	0.67280 0.58010 0.87170 -0.08000
N 	N 	0.66502 0.55220 0.93157 -0.09600
C 	C 	0.68490 0.51100 0.96630 -0.26600
H 	H 	0.65880 0.48270 0.97870 0.12200
H 	H 	0.69840 0.54130 0.98840 0.10900
H 	H 	0.71080 0.48110 0.95520 0.09300
C 	C 	0.61810 0.58960 0.93860 -0.28500
H 	H 	0.61150 0.61960 0.91390 0.10400
H 	H 	0.62060 0.61760 0.96460 0.11700
H 	H 	0.59140 0.55640 0.94170 0.12700
Sr	Sr	0.78847 0.57998 0.82608 1.50300
Sr	Sr	0.70912 0.73428 0.80131 1.51600
Sr	Sr	0.77195 0.90045 0.85052 1.52200
C 	C 	0.67530 0.75760 0.56519 -0.04600
C 	C 	0.62840 0.74920 0.58090 0.20700
C 	C 	0.61970 0.74450 0.62412 -0.13500
H 	H 	0.58700 0.73890 0.63390 0.10600
C 	C 	0.65690 0.74760 0.65384 -0.03200
C 	C 	0.70430 0.75350 0.63890 -0.03600
H 	H 	0.73080 0.75440 0.65860 0.04700
C 	C 	0.71340 0.75830 0.59570 -0.03100
H 	H 	0.74630 0.76210 0.58600 0.04300
O 	O 	0.58874 0.74430 0.55413 -0.35900
H 	H 	0.58530 0.78140 0.54060 0.22100
C 	C 	0.64640 0.74220 0.70123 0.34200
O 	O 	0.60300 0.73242 0.71261 -0.32900
O 	O 	0.68166 0.74830 0.72650 -0.44200
C 	C 	0.68750 0.76480 0.51817 -0.02300
C 	C 	0.67090 0.72000 0.48677 0.17700
C 	C 	0.68730 0.72470 0.44523 -0.11900
H 	H 	0.67650 0.69230 0.42450 0.04900
C 	C 	0.71970 0.77680 0.43331 -0.10300
C 	C 	0.73500 0.82360 0.46400 -0.01100
H 	H 	0.75590 0.86040 0.45600 0.03300
C 	C 	0.72010 0.81700 0.50570 -0.06400
H 	H 	0.73210 0.84830 0.52660 0.04900
O 	O 	0.63799 0.66990 0.49853 -0.37100
H 	H 	0.63120 0.64540 0.47710 0.25700
C 	C 	0.73970 0.77750 0.38889 0.37300
O 	O 	0.74117 0.72236 0.36851 -0.56900
O 	O 	0.75501 0.83321 0.37286 -0.53400
C 	C 	0.57009 0.49510 0.69867 -0.03200
C 	C 	0.58140 0.56300 0.71096 0.18900
C 	C 	0.62076 0.57750 0.73722 -0.11600
H 	H 	0.62660 0.62360 0.74590 0.06300
C 	C 	0.65214 0.52540 0.75116 -0.08300
C 	C 	0.64240 0.45820 0.73818 -0.01000
H 	H 	0.66380 0.42220 0.74680 0.03300
C 	C 	0.60240 0.44330 0.71294 -0.06400
H 	H 	0.59640 0.39690 0.70490 0.05600
O 	O 	0.55138 0.61430 0.69655 -0.39200
H 	H 	0.56310 0.65260 0.70350 0.25800
C 	C 	0.69510 0.54200 0.77886 0.37200
O 	O 	0.70496 0.60458 0.78691 -0.54900
O 	O 	0.72039 0.49299 0.79367 -0.53600
C 	C 	0.52597 0.47720 0.67267 -0.03500
C 	C 	0.53053 0.43600 0.63587 0.18700
C 	C 	0.48821 0.41530 0.61347 -0.11700
H 	H 	0.49170 0.38760 0.58850 0.10100
C 	C 	0.44187 0.43410 0.62679 -0.04100
C 	C 	0.43739 0.47450 0.66331 -0.03200
H 	H 	0.40590 0.48740 0.67330 0.03800
C 	C 	0.47920 0.49620 0.68533 -0.03300
H 	H 	0.47550 0.52490 0.70980 0.06000
O 	O 	0.57610 0.41640 0.62155 -0.38000
H 	H 	0.59770 0.43230 0.63800 0.22900
C 	C 	0.39732 0.40910 0.60222 0.33700
O 	O 	0.35677 0.40636 0.62132 -0.43500
O 	O 	0.40485 0.39120 0.56402 -0.28500
C 	C 	0.52470 0.93280 0.76000 -0.01600
C 	C 	0.55620 0.87940 0.75010 0.19000
C 	C 	0.60160 0.87290 0.77090 -0.10300
H 	H 	0.62260 0.83550 0.76410 0.04900
C 	C 	0.61588 0.92070 0.80120 -0.11200
C 	C 	0.58500 0.97530 0.81210 -0.00300
H 	H 	0.59440 0.00800 0.83320 -0.01000
C 	C 	0.53950 0.98060 0.79100 -0.06600
H 	H 	0.51830 0.01760 0.79810 0.05100
O 	O 	0.54185 0.83540 0.71850 -0.38800
H 	H 	0.55950 0.80000 0.71900 0.26200
C 	C 	0.66564 0.91310 0.82143 0.37700
O 	O 	0.68962 0.85833 0.81402 -0.55800
O 	O 	0.68292 0.96134 0.84317 -0.57400
C 	C 	0.97300 0.74830 0.75570 -0.02600
C 	C 	0.94220 0.69330 0.74560 0.16700
C 	C 	0.89340 0.69520 0.75660 -0.09900
H 	H 	0.87360 0.65590 0.75120 0.04200
C 	C 	0.87210 0.75310 0.77551 -0.09800
C 	C 	0.90303 0.80820 0.78530 0.00000
H 	H 	0.88990 0.84820 0.79860 0.02400
C 	C 	0.95300 0.80520 0.77577 -0.05900
H 	H 	0.97360 0.84280 0.78320 0.05800
O 	O 	0.96000 0.63620 0.72440 -0.37600
H 	H 	0.97530 0.61120 0.74170 0.20000
C 	C 	0.81820 0.75550 0.78497 0.38200
O 	O 	0.79718 0.69733 0.78796 -0.57100
O 	O 	0.79713 0.81131 0.78839 -0.48200
O 	O 	0.77479 0.02191 0.88504 -0.48900
C 	C 	0.81270 0.05320 0.89373 0.26400
H 	H 	0.82720 0.08010 0.87170 -0.08000
N 	N 	0.83498 0.05220 0.93157 -0.09500
C 	C 	0.81510 0.01100 0.96630 -0.26900
H 	H 	0.84120 0.98270 0.97870 0.12300
H 	H 	0.80160 0.04130 0.98840 0.10900
H 	H 	0.78920 0.98110 0.95520 0.09400
C 	C 	0.88190 0.08960 0.93860 -0.28500
H 	H 	0.88850 0.11960 0.91390 0.10400
H 	H 	0.87940 0.11760 0.96460 0.11700
H 	H 	0.90860 0.05640 0.94170 0.12600
Sr	Sr	0.71153 0.92002 0.32608 1.50300
Sr	Sr	0.79088 0.76572 0.30131 1.51600
Sr	Sr	0.72805 0.59955 0.35052 1.52200
C 	C 	0.82470 0.74240 0.06519 -0.04600
C 	C 	0.87160 0.75080 0.08090 0.20700
C 	C 	0.88030 0.75550 0.12412 -0.13500
H 	H 	0.91300 0.76110 0.13390 0.10600
C 	C 	0.84310 0.75240 0.15384 -0.03200
C 	C 	0.79570 0.74650 0.13890 -0.03600
H 	H 	0.76920 0.74560 0.15860 0.04700
C 	C 	0.78660 0.74170 0.09570 -0.03100
H 	H 	0.75370 0.73790 0.08600 0.04300
O 	O 	0.91126 0.75570 0.05413 -0.36000
H 	H 	0.91470 0.71860 0.04060 0.22100
C 	C 	0.85360 0.75780 0.20123 0.34200
O 	O 	0.89700 0.76758 0.21261 -0.32900
O 	O 	0.81834 0.75170 0.22650 -0.44200
C 	C 	0.81250 0.73520 0.01817 -0.02300
C 	C 	0.82910 0.78000 0.98677 0.17700
C 	C 	0.81270 0.77530 0.94523 -0.12000
H 	H 	0.82350 0.80770 0.92450 0.04900
C 	C 	0.78030 0.72320 0.93331 -0.10300
C 	C 	0.76500 0.67640 0.96400 -0.01100
H 	H 	0.74410 0.63960 0.95600 0.03300
C 	C 	0.77990 0.68300 0.00570 -0.06500
H 	H 	0.76790 0.65170 0.02660 0.04900
O 	O 	0.86201 0.83010 0.99853 -0.37100
H 	H 	0.86880 0.85460 0.97710 0.25700
C 	C 	0.76030 0.72250 0.88889 0.37300
O 	O 	0.75883 0.77764 0.86851 -0.56900
O 	O 	0.74499 0.66679 0.87286 -0.53400
C 	C 	0.92991 0.00490 0.19867 -0.03100
C 	C 	0.91860 0.93700 0.21096 0.18900
C 	C 	0.87924 0.92250 0.23722 -0.11600
H 	H 	0.87340 0.87640 0.24590 0.06300
C 	C 	0.84786 0.97460 0.25116 -0.08400
C 	C 	0.85760 0.04180 0.23818 -0.01000
H 	H 	0.83620 0.07780 0.24680 0.03300
C 	C 	0.89760 0.05670 0.21294 -0.06500
H 	H 	0.90360 0.10310 0.20490 0.05600
O 	O 	0.94862 0.88570 0.19655 -0.39200
H 	H 	0.93690 0.84740 0.20350 0.25800
C 	C 	0.80490 0.95800 0.27886 0.37200
O 	O 	0.79504 0.89542 0.28691 -0.54900
O 	O 	0.77961 0.00701 0.29367 -0.53600
C 	C 	0.97403 0.02280 0.17267 -0.03600
C 	C 	0.96947 0.06400 0.13587 0.18800
C 	C 	0.01179 0.08470 0.11347 -0.11700
H 	H 	0.00830 0.11240 0.08850 0.10100
C 	C 	0.05813 0.06590 0.12679 -0.04100
C 	C 	0.06261 0.02550 0.16331 -0.03200
H 	H 	0.09410 0.01260 0.17330 0.03800
C 	C 	0.02080 0.00380 0.18533 -0.03300
H 	H 	0.02450 0.97510 0.20980 0.06000
O 	O 	0.92390 0.08360 0.12155 -0.38000
H 	H 	0.90230 0.06770 0.13800 0.22900
C 	C 	0.10268 0.09090 0.10222 0.33700
O 	O 	0.14323 0.09364 0.12132 -0.43500
O 	O 	0.09515 0.10880 0.06402 -0.28500
C 	C 	0.97530 0.56720 0.26000 -0.01600
C 	C 	0.94380 0.62060 0.25010 0.19000
C 	C 	0.89840 0.62710 0.27090 -0.10300
H 	H 	0.87740 0.66450 0.26410 0.04900
C 	C 	0.88412 0.57930 0.30120 -0.11200
C 	C 	0.91500 0.52470 0.31210 -0.00400
H 	H 	0.90560 0.49200 0.33320 -0.01000
C 	C 	0.96050 0.51940 0.29100 -0.06600
H 	H 	0.98170 0.48240 0.29810 0.05200
O 	O 	0.95815 0.66460 0.21850 -0.38800
H 	H 	0.94050 0.70000 0.21900 0.26200
C 	C 	0.83436 0.58690 0.32143 0.37700
O 	O 	0.81038 0.64167 0.31402 -0.55800
O 	O 	0.81708 0.53866 0.34317 -0.57400
C 	C 	0.52700 0.75170 0.25570 -0.02600
C 	C 	0.55780 0.80670 0.24560 0.16700
C 	C 	0.60660 0.80480 0.25660 -0.09900
H 	H 	0.62640 0.84410 0.25120 0.04200
C 	C 	0.62790 0.74690 0.27551 -0.09800
C 	C 	0.59697 0.69180 0.28530 0.00000
H 	H 	0.61010 0.65180 0.29860 0.02400
C 	C 	0.54700 0.69480 0.27577 -0.05900
H 	H 	0.52640 0.65720 0.28320 0.05800
O 	O 	0.54000 0.86380 0.22440 -0.37600
H 	H 	0.52470 0.88880 0.24170 0.20000
C 	C 	0.68180 0.74450 0.28497 0.38200
O 	O 	0.70282 0.80267 0.28796 -0.57100
O 	O 	0.70287 0.68869 0.28839 -0.48200
O 	O 	0.72521 0.47809 0.38504 -0.48900
C 	C 	0.68730 0.44680 0.39373 0.26400
H 	H 	0.67280 0.41990 0.37170 -0.08000
N 	N 	0.66502 0.44780 0.43157 -0.09500
C 	C 	0.68490 0.48900 0.46630 -0.26700
H 	H 	0.65880 0.51730 0.47870 0.12200
H 	H 	0.69840 0.45870 0.48840 0.10900
H 	H 	0.71080 0.51890 0.45520 0.09300
C 	C 	0.61810 0.41040 0.43860 -0.28500
H 	H 	0.61150 0.38040 0.41390 0.10400
H 	H 	0.62060 0.38240 0.46460 0.11700
H 	H 	0.59140 0.44360 0.44170 0.12700
Sr	Sr	0.21153 0.57998 0.67392 1.50300
Sr	Sr	0.29088 0.73428 0.69869 1.51600
Sr	Sr	0.22805 0.90045 0.64948 1.52200
C 	C 	0.32470 0.75760 0.93481 -0.04600
C 	C 	0.37160 0.74920 0.91910 0.20700
C 	C 	0.38030 0.74450 0.87588 -0.13500
H 	H 	0.41300 0.73890 0.86610 0.10600
C 	C 	0.34310 0.74760 0.84616 -0.03200
C 	C 	0.29570 0.75350 0.86110 -0.03600
H 	H 	0.26920 0.75440 0.84140 0.04700
C 	C 	0.28660 0.75830 0.90430 -0.03100
H 	H 	0.25370 0.76210 0.91400 0.04300
O 	O 	0.41126 0.74430 0.94587 -0.35900
H 	H 	0.41470 0.78140 0.95940 0.22100
C 	C 	0.35360 0.74220 0.79877 0.34200
O 	O 	0.39700 0.73242 0.78739 -0.32900
O 	O 	0.31834 0.74830 0.77350 -0.44200
C 	C 	0.31250 0.76480 0.98183 -0.02300
C 	C 	0.32910 0.72000 0.01323 0.17700
C 	C 	0.31270 0.72470 0.05477 -0.12000
H 	H 	0.32350 0.69230 0.07550 0.04900
C 	C 	0.28030 0.77680 0.06669 -0.10300
C 	C 	0.26500 0.82360 0.03600 -0.01200
H 	H 	0.24410 0.86040 0.04400 0.03300
C 	C 	0.27990 0.81700 0.99430 -0.06400
H 	H 	0.26790 0.84830 0.97340 0.04900
O 	O 	0.36201 0.66990 0.00147 -0.37100
H 	H 	0.36880 0.64540 0.02290 0.25700
C 	C 	0.26030 0.77750 0.11111 0.37300
O 	O 	0.25883 0.72236 0.13149 -0.56900
O 	O 	0.24499 0.83321 0.12714 -0.53400
C 	C 	0.42991 0.49510 0.80133 -0.03200
C 	C 	0.41860 0.56300 0.78904 0.18900
C 	C 	0.37924 0.57750 0.76278 -0.11600
H 	H 	0.37340 0.62360 0.75410 0.06300
C 	C 	0.34786 0.52540 0.74884 -0.08300
C 	C 	0.35760 0.45820 0.76182 -0.01000
H 	H 	0.33620 0.42220 0.75320 0.03300
C 	C 	0.39760 0.44330 0.78706 -0.06400
H 	H 	0.40360 0.39690 0.79510 0.05600
O 	O 	0.44862 0.61430 0.80345 -0.39200
H 	H 	0.43690 0.65260 0.79650 0.25800
C 	C 	0.30490 0.54200 0.72114 0.37200
O 	O 	0.29504 0.60458 0.71309 -0.54900
O 	O 	0.27961 0.49299 0.70633 -0.53600
C 	C 	0.47403 0.47720 0.82733 -0.03500
C 	C 	0.46947 0.43600 0.86413 0.18700
C 	C 	0.51179 0.41530 0.88653 -0.11700
H 	H 	0.50830 0.38760 0.91150 0.10100
C 	C 	0.55813 0.43410 0.87321 -0.04100
C 	C 	0.56261 0.47450 0.83669 -0.03200
H 	H 	0.59410 0.48740 0.82670 0.03800
C 	C 	0.52080 0.49620 0.81467 -0.03300
H 	H 	0.52450 0.52490 0.79020 0.06000
O 	O 	0.42390 0.41640 0.87845 -0.38000
H 	H 	0.40230 0.43230 0.86200 0.22900
C 	C 	0.60268 0.40910 0.89778 0.33700
O 	O 	0.64323 0.40636 0.87868 -0.43500
O 	O 	0.59515 0.39120 0.93598 -0.28500
C 	C 	0.47530 0.93280 0.74000 -0.01600
C 	C 	0.44380 0.87940 0.74990 0.19000
C 	C 	0.39840 0.87290 0.72910 -0.10300
H 	H 	0.37740 0.83550 0.73590 0.04900
C 	C 	0.38412 0.92070 0.69880 -0.11200
C 	C 	0.41500 0.97530 0.68790 -0.00400
H 	H 	0.40560 0.00800 0.66680 -0.01000
C 	C 	0.46050 0.98060 0.70900 -0.06600
H 	H 	0.48170 0.01760 0.70190 0.05100
O 	O 	0.45815 0.83540 0.78150 -0.38800
H 	H 	0.44050 0.80000 0.78100 0.26200
C 	C 	0.33436 0.91310 0.67857 0.37700
O 	O 	0.31038 0.85833 0.68598 -0.55800
O 	O 	0.31708 0.96134 0.65683 -0.57400
C 	C 	0.02700 0.74830 0.74430 -0.02600
C 	C 	0.05780 0.69330 0.75440 0.16700
C 	C 	0.10660 0.69520 0.74340 -0.09900
H 	H 	0.12640 0.65590 0.74880 0.04200
C 	C 	0.12790 0.75310 0.72449 -0.09800
C 	C 	0.09697 0.80820 0.71470 0.00000
H 	H 	0.11010 0.84820 0.70140 0.02400
C 	C 	0.04700 0.80520 0.72423 -0.05900
H 	H 	0.02640 0.84280 0.71680 0.05800
O 	O 	0.04000 0.63620 0.77560 -0.37600
H 	H 	0.02470 0.61120 0.75830 0.20000
C 	C 	0.18180 0.75550 0.71503 0.38200
O 	O 	0.20282 0.69733 0.71204 -0.57100
O 	O 	0.20287 0.81131 0.71161 -0.48200
O 	O 	0.22521 0.02191 0.61496 -0.48900
C 	C 	0.18730 0.05320 0.60627 0.26400
H 	H 	0.17280 0.08010 0.62830 -0.08000
N 	N 	0.16502 0.05220 0.56843 -0.09500
C 	C 	0.18490 0.01100 0.53370 -0.26700
H 	H 	0.15880 0.98270 0.52130 0.12200
H 	H 	0.19840 0.04130 0.51160 0.10900
H 	H 	0.21080 0.98110 0.54480 0.09300
C 	C 	0.11810 0.08960 0.56140 -0.28500
H 	H 	0.11150 0.11960 0.58610 0.10400
H 	H 	0.12060 0.11760 0.53540 0.11700
H 	H 	0.09140 0.05640 0.55830 0.12600
Sr	Sr	0.28847 0.92002 0.17392 1.50300
Sr	Sr	0.20912 0.76572 0.19869 1.51600
Sr	Sr	0.27195 0.59955 0.14948 1.52200
C 	C 	0.17530 0.74240 0.43481 -0.04600
C 	C 	0.12840 0.75080 0.41910 0.20700
C 	C 	0.11970 0.75550 0.37588 -0.13500
H 	H 	0.08700 0.76110 0.36610 0.10600
C 	C 	0.15690 0.75240 0.34616 -0.03200
C 	C 	0.20430 0.74650 0.36110 -0.03600
H 	H 	0.23080 0.74560 0.34140 0.04700
C 	C 	0.21340 0.74170 0.40430 -0.03100
H 	H 	0.24630 0.73790 0.41400 0.04300
O 	O 	0.08874 0.75570 0.44587 -0.36000
H 	H 	0.08530 0.71860 0.45940 0.22100
C 	C 	0.14640 0.75780 0.29877 0.34200
O 	O 	0.10300 0.76758 0.28739 -0.32900
O 	O 	0.18166 0.75170 0.27350 -0.44200
C 	C 	0.18750 0.73520 0.48183 -0.02300
C 	C 	0.17090 0.78000 0.51323 0.17700
C 	C 	0.18730 0.77530 0.55477 -0.12000
H 	H 	0.17650 0.80770 0.57550 0.04900
C 	C 	0.21970 0.72320 0.56669 -0.10300
C 	C 	0.23500 0.67640 0.53600 -0.01100
H 	H 	0.25590 0.63960 0.54400 0.03300
C 	C 	0.22010 0.68300 0.49430 -0.06400
H 	H 	0.23210 0.65170 0.47340 0.04900
O 	O 	0.13799 0.83010 0.50147 -0.37100
H 	H 	0.13120 0.85460 0.52290 0.25700
C 	C 	0.23970 0.72250 0.61111 0.37300
O 	O 	0.24117 0.77764 0.63149 -0.56900
O 	O 	0.25501 0.66679 0.62714 -0.53400
C 	C 	0.07009 0.00490 0.30133 -0.03100
C 	C 	0.08140 0.93700 0.28904 0.18900
C 	C 	0.12076 0.92250 0.26278 -0.11600
H 	H 	0.12660 0.87640 0.25410 0.06300
C 	C 	0.15214 0.97460 0.24884 -0.08400
C 	C 	0.14240 0.04180 0.26182 -0.01000
H 	H 	0.16380 0.07780 0.25320 0.03300
C 	C 	0.10240 0.05670 0.28706 -0.06500
H 	H 	0.09640 0.10310 0.29510 0.05600
O 	O 	0.05138 0.88570 0.30345 -0.39200
H 	H 	0.06310 0.84740 0.29650 0.25800
C 	C 	0.19510 0.95800 0.22114 0.37200
O 	O 	0.20496 0.89542 0.21309 -0.54900
O 	O 	0.22039 0.00701 0.20633 -0.53600
C 	C 	0.02597 0.02280 0.32733 -0.03600
C 	C 	0.03053 0.06400 0.36413 0.18800
C 	C 	0.98821 0.08470 0.38653 -0.11700
H 	H 	0.99170 0.11240 0.41150 0.10100
C 	C 	0.94187 0.06590 0.37321 -0.04100
C 	C 	0.93739 0.02550 0.33669 -0.03200
H 	H 	0.90590 0.01260 0.32670 0.03800
C 	C 	0.97920 0.00380 0.31467 -0.03300
H 	H 	0.97550 0.97510 0.29020 0.06000
O 	O 	0.07610 0.08360 0.37845 -0.38000
H 	H 	0.09770 0.06770 0.36200 0.22900
C 	C 	0.89732 0.09090 0.39778 0.33700
O 	O 	0.85677 0.09364 0.37868 -0.43500
O 	O 	0.90485 0.10880 0.43598 -0.28500
C 	C 	0.02470 0.56720 0.24000 -0.01600
C 	C 	0.05620 0.62060 0.24990 0.19000
C 	C 	0.10160 0.62710 0.22910 -0.10300
H 	H 	0.12260 0.66450 0.23590 0.04900
C 	C 	0.11588 0.57930 0.19880 -0.11200
C 	C 	0.08500 0.52470 0.18790 -0.00400
H 	H 	0.09440 0.49200 0.16680 -0.01000
C 	C 	0.03950 0.51940 0.20900 -0.06600
H 	H 	0.01830 0.48240 0.20190 0.05100
O 	O 	0.04185 0.66460 0.28150 -0.38800
H 	H 	0.05950 0.70000 0.28100 0.26200
C 	C 	0.16564 0.58690 0.17857 0.37700
O 	O 	0.18962 0.64167 0.18598 -0.55800
O 	O 	0.18292 0.53866 0.15683 -0.57400
C 	C 	0.47300 0.75170 0.24430 -0.02600
C 	C 	0.44220 0.80670 0.25440 0.16700
C 	C 	0.39340 0.80480 0.24340 -0.09900
H 	H 	0.37360 0.84410 0.24880 0.04200
C 	C 	0.37210 0.74690 0.22449 -0.09800
C 	C 	0.40303 0.69180 0.21470 0.00000
H 	H 	0.38990 0.65180 0.20140 0.02400
C 	C 	0.45300 0.69480 0.22423 -0.05900
H 	H 	0.47360 0.65720 0.21680 0.05800
O 	O 	0.46000 0.86380 0.27560 -0.37600
H 	H 	0.47530 0.88880 0.25830 0.20000
C 	C 	0.31820 0.74450 0.21503 0.38200
O 	O 	0.29718 0.80267 0.21204 -0.57100
O 	O 	0.29713 0.68869 0.21161 -0.48200
O 	O 	0.27479 0.47809 0.11496 -0.48900
C 	C 	0.31270 0.44680 0.10627 0.26400
H 	H 	0.32720 0.41990 0.12830 -0.08000
N 	N 	0.33498 0.44780 0.06843 -0.09600
C 	C 	0.31510 0.48900 0.03370 -0.26600
H 	H 	0.34120 0.51730 0.02130 0.12200
H 	H 	0.30160 0.45870 0.01160 0.10900
H 	H 	0.28920 0.51890 0.04480 0.09300
C 	C 	0.38190 0.41040 0.06140 -0.28500
H 	H 	0.38850 0.38040 0.08610 0.10400
H 	H 	0.37940 0.38240 0.03540 0.11700
H 	H 	0.40860 0.44360 0.05830 0.12700
