data_crystal

_cell_length_a 38.46500
_cell_length_b 38.46500
_cell_length_c 38.46500
_cell_angle_alpha 90.00000
_cell_angle_beta  90.00000
_cell_angle_gamma 90.00000

_symmetry_space_group_name_	'P 1'
_symmetry_space_group_name_H-M	'P 1'

loop_
_symmetry_equiv_pos_as_xyz
  x,y,z

loop_
_atom_site_label
_atom_site_type_symbol
_atom_site_fract_x
_atom_site_fract_y
_atom_site_fract_z
_atom_site_charge
O 	O 	0.31520 0.17150 0.22060 -0.72800
C 	C 	0.36670 0.12160 0.21978 0.13600
H 	H 	0.35410 0.12650 0.19910 -0.04300
C 	C 	0.39200 0.09590 0.21992 -0.24400
H 	H 	0.39640 0.08290 0.19940 0.08100
C 	C 	0.47210 0.07260 0.23840 0.24000
C 	C 	0.48132 0.10620 0.23230 -0.14700
H 	H 	0.46630 0.12550 0.22870 0.05800
C 	C 	0.47390 0.07460 0.25960 -0.17700
C 	C 	0.48130 0.10900 0.26340 0.03900
H 	H 	0.46580 0.12810 0.26540 -0.00800
O 	O 	0.81520 0.67150 0.72060 -0.72800
C 	C 	0.86670 0.62160 0.71978 0.13600
H 	H 	0.85410 0.62650 0.69910 -0.04200
C 	C 	0.89200 0.59590 0.71992 -0.24400
H 	H 	0.89640 0.58290 0.69940 0.08100
C 	C 	0.97210 0.57260 0.73840 0.24000
C 	C 	0.98132 0.60620 0.73230 -0.14200
H 	H 	0.96630 0.62550 0.72870 0.05700
C 	C 	0.97390 0.57460 0.75960 -0.17500
C 	C 	0.98130 0.60900 0.76340 0.04400
H 	H 	0.96580 0.62810 0.76540 -0.00900
O 	O 	0.68480 0.82850 0.22060 -0.72800
C 	C 	0.63330 0.87840 0.21978 0.13600
H 	H 	0.64590 0.87350 0.19910 -0.04300
C 	C 	0.60800 0.90410 0.21992 -0.24500
H 	H 	0.60360 0.91710 0.19940 0.08100
C 	C 	0.52790 0.92740 0.23840 0.23600
C 	C 	0.51868 0.89380 0.23230 -0.14600
H 	H 	0.53370 0.87450 0.22870 0.05700
C 	C 	0.52610 0.92540 0.25960 -0.17300
C 	C 	0.51870 0.89100 0.26340 0.03600
H 	H 	0.53420 0.87190 0.26540 -0.00800
O 	O 	0.18480 0.32850 0.72060 -0.72900
C 	C 	0.13330 0.37840 0.71978 0.13500
H 	H 	0.14590 0.37350 0.69910 -0.04300
C 	C 	0.10800 0.40410 0.71992 -0.24500
H 	H 	0.10360 0.41710 0.69940 0.08000
C 	C 	0.02790 0.42740 0.73840 0.23800
C 	C 	0.01868 0.39380 0.73230 -0.15400
H 	H 	0.03370 0.37450 0.72870 0.05800
C 	C 	0.02610 0.42540 0.75960 -0.17600
C 	C 	0.01870 0.39100 0.76340 0.03100
H 	H 	0.03420 0.37190 0.76540 -0.00800
O 	O 	0.68480 0.17150 0.77940 -0.72900
C 	C 	0.63330 0.12160 0.78022 0.13500
H 	H 	0.64590 0.12650 0.80090 -0.04300
C 	C 	0.60800 0.09590 0.78008 -0.24500
H 	H 	0.60360 0.08290 0.80060 0.08000
C 	C 	0.52790 0.07260 0.76160 0.23600
C 	C 	0.51868 0.10620 0.76770 -0.14700
H 	H 	0.53370 0.12550 0.77130 0.05700
C 	C 	0.52610 0.07460 0.74040 -0.17500
C 	C 	0.51870 0.10900 0.73660 0.03700
H 	H 	0.53420 0.12810 0.73460 -0.00900
O 	O 	0.18480 0.67150 0.27940 -0.72900
C 	C 	0.13330 0.62160 0.28022 0.13500
H 	H 	0.14590 0.62650 0.30090 -0.04300
C 	C 	0.10800 0.59590 0.28008 -0.24500
H 	H 	0.10360 0.58290 0.30060 0.08000
C 	C 	0.02790 0.57260 0.26160 0.23600
C 	C 	0.01868 0.60620 0.26770 -0.15300
H 	H 	0.03370 0.62550 0.27130 0.05800
C 	C 	0.02610 0.57460 0.24040 -0.17400
C 	C 	0.01870 0.60900 0.23660 0.03000
H 	H 	0.03420 0.62810 0.23460 -0.00800
O 	O 	0.31520 0.82850 0.77940 -0.72800
C 	C 	0.36670 0.87840 0.78022 0.13600
H 	H 	0.35410 0.87350 0.80090 -0.04200
C 	C 	0.39200 0.90410 0.78008 -0.24500
H 	H 	0.39640 0.91710 0.80060 0.08200
C 	C 	0.47210 0.92740 0.76160 0.23300
C 	C 	0.48132 0.89380 0.76770 -0.14500
H 	H 	0.46630 0.87450 0.77130 0.05700
C 	C 	0.47390 0.92540 0.74040 -0.17100
C 	C 	0.48130 0.89100 0.73660 0.03500
H 	H 	0.46580 0.87190 0.73460 -0.00800
O 	O 	0.81520 0.32850 0.27940 -0.72900
C 	C 	0.86670 0.37840 0.28022 0.13600
H 	H 	0.85410 0.37350 0.30090 -0.04300
C 	C 	0.89200 0.40410 0.28008 -0.24500
H 	H 	0.89640 0.41710 0.30060 0.08100
C 	C 	0.97210 0.42740 0.26160 0.23800
C 	C 	0.98132 0.39380 0.26770 -0.14100
H 	H 	0.96630 0.37450 0.27130 0.05700
C 	C 	0.97390 0.42540 0.24040 -0.17300
C 	C 	0.98130 0.39100 0.23660 0.04300
H 	H 	0.96580 0.37190 0.23460 -0.00900
O 	O 	0.22060 0.31520 0.17150 -0.72900
C 	C 	0.21978 0.36670 0.12160 0.13500
H 	H 	0.19910 0.35410 0.12650 -0.04400
C 	C 	0.21992 0.39200 0.09590 -0.24500
H 	H 	0.19940 0.39640 0.08290 0.08000
C 	C 	0.23840 0.47210 0.07260 0.23900
C 	C 	0.23230 0.48132 0.10620 -0.14800
H 	H 	0.22870 0.46630 0.12550 0.05700
C 	C 	0.25960 0.47390 0.07460 -0.17800
C 	C 	0.26340 0.48130 0.10900 0.03800
H 	H 	0.26540 0.46580 0.12810 -0.00900
O 	O 	0.72060 0.81520 0.67150 -0.72900
C 	C 	0.71978 0.86670 0.62160 0.13500
H 	H 	0.69910 0.85410 0.62650 -0.04300
C 	C 	0.71992 0.89200 0.59590 -0.24500
H 	H 	0.69940 0.89640 0.58290 0.08100
C 	C 	0.73840 0.97210 0.57260 0.24000
C 	C 	0.73230 0.98132 0.60620 -0.14200
H 	H 	0.72870 0.96630 0.62550 0.05700
C 	C 	0.75960 0.97390 0.57460 -0.17500
C 	C 	0.76340 0.98130 0.60900 0.04400
H 	H 	0.76540 0.96580 0.62810 -0.00900
O 	O 	0.22060 0.68480 0.82850 -0.72800
C 	C 	0.21978 0.63330 0.87840 0.13600
H 	H 	0.19910 0.64590 0.87350 -0.04300
C 	C 	0.21992 0.60800 0.90410 -0.24500
H 	H 	0.19940 0.60360 0.91710 0.08100
C 	C 	0.23840 0.52790 0.92740 0.23600
C 	C 	0.23230 0.51868 0.89380 -0.14600
H 	H 	0.22870 0.53370 0.87450 0.05700
C 	C 	0.25960 0.52610 0.92540 -0.17300
C 	C 	0.26340 0.51870 0.89100 0.03600
H 	H 	0.26540 0.53420 0.87190 -0.00800
O 	O 	0.72060 0.18480 0.32850 -0.72900
C 	C 	0.71978 0.13330 0.37840 0.13500
H 	H 	0.69910 0.14590 0.37350 -0.04300
C 	C 	0.71992 0.10800 0.40410 -0.24500
H 	H 	0.69940 0.10360 0.41710 0.08000
C 	C 	0.73840 0.02790 0.42740 0.23800
C 	C 	0.73230 0.01868 0.39380 -0.15400
H 	H 	0.72870 0.03370 0.37450 0.05800
C 	C 	0.75960 0.02610 0.42540 -0.17600
C 	C 	0.76340 0.01870 0.39100 0.03100
H 	H 	0.76540 0.03420 0.37190 -0.00800
O 	O 	0.77940 0.68480 0.17150 -0.72900
C 	C 	0.78022 0.63330 0.12160 0.13500
H 	H 	0.80090 0.64590 0.12650 -0.04300
C 	C 	0.78008 0.60800 0.09590 -0.24500
H 	H 	0.80060 0.60360 0.08290 0.08000
C 	C 	0.76160 0.52790 0.07260 0.23600
C 	C 	0.76770 0.51868 0.10620 -0.14700
H 	H 	0.77130 0.53370 0.12550 0.05700
C 	C 	0.74040 0.52610 0.07460 -0.17500
C 	C 	0.73660 0.51870 0.10900 0.03700
H 	H 	0.73460 0.53420 0.12810 -0.00900
O 	O 	0.27940 0.18480 0.67150 -0.72900
C 	C 	0.28022 0.13330 0.62160 0.13500
H 	H 	0.30090 0.14590 0.62650 -0.04300
C 	C 	0.28008 0.10800 0.59590 -0.24500
H 	H 	0.30060 0.10360 0.58290 0.08000
C 	C 	0.26160 0.02790 0.57260 0.23600
C 	C 	0.26770 0.01868 0.60620 -0.15300
H 	H 	0.27130 0.03370 0.62550 0.05800
C 	C 	0.24040 0.02610 0.57460 -0.17400
C 	C 	0.23660 0.01870 0.60900 0.03000
H 	H 	0.23460 0.03420 0.62810 -0.00800
O 	O 	0.77940 0.31520 0.82850 -0.72800
C 	C 	0.78022 0.36670 0.87840 0.13600
H 	H 	0.80090 0.35410 0.87350 -0.04200
C 	C 	0.78008 0.39200 0.90410 -0.24500
H 	H 	0.80060 0.39640 0.91710 0.08200
C 	C 	0.76160 0.47210 0.92740 0.23300
C 	C 	0.76770 0.48132 0.89380 -0.14500
H 	H 	0.77130 0.46630 0.87450 0.05700
C 	C 	0.74040 0.47390 0.92540 -0.17100
C 	C 	0.73660 0.48130 0.89100 0.03500
H 	H 	0.73460 0.46580 0.87190 -0.00800
O 	O 	0.27940 0.81520 0.32850 -0.72900
C 	C 	0.28022 0.86670 0.37840 0.13600
H 	H 	0.30090 0.85410 0.37350 -0.04300
C 	C 	0.28008 0.89200 0.40410 -0.24500
H 	H 	0.30060 0.89640 0.41710 0.08100
C 	C 	0.26160 0.97210 0.42740 0.23800
C 	C 	0.26770 0.98132 0.39380 -0.14100
H 	H 	0.27130 0.96630 0.37450 0.05700
C 	C 	0.24040 0.97390 0.42540 -0.17300
C 	C 	0.23660 0.98130 0.39100 0.04300
H 	H 	0.23460 0.96580 0.37190 -0.00900
O 	O 	0.17150 0.22060 0.31520 -0.72900
C 	C 	0.12160 0.21978 0.36670 0.13500
H 	H 	0.12650 0.19910 0.35410 -0.04400
C 	C 	0.09590 0.21992 0.39200 -0.24500
H 	H 	0.08290 0.19940 0.39640 0.08000
C 	C 	0.07260 0.23840 0.47210 0.23900
C 	C 	0.10620 0.23230 0.48132 -0.14800
H 	H 	0.12550 0.22870 0.46630 0.05700
C 	C 	0.07460 0.25960 0.47390 -0.17800
C 	C 	0.10900 0.26340 0.48130 0.03800
H 	H 	0.12810 0.26540 0.46580 -0.00900
O 	O 	0.67150 0.72060 0.81520 -0.72900
C 	C 	0.62160 0.71978 0.86670 0.13500
H 	H 	0.62650 0.69910 0.85410 -0.04300
C 	C 	0.59590 0.71992 0.89200 -0.24500
H 	H 	0.58290 0.69940 0.89640 0.08100
C 	C 	0.57260 0.73840 0.97210 0.24000
C 	C 	0.60620 0.73230 0.98132 -0.14200
H 	H 	0.62550 0.72870 0.96630 0.05700
C 	C 	0.57460 0.75960 0.97390 -0.17500
C 	C 	0.60900 0.76340 0.98130 0.04400
H 	H 	0.62810 0.76540 0.96580 -0.00900
O 	O 	0.82850 0.22060 0.68480 -0.72800
C 	C 	0.87840 0.21978 0.63330 0.13600
H 	H 	0.87350 0.19910 0.64590 -0.04300
C 	C 	0.90410 0.21992 0.60800 -0.24500
H 	H 	0.91710 0.19940 0.60360 0.08100
C 	C 	0.92740 0.23840 0.52790 0.23600
C 	C 	0.89380 0.23230 0.51868 -0.14600
H 	H 	0.87450 0.22870 0.53370 0.05700
C 	C 	0.92540 0.25960 0.52610 -0.17300
C 	C 	0.89100 0.26340 0.51870 0.03600
H 	H 	0.87190 0.26540 0.53420 -0.00800
O 	O 	0.32850 0.72060 0.18480 -0.72900
C 	C 	0.37840 0.71978 0.13330 0.13500
H 	H 	0.37350 0.69910 0.14590 -0.04300
C 	C 	0.40410 0.71992 0.10800 -0.24500
H 	H 	0.41710 0.69940 0.10360 0.08000
C 	C 	0.42740 0.73840 0.02790 0.23800
C 	C 	0.39380 0.73230 0.01868 -0.15400
H 	H 	0.37450 0.72870 0.03370 0.05800
C 	C 	0.42540 0.75960 0.02610 -0.17600
C 	C 	0.39100 0.76340 0.01870 0.03100
H 	H 	0.37190 0.76540 0.03420 -0.00800
O 	O 	0.17150 0.77940 0.68480 -0.72900
C 	C 	0.12160 0.78022 0.63330 0.13500
H 	H 	0.12650 0.80090 0.64590 -0.04300
C 	C 	0.09590 0.78008 0.60800 -0.24500
H 	H 	0.08290 0.80060 0.60360 0.08000
C 	C 	0.07260 0.76160 0.52790 0.23600
C 	C 	0.10620 0.76770 0.51868 -0.14700
H 	H 	0.12550 0.77130 0.53370 0.05700
C 	C 	0.07460 0.74040 0.52610 -0.17500
C 	C 	0.10900 0.73660 0.51870 0.03700
H 	H 	0.12810 0.73460 0.53420 -0.00900
O 	O 	0.67150 0.27940 0.18480 -0.72900
C 	C 	0.62160 0.28022 0.13330 0.13500
H 	H 	0.62650 0.30090 0.14590 -0.04300
C 	C 	0.59590 0.28008 0.10800 -0.24500
H 	H 	0.58290 0.30060 0.10360 0.08000
C 	C 	0.57260 0.26160 0.02790 0.23600
C 	C 	0.60620 0.26770 0.01868 -0.15300
H 	H 	0.62550 0.27130 0.03370 0.05800
C 	C 	0.57460 0.24040 0.02610 -0.17400
C 	C 	0.60900 0.23660 0.01870 0.03000
H 	H 	0.62810 0.23460 0.03420 -0.00800
O 	O 	0.82850 0.77940 0.31520 -0.72800
C 	C 	0.87840 0.78022 0.36670 0.13600
H 	H 	0.87350 0.80090 0.35410 -0.04200
C 	C 	0.90410 0.78008 0.39200 -0.24500
H 	H 	0.91710 0.80060 0.39640 0.08200
C 	C 	0.92740 0.76160 0.47210 0.23300
C 	C 	0.89380 0.76770 0.48132 -0.14500
H 	H 	0.87450 0.77130 0.46630 0.05700
C 	C 	0.92540 0.74040 0.47390 -0.17100
C 	C 	0.89100 0.73660 0.48130 0.03500
H 	H 	0.87190 0.73460 0.46580 -0.00800
O 	O 	0.32850 0.27940 0.81520 -0.72900
C 	C 	0.37840 0.28022 0.86670 0.13600
H 	H 	0.37350 0.30090 0.85410 -0.04300
C 	C 	0.40410 0.28008 0.89200 -0.24500
H 	H 	0.41710 0.30060 0.89640 0.08100
C 	C 	0.42740 0.26160 0.97210 0.23800
C 	C 	0.39380 0.26770 0.98132 -0.14100
H 	H 	0.37450 0.27130 0.96630 0.05700
C 	C 	0.42540 0.24040 0.97390 -0.17300
C 	C 	0.39100 0.23660 0.98130 0.04300
H 	H 	0.37190 0.23460 0.96580 -0.00900
O 	O 	0.17150 0.31520 0.77940 -0.72900
C 	C 	0.12160 0.36670 0.78022 0.13500
H 	H 	0.12650 0.35410 0.80090 -0.04300
C 	C 	0.09590 0.39200 0.78008 -0.24500
H 	H 	0.08290 0.39640 0.80060 0.08000
C 	C 	0.07260 0.47210 0.76160 0.23600
C 	C 	0.10620 0.48132 0.76770 -0.14700
H 	H 	0.12550 0.46630 0.77130 0.05700
C 	C 	0.07460 0.47390 0.74040 -0.17500
C 	C 	0.10900 0.48130 0.73660 0.03700
H 	H 	0.12810 0.46580 0.73460 -0.00900
O 	O 	0.67150 0.81520 0.27940 -0.72900
C 	C 	0.62160 0.86670 0.28022 0.13500
H 	H 	0.62650 0.85410 0.30090 -0.04300
C 	C 	0.59590 0.89200 0.28008 -0.24500
H 	H 	0.58290 0.89640 0.30060 0.08100
C 	C 	0.57260 0.97210 0.26160 0.23800
C 	C 	0.60620 0.98132 0.26770 -0.14100
H 	H 	0.62550 0.96630 0.27130 0.05700
C 	C 	0.57460 0.97390 0.24040 -0.17300
C 	C 	0.60900 0.98130 0.23660 0.04300
H 	H 	0.62810 0.96580 0.23460 -0.00900
O 	O 	0.82850 0.68480 0.77940 -0.72800
C 	C 	0.87840 0.63330 0.78022 0.13600
H 	H 	0.87350 0.64590 0.80090 -0.04200
C 	C 	0.90410 0.60800 0.78008 -0.24500
H 	H 	0.91710 0.60360 0.80060 0.08200
C 	C 	0.92740 0.52790 0.76160 0.23300
C 	C 	0.89380 0.51868 0.76770 -0.14500
H 	H 	0.87450 0.53370 0.77130 0.05700
C 	C 	0.92540 0.52610 0.74040 -0.17100
C 	C 	0.89100 0.51870 0.73660 0.03500
H 	H 	0.87190 0.53420 0.73460 -0.00800
O 	O 	0.32850 0.18480 0.27940 -0.72900
C 	C 	0.37840 0.13330 0.28022 0.13500
H 	H 	0.37350 0.14590 0.30090 -0.04300
C 	C 	0.40410 0.10800 0.28008 -0.24500
H 	H 	0.41710 0.10360 0.30060 0.08000
C 	C 	0.42740 0.02790 0.26160 0.23600
C 	C 	0.39380 0.01868 0.26770 -0.15300
H 	H 	0.37450 0.03370 0.27130 0.05800
C 	C 	0.42540 0.02610 0.24040 -0.17400
C 	C 	0.39100 0.01870 0.23660 0.02900
H 	H 	0.37190 0.03420 0.23460 -0.00800
O 	O 	0.17150 0.68480 0.22060 -0.72900
C 	C 	0.12160 0.63330 0.21978 0.13500
H 	H 	0.12650 0.64590 0.19910 -0.04400
C 	C 	0.09590 0.60800 0.21992 -0.24500
H 	H 	0.08290 0.60360 0.19940 0.08000
C 	C 	0.07260 0.52790 0.23840 0.23900
C 	C 	0.10620 0.51868 0.23230 -0.14800
H 	H 	0.12550 0.53370 0.22870 0.05700
C 	C 	0.07460 0.52610 0.25960 -0.17800
C 	C 	0.10900 0.51870 0.26340 0.03800
H 	H 	0.12810 0.53420 0.26540 -0.00900
O 	O 	0.67150 0.18480 0.72060 -0.72900
C 	C 	0.62160 0.13330 0.71978 0.13500
H 	H 	0.62650 0.14590 0.69910 -0.04300
C 	C 	0.59590 0.10800 0.71992 -0.24500
H 	H 	0.58290 0.10360 0.69940 0.08000
C 	C 	0.57260 0.02790 0.73840 0.23800
C 	C 	0.60620 0.01868 0.73230 -0.15400
H 	H 	0.62550 0.03370 0.72870 0.05800
C 	C 	0.57460 0.02610 0.75960 -0.17600
C 	C 	0.60900 0.01870 0.76340 0.03100
H 	H 	0.62810 0.03420 0.76540 -0.00800
O 	O 	0.82850 0.31520 0.22060 -0.72900
C 	C 	0.87840 0.36670 0.21978 0.13600
H 	H 	0.87350 0.35410 0.19910 -0.04300
C 	C 	0.90410 0.39200 0.21992 -0.24500
H 	H 	0.91710 0.39640 0.19940 0.08100
C 	C 	0.92740 0.47210 0.23840 0.23600
C 	C 	0.89380 0.48132 0.23230 -0.14600
H 	H 	0.87450 0.46630 0.22870 0.05700
C 	C 	0.92540 0.47390 0.25960 -0.17300
C 	C 	0.89100 0.48130 0.26340 0.03600
H 	H 	0.87190 0.46580 0.26540 -0.00800
O 	O 	0.32850 0.81520 0.72060 -0.72900
C 	C 	0.37840 0.86670 0.71978 0.13600
H 	H 	0.37350 0.85410 0.69910 -0.04300
C 	C 	0.40410 0.89200 0.71992 -0.24500
H 	H 	0.41710 0.89640 0.69940 0.08100
C 	C 	0.42740 0.97210 0.73840 0.24000
C 	C 	0.39380 0.98132 0.73230 -0.14200
H 	H 	0.37450 0.96630 0.72870 0.05700
C 	C 	0.42540 0.97390 0.75960 -0.17500
C 	C 	0.39100 0.98130 0.76340 0.04400
H 	H 	0.37190 0.96580 0.76540 -0.00900
O 	O 	0.31520 0.22060 0.82850 -0.72900
C 	C 	0.36670 0.21978 0.87840 0.13600
H 	H 	0.35410 0.19910 0.87350 -0.04300
C 	C 	0.39200 0.21992 0.90410 -0.24500
H 	H 	0.39640 0.19940 0.91710 0.08100
C 	C 	0.47210 0.23840 0.92740 0.23600
C 	C 	0.48132 0.23230 0.89380 -0.14600
H 	H 	0.46630 0.22870 0.87450 0.05700
C 	C 	0.47390 0.25960 0.92540 -0.17300
C 	C 	0.48130 0.26340 0.89100 0.03600
H 	H 	0.46580 0.26540 0.87190 -0.00800
O 	O 	0.81520 0.72060 0.32850 -0.72900
C 	C 	0.86670 0.71978 0.37840 0.13600
H 	H 	0.85410 0.69910 0.37350 -0.04300
C 	C 	0.89200 0.71992 0.40410 -0.24500
H 	H 	0.89640 0.69940 0.41710 0.08100
C 	C 	0.97210 0.73840 0.42740 0.24000
C 	C 	0.98132 0.73230 0.39380 -0.14200
H 	H 	0.96630 0.72870 0.37450 0.05700
C 	C 	0.97390 0.75960 0.42540 -0.17500
C 	C 	0.98130 0.76340 0.39100 0.04400
H 	H 	0.96580 0.76540 0.37190 -0.00900
O 	O 	0.68480 0.22060 0.17150 -0.72900
C 	C 	0.63330 0.21978 0.12160 0.13500
H 	H 	0.64590 0.19910 0.12650 -0.04400
C 	C 	0.60800 0.21992 0.09590 -0.24500
H 	H 	0.60360 0.19940 0.08290 0.08000
C 	C 	0.52790 0.23840 0.07260 0.23900
C 	C 	0.51868 0.23230 0.10620 -0.14800
H 	H 	0.53370 0.22870 0.12550 0.05700
C 	C 	0.52610 0.25960 0.07460 -0.17800
C 	C 	0.51870 0.26340 0.10900 0.03800
H 	H 	0.53420 0.26540 0.12810 -0.00900
O 	O 	0.18480 0.72060 0.67150 -0.72900
C 	C 	0.13330 0.71978 0.62160 0.13500
H 	H 	0.14590 0.69910 0.62650 -0.04300
C 	C 	0.10800 0.71992 0.59590 -0.24500
H 	H 	0.10360 0.69940 0.58290 0.08000
C 	C 	0.02790 0.73840 0.57260 0.23800
C 	C 	0.01868 0.73230 0.60620 -0.15400
H 	H 	0.03370 0.72870 0.62550 0.05800
C 	C 	0.02610 0.75960 0.57460 -0.17600
C 	C 	0.01870 0.76340 0.60900 0.03100
H 	H 	0.03420 0.76540 0.62810 -0.00800
O 	O 	0.68480 0.77940 0.82850 -0.72800
C 	C 	0.63330 0.78022 0.87840 0.13600
H 	H 	0.64590 0.80090 0.87350 -0.04200
C 	C 	0.60800 0.78008 0.90410 -0.24500
H 	H 	0.60360 0.80060 0.91710 0.08200
C 	C 	0.52790 0.76160 0.92740 0.23300
C 	C 	0.51868 0.76770 0.89380 -0.14500
H 	H 	0.53370 0.77130 0.87450 0.05700
C 	C 	0.52610 0.74040 0.92540 -0.17100
C 	C 	0.51870 0.73660 0.89100 0.03500
H 	H 	0.53420 0.73460 0.87190 -0.00800
O 	O 	0.18480 0.27940 0.32850 -0.72900
C 	C 	0.13330 0.28022 0.37840 0.13500
H 	H 	0.14590 0.30090 0.37350 -0.04300
C 	C 	0.10800 0.28008 0.40410 -0.24500
H 	H 	0.10360 0.30060 0.41710 0.08000
C 	C 	0.02790 0.26160 0.42740 0.23600
C 	C 	0.01868 0.26770 0.39380 -0.15300
H 	H 	0.03370 0.27130 0.37450 0.05800
C 	C 	0.02610 0.24040 0.42540 -0.17400
C 	C 	0.01870 0.23660 0.39100 0.02900
H 	H 	0.03420 0.23460 0.37190 -0.00800
O 	O 	0.31520 0.77940 0.17150 -0.72900
C 	C 	0.36670 0.78022 0.12160 0.13500
H 	H 	0.35410 0.80090 0.12650 -0.04300
C 	C 	0.39200 0.78008 0.09590 -0.24500
H 	H 	0.39640 0.80060 0.08290 0.08000
C 	C 	0.47210 0.76160 0.07260 0.23600
C 	C 	0.48132 0.76770 0.10620 -0.14700
H 	H 	0.46630 0.77130 0.12550 0.05700
C 	C 	0.47390 0.74040 0.07460 -0.17500
C 	C 	0.48130 0.73660 0.10900 0.03700
H 	H 	0.46580 0.73460 0.12810 -0.00900
O 	O 	0.81520 0.27940 0.67150 -0.72900
C 	C 	0.86670 0.28022 0.62160 0.13500
H 	H 	0.85410 0.30090 0.62650 -0.04300
C 	C 	0.89200 0.28008 0.59590 -0.24500
H 	H 	0.89640 0.30060 0.58290 0.08100
C 	C 	0.97210 0.26160 0.57260 0.23800
C 	C 	0.98132 0.26770 0.60620 -0.14100
H 	H 	0.96630 0.27130 0.62550 0.05700
C 	C 	0.97390 0.24040 0.57460 -0.17300
C 	C 	0.98130 0.23660 0.60900 0.04300
H 	H 	0.96580 0.23460 0.62810 -0.00900
O 	O 	0.22060 0.17150 0.68480 -0.72900
C 	C 	0.21978 0.12160 0.63330 0.13500
H 	H 	0.19910 0.12650 0.64590 -0.04400
C 	C 	0.21992 0.09590 0.60800 -0.24500
H 	H 	0.19940 0.08290 0.60360 0.08000
C 	C 	0.23840 0.07260 0.52790 0.23900
C 	C 	0.23230 0.10620 0.51868 -0.14800
H 	H 	0.22870 0.12550 0.53370 0.05700
C 	C 	0.25960 0.07460 0.52610 -0.17800
C 	C 	0.26340 0.10900 0.51870 0.03800
H 	H 	0.26540 0.12810 0.53420 -0.00900
O 	O 	0.72060 0.67150 0.18480 -0.72900
C 	C 	0.71978 0.62160 0.13330 0.13500
H 	H 	0.69910 0.62650 0.14590 -0.04300
C 	C 	0.71992 0.59590 0.10800 -0.24500
H 	H 	0.69940 0.58290 0.10360 0.08000
C 	C 	0.73840 0.57260 0.02790 0.23800
C 	C 	0.73230 0.60620 0.01868 -0.15400
H 	H 	0.72870 0.62550 0.03370 0.05800
C 	C 	0.75960 0.57460 0.02610 -0.17600
C 	C 	0.76340 0.60900 0.01870 0.03100
H 	H 	0.76540 0.62810 0.03420 -0.00800
O 	O 	0.22060 0.82850 0.31520 -0.72900
C 	C 	0.21978 0.87840 0.36670 0.13600
H 	H 	0.19910 0.87350 0.35410 -0.04300
C 	C 	0.21992 0.90410 0.39200 -0.24500
H 	H 	0.19940 0.91710 0.39640 0.08100
C 	C 	0.23840 0.92740 0.47210 0.23600
C 	C 	0.23230 0.89380 0.48132 -0.14600
H 	H 	0.22870 0.87450 0.46630 0.05700
C 	C 	0.25960 0.92540 0.47390 -0.17300
C 	C 	0.26340 0.89100 0.48130 0.03600
H 	H 	0.26540 0.87190 0.46580 -0.00800
O 	O 	0.72060 0.32850 0.81520 -0.72900
C 	C 	0.71978 0.37840 0.86670 0.13600
H 	H 	0.69910 0.37350 0.85410 -0.04300
C 	C 	0.71992 0.40410 0.89200 -0.24500
H 	H 	0.69940 0.41710 0.89640 0.08100
C 	C 	0.73840 0.42740 0.97210 0.24000
C 	C 	0.73230 0.39380 0.98132 -0.14200
H 	H 	0.72870 0.37450 0.96630 0.05700
C 	C 	0.75960 0.42540 0.97390 -0.17500
C 	C 	0.76340 0.39100 0.98130 0.04400
H 	H 	0.76540 0.37190 0.96580 -0.00900
O 	O 	0.77940 0.17150 0.31520 -0.72900
C 	C 	0.78022 0.12160 0.36670 0.13500
H 	H 	0.80090 0.12650 0.35410 -0.04300
C 	C 	0.78008 0.09590 0.39200 -0.24500
H 	H 	0.80060 0.08290 0.39640 0.08000
C 	C 	0.76160 0.07260 0.47210 0.23600
C 	C 	0.76770 0.10620 0.48132 -0.14700
H 	H 	0.77130 0.12550 0.46630 0.05700
C 	C 	0.74040 0.07460 0.47390 -0.17500
C 	C 	0.73660 0.10900 0.48130 0.03700
H 	H 	0.73460 0.12810 0.46580 -0.00900
O 	O 	0.27940 0.67150 0.81520 -0.72900
C 	C 	0.28022 0.62160 0.86670 0.13500
H 	H 	0.30090 0.62650 0.85410 -0.04300
C 	C 	0.28008 0.59590 0.89200 -0.24500
H 	H 	0.30060 0.58290 0.89640 0.08100
C 	C 	0.26160 0.57260 0.97210 0.23800
C 	C 	0.26770 0.60620 0.98132 -0.14100
H 	H 	0.27130 0.62550 0.96630 0.05700
C 	C 	0.24040 0.57460 0.97390 -0.17300
C 	C 	0.23660 0.60900 0.98130 0.04300
H 	H 	0.23460 0.62810 0.96580 -0.00900
O 	O 	0.77940 0.82850 0.68480 -0.72800
C 	C 	0.78022 0.87840 0.63330 0.13600
H 	H 	0.80090 0.87350 0.64590 -0.04200
C 	C 	0.78008 0.90410 0.60800 -0.24500
H 	H 	0.80060 0.91710 0.60360 0.08200
C 	C 	0.76160 0.92740 0.52790 0.23300
C 	C 	0.76770 0.89380 0.51868 -0.14500
H 	H 	0.77130 0.87450 0.53370 0.05700
C 	C 	0.74040 0.92540 0.52610 -0.17100
C 	C 	0.73660 0.89100 0.51870 0.03500
H 	H 	0.73460 0.87190 0.53420 -0.00800
O 	O 	0.27940 0.32850 0.18480 -0.72900
C 	C 	0.28022 0.37840 0.13330 0.13500
H 	H 	0.30090 0.37350 0.14590 -0.04300
C 	C 	0.28008 0.40410 0.10800 -0.24500
H 	H 	0.30060 0.41710 0.10360 0.08000
C 	C 	0.26160 0.42740 0.02790 0.23600
C 	C 	0.26770 0.39380 0.01868 -0.15300
H 	H 	0.27130 0.37450 0.03370 0.05800
C 	C 	0.24040 0.42540 0.02610 -0.17400
C 	C 	0.23660 0.39100 0.01870 0.02900
H 	H 	0.23460 0.37190 0.03420 -0.00800
O 	O 	0.68480 0.82850 0.77940 -0.72800
C 	C 	0.63330 0.87840 0.78022 0.13600
H 	H 	0.64590 0.87350 0.80090 -0.04200
C 	C 	0.60800 0.90410 0.78008 -0.24500
H 	H 	0.60360 0.91710 0.80060 0.08200
C 	C 	0.52790 0.92740 0.76160 0.23300
C 	C 	0.51868 0.89380 0.76770 -0.14500
H 	H 	0.53370 0.87450 0.77130 0.05700
C 	C 	0.52610 0.92540 0.74040 -0.17100
C 	C 	0.51870 0.89100 0.73660 0.03500
H 	H 	0.53420 0.87190 0.73460 -0.00800
O 	O 	0.18480 0.32850 0.27940 -0.72900
C 	C 	0.13330 0.37840 0.28022 0.13500
H 	H 	0.14590 0.37350 0.30090 -0.04300
C 	C 	0.10800 0.40410 0.28008 -0.24500
H 	H 	0.10360 0.41710 0.30060 0.08000
C 	C 	0.02790 0.42740 0.26160 0.23600
C 	C 	0.01868 0.39380 0.26770 -0.15300
H 	H 	0.03370 0.37450 0.27130 0.05800
C 	C 	0.02610 0.42540 0.24040 -0.17400
C 	C 	0.01870 0.39100 0.23660 0.02900
H 	H 	0.03420 0.37190 0.23460 -0.00800
O 	O 	0.31520 0.17150 0.77940 -0.72900
C 	C 	0.36670 0.12160 0.78022 0.13500
H 	H 	0.35410 0.12650 0.80090 -0.04300
C 	C 	0.39200 0.09590 0.78008 -0.24500
H 	H 	0.39640 0.08290 0.80060 0.08000
C 	C 	0.47210 0.07260 0.76160 0.23600
C 	C 	0.48132 0.10620 0.76770 -0.14700
H 	H 	0.46630 0.12550 0.77130 0.05700
C 	C 	0.47390 0.07460 0.74040 -0.17500
C 	C 	0.48130 0.10900 0.73660 0.03700
H 	H 	0.46580 0.12810 0.73460 -0.00900
O 	O 	0.81520 0.67150 0.27940 -0.72900
C 	C 	0.86670 0.62160 0.28022 0.13500
H 	H 	0.85410 0.62650 0.30090 -0.04300
C 	C 	0.89200 0.59590 0.28008 -0.24500
H 	H 	0.89640 0.58290 0.30060 0.08100
C 	C 	0.97210 0.57260 0.26160 0.23800
C 	C 	0.98132 0.60620 0.26770 -0.14100
H 	H 	0.96630 0.62550 0.27130 0.05700
C 	C 	0.97390 0.57460 0.24040 -0.17300
C 	C 	0.98130 0.60900 0.23660 0.04300
H 	H 	0.96580 0.62810 0.23460 -0.00900
O 	O 	0.31520 0.82850 0.22060 -0.72900
C 	C 	0.36670 0.87840 0.21978 0.13600
H 	H 	0.35410 0.87350 0.19910 -0.04300
C 	C 	0.39200 0.90410 0.21992 -0.24500
H 	H 	0.39640 0.91710 0.19940 0.08100
C 	C 	0.47210 0.92740 0.23840 0.23600
C 	C 	0.48132 0.89380 0.23230 -0.14600
H 	H 	0.46630 0.87450 0.22870 0.05700
C 	C 	0.47390 0.92540 0.25960 -0.17300
C 	C 	0.48130 0.89100 0.26340 0.03600
H 	H 	0.46580 0.87190 0.26540 -0.00800
O 	O 	0.81520 0.32850 0.72060 -0.72900
C 	C 	0.86670 0.37840 0.71978 0.13600
H 	H 	0.85410 0.37350 0.69910 -0.04300
C 	C 	0.89200 0.40410 0.71992 -0.24500
H 	H 	0.89640 0.41710 0.69940 0.08100
C 	C 	0.97210 0.42740 0.73840 0.24000
C 	C 	0.98132 0.39380 0.73230 -0.14200
H 	H 	0.96630 0.37450 0.72870 0.05700
C 	C 	0.97390 0.42540 0.75960 -0.17500
C 	C 	0.98130 0.39100 0.76340 0.04400
H 	H 	0.96580 0.37190 0.76540 -0.00900
O 	O 	0.68480 0.17150 0.22060 -0.72900
C 	C 	0.63330 0.12160 0.21978 0.13500
H 	H 	0.64590 0.12650 0.19910 -0.04400
C 	C 	0.60800 0.09590 0.21992 -0.24500
H 	H 	0.60360 0.08290 0.19940 0.08000
C 	C 	0.52790 0.07260 0.23840 0.23900
C 	C 	0.51868 0.10620 0.23230 -0.14800
H 	H 	0.53370 0.12550 0.22870 0.05700
C 	C 	0.52610 0.07460 0.25960 -0.17800
C 	C 	0.51870 0.10900 0.26340 0.03800
H 	H 	0.53420 0.12810 0.26540 -0.00900
O 	O 	0.18480 0.67150 0.72060 -0.72900
C 	C 	0.13330 0.62160 0.71978 0.13500
H 	H 	0.14590 0.62650 0.69910 -0.04300
C 	C 	0.10800 0.59590 0.71992 -0.24500
H 	H 	0.10360 0.58290 0.69940 0.08000
C 	C 	0.02790 0.57260 0.73840 0.23800
C 	C 	0.01868 0.60620 0.73230 -0.15400
H 	H 	0.03370 0.62550 0.72870 0.05800
C 	C 	0.02610 0.57460 0.75960 -0.17600
C 	C 	0.01870 0.60900 0.76340 0.03100
H 	H 	0.03420 0.62810 0.76540 -0.00800
O 	O 	0.77940 0.68480 0.82850 -0.72800
C 	C 	0.78022 0.63330 0.87840 0.13600
H 	H 	0.80090 0.64590 0.87350 -0.04200
C 	C 	0.78008 0.60800 0.90410 -0.24500
H 	H 	0.80060 0.60360 0.91710 0.08200
C 	C 	0.76160 0.52790 0.92740 0.23300
C 	C 	0.76770 0.51868 0.89380 -0.14500
H 	H 	0.77130 0.53370 0.87450 0.05700
C 	C 	0.74040 0.52610 0.92540 -0.17100
C 	C 	0.73660 0.51870 0.89100 0.03500
H 	H 	0.73460 0.53420 0.87190 -0.00800
O 	O 	0.27940 0.18480 0.32850 -0.72900
C 	C 	0.28022 0.13330 0.37840 0.13500
H 	H 	0.30090 0.14590 0.37350 -0.04300
C 	C 	0.28008 0.10800 0.40410 -0.24500
H 	H 	0.30060 0.10360 0.41710 0.08000
C 	C 	0.26160 0.02790 0.42740 0.23600
C 	C 	0.26770 0.01868 0.39380 -0.15300
H 	H 	0.27130 0.03370 0.37450 0.05800
C 	C 	0.24040 0.02610 0.42540 -0.17400
C 	C 	0.23660 0.01870 0.39100 0.02900
H 	H 	0.23460 0.03420 0.37190 -0.00800
O 	O 	0.77940 0.31520 0.17150 -0.72900
C 	C 	0.78022 0.36670 0.12160 0.13500
H 	H 	0.80090 0.35410 0.12650 -0.04300
C 	C 	0.78008 0.39200 0.09590 -0.24500
H 	H 	0.80060 0.39640 0.08290 0.08000
C 	C 	0.76160 0.47210 0.07260 0.23600
C 	C 	0.76770 0.48132 0.10620 -0.14700
H 	H 	0.77130 0.46630 0.12550 0.05700
C 	C 	0.74040 0.47390 0.07460 -0.17500
C 	C 	0.73660 0.48130 0.10900 0.03700
H 	H 	0.73460 0.46580 0.12810 -0.00900
O 	O 	0.27940 0.81520 0.67150 -0.72900
C 	C 	0.28022 0.86670 0.62160 0.13500
H 	H 	0.30090 0.85410 0.62650 -0.04300
C 	C 	0.28008 0.89200 0.59590 -0.24500
H 	H 	0.30060 0.89640 0.58290 0.08100
C 	C 	0.26160 0.97210 0.57260 0.23800
C 	C 	0.26770 0.98132 0.60620 -0.14100
H 	H 	0.27130 0.96630 0.62550 0.05700
C 	C 	0.24040 0.97390 0.57460 -0.17300
C 	C 	0.23660 0.98130 0.60900 0.04300
H 	H 	0.23460 0.96580 0.62810 -0.00900
O 	O 	0.22060 0.31520 0.82850 -0.72900
C 	C 	0.21978 0.36670 0.87840 0.13600
H 	H 	0.19910 0.35410 0.87350 -0.04300
C 	C 	0.21992 0.39200 0.90410 -0.24500
H 	H 	0.19940 0.39640 0.91710 0.08100
C 	C 	0.23840 0.47210 0.92740 0.23600
C 	C 	0.23230 0.48132 0.89380 -0.14600
H 	H 	0.22870 0.46630 0.87450 0.05700
C 	C 	0.25960 0.47390 0.92540 -0.17300
C 	C 	0.26340 0.48130 0.89100 0.03600
H 	H 	0.26540 0.46580 0.87190 -0.00800
O 	O 	0.72060 0.81520 0.32850 -0.72900
C 	C 	0.71978 0.86670 0.37840 0.13600
H 	H 	0.69910 0.85410 0.37350 -0.04300
C 	C 	0.71992 0.89200 0.40410 -0.24500
H 	H 	0.69940 0.89640 0.41710 0.08100
C 	C 	0.73840 0.97210 0.42740 0.24000
C 	C 	0.73230 0.98132 0.39380 -0.14200
H 	H 	0.72870 0.96630 0.37450 0.05700
C 	C 	0.75960 0.97390 0.42540 -0.17500
C 	C 	0.76340 0.98130 0.39100 0.04400
H 	H 	0.76540 0.96580 0.37190 -0.00900
O 	O 	0.22060 0.68480 0.17150 -0.72900
C 	C 	0.21978 0.63330 0.12160 0.13500
H 	H 	0.19910 0.64590 0.12650 -0.04400
C 	C 	0.21992 0.60800 0.09590 -0.24500
H 	H 	0.19940 0.60360 0.08290 0.08000
C 	C 	0.23840 0.52790 0.07260 0.23900
C 	C 	0.23230 0.51868 0.10620 -0.14800
H 	H 	0.22870 0.53370 0.12550 0.05700
C 	C 	0.25960 0.52610 0.07460 -0.17800
C 	C 	0.26340 0.51870 0.10900 0.03800
H 	H 	0.26540 0.53420 0.12810 -0.00900
O 	O 	0.72060 0.18480 0.67150 -0.72900
C 	C 	0.71978 0.13330 0.62160 0.13500
H 	H 	0.69910 0.14590 0.62650 -0.04300
C 	C 	0.71992 0.10800 0.59590 -0.24500
H 	H 	0.69940 0.10360 0.58290 0.08000
C 	C 	0.73840 0.02790 0.57260 0.23800
C 	C 	0.73230 0.01868 0.60620 -0.15400
H 	H 	0.72870 0.03370 0.62550 0.05800
C 	C 	0.75960 0.02610 0.57460 -0.17600
C 	C 	0.76340 0.01870 0.60900 0.03100
H 	H 	0.76540 0.03420 0.62810 -0.00800
O 	O 	0.82850 0.77940 0.68480 -0.72800
C 	C 	0.87840 0.78022 0.63330 0.13600
H 	H 	0.87350 0.80090 0.64590 -0.04200
C 	C 	0.90410 0.78008 0.60800 -0.24500
H 	H 	0.91710 0.80060 0.60360 0.08200
C 	C 	0.92740 0.76160 0.52790 0.23300
C 	C 	0.89380 0.76770 0.51868 -0.14500
H 	H 	0.87450 0.77130 0.53370 0.05700
C 	C 	0.92540 0.74040 0.52610 -0.17100
C 	C 	0.89100 0.73660 0.51870 0.03500
H 	H 	0.87190 0.73460 0.53420 -0.00800
O 	O 	0.32850 0.27940 0.18480 -0.72900
C 	C 	0.37840 0.28022 0.13330 0.13500
H 	H 	0.37350 0.30090 0.14590 -0.04300
C 	C 	0.40410 0.28008 0.10800 -0.24500
H 	H 	0.41710 0.30060 0.10360 0.08000
C 	C 	0.42740 0.26160 0.02790 0.23600
C 	C 	0.39380 0.26770 0.01868 -0.15300
H 	H 	0.37450 0.27130 0.03370 0.05800
C 	C 	0.42540 0.24040 0.02610 -0.17400
C 	C 	0.39100 0.23660 0.01870 0.02900
H 	H 	0.37190 0.23460 0.03420 -0.00800
O 	O 	0.17150 0.77940 0.31520 -0.72900
C 	C 	0.12160 0.78022 0.36670 0.13500
H 	H 	0.12650 0.80090 0.35410 -0.04300
C 	C 	0.09590 0.78008 0.39200 -0.24500
H 	H 	0.08290 0.80060 0.39640 0.08000
C 	C 	0.07260 0.76160 0.47210 0.23600
C 	C 	0.10620 0.76770 0.48132 -0.14700
H 	H 	0.12550 0.77130 0.46630 0.05700
C 	C 	0.07460 0.74040 0.47390 -0.17500
C 	C 	0.10900 0.73660 0.48130 0.03700
H 	H 	0.12810 0.73460 0.46580 -0.00900
O 	O 	0.67150 0.27940 0.81520 -0.72900
C 	C 	0.62160 0.28022 0.86670 0.13500
H 	H 	0.62650 0.30090 0.85410 -0.04300
C 	C 	0.59590 0.28008 0.89200 -0.24500
H 	H 	0.58290 0.30060 0.89640 0.08100
C 	C 	0.57260 0.26160 0.97210 0.23800
C 	C 	0.60620 0.26770 0.98132 -0.14100
H 	H 	0.62550 0.27130 0.96630 0.05700
C 	C 	0.57460 0.24040 0.97390 -0.17300
C 	C 	0.60900 0.23660 0.98130 0.04300
H 	H 	0.62810 0.23460 0.96580 -0.00900
O 	O 	0.82850 0.22060 0.31520 -0.72900
C 	C 	0.87840 0.21978 0.36670 0.13600
H 	H 	0.87350 0.19910 0.35410 -0.04300
C 	C 	0.90410 0.21992 0.39200 -0.24500
H 	H 	0.91710 0.19940 0.39640 0.08100
C 	C 	0.92740 0.23840 0.47210 0.23600
C 	C 	0.89380 0.23230 0.48132 -0.14600
H 	H 	0.87450 0.22870 0.46630 0.05700
C 	C 	0.92540 0.25960 0.47390 -0.17300
C 	C 	0.89100 0.26340 0.48130 0.03600
H 	H 	0.87190 0.26540 0.46580 -0.00800
O 	O 	0.32850 0.72060 0.81520 -0.72900
C 	C 	0.37840 0.71978 0.86670 0.13600
H 	H 	0.37350 0.69910 0.85410 -0.04300
C 	C 	0.40410 0.71992 0.89200 -0.24500
H 	H 	0.41710 0.69940 0.89640 0.08100
C 	C 	0.42740 0.73840 0.97210 0.24000
C 	C 	0.39380 0.73230 0.98132 -0.14200
H 	H 	0.37450 0.72870 0.96630 0.05700
C 	C 	0.42540 0.75960 0.97390 -0.17500
C 	C 	0.39100 0.76340 0.98130 0.04400
H 	H 	0.37190 0.76540 0.96580 -0.00900
O 	O 	0.17150 0.22060 0.68480 -0.72900
C 	C 	0.12160 0.21978 0.63330 0.13500
H 	H 	0.12650 0.19910 0.64590 -0.04400
C 	C 	0.09590 0.21992 0.60800 -0.24500
H 	H 	0.08290 0.19940 0.60360 0.08000
C 	C 	0.07260 0.23840 0.52790 0.23900
C 	C 	0.10620 0.23230 0.51868 -0.14800
H 	H 	0.12550 0.22870 0.53370 0.05700
C 	C 	0.07460 0.25960 0.52610 -0.17800
C 	C 	0.10900 0.26340 0.51870 0.03800
H 	H 	0.12810 0.26540 0.53420 -0.00900
O 	O 	0.67150 0.72060 0.18480 -0.72900
C 	C 	0.62160 0.71978 0.13330 0.13500
H 	H 	0.62650 0.69910 0.14590 -0.04300
C 	C 	0.59590 0.71992 0.10800 -0.24500
H 	H 	0.58290 0.69940 0.10360 0.08000
C 	C 	0.57260 0.73840 0.02790 0.23800
C 	C 	0.60620 0.73230 0.01868 -0.15400
H 	H 	0.62550 0.72870 0.03370 0.05800
C 	C 	0.57460 0.75960 0.02610 -0.17600
C 	C 	0.60900 0.76340 0.01870 0.03100
H 	H 	0.62810 0.76540 0.03420 -0.00800
O 	O 	0.82850 0.68480 0.22060 -0.72800
C 	C 	0.87840 0.63330 0.21978 0.13600
H 	H 	0.87350 0.64590 0.19910 -0.04300
C 	C 	0.90410 0.60800 0.21992 -0.24500
H 	H 	0.91710 0.60360 0.19940 0.08100
C 	C 	0.92740 0.52790 0.23840 0.23600
C 	C 	0.89380 0.51868 0.23230 -0.14600
H 	H 	0.87450 0.53370 0.22870 0.05700
C 	C 	0.92540 0.52610 0.25960 -0.17300
C 	C 	0.89100 0.51870 0.26340 0.03600
H 	H 	0.87190 0.53420 0.26540 -0.00800
O 	O 	0.32850 0.18480 0.72060 -0.72900
C 	C 	0.37840 0.13330 0.71978 0.13500
H 	H 	0.37350 0.14590 0.69910 -0.04300
C 	C 	0.40410 0.10800 0.71992 -0.24500
H 	H 	0.41710 0.10360 0.69940 0.08000
C 	C 	0.42740 0.02790 0.73840 0.23800
C 	C 	0.39380 0.01868 0.73230 -0.15400
H 	H 	0.37450 0.03370 0.72870 0.05800
C 	C 	0.42540 0.02610 0.75960 -0.17600
C 	C 	0.39100 0.01870 0.76340 0.03100
H 	H 	0.37190 0.03420 0.76540 -0.00800
O 	O 	0.17150 0.31520 0.22060 -0.72900
C 	C 	0.12160 0.36670 0.21978 0.13500
H 	H 	0.12650 0.35410 0.19910 -0.04400
C 	C 	0.09590 0.39200 0.21992 -0.24500
H 	H 	0.08290 0.39640 0.19940 0.08000
C 	C 	0.07260 0.47210 0.23840 0.23900
C 	C 	0.10620 0.48132 0.23230 -0.14800
H 	H 	0.12550 0.46630 0.22870 0.05700
C 	C 	0.07460 0.47390 0.25960 -0.17800
C 	C 	0.10900 0.48130 0.26340 0.03800
H 	H 	0.12810 0.46580 0.26540 -0.00900
O 	O 	0.67150 0.81520 0.72060 -0.72900
C 	C 	0.62160 0.86670 0.71978 0.13500
H 	H 	0.62650 0.85410 0.69910 -0.04300
C 	C 	0.59590 0.89200 0.71992 -0.24500
H 	H 	0.58290 0.89640 0.69940 0.08100
C 	C 	0.57260 0.97210 0.73840 0.24000
C 	C 	0.60620 0.98132 0.73230 -0.14200
H 	H 	0.62550 0.96630 0.72870 0.05700
C 	C 	0.57460 0.97390 0.75960 -0.17500
C 	C 	0.60900 0.98130 0.76340 0.04400
H 	H 	0.62810 0.96580 0.76540 -0.00900
O 	O 	0.82850 0.31520 0.77940 -0.72800
C 	C 	0.87840 0.36670 0.78022 0.13600
H 	H 	0.87350 0.35410 0.80090 -0.04200
C 	C 	0.90410 0.39200 0.78008 -0.24500
H 	H 	0.91710 0.39640 0.80060 0.08200
C 	C 	0.92740 0.47210 0.76160 0.23300
C 	C 	0.89380 0.48132 0.76770 -0.14500
H 	H 	0.87450 0.46630 0.77130 0.05700
C 	C 	0.92540 0.47390 0.74040 -0.17100
C 	C 	0.89100 0.48130 0.73660 0.03500
H 	H 	0.87190 0.46580 0.73460 -0.00800
O 	O 	0.32850 0.81520 0.27940 -0.72900
C 	C 	0.37840 0.86670 0.28022 0.13600
H 	H 	0.37350 0.85410 0.30090 -0.04300
C 	C 	0.40410 0.89200 0.28008 -0.24500
H 	H 	0.41710 0.89640 0.30060 0.08100
C 	C 	0.42740 0.97210 0.26160 0.23800
C 	C 	0.39380 0.98132 0.26770 -0.14100
H 	H 	0.37450 0.96630 0.27130 0.05700
C 	C 	0.42540 0.97390 0.24040 -0.17300
C 	C 	0.39100 0.98130 0.23660 0.04300
H 	H 	0.37190 0.96580 0.23460 -0.00900
O 	O 	0.17150 0.68480 0.77940 -0.72900
C 	C 	0.12160 0.63330 0.78022 0.13500
H 	H 	0.12650 0.64590 0.80090 -0.04300
C 	C 	0.09590 0.60800 0.78008 -0.24500
H 	H 	0.08290 0.60360 0.80060 0.08000
C 	C 	0.07260 0.52790 0.76160 0.23600
C 	C 	0.10620 0.51868 0.76770 -0.14700
H 	H 	0.12550 0.53370 0.77130 0.05700
C 	C 	0.07460 0.52610 0.74040 -0.17500
C 	C 	0.10900 0.51870 0.73660 0.03700
H 	H 	0.12810 0.53420 0.73460 -0.00900
O 	O 	0.67150 0.18480 0.27940 -0.72900
C 	C 	0.62160 0.13330 0.28022 0.13500
H 	H 	0.62650 0.14590 0.30090 -0.04300
C 	C 	0.59590 0.10800 0.28008 -0.24500
H 	H 	0.58290 0.10360 0.30060 0.08000
C 	C 	0.57260 0.02790 0.26160 0.23600
C 	C 	0.60620 0.01868 0.26770 -0.15300
H 	H 	0.62550 0.03370 0.27130 0.05800
C 	C 	0.57460 0.02610 0.24040 -0.17400
C 	C 	0.60900 0.01870 0.23660 0.03000
H 	H 	0.62810 0.03420 0.23460 -0.00800
O 	O 	0.68480 0.77940 0.17150 -0.72900
C 	C 	0.63330 0.78022 0.12160 0.13500
H 	H 	0.64590 0.80090 0.12650 -0.04300
C 	C 	0.60800 0.78008 0.09590 -0.24500
H 	H 	0.60360 0.80060 0.08290 0.08000
C 	C 	0.52790 0.76160 0.07260 0.23600
C 	C 	0.51868 0.76770 0.10620 -0.14700
H 	H 	0.53370 0.77130 0.12550 0.05700
C 	C 	0.52610 0.74040 0.07460 -0.17500
C 	C 	0.51870 0.73660 0.10900 0.03700
H 	H 	0.53420 0.73460 0.12810 -0.00900
O 	O 	0.18480 0.27940 0.67150 -0.72900
C 	C 	0.13330 0.28022 0.62160 0.13500
H 	H 	0.14590 0.30090 0.62650 -0.04300
C 	C 	0.10800 0.28008 0.59590 -0.24500
H 	H 	0.10360 0.30060 0.58290 0.08000
C 	C 	0.02790 0.26160 0.57260 0.23600
C 	C 	0.01868 0.26770 0.60620 -0.15300
H 	H 	0.03370 0.27130 0.62550 0.05800
C 	C 	0.02610 0.24040 0.57460 -0.17400
C 	C 	0.01870 0.23660 0.60900 0.03000
H 	H 	0.03420 0.23460 0.62810 -0.00800
O 	O 	0.31520 0.77940 0.82850 -0.72800
C 	C 	0.36670 0.78022 0.87840 0.13600
H 	H 	0.35410 0.80090 0.87350 -0.04200
C 	C 	0.39200 0.78008 0.90410 -0.24500
H 	H 	0.39640 0.80060 0.91710 0.08200
C 	C 	0.47210 0.76160 0.92740 0.23300
C 	C 	0.48132 0.76770 0.89380 -0.14500
H 	H 	0.46630 0.77130 0.87450 0.05700
C 	C 	0.47390 0.74040 0.92540 -0.17100
C 	C 	0.48130 0.73660 0.89100 0.03500
H 	H 	0.46580 0.73460 0.87190 -0.00800
O 	O 	0.81520 0.27940 0.32850 -0.72900
C 	C 	0.86670 0.28022 0.37840 0.13600
H 	H 	0.85410 0.30090 0.37350 -0.04300
C 	C 	0.89200 0.28008 0.40410 -0.24500
H 	H 	0.89640 0.30060 0.41710 0.08100
C 	C 	0.97210 0.26160 0.42740 0.23800
C 	C 	0.98132 0.26770 0.39380 -0.14100
H 	H 	0.96630 0.27130 0.37450 0.05700
C 	C 	0.97390 0.24040 0.42540 -0.17300
C 	C 	0.98130 0.23660 0.39100 0.04300
H 	H 	0.96580 0.23460 0.37190 -0.00900
O 	O 	0.31520 0.22060 0.17150 -0.72900
C 	C 	0.36670 0.21978 0.12160 0.13500
H 	H 	0.35410 0.19910 0.12650 -0.04400
C 	C 	0.39200 0.21992 0.09590 -0.24500
H 	H 	0.39640 0.19940 0.08290 0.08000
C 	C 	0.47210 0.23840 0.07260 0.23900
C 	C 	0.48132 0.23230 0.10620 -0.14800
H 	H 	0.46630 0.22870 0.12550 0.05700
C 	C 	0.47390 0.25960 0.07460 -0.17800
C 	C 	0.48130 0.26340 0.10900 0.03800
H 	H 	0.46580 0.26540 0.12810 -0.00900
O 	O 	0.81520 0.72060 0.67150 -0.72900
C 	C 	0.86670 0.71978 0.62160 0.13500
H 	H 	0.85410 0.69910 0.62650 -0.04300
C 	C 	0.89200 0.71992 0.59590 -0.24500
H 	H 	0.89640 0.69940 0.58290 0.08100
C 	C 	0.97210 0.73840 0.57260 0.24000
C 	C 	0.98132 0.73230 0.60620 -0.14200
H 	H 	0.96630 0.72870 0.62550 0.05700
C 	C 	0.97390 0.75960 0.57460 -0.17500
C 	C 	0.98130 0.76340 0.60900 0.04400
H 	H 	0.96580 0.76540 0.62810 -0.00900
O 	O 	0.68480 0.22060 0.82850 -0.72800
C 	C 	0.63330 0.21978 0.87840 0.13600
H 	H 	0.64590 0.19910 0.87350 -0.04300
C 	C 	0.60800 0.21992 0.90410 -0.24500
H 	H 	0.60360 0.19940 0.91710 0.08100
C 	C 	0.52790 0.23840 0.92740 0.23600
C 	C 	0.51868 0.23230 0.89380 -0.14600
H 	H 	0.53370 0.22870 0.87450 0.05700
C 	C 	0.52610 0.25960 0.92540 -0.17300
C 	C 	0.51870 0.26340 0.89100 0.03600
H 	H 	0.53420 0.26540 0.87190 -0.00800
O 	O 	0.18480 0.72060 0.32850 -0.72900
C 	C 	0.13330 0.71978 0.37840 0.13500
H 	H 	0.14590 0.69910 0.37350 -0.04300
C 	C 	0.10800 0.71992 0.40410 -0.24500
H 	H 	0.10360 0.69940 0.41710 0.08000
C 	C 	0.02790 0.73840 0.42740 0.23800
C 	C 	0.01868 0.73230 0.39380 -0.15400
H 	H 	0.03370 0.72870 0.37450 0.05800
C 	C 	0.02610 0.75960 0.42540 -0.17600
C 	C 	0.01870 0.76340 0.39100 0.03100
H 	H 	0.03420 0.76540 0.37190 -0.00800
O 	O 	0.77940 0.82850 0.31520 -0.72800
C 	C 	0.78022 0.87840 0.36670 0.13600
H 	H 	0.80090 0.87350 0.35410 -0.04200
C 	C 	0.78008 0.90410 0.39200 -0.24500
H 	H 	0.80060 0.91710 0.39640 0.08200
C 	C 	0.76160 0.92740 0.47210 0.23300
C 	C 	0.76770 0.89380 0.48132 -0.14500
H 	H 	0.77130 0.87450 0.46630 0.05700
C 	C 	0.74040 0.92540 0.47390 -0.17100
C 	C 	0.73660 0.89100 0.48130 0.03500
H 	H 	0.73460 0.87190 0.46580 -0.00800
O 	O 	0.27940 0.32850 0.81520 -0.72900
C 	C 	0.28022 0.37840 0.86670 0.13600
H 	H 	0.30090 0.37350 0.85410 -0.04300
C 	C 	0.28008 0.40410 0.89200 -0.24500
H 	H 	0.30060 0.41710 0.89640 0.08100
C 	C 	0.26160 0.42740 0.97210 0.23800
C 	C 	0.26770 0.39380 0.98132 -0.14100
H 	H 	0.27130 0.37450 0.96630 0.05700
C 	C 	0.24040 0.42540 0.97390 -0.17300
C 	C 	0.23660 0.39100 0.98130 0.04300
H 	H 	0.23460 0.37190 0.96580 -0.00900
O 	O 	0.77940 0.17150 0.68480 -0.72900
C 	C 	0.78022 0.12160 0.63330 0.13500
H 	H 	0.80090 0.12650 0.64590 -0.04300
C 	C 	0.78008 0.09590 0.60800 -0.24500
H 	H 	0.80060 0.08290 0.60360 0.08000
C 	C 	0.76160 0.07260 0.52790 0.23600
C 	C 	0.76770 0.10620 0.51868 -0.14700
H 	H 	0.77130 0.12550 0.53370 0.05700
C 	C 	0.74040 0.07460 0.52610 -0.17500
C 	C 	0.73660 0.10900 0.51870 0.03700
H 	H 	0.73460 0.12810 0.53420 -0.00900
O 	O 	0.27940 0.67150 0.18480 -0.72900
C 	C 	0.28022 0.62160 0.13330 0.13500
H 	H 	0.30090 0.62650 0.14590 -0.04300
C 	C 	0.28008 0.59590 0.10800 -0.24500
H 	H 	0.30060 0.58290 0.10360 0.08000
C 	C 	0.26160 0.57260 0.02790 0.23600
C 	C 	0.26770 0.60620 0.01868 -0.15300
H 	H 	0.27130 0.62550 0.03370 0.05800
C 	C 	0.24040 0.57460 0.02610 -0.17400
C 	C 	0.23660 0.60900 0.01870 0.03000
H 	H 	0.23460 0.62810 0.03420 -0.00800
O 	O 	0.22060 0.82850 0.68480 -0.72800
C 	C 	0.21978 0.87840 0.63330 0.13600
H 	H 	0.19910 0.87350 0.64590 -0.04300
C 	C 	0.21992 0.90410 0.60800 -0.24500
H 	H 	0.19940 0.91710 0.60360 0.08100
C 	C 	0.23840 0.92740 0.52790 0.23600
C 	C 	0.23230 0.89380 0.51868 -0.14600
H 	H 	0.22870 0.87450 0.53370 0.05700
C 	C 	0.25960 0.92540 0.52610 -0.17300
C 	C 	0.26340 0.89100 0.51870 0.03600
H 	H 	0.26540 0.87190 0.53420 -0.00800
O 	O 	0.72060 0.32850 0.18480 -0.72900
C 	C 	0.71978 0.37840 0.13330 0.13500
H 	H 	0.69910 0.37350 0.14590 -0.04300
C 	C 	0.71992 0.40410 0.10800 -0.24500
H 	H 	0.69940 0.41710 0.10360 0.08000
C 	C 	0.73840 0.42740 0.02790 0.23800
C 	C 	0.73230 0.39380 0.01868 -0.15400
H 	H 	0.72870 0.37450 0.03370 0.05800
C 	C 	0.75960 0.42540 0.02610 -0.17600
C 	C 	0.76340 0.39100 0.01870 0.03100
H 	H 	0.76540 0.37190 0.03420 -0.00800
O 	O 	0.22060 0.17150 0.31520 -0.72900
C 	C 	0.21978 0.12160 0.36670 0.13500
H 	H 	0.19910 0.12650 0.35410 -0.04400
C 	C 	0.21992 0.09590 0.39200 -0.24500
H 	H 	0.19940 0.08290 0.39640 0.08000
C 	C 	0.23840 0.07260 0.47210 0.23900
C 	C 	0.23230 0.10620 0.48132 -0.14800
H 	H 	0.22870 0.12550 0.46630 0.05700
C 	C 	0.25960 0.07460 0.47390 -0.17800
C 	C 	0.26340 0.10900 0.48130 0.03800
H 	H 	0.26540 0.12810 0.46580 -0.00900
O 	O 	0.72060 0.67150 0.81520 -0.72900
C 	C 	0.71978 0.62160 0.86670 0.13500
H 	H 	0.69910 0.62650 0.85410 -0.04300
C 	C 	0.71992 0.59590 0.89200 -0.24500
H 	H 	0.69940 0.58290 0.89640 0.08100
C 	C 	0.73840 0.57260 0.97210 0.24000
C 	C 	0.73230 0.60620 0.98132 -0.14200
H 	H 	0.72870 0.62550 0.96630 0.05700
C 	C 	0.75960 0.57460 0.97390 -0.17500
C 	C 	0.76340 0.60900 0.98130 0.04400
H 	H 	0.76540 0.62810 0.96580 -0.00900
Zr	Zr	0.27174 0.20715 0.20715 3.17900
O 	O 	0.29890 0.23790 0.23790 -1.39300
Zr	Zr	0.77174 0.70715 0.70715 3.17900
O 	O 	0.79890 0.73790 0.73790 -1.39200
Zr	Zr	0.72826 0.79285 0.20715 3.17900
O 	O 	0.70110 0.76210 0.23790 -1.39300
Zr	Zr	0.22826 0.29285 0.70715 3.17900
O 	O 	0.20110 0.26210 0.73790 -1.39300
Zr	Zr	0.72826 0.20715 0.79285 3.17900
O 	O 	0.70110 0.23790 0.76210 -1.39300
Zr	Zr	0.22826 0.70715 0.29285 3.17900
O 	O 	0.20110 0.73790 0.26210 -1.39300
Zr	Zr	0.27174 0.79285 0.79285 3.17900
O 	O 	0.29890 0.76210 0.76210 -1.39300
Zr	Zr	0.77174 0.29285 0.29285 3.17900
O 	O 	0.79890 0.26210 0.26210 -1.39300
Zr	Zr	0.20715 0.27174 0.20715 3.17900
O 	O 	0.23790 0.29890 0.23790 -1.39300
Zr	Zr	0.70715 0.77174 0.70715 3.17900
O 	O 	0.73790 0.79890 0.73790 -1.39200
Zr	Zr	0.20715 0.72826 0.79285 3.17900
O 	O 	0.23790 0.70110 0.76210 -1.39300
Zr	Zr	0.70715 0.22826 0.29285 3.17900
O 	O 	0.73790 0.20110 0.26210 -1.39300
Zr	Zr	0.79285 0.72826 0.20715 3.17900
O 	O 	0.76210 0.70110 0.23790 -1.39300
Zr	Zr	0.29285 0.22826 0.70715 3.17900
O 	O 	0.26210 0.20110 0.73790 -1.39300
Zr	Zr	0.79285 0.27174 0.79285 3.17900
O 	O 	0.76210 0.29890 0.76210 -1.39300
Zr	Zr	0.29285 0.77174 0.29285 3.17900
O 	O 	0.26210 0.79890 0.26210 -1.39300
Zr	Zr	0.20715 0.20715 0.27174 3.17900
O 	O 	0.23790 0.23790 0.29890 -1.39300
Zr	Zr	0.70715 0.70715 0.77174 3.17900
O 	O 	0.73790 0.73790 0.79890 -1.39200
Zr	Zr	0.79285 0.20715 0.72826 3.17900
O 	O 	0.76210 0.23790 0.70110 -1.39300
Zr	Zr	0.29285 0.70715 0.22826 3.17900
O 	O 	0.26210 0.73790 0.20110 -1.39300
Zr	Zr	0.20715 0.79285 0.72826 3.17900
O 	O 	0.23790 0.76210 0.70110 -1.39300
Zr	Zr	0.70715 0.29285 0.22826 3.17900
O 	O 	0.73790 0.26210 0.20110 -1.39300
Zr	Zr	0.79285 0.79285 0.27174 3.17900
O 	O 	0.76210 0.76210 0.29890 -1.39300
Zr	Zr	0.29285 0.29285 0.77174 3.17900
O 	O 	0.26210 0.26210 0.79890 -1.39300
Zr	Zr	0.20715 0.27174 0.79285 3.17900
O 	O 	0.23790 0.29890 0.76210 -1.39300
Zr	Zr	0.70715 0.77174 0.29285 3.17900
O 	O 	0.73790 0.79890 0.26210 -1.39300
Zr	Zr	0.79285 0.72826 0.79285 3.17900
O 	O 	0.76210 0.70110 0.76210 -1.39300
Zr	Zr	0.29285 0.22826 0.29285 3.17900
O 	O 	0.26210 0.20110 0.26210 -1.39300
Zr	Zr	0.20715 0.72826 0.20715 3.17900
O 	O 	0.23790 0.70110 0.23790 -1.39300
Zr	Zr	0.70715 0.22826 0.70715 3.17900
O 	O 	0.73790 0.20110 0.73790 -1.39300
Zr	Zr	0.79285 0.27174 0.20715 3.17900
O 	O 	0.76210 0.29890 0.23790 -1.39300
Zr	Zr	0.29285 0.77174 0.70715 3.17900
O 	O 	0.26210 0.79890 0.73790 -1.39300
Zr	Zr	0.27174 0.20715 0.79285 3.17900
O 	O 	0.29890 0.23790 0.76210 -1.39300
Zr	Zr	0.77174 0.70715 0.29285 3.17900
O 	O 	0.79890 0.73790 0.26210 -1.39300
Zr	Zr	0.72826 0.20715 0.20715 3.17900
O 	O 	0.70110 0.23790 0.23790 -1.39300
Zr	Zr	0.22826 0.70715 0.70715 3.17900
O 	O 	0.20110 0.73790 0.73790 -1.39300
Zr	Zr	0.72826 0.79285 0.79285 3.17900
O 	O 	0.70110 0.76210 0.76210 -1.39300
Zr	Zr	0.22826 0.29285 0.29285 3.17900
O 	O 	0.20110 0.26210 0.26210 -1.39300
Zr	Zr	0.27174 0.79285 0.20715 3.17900
O 	O 	0.29890 0.76210 0.23790 -1.39300
Zr	Zr	0.77174 0.29285 0.70715 3.17900
O 	O 	0.79890 0.26210 0.73790 -1.39300
Zr	Zr	0.20715 0.20715 0.72826 3.17900
O 	O 	0.23790 0.23790 0.70110 -1.39300
Zr	Zr	0.70715 0.70715 0.22826 3.17900
O 	O 	0.73790 0.73790 0.20110 -1.39300
Zr	Zr	0.20715 0.79285 0.27174 3.17900
O 	O 	0.23790 0.76210 0.29890 -1.39300
Zr	Zr	0.70715 0.29285 0.77174 3.17900
O 	O 	0.73790 0.26210 0.79890 -1.39300
Zr	Zr	0.79285 0.20715 0.27174 3.17900
O 	O 	0.76210 0.23790 0.29890 -1.39300
Zr	Zr	0.29285 0.70715 0.77174 3.17900
O 	O 	0.26210 0.73790 0.79890 -1.39300
Zr	Zr	0.79285 0.79285 0.72826 3.17900
O 	O 	0.76210 0.76210 0.70110 -1.39300
Zr	Zr	0.29285 0.29285 0.22826 3.17900
O 	O 	0.26210 0.26210 0.20110 -1.39300
Zr	Zr	0.50000 0.00000 0.25000 3.15800
Zr	Zr	0.50000 -0.00000 0.75000 3.15800
Zr	Zr	0.25000 0.50000 -0.00000 3.15800
Zr	Zr	0.75000 0.50000 -0.00000 3.15800
Zr	Zr	0.00000 0.25000 0.50000 3.15800
Zr	Zr	0.00000 0.75000 0.50000 3.15800
Zr	Zr	0.50000 0.25000 -0.00000 3.15800
Zr	Zr	0.00000 0.50000 0.75000 3.15800
Zr	Zr	0.00000 0.50000 0.25000 3.15800
Zr	Zr	0.50000 0.75000 -0.00000 3.15800
Zr	Zr	0.25000 0.00000 0.50000 3.15800
Zr	Zr	0.75000 0.00000 0.50000 3.15800
C 	C 	0.33290 0.16710 0.25000 0.45900
C 	C 	0.35964 0.14036 0.25000 -0.25100
C 	C 	0.41090 0.08910 0.25000 0.20200
C 	C 	0.43610 0.06390 0.25000 -0.23300
C 	C 	0.66710 0.83290 0.25000 0.45900
C 	C 	0.64036 0.85964 0.25000 -0.25000
C 	C 	0.58910 0.91090 0.25000 0.20300
C 	C 	0.56390 0.93610 0.25000 -0.23300
C 	C 	0.66710 0.16710 0.75000 0.45900
C 	C 	0.64036 0.14036 0.75000 -0.25100
C 	C 	0.58910 0.08910 0.75000 0.20200
C 	C 	0.56390 0.06390 0.75000 -0.23300
C 	C 	0.33290 0.83290 0.75000 0.45900
C 	C 	0.35964 0.85964 0.75000 -0.25000
C 	C 	0.41090 0.91090 0.75000 0.20300
C 	C 	0.43610 0.93610 0.75000 -0.23200
C 	C 	0.25000 0.33290 0.16710 0.45900
C 	C 	0.25000 0.35964 0.14036 -0.25100
C 	C 	0.25000 0.41090 0.08910 0.20200
C 	C 	0.25000 0.43610 0.06390 -0.23300
C 	C 	0.25000 0.66710 0.83290 0.45900
C 	C 	0.25000 0.64036 0.85964 -0.25000
C 	C 	0.25000 0.58910 0.91090 0.20300
C 	C 	0.25000 0.56390 0.93610 -0.23300
C 	C 	0.75000 0.66710 0.16710 0.45900
C 	C 	0.75000 0.64036 0.14036 -0.25100
C 	C 	0.75000 0.58910 0.08910 0.20200
C 	C 	0.75000 0.56390 0.06390 -0.23300
C 	C 	0.75000 0.33290 0.83290 0.45900
C 	C 	0.75000 0.35964 0.85964 -0.25000
C 	C 	0.75000 0.41090 0.91090 0.20300
C 	C 	0.75000 0.43610 0.93610 -0.23200
C 	C 	0.16710 0.25000 0.33290 0.45900
C 	C 	0.14036 0.25000 0.35964 -0.25100
C 	C 	0.08910 0.25000 0.41090 0.20200
C 	C 	0.06390 0.25000 0.43610 -0.23300
C 	C 	0.83290 0.25000 0.66710 0.45900
C 	C 	0.85964 0.25000 0.64036 -0.25000
C 	C 	0.91090 0.25000 0.58910 0.20300
C 	C 	0.93610 0.25000 0.56390 -0.23300
C 	C 	0.16710 0.75000 0.66710 0.45900
C 	C 	0.14036 0.75000 0.64036 -0.25100
C 	C 	0.08910 0.75000 0.58910 0.20200
C 	C 	0.06390 0.75000 0.56390 -0.23300
C 	C 	0.83290 0.75000 0.33290 0.45900
C 	C 	0.85964 0.75000 0.35964 -0.25000
C 	C 	0.91090 0.75000 0.41090 0.20300
C 	C 	0.93610 0.75000 0.43610 -0.23200
C 	C 	0.16710 0.33290 0.75000 0.45900
C 	C 	0.14036 0.35964 0.75000 -0.25100
C 	C 	0.08910 0.41090 0.75000 0.20200
C 	C 	0.06390 0.43610 0.75000 -0.23300
C 	C 	0.83290 0.66710 0.75000 0.45900
C 	C 	0.85964 0.64036 0.75000 -0.25000
C 	C 	0.91090 0.58910 0.75000 0.20300
C 	C 	0.93610 0.56390 0.75000 -0.23200
C 	C 	0.16710 0.66710 0.25000 0.45900
C 	C 	0.14036 0.64036 0.25000 -0.25100
C 	C 	0.08910 0.58910 0.25000 0.20200
C 	C 	0.06390 0.56390 0.25000 -0.23300
C 	C 	0.83290 0.33290 0.25000 0.45900
C 	C 	0.85964 0.35964 0.25000 -0.25100
C 	C 	0.91090 0.41090 0.25000 0.20300
C 	C 	0.93610 0.43610 0.25000 -0.23300
C 	C 	0.33290 0.25000 0.83290 0.45900
C 	C 	0.35964 0.25000 0.85964 -0.25100
C 	C 	0.41090 0.25000 0.91090 0.20300
C 	C 	0.43610 0.25000 0.93610 -0.23300
C 	C 	0.66710 0.25000 0.16710 0.45900
C 	C 	0.64036 0.25000 0.14036 -0.25100
C 	C 	0.58910 0.25000 0.08910 0.20200
C 	C 	0.56390 0.25000 0.06390 -0.23300
C 	C 	0.66710 0.75000 0.83290 0.45900
C 	C 	0.64036 0.75000 0.85964 -0.25000
C 	C 	0.58910 0.75000 0.91090 0.20300
C 	C 	0.56390 0.75000 0.93610 -0.23200
C 	C 	0.33290 0.75000 0.16710 0.45900
C 	C 	0.35964 0.75000 0.14036 -0.25100
C 	C 	0.41090 0.75000 0.08910 0.20200
C 	C 	0.43610 0.75000 0.06390 -0.23300
C 	C 	0.25000 0.16710 0.66710 0.45900
C 	C 	0.25000 0.14036 0.64036 -0.25100
C 	C 	0.25000 0.08910 0.58910 0.20200
C 	C 	0.25000 0.06390 0.56390 -0.23300
C 	C 	0.25000 0.83290 0.33290 0.45900
C 	C 	0.25000 0.85964 0.35964 -0.25100
C 	C 	0.25000 0.91090 0.41090 0.20300
C 	C 	0.25000 0.93610 0.43610 -0.23300
C 	C 	0.75000 0.16710 0.33290 0.45900
C 	C 	0.75000 0.14036 0.35964 -0.25100
C 	C 	0.75000 0.08910 0.41090 0.20200
C 	C 	0.75000 0.06390 0.43610 -0.23300
C 	C 	0.75000 0.83290 0.66710 0.45900
C 	C 	0.75000 0.85964 0.64036 -0.25000
C 	C 	0.75000 0.91090 0.58910 0.20300
C 	C 	0.75000 0.93610 0.56390 -0.23200
C 	C 	0.66710 0.83290 0.75000 0.45900
C 	C 	0.64036 0.85964 0.75000 -0.25000
C 	C 	0.58910 0.91090 0.75000 0.20300
C 	C 	0.56390 0.93610 0.75000 -0.23200
C 	C 	0.16710 0.33290 0.25000 0.45900
C 	C 	0.14036 0.35964 0.25000 -0.25100
C 	C 	0.08910 0.41090 0.25000 0.20200
C 	C 	0.06390 0.43610 0.25000 -0.23300
C 	C 	0.33290 0.16710 0.75000 0.45900
C 	C 	0.35964 0.14036 0.75000 -0.25100
C 	C 	0.41090 0.08910 0.75000 0.20200
C 	C 	0.43610 0.06390 0.75000 -0.23300
C 	C 	0.33290 0.83290 0.25000 0.45900
C 	C 	0.35964 0.85964 0.25000 -0.25100
C 	C 	0.41090 0.91090 0.25000 0.20300
C 	C 	0.43610 0.93610 0.25000 -0.23300
C 	C 	0.66710 0.16710 0.25000 0.45900
C 	C 	0.64036 0.14036 0.25000 -0.25100
C 	C 	0.58910 0.08910 0.25000 0.20200
C 	C 	0.56390 0.06390 0.25000 -0.23300
C 	C 	0.75000 0.66710 0.83290 0.45900
C 	C 	0.75000 0.64036 0.85964 -0.25000
C 	C 	0.75000 0.58910 0.91090 0.20300
C 	C 	0.75000 0.56390 0.93610 -0.23200
C 	C 	0.25000 0.16710 0.33290 0.45900
C 	C 	0.25000 0.14036 0.35964 -0.25100
C 	C 	0.25000 0.08910 0.41090 0.20200
C 	C 	0.25000 0.06390 0.43610 -0.23300
C 	C 	0.75000 0.33290 0.16710 0.45900
C 	C 	0.75000 0.35964 0.14036 -0.25100
C 	C 	0.75000 0.41090 0.08910 0.20200
C 	C 	0.75000 0.43610 0.06390 -0.23300
C 	C 	0.25000 0.33290 0.83290 0.45900
C 	C 	0.25000 0.35964 0.85964 -0.25100
C 	C 	0.25000 0.41090 0.91090 0.20300
C 	C 	0.25000 0.43610 0.93610 -0.23300
C 	C 	0.25000 0.66710 0.16710 0.45900
C 	C 	0.25000 0.64036 0.14036 -0.25100
C 	C 	0.25000 0.58910 0.08910 0.20200
C 	C 	0.25000 0.56390 0.06390 -0.23300
C 	C 	0.83290 0.75000 0.66710 0.45900
C 	C 	0.85964 0.75000 0.64036 -0.25000
C 	C 	0.91090 0.75000 0.58910 0.20300
C 	C 	0.93610 0.75000 0.56390 -0.23200
C 	C 	0.33290 0.25000 0.16710 0.45900
C 	C 	0.35964 0.25000 0.14036 -0.25100
C 	C 	0.41090 0.25000 0.08910 0.20200
C 	C 	0.43610 0.25000 0.06390 -0.23300
C 	C 	0.16710 0.75000 0.33290 0.45900
C 	C 	0.14036 0.75000 0.35964 -0.25100
C 	C 	0.08910 0.75000 0.41090 0.20200
C 	C 	0.06390 0.75000 0.43610 -0.23300
C 	C 	0.83290 0.25000 0.33290 0.45900
C 	C 	0.85964 0.25000 0.35964 -0.25100
C 	C 	0.91090 0.25000 0.41090 0.20300
C 	C 	0.93610 0.25000 0.43610 -0.23300
C 	C 	0.16710 0.25000 0.66710 0.45900
C 	C 	0.14036 0.25000 0.64036 -0.25100
C 	C 	0.08910 0.25000 0.58910 0.20200
C 	C 	0.06390 0.25000 0.56390 -0.23300
C 	C 	0.83290 0.66710 0.25000 0.45900
C 	C 	0.85964 0.64036 0.25000 -0.25000
C 	C 	0.91090 0.58910 0.25000 0.20300
C 	C 	0.93610 0.56390 0.25000 -0.23300
C 	C 	0.83290 0.33290 0.75000 0.45900
C 	C 	0.85964 0.35964 0.75000 -0.25000
C 	C 	0.91090 0.41090 0.75000 0.20300
C 	C 	0.93610 0.43610 0.75000 -0.23200
C 	C 	0.16710 0.66710 0.75000 0.45900
C 	C 	0.14036 0.64036 0.75000 -0.25100
C 	C 	0.08910 0.58910 0.75000 0.20200
C 	C 	0.06390 0.56390 0.75000 -0.23300
C 	C 	0.66710 0.75000 0.16710 0.45900
C 	C 	0.64036 0.75000 0.14036 -0.25100
C 	C 	0.58910 0.75000 0.08910 0.20200
C 	C 	0.56390 0.75000 0.06390 -0.23300
C 	C 	0.33290 0.75000 0.83290 0.45900
C 	C 	0.35964 0.75000 0.85964 -0.25000
C 	C 	0.41090 0.75000 0.91090 0.20300
C 	C 	0.43610 0.75000 0.93610 -0.23200
C 	C 	0.66710 0.25000 0.83290 0.45900
C 	C 	0.64036 0.25000 0.85964 -0.25000
C 	C 	0.58910 0.25000 0.91090 0.20300
C 	C 	0.56390 0.25000 0.93610 -0.23300
C 	C 	0.75000 0.83290 0.33290 0.45900
C 	C 	0.75000 0.85964 0.35964 -0.25000
C 	C 	0.75000 0.91090 0.41090 0.20300
C 	C 	0.75000 0.93610 0.43610 -0.23200
C 	C 	0.75000 0.16710 0.66710 0.45900
C 	C 	0.75000 0.14036 0.64036 -0.25100
C 	C 	0.75000 0.08910 0.58910 0.20200
C 	C 	0.75000 0.06390 0.56390 -0.23300
C 	C 	0.25000 0.83290 0.66710 0.45900
C 	C 	0.25000 0.85964 0.64036 -0.25000
C 	C 	0.25000 0.91090 0.58910 0.20300
C 	C 	0.25000 0.93610 0.56390 -0.23300
N 	N 	0.50000 0.04990 0.24260 -0.51400
N 	N 	0.50000 0.04980 0.25690 -0.13000
N 	N 	-0.00000 0.54990 0.74260 -0.51500
N 	N 	0.00000 0.54980 0.75690 -0.13200
N 	N 	0.50000 0.95010 0.24260 -0.50900
N 	N 	0.50000 0.95020 0.25690 -0.13200
N 	N 	-0.00000 0.45010 0.74260 -0.51500
N 	N 	0.00000 0.45020 0.75690 -0.13200
N 	N 	0.50000 0.04990 0.75740 -0.51100
N 	N 	0.50000 0.04980 0.74310 -0.13300
N 	N 	0.00000 0.54990 0.25740 -0.51300
N 	N 	-0.00000 0.54980 0.24310 -0.13500
N 	N 	0.50000 0.95010 0.75740 -0.50600
N 	N 	0.50000 0.95020 0.74310 -0.13500
N 	N 	0.00000 0.45010 0.25740 -0.51300
N 	N 	0.00000 0.45020 0.24310 -0.13500
N 	N 	0.24260 0.50000 0.04990 -0.51400
N 	N 	0.25690 0.50000 0.04980 -0.13000
N 	N 	0.74260 0.00000 0.54990 -0.51500
N 	N 	0.75690 -0.00000 0.54980 -0.13200
N 	N 	0.24260 0.50000 0.95010 -0.50900
N 	N 	0.25690 0.50000 0.95020 -0.13200
N 	N 	0.74260 0.00000 0.45010 -0.51500
N 	N 	0.75690 -0.00000 0.45020 -0.13200
N 	N 	0.75740 0.50000 0.04990 -0.51100
N 	N 	0.74310 0.50000 0.04980 -0.13300
N 	N 	0.25740 0.00000 0.54990 -0.51300
N 	N 	0.24310 -0.00000 0.54980 -0.13500
N 	N 	0.75740 0.50000 0.95010 -0.50600
N 	N 	0.74310 0.50000 0.95020 -0.13500
N 	N 	0.25740 0.00000 0.45010 -0.51300
N 	N 	0.24310 -0.00000 0.45020 -0.13500
N 	N 	0.04990 0.24260 0.50000 -0.51400
N 	N 	0.04980 0.25690 0.50000 -0.13000
N 	N 	0.54990 0.74260 -0.00000 -0.51500
N 	N 	0.54980 0.75690 -0.00000 -0.13200
N 	N 	0.95010 0.24260 0.50000 -0.50900
N 	N 	0.95020 0.25690 0.50000 -0.13200
N 	N 	0.45010 0.74260 -0.00000 -0.51500
N 	N 	0.45020 0.75690 -0.00000 -0.13200
N 	N 	0.04990 0.75740 0.50000 -0.51100
N 	N 	0.04980 0.74310 0.50000 -0.13300
N 	N 	0.54990 0.25740 -0.00000 -0.51300
N 	N 	0.54980 0.24310 -0.00000 -0.13500
N 	N 	0.95010 0.75740 0.50000 -0.50600
N 	N 	0.95020 0.74310 0.50000 -0.13500
N 	N 	0.45010 0.25740 -0.00000 -0.51300
N 	N 	0.45020 0.24310 -0.00000 -0.13500
N 	N 	0.04990 0.50000 0.75740 -0.51100
N 	N 	0.04980 0.50000 0.74310 -0.13300
N 	N 	0.54990 -0.00000 0.25740 -0.51300
N 	N 	0.54980 0.00000 0.24310 -0.13500
N 	N 	0.95010 0.50000 0.75740 -0.50600
N 	N 	0.95020 0.50000 0.74310 -0.13500
N 	N 	0.45010 -0.00000 0.25740 -0.51300
N 	N 	0.45020 0.00000 0.24310 -0.13500
N 	N 	0.04990 0.50000 0.24260 -0.51400
N 	N 	0.04980 0.50000 0.25690 -0.13000
N 	N 	0.54990 0.00000 0.74260 -0.51500
N 	N 	0.54980 0.00000 0.75690 -0.13200
N 	N 	0.95010 0.50000 0.24260 -0.50900
N 	N 	0.95020 0.50000 0.25690 -0.13200
N 	N 	0.45010 0.00000 0.74260 -0.51500
N 	N 	0.45020 0.00000 0.75690 -0.13200
N 	N 	0.50000 0.24260 0.95010 -0.50900
N 	N 	0.50000 0.25690 0.95020 -0.13200
N 	N 	-0.00000 0.74260 0.45010 -0.51500
N 	N 	0.00000 0.75690 0.45020 -0.13200
N 	N 	0.50000 0.24260 0.04990 -0.51400
N 	N 	0.50000 0.25690 0.04980 -0.13000
N 	N 	-0.00000 0.74260 0.54990 -0.51500
N 	N 	0.00000 0.75690 0.54980 -0.13200
N 	N 	0.50000 0.75740 0.95010 -0.50600
N 	N 	0.50000 0.74310 0.95020 -0.13500
N 	N 	0.00000 0.25740 0.45010 -0.51300
N 	N 	0.00000 0.24310 0.45020 -0.13500
N 	N 	0.50000 0.75740 0.04990 -0.51100
N 	N 	0.50000 0.74310 0.04980 -0.13300
N 	N 	0.00000 0.25740 0.54990 -0.51300
N 	N 	-0.00000 0.24310 0.54980 -0.13500
N 	N 	0.24260 0.04990 0.50000 -0.51400
N 	N 	0.25690 0.04980 0.50000 -0.13000
N 	N 	0.74260 0.54990 -0.00000 -0.51500
N 	N 	0.75690 0.54980 -0.00000 -0.13200
N 	N 	0.24260 0.95010 0.50000 -0.50900
N 	N 	0.25690 0.95020 0.50000 -0.13200
N 	N 	0.74260 0.45010 -0.00000 -0.51500
N 	N 	0.75690 0.45020 -0.00000 -0.13200
N 	N 	0.75740 0.04990 0.50000 -0.51100
N 	N 	0.74310 0.04980 0.50000 -0.13300
N 	N 	0.25740 0.54990 -0.00000 -0.51300
N 	N 	0.24310 0.54980 -0.00000 -0.13500
N 	N 	0.75740 0.95010 0.50000 -0.50600
N 	N 	0.74310 0.95020 0.50000 -0.13500
N 	N 	0.25740 0.45010 -0.00000 -0.51300
N 	N 	0.24310 0.45020 -0.00000 -0.13500
O 	O 	0.21653 0.21653 0.21653 -1.53000
O 	O 	0.71653 0.71653 0.71653 -1.52900
O 	O 	0.78347 0.78347 0.21653 -1.52800
O 	O 	0.28347 0.28347 0.71653 -1.52800
O 	O 	0.78347 0.21653 0.78347 -1.52800
O 	O 	0.28347 0.71653 0.28347 -1.52800
O 	O 	0.21653 0.78347 0.78347 -1.52800
O 	O 	0.71653 0.28347 0.28347 -1.52800
O 	O 	0.21653 0.21653 0.78347 -1.52900
O 	O 	0.71653 0.71653 0.28347 -1.52900
O 	O 	0.78347 0.78347 0.78347 -1.52700
O 	O 	0.28347 0.28347 0.28347 -1.52800
O 	O 	0.21653 0.78347 0.21653 -1.52900
O 	O 	0.71653 0.28347 0.71653 -1.52900
O 	O 	0.78347 0.21653 0.21653 -1.52900
O 	O 	0.28347 0.71653 0.71653 -1.52900
