data_crystal

_cell_length_a 10.58600
_cell_length_b 28.04300
_cell_length_c 17.44800
_cell_angle_alpha 90.00000
_cell_angle_beta  92.08000
_cell_angle_gamma 90.00000

_symmetry_space_group_name_	'P 1'
_symmetry_space_group_name_H-M	'P 1'

loop_
_symmetry_equiv_pos_as_xyz
  x,y,z

loop_
_atom_site_label
_atom_site_type_symbol
_atom_site_fract_x
_atom_site_fract_y
_atom_site_fract_z
_atom_site_charge
O 	O 	0.14900 0.38654 0.30560 -0.44200
N 	N 	0.07890 0.45725 0.16890 -0.27100
C 	C 	0.11120 0.35087 0.34390 0.32000
C 	C 	0.06250 0.44640 0.09550 0.07500
C 	C 	0.16220 0.49140 0.18670 0.08000
O 	O 	0.99700 0.34174 0.34850 -0.42500
C 	C 	0.21060 0.32429 0.39100 -0.04500
H 	H 	0.00060 0.42410 0.08180 -0.01900
C 	C 	0.13210 0.46620 0.03790 -0.13300
C 	C 	0.23490 0.51370 0.13300 -0.13400
H 	H 	0.17210 0.50070 0.23770 -0.02000
Zn	Zn	0.86147 0.28710 0.37077 1.21500
C 	C 	0.23240 0.33960 0.46570 -0.02600
C 	C 	0.28100 0.28610 0.36270 -0.05600
H 	H 	0.11840 0.45690 0.98720 0.06900
C 	C 	0.22230 0.50030 0.05720 0.04800
H 	H 	0.29170 0.53750 0.14800 0.08700
O 	O 	0.17310 0.28707 0.24250 -0.44800
O 	O 	0.49590 0.26435 0.60710 -0.39200
O 	O 	0.56180 0.22439 0.50820 -0.37900
N 	N 	0.73160 0.66010 0.89990 -0.25700
C 	C 	0.48890 0.25550 0.53720 0.28900
H 	H 	0.18590 0.36500 0.48430 0.04100
C 	C 	0.32310 0.31750 0.51320 -0.01800
C 	C 	0.37260 0.26510 0.41070 0.00100
C 	C 	0.25930 0.26700 0.28300 0.34900
C 	C 	0.30560 0.51970 0.00010 0.10300
C 	C 	0.69040 0.65310 0.97040 0.09500
C 	C 	0.68050 0.63290 0.84390 0.07100
C 	C 	0.39340 0.28030 0.48580 -0.05900
H 	H 	0.33640 0.32790 0.56350 0.05700
H 	H 	0.42110 0.24020 0.39210 0.06000
O 	O 	0.31990 0.23240 0.26290 -0.28800
N 	N 	0.30830 0.50370 0.92780 -0.16900
N 	N 	0.38990 0.55427 0.01310 -0.13000
C 	C 	0.59900 0.62090 0.98720 -0.14800
H 	H 	0.72600 0.67120 0.01020 -0.01700
C 	C 	0.58830 0.60000 0.85660 -0.13100
H 	H 	0.70870 0.63660 0.79430 0.00600
H 	H 	0.26140 0.48160 0.90790 0.11400
N 	N 	0.39930 0.52900 0.89110 -0.08500
C 	C 	0.44470 0.55880 0.94490 0.09000
C 	C 	0.54490 0.59330 0.92950 0.07300
H 	H 	0.57340 0.61760 0.03730 0.09400
H 	H 	0.55480 0.58200 0.81600 0.08800
O 	O 	0.64900 0.88654 0.30560 -0.44600
N 	N 	0.57890 0.95725 0.16890 -0.26600
C 	C 	0.61120 0.85087 0.34390 0.37000
C 	C 	0.56250 0.94640 0.09550 0.07900
C 	C 	0.66220 0.99140 0.18670 0.08600
O 	O 	0.49700 0.84174 0.34850 -0.47000
C 	C 	0.71060 0.82429 0.39100 -0.05500
H 	H 	0.50060 0.92410 0.08180 -0.00600
C 	C 	0.63210 0.96620 0.03790 -0.12900
C 	C 	0.73490 0.01370 0.13300 -0.13400
H 	H 	0.67210 0.00070 0.23770 -0.01500
Zn	Zn	0.36147 0.78710 0.37077 1.21000
C 	C 	0.73240 0.83960 0.46570 -0.01600
C 	C 	0.78100 0.78610 0.36270 -0.04600
H 	H 	0.61840 0.95690 0.98720 0.07600
C 	C 	0.72230 0.00030 0.05720 0.05300
H 	H 	0.79170 0.03750 0.14800 0.09400
O 	O 	0.67310 0.78707 0.24250 -0.43800
O 	O 	0.99590 0.76435 0.60710 -0.38400
O 	O 	0.06180 0.72439 0.50820 -0.42100
N 	N 	0.23160 0.16010 0.89990 -0.25000
C 	C 	0.98890 0.75550 0.53720 0.33600
H 	H 	0.68590 0.86500 0.48430 0.04700
C 	C 	0.82310 0.81750 0.51320 -0.01400
C 	C 	0.87260 0.76510 0.41070 0.00400
C 	C 	0.75930 0.76700 0.28300 0.34600
C 	C 	0.80560 0.01970 0.00010 0.10700
C 	C 	0.19040 0.15310 0.97040 0.06700
C 	C 	0.18050 0.13290 0.84390 0.04500
C 	C 	0.89340 0.78030 0.48580 -0.06200
H 	H 	0.83640 0.82790 0.56350 0.06200
H 	H 	0.92110 0.74020 0.39210 0.07000
O 	O 	0.81990 0.73240 0.26290 -0.27400
N 	N 	0.80830 0.00370 0.92780 -0.16700
N 	N 	0.88990 0.05427 0.01310 -0.13100
C 	C 	0.09900 0.12090 0.98720 -0.11200
H 	H 	0.22600 0.17120 0.01020 -0.01400
C 	C 	0.08830 0.10000 0.85660 -0.09400
H 	H 	0.20870 0.13660 0.79430 0.01100
H 	H 	0.76140 0.98160 0.90790 0.12000
N 	N 	0.89930 0.02900 0.89110 -0.08300
C 	C 	0.94470 0.05880 0.94490 0.14400
C 	C 	0.04490 0.09330 0.92950 0.00500
H 	H 	0.07340 0.11760 0.03730 0.06900
H 	H 	0.05480 0.08200 0.81600 0.06100
O 	O 	0.85100 0.38654 0.19440 -0.44800
N 	N 	0.92110 0.45725 0.33110 -0.25600
C 	C 	0.88880 0.35087 0.15610 0.42100
C 	C 	0.93750 0.44640 0.40450 0.08100
C 	C 	0.83780 0.49140 0.31330 0.08600
O 	O 	0.00300 0.34174 0.15150 -0.51200
C 	C 	0.78940 0.32429 0.10900 -0.07200
H 	H 	0.99940 0.42410 0.41820 0.00700
C 	C 	0.86790 0.46620 0.46210 -0.12400
C 	C 	0.76510 0.51370 0.36700 -0.12900
H 	H 	0.82790 0.50070 0.26230 -0.00900
Zn	Zn	0.13853 0.28710 0.12923 1.20700
C 	C 	0.76760 0.33960 0.03430 -0.00200
C 	C 	0.71900 0.28610 0.13730 -0.03900
H 	H 	0.88160 0.45690 0.51280 0.08200
C 	C 	0.77770 0.50030 0.44280 0.05300
H 	H 	0.70830 0.53750 0.35200 0.08900
O 	O 	0.82690 0.28707 0.25750 -0.43200
O 	O 	0.50410 0.26435 0.89290 -0.39200
O 	O 	0.43820 0.22439 0.99180 -0.38100
N 	N 	0.26840 0.66010 0.60010 -0.25700
C 	C 	0.51110 0.25550 0.96280 0.28600
H 	H 	0.81410 0.36500 0.01570 0.04900
C 	C 	0.67690 0.31750 0.98680 -0.02900
C 	C 	0.62740 0.26510 0.08930 -0.01100
C 	C 	0.74070 0.26700 0.21700 0.34200
C 	C 	0.69440 0.51970 0.49990 0.10900
C 	C 	0.30960 0.65310 0.52960 0.09300
C 	C 	0.31950 0.63290 0.65610 0.07100
C 	C 	0.60660 0.28030 0.01420 -0.05100
H 	H 	0.66360 0.32790 0.93650 0.06400
H 	H 	0.57890 0.24020 0.10790 0.06300
O 	O 	0.68010 0.23240 0.23710 -0.28000
N 	N 	0.69170 0.50370 0.57220 -0.16900
N 	N 	0.61010 0.55427 0.48690 -0.13000
C 	C 	0.40100 0.62090 0.51280 -0.14700
H 	H 	0.27400 0.67120 0.48980 -0.02000
C 	C 	0.41170 0.60000 0.64340 -0.13000
H 	H 	0.29130 0.63660 0.70570 0.00600
H 	H 	0.73860 0.48160 0.59210 0.12200
N 	N 	0.60070 0.52900 0.60890 -0.08300
C 	C 	0.55530 0.55880 0.55510 0.09200
C 	C 	0.45510 0.59330 0.57050 0.07300
H 	H 	0.42660 0.61760 0.46270 0.09200
H 	H 	0.44520 0.58200 0.68400 0.08700
O 	O 	0.35100 0.88654 0.19440 -0.45100
N 	N 	0.42110 0.95725 0.33110 -0.26500
C 	C 	0.38880 0.85087 0.15610 0.37200
C 	C 	0.43750 0.94640 0.40450 0.07800
C 	C 	0.33780 0.99140 0.31330 0.08200
O 	O 	0.50300 0.84174 0.15150 -0.47000
C 	C 	0.28940 0.82429 0.10900 -0.06400
H 	H 	0.49940 0.92410 0.41820 -0.00600
C 	C 	0.36790 0.96620 0.46210 -0.12800
C 	C 	0.26510 0.01370 0.36700 -0.13200
H 	H 	0.32790 0.00070 0.26230 -0.01700
Zn	Zn	0.63853 0.78710 0.12923 1.21200
C 	C 	0.26760 0.83960 0.03430 -0.00700
C 	C 	0.21900 0.78610 0.13730 -0.04600
H 	H 	0.38160 0.95690 0.51280 0.07500
C 	C 	0.27770 0.00030 0.44280 0.04800
H 	H 	0.20830 0.03750 0.35200 0.08200
O 	O 	0.32690 0.78707 0.25750 -0.44100
O 	O 	0.00410 0.76435 0.89290 -0.40000
O 	O 	0.93820 0.72439 0.99180 -0.33900
N 	N 	0.76840 0.16010 0.60010 -0.26400
C 	C 	0.01110 0.75550 0.96280 0.23700
H 	H 	0.31410 0.86500 0.01570 0.04200
C 	C 	0.17690 0.81750 0.98680 -0.04000
C 	C 	0.12740 0.76510 0.08930 -0.01800
C 	C 	0.24070 0.76700 0.21700 0.34400
C 	C 	0.19440 0.01970 0.49990 0.10300
C 	C 	0.80960 0.15310 0.52960 0.12000
C 	C 	0.81950 0.13290 0.65610 0.09700
C 	C 	0.10660 0.78030 0.01420 -0.04200
H 	H 	0.16360 0.82790 0.93650 0.06200
H 	H 	0.07890 0.74020 0.10790 0.05500
O 	O 	0.18010 0.73240 0.23710 -0.29300
N 	N 	0.19170 0.00370 0.57220 -0.17000
N 	N 	0.11010 0.05427 0.48690 -0.13000
C 	C 	0.90100 0.12090 0.51280 -0.18200
H 	H 	0.77400 0.17120 0.48980 -0.02300
C 	C 	0.91170 0.10000 0.64340 -0.16700
H 	H 	0.79130 0.13660 0.70570 0.00000
H 	H 	0.23860 0.98160 0.59210 0.11500
N 	N 	0.10070 0.02900 0.60890 -0.08600
C 	C 	0.05530 0.05880 0.55510 0.04000
C 	C 	0.95510 0.09330 0.57050 0.14000
H 	H 	0.92660 0.11760 0.46270 0.11800
H 	H 	0.94520 0.08200 0.68400 0.11300
O 	O 	0.85100 0.61346 0.69440 -0.44800
N 	N 	0.92110 0.54275 0.83110 -0.25500
C 	C 	0.88880 0.64913 0.65610 0.42200
C 	C 	0.93750 0.55360 0.90450 0.08100
C 	C 	0.83780 0.50860 0.81330 0.08600
O 	O 	0.00300 0.65826 0.65150 -0.51300
C 	C 	0.78940 0.67571 0.60900 -0.07300
H 	H 	0.99940 0.57590 0.91820 0.00700
C 	C 	0.86790 0.53380 0.96210 -0.12400
C 	C 	0.76510 0.48630 0.86700 -0.12900
H 	H 	0.82790 0.49930 0.76230 -0.00900
Zn	Zn	0.13853 0.71290 0.62923 1.20700
C 	C 	0.76760 0.66040 0.53430 -0.00200
C 	C 	0.71900 0.71390 0.63730 -0.03800
H 	H 	0.88160 0.54310 0.01280 0.08200
C 	C 	0.77770 0.49970 0.94280 0.05300
H 	H 	0.70830 0.46250 0.85200 0.08900
O 	O 	0.82690 0.71293 0.75750 -0.43200
O 	O 	0.50410 0.73565 0.39290 -0.39200
O 	O 	0.43820 0.77561 0.49180 -0.38100
N 	N 	0.26840 0.33990 0.10010 -0.25700
C 	C 	0.51110 0.74450 0.46280 0.28600
H 	H 	0.81410 0.63500 0.51570 0.04900
C 	C 	0.67690 0.68250 0.48680 -0.03000
C 	C 	0.62740 0.73490 0.58930 -0.01100
C 	C 	0.74070 0.73300 0.71700 0.34200
C 	C 	0.69440 0.48030 0.99990 0.10900
C 	C 	0.30960 0.34690 0.02960 0.09400
C 	C 	0.31950 0.36710 0.15610 0.07100
C 	C 	0.60660 0.71970 0.51420 -0.05000
H 	H 	0.66360 0.67210 0.43650 0.06400
H 	H 	0.57890 0.75980 0.60790 0.06400
O 	O 	0.68010 0.76760 0.73710 -0.28000
N 	N 	0.69170 0.49630 0.07220 -0.16900
N 	N 	0.61010 0.44573 0.98690 -0.13000
C 	C 	0.40100 0.37910 0.01280 -0.14700
H 	H 	0.27400 0.32880 0.98980 -0.02100
C 	C 	0.41170 0.40000 0.14340 -0.13000
H 	H 	0.29130 0.36340 0.20570 0.00600
H 	H 	0.73860 0.51840 0.09210 0.12200
N 	N 	0.60070 0.47100 0.10890 -0.08300
C 	C 	0.55530 0.44120 0.05510 0.09200
C 	C 	0.45510 0.40670 0.07050 0.07300
H 	H 	0.42660 0.38240 0.96270 0.09200
H 	H 	0.44520 0.41800 0.18400 0.08700
O 	O 	0.35100 0.11346 0.69440 -0.45100
N 	N 	0.42110 0.04275 0.83110 -0.26500
C 	C 	0.38880 0.14913 0.65610 0.37100
C 	C 	0.43750 0.05360 0.90450 0.07800
C 	C 	0.33780 0.00860 0.81330 0.08300
O 	O 	0.50300 0.15826 0.65150 -0.47000
C 	C 	0.28940 0.17571 0.60900 -0.06200
H 	H 	0.49940 0.07590 0.91820 -0.00600
C 	C 	0.36790 0.03380 0.96210 -0.12700
C 	C 	0.26510 0.98630 0.86700 -0.13200
H 	H 	0.32790 0.99930 0.76230 -0.01700
Zn	Zn	0.63853 0.21290 0.62923 1.21200
C 	C 	0.26760 0.16040 0.53430 -0.01100
C 	C 	0.21900 0.21390 0.63730 -0.04800
H 	H 	0.38160 0.04310 0.01280 0.07500
C 	C 	0.27770 0.99970 0.94280 0.04800
H 	H 	0.20830 0.96250 0.85200 0.08200
O 	O 	0.32690 0.21293 0.75750 -0.44100
O 	O 	0.00410 0.23565 0.39290 -0.40000
O 	O 	0.93820 0.27561 0.49180 -0.33900
N 	N 	0.76840 0.83990 0.10010 -0.26400
C 	C 	0.01110 0.24450 0.46280 0.23900
H 	H 	0.31410 0.13500 0.51570 0.04300
C 	C 	0.17690 0.18250 0.48680 -0.03400
C 	C 	0.12740 0.23490 0.58930 -0.01500
C 	C 	0.24070 0.23300 0.71700 0.34500
C 	C 	0.19440 0.98030 0.99990 0.10200
C 	C 	0.80960 0.84690 0.02960 0.12000
C 	C 	0.81950 0.86710 0.15610 0.09600
C 	C 	0.10660 0.21970 0.51420 -0.04700
H 	H 	0.16360 0.17210 0.43650 0.06000
H 	H 	0.07890 0.25980 0.60790 0.05400
O 	O 	0.18010 0.26760 0.73710 -0.29400
N 	N 	0.19170 0.99630 0.07220 -0.16900
N 	N 	0.11010 0.94573 0.98690 -0.13100
C 	C 	0.90100 0.87910 0.01280 -0.18100
H 	H 	0.77400 0.82880 0.98980 -0.02400
C 	C 	0.91170 0.90000 0.14340 -0.16600
H 	H 	0.79130 0.86340 0.20570 0.00000
H 	H 	0.23860 0.01840 0.09210 0.11500
N 	N 	0.10070 0.97100 0.10890 -0.08600
C 	C 	0.05530 0.94120 0.05510 0.04200
C 	C 	0.95510 0.90670 0.07050 0.13800
H 	H 	0.92660 0.88240 0.96270 0.11700
H 	H 	0.94520 0.91800 0.18400 0.11300
O 	O 	0.14900 0.61346 0.80560 -0.44300
N 	N 	0.07890 0.54275 0.66890 -0.27300
C 	C 	0.11120 0.64913 0.84390 0.31800
C 	C 	0.06250 0.55360 0.59550 0.07600
C 	C 	0.16220 0.50860 0.68670 0.08000
O 	O 	0.99700 0.65826 0.84850 -0.42500
C 	C 	0.21060 0.67571 0.89100 -0.04300
H 	H 	0.00060 0.57590 0.58180 -0.01900
C 	C 	0.13210 0.53380 0.53790 -0.13500
C 	C 	0.23490 0.48630 0.63300 -0.13500
H 	H 	0.17210 0.49930 0.73770 -0.02000
Zn	Zn	0.86147 0.71290 0.87077 1.21500
C 	C 	0.23240 0.66040 0.96570 -0.02900
C 	C 	0.28100 0.71390 0.86270 -0.05700
H 	H 	0.11840 0.54310 0.48720 0.07000
C 	C 	0.22230 0.49970 0.55720 0.04900
H 	H 	0.29170 0.46250 0.64800 0.08700
O 	O 	0.17310 0.71293 0.74250 -0.44800
O 	O 	0.49590 0.73565 0.10710 -0.39200
O 	O 	0.56180 0.77561 0.00820 -0.37900
N 	N 	0.73160 0.33990 0.39990 -0.25600
C 	C 	0.48890 0.74450 0.03720 0.29000
H 	H 	0.18590 0.63500 0.98430 0.04200
C 	C 	0.32310 0.68250 0.01320 -0.01400
C 	C 	0.37260 0.73490 0.91070 0.00200
C 	C 	0.25930 0.73300 0.78300 0.34900
C 	C 	0.30560 0.48030 0.50010 0.10200
C 	C 	0.69040 0.34690 0.47040 0.09400
C 	C 	0.68050 0.36710 0.34390 0.07100
C 	C 	0.39340 0.71970 0.98580 -0.06200
H 	H 	0.33640 0.67210 0.06350 0.05600
H 	H 	0.42110 0.75980 0.89210 0.05900
O 	O 	0.31990 0.76760 0.76290 -0.28800
N 	N 	0.30830 0.49630 0.42780 -0.16900
N 	N 	0.38990 0.44573 0.51310 -0.13000
C 	C 	0.59900 0.37910 0.48720 -0.14600
H 	H 	0.72600 0.32880 0.51020 -0.01700
C 	C 	0.58830 0.40000 0.35660 -0.13000
H 	H 	0.70870 0.36340 0.29430 0.00600
H 	H 	0.26140 0.51840 0.40790 0.11400
N 	N 	0.39930 0.47100 0.39110 -0.08500
C 	C 	0.44470 0.44120 0.44490 0.09100
C 	C 	0.54490 0.40670 0.42950 0.07200
H 	H 	0.57340 0.38240 0.53730 0.09300
H 	H 	0.55480 0.41800 0.31600 0.08700
O 	O 	0.64900 0.11346 0.80560 -0.44600
N 	N 	0.57890 0.04275 0.66890 -0.26600
C 	C 	0.61120 0.14913 0.84390 0.37000
C 	C 	0.56250 0.05360 0.59550 0.08000
C 	C 	0.66220 0.00860 0.68670 0.08600
O 	O 	0.49700 0.15826 0.84850 -0.47000
C 	C 	0.71060 0.17571 0.89100 -0.05600
H 	H 	0.50060 0.07590 0.58180 -0.00700
C 	C 	0.63210 0.03380 0.53790 -0.13100
C 	C 	0.73490 0.98630 0.63300 -0.13400
H 	H 	0.67210 0.99930 0.73770 -0.01500
Zn	Zn	0.36147 0.21290 0.87077 1.21000
C 	C 	0.73240 0.16040 0.96570 -0.01300
C 	C 	0.78100 0.21390 0.86270 -0.04500
H 	H 	0.61840 0.04310 0.48720 0.07700
C 	C 	0.72230 0.99970 0.55720 0.05500
H 	H 	0.79170 0.96250 0.64800 0.09400
O 	O 	0.67310 0.21293 0.74250 -0.43800
O 	O 	0.99590 0.23565 0.10710 -0.38400
O 	O 	0.06180 0.27561 0.00820 -0.41900
N 	N 	0.23160 0.83990 0.39990 -0.25000
C 	C 	0.98890 0.24450 0.03720 0.33300
H 	H 	0.68590 0.13500 0.98430 0.04600
C 	C 	0.82310 0.18250 0.01320 -0.01700
C 	C 	0.87260 0.23490 0.91070 0.00200
C 	C 	0.75930 0.23300 0.78300 0.34600
C 	C 	0.80560 0.98030 0.50010 0.10800
C 	C 	0.19040 0.84690 0.47040 0.06800
C 	C 	0.18050 0.86710 0.34390 0.04500
C 	C 	0.89340 0.21970 0.98580 -0.05900
H 	H 	0.83640 0.17210 0.06350 0.06300
H 	H 	0.92110 0.25980 0.89210 0.07000
O 	O 	0.81990 0.26760 0.76290 -0.27400
N 	N 	0.80830 0.99630 0.42780 -0.16800
N 	N 	0.88990 0.94573 0.51310 -0.13000
C 	C 	0.09900 0.87910 0.48720 -0.11200
H 	H 	0.22600 0.82880 0.51020 -0.01400
C 	C 	0.08830 0.90000 0.35660 -0.09400
H 	H 	0.20870 0.86340 0.29430 0.01100
H 	H 	0.76140 0.01840 0.40790 0.12000
N 	N 	0.89930 0.97100 0.39110 -0.08300
C 	C 	0.94470 0.94120 0.44490 0.14300
C 	C 	0.04490 0.90670 0.42950 0.00500
H 	H 	0.07340 0.88240 0.53730 0.06800
H 	H 	0.05480 0.91800 0.31600 0.06200
Zn	Zn	0.00000 0.41412 0.25000 1.19700
Zn	Zn	0.50000 0.91412 0.25000 1.21000
Zn	Zn	0.00000 0.58588 0.75000 1.19700
Zn	Zn	0.50000 0.08588 0.75000 1.21000
