data_crystal

_cell_length_a 22.66550
_cell_length_b 18.86560
_cell_length_c 24.60360
_cell_angle_alpha 90.00000
_cell_angle_beta  107.22800
_cell_angle_gamma 90.00000

_symmetry_space_group_name_	'P 1'
_symmetry_space_group_name_H-M	'P 1'

loop_
_symmetry_equiv_pos_as_xyz
  x,y,z

loop_
_atom_site_label
_atom_site_type_symbol
_atom_site_fract_x
_atom_site_fract_y
_atom_site_fract_z
_atom_site_charge
Ag	Ag	0.23663 0.59538 0.94711 0.52800
Ag	Ag	0.06788 0.07225 0.52235 0.49100
Ag	Ag	0.83410 0.72747 0.48353 0.53200
Cl	Cl	0.31020 0.67396 0.03140 -0.57300
C 	C 	0.23010 0.58980 0.82340 0.06300
H 	H 	0.23460 0.54220 0.83360 -0.01200
C 	C 	0.22390 0.60790 0.76820 -0.13000
H 	H 	0.22380 0.57330 0.74130 0.08300
C 	C 	0.21760 0.67930 0.75280 0.05600
C 	C 	0.21870 0.72930 0.79410 -0.13500
H 	H 	0.21600 0.77750 0.78550 0.08000
C 	C 	0.22400 0.70570 0.84870 0.06700
H 	H 	0.22320 0.73920 0.87620 -0.01100
C 	C 	0.19410 0.55760 0.47240 0.06900
H 	H 	0.18050 0.56280 0.43300 -0.00500
C 	C 	0.18390 0.61320 0.50590 -0.12800
H 	H 	0.16200 0.65320 0.48920 0.07900
C 	C 	0.20690 0.60750 0.56390 0.05500
C 	C 	0.23710 0.54600 0.58710 -0.11900
H 	H 	0.25200 0.54040 0.62640 0.07800
C 	C 	0.24480 0.49310 0.55130 0.05500
H 	H 	0.26640 0.45260 0.56730 0.01400
C 	C 	0.13860 0.96960 0.61390 0.07200
H 	H 	0.13360 0.00510 0.63840 -0.02400
C 	C 	0.16170 0.90590 0.63690 -0.14200
H 	H 	0.17250 0.89870 0.67610 0.08100
C 	C 	0.16850 0.85240 0.60100 0.05700
C 	C 	0.15450 0.86730 0.54250 -0.12900
H 	H 	0.16000 0.83310 0.51710 0.08000
C 	C 	0.13250 0.93390 0.52370 0.05600
H 	H 	0.12400 0.94440 0.48520 -0.01800
C 	C 	0.20940 0.69880 0.69300 0.09800
C 	C 	0.20210 0.66470 0.60360 0.10100
C 	C 	0.18620 0.77780 0.62140 0.09900
C 	C 	0.00230 0.15620 0.41830 0.07600
H 	H 	0.01060 0.11570 0.40030 -0.01900
C 	C 	0.98060 0.21480 0.38680 -0.14200
H 	H 	0.97510 0.21440 0.34780 0.08700
C 	C 	0.96670 0.27430 0.41180 0.06500
C 	C 	0.97240 0.27280 0.46990 -0.14200
H 	H 	0.96100 0.31150 0.48790 0.08400
C 	C 	0.99550 0.21170 0.49960 0.06600
H 	H 	0.99960 0.20990 0.53830 -0.02200
C 	C 	0.92030 0.44970 0.14480 0.06300
H 	H 	0.92240 0.49090 0.12480 0.00700
C 	C 	0.92320 0.45580 0.20130 -0.13000
H 	H 	0.92530 0.49980 0.21870 0.07900
C 	C 	0.92270 0.39320 0.23150 0.06300
C 	C 	0.92000 0.33030 0.20520 -0.12600
H 	H 	0.92150 0.28830 0.22530 0.08400
C 	C 	0.91480 0.32920 0.14750 0.06600
H 	H 	0.91140 0.28550 0.12940 0.00700
C 	C 	0.89800 0.58660 0.47860 0.06000
H 	H 	0.91090 0.59280 0.51790 -0.00200
C 	C 	0.91660 0.52660 0.45560 -0.11900
H 	H 	0.94100 0.49270 0.47940 0.07800
C 	C 	0.89880 0.51700 0.39710 0.05000
C 	C 	0.86130 0.56920 0.36330 -0.12700
H 	H 	0.84780 0.56460 0.32390 0.07700
C 	C 	0.84480 0.62770 0.38960 0.06900
H 	H 	0.82070 0.66270 0.36700 -0.01300
C 	C 	0.94560 0.34010 0.37790 0.10200
C 	C 	0.92520 0.39600 0.29440 0.10600
C 	C 	0.91660 0.45390 0.37070 0.10300
N 	N 	0.23010 0.63860 0.86380 -0.20300
N 	N 	0.22250 0.49720 0.49400 -0.19100
N 	N 	0.12310 0.98400 0.55900 -0.21900
N 	N 	0.19810 0.76680 0.67750 -0.14100
N 	N 	0.21120 0.64620 0.65720 -0.14100
N 	N 	0.18730 0.73000 0.58240 -0.14100
N 	N 	0.01210 0.15520 0.47520 -0.21200
N 	N 	0.91460 0.38730 0.11700 -0.15000
N 	N 	0.86200 0.63590 0.44590 -0.20100
N 	N 	0.93510 0.39820 0.40450 -0.14000
N 	N 	0.93960 0.33500 0.32220 -0.13900
N 	N 	0.91230 0.45650 0.31540 -0.14300
Ag	Ag	0.73663 0.09538 0.94711 0.52800
Ag	Ag	0.56788 0.57225 0.52235 0.49200
Ag	Ag	0.33410 0.22747 0.48353 0.53300
Cl	Cl	0.81020 0.17396 0.03140 -0.57000
C 	C 	0.73010 0.08980 0.82340 0.06300
H 	H 	0.73460 0.04220 0.83360 -0.01200
C 	C 	0.72390 0.10790 0.76820 -0.13000
H 	H 	0.72380 0.07330 0.74130 0.08200
C 	C 	0.71760 0.17930 0.75280 0.05600
C 	C 	0.71870 0.22930 0.79410 -0.13500
H 	H 	0.71600 0.27750 0.78550 0.08000
C 	C 	0.72400 0.20570 0.84870 0.06700
H 	H 	0.72320 0.23920 0.87620 -0.01100
C 	C 	0.69410 0.05760 0.47240 0.06900
H 	H 	0.68050 0.06280 0.43300 -0.00500
C 	C 	0.68390 0.11320 0.50590 -0.12800
H 	H 	0.66200 0.15320 0.48920 0.07900
C 	C 	0.70690 0.10750 0.56390 0.05500
C 	C 	0.73710 0.04600 0.58710 -0.11900
H 	H 	0.75200 0.04040 0.62640 0.07800
C 	C 	0.74480 0.99310 0.55130 0.05500
H 	H 	0.76640 0.95260 0.56730 0.01400
C 	C 	0.63860 0.46960 0.61390 0.07100
H 	H 	0.63360 0.50510 0.63840 -0.02400
C 	C 	0.66170 0.40590 0.63690 -0.14100
H 	H 	0.67250 0.39870 0.67610 0.08100
C 	C 	0.66850 0.35240 0.60100 0.05700
C 	C 	0.65450 0.36730 0.54250 -0.12900
H 	H 	0.66000 0.33310 0.51710 0.08000
C 	C 	0.63250 0.43390 0.52370 0.05500
H 	H 	0.62400 0.44440 0.48520 -0.01800
C 	C 	0.70940 0.19880 0.69300 0.09800
C 	C 	0.70210 0.16470 0.60360 0.10100
C 	C 	0.68620 0.27780 0.62140 0.09900
C 	C 	0.50230 0.65620 0.41830 0.07700
H 	H 	0.51060 0.61570 0.40030 -0.01900
C 	C 	0.48060 0.71480 0.38680 -0.14300
H 	H 	0.47510 0.71440 0.34780 0.08700
C 	C 	0.46670 0.77430 0.41180 0.06500
C 	C 	0.47240 0.77280 0.46990 -0.14200
H 	H 	0.46100 0.81150 0.48790 0.08400
C 	C 	0.49550 0.71170 0.49960 0.06600
H 	H 	0.49960 0.70990 0.53830 -0.02200
C 	C 	0.42030 0.94970 0.14480 0.06300
H 	H 	0.42240 0.99090 0.12480 0.00700
C 	C 	0.42320 0.95580 0.20130 -0.13000
H 	H 	0.42530 0.99980 0.21870 0.07900
C 	C 	0.42270 0.89320 0.23150 0.06300
C 	C 	0.42000 0.83030 0.20520 -0.12600
H 	H 	0.42150 0.78830 0.22530 0.08400
C 	C 	0.41480 0.82920 0.14750 0.06600
H 	H 	0.41140 0.78550 0.12940 0.00600
C 	C 	0.39800 0.08660 0.47860 0.06000
H 	H 	0.41090 0.09280 0.51790 -0.00200
C 	C 	0.41660 0.02660 0.45560 -0.11900
H 	H 	0.44100 0.99270 0.47940 0.07800
C 	C 	0.39880 0.01700 0.39710 0.05000
C 	C 	0.36130 0.06920 0.36330 -0.12700
H 	H 	0.34780 0.06460 0.32390 0.07700
C 	C 	0.34480 0.12770 0.38960 0.06900
H 	H 	0.32070 0.16270 0.36700 -0.01300
C 	C 	0.44560 0.84010 0.37790 0.10200
C 	C 	0.42520 0.89600 0.29440 0.10600
C 	C 	0.41660 0.95390 0.37070 0.10300
N 	N 	0.73010 0.13860 0.86380 -0.20300
N 	N 	0.72250 0.99720 0.49400 -0.19100
N 	N 	0.62310 0.48400 0.55900 -0.21900
N 	N 	0.69810 0.26680 0.67750 -0.14100
N 	N 	0.71120 0.14620 0.65720 -0.14100
N 	N 	0.68730 0.23000 0.58240 -0.14100
N 	N 	0.51210 0.65520 0.47520 -0.21200
N 	N 	0.41460 0.88730 0.11700 -0.15000
N 	N 	0.36200 0.13590 0.44590 -0.20100
N 	N 	0.43510 0.89820 0.40450 -0.14000
N 	N 	0.43960 0.83500 0.32220 -0.13900
N 	N 	0.41230 0.95650 0.31540 -0.14300
Ag	Ag	0.23663 0.40462 0.44711 0.52900
Ag	Ag	0.06788 0.92775 0.02235 0.49100
Ag	Ag	0.83410 0.27253 0.98353 0.53200
Cl	Cl	0.31020 0.32604 0.53140 -0.57100
C 	C 	0.23010 0.41020 0.32340 0.06300
H 	H 	0.23460 0.45780 0.33360 -0.01200
C 	C 	0.22390 0.39210 0.26820 -0.13000
H 	H 	0.22380 0.42670 0.24130 0.08300
C 	C 	0.21760 0.32070 0.25280 0.05600
C 	C 	0.21870 0.27070 0.29410 -0.13500
H 	H 	0.21600 0.22250 0.28550 0.08000
C 	C 	0.22400 0.29430 0.34870 0.06700
H 	H 	0.22320 0.26080 0.37620 -0.01100
C 	C 	0.19410 0.44240 0.97240 0.07100
H 	H 	0.18050 0.43720 0.93300 -0.00600
C 	C 	0.18390 0.38680 0.00590 -0.13000
H 	H 	0.16200 0.34680 0.98920 0.08000
C 	C 	0.20690 0.39250 0.06390 0.05600
C 	C 	0.23710 0.45400 0.08710 -0.12000
H 	H 	0.25200 0.45960 0.12640 0.07800
C 	C 	0.24480 0.50690 0.05130 0.05500
H 	H 	0.26640 0.54740 0.06730 0.01400
C 	C 	0.13860 0.03040 0.11390 0.07300
H 	H 	0.13360 0.99490 0.13840 -0.02500
C 	C 	0.16170 0.09410 0.13690 -0.14200
H 	H 	0.17250 0.10130 0.17610 0.08100
C 	C 	0.16850 0.14760 0.10100 0.05800
C 	C 	0.15450 0.13270 0.04250 -0.12900
H 	H 	0.16000 0.16690 0.01710 0.08100
C 	C 	0.13250 0.06610 0.02370 0.05600
H 	H 	0.12400 0.05560 0.98520 -0.01800
C 	C 	0.20940 0.30120 0.19300 0.09800
C 	C 	0.20210 0.33530 0.10360 0.10100
C 	C 	0.18620 0.22220 0.12140 0.09900
C 	C 	0.00230 0.84380 0.91830 0.07900
H 	H 	0.01060 0.88430 0.90030 -0.02000
C 	C 	0.98060 0.78520 0.88680 -0.14500
H 	H 	0.97510 0.78560 0.84780 0.08700
C 	C 	0.96670 0.72570 0.91180 0.06500
C 	C 	0.97240 0.72720 0.96990 -0.14100
H 	H 	0.96100 0.68850 0.98790 0.08400
C 	C 	0.99550 0.78830 0.99960 0.06400
H 	H 	0.99960 0.79010 0.03830 -0.02100
C 	C 	0.92030 0.55030 0.64480 0.06300
H 	H 	0.92240 0.50910 0.62480 0.00700
C 	C 	0.92320 0.54420 0.70130 -0.13000
H 	H 	0.92530 0.50020 0.71870 0.07900
C 	C 	0.92270 0.60680 0.73150 0.06300
C 	C 	0.92000 0.66970 0.70520 -0.12600
H 	H 	0.92150 0.71170 0.72530 0.08400
C 	C 	0.91480 0.67080 0.64750 0.06600
H 	H 	0.91140 0.71450 0.62940 0.00600
C 	C 	0.89800 0.41340 0.97860 0.05700
H 	H 	0.91090 0.40720 0.01790 0.00000
C 	C 	0.91660 0.47340 0.95560 -0.11800
H 	H 	0.94100 0.50730 0.97940 0.07800
C 	C 	0.89880 0.48300 0.89710 0.04900
C 	C 	0.86130 0.43080 0.86330 -0.12700
H 	H 	0.84780 0.43540 0.82390 0.07700
C 	C 	0.84480 0.37230 0.88960 0.06800
H 	H 	0.82070 0.33730 0.86700 -0.01300
C 	C 	0.94560 0.65990 0.87790 0.10100
C 	C 	0.92520 0.60400 0.79440 0.10600
C 	C 	0.91660 0.54610 0.87070 0.10300
N 	N 	0.23010 0.36140 0.36380 -0.20300
N 	N 	0.22250 0.50280 0.99400 -0.19000
N 	N 	0.12310 0.01600 0.05900 -0.21900
N 	N 	0.19810 0.23320 0.17750 -0.14100
N 	N 	0.21120 0.35380 0.15720 -0.14100
N 	N 	0.18730 0.27000 0.08240 -0.14100
N 	N 	0.01210 0.84480 0.97520 -0.21100
N 	N 	0.91460 0.61270 0.61700 -0.15000
N 	N 	0.86200 0.36410 0.94590 -0.20100
N 	N 	0.93510 0.60180 0.90450 -0.14000
N 	N 	0.93960 0.66500 0.82220 -0.13900
N 	N 	0.91230 0.54350 0.81540 -0.14300
Ag	Ag	0.73663 0.90462 0.44711 0.52900
Ag	Ag	0.56788 0.42775 0.02235 0.49200
Ag	Ag	0.33410 0.77253 0.98353 0.53300
Cl	Cl	0.81020 0.82604 0.53140 -0.57100
C 	C 	0.73010 0.91020 0.32340 0.06300
H 	H 	0.73460 0.95780 0.33360 -0.01200
C 	C 	0.72390 0.89210 0.26820 -0.13000
H 	H 	0.72380 0.92670 0.24130 0.08200
C 	C 	0.71760 0.82070 0.25280 0.05600
C 	C 	0.71870 0.77070 0.29410 -0.13500
H 	H 	0.71600 0.72250 0.28550 0.08000
C 	C 	0.72400 0.79430 0.34870 0.06700
H 	H 	0.72320 0.76080 0.37620 -0.01100
C 	C 	0.69410 0.94240 0.97240 0.07200
H 	H 	0.68050 0.93720 0.93300 -0.00600
C 	C 	0.68390 0.88680 0.00590 -0.13100
H 	H 	0.66200 0.84680 0.98920 0.08000
C 	C 	0.70690 0.89250 0.06390 0.05700
C 	C 	0.73710 0.95400 0.08710 -0.12300
H 	H 	0.75200 0.95960 0.12640 0.07900
C 	C 	0.74480 0.00690 0.05130 0.05900
H 	H 	0.76640 0.04740 0.06730 0.01300
C 	C 	0.63860 0.53040 0.11390 0.07100
H 	H 	0.63360 0.49490 0.13840 -0.02400
C 	C 	0.66170 0.59410 0.13690 -0.14100
H 	H 	0.67250 0.60130 0.17610 0.08100
C 	C 	0.66850 0.64760 0.10100 0.05700
C 	C 	0.65450 0.63270 0.04250 -0.12900
H 	H 	0.66000 0.66690 0.01710 0.08100
C 	C 	0.63250 0.56610 0.02370 0.05600
H 	H 	0.62400 0.55560 0.98520 -0.01900
C 	C 	0.70940 0.80120 0.19300 0.09800
C 	C 	0.70210 0.83530 0.10360 0.10100
C 	C 	0.68620 0.72220 0.12140 0.09900
C 	C 	0.50230 0.34380 0.91830 0.07700
H 	H 	0.51060 0.38430 0.90030 -0.01900
C 	C 	0.48060 0.28520 0.88680 -0.14300
H 	H 	0.47510 0.28560 0.84780 0.08700
C 	C 	0.46670 0.22570 0.91180 0.06500
C 	C 	0.47240 0.22720 0.96990 -0.14200
H 	H 	0.46100 0.18850 0.98790 0.08400
C 	C 	0.49550 0.28830 0.99960 0.06600
H 	H 	0.49960 0.29010 0.03830 -0.02100
C 	C 	0.42030 0.05030 0.64480 0.06300
H 	H 	0.42240 0.00910 0.62480 0.00700
C 	C 	0.42320 0.04420 0.70130 -0.13000
H 	H 	0.42530 0.00020 0.71870 0.07900
C 	C 	0.42270 0.10680 0.73150 0.06300
C 	C 	0.42000 0.16970 0.70520 -0.12600
H 	H 	0.42150 0.21170 0.72530 0.08400
C 	C 	0.41480 0.17080 0.64750 0.06600
H 	H 	0.41140 0.21450 0.62940 0.00600
C 	C 	0.39800 0.91340 0.97860 0.06100
H 	H 	0.41090 0.90720 0.01790 -0.00300
C 	C 	0.41660 0.97340 0.95560 -0.11800
H 	H 	0.44100 0.00730 0.97940 0.07800
C 	C 	0.39880 0.98300 0.89710 0.05100
C 	C 	0.36130 0.93080 0.86330 -0.12700
H 	H 	0.34780 0.93540 0.82390 0.07800
C 	C 	0.34480 0.87230 0.88960 0.06900
H 	H 	0.32070 0.83730 0.86700 -0.01300
C 	C 	0.44560 0.15990 0.87790 0.10200
C 	C 	0.42520 0.10400 0.79440 0.10600
C 	C 	0.41660 0.04610 0.87070 0.10200
N 	N 	0.73010 0.86140 0.36380 -0.20300
N 	N 	0.72250 0.00280 0.99400 -0.19300
N 	N 	0.62310 0.51600 0.05900 -0.21900
N 	N 	0.69810 0.73320 0.17750 -0.14100
N 	N 	0.71120 0.85380 0.15720 -0.14100
N 	N 	0.68730 0.77000 0.08240 -0.14100
N 	N 	0.51210 0.34480 0.97520 -0.21200
N 	N 	0.41460 0.11270 0.61700 -0.15000
N 	N 	0.36200 0.86410 0.94590 -0.20100
N 	N 	0.43510 0.10180 0.90450 -0.14000
N 	N 	0.43960 0.16500 0.82220 -0.13900
N 	N 	0.41230 0.04350 0.81540 -0.14300
Ag	Ag	0.76337 0.59538 0.55289 0.52900
Ag	Ag	0.93212 0.07225 0.97765 0.49100
Ag	Ag	0.16590 0.72747 0.01647 0.53200
Cl	Cl	0.68980 0.67396 0.46860 -0.57100
C 	C 	0.76990 0.58980 0.67660 0.06300
H 	H 	0.76540 0.54220 0.66640 -0.01200
C 	C 	0.77610 0.60790 0.73180 -0.13000
H 	H 	0.77620 0.57330 0.75870 0.08300
C 	C 	0.78240 0.67930 0.74720 0.05600
C 	C 	0.78130 0.72930 0.70590 -0.13500
H 	H 	0.78400 0.77750 0.71450 0.08000
C 	C 	0.77600 0.70570 0.65130 0.06700
H 	H 	0.77680 0.73920 0.62380 -0.01100
C 	C 	0.80590 0.55760 0.02760 0.07100
H 	H 	0.81950 0.56280 0.06700 -0.00600
C 	C 	0.81610 0.61320 0.99410 -0.13000
H 	H 	0.83800 0.65320 0.01080 0.08000
C 	C 	0.79310 0.60750 0.93610 0.05600
C 	C 	0.76290 0.54600 0.91290 -0.12000
H 	H 	0.74800 0.54040 0.87360 0.07800
C 	C 	0.75520 0.49310 0.94870 0.05500
H 	H 	0.73360 0.45260 0.93270 0.01400
C 	C 	0.86140 0.96960 0.88610 0.07300
H 	H 	0.86640 0.00510 0.86160 -0.02500
C 	C 	0.83830 0.90590 0.86310 -0.14200
H 	H 	0.82750 0.89870 0.82390 0.08100
C 	C 	0.83150 0.85240 0.89900 0.05800
C 	C 	0.84550 0.86730 0.95750 -0.12900
H 	H 	0.84000 0.83310 0.98290 0.08100
C 	C 	0.86750 0.93390 0.97630 0.05600
H 	H 	0.87600 0.94440 0.01480 -0.01800
C 	C 	0.79060 0.69880 0.80700 0.09800
C 	C 	0.79790 0.66470 0.89640 0.10100
C 	C 	0.81380 0.77780 0.87860 0.09900
C 	C 	0.99770 0.15620 0.08170 0.07900
H 	H 	0.98940 0.11570 0.09970 -0.02000
C 	C 	0.01940 0.21480 0.11320 -0.14500
H 	H 	0.02490 0.21440 0.15220 0.08700
C 	C 	0.03330 0.27430 0.08820 0.06500
C 	C 	0.02760 0.27280 0.03010 -0.14100
H 	H 	0.03900 0.31150 0.01210 0.08400
C 	C 	0.00450 0.21170 0.00040 0.06400
H 	H 	0.00040 0.20990 0.96170 -0.02100
C 	C 	0.07970 0.44970 0.35520 0.06300
H 	H 	0.07760 0.49090 0.37520 0.00700
C 	C 	0.07680 0.45580 0.29870 -0.13000
H 	H 	0.07470 0.49980 0.28130 0.07900
C 	C 	0.07730 0.39320 0.26850 0.06300
C 	C 	0.08000 0.33030 0.29480 -0.12600
H 	H 	0.07850 0.28830 0.27470 0.08400
C 	C 	0.08520 0.32920 0.35250 0.06600
H 	H 	0.08860 0.28550 0.37060 0.00600
C 	C 	0.10200 0.58660 0.02140 0.05700
H 	H 	0.08910 0.59280 0.98210 0.00000
C 	C 	0.08340 0.52660 0.04440 -0.11800
H 	H 	0.05900 0.49270 0.02060 0.07800
C 	C 	0.10120 0.51700 0.10290 0.04900
C 	C 	0.13870 0.56920 0.13670 -0.12700
H 	H 	0.15220 0.56460 0.17610 0.07700
C 	C 	0.15520 0.62770 0.11040 0.06800
H 	H 	0.17930 0.66270 0.13300 -0.01300
C 	C 	0.05440 0.34010 0.12210 0.10100
C 	C 	0.07480 0.39600 0.20560 0.10600
C 	C 	0.08340 0.45390 0.12930 0.10300
N 	N 	0.76990 0.63860 0.63620 -0.20300
N 	N 	0.77750 0.49720 0.00600 -0.19000
N 	N 	0.87690 0.98400 0.94100 -0.21900
N 	N 	0.80190 0.76680 0.82250 -0.14100
N 	N 	0.78880 0.64620 0.84280 -0.14100
N 	N 	0.81270 0.73000 0.91760 -0.14100
N 	N 	0.98790 0.15520 0.02480 -0.21100
N 	N 	0.08540 0.38730 0.38300 -0.15000
N 	N 	0.13800 0.63590 0.05410 -0.20100
N 	N 	0.06490 0.39820 0.09550 -0.14000
N 	N 	0.06040 0.33500 0.17780 -0.13900
N 	N 	0.08770 0.45650 0.18460 -0.14300
Ag	Ag	0.26337 0.09538 0.55289 0.52900
Ag	Ag	0.43212 0.57225 0.97765 0.49200
Ag	Ag	0.66590 0.22747 0.01647 0.53300
Cl	Cl	0.18980 0.17396 0.46860 -0.57100
C 	C 	0.26990 0.08980 0.67660 0.06300
H 	H 	0.26540 0.04220 0.66640 -0.01200
C 	C 	0.27610 0.10790 0.73180 -0.13000
H 	H 	0.27620 0.07330 0.75870 0.08200
C 	C 	0.28240 0.17930 0.74720 0.05600
C 	C 	0.28130 0.22930 0.70590 -0.13500
H 	H 	0.28400 0.27750 0.71450 0.08000
C 	C 	0.27600 0.20570 0.65130 0.06700
H 	H 	0.27680 0.23920 0.62380 -0.01100
C 	C 	0.30590 0.05760 0.02760 0.07200
H 	H 	0.31950 0.06280 0.06700 -0.00600
C 	C 	0.31610 0.11320 0.99410 -0.13100
H 	H 	0.33800 0.15320 0.01080 0.08000
C 	C 	0.29310 0.10750 0.93610 0.05700
C 	C 	0.26290 0.04600 0.91290 -0.12300
H 	H 	0.24800 0.04040 0.87360 0.07900
C 	C 	0.25520 0.99310 0.94870 0.05900
H 	H 	0.23360 0.95260 0.93270 0.01300
C 	C 	0.36140 0.46960 0.88610 0.07100
H 	H 	0.36640 0.50510 0.86160 -0.02400
C 	C 	0.33830 0.40590 0.86310 -0.14100
H 	H 	0.32750 0.39870 0.82390 0.08100
C 	C 	0.33150 0.35240 0.89900 0.05700
C 	C 	0.34550 0.36730 0.95750 -0.12900
H 	H 	0.34000 0.33310 0.98290 0.08100
C 	C 	0.36750 0.43390 0.97630 0.05600
H 	H 	0.37600 0.44440 0.01480 -0.01900
C 	C 	0.29060 0.19880 0.80700 0.09800
C 	C 	0.29790 0.16470 0.89640 0.10100
C 	C 	0.31380 0.27780 0.87860 0.09900
C 	C 	0.49770 0.65620 0.08170 0.07700
H 	H 	0.48940 0.61570 0.09970 -0.01900
C 	C 	0.51940 0.71480 0.11320 -0.14300
H 	H 	0.52490 0.71440 0.15220 0.08700
C 	C 	0.53330 0.77430 0.08820 0.06500
C 	C 	0.52760 0.77280 0.03010 -0.14200
H 	H 	0.53900 0.81150 0.01210 0.08400
C 	C 	0.50450 0.71170 0.00040 0.06600
H 	H 	0.50040 0.70990 0.96170 -0.02100
C 	C 	0.57970 0.94970 0.35520 0.06300
H 	H 	0.57760 0.99090 0.37520 0.00700
C 	C 	0.57680 0.95580 0.29870 -0.13000
H 	H 	0.57470 0.99980 0.28130 0.07900
C 	C 	0.57730 0.89320 0.26850 0.06300
C 	C 	0.58000 0.83030 0.29480 -0.12600
H 	H 	0.57850 0.78830 0.27470 0.08400
C 	C 	0.58520 0.82920 0.35250 0.06600
H 	H 	0.58860 0.78550 0.37060 0.00600
C 	C 	0.60200 0.08660 0.02140 0.06100
H 	H 	0.58910 0.09280 0.98210 -0.00300
C 	C 	0.58340 0.02660 0.04440 -0.11800
H 	H 	0.55900 0.99270 0.02060 0.07800
C 	C 	0.60120 0.01700 0.10290 0.05100
C 	C 	0.63870 0.06920 0.13670 -0.12700
H 	H 	0.65220 0.06460 0.17610 0.07800
C 	C 	0.65520 0.12770 0.11040 0.06900
H 	H 	0.67930 0.16270 0.13300 -0.01300
C 	C 	0.55440 0.84010 0.12210 0.10200
C 	C 	0.57480 0.89600 0.20560 0.10600
C 	C 	0.58340 0.95390 0.12930 0.10200
N 	N 	0.26990 0.13860 0.63620 -0.20300
N 	N 	0.27750 0.99720 0.00600 -0.19300
N 	N 	0.37690 0.48400 0.94100 -0.21900
N 	N 	0.30190 0.26680 0.82250 -0.14100
N 	N 	0.28880 0.14620 0.84280 -0.14100
N 	N 	0.31270 0.23000 0.91760 -0.14100
N 	N 	0.48790 0.65520 0.02480 -0.21200
N 	N 	0.58540 0.88730 0.38300 -0.15000
N 	N 	0.63800 0.13590 0.05410 -0.20100
N 	N 	0.56490 0.89820 0.09550 -0.14000
N 	N 	0.56040 0.83500 0.17780 -0.13900
N 	N 	0.58770 0.95650 0.18460 -0.14300
Ag	Ag	0.76337 0.40462 0.05289 0.52900
Ag	Ag	0.93212 0.92775 0.47765 0.49200
Ag	Ag	0.16590 0.27253 0.51647 0.53300
Cl	Cl	0.68980 0.32604 0.96860 -0.57200
C 	C 	0.76990 0.41020 0.17660 0.06300
H 	H 	0.76540 0.45780 0.16640 -0.01200
C 	C 	0.77610 0.39210 0.23180 -0.13000
H 	H 	0.77620 0.42670 0.25870 0.08300
C 	C 	0.78240 0.32070 0.24720 0.05600
C 	C 	0.78130 0.27070 0.20590 -0.13500
H 	H 	0.78400 0.22250 0.21450 0.08000
C 	C 	0.77600 0.29430 0.15130 0.06700
H 	H 	0.77680 0.26080 0.12380 -0.01100
C 	C 	0.80590 0.44240 0.52760 0.06900
H 	H 	0.81950 0.43720 0.56700 -0.00500
C 	C 	0.81610 0.38680 0.49410 -0.12800
H 	H 	0.83800 0.34680 0.51080 0.07900
C 	C 	0.79310 0.39250 0.43610 0.05500
C 	C 	0.76290 0.45400 0.41290 -0.11900
H 	H 	0.74800 0.45960 0.37360 0.07800
C 	C 	0.75520 0.50690 0.44870 0.05500
H 	H 	0.73360 0.54740 0.43270 0.01400
C 	C 	0.86140 0.03040 0.38610 0.07200
H 	H 	0.86640 0.99490 0.36160 -0.02400
C 	C 	0.83830 0.09410 0.36310 -0.14200
H 	H 	0.82750 0.10130 0.32390 0.08100
C 	C 	0.83150 0.14760 0.39900 0.05700
C 	C 	0.84550 0.13270 0.45750 -0.12900
H 	H 	0.84000 0.16690 0.48290 0.08000
C 	C 	0.86750 0.06610 0.47630 0.05600
H 	H 	0.87600 0.05560 0.51480 -0.01800
C 	C 	0.79060 0.30120 0.30700 0.09800
C 	C 	0.79790 0.33530 0.39640 0.10100
C 	C 	0.81380 0.22220 0.37860 0.09900
C 	C 	0.99770 0.84380 0.58170 0.07600
H 	H 	0.98940 0.88430 0.59970 -0.01900
C 	C 	0.01940 0.78520 0.61320 -0.14200
H 	H 	0.02490 0.78560 0.65220 0.08700
C 	C 	0.03330 0.72570 0.58820 0.06500
C 	C 	0.02760 0.72720 0.53010 -0.14200
H 	H 	0.03900 0.68850 0.51210 0.08400
C 	C 	0.00450 0.78830 0.50040 0.06600
H 	H 	0.00040 0.79010 0.46170 -0.02200
C 	C 	0.07970 0.55030 0.85520 0.06300
H 	H 	0.07760 0.50910 0.87520 0.00700
C 	C 	0.07680 0.54420 0.79870 -0.13000
H 	H 	0.07470 0.50020 0.78130 0.07900
C 	C 	0.07730 0.60680 0.76850 0.06300
C 	C 	0.08000 0.66970 0.79480 -0.12600
H 	H 	0.07850 0.71170 0.77470 0.08400
C 	C 	0.08520 0.67080 0.85250 0.06600
H 	H 	0.08860 0.71450 0.87060 0.00700
C 	C 	0.10200 0.41340 0.52140 0.06000
H 	H 	0.08910 0.40720 0.48210 -0.00200
C 	C 	0.08340 0.47340 0.54440 -0.11900
H 	H 	0.05900 0.50730 0.52060 0.07800
C 	C 	0.10120 0.48300 0.60290 0.05000
C 	C 	0.13870 0.43080 0.63670 -0.12700
H 	H 	0.15220 0.43540 0.67610 0.07700
C 	C 	0.15520 0.37230 0.61040 0.06900
H 	H 	0.17930 0.33730 0.63300 -0.01300
C 	C 	0.05440 0.65990 0.62210 0.10200
C 	C 	0.07480 0.60400 0.70560 0.10600
C 	C 	0.08340 0.54610 0.62930 0.10300
N 	N 	0.76990 0.36140 0.13620 -0.20300
N 	N 	0.77750 0.50280 0.50600 -0.19100
N 	N 	0.87690 0.01600 0.44100 -0.21900
N 	N 	0.80190 0.23320 0.32250 -0.14100
N 	N 	0.78880 0.35380 0.34280 -0.14100
N 	N 	0.81270 0.27000 0.41760 -0.14100
N 	N 	0.98790 0.84480 0.52480 -0.21200
N 	N 	0.08540 0.61270 0.88300 -0.15000
N 	N 	0.13800 0.36410 0.55410 -0.20100
N 	N 	0.06490 0.60180 0.59550 -0.14000
N 	N 	0.06040 0.66500 0.67780 -0.13900
N 	N 	0.08770 0.54350 0.68460 -0.14300
Ag	Ag	0.26337 0.90462 0.05289 0.52800
Ag	Ag	0.43212 0.42775 0.47765 0.49200
Ag	Ag	0.66590 0.77253 0.51647 0.53300
Cl	Cl	0.18980 0.82604 0.96860 -0.57000
C 	C 	0.26990 0.91020 0.17660 0.06300
H 	H 	0.26540 0.95780 0.16640 -0.01200
C 	C 	0.27610 0.89210 0.23180 -0.13000
H 	H 	0.27620 0.92670 0.25870 0.08200
C 	C 	0.28240 0.82070 0.24720 0.05600
C 	C 	0.28130 0.77070 0.20590 -0.13500
H 	H 	0.28400 0.72250 0.21450 0.08000
C 	C 	0.27600 0.79430 0.15130 0.06700
H 	H 	0.27680 0.76080 0.12380 -0.01100
C 	C 	0.30590 0.94240 0.52760 0.06900
H 	H 	0.31950 0.93720 0.56700 -0.00500
C 	C 	0.31610 0.88680 0.49410 -0.12800
H 	H 	0.33800 0.84680 0.51080 0.07900
C 	C 	0.29310 0.89250 0.43610 0.05500
C 	C 	0.26290 0.95400 0.41290 -0.11900
H 	H 	0.24800 0.95960 0.37360 0.07800
C 	C 	0.25520 0.00690 0.44870 0.05500
H 	H 	0.23360 0.04740 0.43270 0.01400
C 	C 	0.36140 0.53040 0.38610 0.07100
H 	H 	0.36640 0.49490 0.36160 -0.02400
C 	C 	0.33830 0.59410 0.36310 -0.14100
H 	H 	0.32750 0.60130 0.32390 0.08100
C 	C 	0.33150 0.64760 0.39900 0.05700
C 	C 	0.34550 0.63270 0.45750 -0.12900
H 	H 	0.34000 0.66690 0.48290 0.08000
C 	C 	0.36750 0.56610 0.47630 0.05500
H 	H 	0.37600 0.55560 0.51480 -0.01800
C 	C 	0.29060 0.80120 0.30700 0.09800
C 	C 	0.29790 0.83530 0.39640 0.10100
C 	C 	0.31380 0.72220 0.37860 0.09900
C 	C 	0.49770 0.34380 0.58170 0.07700
H 	H 	0.48940 0.38430 0.59970 -0.01900
C 	C 	0.51940 0.28520 0.61320 -0.14300
H 	H 	0.52490 0.28560 0.65220 0.08700
C 	C 	0.53330 0.22570 0.58820 0.06500
C 	C 	0.52760 0.22720 0.53010 -0.14200
H 	H 	0.53900 0.18850 0.51210 0.08400
C 	C 	0.50450 0.28830 0.50040 0.06600
H 	H 	0.50040 0.29010 0.46170 -0.02200
C 	C 	0.57970 0.05030 0.85520 0.06300
H 	H 	0.57760 0.00910 0.87520 0.00700
C 	C 	0.57680 0.04420 0.79870 -0.13000
H 	H 	0.57470 0.00020 0.78130 0.07900
C 	C 	0.57730 0.10680 0.76850 0.06300
C 	C 	0.58000 0.16970 0.79480 -0.12600
H 	H 	0.57850 0.21170 0.77470 0.08400
C 	C 	0.58520 0.17080 0.85250 0.06600
H 	H 	0.58860 0.21450 0.87060 0.00600
C 	C 	0.60200 0.91340 0.52140 0.06000
H 	H 	0.58910 0.90720 0.48210 -0.00200
C 	C 	0.58340 0.97340 0.54440 -0.11900
H 	H 	0.55900 0.00730 0.52060 0.07800
C 	C 	0.60120 0.98300 0.60290 0.05000
C 	C 	0.63870 0.93080 0.63670 -0.12700
H 	H 	0.65220 0.93540 0.67610 0.07700
C 	C 	0.65520 0.87230 0.61040 0.06900
H 	H 	0.67930 0.83730 0.63300 -0.01300
C 	C 	0.55440 0.15990 0.62210 0.10200
C 	C 	0.57480 0.10400 0.70560 0.10600
C 	C 	0.58340 0.04610 0.62930 0.10300
N 	N 	0.26990 0.86140 0.13620 -0.20300
N 	N 	0.27750 0.00280 0.50600 -0.19100
N 	N 	0.37690 0.51600 0.44100 -0.21900
N 	N 	0.30190 0.73320 0.32250 -0.14100
N 	N 	0.28880 0.85380 0.34280 -0.14100
N 	N 	0.31270 0.77000 0.41760 -0.14100
N 	N 	0.48790 0.34480 0.52480 -0.21200
N 	N 	0.58540 0.11270 0.88300 -0.15000
N 	N 	0.63800 0.86410 0.55410 -0.20100
N 	N 	0.56490 0.10180 0.59550 -0.14000
N 	N 	0.56040 0.16500 0.67780 -0.13900
N 	N 	0.58770 0.04350 0.68460 -0.14300
