data_crystal

_cell_length_a 9.22600
_cell_length_b 9.55870
_cell_length_c 21.60600
_cell_angle_alpha 90.00000
_cell_angle_beta  90.00000
_cell_angle_gamma 116.14200

_symmetry_space_group_name_	'P 1'
_symmetry_space_group_name_H-M	'P 1'

loop_
_symmetry_equiv_pos_as_xyz
  x,y,z

loop_
_atom_site_label
_atom_site_type_symbol
_atom_site_fract_x
_atom_site_fract_y
_atom_site_fract_z
_atom_site_charge
Eu	Eu	0.35883 0.12332 0.00859 2.13700
Eu	Eu	0.64117 0.37668 0.50859 2.13700
Eu	Eu	0.64117 0.87668 0.99141 2.13700
Eu	Eu	0.35883 0.62332 0.49141 2.13700
Cu	Cu	0.69034 0.04122 0.64579 0.85600
Cu	Cu	0.30966 0.45878 0.14579 0.85600
Cu	Cu	0.30966 0.95878 0.35421 0.85600
Cu	Cu	0.69034 0.54122 0.85421 0.85600
H 	H 	0.42290 0.12240 0.65520 -0.02500
H 	H 	0.26450 0.14290 0.73150 0.10500
H 	H 	0.31560 0.10900 0.83420 -0.02100
H 	H 	0.65540 0.99540 0.77590 -0.03700
H 	H 	0.79680 0.30020 0.84050 -0.03900
H 	H 	0.00240 0.24870 0.87270 0.11500
H 	H 	0.20610 0.43930 0.92950 -0.00500
H 	H 	0.96890 0.70290 0.92940 -0.03000
H 	H 	0.57710 0.37760 0.15520 -0.02600
H 	H 	0.73550 0.35710 0.23150 0.10400
H 	H 	0.68440 0.39100 0.33420 -0.02200
H 	H 	0.34460 0.50460 0.27590 -0.03800
H 	H 	0.20320 0.19980 0.34050 -0.03700
H 	H 	0.99760 0.25130 0.37270 0.11100
H 	H 	0.79390 0.06070 0.42950 -0.00200
H 	H 	0.03110 0.79710 0.42940 -0.02900
H 	H 	0.57710 0.87760 0.34480 -0.02600
H 	H 	0.73550 0.85710 0.26850 0.10400
H 	H 	0.68440 0.89100 0.16580 -0.02100
H 	H 	0.34460 0.00460 0.22410 -0.03700
H 	H 	0.20320 0.69980 0.15950 -0.03900
H 	H 	0.99760 0.75130 0.12730 0.11500
H 	H 	0.79390 0.56070 0.07050 -0.00500
H 	H 	0.03110 0.29710 0.07060 -0.03000
H 	H 	0.42290 0.62240 0.84480 -0.02600
H 	H 	0.26450 0.64290 0.76850 0.10400
H 	H 	0.31560 0.60900 0.66580 -0.02200
H 	H 	0.65540 0.49540 0.72410 -0.03800
H 	H 	0.79680 0.80020 0.65950 -0.03700
H 	H 	0.00240 0.74870 0.62730 0.11100
H 	H 	0.20610 0.93930 0.57050 -0.00200
H 	H 	0.96890 0.20290 0.57060 -0.02900
C 	C 	0.44050 0.10210 0.69590 0.13500
C 	C 	0.34750 0.11660 0.74140 -0.22300
C 	C 	0.37480 0.09260 0.80260 0.14600
C 	C 	0.49000 0.04470 0.81550 -0.25300
C 	C 	0.57710 0.02910 0.76740 0.13400
C 	C 	0.52590 0.01180 0.88010 0.51800
C 	C 	0.87710 0.37250 0.86540 0.11000
C 	C 	0.99880 0.34150 0.88300 -0.20200
C 	C 	0.11750 0.45430 0.91710 0.13200
C 	C 	0.10890 0.59560 0.93430 -0.21000
C 	C 	0.97930 0.61450 0.91710 0.12800
C 	C 	0.24110 0.72900 0.96960 0.49500
C 	C 	0.47770 0.50270 0.03440 0.24000
C 	C 	0.99270 0.98870 0.03570 0.28600
C 	C 	0.55950 0.39790 0.19590 0.13500
C 	C 	0.65250 0.38340 0.24140 -0.22300
C 	C 	0.62520 0.40740 0.30260 0.14600
C 	C 	0.51000 0.45530 0.31550 -0.25300
C 	C 	0.42290 0.47090 0.26740 0.13500
C 	C 	0.47410 0.48820 0.38010 0.51800
C 	C 	0.12290 0.12750 0.36540 0.10700
C 	C 	0.00120 0.15850 0.38300 -0.19300
C 	C 	0.88250 0.04570 0.41710 0.12300
C 	C 	0.89110 0.90440 0.43430 -0.20500
C 	C 	0.02070 0.88550 0.41710 0.12400
C 	C 	0.75890 0.77100 0.46960 0.49300
C 	C 	0.52230 0.99730 0.53440 0.24000
C 	C 	0.00730 0.51130 0.53570 0.28300
C 	C 	0.55950 0.89790 0.30410 0.13500
C 	C 	0.65250 0.88340 0.25860 -0.22300
C 	C 	0.62520 0.90740 0.19740 0.14600
C 	C 	0.51000 0.95530 0.18450 -0.25300
C 	C 	0.42290 0.97090 0.23260 0.13400
C 	C 	0.47410 0.98820 0.11990 0.51800
C 	C 	0.12290 0.62750 0.13460 0.11000
C 	C 	0.00120 0.65850 0.11700 -0.20200
C 	C 	0.88250 0.54570 0.08290 0.13200
C 	C 	0.89110 0.40440 0.06570 -0.21000
C 	C 	0.02070 0.38550 0.08290 0.12800
C 	C 	0.75890 0.27100 0.03040 0.49500
C 	C 	0.52230 0.49730 0.96560 0.24000
C 	C 	0.00730 0.01130 0.96430 0.28600
C 	C 	0.44050 0.60210 0.80410 0.13500
C 	C 	0.34750 0.61660 0.75860 -0.22300
C 	C 	0.37480 0.59260 0.69740 0.14600
C 	C 	0.49000 0.54470 0.68450 -0.25300
C 	C 	0.57710 0.52910 0.73260 0.13500
C 	C 	0.52590 0.51180 0.61990 0.51800
C 	C 	0.87710 0.87250 0.63460 0.10700
C 	C 	0.99880 0.84150 0.61700 -0.19300
C 	C 	0.11750 0.95430 0.58290 0.12300
C 	C 	0.10890 0.09560 0.56570 -0.20500
C 	C 	0.97930 0.11450 0.58290 0.12400
C 	C 	0.24110 0.22900 0.53040 0.49300
C 	C 	0.47770 0.00270 0.46560 0.24000
C 	C 	0.99270 0.48870 0.46430 0.28300
N 	N 	0.55620 0.05970 0.70800 -0.28600
N 	N 	0.86420 0.50620 0.88220 -0.27900
N 	N 	0.44380 0.44030 0.20800 -0.28600
N 	N 	0.13580 0.99380 0.38220 -0.27800
N 	N 	0.44380 0.94030 0.29200 -0.28600
N 	N 	0.13580 0.49380 0.11780 -0.27900
N 	N 	0.55620 0.55970 0.79200 -0.28600
N 	N 	0.86420 0.00620 0.61780 -0.27800
O 	O 	0.46680 0.05070 0.92470 -0.59800
O 	O 	0.61330 0.94350 0.88600 -0.50600
O 	O 	0.21240 0.83620 0.99510 -0.48300
O 	O 	0.36720 0.71820 0.96970 -0.54200
O 	O 	0.38160 0.37180 0.05790 -0.47400
O 	O 	0.53890 0.63790 0.06075 -0.42000
O 	O 	0.11600 0.05170 0.06640 -0.44400
O 	O 	0.85730 0.90980 0.05640 -0.45600
O 	O 	0.53320 0.44930 0.42470 -0.59900
O 	O 	0.38670 0.55650 0.38600 -0.50600
O 	O 	0.78760 0.66380 0.49510 -0.48200
O 	O 	0.63280 0.78180 0.46970 -0.54100
O 	O 	0.61840 0.12820 0.55790 -0.47500
O 	O 	0.46110 0.86210 0.56075 -0.42000
O 	O 	0.88400 0.44830 0.56640 -0.44300
O 	O 	0.14270 0.59020 0.55640 -0.45700
O 	O 	0.53320 0.94930 0.07530 -0.59800
O 	O 	0.38670 0.05650 0.11400 -0.50600
O 	O 	0.78760 0.16380 0.00490 -0.48300
O 	O 	0.63280 0.28180 0.03030 -0.54200
O 	O 	0.61840 0.62820 0.94210 -0.47400
O 	O 	0.46110 0.36210 0.93925 -0.42000
O 	O 	0.88400 0.94830 0.93360 -0.44400
O 	O 	0.14270 0.09020 0.94360 -0.45600
O 	O 	0.46680 0.55070 0.57530 -0.59900
O 	O 	0.61330 0.44350 0.61400 -0.50600
O 	O 	0.21240 0.33620 0.50490 -0.48200
O 	O 	0.36720 0.21820 0.53030 -0.54100
O 	O 	0.38160 0.87180 0.44210 -0.47500
O 	O 	0.53890 0.13790 0.43925 -0.42000
O 	O 	0.11600 0.55170 0.43360 -0.44300
O 	O 	0.85730 0.40980 0.44360 -0.45700
