data_crystal

_cell_length_a 8.55770
_cell_length_b 18.80200
_cell_length_c 16.05420
_cell_angle_alpha 99.46900
_cell_angle_beta  90.00000
_cell_angle_gamma 90.00000

_symmetry_space_group_name_	'P 1'
_symmetry_space_group_name_H-M	'P 1'

loop_
_symmetry_equiv_pos_as_xyz
  x,y,z

loop_
_atom_site_label
_atom_site_type_symbol
_atom_site_fract_x
_atom_site_fract_y
_atom_site_fract_z
_atom_site_charge
Cu	Cu	0.68478 0.79175 0.73422 0.88900
Cu	Cu	0.68478 0.20825 0.76578 0.88900
Cu	Cu	0.31522 0.20825 0.26578 0.88800
Cu	Cu	0.31522 0.79175 0.23422 0.88800
Cu	Cu	0.55480 0.50000 0.75000 0.91100
Cu	Cu	0.44520 0.50000 0.25000 0.91100
H 	H 	0.99810 0.65390 0.72050 0.33000
H 	H 	0.12760 0.59560 0.72510 0.32700
H 	H 	0.16950 0.66740 0.69230 0.31900
H 	H 	0.47220 0.62380 0.98290 0.36800
H 	H 	0.47540 0.70080 0.03800 0.35300
H 	H 	0.55490 0.68770 0.94880 0.36600
H 	H 	0.95240 0.80660 0.05430 0.33100
H 	H 	0.86910 0.81480 0.96940 0.33800
H 	H 	0.01040 0.86490 0.00190 0.33800
H 	H 	0.79420 0.59860 0.83750 0.00200
H 	H 	0.67230 0.40680 0.86130 -0.00200
H 	H 	0.98250 0.59780 0.93820 0.08000
H 	H 	0.85630 0.40190 0.96310 0.08600
H 	H 	0.47710 0.80710 0.87880 -0.01800
H 	H 	0.74060 0.94630 0.79700 -0.01200
H 	H 	0.39750 0.88940 0.99350 0.09700
H 	H 	0.68050 0.03210 0.90700 0.08600
H 	H 	0.99810 0.34610 0.77950 0.33200
H 	H 	0.12760 0.40440 0.77490 0.32800
H 	H 	0.16950 0.33260 0.80770 0.32100
H 	H 	0.47220 0.37620 0.51710 0.37300
H 	H 	0.47540 0.29920 0.46200 0.36000
H 	H 	0.55490 0.31230 0.55120 0.37100
H 	H 	0.95240 0.19340 0.44570 0.34700
H 	H 	0.86910 0.18520 0.53060 0.35000
H 	H 	0.01040 0.13510 0.49810 0.35500
H 	H 	0.79420 0.40140 0.66250 0.00200
H 	H 	0.67230 0.59320 0.63870 -0.00200
H 	H 	0.98250 0.40220 0.56180 0.08000
H 	H 	0.85630 0.59810 0.53690 0.08600
H 	H 	0.47710 0.19290 0.62120 -0.01900
H 	H 	0.74060 0.05370 0.70300 -0.01600
H 	H 	0.39750 0.11060 0.50650 0.09700
H 	H 	0.68050 0.96790 0.59300 0.09500
H 	H 	0.00190 0.34610 0.27950 0.33000
H 	H 	0.87240 0.40440 0.27490 0.32700
H 	H 	0.83050 0.33260 0.30770 0.31900
H 	H 	0.52780 0.37620 0.01710 0.36800
H 	H 	0.52460 0.29920 0.96200 0.35300
H 	H 	0.44510 0.31230 0.05120 0.36600
H 	H 	0.04760 0.19340 0.94570 0.33100
H 	H 	0.13090 0.18520 0.03060 0.33800
H 	H 	0.98960 0.13510 0.99810 0.33800
H 	H 	0.20580 0.40140 0.16250 0.00200
H 	H 	0.32770 0.59320 0.13870 -0.00200
H 	H 	0.01750 0.40220 0.06180 0.08000
H 	H 	0.14370 0.59810 0.03690 0.08600
H 	H 	0.52290 0.19290 0.12120 -0.01800
H 	H 	0.25940 0.05370 0.20300 -0.01200
H 	H 	0.60250 0.11060 0.00650 0.09700
H 	H 	0.31950 0.96790 0.09300 0.08600
H 	H 	0.00190 0.65390 0.22050 0.33200
H 	H 	0.87240 0.59560 0.22510 0.32800
H 	H 	0.83050 0.66740 0.19230 0.32100
H 	H 	0.52780 0.62380 0.48290 0.37300
H 	H 	0.52460 0.70080 0.53800 0.36000
H 	H 	0.44510 0.68770 0.44880 0.37100
H 	H 	0.04760 0.80660 0.55430 0.34700
H 	H 	0.13090 0.81480 0.46940 0.35000
H 	H 	0.98960 0.86490 0.50190 0.35500
H 	H 	0.20580 0.59860 0.33750 0.00200
H 	H 	0.32770 0.40680 0.36130 -0.00200
H 	H 	0.01750 0.59780 0.43820 0.08000
H 	H 	0.14370 0.40190 0.46310 0.08600
H 	H 	0.52290 0.80710 0.37880 -0.01900
H 	H 	0.25940 0.94630 0.29700 -0.01600
H 	H 	0.60250 0.88940 0.49350 0.09700
H 	H 	0.31950 0.03210 0.40700 0.09500
C 	C 	0.89200 0.75120 0.82600 0.40200
C 	C 	0.10670 0.64640 0.73150 -0.97700
C 	C 	0.38820 0.60830 0.81130 0.43000
C 	C 	0.46870 0.67470 0.98150 -1.11000
C 	C 	0.24740 0.77520 0.07790 0.43100
C 	C 	0.96760 0.81730 0.99840 -1.03300
C 	C 	0.04860 0.73250 0.86730 -0.48000
C 	C 	0.14730 0.68310 0.82440 0.52700
C 	C 	0.28160 0.66370 0.86140 -0.51800
C 	C 	0.31660 0.69300 0.94170 0.58600
C 	C 	0.21300 0.74340 0.98720 -0.51200
C 	C 	0.08000 0.76260 0.95020 0.55600
C 	C 	0.80520 0.55790 0.86300 0.07900
C 	C 	0.73560 0.44690 0.87750 0.07400
C 	C 	0.91870 0.55750 0.92460 -0.14500
C 	C 	0.84680 0.44380 0.93960 -0.15000
C 	C 	0.94130 0.50020 0.96650 0.05800
C 	C 	0.51500 0.85390 0.88420 0.08000
C 	C 	0.66980 0.93490 0.83680 0.09100
C 	C 	0.46590 0.90340 0.95420 -0.15500
C 	C 	0.63280 0.98720 0.90220 -0.15100
C 	C 	0.52130 0.97390 0.96370 0.05700
C 	C 	0.89200 0.24880 0.67400 0.40400
C 	C 	0.10670 0.35360 0.76850 -0.98300
C 	C 	0.38820 0.39170 0.68870 0.43200
C 	C 	0.46870 0.32530 0.51850 -1.12800
C 	C 	0.24740 0.22480 0.42210 0.43600
C 	C 	0.96760 0.18270 0.50160 -1.07900
C 	C 	0.04860 0.26750 0.63270 -0.48900
C 	C 	0.14730 0.31690 0.67560 0.53300
C 	C 	0.28160 0.33630 0.63860 -0.52500
C 	C 	0.31660 0.30700 0.55830 0.59600
C 	C 	0.21300 0.25660 0.51280 -0.52500
C 	C 	0.08000 0.23740 0.54980 0.57200
C 	C 	0.80520 0.44210 0.63700 0.07900
C 	C 	0.73560 0.55310 0.62250 0.07400
C 	C 	0.91870 0.44250 0.57540 -0.14500
C 	C 	0.84680 0.55620 0.56040 -0.15100
C 	C 	0.94130 0.49980 0.53350 0.05800
C 	C 	0.51500 0.14610 0.61580 0.08000
C 	C 	0.66980 0.06510 0.66320 0.09800
C 	C 	0.46590 0.09660 0.54580 -0.15700
C 	C 	0.63280 0.01280 0.59780 -0.16500
C 	C 	0.52130 0.02610 0.53630 0.05900
C 	C 	0.10800 0.24880 0.17400 0.40200
C 	C 	0.89330 0.35360 0.26850 -0.97700
C 	C 	0.61180 0.39170 0.18870 0.43000
C 	C 	0.53130 0.32530 0.01850 -1.11000
C 	C 	0.75260 0.22480 0.92210 0.43100
C 	C 	0.03240 0.18270 0.00160 -1.03300
C 	C 	0.95140 0.26750 0.13270 -0.48000
C 	C 	0.85270 0.31690 0.17560 0.52700
C 	C 	0.71840 0.33630 0.13860 -0.51800
C 	C 	0.68340 0.30700 0.05830 0.58600
C 	C 	0.78700 0.25660 0.01280 -0.51200
C 	C 	0.92000 0.23740 0.04980 0.55600
C 	C 	0.19480 0.44210 0.13700 0.07900
C 	C 	0.26440 0.55310 0.12250 0.07400
C 	C 	0.08130 0.44250 0.07540 -0.14500
C 	C 	0.15320 0.55620 0.06040 -0.15000
C 	C 	0.05870 0.49980 0.03350 0.05800
C 	C 	0.48500 0.14610 0.11580 0.08000
C 	C 	0.33020 0.06510 0.16320 0.09100
C 	C 	0.53410 0.09660 0.04580 -0.15500
C 	C 	0.36720 0.01280 0.09780 -0.15100
C 	C 	0.47870 0.02610 0.03630 0.05700
C 	C 	0.10800 0.75120 0.32600 0.40400
C 	C 	0.89330 0.64640 0.23150 -0.98300
C 	C 	0.61180 0.60830 0.31130 0.43200
C 	C 	0.53130 0.67470 0.48150 -1.12800
C 	C 	0.75260 0.77520 0.57790 0.43600
C 	C 	0.03240 0.81730 0.49840 -1.07900
C 	C 	0.95140 0.73250 0.36730 -0.48900
C 	C 	0.85270 0.68310 0.32440 0.53300
C 	C 	0.71840 0.66370 0.36140 -0.52500
C 	C 	0.68340 0.69300 0.44170 0.59600
C 	C 	0.78700 0.74340 0.48720 -0.52500
C 	C 	0.92000 0.76260 0.45020 0.57200
C 	C 	0.19480 0.55790 0.36300 0.07900
C 	C 	0.26440 0.44690 0.37750 0.07400
C 	C 	0.08130 0.55750 0.42460 -0.14500
C 	C 	0.15320 0.44380 0.43960 -0.15100
C 	C 	0.05870 0.50020 0.46650 0.05800
C 	C 	0.48500 0.85390 0.38420 0.08000
C 	C 	0.33020 0.93490 0.33680 0.09800
C 	C 	0.53410 0.90340 0.45420 -0.15700
C 	C 	0.36720 0.98720 0.40220 -0.16500
C 	C 	0.47870 0.97390 0.46370 0.05900
N 	N 	0.71470 0.50370 0.84020 -0.23500
N 	N 	0.61220 0.86870 0.82530 -0.24600
N 	N 	0.71470 0.49630 0.65980 -0.23500
N 	N 	0.61220 0.13130 0.67470 -0.24800
N 	N 	0.28530 0.49630 0.15980 -0.23500
N 	N 	0.38780 0.13130 0.17470 -0.24600
N 	N 	0.28530 0.50370 0.34020 -0.23500
N 	N 	0.38780 0.86870 0.32530 -0.24800
O 	O 	0.77170 0.72020 0.83550 -0.39200
O 	O 	0.90570 0.80260 0.78030 -0.38600
O 	O 	0.47190 0.62550 0.75310 -0.37400
O 	O 	0.39570 0.54560 0.83210 -0.41400
O 	O 	0.24280 0.73160 0.13110 -0.43900
O 	O 	0.28170 0.83970 0.10060 -0.38600
O 	O 	0.77170 0.27980 0.66450 -0.39400
O 	O 	0.90570 0.19740 0.71970 -0.38700
O 	O 	0.47190 0.37450 0.74690 -0.37400
O 	O 	0.39570 0.45440 0.66790 -0.41400
O 	O 	0.24280 0.26840 0.36890 -0.44000
O 	O 	0.28170 0.16030 0.39940 -0.38700
O 	O 	0.22830 0.27980 0.16450 -0.39200
O 	O 	0.09430 0.19740 0.21970 -0.38600
O 	O 	0.52810 0.37450 0.24690 -0.37400
O 	O 	0.60430 0.45440 0.16790 -0.41400
O 	O 	0.75720 0.26840 0.86890 -0.43900
O 	O 	0.71830 0.16030 0.89940 -0.38600
O 	O 	0.22830 0.72020 0.33550 -0.39400
O 	O 	0.09430 0.80260 0.28030 -0.38700
O 	O 	0.52810 0.62550 0.25310 -0.37400
O 	O 	0.60430 0.54560 0.33210 -0.41400
O 	O 	0.75720 0.73160 0.63110 -0.44000
O 	O 	0.71830 0.83970 0.60060 -0.38700
