data_crystal

_cell_length_a 24.75500
_cell_length_b 24.75500
_cell_length_c 24.75500
_cell_angle_alpha 90.00000
_cell_angle_beta  90.00000
_cell_angle_gamma 90.00000

_symmetry_space_group_name_	'P 1'
_symmetry_space_group_name_H-M	'P 1'

loop_
_symmetry_equiv_pos_as_xyz
  x,y,z

loop_
_atom_site_label
_atom_site_type_symbol
_atom_site_fract_x
_atom_site_fract_y
_atom_site_fract_z
_atom_site_charge
Co	Co	0.41481 0.21026 0.20530 1.13600
O 	O 	0.28650 0.19900 0.39240 -0.12900
O 	O 	0.33140 0.23850 0.45810 -0.16000
O 	O 	0.61910 0.20760 0.10510 -0.37900
O 	O 	0.68154 0.20010 0.16670 -0.39000
N 	N 	0.41756 0.20810 0.29055 -0.22500
N 	N 	0.49784 0.20651 0.22170 -0.24800
C 	C 	0.37460 0.20960 0.32350 0.09700
H 	H 	0.34040 0.21040 0.30790 0.01700
C 	C 	0.37790 0.21000 0.37860 -0.13600
C 	C 	0.42930 0.20660 0.40130 0.06000
H 	H 	0.43360 0.20580 0.43860 0.02700
C 	C 	0.47430 0.20450 0.36740 -0.11700
H 	H 	0.50880 0.20230 0.38210 0.07100
C 	C 	0.46760 0.20590 0.31220 0.05500
C 	C 	0.51280 0.20380 0.27330 0.07500
C 	C 	0.56590 0.20000 0.28840 -0.13700
H 	H 	0.57520 0.19760 0.32470 0.07600
C 	C 	0.60470 0.19960 0.24970 0.06800
H 	H 	0.64090 0.19700 0.25950 0.02600
C 	C 	0.59090 0.20300 0.19640 -0.12800
C 	C 	0.53600 0.20670 0.18400 0.09000
H 	H 	0.52580 0.20930 0.14790 -0.01100
C 	C 	0.32870 0.21190 0.41320 0.38100
C 	C 	0.63340 0.20310 0.15270 0.33100
O 	O 	0.28530 0.21410 0.38660 -0.28800
O 	O 	0.33490 0.20040 0.46300 -0.18700
Co	Co	0.08519 0.78974 0.70530 1.13600
O 	O 	0.21350 0.80100 0.89240 -0.12900
O 	O 	0.16860 0.76150 0.95810 -0.16000
O 	O 	0.88090 0.79240 0.60510 -0.37800
O 	O 	0.81846 0.79990 0.66670 -0.38900
N 	N 	0.08244 0.79190 0.79055 -0.22400
N 	N 	0.00216 0.79349 0.72170 -0.24600
C 	C 	0.12540 0.79040 0.82350 0.09800
H 	H 	0.15960 0.78960 0.80790 0.01800
C 	C 	0.12210 0.79000 0.87860 -0.13500
C 	C 	0.07070 0.79340 0.90130 0.06000
H 	H 	0.06640 0.79420 0.93860 0.02800
C 	C 	0.02570 0.79550 0.86740 -0.11500
H 	H 	0.99120 0.79770 0.88210 0.07100
C 	C 	0.03240 0.79410 0.81220 0.05600
C 	C 	0.98720 0.79620 0.77330 0.07500
C 	C 	0.93410 0.80000 0.78840 -0.13500
H 	H 	0.92480 0.80240 0.82470 0.07700
C 	C 	0.89530 0.80040 0.74970 0.06800
H 	H 	0.85910 0.80300 0.75950 0.02700
C 	C 	0.90910 0.79700 0.69640 -0.12700
C 	C 	0.96400 0.79330 0.68400 0.09000
H 	H 	0.97420 0.79070 0.64790 -0.01000
C 	C 	0.17130 0.78810 0.91320 0.38200
C 	C 	0.86660 0.79690 0.65270 0.33100
O 	O 	0.21470 0.78590 0.88660 -0.28700
O 	O 	0.16510 0.79960 0.96300 -0.18600
Co	Co	0.58519 0.71026 0.29470 1.13700
O 	O 	0.71350 0.69900 0.10760 -0.12800
O 	O 	0.66860 0.73850 0.04190 -0.15900
O 	O 	0.38090 0.70760 0.39490 -0.37800
O 	O 	0.31846 0.70010 0.33330 -0.38900
N 	N 	0.58244 0.70810 0.20945 -0.22400
N 	N 	0.50216 0.70651 0.27830 -0.24700
C 	C 	0.62540 0.70960 0.17650 0.09800
H 	H 	0.65960 0.71040 0.19210 0.01800
C 	C 	0.62210 0.71000 0.12140 -0.13500
C 	C 	0.57070 0.70660 0.09870 0.06100
H 	H 	0.56640 0.70580 0.06140 0.02800
C 	C 	0.52570 0.70450 0.13260 -0.11600
H 	H 	0.49120 0.70230 0.11790 0.07200
C 	C 	0.53240 0.70590 0.18780 0.05600
C 	C 	0.48720 0.70380 0.22670 0.07600
C 	C 	0.43410 0.70000 0.21160 -0.13600
H 	H 	0.42480 0.69760 0.17530 0.07700
C 	C 	0.39530 0.69960 0.25030 0.06900
H 	H 	0.35910 0.69700 0.24050 0.02700
C 	C 	0.40910 0.70300 0.30360 -0.12700
C 	C 	0.46400 0.70670 0.31600 0.09100
H 	H 	0.47420 0.70930 0.35210 -0.01000
C 	C 	0.67130 0.71190 0.08680 0.38200
C 	C 	0.36660 0.70310 0.34730 0.33200
O 	O 	0.71470 0.71410 0.11340 -0.28700
O 	O 	0.66510 0.70040 0.03700 -0.18600
Co	Co	0.91481 0.28974 0.79470 1.13700
O 	O 	0.78650 0.30100 0.60760 -0.12800
O 	O 	0.83140 0.26150 0.54190 -0.15900
O 	O 	0.11910 0.29240 0.89490 -0.37800
O 	O 	0.18154 0.29990 0.83330 -0.38900
N 	N 	0.91756 0.29190 0.70945 -0.22400
N 	N 	0.99784 0.29349 0.77830 -0.24700
C 	C 	0.87460 0.29040 0.67650 0.09800
H 	H 	0.84040 0.28960 0.69210 0.01800
C 	C 	0.87790 0.29000 0.62140 -0.13500
C 	C 	0.92930 0.29340 0.59870 0.06100
H 	H 	0.93360 0.29420 0.56140 0.02800
C 	C 	0.97430 0.29550 0.63260 -0.11600
H 	H 	0.00880 0.29770 0.61790 0.07200
C 	C 	0.96760 0.29410 0.68780 0.05600
C 	C 	0.01280 0.29620 0.72670 0.07600
C 	C 	0.06590 0.30000 0.71160 -0.13600
H 	H 	0.07520 0.30240 0.67530 0.07700
C 	C 	0.10470 0.30040 0.75030 0.06900
H 	H 	0.14090 0.30300 0.74050 0.02700
C 	C 	0.09090 0.29700 0.80360 -0.12700
C 	C 	0.03600 0.29330 0.81600 0.09100
H 	H 	0.02580 0.29070 0.85210 -0.01000
C 	C 	0.82870 0.28810 0.58680 0.38200
C 	C 	0.13340 0.29690 0.84730 0.33200
O 	O 	0.78530 0.28590 0.61340 -0.28700
O 	O 	0.83490 0.29960 0.53700 -0.18600
Co	Co	0.20530 0.41481 0.21026 1.13700
O 	O 	0.39240 0.28650 0.19900 -0.12800
O 	O 	0.45810 0.33140 0.23850 -0.15900
O 	O 	0.10510 0.61910 0.20760 -0.37800
O 	O 	0.16670 0.68154 0.20010 -0.38900
N 	N 	0.29055 0.41756 0.20810 -0.22400
N 	N 	0.22170 0.49784 0.20651 -0.24700
C 	C 	0.32350 0.37460 0.20960 0.09800
H 	H 	0.30790 0.34040 0.21040 0.01800
C 	C 	0.37860 0.37790 0.21000 -0.13500
C 	C 	0.40130 0.42930 0.20660 0.06100
H 	H 	0.43860 0.43360 0.20580 0.02800
C 	C 	0.36740 0.47430 0.20450 -0.11600
H 	H 	0.38210 0.50880 0.20230 0.07200
C 	C 	0.31220 0.46760 0.20590 0.05600
C 	C 	0.27330 0.51280 0.20380 0.07600
C 	C 	0.28840 0.56590 0.20000 -0.13600
H 	H 	0.32470 0.57520 0.19760 0.07700
C 	C 	0.24970 0.60470 0.19960 0.06900
H 	H 	0.25950 0.64090 0.19700 0.02700
C 	C 	0.19640 0.59090 0.20300 -0.12700
C 	C 	0.18400 0.53600 0.20670 0.09100
H 	H 	0.14790 0.52580 0.20930 -0.01000
C 	C 	0.41320 0.32870 0.21190 0.38200
C 	C 	0.15270 0.63340 0.20310 0.33200
O 	O 	0.38660 0.28530 0.21410 -0.28700
O 	O 	0.46300 0.33490 0.20040 -0.18600
Co	Co	0.70530 0.08519 0.78974 1.13700
O 	O 	0.89240 0.21350 0.80100 -0.12800
O 	O 	0.95810 0.16860 0.76150 -0.15900
O 	O 	0.60510 0.88090 0.79240 -0.37800
O 	O 	0.66670 0.81846 0.79990 -0.38900
N 	N 	0.79055 0.08244 0.79190 -0.22400
N 	N 	0.72170 0.00216 0.79349 -0.24600
C 	C 	0.82350 0.12540 0.79040 0.09800
H 	H 	0.80790 0.15960 0.78960 0.01800
C 	C 	0.87860 0.12210 0.79000 -0.13500
C 	C 	0.90130 0.07070 0.79340 0.06000
H 	H 	0.93860 0.06640 0.79420 0.02800
C 	C 	0.86740 0.02570 0.79550 -0.11500
H 	H 	0.88210 0.99120 0.79770 0.07100
C 	C 	0.81220 0.03240 0.79410 0.05600
C 	C 	0.77330 0.98720 0.79620 0.07500
C 	C 	0.78840 0.93410 0.80000 -0.13500
H 	H 	0.82470 0.92480 0.80240 0.07700
C 	C 	0.74970 0.89530 0.80040 0.06800
H 	H 	0.75950 0.85910 0.80300 0.02700
C 	C 	0.69640 0.90910 0.79700 -0.12700
C 	C 	0.68400 0.96400 0.79330 0.09000
H 	H 	0.64790 0.97420 0.79070 -0.01000
C 	C 	0.91320 0.17130 0.78810 0.38200
C 	C 	0.65270 0.86660 0.79690 0.33100
O 	O 	0.88660 0.21470 0.78590 -0.28700
O 	O 	0.96300 0.16510 0.79960 -0.18600
Co	Co	0.29470 0.58519 0.71026 1.13700
O 	O 	0.10760 0.71350 0.69900 -0.12800
O 	O 	0.04190 0.66860 0.73850 -0.15900
O 	O 	0.39490 0.38090 0.70760 -0.37800
O 	O 	0.33330 0.31846 0.70010 -0.38900
N 	N 	0.20945 0.58244 0.70810 -0.22400
N 	N 	0.27830 0.50216 0.70651 -0.24700
C 	C 	0.17650 0.62540 0.70960 0.09800
H 	H 	0.19210 0.65960 0.71040 0.01800
C 	C 	0.12140 0.62210 0.71000 -0.13500
C 	C 	0.09870 0.57070 0.70660 0.06100
H 	H 	0.06140 0.56640 0.70580 0.02800
C 	C 	0.13260 0.52570 0.70450 -0.11600
H 	H 	0.11790 0.49120 0.70230 0.07200
C 	C 	0.18780 0.53240 0.70590 0.05600
C 	C 	0.22670 0.48720 0.70380 0.07600
C 	C 	0.21160 0.43410 0.70000 -0.13600
H 	H 	0.17530 0.42480 0.69760 0.07700
C 	C 	0.25030 0.39530 0.69960 0.06900
H 	H 	0.24050 0.35910 0.69700 0.02700
C 	C 	0.30360 0.40910 0.70300 -0.12700
C 	C 	0.31600 0.46400 0.70670 0.09100
H 	H 	0.35210 0.47420 0.70930 -0.01000
C 	C 	0.08680 0.67130 0.71190 0.38200
C 	C 	0.34730 0.36660 0.70310 0.33200
O 	O 	0.11340 0.71470 0.71410 -0.28700
O 	O 	0.03700 0.66510 0.70040 -0.18600
Co	Co	0.79470 0.91481 0.28974 1.13700
O 	O 	0.60760 0.78650 0.30100 -0.12800
O 	O 	0.54190 0.83140 0.26150 -0.15900
O 	O 	0.89490 0.11910 0.29240 -0.37800
O 	O 	0.83330 0.18154 0.29990 -0.38900
N 	N 	0.70945 0.91756 0.29190 -0.22400
N 	N 	0.77830 0.99784 0.29349 -0.24700
C 	C 	0.67650 0.87460 0.29040 0.09800
H 	H 	0.69210 0.84040 0.28960 0.01800
C 	C 	0.62140 0.87790 0.29000 -0.13500
C 	C 	0.59870 0.92930 0.29340 0.06100
H 	H 	0.56140 0.93360 0.29420 0.02800
C 	C 	0.63260 0.97430 0.29550 -0.11600
H 	H 	0.61790 0.00880 0.29770 0.07200
C 	C 	0.68780 0.96760 0.29410 0.05600
C 	C 	0.72670 0.01280 0.29620 0.07600
C 	C 	0.71160 0.06590 0.30000 -0.13600
H 	H 	0.67530 0.07520 0.30240 0.07700
C 	C 	0.75030 0.10470 0.30040 0.06900
H 	H 	0.74050 0.14090 0.30300 0.02700
C 	C 	0.80360 0.09090 0.29700 -0.12700
C 	C 	0.81600 0.03600 0.29330 0.09100
H 	H 	0.85210 0.02580 0.29070 -0.01000
C 	C 	0.58680 0.82870 0.28810 0.38200
C 	C 	0.84730 0.13340 0.29690 0.33200
O 	O 	0.61340 0.78530 0.28590 -0.28700
O 	O 	0.53700 0.83490 0.29960 -0.18600
Co	Co	0.21026 0.20530 0.41481 1.13700
O 	O 	0.19900 0.39240 0.28650 -0.12800
O 	O 	0.23850 0.45810 0.33140 -0.15900
O 	O 	0.20760 0.10510 0.61910 -0.37800
O 	O 	0.20010 0.16670 0.68154 -0.38900
N 	N 	0.20810 0.29055 0.41756 -0.22400
N 	N 	0.20651 0.22170 0.49784 -0.24700
C 	C 	0.20960 0.32350 0.37460 0.09800
H 	H 	0.21040 0.30790 0.34040 0.01800
C 	C 	0.21000 0.37860 0.37790 -0.13500
C 	C 	0.20660 0.40130 0.42930 0.06100
H 	H 	0.20580 0.43860 0.43360 0.02800
C 	C 	0.20450 0.36740 0.47430 -0.11600
H 	H 	0.20230 0.38210 0.50880 0.07200
C 	C 	0.20590 0.31220 0.46760 0.05600
C 	C 	0.20380 0.27330 0.51280 0.07600
C 	C 	0.20000 0.28840 0.56590 -0.13600
H 	H 	0.19760 0.32470 0.57520 0.07700
C 	C 	0.19960 0.24970 0.60470 0.06900
H 	H 	0.19700 0.25950 0.64090 0.02700
C 	C 	0.20300 0.19640 0.59090 -0.12700
C 	C 	0.20670 0.18400 0.53600 0.09100
H 	H 	0.20930 0.14790 0.52580 -0.01000
C 	C 	0.21190 0.41320 0.32870 0.38200
C 	C 	0.20310 0.15270 0.63340 0.33200
O 	O 	0.21410 0.38660 0.28530 -0.28700
O 	O 	0.20040 0.46300 0.33490 -0.18600
Co	Co	0.78974 0.70530 0.08519 1.13700
O 	O 	0.80100 0.89240 0.21350 -0.12800
O 	O 	0.76150 0.95810 0.16860 -0.15900
O 	O 	0.79240 0.60510 0.88090 -0.37800
O 	O 	0.79990 0.66670 0.81846 -0.38900
N 	N 	0.79190 0.79055 0.08244 -0.22400
N 	N 	0.79349 0.72170 0.00216 -0.24600
C 	C 	0.79040 0.82350 0.12540 0.09800
H 	H 	0.78960 0.80790 0.15960 0.01800
C 	C 	0.79000 0.87860 0.12210 -0.13500
C 	C 	0.79340 0.90130 0.07070 0.06000
H 	H 	0.79420 0.93860 0.06640 0.02800
C 	C 	0.79550 0.86740 0.02570 -0.11500
H 	H 	0.79770 0.88210 0.99120 0.07100
C 	C 	0.79410 0.81220 0.03240 0.05600
C 	C 	0.79620 0.77330 0.98720 0.07500
C 	C 	0.80000 0.78840 0.93410 -0.13500
H 	H 	0.80240 0.82470 0.92480 0.07700
C 	C 	0.80040 0.74970 0.89530 0.06800
H 	H 	0.80300 0.75950 0.85910 0.02700
C 	C 	0.79700 0.69640 0.90910 -0.12700
C 	C 	0.79330 0.68400 0.96400 0.09000
H 	H 	0.79070 0.64790 0.97420 -0.01000
C 	C 	0.78810 0.91320 0.17130 0.38200
C 	C 	0.79690 0.65270 0.86660 0.33100
O 	O 	0.78590 0.88660 0.21470 -0.28700
O 	O 	0.79960 0.96300 0.16510 -0.18600
Co	Co	0.71026 0.29470 0.58519 1.13700
O 	O 	0.69900 0.10760 0.71350 -0.12800
O 	O 	0.73850 0.04190 0.66860 -0.15900
O 	O 	0.70760 0.39490 0.38090 -0.37800
O 	O 	0.70010 0.33330 0.31846 -0.38900
N 	N 	0.70810 0.20945 0.58244 -0.22400
N 	N 	0.70651 0.27830 0.50216 -0.24700
C 	C 	0.70960 0.17650 0.62540 0.09800
H 	H 	0.71040 0.19210 0.65960 0.01800
C 	C 	0.71000 0.12140 0.62210 -0.13500
C 	C 	0.70660 0.09870 0.57070 0.06100
H 	H 	0.70580 0.06140 0.56640 0.02800
C 	C 	0.70450 0.13260 0.52570 -0.11600
H 	H 	0.70230 0.11790 0.49120 0.07200
C 	C 	0.70590 0.18780 0.53240 0.05600
C 	C 	0.70380 0.22670 0.48720 0.07600
C 	C 	0.70000 0.21160 0.43410 -0.13600
H 	H 	0.69760 0.17530 0.42480 0.07700
C 	C 	0.69960 0.25030 0.39530 0.06900
H 	H 	0.69700 0.24050 0.35910 0.02700
C 	C 	0.70300 0.30360 0.40910 -0.12700
C 	C 	0.70670 0.31600 0.46400 0.09100
H 	H 	0.70930 0.35210 0.47420 -0.01000
C 	C 	0.71190 0.08680 0.67130 0.38200
C 	C 	0.70310 0.34730 0.36660 0.33200
O 	O 	0.71410 0.11340 0.71470 -0.28700
O 	O 	0.70040 0.03700 0.66510 -0.18600
Co	Co	0.28974 0.79470 0.91481 1.13700
O 	O 	0.30100 0.60760 0.78650 -0.12800
O 	O 	0.26150 0.54190 0.83140 -0.15900
O 	O 	0.29240 0.89490 0.11910 -0.37800
O 	O 	0.29990 0.83330 0.18154 -0.38900
N 	N 	0.29190 0.70945 0.91756 -0.22400
N 	N 	0.29349 0.77830 0.99784 -0.24700
C 	C 	0.29040 0.67650 0.87460 0.09800
H 	H 	0.28960 0.69210 0.84040 0.01800
C 	C 	0.29000 0.62140 0.87790 -0.13500
C 	C 	0.29340 0.59870 0.92930 0.06100
H 	H 	0.29420 0.56140 0.93360 0.02800
C 	C 	0.29550 0.63260 0.97430 -0.11600
H 	H 	0.29770 0.61790 0.00880 0.07200
C 	C 	0.29410 0.68780 0.96760 0.05600
C 	C 	0.29620 0.72670 0.01280 0.07600
C 	C 	0.30000 0.71160 0.06590 -0.13600
H 	H 	0.30240 0.67530 0.07520 0.07700
C 	C 	0.30040 0.75030 0.10470 0.06900
H 	H 	0.30300 0.74050 0.14090 0.02700
C 	C 	0.29700 0.80360 0.09090 -0.12700
C 	C 	0.29330 0.81600 0.03600 0.09100
H 	H 	0.29070 0.85210 0.02580 -0.01000
C 	C 	0.28810 0.58680 0.82870 0.38200
C 	C 	0.29690 0.84730 0.13340 0.33200
O 	O 	0.28590 0.61340 0.78530 -0.28700
O 	O 	0.29960 0.53700 0.83490 -0.18600
Co	Co	0.58519 0.78974 0.79470 1.13700
O 	O 	0.71350 0.80100 0.60760 -0.12800
O 	O 	0.66860 0.76150 0.54190 -0.15900
O 	O 	0.38090 0.79240 0.89490 -0.37800
O 	O 	0.31846 0.79990 0.83330 -0.38900
N 	N 	0.58244 0.79190 0.70945 -0.22400
N 	N 	0.50216 0.79349 0.77830 -0.24700
C 	C 	0.62540 0.79040 0.67650 0.09800
H 	H 	0.65960 0.78960 0.69210 0.01800
C 	C 	0.62210 0.79000 0.62140 -0.13500
C 	C 	0.57070 0.79340 0.59870 0.06100
H 	H 	0.56640 0.79420 0.56140 0.02800
C 	C 	0.52570 0.79550 0.63260 -0.11600
H 	H 	0.49120 0.79770 0.61790 0.07200
C 	C 	0.53240 0.79410 0.68780 0.05600
C 	C 	0.48720 0.79620 0.72670 0.07600
C 	C 	0.43410 0.80000 0.71160 -0.13600
H 	H 	0.42480 0.80240 0.67530 0.07700
C 	C 	0.39530 0.80040 0.75030 0.06900
H 	H 	0.35910 0.80300 0.74050 0.02700
C 	C 	0.40910 0.79700 0.80360 -0.12700
C 	C 	0.46400 0.79330 0.81600 0.09100
H 	H 	0.47420 0.79070 0.85210 -0.01000
C 	C 	0.67130 0.78810 0.58680 0.38200
C 	C 	0.36660 0.79690 0.84730 0.33200
O 	O 	0.71470 0.78590 0.61340 -0.28700
O 	O 	0.66510 0.79960 0.53700 -0.18600
Co	Co	0.91481 0.21026 0.29470 1.13700
O 	O 	0.78650 0.19900 0.10760 -0.12800
O 	O 	0.83140 0.23850 0.04190 -0.15900
O 	O 	0.11910 0.20760 0.39490 -0.37800
O 	O 	0.18154 0.20010 0.33330 -0.38900
N 	N 	0.91756 0.20810 0.20945 -0.22400
N 	N 	0.99784 0.20651 0.27830 -0.24600
C 	C 	0.87460 0.20960 0.17650 0.09800
H 	H 	0.84040 0.21040 0.19210 0.01800
C 	C 	0.87790 0.21000 0.12140 -0.13500
C 	C 	0.92930 0.20660 0.09870 0.06000
H 	H 	0.93360 0.20580 0.06140 0.02800
C 	C 	0.97430 0.20450 0.13260 -0.11500
H 	H 	0.00880 0.20230 0.11790 0.07100
C 	C 	0.96760 0.20590 0.18780 0.05600
C 	C 	0.01280 0.20380 0.22670 0.07500
C 	C 	0.06590 0.20000 0.21160 -0.13500
H 	H 	0.07520 0.19760 0.17530 0.07700
C 	C 	0.10470 0.19960 0.25030 0.06800
H 	H 	0.14090 0.19700 0.24050 0.02700
C 	C 	0.09090 0.20300 0.30360 -0.12700
C 	C 	0.03600 0.20670 0.31600 0.09000
H 	H 	0.02580 0.20930 0.35210 -0.01000
C 	C 	0.82870 0.21190 0.08680 0.38200
C 	C 	0.13340 0.20310 0.34730 0.33100
O 	O 	0.78530 0.21410 0.11340 -0.28700
O 	O 	0.83490 0.20040 0.03700 -0.18600
Co	Co	0.41481 0.28974 0.70530 1.13700
O 	O 	0.28650 0.30100 0.89240 -0.12800
O 	O 	0.33140 0.26150 0.95810 -0.15900
O 	O 	0.61910 0.29240 0.60510 -0.37800
O 	O 	0.68154 0.29990 0.66670 -0.38900
N 	N 	0.41756 0.29190 0.79055 -0.22400
N 	N 	0.49784 0.29349 0.72170 -0.24700
C 	C 	0.37460 0.29040 0.82350 0.09800
H 	H 	0.34040 0.28960 0.80790 0.01800
C 	C 	0.37790 0.29000 0.87860 -0.13500
C 	C 	0.42930 0.29340 0.90130 0.06100
H 	H 	0.43360 0.29420 0.93860 0.02800
C 	C 	0.47430 0.29550 0.86740 -0.11600
H 	H 	0.50880 0.29770 0.88210 0.07200
C 	C 	0.46760 0.29410 0.81220 0.05600
C 	C 	0.51280 0.29620 0.77330 0.07600
C 	C 	0.56590 0.30000 0.78840 -0.13600
H 	H 	0.57520 0.30240 0.82470 0.07700
C 	C 	0.60470 0.30040 0.74970 0.06900
H 	H 	0.64090 0.30300 0.75950 0.02700
C 	C 	0.59090 0.29700 0.69640 -0.12700
C 	C 	0.53600 0.29330 0.68400 0.09100
H 	H 	0.52580 0.29070 0.64790 -0.01000
C 	C 	0.32870 0.28810 0.91320 0.38200
C 	C 	0.63340 0.29690 0.65270 0.33200
O 	O 	0.28530 0.28590 0.88660 -0.28700
O 	O 	0.33490 0.29960 0.96300 -0.18600
Co	Co	0.08519 0.71026 0.20530 1.13700
O 	O 	0.21350 0.69900 0.39240 -0.12800
O 	O 	0.16860 0.73850 0.45810 -0.15900
O 	O 	0.88090 0.70760 0.10510 -0.37800
O 	O 	0.81846 0.70010 0.16670 -0.38900
N 	N 	0.08244 0.70810 0.29055 -0.22400
N 	N 	0.00216 0.70651 0.22170 -0.24700
C 	C 	0.12540 0.70960 0.32350 0.09800
H 	H 	0.15960 0.71040 0.30790 0.01800
C 	C 	0.12210 0.71000 0.37860 -0.13500
C 	C 	0.07070 0.70660 0.40130 0.06100
H 	H 	0.06640 0.70580 0.43860 0.02800
C 	C 	0.02570 0.70450 0.36740 -0.11600
H 	H 	0.99120 0.70230 0.38210 0.07200
C 	C 	0.03240 0.70590 0.31220 0.05600
C 	C 	0.98720 0.70380 0.27330 0.07600
C 	C 	0.93410 0.70000 0.28840 -0.13600
H 	H 	0.92480 0.69760 0.32470 0.07700
C 	C 	0.89530 0.69960 0.24970 0.06900
H 	H 	0.85910 0.69700 0.25950 0.02700
C 	C 	0.90910 0.70300 0.19640 -0.12700
C 	C 	0.96400 0.70670 0.18400 0.09100
H 	H 	0.97420 0.70930 0.14790 -0.01000
C 	C 	0.17130 0.71190 0.41320 0.38200
C 	C 	0.86660 0.70310 0.15270 0.33200
O 	O 	0.21470 0.71410 0.38660 -0.28700
O 	O 	0.16510 0.70040 0.46300 -0.18600
Co	Co	0.79470 0.58519 0.78974 1.13700
O 	O 	0.60760 0.71350 0.80100 -0.12800
O 	O 	0.54190 0.66860 0.76150 -0.15900
O 	O 	0.89490 0.38090 0.79240 -0.37800
O 	O 	0.83330 0.31846 0.79990 -0.38900
N 	N 	0.70945 0.58244 0.79190 -0.22400
N 	N 	0.77830 0.50216 0.79349 -0.24700
C 	C 	0.67650 0.62540 0.79040 0.09800
H 	H 	0.69210 0.65960 0.78960 0.01800
C 	C 	0.62140 0.62210 0.79000 -0.13500
C 	C 	0.59870 0.57070 0.79340 0.06100
H 	H 	0.56140 0.56640 0.79420 0.02800
C 	C 	0.63260 0.52570 0.79550 -0.11600
H 	H 	0.61790 0.49120 0.79770 0.07200
C 	C 	0.68780 0.53240 0.79410 0.05600
C 	C 	0.72670 0.48720 0.79620 0.07600
C 	C 	0.71160 0.43410 0.80000 -0.13600
H 	H 	0.67530 0.42480 0.80240 0.07700
C 	C 	0.75030 0.39530 0.80040 0.06900
H 	H 	0.74050 0.35910 0.80300 0.02700
C 	C 	0.80360 0.40910 0.79700 -0.12700
C 	C 	0.81600 0.46400 0.79330 0.09100
H 	H 	0.85210 0.47420 0.79070 -0.01000
C 	C 	0.58680 0.67130 0.78810 0.38200
C 	C 	0.84730 0.36660 0.79690 0.33200
O 	O 	0.61340 0.71470 0.78590 -0.28700
O 	O 	0.53700 0.66510 0.79960 -0.18600
Co	Co	0.29470 0.91481 0.21026 1.13700
O 	O 	0.10760 0.78650 0.19900 -0.12800
O 	O 	0.04190 0.83140 0.23850 -0.15900
O 	O 	0.39490 0.11910 0.20760 -0.37800
O 	O 	0.33330 0.18154 0.20010 -0.38900
N 	N 	0.20945 0.91756 0.20810 -0.22400
N 	N 	0.27830 0.99784 0.20651 -0.24600
C 	C 	0.17650 0.87460 0.20960 0.09800
H 	H 	0.19210 0.84040 0.21040 0.01800
C 	C 	0.12140 0.87790 0.21000 -0.13500
C 	C 	0.09870 0.92930 0.20660 0.06000
H 	H 	0.06140 0.93360 0.20580 0.02800
C 	C 	0.13260 0.97430 0.20450 -0.11500
H 	H 	0.11790 0.00880 0.20230 0.07100
C 	C 	0.18780 0.96760 0.20590 0.05600
C 	C 	0.22670 0.01280 0.20380 0.07500
C 	C 	0.21160 0.06590 0.20000 -0.13500
H 	H 	0.17530 0.07520 0.19760 0.07700
C 	C 	0.25030 0.10470 0.19960 0.06800
H 	H 	0.24050 0.14090 0.19700 0.02700
C 	C 	0.30360 0.09090 0.20300 -0.12700
C 	C 	0.31600 0.03600 0.20670 0.09000
H 	H 	0.35210 0.02580 0.20930 -0.01000
C 	C 	0.08680 0.82870 0.21190 0.38200
C 	C 	0.34730 0.13340 0.20310 0.33100
O 	O 	0.11340 0.78530 0.21410 -0.28700
O 	O 	0.03700 0.83490 0.20040 -0.18600
Co	Co	0.70530 0.41481 0.28974 1.13700
O 	O 	0.89240 0.28650 0.30100 -0.12800
O 	O 	0.95810 0.33140 0.26150 -0.15900
O 	O 	0.60510 0.61910 0.29240 -0.37800
O 	O 	0.66670 0.68154 0.29990 -0.38900
N 	N 	0.79055 0.41756 0.29190 -0.22400
N 	N 	0.72170 0.49784 0.29349 -0.24700
C 	C 	0.82350 0.37460 0.29040 0.09800
H 	H 	0.80790 0.34040 0.28960 0.01800
C 	C 	0.87860 0.37790 0.29000 -0.13500
C 	C 	0.90130 0.42930 0.29340 0.06100
H 	H 	0.93860 0.43360 0.29420 0.02800
C 	C 	0.86740 0.47430 0.29550 -0.11600
H 	H 	0.88210 0.50880 0.29770 0.07200
C 	C 	0.81220 0.46760 0.29410 0.05600
C 	C 	0.77330 0.51280 0.29620 0.07600
C 	C 	0.78840 0.56590 0.30000 -0.13600
H 	H 	0.82470 0.57520 0.30240 0.07700
C 	C 	0.74970 0.60470 0.30040 0.06900
H 	H 	0.75950 0.64090 0.30300 0.02700
C 	C 	0.69640 0.59090 0.29700 -0.12700
C 	C 	0.68400 0.53600 0.29330 0.09100
H 	H 	0.64790 0.52580 0.29070 -0.01000
C 	C 	0.91320 0.32870 0.28810 0.38200
C 	C 	0.65270 0.63340 0.29690 0.33200
O 	O 	0.88660 0.28530 0.28590 -0.28700
O 	O 	0.96300 0.33490 0.29960 -0.18600
Co	Co	0.20530 0.08519 0.71026 1.13700
O 	O 	0.39240 0.21350 0.69900 -0.12800
O 	O 	0.45810 0.16860 0.73850 -0.15900
O 	O 	0.10510 0.88090 0.70760 -0.37800
O 	O 	0.16670 0.81846 0.70010 -0.38900
N 	N 	0.29055 0.08244 0.70810 -0.22400
N 	N 	0.22170 0.00216 0.70651 -0.24700
C 	C 	0.32350 0.12540 0.70960 0.09800
H 	H 	0.30790 0.15960 0.71040 0.01800
C 	C 	0.37860 0.12210 0.71000 -0.13500
C 	C 	0.40130 0.07070 0.70660 0.06100
H 	H 	0.43860 0.06640 0.70580 0.02800
C 	C 	0.36740 0.02570 0.70450 -0.11600
H 	H 	0.38210 0.99120 0.70230 0.07200
C 	C 	0.31220 0.03240 0.70590 0.05600
C 	C 	0.27330 0.98720 0.70380 0.07600
C 	C 	0.28840 0.93410 0.70000 -0.13600
H 	H 	0.32470 0.92480 0.69760 0.07700
C 	C 	0.24970 0.89530 0.69960 0.06900
H 	H 	0.25950 0.85910 0.69700 0.02700
C 	C 	0.19640 0.90910 0.70300 -0.12700
C 	C 	0.18400 0.96400 0.70670 0.09100
H 	H 	0.14790 0.97420 0.70930 -0.01000
C 	C 	0.41320 0.17130 0.71190 0.38200
C 	C 	0.15270 0.86660 0.70310 0.33200
O 	O 	0.38660 0.21470 0.71410 -0.28700
O 	O 	0.46300 0.16510 0.70040 -0.18600
Co	Co	0.78974 0.79470 0.58519 1.13700
O 	O 	0.80100 0.60760 0.71350 -0.12800
O 	O 	0.76150 0.54190 0.66860 -0.15900
O 	O 	0.79240 0.89490 0.38090 -0.37800
O 	O 	0.79990 0.83330 0.31846 -0.38900
N 	N 	0.79190 0.70945 0.58244 -0.22400
N 	N 	0.79349 0.77830 0.50216 -0.24700
C 	C 	0.79040 0.67650 0.62540 0.09800
H 	H 	0.78960 0.69210 0.65960 0.01800
C 	C 	0.79000 0.62140 0.62210 -0.13500
C 	C 	0.79340 0.59870 0.57070 0.06100
H 	H 	0.79420 0.56140 0.56640 0.02800
C 	C 	0.79550 0.63260 0.52570 -0.11600
H 	H 	0.79770 0.61790 0.49120 0.07200
C 	C 	0.79410 0.68780 0.53240 0.05600
C 	C 	0.79620 0.72670 0.48720 0.07600
C 	C 	0.80000 0.71160 0.43410 -0.13600
H 	H 	0.80240 0.67530 0.42480 0.07700
C 	C 	0.80040 0.75030 0.39530 0.06900
H 	H 	0.80300 0.74050 0.35910 0.02700
C 	C 	0.79700 0.80360 0.40910 -0.12700
C 	C 	0.79330 0.81600 0.46400 0.09100
H 	H 	0.79070 0.85210 0.47420 -0.01000
C 	C 	0.78810 0.58680 0.67130 0.38200
C 	C 	0.79690 0.84730 0.36660 0.33200
O 	O 	0.78590 0.61340 0.71470 -0.28700
O 	O 	0.79960 0.53700 0.66510 -0.18600
Co	Co	0.21026 0.29470 0.91481 1.13700
O 	O 	0.19900 0.10760 0.78650 -0.12800
O 	O 	0.23850 0.04190 0.83140 -0.15900
O 	O 	0.20760 0.39490 0.11910 -0.37800
O 	O 	0.20010 0.33330 0.18154 -0.38900
N 	N 	0.20810 0.20945 0.91756 -0.22400
N 	N 	0.20651 0.27830 0.99784 -0.24600
C 	C 	0.20960 0.17650 0.87460 0.09800
H 	H 	0.21040 0.19210 0.84040 0.01800
C 	C 	0.21000 0.12140 0.87790 -0.13500
C 	C 	0.20660 0.09870 0.92930 0.06000
H 	H 	0.20580 0.06140 0.93360 0.02800
C 	C 	0.20450 0.13260 0.97430 -0.11500
H 	H 	0.20230 0.11790 0.00880 0.07100
C 	C 	0.20590 0.18780 0.96760 0.05600
C 	C 	0.20380 0.22670 0.01280 0.07500
C 	C 	0.20000 0.21160 0.06590 -0.13500
H 	H 	0.19760 0.17530 0.07520 0.07700
C 	C 	0.19960 0.25030 0.10470 0.06800
H 	H 	0.19700 0.24050 0.14090 0.02700
C 	C 	0.20300 0.30360 0.09090 -0.12700
C 	C 	0.20670 0.31600 0.03600 0.09000
H 	H 	0.20930 0.35210 0.02580 -0.01000
C 	C 	0.21190 0.08680 0.82870 0.38200
C 	C 	0.20310 0.34730 0.13340 0.33100
O 	O 	0.21410 0.11340 0.78530 -0.28700
O 	O 	0.20040 0.03700 0.83490 -0.18600
Co	Co	0.28974 0.70530 0.41481 1.13700
O 	O 	0.30100 0.89240 0.28650 -0.12800
O 	O 	0.26150 0.95810 0.33140 -0.15900
O 	O 	0.29240 0.60510 0.61910 -0.37800
O 	O 	0.29990 0.66670 0.68154 -0.38900
N 	N 	0.29190 0.79055 0.41756 -0.22400
N 	N 	0.29349 0.72170 0.49784 -0.24700
C 	C 	0.29040 0.82350 0.37460 0.09800
H 	H 	0.28960 0.80790 0.34040 0.01800
C 	C 	0.29000 0.87860 0.37790 -0.13500
C 	C 	0.29340 0.90130 0.42930 0.06100
H 	H 	0.29420 0.93860 0.43360 0.02800
C 	C 	0.29550 0.86740 0.47430 -0.11600
H 	H 	0.29770 0.88210 0.50880 0.07200
C 	C 	0.29410 0.81220 0.46760 0.05600
C 	C 	0.29620 0.77330 0.51280 0.07600
C 	C 	0.30000 0.78840 0.56590 -0.13600
H 	H 	0.30240 0.82470 0.57520 0.07700
C 	C 	0.30040 0.74970 0.60470 0.06900
H 	H 	0.30300 0.75950 0.64090 0.02700
C 	C 	0.29700 0.69640 0.59090 -0.12700
C 	C 	0.29330 0.68400 0.53600 0.09100
H 	H 	0.29070 0.64790 0.52580 -0.01000
C 	C 	0.28810 0.91320 0.32870 0.38200
C 	C 	0.29690 0.65270 0.63340 0.33200
O 	O 	0.28590 0.88660 0.28530 -0.28700
O 	O 	0.29960 0.96300 0.33490 -0.18600
Co	Co	0.71026 0.20530 0.08519 1.13700
O 	O 	0.69900 0.39240 0.21350 -0.12800
O 	O 	0.73850 0.45810 0.16860 -0.15900
O 	O 	0.70760 0.10510 0.88090 -0.37800
O 	O 	0.70010 0.16670 0.81846 -0.38900
N 	N 	0.70810 0.29055 0.08244 -0.22400
N 	N 	0.70651 0.22170 0.00216 -0.24700
C 	C 	0.70960 0.32350 0.12540 0.09800
H 	H 	0.71040 0.30790 0.15960 0.01800
C 	C 	0.71000 0.37860 0.12210 -0.13500
C 	C 	0.70660 0.40130 0.07070 0.06100
H 	H 	0.70580 0.43860 0.06640 0.02800
C 	C 	0.70450 0.36740 0.02570 -0.11600
H 	H 	0.70230 0.38210 0.99120 0.07200
C 	C 	0.70590 0.31220 0.03240 0.05600
C 	C 	0.70380 0.27330 0.98720 0.07600
C 	C 	0.70000 0.28840 0.93410 -0.13600
H 	H 	0.69760 0.32470 0.92480 0.07700
C 	C 	0.69960 0.24970 0.89530 0.06900
H 	H 	0.69700 0.25950 0.85910 0.02700
C 	C 	0.70300 0.19640 0.90910 -0.12700
C 	C 	0.70670 0.18400 0.96400 0.09100
H 	H 	0.70930 0.14790 0.97420 -0.01000
C 	C 	0.71190 0.41320 0.17130 0.38200
C 	C 	0.70310 0.15270 0.86660 0.33200
O 	O 	0.71410 0.38660 0.21470 -0.28700
O 	O 	0.70040 0.46300 0.16510 -0.18600
