data_crystal

_cell_length_a 27.92000
_cell_length_b 27.92000
_cell_length_c 30.66930
_cell_angle_alpha 62.92350
_cell_angle_beta  62.92350
_cell_angle_gamma 89.99990

_symmetry_space_group_name_	'P 1'
_symmetry_space_group_name_H-M	'P 1'

loop_
_symmetry_equiv_pos_as_xyz
  x,y,z

loop_
_atom_site_label
_atom_site_type_symbol
_atom_site_fract_x
_atom_site_fract_y
_atom_site_fract_z
_atom_site_charge
Tb	Tb	0.09405 0.45460 0.49026 1.80600
Tb	Tb	0.91569 0.05514 0.49026 1.80600
Tb	Tb	0.45459 0.91568 0.99027 1.80400
Tb	Tb	0.05515 0.09406 0.99025 1.80300
Tb	Tb	0.90595 0.54540 0.50974 1.80600
Tb	Tb	0.08431 0.94486 0.50974 1.80600
Tb	Tb	0.54541 0.08432 0.00973 1.80400
Tb	Tb	0.94485 0.90594 0.00975 1.80300
C 	C 	0.20570 0.56000 0.41760 0.45700
C 	C 	0.22480 0.62270 0.38940 -0.13800
C 	C 	0.23166 0.64676 0.41788 0.18800
C 	C 	0.24790 0.70280 0.39320 0.12300
C 	C 	0.25946 0.73976 0.33688 -0.01700
C 	C 	0.25485 0.71585 0.30750 0.13800
C 	C 	0.23700 0.65800 0.33440 0.18800
C 	C 	0.27513 0.80123 0.31114 0.13200
C 	C 	0.15040 0.90620 0.43780 0.40400
C 	C 	0.18284 0.88034 0.40332 -0.12600
C 	C 	0.24017 0.89137 0.37706 0.18800
C 	C 	0.26955 0.86645 0.34810 0.12700
C 	C 	0.24279 0.82679 0.34382 -0.01500
C 	C 	0.18475 0.81575 0.37110 0.13100
C 	C 	0.15604 0.84314 0.39932 0.18600
C 	C 	0.45820 0.95180 0.08340 0.56700
C 	C 	0.41042 0.91102 0.14256 -0.21000
C 	C 	0.35786 0.91996 0.15988 0.21000
C 	C 	0.31310 0.88370 0.21320 0.11800
C 	C 	0.32054 0.83744 0.25312 -0.00900
C 	C 	0.37533 0.82903 0.23414 0.11600
C 	C 	0.41888 0.86558 0.18024 0.20800
C 	C 	0.87670 0.02240 0.41760 0.45800
C 	C 	0.88580 0.98790 0.38940 -0.13900
C 	C 	0.85046 0.93536 0.41788 0.18800
C 	C 	0.85890 0.90400 0.39320 0.12300
C 	C 	0.90366 0.92336 0.33688 -0.01600
C 	C 	0.93765 0.97665 0.30750 0.13700
C 	C 	0.92860 0.00760 0.33440 0.18900
C 	C 	0.91373 0.88763 0.31114 0.13100
C 	C 	0.91180 0.65600 0.43780 0.40400
C 	C 	0.91384 0.71634 0.40332 -0.12600
C 	C 	0.88277 0.73157 0.37706 0.18800
C 	C 	0.88235 0.78545 0.34810 0.12700
C 	C 	0.91339 0.82939 0.34382 -0.01500
C 	C 	0.94415 0.81315 0.37110 0.13100
C 	C 	0.94464 0.75754 0.39932 0.18600
C 	C 	0.95840 0.96480 0.08340 0.56700
C 	C 	0.94702 0.94642 0.14256 -0.21000
C 	C 	0.98226 0.92016 0.15988 0.20800
C 	C 	0.97370 0.90310 0.21320 0.11700
C 	C 	0.92634 0.90944 0.25312 -0.00900
C 	C 	0.89053 0.93683 0.23414 0.11600
C 	C 	0.90088 0.95418 0.18024 0.20800
C 	C 	0.56000 0.87670 0.91760 0.45700
C 	C 	0.62270 0.88580 0.88940 -0.13800
C 	C 	0.64676 0.85046 0.91788 0.18800
C 	C 	0.70280 0.85890 0.89320 0.12300
C 	C 	0.73976 0.90366 0.83688 -0.01700
C 	C 	0.71585 0.93765 0.80750 0.13800
C 	C 	0.65800 0.92860 0.83440 0.18800
C 	C 	0.80123 0.91373 0.81114 0.13200
C 	C 	0.90620 0.91180 0.93780 0.40400
C 	C 	0.88034 0.91384 0.90332 -0.12500
C 	C 	0.89137 0.88277 0.87706 0.18800
C 	C 	0.86645 0.88235 0.84810 0.12700
C 	C 	0.82679 0.91339 0.84382 -0.01500
C 	C 	0.81575 0.94415 0.87110 0.13100
C 	C 	0.84314 0.94464 0.89932 0.18600
C 	C 	0.95180 0.95840 0.58340 0.56700
C 	C 	0.91102 0.94702 0.64256 -0.21100
C 	C 	0.91996 0.98226 0.65988 0.20900
C 	C 	0.88370 0.97370 0.71320 0.11700
C 	C 	0.83744 0.92634 0.75312 -0.00900
C 	C 	0.82903 0.89053 0.73414 0.11600
C 	C 	0.86558 0.90088 0.68024 0.20800
C 	C 	0.02240 0.20570 0.91760 0.45300
C 	C 	0.98790 0.22480 0.88940 -0.13100
C 	C 	0.93536 0.23166 0.91788 0.18600
C 	C 	0.90400 0.24790 0.89320 0.12500
C 	C 	0.92336 0.25946 0.83688 -0.01900
C 	C 	0.97665 0.25485 0.80750 0.14300
C 	C 	0.00760 0.23700 0.83440 0.18100
C 	C 	0.88763 0.27513 0.81114 0.13300
C 	C 	0.65600 0.15040 0.93780 0.40400
C 	C 	0.71634 0.18284 0.90332 -0.12600
C 	C 	0.73157 0.24017 0.87706 0.18800
C 	C 	0.78545 0.26955 0.84810 0.12700
C 	C 	0.82939 0.24279 0.84382 -0.01600
C 	C 	0.81315 0.18475 0.87110 0.13100
C 	C 	0.75754 0.15604 0.89932 0.18600
C 	C 	0.96480 0.45820 0.58340 0.56800
C 	C 	0.94642 0.41042 0.64256 -0.21100
C 	C 	0.92016 0.35786 0.65988 0.21000
C 	C 	0.90310 0.31310 0.71320 0.11800
C 	C 	0.90944 0.32054 0.75312 -0.00900
C 	C 	0.93683 0.37533 0.73414 0.11600
C 	C 	0.95418 0.41888 0.68024 0.20800
C 	C 	0.79430 0.44000 0.58240 0.45700
C 	C 	0.77520 0.37730 0.61060 -0.13800
C 	C 	0.76834 0.35324 0.58212 0.18800
C 	C 	0.75210 0.29720 0.60680 0.12300
C 	C 	0.74054 0.26024 0.66312 -0.01700
C 	C 	0.74515 0.28415 0.69250 0.13800
C 	C 	0.76300 0.34200 0.66560 0.18800
C 	C 	0.72487 0.19877 0.68886 0.13200
C 	C 	0.84960 0.09380 0.56220 0.40400
C 	C 	0.81716 0.11966 0.59668 -0.12600
C 	C 	0.75983 0.10863 0.62294 0.18800
C 	C 	0.73045 0.13355 0.65190 0.12700
C 	C 	0.75721 0.17321 0.65618 -0.01500
C 	C 	0.81525 0.18425 0.62890 0.13100
C 	C 	0.84396 0.15686 0.60068 0.18600
C 	C 	0.54180 0.04820 0.91660 0.56700
C 	C 	0.58958 0.08898 0.85744 -0.21000
C 	C 	0.64214 0.08004 0.84012 0.21000
C 	C 	0.68690 0.11630 0.78680 0.11800
C 	C 	0.67946 0.16256 0.74688 -0.00900
C 	C 	0.62467 0.17097 0.76586 0.11600
C 	C 	0.58112 0.13442 0.81976 0.20800
C 	C 	0.12330 0.97760 0.58240 0.45800
C 	C 	0.11420 0.01210 0.61060 -0.13900
C 	C 	0.14954 0.06464 0.58212 0.18800
C 	C 	0.14110 0.09600 0.60680 0.12300
C 	C 	0.09634 0.07664 0.66312 -0.01600
C 	C 	0.06235 0.02335 0.69250 0.13700
C 	C 	0.07140 0.99240 0.66560 0.18900
C 	C 	0.08627 0.11237 0.68886 0.13100
C 	C 	0.08820 0.34400 0.56220 0.40400
C 	C 	0.08616 0.28366 0.59668 -0.12600
C 	C 	0.11723 0.26843 0.62294 0.18800
C 	C 	0.11765 0.21455 0.65190 0.12700
C 	C 	0.08661 0.17061 0.65618 -0.01500
C 	C 	0.05585 0.18685 0.62890 0.13100
C 	C 	0.05536 0.24246 0.60068 0.18600
C 	C 	0.04160 0.03520 0.91660 0.56700
C 	C 	0.05298 0.05358 0.85744 -0.21000
C 	C 	0.01774 0.07984 0.84012 0.20800
C 	C 	0.02630 0.09690 0.78680 0.11700
C 	C 	0.07366 0.09056 0.74688 -0.00900
C 	C 	0.10947 0.06317 0.76586 0.11600
C 	C 	0.09912 0.04582 0.81976 0.20800
C 	C 	0.44000 0.12330 0.08240 0.45700
C 	C 	0.37730 0.11420 0.11060 -0.13800
C 	C 	0.35324 0.14954 0.08212 0.18800
C 	C 	0.29720 0.14110 0.10680 0.12300
C 	C 	0.26024 0.09634 0.16312 -0.01700
C 	C 	0.28415 0.06235 0.19250 0.13800
C 	C 	0.34200 0.07140 0.16560 0.18800
C 	C 	0.19877 0.08627 0.18886 0.13200
C 	C 	0.09380 0.08820 0.06220 0.40400
C 	C 	0.11966 0.08616 0.09668 -0.12500
C 	C 	0.10863 0.11723 0.12294 0.18800
C 	C 	0.13355 0.11765 0.15190 0.12700
C 	C 	0.17321 0.08661 0.15618 -0.01500
C 	C 	0.18425 0.05585 0.12890 0.13100
C 	C 	0.15686 0.05536 0.10068 0.18600
C 	C 	0.04820 0.04160 0.41660 0.56700
C 	C 	0.08898 0.05298 0.35744 -0.21100
C 	C 	0.08004 0.01774 0.34012 0.20900
C 	C 	0.11630 0.02630 0.28680 0.11700
C 	C 	0.16256 0.07366 0.24688 -0.00900
C 	C 	0.17097 0.10947 0.26586 0.11600
C 	C 	0.13442 0.09912 0.31976 0.20800
C 	C 	0.97760 0.79430 0.08240 0.45300
C 	C 	0.01210 0.77520 0.11060 -0.13100
C 	C 	0.06464 0.76834 0.08212 0.18600
C 	C 	0.09600 0.75210 0.10680 0.12500
C 	C 	0.07664 0.74054 0.16312 -0.01900
C 	C 	0.02335 0.74515 0.19250 0.14300
C 	C 	0.99240 0.76300 0.16560 0.18100
C 	C 	0.11237 0.72487 0.18886 0.13300
C 	C 	0.34400 0.84960 0.06220 0.40400
C 	C 	0.28366 0.81716 0.09668 -0.12600
C 	C 	0.26843 0.75983 0.12294 0.18800
C 	C 	0.21455 0.73045 0.15190 0.12700
C 	C 	0.17061 0.75721 0.15618 -0.01600
C 	C 	0.18685 0.81525 0.12890 0.13100
C 	C 	0.24246 0.84396 0.10068 0.18600
C 	C 	0.03520 0.54180 0.41660 0.56800
C 	C 	0.05358 0.58958 0.35744 -0.21100
C 	C 	0.07984 0.64214 0.34012 0.21000
C 	C 	0.09690 0.68690 0.28680 0.11800
C 	C 	0.09056 0.67946 0.24688 -0.00900
C 	C 	0.06317 0.62467 0.26586 0.11600
C 	C 	0.04582 0.58112 0.31976 0.20800
Cl	Cl	0.21887 0.60287 0.48608 -0.20800
Cl	Cl	0.25877 0.72954 0.43014 -0.18800
Cl	Cl	0.26552 0.75655 0.24040 -0.20900
Cl	Cl	0.22861 0.62921 0.29784 -0.21600
Cl	Cl	0.27466 0.93882 0.38246 -0.20100
Cl	Cl	0.34116 0.87949 0.32038 -0.17900
Cl	Cl	0.14838 0.77054 0.36576 -0.16200
Cl	Cl	0.08389 0.82881 0.42994 -0.19800
Cl	Cl	0.34733 0.97797 0.11378 -0.23700
Cl	Cl	0.24746 0.89211 0.23068 -0.16000
Cl	Cl	0.38819 0.77486 0.28072 -0.18500
Cl	Cl	0.48494 0.85623 0.15792 -0.23800
Cl	Cl	0.79505 0.91105 0.48608 -0.20800
Cl	Cl	0.81109 0.84032 0.43014 -0.18800
Cl	Cl	0.99408 0.00305 0.24040 -0.21000
Cl	Cl	0.97355 0.07295 0.29784 -0.21600
Cl	Cl	0.84288 0.67872 0.38246 -0.20100
Cl	Cl	0.83846 0.80013 0.32038 -0.17900
Cl	Cl	0.98586 0.86370 0.36576 -0.16300
Cl	Cl	0.98617 0.74125 0.42994 -0.19800
Cl	Cl	0.03889 0.90825 0.11378 -0.23500
Cl	Cl	0.02186 0.87721 0.23068 -0.15800
Cl	Cl	0.83109 0.94442 0.28072 -0.18500
Cl	Cl	0.85714 0.98585 0.15792 -0.23800
Cl	Cl	0.60287 0.79505 0.98608 -0.20700
Cl	Cl	0.72954 0.81109 0.93014 -0.18700
Cl	Cl	0.75655 0.99408 0.74040 -0.21000
Cl	Cl	0.62921 0.97355 0.79784 -0.21600
Cl	Cl	0.93882 0.84288 0.88246 -0.20000
Cl	Cl	0.87949 0.83846 0.82038 -0.17900
Cl	Cl	0.77054 0.98586 0.86576 -0.16200
Cl	Cl	0.82881 0.98617 0.92994 -0.19800
Cl	Cl	0.97797 0.03889 0.61378 -0.23700
Cl	Cl	0.89211 0.02186 0.73068 -0.15900
Cl	Cl	0.77486 0.83109 0.78072 -0.18500
Cl	Cl	0.85623 0.85714 0.65792 -0.23800
Cl	Cl	0.91105 0.21887 0.98608 -0.20500
Cl	Cl	0.84032 0.25877 0.93014 -0.18700
Cl	Cl	0.00305 0.26552 0.74040 -0.21200
Cl	Cl	0.07295 0.22861 0.79784 -0.21500
Cl	Cl	0.67872 0.27466 0.88246 -0.20100
Cl	Cl	0.80013 0.34116 0.82038 -0.17900
Cl	Cl	0.86370 0.14838 0.86576 -0.16100
Cl	Cl	0.74125 0.08389 0.92994 -0.19700
Cl	Cl	0.90825 0.34733 0.61378 -0.23800
Cl	Cl	0.87721 0.24746 0.73068 -0.16000
Cl	Cl	0.94442 0.38819 0.78072 -0.18500
Cl	Cl	0.98585 0.48494 0.65792 -0.23800
Cl	Cl	0.78113 0.39713 0.51392 -0.20800
Cl	Cl	0.74123 0.27046 0.56986 -0.18800
Cl	Cl	0.73448 0.24345 0.75960 -0.20900
Cl	Cl	0.77139 0.37079 0.70216 -0.21600
Cl	Cl	0.72534 0.06118 0.61754 -0.20100
Cl	Cl	0.65884 0.12051 0.67962 -0.17900
Cl	Cl	0.85162 0.22946 0.63424 -0.16200
Cl	Cl	0.91611 0.17119 0.57006 -0.19800
Cl	Cl	0.65267 0.02203 0.88622 -0.23700
Cl	Cl	0.75254 0.10789 0.76932 -0.16000
Cl	Cl	0.61181 0.22514 0.71928 -0.18500
Cl	Cl	0.51506 0.14377 0.84208 -0.23800
Cl	Cl	0.20495 0.08895 0.51392 -0.20800
Cl	Cl	0.18891 0.15968 0.56986 -0.18800
Cl	Cl	0.00592 0.99695 0.75960 -0.21000
Cl	Cl	0.02645 0.92705 0.70216 -0.21600
Cl	Cl	0.15712 0.32128 0.61754 -0.20100
Cl	Cl	0.16154 0.19987 0.67962 -0.17900
Cl	Cl	0.01414 0.13630 0.63424 -0.16300
Cl	Cl	0.01383 0.25875 0.57006 -0.19800
Cl	Cl	0.96111 0.09175 0.88622 -0.23500
Cl	Cl	0.97814 0.12279 0.76932 -0.15800
Cl	Cl	0.16891 0.05558 0.71928 -0.18500
Cl	Cl	0.14286 0.01415 0.84208 -0.23800
Cl	Cl	0.39713 0.20495 0.01392 -0.20700
Cl	Cl	0.27046 0.18891 0.06986 -0.18700
Cl	Cl	0.24345 0.00592 0.25960 -0.21000
Cl	Cl	0.37079 0.02645 0.20216 -0.21600
Cl	Cl	0.06118 0.15712 0.11754 -0.20000
Cl	Cl	0.12051 0.16154 0.17962 -0.17900
Cl	Cl	0.22946 0.01414 0.13424 -0.16200
Cl	Cl	0.17119 0.01383 0.07006 -0.19800
Cl	Cl	0.02203 0.96111 0.38622 -0.23700
Cl	Cl	0.10789 0.97814 0.26932 -0.15900
Cl	Cl	0.22514 0.16891 0.21928 -0.18500
Cl	Cl	0.14377 0.14286 0.34208 -0.23800
Cl	Cl	0.08895 0.78113 0.01392 -0.20500
Cl	Cl	0.15968 0.74123 0.06986 -0.18700
Cl	Cl	0.99695 0.73448 0.25960 -0.21200
Cl	Cl	0.92705 0.77139 0.20216 -0.21500
Cl	Cl	0.32128 0.72534 0.11754 -0.20100
Cl	Cl	0.19987 0.65884 0.17962 -0.17900
Cl	Cl	0.13630 0.85162 0.13424 -0.16100
Cl	Cl	0.25875 0.91611 0.07006 -0.19700
Cl	Cl	0.09175 0.65267 0.38622 -0.23800
Cl	Cl	0.12279 0.75254 0.26932 -0.16000
Cl	Cl	0.05558 0.61181 0.21928 -0.18500
Cl	Cl	0.01415 0.51506 0.34208 -0.23800
O 	O 	0.15425 0.53935 0.44550 -0.44500
O 	O 	0.24256 0.53566 0.41128 -0.23000
O 	O 	0.12963 0.94343 0.41794 -0.35500
O 	O 	0.14359 0.88769 0.48582 -0.40600
O 	O 	0.48194 0.99434 0.07672 -0.45700
O 	O 	0.47040 0.93904 0.04632 -0.49600
O 	O 	0.90025 0.01515 0.44550 -0.44500
O 	O 	0.84616 0.05306 0.41128 -0.23000
O 	O 	0.95243 0.63863 0.41794 -0.35600
O 	O 	0.87059 0.62649 0.48582 -0.40600
O 	O 	0.94134 0.92894 0.07672 -0.45800
O 	O 	0.98328 0.01464 0.04632 -0.49600
O 	O 	0.53935 0.90025 0.94550 -0.44500
O 	O 	0.53566 0.84616 0.91128 -0.23000
O 	O 	0.94343 0.95243 0.91794 -0.35500
O 	O 	0.88769 0.87059 0.98582 -0.40500
O 	O 	0.99434 0.94134 0.57672 -0.45800
O 	O 	0.93904 0.98328 0.54632 -0.49700
O 	O 	0.01515 0.15425 0.94550 -0.44500
O 	O 	0.05306 0.24256 0.91128 -0.23000
O 	O 	0.63863 0.12963 0.91794 -0.35500
O 	O 	0.62649 0.14359 0.98582 -0.40600
O 	O 	0.92894 0.48194 0.57672 -0.45800
O 	O 	0.01464 0.47040 0.54632 -0.49700
O 	O 	0.84575 0.46065 0.55450 -0.44500
O 	O 	0.75744 0.46434 0.58872 -0.23000
O 	O 	0.87037 0.05657 0.58206 -0.35500
O 	O 	0.85641 0.11231 0.51418 -0.40600
O 	O 	0.51806 0.00566 0.92328 -0.45700
O 	O 	0.52960 0.06096 0.95368 -0.49600
O 	O 	0.09975 0.98485 0.55450 -0.44500
O 	O 	0.15384 0.94694 0.58872 -0.23000
O 	O 	0.04757 0.36137 0.58206 -0.35600
O 	O 	0.12941 0.37351 0.51418 -0.40600
O 	O 	0.05866 0.07106 0.92328 -0.45800
O 	O 	0.01672 0.98536 0.95368 -0.49600
O 	O 	0.46065 0.09975 0.05450 -0.44500
O 	O 	0.46434 0.15384 0.08872 -0.23000
O 	O 	0.05657 0.04757 0.08206 -0.35500
O 	O 	0.11231 0.12941 0.01418 -0.40500
O 	O 	0.00566 0.05866 0.42328 -0.45800
O 	O 	0.06096 0.01672 0.45368 -0.49700
O 	O 	0.98485 0.84575 0.05450 -0.44500
O 	O 	0.94694 0.75744 0.08872 -0.23000
O 	O 	0.36137 0.87037 0.08206 -0.35500
O 	O 	0.37351 0.85641 0.01418 -0.40600
O 	O 	0.07106 0.51806 0.42328 -0.45800
O 	O 	0.98536 0.52960 0.45368 -0.49700
