data_crystal

_cell_length_a 28.48600
_cell_length_b 28.48600
_cell_length_c 46.67800
_cell_angle_alpha 90.00000
_cell_angle_beta  90.00000
_cell_angle_gamma 90.00000

_symmetry_space_group_name_	'P 1'
_symmetry_space_group_name_H-M	'P 1'

loop_
_symmetry_equiv_pos_as_xyz
  x,y,z

loop_
_atom_site_label
_atom_site_type_symbol
_atom_site_fract_x
_atom_site_fract_y
_atom_site_fract_z
_atom_site_charge
Tb	Tb	0.79547 0.16387 0.25416 1.87800
C 	C 	0.67810 0.09340 0.30200 -0.57500
C 	C 	0.64250 0.06840 0.28810 0.34900
C 	C 	0.60000 0.06100 0.30070 0.03400
C 	C 	0.59030 0.07580 0.32810 0.07100
C 	C 	0.62690 0.09690 0.34240 0.04500
C 	C 	0.67090 0.10510 0.32980 0.37700
C 	C 	0.54240 0.06970 0.34050 -0.01400
H 	H 	0.53920 0.03780 0.33300 0.11800
C 	C 	0.37320 0.13650 0.27890 0.43500
C 	C 	0.41770 0.11880 0.29570 -0.12300
C 	C 	0.41980 0.07490 0.30740 0.20100
C 	C 	0.46000 0.06000 0.32180 0.10600
C 	C 	0.50040 0.08710 0.32483 0.02000
C 	C 	0.49860 0.13180 0.31210 0.12300
C 	C 	0.45790 0.14720 0.29760 0.18900
C 	C 	0.50510 0.00410 0.45650 0.58300
C 	C 	0.51500 0.02140 0.42700 -0.24200
C 	C 	0.50060 0.06440 0.41800 0.23600
C 	C 	0.51110 0.08120 0.39080 0.09500
C 	C 	0.53530 0.05460 0.37100 0.03000
C 	C 	0.55110 0.01150 0.38000 0.09500
C 	C 	0.54000 0.99500 0.40840 0.22600
O 	O 	0.72810 0.12950 0.27420 -0.65600
O 	O 	0.74930 0.08110 0.29620 -0.35400
O 	O 	0.34760 0.16410 0.29144 -0.35600
O 	O 	0.36580 0.12150 0.25550 -0.44000
O 	O 	0.46620 0.98430 0.45928 -0.44800
O 	O 	0.53540 0.00900 0.47570 -0.53700
Cl	Cl	0.65424 0.04925 0.25341 -0.24300
Cl	Cl	0.55925 0.03083 0.28092 -0.18500
Cl	Cl	0.61937 0.11727 0.37772 -0.18400
Cl	Cl	0.71430 0.13292 0.34901 -0.24900
Cl	Cl	0.37107 0.03974 0.30546 -0.20900
Cl	Cl	0.45896 0.00313 0.33537 -0.18400
Cl	Cl	0.54419 0.16999 0.31439 -0.16200
Cl	Cl	0.45628 0.20219 0.28251 -0.19600
Cl	Cl	0.46993 0.09915 0.44179 -0.24000
Cl	Cl	0.49451 0.13807 0.38254 -0.15000
Cl	Cl	0.58138 0.97403 0.35717 -0.18800
Cl	Cl	0.55979 0.93952 0.41843 -0.23700
C 	C 	0.71430 0.10330 0.28900 0.95700
Tb	Tb	0.29547 0.66387 0.75416 1.87900
C 	C 	0.17810 0.59340 0.80200 -0.57400
C 	C 	0.14250 0.56840 0.78810 0.35000
C 	C 	0.10000 0.56100 0.80070 0.03500
C 	C 	0.09030 0.57580 0.82810 0.07100
C 	C 	0.12690 0.59690 0.84240 0.04500
C 	C 	0.17090 0.60510 0.82980 0.37700
C 	C 	0.04240 0.56970 0.84050 -0.01400
H 	H 	0.03920 0.53780 0.83300 0.11800
C 	C 	0.87320 0.63650 0.77890 0.43500
C 	C 	0.91770 0.61880 0.79570 -0.12300
C 	C 	0.91980 0.57490 0.80740 0.20100
C 	C 	0.96000 0.56000 0.82180 0.10600
C 	C 	0.00040 0.58710 0.82483 0.02000
C 	C 	0.99860 0.63180 0.81210 0.12300
C 	C 	0.95790 0.64720 0.79760 0.18900
C 	C 	0.00510 0.50410 0.95650 0.58300
C 	C 	0.01500 0.52140 0.92700 -0.24200
C 	C 	0.00060 0.56440 0.91800 0.23600
C 	C 	0.01110 0.58120 0.89080 0.09500
C 	C 	0.03530 0.55460 0.87100 0.03000
C 	C 	0.05110 0.51150 0.88000 0.09500
C 	C 	0.04000 0.49500 0.90840 0.22600
O 	O 	0.22810 0.62950 0.77420 -0.65600
O 	O 	0.24930 0.58110 0.79620 -0.35400
O 	O 	0.84760 0.66410 0.79144 -0.35600
O 	O 	0.86580 0.62150 0.75550 -0.44000
O 	O 	0.96620 0.48430 0.95928 -0.44800
O 	O 	0.03540 0.50900 0.97570 -0.53700
Cl	Cl	0.15424 0.54925 0.75341 -0.24300
Cl	Cl	0.05925 0.53083 0.78092 -0.18500
Cl	Cl	0.11937 0.61727 0.87772 -0.18400
Cl	Cl	0.21430 0.63292 0.84901 -0.24900
Cl	Cl	0.87107 0.53974 0.80546 -0.20900
Cl	Cl	0.95896 0.50313 0.83537 -0.18400
Cl	Cl	0.04419 0.66999 0.81439 -0.16100
Cl	Cl	0.95628 0.70219 0.78251 -0.19700
Cl	Cl	0.96993 0.59915 0.94179 -0.24000
Cl	Cl	0.99451 0.63807 0.88254 -0.15100
Cl	Cl	0.08138 0.47403 0.85717 -0.18800
Cl	Cl	0.05979 0.43952 0.91843 -0.23700
C 	C 	0.21430 0.60330 0.78900 0.95700
Tb	Tb	0.70453 0.83613 0.75416 1.87900
C 	C 	0.82190 0.90660 0.80200 -0.57400
C 	C 	0.85750 0.93160 0.78810 0.35000
C 	C 	0.90000 0.93900 0.80070 0.03500
C 	C 	0.90970 0.92420 0.82810 0.07100
C 	C 	0.87310 0.90310 0.84240 0.04500
C 	C 	0.82910 0.89490 0.82980 0.37700
C 	C 	0.95760 0.93030 0.84050 -0.01400
H 	H 	0.96080 0.96220 0.83300 0.11800
C 	C 	0.12680 0.86350 0.77890 0.43500
C 	C 	0.08230 0.88120 0.79570 -0.12300
C 	C 	0.08020 0.92510 0.80740 0.20100
C 	C 	0.04000 0.94000 0.82180 0.10600
C 	C 	0.99960 0.91290 0.82483 0.01900
C 	C 	0.00140 0.86820 0.81210 0.12400
C 	C 	0.04210 0.85280 0.79760 0.18800
C 	C 	0.99490 0.99590 0.95650 0.58300
C 	C 	0.98500 0.97860 0.92700 -0.24300
C 	C 	0.99940 0.93560 0.91800 0.23600
C 	C 	0.98890 0.91880 0.89080 0.09500
C 	C 	0.96470 0.94540 0.87100 0.03000
C 	C 	0.94890 0.98850 0.88000 0.09400
C 	C 	0.96000 0.00500 0.90840 0.22700
O 	O 	0.77190 0.87050 0.77420 -0.65600
O 	O 	0.75070 0.91890 0.79620 -0.35400
O 	O 	0.15240 0.83590 0.79144 -0.35600
O 	O 	0.13420 0.87850 0.75550 -0.44000
O 	O 	0.03380 0.01570 0.95928 -0.44800
O 	O 	0.96460 0.99100 0.97570 -0.53700
Cl	Cl	0.84576 0.95075 0.75341 -0.24300
Cl	Cl	0.94075 0.96917 0.78092 -0.18500
Cl	Cl	0.88063 0.88273 0.87772 -0.18400
Cl	Cl	0.78570 0.86708 0.84901 -0.24900
Cl	Cl	0.12893 0.96026 0.80546 -0.20900
Cl	Cl	0.04104 0.99687 0.83537 -0.18400
Cl	Cl	0.95581 0.83001 0.81439 -0.16200
Cl	Cl	0.04372 0.79781 0.78251 -0.19600
Cl	Cl	0.03007 0.90085 0.94179 -0.24000
Cl	Cl	0.00549 0.86193 0.88254 -0.15000
Cl	Cl	0.91862 0.02597 0.85717 -0.18700
Cl	Cl	0.94021 0.06048 0.91843 -0.23700
C 	C 	0.78570 0.89670 0.78900 0.95700
Tb	Tb	0.20453 0.33613 0.25416 1.87900
C 	C 	0.32190 0.40660 0.30200 -0.57400
C 	C 	0.35750 0.43160 0.28810 0.35000
C 	C 	0.40000 0.43900 0.30070 0.03500
C 	C 	0.40970 0.42420 0.32810 0.07100
C 	C 	0.37310 0.40310 0.34240 0.04500
C 	C 	0.32910 0.39490 0.32980 0.37700
C 	C 	0.45760 0.43030 0.34050 -0.01400
H 	H 	0.46080 0.46220 0.33300 0.11800
C 	C 	0.62680 0.36350 0.27890 0.43500
C 	C 	0.58230 0.38120 0.29570 -0.12300
C 	C 	0.58020 0.42510 0.30740 0.20100
C 	C 	0.54000 0.44000 0.32180 0.10600
C 	C 	0.49960 0.41290 0.32483 0.02000
C 	C 	0.50140 0.36820 0.31210 0.12300
C 	C 	0.54210 0.35280 0.29760 0.18900
C 	C 	0.49490 0.49590 0.45650 0.58300
C 	C 	0.48500 0.47860 0.42700 -0.24200
C 	C 	0.49940 0.43560 0.41800 0.23600
C 	C 	0.48890 0.41880 0.39080 0.09500
C 	C 	0.46470 0.44540 0.37100 0.03000
C 	C 	0.44890 0.48850 0.38000 0.09500
C 	C 	0.46000 0.50500 0.40840 0.22600
O 	O 	0.27190 0.37050 0.27420 -0.65600
O 	O 	0.25070 0.41890 0.29620 -0.35400
O 	O 	0.65240 0.33590 0.29144 -0.35600
O 	O 	0.63420 0.37850 0.25550 -0.44000
O 	O 	0.53380 0.51570 0.45928 -0.44800
O 	O 	0.46460 0.49100 0.47570 -0.53700
Cl	Cl	0.34576 0.45075 0.25341 -0.24300
Cl	Cl	0.44075 0.46917 0.28092 -0.18500
Cl	Cl	0.38063 0.38273 0.37772 -0.18400
Cl	Cl	0.28570 0.36708 0.34901 -0.24900
Cl	Cl	0.62893 0.46026 0.30546 -0.20900
Cl	Cl	0.54104 0.49687 0.33537 -0.18400
Cl	Cl	0.45581 0.33001 0.31439 -0.16100
Cl	Cl	0.54372 0.29781 0.28251 -0.19600
Cl	Cl	0.53007 0.40085 0.44179 -0.24000
Cl	Cl	0.50549 0.36193 0.38254 -0.15000
Cl	Cl	0.41862 0.52597 0.35717 -0.18800
Cl	Cl	0.44021 0.56048 0.41843 -0.23700
C 	C 	0.28570 0.39670 0.28900 0.95700
Tb	Tb	0.58613 0.04547 0.50416 1.87900
C 	C 	0.65660 0.92810 0.55200 -0.57400
C 	C 	0.68160 0.89250 0.53810 0.35000
C 	C 	0.68900 0.85000 0.55070 0.03500
C 	C 	0.67420 0.84030 0.57810 0.07100
C 	C 	0.65310 0.87690 0.59240 0.04500
C 	C 	0.64490 0.92090 0.57980 0.37700
C 	C 	0.68030 0.79240 0.59050 -0.01400
H 	H 	0.71220 0.78920 0.58300 0.11800
C 	C 	0.61350 0.62320 0.52890 0.43500
C 	C 	0.63120 0.66770 0.54570 -0.12300
C 	C 	0.67510 0.66980 0.55740 0.20100
C 	C 	0.69000 0.71000 0.57180 0.10600
C 	C 	0.66290 0.75040 0.57483 0.02000
C 	C 	0.61820 0.74860 0.56210 0.12300
C 	C 	0.60280 0.70790 0.54760 0.18900
C 	C 	0.74590 0.75510 0.70650 0.58300
C 	C 	0.72860 0.76500 0.67700 -0.24200
C 	C 	0.68560 0.75060 0.66800 0.23600
C 	C 	0.66880 0.76110 0.64080 0.09500
C 	C 	0.69540 0.78530 0.62100 0.03000
C 	C 	0.73850 0.80110 0.63000 0.09500
C 	C 	0.75500 0.79000 0.65840 0.22600
O 	O 	0.62050 0.97810 0.52420 -0.65600
O 	O 	0.66890 0.99930 0.54620 -0.35400
O 	O 	0.58590 0.59760 0.54144 -0.35600
O 	O 	0.62850 0.61580 0.50550 -0.44000
O 	O 	0.76570 0.71620 0.70928 -0.44800
O 	O 	0.74100 0.78540 0.72570 -0.53700
Cl	Cl	0.70075 0.90424 0.50341 -0.24300
Cl	Cl	0.71917 0.80925 0.53092 -0.18500
Cl	Cl	0.63273 0.86937 0.62772 -0.18400
Cl	Cl	0.61708 0.96430 0.59901 -0.24900
Cl	Cl	0.71026 0.62107 0.55546 -0.20900
Cl	Cl	0.74687 0.70896 0.58537 -0.18400
Cl	Cl	0.58001 0.79419 0.56439 -0.16100
Cl	Cl	0.54781 0.70628 0.53251 -0.19600
Cl	Cl	0.65085 0.71993 0.69179 -0.24000
Cl	Cl	0.61193 0.74451 0.63254 -0.15000
Cl	Cl	0.77597 0.83138 0.60717 -0.18800
Cl	Cl	0.81048 0.80979 0.66843 -0.23700
C 	C 	0.64670 0.96430 0.53900 0.95700
Tb	Tb	0.08613 0.54547 0.00416 1.87900
C 	C 	0.15660 0.42810 0.05200 -0.57400
C 	C 	0.18160 0.39250 0.03810 0.35000
C 	C 	0.18900 0.35000 0.05070 0.03500
C 	C 	0.17420 0.34030 0.07810 0.07100
C 	C 	0.15310 0.37690 0.09240 0.04500
C 	C 	0.14490 0.42090 0.07980 0.37700
C 	C 	0.18030 0.29240 0.09050 -0.01400
H 	H 	0.21220 0.28920 0.08300 0.11800
C 	C 	0.11350 0.12320 0.02890 0.43500
C 	C 	0.13120 0.16770 0.04570 -0.12300
C 	C 	0.17510 0.16980 0.05740 0.20100
C 	C 	0.19000 0.21000 0.07180 0.10600
C 	C 	0.16290 0.25040 0.07483 0.02000
C 	C 	0.11820 0.24860 0.06210 0.12300
C 	C 	0.10280 0.20790 0.04760 0.18900
C 	C 	0.24590 0.25510 0.20650 0.58300
C 	C 	0.22860 0.26500 0.17700 -0.24200
C 	C 	0.18560 0.25060 0.16800 0.23600
C 	C 	0.16880 0.26110 0.14080 0.09500
C 	C 	0.19540 0.28530 0.12100 0.03000
C 	C 	0.23850 0.30110 0.13000 0.09500
C 	C 	0.25500 0.29000 0.15840 0.22600
O 	O 	0.12050 0.47810 0.02420 -0.65600
O 	O 	0.16890 0.49930 0.04620 -0.35400
O 	O 	0.08590 0.09760 0.04144 -0.35600
O 	O 	0.12850 0.11580 0.00550 -0.44000
O 	O 	0.26570 0.21620 0.20928 -0.44800
O 	O 	0.24100 0.28540 0.22570 -0.53700
Cl	Cl	0.20075 0.40424 0.00341 -0.24300
Cl	Cl	0.21917 0.30925 0.03092 -0.18500
Cl	Cl	0.13273 0.36937 0.12772 -0.18400
Cl	Cl	0.11708 0.46430 0.09901 -0.24900
Cl	Cl	0.21026 0.12107 0.05546 -0.20900
Cl	Cl	0.24687 0.20896 0.08537 -0.18400
Cl	Cl	0.08001 0.29419 0.06439 -0.16200
Cl	Cl	0.04781 0.20628 0.03251 -0.19700
Cl	Cl	0.15085 0.21993 0.19179 -0.24000
Cl	Cl	0.11193 0.24451 0.13254 -0.15000
Cl	Cl	0.27597 0.33138 0.10717 -0.18800
Cl	Cl	0.31048 0.30979 0.16843 -0.23700
C 	C 	0.14670 0.46430 0.03900 0.95700
Tb	Tb	0.91387 0.95453 0.00416 1.87900
C 	C 	0.84340 0.07190 0.05200 -0.57400
C 	C 	0.81840 0.10750 0.03810 0.35000
C 	C 	0.81100 0.15000 0.05070 0.03500
C 	C 	0.82580 0.15970 0.07810 0.07100
C 	C 	0.84690 0.12310 0.09240 0.04500
C 	C 	0.85510 0.07910 0.07980 0.37700
C 	C 	0.81970 0.20760 0.09050 -0.01400
H 	H 	0.78780 0.21080 0.08300 0.11800
C 	C 	0.88650 0.37680 0.02890 0.43500
C 	C 	0.86880 0.33230 0.04570 -0.12300
C 	C 	0.82490 0.33020 0.05740 0.20100
C 	C 	0.81000 0.29000 0.07180 0.10600
C 	C 	0.83710 0.24960 0.07483 0.02000
C 	C 	0.88180 0.25140 0.06210 0.12300
C 	C 	0.89720 0.29210 0.04760 0.18900
C 	C 	0.75410 0.24490 0.20650 0.58300
C 	C 	0.77140 0.23500 0.17700 -0.24200
C 	C 	0.81440 0.24940 0.16800 0.23600
C 	C 	0.83120 0.23890 0.14080 0.09500
C 	C 	0.80460 0.21470 0.12100 0.03000
C 	C 	0.76150 0.19890 0.13000 0.09500
C 	C 	0.74500 0.21000 0.15840 0.22600
O 	O 	0.87950 0.02190 0.02420 -0.65500
O 	O 	0.83110 0.00070 0.04620 -0.35400
O 	O 	0.91410 0.40240 0.04144 -0.35600
O 	O 	0.87150 0.38420 0.00550 -0.44000
O 	O 	0.73430 0.28380 0.20928 -0.44800
O 	O 	0.75900 0.21460 0.22570 -0.53700
Cl	Cl	0.79925 0.09576 0.00341 -0.24300
Cl	Cl	0.78083 0.19075 0.03092 -0.18500
Cl	Cl	0.86727 0.13063 0.12772 -0.18400
Cl	Cl	0.88292 0.03570 0.09901 -0.24900
Cl	Cl	0.78974 0.37893 0.05546 -0.20900
Cl	Cl	0.75313 0.29104 0.08537 -0.18400
Cl	Cl	0.91999 0.20581 0.06439 -0.16100
Cl	Cl	0.95219 0.29372 0.03251 -0.19600
Cl	Cl	0.84915 0.28007 0.19179 -0.24000
Cl	Cl	0.88807 0.25549 0.13254 -0.15000
Cl	Cl	0.72403 0.16862 0.10717 -0.18800
Cl	Cl	0.68952 0.19021 0.16843 -0.23700
C 	C 	0.85330 0.03570 0.03900 0.95700
Tb	Tb	0.41387 0.45453 0.50416 1.87900
C 	C 	0.34340 0.57190 0.55200 -0.57400
C 	C 	0.31840 0.60750 0.53810 0.35000
C 	C 	0.31100 0.65000 0.55070 0.03500
C 	C 	0.32580 0.65970 0.57810 0.07100
C 	C 	0.34690 0.62310 0.59240 0.04500
C 	C 	0.35510 0.57910 0.57980 0.37700
C 	C 	0.31970 0.70760 0.59050 -0.01400
H 	H 	0.28780 0.71080 0.58300 0.11800
C 	C 	0.38650 0.87680 0.52890 0.43500
C 	C 	0.36880 0.83230 0.54570 -0.12300
C 	C 	0.32490 0.83020 0.55740 0.20100
C 	C 	0.31000 0.79000 0.57180 0.10600
C 	C 	0.33710 0.74960 0.57483 0.02000
C 	C 	0.38180 0.75140 0.56210 0.12300
C 	C 	0.39720 0.79210 0.54760 0.18900
C 	C 	0.25410 0.74490 0.70650 0.58300
C 	C 	0.27140 0.73500 0.67700 -0.24200
C 	C 	0.31440 0.74940 0.66800 0.23600
C 	C 	0.33120 0.73890 0.64080 0.09500
C 	C 	0.30460 0.71470 0.62100 0.03000
C 	C 	0.26150 0.69890 0.63000 0.09500
C 	C 	0.24500 0.71000 0.65840 0.22600
O 	O 	0.37950 0.52190 0.52420 -0.65600
O 	O 	0.33110 0.50070 0.54620 -0.35400
O 	O 	0.41410 0.90240 0.54144 -0.35600
O 	O 	0.37150 0.88420 0.50550 -0.44000
O 	O 	0.23430 0.78380 0.70928 -0.44800
O 	O 	0.25900 0.71460 0.72570 -0.53700
Cl	Cl	0.29925 0.59576 0.50341 -0.24300
Cl	Cl	0.28083 0.69075 0.53092 -0.18500
Cl	Cl	0.36727 0.63063 0.62772 -0.18400
Cl	Cl	0.38292 0.53570 0.59901 -0.24900
Cl	Cl	0.28974 0.87893 0.55546 -0.20900
Cl	Cl	0.25313 0.79104 0.58537 -0.18400
Cl	Cl	0.41999 0.70581 0.56439 -0.16100
Cl	Cl	0.45219 0.79372 0.53251 -0.19600
Cl	Cl	0.34915 0.78007 0.69179 -0.24000
Cl	Cl	0.38807 0.75549 0.63254 -0.15000
Cl	Cl	0.22403 0.66862 0.60717 -0.18800
Cl	Cl	0.18952 0.69021 0.66843 -0.23700
C 	C 	0.35330 0.53570 0.53900 0.95700
Tb	Tb	0.20453 0.83613 0.74584 1.87900
C 	C 	0.32190 0.90660 0.69800 -0.57400
C 	C 	0.35750 0.93160 0.71190 0.35000
C 	C 	0.40000 0.93900 0.69930 0.03500
C 	C 	0.40970 0.92420 0.67190 0.07100
C 	C 	0.37310 0.90310 0.65760 0.04500
C 	C 	0.32910 0.89490 0.67020 0.37700
C 	C 	0.45760 0.93030 0.65950 -0.01400
H 	H 	0.46080 0.96220 0.66700 0.11800
C 	C 	0.62680 0.86350 0.72110 0.43500
C 	C 	0.58230 0.88120 0.70430 -0.12300
C 	C 	0.58020 0.92510 0.69260 0.20100
C 	C 	0.54000 0.94000 0.67820 0.10600
C 	C 	0.49960 0.91290 0.67517 0.02000
C 	C 	0.50140 0.86820 0.68790 0.12300
C 	C 	0.54210 0.85280 0.70240 0.18900
C 	C 	0.49490 0.99590 0.54350 0.58300
C 	C 	0.48500 0.97860 0.57300 -0.24200
C 	C 	0.49940 0.93560 0.58200 0.23600
C 	C 	0.48890 0.91880 0.60920 0.09500
C 	C 	0.46470 0.94540 0.62900 0.03000
C 	C 	0.44890 0.98850 0.62000 0.09500
C 	C 	0.46000 0.00500 0.59160 0.22600
O 	O 	0.27190 0.87050 0.72580 -0.65600
O 	O 	0.25070 0.91890 0.70380 -0.35400
O 	O 	0.65240 0.83590 0.70856 -0.35600
O 	O 	0.63420 0.87850 0.74450 -0.44000
O 	O 	0.53380 0.01570 0.54072 -0.44800
O 	O 	0.46460 0.99100 0.52430 -0.53700
Cl	Cl	0.34576 0.95075 0.74659 -0.24300
Cl	Cl	0.44075 0.96917 0.71908 -0.18500
Cl	Cl	0.38063 0.88273 0.62228 -0.18400
Cl	Cl	0.28570 0.86708 0.65099 -0.24900
Cl	Cl	0.62893 0.96026 0.69454 -0.20900
Cl	Cl	0.54104 0.99687 0.66463 -0.18400
Cl	Cl	0.45581 0.83001 0.68561 -0.16200
Cl	Cl	0.54372 0.79781 0.71749 -0.19600
Cl	Cl	0.53007 0.90085 0.55821 -0.24000
Cl	Cl	0.50549 0.86193 0.61746 -0.15000
Cl	Cl	0.41862 0.02597 0.64283 -0.18800
Cl	Cl	0.44021 0.06048 0.58157 -0.23700
C 	C 	0.28570 0.89670 0.71100 0.95700
Tb	Tb	0.70453 0.33613 0.24584 1.87900
C 	C 	0.82190 0.40660 0.19800 -0.57400
C 	C 	0.85750 0.43160 0.21190 0.35000
C 	C 	0.90000 0.43900 0.19930 0.03500
C 	C 	0.90970 0.42420 0.17190 0.07100
C 	C 	0.87310 0.40310 0.15760 0.04500
C 	C 	0.82910 0.39490 0.17020 0.37700
C 	C 	0.95760 0.43030 0.15950 -0.01400
H 	H 	0.96080 0.46220 0.16700 0.11800
C 	C 	0.12680 0.36350 0.22110 0.43500
C 	C 	0.08230 0.38120 0.20430 -0.12300
C 	C 	0.08020 0.42510 0.19260 0.20100
C 	C 	0.04000 0.44000 0.17820 0.10600
C 	C 	0.99960 0.41290 0.17517 0.02000
C 	C 	0.00140 0.36820 0.18790 0.12300
C 	C 	0.04210 0.35280 0.20240 0.18900
C 	C 	0.99490 0.49590 0.04350 0.58300
C 	C 	0.98500 0.47860 0.07300 -0.24200
C 	C 	0.99940 0.43560 0.08200 0.23600
C 	C 	0.98890 0.41880 0.10920 0.09500
C 	C 	0.96470 0.44540 0.12900 0.03000
C 	C 	0.94890 0.48850 0.12000 0.09500
C 	C 	0.96000 0.50500 0.09160 0.22600
O 	O 	0.77190 0.37050 0.22580 -0.65600
O 	O 	0.75070 0.41890 0.20380 -0.35400
O 	O 	0.15240 0.33590 0.20856 -0.35600
O 	O 	0.13420 0.37850 0.24450 -0.44000
O 	O 	0.03380 0.51570 0.04072 -0.44800
O 	O 	0.96460 0.49100 0.02430 -0.53700
Cl	Cl	0.84576 0.45075 0.24659 -0.24300
Cl	Cl	0.94075 0.46917 0.21908 -0.18500
Cl	Cl	0.88063 0.38273 0.12228 -0.18400
Cl	Cl	0.78570 0.36708 0.15099 -0.24900
Cl	Cl	0.12893 0.46026 0.19454 -0.20900
Cl	Cl	0.04104 0.49687 0.16463 -0.18400
Cl	Cl	0.95581 0.33001 0.18561 -0.16100
Cl	Cl	0.04372 0.29781 0.21749 -0.19700
Cl	Cl	0.03007 0.40085 0.05821 -0.24000
Cl	Cl	0.00549 0.36193 0.11746 -0.15100
Cl	Cl	0.91862 0.52597 0.14283 -0.18800
Cl	Cl	0.94021 0.56048 0.08157 -0.23700
C 	C 	0.78570 0.39670 0.21100 0.95700
Tb	Tb	0.29547 0.16387 0.24584 1.87900
C 	C 	0.17810 0.09340 0.19800 -0.57400
C 	C 	0.14250 0.06840 0.21190 0.35000
C 	C 	0.10000 0.06100 0.19930 0.03500
C 	C 	0.09030 0.07580 0.17190 0.07100
C 	C 	0.12690 0.09690 0.15760 0.04500
C 	C 	0.17090 0.10510 0.17020 0.37700
C 	C 	0.04240 0.06970 0.15950 -0.01400
H 	H 	0.03920 0.03780 0.16700 0.11800
C 	C 	0.87320 0.13650 0.22110 0.43500
C 	C 	0.91770 0.11880 0.20430 -0.12300
C 	C 	0.91980 0.07490 0.19260 0.20100
C 	C 	0.96000 0.06000 0.17820 0.10600
C 	C 	0.00040 0.08710 0.17517 0.01900
C 	C 	0.99860 0.13180 0.18790 0.12400
C 	C 	0.95790 0.14720 0.20240 0.18800
C 	C 	0.00510 0.00410 0.04350 0.58300
C 	C 	0.01500 0.02140 0.07300 -0.24300
C 	C 	0.00060 0.06440 0.08200 0.23600
C 	C 	0.01110 0.08120 0.10920 0.09500
C 	C 	0.03530 0.05460 0.12900 0.03000
C 	C 	0.05110 0.01150 0.12000 0.09400
C 	C 	0.04000 0.99500 0.09160 0.22700
O 	O 	0.22810 0.12950 0.22580 -0.65600
O 	O 	0.24930 0.08110 0.20380 -0.35400
O 	O 	0.84760 0.16410 0.20856 -0.35600
O 	O 	0.86580 0.12150 0.24450 -0.44000
O 	O 	0.96620 0.98430 0.04072 -0.44800
O 	O 	0.03540 0.00900 0.02430 -0.53700
Cl	Cl	0.15424 0.04925 0.24659 -0.24300
Cl	Cl	0.05925 0.03083 0.21908 -0.18500
Cl	Cl	0.11937 0.11727 0.12228 -0.18400
Cl	Cl	0.21430 0.13292 0.15099 -0.24900
Cl	Cl	0.87107 0.03974 0.19454 -0.20900
Cl	Cl	0.95896 0.00313 0.16463 -0.18400
Cl	Cl	0.04419 0.16999 0.18561 -0.16200
Cl	Cl	0.95628 0.20219 0.21749 -0.19600
Cl	Cl	0.96993 0.09915 0.05821 -0.24000
Cl	Cl	0.99451 0.13807 0.11746 -0.15000
Cl	Cl	0.08138 0.97403 0.14283 -0.18700
Cl	Cl	0.05979 0.93952 0.08157 -0.23700
C 	C 	0.21430 0.10330 0.21100 0.95700
Tb	Tb	0.79547 0.66387 0.74584 1.87900
C 	C 	0.67810 0.59340 0.69800 -0.57400
C 	C 	0.64250 0.56840 0.71190 0.35000
C 	C 	0.60000 0.56100 0.69930 0.03500
C 	C 	0.59030 0.57580 0.67190 0.07100
C 	C 	0.62690 0.59690 0.65760 0.04500
C 	C 	0.67090 0.60510 0.67020 0.37700
C 	C 	0.54240 0.56970 0.65950 -0.01400
H 	H 	0.53920 0.53780 0.66700 0.11800
C 	C 	0.37320 0.63650 0.72110 0.43500
C 	C 	0.41770 0.61880 0.70430 -0.12300
C 	C 	0.41980 0.57490 0.69260 0.20100
C 	C 	0.46000 0.56000 0.67820 0.10600
C 	C 	0.50040 0.58710 0.67517 0.02000
C 	C 	0.49860 0.63180 0.68790 0.12300
C 	C 	0.45790 0.64720 0.70240 0.18900
C 	C 	0.50510 0.50410 0.54350 0.58300
C 	C 	0.51500 0.52140 0.57300 -0.24200
C 	C 	0.50060 0.56440 0.58200 0.23600
C 	C 	0.51110 0.58120 0.60920 0.09500
C 	C 	0.53530 0.55460 0.62900 0.03000
C 	C 	0.55110 0.51150 0.62000 0.09500
C 	C 	0.54000 0.49500 0.59160 0.22600
O 	O 	0.72810 0.62950 0.72580 -0.65600
O 	O 	0.74930 0.58110 0.70380 -0.35400
O 	O 	0.34760 0.66410 0.70856 -0.35600
O 	O 	0.36580 0.62150 0.74450 -0.44000
O 	O 	0.46620 0.48430 0.54072 -0.44800
O 	O 	0.53540 0.50900 0.52430 -0.53700
Cl	Cl	0.65424 0.54925 0.74659 -0.24300
Cl	Cl	0.55925 0.53083 0.71908 -0.18500
Cl	Cl	0.61937 0.61727 0.62228 -0.18400
Cl	Cl	0.71430 0.63292 0.65099 -0.24900
Cl	Cl	0.37107 0.53974 0.69454 -0.20900
Cl	Cl	0.45896 0.50313 0.66463 -0.18400
Cl	Cl	0.54419 0.66999 0.68561 -0.16100
Cl	Cl	0.45628 0.70219 0.71749 -0.19600
Cl	Cl	0.46993 0.59915 0.55821 -0.24000
Cl	Cl	0.49451 0.63807 0.61746 -0.15000
Cl	Cl	0.58138 0.47403 0.64283 -0.18800
Cl	Cl	0.55979 0.43952 0.58157 -0.23700
C 	C 	0.71430 0.60330 0.71100 0.95700
Tb	Tb	0.41387 0.95453 0.49584 1.87900
C 	C 	0.34340 0.07190 0.44800 -0.57400
C 	C 	0.31840 0.10750 0.46190 0.35000
C 	C 	0.31100 0.15000 0.44930 0.03500
C 	C 	0.32580 0.15970 0.42190 0.07100
C 	C 	0.34690 0.12310 0.40760 0.04500
C 	C 	0.35510 0.07910 0.42020 0.37700
C 	C 	0.31970 0.20760 0.40950 -0.01400
H 	H 	0.28780 0.21080 0.41700 0.11800
C 	C 	0.38650 0.37680 0.47110 0.43500
C 	C 	0.36880 0.33230 0.45430 -0.12300
C 	C 	0.32490 0.33020 0.44260 0.20100
C 	C 	0.31000 0.29000 0.42820 0.10600
C 	C 	0.33710 0.24960 0.42517 0.02000
C 	C 	0.38180 0.25140 0.43790 0.12300
C 	C 	0.39720 0.29210 0.45240 0.18900
C 	C 	0.25410 0.24490 0.29350 0.58300
C 	C 	0.27140 0.23500 0.32300 -0.24200
C 	C 	0.31440 0.24940 0.33200 0.23600
C 	C 	0.33120 0.23890 0.35920 0.09500
C 	C 	0.30460 0.21470 0.37900 0.03000
C 	C 	0.26150 0.19890 0.37000 0.09500
C 	C 	0.24500 0.21000 0.34160 0.22600
O 	O 	0.37950 0.02190 0.47580 -0.65600
O 	O 	0.33110 0.00070 0.45380 -0.35400
O 	O 	0.41410 0.40240 0.45856 -0.35600
O 	O 	0.37150 0.38420 0.49450 -0.44000
O 	O 	0.23430 0.28380 0.29072 -0.44800
O 	O 	0.25900 0.21460 0.27430 -0.53700
Cl	Cl	0.29925 0.09576 0.49659 -0.24300
Cl	Cl	0.28083 0.19075 0.46908 -0.18500
Cl	Cl	0.36727 0.13063 0.37228 -0.18400
Cl	Cl	0.38292 0.03570 0.40099 -0.24900
Cl	Cl	0.28974 0.37893 0.44454 -0.20900
Cl	Cl	0.25313 0.29104 0.41463 -0.18400
Cl	Cl	0.41999 0.20581 0.43561 -0.16100
Cl	Cl	0.45219 0.29372 0.46749 -0.19600
Cl	Cl	0.34915 0.28007 0.30821 -0.24000
Cl	Cl	0.38807 0.25549 0.36746 -0.15000
Cl	Cl	0.22403 0.16862 0.39283 -0.18800
Cl	Cl	0.18952 0.19021 0.33157 -0.23700
C 	C 	0.35330 0.03570 0.46100 0.95700
Tb	Tb	0.91387 0.45453 0.99584 1.87900
C 	C 	0.84340 0.57190 0.94800 -0.57400
C 	C 	0.81840 0.60750 0.96190 0.35000
C 	C 	0.81100 0.65000 0.94930 0.03500
C 	C 	0.82580 0.65970 0.92190 0.07100
C 	C 	0.84690 0.62310 0.90760 0.04500
C 	C 	0.85510 0.57910 0.92020 0.37700
C 	C 	0.81970 0.70760 0.90950 -0.01400
H 	H 	0.78780 0.71080 0.91700 0.11800
C 	C 	0.88650 0.87680 0.97110 0.43500
C 	C 	0.86880 0.83230 0.95430 -0.12300
C 	C 	0.82490 0.83020 0.94260 0.20100
C 	C 	0.81000 0.79000 0.92820 0.10600
C 	C 	0.83710 0.74960 0.92517 0.02000
C 	C 	0.88180 0.75140 0.93790 0.12300
C 	C 	0.89720 0.79210 0.95240 0.18900
C 	C 	0.75410 0.74490 0.79350 0.58300
C 	C 	0.77140 0.73500 0.82300 -0.24200
C 	C 	0.81440 0.74940 0.83200 0.23600
C 	C 	0.83120 0.73890 0.85920 0.09500
C 	C 	0.80460 0.71470 0.87900 0.03000
C 	C 	0.76150 0.69890 0.87000 0.09500
C 	C 	0.74500 0.71000 0.84160 0.22600
O 	O 	0.87950 0.52190 0.97580 -0.65600
O 	O 	0.83110 0.50070 0.95380 -0.35400
O 	O 	0.91410 0.90240 0.95856 -0.35600
O 	O 	0.87150 0.88420 0.99450 -0.44000
O 	O 	0.73430 0.78380 0.79072 -0.44800
O 	O 	0.75900 0.71460 0.77430 -0.53700
Cl	Cl	0.79925 0.59576 0.99659 -0.24300
Cl	Cl	0.78083 0.69075 0.96908 -0.18500
Cl	Cl	0.86727 0.63063 0.87228 -0.18400
Cl	Cl	0.88292 0.53570 0.90099 -0.24900
Cl	Cl	0.78974 0.87893 0.94454 -0.20900
Cl	Cl	0.75313 0.79104 0.91463 -0.18400
Cl	Cl	0.91999 0.70581 0.93561 -0.16200
Cl	Cl	0.95219 0.79372 0.96749 -0.19700
Cl	Cl	0.84915 0.78007 0.80821 -0.24000
Cl	Cl	0.88807 0.75549 0.86746 -0.15000
Cl	Cl	0.72403 0.66862 0.89283 -0.18800
Cl	Cl	0.68952 0.69021 0.83157 -0.23700
C 	C 	0.85330 0.53570 0.96100 0.95700
Tb	Tb	0.08613 0.04547 0.99584 1.87900
C 	C 	0.15660 0.92810 0.94800 -0.57400
C 	C 	0.18160 0.89250 0.96190 0.35000
C 	C 	0.18900 0.85000 0.94930 0.03500
C 	C 	0.17420 0.84030 0.92190 0.07100
C 	C 	0.15310 0.87690 0.90760 0.04500
C 	C 	0.14490 0.92090 0.92020 0.37700
C 	C 	0.18030 0.79240 0.90950 -0.01400
H 	H 	0.21220 0.78920 0.91700 0.11800
C 	C 	0.11350 0.62320 0.97110 0.43500
C 	C 	0.13120 0.66770 0.95430 -0.12300
C 	C 	0.17510 0.66980 0.94260 0.20100
C 	C 	0.19000 0.71000 0.92820 0.10600
C 	C 	0.16290 0.75040 0.92517 0.02000
C 	C 	0.11820 0.74860 0.93790 0.12300
C 	C 	0.10280 0.70790 0.95240 0.18900
C 	C 	0.24590 0.75510 0.79350 0.58300
C 	C 	0.22860 0.76500 0.82300 -0.24200
C 	C 	0.18560 0.75060 0.83200 0.23600
C 	C 	0.16880 0.76110 0.85920 0.09500
C 	C 	0.19540 0.78530 0.87900 0.03000
C 	C 	0.23850 0.80110 0.87000 0.09500
C 	C 	0.25500 0.79000 0.84160 0.22600
O 	O 	0.12050 0.97810 0.97580 -0.65500
O 	O 	0.16890 0.99930 0.95380 -0.35400
O 	O 	0.08590 0.59760 0.95856 -0.35600
O 	O 	0.12850 0.61580 0.99450 -0.44000
O 	O 	0.26570 0.71620 0.79072 -0.44800
O 	O 	0.24100 0.78540 0.77430 -0.53700
Cl	Cl	0.20075 0.90424 0.99659 -0.24300
Cl	Cl	0.21917 0.80925 0.96908 -0.18500
Cl	Cl	0.13273 0.86937 0.87228 -0.18400
Cl	Cl	0.11708 0.96430 0.90099 -0.24900
Cl	Cl	0.21026 0.62107 0.94454 -0.20900
Cl	Cl	0.24687 0.70896 0.91463 -0.18400
Cl	Cl	0.08001 0.79419 0.93561 -0.16100
Cl	Cl	0.04781 0.70628 0.96749 -0.19600
Cl	Cl	0.15085 0.71993 0.80821 -0.24000
Cl	Cl	0.11193 0.74451 0.86746 -0.15000
Cl	Cl	0.27597 0.83138 0.89283 -0.18800
Cl	Cl	0.31048 0.80979 0.83157 -0.23700
C 	C 	0.14670 0.96430 0.96100 0.95700
Tb	Tb	0.58613 0.54547 0.49584 1.87900
C 	C 	0.65660 0.42810 0.44800 -0.57400
C 	C 	0.68160 0.39250 0.46190 0.35000
C 	C 	0.68900 0.35000 0.44930 0.03500
C 	C 	0.67420 0.34030 0.42190 0.07100
C 	C 	0.65310 0.37690 0.40760 0.04500
C 	C 	0.64490 0.42090 0.42020 0.37700
C 	C 	0.68030 0.29240 0.40950 -0.01400
H 	H 	0.71220 0.28920 0.41700 0.11800
C 	C 	0.61350 0.12320 0.47110 0.43500
C 	C 	0.63120 0.16770 0.45430 -0.12300
C 	C 	0.67510 0.16980 0.44260 0.20100
C 	C 	0.69000 0.21000 0.42820 0.10600
C 	C 	0.66290 0.25040 0.42517 0.02000
C 	C 	0.61820 0.24860 0.43790 0.12300
C 	C 	0.60280 0.20790 0.45240 0.18900
C 	C 	0.74590 0.25510 0.29350 0.58300
C 	C 	0.72860 0.26500 0.32300 -0.24200
C 	C 	0.68560 0.25060 0.33200 0.23600
C 	C 	0.66880 0.26110 0.35920 0.09500
C 	C 	0.69540 0.28530 0.37900 0.03000
C 	C 	0.73850 0.30110 0.37000 0.09500
C 	C 	0.75500 0.29000 0.34160 0.22600
O 	O 	0.62050 0.47810 0.47580 -0.65600
O 	O 	0.66890 0.49930 0.45380 -0.35400
O 	O 	0.58590 0.09760 0.45856 -0.35600
O 	O 	0.62850 0.11580 0.49450 -0.44000
O 	O 	0.76570 0.21620 0.29072 -0.44800
O 	O 	0.74100 0.28540 0.27430 -0.53700
Cl	Cl	0.70075 0.40424 0.49659 -0.24300
Cl	Cl	0.71917 0.30925 0.46908 -0.18500
Cl	Cl	0.63273 0.36937 0.37228 -0.18400
Cl	Cl	0.61708 0.46430 0.40099 -0.24900
Cl	Cl	0.71026 0.12107 0.44454 -0.20900
Cl	Cl	0.74687 0.20896 0.41463 -0.18400
Cl	Cl	0.58001 0.29419 0.43561 -0.16100
Cl	Cl	0.54781 0.20628 0.46749 -0.19600
Cl	Cl	0.65085 0.21993 0.30821 -0.24000
Cl	Cl	0.61193 0.24451 0.36746 -0.15000
Cl	Cl	0.77597 0.33138 0.39283 -0.18800
Cl	Cl	0.81048 0.30979 0.33157 -0.23700
C 	C 	0.64670 0.46430 0.46100 0.95700
