data_crystal

_cell_length_a 32.80290
_cell_length_b 35.01280
_cell_length_c 11.47910
_cell_angle_alpha 90.00000
_cell_angle_beta  110.19800
_cell_angle_gamma 90.00000

_symmetry_space_group_name_	'P 1'
_symmetry_space_group_name_H-M	'P 1'

loop_
_symmetry_equiv_pos_as_xyz
  x,y,z

loop_
_atom_site_label
_atom_site_type_symbol
_atom_site_fract_x
_atom_site_fract_y
_atom_site_fract_z
_atom_site_charge
Zn	Zn	0.96331 0.73757 0.70667 1.20000
O 	O 	0.77501 0.54222 0.86630 -0.51500
O 	O 	0.73800 0.54155 0.66570 -0.50300
O 	O 	0.76408 0.93174 0.81320 -0.45500
O 	O 	0.76743 0.95823 0.64240 -0.48100
O 	O 	0.18803 0.54084 0.84770 -0.51200
O 	O 	0.17544 0.54210 0.64650 -0.43000
O 	O 	0.14574 0.95784 0.66770 -0.40100
O 	O 	0.19120 0.93160 0.83650 -0.45300
O 	O 	0.98540 0.74424 0.89750 -0.51700
N 	N 	0.96085 0.67895 0.69230 -0.27400
N 	N 	0.96009 0.79577 0.67300 -0.26600
N 	N 	0.02179 0.73654 0.67610 -0.27400
N 	N 	0.89704 0.73776 0.67180 -0.27000
C 	C 	0.76882 0.55407 0.75630 0.37800
C 	C 	0.77626 0.93064 0.71810 0.38500
C 	C 	0.79836 0.58374 0.73580 -0.19400
C 	C 	0.80125 0.89750 0.69950 -0.15900
C 	C 	0.87147 0.70654 0.66740 0.10300
C 	C 	0.16662 0.55340 0.73910 0.36100
C 	C 	0.12785 0.89620 0.72400 -0.14500
C 	C 	0.99514 0.65531 0.70020 0.09900
C 	C 	0.15709 0.93018 0.74390 0.36600
C 	C 	0.13174 0.58193 0.72300 -0.17900
C 	C 	0.92767 0.65607 0.70150 0.09900
C 	C 	0.85493 0.63929 0.70250 0.14900
C 	C 	0.04602 0.76760 0.66990 0.10000
C 	C 	0.99570 0.81854 0.68840 0.10800
C 	C 	0.06748 0.63709 0.69790 0.14500
C 	C 	0.81278 0.86794 0.78640 0.09200
H 	H 	0.80260 0.86810 0.85440 -0.00000
C 	C 	0.92772 0.81915 0.67940 0.10900
C 	C 	0.06937 0.83565 0.69560 0.13300
C 	C 	0.85440 0.83755 0.67410 0.13200
C 	C 	0.88611 0.66853 0.68830 -0.15400
C 	C 	0.94266 0.61692 0.71860 -0.08600
H 	H 	0.92650 0.59550 0.72900 0.06000
C 	C 	0.04530 0.70485 0.66860 0.09800
C 	C 	0.03418 0.66718 0.68720 -0.15600
C 	C 	0.94352 0.85784 0.70240 -0.07900
H 	H 	0.92740 0.87960 0.71070 0.07100
C 	C 	0.87105 0.76920 0.65860 0.10100
C 	C 	0.08441 0.71695 0.64840 -0.09500
H 	H 	0.10580 0.70070 0.63640 0.05500
C 	C 	0.98530 0.85735 0.70980 -0.07000
H 	H 	0.00440 0.87860 0.72600 0.06500
C 	C 	0.88547 0.80752 0.66860 -0.14300
C 	C 	0.08507 0.75485 0.64980 -0.09400
H 	H 	0.10710 0.77070 0.63960 0.05600
C 	C 	0.79624 0.59446 0.61890 0.10900
H 	H 	0.77520 0.58310 0.54850 -0.00100
C 	C 	0.83906 0.83833 0.77400 -0.16800
H 	H 	0.84680 0.81840 0.83380 0.09100
C 	C 	0.98333 0.61626 0.71720 -0.07100
H 	H 	0.00110 0.59430 0.72570 0.05100
C 	C 	0.09147 0.89326 0.61950 0.08400
H 	H 	0.08620 0.91200 0.55600 0.02100
C 	C 	0.03571 0.80579 0.68400 -0.14900
C 	C 	0.82700 0.75704 0.63890 -0.07900
H 	H 	0.80240 0.77310 0.62460 0.05700
C 	C 	0.06252 0.86373 0.60510 -0.17000
H 	H 	0.03750 0.86250 0.53220 0.08900
C 	C 	0.81506 0.89648 0.59780 0.08700
H 	H 	0.80670 0.91610 0.53700 0.01100
C 	C 	0.82875 0.60181 0.83660 0.10200
H 	H 	0.83070 0.59510 0.91860 -0.01700
C 	C 	0.82753 0.71874 0.64480 -0.08200
H 	H 	0.80330 0.70260 0.63580 0.05900
C 	C 	0.10766 0.83732 0.79740 -0.17000
H 	H 	0.11410 0.81770 0.85820 0.09200
C 	C 	0.85579 0.62913 0.81860 -0.19500
H 	H 	0.87580 0.64150 0.88890 0.09500
C 	C 	0.82425 0.62153 0.60250 -0.19100
H 	H 	0.82250 0.62820 0.52070 0.09500
C 	C 	0.13641 0.86724 0.81110 0.08800
H 	H 	0.16240 0.86790 0.88130 0.00300
C 	C 	0.84126 0.86652 0.58570 -0.16800
H 	H 	0.85040 0.86580 0.51560 0.09000
C 	C 	0.11124 0.59903 0.61160 0.10300
H 	H 	0.11870 0.59210 0.54150 0.00500
C 	C 	0.07953 0.62650 0.59940 -0.19200
H 	H 	0.06580 0.63820 0.52100 0.09700
C 	C 	0.08730 0.61835 0.81030 -0.18500
H 	H 	0.07880 0.62430 0.87930 0.08900
C 	C 	0.11923 0.59125 0.82300 0.09200
H 	H 	0.13260 0.57900 0.90070 -0.01500
Na	Na	0.74923 0.92266 0.98946 0.58200
Zn	Zn	0.46331 0.23757 0.70667 1.19800
O 	O 	0.27501 0.04222 0.86630 -0.51700
O 	O 	0.23800 0.04155 0.66570 -0.50500
O 	O 	0.26408 0.43174 0.81320 -0.47200
O 	O 	0.26743 0.45823 0.64240 -0.50700
O 	O 	0.68803 0.04084 0.84770 -0.51400
O 	O 	0.67544 0.04210 0.64650 -0.43300
O 	O 	0.64574 0.45784 0.66770 -0.42600
O 	O 	0.69120 0.43160 0.83650 -0.47100
O 	O 	0.48540 0.24424 0.89750 -0.52400
N 	N 	0.46085 0.17895 0.69230 -0.27400
N 	N 	0.46009 0.29577 0.67300 -0.26500
N 	N 	0.52179 0.23654 0.67610 -0.27200
N 	N 	0.39704 0.23776 0.67180 -0.27000
C 	C 	0.26882 0.05407 0.75630 0.37700
C 	C 	0.27626 0.43064 0.71810 0.38800
C 	C 	0.29836 0.08374 0.73580 -0.19600
C 	C 	0.30125 0.39750 0.69950 -0.16500
C 	C 	0.37147 0.20654 0.66740 0.10300
C 	C 	0.66662 0.05340 0.73910 0.36000
C 	C 	0.62785 0.39620 0.72400 -0.15100
C 	C 	0.49514 0.15531 0.70020 0.09600
C 	C 	0.65709 0.43018 0.74390 0.37000
C 	C 	0.63174 0.08193 0.72300 -0.18300
C 	C 	0.42767 0.15607 0.70150 0.09700
C 	C 	0.35493 0.13929 0.70250 0.14800
C 	C 	0.54602 0.26760 0.66990 0.10000
C 	C 	0.49570 0.31854 0.68840 0.10500
C 	C 	0.56748 0.13709 0.69790 0.14500
C 	C 	0.31278 0.36794 0.78640 0.09300
H 	H 	0.30260 0.36810 0.85440 -0.00200
C 	C 	0.42772 0.31915 0.67940 0.10700
C 	C 	0.56937 0.33565 0.69560 0.13400
C 	C 	0.35440 0.33755 0.67410 0.13300
C 	C 	0.38611 0.16853 0.68830 -0.15400
C 	C 	0.44266 0.11692 0.71860 -0.08200
H 	H 	0.42650 0.09550 0.72900 0.05400
C 	C 	0.54530 0.20485 0.66860 0.09700
C 	C 	0.53418 0.16718 0.68720 -0.15100
C 	C 	0.44352 0.35784 0.70240 -0.07500
H 	H 	0.42740 0.37960 0.71070 0.06600
C 	C 	0.37105 0.26920 0.65860 0.10100
C 	C 	0.58441 0.21695 0.64840 -0.09400
H 	H 	0.60580 0.20070 0.63640 0.05500
C 	C 	0.48530 0.35735 0.70980 -0.08000
H 	H 	0.50440 0.37860 0.72600 0.06700
C 	C 	0.38547 0.30752 0.66860 -0.14300
C 	C 	0.58507 0.25485 0.64980 -0.09400
H 	H 	0.60710 0.27070 0.63960 0.05600
C 	C 	0.29624 0.09446 0.61890 0.10800
H 	H 	0.27520 0.08310 0.54850 -0.00200
C 	C 	0.33906 0.33833 0.77400 -0.17100
H 	H 	0.34680 0.31840 0.83380 0.09100
C 	C 	0.48333 0.11626 0.71720 -0.08100
H 	H 	0.50110 0.09430 0.72570 0.05400
C 	C 	0.59147 0.39326 0.61950 0.08600
H 	H 	0.58620 0.41200 0.55600 0.01700
C 	C 	0.53571 0.30579 0.68400 -0.14500
C 	C 	0.32700 0.25704 0.63890 -0.07900
H 	H 	0.30240 0.27310 0.62460 0.05700
C 	C 	0.56252 0.36373 0.60510 -0.17200
H 	H 	0.53750 0.36250 0.53220 0.09000
C 	C 	0.31506 0.39648 0.59780 0.08900
H 	H 	0.30670 0.41610 0.53700 0.00700
C 	C 	0.32875 0.10181 0.83660 0.10200
H 	H 	0.33070 0.09510 0.91860 -0.01700
C 	C 	0.32753 0.21874 0.64480 -0.08100
H 	H 	0.30330 0.20260 0.63580 0.05900
C 	C 	0.60766 0.33732 0.79740 -0.17200
H 	H 	0.61410 0.31770 0.85820 0.09200
C 	C 	0.35579 0.12913 0.81860 -0.19600
H 	H 	0.37580 0.14150 0.88890 0.09400
C 	C 	0.32425 0.12153 0.60250 -0.19200
H 	H 	0.32250 0.12820 0.52070 0.09600
C 	C 	0.63641 0.36724 0.81110 0.09000
H 	H 	0.66240 0.36790 0.88130 0.00100
C 	C 	0.34126 0.36652 0.58570 -0.17100
H 	H 	0.35040 0.36580 0.51560 0.09100
C 	C 	0.61124 0.09903 0.61160 0.10300
H 	H 	0.61870 0.09210 0.54150 0.00300
C 	C 	0.57953 0.12650 0.59940 -0.19300
H 	H 	0.56580 0.13820 0.52100 0.09700
C 	C 	0.58730 0.11835 0.81030 -0.18600
H 	H 	0.57880 0.12430 0.87930 0.08900
C 	C 	0.61923 0.09125 0.82300 0.09200
H 	H 	0.63260 0.07900 0.90070 -0.01800
Na	Na	0.24923 0.42266 0.98946 0.58100
Zn	Zn	0.03669 0.73757 0.29333 1.19700
O 	O 	0.22499 0.54222 0.13370 -0.53200
O 	O 	0.26200 0.54155 0.33430 -0.50300
O 	O 	0.23592 0.93174 0.18680 -0.46300
O 	O 	0.23257 0.95823 0.35760 -0.48300
O 	O 	0.81197 0.54084 0.15230 -0.52200
O 	O 	0.82456 0.54210 0.35350 -0.43100
O 	O 	0.85426 0.95784 0.33230 -0.39900
O 	O 	0.80880 0.93160 0.16350 -0.46500
O 	O 	0.01460 0.74424 0.10250 -0.54400
N 	N 	0.03915 0.67895 0.30770 -0.27500
N 	N 	0.03991 0.79577 0.32700 -0.26600
N 	N 	0.97821 0.73654 0.32390 -0.27100
N 	N 	0.10296 0.73776 0.32820 -0.27100
C 	C 	0.23118 0.55407 0.24370 0.38100
C 	C 	0.22374 0.93064 0.28190 0.38500
C 	C 	0.20164 0.58374 0.26420 -0.20100
C 	C 	0.19875 0.89750 0.30050 -0.16300
C 	C 	0.12853 0.70654 0.33260 0.10100
C 	C 	0.83338 0.55340 0.26090 0.36200
C 	C 	0.87215 0.89620 0.27600 -0.14900
C 	C 	0.00486 0.65531 0.29980 0.09200
C 	C 	0.84291 0.93018 0.25610 0.36800
C 	C 	0.86826 0.58193 0.27700 -0.18300
C 	C 	0.07233 0.65607 0.29850 0.09300
C 	C 	0.14507 0.63929 0.29750 0.14800
C 	C 	0.95398 0.76760 0.33010 0.09700
C 	C 	0.00430 0.81854 0.31160 0.10000
C 	C 	0.93252 0.63709 0.30210 0.14200
C 	C 	0.18722 0.86794 0.21360 0.09000
H 	H 	0.19740 0.86810 0.14560 -0.01000
C 	C 	0.07228 0.81915 0.32060 0.10400
C 	C 	0.93063 0.83565 0.30440 0.13000
C 	C 	0.14560 0.83755 0.32590 0.13100
C 	C 	0.11389 0.66853 0.31170 -0.15500
C 	C 	0.05734 0.61692 0.28140 -0.07900
H 	H 	0.07350 0.59550 0.27100 0.05200
C 	C 	0.95470 0.70485 0.33140 0.09400
C 	C 	0.96582 0.66718 0.31280 -0.14800
C 	C 	0.05648 0.85784 0.29760 -0.07300
H 	H 	0.07260 0.87960 0.28930 0.06300
C 	C 	0.12895 0.76920 0.34140 0.09900
C 	C 	0.91559 0.71695 0.35160 -0.09600
H 	H 	0.89420 0.70070 0.36360 0.05300
C 	C 	0.01470 0.85735 0.29020 -0.09000
H 	H 	0.99560 0.87860 0.27400 0.07300
C 	C 	0.11453 0.80752 0.33140 -0.14400
C 	C 	0.91493 0.75485 0.35020 -0.09500
H 	H 	0.89290 0.77070 0.36040 0.05400
C 	C 	0.20376 0.59446 0.38110 0.11100
H 	H 	0.22480 0.58310 0.45150 -0.00200
C 	C 	0.16094 0.83833 0.22600 -0.17200
H 	H 	0.15320 0.81840 0.16620 0.08300
C 	C 	0.01667 0.61626 0.28280 -0.09200
H 	H 	0.99890 0.59430 0.27430 0.06100
C 	C 	0.90853 0.89326 0.38050 0.08400
H 	H 	0.91380 0.91200 0.44400 0.02200
C 	C 	0.96429 0.80579 0.31600 -0.14200
C 	C 	0.17300 0.75704 0.36110 -0.08000
H 	H 	0.19760 0.77310 0.37540 0.05600
C 	C 	0.93748 0.86373 0.39490 -0.16900
H 	H 	0.96250 0.86250 0.46780 0.09100
C 	C 	0.18494 0.89648 0.40220 0.08700
H 	H 	0.19330 0.91610 0.46300 0.01000
C 	C 	0.17125 0.60181 0.16340 0.10400
H 	H 	0.16930 0.59510 0.08140 -0.03200
C 	C 	0.17247 0.71874 0.35520 -0.08300
H 	H 	0.19670 0.70260 0.36420 0.05700
C 	C 	0.89234 0.83732 0.20260 -0.17200
H 	H 	0.88590 0.81770 0.14180 0.08300
C 	C 	0.14421 0.62913 0.18140 -0.20000
H 	H 	0.12420 0.64150 0.11110 0.08400
C 	C 	0.17575 0.62153 0.39750 -0.19400
H 	H 	0.17750 0.62820 0.47930 0.09700
C 	C 	0.86359 0.86724 0.18890 0.08600
H 	H 	0.83760 0.86790 0.11870 -0.00800
C 	C 	0.15874 0.86652 0.41430 -0.16900
H 	H 	0.14960 0.86580 0.48440 0.09100
C 	C 	0.88876 0.59903 0.38840 0.10300
H 	H 	0.88130 0.59210 0.45850 0.00600
C 	C 	0.92047 0.62650 0.40060 -0.19100
H 	H 	0.93420 0.63820 0.47900 0.09700
C 	C 	0.91270 0.61835 0.18970 -0.18700
H 	H 	0.92120 0.62430 0.12070 0.08000
C 	C 	0.88077 0.59125 0.17700 0.09100
H 	H 	0.86740 0.57900 0.09930 -0.02800
Na	Na	0.25077 0.92266 0.01054 0.57600
Zn	Zn	0.53669 0.23757 0.29333 1.19700
O 	O 	0.72499 0.04222 0.13370 -0.53300
O 	O 	0.76200 0.04155 0.33430 -0.50400
O 	O 	0.73592 0.43174 0.18680 -0.48000
O 	O 	0.73257 0.45823 0.35760 -0.50700
O 	O 	0.31197 0.04084 0.15230 -0.52400
O 	O 	0.32456 0.04210 0.35350 -0.43300
O 	O 	0.35426 0.45784 0.33230 -0.42400
O 	O 	0.30880 0.43160 0.16350 -0.48200
O 	O 	0.51460 0.24424 0.10250 -0.54500
N 	N 	0.53915 0.17895 0.30770 -0.27500
N 	N 	0.53991 0.29577 0.32700 -0.26600
N 	N 	0.47821 0.23654 0.32390 -0.27300
N 	N 	0.60296 0.23776 0.32820 -0.27100
C 	C 	0.73118 0.05407 0.24370 0.38000
C 	C 	0.72374 0.43064 0.28190 0.38800
C 	C 	0.70164 0.08374 0.26420 -0.20400
C 	C 	0.69875 0.39750 0.30050 -0.16900
C 	C 	0.62853 0.20654 0.33260 0.10200
C 	C 	0.33338 0.05340 0.26090 0.36200
C 	C 	0.37215 0.39620 0.27600 -0.15600
C 	C 	0.50486 0.15531 0.29980 0.09400
C 	C 	0.34291 0.43018 0.25610 0.37200
C 	C 	0.36826 0.08193 0.27700 -0.18700
C 	C 	0.57233 0.15607 0.29850 0.09400
C 	C 	0.64507 0.13929 0.29750 0.14900
C 	C 	0.45398 0.26760 0.33010 0.09800
C 	C 	0.50430 0.31854 0.31160 0.10200
C 	C 	0.43252 0.13709 0.30210 0.14300
C 	C 	0.68722 0.36794 0.21360 0.09200
H 	H 	0.69740 0.36810 0.14560 -0.01200
C 	C 	0.57228 0.31915 0.32060 0.10500
C 	C 	0.43063 0.33565 0.30440 0.13300
C 	C 	0.64560 0.33755 0.32590 0.13200
C 	C 	0.61389 0.16853 0.31170 -0.15500
C 	C 	0.55734 0.11692 0.28140 -0.08400
H 	H 	0.57350 0.09550 0.27100 0.05100
C 	C 	0.45470 0.20485 0.33140 0.09500
C 	C 	0.46582 0.16718 0.31280 -0.15300
C 	C 	0.55648 0.35784 0.29760 -0.07800
H 	H 	0.57260 0.37960 0.28930 0.06200
C 	C 	0.62895 0.26920 0.34140 0.10000
C 	C 	0.41559 0.21695 0.35160 -0.09600
H 	H 	0.39420 0.20070 0.36360 0.05300
C 	C 	0.51470 0.35735 0.29020 -0.08200
H 	H 	0.49560 0.37860 0.27400 0.06400
C 	C 	0.61453 0.30752 0.33140 -0.14500
C 	C 	0.41493 0.25485 0.35020 -0.09600
H 	H 	0.39290 0.27070 0.36040 0.05400
C 	C 	0.70376 0.09446 0.38110 0.11200
H 	H 	0.72480 0.08310 0.45150 -0.00300
C 	C 	0.66094 0.33833 0.22600 -0.17400
H 	H 	0.65320 0.31840 0.16620 0.08300
C 	C 	0.51667 0.11626 0.28280 -0.08400
H 	H 	0.49890 0.09430 0.27430 0.05100
C 	C 	0.40853 0.39326 0.38050 0.08700
H 	H 	0.41380 0.41200 0.44400 0.01700
C 	C 	0.46429 0.30579 0.31600 -0.14700
C 	C 	0.67300 0.25704 0.36110 -0.08000
H 	H 	0.69760 0.27310 0.37540 0.05600
C 	C 	0.43748 0.36373 0.39490 -0.17400
H 	H 	0.46250 0.36250 0.46780 0.09100
C 	C 	0.68494 0.39648 0.40220 0.08900
H 	H 	0.69330 0.41610 0.46300 0.00700
C 	C 	0.67125 0.10181 0.16340 0.10400
H 	H 	0.66930 0.09510 0.08140 -0.03300
C 	C 	0.67247 0.21874 0.35520 -0.08300
H 	H 	0.69670 0.20260 0.36420 0.05700
C 	C 	0.39234 0.33732 0.20260 -0.17600
H 	H 	0.38590 0.31770 0.14180 0.08400
C 	C 	0.64421 0.12913 0.18140 -0.20200
H 	H 	0.62420 0.14150 0.11110 0.08400
C 	C 	0.67575 0.12153 0.39750 -0.19500
H 	H 	0.67750 0.12820 0.47930 0.09800
C 	C 	0.36359 0.36724 0.18890 0.08900
H 	H 	0.33760 0.36790 0.11870 -0.01000
C 	C 	0.65874 0.36652 0.41430 -0.17200
H 	H 	0.64960 0.36580 0.48440 0.09100
C 	C 	0.38876 0.09903 0.38840 0.10400
H 	H 	0.38130 0.09210 0.45850 0.00300
C 	C 	0.42047 0.12650 0.40060 -0.19500
H 	H 	0.43420 0.13820 0.47900 0.09700
C 	C 	0.41270 0.11835 0.18970 -0.19000
H 	H 	0.42120 0.12430 0.12070 0.07900
C 	C 	0.38077 0.09125 0.17700 0.09200
H 	H 	0.36740 0.07900 0.09930 -0.03100
Na	Na	0.75077 0.42266 0.01054 0.57500
Zn	Zn	0.03669 0.26243 0.29333 1.19700
O 	O 	0.22499 0.45778 0.13370 -0.53200
O 	O 	0.26200 0.45845 0.33430 -0.50300
O 	O 	0.23592 0.06826 0.18680 -0.47400
O 	O 	0.23257 0.04177 0.35760 -0.50800
O 	O 	0.81197 0.45916 0.15230 -0.52200
O 	O 	0.82456 0.45790 0.35350 -0.43100
O 	O 	0.85426 0.04216 0.33230 -0.42600
O 	O 	0.80880 0.06840 0.16350 -0.47700
O 	O 	0.01460 0.25576 0.10250 -0.54400
N 	N 	0.03915 0.32105 0.30770 -0.27500
N 	N 	0.03991 0.20423 0.32700 -0.26600
N 	N 	0.97821 0.26346 0.32390 -0.27100
N 	N 	0.10296 0.26224 0.32820 -0.27100
C 	C 	0.23118 0.44593 0.24370 0.38100
C 	C 	0.22374 0.06936 0.28190 0.38900
C 	C 	0.20164 0.41626 0.26420 -0.20100
C 	C 	0.19875 0.10250 0.30050 -0.17000
C 	C 	0.12853 0.29346 0.33260 0.10100
C 	C 	0.83338 0.44660 0.26090 0.36200
C 	C 	0.87215 0.10380 0.27600 -0.15800
C 	C 	0.00486 0.34469 0.29980 0.09200
C 	C 	0.84291 0.06982 0.25610 0.37200
C 	C 	0.86826 0.41807 0.27700 -0.18300
C 	C 	0.07233 0.34393 0.29850 0.09300
C 	C 	0.14507 0.36071 0.29750 0.14800
C 	C 	0.95398 0.23240 0.33010 0.09700
C 	C 	0.00430 0.18146 0.31160 0.10000
C 	C 	0.93252 0.36291 0.30210 0.14200
C 	C 	0.18722 0.13206 0.21360 0.09300
H 	H 	0.19740 0.13190 0.14560 -0.01200
C 	C 	0.07228 0.18085 0.32060 0.10300
C 	C 	0.93063 0.16435 0.30440 0.13300
C 	C 	0.14560 0.16245 0.32590 0.13200
C 	C 	0.11389 0.33147 0.31170 -0.15500
C 	C 	0.05734 0.38308 0.28140 -0.07900
H 	H 	0.07350 0.40450 0.27100 0.05200
C 	C 	0.95470 0.29515 0.33140 0.09400
C 	C 	0.96582 0.33282 0.31280 -0.14800
C 	C 	0.05648 0.14216 0.29760 -0.07400
H 	H 	0.07260 0.12040 0.28930 0.05800
C 	C 	0.12895 0.23080 0.34140 0.10000
C 	C 	0.91559 0.28305 0.35160 -0.09600
H 	H 	0.89420 0.29930 0.36360 0.05300
C 	C 	0.01470 0.14265 0.29020 -0.09100
H 	H 	0.99560 0.12140 0.27400 0.06800
C 	C 	0.11453 0.19248 0.33140 -0.14400
C 	C 	0.91493 0.24515 0.35020 -0.09500
H 	H 	0.89290 0.22930 0.36040 0.05400
C 	C 	0.20376 0.40554 0.38110 0.11200
H 	H 	0.22480 0.41690 0.45150 -0.00200
C 	C 	0.16094 0.16167 0.22600 -0.17500
H 	H 	0.15320 0.18160 0.16620 0.08300
C 	C 	0.01667 0.38374 0.28280 -0.09200
H 	H 	0.99890 0.40570 0.27430 0.06100
C 	C 	0.90853 0.10674 0.38050 0.08800
H 	H 	0.91380 0.08800 0.44400 0.01400
C 	C 	0.96429 0.19421 0.31600 -0.14300
C 	C 	0.17300 0.24296 0.36110 -0.08000
H 	H 	0.19760 0.22690 0.37540 0.05600
C 	C 	0.93748 0.13627 0.39490 -0.17500
H 	H 	0.96250 0.13750 0.46780 0.09100
C 	C 	0.18494 0.10352 0.40220 0.08900
H 	H 	0.19330 0.08390 0.46300 0.00500
C 	C 	0.17125 0.39819 0.16340 0.10400
H 	H 	0.16930 0.40490 0.08140 -0.03200
C 	C 	0.17247 0.28126 0.35520 -0.08300
H 	H 	0.19670 0.29740 0.36420 0.05700
C 	C 	0.89234 0.16268 0.20260 -0.17600
H 	H 	0.88590 0.18230 0.14180 0.08400
C 	C 	0.14421 0.37087 0.18140 -0.20000
H 	H 	0.12420 0.35850 0.11110 0.08400
C 	C 	0.17575 0.37847 0.39750 -0.19300
H 	H 	0.17750 0.37180 0.47930 0.09700
C 	C 	0.86359 0.13276 0.18890 0.09000
H 	H 	0.83760 0.13210 0.11870 -0.01000
C 	C 	0.15874 0.13348 0.41430 -0.17300
H 	H 	0.14960 0.13420 0.48440 0.09100
C 	C 	0.88876 0.40097 0.38840 0.10300
H 	H 	0.88130 0.40790 0.45850 0.00600
C 	C 	0.92047 0.37350 0.40060 -0.19100
H 	H 	0.93420 0.36180 0.47900 0.09700
C 	C 	0.91270 0.38165 0.18970 -0.18700
H 	H 	0.92120 0.37570 0.12070 0.08000
C 	C 	0.88077 0.40875 0.17700 0.09100
H 	H 	0.86740 0.42100 0.09930 -0.02800
Na	Na	0.25077 0.07734 0.01054 0.57500
Zn	Zn	0.53669 0.76243 0.29333 1.19700
O 	O 	0.72499 0.95778 0.13370 -0.51100
O 	O 	0.76200 0.95845 0.33430 -0.48100
O 	O 	0.73592 0.56826 0.18680 -0.48000
O 	O 	0.73257 0.54177 0.35760 -0.50700
O 	O 	0.31197 0.95916 0.15230 -0.50000
O 	O 	0.32456 0.95790 0.35350 -0.41000
O 	O 	0.35426 0.54216 0.33230 -0.42400
O 	O 	0.30880 0.56840 0.16350 -0.48200
O 	O 	0.51460 0.75576 0.10250 -0.54600
N 	N 	0.53915 0.82105 0.30770 -0.27500
N 	N 	0.53991 0.70423 0.32700 -0.26600
N 	N 	0.47821 0.76346 0.32390 -0.27300
N 	N 	0.60296 0.76224 0.32820 -0.27100
C 	C 	0.73118 0.94593 0.24370 0.37800
C 	C 	0.72374 0.56936 0.28190 0.38800
C 	C 	0.70164 0.91626 0.26420 -0.19500
C 	C 	0.69875 0.60250 0.30050 -0.16900
C 	C 	0.62853 0.79346 0.33260 0.10100
C 	C 	0.33338 0.94660 0.26090 0.35900
C 	C 	0.37215 0.60380 0.27600 -0.15600
C 	C 	0.50486 0.84469 0.29980 0.09500
C 	C 	0.34291 0.56982 0.25610 0.37200
C 	C 	0.36826 0.91807 0.27700 -0.17600
C 	C 	0.57233 0.84393 0.29850 0.09500
C 	C 	0.64507 0.86071 0.29750 0.14700
C 	C 	0.45398 0.73240 0.33010 0.09700
C 	C 	0.50430 0.68146 0.31160 0.10200
C 	C 	0.43252 0.86291 0.30210 0.14100
C 	C 	0.68722 0.63206 0.21360 0.09200
H 	H 	0.69740 0.63190 0.14560 -0.01200
C 	C 	0.57228 0.68085 0.32060 0.10500
C 	C 	0.43063 0.66435 0.30440 0.13300
C 	C 	0.64560 0.66245 0.32590 0.13200
C 	C 	0.61389 0.83147 0.31170 -0.15500
C 	C 	0.55734 0.88308 0.28140 -0.08200
H 	H 	0.57350 0.90450 0.27100 0.05800
C 	C 	0.45470 0.79515 0.33140 0.09400
C 	C 	0.46582 0.83282 0.31280 -0.15200
C 	C 	0.55648 0.64216 0.29760 -0.07800
H 	H 	0.57260 0.62040 0.28930 0.06200
C 	C 	0.62895 0.73080 0.34140 0.10000
C 	C 	0.41559 0.78305 0.35160 -0.09600
H 	H 	0.39420 0.79930 0.36360 0.05200
C 	C 	0.51470 0.64265 0.29020 -0.08200
H 	H 	0.49560 0.62140 0.27400 0.06400
C 	C 	0.61453 0.69248 0.33140 -0.14500
C 	C 	0.41493 0.74515 0.35020 -0.09600
H 	H 	0.39290 0.72930 0.36040 0.05400
C 	C 	0.70376 0.90554 0.38110 0.11000
H 	H 	0.72480 0.91690 0.45150 0.00100
C 	C 	0.66094 0.66167 0.22600 -0.17400
H 	H 	0.65320 0.68160 0.16620 0.08300
C 	C 	0.51667 0.88374 0.28280 -0.08200
H 	H 	0.49890 0.90570 0.27430 0.05800
C 	C 	0.40853 0.60674 0.38050 0.08700
H 	H 	0.41380 0.58800 0.44400 0.01700
C 	C 	0.46429 0.69421 0.31600 -0.14700
C 	C 	0.67300 0.74296 0.36110 -0.08000
H 	H 	0.69760 0.72690 0.37540 0.05600
C 	C 	0.43748 0.63627 0.39490 -0.17400
H 	H 	0.46250 0.63750 0.46780 0.09100
C 	C 	0.68494 0.60352 0.40220 0.08900
H 	H 	0.69330 0.58390 0.46300 0.00600
C 	C 	0.67125 0.89819 0.16340 0.10200
H 	H 	0.66930 0.90490 0.08140 -0.03000
C 	C 	0.67247 0.78126 0.35520 -0.08300
H 	H 	0.69670 0.79740 0.36420 0.05700
C 	C 	0.39234 0.66268 0.20260 -0.17600
H 	H 	0.38590 0.68230 0.14180 0.08400
C 	C 	0.64421 0.87087 0.18140 -0.19700
H 	H 	0.62420 0.85850 0.11110 0.08400
C 	C 	0.67575 0.87847 0.39750 -0.19100
H 	H 	0.67750 0.87180 0.47930 0.09600
C 	C 	0.36359 0.63276 0.18890 0.08900
H 	H 	0.33760 0.63210 0.11870 -0.01000
C 	C 	0.65874 0.63348 0.41430 -0.17200
H 	H 	0.64960 0.63420 0.48440 0.09100
C 	C 	0.38876 0.90097 0.38840 0.10000
H 	H 	0.38130 0.90790 0.45850 0.00900
C 	C 	0.42047 0.87350 0.40060 -0.18800
H 	H 	0.43420 0.86180 0.47900 0.09600
C 	C 	0.41270 0.88165 0.18970 -0.18400
H 	H 	0.42120 0.87570 0.12070 0.07900
C 	C 	0.38077 0.90875 0.17700 0.08900
H 	H 	0.36740 0.92100 0.09930 -0.02400
Na	Na	0.75077 0.57734 0.01054 0.57500
Zn	Zn	0.96331 0.26243 0.70667 1.19900
O 	O 	0.77501 0.45778 0.86630 -0.51600
O 	O 	0.73800 0.45845 0.66570 -0.50400
O 	O 	0.76408 0.06826 0.81320 -0.46700
O 	O 	0.76743 0.04177 0.64240 -0.50800
O 	O 	0.18803 0.45916 0.84770 -0.51300
O 	O 	0.17544 0.45790 0.64650 -0.43100
O 	O 	0.14574 0.04216 0.66770 -0.42900
O 	O 	0.19120 0.06840 0.83650 -0.46600
O 	O 	0.98540 0.25576 0.89750 -0.51800
N 	N 	0.96085 0.32105 0.69230 -0.27400
N 	N 	0.96009 0.20423 0.67300 -0.26600
N 	N 	0.02179 0.26346 0.67610 -0.27400
N 	N 	0.89704 0.26224 0.67180 -0.27000
C 	C 	0.76882 0.44593 0.75630 0.37800
C 	C 	0.77626 0.06936 0.71810 0.38800
C 	C 	0.79836 0.41626 0.73580 -0.19400
C 	C 	0.80125 0.10250 0.69950 -0.16600
C 	C 	0.87147 0.29346 0.66740 0.10300
C 	C 	0.16662 0.44660 0.73910 0.36100
C 	C 	0.12785 0.10380 0.72400 -0.15400
C 	C 	0.99514 0.34469 0.70020 0.10000
C 	C 	0.15709 0.06982 0.74390 0.37100
C 	C 	0.13174 0.41807 0.72300 -0.17900
C 	C 	0.92767 0.34393 0.70150 0.09900
C 	C 	0.85493 0.36071 0.70250 0.14900
C 	C 	0.04602 0.23240 0.66990 0.10000
C 	C 	0.99570 0.18146 0.68840 0.10700
C 	C 	0.06748 0.36291 0.69790 0.14500
C 	C 	0.81278 0.13206 0.78640 0.09400
H 	H 	0.80260 0.13190 0.85440 -0.00200
C 	C 	0.92772 0.18085 0.67940 0.10900
C 	C 	0.06937 0.16435 0.69560 0.13600
C 	C 	0.85440 0.16245 0.67410 0.13400
C 	C 	0.88611 0.33147 0.68830 -0.15400
C 	C 	0.94266 0.38308 0.71860 -0.08500
H 	H 	0.92650 0.40450 0.72900 0.06000
C 	C 	0.04530 0.29515 0.66860 0.09800
C 	C 	0.03418 0.33282 0.68720 -0.15500
C 	C 	0.94352 0.14216 0.70240 -0.08000
H 	H 	0.92740 0.12040 0.71070 0.06600
C 	C 	0.87105 0.23080 0.65860 0.10200
C 	C 	0.08441 0.28305 0.64840 -0.09500
H 	H 	0.10580 0.29930 0.63640 0.05500
C 	C 	0.98530 0.14265 0.70980 -0.07100
H 	H 	0.00440 0.12140 0.72600 0.05900
C 	C 	0.88547 0.19248 0.66860 -0.14400
C 	C 	0.08507 0.24515 0.64980 -0.09500
H 	H 	0.10710 0.22930 0.63960 0.05600
C 	C 	0.79624 0.40554 0.61890 0.10900
H 	H 	0.77520 0.41690 0.54850 -0.00100
C 	C 	0.83906 0.16167 0.77400 -0.17200
H 	H 	0.84680 0.18160 0.83380 0.09200
C 	C 	0.98333 0.38374 0.71720 -0.07100
H 	H 	0.00110 0.40570 0.72570 0.05100
C 	C 	0.09147 0.10674 0.61950 0.08800
H 	H 	0.08620 0.08800 0.55600 0.01300
C 	C 	0.03571 0.19421 0.68400 -0.15000
C 	C 	0.82700 0.24296 0.63890 -0.07900
H 	H 	0.80240 0.22690 0.62460 0.05700
C 	C 	0.06252 0.13627 0.60510 -0.17500
H 	H 	0.03750 0.13750 0.53220 0.09000
C 	C 	0.81506 0.10352 0.59780 0.08900
H 	H 	0.80670 0.08390 0.53700 0.00600
C 	C 	0.82875 0.39819 0.83660 0.10300
H 	H 	0.83070 0.40490 0.91860 -0.01700
C 	C 	0.82753 0.28126 0.64480 -0.08100
H 	H 	0.80330 0.29740 0.63580 0.05900
C 	C 	0.10766 0.16268 0.79740 -0.17400
H 	H 	0.11410 0.18230 0.85820 0.09300
C 	C 	0.85579 0.37087 0.81860 -0.19500
H 	H 	0.87580 0.35850 0.88890 0.09500
C 	C 	0.82425 0.37847 0.60250 -0.19100
H 	H 	0.82250 0.37180 0.52070 0.09600
C 	C 	0.13641 0.13276 0.81110 0.09100
H 	H 	0.16240 0.13210 0.88130 0.00100
C 	C 	0.84126 0.13348 0.58570 -0.17200
H 	H 	0.85040 0.13420 0.51560 0.09100
C 	C 	0.11124 0.40097 0.61160 0.10300
H 	H 	0.11870 0.40790 0.54150 0.00500
C 	C 	0.07953 0.37350 0.59940 -0.19200
H 	H 	0.06580 0.36180 0.52100 0.09700
C 	C 	0.08730 0.38165 0.81030 -0.18500
H 	H 	0.07880 0.37570 0.87930 0.08900
C 	C 	0.11923 0.40875 0.82300 0.09200
H 	H 	0.13260 0.42100 0.90070 -0.01500
Na	Na	0.74923 0.07734 0.98946 0.58200
Zn	Zn	0.46331 0.76243 0.70667 1.19800
O 	O 	0.27501 0.95778 0.86630 -0.49500
O 	O 	0.23800 0.95845 0.66570 -0.48200
O 	O 	0.26408 0.56826 0.81320 -0.47200
O 	O 	0.26743 0.54177 0.64240 -0.50700
O 	O 	0.68803 0.95916 0.84770 -0.49000
O 	O 	0.67544 0.95790 0.64650 -0.41000
O 	O 	0.64574 0.54216 0.66770 -0.42600
O 	O 	0.69120 0.56840 0.83650 -0.47100
O 	O 	0.48540 0.75576 0.89750 -0.52400
N 	N 	0.46085 0.82105 0.69230 -0.27400
N 	N 	0.46009 0.70423 0.67300 -0.26500
N 	N 	0.52179 0.76346 0.67610 -0.27200
N 	N 	0.39704 0.76224 0.67180 -0.27000
C 	C 	0.26882 0.94593 0.75630 0.37400
C 	C 	0.27626 0.56936 0.71810 0.38800
C 	C 	0.29836 0.91626 0.73580 -0.18700
C 	C 	0.30125 0.60250 0.69950 -0.16500
C 	C 	0.37147 0.79346 0.66740 0.10300
C 	C 	0.66662 0.94660 0.73910 0.35700
C 	C 	0.62785 0.60380 0.72400 -0.15100
C 	C 	0.49514 0.84469 0.70020 0.09700
C 	C 	0.65709 0.56982 0.74390 0.37000
C 	C 	0.63174 0.91807 0.72300 -0.17100
C 	C 	0.42767 0.84393 0.70150 0.09700
C 	C 	0.35493 0.86071 0.70250 0.14700
C 	C 	0.54602 0.73240 0.66990 0.10000
C 	C 	0.49570 0.68146 0.68840 0.10500
C 	C 	0.56748 0.86291 0.69790 0.14200
C 	C 	0.31278 0.63206 0.78640 0.09300
H 	H 	0.30260 0.63190 0.85440 -0.00200
C 	C 	0.42772 0.68085 0.67940 0.10700
C 	C 	0.56937 0.66435 0.69560 0.13400
C 	C 	0.35440 0.66245 0.67410 0.13300
C 	C 	0.38611 0.83147 0.68830 -0.15300
C 	C 	0.44266 0.88308 0.71860 -0.08000
H 	H 	0.42650 0.90450 0.72900 0.06100
C 	C 	0.54530 0.79515 0.66860 0.09700
C 	C 	0.53418 0.83282 0.68720 -0.15000
C 	C 	0.44352 0.64216 0.70240 -0.07500
H 	H 	0.42740 0.62040 0.71070 0.06600
C 	C 	0.37105 0.73080 0.65860 0.10100
C 	C 	0.58441 0.78305 0.64840 -0.09400
H 	H 	0.60580 0.79930 0.63640 0.05400
C 	C 	0.48530 0.64265 0.70980 -0.08000
H 	H 	0.50440 0.62140 0.72600 0.06700
C 	C 	0.38547 0.69248 0.66860 -0.14300
C 	C 	0.58507 0.74515 0.64980 -0.09400
H 	H 	0.60710 0.72930 0.63960 0.05600
C 	C 	0.29624 0.90554 0.61890 0.10700
H 	H 	0.27520 0.91690 0.54850 0.00200
C 	C 	0.33906 0.66167 0.77400 -0.17100
H 	H 	0.34680 0.68160 0.83380 0.09100
C 	C 	0.48333 0.88374 0.71720 -0.07900
H 	H 	0.50110 0.90570 0.72570 0.06100
C 	C 	0.59147 0.60674 0.61950 0.08600
H 	H 	0.58620 0.58800 0.55600 0.01700
C 	C 	0.53571 0.69421 0.68400 -0.14500
C 	C 	0.32700 0.74296 0.63890 -0.07900
H 	H 	0.30240 0.72690 0.62460 0.05700
C 	C 	0.56252 0.63627 0.60510 -0.17200
H 	H 	0.53750 0.63750 0.53220 0.09000
C 	C 	0.31506 0.60352 0.59780 0.08900
H 	H 	0.30670 0.58390 0.53700 0.00700
C 	C 	0.32875 0.89819 0.83660 0.10000
H 	H 	0.33070 0.90490 0.91860 -0.01500
C 	C 	0.32753 0.78126 0.64480 -0.08100
H 	H 	0.30330 0.79740 0.63580 0.05800
C 	C 	0.60766 0.66268 0.79740 -0.17200
H 	H 	0.61410 0.68230 0.85820 0.09200
C 	C 	0.35579 0.87087 0.81860 -0.19200
H 	H 	0.37580 0.85850 0.88890 0.09400
C 	C 	0.32425 0.87847 0.60250 -0.18700
H 	H 	0.32250 0.87180 0.52070 0.09500
C 	C 	0.63641 0.63276 0.81110 0.09000
H 	H 	0.66240 0.63210 0.88130 0.00100
C 	C 	0.34126 0.63348 0.58570 -0.17100
H 	H 	0.35040 0.63420 0.51560 0.09000
C 	C 	0.61124 0.90097 0.61160 0.09900
H 	H 	0.61870 0.90790 0.54150 0.00900
C 	C 	0.57953 0.87350 0.59940 -0.18700
H 	H 	0.56580 0.86180 0.52100 0.09600
C 	C 	0.58730 0.88165 0.81030 -0.18000
H 	H 	0.57880 0.87570 0.87930 0.09000
C 	C 	0.61923 0.90875 0.82300 0.08900
H 	H 	0.63260 0.92100 0.90070 -0.01100
Na	Na	0.24923 0.57734 0.98946 0.58100
Sm	Sm	0.20538 0.00000 0.78887 1.97900
Sm	Sm	0.26271 0.00000 0.23385 1.96500
O 	O 	0.18264 0.00000 0.12040 -0.29400
O 	O 	0.15603 0.00000 0.91080 -0.27100
O 	O 	0.22663 0.00000 0.01080 -0.57000
N 	N 	0.18625 0.00000 0.01400 0.05600
Na	Na	0.76810 0.00000 0.49452 0.57600
Sm	Sm	0.70538 0.50000 0.78887 2.05800
Sm	Sm	0.76271 0.50000 0.23385 2.04400
O 	O 	0.68264 0.50000 0.12040 -0.28600
O 	O 	0.65603 0.50000 0.91080 -0.26300
O 	O 	0.72663 0.50000 0.01080 -0.57100
N 	N 	0.68625 0.50000 0.01400 0.05700
Na	Na	0.26810 0.50000 0.49452 0.58000
Sm	Sm	0.79462 -0.00000 0.21113 1.95000
Sm	Sm	0.73729 0.00000 0.76615 1.96800
O 	O 	0.81736 0.00000 0.87960 -0.28600
O 	O 	0.84397 0.00000 0.08920 -0.30000
O 	O 	0.77337 -0.00000 0.98920 -0.54700
N 	N 	0.81375 0.00000 0.98600 0.07900
Na	Na	0.23190 -0.00000 0.50548 0.57500
Sm	Sm	0.29462 0.50000 0.21113 2.02800
Sm	Sm	0.23729 0.50000 0.76615 2.04700
O 	O 	0.31736 0.50000 0.87960 -0.27900
O 	O 	0.34397 0.50000 0.08920 -0.29300
O 	O 	0.27337 0.50000 0.98920 -0.54800
N 	N 	0.31375 0.50000 0.98600 0.08000
Na	Na	0.73190 0.50000 0.50548 0.58000
C 	C 	0.00000 0.73560 -0.00000 0.49500
C 	C 	0.50000 0.23560 -0.00000 0.50300
C 	C 	0.00000 0.26440 -0.00000 0.49500
C 	C 	0.50000 0.76440 -0.00000 0.50300
Na	Na	0.82428 0.50000 0.00371 0.57100
Na	Na	0.32428 -0.00000 0.00371 0.56600
Na	Na	0.17572 0.50000 0.99629 0.57700
Na	Na	0.67572 0.00000 0.99629 0.57300
