data_crystal

_cell_length_a 32.91160
_cell_length_b 34.77260
_cell_length_c 11.51060
_cell_angle_alpha 90.00000
_cell_angle_beta  109.95800
_cell_angle_gamma 90.00000

_symmetry_space_group_name_	'P 1'
_symmetry_space_group_name_H-M	'P 1'

loop_
_symmetry_equiv_pos_as_xyz
  x,y,z

loop_
_atom_site_label
_atom_site_type_symbol
_atom_site_fract_x
_atom_site_fract_y
_atom_site_fract_z
_atom_site_charge
Zn	Zn	0.96396 0.73842 0.70641 1.19800
O 	O 	0.73952 0.54135 0.66902 -0.44800
O 	O 	0.77674 0.54223 0.86859 -0.47300
O 	O 	0.17596 0.54184 0.64657 -0.38000
O 	O 	0.76558 0.95856 0.64115 -0.43500
O 	O 	0.19310 0.93139 0.83912 -0.40900
O 	O 	0.76361 0.93166 0.81197 -0.42100
O 	O 	0.18782 0.54113 0.84682 -0.47000
O 	O 	0.14907 0.95835 0.67022 -0.35300
N 	N 	0.96040 0.79698 0.67160 -0.26600
N 	N 	0.89796 0.73834 0.67080 -0.27000
N 	N 	0.02178 0.73753 0.67390 -0.27300
N 	N 	0.96146 0.67933 0.69110 -0.27200
C 	C 	0.77034 0.55412 0.75950 0.36800
C 	C 	0.80002 0.58370 0.73780 -0.18800
C 	C 	0.16718 0.55336 0.73860 0.35400
C 	C 	0.77512 0.93115 0.71810 0.38600
C 	C 	0.15939 0.93055 0.74560 0.35500
C 	C 	0.13205 0.58232 0.72230 -0.17500
C 	C 	0.80116 0.89817 0.69890 -0.15900
C 	C 	0.99559 0.82007 0.68540 0.10600
C 	C 	0.12941 0.89681 0.72430 -0.13600
C 	C 	0.88704 0.66873 0.68720 -0.15200
C 	C 	0.92778 0.82058 0.67650 0.10700
C 	C 	0.03443 0.66767 0.68490 -0.15600
C 	C 	0.87250 0.70687 0.66620 0.10400
C 	C 	0.04495 0.70564 0.66560 0.09900
C 	C 	0.88601 0.80852 0.66610 -0.14400
C 	C 	0.06821 0.63761 0.69650 0.15000
C 	C 	0.85611 0.63920 0.70220 0.14700
C 	C 	0.79699 0.59455 0.62070 0.10200
H 	H 	0.77570 0.58330 0.55120 0.00400
C 	C 	0.92889 0.65624 0.70080 0.10200
C 	C 	0.99564 0.65569 0.69880 0.10300
C 	C 	0.09204 0.89631 0.62320 0.07300
H 	H 	0.08650 0.91630 0.56370 0.02600
C 	C 	0.03549 0.80737 0.68040 -0.14600
C 	C 	0.06937 0.83712 0.69290 0.12800
C 	C 	0.81281 0.86861 0.78440 0.09400
H 	H 	0.80280 0.86860 0.85250 -0.00000
C 	C 	0.87202 0.76996 0.65710 0.10100
C 	C 	0.94333 0.61679 0.71670 -0.08600
H 	H 	0.92700 0.59520 0.72580 0.06100
C 	C 	0.81516 0.89751 0.59760 0.08800
H 	H 	0.80650 0.91730 0.53710 0.01200
C 	C 	0.82511 0.62209 0.60380 -0.18600
H 	H 	0.82280 0.62930 0.52210 0.09400
C 	C 	0.04590 0.76879 0.66620 0.09900
C 	C 	0.08406 0.71752 0.64330 -0.09500
H 	H 	0.10520 0.70110 0.63040 0.05500
C 	C 	0.85473 0.83875 0.67250 0.13500
C 	C 	0.83918 0.83897 0.77090 -0.17100
H 	H 	0.84670 0.81860 0.82950 0.09200
C 	C 	0.94331 0.85996 0.69640 -0.08000
H 	H 	0.92720 0.88190 0.70340 0.07100
C 	C 	0.98442 0.61634 0.71630 -0.07100
H 	H 	0.00250 0.59440 0.72570 0.05200
C 	C 	0.08445 0.75624 0.64440 -0.09700
H 	H 	0.10610 0.77230 0.63300 0.05700
C 	C 	0.13800 0.86643 0.80770 0.07800
H 	H 	0.16430 0.86600 0.87610 0.00600
C 	C 	0.98486 0.85938 0.70300 -0.07000
H 	H 	0.00370 0.88090 0.71670 0.06300
C 	C 	0.82813 0.75779 0.63810 -0.08000
H 	H 	0.80370 0.77400 0.62400 0.05700
C 	C 	0.84174 0.86800 0.58490 -0.17000
H 	H 	0.85120 0.86780 0.51560 0.09200
C 	C 	0.06237 0.86673 0.60770 -0.16000
H 	H 	0.03670 0.86680 0.53730 0.08600
C 	C 	0.11113 0.59876 0.61060 0.10100
H 	H 	0.11800 0.59110 0.54030 0.00700
C 	C 	0.82999 0.60153 0.83670 0.09900
H 	H 	0.83170 0.59500 0.91830 -0.01400
C 	C 	0.10841 0.83672 0.79150 -0.16100
H 	H 	0.11480 0.81590 0.84830 0.08900
C 	C 	0.85778 0.62898 0.81880 -0.19000
H 	H 	0.87830 0.64090 0.88850 0.09400
C 	C 	0.82850 0.71903 0.64440 -0.08100
H 	H 	0.80440 0.70280 0.63610 0.05900
O 	O 	0.99627 0.74210 0.89700 -0.28000
C 	C 	0.07959 0.62670 0.59840 -0.19400
H 	H 	0.06580 0.63840 0.52020 0.09800
C 	C 	0.11984 0.59192 0.82180 0.09100
H 	H 	0.13280 0.57950 0.89920 -0.01400
C 	C 	0.08840 0.61997 0.80820 -0.18700
H 	H 	0.08070 0.62710 0.87770 0.09100
Na	Na	0.74817 0.92220 0.98761 0.58500
O 	O 	0.97740 0.74170 0.89780 -0.24900
Zn	Zn	0.46396 0.23842 0.70641 1.19800
O 	O 	0.23952 0.04135 0.66902 -0.45000
O 	O 	0.27674 0.04223 0.86859 -0.47400
O 	O 	0.67596 0.04184 0.64657 -0.38200
O 	O 	0.26558 0.45856 0.64115 -0.45300
O 	O 	0.69310 0.43139 0.83912 -0.42200
O 	O 	0.26361 0.43166 0.81197 -0.43400
O 	O 	0.68782 0.04113 0.84682 -0.47200
O 	O 	0.64907 0.45835 0.67022 -0.37200
N 	N 	0.46040 0.29698 0.67160 -0.26600
N 	N 	0.39796 0.23834 0.67080 -0.27000
N 	N 	0.52178 0.23753 0.67390 -0.27100
N 	N 	0.46146 0.17933 0.69110 -0.27200
C 	C 	0.27034 0.05412 0.75950 0.36700
C 	C 	0.30002 0.08370 0.73780 -0.19000
C 	C 	0.66718 0.05336 0.73860 0.35300
C 	C 	0.27512 0.43115 0.71810 0.38900
C 	C 	0.65939 0.43055 0.74560 0.35800
C 	C 	0.63205 0.08232 0.72230 -0.17700
C 	C 	0.30116 0.39817 0.69890 -0.16400
C 	C 	0.49559 0.32007 0.68540 0.10300
C 	C 	0.62941 0.39681 0.72430 -0.14000
C 	C 	0.38704 0.16873 0.68720 -0.15200
C 	C 	0.42778 0.32058 0.67650 0.10600
C 	C 	0.53443 0.16767 0.68490 -0.15200
C 	C 	0.37250 0.20687 0.66620 0.10400
C 	C 	0.54495 0.20564 0.66560 0.09900
C 	C 	0.38601 0.30852 0.66610 -0.14400
C 	C 	0.56821 0.13761 0.69650 0.15000
C 	C 	0.35611 0.13920 0.70220 0.14700
C 	C 	0.29699 0.09455 0.62070 0.10200
H 	H 	0.27570 0.08330 0.55120 0.00300
C 	C 	0.42889 0.15624 0.70080 0.10000
C 	C 	0.49564 0.15569 0.69880 0.10000
C 	C 	0.59204 0.39631 0.62320 0.07500
H 	H 	0.58650 0.41630 0.56370 0.02200
C 	C 	0.53549 0.30737 0.68040 -0.14200
C 	C 	0.56937 0.33712 0.69290 0.12800
C 	C 	0.31281 0.36861 0.78440 0.09500
H 	H 	0.30280 0.36860 0.85250 -0.00100
C 	C 	0.37202 0.26996 0.65710 0.10100
C 	C 	0.44333 0.11679 0.71670 -0.08300
H 	H 	0.42700 0.09520 0.72580 0.05700
C 	C 	0.31516 0.39751 0.59760 0.09000
H 	H 	0.30650 0.41730 0.53710 0.00900
C 	C 	0.32511 0.12209 0.60380 -0.18600
H 	H 	0.32280 0.12930 0.52210 0.09500
C 	C 	0.54590 0.26879 0.66620 0.09900
C 	C 	0.58406 0.21752 0.64330 -0.09400
H 	H 	0.60520 0.20110 0.63040 0.05500
C 	C 	0.35473 0.33875 0.67250 0.13500
C 	C 	0.33918 0.33897 0.77090 -0.17300
H 	H 	0.34670 0.31860 0.82950 0.09200
C 	C 	0.44331 0.35996 0.69640 -0.07600
H 	H 	0.42720 0.38190 0.70340 0.06600
C 	C 	0.48442 0.11634 0.71630 -0.08100
H 	H 	0.50250 0.09440 0.72570 0.05500
C 	C 	0.58445 0.25624 0.64440 -0.09600
H 	H 	0.60610 0.27230 0.63300 0.05700
C 	C 	0.63800 0.36643 0.80770 0.07900
H 	H 	0.66430 0.36600 0.87610 0.00500
C 	C 	0.48486 0.35938 0.70300 -0.07900
H 	H 	0.50370 0.38090 0.71670 0.06700
C 	C 	0.32813 0.25779 0.63810 -0.08000
H 	H 	0.30370 0.27400 0.62400 0.05800
C 	C 	0.34174 0.36800 0.58490 -0.17200
H 	H 	0.35120 0.36780 0.51560 0.09300
C 	C 	0.56237 0.36673 0.60770 -0.16200
H 	H 	0.53670 0.36680 0.53730 0.08700
C 	C 	0.61113 0.09876 0.61060 0.10100
H 	H 	0.61800 0.09110 0.54030 0.00500
C 	C 	0.32999 0.10153 0.83670 0.09900
H 	H 	0.33170 0.09500 0.91830 -0.01500
C 	C 	0.60841 0.33672 0.79150 -0.16300
H 	H 	0.61480 0.31590 0.84830 0.08900
C 	C 	0.35778 0.12898 0.81880 -0.19100
H 	H 	0.37830 0.14090 0.88850 0.09400
C 	C 	0.32850 0.21903 0.64440 -0.08100
H 	H 	0.30440 0.20280 0.63610 0.05900
O 	O 	0.49627 0.24210 0.89700 -0.28600
C 	C 	0.57959 0.12670 0.59840 -0.19400
H 	H 	0.56580 0.13840 0.52020 0.09800
C 	C 	0.61984 0.09192 0.82180 0.09100
H 	H 	0.63280 0.07950 0.89920 -0.01600
C 	C 	0.58840 0.11997 0.80820 -0.18800
H 	H 	0.58070 0.12710 0.87770 0.09100
Na	Na	0.24817 0.42220 0.98761 0.58400
O 	O 	0.47740 0.24170 0.89780 -0.24900
Zn	Zn	0.03604 0.73842 0.29359 1.19700
O 	O 	0.26048 0.54135 0.33098 -0.44700
O 	O 	0.22326 0.54223 0.13141 -0.48800
O 	O 	0.82404 0.54184 0.35343 -0.37800
O 	O 	0.23442 0.95856 0.35885 -0.43500
O 	O 	0.80690 0.93139 0.16088 -0.42100
O 	O 	0.23639 0.93166 0.18803 -0.42800
O 	O 	0.81218 0.54113 0.15318 -0.48000
O 	O 	0.85093 0.95835 0.32978 -0.35100
N 	N 	0.03960 0.79698 0.32840 -0.26700
N 	N 	0.10204 0.73834 0.32920 -0.27100
N 	N 	0.97822 0.73753 0.32610 -0.27100
N 	N 	0.03854 0.67933 0.30890 -0.27300
C 	C 	0.22966 0.55412 0.24050 0.37100
C 	C 	0.19998 0.58370 0.26220 -0.19500
C 	C 	0.83282 0.55336 0.26140 0.35500
C 	C 	0.22488 0.93115 0.28190 0.38700
C 	C 	0.84061 0.93055 0.25440 0.35700
C 	C 	0.86795 0.58232 0.27770 -0.17800
C 	C 	0.19884 0.89817 0.30110 -0.16400
C 	C 	0.00441 0.82007 0.31460 0.09800
C 	C 	0.87059 0.89681 0.27570 -0.14000
C 	C 	0.11296 0.66873 0.31280 -0.15300
C 	C 	0.07222 0.82058 0.32350 0.10200
C 	C 	0.96557 0.66767 0.31510 -0.14900
C 	C 	0.12750 0.70687 0.33380 0.10200
C 	C 	0.95505 0.70564 0.33440 0.09600
C 	C 	0.11399 0.80852 0.33390 -0.14500
C 	C 	0.93179 0.63761 0.30350 0.14700
C 	C 	0.14389 0.63920 0.29780 0.14700
C 	C 	0.20301 0.59455 0.37930 0.10500
H 	H 	0.22430 0.58330 0.44880 0.00200
C 	C 	0.07111 0.65624 0.29920 0.09600
C 	C 	0.00436 0.65569 0.30120 0.09500
C 	C 	0.90796 0.89631 0.37680 0.07300
H 	H 	0.91350 0.91630 0.43630 0.02700
C 	C 	0.96451 0.80737 0.31960 -0.13900
C 	C 	0.93063 0.83712 0.30710 0.12500
C 	C 	0.18719 0.86861 0.21560 0.09300
H 	H 	0.19720 0.86860 0.14750 -0.01000
C 	C 	0.12798 0.76996 0.34290 0.09900
C 	C 	0.05667 0.61679 0.28330 -0.08000
H 	H 	0.07300 0.59520 0.27420 0.05400
C 	C 	0.18484 0.89751 0.40240 0.08900
H 	H 	0.19350 0.91730 0.46290 0.01100
C 	C 	0.17489 0.62209 0.39620 -0.18800
H 	H 	0.17720 0.62930 0.47790 0.09600
C 	C 	0.95410 0.76879 0.33380 0.09600
C 	C 	0.91594 0.71752 0.35670 -0.09600
H 	H 	0.89480 0.70110 0.36960 0.05300
C 	C 	0.14527 0.83875 0.32750 0.13300
C 	C 	0.16082 0.83897 0.22910 -0.17400
H 	H 	0.15330 0.81860 0.17050 0.08400
C 	C 	0.05669 0.85996 0.30360 -0.07300
H 	H 	0.07280 0.88190 0.29660 0.06300
C 	C 	0.01558 0.61634 0.28370 -0.09200
H 	H 	0.99750 0.59440 0.27430 0.06100
C 	C 	0.91555 0.75624 0.35560 -0.09700
H 	H 	0.89390 0.77230 0.36700 0.05500
C 	C 	0.86200 0.86643 0.19230 0.07600
H 	H 	0.83570 0.86600 0.12390 -0.00400
C 	C 	0.01514 0.85938 0.29700 -0.09000
H 	H 	0.99630 0.88090 0.28330 0.07200
C 	C 	0.17187 0.75779 0.36190 -0.08100
H 	H 	0.19630 0.77400 0.37600 0.05600
C 	C 	0.15826 0.86800 0.41510 -0.17100
H 	H 	0.14880 0.86780 0.48440 0.09300
C 	C 	0.93763 0.86673 0.39230 -0.16000
H 	H 	0.96330 0.86680 0.46270 0.08800
C 	C 	0.88887 0.59876 0.38940 0.10000
H 	H 	0.88200 0.59110 0.45970 0.00700
C 	C 	0.17001 0.60153 0.16330 0.10000
H 	H 	0.16830 0.59500 0.08170 -0.03000
C 	C 	0.89159 0.83672 0.20850 -0.16300
H 	H 	0.88520 0.81590 0.15170 0.08100
C 	C 	0.14222 0.62898 0.18120 -0.19600
H 	H 	0.12170 0.64090 0.11150 0.08400
C 	C 	0.17150 0.71903 0.35560 -0.08200
H 	H 	0.19560 0.70280 0.36390 0.05700
O 	O 	0.00373 0.74210 0.10300 -0.29900
C 	C 	0.92041 0.62670 0.40160 -0.19200
H 	H 	0.93420 0.63840 0.47980 0.09700
C 	C 	0.88016 0.59192 0.17820 0.09000
H 	H 	0.86720 0.57950 0.10080 -0.02700
C 	C 	0.91160 0.61997 0.19180 -0.18900
H 	H 	0.91930 0.62710 0.12230 0.08100
Na	Na	0.25183 0.92220 0.01239 0.57900
O 	O 	0.02260 0.74170 0.10220 -0.25700
Zn	Zn	0.53604 0.23842 0.29359 1.19800
O 	O 	0.76048 0.04135 0.33098 -0.45000
O 	O 	0.72326 0.04223 0.13141 -0.49000
O 	O 	0.32404 0.04184 0.35343 -0.38200
O 	O 	0.73442 0.45856 0.35885 -0.45400
O 	O 	0.30690 0.43139 0.16088 -0.43400
O 	O 	0.73639 0.43166 0.18803 -0.44100
O 	O 	0.31218 0.04113 0.15318 -0.48200
O 	O 	0.35093 0.45835 0.32978 -0.37100
N 	N 	0.53960 0.29698 0.32840 -0.26700
N 	N 	0.60204 0.23834 0.32920 -0.27100
N 	N 	0.47822 0.23753 0.32610 -0.27200
N 	N 	0.53854 0.17933 0.30890 -0.27300
C 	C 	0.72966 0.05412 0.24050 0.37000
C 	C 	0.69998 0.08370 0.26220 -0.19800
C 	C 	0.33282 0.05336 0.26140 0.35500
C 	C 	0.72488 0.43115 0.28190 0.38900
C 	C 	0.34061 0.43055 0.25440 0.36000
C 	C 	0.36795 0.08232 0.27770 -0.18200
C 	C 	0.69884 0.39817 0.30110 -0.16900
C 	C 	0.50441 0.32007 0.31460 0.10100
C 	C 	0.37059 0.39681 0.27570 -0.14600
C 	C 	0.61296 0.16873 0.31280 -0.15400
C 	C 	0.57222 0.32058 0.32350 0.10300
C 	C 	0.46557 0.16767 0.31510 -0.15400
C 	C 	0.62750 0.20687 0.33380 0.10300
C 	C 	0.45505 0.20564 0.33440 0.09700
C 	C 	0.61399 0.30852 0.33390 -0.14600
C 	C 	0.43179 0.13761 0.30350 0.14900
C 	C 	0.64389 0.13920 0.29780 0.14800
C 	C 	0.70301 0.09455 0.37930 0.10500
H 	H 	0.72430 0.08330 0.44880 0.00100
C 	C 	0.57111 0.15624 0.29920 0.09700
C 	C 	0.50436 0.15569 0.30120 0.09700
C 	C 	0.40796 0.39631 0.37680 0.07500
H 	H 	0.41350 0.41630 0.43630 0.02200
C 	C 	0.46451 0.30737 0.31960 -0.14400
C 	C 	0.43063 0.33712 0.30710 0.12700
C 	C 	0.68719 0.36861 0.21560 0.09500
H 	H 	0.69720 0.36860 0.14750 -0.01100
C 	C 	0.62798 0.26996 0.34290 0.10000
C 	C 	0.55667 0.11679 0.28330 -0.08500
H 	H 	0.57300 0.09520 0.27420 0.05300
C 	C 	0.68484 0.39751 0.40240 0.09100
H 	H 	0.69350 0.41730 0.46290 0.00800
C 	C 	0.67489 0.12209 0.39620 -0.19000
H 	H 	0.67720 0.12930 0.47790 0.09700
C 	C 	0.45410 0.26879 0.33380 0.09700
C 	C 	0.41594 0.21752 0.35670 -0.09600
H 	H 	0.39480 0.20110 0.36960 0.05300
C 	C 	0.64527 0.33875 0.32750 0.13500
C 	C 	0.66082 0.33897 0.22910 -0.17600
H 	H 	0.65330 0.31860 0.17050 0.08400
C 	C 	0.55669 0.35996 0.30360 -0.07800
H 	H 	0.57280 0.38190 0.29660 0.06300
C 	C 	0.51558 0.11634 0.28370 -0.08300
H 	H 	0.49750 0.09440 0.27430 0.05200
C 	C 	0.41555 0.25624 0.35560 -0.09800
H 	H 	0.39390 0.27230 0.36700 0.05500
C 	C 	0.36200 0.36643 0.19230 0.07900
H 	H 	0.33570 0.36600 0.12390 -0.00600
C 	C 	0.51514 0.35938 0.29700 -0.08200
H 	H 	0.49630 0.38090 0.28330 0.06300
C 	C 	0.67187 0.25779 0.36190 -0.08100
H 	H 	0.69630 0.27400 0.37600 0.05700
C 	C 	0.65826 0.36800 0.41510 -0.17400
H 	H 	0.64880 0.36780 0.48440 0.09400
C 	C 	0.43763 0.36673 0.39230 -0.16300
H 	H 	0.46330 0.36680 0.46270 0.08700
C 	C 	0.38887 0.09876 0.38940 0.10200
H 	H 	0.38200 0.09110 0.45970 0.00500
C 	C 	0.67001 0.10153 0.16330 0.10100
H 	H 	0.66830 0.09500 0.08170 -0.03100
C 	C 	0.39159 0.33672 0.20850 -0.16700
H 	H 	0.38520 0.31590 0.15170 0.08100
C 	C 	0.64222 0.12898 0.18120 -0.19700
H 	H 	0.62170 0.14090 0.11150 0.08400
C 	C 	0.67150 0.21903 0.35560 -0.08200
H 	H 	0.69560 0.20280 0.36390 0.05700
O 	O 	0.50373 0.24210 0.10300 -0.29700
C 	C 	0.42041 0.12670 0.40160 -0.19600
H 	H 	0.43420 0.13840 0.47980 0.09800
C 	C 	0.38016 0.09192 0.17820 0.09100
H 	H 	0.36720 0.07950 0.10080 -0.02900
C 	C 	0.41160 0.11997 0.19180 -0.19200
H 	H 	0.41930 0.12710 0.12230 0.08100
Na	Na	0.75183 0.42220 0.01239 0.57800
O 	O 	0.52260 0.24170 0.10220 -0.26000
Zn	Zn	0.03604 0.26158 0.29359 1.19700
O 	O 	0.26048 0.45865 0.33098 -0.44700
O 	O 	0.22326 0.45777 0.13141 -0.48800
O 	O 	0.82404 0.45816 0.35343 -0.37800
O 	O 	0.23442 0.04144 0.35885 -0.45600
O 	O 	0.80690 0.06861 0.16088 -0.43100
O 	O 	0.23639 0.06834 0.18803 -0.43800
O 	O 	0.81218 0.45887 0.15318 -0.48000
O 	O 	0.85093 0.04165 0.32978 -0.37400
N 	N 	0.03960 0.20302 0.32840 -0.26700
N 	N 	0.10204 0.26166 0.32920 -0.27100
N 	N 	0.97822 0.26247 0.32610 -0.27100
N 	N 	0.03854 0.32067 0.30890 -0.27300
C 	C 	0.22966 0.44588 0.24050 0.37100
C 	C 	0.19998 0.41630 0.26220 -0.19500
C 	C 	0.83282 0.44664 0.26140 0.35500
C 	C 	0.22488 0.06885 0.28190 0.39000
C 	C 	0.84061 0.06945 0.25440 0.36100
C 	C 	0.86795 0.41768 0.27770 -0.17800
C 	C 	0.19884 0.10183 0.30110 -0.17000
C 	C 	0.00441 0.17993 0.31460 0.09800
C 	C 	0.87059 0.10319 0.27570 -0.14800
C 	C 	0.11296 0.33127 0.31280 -0.15300
C 	C 	0.07222 0.17942 0.32350 0.10100
C 	C 	0.96557 0.33233 0.31510 -0.14800
C 	C 	0.12750 0.29313 0.33380 0.10200
C 	C 	0.95505 0.29436 0.33440 0.09600
C 	C 	0.11399 0.19148 0.33390 -0.14500
C 	C 	0.93179 0.36239 0.30350 0.14700
C 	C 	0.14389 0.36080 0.29780 0.14700
C 	C 	0.20301 0.40545 0.37930 0.10500
H 	H 	0.22430 0.41670 0.44880 0.00200
C 	C 	0.07111 0.34376 0.29920 0.09600
C 	C 	0.00436 0.34431 0.30120 0.09500
C 	C 	0.90796 0.10369 0.37680 0.07600
H 	H 	0.91350 0.08370 0.43630 0.01900
C 	C 	0.96451 0.19263 0.31960 -0.14000
C 	C 	0.93063 0.16288 0.30710 0.12700
C 	C 	0.18719 0.13139 0.21560 0.09500
H 	H 	0.19720 0.13140 0.14750 -0.01200
C 	C 	0.12798 0.23004 0.34290 0.10000
C 	C 	0.05667 0.38321 0.28330 -0.08000
H 	H 	0.07300 0.40480 0.27420 0.05400
C 	C 	0.18484 0.10249 0.40240 0.09100
H 	H 	0.19350 0.08270 0.46290 0.00600
C 	C 	0.17489 0.37791 0.39620 -0.18800
H 	H 	0.17720 0.37070 0.47790 0.09600
C 	C 	0.95410 0.23121 0.33380 0.09700
C 	C 	0.91594 0.28248 0.35670 -0.09600
H 	H 	0.89480 0.29890 0.36960 0.05300
C 	C 	0.14527 0.16125 0.32750 0.13500
C 	C 	0.16082 0.16103 0.22910 -0.17700
H 	H 	0.15330 0.18140 0.17050 0.08400
C 	C 	0.05669 0.14004 0.30360 -0.07400
H 	H 	0.07280 0.11810 0.29660 0.05900
C 	C 	0.01558 0.38366 0.28370 -0.09200
H 	H 	0.99750 0.40560 0.27430 0.06100
C 	C 	0.91555 0.24376 0.35560 -0.09700
H 	H 	0.89390 0.22770 0.36700 0.05500
C 	C 	0.86200 0.13357 0.19230 0.07900
H 	H 	0.83570 0.13400 0.12390 -0.00600
C 	C 	0.01514 0.14062 0.29700 -0.09100
H 	H 	0.99630 0.11910 0.28330 0.06700
C 	C 	0.17187 0.24221 0.36190 -0.08100
H 	H 	0.19630 0.22600 0.37600 0.05700
C 	C 	0.15826 0.13200 0.41510 -0.17500
H 	H 	0.14880 0.13220 0.48440 0.09400
C 	C 	0.93763 0.13327 0.39230 -0.16400
H 	H 	0.96330 0.13320 0.46270 0.08800
C 	C 	0.88887 0.40124 0.38940 0.10000
H 	H 	0.88200 0.40890 0.45970 0.00700
C 	C 	0.17001 0.39847 0.16330 0.10000
H 	H 	0.16830 0.40500 0.08170 -0.03000
C 	C 	0.89159 0.16328 0.20850 -0.16700
H 	H 	0.88520 0.18410 0.15170 0.08200
C 	C 	0.14222 0.37102 0.18120 -0.19600
H 	H 	0.12170 0.35910 0.11150 0.08400
C 	C 	0.17150 0.28097 0.35560 -0.08200
H 	H 	0.19560 0.29720 0.36390 0.05700
O 	O 	0.00373 0.25790 0.10300 -0.29900
C 	C 	0.92041 0.37330 0.40160 -0.19200
H 	H 	0.93420 0.36160 0.47980 0.09700
C 	C 	0.88016 0.40808 0.17820 0.09000
H 	H 	0.86720 0.42050 0.10080 -0.02700
C 	C 	0.91160 0.38003 0.19180 -0.18900
H 	H 	0.91930 0.37290 0.12230 0.08100
Na	Na	0.25183 0.07780 0.01239 0.57800
O 	O 	0.02260 0.25830 0.10220 -0.25700
Zn	Zn	0.53604 0.76158 0.29359 1.19800
O 	O 	0.76048 0.95865 0.33098 -0.43000
O 	O 	0.72326 0.95777 0.13141 -0.47100
O 	O 	0.32404 0.95816 0.35343 -0.36200
O 	O 	0.73442 0.54144 0.35885 -0.45400
O 	O 	0.30690 0.56861 0.16088 -0.43400
O 	O 	0.73639 0.56834 0.18803 -0.44100
O 	O 	0.31218 0.95887 0.15318 -0.46300
O 	O 	0.35093 0.54165 0.32978 -0.37100
N 	N 	0.53960 0.70302 0.32840 -0.26700
N 	N 	0.60204 0.76166 0.32920 -0.27100
N 	N 	0.47822 0.76247 0.32610 -0.27200
N 	N 	0.53854 0.82067 0.30890 -0.27300
C 	C 	0.72966 0.94588 0.24050 0.36800
C 	C 	0.69998 0.91630 0.26220 -0.19000
C 	C 	0.33282 0.94664 0.26140 0.35200
C 	C 	0.72488 0.56885 0.28190 0.38900
C 	C 	0.34061 0.56945 0.25440 0.36000
C 	C 	0.36795 0.91768 0.27770 -0.17300
C 	C 	0.69884 0.60183 0.30110 -0.16900
C 	C 	0.50441 0.67993 0.31460 0.10100
C 	C 	0.37059 0.60319 0.27570 -0.14600
C 	C 	0.61296 0.83127 0.31280 -0.15300
C 	C 	0.57222 0.67942 0.32350 0.10300
C 	C 	0.46557 0.83233 0.31510 -0.15200
C 	C 	0.62750 0.79313 0.33380 0.10200
C 	C 	0.45505 0.79436 0.33440 0.09600
C 	C 	0.61399 0.69148 0.33390 -0.14600
C 	C 	0.43179 0.86239 0.30350 0.14600
C 	C 	0.64389 0.86080 0.29780 0.14600
C 	C 	0.70301 0.90545 0.37930 0.10400
H 	H 	0.72430 0.91670 0.44880 0.00400
C 	C 	0.57111 0.84376 0.29920 0.09800
C 	C 	0.50436 0.84431 0.30120 0.09800
C 	C 	0.40796 0.60369 0.37680 0.07500
H 	H 	0.41350 0.58370 0.43630 0.02200
C 	C 	0.46451 0.69263 0.31960 -0.14400
C 	C 	0.43063 0.66288 0.30710 0.12700
C 	C 	0.68719 0.63139 0.21560 0.09400
H 	H 	0.69720 0.63140 0.14750 -0.01100
C 	C 	0.62798 0.73004 0.34290 0.10000
C 	C 	0.55667 0.88321 0.28330 -0.08400
H 	H 	0.57300 0.90480 0.27420 0.05900
C 	C 	0.68484 0.60249 0.40240 0.09100
H 	H 	0.69350 0.58270 0.46290 0.00800
C 	C 	0.67489 0.87791 0.39620 -0.18600
H 	H 	0.67720 0.87070 0.47790 0.09600
C 	C 	0.45410 0.73121 0.33380 0.09700
C 	C 	0.41594 0.78248 0.35670 -0.09600
H 	H 	0.39480 0.79890 0.36960 0.05300
C 	C 	0.64527 0.66125 0.32750 0.13500
C 	C 	0.66082 0.66103 0.22910 -0.17700
H 	H 	0.65330 0.68140 0.17050 0.08400
C 	C 	0.55669 0.64004 0.30360 -0.07800
H 	H 	0.57280 0.61810 0.29660 0.06300
C 	C 	0.51558 0.88366 0.28370 -0.08200
H 	H 	0.49750 0.90560 0.27430 0.05900
C 	C 	0.41555 0.74376 0.35560 -0.09800
H 	H 	0.39390 0.72770 0.36700 0.05500
C 	C 	0.36200 0.63357 0.19230 0.07900
H 	H 	0.33570 0.63400 0.12390 -0.00600
C 	C 	0.51514 0.64062 0.29700 -0.08200
H 	H 	0.49630 0.61910 0.28330 0.06300
C 	C 	0.67187 0.74221 0.36190 -0.08100
H 	H 	0.69630 0.72600 0.37600 0.05700
C 	C 	0.65826 0.63200 0.41510 -0.17400
H 	H 	0.64880 0.63220 0.48440 0.09300
C 	C 	0.43763 0.63327 0.39230 -0.16400
H 	H 	0.46330 0.63320 0.46270 0.08700
C 	C 	0.38887 0.90124 0.38940 0.09900
H 	H 	0.38200 0.90890 0.45970 0.01000
C 	C 	0.67001 0.89847 0.16330 0.09900
H 	H 	0.66830 0.90500 0.08170 -0.02800
C 	C 	0.39159 0.66328 0.20850 -0.16700
H 	H 	0.38520 0.68410 0.15170 0.08100
C 	C 	0.64222 0.87102 0.18120 -0.19300
H 	H 	0.62170 0.85910 0.11150 0.08400
C 	C 	0.67150 0.78097 0.35560 -0.08200
H 	H 	0.69560 0.79720 0.36390 0.05700
O 	O 	0.50373 0.75790 0.10300 -0.29700
C 	C 	0.42041 0.87330 0.40160 -0.19000
H 	H 	0.43420 0.86160 0.47980 0.09700
C 	C 	0.38016 0.90808 0.17820 0.08800
H 	H 	0.36720 0.92050 0.10080 -0.02300
C 	C 	0.41160 0.88003 0.19180 -0.18600
H 	H 	0.41930 0.87290 0.12230 0.08100
Na	Na	0.75183 0.57780 0.01239 0.57800
O 	O 	0.52260 0.75830 0.10220 -0.26000
Zn	Zn	0.96396 0.26158 0.70641 1.19900
O 	O 	0.73952 0.45865 0.66902 -0.44700
O 	O 	0.77674 0.45777 0.86859 -0.47200
O 	O 	0.17596 0.45816 0.64657 -0.37900
O 	O 	0.76558 0.04144 0.64115 -0.45600
O 	O 	0.19310 0.06861 0.83912 -0.41900
O 	O 	0.76361 0.06834 0.81197 -0.43000
O 	O 	0.18782 0.45887 0.84682 -0.47000
O 	O 	0.14907 0.04165 0.67022 -0.37600
N 	N 	0.96040 0.20302 0.67160 -0.26600
N 	N 	0.89796 0.26166 0.67080 -0.27000
N 	N 	0.02178 0.26247 0.67390 -0.27300
N 	N 	0.96146 0.32067 0.69110 -0.27200
C 	C 	0.77034 0.44588 0.75950 0.36800
C 	C 	0.80002 0.41630 0.73780 -0.18800
C 	C 	0.16718 0.44664 0.73860 0.35400
C 	C 	0.77512 0.06885 0.71810 0.39000
C 	C 	0.15939 0.06945 0.74560 0.35900
C 	C 	0.13205 0.41768 0.72230 -0.17500
C 	C 	0.80116 0.10183 0.69890 -0.16600
C 	C 	0.99559 0.17993 0.68540 0.10600
C 	C 	0.12941 0.10319 0.72430 -0.14300
C 	C 	0.88704 0.33127 0.68720 -0.15200
C 	C 	0.92778 0.17942 0.67650 0.10700
C 	C 	0.03443 0.33233 0.68490 -0.15600
C 	C 	0.87250 0.29313 0.66620 0.10400
C 	C 	0.04495 0.29436 0.66560 0.09900
C 	C 	0.88601 0.19148 0.66610 -0.14500
C 	C 	0.06821 0.36239 0.69650 0.15000
C 	C 	0.85611 0.36080 0.70220 0.14700
C 	C 	0.79699 0.40545 0.62070 0.10200
H 	H 	0.77570 0.41670 0.55120 0.00400
C 	C 	0.92889 0.34376 0.70080 0.10200
C 	C 	0.99564 0.34431 0.69880 0.10300
C 	C 	0.09204 0.10369 0.62320 0.07600
H 	H 	0.08650 0.08370 0.56370 0.01800
C 	C 	0.03549 0.19263 0.68040 -0.14700
C 	C 	0.06937 0.16288 0.69290 0.13000
C 	C 	0.81281 0.13139 0.78440 0.09600
H 	H 	0.80280 0.13140 0.85250 -0.00200
C 	C 	0.87202 0.23004 0.65710 0.10200
C 	C 	0.94333 0.38321 0.71670 -0.08600
H 	H 	0.92700 0.40480 0.72580 0.06200
C 	C 	0.81516 0.10249 0.59760 0.09000
H 	H 	0.80650 0.08270 0.53710 0.00700
C 	C 	0.82511 0.37791 0.60380 -0.18600
H 	H 	0.82280 0.37070 0.52210 0.09400
C 	C 	0.04590 0.23121 0.66620 0.10000
C 	C 	0.08406 0.28248 0.64330 -0.09500
H 	H 	0.10520 0.29890 0.63040 0.05500
C 	C 	0.85473 0.16125 0.67250 0.13600
C 	C 	0.83918 0.16103 0.77090 -0.17400
H 	H 	0.84670 0.18140 0.82950 0.09200
C 	C 	0.94331 0.14004 0.69640 -0.08000
H 	H 	0.92720 0.11810 0.70340 0.06700
C 	C 	0.98442 0.38366 0.71630 -0.07100
H 	H 	0.00250 0.40560 0.72570 0.05200
C 	C 	0.08445 0.24376 0.64440 -0.09700
H 	H 	0.10610 0.22770 0.63300 0.05700
C 	C 	0.13800 0.13357 0.80770 0.08100
H 	H 	0.16430 0.13400 0.87610 0.00400
C 	C 	0.98486 0.14062 0.70300 -0.07100
H 	H 	0.00370 0.11910 0.71670 0.05900
C 	C 	0.82813 0.24221 0.63810 -0.08000
H 	H 	0.80370 0.22600 0.62400 0.05800
C 	C 	0.84174 0.13200 0.58490 -0.17400
H 	H 	0.85120 0.13220 0.51560 0.09300
C 	C 	0.06237 0.13327 0.60770 -0.16500
H 	H 	0.03670 0.13320 0.53730 0.08600
C 	C 	0.11113 0.40124 0.61060 0.10100
H 	H 	0.11800 0.40890 0.54030 0.00700
C 	C 	0.82999 0.39847 0.83670 0.09900
H 	H 	0.83170 0.40500 0.91830 -0.01400
C 	C 	0.10841 0.16328 0.79150 -0.16500
H 	H 	0.11480 0.18410 0.84830 0.09000
C 	C 	0.85778 0.37102 0.81880 -0.19000
H 	H 	0.87830 0.35910 0.88850 0.09400
C 	C 	0.82850 0.28097 0.64440 -0.08100
H 	H 	0.80440 0.29720 0.63610 0.05900
O 	O 	0.99627 0.25790 0.89700 -0.28000
C 	C 	0.07959 0.37330 0.59840 -0.19400
H 	H 	0.06580 0.36160 0.52020 0.09800
C 	C 	0.11984 0.40808 0.82180 0.09100
H 	H 	0.13280 0.42050 0.89920 -0.01400
C 	C 	0.08840 0.38003 0.80820 -0.18700
H 	H 	0.08070 0.37290 0.87770 0.09100
Na	Na	0.74817 0.07780 0.98761 0.58400
O 	O 	0.97740 0.25830 0.89780 -0.24900
Zn	Zn	0.46396 0.76158 0.70641 1.19800
O 	O 	0.23952 0.95865 0.66902 -0.43100
O 	O 	0.27674 0.95777 0.86859 -0.45500
O 	O 	0.67596 0.95816 0.64657 -0.36200
O 	O 	0.26558 0.54144 0.64115 -0.45300
O 	O 	0.69310 0.56861 0.83912 -0.42200
O 	O 	0.26361 0.56834 0.81197 -0.43400
O 	O 	0.68782 0.95887 0.84682 -0.45300
O 	O 	0.64907 0.54165 0.67022 -0.37200
N 	N 	0.46040 0.70302 0.67160 -0.26600
N 	N 	0.39796 0.76166 0.67080 -0.27000
N 	N 	0.52178 0.76247 0.67390 -0.27100
N 	N 	0.46146 0.82067 0.69110 -0.27200
C 	C 	0.27034 0.94588 0.75950 0.36500
C 	C 	0.30002 0.91630 0.73780 -0.18200
C 	C 	0.66718 0.94664 0.73860 0.35100
C 	C 	0.27512 0.56885 0.71810 0.38900
C 	C 	0.65939 0.56945 0.74560 0.35800
C 	C 	0.63205 0.91768 0.72230 -0.16800
C 	C 	0.30116 0.60183 0.69890 -0.16400
C 	C 	0.49559 0.67993 0.68540 0.10300
C 	C 	0.62941 0.60319 0.72430 -0.14100
C 	C 	0.38704 0.83127 0.68720 -0.15100
C 	C 	0.42778 0.67942 0.67650 0.10500
C 	C 	0.53443 0.83233 0.68490 -0.15000
C 	C 	0.37250 0.79313 0.66620 0.10400
C 	C 	0.54495 0.79436 0.66560 0.09800
C 	C 	0.38601 0.69148 0.66610 -0.14400
C 	C 	0.56821 0.86239 0.69650 0.14700
C 	C 	0.35611 0.86080 0.70220 0.14600
C 	C 	0.29699 0.90545 0.62070 0.10000
H 	H 	0.27570 0.91670 0.55120 0.00600
C 	C 	0.42889 0.84376 0.70080 0.10000
C 	C 	0.49564 0.84431 0.69880 0.10000
C 	C 	0.59204 0.60369 0.62320 0.07500
H 	H 	0.58650 0.58370 0.56370 0.02200
C 	C 	0.53549 0.69263 0.68040 -0.14200
C 	C 	0.56937 0.66288 0.69290 0.12800
C 	C 	0.31281 0.63139 0.78440 0.09500
H 	H 	0.30280 0.63140 0.85250 -0.00100
C 	C 	0.37202 0.73004 0.65710 0.10100
C 	C 	0.44333 0.88321 0.71670 -0.08100
H 	H 	0.42700 0.90480 0.72580 0.06300
C 	C 	0.31516 0.60249 0.59760 0.09000
H 	H 	0.30650 0.58270 0.53710 0.00900
C 	C 	0.32511 0.87791 0.60380 -0.18300
H 	H 	0.32280 0.87070 0.52210 0.09400
C 	C 	0.54590 0.73121 0.66620 0.09900
C 	C 	0.58406 0.78248 0.64330 -0.09400
H 	H 	0.60520 0.79890 0.63040 0.05500
C 	C 	0.35473 0.66125 0.67250 0.13500
C 	C 	0.33918 0.66103 0.77090 -0.17300
H 	H 	0.34670 0.68140 0.82950 0.09200
C 	C 	0.44331 0.64004 0.69640 -0.07600
H 	H 	0.42720 0.61810 0.70340 0.06600
C 	C 	0.48442 0.88366 0.71630 -0.07900
H 	H 	0.50250 0.90560 0.72570 0.06200
C 	C 	0.58445 0.74376 0.64440 -0.09600
H 	H 	0.60610 0.72770 0.63300 0.05700
C 	C 	0.63800 0.63357 0.80770 0.07900
H 	H 	0.66430 0.63400 0.87610 0.00500
C 	C 	0.48486 0.64062 0.70300 -0.07900
H 	H 	0.50370 0.61910 0.71670 0.06700
C 	C 	0.32813 0.74221 0.63810 -0.08000
H 	H 	0.30370 0.72600 0.62400 0.05700
C 	C 	0.34174 0.63200 0.58490 -0.17200
H 	H 	0.35120 0.63220 0.51560 0.09300
C 	C 	0.56237 0.63327 0.60770 -0.16200
H 	H 	0.53670 0.63320 0.53730 0.08700
C 	C 	0.61113 0.90124 0.61060 0.09800
H 	H 	0.61800 0.90890 0.54030 0.01000
C 	C 	0.32999 0.89847 0.83670 0.09700
H 	H 	0.33170 0.90500 0.91830 -0.01300
C 	C 	0.60841 0.66328 0.79150 -0.16300
H 	H 	0.61480 0.68410 0.84830 0.08900
C 	C 	0.35778 0.87102 0.81880 -0.18700
H 	H 	0.37830 0.85910 0.88850 0.09400
C 	C 	0.32850 0.78097 0.64440 -0.08100
H 	H 	0.30440 0.79720 0.63610 0.05800
O 	O 	0.49627 0.75790 0.89700 -0.28600
C 	C 	0.57959 0.87330 0.59840 -0.18900
H 	H 	0.56580 0.86160 0.52020 0.09700
C 	C 	0.61984 0.90808 0.82180 0.08900
H 	H 	0.63280 0.92050 0.89920 -0.01000
C 	C 	0.58840 0.88003 0.80820 -0.18300
H 	H 	0.58070 0.87290 0.87770 0.09100
Na	Na	0.24817 0.57780 0.98761 0.58400
O 	O 	0.47740 0.75830 0.89780 -0.24900
Gd	Gd	0.20768 0.00000 0.79316 1.51200
Gd	Gd	0.26305 0.00000 0.23244 1.50300
O 	O 	0.22880 0.00000 0.01220 -0.47000
O 	O 	0.18470 0.00000 0.12040 -0.25100
O 	O 	0.15816 0.00000 0.91190 -0.22300
N 	N 	0.18855 0.00000 0.01550 0.04500
Na	Na	0.76576 -0.00000 0.49117 0.58100
Gd	Gd	0.70768 0.50000 0.79316 1.56500
Gd	Gd	0.76305 0.50000 0.23244 1.55600
O 	O 	0.72880 0.50000 0.01220 -0.46800
O 	O 	0.68470 0.50000 0.12040 -0.24300
O 	O 	0.65816 0.50000 0.91190 -0.21500
N 	N 	0.68855 0.50000 0.01550 0.04500
Na	Na	0.26576 0.50000 0.49117 0.58500
Gd	Gd	0.79232 0.00000 0.20684 1.48700
Gd	Gd	0.73695 0.00000 0.76756 1.50500
O 	O 	0.77120 0.00000 0.98780 -0.44700
O 	O 	0.81530 -0.00000 0.87960 -0.24300
O 	O 	0.84184 0.00000 0.08810 -0.25300
N 	N 	0.81145 0.00000 0.98450 0.06800
Na	Na	0.23424 0.00000 0.50883 0.58100
Gd	Gd	0.29232 0.50000 0.20684 1.54000
Gd	Gd	0.23695 0.50000 0.76756 1.55900
O 	O 	0.27120 0.50000 0.98780 -0.44500
O 	O 	0.31530 0.50000 0.87960 -0.23600
O 	O 	0.34184 0.50000 0.08810 -0.24600
N 	N 	0.31145 0.50000 0.98450 0.06800
Na	Na	0.73424 0.50000 0.50883 0.58500
C 	C 	0.00000 0.73714 -0.00000 0.49800
C 	C 	0.50000 0.23714 -0.00000 0.50600
C 	C 	0.00000 0.26286 -0.00000 0.49800
C 	C 	0.50000 0.76286 -0.00000 0.50600
Na	Na	0.82442 0.50000 0.00719 0.57500
Na	Na	0.32442 0.00000 0.00719 0.57000
Na	Na	0.17558 0.50000 0.99281 0.58100
Na	Na	0.67558 0.00000 0.99281 0.57700
