data_crystal

_cell_length_a 16.71900
_cell_length_b 16.71900
_cell_length_c 24.59800
_cell_angle_alpha 90.00000
_cell_angle_beta  90.00000
_cell_angle_gamma 120.00000

_symmetry_space_group_name_	'P 1'
_symmetry_space_group_name_H-M	'P 1'

loop_
_symmetry_equiv_pos_as_xyz
  x,y,z

loop_
_atom_site_label
_atom_site_type_symbol
_atom_site_fract_x
_atom_site_fract_y
_atom_site_fract_z
_atom_site_charge
Ni	Ni	0.40810 0.68558 0.75050 1.06900
Ni	Ni	0.49459 0.25632 0.46877 1.04300
C 	C 	0.04620 0.82920 0.55990 -0.73600
H 	H 	0.10070 0.83310 0.54450 0.25200
H 	H 	0.05170 0.83310 0.59880 0.24300
H 	H 	0.03890 0.87910 0.54650 0.23600
C 	C 	0.96210 0.73740 0.54400 0.27400
H 	H 	0.97060 0.68840 0.55980 -0.02200
C 	C 	0.87260 0.72590 0.56710 -0.18900
C 	C 	0.78770 0.64160 0.55830 0.23600
C 	C 	0.70520 0.62610 0.57930 -0.29600
H 	H 	0.65140 0.56990 0.57360 0.13400
C 	C 	0.70310 0.69610 0.60950 0.24100
C 	C 	0.78320 0.78170 0.61690 -0.20000
C 	C 	0.86510 0.79170 0.59600 0.11000
H 	H 	0.91900 0.84750 0.60220 -0.03000
C 	C 	0.73060 0.53040 0.48740 -0.21300
H 	H 	0.76300 0.53480 0.45380 0.11500
H 	H 	0.69600 0.56220 0.48200 0.10500
C 	C 	0.66400 0.42990 0.49970 0.41100
C 	C 	0.54450 0.59660 0.63260 -0.16800
H 	H 	0.56110 0.55180 0.64520 0.08100
H 	H 	0.52160 0.58050 0.59570 0.08800
C 	C 	0.46870 0.59270 0.66890 0.35800
C 	C 	0.77870 0.86020 0.64550 0.29300
H 	H 	0.73410 0.83210 0.67520 -0.03700
C 	C 	0.86900 0.93060 0.67140 -0.75500
H 	H 	0.86130 0.97780 0.68860 0.25300
H 	H 	0.91580 0.95790 0.64390 0.23800
H 	H 	0.88710 0.90070 0.69800 0.23800
C 	C 	0.74160 0.90740 0.60830 -0.19600
C 	C 	0.69810 0.95030 0.62970 0.23500
C 	C 	0.66740 0.99830 0.59770 -0.29900
H 	H 	0.63880 0.02770 0.61380 0.14900
C 	C 	0.67940 0.00240 0.54190 0.23300
C 	C 	0.72400 0.95690 0.51790 -0.17200
C 	C 	0.75300 0.91180 0.55190 0.10200
H 	H 	0.78220 0.88230 0.53660 -0.00100
C 	C 	0.59840 0.88200 0.70230 -0.20500
H 	H 	0.58370 0.82440 0.68460 0.09900
H 	H 	0.55260 0.89830 0.69150 0.08400
C 	C 	0.59650 0.87010 0.76440 0.40100
C 	C 	0.60900 0.09340 0.53040 -0.21200
H 	H 	0.64920 0.13450 0.55860 0.07800
H 	H 	0.55110 0.04920 0.54740 0.09900
C 	C 	0.59130 0.14830 0.48900 0.40600
O 	O 	0.79600 0.57500 0.52940 -0.17600
O 	O 	0.67390 0.39960 0.54410 -0.45500
O 	O 	0.60410 0.38710 0.46300 -0.45900
O 	O 	0.62440 0.68640 0.63300 -0.19900
O 	O 	0.38940 0.52590 0.66210 -0.33800
O 	O 	0.49070 0.65440 0.70510 -0.42600
O 	O 	0.68600 0.95130 0.68646 -0.19000
O 	O 	0.65620 0.92860 0.79190 -0.31600
O 	O 	0.52430 0.80070 0.78392 -0.55200
O 	O 	0.65040 0.04580 0.50690 -0.18500
O 	O 	0.59590 0.13540 0.44030 -0.31300
O 	O 	0.56980 0.20460 0.50804 -0.55700
Ni	Ni	0.31442 0.72252 0.08383 1.06800
Ni	Ni	0.74368 0.23827 0.80210 1.04200
C 	C 	0.17080 0.21700 0.89323 -0.73700
H 	H 	0.16690 0.26760 0.87783 0.25100
H 	H 	0.16690 0.21860 0.93213 0.24200
H 	H 	0.12090 0.15980 0.87983 0.23500
C 	C 	0.26260 0.22470 0.87733 0.27300
H 	H 	0.31160 0.28220 0.89313 -0.02300
C 	C 	0.27410 0.14670 0.90043 -0.18800
C 	C 	0.35840 0.14610 0.89163 0.23600
C 	C 	0.37390 0.07910 0.91263 -0.29500
H 	H 	0.43010 0.08150 0.90693 0.13400
C 	C 	0.30390 0.00700 0.94283 0.24000
C 	C 	0.21830 0.00150 0.95023 -0.19800
C 	C 	0.20830 0.07340 0.92933 0.10900
H 	H 	0.15250 0.07150 0.93553 -0.02900
C 	C 	0.46960 0.20020 0.82073 -0.21300
H 	H 	0.46520 0.22820 0.78713 0.11500
H 	H 	0.43780 0.13380 0.81533 0.10500
C 	C 	0.57010 0.23410 0.83303 0.41100
C 	C 	0.40340 0.94790 0.96593 -0.16900
H 	H 	0.44820 0.00930 0.97853 0.08200
H 	H 	0.41950 0.94110 0.92903 0.08800
C 	C 	0.40730 0.87600 0.00223 0.35900
C 	C 	0.13980 0.91850 0.97883 0.28800
H 	H 	0.16790 0.90200 0.00853 -0.03500
C 	C 	0.06940 0.93840 0.00473 -0.74800
H 	H 	0.02220 0.88350 0.02193 0.25000
H 	H 	0.04210 0.95790 0.97723 0.23500
H 	H 	0.09930 0.98640 0.03133 0.23600
C 	C 	0.09260 0.83420 0.94163 -0.19500
C 	C 	0.04970 0.74780 0.96303 0.23400
C 	C 	0.00170 0.66910 0.93103 -0.30000
H 	H 	0.97230 0.61110 0.94713 0.14900
C 	C 	0.99760 0.67700 0.87523 0.23400
C 	C 	0.04310 0.76710 0.85123 -0.17200
C 	C 	0.08820 0.84120 0.88523 0.10100
H 	H 	0.11770 0.89990 0.86993 -0.00000
C 	C 	0.11800 0.71640 0.03563 -0.20500
H 	H 	0.17560 0.75930 0.01793 0.09900
H 	H 	0.10170 0.65430 0.02483 0.08400
C 	C 	0.12990 0.72640 0.09773 0.40100
C 	C 	0.90660 0.51560 0.86373 -0.21200
H 	H 	0.86550 0.51470 0.89193 0.07800
H 	H 	0.95080 0.50190 0.88073 0.09900
C 	C 	0.85170 0.44300 0.82233 0.40600
O 	O 	0.42500 0.22100 0.86273 -0.17600
O 	O 	0.60040 0.27430 0.87743 -0.45500
O 	O 	0.61290 0.21700 0.79633 -0.45900
O 	O 	0.31360 0.93800 0.96633 -0.19900
O 	O 	0.47410 0.86350 0.99543 -0.33900
O 	O 	0.34560 0.83630 0.03843 -0.42600
O 	O 	0.04870 0.73470 0.01979 -0.18900
O 	O 	0.07140 0.72760 0.12523 -0.31600
O 	O 	0.19930 0.72360 0.11725 -0.55200
O 	O 	0.95420 0.60460 0.84023 -0.18500
O 	O 	0.86460 0.46050 0.77363 -0.31300
O 	O 	0.79540 0.36520 0.84137 -0.55700
Ni	Ni	0.27748 0.59190 0.41717 1.06800
Ni	Ni	0.76173 0.50541 0.13544 1.04200
C 	C 	0.78300 0.95380 0.22657 -0.73700
H 	H 	0.73240 0.89930 0.21117 0.25100
H 	H 	0.78140 0.94830 0.26547 0.24200
H 	H 	0.84020 0.96110 0.21317 0.23500
C 	C 	0.77530 0.03790 0.21067 0.27300
H 	H 	0.71780 0.02940 0.22647 -0.02300
C 	C 	0.85330 0.12740 0.23377 -0.18900
C 	C 	0.85390 0.21230 0.22497 0.23600
C 	C 	0.92090 0.29480 0.24597 -0.29600
H 	H 	0.91850 0.34860 0.24027 0.13400
C 	C 	0.99300 0.29690 0.27617 0.24000
C 	C 	0.99850 0.21680 0.28357 -0.20000
C 	C 	0.92660 0.13490 0.26267 0.11000
H 	H 	0.92850 0.08100 0.26887 -0.03000
C 	C 	0.79980 0.26940 0.15407 -0.21300
H 	H 	0.77180 0.23700 0.12047 0.11500
H 	H 	0.86620 0.30400 0.14867 0.10500
C 	C 	0.76590 0.33600 0.16637 0.41100
C 	C 	0.05210 0.45550 0.29927 -0.16800
H 	H 	0.99070 0.43890 0.31187 0.08100
H 	H 	0.05890 0.47840 0.26237 0.08800
C 	C 	0.12400 0.53130 0.33557 0.35800
C 	C 	0.08150 0.22130 0.31217 0.29300
H 	H 	0.09800 0.26590 0.34187 -0.03700
C 	C 	0.06160 0.13100 0.33807 -0.75500
H 	H 	0.11650 0.13870 0.35527 0.25300
H 	H 	0.04210 0.08420 0.31057 0.23800
H 	H 	0.01360 0.11290 0.36467 0.23800
C 	C 	0.16580 0.25840 0.27497 -0.19600
C 	C 	0.25220 0.30190 0.29637 0.23500
C 	C 	0.33090 0.33260 0.26437 -0.29900
H 	H 	0.38890 0.36120 0.28047 0.14900
C 	C 	0.32300 0.32060 0.20857 0.23300
C 	C 	0.23290 0.27600 0.18457 -0.17200
C 	C 	0.15880 0.24700 0.21857 0.10200
H 	H 	0.10010 0.21780 0.20327 -0.00100
C 	C 	0.28360 0.40160 0.36897 -0.20500
H 	H 	0.24070 0.41630 0.35127 0.09900
H 	H 	0.34570 0.44740 0.35817 0.08400
C 	C 	0.27360 0.40350 0.43107 0.40100
C 	C 	0.48440 0.39100 0.19707 -0.21200
H 	H 	0.48530 0.35080 0.22527 0.07800
H 	H 	0.49810 0.44890 0.21407 0.09900
C 	C 	0.55700 0.40870 0.15567 0.40600
O 	O 	0.77900 0.20400 0.19607 -0.17600
O 	O 	0.72570 0.32610 0.21077 -0.45500
O 	O 	0.78300 0.39590 0.12967 -0.45900
O 	O 	0.06200 0.37560 0.29967 -0.19900
O 	O 	0.13650 0.61060 0.32877 -0.33800
O 	O 	0.16370 0.50930 0.37177 -0.42600
O 	O 	0.26530 0.31400 0.35313 -0.19000
O 	O 	0.27240 0.34380 0.45857 -0.31600
O 	O 	0.27640 0.47570 0.45059 -0.55200
O 	O 	0.39540 0.34960 0.17357 -0.18500
O 	O 	0.53950 0.40410 0.10697 -0.31300
O 	O 	0.63480 0.43020 0.17471 -0.55700
Ni	Ni	0.68558 0.40810 0.24950 1.06800
Ni	Ni	0.25632 0.49459 0.53123 1.04200
C 	C 	0.82920 0.04620 0.44010 -0.73700
H 	H 	0.83310 0.10070 0.45550 0.25100
H 	H 	0.83310 0.05170 0.40120 0.24200
H 	H 	0.87910 0.03890 0.45350 0.23500
C 	C 	0.73740 0.96210 0.45600 0.27300
H 	H 	0.68840 0.97060 0.44020 -0.02300
C 	C 	0.72590 0.87260 0.43290 -0.18900
C 	C 	0.64160 0.78770 0.44170 0.23600
C 	C 	0.62610 0.70520 0.42070 -0.29600
H 	H 	0.56990 0.65140 0.42640 0.13400
C 	C 	0.69610 0.70310 0.39050 0.24100
C 	C 	0.78170 0.78320 0.38310 -0.20000
C 	C 	0.79170 0.86510 0.40400 0.11000
H 	H 	0.84750 0.91900 0.39780 -0.03000
C 	C 	0.53040 0.73060 0.51260 -0.21300
H 	H 	0.53480 0.76300 0.54620 0.11500
H 	H 	0.56220 0.69600 0.51800 0.10500
C 	C 	0.42990 0.66400 0.50030 0.41100
C 	C 	0.59660 0.54450 0.36740 -0.16800
H 	H 	0.55180 0.56110 0.35480 0.08100
H 	H 	0.58050 0.52160 0.40430 0.08800
C 	C 	0.59270 0.46870 0.33110 0.35800
C 	C 	0.86020 0.77870 0.35450 0.29300
H 	H 	0.83210 0.73410 0.32480 -0.03700
C 	C 	0.93060 0.86900 0.32860 -0.75500
H 	H 	0.97780 0.86130 0.31140 0.25300
H 	H 	0.95790 0.91580 0.35610 0.23800
H 	H 	0.90070 0.88710 0.30200 0.23800
C 	C 	0.90740 0.74160 0.39170 -0.19600
C 	C 	0.95030 0.69810 0.37030 0.23500
C 	C 	0.99830 0.66740 0.40230 -0.29900
H 	H 	0.02770 0.63880 0.38620 0.14900
C 	C 	0.00240 0.67940 0.45810 0.23300
C 	C 	0.95690 0.72400 0.48210 -0.17200
C 	C 	0.91180 0.75300 0.44810 0.10200
H 	H 	0.88230 0.78220 0.46340 -0.00100
C 	C 	0.88200 0.59840 0.29770 -0.20500
H 	H 	0.82440 0.58370 0.31540 0.09900
H 	H 	0.89830 0.55260 0.30850 0.08400
C 	C 	0.87010 0.59650 0.23560 0.40100
C 	C 	0.09340 0.60900 0.46960 -0.21200
H 	H 	0.13450 0.64920 0.44140 0.07800
H 	H 	0.04920 0.55110 0.45260 0.09900
C 	C 	0.14830 0.59130 0.51100 0.40600
O 	O 	0.57500 0.79600 0.47060 -0.17600
O 	O 	0.39960 0.67390 0.45590 -0.45500
O 	O 	0.38710 0.60410 0.53700 -0.45900
O 	O 	0.68640 0.62440 0.36700 -0.19900
O 	O 	0.52590 0.38940 0.33790 -0.33800
O 	O 	0.65440 0.49070 0.29490 -0.42600
O 	O 	0.95130 0.68600 0.31354 -0.19000
O 	O 	0.92860 0.65620 0.20810 -0.31600
O 	O 	0.80070 0.52430 0.21608 -0.55200
O 	O 	0.04580 0.65040 0.49310 -0.18500
O 	O 	0.13540 0.59590 0.55970 -0.31300
O 	O 	0.20460 0.56980 0.49196 -0.55700
Ni	Ni	0.72252 0.31442 0.91617 1.06800
Ni	Ni	0.23827 0.74368 0.19790 1.04200
C 	C 	0.21700 0.17080 0.10677 -0.73700
H 	H 	0.26760 0.16690 0.12217 0.25100
H 	H 	0.21860 0.16690 0.06787 0.24200
H 	H 	0.15980 0.12090 0.12017 0.23500
C 	C 	0.22470 0.26260 0.12267 0.27300
H 	H 	0.28220 0.31160 0.10687 -0.02300
C 	C 	0.14670 0.27410 0.09957 -0.18800
C 	C 	0.14610 0.35840 0.10837 0.23600
C 	C 	0.07910 0.37390 0.08737 -0.29500
H 	H 	0.08150 0.43010 0.09307 0.13400
C 	C 	0.00700 0.30390 0.05717 0.24000
C 	C 	0.00150 0.21830 0.04977 -0.19800
C 	C 	0.07340 0.20830 0.07067 0.10900
H 	H 	0.07150 0.15250 0.06447 -0.02900
C 	C 	0.20020 0.46960 0.17927 -0.21300
H 	H 	0.22820 0.46520 0.21287 0.11500
H 	H 	0.13380 0.43780 0.18467 0.10500
C 	C 	0.23410 0.57010 0.16697 0.41100
C 	C 	0.94790 0.40340 0.03407 -0.16900
H 	H 	0.00930 0.44820 0.02147 0.08200
H 	H 	0.94110 0.41950 0.07097 0.08800
C 	C 	0.87600 0.40730 0.99777 0.35900
C 	C 	0.91850 0.13980 0.02117 0.28800
H 	H 	0.90200 0.16790 0.99147 -0.03500
C 	C 	0.93840 0.06940 0.99527 -0.74800
H 	H 	0.88350 0.02220 0.97807 0.25000
H 	H 	0.95790 0.04210 0.02277 0.23500
H 	H 	0.98640 0.09930 0.96867 0.23600
C 	C 	0.83420 0.09260 0.05837 -0.19500
C 	C 	0.74780 0.04970 0.03697 0.23400
C 	C 	0.66910 0.00170 0.06897 -0.30000
H 	H 	0.61110 0.97230 0.05287 0.14900
C 	C 	0.67700 0.99760 0.12477 0.23400
C 	C 	0.76710 0.04310 0.14877 -0.17200
C 	C 	0.84120 0.08820 0.11477 0.10100
H 	H 	0.89990 0.11770 0.13007 -0.00000
C 	C 	0.71640 0.11800 0.96437 -0.20500
H 	H 	0.75930 0.17560 0.98207 0.09900
H 	H 	0.65430 0.10170 0.97517 0.08400
C 	C 	0.72640 0.12990 0.90227 0.40100
C 	C 	0.51560 0.90660 0.13627 -0.21200
H 	H 	0.51470 0.86550 0.10807 0.07800
H 	H 	0.50190 0.95080 0.11927 0.09900
C 	C 	0.44300 0.85170 0.17767 0.40600
O 	O 	0.22100 0.42500 0.13727 -0.17600
O 	O 	0.27430 0.60040 0.12257 -0.45500
O 	O 	0.21700 0.61290 0.20367 -0.45900
O 	O 	0.93800 0.31360 0.03367 -0.19900
O 	O 	0.86350 0.47410 0.00457 -0.33900
O 	O 	0.83630 0.34560 0.96157 -0.42600
O 	O 	0.73470 0.04870 0.98021 -0.18900
O 	O 	0.72760 0.07140 0.87477 -0.31600
O 	O 	0.72360 0.19930 0.88275 -0.55200
O 	O 	0.60460 0.95420 0.15977 -0.18500
O 	O 	0.46050 0.86460 0.22637 -0.31300
O 	O 	0.36520 0.79540 0.15863 -0.55700
Ni	Ni	0.59190 0.27748 0.58283 1.06800
Ni	Ni	0.50541 0.76173 0.86456 1.04200
C 	C 	0.95380 0.78300 0.77343 -0.73700
H 	H 	0.89930 0.73240 0.78883 0.25100
H 	H 	0.94830 0.78140 0.73453 0.24200
H 	H 	0.96110 0.84020 0.78683 0.23500
C 	C 	0.03790 0.77530 0.78933 0.27300
H 	H 	0.02940 0.71780 0.77353 -0.02300
C 	C 	0.12740 0.85330 0.76623 -0.18900
C 	C 	0.21230 0.85390 0.77503 0.23600
C 	C 	0.29480 0.92090 0.75403 -0.29600
H 	H 	0.34860 0.91850 0.75973 0.13400
C 	C 	0.29690 0.99300 0.72383 0.24000
C 	C 	0.21680 0.99850 0.71643 -0.20000
C 	C 	0.13490 0.92660 0.73733 0.11000
H 	H 	0.08100 0.92850 0.73113 -0.03000
C 	C 	0.26940 0.79980 0.84593 -0.21300
H 	H 	0.23700 0.77180 0.87953 0.11500
H 	H 	0.30400 0.86620 0.85133 0.10500
C 	C 	0.33600 0.76590 0.83363 0.41100
C 	C 	0.45550 0.05210 0.70073 -0.16800
H 	H 	0.43890 0.99070 0.68813 0.08100
H 	H 	0.47840 0.05890 0.73763 0.08800
C 	C 	0.53130 0.12400 0.66443 0.35800
C 	C 	0.22130 0.08150 0.68783 0.29300
H 	H 	0.26590 0.09800 0.65813 -0.03700
C 	C 	0.13100 0.06160 0.66193 -0.75500
H 	H 	0.13870 0.11650 0.64473 0.25300
H 	H 	0.08420 0.04210 0.68943 0.23800
H 	H 	0.11290 0.01360 0.63533 0.23800
C 	C 	0.25840 0.16580 0.72503 -0.19600
C 	C 	0.30190 0.25220 0.70363 0.23500
C 	C 	0.33260 0.33090 0.73563 -0.29900
H 	H 	0.36120 0.38890 0.71953 0.14900
C 	C 	0.32060 0.32300 0.79143 0.23300
C 	C 	0.27600 0.23290 0.81543 -0.17200
C 	C 	0.24700 0.15880 0.78143 0.10200
H 	H 	0.21780 0.10010 0.79673 -0.00100
C 	C 	0.40160 0.28360 0.63103 -0.20500
H 	H 	0.41630 0.24070 0.64873 0.09900
H 	H 	0.44740 0.34570 0.64183 0.08400
C 	C 	0.40350 0.27360 0.56893 0.40100
C 	C 	0.39100 0.48440 0.80293 -0.21200
H 	H 	0.35080 0.48530 0.77473 0.07800
H 	H 	0.44890 0.49810 0.78593 0.09900
C 	C 	0.40870 0.55700 0.84433 0.40600
O 	O 	0.20400 0.77900 0.80393 -0.17600
O 	O 	0.32610 0.72570 0.78923 -0.45500
O 	O 	0.39590 0.78300 0.87033 -0.45900
O 	O 	0.37560 0.06200 0.70033 -0.19900
O 	O 	0.61060 0.13650 0.67123 -0.33800
O 	O 	0.50930 0.16370 0.62823 -0.42600
O 	O 	0.31400 0.26530 0.64687 -0.19000
O 	O 	0.34380 0.27240 0.54143 -0.31600
O 	O 	0.47570 0.27640 0.54941 -0.55200
O 	O 	0.34960 0.39540 0.82643 -0.18500
O 	O 	0.40410 0.53950 0.89303 -0.31300
O 	O 	0.43020 0.63480 0.82529 -0.55700
