data_crystal

_cell_length_a 16.71900
_cell_length_b 16.71900
_cell_length_c 24.59800
_cell_angle_alpha 90.00000
_cell_angle_beta  90.00000
_cell_angle_gamma 120.00000

_symmetry_space_group_name_	'P 1'
_symmetry_space_group_name_H-M	'P 1'

loop_
_symmetry_equiv_pos_as_xyz
  x,y,z

loop_
_atom_site_label
_atom_site_type_symbol
_atom_site_fract_x
_atom_site_fract_y
_atom_site_fract_z
_atom_site_charge
Co	Co	0.40788 0.68402 0.74945 1.12800
Co	Co	0.49182 0.25482 0.46862 1.09700
C 	C 	0.04560 0.82840 0.55950 -0.73500
H 	H 	0.09980 0.83170 0.54400 0.24800
H 	H 	0.05130 0.83230 0.59840 0.23900
H 	H 	0.03880 0.87860 0.54610 0.23300
C 	C 	0.96060 0.73660 0.54360 0.27900
H 	H 	0.96870 0.68730 0.55940 -0.02500
C 	C 	0.87210 0.72540 0.56620 -0.20000
C 	C 	0.86420 0.79150 0.59514 0.11800
H 	H 	0.91770 0.84770 0.60120 -0.03300
C 	C 	0.78210 0.78010 0.61600 -0.20700
C 	C 	0.70270 0.69530 0.60845 0.24600
C 	C 	0.70550 0.62550 0.57830 -0.30400
H 	H 	0.65190 0.56920 0.57250 0.13600
C 	C 	0.78810 0.64160 0.55750 0.24600
C 	C 	0.73000 0.52980 0.48710 -0.22700
H 	H 	0.76200 0.53340 0.45360 0.11800
H 	H 	0.69580 0.56200 0.48150 0.10800
C 	C 	0.66280 0.42980 0.49970 0.42800
C 	C 	0.54350 0.59580 0.63170 -0.18100
H 	H 	0.55990 0.55040 0.64350 0.08400
H 	H 	0.52000 0.58040 0.59480 0.09000
C 	C 	0.46890 0.59080 0.66817 0.37600
C 	C 	0.77780 0.85840 0.64570 0.29900
H 	H 	0.73270 0.83010 0.67510 -0.04000
C 	C 	0.86780 0.92850 0.67130 -0.75900
H 	H 	0.85990 0.97510 0.68920 0.25200
H 	H 	0.91420 0.95670 0.64360 0.23800
H 	H 	0.88670 0.89840 0.69730 0.23800
C 	C 	0.74200 0.90670 0.60780 -0.19800
C 	C 	0.69810 0.95050 0.62930 0.24200
C 	C 	0.66810 0.99860 0.59770 -0.31300
H 	H 	0.64000 0.02870 0.61360 0.15300
C 	C 	0.68040 0.00160 0.54220 0.24200
C 	C 	0.72410 0.95670 0.51820 -0.18100
C 	C 	0.75370 0.91110 0.55190 0.10700
H 	H 	0.78300 0.88180 0.53640 -0.00300
C 	C 	0.59810 0.88170 0.70180 -0.21900
H 	H 	0.58270 0.82370 0.68430 0.10000
H 	H 	0.55280 0.89860 0.69080 0.08600
C 	C 	0.59650 0.87080 0.76360 0.42000
C 	C 	0.60950 0.09200 0.53120 -0.20200
H 	H 	0.64960 0.13360 0.55920 0.07100
H 	H 	0.55190 0.04730 0.54820 0.09400
C 	C 	0.59110 0.14590 0.48920 0.39000
O 	O 	0.79620 0.57510 0.52905 -0.17900
O 	O 	0.60350 0.38720 0.46352 -0.47800
O 	O 	0.67260 0.39880 0.54392 -0.47200
O 	O 	0.62380 0.68470 0.63200 -0.19800
O 	O 	0.49070 0.65240 0.70354 -0.44500
O 	O 	0.39060 0.52270 0.66184 -0.35200
O 	O 	0.68700 0.95090 0.68565 -0.19200
O 	O 	0.65580 0.93070 0.79056 -0.33000
O 	O 	0.52640 0.80080 0.78277 -0.57400
O 	O 	0.65170 0.04590 0.50711 -0.18900
O 	O 	0.56900 0.20310 0.50852 -0.56100
O 	O 	0.59630 0.13400 0.44070 -0.31500
Co	Co	0.31598 0.72386 0.08278 1.12900
Co	Co	0.74518 0.23700 0.80195 1.09800
C 	C 	0.17160 0.21720 0.89283 -0.73300
H 	H 	0.16830 0.26810 0.87733 0.24900
H 	H 	0.16770 0.21900 0.93173 0.24000
H 	H 	0.12140 0.16020 0.87943 0.23400
C 	C 	0.26340 0.22400 0.87693 0.27900
H 	H 	0.31270 0.28140 0.89273 -0.02500
C 	C 	0.27460 0.14670 0.89953 -0.19900
C 	C 	0.20850 0.07270 0.92847 0.11700
H 	H 	0.15230 0.07000 0.93453 -0.03200
C 	C 	0.21990 0.00200 0.94933 -0.20500
C 	C 	0.30470 0.00740 0.94178 0.24600
C 	C 	0.37450 0.08000 0.91163 -0.30400
H 	H 	0.43080 0.08270 0.90583 0.13600
C 	C 	0.35840 0.14650 0.89083 0.24600
C 	C 	0.47020 0.20020 0.82043 -0.22700
H 	H 	0.46660 0.22860 0.78693 0.11800
H 	H 	0.43800 0.13380 0.81483 0.10800
C 	C 	0.57020 0.23300 0.83303 0.42800
C 	C 	0.40420 0.94770 0.96503 -0.18200
H 	H 	0.44960 0.00950 0.97683 0.08400
H 	H 	0.41960 0.93960 0.92813 0.09000
C 	C 	0.40920 0.87810 0.00150 0.37700
C 	C 	0.14160 0.91940 0.97903 0.29500
H 	H 	0.16990 0.90260 0.00843 -0.03900
C 	C 	0.07150 0.93930 0.00463 -0.75200
H 	H 	0.02490 0.88480 0.02253 0.25000
H 	H 	0.04330 0.95750 0.97693 0.23600
H 	H 	0.10160 0.98830 0.03063 0.23600
C 	C 	0.09330 0.83530 0.94113 -0.19700
C 	C 	0.04950 0.74760 0.96263 0.24100
C 	C 	0.00140 0.66950 0.93103 -0.31300
H 	H 	0.97130 0.61130 0.94693 0.15400
C 	C 	0.99840 0.67880 0.87553 0.24300
C 	C 	0.04330 0.76740 0.85153 -0.18100
C 	C 	0.08890 0.84260 0.88523 0.10600
H 	H 	0.11820 0.90120 0.86973 -0.00200
C 	C 	0.11830 0.71640 0.03513 -0.22000
H 	H 	0.17630 0.75900 0.01763 0.10000
H 	H 	0.10140 0.65420 0.02413 0.08600
C 	C 	0.12920 0.72570 0.09693 0.42000
C 	C 	0.90800 0.51750 0.86453 -0.20200
H 	H 	0.86640 0.51600 0.89253 0.07100
H 	H 	0.95270 0.50460 0.88153 0.09400
C 	C 	0.85410 0.44520 0.82253 0.39000
O 	O 	0.42490 0.22110 0.86238 -0.17900
O 	O 	0.61280 0.21630 0.79685 -0.47800
O 	O 	0.60120 0.27380 0.87725 -0.47200
O 	O 	0.31530 0.93910 0.96533 -0.19800
O 	O 	0.34760 0.83830 0.03687 -0.44500
O 	O 	0.47730 0.86790 0.99517 -0.35200
O 	O 	0.04910 0.73610 0.01898 -0.19200
O 	O 	0.06930 0.72510 0.12389 -0.33000
O 	O 	0.19920 0.72560 0.11610 -0.57400
O 	O 	0.95410 0.60580 0.84044 -0.18900
O 	O 	0.79690 0.36590 0.84185 -0.56100
O 	O 	0.86600 0.46230 0.77403 -0.31500
Co	Co	0.27614 0.59212 0.41612 1.12900
Co	Co	0.76300 0.50818 0.13529 1.09800
C 	C 	0.78280 0.95440 0.22617 -0.73300
H 	H 	0.73190 0.90020 0.21067 0.24900
H 	H 	0.78100 0.94870 0.26507 0.24000
H 	H 	0.83980 0.96120 0.21277 0.23400
C 	C 	0.77600 0.03940 0.21027 0.27900
H 	H 	0.71860 0.03130 0.22607 -0.02500
C 	C 	0.85330 0.12790 0.23287 -0.20000
C 	C 	0.92730 0.13580 0.26181 0.11800
H 	H 	0.93000 0.08230 0.26787 -0.03300
C 	C 	0.99800 0.21790 0.28267 -0.20700
C 	C 	0.99260 0.29730 0.27512 0.24600
C 	C 	0.92000 0.29450 0.24497 -0.30400
H 	H 	0.91730 0.34810 0.23917 0.13600
C 	C 	0.85350 0.21190 0.22417 0.24600
C 	C 	0.79980 0.27000 0.15377 -0.22700
H 	H 	0.77140 0.23800 0.12027 0.11800
H 	H 	0.86620 0.30420 0.14817 0.10800
C 	C 	0.76700 0.33720 0.16637 0.42800
C 	C 	0.05230 0.45650 0.29837 -0.18100
H 	H 	0.99050 0.44010 0.31017 0.08400
H 	H 	0.06040 0.48000 0.26147 0.09000
C 	C 	0.12190 0.53110 0.33484 0.37600
C 	C 	0.08060 0.22220 0.31237 0.29900
H 	H 	0.09740 0.26730 0.34177 -0.04000
C 	C 	0.06070 0.13220 0.33797 -0.75900
H 	H 	0.11520 0.14010 0.35587 0.25200
H 	H 	0.04250 0.08580 0.31027 0.23800
H 	H 	0.01170 0.11330 0.36397 0.23800
C 	C 	0.16470 0.25800 0.27447 -0.19800
C 	C 	0.25240 0.30190 0.29597 0.24200
C 	C 	0.33050 0.33190 0.26437 -0.31300
H 	H 	0.38870 0.36000 0.28027 0.15300
C 	C 	0.32120 0.31960 0.20887 0.24200
C 	C 	0.23260 0.27590 0.18487 -0.18100
C 	C 	0.15740 0.24630 0.21857 0.10700
H 	H 	0.09880 0.21700 0.20307 -0.00300
C 	C 	0.28360 0.40190 0.36847 -0.21900
H 	H 	0.24100 0.41730 0.35097 0.10000
H 	H 	0.34580 0.44720 0.35747 0.08600
C 	C 	0.27430 0.40350 0.43027 0.42000
C 	C 	0.48250 0.39050 0.19787 -0.20200
H 	H 	0.48400 0.35040 0.22587 0.07100
H 	H 	0.49540 0.44810 0.21487 0.09400
C 	C 	0.55480 0.40890 0.15587 0.39000
O 	O 	0.77890 0.20380 0.19572 -0.17900
O 	O 	0.78370 0.39650 0.13019 -0.47800
O 	O 	0.72620 0.32740 0.21059 -0.47200
O 	O 	0.06090 0.37620 0.29867 -0.19800
O 	O 	0.16170 0.50930 0.37021 -0.44500
O 	O 	0.13210 0.60940 0.32851 -0.35200
O 	O 	0.26390 0.31300 0.35232 -0.19200
O 	O 	0.27490 0.34420 0.45723 -0.33000
O 	O 	0.27440 0.47360 0.44944 -0.57400
O 	O 	0.39420 0.34830 0.17378 -0.18900
O 	O 	0.63410 0.43100 0.17519 -0.56100
O 	O 	0.53770 0.40370 0.10737 -0.31600
Co	Co	0.68402 0.40788 0.25055 1.12900
Co	Co	0.25482 0.49182 0.53138 1.09800
C 	C 	0.82840 0.04560 0.44050 -0.73400
H 	H 	0.83170 0.09980 0.45600 0.24900
H 	H 	0.83230 0.05130 0.40160 0.24000
H 	H 	0.87860 0.03880 0.45390 0.23400
C 	C 	0.73660 0.96060 0.45640 0.27900
H 	H 	0.68730 0.96870 0.44060 -0.02500
C 	C 	0.72540 0.87210 0.43380 -0.20000
C 	C 	0.79150 0.86420 0.40486 0.11800
H 	H 	0.84770 0.91770 0.39880 -0.03300
C 	C 	0.78010 0.78210 0.38400 -0.20700
C 	C 	0.69530 0.70270 0.39155 0.24600
C 	C 	0.62550 0.70550 0.42170 -0.30400
H 	H 	0.56920 0.65190 0.42750 0.13600
C 	C 	0.64160 0.78810 0.44250 0.24600
C 	C 	0.52980 0.73000 0.51290 -0.22700
H 	H 	0.53340 0.76200 0.54640 0.11800
H 	H 	0.56200 0.69580 0.51850 0.10800
C 	C 	0.42980 0.66280 0.50030 0.42800
C 	C 	0.59580 0.54350 0.36830 -0.18100
H 	H 	0.55040 0.55990 0.35650 0.08400
H 	H 	0.58040 0.52000 0.40520 0.09000
C 	C 	0.59080 0.46890 0.33183 0.37600
C 	C 	0.85840 0.77780 0.35430 0.29900
H 	H 	0.83010 0.73270 0.32490 -0.04000
C 	C 	0.92850 0.86780 0.32870 -0.75900
H 	H 	0.97510 0.85990 0.31080 0.25200
H 	H 	0.95670 0.91420 0.35640 0.23800
H 	H 	0.89840 0.88670 0.30270 0.23800
C 	C 	0.90670 0.74200 0.39220 -0.19800
C 	C 	0.95050 0.69810 0.37070 0.24200
C 	C 	0.99860 0.66810 0.40230 -0.31300
H 	H 	0.02870 0.64000 0.38640 0.15300
C 	C 	0.00160 0.68040 0.45780 0.24200
C 	C 	0.95670 0.72410 0.48180 -0.18100
C 	C 	0.91110 0.75370 0.44810 0.10700
H 	H 	0.88180 0.78300 0.46360 -0.00300
C 	C 	0.88170 0.59810 0.29820 -0.21900
H 	H 	0.82370 0.58270 0.31570 0.10000
H 	H 	0.89860 0.55280 0.30920 0.08600
C 	C 	0.87080 0.59650 0.23640 0.42000
C 	C 	0.09200 0.60950 0.46880 -0.20200
H 	H 	0.13360 0.64960 0.44080 0.07100
H 	H 	0.04730 0.55190 0.45180 0.09400
C 	C 	0.14590 0.59110 0.51080 0.39000
O 	O 	0.57510 0.79620 0.47095 -0.17900
O 	O 	0.38720 0.60350 0.53648 -0.47800
O 	O 	0.39880 0.67260 0.45608 -0.47200
O 	O 	0.68470 0.62380 0.36800 -0.19800
O 	O 	0.65240 0.49070 0.29646 -0.44500
O 	O 	0.52270 0.39060 0.33816 -0.35200
O 	O 	0.95090 0.68700 0.31435 -0.19200
O 	O 	0.93070 0.65580 0.20944 -0.33000
O 	O 	0.80080 0.52640 0.21723 -0.57400
O 	O 	0.04590 0.65170 0.49289 -0.18900
O 	O 	0.20310 0.56900 0.49148 -0.56100
O 	O 	0.13400 0.59630 0.55930 -0.31500
Co	Co	0.72386 0.31598 0.91722 1.12900
Co	Co	0.23700 0.74518 0.19805 1.09800
C 	C 	0.21720 0.17160 0.10717 -0.73300
H 	H 	0.26810 0.16830 0.12267 0.24900
H 	H 	0.21900 0.16770 0.06827 0.24000
H 	H 	0.16020 0.12140 0.12057 0.23400
C 	C 	0.22400 0.26340 0.12307 0.27900
H 	H 	0.28140 0.31270 0.10727 -0.02500
C 	C 	0.14670 0.27460 0.10047 -0.19900
C 	C 	0.07270 0.20850 0.07153 0.11700
H 	H 	0.07000 0.15230 0.06547 -0.03200
C 	C 	0.00200 0.21990 0.05067 -0.20500
C 	C 	0.00740 0.30470 0.05822 0.24600
C 	C 	0.08000 0.37450 0.08837 -0.30400
H 	H 	0.08270 0.43080 0.09417 0.13600
C 	C 	0.14650 0.35840 0.10917 0.24600
C 	C 	0.20020 0.47020 0.17957 -0.22700
H 	H 	0.22860 0.46660 0.21307 0.11800
H 	H 	0.13380 0.43800 0.18517 0.10800
C 	C 	0.23300 0.57020 0.16697 0.42800
C 	C 	0.94770 0.40420 0.03497 -0.18200
H 	H 	0.00950 0.44960 0.02317 0.08400
H 	H 	0.93960 0.41960 0.07187 0.09000
C 	C 	0.87810 0.40920 0.99850 0.37700
C 	C 	0.91940 0.14160 0.02097 0.29500
H 	H 	0.90260 0.16990 0.99157 -0.03900
C 	C 	0.93930 0.07150 0.99537 -0.75200
H 	H 	0.88480 0.02490 0.97747 0.25000
H 	H 	0.95750 0.04330 0.02307 0.23600
H 	H 	0.98830 0.10160 0.96937 0.23600
C 	C 	0.83530 0.09330 0.05887 -0.19700
C 	C 	0.74760 0.04950 0.03737 0.24100
C 	C 	0.66950 0.00140 0.06897 -0.31300
H 	H 	0.61130 0.97130 0.05307 0.15400
C 	C 	0.67880 0.99840 0.12447 0.24300
C 	C 	0.76740 0.04330 0.14847 -0.18100
C 	C 	0.84260 0.08890 0.11477 0.10600
H 	H 	0.90120 0.11820 0.13027 -0.00200
C 	C 	0.71640 0.11830 0.96487 -0.22000
H 	H 	0.75900 0.17630 0.98237 0.10000
H 	H 	0.65420 0.10140 0.97587 0.08600
C 	C 	0.72570 0.12920 0.90307 0.42000
C 	C 	0.51750 0.90800 0.13547 -0.20200
H 	H 	0.51600 0.86640 0.10747 0.07100
H 	H 	0.50460 0.95270 0.11847 0.09400
C 	C 	0.44520 0.85410 0.17747 0.39000
O 	O 	0.22110 0.42490 0.13762 -0.17900
O 	O 	0.21630 0.61280 0.20315 -0.47800
O 	O 	0.27380 0.60120 0.12275 -0.47200
O 	O 	0.93910 0.31530 0.03467 -0.19800
O 	O 	0.83830 0.34760 0.96313 -0.44500
O 	O 	0.86790 0.47730 0.00483 -0.35200
O 	O 	0.73610 0.04910 0.98102 -0.19200
O 	O 	0.72510 0.06930 0.87611 -0.33000
O 	O 	0.72560 0.19920 0.88390 -0.57400
O 	O 	0.60580 0.95410 0.15956 -0.18900
O 	O 	0.36590 0.79690 0.15815 -0.56100
O 	O 	0.46230 0.86600 0.22597 -0.31500
Co	Co	0.59212 0.27614 0.58388 1.12900
Co	Co	0.50818 0.76300 0.86471 1.09800
C 	C 	0.95440 0.78280 0.77383 -0.73300
H 	H 	0.90020 0.73190 0.78933 0.24900
H 	H 	0.94870 0.78100 0.73493 0.24000
H 	H 	0.96120 0.83980 0.78723 0.23400
C 	C 	0.03940 0.77600 0.78973 0.27900
H 	H 	0.03130 0.71860 0.77393 -0.02500
C 	C 	0.12790 0.85330 0.76713 -0.20000
C 	C 	0.13580 0.92730 0.73819 0.11800
H 	H 	0.08230 0.93000 0.73213 -0.03300
C 	C 	0.21790 0.99800 0.71733 -0.20700
C 	C 	0.29730 0.99260 0.72488 0.24600
C 	C 	0.29450 0.92000 0.75503 -0.30400
H 	H 	0.34810 0.91730 0.76083 0.13600
C 	C 	0.21190 0.85350 0.77583 0.24600
C 	C 	0.27000 0.79980 0.84623 -0.22700
H 	H 	0.23800 0.77140 0.87973 0.11800
H 	H 	0.30420 0.86620 0.85183 0.10800
C 	C 	0.33720 0.76700 0.83363 0.42800
C 	C 	0.45650 0.05230 0.70163 -0.18100
H 	H 	0.44010 0.99050 0.68983 0.08400
H 	H 	0.48000 0.06040 0.73853 0.09000
C 	C 	0.53110 0.12190 0.66516 0.37600
C 	C 	0.22220 0.08060 0.68763 0.29900
H 	H 	0.26730 0.09740 0.65823 -0.04000
C 	C 	0.13220 0.06070 0.66203 -0.75900
H 	H 	0.14010 0.11520 0.64413 0.25200
H 	H 	0.08580 0.04250 0.68973 0.23800
H 	H 	0.11330 0.01170 0.63603 0.23800
C 	C 	0.25800 0.16470 0.72553 -0.19800
C 	C 	0.30190 0.25240 0.70403 0.24200
C 	C 	0.33190 0.33050 0.73563 -0.31300
H 	H 	0.36000 0.38870 0.71973 0.15300
C 	C 	0.31960 0.32120 0.79113 0.24200
C 	C 	0.27590 0.23260 0.81513 -0.18100
C 	C 	0.24630 0.15740 0.78143 0.10700
H 	H 	0.21700 0.09880 0.79693 -0.00300
C 	C 	0.40190 0.28360 0.63153 -0.21900
H 	H 	0.41730 0.24100 0.64903 0.10000
H 	H 	0.44720 0.34580 0.64253 0.08600
C 	C 	0.40350 0.27430 0.56973 0.42000
C 	C 	0.39050 0.48250 0.80213 -0.20200
H 	H 	0.35040 0.48400 0.77413 0.07100
H 	H 	0.44810 0.49540 0.78513 0.09400
C 	C 	0.40890 0.55480 0.84413 0.39000
O 	O 	0.20380 0.77890 0.80428 -0.17900
O 	O 	0.39650 0.78370 0.86981 -0.47800
O 	O 	0.32740 0.72620 0.78941 -0.47200
O 	O 	0.37620 0.06090 0.70133 -0.19800
O 	O 	0.50930 0.16170 0.62979 -0.44500
O 	O 	0.60940 0.13210 0.67149 -0.35200
O 	O 	0.31300 0.26390 0.64768 -0.19200
O 	O 	0.34420 0.27490 0.54277 -0.33000
O 	O 	0.47360 0.27440 0.55056 -0.57400
O 	O 	0.34830 0.39420 0.82622 -0.18900
O 	O 	0.43100 0.63410 0.82481 -0.56100
O 	O 	0.40370 0.53770 0.89263 -0.31600
