data_crystal

_cell_length_a 34.18200
_cell_length_b 34.18200
_cell_length_c 34.18200
_cell_angle_alpha 90.00000
_cell_angle_beta  90.00000
_cell_angle_gamma 90.00000

_symmetry_space_group_name_	'P 1'
_symmetry_space_group_name_H-M	'P 1'

loop_
_symmetry_equiv_pos_as_xyz
  x,y,z

loop_
_atom_site_label
_atom_site_type_symbol
_atom_site_fract_x
_atom_site_fract_y
_atom_site_fract_z
_atom_site_charge
O 	O 	0.85400 0.13750 0.01270 -0.22700
O 	O 	0.80520 0.23400 0.97440 -0.36300
C 	C 	0.59970 0.14230 0.08780 -0.02500
H 	H 	0.59280 0.16380 0.07270 0.05100
C 	C 	0.88270 0.25670 0.00790 -0.44300
H 	H 	0.87180 0.27210 0.98680 0.21400
H 	H 	0.87700 0.27020 0.03230 0.17800
N 	N 	0.69390 0.12540 0.04130 -0.21200
O 	O 	0.78640 0.05550 0.00880 -0.43300
C 	C 	0.63260 0.12010 0.07760 -0.04400
C 	C 	0.87970 0.13220 0.07700 -0.04900
O 	O 	0.73370 0.19540 0.97450 -0.37400
C 	C 	0.86830 0.15480 0.04140 0.21600
N 	N 	0.87460 0.19340 0.04150 -0.22000
H 	H 	0.88560 0.20430 0.06130 0.13400
C 	C 	0.86300 0.21680 0.00850 0.03900
H 	H 	0.87030 0.20280 0.98460 0.08200
C 	C 	0.75620 0.11730 0.00740 -0.41100
C 	C 	0.91270 0.14250 0.10010 -0.01800
H 	H 	0.92750 0.16440 0.09340 0.04900
C 	C 	0.81890 0.22460 0.00710 0.27600
O 	O 	0.63780 0.14570 0.01260 -0.22600
C 	C 	0.72460 0.18170 0.00700 0.29300
C 	C 	0.75460 0.07370 0.00300 0.40300
C 	C 	0.65490 0.13150 0.04150 0.20700
O 	O 	0.72370 0.19925 0.03900 -0.39600
C 	C 	0.92650 0.25450 0.00280 0.41100
O 	O 	0.94410 0.28630 0.00890 -0.42100
O 	O 	0.80070 0.22390 0.03930 -0.38900
O 	O 	0.72280 0.05780 0.99260 -0.37700
C 	C 	0.71640 0.13680 0.00770 0.02800
O 	O 	0.94190 0.22250 0.99260 -0.36400
H 	H 	0.70460 0.11600 0.06230 0.12800
H 	H 	0.77000 0.12240 0.03310 0.15600
H 	H 	0.77300 0.12820 0.98770 0.20700
H 	H 	0.70230 0.13020 0.98450 0.08500
O 	O 	0.85400 0.63750 0.51270 -0.21300
O 	O 	0.80520 0.73400 0.47440 -0.38700
C 	C 	0.59970 0.64230 0.58780 -0.02400
H 	H 	0.59280 0.66380 0.57270 0.05300
C 	C 	0.88270 0.75670 0.50790 -0.40100
H 	H 	0.87180 0.77210 0.48680 0.18200
H 	H 	0.87700 0.77020 0.53230 0.16800
N 	N 	0.69390 0.62540 0.54130 -0.21200
O 	O 	0.78640 0.55550 0.50880 -0.42400
C 	C 	0.63260 0.62010 0.57760 -0.04000
C 	C 	0.87970 0.63220 0.57700 -0.04500
O 	O 	0.73370 0.69540 0.47450 -0.39700
C 	C 	0.86830 0.65480 0.54140 0.21800
N 	N 	0.87460 0.69340 0.54150 -0.22000
H 	H 	0.88560 0.70430 0.56130 0.13500
C 	C 	0.86300 0.71680 0.50850 0.05900
H 	H 	0.87030 0.70280 0.48460 0.05900
C 	C 	0.75620 0.61730 0.50740 -0.37100
C 	C 	0.91270 0.64250 0.60010 -0.01700
H 	H 	0.92750 0.66440 0.59340 0.05200
C 	C 	0.81890 0.72460 0.50710 0.30700
O 	O 	0.63780 0.64570 0.51260 -0.21200
C 	C 	0.72460 0.68170 0.50700 0.32500
C 	C 	0.75460 0.57370 0.50300 0.42800
C 	C 	0.65490 0.63150 0.54150 0.21000
O 	O 	0.72370 0.69925 0.53900 -0.40000
C 	C 	0.92650 0.75450 0.50280 0.43600
O 	O 	0.94410 0.78630 0.50890 -0.41700
O 	O 	0.80070 0.72390 0.53930 -0.39300
O 	O 	0.72280 0.55780 0.49260 -0.40400
C 	C 	0.71640 0.63680 0.50770 0.05200
O 	O 	0.94190 0.72250 0.49260 -0.39600
H 	H 	0.70460 0.61600 0.56230 0.13000
H 	H 	0.77000 0.62240 0.53310 0.14700
H 	H 	0.77300 0.62820 0.48770 0.17400
H 	H 	0.70230 0.63020 0.48450 0.05900
O 	O 	0.35400 0.13750 0.51270 -0.21700
O 	O 	0.30520 0.23400 0.47440 -0.38800
C 	C 	0.09970 0.14230 0.58780 -0.02400
H 	H 	0.09280 0.16380 0.57270 0.05200
C 	C 	0.38270 0.25670 0.50790 -0.40500
H 	H 	0.37180 0.27210 0.48680 0.18200
H 	H 	0.37700 0.27020 0.53230 0.16900
N 	N 	0.19390 0.12540 0.54130 -0.21300
O 	O 	0.28640 0.05550 0.50880 -0.43000
C 	C 	0.13260 0.12010 0.57760 -0.04300
C 	C 	0.37970 0.13220 0.57700 -0.04800
O 	O 	0.23370 0.19540 0.47450 -0.39800
C 	C 	0.36830 0.15480 0.54140 0.21800
N 	N 	0.37460 0.19340 0.54150 -0.22000
H 	H 	0.38560 0.20430 0.56130 0.13500
C 	C 	0.36300 0.21680 0.50850 0.06100
H 	H 	0.37030 0.20280 0.48460 0.05700
C 	C 	0.25620 0.11730 0.50740 -0.37300
C 	C 	0.41270 0.14250 0.60010 -0.01700
H 	H 	0.42750 0.16440 0.59340 0.05000
C 	C 	0.31890 0.22460 0.50710 0.30700
O 	O 	0.13780 0.14570 0.51260 -0.21600
C 	C 	0.22460 0.18170 0.50700 0.32500
C 	C 	0.25460 0.07370 0.50300 0.43000
C 	C 	0.15490 0.13150 0.54150 0.20900
O 	O 	0.22370 0.19925 0.53900 -0.40000
C 	C 	0.42650 0.25450 0.50280 0.44000
O 	O 	0.44410 0.28630 0.50890 -0.42800
O 	O 	0.30070 0.22390 0.53930 -0.39200
O 	O 	0.22280 0.05780 0.49260 -0.41000
C 	C 	0.21640 0.13680 0.50770 0.05300
O 	O 	0.44190 0.22250 0.49260 -0.40700
H 	H 	0.20460 0.11600 0.56230 0.13000
H 	H 	0.27000 0.12240 0.53310 0.14700
H 	H 	0.27300 0.12820 0.48770 0.17400
H 	H 	0.20230 0.13020 0.48450 0.05700
O 	O 	0.35400 0.63750 0.01270 -0.22600
O 	O 	0.30520 0.73400 0.97440 -0.36200
C 	C 	0.09970 0.64230 0.08780 -0.02400
H 	H 	0.09280 0.66380 0.07270 0.05100
C 	C 	0.38270 0.75670 0.00790 -0.44500
H 	H 	0.37180 0.77210 0.98680 0.21600
H 	H 	0.37700 0.77020 0.03230 0.18000
N 	N 	0.19390 0.62540 0.04130 -0.21100
O 	O 	0.28640 0.55550 0.00880 -0.42800
C 	C 	0.13260 0.62010 0.07760 -0.04300
C 	C 	0.37970 0.63220 0.07700 -0.04900
O 	O 	0.23370 0.69540 0.97450 -0.37300
C 	C 	0.36830 0.65480 0.04140 0.21600
N 	N 	0.37460 0.69340 0.04150 -0.21900
H 	H 	0.38560 0.70430 0.06130 0.13500
C 	C 	0.36300 0.71680 0.00850 0.04100
H 	H 	0.37030 0.70280 0.98460 0.08300
C 	C 	0.25620 0.61730 0.00740 -0.40900
C 	C 	0.41270 0.64250 0.10010 -0.01700
H 	H 	0.42750 0.66440 0.09340 0.04900
C 	C 	0.31890 0.72460 0.00710 0.27700
O 	O 	0.13780 0.64570 0.01260 -0.22600
C 	C 	0.22460 0.68170 0.00700 0.29400
C 	C 	0.25460 0.57370 0.00300 0.40300
C 	C 	0.15490 0.63150 0.04150 0.20800
O 	O 	0.22370 0.69925 0.03900 -0.39500
C 	C 	0.42650 0.75450 0.00280 0.41500
O 	O 	0.44410 0.78630 0.00890 -0.43000
O 	O 	0.30070 0.72390 0.03930 -0.38800
O 	O 	0.22280 0.55780 0.99260 -0.37100
C 	C 	0.21640 0.63680 0.00770 0.02900
O 	O 	0.44190 0.72250 0.99260 -0.37300
H 	H 	0.20460 0.61600 0.06230 0.13000
H 	H 	0.27000 0.62240 0.03310 0.15600
H 	H 	0.27300 0.62820 0.98770 0.20700
H 	H 	0.20230 0.63020 0.98450 0.08600
O 	O 	0.14600 0.86250 0.01270 -0.22600
O 	O 	0.19480 0.76600 0.97440 -0.36300
C 	C 	0.40030 0.85770 0.08780 -0.02400
H 	H 	0.40720 0.83620 0.07270 0.05200
C 	C 	0.11730 0.74330 0.00790 -0.44600
H 	H 	0.12820 0.72790 0.98680 0.21500
H 	H 	0.12300 0.72980 0.03230 0.18000
N 	N 	0.30610 0.87460 0.04130 -0.21000
O 	O 	0.21360 0.94450 0.00880 -0.41800
C 	C 	0.36740 0.87990 0.07760 -0.04100
C 	C 	0.12030 0.86780 0.07700 -0.04900
O 	O 	0.26630 0.80460 0.97450 -0.37200
C 	C 	0.13170 0.84520 0.04140 0.21600
N 	N 	0.12540 0.80660 0.04150 -0.21900
H 	H 	0.11440 0.79570 0.06130 0.13500
C 	C 	0.13700 0.78320 0.00850 0.04100
H 	H 	0.12970 0.79720 0.98460 0.08200
C 	C 	0.24380 0.88270 0.00740 -0.40500
C 	C 	0.08730 0.85750 0.10010 -0.01800
H 	H 	0.07250 0.83560 0.09340 0.04800
C 	C 	0.18110 0.77540 0.00710 0.27700
O 	O 	0.36220 0.85430 0.01260 -0.22200
C 	C 	0.27540 0.81830 0.00700 0.29500
C 	C 	0.24540 0.92630 0.00300 0.39900
C 	C 	0.34510 0.86850 0.04150 0.20800
O 	O 	0.27630 0.80075 0.03900 -0.39500
C 	C 	0.07350 0.74550 0.00280 0.41600
O 	O 	0.05590 0.71370 0.00890 -0.43500
O 	O 	0.19930 0.77610 0.03930 -0.38800
O 	O 	0.27720 0.94220 0.99260 -0.36000
C 	C 	0.28360 0.86320 0.00770 0.02700
O 	O 	0.05810 0.77750 0.99260 -0.37800
H 	H 	0.29540 0.88400 0.06230 0.13000
H 	H 	0.23000 0.87760 0.03310 0.15500
H 	H 	0.22700 0.87180 0.98770 0.20600
H 	H 	0.29770 0.86980 0.98450 0.08800
O 	O 	0.14600 0.36250 0.51270 -0.21600
O 	O 	0.19480 0.26600 0.47440 -0.38800
C 	C 	0.40030 0.35770 0.58780 -0.02400
H 	H 	0.40720 0.33620 0.57270 0.05300
C 	C 	0.11730 0.24330 0.50790 -0.40600
H 	H 	0.12820 0.22790 0.48680 0.18200
H 	H 	0.12300 0.22980 0.53230 0.16900
N 	N 	0.30610 0.37460 0.54130 -0.21200
O 	O 	0.21360 0.44450 0.50880 -0.42600
C 	C 	0.36740 0.37990 0.57760 -0.04000
C 	C 	0.12030 0.36780 0.57700 -0.04800
O 	O 	0.26630 0.30460 0.47450 -0.39800
C 	C 	0.13170 0.34520 0.54140 0.21800
N 	N 	0.12540 0.30660 0.54150 -0.22000
H 	H 	0.11440 0.29570 0.56130 0.13500
C 	C 	0.13700 0.28320 0.50850 0.06100
H 	H 	0.12970 0.29720 0.48460 0.05600
C 	C 	0.24380 0.38270 0.50740 -0.37100
C 	C 	0.08730 0.35750 0.60010 -0.01700
H 	H 	0.07250 0.33560 0.59340 0.04900
C 	C 	0.18110 0.27540 0.50710 0.30700
O 	O 	0.36220 0.35430 0.51260 -0.21200
C 	C 	0.27540 0.31830 0.50700 0.32500
C 	C 	0.24540 0.42630 0.50300 0.42800
C 	C 	0.34510 0.36850 0.54150 0.21000
O 	O 	0.27630 0.30075 0.53900 -0.40000
C 	C 	0.07350 0.24550 0.50280 0.44100
O 	O 	0.05590 0.21370 0.50890 -0.43300
O 	O 	0.19930 0.27610 0.53930 -0.39200
O 	O 	0.27720 0.44220 0.49260 -0.40400
C 	C 	0.28360 0.36320 0.50770 0.05200
O 	O 	0.05810 0.27750 0.49260 -0.41200
H 	H 	0.29540 0.38400 0.56230 0.13000
H 	H 	0.23000 0.37760 0.53310 0.14700
H 	H 	0.22700 0.37180 0.48770 0.17400
H 	H 	0.29770 0.36980 0.48450 0.05900
O 	O 	0.64600 0.86250 0.51270 -0.21300
O 	O 	0.69480 0.76600 0.47440 -0.38700
C 	C 	0.90030 0.85770 0.58780 -0.02400
H 	H 	0.90720 0.83620 0.57270 0.05500
C 	C 	0.61730 0.74330 0.50790 -0.40400
H 	H 	0.62820 0.72790 0.48680 0.18200
H 	H 	0.62300 0.72980 0.53230 0.16900
N 	N 	0.80610 0.87460 0.54130 -0.21100
O 	O 	0.71360 0.94450 0.50880 -0.41400
C 	C 	0.86740 0.87990 0.57760 -0.03800
C 	C 	0.62030 0.86780 0.57700 -0.04500
O 	O 	0.76630 0.80460 0.47450 -0.39700
C 	C 	0.63170 0.84520 0.54140 0.21800
N 	N 	0.62540 0.80660 0.54150 -0.22000
H 	H 	0.61440 0.79570 0.56130 0.13500
C 	C 	0.63700 0.78320 0.50850 0.06000
H 	H 	0.62970 0.79720 0.48460 0.05800
C 	C 	0.74380 0.88270 0.50740 -0.36700
C 	C 	0.58730 0.85750 0.60010 -0.01700
H 	H 	0.57250 0.83560 0.59340 0.05100
C 	C 	0.68110 0.77540 0.50710 0.30700
O 	O 	0.86220 0.85430 0.51260 -0.20900
C 	C 	0.77540 0.81830 0.50700 0.32500
C 	C 	0.74540 0.92630 0.50300 0.42400
C 	C 	0.84510 0.86850 0.54150 0.21000
O 	O 	0.77630 0.80075 0.53900 -0.40000
C 	C 	0.57350 0.74550 0.50280 0.43900
O 	O 	0.55590 0.71370 0.50890 -0.42800
O 	O 	0.69930 0.77610 0.53930 -0.39300
O 	O 	0.77720 0.94220 0.49260 -0.39200
C 	C 	0.78360 0.86320 0.50770 0.05000
O 	O 	0.55810 0.77750 0.49260 -0.40600
H 	H 	0.79540 0.88400 0.56230 0.13000
H 	H 	0.73000 0.87760 0.53310 0.14600
H 	H 	0.72700 0.87180 0.48770 0.17400
H 	H 	0.79770 0.86980 0.48450 0.06200
O 	O 	0.64600 0.36250 0.01270 -0.22600
O 	O 	0.69480 0.26600 0.97440 -0.36300
C 	C 	0.90030 0.35770 0.08780 -0.02400
H 	H 	0.90720 0.33620 0.07270 0.05400
C 	C 	0.61730 0.24330 0.00790 -0.44500
H 	H 	0.62820 0.22790 0.98680 0.21500
H 	H 	0.62300 0.22980 0.03230 0.18000
N 	N 	0.80610 0.37460 0.04130 -0.21000
O 	O 	0.71360 0.44450 0.00880 -0.42800
C 	C 	0.86740 0.37990 0.07760 -0.04100
C 	C 	0.62030 0.36780 0.07700 -0.04900
O 	O 	0.76630 0.30460 0.97450 -0.37200
C 	C 	0.63170 0.34520 0.04140 0.21600
N 	N 	0.62540 0.30660 0.04150 -0.21900
H 	H 	0.61440 0.29570 0.06130 0.13500
C 	C 	0.63700 0.28320 0.00850 0.04100
H 	H 	0.62970 0.29720 0.98460 0.08300
C 	C 	0.74380 0.38270 0.00740 -0.40800
C 	C 	0.58730 0.35750 0.10010 -0.01700
H 	H 	0.57250 0.33560 0.09340 0.04900
C 	C 	0.68110 0.27540 0.00710 0.27700
O 	O 	0.86220 0.35430 0.01260 -0.22200
C 	C 	0.77540 0.31830 0.00700 0.29500
C 	C 	0.74540 0.42630 0.00300 0.40300
C 	C 	0.84510 0.36850 0.04150 0.20800
O 	O 	0.77630 0.30075 0.03900 -0.39500
C 	C 	0.57350 0.24550 0.00280 0.41500
O 	O 	0.55590 0.21370 0.00890 -0.43100
O 	O 	0.69930 0.27610 0.03930 -0.38800
O 	O 	0.77720 0.44220 0.99260 -0.37000
C 	C 	0.78360 0.36320 0.00770 0.02800
O 	O 	0.55810 0.27750 0.99260 -0.37300
H 	H 	0.79540 0.38400 0.06230 0.12900
H 	H 	0.73000 0.37760 0.03310 0.15600
H 	H 	0.72700 0.37180 0.98770 0.20700
H 	H 	0.79770 0.36980 0.98450 0.08700
O 	O 	0.14600 0.13750 0.98730 -0.20600
O 	O 	0.19480 0.23400 0.02560 -0.41300
C 	C 	0.40030 0.14230 0.91220 -0.02400
H 	H 	0.40720 0.16380 0.92730 0.05400
C 	C 	0.11730 0.25670 0.99210 -0.36400
H 	H 	0.12820 0.27210 0.01320 0.14800
H 	H 	0.12300 0.27020 0.96770 0.15800
N 	N 	0.30610 0.12540 0.95870 -0.21400
O 	O 	0.21360 0.05550 0.99120 -0.42200
C 	C 	0.36740 0.12010 0.92240 -0.03900
C 	C 	0.12030 0.13220 0.92300 -0.04700
O 	O 	0.26630 0.19540 0.02550 -0.42300
C 	C 	0.13170 0.15480 0.95860 0.22000
N 	N 	0.12540 0.19340 0.95850 -0.22100
H 	H 	0.11440 0.20430 0.93870 0.13500
C 	C 	0.13700 0.21680 0.99150 0.08100
H 	H 	0.12970 0.20280 0.01540 0.03100
C 	C 	0.24380 0.11730 0.99260 -0.33300
C 	C 	0.08730 0.14250 0.89990 -0.01700
H 	H 	0.07250 0.16440 0.90660 0.05000
C 	C 	0.18110 0.22460 0.99290 0.33800
O 	O 	0.36220 0.14570 0.98740 -0.20200
C 	C 	0.27540 0.18170 0.99300 0.35600
C 	C 	0.24540 0.07370 0.99700 0.45300
C 	C 	0.34510 0.13150 0.95850 0.21100
O 	O 	0.27630 0.19925 0.96100 -0.40500
C 	C 	0.07350 0.25450 0.99720 0.46500
O 	O 	0.05590 0.28630 0.99110 -0.42400
O 	O 	0.19930 0.22390 0.96070 -0.39700
O 	O 	0.27720 0.05780 0.00740 -0.43700
C 	C 	0.28360 0.13680 0.99230 0.07600
O 	O 	0.05810 0.22250 0.00740 -0.44000
H 	H 	0.29540 0.11600 0.93770 0.13000
H 	H 	0.23000 0.12240 0.96690 0.13800
H 	H 	0.22700 0.12820 0.01230 0.14000
H 	H 	0.29770 0.13020 0.01550 0.03100
O 	O 	0.14600 0.63750 0.48730 -0.21600
O 	O 	0.19480 0.73400 0.52560 -0.38800
C 	C 	0.40030 0.64230 0.41220 -0.02400
H 	H 	0.40720 0.66380 0.42730 0.05300
C 	C 	0.11730 0.75670 0.49210 -0.40600
H 	H 	0.12820 0.77210 0.51320 0.18200
H 	H 	0.12300 0.77020 0.46770 0.16900
N 	N 	0.30610 0.62540 0.45870 -0.21200
O 	O 	0.21360 0.55550 0.49120 -0.42600
C 	C 	0.36740 0.62010 0.42240 -0.04000
C 	C 	0.12030 0.63220 0.42300 -0.04800
O 	O 	0.26630 0.69540 0.52550 -0.39800
C 	C 	0.13170 0.65480 0.45860 0.21800
N 	N 	0.12540 0.69340 0.45850 -0.22000
H 	H 	0.11440 0.70430 0.43870 0.13500
C 	C 	0.13700 0.71680 0.49150 0.06100
H 	H 	0.12970 0.70280 0.51540 0.05600
C 	C 	0.24380 0.61730 0.49260 -0.37100
C 	C 	0.08730 0.64250 0.39990 -0.01700
H 	H 	0.07250 0.66440 0.40660 0.04900
C 	C 	0.18110 0.72460 0.49290 0.30700
O 	O 	0.36220 0.64570 0.48740 -0.21200
C 	C 	0.27540 0.68170 0.49300 0.32500
C 	C 	0.24540 0.57370 0.49700 0.42800
C 	C 	0.34510 0.63150 0.45850 0.21000
O 	O 	0.27630 0.69925 0.46100 -0.40000
C 	C 	0.07350 0.75450 0.49720 0.44100
O 	O 	0.05590 0.78630 0.49110 -0.43200
O 	O 	0.19930 0.72390 0.46070 -0.39200
O 	O 	0.27720 0.55780 0.50740 -0.40400
C 	C 	0.28360 0.63680 0.49230 0.05200
O 	O 	0.05810 0.72250 0.50740 -0.41200
H 	H 	0.29540 0.61600 0.43770 0.13000
H 	H 	0.23000 0.62240 0.46690 0.14700
H 	H 	0.22700 0.62820 0.51230 0.17400
H 	H 	0.29770 0.63020 0.51550 0.05900
O 	O 	0.64600 0.13750 0.48730 -0.21700
O 	O 	0.69480 0.23400 0.52560 -0.38700
C 	C 	0.90030 0.14230 0.41220 -0.02400
H 	H 	0.90720 0.16380 0.42730 0.05400
C 	C 	0.61730 0.25670 0.49210 -0.40500
H 	H 	0.62820 0.27210 0.51320 0.18200
H 	H 	0.62300 0.27020 0.46770 0.16900
N 	N 	0.80610 0.12540 0.45870 -0.21200
O 	O 	0.71360 0.05550 0.49120 -0.43000
C 	C 	0.86740 0.12010 0.42240 -0.04000
C 	C 	0.62030 0.13220 0.42300 -0.04800
O 	O 	0.76630 0.19540 0.52550 -0.39800
C 	C 	0.63170 0.15480 0.45860 0.21800
N 	N 	0.62540 0.19340 0.45850 -0.22000
H 	H 	0.61440 0.20430 0.43870 0.13500
C 	C 	0.63700 0.21680 0.49150 0.06100
H 	H 	0.62970 0.20280 0.51540 0.05700
C 	C 	0.74380 0.11730 0.49260 -0.37200
C 	C 	0.58730 0.14250 0.39990 -0.01700
H 	H 	0.57250 0.16440 0.40660 0.05000
C 	C 	0.68110 0.22460 0.49290 0.30700
O 	O 	0.86220 0.14570 0.48740 -0.21200
C 	C 	0.77540 0.18170 0.49300 0.32500
C 	C 	0.74540 0.07370 0.49700 0.42900
C 	C 	0.84510 0.13150 0.45850 0.20900
O 	O 	0.77630 0.19925 0.46100 -0.40000
C 	C 	0.57350 0.25450 0.49720 0.44000
O 	O 	0.55590 0.28630 0.49110 -0.42800
O 	O 	0.69930 0.22390 0.46070 -0.39200
O 	O 	0.77720 0.05780 0.50740 -0.40800
C 	C 	0.78360 0.13680 0.49230 0.05300
O 	O 	0.55810 0.22250 0.50740 -0.40700
H 	H 	0.79540 0.11600 0.43770 0.13000
H 	H 	0.73000 0.12240 0.46690 0.14700
H 	H 	0.72700 0.12820 0.51230 0.17400
H 	H 	0.79770 0.13020 0.51550 0.05800
O 	O 	0.64600 0.63750 0.98730 -0.20300
O 	O 	0.69480 0.73400 0.02560 -0.41200
C 	C 	0.90030 0.64230 0.91220 -0.02400
H 	H 	0.90720 0.66380 0.92730 0.05600
C 	C 	0.61730 0.75670 0.99210 -0.36200
H 	H 	0.62820 0.77210 0.01320 0.14900
H 	H 	0.62300 0.77020 0.96770 0.15700
N 	N 	0.80610 0.62540 0.95870 -0.21300
O 	O 	0.71360 0.55550 0.99120 -0.41600
C 	C 	0.86740 0.62010 0.92240 -0.03700
C 	C 	0.62030 0.63220 0.92300 -0.04500
O 	O 	0.76630 0.69540 0.02550 -0.42200
C 	C 	0.63170 0.65480 0.95860 0.22000
N 	N 	0.62540 0.69340 0.95850 -0.22100
H 	H 	0.61440 0.70430 0.93870 0.13500
C 	C 	0.63700 0.71680 0.99150 0.08000
H 	H 	0.62970 0.70280 0.01540 0.03300
C 	C 	0.74380 0.61730 0.99260 -0.33100
C 	C 	0.58730 0.64250 0.89990 -0.01700
H 	H 	0.57250 0.66440 0.90660 0.05200
C 	C 	0.68110 0.72460 0.99290 0.33800
O 	O 	0.86220 0.64570 0.98740 -0.19900
C 	C 	0.77540 0.68170 0.99300 0.35500
C 	C 	0.74540 0.57370 0.99700 0.45100
C 	C 	0.84510 0.63150 0.95850 0.21100
O 	O 	0.77630 0.69925 0.96100 -0.40500
C 	C 	0.57350 0.75450 0.99720 0.46200
O 	O 	0.55590 0.78630 0.99110 -0.41900
O 	O 	0.69930 0.72390 0.96070 -0.39700
O 	O 	0.77720 0.55780 0.00740 -0.43100
C 	C 	0.78360 0.63680 0.99230 0.07500
O 	O 	0.55810 0.72250 0.00740 -0.43400
H 	H 	0.79540 0.61600 0.93770 0.13000
H 	H 	0.73000 0.62240 0.96690 0.13700
H 	H 	0.72700 0.62820 0.01230 0.14100
H 	H 	0.79770 0.63020 0.01550 0.03300
O 	O 	0.85400 0.86250 0.98730 -0.19900
O 	O 	0.80520 0.76600 0.02560 -0.41100
C 	C 	0.59970 0.85770 0.91220 -0.02400
H 	H 	0.59280 0.83620 0.92730 0.05500
C 	C 	0.88270 0.74330 0.99210 -0.35900
H 	H 	0.87180 0.72790 0.01320 0.14900
H 	H 	0.87700 0.72980 0.96770 0.15700
N 	N 	0.69390 0.87460 0.95870 -0.21300
O 	O 	0.78640 0.94450 0.99120 -0.40500
C 	C 	0.63260 0.87990 0.92240 -0.03700
C 	C 	0.87970 0.86780 0.92300 -0.04200
O 	O 	0.73370 0.80460 0.02550 -0.42200
C 	C 	0.86830 0.84520 0.95860 0.22000
N 	N 	0.87460 0.80660 0.95850 -0.22000
H 	H 	0.88560 0.79570 0.93870 0.13500
C 	C 	0.86300 0.78320 0.99150 0.07800
H 	H 	0.87030 0.79720 0.01540 0.03500
C 	C 	0.75620 0.88270 0.99260 -0.32900
C 	C 	0.91270 0.85750 0.89990 -0.01700
H 	H 	0.92750 0.83560 0.90660 0.05400
C 	C 	0.81890 0.77540 0.99290 0.33800
O 	O 	0.63780 0.85430 0.98740 -0.19900
C 	C 	0.72460 0.81830 0.99300 0.35600
C 	C 	0.75460 0.92630 0.99700 0.44700
C 	C 	0.65490 0.86850 0.95850 0.21200
O 	O 	0.72370 0.80075 0.96100 -0.40500
C 	C 	0.92650 0.74550 0.99720 0.45800
O 	O 	0.94410 0.71370 0.99110 -0.40900
O 	O 	0.80070 0.77610 0.96070 -0.39700
O 	O 	0.72280 0.94220 0.00740 -0.42000
C 	C 	0.71640 0.86320 0.99230 0.07400
O 	O 	0.94190 0.77750 0.00740 -0.42200
H 	H 	0.70460 0.88400 0.93770 0.13000
H 	H 	0.77000 0.87760 0.96690 0.13700
H 	H 	0.77300 0.87180 0.01230 0.14100
H 	H 	0.70230 0.86980 0.01550 0.03500
O 	O 	0.85400 0.36250 0.48730 -0.21300
O 	O 	0.80520 0.26600 0.52560 -0.38700
C 	C 	0.59970 0.35770 0.41220 -0.02400
H 	H 	0.59280 0.33620 0.42730 0.05300
C 	C 	0.88270 0.24330 0.49210 -0.40100
H 	H 	0.87180 0.22790 0.51320 0.18200
H 	H 	0.87700 0.22980 0.46770 0.16800
N 	N 	0.69390 0.37460 0.45870 -0.21200
O 	O 	0.78640 0.44450 0.49120 -0.42400
C 	C 	0.63260 0.37990 0.42240 -0.04000
C 	C 	0.87970 0.36780 0.42300 -0.04500
O 	O 	0.73370 0.30460 0.52550 -0.39700
C 	C 	0.86830 0.34520 0.45860 0.21900
N 	N 	0.87460 0.30660 0.45850 -0.22000
H 	H 	0.88560 0.29570 0.43870 0.13500
C 	C 	0.86300 0.28320 0.49150 0.05900
H 	H 	0.87030 0.29720 0.51540 0.05900
C 	C 	0.75620 0.38270 0.49260 -0.37100
C 	C 	0.91270 0.35750 0.39990 -0.01700
H 	H 	0.92750 0.33560 0.40660 0.05200
C 	C 	0.81890 0.27540 0.49290 0.30800
O 	O 	0.63780 0.35430 0.48740 -0.21200
C 	C 	0.72460 0.31830 0.49300 0.32500
C 	C 	0.75460 0.42630 0.49700 0.42800
C 	C 	0.65490 0.36850 0.45850 0.21000
O 	O 	0.72370 0.30075 0.46100 -0.40000
C 	C 	0.92650 0.24550 0.49720 0.43600
O 	O 	0.94410 0.21370 0.49110 -0.41800
O 	O 	0.80070 0.27610 0.46070 -0.39200
O 	O 	0.72280 0.44220 0.50740 -0.40400
C 	C 	0.71640 0.36320 0.49230 0.05200
O 	O 	0.94190 0.27750 0.50740 -0.39600
H 	H 	0.70460 0.38400 0.43770 0.13000
H 	H 	0.77000 0.37760 0.46690 0.14700
H 	H 	0.77300 0.37180 0.51230 0.17400
H 	H 	0.70230 0.36980 0.51550 0.05900
O 	O 	0.35400 0.86250 0.48730 -0.21300
O 	O 	0.30520 0.76600 0.52560 -0.38700
C 	C 	0.09970 0.85770 0.41220 -0.02400
H 	H 	0.09280 0.83620 0.42730 0.05200
C 	C 	0.38270 0.74330 0.49210 -0.40400
H 	H 	0.37180 0.72790 0.51320 0.18200
H 	H 	0.37700 0.72980 0.46770 0.16900
N 	N 	0.19390 0.87460 0.45870 -0.21200
O 	O 	0.28640 0.94450 0.49120 -0.41400
C 	C 	0.13260 0.87990 0.42240 -0.04000
C 	C 	0.37970 0.86780 0.42300 -0.04500
O 	O 	0.23370 0.80460 0.52550 -0.39700
C 	C 	0.36830 0.84520 0.45860 0.21800
N 	N 	0.37460 0.80660 0.45850 -0.22000
H 	H 	0.38560 0.79570 0.43870 0.13500
C 	C 	0.36300 0.78320 0.49150 0.06000
H 	H 	0.37030 0.79720 0.51540 0.05800
C 	C 	0.25620 0.88270 0.49260 -0.36800
C 	C 	0.41270 0.85750 0.39990 -0.01700
H 	H 	0.42750 0.83560 0.40660 0.05100
C 	C 	0.31890 0.77540 0.49290 0.30700
O 	O 	0.13780 0.85430 0.48740 -0.21200
C 	C 	0.22460 0.81830 0.49300 0.32500
C 	C 	0.25460 0.92630 0.49700 0.42400
C 	C 	0.15490 0.86850 0.45850 0.21000
O 	O 	0.22370 0.80075 0.46100 -0.40000
C 	C 	0.42650 0.74550 0.49720 0.43900
O 	O 	0.44410 0.71370 0.49110 -0.42800
O 	O 	0.30070 0.77610 0.46070 -0.39200
O 	O 	0.22280 0.94220 0.50740 -0.39300
C 	C 	0.21640 0.86320 0.49230 0.05100
O 	O 	0.44190 0.77750 0.50740 -0.40600
H 	H 	0.20460 0.88400 0.43770 0.13000
H 	H 	0.27000 0.87760 0.46690 0.14600
H 	H 	0.27300 0.87180 0.51230 0.17400
H 	H 	0.20230 0.86980 0.51550 0.06000
O 	O 	0.35400 0.36250 0.98730 -0.20300
O 	O 	0.30520 0.26600 0.02560 -0.41200
C 	C 	0.09970 0.35770 0.91220 -0.02400
H 	H 	0.09280 0.33620 0.92730 0.05400
C 	C 	0.38270 0.24330 0.99210 -0.36200
H 	H 	0.37180 0.22790 0.01320 0.14800
H 	H 	0.37700 0.22980 0.96770 0.15700
N 	N 	0.19390 0.37460 0.95870 -0.21400
O 	O 	0.28640 0.44450 0.99120 -0.41600
C 	C 	0.13260 0.37990 0.92240 -0.03900
C 	C 	0.37970 0.36780 0.92300 -0.04500
O 	O 	0.23370 0.30460 0.02550 -0.42300
C 	C 	0.36830 0.34520 0.95860 0.22000
N 	N 	0.37460 0.30660 0.95850 -0.22100
H 	H 	0.38560 0.29570 0.93870 0.13500
C 	C 	0.36300 0.28320 0.99150 0.08000
H 	H 	0.37030 0.29720 0.01540 0.03200
C 	C 	0.25620 0.38270 0.99260 -0.33200
C 	C 	0.41270 0.35750 0.89990 -0.01700
H 	H 	0.42750 0.33560 0.90660 0.05200
C 	C 	0.31890 0.27540 0.99290 0.33800
O 	O 	0.13780 0.35430 0.98740 -0.20200
C 	C 	0.22460 0.31830 0.99300 0.35600
C 	C 	0.25460 0.42630 0.99700 0.45100
C 	C 	0.15490 0.36850 0.95850 0.21200
O 	O 	0.22370 0.30075 0.96100 -0.40500
C 	C 	0.42650 0.24550 0.99720 0.46300
O 	O 	0.44410 0.21370 0.99110 -0.42000
O 	O 	0.30070 0.27610 0.96070 -0.39700
O 	O 	0.22280 0.44220 0.00740 -0.43200
C 	C 	0.21640 0.36320 0.99230 0.07600
O 	O 	0.44190 0.27750 0.00740 -0.43400
H 	H 	0.20460 0.38400 0.93770 0.13000
H 	H 	0.27000 0.37760 0.96690 0.13700
H 	H 	0.27300 0.37180 0.01230 0.14000
H 	H 	0.20230 0.36980 0.01550 0.03200
O 	O 	0.01270 0.85400 0.13750 -0.22600
O 	O 	0.97440 0.80520 0.23400 -0.36200
C 	C 	0.08780 0.59970 0.14230 -0.02400
H 	H 	0.07270 0.59280 0.16380 0.05200
C 	C 	0.00790 0.88270 0.25670 -0.44200
H 	H 	0.98680 0.87180 0.27210 0.21500
H 	H 	0.03230 0.87700 0.27020 0.17900
N 	N 	0.04130 0.69390 0.12540 -0.21100
O 	O 	0.00880 0.78640 0.05550 -0.43200
C 	C 	0.07760 0.63260 0.12010 -0.04300
C 	C 	0.07700 0.87970 0.13220 -0.04800
O 	O 	0.97450 0.73370 0.19540 -0.37300
C 	C 	0.04140 0.86830 0.15480 0.21700
N 	N 	0.04150 0.87460 0.19340 -0.21900
H 	H 	0.06130 0.88560 0.20430 0.13500
C 	C 	0.00850 0.86300 0.21680 0.04000
H 	H 	0.98460 0.87030 0.20280 0.08300
C 	C 	0.00740 0.75620 0.11730 -0.41000
C 	C 	0.10010 0.91270 0.14250 -0.01700
H 	H 	0.09340 0.92750 0.16440 0.05000
C 	C 	0.00710 0.81890 0.22460 0.27700
O 	O 	0.01260 0.63780 0.14570 -0.22500
C 	C 	0.00700 0.72460 0.18170 0.29400
C 	C 	0.00300 0.75460 0.07370 0.40400
C 	C 	0.04150 0.65490 0.13150 0.20800
O 	O 	0.03900 0.72370 0.19925 -0.39500
C 	C 	0.00280 0.92650 0.25450 0.41200
O 	O 	0.00890 0.94410 0.28630 -0.42000
O 	O 	0.03930 0.80070 0.22390 -0.38800
O 	O 	0.99260 0.72280 0.05780 -0.37600
C 	C 	0.00770 0.71640 0.13680 0.02900
O 	O 	0.99260 0.94190 0.22250 -0.36300
H 	H 	0.06230 0.70460 0.11600 0.12900
H 	H 	0.03310 0.77000 0.12240 0.15600
H 	H 	0.98770 0.77300 0.12820 0.20700
H 	H 	0.98450 0.70230 0.13020 0.08500
O 	O 	0.01270 0.35400 0.63750 -0.22600
O 	O 	0.97440 0.30520 0.73400 -0.36200
C 	C 	0.08780 0.09970 0.64230 -0.02400
H 	H 	0.07270 0.09280 0.66380 0.05100
C 	C 	0.00790 0.38270 0.75670 -0.44500
H 	H 	0.98680 0.37180 0.77210 0.21600
H 	H 	0.03230 0.37700 0.77020 0.18000
N 	N 	0.04130 0.19390 0.62540 -0.21100
O 	O 	0.00880 0.28640 0.55550 -0.42800
C 	C 	0.07760 0.13260 0.62010 -0.04300
C 	C 	0.07700 0.37970 0.63220 -0.04900
O 	O 	0.97450 0.23370 0.69540 -0.37300
C 	C 	0.04140 0.36830 0.65480 0.21600
N 	N 	0.04150 0.37460 0.69340 -0.21900
H 	H 	0.06130 0.38560 0.70430 0.13500
C 	C 	0.00850 0.36300 0.71680 0.04100
H 	H 	0.98460 0.37030 0.70280 0.08300
C 	C 	0.00740 0.25620 0.61730 -0.40900
C 	C 	0.10010 0.41270 0.64250 -0.01700
H 	H 	0.09340 0.42750 0.66440 0.04900
C 	C 	0.00710 0.31890 0.72460 0.27700
O 	O 	0.01260 0.13780 0.64570 -0.22600
C 	C 	0.00700 0.22460 0.68170 0.29400
C 	C 	0.00300 0.25460 0.57370 0.40300
C 	C 	0.04150 0.15490 0.63150 0.20800
O 	O 	0.03900 0.22370 0.69925 -0.39500
C 	C 	0.00280 0.42650 0.75450 0.41500
O 	O 	0.00890 0.44410 0.78630 -0.43000
O 	O 	0.03930 0.30070 0.72390 -0.38800
O 	O 	0.99260 0.22280 0.55780 -0.37100
C 	C 	0.00770 0.21640 0.63680 0.02900
O 	O 	0.99260 0.44190 0.72250 -0.37300
H 	H 	0.06230 0.20460 0.61600 0.13000
H 	H 	0.03310 0.27000 0.62240 0.15600
H 	H 	0.98770 0.27300 0.62820 0.20700
H 	H 	0.98450 0.20230 0.63020 0.08600
O 	O 	0.51270 0.85400 0.63750 -0.21300
O 	O 	0.47440 0.80520 0.73400 -0.38700
C 	C 	0.58780 0.59970 0.64230 -0.02400
H 	H 	0.57270 0.59280 0.66380 0.05300
C 	C 	0.50790 0.88270 0.75670 -0.40100
H 	H 	0.48680 0.87180 0.77210 0.18200
H 	H 	0.53230 0.87700 0.77020 0.16800
N 	N 	0.54130 0.69390 0.62540 -0.21200
O 	O 	0.50880 0.78640 0.55550 -0.42400
C 	C 	0.57760 0.63260 0.62010 -0.04000
C 	C 	0.57700 0.87970 0.63220 -0.04500
O 	O 	0.47450 0.73370 0.69540 -0.39700
C 	C 	0.54140 0.86830 0.65480 0.21800
N 	N 	0.54150 0.87460 0.69340 -0.22000
H 	H 	0.56130 0.88560 0.70430 0.13500
C 	C 	0.50850 0.86300 0.71680 0.05900
H 	H 	0.48460 0.87030 0.70280 0.05900
C 	C 	0.50740 0.75620 0.61730 -0.37100
C 	C 	0.60010 0.91270 0.64250 -0.01700
H 	H 	0.59340 0.92750 0.66440 0.05200
C 	C 	0.50710 0.81890 0.72460 0.30700
O 	O 	0.51260 0.63780 0.64570 -0.21200
C 	C 	0.50700 0.72460 0.68170 0.32500
C 	C 	0.50300 0.75460 0.57370 0.42800
C 	C 	0.54150 0.65490 0.63150 0.21000
O 	O 	0.53900 0.72370 0.69925 -0.40000
C 	C 	0.50280 0.92650 0.75450 0.43600
O 	O 	0.50890 0.94410 0.78630 -0.41700
O 	O 	0.53930 0.80070 0.72390 -0.39300
O 	O 	0.49260 0.72280 0.55780 -0.40400
C 	C 	0.50770 0.71640 0.63680 0.05200
O 	O 	0.49260 0.94190 0.72250 -0.39600
H 	H 	0.56230 0.70460 0.61600 0.13000
H 	H 	0.53310 0.77000 0.62240 0.14700
H 	H 	0.48770 0.77300 0.62820 0.17400
H 	H 	0.48450 0.70230 0.63020 0.05900
O 	O 	0.51270 0.35400 0.13750 -0.21700
O 	O 	0.47440 0.30520 0.23400 -0.38800
C 	C 	0.58780 0.09970 0.14230 -0.02400
H 	H 	0.57270 0.09280 0.16380 0.05200
C 	C 	0.50790 0.38270 0.25670 -0.40500
H 	H 	0.48680 0.37180 0.27210 0.18200
H 	H 	0.53230 0.37700 0.27020 0.16900
N 	N 	0.54130 0.19390 0.12540 -0.21300
O 	O 	0.50880 0.28640 0.05550 -0.43000
C 	C 	0.57760 0.13260 0.12010 -0.04300
C 	C 	0.57700 0.37970 0.13220 -0.04800
O 	O 	0.47450 0.23370 0.19540 -0.39800
C 	C 	0.54140 0.36830 0.15480 0.21800
N 	N 	0.54150 0.37460 0.19340 -0.22000
H 	H 	0.56130 0.38560 0.20430 0.13500
C 	C 	0.50850 0.36300 0.21680 0.06100
H 	H 	0.48460 0.37030 0.20280 0.05700
C 	C 	0.50740 0.25620 0.11730 -0.37300
C 	C 	0.60010 0.41270 0.14250 -0.01700
H 	H 	0.59340 0.42750 0.16440 0.05000
C 	C 	0.50710 0.31890 0.22460 0.30700
O 	O 	0.51260 0.13780 0.14570 -0.21600
C 	C 	0.50700 0.22460 0.18170 0.32500
C 	C 	0.50300 0.25460 0.07370 0.43000
C 	C 	0.54150 0.15490 0.13150 0.20900
O 	O 	0.53900 0.22370 0.19925 -0.40000
C 	C 	0.50280 0.42650 0.25450 0.44000
O 	O 	0.50890 0.44410 0.28630 -0.42800
O 	O 	0.53930 0.30070 0.22390 -0.39200
O 	O 	0.49260 0.22280 0.05780 -0.41000
C 	C 	0.50770 0.21640 0.13680 0.05300
O 	O 	0.49260 0.44190 0.22250 -0.40700
H 	H 	0.56230 0.20460 0.11600 0.13000
H 	H 	0.53310 0.27000 0.12240 0.14700
H 	H 	0.48770 0.27300 0.12820 0.17400
H 	H 	0.48450 0.20230 0.13020 0.05700
O 	O 	0.01270 0.14600 0.86250 -0.22600
O 	O 	0.97440 0.19480 0.76600 -0.36300
C 	C 	0.08780 0.40030 0.85770 -0.02400
H 	H 	0.07270 0.40720 0.83620 0.05200
C 	C 	0.00790 0.11730 0.74330 -0.44600
H 	H 	0.98680 0.12820 0.72790 0.21500
H 	H 	0.03230 0.12300 0.72980 0.18000
N 	N 	0.04130 0.30610 0.87460 -0.21000
O 	O 	0.00880 0.21360 0.94450 -0.41800
C 	C 	0.07760 0.36740 0.87990 -0.04100
C 	C 	0.07700 0.12030 0.86780 -0.04900
O 	O 	0.97450 0.26630 0.80460 -0.37200
C 	C 	0.04140 0.13170 0.84520 0.21600
N 	N 	0.04150 0.12540 0.80660 -0.21900
H 	H 	0.06130 0.11440 0.79570 0.13500
C 	C 	0.00850 0.13700 0.78320 0.04100
H 	H 	0.98460 0.12970 0.79720 0.08200
C 	C 	0.00740 0.24380 0.88270 -0.40500
C 	C 	0.10010 0.08730 0.85750 -0.01800
H 	H 	0.09340 0.07250 0.83560 0.04800
C 	C 	0.00710 0.18110 0.77540 0.27700
O 	O 	0.01260 0.36220 0.85430 -0.22200
C 	C 	0.00700 0.27540 0.81830 0.29500
C 	C 	0.00300 0.24540 0.92630 0.39900
C 	C 	0.04150 0.34510 0.86850 0.20800
O 	O 	0.03900 0.27630 0.80075 -0.39500
C 	C 	0.00280 0.07350 0.74550 0.41600
O 	O 	0.00890 0.05590 0.71370 -0.43500
O 	O 	0.03930 0.19930 0.77610 -0.38800
O 	O 	0.99260 0.27720 0.94220 -0.36000
C 	C 	0.00770 0.28360 0.86320 0.02700
O 	O 	0.99260 0.05810 0.77750 -0.37800
H 	H 	0.06230 0.29540 0.88400 0.13000
H 	H 	0.03310 0.23000 0.87760 0.15500
H 	H 	0.98770 0.22700 0.87180 0.20600
H 	H 	0.98450 0.29770 0.86980 0.08800
O 	O 	0.01270 0.64600 0.36250 -0.22600
O 	O 	0.97440 0.69480 0.26600 -0.36300
C 	C 	0.08780 0.90030 0.35770 -0.02400
H 	H 	0.07270 0.90720 0.33620 0.05400
C 	C 	0.00790 0.61730 0.24330 -0.44500
H 	H 	0.98680 0.62820 0.22790 0.21500
H 	H 	0.03230 0.62300 0.22980 0.18000
N 	N 	0.04130 0.80610 0.37460 -0.21000
O 	O 	0.00880 0.71360 0.44450 -0.42800
C 	C 	0.07760 0.86740 0.37990 -0.04100
C 	C 	0.07700 0.62030 0.36780 -0.04900
O 	O 	0.97450 0.76630 0.30460 -0.37200
C 	C 	0.04140 0.63170 0.34520 0.21600
N 	N 	0.04150 0.62540 0.30660 -0.21900
H 	H 	0.06130 0.61440 0.29570 0.13500
C 	C 	0.00850 0.63700 0.28320 0.04100
H 	H 	0.98460 0.62970 0.29720 0.08300
C 	C 	0.00740 0.74380 0.38270 -0.40800
C 	C 	0.10010 0.58730 0.35750 -0.01700
H 	H 	0.09340 0.57250 0.33560 0.04900
C 	C 	0.00710 0.68110 0.27540 0.27700
O 	O 	0.01260 0.86220 0.35430 -0.22200
C 	C 	0.00700 0.77540 0.31830 0.29500
C 	C 	0.00300 0.74540 0.42630 0.40300
C 	C 	0.04150 0.84510 0.36850 0.20800
O 	O 	0.03900 0.77630 0.30075 -0.39500
C 	C 	0.00280 0.57350 0.24550 0.41500
O 	O 	0.00890 0.55590 0.21370 -0.43100
O 	O 	0.03930 0.69930 0.27610 -0.38800
O 	O 	0.99260 0.77720 0.44220 -0.37000
C 	C 	0.00770 0.78360 0.36320 0.02800
O 	O 	0.99260 0.55810 0.27750 -0.37300
H 	H 	0.06230 0.79540 0.38400 0.12900
H 	H 	0.03310 0.73000 0.37760 0.15600
H 	H 	0.98770 0.72700 0.37180 0.20700
H 	H 	0.98450 0.79770 0.36980 0.08700
O 	O 	0.51270 0.14600 0.36250 -0.21600
O 	O 	0.47440 0.19480 0.26600 -0.38800
C 	C 	0.58780 0.40030 0.35770 -0.02400
H 	H 	0.57270 0.40720 0.33620 0.05300
C 	C 	0.50790 0.11730 0.24330 -0.40600
H 	H 	0.48680 0.12820 0.22790 0.18200
H 	H 	0.53230 0.12300 0.22980 0.16900
N 	N 	0.54130 0.30610 0.37460 -0.21200
O 	O 	0.50880 0.21360 0.44450 -0.42600
C 	C 	0.57760 0.36740 0.37990 -0.04000
C 	C 	0.57700 0.12030 0.36780 -0.04800
O 	O 	0.47450 0.26630 0.30460 -0.39800
C 	C 	0.54140 0.13170 0.34520 0.21800
N 	N 	0.54150 0.12540 0.30660 -0.22000
H 	H 	0.56130 0.11440 0.29570 0.13500
C 	C 	0.50850 0.13700 0.28320 0.06100
H 	H 	0.48460 0.12970 0.29720 0.05600
C 	C 	0.50740 0.24380 0.38270 -0.37100
C 	C 	0.60010 0.08730 0.35750 -0.01700
H 	H 	0.59340 0.07250 0.33560 0.04900
C 	C 	0.50710 0.18110 0.27540 0.30700
O 	O 	0.51260 0.36220 0.35430 -0.21200
C 	C 	0.50700 0.27540 0.31830 0.32500
C 	C 	0.50300 0.24540 0.42630 0.42800
C 	C 	0.54150 0.34510 0.36850 0.21000
O 	O 	0.53900 0.27630 0.30075 -0.40000
C 	C 	0.50280 0.07350 0.24550 0.44100
O 	O 	0.50890 0.05590 0.21370 -0.43300
O 	O 	0.53930 0.19930 0.27610 -0.39200
O 	O 	0.49260 0.27720 0.44220 -0.40400
C 	C 	0.50770 0.28360 0.36320 0.05200
O 	O 	0.49260 0.05810 0.27750 -0.41200
H 	H 	0.56230 0.29540 0.38400 0.13000
H 	H 	0.53310 0.23000 0.37760 0.14700
H 	H 	0.48770 0.22700 0.37180 0.17400
H 	H 	0.48450 0.29770 0.36980 0.05900
O 	O 	0.51270 0.64600 0.86250 -0.21300
O 	O 	0.47440 0.69480 0.76600 -0.38700
C 	C 	0.58780 0.90030 0.85770 -0.02400
H 	H 	0.57270 0.90720 0.83620 0.05500
C 	C 	0.50790 0.61730 0.74330 -0.40400
H 	H 	0.48680 0.62820 0.72790 0.18200
H 	H 	0.53230 0.62300 0.72980 0.16900
N 	N 	0.54130 0.80610 0.87460 -0.21100
O 	O 	0.50880 0.71360 0.94450 -0.41400
C 	C 	0.57760 0.86740 0.87990 -0.03800
C 	C 	0.57700 0.62030 0.86780 -0.04500
O 	O 	0.47450 0.76630 0.80460 -0.39700
C 	C 	0.54140 0.63170 0.84520 0.21800
N 	N 	0.54150 0.62540 0.80660 -0.22000
H 	H 	0.56130 0.61440 0.79570 0.13500
C 	C 	0.50850 0.63700 0.78320 0.06000
H 	H 	0.48460 0.62970 0.79720 0.05800
C 	C 	0.50740 0.74380 0.88270 -0.36700
C 	C 	0.60010 0.58730 0.85750 -0.01700
H 	H 	0.59340 0.57250 0.83560 0.05100
C 	C 	0.50710 0.68110 0.77540 0.30700
O 	O 	0.51260 0.86220 0.85430 -0.20900
C 	C 	0.50700 0.77540 0.81830 0.32500
C 	C 	0.50300 0.74540 0.92630 0.42400
C 	C 	0.54150 0.84510 0.86850 0.21000
O 	O 	0.53900 0.77630 0.80075 -0.40000
C 	C 	0.50280 0.57350 0.74550 0.43900
O 	O 	0.50890 0.55590 0.71370 -0.42800
O 	O 	0.53930 0.69930 0.77610 -0.39300
O 	O 	0.49260 0.77720 0.94220 -0.39200
C 	C 	0.50770 0.78360 0.86320 0.05000
O 	O 	0.49260 0.55810 0.77750 -0.40600
H 	H 	0.56230 0.79540 0.88400 0.13000
H 	H 	0.53310 0.73000 0.87760 0.14600
H 	H 	0.48770 0.72700 0.87180 0.17400
H 	H 	0.48450 0.79770 0.86980 0.06200
O 	O 	0.98730 0.14600 0.13750 -0.20600
O 	O 	0.02560 0.19480 0.23400 -0.41300
C 	C 	0.91220 0.40030 0.14230 -0.02400
H 	H 	0.92730 0.40720 0.16380 0.05400
C 	C 	0.99210 0.11730 0.25670 -0.36400
H 	H 	0.01320 0.12820 0.27210 0.14800
H 	H 	0.96770 0.12300 0.27020 0.15800
N 	N 	0.95870 0.30610 0.12540 -0.21400
O 	O 	0.99120 0.21360 0.05550 -0.42200
C 	C 	0.92240 0.36740 0.12010 -0.03900
C 	C 	0.92300 0.12030 0.13220 -0.04700
O 	O 	0.02550 0.26630 0.19540 -0.42300
C 	C 	0.95860 0.13170 0.15480 0.22000
N 	N 	0.95850 0.12540 0.19340 -0.22100
H 	H 	0.93870 0.11440 0.20430 0.13500
C 	C 	0.99150 0.13700 0.21680 0.08100
H 	H 	0.01540 0.12970 0.20280 0.03100
C 	C 	0.99260 0.24380 0.11730 -0.33300
C 	C 	0.89990 0.08730 0.14250 -0.01700
H 	H 	0.90660 0.07250 0.16440 0.05000
C 	C 	0.99290 0.18110 0.22460 0.33800
O 	O 	0.98740 0.36220 0.14570 -0.20200
C 	C 	0.99300 0.27540 0.18170 0.35600
C 	C 	0.99700 0.24540 0.07370 0.45300
C 	C 	0.95850 0.34510 0.13150 0.21100
O 	O 	0.96100 0.27630 0.19925 -0.40500
C 	C 	0.99720 0.07350 0.25450 0.46500
O 	O 	0.99110 0.05590 0.28630 -0.42400
O 	O 	0.96070 0.19930 0.22390 -0.39700
O 	O 	0.00740 0.27720 0.05780 -0.43700
C 	C 	0.99230 0.28360 0.13680 0.07600
O 	O 	0.00740 0.05810 0.22250 -0.44000
H 	H 	0.93770 0.29540 0.11600 0.13000
H 	H 	0.96690 0.23000 0.12240 0.13800
H 	H 	0.01230 0.22700 0.12820 0.14000
H 	H 	0.01550 0.29770 0.13020 0.03100
O 	O 	0.98730 0.64600 0.63750 -0.20300
O 	O 	0.02560 0.69480 0.73400 -0.41200
C 	C 	0.91220 0.90030 0.64230 -0.02400
H 	H 	0.92730 0.90720 0.66380 0.05600
C 	C 	0.99210 0.61730 0.75670 -0.36200
H 	H 	0.01320 0.62820 0.77210 0.14900
H 	H 	0.96770 0.62300 0.77020 0.15700
N 	N 	0.95870 0.80610 0.62540 -0.21300
O 	O 	0.99120 0.71360 0.55550 -0.41600
C 	C 	0.92240 0.86740 0.62010 -0.03700
C 	C 	0.92300 0.62030 0.63220 -0.04500
O 	O 	0.02550 0.76630 0.69540 -0.42200
C 	C 	0.95860 0.63170 0.65480 0.22000
N 	N 	0.95850 0.62540 0.69340 -0.22100
H 	H 	0.93870 0.61440 0.70430 0.13500
C 	C 	0.99150 0.63700 0.71680 0.08000
H 	H 	0.01540 0.62970 0.70280 0.03300
C 	C 	0.99260 0.74380 0.61730 -0.33100
C 	C 	0.89990 0.58730 0.64250 -0.01700
H 	H 	0.90660 0.57250 0.66440 0.05200
C 	C 	0.99290 0.68110 0.72460 0.33800
O 	O 	0.98740 0.86220 0.64570 -0.19900
C 	C 	0.99300 0.77540 0.68170 0.35500
C 	C 	0.99700 0.74540 0.57370 0.45100
C 	C 	0.95850 0.84510 0.63150 0.21100
O 	O 	0.96100 0.77630 0.69925 -0.40500
C 	C 	0.99720 0.57350 0.75450 0.46200
O 	O 	0.99110 0.55590 0.78630 -0.41900
O 	O 	0.96070 0.69930 0.72390 -0.39700
O 	O 	0.00740 0.77720 0.55780 -0.43100
C 	C 	0.99230 0.78360 0.63680 0.07500
O 	O 	0.00740 0.55810 0.72250 -0.43400
H 	H 	0.93770 0.79540 0.61600 0.13000
H 	H 	0.96690 0.73000 0.62240 0.13700
H 	H 	0.01230 0.72700 0.62820 0.14100
H 	H 	0.01550 0.79770 0.63020 0.03300
O 	O 	0.48730 0.14600 0.63750 -0.21600
O 	O 	0.52560 0.19480 0.73400 -0.38800
C 	C 	0.41220 0.40030 0.64230 -0.02400
H 	H 	0.42730 0.40720 0.66380 0.05300
C 	C 	0.49210 0.11730 0.75670 -0.40600
H 	H 	0.51320 0.12820 0.77210 0.18200
H 	H 	0.46770 0.12300 0.77020 0.16900
N 	N 	0.45870 0.30610 0.62540 -0.21200
O 	O 	0.49120 0.21360 0.55550 -0.42600
C 	C 	0.42240 0.36740 0.62010 -0.04000
C 	C 	0.42300 0.12030 0.63220 -0.04800
O 	O 	0.52550 0.26630 0.69540 -0.39800
C 	C 	0.45860 0.13170 0.65480 0.21800
N 	N 	0.45850 0.12540 0.69340 -0.22000
H 	H 	0.43870 0.11440 0.70430 0.13500
C 	C 	0.49150 0.13700 0.71680 0.06100
H 	H 	0.51540 0.12970 0.70280 0.05600
C 	C 	0.49260 0.24380 0.61730 -0.37100
C 	C 	0.39990 0.08730 0.64250 -0.01700
H 	H 	0.40660 0.07250 0.66440 0.04900
C 	C 	0.49290 0.18110 0.72460 0.30700
O 	O 	0.48740 0.36220 0.64570 -0.21200
C 	C 	0.49300 0.27540 0.68170 0.32500
C 	C 	0.49700 0.24540 0.57370 0.42800
C 	C 	0.45850 0.34510 0.63150 0.21000
O 	O 	0.46100 0.27630 0.69925 -0.40000
C 	C 	0.49720 0.07350 0.75450 0.44100
O 	O 	0.49110 0.05590 0.78630 -0.43200
O 	O 	0.46070 0.19930 0.72390 -0.39200
O 	O 	0.50740 0.27720 0.55780 -0.40400
C 	C 	0.49230 0.28360 0.63680 0.05200
O 	O 	0.50740 0.05810 0.72250 -0.41200
H 	H 	0.43770 0.29540 0.61600 0.13000
H 	H 	0.46690 0.23000 0.62240 0.14700
H 	H 	0.51230 0.22700 0.62820 0.17400
H 	H 	0.51550 0.29770 0.63020 0.05900
O 	O 	0.48730 0.64600 0.13750 -0.21700
O 	O 	0.52560 0.69480 0.23400 -0.38700
C 	C 	0.41220 0.90030 0.14230 -0.02400
H 	H 	0.42730 0.90720 0.16380 0.05400
C 	C 	0.49210 0.61730 0.25670 -0.40500
H 	H 	0.51320 0.62820 0.27210 0.18200
H 	H 	0.46770 0.62300 0.27020 0.16900
N 	N 	0.45870 0.80610 0.12540 -0.21200
O 	O 	0.49120 0.71360 0.05550 -0.43000
C 	C 	0.42240 0.86740 0.12010 -0.04000
C 	C 	0.42300 0.62030 0.13220 -0.04800
O 	O 	0.52550 0.76630 0.19540 -0.39800
C 	C 	0.45860 0.63170 0.15480 0.21800
N 	N 	0.45850 0.62540 0.19340 -0.22000
H 	H 	0.43870 0.61440 0.20430 0.13500
C 	C 	0.49150 0.63700 0.21680 0.06100
H 	H 	0.51540 0.62970 0.20280 0.05700
C 	C 	0.49260 0.74380 0.11730 -0.37200
C 	C 	0.39990 0.58730 0.14250 -0.01700
H 	H 	0.40660 0.57250 0.16440 0.05000
C 	C 	0.49290 0.68110 0.22460 0.30700
O 	O 	0.48740 0.86220 0.14570 -0.21200
C 	C 	0.49300 0.77540 0.18170 0.32500
C 	C 	0.49700 0.74540 0.07370 0.42900
C 	C 	0.45850 0.84510 0.13150 0.20900
O 	O 	0.46100 0.77630 0.19925 -0.40000
C 	C 	0.49720 0.57350 0.25450 0.44000
O 	O 	0.49110 0.55590 0.28630 -0.42800
O 	O 	0.46070 0.69930 0.22390 -0.39200
O 	O 	0.50740 0.77720 0.05780 -0.40800
C 	C 	0.49230 0.78360 0.13680 0.05300
O 	O 	0.50740 0.55810 0.22250 -0.40700
H 	H 	0.43770 0.79540 0.11600 0.13000
H 	H 	0.46690 0.73000 0.12240 0.14700
H 	H 	0.51230 0.72700 0.12820 0.17400
H 	H 	0.51550 0.79770 0.13020 0.05800
O 	O 	0.98730 0.85400 0.86250 -0.19900
O 	O 	0.02560 0.80520 0.76600 -0.41100
C 	C 	0.91220 0.59970 0.85770 -0.02400
H 	H 	0.92730 0.59280 0.83620 0.05500
C 	C 	0.99210 0.88270 0.74330 -0.35900
H 	H 	0.01320 0.87180 0.72790 0.14900
H 	H 	0.96770 0.87700 0.72980 0.15700
N 	N 	0.95870 0.69390 0.87460 -0.21300
O 	O 	0.99120 0.78640 0.94450 -0.40500
C 	C 	0.92240 0.63260 0.87990 -0.03700
C 	C 	0.92300 0.87970 0.86780 -0.04200
O 	O 	0.02550 0.73370 0.80460 -0.42200
C 	C 	0.95860 0.86830 0.84520 0.22000
N 	N 	0.95850 0.87460 0.80660 -0.22000
H 	H 	0.93870 0.88560 0.79570 0.13500
C 	C 	0.99150 0.86300 0.78320 0.07800
H 	H 	0.01540 0.87030 0.79720 0.03500
C 	C 	0.99260 0.75620 0.88270 -0.32900
C 	C 	0.89990 0.91270 0.85750 -0.01700
H 	H 	0.90660 0.92750 0.83560 0.05400
C 	C 	0.99290 0.81890 0.77540 0.33800
O 	O 	0.98740 0.63780 0.85430 -0.19900
C 	C 	0.99300 0.72460 0.81830 0.35600
C 	C 	0.99700 0.75460 0.92630 0.44700
C 	C 	0.95850 0.65490 0.86850 0.21200
O 	O 	0.96100 0.72370 0.80075 -0.40500
C 	C 	0.99720 0.92650 0.74550 0.45800
O 	O 	0.99110 0.94410 0.71370 -0.40900
O 	O 	0.96070 0.80070 0.77610 -0.39700
O 	O 	0.00740 0.72280 0.94220 -0.42000
C 	C 	0.99230 0.71640 0.86320 0.07400
O 	O 	0.00740 0.94190 0.77750 -0.42200
H 	H 	0.93770 0.70460 0.88400 0.13000
H 	H 	0.96690 0.77000 0.87760 0.13700
H 	H 	0.01230 0.77300 0.87180 0.14100
H 	H 	0.01550 0.70230 0.86980 0.03500
O 	O 	0.98730 0.35400 0.36250 -0.20300
O 	O 	0.02560 0.30520 0.26600 -0.41200
C 	C 	0.91220 0.09970 0.35770 -0.02400
H 	H 	0.92730 0.09280 0.33620 0.05400
C 	C 	0.99210 0.38270 0.24330 -0.36200
H 	H 	0.01320 0.37180 0.22790 0.14800
H 	H 	0.96770 0.37700 0.22980 0.15700
N 	N 	0.95870 0.19390 0.37460 -0.21400
O 	O 	0.99120 0.28640 0.44450 -0.41600
C 	C 	0.92240 0.13260 0.37990 -0.03900
C 	C 	0.92300 0.37970 0.36780 -0.04500
O 	O 	0.02550 0.23370 0.30460 -0.42300
C 	C 	0.95860 0.36830 0.34520 0.22000
N 	N 	0.95850 0.37460 0.30660 -0.22100
H 	H 	0.93870 0.38560 0.29570 0.13500
C 	C 	0.99150 0.36300 0.28320 0.08000
H 	H 	0.01540 0.37030 0.29720 0.03200
C 	C 	0.99260 0.25620 0.38270 -0.33200
C 	C 	0.89990 0.41270 0.35750 -0.01700
H 	H 	0.90660 0.42750 0.33560 0.05200
C 	C 	0.99290 0.31890 0.27540 0.33800
O 	O 	0.98740 0.13780 0.35430 -0.20200
C 	C 	0.99300 0.22460 0.31830 0.35600
C 	C 	0.99700 0.25460 0.42630 0.45100
C 	C 	0.95850 0.15490 0.36850 0.21200
O 	O 	0.96100 0.22370 0.30075 -0.40500
C 	C 	0.99720 0.42650 0.24550 0.46300
O 	O 	0.99110 0.44410 0.21370 -0.42000
O 	O 	0.96070 0.30070 0.27610 -0.39700
O 	O 	0.00740 0.22280 0.44220 -0.43200
C 	C 	0.99230 0.21640 0.36320 0.07600
O 	O 	0.00740 0.44190 0.27750 -0.43400
H 	H 	0.93770 0.20460 0.38400 0.13000
H 	H 	0.96690 0.27000 0.37760 0.13700
H 	H 	0.01230 0.27300 0.37180 0.14000
H 	H 	0.01550 0.20230 0.36980 0.03200
O 	O 	0.48730 0.85400 0.36250 -0.21300
O 	O 	0.52560 0.80520 0.26600 -0.38700
C 	C 	0.41220 0.59970 0.35770 -0.02400
H 	H 	0.42730 0.59280 0.33620 0.05300
C 	C 	0.49210 0.88270 0.24330 -0.40100
H 	H 	0.51320 0.87180 0.22790 0.18200
H 	H 	0.46770 0.87700 0.22980 0.16800
N 	N 	0.45870 0.69390 0.37460 -0.21200
O 	O 	0.49120 0.78640 0.44450 -0.42400
C 	C 	0.42240 0.63260 0.37990 -0.04000
C 	C 	0.42300 0.87970 0.36780 -0.04500
O 	O 	0.52550 0.73370 0.30460 -0.39700
C 	C 	0.45860 0.86830 0.34520 0.21900
N 	N 	0.45850 0.87460 0.30660 -0.22000
H 	H 	0.43870 0.88560 0.29570 0.13500
C 	C 	0.49150 0.86300 0.28320 0.05900
H 	H 	0.51540 0.87030 0.29720 0.05900
C 	C 	0.49260 0.75620 0.38270 -0.37100
C 	C 	0.39990 0.91270 0.35750 -0.01700
H 	H 	0.40660 0.92750 0.33560 0.05200
C 	C 	0.49290 0.81890 0.27540 0.30800
O 	O 	0.48740 0.63780 0.35430 -0.21200
C 	C 	0.49300 0.72460 0.31830 0.32500
C 	C 	0.49700 0.75460 0.42630 0.42800
C 	C 	0.45850 0.65490 0.36850 0.21000
O 	O 	0.46100 0.72370 0.30075 -0.40000
C 	C 	0.49720 0.92650 0.24550 0.43600
O 	O 	0.49110 0.94410 0.21370 -0.41800
O 	O 	0.46070 0.80070 0.27610 -0.39200
O 	O 	0.50740 0.72280 0.44220 -0.40400
C 	C 	0.49230 0.71640 0.36320 0.05200
O 	O 	0.50740 0.94190 0.27750 -0.39600
H 	H 	0.43770 0.70460 0.38400 0.13000
H 	H 	0.46690 0.77000 0.37760 0.14700
H 	H 	0.51230 0.77300 0.37180 0.17400
H 	H 	0.51550 0.70230 0.36980 0.05900
O 	O 	0.48730 0.35400 0.86250 -0.21300
O 	O 	0.52560 0.30520 0.76600 -0.38700
C 	C 	0.41220 0.09970 0.85770 -0.02400
H 	H 	0.42730 0.09280 0.83620 0.05200
C 	C 	0.49210 0.38270 0.74330 -0.40400
H 	H 	0.51320 0.37180 0.72790 0.18200
H 	H 	0.46770 0.37700 0.72980 0.16900
N 	N 	0.45870 0.19390 0.87460 -0.21200
O 	O 	0.49120 0.28640 0.94450 -0.41400
C 	C 	0.42240 0.13260 0.87990 -0.04000
C 	C 	0.42300 0.37970 0.86780 -0.04500
O 	O 	0.52550 0.23370 0.80460 -0.39700
C 	C 	0.45860 0.36830 0.84520 0.21800
N 	N 	0.45850 0.37460 0.80660 -0.22000
H 	H 	0.43870 0.38560 0.79570 0.13500
C 	C 	0.49150 0.36300 0.78320 0.06000
H 	H 	0.51540 0.37030 0.79720 0.05800
C 	C 	0.49260 0.25620 0.88270 -0.36800
C 	C 	0.39990 0.41270 0.85750 -0.01700
H 	H 	0.40660 0.42750 0.83560 0.05100
C 	C 	0.49290 0.31890 0.77540 0.30700
O 	O 	0.48740 0.13780 0.85430 -0.21200
C 	C 	0.49300 0.22460 0.81830 0.32500
C 	C 	0.49700 0.25460 0.92630 0.42400
C 	C 	0.45850 0.15490 0.86850 0.21000
O 	O 	0.46100 0.22370 0.80075 -0.40000
C 	C 	0.49720 0.42650 0.74550 0.43900
O 	O 	0.49110 0.44410 0.71370 -0.42800
O 	O 	0.46070 0.30070 0.77610 -0.39200
O 	O 	0.50740 0.22280 0.94220 -0.39300
C 	C 	0.49230 0.21640 0.86320 0.05100
O 	O 	0.50740 0.44190 0.77750 -0.40600
H 	H 	0.43770 0.20460 0.88400 0.13000
H 	H 	0.46690 0.27000 0.87760 0.14600
H 	H 	0.51230 0.27300 0.87180 0.17400
H 	H 	0.51550 0.20230 0.86980 0.06000
O 	O 	0.13750 0.01270 0.85400 -0.22600
O 	O 	0.23400 0.97440 0.80520 -0.36200
C 	C 	0.14230 0.08780 0.59970 -0.02400
H 	H 	0.16380 0.07270 0.59280 0.05200
C 	C 	0.25670 0.00790 0.88270 -0.44200
H 	H 	0.27210 0.98680 0.87180 0.21500
H 	H 	0.27020 0.03230 0.87700 0.17900
N 	N 	0.12540 0.04130 0.69390 -0.21100
O 	O 	0.05550 0.00880 0.78640 -0.43200
C 	C 	0.12010 0.07760 0.63260 -0.04300
C 	C 	0.13220 0.07700 0.87970 -0.04800
O 	O 	0.19540 0.97450 0.73370 -0.37300
C 	C 	0.15480 0.04140 0.86830 0.21700
N 	N 	0.19340 0.04150 0.87460 -0.21900
H 	H 	0.20430 0.06130 0.88560 0.13500
C 	C 	0.21680 0.00850 0.86300 0.04000
H 	H 	0.20280 0.98460 0.87030 0.08300
C 	C 	0.11730 0.00740 0.75620 -0.41000
C 	C 	0.14250 0.10010 0.91270 -0.01700
H 	H 	0.16440 0.09340 0.92750 0.05000
C 	C 	0.22460 0.00710 0.81890 0.27700
O 	O 	0.14570 0.01260 0.63780 -0.22500
C 	C 	0.18170 0.00700 0.72460 0.29400
C 	C 	0.07370 0.00300 0.75460 0.40400
C 	C 	0.13150 0.04150 0.65490 0.20800
O 	O 	0.19925 0.03900 0.72370 -0.39500
C 	C 	0.25450 0.00280 0.92650 0.41200
O 	O 	0.28630 0.00890 0.94410 -0.42000
O 	O 	0.22390 0.03930 0.80070 -0.38800
O 	O 	0.05780 0.99260 0.72280 -0.37600
C 	C 	0.13680 0.00770 0.71640 0.02900
O 	O 	0.22250 0.99260 0.94190 -0.36300
H 	H 	0.11600 0.06230 0.70460 0.12900
H 	H 	0.12240 0.03310 0.77000 0.15600
H 	H 	0.12820 0.98770 0.77300 0.20700
H 	H 	0.13020 0.98450 0.70230 0.08500
O 	O 	0.13750 0.51270 0.35400 -0.21700
O 	O 	0.23400 0.47440 0.30520 -0.38800
C 	C 	0.14230 0.58780 0.09970 -0.02400
H 	H 	0.16380 0.57270 0.09280 0.05200
C 	C 	0.25670 0.50790 0.38270 -0.40500
H 	H 	0.27210 0.48680 0.37180 0.18200
H 	H 	0.27020 0.53230 0.37700 0.16900
N 	N 	0.12540 0.54130 0.19390 -0.21300
O 	O 	0.05550 0.50880 0.28640 -0.43000
C 	C 	0.12010 0.57760 0.13260 -0.04300
C 	C 	0.13220 0.57700 0.37970 -0.04800
O 	O 	0.19540 0.47450 0.23370 -0.39800
C 	C 	0.15480 0.54140 0.36830 0.21800
N 	N 	0.19340 0.54150 0.37460 -0.22000
H 	H 	0.20430 0.56130 0.38560 0.13500
C 	C 	0.21680 0.50850 0.36300 0.06100
H 	H 	0.20280 0.48460 0.37030 0.05700
C 	C 	0.11730 0.50740 0.25620 -0.37300
C 	C 	0.14250 0.60010 0.41270 -0.01700
H 	H 	0.16440 0.59340 0.42750 0.05000
C 	C 	0.22460 0.50710 0.31890 0.30700
O 	O 	0.14570 0.51260 0.13780 -0.21600
C 	C 	0.18170 0.50700 0.22460 0.32500
C 	C 	0.07370 0.50300 0.25460 0.43000
C 	C 	0.13150 0.54150 0.15490 0.20900
O 	O 	0.19925 0.53900 0.22370 -0.40000
C 	C 	0.25450 0.50280 0.42650 0.44000
O 	O 	0.28630 0.50890 0.44410 -0.42800
O 	O 	0.22390 0.53930 0.30070 -0.39200
O 	O 	0.05780 0.49260 0.22280 -0.41000
C 	C 	0.13680 0.50770 0.21640 0.05300
O 	O 	0.22250 0.49260 0.44190 -0.40700
H 	H 	0.11600 0.56230 0.20460 0.13000
H 	H 	0.12240 0.53310 0.27000 0.14700
H 	H 	0.12820 0.48770 0.27300 0.17400
H 	H 	0.13020 0.48450 0.20230 0.05700
O 	O 	0.63750 0.01270 0.35400 -0.22600
O 	O 	0.73400 0.97440 0.30520 -0.36200
C 	C 	0.64230 0.08780 0.09970 -0.02400
H 	H 	0.66380 0.07270 0.09280 0.05100
C 	C 	0.75670 0.00790 0.38270 -0.44500
H 	H 	0.77210 0.98680 0.37180 0.21600
H 	H 	0.77020 0.03230 0.37700 0.18000
N 	N 	0.62540 0.04130 0.19390 -0.21100
O 	O 	0.55550 0.00880 0.28640 -0.42800
C 	C 	0.62010 0.07760 0.13260 -0.04300
C 	C 	0.63220 0.07700 0.37970 -0.04900
O 	O 	0.69540 0.97450 0.23370 -0.37300
C 	C 	0.65480 0.04140 0.36830 0.21600
N 	N 	0.69340 0.04150 0.37460 -0.21900
H 	H 	0.70430 0.06130 0.38560 0.13500
C 	C 	0.71680 0.00850 0.36300 0.04100
H 	H 	0.70280 0.98460 0.37030 0.08300
C 	C 	0.61730 0.00740 0.25620 -0.40900
C 	C 	0.64250 0.10010 0.41270 -0.01700
H 	H 	0.66440 0.09340 0.42750 0.04900
C 	C 	0.72460 0.00710 0.31890 0.27700
O 	O 	0.64570 0.01260 0.13780 -0.22600
C 	C 	0.68170 0.00700 0.22460 0.29400
C 	C 	0.57370 0.00300 0.25460 0.40300
C 	C 	0.63150 0.04150 0.15490 0.20800
O 	O 	0.69925 0.03900 0.22370 -0.39500
C 	C 	0.75450 0.00280 0.42650 0.41500
O 	O 	0.78630 0.00890 0.44410 -0.43000
O 	O 	0.72390 0.03930 0.30070 -0.38800
O 	O 	0.55780 0.99260 0.22280 -0.37100
C 	C 	0.63680 0.00770 0.21640 0.02900
O 	O 	0.72250 0.99260 0.44190 -0.37300
H 	H 	0.61600 0.06230 0.20460 0.13000
H 	H 	0.62240 0.03310 0.27000 0.15600
H 	H 	0.62820 0.98770 0.27300 0.20700
H 	H 	0.63020 0.98450 0.20230 0.08600
O 	O 	0.63750 0.51270 0.85400 -0.21300
O 	O 	0.73400 0.47440 0.80520 -0.38700
C 	C 	0.64230 0.58780 0.59970 -0.02400
H 	H 	0.66380 0.57270 0.59280 0.05300
C 	C 	0.75670 0.50790 0.88270 -0.40100
H 	H 	0.77210 0.48680 0.87180 0.18200
H 	H 	0.77020 0.53230 0.87700 0.16800
N 	N 	0.62540 0.54130 0.69390 -0.21200
O 	O 	0.55550 0.50880 0.78640 -0.42400
C 	C 	0.62010 0.57760 0.63260 -0.04000
C 	C 	0.63220 0.57700 0.87970 -0.04500
O 	O 	0.69540 0.47450 0.73370 -0.39700
C 	C 	0.65480 0.54140 0.86830 0.21800
N 	N 	0.69340 0.54150 0.87460 -0.22000
H 	H 	0.70430 0.56130 0.88560 0.13500
C 	C 	0.71680 0.50850 0.86300 0.05900
H 	H 	0.70280 0.48460 0.87030 0.05900
C 	C 	0.61730 0.50740 0.75620 -0.37100
C 	C 	0.64250 0.60010 0.91270 -0.01700
H 	H 	0.66440 0.59340 0.92750 0.05200
C 	C 	0.72460 0.50710 0.81890 0.30700
O 	O 	0.64570 0.51260 0.63780 -0.21200
C 	C 	0.68170 0.50700 0.72460 0.32500
C 	C 	0.57370 0.50300 0.75460 0.42800
C 	C 	0.63150 0.54150 0.65490 0.21000
O 	O 	0.69925 0.53900 0.72370 -0.40000
C 	C 	0.75450 0.50280 0.92650 0.43600
O 	O 	0.78630 0.50890 0.94410 -0.41700
O 	O 	0.72390 0.53930 0.80070 -0.39300
O 	O 	0.55780 0.49260 0.72280 -0.40400
C 	C 	0.63680 0.50770 0.71640 0.05200
O 	O 	0.72250 0.49260 0.94190 -0.39600
H 	H 	0.61600 0.56230 0.70460 0.13000
H 	H 	0.62240 0.53310 0.77000 0.14700
H 	H 	0.62820 0.48770 0.77300 0.17400
H 	H 	0.63020 0.48450 0.70230 0.05900
O 	O 	0.86250 0.01270 0.14600 -0.22600
O 	O 	0.76600 0.97440 0.19480 -0.36300
C 	C 	0.85770 0.08780 0.40030 -0.02400
H 	H 	0.83620 0.07270 0.40720 0.05200
C 	C 	0.74330 0.00790 0.11730 -0.44600
H 	H 	0.72790 0.98680 0.12820 0.21500
H 	H 	0.72980 0.03230 0.12300 0.18000
N 	N 	0.87460 0.04130 0.30610 -0.21000
O 	O 	0.94450 0.00880 0.21360 -0.41800
C 	C 	0.87990 0.07760 0.36740 -0.04100
C 	C 	0.86780 0.07700 0.12030 -0.04900
O 	O 	0.80460 0.97450 0.26630 -0.37200
C 	C 	0.84520 0.04140 0.13170 0.21600
N 	N 	0.80660 0.04150 0.12540 -0.21900
H 	H 	0.79570 0.06130 0.11440 0.13500
C 	C 	0.78320 0.00850 0.13700 0.04100
H 	H 	0.79720 0.98460 0.12970 0.08200
C 	C 	0.88270 0.00740 0.24380 -0.40500
C 	C 	0.85750 0.10010 0.08730 -0.01800
H 	H 	0.83560 0.09340 0.07250 0.04800
C 	C 	0.77540 0.00710 0.18110 0.27700
O 	O 	0.85430 0.01260 0.36220 -0.22200
C 	C 	0.81830 0.00700 0.27540 0.29500
C 	C 	0.92630 0.00300 0.24540 0.39900
C 	C 	0.86850 0.04150 0.34510 0.20800
O 	O 	0.80075 0.03900 0.27630 -0.39500
C 	C 	0.74550 0.00280 0.07350 0.41600
O 	O 	0.71370 0.00890 0.05590 -0.43500
O 	O 	0.77610 0.03930 0.19930 -0.38800
O 	O 	0.94220 0.99260 0.27720 -0.36000
C 	C 	0.86320 0.00770 0.28360 0.02700
O 	O 	0.77750 0.99260 0.05810 -0.37800
H 	H 	0.88400 0.06230 0.29540 0.13000
H 	H 	0.87760 0.03310 0.23000 0.15500
H 	H 	0.87180 0.98770 0.22700 0.20600
H 	H 	0.86980 0.98450 0.29770 0.08800
O 	O 	0.86250 0.51270 0.64600 -0.21300
O 	O 	0.76600 0.47440 0.69480 -0.38700
C 	C 	0.85770 0.58780 0.90030 -0.02400
H 	H 	0.83620 0.57270 0.90720 0.05500
C 	C 	0.74330 0.50790 0.61730 -0.40400
H 	H 	0.72790 0.48680 0.62820 0.18200
H 	H 	0.72980 0.53230 0.62300 0.16900
N 	N 	0.87460 0.54130 0.80610 -0.21100
O 	O 	0.94450 0.50880 0.71360 -0.41400
C 	C 	0.87990 0.57760 0.86740 -0.03800
C 	C 	0.86780 0.57700 0.62030 -0.04500
O 	O 	0.80460 0.47450 0.76630 -0.39700
C 	C 	0.84520 0.54140 0.63170 0.21800
N 	N 	0.80660 0.54150 0.62540 -0.22000
H 	H 	0.79570 0.56130 0.61440 0.13500
C 	C 	0.78320 0.50850 0.63700 0.06000
H 	H 	0.79720 0.48460 0.62970 0.05800
C 	C 	0.88270 0.50740 0.74380 -0.36700
C 	C 	0.85750 0.60010 0.58730 -0.01700
H 	H 	0.83560 0.59340 0.57250 0.05100
C 	C 	0.77540 0.50710 0.68110 0.30700
O 	O 	0.85430 0.51260 0.86220 -0.20900
C 	C 	0.81830 0.50700 0.77540 0.32500
C 	C 	0.92630 0.50300 0.74540 0.42400
C 	C 	0.86850 0.54150 0.84510 0.21000
O 	O 	0.80075 0.53900 0.77630 -0.40000
C 	C 	0.74550 0.50280 0.57350 0.43900
O 	O 	0.71370 0.50890 0.55590 -0.42800
O 	O 	0.77610 0.53930 0.69930 -0.39300
O 	O 	0.94220 0.49260 0.77720 -0.39200
C 	C 	0.86320 0.50770 0.78360 0.05000
O 	O 	0.77750 0.49260 0.55810 -0.40600
H 	H 	0.88400 0.56230 0.79540 0.13000
H 	H 	0.87760 0.53310 0.73000 0.14600
H 	H 	0.87180 0.48770 0.72700 0.17400
H 	H 	0.86980 0.48450 0.79770 0.06200
O 	O 	0.36250 0.01270 0.64600 -0.22600
O 	O 	0.26600 0.97440 0.69480 -0.36300
C 	C 	0.35770 0.08780 0.90030 -0.02400
H 	H 	0.33620 0.07270 0.90720 0.05400
C 	C 	0.24330 0.00790 0.61730 -0.44500
H 	H 	0.22790 0.98680 0.62820 0.21500
H 	H 	0.22980 0.03230 0.62300 0.18000
N 	N 	0.37460 0.04130 0.80610 -0.21000
O 	O 	0.44450 0.00880 0.71360 -0.42800
C 	C 	0.37990 0.07760 0.86740 -0.04100
C 	C 	0.36780 0.07700 0.62030 -0.04900
O 	O 	0.30460 0.97450 0.76630 -0.37200
C 	C 	0.34520 0.04140 0.63170 0.21600
N 	N 	0.30660 0.04150 0.62540 -0.21900
H 	H 	0.29570 0.06130 0.61440 0.13500
C 	C 	0.28320 0.00850 0.63700 0.04100
H 	H 	0.29720 0.98460 0.62970 0.08300
C 	C 	0.38270 0.00740 0.74380 -0.40800
C 	C 	0.35750 0.10010 0.58730 -0.01700
H 	H 	0.33560 0.09340 0.57250 0.04900
C 	C 	0.27540 0.00710 0.68110 0.27700
O 	O 	0.35430 0.01260 0.86220 -0.22200
C 	C 	0.31830 0.00700 0.77540 0.29500
C 	C 	0.42630 0.00300 0.74540 0.40300
C 	C 	0.36850 0.04150 0.84510 0.20800
O 	O 	0.30075 0.03900 0.77630 -0.39500
C 	C 	0.24550 0.00280 0.57350 0.41500
O 	O 	0.21370 0.00890 0.55590 -0.43100
O 	O 	0.27610 0.03930 0.69930 -0.38800
O 	O 	0.44220 0.99260 0.77720 -0.37000
C 	C 	0.36320 0.00770 0.78360 0.02800
O 	O 	0.27750 0.99260 0.55810 -0.37300
H 	H 	0.38400 0.06230 0.79540 0.12900
H 	H 	0.37760 0.03310 0.73000 0.15600
H 	H 	0.37180 0.98770 0.72700 0.20700
H 	H 	0.36980 0.98450 0.79770 0.08700
O 	O 	0.36250 0.51270 0.14600 -0.21600
O 	O 	0.26600 0.47440 0.19480 -0.38800
C 	C 	0.35770 0.58780 0.40030 -0.02400
H 	H 	0.33620 0.57270 0.40720 0.05300
C 	C 	0.24330 0.50790 0.11730 -0.40600
H 	H 	0.22790 0.48680 0.12820 0.18200
H 	H 	0.22980 0.53230 0.12300 0.16900
N 	N 	0.37460 0.54130 0.30610 -0.21200
O 	O 	0.44450 0.50880 0.21360 -0.42600
C 	C 	0.37990 0.57760 0.36740 -0.04000
C 	C 	0.36780 0.57700 0.12030 -0.04800
O 	O 	0.30460 0.47450 0.26630 -0.39800
C 	C 	0.34520 0.54140 0.13170 0.21800
N 	N 	0.30660 0.54150 0.12540 -0.22000
H 	H 	0.29570 0.56130 0.11440 0.13500
C 	C 	0.28320 0.50850 0.13700 0.06100
H 	H 	0.29720 0.48460 0.12970 0.05600
C 	C 	0.38270 0.50740 0.24380 -0.37100
C 	C 	0.35750 0.60010 0.08730 -0.01700
H 	H 	0.33560 0.59340 0.07250 0.04900
C 	C 	0.27540 0.50710 0.18110 0.30700
O 	O 	0.35430 0.51260 0.36220 -0.21200
C 	C 	0.31830 0.50700 0.27540 0.32500
C 	C 	0.42630 0.50300 0.24540 0.42800
C 	C 	0.36850 0.54150 0.34510 0.21000
O 	O 	0.30075 0.53900 0.27630 -0.40000
C 	C 	0.24550 0.50280 0.07350 0.44100
O 	O 	0.21370 0.50890 0.05590 -0.43300
O 	O 	0.27610 0.53930 0.19930 -0.39200
O 	O 	0.44220 0.49260 0.27720 -0.40400
C 	C 	0.36320 0.50770 0.28360 0.05200
O 	O 	0.27750 0.49260 0.05810 -0.41200
H 	H 	0.38400 0.56230 0.29540 0.13000
H 	H 	0.37760 0.53310 0.23000 0.14700
H 	H 	0.37180 0.48770 0.22700 0.17400
H 	H 	0.36980 0.48450 0.29770 0.05900
O 	O 	0.13750 0.98730 0.14600 -0.20600
O 	O 	0.23400 0.02560 0.19480 -0.41300
C 	C 	0.14230 0.91220 0.40030 -0.02400
H 	H 	0.16380 0.92730 0.40720 0.05400
C 	C 	0.25670 0.99210 0.11730 -0.36400
H 	H 	0.27210 0.01320 0.12820 0.14800
H 	H 	0.27020 0.96770 0.12300 0.15800
N 	N 	0.12540 0.95870 0.30610 -0.21400
O 	O 	0.05550 0.99120 0.21360 -0.42200
C 	C 	0.12010 0.92240 0.36740 -0.03900
C 	C 	0.13220 0.92300 0.12030 -0.04700
O 	O 	0.19540 0.02550 0.26630 -0.42300
C 	C 	0.15480 0.95860 0.13170 0.22000
N 	N 	0.19340 0.95850 0.12540 -0.22100
H 	H 	0.20430 0.93870 0.11440 0.13500
C 	C 	0.21680 0.99150 0.13700 0.08100
H 	H 	0.20280 0.01540 0.12970 0.03100
C 	C 	0.11730 0.99260 0.24380 -0.33300
C 	C 	0.14250 0.89990 0.08730 -0.01700
H 	H 	0.16440 0.90660 0.07250 0.05000
C 	C 	0.22460 0.99290 0.18110 0.33800
O 	O 	0.14570 0.98740 0.36220 -0.20200
C 	C 	0.18170 0.99300 0.27540 0.35600
C 	C 	0.07370 0.99700 0.24540 0.45300
C 	C 	0.13150 0.95850 0.34510 0.21100
O 	O 	0.19925 0.96100 0.27630 -0.40500
C 	C 	0.25450 0.99720 0.07350 0.46500
O 	O 	0.28630 0.99110 0.05590 -0.42400
O 	O 	0.22390 0.96070 0.19930 -0.39700
O 	O 	0.05780 0.00740 0.27720 -0.43700
C 	C 	0.13680 0.99230 0.28360 0.07600
O 	O 	0.22250 0.00740 0.05810 -0.44000
H 	H 	0.11600 0.93770 0.29540 0.13000
H 	H 	0.12240 0.96690 0.23000 0.13800
H 	H 	0.12820 0.01230 0.22700 0.14000
H 	H 	0.13020 0.01550 0.29770 0.03100
O 	O 	0.13750 0.48730 0.64600 -0.21700
O 	O 	0.23400 0.52560 0.69480 -0.38700
C 	C 	0.14230 0.41220 0.90030 -0.02400
H 	H 	0.16380 0.42730 0.90720 0.05400
C 	C 	0.25670 0.49210 0.61730 -0.40500
H 	H 	0.27210 0.51320 0.62820 0.18200
H 	H 	0.27020 0.46770 0.62300 0.16900
N 	N 	0.12540 0.45870 0.80610 -0.21200
O 	O 	0.05550 0.49120 0.71360 -0.43000
C 	C 	0.12010 0.42240 0.86740 -0.04000
C 	C 	0.13220 0.42300 0.62030 -0.04800
O 	O 	0.19540 0.52550 0.76630 -0.39800
C 	C 	0.15480 0.45860 0.63170 0.21800
N 	N 	0.19340 0.45850 0.62540 -0.22000
H 	H 	0.20430 0.43870 0.61440 0.13500
C 	C 	0.21680 0.49150 0.63700 0.06100
H 	H 	0.20280 0.51540 0.62970 0.05700
C 	C 	0.11730 0.49260 0.74380 -0.37200
C 	C 	0.14250 0.39990 0.58730 -0.01700
H 	H 	0.16440 0.40660 0.57250 0.05000
C 	C 	0.22460 0.49290 0.68110 0.30700
O 	O 	0.14570 0.48740 0.86220 -0.21200
C 	C 	0.18170 0.49300 0.77540 0.32500
C 	C 	0.07370 0.49700 0.74540 0.42900
C 	C 	0.13150 0.45850 0.84510 0.20900
O 	O 	0.19925 0.46100 0.77630 -0.40000
C 	C 	0.25450 0.49720 0.57350 0.44000
O 	O 	0.28630 0.49110 0.55590 -0.42800
O 	O 	0.22390 0.46070 0.69930 -0.39200
O 	O 	0.05780 0.50740 0.77720 -0.40800
C 	C 	0.13680 0.49230 0.78360 0.05300
O 	O 	0.22250 0.50740 0.55810 -0.40700
H 	H 	0.11600 0.43770 0.79540 0.13000
H 	H 	0.12240 0.46690 0.73000 0.14700
H 	H 	0.12820 0.51230 0.72700 0.17400
H 	H 	0.13020 0.51550 0.79770 0.05800
O 	O 	0.63750 0.98730 0.64600 -0.20300
O 	O 	0.73400 0.02560 0.69480 -0.41200
C 	C 	0.64230 0.91220 0.90030 -0.02400
H 	H 	0.66380 0.92730 0.90720 0.05600
C 	C 	0.75670 0.99210 0.61730 -0.36200
H 	H 	0.77210 0.01320 0.62820 0.14900
H 	H 	0.77020 0.96770 0.62300 0.15700
N 	N 	0.62540 0.95870 0.80610 -0.21300
O 	O 	0.55550 0.99120 0.71360 -0.41600
C 	C 	0.62010 0.92240 0.86740 -0.03700
C 	C 	0.63220 0.92300 0.62030 -0.04500
O 	O 	0.69540 0.02550 0.76630 -0.42200
C 	C 	0.65480 0.95860 0.63170 0.22000
N 	N 	0.69340 0.95850 0.62540 -0.22100
H 	H 	0.70430 0.93870 0.61440 0.13500
C 	C 	0.71680 0.99150 0.63700 0.08000
H 	H 	0.70280 0.01540 0.62970 0.03300
C 	C 	0.61730 0.99260 0.74380 -0.33100
C 	C 	0.64250 0.89990 0.58730 -0.01700
H 	H 	0.66440 0.90660 0.57250 0.05200
C 	C 	0.72460 0.99290 0.68110 0.33800
O 	O 	0.64570 0.98740 0.86220 -0.19900
C 	C 	0.68170 0.99300 0.77540 0.35500
C 	C 	0.57370 0.99700 0.74540 0.45100
C 	C 	0.63150 0.95850 0.84510 0.21100
O 	O 	0.69925 0.96100 0.77630 -0.40500
C 	C 	0.75450 0.99720 0.57350 0.46200
O 	O 	0.78630 0.99110 0.55590 -0.41900
O 	O 	0.72390 0.96070 0.69930 -0.39700
O 	O 	0.55780 0.00740 0.77720 -0.43100
C 	C 	0.63680 0.99230 0.78360 0.07500
O 	O 	0.72250 0.00740 0.55810 -0.43400
H 	H 	0.61600 0.93770 0.79540 0.13000
H 	H 	0.62240 0.96690 0.73000 0.13700
H 	H 	0.62820 0.01230 0.72700 0.14100
H 	H 	0.63020 0.01550 0.79770 0.03300
O 	O 	0.63750 0.48730 0.14600 -0.21600
O 	O 	0.73400 0.52560 0.19480 -0.38800
C 	C 	0.64230 0.41220 0.40030 -0.02400
H 	H 	0.66380 0.42730 0.40720 0.05300
C 	C 	0.75670 0.49210 0.11730 -0.40600
H 	H 	0.77210 0.51320 0.12820 0.18200
H 	H 	0.77020 0.46770 0.12300 0.16900
N 	N 	0.62540 0.45870 0.30610 -0.21200
O 	O 	0.55550 0.49120 0.21360 -0.42600
C 	C 	0.62010 0.42240 0.36740 -0.04000
C 	C 	0.63220 0.42300 0.12030 -0.04800
O 	O 	0.69540 0.52550 0.26630 -0.39800
C 	C 	0.65480 0.45860 0.13170 0.21800
N 	N 	0.69340 0.45850 0.12540 -0.22000
H 	H 	0.70430 0.43870 0.11440 0.13500
C 	C 	0.71680 0.49150 0.13700 0.06100
H 	H 	0.70280 0.51540 0.12970 0.05600
C 	C 	0.61730 0.49260 0.24380 -0.37100
C 	C 	0.64250 0.39990 0.08730 -0.01700
H 	H 	0.66440 0.40660 0.07250 0.04900
C 	C 	0.72460 0.49290 0.18110 0.30700
O 	O 	0.64570 0.48740 0.36220 -0.21200
C 	C 	0.68170 0.49300 0.27540 0.32500
C 	C 	0.57370 0.49700 0.24540 0.42800
C 	C 	0.63150 0.45850 0.34510 0.21000
O 	O 	0.69925 0.46100 0.27630 -0.40000
C 	C 	0.75450 0.49720 0.07350 0.44100
O 	O 	0.78630 0.49110 0.05590 -0.43200
O 	O 	0.72390 0.46070 0.19930 -0.39200
O 	O 	0.55780 0.50740 0.27720 -0.40400
C 	C 	0.63680 0.49230 0.28360 0.05200
O 	O 	0.72250 0.50740 0.05810 -0.41200
H 	H 	0.61600 0.43770 0.29540 0.13000
H 	H 	0.62240 0.46690 0.23000 0.14700
H 	H 	0.62820 0.51230 0.22700 0.17400
H 	H 	0.63020 0.51550 0.29770 0.05900
O 	O 	0.86250 0.98730 0.85400 -0.19900
O 	O 	0.76600 0.02560 0.80520 -0.41100
C 	C 	0.85770 0.91220 0.59970 -0.02400
H 	H 	0.83620 0.92730 0.59280 0.05500
C 	C 	0.74330 0.99210 0.88270 -0.35900
H 	H 	0.72790 0.01320 0.87180 0.14900
H 	H 	0.72980 0.96770 0.87700 0.15700
N 	N 	0.87460 0.95870 0.69390 -0.21300
O 	O 	0.94450 0.99120 0.78640 -0.40500
C 	C 	0.87990 0.92240 0.63260 -0.03700
C 	C 	0.86780 0.92300 0.87970 -0.04200
O 	O 	0.80460 0.02550 0.73370 -0.42200
C 	C 	0.84520 0.95860 0.86830 0.22000
N 	N 	0.80660 0.95850 0.87460 -0.22000
H 	H 	0.79570 0.93870 0.88560 0.13500
C 	C 	0.78320 0.99150 0.86300 0.07800
H 	H 	0.79720 0.01540 0.87030 0.03500
C 	C 	0.88270 0.99260 0.75620 -0.32900
C 	C 	0.85750 0.89990 0.91270 -0.01700
H 	H 	0.83560 0.90660 0.92750 0.05400
C 	C 	0.77540 0.99290 0.81890 0.33800
O 	O 	0.85430 0.98740 0.63780 -0.19900
C 	C 	0.81830 0.99300 0.72460 0.35600
C 	C 	0.92630 0.99700 0.75460 0.44700
C 	C 	0.86850 0.95850 0.65490 0.21200
O 	O 	0.80075 0.96100 0.72370 -0.40500
C 	C 	0.74550 0.99720 0.92650 0.45800
O 	O 	0.71370 0.99110 0.94410 -0.40900
O 	O 	0.77610 0.96070 0.80070 -0.39700
O 	O 	0.94220 0.00740 0.72280 -0.42000
C 	C 	0.86320 0.99230 0.71640 0.07400
O 	O 	0.77750 0.00740 0.94190 -0.42200
H 	H 	0.88400 0.93770 0.70460 0.13000
H 	H 	0.87760 0.96690 0.77000 0.13700
H 	H 	0.87180 0.01230 0.77300 0.14100
H 	H 	0.86980 0.01550 0.70230 0.03500
O 	O 	0.86250 0.48730 0.35400 -0.21300
O 	O 	0.76600 0.52560 0.30520 -0.38700
C 	C 	0.85770 0.41220 0.09970 -0.02400
H 	H 	0.83620 0.42730 0.09280 0.05200
C 	C 	0.74330 0.49210 0.38270 -0.40400
H 	H 	0.72790 0.51320 0.37180 0.18200
H 	H 	0.72980 0.46770 0.37700 0.16900
N 	N 	0.87460 0.45870 0.19390 -0.21200
O 	O 	0.94450 0.49120 0.28640 -0.41400
C 	C 	0.87990 0.42240 0.13260 -0.04000
C 	C 	0.86780 0.42300 0.37970 -0.04500
O 	O 	0.80460 0.52550 0.23370 -0.39700
C 	C 	0.84520 0.45860 0.36830 0.21800
N 	N 	0.80660 0.45850 0.37460 -0.22000
H 	H 	0.79570 0.43870 0.38560 0.13500
C 	C 	0.78320 0.49150 0.36300 0.06000
H 	H 	0.79720 0.51540 0.37030 0.05800
C 	C 	0.88270 0.49260 0.25620 -0.36800
C 	C 	0.85750 0.39990 0.41270 -0.01700
H 	H 	0.83560 0.40660 0.42750 0.05100
C 	C 	0.77540 0.49290 0.31890 0.30700
O 	O 	0.85430 0.48740 0.13780 -0.21200
C 	C 	0.81830 0.49300 0.22460 0.32500
C 	C 	0.92630 0.49700 0.25460 0.42400
C 	C 	0.86850 0.45850 0.15490 0.21000
O 	O 	0.80075 0.46100 0.22370 -0.40000
C 	C 	0.74550 0.49720 0.42650 0.43900
O 	O 	0.71370 0.49110 0.44410 -0.42800
O 	O 	0.77610 0.46070 0.30070 -0.39200
O 	O 	0.94220 0.50740 0.22280 -0.39300
C 	C 	0.86320 0.49230 0.21640 0.05100
O 	O 	0.77750 0.50740 0.44190 -0.40600
H 	H 	0.88400 0.43770 0.20460 0.13000
H 	H 	0.87760 0.46690 0.27000 0.14600
H 	H 	0.87180 0.51230 0.27300 0.17400
H 	H 	0.86980 0.51550 0.20230 0.06000
O 	O 	0.36250 0.98730 0.35400 -0.20300
O 	O 	0.26600 0.02560 0.30520 -0.41200
C 	C 	0.35770 0.91220 0.09970 -0.02400
H 	H 	0.33620 0.92730 0.09280 0.05400
C 	C 	0.24330 0.99210 0.38270 -0.36200
H 	H 	0.22790 0.01320 0.37180 0.14800
H 	H 	0.22980 0.96770 0.37700 0.15700
N 	N 	0.37460 0.95870 0.19390 -0.21400
O 	O 	0.44450 0.99120 0.28640 -0.41600
C 	C 	0.37990 0.92240 0.13260 -0.03900
C 	C 	0.36780 0.92300 0.37970 -0.04500
O 	O 	0.30460 0.02550 0.23370 -0.42300
C 	C 	0.34520 0.95860 0.36830 0.22000
N 	N 	0.30660 0.95850 0.37460 -0.22100
H 	H 	0.29570 0.93870 0.38560 0.13500
C 	C 	0.28320 0.99150 0.36300 0.08000
H 	H 	0.29720 0.01540 0.37030 0.03200
C 	C 	0.38270 0.99260 0.25620 -0.33200
C 	C 	0.35750 0.89990 0.41270 -0.01700
H 	H 	0.33560 0.90660 0.42750 0.05200
C 	C 	0.27540 0.99290 0.31890 0.33800
O 	O 	0.35430 0.98740 0.13780 -0.20200
C 	C 	0.31830 0.99300 0.22460 0.35600
C 	C 	0.42630 0.99700 0.25460 0.45100
C 	C 	0.36850 0.95850 0.15490 0.21200
O 	O 	0.30075 0.96100 0.22370 -0.40500
C 	C 	0.24550 0.99720 0.42650 0.46300
O 	O 	0.21370 0.99110 0.44410 -0.42000
O 	O 	0.27610 0.96070 0.30070 -0.39700
O 	O 	0.44220 0.00740 0.22280 -0.43200
C 	C 	0.36320 0.99230 0.21640 0.07600
O 	O 	0.27750 0.00740 0.44190 -0.43400
H 	H 	0.38400 0.93770 0.20460 0.13000
H 	H 	0.37760 0.96690 0.27000 0.13700
H 	H 	0.37180 0.01230 0.27300 0.14000
H 	H 	0.36980 0.01550 0.20230 0.03200
O 	O 	0.36250 0.48730 0.85400 -0.21300
O 	O 	0.26600 0.52560 0.80520 -0.38700
C 	C 	0.35770 0.41220 0.59970 -0.02400
H 	H 	0.33620 0.42730 0.59280 0.05300
C 	C 	0.24330 0.49210 0.88270 -0.40100
H 	H 	0.22790 0.51320 0.87180 0.18200
H 	H 	0.22980 0.46770 0.87700 0.16800
N 	N 	0.37460 0.45870 0.69390 -0.21200
O 	O 	0.44450 0.49120 0.78640 -0.42400
C 	C 	0.37990 0.42240 0.63260 -0.04000
C 	C 	0.36780 0.42300 0.87970 -0.04500
O 	O 	0.30460 0.52550 0.73370 -0.39700
C 	C 	0.34520 0.45860 0.86830 0.21900
N 	N 	0.30660 0.45850 0.87460 -0.22000
H 	H 	0.29570 0.43870 0.88560 0.13500
C 	C 	0.28320 0.49150 0.86300 0.05900
H 	H 	0.29720 0.51540 0.87030 0.05900
C 	C 	0.38270 0.49260 0.75620 -0.37100
C 	C 	0.35750 0.39990 0.91270 -0.01700
H 	H 	0.33560 0.40660 0.92750 0.05200
C 	C 	0.27540 0.49290 0.81890 0.30800
O 	O 	0.35430 0.48740 0.63780 -0.21200
C 	C 	0.31830 0.49300 0.72460 0.32500
C 	C 	0.42630 0.49700 0.75460 0.42800
C 	C 	0.36850 0.45850 0.65490 0.21000
O 	O 	0.30075 0.46100 0.72370 -0.40000
C 	C 	0.24550 0.49720 0.92650 0.43600
O 	O 	0.21370 0.49110 0.94410 -0.41800
O 	O 	0.27610 0.46070 0.80070 -0.39200
O 	O 	0.44220 0.50740 0.72280 -0.40400
C 	C 	0.36320 0.49230 0.71640 0.05200
O 	O 	0.27750 0.50740 0.94190 -0.39600
H 	H 	0.38400 0.43770 0.70460 0.13000
H 	H 	0.37760 0.46690 0.77000 0.14700
H 	H 	0.37180 0.51230 0.77300 0.17400
H 	H 	0.36980 0.51550 0.70230 0.05900
Cu	Cu	0.75000 0.25000 0.04572 0.89400
Cu	Cu	0.75000 0.25000 0.96843 0.90600
Cu	Cu	0.75000 0.75000 0.54572 0.89800
Cu	Cu	0.75000 0.75000 0.46843 0.90400
Cu	Cu	0.25000 0.75000 0.04572 0.89400
Cu	Cu	0.25000 0.75000 0.96843 0.90600
Cu	Cu	0.25000 0.25000 0.54572 0.89800
Cu	Cu	0.25000 0.25000 0.46843 0.90300
Cu	Cu	0.25000 0.25000 0.95428 0.90300
Cu	Cu	0.25000 0.25000 0.03157 0.90100
Cu	Cu	0.25000 0.75000 0.45428 0.89800
Cu	Cu	0.25000 0.75000 0.53157 0.90400
Cu	Cu	0.75000 0.75000 0.95428 0.90200
Cu	Cu	0.75000 0.75000 0.03157 0.90100
Cu	Cu	0.75000 0.25000 0.45428 0.89800
Cu	Cu	0.75000 0.25000 0.53157 0.90400
Cu	Cu	0.04572 0.75000 0.25000 0.89400
Cu	Cu	0.96843 0.75000 0.25000 0.90600
Cu	Cu	0.54572 0.75000 0.75000 0.89800
Cu	Cu	0.46843 0.75000 0.75000 0.90400
Cu	Cu	0.04572 0.25000 0.75000 0.89400
Cu	Cu	0.96843 0.25000 0.75000 0.90600
Cu	Cu	0.54572 0.25000 0.25000 0.89800
Cu	Cu	0.46843 0.25000 0.25000 0.90300
Cu	Cu	0.95428 0.25000 0.25000 0.90300
Cu	Cu	0.03157 0.25000 0.25000 0.90100
Cu	Cu	0.45428 0.25000 0.75000 0.89800
Cu	Cu	0.53157 0.25000 0.75000 0.90400
Cu	Cu	0.95428 0.75000 0.75000 0.90200
Cu	Cu	0.03157 0.75000 0.75000 0.90100
Cu	Cu	0.45428 0.75000 0.25000 0.89800
Cu	Cu	0.53157 0.75000 0.25000 0.90400
Cu	Cu	0.25000 0.04572 0.75000 0.89400
Cu	Cu	0.25000 0.96843 0.75000 0.90600
Cu	Cu	0.25000 0.54572 0.25000 0.89800
Cu	Cu	0.25000 0.46843 0.25000 0.90300
Cu	Cu	0.75000 0.04572 0.25000 0.89400
Cu	Cu	0.75000 0.96843 0.25000 0.90600
Cu	Cu	0.75000 0.54572 0.75000 0.89800
Cu	Cu	0.75000 0.46843 0.75000 0.90400
Cu	Cu	0.25000 0.95428 0.25000 0.90300
Cu	Cu	0.25000 0.03157 0.25000 0.90100
Cu	Cu	0.25000 0.45428 0.75000 0.89800
Cu	Cu	0.25000 0.53157 0.75000 0.90400
Cu	Cu	0.75000 0.95428 0.75000 0.90200
Cu	Cu	0.75000 0.03157 0.75000 0.90100
Cu	Cu	0.75000 0.45428 0.25000 0.89800
Cu	Cu	0.75000 0.53157 0.25000 0.90400
Cu	Cu	0.71089 0.00000 -0.00000 0.88200
Cu	Cu	0.78901 0.00000 -0.00000 0.88400
Cu	Cu	0.71089 0.50000 0.50000 0.90500
Cu	Cu	0.78901 0.50000 0.50000 0.90700
Cu	Cu	0.21089 0.00000 0.50000 0.89300
Cu	Cu	0.28901 0.00000 0.50000 0.89500
Cu	Cu	0.21089 0.50000 -0.00000 0.89300
Cu	Cu	0.28901 0.50000 -0.00000 0.89500
Cu	Cu	0.28911 0.00000 -0.00000 0.88200
Cu	Cu	0.21099 0.00000 -0.00000 0.88300
Cu	Cu	0.28911 0.50000 0.50000 0.90500
Cu	Cu	0.21099 0.50000 0.50000 0.90600
Cu	Cu	0.78911 0.00000 0.50000 0.89400
Cu	Cu	0.71099 0.00000 0.50000 0.89500
Cu	Cu	0.78911 0.50000 -0.00000 0.89400
Cu	Cu	0.71099 0.50000 -0.00000 0.89500
Cu	Cu	0.00000 0.71089 -0.00000 0.88200
Cu	Cu	0.00000 0.78901 -0.00000 0.88400
Cu	Cu	0.00000 0.21089 0.50000 0.89300
Cu	Cu	0.00000 0.28901 0.50000 0.89500
Cu	Cu	0.50000 0.71089 0.50000 0.90500
Cu	Cu	0.50000 0.78901 0.50000 0.90700
Cu	Cu	0.50000 0.21089 -0.00000 0.89300
Cu	Cu	0.50000 0.28901 -0.00000 0.89500
Cu	Cu	0.00000 0.28911 -0.00000 0.88200
Cu	Cu	0.00000 0.21099 -0.00000 0.88300
Cu	Cu	0.00000 0.78911 0.50000 0.89400
Cu	Cu	0.00000 0.71099 0.50000 0.89500
Cu	Cu	0.50000 0.28911 0.50000 0.90500
Cu	Cu	0.50000 0.21099 0.50000 0.90600
Cu	Cu	0.50000 0.78911 -0.00000 0.89400
Cu	Cu	0.50000 0.71099 -0.00000 0.89500
Cu	Cu	0.00000 0.00000 0.71089 0.88200
Cu	Cu	0.00000 0.00000 0.78901 0.88400
Cu	Cu	0.00000 0.50000 0.21089 0.89300
Cu	Cu	0.00000 0.50000 0.28901 0.89500
Cu	Cu	0.50000 0.00000 0.21089 0.89300
Cu	Cu	0.50000 0.00000 0.28901 0.89500
Cu	Cu	0.50000 0.50000 0.71089 0.90500
Cu	Cu	0.50000 0.50000 0.78901 0.90700
Cu	Cu	0.00000 0.00000 0.28911 0.88200
Cu	Cu	0.00000 0.00000 0.21099 0.88300
Cu	Cu	0.00000 0.50000 0.78911 0.89400
Cu	Cu	0.00000 0.50000 0.71099 0.89500
Cu	Cu	0.50000 0.00000 0.78911 0.89400
Cu	Cu	0.50000 0.00000 0.71099 0.89500
Cu	Cu	0.50000 0.50000 0.28911 0.90500
Cu	Cu	0.50000 0.50000 0.21099 0.90600
