data_crystal

_cell_length_a 34.17200
_cell_length_b 34.17200
_cell_length_c 34.17200
_cell_angle_alpha 90.00000
_cell_angle_beta  90.00000
_cell_angle_gamma 90.00000

_symmetry_space_group_name_	'P 1'
_symmetry_space_group_name_H-M	'P 1'

loop_
_symmetry_equiv_pos_as_xyz
  x,y,z

loop_
_atom_site_label
_atom_site_type_symbol
_atom_site_fract_x
_atom_site_fract_y
_atom_site_fract_z
_atom_site_charge
O 	O 	0.14630 0.86220 0.98720 -0.20100
O 	O 	0.19500 0.76610 0.02590 -0.40700
C 	C 	0.40010 0.85770 0.91250 -0.01900
H 	H 	0.40700 0.83630 0.92770 0.05300
C 	C 	0.11720 0.74320 0.99180 -0.37000
H 	H 	0.12280 0.73040 0.96710 0.15900
H 	H 	0.12840 0.72740 0.01250 0.14900
N 	N 	0.30620 0.87450 0.95850 -0.21300
O 	O 	0.21360 0.94440 0.99120 -0.41000
C 	C 	0.36720 0.87990 0.92270 -0.04400
C 	C 	0.12050 0.86770 0.92270 -0.04500
O 	O 	0.26620 0.80470 0.02510 -0.42400
C 	C 	0.13170 0.84530 0.95810 0.21400
N 	N 	0.12540 0.80650 0.95800 -0.21800
H 	H 	0.11460 0.79540 0.93810 0.13200
C 	C 	0.13700 0.78350 0.99200 0.07900
H 	H 	0.12960 0.79760 0.01590 0.03200
C 	C 	0.24340 0.88270 0.99210 -0.33800
C 	C 	0.08750 0.85740 0.90010 -0.01800
H 	H 	0.07260 0.83570 0.90690 0.05200
C 	C 	0.18100 0.77550 0.99260 0.32800
O 	O 	0.36210 0.85420 0.98740 -0.19900
C 	C 	0.27550 0.81860 0.99270 0.35700
C 	C 	0.24550 0.92640 0.99700 0.45800
C 	C 	0.34530 0.86850 0.95830 0.21400
O 	O 	0.27580 0.80070 0.96070 -0.40500
C 	C 	0.07350 0.74540 0.99720 0.47500
O 	O 	0.05600 0.71360 0.99110 -0.42700
O 	O 	0.19921 0.77580 0.96050 -0.39400
O 	O 	0.27700 0.94210 0.00730 -0.42600
C 	C 	0.28330 0.86250 0.99200 0.06300
O 	O 	0.05800 0.77700 0.00750 -0.44500
H 	H 	0.29540 0.88400 0.93770 0.13100
H 	H 	0.23000 0.87760 0.96690 0.14500
H 	H 	0.22700 0.87180 0.01230 0.14300
H 	H 	0.29770 0.86980 0.01550 0.03900
O 	O 	0.14630 0.36220 0.48720 -0.21400
O 	O 	0.19500 0.26610 0.52590 -0.38300
C 	C 	0.40010 0.35770 0.41250 -0.01800
H 	H 	0.40700 0.33630 0.42770 0.05200
C 	C 	0.11720 0.24320 0.49180 -0.41100
H 	H 	0.12280 0.23040 0.46710 0.17200
H 	H 	0.12840 0.22740 0.51250 0.18300
N 	N 	0.30620 0.37450 0.45850 -0.21200
O 	O 	0.21360 0.44440 0.49120 -0.42800
C 	C 	0.36720 0.37990 0.42270 -0.04700
C 	C 	0.12050 0.36770 0.42270 -0.04700
O 	O 	0.26620 0.30470 0.52510 -0.39800
C 	C 	0.13170 0.34530 0.45810 0.21400
N 	N 	0.12540 0.30650 0.45800 -0.21700
H 	H 	0.11460 0.29540 0.43810 0.13300
C 	C 	0.13700 0.28350 0.49200 0.05900
H 	H 	0.12960 0.29760 0.51590 0.05700
C 	C 	0.24340 0.38270 0.49210 -0.38300
C 	C 	0.08750 0.35740 0.40010 -0.01800
H 	H 	0.07260 0.33570 0.40690 0.05000
C 	C 	0.18100 0.27550 0.49260 0.29900
O 	O 	0.36210 0.35420 0.48740 -0.21300
C 	C 	0.27550 0.31860 0.49270 0.32600
C 	C 	0.24550 0.42640 0.49700 0.43900
C 	C 	0.34530 0.36850 0.45830 0.21200
O 	O 	0.27580 0.30070 0.46070 -0.40000
C 	C 	0.07350 0.24540 0.49720 0.45200
O 	O 	0.05600 0.21360 0.49110 -0.43600
O 	O 	0.19921 0.27580 0.46050 -0.39000
O 	O 	0.27700 0.44210 0.50730 -0.41000
C 	C 	0.28330 0.36250 0.49200 0.04400
O 	O 	0.05800 0.27700 0.50750 -0.41800
H 	H 	0.29540 0.38400 0.43770 0.13100
H 	H 	0.23000 0.37760 0.46690 0.15700
H 	H 	0.22700 0.37180 0.51230 0.17700
H 	H 	0.29770 0.36980 0.51550 0.06300
O 	O 	0.64630 0.86220 0.48720 -0.21100
O 	O 	0.69500 0.76610 0.52590 -0.38200
C 	C 	0.90010 0.85770 0.41250 -0.01800
H 	H 	0.90700 0.83630 0.42770 0.05400
C 	C 	0.61720 0.74320 0.49180 -0.40900
H 	H 	0.62280 0.73040 0.46710 0.17100
H 	H 	0.62840 0.72740 0.51250 0.18400
N 	N 	0.80620 0.87450 0.45850 -0.21100
O 	O 	0.71360 0.94440 0.49120 -0.41700
C 	C 	0.86720 0.87990 0.42270 -0.04400
C 	C 	0.62050 0.86770 0.42270 -0.04500
O 	O 	0.76620 0.80470 0.52510 -0.39700
C 	C 	0.63170 0.84530 0.45810 0.21400
N 	N 	0.62540 0.80650 0.45800 -0.21600
H 	H 	0.61460 0.79540 0.43810 0.13300
C 	C 	0.63700 0.78350 0.49200 0.05800
H 	H 	0.62960 0.79760 0.51590 0.05900
C 	C 	0.74340 0.88270 0.49210 -0.37900
C 	C 	0.58750 0.85740 0.40010 -0.01800
H 	H 	0.57260 0.83570 0.40690 0.05100
C 	C 	0.68100 0.77550 0.49260 0.29900
O 	O 	0.86210 0.85420 0.48740 -0.20900
C 	C 	0.77550 0.81860 0.49270 0.32600
C 	C 	0.74550 0.92640 0.49700 0.43400
C 	C 	0.84530 0.86850 0.45830 0.21200
O 	O 	0.77580 0.80070 0.46070 -0.40000
C 	C 	0.57350 0.74540 0.49720 0.45000
O 	O 	0.55600 0.71360 0.49110 -0.43100
O 	O 	0.69921 0.77580 0.46050 -0.39000
O 	O 	0.77700 0.94210 0.50730 -0.39800
C 	C 	0.78330 0.86250 0.49200 0.04200
O 	O 	0.55800 0.77700 0.50750 -0.41200
H 	H 	0.79540 0.88400 0.43770 0.13100
H 	H 	0.73000 0.87760 0.46690 0.15600
H 	H 	0.72700 0.87180 0.51230 0.17700
H 	H 	0.79770 0.86980 0.51550 0.06500
O 	O 	0.64630 0.36220 0.98720 -0.20100
O 	O 	0.69500 0.26610 0.02590 -0.40600
C 	C 	0.90010 0.35770 0.91250 -0.01800
H 	H 	0.90700 0.33630 0.92770 0.05500
C 	C 	0.61720 0.24320 0.99180 -0.36800
H 	H 	0.62280 0.23040 0.96710 0.16000
H 	H 	0.62840 0.22740 0.01250 0.15000
N 	N 	0.80620 0.37450 0.95850 -0.21200
O 	O 	0.71360 0.44440 0.99120 -0.41900
C 	C 	0.86720 0.37990 0.92270 -0.04300
C 	C 	0.62050 0.36770 0.92270 -0.04400
O 	O 	0.76620 0.30470 0.02510 -0.42300
C 	C 	0.63170 0.34530 0.95810 0.21500
N 	N 	0.62540 0.30650 0.95800 -0.21700
H 	H 	0.61460 0.29540 0.93810 0.13300
C 	C 	0.63700 0.28350 0.99200 0.07900
H 	H 	0.62960 0.29760 0.01590 0.03300
C 	C 	0.74340 0.38270 0.99210 -0.34100
C 	C 	0.58750 0.35740 0.90010 -0.01800
H 	H 	0.57260 0.33570 0.90690 0.05200
C 	C 	0.68100 0.27550 0.99260 0.32800
O 	O 	0.86210 0.35420 0.98740 -0.19900
C 	C 	0.77550 0.31860 0.99270 0.35700
C 	C 	0.74550 0.42640 0.99700 0.46200
C 	C 	0.84530 0.36850 0.95830 0.21300
O 	O 	0.77580 0.30070 0.96070 -0.40500
C 	C 	0.57350 0.24540 0.99720 0.47400
O 	O 	0.55600 0.21360 0.99110 -0.42300
O 	O 	0.69921 0.27580 0.96050 -0.39400
O 	O 	0.77700 0.44210 0.00730 -0.43700
C 	C 	0.78330 0.36250 0.99200 0.06400
O 	O 	0.55800 0.27700 0.00750 -0.44100
H 	H 	0.79540 0.38400 0.93770 0.13100
H 	H 	0.73000 0.37760 0.96690 0.14600
H 	H 	0.72700 0.37180 0.01230 0.14300
H 	H 	0.79770 0.36980 0.01550 0.03800
O 	O 	0.85370 0.13780 0.98720 -0.20100
O 	O 	0.80500 0.23390 0.02590 -0.40600
C 	C 	0.59990 0.14230 0.91250 -0.01800
H 	H 	0.59300 0.16370 0.92770 0.05300
C 	C 	0.88280 0.25680 0.99180 -0.36500
H 	H 	0.87720 0.26960 0.96710 0.15900
H 	H 	0.87160 0.27260 0.01250 0.15000
N 	N 	0.69380 0.12550 0.95850 -0.21300
O 	O 	0.78640 0.05560 0.99120 -0.42300
C 	C 	0.63280 0.12010 0.92270 -0.04600
C 	C 	0.87950 0.13230 0.92270 -0.04400
O 	O 	0.73380 0.19530 0.02510 -0.42300
C 	C 	0.86830 0.15470 0.95810 0.21600
N 	N 	0.87460 0.19350 0.95800 -0.21700
H 	H 	0.88540 0.20460 0.93810 0.13300
C 	C 	0.86300 0.21650 0.99200 0.07800
H 	H 	0.87040 0.20240 0.01590 0.03400
C 	C 	0.75660 0.11730 0.99210 -0.34300
C 	C 	0.91250 0.14260 0.90010 -0.01800
H 	H 	0.92740 0.16430 0.90690 0.05400
C 	C 	0.81900 0.22450 0.99260 0.32800
O 	O 	0.63790 0.14580 0.98740 -0.20300
C 	C 	0.72450 0.18140 0.99270 0.35600
C 	C 	0.75450 0.07360 0.99700 0.46400
C 	C 	0.65470 0.13150 0.95830 0.21300
O 	O 	0.72420 0.19930 0.96070 -0.40400
C 	C 	0.92650 0.25460 0.99720 0.47000
O 	O 	0.94400 0.28640 0.99110 -0.41200
O 	O 	0.80079 0.22420 0.96050 -0.39400
O 	O 	0.72300 0.05790 0.00730 -0.44300
C 	C 	0.71670 0.13750 0.99200 0.06500
O 	O 	0.94200 0.22300 0.00750 -0.43000
H 	H 	0.70460 0.11600 0.93770 0.13100
H 	H 	0.77000 0.12240 0.96690 0.14600
H 	H 	0.77300 0.12820 0.01230 0.14300
H 	H 	0.70230 0.13020 0.01550 0.03600
O 	O 	0.85370 0.63780 0.48720 -0.21100
O 	O 	0.80500 0.73390 0.52590 -0.38200
C 	C 	0.59990 0.64230 0.41250 -0.01800
H 	H 	0.59300 0.66370 0.42770 0.05200
C 	C 	0.88280 0.75680 0.49180 -0.40700
H 	H 	0.87720 0.76960 0.46710 0.17000
H 	H 	0.87160 0.77260 0.51250 0.18400
N 	N 	0.69380 0.62550 0.45850 -0.21200
O 	O 	0.78640 0.55560 0.49120 -0.42700
C 	C 	0.63280 0.62010 0.42270 -0.04700
C 	C 	0.87950 0.63230 0.42270 -0.04500
O 	O 	0.73380 0.69530 0.52510 -0.39700
C 	C 	0.86830 0.65470 0.45810 0.21400
N 	N 	0.87460 0.69350 0.45800 -0.21600
H 	H 	0.88540 0.70460 0.43810 0.13300
C 	C 	0.86300 0.71650 0.49200 0.05700
H 	H 	0.87040 0.70240 0.51590 0.06000
C 	C 	0.75660 0.61730 0.49210 -0.38300
C 	C 	0.91250 0.64260 0.40010 -0.01800
H 	H 	0.92740 0.66430 0.40690 0.05200
C 	C 	0.81900 0.72450 0.49260 0.29900
O 	O 	0.63790 0.64580 0.48740 -0.21300
C 	C 	0.72450 0.68140 0.49270 0.32500
C 	C 	0.75450 0.57360 0.49700 0.43800
C 	C 	0.65470 0.63150 0.45830 0.21200
O 	O 	0.72420 0.69930 0.46070 -0.40000
C 	C 	0.92650 0.75460 0.49720 0.44700
O 	O 	0.94400 0.78640 0.49110 -0.41900
O 	O 	0.80079 0.72420 0.46050 -0.39000
O 	O 	0.72300 0.55790 0.50730 -0.41000
C 	C 	0.71670 0.63750 0.49200 0.04400
O 	O 	0.94200 0.72300 0.50750 -0.40200
H 	H 	0.70460 0.61600 0.43770 0.13100
H 	H 	0.77000 0.62240 0.46690 0.15700
H 	H 	0.77300 0.62820 0.51230 0.17700
H 	H 	0.70230 0.63020 0.51550 0.06300
O 	O 	0.35370 0.13780 0.48720 -0.21400
O 	O 	0.30500 0.23390 0.52590 -0.38200
C 	C 	0.09990 0.14230 0.41250 -0.01800
H 	H 	0.09300 0.16370 0.42770 0.05000
C 	C 	0.38280 0.25680 0.49180 -0.41000
H 	H 	0.37720 0.26960 0.46710 0.17100
H 	H 	0.37160 0.27260 0.51250 0.18400
N 	N 	0.19380 0.12550 0.45850 -0.21200
O 	O 	0.28640 0.05560 0.49120 -0.43200
C 	C 	0.13280 0.12010 0.42270 -0.04900
C 	C 	0.37950 0.13230 0.42270 -0.04700
O 	O 	0.23380 0.19530 0.52510 -0.39800
C 	C 	0.36830 0.15470 0.45810 0.21400
N 	N 	0.37460 0.19350 0.45800 -0.21600
H 	H 	0.38540 0.20460 0.43810 0.13300
C 	C 	0.36300 0.21650 0.49200 0.05900
H 	H 	0.37040 0.20240 0.51590 0.05700
C 	C 	0.25660 0.11730 0.49210 -0.38500
C 	C 	0.41250 0.14260 0.40010 -0.01800
H 	H 	0.42740 0.16430 0.40690 0.05100
C 	C 	0.31900 0.22450 0.49260 0.29900
O 	O 	0.13790 0.14580 0.48740 -0.21600
C 	C 	0.22450 0.18140 0.49270 0.32500
C 	C 	0.25450 0.07360 0.49700 0.44000
C 	C 	0.15470 0.13150 0.45830 0.21200
O 	O 	0.22420 0.19930 0.46070 -0.39900
C 	C 	0.42650 0.25460 0.49720 0.45100
O 	O 	0.44400 0.28640 0.49110 -0.43100
O 	O 	0.30079 0.22420 0.46050 -0.39000
O 	O 	0.22300 0.05790 0.50730 -0.41600
C 	C 	0.21670 0.13750 0.49200 0.04500
O 	O 	0.44200 0.22300 0.50750 -0.41300
H 	H 	0.20460 0.11600 0.43770 0.13100
H 	H 	0.27000 0.12240 0.46690 0.15700
H 	H 	0.27300 0.12820 0.51230 0.17700
H 	H 	0.20230 0.13020 0.51550 0.06100
O 	O 	0.35370 0.63780 0.98720 -0.20100
O 	O 	0.30500 0.73390 0.02590 -0.40600
C 	C 	0.09990 0.64230 0.91250 -0.01800
H 	H 	0.09300 0.66370 0.92770 0.05200
C 	C 	0.38280 0.75680 0.99180 -0.36800
H 	H 	0.37720 0.76960 0.96710 0.16000
H 	H 	0.37160 0.77260 0.01250 0.15000
N 	N 	0.19380 0.62550 0.95850 -0.21300
O 	O 	0.28640 0.55560 0.99120 -0.41900
C 	C 	0.13280 0.62010 0.92270 -0.04600
C 	C 	0.37950 0.63230 0.92270 -0.04400
O 	O 	0.23380 0.69530 0.02510 -0.42300
C 	C 	0.36830 0.65470 0.95810 0.21500
N 	N 	0.37460 0.69350 0.95800 -0.21700
H 	H 	0.38540 0.70460 0.93810 0.13300
C 	C 	0.36300 0.71650 0.99200 0.07900
H 	H 	0.37040 0.70240 0.01590 0.03300
C 	C 	0.25660 0.61730 0.99210 -0.34200
C 	C 	0.41250 0.64260 0.90010 -0.01800
H 	H 	0.42740 0.66430 0.90690 0.05200
C 	C 	0.31900 0.72450 0.99260 0.32800
O 	O 	0.13790 0.64580 0.98740 -0.20300
C 	C 	0.22450 0.68140 0.99270 0.35600
C 	C 	0.25450 0.57360 0.99700 0.46200
C 	C 	0.15470 0.63150 0.95830 0.21400
O 	O 	0.22420 0.69930 0.96070 -0.40500
C 	C 	0.42650 0.75460 0.99720 0.47400
O 	O 	0.44400 0.78640 0.99110 -0.42200
O 	O 	0.30079 0.72420 0.96050 -0.39400
O 	O 	0.22300 0.55790 0.00730 -0.43800
C 	C 	0.21670 0.63750 0.99200 0.06500
O 	O 	0.44200 0.72300 0.00750 -0.44100
H 	H 	0.20460 0.61600 0.93770 0.13100
H 	H 	0.27000 0.62240 0.96690 0.14600
H 	H 	0.27300 0.62820 0.01230 0.14300
H 	H 	0.20230 0.63020 0.01550 0.03700
O 	O 	0.85370 0.86220 0.01280 -0.22000
O 	O 	0.80500 0.76610 0.97410 -0.35800
C 	C 	0.59990 0.85770 0.08750 -0.01800
H 	H 	0.59300 0.83630 0.07230 0.05100
C 	C 	0.88280 0.74320 0.00820 -0.44600
H 	H 	0.87720 0.73040 0.03290 0.18100
H 	H 	0.87160 0.72740 0.98750 0.21700
N 	N 	0.69380 0.87450 0.04150 -0.21000
O 	O 	0.78640 0.94440 0.00880 -0.41800
C 	C 	0.63280 0.87990 0.07730 -0.04700
C 	C 	0.87950 0.86770 0.07730 -0.04500
O 	O 	0.73380 0.80470 0.97490 -0.37200
C 	C 	0.86830 0.84530 0.04190 0.21200
N 	N 	0.87460 0.80650 0.04200 -0.21500
H 	H 	0.88540 0.79540 0.06190 0.13300
C 	C 	0.86300 0.78350 0.00800 0.03600
H 	H 	0.87040 0.79760 0.98410 0.08500
C 	C 	0.75660 0.88270 0.00790 -0.41900
C 	C 	0.91250 0.85740 0.09990 -0.01800
H 	H 	0.92740 0.83570 0.09310 0.05200
C 	C 	0.81900 0.77550 0.00740 0.27100
O 	O 	0.63790 0.85420 0.01260 -0.22300
C 	C 	0.72450 0.81860 0.00730 0.29500
C 	C 	0.75450 0.92640 0.00300 0.40900
C 	C 	0.65470 0.86850 0.04170 0.21100
O 	O 	0.72420 0.80070 0.03930 -0.39500
C 	C 	0.92650 0.74540 0.00280 0.42100
O 	O 	0.94400 0.71360 0.00890 -0.42200
O 	O 	0.80079 0.77580 0.03950 -0.38600
O 	O 	0.72300 0.94210 0.99270 -0.36500
C 	C 	0.71670 0.86250 0.00800 0.02200
O 	O 	0.94200 0.77700 0.99250 -0.36800
H 	H 	0.70460 0.88400 0.06230 0.13100
H 	H 	0.77000 0.87760 0.03310 0.16600
H 	H 	0.77300 0.87180 0.98770 0.21000
H 	H 	0.70230 0.86980 0.98450 0.09000
O 	O 	0.85370 0.36220 0.51280 -0.21100
O 	O 	0.80500 0.26610 0.47410 -0.38200
C 	C 	0.59990 0.35770 0.58750 -0.01800
H 	H 	0.59300 0.33630 0.57230 0.05200
C 	C 	0.88280 0.24320 0.50820 -0.40600
H 	H 	0.87720 0.23040 0.53290 0.17000
H 	H 	0.87160 0.22740 0.48750 0.18300
N 	N 	0.69380 0.37450 0.54150 -0.21200
O 	O 	0.78640 0.44440 0.50880 -0.42700
C 	C 	0.63280 0.37990 0.57730 -0.04700
C 	C 	0.87950 0.36770 0.57730 -0.04500
O 	O 	0.73380 0.30470 0.47490 -0.39800
C 	C 	0.86830 0.34530 0.54190 0.21400
N 	N 	0.87460 0.30650 0.54200 -0.21600
H 	H 	0.88540 0.29540 0.56190 0.13300
C 	C 	0.86300 0.28350 0.50800 0.05700
H 	H 	0.87040 0.29760 0.48410 0.06000
C 	C 	0.75660 0.38270 0.50790 -0.38300
C 	C 	0.91250 0.35740 0.59990 -0.01800
H 	H 	0.92740 0.33570 0.59310 0.05200
C 	C 	0.81900 0.27550 0.50740 0.29900
O 	O 	0.63790 0.35420 0.51260 -0.21300
C 	C 	0.72450 0.31860 0.50730 0.32500
C 	C 	0.75450 0.42640 0.50300 0.43800
C 	C 	0.65470 0.36850 0.54170 0.21200
O 	O 	0.72420 0.30070 0.53930 -0.40000
C 	C 	0.92650 0.24540 0.50280 0.44700
O 	O 	0.94400 0.21360 0.50890 -0.42100
O 	O 	0.80079 0.27580 0.53950 -0.39000
O 	O 	0.72300 0.44210 0.49270 -0.41000
C 	C 	0.71670 0.36250 0.50800 0.04400
O 	O 	0.94200 0.27700 0.49250 -0.40200
H 	H 	0.70460 0.38400 0.56230 0.13100
H 	H 	0.77000 0.37760 0.53310 0.15700
H 	H 	0.77300 0.37180 0.48770 0.17700
H 	H 	0.70230 0.36980 0.48450 0.06300
O 	O 	0.35370 0.86220 0.51280 -0.21100
O 	O 	0.30500 0.76610 0.47410 -0.38200
C 	C 	0.09990 0.85770 0.58750 -0.01900
H 	H 	0.09300 0.83630 0.57230 0.05100
C 	C 	0.38280 0.74320 0.50820 -0.40900
H 	H 	0.37720 0.73040 0.53290 0.17100
H 	H 	0.37160 0.72740 0.48750 0.18400
N 	N 	0.19380 0.87450 0.54150 -0.21100
O 	O 	0.28640 0.94440 0.50880 -0.41700
C 	C 	0.13280 0.87990 0.57730 -0.04700
C 	C 	0.37950 0.86770 0.57730 -0.04500
O 	O 	0.23380 0.80470 0.47490 -0.39700
C 	C 	0.36830 0.84530 0.54190 0.21400
N 	N 	0.37460 0.80650 0.54200 -0.21600
H 	H 	0.38540 0.79540 0.56190 0.13300
C 	C 	0.36300 0.78350 0.50800 0.05800
H 	H 	0.37040 0.79760 0.48410 0.05900
C 	C 	0.25660 0.88270 0.50790 -0.38000
C 	C 	0.41250 0.85740 0.59990 -0.01800
H 	H 	0.42740 0.83570 0.59310 0.05100
C 	C 	0.31900 0.77550 0.50740 0.29900
O 	O 	0.13790 0.85420 0.51260 -0.21300
C 	C 	0.22450 0.81860 0.50730 0.32600
C 	C 	0.25450 0.92640 0.50300 0.43500
C 	C 	0.15470 0.86850 0.54170 0.21200
O 	O 	0.22420 0.80070 0.53930 -0.40000
C 	C 	0.42650 0.74540 0.50280 0.45000
O 	O 	0.44400 0.71360 0.50890 -0.43100
O 	O 	0.30079 0.77580 0.53950 -0.39000
O 	O 	0.22300 0.94210 0.49270 -0.39900
C 	C 	0.21670 0.86250 0.50800 0.04300
O 	O 	0.44200 0.77700 0.49250 -0.41200
H 	H 	0.20460 0.88400 0.56230 0.13100
H 	H 	0.27000 0.87760 0.53310 0.15600
H 	H 	0.27300 0.87180 0.48770 0.17700
H 	H 	0.20230 0.86980 0.48450 0.06400
O 	O 	0.35370 0.36220 0.01280 -0.22400
O 	O 	0.30500 0.26610 0.97410 -0.35800
C 	C 	0.09990 0.35770 0.08750 -0.01800
H 	H 	0.09300 0.33630 0.07230 0.04900
C 	C 	0.38280 0.24320 0.00820 -0.45000
H 	H 	0.37720 0.23040 0.03290 0.18200
H 	H 	0.37160 0.22740 0.98750 0.21700
N 	N 	0.19380 0.37450 0.04150 -0.21100
O 	O 	0.28640 0.44440 0.00880 -0.43000
C 	C 	0.13280 0.37990 0.07730 -0.05000
C 	C 	0.37950 0.36770 0.07730 -0.04800
O 	O 	0.23380 0.30470 0.97490 -0.37200
C 	C 	0.36830 0.34530 0.04190 0.21200
N 	N 	0.37460 0.30650 0.04200 -0.21500
H 	H 	0.38540 0.29540 0.06190 0.13300
C 	C 	0.36300 0.28350 0.00800 0.03700
H 	H 	0.37040 0.29760 0.98410 0.08400
C 	C 	0.25660 0.38270 0.00790 -0.42300
C 	C 	0.41250 0.35740 0.09990 -0.01800
H 	H 	0.42740 0.33570 0.09310 0.05000
C 	C 	0.31900 0.27550 0.00740 0.27000
O 	O 	0.13790 0.35420 0.01260 -0.22600
C 	C 	0.22450 0.31860 0.00730 0.29500
C 	C 	0.25450 0.42640 0.00300 0.41300
C 	C 	0.15470 0.36850 0.04170 0.21100
O 	O 	0.22420 0.30070 0.03930 -0.39500
C 	C 	0.42650 0.24540 0.00280 0.42500
O 	O 	0.44400 0.21360 0.00890 -0.43300
O 	O 	0.30079 0.27580 0.03950 -0.38600
O 	O 	0.22300 0.44210 0.99270 -0.37600
C 	C 	0.21670 0.36250 0.00800 0.02300
O 	O 	0.44200 0.27700 0.99250 -0.37900
H 	H 	0.20460 0.38400 0.06230 0.13100
H 	H 	0.27000 0.37760 0.03310 0.16700
H 	H 	0.27300 0.37180 0.98770 0.21100
H 	H 	0.20230 0.36980 0.98450 0.08800
O 	O 	0.14630 0.13780 0.01280 -0.22700
O 	O 	0.19500 0.23390 0.97410 -0.35900
C 	C 	0.40010 0.14230 0.08750 -0.01800
H 	H 	0.40700 0.16370 0.07230 0.05000
C 	C 	0.11720 0.25680 0.00820 -0.45200
H 	H 	0.12280 0.26960 0.03290 0.18300
H 	H 	0.12840 0.27260 0.98750 0.21700
N 	N 	0.30620 0.12550 0.04150 -0.21100
O 	O 	0.21360 0.05560 0.00880 -0.43500
C 	C 	0.36720 0.12010 0.07730 -0.05000
C 	C 	0.12050 0.13230 0.07730 -0.05100
O 	O 	0.26620 0.19530 0.97490 -0.37300
C 	C 	0.13170 0.15470 0.04190 0.21200
N 	N 	0.12540 0.19350 0.04200 -0.21600
H 	H 	0.11460 0.20460 0.06190 0.13300
C 	C 	0.13700 0.21650 0.00800 0.03800
H 	H 	0.12960 0.20240 0.98410 0.08200
C 	C 	0.24340 0.11730 0.00790 -0.42400
C 	C 	0.08750 0.14260 0.09990 -0.01800
H 	H 	0.07260 0.16430 0.09310 0.04800
C 	C 	0.18100 0.22450 0.00740 0.27000
O 	O 	0.36210 0.14580 0.01260 -0.22600
C 	C 	0.27550 0.18140 0.00730 0.29500
C 	C 	0.24550 0.07360 0.00300 0.41500
C 	C 	0.34530 0.13150 0.04170 0.21000
O 	O 	0.27580 0.19930 0.03930 -0.39500
C 	C 	0.07350 0.25460 0.00280 0.42700
O 	O 	0.05600 0.28640 0.00890 -0.43800
O 	O 	0.19921 0.22420 0.03950 -0.38600
O 	O 	0.27700 0.05790 0.99270 -0.38100
C 	C 	0.28330 0.13750 0.00800 0.02400
O 	O 	0.05800 0.22300 0.99250 -0.38500
H 	H 	0.29540 0.11600 0.06230 0.13100
H 	H 	0.23000 0.12240 0.03310 0.16700
H 	H 	0.22700 0.12820 0.98770 0.21000
H 	H 	0.29770 0.13020 0.98450 0.08700
O 	O 	0.14630 0.63780 0.51280 -0.21400
O 	O 	0.19500 0.73390 0.47410 -0.38300
C 	C 	0.40010 0.64230 0.58750 -0.01800
H 	H 	0.40700 0.66370 0.57230 0.05200
C 	C 	0.11720 0.75680 0.50820 -0.41100
H 	H 	0.12280 0.76960 0.53290 0.17200
H 	H 	0.12840 0.77260 0.48750 0.18400
N 	N 	0.30620 0.62550 0.54150 -0.21200
O 	O 	0.21360 0.55560 0.50880 -0.42800
C 	C 	0.36720 0.62010 0.57730 -0.04700
C 	C 	0.12050 0.63230 0.57730 -0.04800
O 	O 	0.26620 0.69530 0.47490 -0.39800
C 	C 	0.13170 0.65470 0.54190 0.21300
N 	N 	0.12540 0.69350 0.54200 -0.21700
H 	H 	0.11460 0.70460 0.56190 0.13300
C 	C 	0.13700 0.71650 0.50800 0.05900
H 	H 	0.12960 0.70240 0.48410 0.05700
C 	C 	0.24340 0.61730 0.50790 -0.38300
C 	C 	0.08750 0.64260 0.59990 -0.01800
H 	H 	0.07260 0.66430 0.59310 0.05000
C 	C 	0.18100 0.72450 0.50740 0.29900
O 	O 	0.36210 0.64580 0.51260 -0.21300
C 	C 	0.27550 0.68140 0.50730 0.32600
C 	C 	0.24550 0.57360 0.50300 0.43900
C 	C 	0.34530 0.63150 0.54170 0.21200
O 	O 	0.27580 0.69930 0.53930 -0.40000
C 	C 	0.07350 0.75460 0.50280 0.45200
O 	O 	0.05600 0.78640 0.50890 -0.43500
O 	O 	0.19921 0.72420 0.53950 -0.39000
O 	O 	0.27700 0.55790 0.49270 -0.41000
C 	C 	0.28330 0.63750 0.50800 0.04400
O 	O 	0.05800 0.72300 0.49250 -0.41800
H 	H 	0.29540 0.61600 0.56230 0.13100
H 	H 	0.23000 0.62240 0.53310 0.15700
H 	H 	0.22700 0.62820 0.48770 0.17700
H 	H 	0.29770 0.63020 0.48450 0.06300
O 	O 	0.64630 0.13780 0.51280 -0.21500
O 	O 	0.69500 0.23390 0.47410 -0.38200
C 	C 	0.90010 0.14230 0.58750 -0.01800
H 	H 	0.90700 0.16370 0.57230 0.05300
C 	C 	0.61720 0.25680 0.50820 -0.41000
H 	H 	0.62280 0.26960 0.53290 0.17100
H 	H 	0.62840 0.27260 0.48750 0.18400
N 	N 	0.80620 0.12550 0.54150 -0.21200
O 	O 	0.71360 0.05560 0.50880 -0.43200
C 	C 	0.86720 0.12010 0.57730 -0.04700
C 	C 	0.62050 0.13230 0.57730 -0.04800
O 	O 	0.76620 0.19530 0.47490 -0.39800
C 	C 	0.63170 0.15470 0.54190 0.21400
N 	N 	0.62540 0.19350 0.54200 -0.21600
H 	H 	0.61460 0.20460 0.56190 0.13300
C 	C 	0.63700 0.21650 0.50800 0.05800
H 	H 	0.62960 0.20240 0.48410 0.05800
C 	C 	0.74340 0.11730 0.50790 -0.38400
C 	C 	0.58750 0.14260 0.59990 -0.01800
H 	H 	0.57260 0.16430 0.59310 0.05100
C 	C 	0.68100 0.22450 0.50740 0.29900
O 	O 	0.86210 0.14580 0.51260 -0.21200
C 	C 	0.77550 0.18140 0.50730 0.32500
C 	C 	0.74550 0.07360 0.50300 0.44000
C 	C 	0.84530 0.13150 0.54170 0.21100
O 	O 	0.77580 0.19930 0.53930 -0.40000
C 	C 	0.57350 0.25460 0.50280 0.45100
O 	O 	0.55600 0.28640 0.50890 -0.43100
O 	O 	0.69921 0.22420 0.53950 -0.39000
O 	O 	0.77700 0.05790 0.49270 -0.41400
C 	C 	0.78330 0.13750 0.50800 0.04400
O 	O 	0.55800 0.22300 0.49250 -0.41300
H 	H 	0.79540 0.11600 0.56230 0.13100
H 	H 	0.73000 0.12240 0.53310 0.15700
H 	H 	0.72700 0.12820 0.48770 0.17700
H 	H 	0.79770 0.13020 0.48450 0.06200
O 	O 	0.64630 0.63780 0.01280 -0.22400
O 	O 	0.69500 0.73390 0.97410 -0.35800
C 	C 	0.90010 0.64230 0.08750 -0.01800
H 	H 	0.90700 0.66370 0.07230 0.05200
C 	C 	0.61720 0.75680 0.00820 -0.45000
H 	H 	0.62280 0.76960 0.03290 0.18200
H 	H 	0.62840 0.77260 0.98750 0.21700
N 	N 	0.80620 0.62550 0.04150 -0.21100
O 	O 	0.71360 0.55560 0.00880 -0.43000
C 	C 	0.86720 0.62010 0.07730 -0.04700
C 	C 	0.62050 0.63230 0.07730 -0.04800
O 	O 	0.76620 0.69530 0.97490 -0.37200
C 	C 	0.63170 0.65470 0.04190 0.21200
N 	N 	0.62540 0.69350 0.04200 -0.21500
H 	H 	0.61460 0.70460 0.06190 0.13300
C 	C 	0.63700 0.71650 0.00800 0.03700
H 	H 	0.62960 0.70240 0.98410 0.08300
C 	C 	0.74340 0.61730 0.00790 -0.42200
C 	C 	0.58750 0.64260 0.09990 -0.01800
H 	H 	0.57260 0.66430 0.09310 0.05000
C 	C 	0.68100 0.72450 0.00740 0.27000
O 	O 	0.86210 0.64580 0.01260 -0.22200
C 	C 	0.77550 0.68140 0.00730 0.29500
C 	C 	0.74550 0.57360 0.00300 0.41300
C 	C 	0.84530 0.63150 0.04170 0.21000
O 	O 	0.77580 0.69930 0.03930 -0.39500
C 	C 	0.57350 0.75460 0.00280 0.42500
O 	O 	0.55600 0.78640 0.00890 -0.43200
O 	O 	0.69921 0.72420 0.03950 -0.38600
O 	O 	0.77700 0.55790 0.99270 -0.37500
C 	C 	0.78330 0.63750 0.00800 0.02300
O 	O 	0.55800 0.72300 0.99250 -0.37900
H 	H 	0.79540 0.61600 0.06230 0.13100
H 	H 	0.73000 0.62240 0.03310 0.16700
H 	H 	0.72700 0.62820 0.98770 0.21000
H 	H 	0.79770 0.63020 0.98450 0.08900
O 	O 	0.98720 0.14630 0.86220 -0.20000
O 	O 	0.02590 0.19500 0.76610 -0.40600
C 	C 	0.91250 0.40010 0.85770 -0.01800
H 	H 	0.92770 0.40700 0.83630 0.05400
C 	C 	0.99180 0.11720 0.74320 -0.36900
H 	H 	0.96710 0.12280 0.73040 0.16000
H 	H 	0.01250 0.12840 0.72740 0.15000
N 	N 	0.95850 0.30620 0.87450 -0.21200
O 	O 	0.99120 0.21360 0.94440 -0.40900
C 	C 	0.92270 0.36720 0.87990 -0.04300
C 	C 	0.92270 0.12050 0.86770 -0.04400
O 	O 	0.02510 0.26620 0.80470 -0.42300
C 	C 	0.95810 0.13170 0.84530 0.21500
N 	N 	0.95800 0.12540 0.80650 -0.21700
H 	H 	0.93810 0.11460 0.79540 0.13300
C 	C 	0.99200 0.13700 0.78350 0.07900
H 	H 	0.01590 0.12960 0.79760 0.03200
C 	C 	0.99210 0.24340 0.88270 -0.33800
C 	C 	0.90010 0.08750 0.85740 -0.01800
H 	H 	0.90690 0.07260 0.83570 0.05200
C 	C 	0.99260 0.18100 0.77550 0.32800
O 	O 	0.98740 0.36210 0.85420 -0.19900
C 	C 	0.99270 0.27550 0.81860 0.35700
C 	C 	0.99700 0.24550 0.92640 0.45800
C 	C 	0.95830 0.34530 0.86850 0.21400
O 	O 	0.96070 0.27580 0.80070 -0.40500
C 	C 	0.99720 0.07350 0.74540 0.47500
O 	O 	0.99110 0.05600 0.71360 -0.42700
O 	O 	0.96050 0.19921 0.77580 -0.39400
O 	O 	0.00730 0.27700 0.94210 -0.42600
C 	C 	0.99200 0.28330 0.86250 0.06300
O 	O 	0.00750 0.05800 0.77700 -0.44500
H 	H 	0.93770 0.29540 0.88400 0.13100
H 	H 	0.96690 0.23000 0.87760 0.14500
H 	H 	0.01230 0.22700 0.87180 0.14300
H 	H 	0.01550 0.29770 0.86980 0.03900
O 	O 	0.98720 0.64630 0.36220 -0.20100
O 	O 	0.02590 0.69500 0.26610 -0.40600
C 	C 	0.91250 0.90010 0.35770 -0.01800
H 	H 	0.92770 0.90700 0.33630 0.05500
C 	C 	0.99180 0.61720 0.24320 -0.36800
H 	H 	0.96710 0.62280 0.23040 0.16000
H 	H 	0.01250 0.62840 0.22740 0.15000
N 	N 	0.95850 0.80620 0.37450 -0.21200
O 	O 	0.99120 0.71360 0.44440 -0.41900
C 	C 	0.92270 0.86720 0.37990 -0.04300
C 	C 	0.92270 0.62050 0.36770 -0.04400
O 	O 	0.02510 0.76620 0.30470 -0.42300
C 	C 	0.95810 0.63170 0.34530 0.21500
N 	N 	0.95800 0.62540 0.30650 -0.21700
H 	H 	0.93810 0.61460 0.29540 0.13300
C 	C 	0.99200 0.63700 0.28350 0.07900
H 	H 	0.01590 0.62960 0.29760 0.03300
C 	C 	0.99210 0.74340 0.38270 -0.34100
C 	C 	0.90010 0.58750 0.35740 -0.01800
H 	H 	0.90690 0.57260 0.33570 0.05200
C 	C 	0.99260 0.68100 0.27550 0.32800
O 	O 	0.98740 0.86210 0.35420 -0.19900
C 	C 	0.99270 0.77550 0.31860 0.35700
C 	C 	0.99700 0.74550 0.42640 0.46200
C 	C 	0.95830 0.84530 0.36850 0.21300
O 	O 	0.96070 0.77580 0.30070 -0.40500
C 	C 	0.99720 0.57350 0.24540 0.47400
O 	O 	0.99110 0.55600 0.21360 -0.42300
O 	O 	0.96050 0.69921 0.27580 -0.39400
O 	O 	0.00730 0.77700 0.44210 -0.43700
C 	C 	0.99200 0.78330 0.36250 0.06400
O 	O 	0.00750 0.55800 0.27700 -0.44100
H 	H 	0.93770 0.79540 0.38400 0.13100
H 	H 	0.96690 0.73000 0.37760 0.14600
H 	H 	0.01230 0.72700 0.37180 0.14300
H 	H 	0.01550 0.79770 0.36980 0.03800
O 	O 	0.48720 0.14630 0.36220 -0.21400
O 	O 	0.52590 0.19500 0.26610 -0.38300
C 	C 	0.41250 0.40010 0.35770 -0.01800
H 	H 	0.42770 0.40700 0.33630 0.05200
C 	C 	0.49180 0.11720 0.24320 -0.41100
H 	H 	0.46710 0.12280 0.23040 0.17200
H 	H 	0.51250 0.12840 0.22740 0.18300
N 	N 	0.45850 0.30620 0.37450 -0.21200
O 	O 	0.49120 0.21360 0.44440 -0.42800
C 	C 	0.42270 0.36720 0.37990 -0.04700
C 	C 	0.42270 0.12050 0.36770 -0.04700
O 	O 	0.52510 0.26620 0.30470 -0.39800
C 	C 	0.45810 0.13170 0.34530 0.21400
N 	N 	0.45800 0.12540 0.30650 -0.21700
H 	H 	0.43810 0.11460 0.29540 0.13300
C 	C 	0.49200 0.13700 0.28350 0.05900
H 	H 	0.51590 0.12960 0.29760 0.05700
C 	C 	0.49210 0.24340 0.38270 -0.38300
C 	C 	0.40010 0.08750 0.35740 -0.01800
H 	H 	0.40690 0.07260 0.33570 0.05000
C 	C 	0.49260 0.18100 0.27550 0.29900
O 	O 	0.48740 0.36210 0.35420 -0.21300
C 	C 	0.49270 0.27550 0.31860 0.32600
C 	C 	0.49700 0.24550 0.42640 0.43900
C 	C 	0.45830 0.34530 0.36850 0.21200
O 	O 	0.46070 0.27580 0.30070 -0.40000
C 	C 	0.49720 0.07350 0.24540 0.45200
O 	O 	0.49110 0.05600 0.21360 -0.43600
O 	O 	0.46050 0.19921 0.27580 -0.39000
O 	O 	0.50730 0.27700 0.44210 -0.41000
C 	C 	0.49200 0.28330 0.36250 0.04400
O 	O 	0.50750 0.05800 0.27700 -0.41800
H 	H 	0.43770 0.29540 0.38400 0.13100
H 	H 	0.46690 0.23000 0.37760 0.15700
H 	H 	0.51230 0.22700 0.37180 0.17700
H 	H 	0.51550 0.29770 0.36980 0.06300
O 	O 	0.48720 0.64630 0.86220 -0.21100
O 	O 	0.52590 0.69500 0.76610 -0.38200
C 	C 	0.41250 0.90010 0.85770 -0.01800
H 	H 	0.42770 0.90700 0.83630 0.05400
C 	C 	0.49180 0.61720 0.74320 -0.40900
H 	H 	0.46710 0.62280 0.73040 0.17100
H 	H 	0.51250 0.62840 0.72740 0.18400
N 	N 	0.45850 0.80620 0.87450 -0.21100
O 	O 	0.49120 0.71360 0.94440 -0.41700
C 	C 	0.42270 0.86720 0.87990 -0.04400
C 	C 	0.42270 0.62050 0.86770 -0.04500
O 	O 	0.52510 0.76620 0.80470 -0.39700
C 	C 	0.45810 0.63170 0.84530 0.21400
N 	N 	0.45800 0.62540 0.80650 -0.21600
H 	H 	0.43810 0.61460 0.79540 0.13300
C 	C 	0.49200 0.63700 0.78350 0.05800
H 	H 	0.51590 0.62960 0.79760 0.05900
C 	C 	0.49210 0.74340 0.88270 -0.37900
C 	C 	0.40010 0.58750 0.85740 -0.01800
H 	H 	0.40690 0.57260 0.83570 0.05100
C 	C 	0.49260 0.68100 0.77550 0.29900
O 	O 	0.48740 0.86210 0.85420 -0.20900
C 	C 	0.49270 0.77550 0.81860 0.32600
C 	C 	0.49700 0.74550 0.92640 0.43400
C 	C 	0.45830 0.84530 0.86850 0.21200
O 	O 	0.46070 0.77580 0.80070 -0.40000
C 	C 	0.49720 0.57350 0.74540 0.45000
O 	O 	0.49110 0.55600 0.71360 -0.43100
O 	O 	0.46050 0.69921 0.77580 -0.39000
O 	O 	0.50730 0.77700 0.94210 -0.39800
C 	C 	0.49200 0.78330 0.86250 0.04200
O 	O 	0.50750 0.55800 0.77700 -0.41200
H 	H 	0.43770 0.79540 0.88400 0.13100
H 	H 	0.46690 0.73000 0.87760 0.15600
H 	H 	0.51230 0.72700 0.87180 0.17700
H 	H 	0.51550 0.79770 0.86980 0.06500
O 	O 	0.98720 0.85370 0.13780 -0.20100
O 	O 	0.02590 0.80500 0.23390 -0.40600
C 	C 	0.91250 0.59990 0.14230 -0.01800
H 	H 	0.92770 0.59300 0.16370 0.05300
C 	C 	0.99180 0.88280 0.25680 -0.36500
H 	H 	0.96710 0.87720 0.26960 0.15900
H 	H 	0.01250 0.87160 0.27260 0.15000
N 	N 	0.95850 0.69380 0.12550 -0.21300
O 	O 	0.99120 0.78640 0.05560 -0.42300
C 	C 	0.92270 0.63280 0.12010 -0.04600
C 	C 	0.92270 0.87950 0.13230 -0.04400
O 	O 	0.02510 0.73380 0.19530 -0.42300
C 	C 	0.95810 0.86830 0.15470 0.21600
N 	N 	0.95800 0.87460 0.19350 -0.21700
H 	H 	0.93810 0.88540 0.20460 0.13300
C 	C 	0.99200 0.86300 0.21650 0.07800
H 	H 	0.01590 0.87040 0.20240 0.03400
C 	C 	0.99210 0.75660 0.11730 -0.34300
C 	C 	0.90010 0.91250 0.14260 -0.01800
H 	H 	0.90690 0.92740 0.16430 0.05400
C 	C 	0.99260 0.81900 0.22450 0.32800
O 	O 	0.98740 0.63790 0.14580 -0.20300
C 	C 	0.99270 0.72450 0.18140 0.35600
C 	C 	0.99700 0.75450 0.07360 0.46400
C 	C 	0.95830 0.65470 0.13150 0.21300
O 	O 	0.96070 0.72420 0.19930 -0.40400
C 	C 	0.99720 0.92650 0.25460 0.47000
O 	O 	0.99110 0.94400 0.28640 -0.41200
O 	O 	0.96050 0.80079 0.22420 -0.39400
O 	O 	0.00730 0.72300 0.05790 -0.44300
C 	C 	0.99200 0.71670 0.13750 0.06500
O 	O 	0.00750 0.94200 0.22300 -0.43000
H 	H 	0.93770 0.70460 0.11600 0.13100
H 	H 	0.96690 0.77000 0.12240 0.14600
H 	H 	0.01230 0.77300 0.12820 0.14300
H 	H 	0.01550 0.70230 0.13020 0.03600
O 	O 	0.98720 0.35370 0.63780 -0.20100
O 	O 	0.02590 0.30500 0.73390 -0.40600
C 	C 	0.91250 0.09990 0.64230 -0.01800
H 	H 	0.92770 0.09300 0.66370 0.05200
C 	C 	0.99180 0.38280 0.75680 -0.36800
H 	H 	0.96710 0.37720 0.76960 0.16000
H 	H 	0.01250 0.37160 0.77260 0.15000
N 	N 	0.95850 0.19380 0.62550 -0.21300
O 	O 	0.99120 0.28640 0.55560 -0.41900
C 	C 	0.92270 0.13280 0.62010 -0.04600
C 	C 	0.92270 0.37950 0.63230 -0.04400
O 	O 	0.02510 0.23380 0.69530 -0.42300
C 	C 	0.95810 0.36830 0.65470 0.21500
N 	N 	0.95800 0.37460 0.69350 -0.21700
H 	H 	0.93810 0.38540 0.70460 0.13300
C 	C 	0.99200 0.36300 0.71650 0.07900
H 	H 	0.01590 0.37040 0.70240 0.03300
C 	C 	0.99210 0.25660 0.61730 -0.34200
C 	C 	0.90010 0.41250 0.64260 -0.01800
H 	H 	0.90690 0.42740 0.66430 0.05200
C 	C 	0.99260 0.31900 0.72450 0.32800
O 	O 	0.98740 0.13790 0.64580 -0.20300
C 	C 	0.99270 0.22450 0.68140 0.35600
C 	C 	0.99700 0.25450 0.57360 0.46200
C 	C 	0.95830 0.15470 0.63150 0.21400
O 	O 	0.96070 0.22420 0.69930 -0.40500
C 	C 	0.99720 0.42650 0.75460 0.47400
O 	O 	0.99110 0.44400 0.78640 -0.42200
O 	O 	0.96050 0.30079 0.72420 -0.39400
O 	O 	0.00730 0.22300 0.55790 -0.43800
C 	C 	0.99200 0.21670 0.63750 0.06500
O 	O 	0.00750 0.44200 0.72300 -0.44100
H 	H 	0.93770 0.20460 0.61600 0.13100
H 	H 	0.96690 0.27000 0.62240 0.14600
H 	H 	0.01230 0.27300 0.62820 0.14300
H 	H 	0.01550 0.20230 0.63020 0.03700
O 	O 	0.48720 0.85370 0.63780 -0.21100
O 	O 	0.52590 0.80500 0.73390 -0.38200
C 	C 	0.41250 0.59990 0.64230 -0.01800
H 	H 	0.42770 0.59300 0.66370 0.05200
C 	C 	0.49180 0.88280 0.75680 -0.40700
H 	H 	0.46710 0.87720 0.76960 0.17000
H 	H 	0.51250 0.87160 0.77260 0.18400
N 	N 	0.45850 0.69380 0.62550 -0.21200
O 	O 	0.49120 0.78640 0.55560 -0.42700
C 	C 	0.42270 0.63280 0.62010 -0.04700
C 	C 	0.42270 0.87950 0.63230 -0.04500
O 	O 	0.52510 0.73380 0.69530 -0.39700
C 	C 	0.45810 0.86830 0.65470 0.21400
N 	N 	0.45800 0.87460 0.69350 -0.21600
H 	H 	0.43810 0.88540 0.70460 0.13300
C 	C 	0.49200 0.86300 0.71650 0.05700
H 	H 	0.51590 0.87040 0.70240 0.06000
C 	C 	0.49210 0.75660 0.61730 -0.38300
C 	C 	0.40010 0.91250 0.64260 -0.01800
H 	H 	0.40690 0.92740 0.66430 0.05200
C 	C 	0.49260 0.81900 0.72450 0.29900
O 	O 	0.48740 0.63790 0.64580 -0.21300
C 	C 	0.49270 0.72450 0.68140 0.32500
C 	C 	0.49700 0.75450 0.57360 0.43800
C 	C 	0.45830 0.65470 0.63150 0.21200
O 	O 	0.46070 0.72420 0.69930 -0.40000
C 	C 	0.49720 0.92650 0.75460 0.44700
O 	O 	0.49110 0.94400 0.78640 -0.41900
O 	O 	0.46050 0.80079 0.72420 -0.39000
O 	O 	0.50730 0.72300 0.55790 -0.41000
C 	C 	0.49200 0.71670 0.63750 0.04400
O 	O 	0.50750 0.94200 0.72300 -0.40200
H 	H 	0.43770 0.70460 0.61600 0.13100
H 	H 	0.46690 0.77000 0.62240 0.15700
H 	H 	0.51230 0.77300 0.62820 0.17700
H 	H 	0.51550 0.70230 0.63020 0.06300
O 	O 	0.48720 0.35370 0.13780 -0.21400
O 	O 	0.52590 0.30500 0.23390 -0.38200
C 	C 	0.41250 0.09990 0.14230 -0.01800
H 	H 	0.42770 0.09300 0.16370 0.05000
C 	C 	0.49180 0.38280 0.25680 -0.41000
H 	H 	0.46710 0.37720 0.26960 0.17100
H 	H 	0.51250 0.37160 0.27260 0.18400
N 	N 	0.45850 0.19380 0.12550 -0.21200
O 	O 	0.49120 0.28640 0.05560 -0.43200
C 	C 	0.42270 0.13280 0.12010 -0.04900
C 	C 	0.42270 0.37950 0.13230 -0.04700
O 	O 	0.52510 0.23380 0.19530 -0.39800
C 	C 	0.45810 0.36830 0.15470 0.21400
N 	N 	0.45800 0.37460 0.19350 -0.21600
H 	H 	0.43810 0.38540 0.20460 0.13300
C 	C 	0.49200 0.36300 0.21650 0.05900
H 	H 	0.51590 0.37040 0.20240 0.05700
C 	C 	0.49210 0.25660 0.11730 -0.38500
C 	C 	0.40010 0.41250 0.14260 -0.01800
H 	H 	0.40690 0.42740 0.16430 0.05100
C 	C 	0.49260 0.31900 0.22450 0.29900
O 	O 	0.48740 0.13790 0.14580 -0.21600
C 	C 	0.49270 0.22450 0.18140 0.32500
C 	C 	0.49700 0.25450 0.07360 0.44000
C 	C 	0.45830 0.15470 0.13150 0.21200
O 	O 	0.46070 0.22420 0.19930 -0.39900
C 	C 	0.49720 0.42650 0.25460 0.45100
O 	O 	0.49110 0.44400 0.28640 -0.43100
O 	O 	0.46050 0.30079 0.22420 -0.39000
O 	O 	0.50730 0.22300 0.05790 -0.41600
C 	C 	0.49200 0.21670 0.13750 0.04500
O 	O 	0.50750 0.44200 0.22300 -0.41300
H 	H 	0.43770 0.20460 0.11600 0.13100
H 	H 	0.46690 0.27000 0.12240 0.15700
H 	H 	0.51230 0.27300 0.12820 0.17700
H 	H 	0.51550 0.20230 0.13020 0.06100
O 	O 	0.01280 0.85370 0.86220 -0.22000
O 	O 	0.97410 0.80500 0.76610 -0.35800
C 	C 	0.08750 0.59990 0.85770 -0.01800
H 	H 	0.07230 0.59300 0.83630 0.05100
C 	C 	0.00820 0.88280 0.74320 -0.44600
H 	H 	0.03290 0.87720 0.73040 0.18100
H 	H 	0.98750 0.87160 0.72740 0.21700
N 	N 	0.04150 0.69380 0.87450 -0.21000
O 	O 	0.00880 0.78640 0.94440 -0.41800
C 	C 	0.07730 0.63280 0.87990 -0.04700
C 	C 	0.07730 0.87950 0.86770 -0.04500
O 	O 	0.97490 0.73380 0.80470 -0.37200
C 	C 	0.04190 0.86830 0.84530 0.21200
N 	N 	0.04200 0.87460 0.80650 -0.21500
H 	H 	0.06190 0.88540 0.79540 0.13300
C 	C 	0.00800 0.86300 0.78350 0.03600
H 	H 	0.98410 0.87040 0.79760 0.08500
C 	C 	0.00790 0.75660 0.88270 -0.41900
C 	C 	0.09990 0.91250 0.85740 -0.01800
H 	H 	0.09310 0.92740 0.83570 0.05200
C 	C 	0.00740 0.81900 0.77550 0.27100
O 	O 	0.01260 0.63790 0.85420 -0.22300
C 	C 	0.00730 0.72450 0.81860 0.29500
C 	C 	0.00300 0.75450 0.92640 0.40900
C 	C 	0.04170 0.65470 0.86850 0.21100
O 	O 	0.03930 0.72420 0.80070 -0.39500
C 	C 	0.00280 0.92650 0.74540 0.42100
O 	O 	0.00890 0.94400 0.71360 -0.42200
O 	O 	0.03950 0.80079 0.77580 -0.38600
O 	O 	0.99270 0.72300 0.94210 -0.36500
C 	C 	0.00800 0.71670 0.86250 0.02200
O 	O 	0.99250 0.94200 0.77700 -0.36800
H 	H 	0.06230 0.70460 0.88400 0.13100
H 	H 	0.03310 0.77000 0.87760 0.16600
H 	H 	0.98770 0.77300 0.87180 0.21000
H 	H 	0.98450 0.70230 0.86980 0.09000
O 	O 	0.01280 0.35370 0.36220 -0.22400
O 	O 	0.97410 0.30500 0.26610 -0.35800
C 	C 	0.08750 0.09990 0.35770 -0.01800
H 	H 	0.07230 0.09300 0.33630 0.04900
C 	C 	0.00820 0.38280 0.24320 -0.45000
H 	H 	0.03290 0.37720 0.23040 0.18200
H 	H 	0.98750 0.37160 0.22740 0.21700
N 	N 	0.04150 0.19380 0.37450 -0.21100
O 	O 	0.00880 0.28640 0.44440 -0.43000
C 	C 	0.07730 0.13280 0.37990 -0.05000
C 	C 	0.07730 0.37950 0.36770 -0.04800
O 	O 	0.97490 0.23380 0.30470 -0.37200
C 	C 	0.04190 0.36830 0.34530 0.21200
N 	N 	0.04200 0.37460 0.30650 -0.21500
H 	H 	0.06190 0.38540 0.29540 0.13300
C 	C 	0.00800 0.36300 0.28350 0.03700
H 	H 	0.98410 0.37040 0.29760 0.08400
C 	C 	0.00790 0.25660 0.38270 -0.42300
C 	C 	0.09990 0.41250 0.35740 -0.01800
H 	H 	0.09310 0.42740 0.33570 0.05000
C 	C 	0.00740 0.31900 0.27550 0.27000
O 	O 	0.01260 0.13790 0.35420 -0.22600
C 	C 	0.00730 0.22450 0.31860 0.29500
C 	C 	0.00300 0.25450 0.42640 0.41300
C 	C 	0.04170 0.15470 0.36850 0.21100
O 	O 	0.03930 0.22420 0.30070 -0.39500
C 	C 	0.00280 0.42650 0.24540 0.42500
O 	O 	0.00890 0.44400 0.21360 -0.43300
O 	O 	0.03950 0.30079 0.27580 -0.38600
O 	O 	0.99270 0.22300 0.44210 -0.37600
C 	C 	0.00800 0.21670 0.36250 0.02300
O 	O 	0.99250 0.44200 0.27700 -0.37900
H 	H 	0.06230 0.20460 0.38400 0.13100
H 	H 	0.03310 0.27000 0.37760 0.16700
H 	H 	0.98770 0.27300 0.37180 0.21100
H 	H 	0.98450 0.20230 0.36980 0.08800
O 	O 	0.51280 0.85370 0.36220 -0.21100
O 	O 	0.47410 0.80500 0.26610 -0.38200
C 	C 	0.58750 0.59990 0.35770 -0.01800
H 	H 	0.57230 0.59300 0.33630 0.05200
C 	C 	0.50820 0.88280 0.24320 -0.40600
H 	H 	0.53290 0.87720 0.23040 0.17000
H 	H 	0.48750 0.87160 0.22740 0.18300
N 	N 	0.54150 0.69380 0.37450 -0.21200
O 	O 	0.50880 0.78640 0.44440 -0.42700
C 	C 	0.57730 0.63280 0.37990 -0.04700
C 	C 	0.57730 0.87950 0.36770 -0.04500
O 	O 	0.47490 0.73380 0.30470 -0.39800
C 	C 	0.54190 0.86830 0.34530 0.21400
N 	N 	0.54200 0.87460 0.30650 -0.21600
H 	H 	0.56190 0.88540 0.29540 0.13300
C 	C 	0.50800 0.86300 0.28350 0.05700
H 	H 	0.48410 0.87040 0.29760 0.06000
C 	C 	0.50790 0.75660 0.38270 -0.38300
C 	C 	0.59990 0.91250 0.35740 -0.01800
H 	H 	0.59310 0.92740 0.33570 0.05200
C 	C 	0.50740 0.81900 0.27550 0.29900
O 	O 	0.51260 0.63790 0.35420 -0.21300
C 	C 	0.50730 0.72450 0.31860 0.32500
C 	C 	0.50300 0.75450 0.42640 0.43800
C 	C 	0.54170 0.65470 0.36850 0.21200
O 	O 	0.53930 0.72420 0.30070 -0.40000
C 	C 	0.50280 0.92650 0.24540 0.44700
O 	O 	0.50890 0.94400 0.21360 -0.42100
O 	O 	0.53950 0.80079 0.27580 -0.39000
O 	O 	0.49270 0.72300 0.44210 -0.41000
C 	C 	0.50800 0.71670 0.36250 0.04400
O 	O 	0.49250 0.94200 0.27700 -0.40200
H 	H 	0.56230 0.70460 0.38400 0.13100
H 	H 	0.53310 0.77000 0.37760 0.15700
H 	H 	0.48770 0.77300 0.37180 0.17700
H 	H 	0.48450 0.70230 0.36980 0.06300
O 	O 	0.51280 0.35370 0.86220 -0.21100
O 	O 	0.47410 0.30500 0.76610 -0.38200
C 	C 	0.58750 0.09990 0.85770 -0.01900
H 	H 	0.57230 0.09300 0.83630 0.05100
C 	C 	0.50820 0.38280 0.74320 -0.40900
H 	H 	0.53290 0.37720 0.73040 0.17100
H 	H 	0.48750 0.37160 0.72740 0.18400
N 	N 	0.54150 0.19380 0.87450 -0.21100
O 	O 	0.50880 0.28640 0.94440 -0.41700
C 	C 	0.57730 0.13280 0.87990 -0.04700
C 	C 	0.57730 0.37950 0.86770 -0.04500
O 	O 	0.47490 0.23380 0.80470 -0.39700
C 	C 	0.54190 0.36830 0.84530 0.21400
N 	N 	0.54200 0.37460 0.80650 -0.21600
H 	H 	0.56190 0.38540 0.79540 0.13300
C 	C 	0.50800 0.36300 0.78350 0.05800
H 	H 	0.48410 0.37040 0.79760 0.05900
C 	C 	0.50790 0.25660 0.88270 -0.38000
C 	C 	0.59990 0.41250 0.85740 -0.01800
H 	H 	0.59310 0.42740 0.83570 0.05100
C 	C 	0.50740 0.31900 0.77550 0.29900
O 	O 	0.51260 0.13790 0.85420 -0.21300
C 	C 	0.50730 0.22450 0.81860 0.32600
C 	C 	0.50300 0.25450 0.92640 0.43500
C 	C 	0.54170 0.15470 0.86850 0.21200
O 	O 	0.53930 0.22420 0.80070 -0.40000
C 	C 	0.50280 0.42650 0.74540 0.45000
O 	O 	0.50890 0.44400 0.71360 -0.43100
O 	O 	0.53950 0.30079 0.77580 -0.39000
O 	O 	0.49270 0.22300 0.94210 -0.39900
C 	C 	0.50800 0.21670 0.86250 0.04300
O 	O 	0.49250 0.44200 0.77700 -0.41200
H 	H 	0.56230 0.20460 0.88400 0.13100
H 	H 	0.53310 0.27000 0.87760 0.15600
H 	H 	0.48770 0.27300 0.87180 0.17700
H 	H 	0.48450 0.20230 0.86980 0.06400
O 	O 	0.01280 0.14630 0.13780 -0.22700
O 	O 	0.97410 0.19500 0.23390 -0.35900
C 	C 	0.08750 0.40010 0.14230 -0.01800
H 	H 	0.07230 0.40700 0.16370 0.05000
C 	C 	0.00820 0.11720 0.25680 -0.45200
H 	H 	0.03290 0.12280 0.26960 0.18300
H 	H 	0.98750 0.12840 0.27260 0.21700
N 	N 	0.04150 0.30620 0.12550 -0.21100
O 	O 	0.00880 0.21360 0.05560 -0.43500
C 	C 	0.07730 0.36720 0.12010 -0.05000
C 	C 	0.07730 0.12050 0.13230 -0.05100
O 	O 	0.97490 0.26620 0.19530 -0.37300
C 	C 	0.04190 0.13170 0.15470 0.21200
N 	N 	0.04200 0.12540 0.19350 -0.21600
H 	H 	0.06190 0.11460 0.20460 0.13300
C 	C 	0.00800 0.13700 0.21650 0.03800
H 	H 	0.98410 0.12960 0.20240 0.08200
C 	C 	0.00790 0.24340 0.11730 -0.42400
C 	C 	0.09990 0.08750 0.14260 -0.01800
H 	H 	0.09310 0.07260 0.16430 0.04800
C 	C 	0.00740 0.18100 0.22450 0.27000
O 	O 	0.01260 0.36210 0.14580 -0.22600
C 	C 	0.00730 0.27550 0.18140 0.29500
C 	C 	0.00300 0.24550 0.07360 0.41500
C 	C 	0.04170 0.34530 0.13150 0.21000
O 	O 	0.03930 0.27580 0.19930 -0.39500
C 	C 	0.00280 0.07350 0.25460 0.42700
O 	O 	0.00890 0.05600 0.28640 -0.43800
O 	O 	0.03950 0.19921 0.22420 -0.38600
O 	O 	0.99270 0.27700 0.05790 -0.38100
C 	C 	0.00800 0.28330 0.13750 0.02400
O 	O 	0.99250 0.05800 0.22300 -0.38500
H 	H 	0.06230 0.29540 0.11600 0.13100
H 	H 	0.03310 0.23000 0.12240 0.16700
H 	H 	0.98770 0.22700 0.12820 0.21000
H 	H 	0.98450 0.29770 0.13020 0.08700
O 	O 	0.01280 0.64630 0.63780 -0.22400
O 	O 	0.97410 0.69500 0.73390 -0.35800
C 	C 	0.08750 0.90010 0.64230 -0.01800
H 	H 	0.07230 0.90700 0.66370 0.05200
C 	C 	0.00820 0.61720 0.75680 -0.45000
H 	H 	0.03290 0.62280 0.76960 0.18200
H 	H 	0.98750 0.62840 0.77260 0.21700
N 	N 	0.04150 0.80620 0.62550 -0.21100
O 	O 	0.00880 0.71360 0.55560 -0.43000
C 	C 	0.07730 0.86720 0.62010 -0.04700
C 	C 	0.07730 0.62050 0.63230 -0.04800
O 	O 	0.97490 0.76620 0.69530 -0.37200
C 	C 	0.04190 0.63170 0.65470 0.21200
N 	N 	0.04200 0.62540 0.69350 -0.21500
H 	H 	0.06190 0.61460 0.70460 0.13300
C 	C 	0.00800 0.63700 0.71650 0.03700
H 	H 	0.98410 0.62960 0.70240 0.08300
C 	C 	0.00790 0.74340 0.61730 -0.42200
C 	C 	0.09990 0.58750 0.64260 -0.01800
H 	H 	0.09310 0.57260 0.66430 0.05000
C 	C 	0.00740 0.68100 0.72450 0.27000
O 	O 	0.01260 0.86210 0.64580 -0.22200
C 	C 	0.00730 0.77550 0.68140 0.29500
C 	C 	0.00300 0.74550 0.57360 0.41300
C 	C 	0.04170 0.84530 0.63150 0.21000
O 	O 	0.03930 0.77580 0.69930 -0.39500
C 	C 	0.00280 0.57350 0.75460 0.42500
O 	O 	0.00890 0.55600 0.78640 -0.43200
O 	O 	0.03950 0.69921 0.72420 -0.38600
O 	O 	0.99270 0.77700 0.55790 -0.37500
C 	C 	0.00800 0.78330 0.63750 0.02300
O 	O 	0.99250 0.55800 0.72300 -0.37900
H 	H 	0.06230 0.79540 0.61600 0.13100
H 	H 	0.03310 0.73000 0.62240 0.16700
H 	H 	0.98770 0.72700 0.62820 0.21000
H 	H 	0.98450 0.79770 0.63020 0.08900
O 	O 	0.51280 0.14630 0.63780 -0.21400
O 	O 	0.47410 0.19500 0.73390 -0.38300
C 	C 	0.58750 0.40010 0.64230 -0.01800
H 	H 	0.57230 0.40700 0.66370 0.05200
C 	C 	0.50820 0.11720 0.75680 -0.41100
H 	H 	0.53290 0.12280 0.76960 0.17200
H 	H 	0.48750 0.12840 0.77260 0.18400
N 	N 	0.54150 0.30620 0.62550 -0.21200
O 	O 	0.50880 0.21360 0.55560 -0.42800
C 	C 	0.57730 0.36720 0.62010 -0.04700
C 	C 	0.57730 0.12050 0.63230 -0.04800
O 	O 	0.47490 0.26620 0.69530 -0.39800
C 	C 	0.54190 0.13170 0.65470 0.21300
N 	N 	0.54200 0.12540 0.69350 -0.21700
H 	H 	0.56190 0.11460 0.70460 0.13300
C 	C 	0.50800 0.13700 0.71650 0.05900
H 	H 	0.48410 0.12960 0.70240 0.05700
C 	C 	0.50790 0.24340 0.61730 -0.38300
C 	C 	0.59990 0.08750 0.64260 -0.01800
H 	H 	0.59310 0.07260 0.66430 0.05000
C 	C 	0.50740 0.18100 0.72450 0.29900
O 	O 	0.51260 0.36210 0.64580 -0.21300
C 	C 	0.50730 0.27550 0.68140 0.32600
C 	C 	0.50300 0.24550 0.57360 0.43900
C 	C 	0.54170 0.34530 0.63150 0.21200
O 	O 	0.53930 0.27580 0.69930 -0.40000
C 	C 	0.50280 0.07350 0.75460 0.45200
O 	O 	0.50890 0.05600 0.78640 -0.43500
O 	O 	0.53950 0.19921 0.72420 -0.39000
O 	O 	0.49270 0.27700 0.55790 -0.41000
C 	C 	0.50800 0.28330 0.63750 0.04400
O 	O 	0.49250 0.05800 0.72300 -0.41800
H 	H 	0.56230 0.29540 0.61600 0.13100
H 	H 	0.53310 0.23000 0.62240 0.15700
H 	H 	0.48770 0.22700 0.62820 0.17700
H 	H 	0.48450 0.29770 0.63020 0.06300
O 	O 	0.51280 0.64630 0.13780 -0.21500
O 	O 	0.47410 0.69500 0.23390 -0.38200
C 	C 	0.58750 0.90010 0.14230 -0.01800
H 	H 	0.57230 0.90700 0.16370 0.05300
C 	C 	0.50820 0.61720 0.25680 -0.41000
H 	H 	0.53290 0.62280 0.26960 0.17100
H 	H 	0.48750 0.62840 0.27260 0.18400
N 	N 	0.54150 0.80620 0.12550 -0.21200
O 	O 	0.50880 0.71360 0.05560 -0.43200
C 	C 	0.57730 0.86720 0.12010 -0.04700
C 	C 	0.57730 0.62050 0.13230 -0.04800
O 	O 	0.47490 0.76620 0.19530 -0.39800
C 	C 	0.54190 0.63170 0.15470 0.21400
N 	N 	0.54200 0.62540 0.19350 -0.21600
H 	H 	0.56190 0.61460 0.20460 0.13300
C 	C 	0.50800 0.63700 0.21650 0.05800
H 	H 	0.48410 0.62960 0.20240 0.05800
C 	C 	0.50790 0.74340 0.11730 -0.38400
C 	C 	0.59990 0.58750 0.14260 -0.01800
H 	H 	0.59310 0.57260 0.16430 0.05100
C 	C 	0.50740 0.68100 0.22450 0.29900
O 	O 	0.51260 0.86210 0.14580 -0.21200
C 	C 	0.50730 0.77550 0.18140 0.32500
C 	C 	0.50300 0.74550 0.07360 0.44000
C 	C 	0.54170 0.84530 0.13150 0.21100
O 	O 	0.53930 0.77580 0.19930 -0.40000
C 	C 	0.50280 0.57350 0.25460 0.45100
O 	O 	0.50890 0.55600 0.28640 -0.43100
O 	O 	0.53950 0.69921 0.22420 -0.39000
O 	O 	0.49270 0.77700 0.05790 -0.41400
C 	C 	0.50800 0.78330 0.13750 0.04400
O 	O 	0.49250 0.55800 0.22300 -0.41300
H 	H 	0.56230 0.79540 0.11600 0.13100
H 	H 	0.53310 0.73000 0.12240 0.15700
H 	H 	0.48770 0.72700 0.12820 0.17700
H 	H 	0.48450 0.79770 0.13020 0.06200
O 	O 	0.86220 0.98720 0.14630 -0.20000
O 	O 	0.76610 0.02590 0.19500 -0.40600
C 	C 	0.85770 0.91250 0.40010 -0.01800
H 	H 	0.83630 0.92770 0.40700 0.05400
C 	C 	0.74320 0.99180 0.11720 -0.36900
H 	H 	0.73040 0.96710 0.12280 0.16000
H 	H 	0.72740 0.01250 0.12840 0.15000
N 	N 	0.87450 0.95850 0.30620 -0.21200
O 	O 	0.94440 0.99120 0.21360 -0.40900
C 	C 	0.87990 0.92270 0.36720 -0.04300
C 	C 	0.86770 0.92270 0.12050 -0.04400
O 	O 	0.80470 0.02510 0.26620 -0.42300
C 	C 	0.84530 0.95810 0.13170 0.21500
N 	N 	0.80650 0.95800 0.12540 -0.21700
H 	H 	0.79540 0.93810 0.11460 0.13300
C 	C 	0.78350 0.99200 0.13700 0.07900
H 	H 	0.79760 0.01590 0.12960 0.03200
C 	C 	0.88270 0.99210 0.24340 -0.33800
C 	C 	0.85740 0.90010 0.08750 -0.01800
H 	H 	0.83570 0.90690 0.07260 0.05200
C 	C 	0.77550 0.99260 0.18100 0.32800
O 	O 	0.85420 0.98740 0.36210 -0.19900
C 	C 	0.81860 0.99270 0.27550 0.35700
C 	C 	0.92640 0.99700 0.24550 0.45800
C 	C 	0.86850 0.95830 0.34530 0.21400
O 	O 	0.80070 0.96070 0.27580 -0.40500
C 	C 	0.74540 0.99720 0.07350 0.47500
O 	O 	0.71360 0.99110 0.05600 -0.42700
O 	O 	0.77580 0.96050 0.19921 -0.39400
O 	O 	0.94210 0.00730 0.27700 -0.42600
C 	C 	0.86250 0.99200 0.28330 0.06300
O 	O 	0.77700 0.00750 0.05800 -0.44500
H 	H 	0.88400 0.93770 0.29540 0.13100
H 	H 	0.87760 0.96690 0.23000 0.14500
H 	H 	0.87180 0.01230 0.22700 0.14300
H 	H 	0.86980 0.01550 0.29770 0.03900
O 	O 	0.86220 0.48720 0.64630 -0.21100
O 	O 	0.76610 0.52590 0.69500 -0.38200
C 	C 	0.85770 0.41250 0.90010 -0.01800
H 	H 	0.83630 0.42770 0.90700 0.05400
C 	C 	0.74320 0.49180 0.61720 -0.40900
H 	H 	0.73040 0.46710 0.62280 0.17100
H 	H 	0.72740 0.51250 0.62840 0.18400
N 	N 	0.87450 0.45850 0.80620 -0.21100
O 	O 	0.94440 0.49120 0.71360 -0.41700
C 	C 	0.87990 0.42270 0.86720 -0.04400
C 	C 	0.86770 0.42270 0.62050 -0.04500
O 	O 	0.80470 0.52510 0.76620 -0.39700
C 	C 	0.84530 0.45810 0.63170 0.21400
N 	N 	0.80650 0.45800 0.62540 -0.21600
H 	H 	0.79540 0.43810 0.61460 0.13300
C 	C 	0.78350 0.49200 0.63700 0.05800
H 	H 	0.79760 0.51590 0.62960 0.05900
C 	C 	0.88270 0.49210 0.74340 -0.37900
C 	C 	0.85740 0.40010 0.58750 -0.01800
H 	H 	0.83570 0.40690 0.57260 0.05100
C 	C 	0.77550 0.49260 0.68100 0.29900
O 	O 	0.85420 0.48740 0.86210 -0.20900
C 	C 	0.81860 0.49270 0.77550 0.32600
C 	C 	0.92640 0.49700 0.74550 0.43400
C 	C 	0.86850 0.45830 0.84530 0.21200
O 	O 	0.80070 0.46070 0.77580 -0.40000
C 	C 	0.74540 0.49720 0.57350 0.45000
O 	O 	0.71360 0.49110 0.55600 -0.43100
O 	O 	0.77580 0.46050 0.69921 -0.39000
O 	O 	0.94210 0.50730 0.77700 -0.39800
C 	C 	0.86250 0.49200 0.78330 0.04200
O 	O 	0.77700 0.50750 0.55800 -0.41200
H 	H 	0.88400 0.43770 0.79540 0.13100
H 	H 	0.87760 0.46690 0.73000 0.15600
H 	H 	0.87180 0.51230 0.72700 0.17700
H 	H 	0.86980 0.51550 0.79770 0.06500
O 	O 	0.36220 0.98720 0.64630 -0.20100
O 	O 	0.26610 0.02590 0.69500 -0.40600
C 	C 	0.35770 0.91250 0.90010 -0.01800
H 	H 	0.33630 0.92770 0.90700 0.05500
C 	C 	0.24320 0.99180 0.61720 -0.36800
H 	H 	0.23040 0.96710 0.62280 0.16000
H 	H 	0.22740 0.01250 0.62840 0.15000
N 	N 	0.37450 0.95850 0.80620 -0.21200
O 	O 	0.44440 0.99120 0.71360 -0.41900
C 	C 	0.37990 0.92270 0.86720 -0.04300
C 	C 	0.36770 0.92270 0.62050 -0.04400
O 	O 	0.30470 0.02510 0.76620 -0.42300
C 	C 	0.34530 0.95810 0.63170 0.21500
N 	N 	0.30650 0.95800 0.62540 -0.21700
H 	H 	0.29540 0.93810 0.61460 0.13300
C 	C 	0.28350 0.99200 0.63700 0.07900
H 	H 	0.29760 0.01590 0.62960 0.03300
C 	C 	0.38270 0.99210 0.74340 -0.34100
C 	C 	0.35740 0.90010 0.58750 -0.01800
H 	H 	0.33570 0.90690 0.57260 0.05200
C 	C 	0.27550 0.99260 0.68100 0.32800
O 	O 	0.35420 0.98740 0.86210 -0.19900
C 	C 	0.31860 0.99270 0.77550 0.35700
C 	C 	0.42640 0.99700 0.74550 0.46200
C 	C 	0.36850 0.95830 0.84530 0.21300
O 	O 	0.30070 0.96070 0.77580 -0.40500
C 	C 	0.24540 0.99720 0.57350 0.47400
O 	O 	0.21360 0.99110 0.55600 -0.42300
O 	O 	0.27580 0.96050 0.69921 -0.39400
O 	O 	0.44210 0.00730 0.77700 -0.43700
C 	C 	0.36250 0.99200 0.78330 0.06400
O 	O 	0.27700 0.00750 0.55800 -0.44100
H 	H 	0.38400 0.93770 0.79540 0.13100
H 	H 	0.37760 0.96690 0.73000 0.14600
H 	H 	0.37180 0.01230 0.72700 0.14300
H 	H 	0.36980 0.01550 0.79770 0.03800
O 	O 	0.36220 0.48720 0.14630 -0.21400
O 	O 	0.26610 0.52590 0.19500 -0.38300
C 	C 	0.35770 0.41250 0.40010 -0.01800
H 	H 	0.33630 0.42770 0.40700 0.05200
C 	C 	0.24320 0.49180 0.11720 -0.41100
H 	H 	0.23040 0.46710 0.12280 0.17200
H 	H 	0.22740 0.51250 0.12840 0.18300
N 	N 	0.37450 0.45850 0.30620 -0.21200
O 	O 	0.44440 0.49120 0.21360 -0.42800
C 	C 	0.37990 0.42270 0.36720 -0.04700
C 	C 	0.36770 0.42270 0.12050 -0.04700
O 	O 	0.30470 0.52510 0.26620 -0.39800
C 	C 	0.34530 0.45810 0.13170 0.21400
N 	N 	0.30650 0.45800 0.12540 -0.21700
H 	H 	0.29540 0.43810 0.11460 0.13300
C 	C 	0.28350 0.49200 0.13700 0.05900
H 	H 	0.29760 0.51590 0.12960 0.05700
C 	C 	0.38270 0.49210 0.24340 -0.38300
C 	C 	0.35740 0.40010 0.08750 -0.01800
H 	H 	0.33570 0.40690 0.07260 0.05000
C 	C 	0.27550 0.49260 0.18100 0.29900
O 	O 	0.35420 0.48740 0.36210 -0.21300
C 	C 	0.31860 0.49270 0.27550 0.32600
C 	C 	0.42640 0.49700 0.24550 0.43900
C 	C 	0.36850 0.45830 0.34530 0.21200
O 	O 	0.30070 0.46070 0.27580 -0.40000
C 	C 	0.24540 0.49720 0.07350 0.45200
O 	O 	0.21360 0.49110 0.05600 -0.43600
O 	O 	0.27580 0.46050 0.19921 -0.39000
O 	O 	0.44210 0.50730 0.27700 -0.41000
C 	C 	0.36250 0.49200 0.28330 0.04400
O 	O 	0.27700 0.50750 0.05800 -0.41800
H 	H 	0.38400 0.43770 0.29540 0.13100
H 	H 	0.37760 0.46690 0.23000 0.15700
H 	H 	0.37180 0.51230 0.22700 0.17700
H 	H 	0.36980 0.51550 0.29770 0.06300
O 	O 	0.13780 0.98720 0.85370 -0.20100
O 	O 	0.23390 0.02590 0.80500 -0.40600
C 	C 	0.14230 0.91250 0.59990 -0.01800
H 	H 	0.16370 0.92770 0.59300 0.05300
C 	C 	0.25680 0.99180 0.88280 -0.36500
H 	H 	0.26960 0.96710 0.87720 0.15900
H 	H 	0.27260 0.01250 0.87160 0.15000
N 	N 	0.12550 0.95850 0.69380 -0.21300
O 	O 	0.05560 0.99120 0.78640 -0.42300
C 	C 	0.12010 0.92270 0.63280 -0.04600
C 	C 	0.13230 0.92270 0.87950 -0.04400
O 	O 	0.19530 0.02510 0.73380 -0.42300
C 	C 	0.15470 0.95810 0.86830 0.21600
N 	N 	0.19350 0.95800 0.87460 -0.21700
H 	H 	0.20460 0.93810 0.88540 0.13300
C 	C 	0.21650 0.99200 0.86300 0.07800
H 	H 	0.20240 0.01590 0.87040 0.03400
C 	C 	0.11730 0.99210 0.75660 -0.34300
C 	C 	0.14260 0.90010 0.91250 -0.01800
H 	H 	0.16430 0.90690 0.92740 0.05400
C 	C 	0.22450 0.99260 0.81900 0.32800
O 	O 	0.14580 0.98740 0.63790 -0.20300
C 	C 	0.18140 0.99270 0.72450 0.35600
C 	C 	0.07360 0.99700 0.75450 0.46400
C 	C 	0.13150 0.95830 0.65470 0.21300
O 	O 	0.19930 0.96070 0.72420 -0.40400
C 	C 	0.25460 0.99720 0.92650 0.47000
O 	O 	0.28640 0.99110 0.94400 -0.41200
O 	O 	0.22420 0.96050 0.80079 -0.39400
O 	O 	0.05790 0.00730 0.72300 -0.44300
C 	C 	0.13750 0.99200 0.71670 0.06500
O 	O 	0.22300 0.00750 0.94200 -0.43000
H 	H 	0.11600 0.93770 0.70460 0.13100
H 	H 	0.12240 0.96690 0.77000 0.14600
H 	H 	0.12820 0.01230 0.77300 0.14300
H 	H 	0.13020 0.01550 0.70230 0.03600
O 	O 	0.13780 0.48720 0.35370 -0.21400
O 	O 	0.23390 0.52590 0.30500 -0.38200
C 	C 	0.14230 0.41250 0.09990 -0.01800
H 	H 	0.16370 0.42770 0.09300 0.05000
C 	C 	0.25680 0.49180 0.38280 -0.41000
H 	H 	0.26960 0.46710 0.37720 0.17100
H 	H 	0.27260 0.51250 0.37160 0.18400
N 	N 	0.12550 0.45850 0.19380 -0.21200
O 	O 	0.05560 0.49120 0.28640 -0.43200
C 	C 	0.12010 0.42270 0.13280 -0.04900
C 	C 	0.13230 0.42270 0.37950 -0.04700
O 	O 	0.19530 0.52510 0.23380 -0.39800
C 	C 	0.15470 0.45810 0.36830 0.21400
N 	N 	0.19350 0.45800 0.37460 -0.21600
H 	H 	0.20460 0.43810 0.38540 0.13300
C 	C 	0.21650 0.49200 0.36300 0.05900
H 	H 	0.20240 0.51590 0.37040 0.05700
C 	C 	0.11730 0.49210 0.25660 -0.38500
C 	C 	0.14260 0.40010 0.41250 -0.01800
H 	H 	0.16430 0.40690 0.42740 0.05100
C 	C 	0.22450 0.49260 0.31900 0.29900
O 	O 	0.14580 0.48740 0.13790 -0.21600
C 	C 	0.18140 0.49270 0.22450 0.32500
C 	C 	0.07360 0.49700 0.25450 0.44000
C 	C 	0.13150 0.45830 0.15470 0.21200
O 	O 	0.19930 0.46070 0.22420 -0.39900
C 	C 	0.25460 0.49720 0.42650 0.45100
O 	O 	0.28640 0.49110 0.44400 -0.43100
O 	O 	0.22420 0.46050 0.30079 -0.39000
O 	O 	0.05790 0.50730 0.22300 -0.41600
C 	C 	0.13750 0.49200 0.21670 0.04500
O 	O 	0.22300 0.50750 0.44200 -0.41300
H 	H 	0.11600 0.43770 0.20460 0.13100
H 	H 	0.12240 0.46690 0.27000 0.15700
H 	H 	0.12820 0.51230 0.27300 0.17700
H 	H 	0.13020 0.51550 0.20230 0.06100
O 	O 	0.63780 0.98720 0.35370 -0.20100
O 	O 	0.73390 0.02590 0.30500 -0.40600
C 	C 	0.64230 0.91250 0.09990 -0.01800
H 	H 	0.66370 0.92770 0.09300 0.05200
C 	C 	0.75680 0.99180 0.38280 -0.36800
H 	H 	0.76960 0.96710 0.37720 0.16000
H 	H 	0.77260 0.01250 0.37160 0.15000
N 	N 	0.62550 0.95850 0.19380 -0.21300
O 	O 	0.55560 0.99120 0.28640 -0.41900
C 	C 	0.62010 0.92270 0.13280 -0.04600
C 	C 	0.63230 0.92270 0.37950 -0.04400
O 	O 	0.69530 0.02510 0.23380 -0.42300
C 	C 	0.65470 0.95810 0.36830 0.21500
N 	N 	0.69350 0.95800 0.37460 -0.21700
H 	H 	0.70460 0.93810 0.38540 0.13300
C 	C 	0.71650 0.99200 0.36300 0.07900
H 	H 	0.70240 0.01590 0.37040 0.03300
C 	C 	0.61730 0.99210 0.25660 -0.34200
C 	C 	0.64260 0.90010 0.41250 -0.01800
H 	H 	0.66430 0.90690 0.42740 0.05200
C 	C 	0.72450 0.99260 0.31900 0.32800
O 	O 	0.64580 0.98740 0.13790 -0.20300
C 	C 	0.68140 0.99270 0.22450 0.35600
C 	C 	0.57360 0.99700 0.25450 0.46200
C 	C 	0.63150 0.95830 0.15470 0.21400
O 	O 	0.69930 0.96070 0.22420 -0.40500
C 	C 	0.75460 0.99720 0.42650 0.47400
O 	O 	0.78640 0.99110 0.44400 -0.42200
O 	O 	0.72420 0.96050 0.30079 -0.39400
O 	O 	0.55790 0.00730 0.22300 -0.43800
C 	C 	0.63750 0.99200 0.21670 0.06500
O 	O 	0.72300 0.00750 0.44200 -0.44100
H 	H 	0.61600 0.93770 0.20460 0.13100
H 	H 	0.62240 0.96690 0.27000 0.14600
H 	H 	0.62820 0.01230 0.27300 0.14300
H 	H 	0.63020 0.01550 0.20230 0.03700
O 	O 	0.63780 0.48720 0.85370 -0.21100
O 	O 	0.73390 0.52590 0.80500 -0.38200
C 	C 	0.64230 0.41250 0.59990 -0.01800
H 	H 	0.66370 0.42770 0.59300 0.05200
C 	C 	0.75680 0.49180 0.88280 -0.40700
H 	H 	0.76960 0.46710 0.87720 0.17000
H 	H 	0.77260 0.51250 0.87160 0.18400
N 	N 	0.62550 0.45850 0.69380 -0.21200
O 	O 	0.55560 0.49120 0.78640 -0.42700
C 	C 	0.62010 0.42270 0.63280 -0.04700
C 	C 	0.63230 0.42270 0.87950 -0.04500
O 	O 	0.69530 0.52510 0.73380 -0.39700
C 	C 	0.65470 0.45810 0.86830 0.21400
N 	N 	0.69350 0.45800 0.87460 -0.21600
H 	H 	0.70460 0.43810 0.88540 0.13300
C 	C 	0.71650 0.49200 0.86300 0.05700
H 	H 	0.70240 0.51590 0.87040 0.06000
C 	C 	0.61730 0.49210 0.75660 -0.38300
C 	C 	0.64260 0.40010 0.91250 -0.01800
H 	H 	0.66430 0.40690 0.92740 0.05200
C 	C 	0.72450 0.49260 0.81900 0.29900
O 	O 	0.64580 0.48740 0.63790 -0.21300
C 	C 	0.68140 0.49270 0.72450 0.32500
C 	C 	0.57360 0.49700 0.75450 0.43800
C 	C 	0.63150 0.45830 0.65470 0.21200
O 	O 	0.69930 0.46070 0.72420 -0.40000
C 	C 	0.75460 0.49720 0.92650 0.44700
O 	O 	0.78640 0.49110 0.94400 -0.41900
O 	O 	0.72420 0.46050 0.80079 -0.39000
O 	O 	0.55790 0.50730 0.72300 -0.41000
C 	C 	0.63750 0.49200 0.71670 0.04400
O 	O 	0.72300 0.50750 0.94200 -0.40200
H 	H 	0.61600 0.43770 0.70460 0.13100
H 	H 	0.62240 0.46690 0.77000 0.15700
H 	H 	0.62820 0.51230 0.77300 0.17700
H 	H 	0.63020 0.51550 0.70230 0.06300
O 	O 	0.86220 0.01280 0.85370 -0.22000
O 	O 	0.76610 0.97410 0.80500 -0.35800
C 	C 	0.85770 0.08750 0.59990 -0.01800
H 	H 	0.83630 0.07230 0.59300 0.05100
C 	C 	0.74320 0.00820 0.88280 -0.44600
H 	H 	0.73040 0.03290 0.87720 0.18100
H 	H 	0.72740 0.98750 0.87160 0.21700
N 	N 	0.87450 0.04150 0.69380 -0.21000
O 	O 	0.94440 0.00880 0.78640 -0.41800
C 	C 	0.87990 0.07730 0.63280 -0.04700
C 	C 	0.86770 0.07730 0.87950 -0.04500
O 	O 	0.80470 0.97490 0.73380 -0.37200
C 	C 	0.84530 0.04190 0.86830 0.21200
N 	N 	0.80650 0.04200 0.87460 -0.21500
H 	H 	0.79540 0.06190 0.88540 0.13300
C 	C 	0.78350 0.00800 0.86300 0.03600
H 	H 	0.79760 0.98410 0.87040 0.08500
C 	C 	0.88270 0.00790 0.75660 -0.41900
C 	C 	0.85740 0.09990 0.91250 -0.01800
H 	H 	0.83570 0.09310 0.92740 0.05200
C 	C 	0.77550 0.00740 0.81900 0.27100
O 	O 	0.85420 0.01260 0.63790 -0.22300
C 	C 	0.81860 0.00730 0.72450 0.29500
C 	C 	0.92640 0.00300 0.75450 0.40900
C 	C 	0.86850 0.04170 0.65470 0.21100
O 	O 	0.80070 0.03930 0.72420 -0.39500
C 	C 	0.74540 0.00280 0.92650 0.42100
O 	O 	0.71360 0.00890 0.94400 -0.42200
O 	O 	0.77580 0.03950 0.80079 -0.38600
O 	O 	0.94210 0.99270 0.72300 -0.36500
C 	C 	0.86250 0.00800 0.71670 0.02200
O 	O 	0.77700 0.99250 0.94200 -0.36800
H 	H 	0.88400 0.06230 0.70460 0.13100
H 	H 	0.87760 0.03310 0.77000 0.16600
H 	H 	0.87180 0.98770 0.77300 0.21000
H 	H 	0.86980 0.98450 0.70230 0.09000
O 	O 	0.86220 0.51280 0.35370 -0.21100
O 	O 	0.76610 0.47410 0.30500 -0.38200
C 	C 	0.85770 0.58750 0.09990 -0.01900
H 	H 	0.83630 0.57230 0.09300 0.05100
C 	C 	0.74320 0.50820 0.38280 -0.40900
H 	H 	0.73040 0.53290 0.37720 0.17100
H 	H 	0.72740 0.48750 0.37160 0.18400
N 	N 	0.87450 0.54150 0.19380 -0.21100
O 	O 	0.94440 0.50880 0.28640 -0.41700
C 	C 	0.87990 0.57730 0.13280 -0.04700
C 	C 	0.86770 0.57730 0.37950 -0.04500
O 	O 	0.80470 0.47490 0.23380 -0.39700
C 	C 	0.84530 0.54190 0.36830 0.21400
N 	N 	0.80650 0.54200 0.37460 -0.21600
H 	H 	0.79540 0.56190 0.38540 0.13300
C 	C 	0.78350 0.50800 0.36300 0.05800
H 	H 	0.79760 0.48410 0.37040 0.05900
C 	C 	0.88270 0.50790 0.25660 -0.38000
C 	C 	0.85740 0.59990 0.41250 -0.01800
H 	H 	0.83570 0.59310 0.42740 0.05100
C 	C 	0.77550 0.50740 0.31900 0.29900
O 	O 	0.85420 0.51260 0.13790 -0.21300
C 	C 	0.81860 0.50730 0.22450 0.32600
C 	C 	0.92640 0.50300 0.25450 0.43500
C 	C 	0.86850 0.54170 0.15470 0.21200
O 	O 	0.80070 0.53930 0.22420 -0.40000
C 	C 	0.74540 0.50280 0.42650 0.45000
O 	O 	0.71360 0.50890 0.44400 -0.43100
O 	O 	0.77580 0.53950 0.30079 -0.39000
O 	O 	0.94210 0.49270 0.22300 -0.39900
C 	C 	0.86250 0.50800 0.21670 0.04300
O 	O 	0.77700 0.49250 0.44200 -0.41200
H 	H 	0.88400 0.56230 0.20460 0.13100
H 	H 	0.87760 0.53310 0.27000 0.15600
H 	H 	0.87180 0.48770 0.27300 0.17700
H 	H 	0.86980 0.48450 0.20230 0.06400
O 	O 	0.36220 0.01280 0.35370 -0.22400
O 	O 	0.26610 0.97410 0.30500 -0.35800
C 	C 	0.35770 0.08750 0.09990 -0.01800
H 	H 	0.33630 0.07230 0.09300 0.04900
C 	C 	0.24320 0.00820 0.38280 -0.45000
H 	H 	0.23040 0.03290 0.37720 0.18200
H 	H 	0.22740 0.98750 0.37160 0.21700
N 	N 	0.37450 0.04150 0.19380 -0.21100
O 	O 	0.44440 0.00880 0.28640 -0.43000
C 	C 	0.37990 0.07730 0.13280 -0.05000
C 	C 	0.36770 0.07730 0.37950 -0.04800
O 	O 	0.30470 0.97490 0.23380 -0.37200
C 	C 	0.34530 0.04190 0.36830 0.21200
N 	N 	0.30650 0.04200 0.37460 -0.21500
H 	H 	0.29540 0.06190 0.38540 0.13300
C 	C 	0.28350 0.00800 0.36300 0.03700
H 	H 	0.29760 0.98410 0.37040 0.08400
C 	C 	0.38270 0.00790 0.25660 -0.42300
C 	C 	0.35740 0.09990 0.41250 -0.01800
H 	H 	0.33570 0.09310 0.42740 0.05000
C 	C 	0.27550 0.00740 0.31900 0.27000
O 	O 	0.35420 0.01260 0.13790 -0.22600
C 	C 	0.31860 0.00730 0.22450 0.29500
C 	C 	0.42640 0.00300 0.25450 0.41300
C 	C 	0.36850 0.04170 0.15470 0.21100
O 	O 	0.30070 0.03930 0.22420 -0.39500
C 	C 	0.24540 0.00280 0.42650 0.42500
O 	O 	0.21360 0.00890 0.44400 -0.43300
O 	O 	0.27580 0.03950 0.30079 -0.38600
O 	O 	0.44210 0.99270 0.22300 -0.37600
C 	C 	0.36250 0.00800 0.21670 0.02300
O 	O 	0.27700 0.99250 0.44200 -0.37900
H 	H 	0.38400 0.06230 0.20460 0.13100
H 	H 	0.37760 0.03310 0.27000 0.16700
H 	H 	0.37180 0.98770 0.27300 0.21100
H 	H 	0.36980 0.98450 0.20230 0.08800
O 	O 	0.36220 0.51280 0.85370 -0.21100
O 	O 	0.26610 0.47410 0.80500 -0.38200
C 	C 	0.35770 0.58750 0.59990 -0.01800
H 	H 	0.33630 0.57230 0.59300 0.05200
C 	C 	0.24320 0.50820 0.88280 -0.40600
H 	H 	0.23040 0.53290 0.87720 0.17000
H 	H 	0.22740 0.48750 0.87160 0.18300
N 	N 	0.37450 0.54150 0.69380 -0.21200
O 	O 	0.44440 0.50880 0.78640 -0.42700
C 	C 	0.37990 0.57730 0.63280 -0.04700
C 	C 	0.36770 0.57730 0.87950 -0.04500
O 	O 	0.30470 0.47490 0.73380 -0.39800
C 	C 	0.34530 0.54190 0.86830 0.21400
N 	N 	0.30650 0.54200 0.87460 -0.21600
H 	H 	0.29540 0.56190 0.88540 0.13300
C 	C 	0.28350 0.50800 0.86300 0.05700
H 	H 	0.29760 0.48410 0.87040 0.06000
C 	C 	0.38270 0.50790 0.75660 -0.38300
C 	C 	0.35740 0.59990 0.91250 -0.01800
H 	H 	0.33570 0.59310 0.92740 0.05200
C 	C 	0.27550 0.50740 0.81900 0.29900
O 	O 	0.35420 0.51260 0.63790 -0.21300
C 	C 	0.31860 0.50730 0.72450 0.32500
C 	C 	0.42640 0.50300 0.75450 0.43800
C 	C 	0.36850 0.54170 0.65470 0.21200
O 	O 	0.30070 0.53930 0.72420 -0.40000
C 	C 	0.24540 0.50280 0.92650 0.44700
O 	O 	0.21360 0.50890 0.94400 -0.42100
O 	O 	0.27580 0.53950 0.80079 -0.39000
O 	O 	0.44210 0.49270 0.72300 -0.41000
C 	C 	0.36250 0.50800 0.71670 0.04400
O 	O 	0.27700 0.49250 0.94200 -0.40200
H 	H 	0.38400 0.56230 0.70460 0.13100
H 	H 	0.37760 0.53310 0.77000 0.15700
H 	H 	0.37180 0.48770 0.77300 0.17700
H 	H 	0.36980 0.48450 0.70230 0.06300
O 	O 	0.13780 0.01280 0.14630 -0.22700
O 	O 	0.23390 0.97410 0.19500 -0.35900
C 	C 	0.14230 0.08750 0.40010 -0.01800
H 	H 	0.16370 0.07230 0.40700 0.05000
C 	C 	0.25680 0.00820 0.11720 -0.45200
H 	H 	0.26960 0.03290 0.12280 0.18300
H 	H 	0.27260 0.98750 0.12840 0.21700
N 	N 	0.12550 0.04150 0.30620 -0.21100
O 	O 	0.05560 0.00880 0.21360 -0.43500
C 	C 	0.12010 0.07730 0.36720 -0.05000
C 	C 	0.13230 0.07730 0.12050 -0.05100
O 	O 	0.19530 0.97490 0.26620 -0.37300
C 	C 	0.15470 0.04190 0.13170 0.21200
N 	N 	0.19350 0.04200 0.12540 -0.21600
H 	H 	0.20460 0.06190 0.11460 0.13300
C 	C 	0.21650 0.00800 0.13700 0.03800
H 	H 	0.20240 0.98410 0.12960 0.08200
C 	C 	0.11730 0.00790 0.24340 -0.42400
C 	C 	0.14260 0.09990 0.08750 -0.01800
H 	H 	0.16430 0.09310 0.07260 0.04800
C 	C 	0.22450 0.00740 0.18100 0.27000
O 	O 	0.14580 0.01260 0.36210 -0.22600
C 	C 	0.18140 0.00730 0.27550 0.29500
C 	C 	0.07360 0.00300 0.24550 0.41500
C 	C 	0.13150 0.04170 0.34530 0.21000
O 	O 	0.19930 0.03930 0.27580 -0.39500
C 	C 	0.25460 0.00280 0.07350 0.42700
O 	O 	0.28640 0.00890 0.05600 -0.43800
O 	O 	0.22420 0.03950 0.19921 -0.38600
O 	O 	0.05790 0.99270 0.27700 -0.38100
C 	C 	0.13750 0.00800 0.28330 0.02400
O 	O 	0.22300 0.99250 0.05800 -0.38500
H 	H 	0.11600 0.06230 0.29540 0.13100
H 	H 	0.12240 0.03310 0.23000 0.16700
H 	H 	0.12820 0.98770 0.22700 0.21000
H 	H 	0.13020 0.98450 0.29770 0.08700
O 	O 	0.13780 0.51280 0.64630 -0.21500
O 	O 	0.23390 0.47410 0.69500 -0.38200
C 	C 	0.14230 0.58750 0.90010 -0.01800
H 	H 	0.16370 0.57230 0.90700 0.05300
C 	C 	0.25680 0.50820 0.61720 -0.41000
H 	H 	0.26960 0.53290 0.62280 0.17100
H 	H 	0.27260 0.48750 0.62840 0.18400
N 	N 	0.12550 0.54150 0.80620 -0.21200
O 	O 	0.05560 0.50880 0.71360 -0.43200
C 	C 	0.12010 0.57730 0.86720 -0.04700
C 	C 	0.13230 0.57730 0.62050 -0.04800
O 	O 	0.19530 0.47490 0.76620 -0.39800
C 	C 	0.15470 0.54190 0.63170 0.21400
N 	N 	0.19350 0.54200 0.62540 -0.21600
H 	H 	0.20460 0.56190 0.61460 0.13300
C 	C 	0.21650 0.50800 0.63700 0.05800
H 	H 	0.20240 0.48410 0.62960 0.05800
C 	C 	0.11730 0.50790 0.74340 -0.38400
C 	C 	0.14260 0.59990 0.58750 -0.01800
H 	H 	0.16430 0.59310 0.57260 0.05100
C 	C 	0.22450 0.50740 0.68100 0.29900
O 	O 	0.14580 0.51260 0.86210 -0.21200
C 	C 	0.18140 0.50730 0.77550 0.32500
C 	C 	0.07360 0.50300 0.74550 0.44000
C 	C 	0.13150 0.54170 0.84530 0.21100
O 	O 	0.19930 0.53930 0.77580 -0.40000
C 	C 	0.25460 0.50280 0.57350 0.45100
O 	O 	0.28640 0.50890 0.55600 -0.43100
O 	O 	0.22420 0.53950 0.69921 -0.39000
O 	O 	0.05790 0.49270 0.77700 -0.41400
C 	C 	0.13750 0.50800 0.78330 0.04400
O 	O 	0.22300 0.49250 0.55800 -0.41300
H 	H 	0.11600 0.56230 0.79540 0.13100
H 	H 	0.12240 0.53310 0.73000 0.15700
H 	H 	0.12820 0.48770 0.72700 0.17700
H 	H 	0.13020 0.48450 0.79770 0.06200
O 	O 	0.63780 0.01280 0.64630 -0.22400
O 	O 	0.73390 0.97410 0.69500 -0.35800
C 	C 	0.64230 0.08750 0.90010 -0.01800
H 	H 	0.66370 0.07230 0.90700 0.05200
C 	C 	0.75680 0.00820 0.61720 -0.45000
H 	H 	0.76960 0.03290 0.62280 0.18200
H 	H 	0.77260 0.98750 0.62840 0.21700
N 	N 	0.62550 0.04150 0.80620 -0.21100
O 	O 	0.55560 0.00880 0.71360 -0.43000
C 	C 	0.62010 0.07730 0.86720 -0.04700
C 	C 	0.63230 0.07730 0.62050 -0.04800
O 	O 	0.69530 0.97490 0.76620 -0.37200
C 	C 	0.65470 0.04190 0.63170 0.21200
N 	N 	0.69350 0.04200 0.62540 -0.21500
H 	H 	0.70460 0.06190 0.61460 0.13300
C 	C 	0.71650 0.00800 0.63700 0.03700
H 	H 	0.70240 0.98410 0.62960 0.08300
C 	C 	0.61730 0.00790 0.74340 -0.42200
C 	C 	0.64260 0.09990 0.58750 -0.01800
H 	H 	0.66430 0.09310 0.57260 0.05000
C 	C 	0.72450 0.00740 0.68100 0.27000
O 	O 	0.64580 0.01260 0.86210 -0.22200
C 	C 	0.68140 0.00730 0.77550 0.29500
C 	C 	0.57360 0.00300 0.74550 0.41300
C 	C 	0.63150 0.04170 0.84530 0.21000
O 	O 	0.69930 0.03930 0.77580 -0.39500
C 	C 	0.75460 0.00280 0.57350 0.42500
O 	O 	0.78640 0.00890 0.55600 -0.43200
O 	O 	0.72420 0.03950 0.69921 -0.38600
O 	O 	0.55790 0.99270 0.77700 -0.37500
C 	C 	0.63750 0.00800 0.78330 0.02300
O 	O 	0.72300 0.99250 0.55800 -0.37900
H 	H 	0.61600 0.06230 0.79540 0.13100
H 	H 	0.62240 0.03310 0.73000 0.16700
H 	H 	0.62820 0.98770 0.72700 0.21000
H 	H 	0.63020 0.98450 0.79770 0.08900
O 	O 	0.63780 0.51280 0.14630 -0.21400
O 	O 	0.73390 0.47410 0.19500 -0.38300
C 	C 	0.64230 0.58750 0.40010 -0.01800
H 	H 	0.66370 0.57230 0.40700 0.05200
C 	C 	0.75680 0.50820 0.11720 -0.41100
H 	H 	0.76960 0.53290 0.12280 0.17200
H 	H 	0.77260 0.48750 0.12840 0.18400
N 	N 	0.62550 0.54150 0.30620 -0.21200
O 	O 	0.55560 0.50880 0.21360 -0.42800
C 	C 	0.62010 0.57730 0.36720 -0.04700
C 	C 	0.63230 0.57730 0.12050 -0.04800
O 	O 	0.69530 0.47490 0.26620 -0.39800
C 	C 	0.65470 0.54190 0.13170 0.21300
N 	N 	0.69350 0.54200 0.12540 -0.21700
H 	H 	0.70460 0.56190 0.11460 0.13300
C 	C 	0.71650 0.50800 0.13700 0.05900
H 	H 	0.70240 0.48410 0.12960 0.05700
C 	C 	0.61730 0.50790 0.24340 -0.38300
C 	C 	0.64260 0.59990 0.08750 -0.01800
H 	H 	0.66430 0.59310 0.07260 0.05000
C 	C 	0.72450 0.50740 0.18100 0.29900
O 	O 	0.64580 0.51260 0.36210 -0.21300
C 	C 	0.68140 0.50730 0.27550 0.32600
C 	C 	0.57360 0.50300 0.24550 0.43900
C 	C 	0.63150 0.54170 0.34530 0.21200
O 	O 	0.69930 0.53930 0.27580 -0.40000
C 	C 	0.75460 0.50280 0.07350 0.45200
O 	O 	0.78640 0.50890 0.05600 -0.43500
O 	O 	0.72420 0.53950 0.19921 -0.39000
O 	O 	0.55790 0.49270 0.27700 -0.41000
C 	C 	0.63750 0.50800 0.28330 0.04400
O 	O 	0.72300 0.49250 0.05800 -0.41800
H 	H 	0.61600 0.56230 0.29540 0.13100
H 	H 	0.62240 0.53310 0.23000 0.15700
H 	H 	0.62820 0.48770 0.22700 0.17700
H 	H 	0.63020 0.48450 0.29770 0.06300
Cu	Cu	0.25000 0.75000 0.95473 0.90500
Cu	Cu	0.25000 0.75000 0.03162 0.90000
Cu	Cu	0.25000 0.25000 0.45473 0.90000
Cu	Cu	0.25000 0.25000 0.53162 0.90300
Cu	Cu	0.75000 0.25000 0.95473 0.90500
Cu	Cu	0.75000 0.25000 0.03162 0.90000
Cu	Cu	0.75000 0.75000 0.45473 0.90000
Cu	Cu	0.75000 0.75000 0.53162 0.90300
Cu	Cu	0.75000 0.75000 0.04527 0.89600
Cu	Cu	0.75000 0.75000 0.96838 0.90500
Cu	Cu	0.75000 0.25000 0.54527 0.90000
Cu	Cu	0.75000 0.25000 0.46838 0.90300
Cu	Cu	0.25000 0.25000 0.04527 0.89600
Cu	Cu	0.25000 0.25000 0.96838 0.90500
Cu	Cu	0.25000 0.75000 0.54527 0.90000
Cu	Cu	0.25000 0.75000 0.46838 0.90300
Cu	Cu	0.95473 0.25000 0.75000 0.90500
Cu	Cu	0.03162 0.25000 0.75000 0.90000
Cu	Cu	0.45473 0.25000 0.25000 0.90000
Cu	Cu	0.53162 0.25000 0.25000 0.90300
Cu	Cu	0.95473 0.75000 0.25000 0.90500
Cu	Cu	0.03162 0.75000 0.25000 0.90000
Cu	Cu	0.45473 0.75000 0.75000 0.90000
Cu	Cu	0.53162 0.75000 0.75000 0.90300
Cu	Cu	0.04527 0.75000 0.75000 0.89600
Cu	Cu	0.96838 0.75000 0.75000 0.90500
Cu	Cu	0.54527 0.75000 0.25000 0.90000
Cu	Cu	0.46838 0.75000 0.25000 0.90300
Cu	Cu	0.04527 0.25000 0.25000 0.89600
Cu	Cu	0.96838 0.25000 0.25000 0.90500
Cu	Cu	0.54527 0.25000 0.75000 0.90000
Cu	Cu	0.46838 0.25000 0.75000 0.90300
Cu	Cu	0.75000 0.95473 0.25000 0.90500
Cu	Cu	0.75000 0.03162 0.25000 0.90000
Cu	Cu	0.75000 0.45473 0.75000 0.90000
Cu	Cu	0.75000 0.53162 0.75000 0.90300
Cu	Cu	0.25000 0.95473 0.75000 0.90500
Cu	Cu	0.25000 0.03162 0.75000 0.90000
Cu	Cu	0.25000 0.45473 0.25000 0.90000
Cu	Cu	0.25000 0.53162 0.25000 0.90300
Cu	Cu	0.75000 0.04527 0.75000 0.89600
Cu	Cu	0.75000 0.96838 0.75000 0.90500
Cu	Cu	0.75000 0.54527 0.25000 0.90000
Cu	Cu	0.75000 0.46838 0.25000 0.90300
Cu	Cu	0.25000 0.04527 0.25000 0.89600
Cu	Cu	0.25000 0.96838 0.25000 0.90500
Cu	Cu	0.25000 0.54527 0.75000 0.90000
Cu	Cu	0.25000 0.46838 0.75000 0.90300
Cu	Cu	0.28920 0.00000 -0.00000 0.88200
Cu	Cu	0.21095 0.00000 -0.00000 0.88300
Cu	Cu	0.28920 0.50000 0.50000 0.90600
Cu	Cu	0.21095 0.50000 0.50000 0.90700
Cu	Cu	0.78920 0.00000 0.50000 0.89500
Cu	Cu	0.71095 0.00000 0.50000 0.89500
Cu	Cu	0.78920 0.50000 -0.00000 0.89500
Cu	Cu	0.71095 0.50000 -0.00000 0.89500
Cu	Cu	0.71080 0.00000 -0.00000 0.88200
Cu	Cu	0.78905 0.00000 -0.00000 0.88400
Cu	Cu	0.71080 0.50000 0.50000 0.90600
Cu	Cu	0.78905 0.50000 0.50000 0.90800
Cu	Cu	0.21080 0.00000 0.50000 0.89400
Cu	Cu	0.28905 0.00000 0.50000 0.89500
Cu	Cu	0.21080 0.50000 -0.00000 0.89400
Cu	Cu	0.28905 0.50000 -0.00000 0.89500
Cu	Cu	-0.00000 0.28920 -0.00000 0.88200
Cu	Cu	-0.00000 0.21095 -0.00000 0.88300
Cu	Cu	-0.00000 0.78920 0.50000 0.89500
Cu	Cu	0.00000 0.71095 0.50000 0.89500
Cu	Cu	0.50000 0.28920 0.50000 0.90600
Cu	Cu	0.50000 0.21095 0.50000 0.90700
Cu	Cu	0.50000 0.78920 -0.00000 0.89500
Cu	Cu	0.50000 0.71095 -0.00000 0.89500
Cu	Cu	-0.00000 0.71080 -0.00000 0.88200
Cu	Cu	0.00000 0.78905 -0.00000 0.88400
Cu	Cu	0.00000 0.21080 0.50000 0.89400
Cu	Cu	-0.00000 0.28905 0.50000 0.89500
Cu	Cu	0.50000 0.71080 0.50000 0.90600
Cu	Cu	0.50000 0.78905 0.50000 0.90800
Cu	Cu	0.50000 0.21080 -0.00000 0.89400
Cu	Cu	0.50000 0.28905 -0.00000 0.89500
Cu	Cu	0.00000 0.00000 0.28920 0.88200
Cu	Cu	0.00000 0.00000 0.21095 0.88300
Cu	Cu	0.00000 0.50000 0.78920 0.89500
Cu	Cu	0.00000 0.50000 0.71095 0.89500
Cu	Cu	0.50000 0.00000 0.78920 0.89500
Cu	Cu	0.50000 0.00000 0.71095 0.89500
Cu	Cu	0.50000 0.50000 0.28920 0.90600
Cu	Cu	0.50000 0.50000 0.21095 0.90700
Cu	Cu	-0.00000 -0.00000 0.71080 0.88200
Cu	Cu	0.00000 0.00000 0.78905 0.88400
Cu	Cu	0.00000 0.50000 0.21080 0.89400
Cu	Cu	0.00000 0.50000 0.28905 0.89500
Cu	Cu	0.50000 0.00000 0.21080 0.89400
Cu	Cu	0.50000 0.00000 0.28905 0.89500
Cu	Cu	0.50000 0.50000 0.71080 0.90600
Cu	Cu	0.50000 0.50000 0.78905 0.90800
