data_crystal

_cell_length_a 17.53000
_cell_length_b 20.03700
_cell_length_c 21.05000
_cell_angle_alpha 90.00000
_cell_angle_beta  90.00000
_cell_angle_gamma 90.00000

_symmetry_space_group_name_	'P 1'
_symmetry_space_group_name_H-M	'P 1'

loop_
_symmetry_equiv_pos_as_xyz
  x,y,z

loop_
_atom_site_label
_atom_site_type_symbol
_atom_site_fract_x
_atom_site_fract_y
_atom_site_fract_z
_atom_site_charge
Cu	Cu	0.13370 0.58833 0.04910 0.90800
Cu	Cu	0.97701 0.66596 0.06968 0.87600
O 	O 	0.11256 0.43425 0.89130 -0.29800
O 	O 	0.30639 0.82026 0.97720 -0.30700
O 	O 	0.43340 0.69840 0.85500 -0.22900
O 	O 	0.07029 0.56458 0.97508 -0.41000
O 	O 	0.96550 0.62929 0.98489 -0.45000
O 	O 	0.37110 0.69180 0.62520 -0.26500
O 	O 	0.39860 0.81603 0.04809 -0.46800
O 	O 	0.05800 0.61316 0.75379 -0.23400
O 	O 	0.98750 0.41866 0.89306 -0.43900
N 	N 	0.28510 0.61440 0.59703 -0.28100
O 	O 	0.17730 0.49957 0.44747 -0.43200
O 	O 	0.40130 0.56330 0.46408 -0.39000
O 	O 	0.43240 0.56660 0.07078 -0.43200
O 	O 	0.41220 0.54150 0.56824 -0.37600
O 	O 	0.44640 0.59377 0.96886 -0.42000
C 	C 	0.31020 0.66950 0.81730 -0.05100
C 	C 	0.97830 0.56730 0.89150 -0.41100
O 	O 	0.24110 0.48400 0.53730 -0.30000
N 	N 	0.10330 0.55700 0.84002 -0.19500
C 	C 	0.23750 0.64500 0.83060 -0.01800
C 	C 	0.21310 0.63260 0.71810 -0.01200
C 	C 	0.35940 0.78980 0.00260 0.27400
N 	N 	0.33840 0.69760 0.92591 -0.23100
C 	C 	0.31600 0.65490 0.63860 0.25200
C 	C 	0.36590 0.69090 0.86820 0.24200
C 	C 	0.22110 0.51910 0.49210 0.42900
C 	C 	0.04710 0.45440 0.88226 0.29700
C 	C 	0.18930 0.62740 0.78090 -0.04200
C 	C 	0.28740 0.65280 0.70520 -0.06400
C 	C 	0.33500 0.67320 0.75460 -0.00300
C 	C 	0.38010 0.56750 0.52150 0.30600
C 	C 	0.11080 0.59950 0.79120 0.21600
C 	C 	0.03180 0.52350 0.85300 0.06900
C 	C 	0.30890 0.61230 0.53070 0.08600
C 	C 	0.42350 0.60400 0.02360 0.43800
C 	C 	0.38380 0.71920 0.98030 0.05900
C 	C 	0.00790 0.58850 0.95610 0.46700
C 	C 	0.24400 0.59250 0.48710 -0.40000
C 	C 	0.37840 0.66940 0.03520 -0.36900
Cu	Cu	0.49424 0.51478 0.43913 0.90100
H 	H 	0.93090 0.54330 0.89750 0.16800
H 	H 	0.96710 0.60700 0.86700 0.17500
H 	H 	0.22140 0.64040 0.87240 0.05800
H 	H 	0.17850 0.62370 0.68470 0.05000
H 	H 	0.29090 0.68880 0.93200 0.16600
H 	H 	0.38340 0.68920 0.74550 0.05700
H 	H 	0.32340 0.65780 0.51880 0.01900
H 	H 	0.25850 0.60180 0.44400 0.16700
H 	H 	0.19990 0.61980 0.49740 0.16000
H 	H 	0.32540 0.65820 0.04220 0.14700
H 	H 	0.39780 0.69030 0.07340 0.14000
H 	H 	0.43890 0.72300 0.96830 0.03500
H 	H 	0.14630 0.54450 0.86720 0.13400
H 	H 	0.25880 0.58540 0.60960 0.20000
H 	H 	0.01220 0.51290 0.81380 0.03100
Cu	Cu	0.13370 0.41167 0.45090 0.90800
Cu	Cu	0.97701 0.33404 0.43032 0.87600
O 	O 	0.11256 0.56575 0.60870 -0.29800
O 	O 	0.30639 0.17974 0.52280 -0.30900
O 	O 	0.43340 0.30160 0.64500 -0.23000
O 	O 	0.07029 0.43542 0.52492 -0.41100
O 	O 	0.96550 0.37071 0.51511 -0.44900
O 	O 	0.37110 0.30820 0.87480 -0.26500
O 	O 	0.39860 0.18397 0.45191 -0.46900
O 	O 	0.05800 0.38684 0.74621 -0.23400
O 	O 	0.98750 0.58134 0.60694 -0.43900
N 	N 	0.28510 0.38560 0.90297 -0.28100
O 	O 	0.17730 0.50043 0.05253 -0.43200
O 	O 	0.40130 0.43670 0.03592 -0.38900
O 	O 	0.43240 0.43340 0.42922 -0.43200
O 	O 	0.41220 0.45850 0.93176 -0.37500
O 	O 	0.44640 0.40623 0.53114 -0.42000
C 	C 	0.31020 0.33050 0.68270 -0.05100
C 	C 	0.97830 0.43270 0.60850 -0.40900
O 	O 	0.24110 0.51600 0.96270 -0.30000
N 	N 	0.10330 0.44300 0.65998 -0.19500
C 	C 	0.23750 0.35500 0.66940 -0.01900
C 	C 	0.21310 0.36740 0.78190 -0.01200
C 	C 	0.35940 0.21020 0.49740 0.27800
N 	N 	0.33840 0.30240 0.57409 -0.23100
C 	C 	0.31600 0.34510 0.86140 0.25200
C 	C 	0.36590 0.30910 0.63180 0.24200
C 	C 	0.22110 0.48090 0.00790 0.42800
C 	C 	0.04710 0.54560 0.61774 0.29700
C 	C 	0.18930 0.37260 0.71910 -0.04200
C 	C 	0.28740 0.34720 0.79480 -0.06400
C 	C 	0.33500 0.32680 0.74540 -0.00300
C 	C 	0.38010 0.43250 0.97850 0.30600
C 	C 	0.11080 0.40050 0.70880 0.21500
C 	C 	0.03180 0.47650 0.64700 0.06800
C 	C 	0.30890 0.38770 0.96930 0.08600
C 	C 	0.42350 0.39600 0.47640 0.43800
C 	C 	0.38380 0.28080 0.51970 0.05500
C 	C 	0.00790 0.41150 0.54390 0.46600
C 	C 	0.24400 0.40750 0.01290 -0.40000
C 	C 	0.37840 0.33060 0.46480 -0.36600
Cu	Cu	0.49424 0.48522 0.06087 0.90100
H 	H 	0.93090 0.45670 0.60250 0.16800
H 	H 	0.96710 0.39300 0.63300 0.17400
H 	H 	0.22140 0.35960 0.62760 0.05800
H 	H 	0.17850 0.37630 0.81530 0.05000
H 	H 	0.29090 0.31120 0.56800 0.16600
H 	H 	0.38340 0.31080 0.75450 0.05700
H 	H 	0.32340 0.34220 0.98120 0.01900
H 	H 	0.25850 0.39820 0.05600 0.16700
H 	H 	0.19990 0.38020 0.00260 0.16000
H 	H 	0.32540 0.34180 0.45780 0.14700
H 	H 	0.39780 0.30970 0.42660 0.13900
H 	H 	0.43890 0.27700 0.53170 0.03500
H 	H 	0.14630 0.45550 0.63280 0.13400
H 	H 	0.25880 0.41460 0.89040 0.20000
H 	H 	0.01220 0.48710 0.68620 0.03100
Cu	Cu	0.36630 0.08833 0.45090 0.90800
Cu	Cu	0.52299 0.16596 0.43032 0.87600
O 	O 	0.38744 0.93425 0.60870 -0.29800
O 	O 	0.19361 0.32026 0.52280 -0.30900
O 	O 	0.06660 0.19840 0.64500 -0.22900
O 	O 	0.42971 0.06458 0.52492 -0.41000
O 	O 	0.53450 0.12929 0.51511 -0.44900
O 	O 	0.12890 0.19180 0.87480 -0.26500
O 	O 	0.10140 0.31603 0.45191 -0.46900
O 	O 	0.44200 0.11316 0.74621 -0.23400
O 	O 	0.51250 0.91866 0.60694 -0.43900
N 	N 	0.21490 0.11440 0.90297 -0.28100
O 	O 	0.32270 0.99957 0.05253 -0.43500
O 	O 	0.09870 0.06330 0.03592 -0.38700
O 	O 	0.06760 0.06660 0.42922 -0.43200
O 	O 	0.08780 0.04150 0.93176 -0.37600
O 	O 	0.05360 0.09377 0.53114 -0.42000
C 	C 	0.18980 0.16950 0.68270 -0.05100
C 	C 	0.52170 0.06730 0.60850 -0.40900
O 	O 	0.25890 0.98400 0.96270 -0.29900
N 	N 	0.39670 0.05700 0.65998 -0.19500
C 	C 	0.26250 0.14500 0.66940 -0.01900
C 	C 	0.28690 0.13260 0.78190 -0.01200
C 	C 	0.14060 0.28980 0.49740 0.27800
N 	N 	0.16160 0.19760 0.57409 -0.23100
C 	C 	0.18400 0.15490 0.86140 0.25100
C 	C 	0.13410 0.19090 0.63180 0.24200
C 	C 	0.27890 0.01910 0.00790 0.43200
C 	C 	0.45290 0.95440 0.61774 0.29800
C 	C 	0.31070 0.12740 0.71910 -0.04200
C 	C 	0.21260 0.15280 0.79480 -0.06400
C 	C 	0.16500 0.17320 0.74540 -0.00300
C 	C 	0.11990 0.06750 0.97850 0.30400
C 	C 	0.38920 0.09950 0.70880 0.21500
C 	C 	0.46820 0.02350 0.64700 0.06700
C 	C 	0.19110 0.11230 0.96930 0.08500
C 	C 	0.07650 0.10400 0.47640 0.43800
C 	C 	0.11620 0.21920 0.51970 0.05500
C 	C 	0.49210 0.08850 0.54390 0.46600
C 	C 	0.25600 0.09250 0.01290 -0.39900
C 	C 	0.12160 0.16940 0.46480 -0.36600
Cu	Cu	0.00576 0.01478 0.06087 0.90200
H 	H 	0.56910 0.04330 0.60250 0.16800
H 	H 	0.53290 0.10700 0.63300 0.17400
H 	H 	0.27860 0.14040 0.62760 0.05800
H 	H 	0.32150 0.12370 0.81530 0.05000
H 	H 	0.20910 0.18880 0.56800 0.16600
H 	H 	0.11660 0.18920 0.75450 0.05700
H 	H 	0.17660 0.15780 0.98120 0.01900
H 	H 	0.24150 0.10180 0.05600 0.16700
H 	H 	0.30010 0.11980 0.00260 0.16100
H 	H 	0.17460 0.15820 0.45780 0.14700
H 	H 	0.10220 0.19030 0.42660 0.13900
H 	H 	0.06110 0.22300 0.53170 0.03600
H 	H 	0.35370 0.04450 0.63280 0.13400
H 	H 	0.24120 0.08540 0.89040 0.20000
H 	H 	0.48780 0.01290 0.68620 0.03000
Cu	Cu	0.36630 0.91167 0.04910 0.90700
Cu	Cu	0.52299 0.83404 0.06968 0.87500
O 	O 	0.38744 0.06575 0.89130 -0.29800
O 	O 	0.19361 0.67974 0.97720 -0.30700
O 	O 	0.06660 0.80160 0.85500 -0.22900
O 	O 	0.42971 0.93542 0.97508 -0.40900
O 	O 	0.53450 0.87071 0.98489 -0.44800
O 	O 	0.12890 0.80820 0.62520 -0.26500
O 	O 	0.10140 0.68397 0.04809 -0.46800
O 	O 	0.44200 0.88684 0.75379 -0.23400
O 	O 	0.51250 0.08134 0.89306 -0.43900
N 	N 	0.21490 0.88560 0.59703 -0.28100
O 	O 	0.32270 0.00043 0.44747 -0.43100
O 	O 	0.09870 0.93670 0.46408 -0.39000
O 	O 	0.06760 0.93340 0.07078 -0.43200
O 	O 	0.08780 0.95850 0.56824 -0.37500
O 	O 	0.05360 0.90623 0.96886 -0.41700
C 	C 	0.18980 0.83050 0.81730 -0.05000
C 	C 	0.52170 0.93270 0.89150 -0.41000
O 	O 	0.25890 0.01600 0.53730 -0.30000
N 	N 	0.39670 0.94300 0.84002 -0.19500
C 	C 	0.26250 0.85500 0.83060 -0.01800
C 	C 	0.28690 0.86740 0.71810 -0.01200
C 	C 	0.14060 0.71020 0.00260 0.27400
N 	N 	0.16160 0.80240 0.92591 -0.23100
C 	C 	0.18400 0.84510 0.63860 0.25200
C 	C 	0.13410 0.80910 0.86820 0.24200
C 	C 	0.27890 0.98090 0.49210 0.42900
C 	C 	0.45290 0.04560 0.88226 0.29500
C 	C 	0.31070 0.87260 0.78090 -0.04200
C 	C 	0.21260 0.84720 0.70520 -0.06400
C 	C 	0.16500 0.82680 0.75460 -0.00300
C 	C 	0.11990 0.93250 0.52150 0.30600
C 	C 	0.38920 0.90050 0.79120 0.21600
C 	C 	0.46820 0.97650 0.85300 0.07000
C 	C 	0.19110 0.88770 0.53070 0.08600
C 	C 	0.07650 0.89600 0.02360 0.43500
C 	C 	0.11620 0.78080 0.98030 0.05900
C 	C 	0.49210 0.91150 0.95610 0.46600
C 	C 	0.25600 0.90750 0.48710 -0.40000
C 	C 	0.12160 0.83060 0.03520 -0.36900
Cu	Cu	0.00576 0.98522 0.43913 0.90100
H 	H 	0.56910 0.95670 0.89750 0.16900
H 	H 	0.53290 0.89300 0.86700 0.17500
H 	H 	0.27860 0.85960 0.87240 0.05800
H 	H 	0.32150 0.87630 0.68470 0.05000
H 	H 	0.20910 0.81120 0.93200 0.16600
H 	H 	0.11660 0.81080 0.74550 0.05700
H 	H 	0.17660 0.84220 0.51880 0.01900
H 	H 	0.24150 0.89820 0.44400 0.16700
H 	H 	0.30010 0.88020 0.49740 0.16000
H 	H 	0.17460 0.84180 0.04220 0.14700
H 	H 	0.10220 0.80970 0.07340 0.14000
H 	H 	0.06110 0.77700 0.96830 0.03500
H 	H 	0.35370 0.95550 0.86720 0.13400
H 	H 	0.24120 0.91460 0.60960 0.20100
H 	H 	0.48780 0.98710 0.81380 0.03000
Cu	Cu	0.86630 0.41167 0.95090 0.90800
Cu	Cu	0.02299 0.33404 0.93032 0.87600
O 	O 	0.88744 0.56575 0.10870 -0.29800
O 	O 	0.69361 0.17974 0.02280 -0.30700
O 	O 	0.56660 0.30160 0.14500 -0.22900
O 	O 	0.92971 0.43542 0.02492 -0.41000
O 	O 	0.03450 0.37071 0.01511 -0.45000
O 	O 	0.62890 0.30820 0.37480 -0.26500
O 	O 	0.60140 0.18397 0.95191 -0.46800
O 	O 	0.94200 0.38684 0.24621 -0.23400
O 	O 	0.01250 0.58134 0.10694 -0.43900
N 	N 	0.71490 0.38560 0.40297 -0.28100
O 	O 	0.82270 0.50043 0.55253 -0.43200
O 	O 	0.59870 0.43670 0.53592 -0.39000
O 	O 	0.56760 0.43340 0.92922 -0.43200
O 	O 	0.58780 0.45850 0.43176 -0.37600
O 	O 	0.55360 0.40623 0.03114 -0.42000
C 	C 	0.68980 0.33050 0.18270 -0.05100
C 	C 	0.02170 0.43270 0.10850 -0.41100
O 	O 	0.75890 0.51600 0.46270 -0.30000
N 	N 	0.89670 0.44300 0.15998 -0.19500
C 	C 	0.76250 0.35500 0.16940 -0.01800
C 	C 	0.78690 0.36740 0.28190 -0.01200
C 	C 	0.64060 0.21020 0.99740 0.27400
N 	N 	0.66160 0.30240 0.07409 -0.23100
C 	C 	0.68400 0.34510 0.36140 0.25200
C 	C 	0.63410 0.30910 0.13180 0.24200
C 	C 	0.77890 0.48090 0.50790 0.42900
C 	C 	0.95290 0.54560 0.11774 0.29700
C 	C 	0.81070 0.37260 0.21910 -0.04200
C 	C 	0.71260 0.34720 0.29480 -0.06400
C 	C 	0.66500 0.32680 0.24540 -0.00300
C 	C 	0.61990 0.43250 0.47850 0.30600
C 	C 	0.88920 0.40050 0.20880 0.21600
C 	C 	0.96820 0.47650 0.14700 0.06900
C 	C 	0.69110 0.38770 0.46930 0.08600
C 	C 	0.57650 0.39600 0.97640 0.43800
C 	C 	0.61620 0.28080 0.01970 0.05900
C 	C 	0.99210 0.41150 0.04390 0.46700
C 	C 	0.75600 0.40750 0.51290 -0.40000
C 	C 	0.62160 0.33060 0.96480 -0.36900
Cu	Cu	0.50576 0.48522 0.56087 0.90100
H 	H 	0.06910 0.45670 0.10250 0.16800
H 	H 	0.03290 0.39300 0.13300 0.17500
H 	H 	0.77860 0.35960 0.12760 0.05800
H 	H 	0.82150 0.37630 0.31530 0.05000
H 	H 	0.70910 0.31120 0.06800 0.16600
H 	H 	0.61660 0.31080 0.25450 0.05700
H 	H 	0.67660 0.34220 0.48120 0.01900
H 	H 	0.74150 0.39820 0.55600 0.16700
H 	H 	0.80010 0.38020 0.50260 0.16000
H 	H 	0.67460 0.34180 0.95780 0.14700
H 	H 	0.60220 0.30970 0.92660 0.14000
H 	H 	0.56110 0.27700 0.03170 0.03500
H 	H 	0.85370 0.45550 0.13280 0.13400
H 	H 	0.74120 0.41460 0.39040 0.20000
H 	H 	0.98780 0.48710 0.18620 0.03100
Cu	Cu	0.86630 0.58833 0.54910 0.90800
Cu	Cu	0.02299 0.66596 0.56968 0.87600
O 	O 	0.88744 0.43425 0.39130 -0.29800
O 	O 	0.69361 0.82026 0.47720 -0.30900
O 	O 	0.56660 0.69840 0.35500 -0.23000
O 	O 	0.92971 0.56458 0.47508 -0.41100
O 	O 	0.03450 0.62929 0.48489 -0.44900
O 	O 	0.62890 0.69180 0.12520 -0.26500
O 	O 	0.60140 0.81603 0.54809 -0.46900
O 	O 	0.94200 0.61316 0.25379 -0.23400
O 	O 	0.01250 0.41866 0.39306 -0.43900
N 	N 	0.71490 0.61440 0.09703 -0.28100
O 	O 	0.82270 0.49957 0.94747 -0.43200
O 	O 	0.59870 0.56330 0.96408 -0.38900
O 	O 	0.56760 0.56660 0.57078 -0.43200
O 	O 	0.58780 0.54150 0.06824 -0.37500
O 	O 	0.55360 0.59377 0.46886 -0.42000
C 	C 	0.68980 0.66950 0.31730 -0.05100
C 	C 	0.02170 0.56730 0.39150 -0.40900
O 	O 	0.75890 0.48400 0.03730 -0.30000
N 	N 	0.89670 0.55700 0.34002 -0.19500
C 	C 	0.76250 0.64500 0.33060 -0.01900
C 	C 	0.78690 0.63260 0.21810 -0.01200
C 	C 	0.64060 0.78980 0.50260 0.27800
N 	N 	0.66160 0.69760 0.42591 -0.23100
C 	C 	0.68400 0.65490 0.13860 0.25200
C 	C 	0.63410 0.69090 0.36820 0.24200
C 	C 	0.77890 0.51910 0.99210 0.42800
C 	C 	0.95290 0.45440 0.38226 0.29700
C 	C 	0.81070 0.62740 0.28090 -0.04200
C 	C 	0.71260 0.65280 0.20520 -0.06400
C 	C 	0.66500 0.67320 0.25460 -0.00300
C 	C 	0.61990 0.56750 0.02150 0.30600
C 	C 	0.88920 0.59950 0.29120 0.21500
C 	C 	0.96820 0.52350 0.35300 0.06800
C 	C 	0.69110 0.61230 0.03070 0.08600
C 	C 	0.57650 0.60400 0.52360 0.43800
C 	C 	0.61620 0.71920 0.48030 0.05500
C 	C 	0.99210 0.58850 0.45610 0.46600
C 	C 	0.75600 0.59250 0.98710 -0.40000
C 	C 	0.62160 0.66940 0.53520 -0.36600
Cu	Cu	0.50576 0.51478 0.93913 0.90100
H 	H 	0.06910 0.54330 0.39750 0.16800
H 	H 	0.03290 0.60700 0.36700 0.17400
H 	H 	0.77860 0.64040 0.37240 0.05800
H 	H 	0.82150 0.62370 0.18470 0.05000
H 	H 	0.70910 0.68880 0.43200 0.16600
H 	H 	0.61660 0.68920 0.24550 0.05700
H 	H 	0.67660 0.65780 0.01880 0.01900
H 	H 	0.74150 0.60180 0.94400 0.16700
H 	H 	0.80010 0.61980 0.99740 0.16000
H 	H 	0.67460 0.65820 0.54220 0.14700
H 	H 	0.60220 0.69030 0.57340 0.13900
H 	H 	0.56110 0.72300 0.46830 0.03500
H 	H 	0.85370 0.54450 0.36720 0.13400
H 	H 	0.74120 0.58540 0.10960 0.20000
H 	H 	0.98780 0.51290 0.31380 0.03100
Cu	Cu	0.63370 0.91167 0.54910 0.90800
Cu	Cu	0.47701 0.83404 0.56968 0.87600
O 	O 	0.61256 0.06575 0.39130 -0.29800
O 	O 	0.80639 0.67974 0.47720 -0.30900
O 	O 	0.93340 0.80160 0.35500 -0.22900
O 	O 	0.57029 0.93542 0.47508 -0.41000
O 	O 	0.46550 0.87071 0.48489 -0.44900
O 	O 	0.87110 0.80820 0.12520 -0.26500
O 	O 	0.89860 0.68397 0.54809 -0.46900
O 	O 	0.55800 0.88684 0.25379 -0.23400
O 	O 	0.48750 0.08134 0.39306 -0.43900
N 	N 	0.78510 0.88560 0.09703 -0.28100
O 	O 	0.67730 0.00043 0.94747 -0.43500
O 	O 	0.90130 0.93670 0.96408 -0.38700
O 	O 	0.93240 0.93340 0.57078 -0.43200
O 	O 	0.91220 0.95850 0.06824 -0.37600
O 	O 	0.94640 0.90623 0.46886 -0.42000
C 	C 	0.81020 0.83050 0.31730 -0.05100
C 	C 	0.47830 0.93270 0.39150 -0.40900
O 	O 	0.74110 0.01600 0.03730 -0.29900
N 	N 	0.60330 0.94300 0.34002 -0.19500
C 	C 	0.73750 0.85500 0.33060 -0.01900
C 	C 	0.71310 0.86740 0.21810 -0.01200
C 	C 	0.85940 0.71020 0.50260 0.27800
N 	N 	0.83840 0.80240 0.42591 -0.23100
C 	C 	0.81600 0.84510 0.13860 0.25100
C 	C 	0.86590 0.80910 0.36820 0.24200
C 	C 	0.72110 0.98090 0.99210 0.43200
C 	C 	0.54710 0.04560 0.38226 0.29800
C 	C 	0.68930 0.87260 0.28090 -0.04200
C 	C 	0.78740 0.84720 0.20520 -0.06400
C 	C 	0.83500 0.82680 0.25460 -0.00300
C 	C 	0.88010 0.93250 0.02150 0.30400
C 	C 	0.61080 0.90050 0.29120 0.21500
C 	C 	0.53180 0.97650 0.35300 0.06700
C 	C 	0.80890 0.88770 0.03070 0.08500
C 	C 	0.92350 0.89600 0.52360 0.43800
C 	C 	0.88380 0.78080 0.48030 0.05500
C 	C 	0.50790 0.91150 0.45610 0.46600
C 	C 	0.74400 0.90750 0.98710 -0.39900
C 	C 	0.87840 0.83060 0.53520 -0.36600
Cu	Cu	0.99424 0.98522 0.93913 0.90200
H 	H 	0.43090 0.95670 0.39750 0.16800
H 	H 	0.46710 0.89300 0.36700 0.17400
H 	H 	0.72140 0.85960 0.37240 0.05800
H 	H 	0.67850 0.87630 0.18470 0.05000
H 	H 	0.79090 0.81120 0.43200 0.16600
H 	H 	0.88340 0.81080 0.24550 0.05700
H 	H 	0.82340 0.84220 0.01880 0.01900
H 	H 	0.75850 0.89820 0.94400 0.16700
H 	H 	0.69990 0.88020 0.99740 0.16100
H 	H 	0.82540 0.84180 0.54220 0.14700
H 	H 	0.89780 0.80970 0.57340 0.13900
H 	H 	0.93890 0.77700 0.46830 0.03600
H 	H 	0.64630 0.95550 0.36720 0.13400
H 	H 	0.75880 0.91460 0.10960 0.20000
H 	H 	0.51220 0.98710 0.31380 0.03000
Cu	Cu	0.63370 0.08833 0.95090 0.90700
Cu	Cu	0.47701 0.16596 0.93032 0.87500
O 	O 	0.61256 0.93425 0.10870 -0.29800
O 	O 	0.80639 0.32026 0.02280 -0.30700
O 	O 	0.93340 0.19840 0.14500 -0.22900
O 	O 	0.57029 0.06458 0.02492 -0.40900
O 	O 	0.46550 0.12929 0.01511 -0.44800
O 	O 	0.87110 0.19180 0.37480 -0.26500
O 	O 	0.89860 0.31603 0.95191 -0.46800
O 	O 	0.55800 0.11316 0.24621 -0.23400
O 	O 	0.48750 0.91866 0.10694 -0.43900
N 	N 	0.78510 0.11440 0.40297 -0.28100
O 	O 	0.67730 0.99957 0.55253 -0.43100
O 	O 	0.90130 0.06330 0.53592 -0.39000
O 	O 	0.93240 0.06660 0.92922 -0.43200
O 	O 	0.91220 0.04150 0.43176 -0.37500
O 	O 	0.94640 0.09377 0.03114 -0.41700
C 	C 	0.81020 0.16950 0.18270 -0.05000
C 	C 	0.47830 0.06730 0.10850 -0.41000
O 	O 	0.74110 0.98400 0.46270 -0.30000
N 	N 	0.60330 0.05700 0.15998 -0.19500
C 	C 	0.73750 0.14500 0.16940 -0.01800
C 	C 	0.71310 0.13260 0.28190 -0.01200
C 	C 	0.85940 0.28980 0.99740 0.27400
N 	N 	0.83840 0.19760 0.07409 -0.23100
C 	C 	0.81600 0.15490 0.36140 0.25200
C 	C 	0.86590 0.19090 0.13180 0.24200
C 	C 	0.72110 0.01910 0.50790 0.42900
C 	C 	0.54710 0.95440 0.11774 0.29500
C 	C 	0.68930 0.12740 0.21910 -0.04200
C 	C 	0.78740 0.15280 0.29480 -0.06400
C 	C 	0.83500 0.17320 0.24540 -0.00300
C 	C 	0.88010 0.06750 0.47850 0.30600
C 	C 	0.61080 0.09950 0.20880 0.21600
C 	C 	0.53180 0.02350 0.14700 0.07000
C 	C 	0.80890 0.11230 0.46930 0.08600
C 	C 	0.92350 0.10400 0.97640 0.43500
C 	C 	0.88380 0.21920 0.01970 0.05900
C 	C 	0.50790 0.08850 0.04390 0.46600
C 	C 	0.74400 0.09250 0.51290 -0.40000
C 	C 	0.87840 0.16940 0.96480 -0.36900
Cu	Cu	0.99424 0.01478 0.56087 0.90100
H 	H 	0.43090 0.04330 0.10250 0.16900
H 	H 	0.46710 0.10700 0.13300 0.17500
H 	H 	0.72140 0.14040 0.12760 0.05800
H 	H 	0.67850 0.12370 0.31530 0.05000
H 	H 	0.79090 0.18880 0.06800 0.16600
H 	H 	0.88340 0.18920 0.25450 0.05700
H 	H 	0.82340 0.15780 0.48120 0.01900
H 	H 	0.75850 0.10180 0.55600 0.16700
H 	H 	0.69990 0.11980 0.50260 0.16000
H 	H 	0.82540 0.15820 0.95780 0.14700
H 	H 	0.89780 0.19030 0.92660 0.14000
H 	H 	0.93890 0.22300 0.03170 0.03500
H 	H 	0.64630 0.04450 0.13280 0.13400
H 	H 	0.75880 0.08540 0.39040 0.20100
H 	H 	0.51220 0.01290 0.18620 0.03000
