data_crystal

_cell_length_a 7.19910
_cell_length_b 10.29260
_cell_length_c 13.38380
_cell_angle_alpha 90.00000
_cell_angle_beta  90.00000
_cell_angle_gamma 98.89800

_symmetry_space_group_name_	'P 1'
_symmetry_space_group_name_H-M	'P 1'

loop_
_symmetry_equiv_pos_as_xyz
  x,y,z

loop_
_atom_site_label
_atom_site_type_symbol
_atom_site_fract_x
_atom_site_fract_y
_atom_site_fract_z
_atom_site_charge
La	La	0.15928 0.28238 0.90594 1.63900
La	La	0.84072 0.21762 0.40594 1.64100
La	La	0.84072 0.71762 0.09406 1.63900
La	La	0.15928 0.78238 0.59406 1.64100
P 	P 	0.78502 0.07360 0.05193 0.47100
P 	P 	0.21498 0.42640 0.55193 0.48000
P 	P 	0.21498 0.92640 0.94807 0.47100
P 	P 	0.78502 0.57360 0.44807 0.48000
H 	H 	0.59000 0.19280 0.04910 0.28800
H 	H 	0.87350 0.00180 0.25590 0.25000
H 	H 	0.06020 0.08710 0.14810 0.07200
H 	H 	0.41000 0.30720 0.54910 0.29000
H 	H 	0.12650 0.49820 0.75590 0.25200
H 	H 	0.93980 0.41290 0.64810 0.06800
H 	H 	0.41000 0.80720 0.95090 0.28800
H 	H 	0.12650 0.99820 0.74410 0.25000
H 	H 	0.93980 0.91290 0.85190 0.07200
H 	H 	0.59000 0.69280 0.45090 0.29000
H 	H 	0.87350 0.50180 0.24410 0.25200
H 	H 	0.06020 0.58710 0.35190 0.06800
C 	C 	0.94540 0.12630 0.15600 -0.13200
C 	C 	0.99740 0.27450 0.16290 0.36100
C 	C 	0.45350 0.55480 0.97400 0.23400
C 	C 	0.05460 0.37370 0.65600 -0.12700
C 	C 	0.00260 0.22550 0.66290 0.36800
C 	C 	0.54650 0.94520 0.47400 0.23300
C 	C 	0.05460 0.87370 0.84400 -0.13200
C 	C 	0.00260 0.72550 0.83710 0.36100
C 	C 	0.54650 0.44520 0.02600 0.23400
C 	C 	0.94540 0.62630 0.34400 -0.12700
C 	C 	0.99740 0.77450 0.33710 0.36800
C 	C 	0.45350 0.05480 0.52600 0.23300
O 	O 	0.60220 0.12920 0.08400 -0.43300
O 	O 	0.86470 0.13150 0.95524 -0.38500
O 	O 	0.74310 0.92680 0.05794 -0.38100
O 	O 	0.85040 0.07600 0.24478 -0.44700
O 	O 	0.07870 0.33270 0.08891 -0.39600
O 	O 	0.95970 0.33030 0.24278 -0.40300
O 	O 	0.30990 0.52070 0.92353 -0.37500
O 	O 	0.53260 0.67080 0.99015 -0.36400
O 	O 	0.39780 0.37080 0.58400 -0.43400
O 	O 	0.13530 0.36850 0.45524 -0.39200
O 	O 	0.25690 0.57320 0.55794 -0.38400
O 	O 	0.14960 0.42400 0.74478 -0.44900
O 	O 	0.92130 0.16730 0.58891 -0.40400
O 	O 	0.04030 0.16970 0.74278 -0.40400
O 	O 	0.69010 0.97930 0.42353 -0.37300
O 	O 	0.46740 0.82920 0.49015 -0.36400
O 	O 	0.39780 0.87080 0.91600 -0.43300
O 	O 	0.13530 0.86850 0.04476 -0.38500
O 	O 	0.25690 0.07320 0.94206 -0.38100
O 	O 	0.14960 0.92400 0.75522 -0.44700
O 	O 	0.92130 0.66730 0.91109 -0.39600
O 	O 	0.04030 0.66970 0.75722 -0.40300
O 	O 	0.69010 0.47930 0.07647 -0.37500
O 	O 	0.46740 0.32920 0.00985 -0.36400
O 	O 	0.60220 0.62920 0.41600 -0.43400
O 	O 	0.86470 0.63150 0.54476 -0.39200
O 	O 	0.74310 0.42680 0.44206 -0.38400
O 	O 	0.85040 0.57600 0.25522 -0.44900
O 	O 	0.07870 0.83270 0.41109 -0.40400
O 	O 	0.95970 0.83030 0.25722 -0.40400
O 	O 	0.30990 0.02070 0.57647 -0.37300
O 	O 	0.53260 0.17080 0.50985 -0.36400
