data_crystal

_cell_length_a 7.23000
_cell_length_b 10.25350
_cell_length_c 13.22390
_cell_angle_alpha 90.00000
_cell_angle_beta  90.00000
_cell_angle_gamma 99.86900

_symmetry_space_group_name_	'P 1'
_symmetry_space_group_name_H-M	'P 1'

loop_
_symmetry_equiv_pos_as_xyz
  x,y,z

loop_
_atom_site_label
_atom_site_type_symbol
_atom_site_fract_x
_atom_site_fract_y
_atom_site_fract_z
_atom_site_charge
Pr	Pr	0.16239 0.28166 0.90546 2.05000
Pr	Pr	0.83761 0.21834 0.40546 2.05200
Pr	Pr	0.83761 0.71834 0.09454 2.05000
Pr	Pr	0.16239 0.78166 0.59454 2.05200
P 	P 	0.78692 0.07166 0.04994 0.49000
P 	P 	0.21308 0.42834 0.54994 0.50100
P 	P 	0.21308 0.92834 0.95006 0.49000
P 	P 	0.78692 0.57166 0.45006 0.50100
H 	H 	0.59170 0.18890 0.04540 0.28900
H 	H 	0.86850 0.00120 0.25840 0.26500
H 	H 	0.05780 0.08600 0.14880 0.07700
H 	H 	0.40830 0.31110 0.54540 0.29100
H 	H 	0.13150 0.49880 0.75840 0.26800
H 	H 	0.94220 0.41400 0.64880 0.07200
H 	H 	0.40830 0.81110 0.95460 0.28900
H 	H 	0.13150 0.99880 0.74160 0.26500
H 	H 	0.94220 0.91400 0.85120 0.07700
H 	H 	0.59170 0.68890 0.45460 0.29100
H 	H 	0.86850 0.50120 0.24160 0.26800
H 	H 	0.05780 0.58600 0.35120 0.07200
C 	C 	0.94390 0.12510 0.15570 -0.15700
C 	C 	0.99820 0.27430 0.16330 0.37900
C 	C 	0.45220 0.55420 0.97570 0.23600
C 	C 	0.05610 0.37490 0.65570 -0.15100
C 	C 	0.00180 0.22570 0.66330 0.38800
C 	C 	0.54780 0.94580 0.47570 0.23500
C 	C 	0.05610 0.87490 0.84430 -0.15700
C 	C 	0.00180 0.72570 0.83670 0.37900
C 	C 	0.54780 0.44580 0.02430 0.23600
C 	C 	0.94390 0.62510 0.34430 -0.15100
C 	C 	0.99820 0.77430 0.33670 0.38800
C 	C 	0.45220 0.05420 0.52430 0.23500
O 	O 	0.60290 0.12500 0.08080 -0.43500
O 	O 	0.86870 0.13150 0.95310 -0.44900
O 	O 	0.74480 0.92350 0.05540 -0.45300
O 	O 	0.84680 0.07550 0.24620 -0.51600
O 	O 	0.08060 0.33370 0.08760 -0.45500
O 	O 	0.96040 0.33100 0.24350 -0.46900
O 	O 	0.30670 0.51900 0.92640 -0.43900
O 	O 	0.53200 0.67170 0.99130 -0.41600
O 	O 	0.39710 0.37500 0.58080 -0.43700
O 	O 	0.13130 0.36850 0.45310 -0.45700
O 	O 	0.25520 0.57650 0.55540 -0.45500
O 	O 	0.15320 0.42450 0.74620 -0.51800
O 	O 	0.91940 0.16630 0.58760 -0.46300
O 	O 	0.03960 0.16900 0.74350 -0.47000
O 	O 	0.69330 0.98100 0.42640 -0.43700
O 	O 	0.46800 0.82830 0.49130 -0.41600
O 	O 	0.39710 0.87500 0.91920 -0.43500
O 	O 	0.13130 0.86850 0.04690 -0.44900
O 	O 	0.25520 0.07650 0.94460 -0.45300
O 	O 	0.15320 0.92450 0.75380 -0.51600
O 	O 	0.91940 0.66630 0.91240 -0.45500
O 	O 	0.03960 0.66900 0.75650 -0.46900
O 	O 	0.69330 0.48100 0.07360 -0.43900
O 	O 	0.46800 0.32830 0.00870 -0.41600
O 	O 	0.60290 0.62500 0.41920 -0.43700
O 	O 	0.86870 0.63150 0.54690 -0.45700
O 	O 	0.74480 0.42350 0.44460 -0.45500
O 	O 	0.84680 0.57550 0.25380 -0.51800
O 	O 	0.08060 0.83370 0.41240 -0.46300
O 	O 	0.96040 0.83100 0.25650 -0.47000
O 	O 	0.30670 0.01900 0.57360 -0.43700
O 	O 	0.53200 0.17170 0.50870 -0.41600
