data_crystal

_cell_length_a 25.65500
_cell_length_b 28.56100
_cell_length_c 32.00100
_cell_angle_alpha 90.00000
_cell_angle_beta  90.00000
_cell_angle_gamma 90.00000

_symmetry_space_group_name_	'P 1'
_symmetry_space_group_name_H-M	'P 1'

loop_
_symmetry_equiv_pos_as_xyz
  x,y,z

loop_
_atom_site_label
_atom_site_type_symbol
_atom_site_fract_x
_atom_site_fract_y
_atom_site_fract_z
_atom_site_charge
Co	Co	0.75733 0.12975 0.78450 1.19000
O 	O 	0.74080 0.18995 0.80817 -0.44700
O 	O 	0.83279 0.12327 0.78986 -0.40400
O 	O 	0.71721 0.13578 0.73188 -0.47700
O 	O 	0.75781 0.93409 0.69631 -0.41800
C 	C 	0.72790 0.20099 0.84440 0.37000
C 	C 	0.86900 0.14550 0.77071 0.33100
C 	C 	0.72003 0.10719 0.70099 0.36300
O 	O 	0.71440 0.17374 0.87222 -0.25200
C 	C 	0.73030 0.25289 0.85377 -0.12000
O 	O 	0.91509 0.14546 0.78222 -0.21900
C 	C 	0.85290 0.17307 0.73298 -0.13800
O 	O 	0.68347 0.09996 0.67745 -0.36500
C 	C 	0.77010 0.07948 0.69715 -0.16700
O 	O 	0.84385 0.92573 0.70381 -0.34600
C 	C 	0.75400 0.28311 0.82553 0.06500
C 	C 	0.70900 0.27180 0.88920 0.05400
C 	C 	0.82680 0.15232 0.69968 0.02800
C 	C 	0.86360 0.22150 0.73286 0.04300
C 	C 	0.81940 0.10018 0.69831 0.04700
C 	C 	0.76533 0.03107 0.69621 0.06400
O 	O 	0.83065 0.32669 0.67637 -0.23000
O 	O 	0.79110 0.35100 0.76760 -0.38100
O 	O 	0.88890 0.31537 0.72728 -0.39300
H 	H 	0.76780 0.27100 0.80020 0.03300
C 	C 	0.75789 0.33110 0.83373 -0.15500
C 	C 	0.71170 0.31900 0.89750 -0.11300
H 	H 	0.69200 0.25180 0.90860 0.04300
C 	C 	0.81100 0.18040 0.66655 -0.08800
H 	H 	0.88240 0.23510 0.75540 0.04000
C 	C 	0.84670 0.24934 0.69981 -0.09100
C 	C 	0.86320 0.07145 0.69659 -0.10400
H 	H 	0.73170 0.01730 0.69530 0.03200
C 	C 	0.80936 0.00249 0.69652 -0.11500
C 	C 	0.73660 0.34931 0.87013 0.06600
C 	C 	0.79090 0.35920 0.80360 0.41500
H 	H 	0.69630 0.33100 0.92220 0.08500
C 	C 	0.82010 0.22800 0.66646 0.02500
H 	H 	0.79370 0.16650 0.64350 0.07000
C 	C 	0.85510 0.30120 0.70106 0.32700
C 	C 	0.85850 0.02301 0.69638 0.04300
H 	H 	0.89680 0.08520 0.69550 0.08200
C 	C 	0.80440 0.94981 0.69894 0.35500
O 	O 	0.82170 0.38700 0.81750 -0.43800
H 	H 	0.80830 0.24650 0.64370 0.05000
H 	H 	0.88890 0.00390 0.69610 0.03900
Co	Co	0.75733 0.62975 0.28450 1.19100
O 	O 	0.74080 0.68995 0.30817 -0.44600
O 	O 	0.83279 0.62327 0.28986 -0.40200
O 	O 	0.71721 0.63578 0.23188 -0.47600
O 	O 	0.75781 0.43409 0.19631 -0.41700
C 	C 	0.72790 0.70099 0.34440 0.37100
C 	C 	0.86900 0.64550 0.27071 0.33200
C 	C 	0.72003 0.60719 0.20099 0.36400
O 	O 	0.71440 0.67374 0.37222 -0.25100
C 	C 	0.73030 0.75289 0.35377 -0.11900
O 	O 	0.91509 0.64546 0.28222 -0.21800
C 	C 	0.85290 0.67307 0.23298 -0.13700
O 	O 	0.68347 0.59996 0.17745 -0.36400
C 	C 	0.77010 0.57948 0.19715 -0.16600
O 	O 	0.84385 0.42573 0.20381 -0.34500
C 	C 	0.75400 0.78311 0.32553 0.06600
C 	C 	0.70900 0.77180 0.38920 0.05500
C 	C 	0.82680 0.65232 0.19968 0.02900
C 	C 	0.86360 0.72150 0.23286 0.04400
C 	C 	0.81940 0.60018 0.19831 0.04800
C 	C 	0.76533 0.53107 0.19621 0.06400
O 	O 	0.83065 0.82669 0.17637 -0.23000
O 	O 	0.79110 0.85100 0.26760 -0.38100
O 	O 	0.88890 0.81537 0.22728 -0.39300
H 	H 	0.76780 0.77100 0.30020 0.03300
C 	C 	0.75789 0.83110 0.33373 -0.15500
C 	C 	0.71170 0.81900 0.39750 -0.11300
H 	H 	0.69200 0.75180 0.40860 0.04300
C 	C 	0.81100 0.68040 0.16655 -0.08800
H 	H 	0.88240 0.73510 0.25540 0.04000
C 	C 	0.84670 0.74934 0.19981 -0.09100
C 	C 	0.86320 0.57145 0.19659 -0.10300
H 	H 	0.73170 0.51730 0.19530 0.03300
C 	C 	0.80936 0.50249 0.19652 -0.11400
C 	C 	0.73660 0.84931 0.37013 0.06600
C 	C 	0.79090 0.85920 0.30360 0.41500
H 	H 	0.69630 0.83100 0.42220 0.08500
C 	C 	0.82010 0.72800 0.16646 0.02500
H 	H 	0.79370 0.66650 0.14350 0.07000
C 	C 	0.85510 0.80120 0.20106 0.32700
C 	C 	0.85850 0.52301 0.19638 0.04300
H 	H 	0.89680 0.58520 0.19550 0.08200
C 	C 	0.80440 0.44981 0.19894 0.35400
O 	O 	0.82170 0.88700 0.31750 -0.43800
H 	H 	0.80830 0.74650 0.14370 0.05000
H 	H 	0.88890 0.50390 0.19610 0.03900
Co	Co	0.25733 0.12975 0.28450 1.19100
O 	O 	0.24080 0.18995 0.30817 -0.44600
O 	O 	0.33279 0.12327 0.28986 -0.40200
O 	O 	0.21721 0.13578 0.23188 -0.47600
O 	O 	0.25781 0.93409 0.19631 -0.41700
C 	C 	0.22790 0.20099 0.34440 0.37100
C 	C 	0.36900 0.14550 0.27071 0.33200
C 	C 	0.22003 0.10719 0.20099 0.36400
O 	O 	0.21440 0.17374 0.37222 -0.25100
C 	C 	0.23030 0.25289 0.35377 -0.11900
O 	O 	0.41509 0.14546 0.28222 -0.21800
C 	C 	0.35290 0.17307 0.23298 -0.13700
O 	O 	0.18347 0.09996 0.17745 -0.36400
C 	C 	0.27010 0.07948 0.19715 -0.16600
O 	O 	0.34385 0.92573 0.20381 -0.34500
C 	C 	0.25400 0.28311 0.32553 0.06600
C 	C 	0.20900 0.27180 0.38920 0.05500
C 	C 	0.32680 0.15232 0.19968 0.02900
C 	C 	0.36360 0.22150 0.23286 0.04400
C 	C 	0.31940 0.10018 0.19831 0.04800
C 	C 	0.26533 0.03107 0.19621 0.06400
O 	O 	0.33065 0.32669 0.17637 -0.23000
O 	O 	0.29110 0.35100 0.26760 -0.38100
O 	O 	0.38890 0.31537 0.22728 -0.39300
H 	H 	0.26780 0.27100 0.30020 0.03300
C 	C 	0.25789 0.33110 0.33373 -0.15500
C 	C 	0.21170 0.31900 0.39750 -0.11300
H 	H 	0.19200 0.25180 0.40860 0.04300
C 	C 	0.31100 0.18040 0.16655 -0.08800
H 	H 	0.38240 0.23510 0.25540 0.04000
C 	C 	0.34670 0.24934 0.19981 -0.09100
C 	C 	0.36320 0.07145 0.19659 -0.10300
H 	H 	0.23170 0.01730 0.19530 0.03300
C 	C 	0.30936 0.00249 0.19652 -0.11400
C 	C 	0.23660 0.34931 0.37013 0.06600
C 	C 	0.29090 0.35920 0.30360 0.41500
H 	H 	0.19630 0.33100 0.42220 0.08500
C 	C 	0.32010 0.22800 0.16646 0.02500
H 	H 	0.29370 0.16650 0.14350 0.07000
C 	C 	0.35510 0.30120 0.20106 0.32700
C 	C 	0.35850 0.02301 0.19638 0.04300
H 	H 	0.39680 0.08520 0.19550 0.08200
C 	C 	0.30440 0.94981 0.19894 0.35400
O 	O 	0.32170 0.38700 0.31750 -0.43800
H 	H 	0.30830 0.24650 0.14370 0.05000
H 	H 	0.38890 0.00390 0.19610 0.03900
Co	Co	0.25733 0.62975 0.78450 1.19100
O 	O 	0.24080 0.68995 0.80817 -0.44600
O 	O 	0.33279 0.62327 0.78986 -0.40200
O 	O 	0.21721 0.63578 0.73188 -0.47600
O 	O 	0.25781 0.43409 0.69631 -0.41700
C 	C 	0.22790 0.70099 0.84440 0.37100
C 	C 	0.36900 0.64550 0.77071 0.33200
C 	C 	0.22003 0.60719 0.70099 0.36400
O 	O 	0.21440 0.67374 0.87222 -0.25100
C 	C 	0.23030 0.75289 0.85377 -0.11800
O 	O 	0.41509 0.64546 0.78222 -0.21800
C 	C 	0.35290 0.67307 0.73298 -0.13700
O 	O 	0.18347 0.59996 0.67745 -0.36400
C 	C 	0.27010 0.57948 0.69715 -0.16600
O 	O 	0.34385 0.42573 0.70381 -0.34500
C 	C 	0.25400 0.78311 0.82553 0.06600
C 	C 	0.20900 0.77180 0.88920 0.05500
C 	C 	0.32680 0.65232 0.69968 0.02900
C 	C 	0.36360 0.72150 0.73286 0.04400
C 	C 	0.31940 0.60018 0.69831 0.04800
C 	C 	0.26533 0.53107 0.69621 0.06400
O 	O 	0.33065 0.82669 0.67637 -0.23000
O 	O 	0.29110 0.85100 0.76760 -0.38100
O 	O 	0.38890 0.81537 0.72728 -0.39300
H 	H 	0.26780 0.77100 0.80020 0.03300
C 	C 	0.25789 0.83110 0.83373 -0.15500
C 	C 	0.21170 0.81900 0.89750 -0.11300
H 	H 	0.19200 0.75180 0.90860 0.04300
C 	C 	0.31100 0.68040 0.66655 -0.08800
H 	H 	0.38240 0.73510 0.75540 0.04000
C 	C 	0.34670 0.74934 0.69981 -0.09100
C 	C 	0.36320 0.57145 0.69659 -0.10300
H 	H 	0.23170 0.51730 0.69530 0.03300
C 	C 	0.30936 0.50249 0.69652 -0.11400
C 	C 	0.23660 0.84931 0.87013 0.06600
C 	C 	0.29090 0.85920 0.80360 0.41500
H 	H 	0.19630 0.83100 0.92220 0.08500
C 	C 	0.32010 0.72800 0.66646 0.02500
H 	H 	0.29370 0.66650 0.64350 0.07000
C 	C 	0.35510 0.80120 0.70106 0.32700
C 	C 	0.35850 0.52301 0.69638 0.04300
H 	H 	0.39680 0.58520 0.69550 0.08200
C 	C 	0.30440 0.44981 0.69894 0.35400
O 	O 	0.32170 0.88700 0.81750 -0.43800
H 	H 	0.30830 0.74650 0.64370 0.05000
H 	H 	0.38890 0.50390 0.69610 0.03900
Co	Co	0.99267 0.62025 0.78450 1.19100
O 	O 	0.00920 0.56005 0.80817 -0.44600
O 	O 	0.91721 0.62673 0.78986 -0.40200
O 	O 	0.03279 0.61422 0.73188 -0.47600
O 	O 	0.99219 0.81591 0.69631 -0.41700
C 	C 	0.02210 0.54901 0.84440 0.37100
C 	C 	0.88100 0.60450 0.77071 0.33200
C 	C 	0.02997 0.64281 0.70099 0.36400
O 	O 	0.03560 0.57626 0.87222 -0.25100
C 	C 	0.01970 0.49711 0.85377 -0.11800
O 	O 	0.83491 0.60454 0.78222 -0.21800
C 	C 	0.89710 0.57693 0.73298 -0.13700
O 	O 	0.06653 0.65004 0.67745 -0.36400
C 	C 	0.97990 0.67052 0.69715 -0.16600
O 	O 	0.90615 0.82427 0.70381 -0.34500
C 	C 	0.99600 0.46689 0.82553 0.06500
C 	C 	0.04100 0.47820 0.88920 0.05500
C 	C 	0.92320 0.59768 0.69968 0.02900
C 	C 	0.88640 0.52850 0.73286 0.04400
C 	C 	0.93060 0.64982 0.69831 0.04800
C 	C 	0.98467 0.71893 0.69621 0.06400
O 	O 	0.91935 0.42331 0.67637 -0.23000
O 	O 	0.95890 0.39900 0.76760 -0.38100
O 	O 	0.86110 0.43463 0.72728 -0.39300
H 	H 	0.98220 0.47900 0.80020 0.03300
C 	C 	0.99211 0.41890 0.83373 -0.15600
C 	C 	0.03830 0.43100 0.89750 -0.11300
H 	H 	0.05800 0.49820 0.90860 0.04400
C 	C 	0.93900 0.56960 0.66655 -0.08800
H 	H 	0.86760 0.51490 0.75540 0.04000
C 	C 	0.90330 0.50066 0.69981 -0.09100
C 	C 	0.88680 0.67855 0.69659 -0.10300
H 	H 	0.01830 0.73270 0.69530 0.03300
C 	C 	0.94064 0.74751 0.69652 -0.11400
C 	C 	0.01340 0.40069 0.87013 0.06600
C 	C 	0.95910 0.39080 0.80360 0.41500
H 	H 	0.05370 0.41900 0.92220 0.08500
C 	C 	0.92990 0.52200 0.66646 0.02500
H 	H 	0.95630 0.58350 0.64350 0.07000
C 	C 	0.89490 0.44880 0.70106 0.32700
C 	C 	0.89150 0.72699 0.69638 0.04300
H 	H 	0.85320 0.66480 0.69550 0.08200
C 	C 	0.94560 0.80019 0.69894 0.35400
O 	O 	0.92830 0.36300 0.81750 -0.43900
H 	H 	0.94170 0.50350 0.64370 0.05000
H 	H 	0.86110 0.74610 0.69610 0.03900
Co	Co	0.99267 0.12025 0.28450 1.19100
O 	O 	0.00920 0.06005 0.30817 -0.44600
O 	O 	0.91721 0.12673 0.28986 -0.40200
O 	O 	0.03279 0.11422 0.23188 -0.47600
O 	O 	0.99219 0.31591 0.19631 -0.41700
C 	C 	0.02210 0.04901 0.34440 0.37200
C 	C 	0.88100 0.10450 0.27071 0.33200
C 	C 	0.02997 0.14281 0.20099 0.36400
O 	O 	0.03560 0.07626 0.37222 -0.25100
C 	C 	0.01970 0.99711 0.35377 -0.12100
O 	O 	0.83491 0.10454 0.28222 -0.21800
C 	C 	0.89710 0.07693 0.23298 -0.13700
O 	O 	0.06653 0.15004 0.17745 -0.36400
C 	C 	0.97990 0.17052 0.19715 -0.16600
O 	O 	0.90615 0.32427 0.20381 -0.34500
C 	C 	0.99600 0.96689 0.32553 0.06700
C 	C 	0.04100 0.97820 0.38920 0.05600
C 	C 	0.92320 0.09768 0.19968 0.02900
C 	C 	0.88640 0.02850 0.23286 0.04400
C 	C 	0.93060 0.14982 0.19831 0.04800
C 	C 	0.98467 0.21893 0.19621 0.06400
O 	O 	0.91935 0.92331 0.17637 -0.23000
O 	O 	0.95890 0.89900 0.26760 -0.38100
O 	O 	0.86110 0.93463 0.22728 -0.39300
H 	H 	0.98220 0.97900 0.30020 0.03200
C 	C 	0.99211 0.91890 0.33373 -0.15500
C 	C 	0.03830 0.93100 0.39750 -0.11400
H 	H 	0.05800 0.99820 0.40860 0.04300
C 	C 	0.93900 0.06960 0.16655 -0.08800
H 	H 	0.86760 0.01490 0.25540 0.04000
C 	C 	0.90330 0.00066 0.19981 -0.09200
C 	C 	0.88680 0.17855 0.19659 -0.10300
H 	H 	0.01830 0.23270 0.19530 0.03300
C 	C 	0.94064 0.24751 0.19652 -0.11400
C 	C 	0.01340 0.90069 0.37013 0.06500
C 	C 	0.95910 0.89080 0.30360 0.41500
H 	H 	0.05370 0.91900 0.42220 0.08500
C 	C 	0.92990 0.02200 0.16646 0.02600
H 	H 	0.95630 0.08350 0.14350 0.07000
C 	C 	0.89490 0.94880 0.20106 0.32700
C 	C 	0.89150 0.22699 0.19638 0.04300
H 	H 	0.85320 0.16480 0.19550 0.08200
C 	C 	0.94560 0.30019 0.19894 0.35400
O 	O 	0.92830 0.86300 0.31750 -0.43800
H 	H 	0.94170 0.00350 0.14370 0.04900
H 	H 	0.86110 0.24610 0.19610 0.03900
Co	Co	0.49267 0.62025 0.28450 1.19100
O 	O 	0.50920 0.56005 0.30817 -0.44600
O 	O 	0.41721 0.62673 0.28986 -0.40200
O 	O 	0.53279 0.61422 0.23188 -0.47600
O 	O 	0.49219 0.81591 0.19631 -0.41700
C 	C 	0.52210 0.54901 0.34440 0.37100
C 	C 	0.38100 0.60450 0.27071 0.33200
C 	C 	0.52997 0.64281 0.20099 0.36400
O 	O 	0.53560 0.57626 0.37222 -0.25100
C 	C 	0.51970 0.49711 0.35377 -0.11900
O 	O 	0.33491 0.60454 0.28222 -0.21800
C 	C 	0.39710 0.57693 0.23298 -0.13700
O 	O 	0.56653 0.65004 0.17745 -0.36400
C 	C 	0.47990 0.67052 0.19715 -0.16600
O 	O 	0.40615 0.82427 0.20381 -0.34500
C 	C 	0.49600 0.46689 0.32553 0.06600
C 	C 	0.54100 0.47820 0.38920 0.05500
C 	C 	0.42320 0.59768 0.19968 0.02900
C 	C 	0.38640 0.52850 0.23286 0.04400
C 	C 	0.43060 0.64982 0.19831 0.04800
C 	C 	0.48467 0.71893 0.19621 0.06400
O 	O 	0.41935 0.42331 0.17637 -0.23000
O 	O 	0.45890 0.39900 0.26760 -0.38100
O 	O 	0.36110 0.43463 0.22728 -0.39300
H 	H 	0.48220 0.47900 0.30020 0.03300
C 	C 	0.49211 0.41890 0.33373 -0.15500
C 	C 	0.53830 0.43100 0.39750 -0.11300
H 	H 	0.55800 0.49820 0.40860 0.04300
C 	C 	0.43900 0.56960 0.16655 -0.08800
H 	H 	0.36760 0.51490 0.25540 0.04000
C 	C 	0.40330 0.50066 0.19981 -0.09100
C 	C 	0.38680 0.67855 0.19659 -0.10300
H 	H 	0.51830 0.73270 0.19530 0.03300
C 	C 	0.44064 0.74751 0.19652 -0.11400
C 	C 	0.51340 0.40069 0.37013 0.06600
C 	C 	0.45910 0.39080 0.30360 0.41500
H 	H 	0.55370 0.41900 0.42220 0.08500
C 	C 	0.42990 0.52200 0.16646 0.02500
H 	H 	0.45630 0.58350 0.14350 0.07000
C 	C 	0.39490 0.44880 0.20106 0.32700
C 	C 	0.39150 0.72699 0.19638 0.04300
H 	H 	0.35320 0.66480 0.19550 0.08200
C 	C 	0.44560 0.80019 0.19894 0.35400
O 	O 	0.42830 0.36300 0.31750 -0.43800
H 	H 	0.44170 0.50350 0.14370 0.05000
H 	H 	0.36110 0.74610 0.19610 0.03900
Co	Co	0.49267 0.12025 0.78450 1.19100
O 	O 	0.50920 0.06005 0.80817 -0.44600
O 	O 	0.41721 0.12673 0.78986 -0.40200
O 	O 	0.53279 0.11422 0.73188 -0.47600
O 	O 	0.49219 0.31591 0.69631 -0.41700
C 	C 	0.52210 0.04901 0.84440 0.37100
C 	C 	0.38100 0.10450 0.77071 0.33200
C 	C 	0.52997 0.14281 0.70099 0.36400
O 	O 	0.53560 0.07626 0.87222 -0.25100
C 	C 	0.51970 0.99711 0.85377 -0.11900
O 	O 	0.33491 0.10454 0.78222 -0.21800
C 	C 	0.39710 0.07693 0.73298 -0.13700
O 	O 	0.56653 0.15004 0.67745 -0.36400
C 	C 	0.47990 0.17052 0.69715 -0.16600
O 	O 	0.40615 0.32427 0.70381 -0.34500
C 	C 	0.49600 0.96689 0.82553 0.06600
C 	C 	0.54100 0.97820 0.88920 0.05500
C 	C 	0.42320 0.09768 0.69968 0.02900
C 	C 	0.38640 0.02850 0.73286 0.04400
C 	C 	0.43060 0.14982 0.69831 0.04800
C 	C 	0.48467 0.21893 0.69621 0.06400
O 	O 	0.41935 0.92331 0.67637 -0.23000
O 	O 	0.45890 0.89900 0.76760 -0.38100
O 	O 	0.36110 0.93463 0.72728 -0.39300
H 	H 	0.48220 0.97900 0.80020 0.03300
C 	C 	0.49211 0.91890 0.83373 -0.15500
C 	C 	0.53830 0.93100 0.89750 -0.11300
H 	H 	0.55800 0.99820 0.90860 0.04300
C 	C 	0.43900 0.06960 0.66655 -0.08800
H 	H 	0.36760 0.01490 0.75540 0.04000
C 	C 	0.40330 0.00066 0.69981 -0.09000
C 	C 	0.38680 0.17855 0.69659 -0.10300
H 	H 	0.51830 0.23270 0.69530 0.03300
C 	C 	0.44064 0.24751 0.69652 -0.11400
C 	C 	0.51340 0.90069 0.87013 0.06600
C 	C 	0.45910 0.89080 0.80360 0.41500
H 	H 	0.55370 0.91900 0.92220 0.08500
C 	C 	0.42990 0.02200 0.66646 0.02500
H 	H 	0.45630 0.08350 0.64350 0.07000
C 	C 	0.39490 0.94880 0.70106 0.32700
C 	C 	0.39150 0.22699 0.69638 0.04300
H 	H 	0.35320 0.16480 0.69550 0.08200
C 	C 	0.44560 0.30019 0.69894 0.35400
O 	O 	0.42830 0.86300 0.81750 -0.43800
H 	H 	0.44170 0.00350 0.64370 0.05000
H 	H 	0.36110 0.24610 0.69610 0.03900
Co	Co	0.99267 0.12975 0.96550 1.19000
O 	O 	0.00920 0.18995 0.94183 -0.44500
O 	O 	0.91721 0.12327 0.96014 -0.40300
O 	O 	0.03279 0.13578 0.01812 -0.47600
O 	O 	0.99219 0.93409 0.05369 -0.41600
C 	C 	0.02210 0.20099 0.90560 0.37000
C 	C 	0.88100 0.14550 0.97929 0.33100
C 	C 	0.02997 0.10719 0.04901 0.36400
O 	O 	0.03560 0.17374 0.87778 -0.25100
C 	C 	0.01970 0.25289 0.89623 -0.11700
O 	O 	0.83491 0.14546 0.96778 -0.21800
C 	C 	0.89710 0.17307 0.01702 -0.13600
O 	O 	0.06653 0.09996 0.07255 -0.36400
C 	C 	0.97990 0.07948 0.05285 -0.16600
O 	O 	0.90615 0.92573 0.04619 -0.34400
C 	C 	0.99600 0.28311 0.92447 0.06400
C 	C 	0.04100 0.27180 0.86080 0.05400
C 	C 	0.92320 0.15232 0.05032 0.02900
C 	C 	0.88640 0.22150 0.01714 0.04500
C 	C 	0.93060 0.10018 0.05169 0.04800
C 	C 	0.98467 0.03107 0.05379 0.06500
O 	O 	0.91935 0.32669 0.07363 -0.22900
O 	O 	0.95890 0.35100 0.98240 -0.38100
O 	O 	0.86110 0.31537 0.02272 -0.39200
H 	H 	0.98220 0.27100 0.94980 0.03300
C 	C 	0.99211 0.33110 0.91627 -0.15600
C 	C 	0.03830 0.31900 0.85250 -0.11300
H 	H 	0.05800 0.25180 0.84140 0.04400
C 	C 	0.93900 0.18040 0.08345 -0.08800
H 	H 	0.86760 0.23510 0.99460 0.03900
C 	C 	0.90330 0.24934 0.05019 -0.09100
C 	C 	0.88680 0.07145 0.05341 -0.10400
H 	H 	0.01830 0.01730 0.05470 0.03200
C 	C 	0.94064 0.00249 0.05348 -0.11500
C 	C 	0.01340 0.34931 0.87987 0.06600
C 	C 	0.95910 0.35920 0.94640 0.41500
H 	H 	0.05370 0.33100 0.82780 0.08500
C 	C 	0.92990 0.22800 0.08354 0.02600
H 	H 	0.95630 0.16650 0.10650 0.07000
C 	C 	0.89490 0.30120 0.04894 0.32700
C 	C 	0.89150 0.02301 0.05362 0.04300
H 	H 	0.85320 0.08520 0.05450 0.08200
C 	C 	0.94560 0.94981 0.05106 0.35500
O 	O 	0.92830 0.38700 0.93250 -0.43900
H 	H 	0.94170 0.24650 0.10630 0.05000
H 	H 	0.86110 0.00390 0.05390 0.03900
Co	Co	0.99267 0.62975 0.46550 1.19100
O 	O 	0.00920 0.68995 0.44183 -0.44600
O 	O 	0.91721 0.62327 0.46014 -0.40200
O 	O 	0.03279 0.63578 0.51812 -0.47600
O 	O 	0.99219 0.43409 0.55369 -0.41700
C 	C 	0.02210 0.70099 0.40560 0.37100
C 	C 	0.88100 0.64550 0.47929 0.33200
C 	C 	0.02997 0.60719 0.54901 0.36400
O 	O 	0.03560 0.67374 0.37778 -0.25100
C 	C 	0.01970 0.75289 0.39623 -0.11900
O 	O 	0.83491 0.64546 0.46778 -0.21800
C 	C 	0.89710 0.67307 0.51702 -0.13700
O 	O 	0.06653 0.59996 0.57255 -0.36400
C 	C 	0.97990 0.57948 0.55285 -0.16600
O 	O 	0.90615 0.42573 0.54619 -0.34500
C 	C 	0.99600 0.78311 0.42447 0.06600
C 	C 	0.04100 0.77180 0.36080 0.05500
C 	C 	0.92320 0.65232 0.55032 0.02900
C 	C 	0.88640 0.72150 0.51714 0.04400
C 	C 	0.93060 0.60018 0.55169 0.04800
C 	C 	0.98467 0.53107 0.55379 0.06400
O 	O 	0.91935 0.82669 0.57363 -0.23000
O 	O 	0.95890 0.85100 0.48240 -0.38100
O 	O 	0.86110 0.81537 0.52272 -0.39300
H 	H 	0.98220 0.77100 0.44980 0.03300
C 	C 	0.99211 0.83110 0.41627 -0.15400
C 	C 	0.03830 0.81900 0.35250 -0.11300
H 	H 	0.05800 0.75180 0.34140 0.04300
C 	C 	0.93900 0.68040 0.58345 -0.08800
H 	H 	0.86760 0.73510 0.49460 0.04000
C 	C 	0.90330 0.74934 0.55019 -0.09100
C 	C 	0.88680 0.57145 0.55341 -0.10300
H 	H 	0.01830 0.51730 0.55470 0.03300
C 	C 	0.94064 0.50249 0.55348 -0.11400
C 	C 	0.01340 0.84931 0.37987 0.06500
C 	C 	0.95910 0.85920 0.44640 0.41500
H 	H 	0.05370 0.83100 0.32780 0.08500
C 	C 	0.92990 0.72800 0.58354 0.02500
H 	H 	0.95630 0.66650 0.60650 0.07000
C 	C 	0.89490 0.80120 0.54894 0.32700
C 	C 	0.89150 0.52301 0.55362 0.04300
H 	H 	0.85320 0.58520 0.55450 0.08200
C 	C 	0.94560 0.44981 0.55106 0.35400
O 	O 	0.92830 0.88700 0.43250 -0.43800
H 	H 	0.94170 0.74650 0.60630 0.05000
H 	H 	0.86110 0.50390 0.55390 0.03900
Co	Co	0.49267 0.12975 0.46550 1.19100
O 	O 	0.50920 0.18995 0.44183 -0.44600
O 	O 	0.41721 0.12327 0.46014 -0.40200
O 	O 	0.53279 0.13578 0.51812 -0.47600
O 	O 	0.49219 0.93409 0.55369 -0.41700
C 	C 	0.52210 0.20099 0.40560 0.37100
C 	C 	0.38100 0.14550 0.47929 0.33200
C 	C 	0.52997 0.10719 0.54901 0.36400
O 	O 	0.53560 0.17374 0.37778 -0.25100
C 	C 	0.51970 0.25289 0.39623 -0.11900
O 	O 	0.33491 0.14546 0.46778 -0.21800
C 	C 	0.39710 0.17307 0.51702 -0.13700
O 	O 	0.56653 0.09996 0.57255 -0.36400
C 	C 	0.47990 0.07948 0.55285 -0.16600
O 	O 	0.40615 0.92573 0.54619 -0.34500
C 	C 	0.49600 0.28311 0.42447 0.06600
C 	C 	0.54100 0.27180 0.36080 0.05500
C 	C 	0.42320 0.15232 0.55032 0.02900
C 	C 	0.38640 0.22150 0.51714 0.04400
C 	C 	0.43060 0.10018 0.55169 0.04800
C 	C 	0.48467 0.03107 0.55379 0.06400
O 	O 	0.41935 0.32669 0.57363 -0.23000
O 	O 	0.45890 0.35100 0.48240 -0.38100
O 	O 	0.36110 0.31537 0.52272 -0.39300
H 	H 	0.48220 0.27100 0.44980 0.03300
C 	C 	0.49211 0.33110 0.41627 -0.15500
C 	C 	0.53830 0.31900 0.35250 -0.11300
H 	H 	0.55800 0.25180 0.34140 0.04300
C 	C 	0.43900 0.18040 0.58345 -0.08800
H 	H 	0.36760 0.23510 0.49460 0.04000
C 	C 	0.40330 0.24934 0.55019 -0.09100
C 	C 	0.38680 0.07145 0.55341 -0.10300
H 	H 	0.51830 0.01730 0.55470 0.03300
C 	C 	0.44064 0.00249 0.55348 -0.11400
C 	C 	0.51340 0.34931 0.37987 0.06600
C 	C 	0.45910 0.35920 0.44640 0.41500
H 	H 	0.55370 0.33100 0.32780 0.08500
C 	C 	0.42990 0.22800 0.58354 0.02500
H 	H 	0.45630 0.16650 0.60650 0.07000
C 	C 	0.39490 0.30120 0.54894 0.32700
C 	C 	0.39150 0.02301 0.55362 0.04300
H 	H 	0.35320 0.08520 0.55450 0.08200
C 	C 	0.44560 0.94981 0.55106 0.35400
O 	O 	0.42830 0.38700 0.43250 -0.43800
H 	H 	0.44170 0.24650 0.60630 0.05000
H 	H 	0.36110 0.00390 0.55390 0.03900
Co	Co	0.49267 0.62975 0.96550 1.19100
O 	O 	0.50920 0.68995 0.94183 -0.44600
O 	O 	0.41721 0.62327 0.96014 -0.40200
O 	O 	0.53279 0.63578 0.01812 -0.47600
O 	O 	0.49219 0.43409 0.05369 -0.41700
C 	C 	0.52210 0.70099 0.90560 0.37100
C 	C 	0.38100 0.64550 0.97929 0.33200
C 	C 	0.52997 0.60719 0.04901 0.36400
O 	O 	0.53560 0.67374 0.87778 -0.25100
C 	C 	0.51970 0.75289 0.89623 -0.11800
O 	O 	0.33491 0.64546 0.96778 -0.21800
C 	C 	0.39710 0.67307 0.01702 -0.13700
O 	O 	0.56653 0.59996 0.07255 -0.36400
C 	C 	0.47990 0.57948 0.05285 -0.16600
O 	O 	0.40615 0.42573 0.04619 -0.34500
C 	C 	0.49600 0.78311 0.92447 0.06500
C 	C 	0.54100 0.77180 0.86080 0.05500
C 	C 	0.42320 0.65232 0.05032 0.02900
C 	C 	0.38640 0.72150 0.01714 0.04300
C 	C 	0.43060 0.60018 0.05169 0.04800
C 	C 	0.48467 0.53107 0.05379 0.06400
O 	O 	0.41935 0.82669 0.07363 -0.23000
O 	O 	0.45890 0.85100 0.98240 -0.38100
O 	O 	0.36110 0.81537 0.02272 -0.39300
H 	H 	0.48220 0.77100 0.94980 0.03300
C 	C 	0.49211 0.83110 0.91627 -0.15500
C 	C 	0.53830 0.81900 0.85250 -0.11300
H 	H 	0.55800 0.75180 0.84140 0.04300
C 	C 	0.43900 0.68040 0.08345 -0.08800
H 	H 	0.36760 0.73510 0.99460 0.04000
C 	C 	0.40330 0.74934 0.05019 -0.09000
C 	C 	0.38680 0.57145 0.05341 -0.10300
H 	H 	0.51830 0.51730 0.05470 0.03300
C 	C 	0.44064 0.50249 0.05348 -0.11400
C 	C 	0.51340 0.84931 0.87987 0.06600
C 	C 	0.45910 0.85920 0.94640 0.41500
H 	H 	0.55370 0.83100 0.82780 0.08500
C 	C 	0.42990 0.72800 0.08354 0.02500
H 	H 	0.45630 0.66650 0.10650 0.07000
C 	C 	0.39490 0.80120 0.04894 0.32700
C 	C 	0.39150 0.52301 0.05362 0.04300
H 	H 	0.35320 0.58520 0.05450 0.08200
C 	C 	0.44560 0.44981 0.05106 0.35400
O 	O 	0.42830 0.88700 0.93250 -0.43800
H 	H 	0.44170 0.74650 0.10630 0.05000
H 	H 	0.36110 0.50390 0.05390 0.03900
Co	Co	0.75733 0.62025 0.96550 1.19100
O 	O 	0.74080 0.56005 0.94183 -0.44600
O 	O 	0.83279 0.62673 0.96014 -0.40200
O 	O 	0.71721 0.61422 0.01812 -0.47600
O 	O 	0.75781 0.81591 0.05369 -0.41700
C 	C 	0.72790 0.54901 0.90560 0.37100
C 	C 	0.86900 0.60450 0.97929 0.33100
C 	C 	0.72003 0.64281 0.04901 0.36400
O 	O 	0.71440 0.57626 0.87778 -0.25100
C 	C 	0.73030 0.49711 0.89623 -0.11900
O 	O 	0.91509 0.60454 0.96778 -0.21800
C 	C 	0.85290 0.57693 0.01702 -0.13600
O 	O 	0.68347 0.65004 0.07255 -0.36400
C 	C 	0.77010 0.67052 0.05285 -0.16600
O 	O 	0.84385 0.82427 0.04619 -0.34400
C 	C 	0.75400 0.46689 0.92447 0.06600
C 	C 	0.70900 0.47820 0.86080 0.05500
C 	C 	0.82680 0.59768 0.05032 0.02900
C 	C 	0.86360 0.52850 0.01714 0.04500
C 	C 	0.81940 0.64982 0.05169 0.04800
C 	C 	0.76533 0.71893 0.05379 0.06400
O 	O 	0.83065 0.42331 0.07363 -0.23000
O 	O 	0.79110 0.39900 0.98240 -0.38100
O 	O 	0.88890 0.43463 0.02272 -0.39200
H 	H 	0.76780 0.47900 0.94980 0.03300
C 	C 	0.75789 0.41890 0.91627 -0.15500
C 	C 	0.71170 0.43100 0.85250 -0.11300
H 	H 	0.69200 0.49820 0.84140 0.04300
C 	C 	0.81100 0.56960 0.08345 -0.08800
H 	H 	0.88240 0.51490 0.99460 0.03900
C 	C 	0.84670 0.50066 0.05019 -0.09100
C 	C 	0.86320 0.67855 0.05341 -0.10300
H 	H 	0.73170 0.73270 0.05470 0.03300
C 	C 	0.80936 0.74751 0.05348 -0.11400
C 	C 	0.73660 0.40069 0.87987 0.06600
C 	C 	0.79090 0.39080 0.94640 0.41500
H 	H 	0.69630 0.41900 0.82780 0.08500
C 	C 	0.82010 0.52200 0.08354 0.02600
H 	H 	0.79370 0.58350 0.10650 0.07000
C 	C 	0.85510 0.44880 0.04894 0.32700
C 	C 	0.85850 0.72699 0.05362 0.04300
H 	H 	0.89680 0.66480 0.05450 0.08200
C 	C 	0.80440 0.80019 0.05106 0.35400
O 	O 	0.82170 0.36300 0.93250 -0.43900
H 	H 	0.80830 0.50350 0.10630 0.05000
H 	H 	0.88890 0.74610 0.05390 0.03900
Co	Co	0.75733 0.12025 0.46550 1.19100
O 	O 	0.74080 0.06005 0.44183 -0.44600
O 	O 	0.83279 0.12673 0.46014 -0.40200
O 	O 	0.71721 0.11422 0.51812 -0.47600
O 	O 	0.75781 0.31591 0.55369 -0.41700
C 	C 	0.72790 0.04901 0.40560 0.37000
C 	C 	0.86900 0.10450 0.47929 0.33200
C 	C 	0.72003 0.14281 0.54901 0.36400
O 	O 	0.71440 0.07626 0.37778 -0.25100
C 	C 	0.73030 0.99711 0.39623 -0.11800
O 	O 	0.91509 0.10454 0.46778 -0.21800
C 	C 	0.85290 0.07693 0.51702 -0.13700
O 	O 	0.68347 0.15004 0.57255 -0.36400
C 	C 	0.77010 0.17052 0.55285 -0.16600
O 	O 	0.84385 0.32427 0.54619 -0.34500
C 	C 	0.75400 0.96689 0.42447 0.06500
C 	C 	0.70900 0.97820 0.36080 0.05400
C 	C 	0.82680 0.09768 0.55032 0.02900
C 	C 	0.86360 0.02850 0.51714 0.04400
C 	C 	0.81940 0.14982 0.55169 0.04800
C 	C 	0.76533 0.21893 0.55379 0.06400
O 	O 	0.83065 0.92331 0.57363 -0.23000
O 	O 	0.79110 0.89900 0.48240 -0.38100
O 	O 	0.88890 0.93463 0.52272 -0.39300
H 	H 	0.76780 0.97900 0.44980 0.03300
C 	C 	0.75789 0.91890 0.41627 -0.15500
C 	C 	0.71170 0.93100 0.35250 -0.11300
H 	H 	0.69200 0.99820 0.34140 0.04400
C 	C 	0.81100 0.06960 0.58345 -0.08800
H 	H 	0.88240 0.01490 0.49460 0.04000
C 	C 	0.84670 0.00066 0.55019 -0.09100
C 	C 	0.86320 0.17855 0.55341 -0.10300
H 	H 	0.73170 0.23270 0.55470 0.03300
C 	C 	0.80936 0.24751 0.55348 -0.11400
C 	C 	0.73660 0.90069 0.37987 0.06600
C 	C 	0.79090 0.89080 0.44640 0.41500
H 	H 	0.69630 0.91900 0.32780 0.08500
C 	C 	0.82010 0.02200 0.58354 0.02600
H 	H 	0.79370 0.08350 0.60650 0.07000
C 	C 	0.85510 0.94880 0.54894 0.32700
C 	C 	0.85850 0.22699 0.55362 0.04300
H 	H 	0.89680 0.16480 0.55450 0.08200
C 	C 	0.80440 0.30019 0.55106 0.35400
O 	O 	0.82170 0.86300 0.43250 -0.43800
H 	H 	0.80830 0.00350 0.60630 0.04900
H 	H 	0.88890 0.24610 0.55390 0.03900
Co	Co	0.25733 0.62025 0.46550 1.19100
O 	O 	0.24080 0.56005 0.44183 -0.44600
O 	O 	0.33279 0.62673 0.46014 -0.40200
O 	O 	0.21721 0.61422 0.51812 -0.47600
O 	O 	0.25781 0.81591 0.55369 -0.41700
C 	C 	0.22790 0.54901 0.40560 0.37100
C 	C 	0.36900 0.60450 0.47929 0.33200
C 	C 	0.22003 0.64281 0.54901 0.36400
O 	O 	0.21440 0.57626 0.37778 -0.25100
C 	C 	0.23030 0.49711 0.39623 -0.11900
O 	O 	0.41509 0.60454 0.46778 -0.21800
C 	C 	0.35290 0.57693 0.51702 -0.13700
O 	O 	0.18347 0.65004 0.57255 -0.36400
C 	C 	0.27010 0.67052 0.55285 -0.16600
O 	O 	0.34385 0.82427 0.54619 -0.34500
C 	C 	0.25400 0.46689 0.42447 0.06600
C 	C 	0.20900 0.47820 0.36080 0.05500
C 	C 	0.32680 0.59768 0.55032 0.02900
C 	C 	0.36360 0.52850 0.51714 0.04400
C 	C 	0.31940 0.64982 0.55169 0.04800
C 	C 	0.26533 0.71893 0.55379 0.06400
O 	O 	0.33065 0.42331 0.57363 -0.23000
O 	O 	0.29110 0.39900 0.48240 -0.38100
O 	O 	0.38890 0.43463 0.52272 -0.39300
H 	H 	0.26780 0.47900 0.44980 0.03300
C 	C 	0.25789 0.41890 0.41627 -0.15500
C 	C 	0.21170 0.43100 0.35250 -0.11300
H 	H 	0.19200 0.49820 0.34140 0.04300
C 	C 	0.31100 0.56960 0.58345 -0.08800
H 	H 	0.38240 0.51490 0.49460 0.04000
C 	C 	0.34670 0.50066 0.55019 -0.09100
C 	C 	0.36320 0.67855 0.55341 -0.10300
H 	H 	0.23170 0.73270 0.55470 0.03300
C 	C 	0.30936 0.74751 0.55348 -0.11400
C 	C 	0.23660 0.40069 0.37987 0.06600
C 	C 	0.29090 0.39080 0.44640 0.41500
H 	H 	0.19630 0.41900 0.32780 0.08500
C 	C 	0.32010 0.52200 0.58354 0.02500
H 	H 	0.29370 0.58350 0.60650 0.07000
C 	C 	0.35510 0.44880 0.54894 0.32700
C 	C 	0.35850 0.72699 0.55362 0.04300
H 	H 	0.39680 0.66480 0.55450 0.08200
C 	C 	0.30440 0.80019 0.55106 0.35400
O 	O 	0.32170 0.36300 0.43250 -0.43800
H 	H 	0.30830 0.50350 0.60630 0.05000
H 	H 	0.38890 0.74610 0.55390 0.03900
Co	Co	0.25733 0.12025 0.96550 1.19100
O 	O 	0.24080 0.06005 0.94183 -0.44600
O 	O 	0.33279 0.12673 0.96014 -0.40200
O 	O 	0.21721 0.11422 0.01812 -0.47600
O 	O 	0.25781 0.31591 0.05369 -0.41700
C 	C 	0.22790 0.04901 0.90560 0.37100
C 	C 	0.36900 0.10450 0.97929 0.33200
C 	C 	0.22003 0.14281 0.04901 0.36400
O 	O 	0.21440 0.07626 0.87778 -0.25100
C 	C 	0.23030 0.99711 0.89623 -0.11900
O 	O 	0.41509 0.10454 0.96778 -0.21800
C 	C 	0.35290 0.07693 0.01702 -0.13700
O 	O 	0.18347 0.15004 0.07255 -0.36400
C 	C 	0.27010 0.17052 0.05285 -0.16600
O 	O 	0.34385 0.32427 0.04619 -0.34500
C 	C 	0.25400 0.96689 0.92447 0.06600
C 	C 	0.20900 0.97820 0.86080 0.05500
C 	C 	0.32680 0.09768 0.05032 0.02900
C 	C 	0.36360 0.02850 0.01714 0.04300
C 	C 	0.31940 0.14982 0.05169 0.04800
C 	C 	0.26533 0.21893 0.05379 0.06400
O 	O 	0.33065 0.92331 0.07363 -0.23000
O 	O 	0.29110 0.89900 0.98240 -0.38100
O 	O 	0.38890 0.93463 0.02272 -0.39300
H 	H 	0.26780 0.97900 0.94980 0.03300
C 	C 	0.25789 0.91890 0.91627 -0.15500
C 	C 	0.21170 0.93100 0.85250 -0.11300
H 	H 	0.19200 0.99820 0.84140 0.04300
C 	C 	0.31100 0.06960 0.08345 -0.08800
H 	H 	0.38240 0.01490 0.99460 0.04000
C 	C 	0.34670 0.00066 0.05019 -0.09000
C 	C 	0.36320 0.17855 0.05341 -0.10300
H 	H 	0.23170 0.23270 0.05470 0.03300
C 	C 	0.30936 0.24751 0.05348 -0.11400
C 	C 	0.23660 0.90069 0.87987 0.06600
C 	C 	0.29090 0.89080 0.94640 0.41500
H 	H 	0.19630 0.91900 0.82780 0.08500
C 	C 	0.32010 0.02200 0.08354 0.02500
H 	H 	0.29370 0.08350 0.10650 0.07000
C 	C 	0.35510 0.94880 0.04894 0.32600
C 	C 	0.35850 0.22699 0.05362 0.04300
H 	H 	0.39680 0.16480 0.05450 0.08200
C 	C 	0.30440 0.30019 0.05106 0.35400
O 	O 	0.32170 0.86300 0.93250 -0.43800
H 	H 	0.30830 0.00350 0.10630 0.05000
H 	H 	0.38890 0.24610 0.05390 0.03900
Co	Co	0.24267 0.87025 0.21550 1.19100
O 	O 	0.25920 0.81005 0.19183 -0.44600
O 	O 	0.16721 0.87673 0.21014 -0.40300
O 	O 	0.28279 0.86422 0.26812 -0.47600
O 	O 	0.24219 0.06591 0.30369 -0.41700
C 	C 	0.27210 0.79901 0.15560 0.37100
C 	C 	0.13100 0.85450 0.22929 0.33200
C 	C 	0.27997 0.89281 0.29901 0.36400
O 	O 	0.28560 0.82626 0.12778 -0.25100
C 	C 	0.26970 0.74711 0.14623 -0.11900
O 	O 	0.08491 0.85454 0.21778 -0.21800
C 	C 	0.14710 0.82693 0.26702 -0.13700
O 	O 	0.31653 0.90004 0.32255 -0.36400
C 	C 	0.22990 0.92052 0.30285 -0.16600
O 	O 	0.15615 0.07427 0.29619 -0.34500
C 	C 	0.24600 0.71689 0.17447 0.06600
C 	C 	0.29100 0.72820 0.11080 0.05500
C 	C 	0.17320 0.84768 0.30032 0.02900
C 	C 	0.13640 0.77850 0.26714 0.04400
C 	C 	0.18060 0.89982 0.30169 0.04800
C 	C 	0.23467 0.96893 0.30379 0.06400
O 	O 	0.16935 0.67331 0.32363 -0.23000
O 	O 	0.20890 0.64900 0.23240 -0.38100
O 	O 	0.11110 0.68463 0.27272 -0.39300
H 	H 	0.23220 0.72900 0.19980 0.03300
C 	C 	0.24211 0.66890 0.16627 -0.15500
C 	C 	0.28830 0.68100 0.10250 -0.11300
H 	H 	0.30800 0.74820 0.09140 0.04300
C 	C 	0.18900 0.81960 0.33345 -0.08800
H 	H 	0.11760 0.76490 0.24460 0.04000
C 	C 	0.15330 0.75066 0.30019 -0.09100
C 	C 	0.13680 0.92855 0.30341 -0.10400
H 	H 	0.26830 0.98270 0.30470 0.03200
C 	C 	0.19064 0.99751 0.30348 -0.11500
C 	C 	0.26340 0.65069 0.12987 0.06600
C 	C 	0.20910 0.64080 0.19640 0.41500
H 	H 	0.30370 0.66900 0.07780 0.08500
C 	C 	0.17990 0.77200 0.33354 0.02500
H 	H 	0.20630 0.83350 0.35650 0.07000
C 	C 	0.14490 0.69880 0.29894 0.32700
C 	C 	0.14150 0.97699 0.30362 0.04300
H 	H 	0.10320 0.91480 0.30450 0.08200
C 	C 	0.19560 0.05019 0.30106 0.35500
O 	O 	0.17830 0.61300 0.18250 -0.43800
H 	H 	0.19170 0.75350 0.35630 0.05000
H 	H 	0.11110 0.99610 0.30390 0.03900
Co	Co	0.24267 0.37025 0.71550 1.19100
O 	O 	0.25920 0.31005 0.69183 -0.44600
O 	O 	0.16721 0.37673 0.71014 -0.40200
O 	O 	0.28279 0.36422 0.76812 -0.47600
O 	O 	0.24219 0.56591 0.80369 -0.41700
C 	C 	0.27210 0.29901 0.65560 0.37100
C 	C 	0.13100 0.35450 0.72929 0.33200
C 	C 	0.27997 0.39281 0.79901 0.36400
O 	O 	0.28560 0.32626 0.62778 -0.25100
C 	C 	0.26970 0.24711 0.64623 -0.11900
O 	O 	0.08491 0.35454 0.71778 -0.21800
C 	C 	0.14710 0.32693 0.76702 -0.13700
O 	O 	0.31653 0.40004 0.82255 -0.36400
C 	C 	0.22990 0.42052 0.80285 -0.16600
O 	O 	0.15615 0.57427 0.79619 -0.34500
C 	C 	0.24600 0.21689 0.67447 0.06600
C 	C 	0.29100 0.22820 0.61080 0.05500
C 	C 	0.17320 0.34768 0.80032 0.02900
C 	C 	0.13640 0.27850 0.76714 0.04400
C 	C 	0.18060 0.39982 0.80169 0.04800
C 	C 	0.23467 0.46893 0.80379 0.06400
O 	O 	0.16935 0.17331 0.82363 -0.23000
O 	O 	0.20890 0.14900 0.73240 -0.38100
O 	O 	0.11110 0.18463 0.77272 -0.39300
H 	H 	0.23220 0.22900 0.69980 0.03300
C 	C 	0.24211 0.16890 0.66627 -0.15500
C 	C 	0.28830 0.18100 0.60250 -0.11300
H 	H 	0.30800 0.24820 0.59140 0.04300
C 	C 	0.18900 0.31960 0.83345 -0.08800
H 	H 	0.11760 0.26490 0.74460 0.04000
C 	C 	0.15330 0.25066 0.80019 -0.09100
C 	C 	0.13680 0.42855 0.80341 -0.10300
H 	H 	0.26830 0.48270 0.80470 0.03300
C 	C 	0.19064 0.49751 0.80348 -0.11400
C 	C 	0.26340 0.15069 0.62987 0.06600
C 	C 	0.20910 0.14080 0.69640 0.41500
H 	H 	0.30370 0.16900 0.57780 0.08500
C 	C 	0.17990 0.27200 0.83354 0.02500
H 	H 	0.20630 0.33350 0.85650 0.07000
C 	C 	0.14490 0.19880 0.79894 0.32700
C 	C 	0.14150 0.47699 0.80362 0.04300
H 	H 	0.10320 0.41480 0.80450 0.08200
C 	C 	0.19560 0.55019 0.80106 0.35400
O 	O 	0.17830 0.11300 0.68250 -0.43800
H 	H 	0.19170 0.25350 0.85630 0.05000
H 	H 	0.11110 0.49610 0.80390 0.03900
Co	Co	0.74267 0.87025 0.71550 1.19100
O 	O 	0.75920 0.81005 0.69183 -0.44600
O 	O 	0.66721 0.87673 0.71014 -0.40200
O 	O 	0.78279 0.86422 0.76812 -0.47600
O 	O 	0.74219 0.06591 0.80369 -0.41700
C 	C 	0.77210 0.79901 0.65560 0.37100
C 	C 	0.63100 0.85450 0.72929 0.33200
C 	C 	0.77997 0.89281 0.79901 0.36400
O 	O 	0.78560 0.82626 0.62778 -0.25100
C 	C 	0.76970 0.74711 0.64623 -0.11900
O 	O 	0.58491 0.85454 0.71778 -0.21800
C 	C 	0.64710 0.82693 0.76702 -0.13700
O 	O 	0.81653 0.90004 0.82255 -0.36400
C 	C 	0.72990 0.92052 0.80285 -0.16600
O 	O 	0.65615 0.07427 0.79619 -0.34500
C 	C 	0.74600 0.71689 0.67447 0.06600
C 	C 	0.79100 0.72820 0.61080 0.05500
C 	C 	0.67320 0.84768 0.80032 0.02900
C 	C 	0.63640 0.77850 0.76714 0.04400
C 	C 	0.68060 0.89982 0.80169 0.04800
C 	C 	0.73467 0.96893 0.80379 0.06400
O 	O 	0.66935 0.67331 0.82363 -0.23000
O 	O 	0.70890 0.64900 0.73240 -0.38100
O 	O 	0.61110 0.68463 0.77272 -0.39300
H 	H 	0.73220 0.72900 0.69980 0.03300
C 	C 	0.74211 0.66890 0.66627 -0.15500
C 	C 	0.78830 0.68100 0.60250 -0.11300
H 	H 	0.80800 0.74820 0.59140 0.04300
C 	C 	0.68900 0.81960 0.83345 -0.08800
H 	H 	0.61760 0.76490 0.74460 0.04000
C 	C 	0.65330 0.75066 0.80019 -0.09100
C 	C 	0.63680 0.92855 0.80341 -0.10300
H 	H 	0.76830 0.98270 0.80470 0.03300
C 	C 	0.69064 0.99751 0.80348 -0.11400
C 	C 	0.76340 0.65069 0.62987 0.06600
C 	C 	0.70910 0.64080 0.69640 0.41500
H 	H 	0.80370 0.66900 0.57780 0.08500
C 	C 	0.67990 0.77200 0.83354 0.02500
H 	H 	0.70630 0.83350 0.85650 0.07000
C 	C 	0.64490 0.69880 0.79894 0.32700
C 	C 	0.64150 0.97699 0.80362 0.04300
H 	H 	0.60320 0.91480 0.80450 0.08200
C 	C 	0.69560 0.05019 0.80106 0.35400
O 	O 	0.67830 0.61300 0.68250 -0.43800
H 	H 	0.69170 0.75350 0.85630 0.05000
H 	H 	0.61110 0.99610 0.80390 0.03900
Co	Co	0.74267 0.37025 0.21550 1.19100
O 	O 	0.75920 0.31005 0.19183 -0.44600
O 	O 	0.66721 0.37673 0.21014 -0.40200
O 	O 	0.78279 0.36422 0.26812 -0.47600
O 	O 	0.74219 0.56591 0.30369 -0.41700
C 	C 	0.77210 0.29901 0.15560 0.37100
C 	C 	0.63100 0.35450 0.22929 0.33200
C 	C 	0.77997 0.39281 0.29901 0.36400
O 	O 	0.78560 0.32626 0.12778 -0.25100
C 	C 	0.76970 0.24711 0.14623 -0.11800
O 	O 	0.58491 0.35454 0.21778 -0.21800
C 	C 	0.64710 0.32693 0.26702 -0.13700
O 	O 	0.81653 0.40004 0.32255 -0.36400
C 	C 	0.72990 0.42052 0.30285 -0.16600
O 	O 	0.65615 0.57427 0.29619 -0.34500
C 	C 	0.74600 0.21689 0.17447 0.06600
C 	C 	0.79100 0.22820 0.11080 0.05500
C 	C 	0.67320 0.34768 0.30032 0.02900
C 	C 	0.63640 0.27850 0.26714 0.04400
C 	C 	0.68060 0.39982 0.30169 0.04800
C 	C 	0.73467 0.46893 0.30379 0.06400
O 	O 	0.66935 0.17331 0.32363 -0.23000
O 	O 	0.70890 0.14900 0.23240 -0.38100
O 	O 	0.61110 0.18463 0.27272 -0.39300
H 	H 	0.73220 0.22900 0.19980 0.03300
C 	C 	0.74211 0.16890 0.16627 -0.15500
C 	C 	0.78830 0.18100 0.10250 -0.11300
H 	H 	0.80800 0.24820 0.09140 0.04300
C 	C 	0.68900 0.31960 0.33345 -0.08800
H 	H 	0.61760 0.26490 0.24460 0.04000
C 	C 	0.65330 0.25066 0.30019 -0.09100
C 	C 	0.63680 0.42855 0.30341 -0.10300
H 	H 	0.76830 0.48270 0.30470 0.03300
C 	C 	0.69064 0.49751 0.30348 -0.11400
C 	C 	0.76340 0.15069 0.12987 0.06600
C 	C 	0.70910 0.14080 0.19640 0.41500
H 	H 	0.80370 0.16900 0.07780 0.08500
C 	C 	0.67990 0.27200 0.33354 0.02500
H 	H 	0.70630 0.33350 0.35650 0.07000
C 	C 	0.64490 0.19880 0.29894 0.32700
C 	C 	0.64150 0.47699 0.30362 0.04300
H 	H 	0.60320 0.41480 0.30450 0.08200
C 	C 	0.69560 0.55019 0.30106 0.35400
O 	O 	0.67830 0.11300 0.18250 -0.43800
H 	H 	0.69170 0.25350 0.35630 0.05000
H 	H 	0.61110 0.49610 0.30390 0.03900
Co	Co	0.00733 0.37975 0.21550 1.19100
O 	O 	0.99080 0.43995 0.19183 -0.44600
O 	O 	0.08279 0.37327 0.21014 -0.40200
O 	O 	0.96721 0.38578 0.26812 -0.47600
O 	O 	0.00781 0.18409 0.30369 -0.41700
C 	C 	0.97790 0.45099 0.15560 0.37100
C 	C 	0.11900 0.39550 0.22929 0.33200
C 	C 	0.97003 0.35719 0.29901 0.36400
O 	O 	0.96440 0.42374 0.12778 -0.25100
C 	C 	0.98030 0.50289 0.14623 -0.11800
O 	O 	0.16509 0.39546 0.21778 -0.21800
C 	C 	0.10290 0.42307 0.26702 -0.13700
O 	O 	0.93347 0.34996 0.32255 -0.36400
C 	C 	0.02010 0.32948 0.30285 -0.16600
O 	O 	0.09385 0.17573 0.29619 -0.34500
C 	C 	0.00400 0.53311 0.17447 0.06500
C 	C 	0.95900 0.52180 0.11080 0.05500
C 	C 	0.07680 0.40232 0.30032 0.02900
C 	C 	0.11360 0.47150 0.26714 0.04400
C 	C 	0.06940 0.35018 0.30169 0.04800
C 	C 	0.01533 0.28107 0.30379 0.06400
O 	O 	0.08065 0.57669 0.32363 -0.23000
O 	O 	0.04110 0.60100 0.23240 -0.38100
O 	O 	0.13890 0.56537 0.27272 -0.39300
H 	H 	0.01780 0.52100 0.19980 0.03300
C 	C 	0.00789 0.58110 0.16627 -0.15600
C 	C 	0.96170 0.56900 0.10250 -0.11300
H 	H 	0.94200 0.50180 0.09140 0.04400
C 	C 	0.06100 0.43040 0.33345 -0.08800
H 	H 	0.13240 0.48510 0.24460 0.04000
C 	C 	0.09670 0.49934 0.30019 -0.09100
C 	C 	0.11320 0.32145 0.30341 -0.10300
H 	H 	0.98170 0.26730 0.30470 0.03300
C 	C 	0.05936 0.25249 0.30348 -0.11400
C 	C 	0.98660 0.59931 0.12987 0.06600
C 	C 	0.04090 0.60920 0.19640 0.41500
H 	H 	0.94630 0.58100 0.07780 0.08500
C 	C 	0.07010 0.47800 0.33354 0.02500
H 	H 	0.04370 0.41650 0.35650 0.07000
C 	C 	0.10510 0.55120 0.29894 0.32700
C 	C 	0.10850 0.27301 0.30362 0.04300
H 	H 	0.14680 0.33520 0.30450 0.08200
C 	C 	0.05440 0.19981 0.30106 0.35400
O 	O 	0.07170 0.63700 0.18250 -0.43900
H 	H 	0.05830 0.49650 0.35630 0.05000
H 	H 	0.13890 0.25390 0.30390 0.03900
Co	Co	0.00733 0.87975 0.71550 1.19100
O 	O 	0.99080 0.93995 0.69183 -0.44600
O 	O 	0.08279 0.87327 0.71014 -0.40200
O 	O 	0.96721 0.88578 0.76812 -0.47600
O 	O 	0.00781 0.68409 0.80369 -0.41700
C 	C 	0.97790 0.95099 0.65560 0.37200
C 	C 	0.11900 0.89550 0.72929 0.33200
C 	C 	0.97003 0.85719 0.79901 0.36400
O 	O 	0.96440 0.92374 0.62778 -0.25100
C 	C 	0.98030 0.00289 0.64623 -0.12100
O 	O 	0.16509 0.89546 0.71778 -0.21800
C 	C 	0.10290 0.92307 0.76702 -0.13700
O 	O 	0.93347 0.84996 0.82255 -0.36400
C 	C 	0.02010 0.82948 0.80285 -0.16600
O 	O 	0.09385 0.67573 0.79619 -0.34500
C 	C 	0.00400 0.03311 0.67447 0.06700
C 	C 	0.95900 0.02180 0.61080 0.05600
C 	C 	0.07680 0.90232 0.80032 0.02900
C 	C 	0.11360 0.97150 0.76714 0.04400
C 	C 	0.06940 0.85018 0.80169 0.04800
C 	C 	0.01533 0.78107 0.80379 0.06400
O 	O 	0.08065 0.07669 0.82363 -0.23000
O 	O 	0.04110 0.10100 0.73240 -0.38100
O 	O 	0.13890 0.06537 0.77272 -0.39300
H 	H 	0.01780 0.02100 0.69980 0.03200
C 	C 	0.00789 0.08110 0.66627 -0.15500
C 	C 	0.96170 0.06900 0.60250 -0.11400
H 	H 	0.94200 0.00180 0.59140 0.04300
C 	C 	0.06100 0.93040 0.83345 -0.08800
H 	H 	0.13240 0.98510 0.74460 0.04000
C 	C 	0.09670 0.99934 0.80019 -0.09200
C 	C 	0.11320 0.82145 0.80341 -0.10300
H 	H 	0.98170 0.76730 0.80470 0.03300
C 	C 	0.05936 0.75249 0.80348 -0.11400
C 	C 	0.98660 0.09931 0.62987 0.06500
C 	C 	0.04090 0.10920 0.69640 0.41500
H 	H 	0.94630 0.08100 0.57780 0.08500
C 	C 	0.07010 0.97800 0.83354 0.02600
H 	H 	0.04370 0.91650 0.85650 0.07000
C 	C 	0.10510 0.05120 0.79894 0.32700
C 	C 	0.10850 0.77301 0.80362 0.04300
H 	H 	0.14680 0.83520 0.80450 0.08200
C 	C 	0.05440 0.69981 0.80106 0.35400
O 	O 	0.07170 0.13700 0.68250 -0.43800
H 	H 	0.05830 0.99650 0.85630 0.04900
H 	H 	0.13890 0.75390 0.80390 0.03900
Co	Co	0.50733 0.37975 0.71550 1.19100
O 	O 	0.49080 0.43995 0.69183 -0.44600
O 	O 	0.58279 0.37327 0.71014 -0.40200
O 	O 	0.46721 0.38578 0.76812 -0.47600
O 	O 	0.50781 0.18409 0.80369 -0.41700
C 	C 	0.47790 0.45099 0.65560 0.37100
C 	C 	0.61900 0.39550 0.72929 0.33200
C 	C 	0.47003 0.35719 0.79901 0.36400
O 	O 	0.46440 0.42374 0.62778 -0.25100
C 	C 	0.48030 0.50289 0.64623 -0.11900
O 	O 	0.66509 0.39546 0.71778 -0.21800
C 	C 	0.60290 0.42307 0.76702 -0.13700
O 	O 	0.43347 0.34996 0.82255 -0.36400
C 	C 	0.52010 0.32948 0.80285 -0.16600
O 	O 	0.59385 0.17573 0.79619 -0.34500
C 	C 	0.50400 0.53311 0.67447 0.06600
C 	C 	0.45900 0.52180 0.61080 0.05500
C 	C 	0.57680 0.40232 0.80032 0.02900
C 	C 	0.61360 0.47150 0.76714 0.04400
C 	C 	0.56940 0.35018 0.80169 0.04800
C 	C 	0.51533 0.28107 0.80379 0.06400
O 	O 	0.58065 0.57669 0.82363 -0.23000
O 	O 	0.54110 0.60100 0.73240 -0.38100
O 	O 	0.63890 0.56537 0.77272 -0.39300
H 	H 	0.51780 0.52100 0.69980 0.03300
C 	C 	0.50789 0.58110 0.66627 -0.15500
C 	C 	0.46170 0.56900 0.60250 -0.11300
H 	H 	0.44200 0.50180 0.59140 0.04300
C 	C 	0.56100 0.43040 0.83345 -0.08800
H 	H 	0.63240 0.48510 0.74460 0.04000
C 	C 	0.59670 0.49934 0.80019 -0.09100
C 	C 	0.61320 0.32145 0.80341 -0.10300
H 	H 	0.48170 0.26730 0.80470 0.03300
C 	C 	0.55936 0.25249 0.80348 -0.11400
C 	C 	0.48660 0.59931 0.62987 0.06600
C 	C 	0.54090 0.60920 0.69640 0.41500
H 	H 	0.44630 0.58100 0.57780 0.08500
C 	C 	0.57010 0.47800 0.83354 0.02500
H 	H 	0.54370 0.41650 0.85650 0.07000
C 	C 	0.60510 0.55120 0.79894 0.32700
C 	C 	0.60850 0.27301 0.80362 0.04300
H 	H 	0.64680 0.33520 0.80450 0.08200
C 	C 	0.55440 0.19981 0.80106 0.35400
O 	O 	0.57170 0.63700 0.68250 -0.43800
H 	H 	0.55830 0.49650 0.85630 0.05000
H 	H 	0.63890 0.25390 0.80390 0.03900
Co	Co	0.50733 0.87975 0.21550 1.19100
O 	O 	0.49080 0.93995 0.19183 -0.44600
O 	O 	0.58279 0.87327 0.21014 -0.40200
O 	O 	0.46721 0.88578 0.26812 -0.47600
O 	O 	0.50781 0.68409 0.30369 -0.41700
C 	C 	0.47790 0.95099 0.15560 0.37100
C 	C 	0.61900 0.89550 0.22929 0.33200
C 	C 	0.47003 0.85719 0.29901 0.36400
O 	O 	0.46440 0.92374 0.12778 -0.25100
C 	C 	0.48030 0.00289 0.14623 -0.11900
O 	O 	0.66509 0.89546 0.21778 -0.21800
C 	C 	0.60290 0.92307 0.26702 -0.13700
O 	O 	0.43347 0.84996 0.32255 -0.36400
C 	C 	0.52010 0.82948 0.30285 -0.16600
O 	O 	0.59385 0.67573 0.29619 -0.34500
C 	C 	0.50400 0.03311 0.17447 0.06600
C 	C 	0.45900 0.02180 0.11080 0.05500
C 	C 	0.57680 0.90232 0.30032 0.02900
C 	C 	0.61360 0.97150 0.26714 0.04400
C 	C 	0.56940 0.85018 0.30169 0.04800
C 	C 	0.51533 0.78107 0.30379 0.06400
O 	O 	0.58065 0.07669 0.32363 -0.23000
O 	O 	0.54110 0.10100 0.23240 -0.38100
O 	O 	0.63890 0.06537 0.27272 -0.39300
H 	H 	0.51780 0.02100 0.19980 0.03300
C 	C 	0.50789 0.08110 0.16627 -0.15500
C 	C 	0.46170 0.06900 0.10250 -0.11300
H 	H 	0.44200 0.00180 0.09140 0.04300
C 	C 	0.56100 0.93040 0.33345 -0.08800
H 	H 	0.63240 0.98510 0.24460 0.04000
C 	C 	0.59670 0.99934 0.30019 -0.09000
C 	C 	0.61320 0.82145 0.30341 -0.10300
H 	H 	0.48170 0.76730 0.30470 0.03300
C 	C 	0.55936 0.75249 0.30348 -0.11400
C 	C 	0.48660 0.09931 0.12987 0.06600
C 	C 	0.54090 0.10920 0.19640 0.41500
H 	H 	0.44630 0.08100 0.07780 0.08500
C 	C 	0.57010 0.97800 0.33354 0.02500
H 	H 	0.54370 0.91650 0.35650 0.07000
C 	C 	0.60510 0.05120 0.29894 0.32700
C 	C 	0.60850 0.77301 0.30362 0.04300
H 	H 	0.64680 0.83520 0.30450 0.08200
C 	C 	0.55440 0.69981 0.30106 0.35400
O 	O 	0.57170 0.13700 0.18250 -0.43800
H 	H 	0.55830 0.99650 0.35630 0.05000
H 	H 	0.63890 0.75390 0.30390 0.03900
Co	Co	0.00733 0.87025 0.03450 1.19000
O 	O 	0.99080 0.81005 0.05817 -0.44500
O 	O 	0.08279 0.87673 0.03986 -0.40300
O 	O 	0.96721 0.86422 0.98188 -0.47600
O 	O 	0.00781 0.06591 0.94631 -0.41600
C 	C 	0.97790 0.79901 0.09440 0.37000
C 	C 	0.11900 0.85450 0.02071 0.33100
C 	C 	0.97003 0.89281 0.95099 0.36400
O 	O 	0.96440 0.82626 0.12222 -0.25100
C 	C 	0.98030 0.74711 0.10377 -0.11700
O 	O 	0.16509 0.85454 0.03222 -0.21800
C 	C 	0.10290 0.82693 0.98298 -0.13600
O 	O 	0.93347 0.90004 0.92745 -0.36400
C 	C 	0.02010 0.92052 0.94715 -0.16600
O 	O 	0.09385 0.07427 0.95381 -0.34400
C 	C 	0.00400 0.71689 0.07553 0.06400
C 	C 	0.95900 0.72820 0.13920 0.05400
C 	C 	0.07680 0.84768 0.94968 0.02900
C 	C 	0.11360 0.77850 0.98286 0.04500
C 	C 	0.06940 0.89982 0.94831 0.04800
C 	C 	0.01533 0.96893 0.94621 0.06500
O 	O 	0.08065 0.67331 0.92637 -0.22900
O 	O 	0.04110 0.64900 0.01760 -0.38100
O 	O 	0.13890 0.68463 0.97728 -0.39200
H 	H 	0.01780 0.72900 0.05020 0.03300
C 	C 	0.00789 0.66890 0.08373 -0.15600
C 	C 	0.96170 0.68100 0.14750 -0.11300
H 	H 	0.94200 0.74820 0.15860 0.04400
C 	C 	0.06100 0.81960 0.91655 -0.08800
H 	H 	0.13240 0.76490 0.00540 0.03900
C 	C 	0.09670 0.75066 0.94981 -0.09100
C 	C 	0.11320 0.92855 0.94659 -0.10400
H 	H 	0.98170 0.98270 0.94530 0.03200
C 	C 	0.05936 0.99751 0.94652 -0.11500
C 	C 	0.98660 0.65069 0.12013 0.06600
C 	C 	0.04090 0.64080 0.05360 0.41500
H 	H 	0.94630 0.66900 0.17220 0.08500
C 	C 	0.07010 0.77200 0.91646 0.02600
H 	H 	0.04370 0.83350 0.89350 0.07000
C 	C 	0.10510 0.69880 0.95106 0.32700
C 	C 	0.10850 0.97699 0.94638 0.04300
H 	H 	0.14680 0.91480 0.94550 0.08200
C 	C 	0.05440 0.05019 0.94894 0.35500
O 	O 	0.07170 0.61300 0.06750 -0.43900
H 	H 	0.05830 0.75350 0.89370 0.05000
H 	H 	0.13890 0.99610 0.94610 0.03900
Co	Co	0.00733 0.37025 0.53450 1.19100
O 	O 	0.99080 0.31005 0.55817 -0.44600
O 	O 	0.08279 0.37673 0.53986 -0.40200
O 	O 	0.96721 0.36422 0.48188 -0.47600
O 	O 	0.00781 0.56591 0.44631 -0.41700
C 	C 	0.97790 0.29901 0.59440 0.37100
C 	C 	0.11900 0.35450 0.52071 0.33200
C 	C 	0.97003 0.39281 0.45099 0.36400
O 	O 	0.96440 0.32626 0.62222 -0.25100
C 	C 	0.98030 0.24711 0.60377 -0.11900
O 	O 	0.16509 0.35454 0.53222 -0.21800
C 	C 	0.10290 0.32693 0.48298 -0.13700
O 	O 	0.93347 0.40004 0.42745 -0.36400
C 	C 	0.02010 0.42052 0.44715 -0.16600
O 	O 	0.09385 0.57427 0.45381 -0.34500
C 	C 	0.00400 0.21689 0.57553 0.06600
C 	C 	0.95900 0.22820 0.63920 0.05500
C 	C 	0.07680 0.34768 0.44968 0.02900
C 	C 	0.11360 0.27850 0.48286 0.04400
C 	C 	0.06940 0.39982 0.44831 0.04800
C 	C 	0.01533 0.46893 0.44621 0.06400
O 	O 	0.08065 0.17331 0.42637 -0.23000
O 	O 	0.04110 0.14900 0.51760 -0.38100
O 	O 	0.13890 0.18463 0.47728 -0.39300
H 	H 	0.01780 0.22900 0.55020 0.03300
C 	C 	0.00789 0.16890 0.58373 -0.15400
C 	C 	0.96170 0.18100 0.64750 -0.11300
H 	H 	0.94200 0.24820 0.65860 0.04300
C 	C 	0.06100 0.31960 0.41655 -0.08800
H 	H 	0.13240 0.26490 0.50540 0.04000
C 	C 	0.09670 0.25066 0.44981 -0.09100
C 	C 	0.11320 0.42855 0.44659 -0.10300
H 	H 	0.98170 0.48270 0.44530 0.03300
C 	C 	0.05936 0.49751 0.44652 -0.11400
C 	C 	0.98660 0.15069 0.62013 0.06500
C 	C 	0.04090 0.14080 0.55360 0.41500
H 	H 	0.94630 0.16900 0.67220 0.08500
C 	C 	0.07010 0.27200 0.41646 0.02500
H 	H 	0.04370 0.33350 0.39350 0.07000
C 	C 	0.10510 0.19880 0.45106 0.32700
C 	C 	0.10850 0.47699 0.44638 0.04300
H 	H 	0.14680 0.41480 0.44550 0.08200
C 	C 	0.05440 0.55019 0.44894 0.35400
O 	O 	0.07170 0.11300 0.56750 -0.43800
H 	H 	0.05830 0.25350 0.39370 0.05000
H 	H 	0.13890 0.49610 0.44610 0.03900
Co	Co	0.50733 0.87025 0.53450 1.19100
O 	O 	0.49080 0.81005 0.55817 -0.44600
O 	O 	0.58279 0.87673 0.53986 -0.40200
O 	O 	0.46721 0.86422 0.48188 -0.47600
O 	O 	0.50781 0.06591 0.44631 -0.41700
C 	C 	0.47790 0.79901 0.59440 0.37100
C 	C 	0.61900 0.85450 0.52071 0.33200
C 	C 	0.47003 0.89281 0.45099 0.36400
O 	O 	0.46440 0.82626 0.62222 -0.25100
C 	C 	0.48030 0.74711 0.60377 -0.11900
O 	O 	0.66509 0.85454 0.53222 -0.21800
C 	C 	0.60290 0.82693 0.48298 -0.13700
O 	O 	0.43347 0.90004 0.42745 -0.36400
C 	C 	0.52010 0.92052 0.44715 -0.16600
O 	O 	0.59385 0.07427 0.45381 -0.34500
C 	C 	0.50400 0.71689 0.57553 0.06600
C 	C 	0.45900 0.72820 0.63920 0.05500
C 	C 	0.57680 0.84768 0.44968 0.02900
C 	C 	0.61360 0.77850 0.48286 0.04400
C 	C 	0.56940 0.89982 0.44831 0.04800
C 	C 	0.51533 0.96893 0.44621 0.06400
O 	O 	0.58065 0.67331 0.42637 -0.23000
O 	O 	0.54110 0.64900 0.51760 -0.38100
O 	O 	0.63890 0.68463 0.47728 -0.39300
H 	H 	0.51780 0.72900 0.55020 0.03300
C 	C 	0.50789 0.66890 0.58373 -0.15500
C 	C 	0.46170 0.68100 0.64750 -0.11300
H 	H 	0.44200 0.74820 0.65860 0.04300
C 	C 	0.56100 0.81960 0.41655 -0.08800
H 	H 	0.63240 0.76490 0.50540 0.04000
C 	C 	0.59670 0.75066 0.44981 -0.09100
C 	C 	0.61320 0.92855 0.44659 -0.10300
H 	H 	0.48170 0.98270 0.44530 0.03300
C 	C 	0.55936 0.99751 0.44652 -0.11400
C 	C 	0.48660 0.65069 0.62013 0.06600
C 	C 	0.54090 0.64080 0.55360 0.41500
H 	H 	0.44630 0.66900 0.67220 0.08500
C 	C 	0.57010 0.77200 0.41646 0.02500
H 	H 	0.54370 0.83350 0.39350 0.07000
C 	C 	0.60510 0.69880 0.45106 0.32700
C 	C 	0.60850 0.97699 0.44638 0.04300
H 	H 	0.64680 0.91480 0.44550 0.08200
C 	C 	0.55440 0.05019 0.44894 0.35400
O 	O 	0.57170 0.61300 0.56750 -0.43800
H 	H 	0.55830 0.75350 0.39370 0.05000
H 	H 	0.63890 0.99610 0.44610 0.03900
Co	Co	0.50733 0.37025 0.03450 1.19100
O 	O 	0.49080 0.31005 0.05817 -0.44600
O 	O 	0.58279 0.37673 0.03986 -0.40200
O 	O 	0.46721 0.36422 0.98188 -0.47600
O 	O 	0.50781 0.56591 0.94631 -0.41700
C 	C 	0.47790 0.29901 0.09440 0.37100
C 	C 	0.61900 0.35450 0.02071 0.33200
C 	C 	0.47003 0.39281 0.95099 0.36400
O 	O 	0.46440 0.32626 0.12222 -0.25100
C 	C 	0.48030 0.24711 0.10377 -0.11800
O 	O 	0.66509 0.35454 0.03222 -0.21800
C 	C 	0.60290 0.32693 0.98298 -0.13700
O 	O 	0.43347 0.40004 0.92745 -0.36400
C 	C 	0.52010 0.42052 0.94715 -0.16600
O 	O 	0.59385 0.57427 0.95381 -0.34500
C 	C 	0.50400 0.21689 0.07553 0.06500
C 	C 	0.45900 0.22820 0.13920 0.05500
C 	C 	0.57680 0.34768 0.94968 0.02900
C 	C 	0.61360 0.27850 0.98286 0.04300
C 	C 	0.56940 0.39982 0.94831 0.04800
C 	C 	0.51533 0.46893 0.94621 0.06400
O 	O 	0.58065 0.17331 0.92637 -0.23000
O 	O 	0.54110 0.14900 0.01760 -0.38100
O 	O 	0.63890 0.18463 0.97728 -0.39300
H 	H 	0.51780 0.22900 0.05020 0.03300
C 	C 	0.50789 0.16890 0.08373 -0.15500
C 	C 	0.46170 0.18100 0.14750 -0.11300
H 	H 	0.44200 0.24820 0.15860 0.04300
C 	C 	0.56100 0.31960 0.91655 -0.08800
H 	H 	0.63240 0.26490 0.00540 0.04000
C 	C 	0.59670 0.25066 0.94981 -0.09000
C 	C 	0.61320 0.42855 0.94659 -0.10300
H 	H 	0.48170 0.48270 0.94530 0.03300
C 	C 	0.55936 0.49751 0.94652 -0.11400
C 	C 	0.48660 0.15069 0.12013 0.06600
C 	C 	0.54090 0.14080 0.05360 0.41500
H 	H 	0.44630 0.16900 0.17220 0.08500
C 	C 	0.57010 0.27200 0.91646 0.02500
H 	H 	0.54370 0.33350 0.89350 0.07000
C 	C 	0.60510 0.19880 0.95106 0.32700
C 	C 	0.60850 0.47699 0.94638 0.04300
H 	H 	0.64680 0.41480 0.94550 0.08200
C 	C 	0.55440 0.55019 0.94894 0.35400
O 	O 	0.57170 0.11300 0.06750 -0.43800
H 	H 	0.55830 0.25350 0.89370 0.05000
H 	H 	0.63890 0.49610 0.94610 0.03900
Co	Co	0.24267 0.37975 0.03450 1.19100
O 	O 	0.25920 0.43995 0.05817 -0.44600
O 	O 	0.16721 0.37327 0.03986 -0.40200
O 	O 	0.28279 0.38578 0.98188 -0.47600
O 	O 	0.24219 0.18409 0.94631 -0.41700
C 	C 	0.27210 0.45099 0.09440 0.37100
C 	C 	0.13100 0.39550 0.02071 0.33100
C 	C 	0.27997 0.35719 0.95099 0.36400
O 	O 	0.28560 0.42374 0.12222 -0.25100
C 	C 	0.26970 0.50289 0.10377 -0.11900
O 	O 	0.08491 0.39546 0.03222 -0.21800
C 	C 	0.14710 0.42307 0.98298 -0.13600
O 	O 	0.31653 0.34996 0.92745 -0.36400
C 	C 	0.22990 0.32948 0.94715 -0.16600
O 	O 	0.15615 0.17573 0.95381 -0.34400
C 	C 	0.24600 0.53311 0.07553 0.06600
C 	C 	0.29100 0.52180 0.13920 0.05500
C 	C 	0.17320 0.40232 0.94968 0.02900
C 	C 	0.13640 0.47150 0.98286 0.04500
C 	C 	0.18060 0.35018 0.94831 0.04800
C 	C 	0.23467 0.28107 0.94621 0.06400
O 	O 	0.16935 0.57669 0.92637 -0.23000
O 	O 	0.20890 0.60100 0.01760 -0.38100
O 	O 	0.11110 0.56537 0.97728 -0.39200
H 	H 	0.23220 0.52100 0.05020 0.03300
C 	C 	0.24211 0.58110 0.08373 -0.15500
C 	C 	0.28830 0.56900 0.14750 -0.11300
H 	H 	0.30800 0.50180 0.15860 0.04300
C 	C 	0.18900 0.43040 0.91655 -0.08800
H 	H 	0.11760 0.48510 0.00540 0.03900
C 	C 	0.15330 0.49934 0.94981 -0.09100
C 	C 	0.13680 0.32145 0.94659 -0.10300
H 	H 	0.26830 0.26730 0.94530 0.03300
C 	C 	0.19064 0.25249 0.94652 -0.11400
C 	C 	0.26340 0.59931 0.12013 0.06600
C 	C 	0.20910 0.60920 0.05360 0.41500
H 	H 	0.30370 0.58100 0.17220 0.08500
C 	C 	0.17990 0.47800 0.91646 0.02600
H 	H 	0.20630 0.41650 0.89350 0.07000
C 	C 	0.14490 0.55120 0.95106 0.32700
C 	C 	0.14150 0.27301 0.94638 0.04300
H 	H 	0.10320 0.33520 0.94550 0.08200
C 	C 	0.19560 0.19981 0.94894 0.35400
O 	O 	0.17830 0.63700 0.06750 -0.43900
H 	H 	0.19170 0.49650 0.89370 0.05000
H 	H 	0.11110 0.25390 0.94610 0.03900
Co	Co	0.24267 0.87975 0.53450 1.19100
O 	O 	0.25920 0.93995 0.55817 -0.44600
O 	O 	0.16721 0.87327 0.53986 -0.40200
O 	O 	0.28279 0.88578 0.48188 -0.47600
O 	O 	0.24219 0.68409 0.44631 -0.41700
C 	C 	0.27210 0.95099 0.59440 0.37000
C 	C 	0.13100 0.89550 0.52071 0.33200
C 	C 	0.27997 0.85719 0.45099 0.36400
O 	O 	0.28560 0.92374 0.62222 -0.25100
C 	C 	0.26970 0.00289 0.60377 -0.11800
O 	O 	0.08491 0.89546 0.53222 -0.21800
C 	C 	0.14710 0.92307 0.48298 -0.13700
O 	O 	0.31653 0.84996 0.42745 -0.36400
C 	C 	0.22990 0.82948 0.44715 -0.16600
O 	O 	0.15615 0.67573 0.45381 -0.34500
C 	C 	0.24600 0.03311 0.57553 0.06500
C 	C 	0.29100 0.02180 0.63920 0.05400
C 	C 	0.17320 0.90232 0.44968 0.02900
C 	C 	0.13640 0.97150 0.48286 0.04400
C 	C 	0.18060 0.85018 0.44831 0.04800
C 	C 	0.23467 0.78107 0.44621 0.06400
O 	O 	0.16935 0.07669 0.42637 -0.23000
O 	O 	0.20890 0.10100 0.51760 -0.38100
O 	O 	0.11110 0.06537 0.47728 -0.39300
H 	H 	0.23220 0.02100 0.55020 0.03300
C 	C 	0.24211 0.08110 0.58373 -0.15500
C 	C 	0.28830 0.06900 0.64750 -0.11300
H 	H 	0.30800 0.00180 0.65860 0.04400
C 	C 	0.18900 0.93040 0.41655 -0.08800
H 	H 	0.11760 0.98510 0.50540 0.04000
C 	C 	0.15330 0.99934 0.44981 -0.09100
C 	C 	0.13680 0.82145 0.44659 -0.10300
H 	H 	0.26830 0.76730 0.44530 0.03300
C 	C 	0.19064 0.75249 0.44652 -0.11400
C 	C 	0.26340 0.09931 0.62013 0.06600
C 	C 	0.20910 0.10920 0.55360 0.41500
H 	H 	0.30370 0.08100 0.67220 0.08500
C 	C 	0.17990 0.97800 0.41646 0.02600
H 	H 	0.20630 0.91650 0.39350 0.07000
C 	C 	0.14490 0.05120 0.45106 0.32700
C 	C 	0.14150 0.77301 0.44638 0.04300
H 	H 	0.10320 0.83520 0.44550 0.08200
C 	C 	0.19560 0.69981 0.44894 0.35400
O 	O 	0.17830 0.13700 0.56750 -0.43800
H 	H 	0.19170 0.99650 0.39370 0.04900
H 	H 	0.11110 0.75390 0.44610 0.03900
Co	Co	0.74267 0.37975 0.53450 1.19100
O 	O 	0.75920 0.43995 0.55817 -0.44600
O 	O 	0.66721 0.37327 0.53986 -0.40200
O 	O 	0.78279 0.38578 0.48188 -0.47600
O 	O 	0.74219 0.18409 0.44631 -0.41700
C 	C 	0.77210 0.45099 0.59440 0.37100
C 	C 	0.63100 0.39550 0.52071 0.33200
C 	C 	0.77997 0.35719 0.45099 0.36400
O 	O 	0.78560 0.42374 0.62222 -0.25100
C 	C 	0.76970 0.50289 0.60377 -0.11900
O 	O 	0.58491 0.39546 0.53222 -0.21800
C 	C 	0.64710 0.42307 0.48298 -0.13700
O 	O 	0.81653 0.34996 0.42745 -0.36400
C 	C 	0.72990 0.32948 0.44715 -0.16600
O 	O 	0.65615 0.17573 0.45381 -0.34500
C 	C 	0.74600 0.53311 0.57553 0.06600
C 	C 	0.79100 0.52180 0.63920 0.05500
C 	C 	0.67320 0.40232 0.44968 0.02900
C 	C 	0.63640 0.47150 0.48286 0.04400
C 	C 	0.68060 0.35018 0.44831 0.04800
C 	C 	0.73467 0.28107 0.44621 0.06400
O 	O 	0.66935 0.57669 0.42637 -0.23000
O 	O 	0.70890 0.60100 0.51760 -0.38100
O 	O 	0.61110 0.56537 0.47728 -0.39300
H 	H 	0.73220 0.52100 0.55020 0.03300
C 	C 	0.74211 0.58110 0.58373 -0.15500
C 	C 	0.78830 0.56900 0.64750 -0.11300
H 	H 	0.80800 0.50180 0.65860 0.04300
C 	C 	0.68900 0.43040 0.41655 -0.08800
H 	H 	0.61760 0.48510 0.50540 0.04000
C 	C 	0.65330 0.49934 0.44981 -0.09100
C 	C 	0.63680 0.32145 0.44659 -0.10300
H 	H 	0.76830 0.26730 0.44530 0.03300
C 	C 	0.69064 0.25249 0.44652 -0.11400
C 	C 	0.76340 0.59931 0.62013 0.06600
C 	C 	0.70910 0.60920 0.55360 0.41500
H 	H 	0.80370 0.58100 0.67220 0.08500
C 	C 	0.67990 0.47800 0.41646 0.02500
H 	H 	0.70630 0.41650 0.39350 0.07000
C 	C 	0.64490 0.55120 0.45106 0.32700
C 	C 	0.64150 0.27301 0.44638 0.04300
H 	H 	0.60320 0.33520 0.44550 0.08200
C 	C 	0.69560 0.19981 0.44894 0.35400
O 	O 	0.67830 0.63700 0.56750 -0.43800
H 	H 	0.69170 0.49650 0.39370 0.05000
H 	H 	0.61110 0.25390 0.44610 0.03900
Co	Co	0.74267 0.87975 0.03450 1.19100
O 	O 	0.75920 0.93995 0.05817 -0.44600
O 	O 	0.66721 0.87327 0.03986 -0.40200
O 	O 	0.78279 0.88578 0.98188 -0.47600
O 	O 	0.74219 0.68409 0.94631 -0.41700
C 	C 	0.77210 0.95099 0.09440 0.37100
C 	C 	0.63100 0.89550 0.02071 0.33200
C 	C 	0.77997 0.85719 0.95099 0.36400
O 	O 	0.78560 0.92374 0.12222 -0.25100
C 	C 	0.76970 0.00289 0.10377 -0.11900
O 	O 	0.58491 0.89546 0.03222 -0.21800
C 	C 	0.64710 0.92307 0.98298 -0.13700
O 	O 	0.81653 0.84996 0.92745 -0.36400
C 	C 	0.72990 0.82948 0.94715 -0.16600
O 	O 	0.65615 0.67573 0.95381 -0.34500
C 	C 	0.74600 0.03311 0.07553 0.06600
C 	C 	0.79100 0.02180 0.13920 0.05500
C 	C 	0.67320 0.90232 0.94968 0.02900
C 	C 	0.63640 0.97150 0.98286 0.04300
C 	C 	0.68060 0.85018 0.94831 0.04800
C 	C 	0.73467 0.78107 0.94621 0.06400
O 	O 	0.66935 0.07669 0.92637 -0.23000
O 	O 	0.70890 0.10100 0.01760 -0.38100
O 	O 	0.61110 0.06537 0.97728 -0.39300
H 	H 	0.73220 0.02100 0.05020 0.03300
C 	C 	0.74211 0.08110 0.08373 -0.15500
C 	C 	0.78830 0.06900 0.14750 -0.11300
H 	H 	0.80800 0.00180 0.15860 0.04300
C 	C 	0.68900 0.93040 0.91655 -0.08800
H 	H 	0.61760 0.98510 0.00540 0.04000
C 	C 	0.65330 0.99934 0.94981 -0.09000
C 	C 	0.63680 0.82145 0.94659 -0.10300
H 	H 	0.76830 0.76730 0.94530 0.03300
C 	C 	0.69064 0.75249 0.94652 -0.11400
C 	C 	0.76340 0.09931 0.12013 0.06600
C 	C 	0.70910 0.10920 0.05360 0.41500
H 	H 	0.80370 0.08100 0.17220 0.08500
C 	C 	0.67990 0.97800 0.91646 0.02500
H 	H 	0.70630 0.91650 0.89350 0.07000
C 	C 	0.64490 0.05120 0.95106 0.32600
C 	C 	0.64150 0.77301 0.94638 0.04300
H 	H 	0.60320 0.83520 0.94550 0.08200
C 	C 	0.69560 0.69981 0.94894 0.35400
O 	O 	0.67830 0.13700 0.06750 -0.43800
H 	H 	0.69170 0.99650 0.89370 0.05000
H 	H 	0.61110 0.75390 0.94610 0.03900
Co	Co	0.87500 0.37500 0.75691 1.18000
Co	Co	0.87500 0.87500 0.25691 1.18000
Co	Co	0.37500 0.37500 0.25691 1.18000
Co	Co	0.37500 0.87500 0.75691 1.18000
Co	Co	0.87500 0.37500 0.99309 1.17900
Co	Co	0.87500 0.87500 0.49309 1.18000
Co	Co	0.37500 0.37500 0.49309 1.18000
Co	Co	0.37500 0.87500 0.99309 1.18000
Co	Co	0.12500 0.62500 0.24309 1.18000
Co	Co	0.12500 0.12500 0.74309 1.18000
Co	Co	0.62500 0.62500 0.74309 1.18000
Co	Co	0.62500 0.12500 0.24309 1.18000
Co	Co	0.12500 0.62500 0.00691 1.17900
Co	Co	0.12500 0.12500 0.50691 1.18000
Co	Co	0.62500 0.62500 0.50691 1.18000
Co	Co	0.62500 0.12500 0.00691 1.18000
Na	Na	0.62500 0.12500 0.74466 0.58900
Na	Na	0.62500 0.62500 0.24466 0.58900
Na	Na	0.12500 0.62500 0.74466 0.58900
Na	Na	0.12500 0.12500 0.24466 0.58900
Na	Na	0.12500 0.12500 0.00534 0.58900
Na	Na	0.12500 0.62500 0.50534 0.58900
Na	Na	0.62500 0.62500 0.00534 0.58900
Na	Na	0.62500 0.12500 0.50534 0.58900
Na	Na	0.37500 0.87500 0.25534 0.58900
Na	Na	0.37500 0.37500 0.75534 0.58900
Na	Na	0.87500 0.37500 0.25534 0.58900
Na	Na	0.87500 0.87500 0.75534 0.58900
Na	Na	0.87500 0.87500 0.99466 0.58900
Na	Na	0.87500 0.37500 0.49466 0.58900
Na	Na	0.37500 0.37500 0.99466 0.58900
Na	Na	0.37500 0.87500 0.49466 0.58900
Na	Na	0.62500 0.12500 0.62500 0.59000
Na	Na	0.12500 0.62500 0.62500 0.59000
Na	Na	0.12500 0.12500 0.12500 0.59000
Na	Na	0.62500 0.62500 0.12500 0.59000
Na	Na	0.37500 0.87500 0.37500 0.59000
Na	Na	0.87500 0.37500 0.37500 0.59000
Na	Na	0.87500 0.87500 0.87500 0.59000
Na	Na	0.37500 0.37500 0.87500 0.59000
Na	Na	0.87500 0.37500 0.87500 0.58800
Na	Na	0.87500 0.87500 0.37500 0.58800
Na	Na	0.37500 0.37500 0.37500 0.58800
Na	Na	0.37500 0.87500 0.87500 0.58800
Na	Na	0.12500 0.62500 0.12500 0.58800
Na	Na	0.12500 0.12500 0.62500 0.58800
Na	Na	0.62500 0.62500 0.62500 0.58800
Na	Na	0.62500 0.12500 0.12500 0.58800
