data_crystal

_cell_length_a 20.69580
_cell_length_b 27.24410
_cell_length_c 31.24250
_cell_angle_alpha 90.00000
_cell_angle_beta  90.00000
_cell_angle_gamma 90.00000

_symmetry_space_group_name_	'P 1'
_symmetry_space_group_name_H-M	'P 1'

loop_
_symmetry_equiv_pos_as_xyz
  x,y,z

loop_
_atom_site_label
_atom_site_type_symbol
_atom_site_fract_x
_atom_site_fract_y
_atom_site_fract_z
_atom_site_charge
N 	N 	0.07090 0.05267 0.25280 -0.23000
C 	C 	0.11840 0.04800 0.28184 0.05800
C 	C 	0.07320 0.09090 0.22650 0.05300
H 	H 	0.11770 0.02140 0.30050 -0.01500
C 	C 	0.16800 0.08150 0.28490 -0.09400
C 	C 	0.12320 0.12320 0.22790 -0.09500
H 	H 	0.04020 0.09570 0.20670 0.00800
H 	H 	0.19980 0.07770 0.30560 0.07400
C 	C 	0.17030 0.11950 0.25790 0.00100
H 	H 	0.12520 0.14840 0.20790 0.07000
C 	C 	0.22340 0.15710 0.25800 0.26900
O 	O 	0.22310 0.19177 0.23649 -0.25900
O 	O 	0.26830 0.14497 0.28714 -0.21400
C 	C 	0.31840 0.18060 0.29430 -0.14800
H 	H 	0.34060 0.17330 0.32090 0.08500
H 	H 	0.29940 0.21300 0.29670 0.10100
C 	C 	0.36640 0.18010 0.25760 0.27200
C 	C 	0.39270 0.22320 0.24350 -0.31800
C 	C 	0.38870 0.13860 0.24020 -0.34000
C 	C 	0.43720 0.22480 0.21240 0.23700
H 	H 	0.37930 0.25250 0.25600 0.15500
H 	H 	0.37190 0.10890 0.24980 0.17100
C 	C 	0.43340 0.13770 0.21040 0.25000
C 	C 	0.46340 0.27380 0.19690 -0.12500
C 	C 	0.45890 0.18180 0.19390 -0.28400
C 	C 	0.45240 0.08670 0.18980 -0.14400
O 	O 	0.42090 0.29068 0.16215 -0.22200
H 	H 	0.46360 0.29750 0.22010 0.08100
H 	H 	0.50730 0.27000 0.18640 0.07600
H 	H 	0.48880 0.18190 0.17180 0.14700
O 	O 	0.50410 0.09650 0.15640 -0.22400
H 	H 	0.46880 0.06460 0.21160 0.10100
H 	H 	0.41490 0.07160 0.17650 0.08500
C 	C 	0.42910 0.33470 0.14660 0.27300
C 	C 	0.54780 0.06310 0.15640 0.22900
O 	O 	0.46790 0.36169 0.16054 -0.26800
C 	C 	0.38390 0.34520 0.11250 0.01300
O 	O 	0.57460 0.04780 0.18940 -0.23900
C 	C 	0.58200 0.07730 0.11440 0.04600
C 	C 	0.40210 0.37600 0.08710 -0.16200
C 	C 	0.32390 0.32090 0.11410 -0.10100
C 	C 	0.59930 0.12500 0.09950 0.02900
C 	C 	0.59300 0.04290 0.08040 -0.04200
C 	C 	0.36550 0.38940 0.05520 0.08300
H 	H 	0.44270 0.39010 0.09040 0.08700
H 	H 	0.31210 0.29860 0.13530 0.08200
C 	C 	0.28450 0.33440 0.07990 0.04300
C 	C 	0.64820 0.12870 0.06740 0.06700
H 	H 	0.57940 0.15300 0.11040 0.01600
H 	H 	0.56690 0.01520 0.07930 0.03700
C 	C 	0.64150 0.04840 0.04800 0.00300
N 	N 	0.30100 0.37020 0.04622 -0.22100
H 	H 	0.38180 0.41310 0.03670 -0.02200
H 	H 	0.24420 0.31950 0.07810 -0.00400
N 	N 	0.67190 0.09550 0.04580 -0.23200
H 	H 	0.66410 0.16000 0.06220 -0.02900
H 	H 	0.65260 0.02290 0.02960 0.00000
C 	C 	0.31990 0.40160 0.07060 -0.02200
H 	H 	0.30480 0.43340 0.06610 0.00200
C 	C 	0.36160 0.39450 0.10410 0.02400
H 	H 	0.37520 0.42070 0.12100 0.02100
C 	C 	0.36520 0.31160 0.08100 -0.00800
H 	H 	0.37870 0.27920 0.08380 0.03700
C 	C 	0.32910 0.32370 0.04700 -0.03000
H 	H 	0.32280 0.30170 0.02470 0.01000
C 	C 	0.60750 0.11750 0.05450 -0.02400
H 	H 	0.59070 0.13970 0.03480 0.01500
C 	C 	0.57150 0.10640 0.09030 -0.13900
H 	H 	0.53460 0.12520 0.09490 0.08000
C 	C 	0.64610 0.05770 0.11630 -0.09600
H 	H 	0.65970 0.04140 0.14090 0.07500
C 	C 	0.68830 0.06270 0.08200 0.02200
H 	H 	0.72710 0.04540 0.08180 0.00200
N 	N 	0.57090 0.55267 0.75280 -0.22500
C 	C 	0.61840 0.54800 0.78184 0.06100
C 	C 	0.57320 0.59090 0.72650 0.05600
H 	H 	0.61770 0.52140 0.80050 -0.00900
C 	C 	0.66800 0.58150 0.78490 -0.09100
C 	C 	0.62320 0.62320 0.72790 -0.09200
H 	H 	0.54020 0.59570 0.70670 0.01400
H 	H 	0.69980 0.57770 0.80560 0.07600
C 	C 	0.67030 0.61950 0.75790 0.00300
H 	H 	0.62520 0.64840 0.70790 0.07300
C 	C 	0.72340 0.65710 0.75800 0.27100
O 	O 	0.72310 0.69177 0.73649 -0.25700
O 	O 	0.76830 0.64497 0.78714 -0.21300
C 	C 	0.81840 0.68060 0.79430 -0.14700
H 	H 	0.84060 0.67330 0.82090 0.08600
H 	H 	0.79940 0.71300 0.79670 0.10100
C 	C 	0.86640 0.68010 0.75760 0.26900
C 	C 	0.89270 0.72320 0.74350 -0.30900
C 	C 	0.88870 0.63860 0.74020 -0.33400
C 	C 	0.93720 0.72480 0.71240 0.22700
H 	H 	0.87930 0.75250 0.75600 0.15200
H 	H 	0.87190 0.60890 0.74980 0.17100
C 	C 	0.93340 0.63770 0.71040 0.24800
C 	C 	0.96340 0.77380 0.69690 -0.09300
C 	C 	0.95890 0.68180 0.69390 -0.27400
C 	C 	0.95240 0.58670 0.68980 -0.13200
O 	O 	0.92090 0.79068 0.66215 -0.22600
H 	H 	0.96360 0.79750 0.72010 0.07500
H 	H 	0.00730 0.77000 0.68640 0.05800
H 	H 	0.98880 0.68190 0.67180 0.15000
O 	O 	0.00410 0.59650 0.65640 -0.23300
H 	H 	0.96880 0.56460 0.71160 0.10400
H 	H 	0.91490 0.57160 0.67650 0.08700
C 	C 	0.92910 0.83470 0.64660 0.27500
C 	C 	0.04780 0.56310 0.65640 0.23100
O 	O 	0.96790 0.86169 0.66054 -0.26200
C 	C 	0.88390 0.84520 0.61250 0.01200
O 	O 	0.07460 0.54780 0.68940 -0.24000
C 	C 	0.08200 0.57730 0.61440 0.04400
C 	C 	0.90210 0.87600 0.58710 -0.15700
C 	C 	0.82390 0.82090 0.61410 -0.10000
C 	C 	0.09930 0.62500 0.59950 0.02800
C 	C 	0.09300 0.54290 0.58040 -0.04100
C 	C 	0.86550 0.88940 0.55520 0.08200
H 	H 	0.94270 0.89010 0.59040 0.09100
H 	H 	0.81210 0.79860 0.63530 0.08200
C 	C 	0.78450 0.83440 0.57990 0.04200
C 	C 	0.14820 0.62870 0.56740 0.06200
H 	H 	0.07940 0.65300 0.61040 0.01500
H 	H 	0.06690 0.51520 0.57930 0.04000
C 	C 	0.14150 0.54840 0.54800 0.00400
N 	N 	0.80100 0.87020 0.54622 -0.21800
H 	H 	0.88180 0.91310 0.53670 -0.01300
H 	H 	0.74420 0.81950 0.57810 -0.00200
N 	N 	0.17190 0.59550 0.54580 -0.22900
H 	H 	0.16410 0.66000 0.56220 -0.02600
H 	H 	0.15260 0.52290 0.52960 0.00700
C 	C 	0.81990 0.90160 0.57060 -0.02200
H 	H 	0.80480 0.93340 0.56610 0.00600
C 	C 	0.86160 0.89450 0.60410 0.02000
H 	H 	0.87520 0.92070 0.62100 0.02600
C 	C 	0.86520 0.81160 0.58100 -0.00600
H 	H 	0.87870 0.77920 0.58380 0.04100
C 	C 	0.82910 0.82370 0.54700 -0.02900
H 	H 	0.82280 0.80170 0.52470 0.01900
C 	C 	0.10750 0.61750 0.55450 -0.02100
H 	H 	0.09070 0.63970 0.53480 0.01900
C 	C 	0.07150 0.60640 0.59030 -0.13600
H 	H 	0.03460 0.62520 0.59490 0.07900
C 	C 	0.14610 0.55770 0.61630 -0.09400
H 	H 	0.15970 0.54140 0.64090 0.07600
C 	C 	0.18830 0.56270 0.58200 0.02200
H 	H 	0.22710 0.54540 0.58180 0.00400
N 	N 	0.92910 0.94733 0.25280 -0.21800
C 	C 	0.88160 0.95200 0.28184 0.06200
C 	C 	0.92680 0.90910 0.22650 0.05700
H 	H 	0.88230 0.97860 0.30050 -0.00400
C 	C 	0.83200 0.91850 0.28490 -0.09000
C 	C 	0.87680 0.87680 0.22790 -0.08900
H 	H 	0.95980 0.90430 0.20670 0.02000
H 	H 	0.80020 0.92230 0.30560 0.07700
C 	C 	0.82970 0.88050 0.25790 0.00300
H 	H 	0.87480 0.85160 0.20790 0.07400
C 	C 	0.77660 0.84290 0.25800 0.27100
O 	O 	0.77690 0.80823 0.23649 -0.25600
O 	O 	0.73170 0.85503 0.28714 -0.21200
C 	C 	0.68160 0.81940 0.29430 -0.15100
H 	H 	0.65940 0.82670 0.32090 0.08600
H 	H 	0.70060 0.78700 0.29670 0.10200
C 	C 	0.63360 0.81990 0.25760 0.27600
C 	C 	0.60730 0.77680 0.24350 -0.32100
C 	C 	0.61130 0.86140 0.24020 -0.34500
C 	C 	0.56280 0.77520 0.21240 0.24000
H 	H 	0.62070 0.74750 0.25600 0.15600
H 	H 	0.62810 0.89110 0.24980 0.17500
C 	C 	0.56660 0.86230 0.21040 0.25600
C 	C 	0.53660 0.72620 0.19690 -0.12600
C 	C 	0.54110 0.81820 0.19390 -0.28800
C 	C 	0.54760 0.91330 0.18980 -0.15100
O 	O 	0.57910 0.70932 0.16215 -0.22200
H 	H 	0.53640 0.70250 0.22010 0.08200
H 	H 	0.49270 0.73000 0.18640 0.07700
H 	H 	0.51120 0.81810 0.17180 0.14800
O 	O 	0.49590 0.90350 0.15640 -0.22100
H 	H 	0.53120 0.93540 0.21160 0.10700
H 	H 	0.58510 0.92840 0.17650 0.09300
C 	C 	0.57090 0.66530 0.14660 0.27200
C 	C 	0.45220 0.93690 0.15640 0.23200
O 	O 	0.53210 0.63831 0.16054 -0.26800
C 	C 	0.61610 0.65480 0.11250 0.01300
O 	O 	0.42540 0.95220 0.18940 -0.23200
C 	C 	0.41800 0.92270 0.11440 0.04800
C 	C 	0.59790 0.62400 0.08710 -0.16200
C 	C 	0.67610 0.67910 0.11410 -0.10000
C 	C 	0.40070 0.87500 0.09950 0.02700
C 	C 	0.40700 0.95710 0.08040 -0.04200
C 	C 	0.63450 0.61060 0.05520 0.08300
H 	H 	0.55730 0.60990 0.09040 0.08700
H 	H 	0.68790 0.70140 0.13530 0.08200
C 	C 	0.71550 0.66560 0.07990 0.04300
C 	C 	0.35180 0.87130 0.06740 0.06400
H 	H 	0.42060 0.84700 0.11040 0.01700
H 	H 	0.43310 0.98480 0.07930 0.04600
C 	C 	0.35850 0.95160 0.04800 0.00400
N 	N 	0.69900 0.62980 0.04622 -0.22100
H 	H 	0.61820 0.58690 0.03670 -0.02200
H 	H 	0.75580 0.68050 0.07810 -0.00300
N 	N 	0.32810 0.90450 0.04580 -0.23200
H 	H 	0.33590 0.84000 0.06220 -0.02900
H 	H 	0.34740 0.97710 0.02960 0.00300
C 	C 	0.68010 0.59840 0.07060 -0.02300
H 	H 	0.69520 0.56660 0.06610 0.00200
C 	C 	0.63840 0.60550 0.10410 0.02400
H 	H 	0.62480 0.57930 0.12100 0.02100
C 	C 	0.63480 0.68840 0.08100 -0.00900
H 	H 	0.62130 0.72080 0.08380 0.03800
C 	C 	0.67090 0.67630 0.04700 -0.03000
H 	H 	0.67720 0.69830 0.02470 0.01100
C 	C 	0.39250 0.88250 0.05450 -0.02100
H 	H 	0.40930 0.86030 0.03480 0.01500
C 	C 	0.42850 0.89360 0.09030 -0.13800
H 	H 	0.46540 0.87480 0.09490 0.08200
C 	C 	0.35390 0.94230 0.11630 -0.09500
H 	H 	0.34030 0.95860 0.14090 0.07900
C 	C 	0.31170 0.93730 0.08200 0.02300
H 	H 	0.27290 0.95460 0.08180 0.00400
N 	N 	0.42910 0.44733 0.75280 -0.22500
C 	C 	0.38160 0.45200 0.78184 0.06100
C 	C 	0.42680 0.40910 0.72650 0.05600
H 	H 	0.38230 0.47860 0.80050 -0.00900
C 	C 	0.33200 0.41850 0.78490 -0.09200
C 	C 	0.37680 0.37680 0.72790 -0.09200
H 	H 	0.45980 0.40430 0.70670 0.01400
H 	H 	0.30020 0.42230 0.80560 0.07600
C 	C 	0.32970 0.38050 0.75790 0.00300
H 	H 	0.37480 0.35160 0.70790 0.07300
C 	C 	0.27660 0.34290 0.75800 0.27000
O 	O 	0.27690 0.30823 0.73649 -0.25700
O 	O 	0.23170 0.35503 0.78714 -0.21100
C 	C 	0.18160 0.31940 0.79430 -0.15400
H 	H 	0.15940 0.32670 0.82090 0.08600
H 	H 	0.20060 0.28700 0.79670 0.10200
C 	C 	0.13360 0.31990 0.75760 0.28200
C 	C 	0.10730 0.27680 0.74350 -0.33200
C 	C 	0.11130 0.36140 0.74020 -0.35200
C 	C 	0.06280 0.27520 0.71240 0.25200
H 	H 	0.12070 0.24750 0.75600 0.15900
H 	H 	0.12810 0.39110 0.74980 0.17600
C 	C 	0.06660 0.36230 0.71040 0.26000
C 	C 	0.03660 0.22620 0.69690 -0.16100
C 	C 	0.04110 0.31820 0.69390 -0.29900
C 	C 	0.04760 0.41330 0.68980 -0.16500
O 	O 	0.07910 0.20932 0.66215 -0.21700
H 	H 	0.03640 0.20250 0.72010 0.08900
H 	H 	0.99270 0.23000 0.68640 0.09800
H 	H 	0.01120 0.31810 0.67180 0.14700
O 	O 	0.99590 0.40350 0.65640 -0.21000
H 	H 	0.03120 0.43540 0.71160 0.10400
H 	H 	0.08510 0.42840 0.67650 0.09300
C 	C 	0.07090 0.16530 0.64660 0.27100
C 	C 	0.95220 0.43690 0.65640 0.23000
O 	O 	0.03210 0.13831 0.66054 -0.27300
C 	C 	0.11610 0.15480 0.61250 0.01000
O 	O 	0.92540 0.45220 0.68940 -0.23200
C 	C 	0.91800 0.42270 0.61440 0.04800
C 	C 	0.09790 0.12400 0.58710 -0.15900
C 	C 	0.17610 0.17910 0.61410 -0.10000
C 	C 	0.90070 0.37500 0.59950 0.02300
C 	C 	0.90700 0.45710 0.58040 -0.04200
C 	C 	0.13450 0.11060 0.55520 0.08200
H 	H 	0.05730 0.10990 0.59040 0.08400
H 	H 	0.18790 0.20140 0.63530 0.08200
C 	C 	0.21550 0.16560 0.57990 0.04300
C 	C 	0.85180 0.37130 0.56740 0.06000
H 	H 	0.92060 0.34700 0.61040 0.02000
H 	H 	0.93310 0.48480 0.57930 0.04700
C 	C 	0.85850 0.45160 0.54800 0.00600
N 	N 	0.19900 0.12980 0.54622 -0.21800
H 	H 	0.11820 0.08690 0.53670 -0.01800
H 	H 	0.25580 0.18050 0.57810 -0.00200
N 	N 	0.82810 0.40450 0.54580 -0.22900
H 	H 	0.83590 0.34000 0.56220 -0.02500
H 	H 	0.84740 0.47710 0.52960 0.00900
C 	C 	0.18010 0.09840 0.57060 -0.02300
H 	H 	0.19520 0.06660 0.56610 0.00300
C 	C 	0.13840 0.10550 0.60410 0.02300
H 	H 	0.12480 0.07930 0.62100 0.02000
C 	C 	0.13480 0.18840 0.58100 -0.00600
H 	H 	0.12130 0.22080 0.58380 0.03700
C 	C 	0.17090 0.17630 0.54700 -0.03100
H 	H 	0.17720 0.19830 0.52470 0.01800
C 	C 	0.89250 0.38250 0.55450 -0.01600
H 	H 	0.90930 0.36030 0.53480 0.02000
C 	C 	0.92850 0.39360 0.59030 -0.13600
H 	H 	0.96540 0.37480 0.59490 0.08400
C 	C 	0.85390 0.44230 0.61630 -0.09500
H 	H 	0.84030 0.45860 0.64090 0.07700
C 	C 	0.81170 0.43730 0.58200 0.02200
H 	H 	0.77290 0.45460 0.58180 0.00500
N 	N 	0.42910 0.55267 0.74720 -0.22500
C 	C 	0.38160 0.54800 0.71816 0.06100
C 	C 	0.42680 0.59090 0.77350 0.05700
H 	H 	0.38230 0.52140 0.69950 -0.01000
C 	C 	0.33200 0.58150 0.71510 -0.09200
C 	C 	0.37680 0.62320 0.77210 -0.09200
H 	H 	0.45980 0.59570 0.79330 0.01500
H 	H 	0.30020 0.57770 0.69440 0.07600
C 	C 	0.32970 0.61950 0.74210 0.00300
H 	H 	0.37480 0.64840 0.79210 0.07400
C 	C 	0.27660 0.65710 0.74200 0.27000
O 	O 	0.27690 0.69177 0.76351 -0.25600
O 	O 	0.23170 0.64497 0.71286 -0.21100
C 	C 	0.18160 0.68060 0.70570 -0.15400
H 	H 	0.15940 0.67330 0.67910 0.08600
H 	H 	0.20060 0.71300 0.70330 0.10200
C 	C 	0.13360 0.68010 0.74240 0.28200
C 	C 	0.10730 0.72320 0.75650 -0.33200
C 	C 	0.11130 0.63860 0.75980 -0.35200
C 	C 	0.06280 0.72480 0.78760 0.25200
H 	H 	0.12070 0.75250 0.74400 0.15900
H 	H 	0.12810 0.60890 0.75020 0.17600
C 	C 	0.06660 0.63770 0.78960 0.26100
C 	C 	0.03660 0.77380 0.80310 -0.16000
C 	C 	0.04110 0.68180 0.80610 -0.29900
C 	C 	0.04760 0.58670 0.81020 -0.16500
O 	O 	0.07910 0.79068 0.83785 -0.21700
H 	H 	0.03640 0.79750 0.77990 0.08900
H 	H 	0.99270 0.77000 0.81360 0.09800
H 	H 	0.01120 0.68190 0.82820 0.14800
O 	O 	0.99590 0.59650 0.84360 -0.21000
H 	H 	0.03120 0.56460 0.78840 0.10500
H 	H 	0.08510 0.57160 0.82350 0.09300
C 	C 	0.07090 0.83470 0.85340 0.27200
C 	C 	0.95220 0.56310 0.84360 0.23100
O 	O 	0.03210 0.86169 0.83946 -0.27000
C 	C 	0.11610 0.84520 0.88750 0.00900
O 	O 	0.92540 0.54780 0.81060 -0.23200
C 	C 	0.91800 0.57730 0.88560 0.04700
C 	C 	0.09790 0.87600 0.91290 -0.15200
C 	C 	0.17610 0.82090 0.88590 -0.09900
C 	C 	0.90070 0.62500 0.90050 0.02100
C 	C 	0.90700 0.54290 0.91960 -0.04100
C 	C 	0.13450 0.88940 0.94480 0.08000
H 	H 	0.05730 0.89010 0.90960 0.08700
H 	H 	0.18790 0.79860 0.86470 0.08200
C 	C 	0.21550 0.83440 0.92010 0.04200
C 	C 	0.85180 0.62870 0.93260 0.05500
H 	H 	0.92060 0.65300 0.88960 0.02200
H 	H 	0.93310 0.51520 0.92070 0.04900
C 	C 	0.85850 0.54840 0.95200 0.00800
N 	N 	0.19900 0.87020 0.95378 -0.21200
H 	H 	0.11820 0.91310 0.96330 -0.00800
H 	H 	0.25580 0.81950 0.92190 0.00000
N 	N 	0.82810 0.59550 0.95420 -0.22300
H 	H 	0.83590 0.66000 0.93780 -0.01900
H 	H 	0.84740 0.52290 0.97040 0.01600
C 	C 	0.18010 0.90160 0.92940 -0.02200
H 	H 	0.19520 0.93340 0.93390 0.00800
C 	C 	0.13840 0.89450 0.89590 0.01900
H 	H 	0.12480 0.92070 0.87900 0.02500
C 	C 	0.13480 0.81160 0.91900 -0.00400
H 	H 	0.12130 0.77920 0.91620 0.03900
C 	C 	0.17090 0.82370 0.95300 -0.03000
H 	H 	0.17720 0.80170 0.97530 0.02700
C 	C 	0.89250 0.61750 0.94550 -0.01200
H 	H 	0.90930 0.63970 0.96520 0.02500
C 	C 	0.92850 0.60640 0.90970 -0.13200
H 	H 	0.96540 0.62520 0.90510 0.08500
C 	C 	0.85390 0.55770 0.88370 -0.09300
H 	H 	0.84030 0.54140 0.85910 0.07700
C 	C 	0.81170 0.56270 0.91800 0.02100
H 	H 	0.77290 0.54540 0.91820 0.00700
N 	N 	0.92910 0.05267 0.24720 -0.22300
C 	C 	0.88160 0.04800 0.21816 0.06000
C 	C 	0.92680 0.09090 0.27350 0.05500
H 	H 	0.88230 0.02140 0.19950 -0.01200
C 	C 	0.83200 0.08150 0.21510 -0.09200
C 	C 	0.87680 0.12320 0.27210 -0.09100
H 	H 	0.95980 0.09570 0.29330 0.01900
H 	H 	0.80020 0.07770 0.19440 0.07500
C 	C 	0.82970 0.11950 0.24210 0.00200
H 	H 	0.87480 0.14840 0.29210 0.07400
C 	C 	0.77660 0.15710 0.24200 0.27100
O 	O 	0.77690 0.19177 0.26351 -0.25700
O 	O 	0.73170 0.14497 0.21286 -0.21300
C 	C 	0.68160 0.18060 0.20570 -0.14800
H 	H 	0.65940 0.17330 0.17910 0.08400
H 	H 	0.70060 0.21300 0.20330 0.10100
C 	C 	0.63360 0.18010 0.24240 0.27300
C 	C 	0.60730 0.22320 0.25650 -0.31800
C 	C 	0.61130 0.13860 0.25980 -0.34000
C 	C 	0.56280 0.22480 0.28760 0.23800
H 	H 	0.62070 0.25250 0.24400 0.15500
H 	H 	0.62810 0.10890 0.25020 0.17100
C 	C 	0.56660 0.13770 0.28960 0.25100
C 	C 	0.53660 0.27380 0.30310 -0.12500
C 	C 	0.54110 0.18180 0.30610 -0.28500
C 	C 	0.54760 0.08670 0.31020 -0.14500
O 	O 	0.57910 0.29068 0.33785 -0.22200
H 	H 	0.53640 0.29750 0.27990 0.08100
H 	H 	0.49270 0.27000 0.31360 0.07700
H 	H 	0.51120 0.18190 0.32820 0.14800
O 	O 	0.49590 0.09650 0.34360 -0.22300
H 	H 	0.53120 0.06460 0.28840 0.10100
H 	H 	0.58510 0.07160 0.32350 0.08600
C 	C 	0.57090 0.33470 0.35340 0.27400
C 	C 	0.45220 0.06310 0.34360 0.22900
O 	O 	0.53210 0.36169 0.33946 -0.26700
C 	C 	0.61610 0.34520 0.38750 0.01100
O 	O 	0.42540 0.04780 0.31060 -0.23900
C 	C 	0.41800 0.07730 0.38560 0.04500
C 	C 	0.59790 0.37600 0.41290 -0.15800
C 	C 	0.67610 0.32090 0.38590 -0.10000
C 	C 	0.40070 0.12500 0.40050 0.02700
C 	C 	0.40700 0.04290 0.41960 -0.04100
C 	C 	0.63450 0.38940 0.44480 0.08200
H 	H 	0.55730 0.39010 0.40960 0.08800
H 	H 	0.68790 0.29860 0.36470 0.08200
C 	C 	0.71550 0.33440 0.42010 0.04300
C 	C 	0.35180 0.12870 0.43260 0.06200
H 	H 	0.42060 0.15300 0.38960 0.01700
H 	H 	0.43310 0.01520 0.42070 0.03900
C 	C 	0.35850 0.04840 0.45200 0.00400
N 	N 	0.69900 0.37020 0.45378 -0.21800
H 	H 	0.61820 0.41310 0.46330 -0.01500
H 	H 	0.75580 0.31950 0.42190 -0.00200
N 	N 	0.32810 0.09550 0.45420 -0.22900
H 	H 	0.33590 0.16000 0.43780 -0.02600
H 	H 	0.34740 0.02290 0.47040 0.00600
C 	C 	0.68010 0.40160 0.42940 -0.02200
H 	H 	0.69520 0.43340 0.43390 0.00400
C 	C 	0.63840 0.39450 0.39590 0.02200
H 	H 	0.62480 0.42070 0.37900 0.02300
C 	C 	0.63480 0.31160 0.41900 -0.00600
H 	H 	0.62130 0.27920 0.41620 0.03900
C 	C 	0.67090 0.32370 0.45300 -0.03000
H 	H 	0.67720 0.30170 0.47530 0.01800
C 	C 	0.39250 0.11750 0.44550 -0.02000
H 	H 	0.40930 0.13970 0.46520 0.02000
C 	C 	0.42850 0.10640 0.40970 -0.13600
H 	H 	0.46540 0.12520 0.40510 0.08100
C 	C 	0.35390 0.05770 0.38370 -0.09500
H 	H 	0.34030 0.04140 0.35910 0.07400
C 	C 	0.31170 0.06270 0.41800 0.02200
H 	H 	0.27290 0.04540 0.41820 0.00300
N 	N 	0.57090 0.44733 0.74720 -0.22500
C 	C 	0.61840 0.45200 0.71816 0.06100
C 	C 	0.57320 0.40910 0.77350 0.05700
H 	H 	0.61770 0.47860 0.69950 -0.01000
C 	C 	0.66800 0.41850 0.71510 -0.09200
C 	C 	0.62320 0.37680 0.77210 -0.09200
H 	H 	0.54020 0.40430 0.79330 0.01500
H 	H 	0.69980 0.42230 0.69440 0.07600
C 	C 	0.67030 0.38050 0.74210 0.00300
H 	H 	0.62520 0.35160 0.79210 0.07400
C 	C 	0.72340 0.34290 0.74200 0.27100
O 	O 	0.72310 0.30823 0.76351 -0.25600
O 	O 	0.76830 0.35503 0.71286 -0.21300
C 	C 	0.81840 0.31940 0.70570 -0.14600
H 	H 	0.84060 0.32670 0.67910 0.08500
H 	H 	0.79940 0.28700 0.70330 0.10000
C 	C 	0.86640 0.31990 0.74240 0.26800
C 	C 	0.89270 0.27680 0.75650 -0.30800
C 	C 	0.88870 0.36140 0.75980 -0.33400
C 	C 	0.93720 0.27520 0.78760 0.22700
H 	H 	0.87930 0.24750 0.74400 0.15200
H 	H 	0.87190 0.39110 0.75020 0.17100
C 	C 	0.93340 0.36230 0.78960 0.24800
C 	C 	0.96340 0.22620 0.80310 -0.09100
C 	C 	0.95890 0.31820 0.80610 -0.27400
C 	C 	0.95240 0.41330 0.81020 -0.13100
O 	O 	0.92090 0.20932 0.83785 -0.22600
H 	H 	0.96360 0.20250 0.77990 0.07500
H 	H 	0.00730 0.23000 0.81360 0.05700
H 	H 	0.98880 0.31810 0.82820 0.15000
O 	O 	0.00410 0.40350 0.84360 -0.23300
H 	H 	0.96880 0.43540 0.78840 0.10400
H 	H 	0.91490 0.42840 0.82350 0.08700
C 	C 	0.92910 0.16530 0.85340 0.27700
C 	C 	0.04780 0.43690 0.84360 0.23200
O 	O 	0.96790 0.13831 0.83946 -0.26300
C 	C 	0.88390 0.15480 0.88750 0.00900
O 	O 	0.07460 0.45220 0.81060 -0.24000
C 	C 	0.08200 0.42270 0.88560 0.04200
C 	C 	0.90210 0.12400 0.91290 -0.15200
C 	C 	0.82390 0.17910 0.88590 -0.09900
C 	C 	0.09930 0.37500 0.90050 0.02500
C 	C 	0.09300 0.45710 0.91960 -0.04000
C 	C 	0.86550 0.11060 0.94480 0.08100
H 	H 	0.94270 0.10990 0.90960 0.08900
H 	H 	0.81210 0.20140 0.86470 0.08300
C 	C 	0.78450 0.16560 0.92010 0.04200
C 	C 	0.14820 0.37130 0.93260 0.05700
H 	H 	0.07940 0.34700 0.88960 0.01700
H 	H 	0.06690 0.48480 0.92070 0.04200
C 	C 	0.14150 0.45160 0.95200 0.00600
N 	N 	0.80100 0.12980 0.95378 -0.21300
H 	H 	0.88180 0.08690 0.96330 -0.00900
H 	H 	0.74420 0.18050 0.92190 0.00000
N 	N 	0.17190 0.40450 0.95420 -0.22300
H 	H 	0.16410 0.34000 0.93780 -0.02100
H 	H 	0.15260 0.47710 0.97040 0.01500
C 	C 	0.81990 0.09840 0.92940 -0.02200
H 	H 	0.80480 0.06660 0.93390 0.00600
C 	C 	0.86160 0.10550 0.89590 0.01900
H 	H 	0.87520 0.07930 0.87900 0.02400
C 	C 	0.86520 0.18840 0.91900 -0.00400
H 	H 	0.87870 0.22080 0.91620 0.04200
C 	C 	0.82910 0.17630 0.95300 -0.03000
H 	H 	0.82280 0.19830 0.97530 0.02800
C 	C 	0.10750 0.38250 0.94550 -0.01600
H 	H 	0.09070 0.36030 0.96520 0.02300
C 	C 	0.07150 0.39360 0.90970 -0.13300
H 	H 	0.03460 0.37480 0.90510 0.08000
C 	C 	0.14610 0.44230 0.88370 -0.09300
H 	H 	0.15970 0.45860 0.85910 0.07600
C 	C 	0.18830 0.43730 0.91800 0.02100
H 	H 	0.22710 0.45460 0.91820 0.00700
N 	N 	0.07090 0.94733 0.24720 -0.22300
C 	C 	0.11840 0.95200 0.21816 0.06200
C 	C 	0.07320 0.90910 0.27350 0.05700
H 	H 	0.11770 0.97860 0.19950 -0.00700
C 	C 	0.16800 0.91850 0.21510 -0.09100
C 	C 	0.12320 0.87680 0.27210 -0.09200
H 	H 	0.04020 0.90430 0.29330 0.01100
H 	H 	0.19980 0.92230 0.19440 0.07700
C 	C 	0.17030 0.88050 0.24210 0.00400
H 	H 	0.12520 0.85160 0.29210 0.07300
C 	C 	0.22340 0.84290 0.24200 0.27100
O 	O 	0.22310 0.80823 0.26351 -0.25700
O 	O 	0.26830 0.85503 0.21286 -0.21200
C 	C 	0.31840 0.81940 0.20570 -0.15000
H 	H 	0.34060 0.82670 0.17910 0.08500
H 	H 	0.29940 0.78700 0.20330 0.10100
C 	C 	0.36640 0.81990 0.24240 0.27600
C 	C 	0.39270 0.77680 0.25650 -0.32100
C 	C 	0.38870 0.86140 0.25980 -0.34500
C 	C 	0.43720 0.77520 0.28760 0.24000
H 	H 	0.37930 0.74750 0.24400 0.15600
H 	H 	0.37190 0.89110 0.25020 0.17500
C 	C 	0.43340 0.86230 0.28960 0.25600
C 	C 	0.46340 0.72620 0.30310 -0.12700
C 	C 	0.45890 0.81820 0.30610 -0.28800
C 	C 	0.45240 0.91330 0.31020 -0.15100
O 	O 	0.42090 0.70932 0.33785 -0.22100
H 	H 	0.46360 0.70250 0.27990 0.08200
H 	H 	0.50730 0.73000 0.31360 0.07700
H 	H 	0.48880 0.81810 0.32820 0.14900
O 	O 	0.50410 0.90350 0.34360 -0.22000
H 	H 	0.46880 0.93540 0.28840 0.10700
H 	H 	0.41490 0.92840 0.32350 0.09400
C 	C 	0.42910 0.66530 0.35340 0.27300
C 	C 	0.54780 0.93690 0.34360 0.23200
O 	O 	0.46790 0.63831 0.33946 -0.26700
C 	C 	0.38390 0.65480 0.38750 0.01100
O 	O 	0.57460 0.95220 0.31060 -0.23200
C 	C 	0.58200 0.92270 0.38560 0.04700
C 	C 	0.40210 0.62400 0.41290 -0.15800
C 	C 	0.32390 0.67910 0.38590 -0.10000
C 	C 	0.59930 0.87500 0.40050 0.02500
C 	C 	0.59300 0.95710 0.41960 -0.04200
C 	C 	0.36550 0.61060 0.44480 0.08200
H 	H 	0.44270 0.60990 0.40960 0.08800
H 	H 	0.31210 0.70140 0.36470 0.08200
C 	C 	0.28450 0.66560 0.42010 0.04300
C 	C 	0.64820 0.87130 0.43260 0.06000
H 	H 	0.57940 0.84700 0.38960 0.01800
H 	H 	0.56690 0.98480 0.42070 0.04800
C 	C 	0.64150 0.95160 0.45200 0.00600
N 	N 	0.30100 0.62980 0.45378 -0.21800
H 	H 	0.38180 0.58690 0.46330 -0.01600
H 	H 	0.24420 0.68050 0.42190 -0.00200
N 	N 	0.67190 0.90450 0.45420 -0.22900
H 	H 	0.66410 0.84000 0.43780 -0.02500
H 	H 	0.65260 0.97710 0.47040 0.01000
C 	C 	0.31990 0.59840 0.42940 -0.02200
H 	H 	0.30480 0.56660 0.43390 0.00400
C 	C 	0.36160 0.60550 0.39590 0.02100
H 	H 	0.37520 0.57930 0.37900 0.02300
C 	C 	0.36520 0.68840 0.41900 -0.00600
H 	H 	0.37870 0.72080 0.41620 0.03900
C 	C 	0.32910 0.67630 0.45300 -0.03000
H 	H 	0.32280 0.69830 0.47530 0.01900
C 	C 	0.60750 0.88250 0.44550 -0.01700
H 	H 	0.59070 0.86030 0.46520 0.01900
C 	C 	0.57150 0.89360 0.40970 -0.13600
H 	H 	0.53460 0.87480 0.40510 0.08200
C 	C 	0.64610 0.94230 0.38370 -0.09400
H 	H 	0.65970 0.95860 0.35910 0.07900
C 	C 	0.68830 0.93730 0.41800 0.02200
H 	H 	0.72710 0.95460 0.41820 0.00700
N 	N 	0.92910 0.94733 0.74720 -0.21800
C 	C 	0.88160 0.95200 0.71816 0.06300
C 	C 	0.92680 0.90910 0.77350 0.05800
H 	H 	0.88230 0.97860 0.69950 -0.00400
C 	C 	0.83200 0.91850 0.71510 -0.09000
C 	C 	0.87680 0.87680 0.77210 -0.09000
H 	H 	0.95980 0.90430 0.79330 0.02100
H 	H 	0.80020 0.92230 0.69440 0.07700
C 	C 	0.82970 0.88050 0.74210 0.00300
H 	H 	0.87480 0.85160 0.79210 0.07500
C 	C 	0.77660 0.84290 0.74200 0.27100
O 	O 	0.77690 0.80823 0.76351 -0.25500
O 	O 	0.73170 0.85503 0.71286 -0.21100
C 	C 	0.68160 0.81940 0.70570 -0.15100
H 	H 	0.65940 0.82670 0.67910 0.08600
H 	H 	0.70060 0.78700 0.70330 0.10200
C 	C 	0.63360 0.81990 0.74240 0.27700
C 	C 	0.60730 0.77680 0.75650 -0.32200
C 	C 	0.61130 0.86140 0.75980 -0.34500
C 	C 	0.56280 0.77520 0.78760 0.24100
H 	H 	0.62070 0.74750 0.74400 0.15600
H 	H 	0.62810 0.89110 0.75020 0.17500
C 	C 	0.56660 0.86230 0.78960 0.25700
C 	C 	0.53660 0.72620 0.80310 -0.12700
C 	C 	0.54110 0.81820 0.80610 -0.28800
C 	C 	0.54760 0.91330 0.81020 -0.15200
O 	O 	0.57910 0.70932 0.83785 -0.22100
H 	H 	0.53640 0.70250 0.77990 0.08200
H 	H 	0.49270 0.73000 0.81360 0.07800
H 	H 	0.51120 0.81810 0.82820 0.15000
O 	O 	0.49590 0.90350 0.84360 -0.22000
H 	H 	0.53120 0.93540 0.78840 0.10700
H 	H 	0.58510 0.92840 0.82350 0.09500
C 	C 	0.57090 0.66530 0.85340 0.27500
C 	C 	0.45220 0.93690 0.84360 0.23300
O 	O 	0.53210 0.63831 0.83946 -0.26700
C 	C 	0.61610 0.65480 0.88750 0.00900
O 	O 	0.42540 0.95220 0.81060 -0.23200
C 	C 	0.41800 0.92270 0.88560 0.04600
C 	C 	0.59790 0.62400 0.91290 -0.15200
C 	C 	0.67610 0.67910 0.88590 -0.09900
C 	C 	0.40070 0.87500 0.90050 0.02200
C 	C 	0.40700 0.95710 0.91960 -0.04100
C 	C 	0.63450 0.61060 0.94480 0.08100
H 	H 	0.55730 0.60990 0.90960 0.08800
H 	H 	0.68790 0.70140 0.86470 0.08300
C 	C 	0.71550 0.66560 0.92010 0.04200
C 	C 	0.35180 0.87130 0.93260 0.05500
H 	H 	0.42060 0.84700 0.88960 0.02000
H 	H 	0.43310 0.98480 0.92070 0.05000
C 	C 	0.35850 0.95160 0.95200 0.00700
N 	N 	0.69900 0.62980 0.95378 -0.21200
H 	H 	0.61820 0.58690 0.96330 -0.00900
H 	H 	0.75580 0.68050 0.92190 0.00100
N 	N 	0.32810 0.90450 0.95420 -0.22300
H 	H 	0.33590 0.84000 0.93780 -0.02000
H 	H 	0.34740 0.97710 0.97040 0.01700
C 	C 	0.68010 0.59840 0.92940 -0.02200
H 	H 	0.69520 0.56660 0.93390 0.00700
C 	C 	0.63840 0.60550 0.89590 0.01900
H 	H 	0.62480 0.57930 0.87900 0.02400
C 	C 	0.63480 0.68840 0.91900 -0.00400
H 	H 	0.62130 0.72080 0.91620 0.04100
C 	C 	0.67090 0.67630 0.95300 -0.03000
H 	H 	0.67720 0.69830 0.97530 0.02800
C 	C 	0.39250 0.88250 0.94550 -0.01200
H 	H 	0.40930 0.86030 0.96520 0.02400
C 	C 	0.42850 0.89360 0.90970 -0.13200
H 	H 	0.46540 0.87480 0.90510 0.08300
C 	C 	0.35390 0.94230 0.88370 -0.09300
H 	H 	0.34030 0.95860 0.85910 0.07900
C 	C 	0.31170 0.93730 0.91800 0.02100
H 	H 	0.27290 0.95460 0.91820 0.00800
N 	N 	0.42910 0.44733 0.24720 -0.22500
C 	C 	0.38160 0.45200 0.21816 0.06100
C 	C 	0.42680 0.40910 0.27350 0.05600
H 	H 	0.38230 0.47860 0.19950 -0.01000
C 	C 	0.33200 0.41850 0.21510 -0.09200
C 	C 	0.37680 0.37680 0.27210 -0.09200
H 	H 	0.45980 0.40430 0.29330 0.01400
H 	H 	0.30020 0.42230 0.19440 0.07600
C 	C 	0.32970 0.38050 0.24210 0.00300
H 	H 	0.37480 0.35160 0.29210 0.07300
C 	C 	0.27660 0.34290 0.24200 0.27000
O 	O 	0.27690 0.30823 0.26351 -0.25700
O 	O 	0.23170 0.35503 0.21286 -0.21200
C 	C 	0.18160 0.31940 0.20570 -0.15300
H 	H 	0.15940 0.32670 0.17910 0.08500
H 	H 	0.20060 0.28700 0.20330 0.10100
C 	C 	0.13360 0.31990 0.24240 0.28100
C 	C 	0.10730 0.27680 0.25650 -0.33200
C 	C 	0.11130 0.36140 0.25980 -0.35100
C 	C 	0.06280 0.27520 0.28760 0.25200
H 	H 	0.12070 0.24750 0.24400 0.15900
H 	H 	0.12810 0.39110 0.25020 0.17600
C 	C 	0.06660 0.36230 0.28960 0.26000
C 	C 	0.03660 0.22620 0.30310 -0.16100
C 	C 	0.04110 0.31820 0.30610 -0.29900
C 	C 	0.04760 0.41330 0.31020 -0.16500
O 	O 	0.07910 0.20932 0.33785 -0.21700
H 	H 	0.03640 0.20250 0.27990 0.08900
H 	H 	0.99270 0.23000 0.31360 0.09800
H 	H 	0.01120 0.31810 0.32820 0.14700
O 	O 	0.99590 0.40350 0.34360 -0.21000
H 	H 	0.03120 0.43540 0.28840 0.10400
H 	H 	0.08510 0.42840 0.32350 0.09300
C 	C 	0.07090 0.16530 0.35340 0.27100
C 	C 	0.95220 0.43690 0.34360 0.23000
O 	O 	0.03210 0.13831 0.33946 -0.27300
C 	C 	0.11610 0.15480 0.38750 0.01000
O 	O 	0.92540 0.45220 0.31060 -0.23200
C 	C 	0.91800 0.42270 0.38560 0.04800
C 	C 	0.09790 0.12400 0.41290 -0.15900
C 	C 	0.17610 0.17910 0.38590 -0.10000
C 	C 	0.90070 0.37500 0.40050 0.02300
C 	C 	0.90700 0.45710 0.41960 -0.04200
C 	C 	0.13450 0.11060 0.44480 0.08200
H 	H 	0.05730 0.10990 0.40960 0.08400
H 	H 	0.18790 0.20140 0.36470 0.08200
C 	C 	0.21550 0.16560 0.42010 0.04300
C 	C 	0.85180 0.37130 0.43260 0.06000
H 	H 	0.92060 0.34700 0.38960 0.02000
H 	H 	0.93310 0.48480 0.42070 0.04700
C 	C 	0.85850 0.45160 0.45200 0.00600
N 	N 	0.19900 0.12980 0.45378 -0.21800
H 	H 	0.11820 0.08690 0.46330 -0.01800
H 	H 	0.25580 0.18050 0.42190 -0.00200
N 	N 	0.82810 0.40450 0.45420 -0.22900
H 	H 	0.83590 0.34000 0.43780 -0.02500
H 	H 	0.84740 0.47710 0.47040 0.00900
C 	C 	0.18010 0.09840 0.42940 -0.02300
H 	H 	0.19520 0.06660 0.43390 0.00300
C 	C 	0.13840 0.10550 0.39590 0.02300
H 	H 	0.12480 0.07930 0.37900 0.02000
C 	C 	0.13480 0.18840 0.41900 -0.00600
H 	H 	0.12130 0.22080 0.41620 0.03700
C 	C 	0.17090 0.17630 0.45300 -0.03100
H 	H 	0.17720 0.19830 0.47530 0.01800
C 	C 	0.89250 0.38250 0.44550 -0.01600
H 	H 	0.90930 0.36030 0.46520 0.02000
C 	C 	0.92850 0.39360 0.40970 -0.13600
H 	H 	0.96540 0.37480 0.40510 0.08400
C 	C 	0.85390 0.44230 0.38370 -0.09500
H 	H 	0.84030 0.45860 0.35910 0.07700
C 	C 	0.81170 0.43730 0.41800 0.02200
H 	H 	0.77290 0.45460 0.41820 0.00500
N 	N 	0.07090 0.05267 0.74720 -0.22900
C 	C 	0.11840 0.04800 0.71816 0.06000
C 	C 	0.07320 0.09090 0.77350 0.05500
H 	H 	0.11770 0.02140 0.69950 -0.01400
C 	C 	0.16800 0.08150 0.71510 -0.09300
C 	C 	0.12320 0.12320 0.77210 -0.09400
H 	H 	0.04020 0.09570 0.79330 0.00900
H 	H 	0.19980 0.07770 0.69440 0.07500
C 	C 	0.17030 0.11950 0.74210 0.00300
H 	H 	0.12520 0.14840 0.79210 0.07200
C 	C 	0.22340 0.15710 0.74200 0.27000
O 	O 	0.22310 0.19177 0.76351 -0.25700
O 	O 	0.26830 0.14497 0.71286 -0.21300
C 	C 	0.31840 0.18060 0.70570 -0.14900
H 	H 	0.34060 0.17330 0.67910 0.08500
H 	H 	0.29940 0.21300 0.70330 0.10100
C 	C 	0.36640 0.18010 0.74240 0.27300
C 	C 	0.39270 0.22320 0.75650 -0.31900
C 	C 	0.38870 0.13860 0.75980 -0.34100
C 	C 	0.43720 0.22480 0.78760 0.23900
H 	H 	0.37930 0.25250 0.74400 0.15500
H 	H 	0.37190 0.10890 0.75020 0.17100
C 	C 	0.43340 0.13770 0.78960 0.25100
C 	C 	0.46340 0.27380 0.80310 -0.12600
C 	C 	0.45890 0.18180 0.80610 -0.28500
C 	C 	0.45240 0.08670 0.81020 -0.14500
O 	O 	0.42090 0.29068 0.83785 -0.22100
H 	H 	0.46360 0.29750 0.77990 0.08200
H 	H 	0.50730 0.27000 0.81360 0.07800
H 	H 	0.48880 0.18190 0.82820 0.14800
O 	O 	0.50410 0.09650 0.84360 -0.22300
H 	H 	0.46880 0.06460 0.78840 0.10100
H 	H 	0.41490 0.07160 0.82350 0.08600
C 	C 	0.42910 0.33470 0.85340 0.27500
C 	C 	0.54780 0.06310 0.84360 0.23000
O 	O 	0.46790 0.36169 0.83946 -0.26700
C 	C 	0.38390 0.34520 0.88750 0.00900
O 	O 	0.57460 0.04780 0.81060 -0.23900
C 	C 	0.58200 0.07730 0.88560 0.04300
C 	C 	0.40210 0.37600 0.91290 -0.15200
C 	C 	0.32390 0.32090 0.88590 -0.10000
C 	C 	0.59930 0.12500 0.90050 0.02400
C 	C 	0.59300 0.04290 0.91960 -0.04000
C 	C 	0.36550 0.38940 0.94480 0.08100
H 	H 	0.44270 0.39010 0.90960 0.08800
H 	H 	0.31210 0.29860 0.86470 0.08200
C 	C 	0.28450 0.33440 0.92010 0.04200
C 	C 	0.64820 0.12870 0.93260 0.05700
H 	H 	0.57940 0.15300 0.88960 0.01900
H 	H 	0.56690 0.01520 0.92070 0.04200
C 	C 	0.64150 0.04840 0.95200 0.00600
N 	N 	0.30100 0.37020 0.95378 -0.21300
H 	H 	0.38180 0.41310 0.96330 -0.00900
H 	H 	0.24420 0.31950 0.92190 -0.00000
N 	N 	0.67190 0.09550 0.95420 -0.22300
H 	H 	0.66410 0.16000 0.93780 -0.02100
H 	H 	0.65260 0.02290 0.97040 0.01400
C 	C 	0.31990 0.40160 0.92940 -0.02200
H 	H 	0.30480 0.43340 0.93390 0.00700
C 	C 	0.36160 0.39450 0.89590 0.01900
H 	H 	0.37520 0.42070 0.87900 0.02400
C 	C 	0.36520 0.31160 0.91900 -0.00400
H 	H 	0.37870 0.27920 0.91620 0.04000
C 	C 	0.32910 0.32370 0.95300 -0.03000
H 	H 	0.32280 0.30170 0.97530 0.02700
C 	C 	0.60750 0.11750 0.94550 -0.01600
H 	H 	0.59070 0.13970 0.96520 0.02500
C 	C 	0.57150 0.10640 0.90970 -0.13300
H 	H 	0.53460 0.12520 0.90510 0.08100
C 	C 	0.64610 0.05770 0.88370 -0.09300
H 	H 	0.65970 0.04140 0.85910 0.07400
C 	C 	0.68830 0.06270 0.91800 0.02100
H 	H 	0.72710 0.04540 0.91820 0.00600
N 	N 	0.57090 0.55267 0.24720 -0.22500
C 	C 	0.61840 0.54800 0.21816 0.06100
C 	C 	0.57320 0.59090 0.27350 0.05600
H 	H 	0.61770 0.52140 0.19950 -0.01000
C 	C 	0.66800 0.58150 0.21510 -0.09200
C 	C 	0.62320 0.62320 0.27210 -0.09200
H 	H 	0.54020 0.59570 0.29330 0.01400
H 	H 	0.69980 0.57770 0.19440 0.07600
C 	C 	0.67030 0.61950 0.24210 0.00300
H 	H 	0.62520 0.64840 0.29210 0.07300
C 	C 	0.72340 0.65710 0.24200 0.27100
O 	O 	0.72310 0.69177 0.26351 -0.25700
O 	O 	0.76830 0.64497 0.21286 -0.21300
C 	C 	0.81840 0.68060 0.20570 -0.14600
H 	H 	0.84060 0.67330 0.17910 0.08500
H 	H 	0.79940 0.71300 0.20330 0.10000
C 	C 	0.86640 0.68010 0.24240 0.26800
C 	C 	0.89270 0.72320 0.25650 -0.30900
C 	C 	0.88870 0.63860 0.25980 -0.33400
C 	C 	0.93720 0.72480 0.28760 0.22700
H 	H 	0.87930 0.75250 0.24400 0.15200
H 	H 	0.87190 0.60890 0.25020 0.17100
C 	C 	0.93340 0.63770 0.28960 0.24700
C 	C 	0.96340 0.77380 0.30310 -0.09300
C 	C 	0.95890 0.68180 0.30610 -0.27400
C 	C 	0.95240 0.58670 0.31020 -0.13100
O 	O 	0.92090 0.79068 0.33785 -0.22600
H 	H 	0.96360 0.79750 0.27990 0.07500
H 	H 	0.00730 0.77000 0.31360 0.05800
H 	H 	0.98880 0.68190 0.32820 0.15000
O 	O 	0.00410 0.59650 0.34360 -0.23300
H 	H 	0.96880 0.56460 0.28840 0.10400
H 	H 	0.91490 0.57160 0.32350 0.08700
C 	C 	0.92910 0.83470 0.35340 0.27500
C 	C 	0.04780 0.56310 0.34360 0.23100
O 	O 	0.96790 0.86169 0.33946 -0.26200
C 	C 	0.88390 0.84520 0.38750 0.01200
O 	O 	0.07460 0.54780 0.31060 -0.24000
C 	C 	0.08200 0.57730 0.38560 0.04400
C 	C 	0.90210 0.87600 0.41290 -0.15700
C 	C 	0.82390 0.82090 0.38590 -0.10000
C 	C 	0.09930 0.62500 0.40050 0.02800
C 	C 	0.09300 0.54290 0.41960 -0.04100
C 	C 	0.86550 0.88940 0.44480 0.08200
H 	H 	0.94270 0.89010 0.40960 0.09100
H 	H 	0.81210 0.79860 0.36470 0.08300
C 	C 	0.78450 0.83440 0.42010 0.04200
C 	C 	0.14820 0.62870 0.43260 0.06200
H 	H 	0.07940 0.65300 0.38960 0.01600
H 	H 	0.06690 0.51520 0.42070 0.04000
C 	C 	0.14150 0.54840 0.45200 0.00400
N 	N 	0.80100 0.87020 0.45378 -0.21800
H 	H 	0.88180 0.91310 0.46330 -0.01300
H 	H 	0.74420 0.81950 0.42190 -0.00200
N 	N 	0.17190 0.59550 0.45420 -0.22900
H 	H 	0.16410 0.66000 0.43780 -0.02600
H 	H 	0.15260 0.52290 0.47040 0.00700
C 	C 	0.81990 0.90160 0.42940 -0.02200
H 	H 	0.80480 0.93340 0.43390 0.00600
C 	C 	0.86160 0.89450 0.39590 0.02000
H 	H 	0.87520 0.92070 0.37900 0.02600
C 	C 	0.86520 0.81160 0.41900 -0.00600
H 	H 	0.87870 0.77920 0.41620 0.04100
C 	C 	0.82910 0.82370 0.45300 -0.02900
H 	H 	0.82280 0.80170 0.47530 0.01900
C 	C 	0.10750 0.61750 0.44550 -0.02100
H 	H 	0.09070 0.63970 0.46520 0.01900
C 	C 	0.07150 0.60640 0.40970 -0.13600
H 	H 	0.03460 0.62520 0.40510 0.07900
C 	C 	0.14610 0.55770 0.38370 -0.09400
H 	H 	0.15970 0.54140 0.35910 0.07600
C 	C 	0.18830 0.56270 0.41800 0.02200
H 	H 	0.22710 0.54540 0.41820 0.00400
N 	N 	0.57090 0.44733 0.25280 -0.22500
C 	C 	0.61840 0.45200 0.28184 0.06100
C 	C 	0.57320 0.40910 0.22650 0.05600
H 	H 	0.61770 0.47860 0.30050 -0.01000
C 	C 	0.66800 0.41850 0.28490 -0.09100
C 	C 	0.62320 0.37680 0.22790 -0.09200
H 	H 	0.54020 0.40430 0.20670 0.01400
H 	H 	0.69980 0.42230 0.30560 0.07600
C 	C 	0.67030 0.38050 0.25790 0.00200
H 	H 	0.62520 0.35160 0.20790 0.07300
C 	C 	0.72340 0.34290 0.25800 0.27100
O 	O 	0.72310 0.30823 0.23649 -0.25700
O 	O 	0.76830 0.35503 0.28714 -0.21300
C 	C 	0.81840 0.31940 0.29430 -0.14500
H 	H 	0.84060 0.32670 0.32090 0.08500
H 	H 	0.79940 0.28700 0.29670 0.10000
C 	C 	0.86640 0.31990 0.25760 0.26700
C 	C 	0.89270 0.27680 0.24350 -0.30700
C 	C 	0.88870 0.36140 0.24020 -0.33300
C 	C 	0.93720 0.27520 0.21240 0.22600
H 	H 	0.87930 0.24750 0.25600 0.15200
H 	H 	0.87190 0.39110 0.24980 0.17000
C 	C 	0.93340 0.36230 0.21040 0.24600
C 	C 	0.96340 0.22620 0.19690 -0.09000
C 	C 	0.95890 0.31820 0.19390 -0.27300
C 	C 	0.95240 0.41330 0.18980 -0.13100
O 	O 	0.92090 0.20932 0.16215 -0.22700
H 	H 	0.96360 0.20250 0.22010 0.07400
H 	H 	0.00730 0.23000 0.18640 0.05600
H 	H 	0.98880 0.31810 0.17180 0.14900
O 	O 	0.00410 0.40350 0.15640 -0.23400
H 	H 	0.96880 0.43540 0.21160 0.10300
H 	H 	0.91490 0.42840 0.17650 0.08600
C 	C 	0.92910 0.16530 0.14660 0.27500
C 	C 	0.04780 0.43690 0.15640 0.23100
O 	O 	0.96790 0.13831 0.16054 -0.26400
C 	C 	0.88390 0.15480 0.11250 0.01300
O 	O 	0.07460 0.45220 0.18940 -0.24000
C 	C 	0.08200 0.42270 0.11440 0.04500
C 	C 	0.90210 0.12400 0.08710 -0.16200
C 	C 	0.82390 0.17910 0.11410 -0.10000
C 	C 	0.09930 0.37500 0.09950 0.03000
C 	C 	0.09300 0.45710 0.08040 -0.04200
C 	C 	0.86550 0.11060 0.05520 0.08300
H 	H 	0.94270 0.10990 0.09040 0.08800
H 	H 	0.81210 0.20140 0.13530 0.08200
C 	C 	0.78450 0.16560 0.07990 0.04300
C 	C 	0.14820 0.37130 0.06740 0.06600
H 	H 	0.07940 0.34700 0.11040 0.01400
H 	H 	0.06690 0.48480 0.07930 0.03800
C 	C 	0.14150 0.45160 0.04800 0.00300
N 	N 	0.80100 0.12980 0.04622 -0.22100
H 	H 	0.88180 0.08690 0.03670 -0.02200
H 	H 	0.74420 0.18050 0.07810 -0.00300
N 	N 	0.17190 0.40450 0.04580 -0.23200
H 	H 	0.16410 0.34000 0.06220 -0.03000
H 	H 	0.15260 0.47710 0.02960 0.00100
C 	C 	0.81990 0.09840 0.07060 -0.02300
H 	H 	0.80480 0.06660 0.06610 0.00100
C 	C 	0.86160 0.10550 0.10410 0.02300
H 	H 	0.87520 0.07930 0.12100 0.02100
C 	C 	0.86520 0.18840 0.08100 -0.00800
H 	H 	0.87870 0.22080 0.08380 0.03900
C 	C 	0.82910 0.17630 0.04700 -0.03000
H 	H 	0.82280 0.19830 0.02470 0.01100
C 	C 	0.10750 0.38250 0.05450 -0.02500
H 	H 	0.09070 0.36030 0.03480 0.01400
C 	C 	0.07150 0.39360 0.09030 -0.13900
H 	H 	0.03460 0.37480 0.09490 0.07800
C 	C 	0.14610 0.44230 0.11630 -0.09500
H 	H 	0.15970 0.45860 0.14090 0.07600
C 	C 	0.18830 0.43730 0.08200 0.02300
H 	H 	0.22710 0.45460 0.08180 0.00300
N 	N 	0.07090 0.94733 0.75280 -0.22300
C 	C 	0.11840 0.95200 0.78184 0.06200
C 	C 	0.07320 0.90910 0.72650 0.05700
H 	H 	0.11770 0.97860 0.80050 -0.00600
C 	C 	0.16800 0.91850 0.78490 -0.09100
C 	C 	0.12320 0.87680 0.72790 -0.09200
H 	H 	0.04020 0.90430 0.70670 0.01100
H 	H 	0.19980 0.92230 0.80560 0.07700
C 	C 	0.17030 0.88050 0.75790 0.00400
H 	H 	0.12520 0.85160 0.70790 0.07300
C 	C 	0.22340 0.84290 0.75800 0.27100
O 	O 	0.22310 0.80823 0.73649 -0.25700
O 	O 	0.26830 0.85503 0.78714 -0.21100
C 	C 	0.31840 0.81940 0.79430 -0.15100
H 	H 	0.34060 0.82670 0.82090 0.08600
H 	H 	0.29940 0.78700 0.79670 0.10200
C 	C 	0.36640 0.81990 0.75760 0.27700
C 	C 	0.39270 0.77680 0.74350 -0.32200
C 	C 	0.38870 0.86140 0.74020 -0.34500
C 	C 	0.43720 0.77520 0.71240 0.24100
H 	H 	0.37930 0.74750 0.75600 0.15600
H 	H 	0.37190 0.89110 0.74980 0.17500
C 	C 	0.43340 0.86230 0.71040 0.25600
C 	C 	0.46340 0.72620 0.69690 -0.12700
C 	C 	0.45890 0.81820 0.69390 -0.28800
C 	C 	0.45240 0.91330 0.68980 -0.15100
O 	O 	0.42090 0.70932 0.66215 -0.22100
H 	H 	0.46360 0.70250 0.72010 0.08200
H 	H 	0.50730 0.73000 0.68640 0.07700
H 	H 	0.48880 0.81810 0.67180 0.14900
O 	O 	0.50410 0.90350 0.65640 -0.22000
H 	H 	0.46880 0.93540 0.71160 0.10700
H 	H 	0.41490 0.92840 0.67650 0.09400
C 	C 	0.42910 0.66530 0.64660 0.27300
C 	C 	0.54780 0.93690 0.65640 0.23200
O 	O 	0.46790 0.63831 0.66054 -0.26700
C 	C 	0.38390 0.65480 0.61250 0.01100
O 	O 	0.57460 0.95220 0.68940 -0.23200
C 	C 	0.58200 0.92270 0.61440 0.04700
C 	C 	0.40210 0.62400 0.58710 -0.15800
C 	C 	0.32390 0.67910 0.61410 -0.10000
C 	C 	0.59930 0.87500 0.59950 0.02500
C 	C 	0.59300 0.95710 0.58040 -0.04200
C 	C 	0.36550 0.61060 0.55520 0.08200
H 	H 	0.44270 0.60990 0.59040 0.08800
H 	H 	0.31210 0.70140 0.63530 0.08200
C 	C 	0.28450 0.66560 0.57990 0.04300
C 	C 	0.64820 0.87130 0.56740 0.06000
H 	H 	0.57940 0.84700 0.61040 0.01800
H 	H 	0.56690 0.98480 0.57930 0.04800
C 	C 	0.64150 0.95160 0.54800 0.00600
N 	N 	0.30100 0.62980 0.54622 -0.21800
H 	H 	0.38180 0.58690 0.53670 -0.01600
H 	H 	0.24420 0.68050 0.57810 -0.00200
N 	N 	0.67190 0.90450 0.54580 -0.22900
H 	H 	0.66410 0.84000 0.56220 -0.02500
H 	H 	0.65260 0.97710 0.52960 0.01000
C 	C 	0.31990 0.59840 0.57060 -0.02200
H 	H 	0.30480 0.56660 0.56610 0.00400
C 	C 	0.36160 0.60550 0.60410 0.02100
H 	H 	0.37520 0.57930 0.62100 0.02300
C 	C 	0.36520 0.68840 0.58100 -0.00600
H 	H 	0.37870 0.72080 0.58380 0.03900
C 	C 	0.32910 0.67630 0.54700 -0.03000
H 	H 	0.32280 0.69830 0.52470 0.01900
C 	C 	0.60750 0.88250 0.55450 -0.01700
H 	H 	0.59070 0.86030 0.53480 0.01900
C 	C 	0.57150 0.89360 0.59030 -0.13600
H 	H 	0.53460 0.87480 0.59490 0.08200
C 	C 	0.64610 0.94230 0.61630 -0.09400
H 	H 	0.65970 0.95860 0.64090 0.07900
C 	C 	0.68830 0.93730 0.58200 0.02200
H 	H 	0.72710 0.95460 0.58180 0.00700
N 	N 	0.42910 0.55267 0.25280 -0.22500
C 	C 	0.38160 0.54800 0.28184 0.06100
C 	C 	0.42680 0.59090 0.22650 0.05600
H 	H 	0.38230 0.52140 0.30050 -0.01000
C 	C 	0.33200 0.58150 0.28490 -0.09200
C 	C 	0.37680 0.62320 0.22790 -0.09200
H 	H 	0.45980 0.59570 0.20670 0.01400
H 	H 	0.30020 0.57770 0.30560 0.07600
C 	C 	0.32970 0.61950 0.25790 0.00200
H 	H 	0.37480 0.64840 0.20790 0.07300
C 	C 	0.27660 0.65710 0.25800 0.27000
O 	O 	0.27690 0.69177 0.23649 -0.25700
O 	O 	0.23170 0.64497 0.28714 -0.21200
C 	C 	0.18160 0.68060 0.29430 -0.15400
H 	H 	0.15940 0.67330 0.32090 0.08600
H 	H 	0.20060 0.71300 0.29670 0.10200
C 	C 	0.13360 0.68010 0.25760 0.28100
C 	C 	0.10730 0.72320 0.24350 -0.33100
C 	C 	0.11130 0.63860 0.24020 -0.35100
C 	C 	0.06280 0.72480 0.21240 0.25100
H 	H 	0.12070 0.75250 0.25600 0.15900
H 	H 	0.12810 0.60890 0.24980 0.17500
C 	C 	0.06660 0.63770 0.21040 0.25900
C 	C 	0.03660 0.77380 0.19690 -0.15900
C 	C 	0.04110 0.68180 0.19390 -0.29900
C 	C 	0.04760 0.58670 0.18980 -0.16400
O 	O 	0.07910 0.79068 0.16215 -0.21700
H 	H 	0.03640 0.79750 0.22010 0.08800
H 	H 	0.99270 0.77000 0.18640 0.09600
H 	H 	0.01120 0.68190 0.17180 0.14600
O 	O 	0.99590 0.59650 0.15640 -0.21100
H 	H 	0.03120 0.56460 0.21160 0.10400
H 	H 	0.08510 0.57160 0.17650 0.09200
C 	C 	0.07090 0.83470 0.14660 0.27000
C 	C 	0.95220 0.56310 0.15640 0.23000
O 	O 	0.03210 0.86169 0.16054 -0.27100
C 	C 	0.11610 0.84520 0.11250 0.01300
O 	O 	0.92540 0.54780 0.18940 -0.23200
C 	C 	0.91800 0.57730 0.11440 0.04900
C 	C 	0.09790 0.87600 0.08710 -0.16200
C 	C 	0.17610 0.82090 0.11410 -0.10000
C 	C 	0.90070 0.62500 0.09950 0.02500
C 	C 	0.90700 0.54290 0.08040 -0.04300
C 	C 	0.13450 0.88940 0.05520 0.08200
H 	H 	0.05730 0.89010 0.09040 0.08600
H 	H 	0.18790 0.79860 0.13530 0.08200
C 	C 	0.21550 0.83440 0.07990 0.04300
C 	C 	0.85180 0.62870 0.06740 0.06500
H 	H 	0.92060 0.65300 0.11040 0.01900
H 	H 	0.93310 0.51520 0.07930 0.04500
C 	C 	0.85850 0.54840 0.04800 0.00500
N 	N 	0.19900 0.87020 0.04622 -0.22100
H 	H 	0.11820 0.91310 0.03670 -0.02100
H 	H 	0.25580 0.81950 0.07810 -0.00400
N 	N 	0.82810 0.59550 0.04580 -0.23200
H 	H 	0.83590 0.66000 0.06220 -0.02800
H 	H 	0.84740 0.52290 0.02960 0.00200
C 	C 	0.18010 0.90160 0.07060 -0.02200
H 	H 	0.19520 0.93340 0.06610 0.00300
C 	C 	0.13840 0.89450 0.10410 0.02400
H 	H 	0.12480 0.92070 0.12100 0.02200
C 	C 	0.13480 0.81160 0.08100 -0.00900
H 	H 	0.12130 0.77920 0.08380 0.03600
C 	C 	0.17090 0.82370 0.04700 -0.03000
H 	H 	0.17720 0.80170 0.02470 0.01000
C 	C 	0.89250 0.61750 0.05450 -0.02100
H 	H 	0.90930 0.63970 0.03480 0.01600
C 	C 	0.92850 0.60640 0.09030 -0.13900
H 	H 	0.96540 0.62520 0.09490 0.08300
C 	C 	0.85390 0.55770 0.11630 -0.09600
H 	H 	0.84030 0.54140 0.14090 0.07700
C 	C 	0.81170 0.56270 0.08200 0.02300
H 	H 	0.77290 0.54540 0.08180 0.00300
N 	N 	0.92910 0.05267 0.75280 -0.22300
C 	C 	0.88160 0.04800 0.78184 0.06000
C 	C 	0.92680 0.09090 0.72650 0.05500
H 	H 	0.88230 0.02140 0.80050 -0.01100
C 	C 	0.83200 0.08150 0.78490 -0.09200
C 	C 	0.87680 0.12320 0.72790 -0.09100
H 	H 	0.95980 0.09570 0.70670 0.01900
H 	H 	0.80020 0.07770 0.80560 0.07500
C 	C 	0.82970 0.11950 0.75790 0.00200
H 	H 	0.87480 0.14840 0.70790 0.07400
C 	C 	0.77660 0.15710 0.75800 0.27100
O 	O 	0.77690 0.19177 0.73649 -0.25700
O 	O 	0.73170 0.14497 0.78714 -0.21300
C 	C 	0.68160 0.18060 0.79430 -0.14900
H 	H 	0.65940 0.17330 0.82090 0.08500
H 	H 	0.70060 0.21300 0.79670 0.10200
C 	C 	0.63360 0.18010 0.75760 0.27400
C 	C 	0.60730 0.22320 0.74350 -0.31900
C 	C 	0.61130 0.13860 0.74020 -0.34100
C 	C 	0.56280 0.22480 0.71240 0.23800
H 	H 	0.62070 0.25250 0.75600 0.15500
H 	H 	0.62810 0.10890 0.74980 0.17100
C 	C 	0.56660 0.13770 0.71040 0.25100
C 	C 	0.53660 0.27380 0.69690 -0.12500
C 	C 	0.54110 0.18180 0.69390 -0.28500
C 	C 	0.54760 0.08670 0.68980 -0.14500
O 	O 	0.57910 0.29068 0.66215 -0.22200
H 	H 	0.53640 0.29750 0.72010 0.08100
H 	H 	0.49270 0.27000 0.68640 0.07700
H 	H 	0.51120 0.18190 0.67180 0.14800
O 	O 	0.49590 0.09650 0.65640 -0.22300
H 	H 	0.53120 0.06460 0.71160 0.10100
H 	H 	0.58510 0.07160 0.67650 0.08600
C 	C 	0.57090 0.33470 0.64660 0.27400
C 	C 	0.45220 0.06310 0.65640 0.22900
O 	O 	0.53210 0.36169 0.66054 -0.26800
C 	C 	0.61610 0.34520 0.61250 0.01100
O 	O 	0.42540 0.04780 0.68940 -0.24000
C 	C 	0.41800 0.07730 0.61440 0.04500
C 	C 	0.59790 0.37600 0.58710 -0.15800
C 	C 	0.67610 0.32090 0.61410 -0.10000
C 	C 	0.40070 0.12500 0.59950 0.02700
C 	C 	0.40700 0.04290 0.58040 -0.04100
C 	C 	0.63450 0.38940 0.55520 0.08200
H 	H 	0.55730 0.39010 0.59040 0.08800
H 	H 	0.68790 0.29860 0.63530 0.08200
C 	C 	0.71550 0.33440 0.57990 0.04300
C 	C 	0.35180 0.12870 0.56740 0.06200
H 	H 	0.42060 0.15300 0.61040 0.01700
H 	H 	0.43310 0.01520 0.57930 0.03900
C 	C 	0.35850 0.04840 0.54800 0.00400
N 	N 	0.69900 0.37020 0.54622 -0.21800
H 	H 	0.61820 0.41310 0.53670 -0.01500
H 	H 	0.75580 0.31950 0.57810 -0.00200
N 	N 	0.32810 0.09550 0.54580 -0.22900
H 	H 	0.33590 0.16000 0.56220 -0.02600
H 	H 	0.34740 0.02290 0.52960 0.00600
C 	C 	0.68010 0.40160 0.57060 -0.02200
H 	H 	0.69520 0.43340 0.56610 0.00400
C 	C 	0.63840 0.39450 0.60410 0.02200
H 	H 	0.62480 0.42070 0.62100 0.02300
C 	C 	0.63480 0.31160 0.58100 -0.00600
H 	H 	0.62130 0.27920 0.58380 0.03900
C 	C 	0.67090 0.32370 0.54700 -0.03000
H 	H 	0.67720 0.30170 0.52470 0.01800
C 	C 	0.39250 0.11750 0.55450 -0.02000
H 	H 	0.40930 0.13970 0.53480 0.02000
C 	C 	0.42850 0.10640 0.59030 -0.13600
H 	H 	0.46540 0.12520 0.59490 0.08100
C 	C 	0.35390 0.05770 0.61630 -0.09500
H 	H 	0.34030 0.04140 0.64090 0.07400
C 	C 	0.31170 0.06270 0.58200 0.02200
H 	H 	0.27290 0.04540 0.58180 0.00300
Cu	Cu	0.00000 0.00000 0.25000 0.83800
Cu	Cu	0.50000 0.50000 0.75000 0.85000
Cu	Cu	0.00000 0.00000 0.75000 0.83800
Cu	Cu	0.50000 0.50000 0.25000 0.85000
Cu	Cu	0.23580 0.38789 -0.00000 0.84100
Cu	Cu	0.73580 0.88789 0.50000 0.85100
Cu	Cu	0.76420 0.61211 -0.00000 0.84100
Cu	Cu	0.26420 0.11211 0.50000 0.85000
Cu	Cu	0.26420 0.88789 -0.00000 0.84100
Cu	Cu	0.76420 0.38789 0.50000 0.85100
Cu	Cu	0.73580 0.11211 -0.00000 0.84100
Cu	Cu	0.23580 0.61211 0.50000 0.85100
