data_crystal

_cell_length_a 41.18950
_cell_length_b 20.63340
_cell_length_c 27.09790
_cell_angle_alpha 90.00000
_cell_angle_beta  129.77200
_cell_angle_gamma 90.00000

_symmetry_space_group_name_	'P 1'
_symmetry_space_group_name_H-M	'P 1'

loop_
_symmetry_equiv_pos_as_xyz
  x,y,z

loop_
_atom_site_label
_atom_site_type_symbol
_atom_site_fract_x
_atom_site_fract_y
_atom_site_fract_z
_atom_site_charge
Cu	Cu	0.25288 0.99004 0.11360 0.85100
O 	O 	0.48760 0.52200 0.92960 -0.22600
O 	O 	0.53950 0.48100 0.93260 -0.22100
O 	O 	0.40440 0.27490 0.01700 -0.25300
O 	O 	0.41700 0.33540 0.96230 -0.21900
O 	O 	0.39300 0.24700 0.67200 -0.23100
O 	O 	0.41820 0.23170 0.77300 -0.22700
O 	O 	0.47960 0.97070 0.53580 -0.24400
O 	O 	0.52740 0.01980 0.63030 -0.22200
O 	O 	0.42720 0.31400 0.61500 -0.25300
O 	O 	0.38700 0.23610 0.54840 -0.25400
O 	O 	0.41700 0.21270 0.30250 -0.25800
O 	O 	0.40250 0.18590 0.36560 -0.23100
N 	N 	0.50390 0.67880 0.80540 -0.22900
N 	N 	0.29430 0.44810 0.91410 -0.23200
N 	N 	0.29980 0.07440 0.64660 -0.23400
N 	N 	0.50100 0.82010 0.69820 -0.22200
N 	N 	0.29170 0.42280 0.44660 -0.23800
N 	N 	0.29690 0.05670 0.17470 -0.22700
C 	C 	0.53440 0.63430 0.83180 0.06200
H 	H 	0.55460 0.63790 0.82560 -0.00700
C 	C 	0.53750 0.58370 0.86740 -0.08500
H 	H 	0.55960 0.55270 0.88540 0.07500
C 	C 	0.50900 0.57780 0.87710 0.00300
C 	C 	0.47820 0.62290 0.85090 -0.08700
H 	H 	0.45780 0.62040 0.85660 0.07100
C 	C 	0.47690 0.67320 0.81520 0.05900
H 	H 	0.45520 0.70480 0.79710 0.01200
C 	C 	0.51150 0.52400 0.91560 0.25100
C 	C 	0.54720 0.43050 0.97700 -0.08700
H 	H 	0.54930 0.45080 0.01210 0.08300
H 	H 	0.57450 0.40920 0.99650 0.06800
C 	C 	0.32500 0.46510 0.91300 0.05800
H 	H 	0.32420 0.50690 0.89750 -0.00700
C 	C 	0.35790 0.42450 0.93330 -0.08600
H 	H 	0.37840 0.43780 0.92970 0.07900
C 	C 	0.36140 0.36580 0.95860 -0.00400
C 	C 	0.33060 0.34820 0.96160 -0.08900
H 	H 	0.33240 0.30820 0.98060 0.06900
C 	C 	0.29720 0.38940 0.93700 0.05600
H 	H 	0.27490 0.37510 0.93610 -0.01000
C 	C 	0.39640 0.32020 0.98270 0.26400
C 	C 	0.45140 0.29100 0.98110 -0.09000
H 	H 	0.47460 0.29290 0.02810 0.07000
H 	H 	0.44080 0.24590 0.96920 0.06800
C 	C 	0.30460 0.10000 0.60660 0.06200
H 	H 	0.28750 0.08520 0.56350 -0.01200
C 	C 	0.33480 0.14900 0.62700 -0.10300
H 	H 	0.33660 0.17010 0.59780 0.08400
C 	C 	0.36100 0.16500 0.69000 0.01900
C 	C 	0.35630 0.13960 0.73030 -0.10600
H 	H 	0.37350 0.15340 0.77380 0.07500
C 	C 	0.32650 0.09400 0.70790 0.06900
H 	H 	0.32420 0.07450 0.73730 -0.01000
C 	C 	0.39300 0.22000 0.71200 0.25400
C 	C 	0.45200 0.27800 0.79600 -0.09500
H 	H 	0.44150 0.31370 0.76460 0.08500
H 	H 	0.47590 0.25680 0.80270 0.08000
C 	C 	0.46610 0.30520 0.85760 0.17500
C 	C 	0.49590 0.35220 0.88550 -0.22300
H 	H 	0.50580 0.36690 0.86400 0.13200
C 	C 	0.51270 0.37990 0.94430 0.18000
C 	C 	0.49750 0.35920 0.97360 -0.22100
H 	H 	0.50840 0.37790 0.01360 0.12300
C 	C 	0.46660 0.31160 0.94720 0.16600
C 	C 	0.45050 0.28550 0.88830 -0.20600
H 	H 	0.42870 0.25390 0.86860 0.11800
C 	C 	0.47490 0.81960 0.63430 0.05100
H 	H 	0.45570 0.78460 0.61220 0.01700
C 	C 	0.47460 0.86730 0.59960 -0.07600
H 	H 	0.45580 0.86520 0.55410 0.07000
C 	C 	0.50260 0.91970 0.63210 -0.01000
C 	C 	0.52960 0.91990 0.69720 -0.07300
H 	H 	0.54880 0.95490 0.72020 0.07000
C 	C 	0.52920 0.86940 0.72970 0.05000
H 	H 	0.54900 0.86890 0.77530 -0.00300
C 	C 	0.50050 0.97280 0.59300 0.26700
C 	C 	0.53290 0.07170 0.59860 -0.08300
H 	H 	0.53480 0.05240 0.56710 0.09000
H 	H 	0.55950 0.09540 0.63100 0.06800
C 	C 	0.32290 0.43760 0.50620 0.06500
H 	H 	0.32230 0.47860 0.52160 -0.01200
C 	C 	0.35720 0.39700 0.54900 -0.08500
H 	H 	0.37890 0.40950 0.59230 0.07700
C 	C 	0.35850 0.34000 0.52700 -0.00800
C 	C 	0.32680 0.32400 0.46600 -0.08600
H 	H 	0.32720 0.28350 0.44900 0.07100
C 	C 	0.29200 0.36800 0.42600 0.06800
H 	H 	0.26880 0.35560 0.38310 -0.01200
C 	C 	0.39400 0.29300 0.56900 0.30800
C 	C 	0.42000 0.18900 0.58800 -0.02600
H 	H 	0.40780 0.14670 0.58640 0.05400
H 	H 	0.43970 0.20360 0.63330 0.06600
C 	C 	0.32670 0.07210 0.17230 0.05000
H 	H 	0.32620 0.05420 0.13950 -0.00900
C 	C 	0.35940 0.11460 0.21720 -0.06800
H 	H 	0.38090 0.12410 0.21480 0.06100
C 	C 	0.36100 0.14250 0.26440 -0.02900
C 	C 	0.32880 0.12590 0.26510 -0.06400
H 	H 	0.32870 0.14300 0.29760 0.06600
C 	C 	0.29700 0.08520 0.21970 0.04000
H 	H 	0.27440 0.07680 0.21980 -0.00100
C 	C 	0.39560 0.18380 0.31150 0.28100
C 	C 	0.43770 0.22330 0.41800 -0.05600
H 	H 	0.42900 0.26880 0.41490 0.05600
H 	H 	0.46100 0.22280 0.41630 0.06300
C 	C 	0.49640 0.11800 0.56490 0.15100
C 	C 	0.47610 0.13460 0.58910 -0.18100
H 	H 	0.48400 0.11330 0.62640 0.10600
C 	C 	0.44520 0.18040 0.56050 0.11900
C 	C 	0.43140 0.21030 0.50280 -0.15900
H 	H 	0.40870 0.24050 0.48120 0.10200
C 	C 	0.45180 0.19440 0.47830 0.13400
C 	C 	0.48350 0.14920 0.50980 -0.19000
H 	H 	0.49720 0.13870 0.49300 0.10800
Cu	Cu	0.75288 0.49004 0.11360 0.85200
O 	O 	0.98760 0.02200 0.92960 -0.22200
O 	O 	0.03950 0.98100 0.93260 -0.22300
O 	O 	0.90440 0.77490 0.01700 -0.25400
O 	O 	0.91700 0.83540 0.96230 -0.22000
O 	O 	0.89300 0.74700 0.67200 -0.23100
O 	O 	0.91820 0.73170 0.77300 -0.22800
O 	O 	0.97960 0.47070 0.53580 -0.23800
O 	O 	0.02740 0.51980 0.63030 -0.22000
O 	O 	0.92720 0.81400 0.61500 -0.25300
O 	O 	0.88700 0.73610 0.54840 -0.25400
O 	O 	0.91700 0.71270 0.30250 -0.25700
O 	O 	0.90250 0.68590 0.36560 -0.23000
N 	N 	0.00390 0.17880 0.80540 -0.23100
N 	N 	0.79430 0.94810 0.91410 -0.23200
N 	N 	0.79980 0.57440 0.64660 -0.23400
N 	N 	0.00100 0.32010 0.69820 -0.22500
N 	N 	0.79170 0.92280 0.44660 -0.23800
N 	N 	0.79690 0.55670 0.17470 -0.22700
C 	C 	0.03440 0.13430 0.83180 0.05900
H 	H 	0.05460 0.13790 0.82560 -0.00700
C 	C 	0.03750 0.08370 0.86740 -0.08200
H 	H 	0.05960 0.05270 0.88540 0.07400
C 	C 	0.00900 0.07780 0.87710 -0.00400
C 	C 	0.97820 0.12290 0.85090 -0.08000
H 	H 	0.95780 0.12040 0.85660 0.07000
C 	C 	0.97690 0.17320 0.81520 0.06200
H 	H 	0.95520 0.20480 0.79710 0.01200
C 	C 	0.01150 0.02400 0.91560 0.24700
C 	C 	0.04720 0.93050 0.97700 -0.06900
H 	H 	0.04930 0.95080 0.01210 0.07700
H 	H 	0.07450 0.90920 0.99650 0.06400
C 	C 	0.82500 0.96510 0.91300 0.06000
H 	H 	0.82420 0.00690 0.89750 -0.00800
C 	C 	0.85790 0.92450 0.93330 -0.08700
H 	H 	0.87840 0.93780 0.92970 0.08000
C 	C 	0.86140 0.86580 0.95860 -0.00400
C 	C 	0.83060 0.84820 0.96160 -0.08900
H 	H 	0.83240 0.80820 0.98060 0.06900
C 	C 	0.79720 0.88940 0.93700 0.05600
H 	H 	0.77490 0.87510 0.93610 -0.01000
C 	C 	0.89640 0.82020 0.98270 0.26600
C 	C 	0.95140 0.79100 0.98110 -0.07800
H 	H 	0.97460 0.79290 0.02810 0.06900
H 	H 	0.94080 0.74590 0.96920 0.06600
C 	C 	0.80460 0.60000 0.60660 0.06200
H 	H 	0.78750 0.58520 0.56350 -0.01200
C 	C 	0.83480 0.64900 0.62700 -0.10300
H 	H 	0.83660 0.67010 0.59780 0.08400
C 	C 	0.86100 0.66500 0.69000 0.01900
C 	C 	0.85630 0.63960 0.73030 -0.10600
H 	H 	0.87350 0.65340 0.77380 0.07600
C 	C 	0.82650 0.59400 0.70790 0.07000
H 	H 	0.82420 0.57450 0.73730 -0.01000
C 	C 	0.89300 0.72000 0.71200 0.25400
C 	C 	0.95200 0.77800 0.79600 -0.08400
H 	H 	0.94150 0.81370 0.76460 0.08300
H 	H 	0.97590 0.75680 0.80270 0.07800
C 	C 	0.96610 0.80520 0.85760 0.15600
C 	C 	0.99590 0.85220 0.88550 -0.18800
H 	H 	0.00580 0.86690 0.86400 0.11700
C 	C 	0.01270 0.87990 0.94430 0.14600
C 	C 	0.99750 0.85920 0.97360 -0.18400
H 	H 	0.00840 0.87790 0.01360 0.10800
C 	C 	0.96660 0.81160 0.94720 0.14700
C 	C 	0.95050 0.78550 0.88830 -0.18700
H 	H 	0.92870 0.75390 0.86860 0.11300
C 	C 	0.97490 0.31960 0.63430 0.05500
H 	H 	0.95570 0.28460 0.61220 0.01700
C 	C 	0.97460 0.36730 0.59960 -0.07100
H 	H 	0.95580 0.36520 0.55410 0.07000
C 	C 	0.00260 0.41970 0.63210 -0.01400
C 	C 	0.02960 0.41990 0.69720 -0.07200
H 	H 	0.04880 0.45490 0.72020 0.06900
C 	C 	0.02920 0.36940 0.72970 0.04800
H 	H 	0.04900 0.36890 0.77530 -0.00300
C 	C 	0.00050 0.47280 0.59300 0.26000
C 	C 	0.03290 0.57170 0.59860 -0.09300
H 	H 	0.03480 0.55240 0.56710 0.09100
H 	H 	0.05950 0.59540 0.63100 0.07000
C 	C 	0.82290 0.93760 0.50620 0.06500
H 	H 	0.82230 0.97860 0.52160 -0.01200
C 	C 	0.85720 0.89700 0.54900 -0.08500
H 	H 	0.87890 0.90950 0.59230 0.07700
C 	C 	0.85850 0.84000 0.52700 -0.00800
C 	C 	0.82680 0.82400 0.46600 -0.08600
H 	H 	0.82720 0.78350 0.44900 0.07100
C 	C 	0.79200 0.86800 0.42600 0.06800
H 	H 	0.76880 0.85560 0.38310 -0.01200
C 	C 	0.89400 0.79300 0.56900 0.30700
C 	C 	0.92000 0.68900 0.58800 -0.02800
H 	H 	0.90780 0.64670 0.58640 0.05400
H 	H 	0.93970 0.70360 0.63330 0.06700
C 	C 	0.82670 0.57210 0.17230 0.05000
H 	H 	0.82620 0.55420 0.13950 -0.00900
C 	C 	0.85940 0.61460 0.21720 -0.06800
H 	H 	0.88090 0.62410 0.21480 0.06100
C 	C 	0.86100 0.64250 0.26440 -0.02900
C 	C 	0.82880 0.62590 0.26510 -0.06400
H 	H 	0.82870 0.64300 0.29760 0.06600
C 	C 	0.79700 0.58520 0.21970 0.04000
H 	H 	0.77440 0.57680 0.21980 -0.00100
C 	C 	0.89560 0.68380 0.31150 0.28100
C 	C 	0.93770 0.72330 0.41800 -0.05900
H 	H 	0.92900 0.76880 0.41490 0.05700
H 	H 	0.96100 0.72280 0.41630 0.06400
C 	C 	0.99640 0.61800 0.56490 0.16100
C 	C 	0.97610 0.63460 0.58910 -0.18600
H 	H 	0.98400 0.61330 0.62640 0.10900
C 	C 	0.94520 0.68040 0.56050 0.12300
C 	C 	0.93140 0.71030 0.50280 -0.16200
H 	H 	0.90870 0.74050 0.48120 0.10300
C 	C 	0.95180 0.69440 0.47830 0.13800
C 	C 	0.98350 0.64920 0.50980 -0.19600
H 	H 	0.99720 0.63870 0.49300 0.11100
Cu	Cu	0.74712 0.99004 0.38640 0.85200
O 	O 	0.51240 0.52200 0.57040 -0.22600
O 	O 	0.46050 0.48100 0.56740 -0.22100
O 	O 	0.59560 0.27490 0.48300 -0.25500
O 	O 	0.58300 0.33540 0.53770 -0.21900
O 	O 	0.60700 0.24700 0.82800 -0.23100
O 	O 	0.58180 0.23170 0.72700 -0.22700
O 	O 	0.52040 0.97070 0.96420 -0.24400
O 	O 	0.47260 0.01980 0.86970 -0.22200
O 	O 	0.57280 0.31400 0.88500 -0.25300
O 	O 	0.61300 0.23610 0.95160 -0.25500
O 	O 	0.58300 0.21270 0.19750 -0.25800
O 	O 	0.59750 0.18590 0.13440 -0.23000
N 	N 	0.49610 0.67880 0.69460 -0.22900
N 	N 	0.70570 0.44810 0.58590 -0.23200
N 	N 	0.70020 0.07440 0.85340 -0.23400
N 	N 	0.49900 0.82010 0.80180 -0.22200
N 	N 	0.70830 0.42280 0.05340 -0.23700
N 	N 	0.70310 0.05670 0.32530 -0.22700
C 	C 	0.46560 0.63430 0.66820 0.06200
H 	H 	0.44540 0.63790 0.67440 -0.00700
C 	C 	0.46250 0.58370 0.63260 -0.08500
H 	H 	0.44040 0.55270 0.61460 0.07500
C 	C 	0.49100 0.57780 0.62290 0.00300
C 	C 	0.52180 0.62290 0.64910 -0.08700
H 	H 	0.54220 0.62040 0.64340 0.07100
C 	C 	0.52310 0.67320 0.68480 0.05900
H 	H 	0.54480 0.70480 0.70290 0.01200
C 	C 	0.48850 0.52400 0.58440 0.25100
C 	C 	0.45280 0.43050 0.52300 -0.08500
H 	H 	0.45070 0.45080 0.48790 0.08200
H 	H 	0.42550 0.40920 0.50350 0.06800
C 	C 	0.67500 0.46510 0.58700 0.05800
H 	H 	0.67580 0.50690 0.60250 -0.00700
C 	C 	0.64210 0.42450 0.56670 -0.08600
H 	H 	0.62160 0.43780 0.57030 0.07900
C 	C 	0.63860 0.36580 0.54140 -0.00500
C 	C 	0.66940 0.34820 0.53840 -0.08900
H 	H 	0.66760 0.30820 0.51940 0.06900
C 	C 	0.70280 0.38940 0.56300 0.05600
H 	H 	0.72510 0.37510 0.56390 -0.00900
C 	C 	0.60360 0.32020 0.51730 0.26600
C 	C 	0.54860 0.29100 0.51890 -0.08700
H 	H 	0.52540 0.29290 0.47190 0.06900
H 	H 	0.55920 0.24590 0.53080 0.06800
C 	C 	0.69540 0.10000 0.89340 0.06200
H 	H 	0.71250 0.08520 0.93650 -0.01200
C 	C 	0.66520 0.14900 0.87300 -0.10300
H 	H 	0.66340 0.17010 0.90220 0.08400
C 	C 	0.63900 0.16500 0.81000 0.01900
C 	C 	0.64370 0.13960 0.76970 -0.10600
H 	H 	0.62650 0.15340 0.72620 0.07500
C 	C 	0.67350 0.09400 0.79210 0.06900
H 	H 	0.67580 0.07450 0.76270 -0.01000
C 	C 	0.60700 0.22000 0.78800 0.25400
C 	C 	0.54800 0.27800 0.70400 -0.09400
H 	H 	0.55850 0.31370 0.73540 0.08500
H 	H 	0.52410 0.25680 0.69730 0.08000
C 	C 	0.53390 0.30520 0.64240 0.17400
C 	C 	0.50410 0.35220 0.61450 -0.22200
H 	H 	0.49420 0.36690 0.63600 0.13100
C 	C 	0.48730 0.37990 0.55570 0.17800
C 	C 	0.50250 0.35920 0.52640 -0.21800
H 	H 	0.49160 0.37790 0.48640 0.12200
C 	C 	0.53340 0.31160 0.55280 0.16500
C 	C 	0.54950 0.28550 0.61170 -0.20400
H 	H 	0.57130 0.25390 0.63140 0.11800
C 	C 	0.52510 0.81960 0.86570 0.05100
H 	H 	0.54430 0.78460 0.88780 0.01700
C 	C 	0.52540 0.86730 0.90040 -0.07600
H 	H 	0.54420 0.86520 0.94590 0.07000
C 	C 	0.49740 0.91970 0.86790 -0.01000
C 	C 	0.47040 0.91990 0.80280 -0.07300
H 	H 	0.45120 0.95490 0.77980 0.07000
C 	C 	0.47080 0.86940 0.77030 0.05000
H 	H 	0.45100 0.86890 0.72470 -0.00300
C 	C 	0.49950 0.97280 0.90700 0.26800
C 	C 	0.46710 0.07170 0.90140 -0.08500
H 	H 	0.46520 0.05240 0.93290 0.09000
H 	H 	0.44050 0.09540 0.86900 0.06800
C 	C 	0.67710 0.43760 0.99380 0.06300
H 	H 	0.67770 0.47860 0.97840 -0.01200
C 	C 	0.64280 0.39700 0.95100 -0.08300
H 	H 	0.62110 0.40950 0.90770 0.07600
C 	C 	0.64150 0.34000 0.97300 -0.01000
C 	C 	0.67320 0.32400 0.03400 -0.08400
H 	H 	0.67280 0.28350 0.05100 0.07100
C 	C 	0.70800 0.36800 0.07400 0.06700
H 	H 	0.73120 0.35560 0.11690 -0.01100
C 	C 	0.60600 0.29300 0.93100 0.30800
C 	C 	0.58000 0.18900 0.91200 -0.02800
H 	H 	0.59220 0.14670 0.91360 0.05400
H 	H 	0.56030 0.20360 0.86670 0.06600
C 	C 	0.67330 0.07210 0.32770 0.05000
H 	H 	0.67380 0.05420 0.36050 -0.00900
C 	C 	0.64060 0.11460 0.28280 -0.06800
H 	H 	0.61910 0.12410 0.28520 0.06100
C 	C 	0.63900 0.14250 0.23560 -0.02900
C 	C 	0.67120 0.12590 0.23490 -0.06400
H 	H 	0.67130 0.14300 0.20240 0.06600
C 	C 	0.70300 0.08520 0.28030 0.04000
H 	H 	0.72560 0.07680 0.28020 -0.00100
C 	C 	0.60440 0.18380 0.18850 0.28100
C 	C 	0.56230 0.22330 0.08200 -0.06000
H 	H 	0.57100 0.26880 0.08510 0.05700
H 	H 	0.53900 0.22280 0.08370 0.06400
C 	C 	0.50360 0.11800 0.93510 0.15500
C 	C 	0.52390 0.13460 0.91090 -0.18400
H 	H 	0.51600 0.11330 0.87360 0.10700
C 	C 	0.55480 0.18040 0.93950 0.12300
C 	C 	0.56860 0.21030 0.99720 -0.16600
H 	H 	0.59130 0.24050 0.01880 0.10500
C 	C 	0.54820 0.19440 0.02170 0.14100
C 	C 	0.51650 0.14920 0.99020 -0.19800
H 	H 	0.50280 0.13870 0.00700 0.11100
Cu	Cu	0.24712 0.49004 0.38640 0.85200
O 	O 	0.01240 0.02200 0.57040 -0.23000
O 	O 	0.96050 0.98100 0.56740 -0.21900
O 	O 	0.09560 0.77490 0.48300 -0.25500
O 	O 	0.08300 0.83540 0.53770 -0.21700
O 	O 	0.10700 0.74700 0.82800 -0.23100
O 	O 	0.08180 0.73170 0.72700 -0.22600
O 	O 	0.02040 0.47070 0.96420 -0.25000
O 	O 	0.97260 0.51980 0.86970 -0.22400
O 	O 	0.07280 0.81400 0.88500 -0.25400
O 	O 	0.11300 0.73610 0.95160 -0.25500
O 	O 	0.08300 0.71270 0.19750 -0.25800
O 	O 	0.09750 0.68590 0.13440 -0.23100
N 	N 	0.99610 0.17880 0.69460 -0.22500
N 	N 	0.20570 0.94810 0.58590 -0.23200
N 	N 	0.20020 0.57440 0.85340 -0.23400
N 	N 	0.99900 0.32010 0.80180 -0.21800
N 	N 	0.20830 0.92280 0.05340 -0.23800
N 	N 	0.20310 0.55670 0.32530 -0.22700
C 	C 	0.96560 0.13430 0.66820 0.06400
H 	H 	0.94540 0.13790 0.67440 -0.00700
C 	C 	0.96250 0.08370 0.63260 -0.08700
H 	H 	0.94040 0.05270 0.61460 0.07600
C 	C 	0.99100 0.07780 0.62290 0.00900
C 	C 	0.02180 0.12290 0.64910 -0.09400
H 	H 	0.04220 0.12040 0.64340 0.07300
C 	C 	0.02310 0.17320 0.68480 0.05500
H 	H 	0.04480 0.20480 0.70290 0.01300
C 	C 	0.98850 0.02400 0.58440 0.25400
C 	C 	0.95280 0.93050 0.52300 -0.10300
H 	H 	0.95070 0.95080 0.48790 0.08700
H 	H 	0.92550 0.90920 0.50350 0.07300
C 	C 	0.17500 0.96510 0.58700 0.05900
H 	H 	0.17580 0.00690 0.60250 -0.00700
C 	C 	0.14210 0.92450 0.56670 -0.08600
H 	H 	0.12160 0.93780 0.57030 0.07900
C 	C 	0.13860 0.86580 0.54140 -0.00400
C 	C 	0.16940 0.84820 0.53840 -0.08900
H 	H 	0.16760 0.80820 0.51940 0.06900
C 	C 	0.20280 0.88940 0.56300 0.05600
H 	H 	0.22510 0.87510 0.56390 -0.00900
C 	C 	0.10360 0.82020 0.51730 0.26500
C 	C 	0.04860 0.79100 0.51890 -0.09800
H 	H 	0.02540 0.79290 0.47190 0.07100
H 	H 	0.05920 0.74590 0.53080 0.07000
C 	C 	0.19540 0.60000 0.89340 0.06200
H 	H 	0.21250 0.58520 0.93650 -0.01200
C 	C 	0.16520 0.64900 0.87300 -0.10300
H 	H 	0.16340 0.67010 0.90220 0.08400
C 	C 	0.13900 0.66500 0.81000 0.01900
C 	C 	0.14370 0.63960 0.76970 -0.10600
H 	H 	0.12650 0.65340 0.72620 0.07500
C 	C 	0.17350 0.59400 0.79210 0.06900
H 	H 	0.17580 0.57450 0.76270 -0.01000
C 	C 	0.10700 0.72000 0.78800 0.25300
C 	C 	0.04800 0.77800 0.70400 -0.10600
H 	H 	0.05850 0.81370 0.73540 0.08800
H 	H 	0.02410 0.75680 0.69730 0.08200
C 	C 	0.03390 0.80520 0.64240 0.19500
C 	C 	0.00410 0.85220 0.61450 -0.25900
H 	H 	0.99420 0.86690 0.63600 0.14600
C 	C 	0.98730 0.87990 0.55570 0.21200
C 	C 	0.00250 0.85920 0.52640 -0.25500
H 	H 	0.99160 0.87790 0.48640 0.13700
C 	C 	0.03340 0.81160 0.55280 0.18400
C 	C 	0.04950 0.78550 0.61170 -0.22300
H 	H 	0.07130 0.75390 0.63140 0.12400
C 	C 	0.02510 0.31960 0.86570 0.04700
H 	H 	0.04430 0.28460 0.88780 0.01800
C 	C 	0.02540 0.36730 0.90040 -0.08100
H 	H 	0.04420 0.36520 0.94590 0.07100
C 	C 	0.99740 0.41970 0.86790 -0.00600
C 	C 	0.97040 0.41990 0.80280 -0.07400
H 	H 	0.95120 0.45490 0.77980 0.07100
C 	C 	0.97080 0.36940 0.77030 0.05200
H 	H 	0.95100 0.36890 0.72470 -0.00300
C 	C 	0.99950 0.47280 0.90700 0.27300
C 	C 	0.96710 0.57170 0.90140 -0.07400
H 	H 	0.96520 0.55240 0.93290 0.08800
H 	H 	0.94050 0.59540 0.86900 0.06600
C 	C 	0.17710 0.93760 0.99380 0.06600
H 	H 	0.17770 0.97860 0.97840 -0.01200
C 	C 	0.14280 0.89700 0.95100 -0.08500
H 	H 	0.12110 0.90950 0.90770 0.07700
C 	C 	0.14150 0.84000 0.97300 -0.00800
C 	C 	0.17320 0.82400 0.03400 -0.08600
H 	H 	0.17280 0.78350 0.05100 0.07100
C 	C 	0.20800 0.86800 0.07400 0.06800
H 	H 	0.23120 0.85560 0.11690 -0.01200
C 	C 	0.10600 0.79300 0.93100 0.30800
C 	C 	0.08000 0.68900 0.91200 -0.02500
H 	H 	0.09220 0.64670 0.91360 0.05300
H 	H 	0.06030 0.70360 0.86670 0.06400
C 	C 	0.17330 0.57210 0.32770 0.05000
H 	H 	0.17380 0.55420 0.36050 -0.01000
C 	C 	0.14060 0.61460 0.28280 -0.06800
H 	H 	0.11910 0.62410 0.28520 0.06000
C 	C 	0.13900 0.64250 0.23560 -0.02900
C 	C 	0.17120 0.62590 0.23490 -0.06400
H 	H 	0.17130 0.64300 0.20240 0.06600
C 	C 	0.20300 0.58520 0.28030 0.04000
H 	H 	0.22560 0.57680 0.28020 -0.00100
C 	C 	0.10440 0.68380 0.18850 0.28100
C 	C 	0.06230 0.72330 0.08200 -0.05400
H 	H 	0.07100 0.76880 0.08510 0.05500
H 	H 	0.03900 0.72280 0.08370 0.06100
C 	C 	0.00360 0.61800 0.93510 0.14300
C 	C 	0.02390 0.63460 0.91090 -0.17700
H 	H 	0.01600 0.61330 0.87360 0.10300
C 	C 	0.05480 0.68040 0.93950 0.11700
C 	C 	0.06860 0.71030 0.99720 -0.15900
H 	H 	0.09130 0.74050 0.01880 0.10200
C 	C 	0.04820 0.69440 0.02170 0.13200
C 	C 	0.01650 0.64920 0.99020 -0.18700
H 	H 	0.00280 0.63870 0.00700 0.10500
Cu	Cu	0.74712 0.00996 0.88640 0.85100
O 	O 	0.51240 0.47800 0.07040 -0.22600
O 	O 	0.46050 0.51900 0.06740 -0.22200
O 	O 	0.59560 0.72510 0.98300 -0.25500
O 	O 	0.58300 0.66460 0.03770 -0.21900
O 	O 	0.60700 0.75300 0.32800 -0.23100
O 	O 	0.58180 0.76830 0.22700 -0.22700
O 	O 	0.52040 0.02930 0.46420 -0.24400
O 	O 	0.47260 0.98020 0.36970 -0.22200
O 	O 	0.57280 0.68600 0.38500 -0.25300
O 	O 	0.61300 0.76390 0.45160 -0.25400
O 	O 	0.58300 0.78730 0.69750 -0.25800
O 	O 	0.59750 0.81410 0.63440 -0.23100
N 	N 	0.49610 0.32120 0.19460 -0.22900
N 	N 	0.70570 0.55190 0.08590 -0.23200
N 	N 	0.70020 0.92560 0.35340 -0.23400
N 	N 	0.49900 0.17990 0.30180 -0.22200
N 	N 	0.70830 0.57720 0.55340 -0.23800
N 	N 	0.70310 0.94330 0.82530 -0.22700
C 	C 	0.46560 0.36570 0.16820 0.06200
H 	H 	0.44540 0.36210 0.17440 -0.00700
C 	C 	0.46250 0.41630 0.13260 -0.08400
H 	H 	0.44040 0.44730 0.11460 0.07500
C 	C 	0.49100 0.42220 0.12290 0.00300
C 	C 	0.52180 0.37710 0.14910 -0.08700
H 	H 	0.54220 0.37960 0.14340 0.07100
C 	C 	0.52310 0.32680 0.18480 0.05900
H 	H 	0.54480 0.29520 0.20290 0.01200
C 	C 	0.48850 0.47600 0.08440 0.25100
C 	C 	0.45280 0.56950 0.02300 -0.08400
H 	H 	0.45070 0.54920 0.98790 0.08100
H 	H 	0.42550 0.59080 0.00350 0.06800
C 	C 	0.67500 0.53490 0.08700 0.05800
H 	H 	0.67580 0.49310 0.10250 -0.00700
C 	C 	0.64210 0.57550 0.06670 -0.08500
H 	H 	0.62160 0.56220 0.07030 0.07900
C 	C 	0.63860 0.63420 0.04140 -0.00500
C 	C 	0.66940 0.65180 0.03840 -0.08900
H 	H 	0.66760 0.69180 0.01940 0.06900
C 	C 	0.70280 0.61060 0.06300 0.05600
H 	H 	0.72510 0.62490 0.06390 -0.00900
C 	C 	0.60360 0.67980 0.01730 0.26600
C 	C 	0.54860 0.70900 0.01890 -0.08700
H 	H 	0.52540 0.70710 0.97190 0.06900
H 	H 	0.55920 0.75410 0.03080 0.06800
C 	C 	0.69540 0.90000 0.39340 0.06200
H 	H 	0.71250 0.91480 0.43650 -0.01200
C 	C 	0.66520 0.85100 0.37300 -0.10300
H 	H 	0.66340 0.82990 0.40220 0.08400
C 	C 	0.63900 0.83500 0.31000 0.01900
C 	C 	0.64370 0.86040 0.26970 -0.10600
H 	H 	0.62650 0.84660 0.22620 0.07500
C 	C 	0.67350 0.90600 0.29210 0.06900
H 	H 	0.67580 0.92550 0.26270 -0.01000
C 	C 	0.60700 0.78000 0.28800 0.25400
C 	C 	0.54800 0.72200 0.20400 -0.09400
H 	H 	0.55850 0.68630 0.23540 0.08500
H 	H 	0.52410 0.74320 0.19730 0.08000
C 	C 	0.53390 0.69480 0.14240 0.17400
C 	C 	0.50410 0.64780 0.11450 -0.22200
H 	H 	0.49420 0.63310 0.13600 0.13100
C 	C 	0.48730 0.62010 0.05570 0.17700
C 	C 	0.50250 0.64080 0.02640 -0.21700
H 	H 	0.49160 0.62210 0.98640 0.12100
C 	C 	0.53340 0.68840 0.05280 0.16400
C 	C 	0.54950 0.71450 0.11170 -0.20400
H 	H 	0.57130 0.74610 0.13140 0.11800
C 	C 	0.52510 0.18040 0.36570 0.05100
H 	H 	0.54430 0.21540 0.38780 0.01700
C 	C 	0.52540 0.13270 0.40040 -0.07600
H 	H 	0.54420 0.13480 0.44590 0.07000
C 	C 	0.49740 0.08030 0.36790 -0.01000
C 	C 	0.47040 0.08010 0.30280 -0.07300
H 	H 	0.45120 0.04510 0.27980 0.07000
C 	C 	0.47080 0.13060 0.27030 0.05000
H 	H 	0.45100 0.13110 0.22470 -0.00300
C 	C 	0.49950 0.02720 0.40700 0.26700
C 	C 	0.46710 0.92830 0.40140 -0.08300
H 	H 	0.46520 0.94760 0.43290 0.09000
H 	H 	0.44050 0.90460 0.36900 0.06800
C 	C 	0.67710 0.56240 0.49380 0.06500
H 	H 	0.67770 0.52140 0.47840 -0.01200
C 	C 	0.64280 0.60300 0.45100 -0.08500
H 	H 	0.62110 0.59050 0.40770 0.07700
C 	C 	0.64150 0.66000 0.47300 -0.00800
C 	C 	0.67320 0.67600 0.53400 -0.08600
H 	H 	0.67280 0.71650 0.55100 0.07100
C 	C 	0.70800 0.63200 0.57400 0.06700
H 	H 	0.73120 0.64440 0.61690 -0.01200
C 	C 	0.60600 0.70700 0.43100 0.30800
C 	C 	0.58000 0.81100 0.41200 -0.02600
H 	H 	0.59220 0.85330 0.41360 0.05400
H 	H 	0.56030 0.79640 0.36670 0.06600
C 	C 	0.67330 0.92790 0.82770 0.05000
H 	H 	0.67380 0.94580 0.86050 -0.00900
C 	C 	0.64060 0.88540 0.78280 -0.06800
H 	H 	0.61910 0.87590 0.78520 0.06000
C 	C 	0.63900 0.85750 0.73560 -0.02900
C 	C 	0.67120 0.87410 0.73490 -0.06400
H 	H 	0.67130 0.85700 0.70240 0.06600
C 	C 	0.70300 0.91480 0.78030 0.04000
H 	H 	0.72560 0.92320 0.78020 -0.00100
C 	C 	0.60440 0.81620 0.68850 0.28100
C 	C 	0.56230 0.77670 0.58200 -0.05600
H 	H 	0.57100 0.73120 0.58510 0.05600
H 	H 	0.53900 0.77720 0.58370 0.06300
C 	C 	0.50360 0.88200 0.43510 0.15100
C 	C 	0.52390 0.86540 0.41090 -0.18100
H 	H 	0.51600 0.88670 0.37360 0.10600
C 	C 	0.55480 0.81960 0.43950 0.11900
C 	C 	0.56860 0.78970 0.49720 -0.15900
H 	H 	0.59130 0.75950 0.51880 0.10200
C 	C 	0.54820 0.80560 0.52170 0.13400
C 	C 	0.51650 0.85080 0.49020 -0.19000
H 	H 	0.50280 0.86130 0.50700 0.10800
Cu	Cu	0.24712 0.50996 0.88640 0.85200
O 	O 	0.01240 0.97800 0.07040 -0.23000
O 	O 	0.96050 0.01900 0.06740 -0.21900
O 	O 	0.09560 0.22510 0.98300 -0.25600
O 	O 	0.08300 0.16460 0.03770 -0.21800
O 	O 	0.10700 0.25300 0.32800 -0.23100
O 	O 	0.08180 0.26830 0.22700 -0.22600
O 	O 	0.02040 0.52930 0.46420 -0.25100
O 	O 	0.97260 0.48020 0.36970 -0.22400
O 	O 	0.07280 0.18600 0.38500 -0.25400
O 	O 	0.11300 0.26390 0.45160 -0.25500
O 	O 	0.08300 0.28730 0.69750 -0.25800
O 	O 	0.09750 0.31410 0.63440 -0.23100
N 	N 	0.99610 0.82120 0.19460 -0.22500
N 	N 	0.20570 0.05190 0.08590 -0.23200
N 	N 	0.20020 0.42560 0.35340 -0.23400
N 	N 	0.99900 0.67990 0.30180 -0.21800
N 	N 	0.20830 0.07720 0.55340 -0.23800
N 	N 	0.20310 0.44330 0.82530 -0.22700
C 	C 	0.96560 0.86570 0.16820 0.06400
H 	H 	0.94540 0.86210 0.17440 -0.00700
C 	C 	0.96250 0.91630 0.13260 -0.08700
H 	H 	0.94040 0.94730 0.11460 0.07600
C 	C 	0.99100 0.92220 0.12290 0.00900
C 	C 	0.02180 0.87710 0.14910 -0.09400
H 	H 	0.04220 0.87960 0.14340 0.07300
C 	C 	0.02310 0.82680 0.18480 0.05500
H 	H 	0.04480 0.79520 0.20290 0.01300
C 	C 	0.98850 0.97600 0.08440 0.25300
C 	C 	0.95280 0.06950 0.02300 -0.09800
H 	H 	0.95070 0.04920 0.98790 0.08400
H 	H 	0.92550 0.09080 0.00350 0.07200
C 	C 	0.17500 0.03490 0.08700 0.06000
H 	H 	0.17580 0.99310 0.10250 -0.00800
C 	C 	0.14210 0.07550 0.06670 -0.08600
H 	H 	0.12160 0.06220 0.07030 0.08000
C 	C 	0.13860 0.13420 0.04140 -0.00500
C 	C 	0.16940 0.15180 0.03840 -0.08900
H 	H 	0.16760 0.19180 0.01940 0.06900
C 	C 	0.20280 0.11060 0.06300 0.05600
H 	H 	0.22510 0.12490 0.06390 -0.00900
C 	C 	0.10360 0.17980 0.01730 0.26700
C 	C 	0.04860 0.20900 0.01890 -0.09400
H 	H 	0.02540 0.20710 0.97190 0.06900
H 	H 	0.05920 0.25410 0.03080 0.07000
C 	C 	0.19540 0.40000 0.39340 0.06200
H 	H 	0.21250 0.41480 0.43650 -0.01200
C 	C 	0.16520 0.35100 0.37300 -0.10300
H 	H 	0.16340 0.32990 0.40220 0.08400
C 	C 	0.13900 0.33500 0.31000 0.01900
C 	C 	0.14370 0.36040 0.26970 -0.10600
H 	H 	0.12650 0.34660 0.22620 0.07500
C 	C 	0.17350 0.40600 0.29210 0.06900
H 	H 	0.17580 0.42550 0.26270 -0.01000
C 	C 	0.10700 0.28000 0.28800 0.25300
C 	C 	0.04800 0.22200 0.20400 -0.10500
H 	H 	0.05850 0.18630 0.23540 0.08800
H 	H 	0.02410 0.24320 0.19730 0.08100
C 	C 	0.03390 0.19480 0.14240 0.19300
C 	C 	0.00410 0.14780 0.11450 -0.25800
H 	H 	0.99420 0.13310 0.13600 0.14600
C 	C 	0.98730 0.12010 0.05570 0.21000
C 	C 	0.00250 0.14080 0.02640 -0.25000
H 	H 	0.99160 0.12210 0.98640 0.13400
C 	C 	0.03340 0.18840 0.05280 0.18100
C 	C 	0.04950 0.21450 0.11170 -0.22100
H 	H 	0.07130 0.24610 0.13140 0.12300
C 	C 	0.02510 0.68040 0.36570 0.04700
H 	H 	0.04430 0.71540 0.38780 0.01800
C 	C 	0.02540 0.63270 0.40040 -0.08200
H 	H 	0.04420 0.63480 0.44590 0.07100
C 	C 	0.99740 0.58030 0.36790 -0.00600
C 	C 	0.97040 0.58010 0.30280 -0.07400
H 	H 	0.95120 0.54510 0.27980 0.07100
C 	C 	0.97080 0.63060 0.27030 0.05200
H 	H 	0.95100 0.63110 0.22470 -0.00300
C 	C 	0.99950 0.52720 0.40700 0.27400
C 	C 	0.96710 0.42830 0.40140 -0.07200
H 	H 	0.96520 0.44760 0.43290 0.08800
H 	H 	0.94050 0.40460 0.36900 0.06600
C 	C 	0.17710 0.06240 0.49380 0.06500
H 	H 	0.17770 0.02140 0.47840 -0.01200
C 	C 	0.14280 0.10300 0.45100 -0.08500
H 	H 	0.12110 0.09050 0.40770 0.07700
C 	C 	0.14150 0.16000 0.47300 -0.00800
C 	C 	0.17320 0.17600 0.53400 -0.08600
H 	H 	0.17280 0.21650 0.55100 0.07100
C 	C 	0.20800 0.13200 0.57400 0.06700
H 	H 	0.23120 0.14440 0.61690 -0.01200
C 	C 	0.10600 0.20700 0.43100 0.30800
C 	C 	0.08000 0.31100 0.41200 -0.02400
H 	H 	0.09220 0.35330 0.41360 0.05300
H 	H 	0.06030 0.29640 0.36670 0.06400
C 	C 	0.17330 0.42790 0.82770 0.05000
H 	H 	0.17380 0.44580 0.86050 -0.01000
C 	C 	0.14060 0.38540 0.78280 -0.06800
H 	H 	0.11910 0.37590 0.78520 0.06000
C 	C 	0.13900 0.35750 0.73560 -0.02900
C 	C 	0.17120 0.37410 0.73490 -0.06400
H 	H 	0.17130 0.35700 0.70240 0.06600
C 	C 	0.20300 0.41480 0.78030 0.04000
H 	H 	0.22560 0.42320 0.78020 -0.00100
C 	C 	0.10440 0.31620 0.68850 0.28200
C 	C 	0.06230 0.27670 0.58200 -0.05300
H 	H 	0.07100 0.23120 0.58510 0.05500
H 	H 	0.03900 0.27720 0.58370 0.06100
C 	C 	0.00360 0.38200 0.43510 0.14100
C 	C 	0.02390 0.36540 0.41090 -0.17500
H 	H 	0.01600 0.38670 0.37360 0.10300
C 	C 	0.05480 0.31960 0.43950 0.11500
C 	C 	0.06860 0.28970 0.49720 -0.15600
H 	H 	0.09130 0.25950 0.51880 0.10100
C 	C 	0.04820 0.30560 0.52170 0.12900
C 	C 	0.01650 0.35080 0.49020 -0.18400
H 	H 	0.00280 0.36130 0.50700 0.10400
Cu	Cu	0.25288 0.00996 0.61360 0.85200
O 	O 	0.48760 0.47800 0.42960 -0.22600
O 	O 	0.53950 0.51900 0.43260 -0.22100
O 	O 	0.40440 0.72510 0.51700 -0.25500
O 	O 	0.41700 0.66460 0.46230 -0.21900
O 	O 	0.39300 0.75300 0.17200 -0.23100
O 	O 	0.41820 0.76830 0.27300 -0.22700
O 	O 	0.47960 0.02930 0.03580 -0.24400
O 	O 	0.52740 0.98020 0.13030 -0.22200
O 	O 	0.42720 0.68600 0.11500 -0.25300
O 	O 	0.38700 0.76390 0.04840 -0.25400
O 	O 	0.41700 0.78730 0.80250 -0.25800
O 	O 	0.40250 0.81410 0.86560 -0.23000
N 	N 	0.50390 0.32120 0.30540 -0.22900
N 	N 	0.29430 0.55190 0.41410 -0.23200
N 	N 	0.29980 0.92560 0.14660 -0.23400
N 	N 	0.50100 0.17990 0.19820 -0.22200
N 	N 	0.29170 0.57720 0.94660 -0.23800
N 	N 	0.29690 0.94330 0.67470 -0.22700
C 	C 	0.53440 0.36570 0.33180 0.06200
H 	H 	0.55460 0.36210 0.32560 -0.00700
C 	C 	0.53750 0.41630 0.36740 -0.08500
H 	H 	0.55960 0.44730 0.38540 0.07500
C 	C 	0.50900 0.42220 0.37710 0.00300
C 	C 	0.47820 0.37710 0.35090 -0.08700
H 	H 	0.45780 0.37960 0.35660 0.07100
C 	C 	0.47690 0.32680 0.31520 0.05900
H 	H 	0.45520 0.29520 0.29710 0.01200
C 	C 	0.51150 0.47600 0.41560 0.25100
C 	C 	0.54720 0.56950 0.47700 -0.08500
H 	H 	0.54930 0.54920 0.51210 0.08200
H 	H 	0.57450 0.59080 0.49650 0.06800
C 	C 	0.32500 0.53490 0.41300 0.05800
H 	H 	0.32420 0.49310 0.39750 -0.00700
C 	C 	0.35790 0.57550 0.43330 -0.08600
H 	H 	0.37840 0.56220 0.42970 0.07900
C 	C 	0.36140 0.63420 0.45860 -0.00500
C 	C 	0.33060 0.65180 0.46160 -0.08900
H 	H 	0.33240 0.69180 0.48060 0.06900
C 	C 	0.29720 0.61060 0.43700 0.05600
H 	H 	0.27490 0.62490 0.43610 -0.00900
C 	C 	0.39640 0.67980 0.48270 0.26600
C 	C 	0.45140 0.70900 0.48110 -0.08700
H 	H 	0.47460 0.70710 0.52810 0.06900
H 	H 	0.44080 0.75410 0.46920 0.06800
C 	C 	0.30460 0.90000 0.10660 0.06200
H 	H 	0.28750 0.91480 0.06350 -0.01200
C 	C 	0.33480 0.85100 0.12700 -0.10300
H 	H 	0.33660 0.82990 0.09780 0.08400
C 	C 	0.36100 0.83500 0.19000 0.01900
C 	C 	0.35630 0.86040 0.23030 -0.10600
H 	H 	0.37350 0.84660 0.27380 0.07500
C 	C 	0.32650 0.90600 0.20790 0.06900
H 	H 	0.32420 0.92550 0.23730 -0.01000
C 	C 	0.39300 0.78000 0.21200 0.25400
C 	C 	0.45200 0.72200 0.29600 -0.09500
H 	H 	0.44150 0.68630 0.26460 0.08500
H 	H 	0.47590 0.74320 0.30270 0.08000
C 	C 	0.46610 0.69480 0.35760 0.17400
C 	C 	0.49590 0.64780 0.38550 -0.22200
H 	H 	0.50580 0.63310 0.36400 0.13100
C 	C 	0.51270 0.62010 0.44430 0.17800
C 	C 	0.49750 0.64080 0.47360 -0.21800
H 	H 	0.50840 0.62210 0.51360 0.12200
C 	C 	0.46660 0.68840 0.44720 0.16500
C 	C 	0.45050 0.71450 0.38830 -0.20400
H 	H 	0.42870 0.74610 0.36860 0.11800
C 	C 	0.47490 0.18040 0.13430 0.05100
H 	H 	0.45570 0.21540 0.11220 0.01700
C 	C 	0.47460 0.13270 0.09960 -0.07600
H 	H 	0.45580 0.13480 0.05410 0.07000
C 	C 	0.50260 0.08030 0.13210 -0.01000
C 	C 	0.52960 0.08010 0.19720 -0.07300
H 	H 	0.54880 0.04510 0.22020 0.07000
C 	C 	0.52920 0.13060 0.22970 0.05000
H 	H 	0.54900 0.13110 0.27530 -0.00300
C 	C 	0.50050 0.02720 0.09300 0.26800
C 	C 	0.53290 0.92830 0.09860 -0.08300
H 	H 	0.53480 0.94760 0.06710 0.09000
H 	H 	0.55950 0.90460 0.13100 0.06800
C 	C 	0.32290 0.56240 0.00620 0.06600
H 	H 	0.32230 0.52140 0.02160 -0.01200
C 	C 	0.35720 0.60300 0.04900 -0.08500
H 	H 	0.37890 0.59050 0.09230 0.07700
C 	C 	0.35850 0.66000 0.02700 -0.00700
C 	C 	0.32680 0.67600 0.96600 -0.08700
H 	H 	0.32720 0.71650 0.94900 0.07100
C 	C 	0.29200 0.63200 0.92600 0.06800
H 	H 	0.26880 0.64440 0.88310 -0.01200
C 	C 	0.39400 0.70700 0.06900 0.30800
C 	C 	0.42000 0.81100 0.08800 -0.02600
H 	H 	0.40780 0.85330 0.08640 0.05400
H 	H 	0.43970 0.79640 0.13330 0.06600
C 	C 	0.32670 0.92790 0.67230 0.05000
H 	H 	0.32620 0.94580 0.63950 -0.00900
C 	C 	0.35940 0.88540 0.71720 -0.06800
H 	H 	0.38090 0.87590 0.71480 0.06100
C 	C 	0.36100 0.85750 0.76440 -0.02900
C 	C 	0.32880 0.87410 0.76510 -0.06400
H 	H 	0.32870 0.85700 0.79760 0.06600
C 	C 	0.29700 0.91480 0.71970 0.04000
H 	H 	0.27440 0.92320 0.71980 -0.00100
C 	C 	0.39560 0.81620 0.81150 0.28100
C 	C 	0.43770 0.77670 0.91800 -0.05700
H 	H 	0.42900 0.73120 0.91490 0.05600
H 	H 	0.46100 0.77720 0.91630 0.06300
C 	C 	0.49640 0.88200 0.06490 0.15100
C 	C 	0.47610 0.86540 0.08910 -0.18100
H 	H 	0.48400 0.88670 0.12640 0.10600
C 	C 	0.44520 0.81960 0.06050 0.12000
C 	C 	0.43140 0.78970 0.00280 -0.16000
H 	H 	0.40870 0.75950 0.98120 0.10200
C 	C 	0.45180 0.80560 0.97830 0.13500
C 	C 	0.48350 0.85080 0.00980 -0.19100
H 	H 	0.49720 0.86130 0.99300 0.10800
Cu	Cu	0.75288 0.50996 0.61360 0.85200
O 	O 	0.98760 0.97800 0.42960 -0.22200
O 	O 	0.03950 0.01900 0.43260 -0.22400
O 	O 	0.90440 0.22510 0.51700 -0.25400
O 	O 	0.91700 0.16460 0.46230 -0.22100
O 	O 	0.89300 0.25300 0.17200 -0.23100
O 	O 	0.91820 0.26830 0.27300 -0.22800
O 	O 	0.97960 0.52930 0.03580 -0.23800
O 	O 	0.02740 0.48020 0.13030 -0.22000
O 	O 	0.92720 0.18600 0.11500 -0.25200
O 	O 	0.88700 0.26390 0.04840 -0.25400
O 	O 	0.91700 0.28730 0.80250 -0.25700
O 	O 	0.90250 0.31410 0.86560 -0.23100
N 	N 	0.00390 0.82120 0.30540 -0.23100
N 	N 	0.79430 0.05190 0.41410 -0.23200
N 	N 	0.79980 0.42560 0.14660 -0.23400
N 	N 	0.00100 0.67990 0.19820 -0.22500
N 	N 	0.79170 0.07720 0.94660 -0.24000
N 	N 	0.79690 0.44330 0.67470 -0.22700
C 	C 	0.03440 0.86570 0.33180 0.05900
H 	H 	0.05460 0.86210 0.32560 -0.00700
C 	C 	0.03750 0.91630 0.36740 -0.08200
H 	H 	0.05960 0.94730 0.38540 0.07400
C 	C 	0.00900 0.92220 0.37710 -0.00400
C 	C 	0.97820 0.87710 0.35090 -0.08000
H 	H 	0.95780 0.87960 0.35660 0.06900
C 	C 	0.97690 0.82680 0.31520 0.06200
H 	H 	0.95520 0.79520 0.29710 0.01200
C 	C 	0.01150 0.97600 0.41560 0.24800
C 	C 	0.04720 0.06950 0.47700 -0.06700
H 	H 	0.04930 0.04920 0.51210 0.07600
H 	H 	0.07450 0.09080 0.49650 0.06300
C 	C 	0.82500 0.03490 0.41300 0.05900
H 	H 	0.82420 0.99310 0.39750 -0.00700
C 	C 	0.85790 0.07550 0.43330 -0.08600
H 	H 	0.87840 0.06220 0.42970 0.07900
C 	C 	0.86140 0.13420 0.45860 -0.00500
C 	C 	0.83060 0.15180 0.46160 -0.08900
H 	H 	0.83240 0.19180 0.48060 0.06900
C 	C 	0.79720 0.11060 0.43700 0.05600
H 	H 	0.77490 0.12490 0.43610 -0.00900
C 	C 	0.89640 0.17980 0.48270 0.26700
C 	C 	0.95140 0.20900 0.48110 -0.07600
H 	H 	0.97460 0.20710 0.52810 0.06800
H 	H 	0.94080 0.25410 0.46920 0.06600
C 	C 	0.80460 0.40000 0.10660 0.06200
H 	H 	0.78750 0.41480 0.06350 -0.01200
C 	C 	0.83480 0.35100 0.12700 -0.10200
H 	H 	0.83660 0.32990 0.09780 0.08400
C 	C 	0.86100 0.33500 0.19000 0.02000
C 	C 	0.85630 0.36040 0.23030 -0.10600
H 	H 	0.87350 0.34660 0.27380 0.07600
C 	C 	0.82650 0.40600 0.20790 0.07000
H 	H 	0.82420 0.42550 0.23730 -0.01000
C 	C 	0.89300 0.28000 0.21200 0.25500
C 	C 	0.95200 0.22200 0.29600 -0.08300
H 	H 	0.94150 0.18630 0.26460 0.08300
H 	H 	0.97590 0.24320 0.30270 0.07800
C 	C 	0.96610 0.19480 0.35760 0.15400
C 	C 	0.99590 0.14780 0.38550 -0.18400
H 	H 	0.00580 0.13310 0.36400 0.11500
C 	C 	0.01270 0.12010 0.44430 0.14200
C 	C 	0.99750 0.14080 0.47360 -0.18000
H 	H 	0.00840 0.12210 0.51360 0.10600
C 	C 	0.96660 0.18840 0.44720 0.14400
C 	C 	0.95050 0.21450 0.38830 -0.18500
H 	H 	0.92870 0.24610 0.36860 0.11200
C 	C 	0.97490 0.68040 0.13430 0.05500
H 	H 	0.95570 0.71540 0.11220 0.01700
C 	C 	0.97460 0.63270 0.09960 -0.07100
H 	H 	0.95580 0.63480 0.05410 0.07000
C 	C 	0.00260 0.58030 0.13210 -0.01400
C 	C 	0.02960 0.58010 0.19720 -0.07200
H 	H 	0.04880 0.54510 0.22020 0.06900
C 	C 	0.02920 0.63060 0.22970 0.04800
H 	H 	0.04900 0.63110 0.27530 -0.00300
C 	C 	0.00050 0.52720 0.09300 0.26000
C 	C 	0.03290 0.42830 0.09860 -0.09000
H 	H 	0.03480 0.44760 0.06710 0.09100
H 	H 	0.05950 0.40460 0.13100 0.06900
C 	C 	0.82290 0.06240 0.00620 0.06900
H 	H 	0.82230 0.02140 0.02160 -0.01300
C 	C 	0.85720 0.10300 0.04900 -0.08800
H 	H 	0.87890 0.09050 0.09230 0.07800
C 	C 	0.85850 0.16000 0.02700 -0.00400
C 	C 	0.82680 0.17600 0.96600 -0.09100
H 	H 	0.82720 0.21650 0.94900 0.07200
C 	C 	0.79200 0.13200 0.92600 0.06900
H 	H 	0.76880 0.14440 0.88310 -0.01200
C 	C 	0.89400 0.20700 0.06900 0.30600
C 	C 	0.92000 0.31100 0.08800 -0.02600
H 	H 	0.90780 0.35330 0.08640 0.05400
H 	H 	0.93970 0.29640 0.13330 0.06600
C 	C 	0.82670 0.42790 0.67230 0.05000
H 	H 	0.82620 0.44580 0.63950 -0.00900
C 	C 	0.85940 0.38540 0.71720 -0.06800
H 	H 	0.88090 0.37590 0.71480 0.06100
C 	C 	0.86100 0.35750 0.76440 -0.02900
C 	C 	0.82880 0.37410 0.76510 -0.06400
H 	H 	0.82870 0.35700 0.79760 0.06600
C 	C 	0.79700 0.41480 0.71970 0.04000
H 	H 	0.77440 0.42320 0.71980 -0.00100
C 	C 	0.89560 0.31620 0.81150 0.28100
C 	C 	0.93770 0.27670 0.91800 -0.05400
H 	H 	0.92900 0.23120 0.91490 0.05500
H 	H 	0.96100 0.27720 0.91630 0.06300
C 	C 	0.99640 0.38200 0.06490 0.15600
C 	C 	0.97610 0.36540 0.08910 -0.18100
H 	H 	0.98400 0.38670 0.12640 0.10800
C 	C 	0.94520 0.31960 0.06050 0.11900
C 	C 	0.93140 0.28970 0.00280 -0.15300
H 	H 	0.90870 0.25950 0.98120 0.09900
C 	C 	0.95180 0.30560 0.97830 0.12900
C 	C 	0.98350 0.35080 0.00980 -0.18600
H 	H 	0.99720 0.36130 0.99300 0.10700
Cu	Cu	0.50000 0.74990 0.75000 0.85400
Cu	Cu	0.00000 0.24990 0.75000 0.85200
Cu	Cu	0.50000 0.25010 0.25000 0.85400
Cu	Cu	0.00000 0.75010 0.25000 0.85200
