data_crystal

_cell_length_a 28.55200
_cell_length_b 27.84540
_cell_length_c 27.88700
_cell_angle_alpha 90.00000
_cell_angle_beta  120.61000
_cell_angle_gamma 90.00000

_symmetry_space_group_name_	'P 1'
_symmetry_space_group_name_H-M	'P 1'

loop_
_symmetry_equiv_pos_as_xyz
  x,y,z

loop_
_atom_site_label
_atom_site_type_symbol
_atom_site_fract_x
_atom_site_fract_y
_atom_site_fract_z
_atom_site_charge
W 	W 	0.14493 0.62793 0.19992 1.00100
W 	W 	0.22764 0.62804 0.14688 0.97300
W 	W 	0.19343 0.57842 0.33850 1.02800
W 	W 	0.26763 0.41135 0.35364 1.00200
W 	W 	0.36485 0.57968 0.22854 1.00600
W 	W 	0.35895 0.41194 0.29547 1.02800
W 	W 	0.41043 0.53648 0.35685 0.97700
W 	W 	0.14141 0.45450 0.27700 1.33400
W 	W 	0.32045 0.53570 0.41408 1.26400
W 	W 	0.31551 0.45545 0.16746 1.34300
W 	W 	0.09327 0.50417 0.13620 1.03800
W 	W 	0.11230 0.37155 0.16000 0.99800
W 	W 	0.19790 0.37127 0.10803 1.00600
W 	W 	0.17564 0.50341 0.08420 1.04100
W 	W 	0.24136 0.32862 0.23843 1.28600
Ni	Ni	0.42111 0.62610 0.45475 1.04600
Ni	Ni	0.19318 0.70465 0.32315 1.08700
Ni	Ni	0.34977 0.53122 0.55584 1.03300
Ni	Ni	0.26293 0.70084 0.26481 1.10600
Ni	Ni	0.38018 0.66170 0.33446 1.10800
Ni	Ni	0.30331 0.66168 0.38333 1.10500
Ni	Ni	0.34620 0.70489 0.22319 1.08800
P 	P 	0.27889 0.58552 0.28321 0.53600
P 	P 	0.22292 0.45127 0.21584 0.57300
O 	O 	0.33980 0.59810 0.42290 -0.63800
O 	O 	0.34720 0.51090 0.20330 -0.46600
O 	O 	0.16980 0.51010 0.31500 -0.46900
O 	O 	0.16860 0.43200 0.07950 -0.44900
O 	O 	0.37970 0.68000 0.40400 -0.59000
O 	O 	0.26310 0.67620 0.19470 -0.58400
O 	O 	0.30000 0.63620 0.30950 -0.59900
O 	O 	0.16320 0.32120 0.20340 -0.44500
O 	O 	0.12410 0.39820 0.22740 -0.47100
O 	O 	0.26280 0.27060 0.26440 -0.53300
O 	O 	0.21930 0.45570 0.26810 -0.34900
O 	O 	0.15110 0.59120 0.26000 -0.45900
O 	O 	0.18530 0.48900 0.17070 -0.33200
O 	O 	0.34040 0.71950 0.29020 -0.56300
O 	O 	0.20210 0.40060 0.19130 -0.40300
O 	O 	0.22870 0.32120 0.16330 -0.44600
O 	O 	0.26320 0.55760 0.32130 -0.35500
O 	O 	0.22540 0.63590 0.35190 -0.60600
O 	O 	0.15930 0.64300 0.14120 -0.44900
O 	O 	0.32460 0.55850 0.28000 -0.33800
O 	O 	0.36870 0.51720 0.39130 -0.48900
O 	O 	0.32610 0.41330 0.33970 -0.48200
O 	O 	0.36380 0.41700 0.22900 -0.47500
O 	O 	0.30320 0.69160 0.44980 -0.46400
O 	O 	0.29230 0.59050 0.17120 -0.45600
O 	O 	0.28530 0.47010 0.38480 -0.45500
O 	O 	0.35500 0.51710 0.48360 -0.57800
O 	O 	0.18530 0.67610 0.24300 -0.58200
O 	O 	0.22930 0.59210 0.22450 -0.33800
O 	O 	0.10850 0.48890 0.20890 -0.49100
O 	O 	0.28110 0.45570 0.22890 -0.35000
O 	O 	0.26700 0.39930 0.13850 -0.46900
O 	O 	0.30680 0.35880 0.25740 -0.47500
O 	O 	0.24240 0.35820 0.29780 -0.47800
O 	O 	0.09160 0.43250 0.12850 -0.45000
O 	O 	0.18890 0.56480 0.10980 -0.43000
O 	O 	0.11600 0.56540 0.15580 -0.43400
O 	O 	0.38740 0.47060 0.31860 -0.44400
O 	O 	0.42290 0.55240 0.29720 -0.44600
O 	O 	0.25070 0.55130 0.40580 -0.49100
O 	O 	0.36990 0.63750 0.26020 -0.60200
O 	O 	0.08530 0.44800 0.28470 -0.57900
O 	O 	0.26700 0.71910 0.33570 -0.56900
O 	O 	0.12890 0.35410 0.10290 -0.43000
O 	O 	0.10410 0.50510 0.07380 -0.46000
O 	O 	0.34250 0.44980 0.12460 -0.58100
O 	O 	0.21900 0.72240 0.40520 -0.44100
O 	O 	0.42710 0.72200 0.26570 -0.49600
O 	O 	0.45180 0.69120 0.35380 -0.49000
O 	O 	0.24970 0.48940 0.11860 -0.48700
O 	O 	0.41330 0.59830 0.37870 -0.57500
O 	O 	0.19280 0.41520 0.33570 -0.48200
N 	N 	0.34490 0.68820 0.15150 -0.35300
H 	H 	0.37820 0.67850 0.15960 0.07900
H 	H 	0.32150 0.66380 0.13430 0.07000
N 	N 	0.00640 0.50620 0.30240 -0.33300
H 	H 	0.98320 0.50200 0.31480 0.08200
H 	H 	0.04050 0.50810 0.33190 0.08100
N 	N 	0.32140 0.77060 0.18350 -0.30600
H 	H 	0.29100 0.77970 0.18320 0.10200
H 	H 	0.34740 0.79250 0.20320 0.11000
N 	N 	0.37490 0.46150 0.58200 -0.25400
H 	H 	0.39850 0.45180 0.57150 0.04100
H 	H 	0.39140 0.45950 0.61930 0.05900
N 	N 	0.46570 0.56880 0.50340 -0.19200
H 	H 	0.45370 0.56020 0.52640 0.02600
H 	H 	0.46220 0.54350 0.48180 0.05300
N 	N 	0.49610 0.65590 0.47920 -0.56000
H 	H 	0.49590 0.67000 0.45000 0.14400
H 	H 	0.50470 0.67810 0.50580 0.10000
N 	N 	0.11650 0.68640 0.30440 -0.32000
H 	H 	0.10120 0.66650 0.27490 0.07500
H 	H 	0.11760 0.67140 0.33350 0.08000
N 	N 	0.15870 0.76960 0.29480 -0.33900
H 	H 	0.17470 0.79090 0.32290 0.12100
H 	H 	0.16540 0.77910 0.26800 0.10900
N 	N 	0.27290 0.50060 0.51440 -0.43500
H 	H 	0.25290 0.51140 0.52870 0.11300
H 	H 	0.25570 0.50830 0.47800 0.12100
C 	C 	0.26470 0.71460 0.44870 0.38600
C 	C 	0.27400 0.73790 0.50110 -0.23900
H 	H 	0.30260 0.76160 0.51230 0.09100
H 	H 	0.28730 0.71360 0.53000 0.09200
C 	C 	0.31040 0.77010 0.12640 -0.21000
H 	H 	0.27150 0.77300 0.10120 0.05500
H 	H 	0.32750 0.79810 0.12100 0.06800
C 	C 	0.52120 0.58340 0.53490 -0.84800
H 	H 	0.54450 0.55530 0.54670 0.26100
H 	H 	0.52740 0.60040 0.56800 0.20700
C 	C 	0.46060 0.71230 0.31680 0.53500
C 	C 	0.09830 0.77120 0.27160 -0.04300
H 	H 	0.08840 0.80030 0.28340 0.02200
H 	H 	0.07910 0.77060 0.23120 0.00900
C 	C 	0.08460 0.73130 0.29150 -0.08200
H 	H 	0.04710 0.72330 0.26440 0.03100
H 	H 	0.08530 0.74100 0.32530 0.03100
C 	C 	0.31500 0.72350 0.05070 -0.55800
H 	H 	0.27890 0.71030 0.02860 0.15000
H 	H 	0.34090 0.70170 0.05070 0.14600
H 	H 	0.31670 0.75370 0.03520 0.15600
C 	C 	0.99300 0.54960 0.26800 0.00800
H 	H 	0.95300 0.54700 0.24500 0.01100
C 	C 	0.00100 0.59990 0.27900 -0.12200
H 	H 	0.03600 0.60870 0.31080 0.03500
H 	H 	0.97130 0.61680 0.27890 0.03400
C 	C 	0.27900 0.45220 0.52100 0.45100
H 	H 	0.27000 0.45400 0.55000 -0.10200
C 	C 	0.23450 0.41690 0.49000 -0.91000
H 	H 	0.24960 0.38520 0.49560 0.25900
H 	H 	0.21550 0.42440 0.45090 0.27300
H 	H 	0.20960 0.41820 0.50350 0.26200
C 	C 	0.32770 0.43280 0.55660 -0.40600
H 	H 	0.33410 0.40720 0.53710 0.09600
H 	H 	0.32450 0.41800 0.58630 0.12500
C 	C 	0.32770 0.73120 0.11230 0.17200
H 	H 	0.36500 0.74300 0.12600 -0.03700
C 	C 	0.53620 0.61580 0.50110 1.38400
H 	H 	0.52000 0.59600 0.46700 -0.37400
C 	C 	0.58470 0.61850 0.50900 -2.64300
H 	H 	0.58680 0.64530 0.48830 0.76000
H 	H 	0.59290 0.58940 0.49580 0.79100
H 	H 	0.61050 0.62270 0.54770 0.76600
C 	C 	0.51900 0.72590 0.33300 -0.97300
H 	H 	0.51890 0.75760 0.31930 0.30200
H 	H 	0.53220 0.70330 0.31670 0.30500
H 	H 	0.54170 0.72540 0.37270 0.29300
W 	W 	0.64493 0.12793 0.19992 1.00000
W 	W 	0.72764 0.12804 0.14688 0.97200
W 	W 	0.69343 0.07842 0.33850 1.02700
W 	W 	0.76763 0.91135 0.35364 1.00100
W 	W 	0.86485 0.07968 0.22854 1.00600
W 	W 	0.85895 0.91194 0.29547 1.02800
W 	W 	0.91043 0.03648 0.35685 0.97700
W 	W 	0.64141 0.95450 0.27700 1.33400
W 	W 	0.82045 0.03570 0.41408 1.26400
W 	W 	0.81551 0.95545 0.16746 1.34300
W 	W 	0.59327 0.00417 0.13620 1.03600
W 	W 	0.61230 0.87155 0.16000 0.99800
W 	W 	0.69790 0.87127 0.10803 1.00600
W 	W 	0.67564 0.00341 0.08420 1.03900
W 	W 	0.74136 0.82862 0.23843 1.28600
Ni	Ni	0.92111 0.12610 0.45475 1.04600
Ni	Ni	0.69318 0.20465 0.32315 1.08700
Ni	Ni	0.84977 0.03122 0.55584 1.03300
Ni	Ni	0.76293 0.20084 0.26481 1.10600
Ni	Ni	0.88018 0.16170 0.33446 1.10800
Ni	Ni	0.80331 0.16168 0.38333 1.10500
Ni	Ni	0.84620 0.20489 0.22319 1.08800
P 	P 	0.77889 0.08552 0.28321 0.53500
P 	P 	0.72292 0.95127 0.21584 0.57300
O 	O 	0.83980 0.09810 0.42290 -0.63800
O 	O 	0.84720 0.01090 0.20330 -0.46700
O 	O 	0.66980 0.01010 0.31500 -0.46900
O 	O 	0.66860 0.93200 0.07950 -0.44800
O 	O 	0.87970 0.18000 0.40400 -0.59000
O 	O 	0.76310 0.17620 0.19470 -0.58400
O 	O 	0.80000 0.13620 0.30950 -0.59900
O 	O 	0.66320 0.82120 0.20340 -0.44500
O 	O 	0.62410 0.89820 0.22740 -0.47100
O 	O 	0.76280 0.77060 0.26440 -0.53300
O 	O 	0.71930 0.95570 0.26810 -0.34900
O 	O 	0.65110 0.09120 0.26000 -0.45900
O 	O 	0.68530 0.98900 0.17070 -0.33100
O 	O 	0.84040 0.21950 0.29020 -0.56300
O 	O 	0.70210 0.90060 0.19130 -0.40300
O 	O 	0.72870 0.82120 0.16330 -0.44600
O 	O 	0.76320 0.05760 0.32130 -0.35500
O 	O 	0.72540 0.13590 0.35190 -0.60600
O 	O 	0.65930 0.14300 0.14120 -0.44900
O 	O 	0.82460 0.05850 0.28000 -0.33800
O 	O 	0.86870 0.01720 0.39130 -0.48900
O 	O 	0.82610 0.91330 0.33970 -0.48200
O 	O 	0.86380 0.91700 0.22900 -0.47500
O 	O 	0.80320 0.19160 0.44980 -0.46400
O 	O 	0.79230 0.09050 0.17120 -0.45600
O 	O 	0.78530 0.97010 0.38480 -0.45500
O 	O 	0.85500 0.01710 0.48360 -0.57800
O 	O 	0.68530 0.17610 0.24300 -0.58200
O 	O 	0.72930 0.09210 0.22450 -0.33800
O 	O 	0.60850 0.98890 0.20890 -0.49000
O 	O 	0.78110 0.95570 0.22890 -0.35000
O 	O 	0.76700 0.89930 0.13850 -0.46900
O 	O 	0.80680 0.85880 0.25740 -0.47500
O 	O 	0.74240 0.85820 0.29780 -0.47800
O 	O 	0.59160 0.93250 0.12850 -0.44900
O 	O 	0.68890 0.06480 0.10980 -0.43000
O 	O 	0.61600 0.06540 0.15580 -0.43400
O 	O 	0.88740 0.97060 0.31860 -0.44300
O 	O 	0.92290 0.05240 0.29720 -0.44600
O 	O 	0.75070 0.05130 0.40580 -0.49100
O 	O 	0.86990 0.13750 0.26020 -0.60200
O 	O 	0.58530 0.94800 0.28470 -0.57800
O 	O 	0.76700 0.21910 0.33570 -0.56900
O 	O 	0.62890 0.85410 0.10290 -0.43000
O 	O 	0.60410 0.00510 0.07380 -0.46000
O 	O 	0.84250 0.94980 0.12460 -0.58100
O 	O 	0.71900 0.22240 0.40520 -0.44100
O 	O 	0.92710 0.22200 0.26570 -0.49600
O 	O 	0.95180 0.19120 0.35380 -0.49000
O 	O 	0.74970 0.98940 0.11860 -0.48600
O 	O 	0.91330 0.09830 0.37870 -0.57500
O 	O 	0.69280 0.91520 0.33570 -0.48200
N 	N 	0.84490 0.18820 0.15150 -0.35300
H 	H 	0.87820 0.17850 0.15960 0.07900
H 	H 	0.82150 0.16380 0.13430 0.07100
N 	N 	0.50640 0.00620 0.30240 -0.33400
H 	H 	0.48320 0.00200 0.31480 0.08200
H 	H 	0.54050 0.00810 0.33190 0.08100
N 	N 	0.82140 0.27060 0.18350 -0.30600
H 	H 	0.79100 0.27970 0.18320 0.10200
H 	H 	0.84740 0.29250 0.20320 0.11000
N 	N 	0.87490 0.96150 0.58200 -0.25400
H 	H 	0.89850 0.95180 0.57150 0.04100
H 	H 	0.89140 0.95950 0.61930 0.05900
N 	N 	0.96570 0.06880 0.50340 -0.19200
H 	H 	0.95370 0.06020 0.52640 0.02600
H 	H 	0.96220 0.04350 0.48180 0.05300
N 	N 	0.99610 0.15590 0.47920 -0.56000
H 	H 	0.99590 0.17000 0.45000 0.14400
H 	H 	0.00470 0.17810 0.50580 0.10000
N 	N 	0.61650 0.18640 0.30440 -0.32000
H 	H 	0.60120 0.16650 0.27490 0.07500
H 	H 	0.61760 0.17140 0.33350 0.08000
N 	N 	0.65870 0.26960 0.29480 -0.33900
H 	H 	0.67470 0.29090 0.32290 0.12100
H 	H 	0.66540 0.27910 0.26800 0.10900
N 	N 	0.77290 0.00060 0.51440 -0.43500
H 	H 	0.75290 0.01140 0.52870 0.11300
H 	H 	0.75570 0.00830 0.47800 0.12100
C 	C 	0.76470 0.21460 0.44870 0.38600
C 	C 	0.77400 0.23790 0.50110 -0.23900
H 	H 	0.80260 0.26160 0.51230 0.09100
H 	H 	0.78730 0.21360 0.53000 0.09200
C 	C 	0.81040 0.27010 0.12640 -0.20900
H 	H 	0.77150 0.27300 0.10120 0.05400
H 	H 	0.82750 0.29810 0.12100 0.06700
C 	C 	0.02120 0.08340 0.53490 -0.84800
H 	H 	0.04450 0.05530 0.54670 0.26100
H 	H 	0.02740 0.10040 0.56800 0.20800
C 	C 	0.96060 0.21230 0.31680 0.53400
C 	C 	0.59830 0.27120 0.27160 -0.04300
H 	H 	0.58840 0.30030 0.28340 0.02200
H 	H 	0.57910 0.27060 0.23120 0.00900
C 	C 	0.58460 0.23130 0.29150 -0.08200
H 	H 	0.54710 0.22330 0.26440 0.03100
H 	H 	0.58530 0.24100 0.32530 0.03100
C 	C 	0.81500 0.22350 0.05070 -0.55700
H 	H 	0.77890 0.21030 0.02860 0.14900
H 	H 	0.84090 0.20170 0.05070 0.14600
H 	H 	0.81670 0.25370 0.03520 0.15500
C 	C 	0.49300 0.04960 0.26800 0.01300
H 	H 	0.45300 0.04700 0.24500 0.00900
C 	C 	0.50100 0.09990 0.27900 -0.12700
H 	H 	0.53600 0.10870 0.31080 0.03600
H 	H 	0.47130 0.11680 0.27890 0.03600
C 	C 	0.77900 0.95220 0.52100 0.45100
H 	H 	0.77000 0.95400 0.55000 -0.10200
C 	C 	0.73450 0.91690 0.49000 -0.91000
H 	H 	0.74960 0.88520 0.49560 0.25900
H 	H 	0.71550 0.92440 0.45090 0.27300
H 	H 	0.70960 0.91820 0.50350 0.26300
C 	C 	0.82770 0.93280 0.55660 -0.40600
H 	H 	0.83410 0.90720 0.53710 0.09600
H 	H 	0.82450 0.91800 0.58630 0.12500
C 	C 	0.82770 0.23120 0.11230 0.17100
H 	H 	0.86500 0.24300 0.12600 -0.03700
C 	C 	0.03620 0.11580 0.50110 1.38500
H 	H 	0.02000 0.09600 0.46700 -0.37400
C 	C 	0.08470 0.11850 0.50900 -2.64400
H 	H 	0.08680 0.14530 0.48830 0.76100
H 	H 	0.09290 0.08940 0.49580 0.79100
H 	H 	0.11050 0.12270 0.54770 0.76700
C 	C 	0.01900 0.22590 0.33300 -0.97300
H 	H 	0.01890 0.25760 0.31930 0.30200
H 	H 	0.03220 0.20330 0.31670 0.30500
H 	H 	0.04170 0.22540 0.37270 0.29300
W 	W 	0.85507 0.62793 0.30008 1.00000
W 	W 	0.77236 0.62804 0.35312 0.97200
W 	W 	0.80657 0.57842 0.16150 1.02600
W 	W 	0.73237 0.41135 0.14636 1.00100
W 	W 	0.63515 0.57968 0.27146 1.00600
W 	W 	0.64105 0.41194 0.20453 1.02800
W 	W 	0.58957 0.53648 0.14315 0.97700
W 	W 	0.85859 0.45450 0.22300 1.33400
W 	W 	0.67955 0.53570 0.08592 1.26400
W 	W 	0.68449 0.45545 0.33254 1.34300
W 	W 	0.90673 0.50417 0.36380 1.03800
W 	W 	0.88770 0.37155 0.34000 0.99800
W 	W 	0.80210 0.37127 0.39197 1.00600
W 	W 	0.82436 0.50341 0.41580 1.04100
W 	W 	0.75864 0.32862 0.26157 1.28600
Ni	Ni	0.57889 0.62610 0.04525 1.04600
Ni	Ni	0.80682 0.70465 0.17685 1.08700
Ni	Ni	0.65023 0.53122 0.94416 1.03300
Ni	Ni	0.73707 0.70084 0.23519 1.10600
Ni	Ni	0.61982 0.66170 0.16554 1.10800
Ni	Ni	0.69669 0.66168 0.11667 1.10500
Ni	Ni	0.65380 0.70489 0.27681 1.08800
P 	P 	0.72111 0.58552 0.21679 0.53500
P 	P 	0.77708 0.45127 0.28416 0.57300
O 	O 	0.66020 0.59810 0.07710 -0.63800
O 	O 	0.65280 0.51090 0.29670 -0.46600
O 	O 	0.83020 0.51010 0.18500 -0.46900
O 	O 	0.83140 0.43200 0.42050 -0.44900
O 	O 	0.62030 0.68000 0.09600 -0.59000
O 	O 	0.73690 0.67620 0.30530 -0.58400
O 	O 	0.70000 0.63620 0.19050 -0.59900
O 	O 	0.83680 0.32120 0.29660 -0.44500
O 	O 	0.87590 0.39820 0.27260 -0.47100
O 	O 	0.73720 0.27060 0.23560 -0.53300
O 	O 	0.78070 0.45570 0.23190 -0.34900
O 	O 	0.84890 0.59120 0.24000 -0.45900
O 	O 	0.81470 0.48900 0.32930 -0.33200
O 	O 	0.65960 0.71950 0.20980 -0.56300
O 	O 	0.79790 0.40060 0.30870 -0.40300
O 	O 	0.77130 0.32120 0.33670 -0.44600
O 	O 	0.73680 0.55760 0.17870 -0.35500
O 	O 	0.77460 0.63590 0.14810 -0.60600
O 	O 	0.84070 0.64300 0.35880 -0.44900
O 	O 	0.67540 0.55850 0.22000 -0.33800
O 	O 	0.63130 0.51720 0.10870 -0.48900
O 	O 	0.67390 0.41330 0.16030 -0.48200
O 	O 	0.63620 0.41700 0.27100 -0.47500
O 	O 	0.69680 0.69160 0.05020 -0.46400
O 	O 	0.70770 0.59050 0.32880 -0.45600
O 	O 	0.71470 0.47010 0.11520 -0.45500
O 	O 	0.64500 0.51710 0.01640 -0.57800
O 	O 	0.81470 0.67610 0.25700 -0.58200
O 	O 	0.77070 0.59210 0.27550 -0.33800
O 	O 	0.89150 0.48890 0.29110 -0.49100
O 	O 	0.71890 0.45570 0.27110 -0.35000
O 	O 	0.73300 0.39930 0.36150 -0.46900
O 	O 	0.69320 0.35880 0.24260 -0.47500
O 	O 	0.75760 0.35820 0.20220 -0.47800
O 	O 	0.90840 0.43250 0.37150 -0.45000
O 	O 	0.81110 0.56480 0.39020 -0.43000
O 	O 	0.88400 0.56540 0.34420 -0.43400
O 	O 	0.61260 0.47060 0.18140 -0.44400
O 	O 	0.57710 0.55240 0.20280 -0.44600
O 	O 	0.74930 0.55130 0.09420 -0.49100
O 	O 	0.63010 0.63750 0.23980 -0.60200
O 	O 	0.91470 0.44800 0.21530 -0.57900
O 	O 	0.73300 0.71910 0.16430 -0.56900
O 	O 	0.87110 0.35410 0.39710 -0.43000
O 	O 	0.89590 0.50510 0.42620 -0.46000
O 	O 	0.65750 0.44980 0.37540 -0.58100
O 	O 	0.78100 0.72240 0.09480 -0.44200
O 	O 	0.57290 0.72200 0.23430 -0.49600
O 	O 	0.54820 0.69120 0.14620 -0.49000
O 	O 	0.75030 0.48940 0.38140 -0.48700
O 	O 	0.58670 0.59830 0.12130 -0.57500
O 	O 	0.80720 0.41520 0.16430 -0.48200
N 	N 	0.65510 0.68820 0.34850 -0.35300
H 	H 	0.62180 0.67850 0.34040 0.07900
H 	H 	0.67850 0.66380 0.36570 0.07000
N 	N 	0.99360 0.50620 0.19760 -0.33500
H 	H 	0.01680 0.50200 0.18520 0.08300
H 	H 	0.95950 0.50810 0.16810 0.08100
N 	N 	0.67860 0.77060 0.31650 -0.30600
H 	H 	0.70900 0.77970 0.31680 0.10200
H 	H 	0.65260 0.79250 0.29680 0.11000
N 	N 	0.62510 0.46150 0.91800 -0.25300
H 	H 	0.60150 0.45180 0.92850 0.04100
H 	H 	0.60860 0.45950 0.88070 0.05900
N 	N 	0.53430 0.56880 0.99660 -0.19200
H 	H 	0.54630 0.56020 0.97360 0.02600
H 	H 	0.53780 0.54350 0.01820 0.05300
N 	N 	0.50390 0.65590 0.02080 -0.56100
H 	H 	0.50410 0.67000 0.05000 0.14400
H 	H 	0.49530 0.67810 0.99420 0.09900
N 	N 	0.88350 0.68640 0.19560 -0.32000
H 	H 	0.89880 0.66650 0.22510 0.07500
H 	H 	0.88240 0.67140 0.16650 0.08000
N 	N 	0.84130 0.76960 0.20520 -0.33900
H 	H 	0.82530 0.79090 0.17710 0.12100
H 	H 	0.83460 0.77910 0.23200 0.10900
N 	N 	0.72710 0.50060 0.98560 -0.43500
H 	H 	0.74710 0.51140 0.97130 0.11300
H 	H 	0.74430 0.50830 0.02200 0.12100
C 	C 	0.73530 0.71460 0.05130 0.38700
C 	C 	0.72600 0.73790 0.99890 -0.24100
H 	H 	0.69740 0.76160 0.98770 0.09100
H 	H 	0.71270 0.71360 0.97000 0.09300
C 	C 	0.68960 0.77010 0.37360 -0.20900
H 	H 	0.72850 0.77300 0.39880 0.05400
H 	H 	0.67250 0.79810 0.37900 0.06800
C 	C 	0.47880 0.58340 0.96510 -0.85200
H 	H 	0.45550 0.55530 0.95330 0.26200
H 	H 	0.47260 0.60040 0.93200 0.20900
C 	C 	0.53940 0.71230 0.18320 0.53500
C 	C 	0.90170 0.77120 0.22840 -0.04300
H 	H 	0.91160 0.80030 0.21660 0.02200
H 	H 	0.92090 0.77060 0.26880 0.00900
C 	C 	0.91540 0.73130 0.20850 -0.08200
H 	H 	0.95290 0.72330 0.23560 0.03100
H 	H 	0.91470 0.74100 0.17470 0.03100
C 	C 	0.68500 0.72350 0.44930 -0.55700
H 	H 	0.72110 0.71030 0.47140 0.14900
H 	H 	0.65910 0.70170 0.44930 0.14500
H 	H 	0.68330 0.75370 0.46480 0.15500
C 	C 	0.00700 0.54960 0.23200 0.01700
H 	H 	0.04700 0.54700 0.25500 0.00800
C 	C 	0.99900 0.59990 0.22100 -0.13300
H 	H 	0.96400 0.60870 0.18920 0.03800
H 	H 	0.02870 0.61680 0.22110 0.03800
C 	C 	0.72100 0.45220 0.97900 0.45400
H 	H 	0.73000 0.45400 0.95000 -0.10300
C 	C 	0.76550 0.41690 0.01000 -0.91600
H 	H 	0.75040 0.38520 0.00440 0.26000
H 	H 	0.78450 0.42440 0.04910 0.27400
H 	H 	0.79040 0.41820 0.99650 0.26500
C 	C 	0.67230 0.43280 0.94340 -0.40800
H 	H 	0.66590 0.40720 0.96290 0.09700
H 	H 	0.67550 0.41800 0.91370 0.12600
C 	C 	0.67230 0.73120 0.38770 0.17100
H 	H 	0.63500 0.74300 0.37400 -0.03700
C 	C 	0.46380 0.61580 0.99890 1.39100
H 	H 	0.48000 0.59600 0.03300 -0.37600
C 	C 	0.41530 0.61850 0.99100 -2.65800
H 	H 	0.41320 0.64530 0.01170 0.76500
H 	H 	0.40710 0.58940 0.00420 0.79600
H 	H 	0.38950 0.62270 0.95230 0.77100
C 	C 	0.48100 0.72590 0.16700 -0.97300
H 	H 	0.48110 0.75760 0.18070 0.30200
H 	H 	0.46780 0.70330 0.18330 0.30500
H 	H 	0.45830 0.72540 0.12730 0.29300
W 	W 	0.35507 0.12793 0.30008 1.00000
W 	W 	0.27236 0.12804 0.35312 0.97200
W 	W 	0.30657 0.07842 0.16150 1.02600
W 	W 	0.23237 0.91135 0.14636 1.00300
W 	W 	0.13515 0.07968 0.27146 1.00600
W 	W 	0.14105 0.91194 0.20453 1.02900
W 	W 	0.08957 0.03648 0.14315 0.97700
W 	W 	0.35859 0.95450 0.22300 1.33500
W 	W 	0.17955 0.03570 0.08592 1.26400
W 	W 	0.18449 0.95545 0.33254 1.34300
W 	W 	0.40673 0.00417 0.36380 1.03700
W 	W 	0.38770 0.87155 0.34000 0.99800
W 	W 	0.30210 0.87127 0.39197 1.00600
W 	W 	0.32436 0.00341 0.41580 1.04100
W 	W 	0.25864 0.82862 0.26157 1.28600
Ni	Ni	0.07889 0.12610 0.04525 1.04600
Ni	Ni	0.30682 0.20465 0.17685 1.08700
Ni	Ni	0.15023 0.03122 0.94416 1.03400
Ni	Ni	0.23707 0.20084 0.23519 1.10600
Ni	Ni	0.11982 0.16170 0.16554 1.10800
Ni	Ni	0.19669 0.16168 0.11667 1.10400
Ni	Ni	0.15380 0.20489 0.27681 1.08800
P 	P 	0.22111 0.08552 0.21679 0.53500
P 	P 	0.27708 0.95127 0.28416 0.57300
O 	O 	0.16020 0.09810 0.07710 -0.63800
O 	O 	0.15280 0.01090 0.29670 -0.46700
O 	O 	0.33020 0.01010 0.18500 -0.47000
O 	O 	0.33140 0.93200 0.42050 -0.44800
O 	O 	0.12030 0.18000 0.09600 -0.59000
O 	O 	0.23690 0.17620 0.30530 -0.58400
O 	O 	0.20000 0.13620 0.19050 -0.59900
O 	O 	0.33680 0.82120 0.29660 -0.44500
O 	O 	0.37590 0.89820 0.27260 -0.47100
O 	O 	0.23720 0.77060 0.23560 -0.53300
O 	O 	0.28070 0.95570 0.23190 -0.34900
O 	O 	0.34890 0.09120 0.24000 -0.45900
O 	O 	0.31470 0.98900 0.32930 -0.33100
O 	O 	0.15960 0.21950 0.20980 -0.56300
O 	O 	0.29790 0.90060 0.30870 -0.40300
O 	O 	0.27130 0.82120 0.33670 -0.44600
O 	O 	0.23680 0.05760 0.17870 -0.35500
O 	O 	0.27460 0.13590 0.14810 -0.60600
O 	O 	0.34070 0.14300 0.35880 -0.44900
O 	O 	0.17540 0.05850 0.22000 -0.33800
O 	O 	0.13130 0.01720 0.10870 -0.48900
O 	O 	0.17390 0.91330 0.16030 -0.48200
O 	O 	0.13620 0.91700 0.27100 -0.47500
O 	O 	0.19680 0.19160 0.05020 -0.46400
O 	O 	0.20770 0.09050 0.32880 -0.45600
O 	O 	0.21470 0.97010 0.11520 -0.45400
O 	O 	0.14500 0.01710 0.01640 -0.57800
O 	O 	0.31470 0.17610 0.25700 -0.58200
O 	O 	0.27070 0.09210 0.27550 -0.33800
O 	O 	0.39150 0.98890 0.29110 -0.49100
O 	O 	0.21890 0.95570 0.27110 -0.35000
O 	O 	0.23300 0.89930 0.36150 -0.46900
O 	O 	0.19320 0.85880 0.24260 -0.47500
O 	O 	0.25760 0.85820 0.20220 -0.47800
O 	O 	0.40840 0.93250 0.37150 -0.45000
O 	O 	0.31110 0.06480 0.39020 -0.43000
O 	O 	0.38400 0.06540 0.34420 -0.43400
O 	O 	0.11260 0.97060 0.18140 -0.44300
O 	O 	0.07710 0.05240 0.20280 -0.44600
O 	O 	0.24930 0.05130 0.09420 -0.49100
O 	O 	0.13010 0.13750 0.23980 -0.60200
O 	O 	0.41470 0.94800 0.21530 -0.57800
O 	O 	0.23300 0.21910 0.16430 -0.56900
O 	O 	0.37110 0.85410 0.39710 -0.43000
O 	O 	0.39590 0.00510 0.42620 -0.46000
O 	O 	0.15750 0.94980 0.37540 -0.58100
O 	O 	0.28100 0.22240 0.09480 -0.44100
O 	O 	0.07290 0.22200 0.23430 -0.49600
O 	O 	0.04820 0.19120 0.14620 -0.49000
O 	O 	0.25030 0.98940 0.38140 -0.48700
O 	O 	0.08670 0.09830 0.12130 -0.57500
O 	O 	0.30720 0.91520 0.16430 -0.48200
N 	N 	0.15510 0.18820 0.34850 -0.35300
H 	H 	0.12180 0.17850 0.34040 0.07900
H 	H 	0.17850 0.16380 0.36570 0.07000
N 	N 	0.49360 0.00620 0.19760 -0.33400
H 	H 	0.51680 0.00200 0.18520 0.08200
H 	H 	0.45950 0.00810 0.16810 0.08100
N 	N 	0.17860 0.27060 0.31650 -0.30600
H 	H 	0.20900 0.27970 0.31680 0.10200
H 	H 	0.15260 0.29250 0.29680 0.11000
N 	N 	0.12510 0.96150 0.91800 -0.25600
H 	H 	0.10150 0.95180 0.92850 0.04200
H 	H 	0.10860 0.95950 0.88070 0.05900
N 	N 	0.03430 0.06880 0.99660 -0.19400
H 	H 	0.04630 0.06020 0.97360 0.02700
H 	H 	0.03780 0.04350 0.01820 0.05300
N 	N 	0.00390 0.15590 0.02080 -0.55700
H 	H 	0.00410 0.17000 0.05000 0.14400
H 	H 	0.99530 0.17810 0.99420 0.10100
N 	N 	0.38350 0.18640 0.19560 -0.32000
H 	H 	0.39880 0.16650 0.22510 0.07500
H 	H 	0.38240 0.17140 0.16650 0.08000
N 	N 	0.34130 0.26960 0.20520 -0.33900
H 	H 	0.32530 0.29090 0.17710 0.12100
H 	H 	0.33460 0.27910 0.23200 0.10900
N 	N 	0.22710 0.00060 0.98560 -0.43000
H 	H 	0.24710 0.01140 0.97130 0.11300
H 	H 	0.24430 0.00830 0.02200 0.12000
C 	C 	0.23530 0.21460 0.05130 0.38500
C 	C 	0.22600 0.23790 0.99890 -0.23600
H 	H 	0.19740 0.26160 0.98770 0.09000
H 	H 	0.21270 0.21360 0.97000 0.09200
C 	C 	0.18960 0.27010 0.37360 -0.20900
H 	H 	0.22850 0.27300 0.39880 0.05400
H 	H 	0.17250 0.29810 0.37900 0.06800
C 	C 	0.97880 0.08340 0.96510 -0.83400
H 	H 	0.95550 0.05530 0.95330 0.25800
H 	H 	0.97260 0.10040 0.93200 0.20400
C 	C 	0.03940 0.21230 0.18320 0.53500
C 	C 	0.40170 0.27120 0.22840 -0.04300
H 	H 	0.41160 0.30030 0.21660 0.02200
H 	H 	0.42090 0.27060 0.26880 0.00900
C 	C 	0.41540 0.23130 0.20850 -0.08200
H 	H 	0.45290 0.22330 0.23560 0.03100
H 	H 	0.41470 0.24100 0.17470 0.03100
C 	C 	0.18500 0.22350 0.44930 -0.55700
H 	H 	0.22110 0.21030 0.47140 0.14900
H 	H 	0.15910 0.20170 0.44930 0.14500
H 	H 	0.18330 0.25370 0.46480 0.15500
C 	C 	0.50700 0.04960 0.23200 0.01200
H 	H 	0.54700 0.04700 0.25500 0.00900
C 	C 	0.49900 0.09990 0.22100 -0.12700
H 	H 	0.46400 0.10870 0.18920 0.03600
H 	H 	0.52870 0.11680 0.22110 0.03600
C 	C 	0.22100 0.95220 0.97900 0.43600
H 	H 	0.23000 0.95400 0.95000 -0.09900
C 	C 	0.26550 0.91690 0.01000 -0.88600
H 	H 	0.25040 0.88520 0.00440 0.25300
H 	H 	0.28450 0.92440 0.04910 0.26700
H 	H 	0.29040 0.91820 0.99650 0.25400
C 	C 	0.17230 0.93280 0.94340 -0.39600
H 	H 	0.16590 0.90720 0.96290 0.09400
H 	H 	0.17550 0.91800 0.91370 0.12200
C 	C 	0.17230 0.23120 0.38770 0.17100
H 	H 	0.13500 0.24300 0.37400 -0.03700
C 	C 	0.96380 0.11580 0.99890 1.36000
H 	H 	0.98000 0.09600 0.03300 -0.36900
C 	C 	0.91530 0.11850 0.99100 -2.58900
H 	H 	0.91320 0.14530 0.01170 0.74400
H 	H 	0.90710 0.08940 0.00420 0.77400
H 	H 	0.88950 0.12270 0.95230 0.75100
C 	C 	0.98100 0.22590 0.16700 -0.97500
H 	H 	0.98110 0.25760 0.18070 0.30200
H 	H 	0.96780 0.20330 0.18330 0.30500
H 	H 	0.95830 0.22540 0.12730 0.29300
W 	W 	0.85507 0.37207 0.80008 1.00000
W 	W 	0.77236 0.37196 0.85312 0.97200
W 	W 	0.80657 0.42158 0.66150 1.02700
W 	W 	0.73237 0.58865 0.64636 1.00100
W 	W 	0.63515 0.42032 0.77146 1.00600
W 	W 	0.64105 0.58806 0.70453 1.02800
W 	W 	0.58957 0.46352 0.64315 0.97700
W 	W 	0.85859 0.54550 0.72300 1.33400
W 	W 	0.67955 0.46430 0.58592 1.26400
W 	W 	0.68449 0.54455 0.83254 1.34300
W 	W 	0.90673 0.49583 0.86380 1.03800
W 	W 	0.88770 0.62845 0.84000 0.99800
W 	W 	0.80210 0.62873 0.89197 1.00600
W 	W 	0.82436 0.49659 0.91580 1.04100
W 	W 	0.75864 0.67138 0.76157 1.28600
Ni	Ni	0.57889 0.37390 0.54525 1.04600
Ni	Ni	0.80682 0.29535 0.67685 1.08700
Ni	Ni	0.65023 0.46878 0.44416 1.03300
Ni	Ni	0.73707 0.29916 0.73519 1.10600
Ni	Ni	0.61982 0.33830 0.66554 1.10800
Ni	Ni	0.69669 0.33832 0.61667 1.10500
Ni	Ni	0.65380 0.29511 0.77681 1.08800
P 	P 	0.72111 0.41448 0.71679 0.53600
P 	P 	0.77708 0.54873 0.78416 0.57300
O 	O 	0.66020 0.40190 0.57710 -0.63800
O 	O 	0.65280 0.48910 0.79670 -0.46600
O 	O 	0.83020 0.48990 0.68500 -0.46900
O 	O 	0.83140 0.56800 0.92050 -0.44900
O 	O 	0.62030 0.32000 0.59600 -0.59000
O 	O 	0.73690 0.32380 0.80530 -0.58400
O 	O 	0.70000 0.36380 0.69050 -0.59900
O 	O 	0.83680 0.67880 0.79660 -0.44500
O 	O 	0.87590 0.60180 0.77260 -0.47100
O 	O 	0.73720 0.72940 0.73560 -0.53300
O 	O 	0.78070 0.54430 0.73190 -0.34900
O 	O 	0.84890 0.40880 0.74000 -0.45900
O 	O 	0.81470 0.51100 0.82930 -0.33200
O 	O 	0.65960 0.28050 0.70980 -0.56300
O 	O 	0.79790 0.59940 0.80870 -0.40300
O 	O 	0.77130 0.67880 0.83670 -0.44600
O 	O 	0.73680 0.44240 0.67870 -0.35500
O 	O 	0.77460 0.36410 0.64810 -0.60600
O 	O 	0.84070 0.35700 0.85880 -0.44900
O 	O 	0.67540 0.44150 0.72000 -0.33800
O 	O 	0.63130 0.48280 0.60870 -0.48900
O 	O 	0.67390 0.58670 0.66030 -0.48200
O 	O 	0.63620 0.58300 0.77100 -0.47500
O 	O 	0.69680 0.30840 0.55020 -0.46400
O 	O 	0.70770 0.40950 0.82880 -0.45600
O 	O 	0.71470 0.52990 0.61520 -0.45500
O 	O 	0.64500 0.48290 0.51640 -0.57800
O 	O 	0.81470 0.32390 0.75700 -0.58200
O 	O 	0.77070 0.40790 0.77550 -0.33800
O 	O 	0.89150 0.51110 0.79110 -0.49100
O 	O 	0.71890 0.54430 0.77110 -0.35000
O 	O 	0.73300 0.60070 0.86150 -0.46900
O 	O 	0.69320 0.64120 0.74260 -0.47500
O 	O 	0.75760 0.64180 0.70220 -0.47800
O 	O 	0.90840 0.56750 0.87150 -0.45000
O 	O 	0.81110 0.43520 0.89020 -0.43000
O 	O 	0.88400 0.43460 0.84420 -0.43400
O 	O 	0.61260 0.52940 0.68140 -0.44400
O 	O 	0.57710 0.44760 0.70280 -0.44600
O 	O 	0.74930 0.44870 0.59420 -0.49100
O 	O 	0.63010 0.36250 0.73980 -0.60200
O 	O 	0.91470 0.55200 0.71530 -0.57900
O 	O 	0.73300 0.28090 0.66430 -0.56900
O 	O 	0.87110 0.64590 0.89710 -0.43000
O 	O 	0.89590 0.49490 0.92620 -0.46000
O 	O 	0.65750 0.55020 0.87540 -0.58100
O 	O 	0.78100 0.27760 0.59480 -0.44100
O 	O 	0.57290 0.27800 0.73430 -0.49600
O 	O 	0.54820 0.30880 0.64620 -0.49000
O 	O 	0.75030 0.51060 0.88140 -0.48700
O 	O 	0.58670 0.40170 0.62130 -0.57500
O 	O 	0.80720 0.58480 0.66430 -0.48200
N 	N 	0.65510 0.31180 0.84850 -0.35300
H 	H 	0.62180 0.32150 0.84040 0.07900
H 	H 	0.67850 0.33620 0.86570 0.07000
N 	N 	0.99360 0.49380 0.69760 -0.33300
H 	H 	0.01680 0.49800 0.68520 0.08200
H 	H 	0.95950 0.49190 0.66810 0.08100
N 	N 	0.67860 0.22940 0.81650 -0.30600
H 	H 	0.70900 0.22030 0.81680 0.10200
H 	H 	0.65260 0.20750 0.79680 0.11000
N 	N 	0.62510 0.53850 0.41800 -0.25400
H 	H 	0.60150 0.54820 0.42850 0.04100
H 	H 	0.60860 0.54050 0.38070 0.05900
N 	N 	0.53430 0.43120 0.49660 -0.19200
H 	H 	0.54630 0.43980 0.47360 0.02600
H 	H 	0.53780 0.45650 0.51820 0.05300
N 	N 	0.50390 0.34410 0.52080 -0.56000
H 	H 	0.50410 0.33000 0.55000 0.14400
H 	H 	0.49530 0.32190 0.49420 0.10000
N 	N 	0.88350 0.31360 0.69560 -0.32000
H 	H 	0.89880 0.33350 0.72510 0.07500
H 	H 	0.88240 0.32860 0.66650 0.08000
N 	N 	0.84130 0.23040 0.70520 -0.33900
H 	H 	0.82530 0.20910 0.67710 0.12100
H 	H 	0.83460 0.22090 0.73200 0.10900
N 	N 	0.72710 0.49940 0.48560 -0.43500
H 	H 	0.74710 0.48860 0.47130 0.11300
H 	H 	0.74430 0.49170 0.52200 0.12100
C 	C 	0.73530 0.28540 0.55130 0.38600
C 	C 	0.72600 0.26210 0.49890 -0.23900
H 	H 	0.69740 0.23840 0.48770 0.09100
H 	H 	0.71270 0.28640 0.47000 0.09200
C 	C 	0.68960 0.22990 0.87360 -0.21000
H 	H 	0.72850 0.22700 0.89880 0.05500
H 	H 	0.67250 0.20190 0.87900 0.06800
C 	C 	0.47880 0.41660 0.46510 -0.84800
H 	H 	0.45550 0.44470 0.45330 0.26100
H 	H 	0.47260 0.39960 0.43200 0.20700
C 	C 	0.53940 0.28770 0.68320 0.53500
C 	C 	0.90170 0.22880 0.72840 -0.04300
H 	H 	0.91160 0.19970 0.71660 0.02200
H 	H 	0.92090 0.22940 0.76880 0.00900
C 	C 	0.91540 0.26870 0.70850 -0.08200
H 	H 	0.95290 0.27670 0.73560 0.03100
H 	H 	0.91470 0.25900 0.67470 0.03100
C 	C 	0.68500 0.27650 0.94930 -0.55800
H 	H 	0.72110 0.28970 0.97140 0.15000
H 	H 	0.65910 0.29830 0.94930 0.14600
H 	H 	0.68330 0.24630 0.96480 0.15600
C 	C 	0.00700 0.45040 0.73200 0.00800
H 	H 	0.04700 0.45300 0.75500 0.01100
C 	C 	0.99900 0.40010 0.72100 -0.12200
H 	H 	0.96400 0.39130 0.68920 0.03500
H 	H 	0.02870 0.38320 0.72110 0.03400
C 	C 	0.72100 0.54780 0.47900 0.45100
H 	H 	0.73000 0.54600 0.45000 -0.10200
C 	C 	0.76550 0.58310 0.51000 -0.91000
H 	H 	0.75040 0.61480 0.50440 0.25900
H 	H 	0.78450 0.57560 0.54910 0.27300
H 	H 	0.79040 0.58180 0.49650 0.26200
C 	C 	0.67230 0.56720 0.44340 -0.40600
H 	H 	0.66590 0.59280 0.46290 0.09600
H 	H 	0.67550 0.58200 0.41370 0.12500
C 	C 	0.67230 0.26880 0.88770 0.17200
H 	H 	0.63500 0.25700 0.87400 -0.03700
C 	C 	0.46380 0.38420 0.49890 1.38400
H 	H 	0.48000 0.40400 0.53300 -0.37400
C 	C 	0.41530 0.38150 0.49100 -2.64300
H 	H 	0.41320 0.35470 0.51170 0.76000
H 	H 	0.40710 0.41060 0.50420 0.79100
H 	H 	0.38950 0.37730 0.45230 0.76600
C 	C 	0.48100 0.27410 0.66700 -0.97300
H 	H 	0.48110 0.24240 0.68070 0.30200
H 	H 	0.46780 0.29670 0.68330 0.30500
H 	H 	0.45830 0.27460 0.62730 0.29300
W 	W 	0.35507 0.87207 0.80008 1.00000
W 	W 	0.27236 0.87196 0.85312 0.97200
W 	W 	0.30657 0.92158 0.66150 1.02700
W 	W 	0.23237 0.08865 0.64636 1.00100
W 	W 	0.13515 0.92032 0.77146 1.00600
W 	W 	0.14105 0.08806 0.70453 1.02800
W 	W 	0.08957 0.96352 0.64315 0.97700
W 	W 	0.35859 0.04550 0.72300 1.33400
W 	W 	0.17955 0.96430 0.58592 1.26400
W 	W 	0.18449 0.04455 0.83254 1.34300
W 	W 	0.40673 0.99583 0.86380 1.03600
W 	W 	0.38770 0.12845 0.84000 0.99800
W 	W 	0.30210 0.12873 0.89197 1.00600
W 	W 	0.32436 0.99659 0.91580 1.03900
W 	W 	0.25864 0.17138 0.76157 1.28600
Ni	Ni	0.07889 0.87390 0.54525 1.04600
Ni	Ni	0.30682 0.79535 0.67685 1.08700
Ni	Ni	0.15023 0.96878 0.44416 1.03300
Ni	Ni	0.23707 0.79916 0.73519 1.10600
Ni	Ni	0.11982 0.83830 0.66554 1.10800
Ni	Ni	0.19669 0.83832 0.61667 1.10500
Ni	Ni	0.15380 0.79511 0.77681 1.08800
P 	P 	0.22111 0.91448 0.71679 0.53500
P 	P 	0.27708 0.04873 0.78416 0.57300
O 	O 	0.16020 0.90190 0.57710 -0.63800
O 	O 	0.15280 0.98910 0.79670 -0.46700
O 	O 	0.33020 0.98990 0.68500 -0.46900
O 	O 	0.33140 0.06800 0.92050 -0.44800
O 	O 	0.12030 0.82000 0.59600 -0.59000
O 	O 	0.23690 0.82380 0.80530 -0.58400
O 	O 	0.20000 0.86380 0.69050 -0.59900
O 	O 	0.33680 0.17880 0.79660 -0.44500
O 	O 	0.37590 0.10180 0.77260 -0.47100
O 	O 	0.23720 0.22940 0.73560 -0.53300
O 	O 	0.28070 0.04430 0.73190 -0.34900
O 	O 	0.34890 0.90880 0.74000 -0.45900
O 	O 	0.31470 0.01100 0.82930 -0.33100
O 	O 	0.15960 0.78050 0.70980 -0.56300
O 	O 	0.29790 0.09940 0.80870 -0.40300
O 	O 	0.27130 0.17880 0.83670 -0.44600
O 	O 	0.23680 0.94240 0.67870 -0.35500
O 	O 	0.27460 0.86410 0.64810 -0.60600
O 	O 	0.34070 0.85700 0.85880 -0.44900
O 	O 	0.17540 0.94150 0.72000 -0.33800
O 	O 	0.13130 0.98280 0.60870 -0.48900
O 	O 	0.17390 0.08670 0.66030 -0.48200
O 	O 	0.13620 0.08300 0.77100 -0.47500
O 	O 	0.19680 0.80840 0.55020 -0.46400
O 	O 	0.20770 0.90950 0.82880 -0.45600
O 	O 	0.21470 0.02990 0.61520 -0.45500
O 	O 	0.14500 0.98290 0.51640 -0.57800
O 	O 	0.31470 0.82390 0.75700 -0.58200
O 	O 	0.27070 0.90790 0.77550 -0.33800
O 	O 	0.39150 0.01110 0.79110 -0.49000
O 	O 	0.21890 0.04430 0.77110 -0.35000
O 	O 	0.23300 0.10070 0.86150 -0.46900
O 	O 	0.19320 0.14120 0.74260 -0.47500
O 	O 	0.25760 0.14180 0.70220 -0.47800
O 	O 	0.40840 0.06750 0.87150 -0.44900
O 	O 	0.31110 0.93520 0.89020 -0.43000
O 	O 	0.38400 0.93460 0.84420 -0.43400
O 	O 	0.11260 0.02940 0.68140 -0.44300
O 	O 	0.07710 0.94760 0.70280 -0.44600
O 	O 	0.24930 0.94870 0.59420 -0.49100
O 	O 	0.13010 0.86250 0.73980 -0.60200
O 	O 	0.41470 0.05200 0.71530 -0.57800
O 	O 	0.23300 0.78090 0.66430 -0.56900
O 	O 	0.37110 0.14590 0.89710 -0.43000
O 	O 	0.39590 0.99490 0.92620 -0.46000
O 	O 	0.15750 0.05020 0.87540 -0.58100
O 	O 	0.28100 0.77760 0.59480 -0.44100
O 	O 	0.07290 0.77800 0.73430 -0.49600
O 	O 	0.04820 0.80880 0.64620 -0.49000
O 	O 	0.25030 0.01060 0.88140 -0.48600
O 	O 	0.08670 0.90170 0.62130 -0.57500
O 	O 	0.30720 0.08480 0.66430 -0.48200
N 	N 	0.15510 0.81180 0.84850 -0.35300
H 	H 	0.12180 0.82150 0.84040 0.07900
H 	H 	0.17850 0.83620 0.86570 0.07100
N 	N 	0.49360 0.99380 0.69760 -0.33400
H 	H 	0.51680 0.99800 0.68520 0.08200
H 	H 	0.45950 0.99190 0.66810 0.08100
N 	N 	0.17860 0.72940 0.81650 -0.30600
H 	H 	0.20900 0.72030 0.81680 0.10200
H 	H 	0.15260 0.70750 0.79680 0.11000
N 	N 	0.12510 0.03850 0.41800 -0.25400
H 	H 	0.10150 0.04820 0.42850 0.04100
H 	H 	0.10860 0.04050 0.38070 0.05900
N 	N 	0.03430 0.93120 0.49660 -0.19200
H 	H 	0.04630 0.93980 0.47360 0.02600
H 	H 	0.03780 0.95650 0.51820 0.05300
N 	N 	0.00390 0.84410 0.52080 -0.56000
H 	H 	0.00410 0.83000 0.55000 0.14400
H 	H 	0.99530 0.82190 0.49420 0.10000
N 	N 	0.38350 0.81360 0.69560 -0.32000
H 	H 	0.39880 0.83350 0.72510 0.07500
H 	H 	0.38240 0.82860 0.66650 0.08000
N 	N 	0.34130 0.73040 0.70520 -0.33900
H 	H 	0.32530 0.70910 0.67710 0.12100
H 	H 	0.33460 0.72090 0.73200 0.10900
N 	N 	0.22710 0.99940 0.48560 -0.43500
H 	H 	0.24710 0.98860 0.47130 0.11300
H 	H 	0.24430 0.99170 0.52200 0.12100
C 	C 	0.23530 0.78540 0.55130 0.38600
C 	C 	0.22600 0.76210 0.49890 -0.23900
H 	H 	0.19740 0.73840 0.48770 0.09100
H 	H 	0.21270 0.78640 0.47000 0.09200
C 	C 	0.18960 0.72990 0.87360 -0.20900
H 	H 	0.22850 0.72700 0.89880 0.05400
H 	H 	0.17250 0.70190 0.87900 0.06700
C 	C 	0.97880 0.91660 0.46510 -0.84800
H 	H 	0.95550 0.94470 0.45330 0.26100
H 	H 	0.97260 0.89960 0.43200 0.20800
C 	C 	0.03940 0.78770 0.68320 0.53400
C 	C 	0.40170 0.72880 0.72840 -0.04300
H 	H 	0.41160 0.69970 0.71660 0.02200
H 	H 	0.42090 0.72940 0.76880 0.00900
C 	C 	0.41540 0.76870 0.70850 -0.08200
H 	H 	0.45290 0.77670 0.73560 0.03100
H 	H 	0.41470 0.75900 0.67470 0.03100
C 	C 	0.18500 0.77650 0.94930 -0.55700
H 	H 	0.22110 0.78970 0.97140 0.14900
H 	H 	0.15910 0.79830 0.94930 0.14600
H 	H 	0.18330 0.74630 0.96480 0.15500
C 	C 	0.50700 0.95040 0.73200 0.01300
H 	H 	0.54700 0.95300 0.75500 0.00900
C 	C 	0.49900 0.90010 0.72100 -0.12700
H 	H 	0.46400 0.89130 0.68920 0.03600
H 	H 	0.52870 0.88320 0.72110 0.03600
C 	C 	0.22100 0.04780 0.47900 0.45100
H 	H 	0.23000 0.04600 0.45000 -0.10200
C 	C 	0.26550 0.08310 0.51000 -0.91000
H 	H 	0.25040 0.11480 0.50440 0.25900
H 	H 	0.28450 0.07560 0.54910 0.27300
H 	H 	0.29040 0.08180 0.49650 0.26300
C 	C 	0.17230 0.06720 0.44340 -0.40600
H 	H 	0.16590 0.09280 0.46290 0.09600
H 	H 	0.17550 0.08200 0.41370 0.12500
C 	C 	0.17230 0.76880 0.88770 0.17100
H 	H 	0.13500 0.75700 0.87400 -0.03700
C 	C 	0.96380 0.88420 0.49890 1.38500
H 	H 	0.98000 0.90400 0.53300 -0.37400
C 	C 	0.91530 0.88150 0.49100 -2.64400
H 	H 	0.91320 0.85470 0.51170 0.76100
H 	H 	0.90710 0.91060 0.50420 0.79100
H 	H 	0.88950 0.87730 0.45230 0.76700
C 	C 	0.98100 0.77410 0.66700 -0.97300
H 	H 	0.98110 0.74240 0.68070 0.30200
H 	H 	0.96780 0.79670 0.68330 0.30500
H 	H 	0.95830 0.77460 0.62730 0.29300
W 	W 	0.14493 0.37207 0.69992 1.00000
W 	W 	0.22764 0.37196 0.64688 0.97200
W 	W 	0.19343 0.42158 0.83850 1.02600
W 	W 	0.26763 0.58865 0.85364 1.00100
W 	W 	0.36485 0.42032 0.72854 1.00600
W 	W 	0.35895 0.58806 0.79547 1.02800
W 	W 	0.41043 0.46352 0.85685 0.97700
W 	W 	0.14141 0.54550 0.77700 1.33400
W 	W 	0.32045 0.46430 0.91408 1.26400
W 	W 	0.31551 0.54455 0.66746 1.34300
W 	W 	0.09327 0.49583 0.63620 1.03800
W 	W 	0.11230 0.62845 0.66000 0.99800
W 	W 	0.19790 0.62873 0.60803 1.00600
W 	W 	0.17564 0.49659 0.58420 1.04100
W 	W 	0.24136 0.67138 0.73843 1.28600
Ni	Ni	0.42111 0.37390 0.95475 1.04600
Ni	Ni	0.19318 0.29535 0.82315 1.08700
Ni	Ni	0.34977 0.46878 0.05584 1.03300
Ni	Ni	0.26293 0.29916 0.76481 1.10600
Ni	Ni	0.38018 0.33830 0.83446 1.10800
Ni	Ni	0.30331 0.33832 0.88333 1.10500
Ni	Ni	0.34620 0.29511 0.72319 1.08800
P 	P 	0.27889 0.41448 0.78321 0.53500
P 	P 	0.22292 0.54873 0.71584 0.57300
O 	O 	0.33980 0.40190 0.92290 -0.63800
O 	O 	0.34720 0.48910 0.70330 -0.46600
O 	O 	0.16980 0.48990 0.81500 -0.46900
O 	O 	0.16860 0.56800 0.57950 -0.44900
O 	O 	0.37970 0.32000 0.90400 -0.59000
O 	O 	0.26310 0.32380 0.69470 -0.58400
O 	O 	0.30000 0.36380 0.80950 -0.59900
O 	O 	0.16320 0.67880 0.70340 -0.44500
O 	O 	0.12410 0.60180 0.72740 -0.47100
O 	O 	0.26280 0.72940 0.76440 -0.53300
O 	O 	0.21930 0.54430 0.76810 -0.34900
O 	O 	0.15110 0.40880 0.76000 -0.45900
O 	O 	0.18530 0.51100 0.67070 -0.33200
O 	O 	0.34040 0.28050 0.79020 -0.56300
O 	O 	0.20210 0.59940 0.69130 -0.40300
O 	O 	0.22870 0.67880 0.66330 -0.44600
O 	O 	0.26320 0.44240 0.82130 -0.35500
O 	O 	0.22540 0.36410 0.85190 -0.60600
O 	O 	0.15930 0.35700 0.64120 -0.44900
O 	O 	0.32460 0.44150 0.78000 -0.33800
O 	O 	0.36870 0.48280 0.89130 -0.48900
O 	O 	0.32610 0.58670 0.83970 -0.48200
O 	O 	0.36380 0.58300 0.72900 -0.47500
O 	O 	0.30320 0.30840 0.94980 -0.46400
O 	O 	0.29230 0.40950 0.67120 -0.45600
O 	O 	0.28530 0.52990 0.88480 -0.45500
O 	O 	0.35500 0.48290 0.98360 -0.57800
O 	O 	0.18530 0.32390 0.74300 -0.58200
O 	O 	0.22930 0.40790 0.72450 -0.33800
O 	O 	0.10850 0.51110 0.70890 -0.49100
O 	O 	0.28110 0.54430 0.72890 -0.35000
O 	O 	0.26700 0.60070 0.63850 -0.46900
O 	O 	0.30680 0.64120 0.75740 -0.47500
O 	O 	0.24240 0.64180 0.79780 -0.47800
O 	O 	0.09160 0.56750 0.62850 -0.45000
O 	O 	0.18890 0.43520 0.60980 -0.43000
O 	O 	0.11600 0.43460 0.65580 -0.43400
O 	O 	0.38740 0.52940 0.81860 -0.44400
O 	O 	0.42290 0.44760 0.79720 -0.44600
O 	O 	0.25070 0.44870 0.90580 -0.49100
O 	O 	0.36990 0.36250 0.76020 -0.60200
O 	O 	0.08530 0.55200 0.78470 -0.57900
O 	O 	0.26700 0.28090 0.83570 -0.56900
O 	O 	0.12890 0.64590 0.60290 -0.43000
O 	O 	0.10410 0.49490 0.57380 -0.46000
O 	O 	0.34250 0.55020 0.62460 -0.58100
O 	O 	0.21900 0.27760 0.90520 -0.44200
O 	O 	0.42710 0.27800 0.76570 -0.49600
O 	O 	0.45180 0.30880 0.85380 -0.49000
O 	O 	0.24970 0.51060 0.61860 -0.48700
O 	O 	0.41330 0.40170 0.87870 -0.57500
O 	O 	0.19280 0.58480 0.83570 -0.48200
N 	N 	0.34490 0.31180 0.65150 -0.35300
H 	H 	0.37820 0.32150 0.65960 0.07900
H 	H 	0.32150 0.33620 0.63430 0.07000
N 	N 	0.00640 0.49380 0.80240 -0.33500
H 	H 	0.98320 0.49800 0.81480 0.08300
H 	H 	0.04050 0.49190 0.83190 0.08100
N 	N 	0.32140 0.22940 0.68350 -0.30600
H 	H 	0.29100 0.22030 0.68320 0.10200
H 	H 	0.34740 0.20750 0.70320 0.11000
N 	N 	0.37490 0.53850 0.08200 -0.25300
H 	H 	0.39850 0.54820 0.07150 0.04100
H 	H 	0.39140 0.54050 0.11930 0.05900
N 	N 	0.46570 0.43120 0.00340 -0.19200
H 	H 	0.45370 0.43980 0.02640 0.02600
H 	H 	0.46220 0.45650 0.98180 0.05300
N 	N 	0.49610 0.34410 0.97920 -0.56100
H 	H 	0.49590 0.33000 0.95000 0.14400
H 	H 	0.50470 0.32190 0.00580 0.09900
N 	N 	0.11650 0.31360 0.80440 -0.32000
H 	H 	0.10120 0.33350 0.77490 0.07500
H 	H 	0.11760 0.32860 0.83350 0.08000
N 	N 	0.15870 0.23040 0.79480 -0.33900
H 	H 	0.17470 0.20910 0.82290 0.12100
H 	H 	0.16540 0.22090 0.76800 0.10900
N 	N 	0.27290 0.49940 0.01440 -0.43500
H 	H 	0.25290 0.48860 0.02870 0.11300
H 	H 	0.25570 0.49170 0.97800 0.12100
C 	C 	0.26470 0.28540 0.94870 0.38700
C 	C 	0.27400 0.26210 0.00110 -0.24100
H 	H 	0.30260 0.23840 0.01230 0.09100
H 	H 	0.28730 0.28640 0.03000 0.09300
C 	C 	0.31040 0.22990 0.62640 -0.20900
H 	H 	0.27150 0.22700 0.60120 0.05400
H 	H 	0.32750 0.20190 0.62100 0.06800
C 	C 	0.52120 0.41660 0.03490 -0.85200
H 	H 	0.54450 0.44470 0.04670 0.26200
H 	H 	0.52740 0.39960 0.06800 0.20900
C 	C 	0.46060 0.28770 0.81680 0.53500
C 	C 	0.09830 0.22880 0.77160 -0.04300
H 	H 	0.08840 0.19970 0.78340 0.02200
H 	H 	0.07910 0.22940 0.73120 0.00900
C 	C 	0.08460 0.26870 0.79150 -0.08200
H 	H 	0.04710 0.27670 0.76440 0.03100
H 	H 	0.08530 0.25900 0.82530 0.03100
C 	C 	0.31500 0.27650 0.55070 -0.55700
H 	H 	0.27890 0.28970 0.52860 0.14900
H 	H 	0.34090 0.29830 0.55070 0.14500
H 	H 	0.31670 0.24630 0.53520 0.15500
C 	C 	0.99300 0.45040 0.76800 0.01700
H 	H 	0.95300 0.45300 0.74500 0.00800
C 	C 	0.00100 0.40010 0.77900 -0.13300
H 	H 	0.03600 0.39130 0.81080 0.03800
H 	H 	0.97130 0.38320 0.77890 0.03800
C 	C 	0.27900 0.54780 0.02100 0.45400
H 	H 	0.27000 0.54600 0.05000 -0.10300
C 	C 	0.23450 0.58310 0.99000 -0.91600
H 	H 	0.24960 0.61480 0.99560 0.26000
H 	H 	0.21550 0.57560 0.95090 0.27400
H 	H 	0.20960 0.58180 0.00350 0.26500
C 	C 	0.32770 0.56720 0.05660 -0.40800
H 	H 	0.33410 0.59280 0.03710 0.09700
H 	H 	0.32450 0.58200 0.08630 0.12600
C 	C 	0.32770 0.26880 0.61230 0.17100
H 	H 	0.36500 0.25700 0.62600 -0.03700
C 	C 	0.53620 0.38420 0.00110 1.39100
H 	H 	0.52000 0.40400 0.96700 -0.37600
C 	C 	0.58470 0.38150 0.00900 -2.65800
H 	H 	0.58680 0.35470 0.98830 0.76500
H 	H 	0.59290 0.41060 0.99580 0.79600
H 	H 	0.61050 0.37730 0.04770 0.77100
C 	C 	0.51900 0.27410 0.83300 -0.97300
H 	H 	0.51890 0.24240 0.81930 0.30200
H 	H 	0.53220 0.29670 0.81670 0.30500
H 	H 	0.54170 0.27460 0.87270 0.29300
W 	W 	0.64493 0.87207 0.69992 1.00000
W 	W 	0.72764 0.87196 0.64688 0.97200
W 	W 	0.69343 0.92158 0.83850 1.02600
W 	W 	0.76763 0.08865 0.85364 1.00300
W 	W 	0.86485 0.92032 0.72854 1.00600
W 	W 	0.85895 0.08806 0.79547 1.02900
W 	W 	0.91043 0.96352 0.85685 0.97700
W 	W 	0.64141 0.04550 0.77700 1.33500
W 	W 	0.82045 0.96430 0.91408 1.26400
W 	W 	0.81551 0.04455 0.66746 1.34300
W 	W 	0.59327 0.99583 0.63620 1.03700
W 	W 	0.61230 0.12845 0.66000 0.99800
W 	W 	0.69790 0.12873 0.60803 1.00600
W 	W 	0.67564 0.99659 0.58420 1.04100
W 	W 	0.74136 0.17138 0.73843 1.28600
Ni	Ni	0.92111 0.87390 0.95475 1.04600
Ni	Ni	0.69318 0.79535 0.82315 1.08700
Ni	Ni	0.84977 0.96878 0.05584 1.03400
Ni	Ni	0.76293 0.79916 0.76481 1.10600
Ni	Ni	0.88018 0.83830 0.83446 1.10800
Ni	Ni	0.80331 0.83832 0.88333 1.10400
Ni	Ni	0.84620 0.79511 0.72319 1.08800
P 	P 	0.77889 0.91448 0.78321 0.53500
P 	P 	0.72292 0.04873 0.71584 0.57300
O 	O 	0.83980 0.90190 0.92290 -0.63800
O 	O 	0.84720 0.98910 0.70330 -0.46700
O 	O 	0.66980 0.98990 0.81500 -0.47000
O 	O 	0.66860 0.06800 0.57950 -0.44800
O 	O 	0.87970 0.82000 0.90400 -0.59000
O 	O 	0.76310 0.82380 0.69470 -0.58400
O 	O 	0.80000 0.86380 0.80950 -0.59900
O 	O 	0.66320 0.17880 0.70340 -0.44500
O 	O 	0.62410 0.10180 0.72740 -0.47100
O 	O 	0.76280 0.22940 0.76440 -0.53300
O 	O 	0.71930 0.04430 0.76810 -0.34900
O 	O 	0.65110 0.90880 0.76000 -0.45900
O 	O 	0.68530 0.01100 0.67070 -0.33100
O 	O 	0.84040 0.78050 0.79020 -0.56300
O 	O 	0.70210 0.09940 0.69130 -0.40300
O 	O 	0.72870 0.17880 0.66330 -0.44600
O 	O 	0.76320 0.94240 0.82130 -0.35500
O 	O 	0.72540 0.86410 0.85190 -0.60600
O 	O 	0.65930 0.85700 0.64120 -0.44900
O 	O 	0.82460 0.94150 0.78000 -0.33800
O 	O 	0.86870 0.98280 0.89130 -0.48900
O 	O 	0.82610 0.08670 0.83970 -0.48200
O 	O 	0.86380 0.08300 0.72900 -0.47500
O 	O 	0.80320 0.80840 0.94980 -0.46400
O 	O 	0.79230 0.90950 0.67120 -0.45600
O 	O 	0.78530 0.02990 0.88480 -0.45400
O 	O 	0.85500 0.98290 0.98360 -0.57800
O 	O 	0.68530 0.82390 0.74300 -0.58200
O 	O 	0.72930 0.90790 0.72450 -0.33800
O 	O 	0.60850 0.01110 0.70890 -0.49100
O 	O 	0.78110 0.04430 0.72890 -0.35000
O 	O 	0.76700 0.10070 0.63850 -0.46900
O 	O 	0.80680 0.14120 0.75740 -0.47500
O 	O 	0.74240 0.14180 0.79780 -0.47800
O 	O 	0.59160 0.06750 0.62850 -0.45000
O 	O 	0.68890 0.93520 0.60980 -0.43000
O 	O 	0.61600 0.93460 0.65580 -0.43400
O 	O 	0.88740 0.02940 0.81860 -0.44300
O 	O 	0.92290 0.94760 0.79720 -0.44600
O 	O 	0.75070 0.94870 0.90580 -0.49100
O 	O 	0.86990 0.86250 0.76020 -0.60200
O 	O 	0.58530 0.05200 0.78470 -0.57800
O 	O 	0.76700 0.78090 0.83570 -0.56900
O 	O 	0.62890 0.14590 0.60290 -0.43000
O 	O 	0.60410 0.99490 0.57380 -0.46000
O 	O 	0.84250 0.05020 0.62460 -0.58100
O 	O 	0.71900 0.77760 0.90520 -0.44100
O 	O 	0.92710 0.77800 0.76570 -0.49600
O 	O 	0.95180 0.80880 0.85380 -0.49000
O 	O 	0.74970 0.01060 0.61860 -0.48700
O 	O 	0.91330 0.90170 0.87870 -0.57500
O 	O 	0.69280 0.08480 0.83570 -0.48200
N 	N 	0.84490 0.81180 0.65150 -0.35300
H 	H 	0.87820 0.82150 0.65960 0.07900
H 	H 	0.82150 0.83620 0.63430 0.07000
N 	N 	0.50640 0.99380 0.80240 -0.33400
H 	H 	0.48320 0.99800 0.81480 0.08200
H 	H 	0.54050 0.99190 0.83190 0.08100
N 	N 	0.82140 0.72940 0.68350 -0.30600
H 	H 	0.79100 0.72030 0.68320 0.10200
H 	H 	0.84740 0.70750 0.70320 0.11000
N 	N 	0.87490 0.03850 0.08200 -0.25600
H 	H 	0.89850 0.04820 0.07150 0.04200
H 	H 	0.89140 0.04050 0.11930 0.05900
N 	N 	0.96570 0.93120 0.00340 -0.19400
H 	H 	0.95370 0.93980 0.02640 0.02700
H 	H 	0.96220 0.95650 0.98180 0.05300
N 	N 	0.99610 0.84410 0.97920 -0.55700
H 	H 	0.99590 0.83000 0.95000 0.14400
H 	H 	0.00470 0.82190 0.00580 0.10100
N 	N 	0.61650 0.81360 0.80440 -0.32000
H 	H 	0.60120 0.83350 0.77490 0.07500
H 	H 	0.61760 0.82860 0.83350 0.08000
N 	N 	0.65870 0.73040 0.79480 -0.33900
H 	H 	0.67470 0.70910 0.82290 0.12100
H 	H 	0.66540 0.72090 0.76800 0.10900
N 	N 	0.77290 0.99940 0.01440 -0.43000
H 	H 	0.75290 0.98860 0.02870 0.11300
H 	H 	0.75570 0.99170 0.97800 0.12000
C 	C 	0.76470 0.78540 0.94870 0.38500
C 	C 	0.77400 0.76210 0.00110 -0.23600
H 	H 	0.80260 0.73840 0.01230 0.09000
H 	H 	0.78730 0.78640 0.03000 0.09200
C 	C 	0.81040 0.72990 0.62640 -0.20900
H 	H 	0.77150 0.72700 0.60120 0.05400
H 	H 	0.82750 0.70190 0.62100 0.06800
C 	C 	0.02120 0.91660 0.03490 -0.83400
H 	H 	0.04450 0.94470 0.04670 0.25800
H 	H 	0.02740 0.89960 0.06800 0.20400
C 	C 	0.96060 0.78770 0.81680 0.53500
C 	C 	0.59830 0.72880 0.77160 -0.04300
H 	H 	0.58840 0.69970 0.78340 0.02200
H 	H 	0.57910 0.72940 0.73120 0.00900
C 	C 	0.58460 0.76870 0.79150 -0.08200
H 	H 	0.54710 0.77670 0.76440 0.03100
H 	H 	0.58530 0.75900 0.82530 0.03100
C 	C 	0.81500 0.77650 0.55070 -0.55700
H 	H 	0.77890 0.78970 0.52860 0.14900
H 	H 	0.84090 0.79830 0.55070 0.14500
H 	H 	0.81670 0.74630 0.53520 0.15500
C 	C 	0.49300 0.95040 0.76800 0.01200
H 	H 	0.45300 0.95300 0.74500 0.00900
C 	C 	0.50100 0.90010 0.77900 -0.12700
H 	H 	0.53600 0.89130 0.81080 0.03600
H 	H 	0.47130 0.88320 0.77890 0.03600
C 	C 	0.77900 0.04780 0.02100 0.43600
H 	H 	0.77000 0.04600 0.05000 -0.09900
C 	C 	0.73450 0.08310 0.99000 -0.88600
H 	H 	0.74960 0.11480 0.99560 0.25300
H 	H 	0.71550 0.07560 0.95090 0.26700
H 	H 	0.70960 0.08180 0.00350 0.25400
C 	C 	0.82770 0.06720 0.05660 -0.39600
H 	H 	0.83410 0.09280 0.03710 0.09400
H 	H 	0.82450 0.08200 0.08630 0.12200
C 	C 	0.82770 0.76880 0.61230 0.17100
H 	H 	0.86500 0.75700 0.62600 -0.03700
C 	C 	0.03620 0.88420 0.00110 1.36000
H 	H 	0.02000 0.90400 0.96700 -0.36900
C 	C 	0.08470 0.88150 0.00900 -2.58900
H 	H 	0.08680 0.85470 0.98830 0.74400
H 	H 	0.09290 0.91060 0.99580 0.77400
H 	H 	0.11050 0.87730 0.04770 0.75100
C 	C 	0.01900 0.77410 0.83300 -0.97500
H 	H 	0.01890 0.74240 0.81930 0.30200
H 	H 	0.03220 0.79670 0.81670 0.30500
H 	H 	0.04170 0.77460 0.87270 0.29300
Ni	Ni	0.00000 0.44980 0.25000 1.03200
Ni	Ni	0.50000 0.94980 0.25000 1.03200
Ni	Ni	1.00000 0.55020 0.75000 1.03200
Ni	Ni	0.50000 0.05020 0.75000 1.03200
