data_crystal

_cell_length_a 9.51370
_cell_length_b 16.11340
_cell_length_c 27.58450
_cell_angle_alpha 91.80200
_cell_angle_beta  91.48900
_cell_angle_gamma 94.44100

_symmetry_space_group_name_	'P 1'
_symmetry_space_group_name_H-M	'P 1'

loop_
_symmetry_equiv_pos_as_xyz
  x,y,z

loop_
_atom_site_label
_atom_site_type_symbol
_atom_site_fract_x
_atom_site_fract_y
_atom_site_fract_z
_atom_site_charge
Zn	Zn	0.97161 0.01331 0.15163 1.20700
Zn	Zn	0.37893 0.46171 0.03075 1.23600
Zn	Zn	0.12525 0.04650 0.47407 1.24000
Zn	Zn	0.52723 0.53236 0.34459 1.20900
O 	O 	0.40430 0.59245 0.30059 -0.43000
O 	O 	0.30140 0.09479 0.44689 -0.41600
O 	O 	0.57580 0.63457 0.01718 -0.42600
O 	O 	0.94630 0.09313 0.20771 -0.40600
O 	O 	0.20190 0.41608 0.05759 -0.41500
O 	O 	0.54320 0.42824 0.07127 -0.43200
O 	O 	0.40990 0.57762 0.06478 -0.42900
O 	O 	0.10360 0.94803 0.19152 -0.42200
O 	O 	0.54940 0.42708 0.30686 -0.42700
O 	O 	0.69680 0.39143 0.36534 -0.29000
O 	O 	0.84220 0.14432 0.14463 -0.32400
O 	O 	0.71540 0.48034 0.02428 -0.44400
O 	O 	0.26050 0.20671 0.40403 -0.25400
O 	O 	0.90740 0.87055 0.46977 -0.43800
O 	O 	0.78377 0.02565 0.47753 -0.45900
O 	O 	0.79182 0.94879 0.14784 -0.44000
O 	O 	0.95853 0.09179 0.43989 -0.44900
O 	O 	0.66307 0.61560 0.38321 -0.40800
O 	O 	0.23804 0.90137 0.13301 -0.27500
O 	O 	0.83805 0.90373 0.07329 -0.29600
C 	C 	0.08975 0.81644 0.36212 -0.01300
H 	H 	0.16320 0.86000 0.36390 0.06600
C 	C 	0.81520 0.20980 0.22308 -0.05500
O 	O 	0.73190 0.58713 0.30955 -0.34300
C 	C 	0.87020 0.14620 0.18901 0.29900
C 	C 	0.16090 0.82490 0.25139 -0.04100
H 	H 	0.08670 0.85980 0.25730 0.07000
O 	O 	0.33070 0.67635 0.35890 -0.27900
C 	C 	0.83210 0.07520 0.44802 0.41800
C 	C 	0.73130 0.34380 0.24281 -0.03400
H 	H 	0.71630 0.39890 0.23370 0.06500
C 	C 	0.64380 0.38320 0.32376 0.32000
C 	C 	0.77940 0.18550 0.26944 -0.04400
H 	H 	0.79680 0.13080 0.27870 0.06800
C 	C 	0.83410 0.32450 0.16145 0.01600
C 	C 	0.33790 0.15350 0.41934 0.34700
C 	C 	0.72720 0.11910 0.41875 -0.09300
O 	O 	0.24990 0.32219 0.11322 -0.25600
C 	C 	0.58740 0.11540 0.43110 0.03500
H 	H 	0.55700 0.08330 0.45780 0.05700
O 	O 	0.07890 0.94030 0.43218 -0.45200
C 	C 	0.30030 0.71510 0.27762 -0.06300
C 	C 	0.71920 0.23740 0.30268 0.04000
C 	C 	0.23690 0.83590 0.20964 -0.06500
C 	C 	0.16930 0.36620 0.09127 0.33800
C 	C 	0.97280 0.32430 0.14692 -0.02500
H 	H 	0.03890 0.29730 0.16600 0.06200
C 	C 	0.79060 0.29090 0.20932 0.03100
C 	C 	0.34630 0.78380 0.20119 0.03400
C 	C 	0.34770 0.65690 0.31564 0.32400
C 	C 	0.51000 0.71220 0.08613 -0.07000
C 	C 	0.08690 0.75580 0.32519 0.01700
C 	C 	0.67090 0.43961 0.05946 0.37700
C 	C 	0.76960 0.16200 0.37761 -0.00600
H 	H 	0.86530 0.16350 0.36840 0.06300
C 	C 	0.69310 0.31930 0.28908 -0.06400
C 	C 	0.76470 0.90190 0.11010 0.32000
C 	C 	0.01650 0.36330 0.10474 -0.06300
C 	C 	0.77710 0.39940 0.08987 -0.07400
C 	C 	0.48990 0.15800 0.40495 -0.07500
C 	C 	0.18780 0.76550 0.28502 0.03400
C 	C 	0.91730 0.40180 0.07677 0.02000
H 	H 	0.94600 0.42990 0.04850 0.06200
C 	C 	0.67340 0.20260 0.35002 0.00300
C 	C 	0.87550 0.75110 0.39337 0.01800
H 	H 	0.80290 0.74970 0.41640 0.06200
C 	C 	0.42100 0.71780 0.12460 -0.01900
H 	H 	0.34830 0.67500 0.12880 0.06500
C 	C 	0.62020 0.77390 0.08004 0.01500
H 	H 	0.68160 0.76980 0.05360 0.06100
C 	C 	0.73490 0.36060 0.13267 -0.02100
H 	H 	0.63920 0.35910 0.14190 0.07000
C 	C 	0.49670 0.63530 0.05344 0.37300
C 	C 	0.99110 0.88150 0.43612 0.40600
C 	C 	0.98450 0.81360 0.39679 -0.08100
C 	C 	0.37630 0.72510 0.23553 -0.04100
H 	H 	0.45140 0.69080 0.22990 0.06600
C 	C 	0.63840 0.84160 0.11338 -0.06000
C 	C 	0.54500 0.84680 0.15170 -0.02000
H 	H 	0.55630 0.89300 0.17410 0.06700
C 	C 	0.53390 0.20300 0.36475 -0.01400
H 	H 	0.46900 0.23380 0.34750 0.05800
C 	C 	0.97920 0.69340 0.32265 -0.03400
H 	H 	0.97790 0.65160 0.29750 0.06700
C 	C 	0.74930 0.62630 0.34867 0.29500
C 	C 	0.87260 0.69050 0.35615 -0.05100
C 	C 	0.43680 0.78590 0.15751 0.01400
C 	C 	0.19160 0.89940 0.17470 0.32300
Zn	Zn	0.02839 0.98669 0.84837 1.20600
Zn	Zn	0.62107 0.53829 0.96925 1.23500
Zn	Zn	0.87475 0.95350 0.52593 1.23900
Zn	Zn	0.47277 0.46764 0.65541 1.20800
O 	O 	0.59570 0.40755 0.69941 -0.43000
O 	O 	0.69860 0.90521 0.55311 -0.41600
O 	O 	0.42420 0.36543 0.98282 -0.42600
O 	O 	0.05370 0.90687 0.79229 -0.40600
O 	O 	0.79810 0.58392 0.94241 -0.41500
O 	O 	0.45680 0.57176 0.92873 -0.43200
O 	O 	0.59010 0.42238 0.93522 -0.42900
O 	O 	0.89640 0.05197 0.80848 -0.42200
O 	O 	0.45060 0.57292 0.69314 -0.42700
O 	O 	0.30320 0.60857 0.63466 -0.29000
O 	O 	0.15780 0.85568 0.85537 -0.32400
O 	O 	0.28460 0.51966 0.97572 -0.44400
O 	O 	0.73950 0.79329 0.59597 -0.25400
O 	O 	0.09260 0.12945 0.53023 -0.43800
O 	O 	0.21623 0.97435 0.52247 -0.45900
O 	O 	0.20818 0.05121 0.85216 -0.44000
O 	O 	0.04147 0.90821 0.56011 -0.44900
O 	O 	0.33693 0.38440 0.61679 -0.40800
O 	O 	0.76196 0.09863 0.86699 -0.27500
O 	O 	0.16195 0.09627 0.92671 -0.29600
C 	C 	0.91025 0.18356 0.63788 -0.01300
H 	H 	0.83680 0.14000 0.63610 0.06600
C 	C 	0.18480 0.79020 0.77692 -0.05500
O 	O 	0.26810 0.41287 0.69045 -0.34300
C 	C 	0.12980 0.85380 0.81099 0.29900
C 	C 	0.83910 0.17510 0.74861 -0.04100
H 	H 	0.91330 0.14020 0.74270 0.07000
O 	O 	0.66930 0.32365 0.64110 -0.27900
C 	C 	0.16790 0.92480 0.55198 0.41800
C 	C 	0.26870 0.65620 0.75719 -0.03400
H 	H 	0.28370 0.60110 0.76630 0.06500
C 	C 	0.35620 0.61680 0.67624 0.32000
C 	C 	0.22060 0.81450 0.73056 -0.04400
H 	H 	0.20320 0.86920 0.72130 0.06800
C 	C 	0.16590 0.67550 0.83855 0.01600
C 	C 	0.66210 0.84650 0.58066 0.34700
C 	C 	0.27280 0.88090 0.58125 -0.09300
O 	O 	0.75010 0.67781 0.88678 -0.25600
C 	C 	0.41260 0.88460 0.56890 0.03500
H 	H 	0.44300 0.91670 0.54220 0.05700
O 	O 	0.92110 0.05970 0.56782 -0.45200
C 	C 	0.69970 0.28490 0.72238 -0.06300
C 	C 	0.28080 0.76260 0.69732 0.04000
C 	C 	0.76310 0.16410 0.79036 -0.06500
C 	C 	0.83070 0.63380 0.90873 0.33800
C 	C 	0.02720 0.67570 0.85308 -0.02500
H 	H 	0.96110 0.70270 0.83400 0.06200
C 	C 	0.20940 0.70910 0.79068 0.03100
C 	C 	0.65370 0.21620 0.79881 0.03400
C 	C 	0.65230 0.34310 0.68436 0.32400
C 	C 	0.49000 0.28780 0.91387 -0.07000
C 	C 	0.91310 0.24420 0.67481 0.01700
C 	C 	0.32910 0.56039 0.94054 0.37700
C 	C 	0.23040 0.83800 0.62239 -0.00600
H 	H 	0.13470 0.83650 0.63160 0.06300
C 	C 	0.30690 0.68070 0.71092 -0.06400
C 	C 	0.23530 0.09810 0.88990 0.32000
C 	C 	0.98350 0.63670 0.89526 -0.06300
C 	C 	0.22290 0.60060 0.91013 -0.07400
C 	C 	0.51010 0.84200 0.59505 -0.07500
C 	C 	0.81220 0.23450 0.71498 0.03400
C 	C 	0.08270 0.59820 0.92323 0.02000
H 	H 	0.05400 0.57010 0.95150 0.06200
C 	C 	0.32660 0.79740 0.64998 0.00300
C 	C 	0.12450 0.24890 0.60663 0.01800
H 	H 	0.19710 0.25030 0.58360 0.06200
C 	C 	0.57900 0.28220 0.87540 -0.01900
H 	H 	0.65170 0.32500 0.87120 0.06500
C 	C 	0.37980 0.22610 0.91996 0.01500
H 	H 	0.31840 0.23020 0.94640 0.06100
C 	C 	0.26510 0.63940 0.86733 -0.02100
H 	H 	0.36080 0.64090 0.85810 0.07000
C 	C 	0.50330 0.36470 0.94656 0.37300
C 	C 	0.00890 0.11850 0.56388 0.40600
C 	C 	0.01550 0.18640 0.60321 -0.08100
C 	C 	0.62370 0.27490 0.76447 -0.04100
H 	H 	0.54860 0.30920 0.77010 0.06600
C 	C 	0.36160 0.15840 0.88662 -0.06000
C 	C 	0.45500 0.15320 0.84830 -0.02000
H 	H 	0.44370 0.10700 0.82590 0.06700
C 	C 	0.46610 0.79700 0.63525 -0.01400
H 	H 	0.53100 0.76620 0.65250 0.05800
C 	C 	0.02080 0.30660 0.67735 -0.03400
H 	H 	0.02210 0.34840 0.70250 0.06700
C 	C 	0.25070 0.37370 0.65133 0.29500
C 	C 	0.12740 0.30950 0.64385 -0.05100
C 	C 	0.56320 0.21410 0.84249 0.01400
C 	C 	0.80840 0.10060 0.82530 0.32300
