data_crystal

_cell_length_a 12.47520
_cell_length_b 15.37630
_cell_length_c 17.95510
_cell_angle_alpha 69.51700
_cell_angle_beta  75.56500
_cell_angle_gamma 86.28400

_symmetry_space_group_name_	'P 1'
_symmetry_space_group_name_H-M	'P 1'

loop_
_symmetry_equiv_pos_as_xyz
  x,y,z

loop_
_atom_site_label
_atom_site_type_symbol
_atom_site_fract_x
_atom_site_fract_y
_atom_site_fract_z
_atom_site_charge
Zn	Zn	0.00627 0.23868 0.34808 1.23300
Zn	Zn	0.12737 0.41399 0.16799 1.23900
Zn	Zn	0.82217 0.96157 0.18856 1.20900
O 	O 	0.17010 0.24660 0.30070 -0.48400
O 	O 	0.25700 0.34010 0.17599 -0.45800
O 	O 	0.01230 0.33270 0.16830 -0.49400
O 	O 	0.86140 0.49660 0.93960 -0.42900
O 	O 	0.98130 0.84580 0.54320 -0.41200
O 	O 	0.92110 0.22000 0.27630 -0.46500
O 	O 	0.69940 0.04580 0.17050 -0.43900
O 	O 	0.15830 0.84220 0.54040 -0.29700
O 	O 	0.73050 0.43310 0.91180 -0.29000
O 	O 	0.78620 0.82780 0.22440 -0.42800
O 	O 	0.64080 0.96940 0.30340 -0.28100
O 	O 	0.89380 0.98150 0.26600 -0.43800
O 	O 	0.95250 0.36010 0.35690 -0.45200
O 	O 	0.06200 0.46900 0.25120 -0.46700
C 	C 	0.34860 0.20470 0.23970 -0.08800
C 	C 	0.20270 0.99340 0.39280 -0.03700
H 	H 	0.25480 0.98100 0.42560 0.07400
O 	O 	0.96880 0.80290 0.20880 -0.29200
C 	C 	0.84210 0.28180 0.16160 -0.09900
C 	C 	0.22830 0.05890 0.31450 0.01500
C 	C 	0.33700 0.10930 0.27970 0.04600
C 	C 	0.65910 0.24430 0.15920 0.00600
C 	C 	0.74490 0.22950 0.19870 -0.00900
H 	H 	0.73660 0.18330 0.25150 0.06000
C 	C 	0.45340 0.24680 0.20080 -0.02500
H 	H 	0.45980 0.31220 0.17360 0.06500
C 	C 	0.05360 0.01940 0.29530 -0.05900
C 	C 	0.54830 0.19440 0.20120 0.03600
C 	C 	0.93140 0.27610 0.20520 0.40800
C 	C 	0.10040 0.94500 0.42390 -0.04500
C 	C 	0.43260 0.05670 0.28110 -0.04100
H 	H 	0.42570 0.99160 0.30950 0.07200
C 	C 	0.53770 0.09700 0.24220 -0.06100
C 	C 	0.97560 0.44330 0.30840 0.37200
C 	C 	0.25010 0.26650 0.23950 0.38300
C 	C 	0.63100 0.03340 0.23950 0.31400
C 	C 	0.67430 0.30880 0.08130 -0.02000
H 	H 	0.61600 0.31770 0.05420 0.06300
C 	C 	0.85600 0.34900 0.08270 0.02600
H 	H 	0.92220 0.38590 0.05790 0.05600
C 	C 	0.02790 0.95820 0.37570 -0.00100
H 	H 	0.95880 0.92510 0.39720 0.07200
C 	C 	0.77180 0.36160 0.04080 -0.06900
C 	C 	0.07840 0.87370 0.50830 0.30400
C 	C 	0.89580 0.51730 0.32090 -0.07600
C 	C 	0.15370 0.07100 0.26440 -0.04800
H 	H 	0.17120 0.11400 0.20990 0.06500
C 	C 	0.78650 0.43420 0.95780 0.33100
C 	C 	0.50520 0.56470 0.42490 -0.03600
C 	C 	0.98240 0.02850 0.23690 0.33200
C 	C 	0.92030 0.60950 0.27330 0.01300
H 	H 	0.98980 0.62730 0.23500 0.06000
C 	C 	0.84200 0.67570 0.28230 -0.04900
C 	C 	0.60350 0.52960 0.44310 0.03300
C 	C 	0.73870 0.65020 0.33470 -0.02700
H 	H 	0.68490 0.69630 0.33750 0.07600
C 	C 	0.79140 0.49000 0.37730 -0.02300
H 	H 	0.77530 0.42670 0.41040 0.06500
C 	C 	0.71190 0.55810 0.38350 0.01600
C 	C 	0.87030 0.77690 0.23330 0.31000
C 	C 	0.40360 0.53700 0.47940 -0.05100
H 	H 	0.33800 0.56350 0.46400 0.07000
O 	O 	0.01690 0.07770 0.16380 -0.30400
O 	O 	0.52210 0.62700 0.28210 -0.19400
O 	O 	0.42920 0.71690 0.34990 -0.19200
C 	C 	0.48270 0.64190 0.34910 0.25300
Zn	Zn	0.99373 0.76132 0.65192 1.23400
Zn	Zn	0.87263 0.58601 0.83201 1.24000
Zn	Zn	0.17783 0.03843 0.81144 1.21000
O 	O 	0.82990 0.75340 0.69930 -0.48300
O 	O 	0.74300 0.65990 0.82401 -0.45700
O 	O 	0.98770 0.66730 0.83170 -0.49300
O 	O 	0.13860 0.50340 0.06040 -0.42900
O 	O 	0.01870 0.15420 0.45680 -0.41200
O 	O 	0.07890 0.78000 0.72370 -0.46500
O 	O 	0.30060 0.95420 0.82950 -0.43900
O 	O 	0.84170 0.15780 0.45960 -0.29700
O 	O 	0.26950 0.56690 0.08820 -0.29000
O 	O 	0.21380 0.17220 0.77560 -0.42800
O 	O 	0.35920 0.03060 0.69660 -0.28100
O 	O 	0.10620 0.01850 0.73400 -0.43800
O 	O 	0.04750 0.63990 0.64310 -0.45200
O 	O 	0.93800 0.53100 0.74880 -0.46700
C 	C 	0.65140 0.79530 0.76030 -0.08800
C 	C 	0.79730 0.00660 0.60720 -0.03700
H 	H 	0.74520 0.01900 0.57440 0.07400
O 	O 	0.03120 0.19710 0.79120 -0.29200
C 	C 	0.15790 0.71820 0.83840 -0.09900
C 	C 	0.77170 0.94110 0.68550 0.01500
C 	C 	0.66300 0.89070 0.72030 0.04600
C 	C 	0.34090 0.75570 0.84080 0.00600
C 	C 	0.25510 0.77050 0.80130 -0.00900
H 	H 	0.26340 0.81670 0.74850 0.06000
C 	C 	0.54660 0.75320 0.79920 -0.02500
H 	H 	0.54020 0.68780 0.82640 0.06500
C 	C 	0.94640 0.98060 0.70470 -0.05900
C 	C 	0.45170 0.80560 0.79880 0.03600
C 	C 	0.06860 0.72390 0.79480 0.40800
C 	C 	0.89960 0.05500 0.57610 -0.04500
C 	C 	0.56740 0.94330 0.71890 -0.04100
H 	H 	0.57430 0.00840 0.69050 0.07200
C 	C 	0.46230 0.90300 0.75780 -0.06100
C 	C 	0.02440 0.55670 0.69160 0.37200
C 	C 	0.74990 0.73350 0.76050 0.38300
C 	C 	0.36900 0.96660 0.76050 0.31400
C 	C 	0.32570 0.69120 0.91870 -0.02000
H 	H 	0.38400 0.68230 0.94580 0.06300
C 	C 	0.14400 0.65100 0.91730 0.02600
H 	H 	0.07780 0.61410 0.94210 0.05600
C 	C 	0.97210 0.04180 0.62430 -0.00100
H 	H 	0.04120 0.07490 0.60280 0.07200
C 	C 	0.22820 0.63840 0.95920 -0.06900
C 	C 	0.92160 0.12630 0.49170 0.30400
C 	C 	0.10420 0.48270 0.67910 -0.07600
C 	C 	0.84630 0.92900 0.73560 -0.04800
H 	H 	0.82880 0.88600 0.79010 0.06500
C 	C 	0.21350 0.56580 0.04220 0.33100
C 	C 	0.49480 0.43530 0.57510 -0.03600
C 	C 	0.01760 0.97150 0.76310 0.33200
C 	C 	0.07970 0.39050 0.72670 0.01300
H 	H 	0.01020 0.37270 0.76500 0.06000
C 	C 	0.15800 0.32430 0.71770 -0.04900
C 	C 	0.39650 0.47040 0.55690 0.03300
C 	C 	0.26130 0.34980 0.66530 -0.02700
H 	H 	0.31510 0.30370 0.66250 0.07600
C 	C 	0.20860 0.51000 0.62270 -0.02300
H 	H 	0.22470 0.57330 0.58960 0.06500
C 	C 	0.28810 0.44190 0.61650 0.01600
C 	C 	0.12970 0.22310 0.76670 0.31000
C 	C 	0.59640 0.46300 0.52060 -0.05100
H 	H 	0.66200 0.43650 0.53600 0.07000
O 	O 	0.98310 0.92230 0.83620 -0.30400
O 	O 	0.47790 0.37300 0.71790 -0.19400
O 	O 	0.57080 0.28310 0.65010 -0.19200
C 	C 	0.51730 0.35810 0.65090 0.25300
