data_crystal

_cell_length_a 10.21870
_cell_length_b 11.51760
_cell_length_c 16.31270
_cell_angle_alpha 82.71000
_cell_angle_beta  75.91100
_cell_angle_gamma 77.54200

_symmetry_space_group_name_	'P 1'
_symmetry_space_group_name_H-M	'P 1'

loop_
_symmetry_equiv_pos_as_xyz
  x,y,z

loop_
_atom_site_label
_atom_site_type_symbol
_atom_site_fract_x
_atom_site_fract_y
_atom_site_fract_z
_atom_site_charge
C 	C 	0.51430 0.91010 0.35030 0.48700
C 	C 	0.53130 0.86720 0.26600 -0.15600
C 	C 	0.44370 0.91970 0.21180 0.05700
H 	H 	0.37660 0.98640 0.22760 0.04000
C 	C 	0.45520 0.87460 0.13580 -0.08200
C 	C 	0.55760 0.77510 0.11230 -0.01200
H 	H 	0.56380 0.74270 0.06180 0.05700
C 	C 	0.64800 0.72480 0.16090 -0.01900
C 	C 	0.63360 0.77050 0.23900 0.02300
H 	H 	0.69400 0.73530 0.27340 0.02200
C 	C 	0.75990 0.61770 0.13700 0.02100
C 	C 	0.84900 0.60960 0.05730 0.00300
C 	C 	0.95320 0.50590 0.04090 0.00200
C 	C 	0.96530 0.40910 0.10480 0.00700
C 	C 	0.87610 0.42210 0.18500 0.01900
C 	C 	0.77590 0.52350 0.19790 -0.09100
H 	H 	0.71530 0.52900 0.25060 0.06300
C 	C 	0.88060 0.32630 0.25660 -0.01900
C 	C 	0.76400 0.28290 0.29600 0.01500
H 	H 	0.68340 0.31250 0.27720 0.04400
C 	C 	0.76330 0.19440 0.36450 -0.16800
C 	C 	0.88420 0.15270 0.39150 0.06300
H 	H 	0.88710 0.09250 0.43520 0.01800
C 	C 	0.00030 0.19870 0.35520 -0.09900
C 	C 	0.99690 0.28530 0.28740 -0.01500
H 	H 	0.07560 0.31610 0.26250 0.05500
C 	C 	0.63320 0.15580 0.40510 0.48200
C 	C 	0.12470 0.16440 0.39190 0.32400
C 	C 	0.06530 0.30430 0.08480 -0.04700
H 	H 	0.07050 0.23980 0.12520 0.07100
C 	C 	0.84720 0.70360 0.99170 -0.03900
H 	H 	0.78280 0.77370 0.00210 0.06800
C 	C 	0.35760 0.92960 0.08290 0.29700
Eu	Eu	0.33850 0.12977 0.47841 1.86500
O 	O 	0.43050 0.00480 0.36690 -0.48600
O 	O 	0.58680 0.84960 0.39840 -0.53300
O 	O 	0.26830 0.01740 0.10020 -0.23200
O 	O 	0.37210 0.87860 0.01340 -0.21100
O 	O 	0.52400 0.21680 0.39300 -0.49300
O 	O 	0.63600 0.06210 0.45320 -0.56800
O 	O 	0.13730 0.07480 0.44220 -0.41100
O 	O 	0.21350 0.23050 0.37220 -0.42600
C 	C 	0.48570 0.08990 0.64970 0.48800
C 	C 	0.46870 0.13280 0.73400 -0.15500
C 	C 	0.55630 0.08030 0.78820 0.05800
H 	H 	0.62340 0.01360 0.77240 0.04100
C 	C 	0.54480 0.12540 0.86420 -0.08100
C 	C 	0.44240 0.22490 0.88770 -0.01100
H 	H 	0.43620 0.25730 0.93820 0.05800
C 	C 	0.35200 0.27520 0.83910 -0.01800
C 	C 	0.36640 0.22950 0.76100 0.02300
H 	H 	0.30600 0.26470 0.72660 0.02200
C 	C 	0.24010 0.38230 0.86300 0.02100
C 	C 	0.15100 0.39040 0.94270 0.00300
C 	C 	0.04680 0.49410 0.95910 0.00200
C 	C 	0.03470 0.59090 0.89520 0.00700
C 	C 	0.12390 0.57790 0.81500 0.01900
C 	C 	0.22410 0.47650 0.80210 -0.09100
H 	H 	0.28470 0.47100 0.74940 0.06300
C 	C 	0.11940 0.67370 0.74340 -0.01900
C 	C 	0.23600 0.71710 0.70400 0.01500
H 	H 	0.31660 0.68750 0.72280 0.04400
C 	C 	0.23670 0.80560 0.63550 -0.16800
C 	C 	0.11580 0.84730 0.60850 0.06300
H 	H 	0.11290 0.90750 0.56480 0.01800
C 	C 	0.99970 0.80130 0.64480 -0.09900
C 	C 	0.00310 0.71470 0.71260 -0.01500
H 	H 	0.92440 0.68390 0.73750 0.05500
C 	C 	0.36680 0.84420 0.59490 0.48200
C 	C 	0.87530 0.83560 0.60810 0.32400
C 	C 	0.93470 0.69570 0.91520 -0.04700
H 	H 	0.92950 0.76020 0.87480 0.07100
C 	C 	0.15280 0.29640 0.00830 -0.03900
H 	H 	0.21720 0.22630 0.99790 0.06800
C 	C 	0.64240 0.07040 0.91710 0.29700
Eu	Eu	0.66150 0.87023 0.52159 1.86500
O 	O 	0.56950 0.99520 0.63310 -0.48600
O 	O 	0.41320 0.15040 0.60160 -0.53300
O 	O 	0.73170 0.98260 0.89980 -0.23200
O 	O 	0.62790 0.12140 0.98660 -0.21100
O 	O 	0.47600 0.78320 0.60700 -0.49300
O 	O 	0.36400 0.93790 0.54680 -0.56800
O 	O 	0.86270 0.92520 0.55780 -0.41100
O 	O 	0.78650 0.76950 0.62780 -0.42600
