data_crystal

_cell_length_a 8.51460
_cell_length_b 16.20490
_cell_length_c 28.54700
_cell_angle_alpha 90.00000
_cell_angle_beta  96.21200
_cell_angle_gamma 90.00000

_symmetry_space_group_name_	'P 1'
_symmetry_space_group_name_H-M	'P 1'

loop_
_symmetry_equiv_pos_as_xyz
  x,y,z

loop_
_atom_site_label
_atom_site_type_symbol
_atom_site_fract_x
_atom_site_fract_y
_atom_site_fract_z
_atom_site_charge
Er	Er	0.82105 0.28764 0.33210 1.90500
Er	Er	0.19001 0.17334 0.17127 1.90000
Er	Er	0.45121 0.19153 0.49608 1.91300
P 	P 	0.08046 0.26870 0.43704 0.63500
P 	P 	0.56657 0.25143 0.22542 0.61900
O 	O 	0.93190 0.26130 0.46420 -0.36400
H 	H 	0.93380 0.27350 0.49790 0.24000
O 	O 	0.13790 0.36170 0.44180 -0.35200
H 	H 	0.10430 0.40080 0.41830 0.23500
O 	O 	0.21170 0.21470 0.45876 -0.44000
O 	O 	0.02640 0.25020 0.38637 -0.43200
O 	O 	0.11910 0.28660 0.21684 -0.36800
O 	O 	0.05960 0.12860 0.23651 -0.35500
O 	O 	0.97300 0.32800 0.27293 -0.37900
O 	O 	0.92640 0.17000 0.29583 -0.34100
O 	O 	0.57830 0.13830 0.43204 -0.35500
O 	O 	0.52020 0.29840 0.44675 -0.36800
O 	O 	0.70590 0.17380 0.37027 -0.34000
O 	O 	0.66830 0.33250 0.39001 -0.39100
O 	O 	0.95390 0.41410 0.36399 -0.35800
O 	O 	0.69630 0.41150 0.30136 -0.33900
O 	O 	0.95390 0.55300 0.36119 -0.34100
O 	O 	0.68420 0.54830 0.30417 -0.34800
O 	O 	0.42530 0.19790 0.21318 -0.44300
O 	O 	0.62050 0.25470 0.27651 -0.42500
O 	O 	0.71170 0.22480 0.19963 -0.36700
H 	H 	0.67040 0.23320 0.16840 0.23500
O 	O 	0.52230 0.34210 0.20731 -0.31500
H 	H 	0.41330 0.33820 0.19250 0.19500
O 	O 	0.37570 0.19050 0.03549 -0.35900
O 	O 	0.34150 0.34520 0.06522 -0.36500
O 	O 	0.30730 0.14230 0.10391 -0.38200
O 	O 	0.27760 0.29660 0.13407 -0.35900
O 	O 	0.64940 0.24910 0.10901 -0.25900
O 	O 	0.95890 0.21710 0.13072 -0.40000
O 	O 	0.68680 0.25990 0.03360 -0.39500
O 	O 	0.99390 0.22120 0.05475 -0.26100
O 	O 	0.61440 0.07740 0.52869 -0.34200
O 	O 	0.66320 0.94310 0.52280 -0.33500
C 	C 	0.03420 0.27360 0.24899 0.27900
C 	C 	0.00270 0.18310 0.26160 0.25600
C 	C 	0.63320 0.19070 0.40430 0.24500
C 	C 	0.60460 0.28200 0.41467 0.29000
C 	C 	0.74810 0.48030 0.31610 0.27300
C 	C 	0.89710 0.48280 0.34990 0.25800
C 	C 	0.33260 0.19940 0.07550 0.27900
C 	C 	0.31570 0.28800 0.09308 0.26200
C 	C 	0.91190 0.22540 0.08770 0.30000
C 	C 	0.73320 0.24620 0.07630 0.29600
C 	C 	0.57920 0.00730 0.51475 0.27300
Er	Er	0.17895 0.78764 0.16790 1.90400
Er	Er	0.80999 0.67334 0.32873 1.89900
Er	Er	0.54879 0.69153 0.00392 1.91100
P 	P 	0.91954 0.76870 0.06296 0.63500
P 	P 	0.43343 0.75143 0.27458 0.61800
O 	O 	0.06810 0.76130 0.03580 -0.36500
H 	H 	0.06620 0.77350 0.00210 0.23800
O 	O 	0.86210 0.86170 0.05820 -0.35300
H 	H 	0.89570 0.90080 0.08170 0.23400
O 	O 	0.78830 0.71470 0.04124 -0.44000
O 	O 	0.97360 0.75020 0.11363 -0.43200
O 	O 	0.88090 0.78660 0.28316 -0.36800
O 	O 	0.94040 0.62860 0.26349 -0.35500
O 	O 	0.02700 0.82800 0.22707 -0.37900
O 	O 	0.07360 0.67000 0.20417 -0.34200
O 	O 	0.42170 0.63830 0.06796 -0.35500
O 	O 	0.47980 0.79840 0.05325 -0.36900
O 	O 	0.29410 0.67380 0.12973 -0.34000
O 	O 	0.33170 0.83250 0.10999 -0.39100
O 	O 	0.04610 0.91410 0.13601 -0.35800
O 	O 	0.30370 0.91150 0.19864 -0.33900
O 	O 	0.04610 0.05300 0.13881 -0.34100
O 	O 	0.31580 0.04830 0.19583 -0.34700
O 	O 	0.57470 0.69790 0.28682 -0.44400
O 	O 	0.37950 0.75470 0.22349 -0.42500
O 	O 	0.28830 0.72480 0.30037 -0.36700
H 	H 	0.32960 0.73320 0.33160 0.23500
O 	O 	0.47770 0.84210 0.29269 -0.31500
H 	H 	0.58670 0.83820 0.30750 0.19500
O 	O 	0.62430 0.69050 0.46451 -0.36000
O 	O 	0.65850 0.84520 0.43478 -0.36500
O 	O 	0.69270 0.64230 0.39609 -0.38200
O 	O 	0.72240 0.79660 0.36593 -0.35900
O 	O 	0.35060 0.74910 0.39099 -0.25900
O 	O 	0.04110 0.71710 0.36928 -0.40100
O 	O 	0.31320 0.75990 0.46640 -0.39500
O 	O 	0.00610 0.72120 0.44525 -0.26200
O 	O 	0.38560 0.57740 0.97131 -0.34200
O 	O 	0.33680 0.44310 0.97720 -0.33500
C 	C 	0.96580 0.77360 0.25101 0.27900
C 	C 	0.99730 0.68310 0.23840 0.25700
C 	C 	0.36680 0.69070 0.09570 0.24500
C 	C 	0.39540 0.78200 0.08533 0.29000
C 	C 	0.25190 0.98030 0.18390 0.27200
C 	C 	0.10290 0.98280 0.15010 0.25800
C 	C 	0.66740 0.69940 0.42450 0.27900
C 	C 	0.68430 0.78800 0.40692 0.26200
C 	C 	0.08810 0.72540 0.41230 0.30000
C 	C 	0.26680 0.74620 0.42370 0.29600
C 	C 	0.42080 0.50730 0.98525 0.27300
Er	Er	0.17895 0.71236 0.66790 1.90400
Er	Er	0.80999 0.82666 0.82873 1.89900
Er	Er	0.54879 0.80847 0.50392 1.91200
P 	P 	0.91954 0.73130 0.56296 0.63400
P 	P 	0.43343 0.74857 0.77458 0.61800
O 	O 	0.06810 0.73870 0.53580 -0.36500
H 	H 	0.06620 0.72650 0.50210 0.23900
O 	O 	0.86210 0.63830 0.55820 -0.35300
H 	H 	0.89570 0.59920 0.58170 0.23400
O 	O 	0.78830 0.78530 0.54124 -0.44100
O 	O 	0.97360 0.74980 0.61363 -0.43200
O 	O 	0.88090 0.71340 0.78316 -0.36800
O 	O 	0.94040 0.87140 0.76349 -0.35500
O 	O 	0.02700 0.67200 0.72707 -0.37900
O 	O 	0.07360 0.83000 0.70417 -0.34100
O 	O 	0.42170 0.86170 0.56796 -0.35500
O 	O 	0.47980 0.70160 0.55325 -0.36800
O 	O 	0.29410 0.82620 0.62973 -0.34000
O 	O 	0.33170 0.66750 0.60999 -0.39100
O 	O 	0.04610 0.58590 0.63601 -0.35800
O 	O 	0.30370 0.58850 0.69864 -0.33900
O 	O 	0.04610 0.44700 0.63881 -0.34100
O 	O 	0.31580 0.45170 0.69583 -0.34800
O 	O 	0.57470 0.80210 0.78682 -0.44300
O 	O 	0.37950 0.74530 0.72349 -0.42500
O 	O 	0.28830 0.77520 0.80037 -0.36700
H 	H 	0.32960 0.76680 0.83160 0.23500
O 	O 	0.47770 0.65790 0.79269 -0.31500
H 	H 	0.58670 0.66180 0.80750 0.19500
O 	O 	0.62430 0.80950 0.96451 -0.35900
O 	O 	0.65850 0.65480 0.93478 -0.36500
O 	O 	0.69270 0.85770 0.89609 -0.38200
O 	O 	0.72240 0.70340 0.86593 -0.35900
O 	O 	0.35060 0.75090 0.89099 -0.25900
O 	O 	0.04110 0.78290 0.86928 -0.40000
O 	O 	0.31320 0.74010 0.96640 -0.39500
O 	O 	0.00610 0.77880 0.94525 -0.26100
O 	O 	0.38560 0.92260 0.47131 -0.34200
O 	O 	0.33680 0.05690 0.47720 -0.33500
C 	C 	0.96580 0.72640 0.75101 0.27900
C 	C 	0.99730 0.81690 0.73840 0.25600
C 	C 	0.36680 0.80930 0.59570 0.24500
C 	C 	0.39540 0.71800 0.58533 0.29000
C 	C 	0.25190 0.51970 0.68390 0.27300
C 	C 	0.10290 0.51720 0.65010 0.25800
C 	C 	0.66740 0.80060 0.92450 0.27900
C 	C 	0.68430 0.71200 0.90692 0.26200
C 	C 	0.08810 0.77460 0.91230 0.30000
C 	C 	0.26680 0.75380 0.92370 0.29600
C 	C 	0.42080 0.99270 0.48525 0.27300
Er	Er	0.82105 0.21236 0.83210 1.90400
Er	Er	0.19001 0.32666 0.67127 1.89900
Er	Er	0.45121 0.30847 0.99608 1.91100
P 	P 	0.08046 0.23130 0.93704 0.63500
P 	P 	0.56657 0.24857 0.72542 0.61800
O 	O 	0.93190 0.23870 0.96420 -0.36500
H 	H 	0.93380 0.22650 0.99790 0.23800
O 	O 	0.13790 0.13830 0.94180 -0.35300
H 	H 	0.10430 0.09920 0.91830 0.23400
O 	O 	0.21170 0.28530 0.95876 -0.44000
O 	O 	0.02640 0.24980 0.88637 -0.43200
O 	O 	0.11910 0.21340 0.71684 -0.36800
O 	O 	0.05960 0.37140 0.73651 -0.35500
O 	O 	0.97300 0.17200 0.77293 -0.37900
O 	O 	0.92640 0.33000 0.79583 -0.34200
O 	O 	0.57830 0.36170 0.93204 -0.35500
O 	O 	0.52020 0.20160 0.94675 -0.36900
O 	O 	0.70590 0.32620 0.87027 -0.34000
O 	O 	0.66830 0.16750 0.89001 -0.39100
O 	O 	0.95390 0.08590 0.86399 -0.35800
O 	O 	0.69630 0.08850 0.80136 -0.33900
O 	O 	0.95390 0.94700 0.86119 -0.34100
O 	O 	0.68420 0.95170 0.80417 -0.34700
O 	O 	0.42530 0.30210 0.71318 -0.44400
O 	O 	0.62050 0.24530 0.77651 -0.42500
O 	O 	0.71170 0.27520 0.69963 -0.36700
H 	H 	0.67040 0.26680 0.66840 0.23500
O 	O 	0.52230 0.15790 0.70731 -0.31500
H 	H 	0.41330 0.16180 0.69250 0.19500
O 	O 	0.37570 0.30950 0.53549 -0.36000
O 	O 	0.34150 0.15480 0.56522 -0.36500
O 	O 	0.30730 0.35770 0.60391 -0.38200
O 	O 	0.27760 0.20340 0.63407 -0.35900
O 	O 	0.64940 0.25090 0.60901 -0.25900
O 	O 	0.95890 0.28290 0.63072 -0.40100
O 	O 	0.68680 0.24010 0.53360 -0.39500
O 	O 	0.99390 0.27880 0.55475 -0.26200
O 	O 	0.61440 0.42260 0.02869 -0.34200
O 	O 	0.66320 0.55690 0.02280 -0.33500
C 	C 	0.03420 0.22640 0.74899 0.27900
C 	C 	0.00270 0.31690 0.76160 0.25700
C 	C 	0.63320 0.30930 0.90430 0.24500
C 	C 	0.60460 0.21800 0.91467 0.29000
C 	C 	0.74810 0.01970 0.81610 0.27200
C 	C 	0.89710 0.01720 0.84990 0.25800
C 	C 	0.33260 0.30060 0.57550 0.27900
C 	C 	0.31570 0.21200 0.59308 0.26200
C 	C 	0.91190 0.27460 0.58770 0.30000
C 	C 	0.73320 0.25380 0.57630 0.29600
C 	C 	0.57920 0.49270 0.01475 0.27300
