data_crystal

_cell_length_a 21.76720
_cell_length_b 19.63300
_cell_length_c 29.40280
_cell_angle_alpha 90.00000
_cell_angle_beta  99.47800
_cell_angle_gamma 90.00000

_symmetry_space_group_name_	'P 1'
_symmetry_space_group_name_H-M	'P 1'

loop_
_symmetry_equiv_pos_as_xyz
  x,y,z

loop_
_atom_site_label
_atom_site_type_symbol
_atom_site_fract_x
_atom_site_fract_y
_atom_site_fract_z
_atom_site_charge
Zn	Zn	0.69148 0.25752 0.51808 1.19500
Zn	Zn	0.80750 0.19318 0.49533 1.19600
Zn	Zn	0.52373 0.47481 0.20486 1.19600
O 	O 	0.68018 0.15426 0.50813 -0.48800
O 	O 	0.76353 0.10140 0.48887 -0.46200
O 	O 	0.66160 0.27171 0.44921 -0.46300
O 	O 	0.75053 0.22377 0.43609 -0.48400
O 	O 	0.74399 0.23650 0.58012 -0.48300
O 	O 	0.82589 0.17717 0.56378 -0.47300
O 	O 	0.75934 0.84609 0.48393 -0.46600
O 	O 	0.67095 0.79382 0.49316 -0.48200
O 	O 	0.53516 0.39852 0.31810 -0.46800
O 	O 	0.57329 0.40721 0.25203 -0.48100
O 	O 	0.92975 0.05109 0.75903 -0.48700
O 	O 	0.95057 0.04069 0.68712 -0.46400
N 	N 	0.51286 0.97184 0.49974 -0.08800
N 	N 	0.75440 0.23989 0.27015 -0.08900
N 	N 	0.77134 0.23037 0.75644 -0.08700
C 	C 	0.70864 0.10266 0.49756 0.38500
C 	C 	0.67395 0.03624 0.49565 -0.07900
C 	C 	0.70371 0.97420 0.49100 0.02200
H 	H 	0.74550 0.97360 0.48780 0.04600
C 	C 	0.67124 0.91342 0.49115 -0.08100
C 	C 	0.60821 0.91460 0.49467 -0.05300
H 	H 	0.58630 0.87400 0.49500 0.06400
C 	C 	0.57807 0.97656 0.49765 0.08100
C 	C 	0.61104 0.03679 0.49888 -0.05300
H 	H 	0.59100 0.07800 0.50190 0.07000
C 	C 	0.69953 0.25445 0.42357 0.38400
C 	C 	0.68453 0.27262 0.37339 -0.07800
C 	C 	0.72310 0.24890 0.34334 -0.05600
H 	H 	0.75640 0.22040 0.35430 0.06500
C 	C 	0.71221 0.26740 0.29740 0.08400
C 	C 	0.66301 0.31070 0.28070 -0.05600
H 	H 	0.65620 0.32360 0.24990 0.07100
C 	C 	0.62443 0.33436 0.31005 -0.07500
C 	C 	0.63481 0.31455 0.35623 0.01900
H 	H 	0.60810 0.32960 0.37570 0.04700
C 	C 	0.57311 0.38404 0.29166 0.38500
C 	C 	0.79239 0.20134 0.59108 0.38700
C 	C 	0.81168 0.18525 0.64145 -0.08000
C 	C 	0.78142 0.21660 0.67370 -0.05200
H 	H 	0.75000 0.24820 0.66440 0.07000
C 	C 	0.79853 0.20030 0.72023 0.08100
C 	C 	0.84391 0.15190 0.73400 -0.05400
H 	H 	0.85410 0.14030 0.76500 0.06500
C 	C 	0.87440 0.12024 0.70161 -0.08200
C 	C 	0.85872 0.13812 0.65553 0.02200
H 	H 	0.87990 0.11840 0.63380 0.04600
C 	C 	0.92229 0.06649 0.71689 0.38800
C 	C 	0.70326 0.84581 0.48899 0.39000
Zn	Zn	0.19148 0.75752 0.01808 1.19600
Zn	Zn	0.30750 0.69318 0.99533 1.19700
Zn	Zn	0.02373 0.97481 0.70486 1.19700
O 	O 	0.18018 0.65426 0.00813 -0.48700
O 	O 	0.26353 0.60140 0.98887 -0.46100
O 	O 	0.16160 0.77171 0.94921 -0.46200
O 	O 	0.25053 0.72377 0.93609 -0.48400
O 	O 	0.24399 0.73650 0.08012 -0.48300
O 	O 	0.32589 0.67717 0.06378 -0.47300
O 	O 	0.25934 0.34609 0.98393 -0.46500
O 	O 	0.17095 0.29382 0.99316 -0.48100
O 	O 	0.03516 0.89852 0.81810 -0.46800
O 	O 	0.07329 0.90721 0.75203 -0.48100
O 	O 	0.42975 0.55109 0.25903 -0.48800
O 	O 	0.45057 0.54069 0.18712 -0.46400
N 	N 	0.01286 0.47184 0.99974 -0.08800
N 	N 	0.25440 0.73989 0.77015 -0.08900
N 	N 	0.27134 0.73037 0.25644 -0.08700
C 	C 	0.20864 0.60266 0.99756 0.38500
C 	C 	0.17395 0.53624 0.99565 -0.07900
C 	C 	0.20371 0.47420 0.99100 0.02200
H 	H 	0.24550 0.47360 0.98780 0.04600
C 	C 	0.17124 0.41342 0.99115 -0.08100
C 	C 	0.10821 0.41460 0.99467 -0.05300
H 	H 	0.08630 0.37400 0.99500 0.06500
C 	C 	0.07807 0.47656 0.99765 0.08100
C 	C 	0.11104 0.53679 0.99888 -0.05200
H 	H 	0.09100 0.57800 0.00190 0.06900
C 	C 	0.19953 0.75445 0.92357 0.38400
C 	C 	0.18453 0.77262 0.87339 -0.07800
C 	C 	0.22310 0.74890 0.84334 -0.05600
H 	H 	0.25640 0.72040 0.85430 0.06500
C 	C 	0.21221 0.76740 0.79740 0.08400
C 	C 	0.16301 0.81070 0.78070 -0.05600
H 	H 	0.15620 0.82360 0.74990 0.07100
C 	C 	0.12443 0.83436 0.81005 -0.07500
C 	C 	0.13481 0.81455 0.85623 0.01900
H 	H 	0.10810 0.82960 0.87570 0.04700
C 	C 	0.07311 0.88404 0.79166 0.38500
C 	C 	0.29239 0.70134 0.09108 0.38700
C 	C 	0.31168 0.68525 0.14145 -0.08000
C 	C 	0.28142 0.71660 0.17370 -0.05200
H 	H 	0.25000 0.74820 0.16440 0.07000
C 	C 	0.29853 0.70030 0.22023 0.08100
C 	C 	0.34391 0.65190 0.23400 -0.05400
H 	H 	0.35410 0.64030 0.26500 0.06500
C 	C 	0.37440 0.62024 0.20161 -0.08200
C 	C 	0.35872 0.63812 0.15553 0.02200
H 	H 	0.37990 0.61840 0.13380 0.04600
C 	C 	0.42229 0.56649 0.21689 0.38800
C 	C 	0.20326 0.34581 0.98899 0.39000
Zn	Zn	0.30852 0.25752 0.98192 1.19600
Zn	Zn	0.19250 0.19318 0.00467 1.19600
Zn	Zn	0.47627 0.47481 0.29514 1.19700
O 	O 	0.31982 0.15426 0.99187 -0.48500
O 	O 	0.23647 0.10140 0.01113 -0.46100
O 	O 	0.33840 0.27171 0.05079 -0.46300
O 	O 	0.24947 0.22377 0.06391 -0.48500
O 	O 	0.25601 0.23650 0.91988 -0.48300
O 	O 	0.17411 0.17717 0.93622 -0.47200
O 	O 	0.24066 0.84609 0.01607 -0.46500
O 	O 	0.32905 0.79382 0.00684 -0.48200
O 	O 	0.46484 0.39852 0.18190 -0.46800
O 	O 	0.42671 0.40721 0.24797 -0.48100
O 	O 	0.07025 0.05109 0.74097 -0.48700
O 	O 	0.04943 0.04069 0.81288 -0.46400
N 	N 	0.48714 0.97184 0.00026 -0.08800
N 	N 	0.24560 0.23989 0.22985 -0.08900
N 	N 	0.22866 0.23037 0.74356 -0.08700
C 	C 	0.29136 0.10266 0.00244 0.38200
C 	C 	0.32605 0.03624 0.00435 -0.07800
C 	C 	0.29629 0.97420 0.00900 0.02200
H 	H 	0.25450 0.97360 0.01220 0.04600
C 	C 	0.32876 0.91342 0.00885 -0.08000
C 	C 	0.39179 0.91460 0.00533 -0.05500
H 	H 	0.41370 0.87400 0.00500 0.06500
C 	C 	0.42193 0.97656 0.00235 0.08500
C 	C 	0.38896 0.03679 0.00112 -0.06000
H 	H 	0.40900 0.07800 0.99810 0.07300
C 	C 	0.30047 0.25445 0.07643 0.38400
C 	C 	0.31547 0.27262 0.12661 -0.07800
C 	C 	0.27690 0.24890 0.15666 -0.05600
H 	H 	0.24360 0.22040 0.14570 0.06500
C 	C 	0.28779 0.26740 0.20260 0.08400
C 	C 	0.33699 0.31070 0.21930 -0.05600
H 	H 	0.34380 0.32360 0.25010 0.07100
C 	C 	0.37557 0.33436 0.18995 -0.07500
C 	C 	0.36519 0.31455 0.14377 0.01900
H 	H 	0.39190 0.32960 0.12430 0.04700
C 	C 	0.42689 0.38404 0.20834 0.38500
C 	C 	0.20761 0.20134 0.90892 0.38700
C 	C 	0.18832 0.18525 0.85855 -0.08000
C 	C 	0.21858 0.21660 0.82630 -0.05200
H 	H 	0.25000 0.24820 0.83560 0.07000
C 	C 	0.20147 0.20030 0.77977 0.08100
C 	C 	0.15609 0.15190 0.76600 -0.05400
H 	H 	0.14590 0.14030 0.73500 0.06600
C 	C 	0.12560 0.12024 0.79839 -0.08100
C 	C 	0.14128 0.13812 0.84447 0.02200
H 	H 	0.12010 0.11840 0.86620 0.04600
C 	C 	0.07771 0.06649 0.78311 0.38800
C 	C 	0.29674 0.84581 0.01101 0.38900
Zn	Zn	0.80852 0.75752 0.48192 1.19600
Zn	Zn	0.69250 0.69318 0.50467 1.19700
Zn	Zn	0.97627 0.97481 0.79514 1.19600
O 	O 	0.81982 0.65426 0.49187 -0.48700
O 	O 	0.73647 0.60140 0.51113 -0.46100
O 	O 	0.83840 0.77171 0.55079 -0.46200
O 	O 	0.74947 0.72377 0.56391 -0.48400
O 	O 	0.75601 0.73650 0.41988 -0.48300
O 	O 	0.67411 0.67717 0.43622 -0.47300
O 	O 	0.74066 0.34609 0.51607 -0.46600
O 	O 	0.82905 0.29382 0.50684 -0.48200
O 	O 	0.96484 0.89852 0.68190 -0.46800
O 	O 	0.92671 0.90721 0.74797 -0.48200
O 	O 	0.57025 0.55109 0.24097 -0.48800
O 	O 	0.54943 0.54069 0.31288 -0.46400
N 	N 	0.98714 0.47184 0.50026 -0.08800
N 	N 	0.74560 0.73989 0.72985 -0.08900
N 	N 	0.72866 0.73037 0.24356 -0.08700
C 	C 	0.79136 0.60266 0.50244 0.38500
C 	C 	0.82605 0.53624 0.50435 -0.07900
C 	C 	0.79629 0.47420 0.50900 0.02200
H 	H 	0.75450 0.47360 0.51220 0.04600
C 	C 	0.82876 0.41342 0.50885 -0.08100
C 	C 	0.89179 0.41460 0.50533 -0.05300
H 	H 	0.91370 0.37400 0.50500 0.06400
C 	C 	0.92193 0.47656 0.50235 0.08100
C 	C 	0.88896 0.53679 0.50112 -0.05300
H 	H 	0.90900 0.57800 0.49810 0.07000
C 	C 	0.80047 0.75445 0.57643 0.38400
C 	C 	0.81547 0.77262 0.62661 -0.07800
C 	C 	0.77690 0.74890 0.65666 -0.05600
H 	H 	0.74360 0.72040 0.64570 0.06500
C 	C 	0.78779 0.76740 0.70260 0.08400
C 	C 	0.83699 0.81070 0.71930 -0.05600
H 	H 	0.84380 0.82360 0.75010 0.07100
C 	C 	0.87557 0.83436 0.68995 -0.07500
C 	C 	0.86519 0.81455 0.64377 0.01900
H 	H 	0.89190 0.82960 0.62430 0.04700
C 	C 	0.92689 0.88404 0.70834 0.38500
C 	C 	0.70761 0.70134 0.40892 0.38700
C 	C 	0.68832 0.68525 0.35855 -0.08000
C 	C 	0.71858 0.71660 0.32630 -0.05200
H 	H 	0.75000 0.74820 0.33560 0.07000
C 	C 	0.70147 0.70030 0.27977 0.08100
C 	C 	0.65609 0.65190 0.26600 -0.05400
H 	H 	0.64590 0.64030 0.23500 0.06500
C 	C 	0.62560 0.62024 0.29839 -0.08200
C 	C 	0.64128 0.63812 0.34447 0.02200
H 	H 	0.62010 0.61840 0.36620 0.04600
C 	C 	0.57771 0.56649 0.28311 0.38800
C 	C 	0.79674 0.34581 0.51101 0.39000
Zn	Zn	0.30852 0.74248 0.48192 1.19600
Zn	Zn	0.19250 0.80682 0.50467 1.19700
Zn	Zn	0.47627 0.52519 0.79514 1.19700
O 	O 	0.31982 0.84574 0.49187 -0.48700
O 	O 	0.23647 0.89860 0.51113 -0.46100
O 	O 	0.33840 0.72829 0.55079 -0.46200
O 	O 	0.24947 0.77623 0.56391 -0.48400
O 	O 	0.25601 0.76350 0.41988 -0.48300
O 	O 	0.17411 0.82283 0.43622 -0.47300
O 	O 	0.24066 0.15391 0.51607 -0.46600
O 	O 	0.32905 0.20618 0.50684 -0.48200
O 	O 	0.46484 0.60148 0.68190 -0.46800
O 	O 	0.42671 0.59279 0.74797 -0.48100
O 	O 	0.07025 0.94891 0.24097 -0.48700
O 	O 	0.04943 0.95931 0.31288 -0.46400
N 	N 	0.48714 0.02816 0.50026 -0.08800
N 	N 	0.24560 0.76011 0.72985 -0.08900
N 	N 	0.22866 0.76963 0.24356 -0.08700
C 	C 	0.29136 0.89734 0.50244 0.38500
C 	C 	0.32605 0.96376 0.50435 -0.07900
C 	C 	0.29629 0.02580 0.50900 0.02200
H 	H 	0.25450 0.02640 0.51220 0.04600
C 	C 	0.32876 0.08658 0.50885 -0.08100
C 	C 	0.39179 0.08540 0.50533 -0.05300
H 	H 	0.41370 0.12600 0.50500 0.06400
C 	C 	0.42193 0.02344 0.50235 0.08100
C 	C 	0.38896 0.96321 0.50112 -0.05300
H 	H 	0.40900 0.92200 0.49810 0.07000
C 	C 	0.30047 0.74555 0.57643 0.38400
C 	C 	0.31547 0.72738 0.62661 -0.07800
C 	C 	0.27690 0.75110 0.65666 -0.05600
H 	H 	0.24360 0.77960 0.64570 0.06500
C 	C 	0.28779 0.73260 0.70260 0.08400
C 	C 	0.33699 0.68930 0.71930 -0.05600
H 	H 	0.34380 0.67640 0.75010 0.07100
C 	C 	0.37557 0.66564 0.68995 -0.07500
C 	C 	0.36519 0.68545 0.64377 0.01900
H 	H 	0.39190 0.67040 0.62430 0.04700
C 	C 	0.42689 0.61596 0.70834 0.38500
C 	C 	0.20761 0.79866 0.40892 0.38700
C 	C 	0.18832 0.81475 0.35855 -0.08000
C 	C 	0.21858 0.78340 0.32630 -0.05200
H 	H 	0.25000 0.75180 0.33560 0.07000
C 	C 	0.20147 0.79970 0.27977 0.08100
C 	C 	0.15609 0.84810 0.26600 -0.05400
H 	H 	0.14590 0.85970 0.23500 0.06500
C 	C 	0.12560 0.87976 0.29839 -0.08200
C 	C 	0.14128 0.86188 0.34447 0.02200
H 	H 	0.12010 0.88160 0.36620 0.04600
C 	C 	0.07771 0.93351 0.28311 0.38800
C 	C 	0.29674 0.15419 0.51101 0.39000
Zn	Zn	0.80852 0.24248 0.98192 1.19600
Zn	Zn	0.69250 0.30682 0.00467 1.19700
Zn	Zn	0.97627 0.02519 0.29514 1.19700
O 	O 	0.81982 0.34574 0.99187 -0.48700
O 	O 	0.73647 0.39860 0.01113 -0.46100
O 	O 	0.83840 0.22829 0.05079 -0.46200
O 	O 	0.74947 0.27623 0.06391 -0.48400
O 	O 	0.75601 0.26350 0.91988 -0.48300
O 	O 	0.67411 0.32283 0.93622 -0.47300
O 	O 	0.74066 0.65391 0.01607 -0.46500
O 	O 	0.82905 0.70618 0.00684 -0.48100
O 	O 	0.96484 0.10148 0.18190 -0.46800
O 	O 	0.92671 0.09279 0.24797 -0.48100
O 	O 	0.57025 0.44891 0.74097 -0.48800
O 	O 	0.54943 0.45931 0.81288 -0.46400
N 	N 	0.98714 0.52816 0.00026 -0.08800
N 	N 	0.74560 0.26011 0.22985 -0.08900
N 	N 	0.72866 0.26963 0.74356 -0.08700
C 	C 	0.79136 0.39734 0.00244 0.38500
C 	C 	0.82605 0.46376 0.00435 -0.07900
C 	C 	0.79629 0.52580 0.00900 0.02200
H 	H 	0.75450 0.52640 0.01220 0.04600
C 	C 	0.82876 0.58658 0.00885 -0.08100
C 	C 	0.89179 0.58540 0.00533 -0.05300
H 	H 	0.91370 0.62600 0.00500 0.06500
C 	C 	0.92193 0.52344 0.00235 0.08100
C 	C 	0.88896 0.46321 0.00112 -0.05200
H 	H 	0.90900 0.42200 0.99810 0.06900
C 	C 	0.80047 0.24555 0.07643 0.38400
C 	C 	0.81547 0.22738 0.12661 -0.07800
C 	C 	0.77690 0.25110 0.15666 -0.05600
H 	H 	0.74360 0.27960 0.14570 0.06500
C 	C 	0.78779 0.23260 0.20260 0.08400
C 	C 	0.83699 0.18930 0.21930 -0.05600
H 	H 	0.84380 0.17640 0.25010 0.07100
C 	C 	0.87557 0.16564 0.18995 -0.07500
C 	C 	0.86519 0.18545 0.14377 0.01900
H 	H 	0.89190 0.17040 0.12430 0.04700
C 	C 	0.92689 0.11596 0.20834 0.38500
C 	C 	0.70761 0.29866 0.90892 0.38700
C 	C 	0.68832 0.31475 0.85855 -0.08000
C 	C 	0.71858 0.28340 0.82630 -0.05200
H 	H 	0.75000 0.25180 0.83560 0.07000
C 	C 	0.70147 0.29970 0.77977 0.08100
C 	C 	0.65609 0.34810 0.76600 -0.05400
H 	H 	0.64590 0.35970 0.73500 0.06500
C 	C 	0.62560 0.37976 0.79839 -0.08200
C 	C 	0.64128 0.36188 0.84447 0.02200
H 	H 	0.62010 0.38160 0.86620 0.04600
C 	C 	0.57771 0.43351 0.78311 0.38800
C 	C 	0.79674 0.65419 0.01101 0.39000
Zn	Zn	0.69148 0.74248 0.01808 1.19600
Zn	Zn	0.80750 0.80682 0.99533 1.19600
Zn	Zn	0.52373 0.52519 0.70486 1.19700
O 	O 	0.68018 0.84574 0.00813 -0.48500
O 	O 	0.76353 0.89860 0.98887 -0.46100
O 	O 	0.66160 0.72829 0.94921 -0.46300
O 	O 	0.75053 0.77623 0.93609 -0.48500
O 	O 	0.74399 0.76350 0.08012 -0.48300
O 	O 	0.82589 0.82283 0.06378 -0.47200
O 	O 	0.75934 0.15391 0.98393 -0.46500
O 	O 	0.67095 0.20618 0.99316 -0.48200
O 	O 	0.53516 0.60148 0.81810 -0.46800
O 	O 	0.57329 0.59279 0.75203 -0.48100
O 	O 	0.92975 0.94891 0.25903 -0.48700
O 	O 	0.95057 0.95931 0.18712 -0.46400
N 	N 	0.51286 0.02816 0.99974 -0.08800
N 	N 	0.75440 0.76011 0.77015 -0.08900
N 	N 	0.77134 0.76963 0.25644 -0.08700
C 	C 	0.70864 0.89734 0.99756 0.38200
C 	C 	0.67395 0.96376 0.99565 -0.07800
C 	C 	0.70371 0.02580 0.99100 0.02200
H 	H 	0.74550 0.02640 0.98780 0.04600
C 	C 	0.67124 0.08658 0.99115 -0.08000
C 	C 	0.60821 0.08540 0.99467 -0.05500
H 	H 	0.58630 0.12600 0.99500 0.06500
C 	C 	0.57807 0.02344 0.99765 0.08500
C 	C 	0.61104 0.96321 0.99888 -0.06000
H 	H 	0.59100 0.92200 0.00190 0.07300
C 	C 	0.69953 0.74555 0.92357 0.38400
C 	C 	0.68453 0.72738 0.87339 -0.07800
C 	C 	0.72310 0.75110 0.84334 -0.05600
H 	H 	0.75640 0.77960 0.85430 0.06500
C 	C 	0.71221 0.73260 0.79740 0.08400
C 	C 	0.66301 0.68930 0.78070 -0.05600
H 	H 	0.65620 0.67640 0.74990 0.07100
C 	C 	0.62443 0.66564 0.81005 -0.07500
C 	C 	0.63481 0.68545 0.85623 0.01900
H 	H 	0.60810 0.67040 0.87570 0.04700
C 	C 	0.57311 0.61596 0.79166 0.38500
C 	C 	0.79239 0.79866 0.09108 0.38700
C 	C 	0.81168 0.81475 0.14145 -0.08000
C 	C 	0.78142 0.78340 0.17370 -0.05200
H 	H 	0.75000 0.75180 0.16440 0.07000
C 	C 	0.79853 0.79970 0.22023 0.08100
C 	C 	0.84391 0.84810 0.23400 -0.05400
H 	H 	0.85410 0.85970 0.26500 0.06600
C 	C 	0.87440 0.87976 0.20161 -0.08100
C 	C 	0.85872 0.86188 0.15553 0.02200
H 	H 	0.87990 0.88160 0.13380 0.04600
C 	C 	0.92229 0.93351 0.21689 0.38800
C 	C 	0.70326 0.15419 0.98899 0.38900
Zn	Zn	0.19148 0.24248 0.51808 1.19600
Zn	Zn	0.30750 0.30682 0.49533 1.19700
Zn	Zn	0.02373 0.02519 0.20486 1.19600
O 	O 	0.18018 0.34574 0.50813 -0.48700
O 	O 	0.26353 0.39860 0.48887 -0.46100
O 	O 	0.16160 0.22829 0.44921 -0.46200
O 	O 	0.25053 0.27623 0.43609 -0.48400
O 	O 	0.24399 0.26350 0.58012 -0.48300
O 	O 	0.32589 0.32283 0.56378 -0.47300
O 	O 	0.25934 0.65391 0.48393 -0.46600
O 	O 	0.17095 0.70618 0.49316 -0.48200
O 	O 	0.03516 0.10148 0.31810 -0.46800
O 	O 	0.07329 0.09279 0.25203 -0.48200
O 	O 	0.42975 0.44891 0.75903 -0.48800
O 	O 	0.45057 0.45931 0.68712 -0.46400
N 	N 	0.01286 0.52816 0.49974 -0.08800
N 	N 	0.25440 0.26011 0.27015 -0.08900
N 	N 	0.27134 0.26963 0.75644 -0.08700
C 	C 	0.20864 0.39734 0.49756 0.38500
C 	C 	0.17395 0.46376 0.49565 -0.07900
C 	C 	0.20371 0.52580 0.49100 0.02200
H 	H 	0.24550 0.52640 0.48780 0.04600
C 	C 	0.17124 0.58658 0.49115 -0.08100
C 	C 	0.10821 0.58540 0.49467 -0.05300
H 	H 	0.08630 0.62600 0.49500 0.06400
C 	C 	0.07807 0.52344 0.49765 0.08100
C 	C 	0.11104 0.46321 0.49888 -0.05300
H 	H 	0.09100 0.42200 0.50190 0.07000
C 	C 	0.19953 0.24555 0.42357 0.38400
C 	C 	0.18453 0.22738 0.37339 -0.07800
C 	C 	0.22310 0.25110 0.34334 -0.05600
H 	H 	0.25640 0.27960 0.35430 0.06500
C 	C 	0.21221 0.23260 0.29740 0.08400
C 	C 	0.16301 0.18930 0.28070 -0.05600
H 	H 	0.15620 0.17640 0.24990 0.07100
C 	C 	0.12443 0.16564 0.31005 -0.07500
C 	C 	0.13481 0.18545 0.35623 0.01900
H 	H 	0.10810 0.17040 0.37570 0.04700
C 	C 	0.07311 0.11596 0.29166 0.38500
C 	C 	0.29239 0.29866 0.59108 0.38700
C 	C 	0.31168 0.31475 0.64145 -0.08000
C 	C 	0.28142 0.28340 0.67370 -0.05200
H 	H 	0.25000 0.25180 0.66440 0.07000
C 	C 	0.29853 0.29970 0.72023 0.08100
C 	C 	0.34391 0.34810 0.73400 -0.05400
H 	H 	0.35410 0.35970 0.76500 0.06500
C 	C 	0.37440 0.37976 0.70161 -0.08200
C 	C 	0.35872 0.36188 0.65553 0.02200
H 	H 	0.37990 0.38160 0.63380 0.04600
C 	C 	0.42229 0.43351 0.71689 0.38800
C 	C 	0.20326 0.65419 0.48899 0.39000
