data_crystal

_cell_length_a 46.07200
_cell_length_b 35.83100
_cell_length_c 28.60800
_cell_angle_alpha 90.00000
_cell_angle_beta  90.00000
_cell_angle_gamma 90.00000

_symmetry_space_group_name_	'P 1'
_symmetry_space_group_name_H-M	'P 1'

loop_
_symmetry_equiv_pos_as_xyz
  x,y,z

loop_
_atom_site_label
_atom_site_type_symbol
_atom_site_fract_x
_atom_site_fract_y
_atom_site_fract_z
_atom_site_charge
Ce	Ce	0.16935 0.11522 0.23585 2.07200
C 	C 	0.19280 0.14000 0.95830 0.03200
C 	C 	0.19230 0.17200 0.93220 -0.10200
H 	H 	0.19680 0.19460 0.94640 0.05700
C 	C 	0.18490 0.17150 0.88450 0.00900
C 	C 	0.17760 0.13760 0.86370 -0.10200
H 	H 	0.17250 0.13680 0.83230 0.05400
C 	C 	0.17800 0.10500 0.89010 0.03100
C 	C 	0.18590 0.10650 0.93600 -0.11200
H 	H 	0.18670 0.08440 0.95300 0.07100
C 	C 	0.20110 0.14080 0.00770 0.04500
C 	C 	0.22410 0.16280 0.02310 -0.13400
H 	H 	0.23450 0.17710 0.00170 0.06700
C 	C 	0.23190 0.16370 0.07070 0.07100
H 	H 	0.24750 0.17820 0.08030 0.01300
C 	C 	0.21670 0.14360 0.10280 -0.18300
C 	C 	0.19490 0.12110 0.08880 0.06600
H 	H 	0.18560 0.10600 0.11060 -0.01500
C 	C 	0.18600 0.12000 0.04200 -0.13600
H 	H 	0.17010 0.10560 0.03350 0.05800
C 	C 	0.18320 0.20790 0.85730 0.09400
C 	C 	0.20480 0.23310 0.86090 -0.18200
H 	H 	0.22090 0.22850 0.87950 0.08400
C 	C 	0.20220 0.26670 0.83580 0.10000
H 	H 	0.21680 0.28440 0.83880 -0.01500
C 	C 	0.17910 0.27440 0.80700 -0.22900
C 	C 	0.15780 0.24870 0.80460 0.12200
H 	H 	0.14130 0.25350 0.78680 -0.02900
C 	C 	0.16030 0.21490 0.82840 -0.19000
H 	H 	0.14600 0.19680 0.82450 0.07700
C 	C 	0.17270 0.06770 0.86700 0.04300
C 	C 	0.18430 0.06150 0.82320 -0.11000
H 	H 	0.19390 0.08080 0.80800 0.06200
C 	C 	0.18190 0.02640 0.80040 0.02200
H 	H 	0.18950 0.02280 0.77060 0.03100
C 	C 	0.16820 0.99770 0.82370 -0.11500
C 	C 	0.15580 0.00520 0.86750 0.02600
H 	H 	0.14550 0.98660 0.88290 0.01900
C 	C 	0.15870 0.03970 0.88800 -0.12100
H 	H 	0.15070 0.04370 0.91740 0.06700
C 	C 	0.22480 0.14620 0.15270 0.39300
C 	C 	0.17860 0.31080 0.78140 0.44900
C 	C 	0.16850 0.95960 0.80360 0.31500
C 	C 	0.22360 0.07370 0.35390 -0.14900
C 	C 	0.25020 0.05850 0.34610 0.07300
H 	H 	0.25840 0.06040 0.31650 0.01100
C 	C 	0.26580 0.03990 0.38160 -0.14100
H 	H 	0.28380 0.02920 0.37560 0.08500
C 	C 	0.25350 0.03810 0.42530 0.07500
C 	C 	0.22660 0.05380 0.43330 -0.14300
H 	H 	0.21840 0.05200 0.46290 0.07300
C 	C 	0.21170 0.07180 0.39880 0.07100
H 	H 	0.19380 0.08270 0.40500 0.00900
C 	C 	0.27040 0.01840 0.46410 0.01400
C 	C 	0.29950 0.01800 0.46550 -0.06900
H 	H 	0.30980 0.03050 0.44230 0.05300
C 	C 	0.36230 0.02930 0.48200 -0.27100
H 	H 	0.35240 0.04950 0.46930 0.10900
C 	C 	0.39090 0.02970 0.48210 0.19500
H 	H 	0.40040 0.05040 0.46990 -0.07300
C 	C 	0.20650 0.09270 0.31630 0.37200
O 	O 	0.21130 0.12900 0.18500 -0.63500
O 	O 	0.24680 0.16540 0.16300 -0.48300
O 	O 	0.15790 0.93320 0.82720 -0.49700
O 	O 	0.17810 0.95420 0.76280 -0.45600
O 	O 	0.15220 0.32430 0.77680 -0.52000
O 	O 	0.19940 0.32720 0.76800 -0.69700
O 	O 	0.22090 0.10030 0.27730 -0.57100
O 	O 	0.18060 0.09890 0.32020 -0.48900
O 	O 	0.45330 0.97200 0.51690 -0.65800
Ce	Ce	0.66935 0.61522 0.23585 2.07100
C 	C 	0.69280 0.64000 0.95830 0.03000
C 	C 	0.69230 0.67200 0.93220 -0.10100
H 	H 	0.69680 0.69460 0.94640 0.05700
C 	C 	0.68490 0.67150 0.88450 0.00800
C 	C 	0.67760 0.63760 0.86370 -0.10000
H 	H 	0.67250 0.63680 0.83230 0.05300
C 	C 	0.67800 0.60500 0.89010 0.02800
C 	C 	0.68590 0.60650 0.93600 -0.10900
H 	H 	0.68670 0.58440 0.95300 0.07000
C 	C 	0.70110 0.64080 0.00770 0.04600
C 	C 	0.72410 0.66280 0.02310 -0.13400
H 	H 	0.73450 0.67710 0.00170 0.06700
C 	C 	0.73190 0.66370 0.07070 0.07100
H 	H 	0.74750 0.67820 0.08030 0.01300
C 	C 	0.71670 0.64360 0.10280 -0.18400
C 	C 	0.69490 0.62110 0.08880 0.06600
H 	H 	0.68560 0.60600 0.11060 -0.01500
C 	C 	0.68600 0.62000 0.04200 -0.13700
H 	H 	0.67010 0.60560 0.03350 0.05800
C 	C 	0.68320 0.70790 0.85730 0.09500
C 	C 	0.70480 0.73310 0.86090 -0.18300
H 	H 	0.72090 0.72850 0.87950 0.08500
C 	C 	0.70220 0.76670 0.83580 0.10000
H 	H 	0.71680 0.78440 0.83880 -0.01500
C 	C 	0.67910 0.77440 0.80700 -0.22900
C 	C 	0.65780 0.74870 0.80460 0.12300
H 	H 	0.64130 0.75350 0.78680 -0.02900
C 	C 	0.66030 0.71490 0.82840 -0.19100
H 	H 	0.64600 0.69680 0.82450 0.07700
C 	C 	0.67270 0.56770 0.86700 0.05000
C 	C 	0.68430 0.56150 0.82320 -0.11700
H 	H 	0.69390 0.58080 0.80800 0.06500
C 	C 	0.68190 0.52640 0.80040 0.03100
H 	H 	0.68950 0.52280 0.77060 0.02800
C 	C 	0.66820 0.49770 0.82370 -0.12500
C 	C 	0.65580 0.50520 0.86750 0.03900
H 	H 	0.64550 0.48660 0.88290 0.01400
C 	C 	0.65870 0.53970 0.88800 -0.13000
H 	H 	0.65070 0.54370 0.91740 0.07000
C 	C 	0.72480 0.64620 0.15270 0.39300
C 	C 	0.67860 0.81080 0.78140 0.44900
C 	C 	0.66850 0.45960 0.80360 0.31800
C 	C 	0.72360 0.57370 0.35390 -0.14900
C 	C 	0.75020 0.55850 0.34610 0.07300
H 	H 	0.75840 0.56040 0.31650 0.01100
C 	C 	0.76580 0.53990 0.38160 -0.14100
H 	H 	0.78380 0.52920 0.37560 0.08500
C 	C 	0.75350 0.53810 0.42530 0.07500
C 	C 	0.72660 0.55380 0.43330 -0.14300
H 	H 	0.71840 0.55200 0.46290 0.07400
C 	C 	0.71170 0.57180 0.39880 0.07100
H 	H 	0.69380 0.58270 0.40500 0.00900
C 	C 	0.77040 0.51840 0.46410 0.01400
C 	C 	0.79950 0.51800 0.46550 -0.06900
H 	H 	0.80980 0.53050 0.44230 0.05300
C 	C 	0.86230 0.52930 0.48200 -0.27100
H 	H 	0.85240 0.54950 0.46930 0.10900
C 	C 	0.89090 0.52970 0.48210 0.19400
H 	H 	0.90040 0.55040 0.46990 -0.07200
C 	C 	0.70650 0.59270 0.31630 0.37200
O 	O 	0.71130 0.62900 0.18500 -0.63500
O 	O 	0.74680 0.66540 0.16300 -0.48300
O 	O 	0.65790 0.43320 0.82720 -0.49700
O 	O 	0.67810 0.45420 0.76280 -0.45700
O 	O 	0.65220 0.82430 0.77680 -0.52000
O 	O 	0.69940 0.82720 0.76800 -0.69700
O 	O 	0.72090 0.60030 0.27730 -0.57100
O 	O 	0.68060 0.59890 0.32020 -0.48800
O 	O 	0.95330 0.47200 0.51690 -0.65800
Ce	Ce	0.83065 0.38478 0.73585 2.07100
C 	C 	0.80720 0.36000 0.45830 0.02100
C 	C 	0.80770 0.32800 0.43220 -0.09600
H 	H 	0.80320 0.30540 0.44640 0.05400
C 	C 	0.81510 0.32850 0.38450 0.00500
C 	C 	0.82240 0.36240 0.36370 -0.09700
H 	H 	0.82750 0.36320 0.33230 0.05200
C 	C 	0.82200 0.39500 0.39010 0.02400
C 	C 	0.81410 0.39350 0.43600 -0.10400
H 	H 	0.81330 0.41560 0.45300 0.06700
C 	C 	0.79890 0.35920 0.50770 0.05500
C 	C 	0.77590 0.33720 0.52310 -0.13900
H 	H 	0.76550 0.32290 0.50170 0.07100
C 	C 	0.76810 0.33630 0.57070 0.07600
H 	H 	0.75250 0.32180 0.58030 0.01200
C 	C 	0.78330 0.35640 0.60280 -0.18700
C 	C 	0.80510 0.37890 0.58880 0.07000
H 	H 	0.81440 0.39400 0.61060 -0.01600
C 	C 	0.81400 0.38000 0.54200 -0.14200
H 	H 	0.82990 0.39440 0.53350 0.06100
C 	C 	0.81680 0.29210 0.35730 0.09600
C 	C 	0.79520 0.26690 0.36090 -0.18400
H 	H 	0.77910 0.27150 0.37950 0.08500
C 	C 	0.79780 0.23330 0.33580 0.10100
H 	H 	0.78320 0.21560 0.33880 -0.01600
C 	C 	0.82090 0.22560 0.30700 -0.23000
C 	C 	0.84220 0.25130 0.30460 0.12400
H 	H 	0.85870 0.24650 0.28680 -0.02900
C 	C 	0.83970 0.28510 0.32840 -0.19200
H 	H 	0.85400 0.30320 0.32450 0.07800
C 	C 	0.82730 0.43230 0.36700 0.05100
C 	C 	0.81570 0.43850 0.32320 -0.11800
H 	H 	0.80610 0.41920 0.30800 0.06500
C 	C 	0.81810 0.47360 0.30040 0.03200
H 	H 	0.81050 0.47720 0.27060 0.02800
C 	C 	0.83180 0.50230 0.32370 -0.12500
C 	C 	0.84420 0.49480 0.36750 0.03900
H 	H 	0.85450 0.51340 0.38290 0.01300
C 	C 	0.84130 0.46030 0.38800 -0.13100
H 	H 	0.84930 0.45630 0.41740 0.07000
C 	C 	0.77520 0.35380 0.65270 0.39400
C 	C 	0.82140 0.18920 0.28140 0.44900
C 	C 	0.83150 0.54040 0.30360 0.31800
C 	C 	0.77640 0.42630 0.85390 -0.14800
C 	C 	0.74980 0.44150 0.84610 0.07200
H 	H 	0.74160 0.43960 0.81650 0.01200
C 	C 	0.73420 0.46010 0.88160 -0.14000
H 	H 	0.71620 0.47080 0.87560 0.08500
C 	C 	0.74650 0.46190 0.92530 0.07400
C 	C 	0.77340 0.44620 0.93330 -0.14200
H 	H 	0.78160 0.44800 0.96290 0.07400
C 	C 	0.78830 0.42820 0.89880 0.07100
H 	H 	0.80620 0.41730 0.90500 0.01000
C 	C 	0.72960 0.48160 0.96410 0.01700
C 	C 	0.70050 0.48200 0.96550 -0.06500
H 	H 	0.69020 0.46950 0.94230 0.05200
C 	C 	0.63770 0.47070 0.98200 -0.26700
H 	H 	0.64760 0.45050 0.96930 0.10900
C 	C 	0.60910 0.47030 0.98210 0.19800
H 	H 	0.59960 0.44960 0.96990 -0.07300
C 	C 	0.79350 0.40730 0.81630 0.37200
O 	O 	0.78870 0.37100 0.68500 -0.63600
O 	O 	0.75320 0.33460 0.66300 -0.48300
O 	O 	0.84210 0.56680 0.32720 -0.49800
O 	O 	0.82190 0.54580 0.26280 -0.45700
O 	O 	0.84780 0.17570 0.27680 -0.52000
O 	O 	0.80060 0.17280 0.26800 -0.69700
O 	O 	0.77910 0.39970 0.77730 -0.57000
O 	O 	0.81940 0.40110 0.82020 -0.48800
O 	O 	0.54670 0.52800 0.01690 -0.66000
Ce	Ce	0.33065 0.88478 0.73585 2.07100
C 	C 	0.30720 0.86000 0.45830 0.02000
C 	C 	0.30770 0.82800 0.43220 -0.09500
H 	H 	0.30320 0.80540 0.44640 0.05400
C 	C 	0.31510 0.82850 0.38450 0.00400
C 	C 	0.32240 0.86240 0.36370 -0.09500
H 	H 	0.32750 0.86320 0.33230 0.05100
C 	C 	0.32200 0.89500 0.39010 0.02100
C 	C 	0.31410 0.89350 0.43600 -0.10200
H 	H 	0.31330 0.91560 0.45300 0.06600
C 	C 	0.29890 0.85920 0.50770 0.05600
C 	C 	0.27590 0.83720 0.52310 -0.14000
H 	H 	0.26550 0.82290 0.50170 0.07100
C 	C 	0.26810 0.83630 0.57070 0.07600
H 	H 	0.25250 0.82180 0.58030 0.01200
C 	C 	0.28330 0.85640 0.60280 -0.18700
C 	C 	0.30510 0.87890 0.58880 0.07100
H 	H 	0.31440 0.89400 0.61060 -0.01600
C 	C 	0.31400 0.88000 0.54200 -0.14200
H 	H 	0.32990 0.89440 0.53350 0.06100
C 	C 	0.31680 0.79210 0.35730 0.09700
C 	C 	0.29520 0.76690 0.36090 -0.18400
H 	H 	0.27910 0.77150 0.37950 0.08500
C 	C 	0.29780 0.73330 0.33580 0.10100
H 	H 	0.28320 0.71560 0.33880 -0.01600
C 	C 	0.32090 0.72560 0.30700 -0.23000
C 	C 	0.34220 0.75130 0.30460 0.12400
H 	H 	0.35870 0.74650 0.28680 -0.02900
C 	C 	0.33970 0.78510 0.32840 -0.19300
H 	H 	0.35400 0.80320 0.32450 0.07800
C 	C 	0.32730 0.93230 0.36700 0.05800
C 	C 	0.31570 0.93850 0.32320 -0.12500
H 	H 	0.30610 0.91920 0.30800 0.06700
C 	C 	0.31810 0.97360 0.30040 0.04100
H 	H 	0.31050 0.97720 0.27060 0.02500
C 	C 	0.33180 0.00230 0.32370 -0.13600
C 	C 	0.34420 0.99480 0.36750 0.05300
H 	H 	0.35450 0.01340 0.38290 0.00800
C 	C 	0.34130 0.96030 0.38800 -0.14100
H 	H 	0.34930 0.95630 0.41740 0.07300
C 	C 	0.27520 0.85380 0.65270 0.39500
C 	C 	0.32140 0.68920 0.28140 0.44900
C 	C 	0.33150 0.04040 0.30360 0.32200
C 	C 	0.27640 0.92630 0.85390 -0.14800
C 	C 	0.24980 0.94150 0.84610 0.07200
H 	H 	0.24160 0.93960 0.81650 0.01200
C 	C 	0.23420 0.96010 0.88160 -0.14000
H 	H 	0.21620 0.97080 0.87560 0.08500
C 	C 	0.24650 0.96190 0.92530 0.07400
C 	C 	0.27340 0.94620 0.93330 -0.14100
H 	H 	0.28160 0.94800 0.96290 0.07500
C 	C 	0.28830 0.92820 0.89880 0.07100
H 	H 	0.30620 0.91730 0.90500 0.01000
C 	C 	0.22960 0.98160 0.96410 0.01900
C 	C 	0.20050 0.98200 0.96550 -0.06400
H 	H 	0.19020 0.96950 0.94230 0.05200
C 	C 	0.13770 0.97070 0.98200 -0.26500
H 	H 	0.14760 0.95050 0.96930 0.10800
C 	C 	0.10910 0.97030 0.98210 0.19900
H 	H 	0.09960 0.94960 0.96990 -0.07300
C 	C 	0.29350 0.90730 0.81630 0.37200
O 	O 	0.28870 0.87100 0.68500 -0.63600
O 	O 	0.25320 0.83460 0.66300 -0.48300
O 	O 	0.34210 0.06680 0.32720 -0.49900
O 	O 	0.32190 0.04580 0.26280 -0.45900
O 	O 	0.34780 0.67570 0.27680 -0.52100
O 	O 	0.30060 0.67280 0.26800 -0.69700
O 	O 	0.27910 0.89970 0.77730 -0.57000
O 	O 	0.31940 0.90110 0.82020 -0.48800
O 	O 	0.04670 0.02800 0.01690 -0.66000
Ce	Ce	0.83065 0.61522 0.26415 2.07100
C 	C 	0.80720 0.64000 0.54170 0.02100
C 	C 	0.80770 0.67200 0.56780 -0.09600
H 	H 	0.80320 0.69460 0.55360 0.05400
C 	C 	0.81510 0.67150 0.61550 0.00500
C 	C 	0.82240 0.63760 0.63630 -0.09700
H 	H 	0.82750 0.63680 0.66770 0.05200
C 	C 	0.82200 0.60500 0.60990 0.02400
C 	C 	0.81410 0.60650 0.56400 -0.10400
H 	H 	0.81330 0.58440 0.54700 0.06700
C 	C 	0.79890 0.64080 0.49230 0.05500
C 	C 	0.77590 0.66280 0.47690 -0.13900
H 	H 	0.76550 0.67710 0.49830 0.07100
C 	C 	0.76810 0.66370 0.42930 0.07600
H 	H 	0.75250 0.67820 0.41970 0.01200
C 	C 	0.78330 0.64360 0.39720 -0.18700
C 	C 	0.80510 0.62110 0.41120 0.07000
H 	H 	0.81440 0.60600 0.38940 -0.01600
C 	C 	0.81400 0.62000 0.45800 -0.14200
H 	H 	0.82990 0.60560 0.46650 0.06100
C 	C 	0.81680 0.70790 0.64270 0.09600
C 	C 	0.79520 0.73310 0.63910 -0.18400
H 	H 	0.77910 0.72850 0.62050 0.08500
C 	C 	0.79780 0.76670 0.66420 0.10100
H 	H 	0.78320 0.78440 0.66120 -0.01600
C 	C 	0.82090 0.77440 0.69300 -0.23000
C 	C 	0.84220 0.74870 0.69540 0.12400
H 	H 	0.85870 0.75350 0.71320 -0.02900
C 	C 	0.83970 0.71490 0.67160 -0.19200
H 	H 	0.85400 0.69680 0.67550 0.07800
C 	C 	0.82730 0.56770 0.63300 0.05100
C 	C 	0.81570 0.56150 0.67680 -0.11700
H 	H 	0.80610 0.58080 0.69200 0.06500
C 	C 	0.81810 0.52640 0.69960 0.03200
H 	H 	0.81050 0.52280 0.72940 0.02800
C 	C 	0.83180 0.49770 0.67630 -0.12500
C 	C 	0.84420 0.50520 0.63250 0.03900
H 	H 	0.85450 0.48660 0.61710 0.01300
C 	C 	0.84130 0.53970 0.61200 -0.13100
H 	H 	0.84930 0.54370 0.58260 0.07000
C 	C 	0.77520 0.64620 0.34730 0.39400
C 	C 	0.82140 0.81080 0.71860 0.44900
C 	C 	0.83150 0.45960 0.69640 0.31800
C 	C 	0.77640 0.57370 0.14610 -0.14800
C 	C 	0.74980 0.55850 0.15390 0.07200
H 	H 	0.74160 0.56040 0.18350 0.01200
C 	C 	0.73420 0.53990 0.11840 -0.14100
H 	H 	0.71620 0.52920 0.12440 0.08500
C 	C 	0.74650 0.53810 0.07470 0.07400
C 	C 	0.77340 0.55380 0.06670 -0.14200
H 	H 	0.78160 0.55200 0.03710 0.07300
C 	C 	0.78830 0.57180 0.10120 0.07000
H 	H 	0.80620 0.58270 0.09500 0.00900
C 	C 	0.72960 0.51840 0.03590 0.01500
C 	C 	0.70050 0.51800 0.03450 -0.06900
H 	H 	0.69020 0.53050 0.05770 0.05300
C 	C 	0.63770 0.52930 0.01800 -0.27000
H 	H 	0.64760 0.54950 0.03070 0.10900
C 	C 	0.60910 0.52970 0.01790 0.19400
H 	H 	0.59960 0.55040 0.03010 -0.07300
C 	C 	0.79350 0.59270 0.18370 0.37200
O 	O 	0.78870 0.62900 0.31500 -0.63600
O 	O 	0.75320 0.66540 0.33700 -0.48300
O 	O 	0.84210 0.43320 0.67280 -0.49700
O 	O 	0.82190 0.45420 0.73720 -0.45700
O 	O 	0.84780 0.82430 0.72320 -0.52000
O 	O 	0.80060 0.82720 0.73200 -0.69700
O 	O 	0.77910 0.60030 0.22270 -0.57000
O 	O 	0.81940 0.59890 0.17980 -0.48800
O 	O 	0.54670 0.47200 0.98310 -0.65600
Ce	Ce	0.33065 0.11522 0.26415 2.07100
C 	C 	0.30720 0.14000 0.54170 0.02200
C 	C 	0.30770 0.17200 0.56780 -0.09700
H 	H 	0.30320 0.19460 0.55360 0.05500
C 	C 	0.31510 0.17150 0.61550 0.00600
C 	C 	0.32240 0.13760 0.63630 -0.09900
H 	H 	0.32750 0.13680 0.66770 0.05300
C 	C 	0.32200 0.10500 0.60990 0.02700
C 	C 	0.31410 0.10650 0.56400 -0.10700
H 	H 	0.31330 0.08440 0.54700 0.06800
C 	C 	0.29890 0.14080 0.49230 0.05400
C 	C 	0.27590 0.16280 0.47690 -0.13900
H 	H 	0.26550 0.17710 0.49830 0.07000
C 	C 	0.26810 0.16370 0.42930 0.07500
H 	H 	0.25250 0.17820 0.41970 0.01200
C 	C 	0.28330 0.14360 0.39720 -0.18600
C 	C 	0.30510 0.12110 0.41120 0.07000
H 	H 	0.31440 0.10600 0.38940 -0.01600
C 	C 	0.31400 0.12000 0.45800 -0.14100
H 	H 	0.32990 0.10560 0.46650 0.06100
C 	C 	0.31680 0.20790 0.64270 0.09500
C 	C 	0.29520 0.23310 0.63910 -0.18300
H 	H 	0.27910 0.22850 0.62050 0.08400
C 	C 	0.29780 0.26670 0.66420 0.10000
H 	H 	0.28320 0.28440 0.66120 -0.01500
C 	C 	0.32090 0.27440 0.69300 -0.23000
C 	C 	0.34220 0.24870 0.69540 0.12300
H 	H 	0.35870 0.25350 0.71320 -0.02900
C 	C 	0.33970 0.21490 0.67160 -0.19100
H 	H 	0.35400 0.19680 0.67550 0.07700
C 	C 	0.32730 0.06770 0.63300 0.04400
C 	C 	0.31570 0.06150 0.67680 -0.11100
H 	H 	0.30610 0.08080 0.69200 0.06300
C 	C 	0.31810 0.02640 0.69960 0.02200
H 	H 	0.31050 0.02280 0.72940 0.03100
C 	C 	0.33180 0.99770 0.67630 -0.11500
C 	C 	0.34420 0.00520 0.63250 0.02600
H 	H 	0.35450 0.98660 0.61710 0.01900
C 	C 	0.34130 0.03970 0.61200 -0.12100
H 	H 	0.34930 0.04370 0.58260 0.06600
C 	C 	0.27520 0.14620 0.34730 0.39400
C 	C 	0.32140 0.31080 0.71860 0.44900
C 	C 	0.33150 0.95960 0.69640 0.31500
C 	C 	0.27640 0.07370 0.14610 -0.14800
C 	C 	0.24980 0.05850 0.15390 0.07200
H 	H 	0.24160 0.06040 0.18350 0.01200
C 	C 	0.23420 0.03990 0.11840 -0.14000
H 	H 	0.21620 0.02920 0.12440 0.08500
C 	C 	0.24650 0.03810 0.07470 0.07400
C 	C 	0.27340 0.05380 0.06670 -0.14200
H 	H 	0.28160 0.05200 0.03710 0.07200
C 	C 	0.28830 0.07180 0.10120 0.07000
H 	H 	0.30620 0.08270 0.09500 0.00900
C 	C 	0.22960 0.01840 0.03590 0.01500
C 	C 	0.20050 0.01800 0.03450 -0.06900
H 	H 	0.19020 0.03050 0.05770 0.05300
C 	C 	0.13770 0.02930 0.01800 -0.27000
H 	H 	0.14760 0.04950 0.03070 0.10900
C 	C 	0.10910 0.02970 0.01790 0.19400
H 	H 	0.09960 0.05040 0.03010 -0.07300
C 	C 	0.29350 0.09270 0.18370 0.37200
O 	O 	0.28870 0.12900 0.31500 -0.63600
O 	O 	0.25320 0.16540 0.33700 -0.48300
O 	O 	0.34210 0.93320 0.67280 -0.49700
O 	O 	0.32190 0.95420 0.73720 -0.45600
O 	O 	0.34780 0.32430 0.72320 -0.52000
O 	O 	0.30060 0.32720 0.73200 -0.69700
O 	O 	0.27910 0.10030 0.22270 -0.57000
O 	O 	0.31940 0.09890 0.17980 -0.48900
O 	O 	0.04670 0.97200 0.98310 -0.65400
Ce	Ce	0.16935 0.88478 0.76415 2.07100
C 	C 	0.19280 0.86000 0.04170 0.01100
C 	C 	0.19230 0.82800 0.06780 -0.09000
H 	H 	0.19680 0.80540 0.05360 0.05100
C 	C 	0.18490 0.82850 0.11550 0.00000
C 	C 	0.17760 0.86240 0.13630 -0.09200
H 	H 	0.17250 0.86320 0.16770 0.05000
C 	C 	0.17800 0.89500 0.10990 0.01800
C 	C 	0.18590 0.89350 0.06400 -0.09700
H 	H 	0.18670 0.91560 0.04700 0.06400
C 	C 	0.20110 0.85920 0.99230 0.06400
C 	C 	0.22410 0.83720 0.97690 -0.14500
H 	H 	0.23450 0.82290 0.99830 0.07400
C 	C 	0.23190 0.83630 0.92930 0.08000
H 	H 	0.24750 0.82180 0.91970 0.01000
C 	C 	0.21670 0.85640 0.89720 -0.19000
C 	C 	0.19490 0.87890 0.91120 0.07500
H 	H 	0.18560 0.89400 0.88940 -0.01800
C 	C 	0.18600 0.88000 0.95800 -0.14800
H 	H 	0.17010 0.89440 0.96650 0.06400
C 	C 	0.18320 0.79210 0.14270 0.09800
C 	C 	0.20480 0.76690 0.13910 -0.18500
H 	H 	0.22090 0.77150 0.12050 0.08500
C 	C 	0.20220 0.73330 0.16420 0.10200
H 	H 	0.21680 0.71560 0.16120 -0.01600
C 	C 	0.17910 0.72560 0.19300 -0.23100
C 	C 	0.15780 0.75130 0.19540 0.12500
H 	H 	0.14130 0.74650 0.21320 -0.03000
C 	C 	0.16030 0.78510 0.17160 -0.19400
H 	H 	0.14600 0.80320 0.17550 0.07800
C 	C 	0.17270 0.93230 0.13300 0.05900
C 	C 	0.18430 0.93850 0.17680 -0.12600
H 	H 	0.19390 0.91920 0.19200 0.06800
C 	C 	0.18190 0.97360 0.19960 0.04200
H 	H 	0.18950 0.97720 0.22940 0.02500
C 	C 	0.16820 0.00230 0.17630 -0.13700
C 	C 	0.15580 0.99480 0.13250 0.05400
H 	H 	0.14550 0.01340 0.11710 0.00700
C 	C 	0.15870 0.96030 0.11200 -0.14200
H 	H 	0.15070 0.95630 0.08260 0.07300
C 	C 	0.22480 0.85380 0.84730 0.39600
C 	C 	0.17860 0.68920 0.21860 0.45000
C 	C 	0.16850 0.04040 0.19640 0.32200
C 	C 	0.22360 0.92630 0.64610 -0.14800
C 	C 	0.25020 0.94150 0.65390 0.07300
H 	H 	0.25840 0.93960 0.68350 0.01200
C 	C 	0.26580 0.96010 0.61840 -0.14100
H 	H 	0.28380 0.97080 0.62440 0.08600
C 	C 	0.25350 0.96190 0.57470 0.07500
C 	C 	0.22660 0.94620 0.56670 -0.14200
H 	H 	0.21840 0.94800 0.53710 0.07400
C 	C 	0.21170 0.92820 0.60120 0.07100
H 	H 	0.19380 0.91730 0.59500 0.00900
C 	C 	0.27040 0.98160 0.53590 0.01500
C 	C 	0.29950 0.98200 0.53450 -0.06700
H 	H 	0.30980 0.96950 0.55770 0.05200
C 	C 	0.36230 0.97070 0.51800 -0.26900
H 	H 	0.35240 0.95050 0.53070 0.10900
C 	C 	0.39090 0.97030 0.51790 0.19600
H 	H 	0.40040 0.94960 0.53010 -0.07300
C 	C 	0.20650 0.90730 0.68370 0.37200
O 	O 	0.21130 0.87100 0.81500 -0.63600
O 	O 	0.24680 0.83460 0.83700 -0.48300
O 	O 	0.15790 0.06680 0.17280 -0.49900
O 	O 	0.17810 0.04580 0.23720 -0.45900
O 	O 	0.15220 0.67570 0.22320 -0.52100
O 	O 	0.19940 0.67280 0.23200 -0.69700
O 	O 	0.22090 0.89970 0.72270 -0.57000
O 	O 	0.18060 0.90110 0.67980 -0.48800
O 	O 	0.45330 0.02800 0.48310 -0.66000
Ce	Ce	0.66935 0.38478 0.76415 2.07100
C 	C 	0.69280 0.36000 0.04170 0.01200
C 	C 	0.69230 0.32800 0.06780 -0.09100
H 	H 	0.69680 0.30540 0.05360 0.05100
C 	C 	0.68490 0.32850 0.11550 0.00200
C 	C 	0.67760 0.36240 0.13630 -0.09400
H 	H 	0.67250 0.36320 0.16770 0.05100
C 	C 	0.67800 0.39500 0.10990 0.02100
C 	C 	0.68590 0.39350 0.06400 -0.09900
H 	H 	0.68670 0.41560 0.04700 0.06400
C 	C 	0.70110 0.35920 0.99230 0.06400
C 	C 	0.72410 0.33720 0.97690 -0.14500
H 	H 	0.73450 0.32290 0.99830 0.07400
C 	C 	0.73190 0.33630 0.92930 0.08000
H 	H 	0.74750 0.32180 0.91970 0.01100
C 	C 	0.71670 0.35640 0.89720 -0.19000
C 	C 	0.69490 0.37890 0.91120 0.07500
H 	H 	0.68560 0.39400 0.88940 -0.01800
C 	C 	0.68600 0.38000 0.95800 -0.14700
H 	H 	0.67010 0.39440 0.96650 0.06400
C 	C 	0.68320 0.29210 0.14270 0.09700
C 	C 	0.70480 0.26690 0.13910 -0.18500
H 	H 	0.72090 0.27150 0.12050 0.08500
C 	C 	0.70220 0.23330 0.16420 0.10200
H 	H 	0.71680 0.21560 0.16120 -0.01600
C 	C 	0.67910 0.22560 0.19300 -0.23100
C 	C 	0.65780 0.25130 0.19540 0.12400
H 	H 	0.64130 0.24650 0.21320 -0.03000
C 	C 	0.66030 0.28510 0.17160 -0.19300
H 	H 	0.64600 0.30320 0.17550 0.07800
C 	C 	0.67270 0.43230 0.13300 0.05200
C 	C 	0.68430 0.43850 0.17680 -0.11900
H 	H 	0.69390 0.41920 0.19200 0.06500
C 	C 	0.68190 0.47360 0.19960 0.03200
H 	H 	0.68950 0.47720 0.22940 0.02800
C 	C 	0.66820 0.50230 0.17630 -0.12600
C 	C 	0.65580 0.49480 0.13250 0.04000
H 	H 	0.64550 0.51340 0.11710 0.01300
C 	C 	0.65870 0.46030 0.11200 -0.13200
H 	H 	0.65070 0.45630 0.08260 0.07000
C 	C 	0.72480 0.35380 0.84730 0.39600
C 	C 	0.67860 0.18920 0.21860 0.44900
C 	C 	0.66850 0.54040 0.19640 0.31800
C 	C 	0.72360 0.42630 0.64610 -0.14900
C 	C 	0.75020 0.44150 0.65390 0.07300
H 	H 	0.75840 0.43960 0.68350 0.01200
C 	C 	0.76580 0.46010 0.61840 -0.14100
H 	H 	0.78380 0.47080 0.62440 0.08500
C 	C 	0.75350 0.46190 0.57470 0.07500
C 	C 	0.72660 0.44620 0.56670 -0.14300
H 	H 	0.71840 0.44800 0.53710 0.07400
C 	C 	0.71170 0.42820 0.60120 0.07100
H 	H 	0.69380 0.41730 0.59500 0.00900
C 	C 	0.77040 0.48160 0.53590 0.01400
C 	C 	0.79950 0.48200 0.53450 -0.06900
H 	H 	0.80980 0.46950 0.55770 0.05300
C 	C 	0.86230 0.47070 0.51800 -0.27100
H 	H 	0.85240 0.45050 0.53070 0.10900
C 	C 	0.89090 0.47030 0.51790 0.19400
H 	H 	0.90040 0.44960 0.53010 -0.07200
C 	C 	0.70650 0.40730 0.68370 0.37200
O 	O 	0.71130 0.37100 0.81500 -0.63600
O 	O 	0.74680 0.33460 0.83700 -0.48300
O 	O 	0.65790 0.56680 0.17280 -0.49800
O 	O 	0.67810 0.54580 0.23720 -0.45700
O 	O 	0.65220 0.17570 0.22320 -0.52100
O 	O 	0.69940 0.17280 0.23200 -0.69700
O 	O 	0.72090 0.39970 0.72270 -0.57000
O 	O 	0.68060 0.40110 0.67980 -0.48800
O 	O 	0.95330 0.52800 0.48310 -0.65800
Ce	Ce	0.83065 0.88478 0.76415 2.07100
C 	C 	0.80720 0.86000 0.04170 0.01100
C 	C 	0.80770 0.82800 0.06780 -0.09000
H 	H 	0.80320 0.80540 0.05360 0.05100
C 	C 	0.81510 0.82850 0.11550 0.00100
C 	C 	0.82240 0.86240 0.13630 -0.09200
H 	H 	0.82750 0.86320 0.16770 0.05000
C 	C 	0.82200 0.89500 0.10990 0.01800
C 	C 	0.81410 0.89350 0.06400 -0.09700
H 	H 	0.81330 0.91560 0.04700 0.06400
C 	C 	0.79890 0.85920 0.99230 0.06400
C 	C 	0.77590 0.83720 0.97690 -0.14500
H 	H 	0.76550 0.82290 0.99830 0.07400
C 	C 	0.76810 0.83630 0.92930 0.08000
H 	H 	0.75250 0.82180 0.91970 0.01000
C 	C 	0.78330 0.85640 0.89720 -0.19000
C 	C 	0.80510 0.87890 0.91120 0.07500
H 	H 	0.81440 0.89400 0.88940 -0.01800
C 	C 	0.81400 0.88000 0.95800 -0.14700
H 	H 	0.82990 0.89440 0.96650 0.06400
C 	C 	0.81680 0.79210 0.14270 0.09800
C 	C 	0.79520 0.76690 0.13910 -0.18500
H 	H 	0.77910 0.77150 0.12050 0.08500
C 	C 	0.79780 0.73330 0.16420 0.10200
H 	H 	0.78320 0.71560 0.16120 -0.01600
C 	C 	0.82090 0.72560 0.19300 -0.23100
C 	C 	0.84220 0.75130 0.19540 0.12500
H 	H 	0.85870 0.74650 0.21320 -0.03000
C 	C 	0.83970 0.78510 0.17160 -0.19400
H 	H 	0.85400 0.80320 0.17550 0.07800
C 	C 	0.82730 0.93230 0.13300 0.05900
C 	C 	0.81570 0.93850 0.17680 -0.12600
H 	H 	0.80610 0.91920 0.19200 0.06800
C 	C 	0.81810 0.97360 0.19960 0.04200
H 	H 	0.81050 0.97720 0.22940 0.02500
C 	C 	0.83180 0.00230 0.17630 -0.13600
C 	C 	0.84420 0.99480 0.13250 0.05400
H 	H 	0.85450 0.01340 0.11710 0.00700
C 	C 	0.84130 0.96030 0.11200 -0.14200
H 	H 	0.84930 0.95630 0.08260 0.07300
C 	C 	0.77520 0.85380 0.84730 0.39600
C 	C 	0.82140 0.68920 0.21860 0.45000
C 	C 	0.83150 0.04040 0.19640 0.32200
C 	C 	0.77640 0.92630 0.64610 -0.14800
C 	C 	0.74980 0.94150 0.65390 0.07300
H 	H 	0.74160 0.93960 0.68350 0.01200
C 	C 	0.73420 0.96010 0.61840 -0.14100
H 	H 	0.71620 0.97080 0.62440 0.08600
C 	C 	0.74650 0.96190 0.57470 0.07500
C 	C 	0.77340 0.94620 0.56670 -0.14200
H 	H 	0.78160 0.94800 0.53710 0.07400
C 	C 	0.78830 0.92820 0.60120 0.07100
H 	H 	0.80620 0.91730 0.59500 0.00900
C 	C 	0.72960 0.98160 0.53590 0.01500
C 	C 	0.70050 0.98200 0.53450 -0.06700
H 	H 	0.69020 0.96950 0.55770 0.05300
C 	C 	0.63770 0.97070 0.51800 -0.26900
H 	H 	0.64760 0.95050 0.53070 0.10900
C 	C 	0.60910 0.97030 0.51790 0.19600
H 	H 	0.59960 0.94960 0.53010 -0.07300
C 	C 	0.79350 0.90730 0.68370 0.37200
O 	O 	0.78870 0.87100 0.81500 -0.63600
O 	O 	0.75320 0.83460 0.83700 -0.48300
O 	O 	0.84210 0.06680 0.17280 -0.49900
O 	O 	0.82190 0.04580 0.23720 -0.45800
O 	O 	0.84780 0.67570 0.22320 -0.52000
O 	O 	0.80060 0.67280 0.23200 -0.69700
O 	O 	0.77910 0.89970 0.72270 -0.57000
O 	O 	0.81940 0.90110 0.67980 -0.48800
O 	O 	0.54670 0.02800 0.48310 -0.66000
Ce	Ce	0.33065 0.38478 0.76415 2.07100
C 	C 	0.30720 0.36000 0.04170 0.01200
C 	C 	0.30770 0.32800 0.06780 -0.09100
H 	H 	0.30320 0.30540 0.05360 0.05100
C 	C 	0.31510 0.32850 0.11550 0.00200
C 	C 	0.32240 0.36240 0.13630 -0.09400
H 	H 	0.32750 0.36320 0.16770 0.05100
C 	C 	0.32200 0.39500 0.10990 0.02100
C 	C 	0.31410 0.39350 0.06400 -0.09900
H 	H 	0.31330 0.41560 0.04700 0.06400
C 	C 	0.29890 0.35920 0.99230 0.06400
C 	C 	0.27590 0.33720 0.97690 -0.14500
H 	H 	0.26550 0.32290 0.99830 0.07400
C 	C 	0.26810 0.33630 0.92930 0.08000
H 	H 	0.25250 0.32180 0.91970 0.01100
C 	C 	0.28330 0.35640 0.89720 -0.19000
C 	C 	0.30510 0.37890 0.91120 0.07500
H 	H 	0.31440 0.39400 0.88940 -0.01800
C 	C 	0.31400 0.38000 0.95800 -0.14700
H 	H 	0.32990 0.39440 0.96650 0.06400
C 	C 	0.31680 0.29210 0.14270 0.09700
C 	C 	0.29520 0.26690 0.13910 -0.18500
H 	H 	0.27910 0.27150 0.12050 0.08500
C 	C 	0.29780 0.23330 0.16420 0.10200
H 	H 	0.28320 0.21560 0.16120 -0.01600
C 	C 	0.32090 0.22560 0.19300 -0.23100
C 	C 	0.34220 0.25130 0.19540 0.12400
H 	H 	0.35870 0.24650 0.21320 -0.03000
C 	C 	0.33970 0.28510 0.17160 -0.19300
H 	H 	0.35400 0.30320 0.17550 0.07800
C 	C 	0.32730 0.43230 0.13300 0.05200
C 	C 	0.31570 0.43850 0.17680 -0.11900
H 	H 	0.30610 0.41920 0.19200 0.06500
C 	C 	0.31810 0.47360 0.19960 0.03200
H 	H 	0.31050 0.47720 0.22940 0.02800
C 	C 	0.33180 0.50230 0.17630 -0.12600
C 	C 	0.34420 0.49480 0.13250 0.04000
H 	H 	0.35450 0.51340 0.11710 0.01300
C 	C 	0.34130 0.46030 0.11200 -0.13200
H 	H 	0.34930 0.45630 0.08260 0.07000
C 	C 	0.27520 0.35380 0.84730 0.39600
C 	C 	0.32140 0.18920 0.21860 0.44900
C 	C 	0.33150 0.54040 0.19640 0.31800
C 	C 	0.27640 0.42630 0.64610 -0.14900
C 	C 	0.24980 0.44150 0.65390 0.07300
H 	H 	0.24160 0.43960 0.68350 0.01200
C 	C 	0.23420 0.46010 0.61840 -0.14100
H 	H 	0.21620 0.47080 0.62440 0.08500
C 	C 	0.24650 0.46190 0.57470 0.07500
C 	C 	0.27340 0.44620 0.56670 -0.14300
H 	H 	0.28160 0.44800 0.53710 0.07400
C 	C 	0.28830 0.42820 0.60120 0.07100
H 	H 	0.30620 0.41730 0.59500 0.00900
C 	C 	0.22960 0.48160 0.53590 0.01300
C 	C 	0.20050 0.48200 0.53450 -0.06900
H 	H 	0.19020 0.46950 0.55770 0.05300
C 	C 	0.13770 0.47070 0.51800 -0.27100
H 	H 	0.14760 0.45050 0.53070 0.11000
C 	C 	0.10910 0.47030 0.51790 0.19500
H 	H 	0.09960 0.44960 0.53010 -0.07300
C 	C 	0.29350 0.40730 0.68370 0.37200
O 	O 	0.28870 0.37100 0.81500 -0.63600
O 	O 	0.25320 0.33460 0.83700 -0.48300
O 	O 	0.34210 0.56680 0.17280 -0.49800
O 	O 	0.32190 0.54580 0.23720 -0.45700
O 	O 	0.34780 0.17570 0.22320 -0.52100
O 	O 	0.30060 0.17280 0.23200 -0.69700
O 	O 	0.27910 0.39970 0.72270 -0.57000
O 	O 	0.31940 0.40110 0.67980 -0.48800
O 	O 	0.04670 0.52800 0.48310 -0.66000
Ce	Ce	0.16935 0.61522 0.26415 2.07100
C 	C 	0.19280 0.64000 0.54170 0.02100
C 	C 	0.19230 0.67200 0.56780 -0.09600
H 	H 	0.19680 0.69460 0.55360 0.05400
C 	C 	0.18490 0.67150 0.61550 0.00500
C 	C 	0.17760 0.63760 0.63630 -0.09700
H 	H 	0.17250 0.63680 0.66770 0.05200
C 	C 	0.17800 0.60500 0.60990 0.02400
C 	C 	0.18590 0.60650 0.56400 -0.10400
H 	H 	0.18670 0.58440 0.54700 0.06700
C 	C 	0.20110 0.64080 0.49230 0.05500
C 	C 	0.22410 0.66280 0.47690 -0.13900
H 	H 	0.23450 0.67710 0.49830 0.07100
C 	C 	0.23190 0.66370 0.42930 0.07600
H 	H 	0.24750 0.67820 0.41970 0.01200
C 	C 	0.21670 0.64360 0.39720 -0.18700
C 	C 	0.19490 0.62110 0.41120 0.07000
H 	H 	0.18560 0.60600 0.38940 -0.01600
C 	C 	0.18600 0.62000 0.45800 -0.14200
H 	H 	0.17010 0.60560 0.46650 0.06100
C 	C 	0.18320 0.70790 0.64270 0.09600
C 	C 	0.20480 0.73310 0.63910 -0.18400
H 	H 	0.22090 0.72850 0.62050 0.08500
C 	C 	0.20220 0.76670 0.66420 0.10100
H 	H 	0.21680 0.78440 0.66120 -0.01600
C 	C 	0.17910 0.77440 0.69300 -0.23000
C 	C 	0.15780 0.74870 0.69540 0.12400
H 	H 	0.14130 0.75350 0.71320 -0.02900
C 	C 	0.16030 0.71490 0.67160 -0.19200
H 	H 	0.14600 0.69680 0.67550 0.07800
C 	C 	0.17270 0.56770 0.63300 0.05100
C 	C 	0.18430 0.56150 0.67680 -0.11800
H 	H 	0.19390 0.58080 0.69200 0.06500
C 	C 	0.18190 0.52640 0.69960 0.03200
H 	H 	0.18950 0.52280 0.72940 0.02800
C 	C 	0.16820 0.49770 0.67630 -0.12500
C 	C 	0.15580 0.50520 0.63250 0.03900
H 	H 	0.14550 0.48660 0.61710 0.01300
C 	C 	0.15870 0.53970 0.61200 -0.13100
H 	H 	0.15070 0.54370 0.58260 0.07000
C 	C 	0.22480 0.64620 0.34730 0.39400
C 	C 	0.17860 0.81080 0.71860 0.44900
C 	C 	0.16850 0.45960 0.69640 0.31800
C 	C 	0.22360 0.57370 0.14610 -0.14800
C 	C 	0.25020 0.55850 0.15390 0.07300
H 	H 	0.25840 0.56040 0.18350 0.01200
C 	C 	0.26580 0.53990 0.11840 -0.14100
H 	H 	0.28380 0.52920 0.12440 0.08500
C 	C 	0.25350 0.53810 0.07470 0.07400
C 	C 	0.22660 0.55380 0.06670 -0.14200
H 	H 	0.21840 0.55200 0.03710 0.07300
C 	C 	0.21170 0.57180 0.10120 0.07000
H 	H 	0.19380 0.58270 0.09500 0.00900
C 	C 	0.27040 0.51840 0.03590 0.01500
C 	C 	0.29950 0.51800 0.03450 -0.06900
H 	H 	0.30980 0.53050 0.05770 0.05300
C 	C 	0.36230 0.52930 0.01800 -0.27100
H 	H 	0.35240 0.54950 0.03070 0.10900
C 	C 	0.39090 0.52970 0.01790 0.19400
H 	H 	0.40040 0.55040 0.03010 -0.07300
C 	C 	0.20650 0.59270 0.18370 0.37200
O 	O 	0.21130 0.62900 0.31500 -0.63600
O 	O 	0.24680 0.66540 0.33700 -0.48300
O 	O 	0.15790 0.43320 0.67280 -0.49800
O 	O 	0.17810 0.45420 0.73720 -0.45700
O 	O 	0.15220 0.82430 0.72320 -0.52000
O 	O 	0.19940 0.82720 0.73200 -0.69700
O 	O 	0.22090 0.60030 0.22270 -0.57000
O 	O 	0.18060 0.59890 0.17980 -0.48900
O 	O 	0.45330 0.47200 0.98310 -0.65600
Ce	Ce	0.66935 0.11522 0.26415 2.07100
C 	C 	0.69280 0.14000 0.54170 0.02200
C 	C 	0.69230 0.17200 0.56780 -0.09700
H 	H 	0.69680 0.19460 0.55360 0.05500
C 	C 	0.68490 0.17150 0.61550 0.00600
C 	C 	0.67760 0.13760 0.63630 -0.09900
H 	H 	0.67250 0.13680 0.66770 0.05300
C 	C 	0.67800 0.10500 0.60990 0.02700
C 	C 	0.68590 0.10650 0.56400 -0.10700
H 	H 	0.68670 0.08440 0.54700 0.06800
C 	C 	0.70110 0.14080 0.49230 0.05400
C 	C 	0.72410 0.16280 0.47690 -0.13900
H 	H 	0.73450 0.17710 0.49830 0.07000
C 	C 	0.73190 0.16370 0.42930 0.07500
H 	H 	0.74750 0.17820 0.41970 0.01200
C 	C 	0.71670 0.14360 0.39720 -0.18600
C 	C 	0.69490 0.12110 0.41120 0.07000
H 	H 	0.68560 0.10600 0.38940 -0.01600
C 	C 	0.68600 0.12000 0.45800 -0.14100
H 	H 	0.67010 0.10560 0.46650 0.06100
C 	C 	0.68320 0.20790 0.64270 0.09500
C 	C 	0.70480 0.23310 0.63910 -0.18300
H 	H 	0.72090 0.22850 0.62050 0.08400
C 	C 	0.70220 0.26670 0.66420 0.10000
H 	H 	0.71680 0.28440 0.66120 -0.01500
C 	C 	0.67910 0.27440 0.69300 -0.23000
C 	C 	0.65780 0.24870 0.69540 0.12300
H 	H 	0.64130 0.25350 0.71320 -0.02900
C 	C 	0.66030 0.21490 0.67160 -0.19100
H 	H 	0.64600 0.19680 0.67550 0.07700
C 	C 	0.67270 0.06770 0.63300 0.04400
C 	C 	0.68430 0.06150 0.67680 -0.11100
H 	H 	0.69390 0.08080 0.69200 0.06300
C 	C 	0.68190 0.02640 0.69960 0.02200
H 	H 	0.68950 0.02280 0.72940 0.03100
C 	C 	0.66820 0.99770 0.67630 -0.11500
C 	C 	0.65580 0.00520 0.63250 0.02600
H 	H 	0.64550 0.98660 0.61710 0.01900
C 	C 	0.65870 0.03970 0.61200 -0.12100
H 	H 	0.65070 0.04370 0.58260 0.06600
C 	C 	0.72480 0.14620 0.34730 0.39400
C 	C 	0.67860 0.31080 0.71860 0.44900
C 	C 	0.66850 0.95960 0.69640 0.31500
C 	C 	0.72360 0.07370 0.14610 -0.14800
C 	C 	0.75020 0.05850 0.15390 0.07200
H 	H 	0.75840 0.06040 0.18350 0.01200
C 	C 	0.76580 0.03990 0.11840 -0.14000
H 	H 	0.78380 0.02920 0.12440 0.08500
C 	C 	0.75350 0.03810 0.07470 0.07400
C 	C 	0.72660 0.05380 0.06670 -0.14200
H 	H 	0.71840 0.05200 0.03710 0.07200
C 	C 	0.71170 0.07180 0.10120 0.07000
H 	H 	0.69380 0.08270 0.09500 0.00900
C 	C 	0.77040 0.01840 0.03590 0.01500
C 	C 	0.79950 0.01800 0.03450 -0.07000
H 	H 	0.80980 0.03050 0.05770 0.05300
C 	C 	0.86230 0.02930 0.01800 -0.26900
H 	H 	0.85240 0.04950 0.03070 0.10900
C 	C 	0.89090 0.02970 0.01790 0.19300
H 	H 	0.90040 0.05040 0.03010 -0.07300
C 	C 	0.70650 0.09270 0.18370 0.37200
O 	O 	0.71130 0.12900 0.31500 -0.63600
O 	O 	0.74680 0.16540 0.33700 -0.48300
O 	O 	0.65790 0.93320 0.67280 -0.49700
O 	O 	0.67810 0.95420 0.73720 -0.45600
O 	O 	0.65220 0.32430 0.72320 -0.52000
O 	O 	0.69940 0.32720 0.73200 -0.69700
O 	O 	0.72090 0.10030 0.22270 -0.57100
O 	O 	0.68060 0.09890 0.17980 -0.48900
O 	O 	0.95330 0.97200 0.98310 -0.65300
Ce	Ce	0.16935 0.38478 0.73585 2.07100
C 	C 	0.19280 0.36000 0.45830 0.02100
C 	C 	0.19230 0.32800 0.43220 -0.09600
H 	H 	0.19680 0.30540 0.44640 0.05400
C 	C 	0.18490 0.32850 0.38450 0.00500
C 	C 	0.17760 0.36240 0.36370 -0.09700
H 	H 	0.17250 0.36320 0.33230 0.05200
C 	C 	0.17800 0.39500 0.39010 0.02400
C 	C 	0.18590 0.39350 0.43600 -0.10400
H 	H 	0.18670 0.41560 0.45300 0.06700
C 	C 	0.20110 0.35920 0.50770 0.05500
C 	C 	0.22410 0.33720 0.52310 -0.13900
H 	H 	0.23450 0.32290 0.50170 0.07100
C 	C 	0.23190 0.33630 0.57070 0.07600
H 	H 	0.24750 0.32180 0.58030 0.01200
C 	C 	0.21670 0.35640 0.60280 -0.18700
C 	C 	0.19490 0.37890 0.58880 0.07000
H 	H 	0.18560 0.39400 0.61060 -0.01600
C 	C 	0.18600 0.38000 0.54200 -0.14200
H 	H 	0.17010 0.39440 0.53350 0.06100
C 	C 	0.18320 0.29210 0.35730 0.09600
C 	C 	0.20480 0.26690 0.36090 -0.18400
H 	H 	0.22090 0.27150 0.37950 0.08500
C 	C 	0.20220 0.23330 0.33580 0.10100
H 	H 	0.21680 0.21560 0.33880 -0.01600
C 	C 	0.17910 0.22560 0.30700 -0.23000
C 	C 	0.15780 0.25130 0.30460 0.12400
H 	H 	0.14130 0.24650 0.28680 -0.03000
C 	C 	0.16030 0.28510 0.32840 -0.19200
H 	H 	0.14600 0.30320 0.32450 0.07700
C 	C 	0.17270 0.43230 0.36700 0.05100
C 	C 	0.18430 0.43850 0.32320 -0.11800
H 	H 	0.19390 0.41920 0.30800 0.06500
C 	C 	0.18190 0.47360 0.30040 0.03200
H 	H 	0.18950 0.47720 0.27060 0.02800
C 	C 	0.16820 0.50230 0.32370 -0.12600
C 	C 	0.15580 0.49480 0.36750 0.03900
H 	H 	0.14550 0.51340 0.38290 0.01300
C 	C 	0.15870 0.46030 0.38800 -0.13100
H 	H 	0.15070 0.45630 0.41740 0.07000
C 	C 	0.22480 0.35380 0.65270 0.39400
C 	C 	0.17860 0.18920 0.28140 0.44900
C 	C 	0.16850 0.54040 0.30360 0.31800
C 	C 	0.22360 0.42630 0.85390 -0.14800
C 	C 	0.25020 0.44150 0.84610 0.07300
H 	H 	0.25840 0.43960 0.81650 0.01200
C 	C 	0.26580 0.46010 0.88160 -0.14000
H 	H 	0.28380 0.47080 0.87560 0.08500
C 	C 	0.25350 0.46190 0.92530 0.07500
C 	C 	0.22660 0.44620 0.93330 -0.14200
H 	H 	0.21840 0.44800 0.96290 0.07400
C 	C 	0.21170 0.42820 0.89880 0.07100
H 	H 	0.19380 0.41730 0.90500 0.01000
C 	C 	0.27040 0.48160 0.96410 0.01700
C 	C 	0.29950 0.48200 0.96550 -0.06500
H 	H 	0.30980 0.46950 0.94230 0.05200
C 	C 	0.36230 0.47070 0.98200 -0.26700
H 	H 	0.35240 0.45050 0.96930 0.10900
C 	C 	0.39090 0.47030 0.98210 0.19800
H 	H 	0.40040 0.44960 0.96990 -0.07300
C 	C 	0.20650 0.40730 0.81630 0.37200
O 	O 	0.21130 0.37100 0.68500 -0.63600
O 	O 	0.24680 0.33460 0.66300 -0.48300
O 	O 	0.15790 0.56680 0.32720 -0.49800
O 	O 	0.17810 0.54580 0.26280 -0.45700
O 	O 	0.15220 0.17570 0.27680 -0.52100
O 	O 	0.19940 0.17280 0.26800 -0.69700
O 	O 	0.22090 0.39970 0.77730 -0.57000
O 	O 	0.18060 0.40110 0.82020 -0.48800
O 	O 	0.45330 0.52800 0.01690 -0.66000
Ce	Ce	0.66935 0.88478 0.73585 2.07100
C 	C 	0.69280 0.86000 0.45830 0.02000
C 	C 	0.69230 0.82800 0.43220 -0.09500
H 	H 	0.69680 0.80540 0.44640 0.05400
C 	C 	0.68490 0.82850 0.38450 0.00400
C 	C 	0.67760 0.86240 0.36370 -0.09500
H 	H 	0.67250 0.86320 0.33230 0.05100
C 	C 	0.67800 0.89500 0.39010 0.02100
C 	C 	0.68590 0.89350 0.43600 -0.10200
H 	H 	0.68670 0.91560 0.45300 0.06600
C 	C 	0.70110 0.85920 0.50770 0.05600
C 	C 	0.72410 0.83720 0.52310 -0.14000
H 	H 	0.73450 0.82290 0.50170 0.07100
C 	C 	0.73190 0.83630 0.57070 0.07600
H 	H 	0.74750 0.82180 0.58030 0.01200
C 	C 	0.71670 0.85640 0.60280 -0.18700
C 	C 	0.69490 0.87890 0.58880 0.07100
H 	H 	0.68560 0.89400 0.61060 -0.01600
C 	C 	0.68600 0.88000 0.54200 -0.14200
H 	H 	0.67010 0.89440 0.53350 0.06100
C 	C 	0.68320 0.79210 0.35730 0.09700
C 	C 	0.70480 0.76690 0.36090 -0.18400
H 	H 	0.72090 0.77150 0.37950 0.08500
C 	C 	0.70220 0.73330 0.33580 0.10100
H 	H 	0.71680 0.71560 0.33880 -0.01600
C 	C 	0.67910 0.72560 0.30700 -0.23000
C 	C 	0.65780 0.75130 0.30460 0.12400
H 	H 	0.64130 0.74650 0.28680 -0.03000
C 	C 	0.66030 0.78510 0.32840 -0.19300
H 	H 	0.64600 0.80320 0.32450 0.07800
C 	C 	0.67270 0.93230 0.36700 0.05800
C 	C 	0.68430 0.93850 0.32320 -0.12500
H 	H 	0.69390 0.91920 0.30800 0.06700
C 	C 	0.68190 0.97360 0.30040 0.04100
H 	H 	0.68950 0.97720 0.27060 0.02500
C 	C 	0.66820 0.00230 0.32370 -0.13600
C 	C 	0.65580 0.99480 0.36750 0.05300
H 	H 	0.64550 0.01340 0.38290 0.00800
C 	C 	0.65870 0.96030 0.38800 -0.14100
H 	H 	0.65070 0.95630 0.41740 0.07300
C 	C 	0.72480 0.85380 0.65270 0.39500
C 	C 	0.67860 0.68920 0.28140 0.44900
C 	C 	0.66850 0.04040 0.30360 0.32200
C 	C 	0.72360 0.92630 0.85390 -0.14800
C 	C 	0.75020 0.94150 0.84610 0.07200
H 	H 	0.75840 0.93960 0.81650 0.01200
C 	C 	0.76580 0.96010 0.88160 -0.14000
H 	H 	0.78380 0.97080 0.87560 0.08500
C 	C 	0.75350 0.96190 0.92530 0.07400
C 	C 	0.72660 0.94620 0.93330 -0.14100
H 	H 	0.71840 0.94800 0.96290 0.07500
C 	C 	0.71170 0.92820 0.89880 0.07100
H 	H 	0.69380 0.91730 0.90500 0.01000
C 	C 	0.77040 0.98160 0.96410 0.01900
C 	C 	0.79950 0.98200 0.96550 -0.06400
H 	H 	0.80980 0.96950 0.94230 0.05200
C 	C 	0.86230 0.97070 0.98200 -0.26400
H 	H 	0.85240 0.95050 0.96930 0.10800
C 	C 	0.89090 0.97030 0.98210 0.19800
H 	H 	0.90040 0.94960 0.96990 -0.07300
C 	C 	0.70650 0.90730 0.81630 0.37200
O 	O 	0.71130 0.87100 0.68500 -0.63600
O 	O 	0.74680 0.83460 0.66300 -0.48300
O 	O 	0.65790 0.06680 0.32720 -0.49900
O 	O 	0.67810 0.04580 0.26280 -0.45900
O 	O 	0.65220 0.67570 0.27680 -0.52100
O 	O 	0.69940 0.67280 0.26800 -0.69700
O 	O 	0.72090 0.89970 0.77730 -0.57000
O 	O 	0.68060 0.90110 0.82020 -0.48800
O 	O 	0.95330 0.02800 0.01690 -0.65800
Ce	Ce	0.83065 0.11522 0.23585 2.07100
C 	C 	0.80720 0.14000 0.95830 0.03200
C 	C 	0.80770 0.17200 0.93220 -0.10200
H 	H 	0.80320 0.19460 0.94640 0.05700
C 	C 	0.81510 0.17150 0.88450 0.00900
C 	C 	0.82240 0.13760 0.86370 -0.10200
H 	H 	0.82750 0.13680 0.83230 0.05400
C 	C 	0.82200 0.10500 0.89010 0.03100
C 	C 	0.81410 0.10650 0.93600 -0.11200
H 	H 	0.81330 0.08440 0.95300 0.07100
C 	C 	0.79890 0.14080 0.00770 0.04500
C 	C 	0.77590 0.16280 0.02310 -0.13400
H 	H 	0.76550 0.17710 0.00170 0.06700
C 	C 	0.76810 0.16370 0.07070 0.07100
H 	H 	0.75250 0.17820 0.08030 0.01300
C 	C 	0.78330 0.14360 0.10280 -0.18300
C 	C 	0.80510 0.12110 0.08880 0.06600
H 	H 	0.81440 0.10600 0.11060 -0.01500
C 	C 	0.81400 0.12000 0.04200 -0.13600
H 	H 	0.82990 0.10560 0.03350 0.05800
C 	C 	0.81680 0.20790 0.85730 0.09400
C 	C 	0.79520 0.23310 0.86090 -0.18200
H 	H 	0.77910 0.22850 0.87950 0.08400
C 	C 	0.79780 0.26670 0.83580 0.10000
H 	H 	0.78320 0.28440 0.83880 -0.01500
C 	C 	0.82090 0.27440 0.80700 -0.22900
C 	C 	0.84220 0.24870 0.80460 0.12200
H 	H 	0.85870 0.25350 0.78680 -0.02800
C 	C 	0.83970 0.21490 0.82840 -0.19000
H 	H 	0.85400 0.19680 0.82450 0.07700
C 	C 	0.82730 0.06770 0.86700 0.04300
C 	C 	0.81570 0.06150 0.82320 -0.11000
H 	H 	0.80610 0.08080 0.80800 0.06200
C 	C 	0.81810 0.02640 0.80040 0.02200
H 	H 	0.81050 0.02280 0.77060 0.03100
C 	C 	0.83180 0.99770 0.82370 -0.11500
C 	C 	0.84420 0.00520 0.86750 0.02600
H 	H 	0.85450 0.98660 0.88290 0.01900
C 	C 	0.84130 0.03970 0.88800 -0.12100
H 	H 	0.84930 0.04370 0.91740 0.06700
C 	C 	0.77520 0.14620 0.15270 0.39300
C 	C 	0.82140 0.31080 0.78140 0.44900
C 	C 	0.83150 0.95960 0.80360 0.31500
C 	C 	0.77640 0.07370 0.35390 -0.14800
C 	C 	0.74980 0.05850 0.34610 0.07300
H 	H 	0.74160 0.06040 0.31650 0.01100
C 	C 	0.73420 0.03990 0.38160 -0.14100
H 	H 	0.71620 0.02920 0.37560 0.08500
C 	C 	0.74650 0.03810 0.42530 0.07500
C 	C 	0.77340 0.05380 0.43330 -0.14200
H 	H 	0.78160 0.05200 0.46290 0.07300
C 	C 	0.78830 0.07180 0.39880 0.07100
H 	H 	0.80620 0.08270 0.40500 0.00900
C 	C 	0.72960 0.01840 0.46410 0.01400
C 	C 	0.70050 0.01800 0.46550 -0.06900
H 	H 	0.69020 0.03050 0.44230 0.05300
C 	C 	0.63770 0.02930 0.48200 -0.27100
H 	H 	0.64760 0.04950 0.46930 0.10900
C 	C 	0.60910 0.02970 0.48210 0.19500
H 	H 	0.59960 0.05040 0.46990 -0.07300
C 	C 	0.79350 0.09270 0.31630 0.37200
O 	O 	0.78870 0.12900 0.18500 -0.63500
O 	O 	0.75320 0.16540 0.16300 -0.48300
O 	O 	0.84210 0.93320 0.82720 -0.49600
O 	O 	0.82190 0.95420 0.76280 -0.45600
O 	O 	0.84780 0.32430 0.77680 -0.52000
O 	O 	0.80060 0.32720 0.76800 -0.69700
O 	O 	0.77910 0.10030 0.27730 -0.57100
O 	O 	0.81940 0.09890 0.32020 -0.48800
O 	O 	0.54670 0.97200 0.51690 -0.65800
Ce	Ce	0.33065 0.61522 0.23585 2.07100
C 	C 	0.30720 0.64000 0.95830 0.03000
C 	C 	0.30770 0.67200 0.93220 -0.10100
H 	H 	0.30320 0.69460 0.94640 0.05700
C 	C 	0.31510 0.67150 0.88450 0.00800
C 	C 	0.32240 0.63760 0.86370 -0.10000
H 	H 	0.32750 0.63680 0.83230 0.05300
C 	C 	0.32200 0.60500 0.89010 0.02800
C 	C 	0.31410 0.60650 0.93600 -0.10900
H 	H 	0.31330 0.58440 0.95300 0.07000
C 	C 	0.29890 0.64080 0.00770 0.04600
C 	C 	0.27590 0.66280 0.02310 -0.13400
H 	H 	0.26550 0.67710 0.00170 0.06700
C 	C 	0.26810 0.66370 0.07070 0.07100
H 	H 	0.25250 0.67820 0.08030 0.01300
C 	C 	0.28330 0.64360 0.10280 -0.18400
C 	C 	0.30510 0.62110 0.08880 0.06600
H 	H 	0.31440 0.60600 0.11060 -0.01500
C 	C 	0.31400 0.62000 0.04200 -0.13700
H 	H 	0.32990 0.60560 0.03350 0.05800
C 	C 	0.31680 0.70790 0.85730 0.09500
C 	C 	0.29520 0.73310 0.86090 -0.18300
H 	H 	0.27910 0.72850 0.87950 0.08500
C 	C 	0.29780 0.76670 0.83580 0.10000
H 	H 	0.28320 0.78440 0.83880 -0.01500
C 	C 	0.32090 0.77440 0.80700 -0.22900
C 	C 	0.34220 0.74870 0.80460 0.12300
H 	H 	0.35870 0.75350 0.78680 -0.02900
C 	C 	0.33970 0.71490 0.82840 -0.19100
H 	H 	0.35400 0.69680 0.82450 0.07700
C 	C 	0.32730 0.56770 0.86700 0.05000
C 	C 	0.31570 0.56150 0.82320 -0.11700
H 	H 	0.30610 0.58080 0.80800 0.06500
C 	C 	0.31810 0.52640 0.80040 0.03100
H 	H 	0.31050 0.52280 0.77060 0.02800
C 	C 	0.33180 0.49770 0.82370 -0.12500
C 	C 	0.34420 0.50520 0.86750 0.03900
H 	H 	0.35450 0.48660 0.88290 0.01400
C 	C 	0.34130 0.53970 0.88800 -0.13000
H 	H 	0.34930 0.54370 0.91740 0.07000
C 	C 	0.27520 0.64620 0.15270 0.39300
C 	C 	0.32140 0.81080 0.78140 0.44900
C 	C 	0.33150 0.45960 0.80360 0.31800
C 	C 	0.27640 0.57370 0.35390 -0.14900
C 	C 	0.24980 0.55850 0.34610 0.07300
H 	H 	0.24160 0.56040 0.31650 0.01100
C 	C 	0.23420 0.53990 0.38160 -0.14100
H 	H 	0.21620 0.52920 0.37560 0.08500
C 	C 	0.24650 0.53810 0.42530 0.07500
C 	C 	0.27340 0.55380 0.43330 -0.14300
H 	H 	0.28160 0.55200 0.46290 0.07400
C 	C 	0.28830 0.57180 0.39880 0.07100
H 	H 	0.30620 0.58270 0.40500 0.00900
C 	C 	0.22960 0.51840 0.46410 0.01300
C 	C 	0.20050 0.51800 0.46550 -0.06900
H 	H 	0.19020 0.53050 0.44230 0.05300
C 	C 	0.13770 0.52930 0.48200 -0.27100
H 	H 	0.14760 0.54950 0.46930 0.11000
C 	C 	0.10910 0.52970 0.48210 0.19500
H 	H 	0.09960 0.55040 0.46990 -0.07300
C 	C 	0.29350 0.59270 0.31630 0.37200
O 	O 	0.28870 0.62900 0.18500 -0.63500
O 	O 	0.25320 0.66540 0.16300 -0.48300
O 	O 	0.34210 0.43320 0.82720 -0.49700
O 	O 	0.32190 0.45420 0.76280 -0.45700
O 	O 	0.34780 0.82430 0.77680 -0.52000
O 	O 	0.30060 0.82720 0.76800 -0.69700
O 	O 	0.27910 0.60030 0.27730 -0.57000
O 	O 	0.31940 0.59890 0.32020 -0.48800
O 	O 	0.04670 0.47200 0.51690 -0.66000
Ce	Ce	0.25000 0.15403 0.25000 2.12300
Ce	Ce	0.75000 0.34597 0.75000 2.12300
Ce	Ce	0.75000 0.65403 0.25000 2.12300
Ce	Ce	0.25000 0.84597 0.75000 2.12300
Ce	Ce	0.75000 0.84597 0.75000 2.12300
Ce	Ce	0.25000 0.65403 0.25000 2.12300
Ce	Ce	0.25000 0.34597 0.75000 2.12300
Ce	Ce	0.75000 0.15403 0.25000 2.12300
Ce	Ce	0.50000 0.94490 0.52940 1.96700
O 	O 	0.50000 0.01730 0.56000 -0.53800
Ce	Ce	0.00000 0.44490 0.52940 1.96600
O 	O 	0.00000 0.51730 0.56000 -0.53800
Ce	Ce	0.50000 0.55510 0.02940 1.96600
O 	O 	0.50000 0.48270 0.06000 -0.53800
Ce	Ce	-0.00000 0.05510 0.02940 1.96500
O 	O 	0.00000 0.98270 0.06000 -0.53800
Ce	Ce	0.50000 0.44490 0.97060 1.96800
O 	O 	0.50000 0.51730 0.94000 -0.53500
Ce	Ce	-0.00000 0.94490 0.97060 1.96700
O 	O 	-0.00000 0.01730 0.94000 -0.53700
Ce	Ce	0.50000 0.05510 0.47060 1.96700
O 	O 	0.50000 0.98270 0.44000 -0.53600
Ce	Ce	0.00000 0.55510 0.47060 1.96600
O 	O 	-0.00000 0.48270 0.44000 -0.53800
C 	C 	0.25520 0.00000 0.50000 -0.08500
H 	H 	0.23500 0.00000 0.50000 0.05300
C 	C 	0.31470 0.00000 0.50000 -0.02500
C 	C 	0.34660 0.00000 0.50000 0.15400
C 	C 	0.40750 0.00000 0.50000 -0.29400
C 	C 	0.44060 0.00000 0.50000 0.51200
C 	C 	0.75520 0.50000 0.50000 -0.08300
H 	H 	0.73500 0.50000 0.50000 0.05300
C 	C 	0.81470 0.50000 0.50000 -0.02300
C 	C 	0.84660 0.50000 0.50000 0.15600
C 	C 	0.90750 0.50000 0.50000 -0.29200
C 	C 	0.94060 0.50000 0.50000 0.51300
C 	C 	0.74480 0.50000 -0.00000 -0.08800
H 	H 	0.76500 0.50000 -0.00000 0.05400
C 	C 	0.68530 0.50000 -0.00000 -0.02700
C 	C 	0.65340 0.50000 -0.00000 0.15200
C 	C 	0.59250 0.50000 -0.00000 -0.29500
C 	C 	0.55940 0.50000 -0.00000 0.50900
C 	C 	0.24480 0.00000 -0.00000 -0.09000
H 	H 	0.26500 0.00000 -0.00000 0.05400
C 	C 	0.18530 0.00000 -0.00000 -0.02800
C 	C 	0.15340 0.00000 -0.00000 0.15000
C 	C 	0.09250 0.00000 -0.00000 -0.29700
C 	C 	0.05940 0.00000 -0.00000 0.50800
C 	C 	0.74480 0.00000 0.50000 -0.08500
H 	H 	0.76500 0.00000 0.50000 0.05300
C 	C 	0.68530 0.00000 0.50000 -0.02500
C 	C 	0.65340 0.00000 0.50000 0.15400
C 	C 	0.59250 0.00000 0.50000 -0.29400
C 	C 	0.55940 0.00000 0.50000 0.51200
C 	C 	0.24480 0.50000 0.50000 -0.08200
H 	H 	0.26500 0.50000 0.50000 0.05300
C 	C 	0.18530 0.50000 0.50000 -0.02400
C 	C 	0.15340 0.50000 0.50000 0.15600
C 	C 	0.09250 0.50000 0.50000 -0.29300
C 	C 	0.05940 0.50000 0.50000 0.51400
C 	C 	0.25520 0.50000 -0.00000 -0.08800
H 	H 	0.23500 0.50000 -0.00000 0.05300
C 	C 	0.31470 0.50000 -0.00000 -0.02700
C 	C 	0.34660 0.50000 -0.00000 0.15200
C 	C 	0.40750 0.50000 -0.00000 -0.29500
C 	C 	0.44060 0.50000 -0.00000 0.50900
C 	C 	0.75520 0.00000 -0.00000 -0.09100
H 	H 	0.73500 0.00000 -0.00000 0.05400
C 	C 	0.81470 0.00000 -0.00000 -0.02800
C 	C 	0.84660 0.00000 -0.00000 0.15000
C 	C 	0.90750 0.00000 -0.00000 -0.29600
C 	C 	0.94060 0.00000 -0.00000 0.50700
