data_crystal

_cell_length_a 29.53500
_cell_length_b 29.53500
_cell_length_c 28.09930
_cell_angle_alpha 90.00000
_cell_angle_beta  90.00000
_cell_angle_gamma 90.00000

_symmetry_space_group_name_	'P 1'
_symmetry_space_group_name_H-M	'P 1'

loop_
_symmetry_equiv_pos_as_xyz
  x,y,z

loop_
_atom_site_label
_atom_site_type_symbol
_atom_site_fract_x
_atom_site_fract_y
_atom_site_fract_z
_atom_site_charge
Cu	Cu	0.18787 0.17381 0.23479 0.92000
Cu	Cu	0.14191 0.13118 0.30200 0.90800
O 	O 	0.05526 0.27762 0.45106 -0.40300
O 	O 	0.05786 0.35295 0.45023 -0.39700
O 	O 	0.16710 0.38760 0.31531 -0.22200
O 	O 	0.14765 0.59743 0.33124 -0.21500
O 	O 	0.16025 0.75945 0.27475 -0.39100
O 	O 	0.12392 0.79853 0.33049 -0.40000
O 	O 	0.03704 0.71846 0.45182 -0.39200
O 	O 	0.03425 0.64225 0.45114 -0.39300
O 	O 	0.13764 0.19155 0.33072 -0.39600
O 	O 	0.17642 0.22765 0.27359 -0.38800
O 	O 	0.19194 0.11285 0.20822 -0.39800
O 	O 	0.15257 0.07714 0.26454 -0.39700
O 	O 	0.14536 0.91134 0.26446 -0.40000
O 	O 	0.18166 0.87289 0.20780 -0.40000
O 	O 	0.25220 0.99211 0.10450 -0.20700
C 	C 	0.11346 0.27225 0.37334 -0.02300
H 	H 	0.10130 0.24490 0.38570 0.06600
C 	C 	0.16800 0.90870 0.22630 0.34200
C 	C 	0.14312 0.27056 0.33453 -0.03600
C 	C 	0.16045 0.31065 0.31710 -0.11800
H 	H 	0.18120 0.30990 0.29130 0.09900
C 	C 	0.14810 0.35225 0.33660 0.18500
C 	C 	0.11926 0.35314 0.37560 -0.12600
H 	H 	0.11130 0.38110 0.39000 0.08800
C 	C 	0.10186 0.31237 0.39359 -0.03300
C 	C 	0.15440 0.42870 0.33040 -0.03400
H 	H 	0.16670 0.43410 0.36270 0.05100
H 	H 	0.12100 0.43020 0.33220 0.04500
C 	C 	0.17220 0.46568 0.29580 0.14100
C 	C 	0.19490 0.45520 0.25750 -0.18200
H 	H 	0.19870 0.42420 0.24930 0.11800
C 	C 	0.21380 0.48830 0.22830 0.11000
H 	H 	0.23290 0.48000 0.20250 0.00300
C 	C 	0.20470 0.53270 0.23740 -0.18500
H 	H 	0.21570 0.55560 0.21670 0.10100
C 	C 	0.17950 0.54440 0.27640 0.14500
C 	C 	0.16430 0.51080 0.30510 -0.19200
H 	H 	0.14750 0.51860 0.33270 0.10800
C 	C 	0.17190 0.59450 0.28810 -0.06900
H 	H 	0.20140 0.61020 0.29130 0.06200
H 	H 	0.15460 0.60930 0.26220 0.06300
C 	C 	0.13260 0.63895 0.34390 0.17700
C 	C 	0.14518 0.67879 0.32220 -0.12200
H 	H 	0.16630 0.67860 0.29670 0.08800
C 	C 	0.12663 0.71928 0.33800 -0.04300
C 	C 	0.09641 0.71961 0.37490 -0.01900
H 	H 	0.08390 0.74750 0.38530 0.06400
C 	C 	0.08389 0.67998 0.39710 -0.03400
C 	C 	0.10150 0.63830 0.38100 -0.11300
H 	H 	0.09230 0.61050 0.39520 0.09000
C 	C 	0.15355 0.22712 0.31220 0.32500
C 	C 	0.06989 0.31423 0.43440 0.33300
C 	C 	0.13825 0.76136 0.31320 0.32800
C 	C 	0.04977 0.67970 0.43568 0.31900
C 	C 	0.18610 0.03310 0.20320 -0.03100
C 	C 	0.21310 0.03130 0.16330 -0.11400
H 	H 	0.22340 0.05860 0.14900 0.09500
C 	C 	0.22510 0.99040 0.14430 0.17200
C 	C 	0.20860 0.95040 0.16370 -0.11600
H 	H 	0.21630 0.92210 0.14990 0.08800
C 	C 	0.18100 0.95190 0.20320 -0.03500
C 	C 	0.17010 0.99279 0.22320 -0.02000
H 	H 	0.15150 0.99380 0.25080 0.06600
C 	C 	0.27080 0.95350 0.08760 -0.06600
H 	H 	0.24690 0.93070 0.08120 0.05300
H 	H 	0.29230 0.94070 0.11110 0.06300
C 	C 	0.29610 0.96620 0.04050 0.18500
C 	C 	0.34080 0.96820 0.04260 -0.21700
H 	H 	0.35680 0.96760 0.07200 0.10300
C 	C 	0.17640 0.07764 0.22670 0.33400
C 	C 	0.23190 0.17300 0.14090 0.03600
H 	H 	0.22590 0.14180 0.14610 0.03400
C 	C 	0.25130 0.18700 0.09830 -0.08500
H 	H 	0.25850 0.16540 0.07440 0.05800
C 	C 	0.26010 0.23270 0.09070 0.01900
H 	H 	0.27340 0.24230 0.06150 0.02000
C 	C 	0.24960 0.26430 0.12560 -0.09100
H 	H 	0.25560 0.29550 0.12040 0.06900
C 	C 	0.23020 0.25020 0.16820 0.05100
H 	H 	0.22300 0.27180 0.19200 0.03000
N 	N 	0.22134 0.20460 0.17580 -0.17600
Cu	Cu	0.81213 0.82619 0.23479 0.91900
Cu	Cu	0.85809 0.86882 0.30200 0.90700
O 	O 	0.94474 0.72238 0.45106 -0.40400
O 	O 	0.94214 0.64705 0.45023 -0.39800
O 	O 	0.83290 0.61240 0.31531 -0.22300
O 	O 	0.85235 0.40257 0.33124 -0.21600
O 	O 	0.83975 0.24055 0.27475 -0.39200
O 	O 	0.87608 0.20147 0.33049 -0.40100
O 	O 	0.96296 0.28154 0.45182 -0.39300
O 	O 	0.96575 0.35775 0.45114 -0.39400
O 	O 	0.86236 0.80845 0.33072 -0.39700
O 	O 	0.82358 0.77235 0.27359 -0.38900
O 	O 	0.80806 0.88715 0.20822 -0.39900
O 	O 	0.84743 0.92286 0.26454 -0.39800
O 	O 	0.85464 0.08866 0.26446 -0.40100
O 	O 	0.81834 0.12711 0.20780 -0.40100
O 	O 	0.74780 0.00789 0.10450 -0.20800
C 	C 	0.88654 0.72775 0.37334 -0.02400
H 	H 	0.89870 0.75510 0.38570 0.06500
C 	C 	0.83200 0.09130 0.22630 0.34100
C 	C 	0.85688 0.72944 0.33453 -0.03700
C 	C 	0.83955 0.68935 0.31710 -0.11900
H 	H 	0.81880 0.69010 0.29130 0.09800
C 	C 	0.85190 0.64775 0.33660 0.18400
C 	C 	0.88074 0.64686 0.37560 -0.12600
H 	H 	0.88870 0.61890 0.39000 0.08800
C 	C 	0.89814 0.68763 0.39359 -0.03300
C 	C 	0.84560 0.57130 0.33040 -0.03400
H 	H 	0.83330 0.56590 0.36270 0.05100
H 	H 	0.87900 0.56980 0.33220 0.04500
C 	C 	0.82780 0.53432 0.29580 0.14100
C 	C 	0.80510 0.54480 0.25750 -0.18200
H 	H 	0.80130 0.57580 0.24930 0.11800
C 	C 	0.78620 0.51170 0.22830 0.11000
H 	H 	0.76710 0.52000 0.20250 0.00300
C 	C 	0.79530 0.46730 0.23740 -0.18500
H 	H 	0.78430 0.44440 0.21670 0.10100
C 	C 	0.82050 0.45560 0.27640 0.14500
C 	C 	0.83570 0.48920 0.30510 -0.19200
H 	H 	0.85250 0.48140 0.33270 0.10800
C 	C 	0.82810 0.40550 0.28810 -0.06900
H 	H 	0.79860 0.38980 0.29130 0.06200
H 	H 	0.84540 0.39070 0.26220 0.06300
C 	C 	0.86740 0.36105 0.34390 0.17700
C 	C 	0.85482 0.32121 0.32220 -0.12200
H 	H 	0.83370 0.32140 0.29670 0.08800
C 	C 	0.87337 0.28072 0.33800 -0.04300
C 	C 	0.90359 0.28039 0.37490 -0.01900
H 	H 	0.91610 0.25250 0.38530 0.06400
C 	C 	0.91611 0.32002 0.39710 -0.03400
C 	C 	0.89850 0.36170 0.38100 -0.11300
H 	H 	0.90770 0.38950 0.39520 0.09000
C 	C 	0.84645 0.77288 0.31220 0.32500
C 	C 	0.93011 0.68577 0.43440 0.33300
C 	C 	0.86175 0.23864 0.31320 0.32800
C 	C 	0.95023 0.32030 0.43568 0.31900
C 	C 	0.81390 0.96690 0.20320 -0.03100
C 	C 	0.78690 0.96870 0.16330 -0.11400
H 	H 	0.77660 0.94140 0.14900 0.09500
C 	C 	0.77490 0.00960 0.14430 0.17200
C 	C 	0.79140 0.04960 0.16370 -0.11600
H 	H 	0.78370 0.07790 0.14990 0.08800
C 	C 	0.81900 0.04810 0.20320 -0.03500
C 	C 	0.82990 0.00721 0.22320 -0.02000
H 	H 	0.84850 0.00620 0.25080 0.06600
C 	C 	0.72920 0.04650 0.08760 -0.06600
H 	H 	0.75310 0.06930 0.08120 0.05300
H 	H 	0.70770 0.05930 0.11110 0.06300
C 	C 	0.70390 0.03380 0.04050 0.18500
C 	C 	0.65920 0.03180 0.04260 -0.21700
H 	H 	0.64320 0.03240 0.07200 0.10300
C 	C 	0.82360 0.92236 0.22670 0.33400
C 	C 	0.76810 0.82700 0.14090 0.03600
H 	H 	0.77410 0.85820 0.14610 0.03400
C 	C 	0.74870 0.81300 0.09830 -0.08500
H 	H 	0.74150 0.83460 0.07440 0.05800
C 	C 	0.73990 0.76730 0.09070 0.01900
H 	H 	0.72660 0.75770 0.06150 0.02000
C 	C 	0.75040 0.73570 0.12560 -0.09100
H 	H 	0.74440 0.70450 0.12040 0.06900
C 	C 	0.76980 0.74980 0.16820 0.05100
H 	H 	0.77700 0.72820 0.19200 0.03000
N 	N 	0.77866 0.79540 0.17580 -0.17600
Cu	Cu	0.82619 0.18787 0.23479 0.91900
Cu	Cu	0.86882 0.14191 0.30200 0.90700
O 	O 	0.72238 0.05526 0.45106 -0.40400
O 	O 	0.64705 0.05786 0.45023 -0.39800
O 	O 	0.61240 0.16710 0.31531 -0.22300
O 	O 	0.40257 0.14765 0.33124 -0.21600
O 	O 	0.24055 0.16025 0.27475 -0.39200
O 	O 	0.20147 0.12392 0.33049 -0.40100
O 	O 	0.28154 0.03704 0.45182 -0.39300
O 	O 	0.35775 0.03425 0.45114 -0.39400
O 	O 	0.80845 0.13764 0.33072 -0.39700
O 	O 	0.77235 0.17642 0.27359 -0.38900
O 	O 	0.88715 0.19194 0.20822 -0.39900
O 	O 	0.92286 0.15257 0.26454 -0.39800
O 	O 	0.08866 0.14536 0.26446 -0.40100
O 	O 	0.12711 0.18166 0.20780 -0.40100
O 	O 	0.00789 0.25220 0.10450 -0.20800
C 	C 	0.72775 0.11346 0.37334 -0.02400
H 	H 	0.75510 0.10130 0.38570 0.06500
C 	C 	0.09130 0.16800 0.22630 0.34100
C 	C 	0.72944 0.14312 0.33453 -0.03700
C 	C 	0.68935 0.16045 0.31710 -0.11900
H 	H 	0.69010 0.18120 0.29130 0.09800
C 	C 	0.64775 0.14810 0.33660 0.18400
C 	C 	0.64686 0.11926 0.37560 -0.12600
H 	H 	0.61890 0.11130 0.39000 0.08800
C 	C 	0.68763 0.10186 0.39359 -0.03300
C 	C 	0.57130 0.15440 0.33040 -0.03400
H 	H 	0.56590 0.16670 0.36270 0.05100
H 	H 	0.56980 0.12100 0.33220 0.04500
C 	C 	0.53432 0.17220 0.29580 0.14100
C 	C 	0.54480 0.19490 0.25750 -0.18200
H 	H 	0.57580 0.19870 0.24930 0.11800
C 	C 	0.51170 0.21380 0.22830 0.11000
H 	H 	0.52000 0.23290 0.20250 0.00300
C 	C 	0.46730 0.20470 0.23740 -0.18500
H 	H 	0.44440 0.21570 0.21670 0.10100
C 	C 	0.45560 0.17950 0.27640 0.14500
C 	C 	0.48920 0.16430 0.30510 -0.19200
H 	H 	0.48140 0.14750 0.33270 0.10800
C 	C 	0.40550 0.17190 0.28810 -0.06900
H 	H 	0.38980 0.20140 0.29130 0.06200
H 	H 	0.39070 0.15460 0.26220 0.06300
C 	C 	0.36105 0.13260 0.34390 0.17700
C 	C 	0.32121 0.14518 0.32220 -0.12200
H 	H 	0.32140 0.16630 0.29670 0.08800
C 	C 	0.28072 0.12663 0.33800 -0.04300
C 	C 	0.28039 0.09641 0.37490 -0.01900
H 	H 	0.25250 0.08390 0.38530 0.06400
C 	C 	0.32002 0.08389 0.39710 -0.03400
C 	C 	0.36170 0.10150 0.38100 -0.11300
H 	H 	0.38950 0.09230 0.39520 0.09000
C 	C 	0.77288 0.15355 0.31220 0.32500
C 	C 	0.68577 0.06989 0.43440 0.33300
C 	C 	0.23864 0.13825 0.31320 0.32800
C 	C 	0.32030 0.04977 0.43568 0.31900
C 	C 	0.96690 0.18610 0.20320 -0.03100
C 	C 	0.96870 0.21310 0.16330 -0.11400
H 	H 	0.94140 0.22340 0.14900 0.09500
C 	C 	0.00960 0.22510 0.14430 0.17200
C 	C 	0.04960 0.20860 0.16370 -0.11600
H 	H 	0.07790 0.21630 0.14990 0.08800
C 	C 	0.04810 0.18100 0.20320 -0.03500
C 	C 	0.00721 0.17010 0.22320 -0.02000
H 	H 	0.00620 0.15150 0.25080 0.06600
C 	C 	0.04650 0.27080 0.08760 -0.06600
H 	H 	0.06930 0.24690 0.08120 0.05300
H 	H 	0.05930 0.29230 0.11110 0.06300
C 	C 	0.03380 0.29610 0.04050 0.18500
C 	C 	0.03180 0.34080 0.04260 -0.21700
H 	H 	0.03240 0.35680 0.07200 0.10300
C 	C 	0.92236 0.17640 0.22670 0.33400
C 	C 	0.82700 0.23190 0.14090 0.03600
H 	H 	0.85820 0.22590 0.14610 0.03400
C 	C 	0.81300 0.25130 0.09830 -0.08500
H 	H 	0.83460 0.25850 0.07440 0.05800
C 	C 	0.76730 0.26010 0.09070 0.01900
H 	H 	0.75770 0.27340 0.06150 0.02000
C 	C 	0.73570 0.24960 0.12560 -0.09100
H 	H 	0.70450 0.25560 0.12040 0.06900
C 	C 	0.74980 0.23020 0.16820 0.05100
H 	H 	0.72820 0.22300 0.19200 0.03000
N 	N 	0.79540 0.22134 0.17580 -0.17600
Cu	Cu	0.17381 0.81213 0.23479 0.91900
Cu	Cu	0.13118 0.85809 0.30200 0.90700
O 	O 	0.27762 0.94474 0.45106 -0.40400
O 	O 	0.35295 0.94214 0.45023 -0.39800
O 	O 	0.38760 0.83290 0.31531 -0.22300
O 	O 	0.59743 0.85235 0.33124 -0.21600
O 	O 	0.75945 0.83975 0.27475 -0.39200
O 	O 	0.79853 0.87608 0.33049 -0.40100
O 	O 	0.71846 0.96296 0.45182 -0.39300
O 	O 	0.64225 0.96575 0.45114 -0.39400
O 	O 	0.19155 0.86236 0.33072 -0.39700
O 	O 	0.22765 0.82358 0.27359 -0.38900
O 	O 	0.11285 0.80806 0.20822 -0.39900
O 	O 	0.07714 0.84743 0.26454 -0.39800
O 	O 	0.91134 0.85464 0.26446 -0.40100
O 	O 	0.87289 0.81834 0.20780 -0.40100
O 	O 	0.99211 0.74780 0.10450 -0.20800
C 	C 	0.27225 0.88654 0.37334 -0.02400
H 	H 	0.24490 0.89870 0.38570 0.06500
C 	C 	0.90870 0.83200 0.22630 0.34100
C 	C 	0.27056 0.85688 0.33453 -0.03700
C 	C 	0.31065 0.83955 0.31710 -0.11900
H 	H 	0.30990 0.81880 0.29130 0.09800
C 	C 	0.35225 0.85190 0.33660 0.18400
C 	C 	0.35314 0.88074 0.37560 -0.12600
H 	H 	0.38110 0.88870 0.39000 0.08800
C 	C 	0.31237 0.89814 0.39359 -0.03300
C 	C 	0.42870 0.84560 0.33040 -0.03400
H 	H 	0.43410 0.83330 0.36270 0.05100
H 	H 	0.43020 0.87900 0.33220 0.04500
C 	C 	0.46568 0.82780 0.29580 0.14100
C 	C 	0.45520 0.80510 0.25750 -0.18200
H 	H 	0.42420 0.80130 0.24930 0.11800
C 	C 	0.48830 0.78620 0.22830 0.11000
H 	H 	0.48000 0.76710 0.20250 0.00300
C 	C 	0.53270 0.79530 0.23740 -0.18500
H 	H 	0.55560 0.78430 0.21670 0.10100
C 	C 	0.54440 0.82050 0.27640 0.14500
C 	C 	0.51080 0.83570 0.30510 -0.19200
H 	H 	0.51860 0.85250 0.33270 0.10800
C 	C 	0.59450 0.82810 0.28810 -0.06900
H 	H 	0.61020 0.79860 0.29130 0.06200
H 	H 	0.60930 0.84540 0.26220 0.06300
C 	C 	0.63895 0.86740 0.34390 0.17700
C 	C 	0.67879 0.85482 0.32220 -0.12200
H 	H 	0.67860 0.83370 0.29670 0.08800
C 	C 	0.71928 0.87337 0.33800 -0.04300
C 	C 	0.71961 0.90359 0.37490 -0.01900
H 	H 	0.74750 0.91610 0.38530 0.06400
C 	C 	0.67998 0.91611 0.39710 -0.03400
C 	C 	0.63830 0.89850 0.38100 -0.11300
H 	H 	0.61050 0.90770 0.39520 0.09000
C 	C 	0.22712 0.84645 0.31220 0.32500
C 	C 	0.31423 0.93011 0.43440 0.33300
C 	C 	0.76136 0.86175 0.31320 0.32800
C 	C 	0.67970 0.95023 0.43568 0.31900
C 	C 	0.03310 0.81390 0.20320 -0.03100
C 	C 	0.03130 0.78690 0.16330 -0.11400
H 	H 	0.05860 0.77660 0.14900 0.09500
C 	C 	0.99040 0.77490 0.14430 0.17200
C 	C 	0.95040 0.79140 0.16370 -0.11600
H 	H 	0.92210 0.78370 0.14990 0.08800
C 	C 	0.95190 0.81900 0.20320 -0.03500
C 	C 	0.99279 0.82990 0.22320 -0.02000
H 	H 	0.99380 0.84850 0.25080 0.06600
C 	C 	0.95350 0.72920 0.08760 -0.06600
H 	H 	0.93070 0.75310 0.08120 0.05300
H 	H 	0.94070 0.70770 0.11110 0.06300
C 	C 	0.96620 0.70390 0.04050 0.18500
C 	C 	0.96820 0.65920 0.04260 -0.21700
H 	H 	0.96760 0.64320 0.07200 0.10300
C 	C 	0.07764 0.82360 0.22670 0.33400
C 	C 	0.17300 0.76810 0.14090 0.03600
H 	H 	0.14180 0.77410 0.14610 0.03400
C 	C 	0.18700 0.74870 0.09830 -0.08500
H 	H 	0.16540 0.74150 0.07440 0.05800
C 	C 	0.23270 0.73990 0.09070 0.01900
H 	H 	0.24230 0.72660 0.06150 0.02000
C 	C 	0.26430 0.75040 0.12560 -0.09100
H 	H 	0.29550 0.74440 0.12040 0.06900
C 	C 	0.25020 0.76980 0.16820 0.05100
H 	H 	0.27180 0.77700 0.19200 0.03000
N 	N 	0.20460 0.77866 0.17580 -0.17600
Cu	Cu	0.81213 0.82619 0.76521 0.92000
Cu	Cu	0.85809 0.86882 0.69800 0.90700
O 	O 	0.94474 0.72238 0.54894 -0.40400
O 	O 	0.94214 0.64705 0.54977 -0.39800
O 	O 	0.83290 0.61240 0.68469 -0.22300
O 	O 	0.85235 0.40257 0.66876 -0.21600
O 	O 	0.83975 0.24055 0.72525 -0.39300
O 	O 	0.87608 0.20147 0.66951 -0.40100
O 	O 	0.96296 0.28154 0.54818 -0.39300
O 	O 	0.96575 0.35775 0.54886 -0.39400
O 	O 	0.86236 0.80845 0.66928 -0.39700
O 	O 	0.82358 0.77235 0.72641 -0.38900
O 	O 	0.80806 0.88715 0.79178 -0.39800
O 	O 	0.84743 0.92286 0.73546 -0.39700
O 	O 	0.85464 0.08866 0.73554 -0.40100
O 	O 	0.81834 0.12711 0.79220 -0.39800
O 	O 	0.74780 0.00789 0.89550 -0.19600
C 	C 	0.88654 0.72775 0.62666 -0.02400
H 	H 	0.89870 0.75510 0.61430 0.06500
C 	C 	0.83200 0.09130 0.77370 0.34100
C 	C 	0.85688 0.72944 0.66547 -0.03700
C 	C 	0.83955 0.68935 0.68290 -0.11900
H 	H 	0.81880 0.69010 0.70870 0.09800
C 	C 	0.85190 0.64775 0.66340 0.18400
C 	C 	0.88074 0.64686 0.62440 -0.12600
H 	H 	0.88870 0.61890 0.61000 0.08800
C 	C 	0.89814 0.68763 0.60641 -0.03300
C 	C 	0.84560 0.57130 0.66960 -0.03400
H 	H 	0.83330 0.56590 0.63730 0.05100
H 	H 	0.87900 0.56980 0.66780 0.04500
C 	C 	0.82780 0.53432 0.70420 0.14100
C 	C 	0.80510 0.54480 0.74250 -0.18100
H 	H 	0.80130 0.57580 0.75070 0.11700
C 	C 	0.78620 0.51170 0.77170 0.10900
H 	H 	0.76710 0.52000 0.79750 0.00400
C 	C 	0.79530 0.46730 0.76260 -0.18400
H 	H 	0.78430 0.44440 0.78330 0.10100
C 	C 	0.82050 0.45560 0.72360 0.14500
C 	C 	0.83570 0.48920 0.69490 -0.19200
H 	H 	0.85250 0.48140 0.66730 0.10800
C 	C 	0.82810 0.40550 0.71190 -0.06800
H 	H 	0.79860 0.38980 0.70870 0.06200
H 	H 	0.84540 0.39070 0.73780 0.06300
C 	C 	0.86740 0.36105 0.65610 0.17700
C 	C 	0.85482 0.32121 0.67780 -0.12200
H 	H 	0.83370 0.32140 0.70330 0.08700
C 	C 	0.87337 0.28072 0.66200 -0.04400
C 	C 	0.90359 0.28039 0.62510 -0.01900
H 	H 	0.91610 0.25250 0.61470 0.06400
C 	C 	0.91611 0.32002 0.60290 -0.03400
C 	C 	0.89850 0.36170 0.61900 -0.11300
H 	H 	0.90770 0.38950 0.60480 0.09000
C 	C 	0.84645 0.77288 0.68780 0.32400
C 	C 	0.93011 0.68577 0.56560 0.33300
C 	C 	0.86175 0.23864 0.68680 0.32800
C 	C 	0.95023 0.32030 0.56432 0.31900
C 	C 	0.81390 0.96690 0.79680 -0.02900
C 	C 	0.78690 0.96870 0.83670 -0.11100
H 	H 	0.77660 0.94140 0.85100 0.09800
C 	C 	0.77490 0.00960 0.85570 0.17300
C 	C 	0.79140 0.04960 0.83630 -0.11400
H 	H 	0.78370 0.07790 0.85010 0.09100
C 	C 	0.81900 0.04810 0.79680 -0.03300
C 	C 	0.82990 0.00721 0.77680 -0.01900
H 	H 	0.84850 0.00620 0.74920 0.06700
C 	C 	0.72920 0.04650 0.91240 -0.08100
H 	H 	0.75310 0.06930 0.91880 0.07000
H 	H 	0.70770 0.05930 0.88890 0.06900
C 	C 	0.70390 0.03380 0.95950 0.22400
C 	C 	0.65920 0.03180 0.95740 -0.18000
H 	H 	0.64320 0.03240 0.92800 0.10000
C 	C 	0.82360 0.92236 0.77330 0.33500
C 	C 	0.76810 0.82700 0.85910 0.04000
H 	H 	0.77410 0.85820 0.85390 0.03600
C 	C 	0.74870 0.81300 0.90170 -0.08100
H 	H 	0.74150 0.83460 0.92560 0.07200
C 	C 	0.73990 0.76730 0.90930 0.02200
H 	H 	0.72660 0.75770 0.93850 0.03800
C 	C 	0.75040 0.73570 0.87440 -0.08700
H 	H 	0.74440 0.70450 0.87960 0.07400
C 	C 	0.76980 0.74980 0.83180 0.05200
H 	H 	0.77700 0.72820 0.80800 0.03000
N 	N 	0.77866 0.79540 0.82420 -0.17500
Cu	Cu	0.18787 0.17381 0.76521 0.92000
Cu	Cu	0.14191 0.13118 0.69800 0.90700
O 	O 	0.05526 0.27762 0.54894 -0.40400
O 	O 	0.05786 0.35295 0.54977 -0.39800
O 	O 	0.16710 0.38760 0.68469 -0.22300
O 	O 	0.14765 0.59743 0.66876 -0.21600
O 	O 	0.16025 0.75945 0.72525 -0.39300
O 	O 	0.12392 0.79853 0.66951 -0.40100
O 	O 	0.03704 0.71846 0.54818 -0.39300
O 	O 	0.03425 0.64225 0.54886 -0.39400
O 	O 	0.13764 0.19155 0.66928 -0.39700
O 	O 	0.17642 0.22765 0.72641 -0.38900
O 	O 	0.19194 0.11285 0.79178 -0.39800
O 	O 	0.15257 0.07714 0.73546 -0.39700
O 	O 	0.14536 0.91134 0.73554 -0.40100
O 	O 	0.18166 0.87289 0.79220 -0.39800
O 	O 	0.25220 0.99211 0.89550 -0.19600
C 	C 	0.11346 0.27225 0.62666 -0.02400
H 	H 	0.10130 0.24490 0.61430 0.06500
C 	C 	0.16800 0.90870 0.77370 0.34100
C 	C 	0.14312 0.27056 0.66547 -0.03700
C 	C 	0.16045 0.31065 0.68290 -0.11900
H 	H 	0.18120 0.30990 0.70870 0.09800
C 	C 	0.14810 0.35225 0.66340 0.18400
C 	C 	0.11926 0.35314 0.62440 -0.12600
H 	H 	0.11130 0.38110 0.61000 0.08800
C 	C 	0.10186 0.31237 0.60641 -0.03300
C 	C 	0.15440 0.42870 0.66960 -0.03400
H 	H 	0.16670 0.43410 0.63730 0.05100
H 	H 	0.12100 0.43020 0.66780 0.04500
C 	C 	0.17220 0.46568 0.70420 0.14100
C 	C 	0.19490 0.45520 0.74250 -0.18100
H 	H 	0.19870 0.42420 0.75070 0.11700
C 	C 	0.21380 0.48830 0.77170 0.10900
H 	H 	0.23290 0.48000 0.79750 0.00400
C 	C 	0.20470 0.53270 0.76260 -0.18400
H 	H 	0.21570 0.55560 0.78330 0.10100
C 	C 	0.17950 0.54440 0.72360 0.14500
C 	C 	0.16430 0.51080 0.69490 -0.19200
H 	H 	0.14750 0.51860 0.66730 0.10800
C 	C 	0.17190 0.59450 0.71190 -0.06800
H 	H 	0.20140 0.61020 0.70870 0.06200
H 	H 	0.15460 0.60930 0.73780 0.06300
C 	C 	0.13260 0.63895 0.65610 0.17700
C 	C 	0.14518 0.67879 0.67780 -0.12200
H 	H 	0.16630 0.67860 0.70330 0.08700
C 	C 	0.12663 0.71928 0.66200 -0.04400
C 	C 	0.09641 0.71961 0.62510 -0.01900
H 	H 	0.08390 0.74750 0.61470 0.06400
C 	C 	0.08389 0.67998 0.60290 -0.03400
C 	C 	0.10150 0.63830 0.61900 -0.11300
H 	H 	0.09230 0.61050 0.60480 0.09000
C 	C 	0.15355 0.22712 0.68780 0.32400
C 	C 	0.06989 0.31423 0.56560 0.33300
C 	C 	0.13825 0.76136 0.68680 0.32800
C 	C 	0.04977 0.67970 0.56432 0.31900
C 	C 	0.18610 0.03310 0.79680 -0.02900
C 	C 	0.21310 0.03130 0.83670 -0.11100
H 	H 	0.22340 0.05860 0.85100 0.09800
C 	C 	0.22510 0.99040 0.85570 0.17300
C 	C 	0.20860 0.95040 0.83630 -0.11400
H 	H 	0.21630 0.92210 0.85010 0.09100
C 	C 	0.18100 0.95190 0.79680 -0.03300
C 	C 	0.17010 0.99279 0.77680 -0.01900
H 	H 	0.15150 0.99380 0.74920 0.06700
C 	C 	0.27080 0.95350 0.91240 -0.08100
H 	H 	0.24690 0.93070 0.91880 0.07000
H 	H 	0.29230 0.94070 0.88890 0.06900
C 	C 	0.29610 0.96620 0.95950 0.22400
C 	C 	0.34080 0.96820 0.95740 -0.18000
H 	H 	0.35680 0.96760 0.92800 0.10000
C 	C 	0.17640 0.07764 0.77330 0.33500
C 	C 	0.23190 0.17300 0.85910 0.04000
H 	H 	0.22590 0.14180 0.85390 0.03600
C 	C 	0.25130 0.18700 0.90170 -0.08100
H 	H 	0.25850 0.16540 0.92560 0.07200
C 	C 	0.26010 0.23270 0.90930 0.02200
H 	H 	0.27340 0.24230 0.93850 0.03800
C 	C 	0.24960 0.26430 0.87440 -0.08700
H 	H 	0.25560 0.29550 0.87960 0.07400
C 	C 	0.23020 0.25020 0.83180 0.05200
H 	H 	0.22300 0.27180 0.80800 0.03000
N 	N 	0.22134 0.20460 0.82420 -0.17500
Cu	Cu	0.17381 0.81213 0.76521 0.92000
Cu	Cu	0.13118 0.85809 0.69800 0.90700
O 	O 	0.27762 0.94474 0.54894 -0.40400
O 	O 	0.35295 0.94214 0.54977 -0.39800
O 	O 	0.38760 0.83290 0.68469 -0.22300
O 	O 	0.59743 0.85235 0.66876 -0.21600
O 	O 	0.75945 0.83975 0.72525 -0.39300
O 	O 	0.79853 0.87608 0.66951 -0.40100
O 	O 	0.71846 0.96296 0.54818 -0.39300
O 	O 	0.64225 0.96575 0.54886 -0.39400
O 	O 	0.19155 0.86236 0.66928 -0.39700
O 	O 	0.22765 0.82358 0.72641 -0.38900
O 	O 	0.11285 0.80806 0.79178 -0.39800
O 	O 	0.07714 0.84743 0.73546 -0.39700
O 	O 	0.91134 0.85464 0.73554 -0.40100
O 	O 	0.87289 0.81834 0.79220 -0.39800
O 	O 	0.99211 0.74780 0.89550 -0.19600
C 	C 	0.27225 0.88654 0.62666 -0.02400
H 	H 	0.24490 0.89870 0.61430 0.06500
C 	C 	0.90870 0.83200 0.77370 0.34100
C 	C 	0.27056 0.85688 0.66547 -0.03700
C 	C 	0.31065 0.83955 0.68290 -0.11900
H 	H 	0.30990 0.81880 0.70870 0.09800
C 	C 	0.35225 0.85190 0.66340 0.18400
C 	C 	0.35314 0.88074 0.62440 -0.12600
H 	H 	0.38110 0.88870 0.61000 0.08800
C 	C 	0.31237 0.89814 0.60641 -0.03300
C 	C 	0.42870 0.84560 0.66960 -0.03400
H 	H 	0.43410 0.83330 0.63730 0.05100
H 	H 	0.43020 0.87900 0.66780 0.04500
C 	C 	0.46568 0.82780 0.70420 0.14100
C 	C 	0.45520 0.80510 0.74250 -0.18100
H 	H 	0.42420 0.80130 0.75070 0.11700
C 	C 	0.48830 0.78620 0.77170 0.10900
H 	H 	0.48000 0.76710 0.79750 0.00400
C 	C 	0.53270 0.79530 0.76260 -0.18400
H 	H 	0.55560 0.78430 0.78330 0.10100
C 	C 	0.54440 0.82050 0.72360 0.14500
C 	C 	0.51080 0.83570 0.69490 -0.19200
H 	H 	0.51860 0.85250 0.66730 0.10800
C 	C 	0.59450 0.82810 0.71190 -0.06800
H 	H 	0.61020 0.79860 0.70870 0.06200
H 	H 	0.60930 0.84540 0.73780 0.06300
C 	C 	0.63895 0.86740 0.65610 0.17700
C 	C 	0.67879 0.85482 0.67780 -0.12200
H 	H 	0.67860 0.83370 0.70330 0.08700
C 	C 	0.71928 0.87337 0.66200 -0.04400
C 	C 	0.71961 0.90359 0.62510 -0.01900
H 	H 	0.74750 0.91610 0.61470 0.06400
C 	C 	0.67998 0.91611 0.60290 -0.03400
C 	C 	0.63830 0.89850 0.61900 -0.11300
H 	H 	0.61050 0.90770 0.60480 0.09000
C 	C 	0.22712 0.84645 0.68780 0.32400
C 	C 	0.31423 0.93011 0.56560 0.33300
C 	C 	0.76136 0.86175 0.68680 0.32800
C 	C 	0.67970 0.95023 0.56432 0.31900
C 	C 	0.03310 0.81390 0.79680 -0.02900
C 	C 	0.03130 0.78690 0.83670 -0.11100
H 	H 	0.05860 0.77660 0.85100 0.09800
C 	C 	0.99040 0.77490 0.85570 0.17300
C 	C 	0.95040 0.79140 0.83630 -0.11400
H 	H 	0.92210 0.78370 0.85010 0.09100
C 	C 	0.95190 0.81900 0.79680 -0.03300
C 	C 	0.99279 0.82990 0.77680 -0.01900
H 	H 	0.99380 0.84850 0.74920 0.06700
C 	C 	0.95350 0.72920 0.91240 -0.08100
H 	H 	0.93070 0.75310 0.91880 0.07000
H 	H 	0.94070 0.70770 0.88890 0.06900
C 	C 	0.96620 0.70390 0.95950 0.22400
C 	C 	0.96820 0.65920 0.95740 -0.18000
H 	H 	0.96760 0.64320 0.92800 0.10000
C 	C 	0.07764 0.82360 0.77330 0.33500
C 	C 	0.17300 0.76810 0.85910 0.04000
H 	H 	0.14180 0.77410 0.85390 0.03600
C 	C 	0.18700 0.74870 0.90170 -0.08100
H 	H 	0.16540 0.74150 0.92560 0.07200
C 	C 	0.23270 0.73990 0.90930 0.02200
H 	H 	0.24230 0.72660 0.93850 0.03800
C 	C 	0.26430 0.75040 0.87440 -0.08700
H 	H 	0.29550 0.74440 0.87960 0.07400
C 	C 	0.25020 0.76980 0.83180 0.05200
H 	H 	0.27180 0.77700 0.80800 0.03000
N 	N 	0.20460 0.77866 0.82420 -0.17500
Cu	Cu	0.82619 0.18787 0.76521 0.92000
Cu	Cu	0.86882 0.14191 0.69800 0.90700
O 	O 	0.72238 0.05526 0.54894 -0.40400
O 	O 	0.64705 0.05786 0.54977 -0.39800
O 	O 	0.61240 0.16710 0.68469 -0.22300
O 	O 	0.40257 0.14765 0.66876 -0.21600
O 	O 	0.24055 0.16025 0.72525 -0.39300
O 	O 	0.20147 0.12392 0.66951 -0.40100
O 	O 	0.28154 0.03704 0.54818 -0.39300
O 	O 	0.35775 0.03425 0.54886 -0.39400
O 	O 	0.80845 0.13764 0.66928 -0.39700
O 	O 	0.77235 0.17642 0.72641 -0.38900
O 	O 	0.88715 0.19194 0.79178 -0.39800
O 	O 	0.92286 0.15257 0.73546 -0.39700
O 	O 	0.08866 0.14536 0.73554 -0.40100
O 	O 	0.12711 0.18166 0.79220 -0.39800
O 	O 	0.00789 0.25220 0.89550 -0.19600
C 	C 	0.72775 0.11346 0.62666 -0.02400
H 	H 	0.75510 0.10130 0.61430 0.06500
C 	C 	0.09130 0.16800 0.77370 0.34100
C 	C 	0.72944 0.14312 0.66547 -0.03700
C 	C 	0.68935 0.16045 0.68290 -0.11900
H 	H 	0.69010 0.18120 0.70870 0.09800
C 	C 	0.64775 0.14810 0.66340 0.18400
C 	C 	0.64686 0.11926 0.62440 -0.12600
H 	H 	0.61890 0.11130 0.61000 0.08800
C 	C 	0.68763 0.10186 0.60641 -0.03300
C 	C 	0.57130 0.15440 0.66960 -0.03400
H 	H 	0.56590 0.16670 0.63730 0.05100
H 	H 	0.56980 0.12100 0.66780 0.04500
C 	C 	0.53432 0.17220 0.70420 0.14100
C 	C 	0.54480 0.19490 0.74250 -0.18100
H 	H 	0.57580 0.19870 0.75070 0.11700
C 	C 	0.51170 0.21380 0.77170 0.10900
H 	H 	0.52000 0.23290 0.79750 0.00400
C 	C 	0.46730 0.20470 0.76260 -0.18400
H 	H 	0.44440 0.21570 0.78330 0.10100
C 	C 	0.45560 0.17950 0.72360 0.14500
C 	C 	0.48920 0.16430 0.69490 -0.19200
H 	H 	0.48140 0.14750 0.66730 0.10800
C 	C 	0.40550 0.17190 0.71190 -0.06800
H 	H 	0.38980 0.20140 0.70870 0.06200
H 	H 	0.39070 0.15460 0.73780 0.06300
C 	C 	0.36105 0.13260 0.65610 0.17700
C 	C 	0.32121 0.14518 0.67780 -0.12200
H 	H 	0.32140 0.16630 0.70330 0.08700
C 	C 	0.28072 0.12663 0.66200 -0.04400
C 	C 	0.28039 0.09641 0.62510 -0.01900
H 	H 	0.25250 0.08390 0.61470 0.06400
C 	C 	0.32002 0.08389 0.60290 -0.03400
C 	C 	0.36170 0.10150 0.61900 -0.11300
H 	H 	0.38950 0.09230 0.60480 0.09000
C 	C 	0.77288 0.15355 0.68780 0.32400
C 	C 	0.68577 0.06989 0.56560 0.33300
C 	C 	0.23864 0.13825 0.68680 0.32800
C 	C 	0.32030 0.04977 0.56432 0.31900
C 	C 	0.96690 0.18610 0.79680 -0.02900
C 	C 	0.96870 0.21310 0.83670 -0.11100
H 	H 	0.94140 0.22340 0.85100 0.09800
C 	C 	0.00960 0.22510 0.85570 0.17300
C 	C 	0.04960 0.20860 0.83630 -0.11400
H 	H 	0.07790 0.21630 0.85010 0.09100
C 	C 	0.04810 0.18100 0.79680 -0.03300
C 	C 	0.00721 0.17010 0.77680 -0.01900
H 	H 	0.00620 0.15150 0.74920 0.06700
C 	C 	0.04650 0.27080 0.91240 -0.08100
H 	H 	0.06930 0.24690 0.91880 0.07000
H 	H 	0.05930 0.29230 0.88890 0.06900
C 	C 	0.03380 0.29610 0.95950 0.22400
C 	C 	0.03180 0.34080 0.95740 -0.18000
H 	H 	0.03240 0.35680 0.92800 0.10000
C 	C 	0.92236 0.17640 0.77330 0.33500
C 	C 	0.82700 0.23190 0.85910 0.04000
H 	H 	0.85820 0.22590 0.85390 0.03600
C 	C 	0.81300 0.25130 0.90170 -0.08100
H 	H 	0.83460 0.25850 0.92560 0.07200
C 	C 	0.76730 0.26010 0.90930 0.02200
H 	H 	0.75770 0.27340 0.93850 0.03800
C 	C 	0.73570 0.24960 0.87440 -0.08700
H 	H 	0.70450 0.25560 0.87960 0.07400
C 	C 	0.74980 0.23020 0.83180 0.05200
H 	H 	0.72820 0.22300 0.80800 0.03000
N 	N 	0.79540 0.22134 0.82420 -0.17500
Cu	Cu	0.01231 0.36176 0.50000 0.90300
Cu	Cu	0.00925 0.27316 0.50000 0.90700
Cu	Cu	0.98769 0.63824 0.50000 0.90300
Cu	Cu	0.99075 0.72684 0.50000 0.90700
Cu	Cu	0.63824 0.01231 0.50000 0.90300
Cu	Cu	0.72684 0.00925 0.50000 0.90700
Cu	Cu	0.36176 0.98769 0.50000 0.90300
Cu	Cu	0.27316 0.99075 0.50000 0.90700
C 	C 	0.36260 0.97140 -0.00000 0.08200
H 	H 	0.39440 0.97600 -0.00000 -0.01200
C 	C 	0.27140 0.96840 -0.00000 -0.30100
H 	H 	0.23930 0.97130 -0.00000 0.13300
C 	C 	0.63740 0.02860 -0.00000 0.08200
H 	H 	0.60560 0.02400 -0.00000 -0.01200
C 	C 	0.72860 0.03160 -0.00000 -0.30100
H 	H 	0.76070 0.02870 -0.00000 0.13300
C 	C 	0.02860 0.36260 -0.00000 0.08200
H 	H 	0.02400 0.39440 -0.00000 -0.01200
C 	C 	0.03160 0.27140 -0.00000 -0.30100
H 	H 	0.02870 0.23930 -0.00000 0.13300
C 	C 	0.97140 0.63740 -0.00000 0.08200
H 	H 	0.97600 0.60560 -0.00000 -0.01200
C 	C 	0.96840 0.72860 -0.00000 -0.30100
H 	H 	0.97130 0.76070 -0.00000 0.13300
Cu	Cu	0.68787 0.67381 0.73479 0.91900
Cu	Cu	0.64191 0.63118 0.80200 0.90800
O 	O 	0.55526 0.77762 0.95106 -0.38400
O 	O 	0.55786 0.85295 0.95023 -0.37800
O 	O 	0.66710 0.88760 0.81531 -0.22300
O 	O 	0.64765 0.09743 0.83124 -0.21600
O 	O 	0.66025 0.25945 0.77475 -0.39200
O 	O 	0.62392 0.29853 0.83049 -0.39800
O 	O 	0.53704 0.21846 0.95182 -0.37200
O 	O 	0.53425 0.14225 0.95114 -0.37400
O 	O 	0.63764 0.69155 0.83072 -0.39400
O 	O 	0.67642 0.72765 0.77359 -0.38800
O 	O 	0.69194 0.61285 0.70822 -0.39900
O 	O 	0.65257 0.57714 0.76454 -0.39600
O 	O 	0.64536 0.41134 0.76446 -0.40000
O 	O 	0.68166 0.37289 0.70780 -0.39900
O 	O 	0.75220 0.49211 0.60450 -0.20500
C 	C 	0.61346 0.77225 0.87334 -0.02800
H 	H 	0.60130 0.74490 0.88570 0.07000
C 	C 	0.66800 0.40870 0.72630 0.34000
C 	C 	0.64312 0.77056 0.83453 -0.03300
C 	C 	0.66045 0.81065 0.81710 -0.12200
H 	H 	0.68120 0.80990 0.79130 0.09900
C 	C 	0.64810 0.85225 0.83660 0.18700
C 	C 	0.61926 0.85314 0.87560 -0.12900
H 	H 	0.61130 0.88110 0.89000 0.09300
C 	C 	0.60186 0.81237 0.89359 -0.02500
C 	C 	0.65440 0.92870 0.83040 -0.03700
H 	H 	0.66670 0.93410 0.86270 0.05400
H 	H 	0.62100 0.93020 0.83220 0.04700
C 	C 	0.67220 0.96568 0.79580 0.14400
C 	C 	0.69490 0.95520 0.75750 -0.18400
H 	H 	0.69870 0.92420 0.74930 0.11800
C 	C 	0.71380 0.98830 0.72830 0.11100
H 	H 	0.73290 0.98000 0.70250 0.00300
C 	C 	0.70470 0.03270 0.73740 -0.18600
H 	H 	0.71570 0.05560 0.71670 0.10100
C 	C 	0.67950 0.04440 0.77640 0.14700
C 	C 	0.66430 0.01080 0.80510 -0.19400
H 	H 	0.64750 0.01860 0.83270 0.11100
C 	C 	0.67190 0.09450 0.78810 -0.07000
H 	H 	0.70140 0.11020 0.79130 0.06200
H 	H 	0.65460 0.10930 0.76220 0.06300
C 	C 	0.63260 0.13895 0.84390 0.18000
C 	C 	0.64518 0.17879 0.82220 -0.12400
H 	H 	0.66630 0.17860 0.79670 0.08800
C 	C 	0.62663 0.21928 0.83800 -0.03900
C 	C 	0.59641 0.21961 0.87490 -0.02300
H 	H 	0.58390 0.24750 0.88530 0.06800
C 	C 	0.58389 0.17998 0.89710 -0.02600
C 	C 	0.60150 0.13830 0.88100 -0.11600
H 	H 	0.59230 0.11050 0.89520 0.09600
C 	C 	0.65355 0.72712 0.81220 0.32300
C 	C 	0.56989 0.81423 0.93440 0.32900
C 	C 	0.63825 0.26136 0.81320 0.32700
C 	C 	0.54977 0.17970 0.93568 0.31500
C 	C 	0.68610 0.53310 0.70320 -0.02900
C 	C 	0.71310 0.53130 0.66330 -0.11400
H 	H 	0.72340 0.55860 0.64900 0.09600
C 	C 	0.72510 0.49040 0.64430 0.17400
C 	C 	0.70860 0.45040 0.66370 -0.11600
H 	H 	0.71630 0.42210 0.64990 0.09000
C 	C 	0.68100 0.45190 0.70320 -0.03300
C 	C 	0.67010 0.49279 0.72320 -0.02100
H 	H 	0.65150 0.49380 0.75080 0.06800
C 	C 	0.77080 0.45350 0.58760 -0.06700
H 	H 	0.74690 0.43070 0.58120 0.05700
H 	H 	0.79230 0.44070 0.61110 0.06500
C 	C 	0.79610 0.46620 0.54050 0.18900
C 	C 	0.84080 0.46820 0.54260 -0.24400
H 	H 	0.85680 0.46760 0.57200 0.11500
C 	C 	0.67640 0.57764 0.72670 0.33400
C 	C 	0.73190 0.67300 0.64090 0.03800
H 	H 	0.72590 0.64180 0.64610 0.03500
C 	C 	0.75130 0.68700 0.59830 -0.08300
H 	H 	0.75850 0.66540 0.57440 0.06500
C 	C 	0.76010 0.73270 0.59070 0.02000
H 	H 	0.77340 0.74230 0.56150 0.02900
C 	C 	0.74960 0.76430 0.62560 -0.08900
H 	H 	0.75560 0.79550 0.62040 0.07100
C 	C 	0.73020 0.75020 0.66820 0.05200
H 	H 	0.72300 0.77180 0.69200 0.03000
N 	N 	0.72134 0.70460 0.67580 -0.17600
Cu	Cu	0.31213 0.32619 0.73479 0.91900
Cu	Cu	0.35809 0.36882 0.80200 0.90800
O 	O 	0.44474 0.22238 0.95106 -0.38400
O 	O 	0.44214 0.14705 0.95023 -0.37800
O 	O 	0.33290 0.11240 0.81531 -0.22300
O 	O 	0.35235 0.90257 0.83124 -0.21600
O 	O 	0.33975 0.74055 0.77475 -0.39200
O 	O 	0.37608 0.70147 0.83049 -0.39800
O 	O 	0.46296 0.78154 0.95182 -0.37200
O 	O 	0.46575 0.85775 0.95114 -0.37400
O 	O 	0.36236 0.30845 0.83072 -0.39400
O 	O 	0.32358 0.27235 0.77359 -0.38800
O 	O 	0.30806 0.38715 0.70822 -0.39900
O 	O 	0.34743 0.42286 0.76454 -0.39600
O 	O 	0.35464 0.58866 0.76446 -0.40000
O 	O 	0.31834 0.62711 0.70780 -0.39900
O 	O 	0.24780 0.50789 0.60450 -0.20500
C 	C 	0.38654 0.22775 0.87334 -0.02800
H 	H 	0.39870 0.25510 0.88570 0.07000
C 	C 	0.33200 0.59130 0.72630 0.34000
C 	C 	0.35688 0.22944 0.83453 -0.03300
C 	C 	0.33955 0.18935 0.81710 -0.12200
H 	H 	0.31880 0.19010 0.79130 0.09900
C 	C 	0.35190 0.14775 0.83660 0.18700
C 	C 	0.38074 0.14686 0.87560 -0.12900
H 	H 	0.38870 0.11890 0.89000 0.09300
C 	C 	0.39814 0.18763 0.89359 -0.02500
C 	C 	0.34560 0.07130 0.83040 -0.03700
H 	H 	0.33330 0.06590 0.86270 0.05400
H 	H 	0.37900 0.06980 0.83220 0.04700
C 	C 	0.32780 0.03432 0.79580 0.14400
C 	C 	0.30510 0.04480 0.75750 -0.18400
H 	H 	0.30130 0.07580 0.74930 0.11800
C 	C 	0.28620 0.01170 0.72830 0.11100
H 	H 	0.26710 0.02000 0.70250 0.00300
C 	C 	0.29530 0.96730 0.73740 -0.18600
H 	H 	0.28430 0.94440 0.71670 0.10100
C 	C 	0.32050 0.95560 0.77640 0.14700
C 	C 	0.33570 0.98920 0.80510 -0.19400
H 	H 	0.35250 0.98140 0.83270 0.11100
C 	C 	0.32810 0.90550 0.78810 -0.07000
H 	H 	0.29860 0.88980 0.79130 0.06200
H 	H 	0.34540 0.89070 0.76220 0.06300
C 	C 	0.36740 0.86105 0.84390 0.18000
C 	C 	0.35482 0.82121 0.82220 -0.12400
H 	H 	0.33370 0.82140 0.79670 0.08800
C 	C 	0.37337 0.78072 0.83800 -0.03900
C 	C 	0.40359 0.78039 0.87490 -0.02300
H 	H 	0.41610 0.75250 0.88530 0.06800
C 	C 	0.41611 0.82002 0.89710 -0.02600
C 	C 	0.39850 0.86170 0.88100 -0.11600
H 	H 	0.40770 0.88950 0.89520 0.09600
C 	C 	0.34645 0.27288 0.81220 0.32300
C 	C 	0.43011 0.18577 0.93440 0.32900
C 	C 	0.36175 0.73864 0.81320 0.32700
C 	C 	0.45023 0.82030 0.93568 0.31500
C 	C 	0.31390 0.46690 0.70320 -0.02900
C 	C 	0.28690 0.46870 0.66330 -0.11400
H 	H 	0.27660 0.44140 0.64900 0.09600
C 	C 	0.27490 0.50960 0.64430 0.17400
C 	C 	0.29140 0.54960 0.66370 -0.11600
H 	H 	0.28370 0.57790 0.64990 0.09000
C 	C 	0.31900 0.54810 0.70320 -0.03300
C 	C 	0.32990 0.50721 0.72320 -0.02100
H 	H 	0.34850 0.50620 0.75080 0.06800
C 	C 	0.22920 0.54650 0.58760 -0.06700
H 	H 	0.25310 0.56930 0.58120 0.05700
H 	H 	0.20770 0.55930 0.61110 0.06500
C 	C 	0.20390 0.53380 0.54050 0.18900
C 	C 	0.15920 0.53180 0.54260 -0.24400
H 	H 	0.14320 0.53240 0.57200 0.11500
C 	C 	0.32360 0.42236 0.72670 0.33400
C 	C 	0.26810 0.32700 0.64090 0.03800
H 	H 	0.27410 0.35820 0.64610 0.03500
C 	C 	0.24870 0.31300 0.59830 -0.08300
H 	H 	0.24150 0.33460 0.57440 0.06500
C 	C 	0.23990 0.26730 0.59070 0.02000
H 	H 	0.22660 0.25770 0.56150 0.02900
C 	C 	0.25040 0.23570 0.62560 -0.08900
H 	H 	0.24440 0.20450 0.62040 0.07100
C 	C 	0.26980 0.24980 0.66820 0.05200
H 	H 	0.27700 0.22820 0.69200 0.03000
N 	N 	0.27866 0.29540 0.67580 -0.17600
Cu	Cu	0.32619 0.68787 0.73479 0.91900
Cu	Cu	0.36882 0.64191 0.80200 0.90800
O 	O 	0.22238 0.55526 0.95106 -0.38400
O 	O 	0.14705 0.55786 0.95023 -0.37800
O 	O 	0.11240 0.66710 0.81531 -0.22300
O 	O 	0.90257 0.64765 0.83124 -0.21600
O 	O 	0.74055 0.66025 0.77475 -0.39200
O 	O 	0.70147 0.62392 0.83049 -0.39800
O 	O 	0.78154 0.53704 0.95182 -0.37200
O 	O 	0.85775 0.53425 0.95114 -0.37400
O 	O 	0.30845 0.63764 0.83072 -0.39400
O 	O 	0.27235 0.67642 0.77359 -0.38800
O 	O 	0.38715 0.69194 0.70822 -0.39900
O 	O 	0.42286 0.65257 0.76454 -0.39600
O 	O 	0.58866 0.64536 0.76446 -0.40000
O 	O 	0.62711 0.68166 0.70780 -0.39900
O 	O 	0.50789 0.75220 0.60450 -0.20500
C 	C 	0.22775 0.61346 0.87334 -0.02800
H 	H 	0.25510 0.60130 0.88570 0.07000
C 	C 	0.59130 0.66800 0.72630 0.34000
C 	C 	0.22944 0.64312 0.83453 -0.03300
C 	C 	0.18935 0.66045 0.81710 -0.12200
H 	H 	0.19010 0.68120 0.79130 0.09900
C 	C 	0.14775 0.64810 0.83660 0.18700
C 	C 	0.14686 0.61926 0.87560 -0.12900
H 	H 	0.11890 0.61130 0.89000 0.09300
C 	C 	0.18763 0.60186 0.89359 -0.02500
C 	C 	0.07130 0.65440 0.83040 -0.03700
H 	H 	0.06590 0.66670 0.86270 0.05400
H 	H 	0.06980 0.62100 0.83220 0.04700
C 	C 	0.03432 0.67220 0.79580 0.14400
C 	C 	0.04480 0.69490 0.75750 -0.18400
H 	H 	0.07580 0.69870 0.74930 0.11800
C 	C 	0.01170 0.71380 0.72830 0.11100
H 	H 	0.02000 0.73290 0.70250 0.00300
C 	C 	0.96730 0.70470 0.73740 -0.18600
H 	H 	0.94440 0.71570 0.71670 0.10100
C 	C 	0.95560 0.67950 0.77640 0.14700
C 	C 	0.98920 0.66430 0.80510 -0.19400
H 	H 	0.98140 0.64750 0.83270 0.11100
C 	C 	0.90550 0.67190 0.78810 -0.07000
H 	H 	0.88980 0.70140 0.79130 0.06200
H 	H 	0.89070 0.65460 0.76220 0.06300
C 	C 	0.86105 0.63260 0.84390 0.18000
C 	C 	0.82121 0.64518 0.82220 -0.12400
H 	H 	0.82140 0.66630 0.79670 0.08800
C 	C 	0.78072 0.62663 0.83800 -0.03900
C 	C 	0.78039 0.59641 0.87490 -0.02300
H 	H 	0.75250 0.58390 0.88530 0.06800
C 	C 	0.82002 0.58389 0.89710 -0.02600
C 	C 	0.86170 0.60150 0.88100 -0.11600
H 	H 	0.88950 0.59230 0.89520 0.09600
C 	C 	0.27288 0.65355 0.81220 0.32300
C 	C 	0.18577 0.56989 0.93440 0.32900
C 	C 	0.73864 0.63825 0.81320 0.32700
C 	C 	0.82030 0.54977 0.93568 0.31500
C 	C 	0.46690 0.68610 0.70320 -0.02900
C 	C 	0.46870 0.71310 0.66330 -0.11400
H 	H 	0.44140 0.72340 0.64900 0.09600
C 	C 	0.50960 0.72510 0.64430 0.17400
C 	C 	0.54960 0.70860 0.66370 -0.11600
H 	H 	0.57790 0.71630 0.64990 0.09000
C 	C 	0.54810 0.68100 0.70320 -0.03300
C 	C 	0.50721 0.67010 0.72320 -0.02100
H 	H 	0.50620 0.65150 0.75080 0.06800
C 	C 	0.54650 0.77080 0.58760 -0.06700
H 	H 	0.56930 0.74690 0.58120 0.05700
H 	H 	0.55930 0.79230 0.61110 0.06500
C 	C 	0.53380 0.79610 0.54050 0.18900
C 	C 	0.53180 0.84080 0.54260 -0.24400
H 	H 	0.53240 0.85680 0.57200 0.11500
C 	C 	0.42236 0.67640 0.72670 0.33400
C 	C 	0.32700 0.73190 0.64090 0.03800
H 	H 	0.35820 0.72590 0.64610 0.03500
C 	C 	0.31300 0.75130 0.59830 -0.08300
H 	H 	0.33460 0.75850 0.57440 0.06500
C 	C 	0.26730 0.76010 0.59070 0.02000
H 	H 	0.25770 0.77340 0.56150 0.02900
C 	C 	0.23570 0.74960 0.62560 -0.08900
H 	H 	0.20450 0.75560 0.62040 0.07100
C 	C 	0.24980 0.73020 0.66820 0.05200
H 	H 	0.22820 0.72300 0.69200 0.03000
N 	N 	0.29540 0.72134 0.67580 -0.17600
Cu	Cu	0.67381 0.31213 0.73479 0.91900
Cu	Cu	0.63118 0.35809 0.80200 0.90800
O 	O 	0.77762 0.44474 0.95106 -0.38400
O 	O 	0.85295 0.44214 0.95023 -0.37800
O 	O 	0.88760 0.33290 0.81531 -0.22300
O 	O 	0.09743 0.35235 0.83124 -0.21600
O 	O 	0.25945 0.33975 0.77475 -0.39200
O 	O 	0.29853 0.37608 0.83049 -0.39800
O 	O 	0.21846 0.46296 0.95182 -0.37200
O 	O 	0.14225 0.46575 0.95114 -0.37400
O 	O 	0.69155 0.36236 0.83072 -0.39400
O 	O 	0.72765 0.32358 0.77359 -0.38800
O 	O 	0.61285 0.30806 0.70822 -0.39900
O 	O 	0.57714 0.34743 0.76454 -0.39600
O 	O 	0.41134 0.35464 0.76446 -0.40000
O 	O 	0.37289 0.31834 0.70780 -0.39900
O 	O 	0.49211 0.24780 0.60450 -0.20500
C 	C 	0.77225 0.38654 0.87334 -0.02800
H 	H 	0.74490 0.39870 0.88570 0.07000
C 	C 	0.40870 0.33200 0.72630 0.34000
C 	C 	0.77056 0.35688 0.83453 -0.03300
C 	C 	0.81065 0.33955 0.81710 -0.12200
H 	H 	0.80990 0.31880 0.79130 0.09900
C 	C 	0.85225 0.35190 0.83660 0.18700
C 	C 	0.85314 0.38074 0.87560 -0.12900
H 	H 	0.88110 0.38870 0.89000 0.09300
C 	C 	0.81237 0.39814 0.89359 -0.02500
C 	C 	0.92870 0.34560 0.83040 -0.03700
H 	H 	0.93410 0.33330 0.86270 0.05400
H 	H 	0.93020 0.37900 0.83220 0.04700
C 	C 	0.96568 0.32780 0.79580 0.14400
C 	C 	0.95520 0.30510 0.75750 -0.18400
H 	H 	0.92420 0.30130 0.74930 0.11800
C 	C 	0.98830 0.28620 0.72830 0.11100
H 	H 	0.98000 0.26710 0.70250 0.00300
C 	C 	0.03270 0.29530 0.73740 -0.18600
H 	H 	0.05560 0.28430 0.71670 0.10100
C 	C 	0.04440 0.32050 0.77640 0.14700
C 	C 	0.01080 0.33570 0.80510 -0.19400
H 	H 	0.01860 0.35250 0.83270 0.11100
C 	C 	0.09450 0.32810 0.78810 -0.07000
H 	H 	0.11020 0.29860 0.79130 0.06200
H 	H 	0.10930 0.34540 0.76220 0.06300
C 	C 	0.13895 0.36740 0.84390 0.18000
C 	C 	0.17879 0.35482 0.82220 -0.12400
H 	H 	0.17860 0.33370 0.79670 0.08800
C 	C 	0.21928 0.37337 0.83800 -0.03900
C 	C 	0.21961 0.40359 0.87490 -0.02300
H 	H 	0.24750 0.41610 0.88530 0.06800
C 	C 	0.17998 0.41611 0.89710 -0.02600
C 	C 	0.13830 0.39850 0.88100 -0.11600
H 	H 	0.11050 0.40770 0.89520 0.09600
C 	C 	0.72712 0.34645 0.81220 0.32300
C 	C 	0.81423 0.43011 0.93440 0.32900
C 	C 	0.26136 0.36175 0.81320 0.32700
C 	C 	0.17970 0.45023 0.93568 0.31500
C 	C 	0.53310 0.31390 0.70320 -0.02900
C 	C 	0.53130 0.28690 0.66330 -0.11400
H 	H 	0.55860 0.27660 0.64900 0.09600
C 	C 	0.49040 0.27490 0.64430 0.17400
C 	C 	0.45040 0.29140 0.66370 -0.11600
H 	H 	0.42210 0.28370 0.64990 0.09000
C 	C 	0.45190 0.31900 0.70320 -0.03300
C 	C 	0.49279 0.32990 0.72320 -0.02100
H 	H 	0.49380 0.34850 0.75080 0.06800
C 	C 	0.45350 0.22920 0.58760 -0.06700
H 	H 	0.43070 0.25310 0.58120 0.05700
H 	H 	0.44070 0.20770 0.61110 0.06500
C 	C 	0.46620 0.20390 0.54050 0.18900
C 	C 	0.46820 0.15920 0.54260 -0.24400
H 	H 	0.46760 0.14320 0.57200 0.11500
C 	C 	0.57764 0.32360 0.72670 0.33400
C 	C 	0.67300 0.26810 0.64090 0.03800
H 	H 	0.64180 0.27410 0.64610 0.03500
C 	C 	0.68700 0.24870 0.59830 -0.08300
H 	H 	0.66540 0.24150 0.57440 0.06500
C 	C 	0.73270 0.23990 0.59070 0.02000
H 	H 	0.74230 0.22660 0.56150 0.02900
C 	C 	0.76430 0.25040 0.62560 -0.08900
H 	H 	0.79550 0.24440 0.62040 0.07100
C 	C 	0.75020 0.26980 0.66820 0.05200
H 	H 	0.77180 0.27700 0.69200 0.03000
N 	N 	0.70460 0.27866 0.67580 -0.17600
Cu	Cu	0.31213 0.32619 0.26521 0.92000
Cu	Cu	0.35809 0.36882 0.19800 0.90600
O 	O 	0.44474 0.22238 0.04894 -0.41400
O 	O 	0.44214 0.14705 0.04977 -0.40700
O 	O 	0.33290 0.11240 0.18469 -0.22300
O 	O 	0.35235 0.90257 0.16876 -0.21600
O 	O 	0.33975 0.74055 0.22525 -0.39300
O 	O 	0.37608 0.70147 0.16951 -0.40400
O 	O 	0.46296 0.78154 0.04818 -0.40300
O 	O 	0.46575 0.85775 0.04886 -0.40300
O 	O 	0.36236 0.30845 0.16928 -0.40000
O 	O 	0.32358 0.27235 0.22641 -0.38900
O 	O 	0.30806 0.38715 0.29178 -0.39900
O 	O 	0.34743 0.42286 0.23546 -0.39900
O 	O 	0.35464 0.58866 0.23554 -0.40200
O 	O 	0.31834 0.62711 0.29220 -0.40000
O 	O 	0.24780 0.50789 0.39550 -0.20500
C 	C 	0.38654 0.22775 0.12666 -0.02200
H 	H 	0.39870 0.25510 0.11430 0.06100
C 	C 	0.33200 0.59130 0.27370 0.34100
C 	C 	0.35688 0.22944 0.16547 -0.04000
C 	C 	0.33955 0.18935 0.18290 -0.11800
H 	H 	0.31880 0.19010 0.20870 0.09800
C 	C 	0.35190 0.14775 0.16340 0.18200
C 	C 	0.38074 0.14686 0.12440 -0.12500
H 	H 	0.38870 0.11890 0.11000 0.08500
C 	C 	0.39814 0.18763 0.10641 -0.03900
C 	C 	0.34560 0.07130 0.16960 -0.03200
H 	H 	0.33330 0.06590 0.13730 0.04800
H 	H 	0.37900 0.06980 0.16780 0.04400
C 	C 	0.32780 0.03432 0.20420 0.14000
C 	C 	0.30510 0.04480 0.24250 -0.18000
H 	H 	0.30130 0.07580 0.25070 0.11700
C 	C 	0.28620 0.01170 0.27170 0.10900
H 	H 	0.26710 0.02000 0.29750 0.00400
C 	C 	0.29530 0.96730 0.26260 -0.18300
H 	H 	0.28430 0.94440 0.28330 0.10000
C 	C 	0.32050 0.95560 0.22360 0.14400
C 	C 	0.33570 0.98920 0.19490 -0.19100
H 	H 	0.35250 0.98140 0.16730 0.10800
C 	C 	0.32810 0.90550 0.21190 -0.06800
H 	H 	0.29860 0.88980 0.20870 0.06100
H 	H 	0.34540 0.89070 0.23780 0.06300
C 	C 	0.36740 0.86105 0.15610 0.17400
C 	C 	0.35482 0.82121 0.17780 -0.12100
H 	H 	0.33370 0.82140 0.20330 0.08700
C 	C 	0.37337 0.78072 0.16200 -0.04600
C 	C 	0.40359 0.78039 0.12510 -0.01800
H 	H 	0.41610 0.75250 0.11470 0.06000
C 	C 	0.41611 0.82002 0.10290 -0.04000
C 	C 	0.39850 0.86170 0.11900 -0.11200
H 	H 	0.40770 0.88950 0.10480 0.08800
C 	C 	0.34645 0.27288 0.18780 0.32600
C 	C 	0.43011 0.18577 0.06560 0.33400
C 	C 	0.36175 0.73864 0.18680 0.32900
C 	C 	0.45023 0.82030 0.06432 0.31900
C 	C 	0.31390 0.46690 0.29680 -0.03100
C 	C 	0.28690 0.46870 0.33670 -0.11300
H 	H 	0.27660 0.44140 0.35100 0.09600
C 	C 	0.27490 0.50960 0.35570 0.17300
C 	C 	0.29140 0.54960 0.33630 -0.11500
H 	H 	0.28370 0.57790 0.35010 0.08900
C 	C 	0.31900 0.54810 0.29680 -0.03400
C 	C 	0.32990 0.50721 0.27680 -0.01900
H 	H 	0.34850 0.50620 0.24920 0.06500
C 	C 	0.22920 0.54650 0.41240 -0.06700
H 	H 	0.25310 0.56930 0.41880 0.05800
H 	H 	0.20770 0.55930 0.38890 0.06500
C 	C 	0.20390 0.53380 0.45950 0.18900
C 	C 	0.15920 0.53180 0.45740 -0.24400
H 	H 	0.14320 0.53240 0.42800 0.11500
C 	C 	0.32360 0.42236 0.27330 0.33500
C 	C 	0.26810 0.32700 0.35910 0.03800
H 	H 	0.27410 0.35820 0.35390 0.03500
C 	C 	0.24870 0.31300 0.40170 -0.08300
H 	H 	0.24150 0.33460 0.42560 0.06500
C 	C 	0.23990 0.26730 0.40930 0.02000
H 	H 	0.22660 0.25770 0.43850 0.02900
C 	C 	0.25040 0.23570 0.37440 -0.08900
H 	H 	0.24440 0.20450 0.37960 0.07100
C 	C 	0.26980 0.24980 0.33180 0.05200
H 	H 	0.27700 0.22820 0.30800 0.03000
N 	N 	0.27866 0.29540 0.32420 -0.17600
Cu	Cu	0.68787 0.67381 0.26521 0.92000
Cu	Cu	0.64191 0.63118 0.19800 0.90600
O 	O 	0.55526 0.77762 0.04894 -0.41400
O 	O 	0.55786 0.85295 0.04977 -0.40700
O 	O 	0.66710 0.88760 0.18469 -0.22300
O 	O 	0.64765 0.09743 0.16876 -0.21600
O 	O 	0.66025 0.25945 0.22525 -0.39300
O 	O 	0.62392 0.29853 0.16951 -0.40400
O 	O 	0.53704 0.21846 0.04818 -0.40300
O 	O 	0.53425 0.14225 0.04886 -0.40300
O 	O 	0.63764 0.69155 0.16928 -0.40000
O 	O 	0.67642 0.72765 0.22641 -0.38900
O 	O 	0.69194 0.61285 0.29178 -0.39900
O 	O 	0.65257 0.57714 0.23546 -0.39900
O 	O 	0.64536 0.41134 0.23554 -0.40200
O 	O 	0.68166 0.37289 0.29220 -0.40000
O 	O 	0.75220 0.49211 0.39550 -0.20500
C 	C 	0.61346 0.77225 0.12666 -0.02200
H 	H 	0.60130 0.74490 0.11430 0.06100
C 	C 	0.66800 0.40870 0.27370 0.34100
C 	C 	0.64312 0.77056 0.16547 -0.04000
C 	C 	0.66045 0.81065 0.18290 -0.11800
H 	H 	0.68120 0.80990 0.20870 0.09800
C 	C 	0.64810 0.85225 0.16340 0.18200
C 	C 	0.61926 0.85314 0.12440 -0.12500
H 	H 	0.61130 0.88110 0.11000 0.08500
C 	C 	0.60186 0.81237 0.10641 -0.03900
C 	C 	0.65440 0.92870 0.16960 -0.03200
H 	H 	0.66670 0.93410 0.13730 0.04800
H 	H 	0.62100 0.93020 0.16780 0.04400
C 	C 	0.67220 0.96568 0.20420 0.14000
C 	C 	0.69490 0.95520 0.24250 -0.18000
H 	H 	0.69870 0.92420 0.25070 0.11700
C 	C 	0.71380 0.98830 0.27170 0.10900
H 	H 	0.73290 0.98000 0.29750 0.00400
C 	C 	0.70470 0.03270 0.26260 -0.18300
H 	H 	0.71570 0.05560 0.28330 0.10000
C 	C 	0.67950 0.04440 0.22360 0.14400
C 	C 	0.66430 0.01080 0.19490 -0.19100
H 	H 	0.64750 0.01860 0.16730 0.10800
C 	C 	0.67190 0.09450 0.21190 -0.06800
H 	H 	0.70140 0.11020 0.20870 0.06100
H 	H 	0.65460 0.10930 0.23780 0.06300
C 	C 	0.63260 0.13895 0.15610 0.17400
C 	C 	0.64518 0.17879 0.17780 -0.12100
H 	H 	0.66630 0.17860 0.20330 0.08700
C 	C 	0.62663 0.21928 0.16200 -0.04600
C 	C 	0.59641 0.21961 0.12510 -0.01800
H 	H 	0.58390 0.24750 0.11470 0.06000
C 	C 	0.58389 0.17998 0.10290 -0.04000
C 	C 	0.60150 0.13830 0.11900 -0.11200
H 	H 	0.59230 0.11050 0.10480 0.08800
C 	C 	0.65355 0.72712 0.18780 0.32600
C 	C 	0.56989 0.81423 0.06560 0.33400
C 	C 	0.63825 0.26136 0.18680 0.32900
C 	C 	0.54977 0.17970 0.06432 0.31900
C 	C 	0.68610 0.53310 0.29680 -0.03100
C 	C 	0.71310 0.53130 0.33670 -0.11300
H 	H 	0.72340 0.55860 0.35100 0.09600
C 	C 	0.72510 0.49040 0.35570 0.17300
C 	C 	0.70860 0.45040 0.33630 -0.11500
H 	H 	0.71630 0.42210 0.35010 0.08900
C 	C 	0.68100 0.45190 0.29680 -0.03400
C 	C 	0.67010 0.49279 0.27680 -0.01900
H 	H 	0.65150 0.49380 0.24920 0.06500
C 	C 	0.77080 0.45350 0.41240 -0.06700
H 	H 	0.74690 0.43070 0.41880 0.05800
H 	H 	0.79230 0.44070 0.38890 0.06500
C 	C 	0.79610 0.46620 0.45950 0.18900
C 	C 	0.84080 0.46820 0.45740 -0.24400
H 	H 	0.85680 0.46760 0.42800 0.11500
C 	C 	0.67640 0.57764 0.27330 0.33500
C 	C 	0.73190 0.67300 0.35910 0.03800
H 	H 	0.72590 0.64180 0.35390 0.03500
C 	C 	0.75130 0.68700 0.40170 -0.08300
H 	H 	0.75850 0.66540 0.42560 0.06500
C 	C 	0.76010 0.73270 0.40930 0.02000
H 	H 	0.77340 0.74230 0.43850 0.02900
C 	C 	0.74960 0.76430 0.37440 -0.08900
H 	H 	0.75560 0.79550 0.37960 0.07100
C 	C 	0.73020 0.75020 0.33180 0.05200
H 	H 	0.72300 0.77180 0.30800 0.03000
N 	N 	0.72134 0.70460 0.32420 -0.17600
Cu	Cu	0.67381 0.31213 0.26521 0.92000
Cu	Cu	0.63118 0.35809 0.19800 0.90600
O 	O 	0.77762 0.44474 0.04894 -0.41400
O 	O 	0.85295 0.44214 0.04977 -0.40700
O 	O 	0.88760 0.33290 0.18469 -0.22300
O 	O 	0.09743 0.35235 0.16876 -0.21600
O 	O 	0.25945 0.33975 0.22525 -0.39300
O 	O 	0.29853 0.37608 0.16951 -0.40400
O 	O 	0.21846 0.46296 0.04818 -0.40300
O 	O 	0.14225 0.46575 0.04886 -0.40300
O 	O 	0.69155 0.36236 0.16928 -0.40000
O 	O 	0.72765 0.32358 0.22641 -0.38900
O 	O 	0.61285 0.30806 0.29178 -0.39900
O 	O 	0.57714 0.34743 0.23546 -0.39900
O 	O 	0.41134 0.35464 0.23554 -0.40200
O 	O 	0.37289 0.31834 0.29220 -0.40000
O 	O 	0.49211 0.24780 0.39550 -0.20500
C 	C 	0.77225 0.38654 0.12666 -0.02200
H 	H 	0.74490 0.39870 0.11430 0.06100
C 	C 	0.40870 0.33200 0.27370 0.34100
C 	C 	0.77056 0.35688 0.16547 -0.04000
C 	C 	0.81065 0.33955 0.18290 -0.11800
H 	H 	0.80990 0.31880 0.20870 0.09800
C 	C 	0.85225 0.35190 0.16340 0.18200
C 	C 	0.85314 0.38074 0.12440 -0.12500
H 	H 	0.88110 0.38870 0.11000 0.08500
C 	C 	0.81237 0.39814 0.10641 -0.03900
C 	C 	0.92870 0.34560 0.16960 -0.03200
H 	H 	0.93410 0.33330 0.13730 0.04800
H 	H 	0.93020 0.37900 0.16780 0.04400
C 	C 	0.96568 0.32780 0.20420 0.14000
C 	C 	0.95520 0.30510 0.24250 -0.18000
H 	H 	0.92420 0.30130 0.25070 0.11700
C 	C 	0.98830 0.28620 0.27170 0.10900
H 	H 	0.98000 0.26710 0.29750 0.00400
C 	C 	0.03270 0.29530 0.26260 -0.18300
H 	H 	0.05560 0.28430 0.28330 0.10000
C 	C 	0.04440 0.32050 0.22360 0.14400
C 	C 	0.01080 0.33570 0.19490 -0.19100
H 	H 	0.01860 0.35250 0.16730 0.10800
C 	C 	0.09450 0.32810 0.21190 -0.06800
H 	H 	0.11020 0.29860 0.20870 0.06100
H 	H 	0.10930 0.34540 0.23780 0.06300
C 	C 	0.13895 0.36740 0.15610 0.17400
C 	C 	0.17879 0.35482 0.17780 -0.12100
H 	H 	0.17860 0.33370 0.20330 0.08700
C 	C 	0.21928 0.37337 0.16200 -0.04600
C 	C 	0.21961 0.40359 0.12510 -0.01800
H 	H 	0.24750 0.41610 0.11470 0.06000
C 	C 	0.17998 0.41611 0.10290 -0.04000
C 	C 	0.13830 0.39850 0.11900 -0.11200
H 	H 	0.11050 0.40770 0.10480 0.08800
C 	C 	0.72712 0.34645 0.18780 0.32600
C 	C 	0.81423 0.43011 0.06560 0.33400
C 	C 	0.26136 0.36175 0.18680 0.32900
C 	C 	0.17970 0.45023 0.06432 0.31900
C 	C 	0.53310 0.31390 0.29680 -0.03100
C 	C 	0.53130 0.28690 0.33670 -0.11300
H 	H 	0.55860 0.27660 0.35100 0.09600
C 	C 	0.49040 0.27490 0.35570 0.17300
C 	C 	0.45040 0.29140 0.33630 -0.11500
H 	H 	0.42210 0.28370 0.35010 0.08900
C 	C 	0.45190 0.31900 0.29680 -0.03400
C 	C 	0.49279 0.32990 0.27680 -0.01900
H 	H 	0.49380 0.34850 0.24920 0.06500
C 	C 	0.45350 0.22920 0.41240 -0.06700
H 	H 	0.43070 0.25310 0.41880 0.05800
H 	H 	0.44070 0.20770 0.38890 0.06500
C 	C 	0.46620 0.20390 0.45950 0.18900
C 	C 	0.46820 0.15920 0.45740 -0.24400
H 	H 	0.46760 0.14320 0.42800 0.11500
C 	C 	0.57764 0.32360 0.27330 0.33500
C 	C 	0.67300 0.26810 0.35910 0.03800
H 	H 	0.64180 0.27410 0.35390 0.03500
C 	C 	0.68700 0.24870 0.40170 -0.08300
H 	H 	0.66540 0.24150 0.42560 0.06500
C 	C 	0.73270 0.23990 0.40930 0.02000
H 	H 	0.74230 0.22660 0.43850 0.02900
C 	C 	0.76430 0.25040 0.37440 -0.08900
H 	H 	0.79550 0.24440 0.37960 0.07100
C 	C 	0.75020 0.26980 0.33180 0.05200
H 	H 	0.77180 0.27700 0.30800 0.03000
N 	N 	0.70460 0.27866 0.32420 -0.17600
Cu	Cu	0.32619 0.68787 0.26521 0.92000
Cu	Cu	0.36882 0.64191 0.19800 0.90600
O 	O 	0.22238 0.55526 0.04894 -0.41400
O 	O 	0.14705 0.55786 0.04977 -0.40700
O 	O 	0.11240 0.66710 0.18469 -0.22300
O 	O 	0.90257 0.64765 0.16876 -0.21600
O 	O 	0.74055 0.66025 0.22525 -0.39300
O 	O 	0.70147 0.62392 0.16951 -0.40400
O 	O 	0.78154 0.53704 0.04818 -0.40300
O 	O 	0.85775 0.53425 0.04886 -0.40300
O 	O 	0.30845 0.63764 0.16928 -0.40000
O 	O 	0.27235 0.67642 0.22641 -0.38900
O 	O 	0.38715 0.69194 0.29178 -0.39900
O 	O 	0.42286 0.65257 0.23546 -0.39900
O 	O 	0.58866 0.64536 0.23554 -0.40200
O 	O 	0.62711 0.68166 0.29220 -0.40000
O 	O 	0.50789 0.75220 0.39550 -0.20500
C 	C 	0.22775 0.61346 0.12666 -0.02200
H 	H 	0.25510 0.60130 0.11430 0.06100
C 	C 	0.59130 0.66800 0.27370 0.34100
C 	C 	0.22944 0.64312 0.16547 -0.04000
C 	C 	0.18935 0.66045 0.18290 -0.11800
H 	H 	0.19010 0.68120 0.20870 0.09800
C 	C 	0.14775 0.64810 0.16340 0.18200
C 	C 	0.14686 0.61926 0.12440 -0.12500
H 	H 	0.11890 0.61130 0.11000 0.08500
C 	C 	0.18763 0.60186 0.10641 -0.03900
C 	C 	0.07130 0.65440 0.16960 -0.03200
H 	H 	0.06590 0.66670 0.13730 0.04800
H 	H 	0.06980 0.62100 0.16780 0.04400
C 	C 	0.03432 0.67220 0.20420 0.14000
C 	C 	0.04480 0.69490 0.24250 -0.18000
H 	H 	0.07580 0.69870 0.25070 0.11700
C 	C 	0.01170 0.71380 0.27170 0.10900
H 	H 	0.02000 0.73290 0.29750 0.00400
C 	C 	0.96730 0.70470 0.26260 -0.18300
H 	H 	0.94440 0.71570 0.28330 0.10000
C 	C 	0.95560 0.67950 0.22360 0.14400
C 	C 	0.98920 0.66430 0.19490 -0.19100
H 	H 	0.98140 0.64750 0.16730 0.10800
C 	C 	0.90550 0.67190 0.21190 -0.06800
H 	H 	0.88980 0.70140 0.20870 0.06100
H 	H 	0.89070 0.65460 0.23780 0.06300
C 	C 	0.86105 0.63260 0.15610 0.17400
C 	C 	0.82121 0.64518 0.17780 -0.12100
H 	H 	0.82140 0.66630 0.20330 0.08700
C 	C 	0.78072 0.62663 0.16200 -0.04600
C 	C 	0.78039 0.59641 0.12510 -0.01800
H 	H 	0.75250 0.58390 0.11470 0.06000
C 	C 	0.82002 0.58389 0.10290 -0.04000
C 	C 	0.86170 0.60150 0.11900 -0.11200
H 	H 	0.88950 0.59230 0.10480 0.08800
C 	C 	0.27288 0.65355 0.18780 0.32600
C 	C 	0.18577 0.56989 0.06560 0.33400
C 	C 	0.73864 0.63825 0.18680 0.32900
C 	C 	0.82030 0.54977 0.06432 0.31900
C 	C 	0.46690 0.68610 0.29680 -0.03100
C 	C 	0.46870 0.71310 0.33670 -0.11300
H 	H 	0.44140 0.72340 0.35100 0.09600
C 	C 	0.50960 0.72510 0.35570 0.17300
C 	C 	0.54960 0.70860 0.33630 -0.11500
H 	H 	0.57790 0.71630 0.35010 0.08900
C 	C 	0.54810 0.68100 0.29680 -0.03400
C 	C 	0.50721 0.67010 0.27680 -0.01900
H 	H 	0.50620 0.65150 0.24920 0.06500
C 	C 	0.54650 0.77080 0.41240 -0.06700
H 	H 	0.56930 0.74690 0.41880 0.05800
H 	H 	0.55930 0.79230 0.38890 0.06500
C 	C 	0.53380 0.79610 0.45950 0.18900
C 	C 	0.53180 0.84080 0.45740 -0.24400
H 	H 	0.53240 0.85680 0.42800 0.11500
C 	C 	0.42236 0.67640 0.27330 0.33500
C 	C 	0.32700 0.73190 0.35910 0.03800
H 	H 	0.35820 0.72590 0.35390 0.03500
C 	C 	0.31300 0.75130 0.40170 -0.08300
H 	H 	0.33460 0.75850 0.42560 0.06500
C 	C 	0.26730 0.76010 0.40930 0.02000
H 	H 	0.25770 0.77340 0.43850 0.02900
C 	C 	0.23570 0.74960 0.37440 -0.08900
H 	H 	0.20450 0.75560 0.37960 0.07100
C 	C 	0.24980 0.73020 0.33180 0.05200
H 	H 	0.22820 0.72300 0.30800 0.03000
N 	N 	0.29540 0.72134 0.32420 -0.17600
Cu	Cu	0.51231 0.86176 -0.00000 0.88500
Cu	Cu	0.50925 0.77316 -0.00000 0.88900
Cu	Cu	0.48769 0.13824 -0.00000 0.88500
Cu	Cu	0.49075 0.22684 -0.00000 0.88900
Cu	Cu	0.13824 0.51231 -0.00000 0.88500
Cu	Cu	0.22684 0.50925 -0.00000 0.88900
Cu	Cu	0.86176 0.48769 -0.00000 0.88500
Cu	Cu	0.77316 0.49075 -0.00000 0.88900
C 	C 	0.86260 0.47140 0.50000 0.16300
H 	H 	0.89440 0.47600 0.50000 -0.02600
C 	C 	0.77140 0.46840 0.50000 -0.24900
H 	H 	0.73930 0.47130 0.50000 0.12900
C 	C 	0.13740 0.52860 0.50000 0.16300
H 	H 	0.10560 0.52400 0.50000 -0.02600
C 	C 	0.22860 0.53160 0.50000 -0.24900
H 	H 	0.26070 0.52870 0.50000 0.12900
C 	C 	0.52860 0.86260 0.50000 0.16300
H 	H 	0.52400 0.89440 0.50000 -0.02600
C 	C 	0.53160 0.77140 0.50000 -0.24900
H 	H 	0.52870 0.73930 0.50000 0.12900
C 	C 	0.47140 0.13740 0.50000 0.16300
H 	H 	0.47600 0.10560 0.50000 -0.02600
C 	C 	0.46840 0.22860 0.50000 -0.24900
H 	H 	0.47130 0.26070 0.50000 0.12900
