data_crystal

_cell_length_a 16.21070
_cell_length_b 14.97810
_cell_length_c 7.95730
_cell_angle_alpha 90.00000
_cell_angle_beta  92.06900
_cell_angle_gamma 90.00000

_symmetry_space_group_name_	'P 1'
_symmetry_space_group_name_H-M	'P 1'

loop_
_symmetry_equiv_pos_as_xyz
  x,y,z

loop_
_atom_site_label
_atom_site_type_symbol
_atom_site_fract_x
_atom_site_fract_y
_atom_site_fract_z
_atom_site_charge
Ag	Ag	0.02698 0.25929 0.39979 0.47900
Ho	Ho	0.54522 0.38374 0.94987 1.86500
C 	C 	0.86700 0.32810 0.54060 -0.00400
H 	H 	0.89390 0.38210 0.52450 -0.01200
C 	C 	0.78870 0.32900 0.60530 -0.02400
H 	H 	0.76400 0.38280 0.63350 0.03100
C 	C 	0.74730 0.24860 0.62780 -0.12400
C 	C 	0.78710 0.17020 0.58550 -0.00900
H 	H 	0.76120 0.11540 0.59910 0.01200
C 	C 	0.86560 0.17420 0.52280 -0.00600
H 	H 	0.89180 0.12120 0.49520 -0.00600
C 	C 	0.66240 0.24910 0.69770 0.44400
C 	C 	0.21190 0.25280 0.29400 0.00200
H 	H 	0.20930 0.19290 0.32380 -0.00100
C 	C 	0.28580 0.28690 0.24300 -0.03500
H 	H 	0.33230 0.25060 0.23870 0.03800
C 	C 	0.29000 0.37650 0.19800 -0.11000
C 	C 	0.21960 0.42740 0.20610 -0.04600
H 	H 	0.22070 0.48750 0.17720 0.03900
C 	C 	0.14760 0.38870 0.25720 -0.00200
H 	H 	0.10020 0.42360 0.26050 -0.01800
C 	C 	0.36830 0.41870 0.13960 0.43200
C 	C 	0.43090 0.45830 0.71360 0.76200
C 	C 	0.36470 0.49320 0.59610 -1.30400
H 	H 	0.32730 0.44570 0.56530 0.41300
H 	H 	0.33510 0.53990 0.65050 0.41700
H 	H 	0.38910 0.51640 0.49710 0.41800
N 	N 	0.90521 0.25170 0.50030 -0.19200
N 	N 	0.14330 0.30290 0.30230 -0.19700
O 	O 	0.64109 0.31544 0.78110 -0.49900
O 	O 	0.61712 0.18110 0.66850 -0.52400
O 	O 	0.42521 0.36697 0.09580 -0.49700
O 	O 	0.37096 0.50296 0.14130 -0.49100
O 	O 	0.45136 0.50266 0.84300 -0.67400
O 	O 	0.46593 0.38475 0.68750 -0.57300
Ag	Ag	0.97302 0.75929 0.10021 0.47600
Ho	Ho	0.45478 0.88374 0.55013 1.86600
C 	C 	0.13300 0.82810 0.95940 -0.00300
H 	H 	0.10610 0.88210 0.97550 -0.01100
C 	C 	0.21130 0.82900 0.89470 -0.02500
H 	H 	0.23600 0.88280 0.86650 0.03200
C 	C 	0.25270 0.74860 0.87220 -0.12300
C 	C 	0.21290 0.67020 0.91450 -0.01000
H 	H 	0.23880 0.61540 0.90090 0.01200
C 	C 	0.13440 0.67420 0.97720 -0.00300
H 	H 	0.10820 0.62120 0.00480 -0.00800
C 	C 	0.33760 0.74910 0.80230 0.44400
C 	C 	0.78810 0.75280 0.20600 0.00200
H 	H 	0.79070 0.69290 0.17620 -0.00200
C 	C 	0.71420 0.78690 0.25700 -0.03500
H 	H 	0.66770 0.75060 0.26130 0.03700
C 	C 	0.71000 0.87650 0.30200 -0.11000
C 	C 	0.78040 0.92740 0.29390 -0.04700
H 	H 	0.77930 0.98750 0.32280 0.03800
C 	C 	0.85240 0.88870 0.24280 -0.00300
H 	H 	0.89980 0.92360 0.23950 -0.01900
C 	C 	0.63170 0.91870 0.36040 0.43000
C 	C 	0.56910 0.95830 0.78640 0.76300
C 	C 	0.63530 0.99320 0.90390 -1.30100
H 	H 	0.67270 0.94570 0.93470 0.41300
H 	H 	0.66490 0.03990 0.84950 0.41400
H 	H 	0.61090 0.01640 0.00290 0.41900
N 	N 	0.09479 0.75170 0.99970 -0.19200
N 	N 	0.85670 0.80290 0.19770 -0.19800
O 	O 	0.35891 0.81544 0.71890 -0.49800
O 	O 	0.38288 0.68110 0.83150 -0.52300
O 	O 	0.57479 0.86697 0.40420 -0.49800
O 	O 	0.62904 0.00296 0.35870 -0.49100
O 	O 	0.54864 0.00266 0.65700 -0.67600
O 	O 	0.53407 0.88475 0.81250 -0.57300
Ag	Ag	0.97302 0.74071 0.60021 0.47800
Ho	Ho	0.45478 0.61626 0.05013 1.86400
C 	C 	0.13300 0.67190 0.45940 -0.00400
H 	H 	0.10610 0.61790 0.47550 -0.01200
C 	C 	0.21130 0.67100 0.39470 -0.02400
H 	H 	0.23600 0.61720 0.36650 0.03100
C 	C 	0.25270 0.75140 0.37220 -0.12400
C 	C 	0.21290 0.82980 0.41450 -0.00900
H 	H 	0.23880 0.88460 0.40090 0.01200
C 	C 	0.13440 0.82580 0.47720 -0.00600
H 	H 	0.10820 0.87880 0.50480 -0.00600
C 	C 	0.33760 0.75090 0.30230 0.44400
C 	C 	0.78810 0.74720 0.70600 0.00200
H 	H 	0.79070 0.80710 0.67620 -0.00100
C 	C 	0.71420 0.71310 0.75700 -0.03500
H 	H 	0.66770 0.74940 0.76130 0.03800
C 	C 	0.71000 0.62350 0.80200 -0.11000
C 	C 	0.78040 0.57260 0.79390 -0.04600
H 	H 	0.77930 0.51250 0.82280 0.03900
C 	C 	0.85240 0.61130 0.74280 -0.00200
H 	H 	0.89980 0.57640 0.73950 -0.01800
C 	C 	0.63170 0.58130 0.86040 0.43200
C 	C 	0.56910 0.54170 0.28640 0.76200
C 	C 	0.63530 0.50680 0.40390 -1.30400
H 	H 	0.67270 0.55430 0.43470 0.41300
H 	H 	0.66490 0.46010 0.34950 0.41700
H 	H 	0.61090 0.48360 0.50290 0.41800
N 	N 	0.09479 0.74830 0.49970 -0.19200
N 	N 	0.85670 0.69710 0.69770 -0.19700
O 	O 	0.35891 0.68456 0.21890 -0.49900
O 	O 	0.38288 0.81890 0.33150 -0.52400
O 	O 	0.57479 0.63303 0.90420 -0.49700
O 	O 	0.62904 0.49704 0.85870 -0.49100
O 	O 	0.54864 0.49734 0.15700 -0.67400
O 	O 	0.53407 0.61525 0.31250 -0.57300
Ag	Ag	0.02698 0.24071 0.89979 0.47600
Ho	Ho	0.54522 0.11626 0.44987 1.86600
C 	C 	0.86700 0.17190 0.04060 -0.00300
H 	H 	0.89390 0.11790 0.02450 -0.01100
C 	C 	0.78870 0.17100 0.10530 -0.02500
H 	H 	0.76400 0.11720 0.13350 0.03200
C 	C 	0.74730 0.25140 0.12780 -0.12300
C 	C 	0.78710 0.32980 0.08550 -0.01000
H 	H 	0.76120 0.38460 0.09910 0.01200
C 	C 	0.86560 0.32580 0.02280 -0.00300
H 	H 	0.89180 0.37880 0.99520 -0.00800
C 	C 	0.66240 0.25090 0.19770 0.44400
C 	C 	0.21190 0.24720 0.79400 0.00200
H 	H 	0.20930 0.30710 0.82380 -0.00200
C 	C 	0.28580 0.21310 0.74300 -0.03500
H 	H 	0.33230 0.24940 0.73870 0.03700
C 	C 	0.29000 0.12350 0.69800 -0.11000
C 	C 	0.21960 0.07260 0.70610 -0.04700
H 	H 	0.22070 0.01250 0.67720 0.03800
C 	C 	0.14760 0.11130 0.75720 -0.00300
H 	H 	0.10020 0.07640 0.76050 -0.01900
C 	C 	0.36830 0.08130 0.63960 0.43000
C 	C 	0.43090 0.04170 0.21360 0.76300
C 	C 	0.36470 0.00680 0.09610 -1.30100
H 	H 	0.32730 0.05430 0.06530 0.41300
H 	H 	0.33510 0.96010 0.15050 0.41400
H 	H 	0.38910 0.98360 0.99710 0.41900
N 	N 	0.90521 0.24830 0.00030 -0.19200
N 	N 	0.14330 0.19710 0.80230 -0.19800
O 	O 	0.64109 0.18456 0.28110 -0.49800
O 	O 	0.61712 0.31890 0.16850 -0.52300
O 	O 	0.42521 0.13303 0.59580 -0.49800
O 	O 	0.37096 0.99704 0.64130 -0.49100
O 	O 	0.45136 0.99734 0.34300 -0.67600
O 	O 	0.46593 0.11525 0.18750 -0.57300
