data_crystal

_cell_length_a 9.68590
_cell_length_b 16.91400
_cell_length_c 18.41200
_cell_angle_alpha 90.00000
_cell_angle_beta  115.16000
_cell_angle_gamma 90.00000

_symmetry_space_group_name_	'P 1'
_symmetry_space_group_name_H-M	'P 1'

loop_
_symmetry_equiv_pos_as_xyz
  x,y,z

loop_
_atom_site_label
_atom_site_type_symbol
_atom_site_fract_x
_atom_site_fract_y
_atom_site_fract_z
_atom_site_charge
Co	Co	0.57640 0.29222 0.70733 1.15200
O 	O 	0.82830 0.34830 0.69900 -0.31000
O 	O 	0.62620 0.28600 0.61330 -0.42300
O 	O 	0.54340 0.24480 0.33340 -0.32600
O 	O 	0.72210 0.27780 0.29500 -0.40400
O 	O 	0.12060 0.42100 0.54270 -0.24500
N 	N 	0.54960 0.40400 0.73840 -0.25000
N 	N 	0.46080 0.49840 0.78830 -0.10500
N 	N 	0.36340 0.24690 0.64640 -0.24200
N 	N 	0.16260 0.19700 0.54720 -0.10100
C 	C 	0.75190 0.32190 0.63060 0.28400
C 	C 	0.80320 0.33220 0.56520 -0.00200
C 	C 	0.71620 0.30240 0.48920 -0.07000
H 	H 	0.62610 0.27560 0.47910 0.07600
C 	C 	0.76240 0.31230 0.42820 0.00300
C 	C 	0.89800 0.35270 0.44340 -0.16300
H 	H 	0.92950 0.35990 0.40270 0.10500
C 	C 	0.98510 0.38190 0.51990 0.21400
C 	C 	0.93670 0.37220 0.58050 -0.15800
H 	H 	0.99450 0.39260 0.63130 0.10800
C 	C 	0.66860 0.27640 0.34730 0.26900
C 	C 	0.18670 0.42730 0.48620 0.09100
H 	H 	0.12170 0.45860 0.44020 0.01400
H 	H 	0.19950 0.37530 0.46770 0.00800
C 	C 	0.33890 0.46690 0.52980 -0.18100
H 	H 	0.40110 0.43510 0.57610 0.08000
H 	H 	0.32360 0.51790 0.54920 0.10000
C 	C 	0.42390 0.47860 0.47760 -0.07000
H 	H 	0.36060 0.50890 0.43040 0.05200
H 	H 	0.44280 0.42740 0.45970 0.05300
C 	C 	0.25040 0.23320 0.67150 0.00900
H 	H 	0.25770 0.24400 0.72260 0.03000
C 	C 	0.30500 0.22440 0.57030 0.08200
H 	H 	0.35580 0.22720 0.53730 0.00200
C 	C 	0.12820 0.20220 0.61120 -0.00400
H 	H 	0.03730 0.18710 0.61280 0.04200
C 	C 	0.06650 0.16030 0.46950 -0.13700
H 	H 	0.11960 0.16080 0.43520 0.07900
H 	H 	0.97270 0.19020 0.44310 0.08200
C 	C 	0.03040 0.07700 0.48260 0.07100
C 	C 	0.14040 0.01900 0.50450 -0.07100
H 	H 	0.23680 0.03120 0.50830 0.06500
C 	C 	0.88970 0.05660 0.47900 -0.07500
H 	H 	0.81370 0.09490 0.46510 0.06000
C 	C 	0.44000 0.42570 0.75830 0.09300
H 	H 	0.35750 0.39380 0.75210 -0.00700
C 	C 	0.64200 0.46830 0.75530 0.01400
H 	H 	0.72910 0.47160 0.74620 0.02600
C 	C 	0.59040 0.52610 0.78690 -0.01200
H 	H 	0.63490 0.57540 0.80430 0.04100
C 	C 	0.37440 0.53470 0.82840 -0.12200
H 	H 	0.27000 0.51580 0.80350 0.07400
H 	H 	0.37240 0.59160 0.82100 0.06700
C 	C 	0.44170 0.51650 0.91760 0.05900
C 	C 	0.48830 0.44080 0.94660 -0.07100
H 	H 	0.48030 0.40050 0.91070 0.06600
C 	C 	0.45390 0.57610 0.97270 -0.07700
H 	H 	0.42280 0.62720 0.95470 0.06100
Co	Co	0.42360 0.79222 0.79267 1.15100
O 	O 	0.17170 0.84830 0.80100 -0.31200
O 	O 	0.37380 0.78600 0.88670 -0.42400
O 	O 	0.45660 0.74480 0.16660 -0.32700
O 	O 	0.27790 0.77780 0.20500 -0.40500
O 	O 	0.87940 0.92100 0.95730 -0.24100
N 	N 	0.45040 0.90400 0.76160 -0.25100
N 	N 	0.53920 0.99840 0.71170 -0.10500
N 	N 	0.63660 0.74690 0.85360 -0.24200
N 	N 	0.83740 0.69700 0.95280 -0.10000
C 	C 	0.24810 0.82190 0.86940 0.28500
C 	C 	0.19680 0.83220 0.93480 -0.00400
C 	C 	0.28380 0.80240 0.01080 -0.06700
H 	H 	0.37390 0.77560 0.02090 0.07500
C 	C 	0.23760 0.81230 0.07180 0.00100
C 	C 	0.10200 0.85270 0.05660 -0.15900
H 	H 	0.07050 0.85990 0.09730 0.10400
C 	C 	0.01490 0.88190 0.98010 0.20800
C 	C 	0.06330 0.87220 0.91950 -0.15500
H 	H 	0.00550 0.89260 0.86870 0.10600
C 	C 	0.33140 0.77640 0.15270 0.27000
C 	C 	0.81330 0.92730 0.01380 0.08100
H 	H 	0.87830 0.95860 0.05980 0.01600
H 	H 	0.80050 0.87530 0.03230 0.01000
C 	C 	0.66110 0.96690 0.97020 -0.16900
H 	H 	0.59890 0.93510 0.92390 0.07700
H 	H 	0.67640 0.01790 0.95080 0.09600
C 	C 	0.57610 0.97860 0.02240 -0.07500
H 	H 	0.63940 0.00890 0.06960 0.05300
H 	H 	0.55720 0.92740 0.04030 0.05400
C 	C 	0.74960 0.73320 0.82850 0.00900
H 	H 	0.74230 0.74400 0.77740 0.03000
C 	C 	0.69500 0.72440 0.92970 0.08200
H 	H 	0.64420 0.72720 0.96270 0.00200
C 	C 	0.87180 0.70220 0.88880 -0.00400
H 	H 	0.96270 0.68710 0.88720 0.04300
C 	C 	0.93350 0.66030 0.03050 -0.14000
H 	H 	0.88040 0.66080 0.06480 0.08000
H 	H 	0.02730 0.69020 0.05690 0.08300
C 	C 	0.96960 0.57700 0.01740 0.06800
C 	C 	0.85960 0.51900 0.99550 -0.07100
H 	H 	0.76320 0.53120 0.99170 0.06500
C 	C 	0.11030 0.55660 0.02100 -0.07100
H 	H 	0.18630 0.59490 0.03490 0.05900
C 	C 	0.56000 0.92570 0.74170 0.09300
H 	H 	0.64250 0.89380 0.74790 -0.00700
C 	C 	0.35800 0.96830 0.74470 0.01500
H 	H 	0.27090 0.97160 0.75380 0.02600
C 	C 	0.40960 0.02610 0.71310 -0.01300
H 	H 	0.36510 0.07540 0.69570 0.04200
C 	C 	0.62560 0.03470 0.67160 -0.12300
H 	H 	0.73000 0.01580 0.69650 0.07400
H 	H 	0.62760 0.09160 0.67900 0.06700
C 	C 	0.55830 0.01650 0.58240 0.05900
C 	C 	0.51170 0.94080 0.55340 -0.07100
H 	H 	0.51970 0.90050 0.58930 0.06600
C 	C 	0.54610 0.07610 0.52730 -0.07700
H 	H 	0.57720 0.12720 0.54530 0.06100
Co	Co	0.42360 0.70778 0.29267 1.15100
O 	O 	0.17170 0.65170 0.30100 -0.31100
O 	O 	0.37380 0.71400 0.38670 -0.42400
O 	O 	0.45660 0.75520 0.66660 -0.32700
O 	O 	0.27790 0.72220 0.70500 -0.40500
O 	O 	0.87940 0.57900 0.45730 -0.24600
N 	N 	0.45040 0.59600 0.26160 -0.25100
N 	N 	0.53920 0.50160 0.21170 -0.10600
N 	N 	0.63660 0.75310 0.35360 -0.24200
N 	N 	0.83740 0.80300 0.45280 -0.10100
C 	C 	0.24810 0.67810 0.36940 0.28400
C 	C 	0.19680 0.66780 0.43480 -0.00200
C 	C 	0.28380 0.69760 0.51080 -0.07000
H 	H 	0.37390 0.72440 0.52090 0.07600
C 	C 	0.23760 0.68770 0.57180 0.00300
C 	C 	0.10200 0.64730 0.55660 -0.16300
H 	H 	0.07050 0.64010 0.59730 0.10500
C 	C 	0.01490 0.61810 0.48010 0.21400
C 	C 	0.06330 0.62780 0.41950 -0.15800
H 	H 	0.00550 0.60740 0.36870 0.10800
C 	C 	0.33140 0.72360 0.65270 0.26900
C 	C 	0.81330 0.57270 0.51380 0.09100
H 	H 	0.87830 0.54140 0.55980 0.01400
H 	H 	0.80050 0.62470 0.53230 0.00800
C 	C 	0.66110 0.53310 0.47020 -0.18100
H 	H 	0.59890 0.56490 0.42390 0.08000
H 	H 	0.67640 0.48210 0.45080 0.10000
C 	C 	0.57610 0.52140 0.52240 -0.07000
H 	H 	0.63940 0.49110 0.56960 0.05200
H 	H 	0.55720 0.57260 0.54030 0.05300
C 	C 	0.74960 0.76680 0.32850 0.00900
H 	H 	0.74230 0.75600 0.27740 0.03000
C 	C 	0.69500 0.77560 0.42970 0.08200
H 	H 	0.64420 0.77280 0.46270 0.00200
C 	C 	0.87180 0.79780 0.38880 -0.00400
H 	H 	0.96270 0.81290 0.38720 0.04200
C 	C 	0.93350 0.83970 0.53050 -0.13700
H 	H 	0.88040 0.83920 0.56480 0.07900
H 	H 	0.02730 0.80980 0.55690 0.08200
C 	C 	0.96960 0.92300 0.51740 0.07100
C 	C 	0.85960 0.98100 0.49550 -0.07100
H 	H 	0.76320 0.96880 0.49170 0.06500
C 	C 	0.11030 0.94340 0.52100 -0.07500
H 	H 	0.18630 0.90510 0.53490 0.06000
C 	C 	0.56000 0.57430 0.24170 0.09300
H 	H 	0.64250 0.60620 0.24790 -0.00700
C 	C 	0.35800 0.53170 0.24470 0.01400
H 	H 	0.27090 0.52840 0.25380 0.02600
C 	C 	0.40960 0.47390 0.21310 -0.01200
H 	H 	0.36510 0.42460 0.19570 0.04100
C 	C 	0.62560 0.46530 0.17160 -0.12200
H 	H 	0.73000 0.48420 0.19650 0.07400
H 	H 	0.62760 0.40840 0.17900 0.06700
C 	C 	0.55830 0.48350 0.08240 0.05900
C 	C 	0.51170 0.55920 0.05340 -0.07100
H 	H 	0.51970 0.59950 0.08930 0.06600
C 	C 	0.54610 0.42390 0.02730 -0.07700
H 	H 	0.57720 0.37280 0.04530 0.06100
Co	Co	0.57640 0.20778 0.20733 1.15100
O 	O 	0.82830 0.15170 0.19900 -0.31200
O 	O 	0.62620 0.21400 0.11330 -0.42400
O 	O 	0.54340 0.25520 0.83340 -0.32700
O 	O 	0.72210 0.22220 0.79500 -0.40500
O 	O 	0.12060 0.07900 0.04270 -0.24100
N 	N 	0.54960 0.09600 0.23840 -0.25100
N 	N 	0.46080 0.00160 0.28830 -0.10500
N 	N 	0.36340 0.25310 0.14640 -0.24200
N 	N 	0.16260 0.30300 0.04720 -0.10000
C 	C 	0.75190 0.17810 0.13060 0.28500
C 	C 	0.80320 0.16780 0.06520 -0.00400
C 	C 	0.71620 0.19760 0.98920 -0.06700
H 	H 	0.62610 0.22440 0.97910 0.07500
C 	C 	0.76240 0.18770 0.92820 0.00100
C 	C 	0.89800 0.14730 0.94340 -0.15900
H 	H 	0.92950 0.14010 0.90270 0.10400
C 	C 	0.98510 0.11810 0.01990 0.20800
C 	C 	0.93670 0.12780 0.08050 -0.15500
H 	H 	0.99450 0.10740 0.13130 0.10600
C 	C 	0.66860 0.22360 0.84730 0.27000
C 	C 	0.18670 0.07270 0.98620 0.08100
H 	H 	0.12170 0.04140 0.94020 0.01600
H 	H 	0.19950 0.12470 0.96770 0.01000
C 	C 	0.33890 0.03310 0.02980 -0.16900
H 	H 	0.40110 0.06490 0.07610 0.07700
H 	H 	0.32360 0.98210 0.04920 0.09600
C 	C 	0.42390 0.02140 0.97760 -0.07500
H 	H 	0.36060 0.99110 0.93040 0.05300
H 	H 	0.44280 0.07260 0.95970 0.05400
C 	C 	0.25040 0.26680 0.17150 0.00900
H 	H 	0.25770 0.25600 0.22260 0.03000
C 	C 	0.30500 0.27560 0.07030 0.08200
H 	H 	0.35580 0.27280 0.03730 0.00200
C 	C 	0.12820 0.29780 0.11120 -0.00400
H 	H 	0.03730 0.31290 0.11280 0.04300
C 	C 	0.06650 0.33970 0.96950 -0.14000
H 	H 	0.11960 0.33920 0.93520 0.08000
H 	H 	0.97270 0.30980 0.94310 0.08300
C 	C 	0.03040 0.42300 0.98260 0.06800
C 	C 	0.14040 0.48100 0.00450 -0.07100
H 	H 	0.23680 0.46880 0.00830 0.06500
C 	C 	0.88970 0.44340 0.97900 -0.07100
H 	H 	0.81370 0.40510 0.96510 0.05900
C 	C 	0.44000 0.07430 0.25830 0.09300
H 	H 	0.35750 0.10620 0.25210 -0.00700
C 	C 	0.64200 0.03170 0.25530 0.01500
H 	H 	0.72910 0.02840 0.24620 0.02600
C 	C 	0.59040 0.97390 0.28690 -0.01300
H 	H 	0.63490 0.92460 0.30430 0.04200
C 	C 	0.37440 0.96530 0.32840 -0.12300
H 	H 	0.27000 0.98420 0.30350 0.07400
H 	H 	0.37240 0.90840 0.32100 0.06700
C 	C 	0.44170 0.98350 0.41760 0.05900
C 	C 	0.48830 0.05920 0.44660 -0.07100
H 	H 	0.48030 0.09950 0.41070 0.06600
C 	C 	0.45390 0.92390 0.47270 -0.07700
H 	H 	0.42280 0.87280 0.45470 0.06100
