data_crystal

_cell_length_a 46.10800
_cell_length_b 10.67580
_cell_length_c 23.63300
_cell_angle_alpha 90.00000
_cell_angle_beta  95.27400
_cell_angle_gamma 90.00000

_symmetry_space_group_name_	'P 1'
_symmetry_space_group_name_H-M	'P 1'

loop_
_symmetry_equiv_pos_as_xyz
  x,y,z

loop_
_atom_site_label
_atom_site_type_symbol
_atom_site_fract_x
_atom_site_fract_y
_atom_site_fract_z
_atom_site_charge
C 	C 	0.18885 0.10030 0.04983 0.42500
C 	C 	0.17083 0.20310 0.06756 -0.28300
C 	C 	0.15268 0.18840 0.10967 0.23200
H 	H 	0.15180 0.11070 0.12720 -0.03200
C 	C 	0.13534 0.28670 0.12736 -0.36500
H 	H 	0.12270 0.27490 0.15540 0.17100
C 	C 	0.13783 0.39960 0.10173 0.37600
C 	C 	0.15587 0.41620 0.06074 -0.39200
H 	H 	0.15770 0.49520 0.04490 0.17800
C 	C 	0.17157 0.31750 0.04211 0.26000
H 	H 	0.18280 0.32880 0.01180 -0.04200
C 	C 	0.10316 0.56310 0.08621 0.37100
C 	C 	0.08891 0.50670 0.04055 -0.37200
H 	H 	0.09380 0.42550 0.03070 0.17000
C 	C 	0.06724 0.57010 0.00904 0.23500
H 	H 	0.05720 0.53120 0.97790 -0.02900
C 	C 	0.06007 0.69050 0.02290 -0.25200
C 	C 	0.07514 0.74810 0.06745 0.22200
H 	H 	0.07090 0.83070 0.07620 -0.04100
C 	C 	0.09687 0.68380 0.10000 -0.35100
H 	H 	0.10710 0.72250 0.13100 0.16800
C 	C 	0.03459 0.75040 0.99050 0.36700
C 	C 	0.28812 0.71310 0.15057 -0.21200
C 	C 	0.30343 0.77700 0.19379 0.17200
H 	H 	0.29710 0.85610 0.20370 -0.00900
C 	C 	0.32853 0.72630 0.22358 -0.29600
H 	H 	0.33860 0.77080 0.25300 0.14800
C 	C 	0.33811 0.60820 0.20831 0.33100
C 	C 	0.32362 0.54530 0.16506 -0.32400
H 	H 	0.33020 0.46760 0.15400 0.15700
C 	C 	0.29854 0.59830 0.13697 0.18700
H 	H 	0.28850 0.55330 0.10770 -0.01300
C 	C 	0.38735 0.55040 0.21460 0.33500
C 	C 	0.39313 0.61360 0.16710 -0.34200
H 	H 	0.37850 0.66090 0.14770 0.16000
C 	C 	0.42019 0.60900 0.14714 0.19500
H 	H 	0.42360 0.65490 0.11500 -0.02000
C 	C 	0.44241 0.53750 0.17389 -0.20300
C 	C 	0.43600 0.46970 0.22118 0.16800
H 	H 	0.45020 0.41780 0.23910 -0.00700
C 	C 	0.40873 0.47700 0.24275 -0.30200
H 	H 	0.40510 0.43320 0.27540 0.14400
C 	C 	0.47215 0.53660 0.15191 0.37800
C 	C 	0.17751 0.83320 0.17179 0.17000
H 	H 	0.17630 0.91920 0.16570 -0.01400
C 	C 	0.16138 0.78370 0.21267 -0.30100
H 	H 	0.14950 0.83450 0.23270 0.15000
C 	C 	0.16329 0.65590 0.22305 0.32200
C 	C 	0.18150 0.58800 0.19142 -0.28900
H 	H 	0.18340 0.50210 0.19690 0.15200
C 	C 	0.19666 0.64640 0.15207 0.17200
H 	H 	0.20920 0.59820 0.13230 -0.02600
C 	C 	0.19328 0.33000 0.48396 0.18500
H 	H 	0.21280 0.35350 0.48820 -0.04800
C 	C 	0.17517 0.39620 0.44475 -0.32600
H 	H 	0.18220 0.46170 0.42400 0.15300
C 	C 	0.14653 0.36180 0.43760 0.32600
C 	C 	0.13742 0.26620 0.47008 -0.32800
H 	H 	0.11810 0.24050 0.46640 0.16000
C 	C 	0.15721 0.20960 0.50779 0.18800
H 	H 	0.15050 0.14590 0.53000 -0.03700
C 	C 	0.05023 0.22760 0.17153 0.20700
H 	H 	0.05040 0.14110 0.17600 -0.05500
C 	C 	0.06683 0.29580 0.21100 -0.34900
H 	H 	0.07810 0.25590 0.24040 0.16200
C 	C 	0.06683 0.42190 0.20707 0.35000
C 	C 	0.04952 0.47410 0.16191 -0.30700
H 	H 	0.04830 0.56060 0.15770 0.15800
C 	C 	0.03413 0.39640 0.12337 0.18400
H 	H 	0.02330 0.43310 0.09260 -0.02900
C 	C 	0.06451 0.84280 0.51117 0.19100
H 	H 	0.07070 0.89200 0.54240 -0.05300
C 	C 	0.08421 0.81470 0.47370 -0.31900
H 	H 	0.10340 0.84220 0.47980 0.15500
C 	C 	0.07516 0.74520 0.42709 0.30900
C 	C 	0.04661 0.70720 0.41849 -0.30200
H 	H 	0.03970 0.66070 0.38680 0.15000
C 	C 	0.02898 0.74170 0.45932 0.18100
H 	H 	0.00950 0.71850 0.45370 -0.03100
C 	C 	0.08675 0.61400 0.35034 0.00100
H 	H 	0.07300 0.64980 0.32130 0.05000
H 	H 	0.07710 0.54690 0.36890 0.05000
C 	C 	0.10101 0.45330 0.28668 0.02700
H 	H 	0.11680 0.40860 0.27130 0.04500
H 	H 	0.09080 0.39540 0.30940 0.03800
C 	C 	0.13629 0.51670 0.36709 0.01200
H 	H 	0.15300 0.48910 0.34840 0.04500
H 	H 	0.14250 0.58560 0.39220 0.04700
C 	C 	0.12692 0.65760 0.28808 0.02500
H 	H 	0.11250 0.69590 0.26100 0.04300
H 	H 	0.13600 0.72270 0.31230 0.03600
C 	C 	0.26162 0.76610 0.12141 0.33600
C 	C 	0.11294 0.56190 0.32303 0.01200
N 	N 	0.19466 0.76780 0.14023 -0.26300
N 	N 	0.03389 0.27360 0.12743 -0.28900
N 	N 	0.18558 0.23750 0.51574 -0.28900
N 	N 	0.03723 0.80530 0.50616 -0.28300
Ni	Ni	0.21495 0.84612 0.07397 1.08300
Ni	Ni	0.99150 0.83131 0.93003 1.07700
O 	O 	0.19148 0.00490 0.08052 -0.43700
O 	O 	0.20131 0.11240 0.00568 -0.30200
O 	O 	0.25277 0.87380 0.13389 -0.37300
O 	O 	0.24714 0.70350 0.08168 -0.39400
O 	O 	0.47798 0.63420 0.12478 -0.40800
O 	O 	0.48837 0.44550 0.16262 -0.28700
O 	O 	0.02870 0.86500 0.99685 -0.38700
O 	O 	0.01844 0.68370 0.95622 -0.38600
O 	O 	0.36198 0.55890 0.24019 -0.34200
O 	O 	0.12309 0.50070 0.12378 -0.33500
O 	O 	0.09626 0.70940 0.39164 -0.24300
O 	O 	0.08155 0.50220 0.24166 -0.26700
O 	O 	0.12617 0.41540 0.40013 -0.26000
O 	O 	0.14829 0.59310 0.25915 -0.26000
C 	C 	0.68885 0.60030 0.04983 0.42500
C 	C 	0.67083 0.70310 0.06756 -0.28200
C 	C 	0.65268 0.68840 0.10967 0.23200
H 	H 	0.65180 0.61070 0.12720 -0.03100
C 	C 	0.63534 0.78670 0.12736 -0.36300
H 	H 	0.62270 0.77490 0.15540 0.17200
C 	C 	0.63783 0.89960 0.10173 0.37600
C 	C 	0.65587 0.91620 0.06074 -0.39000
H 	H 	0.65770 0.99520 0.04490 0.17700
C 	C 	0.67157 0.81750 0.04211 0.25900
H 	H 	0.68280 0.82880 0.01180 -0.04200
C 	C 	0.60316 0.06310 0.08621 0.37000
C 	C 	0.58891 0.00670 0.04055 -0.37000
H 	H 	0.59380 0.92550 0.03070 0.16900
C 	C 	0.56724 0.07010 0.00904 0.23600
H 	H 	0.55720 0.03120 0.97790 -0.02900
C 	C 	0.56007 0.19050 0.02290 -0.25100
C 	C 	0.57514 0.24810 0.06745 0.22200
H 	H 	0.57090 0.33070 0.07620 -0.04100
C 	C 	0.59687 0.18380 0.10000 -0.35000
H 	H 	0.60710 0.22250 0.13100 0.16800
C 	C 	0.53459 0.25040 0.99050 0.36600
C 	C 	0.78812 0.21310 0.15057 -0.21100
C 	C 	0.80343 0.27700 0.19379 0.17100
H 	H 	0.79710 0.35610 0.20370 -0.00900
C 	C 	0.82853 0.22630 0.22358 -0.29500
H 	H 	0.83860 0.27080 0.25300 0.14800
C 	C 	0.83811 0.10820 0.20831 0.33000
C 	C 	0.82362 0.04530 0.16506 -0.32200
H 	H 	0.83020 0.96760 0.15400 0.15500
C 	C 	0.79854 0.09830 0.13697 0.18500
H 	H 	0.78850 0.05330 0.10770 -0.01200
C 	C 	0.88735 0.05040 0.21460 0.33500
C 	C 	0.89313 0.11360 0.16710 -0.34200
H 	H 	0.87850 0.16090 0.14770 0.16000
C 	C 	0.92019 0.10900 0.14714 0.19500
H 	H 	0.92360 0.15490 0.11500 -0.01900
C 	C 	0.94241 0.03750 0.17389 -0.20300
C 	C 	0.93600 0.96970 0.22118 0.16700
H 	H 	0.95020 0.91780 0.23910 -0.00700
C 	C 	0.90873 0.97700 0.24275 -0.30200
H 	H 	0.90510 0.93320 0.27540 0.14400
C 	C 	0.97215 0.03660 0.15191 0.37900
C 	C 	0.67751 0.33320 0.17179 0.17000
H 	H 	0.67630 0.41920 0.16570 -0.01300
C 	C 	0.66138 0.28370 0.21267 -0.30100
H 	H 	0.64950 0.33450 0.23270 0.15000
C 	C 	0.66329 0.15590 0.22305 0.32200
C 	C 	0.68150 0.08800 0.19142 -0.28900
H 	H 	0.68340 0.00210 0.19690 0.15200
C 	C 	0.69666 0.14640 0.15207 0.17200
H 	H 	0.70920 0.09820 0.13230 -0.02500
C 	C 	0.69328 0.83000 0.48396 0.18500
H 	H 	0.71280 0.85350 0.48820 -0.04800
C 	C 	0.67517 0.89620 0.44475 -0.32600
H 	H 	0.68220 0.96170 0.42400 0.15300
C 	C 	0.64653 0.86180 0.43760 0.32600
C 	C 	0.63742 0.76620 0.47008 -0.32800
H 	H 	0.61810 0.74050 0.46640 0.16000
C 	C 	0.65721 0.70960 0.50779 0.18800
H 	H 	0.65050 0.64590 0.53000 -0.03700
C 	C 	0.55023 0.72760 0.17153 0.20700
H 	H 	0.55040 0.64110 0.17600 -0.05500
C 	C 	0.56683 0.79580 0.21100 -0.34900
H 	H 	0.57810 0.75590 0.24040 0.16200
C 	C 	0.56683 0.92190 0.20707 0.34900
C 	C 	0.54952 0.97410 0.16191 -0.30900
H 	H 	0.54830 0.06060 0.15770 0.15900
C 	C 	0.53413 0.89640 0.12337 0.18500
H 	H 	0.52330 0.93310 0.09260 -0.03000
C 	C 	0.56451 0.34280 0.51117 0.19100
H 	H 	0.57070 0.39200 0.54240 -0.05300
C 	C 	0.58421 0.31470 0.47370 -0.31900
H 	H 	0.60340 0.34220 0.47980 0.15500
C 	C 	0.57516 0.24520 0.42709 0.30900
C 	C 	0.54661 0.20720 0.41849 -0.30200
H 	H 	0.53970 0.16070 0.38680 0.15000
C 	C 	0.52898 0.24170 0.45932 0.18100
H 	H 	0.50950 0.21850 0.45370 -0.03100
C 	C 	0.58675 0.11400 0.35034 0.00100
H 	H 	0.57300 0.14980 0.32130 0.05000
H 	H 	0.57710 0.04690 0.36890 0.05000
C 	C 	0.60101 0.95330 0.28668 0.02500
H 	H 	0.61680 0.90860 0.27130 0.04500
H 	H 	0.59080 0.89540 0.30940 0.03800
C 	C 	0.63629 0.01670 0.36709 0.01400
H 	H 	0.65300 0.98910 0.34840 0.04400
H 	H 	0.64250 0.08560 0.39220 0.04700
C 	C 	0.62692 0.15760 0.28808 0.02500
H 	H 	0.61250 0.19590 0.26100 0.04300
H 	H 	0.63600 0.22270 0.31230 0.03600
C 	C 	0.76162 0.26610 0.12141 0.33600
C 	C 	0.61294 0.06190 0.32303 0.01300
N 	N 	0.69466 0.26780 0.14023 -0.26300
N 	N 	0.53389 0.77360 0.12743 -0.28900
N 	N 	0.68558 0.73750 0.51574 -0.28900
N 	N 	0.53723 0.30530 0.50616 -0.28300
Ni	Ni	0.71495 0.34612 0.07397 1.08300
Ni	Ni	0.49150 0.33131 0.93003 1.07700
O 	O 	0.69148 0.50490 0.08052 -0.43800
O 	O 	0.70131 0.61240 0.00568 -0.30300
O 	O 	0.75277 0.37380 0.13389 -0.37300
O 	O 	0.74714 0.20350 0.08168 -0.39300
O 	O 	0.97798 0.13420 0.12478 -0.40800
O 	O 	0.98837 0.94550 0.16262 -0.28800
O 	O 	0.52870 0.36500 0.99685 -0.38700
O 	O 	0.51844 0.18370 0.95622 -0.38600
O 	O 	0.86198 0.05890 0.24019 -0.34100
O 	O 	0.62309 0.00070 0.12378 -0.33400
O 	O 	0.59626 0.20940 0.39164 -0.24300
O 	O 	0.58155 0.00220 0.24166 -0.26600
O 	O 	0.62617 0.91540 0.40013 -0.26100
O 	O 	0.64829 0.09310 0.25915 -0.26000
C 	C 	0.81115 0.10030 0.45017 0.42600
C 	C 	0.82917 0.20310 0.43244 -0.28200
C 	C 	0.84732 0.18840 0.39033 0.23300
H 	H 	0.84820 0.11070 0.37280 -0.03100
C 	C 	0.86466 0.28670 0.37264 -0.36400
H 	H 	0.87730 0.27490 0.34460 0.17200
C 	C 	0.86217 0.39960 0.39827 0.37700
C 	C 	0.84413 0.41620 0.43926 -0.39100
H 	H 	0.84230 0.49520 0.45510 0.17800
C 	C 	0.82843 0.31750 0.45789 0.26000
H 	H 	0.81720 0.32880 0.48820 -0.04200
C 	C 	0.89684 0.56310 0.41379 0.37100
C 	C 	0.91109 0.50670 0.45945 -0.37200
H 	H 	0.90620 0.42550 0.46930 0.17000
C 	C 	0.93276 0.57010 0.49096 0.23500
H 	H 	0.94280 0.53120 0.52210 -0.02900
C 	C 	0.93993 0.69050 0.47710 -0.25100
C 	C 	0.92486 0.74810 0.43255 0.22200
H 	H 	0.92910 0.83070 0.42380 -0.04100
C 	C 	0.90313 0.68380 0.40000 -0.35100
H 	H 	0.89290 0.72250 0.36900 0.16800
C 	C 	0.96541 0.75040 0.50950 0.36600
C 	C 	0.71188 0.71310 0.34943 -0.21200
C 	C 	0.69657 0.77700 0.30621 0.17200
H 	H 	0.70290 0.85610 0.29630 -0.00900
C 	C 	0.67147 0.72630 0.27642 -0.29600
H 	H 	0.66140 0.77080 0.24700 0.14800
C 	C 	0.66189 0.60820 0.29169 0.33100
C 	C 	0.67638 0.54530 0.33494 -0.32400
H 	H 	0.66980 0.46760 0.34600 0.15700
C 	C 	0.70146 0.59830 0.36303 0.18700
H 	H 	0.71150 0.55330 0.39230 -0.01300
C 	C 	0.61265 0.55040 0.28540 0.33500
C 	C 	0.60687 0.61360 0.33290 -0.34200
H 	H 	0.62150 0.66090 0.35230 0.16000
C 	C 	0.57981 0.60900 0.35286 0.19500
H 	H 	0.57640 0.65490 0.38500 -0.02000
C 	C 	0.55759 0.53750 0.32611 -0.20300
C 	C 	0.56400 0.46970 0.27882 0.16800
H 	H 	0.54980 0.41780 0.26090 -0.00700
C 	C 	0.59127 0.47700 0.25725 -0.30200
H 	H 	0.59490 0.43320 0.22460 0.14400
C 	C 	0.52785 0.53660 0.34809 0.37800
C 	C 	0.82249 0.83320 0.32821 0.17000
H 	H 	0.82370 0.91920 0.33430 -0.01300
C 	C 	0.83862 0.78370 0.28733 -0.30100
H 	H 	0.85050 0.83450 0.26730 0.15000
C 	C 	0.83671 0.65590 0.27695 0.32200
C 	C 	0.81850 0.58800 0.30858 -0.28900
H 	H 	0.81660 0.50210 0.30310 0.15200
C 	C 	0.80334 0.64640 0.34793 0.17200
H 	H 	0.79080 0.59820 0.36770 -0.02600
C 	C 	0.80672 0.33000 0.01604 0.18500
H 	H 	0.78720 0.35350 0.01180 -0.04800
C 	C 	0.82483 0.39620 0.05525 -0.32600
H 	H 	0.81780 0.46170 0.07600 0.15300
C 	C 	0.85347 0.36180 0.06240 0.32600
C 	C 	0.86258 0.26620 0.02992 -0.32700
H 	H 	0.88190 0.24050 0.03360 0.16000
C 	C 	0.84279 0.20960 0.99221 0.18700
H 	H 	0.84950 0.14590 0.97000 -0.03700
C 	C 	0.94977 0.22760 0.32847 0.20700
H 	H 	0.94960 0.14110 0.32400 -0.05500
C 	C 	0.93317 0.29580 0.28900 -0.34900
H 	H 	0.92190 0.25590 0.25960 0.16200
C 	C 	0.93317 0.42190 0.29293 0.35000
C 	C 	0.95048 0.47410 0.33809 -0.30700
H 	H 	0.95170 0.56060 0.34230 0.15800
C 	C 	0.96587 0.39640 0.37663 0.18400
H 	H 	0.97670 0.43310 0.40740 -0.02900
C 	C 	0.93549 0.84280 0.98883 0.19200
H 	H 	0.92930 0.89200 0.95760 -0.05300
C 	C 	0.91579 0.81470 0.02630 -0.32000
H 	H 	0.89660 0.84220 0.02020 0.15500
C 	C 	0.92484 0.74520 0.07291 0.30900
C 	C 	0.95339 0.70720 0.08151 -0.30200
H 	H 	0.96030 0.66070 0.11320 0.15000
C 	C 	0.97102 0.74170 0.04068 0.18000
H 	H 	0.99050 0.71850 0.04630 -0.03100
C 	C 	0.91325 0.61400 0.14966 0.00100
H 	H 	0.92700 0.64980 0.17870 0.05000
H 	H 	0.92290 0.54690 0.13110 0.05000
C 	C 	0.89899 0.45330 0.21332 0.02700
H 	H 	0.88320 0.40860 0.22870 0.04500
H 	H 	0.90920 0.39540 0.19060 0.03800
C 	C 	0.86371 0.51670 0.13291 0.01200
H 	H 	0.84700 0.48910 0.15160 0.04500
H 	H 	0.85750 0.58560 0.10780 0.04700
C 	C 	0.87308 0.65760 0.21192 0.02500
H 	H 	0.88750 0.69590 0.23900 0.04300
H 	H 	0.86400 0.72270 0.18770 0.03600
C 	C 	0.73838 0.76610 0.37859 0.33600
C 	C 	0.88706 0.56190 0.17697 0.01200
N 	N 	0.80534 0.76780 0.35977 -0.26300
N 	N 	0.96611 0.27360 0.37257 -0.28900
N 	N 	0.81442 0.23750 0.98426 -0.28900
N 	N 	0.96277 0.80530 0.99384 -0.28300
Ni	Ni	0.78505 0.84612 0.42603 1.08300
Ni	Ni	0.00850 0.83131 0.56997 1.07700
O 	O 	0.80852 0.00490 0.41948 -0.43800
O 	O 	0.79869 0.11240 0.49432 -0.30300
O 	O 	0.74723 0.87380 0.36611 -0.37300
O 	O 	0.75286 0.70350 0.41832 -0.39400
O 	O 	0.52202 0.63420 0.37522 -0.40800
O 	O 	0.51163 0.44550 0.33738 -0.28700
O 	O 	0.97130 0.86500 0.50315 -0.38700
O 	O 	0.98156 0.68370 0.54378 -0.38600
O 	O 	0.63802 0.55890 0.25981 -0.34200
O 	O 	0.87691 0.50070 0.37622 -0.33500
O 	O 	0.90374 0.70940 0.10836 -0.24300
O 	O 	0.91845 0.50220 0.25834 -0.26700
O 	O 	0.87383 0.41540 0.09987 -0.26000
O 	O 	0.85171 0.59310 0.24085 -0.26000
C 	C 	0.31115 0.60030 0.45017 0.42600
C 	C 	0.32917 0.70310 0.43244 -0.28200
C 	C 	0.34732 0.68840 0.39033 0.23200
H 	H 	0.34820 0.61070 0.37280 -0.03100
C 	C 	0.36466 0.78670 0.37264 -0.36300
H 	H 	0.37730 0.77490 0.34460 0.17200
C 	C 	0.36217 0.89960 0.39827 0.37700
C 	C 	0.34413 0.91620 0.43926 -0.39100
H 	H 	0.34230 0.99520 0.45510 0.17800
C 	C 	0.32843 0.81750 0.45789 0.25900
H 	H 	0.31720 0.82880 0.48820 -0.04200
C 	C 	0.39684 0.06310 0.41379 0.37100
C 	C 	0.41109 0.00670 0.45945 -0.37100
H 	H 	0.40620 0.92550 0.46930 0.17000
C 	C 	0.43276 0.07010 0.49096 0.23500
H 	H 	0.44280 0.03120 0.52210 -0.02900
C 	C 	0.43993 0.19050 0.47710 -0.25100
C 	C 	0.42486 0.24810 0.43255 0.22200
H 	H 	0.42910 0.33070 0.42380 -0.04100
C 	C 	0.40313 0.18380 0.40000 -0.35100
H 	H 	0.39290 0.22250 0.36900 0.16800
C 	C 	0.46541 0.25040 0.50950 0.36600
C 	C 	0.21188 0.21310 0.34943 -0.21200
C 	C 	0.19657 0.27700 0.30621 0.17200
H 	H 	0.20290 0.35610 0.29630 -0.00900
C 	C 	0.17147 0.22630 0.27642 -0.29500
H 	H 	0.16140 0.27080 0.24700 0.14800
C 	C 	0.16189 0.10820 0.29169 0.33000
C 	C 	0.17638 0.04530 0.33494 -0.32300
H 	H 	0.16980 0.96760 0.34600 0.15600
C 	C 	0.20146 0.09830 0.36303 0.18600
H 	H 	0.21150 0.05330 0.39230 -0.01300
C 	C 	0.11265 0.05040 0.28540 0.33500
C 	C 	0.10687 0.11360 0.33290 -0.34200
H 	H 	0.12150 0.16090 0.35230 0.16000
C 	C 	0.07981 0.10900 0.35286 0.19500
H 	H 	0.07640 0.15490 0.38500 -0.02000
C 	C 	0.05759 0.03750 0.32611 -0.20300
C 	C 	0.06400 0.96970 0.27882 0.16800
H 	H 	0.04980 0.91780 0.26090 -0.00700
C 	C 	0.09127 0.97700 0.25725 -0.30200
H 	H 	0.09490 0.93320 0.22460 0.14400
C 	C 	0.02785 0.03660 0.34809 0.37800
C 	C 	0.32249 0.33320 0.32821 0.17000
H 	H 	0.32370 0.41920 0.33430 -0.01300
C 	C 	0.33862 0.28370 0.28733 -0.30100
H 	H 	0.35050 0.33450 0.26730 0.15000
C 	C 	0.33671 0.15590 0.27695 0.32200
C 	C 	0.31850 0.08800 0.30858 -0.28900
H 	H 	0.31660 0.00210 0.30310 0.15200
C 	C 	0.30334 0.14640 0.34793 0.17200
H 	H 	0.29080 0.09820 0.36770 -0.02600
C 	C 	0.30672 0.83000 0.01604 0.18400
H 	H 	0.28720 0.85350 0.01180 -0.04900
C 	C 	0.32483 0.89620 0.05525 -0.32700
H 	H 	0.31780 0.96170 0.07600 0.15300
C 	C 	0.35347 0.86180 0.06240 0.32600
C 	C 	0.36258 0.76620 0.02992 -0.32900
H 	H 	0.38190 0.74050 0.03360 0.16000
C 	C 	0.34279 0.70960 0.99221 0.18900
H 	H 	0.34950 0.64590 0.97000 -0.03800
C 	C 	0.44977 0.72760 0.32847 0.20700
H 	H 	0.44960 0.64110 0.32400 -0.05500
C 	C 	0.43317 0.79580 0.28900 -0.34900
H 	H 	0.42190 0.75590 0.25960 0.16200
C 	C 	0.43317 0.92190 0.29293 0.34900
C 	C 	0.45048 0.97410 0.33809 -0.30800
H 	H 	0.45170 0.06060 0.34230 0.15900
C 	C 	0.46587 0.89640 0.37663 0.18400
H 	H 	0.47670 0.93310 0.40740 -0.02900
C 	C 	0.43549 0.34280 0.98883 0.19000
H 	H 	0.42930 0.39200 0.95760 -0.05300
C 	C 	0.41579 0.31470 0.02630 -0.31800
H 	H 	0.39660 0.34220 0.02020 0.15400
C 	C 	0.42484 0.24520 0.07291 0.30900
C 	C 	0.45339 0.20720 0.08151 -0.30200
H 	H 	0.46030 0.16070 0.11320 0.15000
C 	C 	0.47102 0.24170 0.04068 0.18100
H 	H 	0.49050 0.21850 0.04630 -0.03100
C 	C 	0.41325 0.11400 0.14966 0.00100
H 	H 	0.42700 0.14980 0.17870 0.05000
H 	H 	0.42290 0.04690 0.13110 0.05000
C 	C 	0.39899 0.95330 0.21332 0.02500
H 	H 	0.38320 0.90860 0.22870 0.04500
H 	H 	0.40920 0.89540 0.19060 0.03800
C 	C 	0.36371 0.01670 0.13291 0.01500
H 	H 	0.34700 0.98910 0.15160 0.04300
H 	H 	0.35750 0.08560 0.10780 0.04700
C 	C 	0.37308 0.15760 0.21192 0.02500
H 	H 	0.38750 0.19590 0.23900 0.04300
H 	H 	0.36400 0.22270 0.18770 0.03600
C 	C 	0.23838 0.26610 0.37859 0.33600
C 	C 	0.38706 0.06190 0.17697 0.01200
N 	N 	0.30534 0.26780 0.35977 -0.26300
N 	N 	0.46611 0.77360 0.37257 -0.28900
N 	N 	0.31442 0.73750 0.98426 -0.28900
N 	N 	0.46277 0.30530 0.99384 -0.28400
Ni	Ni	0.28505 0.34612 0.42603 1.08300
Ni	Ni	0.50850 0.33131 0.56997 1.07700
O 	O 	0.30852 0.50490 0.41948 -0.43800
O 	O 	0.29869 0.61240 0.49432 -0.30300
O 	O 	0.24723 0.37380 0.36611 -0.37300
O 	O 	0.25286 0.20350 0.41832 -0.39400
O 	O 	0.02202 0.13420 0.37522 -0.40800
O 	O 	0.01163 0.94550 0.33738 -0.28700
O 	O 	0.47130 0.36500 0.50315 -0.38700
O 	O 	0.48156 0.18370 0.54378 -0.38600
O 	O 	0.13802 0.05890 0.25981 -0.34200
O 	O 	0.37691 0.00070 0.37622 -0.33500
O 	O 	0.40374 0.20940 0.10836 -0.24300
O 	O 	0.41845 0.00220 0.25834 -0.26500
O 	O 	0.37383 0.91540 0.09987 -0.26100
O 	O 	0.35171 0.09310 0.24085 -0.26000
C 	C 	0.81115 0.89970 0.95017 0.42600
C 	C 	0.82917 0.79690 0.93244 -0.28200
C 	C 	0.84732 0.81160 0.89033 0.23300
H 	H 	0.84820 0.88930 0.87280 -0.03100
C 	C 	0.86466 0.71330 0.87264 -0.36400
H 	H 	0.87730 0.72510 0.84460 0.17200
C 	C 	0.86217 0.60040 0.89827 0.37700
C 	C 	0.84413 0.58380 0.93926 -0.39100
H 	H 	0.84230 0.50480 0.95510 0.17800
C 	C 	0.82843 0.68250 0.95789 0.26000
H 	H 	0.81720 0.67120 0.98820 -0.04200
C 	C 	0.89684 0.43690 0.91379 0.37100
C 	C 	0.91109 0.49330 0.95945 -0.37200
H 	H 	0.90620 0.57450 0.96930 0.17000
C 	C 	0.93276 0.42990 0.99096 0.23500
H 	H 	0.94280 0.46880 0.02210 -0.02900
C 	C 	0.93993 0.30950 0.97710 -0.25200
C 	C 	0.92486 0.25190 0.93255 0.22200
H 	H 	0.92910 0.16930 0.92380 -0.04100
C 	C 	0.90313 0.31620 0.90000 -0.35100
H 	H 	0.89290 0.27750 0.86900 0.16800
C 	C 	0.96541 0.24960 0.00950 0.36700
C 	C 	0.71188 0.28690 0.84943 -0.21200
C 	C 	0.69657 0.22300 0.80621 0.17200
H 	H 	0.70290 0.14390 0.79630 -0.00900
C 	C 	0.67147 0.27370 0.77642 -0.29600
H 	H 	0.66140 0.22920 0.74700 0.14800
C 	C 	0.66189 0.39180 0.79169 0.33100
C 	C 	0.67638 0.45470 0.83494 -0.32400
H 	H 	0.66980 0.53240 0.84600 0.15700
C 	C 	0.70146 0.40170 0.86303 0.18700
H 	H 	0.71150 0.44670 0.89230 -0.01300
C 	C 	0.61265 0.44960 0.78540 0.33500
C 	C 	0.60687 0.38640 0.83290 -0.34200
H 	H 	0.62150 0.33910 0.85230 0.16000
C 	C 	0.57981 0.39100 0.85286 0.19500
H 	H 	0.57640 0.34510 0.88500 -0.02000
C 	C 	0.55759 0.46250 0.82611 -0.20300
C 	C 	0.56400 0.53030 0.77882 0.16800
H 	H 	0.54980 0.58220 0.76090 -0.00700
C 	C 	0.59127 0.52300 0.75725 -0.30200
H 	H 	0.59490 0.56680 0.72460 0.14400
C 	C 	0.52785 0.46340 0.84809 0.37800
C 	C 	0.82249 0.16680 0.82821 0.17000
H 	H 	0.82370 0.08080 0.83430 -0.01400
C 	C 	0.83862 0.21630 0.78733 -0.30100
H 	H 	0.85050 0.16550 0.76730 0.15000
C 	C 	0.83671 0.34410 0.77695 0.32200
C 	C 	0.81850 0.41200 0.80858 -0.28900
H 	H 	0.81660 0.49790 0.80310 0.15200
C 	C 	0.80334 0.35360 0.84793 0.17200
H 	H 	0.79080 0.40180 0.86770 -0.02600
C 	C 	0.80672 0.67000 0.51604 0.18500
H 	H 	0.78720 0.64650 0.51180 -0.04800
C 	C 	0.82483 0.60380 0.55525 -0.32600
H 	H 	0.81780 0.53830 0.57600 0.15300
C 	C 	0.85347 0.63820 0.56240 0.32600
C 	C 	0.86258 0.73380 0.52992 -0.32800
H 	H 	0.88190 0.75950 0.53360 0.16000
C 	C 	0.84279 0.79040 0.49221 0.18800
H 	H 	0.84950 0.85410 0.47000 -0.03700
C 	C 	0.94977 0.77240 0.82847 0.20700
H 	H 	0.94960 0.85890 0.82400 -0.05500
C 	C 	0.93317 0.70420 0.78900 -0.34900
H 	H 	0.92190 0.74410 0.75960 0.16200
C 	C 	0.93317 0.57810 0.79293 0.35000
C 	C 	0.95048 0.52590 0.83809 -0.30700
H 	H 	0.95170 0.43940 0.84230 0.15800
C 	C 	0.96587 0.60360 0.87663 0.18400
H 	H 	0.97670 0.56690 0.90740 -0.02900
C 	C 	0.93549 0.15720 0.48883 0.19100
H 	H 	0.92930 0.10800 0.45760 -0.05300
C 	C 	0.91579 0.18530 0.52630 -0.31900
H 	H 	0.89660 0.15780 0.52020 0.15500
C 	C 	0.92484 0.25480 0.57291 0.30900
C 	C 	0.95339 0.29280 0.58151 -0.30200
H 	H 	0.96030 0.33930 0.61320 0.15000
C 	C 	0.97102 0.25830 0.54068 0.18100
H 	H 	0.99050 0.28150 0.54630 -0.03100
C 	C 	0.91325 0.38600 0.64966 0.00100
H 	H 	0.92700 0.35020 0.67870 0.05000
H 	H 	0.92290 0.45310 0.63110 0.05000
C 	C 	0.89899 0.54670 0.71332 0.02700
H 	H 	0.88320 0.59140 0.72870 0.04500
H 	H 	0.90920 0.60460 0.69060 0.03800
C 	C 	0.86371 0.48330 0.63291 0.01200
H 	H 	0.84700 0.51090 0.65160 0.04500
H 	H 	0.85750 0.41440 0.60780 0.04700
C 	C 	0.87308 0.34240 0.71192 0.02500
H 	H 	0.88750 0.30410 0.73900 0.04300
H 	H 	0.86400 0.27730 0.68770 0.03600
C 	C 	0.73838 0.23390 0.87859 0.33600
C 	C 	0.88706 0.43810 0.67697 0.01200
N 	N 	0.80534 0.23220 0.85977 -0.26300
N 	N 	0.96611 0.72640 0.87257 -0.28900
N 	N 	0.81442 0.76250 0.48426 -0.28900
N 	N 	0.96277 0.19470 0.49384 -0.28300
Ni	Ni	0.78505 0.15388 0.92603 1.08300
Ni	Ni	0.00850 0.16869 0.06997 1.07700
O 	O 	0.80852 0.99510 0.91948 -0.43700
O 	O 	0.79869 0.88760 0.99432 -0.30200
O 	O 	0.74723 0.12620 0.86611 -0.37300
O 	O 	0.75286 0.29650 0.91832 -0.39400
O 	O 	0.52202 0.36580 0.87522 -0.40800
O 	O 	0.51163 0.55450 0.83738 -0.28700
O 	O 	0.97130 0.13500 0.00315 -0.38700
O 	O 	0.98156 0.31630 0.04378 -0.38600
O 	O 	0.63802 0.44110 0.75981 -0.34200
O 	O 	0.87691 0.49930 0.87622 -0.33500
O 	O 	0.90374 0.29060 0.60836 -0.24300
O 	O 	0.91845 0.49780 0.75834 -0.26700
O 	O 	0.87383 0.58460 0.59987 -0.26000
O 	O 	0.85171 0.40690 0.74085 -0.26000
C 	C 	0.31115 0.39970 0.95017 0.42500
C 	C 	0.32917 0.29690 0.93244 -0.28200
C 	C 	0.34732 0.31160 0.89033 0.23200
H 	H 	0.34820 0.38930 0.87280 -0.03100
C 	C 	0.36466 0.21330 0.87264 -0.36300
H 	H 	0.37730 0.22510 0.84460 0.17200
C 	C 	0.36217 0.10040 0.89827 0.37600
C 	C 	0.34413 0.08380 0.93926 -0.39000
H 	H 	0.34230 0.00480 0.95510 0.17700
C 	C 	0.32843 0.18250 0.95789 0.25900
H 	H 	0.31720 0.17120 0.98820 -0.04200
C 	C 	0.39684 0.93690 0.91379 0.37000
C 	C 	0.41109 0.99330 0.95945 -0.37000
H 	H 	0.40620 0.07450 0.96930 0.16900
C 	C 	0.43276 0.92990 0.99096 0.23600
H 	H 	0.44280 0.96880 0.02210 -0.02900
C 	C 	0.43993 0.80950 0.97710 -0.25100
C 	C 	0.42486 0.75190 0.93255 0.22200
H 	H 	0.42910 0.66930 0.92380 -0.04100
C 	C 	0.40313 0.81620 0.90000 -0.35000
H 	H 	0.39290 0.77750 0.86900 0.16800
C 	C 	0.46541 0.74960 0.00950 0.36600
C 	C 	0.21188 0.78690 0.84943 -0.21100
C 	C 	0.19657 0.72300 0.80621 0.17100
H 	H 	0.20290 0.64390 0.79630 -0.00900
C 	C 	0.17147 0.77370 0.77642 -0.29500
H 	H 	0.16140 0.72920 0.74700 0.14800
C 	C 	0.16189 0.89180 0.79169 0.33000
C 	C 	0.17638 0.95470 0.83494 -0.32200
H 	H 	0.16980 0.03240 0.84600 0.15500
C 	C 	0.20146 0.90170 0.86303 0.18500
H 	H 	0.21150 0.94670 0.89230 -0.01200
C 	C 	0.11265 0.94960 0.78540 0.33500
C 	C 	0.10687 0.88640 0.83290 -0.34200
H 	H 	0.12150 0.83910 0.85230 0.16000
C 	C 	0.07981 0.89100 0.85286 0.19500
H 	H 	0.07640 0.84510 0.88500 -0.01900
C 	C 	0.05759 0.96250 0.82611 -0.20300
C 	C 	0.06400 0.03030 0.77882 0.16700
H 	H 	0.04980 0.08220 0.76090 -0.00700
C 	C 	0.09127 0.02300 0.75725 -0.30200
H 	H 	0.09490 0.06680 0.72460 0.14400
C 	C 	0.02785 0.96340 0.84809 0.37900
C 	C 	0.32249 0.66680 0.82821 0.17000
H 	H 	0.32370 0.58080 0.83430 -0.01300
C 	C 	0.33862 0.71630 0.78733 -0.30100
H 	H 	0.35050 0.66550 0.76730 0.15000
C 	C 	0.33671 0.84410 0.77695 0.32200
C 	C 	0.31850 0.91200 0.80858 -0.28900
H 	H 	0.31660 0.99790 0.80310 0.15200
C 	C 	0.30334 0.85360 0.84793 0.17200
H 	H 	0.29080 0.90180 0.86770 -0.02500
C 	C 	0.30672 0.17000 0.51604 0.18500
H 	H 	0.28720 0.14650 0.51180 -0.04800
C 	C 	0.32483 0.10380 0.55525 -0.32600
H 	H 	0.31780 0.03830 0.57600 0.15300
C 	C 	0.35347 0.13820 0.56240 0.32600
C 	C 	0.36258 0.23380 0.52992 -0.32800
H 	H 	0.38190 0.25950 0.53360 0.16000
C 	C 	0.34279 0.29040 0.49221 0.18800
H 	H 	0.34950 0.35410 0.47000 -0.03700
C 	C 	0.44977 0.27240 0.82847 0.20700
H 	H 	0.44960 0.35890 0.82400 -0.05500
C 	C 	0.43317 0.20420 0.78900 -0.34900
H 	H 	0.42190 0.24410 0.75960 0.16200
C 	C 	0.43317 0.07810 0.79293 0.34900
C 	C 	0.45048 0.02590 0.83809 -0.30900
H 	H 	0.45170 0.93940 0.84230 0.15900
C 	C 	0.46587 0.10360 0.87663 0.18500
H 	H 	0.47670 0.06690 0.90740 -0.03000
C 	C 	0.43549 0.65720 0.48883 0.19100
H 	H 	0.42930 0.60800 0.45760 -0.05300
C 	C 	0.41579 0.68530 0.52630 -0.31900
H 	H 	0.39660 0.65780 0.52020 0.15500
C 	C 	0.42484 0.75480 0.57291 0.30900
C 	C 	0.45339 0.79280 0.58151 -0.30200
H 	H 	0.46030 0.83930 0.61320 0.15000
C 	C 	0.47102 0.75830 0.54068 0.18100
H 	H 	0.49050 0.78150 0.54630 -0.03100
C 	C 	0.41325 0.88600 0.64966 0.00100
H 	H 	0.42700 0.85020 0.67870 0.05000
H 	H 	0.42290 0.95310 0.63110 0.05000
C 	C 	0.39899 0.04670 0.71332 0.02500
H 	H 	0.38320 0.09140 0.72870 0.04500
H 	H 	0.40920 0.10460 0.69060 0.03800
C 	C 	0.36371 0.98330 0.63291 0.01400
H 	H 	0.34700 0.01090 0.65160 0.04400
H 	H 	0.35750 0.91440 0.60780 0.04700
C 	C 	0.37308 0.84240 0.71192 0.02500
H 	H 	0.38750 0.80410 0.73900 0.04300
H 	H 	0.36400 0.77730 0.68770 0.03600
C 	C 	0.23838 0.73390 0.87859 0.33600
C 	C 	0.38706 0.93810 0.67697 0.01300
N 	N 	0.30534 0.73220 0.85977 -0.26300
N 	N 	0.46611 0.22640 0.87257 -0.28900
N 	N 	0.31442 0.26250 0.48426 -0.28900
N 	N 	0.46277 0.69470 0.49384 -0.28300
Ni	Ni	0.28505 0.65388 0.92603 1.08300
Ni	Ni	0.50850 0.66869 0.06997 1.07700
O 	O 	0.30852 0.49510 0.91948 -0.43800
O 	O 	0.29869 0.38760 0.99432 -0.30300
O 	O 	0.24723 0.62620 0.86611 -0.37300
O 	O 	0.25286 0.79650 0.91832 -0.39300
O 	O 	0.02202 0.86580 0.87522 -0.40800
O 	O 	0.01163 0.05450 0.83738 -0.28800
O 	O 	0.47130 0.63500 0.00315 -0.38700
O 	O 	0.48156 0.81630 0.04378 -0.38600
O 	O 	0.13802 0.94110 0.75981 -0.34100
O 	O 	0.37691 0.99930 0.87622 -0.33400
O 	O 	0.40374 0.79060 0.60836 -0.24300
O 	O 	0.41845 0.99780 0.75834 -0.26600
O 	O 	0.37383 0.08460 0.59987 -0.26100
O 	O 	0.35171 0.90690 0.74085 -0.26000
C 	C 	0.18885 0.89970 0.54983 0.42600
C 	C 	0.17083 0.79690 0.56756 -0.28200
C 	C 	0.15268 0.81160 0.60967 0.23300
H 	H 	0.15180 0.88930 0.62720 -0.03100
C 	C 	0.13534 0.71330 0.62736 -0.36400
H 	H 	0.12270 0.72510 0.65540 0.17200
C 	C 	0.13783 0.60040 0.60173 0.37700
C 	C 	0.15587 0.58380 0.56074 -0.39100
H 	H 	0.15770 0.50480 0.54490 0.17800
C 	C 	0.17157 0.68250 0.54211 0.26000
H 	H 	0.18280 0.67120 0.51180 -0.04200
C 	C 	0.10316 0.43690 0.58621 0.37100
C 	C 	0.08891 0.49330 0.54055 -0.37200
H 	H 	0.09380 0.57450 0.53070 0.17000
C 	C 	0.06724 0.42990 0.50904 0.23500
H 	H 	0.05720 0.46880 0.47790 -0.02900
C 	C 	0.06007 0.30950 0.52290 -0.25100
C 	C 	0.07514 0.25190 0.56745 0.22200
H 	H 	0.07090 0.16930 0.57620 -0.04100
C 	C 	0.09687 0.31620 0.60000 -0.35100
H 	H 	0.10710 0.27750 0.63100 0.16800
C 	C 	0.03459 0.24960 0.49050 0.36600
C 	C 	0.28812 0.28690 0.65057 -0.21200
C 	C 	0.30343 0.22300 0.69379 0.17200
H 	H 	0.29710 0.14390 0.70370 -0.00900
C 	C 	0.32853 0.27370 0.72358 -0.29600
H 	H 	0.33860 0.22920 0.75300 0.14800
C 	C 	0.33811 0.39180 0.70831 0.33100
C 	C 	0.32362 0.45470 0.66506 -0.32400
H 	H 	0.33020 0.53240 0.65400 0.15700
C 	C 	0.29854 0.40170 0.63697 0.18700
H 	H 	0.28850 0.44670 0.60770 -0.01300
C 	C 	0.38735 0.44960 0.71460 0.33500
C 	C 	0.39313 0.38640 0.66710 -0.34200
H 	H 	0.37850 0.33910 0.64770 0.16000
C 	C 	0.42019 0.39100 0.64714 0.19500
H 	H 	0.42360 0.34510 0.61500 -0.02000
C 	C 	0.44241 0.46250 0.67389 -0.20300
C 	C 	0.43600 0.53030 0.72118 0.16800
H 	H 	0.45020 0.58220 0.73910 -0.00700
C 	C 	0.40873 0.52300 0.74275 -0.30200
H 	H 	0.40510 0.56680 0.77540 0.14400
C 	C 	0.47215 0.46340 0.65191 0.37800
C 	C 	0.17751 0.16680 0.67179 0.17000
H 	H 	0.17630 0.08080 0.66570 -0.01300
C 	C 	0.16138 0.21630 0.71267 -0.30100
H 	H 	0.14950 0.16550 0.73270 0.15000
C 	C 	0.16329 0.34410 0.72305 0.32200
C 	C 	0.18150 0.41200 0.69142 -0.28900
H 	H 	0.18340 0.49790 0.69690 0.15200
C 	C 	0.19666 0.35360 0.65207 0.17200
H 	H 	0.20920 0.40180 0.63230 -0.02600
C 	C 	0.19328 0.67000 0.98396 0.18500
H 	H 	0.21280 0.64650 0.98820 -0.04800
C 	C 	0.17517 0.60380 0.94475 -0.32600
H 	H 	0.18220 0.53830 0.92400 0.15300
C 	C 	0.14653 0.63820 0.93760 0.32600
C 	C 	0.13742 0.73380 0.97008 -0.32700
H 	H 	0.11810 0.75950 0.96640 0.16000
C 	C 	0.15721 0.79040 0.00779 0.18700
H 	H 	0.15050 0.85410 0.03000 -0.03700
C 	C 	0.05023 0.77240 0.67153 0.20700
H 	H 	0.05040 0.85890 0.67600 -0.05500
C 	C 	0.06683 0.70420 0.71100 -0.34900
H 	H 	0.07810 0.74410 0.74040 0.16200
C 	C 	0.06683 0.57810 0.70707 0.35000
C 	C 	0.04952 0.52590 0.66191 -0.30700
H 	H 	0.04830 0.43940 0.65770 0.15800
C 	C 	0.03413 0.60360 0.62337 0.18400
H 	H 	0.02330 0.56690 0.59260 -0.02900
C 	C 	0.06451 0.15720 0.01117 0.19200
H 	H 	0.07070 0.10800 0.04240 -0.05300
C 	C 	0.08421 0.18530 0.97370 -0.32000
H 	H 	0.10340 0.15780 0.97980 0.15500
C 	C 	0.07516 0.25480 0.92709 0.30900
C 	C 	0.04661 0.29280 0.91849 -0.30200
H 	H 	0.03970 0.33930 0.88680 0.15000
C 	C 	0.02898 0.25830 0.95932 0.18000
H 	H 	0.00950 0.28150 0.95370 -0.03100
C 	C 	0.08675 0.38600 0.85034 0.00100
H 	H 	0.07300 0.35020 0.82130 0.05000
H 	H 	0.07710 0.45310 0.86890 0.05000
C 	C 	0.10101 0.54670 0.78668 0.02700
H 	H 	0.11680 0.59140 0.77130 0.04500
H 	H 	0.09080 0.60460 0.80940 0.03800
C 	C 	0.13629 0.48330 0.86709 0.01200
H 	H 	0.15300 0.51090 0.84840 0.04500
H 	H 	0.14250 0.41440 0.89220 0.04700
C 	C 	0.12692 0.34240 0.78808 0.02500
H 	H 	0.11250 0.30410 0.76100 0.04300
H 	H 	0.13600 0.27730 0.81230 0.03600
C 	C 	0.26162 0.23390 0.62141 0.33600
C 	C 	0.11294 0.43810 0.82303 0.01200
N 	N 	0.19466 0.23220 0.64023 -0.26300
N 	N 	0.03389 0.72640 0.62743 -0.28900
N 	N 	0.18558 0.76250 0.01574 -0.28900
N 	N 	0.03723 0.19470 0.00616 -0.28300
Ni	Ni	0.21495 0.15388 0.57397 1.08300
Ni	Ni	0.99150 0.16869 0.43003 1.07700
O 	O 	0.19148 0.99510 0.58052 -0.43800
O 	O 	0.20131 0.88760 0.50568 -0.30300
O 	O 	0.25277 0.12620 0.63389 -0.37300
O 	O 	0.24714 0.29650 0.58168 -0.39400
O 	O 	0.47798 0.36580 0.62478 -0.40800
O 	O 	0.48837 0.55450 0.66262 -0.28700
O 	O 	0.02870 0.13500 0.49685 -0.38700
O 	O 	0.01844 0.31630 0.45622 -0.38600
O 	O 	0.36198 0.44110 0.74019 -0.34200
O 	O 	0.12309 0.49930 0.62378 -0.33500
O 	O 	0.09626 0.29060 0.89164 -0.24300
O 	O 	0.08155 0.49780 0.74166 -0.26700
O 	O 	0.12617 0.58460 0.90013 -0.26000
O 	O 	0.14829 0.40690 0.75915 -0.26000
C 	C 	0.68885 0.39970 0.54983 0.42600
C 	C 	0.67083 0.29690 0.56756 -0.28200
C 	C 	0.65268 0.31160 0.60967 0.23200
H 	H 	0.65180 0.38930 0.62720 -0.03100
C 	C 	0.63534 0.21330 0.62736 -0.36300
H 	H 	0.62270 0.22510 0.65540 0.17200
C 	C 	0.63783 0.10040 0.60173 0.37700
C 	C 	0.65587 0.08380 0.56074 -0.39100
H 	H 	0.65770 0.00480 0.54490 0.17800
C 	C 	0.67157 0.18250 0.54211 0.25900
H 	H 	0.68280 0.17120 0.51180 -0.04200
C 	C 	0.60316 0.93690 0.58621 0.37100
C 	C 	0.58891 0.99330 0.54055 -0.37100
H 	H 	0.59380 0.07450 0.53070 0.17000
C 	C 	0.56724 0.92990 0.50904 0.23500
H 	H 	0.55720 0.96880 0.47790 -0.02900
C 	C 	0.56007 0.80950 0.52290 -0.25100
C 	C 	0.57514 0.75190 0.56745 0.22200
H 	H 	0.57090 0.66930 0.57620 -0.04100
C 	C 	0.59687 0.81620 0.60000 -0.35100
H 	H 	0.60710 0.77750 0.63100 0.16800
C 	C 	0.53459 0.74960 0.49050 0.36600
C 	C 	0.78812 0.78690 0.65057 -0.21200
C 	C 	0.80343 0.72300 0.69379 0.17200
H 	H 	0.79710 0.64390 0.70370 -0.00900
C 	C 	0.82853 0.77370 0.72358 -0.29500
H 	H 	0.83860 0.72920 0.75300 0.14800
C 	C 	0.83811 0.89180 0.70831 0.33000
C 	C 	0.82362 0.95470 0.66506 -0.32300
H 	H 	0.83020 0.03240 0.65400 0.15600
C 	C 	0.79854 0.90170 0.63697 0.18600
H 	H 	0.78850 0.94670 0.60770 -0.01300
C 	C 	0.88735 0.94960 0.71460 0.33500
C 	C 	0.89313 0.88640 0.66710 -0.34200
H 	H 	0.87850 0.83910 0.64770 0.16000
C 	C 	0.92019 0.89100 0.64714 0.19500
H 	H 	0.92360 0.84510 0.61500 -0.02000
C 	C 	0.94241 0.96250 0.67389 -0.20300
C 	C 	0.93600 0.03030 0.72118 0.16800
H 	H 	0.95020 0.08220 0.73910 -0.00700
C 	C 	0.90873 0.02300 0.74275 -0.30200
H 	H 	0.90510 0.06680 0.77540 0.14400
C 	C 	0.97215 0.96340 0.65191 0.37800
C 	C 	0.67751 0.66680 0.67179 0.17000
H 	H 	0.67630 0.58080 0.66570 -0.01300
C 	C 	0.66138 0.71630 0.71267 -0.30100
H 	H 	0.64950 0.66550 0.73270 0.15000
C 	C 	0.66329 0.84410 0.72305 0.32200
C 	C 	0.68150 0.91200 0.69142 -0.28900
H 	H 	0.68340 0.99790 0.69690 0.15200
C 	C 	0.69666 0.85360 0.65207 0.17200
H 	H 	0.70920 0.90180 0.63230 -0.02600
C 	C 	0.69328 0.17000 0.98396 0.18400
H 	H 	0.71280 0.14650 0.98820 -0.04900
C 	C 	0.67517 0.10380 0.94475 -0.32700
H 	H 	0.68220 0.03830 0.92400 0.15300
C 	C 	0.64653 0.13820 0.93760 0.32600
C 	C 	0.63742 0.23380 0.97008 -0.32900
H 	H 	0.61810 0.25950 0.96640 0.16000
C 	C 	0.65721 0.29040 0.00779 0.18900
H 	H 	0.65050 0.35410 0.03000 -0.03800
C 	C 	0.55023 0.27240 0.67153 0.20700
H 	H 	0.55040 0.35890 0.67600 -0.05500
C 	C 	0.56683 0.20420 0.71100 -0.34900
H 	H 	0.57810 0.24410 0.74040 0.16200
C 	C 	0.56683 0.07810 0.70707 0.34900
C 	C 	0.54952 0.02590 0.66191 -0.30800
H 	H 	0.54830 0.93940 0.65770 0.15900
C 	C 	0.53413 0.10360 0.62337 0.18400
H 	H 	0.52330 0.06690 0.59260 -0.02900
C 	C 	0.56451 0.65720 0.01117 0.19000
H 	H 	0.57070 0.60800 0.04240 -0.05300
C 	C 	0.58421 0.68530 0.97370 -0.31800
H 	H 	0.60340 0.65780 0.97980 0.15400
C 	C 	0.57516 0.75480 0.92709 0.30900
C 	C 	0.54661 0.79280 0.91849 -0.30200
H 	H 	0.53970 0.83930 0.88680 0.15000
C 	C 	0.52898 0.75830 0.95932 0.18100
H 	H 	0.50950 0.78150 0.95370 -0.03100
C 	C 	0.58675 0.88600 0.85034 0.00100
H 	H 	0.57300 0.85020 0.82130 0.05000
H 	H 	0.57710 0.95310 0.86890 0.05000
C 	C 	0.60101 0.04670 0.78668 0.02500
H 	H 	0.61680 0.09140 0.77130 0.04500
H 	H 	0.59080 0.10460 0.80940 0.03800
C 	C 	0.63629 0.98330 0.86709 0.01500
H 	H 	0.65300 0.01090 0.84840 0.04300
H 	H 	0.64250 0.91440 0.89220 0.04700
C 	C 	0.62692 0.84240 0.78808 0.02500
H 	H 	0.61250 0.80410 0.76100 0.04300
H 	H 	0.63600 0.77730 0.81230 0.03600
C 	C 	0.76162 0.73390 0.62141 0.33600
C 	C 	0.61294 0.93810 0.82303 0.01200
N 	N 	0.69466 0.73220 0.64023 -0.26300
N 	N 	0.53389 0.22640 0.62743 -0.28900
N 	N 	0.68558 0.26250 0.01574 -0.28900
N 	N 	0.53723 0.69470 0.00616 -0.28400
Ni	Ni	0.71495 0.65388 0.57397 1.08300
Ni	Ni	0.49150 0.66869 0.43003 1.07700
O 	O 	0.69148 0.49510 0.58052 -0.43800
O 	O 	0.70131 0.38760 0.50568 -0.30300
O 	O 	0.75277 0.62620 0.63389 -0.37300
O 	O 	0.74714 0.79650 0.58168 -0.39400
O 	O 	0.97798 0.86580 0.62478 -0.40800
O 	O 	0.98837 0.05450 0.66262 -0.28700
O 	O 	0.52870 0.63500 0.49685 -0.38700
O 	O 	0.51844 0.81630 0.45622 -0.38600
O 	O 	0.86198 0.94110 0.74019 -0.34200
O 	O 	0.62309 0.99930 0.62378 -0.33500
O 	O 	0.59626 0.79060 0.89164 -0.24300
O 	O 	0.58155 0.99780 0.74166 -0.26500
O 	O 	0.62617 0.08460 0.90013 -0.26100
O 	O 	0.64829 0.90690 0.75915 -0.26000
