data_crystal

_cell_length_a 45.94000
_cell_length_b 11.22800
_cell_length_c 24.48900
_cell_angle_alpha 90.00000
_cell_angle_beta  98.80900
_cell_angle_gamma 90.00000

_symmetry_space_group_name_	'P 1'
_symmetry_space_group_name_H-M	'P 1'

loop_
_symmetry_equiv_pos_as_xyz
  x,y,z

loop_
_atom_site_label
_atom_site_type_symbol
_atom_site_fract_x
_atom_site_fract_y
_atom_site_fract_z
_atom_site_charge
Cd	Cd	0.01422 0.33746 0.05893 1.20300
Cd	Cd	0.21681 0.63792 0.07957 1.18900
N 	N 	0.04454 0.68170 0.49240 -0.28400
O 	O 	0.01690 0.82980 0.96548 -0.38400
N 	N 	0.04220 0.21620 0.12310 -0.27600
O 	O 	0.02700 0.66620 0.01313 -0.42000
N 	N 	0.19669 0.72130 0.15440 -0.26300
N 	N 	0.18441 0.25730 0.51650 -0.29100
O 	O 	0.48032 0.88870 0.10910 -0.43200
O 	O 	0.08556 0.99050 0.24161 -0.25400
O 	O 	0.10109 0.79300 0.38679 -0.25300
C 	C 	0.11180 0.92870 0.08380 0.38100
C 	C 	0.14140 0.97290 0.36940 0.10700
C 	C 	0.09530 0.98930 0.04070 -0.35600
H 	H 	0.10130 0.06360 0.02990 0.16100
O 	O 	0.15371 0.89280 0.26689 -0.25200
C 	C 	0.06969 0.93800 0.01380 0.21300
H 	H 	0.05830 0.97830 0.98490 -0.02700
C 	C 	0.06083 0.82510 0.02980 -0.25100
C 	C 	0.07792 0.77070 0.07340 0.23400
H 	H 	0.07240 0.69630 0.08490 -0.04600
C 	C 	0.10315 0.82330 0.10060 -0.37800
H 	H 	0.11410 0.78530 0.13070 0.17800
O 	O 	0.25254 0.80220 0.08456 -0.39200
C 	C 	0.03322 0.77160 0.00190 0.38500
O 	O 	0.26287 0.64610 0.13880 -0.37600
C 	C 	0.03447 0.74160 0.44610 0.15900
H 	H 	0.01440 0.75780 0.43870 -0.03300
O 	O 	0.37160 0.97750 0.23320 -0.32500
C 	C 	0.07326 0.65530 0.50010 0.16200
H 	H 	0.08070 0.60990 0.53090 -0.05000
O 	O 	0.49905 0.03720 0.16290 -0.30000
C 	C 	0.06028 0.26140 0.16520 0.16600
H 	H 	0.06280 0.34360 0.16700 -0.04900
C 	C 	0.07567 0.19200 0.20660 -0.29900
H 	H 	0.08820 0.22710 0.23560 0.14100
C 	C 	0.07215 0.07150 0.20430 0.30000
C 	C 	0.05365 0.02300 0.15950 -0.28200
H 	H 	0.05170 0.94090 0.15550 0.14700
C 	C 	0.03850 0.09790 0.12170 0.15900
H 	H 	0.02500 0.06550 0.09350 -0.02300
C 	C 	0.10596 0.03640 0.28620 0.03400
H 	H 	0.09640 0.09420 0.30690 0.03600
H 	H 	0.12220 0.07510 0.27230 0.04000
C 	C 	0.11713 0.93050 0.32300 -0.01800
C 	C 	0.09107 0.87910 0.34530 0.03300
H 	H 	0.08050 0.94210 0.36090 0.04000
H 	H 	0.07780 0.84180 0.31560 0.03900
C 	C 	0.08134 0.75600 0.41950 0.30000
C 	C 	0.09240 0.69030 0.46600 -0.29200
H 	H 	0.11230 0.67070 0.47370 0.14200
C 	C 	0.05172 0.78060 0.40900 -0.29100
H 	H 	0.04360 0.82250 0.37750 0.14300
O 	O 	0.12930 0.06880 0.39864 -0.27600
C 	C 	0.14823 0.12670 0.43720 0.33300
C 	C 	0.13718 0.21620 0.46520 -0.31800
H 	H 	0.11720 0.23510 0.45790 0.15600
C 	C 	0.17778 0.09980 0.44900 -0.31300
H 	H 	0.18590 0.03880 0.43060 0.15400
C 	C 	0.13098 0.83660 0.29030 0.04200
H 	H 	0.13900 0.77220 0.31440 0.03500
H 	H 	0.11630 0.80400 0.26150 0.03700
C 	C 	0.16786 0.83050 0.23090 0.31400
C 	C 	0.18782 0.89250 0.20630 -0.28700
H 	H 	0.19190 0.97200 0.21500 0.16100
C 	C 	0.20167 0.83410 0.16820 0.17600
H 	H 	0.21530 0.87610 0.15120 -0.03000
C 	C 	0.17733 0.66240 0.17970 0.16500
H 	H 	0.17390 0.58270 0.17070 -0.00500
C 	C 	0.16244 0.71100 0.21750 -0.29900
H 	H 	0.14910 0.66650 0.23400 0.15400
C 	C 	0.15577 0.27890 0.50440 0.17800
H 	H 	0.14780 0.33960 0.52340 -0.05200
C 	C 	0.19482 0.16630 0.48910 0.16600
H 	H 	0.21470 0.14720 0.49790 -0.04800
C 	C 	0.26866 0.74790 0.12250 0.35500
C 	C 	0.29633 0.80780 0.15170 -0.23200
C 	C 	0.30368 0.92070 0.13650 0.21400
H 	H 	0.29190 0.95910 0.10760 -0.02300
C 	C 	0.32823 0.97720 0.16360 -0.35100
H 	H 	0.33260 0.05470 0.15430 0.16800
C 	C 	0.34587 0.91910 0.20370 0.35000
C 	C 	0.33887 0.80900 0.22040 -0.35200
H 	H 	0.35040 0.77190 0.25010 0.17000
C 	C 	0.31479 0.75440 0.19270 0.23400
H 	H 	0.31080 0.67670 0.20230 -0.02400
C 	C 	0.39712 0.97530 0.20780 0.33200
C 	C 	0.39937 0.91340 0.16070 -0.32900
H 	H 	0.38340 0.87010 0.14310 0.15200
C 	C 	0.42563 0.91530 0.13930 0.19400
H 	H 	0.42700 0.87550 0.10640 -0.02100
C 	C 	0.44990 0.97610 0.16640 -0.21900
C 	C 	0.44670 0.03650 0.21490 0.20100
H 	H 	0.46260 0.07870 0.23380 -0.01400
C 	C 	0.42091 0.03440 0.23490 -0.32800
H 	H 	0.41940 0.07390 0.26770 0.15700
C 	C 	0.47852 0.96960 0.14450 0.38800
C 	C 	0.18540 0.41780 0.08980 -1.71200
O 	O 	0.16720 0.50300 0.08090 -0.00600
O 	O 	0.21240 0.43420 0.09300 -0.62500
C 	C 	0.17482 0.29000 0.08460 0.13700
C 	C 	0.15120 0.28340 0.11000 0.03800
H 	H 	0.14330 0.35110 0.12380 0.07100
C 	C 	0.18720 0.19080 0.07240 -0.13000
H 	H 	0.20500 0.19550 0.05920 0.10100
C 	C 	0.15050 0.07600 0.09660 0.25900
C 	C 	0.13860 0.16790 0.11520 -0.22800
H 	H 	0.12180 0.15970 0.13190 0.12200
C 	C 	0.17540 0.08050 0.07800 -0.13700
H 	H 	0.18480 0.01180 0.06880 0.09100
O 	O 	0.13780 0.96920 0.11150 -0.32100
O 	O 	0.19510 0.47560 0.08960 0.66000
O 	O 	0.20440 0.37590 0.01780 -0.61100
C 	C 	0.19230 0.39020 0.06190 1.60600
Cd	Cd	0.51422 0.83746 0.05893 1.20400
Cd	Cd	0.71681 0.13792 0.07957 1.19000
N 	N 	0.54454 0.18170 0.49240 -0.28300
O 	O 	0.51690 0.32980 0.96548 -0.38300
N 	N 	0.54220 0.71620 0.12310 -0.27400
O 	O 	0.52700 0.16620 0.01313 -0.41900
N 	N 	0.69669 0.22130 0.15440 -0.26200
N 	N 	0.68441 0.75730 0.51650 -0.29000
O 	O 	0.98032 0.38870 0.10910 -0.43100
O 	O 	0.58556 0.49050 0.24161 -0.25300
O 	O 	0.60109 0.29300 0.38679 -0.25200
C 	C 	0.61180 0.42870 0.08380 0.38200
C 	C 	0.64140 0.47290 0.36940 0.10800
C 	C 	0.59530 0.48930 0.04070 -0.35500
H 	H 	0.60130 0.56360 0.02990 0.16200
O 	O 	0.65371 0.39280 0.26689 -0.25100
C 	C 	0.56969 0.43800 0.01380 0.21400
H 	H 	0.55830 0.47830 0.98490 -0.02600
C 	C 	0.56083 0.32510 0.02980 -0.25000
C 	C 	0.57792 0.27070 0.07340 0.23500
H 	H 	0.57240 0.19630 0.08490 -0.04500
C 	C 	0.60315 0.32330 0.10060 -0.37800
H 	H 	0.61410 0.28530 0.13070 0.17900
O 	O 	0.75254 0.30220 0.08456 -0.39100
C 	C 	0.53322 0.27160 0.00190 0.38500
O 	O 	0.76287 0.14610 0.13880 -0.37500
C 	C 	0.53447 0.24160 0.44610 0.16000
H 	H 	0.51440 0.25780 0.43870 -0.03200
O 	O 	0.87160 0.47750 0.23320 -0.32600
C 	C 	0.57326 0.15530 0.50010 0.16200
H 	H 	0.58070 0.10990 0.53090 -0.05000
O 	O 	0.99905 0.53720 0.16290 -0.30000
C 	C 	0.56028 0.76140 0.16520 0.16600
H 	H 	0.56280 0.84360 0.16700 -0.04900
C 	C 	0.57567 0.69200 0.20660 -0.29900
H 	H 	0.58820 0.72710 0.23560 0.14100
C 	C 	0.57215 0.57150 0.20430 0.30100
C 	C 	0.55365 0.52300 0.15950 -0.28100
H 	H 	0.55170 0.44090 0.15550 0.14600
C 	C 	0.53850 0.59790 0.12170 0.15800
H 	H 	0.52500 0.56550 0.09350 -0.02300
C 	C 	0.60596 0.53640 0.28620 0.03600
H 	H 	0.59640 0.59420 0.30690 0.03600
H 	H 	0.62220 0.57510 0.27230 0.04000
C 	C 	0.61713 0.43050 0.32300 -0.01900
C 	C 	0.59107 0.37910 0.34530 0.03400
H 	H 	0.58050 0.44210 0.36090 0.04000
H 	H 	0.57780 0.34180 0.31560 0.03900
C 	C 	0.58134 0.25600 0.41950 0.30000
C 	C 	0.59240 0.19030 0.46600 -0.29200
H 	H 	0.61230 0.17070 0.47370 0.14200
C 	C 	0.55172 0.28060 0.40900 -0.29100
H 	H 	0.54360 0.32250 0.37750 0.14300
O 	O 	0.62930 0.56880 0.39864 -0.27500
C 	C 	0.64823 0.62670 0.43720 0.33300
C 	C 	0.63718 0.71620 0.46520 -0.31800
H 	H 	0.61720 0.73510 0.45790 0.15600
C 	C 	0.67778 0.59980 0.44900 -0.31300
H 	H 	0.68590 0.53880 0.43060 0.15400
C 	C 	0.63098 0.33660 0.29030 0.04300
H 	H 	0.63900 0.27220 0.31440 0.03500
H 	H 	0.61630 0.30400 0.26150 0.03700
C 	C 	0.66786 0.33050 0.23090 0.31400
C 	C 	0.68782 0.39250 0.20630 -0.28700
H 	H 	0.69190 0.47200 0.21500 0.16100
C 	C 	0.70167 0.33410 0.16820 0.17600
H 	H 	0.71530 0.37610 0.15120 -0.03000
C 	C 	0.67733 0.16240 0.17970 0.16500
H 	H 	0.67390 0.08270 0.17070 -0.00500
C 	C 	0.66244 0.21100 0.21750 -0.29900
H 	H 	0.64910 0.16650 0.23400 0.15400
C 	C 	0.65577 0.77890 0.50440 0.17800
H 	H 	0.64780 0.83960 0.52340 -0.05200
C 	C 	0.69482 0.66630 0.48910 0.16600
H 	H 	0.71470 0.64720 0.49790 -0.04800
C 	C 	0.76866 0.24790 0.12250 0.35600
C 	C 	0.79633 0.30780 0.15170 -0.23200
C 	C 	0.80368 0.42070 0.13650 0.21500
H 	H 	0.79190 0.45910 0.10760 -0.02400
C 	C 	0.82823 0.47720 0.16360 -0.35300
H 	H 	0.83260 0.55470 0.15430 0.16900
C 	C 	0.84587 0.41910 0.20370 0.35000
C 	C 	0.83887 0.30900 0.22040 -0.35300
H 	H 	0.85040 0.27190 0.25010 0.17000
C 	C 	0.81479 0.25440 0.19270 0.23400
H 	H 	0.81080 0.17670 0.20230 -0.02400
C 	C 	0.89712 0.47530 0.20780 0.33200
C 	C 	0.89937 0.41340 0.16070 -0.32900
H 	H 	0.88340 0.37010 0.14310 0.15200
C 	C 	0.92563 0.41530 0.13930 0.19400
H 	H 	0.92700 0.37550 0.10640 -0.02100
C 	C 	0.94990 0.47610 0.16640 -0.21900
C 	C 	0.94670 0.53650 0.21490 0.20100
H 	H 	0.96260 0.57870 0.23380 -0.01400
C 	C 	0.92091 0.53440 0.23490 -0.32800
H 	H 	0.91940 0.57390 0.26770 0.15700
C 	C 	0.97852 0.46960 0.14450 0.38800
C 	C 	0.68540 0.91780 0.08980 -1.71300
O 	O 	0.66720 0.00300 0.08090 -0.00700
O 	O 	0.71240 0.93420 0.09300 -0.62500
C 	C 	0.67482 0.79000 0.08460 0.13700
C 	C 	0.65120 0.78340 0.11000 0.03800
H 	H 	0.64330 0.85110 0.12380 0.07100
C 	C 	0.68720 0.69080 0.07240 -0.13000
H 	H 	0.70500 0.69550 0.05920 0.10100
C 	C 	0.65050 0.57600 0.09660 0.26000
C 	C 	0.63860 0.66790 0.11520 -0.22800
H 	H 	0.62180 0.65970 0.13190 0.12200
C 	C 	0.67540 0.58050 0.07800 -0.13700
H 	H 	0.68480 0.51180 0.06880 0.09100
O 	O 	0.63780 0.46920 0.11150 -0.32100
O 	O 	0.69510 0.97560 0.08960 0.66100
O 	O 	0.70440 0.87590 0.01780 -0.61100
C 	C 	0.69230 0.89020 0.06190 1.60700
Cd	Cd	0.98578 0.33746 0.44107 1.20400
Cd	Cd	0.78319 0.63792 0.42043 1.19000
N 	N 	0.95546 0.68170 0.00760 -0.28300
O 	O 	0.98310 0.82980 0.53452 -0.38300
N 	N 	0.95780 0.21620 0.37690 -0.27400
O 	O 	0.97300 0.66620 0.48687 -0.41900
N 	N 	0.80331 0.72130 0.34560 -0.26200
N 	N 	0.81559 0.25730 0.98350 -0.29000
O 	O 	0.51968 0.88870 0.39090 -0.43100
O 	O 	0.91444 0.99050 0.25839 -0.25300
O 	O 	0.89891 0.79300 0.11321 -0.25100
C 	C 	0.88820 0.92870 0.41620 0.38200
C 	C 	0.85860 0.97290 0.13060 0.10900
C 	C 	0.90470 0.98930 0.45930 -0.35500
H 	H 	0.89870 0.06360 0.47010 0.16200
O 	O 	0.84629 0.89280 0.23311 -0.25100
C 	C 	0.93031 0.93800 0.48620 0.21400
H 	H 	0.94170 0.97830 0.51510 -0.02600
C 	C 	0.93917 0.82510 0.47020 -0.25000
C 	C 	0.92208 0.77070 0.42660 0.23500
H 	H 	0.92760 0.69630 0.41510 -0.04500
C 	C 	0.89685 0.82330 0.39940 -0.37800
H 	H 	0.88590 0.78530 0.36930 0.17900
O 	O 	0.74746 0.80220 0.41544 -0.39100
C 	C 	0.96678 0.77160 0.49810 0.38500
O 	O 	0.73713 0.64610 0.36120 -0.37500
C 	C 	0.96553 0.74160 0.05390 0.16000
H 	H 	0.98560 0.75780 0.06130 -0.03200
O 	O 	0.62840 0.97750 0.26680 -0.32500
C 	C 	0.92674 0.65530 0.99990 0.16100
H 	H 	0.91930 0.60990 0.96910 -0.05000
O 	O 	0.50095 0.03720 0.33710 -0.30000
C 	C 	0.93972 0.26140 0.33480 0.16500
H 	H 	0.93720 0.34360 0.33300 -0.04900
C 	C 	0.92433 0.19200 0.29340 -0.29900
H 	H 	0.91180 0.22710 0.26440 0.14100
C 	C 	0.92785 0.07150 0.29570 0.30000
C 	C 	0.94635 0.02300 0.34050 -0.28200
H 	H 	0.94830 0.94090 0.34450 0.14600
C 	C 	0.96150 0.09790 0.37830 0.15900
H 	H 	0.97500 0.06550 0.40650 -0.02300
C 	C 	0.89404 0.03640 0.21380 0.03400
H 	H 	0.90360 0.09420 0.19310 0.03600
H 	H 	0.87780 0.07510 0.22770 0.04000
C 	C 	0.88287 0.93050 0.17700 -0.01800
C 	C 	0.90893 0.87910 0.15470 0.03300
H 	H 	0.91950 0.94210 0.13910 0.04000
H 	H 	0.92220 0.84180 0.18440 0.03900
C 	C 	0.91866 0.75600 0.08050 0.30000
C 	C 	0.90760 0.69030 0.03400 -0.29100
H 	H 	0.88770 0.67070 0.02630 0.14200
C 	C 	0.94828 0.78060 0.09100 -0.29100
H 	H 	0.95640 0.82250 0.12250 0.14300
O 	O 	0.87070 0.06880 0.10136 -0.27600
C 	C 	0.85177 0.12670 0.06280 0.33300
C 	C 	0.86282 0.21620 0.03480 -0.31900
H 	H 	0.88280 0.23510 0.04210 0.15600
C 	C 	0.82222 0.09980 0.05100 -0.31300
H 	H 	0.81410 0.03880 0.06940 0.15400
C 	C 	0.86902 0.83660 0.20970 0.04200
H 	H 	0.86100 0.77220 0.18560 0.03500
H 	H 	0.88370 0.80400 0.23850 0.03700
C 	C 	0.83214 0.83050 0.26910 0.31400
C 	C 	0.81218 0.89250 0.29370 -0.28700
H 	H 	0.80810 0.97200 0.28500 0.16100
C 	C 	0.79833 0.83410 0.33180 0.17600
H 	H 	0.78470 0.87610 0.34880 -0.03000
C 	C 	0.82267 0.66240 0.32030 0.16500
H 	H 	0.82610 0.58270 0.32930 -0.00500
C 	C 	0.83756 0.71100 0.28250 -0.29900
H 	H 	0.85090 0.66650 0.26600 0.15400
C 	C 	0.84423 0.27890 0.99560 0.17800
H 	H 	0.85220 0.33960 0.97660 -0.05200
C 	C 	0.80518 0.16630 0.01090 0.16600
H 	H 	0.78530 0.14720 0.00210 -0.04800
C 	C 	0.73134 0.74790 0.37750 0.35600
C 	C 	0.70367 0.80780 0.34830 -0.23200
C 	C 	0.69632 0.92070 0.36350 0.21500
H 	H 	0.70810 0.95910 0.39240 -0.02400
C 	C 	0.67177 0.97720 0.33640 -0.35200
H 	H 	0.66740 0.05470 0.34570 0.16800
C 	C 	0.65413 0.91910 0.29630 0.35000
C 	C 	0.66113 0.80900 0.27960 -0.35300
H 	H 	0.64960 0.77190 0.24990 0.17000
C 	C 	0.68521 0.75440 0.30730 0.23400
H 	H 	0.68920 0.67670 0.29770 -0.02400
C 	C 	0.60288 0.97530 0.29220 0.33200
C 	C 	0.60063 0.91340 0.33930 -0.32900
H 	H 	0.61660 0.87010 0.35690 0.15200
C 	C 	0.57437 0.91530 0.36070 0.19400
H 	H 	0.57300 0.87550 0.39360 -0.02100
C 	C 	0.55010 0.97610 0.33360 -0.21900
C 	C 	0.55330 0.03650 0.28510 0.20100
H 	H 	0.53740 0.07870 0.26620 -0.01400
C 	C 	0.57909 0.03440 0.26510 -0.32800
H 	H 	0.58060 0.07390 0.23230 0.15700
C 	C 	0.52148 0.96960 0.35550 0.38800
C 	C 	0.81460 0.41780 0.41020 -1.71200
O 	O 	0.83280 0.50300 0.41910 -0.00600
O 	O 	0.78760 0.43420 0.40700 -0.62500
C 	C 	0.82518 0.29000 0.41540 0.13600
C 	C 	0.84880 0.28340 0.39000 0.03800
H 	H 	0.85670 0.35110 0.37620 0.07100
C 	C 	0.81280 0.19080 0.42760 -0.13000
H 	H 	0.79500 0.19550 0.44080 0.10100
C 	C 	0.84950 0.07600 0.40340 0.26000
C 	C 	0.86140 0.16790 0.38480 -0.22800
H 	H 	0.87820 0.15970 0.36810 0.12200
C 	C 	0.82460 0.08050 0.42200 -0.13700
H 	H 	0.81520 0.01180 0.43120 0.09100
O 	O 	0.86220 0.96920 0.38850 -0.32100
O 	O 	0.80490 0.47560 0.41040 0.66000
O 	O 	0.79560 0.37590 0.48220 -0.61100
C 	C 	0.80770 0.39020 0.43810 1.60700
Cd	Cd	0.48578 0.83746 0.44107 1.20400
Cd	Cd	0.28319 0.13792 0.42043 1.19000
N 	N 	0.45546 0.18170 0.00760 -0.28400
O 	O 	0.48310 0.32980 0.53452 -0.38300
N 	N 	0.45780 0.71620 0.37690 -0.27400
O 	O 	0.47300 0.16620 0.48687 -0.41900
N 	N 	0.30331 0.22130 0.34560 -0.26200
N 	N 	0.31559 0.75730 0.98350 -0.29000
O 	O 	0.01968 0.38870 0.39090 -0.43100
O 	O 	0.41444 0.49050 0.25839 -0.25300
O 	O 	0.39891 0.29300 0.11321 -0.25200
C 	C 	0.38820 0.42870 0.41620 0.38200
C 	C 	0.35860 0.47290 0.13060 0.10800
C 	C 	0.40470 0.48930 0.45930 -0.35500
H 	H 	0.39870 0.56360 0.47010 0.16200
O 	O 	0.34629 0.39280 0.23311 -0.25100
C 	C 	0.43031 0.43800 0.48620 0.21400
H 	H 	0.44170 0.47830 0.51510 -0.02600
C 	C 	0.43917 0.32510 0.47020 -0.25000
C 	C 	0.42208 0.27070 0.42660 0.23500
H 	H 	0.42760 0.19630 0.41510 -0.04500
C 	C 	0.39685 0.32330 0.39940 -0.37800
H 	H 	0.38590 0.28530 0.36930 0.17900
O 	O 	0.24746 0.30220 0.41544 -0.39100
C 	C 	0.46678 0.27160 0.49810 0.38500
O 	O 	0.23713 0.14610 0.36120 -0.37500
C 	C 	0.46553 0.24160 0.05390 0.16000
H 	H 	0.48560 0.25780 0.06130 -0.03200
O 	O 	0.12840 0.47750 0.26680 -0.32600
C 	C 	0.42674 0.15530 0.99990 0.16300
H 	H 	0.41930 0.10990 0.96910 -0.05000
O 	O 	0.00095 0.53720 0.33710 -0.30000
C 	C 	0.43972 0.76140 0.33480 0.16600
H 	H 	0.43720 0.84360 0.33300 -0.04900
C 	C 	0.42433 0.69200 0.29340 -0.29900
H 	H 	0.41180 0.72710 0.26440 0.14100
C 	C 	0.42785 0.57150 0.29570 0.30100
C 	C 	0.44635 0.52300 0.34050 -0.28100
H 	H 	0.44830 0.44090 0.34450 0.14600
C 	C 	0.46150 0.59790 0.37830 0.15800
H 	H 	0.47500 0.56550 0.40650 -0.02300
C 	C 	0.39404 0.53640 0.21380 0.03600
H 	H 	0.40360 0.59420 0.19310 0.03600
H 	H 	0.37780 0.57510 0.22770 0.04000
C 	C 	0.38287 0.43050 0.17700 -0.01900
C 	C 	0.40893 0.37910 0.15470 0.03400
H 	H 	0.41950 0.44210 0.13910 0.04000
H 	H 	0.42220 0.34180 0.18440 0.03900
C 	C 	0.41866 0.25600 0.08050 0.30100
C 	C 	0.40760 0.19030 0.03400 -0.29300
H 	H 	0.38770 0.17070 0.02630 0.14200
C 	C 	0.44828 0.28060 0.09100 -0.29200
H 	H 	0.45640 0.32250 0.12250 0.14300
O 	O 	0.37070 0.56880 0.10136 -0.27500
C 	C 	0.35177 0.62670 0.06280 0.33300
C 	C 	0.36282 0.71620 0.03480 -0.31800
H 	H 	0.38280 0.73510 0.04210 0.15600
C 	C 	0.32222 0.59980 0.05100 -0.31300
H 	H 	0.31410 0.53880 0.06940 0.15400
C 	C 	0.36902 0.33660 0.20970 0.04300
H 	H 	0.36100 0.27220 0.18560 0.03500
H 	H 	0.38370 0.30400 0.23850 0.03700
C 	C 	0.33214 0.33050 0.26910 0.31400
C 	C 	0.31218 0.39250 0.29370 -0.28700
H 	H 	0.30810 0.47200 0.28500 0.16100
C 	C 	0.29833 0.33410 0.33180 0.17600
H 	H 	0.28470 0.37610 0.34880 -0.03000
C 	C 	0.32267 0.16240 0.32030 0.16500
H 	H 	0.32610 0.08270 0.32930 -0.00500
C 	C 	0.33756 0.21100 0.28250 -0.29900
H 	H 	0.35090 0.16650 0.26600 0.15400
C 	C 	0.34423 0.77890 0.99560 0.17700
H 	H 	0.35220 0.83960 0.97660 -0.05100
C 	C 	0.30518 0.66630 0.01090 0.16600
H 	H 	0.28530 0.64720 0.00210 -0.04800
C 	C 	0.23134 0.24790 0.37750 0.35600
C 	C 	0.20367 0.30780 0.34830 -0.23200
C 	C 	0.19632 0.42070 0.36350 0.21500
H 	H 	0.20810 0.45910 0.39240 -0.02400
C 	C 	0.17177 0.47720 0.33640 -0.35300
H 	H 	0.16740 0.55470 0.34570 0.16900
C 	C 	0.15413 0.41910 0.29630 0.35000
C 	C 	0.16113 0.30900 0.27960 -0.35300
H 	H 	0.14960 0.27190 0.24990 0.17000
C 	C 	0.18521 0.25440 0.30730 0.23400
H 	H 	0.18920 0.17670 0.29770 -0.02400
C 	C 	0.10288 0.47530 0.29220 0.33200
C 	C 	0.10063 0.41340 0.33930 -0.32900
H 	H 	0.11660 0.37010 0.35690 0.15200
C 	C 	0.07437 0.41530 0.36070 0.19400
H 	H 	0.07300 0.37550 0.39360 -0.02100
C 	C 	0.05010 0.47610 0.33360 -0.21900
C 	C 	0.05330 0.53650 0.28510 0.20100
H 	H 	0.03740 0.57870 0.26620 -0.01400
C 	C 	0.07909 0.53440 0.26510 -0.32800
H 	H 	0.08060 0.57390 0.23230 0.15700
C 	C 	0.02148 0.46960 0.35550 0.38800
C 	C 	0.31460 0.91780 0.41020 -1.71300
O 	O 	0.33280 0.00300 0.41910 -0.00600
O 	O 	0.28760 0.93420 0.40700 -0.62500
C 	C 	0.32518 0.79000 0.41540 0.13600
C 	C 	0.34880 0.78340 0.39000 0.03900
H 	H 	0.35670 0.85110 0.37620 0.07100
C 	C 	0.31280 0.69080 0.42760 -0.13000
H 	H 	0.29500 0.69550 0.44080 0.10100
C 	C 	0.34950 0.57600 0.40340 0.26100
C 	C 	0.36140 0.66790 0.38480 -0.22800
H 	H 	0.37820 0.65970 0.36810 0.12200
C 	C 	0.32460 0.58050 0.42200 -0.13800
H 	H 	0.31520 0.51180 0.43120 0.09200
O 	O 	0.36220 0.46920 0.38850 -0.32100
O 	O 	0.30490 0.97560 0.41040 0.66100
O 	O 	0.29560 0.87590 0.48220 -0.61200
C 	C 	0.30770 0.89020 0.43810 1.60700
Cd	Cd	0.98578 0.66254 0.94107 1.20400
Cd	Cd	0.78319 0.36208 0.92043 1.19000
N 	N 	0.95546 0.31830 0.50760 -0.28300
O 	O 	0.98310 0.17020 0.03452 -0.38300
N 	N 	0.95780 0.78380 0.87690 -0.27500
O 	O 	0.97300 0.33380 0.98687 -0.41900
N 	N 	0.80331 0.27870 0.84560 -0.26200
N 	N 	0.81559 0.74270 0.48350 -0.29000
O 	O 	0.51968 0.11130 0.89090 -0.43100
O 	O 	0.91444 0.00950 0.75839 -0.25300
O 	O 	0.89891 0.20700 0.61321 -0.25200
C 	C 	0.88820 0.07130 0.91620 0.38200
C 	C 	0.85860 0.02710 0.63060 0.10800
C 	C 	0.90470 0.01070 0.95930 -0.35500
H 	H 	0.89870 0.93640 0.97010 0.16200
O 	O 	0.84629 0.10720 0.73311 -0.25100
C 	C 	0.93031 0.06200 0.98620 0.21400
H 	H 	0.94170 0.02170 0.01510 -0.02600
C 	C 	0.93917 0.17490 0.97020 -0.25000
C 	C 	0.92208 0.22930 0.92660 0.23500
H 	H 	0.92760 0.30370 0.91510 -0.04500
C 	C 	0.89685 0.17670 0.89940 -0.37700
H 	H 	0.88590 0.21470 0.86930 0.17900
O 	O 	0.74746 0.19780 0.91544 -0.39100
C 	C 	0.96678 0.22840 0.99810 0.38600
O 	O 	0.73713 0.35390 0.86120 -0.37500
C 	C 	0.96553 0.25840 0.55390 0.16000
H 	H 	0.98560 0.24220 0.56130 -0.03200
O 	O 	0.62840 0.02250 0.76680 -0.32500
C 	C 	0.92674 0.34470 0.49990 0.16200
H 	H 	0.91930 0.39010 0.46910 -0.05000
O 	O 	0.50095 0.96280 0.83710 -0.30000
C 	C 	0.93972 0.73860 0.83480 0.16600
H 	H 	0.93720 0.65640 0.83300 -0.04900
C 	C 	0.92433 0.80800 0.79340 -0.29900
H 	H 	0.91180 0.77290 0.76440 0.14100
C 	C 	0.92785 0.92850 0.79570 0.30000
C 	C 	0.94635 0.97700 0.84050 -0.28200
H 	H 	0.94830 0.05910 0.84450 0.14700
C 	C 	0.96150 0.90210 0.87830 0.15900
H 	H 	0.97500 0.93450 0.90650 -0.02300
C 	C 	0.89404 0.96360 0.71380 0.03400
H 	H 	0.90360 0.90580 0.69310 0.03600
H 	H 	0.87780 0.92490 0.72770 0.04000
C 	C 	0.88287 0.06950 0.67700 -0.01800
C 	C 	0.90893 0.12090 0.65470 0.03300
H 	H 	0.91950 0.05790 0.63910 0.04000
H 	H 	0.92220 0.15820 0.68440 0.03900
C 	C 	0.91866 0.24400 0.58050 0.30000
C 	C 	0.90760 0.30970 0.53400 -0.29200
H 	H 	0.88770 0.32930 0.52630 0.14200
C 	C 	0.94828 0.21940 0.59100 -0.29100
H 	H 	0.95640 0.17750 0.62250 0.14300
O 	O 	0.87070 0.93120 0.60136 -0.27600
C 	C 	0.85177 0.87330 0.56280 0.33300
C 	C 	0.86282 0.78380 0.53480 -0.31800
H 	H 	0.88280 0.76490 0.54210 0.15600
C 	C 	0.82222 0.90020 0.55100 -0.31300
H 	H 	0.81410 0.96120 0.56940 0.15400
C 	C 	0.86902 0.16340 0.70970 0.04200
H 	H 	0.86100 0.22780 0.68560 0.03500
H 	H 	0.88370 0.19600 0.73850 0.03700
C 	C 	0.83214 0.16950 0.76910 0.31400
C 	C 	0.81218 0.10750 0.79370 -0.28700
H 	H 	0.80810 0.02800 0.78500 0.16100
C 	C 	0.79833 0.16590 0.83180 0.17600
H 	H 	0.78470 0.12390 0.84880 -0.03000
C 	C 	0.82267 0.33760 0.82030 0.16500
H 	H 	0.82610 0.41730 0.82930 -0.00500
C 	C 	0.83756 0.28900 0.78250 -0.29900
H 	H 	0.85090 0.33350 0.76600 0.15400
C 	C 	0.84423 0.72110 0.49560 0.17800
H 	H 	0.85220 0.66040 0.47660 -0.05200
C 	C 	0.80518 0.83370 0.51090 0.16600
H 	H 	0.78530 0.85280 0.50210 -0.04800
C 	C 	0.73134 0.25210 0.87750 0.35500
C 	C 	0.70367 0.19220 0.84830 -0.23200
C 	C 	0.69632 0.07930 0.86350 0.21400
H 	H 	0.70810 0.04090 0.89240 -0.02300
C 	C 	0.67177 0.02280 0.83640 -0.35100
H 	H 	0.66740 0.94530 0.84570 0.16800
C 	C 	0.65413 0.08090 0.79630 0.35000
C 	C 	0.66113 0.19100 0.77960 -0.35200
H 	H 	0.64960 0.22810 0.74990 0.17000
C 	C 	0.68521 0.24560 0.80730 0.23400
H 	H 	0.68920 0.32330 0.79770 -0.02400
C 	C 	0.60288 0.02470 0.79220 0.33200
C 	C 	0.60063 0.08660 0.83930 -0.32900
H 	H 	0.61660 0.12990 0.85690 0.15200
C 	C 	0.57437 0.08470 0.86070 0.19400
H 	H 	0.57300 0.12450 0.89360 -0.02100
C 	C 	0.55010 0.02390 0.83360 -0.21900
C 	C 	0.55330 0.96350 0.78510 0.20100
H 	H 	0.53740 0.92130 0.76620 -0.01400
C 	C 	0.57909 0.96560 0.76510 -0.32800
H 	H 	0.58060 0.92610 0.73230 0.15700
C 	C 	0.52148 0.03040 0.85550 0.38800
C 	C 	0.81460 0.58220 0.91020 -1.71200
O 	O 	0.83280 0.49700 0.91910 -0.00600
O 	O 	0.78760 0.56580 0.90700 -0.62500
C 	C 	0.82518 0.71000 0.91540 0.13700
C 	C 	0.84880 0.71660 0.89000 0.03800
H 	H 	0.85670 0.64890 0.87620 0.07100
C 	C 	0.81280 0.80920 0.92760 -0.13000
H 	H 	0.79500 0.80450 0.94080 0.10100
C 	C 	0.84950 0.92400 0.90340 0.25900
C 	C 	0.86140 0.83210 0.88480 -0.22800
H 	H 	0.87820 0.84030 0.86810 0.12200
C 	C 	0.82460 0.91950 0.92200 -0.13700
H 	H 	0.81520 0.98820 0.93120 0.09100
O 	O 	0.86220 0.03080 0.88850 -0.32100
O 	O 	0.80490 0.52440 0.91040 0.66000
O 	O 	0.79560 0.62410 0.98220 -0.61100
C 	C 	0.80770 0.60980 0.93810 1.60600
Cd	Cd	0.48578 0.16254 0.94107 1.20400
Cd	Cd	0.28319 0.86208 0.92043 1.19000
N 	N 	0.45546 0.81830 0.50760 -0.28300
O 	O 	0.48310 0.67020 0.03452 -0.38300
N 	N 	0.45780 0.28380 0.87690 -0.27400
O 	O 	0.47300 0.83380 0.98687 -0.41900
N 	N 	0.30331 0.77870 0.84560 -0.26200
N 	N 	0.31559 0.24270 0.48350 -0.29000
O 	O 	0.01968 0.61130 0.89090 -0.43100
O 	O 	0.41444 0.50950 0.75839 -0.25300
O 	O 	0.39891 0.70700 0.61321 -0.25200
C 	C 	0.38820 0.57130 0.91620 0.38200
C 	C 	0.35860 0.52710 0.63060 0.10800
C 	C 	0.40470 0.51070 0.95930 -0.35500
H 	H 	0.39870 0.43640 0.97010 0.16200
O 	O 	0.34629 0.60720 0.73311 -0.25100
C 	C 	0.43031 0.56200 0.98620 0.21400
H 	H 	0.44170 0.52170 0.01510 -0.02600
C 	C 	0.43917 0.67490 0.97020 -0.25000
C 	C 	0.42208 0.72930 0.92660 0.23500
H 	H 	0.42760 0.80370 0.91510 -0.04500
C 	C 	0.39685 0.67670 0.89940 -0.37800
H 	H 	0.38590 0.71470 0.86930 0.17900
O 	O 	0.24746 0.69780 0.91544 -0.39100
C 	C 	0.46678 0.72840 0.99810 0.38500
O 	O 	0.23713 0.85390 0.86120 -0.37500
C 	C 	0.46553 0.75840 0.55390 0.16000
H 	H 	0.48560 0.74220 0.56130 -0.03200
O 	O 	0.12840 0.52250 0.76680 -0.32600
C 	C 	0.42674 0.84470 0.49990 0.16200
H 	H 	0.41930 0.89010 0.46910 -0.05000
O 	O 	0.00095 0.46280 0.83710 -0.30000
C 	C 	0.43972 0.23860 0.83480 0.16600
H 	H 	0.43720 0.15640 0.83300 -0.04900
C 	C 	0.42433 0.30800 0.79340 -0.29900
H 	H 	0.41180 0.27290 0.76440 0.14100
C 	C 	0.42785 0.42850 0.79570 0.30100
C 	C 	0.44635 0.47700 0.84050 -0.28100
H 	H 	0.44830 0.55910 0.84450 0.14600
C 	C 	0.46150 0.40210 0.87830 0.15800
H 	H 	0.47500 0.43450 0.90650 -0.02300
C 	C 	0.39404 0.46360 0.71380 0.03600
H 	H 	0.40360 0.40580 0.69310 0.03600
H 	H 	0.37780 0.42490 0.72770 0.04000
C 	C 	0.38287 0.56950 0.67700 -0.01900
C 	C 	0.40893 0.62090 0.65470 0.03400
H 	H 	0.41950 0.55790 0.63910 0.04000
H 	H 	0.42220 0.65820 0.68440 0.03900
C 	C 	0.41866 0.74400 0.58050 0.30000
C 	C 	0.40760 0.80970 0.53400 -0.29200
H 	H 	0.38770 0.82930 0.52630 0.14200
C 	C 	0.44828 0.71940 0.59100 -0.29100
H 	H 	0.45640 0.67750 0.62250 0.14300
O 	O 	0.37070 0.43120 0.60136 -0.27500
C 	C 	0.35177 0.37330 0.56280 0.33300
C 	C 	0.36282 0.28380 0.53480 -0.31800
H 	H 	0.38280 0.26490 0.54210 0.15600
C 	C 	0.32222 0.40020 0.55100 -0.31300
H 	H 	0.31410 0.46120 0.56940 0.15400
C 	C 	0.36902 0.66340 0.70970 0.04300
H 	H 	0.36100 0.72780 0.68560 0.03500
H 	H 	0.38370 0.69600 0.73850 0.03700
C 	C 	0.33214 0.66950 0.76910 0.31400
C 	C 	0.31218 0.60750 0.79370 -0.28700
H 	H 	0.30810 0.52800 0.78500 0.16100
C 	C 	0.29833 0.66590 0.83180 0.17600
H 	H 	0.28470 0.62390 0.84880 -0.03000
C 	C 	0.32267 0.83760 0.82030 0.16500
H 	H 	0.32610 0.91730 0.82930 -0.00500
C 	C 	0.33756 0.78900 0.78250 -0.29900
H 	H 	0.35090 0.83350 0.76600 0.15400
C 	C 	0.34423 0.22110 0.49560 0.17800
H 	H 	0.35220 0.16040 0.47660 -0.05200
C 	C 	0.30518 0.33370 0.51090 0.16600
H 	H 	0.28530 0.35280 0.50210 -0.04800
C 	C 	0.23134 0.75210 0.87750 0.35600
C 	C 	0.20367 0.69220 0.84830 -0.23200
C 	C 	0.19632 0.57930 0.86350 0.21500
H 	H 	0.20810 0.54090 0.89240 -0.02400
C 	C 	0.17177 0.52280 0.83640 -0.35300
H 	H 	0.16740 0.44530 0.84570 0.16900
C 	C 	0.15413 0.58090 0.79630 0.35000
C 	C 	0.16113 0.69100 0.77960 -0.35300
H 	H 	0.14960 0.72810 0.74990 0.17000
C 	C 	0.18521 0.74560 0.80730 0.23400
H 	H 	0.18920 0.82330 0.79770 -0.02400
C 	C 	0.10288 0.52470 0.79220 0.33200
C 	C 	0.10063 0.58660 0.83930 -0.32900
H 	H 	0.11660 0.62990 0.85690 0.15200
C 	C 	0.07437 0.58470 0.86070 0.19400
H 	H 	0.07300 0.62450 0.89360 -0.02100
C 	C 	0.05010 0.52390 0.83360 -0.21900
C 	C 	0.05330 0.46350 0.78510 0.20100
H 	H 	0.03740 0.42130 0.76620 -0.01400
C 	C 	0.07909 0.46560 0.76510 -0.32800
H 	H 	0.08060 0.42610 0.73230 0.15700
C 	C 	0.02148 0.53040 0.85550 0.38800
C 	C 	0.31460 0.08220 0.91020 -1.71300
O 	O 	0.33280 0.99700 0.91910 -0.00700
O 	O 	0.28760 0.06580 0.90700 -0.62500
C 	C 	0.32518 0.21000 0.91540 0.13700
C 	C 	0.34880 0.21660 0.89000 0.03800
H 	H 	0.35670 0.14890 0.87620 0.07100
C 	C 	0.31280 0.30920 0.92760 -0.13000
H 	H 	0.29500 0.30450 0.94080 0.10100
C 	C 	0.34950 0.42400 0.90340 0.26000
C 	C 	0.36140 0.33210 0.88480 -0.22800
H 	H 	0.37820 0.34030 0.86810 0.12200
C 	C 	0.32460 0.41950 0.92200 -0.13700
H 	H 	0.31520 0.48820 0.93120 0.09100
O 	O 	0.36220 0.53080 0.88850 -0.32100
O 	O 	0.30490 0.02440 0.91040 0.66100
O 	O 	0.29560 0.12410 0.98220 -0.61100
C 	C 	0.30770 0.10980 0.93810 1.60700
Cd	Cd	0.01422 0.66254 0.55893 1.20400
Cd	Cd	0.21681 0.36208 0.57957 1.19000
N 	N 	0.04454 0.31830 0.99240 -0.28300
O 	O 	0.01690 0.17020 0.46548 -0.38300
N 	N 	0.04220 0.78380 0.62310 -0.27400
O 	O 	0.02700 0.33380 0.51313 -0.41900
N 	N 	0.19669 0.27870 0.65440 -0.26200
N 	N 	0.18441 0.74270 0.01650 -0.29000
O 	O 	0.48032 0.11130 0.60910 -0.43100
O 	O 	0.08556 0.00950 0.74161 -0.25300
O 	O 	0.10109 0.20700 0.88679 -0.25100
C 	C 	0.11180 0.07130 0.58380 0.38200
C 	C 	0.14140 0.02710 0.86940 0.10900
C 	C 	0.09530 0.01070 0.54070 -0.35500
H 	H 	0.10130 0.93640 0.52990 0.16200
O 	O 	0.15371 0.10720 0.76689 -0.25100
C 	C 	0.06969 0.06200 0.51380 0.21400
H 	H 	0.05830 0.02170 0.48490 -0.02600
C 	C 	0.06083 0.17490 0.52980 -0.25000
C 	C 	0.07792 0.22930 0.57340 0.23500
H 	H 	0.07240 0.30370 0.58490 -0.04500
C 	C 	0.10315 0.17670 0.60060 -0.37800
H 	H 	0.11410 0.21470 0.63070 0.17900
O 	O 	0.25254 0.19780 0.58456 -0.39100
C 	C 	0.03322 0.22840 0.50190 0.38500
O 	O 	0.26287 0.35390 0.63880 -0.37500
C 	C 	0.03447 0.25840 0.94610 0.16000
H 	H 	0.01440 0.24220 0.93870 -0.03200
O 	O 	0.37160 0.02250 0.73320 -0.32500
C 	C 	0.07326 0.34470 0.00010 0.16100
H 	H 	0.08070 0.39010 0.03090 -0.05000
O 	O 	0.49905 0.96280 0.66290 -0.30000
C 	C 	0.06028 0.73860 0.66520 0.16500
H 	H 	0.06280 0.65640 0.66700 -0.04900
C 	C 	0.07567 0.80800 0.70660 -0.29900
H 	H 	0.08820 0.77290 0.73560 0.14100
C 	C 	0.07215 0.92850 0.70430 0.30000
C 	C 	0.05365 0.97700 0.65950 -0.28200
H 	H 	0.05170 0.05910 0.65550 0.14600
C 	C 	0.03850 0.90210 0.62170 0.15900
H 	H 	0.02500 0.93450 0.59350 -0.02300
C 	C 	0.10596 0.96360 0.78620 0.03400
H 	H 	0.09640 0.90580 0.80690 0.03600
H 	H 	0.12220 0.92490 0.77230 0.04000
C 	C 	0.11713 0.06950 0.82300 -0.01800
C 	C 	0.09107 0.12090 0.84530 0.03300
H 	H 	0.08050 0.05790 0.86090 0.04000
H 	H 	0.07780 0.15820 0.81560 0.03900
C 	C 	0.08134 0.24400 0.91950 0.30000
C 	C 	0.09240 0.30970 0.96600 -0.29100
H 	H 	0.11230 0.32930 0.97370 0.14200
C 	C 	0.05172 0.21940 0.90900 -0.29100
H 	H 	0.04360 0.17750 0.87750 0.14300
O 	O 	0.12930 0.93120 0.89864 -0.27600
C 	C 	0.14823 0.87330 0.93720 0.33300
C 	C 	0.13718 0.78380 0.96520 -0.31900
H 	H 	0.11720 0.76490 0.95790 0.15600
C 	C 	0.17778 0.90020 0.94900 -0.31300
H 	H 	0.18590 0.96120 0.93060 0.15400
C 	C 	0.13098 0.16340 0.79030 0.04200
H 	H 	0.13900 0.22780 0.81440 0.03500
H 	H 	0.11630 0.19600 0.76150 0.03700
C 	C 	0.16786 0.16950 0.73090 0.31400
C 	C 	0.18782 0.10750 0.70630 -0.28700
H 	H 	0.19190 0.02800 0.71500 0.16100
C 	C 	0.20167 0.16590 0.66820 0.17600
H 	H 	0.21530 0.12390 0.65120 -0.03000
C 	C 	0.17733 0.33760 0.67970 0.16500
H 	H 	0.17390 0.41730 0.67070 -0.00500
C 	C 	0.16244 0.28900 0.71750 -0.29900
H 	H 	0.14910 0.33350 0.73400 0.15400
C 	C 	0.15577 0.72110 0.00440 0.17800
H 	H 	0.14780 0.66040 0.02340 -0.05200
C 	C 	0.19482 0.83370 0.98910 0.16600
H 	H 	0.21470 0.85280 0.99790 -0.04800
C 	C 	0.26866 0.25210 0.62250 0.35600
C 	C 	0.29633 0.19220 0.65170 -0.23200
C 	C 	0.30368 0.07930 0.63650 0.21500
H 	H 	0.29190 0.04090 0.60760 -0.02400
C 	C 	0.32823 0.02280 0.66360 -0.35200
H 	H 	0.33260 0.94530 0.65430 0.16800
C 	C 	0.34587 0.08090 0.70370 0.35000
C 	C 	0.33887 0.19100 0.72040 -0.35300
H 	H 	0.35040 0.22810 0.75010 0.17000
C 	C 	0.31479 0.24560 0.69270 0.23400
H 	H 	0.31080 0.32330 0.70230 -0.02400
C 	C 	0.39712 0.02470 0.70780 0.33200
C 	C 	0.39937 0.08660 0.66070 -0.32900
H 	H 	0.38340 0.12990 0.64310 0.15200
C 	C 	0.42563 0.08470 0.63930 0.19400
H 	H 	0.42700 0.12450 0.60640 -0.02100
C 	C 	0.44990 0.02390 0.66640 -0.21900
C 	C 	0.44670 0.96350 0.71490 0.20100
H 	H 	0.46260 0.92130 0.73380 -0.01400
C 	C 	0.42091 0.96560 0.73490 -0.32800
H 	H 	0.41940 0.92610 0.76770 0.15700
C 	C 	0.47852 0.03040 0.64450 0.38800
C 	C 	0.18540 0.58220 0.58980 -1.71200
O 	O 	0.16720 0.49700 0.58090 -0.00600
O 	O 	0.21240 0.56580 0.59300 -0.62500
C 	C 	0.17482 0.71000 0.58460 0.13600
C 	C 	0.15120 0.71660 0.61000 0.03800
H 	H 	0.14330 0.64890 0.62380 0.07100
C 	C 	0.18720 0.80920 0.57240 -0.13000
H 	H 	0.20500 0.80450 0.55920 0.10100
C 	C 	0.15050 0.92400 0.59660 0.26000
C 	C 	0.13860 0.83210 0.61520 -0.22800
H 	H 	0.12180 0.84030 0.63190 0.12200
C 	C 	0.17540 0.91950 0.57800 -0.13700
H 	H 	0.18480 0.98820 0.56880 0.09100
O 	O 	0.13780 0.03080 0.61150 -0.32100
O 	O 	0.19510 0.52440 0.58960 0.66000
O 	O 	0.20440 0.62410 0.51780 -0.61100
C 	C 	0.19230 0.60980 0.56190 1.60700
Cd	Cd	0.51422 0.16254 0.55893 1.20400
Cd	Cd	0.71681 0.86208 0.57957 1.19000
N 	N 	0.54454 0.81830 0.99240 -0.28400
O 	O 	0.51690 0.67020 0.46548 -0.38300
N 	N 	0.54220 0.28380 0.62310 -0.27400
O 	O 	0.52700 0.83380 0.51313 -0.41900
N 	N 	0.69669 0.77870 0.65440 -0.26200
N 	N 	0.68441 0.24270 0.01650 -0.29000
O 	O 	0.98032 0.61130 0.60910 -0.43100
O 	O 	0.58556 0.50950 0.74161 -0.25300
O 	O 	0.60109 0.70700 0.88679 -0.25200
C 	C 	0.61180 0.57130 0.58380 0.38200
C 	C 	0.64140 0.52710 0.86940 0.10800
C 	C 	0.59530 0.51070 0.54070 -0.35500
H 	H 	0.60130 0.43640 0.52990 0.16200
O 	O 	0.65371 0.60720 0.76689 -0.25100
C 	C 	0.56969 0.56200 0.51380 0.21400
H 	H 	0.55830 0.52170 0.48490 -0.02600
C 	C 	0.56083 0.67490 0.52980 -0.25000
C 	C 	0.57792 0.72930 0.57340 0.23500
H 	H 	0.57240 0.80370 0.58490 -0.04500
C 	C 	0.60315 0.67670 0.60060 -0.37800
H 	H 	0.61410 0.71470 0.63070 0.17900
O 	O 	0.75254 0.69780 0.58456 -0.39100
C 	C 	0.53322 0.72840 0.50190 0.38500
O 	O 	0.76287 0.85390 0.63880 -0.37500
C 	C 	0.53447 0.75840 0.94610 0.16000
H 	H 	0.51440 0.74220 0.93870 -0.03200
O 	O 	0.87160 0.52250 0.73320 -0.32600
C 	C 	0.57326 0.84470 0.00010 0.16300
H 	H 	0.58070 0.89010 0.03090 -0.05000
O 	O 	0.99905 0.46280 0.66290 -0.30000
C 	C 	0.56028 0.23860 0.66520 0.16600
H 	H 	0.56280 0.15640 0.66700 -0.04900
C 	C 	0.57567 0.30800 0.70660 -0.29900
H 	H 	0.58820 0.27290 0.73560 0.14100
C 	C 	0.57215 0.42850 0.70430 0.30100
C 	C 	0.55365 0.47700 0.65950 -0.28100
H 	H 	0.55170 0.55910 0.65550 0.14600
C 	C 	0.53850 0.40210 0.62170 0.15800
H 	H 	0.52500 0.43450 0.59350 -0.02300
C 	C 	0.60596 0.46360 0.78620 0.03600
H 	H 	0.59640 0.40580 0.80690 0.03600
H 	H 	0.62220 0.42490 0.77230 0.04000
C 	C 	0.61713 0.56950 0.82300 -0.01900
C 	C 	0.59107 0.62090 0.84530 0.03400
H 	H 	0.58050 0.55790 0.86090 0.04000
H 	H 	0.57780 0.65820 0.81560 0.03900
C 	C 	0.58134 0.74400 0.91950 0.30100
C 	C 	0.59240 0.80970 0.96600 -0.29300
H 	H 	0.61230 0.82930 0.97370 0.14200
C 	C 	0.55172 0.71940 0.90900 -0.29200
H 	H 	0.54360 0.67750 0.87750 0.14300
O 	O 	0.62930 0.43120 0.89864 -0.27500
C 	C 	0.64823 0.37330 0.93720 0.33300
C 	C 	0.63718 0.28380 0.96520 -0.31800
H 	H 	0.61720 0.26490 0.95790 0.15600
C 	C 	0.67778 0.40020 0.94900 -0.31300
H 	H 	0.68590 0.46120 0.93060 0.15400
C 	C 	0.63098 0.66340 0.79030 0.04300
H 	H 	0.63900 0.72780 0.81440 0.03500
H 	H 	0.61630 0.69600 0.76150 0.03700
C 	C 	0.66786 0.66950 0.73090 0.31400
C 	C 	0.68782 0.60750 0.70630 -0.28700
H 	H 	0.69190 0.52800 0.71500 0.16100
C 	C 	0.70167 0.66590 0.66820 0.17600
H 	H 	0.71530 0.62390 0.65120 -0.03000
C 	C 	0.67733 0.83760 0.67970 0.16500
H 	H 	0.67390 0.91730 0.67070 -0.00500
C 	C 	0.66244 0.78900 0.71750 -0.29900
H 	H 	0.64910 0.83350 0.73400 0.15400
C 	C 	0.65577 0.22110 0.00440 0.17700
H 	H 	0.64780 0.16040 0.02340 -0.05100
C 	C 	0.69482 0.33370 0.98910 0.16600
H 	H 	0.71470 0.35280 0.99790 -0.04800
C 	C 	0.76866 0.75210 0.62250 0.35600
C 	C 	0.79633 0.69220 0.65170 -0.23200
C 	C 	0.80368 0.57930 0.63650 0.21500
H 	H 	0.79190 0.54090 0.60760 -0.02400
C 	C 	0.82823 0.52280 0.66360 -0.35300
H 	H 	0.83260 0.44530 0.65430 0.16900
C 	C 	0.84587 0.58090 0.70370 0.35000
C 	C 	0.83887 0.69100 0.72040 -0.35300
H 	H 	0.85040 0.72810 0.75010 0.17000
C 	C 	0.81479 0.74560 0.69270 0.23400
H 	H 	0.81080 0.82330 0.70230 -0.02400
C 	C 	0.89712 0.52470 0.70780 0.33200
C 	C 	0.89937 0.58660 0.66070 -0.32900
H 	H 	0.88340 0.62990 0.64310 0.15200
C 	C 	0.92563 0.58470 0.63930 0.19400
H 	H 	0.92700 0.62450 0.60640 -0.02100
C 	C 	0.94990 0.52390 0.66640 -0.21900
C 	C 	0.94670 0.46350 0.71490 0.20100
H 	H 	0.96260 0.42130 0.73380 -0.01400
C 	C 	0.92091 0.46560 0.73490 -0.32800
H 	H 	0.91940 0.42610 0.76770 0.15700
C 	C 	0.97852 0.53040 0.64450 0.38800
C 	C 	0.68540 0.08220 0.58980 -1.71300
O 	O 	0.66720 0.99700 0.58090 -0.00600
O 	O 	0.71240 0.06580 0.59300 -0.62500
C 	C 	0.67482 0.21000 0.58460 0.13600
C 	C 	0.65120 0.21660 0.61000 0.03900
H 	H 	0.64330 0.14890 0.62380 0.07100
C 	C 	0.68720 0.30920 0.57240 -0.13000
H 	H 	0.70500 0.30450 0.55920 0.10100
C 	C 	0.65050 0.42400 0.59660 0.26100
C 	C 	0.63860 0.33210 0.61520 -0.22800
H 	H 	0.62180 0.34030 0.63190 0.12200
C 	C 	0.67540 0.41950 0.57800 -0.13800
H 	H 	0.68480 0.48820 0.56880 0.09200
O 	O 	0.63780 0.53080 0.61150 -0.32100
O 	O 	0.69510 0.02440 0.58960 0.66100
O 	O 	0.70440 0.12410 0.51780 -0.61200
C 	C 	0.69230 0.10980 0.56190 1.60700
