data_crystal

_cell_length_a 15.21590
_cell_length_b 9.06110
_cell_length_c 7.75330
_cell_angle_alpha 90.00000
_cell_angle_beta  90.00000
_cell_angle_gamma 90.00000

_symmetry_space_group_name_	'P 1'
_symmetry_space_group_name_H-M	'P 1'

loop_
_symmetry_equiv_pos_as_xyz
  x,y,z

loop_
_atom_site_label
_atom_site_type_symbol
_atom_site_fract_x
_atom_site_fract_y
_atom_site_fract_z
_atom_site_charge
C 	C 	0.54317 0.53995 0.48051 -0.02900
C 	C 	0.61804 0.47073 0.41723 0.01100
H 	H 	0.61453 0.37281 0.37398 0.01100
C 	C 	0.69805 0.54477 0.41723 -0.15600
H 	H 	0.74922 0.49746 0.37398 0.07400
C 	C 	0.70318 0.68804 0.48051 0.15700
C 	C 	0.62831 0.75726 0.54380 -0.15600
H 	H 	0.63182 0.85518 0.58705 0.09200
C 	C 	0.54830 0.68322 0.54380 0.01200
H 	H 	0.49713 0.73053 0.58705 0.03600
C 	C 	0.78915 0.76760 0.48051 -0.26900
C 	C 	0.81961 0.85756 0.60757 0.41300
C 	C 	0.77286 0.89422 0.77201 -1.17400
H 	H 	0.81474 0.91471 0.85967 0.38800
H 	H 	0.73665 0.97835 0.75477 0.42100
H 	H 	0.73748 0.81290 0.80606 0.38800
N 	N 	0.90000 0.90836 0.55904 -0.24100
N 	N 	0.91922 0.84981 0.40199 -0.20100
C 	C 	0.85071 0.76282 0.35346 0.19000
C 	C 	0.84420 0.67686 0.18902 -0.26600
H 	H 	0.78131 0.61704 0.18569 0.08800
H 	H 	0.84774 0.75285 0.07860 0.06200
H 	H 	0.89875 0.59744 0.18179 0.09500
C 	C 	0.45683 0.46005 0.48051 0.01200
C 	C 	0.38196 0.52927 0.41723 -0.03900
H 	H 	0.38547 0.62719 0.37398 0.03700
C 	C 	0.30195 0.45523 0.41723 -0.09900
H 	H 	0.25078 0.50254 0.37398 0.04400
C 	C 	0.29682 0.31196 0.48051 0.07000
C 	C 	0.37169 0.24274 0.54380 -0.11100
H 	H 	0.36818 0.14482 0.58705 0.02000
C 	C 	0.45170 0.31678 0.54380 -0.04300
H 	H 	0.50287 0.26947 0.58705 0.02000
C 	C 	0.21085 0.23240 0.48051 -0.18800
C 	C 	0.18039 0.14244 0.60757 0.19100
C 	C 	0.22714 0.10578 0.77201 -0.72100
H 	H 	0.18526 0.08529 0.85967 0.15200
H 	H 	0.26335 0.02165 0.75477 0.18300
H 	H 	0.26252 0.18710 0.80606 0.22600
N 	N 	0.10000 0.09164 0.55904 -0.34700
N 	N 	0.08078 0.15019 0.40199 -0.31900
C 	C 	0.14929 0.23718 0.35346 0.07300
C 	C 	0.15580 0.32314 0.18902 -0.22400
H 	H 	0.21869 0.38296 0.18569 0.06200
H 	H 	0.15226 0.24715 0.07860 -0.01300
H 	H 	0.10125 0.40256 0.18179 0.00600
C 	C 	0.54317 0.46005 0.98051 0.00400
C 	C 	0.61804 0.52927 0.91723 -0.02600
H 	H 	0.61453 0.62719 0.87398 0.03300
C 	C 	0.69805 0.45523 0.91723 -0.11500
H 	H 	0.74922 0.50254 0.87398 0.06000
C 	C 	0.70318 0.31196 0.98051 0.09200
C 	C 	0.62831 0.24274 0.04380 -0.12700
H 	H 	0.63182 0.14482 0.08705 0.02500
C 	C 	0.54830 0.31678 0.04380 -0.03500
H 	H 	0.49713 0.26947 0.08705 0.01600
C 	C 	0.78915 0.23240 0.98051 -0.20600
C 	C 	0.81961 0.14244 0.10757 0.22500
C 	C 	0.77286 0.10578 0.27201 -0.76100
H 	H 	0.81474 0.08529 0.35967 0.18500
H 	H 	0.73665 0.02165 0.25477 0.19500
H 	H 	0.73748 0.18710 0.30606 0.24200
N 	N 	0.90000 0.09164 0.05904 -0.28800
N 	N 	0.91922 0.15019 0.90199 -0.24200
C 	C 	0.85071 0.23718 0.85346 0.12000
C 	C 	0.84420 0.32314 0.68902 -0.24800
H 	H 	0.78131 0.38296 0.68569 0.07500
H 	H 	0.84774 0.24715 0.57860 0.03000
H 	H 	0.89875 0.40256 0.68179 0.09000
C 	C 	0.45683 0.53995 0.98051 -0.01700
C 	C 	0.38196 0.47073 0.91723 -0.00200
H 	H 	0.38547 0.37281 0.87398 0.01600
C 	C 	0.30195 0.54477 0.91723 -0.14100
H 	H 	0.25078 0.49746 0.87398 0.06000
C 	C 	0.29682 0.68804 0.98051 0.14200
C 	C 	0.37169 0.75726 0.04380 -0.14700
H 	H 	0.36818 0.85518 0.08705 0.08900
C 	C 	0.45170 0.68322 0.04380 -0.00200
H 	H 	0.50287 0.73053 0.08705 0.03900
C 	C 	0.21085 0.76760 0.98051 -0.24900
C 	C 	0.18039 0.85756 0.10757 0.37600
C 	C 	0.22714 0.89422 0.27201 -1.13700
H 	H 	0.18526 0.91471 0.35967 0.36000
H 	H 	0.26335 0.97835 0.25477 0.41300
H 	H 	0.26252 0.81290 0.30606 0.37200
N 	N 	0.10000 0.90836 0.05904 -0.29900
N 	N 	0.08078 0.84981 0.90199 -0.27100
C 	C 	0.14929 0.76282 0.85346 0.14600
C 	C 	0.15580 0.67686 0.68902 -0.24300
H 	H 	0.21869 0.61704 0.68569 0.07800
H 	H 	0.15226 0.75285 0.57860 0.02600
H 	H 	0.10125 0.59744 0.68179 0.01400
Cd	Cd	0.00000 0.00000 0.25000 1.04700
Cd	Cd	0.00000 0.00000 0.75000 1.04800
