data_crystal

_cell_length_a 29.32500
_cell_length_b 13.41300
_cell_length_c 36.01600
_cell_angle_alpha 90.00000
_cell_angle_beta  90.00000
_cell_angle_gamma 90.00000

_symmetry_space_group_name_	'P 1'
_symmetry_space_group_name_H-M	'P 1'

loop_
_symmetry_equiv_pos_as_xyz
  x,y,z

loop_
_atom_site_label
_atom_site_type_symbol
_atom_site_fract_x
_atom_site_fract_y
_atom_site_fract_z
_atom_site_charge
W 	W 	0.54314 0.67341 0.35050 1.30700
W 	W 	0.46942 0.70293 0.42397 0.99500
W 	W 	0.42176 0.45086 0.41028 0.98500
W 	W 	0.49412 0.25233 0.40879 0.99500
W 	W 	0.61918 0.45187 0.34814 1.03000
W 	W 	0.66096 0.52040 0.43505 1.26900
W 	W 	0.58437 0.73592 0.43735 1.01100
W 	W 	0.61776 0.28777 0.42360 1.25400
W 	W 	0.49456 0.42202 0.33584 1.32300
Co	Co	0.58652 0.42410 0.50472 1.14600
Co	Co	0.52105 0.61394 0.50706 1.18100
P 	P 	0.54103 0.49170 0.42648 0.55500
O 	O 	0.50540 0.43080 0.40530 -0.39700
O 	O 	0.58900 0.45480 0.41480 -0.41800
O 	O 	0.53390 0.48010 0.46860 -0.59400
O 	O 	0.53660 0.60210 0.41440 -0.39800
O 	O 	0.49450 0.27110 0.45830 -0.48100
O 	O 	0.43280 0.31420 0.40850 -0.44900
O 	O 	0.49300 0.29200 0.35590 -0.45800
O 	O 	0.55940 0.24660 0.40590 -0.46000
O 	O 	0.43820 0.59090 0.40570 -0.46700
O 	O 	0.59810 0.30610 0.46980 -0.53500
O 	O 	0.64880 0.17610 0.42550 -0.55400
O 	O 	0.62870 0.32640 0.36980 -0.44600
O 	O 	0.56600 0.53960 0.53990 -0.61300
O 	O 	0.57190 0.68560 0.48140 -0.50200
O 	O 	0.63680 0.50670 0.47950 -0.54000
O 	O 	0.52120 0.78400 0.43560 -0.44400
O 	O 	0.57930 0.75020 0.38190 -0.45800
O 	O 	0.63280 0.64770 0.42650 -0.47400
O 	O 	0.46990 0.65010 0.47080 -0.60500
O 	O 	0.49030 0.72440 0.37300 -0.45600
O 	O 	0.59290 0.58370 0.34500 -0.47100
O 	O 	0.55950 0.40760 0.33510 -0.47600
O 	O 	0.66360 0.50850 0.37920 -0.45800
O 	O 	0.54420 0.74500 0.31050 -0.56200
O 	O 	0.48070 0.39890 0.28980 -0.55600
O 	O 	0.43720 0.44820 0.35750 -0.45100
O 	O 	0.66830 0.37610 0.43130 -0.50000
O 	O 	0.50410 0.55900 0.33710 -0.48800
O 	O 	0.71770 0.55490 0.44210 -0.56800
Co	Co	0.53013 0.82339 0.26149 1.11700
C 	C 	0.70070 0.68910 0.17110 0.10700
C 	C 	0.72980 0.67990 0.11390 0.10100
C 	C 	0.77580 0.68880 0.16310 0.10800
C 	C 	0.72250 0.67530 0.07280 0.06800
C 	C 	0.82250 0.69390 0.18110 0.05500
C 	C 	0.82650 0.71030 0.21850 -0.12400
H 	H 	0.80100 0.72220 0.23320 0.07500
C 	C 	0.86070 0.67710 0.15950 -0.11500
H 	H 	0.85860 0.67000 0.13390 0.06400
C 	C 	0.90200 0.67120 0.17780 0.06600
H 	H 	0.92750 0.65360 0.16390 0.03500
C 	C 	0.30260 0.92740 0.38840 0.10200
C 	C 	0.27040 0.94490 0.33250 0.11300
C 	C 	0.34580 0.94200 0.33850 0.10200
C 	C 	0.39250 0.94090 0.32030 0.05900
C 	C 	0.42990 0.92760 0.34200 -0.12800
H 	H 	0.42840 0.93210 0.36770 0.06600
C 	C 	0.47110 0.90630 0.32320 0.06500
H 	H 	0.49700 0.89430 0.33740 -0.00900
C 	C 	0.29770 0.91330 0.42930 0.06000
C 	C 	0.25580 0.90660 0.44620 -0.13300
H 	H 	0.22920 0.91150 0.43230 0.07500
C 	C 	0.22870 0.95120 0.30820 0.05000
C 	C 	0.18510 0.94430 0.32350 -0.10500
H 	H 	0.18160 0.93700 0.34900 0.06400
C 	C 	0.14760 0.94810 0.30130 0.05400
H 	H 	0.11880 0.94460 0.31200 0.02600
C 	C 	0.43820 0.92470 0.26640 0.06500
H 	H 	0.44050 0.92640 0.24070 -0.01600
C 	C 	0.86930 0.70850 0.23340 0.06800
H 	H 	0.87240 0.72130 0.25870 -0.00300
C 	C 	0.65930 0.69650 0.19450 0.05800
C 	C 	0.61580 0.69620 0.17840 -0.13100
H 	H 	0.61200 0.68140 0.15330 0.08200
C 	C 	0.39510 0.94590 0.28280 -0.12900
H 	H 	0.36980 0.96240 0.26840 0.07100
C 	C 	0.57960 0.71780 0.20010 0.07900
H 	H 	0.55080 0.71780 0.18940 -0.01100
C 	C 	0.23280 0.96190 0.27040 -0.12500
H 	H 	0.26130 0.96690 0.25930 0.07000
C 	C 	0.25400 0.89240 0.48370 0.07700
H 	H 	0.22540 0.88420 0.49440 -0.00600
C 	C 	0.66320 0.70890 0.23200 -0.13000
H 	H 	0.69140 0.70250 0.24360 0.07500
C 	C 	0.62480 0.73090 0.25230 0.06600
H 	H 	0.62760 0.74030 0.27780 -0.01000
C 	C 	0.75700 0.64640 0.04980 -0.14000
H 	H 	0.78530 0.62930 0.05950 0.06600
C 	C 	0.74960 0.64300 0.01280 0.07800
H 	H 	0.77360 0.62350 0.99760 -0.01000
C 	C 	0.68090 0.69670 0.05720 -0.15500
H 	H 	0.65600 0.71370 0.07180 0.08600
C 	C 	0.67750 0.69230 0.01990 0.08900
H 	H 	0.64960 0.70950 0.00940 -0.01400
C 	C 	0.33580 0.90790 0.45110 -0.14100
H 	H 	0.36470 0.91370 0.44070 0.06700
C 	C 	0.33020 0.89340 0.48930 0.07100
H 	H 	0.35630 0.88590 0.50370 -0.02200
C 	C 	0.19440 0.96500 0.24960 0.06800
H 	H 	0.19760 0.97310 0.22410 -0.00700
N 	N 	0.47520 0.90260 0.28600 -0.25000
N 	N 	0.29060 0.88960 0.50610 -0.25300
N 	N 	0.26400 0.93340 0.36850 -0.14300
N 	N 	0.34410 0.93350 0.37510 -0.14900
N 	N 	0.31000 0.95170 0.31580 -0.14500
N 	N 	0.69330 0.68150 0.13470 -0.14300
N 	N 	0.74110 0.69410 0.18650 -0.14400
N 	N 	0.77260 0.68500 0.12650 -0.14500
N 	N 	0.90780 0.68910 0.21350 -0.14100
N 	N 	0.15150 0.95710 0.26350 -0.13800
N 	N 	0.58290 0.73930 0.23630 -0.24700
N 	N 	0.71070 0.66540 0.99700 -0.16700
Co	Co	0.28432 0.89035 0.56523 1.07700
W 	W 	0.95686 0.32659 0.85050 1.30800
W 	W 	0.03058 0.29707 0.92397 0.99600
W 	W 	0.07824 0.54914 0.91028 0.98600
W 	W 	0.00588 0.74767 0.90879 0.99500
W 	W 	0.88082 0.54813 0.84814 1.03100
W 	W 	0.83904 0.47960 0.93505 1.27000
W 	W 	0.91563 0.26408 0.93735 1.01100
W 	W 	0.88224 0.71223 0.92360 1.25400
W 	W 	0.00544 0.57798 0.83584 1.32200
Co	Co	0.91348 0.57590 0.00472 1.14600
Co	Co	0.97895 0.38606 0.00706 1.18000
P 	P 	0.95897 0.50830 0.92648 0.55500
O 	O 	0.99460 0.56920 0.90530 -0.39700
O 	O 	0.91100 0.54520 0.91480 -0.41800
O 	O 	0.96610 0.51990 0.96860 -0.59300
O 	O 	0.96340 0.39790 0.91440 -0.39800
O 	O 	0.00550 0.72890 0.95830 -0.48100
O 	O 	0.06720 0.68580 0.90850 -0.44900
O 	O 	0.00700 0.70800 0.85590 -0.45800
O 	O 	0.94060 0.75340 0.90590 -0.45900
O 	O 	0.06180 0.40910 0.90570 -0.46700
O 	O 	0.90190 0.69390 0.96980 -0.53500
O 	O 	0.85120 0.82390 0.92550 -0.55300
O 	O 	0.87130 0.67360 0.86980 -0.44600
O 	O 	0.93400 0.46040 0.03990 -0.61300
O 	O 	0.92810 0.31440 0.98140 -0.50200
O 	O 	0.86320 0.49330 0.97950 -0.54000
O 	O 	0.97880 0.21600 0.93560 -0.44300
O 	O 	0.92070 0.24980 0.88190 -0.45900
O 	O 	0.86720 0.35230 0.92650 -0.47400
O 	O 	0.03010 0.34990 0.97080 -0.60500
O 	O 	0.00970 0.27560 0.87300 -0.45600
O 	O 	0.90710 0.41630 0.84500 -0.47100
O 	O 	0.94050 0.59240 0.83510 -0.47500
O 	O 	0.83640 0.49150 0.87920 -0.45800
O 	O 	0.95580 0.25500 0.81050 -0.56200
O 	O 	0.01930 0.60110 0.78980 -0.55600
O 	O 	0.06280 0.55180 0.85750 -0.45100
O 	O 	0.83170 0.62390 0.93130 -0.50000
O 	O 	0.99590 0.44100 0.83710 -0.48800
O 	O 	0.78230 0.44510 0.94210 -0.56800
Co	Co	0.96987 0.17661 0.76149 1.11700
C 	C 	0.79930 0.31090 0.67110 0.10700
C 	C 	0.77020 0.32010 0.61390 0.10100
C 	C 	0.72420 0.31120 0.66310 0.10800
C 	C 	0.77750 0.32470 0.57280 0.06900
C 	C 	0.67750 0.30610 0.68110 0.05500
C 	C 	0.67350 0.28970 0.71850 -0.12400
H 	H 	0.69900 0.27780 0.73320 0.07500
C 	C 	0.63930 0.32290 0.65950 -0.11500
H 	H 	0.64140 0.33000 0.63390 0.06400
C 	C 	0.59800 0.32880 0.67780 0.06600
H 	H 	0.57250 0.34640 0.66390 0.03500
C 	C 	0.19740 0.07260 0.88840 0.10300
C 	C 	0.22960 0.05510 0.83250 0.11300
C 	C 	0.15420 0.05800 0.83850 0.10200
C 	C 	0.10750 0.05910 0.82030 0.05900
C 	C 	0.07010 0.07240 0.84200 -0.12800
H 	H 	0.07160 0.06790 0.86770 0.06600
C 	C 	0.02890 0.09370 0.82320 0.06500
H 	H 	0.00300 0.10570 0.83740 -0.00900
C 	C 	0.20230 0.08670 0.92930 0.05900
C 	C 	0.24420 0.09340 0.94620 -0.13200
H 	H 	0.27080 0.08850 0.93230 0.07400
C 	C 	0.27130 0.04880 0.80820 0.05000
C 	C 	0.31490 0.05570 0.82350 -0.10500
H 	H 	0.31840 0.06300 0.84900 0.06500
C 	C 	0.35240 0.05190 0.80130 0.05400
H 	H 	0.38120 0.05540 0.81200 0.02600
C 	C 	0.06180 0.07530 0.76640 0.06500
H 	H 	0.05950 0.07360 0.74070 -0.01600
C 	C 	0.63070 0.29150 0.73340 0.06800
H 	H 	0.62760 0.27870 0.75870 -0.00300
C 	C 	0.84070 0.30350 0.69450 0.05800
C 	C 	0.88420 0.30380 0.67840 -0.13100
H 	H 	0.88800 0.31860 0.65330 0.08200
C 	C 	0.10490 0.05410 0.78280 -0.12800
H 	H 	0.13020 0.03760 0.76840 0.07100
C 	C 	0.92040 0.28220 0.70010 0.07900
H 	H 	0.94920 0.28220 0.68940 -0.01100
C 	C 	0.26720 0.03810 0.77040 -0.12500
H 	H 	0.23870 0.03310 0.75930 0.07000
C 	C 	0.24600 0.10760 0.98370 0.07600
H 	H 	0.27460 0.11580 0.99440 -0.00600
C 	C 	0.83680 0.29110 0.73200 -0.13000
H 	H 	0.80860 0.29750 0.74360 0.07500
C 	C 	0.87520 0.26910 0.75230 0.06600
H 	H 	0.87240 0.25970 0.77780 -0.01000
C 	C 	0.74300 0.35360 0.54980 -0.14200
H 	H 	0.71470 0.37070 0.55950 0.06700
C 	C 	0.75040 0.35700 0.51280 0.08100
H 	H 	0.72640 0.37650 0.49760 -0.01100
C 	C 	0.81910 0.30330 0.55720 -0.15500
H 	H 	0.84400 0.28630 0.57180 0.08600
C 	C 	0.82250 0.30770 0.51990 0.09000
H 	H 	0.85040 0.29050 0.50940 -0.01400
C 	C 	0.16420 0.09210 0.95110 -0.13900
H 	H 	0.13530 0.08630 0.94070 0.06600
C 	C 	0.16980 0.10660 0.98930 0.06800
H 	H 	0.14370 0.11410 0.00370 -0.02100
C 	C 	0.30560 0.03500 0.74960 0.06800
H 	H 	0.30240 0.02690 0.72410 -0.00700
N 	N 	0.02480 0.09740 0.78600 -0.24900
N 	N 	0.20940 0.11040 0.00610 -0.25200
N 	N 	0.23600 0.06660 0.86850 -0.14300
N 	N 	0.15590 0.06650 0.87510 -0.14900
N 	N 	0.19000 0.04830 0.81580 -0.14500
N 	N 	0.80670 0.31850 0.63470 -0.14300
N 	N 	0.75890 0.30590 0.68650 -0.14400
N 	N 	0.72740 0.31500 0.62650 -0.14500
N 	N 	0.59220 0.31090 0.71350 -0.14100
N 	N 	0.34850 0.04290 0.76350 -0.13800
N 	N 	0.91710 0.26070 0.73630 -0.24700
N 	N 	0.78930 0.33460 0.49700 -0.16800
Co	Co	0.21568 0.10965 0.06523 1.07700
W 	W 	0.45686 0.17341 0.14950 1.30800
W 	W 	0.53058 0.20293 0.07603 0.99600
W 	W 	0.57824 0.95086 0.08972 0.98500
W 	W 	0.50588 0.75233 0.09121 0.99600
W 	W 	0.38082 0.95187 0.15186 1.02800
W 	W 	0.33904 0.02040 0.06495 1.27100
W 	W 	0.41563 0.23592 0.06265 1.01100
W 	W 	0.38224 0.78777 0.07640 1.25400
W 	W 	0.50544 0.92202 0.16416 1.32200
Co	Co	0.41348 0.92410 0.99528 1.14600
Co	Co	0.47895 0.11394 0.99294 1.18100
P 	P 	0.45897 0.99170 0.07352 0.55400
O 	O 	0.49460 0.93080 0.09470 -0.39700
O 	O 	0.41100 0.95480 0.08520 -0.41800
O 	O 	0.46610 0.98010 0.03140 -0.59400
O 	O 	0.46340 0.10210 0.08560 -0.39700
O 	O 	0.50550 0.77110 0.04170 -0.48100
O 	O 	0.56720 0.81420 0.09150 -0.44800
O 	O 	0.50700 0.79200 0.14410 -0.45800
O 	O 	0.44060 0.74660 0.09410 -0.46000
O 	O 	0.56180 0.09090 0.09430 -0.46600
O 	O 	0.40190 0.80610 0.03020 -0.53500
O 	O 	0.35120 0.67610 0.07450 -0.55400
O 	O 	0.37130 0.82640 0.13020 -0.44600
O 	O 	0.43400 0.03960 0.96010 -0.61300
O 	O 	0.42810 0.18560 0.01860 -0.50200
O 	O 	0.36320 0.00670 0.02050 -0.54000
O 	O 	0.47880 0.28400 0.06440 -0.44300
O 	O 	0.42070 0.25020 0.11810 -0.45800
O 	O 	0.36720 0.14770 0.07350 -0.47400
O 	O 	0.53010 0.15010 0.02920 -0.60500
O 	O 	0.50970 0.22440 0.12700 -0.45600
O 	O 	0.40710 0.08370 0.15500 -0.47000
O 	O 	0.44050 0.90760 0.16490 -0.47600
O 	O 	0.33640 0.00850 0.12080 -0.45600
O 	O 	0.45580 0.24500 0.18950 -0.56200
O 	O 	0.51930 0.89890 0.21020 -0.55700
O 	O 	0.56280 0.94820 0.14250 -0.45100
O 	O 	0.33170 0.87610 0.06870 -0.50100
O 	O 	0.49590 0.05900 0.16290 -0.48700
O 	O 	0.28230 0.05490 0.05790 -0.56800
Co	Co	0.46987 0.32339 0.23851 1.11700
C 	C 	0.29930 0.18910 0.32890 0.10800
C 	C 	0.27020 0.17990 0.38610 0.10100
C 	C 	0.22420 0.18880 0.33690 0.10800
C 	C 	0.27750 0.17530 0.42720 0.06900
C 	C 	0.17750 0.19390 0.31890 0.05500
C 	C 	0.17350 0.21030 0.28150 -0.12300
H 	H 	0.19900 0.22220 0.26680 0.07500
C 	C 	0.13930 0.17710 0.34050 -0.11500
H 	H 	0.14140 0.17000 0.36610 0.06400
C 	C 	0.09800 0.17120 0.32220 0.06600
H 	H 	0.07250 0.15360 0.33610 0.03500
C 	C 	0.69740 0.42740 0.11160 0.10300
C 	C 	0.72960 0.44490 0.16750 0.11400
C 	C 	0.65420 0.44200 0.16150 0.10200
C 	C 	0.60750 0.44090 0.17970 0.05900
C 	C 	0.57010 0.42760 0.15800 -0.12800
H 	H 	0.57160 0.43210 0.13230 0.06600
C 	C 	0.52890 0.40630 0.17680 0.06500
H 	H 	0.50300 0.39430 0.16260 -0.00900
C 	C 	0.70230 0.41330 0.07070 0.06000
C 	C 	0.74420 0.40660 0.05380 -0.13300
H 	H 	0.77080 0.41150 0.06770 0.07500
C 	C 	0.77130 0.45120 0.19180 0.05000
C 	C 	0.81490 0.44430 0.17650 -0.10500
H 	H 	0.81840 0.43700 0.15100 0.06500
C 	C 	0.85240 0.44810 0.19870 0.05400
H 	H 	0.88120 0.44460 0.18800 0.02600
C 	C 	0.56180 0.42470 0.23360 0.06500
H 	H 	0.55950 0.42640 0.25930 -0.01600
C 	C 	0.13070 0.20850 0.26660 0.06900
H 	H 	0.12760 0.22130 0.24130 -0.00200
C 	C 	0.34070 0.19650 0.30550 0.05800
C 	C 	0.38420 0.19620 0.32160 -0.13100
H 	H 	0.38800 0.18140 0.34670 0.08300
C 	C 	0.60490 0.44590 0.21720 -0.12900
H 	H 	0.63020 0.46240 0.23160 0.07100
C 	C 	0.42040 0.21780 0.29990 0.07900
H 	H 	0.44920 0.21780 0.31060 -0.01100
C 	C 	0.76720 0.46190 0.22960 -0.12500
H 	H 	0.73870 0.46690 0.24070 0.07100
C 	C 	0.74600 0.39240 0.01630 0.07600
H 	H 	0.77460 0.38420 0.00560 -0.00600
C 	C 	0.33680 0.20890 0.26800 -0.13000
H 	H 	0.30860 0.20250 0.25640 0.07600
C 	C 	0.37520 0.23090 0.24770 0.06600
H 	H 	0.37240 0.24030 0.22220 -0.01000
C 	C 	0.24300 0.14640 0.45020 -0.14200
H 	H 	0.21470 0.12930 0.44050 0.06700
C 	C 	0.25040 0.14300 0.48720 0.08100
H 	H 	0.22640 0.12350 0.50240 -0.01100
C 	C 	0.31910 0.19670 0.44280 -0.15500
H 	H 	0.34400 0.21370 0.42820 0.08600
C 	C 	0.32250 0.19230 0.48010 0.09000
H 	H 	0.35040 0.20950 0.49060 -0.01500
C 	C 	0.66420 0.40790 0.04890 -0.14000
H 	H 	0.63530 0.41370 0.05930 0.06700
C 	C 	0.66980 0.39340 0.01070 0.07000
H 	H 	0.64370 0.38590 0.99630 -0.02200
C 	C 	0.80560 0.46500 0.25040 0.06800
H 	H 	0.80240 0.47310 0.27590 -0.00700
N 	N 	0.52480 0.40260 0.21400 -0.25000
N 	N 	0.70940 0.38960 0.99390 -0.25300
N 	N 	0.73600 0.43340 0.13150 -0.14300
N 	N 	0.65590 0.43350 0.12490 -0.14900
N 	N 	0.69000 0.45170 0.18420 -0.14500
N 	N 	0.30670 0.18150 0.36530 -0.14300
N 	N 	0.25890 0.19410 0.31350 -0.14400
N 	N 	0.22740 0.18500 0.37350 -0.14500
N 	N 	0.09220 0.18910 0.28650 -0.14100
N 	N 	0.84850 0.45710 0.23650 -0.13800
N 	N 	0.41710 0.23930 0.26370 -0.24700
N 	N 	0.28930 0.16540 0.50300 -0.16800
Co	Co	0.71568 0.39035 0.93477 1.07700
W 	W 	0.04314 0.82659 0.64950 1.30700
W 	W 	0.96942 0.79707 0.57603 0.99700
W 	W 	0.92176 0.04914 0.58972 0.98400
W 	W 	0.99412 0.24767 0.59121 0.99600
W 	W 	0.11918 0.04813 0.65186 1.03000
W 	W 	0.16096 0.97960 0.56495 1.27000
W 	W 	0.08437 0.76408 0.56265 1.01100
W 	W 	0.11776 0.21223 0.57640 1.25400
W 	W 	0.99456 0.07798 0.66416 1.32100
Co	Co	0.08652 0.07590 0.49528 1.14600
Co	Co	0.02105 0.88606 0.49294 1.18000
P 	P 	0.04103 0.00830 0.57352 0.55500
O 	O 	0.00540 0.06920 0.59470 -0.39700
O 	O 	0.08900 0.04520 0.58520 -0.41800
O 	O 	0.03390 0.01990 0.53140 -0.59300
O 	O 	0.03660 0.89790 0.58560 -0.39800
O 	O 	0.99450 0.22890 0.54170 -0.48100
O 	O 	0.93280 0.18580 0.59150 -0.44800
O 	O 	0.99300 0.20800 0.64410 -0.45800
O 	O 	0.05940 0.25340 0.59410 -0.45900
O 	O 	0.93820 0.90910 0.59430 -0.46500
O 	O 	0.09810 0.19390 0.53020 -0.53500
O 	O 	0.14880 0.32390 0.57450 -0.55400
O 	O 	0.12870 0.17360 0.63020 -0.44600
O 	O 	0.06600 0.96040 0.46010 -0.61300
O 	O 	0.07190 0.81440 0.51860 -0.50200
O 	O 	0.13680 0.99330 0.52050 -0.54000
O 	O 	0.02120 0.71600 0.56440 -0.44400
O 	O 	0.07930 0.74980 0.61810 -0.45800
O 	O 	0.13280 0.85230 0.57350 -0.47400
O 	O 	0.96990 0.84990 0.52920 -0.60400
O 	O 	0.99030 0.77560 0.62700 -0.45500
O 	O 	0.09290 0.91630 0.65500 -0.47000
O 	O 	0.05950 0.09240 0.66490 -0.47500
O 	O 	0.16360 0.99150 0.62080 -0.45700
O 	O 	0.04420 0.75500 0.68950 -0.56200
O 	O 	0.98070 0.10110 0.71020 -0.55700
O 	O 	0.93720 0.05180 0.64250 -0.45100
O 	O 	0.16830 0.12390 0.56870 -0.50000
O 	O 	0.00410 0.94100 0.66290 -0.48800
O 	O 	0.21770 0.94510 0.55790 -0.56800
Co	Co	0.03013 0.67661 0.73851 1.11700
C 	C 	0.20070 0.81090 0.82890 0.10700
C 	C 	0.22980 0.82010 0.88610 0.10100
C 	C 	0.27580 0.81120 0.83690 0.10800
C 	C 	0.22250 0.82470 0.92720 0.06900
C 	C 	0.32250 0.80610 0.81890 0.05500
C 	C 	0.32650 0.78970 0.78150 -0.12300
H 	H 	0.30100 0.77780 0.76680 0.07500
C 	C 	0.36070 0.82290 0.84050 -0.11500
H 	H 	0.35860 0.83000 0.86610 0.06400
C 	C 	0.40200 0.82880 0.82220 0.06600
H 	H 	0.42750 0.84640 0.83610 0.03500
C 	C 	0.80260 0.57260 0.61160 0.10300
C 	C 	0.77040 0.55510 0.66750 0.11400
C 	C 	0.84580 0.55800 0.66150 0.10200
C 	C 	0.89250 0.55910 0.67970 0.05900
C 	C 	0.92990 0.57240 0.65800 -0.12800
H 	H 	0.92840 0.56790 0.63230 0.06600
C 	C 	0.97110 0.59370 0.67680 0.06500
H 	H 	0.99700 0.60570 0.66260 -0.00800
C 	C 	0.79770 0.58670 0.57070 0.06000
C 	C 	0.75580 0.59340 0.55380 -0.13300
H 	H 	0.72920 0.58850 0.56770 0.07500
C 	C 	0.72870 0.54880 0.69180 0.05000
C 	C 	0.68510 0.55570 0.67650 -0.10500
H 	H 	0.68160 0.56300 0.65100 0.06500
C 	C 	0.64760 0.55190 0.69870 0.05400
H 	H 	0.61880 0.55540 0.68800 0.02600
C 	C 	0.93820 0.57530 0.73360 0.06500
H 	H 	0.94050 0.57360 0.75930 -0.01600
C 	C 	0.36930 0.79150 0.76660 0.06800
H 	H 	0.37240 0.77870 0.74130 -0.00300
C 	C 	0.15930 0.80350 0.80550 0.05800
C 	C 	0.11580 0.80380 0.82160 -0.13100
H 	H 	0.11200 0.81860 0.84670 0.08200
C 	C 	0.89510 0.55410 0.71720 -0.12800
H 	H 	0.86980 0.53760 0.73160 0.07100
C 	C 	0.07960 0.78220 0.79990 0.07900
H 	H 	0.05080 0.78220 0.81060 -0.01100
C 	C 	0.73280 0.53810 0.72960 -0.12500
H 	H 	0.76130 0.53310 0.74070 0.07100
C 	C 	0.75400 0.60760 0.51630 0.07700
H 	H 	0.72540 0.61580 0.50560 -0.00600
C 	C 	0.16320 0.79110 0.76800 -0.13000
H 	H 	0.19140 0.79750 0.75640 0.07500
C 	C 	0.12480 0.76910 0.74770 0.06600
H 	H 	0.12760 0.75970 0.72220 -0.01000
C 	C 	0.25700 0.85360 0.95020 -0.14100
H 	H 	0.28530 0.87070 0.94050 0.06700
C 	C 	0.24960 0.85700 0.98720 0.07900
H 	H 	0.27360 0.87650 0.00240 -0.01100
C 	C 	0.18090 0.80330 0.94280 -0.15500
H 	H 	0.15600 0.78630 0.92820 0.08600
C 	C 	0.17750 0.80770 0.98010 0.08900
H 	H 	0.14960 0.79050 0.99060 -0.01400
C 	C 	0.83580 0.59210 0.54890 -0.14100
H 	H 	0.86470 0.58630 0.55930 0.06700
C 	C 	0.83020 0.60660 0.51070 0.07100
H 	H 	0.85630 0.61410 0.49630 -0.02200
C 	C 	0.69440 0.53500 0.75040 0.06800
H 	H 	0.69760 0.52690 0.77590 -0.00700
N 	N 	0.97520 0.59740 0.71400 -0.24900
N 	N 	0.79060 0.61040 0.49390 -0.25400
N 	N 	0.76400 0.56660 0.63150 -0.14300
N 	N 	0.84410 0.56650 0.62490 -0.14900
N 	N 	0.81000 0.54830 0.68420 -0.14500
N 	N 	0.19330 0.81850 0.86530 -0.14300
N 	N 	0.24110 0.80590 0.81350 -0.14400
N 	N 	0.27260 0.81500 0.87350 -0.14500
N 	N 	0.40780 0.81090 0.78650 -0.14100
N 	N 	0.65150 0.54290 0.73650 -0.13800
N 	N 	0.08290 0.76070 0.76370 -0.24700
N 	N 	0.21070 0.83460 0.00300 -0.16700
Co	Co	0.78432 0.60965 0.43477 1.07700
W 	W 	0.45686 0.32659 0.64950 1.30800
W 	W 	0.53058 0.29707 0.57603 0.99600
W 	W 	0.57824 0.54914 0.58972 0.98600
W 	W 	0.50588 0.74767 0.59121 0.99600
W 	W 	0.38082 0.54813 0.65186 1.03100
W 	W 	0.33904 0.47960 0.56495 1.27000
W 	W 	0.41563 0.26408 0.56265 1.01100
W 	W 	0.38224 0.71223 0.57640 1.25400
W 	W 	0.50544 0.57798 0.66416 1.32300
Co	Co	0.41348 0.57590 0.49528 1.14600
Co	Co	0.47895 0.38606 0.49294 1.18100
P 	P 	0.45897 0.50830 0.57352 0.55500
O 	O 	0.49460 0.56920 0.59470 -0.39700
O 	O 	0.41100 0.54520 0.58520 -0.41800
O 	O 	0.46610 0.51990 0.53140 -0.59400
O 	O 	0.46340 0.39790 0.58560 -0.39800
O 	O 	0.50550 0.72890 0.54170 -0.48100
O 	O 	0.56720 0.68580 0.59150 -0.44900
O 	O 	0.50700 0.70800 0.64410 -0.45800
O 	O 	0.44060 0.75340 0.59410 -0.46000
O 	O 	0.56180 0.40910 0.59430 -0.46700
O 	O 	0.40190 0.69390 0.53020 -0.53500
O 	O 	0.35120 0.82390 0.57450 -0.55400
O 	O 	0.37130 0.67360 0.63020 -0.44600
O 	O 	0.43400 0.46040 0.46010 -0.61300
O 	O 	0.42810 0.31440 0.51860 -0.50200
O 	O 	0.36320 0.49330 0.52050 -0.54000
O 	O 	0.47880 0.21600 0.56440 -0.44400
O 	O 	0.42070 0.24980 0.61810 -0.45800
O 	O 	0.36720 0.35230 0.57350 -0.47400
O 	O 	0.53010 0.34990 0.52920 -0.60500
O 	O 	0.50970 0.27560 0.62700 -0.45600
O 	O 	0.40710 0.41630 0.65500 -0.47100
O 	O 	0.44050 0.59240 0.66490 -0.47600
O 	O 	0.33640 0.49150 0.62080 -0.45800
O 	O 	0.45580 0.25500 0.68950 -0.56200
O 	O 	0.51930 0.60110 0.71020 -0.55600
O 	O 	0.56280 0.55180 0.64250 -0.45100
O 	O 	0.33170 0.62390 0.56870 -0.50000
O 	O 	0.49590 0.44100 0.66290 -0.48800
O 	O 	0.28230 0.44510 0.55790 -0.56800
Co	Co	0.46987 0.17661 0.73851 1.11700
C 	C 	0.29930 0.31090 0.82890 0.10700
C 	C 	0.27020 0.32010 0.88610 0.10100
C 	C 	0.22420 0.31120 0.83690 0.10800
C 	C 	0.27750 0.32470 0.92720 0.06800
C 	C 	0.17750 0.30610 0.81890 0.05500
C 	C 	0.17350 0.28970 0.78150 -0.12400
H 	H 	0.19900 0.27780 0.76680 0.07500
C 	C 	0.13930 0.32290 0.84050 -0.11500
H 	H 	0.14140 0.33000 0.86610 0.06400
C 	C 	0.09800 0.32880 0.82220 0.06600
H 	H 	0.07250 0.34640 0.83610 0.03500
C 	C 	0.69740 0.07260 0.61160 0.10200
C 	C 	0.72960 0.05510 0.66750 0.11300
C 	C 	0.65420 0.05800 0.66150 0.10200
C 	C 	0.60750 0.05910 0.67970 0.05900
C 	C 	0.57010 0.07240 0.65800 -0.12800
H 	H 	0.57160 0.06790 0.63230 0.06600
C 	C 	0.52890 0.09370 0.67680 0.06500
H 	H 	0.50300 0.10570 0.66260 -0.00900
C 	C 	0.70230 0.08670 0.57070 0.06000
C 	C 	0.74420 0.09340 0.55380 -0.13300
H 	H 	0.77080 0.08850 0.56770 0.07500
C 	C 	0.77130 0.04880 0.69180 0.05000
C 	C 	0.81490 0.05570 0.67650 -0.10500
H 	H 	0.81840 0.06300 0.65100 0.06400
C 	C 	0.85240 0.05190 0.69870 0.05400
H 	H 	0.88120 0.05540 0.68800 0.02600
C 	C 	0.56180 0.07530 0.73360 0.06500
H 	H 	0.55950 0.07360 0.75930 -0.01600
C 	C 	0.13070 0.29150 0.76660 0.06800
H 	H 	0.12760 0.27870 0.74130 -0.00300
C 	C 	0.34070 0.30350 0.80550 0.05800
C 	C 	0.38420 0.30380 0.82160 -0.13100
H 	H 	0.38800 0.31860 0.84670 0.08200
C 	C 	0.60490 0.05410 0.71720 -0.12900
H 	H 	0.63020 0.03760 0.73160 0.07100
C 	C 	0.42040 0.28220 0.79990 0.07900
H 	H 	0.44920 0.28220 0.81060 -0.01100
C 	C 	0.76720 0.03810 0.72960 -0.12500
H 	H 	0.73870 0.03310 0.74070 0.07000
C 	C 	0.74600 0.10760 0.51630 0.07700
H 	H 	0.77460 0.11580 0.50560 -0.00600
C 	C 	0.33680 0.29110 0.76800 -0.13000
H 	H 	0.30860 0.29750 0.75640 0.07500
C 	C 	0.37520 0.26910 0.74770 0.06600
H 	H 	0.37240 0.25970 0.72220 -0.01000
C 	C 	0.24300 0.35360 0.95020 -0.14000
H 	H 	0.21470 0.37070 0.94050 0.06600
C 	C 	0.25040 0.35700 0.98720 0.07800
H 	H 	0.22640 0.37650 0.00240 -0.01000
C 	C 	0.31910 0.30330 0.94280 -0.15500
H 	H 	0.34400 0.28630 0.92820 0.08600
C 	C 	0.32250 0.30770 0.98010 0.08900
H 	H 	0.35040 0.29050 0.99060 -0.01400
C 	C 	0.66420 0.09210 0.54890 -0.14100
H 	H 	0.63530 0.08630 0.55930 0.06700
C 	C 	0.66980 0.10660 0.51070 0.07100
H 	H 	0.64370 0.11410 0.49630 -0.02200
C 	C 	0.80560 0.03500 0.75040 0.06800
H 	H 	0.80240 0.02690 0.77590 -0.00700
N 	N 	0.52480 0.09740 0.71400 -0.25000
N 	N 	0.70940 0.11040 0.49390 -0.25300
N 	N 	0.73600 0.06660 0.63150 -0.14300
N 	N 	0.65590 0.06650 0.62490 -0.14900
N 	N 	0.69000 0.04830 0.68420 -0.14500
N 	N 	0.30670 0.31850 0.86530 -0.14300
N 	N 	0.25890 0.30590 0.81350 -0.14400
N 	N 	0.22740 0.31500 0.87350 -0.14500
N 	N 	0.09220 0.31090 0.78650 -0.14100
N 	N 	0.84850 0.04290 0.73650 -0.13800
N 	N 	0.41710 0.26070 0.76370 -0.24700
N 	N 	0.28930 0.33460 0.00300 -0.16700
Co	Co	0.71568 0.10965 0.43477 1.07700
W 	W 	0.04314 0.67341 0.14950 1.30800
W 	W 	0.96942 0.70293 0.07603 0.99600
W 	W 	0.92176 0.45086 0.08972 0.98600
W 	W 	0.99412 0.25233 0.09121 0.99500
W 	W 	0.11918 0.45187 0.15186 1.03100
W 	W 	0.16096 0.52040 0.06495 1.27000
W 	W 	0.08437 0.73592 0.06265 1.01100
W 	W 	0.11776 0.28777 0.07640 1.25400
W 	W 	0.99456 0.42202 0.16416 1.32200
Co	Co	0.08652 0.42410 0.99528 1.14600
Co	Co	0.02105 0.61394 0.99294 1.18000
P 	P 	0.04103 0.49170 0.07352 0.55500
O 	O 	0.00540 0.43080 0.09470 -0.39700
O 	O 	0.08900 0.45480 0.08520 -0.41800
O 	O 	0.03390 0.48010 0.03140 -0.59300
O 	O 	0.03660 0.60210 0.08560 -0.39800
O 	O 	0.99450 0.27110 0.04170 -0.48100
O 	O 	0.93280 0.31420 0.09150 -0.44900
O 	O 	0.99300 0.29200 0.14410 -0.45800
O 	O 	0.05940 0.24660 0.09410 -0.45900
O 	O 	0.93820 0.59090 0.09430 -0.46700
O 	O 	0.09810 0.30610 0.03020 -0.53500
O 	O 	0.14880 0.17610 0.07450 -0.55300
O 	O 	0.12870 0.32640 0.13020 -0.44600
O 	O 	0.06600 0.53960 0.96010 -0.61300
O 	O 	0.07190 0.68560 0.01860 -0.50200
O 	O 	0.13680 0.50670 0.02050 -0.54000
O 	O 	0.02120 0.78400 0.06440 -0.44300
O 	O 	0.07930 0.75020 0.11810 -0.45900
O 	O 	0.13280 0.64770 0.07350 -0.47400
O 	O 	0.96990 0.65010 0.02920 -0.60500
O 	O 	0.99030 0.72440 0.12700 -0.45600
O 	O 	0.09290 0.58370 0.15500 -0.47100
O 	O 	0.05950 0.40760 0.16490 -0.47500
O 	O 	0.16360 0.50850 0.12080 -0.45800
O 	O 	0.04420 0.74500 0.18950 -0.56200
O 	O 	0.98070 0.39890 0.21020 -0.55600
O 	O 	0.93720 0.44820 0.14250 -0.45100
O 	O 	0.16830 0.37610 0.06870 -0.50000
O 	O 	0.00410 0.55900 0.16290 -0.48800
O 	O 	0.21770 0.55490 0.05790 -0.56800
Co	Co	0.03013 0.82339 0.23851 1.11700
C 	C 	0.20070 0.68910 0.32890 0.10700
C 	C 	0.22980 0.67990 0.38610 0.10100
C 	C 	0.27580 0.68880 0.33690 0.10800
C 	C 	0.22250 0.67530 0.42720 0.06900
C 	C 	0.32250 0.69390 0.31890 0.05500
C 	C 	0.32650 0.71030 0.28150 -0.12400
H 	H 	0.30100 0.72220 0.26680 0.07500
C 	C 	0.36070 0.67710 0.34050 -0.11500
H 	H 	0.35860 0.67000 0.36610 0.06400
C 	C 	0.40200 0.67120 0.32220 0.06600
H 	H 	0.42750 0.65360 0.33610 0.03500
C 	C 	0.80260 0.92740 0.11160 0.10300
C 	C 	0.77040 0.94490 0.16750 0.11300
C 	C 	0.84580 0.94200 0.16150 0.10200
C 	C 	0.89250 0.94090 0.17970 0.05900
C 	C 	0.92990 0.92760 0.15800 -0.12800
H 	H 	0.92840 0.93210 0.13230 0.06600
C 	C 	0.97110 0.90630 0.17680 0.06500
H 	H 	0.99700 0.89430 0.16260 -0.00900
C 	C 	0.79770 0.91330 0.07070 0.05900
C 	C 	0.75580 0.90660 0.05380 -0.13200
H 	H 	0.72920 0.91150 0.06770 0.07400
C 	C 	0.72870 0.95120 0.19180 0.05000
C 	C 	0.68510 0.94430 0.17650 -0.10500
H 	H 	0.68160 0.93700 0.15100 0.06500
C 	C 	0.64760 0.94810 0.19870 0.05400
H 	H 	0.61880 0.94460 0.18800 0.02600
C 	C 	0.93820 0.92470 0.23360 0.06500
H 	H 	0.94050 0.92640 0.25930 -0.01600
C 	C 	0.36930 0.70850 0.26660 0.06800
H 	H 	0.37240 0.72130 0.24130 -0.00300
C 	C 	0.15930 0.69650 0.30550 0.05800
C 	C 	0.11580 0.69620 0.32160 -0.13100
H 	H 	0.11200 0.68140 0.34670 0.08200
C 	C 	0.89510 0.94590 0.21720 -0.12800
H 	H 	0.86980 0.96240 0.23160 0.07100
C 	C 	0.07960 0.71780 0.29990 0.07900
H 	H 	0.05080 0.71780 0.31060 -0.01100
C 	C 	0.73280 0.96190 0.22960 -0.12500
H 	H 	0.76130 0.96690 0.24070 0.07000
C 	C 	0.75400 0.89240 0.01630 0.07600
H 	H 	0.72540 0.88420 0.00560 -0.00600
C 	C 	0.16320 0.70890 0.26800 -0.13000
H 	H 	0.19140 0.70250 0.25640 0.07500
C 	C 	0.12480 0.73090 0.24770 0.06600
H 	H 	0.12760 0.74030 0.22220 -0.01000
C 	C 	0.25700 0.64640 0.45020 -0.14200
H 	H 	0.28530 0.62930 0.44050 0.06700
C 	C 	0.24960 0.64300 0.48720 0.08100
H 	H 	0.27360 0.62350 0.50240 -0.01100
C 	C 	0.18090 0.69670 0.44280 -0.15500
H 	H 	0.15600 0.71370 0.42820 0.08600
C 	C 	0.17750 0.69230 0.48010 0.09000
H 	H 	0.14960 0.70950 0.49060 -0.01400
C 	C 	0.83580 0.90790 0.04890 -0.13900
H 	H 	0.86470 0.91370 0.05930 0.06600
C 	C 	0.83020 0.89340 0.01070 0.06800
H 	H 	0.85630 0.88590 0.99630 -0.02100
C 	C 	0.69440 0.96500 0.25040 0.06800
H 	H 	0.69760 0.97310 0.27590 -0.00700
N 	N 	0.97520 0.90260 0.21400 -0.24900
N 	N 	0.79060 0.88960 0.99390 -0.25200
N 	N 	0.76400 0.93340 0.13150 -0.14300
N 	N 	0.84410 0.93350 0.12490 -0.14900
N 	N 	0.81000 0.95170 0.18420 -0.14500
N 	N 	0.19330 0.68150 0.36530 -0.14300
N 	N 	0.24110 0.69410 0.31350 -0.14400
N 	N 	0.27260 0.68500 0.37350 -0.14500
N 	N 	0.40780 0.68910 0.28650 -0.14100
N 	N 	0.65150 0.95710 0.23650 -0.13800
N 	N 	0.08290 0.73930 0.26370 -0.24700
N 	N 	0.21070 0.66540 0.50300 -0.16800
Co	Co	0.78432 0.89035 0.93477 1.07700
W 	W 	0.54314 0.82659 0.85050 1.30800
W 	W 	0.46942 0.79707 0.92397 0.99600
W 	W 	0.42176 0.04914 0.91028 0.98500
W 	W 	0.49412 0.24767 0.90879 0.99600
W 	W 	0.61918 0.04813 0.84814 1.02800
W 	W 	0.66096 0.97960 0.93505 1.27100
W 	W 	0.58437 0.76408 0.93735 1.01100
W 	W 	0.61776 0.21223 0.92360 1.25400
W 	W 	0.49456 0.07798 0.83584 1.32200
Co	Co	0.58652 0.07590 0.00472 1.14600
Co	Co	0.52105 0.88606 0.00706 1.18100
P 	P 	0.54103 0.00830 0.92648 0.55400
O 	O 	0.50540 0.06920 0.90530 -0.39700
O 	O 	0.58900 0.04520 0.91480 -0.41800
O 	O 	0.53390 0.01990 0.96860 -0.59400
O 	O 	0.53660 0.89790 0.91440 -0.39700
O 	O 	0.49450 0.22890 0.95830 -0.48100
O 	O 	0.43280 0.18580 0.90850 -0.44800
O 	O 	0.49300 0.20800 0.85590 -0.45800
O 	O 	0.55940 0.25340 0.90590 -0.46000
O 	O 	0.43820 0.90910 0.90570 -0.46600
O 	O 	0.59810 0.19390 0.96980 -0.53500
O 	O 	0.64880 0.32390 0.92550 -0.55400
O 	O 	0.62870 0.17360 0.86980 -0.44600
O 	O 	0.56600 0.96040 0.03990 -0.61300
O 	O 	0.57190 0.81440 0.98140 -0.50200
O 	O 	0.63680 0.99330 0.97950 -0.54000
O 	O 	0.52120 0.71600 0.93560 -0.44300
O 	O 	0.57930 0.74980 0.88190 -0.45800
O 	O 	0.63280 0.85230 0.92650 -0.47400
O 	O 	0.46990 0.84990 0.97080 -0.60500
O 	O 	0.49030 0.77560 0.87300 -0.45600
O 	O 	0.59290 0.91630 0.84500 -0.47000
O 	O 	0.55950 0.09240 0.83510 -0.47600
O 	O 	0.66360 0.99150 0.87920 -0.45600
O 	O 	0.54420 0.75500 0.81050 -0.56200
O 	O 	0.48070 0.10110 0.78980 -0.55700
O 	O 	0.43720 0.05180 0.85750 -0.45100
O 	O 	0.66830 0.12390 0.93130 -0.50100
O 	O 	0.50410 0.94100 0.83710 -0.48700
O 	O 	0.71770 0.94510 0.94210 -0.56800
Co	Co	0.53013 0.67661 0.76149 1.11700
C 	C 	0.70070 0.81090 0.67110 0.10800
C 	C 	0.72980 0.82010 0.61390 0.10100
C 	C 	0.77580 0.81120 0.66310 0.10800
C 	C 	0.72250 0.82470 0.57280 0.06900
C 	C 	0.82250 0.80610 0.68110 0.05500
C 	C 	0.82650 0.78970 0.71850 -0.12300
H 	H 	0.80100 0.77780 0.73320 0.07500
C 	C 	0.86070 0.82290 0.65950 -0.11500
H 	H 	0.85860 0.83000 0.63390 0.06400
C 	C 	0.90200 0.82880 0.67780 0.06600
H 	H 	0.92750 0.84640 0.66390 0.03500
C 	C 	0.30260 0.57260 0.88840 0.10300
C 	C 	0.27040 0.55510 0.83250 0.11400
C 	C 	0.34580 0.55800 0.83850 0.10200
C 	C 	0.39250 0.55910 0.82030 0.05900
C 	C 	0.42990 0.57240 0.84200 -0.12800
H 	H 	0.42840 0.56790 0.86770 0.06600
C 	C 	0.47110 0.59370 0.82320 0.06500
H 	H 	0.49700 0.60570 0.83740 -0.00900
C 	C 	0.29770 0.58670 0.92930 0.06000
C 	C 	0.25580 0.59340 0.94620 -0.13300
H 	H 	0.22920 0.58850 0.93230 0.07500
C 	C 	0.22870 0.54880 0.80820 0.05000
C 	C 	0.18510 0.55570 0.82350 -0.10500
H 	H 	0.18160 0.56300 0.84900 0.06500
C 	C 	0.14760 0.55190 0.80130 0.05400
H 	H 	0.11880 0.55540 0.81200 0.02600
C 	C 	0.43820 0.57530 0.76640 0.06500
H 	H 	0.44050 0.57360 0.74070 -0.01600
C 	C 	0.86930 0.79150 0.73340 0.06900
H 	H 	0.87240 0.77870 0.75870 -0.00200
C 	C 	0.65930 0.80350 0.69450 0.05800
C 	C 	0.61580 0.80380 0.67840 -0.13100
H 	H 	0.61200 0.81860 0.65330 0.08300
C 	C 	0.39510 0.55410 0.78280 -0.12900
H 	H 	0.36980 0.53760 0.76840 0.07100
C 	C 	0.57960 0.78220 0.70010 0.07900
H 	H 	0.55080 0.78220 0.68940 -0.01100
C 	C 	0.23280 0.53810 0.77040 -0.12500
H 	H 	0.26130 0.53310 0.75930 0.07100
C 	C 	0.25400 0.60760 0.98370 0.07600
H 	H 	0.22540 0.61580 0.99440 -0.00600
C 	C 	0.66320 0.79110 0.73200 -0.13000
H 	H 	0.69140 0.79750 0.74360 0.07600
C 	C 	0.62480 0.76910 0.75230 0.06600
H 	H 	0.62760 0.75970 0.77780 -0.01000
C 	C 	0.75700 0.85360 0.54980 -0.14200
H 	H 	0.78530 0.87070 0.55950 0.06700
C 	C 	0.74960 0.85700 0.51280 0.08100
H 	H 	0.77360 0.87650 0.49760 -0.01100
C 	C 	0.68090 0.80330 0.55720 -0.15500
H 	H 	0.65600 0.78630 0.57180 0.08600
C 	C 	0.67750 0.80770 0.51990 0.09000
H 	H 	0.64960 0.79050 0.50940 -0.01500
C 	C 	0.33580 0.59210 0.95110 -0.14000
H 	H 	0.36470 0.58630 0.94070 0.06700
C 	C 	0.33020 0.60660 0.98930 0.07000
H 	H 	0.35630 0.61410 0.00370 -0.02200
C 	C 	0.19440 0.53500 0.74960 0.06800
H 	H 	0.19760 0.52690 0.72410 -0.00700
N 	N 	0.47520 0.59740 0.78600 -0.25000
N 	N 	0.29060 0.61040 0.00610 -0.25300
N 	N 	0.26400 0.56660 0.86850 -0.14300
N 	N 	0.34410 0.56650 0.87510 -0.14900
N 	N 	0.31000 0.54830 0.81580 -0.14500
N 	N 	0.69330 0.81850 0.63470 -0.14300
N 	N 	0.74110 0.80590 0.68650 -0.14400
N 	N 	0.77260 0.81500 0.62650 -0.14500
N 	N 	0.90780 0.81090 0.71350 -0.14100
N 	N 	0.15150 0.54290 0.76350 -0.13800
N 	N 	0.58290 0.76070 0.73630 -0.24700
N 	N 	0.71070 0.83460 0.49700 -0.16800
Co	Co	0.28432 0.60965 0.06523 1.07700
W 	W 	0.95686 0.17341 0.35050 1.30700
W 	W 	0.03058 0.20293 0.42397 0.99700
W 	W 	0.07824 0.95086 0.41028 0.98400
W 	W 	0.00588 0.75233 0.40879 0.99600
W 	W 	0.88082 0.95187 0.34814 1.03000
W 	W 	0.83904 0.02040 0.43505 1.27000
W 	W 	0.91563 0.23592 0.43735 1.01100
W 	W 	0.88224 0.78777 0.42360 1.25400
W 	W 	0.00544 0.92202 0.33584 1.32100
Co	Co	0.91348 0.92410 0.50472 1.14600
Co	Co	0.97895 0.11394 0.50706 1.18000
P 	P 	0.95897 0.99170 0.42648 0.55500
O 	O 	0.99460 0.93080 0.40530 -0.39700
O 	O 	0.91100 0.95480 0.41480 -0.41800
O 	O 	0.96610 0.98010 0.46860 -0.59300
O 	O 	0.96340 0.10210 0.41440 -0.39800
O 	O 	0.00550 0.77110 0.45830 -0.48100
O 	O 	0.06720 0.81420 0.40850 -0.44800
O 	O 	0.00700 0.79200 0.35590 -0.45800
O 	O 	0.94060 0.74660 0.40590 -0.45900
O 	O 	0.06180 0.09090 0.40570 -0.46500
O 	O 	0.90190 0.80610 0.46980 -0.53500
O 	O 	0.85120 0.67610 0.42550 -0.55400
O 	O 	0.87130 0.82640 0.36980 -0.44600
O 	O 	0.93400 0.03960 0.53990 -0.61300
O 	O 	0.92810 0.18560 0.48140 -0.50200
O 	O 	0.86320 0.00670 0.47950 -0.54000
O 	O 	0.97880 0.28400 0.43560 -0.44400
O 	O 	0.92070 0.25020 0.38190 -0.45800
O 	O 	0.86720 0.14770 0.42650 -0.47400
O 	O 	0.03010 0.15010 0.47080 -0.60400
O 	O 	0.00970 0.22440 0.37300 -0.45500
O 	O 	0.90710 0.08370 0.34500 -0.47000
O 	O 	0.94050 0.90760 0.33510 -0.47500
O 	O 	0.83640 0.00850 0.37920 -0.45700
O 	O 	0.95580 0.24500 0.31050 -0.56200
O 	O 	0.01930 0.89890 0.28980 -0.55700
O 	O 	0.06280 0.94820 0.35750 -0.45100
O 	O 	0.83170 0.87610 0.43130 -0.50000
O 	O 	0.99590 0.05900 0.33710 -0.48800
O 	O 	0.78230 0.05490 0.44210 -0.56800
Co	Co	0.96987 0.32339 0.26149 1.11700
C 	C 	0.79930 0.18910 0.17110 0.10700
C 	C 	0.77020 0.17990 0.11390 0.10100
C 	C 	0.72420 0.18880 0.16310 0.10800
C 	C 	0.77750 0.17530 0.07280 0.06900
C 	C 	0.67750 0.19390 0.18110 0.05500
C 	C 	0.67350 0.21030 0.21850 -0.12300
H 	H 	0.69900 0.22220 0.23320 0.07500
C 	C 	0.63930 0.17710 0.15950 -0.11500
H 	H 	0.64140 0.17000 0.13390 0.06400
C 	C 	0.59800 0.17120 0.17780 0.06600
H 	H 	0.57250 0.15360 0.16390 0.03500
C 	C 	0.19740 0.42740 0.38840 0.10300
C 	C 	0.22960 0.44490 0.33250 0.11400
C 	C 	0.15420 0.44200 0.33850 0.10200
C 	C 	0.10750 0.44090 0.32030 0.05900
C 	C 	0.07010 0.42760 0.34200 -0.12800
H 	H 	0.07160 0.43210 0.36770 0.06600
C 	C 	0.02890 0.40630 0.32320 0.06500
H 	H 	0.00300 0.39430 0.33740 -0.00800
C 	C 	0.20230 0.41330 0.42930 0.06000
C 	C 	0.24420 0.40660 0.44620 -0.13300
H 	H 	0.27080 0.41150 0.43230 0.07500
C 	C 	0.27130 0.45120 0.30820 0.05000
C 	C 	0.31490 0.44430 0.32350 -0.10500
H 	H 	0.31840 0.43700 0.34900 0.06500
C 	C 	0.35240 0.44810 0.30130 0.05400
H 	H 	0.38120 0.44460 0.31200 0.02600
C 	C 	0.06180 0.42470 0.26640 0.06500
H 	H 	0.05950 0.42640 0.24070 -0.01600
C 	C 	0.63070 0.20850 0.23340 0.06800
H 	H 	0.62760 0.22130 0.25870 -0.00300
C 	C 	0.84070 0.19650 0.19450 0.05800
C 	C 	0.88420 0.19620 0.17840 -0.13100
H 	H 	0.88800 0.18140 0.15330 0.08200
C 	C 	0.10490 0.44590 0.28280 -0.12800
H 	H 	0.13020 0.46240 0.26840 0.07100
C 	C 	0.92040 0.21780 0.20010 0.07900
H 	H 	0.94920 0.21780 0.18940 -0.01100
C 	C 	0.26720 0.46190 0.27040 -0.12500
H 	H 	0.23870 0.46690 0.25930 0.07100
C 	C 	0.24600 0.39240 0.48370 0.07700
H 	H 	0.27460 0.38420 0.49440 -0.00600
C 	C 	0.83680 0.20890 0.23200 -0.13000
H 	H 	0.80860 0.20250 0.24360 0.07500
C 	C 	0.87520 0.23090 0.25230 0.06600
H 	H 	0.87240 0.24030 0.27780 -0.01000
C 	C 	0.74300 0.14640 0.04980 -0.14100
H 	H 	0.71470 0.12930 0.05950 0.06700
C 	C 	0.75040 0.14300 0.01280 0.07900
H 	H 	0.72640 0.12350 0.99760 -0.01100
C 	C 	0.81910 0.19670 0.05720 -0.15500
H 	H 	0.84400 0.21370 0.07180 0.08600
C 	C 	0.82250 0.19230 0.01990 0.08900
H 	H 	0.85040 0.20950 0.00940 -0.01400
C 	C 	0.16420 0.40790 0.45110 -0.14100
H 	H 	0.13530 0.41370 0.44070 0.06700
C 	C 	0.16980 0.39340 0.48930 0.07100
H 	H 	0.14370 0.38590 0.50370 -0.02200
C 	C 	0.30560 0.46500 0.24960 0.06800
H 	H 	0.30240 0.47310 0.22410 -0.00700
N 	N 	0.02480 0.40260 0.28600 -0.24900
N 	N 	0.20940 0.38960 0.50610 -0.25400
N 	N 	0.23600 0.43340 0.36850 -0.14300
N 	N 	0.15590 0.43350 0.37510 -0.14900
N 	N 	0.19000 0.45170 0.31580 -0.14500
N 	N 	0.80670 0.18150 0.13470 -0.14300
N 	N 	0.75890 0.19410 0.18650 -0.14400
N 	N 	0.72740 0.18500 0.12650 -0.14500
N 	N 	0.59220 0.18910 0.21350 -0.14100
N 	N 	0.34850 0.45710 0.26350 -0.13800
N 	N 	0.91710 0.23930 0.23630 -0.24700
N 	N 	0.78930 0.16540 0.99700 -0.16700
Co	Co	0.21568 0.39035 0.56523 1.07700
