data_crystal

_cell_length_a 11.24990
_cell_length_b 11.78880
_cell_length_c 16.22710
_cell_angle_alpha 90.00000
_cell_angle_beta  129.39900
_cell_angle_gamma 90.00000

_symmetry_space_group_name_	'P 1'
_symmetry_space_group_name_H-M	'P 1'

loop_
_symmetry_equiv_pos_as_xyz
  x,y,z

loop_
_atom_site_label
_atom_site_type_symbol
_atom_site_fract_x
_atom_site_fract_y
_atom_site_fract_z
_atom_site_charge
Zn	Zn	0.32333 0.47352 0.48257 1.23900
S 	S 	0.47775 0.52741 0.71493 0.50900
O 	O 	0.43602 0.57093 0.61406 -0.41200
O 	O 	0.63422 0.55558 0.80427 -0.22300
O 	O 	0.43770 0.41011 0.70631 -0.27400
O 	O 	0.52514 0.85144 0.96623 -0.45500
O 	O 	0.28613 0.92029 0.87447 -0.43900
O 	O 	0.85869 0.64766 0.63106 -0.33900
O 	O 	0.89323 0.51402 0.55505 -0.37000
C 	C 	0.35810 0.60352 0.73180 -0.08500
C 	C 	0.41700 0.69180 0.80419 0.06100
H 	H 	0.52240 0.71210 0.84590 0.05700
C 	C 	0.32070 0.75073 0.81548 -0.10200
C 	C 	0.38260 0.84813 0.89136 0.40000
C 	C 	0.16695 0.71943 0.75518 0.05000
H 	H 	0.10150 0.75920 0.76330 0.06100
C 	C 	0.10890 0.63012 0.68305 -0.07200
C 	C 	0.20420 0.57234 0.67039 0.03900
H 	H 	0.16460 0.51220 0.62030 0.06000
C 	C 	0.94380 0.59562 0.61944 0.30700
Zn	Zn	0.67667 0.97352 0.01744 1.23500
S 	S 	0.52225 0.02741 0.78507 0.50100
O 	O 	0.56398 0.07093 0.88594 -0.41300
O 	O 	0.36578 0.05558 0.69573 -0.22300
O 	O 	0.56230 0.91011 0.79369 -0.26800
O 	O 	0.47486 0.35144 0.53377 -0.46000
O 	O 	0.71387 0.42029 0.62553 -0.44400
O 	O 	0.14131 0.14766 0.86894 -0.34100
O 	O 	0.10677 0.01402 0.94495 -0.37300
C 	C 	0.64190 0.10352 0.76820 -0.08400
C 	C 	0.58300 0.19180 0.69581 0.06100
H 	H 	0.47760 0.21210 0.65410 0.05700
C 	C 	0.67930 0.25073 0.68452 -0.10300
C 	C 	0.61740 0.34813 0.60864 0.40100
C 	C 	0.83305 0.21943 0.74482 0.04800
H 	H 	0.89850 0.25920 0.73670 0.06100
C 	C 	0.89110 0.13012 0.81695 -0.06800
C 	C 	0.79580 0.07234 0.82961 0.03600
H 	H 	0.83540 0.01220 0.87970 0.06200
C 	C 	0.05620 0.09562 0.88056 0.30400
Zn	Zn	0.67667 0.52648 0.51743 1.23800
S 	S 	0.52225 0.47259 0.28507 0.50800
O 	O 	0.56398 0.42907 0.38594 -0.41200
O 	O 	0.36578 0.44442 0.19573 -0.22300
O 	O 	0.56230 0.58989 0.29369 -0.27400
O 	O 	0.47486 0.14856 0.03377 -0.45500
O 	O 	0.71387 0.07971 0.12553 -0.43900
O 	O 	0.14131 0.35234 0.36894 -0.33900
O 	O 	0.10677 0.48598 0.44495 -0.37000
C 	C 	0.64190 0.39648 0.26820 -0.08500
C 	C 	0.58300 0.30820 0.19581 0.06100
H 	H 	0.47760 0.28790 0.15410 0.05700
C 	C 	0.67930 0.24927 0.18452 -0.10200
C 	C 	0.61740 0.15187 0.10864 0.40000
C 	C 	0.83305 0.28057 0.24482 0.05000
H 	H 	0.89850 0.24080 0.23670 0.06100
C 	C 	0.89110 0.36988 0.31695 -0.07200
C 	C 	0.79580 0.42766 0.32961 0.03900
H 	H 	0.83540 0.48780 0.37970 0.06000
C 	C 	0.05620 0.40438 0.38056 0.30700
Zn	Zn	0.32333 0.02648 0.98257 1.23500
S 	S 	0.47775 0.97259 0.21493 0.50100
O 	O 	0.43602 0.92907 0.11406 -0.41300
O 	O 	0.63422 0.94442 0.30427 -0.22300
O 	O 	0.43770 0.08989 0.20631 -0.26800
O 	O 	0.52514 0.64856 0.46623 -0.46000
O 	O 	0.28613 0.57971 0.37447 -0.44400
O 	O 	0.85869 0.85234 0.13106 -0.34100
O 	O 	0.89323 0.98598 0.05505 -0.37300
C 	C 	0.35810 0.89648 0.23180 -0.08400
C 	C 	0.41700 0.80820 0.30419 0.06100
H 	H 	0.52240 0.78790 0.34590 0.05700
C 	C 	0.32070 0.74927 0.31548 -0.10300
C 	C 	0.38260 0.65187 0.39136 0.40100
C 	C 	0.16695 0.78057 0.25518 0.04800
H 	H 	0.10150 0.74080 0.26330 0.06100
C 	C 	0.10890 0.86988 0.18305 -0.06800
C 	C 	0.20420 0.92766 0.17039 0.03600
H 	H 	0.16460 0.98780 0.12030 0.06200
C 	C 	0.94380 0.90438 0.11944 0.30400
