data_crystal

_cell_length_a 11.25820
_cell_length_b 11.88120
_cell_length_c 16.21220
_cell_angle_alpha 90.00000
_cell_angle_beta  129.57200
_cell_angle_gamma 90.00000

_symmetry_space_group_name_	'P 1'
_symmetry_space_group_name_H-M	'P 1'

loop_
_symmetry_equiv_pos_as_xyz
  x,y,z

loop_
_atom_site_label
_atom_site_type_symbol
_atom_site_fract_x
_atom_site_fract_y
_atom_site_fract_z
_atom_site_charge
C 	C 	0.14170 0.89378 0.76829 -0.08500
C 	C 	0.08310 0.80567 0.69634 0.06400
H 	H 	0.97890 0.78520 0.65530 0.05700
C 	C 	0.17952 0.74726 0.68498 -0.10500
C 	C 	0.11790 0.65034 0.60947 0.40500
C 	C 	0.33302 0.77904 0.74508 0.05200
H 	H 	0.39800 0.74000 0.73730 0.05900
C 	C 	0.39090 0.86837 0.81667 -0.07600
C 	C 	0.29570 0.92530 0.82933 0.03900
H 	H 	0.33490 0.98470 0.87870 0.05900
C 	C 	0.55580 0.90342 0.87993 0.31400
O 	O 	0.06653 0.92820 0.88699 -0.41200
O 	O 	0.86577 0.93933 0.69636 -0.22300
O 	O 	0.06000 0.08601 0.79104 -0.26300
O 	O 	0.21448 0.57927 0.62625 -0.44600
O 	O 	0.97489 0.64654 0.53464 -0.46100
O 	O 	0.64042 0.85290 0.86767 -0.34400
O 	O 	0.60626 0.98427 0.94421 -0.37600
S 	S 	0.02221 0.96954 0.78479 0.50200
Zn	Zn	0.17720 0.02597 0.01796 1.23400
C 	C 	0.85830 0.39378 0.73171 -0.07700
C 	C 	0.91690 0.30567 0.80366 0.03900
H 	H 	0.02110 0.28520 0.84470 0.06900
C 	C 	0.82048 0.24726 0.81502 -0.09200
C 	C 	0.88210 0.15034 0.89053 0.38600
C 	C 	0.66698 0.27904 0.75492 0.04200
H 	H 	0.60200 0.24000 0.76270 0.06300
C 	C 	0.60910 0.36837 0.68333 -0.06900
C 	C 	0.70430 0.42530 0.67067 0.03200
H 	H 	0.66510 0.48470 0.62130 0.06300
C 	C 	0.44420 0.40342 0.62007 0.31100
O 	O 	0.93347 0.42820 0.61301 -0.41200
O 	O 	0.13423 0.43933 0.80364 -0.21900
O 	O 	0.94000 0.58601 0.70896 -0.27200
O 	O 	0.78552 0.07927 0.87375 -0.44000
O 	O 	0.02511 0.14654 0.96536 -0.44500
O 	O 	0.35958 0.35290 0.63233 -0.33900
O 	O 	0.39374 0.48427 0.55579 -0.37200
S 	S 	0.97779 0.46954 0.71521 0.50200
Zn	Zn	0.82280 0.52597 0.48204 1.23800
C 	C 	0.85830 0.10622 0.23171 -0.08600
C 	C 	0.91690 0.19433 0.30366 0.06300
H 	H 	0.02110 0.21480 0.34470 0.05600
C 	C 	0.82048 0.25274 0.31502 -0.10600
C 	C 	0.88210 0.34966 0.39053 0.40500
C 	C 	0.66698 0.22096 0.25492 0.05200
H 	H 	0.60200 0.26000 0.26270 0.05900
C 	C 	0.60910 0.13163 0.18333 -0.07600
C 	C 	0.70430 0.07470 0.17067 0.03900
H 	H 	0.66510 0.01530 0.12130 0.05900
C 	C 	0.44420 0.09658 0.12007 0.31400
O 	O 	0.93347 0.07180 0.11301 -0.41200
O 	O 	0.13423 0.06067 0.30364 -0.22300
O 	O 	0.94000 0.91399 0.20896 -0.26300
O 	O 	0.78552 0.42073 0.37375 -0.44600
O 	O 	0.02511 0.35346 0.46536 -0.46100
O 	O 	0.35958 0.14710 0.13233 -0.34400
O 	O 	0.39374 0.01573 0.05579 -0.37600
S 	S 	0.97779 0.03046 0.21521 0.50200
Zn	Zn	0.82280 0.97403 0.98204 1.23400
C 	C 	0.14170 0.60622 0.26829 -0.07700
C 	C 	0.08310 0.69433 0.19634 0.03900
H 	H 	0.97890 0.71480 0.15530 0.06900
C 	C 	0.17952 0.75274 0.18498 -0.09200
C 	C 	0.11790 0.84966 0.10947 0.38600
C 	C 	0.33302 0.72096 0.24508 0.04200
H 	H 	0.39800 0.76000 0.23730 0.06300
C 	C 	0.39090 0.63163 0.31667 -0.06900
C 	C 	0.29570 0.57470 0.32933 0.03200
H 	H 	0.33490 0.51530 0.37870 0.06300
C 	C 	0.55580 0.59658 0.37993 0.31100
O 	O 	0.06653 0.57180 0.38699 -0.41200
O 	O 	0.86577 0.56067 0.19636 -0.21900
O 	O 	0.06000 0.41399 0.29104 -0.27200
O 	O 	0.21448 0.92073 0.12625 -0.44000
O 	O 	0.97489 0.85346 0.03464 -0.44500
O 	O 	0.64042 0.64710 0.36767 -0.33900
O 	O 	0.60626 0.51573 0.44421 -0.37200
S 	S 	0.02221 0.53046 0.28479 0.50200
Zn	Zn	0.17720 0.47403 0.51796 1.23800
