data_crystal

_cell_length_a 11.28960
_cell_length_b 12.10490
_cell_length_c 16.15790
_cell_angle_alpha 90.00000
_cell_angle_beta  129.91400
_cell_angle_gamma 90.00000

_symmetry_space_group_name_	'P 1'
_symmetry_space_group_name_H-M	'P 1'

loop_
_symmetry_equiv_pos_as_xyz
  x,y,z

loop_
_atom_site_label
_atom_site_type_symbol
_atom_site_fract_x
_atom_site_fract_y
_atom_site_fract_z
_atom_site_charge
C 	C 	0.14240 0.88760 0.76817 -0.09400
C 	C 	0.08410 0.79981 0.69741 0.07000
H 	H 	0.98130 0.77890 0.65730 0.05200
C 	C 	0.18060 0.74280 0.68670 -0.11600
C 	C 	0.11880 0.64697 0.61139 0.41900
C 	C 	0.33320 0.77595 0.74595 0.06200
H 	H 	0.39750 0.73820 0.73830 0.05500
C 	C 	0.39060 0.86466 0.81628 -0.08800
C 	C 	0.29520 0.92008 0.82820 0.04900
H 	H 	0.33340 0.97880 0.87620 0.05600
C 	C 	0.55480 0.90091 0.87808 0.33400
O 	O 	0.07275 0.92555 0.88927 -0.41400
O 	O 	0.86690 0.92950 0.69747 -0.22700
O 	O 	0.05550 0.07636 0.78550 -0.26300
O 	O 	0.21577 0.57855 0.62742 -0.45100
O 	O 	0.97600 0.64136 0.53737 -0.47000
O 	O 	0.63801 0.85421 0.86478 -0.34900
O 	O 	0.60550 0.98005 0.94240 -0.38400
S 	S 	0.02288 0.96245 0.78418 0.51400
Zn	Zn	0.17868 0.02471 0.01903 1.23500
C 	C 	0.85760 0.38760 0.73183 -0.08300
C 	C 	0.91590 0.29981 0.80259 0.04500
H 	H 	0.01870 0.27890 0.84270 0.06600
C 	C 	0.81940 0.24280 0.81330 -0.10100
C 	C 	0.88120 0.14697 0.88861 0.39900
C 	C 	0.66680 0.27595 0.75405 0.05100
H 	H 	0.60250 0.23820 0.76170 0.06000
C 	C 	0.60940 0.36466 0.68372 -0.08000
C 	C 	0.70480 0.42008 0.67180 0.04000
H 	H 	0.66660 0.47880 0.62380 0.06000
C 	C 	0.44520 0.40091 0.62192 0.33100
O 	O 	0.92725 0.42555 0.61073 -0.41400
O 	O 	0.13310 0.42950 0.80253 -0.22300
O 	O 	0.94450 0.57636 0.71450 -0.27400
O 	O 	0.78423 0.07855 0.87258 -0.44500
O 	O 	0.02400 0.14136 0.96263 -0.45200
O 	O 	0.36199 0.35421 0.63522 -0.34400
O 	O 	0.39450 0.48005 0.55760 -0.38000
S 	S 	0.97712 0.46245 0.71582 0.51400
Zn	Zn	0.82132 0.52471 0.48097 1.23900
C 	C 	0.85760 0.11240 0.23183 -0.09300
C 	C 	0.91590 0.20019 0.30259 0.07100
H 	H 	0.01870 0.22110 0.34270 0.05200
C 	C 	0.81940 0.25720 0.31330 -0.11600
C 	C 	0.88120 0.35303 0.38861 0.41900
C 	C 	0.66680 0.22405 0.25405 0.06200
H 	H 	0.60250 0.26180 0.26170 0.05500
C 	C 	0.60940 0.13534 0.18372 -0.08800
C 	C 	0.70480 0.07992 0.17180 0.04900
H 	H 	0.66660 0.02120 0.12380 0.05600
C 	C 	0.44520 0.09909 0.12192 0.33400
O 	O 	0.92725 0.07445 0.11073 -0.41400
O 	O 	0.13310 0.07050 0.30253 -0.22700
O 	O 	0.94450 0.92364 0.21450 -0.26300
O 	O 	0.78423 0.42145 0.37258 -0.45100
O 	O 	0.02400 0.35864 0.46263 -0.47000
O 	O 	0.36199 0.14579 0.13522 -0.34900
O 	O 	0.39450 0.01995 0.05760 -0.38400
S 	S 	0.97712 0.03755 0.21582 0.51400
Zn	Zn	0.82132 0.97529 0.98097 1.23500
C 	C 	0.14240 0.61240 0.26817 -0.08300
C 	C 	0.08410 0.70019 0.19741 0.04500
H 	H 	0.98130 0.72110 0.15730 0.06600
C 	C 	0.18060 0.75720 0.18670 -0.10100
C 	C 	0.11880 0.85303 0.11139 0.39900
C 	C 	0.33320 0.72405 0.24595 0.05100
H 	H 	0.39750 0.76180 0.23830 0.06000
C 	C 	0.39060 0.63534 0.31628 -0.08000
C 	C 	0.29520 0.57992 0.32820 0.04000
H 	H 	0.33340 0.52120 0.37620 0.06000
C 	C 	0.55480 0.59909 0.37808 0.33100
O 	O 	0.07275 0.57445 0.38927 -0.41400
O 	O 	0.86690 0.57050 0.19747 -0.22300
O 	O 	0.05550 0.42364 0.28550 -0.27400
O 	O 	0.21577 0.92145 0.12742 -0.44500
O 	O 	0.97600 0.85864 0.03737 -0.45200
O 	O 	0.63801 0.64579 0.36478 -0.34400
O 	O 	0.60550 0.51995 0.44240 -0.38000
S 	S 	0.02288 0.53755 0.28418 0.51400
Zn	Zn	0.17868 0.47529 0.51903 1.23900
