data_crystal

_cell_length_a 11.25820
_cell_length_b 11.88120
_cell_length_c 16.21220
_cell_angle_alpha 90.00000
_cell_angle_beta  129.57200
_cell_angle_gamma 90.00000

_symmetry_space_group_name_	'P 1'
_symmetry_space_group_name_H-M	'P 1'

loop_
_symmetry_equiv_pos_as_xyz
  x,y,z

loop_
_atom_site_label
_atom_site_type_symbol
_atom_site_fract_x
_atom_site_fract_y
_atom_site_fract_z
_atom_site_charge
Zn	Zn	0.32281 0.02597 0.48206 1.23700
S 	S 	0.47779 0.96953 0.71520 0.51200
O 	O 	0.43341 0.92822 0.61299 -0.41300
O 	O 	0.44000 0.08593 0.70899 -0.27300
O 	O 	0.63413 0.93936 0.80359 -0.22400
O 	O 	0.89376 0.98428 0.55582 -0.37300
O 	O 	0.85958 0.85290 0.63235 -0.34000
O 	O 	0.52511 0.64646 0.96536 -0.46200
O 	O 	0.28559 0.57930 0.87381 -0.44600
C 	C 	0.35820 0.89373 0.73172 -0.08700
C 	C 	0.20440 0.92535 0.67074 0.04100
H 	H 	0.16530 0.98480 0.62140 0.06000
C 	C 	0.10910 0.86844 0.68329 -0.07500
C 	C 	0.94420 0.90347 0.62006 0.31300
C 	C 	0.16690 0.77911 0.75486 0.05200
H 	H 	0.10190 0.74010 0.76260 0.05900
C 	C 	0.32050 0.74732 0.81497 -0.10600
C 	C 	0.41680 0.80560 0.80369 0.06400
H 	H 	0.52100 0.78510 0.84480 0.05600
C 	C 	0.38210 0.65035 0.89053 0.40500
Zn	Zn	0.67719 0.52597 0.01794 1.23800
S 	S 	0.52221 0.46953 0.78480 0.51200
O 	O 	0.56659 0.42822 0.88701 -0.41300
O 	O 	0.56000 0.58593 0.79101 -0.27300
O 	O 	0.36587 0.43936 0.69641 -0.22500
O 	O 	0.10624 0.48428 0.94418 -0.37300
O 	O 	0.14042 0.35290 0.86765 -0.34000
O 	O 	0.47489 0.14646 0.53464 -0.46300
O 	O 	0.71441 0.07930 0.62619 -0.44600
C 	C 	0.64180 0.39373 0.76828 -0.08700
C 	C 	0.79560 0.42535 0.82926 0.04000
H 	H 	0.83470 0.48480 0.87860 0.06100
C 	C 	0.89090 0.36844 0.81671 -0.07400
C 	C 	0.05580 0.40347 0.87994 0.31200
C 	C 	0.83310 0.27911 0.74514 0.05200
H 	H 	0.89810 0.24010 0.73740 0.06000
C 	C 	0.67950 0.24732 0.68503 -0.10600
C 	C 	0.58320 0.30560 0.69631 0.06300
H 	H 	0.47900 0.28510 0.65520 0.05600
C 	C 	0.61790 0.15035 0.60947 0.40500
Zn	Zn	0.67719 0.97403 0.51794 1.23800
S 	S 	0.52221 0.03047 0.28480 0.51300
O 	O 	0.56659 0.07178 0.38701 -0.41300
O 	O 	0.56000 0.91407 0.29101 -0.27300
O 	O 	0.36587 0.06064 0.19641 -0.22400
O 	O 	0.10624 0.01572 0.44418 -0.37300
O 	O 	0.14042 0.14710 0.36765 -0.34000
O 	O 	0.47489 0.35354 0.03464 -0.46200
O 	O 	0.71441 0.42070 0.12619 -0.44600
C 	C 	0.64180 0.10627 0.26828 -0.08700
C 	C 	0.79560 0.07465 0.32926 0.04100
H 	H 	0.83470 0.01520 0.37860 0.06000
C 	C 	0.89090 0.13156 0.31671 -0.07500
C 	C 	0.05580 0.09653 0.37994 0.31300
C 	C 	0.83310 0.22089 0.24514 0.05200
H 	H 	0.89810 0.25990 0.23740 0.05900
C 	C 	0.67950 0.25268 0.18503 -0.10600
C 	C 	0.58320 0.19440 0.19631 0.06400
H 	H 	0.47900 0.21490 0.15520 0.05600
C 	C 	0.61790 0.34965 0.10947 0.40500
Zn	Zn	0.32281 0.47403 0.98206 1.23800
S 	S 	0.47779 0.53047 0.21520 0.51200
O 	O 	0.43341 0.57178 0.11299 -0.41300
O 	O 	0.44000 0.41407 0.20899 -0.27300
O 	O 	0.63413 0.56064 0.30359 -0.22500
O 	O 	0.89376 0.51572 0.05582 -0.37300
O 	O 	0.85958 0.64710 0.13235 -0.34000
O 	O 	0.52511 0.85354 0.46536 -0.46300
O 	O 	0.28559 0.92070 0.37381 -0.44600
C 	C 	0.35820 0.60627 0.23172 -0.08700
C 	C 	0.20440 0.57465 0.17074 0.04000
H 	H 	0.16530 0.51520 0.12140 0.06100
C 	C 	0.10910 0.63156 0.18329 -0.07400
C 	C 	0.94420 0.59653 0.12006 0.31200
C 	C 	0.16690 0.72089 0.25486 0.05200
H 	H 	0.10190 0.75990 0.26260 0.06000
C 	C 	0.32050 0.75268 0.31497 -0.10600
C 	C 	0.41680 0.69440 0.30369 0.06300
H 	H 	0.52100 0.71490 0.34480 0.05600
C 	C 	0.38210 0.84965 0.39053 0.40500
