data_crystal

_cell_length_a 11.22080
_cell_length_b 11.75750
_cell_length_c 16.20140
_cell_angle_alpha 90.00000
_cell_angle_beta  129.17000
_cell_angle_gamma 90.00000

_symmetry_space_group_name_	'P 1'
_symmetry_space_group_name_H-M	'P 1'

loop_
_symmetry_equiv_pos_as_xyz
  x,y,z

loop_
_atom_site_label
_atom_site_type_symbol
_atom_site_fract_x
_atom_site_fract_y
_atom_site_fract_z
_atom_site_charge
C 	C 	0.14139 0.89786 0.76811 -0.08200
C 	C 	0.08262 0.80964 0.69543 0.06200
H 	H 	0.97710 0.78960 0.65350 0.05800
C 	C 	0.17933 0.75022 0.68409 -0.10200
C 	C 	0.11735 0.65260 0.60829 0.40000
C 	C 	0.33324 0.78111 0.74456 0.05000
H 	H 	0.39880 0.74110 0.73640 0.06000
C 	C 	0.39137 0.87056 0.81701 -0.07200
C 	C 	0.29608 0.92870 0.82979 0.03700
H 	H 	0.33580 0.98880 0.88000 0.06000
C 	C 	0.55629 0.90426 0.88083 0.30500
O 	O 	0.06257 0.92962 0.88580 -0.40900
O 	O 	0.86543 0.94593 0.69587 -0.22100
O 	O 	0.06270 0.09171 0.79465 -0.26200
O 	O 	0.21356 0.57973 0.62538 -0.44400
O 	O 	0.97495 0.64972 0.53341 -0.45800
O 	O 	0.64157 0.85206 0.86877 -0.34200
O 	O 	0.60741 0.98591 0.94572 -0.37300
S 	S 	0.02166 0.97378 0.78514 0.49500
Zn	Zn	0.17658 0.02717 0.01763 1.23300
C 	C 	0.85861 0.39786 0.73189 -0.07500
C 	C 	0.91738 0.30964 0.80457 0.03800
H 	H 	0.02290 0.28960 0.84650 0.07000
C 	C 	0.82067 0.25022 0.81591 -0.09000
C 	C 	0.88265 0.15260 0.89171 0.38200
C 	C 	0.66676 0.28111 0.75544 0.04100
H 	H 	0.60120 0.24110 0.76360 0.06400
C 	C 	0.60863 0.37056 0.68299 -0.06600
C 	C 	0.70392 0.42870 0.67021 0.03000
H 	H 	0.66420 0.48880 0.62000 0.06300
C 	C 	0.44371 0.40426 0.61917 0.30300
O 	O 	0.93743 0.42962 0.61420 -0.40900
O 	O 	0.13457 0.44593 0.80413 -0.21800
O 	O 	0.93730 0.59171 0.70535 -0.27100
O 	O 	0.78644 0.07973 0.87462 -0.43800
O 	O 	0.02505 0.14972 0.96659 -0.44200
O 	O 	0.35843 0.35206 0.63123 -0.33700
O 	O 	0.39259 0.48591 0.55428 -0.36900
S 	S 	0.97834 0.47378 0.71486 0.49400
Zn	Zn	0.82342 0.52717 0.48237 1.23700
C 	C 	0.85861 0.10214 0.23189 -0.08300
C 	C 	0.91738 0.19036 0.30457 0.06100
H 	H 	0.02290 0.21040 0.34650 0.05700
C 	C 	0.82067 0.24978 0.31591 -0.10300
C 	C 	0.88265 0.34740 0.39171 0.40000
C 	C 	0.66676 0.21889 0.25544 0.05000
H 	H 	0.60120 0.25890 0.26360 0.06000
C 	C 	0.60863 0.12944 0.18299 -0.07200
C 	C 	0.70392 0.07130 0.17021 0.03700
H 	H 	0.66420 0.01120 0.12000 0.06000
C 	C 	0.44371 0.09574 0.11917 0.30500
O 	O 	0.93743 0.07038 0.11420 -0.40900
O 	O 	0.13457 0.05407 0.30413 -0.22100
O 	O 	0.93730 0.90829 0.20535 -0.26200
O 	O 	0.78644 0.42027 0.37462 -0.44400
O 	O 	0.02505 0.35028 0.46659 -0.45800
O 	O 	0.35843 0.14794 0.13123 -0.34200
O 	O 	0.39259 0.01409 0.05428 -0.37300
S 	S 	0.97834 0.02622 0.21486 0.49500
Zn	Zn	0.82342 0.97283 0.98237 1.23300
C 	C 	0.14139 0.60214 0.26811 -0.07500
C 	C 	0.08262 0.69036 0.19543 0.03800
H 	H 	0.97710 0.71040 0.15350 0.07000
C 	C 	0.17933 0.74978 0.18409 -0.09000
C 	C 	0.11735 0.84740 0.10829 0.38200
C 	C 	0.33324 0.71889 0.24456 0.04100
H 	H 	0.39880 0.75890 0.23640 0.06400
C 	C 	0.39137 0.62944 0.31701 -0.06600
C 	C 	0.29608 0.57130 0.32979 0.03000
H 	H 	0.33580 0.51120 0.38000 0.06300
C 	C 	0.55629 0.59574 0.38083 0.30300
O 	O 	0.06257 0.57038 0.38580 -0.40900
O 	O 	0.86543 0.55407 0.19587 -0.21800
O 	O 	0.06270 0.40829 0.29465 -0.27100
O 	O 	0.21356 0.92027 0.12538 -0.43800
O 	O 	0.97495 0.85028 0.03341 -0.44200
O 	O 	0.64157 0.64794 0.36877 -0.33700
O 	O 	0.60741 0.51409 0.44572 -0.36900
S 	S 	0.02166 0.52622 0.28514 0.49400
Zn	Zn	0.17658 0.47283 0.51763 1.23700
