data_crystal

_cell_length_a 11.35040
_cell_length_b 12.19230
_cell_length_c 16.18270
_cell_angle_alpha 90.00000
_cell_angle_beta  130.49100
_cell_angle_gamma 90.00000

_symmetry_space_group_name_	'P 1'
_symmetry_space_group_name_H-M	'P 1'

loop_
_symmetry_equiv_pos_as_xyz
  x,y,z

loop_
_atom_site_label
_atom_site_type_symbol
_atom_site_fract_x
_atom_site_fract_y
_atom_site_fract_z
_atom_site_charge
Zn	Zn	0.82070 0.02369 0.48117 1.24100
S 	S 	0.97655 0.95931 0.71643 0.51500
O 	O 	0.92500 0.92376 0.61078 -0.41300
O 	O 	0.13290 0.92590 0.80350 -0.22200
O 	O 	0.94510 0.07277 0.71610 -0.27000
O 	O 	0.39570 0.98010 0.55870 -0.38000
O 	O 	0.36240 0.85461 0.63410 -0.34900
O 	O 	0.78290 0.57828 0.87185 -0.44900
O 	O 	0.02376 0.63850 0.96179 -0.46200
C 	C 	0.85730 0.88480 0.73192 -0.08600
C 	C 	0.70490 0.91830 0.67216 0.04500
H 	H 	0.66700 0.97740 0.62460 0.05800
C 	C 	0.60950 0.86350 0.68357 -0.08600
C 	C 	0.44590 0.90040 0.62210 0.33900
C 	C 	0.66620 0.77448 0.75327 0.05600
H 	H 	0.60180 0.73710 0.76050 0.05700
C 	C 	0.81880 0.74080 0.81243 -0.10700
C 	C 	0.91510 0.79688 0.80191 0.05100
H 	H 	0.01760 0.77520 0.84180 0.06300
C 	C 	0.88060 0.64504 0.88781 0.40600
Zn	Zn	0.17930 0.52369 0.01883 1.23700
S 	S 	0.02345 0.45931 0.78357 0.53400
O 	O 	0.07500 0.42376 0.88922 -0.41400
O 	O 	0.86710 0.42590 0.69650 -0.23400
O 	O 	0.05490 0.57277 0.78390 -0.27400
O 	O 	0.60430 0.48010 0.94130 -0.38400
O 	O 	0.63760 0.35461 0.86590 -0.35200
O 	O 	0.21710 0.07828 0.62815 -0.45200
O 	O 	0.97624 0.13850 0.53821 -0.47300
C 	C 	0.14270 0.38480 0.76808 -0.10100
C 	C 	0.29510 0.41830 0.82784 0.05700
H 	H 	0.33300 0.47740 0.87540 0.05400
C 	C 	0.39050 0.36350 0.81643 -0.09500
C 	C 	0.55410 0.40040 0.87790 0.34300
C 	C 	0.33380 0.27448 0.74673 0.06800
H 	H 	0.39820 0.23710 0.73950 0.05300
C 	C 	0.18120 0.24080 0.68757 -0.12200
C 	C 	0.08490 0.29688 0.69809 0.08100
H 	H 	0.98240 0.27520 0.65820 0.04700
C 	C 	0.11940 0.14504 0.61219 0.42300
Zn	Zn	0.17930 0.97631 0.51883 1.24000
S 	S 	0.02345 0.04069 0.28357 0.51400
O 	O 	0.07500 0.07624 0.38922 -0.41400
O 	O 	0.86710 0.07410 0.19650 -0.22300
O 	O 	0.05490 0.92723 0.28390 -0.27100
O 	O 	0.60430 0.01990 0.44130 -0.38100
O 	O 	0.63760 0.14539 0.36590 -0.34900
O 	O 	0.21710 0.42172 0.12815 -0.44900
O 	O 	0.97624 0.36150 0.03821 -0.46200
C 	C 	0.14270 0.11520 0.26808 -0.08600
C 	C 	0.29510 0.08170 0.32784 0.04500
H 	H 	0.33300 0.02260 0.37540 0.05800
C 	C 	0.39050 0.13650 0.31643 -0.08600
C 	C 	0.55410 0.09960 0.37790 0.33900
C 	C 	0.33380 0.22552 0.24673 0.05600
H 	H 	0.39820 0.26290 0.23950 0.05700
C 	C 	0.18120 0.25920 0.18757 -0.10700
C 	C 	0.08490 0.20312 0.19809 0.05100
H 	H 	0.98240 0.22480 0.15820 0.06300
C 	C 	0.11940 0.35496 0.11219 0.40600
Zn	Zn	0.82070 0.47631 0.98117 1.23700
S 	S 	0.97655 0.54069 0.21643 0.53400
O 	O 	0.92500 0.57624 0.11078 -0.41400
O 	O 	0.13290 0.57410 0.30350 -0.23400
O 	O 	0.94510 0.42723 0.21610 -0.27400
O 	O 	0.39570 0.51990 0.05870 -0.38400
O 	O 	0.36240 0.64539 0.13410 -0.35200
O 	O 	0.78290 0.92172 0.37185 -0.45200
O 	O 	0.02376 0.86150 0.46179 -0.47300
C 	C 	0.85730 0.61520 0.23192 -0.10100
C 	C 	0.70490 0.58170 0.17216 0.05700
H 	H 	0.66700 0.52260 0.12460 0.05400
C 	C 	0.60950 0.63650 0.18357 -0.09500
C 	C 	0.44590 0.59960 0.12210 0.34300
C 	C 	0.66620 0.72552 0.25327 0.06800
H 	H 	0.60180 0.76290 0.26050 0.05300
C 	C 	0.81880 0.75920 0.31243 -0.12200
C 	C 	0.91510 0.70312 0.30191 0.08100
H 	H 	0.01760 0.72480 0.34180 0.04700
C 	C 	0.88060 0.85496 0.38781 0.42300
