data_crystal

_cell_length_a 11.22080
_cell_length_b 11.75750
_cell_length_c 16.20140
_cell_angle_alpha 90.00000
_cell_angle_beta  129.17000
_cell_angle_gamma 90.00000

_symmetry_space_group_name_	'P 1'
_symmetry_space_group_name_H-M	'P 1'

loop_
_symmetry_equiv_pos_as_xyz
  x,y,z

loop_
_atom_site_label
_atom_site_type_symbol
_atom_site_fract_x
_atom_site_fract_y
_atom_site_fract_z
_atom_site_charge
Zn	Zn	0.17659 0.02719 0.01762 1.23300
S 	S 	0.02169 0.97379 0.78517 0.49600
O 	O 	0.06269 0.92963 0.88587 -0.40900
O 	O 	0.86555 0.94595 0.69596 -0.22200
O 	O 	0.06260 0.09157 0.79461 -0.26300
O 	O 	0.21350 0.57976 0.62536 -0.44400
O 	O 	0.97498 0.64971 0.53342 -0.45800
O 	O 	0.64156 0.85211 0.86878 -0.34300
O 	O 	0.60734 0.98590 0.94563 -0.37300
C 	C 	0.14160 0.89782 0.76806 -0.08400
C 	C 	0.08280 0.80947 0.69552 0.06100
H 	H 	0.97740 0.78930 0.65370 0.05700
C 	C 	0.17950 0.75024 0.68415 -0.10400
C 	C 	0.11730 0.65266 0.60838 0.40000
C 	C 	0.33320 0.78114 0.74468 0.05100
H 	H 	0.39890 0.74110 0.73670 0.06000
C 	C 	0.39130 0.87061 0.81703 -0.07300
C 	C 	0.29590 0.92857 0.82967 0.03800
H 	H 	0.33550 0.98870 0.87990 0.06000
C 	C 	0.55630 0.90431 0.88079 0.30700
Zn	Zn	0.82341 0.52719 0.48238 1.23700
S 	S 	0.97831 0.47379 0.71483 0.49600
O 	O 	0.93731 0.42963 0.61413 -0.40900
O 	O 	0.13445 0.44595 0.80404 -0.21800
O 	O 	0.93740 0.59157 0.70539 -0.27200
O 	O 	0.78650 0.07976 0.87464 -0.43800
O 	O 	0.02502 0.14971 0.96658 -0.44200
O 	O 	0.35844 0.35211 0.63122 -0.33800
O 	O 	0.39266 0.48590 0.55437 -0.36900
C 	C 	0.85840 0.39782 0.73194 -0.07500
C 	C 	0.91720 0.30947 0.80448 0.03800
H 	H 	0.02260 0.28930 0.84630 0.07000
C 	C 	0.82050 0.25024 0.81585 -0.09000
C 	C 	0.88270 0.15266 0.89162 0.38200
C 	C 	0.66680 0.28114 0.75532 0.04200
H 	H 	0.60110 0.24110 0.76330 0.06400
C 	C 	0.60870 0.37061 0.68297 -0.06600
C 	C 	0.70410 0.42857 0.67033 0.03100
H 	H 	0.66450 0.48870 0.62010 0.06300
C 	C 	0.44370 0.40431 0.61921 0.30400
Zn	Zn	0.82341 0.97281 0.98238 1.23300
S 	S 	0.97831 0.02621 0.21483 0.49600
O 	O 	0.93731 0.07037 0.11413 -0.40900
O 	O 	0.13445 0.05405 0.30404 -0.22200
O 	O 	0.93740 0.90843 0.20539 -0.26300
O 	O 	0.78650 0.42024 0.37464 -0.44400
O 	O 	0.02502 0.35029 0.46658 -0.45800
O 	O 	0.35844 0.14789 0.13122 -0.34300
O 	O 	0.39266 0.01410 0.05437 -0.37300
C 	C 	0.85840 0.10218 0.23194 -0.08400
C 	C 	0.91720 0.19053 0.30448 0.06100
H 	H 	0.02260 0.21070 0.34630 0.05700
C 	C 	0.82050 0.24976 0.31585 -0.10400
C 	C 	0.88270 0.34734 0.39162 0.40000
C 	C 	0.66680 0.21886 0.25532 0.05100
H 	H 	0.60110 0.25890 0.26330 0.06000
C 	C 	0.60870 0.12939 0.18297 -0.07300
C 	C 	0.70410 0.07143 0.17033 0.03800
H 	H 	0.66450 0.01130 0.12010 0.06000
C 	C 	0.44370 0.09569 0.11921 0.30700
Zn	Zn	0.17659 0.47281 0.51762 1.23700
S 	S 	0.02169 0.52621 0.28517 0.49600
O 	O 	0.06269 0.57037 0.38587 -0.40900
O 	O 	0.86555 0.55405 0.19596 -0.21800
O 	O 	0.06260 0.40843 0.29461 -0.27200
O 	O 	0.21350 0.92024 0.12536 -0.43800
O 	O 	0.97498 0.85029 0.03342 -0.44200
O 	O 	0.64156 0.64789 0.36878 -0.33800
O 	O 	0.60734 0.51410 0.44563 -0.36900
C 	C 	0.14160 0.60218 0.26806 -0.07500
C 	C 	0.08280 0.69053 0.19552 0.03800
H 	H 	0.97740 0.71070 0.15370 0.07000
C 	C 	0.17950 0.74976 0.18415 -0.09000
C 	C 	0.11730 0.84734 0.10838 0.38200
C 	C 	0.33320 0.71886 0.24468 0.04200
H 	H 	0.39890 0.75890 0.23670 0.06400
C 	C 	0.39130 0.62939 0.31703 -0.06600
C 	C 	0.29590 0.57143 0.32967 0.03100
H 	H 	0.33550 0.51130 0.37990 0.06300
C 	C 	0.55630 0.59569 0.38079 0.30400
