data_crystal

_cell_length_a 16.83300
_cell_length_b 29.22700
_cell_length_c 53.53100
_cell_angle_alpha 90.00000
_cell_angle_beta  96.33800
_cell_angle_gamma 90.00000

_symmetry_space_group_name_	'P 1'
_symmetry_space_group_name_H-M	'P 1'

loop_
_symmetry_equiv_pos_as_xyz
  x,y,z

loop_
_atom_site_label
_atom_site_type_symbol
_atom_site_fract_x
_atom_site_fract_y
_atom_site_fract_z
_atom_site_charge
C 	C 	0.66580 0.09210 0.15390 0.57700
C 	C 	0.62430 0.09190 0.18070 -0.17500
C 	C 	0.54140 0.10140 0.17636 0.09200
H 	H 	0.51740 0.10890 0.16040 0.00700
C 	C 	0.49730 0.09890 0.19680 -0.18400
H 	H 	0.44290 0.10540 0.19470 0.10500
C 	C 	0.53460 0.08680 0.22034 0.16100
C 	C 	0.61590 0.07710 0.22344 -0.19600
H 	H 	0.64080 0.06900 0.23920 0.11000
C 	C 	0.66000 0.07950 0.20299 0.12500
H 	H 	0.71440 0.07300 0.20510 0.00700
C 	C 	0.72140 0.01860 0.09630 0.29300
C 	C 	0.67490 0.00910 0.07130 -0.11400
C 	C 	0.64530 0.04550 0.05570 0.06200
H 	H 	0.66110 0.07530 0.05980 0.02500
C 	C 	0.59260 0.03730 0.03431 -0.16300
H 	H 	0.57420 0.06140 0.02390 0.10200
C 	C 	0.56740 0.99290 0.02841 0.15200
C 	C 	0.59490 0.95680 0.04390 -0.16600
H 	H 	0.57800 0.92710 0.04000 0.09900
C 	C 	0.64760 0.96500 0.06529 0.06100
H 	H 	0.66600 0.94080 0.07570 0.01900
C 	C 	0.13270 0.93010 0.10120 0.35500
C 	C 	0.10500 0.94660 0.07500 -0.14100
C 	C 	0.12440 0.99260 0.07126 0.07200
H 	H 	0.15460 0.00900 0.08380 0.01300
C 	C 	0.09770 0.01320 0.04846 -0.17000
H 	H 	0.10910 0.04380 0.04580 0.10000
C 	C 	0.05390 0.98800 0.02968 0.15100
C 	C 	0.03680 0.94220 0.03370 -0.17200
H 	H 	0.00750 0.92530 0.02110 0.10500
C 	C 	0.06350 0.92160 0.05650 0.09000
H 	H 	0.05210 0.89100 0.05920 0.01700
C 	C 	0.75930 0.95190 0.18880 0.15100
C 	C 	0.95100 0.90780 0.12937 0.13700
H 	H 	0.95910 0.90650 0.11250 -0.03000
C 	C 	0.87900 0.92440 0.13620 -0.27000
H 	H 	0.83950 0.93440 0.12390 0.13600
C 	C 	0.86630 0.92610 0.16140 0.27900
C 	C 	0.92540 0.91120 0.17977 -0.25800
H 	H 	0.91690 0.91230 0.19660 0.15200
C 	C 	0.99730 0.89460 0.17294 0.11900
H 	H 	0.03690 0.88460 0.18520 -0.04700
C 	C 	0.17540 0.99350 0.18890 0.24400
C 	C 	0.95090 0.03914 0.12634 0.10500
H 	H 	0.93550 0.04510 0.10940 -0.02400
C 	C 	0.02660 0.02164 0.13385 -0.21800
H 	H 	0.06160 0.01570 0.12200 0.12000
C 	C 	0.05000 0.01305 0.15914 0.20700
C 	C 	0.99770 0.02194 0.17691 -0.21100
H 	H 	0.01330 0.01620 0.19380 0.13500
C 	C 	0.92200 0.03943 0.16940 0.10500
H 	H 	0.88700 0.04540 0.18130 -0.00600
C 	C 	0.25580 0.98220 0.18860 -0.11000
C 	C 	0.29120 0.96788 0.16768 0.01900
H 	H 	0.25970 0.96160 0.15270 0.01400
C 	C 	0.37370 0.96299 0.16915 -0.11300
H 	H 	0.39740 0.95340 0.15520 0.07000
C 	C 	0.42090 0.97243 0.19155 0.04900
C 	C 	0.38540 0.98675 0.21247 -0.10800
H 	H 	0.41700 0.99310 0.22750 0.07000
C 	C 	0.30290 0.99164 0.21099 0.02800
H 	H 	0.27920 0.00120 0.22500 0.03800
C 	C 	0.51440 0.96999 0.19121 0.02200
C 	C 	0.54600 0.97865 0.16878 -0.07300
H 	H 	0.51290 0.98860 0.15480 0.06000
C 	C 	0.62720 0.97240 0.16726 -0.01500
H 	H 	0.64840 0.97820 0.15230 0.04400
C 	C 	0.67670 0.95749 0.18818 -0.04100
C 	C 	0.64510 0.94884 0.21062 -0.01600
H 	H 	0.67820 0.93890 0.22460 0.04800
C 	C 	0.56390 0.95509 0.21213 -0.07200
H 	H 	0.54270 0.94930 0.22710 0.05300
C 	C 	0.79680 0.17528 0.14200 0.08900
H 	H 	0.76730 0.16560 0.15470 -0.01300
C 	C 	0.80900 0.22172 0.13830 -0.20100
H 	H 	0.78770 0.24310 0.14860 0.08900
C 	C 	0.85300 0.23618 0.11927 0.20000
C 	C 	0.88480 0.20421 0.10393 -0.21200
H 	H 	0.91430 0.21390 0.09120 0.12700
C 	C 	0.87270 0.15777 0.10763 0.11000
H 	H 	0.89400 0.13640 0.09740 -0.01700
C 	C 	0.84070 0.37810 0.10091 -0.00400
H 	H 	0.79240 0.36240 0.09950 0.01700
C 	C 	0.91240 0.35406 0.10384 -0.05000
C 	C 	0.98460 0.37755 0.10597 -0.00600
H 	H 	0.03260 0.36150 0.10790 0.05000
C 	C 	0.98520 0.42508 0.10516 -0.08900
H 	H 	0.03350 0.44080 0.10660 0.06500
C 	C 	0.91350 0.44912 0.10223 0.04000
C 	C 	0.84130 0.42563 0.10010 -0.09800
H 	H 	0.79330 0.44170 0.09810 0.07000
C 	C 	0.92880 0.30170 0.10490 0.19200
C 	C 	0.85760 0.57320 0.11113 -0.03200
H 	H 	0.81460 0.58950 0.11610 0.06200
C 	C 	0.85420 0.52580 0.10946 -0.06400
H 	H 	0.80880 0.51030 0.11330 0.05900
C 	C 	0.91860 0.50150 0.10207 0.01500
C 	C 	0.98650 0.52460 0.09635 -0.06000
H 	H 	0.02960 0.50830 0.09140 0.05800
C 	C 	0.98990 0.57200 0.09803 -0.03700
H 	H 	0.03530 0.58750 0.09420 0.05400
C 	C 	0.92550 0.59630 0.10542 -0.00700
C 	C 	0.92620 0.64630 0.10130 0.12300
N 	N 	0.82680 0.14240 0.12620 -0.27000
N 	N 	0.86420 0.28300 0.11750 -0.24300
H 	H 	0.83220 0.30130 0.12400 0.11500
N 	N 	0.48220 0.08670 0.24080 -0.09300
N 	N 	0.52530 0.98180 0.00360 -0.09800
N 	N 	0.89880 0.04770 0.14390 -0.27700
N 	N 	0.12880 0.99400 0.16520 -0.25600
H 	H 	0.14990 0.98140 0.15290 0.14200
N 	N 	0.79970 0.94190 0.16574 -0.26300
H 	H 	0.77000 0.94870 0.15210 0.14700
N 	N 	0.00980 0.89350 0.14733 -0.29700
N 	N 	0.02030 0.00940 0.00600 -0.08700
N 	N 	0.00280 0.66111 0.11362 -0.23000
H 	H 	0.03770 0.64030 0.11800 0.16000
C 	C 	0.11520 0.76216 0.14244 0.09600
H 	H 	0.15820 0.76770 0.15450 -0.05000
C 	C 	0.08980 0.71756 0.13732 -0.21000
H 	H 	0.11570 0.69330 0.14600 0.11800
C 	C 	0.02560 0.70926 0.11924 0.19500
C 	C 	0.98680 0.74557 0.10629 -0.20200
H 	H 	0.94390 0.74000 0.09420 0.11900
C 	C 	0.01230 0.79017 0.11142 0.09900
H 	H 	0.98630 0.81450 0.10280 -0.02000
N 	N 	0.07640 0.79846 0.12949 -0.29300
O 	O 	0.82330 0.94630 0.20860 -0.18900
O 	O 	0.14610 0.00240 0.20749 -0.24500
O 	O 	0.72790 0.99100 0.11460 -0.31100
O 	O 	0.75790 0.05970 0.09821 -0.43800
O 	O 	0.64310 0.10880 0.13710 -0.47600
O 	O 	0.73080 0.07770 0.15966 -0.55300
O 	O 	0.11140 0.88750 0.10238 -0.47800
O 	O 	0.16040 0.95250 0.11884 -0.36800
O 	O 	0.98730 0.28560 0.09560 -0.21800
O 	O 	0.84470 0.66750 0.10490 -0.17100
Zn	Zn	0.10967 0.86395 0.13635 1.16200
Zn	Zn	0.79517 0.07760 0.13160 1.21800
C 	C 	0.33420 0.09210 0.34610 0.57800
C 	C 	0.37570 0.09190 0.31930 -0.17400
C 	C 	0.45860 0.10140 0.32364 0.09300
H 	H 	0.48260 0.10890 0.33960 0.00800
C 	C 	0.50270 0.09890 0.30320 -0.18300
H 	H 	0.55710 0.10540 0.30530 0.10600
C 	C 	0.46540 0.08680 0.27966 0.16200
C 	C 	0.38410 0.07710 0.27656 -0.19500
H 	H 	0.35920 0.06900 0.26080 0.11100
C 	C 	0.34000 0.07950 0.29701 0.12600
H 	H 	0.28560 0.07300 0.29490 0.00800
C 	C 	0.27860 0.01860 0.40370 0.29400
C 	C 	0.32510 0.00910 0.42870 -0.11300
C 	C 	0.35470 0.04550 0.44430 0.06300
H 	H 	0.33890 0.07530 0.44020 0.02600
C 	C 	0.40740 0.03730 0.46569 -0.16200
H 	H 	0.42580 0.06140 0.47610 0.10300
C 	C 	0.43260 0.99290 0.47159 0.15300
C 	C 	0.40510 0.95680 0.45610 -0.16500
H 	H 	0.42200 0.92710 0.46000 0.10000
C 	C 	0.35240 0.96500 0.43471 0.06200
H 	H 	0.33400 0.94080 0.42430 0.02000
C 	C 	0.86730 0.93010 0.39880 0.35600
C 	C 	0.89500 0.94660 0.42500 -0.14000
C 	C 	0.87560 0.99260 0.42874 0.07300
H 	H 	0.84540 0.00900 0.41620 0.01400
C 	C 	0.90230 0.01320 0.45154 -0.17000
H 	H 	0.89090 0.04380 0.45420 0.10000
C 	C 	0.94610 0.98800 0.47032 0.15100
C 	C 	0.96320 0.94220 0.46630 -0.17200
H 	H 	0.99250 0.92530 0.47890 0.10500
C 	C 	0.93650 0.92160 0.44350 0.09100
H 	H 	0.94790 0.89100 0.44080 0.01700
C 	C 	0.24070 0.95190 0.31120 0.15100
C 	C 	0.04900 0.90780 0.37063 0.13700
H 	H 	0.04090 0.90650 0.38750 -0.03000
C 	C 	0.12100 0.92440 0.36380 -0.27000
H 	H 	0.16050 0.93440 0.37610 0.13600
C 	C 	0.13370 0.92610 0.33860 0.27900
C 	C 	0.07460 0.91120 0.32023 -0.25800
H 	H 	0.08310 0.91230 0.30340 0.15200
C 	C 	0.00270 0.89460 0.32706 0.11900
H 	H 	0.96310 0.88460 0.31480 -0.04700
C 	C 	0.82460 0.99350 0.31110 0.24400
C 	C 	0.04910 0.03914 0.37366 0.10500
H 	H 	0.06450 0.04510 0.39060 -0.02400
C 	C 	0.97340 0.02164 0.36615 -0.21800
H 	H 	0.93840 0.01570 0.37800 0.12000
C 	C 	0.95000 0.01305 0.34086 0.20700
C 	C 	0.00230 0.02194 0.32309 -0.21100
H 	H 	0.98670 0.01620 0.30620 0.13500
C 	C 	0.07800 0.03943 0.33060 0.10500
H 	H 	0.11300 0.04540 0.31870 -0.00600
C 	C 	0.74420 0.98220 0.31140 -0.11000
C 	C 	0.70880 0.96788 0.33232 0.01900
H 	H 	0.74030 0.96160 0.34730 0.01400
C 	C 	0.62630 0.96299 0.33085 -0.11300
H 	H 	0.60260 0.95340 0.34480 0.07000
C 	C 	0.57910 0.97243 0.30845 0.04900
C 	C 	0.61460 0.98675 0.28753 -0.10800
H 	H 	0.58300 0.99310 0.27250 0.07000
C 	C 	0.69710 0.99164 0.28901 0.02800
H 	H 	0.72080 0.00120 0.27500 0.03800
C 	C 	0.48560 0.96999 0.30879 0.02200
C 	C 	0.45400 0.97865 0.33122 -0.07300
H 	H 	0.48710 0.98860 0.34520 0.06000
C 	C 	0.37280 0.97240 0.33274 -0.01500
H 	H 	0.35160 0.97820 0.34770 0.04400
C 	C 	0.32330 0.95749 0.31182 -0.04100
C 	C 	0.35490 0.94884 0.28938 -0.01600
H 	H 	0.32180 0.93890 0.27540 0.04800
C 	C 	0.43610 0.95509 0.28787 -0.07200
H 	H 	0.45730 0.94930 0.27290 0.05300
C 	C 	0.20320 0.17528 0.35800 0.08900
H 	H 	0.23270 0.16560 0.34530 -0.01300
C 	C 	0.19100 0.22172 0.36170 -0.20100
H 	H 	0.21230 0.24310 0.35140 0.08900
C 	C 	0.14700 0.23618 0.38073 0.20000
C 	C 	0.11520 0.20421 0.39607 -0.21200
H 	H 	0.08570 0.21390 0.40880 0.12700
C 	C 	0.12730 0.15777 0.39237 0.11000
H 	H 	0.10600 0.13640 0.40260 -0.01700
C 	C 	0.15930 0.37810 0.39909 -0.00400
H 	H 	0.20760 0.36240 0.40050 0.01700
C 	C 	0.08760 0.35406 0.39616 -0.05000
C 	C 	0.01540 0.37755 0.39403 -0.00600
H 	H 	0.96740 0.36150 0.39210 0.05000
C 	C 	0.01480 0.42508 0.39484 -0.08900
H 	H 	0.96650 0.44080 0.39340 0.06500
C 	C 	0.08650 0.44912 0.39777 0.04000
C 	C 	0.15870 0.42563 0.39990 -0.09800
H 	H 	0.20670 0.44170 0.40190 0.07000
C 	C 	0.07120 0.30170 0.39510 0.19200
C 	C 	0.14240 0.57320 0.38887 -0.03200
H 	H 	0.18540 0.58950 0.38390 0.06200
C 	C 	0.14580 0.52580 0.39054 -0.06400
H 	H 	0.19120 0.51030 0.38670 0.05900
C 	C 	0.08140 0.50150 0.39793 0.01500
C 	C 	0.01350 0.52460 0.40365 -0.06000
H 	H 	0.97040 0.50830 0.40860 0.05800
C 	C 	0.01010 0.57200 0.40197 -0.03700
H 	H 	0.96470 0.58750 0.40580 0.05400
C 	C 	0.07450 0.59630 0.39458 -0.00700
C 	C 	0.07380 0.64630 0.39870 0.12300
N 	N 	0.17320 0.14240 0.37380 -0.27000
N 	N 	0.13580 0.28300 0.38250 -0.24300
H 	H 	0.16780 0.30130 0.37600 0.11500
N 	N 	0.51780 0.08670 0.25920 -0.09300
N 	N 	0.47470 0.98180 0.49640 -0.09800
N 	N 	0.10120 0.04770 0.35610 -0.27700
N 	N 	0.87120 0.99400 0.33480 -0.25600
H 	H 	0.85010 0.98140 0.34710 0.14200
N 	N 	0.20030 0.94190 0.33426 -0.26300
H 	H 	0.23000 0.94870 0.34790 0.14700
N 	N 	0.99020 0.89350 0.35267 -0.29700
N 	N 	0.97970 0.00940 0.49400 -0.08700
N 	N 	0.99720 0.66111 0.38638 -0.23000
H 	H 	0.96230 0.64030 0.38200 0.16000
C 	C 	0.88480 0.76216 0.35756 0.09600
H 	H 	0.84180 0.76770 0.34550 -0.05000
C 	C 	0.91020 0.71756 0.36268 -0.21000
H 	H 	0.88430 0.69330 0.35400 0.11800
C 	C 	0.97440 0.70926 0.38076 0.19500
C 	C 	0.01320 0.74557 0.39371 -0.20200
H 	H 	0.05610 0.74000 0.40580 0.11900
C 	C 	0.98770 0.79017 0.38858 0.09900
H 	H 	0.01370 0.81450 0.39720 -0.02000
N 	N 	0.92360 0.79846 0.37051 -0.29300
O 	O 	0.17670 0.94630 0.29140 -0.18900
O 	O 	0.85390 0.00240 0.29251 -0.24500
O 	O 	0.27210 0.99100 0.38540 -0.31100
O 	O 	0.24210 0.05970 0.40179 -0.43800
O 	O 	0.35690 0.10880 0.36290 -0.47600
O 	O 	0.26920 0.07770 0.34034 -0.55300
O 	O 	0.88860 0.88750 0.39762 -0.47800
O 	O 	0.83960 0.95250 0.38116 -0.36800
O 	O 	0.01270 0.28560 0.40440 -0.21800
O 	O 	0.15530 0.66750 0.39510 -0.17100
Zn	Zn	0.89033 0.86395 0.36365 1.16200
Zn	Zn	0.20483 0.07760 0.36840 1.21800
C 	C 	0.33420 0.90790 0.84610 0.57800
C 	C 	0.37570 0.90810 0.81930 -0.17400
C 	C 	0.45860 0.89860 0.82364 0.09300
H 	H 	0.48260 0.89110 0.83960 0.00800
C 	C 	0.50270 0.90110 0.80320 -0.18300
H 	H 	0.55710 0.89460 0.80530 0.10600
C 	C 	0.46540 0.91320 0.77966 0.16200
C 	C 	0.38410 0.92290 0.77656 -0.19500
H 	H 	0.35920 0.93100 0.76080 0.11100
C 	C 	0.34000 0.92050 0.79701 0.12600
H 	H 	0.28560 0.92700 0.79490 0.00800
C 	C 	0.27860 0.98140 0.90370 0.29400
C 	C 	0.32510 0.99090 0.92870 -0.11300
C 	C 	0.35470 0.95450 0.94430 0.06300
H 	H 	0.33890 0.92470 0.94020 0.02600
C 	C 	0.40740 0.96270 0.96569 -0.16200
H 	H 	0.42580 0.93860 0.97610 0.10300
C 	C 	0.43260 0.00710 0.97159 0.15300
C 	C 	0.40510 0.04320 0.95610 -0.16500
H 	H 	0.42200 0.07290 0.96000 0.10000
C 	C 	0.35240 0.03500 0.93471 0.06200
H 	H 	0.33400 0.05920 0.92430 0.02000
C 	C 	0.86730 0.06990 0.89880 0.35600
C 	C 	0.89500 0.05340 0.92500 -0.14000
C 	C 	0.87560 0.00740 0.92874 0.07300
H 	H 	0.84540 0.99100 0.91620 0.01400
C 	C 	0.90230 0.98680 0.95154 -0.17000
H 	H 	0.89090 0.95620 0.95420 0.10000
C 	C 	0.94610 0.01200 0.97032 0.15100
C 	C 	0.96320 0.05780 0.96630 -0.17200
H 	H 	0.99250 0.07470 0.97890 0.10500
C 	C 	0.93650 0.07840 0.94350 0.09000
H 	H 	0.94790 0.10900 0.94080 0.01700
C 	C 	0.24070 0.04810 0.81120 0.15100
C 	C 	0.04900 0.09220 0.87063 0.13700
H 	H 	0.04090 0.09350 0.88750 -0.03000
C 	C 	0.12100 0.07560 0.86380 -0.27000
H 	H 	0.16050 0.06560 0.87610 0.13600
C 	C 	0.13370 0.07390 0.83860 0.27900
C 	C 	0.07460 0.08880 0.82023 -0.25800
H 	H 	0.08310 0.08770 0.80340 0.15200
C 	C 	0.00270 0.10540 0.82706 0.11900
H 	H 	0.96310 0.11540 0.81480 -0.04700
C 	C 	0.82460 0.00650 0.81110 0.24400
C 	C 	0.04910 0.96086 0.87366 0.10500
H 	H 	0.06450 0.95490 0.89060 -0.02400
C 	C 	0.97340 0.97836 0.86615 -0.21800
H 	H 	0.93840 0.98430 0.87800 0.12000
C 	C 	0.95000 0.98695 0.84086 0.20700
C 	C 	0.00230 0.97806 0.82309 -0.21100
H 	H 	0.98670 0.98380 0.80620 0.13500
C 	C 	0.07800 0.96057 0.83060 0.10500
H 	H 	0.11300 0.95460 0.81870 -0.00600
C 	C 	0.74420 0.01780 0.81140 -0.11000
C 	C 	0.70880 0.03212 0.83232 0.01900
H 	H 	0.74030 0.03840 0.84730 0.01400
C 	C 	0.62630 0.03701 0.83085 -0.11300
H 	H 	0.60260 0.04660 0.84480 0.07000
C 	C 	0.57910 0.02757 0.80845 0.04900
C 	C 	0.61460 0.01325 0.78753 -0.10800
H 	H 	0.58300 0.00690 0.77250 0.07000
C 	C 	0.69710 0.00836 0.78901 0.02800
H 	H 	0.72080 0.99880 0.77500 0.03800
C 	C 	0.48560 0.03001 0.80879 0.02200
C 	C 	0.45400 0.02135 0.83122 -0.07300
H 	H 	0.48710 0.01140 0.84520 0.06000
C 	C 	0.37280 0.02760 0.83274 -0.01500
H 	H 	0.35160 0.02180 0.84770 0.04400
C 	C 	0.32330 0.04251 0.81182 -0.04100
C 	C 	0.35490 0.05116 0.78938 -0.01600
H 	H 	0.32180 0.06110 0.77540 0.04800
C 	C 	0.43610 0.04491 0.78787 -0.07200
H 	H 	0.45730 0.05070 0.77290 0.05300
C 	C 	0.20320 0.82472 0.85800 0.08900
H 	H 	0.23270 0.83440 0.84530 -0.01300
C 	C 	0.19100 0.77828 0.86170 -0.20100
H 	H 	0.21230 0.75690 0.85140 0.08900
C 	C 	0.14700 0.76382 0.88073 0.20000
C 	C 	0.11520 0.79579 0.89607 -0.21200
H 	H 	0.08570 0.78610 0.90880 0.12700
C 	C 	0.12730 0.84223 0.89237 0.11000
H 	H 	0.10600 0.86360 0.90260 -0.01700
C 	C 	0.15930 0.62190 0.89909 -0.00400
H 	H 	0.20760 0.63760 0.90050 0.01700
C 	C 	0.08760 0.64594 0.89616 -0.05000
C 	C 	0.01540 0.62245 0.89403 -0.00600
H 	H 	0.96740 0.63850 0.89210 0.05000
C 	C 	0.01480 0.57492 0.89484 -0.08900
H 	H 	0.96650 0.55920 0.89340 0.06500
C 	C 	0.08650 0.55088 0.89777 0.04000
C 	C 	0.15870 0.57437 0.89990 -0.09800
H 	H 	0.20670 0.55830 0.90190 0.07000
C 	C 	0.07120 0.69830 0.89510 0.19200
C 	C 	0.14240 0.42680 0.88887 -0.03200
H 	H 	0.18540 0.41050 0.88390 0.06200
C 	C 	0.14580 0.47420 0.89054 -0.06400
H 	H 	0.19120 0.48970 0.88670 0.05900
C 	C 	0.08140 0.49850 0.89793 0.01500
C 	C 	0.01350 0.47540 0.90365 -0.06000
H 	H 	0.97040 0.49170 0.90860 0.05800
C 	C 	0.01010 0.42800 0.90197 -0.03700
H 	H 	0.96470 0.41250 0.90580 0.05400
C 	C 	0.07450 0.40370 0.89458 -0.00700
C 	C 	0.07380 0.35370 0.89870 0.12300
N 	N 	0.17320 0.85760 0.87380 -0.27000
N 	N 	0.13580 0.71700 0.88250 -0.24300
H 	H 	0.16780 0.69870 0.87600 0.11500
N 	N 	0.51780 0.91330 0.75920 -0.09300
N 	N 	0.47470 0.01820 0.99640 -0.09800
N 	N 	0.10120 0.95230 0.85610 -0.27700
N 	N 	0.87120 0.00600 0.83480 -0.25600
H 	H 	0.85010 0.01860 0.84710 0.14200
N 	N 	0.20030 0.05810 0.83426 -0.26300
H 	H 	0.23000 0.05130 0.84790 0.14700
N 	N 	0.99020 0.10650 0.85267 -0.29700
N 	N 	0.97970 0.99060 0.99400 -0.08700
N 	N 	0.99720 0.33889 0.88638 -0.23000
H 	H 	0.96230 0.35970 0.88200 0.16000
C 	C 	0.88480 0.23784 0.85756 0.09600
H 	H 	0.84180 0.23230 0.84550 -0.05000
C 	C 	0.91020 0.28244 0.86268 -0.21000
H 	H 	0.88430 0.30670 0.85400 0.11800
C 	C 	0.97440 0.29074 0.88076 0.19500
C 	C 	0.01320 0.25443 0.89371 -0.20200
H 	H 	0.05610 0.26000 0.90580 0.11900
C 	C 	0.98770 0.20983 0.88858 0.09900
H 	H 	0.01370 0.18550 0.89720 -0.02000
N 	N 	0.92360 0.20154 0.87051 -0.29300
O 	O 	0.17670 0.05370 0.79140 -0.18900
O 	O 	0.85390 0.99760 0.79251 -0.24500
O 	O 	0.27210 0.00900 0.88540 -0.31100
O 	O 	0.24210 0.94030 0.90179 -0.43800
O 	O 	0.35690 0.89120 0.86290 -0.47600
O 	O 	0.26920 0.92230 0.84034 -0.55300
O 	O 	0.88860 0.11250 0.89762 -0.47800
O 	O 	0.83960 0.04750 0.88116 -0.36800
O 	O 	0.01270 0.71440 0.90440 -0.21800
O 	O 	0.15530 0.33250 0.89510 -0.17100
Zn	Zn	0.89033 0.13605 0.86365 1.16200
Zn	Zn	0.20483 0.92240 0.86840 1.21800
C 	C 	0.66580 0.90790 0.65390 0.57800
C 	C 	0.62430 0.90810 0.68070 -0.17400
C 	C 	0.54140 0.89860 0.67636 0.09300
H 	H 	0.51740 0.89110 0.66040 0.00800
C 	C 	0.49730 0.90110 0.69680 -0.18300
H 	H 	0.44290 0.89460 0.69470 0.10600
C 	C 	0.53460 0.91320 0.72034 0.16200
C 	C 	0.61590 0.92290 0.72344 -0.19500
H 	H 	0.64080 0.93100 0.73920 0.11100
C 	C 	0.66000 0.92050 0.70299 0.12600
H 	H 	0.71440 0.92700 0.70510 0.00800
C 	C 	0.72140 0.98140 0.59630 0.29400
C 	C 	0.67490 0.99090 0.57130 -0.11300
C 	C 	0.64530 0.95450 0.55570 0.06300
H 	H 	0.66110 0.92470 0.55980 0.02600
C 	C 	0.59260 0.96270 0.53431 -0.16200
H 	H 	0.57420 0.93860 0.52390 0.10300
C 	C 	0.56740 0.00710 0.52841 0.15300
C 	C 	0.59490 0.04320 0.54390 -0.16500
H 	H 	0.57800 0.07290 0.54000 0.10000
C 	C 	0.64760 0.03500 0.56529 0.06200
H 	H 	0.66600 0.05920 0.57570 0.02000
C 	C 	0.13270 0.06990 0.60120 0.35600
C 	C 	0.10500 0.05340 0.57500 -0.14000
C 	C 	0.12440 0.00740 0.57126 0.07300
H 	H 	0.15460 0.99100 0.58380 0.01400
C 	C 	0.09770 0.98680 0.54846 -0.17000
H 	H 	0.10910 0.95620 0.54580 0.10000
C 	C 	0.05390 0.01200 0.52968 0.15100
C 	C 	0.03680 0.05780 0.53370 -0.17200
H 	H 	0.00750 0.07470 0.52110 0.10500
C 	C 	0.06350 0.07840 0.55650 0.09100
H 	H 	0.05210 0.10900 0.55920 0.01700
C 	C 	0.75930 0.04810 0.68880 0.15100
C 	C 	0.95100 0.09220 0.62937 0.13700
H 	H 	0.95910 0.09350 0.61250 -0.03000
C 	C 	0.87900 0.07560 0.63620 -0.27000
H 	H 	0.83950 0.06560 0.62390 0.13600
C 	C 	0.86630 0.07390 0.66140 0.27900
C 	C 	0.92540 0.08880 0.67977 -0.25800
H 	H 	0.91690 0.08770 0.69660 0.15200
C 	C 	0.99730 0.10540 0.67294 0.11900
H 	H 	0.03690 0.11540 0.68520 -0.04700
C 	C 	0.17540 0.00650 0.68890 0.24400
C 	C 	0.95090 0.96086 0.62634 0.10500
H 	H 	0.93550 0.95490 0.60940 -0.02400
C 	C 	0.02660 0.97836 0.63385 -0.21800
H 	H 	0.06160 0.98430 0.62200 0.12000
C 	C 	0.05000 0.98695 0.65914 0.20700
C 	C 	0.99770 0.97806 0.67691 -0.21100
H 	H 	0.01330 0.98380 0.69380 0.13500
C 	C 	0.92200 0.96057 0.66940 0.10500
H 	H 	0.88700 0.95460 0.68130 -0.00600
C 	C 	0.25580 0.01780 0.68860 -0.11000
C 	C 	0.29120 0.03212 0.66768 0.01900
H 	H 	0.25970 0.03840 0.65270 0.01400
C 	C 	0.37370 0.03701 0.66915 -0.11300
H 	H 	0.39740 0.04660 0.65520 0.07000
C 	C 	0.42090 0.02757 0.69155 0.04900
C 	C 	0.38540 0.01325 0.71247 -0.10800
H 	H 	0.41700 0.00690 0.72750 0.07000
C 	C 	0.30290 0.00836 0.71099 0.02800
H 	H 	0.27920 0.99880 0.72500 0.03800
C 	C 	0.51440 0.03001 0.69121 0.02200
C 	C 	0.54600 0.02135 0.66878 -0.07300
H 	H 	0.51290 0.01140 0.65480 0.06000
C 	C 	0.62720 0.02760 0.66726 -0.01500
H 	H 	0.64840 0.02180 0.65230 0.04400
C 	C 	0.67670 0.04251 0.68818 -0.04100
C 	C 	0.64510 0.05116 0.71062 -0.01600
H 	H 	0.67820 0.06110 0.72460 0.04800
C 	C 	0.56390 0.04491 0.71213 -0.07200
H 	H 	0.54270 0.05070 0.72710 0.05300
C 	C 	0.79680 0.82472 0.64200 0.08900
H 	H 	0.76730 0.83440 0.65470 -0.01300
C 	C 	0.80900 0.77828 0.63830 -0.20100
H 	H 	0.78770 0.75690 0.64860 0.08900
C 	C 	0.85300 0.76382 0.61927 0.20000
C 	C 	0.88480 0.79579 0.60393 -0.21200
H 	H 	0.91430 0.78610 0.59120 0.12700
C 	C 	0.87270 0.84223 0.60763 0.11000
H 	H 	0.89400 0.86360 0.59740 -0.01700
C 	C 	0.84070 0.62190 0.60091 -0.00400
H 	H 	0.79240 0.63760 0.59950 0.01700
C 	C 	0.91240 0.64594 0.60384 -0.05000
C 	C 	0.98460 0.62245 0.60597 -0.00600
H 	H 	0.03260 0.63850 0.60790 0.05000
C 	C 	0.98520 0.57492 0.60516 -0.08900
H 	H 	0.03350 0.55920 0.60660 0.06500
C 	C 	0.91350 0.55088 0.60223 0.04000
C 	C 	0.84130 0.57437 0.60010 -0.09800
H 	H 	0.79330 0.55830 0.59810 0.07000
C 	C 	0.92880 0.69830 0.60490 0.19200
C 	C 	0.85760 0.42680 0.61113 -0.03200
H 	H 	0.81460 0.41050 0.61610 0.06200
C 	C 	0.85420 0.47420 0.60946 -0.06400
H 	H 	0.80880 0.48970 0.61330 0.05900
C 	C 	0.91860 0.49850 0.60207 0.01500
C 	C 	0.98650 0.47540 0.59635 -0.06000
H 	H 	0.02960 0.49170 0.59140 0.05800
C 	C 	0.98990 0.42800 0.59803 -0.03700
H 	H 	0.03530 0.41250 0.59420 0.05400
C 	C 	0.92550 0.40370 0.60542 -0.00700
C 	C 	0.92620 0.35370 0.60130 0.12300
N 	N 	0.82680 0.85760 0.62620 -0.27000
N 	N 	0.86420 0.71700 0.61750 -0.24300
H 	H 	0.83220 0.69870 0.62400 0.11500
N 	N 	0.48220 0.91330 0.74080 -0.09300
N 	N 	0.52530 0.01820 0.50360 -0.09800
N 	N 	0.89880 0.95230 0.64390 -0.27700
N 	N 	0.12880 0.00600 0.66520 -0.25600
H 	H 	0.14990 0.01860 0.65290 0.14200
N 	N 	0.79970 0.05810 0.66574 -0.26300
H 	H 	0.77000 0.05130 0.65210 0.14700
N 	N 	0.00980 0.10650 0.64733 -0.29700
N 	N 	0.02030 0.99060 0.50600 -0.08700
N 	N 	0.00280 0.33889 0.61362 -0.23000
H 	H 	0.03770 0.35970 0.61800 0.16000
C 	C 	0.11520 0.23784 0.64244 0.09600
H 	H 	0.15820 0.23230 0.65450 -0.05000
C 	C 	0.08980 0.28244 0.63732 -0.21000
H 	H 	0.11570 0.30670 0.64600 0.11800
C 	C 	0.02560 0.29074 0.61924 0.19500
C 	C 	0.98680 0.25443 0.60629 -0.20200
H 	H 	0.94390 0.26000 0.59420 0.11900
C 	C 	0.01230 0.20983 0.61142 0.09900
H 	H 	0.98630 0.18550 0.60280 -0.02000
N 	N 	0.07640 0.20154 0.62949 -0.29300
O 	O 	0.82330 0.05370 0.70860 -0.18900
O 	O 	0.14610 0.99760 0.70749 -0.24500
O 	O 	0.72790 0.00900 0.61460 -0.31100
O 	O 	0.75790 0.94030 0.59821 -0.43800
O 	O 	0.64310 0.89120 0.63710 -0.47600
O 	O 	0.73080 0.92230 0.65966 -0.55300
O 	O 	0.11140 0.11250 0.60238 -0.47800
O 	O 	0.16040 0.04750 0.61884 -0.36800
O 	O 	0.98730 0.71440 0.59560 -0.21800
O 	O 	0.84470 0.33250 0.60490 -0.17100
Zn	Zn	0.10967 0.13605 0.63635 1.16200
Zn	Zn	0.79517 0.92240 0.63160 1.21800
C 	C 	0.16580 0.59210 0.15390 0.57800
C 	C 	0.12430 0.59190 0.18070 -0.17400
C 	C 	0.04140 0.60140 0.17636 0.09300
H 	H 	0.01740 0.60890 0.16040 0.00800
C 	C 	0.99730 0.59890 0.19680 -0.18300
H 	H 	0.94290 0.60540 0.19470 0.10600
C 	C 	0.03460 0.58680 0.22034 0.16200
C 	C 	0.11590 0.57710 0.22344 -0.19500
H 	H 	0.14080 0.56900 0.23920 0.11100
C 	C 	0.16000 0.57950 0.20299 0.12600
H 	H 	0.21440 0.57300 0.20510 0.00800
C 	C 	0.22140 0.51860 0.09630 0.29400
C 	C 	0.17490 0.50910 0.07130 -0.11300
C 	C 	0.14530 0.54550 0.05570 0.06300
H 	H 	0.16110 0.57530 0.05980 0.02600
C 	C 	0.09260 0.53730 0.03431 -0.16200
H 	H 	0.07420 0.56140 0.02390 0.10300
C 	C 	0.06740 0.49290 0.02841 0.15300
C 	C 	0.09490 0.45680 0.04390 -0.16500
H 	H 	0.07800 0.42710 0.04000 0.10000
C 	C 	0.14760 0.46500 0.06529 0.06200
H 	H 	0.16600 0.44080 0.07570 0.02000
C 	C 	0.63270 0.43010 0.10120 0.35600
C 	C 	0.60500 0.44660 0.07500 -0.14000
C 	C 	0.62440 0.49260 0.07126 0.07300
H 	H 	0.65460 0.50900 0.08380 0.01400
C 	C 	0.59770 0.51320 0.04846 -0.17000
H 	H 	0.60910 0.54380 0.04580 0.10000
C 	C 	0.55390 0.48800 0.02968 0.15100
C 	C 	0.53680 0.44220 0.03370 -0.17200
H 	H 	0.50750 0.42530 0.02110 0.10500
C 	C 	0.56350 0.42160 0.05650 0.09100
H 	H 	0.55210 0.39100 0.05920 0.01700
C 	C 	0.25930 0.45190 0.18880 0.15100
C 	C 	0.45100 0.40780 0.12937 0.13700
H 	H 	0.45910 0.40650 0.11250 -0.03000
C 	C 	0.37900 0.42440 0.13620 -0.27000
H 	H 	0.33950 0.43440 0.12390 0.13600
C 	C 	0.36630 0.42610 0.16140 0.27900
C 	C 	0.42540 0.41120 0.17977 -0.25800
H 	H 	0.41690 0.41230 0.19660 0.15200
C 	C 	0.49730 0.39460 0.17294 0.11900
H 	H 	0.53690 0.38460 0.18520 -0.04700
C 	C 	0.67540 0.49350 0.18890 0.24400
C 	C 	0.45090 0.53914 0.12634 0.10500
H 	H 	0.43550 0.54510 0.10940 -0.02400
C 	C 	0.52660 0.52164 0.13385 -0.21800
H 	H 	0.56160 0.51570 0.12200 0.12000
C 	C 	0.55000 0.51305 0.15914 0.20700
C 	C 	0.49770 0.52194 0.17691 -0.21100
H 	H 	0.51330 0.51620 0.19380 0.13500
C 	C 	0.42200 0.53943 0.16940 0.10500
H 	H 	0.38700 0.54540 0.18130 -0.00600
C 	C 	0.75580 0.48220 0.18860 -0.11000
C 	C 	0.79120 0.46788 0.16768 0.01900
H 	H 	0.75970 0.46160 0.15270 0.01400
C 	C 	0.87370 0.46299 0.16915 -0.11300
H 	H 	0.89740 0.45340 0.15520 0.07000
C 	C 	0.92090 0.47243 0.19155 0.04900
C 	C 	0.88540 0.48675 0.21247 -0.10800
H 	H 	0.91700 0.49310 0.22750 0.07000
C 	C 	0.80290 0.49164 0.21099 0.02800
H 	H 	0.77920 0.50120 0.22500 0.03800
C 	C 	0.01440 0.46999 0.19121 0.02200
C 	C 	0.04600 0.47865 0.16878 -0.07300
H 	H 	0.01290 0.48860 0.15480 0.06000
C 	C 	0.12720 0.47240 0.16726 -0.01500
H 	H 	0.14840 0.47820 0.15230 0.04400
C 	C 	0.17670 0.45749 0.18818 -0.04100
C 	C 	0.14510 0.44884 0.21062 -0.01600
H 	H 	0.17820 0.43890 0.22460 0.04800
C 	C 	0.06390 0.45509 0.21213 -0.07200
H 	H 	0.04270 0.44930 0.22710 0.05300
C 	C 	0.29680 0.67528 0.14200 0.08900
H 	H 	0.26730 0.66560 0.15470 -0.01300
C 	C 	0.30900 0.72172 0.13830 -0.20100
H 	H 	0.28770 0.74310 0.14860 0.08900
C 	C 	0.35300 0.73618 0.11927 0.20000
C 	C 	0.38480 0.70421 0.10393 -0.21200
H 	H 	0.41430 0.71390 0.09120 0.12700
C 	C 	0.37270 0.65777 0.10763 0.11000
H 	H 	0.39400 0.63640 0.09740 -0.01700
C 	C 	0.34070 0.87810 0.10091 -0.00400
H 	H 	0.29240 0.86240 0.09950 0.01700
C 	C 	0.41240 0.85406 0.10384 -0.05000
C 	C 	0.48460 0.87755 0.10597 -0.00600
H 	H 	0.53260 0.86150 0.10790 0.05000
C 	C 	0.48520 0.92508 0.10516 -0.08900
H 	H 	0.53350 0.94080 0.10660 0.06500
C 	C 	0.41350 0.94912 0.10223 0.04000
C 	C 	0.34130 0.92563 0.10010 -0.09800
H 	H 	0.29330 0.94170 0.09810 0.07000
C 	C 	0.42880 0.80170 0.10490 0.19200
C 	C 	0.35760 0.07320 0.11113 -0.03200
H 	H 	0.31460 0.08950 0.11610 0.06200
C 	C 	0.35420 0.02580 0.10946 -0.06400
H 	H 	0.30880 0.01030 0.11330 0.05900
C 	C 	0.41860 0.00150 0.10207 0.01500
C 	C 	0.48650 0.02460 0.09635 -0.05900
H 	H 	0.52960 0.00830 0.09140 0.05800
C 	C 	0.48990 0.07200 0.09803 -0.03700
H 	H 	0.53530 0.08750 0.09420 0.05400
C 	C 	0.42550 0.09630 0.10542 -0.00700
C 	C 	0.42620 0.14630 0.10130 0.12300
N 	N 	0.32680 0.64240 0.12620 -0.27000
N 	N 	0.36420 0.78300 0.11750 -0.24300
H 	H 	0.33220 0.80130 0.12400 0.11500
N 	N 	0.98220 0.58670 0.24080 -0.09400
N 	N 	0.02530 0.48180 0.00360 -0.09800
N 	N 	0.39880 0.54770 0.14390 -0.27700
N 	N 	0.62880 0.49400 0.16520 -0.25600
H 	H 	0.64990 0.48140 0.15290 0.14200
N 	N 	0.29970 0.44190 0.16574 -0.26300
H 	H 	0.27000 0.44870 0.15210 0.14700
N 	N 	0.50980 0.39350 0.14733 -0.29700
N 	N 	0.52030 0.50940 0.00600 -0.08700
N 	N 	0.50280 0.16111 0.11362 -0.23000
H 	H 	0.53770 0.14030 0.11800 0.16000
C 	C 	0.61520 0.26216 0.14244 0.09600
H 	H 	0.65820 0.26770 0.15450 -0.05000
C 	C 	0.58980 0.21756 0.13732 -0.21000
H 	H 	0.61570 0.19330 0.14600 0.11800
C 	C 	0.52560 0.20926 0.11924 0.19500
C 	C 	0.48680 0.24557 0.10629 -0.20200
H 	H 	0.44390 0.24000 0.09420 0.11900
C 	C 	0.51230 0.29017 0.11142 0.09900
H 	H 	0.48630 0.31450 0.10280 -0.02000
N 	N 	0.57640 0.29846 0.12949 -0.29300
O 	O 	0.32330 0.44630 0.20860 -0.18900
O 	O 	0.64610 0.50240 0.20749 -0.24500
O 	O 	0.22790 0.49100 0.11460 -0.31100
O 	O 	0.25790 0.55970 0.09821 -0.43800
O 	O 	0.14310 0.60880 0.13710 -0.47600
O 	O 	0.23080 0.57770 0.15966 -0.55300
O 	O 	0.61140 0.38750 0.10238 -0.47800
O 	O 	0.66040 0.45250 0.11884 -0.36800
O 	O 	0.48730 0.78560 0.09560 -0.21800
O 	O 	0.34470 0.16750 0.10490 -0.17200
Zn	Zn	0.60967 0.36395 0.13635 1.16200
Zn	Zn	0.29517 0.57760 0.13160 1.21800
C 	C 	0.83420 0.59210 0.34610 0.57800
C 	C 	0.87570 0.59190 0.31930 -0.17400
C 	C 	0.95860 0.60140 0.32364 0.09300
H 	H 	0.98260 0.60890 0.33960 0.00800
C 	C 	0.00270 0.59890 0.30320 -0.18300
H 	H 	0.05710 0.60540 0.30530 0.10600
C 	C 	0.96540 0.58680 0.27966 0.16200
C 	C 	0.88410 0.57710 0.27656 -0.19500
H 	H 	0.85920 0.56900 0.26080 0.11100
C 	C 	0.84000 0.57950 0.29701 0.12600
H 	H 	0.78560 0.57300 0.29490 0.00800
C 	C 	0.77860 0.51860 0.40370 0.29400
C 	C 	0.82510 0.50910 0.42870 -0.11300
C 	C 	0.85470 0.54550 0.44430 0.06300
H 	H 	0.83890 0.57530 0.44020 0.02600
C 	C 	0.90740 0.53730 0.46569 -0.16200
H 	H 	0.92580 0.56140 0.47610 0.10300
C 	C 	0.93260 0.49290 0.47159 0.15300
C 	C 	0.90510 0.45680 0.45610 -0.16500
H 	H 	0.92200 0.42710 0.46000 0.10000
C 	C 	0.85240 0.46500 0.43471 0.06200
H 	H 	0.83400 0.44080 0.42430 0.02000
C 	C 	0.36730 0.43010 0.39880 0.35600
C 	C 	0.39500 0.44660 0.42500 -0.14000
C 	C 	0.37560 0.49260 0.42874 0.07300
H 	H 	0.34540 0.50900 0.41620 0.01400
C 	C 	0.40230 0.51320 0.45154 -0.17000
H 	H 	0.39090 0.54380 0.45420 0.10000
C 	C 	0.44610 0.48800 0.47032 0.15100
C 	C 	0.46320 0.44220 0.46630 -0.17200
H 	H 	0.49250 0.42530 0.47890 0.10500
C 	C 	0.43650 0.42160 0.44350 0.09100
H 	H 	0.44790 0.39100 0.44080 0.01700
C 	C 	0.74070 0.45190 0.31120 0.15100
C 	C 	0.54900 0.40780 0.37063 0.13700
H 	H 	0.54090 0.40650 0.38750 -0.03000
C 	C 	0.62100 0.42440 0.36380 -0.27000
H 	H 	0.66050 0.43440 0.37610 0.13600
C 	C 	0.63370 0.42610 0.33860 0.27900
C 	C 	0.57460 0.41120 0.32023 -0.25800
H 	H 	0.58310 0.41230 0.30340 0.15200
C 	C 	0.50270 0.39460 0.32706 0.11900
H 	H 	0.46310 0.38460 0.31480 -0.04700
C 	C 	0.32460 0.49350 0.31110 0.24400
C 	C 	0.54910 0.53914 0.37366 0.10500
H 	H 	0.56450 0.54510 0.39060 -0.02400
C 	C 	0.47340 0.52164 0.36615 -0.21800
H 	H 	0.43840 0.51570 0.37800 0.12000
C 	C 	0.45000 0.51305 0.34086 0.20700
C 	C 	0.50230 0.52194 0.32309 -0.21100
H 	H 	0.48670 0.51620 0.30620 0.13500
C 	C 	0.57800 0.53943 0.33060 0.10500
H 	H 	0.61300 0.54540 0.31870 -0.00600
C 	C 	0.24420 0.48220 0.31140 -0.11000
C 	C 	0.20880 0.46788 0.33232 0.01900
H 	H 	0.24030 0.46160 0.34730 0.01400
C 	C 	0.12630 0.46299 0.33085 -0.11300
H 	H 	0.10260 0.45340 0.34480 0.07000
C 	C 	0.07910 0.47243 0.30845 0.04900
C 	C 	0.11460 0.48675 0.28753 -0.10800
H 	H 	0.08300 0.49310 0.27250 0.07000
C 	C 	0.19710 0.49164 0.28901 0.02800
H 	H 	0.22080 0.50120 0.27500 0.03800
C 	C 	0.98560 0.46999 0.30879 0.02200
C 	C 	0.95400 0.47865 0.33122 -0.07300
H 	H 	0.98710 0.48860 0.34520 0.06000
C 	C 	0.87280 0.47240 0.33274 -0.01500
H 	H 	0.85160 0.47820 0.34770 0.04400
C 	C 	0.82330 0.45749 0.31182 -0.04100
C 	C 	0.85490 0.44884 0.28938 -0.01600
H 	H 	0.82180 0.43890 0.27540 0.04800
C 	C 	0.93610 0.45509 0.28787 -0.07200
H 	H 	0.95730 0.44930 0.27290 0.05300
C 	C 	0.70320 0.67528 0.35800 0.08900
H 	H 	0.73270 0.66560 0.34530 -0.01300
C 	C 	0.69100 0.72172 0.36170 -0.20100
H 	H 	0.71230 0.74310 0.35140 0.08900
C 	C 	0.64700 0.73618 0.38073 0.20000
C 	C 	0.61520 0.70421 0.39607 -0.21200
H 	H 	0.58570 0.71390 0.40880 0.12700
C 	C 	0.62730 0.65777 0.39237 0.11000
H 	H 	0.60600 0.63640 0.40260 -0.01700
C 	C 	0.65930 0.87810 0.39909 -0.00400
H 	H 	0.70760 0.86240 0.40050 0.01700
C 	C 	0.58760 0.85406 0.39616 -0.05000
C 	C 	0.51540 0.87755 0.39403 -0.00600
H 	H 	0.46740 0.86150 0.39210 0.05000
C 	C 	0.51480 0.92508 0.39484 -0.08900
H 	H 	0.46650 0.94080 0.39340 0.06500
C 	C 	0.58650 0.94912 0.39777 0.04000
C 	C 	0.65870 0.92563 0.39990 -0.09800
H 	H 	0.70670 0.94170 0.40190 0.07000
C 	C 	0.57120 0.80170 0.39510 0.19200
C 	C 	0.64240 0.07320 0.38887 -0.03200
H 	H 	0.68540 0.08950 0.38390 0.06200
C 	C 	0.64580 0.02580 0.39054 -0.06400
H 	H 	0.69120 0.01030 0.38670 0.05900
C 	C 	0.58140 0.00150 0.39793 0.01500
C 	C 	0.51350 0.02460 0.40365 -0.05900
H 	H 	0.47040 0.00830 0.40860 0.05800
C 	C 	0.51010 0.07200 0.40197 -0.03700
H 	H 	0.46470 0.08750 0.40580 0.05400
C 	C 	0.57450 0.09630 0.39458 -0.00700
C 	C 	0.57380 0.14630 0.39870 0.12300
N 	N 	0.67320 0.64240 0.37380 -0.27000
N 	N 	0.63580 0.78300 0.38250 -0.24300
H 	H 	0.66780 0.80130 0.37600 0.11500
N 	N 	0.01780 0.58670 0.25920 -0.09400
N 	N 	0.97470 0.48180 0.49640 -0.09800
N 	N 	0.60120 0.54770 0.35610 -0.27700
N 	N 	0.37120 0.49400 0.33480 -0.25600
H 	H 	0.35010 0.48140 0.34710 0.14200
N 	N 	0.70030 0.44190 0.33426 -0.26300
H 	H 	0.73000 0.44870 0.34790 0.14700
N 	N 	0.49020 0.39350 0.35267 -0.29700
N 	N 	0.47970 0.50940 0.49400 -0.08700
N 	N 	0.49720 0.16111 0.38638 -0.23000
H 	H 	0.46230 0.14030 0.38200 0.16000
C 	C 	0.38480 0.26216 0.35756 0.09600
H 	H 	0.34180 0.26770 0.34550 -0.05000
C 	C 	0.41020 0.21756 0.36268 -0.21000
H 	H 	0.38430 0.19330 0.35400 0.11800
C 	C 	0.47440 0.20926 0.38076 0.19500
C 	C 	0.51320 0.24557 0.39371 -0.20200
H 	H 	0.55610 0.24000 0.40580 0.11900
C 	C 	0.48770 0.29017 0.38858 0.09900
H 	H 	0.51370 0.31450 0.39720 -0.02000
N 	N 	0.42360 0.29846 0.37051 -0.29300
O 	O 	0.67670 0.44630 0.29140 -0.18900
O 	O 	0.35390 0.50240 0.29251 -0.24500
O 	O 	0.77210 0.49100 0.38540 -0.31100
O 	O 	0.74210 0.55970 0.40179 -0.43800
O 	O 	0.85690 0.60880 0.36290 -0.47600
O 	O 	0.76920 0.57770 0.34034 -0.55300
O 	O 	0.38860 0.38750 0.39762 -0.47800
O 	O 	0.33960 0.45250 0.38116 -0.36800
O 	O 	0.51270 0.78560 0.40440 -0.21800
O 	O 	0.65530 0.16750 0.39510 -0.17200
Zn	Zn	0.39033 0.36395 0.36365 1.16200
Zn	Zn	0.70483 0.57760 0.36840 1.21800
C 	C 	0.83420 0.40790 0.84610 0.57800
C 	C 	0.87570 0.40810 0.81930 -0.17400
C 	C 	0.95860 0.39860 0.82364 0.09300
H 	H 	0.98260 0.39110 0.83960 0.00800
C 	C 	0.00270 0.40110 0.80320 -0.18300
H 	H 	0.05710 0.39460 0.80530 0.10600
C 	C 	0.96540 0.41320 0.77966 0.16200
C 	C 	0.88410 0.42290 0.77656 -0.19500
H 	H 	0.85920 0.43100 0.76080 0.11100
C 	C 	0.84000 0.42050 0.79701 0.12600
H 	H 	0.78560 0.42700 0.79490 0.00800
C 	C 	0.77860 0.48140 0.90370 0.29400
C 	C 	0.82510 0.49090 0.92870 -0.11300
C 	C 	0.85470 0.45450 0.94430 0.06300
H 	H 	0.83890 0.42470 0.94020 0.02600
C 	C 	0.90740 0.46270 0.96569 -0.16200
H 	H 	0.92580 0.43860 0.97610 0.10300
C 	C 	0.93260 0.50710 0.97159 0.15300
C 	C 	0.90510 0.54320 0.95610 -0.16500
H 	H 	0.92200 0.57290 0.96000 0.10000
C 	C 	0.85240 0.53500 0.93471 0.06200
H 	H 	0.83400 0.55920 0.92430 0.02000
C 	C 	0.36730 0.56990 0.89880 0.35600
C 	C 	0.39500 0.55340 0.92500 -0.14000
C 	C 	0.37560 0.50740 0.92874 0.07300
H 	H 	0.34540 0.49100 0.91620 0.01400
C 	C 	0.40230 0.48680 0.95154 -0.17000
H 	H 	0.39090 0.45620 0.95420 0.10000
C 	C 	0.44610 0.51200 0.97032 0.15100
C 	C 	0.46320 0.55780 0.96630 -0.17200
H 	H 	0.49250 0.57470 0.97890 0.10500
C 	C 	0.43650 0.57840 0.94350 0.09100
H 	H 	0.44790 0.60900 0.94080 0.01700
C 	C 	0.74070 0.54810 0.81120 0.15100
C 	C 	0.54900 0.59220 0.87063 0.13700
H 	H 	0.54090 0.59350 0.88750 -0.03000
C 	C 	0.62100 0.57560 0.86380 -0.27000
H 	H 	0.66050 0.56560 0.87610 0.13600
C 	C 	0.63370 0.57390 0.83860 0.27900
C 	C 	0.57460 0.58880 0.82023 -0.25800
H 	H 	0.58310 0.58770 0.80340 0.15200
C 	C 	0.50270 0.60540 0.82706 0.11900
H 	H 	0.46310 0.61540 0.81480 -0.04700
C 	C 	0.32460 0.50650 0.81110 0.24400
C 	C 	0.54910 0.46086 0.87366 0.10500
H 	H 	0.56450 0.45490 0.89060 -0.02400
C 	C 	0.47340 0.47836 0.86615 -0.21800
H 	H 	0.43840 0.48430 0.87800 0.12000
C 	C 	0.45000 0.48695 0.84086 0.20700
C 	C 	0.50230 0.47806 0.82309 -0.21100
H 	H 	0.48670 0.48380 0.80620 0.13500
C 	C 	0.57800 0.46057 0.83060 0.10500
H 	H 	0.61300 0.45460 0.81870 -0.00600
C 	C 	0.24420 0.51780 0.81140 -0.11000
C 	C 	0.20880 0.53212 0.83232 0.01900
H 	H 	0.24030 0.53840 0.84730 0.01400
C 	C 	0.12630 0.53701 0.83085 -0.11300
H 	H 	0.10260 0.54660 0.84480 0.07000
C 	C 	0.07910 0.52757 0.80845 0.04900
C 	C 	0.11460 0.51325 0.78753 -0.10800
H 	H 	0.08300 0.50690 0.77250 0.07000
C 	C 	0.19710 0.50836 0.78901 0.02800
H 	H 	0.22080 0.49880 0.77500 0.03800
C 	C 	0.98560 0.53001 0.80879 0.02200
C 	C 	0.95400 0.52135 0.83122 -0.07300
H 	H 	0.98710 0.51140 0.84520 0.06000
C 	C 	0.87280 0.52760 0.83274 -0.01500
H 	H 	0.85160 0.52180 0.84770 0.04400
C 	C 	0.82330 0.54251 0.81182 -0.04100
C 	C 	0.85490 0.55116 0.78938 -0.01600
H 	H 	0.82180 0.56110 0.77540 0.04800
C 	C 	0.93610 0.54491 0.78787 -0.07200
H 	H 	0.95730 0.55070 0.77290 0.05300
C 	C 	0.70320 0.32472 0.85800 0.08900
H 	H 	0.73270 0.33440 0.84530 -0.01300
C 	C 	0.69100 0.27828 0.86170 -0.20100
H 	H 	0.71230 0.25690 0.85140 0.08900
C 	C 	0.64700 0.26382 0.88073 0.20000
C 	C 	0.61520 0.29579 0.89607 -0.21200
H 	H 	0.58570 0.28610 0.90880 0.12700
C 	C 	0.62730 0.34223 0.89237 0.11000
H 	H 	0.60600 0.36360 0.90260 -0.01700
C 	C 	0.65930 0.12190 0.89909 -0.00400
H 	H 	0.70760 0.13760 0.90050 0.01700
C 	C 	0.58760 0.14594 0.89616 -0.05000
C 	C 	0.51540 0.12245 0.89403 -0.00600
H 	H 	0.46740 0.13850 0.89210 0.05000
C 	C 	0.51480 0.07492 0.89484 -0.08900
H 	H 	0.46650 0.05920 0.89340 0.06500
C 	C 	0.58650 0.05088 0.89777 0.04000
C 	C 	0.65870 0.07437 0.89990 -0.09800
H 	H 	0.70670 0.05830 0.90190 0.07000
C 	C 	0.57120 0.19830 0.89510 0.19200
C 	C 	0.64240 0.92680 0.88887 -0.03200
H 	H 	0.68540 0.91050 0.88390 0.06200
C 	C 	0.64580 0.97420 0.89054 -0.06400
H 	H 	0.69120 0.98970 0.88670 0.05900
C 	C 	0.58140 0.99850 0.89793 0.01500
C 	C 	0.51350 0.97540 0.90365 -0.05900
H 	H 	0.47040 0.99170 0.90860 0.05800
C 	C 	0.51010 0.92800 0.90197 -0.03700
H 	H 	0.46470 0.91250 0.90580 0.05400
C 	C 	0.57450 0.90370 0.89458 -0.00700
C 	C 	0.57380 0.85370 0.89870 0.12300
N 	N 	0.67320 0.35760 0.87380 -0.27000
N 	N 	0.63580 0.21700 0.88250 -0.24300
H 	H 	0.66780 0.19870 0.87600 0.11500
N 	N 	0.01780 0.41330 0.75920 -0.09400
N 	N 	0.97470 0.51820 0.99640 -0.09800
N 	N 	0.60120 0.45230 0.85610 -0.27700
N 	N 	0.37120 0.50600 0.83480 -0.25600
H 	H 	0.35010 0.51860 0.84710 0.14200
N 	N 	0.70030 0.55810 0.83426 -0.26300
H 	H 	0.73000 0.55130 0.84790 0.14700
N 	N 	0.49020 0.60650 0.85267 -0.29700
N 	N 	0.47970 0.49060 0.99400 -0.08700
N 	N 	0.49720 0.83889 0.88638 -0.23000
H 	H 	0.46230 0.85970 0.88200 0.16000
C 	C 	0.38480 0.73784 0.85756 0.09600
H 	H 	0.34180 0.73230 0.84550 -0.05000
C 	C 	0.41020 0.78244 0.86268 -0.21000
H 	H 	0.38430 0.80670 0.85400 0.11800
C 	C 	0.47440 0.79074 0.88076 0.19500
C 	C 	0.51320 0.75443 0.89371 -0.20200
H 	H 	0.55610 0.76000 0.90580 0.11900
C 	C 	0.48770 0.70983 0.88858 0.09900
H 	H 	0.51370 0.68550 0.89720 -0.02000
N 	N 	0.42360 0.70154 0.87051 -0.29300
O 	O 	0.67670 0.55370 0.79140 -0.18900
O 	O 	0.35390 0.49760 0.79251 -0.24500
O 	O 	0.77210 0.50900 0.88540 -0.31100
O 	O 	0.74210 0.44030 0.90179 -0.43800
O 	O 	0.85690 0.39120 0.86290 -0.47600
O 	O 	0.76920 0.42230 0.84034 -0.55300
O 	O 	0.38860 0.61250 0.89762 -0.47800
O 	O 	0.33960 0.54750 0.88116 -0.36800
O 	O 	0.51270 0.21440 0.90440 -0.21800
O 	O 	0.65530 0.83250 0.89510 -0.17200
Zn	Zn	0.39033 0.63605 0.86365 1.16200
Zn	Zn	0.70483 0.42240 0.86840 1.21800
C 	C 	0.16580 0.40790 0.65390 0.57800
C 	C 	0.12430 0.40810 0.68070 -0.17400
C 	C 	0.04140 0.39860 0.67636 0.09300
H 	H 	0.01740 0.39110 0.66040 0.00800
C 	C 	0.99730 0.40110 0.69680 -0.18300
H 	H 	0.94290 0.39460 0.69470 0.10600
C 	C 	0.03460 0.41320 0.72034 0.16200
C 	C 	0.11590 0.42290 0.72344 -0.19500
H 	H 	0.14080 0.43100 0.73920 0.11100
C 	C 	0.16000 0.42050 0.70299 0.12600
H 	H 	0.21440 0.42700 0.70510 0.00800
C 	C 	0.22140 0.48140 0.59630 0.29400
C 	C 	0.17490 0.49090 0.57130 -0.11300
C 	C 	0.14530 0.45450 0.55570 0.06300
H 	H 	0.16110 0.42470 0.55980 0.02600
C 	C 	0.09260 0.46270 0.53431 -0.16200
H 	H 	0.07420 0.43860 0.52390 0.10300
C 	C 	0.06740 0.50710 0.52841 0.15300
C 	C 	0.09490 0.54320 0.54390 -0.16500
H 	H 	0.07800 0.57290 0.54000 0.10000
C 	C 	0.14760 0.53500 0.56529 0.06200
H 	H 	0.16600 0.55920 0.57570 0.02000
C 	C 	0.63270 0.56990 0.60120 0.35600
C 	C 	0.60500 0.55340 0.57500 -0.14000
C 	C 	0.62440 0.50740 0.57126 0.07300
H 	H 	0.65460 0.49100 0.58380 0.01400
C 	C 	0.59770 0.48680 0.54846 -0.17000
H 	H 	0.60910 0.45620 0.54580 0.10000
C 	C 	0.55390 0.51200 0.52968 0.15100
C 	C 	0.53680 0.55780 0.53370 -0.17200
H 	H 	0.50750 0.57470 0.52110 0.10500
C 	C 	0.56350 0.57840 0.55650 0.09100
H 	H 	0.55210 0.60900 0.55920 0.01700
C 	C 	0.25930 0.54810 0.68880 0.15100
C 	C 	0.45100 0.59220 0.62937 0.13700
H 	H 	0.45910 0.59350 0.61250 -0.03000
C 	C 	0.37900 0.57560 0.63620 -0.27000
H 	H 	0.33950 0.56560 0.62390 0.13600
C 	C 	0.36630 0.57390 0.66140 0.27900
C 	C 	0.42540 0.58880 0.67977 -0.25800
H 	H 	0.41690 0.58770 0.69660 0.15200
C 	C 	0.49730 0.60540 0.67294 0.11900
H 	H 	0.53690 0.61540 0.68520 -0.04700
C 	C 	0.67540 0.50650 0.68890 0.24400
C 	C 	0.45090 0.46086 0.62634 0.10500
H 	H 	0.43550 0.45490 0.60940 -0.02400
C 	C 	0.52660 0.47836 0.63385 -0.21800
H 	H 	0.56160 0.48430 0.62200 0.12000
C 	C 	0.55000 0.48695 0.65914 0.20700
C 	C 	0.49770 0.47806 0.67691 -0.21100
H 	H 	0.51330 0.48380 0.69380 0.13500
C 	C 	0.42200 0.46057 0.66940 0.10500
H 	H 	0.38700 0.45460 0.68130 -0.00600
C 	C 	0.75580 0.51780 0.68860 -0.11000
C 	C 	0.79120 0.53212 0.66768 0.01900
H 	H 	0.75970 0.53840 0.65270 0.01400
C 	C 	0.87370 0.53701 0.66915 -0.11300
H 	H 	0.89740 0.54660 0.65520 0.07000
C 	C 	0.92090 0.52757 0.69155 0.04900
C 	C 	0.88540 0.51325 0.71247 -0.10800
H 	H 	0.91700 0.50690 0.72750 0.07000
C 	C 	0.80290 0.50836 0.71099 0.02800
H 	H 	0.77920 0.49880 0.72500 0.03800
C 	C 	0.01440 0.53001 0.69121 0.02200
C 	C 	0.04600 0.52135 0.66878 -0.07300
H 	H 	0.01290 0.51140 0.65480 0.06000
C 	C 	0.12720 0.52760 0.66726 -0.01500
H 	H 	0.14840 0.52180 0.65230 0.04400
C 	C 	0.17670 0.54251 0.68818 -0.04100
C 	C 	0.14510 0.55116 0.71062 -0.01600
H 	H 	0.17820 0.56110 0.72460 0.04800
C 	C 	0.06390 0.54491 0.71213 -0.07200
H 	H 	0.04270 0.55070 0.72710 0.05300
C 	C 	0.29680 0.32472 0.64200 0.08900
H 	H 	0.26730 0.33440 0.65470 -0.01300
C 	C 	0.30900 0.27828 0.63830 -0.20100
H 	H 	0.28770 0.25690 0.64860 0.08900
C 	C 	0.35300 0.26382 0.61927 0.20000
C 	C 	0.38480 0.29579 0.60393 -0.21200
H 	H 	0.41430 0.28610 0.59120 0.12700
C 	C 	0.37270 0.34223 0.60763 0.11000
H 	H 	0.39400 0.36360 0.59740 -0.01700
C 	C 	0.34070 0.12190 0.60091 -0.00400
H 	H 	0.29240 0.13760 0.59950 0.01700
C 	C 	0.41240 0.14594 0.60384 -0.05000
C 	C 	0.48460 0.12245 0.60597 -0.00600
H 	H 	0.53260 0.13850 0.60790 0.05000
C 	C 	0.48520 0.07492 0.60516 -0.08900
H 	H 	0.53350 0.05920 0.60660 0.06500
C 	C 	0.41350 0.05088 0.60223 0.04000
C 	C 	0.34130 0.07437 0.60010 -0.09800
H 	H 	0.29330 0.05830 0.59810 0.07000
C 	C 	0.42880 0.19830 0.60490 0.19200
C 	C 	0.35760 0.92680 0.61113 -0.03200
H 	H 	0.31460 0.91050 0.61610 0.06200
C 	C 	0.35420 0.97420 0.60946 -0.06400
H 	H 	0.30880 0.98970 0.61330 0.05900
C 	C 	0.41860 0.99850 0.60207 0.01500
C 	C 	0.48650 0.97540 0.59635 -0.05900
H 	H 	0.52960 0.99170 0.59140 0.05800
C 	C 	0.48990 0.92800 0.59803 -0.03700
H 	H 	0.53530 0.91250 0.59420 0.05400
C 	C 	0.42550 0.90370 0.60542 -0.00700
C 	C 	0.42620 0.85370 0.60130 0.12300
N 	N 	0.32680 0.35760 0.62620 -0.27000
N 	N 	0.36420 0.21700 0.61750 -0.24300
H 	H 	0.33220 0.19870 0.62400 0.11500
N 	N 	0.98220 0.41330 0.74080 -0.09400
N 	N 	0.02530 0.51820 0.50360 -0.09800
N 	N 	0.39880 0.45230 0.64390 -0.27700
N 	N 	0.62880 0.50600 0.66520 -0.25600
H 	H 	0.64990 0.51860 0.65290 0.14200
N 	N 	0.29970 0.55810 0.66574 -0.26300
H 	H 	0.27000 0.55130 0.65210 0.14700
N 	N 	0.50980 0.60650 0.64733 -0.29700
N 	N 	0.52030 0.49060 0.50600 -0.08700
N 	N 	0.50280 0.83889 0.61362 -0.23000
H 	H 	0.53770 0.85970 0.61800 0.16000
C 	C 	0.61520 0.73784 0.64244 0.09600
H 	H 	0.65820 0.73230 0.65450 -0.05000
C 	C 	0.58980 0.78244 0.63732 -0.21000
H 	H 	0.61570 0.80670 0.64600 0.11800
C 	C 	0.52560 0.79074 0.61924 0.19500
C 	C 	0.48680 0.75443 0.60629 -0.20200
H 	H 	0.44390 0.76000 0.59420 0.11900
C 	C 	0.51230 0.70983 0.61142 0.09900
H 	H 	0.48630 0.68550 0.60280 -0.02000
N 	N 	0.57640 0.70154 0.62949 -0.29300
O 	O 	0.32330 0.55370 0.70860 -0.18900
O 	O 	0.64610 0.49760 0.70749 -0.24500
O 	O 	0.22790 0.50900 0.61460 -0.31100
O 	O 	0.25790 0.44030 0.59821 -0.43800
O 	O 	0.14310 0.39120 0.63710 -0.47600
O 	O 	0.23080 0.42230 0.65966 -0.55300
O 	O 	0.61140 0.61250 0.60238 -0.47800
O 	O 	0.66040 0.54750 0.61884 -0.36800
O 	O 	0.48730 0.21440 0.59560 -0.21800
O 	O 	0.34470 0.83250 0.60490 -0.17200
Zn	Zn	0.60967 0.63605 0.63635 1.16200
Zn	Zn	0.29517 0.42240 0.63160 1.21800
