data_crystal

_cell_length_a 20.74710
_cell_length_b 26.27640
_cell_length_c 36.89430
_cell_angle_alpha 90.00000
_cell_angle_beta  90.00000
_cell_angle_gamma 90.00000

_symmetry_space_group_name_	'P 1'
_symmetry_space_group_name_H-M	'P 1'

loop_
_symmetry_equiv_pos_as_xyz
  x,y,z

loop_
_atom_site_label
_atom_site_type_symbol
_atom_site_fract_x
_atom_site_fract_y
_atom_site_fract_z
_atom_site_charge
Cd	Cd	0.20251 0.93940 0.15126 1.21100
Cd	Cd	0.07923 0.16344 0.15047 1.20700
O 	O 	0.09830 0.19111 0.21922 -0.51800
O 	O 	0.26800 0.42155 0.27900 -0.49100
N 	N 	0.12690 0.09310 0.16985 -0.26200
O 	O 	0.22650 0.38210 0.32668 -0.41700
N 	N 	0.88210 0.11220 0.16836 -0.24500
N 	N 	0.16210 0.01240 0.17207 -0.24700
O 	O 	0.33270 0.01200 0.22122 -0.40700
C 	C 	0.13360 0.04750 0.15237 0.06700
H 	H 	0.11930 0.04190 0.12880 -0.01600
O 	O 	0.14670 0.96100 0.09523 -0.36400
N 	N 	0.17530 0.03570 0.20465 -0.23800
C 	C 	0.15340 0.26970 0.22714 -0.11300
N 	N 	0.97910 0.14760 0.16843 -0.22300
C 	C 	0.46660 0.99980 0.21750 0.08300
H 	H 	0.44420 0.99940 0.19570 0.02800
C 	C 	0.15350 0.08260 0.20192 0.07800
H 	H 	0.15640 0.10630 0.22060 -0.02000
O 	O 	0.05250 0.11790 0.09460 -0.42100
O 	O 	0.13090 0.23170 0.17069 -0.42500
C 	C 	0.93640 0.12040 0.15060 0.09300
H 	H 	0.94390 0.10800 0.12740 -0.00100
O 	O 	0.22890 0.90990 0.09450 -0.38900
C 	C 	0.18680 0.93460 0.07849 0.30600
O 	O 	0.09700 0.18890 0.09480 -0.44300
C 	C 	0.18350 0.93200 0.03800 -0.05600
C 	C 	0.12600 0.22870 0.20470 0.32600
N 	N 	0.95010 0.15870 0.20103 -0.23100
C 	C 	0.19970 0.35260 0.23270 -0.02300
H 	H 	0.21410 0.38250 0.22190 0.03200
C 	C 	0.18400 0.30290 0.28500 -0.03100
H 	H 	0.18630 0.29910 0.31010 0.04900
C 	C 	0.17310 0.31460 0.21150 -0.01100
H 	H 	0.16860 0.31940 0.18660 0.04000
C 	C 	0.15920 0.26400 0.26390 -0.01800
H 	H 	0.14630 0.23370 0.27480 0.01600
C 	C 	0.20490 0.34660 0.26933 -0.07900
C 	C 	0.04750 0.11210 0.01893 -0.01900
H 	H 	0.02830 0.08530 0.03140 0.03800
C 	C 	0.13430 0.95830 0.01890 -0.02700
H 	H 	0.10220 0.97540 0.03150 0.05800
C 	C 	0.22760 0.90380 0.01910 -0.02500
H 	H 	0.25790 0.88450 0.03160 0.05700
C 	C 	0.07550 0.15110 0.03780 -0.09100
C 	C 	0.23390 0.38650 0.29311 0.33700
C 	C 	0.89340 0.13720 0.19970 0.08400
H 	H 	0.86360 0.13900 0.21860 -0.01400
C 	C 	0.07750 0.15120 0.07860 0.38200
C 	C 	0.10630 0.18820 0.01990 -0.01900
H 	H 	0.12760 0.21380 0.03250 0.04800
Cd	Cd	0.70251 0.43940 0.15126 1.20700
Cd	Cd	0.57923 0.66344 0.15047 1.21500
O 	O 	0.59830 0.69111 0.21922 -0.50800
O 	O 	0.76800 0.92155 0.27900 -0.47500
N 	N 	0.62690 0.59310 0.16985 -0.25600
O 	O 	0.72650 0.88210 0.32668 -0.40600
N 	N 	0.38210 0.61220 0.16836 -0.24300
N 	N 	0.66210 0.51240 0.17207 -0.23200
O 	O 	0.83270 0.51200 0.22122 -0.40700
C 	C 	0.63360 0.54750 0.15237 0.07500
H 	H 	0.61930 0.54190 0.12880 -0.00200
O 	O 	0.64670 0.46100 0.09523 -0.37200
N 	N 	0.67530 0.53570 0.20465 -0.22900
C 	C 	0.65340 0.76970 0.22714 -0.10900
N 	N 	0.47910 0.64760 0.16843 -0.23600
C 	C 	0.96660 0.49980 0.21750 0.14000
H 	H 	0.94420 0.49940 0.19570 0.00100
C 	C 	0.65350 0.58260 0.20192 0.08500
H 	H 	0.65640 0.60630 0.22060 -0.01900
O 	O 	0.55250 0.61790 0.09460 -0.40100
O 	O 	0.63090 0.73170 0.17069 -0.41700
C 	C 	0.43640 0.62040 0.15060 0.09100
H 	H 	0.44390 0.60800 0.12740 -0.01000
O 	O 	0.72890 0.40990 0.09450 -0.39000
C 	C 	0.68680 0.43460 0.07849 0.30800
O 	O 	0.59700 0.68890 0.09480 -0.43300
C 	C 	0.68350 0.43200 0.03800 -0.05700
C 	C 	0.62600 0.72870 0.20470 0.32700
N 	N 	0.45010 0.65870 0.20103 -0.24000
C 	C 	0.69970 0.85260 0.23270 -0.02100
H 	H 	0.71410 0.88250 0.22190 0.03600
C 	C 	0.68400 0.80290 0.28500 -0.03100
H 	H 	0.68630 0.79910 0.31010 0.05400
C 	C 	0.67310 0.81460 0.21150 -0.00900
H 	H 	0.66860 0.81940 0.18660 0.04600
C 	C 	0.65920 0.76400 0.26390 -0.01500
H 	H 	0.64630 0.73370 0.27480 0.01800
C 	C 	0.70490 0.84660 0.26933 -0.07300
C 	C 	0.54750 0.61210 0.01893 -0.01600
H 	H 	0.52830 0.58530 0.03140 0.05300
C 	C 	0.63430 0.45830 0.01890 -0.02600
H 	H 	0.60220 0.47540 0.03150 0.05600
C 	C 	0.72760 0.40380 0.01910 -0.02400
H 	H 	0.75790 0.38450 0.03160 0.05900
C 	C 	0.57550 0.65110 0.03780 -0.08100
C 	C 	0.73390 0.88650 0.29311 0.33600
C 	C 	0.39340 0.63720 0.19970 0.08300
H 	H 	0.36360 0.63900 0.21860 -0.01500
C 	C 	0.57750 0.65120 0.07860 0.37800
C 	C 	0.60630 0.68820 0.01990 -0.01700
H 	H 	0.62760 0.71380 0.03250 0.05400
Cd	Cd	0.79749 0.06060 0.15126 1.20000
Cd	Cd	0.92077 0.83656 0.15047 1.22100
O 	O 	0.90170 0.80889 0.21922 -0.49500
O 	O 	0.73200 0.57845 0.27900 -0.48900
N 	N 	0.87310 0.90690 0.16985 -0.25200
O 	O 	0.77350 0.61790 0.32668 -0.40900
N 	N 	0.11790 0.88780 0.16836 -0.24200
N 	N 	0.83790 0.98760 0.17207 -0.21700
O 	O 	0.66730 0.98800 0.22122 -0.35100
C 	C 	0.86640 0.95250 0.15237 0.08200
H 	H 	0.88070 0.95810 0.12880 0.01000
O 	O 	0.85330 0.03900 0.09523 -0.38200
N 	N 	0.82470 0.96430 0.20465 -0.21900
C 	C 	0.84660 0.73030 0.22714 -0.10300
N 	N 	0.02090 0.85240 0.16843 -0.25000
C 	C 	0.53340 0.00020 0.21750 -0.10000
H 	H 	0.55580 0.00060 0.19570 0.05900
C 	C 	0.84650 0.91740 0.20192 0.09100
H 	H 	0.84360 0.89370 0.22060 -0.01600
O 	O 	0.94750 0.88210 0.09460 -0.38300
O 	O 	0.86910 0.76830 0.17069 -0.41200
C 	C 	0.06360 0.87960 0.15060 0.09000
H 	H 	0.05610 0.89200 0.12740 -0.01800
O 	O 	0.77110 0.09010 0.09450 -0.39700
C 	C 	0.81320 0.06540 0.07849 0.30900
O 	O 	0.90300 0.81110 0.09480 -0.42600
C 	C 	0.81650 0.06800 0.03800 -0.06000
C 	C 	0.87400 0.77130 0.20470 0.32500
N 	N 	0.04990 0.84130 0.20103 -0.24700
C 	C 	0.80030 0.64740 0.23270 -0.01800
H 	H 	0.78590 0.61750 0.22190 0.03300
C 	C 	0.81600 0.69710 0.28500 -0.02700
H 	H 	0.81370 0.70090 0.31010 0.05400
C 	C 	0.82690 0.68540 0.21150 -0.01200
H 	H 	0.83140 0.68060 0.18660 0.04800
C 	C 	0.84080 0.73600 0.26390 -0.01700
H 	H 	0.85370 0.76630 0.27480 0.02100
C 	C 	0.79510 0.65340 0.26933 -0.07700
C 	C 	0.95250 0.88790 0.01893 -0.01200
H 	H 	0.97170 0.91470 0.03140 0.06700
C 	C 	0.86570 0.04170 0.01890 -0.02600
H 	H 	0.89780 0.02460 0.03150 0.05400
C 	C 	0.77240 0.09620 0.01910 -0.02500
H 	H 	0.74210 0.11550 0.03160 0.05400
C 	C 	0.92450 0.84890 0.03780 -0.07200
C 	C 	0.76610 0.61350 0.29311 0.33800
C 	C 	0.10660 0.86280 0.19970 0.08300
H 	H 	0.13640 0.86100 0.21860 -0.01500
C 	C 	0.92250 0.84880 0.07860 0.37500
C 	C 	0.89370 0.81180 0.01990 -0.01600
H 	H 	0.87240 0.78620 0.03250 0.05600
Cd	Cd	0.29749 0.56060 0.15126 1.20600
Cd	Cd	0.42077 0.33656 0.15047 1.21400
O 	O 	0.40170 0.30889 0.21922 -0.50900
O 	O 	0.23200 0.07845 0.27900 -0.49900
N 	N 	0.37310 0.40690 0.16985 -0.25700
O 	O 	0.27350 0.11790 0.32668 -0.41800
N 	N 	0.61790 0.38780 0.16836 -0.24300
N 	N 	0.33790 0.48760 0.17207 -0.23300
O 	O 	0.16730 0.48800 0.22122 -0.39500
C 	C 	0.36640 0.45250 0.15237 0.07400
H 	H 	0.38070 0.45810 0.12880 -0.00300
O 	O 	0.35330 0.53900 0.09523 -0.37300
N 	N 	0.32470 0.46430 0.20465 -0.23000
C 	C 	0.34660 0.23030 0.22714 -0.10800
N 	N 	0.52090 0.35240 0.16843 -0.23700
C 	C 	0.03340 0.50020 0.21750 -0.19800
H 	H 	0.05580 0.50060 0.19570 0.09600
C 	C 	0.34650 0.41740 0.20192 0.08400
H 	H 	0.34360 0.39370 0.22060 -0.01800
O 	O 	0.44750 0.38210 0.09460 -0.40200
O 	O 	0.36910 0.26830 0.17069 -0.42000
C 	C 	0.56360 0.37960 0.15060 0.09100
H 	H 	0.55610 0.39200 0.12740 -0.01000
O 	O 	0.27110 0.59010 0.09450 -0.39600
C 	C 	0.31320 0.56540 0.07849 0.30800
O 	O 	0.40300 0.31110 0.09480 -0.43600
C 	C 	0.31650 0.56800 0.03800 -0.06000
C 	C 	0.37400 0.27130 0.20470 0.32600
N 	N 	0.54990 0.34130 0.20103 -0.24100
C 	C 	0.30030 0.14740 0.23270 -0.02000
H 	H 	0.28590 0.11750 0.22190 0.03000
C 	C 	0.31600 0.19710 0.28500 -0.02800
H 	H 	0.31370 0.20090 0.31010 0.05000
C 	C 	0.32690 0.18540 0.21150 -0.01200
H 	H 	0.33140 0.18060 0.18660 0.04200
C 	C 	0.34080 0.23600 0.26390 -0.01900
H 	H 	0.35370 0.26630 0.27480 0.01800
C 	C 	0.29510 0.15340 0.26933 -0.08100
C 	C 	0.45250 0.38790 0.01893 -0.01600
H 	H 	0.47170 0.41470 0.03140 0.05300
C 	C 	0.36570 0.54170 0.01890 -0.02600
H 	H 	0.39780 0.52460 0.03150 0.05600
C 	C 	0.27240 0.59620 0.01910 -0.02600
H 	H 	0.24210 0.61550 0.03160 0.05200
C 	C 	0.42450 0.34890 0.03780 -0.08300
C 	C 	0.26610 0.11350 0.29311 0.33900
C 	C 	0.60660 0.36280 0.19970 0.08300
H 	H 	0.63640 0.36100 0.21860 -0.01500
C 	C 	0.42250 0.34880 0.07860 0.37800
C 	C 	0.39370 0.31180 0.01990 -0.01800
H 	H 	0.37240 0.28620 0.03250 0.05000
Cd	Cd	0.79749 0.93940 0.34874 1.21300
Cd	Cd	0.92077 0.16344 0.34953 1.22000
O 	O 	0.90170 0.19111 0.28078 -0.49700
O 	O 	0.73200 0.42155 0.22100 -0.48900
N 	N 	0.87310 0.09310 0.33015 -0.25500
O 	O 	0.77350 0.38210 0.17332 -0.40900
N 	N 	0.11790 0.11220 0.33164 -0.24700
N 	N 	0.83790 0.01240 0.32793 -0.24400
O 	O 	0.66730 0.01200 0.27878 -0.40600
C 	C 	0.86640 0.04750 0.34763 0.07400
H 	H 	0.88070 0.04190 0.37120 -0.01000
O 	O 	0.85330 0.96100 0.40477 -0.35300
N 	N 	0.82470 0.03570 0.29535 -0.23400
C 	C 	0.84660 0.26970 0.27286 -0.10300
N 	N 	0.02090 0.14760 0.33157 -0.25100
C 	C 	0.53340 0.99980 0.28250 0.08300
H 	H 	0.55580 0.99940 0.30430 0.02800
C 	C 	0.84650 0.08260 0.29808 0.08500
H 	H 	0.84360 0.10630 0.27940 -0.01800
O 	O 	0.94750 0.11790 0.40540 -0.39100
O 	O 	0.86910 0.23170 0.32931 -0.41400
C 	C 	0.06360 0.12040 0.34940 0.08500
H 	H 	0.05610 0.10800 0.37260 -0.02200
O 	O 	0.77110 0.90990 0.40550 -0.38600
C 	C 	0.81320 0.93460 0.42151 0.30600
O 	O 	0.90300 0.18890 0.40520 -0.42800
C 	C 	0.81650 0.93200 0.46200 -0.05000
C 	C 	0.87400 0.22870 0.29530 0.32600
N 	N 	0.04990 0.15870 0.29897 -0.24800
C 	C 	0.80030 0.35260 0.26730 -0.01800
H 	H 	0.78590 0.38250 0.27810 0.03300
C 	C 	0.81600 0.30290 0.21500 -0.02700
H 	H 	0.81370 0.29910 0.18990 0.05400
C 	C 	0.82690 0.31460 0.28850 -0.01100
H 	H 	0.83140 0.31940 0.31340 0.04700
C 	C 	0.84080 0.26400 0.23610 -0.01700
H 	H 	0.85370 0.23370 0.22520 0.02100
C 	C 	0.79510 0.34660 0.23067 -0.07700
C 	C 	0.95250 0.11210 0.48107 -0.01600
H 	H 	0.97170 0.08530 0.46860 0.05700
C 	C 	0.86570 0.95830 0.48110 -0.02200
H 	H 	0.89780 0.97540 0.46850 0.07100
C 	C 	0.77240 0.90380 0.48090 -0.02300
H 	H 	0.74210 0.88450 0.46840 0.05900
C 	C 	0.92450 0.15110 0.46220 -0.07700
C 	C 	0.76610 0.38650 0.20689 0.33800
C 	C 	0.10660 0.13720 0.30030 0.07800
H 	H 	0.13640 0.13900 0.28140 -0.01600
C 	C 	0.92250 0.15120 0.42140 0.37500
C 	C 	0.89370 0.18820 0.48010 -0.01700
H 	H 	0.87240 0.21380 0.46750 0.05400
Cd	Cd	0.29749 0.43940 0.34874 1.20600
Cd	Cd	0.42077 0.66344 0.34953 1.21500
O 	O 	0.40170 0.69111 0.28078 -0.50800
O 	O 	0.23200 0.92155 0.22100 -0.47700
N 	N 	0.37310 0.59310 0.33015 -0.25700
O 	O 	0.27350 0.88210 0.17332 -0.40800
N 	N 	0.61790 0.61220 0.33164 -0.24300
N 	N 	0.33790 0.51240 0.32793 -0.23300
O 	O 	0.16730 0.51200 0.27878 -0.39500
C 	C 	0.36640 0.54750 0.34763 0.07400
H 	H 	0.38070 0.54190 0.37120 -0.00300
O 	O 	0.35330 0.46100 0.40477 -0.37300
N 	N 	0.32470 0.53570 0.29535 -0.23000
C 	C 	0.34660 0.76970 0.27286 -0.10800
N 	N 	0.52090 0.64760 0.33157 -0.23600
C 	C 	0.03340 0.49980 0.28250 -0.19800
H 	H 	0.05580 0.49940 0.30430 0.09600
C 	C 	0.34650 0.58260 0.29808 0.08400
H 	H 	0.34360 0.60630 0.27940 -0.01900
O 	O 	0.44750 0.61790 0.40540 -0.40200
O 	O 	0.36910 0.73170 0.32931 -0.41800
C 	C 	0.56360 0.62040 0.34940 0.09100
H 	H 	0.55610 0.60800 0.37260 -0.01000
O 	O 	0.27110 0.40990 0.40550 -0.39700
C 	C 	0.31320 0.43460 0.42151 0.30800
O 	O 	0.40300 0.68890 0.40520 -0.43400
C 	C 	0.31650 0.43200 0.46200 -0.06000
C 	C 	0.37400 0.72870 0.29530 0.32700
N 	N 	0.54990 0.65870 0.29897 -0.24000
C 	C 	0.30030 0.85260 0.26730 -0.02100
H 	H 	0.28590 0.88250 0.27810 0.03600
C 	C 	0.31600 0.80290 0.21500 -0.03000
H 	H 	0.31370 0.79910 0.18990 0.05200
C 	C 	0.32690 0.81460 0.28850 -0.00900
H 	H 	0.33140 0.81940 0.31340 0.04600
C 	C 	0.34080 0.76400 0.23610 -0.01500
H 	H 	0.35370 0.73370 0.22520 0.01800
C 	C 	0.29510 0.84660 0.23067 -0.07400
C 	C 	0.45250 0.61210 0.48107 -0.01600
H 	H 	0.47170 0.58530 0.46860 0.05300
C 	C 	0.36570 0.45830 0.48110 -0.02600
H 	H 	0.39780 0.47540 0.46850 0.05600
C 	C 	0.27240 0.40380 0.48090 -0.02600
H 	H 	0.24210 0.38450 0.46840 0.05200
C 	C 	0.42450 0.65110 0.46220 -0.08100
C 	C 	0.26610 0.88650 0.20689 0.33700
C 	C 	0.60660 0.63720 0.30030 0.08400
H 	H 	0.63640 0.63900 0.28140 -0.01500
C 	C 	0.42250 0.65120 0.42140 0.37800
C 	C 	0.39370 0.68820 0.48010 -0.01700
H 	H 	0.37240 0.71380 0.46750 0.05300
Cd	Cd	0.20251 0.06060 0.34874 1.19900
Cd	Cd	0.07923 0.83656 0.34953 1.20900
O 	O 	0.09830 0.80889 0.28078 -0.51500
O 	O 	0.26800 0.57845 0.22100 -0.49000
N 	N 	0.12690 0.90690 0.33015 -0.25800
O 	O 	0.22650 0.61790 0.17332 -0.41600
N 	N 	0.88210 0.88780 0.33164 -0.23900
N 	N 	0.16210 0.98760 0.32793 -0.22000
O 	O 	0.33270 0.98800 0.27878 -0.35100
C 	C 	0.13360 0.95250 0.34763 0.07500
H 	H 	0.11930 0.95810 0.37120 0.00400
O 	O 	0.14670 0.03900 0.40477 -0.39100
N 	N 	0.17530 0.96430 0.29535 -0.22100
C 	C 	0.15340 0.73030 0.27286 -0.11100
N 	N 	0.97910 0.85240 0.33157 -0.22100
C 	C 	0.46660 0.00020 0.28250 -0.10000
H 	H 	0.44420 0.00060 0.30430 0.05900
C 	C 	0.15350 0.91740 0.29808 0.08400
H 	H 	0.15640 0.89370 0.27940 -0.01800
O 	O 	0.05250 0.88210 0.40540 -0.41200
O 	O 	0.13090 0.76830 0.32931 -0.42300
C 	C 	0.93640 0.87960 0.34940 0.09700
H 	H 	0.94390 0.89200 0.37260 0.00300
O 	O 	0.22890 0.09010 0.40550 -0.40000
C 	C 	0.18680 0.06540 0.42151 0.30900
O 	O 	0.09700 0.81110 0.40520 -0.44100
C 	C 	0.18350 0.06800 0.46200 -0.06700
C 	C 	0.12600 0.77130 0.29530 0.32500
N 	N 	0.95010 0.84130 0.29897 -0.23000
C 	C 	0.19970 0.64740 0.26730 -0.02200
H 	H 	0.21410 0.61750 0.27810 0.03200
C 	C 	0.18400 0.69710 0.21500 -0.03100
H 	H 	0.18630 0.70090 0.18990 0.04900
C 	C 	0.17310 0.68540 0.28850 -0.01200
H 	H 	0.16860 0.68060 0.31340 0.04100
C 	C 	0.15920 0.73600 0.23610 -0.01900
H 	H 	0.14630 0.76630 0.22520 0.01600
C 	C 	0.20490 0.65340 0.23067 -0.08000
C 	C 	0.04750 0.88790 0.48107 -0.01600
H 	H 	0.02830 0.91470 0.46860 0.04900
C 	C 	0.13430 0.04170 0.48110 -0.03000
H 	H 	0.10220 0.02460 0.46850 0.04200
C 	C 	0.22760 0.09620 0.48090 -0.02700
H 	H 	0.25790 0.11550 0.46840 0.05200
C 	C 	0.07550 0.84890 0.46220 -0.08600
C 	C 	0.23390 0.61350 0.20689 0.33700
C 	C 	0.89340 0.86280 0.30030 0.08900
H 	H 	0.86360 0.86100 0.28140 -0.01300
C 	C 	0.07750 0.84880 0.42140 0.38200
C 	C 	0.10630 0.81180 0.48010 -0.01700
H 	H 	0.12760 0.78620 0.46750 0.05000
Cd	Cd	0.70251 0.56060 0.34874 1.20700
Cd	Cd	0.57923 0.33656 0.34953 1.21400
O 	O 	0.59830 0.30889 0.28078 -0.50900
O 	O 	0.76800 0.07845 0.22100 -0.49700
N 	N 	0.62690 0.40690 0.33015 -0.25700
O 	O 	0.72650 0.11790 0.17332 -0.41700
N 	N 	0.38210 0.38780 0.33164 -0.24300
N 	N 	0.66210 0.48760 0.32793 -0.23200
O 	O 	0.83270 0.48800 0.27878 -0.40700
C 	C 	0.63360 0.45250 0.34763 0.07500
H 	H 	0.61930 0.45810 0.37120 -0.00200
O 	O 	0.64670 0.53900 0.40477 -0.37200
N 	N 	0.67530 0.46430 0.29535 -0.22900
C 	C 	0.65340 0.23030 0.27286 -0.10800
N 	N 	0.47910 0.35240 0.33157 -0.23700
C 	C 	0.96660 0.50020 0.28250 0.14000
H 	H 	0.94420 0.50060 0.30430 0.00100
C 	C 	0.65350 0.41740 0.29808 0.08500
H 	H 	0.65640 0.39370 0.27940 -0.01900
O 	O 	0.55250 0.38210 0.40540 -0.40200
O 	O 	0.63090 0.26830 0.32931 -0.42000
C 	C 	0.43640 0.37960 0.34940 0.09100
H 	H 	0.44390 0.39200 0.37260 -0.01000
O 	O 	0.72890 0.59010 0.40550 -0.38900
C 	C 	0.68680 0.56540 0.42151 0.30800
O 	O 	0.59700 0.31110 0.40520 -0.43600
C 	C 	0.68350 0.56800 0.46200 -0.05700
C 	C 	0.62600 0.27130 0.29530 0.32600
N 	N 	0.45010 0.34130 0.29897 -0.24100
C 	C 	0.69970 0.14740 0.26730 -0.02100
H 	H 	0.71410 0.11750 0.27810 0.03000
C 	C 	0.68400 0.19710 0.21500 -0.02900
H 	H 	0.68630 0.20090 0.18990 0.05100
C 	C 	0.67310 0.18540 0.28850 -0.01200
H 	H 	0.66860 0.18060 0.31340 0.04200
C 	C 	0.65920 0.23600 0.23610 -0.01800
H 	H 	0.64630 0.26630 0.22520 0.01800
C 	C 	0.70490 0.15340 0.23067 -0.08000
C 	C 	0.54750 0.38790 0.48107 -0.01600
H 	H 	0.52830 0.41470 0.46860 0.05300
C 	C 	0.63430 0.54170 0.48110 -0.02600
H 	H 	0.60220 0.52460 0.46850 0.05600
C 	C 	0.72760 0.59620 0.48090 -0.02400
H 	H 	0.75790 0.61550 0.46840 0.05900
C 	C 	0.57550 0.34890 0.46220 -0.08200
C 	C 	0.73390 0.11350 0.20689 0.33800
C 	C 	0.39340 0.36280 0.30030 0.08300
H 	H 	0.36360 0.36100 0.28140 -0.01500
C 	C 	0.57750 0.34880 0.42140 0.37900
C 	C 	0.60630 0.31180 0.48010 -0.01700
H 	H 	0.62760 0.28620 0.46750 0.05100
Cd	Cd	0.79749 0.06060 0.84874 1.20000
Cd	Cd	0.92077 0.83656 0.84953 1.22100
O 	O 	0.90170 0.80889 0.78078 -0.49500
O 	O 	0.73200 0.57845 0.72100 -0.48900
N 	N 	0.87310 0.90690 0.83015 -0.25200
O 	O 	0.77350 0.61790 0.67332 -0.40900
N 	N 	0.11790 0.88780 0.83164 -0.24200
N 	N 	0.83790 0.98760 0.82793 -0.21700
O 	O 	0.66730 0.98800 0.77878 -0.35100
C 	C 	0.86640 0.95250 0.84763 0.08200
H 	H 	0.88070 0.95810 0.87120 0.01000
O 	O 	0.85330 0.03900 0.90477 -0.38200
N 	N 	0.82470 0.96430 0.79535 -0.21900
C 	C 	0.84660 0.73030 0.77286 -0.10300
N 	N 	0.02090 0.85240 0.83157 -0.25000
C 	C 	0.53340 0.00020 0.78250 -0.10000
H 	H 	0.55580 0.00060 0.80430 0.05900
C 	C 	0.84650 0.91740 0.79808 0.09100
H 	H 	0.84360 0.89370 0.77940 -0.01600
O 	O 	0.94750 0.88210 0.90540 -0.38300
O 	O 	0.86910 0.76830 0.82931 -0.41200
C 	C 	0.06360 0.87960 0.84940 0.09000
H 	H 	0.05610 0.89200 0.87260 -0.01800
O 	O 	0.77110 0.09010 0.90550 -0.39700
C 	C 	0.81320 0.06540 0.92151 0.30900
O 	O 	0.90300 0.81110 0.90520 -0.42600
C 	C 	0.81650 0.06800 0.96200 -0.06000
C 	C 	0.87400 0.77130 0.79530 0.32500
N 	N 	0.04990 0.84130 0.79897 -0.24700
C 	C 	0.80030 0.64740 0.76730 -0.01800
H 	H 	0.78590 0.61750 0.77810 0.03300
C 	C 	0.81600 0.69710 0.71500 -0.02700
H 	H 	0.81370 0.70090 0.68990 0.05400
C 	C 	0.82690 0.68540 0.78850 -0.01200
H 	H 	0.83140 0.68060 0.81340 0.04800
C 	C 	0.84080 0.73600 0.73610 -0.01700
H 	H 	0.85370 0.76630 0.72520 0.02100
C 	C 	0.79510 0.65340 0.73067 -0.07700
C 	C 	0.95250 0.88790 0.98107 -0.01200
H 	H 	0.97170 0.91470 0.96860 0.06700
C 	C 	0.86570 0.04170 0.98110 -0.02600
H 	H 	0.89780 0.02460 0.96850 0.05400
C 	C 	0.77240 0.09620 0.98090 -0.02500
H 	H 	0.74210 0.11550 0.96840 0.05400
C 	C 	0.92450 0.84890 0.96220 -0.07200
C 	C 	0.76610 0.61350 0.70689 0.33800
C 	C 	0.10660 0.86280 0.80030 0.08300
H 	H 	0.13640 0.86100 0.78140 -0.01500
C 	C 	0.92250 0.84880 0.92140 0.37500
C 	C 	0.89370 0.81180 0.98010 -0.01600
H 	H 	0.87240 0.78620 0.96750 0.05600
Cd	Cd	0.29749 0.56060 0.84874 1.20600
Cd	Cd	0.42077 0.33656 0.84953 1.21400
O 	O 	0.40170 0.30889 0.78078 -0.50900
O 	O 	0.23200 0.07845 0.72100 -0.49900
N 	N 	0.37310 0.40690 0.83015 -0.25700
O 	O 	0.27350 0.11790 0.67332 -0.41800
N 	N 	0.61790 0.38780 0.83164 -0.24300
N 	N 	0.33790 0.48760 0.82793 -0.23300
O 	O 	0.16730 0.48800 0.77878 -0.39500
C 	C 	0.36640 0.45250 0.84763 0.07400
H 	H 	0.38070 0.45810 0.87120 -0.00300
O 	O 	0.35330 0.53900 0.90477 -0.37300
N 	N 	0.32470 0.46430 0.79535 -0.23000
C 	C 	0.34660 0.23030 0.77286 -0.10800
N 	N 	0.52090 0.35240 0.83157 -0.23700
C 	C 	0.03340 0.50020 0.78250 -0.19800
H 	H 	0.05580 0.50060 0.80430 0.09600
C 	C 	0.34650 0.41740 0.79808 0.08400
H 	H 	0.34360 0.39370 0.77940 -0.01800
O 	O 	0.44750 0.38210 0.90540 -0.40200
O 	O 	0.36910 0.26830 0.82931 -0.42000
C 	C 	0.56360 0.37960 0.84940 0.09100
H 	H 	0.55610 0.39200 0.87260 -0.01000
O 	O 	0.27110 0.59010 0.90550 -0.39600
C 	C 	0.31320 0.56540 0.92151 0.30800
O 	O 	0.40300 0.31110 0.90520 -0.43600
C 	C 	0.31650 0.56800 0.96200 -0.06000
C 	C 	0.37400 0.27130 0.79530 0.32600
N 	N 	0.54990 0.34130 0.79897 -0.24100
C 	C 	0.30030 0.14740 0.76730 -0.02000
H 	H 	0.28590 0.11750 0.77810 0.03000
C 	C 	0.31600 0.19710 0.71500 -0.02800
H 	H 	0.31370 0.20090 0.68990 0.05000
C 	C 	0.32690 0.18540 0.78850 -0.01200
H 	H 	0.33140 0.18060 0.81340 0.04200
C 	C 	0.34080 0.23600 0.73610 -0.01900
H 	H 	0.35370 0.26630 0.72520 0.01800
C 	C 	0.29510 0.15340 0.73067 -0.08100
C 	C 	0.45250 0.38790 0.98107 -0.01600
H 	H 	0.47170 0.41470 0.96860 0.05300
C 	C 	0.36570 0.54170 0.98110 -0.02600
H 	H 	0.39780 0.52460 0.96850 0.05600
C 	C 	0.27240 0.59620 0.98090 -0.02600
H 	H 	0.24210 0.61550 0.96840 0.05200
C 	C 	0.42450 0.34890 0.96220 -0.08300
C 	C 	0.26610 0.11350 0.70689 0.33900
C 	C 	0.60660 0.36280 0.80030 0.08300
H 	H 	0.63640 0.36100 0.78140 -0.01500
C 	C 	0.42250 0.34880 0.92140 0.37800
C 	C 	0.39370 0.31180 0.98010 -0.01800
H 	H 	0.37240 0.28620 0.96750 0.05000
Cd	Cd	0.20251 0.93940 0.84874 1.21200
Cd	Cd	0.07923 0.16344 0.84953 1.20800
O 	O 	0.09830 0.19111 0.78078 -0.51700
O 	O 	0.26800 0.42155 0.72100 -0.49000
N 	N 	0.12690 0.09310 0.83015 -0.26100
O 	O 	0.22650 0.38210 0.67332 -0.41600
N 	N 	0.88210 0.11220 0.83164 -0.24400
N 	N 	0.16210 0.01240 0.82793 -0.24600
O 	O 	0.33270 0.01200 0.77878 -0.40600
C 	C 	0.13360 0.04750 0.84763 0.06800
H 	H 	0.11930 0.04190 0.87120 -0.01500
O 	O 	0.14670 0.96100 0.90477 -0.36300
N 	N 	0.17530 0.03570 0.79535 -0.23700
C 	C 	0.15340 0.26970 0.77286 -0.11200
N 	N 	0.97910 0.14760 0.83157 -0.22300
C 	C 	0.46660 0.99980 0.78250 0.08300
H 	H 	0.44420 0.99940 0.80430 0.02800
C 	C 	0.15350 0.08260 0.79808 0.07800
H 	H 	0.15640 0.10630 0.77940 -0.02000
O 	O 	0.05250 0.11790 0.90540 -0.42100
O 	O 	0.13090 0.23170 0.82931 -0.42500
C 	C 	0.93640 0.12040 0.84940 0.09300
H 	H 	0.94390 0.10800 0.87260 -0.00100
O 	O 	0.22890 0.90990 0.90550 -0.38900
C 	C 	0.18680 0.93460 0.92151 0.30600
O 	O 	0.09700 0.18890 0.90520 -0.44300
C 	C 	0.18350 0.93200 0.96200 -0.05600
C 	C 	0.12600 0.22870 0.79530 0.32600
N 	N 	0.95010 0.15870 0.79897 -0.23100
C 	C 	0.19970 0.35260 0.76730 -0.02300
H 	H 	0.21410 0.38250 0.77810 0.03200
C 	C 	0.18400 0.30290 0.71500 -0.03100
H 	H 	0.18630 0.29910 0.68990 0.04900
C 	C 	0.17310 0.31460 0.78850 -0.01100
H 	H 	0.16860 0.31940 0.81340 0.04000
C 	C 	0.15920 0.26400 0.73610 -0.01800
H 	H 	0.14630 0.23370 0.72520 0.01600
C 	C 	0.20490 0.34660 0.73067 -0.07900
C 	C 	0.04750 0.11210 0.98107 -0.01900
H 	H 	0.02830 0.08530 0.96860 0.03800
C 	C 	0.13430 0.95830 0.98110 -0.02700
H 	H 	0.10220 0.97540 0.96850 0.05800
C 	C 	0.22760 0.90380 0.98090 -0.02500
H 	H 	0.25790 0.88450 0.96840 0.05700
C 	C 	0.07550 0.15110 0.96220 -0.09100
C 	C 	0.23390 0.38650 0.70689 0.33700
C 	C 	0.89340 0.13720 0.80030 0.08400
H 	H 	0.86360 0.13900 0.78140 -0.01400
C 	C 	0.07750 0.15120 0.92140 0.38200
C 	C 	0.10630 0.18820 0.98010 -0.01900
H 	H 	0.12760 0.21380 0.96750 0.04800
Cd	Cd	0.70251 0.43940 0.84874 1.20700
Cd	Cd	0.57923 0.66344 0.84953 1.21500
O 	O 	0.59830 0.69111 0.78078 -0.50800
O 	O 	0.76800 0.92155 0.72100 -0.47500
N 	N 	0.62690 0.59310 0.83015 -0.25600
O 	O 	0.72650 0.88210 0.67332 -0.40600
N 	N 	0.38210 0.61220 0.83164 -0.24300
N 	N 	0.66210 0.51240 0.82793 -0.23200
O 	O 	0.83270 0.51200 0.77878 -0.40700
C 	C 	0.63360 0.54750 0.84763 0.07500
H 	H 	0.61930 0.54190 0.87120 -0.00200
O 	O 	0.64670 0.46100 0.90477 -0.37200
N 	N 	0.67530 0.53570 0.79535 -0.22900
C 	C 	0.65340 0.76970 0.77286 -0.10900
N 	N 	0.47910 0.64760 0.83157 -0.23600
C 	C 	0.96660 0.49980 0.78250 0.14000
H 	H 	0.94420 0.49940 0.80430 0.00100
C 	C 	0.65350 0.58260 0.79808 0.08500
H 	H 	0.65640 0.60630 0.77940 -0.01900
O 	O 	0.55250 0.61790 0.90540 -0.40100
O 	O 	0.63090 0.73170 0.82931 -0.41700
C 	C 	0.43640 0.62040 0.84940 0.09100
H 	H 	0.44390 0.60800 0.87260 -0.01000
O 	O 	0.72890 0.40990 0.90550 -0.39000
C 	C 	0.68680 0.43460 0.92151 0.30800
O 	O 	0.59700 0.68890 0.90520 -0.43300
C 	C 	0.68350 0.43200 0.96200 -0.05700
C 	C 	0.62600 0.72870 0.79530 0.32700
N 	N 	0.45010 0.65870 0.79897 -0.24000
C 	C 	0.69970 0.85260 0.76730 -0.02100
H 	H 	0.71410 0.88250 0.77810 0.03600
C 	C 	0.68400 0.80290 0.71500 -0.03100
H 	H 	0.68630 0.79910 0.68990 0.05400
C 	C 	0.67310 0.81460 0.78850 -0.00900
H 	H 	0.66860 0.81940 0.81340 0.04600
C 	C 	0.65920 0.76400 0.73610 -0.01500
H 	H 	0.64630 0.73370 0.72520 0.01800
C 	C 	0.70490 0.84660 0.73067 -0.07300
C 	C 	0.54750 0.61210 0.98107 -0.01600
H 	H 	0.52830 0.58530 0.96860 0.05300
C 	C 	0.63430 0.45830 0.98110 -0.02600
H 	H 	0.60220 0.47540 0.96850 0.05600
C 	C 	0.72760 0.40380 0.98090 -0.02400
H 	H 	0.75790 0.38450 0.96840 0.05900
C 	C 	0.57550 0.65110 0.96220 -0.08100
C 	C 	0.73390 0.88650 0.70689 0.33600
C 	C 	0.39340 0.63720 0.80030 0.08300
H 	H 	0.36360 0.63900 0.78140 -0.01500
C 	C 	0.57750 0.65120 0.92140 0.37800
C 	C 	0.60630 0.68820 0.98010 -0.01700
H 	H 	0.62760 0.71380 0.96750 0.05400
Cd	Cd	0.20251 0.06060 0.65126 1.19900
Cd	Cd	0.07923 0.83656 0.65047 1.20900
O 	O 	0.09830 0.80889 0.71922 -0.51500
O 	O 	0.26800 0.57845 0.77900 -0.49000
N 	N 	0.12690 0.90690 0.66985 -0.25800
O 	O 	0.22650 0.61790 0.82668 -0.41600
N 	N 	0.88210 0.88780 0.66836 -0.23900
N 	N 	0.16210 0.98760 0.67207 -0.22000
O 	O 	0.33270 0.98800 0.72122 -0.35100
C 	C 	0.13360 0.95250 0.65237 0.07500
H 	H 	0.11930 0.95810 0.62880 0.00400
O 	O 	0.14670 0.03900 0.59523 -0.39100
N 	N 	0.17530 0.96430 0.70465 -0.22100
C 	C 	0.15340 0.73030 0.72714 -0.11100
N 	N 	0.97910 0.85240 0.66843 -0.22100
C 	C 	0.46660 0.00020 0.71750 -0.10000
H 	H 	0.44420 0.00060 0.69570 0.05900
C 	C 	0.15350 0.91740 0.70192 0.08400
H 	H 	0.15640 0.89370 0.72060 -0.01800
O 	O 	0.05250 0.88210 0.59460 -0.41200
O 	O 	0.13090 0.76830 0.67069 -0.42300
C 	C 	0.93640 0.87960 0.65060 0.09700
H 	H 	0.94390 0.89200 0.62740 0.00300
O 	O 	0.22890 0.09010 0.59450 -0.40000
C 	C 	0.18680 0.06540 0.57849 0.30900
O 	O 	0.09700 0.81110 0.59480 -0.44100
C 	C 	0.18350 0.06800 0.53800 -0.06700
C 	C 	0.12600 0.77130 0.70470 0.32500
N 	N 	0.95010 0.84130 0.70103 -0.23000
C 	C 	0.19970 0.64740 0.73270 -0.02200
H 	H 	0.21410 0.61750 0.72190 0.03200
C 	C 	0.18400 0.69710 0.78500 -0.03100
H 	H 	0.18630 0.70090 0.81010 0.04900
C 	C 	0.17310 0.68540 0.71150 -0.01200
H 	H 	0.16860 0.68060 0.68660 0.04100
C 	C 	0.15920 0.73600 0.76390 -0.01900
H 	H 	0.14630 0.76630 0.77480 0.01600
C 	C 	0.20490 0.65340 0.76933 -0.08000
C 	C 	0.04750 0.88790 0.51893 -0.01600
H 	H 	0.02830 0.91470 0.53140 0.04900
C 	C 	0.13430 0.04170 0.51890 -0.03000
H 	H 	0.10220 0.02460 0.53150 0.04200
C 	C 	0.22760 0.09620 0.51910 -0.02700
H 	H 	0.25790 0.11550 0.53160 0.05200
C 	C 	0.07550 0.84890 0.53780 -0.08600
C 	C 	0.23390 0.61350 0.79311 0.33700
C 	C 	0.89340 0.86280 0.69970 0.08900
H 	H 	0.86360 0.86100 0.71860 -0.01300
C 	C 	0.07750 0.84880 0.57860 0.38200
C 	C 	0.10630 0.81180 0.51990 -0.01700
H 	H 	0.12760 0.78620 0.53250 0.05000
Cd	Cd	0.70251 0.56060 0.65126 1.20700
Cd	Cd	0.57923 0.33656 0.65047 1.21400
O 	O 	0.59830 0.30889 0.71922 -0.50900
O 	O 	0.76800 0.07845 0.77900 -0.49700
N 	N 	0.62690 0.40690 0.66985 -0.25700
O 	O 	0.72650 0.11790 0.82668 -0.41700
N 	N 	0.38210 0.38780 0.66836 -0.24300
N 	N 	0.66210 0.48760 0.67207 -0.23200
O 	O 	0.83270 0.48800 0.72122 -0.40700
C 	C 	0.63360 0.45250 0.65237 0.07500
H 	H 	0.61930 0.45810 0.62880 -0.00200
O 	O 	0.64670 0.53900 0.59523 -0.37200
N 	N 	0.67530 0.46430 0.70465 -0.22900
C 	C 	0.65340 0.23030 0.72714 -0.10800
N 	N 	0.47910 0.35240 0.66843 -0.23700
C 	C 	0.96660 0.50020 0.71750 0.14000
H 	H 	0.94420 0.50060 0.69570 0.00100
C 	C 	0.65350 0.41740 0.70192 0.08500
H 	H 	0.65640 0.39370 0.72060 -0.01900
O 	O 	0.55250 0.38210 0.59460 -0.40200
O 	O 	0.63090 0.26830 0.67069 -0.42000
C 	C 	0.43640 0.37960 0.65060 0.09100
H 	H 	0.44390 0.39200 0.62740 -0.01000
O 	O 	0.72890 0.59010 0.59450 -0.38900
C 	C 	0.68680 0.56540 0.57849 0.30800
O 	O 	0.59700 0.31110 0.59480 -0.43600
C 	C 	0.68350 0.56800 0.53800 -0.05700
C 	C 	0.62600 0.27130 0.70470 0.32600
N 	N 	0.45010 0.34130 0.70103 -0.24100
C 	C 	0.69970 0.14740 0.73270 -0.02100
H 	H 	0.71410 0.11750 0.72190 0.03000
C 	C 	0.68400 0.19710 0.78500 -0.02900
H 	H 	0.68630 0.20090 0.81010 0.05100
C 	C 	0.67310 0.18540 0.71150 -0.01200
H 	H 	0.66860 0.18060 0.68660 0.04200
C 	C 	0.65920 0.23600 0.76390 -0.01800
H 	H 	0.64630 0.26630 0.77480 0.01800
C 	C 	0.70490 0.15340 0.76933 -0.08000
C 	C 	0.54750 0.38790 0.51893 -0.01600
H 	H 	0.52830 0.41470 0.53140 0.05300
C 	C 	0.63430 0.54170 0.51890 -0.02600
H 	H 	0.60220 0.52460 0.53150 0.05600
C 	C 	0.72760 0.59620 0.51910 -0.02400
H 	H 	0.75790 0.61550 0.53160 0.05900
C 	C 	0.57550 0.34890 0.53780 -0.08200
C 	C 	0.73390 0.11350 0.79311 0.33800
C 	C 	0.39340 0.36280 0.69970 0.08300
H 	H 	0.36360 0.36100 0.71860 -0.01500
C 	C 	0.57750 0.34880 0.57860 0.37900
C 	C 	0.60630 0.31180 0.51990 -0.01700
H 	H 	0.62760 0.28620 0.53250 0.05100
Cd	Cd	0.79749 0.93940 0.65126 1.21300
Cd	Cd	0.92077 0.16344 0.65047 1.22000
O 	O 	0.90170 0.19111 0.71922 -0.49700
O 	O 	0.73200 0.42155 0.77900 -0.48900
N 	N 	0.87310 0.09310 0.66985 -0.25500
O 	O 	0.77350 0.38210 0.82668 -0.40900
N 	N 	0.11790 0.11220 0.66836 -0.24700
N 	N 	0.83790 0.01240 0.67207 -0.24400
O 	O 	0.66730 0.01200 0.72122 -0.40600
C 	C 	0.86640 0.04750 0.65237 0.07400
H 	H 	0.88070 0.04190 0.62880 -0.01000
O 	O 	0.85330 0.96100 0.59523 -0.35300
N 	N 	0.82470 0.03570 0.70465 -0.23400
C 	C 	0.84660 0.26970 0.72714 -0.10300
N 	N 	0.02090 0.14760 0.66843 -0.25100
C 	C 	0.53340 0.99980 0.71750 0.08300
H 	H 	0.55580 0.99940 0.69570 0.02800
C 	C 	0.84650 0.08260 0.70192 0.08500
H 	H 	0.84360 0.10630 0.72060 -0.01800
O 	O 	0.94750 0.11790 0.59460 -0.39100
O 	O 	0.86910 0.23170 0.67069 -0.41400
C 	C 	0.06360 0.12040 0.65060 0.08500
H 	H 	0.05610 0.10800 0.62740 -0.02200
O 	O 	0.77110 0.90990 0.59450 -0.38600
C 	C 	0.81320 0.93460 0.57849 0.30600
O 	O 	0.90300 0.18890 0.59480 -0.42800
C 	C 	0.81650 0.93200 0.53800 -0.05000
C 	C 	0.87400 0.22870 0.70470 0.32600
N 	N 	0.04990 0.15870 0.70103 -0.24800
C 	C 	0.80030 0.35260 0.73270 -0.01800
H 	H 	0.78590 0.38250 0.72190 0.03300
C 	C 	0.81600 0.30290 0.78500 -0.02700
H 	H 	0.81370 0.29910 0.81010 0.05400
C 	C 	0.82690 0.31460 0.71150 -0.01100
H 	H 	0.83140 0.31940 0.68660 0.04700
C 	C 	0.84080 0.26400 0.76390 -0.01700
H 	H 	0.85370 0.23370 0.77480 0.02100
C 	C 	0.79510 0.34660 0.76933 -0.07700
C 	C 	0.95250 0.11210 0.51893 -0.01600
H 	H 	0.97170 0.08530 0.53140 0.05700
C 	C 	0.86570 0.95830 0.51890 -0.02200
H 	H 	0.89780 0.97540 0.53150 0.07100
C 	C 	0.77240 0.90380 0.51910 -0.02300
H 	H 	0.74210 0.88450 0.53160 0.05900
C 	C 	0.92450 0.15110 0.53780 -0.07700
C 	C 	0.76610 0.38650 0.79311 0.33800
C 	C 	0.10660 0.13720 0.69970 0.07800
H 	H 	0.13640 0.13900 0.71860 -0.01600
C 	C 	0.92250 0.15120 0.57860 0.37500
C 	C 	0.89370 0.18820 0.51990 -0.01700
H 	H 	0.87240 0.21380 0.53250 0.05400
Cd	Cd	0.29749 0.43940 0.65126 1.20600
Cd	Cd	0.42077 0.66344 0.65047 1.21500
O 	O 	0.40170 0.69111 0.71922 -0.50800
O 	O 	0.23200 0.92155 0.77900 -0.47700
N 	N 	0.37310 0.59310 0.66985 -0.25700
O 	O 	0.27350 0.88210 0.82668 -0.40800
N 	N 	0.61790 0.61220 0.66836 -0.24300
N 	N 	0.33790 0.51240 0.67207 -0.23300
O 	O 	0.16730 0.51200 0.72122 -0.39500
C 	C 	0.36640 0.54750 0.65237 0.07400
H 	H 	0.38070 0.54190 0.62880 -0.00300
O 	O 	0.35330 0.46100 0.59523 -0.37300
N 	N 	0.32470 0.53570 0.70465 -0.23000
C 	C 	0.34660 0.76970 0.72714 -0.10800
N 	N 	0.52090 0.64760 0.66843 -0.23600
C 	C 	0.03340 0.49980 0.71750 -0.19800
H 	H 	0.05580 0.49940 0.69570 0.09600
C 	C 	0.34650 0.58260 0.70192 0.08400
H 	H 	0.34360 0.60630 0.72060 -0.01900
O 	O 	0.44750 0.61790 0.59460 -0.40200
O 	O 	0.36910 0.73170 0.67069 -0.41800
C 	C 	0.56360 0.62040 0.65060 0.09100
H 	H 	0.55610 0.60800 0.62740 -0.01000
O 	O 	0.27110 0.40990 0.59450 -0.39700
C 	C 	0.31320 0.43460 0.57849 0.30800
O 	O 	0.40300 0.68890 0.59480 -0.43400
C 	C 	0.31650 0.43200 0.53800 -0.06000
C 	C 	0.37400 0.72870 0.70470 0.32700
N 	N 	0.54990 0.65870 0.70103 -0.24000
C 	C 	0.30030 0.85260 0.73270 -0.02100
H 	H 	0.28590 0.88250 0.72190 0.03600
C 	C 	0.31600 0.80290 0.78500 -0.03000
H 	H 	0.31370 0.79910 0.81010 0.05200
C 	C 	0.32690 0.81460 0.71150 -0.00900
H 	H 	0.33140 0.81940 0.68660 0.04600
C 	C 	0.34080 0.76400 0.76390 -0.01500
H 	H 	0.35370 0.73370 0.77480 0.01800
C 	C 	0.29510 0.84660 0.76933 -0.07400
C 	C 	0.45250 0.61210 0.51893 -0.01600
H 	H 	0.47170 0.58530 0.53140 0.05300
C 	C 	0.36570 0.45830 0.51890 -0.02600
H 	H 	0.39780 0.47540 0.53150 0.05600
C 	C 	0.27240 0.40380 0.51910 -0.02600
H 	H 	0.24210 0.38450 0.53160 0.05200
C 	C 	0.42450 0.65110 0.53780 -0.08100
C 	C 	0.26610 0.88650 0.79311 0.33700
C 	C 	0.60660 0.63720 0.69970 0.08400
H 	H 	0.63640 0.63900 0.71860 -0.01500
C 	C 	0.42250 0.65120 0.57860 0.37800
C 	C 	0.39370 0.68820 0.51990 -0.01700
H 	H 	0.37240 0.71380 0.53250 0.05300
Cd	Cd	0.23151 0.00000 0.25000 1.19700
C 	C 	0.35870 0.00000 0.25000 0.27200
C 	C 	0.43310 0.00000 0.25000 -0.08900
Cd	Cd	0.73151 0.50000 0.25000 1.21000
C 	C 	0.85870 0.50000 0.25000 0.35400
C 	C 	0.93310 0.50000 0.25000 -0.15700
Cd	Cd	0.76849 0.00000 0.25000 1.19800
C 	C 	0.64130 0.00000 0.25000 0.27300
C 	C 	0.56690 0.00000 0.25000 -0.09000
Cd	Cd	0.26849 0.50000 0.25000 1.21000
C 	C 	0.14130 0.50000 0.25000 0.27800
C 	C 	0.06690 0.50000 0.25000 0.04900
Cd	Cd	0.76849 0.00000 0.75000 1.19800
C 	C 	0.64130 0.00000 0.75000 0.27300
C 	C 	0.56690 0.00000 0.75000 -0.09000
Cd	Cd	0.26849 0.50000 0.75000 1.21000
C 	C 	0.14130 0.50000 0.75000 0.27800
C 	C 	0.06690 0.50000 0.75000 0.04900
Cd	Cd	0.23151 0.00000 0.75000 1.19700
C 	C 	0.35870 0.00000 0.75000 0.27200
C 	C 	0.43310 0.00000 0.75000 -0.08900
Cd	Cd	0.73151 0.50000 0.75000 1.21000
C 	C 	0.85870 0.50000 0.75000 0.35400
C 	C 	0.93310 0.50000 0.75000 -0.15700
Cd	Cd	0.00000 0.19109 0.25000 1.15500
Cd	Cd	0.50000 0.69109 0.25000 1.16900
Cd	Cd	-0.00000 0.80891 0.25000 1.15600
Cd	Cd	0.50000 0.30891 0.25000 1.16800
Cd	Cd	0.00000 0.80891 0.75000 1.15600
Cd	Cd	0.50000 0.30891 0.75000 1.16800
Cd	Cd	0.00000 0.19109 0.75000 1.15500
Cd	Cd	0.50000 0.69109 0.75000 1.16900
