data_crystal

_cell_length_a 23.45200
_cell_length_b 23.45200
_cell_length_c 79.27000
_cell_angle_alpha 90.00000
_cell_angle_beta  90.00000
_cell_angle_gamma 120.00000

_symmetry_space_group_name_	'P 1'
_symmetry_space_group_name_H-M	'P 1'

loop_
_symmetry_equiv_pos_as_xyz
  x,y,z

loop_
_atom_site_label
_atom_site_type_symbol
_atom_site_fract_x
_atom_site_fract_y
_atom_site_fract_z
_atom_site_charge
Zn	Zn	0.08258 0.07007 0.14830 1.21300
O 	O 	0.14249 0.13046 0.16362 -0.50900
O 	O 	0.13348 0.04127 0.13449 -0.51400
O 	O 	0.06305 0.11645 0.13048 -0.50100
C 	C 	0.13160 0.12360 0.18000 0.42300
C 	C 	0.11080 0.98650 0.12833 0.41300
C 	C 	0.18930 0.17700 0.19070 -0.19400
O 	O 	0.08000 0.08560 0.18651 -0.55100
C 	C 	0.15440 0.97730 0.11512 -0.12100
C 	C 	0.24650 0.21800 0.18463 0.14700
C 	C 	0.18320 0.17930 0.20767 0.10400
C 	C 	0.21910 0.02470 0.11284 0.05500
C 	C 	0.12720 0.91830 0.10539 0.07800
H 	H 	0.25360 0.21500 0.17320 -0.00400
C 	C 	0.29620 0.26420 0.19359 -0.20400
C 	C 	0.23330 0.22490 0.21814 -0.16600
H 	H 	0.14360 0.14880 0.21260 -0.00000
H 	H 	0.23950 0.06290 0.11930 0.01900
C 	C 	0.25220 0.01130 0.10013 -0.15600
C 	C 	0.15990 0.91120 0.09252 -0.16500
H 	H 	0.08550 0.88380 0.10810 0.01700
H 	H 	0.33550 0.29170 0.18800 0.10500
C 	C 	0.29300 0.27320 0.21017 0.10500
H 	H 	0.22810 0.22390 0.22980 0.08600
C 	C 	0.22080 0.95760 0.08934 0.10700
H 	H 	0.29720 0.03960 0.09880 0.08100
H 	H 	0.13970 0.87370 0.08580 0.08700
C 	C 	0.34640 0.32070 0.22053 -0.00100
C 	C 	0.26030 0.94570 0.07615 -0.00900
C 	C 	0.41110 0.33610 0.21752 -0.07900
C 	C 	0.33550 0.35530 0.23356 -0.07600
C 	C 	0.23880 0.88070 0.07078 -0.06300
H 	H 	0.42010 0.31010 0.21030 0.05700
C 	C 	0.45820 0.38660 0.22480 0.00300
H 	H 	0.29240 0.34400 0.23620 0.05600
H 	H 	0.20110 0.84450 0.07500 0.05300
H 	H 	0.50070 0.39790 0.22160 0.02900
Zn	Zn	0.74924 0.40340 0.48163 1.21200
O 	O 	0.80916 0.46379 0.49695 -0.51100
O 	O 	0.80015 0.37460 0.46782 -0.50400
O 	O 	0.72972 0.44978 0.46381 -0.50000
C 	C 	0.79827 0.45693 0.51333 0.42500
C 	C 	0.77747 0.31983 0.46166 0.39600
C 	C 	0.85597 0.51033 0.52403 -0.20400
O 	O 	0.74667 0.41893 0.51984 -0.55200
C 	C 	0.82107 0.31063 0.44845 -0.12200
C 	C 	0.91317 0.55133 0.51796 0.16100
C 	C 	0.84987 0.51263 0.54100 0.11000
C 	C 	0.88577 0.35803 0.44617 0.04900
C 	C 	0.79387 0.25163 0.43872 0.05800
H 	H 	0.92027 0.54833 0.50653 -0.01100
C 	C 	0.96287 0.59753 0.52692 -0.22500
C 	C 	0.89997 0.55823 0.55147 -0.17300
H 	H 	0.81027 0.48213 0.54593 -0.00200
H 	H 	0.90617 0.39623 0.45263 0.02200
C 	C 	0.91887 0.34463 0.43346 -0.12400
C 	C 	0.82657 0.24453 0.42585 -0.13800
H 	H 	0.75217 0.21713 0.44143 0.02200
H 	H 	0.00217 0.62503 0.52133 0.11600
C 	C 	0.95967 0.60653 0.54350 0.11200
H 	H 	0.89477 0.55723 0.56313 0.08800
C 	C 	0.88747 0.29093 0.42267 0.06700
H 	H 	0.96387 0.37293 0.43213 0.07100
H 	H 	0.80637 0.20703 0.41913 0.07600
C 	C 	0.01307 0.65403 0.55386 -0.00600
C 	C 	0.92697 0.27903 0.40948 0.02900
C 	C 	0.07777 0.66943 0.55085 -0.07200
C 	C 	0.00217 0.68863 0.56689 -0.05900
C 	C 	0.90547 0.21403 0.40411 -0.10500
H 	H 	0.08677 0.64343 0.54363 0.05600
C 	C 	0.12487 0.71993 0.55813 -0.00400
H 	H 	0.95907 0.67733 0.56953 0.04700
H 	H 	0.86777 0.17783 0.40833 0.06700
H 	H 	0.16737 0.73123 0.55493 0.03200
Zn	Zn	0.41591 0.73674 0.81497 1.21200
O 	O 	0.47582 0.79713 0.83029 -0.50700
O 	O 	0.46681 0.70794 0.80116 -0.50400
O 	O 	0.39638 0.78312 0.79715 -0.50000
C 	C 	0.46493 0.79027 0.84667 0.41300
C 	C 	0.44413 0.65317 0.79500 0.39800
C 	C 	0.52263 0.84367 0.85737 -0.16700
O 	O 	0.41333 0.75227 0.85318 -0.54800
C 	C 	0.48773 0.64397 0.78179 -0.12600
C 	C 	0.57983 0.88467 0.85130 0.10700
C 	C 	0.51653 0.84597 0.87434 0.07400
C 	C 	0.55243 0.69137 0.77951 0.05600
C 	C 	0.46053 0.58497 0.77206 0.06600
H 	H 	0.58693 0.88167 0.83987 0.00900
C 	C 	0.62953 0.93087 0.86026 -0.15600
C 	C 	0.56663 0.89157 0.88481 -0.13000
H 	H 	0.47693 0.81547 0.87927 0.01100
H 	H 	0.57283 0.72957 0.78597 0.02000
C 	C 	0.58553 0.67797 0.76680 -0.13200
C 	C 	0.49323 0.57787 0.75919 -0.14800
H 	H 	0.41883 0.55047 0.77477 0.01900
H 	H 	0.66883 0.95837 0.85467 0.09100
C 	C 	0.62633 0.93987 0.87684 0.05500
H 	H 	0.56143 0.89057 0.89647 0.07500
C 	C 	0.55413 0.62427 0.75601 0.07900
H 	H 	0.63053 0.70627 0.76547 0.07500
H 	H 	0.47303 0.54037 0.75247 0.08000
C 	C 	0.67973 0.98737 0.88720 0.08400
C 	C 	0.59363 0.61237 0.74282 0.01100
C 	C 	0.74443 0.00277 0.88419 -0.19200
C 	C 	0.66883 0.02197 0.90023 -0.14000
C 	C 	0.57213 0.54737 0.73745 -0.08000
H 	H 	0.75343 0.97677 0.87697 0.10400
C 	C 	0.79153 0.05327 0.89147 0.08700
H 	H 	0.62573 0.01067 0.90287 0.07500
H 	H 	0.53443 0.51117 0.74167 0.05900
H 	H 	0.83403 0.06457 0.88827 -0.00200
Zn	Zn	0.92993 0.01251 0.14830 1.20900
O 	O 	0.86954 0.01203 0.16362 -0.50800
O 	O 	0.95873 0.09221 0.13449 -0.51100
O 	O 	0.88355 0.94660 0.13048 -0.49500
C 	C 	0.87640 0.00800 0.18000 0.39600
C 	C 	0.01350 0.12430 0.12833 0.40400
C 	C 	0.82300 0.01230 0.19070 -0.16400
O 	O 	0.91440 0.99440 0.18651 -0.53500
C 	C 	0.02270 0.17710 0.11512 -0.12600
C 	C 	0.78200 0.02850 0.18463 0.11400
C 	C 	0.82070 0.00390 0.20767 0.05400
C 	C 	0.97530 0.19440 0.11284 0.05500
C 	C 	0.08170 0.20890 0.10539 0.07000
H 	H 	0.78500 0.03860 0.17320 0.00500
C 	C 	0.73580 0.03200 0.19359 -0.17700
C 	C 	0.77510 0.00840 0.21814 -0.13800
H 	H 	0.85120 0.99480 0.21260 0.02500
H 	H 	0.93710 0.17660 0.11930 0.01900
C 	C 	0.98870 0.24090 0.10013 -0.14200
C 	C 	0.08880 0.24870 0.09252 -0.15600
H 	H 	0.11620 0.20170 0.10810 0.01700
H 	H 	0.70830 0.04380 0.18800 0.09500
C 	C 	0.72680 0.01980 0.21017 0.08400
H 	H 	0.77610 0.00420 0.22980 0.07300
C 	C 	0.04240 0.26320 0.08934 0.09000
H 	H 	0.96040 0.25760 0.09880 0.07700
H 	H 	0.12630 0.26600 0.08580 0.08300
C 	C 	0.67930 0.02570 0.22053 0.00000
C 	C 	0.05430 0.31460 0.07615 0.00200
C 	C 	0.66390 0.07500 0.21752 -0.08800
C 	C 	0.64470 0.98020 0.23356 -0.07100
C 	C 	0.11930 0.35810 0.07078 -0.07300
H 	H 	0.68990 0.11000 0.21030 0.06000
C 	C 	0.61340 0.07160 0.22480 0.01300
H 	H 	0.65600 0.94840 0.23620 0.05700
H 	H 	0.15550 0.35660 0.07500 0.05600
H 	H 	0.60210 0.10280 0.22160 0.02500
Zn	Zn	0.59660 0.34584 0.48163 1.21200
O 	O 	0.53621 0.34536 0.49695 -0.51000
O 	O 	0.62540 0.42554 0.46782 -0.50400
O 	O 	0.55022 0.27993 0.46381 -0.50000
C 	C 	0.54307 0.34133 0.51333 0.42200
C 	C 	0.68017 0.45763 0.46166 0.39700
C 	C 	0.48967 0.34563 0.52403 -0.19500
O 	O 	0.58107 0.32773 0.51984 -0.55100
C 	C 	0.68937 0.51043 0.44845 -0.12600
C 	C 	0.44867 0.36183 0.51796 0.14500
C 	C 	0.48737 0.33723 0.54100 0.10200
C 	C 	0.64197 0.52773 0.44617 0.05600
C 	C 	0.74837 0.54223 0.43872 0.06600
H 	H 	0.45167 0.37193 0.50653 -0.00500
C 	C 	0.40247 0.36533 0.52692 -0.20300
C 	C 	0.44177 0.34173 0.55147 -0.16600
H 	H 	0.51787 0.32813 0.54593 0.00000
H 	H 	0.60377 0.50993 0.45263 0.02000
C 	C 	0.65537 0.57423 0.43346 -0.13100
C 	C 	0.75547 0.58203 0.42585 -0.14800
H 	H 	0.78287 0.53503 0.44143 0.01900
H 	H 	0.37497 0.37713 0.52133 0.10500
C 	C 	0.39347 0.35313 0.54350 0.10400
H 	H 	0.44277 0.33753 0.56313 0.08600
C 	C 	0.70907 0.59653 0.42267 0.07800
H 	H 	0.62707 0.59093 0.43213 0.07500
H 	H 	0.79297 0.59933 0.41913 0.08000
C 	C 	0.34597 0.35903 0.55386 -0.00000
C 	C 	0.72097 0.64793 0.40948 0.01100
C 	C 	0.33057 0.40833 0.55085 -0.07900
C 	C 	0.31137 0.31353 0.56689 -0.07600
C 	C 	0.78597 0.69143 0.40411 -0.08000
H 	H 	0.35657 0.44333 0.54363 0.05700
C 	C 	0.28007 0.40493 0.55813 0.00300
H 	H 	0.32267 0.28173 0.56953 0.05500
H 	H 	0.82217 0.68993 0.40833 0.05900
H 	H 	0.26877 0.43613 0.55493 0.02900
Zn	Zn	0.26326 0.67917 0.81497 1.21200
O 	O 	0.20287 0.67870 0.83029 -0.50900
O 	O 	0.29206 0.75888 0.80116 -0.50400
O 	O 	0.21688 0.61327 0.79715 -0.50000
C 	C 	0.20973 0.67467 0.84667 0.41800
C 	C 	0.34683 0.79097 0.79500 0.39700
C 	C 	0.15633 0.67897 0.85737 -0.18100
O 	O 	0.24773 0.66107 0.85318 -0.54900
C 	C 	0.35603 0.84377 0.78179 -0.12400
C 	C 	0.11533 0.69517 0.85130 0.12800
C 	C 	0.15403 0.67057 0.87434 0.08900
C 	C 	0.30863 0.86107 0.77951 0.05400
C 	C 	0.41503 0.87557 0.77206 0.06400
H 	H 	0.11833 0.70527 0.83987 0.00200
C 	C 	0.06913 0.69867 0.86026 -0.18100
C 	C 	0.10843 0.67507 0.88481 -0.14900
H 	H 	0.18453 0.66147 0.87927 0.00600
H 	H 	0.27043 0.84327 0.78597 0.02200
C 	C 	0.32203 0.90757 0.76680 -0.12700
C 	C 	0.42213 0.91537 0.75919 -0.14200
H 	H 	0.44953 0.86837 0.77477 0.02100
H 	H 	0.04163 0.71047 0.85467 0.09800
C 	C 	0.06013 0.68647 0.87684 0.08100
H 	H 	0.10943 0.67087 0.89647 0.08200
C 	C 	0.37573 0.92987 0.75601 0.07400
H 	H 	0.29373 0.92427 0.76547 0.07500
H 	H 	0.45963 0.93267 0.75247 0.08100
C 	C 	0.01263 0.69237 0.88720 0.03900
C 	C 	0.38763 0.98127 0.74282 0.02700
C 	C 	0.99723 0.74167 0.88419 -0.13100
C 	C 	0.97803 0.64687 0.90023 -0.10600
C 	C 	0.45263 0.02477 0.73745 -0.10200
H 	H 	0.02323 0.77667 0.87697 0.08000
C 	C 	0.94673 0.73827 0.89147 0.04200
H 	H 	0.98933 0.61507 0.90287 0.06500
H 	H 	0.48883 0.02327 0.74167 0.06300
H 	H 	0.93543 0.76947 0.88827 0.01500
Zn	Zn	0.98749 0.91742 0.14830 1.21200
O 	O 	0.98797 0.85751 0.16362 -0.50700
O 	O 	0.90779 0.86652 0.13449 -0.50300
O 	O 	0.05340 0.93695 0.13048 -0.49900
C 	C 	0.99200 0.86840 0.18000 0.40800
C 	C 	0.87570 0.88920 0.12833 0.39700
C 	C 	0.98770 0.81070 0.19070 -0.17700
O 	O 	0.00560 0.92000 0.18651 -0.53800
C 	C 	0.82290 0.84560 0.11512 -0.12500
C 	C 	0.97150 0.75350 0.18463 0.12800
C 	C 	0.99610 0.81680 0.20767 0.07700
C 	C 	0.80560 0.78090 0.11284 0.05500
C 	C 	0.79110 0.87280 0.10539 0.06500
H 	H 	0.96140 0.74640 0.17320 0.00100
C 	C 	0.96800 0.70380 0.19359 -0.18800
C 	C 	0.99160 0.76670 0.21814 -0.15000
H 	H 	0.00520 0.85640 0.21260 0.01500
H 	H 	0.82340 0.76050 0.11930 0.02100
C 	C 	0.75910 0.74780 0.10013 -0.13100
C 	C 	0.75130 0.84010 0.09252 -0.14600
H 	H 	0.79830 0.91450 0.10810 0.02100
H 	H 	0.95620 0.66450 0.18800 0.10000
C 	C 	0.98020 0.70700 0.21017 0.09300
H 	H 	0.99580 0.77190 0.22980 0.08000
C 	C 	0.73680 0.77920 0.08934 0.07800
H 	H 	0.74240 0.70280 0.09880 0.07400
H 	H 	0.73400 0.86030 0.08580 0.08000
C 	C 	0.97430 0.65360 0.22053 0.00100
C 	C 	0.68540 0.73970 0.07615 0.01100
C 	C 	0.92500 0.58890 0.21752 -0.08400
C 	C 	0.01980 0.66450 0.23356 -0.07400
C 	C 	0.64190 0.76120 0.07078 -0.08000
H 	H 	0.89000 0.57990 0.21030 0.05900
C 	C 	0.92840 0.54180 0.22480 0.00900
H 	H 	0.05160 0.70760 0.23620 0.05700
H 	H 	0.64340 0.79890 0.07500 0.05900
H 	H 	0.89720 0.49930 0.22160 0.02700
Zn	Zn	0.65416 0.25076 0.48163 1.21200
O 	O 	0.65464 0.19084 0.49695 -0.51200
O 	O 	0.57446 0.19985 0.46782 -0.50400
O 	O 	0.72007 0.27028 0.46381 -0.50000
C 	C 	0.65867 0.20173 0.51333 0.42800
C 	C 	0.54237 0.22253 0.46166 0.39400
C 	C 	0.65437 0.14403 0.52403 -0.21600
O 	O 	0.67227 0.25333 0.51984 -0.55300
C 	C 	0.48957 0.17893 0.44845 -0.11600
C 	C 	0.63817 0.08683 0.51796 0.18000
C 	C 	0.66277 0.15013 0.54100 0.12000
C 	C 	0.47227 0.11423 0.44617 0.04100
C 	C 	0.45777 0.20613 0.43872 0.04900
H 	H 	0.62807 0.07973 0.50653 -0.01900
C 	C 	0.63467 0.03713 0.52692 -0.25100
C 	C 	0.65827 0.10003 0.55147 -0.18300
H 	H 	0.67187 0.18973 0.54593 -0.00600
H 	H 	0.49007 0.09383 0.45263 0.02400
C 	C 	0.42577 0.08113 0.43346 -0.11300
C 	C 	0.41797 0.17343 0.42585 -0.12500
H 	H 	0.46497 0.24783 0.44143 0.02500
H 	H 	0.62287 0.99783 0.52133 0.12800
C 	C 	0.64687 0.04033 0.54350 0.12100
H 	H 	0.66247 0.10523 0.56313 0.09000
C 	C 	0.40347 0.11253 0.42267 0.05100
H 	H 	0.40907 0.03613 0.43213 0.06600
H 	H 	0.40067 0.19363 0.41913 0.07100
C 	C 	0.64097 0.98693 0.55386 -0.01300
C 	C 	0.35207 0.07303 0.40948 0.05500
C 	C 	0.59167 0.92223 0.55085 -0.06300
C 	C 	0.68647 0.99783 0.56689 -0.04100
C 	C 	0.30857 0.09453 0.40411 -0.13900
H 	H 	0.55667 0.91323 0.54363 0.05300
C 	C 	0.59507 0.87513 0.55813 -0.01300
H 	H 	0.71827 0.04093 0.56953 0.03600
H 	H 	0.31007 0.13223 0.40833 0.07900
H 	H 	0.56387 0.83263 0.55493 0.03500
Zn	Zn	0.32083 0.58409 0.81497 1.21200
O 	O 	0.32130 0.52418 0.83029 -0.51000
O 	O 	0.24112 0.53319 0.80116 -0.50400
O 	O 	0.38673 0.60362 0.79715 -0.50000
C 	C 	0.32533 0.53507 0.84667 0.42200
C 	C 	0.20903 0.55587 0.79500 0.39700
C 	C 	0.32103 0.47737 0.85737 -0.19400
O 	O 	0.33893 0.58667 0.85318 -0.55000
C 	C 	0.15623 0.51227 0.78179 -0.12500
C 	C 	0.30483 0.42017 0.85130 0.14500
C 	C 	0.32943 0.48347 0.87434 0.10200
C 	C 	0.13893 0.44757 0.77951 0.05500
C 	C 	0.12443 0.53947 0.77206 0.06500
H 	H 	0.29473 0.41307 0.83987 -0.00400
C 	C 	0.30133 0.37047 0.86026 -0.20200
C 	C 	0.32493 0.43337 0.88481 -0.16500
H 	H 	0.33853 0.52307 0.87927 0.00100
H 	H 	0.15673 0.42717 0.78597 0.02100
C 	C 	0.09243 0.41447 0.76680 -0.13000
C 	C 	0.08463 0.50677 0.75919 -0.14600
H 	H 	0.13163 0.58117 0.77477 0.02000
H 	H 	0.28953 0.33117 0.85467 0.10500
C 	C 	0.31353 0.37367 0.87684 0.10400
H 	H 	0.32913 0.43857 0.89647 0.08600
C 	C 	0.07013 0.44587 0.75601 0.07700
H 	H 	0.07573 0.36947 0.76547 0.07500
H 	H 	0.06733 0.52697 0.75247 0.08100
C 	C 	0.30763 0.32027 0.88720 0.00000
C 	C 	0.01873 0.40637 0.74282 0.01700
C 	C 	0.25833 0.25557 0.88419 -0.08000
C 	C 	0.35313 0.33117 0.90023 -0.07600
C 	C 	0.97523 0.42787 0.73745 -0.08900
H 	H 	0.22333 0.24657 0.87697 0.05800
C 	C 	0.26173 0.20847 0.89147 0.00400
H 	H 	0.38493 0.37427 0.90287 0.05600
H 	H 	0.97673 0.46557 0.74167 0.06000
H 	H 	0.23053 0.16597 0.88827 0.02900
Zn	Zn	0.92993 0.91742 0.64830 1.21300
O 	O 	0.86954 0.85751 0.66362 -0.50900
O 	O 	0.95873 0.86652 0.63449 -0.50800
O 	O 	0.88355 0.93695 0.63048 -0.50200
C 	C 	0.87640 0.86840 0.68000 0.42100
C 	C 	0.01350 0.88920 0.62833 0.40400
C 	C 	0.82300 0.81070 0.69070 -0.19300
O 	O 	0.91440 0.92000 0.68651 -0.54800
C 	C 	0.02270 0.84560 0.61512 -0.12300
C 	C 	0.78200 0.75350 0.68463 0.14400
C 	C 	0.82070 0.81680 0.70767 0.10200
C 	C 	0.97530 0.78090 0.61284 0.05400
C 	C 	0.08170 0.87280 0.60539 0.07000
H 	H 	0.78500 0.74640 0.67320 -0.00400
C 	C 	0.73580 0.70380 0.69359 -0.20200
C 	C 	0.77510 0.76670 0.71814 -0.16400
H 	H 	0.85120 0.85640 0.71260 0.00200
H 	H 	0.93710 0.76050 0.61930 0.02000
C 	C 	0.98870 0.74780 0.60013 -0.14200
C 	C 	0.08880 0.84010 0.59252 -0.15400
H 	H 	0.11620 0.91450 0.60810 0.02000
H 	H 	0.70830 0.66450 0.68800 0.10500
C 	C 	0.72680 0.70700 0.71017 0.10400
H 	H 	0.77610 0.77190 0.72980 0.08600
C 	C 	0.04240 0.77920 0.58934 0.09100
H 	H 	0.96040 0.70280 0.59880 0.07700
H 	H 	0.12630 0.86030 0.58580 0.08400
C 	C 	0.67930 0.65360 0.72053 0.00000
C 	C 	0.05430 0.73970 0.57615 0.00200
C 	C 	0.66390 0.58890 0.71752 -0.08000
C 	C 	0.64470 0.66450 0.73356 -0.07600
C 	C 	0.11930 0.76120 0.57078 -0.07200
H 	H 	0.68990 0.57990 0.71030 0.05800
C 	C 	0.61340 0.54180 0.72480 0.00300
H 	H 	0.65600 0.70760 0.73620 0.05600
H 	H 	0.15550 0.79890 0.57500 0.05600
H 	H 	0.60210 0.49930 0.72160 0.02900
Zn	Zn	0.59660 0.25076 0.98163 1.21200
O 	O 	0.53621 0.19084 0.99695 -0.51200
O 	O 	0.62540 0.19985 0.96782 -0.50400
O 	O 	0.55022 0.27028 0.96381 -0.50000
C 	C 	0.54307 0.20173 0.01333 0.42900
C 	C 	0.68017 0.22253 0.96166 0.39400
C 	C 	0.48967 0.14403 0.02403 -0.21700
O 	O 	0.58107 0.25333 0.01984 -0.55300
C 	C 	0.68937 0.17893 0.94845 -0.11700
C 	C 	0.44867 0.08683 0.01796 0.18100
C 	C 	0.48737 0.15013 0.04100 0.12000
C 	C 	0.64197 0.11423 0.94617 0.04100
C 	C 	0.74837 0.20613 0.93872 0.04900
H 	H 	0.45167 0.07973 0.00653 -0.01900
C 	C 	0.40247 0.03713 0.02692 -0.25200
C 	C 	0.44177 0.10003 0.05147 -0.18300
H 	H 	0.51787 0.18973 0.04593 -0.00600
H 	H 	0.60377 0.09383 0.95263 0.02400
C 	C 	0.65537 0.08113 0.93346 -0.11300
C 	C 	0.75547 0.17343 0.92585 -0.12500
H 	H 	0.78287 0.24783 0.94143 0.02500
H 	H 	0.37497 0.99783 0.02133 0.12900
C 	C 	0.39347 0.04033 0.04350 0.12100
H 	H 	0.44277 0.10523 0.06313 0.09100
C 	C 	0.70907 0.11253 0.92267 0.05100
H 	H 	0.62707 0.03613 0.93213 0.06600
H 	H 	0.79297 0.19363 0.91913 0.07100
C 	C 	0.34597 0.98693 0.05386 -0.01400
C 	C 	0.72097 0.07303 0.90948 0.05400
C 	C 	0.33057 0.92223 0.05085 -0.06200
C 	C 	0.31137 0.99783 0.06689 -0.04000
C 	C 	0.78597 0.09453 0.90411 -0.13800
H 	H 	0.35657 0.91323 0.04363 0.05300
C 	C 	0.28007 0.87513 0.05813 -0.01300
H 	H 	0.32267 0.04093 0.06953 0.03600
H 	H 	0.82217 0.13223 0.90833 0.07900
H 	H 	0.26877 0.83263 0.05493 0.03500
Zn	Zn	0.26326 0.58409 0.31497 1.21200
O 	O 	0.20287 0.52418 0.33029 -0.50900
O 	O 	0.29206 0.53319 0.30116 -0.50400
O 	O 	0.21688 0.60362 0.29715 -0.50000
C 	C 	0.20973 0.53507 0.34667 0.41800
C 	C 	0.34683 0.55587 0.29500 0.39800
C 	C 	0.15633 0.47737 0.35737 -0.18200
O 	O 	0.24773 0.58667 0.35318 -0.54900
C 	C 	0.35603 0.51227 0.28179 -0.12600
C 	C 	0.11533 0.42017 0.35130 0.12900
C 	C 	0.15403 0.48347 0.37434 0.09000
C 	C 	0.30863 0.44757 0.27951 0.05600
C 	C 	0.41503 0.53947 0.27206 0.06600
H 	H 	0.11833 0.41307 0.33987 0.00100
C 	C 	0.06913 0.37047 0.36026 -0.18300
C 	C 	0.10843 0.43337 0.38481 -0.15000
H 	H 	0.18453 0.52307 0.37927 0.00500
H 	H 	0.27043 0.42717 0.28597 0.02000
C 	C 	0.32203 0.41447 0.26680 -0.13200
C 	C 	0.42213 0.50677 0.25919 -0.14800
H 	H 	0.44953 0.58117 0.27477 0.01900
H 	H 	0.04163 0.33117 0.35467 0.09900
C 	C 	0.06013 0.37367 0.37684 0.08300
H 	H 	0.10943 0.43857 0.39647 0.08200
C 	C 	0.37573 0.44587 0.25601 0.07900
H 	H 	0.29373 0.36947 0.26547 0.07500
H 	H 	0.45963 0.52697 0.25247 0.08000
C 	C 	0.01263 0.32027 0.38720 0.03600
C 	C 	0.38763 0.40637 0.24282 0.01100
C 	C 	0.99723 0.25557 0.38419 -0.12800
C 	C 	0.97803 0.33117 0.40023 -0.10400
C 	C 	0.45263 0.42787 0.23745 -0.08000
H 	H 	0.02323 0.24657 0.37697 0.07700
C 	C 	0.94673 0.20847 0.39147 0.03900
H 	H 	0.98933 0.37427 0.40287 0.06400
H 	H 	0.48883 0.46557 0.24167 0.05800
H 	H 	0.93543 0.16597 0.38827 0.01600
Zn	Zn	0.98749 0.07007 0.64830 1.21000
O 	O 	0.98797 0.13046 0.66362 -0.50900
O 	O 	0.90779 0.04127 0.63449 -0.51600
O 	O 	0.05340 0.11645 0.63048 -0.49900
C 	C 	0.99200 0.12360 0.68000 0.41100
C 	C 	0.87570 0.98650 0.62833 0.41200
C 	C 	0.98770 0.17700 0.69070 -0.18300
O 	O 	0.00560 0.08560 0.68651 -0.54600
C 	C 	0.82290 0.97730 0.61512 -0.12400
C 	C 	0.97150 0.21800 0.68463 0.13300
C 	C 	0.99610 0.17930 0.70767 0.08200
C 	C 	0.80560 0.02470 0.61284 0.05400
C 	C 	0.79110 0.91830 0.60539 0.07700
H 	H 	0.96140 0.21500 0.67320 -0.00100
C 	C 	0.96800 0.26420 0.69359 -0.19300
C 	C 	0.99160 0.22490 0.71814 -0.15400
H 	H 	0.00520 0.14880 0.71260 0.01000
H 	H 	0.82340 0.06290 0.61930 0.01900
C 	C 	0.75910 0.01130 0.60013 -0.15600
C 	C 	0.75130 0.91120 0.59252 -0.16500
H 	H 	0.79830 0.88380 0.60810 0.01600
H 	H 	0.95620 0.29170 0.68800 0.10100
C 	C 	0.98020 0.27320 0.71017 0.09600
H 	H 	0.99580 0.22390 0.72980 0.08000
C 	C 	0.73680 0.95760 0.58934 0.10600
H 	H 	0.74240 0.03960 0.59880 0.08000
H 	H 	0.73400 0.87370 0.58580 0.08700
C 	C 	0.97430 0.32070 0.72053 -0.00100
C 	C 	0.68540 0.94570 0.57615 -0.00900
C 	C 	0.92500 0.33610 0.71752 -0.08300
C 	C 	0.01980 0.35530 0.73356 -0.07300
C 	C 	0.64190 0.88070 0.57078 -0.06400
H 	H 	0.89000 0.31010 0.71030 0.05800
C 	C 	0.92840 0.38660 0.72480 0.00700
H 	H 	0.05160 0.34400 0.73620 0.05600
H 	H 	0.64340 0.84450 0.57500 0.05300
H 	H 	0.89720 0.39790 0.72160 0.02700
Zn	Zn	0.65416 0.40340 0.98163 1.21200
O 	O 	0.65464 0.46379 0.99695 -0.51000
O 	O 	0.57446 0.37460 0.96782 -0.50400
O 	O 	0.72007 0.44978 0.96381 -0.50000
C 	C 	0.65867 0.45693 0.01333 0.42200
C 	C 	0.54237 0.31983 0.96166 0.39700
C 	C 	0.65437 0.51033 0.02403 -0.19500
O 	O 	0.67227 0.41893 0.01984 -0.55100
C 	C 	0.48957 0.31063 0.94845 -0.12600
C 	C 	0.63817 0.55133 0.01796 0.14500
C 	C 	0.66277 0.51263 0.04100 0.10200
C 	C 	0.47227 0.35803 0.94617 0.05600
C 	C 	0.45777 0.25163 0.93872 0.06500
H 	H 	0.62807 0.54833 0.00653 -0.00500
C 	C 	0.63467 0.59753 0.02692 -0.20300
C 	C 	0.65827 0.55823 0.05147 -0.16600
H 	H 	0.67187 0.48213 0.04593 0.00000
H 	H 	0.49007 0.39623 0.95263 0.02000
C 	C 	0.42577 0.34463 0.93346 -0.13100
C 	C 	0.41797 0.24453 0.92585 -0.14800
H 	H 	0.46497 0.21713 0.94143 0.01900
H 	H 	0.62287 0.62503 0.02133 0.10500
C 	C 	0.64687 0.60653 0.04350 0.10400
H 	H 	0.66247 0.55723 0.06313 0.08600
C 	C 	0.40347 0.29093 0.92267 0.07800
H 	H 	0.40907 0.37293 0.93213 0.07500
H 	H 	0.40067 0.20703 0.91913 0.08000
C 	C 	0.64097 0.65403 0.05386 -0.00000
C 	C 	0.35207 0.27903 0.90948 0.01100
C 	C 	0.59167 0.66943 0.05085 -0.07900
C 	C 	0.68647 0.68863 0.06689 -0.07600
C 	C 	0.30857 0.21403 0.90411 -0.08100
H 	H 	0.55667 0.64343 0.04363 0.05800
C 	C 	0.59507 0.71993 0.05813 0.00300
H 	H 	0.71827 0.67733 0.06953 0.05600
H 	H 	0.31007 0.17783 0.90833 0.05800
H 	H 	0.56387 0.73123 0.05493 0.02900
Zn	Zn	0.32083 0.73674 0.31497 1.21200
O 	O 	0.32130 0.79713 0.33029 -0.50700
O 	O 	0.24112 0.70794 0.30116 -0.50400
O 	O 	0.38673 0.78312 0.29715 -0.50000
C 	C 	0.32533 0.79027 0.34667 0.41300
C 	C 	0.20903 0.65317 0.29500 0.39700
C 	C 	0.32103 0.84367 0.35737 -0.16600
O 	O 	0.33893 0.75227 0.35318 -0.54800
C 	C 	0.15623 0.64397 0.28179 -0.12500
C 	C 	0.30483 0.88467 0.35130 0.10600
C 	C 	0.32943 0.84597 0.37434 0.07300
C 	C 	0.13893 0.69137 0.27951 0.05500
C 	C 	0.12443 0.58497 0.27206 0.06500
H 	H 	0.29473 0.88167 0.33987 0.01000
C 	C 	0.30133 0.93087 0.36026 -0.15400
C 	C 	0.32493 0.89157 0.38481 -0.12900
H 	H 	0.33853 0.81547 0.37927 0.01100
H 	H 	0.15673 0.72957 0.28597 0.02100
C 	C 	0.09243 0.67797 0.26680 -0.12900
C 	C 	0.08463 0.57787 0.25919 -0.14500
H 	H 	0.13163 0.55047 0.27477 0.02000
H 	H 	0.28953 0.95837 0.35467 0.09100
C 	C 	0.31353 0.93987 0.37684 0.05300
H 	H 	0.32913 0.89057 0.39647 0.07500
C 	C 	0.07013 0.62427 0.25601 0.07600
H 	H 	0.07573 0.70627 0.26547 0.07500
H 	H 	0.06733 0.54037 0.25247 0.08100
C 	C 	0.30763 0.98737 0.38720 0.08700
C 	C 	0.01873 0.61237 0.24282 0.01800
C 	C 	0.25833 0.00277 0.38419 -0.19600
C 	C 	0.35313 0.02197 0.40023 -0.14200
C 	C 	0.97523 0.54737 0.23745 -0.09000
H 	H 	0.22333 0.97677 0.37697 0.10500
C 	C 	0.26173 0.05327 0.39147 0.09000
H 	H 	0.38493 0.01067 0.40287 0.07500
H 	H 	0.97673 0.51117 0.24167 0.06100
H 	H 	0.23053 0.06457 0.38827 -0.00200
Zn	Zn	0.08258 0.01251 0.64830 1.21000
O 	O 	0.14249 0.01203 0.66362 -0.50600
O 	O 	0.13348 0.09221 0.63449 -0.50600
O 	O 	0.06305 0.94660 0.63048 -0.49500
C 	C 	0.13160 0.00800 0.68000 0.39400
C 	C 	0.11080 0.12430 0.62833 0.39700
C 	C 	0.18930 0.01230 0.69070 -0.16000
O 	O 	0.08000 0.99440 0.68651 -0.53000
C 	C 	0.15440 0.17710 0.61512 -0.12600
C 	C 	0.24650 0.02850 0.68463 0.11100
C 	C 	0.18320 0.00390 0.70767 0.05100
C 	C 	0.21910 0.19440 0.61284 0.05500
C 	C 	0.12720 0.20890 0.60539 0.06500
H 	H 	0.25360 0.03860 0.67320 0.00700
C 	C 	0.29620 0.03200 0.69359 -0.17400
C 	C 	0.23330 0.00840 0.71814 -0.13500
H 	H 	0.14360 0.99480 0.71260 0.02800
H 	H 	0.23950 0.17660 0.61930 0.02000
C 	C 	0.25220 0.24090 0.60013 -0.13100
C 	C 	0.15990 0.24870 0.59252 -0.14700
H 	H 	0.08550 0.20170 0.60810 0.02000
H 	H 	0.33550 0.04380 0.68800 0.09400
C 	C 	0.29300 0.01980 0.71017 0.08200
H 	H 	0.22810 0.00420 0.72980 0.07200
C 	C 	0.22080 0.26320 0.58934 0.07800
H 	H 	0.29720 0.25760 0.59880 0.07400
H 	H 	0.13970 0.26600 0.58580 0.08000
C 	C 	0.34640 0.02570 0.72053 0.00100
C 	C 	0.26030 0.31460 0.57615 0.01100
C 	C 	0.41110 0.07500 0.71752 -0.08900
C 	C 	0.33550 0.98020 0.73356 -0.07100
C 	C 	0.23880 0.35810 0.57078 -0.08000
H 	H 	0.42010 0.11000 0.71030 0.06100
C 	C 	0.45820 0.07160 0.72480 0.01400
H 	H 	0.29240 0.94840 0.73620 0.05800
H 	H 	0.20110 0.35660 0.57500 0.05800
H 	H 	0.50070 0.10280 0.72160 0.02500
Zn	Zn	0.74924 0.34584 0.98163 1.21200
O 	O 	0.80916 0.34536 0.99695 -0.51100
O 	O 	0.80015 0.42554 0.96782 -0.50400
O 	O 	0.72972 0.27993 0.96381 -0.50000
C 	C 	0.79827 0.34133 0.01333 0.42500
C 	C 	0.77747 0.45763 0.96166 0.39600
C 	C 	0.85597 0.34563 0.02403 -0.20400
O 	O 	0.74667 0.32773 0.01984 -0.55200
C 	C 	0.82107 0.51043 0.94845 -0.12200
C 	C 	0.91317 0.36183 0.01796 0.16100
C 	C 	0.84987 0.33723 0.04100 0.11000
C 	C 	0.88577 0.52773 0.94617 0.04900
C 	C 	0.79387 0.54223 0.93872 0.05800
H 	H 	0.92027 0.37193 0.00653 -0.01100
C 	C 	0.96287 0.36533 0.02692 -0.22400
C 	C 	0.89997 0.34173 0.05147 -0.17300
H 	H 	0.81027 0.32813 0.04593 -0.00200
H 	H 	0.90617 0.50993 0.95263 0.02200
C 	C 	0.91887 0.57423 0.93346 -0.12300
C 	C 	0.82657 0.58203 0.92585 -0.13700
H 	H 	0.75217 0.53503 0.94143 0.02200
H 	H 	0.00217 0.37713 0.02133 0.11500
C 	C 	0.95967 0.35313 0.04350 0.11100
H 	H 	0.89477 0.33753 0.06313 0.08800
C 	C 	0.88747 0.59653 0.92267 0.06600
H 	H 	0.96387 0.59093 0.93213 0.07100
H 	H 	0.80637 0.59933 0.91913 0.07600
C 	C 	0.01307 0.35903 0.05386 -0.00600
C 	C 	0.92697 0.64793 0.90948 0.03100
C 	C 	0.07777 0.40833 0.05085 -0.07200
C 	C 	0.00217 0.31353 0.06689 -0.06000
C 	C 	0.90547 0.69143 0.90411 -0.10700
H 	H 	0.08677 0.44333 0.04363 0.05600
C 	C 	0.12487 0.40493 0.05813 -0.00400
H 	H 	0.95907 0.28173 0.06953 0.04700
H 	H 	0.86777 0.68993 0.90833 0.06800
H 	H 	0.16737 0.43613 0.05493 0.03100
Zn	Zn	0.41591 0.67917 0.31497 1.21200
O 	O 	0.47582 0.67870 0.33029 -0.51000
O 	O 	0.46681 0.75888 0.30116 -0.50400
O 	O 	0.39638 0.61327 0.29715 -0.50000
C 	C 	0.46493 0.67467 0.34667 0.42200
C 	C 	0.44413 0.79097 0.29500 0.39700
C 	C 	0.52263 0.67897 0.35737 -0.19400
O 	O 	0.41333 0.66107 0.35318 -0.55000
C 	C 	0.48773 0.84377 0.28179 -0.12400
C 	C 	0.57983 0.69517 0.35130 0.14500
C 	C 	0.51653 0.67057 0.37434 0.10200
C 	C 	0.55243 0.86107 0.27951 0.05400
C 	C 	0.46053 0.87557 0.27206 0.06400
H 	H 	0.58693 0.70527 0.33987 -0.00400
C 	C 	0.62953 0.69867 0.36026 -0.20200
C 	C 	0.56663 0.67507 0.38481 -0.16500
H 	H 	0.47693 0.66147 0.37927 0.00100
H 	H 	0.57283 0.84327 0.28597 0.02200
C 	C 	0.58553 0.90757 0.26680 -0.12700
C 	C 	0.49323 0.91537 0.25919 -0.14300
H 	H 	0.41883 0.86837 0.27477 0.02100
H 	H 	0.66883 0.71047 0.35467 0.10500
C 	C 	0.62633 0.68647 0.37684 0.10400
H 	H 	0.56143 0.67087 0.39647 0.08700
C 	C 	0.55413 0.92987 0.25601 0.07400
H 	H 	0.63053 0.92427 0.26547 0.07500
H 	H 	0.47303 0.93267 0.25247 0.08100
C 	C 	0.67973 0.69237 0.38720 0.00100
C 	C 	0.59363 0.98127 0.24282 0.02600
C 	C 	0.74443 0.74167 0.38419 -0.08000
C 	C 	0.66883 0.64687 0.40023 -0.07600
C 	C 	0.57213 0.02477 0.23745 -0.10100
H 	H 	0.75343 0.77667 0.37697 0.05800
C 	C 	0.79153 0.73827 0.39147 0.00400
H 	H 	0.62573 0.61507 0.40287 0.05600
H 	H 	0.53443 0.02327 0.24167 0.06200
H 	H 	0.83403 0.76947 0.38827 0.02900
O 	O 	-0.00000 0.00000 0.15756 -0.94600
Zn	Zn	0.00000 0.00000 0.18239 1.20800
O 	O 	0.66667 0.33333 0.49089 -0.94400
Zn	Zn	0.66667 0.33333 0.51573 1.21100
O 	O 	0.33333 0.66667 0.82423 -0.94400
Zn	Zn	0.33333 0.66667 0.84906 1.21100
O 	O 	-0.00000 0.00000 0.65756 -0.94600
Zn	Zn	-0.00000 0.00000 0.68239 1.20800
O 	O 	0.66667 0.33333 0.99089 -0.94400
Zn	Zn	0.66667 0.33333 0.01573 1.21100
O 	O 	0.33333 0.66667 0.32423 -0.94400
Zn	Zn	0.33333 0.66667 0.34906 1.21100
C 	C 	0.53905 0.31353 0.18857 0.41500
C 	C 	0.48913 0.30522 0.17589 -0.17600
C 	C 	0.44770 0.24578 0.16883 0.09100
H 	H 	0.45090 0.20960 0.17240 0.01100
C 	C 	0.40090 0.23566 0.15665 -0.16000
H 	H 	0.37560 0.19430 0.15180 0.08400
C 	C 	0.39228 0.28716 0.15174 0.09000
C 	C 	0.42875 0.34539 0.15968 -0.16700
H 	H 	0.42110 0.37990 0.15750 0.08600
C 	C 	0.47734 0.35454 0.17106 0.09200
H 	H 	0.50330 0.39620 0.17570 0.01100
C 	C 	0.34151 0.27625 0.13889 0.00500
C 	C 	0.28751 0.21447 0.13590 -0.07000
H 	H 	0.28090 0.17880 0.14250 0.05700
C 	C 	0.24319 0.20574 0.12311 -0.00600
H 	H 	0.20700 0.16410 0.12140 0.04000
C 	C 	0.25126 0.25681 0.11295 -0.07600
H 	H 	0.22260 0.24870 0.10400 0.05600
C 	C 	0.30206 0.32041 0.11606 0.01900
C 	C 	0.34655 0.32929 0.12920 -0.07900
H 	H 	0.38050 0.37170 0.13160 0.05600
C 	C 	0.30875 0.37660 0.10572 0.05100
C 	C 	0.29352 0.36950 0.08861 -0.12300
H 	H 	0.28300 0.33030 0.08310 0.07000
C 	C 	0.29400 0.41930 0.07992 0.04900
H 	H 	0.28090 0.41250 0.06870 0.02300
C 	C 	0.31300 0.47940 0.08703 -0.11700
C 	C 	0.33070 0.49010 0.10457 0.03100
H 	H 	0.34160 0.52980 0.10980 0.03400
C 	C 	0.33110 0.43870 0.11351 -0.10600
H 	H 	0.34600 0.44530 0.12460 0.06700
C 	C 	0.31500 0.53450 0.07752 0.34300
O 	O 	0.57342 0.37173 0.19486 -0.49200
O 	O 	0.54074 0.26420 0.19308 -0.52400
O 	O 	0.33154 0.58954 0.08515 -0.47800
O 	O 	0.30648 0.52547 0.06119 -0.50000
Zn	Zn	0.65356 0.40439 0.20909 1.20800
C 	C 	0.20572 0.64686 0.52190 0.41500
C 	C 	0.15580 0.63855 0.50922 -0.17500
C 	C 	0.11437 0.57911 0.50216 0.09100
H 	H 	0.11757 0.54293 0.50573 0.01200
C 	C 	0.06757 0.56899 0.48998 -0.15900
H 	H 	0.04227 0.52763 0.48513 0.08600
C 	C 	0.05895 0.62049 0.48507 0.09000
C 	C 	0.09542 0.67872 0.49301 -0.16500
H 	H 	0.08777 0.71323 0.49083 0.08700
C 	C 	0.14401 0.68787 0.50439 0.09100
H 	H 	0.16997 0.72953 0.50903 0.01200
C 	C 	0.00818 0.60958 0.47222 0.01000
C 	C 	0.95418 0.54780 0.46923 -0.07700
H 	H 	0.94757 0.51213 0.47583 0.05900
C 	C 	0.90986 0.53907 0.45644 -0.00500
H 	H 	0.87367 0.49743 0.45473 0.04000
C 	C 	0.91793 0.59014 0.44628 -0.07500
H 	H 	0.88927 0.58203 0.43733 0.05600
C 	C 	0.96873 0.65374 0.44939 0.01300
C 	C 	0.01322 0.66262 0.46253 -0.07300
H 	H 	0.04717 0.70503 0.46493 0.05500
C 	C 	0.97542 0.70993 0.43905 0.05400
C 	C 	0.96019 0.70283 0.42194 -0.12400
H 	H 	0.94967 0.66363 0.41643 0.07000
C 	C 	0.96067 0.75263 0.41325 0.04900
H 	H 	0.94757 0.74583 0.40203 0.02200
C 	C 	0.97967 0.81273 0.42036 -0.11500
C 	C 	0.99737 0.82343 0.43790 0.02500
H 	H 	0.00827 0.86313 0.44313 0.04200
C 	C 	0.99777 0.77203 0.44684 -0.11400
H 	H 	0.01267 0.77863 0.45793 0.07400
C 	C 	0.98167 0.86783 0.41085 0.34200
O 	O 	0.24009 0.70506 0.52819 -0.49100
O 	O 	0.20741 0.59753 0.52641 -0.52300
O 	O 	0.99821 0.92287 0.41848 -0.47600
O 	O 	0.97315 0.85880 0.39452 -0.50000
Zn	Zn	0.32023 0.73772 0.54243 1.20800
C 	C 	0.87238 0.98020 0.85524 0.42700
C 	C 	0.82246 0.97189 0.84256 -0.17400
C 	C 	0.78103 0.91245 0.83550 0.10000
H 	H 	0.78423 0.87627 0.83907 0.00800
C 	C 	0.73423 0.90233 0.82332 -0.17400
H 	H 	0.70893 0.86097 0.81847 0.09000
C 	C 	0.72561 0.95383 0.81841 0.11700
C 	C 	0.76208 0.01206 0.82635 -0.19200
H 	H 	0.75443 0.04657 0.82417 0.09200
C 	C 	0.81067 0.02121 0.83773 0.09100
H 	H 	0.83663 0.06287 0.84237 0.00900
C 	C 	0.67484 0.94292 0.80556 -0.01400
C 	C 	0.62084 0.88114 0.80257 -0.05500
H 	H 	0.61423 0.84547 0.80917 0.05200
C 	C 	0.57652 0.87241 0.78978 -0.01800
H 	H 	0.54033 0.83077 0.78807 0.04500
C 	C 	0.58459 0.92348 0.77962 -0.06600
H 	H 	0.55593 0.91537 0.77067 0.05400
C 	C 	0.63539 0.98708 0.78273 0.01200
C 	C 	0.67988 0.99596 0.79587 -0.04700
H 	H 	0.71383 0.03837 0.79827 0.03700
C 	C 	0.64208 0.04327 0.77239 0.05800
C 	C 	0.62685 0.03617 0.75528 -0.15800
H 	H 	0.61633 0.99697 0.74977 0.09000
C 	C 	0.62733 0.08597 0.74659 0.07000
H 	H 	0.61423 0.07917 0.73537 0.01300
C 	C 	0.64633 0.14607 0.75370 -0.12800
C 	C 	0.66403 0.15677 0.77124 0.03900
H 	H 	0.67493 0.19647 0.77647 0.03000
C 	C 	0.66443 0.10537 0.78018 -0.11600
H 	H 	0.67933 0.11197 0.79127 0.06800
C 	C 	0.64833 0.20117 0.74419 0.34600
O 	O 	0.90675 0.03840 0.86153 -0.50200
O 	O 	0.87407 0.93087 0.85975 -0.52500
O 	O 	0.66487 0.25621 0.75182 -0.48000
O 	O 	0.63981 0.19214 0.72786 -0.50100
Zn	Zn	0.98690 0.07105 0.87576 1.20600
C 	C 	0.68647 0.22552 0.18857 0.41500
C 	C 	0.69478 0.18391 0.17589 -0.17600
C 	C 	0.75422 0.20192 0.16883 0.09100
H 	H 	0.79040 0.24130 0.17240 0.01100
C 	C 	0.76434 0.16524 0.15665 -0.16000
H 	H 	0.80570 0.18130 0.15180 0.08400
C 	C 	0.71284 0.10512 0.15174 0.09000
C 	C 	0.65461 0.08336 0.15968 -0.16600
H 	H 	0.62010 0.04120 0.15750 0.08400
C 	C 	0.64546 0.12280 0.17106 0.09200
H 	H 	0.60380 0.10710 0.17570 0.01000
C 	C 	0.72375 0.06526 0.13889 0.00300
C 	C 	0.78553 0.07304 0.13590 -0.06200
H 	H 	0.82120 0.10210 0.14250 0.05400
C 	C 	0.79426 0.03745 0.12311 -0.02900
H 	H 	0.83590 0.04290 0.12140 0.04500
C 	C 	0.74319 0.99445 0.11295 -0.05700
H 	H 	0.75130 0.97390 0.10400 0.05200
C 	C 	0.67959 0.98165 0.11606 0.02500
C 	C 	0.67071 0.01726 0.12920 -0.09100
H 	H 	0.62830 0.00880 0.13160 0.05600
C 	C 	0.62340 0.93215 0.10572 0.05200
C 	C 	0.63050 0.92402 0.08861 -0.12200
H 	H 	0.66970 0.95270 0.08310 0.07200
C 	C 	0.58070 0.87470 0.07992 0.04900
H 	H 	0.58750 0.86840 0.06870 0.02300
C 	C 	0.52060 0.83360 0.08703 -0.11600
C 	C 	0.50990 0.84060 0.10457 0.03100
H 	H 	0.47020 0.81180 0.10980 0.03500
C 	C 	0.56130 0.89240 0.11351 -0.10600
H 	H 	0.55470 0.90070 0.12460 0.07000
C 	C 	0.46550 0.78050 0.07752 0.34300
O 	O 	0.62827 0.20169 0.19486 -0.49200
O 	O 	0.73580 0.27654 0.19308 -0.52400
O 	O 	0.41046 0.74200 0.08515 -0.47800
O 	O 	0.47453 0.78101 0.06119 -0.50000
Zn	Zn	0.59561 0.24918 0.20909 1.20800
C 	C 	0.35314 0.55885 0.52190 0.41500
C 	C 	0.36145 0.51724 0.50922 -0.17600
C 	C 	0.42089 0.53525 0.50216 0.09100
H 	H 	0.45707 0.57463 0.50573 0.01200
C 	C 	0.43101 0.49857 0.48998 -0.16000
H 	H 	0.47237 0.51463 0.48513 0.08500
C 	C 	0.37951 0.43845 0.48507 0.09000
C 	C 	0.32128 0.41669 0.49301 -0.16600
H 	H 	0.28677 0.37453 0.49083 0.08600
C 	C 	0.31213 0.45613 0.50439 0.09200
H 	H 	0.27047 0.44043 0.50903 0.01100
C 	C 	0.39042 0.39859 0.47222 0.00500
C 	C 	0.45220 0.40637 0.46923 -0.07000
H 	H 	0.48787 0.43543 0.47583 0.05800
C 	C 	0.46093 0.37078 0.45644 -0.00600
H 	H 	0.50257 0.37623 0.45473 0.04100
C 	C 	0.40986 0.32778 0.44628 -0.07700
H 	H 	0.41797 0.30723 0.43733 0.05600
C 	C 	0.34626 0.31498 0.44939 0.01900
C 	C 	0.33738 0.35059 0.46253 -0.08000
H 	H 	0.29497 0.34213 0.46493 0.05600
C 	C 	0.29007 0.26548 0.43905 0.05100
C 	C 	0.29717 0.25735 0.42194 -0.12300
H 	H 	0.33637 0.28603 0.41643 0.07000
C 	C 	0.24737 0.20803 0.41325 0.04800
H 	H 	0.25417 0.20173 0.40203 0.02300
C 	C 	0.18727 0.16693 0.42036 -0.11700
C 	C 	0.17657 0.17393 0.43790 0.03000
H 	H 	0.13687 0.14513 0.44313 0.03300
C 	C 	0.22797 0.22573 0.44684 -0.10700
H 	H 	0.22137 0.23403 0.45793 0.06700
C 	C 	0.13217 0.11383 0.41085 0.34200
O 	O 	0.29494 0.53502 0.52819 -0.49200
O 	O 	0.40247 0.60987 0.52641 -0.52300
O 	O 	0.07713 0.07533 0.41848 -0.47900
O 	O 	0.14120 0.11434 0.39452 -0.50000
Zn	Zn	0.26228 0.58251 0.54243 1.20800
C 	C 	0.01980 0.89219 0.85524 0.42000
C 	C 	0.02811 0.85058 0.84256 -0.17300
C 	C 	0.08755 0.86859 0.83550 0.09400
H 	H 	0.12373 0.90797 0.83907 0.01300
C 	C 	0.09767 0.83191 0.82332 -0.16500
H 	H 	0.13903 0.84797 0.81847 0.08800
C 	C 	0.04617 0.77179 0.81841 0.10200
C 	C 	0.98794 0.75003 0.82635 -0.17700
H 	H 	0.95343 0.70787 0.82417 0.08800
C 	C 	0.97879 0.78947 0.83773 0.09000
H 	H 	0.93713 0.77377 0.84237 0.01100
C 	C 	0.05708 0.73193 0.80556 -0.00300
C 	C 	0.11886 0.73971 0.80257 -0.06300
H 	H 	0.15453 0.76877 0.80917 0.05600
C 	C 	0.12759 0.70412 0.78978 -0.01100
H 	H 	0.16923 0.70957 0.78807 0.04300
C 	C 	0.07652 0.66112 0.77962 -0.07200
H 	H 	0.08463 0.64057 0.77067 0.05600
C 	C 	0.01292 0.64832 0.78273 0.01600
C 	C 	0.00404 0.68393 0.79587 -0.06500
H 	H 	0.96163 0.67547 0.79827 0.04800
C 	C 	0.95673 0.59882 0.77239 0.05400
C 	C 	0.96383 0.59069 0.75528 -0.13900
H 	H 	0.00303 0.61937 0.74977 0.08000
C 	C 	0.91403 0.54137 0.74659 0.05900
H 	H 	0.92083 0.53507 0.73537 0.01800
C 	C 	0.85393 0.50027 0.75370 -0.12200
C 	C 	0.84323 0.50727 0.77124 0.03400
H 	H 	0.80353 0.47847 0.77647 0.03200
C 	C 	0.89463 0.55907 0.78018 -0.11100
H 	H 	0.88803 0.56737 0.79127 0.06800
C 	C 	0.79883 0.44717 0.74419 0.34400
O 	O 	0.96160 0.86836 0.86153 -0.49500
O 	O 	0.06913 0.94321 0.85975 -0.51800
O 	O 	0.74379 0.40867 0.75182 -0.47900
O 	O 	0.80786 0.44768 0.72786 -0.50100
Zn	Zn	0.92895 0.91584 0.87576 1.20900
C 	C 	0.77448 0.46095 0.18857 0.41500
C 	C 	0.81609 0.51087 0.17589 -0.17600
C 	C 	0.79808 0.55230 0.16883 0.09100
H 	H 	0.75870 0.54910 0.17240 0.01100
C 	C 	0.83476 0.59910 0.15665 -0.16000
H 	H 	0.81870 0.62440 0.15180 0.08500
C 	C 	0.89488 0.60772 0.15174 0.09000
C 	C 	0.91664 0.57125 0.15968 -0.16700
H 	H 	0.95880 0.57890 0.15750 0.08500
C 	C 	0.87720 0.52266 0.17106 0.09200
H 	H 	0.89290 0.49670 0.17570 0.01000
C 	C 	0.93474 0.65849 0.13889 0.00400
C 	C 	0.92696 0.71249 0.13590 -0.06600
H 	H 	0.89790 0.71910 0.14250 0.05600
C 	C 	0.96255 0.75681 0.12311 -0.01700
H 	H 	0.95710 0.79300 0.12140 0.04300
C 	C 	0.00555 0.74874 0.11295 -0.06700
H 	H 	0.02610 0.77740 0.10400 0.05500
C 	C 	0.01835 0.69794 0.11606 0.02200
C 	C 	0.98274 0.65345 0.12920 -0.08500
H 	H 	0.99120 0.61950 0.13160 0.05600
C 	C 	0.06785 0.69125 0.10572 0.05100
C 	C 	0.07598 0.70648 0.08861 -0.12200
H 	H 	0.04730 0.71700 0.08310 0.07100
C 	C 	0.12530 0.70600 0.07992 0.04900
H 	H 	0.13160 0.71910 0.06870 0.02300
C 	C 	0.16640 0.68700 0.08703 -0.11700
C 	C 	0.15940 0.66930 0.10457 0.03100
H 	H 	0.18820 0.65840 0.10980 0.03400
C 	C 	0.10760 0.66890 0.11351 -0.10600
H 	H 	0.09930 0.65400 0.12460 0.06800
C 	C 	0.21950 0.68500 0.07752 0.34300
O 	O 	0.79831 0.42658 0.19486 -0.49200
O 	O 	0.72346 0.45926 0.19308 -0.52300
O 	O 	0.25800 0.66846 0.08515 -0.47800
O 	O 	0.21899 0.69352 0.06119 -0.50000
Zn	Zn	0.75082 0.34644 0.20909 1.20800
C 	C 	0.44115 0.79428 0.52190 0.41400
C 	C 	0.48276 0.84420 0.50922 -0.17400
C 	C 	0.46475 0.88563 0.50216 0.09000
H 	H 	0.42537 0.88243 0.50573 0.01300
C 	C 	0.50143 0.93243 0.48998 -0.15700
H 	H 	0.48537 0.95773 0.48513 0.08700
C 	C 	0.56155 0.94105 0.48507 0.08800
C 	C 	0.58331 0.90458 0.49301 -0.16400
H 	H 	0.62547 0.91223 0.49083 0.08600
C 	C 	0.54387 0.85599 0.50439 0.09100
H 	H 	0.55957 0.83003 0.50903 0.01200
C 	C 	0.60141 0.99182 0.47222 0.01600
C 	C 	0.59363 0.04582 0.46923 -0.08500
H 	H 	0.56457 0.05243 0.47583 0.06000
C 	C 	0.62922 0.09014 0.45644 -0.00400
H 	H 	0.62377 0.12633 0.45473 0.03900
C 	C 	0.67222 0.08207 0.44628 -0.07400
H 	H 	0.69277 0.11073 0.43733 0.05500
C 	C 	0.68502 0.03127 0.44939 0.00400
C 	C 	0.64941 0.98678 0.46253 -0.06600
H 	H 	0.65787 0.95283 0.46493 0.05300
C 	C 	0.73452 0.02458 0.43905 0.05900
C 	C 	0.74265 0.03981 0.42194 -0.12900
H 	H 	0.71397 0.05033 0.41643 0.07100
C 	C 	0.79197 0.03933 0.41325 0.05000
H 	H 	0.79827 0.05243 0.40203 0.02100
C 	C 	0.83307 0.02033 0.42036 -0.11600
C 	C 	0.82607 0.00263 0.43790 0.01900
H 	H 	0.85487 0.99173 0.44313 0.04600
C 	C 	0.77427 0.00223 0.44684 -0.12500
H 	H 	0.76597 0.98733 0.45793 0.08100
C 	C 	0.88617 0.01833 0.41085 0.34100
O 	O 	0.46498 0.75991 0.52819 -0.49200
O 	O 	0.39013 0.79259 0.52641 -0.52200
O 	O 	0.92467 0.00179 0.41848 -0.48400
O 	O 	0.88566 0.02685 0.39452 -0.50300
Zn	Zn	0.41749 0.67977 0.54243 1.20800
C 	C 	0.10781 0.12762 0.85524 0.41400
C 	C 	0.14942 0.17754 0.84256 -0.17600
C 	C 	0.13141 0.21897 0.83550 0.09100
H 	H 	0.09203 0.21577 0.83907 0.01200
C 	C 	0.16809 0.26577 0.82332 -0.16000
H 	H 	0.15203 0.29107 0.81847 0.08500
C 	C 	0.22821 0.27439 0.81841 0.09000
C 	C 	0.24997 0.23792 0.82635 -0.16700
H 	H 	0.29213 0.24557 0.82417 0.08500
C 	C 	0.21053 0.18933 0.83773 0.09200
H 	H 	0.22623 0.16337 0.84237 0.01000
C 	C 	0.26807 0.32516 0.80556 0.00500
C 	C 	0.26029 0.37916 0.80257 -0.07000
H 	H 	0.23123 0.38577 0.80917 0.05800
C 	C 	0.29588 0.42348 0.78978 -0.00600
H 	H 	0.29043 0.45967 0.78807 0.04100
C 	C 	0.33888 0.41541 0.77962 -0.07600
H 	H 	0.35943 0.44407 0.77067 0.05600
C 	C 	0.35168 0.36461 0.78273 0.01900
C 	C 	0.31607 0.32012 0.79587 -0.07900
H 	H 	0.32453 0.28617 0.79827 0.05500
C 	C 	0.40118 0.35792 0.77239 0.05100
C 	C 	0.40931 0.37315 0.75528 -0.12300
H 	H 	0.38063 0.38367 0.74977 0.07000
C 	C 	0.45863 0.37267 0.74659 0.04900
H 	H 	0.46493 0.38577 0.73537 0.02300
C 	C 	0.49973 0.35367 0.75370 -0.11700
C 	C 	0.49273 0.33597 0.77124 0.03000
H 	H 	0.52153 0.32507 0.77647 0.03300
C 	C 	0.44093 0.33557 0.78018 -0.10700
H 	H 	0.43263 0.32067 0.79127 0.06700
C 	C 	0.55283 0.35167 0.74419 0.34300
O 	O 	0.13164 0.09325 0.86153 -0.49400
O 	O 	0.05679 0.12593 0.85975 -0.52200
O 	O 	0.59133 0.33513 0.75182 -0.47900
O 	O 	0.55232 0.36019 0.72786 -0.50000
Zn	Zn	0.08416 0.01310 0.87576 1.20600
C 	C 	0.68647 0.46095 0.68857 0.41500
C 	C 	0.69478 0.51087 0.67589 -0.17600
C 	C 	0.75422 0.55230 0.66883 0.09100
H 	H 	0.79040 0.54910 0.67240 0.01100
C 	C 	0.76434 0.59910 0.65665 -0.16000
H 	H 	0.80570 0.62440 0.65180 0.08500
C 	C 	0.71284 0.60772 0.65174 0.09000
C 	C 	0.65461 0.57125 0.65968 -0.16700
H 	H 	0.62010 0.57890 0.65750 0.08600
C 	C 	0.64546 0.52266 0.67106 0.09200
H 	H 	0.60380 0.49670 0.67570 0.01100
C 	C 	0.72375 0.65849 0.63889 0.00500
C 	C 	0.78553 0.71249 0.63590 -0.07000
H 	H 	0.82120 0.71910 0.64250 0.05700
C 	C 	0.79426 0.75681 0.62311 -0.00600
H 	H 	0.83590 0.79300 0.62140 0.04100
C 	C 	0.74319 0.74874 0.61295 -0.07600
H 	H 	0.75130 0.77740 0.60400 0.05700
C 	C 	0.67959 0.69794 0.61606 0.01900
C 	C 	0.67071 0.65345 0.62920 -0.07900
H 	H 	0.62830 0.61950 0.63160 0.05600
C 	C 	0.62340 0.69125 0.60572 0.05100
C 	C 	0.63050 0.70648 0.58861 -0.12300
H 	H 	0.66970 0.71700 0.58310 0.07000
C 	C 	0.58070 0.70600 0.57992 0.04900
H 	H 	0.58750 0.71910 0.56870 0.02300
C 	C 	0.52060 0.68700 0.58703 -0.11700
C 	C 	0.50990 0.66930 0.60457 0.03100
H 	H 	0.47020 0.65840 0.60980 0.03400
C 	C 	0.56130 0.66890 0.61351 -0.10600
H 	H 	0.55470 0.65400 0.62460 0.06700
C 	C 	0.46550 0.68500 0.57752 0.34300
O 	O 	0.62827 0.42658 0.69486 -0.49200
O 	O 	0.73580 0.45926 0.69308 -0.52300
O 	O 	0.41046 0.66846 0.58515 -0.47800
O 	O 	0.47453 0.69352 0.56119 -0.50000
Zn	Zn	0.59561 0.34644 0.70909 1.20800
C 	C 	0.35314 0.79428 0.02190 0.41400
C 	C 	0.36145 0.84420 0.00922 -0.17400
C 	C 	0.42089 0.88563 0.00216 0.09000
H 	H 	0.45707 0.88243 0.00573 0.01300
C 	C 	0.43101 0.93243 0.98998 -0.15700
H 	H 	0.47237 0.95773 0.98513 0.08700
C 	C 	0.37951 0.94105 0.98507 0.08900
C 	C 	0.32128 0.90458 0.99301 -0.16400
H 	H 	0.28677 0.91223 0.99083 0.08600
C 	C 	0.31213 0.85599 0.00439 0.09100
H 	H 	0.27047 0.83003 0.00903 0.01200
C 	C 	0.39042 0.99182 0.97222 0.01600
C 	C 	0.45220 0.04582 0.96923 -0.08500
H 	H 	0.48787 0.05243 0.97583 0.06000
C 	C 	0.46093 0.09014 0.95644 -0.00400
H 	H 	0.50257 0.12633 0.95473 0.03900
C 	C 	0.40986 0.08207 0.94628 -0.07300
H 	H 	0.41797 0.11073 0.93733 0.05500
C 	C 	0.34626 0.03127 0.94939 0.00400
C 	C 	0.33738 0.98678 0.96253 -0.06500
H 	H 	0.29497 0.95283 0.96493 0.05400
C 	C 	0.29007 0.02458 0.93905 0.05900
C 	C 	0.29717 0.03981 0.92194 -0.12800
H 	H 	0.33637 0.05033 0.91643 0.07100
C 	C 	0.24737 0.03933 0.91325 0.05000
H 	H 	0.25417 0.05243 0.90203 0.02100
C 	C 	0.18727 0.02033 0.92036 -0.11500
C 	C 	0.17657 0.00263 0.93790 0.01800
H 	H 	0.13687 0.99173 0.94313 0.04800
C 	C 	0.22797 0.00223 0.94684 -0.12500
H 	H 	0.22137 0.98733 0.95793 0.08200
C 	C 	0.13217 0.01833 0.91085 0.34100
O 	O 	0.29494 0.75991 0.02819 -0.49200
O 	O 	0.40247 0.79259 0.02641 -0.52200
O 	O 	0.07713 0.00179 0.91848 -0.48100
O 	O 	0.14120 0.02685 0.89452 -0.50200
Zn	Zn	0.26228 0.67977 0.04243 1.20800
C 	C 	0.01980 0.12762 0.35524 0.42000
C 	C 	0.02811 0.17754 0.34256 -0.17600
C 	C 	0.08755 0.21897 0.33550 0.09500
H 	H 	0.12373 0.21577 0.33907 0.01000
C 	C 	0.09767 0.26577 0.32332 -0.16700
H 	H 	0.13903 0.29107 0.31847 0.08700
C 	C 	0.04617 0.27439 0.31841 0.10200
C 	C 	0.98794 0.23792 0.32635 -0.17800
H 	H 	0.95343 0.24557 0.32417 0.08800
C 	C 	0.97879 0.18933 0.33773 0.09200
H 	H 	0.93713 0.16337 0.34237 0.00900
C 	C 	0.05708 0.32516 0.30556 -0.00400
C 	C 	0.11886 0.37916 0.30257 -0.06300
H 	H 	0.15453 0.38577 0.30917 0.05500
C 	C 	0.12759 0.42348 0.28978 -0.01200
H 	H 	0.16923 0.45967 0.28807 0.04300
C 	C 	0.07652 0.41541 0.27962 -0.07200
H 	H 	0.08463 0.44407 0.27067 0.05500
C 	C 	0.01292 0.36461 0.28273 0.01600
C 	C 	0.00404 0.32012 0.29587 -0.06500
H 	H 	0.96163 0.28617 0.29827 0.04700
C 	C 	0.95673 0.35792 0.27239 0.05400
C 	C 	0.96383 0.37315 0.25528 -0.13900
H 	H 	0.00303 0.38367 0.24977 0.07900
C 	C 	0.91403 0.37267 0.24659 0.05800
H 	H 	0.92083 0.38577 0.23537 0.01800
C 	C 	0.85393 0.35367 0.25370 -0.12200
C 	C 	0.84323 0.33597 0.27124 0.03400
H 	H 	0.80353 0.32507 0.27647 0.03200
C 	C 	0.89463 0.33557 0.28018 -0.11100
H 	H 	0.88803 0.32067 0.29127 0.06700
C 	C 	0.79883 0.35167 0.24419 0.34400
O 	O 	0.96160 0.09325 0.36153 -0.49800
O 	O 	0.06913 0.12593 0.35975 -0.52500
O 	O 	0.74379 0.33513 0.25182 -0.47900
O 	O 	0.80786 0.36019 0.22786 -0.50100
Zn	Zn	0.92895 0.01310 0.37576 1.20500
C 	C 	0.77448 0.31353 0.68857 0.41500
C 	C 	0.81609 0.30522 0.67589 -0.17600
C 	C 	0.79808 0.24578 0.66883 0.09100
H 	H 	0.75870 0.20960 0.67240 0.01100
C 	C 	0.83476 0.23566 0.65665 -0.16100
H 	H 	0.81870 0.19430 0.65180 0.08400
C 	C 	0.89488 0.28716 0.65174 0.09000
C 	C 	0.91664 0.34539 0.65968 -0.16700
H 	H 	0.95880 0.37990 0.65750 0.08500
C 	C 	0.87720 0.35454 0.67106 0.09200
H 	H 	0.89290 0.39620 0.67570 0.01100
C 	C 	0.93474 0.27625 0.63889 0.00400
C 	C 	0.92696 0.21447 0.63590 -0.06600
H 	H 	0.89790 0.17880 0.64250 0.05600
C 	C 	0.96255 0.20574 0.62311 -0.01600
H 	H 	0.95710 0.16410 0.62140 0.04200
C 	C 	0.00555 0.25681 0.61295 -0.06800
H 	H 	0.02610 0.24870 0.60400 0.05400
C 	C 	0.01835 0.32041 0.61606 0.02200
C 	C 	0.98274 0.32929 0.62920 -0.08400
H 	H 	0.99120 0.37170 0.63160 0.05600
C 	C 	0.06785 0.37660 0.60572 0.05100
C 	C 	0.07598 0.36950 0.58861 -0.12200
H 	H 	0.04730 0.33030 0.58310 0.07100
C 	C 	0.12530 0.41930 0.57992 0.04900
H 	H 	0.13160 0.41250 0.56870 0.02300
C 	C 	0.16640 0.47940 0.58703 -0.11700
C 	C 	0.15940 0.49010 0.60457 0.03100
H 	H 	0.18820 0.52980 0.60980 0.03400
C 	C 	0.10760 0.43870 0.61351 -0.10600
H 	H 	0.09930 0.44530 0.62460 0.06800
C 	C 	0.21950 0.53450 0.57752 0.34300
O 	O 	0.79831 0.37173 0.69486 -0.49200
O 	O 	0.72346 0.26420 0.69308 -0.52400
O 	O 	0.25800 0.58954 0.58515 -0.47800
O 	O 	0.21899 0.52547 0.56119 -0.50000
Zn	Zn	0.75082 0.40439 0.70909 1.20800
C 	C 	0.44115 0.64686 0.02190 0.41500
C 	C 	0.48276 0.63855 0.00922 -0.17600
C 	C 	0.46475 0.57911 0.00216 0.09100
H 	H 	0.42537 0.54293 0.00573 0.01100
C 	C 	0.50143 0.56899 0.98998 -0.16000
H 	H 	0.48537 0.52763 0.98513 0.08500
C 	C 	0.56155 0.62049 0.98507 0.09000
C 	C 	0.58331 0.67872 0.99301 -0.16600
H 	H 	0.62547 0.71323 0.99083 0.08600
C 	C 	0.54387 0.68787 0.00439 0.09200
H 	H 	0.55957 0.72953 0.00903 0.01100
C 	C 	0.60141 0.60958 0.97222 0.00600
C 	C 	0.59363 0.54780 0.96923 -0.07000
H 	H 	0.56457 0.51213 0.97583 0.05800
C 	C 	0.62922 0.53907 0.95644 -0.00600
H 	H 	0.62377 0.49743 0.95473 0.04100
C 	C 	0.67222 0.59014 0.94628 -0.07700
H 	H 	0.69277 0.58203 0.93733 0.05600
C 	C 	0.68502 0.65374 0.94939 0.02000
C 	C 	0.64941 0.66262 0.96253 -0.08000
H 	H 	0.65787 0.70503 0.96493 0.05700
C 	C 	0.73452 0.70993 0.93905 0.05100
C 	C 	0.74265 0.70283 0.92194 -0.12200
H 	H 	0.71397 0.66363 0.91643 0.07000
C 	C 	0.79197 0.75263 0.91325 0.04800
H 	H 	0.79827 0.74583 0.90203 0.02300
C 	C 	0.83307 0.81273 0.92036 -0.11600
C 	C 	0.82607 0.82343 0.93790 0.03000
H 	H 	0.85487 0.86313 0.94313 0.03500
C 	C 	0.77427 0.77203 0.94684 -0.10600
H 	H 	0.76597 0.77863 0.95793 0.06700
C 	C 	0.88617 0.86783 0.91085 0.34200
O 	O 	0.46498 0.70506 0.02819 -0.49200
O 	O 	0.39013 0.59753 0.02641 -0.52300
O 	O 	0.92467 0.92287 0.91848 -0.47500
O 	O 	0.88566 0.85880 0.89452 -0.49900
Zn	Zn	0.41749 0.73772 0.04243 1.20800
C 	C 	0.10781 0.98020 0.35524 0.42700
C 	C 	0.14942 0.97189 0.34256 -0.17200
C 	C 	0.13141 0.91245 0.33550 0.10000
H 	H 	0.09203 0.87627 0.33907 0.01000
C 	C 	0.16809 0.90233 0.32332 -0.17300
H 	H 	0.15203 0.86097 0.31847 0.09000
C 	C 	0.22821 0.95383 0.31841 0.11700
C 	C 	0.24997 0.01206 0.32635 -0.19100
H 	H 	0.29213 0.04657 0.32417 0.09200
C 	C 	0.21053 0.02121 0.33773 0.09000
H 	H 	0.22623 0.06287 0.34237 0.01000
C 	C 	0.26807 0.94292 0.30556 -0.01400
C 	C 	0.26029 0.88114 0.30257 -0.05500
H 	H 	0.23123 0.84547 0.30917 0.05200
C 	C 	0.29588 0.87241 0.28978 -0.01800
H 	H 	0.29043 0.83077 0.28807 0.04500
C 	C 	0.33888 0.92348 0.27962 -0.06600
H 	H 	0.35943 0.91537 0.27067 0.05400
C 	C 	0.35168 0.98708 0.28273 0.01200
C 	C 	0.31607 0.99596 0.29587 -0.04600
H 	H 	0.32453 0.03837 0.29827 0.03700
C 	C 	0.40118 0.04327 0.27239 0.05900
C 	C 	0.40931 0.03617 0.25528 -0.15900
H 	H 	0.38063 0.99697 0.24977 0.09100
C 	C 	0.45863 0.08597 0.24659 0.07100
H 	H 	0.46493 0.07917 0.23537 0.01300
C 	C 	0.49973 0.14607 0.25370 -0.12800
C 	C 	0.49273 0.15677 0.27124 0.03900
H 	H 	0.52153 0.19647 0.27647 0.03000
C 	C 	0.44093 0.10537 0.28018 -0.11600
H 	H 	0.43263 0.11197 0.29127 0.06800
C 	C 	0.55283 0.20117 0.24419 0.34700
O 	O 	0.13164 0.03840 0.36153 -0.50100
O 	O 	0.05679 0.93087 0.35975 -0.52200
O 	O 	0.59133 0.25621 0.25182 -0.48000
O 	O 	0.55232 0.19214 0.22786 -0.50100
Zn	Zn	0.08416 0.07105 0.37576 1.20800
C 	C 	0.53905 0.22552 0.68857 0.41500
C 	C 	0.48913 0.18391 0.67589 -0.17600
C 	C 	0.44770 0.20192 0.66883 0.09100
H 	H 	0.45090 0.24130 0.67240 0.01100
C 	C 	0.40090 0.16524 0.65665 -0.16000
H 	H 	0.37560 0.18130 0.65180 0.08500
C 	C 	0.39228 0.10512 0.65174 0.09000
C 	C 	0.42875 0.08336 0.65968 -0.16600
H 	H 	0.42110 0.04120 0.65750 0.08400
C 	C 	0.47734 0.12280 0.67106 0.09200
H 	H 	0.50330 0.10710 0.67570 0.01000
C 	C 	0.34151 0.06526 0.63889 0.00300
C 	C 	0.28751 0.07304 0.63590 -0.06100
H 	H 	0.28090 0.10210 0.64250 0.05400
C 	C 	0.24319 0.03745 0.62311 -0.02900
H 	H 	0.20700 0.04290 0.62140 0.04600
C 	C 	0.25126 0.99445 0.61295 -0.05600
H 	H 	0.22260 0.97390 0.60400 0.05200
C 	C 	0.30206 0.98165 0.61606 0.02500
C 	C 	0.34655 0.01726 0.62920 -0.09100
H 	H 	0.38050 0.00880 0.63160 0.05600
C 	C 	0.30875 0.93215 0.60572 0.05200
C 	C 	0.29352 0.92402 0.58861 -0.12200
H 	H 	0.28300 0.95270 0.58310 0.07200
C 	C 	0.29400 0.87470 0.57992 0.05000
H 	H 	0.28090 0.86840 0.56870 0.02400
C 	C 	0.31300 0.83360 0.58703 -0.11600
C 	C 	0.33070 0.84060 0.60457 0.03100
H 	H 	0.34160 0.81180 0.60980 0.03500
C 	C 	0.33110 0.89240 0.61351 -0.10600
H 	H 	0.34600 0.90070 0.62460 0.07000
C 	C 	0.31500 0.78050 0.57752 0.34300
O 	O 	0.57342 0.20169 0.69486 -0.49200
O 	O 	0.54074 0.27654 0.69308 -0.52300
O 	O 	0.33154 0.74200 0.58515 -0.47800
O 	O 	0.30648 0.78101 0.56119 -0.50000
Zn	Zn	0.65356 0.24918 0.70909 1.20800
C 	C 	0.20572 0.55885 0.02190 0.41500
C 	C 	0.15580 0.51724 0.00922 -0.17500
C 	C 	0.11437 0.53525 0.00216 0.09100
H 	H 	0.11757 0.57463 0.00573 0.01200
C 	C 	0.06757 0.49857 0.98998 -0.15900
H 	H 	0.04227 0.51463 0.98513 0.08600
C 	C 	0.05895 0.43845 0.98507 0.08900
C 	C 	0.09542 0.41669 0.99301 -0.16600
H 	H 	0.08777 0.37453 0.99083 0.08600
C 	C 	0.14401 0.45613 0.00439 0.09100
H 	H 	0.16997 0.44043 0.00903 0.01100
C 	C 	0.00818 0.39859 0.97222 0.01000
C 	C 	0.95418 0.40637 0.96923 -0.07600
H 	H 	0.94757 0.43543 0.97583 0.05900
C 	C 	0.90986 0.37078 0.95644 -0.00500
H 	H 	0.87367 0.37623 0.95473 0.04000
C 	C 	0.91793 0.32778 0.94628 -0.07500
H 	H 	0.88927 0.30723 0.93733 0.05500
C 	C 	0.96873 0.31498 0.94939 0.01200
C 	C 	0.01322 0.35059 0.96253 -0.07400
H 	H 	0.04717 0.34213 0.96493 0.05500
C 	C 	0.97542 0.26548 0.93905 0.05400
C 	C 	0.96019 0.25735 0.92194 -0.12500
H 	H 	0.94967 0.28603 0.91643 0.07100
C 	C 	0.96067 0.20803 0.91325 0.04900
H 	H 	0.94757 0.20173 0.90203 0.02200
C 	C 	0.97967 0.16693 0.92036 -0.11700
C 	C 	0.99737 0.17393 0.93790 0.02600
H 	H 	0.00827 0.14513 0.94313 0.03800
C 	C 	0.99777 0.22573 0.94684 -0.11500
H 	H 	0.01267 0.23403 0.95793 0.07200
C 	C 	0.98167 0.11383 0.91085 0.34200
O 	O 	0.24009 0.53502 0.02819 -0.49200
O 	O 	0.20741 0.60987 0.02641 -0.52300
O 	O 	0.99821 0.07533 0.91848 -0.48300
O 	O 	0.97315 0.11434 0.89452 -0.50100
Zn	Zn	0.32023 0.58251 0.04243 1.20800
C 	C 	0.87238 0.89219 0.35524 0.41400
C 	C 	0.82246 0.85058 0.34256 -0.17400
C 	C 	0.78103 0.86859 0.33550 0.09100
H 	H 	0.78423 0.90797 0.33907 0.01300
C 	C 	0.73423 0.83191 0.32332 -0.15900
H 	H 	0.70893 0.84797 0.31847 0.08500
C 	C 	0.72561 0.77179 0.31841 0.09000
C 	C 	0.76208 0.75003 0.32635 -0.16600
H 	H 	0.75443 0.70787 0.32417 0.08500
C 	C 	0.81067 0.78947 0.33773 0.09100
H 	H 	0.83663 0.77377 0.34237 0.01100
C 	C 	0.67484 0.73193 0.30556 0.00600
C 	C 	0.62084 0.73971 0.30257 -0.07000
H 	H 	0.61423 0.76877 0.30917 0.05800
C 	C 	0.57652 0.70412 0.28978 -0.00600
H 	H 	0.54033 0.70957 0.28807 0.04100
C 	C 	0.58459 0.66112 0.27962 -0.07700
H 	H 	0.55593 0.64057 0.27067 0.05700
C 	C 	0.63539 0.64832 0.28273 0.02000
C 	C 	0.67988 0.68393 0.29587 -0.08000
H 	H 	0.71383 0.67547 0.29827 0.05600
C 	C 	0.64208 0.59882 0.27239 0.05100
C 	C 	0.62685 0.59069 0.25528 -0.12300
H 	H 	0.61633 0.61937 0.24977 0.07100
C 	C 	0.62733 0.54137 0.24659 0.04900
H 	H 	0.61423 0.53507 0.23537 0.02300
C 	C 	0.64633 0.50027 0.25370 -0.11700
C 	C 	0.66403 0.50727 0.27124 0.03100
H 	H 	0.67493 0.47847 0.27647 0.03400
C 	C 	0.66443 0.55907 0.28018 -0.10700
H 	H 	0.67933 0.56737 0.29127 0.06700
C 	C 	0.64833 0.44717 0.24419 0.34300
O 	O 	0.90675 0.86836 0.36153 -0.49100
O 	O 	0.87407 0.94321 0.35975 -0.51800
O 	O 	0.66487 0.40867 0.25182 -0.47900
O 	O 	0.63981 0.44768 0.22786 -0.50000
Zn	Zn	0.98690 0.91584 0.37576 1.20800
O 	O 	0.66667 0.33333 0.21723 -0.96100
Zn	Zn	0.66667 0.33333 0.24189 1.20600
O 	O 	0.33333 0.66667 0.55056 -0.96100
Zn	Zn	0.33333 0.66667 0.57522 1.20600
O 	O 	-0.00000 0.00000 0.88390 -0.96200
Zn	Zn	-0.00000 0.00000 0.90855 1.20600
O 	O 	0.66667 0.33333 0.71723 -0.96100
Zn	Zn	0.66667 0.33333 0.74189 1.20600
O 	O 	0.33333 0.66667 0.05056 -0.96100
Zn	Zn	0.33333 0.66667 0.07522 1.20600
O 	O 	-0.00000 0.00000 0.38390 -0.96200
Zn	Zn	0.00000 0.00000 0.40855 1.20600
