data_crystal

_cell_length_a 14.40220
_cell_length_b 25.92000
_cell_length_c 17.43950
_cell_angle_alpha 90.00000
_cell_angle_beta  107.38400
_cell_angle_gamma 90.00000

_symmetry_space_group_name_	'P 1'
_symmetry_space_group_name_H-M	'P 1'

loop_
_symmetry_equiv_pos_as_xyz
  x,y,z

loop_
_atom_site_label
_atom_site_type_symbol
_atom_site_fract_x
_atom_site_fract_y
_atom_site_fract_z
_atom_site_charge
Zn	Zn	0.83466 0.00072 0.12570 1.22000
Zn	Zn	0.89769 0.06598 0.31073 1.22200
Zn	Zn	0.04064 0.31969 0.77347 1.19300
O 	O 	0.93790 0.07070 0.42700 -0.43900
O 	O 	0.04640 0.24519 0.75700 -0.46000
O 	O 	0.76240 0.43510 0.48380 -0.34300
O 	O 	0.92320 0.35840 0.74410 -0.50800
O 	O 	0.51270 0.41710 0.77930 -0.48000
C 	C 	0.94420 0.11760 0.44990 0.33800
C 	C 	0.97910 0.17540 0.56850 0.04800
H 	H 	0.95360 0.20260 0.53370 0.04300
O 	O 	0.97250 0.27290 0.63340 -0.33500
O 	O 	0.91940 0.15410 0.40270 -0.32000
O 	O 	0.43630 0.44500 0.65690 -0.51100
C 	C 	0.60550 0.43790 0.61090 0.08100
H 	H 	0.55340 0.45620 0.57760 0.03500
C 	C 	0.59950 0.41830 0.68360 -0.15600
O 	O 	0.63720 0.48420 0.47440 -0.44200
C 	C 	0.01030 0.23770 0.68110 0.32800
C 	C 	0.02080 0.08590 0.59000 0.07300
H 	H 	0.02190 0.05270 0.57000 0.03800
C 	C 	0.98240 0.12560 0.53770 -0.11900
C 	C 	0.05360 0.14400 0.70390 0.06400
H 	H 	0.07670 0.14970 0.75890 0.04000
C 	C 	0.76420 0.40330 0.63850 0.08100
H 	H 	0.81950 0.39740 0.62270 0.02900
C 	C 	0.01390 0.18430 0.65110 -0.11100
C 	C 	0.05780 0.09450 0.67190 -0.14500
C 	C 	0.67820 0.39160 0.73340 0.09100
H 	H 	0.67420 0.37830 0.78180 0.03100
C 	C 	0.68850 0.43030 0.58810 -0.13300
C 	C 	0.51030 0.42760 0.70880 0.41900
C 	C 	0.76130 0.38460 0.71220 -0.14800
O 	O 	0.83950 0.32890 0.81950 -0.32700
C 	C 	0.69710 0.45070 0.50940 0.36000
C 	C 	0.84760 0.35410 0.76540 0.41700
N 	N 	0.76790 0.09050 0.24690 -0.29600
N 	N 	0.71400 0.03930 0.12440 -0.29700
N 	N 	0.63130 0.13860 0.22910 -0.25600
N 	N 	0.46340 0.12610 0.07080 -0.33500
H 	H 	0.41830 0.11920 0.02710 0.18800
H 	H 	0.45640 0.15140 0.10060 0.17400
C 	C 	0.62010 0.10570 0.16410 -0.04600
C 	C 	0.70380 0.07590 0.17540 0.12100
N 	N 	0.55090 0.05910 0.04360 -0.14900
C 	C 	0.63310 0.03320 0.06110 0.09700
H 	H 	0.63610 0.00730 0.02510 -0.00300
C 	C 	0.72020 0.12720 0.27630 0.07300
H 	H 	0.74760 0.14310 0.32570 -0.03800
C 	C 	0.54270 0.09820 0.09190 0.17100
C 	C 	0.09950 0.05020 0.72700 0.43200
O 	O 	0.11770 0.05660 0.80110 -0.48800
O 	O 	0.11580 0.01000 0.69510 -0.51800
Zn	Zn	0.66534 0.50072 0.37430 1.22000
Zn	Zn	0.60231 0.56598 0.18927 1.22100
Zn	Zn	0.45936 0.81969 0.72653 1.19100
O 	O 	0.56210 0.57070 0.07300 -0.43900
O 	O 	0.45360 0.74519 0.74300 -0.46100
O 	O 	0.73760 0.93510 0.01620 -0.33800
O 	O 	0.57680 0.85840 0.75590 -0.50900
O 	O 	0.98730 0.91710 0.72070 -0.48100
C 	C 	0.55580 0.61760 0.05010 0.33900
C 	C 	0.52090 0.67540 0.93150 0.04900
H 	H 	0.54640 0.70260 0.96630 0.04300
O 	O 	0.52750 0.77290 0.86660 -0.33500
O 	O 	0.58060 0.65410 0.09730 -0.31900
O 	O 	0.06370 0.94500 0.84310 -0.51500
C 	C 	0.89450 0.93790 0.88910 0.07900
H 	H 	0.94660 0.95620 0.92240 0.03600
C 	C 	0.90050 0.91830 0.81640 -0.15600
O 	O 	0.86280 0.98420 0.02560 -0.43600
C 	C 	0.48970 0.73770 0.81890 0.32800
C 	C 	0.47920 0.58590 0.91000 0.07100
H 	H 	0.47810 0.55270 0.93000 0.03700
C 	C 	0.51760 0.62560 0.96230 -0.11900
C 	C 	0.44640 0.64400 0.79610 0.06500
H 	H 	0.42330 0.64970 0.74110 0.04000
C 	C 	0.73580 0.90330 0.86150 0.07900
H 	H 	0.68050 0.89740 0.87730 0.02900
C 	C 	0.48610 0.68430 0.84890 -0.11200
C 	C 	0.44220 0.59450 0.82810 -0.14600
C 	C 	0.82180 0.89160 0.76660 0.09100
H 	H 	0.82580 0.87830 0.71820 0.03100
C 	C 	0.81150 0.93030 0.91190 -0.13000
C 	C 	0.98970 0.92760 0.79120 0.42200
C 	C 	0.73870 0.88460 0.78780 -0.14800
O 	O 	0.66050 0.82890 0.68050 -0.32700
C 	C 	0.80290 0.95070 0.99060 0.35100
C 	C 	0.65240 0.85410 0.73460 0.41700
N 	N 	0.73210 0.59050 0.25310 -0.29600
N 	N 	0.78600 0.53930 0.37560 -0.29700
N 	N 	0.86870 0.63860 0.27090 -0.25600
N 	N 	0.03660 0.62610 0.42920 -0.33600
H 	H 	0.08170 0.61920 0.47290 0.18800
H 	H 	0.04360 0.65140 0.39940 0.17500
C 	C 	0.87990 0.60570 0.33590 -0.04600
C 	C 	0.79620 0.57590 0.32460 0.12200
N 	N 	0.94910 0.55910 0.45640 -0.14800
C 	C 	0.86690 0.53320 0.43890 0.09800
H 	H 	0.86390 0.50730 0.47490 -0.00200
C 	C 	0.77980 0.62720 0.22370 0.07300
H 	H 	0.75240 0.64310 0.17430 -0.03800
C 	C 	0.95730 0.59820 0.40810 0.17200
C 	C 	0.40050 0.55020 0.77300 0.43200
O 	O 	0.38230 0.55660 0.69890 -0.48900
O 	O 	0.38420 0.51000 0.80490 -0.52000
Zn	Zn	0.16534 0.99928 0.87430 1.21900
Zn	Zn	0.10231 0.93402 0.68927 1.22100
Zn	Zn	0.95936 0.68031 0.22653 1.19200
O 	O 	0.06210 0.92930 0.57300 -0.44000
O 	O 	0.95360 0.75481 0.24300 -0.46100
O 	O 	0.23760 0.56490 0.51620 -0.34400
O 	O 	0.07680 0.64160 0.25590 -0.50900
O 	O 	0.48730 0.58290 0.22070 -0.48100
C 	C 	0.05580 0.88240 0.55010 0.33800
C 	C 	0.02090 0.82460 0.43150 0.04800
H 	H 	0.04640 0.79740 0.46630 0.04300
O 	O 	0.02750 0.72710 0.36660 -0.33500
O 	O 	0.08060 0.84590 0.59730 -0.32000
O 	O 	0.56370 0.55500 0.34310 -0.51100
C 	C 	0.39450 0.56210 0.38910 0.08100
H 	H 	0.44660 0.54380 0.42240 0.03500
C 	C 	0.40050 0.58170 0.31640 -0.15600
O 	O 	0.36280 0.51580 0.52560 -0.44200
C 	C 	0.98970 0.76230 0.31890 0.32800
C 	C 	0.97920 0.91410 0.41000 0.07300
H 	H 	0.97810 0.94730 0.43000 0.03800
C 	C 	0.01760 0.87440 0.46230 -0.11900
C 	C 	0.94640 0.85600 0.29610 0.06400
H 	H 	0.92330 0.85030 0.24110 0.04000
C 	C 	0.23580 0.59670 0.36150 0.08100
H 	H 	0.18050 0.60260 0.37730 0.02900
C 	C 	0.98610 0.81570 0.34890 -0.11100
C 	C 	0.94220 0.90550 0.32810 -0.14500
C 	C 	0.32180 0.60840 0.26660 0.09100
H 	H 	0.32580 0.62170 0.21820 0.03100
C 	C 	0.31150 0.56970 0.41190 -0.13300
C 	C 	0.48970 0.57240 0.29120 0.41900
C 	C 	0.23870 0.61540 0.28780 -0.14800
O 	O 	0.16050 0.67110 0.18050 -0.32700
C 	C 	0.30290 0.54930 0.49060 0.36000
C 	C 	0.15240 0.64590 0.23460 0.41700
N 	N 	0.23210 0.90950 0.75310 -0.29600
N 	N 	0.28600 0.96070 0.87560 -0.29700
N 	N 	0.36870 0.86140 0.77090 -0.25600
N 	N 	0.53660 0.87390 0.92920 -0.33500
H 	H 	0.58170 0.88080 0.97290 0.18800
H 	H 	0.54360 0.84860 0.89940 0.17400
C 	C 	0.37990 0.89430 0.83590 -0.04600
C 	C 	0.29620 0.92410 0.82460 0.12100
N 	N 	0.44910 0.94090 0.95640 -0.14900
C 	C 	0.36690 0.96680 0.93890 0.09700
H 	H 	0.36390 0.99270 0.97490 -0.00300
C 	C 	0.27980 0.87280 0.72370 0.07300
H 	H 	0.25240 0.85690 0.67430 -0.03800
C 	C 	0.45730 0.90180 0.90810 0.17100
C 	C 	0.90050 0.94980 0.27300 0.43200
O 	O 	0.88230 0.94340 0.19890 -0.48800
O 	O 	0.88420 0.99000 0.30490 -0.51800
Zn	Zn	0.33466 0.49928 0.62570 1.22000
Zn	Zn	0.39769 0.43402 0.81073 1.22100
Zn	Zn	0.54064 0.18031 0.27347 1.19100
O 	O 	0.43790 0.42930 0.92700 -0.43900
O 	O 	0.54640 0.25481 0.25700 -0.46100
O 	O 	0.26240 0.06490 0.98380 -0.33800
O 	O 	0.42320 0.14160 0.24410 -0.50900
O 	O 	0.01270 0.08290 0.27930 -0.48100
C 	C 	0.44420 0.38240 0.94990 0.33900
C 	C 	0.47910 0.32460 0.06850 0.04900
H 	H 	0.45360 0.29740 0.03370 0.04300
O 	O 	0.47250 0.22710 0.13340 -0.33500
O 	O 	0.41940 0.34590 0.90270 -0.31900
O 	O 	0.93630 0.05500 0.15690 -0.51500
C 	C 	0.10550 0.06210 0.11090 0.07900
H 	H 	0.05340 0.04380 0.07760 0.03600
C 	C 	0.09950 0.08170 0.18360 -0.15600
O 	O 	0.13720 0.01580 0.97440 -0.43600
C 	C 	0.51030 0.26230 0.18110 0.32800
C 	C 	0.52080 0.41410 0.09000 0.07100
H 	H 	0.52190 0.44730 0.07000 0.03700
C 	C 	0.48240 0.37440 0.03770 -0.11900
C 	C 	0.55360 0.35600 0.20390 0.06500
H 	H 	0.57670 0.35030 0.25890 0.04000
C 	C 	0.26420 0.09670 0.13850 0.07900
H 	H 	0.31950 0.10260 0.12270 0.02900
C 	C 	0.51390 0.31570 0.15110 -0.11200
C 	C 	0.55780 0.40550 0.17190 -0.14600
C 	C 	0.17820 0.10840 0.23340 0.09100
H 	H 	0.17420 0.12170 0.28180 0.03100
C 	C 	0.18850 0.06970 0.08810 -0.13000
C 	C 	0.01030 0.07240 0.20880 0.42200
C 	C 	0.26130 0.11540 0.21220 -0.14800
O 	O 	0.33950 0.17110 0.31950 -0.32700
C 	C 	0.19710 0.04930 0.00940 0.35100
C 	C 	0.34760 0.14590 0.26540 0.41700
N 	N 	0.26790 0.40950 0.74690 -0.29600
N 	N 	0.21400 0.46070 0.62440 -0.29700
N 	N 	0.13130 0.36140 0.72910 -0.25600
N 	N 	0.96340 0.37390 0.57080 -0.33600
H 	H 	0.91830 0.38080 0.52710 0.18800
H 	H 	0.95640 0.34860 0.60060 0.17500
C 	C 	0.12010 0.39430 0.66410 -0.04600
C 	C 	0.20380 0.42410 0.67540 0.12200
N 	N 	0.05090 0.44090 0.54360 -0.14800
C 	C 	0.13310 0.46680 0.56110 0.09800
H 	H 	0.13610 0.49270 0.52510 -0.00200
C 	C 	0.22020 0.37280 0.77630 0.07300
H 	H 	0.24760 0.35690 0.82570 -0.03800
C 	C 	0.04270 0.40180 0.59190 0.17200
C 	C 	0.59950 0.44980 0.22700 0.43200
O 	O 	0.61770 0.44340 0.30110 -0.48900
O 	O 	0.61580 0.49000 0.19510 -0.52000
