data_crystal

_cell_length_a 20.54200
_cell_length_b 28.48800
_cell_length_c 20.51900
_cell_angle_alpha 90.00000
_cell_angle_beta  99.77600
_cell_angle_gamma 90.00000

_symmetry_space_group_name_	'P 1'
_symmetry_space_group_name_H-M	'P 1'

loop_
_symmetry_equiv_pos_as_xyz
  x,y,z

loop_
_atom_site_label
_atom_site_type_symbol
_atom_site_fract_x
_atom_site_fract_y
_atom_site_fract_z
_atom_site_charge
Cd	Cd	0.69783 0.88190 0.41284 1.21700
Cd	Cd	0.81652 0.91770 0.65610 1.22000
N 	N 	0.76550 0.82830 0.37030 -0.23100
N 	N 	0.63370 0.82090 0.36430 -0.18300
N 	N 	0.66210 0.92720 0.31440 -0.22500
N 	N 	0.76240 0.94910 0.41350 -0.17600
N 	N 	0.74100 0.97460 0.60990 -0.18000
N 	N 	0.84150 0.99060 0.71170 -0.22500
C 	C 	0.83030 0.83270 0.37460 0.08100
H 	H 	0.85060 0.85960 0.39420 -0.01100
C 	C 	0.86880 0.79930 0.35110 -0.13600
H 	H 	0.91420 0.80340 0.35440 0.07400
C 	C 	0.83730 0.75860 0.32190 0.05500
H 	H 	0.86210 0.73490 0.30700 0.01100
C 	C 	0.77160 0.75420 0.31560 -0.12300
H 	H 	0.75030 0.72820 0.29460 0.08400
C 	C 	0.73540 0.78910 0.34100 0.05500
C 	C 	0.66400 0.78630 0.33810 0.05500
C 	C 	0.61720 0.75220 0.31250 -0.12200
H 	H 	0.62510 0.72450 0.29120 0.08400
C 	C 	0.55730 0.76790 0.32510 0.08400
H 	H 	0.51660 0.75300 0.31470 0.00200
N 	N 	0.57050 0.80980 0.35590 -0.16500
H 	H 	0.54080 0.82730 0.36850 0.13300
C 	C 	0.61290 0.91660 0.26620 0.09600
H 	H 	0.59300 0.88740 0.26760 -0.00500
C 	C 	0.58910 0.94550 0.21430 -0.16300
H 	H 	0.55310 0.93680 0.18270 0.10500
C 	C 	0.61970 0.98730 0.21040 0.07200
H 	H 	0.60620 0.00720 0.17480 0.01000
C 	C 	0.67070 0.00010 0.25910 -0.13600
H 	H 	0.69110 0.02920 0.25780 0.07200
C 	C 	0.69110 0.96940 0.30980 0.05900
C 	C 	0.74580 0.98080 0.36470 0.05800
C 	C 	0.78480 0.02010 0.37580 -0.14400
H 	H 	0.78320 0.04700 0.34990 0.08000
C 	C 	0.82580 0.01100 0.43270 0.11200
H 	H 	0.85880 0.03100 0.45310 -0.00000
N 	N 	0.81230 0.96940 0.45530 -0.17700
H 	H 	0.83230 0.95710 0.49150 0.14600
C 	C 	0.76860 0.84410 0.55650 0.37100
C 	C 	0.75900 0.79530 0.52720 -0.15300
C 	C 	0.69490 0.77590 0.51530 0.03700
C 	C 	0.63830 0.79980 0.53040 -0.09400
H 	H 	0.64320 0.82960 0.54930 0.05800
C 	C 	0.57660 0.77950 0.51740 -0.02200
H 	H 	0.54030 0.79570 0.52750 0.03500
C 	C 	0.56810 0.73580 0.48970 -0.02200
H 	H 	0.52600 0.72270 0.48120 0.03300
C 	C 	0.62060 0.71110 0.47440 -0.08700
H 	H 	0.61340 0.68140 0.45550 0.06400
C 	C 	0.81420 0.77050 0.51350 0.05900
C 	C 	0.55940 0.92050 0.44240 0.34500
C 	C 	0.52750 0.96180 0.47220 -0.11500
C 	C 	0.52210 0.00460 0.43910 0.03800
C 	C 	0.54610 0.01190 0.37730 -0.07400
H 	H 	0.56430 0.98680 0.35770 0.06100
C 	C 	0.54240 0.05470 0.34750 -0.03600
H 	H 	0.55830 0.05890 0.30810 0.04300
C 	C 	0.51430 0.09240 0.37710 -0.01800
H 	H 	0.51140 0.12160 0.35650 0.03000
C 	C 	0.49140 0.08750 0.43450 -0.09000
H 	H 	0.47320 0.11340 0.45260 0.06600
C 	C 	0.50560 0.95560 0.53250 0.05200
C 	C 	0.93740 0.94930 0.59660 0.31200
C 	C 	0.97020 0.97470 0.54640 -0.10600
C 	C 	0.97340 0.02480 0.54930 0.03700
C 	C 	0.94570 0.05170 0.59660 -0.08000
H 	H 	0.92480 0.03610 0.62710 0.06600
C 	C 	0.94890 0.09920 0.59830 -0.03100
H 	H 	0.93030 0.11590 0.62950 0.03800
C 	C 	0.98050 0.12280 0.55280 -0.02500
H 	H 	0.98450 0.15530 0.55550 0.03200
C 	C 	0.00540 0.09990 0.50510 -0.08200
H 	H 	0.02380 0.11710 0.47420 0.06300
C 	C 	0.99580 0.95050 0.49910 0.04700
N 	N 	0.69140 0.97790 0.55750 -0.17700
H 	H 	0.67380 0.95430 0.53480 0.13600
C 	C 	0.67380 0.02130 0.54580 0.11700
H 	H 	0.64040 0.03150 0.51240 -0.00200
C 	C 	0.71150 0.04930 0.58980 -0.14700
H 	H 	0.70990 0.08180 0.59290 0.08300
C 	C 	0.75310 0.01880 0.62930 0.06000
C 	C 	0.80690 0.02750 0.68680 0.06000
C 	C 	0.81970 0.07260 0.70910 -0.13000
H 	H 	0.79480 0.09780 0.68980 0.07300
C 	C 	0.87000 0.07900 0.76050 0.05000
H 	H 	0.88090 0.10910 0.77630 0.00900
C 	C 	0.90590 0.04020 0.78990 -0.13400
H 	H 	0.93900 0.04360 0.82660 0.08700
C 	C 	0.88980 0.99700 0.76200 0.08100
H 	H 	0.91410 0.97110 0.77950 0.01400
O 	O 	0.75100 0.87884 0.52040 -0.44800
O 	O 	0.79620 0.84620 0.61530 -0.42200
O 	O 	0.62130 0.91632 0.46330 -0.41500
O 	O 	0.52680 0.89480 0.40190 -0.30500
O 	O 	0.87700 0.93859 0.57790 -0.40200
O 	O 	0.96970 0.94200 0.65360 -0.28300
N 	N 	0.88360 0.87960 0.74610 -0.17100
N 	N 	0.95040 0.87100 0.76660 -0.14300
H 	H 	0.98190 0.88090 0.74750 0.09000
C 	C 	0.95730 0.84360 0.82320 0.07300
H 	H 	0.99690 0.83280 0.84720 0.00700
C 	C 	0.89480 0.83530 0.83770 -0.11600
H 	H 	0.88520 0.81790 0.87320 0.06800
C 	C 	0.84930 0.85750 0.79010 0.04400
N 	N 	0.74520 0.88650 0.72850 -0.20500
C 	C 	0.77730 0.86030 0.78160 0.03900
C 	C 	0.74100 0.83220 0.81760 -0.10300
H 	H 	0.76250 0.81470 0.85310 0.06300
C 	C 	0.67260 0.83030 0.80060 0.02100
H 	H 	0.64830 0.81150 0.82480 0.01700
C 	C 	0.64050 0.85650 0.74760 -0.10500
H 	H 	0.59470 0.85520 0.73620 0.06100
C 	C 	0.67680 0.88460 0.71150 0.04100
H 	H 	0.65530 0.90210 0.67600 0.00400
Cd	Cd	0.19783 0.38190 0.41284 1.21600
Cd	Cd	0.31652 0.41770 0.65610 1.21900
N 	N 	0.26550 0.32830 0.37030 -0.23200
N 	N 	0.13370 0.32090 0.36430 -0.18400
N 	N 	0.16210 0.42720 0.31440 -0.22700
N 	N 	0.26240 0.44910 0.41350 -0.17700
N 	N 	0.24100 0.47460 0.60990 -0.18000
N 	N 	0.34150 0.49060 0.71170 -0.22500
C 	C 	0.33030 0.33270 0.37460 0.08100
H 	H 	0.35060 0.35960 0.39420 -0.01100
C 	C 	0.36880 0.29930 0.35110 -0.13600
H 	H 	0.41420 0.30340 0.35440 0.07400
C 	C 	0.33730 0.25860 0.32190 0.05500
H 	H 	0.36210 0.23490 0.30700 0.01100
C 	C 	0.27160 0.25420 0.31560 -0.12300
H 	H 	0.25030 0.22820 0.29460 0.08400
C 	C 	0.23540 0.28910 0.34100 0.05500
C 	C 	0.16400 0.28630 0.33810 0.05500
C 	C 	0.11720 0.25220 0.31250 -0.12200
H 	H 	0.12510 0.22450 0.29120 0.08400
C 	C 	0.05730 0.26790 0.32510 0.08400
H 	H 	0.01660 0.25300 0.31470 0.00200
N 	N 	0.07050 0.30980 0.35590 -0.16500
H 	H 	0.04080 0.32730 0.36850 0.13300
C 	C 	0.11290 0.41660 0.26620 0.09700
H 	H 	0.09300 0.38740 0.26760 -0.00500
C 	C 	0.08910 0.44550 0.21430 -0.16500
H 	H 	0.05310 0.43680 0.18270 0.10600
C 	C 	0.11970 0.48730 0.21040 0.07500
H 	H 	0.10620 0.50720 0.17480 0.00900
C 	C 	0.17070 0.50010 0.25910 -0.13800
H 	H 	0.19110 0.52920 0.25780 0.07300
C 	C 	0.19110 0.46940 0.30980 0.06000
C 	C 	0.24580 0.48080 0.36470 0.05800
C 	C 	0.28480 0.52010 0.37580 -0.14400
H 	H 	0.28320 0.54700 0.34990 0.08000
C 	C 	0.32580 0.51100 0.43270 0.11200
H 	H 	0.35880 0.53100 0.45310 -0.00000
N 	N 	0.31230 0.46940 0.45530 -0.17700
H 	H 	0.33230 0.45710 0.49150 0.14600
C 	C 	0.26860 0.34410 0.55650 0.37100
C 	C 	0.25900 0.29530 0.52720 -0.15300
C 	C 	0.19490 0.27590 0.51530 0.03700
C 	C 	0.13830 0.29980 0.53040 -0.09400
H 	H 	0.14320 0.32960 0.54930 0.05800
C 	C 	0.07660 0.27950 0.51740 -0.02200
H 	H 	0.04030 0.29570 0.52750 0.03500
C 	C 	0.06810 0.23580 0.48970 -0.02200
H 	H 	0.02600 0.22270 0.48120 0.03300
C 	C 	0.12060 0.21110 0.47440 -0.08700
H 	H 	0.11340 0.18140 0.45550 0.06400
C 	C 	0.31420 0.27050 0.51350 0.05900
C 	C 	0.05940 0.42050 0.44240 0.34500
C 	C 	0.02750 0.46180 0.47220 -0.11500
C 	C 	0.02210 0.50460 0.43910 0.03900
C 	C 	0.04610 0.51190 0.37730 -0.07500
H 	H 	0.06430 0.48680 0.35770 0.06100
C 	C 	0.04240 0.55470 0.34750 -0.03600
H 	H 	0.05830 0.55890 0.30810 0.04200
C 	C 	0.01430 0.59240 0.37710 -0.01800
H 	H 	0.01140 0.62160 0.35650 0.03000
C 	C 	0.99140 0.58750 0.43450 -0.09000
H 	H 	0.97320 0.61340 0.45260 0.06600
C 	C 	0.00560 0.45560 0.53250 0.05200
C 	C 	0.43740 0.44930 0.59660 0.31200
C 	C 	0.47020 0.47470 0.54640 -0.10600
C 	C 	0.47340 0.52480 0.54930 0.03700
C 	C 	0.44570 0.55170 0.59660 -0.08000
H 	H 	0.42480 0.53610 0.62710 0.06600
C 	C 	0.44890 0.59920 0.59830 -0.03100
H 	H 	0.43030 0.61590 0.62950 0.03800
C 	C 	0.48050 0.62280 0.55280 -0.02500
H 	H 	0.48450 0.65530 0.55550 0.03300
C 	C 	0.50540 0.59990 0.50510 -0.08200
H 	H 	0.52380 0.61710 0.47420 0.06300
C 	C 	0.49580 0.45050 0.49910 0.04700
N 	N 	0.19140 0.47790 0.55750 -0.17700
H 	H 	0.17380 0.45430 0.53480 0.13600
C 	C 	0.17380 0.52130 0.54580 0.11700
H 	H 	0.14040 0.53150 0.51240 -0.00200
C 	C 	0.21150 0.54930 0.58980 -0.14700
H 	H 	0.20990 0.58180 0.59290 0.08300
C 	C 	0.25310 0.51880 0.62930 0.06000
C 	C 	0.30690 0.52750 0.68680 0.06000
C 	C 	0.31970 0.57260 0.70910 -0.13000
H 	H 	0.29480 0.59780 0.68980 0.07300
C 	C 	0.37000 0.57900 0.76050 0.05000
H 	H 	0.38090 0.60910 0.77630 0.00900
C 	C 	0.40590 0.54020 0.78990 -0.13300
H 	H 	0.43900 0.54360 0.82660 0.08700
C 	C 	0.38980 0.49700 0.76200 0.08000
H 	H 	0.41410 0.47110 0.77950 0.01400
O 	O 	0.25100 0.37884 0.52040 -0.44800
O 	O 	0.29620 0.34620 0.61530 -0.42200
O 	O 	0.12130 0.41632 0.46330 -0.41500
O 	O 	0.02680 0.39480 0.40190 -0.30500
O 	O 	0.37700 0.43859 0.57790 -0.40200
O 	O 	0.46970 0.44200 0.65360 -0.28300
N 	N 	0.38360 0.37960 0.74610 -0.17100
N 	N 	0.45040 0.37100 0.76660 -0.14300
H 	H 	0.48190 0.38090 0.74750 0.09100
C 	C 	0.45730 0.34360 0.82320 0.07300
H 	H 	0.49690 0.33280 0.84720 0.00700
C 	C 	0.39480 0.33530 0.83770 -0.11600
H 	H 	0.38520 0.31790 0.87320 0.06800
C 	C 	0.34930 0.35750 0.79010 0.04400
N 	N 	0.24520 0.38650 0.72850 -0.20500
C 	C 	0.27730 0.36030 0.78160 0.03900
C 	C 	0.24100 0.33220 0.81760 -0.10300
H 	H 	0.26250 0.31470 0.85310 0.06300
C 	C 	0.17260 0.33030 0.80060 0.02100
H 	H 	0.14830 0.31150 0.82480 0.01700
C 	C 	0.14050 0.35650 0.74760 -0.10500
H 	H 	0.09470 0.35520 0.73620 0.06100
C 	C 	0.17680 0.38460 0.71150 0.04000
H 	H 	0.15530 0.40210 0.67600 0.00400
Cd	Cd	0.30217 0.88190 0.08716 1.21600
Cd	Cd	0.18348 0.91770 0.84390 1.21900
N 	N 	0.23450 0.82830 0.12970 -0.23200
N 	N 	0.36630 0.82090 0.13570 -0.18400
N 	N 	0.33790 0.92720 0.18560 -0.22600
N 	N 	0.23760 0.94910 0.08650 -0.17700
N 	N 	0.25900 0.97460 0.89010 -0.18000
N 	N 	0.15850 0.99060 0.78830 -0.22500
C 	C 	0.16970 0.83270 0.12540 0.08000
H 	H 	0.14940 0.85960 0.10580 -0.01200
C 	C 	0.13120 0.79930 0.14890 -0.13600
H 	H 	0.08580 0.80340 0.14560 0.07400
C 	C 	0.16270 0.75860 0.17810 0.05500
H 	H 	0.13790 0.73490 0.19300 0.01100
C 	C 	0.22840 0.75420 0.18440 -0.12300
H 	H 	0.24970 0.72820 0.20540 0.08400
C 	C 	0.26460 0.78910 0.15900 0.05500
C 	C 	0.33600 0.78630 0.16190 0.05500
C 	C 	0.38280 0.75220 0.18750 -0.12200
H 	H 	0.37490 0.72450 0.20880 0.08400
C 	C 	0.44270 0.76790 0.17490 0.08400
H 	H 	0.48340 0.75300 0.18530 0.00200
N 	N 	0.42950 0.80980 0.14410 -0.16500
H 	H 	0.45920 0.82730 0.13150 0.13300
C 	C 	0.38710 0.91660 0.23380 0.09600
H 	H 	0.40700 0.88740 0.23240 -0.00500
C 	C 	0.41090 0.94550 0.28570 -0.16300
H 	H 	0.44690 0.93680 0.31730 0.10500
C 	C 	0.38030 0.98730 0.28960 0.07300
H 	H 	0.39380 0.00720 0.32520 0.01000
C 	C 	0.32930 0.00010 0.24090 -0.13600
H 	H 	0.30890 0.02920 0.24220 0.07200
C 	C 	0.30890 0.96940 0.19020 0.06000
C 	C 	0.25420 0.98080 0.13530 0.05800
C 	C 	0.21520 0.02010 0.12420 -0.14400
H 	H 	0.21680 0.04700 0.15010 0.08000
C 	C 	0.17420 0.01100 0.06730 0.11300
H 	H 	0.14120 0.03100 0.04690 -0.00000
N 	N 	0.18770 0.96940 0.04470 -0.17700
H 	H 	0.16770 0.95710 0.00850 0.14500
C 	C 	0.23140 0.84410 0.94350 0.37200
C 	C 	0.24100 0.79530 0.97280 -0.15400
C 	C 	0.30510 0.77590 0.98470 0.03800
C 	C 	0.36170 0.79980 0.96960 -0.09500
H 	H 	0.35680 0.82960 0.95070 0.05900
C 	C 	0.42340 0.77950 0.98260 -0.02000
H 	H 	0.45970 0.79570 0.97250 0.03400
C 	C 	0.43190 0.73580 0.01030 -0.02400
H 	H 	0.47400 0.72270 0.01880 0.03400
C 	C 	0.37940 0.71110 0.02560 -0.08500
H 	H 	0.38660 0.68140 0.04450 0.06400
C 	C 	0.18580 0.77050 0.98650 0.06000
C 	C 	0.44060 0.92050 0.05760 0.34500
C 	C 	0.47250 0.96180 0.02780 -0.11600
C 	C 	0.47790 0.00460 0.06090 0.03900
C 	C 	0.45390 0.01190 0.12270 -0.07400
H 	H 	0.43570 0.98680 0.14230 0.06100
C 	C 	0.45760 0.05470 0.15250 -0.03700
H 	H 	0.44170 0.05890 0.19190 0.04300
C 	C 	0.48570 0.09240 0.12290 -0.01700
H 	H 	0.48860 0.12160 0.14350 0.03000
C 	C 	0.50860 0.08750 0.06550 -0.09100
H 	H 	0.52680 0.11340 0.04740 0.06600
C 	C 	0.49440 0.95560 0.96750 0.05300
C 	C 	0.06260 0.94930 0.90340 0.31200
C 	C 	0.02980 0.97470 0.95360 -0.10400
C 	C 	0.02660 0.02480 0.95070 0.03600
C 	C 	0.05430 0.05170 0.90340 -0.07900
H 	H 	0.07520 0.03610 0.87290 0.06500
C 	C 	0.05110 0.09920 0.90170 -0.03300
H 	H 	0.06970 0.11590 0.87050 0.03800
C 	C 	0.01950 0.12280 0.94720 -0.02300
H 	H 	0.01550 0.15530 0.94450 0.03200
C 	C 	0.99460 0.09990 0.99490 -0.08400
H 	H 	0.97620 0.11710 0.02580 0.06400
C 	C 	0.00420 0.95050 0.00090 0.04700
N 	N 	0.30860 0.97790 0.94250 -0.17700
H 	H 	0.32620 0.95430 0.96520 0.13700
C 	C 	0.32620 0.02130 0.95420 0.11600
H 	H 	0.35960 0.03150 0.98760 -0.00200
C 	C 	0.28850 0.04930 0.91020 -0.14700
H 	H 	0.29010 0.08180 0.90710 0.08300
C 	C 	0.24690 0.01880 0.87070 0.06000
C 	C 	0.19310 0.02750 0.81320 0.06000
C 	C 	0.18030 0.07260 0.79090 -0.13000
H 	H 	0.20520 0.09780 0.81020 0.07300
C 	C 	0.13000 0.07900 0.73950 0.05000
H 	H 	0.11910 0.10910 0.72370 0.00900
C 	C 	0.09410 0.04020 0.71010 -0.13400
H 	H 	0.06100 0.04360 0.67340 0.08700
C 	C 	0.11020 0.99700 0.73800 0.08100
H 	H 	0.08590 0.97110 0.72050 0.01400
O 	O 	0.24900 0.87884 0.97960 -0.44800
O 	O 	0.20380 0.84620 0.88470 -0.42200
O 	O 	0.37870 0.91632 0.03670 -0.41600
O 	O 	0.47320 0.89480 0.09810 -0.30500
O 	O 	0.12300 0.93859 0.92210 -0.40200
O 	O 	0.03030 0.94200 0.84640 -0.28300
N 	N 	0.11640 0.87960 0.75390 -0.17100
N 	N 	0.04960 0.87100 0.73340 -0.14300
H 	H 	0.01810 0.88090 0.75250 0.09100
C 	C 	0.04270 0.84360 0.67680 0.07300
H 	H 	0.00310 0.83280 0.65280 0.00700
C 	C 	0.10520 0.83530 0.66230 -0.11600
H 	H 	0.11480 0.81790 0.62680 0.06800
C 	C 	0.15070 0.85750 0.70990 0.04400
N 	N 	0.25480 0.88650 0.77150 -0.20500
C 	C 	0.22270 0.86030 0.71840 0.03900
C 	C 	0.25900 0.83220 0.68240 -0.10300
H 	H 	0.23750 0.81470 0.64690 0.06300
C 	C 	0.32740 0.83030 0.69940 0.02100
H 	H 	0.35170 0.81150 0.67520 0.01700
C 	C 	0.35950 0.85650 0.75240 -0.10500
H 	H 	0.40530 0.85520 0.76380 0.06100
C 	C 	0.32320 0.88460 0.78850 0.04100
H 	H 	0.34470 0.90210 0.82400 0.00400
Cd	Cd	0.80217 0.38190 0.08716 1.21600
Cd	Cd	0.68348 0.41770 0.84390 1.21900
N 	N 	0.73450 0.32830 0.12970 -0.23200
N 	N 	0.86630 0.32090 0.13570 -0.18400
N 	N 	0.83790 0.42720 0.18560 -0.22700
N 	N 	0.73760 0.44910 0.08650 -0.17700
N 	N 	0.75900 0.47460 0.89010 -0.18000
N 	N 	0.65850 0.49060 0.78830 -0.22500
C 	C 	0.66970 0.33270 0.12540 0.08100
H 	H 	0.64940 0.35960 0.10580 -0.01100
C 	C 	0.63120 0.29930 0.14890 -0.13600
H 	H 	0.58580 0.30340 0.14560 0.07400
C 	C 	0.66270 0.25860 0.17810 0.05500
H 	H 	0.63790 0.23490 0.19300 0.01100
C 	C 	0.72840 0.25420 0.18440 -0.12300
H 	H 	0.74970 0.22820 0.20540 0.08400
C 	C 	0.76460 0.28910 0.15900 0.05500
C 	C 	0.83600 0.28630 0.16190 0.05500
C 	C 	0.88280 0.25220 0.18750 -0.12200
H 	H 	0.87490 0.22450 0.20880 0.08400
C 	C 	0.94270 0.26790 0.17490 0.08400
H 	H 	0.98340 0.25300 0.18530 0.00200
N 	N 	0.92950 0.30980 0.14410 -0.16500
H 	H 	0.95920 0.32730 0.13150 0.13300
C 	C 	0.88710 0.41660 0.23380 0.09700
H 	H 	0.90700 0.38740 0.23240 -0.00500
C 	C 	0.91090 0.44550 0.28570 -0.16500
H 	H 	0.94690 0.43680 0.31730 0.10600
C 	C 	0.88030 0.48730 0.28960 0.07500
H 	H 	0.89380 0.50720 0.32520 0.00900
C 	C 	0.82930 0.50010 0.24090 -0.13800
H 	H 	0.80890 0.52920 0.24220 0.07300
C 	C 	0.80890 0.46940 0.19020 0.06000
C 	C 	0.75420 0.48080 0.13530 0.05800
C 	C 	0.71520 0.52010 0.12420 -0.14500
H 	H 	0.71680 0.54700 0.15010 0.08000
C 	C 	0.67420 0.51100 0.06730 0.11200
H 	H 	0.64120 0.53100 0.04690 -0.00000
N 	N 	0.68770 0.46940 0.04470 -0.17700
H 	H 	0.66770 0.45710 0.00850 0.14600
C 	C 	0.73140 0.34410 0.94350 0.37100
C 	C 	0.74100 0.29530 0.97280 -0.15200
C 	C 	0.80510 0.27590 0.98470 0.03500
C 	C 	0.86170 0.29980 0.96960 -0.09200
H 	H 	0.85680 0.32960 0.95070 0.05800
C 	C 	0.92340 0.27950 0.98260 -0.02500
H 	H 	0.95970 0.29570 0.97250 0.03600
C 	C 	0.93190 0.23580 0.01030 -0.02000
H 	H 	0.97400 0.22270 0.01880 0.03200
C 	C 	0.87940 0.21110 0.02560 -0.08800
H 	H 	0.88660 0.18140 0.04450 0.06500
C 	C 	0.68580 0.27050 0.98650 0.05700
C 	C 	0.94060 0.42050 0.05760 0.34500
C 	C 	0.97250 0.46180 0.02780 -0.11500
C 	C 	0.97790 0.50460 0.06090 0.03900
C 	C 	0.95390 0.51190 0.12270 -0.07500
H 	H 	0.93570 0.48680 0.14230 0.06100
C 	C 	0.95760 0.55470 0.15250 -0.03600
H 	H 	0.94170 0.55890 0.19190 0.04200
C 	C 	0.98570 0.59240 0.12290 -0.01800
H 	H 	0.98860 0.62160 0.14350 0.03000
C 	C 	0.00860 0.58750 0.06550 -0.09000
H 	H 	0.02680 0.61340 0.04740 0.06600
C 	C 	0.99440 0.45560 0.96750 0.05100
C 	C 	0.56260 0.44930 0.90340 0.31200
C 	C 	0.52980 0.47470 0.95360 -0.10600
C 	C 	0.52660 0.52480 0.95070 0.03700
C 	C 	0.55430 0.55170 0.90340 -0.08000
H 	H 	0.57520 0.53610 0.87290 0.06600
C 	C 	0.55110 0.59920 0.90170 -0.03100
H 	H 	0.56970 0.61590 0.87050 0.03800
C 	C 	0.51950 0.62280 0.94720 -0.02600
H 	H 	0.51550 0.65530 0.94450 0.03300
C 	C 	0.49460 0.59990 0.99490 -0.08100
H 	H 	0.47620 0.61710 0.02580 0.06200
C 	C 	0.50420 0.45050 0.00090 0.04700
N 	N 	0.80860 0.47790 0.94250 -0.17700
H 	H 	0.82620 0.45430 0.96520 0.13600
C 	C 	0.82620 0.52130 0.95420 0.11700
H 	H 	0.85960 0.53150 0.98760 -0.00200
C 	C 	0.78850 0.54930 0.91020 -0.14700
H 	H 	0.79010 0.58180 0.90710 0.08300
C 	C 	0.74690 0.51880 0.87070 0.06000
C 	C 	0.69310 0.52750 0.81320 0.06000
C 	C 	0.68030 0.57260 0.79090 -0.13000
H 	H 	0.70520 0.59780 0.81020 0.07300
C 	C 	0.63000 0.57900 0.73950 0.05000
H 	H 	0.61910 0.60910 0.72370 0.00900
C 	C 	0.59410 0.54020 0.71010 -0.13300
H 	H 	0.56100 0.54360 0.67340 0.08700
C 	C 	0.61020 0.49700 0.73800 0.08000
H 	H 	0.58590 0.47110 0.72050 0.01400
O 	O 	0.74900 0.37884 0.97960 -0.44800
O 	O 	0.70380 0.34620 0.88470 -0.42200
O 	O 	0.87870 0.41632 0.03670 -0.41500
O 	O 	0.97320 0.39480 0.09810 -0.30500
O 	O 	0.62300 0.43859 0.92210 -0.40200
O 	O 	0.53030 0.44200 0.84640 -0.28300
N 	N 	0.61640 0.37960 0.75390 -0.17100
N 	N 	0.54960 0.37100 0.73340 -0.14300
H 	H 	0.51810 0.38090 0.75250 0.09100
C 	C 	0.54270 0.34360 0.67680 0.07300
H 	H 	0.50310 0.33280 0.65280 0.00700
C 	C 	0.60520 0.33530 0.66230 -0.11600
H 	H 	0.61480 0.31790 0.62680 0.06800
C 	C 	0.65070 0.35750 0.70990 0.04400
N 	N 	0.75480 0.38650 0.77150 -0.20500
C 	C 	0.72270 0.36030 0.71840 0.03900
C 	C 	0.75900 0.33220 0.68240 -0.10300
H 	H 	0.73750 0.31470 0.64690 0.06300
C 	C 	0.82740 0.33030 0.69940 0.02100
H 	H 	0.85170 0.31150 0.67520 0.01700
C 	C 	0.85950 0.35650 0.75240 -0.10500
H 	H 	0.90530 0.35520 0.76380 0.06100
C 	C 	0.82320 0.38460 0.78850 0.04000
H 	H 	0.84470 0.40210 0.82400 0.00400
Cd	Cd	0.30217 0.11810 0.58716 1.21600
Cd	Cd	0.18348 0.08230 0.34390 1.21900
N 	N 	0.23450 0.17170 0.62970 -0.23200
N 	N 	0.36630 0.17910 0.63570 -0.18400
N 	N 	0.33790 0.07280 0.68560 -0.22600
N 	N 	0.23760 0.05090 0.58650 -0.17700
N 	N 	0.25900 0.02540 0.39010 -0.18000
N 	N 	0.15850 0.00940 0.28830 -0.22500
C 	C 	0.16970 0.16730 0.62540 0.08100
H 	H 	0.14940 0.14040 0.60580 -0.01100
C 	C 	0.13120 0.20070 0.64890 -0.13600
H 	H 	0.08580 0.19660 0.64560 0.07400
C 	C 	0.16270 0.24140 0.67810 0.05500
H 	H 	0.13790 0.26510 0.69300 0.01100
C 	C 	0.22840 0.24580 0.68440 -0.12300
H 	H 	0.24970 0.27180 0.70540 0.08400
C 	C 	0.26460 0.21090 0.65900 0.05500
C 	C 	0.33600 0.21370 0.66190 0.05500
C 	C 	0.38280 0.24780 0.68750 -0.12200
H 	H 	0.37490 0.27550 0.70880 0.08400
C 	C 	0.44270 0.23210 0.67490 0.08400
H 	H 	0.48340 0.24700 0.68530 0.00200
N 	N 	0.42950 0.19020 0.64410 -0.16500
H 	H 	0.45920 0.17270 0.63150 0.13300
C 	C 	0.38710 0.08340 0.73380 0.09600
H 	H 	0.40700 0.11260 0.73240 -0.00500
C 	C 	0.41090 0.05450 0.78570 -0.16300
H 	H 	0.44690 0.06320 0.81730 0.10500
C 	C 	0.38030 0.01270 0.78960 0.07200
H 	H 	0.39380 0.99280 0.82520 0.01000
C 	C 	0.32930 0.99990 0.74090 -0.13600
H 	H 	0.30890 0.97080 0.74220 0.07200
C 	C 	0.30890 0.03060 0.69020 0.05900
C 	C 	0.25420 0.01920 0.63530 0.05800
C 	C 	0.21520 0.97990 0.62420 -0.14400
H 	H 	0.21680 0.95300 0.65010 0.08000
C 	C 	0.17420 0.98900 0.56730 0.11200
H 	H 	0.14120 0.96900 0.54690 -0.00000
N 	N 	0.18770 0.03060 0.54470 -0.17700
H 	H 	0.16770 0.04290 0.50850 0.14600
C 	C 	0.23140 0.15590 0.44350 0.37100
C 	C 	0.24100 0.20470 0.47280 -0.15300
C 	C 	0.30510 0.22410 0.48470 0.03700
C 	C 	0.36170 0.20020 0.46960 -0.09400
H 	H 	0.35680 0.17040 0.45070 0.05800
C 	C 	0.42340 0.22050 0.48260 -0.02200
H 	H 	0.45970 0.20430 0.47250 0.03500
C 	C 	0.43190 0.26420 0.51030 -0.02200
H 	H 	0.47400 0.27730 0.51880 0.03300
C 	C 	0.37940 0.28890 0.52560 -0.08700
H 	H 	0.38660 0.31860 0.54450 0.06400
C 	C 	0.18580 0.22950 0.48650 0.05900
C 	C 	0.44060 0.07950 0.55760 0.34500
C 	C 	0.47250 0.03820 0.52780 -0.11500
C 	C 	0.47790 0.99540 0.56090 0.03800
C 	C 	0.45390 0.98810 0.62270 -0.07400
H 	H 	0.43570 0.01320 0.64230 0.06100
C 	C 	0.45760 0.94530 0.65250 -0.03600
H 	H 	0.44170 0.94110 0.69190 0.04300
C 	C 	0.48570 0.90760 0.62290 -0.01800
H 	H 	0.48860 0.87840 0.64350 0.03000
C 	C 	0.50860 0.91250 0.56550 -0.09000
H 	H 	0.52680 0.88660 0.54740 0.06600
C 	C 	0.49440 0.04440 0.46750 0.05200
C 	C 	0.06260 0.05070 0.40340 0.31200
C 	C 	0.02980 0.02530 0.45360 -0.10600
C 	C 	0.02660 0.97520 0.45070 0.03700
C 	C 	0.05430 0.94830 0.40340 -0.08000
H 	H 	0.07520 0.96390 0.37290 0.06600
C 	C 	0.05110 0.90080 0.40170 -0.03100
H 	H 	0.06970 0.88410 0.37050 0.03800
C 	C 	0.01950 0.87720 0.44720 -0.02500
H 	H 	0.01550 0.84470 0.44450 0.03200
C 	C 	0.99460 0.90010 0.49490 -0.08200
H 	H 	0.97620 0.88290 0.52580 0.06300
C 	C 	0.00420 0.04950 0.50090 0.04700
N 	N 	0.30860 0.02210 0.44250 -0.17700
H 	H 	0.32620 0.04570 0.46520 0.13600
C 	C 	0.32620 0.97870 0.45420 0.11700
H 	H 	0.35960 0.96850 0.48760 -0.00200
C 	C 	0.28850 0.95070 0.41020 -0.14700
H 	H 	0.29010 0.91820 0.40710 0.08300
C 	C 	0.24690 0.98120 0.37070 0.06000
C 	C 	0.19310 0.97250 0.31320 0.06000
C 	C 	0.18030 0.92740 0.29090 -0.13000
H 	H 	0.20520 0.90220 0.31020 0.07300
C 	C 	0.13000 0.92100 0.23950 0.05000
H 	H 	0.11910 0.89090 0.22370 0.00900
C 	C 	0.09410 0.95980 0.21010 -0.13400
H 	H 	0.06100 0.95640 0.17340 0.08700
C 	C 	0.11020 0.00300 0.23800 0.08100
H 	H 	0.08590 0.02890 0.22050 0.01400
O 	O 	0.24900 0.12116 0.47960 -0.44800
O 	O 	0.20380 0.15380 0.38470 -0.42200
O 	O 	0.37870 0.08368 0.53670 -0.41500
O 	O 	0.47320 0.10520 0.59810 -0.30500
O 	O 	0.12300 0.06141 0.42210 -0.40200
O 	O 	0.03030 0.05800 0.34640 -0.28300
N 	N 	0.11640 0.12040 0.25390 -0.17100
N 	N 	0.04960 0.12900 0.23340 -0.14300
H 	H 	0.01810 0.11910 0.25250 0.09000
C 	C 	0.04270 0.15640 0.17680 0.07300
H 	H 	0.00310 0.16720 0.15280 0.00700
C 	C 	0.10520 0.16470 0.16230 -0.11600
H 	H 	0.11480 0.18210 0.12680 0.06800
C 	C 	0.15070 0.14250 0.20990 0.04400
N 	N 	0.25480 0.11350 0.27150 -0.20500
C 	C 	0.22270 0.13970 0.21840 0.03900
C 	C 	0.25900 0.16780 0.18240 -0.10300
H 	H 	0.23750 0.18530 0.14690 0.06300
C 	C 	0.32740 0.16970 0.19940 0.02100
H 	H 	0.35170 0.18850 0.17520 0.01700
C 	C 	0.35950 0.14350 0.25240 -0.10500
H 	H 	0.40530 0.14480 0.26380 0.06100
C 	C 	0.32320 0.11540 0.28850 0.04100
H 	H 	0.34470 0.09790 0.32400 0.00400
Cd	Cd	0.80217 0.61810 0.58716 1.21600
Cd	Cd	0.68348 0.58230 0.34390 1.21900
N 	N 	0.73450 0.67170 0.62970 -0.23200
N 	N 	0.86630 0.67910 0.63570 -0.18400
N 	N 	0.83790 0.57280 0.68560 -0.22700
N 	N 	0.73760 0.55090 0.58650 -0.17700
N 	N 	0.75900 0.52540 0.39010 -0.18000
N 	N 	0.65850 0.50940 0.28830 -0.22500
C 	C 	0.66970 0.66730 0.62540 0.08100
H 	H 	0.64940 0.64040 0.60580 -0.01100
C 	C 	0.63120 0.70070 0.64890 -0.13600
H 	H 	0.58580 0.69660 0.64560 0.07400
C 	C 	0.66270 0.74140 0.67810 0.05500
H 	H 	0.63790 0.76510 0.69300 0.01100
C 	C 	0.72840 0.74580 0.68440 -0.12300
H 	H 	0.74970 0.77180 0.70540 0.08400
C 	C 	0.76460 0.71090 0.65900 0.05500
C 	C 	0.83600 0.71370 0.66190 0.05500
C 	C 	0.88280 0.74780 0.68750 -0.12200
H 	H 	0.87490 0.77550 0.70880 0.08400
C 	C 	0.94270 0.73210 0.67490 0.08400
H 	H 	0.98340 0.74700 0.68530 0.00200
N 	N 	0.92950 0.69020 0.64410 -0.16500
H 	H 	0.95920 0.67270 0.63150 0.13300
C 	C 	0.88710 0.58340 0.73380 0.09700
H 	H 	0.90700 0.61260 0.73240 -0.00500
C 	C 	0.91090 0.55450 0.78570 -0.16500
H 	H 	0.94690 0.56320 0.81730 0.10600
C 	C 	0.88030 0.51270 0.78960 0.07500
H 	H 	0.89380 0.49280 0.82520 0.00900
C 	C 	0.82930 0.49990 0.74090 -0.13800
H 	H 	0.80890 0.47080 0.74220 0.07300
C 	C 	0.80890 0.53060 0.69020 0.06000
C 	C 	0.75420 0.51920 0.63530 0.05800
C 	C 	0.71520 0.47990 0.62420 -0.14400
H 	H 	0.71680 0.45300 0.65010 0.08000
C 	C 	0.67420 0.48900 0.56730 0.11200
H 	H 	0.64120 0.46900 0.54690 -0.00000
N 	N 	0.68770 0.53060 0.54470 -0.17700
H 	H 	0.66770 0.54290 0.50850 0.14600
C 	C 	0.73140 0.65590 0.44350 0.37100
C 	C 	0.74100 0.70470 0.47280 -0.15300
C 	C 	0.80510 0.72410 0.48470 0.03700
C 	C 	0.86170 0.70020 0.46960 -0.09400
H 	H 	0.85680 0.67040 0.45070 0.05800
C 	C 	0.92340 0.72050 0.48260 -0.02200
H 	H 	0.95970 0.70430 0.47250 0.03500
C 	C 	0.93190 0.76420 0.51030 -0.02200
H 	H 	0.97400 0.77730 0.51880 0.03300
C 	C 	0.87940 0.78890 0.52560 -0.08700
H 	H 	0.88660 0.81860 0.54450 0.06400
C 	C 	0.68580 0.72950 0.48650 0.05900
C 	C 	0.94060 0.57950 0.55760 0.34500
C 	C 	0.97250 0.53820 0.52780 -0.11500
C 	C 	0.97790 0.49540 0.56090 0.03900
C 	C 	0.95390 0.48810 0.62270 -0.07500
H 	H 	0.93570 0.51320 0.64230 0.06100
C 	C 	0.95760 0.44530 0.65250 -0.03600
H 	H 	0.94170 0.44110 0.69190 0.04200
C 	C 	0.98570 0.40760 0.62290 -0.01800
H 	H 	0.98860 0.37840 0.64350 0.03000
C 	C 	0.00860 0.41250 0.56550 -0.09000
H 	H 	0.02680 0.38660 0.54740 0.06600
C 	C 	0.99440 0.54440 0.46750 0.05200
C 	C 	0.56260 0.55070 0.40340 0.31200
C 	C 	0.52980 0.52530 0.45360 -0.10600
C 	C 	0.52660 0.47520 0.45070 0.03700
C 	C 	0.55430 0.44830 0.40340 -0.08000
H 	H 	0.57520 0.46390 0.37290 0.06600
C 	C 	0.55110 0.40080 0.40170 -0.03100
H 	H 	0.56970 0.38410 0.37050 0.03800
C 	C 	0.51950 0.37720 0.44720 -0.02500
H 	H 	0.51550 0.34470 0.44450 0.03300
C 	C 	0.49460 0.40010 0.49490 -0.08200
H 	H 	0.47620 0.38290 0.52580 0.06300
C 	C 	0.50420 0.54950 0.50090 0.04700
N 	N 	0.80860 0.52210 0.44250 -0.17700
H 	H 	0.82620 0.54570 0.46520 0.13600
C 	C 	0.82620 0.47870 0.45420 0.11700
H 	H 	0.85960 0.46850 0.48760 -0.00200
C 	C 	0.78850 0.45070 0.41020 -0.14700
H 	H 	0.79010 0.41820 0.40710 0.08300
C 	C 	0.74690 0.48120 0.37070 0.06000
C 	C 	0.69310 0.47250 0.31320 0.06000
C 	C 	0.68030 0.42740 0.29090 -0.13000
H 	H 	0.70520 0.40220 0.31020 0.07300
C 	C 	0.63000 0.42100 0.23950 0.05000
H 	H 	0.61910 0.39090 0.22370 0.00900
C 	C 	0.59410 0.45980 0.21010 -0.13300
H 	H 	0.56100 0.45640 0.17340 0.08700
C 	C 	0.61020 0.50300 0.23800 0.08000
H 	H 	0.58590 0.52890 0.22050 0.01400
O 	O 	0.74900 0.62116 0.47960 -0.44800
O 	O 	0.70380 0.65380 0.38470 -0.42200
O 	O 	0.87870 0.58368 0.53670 -0.41500
O 	O 	0.97320 0.60520 0.59810 -0.30500
O 	O 	0.62300 0.56141 0.42210 -0.40200
O 	O 	0.53030 0.55800 0.34640 -0.28300
N 	N 	0.61640 0.62040 0.25390 -0.17100
N 	N 	0.54960 0.62900 0.23340 -0.14300
H 	H 	0.51810 0.61910 0.25250 0.09100
C 	C 	0.54270 0.65640 0.17680 0.07300
H 	H 	0.50310 0.66720 0.15280 0.00700
C 	C 	0.60520 0.66470 0.16230 -0.11600
H 	H 	0.61480 0.68210 0.12680 0.06800
C 	C 	0.65070 0.64250 0.20990 0.04400
N 	N 	0.75480 0.61350 0.27150 -0.20500
C 	C 	0.72270 0.63970 0.21840 0.03900
C 	C 	0.75900 0.66780 0.18240 -0.10300
H 	H 	0.73750 0.68530 0.14690 0.06300
C 	C 	0.82740 0.66970 0.19940 0.02100
H 	H 	0.85170 0.68850 0.17520 0.01700
C 	C 	0.85950 0.64350 0.25240 -0.10500
H 	H 	0.90530 0.64480 0.26380 0.06100
C 	C 	0.82320 0.61540 0.28850 0.04000
H 	H 	0.84470 0.59790 0.32400 0.00400
Cd	Cd	0.69783 0.11810 0.91284 1.21600
Cd	Cd	0.81652 0.08230 0.15610 1.21900
N 	N 	0.76550 0.17170 0.87030 -0.23200
N 	N 	0.63370 0.17910 0.86430 -0.18400
N 	N 	0.66210 0.07280 0.81440 -0.22600
N 	N 	0.76240 0.05090 0.91350 -0.17700
N 	N 	0.74100 0.02540 0.10990 -0.18000
N 	N 	0.84150 0.00940 0.21170 -0.22500
C 	C 	0.83030 0.16730 0.87460 0.08000
H 	H 	0.85060 0.14040 0.89420 -0.01200
C 	C 	0.86880 0.20070 0.85110 -0.13600
H 	H 	0.91420 0.19660 0.85440 0.07400
C 	C 	0.83730 0.24140 0.82190 0.05500
H 	H 	0.86210 0.26510 0.80700 0.01100
C 	C 	0.77160 0.24580 0.81560 -0.12300
H 	H 	0.75030 0.27180 0.79460 0.08400
C 	C 	0.73540 0.21090 0.84100 0.05500
C 	C 	0.66400 0.21370 0.83810 0.05500
C 	C 	0.61720 0.24780 0.81250 -0.12200
H 	H 	0.62510 0.27550 0.79120 0.08400
C 	C 	0.55730 0.23210 0.82510 0.08400
H 	H 	0.51660 0.24700 0.81470 0.00200
N 	N 	0.57050 0.19020 0.85590 -0.16500
H 	H 	0.54080 0.17270 0.86850 0.13300
C 	C 	0.61290 0.08340 0.76620 0.09600
H 	H 	0.59300 0.11260 0.76760 -0.00500
C 	C 	0.58910 0.05450 0.71430 -0.16300
H 	H 	0.55310 0.06320 0.68270 0.10500
C 	C 	0.61970 0.01270 0.71040 0.07300
H 	H 	0.60620 0.99280 0.67480 0.01000
C 	C 	0.67070 0.99990 0.75910 -0.13600
H 	H 	0.69110 0.97080 0.75780 0.07200
C 	C 	0.69110 0.03060 0.80980 0.06000
C 	C 	0.74580 0.01920 0.86470 0.05800
C 	C 	0.78480 0.97990 0.87580 -0.14400
H 	H 	0.78320 0.95300 0.84990 0.08000
C 	C 	0.82580 0.98900 0.93270 0.11300
H 	H 	0.85880 0.96900 0.95310 -0.00000
N 	N 	0.81230 0.03060 0.95530 -0.17700
H 	H 	0.83230 0.04290 0.99150 0.14500
C 	C 	0.76860 0.15590 0.05650 0.37200
C 	C 	0.75900 0.20470 0.02720 -0.15400
C 	C 	0.69490 0.22410 0.01530 0.03800
C 	C 	0.63830 0.20020 0.03040 -0.09500
H 	H 	0.64320 0.17040 0.04930 0.05900
C 	C 	0.57660 0.22050 0.01740 -0.02000
H 	H 	0.54030 0.20430 0.02750 0.03400
C 	C 	0.56810 0.26420 0.98970 -0.02400
H 	H 	0.52600 0.27730 0.98120 0.03400
C 	C 	0.62060 0.28890 0.97440 -0.08500
H 	H 	0.61340 0.31860 0.95550 0.06400
C 	C 	0.81420 0.22950 0.01350 0.06000
C 	C 	0.55940 0.07950 0.94240 0.34500
C 	C 	0.52750 0.03820 0.97220 -0.11600
C 	C 	0.52210 0.99540 0.93910 0.03900
C 	C 	0.54610 0.98810 0.87730 -0.07400
H 	H 	0.56430 0.01320 0.85770 0.06100
C 	C 	0.54240 0.94530 0.84750 -0.03700
H 	H 	0.55830 0.94110 0.80810 0.04300
C 	C 	0.51430 0.90760 0.87710 -0.01700
H 	H 	0.51140 0.87840 0.85650 0.03000
C 	C 	0.49140 0.91250 0.93450 -0.09100
H 	H 	0.47320 0.88660 0.95260 0.06600
C 	C 	0.50560 0.04440 0.03250 0.05300
C 	C 	0.93740 0.05070 0.09660 0.31200
C 	C 	0.97020 0.02530 0.04640 -0.10400
C 	C 	0.97340 0.97520 0.04930 0.03600
C 	C 	0.94570 0.94830 0.09660 -0.07900
H 	H 	0.92480 0.96390 0.12710 0.06500
C 	C 	0.94890 0.90080 0.09830 -0.03300
H 	H 	0.93030 0.88410 0.12950 0.03800
C 	C 	0.98050 0.87720 0.05280 -0.02300
H 	H 	0.98450 0.84470 0.05550 0.03200
C 	C 	0.00540 0.90010 0.00510 -0.08400
H 	H 	0.02380 0.88290 0.97420 0.06400
C 	C 	0.99580 0.04950 0.99910 0.04700
N 	N 	0.69140 0.02210 0.05750 -0.17700
H 	H 	0.67380 0.04570 0.03480 0.13700
C 	C 	0.67380 0.97870 0.04580 0.11600
H 	H 	0.64040 0.96850 0.01240 -0.00200
C 	C 	0.71150 0.95070 0.08980 -0.14700
H 	H 	0.70990 0.91820 0.09290 0.08300
C 	C 	0.75310 0.98120 0.12930 0.06000
C 	C 	0.80690 0.97250 0.18680 0.06000
C 	C 	0.81970 0.92740 0.20910 -0.13000
H 	H 	0.79480 0.90220 0.18980 0.07300
C 	C 	0.87000 0.92100 0.26050 0.05000
H 	H 	0.88090 0.89090 0.27630 0.00900
C 	C 	0.90590 0.95980 0.28990 -0.13400
H 	H 	0.93900 0.95640 0.32660 0.08700
C 	C 	0.88980 0.00300 0.26200 0.08100
H 	H 	0.91410 0.02890 0.27950 0.01400
O 	O 	0.75100 0.12116 0.02040 -0.44800
O 	O 	0.79620 0.15380 0.11530 -0.42200
O 	O 	0.62130 0.08368 0.96330 -0.41600
O 	O 	0.52680 0.10520 0.90190 -0.30500
O 	O 	0.87700 0.06141 0.07790 -0.40200
O 	O 	0.96970 0.05800 0.15360 -0.28300
N 	N 	0.88360 0.12040 0.24610 -0.17100
N 	N 	0.95040 0.12900 0.26660 -0.14300
H 	H 	0.98190 0.11910 0.24750 0.09100
C 	C 	0.95730 0.15640 0.32320 0.07300
H 	H 	0.99690 0.16720 0.34720 0.00700
C 	C 	0.89480 0.16470 0.33770 -0.11600
H 	H 	0.88520 0.18210 0.37320 0.06800
C 	C 	0.84930 0.14250 0.29010 0.04400
N 	N 	0.74520 0.11350 0.22850 -0.20500
C 	C 	0.77730 0.13970 0.28160 0.03900
C 	C 	0.74100 0.16780 0.31760 -0.10300
H 	H 	0.76250 0.18530 0.35310 0.06300
C 	C 	0.67260 0.16970 0.30060 0.02100
H 	H 	0.64830 0.18850 0.32480 0.01700
C 	C 	0.64050 0.14350 0.24760 -0.10500
H 	H 	0.59470 0.14480 0.23620 0.06100
C 	C 	0.67680 0.11540 0.21150 0.04100
H 	H 	0.65530 0.09790 0.17600 0.00400
Cd	Cd	0.19783 0.61810 0.91284 1.21600
Cd	Cd	0.31652 0.58230 0.15610 1.21900
N 	N 	0.26550 0.67170 0.87030 -0.23200
N 	N 	0.13370 0.67910 0.86430 -0.18400
N 	N 	0.16210 0.57280 0.81440 -0.22700
N 	N 	0.26240 0.55090 0.91350 -0.17700
N 	N 	0.24100 0.52540 0.10990 -0.18000
N 	N 	0.34150 0.50940 0.21170 -0.22500
C 	C 	0.33030 0.66730 0.87460 0.08100
H 	H 	0.35060 0.64040 0.89420 -0.01100
C 	C 	0.36880 0.70070 0.85110 -0.13600
H 	H 	0.41420 0.69660 0.85440 0.07400
C 	C 	0.33730 0.74140 0.82190 0.05500
H 	H 	0.36210 0.76510 0.80700 0.01100
C 	C 	0.27160 0.74580 0.81560 -0.12300
H 	H 	0.25030 0.77180 0.79460 0.08400
C 	C 	0.23540 0.71090 0.84100 0.05500
C 	C 	0.16400 0.71370 0.83810 0.05500
C 	C 	0.11720 0.74780 0.81250 -0.12200
H 	H 	0.12510 0.77550 0.79120 0.08400
C 	C 	0.05730 0.73210 0.82510 0.08400
H 	H 	0.01660 0.74700 0.81470 0.00200
N 	N 	0.07050 0.69020 0.85590 -0.16500
H 	H 	0.04080 0.67270 0.86850 0.13300
C 	C 	0.11290 0.58340 0.76620 0.09700
H 	H 	0.09300 0.61260 0.76760 -0.00500
C 	C 	0.08910 0.55450 0.71430 -0.16500
H 	H 	0.05310 0.56320 0.68270 0.10600
C 	C 	0.11970 0.51270 0.71040 0.07500
H 	H 	0.10620 0.49280 0.67480 0.00900
C 	C 	0.17070 0.49990 0.75910 -0.13800
H 	H 	0.19110 0.47080 0.75780 0.07300
C 	C 	0.19110 0.53060 0.80980 0.06000
C 	C 	0.24580 0.51920 0.86470 0.05800
C 	C 	0.28480 0.47990 0.87580 -0.14500
H 	H 	0.28320 0.45300 0.84990 0.08000
C 	C 	0.32580 0.48900 0.93270 0.11200
H 	H 	0.35880 0.46900 0.95310 -0.00000
N 	N 	0.31230 0.53060 0.95530 -0.17700
H 	H 	0.33230 0.54290 0.99150 0.14600
C 	C 	0.26860 0.65590 0.05650 0.37100
C 	C 	0.25900 0.70470 0.02720 -0.15200
C 	C 	0.19490 0.72410 0.01530 0.03500
C 	C 	0.13830 0.70020 0.03040 -0.09200
H 	H 	0.14320 0.67040 0.04930 0.05800
C 	C 	0.07660 0.72050 0.01740 -0.02500
H 	H 	0.04030 0.70430 0.02750 0.03600
C 	C 	0.06810 0.76420 0.98970 -0.02000
H 	H 	0.02600 0.77730 0.98120 0.03200
C 	C 	0.12060 0.78890 0.97440 -0.08800
H 	H 	0.11340 0.81860 0.95550 0.06500
C 	C 	0.31420 0.72950 0.01350 0.05700
C 	C 	0.05940 0.57950 0.94240 0.34500
C 	C 	0.02750 0.53820 0.97220 -0.11500
C 	C 	0.02210 0.49540 0.93910 0.03900
C 	C 	0.04610 0.48810 0.87730 -0.07500
H 	H 	0.06430 0.51320 0.85770 0.06100
C 	C 	0.04240 0.44530 0.84750 -0.03600
H 	H 	0.05830 0.44110 0.80810 0.04200
C 	C 	0.01430 0.40760 0.87710 -0.01800
H 	H 	0.01140 0.37840 0.85650 0.03000
C 	C 	0.99140 0.41250 0.93450 -0.09000
H 	H 	0.97320 0.38660 0.95260 0.06600
C 	C 	0.00560 0.54440 0.03250 0.05100
C 	C 	0.43740 0.55070 0.09660 0.31200
C 	C 	0.47020 0.52530 0.04640 -0.10600
C 	C 	0.47340 0.47520 0.04930 0.03700
C 	C 	0.44570 0.44830 0.09660 -0.08000
H 	H 	0.42480 0.46390 0.12710 0.06600
C 	C 	0.44890 0.40080 0.09830 -0.03100
H 	H 	0.43030 0.38410 0.12950 0.03800
C 	C 	0.48050 0.37720 0.05280 -0.02600
H 	H 	0.48450 0.34470 0.05550 0.03300
C 	C 	0.50540 0.40010 0.00510 -0.08100
H 	H 	0.52380 0.38290 0.97420 0.06200
C 	C 	0.49580 0.54950 0.99910 0.04700
N 	N 	0.19140 0.52210 0.05750 -0.17700
H 	H 	0.17380 0.54570 0.03480 0.13600
C 	C 	0.17380 0.47870 0.04580 0.11700
H 	H 	0.14040 0.46850 0.01240 -0.00200
C 	C 	0.21150 0.45070 0.08980 -0.14700
H 	H 	0.20990 0.41820 0.09290 0.08300
C 	C 	0.25310 0.48120 0.12930 0.06000
C 	C 	0.30690 0.47250 0.18680 0.06000
C 	C 	0.31970 0.42740 0.20910 -0.13000
H 	H 	0.29480 0.40220 0.18980 0.07300
C 	C 	0.37000 0.42100 0.26050 0.05000
H 	H 	0.38090 0.39090 0.27630 0.00900
C 	C 	0.40590 0.45980 0.28990 -0.13300
H 	H 	0.43900 0.45640 0.32660 0.08700
C 	C 	0.38980 0.50300 0.26200 0.08000
H 	H 	0.41410 0.52890 0.27950 0.01400
O 	O 	0.25100 0.62116 0.02040 -0.44800
O 	O 	0.29620 0.65380 0.11530 -0.42200
O 	O 	0.12130 0.58368 0.96330 -0.41500
O 	O 	0.02680 0.60520 0.90190 -0.30500
O 	O 	0.37700 0.56141 0.07790 -0.40200
O 	O 	0.46970 0.55800 0.15360 -0.28300
N 	N 	0.38360 0.62040 0.24610 -0.17100
N 	N 	0.45040 0.62900 0.26660 -0.14300
H 	H 	0.48190 0.61910 0.24750 0.09100
C 	C 	0.45730 0.65640 0.32320 0.07300
H 	H 	0.49690 0.66720 0.34720 0.00700
C 	C 	0.39480 0.66470 0.33770 -0.11600
H 	H 	0.38520 0.68210 0.37320 0.06800
C 	C 	0.34930 0.64250 0.29010 0.04400
N 	N 	0.24520 0.61350 0.22850 -0.20500
C 	C 	0.27730 0.63970 0.28160 0.03900
C 	C 	0.24100 0.66780 0.31760 -0.10300
H 	H 	0.26250 0.68530 0.35310 0.06300
C 	C 	0.17260 0.66970 0.30060 0.02100
H 	H 	0.14830 0.68850 0.32480 0.01700
C 	C 	0.14050 0.64350 0.24760 -0.10500
H 	H 	0.09470 0.64480 0.23620 0.06100
C 	C 	0.17680 0.61540 0.21150 0.04000
H 	H 	0.15530 0.59790 0.17600 0.00400
