data_crystal

_cell_length_a 18.41600
_cell_length_b 10.15400
_cell_length_c 27.01000
_cell_angle_alpha 90.00000
_cell_angle_beta  90.00000
_cell_angle_gamma 90.00000

_symmetry_space_group_name_	'P 1'
_symmetry_space_group_name_H-M	'P 1'

loop_
_symmetry_equiv_pos_as_xyz
  x,y,z

loop_
_atom_site_label
_atom_site_type_symbol
_atom_site_fract_x
_atom_site_fract_y
_atom_site_fract_z
_atom_site_charge
Zn	Zn	0.82834 0.68796 0.96752 1.23900
Zn	Zn	0.68785 0.99096 0.56630 1.15700
O 	O 	0.41300 0.92220 0.06578 -0.50600
O 	O 	0.43060 0.81150 0.99415 -0.41000
O 	O 	0.76490 0.65540 0.02915 -0.59200
O 	O 	0.66880 0.02110 0.42999 -0.45100
O 	O 	0.65890 0.31810 0.41033 -0.39200
O 	O 	0.67960 0.41120 0.48237 -0.34500
C 	C 	0.57480 0.75640 0.02480 -0.05100
H 	H 	0.56800 0.75890 0.99070 0.09600
O 	O 	0.67740 0.89330 0.49809 -0.50500
O 	O 	0.69740 0.70840 0.96517 -0.31300
C 	C 	0.52950 0.78640 0.10790 -0.02900
H 	H 	0.49320 0.81370 0.12960 0.03800
C 	C 	0.64890 0.70080 0.09640 -0.03400
H 	H 	0.69240 0.66740 0.10870 -0.00200
C 	C 	0.65960 0.61030 0.25290 -0.08300
H 	H 	0.68980 0.54380 0.26450 0.05100
C 	C 	0.60590 0.71880 0.18270 0.00300
C 	C 	0.44880 0.85080 0.03850 0.34400
C 	C 	0.64290 0.61780 0.20140 -0.04300
H 	H 	0.65820 0.55060 0.18040 0.01600
C 	C 	0.59520 0.73580 0.12790 -0.00800
C 	C 	0.57750 0.81620 0.21570 -0.04500
H 	H 	0.55150 0.88790 0.20380 0.03800
C 	C 	0.63880 0.71520 0.04430 -0.07100
C 	C 	0.63190 0.69880 0.28460 0.03600
C 	C 	0.66900 0.66490 0.44200 0.01800
H 	H 	0.67870 0.65770 0.47570 0.04100
C 	C 	0.67060 0.91080 0.45310 0.38400
C 	C 	0.66090 0.54980 0.41310 -0.07100
C 	C 	0.58990 0.80100 0.26600 -0.07400
H 	H 	0.56940 0.86110 0.28790 0.05600
C 	C 	0.65060 0.80050 0.36890 -0.01900
H 	H 	0.64620 0.88330 0.35450 0.05300
C 	C 	0.70440 0.68790 0.01050 0.28700
C 	C 	0.64560 0.68640 0.34010 -0.01000
C 	C 	0.66250 0.78770 0.42070 -0.08900
C 	C 	0.51760 0.79640 0.05790 -0.07700
C 	C 	0.65200 0.56380 0.36270 -0.02400
H 	H 	0.65020 0.48860 0.34310 0.05500
C 	C 	0.66830 0.41990 0.43620 0.29900
Zn	Zn	0.17166 0.31204 0.46752 1.23400
Zn	Zn	0.31215 0.00904 0.06630 1.15000
O 	O 	0.58700 0.07780 0.56578 -0.51200
O 	O 	0.56940 0.18850 0.49415 -0.44200
O 	O 	0.23510 0.34460 0.52915 -0.59100
O 	O 	0.33120 0.97890 0.92999 -0.44600
O 	O 	0.34110 0.68190 0.91033 -0.39000
O 	O 	0.32040 0.58880 0.98237 -0.33400
C 	C 	0.42520 0.24360 0.52480 0.04900
H 	H 	0.43200 0.24110 0.49070 0.04200
O 	O 	0.32260 0.10670 0.99809 -0.48900
O 	O 	0.30260 0.29160 0.46517 -0.34600
C 	C 	0.47050 0.21360 0.60790 0.00800
H 	H 	0.50680 0.18630 0.62960 0.02700
C 	C 	0.35110 0.29920 0.59640 0.00400
H 	H 	0.30760 0.33260 0.60870 -0.01300
C 	C 	0.34040 0.38970 0.75290 -0.07200
H 	H 	0.31020 0.45620 0.76450 0.04900
C 	C 	0.39410 0.28120 0.68270 0.01900
C 	C 	0.55120 0.14920 0.53850 0.39700
C 	C 	0.35710 0.38220 0.70140 -0.05500
H 	H 	0.34180 0.44940 0.68040 0.02300
C 	C 	0.40480 0.26420 0.62790 -0.03500
C 	C 	0.42250 0.18380 0.71570 -0.05600
H 	H 	0.44850 0.11210 0.70380 0.04400
C 	C 	0.36120 0.28480 0.54430 -0.11900
C 	C 	0.36810 0.30120 0.78460 0.02900
C 	C 	0.33100 0.33510 0.94200 0.01400
H 	H 	0.32130 0.34230 0.97570 0.04700
C 	C 	0.32940 0.08920 0.95310 0.38200
C 	C 	0.33910 0.45020 0.91310 -0.06400
C 	C 	0.41010 0.19900 0.76600 -0.06500
H 	H 	0.43060 0.13890 0.78790 0.05400
C 	C 	0.34940 0.19950 0.86890 -0.02300
H 	H 	0.35380 0.11670 0.85450 0.05500
C 	C 	0.29560 0.31210 0.51050 0.34300
C 	C 	0.35440 0.31360 0.84010 -0.00400
C 	C 	0.33750 0.21230 0.92070 -0.08200
C 	C 	0.48240 0.20360 0.55790 -0.12300
C 	C 	0.34800 0.43620 0.86270 -0.02800
H 	H 	0.34980 0.51140 0.84310 0.05700
C 	C 	0.33170 0.58010 0.93620 0.29600
Zn	Zn	0.32834 0.81204 0.96752 1.23800
Zn	Zn	0.18785 0.50904 0.56630 1.15800
O 	O 	0.91300 0.57780 0.06578 -0.50800
O 	O 	0.93060 0.68850 0.99415 -0.41000
O 	O 	0.26490 0.84460 0.02915 -0.59100
O 	O 	0.16880 0.47890 0.42999 -0.45300
O 	O 	0.15890 0.18190 0.41033 -0.39200
O 	O 	0.17960 0.08880 0.48237 -0.34500
C 	C 	0.07480 0.74360 0.02480 -0.04900
H 	H 	0.06800 0.74110 0.99070 0.09400
O 	O 	0.17740 0.60670 0.49809 -0.50400
O 	O 	0.19740 0.79160 0.96517 -0.31400
C 	C 	0.02950 0.71360 0.10790 -0.02600
H 	H 	0.99320 0.68630 0.12960 0.03600
C 	C 	0.14890 0.79920 0.09640 -0.03300
H 	H 	0.19240 0.83260 0.10870 -0.00200
C 	C 	0.15960 0.88970 0.25290 -0.08300
H 	H 	0.18980 0.95620 0.26450 0.05200
C 	C 	0.10590 0.78120 0.18270 0.00300
C 	C 	0.94880 0.64920 0.03850 0.34300
C 	C 	0.14290 0.88220 0.20140 -0.04300
H 	H 	0.15820 0.94940 0.18040 0.01700
C 	C 	0.09520 0.76420 0.12790 -0.01000
C 	C 	0.07750 0.68380 0.21570 -0.04500
H 	H 	0.05150 0.61210 0.20380 0.03800
C 	C 	0.13880 0.78480 0.04430 -0.07200
C 	C 	0.13190 0.80120 0.28460 0.03700
C 	C 	0.16900 0.83510 0.44200 0.02000
H 	H 	0.17870 0.84230 0.47570 0.04000
C 	C 	0.17060 0.58920 0.45310 0.38600
C 	C 	0.16090 0.95020 0.41310 -0.07200
C 	C 	0.08990 0.69900 0.26600 -0.07400
H 	H 	0.06940 0.63890 0.28790 0.05600
C 	C 	0.15060 0.69950 0.36890 -0.01800
H 	H 	0.14620 0.61670 0.35450 0.05200
C 	C 	0.20440 0.81210 0.01050 0.28800
C 	C 	0.14560 0.81360 0.34010 -0.01200
C 	C 	0.16250 0.71230 0.42070 -0.09000
C 	C 	0.01760 0.70360 0.05790 -0.07800
C 	C 	0.15200 0.93620 0.36270 -0.01900
H 	H 	0.15020 0.01140 0.34310 0.05200
C 	C 	0.16830 0.08010 0.43620 0.29900
Zn	Zn	0.67166 0.18796 0.46752 1.23400
Zn	Zn	0.81215 0.49096 0.06630 1.15100
O 	O 	0.08700 0.42220 0.56578 -0.51200
O 	O 	0.06940 0.31150 0.49415 -0.44200
O 	O 	0.73510 0.15540 0.52915 -0.59100
O 	O 	0.83120 0.52110 0.92999 -0.44900
O 	O 	0.84110 0.81810 0.91033 -0.39000
O 	O 	0.82040 0.91120 0.98237 -0.33400
C 	C 	0.92520 0.25640 0.52480 0.04900
H 	H 	0.93200 0.25890 0.49070 0.04200
O 	O 	0.82260 0.39330 0.99809 -0.48900
O 	O 	0.80260 0.20840 0.46517 -0.34600
C 	C 	0.97050 0.28640 0.60790 0.00900
H 	H 	0.00680 0.31370 0.62960 0.02700
C 	C 	0.85110 0.20080 0.59640 0.00400
H 	H 	0.80760 0.16740 0.60870 -0.01300
C 	C 	0.84040 0.11030 0.75290 -0.07300
H 	H 	0.81020 0.04380 0.76450 0.05000
C 	C 	0.89410 0.21880 0.68270 0.02000
C 	C 	0.05120 0.35080 0.53850 0.39700
C 	C 	0.85710 0.11780 0.70140 -0.05500
H 	H 	0.84180 0.05060 0.68040 0.02300
C 	C 	0.90480 0.23580 0.62790 -0.03600
C 	C 	0.92250 0.31620 0.71570 -0.05600
H 	H 	0.94850 0.38790 0.70380 0.04300
C 	C 	0.86120 0.21520 0.54430 -0.11900
C 	C 	0.86810 0.19880 0.78460 0.03000
C 	C 	0.83100 0.16490 0.94200 0.01500
H 	H 	0.82130 0.15770 0.97570 0.04700
C 	C 	0.82940 0.41080 0.95310 0.38400
C 	C 	0.83910 0.04980 0.91310 -0.06600
C 	C 	0.91010 0.30100 0.76600 -0.06500
H 	H 	0.93060 0.36110 0.78790 0.05400
C 	C 	0.84940 0.30050 0.86890 -0.02200
H 	H 	0.85380 0.38330 0.85450 0.05500
C 	C 	0.79560 0.18790 0.51050 0.34300
C 	C 	0.85440 0.18640 0.84010 -0.00500
C 	C 	0.83750 0.28770 0.92070 -0.08300
C 	C 	0.98240 0.29640 0.55790 -0.12400
C 	C 	0.84800 0.06380 0.86270 -0.02600
H 	H 	0.84980 0.98860 0.84310 0.05600
C 	C 	0.83170 0.91990 0.93620 0.29600
