data_crystal

_cell_length_a 41.25800
_cell_length_b 41.25800
_cell_length_c 41.25800
_cell_angle_alpha 90.00000
_cell_angle_beta  90.00000
_cell_angle_gamma 90.00000

_symmetry_space_group_name_	'P 1'
_symmetry_space_group_name_H-M	'P 1'

loop_
_symmetry_equiv_pos_as_xyz
  x,y,z

loop_
_atom_site_label
_atom_site_type_symbol
_atom_site_fract_x
_atom_site_fract_y
_atom_site_fract_z
_atom_site_charge
O 	O 	0.71280 0.37130 0.67040 -1.17300
O 	O 	0.66580 0.41630 0.62880 -0.31000
C 	C 	0.75831 0.37734 0.71788 -0.10700
H 	H 	0.76420 0.37830 0.69570 0.11800
C 	C 	0.66832 0.48319 0.62760 -0.01500
H 	H 	0.68210 0.47170 0.61320 0.06000
O 	O 	0.70610 0.38180 0.67450 1.02100
O 	O 	0.67320 0.41690 0.63470 -0.10300
O 	O 	0.71280 0.87130 0.17040 -1.17200
O 	O 	0.66580 0.91630 0.12880 -0.31000
C 	C 	0.75831 0.87734 0.21788 -0.10700
H 	H 	0.76420 0.87830 0.19570 0.11800
C 	C 	0.66832 0.98319 0.12760 0.00700
H 	H 	0.68210 0.97170 0.11320 0.05400
O 	O 	0.70610 0.88180 0.17450 1.02000
O 	O 	0.67320 0.91690 0.13470 -0.10400
O 	O 	0.21280 0.37130 0.17040 -1.17300
O 	O 	0.16580 0.41630 0.12880 -0.31000
C 	C 	0.25831 0.37734 0.21788 -0.10700
H 	H 	0.26420 0.37830 0.19570 0.11800
C 	C 	0.16832 0.48319 0.12760 -0.01500
H 	H 	0.18210 0.47170 0.11320 0.06000
O 	O 	0.20610 0.38180 0.17450 1.02200
O 	O 	0.17320 0.41690 0.13470 -0.10300
O 	O 	0.21280 0.87130 0.67040 -1.17100
O 	O 	0.16580 0.91630 0.62880 -0.31000
C 	C 	0.25831 0.87734 0.71788 -0.10700
H 	H 	0.26420 0.87830 0.69570 0.11800
C 	C 	0.16832 0.98319 0.62760 0.00800
H 	H 	0.18210 0.97170 0.61320 0.05400
O 	O 	0.20610 0.88180 0.67450 1.02000
O 	O 	0.17320 0.91690 0.63470 -0.10400
O 	O 	0.28720 0.62870 0.67040 -1.17300
O 	O 	0.33420 0.58370 0.62880 -0.31000
C 	C 	0.24169 0.62266 0.71788 -0.10700
H 	H 	0.23580 0.62170 0.69570 0.11700
C 	C 	0.33168 0.51681 0.62760 -0.01500
H 	H 	0.31790 0.52830 0.61320 0.06000
O 	O 	0.29390 0.61820 0.67450 1.02000
O 	O 	0.32680 0.58310 0.63470 -0.10400
O 	O 	0.28720 0.12870 0.17040 -1.17600
O 	O 	0.33420 0.08370 0.12880 -0.31100
C 	C 	0.24169 0.12266 0.21788 -0.10900
H 	H 	0.23580 0.12170 0.19570 0.11600
C 	C 	0.33168 0.01681 0.12760 -0.03900
H 	H 	0.31790 0.02830 0.11320 0.06500
O 	O 	0.29390 0.11820 0.17450 1.02300
O 	O 	0.32680 0.08310 0.13470 -0.10300
O 	O 	0.78720 0.62870 0.17040 -1.17400
O 	O 	0.83420 0.58370 0.12880 -0.31100
C 	C 	0.74169 0.62266 0.21788 -0.10800
H 	H 	0.73580 0.62170 0.19570 0.11600
C 	C 	0.83168 0.51681 0.12760 -0.01600
H 	H 	0.81790 0.52830 0.11320 0.05900
O 	O 	0.79390 0.61820 0.17450 1.02100
O 	O 	0.82680 0.58310 0.13470 -0.10400
O 	O 	0.78720 0.12870 0.67040 -1.17500
O 	O 	0.83420 0.08370 0.62880 -0.31100
C 	C 	0.74169 0.12266 0.71788 -0.10900
H 	H 	0.73580 0.12170 0.69570 0.11600
C 	C 	0.83168 0.01681 0.62760 -0.03800
H 	H 	0.81790 0.02830 0.61320 0.06500
O 	O 	0.79390 0.11820 0.67450 1.02200
O 	O 	0.82680 0.08310 0.63470 -0.10300
O 	O 	0.28720 0.37130 0.32960 -1.17400
O 	O 	0.33420 0.41630 0.37120 -0.31100
C 	C 	0.24169 0.37734 0.28212 -0.10800
H 	H 	0.23580 0.37830 0.30430 0.11700
C 	C 	0.33168 0.48319 0.37240 -0.01600
H 	H 	0.31790 0.47170 0.38680 0.05900
O 	O 	0.29390 0.38180 0.32550 1.02100
O 	O 	0.32680 0.41690 0.36530 -0.10400
O 	O 	0.28720 0.87130 0.82960 -1.17200
O 	O 	0.33420 0.91630 0.87120 -0.31100
C 	C 	0.24169 0.87734 0.78212 -0.10800
H 	H 	0.23580 0.87830 0.80430 0.11700
C 	C 	0.33168 0.98319 0.87240 0.00700
H 	H 	0.31790 0.97170 0.88680 0.05300
O 	O 	0.29390 0.88180 0.82550 1.01800
O 	O 	0.32680 0.91690 0.86530 -0.10400
O 	O 	0.78720 0.37130 0.82960 -1.17400
O 	O 	0.83420 0.41630 0.87120 -0.31100
C 	C 	0.74169 0.37734 0.78212 -0.10800
H 	H 	0.73580 0.37830 0.80430 0.11600
C 	C 	0.83168 0.48319 0.87240 -0.01600
H 	H 	0.81790 0.47170 0.88680 0.05900
O 	O 	0.79390 0.38180 0.82550 1.02000
O 	O 	0.82680 0.41690 0.86530 -0.10300
O 	O 	0.78720 0.87130 0.32960 -1.17300
O 	O 	0.83420 0.91630 0.37120 -0.31100
C 	C 	0.74169 0.87734 0.28212 -0.10800
H 	H 	0.73580 0.87830 0.30430 0.11700
C 	C 	0.83168 0.98319 0.37240 0.00700
H 	H 	0.81790 0.97170 0.38680 0.05300
O 	O 	0.79390 0.88180 0.32550 1.01900
O 	O 	0.82680 0.91690 0.36530 -0.10400
O 	O 	0.71280 0.62870 0.32960 -1.17400
O 	O 	0.66580 0.58370 0.37120 -0.31100
C 	C 	0.75831 0.62266 0.28212 -0.10800
H 	H 	0.76420 0.62170 0.30430 0.11700
C 	C 	0.66832 0.51681 0.37240 -0.01600
H 	H 	0.68210 0.52830 0.38680 0.05900
O 	O 	0.70610 0.61820 0.32550 1.02000
O 	O 	0.67320 0.58310 0.36530 -0.10400
O 	O 	0.71280 0.12870 0.82960 -1.17500
O 	O 	0.66580 0.08370 0.87120 -0.31100
C 	C 	0.75831 0.12266 0.78212 -0.10900
H 	H 	0.76420 0.12170 0.80430 0.11600
C 	C 	0.66832 0.01681 0.87240 -0.03800
H 	H 	0.68210 0.02830 0.88680 0.06500
O 	O 	0.70610 0.11820 0.82550 1.02100
O 	O 	0.67320 0.08310 0.86530 -0.10200
O 	O 	0.21280 0.62870 0.82960 -1.17300
O 	O 	0.16580 0.58370 0.87120 -0.31100
C 	C 	0.25831 0.62266 0.78212 -0.10800
H 	H 	0.26420 0.62170 0.80430 0.11600
C 	C 	0.16832 0.51681 0.87240 -0.01600
H 	H 	0.18210 0.52830 0.88680 0.05900
O 	O 	0.20610 0.61820 0.82550 1.02000
O 	O 	0.17320 0.58310 0.86530 -0.10400
O 	O 	0.21280 0.12870 0.32960 -1.17500
O 	O 	0.16580 0.08370 0.37120 -0.31100
C 	C 	0.25831 0.12266 0.28212 -0.10900
H 	H 	0.26420 0.12170 0.30430 0.11600
C 	C 	0.16832 0.01681 0.37240 -0.03900
H 	H 	0.18210 0.02830 0.38680 0.06500
O 	O 	0.20610 0.11820 0.32550 1.02200
O 	O 	0.17320 0.08310 0.36530 -0.10300
O 	O 	0.67040 0.71280 0.37130 -1.17400
O 	O 	0.62880 0.66580 0.41630 -0.31100
C 	C 	0.71788 0.75831 0.37734 -0.10800
H 	H 	0.69570 0.76420 0.37830 0.11700
C 	C 	0.62760 0.66832 0.48319 -0.01600
H 	H 	0.61320 0.68210 0.47170 0.05900
O 	O 	0.67450 0.70610 0.38180 1.02000
O 	O 	0.63470 0.67320 0.41690 -0.10400
O 	O 	0.67040 0.21280 0.87130 -1.17200
O 	O 	0.62880 0.16580 0.91630 -0.31100
C 	C 	0.71788 0.25831 0.87734 -0.10800
H 	H 	0.69570 0.26420 0.87830 0.11700
C 	C 	0.62760 0.16832 0.98319 0.00700
H 	H 	0.61320 0.18210 0.97170 0.05300
O 	O 	0.67450 0.20610 0.88180 1.01900
O 	O 	0.63470 0.17320 0.91690 -0.10500
O 	O 	0.17040 0.71280 0.87130 -1.17300
O 	O 	0.12880 0.66580 0.91630 -0.31100
C 	C 	0.21788 0.75831 0.87734 -0.10800
H 	H 	0.19570 0.76420 0.87830 0.11700
C 	C 	0.12760 0.66832 0.98319 0.00600
H 	H 	0.11320 0.68210 0.97170 0.05300
O 	O 	0.17450 0.70610 0.88180 1.01900
O 	O 	0.13470 0.67320 0.91690 -0.10500
O 	O 	0.17040 0.21280 0.37130 -1.17400
O 	O 	0.12880 0.16580 0.41630 -0.31100
C 	C 	0.21788 0.25831 0.37734 -0.10800
H 	H 	0.19570 0.26420 0.37830 0.11700
C 	C 	0.12760 0.16832 0.48319 -0.01600
H 	H 	0.11320 0.18210 0.47170 0.05900
O 	O 	0.17450 0.20610 0.38180 1.02100
O 	O 	0.13470 0.17320 0.41690 -0.10400
O 	O 	0.67040 0.28720 0.62870 -1.17400
O 	O 	0.62880 0.33420 0.58370 -0.31100
C 	C 	0.71788 0.24169 0.62266 -0.10800
H 	H 	0.69570 0.23580 0.62170 0.11600
C 	C 	0.62760 0.33168 0.51681 -0.01600
H 	H 	0.61320 0.31790 0.52830 0.05900
O 	O 	0.67450 0.29390 0.61820 1.02000
O 	O 	0.63470 0.32680 0.58310 -0.10400
O 	O 	0.67040 0.78720 0.12870 -1.17500
O 	O 	0.62880 0.83420 0.08370 -0.31100
C 	C 	0.71788 0.74169 0.12266 -0.10900
H 	H 	0.69570 0.73580 0.12170 0.11600
C 	C 	0.62760 0.83168 0.01681 -0.03800
H 	H 	0.61320 0.81790 0.02830 0.06500
O 	O 	0.67450 0.79390 0.11820 1.02200
O 	O 	0.63470 0.82680 0.08310 -0.10300
O 	O 	0.17040 0.28720 0.12870 -1.17600
O 	O 	0.12880 0.33420 0.08370 -0.31100
C 	C 	0.21788 0.24169 0.12266 -0.10900
H 	H 	0.19570 0.23580 0.12170 0.11600
C 	C 	0.12760 0.33168 0.01681 -0.03900
H 	H 	0.11320 0.31790 0.02830 0.06500
O 	O 	0.17450 0.29390 0.11820 1.02300
O 	O 	0.13470 0.32680 0.08310 -0.10300
O 	O 	0.17040 0.78720 0.62870 -1.17400
O 	O 	0.12880 0.83420 0.58370 -0.31100
C 	C 	0.21788 0.74169 0.62266 -0.10800
H 	H 	0.19570 0.73580 0.62170 0.11600
C 	C 	0.12760 0.83168 0.51681 -0.01600
H 	H 	0.11320 0.81790 0.52830 0.05900
O 	O 	0.17450 0.79390 0.61820 1.02100
O 	O 	0.13470 0.82680 0.58310 -0.10400
O 	O 	0.32960 0.28720 0.37130 -1.17400
O 	O 	0.37120 0.33420 0.41630 -0.31100
C 	C 	0.28212 0.24169 0.37734 -0.10800
H 	H 	0.30430 0.23580 0.37830 0.11700
C 	C 	0.37240 0.33168 0.48319 -0.01600
H 	H 	0.38680 0.31790 0.47170 0.05900
O 	O 	0.32550 0.29390 0.38180 1.02100
O 	O 	0.36530 0.32680 0.41690 -0.10400
O 	O 	0.32960 0.78720 0.87130 -1.17300
O 	O 	0.37120 0.83420 0.91630 -0.31100
C 	C 	0.28212 0.74169 0.87734 -0.10800
H 	H 	0.30430 0.73580 0.87830 0.11700
C 	C 	0.37240 0.83168 0.98319 0.00700
H 	H 	0.38680 0.81790 0.97170 0.05300
O 	O 	0.32550 0.79390 0.88180 1.01900
O 	O 	0.36530 0.82680 0.91690 -0.10400
O 	O 	0.82960 0.28720 0.87130 -1.17200
O 	O 	0.87120 0.33420 0.91630 -0.31100
C 	C 	0.78212 0.24169 0.87734 -0.10800
H 	H 	0.80430 0.23580 0.87830 0.11700
C 	C 	0.87240 0.33168 0.98319 0.00700
H 	H 	0.88680 0.31790 0.97170 0.05300
O 	O 	0.82550 0.29390 0.88180 1.01800
O 	O 	0.86530 0.32680 0.91690 -0.10400
O 	O 	0.82960 0.78720 0.37130 -1.17400
O 	O 	0.87120 0.83420 0.41630 -0.31100
C 	C 	0.78212 0.74169 0.37734 -0.10800
H 	H 	0.80430 0.73580 0.37830 0.11600
C 	C 	0.87240 0.83168 0.48319 -0.01600
H 	H 	0.88680 0.81790 0.47170 0.05900
O 	O 	0.82550 0.79390 0.38180 1.02000
O 	O 	0.86530 0.82680 0.41690 -0.10300
O 	O 	0.32960 0.71280 0.62870 -1.17400
O 	O 	0.37120 0.66580 0.58370 -0.31100
C 	C 	0.28212 0.75831 0.62266 -0.10800
H 	H 	0.30430 0.76420 0.62170 0.11700
C 	C 	0.37240 0.66832 0.51681 -0.01600
H 	H 	0.38680 0.68210 0.52830 0.05900
O 	O 	0.32550 0.70610 0.61820 1.02000
O 	O 	0.36530 0.67320 0.58310 -0.10400
O 	O 	0.32960 0.21280 0.12870 -1.17500
O 	O 	0.37120 0.16580 0.08370 -0.31100
C 	C 	0.28212 0.25831 0.12266 -0.10900
H 	H 	0.30430 0.26420 0.12170 0.11600
C 	C 	0.37240 0.16832 0.01681 -0.03900
H 	H 	0.38680 0.18210 0.02830 0.06500
O 	O 	0.32550 0.20610 0.11820 1.02200
O 	O 	0.36530 0.17320 0.08310 -0.10300
O 	O 	0.82960 0.71280 0.12870 -1.17500
O 	O 	0.87120 0.66580 0.08370 -0.31100
C 	C 	0.78212 0.75831 0.12266 -0.10900
H 	H 	0.80430 0.76420 0.12170 0.11600
C 	C 	0.87240 0.66832 0.01681 -0.03800
H 	H 	0.88680 0.68210 0.02830 0.06500
O 	O 	0.82550 0.70610 0.11820 1.02100
O 	O 	0.86530 0.67320 0.08310 -0.10200
O 	O 	0.82960 0.21280 0.62870 -1.17300
O 	O 	0.87120 0.16580 0.58370 -0.31100
C 	C 	0.78212 0.25831 0.62266 -0.10800
H 	H 	0.80430 0.26420 0.62170 0.11600
C 	C 	0.87240 0.16832 0.51681 -0.01600
H 	H 	0.88680 0.18210 0.52830 0.05900
O 	O 	0.82550 0.20610 0.61820 1.02000
O 	O 	0.86530 0.17320 0.58310 -0.10400
O 	O 	0.37130 0.67040 0.71280 -1.17400
O 	O 	0.41630 0.62880 0.66580 -0.31100
C 	C 	0.37734 0.71788 0.75831 -0.10800
H 	H 	0.37830 0.69570 0.76420 0.11700
C 	C 	0.48319 0.62760 0.66832 -0.01600
H 	H 	0.47170 0.61320 0.68210 0.05900
O 	O 	0.38180 0.67450 0.70610 1.02000
O 	O 	0.41690 0.63470 0.67320 -0.10400
O 	O 	0.37130 0.17040 0.21280 -1.17400
O 	O 	0.41630 0.12880 0.16580 -0.31100
C 	C 	0.37734 0.21788 0.25831 -0.10800
H 	H 	0.37830 0.19570 0.26420 0.11700
C 	C 	0.48319 0.12760 0.16832 -0.01600
H 	H 	0.47170 0.11320 0.18210 0.05900
O 	O 	0.38180 0.17450 0.20610 1.02100
O 	O 	0.41690 0.13470 0.17320 -0.10400
O 	O 	0.87130 0.67040 0.21280 -1.17200
O 	O 	0.91630 0.62880 0.16580 -0.31100
C 	C 	0.87734 0.71788 0.25831 -0.10800
H 	H 	0.87830 0.69570 0.26420 0.11700
C 	C 	0.98319 0.62760 0.16832 0.00700
H 	H 	0.97170 0.61320 0.18210 0.05300
O 	O 	0.88180 0.67450 0.20610 1.01900
O 	O 	0.91690 0.63470 0.17320 -0.10500
O 	O 	0.87130 0.17040 0.71280 -1.17300
O 	O 	0.91630 0.12880 0.66580 -0.31100
C 	C 	0.87734 0.21788 0.75831 -0.10800
H 	H 	0.87830 0.19570 0.76420 0.11700
C 	C 	0.98319 0.12760 0.66832 0.00600
H 	H 	0.97170 0.11320 0.68210 0.05300
O 	O 	0.88180 0.17450 0.70610 1.01900
O 	O 	0.91690 0.13470 0.67320 -0.10500
O 	O 	0.62870 0.67040 0.28720 -1.17400
O 	O 	0.58370 0.62880 0.33420 -0.31100
C 	C 	0.62266 0.71788 0.24169 -0.10800
H 	H 	0.62170 0.69570 0.23580 0.11600
C 	C 	0.51681 0.62760 0.33168 -0.01600
H 	H 	0.52830 0.61320 0.31790 0.05900
O 	O 	0.61820 0.67450 0.29390 1.02000
O 	O 	0.58310 0.63470 0.32680 -0.10400
O 	O 	0.62870 0.17040 0.78720 -1.17400
O 	O 	0.58370 0.12880 0.83420 -0.31100
C 	C 	0.62266 0.21788 0.74169 -0.10800
H 	H 	0.62170 0.19570 0.73580 0.11600
C 	C 	0.51681 0.12760 0.83168 -0.01600
H 	H 	0.52830 0.11320 0.81790 0.05900
O 	O 	0.61820 0.17450 0.79390 1.02100
O 	O 	0.58310 0.13470 0.82680 -0.10400
O 	O 	0.12870 0.67040 0.78720 -1.17500
O 	O 	0.08370 0.62880 0.83420 -0.31100
C 	C 	0.12266 0.71788 0.74169 -0.10900
H 	H 	0.12170 0.69570 0.73580 0.11600
C 	C 	0.01681 0.62760 0.83168 -0.03800
H 	H 	0.02830 0.61320 0.81790 0.06500
O 	O 	0.11820 0.67450 0.79390 1.02200
O 	O 	0.08310 0.63470 0.82680 -0.10300
O 	O 	0.12870 0.17040 0.28720 -1.17600
O 	O 	0.08370 0.12880 0.33420 -0.31100
C 	C 	0.12266 0.21788 0.24169 -0.10900
H 	H 	0.12170 0.19570 0.23580 0.11600
C 	C 	0.01681 0.12760 0.33168 -0.03900
H 	H 	0.02830 0.11320 0.31790 0.06500
O 	O 	0.11820 0.17450 0.29390 1.02300
O 	O 	0.08310 0.13470 0.32680 -0.10300
O 	O 	0.37130 0.32960 0.28720 -1.17400
O 	O 	0.41630 0.37120 0.33420 -0.31100
C 	C 	0.37734 0.28212 0.24169 -0.10800
H 	H 	0.37830 0.30430 0.23580 0.11700
C 	C 	0.48319 0.37240 0.33168 -0.01600
H 	H 	0.47170 0.38680 0.31790 0.05900
O 	O 	0.38180 0.32550 0.29390 1.02100
O 	O 	0.41690 0.36530 0.32680 -0.10400
O 	O 	0.37130 0.82960 0.78720 -1.17400
O 	O 	0.41630 0.87120 0.83420 -0.31100
C 	C 	0.37734 0.78212 0.74169 -0.10800
H 	H 	0.37830 0.80430 0.73580 0.11600
C 	C 	0.48319 0.87240 0.83168 -0.01600
H 	H 	0.47170 0.88680 0.81790 0.05900
O 	O 	0.38180 0.82550 0.79390 1.02000
O 	O 	0.41690 0.86530 0.82680 -0.10300
O 	O 	0.87130 0.32960 0.78720 -1.17300
O 	O 	0.91630 0.37120 0.83420 -0.31100
C 	C 	0.87734 0.28212 0.74169 -0.10800
H 	H 	0.87830 0.30430 0.73580 0.11700
C 	C 	0.98319 0.37240 0.83168 0.00700
H 	H 	0.97170 0.38680 0.81790 0.05300
O 	O 	0.88180 0.32550 0.79390 1.01900
O 	O 	0.91690 0.36530 0.82680 -0.10400
O 	O 	0.87130 0.82960 0.28720 -1.17200
O 	O 	0.91630 0.87120 0.33420 -0.31100
C 	C 	0.87734 0.78212 0.24169 -0.10800
H 	H 	0.87830 0.80430 0.23580 0.11700
C 	C 	0.98319 0.87240 0.33168 0.00700
H 	H 	0.97170 0.88680 0.31790 0.05300
O 	O 	0.88180 0.82550 0.29390 1.01800
O 	O 	0.91690 0.86530 0.32680 -0.10400
O 	O 	0.62870 0.32960 0.71280 -1.17400
O 	O 	0.58370 0.37120 0.66580 -0.31100
C 	C 	0.62266 0.28212 0.75831 -0.10800
H 	H 	0.62170 0.30430 0.76420 0.11700
C 	C 	0.51681 0.37240 0.66832 -0.01600
H 	H 	0.52830 0.38680 0.68210 0.05900
O 	O 	0.61820 0.32550 0.70610 1.02000
O 	O 	0.58310 0.36530 0.67320 -0.10400
O 	O 	0.62870 0.82960 0.21280 -1.17300
O 	O 	0.58370 0.87120 0.16580 -0.31100
C 	C 	0.62266 0.78212 0.25831 -0.10800
H 	H 	0.62170 0.80430 0.26420 0.11600
C 	C 	0.51681 0.87240 0.16832 -0.01600
H 	H 	0.52830 0.88680 0.18210 0.05900
O 	O 	0.61820 0.82550 0.20610 1.02000
O 	O 	0.58310 0.86530 0.17320 -0.10400
O 	O 	0.12870 0.32960 0.21280 -1.17500
O 	O 	0.08370 0.37120 0.16580 -0.31100
C 	C 	0.12266 0.28212 0.25831 -0.10900
H 	H 	0.12170 0.30430 0.26420 0.11600
C 	C 	0.01681 0.37240 0.16832 -0.03900
H 	H 	0.02830 0.38680 0.18210 0.06500
O 	O 	0.11820 0.32550 0.20610 1.02200
O 	O 	0.08310 0.36530 0.17320 -0.10300
O 	O 	0.12870 0.82960 0.71280 -1.17500
O 	O 	0.08370 0.87120 0.66580 -0.31100
C 	C 	0.12266 0.78212 0.75831 -0.10900
H 	H 	0.12170 0.80430 0.76420 0.11600
C 	C 	0.01681 0.87240 0.66832 -0.03800
H 	H 	0.02830 0.88680 0.68210 0.06500
O 	O 	0.11820 0.82550 0.70610 1.02100
O 	O 	0.08310 0.86530 0.67320 -0.10200
O 	O 	0.37130 0.71280 0.32960 -1.17400
O 	O 	0.41630 0.66580 0.37120 -0.31100
C 	C 	0.37734 0.75831 0.28212 -0.10800
H 	H 	0.37830 0.76420 0.30430 0.11700
C 	C 	0.48319 0.66832 0.37240 -0.01600
H 	H 	0.47170 0.68210 0.38680 0.05900
O 	O 	0.38180 0.70610 0.32550 1.02100
O 	O 	0.41690 0.67320 0.36530 -0.10400
O 	O 	0.37130 0.21280 0.82960 -1.17400
O 	O 	0.41630 0.16580 0.87120 -0.31100
C 	C 	0.37734 0.25831 0.78212 -0.10800
H 	H 	0.37830 0.26420 0.80430 0.11700
C 	C 	0.48319 0.16832 0.87240 -0.01600
H 	H 	0.47170 0.18210 0.88680 0.05900
O 	O 	0.38180 0.20610 0.82550 1.02000
O 	O 	0.41690 0.17320 0.86530 -0.10400
O 	O 	0.87130 0.71280 0.82960 -1.17200
O 	O 	0.91630 0.66580 0.87120 -0.31100
C 	C 	0.87734 0.75831 0.78212 -0.10800
H 	H 	0.87830 0.76420 0.80430 0.11700
C 	C 	0.98319 0.66832 0.87240 0.00700
H 	H 	0.97170 0.68210 0.88680 0.05300
O 	O 	0.88180 0.70610 0.82550 1.01800
O 	O 	0.91690 0.67320 0.86530 -0.10400
O 	O 	0.87130 0.21280 0.32960 -1.17300
O 	O 	0.91630 0.16580 0.37120 -0.31100
C 	C 	0.87734 0.25831 0.28212 -0.10800
H 	H 	0.87830 0.26420 0.30430 0.11700
C 	C 	0.98319 0.16832 0.37240 0.00700
H 	H 	0.97170 0.18210 0.38680 0.05300
O 	O 	0.88180 0.20610 0.32550 1.01900
O 	O 	0.91690 0.17320 0.36530 -0.10500
O 	O 	0.62870 0.28720 0.32960 -1.17400
O 	O 	0.58370 0.33420 0.37120 -0.31100
C 	C 	0.62266 0.24169 0.28212 -0.10800
H 	H 	0.62170 0.23580 0.30430 0.11600
C 	C 	0.51681 0.33168 0.37240 -0.01600
H 	H 	0.52830 0.31790 0.38680 0.05900
O 	O 	0.61820 0.29390 0.32550 1.02100
O 	O 	0.58310 0.32680 0.36530 -0.10400
O 	O 	0.62870 0.78720 0.82960 -1.17300
O 	O 	0.58370 0.83420 0.87120 -0.31100
C 	C 	0.62266 0.74169 0.78212 -0.10800
H 	H 	0.62170 0.73580 0.80430 0.11600
C 	C 	0.51681 0.83168 0.87240 -0.01600
H 	H 	0.52830 0.81790 0.88680 0.05900
O 	O 	0.61820 0.79390 0.82550 1.02000
O 	O 	0.58310 0.82680 0.86530 -0.10300
O 	O 	0.12870 0.28720 0.82960 -1.17500
O 	O 	0.08370 0.33420 0.87120 -0.31100
C 	C 	0.12266 0.24169 0.78212 -0.10800
H 	H 	0.12170 0.23580 0.80430 0.11600
C 	C 	0.01681 0.33168 0.87240 -0.03800
H 	H 	0.02830 0.31790 0.88680 0.06500
O 	O 	0.11820 0.29390 0.82550 1.02200
O 	O 	0.08310 0.32680 0.86530 -0.10200
O 	O 	0.12870 0.78720 0.32960 -1.17500
O 	O 	0.08370 0.83420 0.37120 -0.31100
C 	C 	0.12266 0.74169 0.28212 -0.10800
H 	H 	0.12170 0.73580 0.30430 0.11600
C 	C 	0.01681 0.83168 0.37240 -0.03800
H 	H 	0.02830 0.81790 0.38680 0.06500
O 	O 	0.11820 0.79390 0.32550 1.02200
O 	O 	0.08310 0.82680 0.36530 -0.10300
O 	O 	0.37130 0.28720 0.67040 -1.17400
O 	O 	0.41630 0.33420 0.62880 -0.31100
C 	C 	0.37734 0.24169 0.71788 -0.10800
H 	H 	0.37830 0.23580 0.69570 0.11600
C 	C 	0.48319 0.33168 0.62760 -0.01600
H 	H 	0.47170 0.31790 0.61320 0.05900
O 	O 	0.38180 0.29390 0.67450 1.02100
O 	O 	0.41690 0.32680 0.63470 -0.10400
O 	O 	0.37130 0.78720 0.17040 -1.17400
O 	O 	0.41630 0.83420 0.12880 -0.31100
C 	C 	0.37734 0.74169 0.21788 -0.10800
H 	H 	0.37830 0.73580 0.19570 0.11700
C 	C 	0.48319 0.83168 0.12760 -0.01600
H 	H 	0.47170 0.81790 0.11320 0.05900
O 	O 	0.38180 0.79390 0.17450 1.02100
O 	O 	0.41690 0.82680 0.13470 -0.10400
O 	O 	0.87130 0.28720 0.17040 -1.17300
O 	O 	0.91630 0.33420 0.12880 -0.31100
C 	C 	0.87734 0.24169 0.21788 -0.10800
H 	H 	0.87830 0.23580 0.19570 0.11700
C 	C 	0.98319 0.33168 0.12760 0.00700
H 	H 	0.97170 0.31790 0.11320 0.05300
O 	O 	0.88180 0.29390 0.17450 1.02000
O 	O 	0.91690 0.32680 0.13470 -0.10500
O 	O 	0.87130 0.78720 0.67040 -1.17200
O 	O 	0.91630 0.83420 0.62880 -0.31100
C 	C 	0.87734 0.74169 0.71788 -0.10800
H 	H 	0.87830 0.73580 0.69570 0.11700
C 	C 	0.98319 0.83168 0.62760 0.00700
H 	H 	0.97170 0.81790 0.61320 0.05300
O 	O 	0.88180 0.79390 0.67450 1.01900
O 	O 	0.91690 0.82680 0.63470 -0.10400
O 	O 	0.62870 0.71280 0.67040 -1.17400
O 	O 	0.58370 0.66580 0.62880 -0.31100
C 	C 	0.62266 0.75831 0.71788 -0.10800
H 	H 	0.62170 0.76420 0.69570 0.11600
C 	C 	0.51681 0.66832 0.62760 -0.01600
H 	H 	0.52830 0.68210 0.61320 0.05900
O 	O 	0.61820 0.70610 0.67450 1.02000
O 	O 	0.58310 0.67320 0.63470 -0.10400
O 	O 	0.62870 0.21280 0.17040 -1.17400
O 	O 	0.58370 0.16580 0.12880 -0.31100
C 	C 	0.62266 0.25831 0.21788 -0.10800
H 	H 	0.62170 0.26420 0.19570 0.11700
C 	C 	0.51681 0.16832 0.12760 -0.01600
H 	H 	0.52830 0.18210 0.11320 0.05900
O 	O 	0.61820 0.20610 0.17450 1.02100
O 	O 	0.58310 0.17320 0.13470 -0.10400
O 	O 	0.12870 0.71280 0.17040 -1.17600
O 	O 	0.08370 0.66580 0.12880 -0.31100
C 	C 	0.12266 0.75831 0.21788 -0.10900
H 	H 	0.12170 0.76420 0.19570 0.11600
C 	C 	0.01681 0.66832 0.12760 -0.03900
H 	H 	0.02830 0.68210 0.11320 0.06500
O 	O 	0.11820 0.70610 0.17450 1.02200
O 	O 	0.08310 0.67320 0.13470 -0.10300
O 	O 	0.12870 0.21280 0.67040 -1.17500
O 	O 	0.08370 0.16580 0.62880 -0.31100
C 	C 	0.12266 0.25831 0.71788 -0.10900
H 	H 	0.12170 0.26420 0.69570 0.11600
C 	C 	0.01681 0.16832 0.62760 -0.03900
H 	H 	0.02830 0.18210 0.61320 0.06500
O 	O 	0.11820 0.20610 0.67450 1.02200
O 	O 	0.08310 0.17320 0.63470 -0.10300
O 	O 	0.71280 0.67040 0.62870 -1.17400
O 	O 	0.66580 0.62880 0.58370 -0.31100
C 	C 	0.75831 0.71788 0.62266 -0.10800
H 	H 	0.76420 0.69570 0.62170 0.11600
C 	C 	0.66832 0.62760 0.51681 -0.01600
H 	H 	0.68210 0.61320 0.52830 0.05900
O 	O 	0.70610 0.67450 0.61820 1.02000
O 	O 	0.67320 0.63470 0.58310 -0.10400
O 	O 	0.71280 0.17040 0.12870 -1.17600
O 	O 	0.66580 0.12880 0.08370 -0.31100
C 	C 	0.75831 0.21788 0.12266 -0.10900
H 	H 	0.76420 0.19570 0.12170 0.11600
C 	C 	0.66832 0.12760 0.01681 -0.03900
H 	H 	0.68210 0.11320 0.02830 0.06500
O 	O 	0.70610 0.17450 0.11820 1.02200
O 	O 	0.67320 0.13470 0.08310 -0.10300
O 	O 	0.21280 0.67040 0.12870 -1.17500
O 	O 	0.16580 0.62880 0.08370 -0.31100
C 	C 	0.25831 0.71788 0.12266 -0.10900
H 	H 	0.26420 0.69570 0.12170 0.11600
C 	C 	0.16832 0.62760 0.01681 -0.03900
H 	H 	0.18210 0.61320 0.02830 0.06500
O 	O 	0.20610 0.67450 0.11820 1.02200
O 	O 	0.17320 0.63470 0.08310 -0.10300
O 	O 	0.21280 0.17040 0.62870 -1.17400
O 	O 	0.16580 0.12880 0.58370 -0.31100
C 	C 	0.25831 0.21788 0.62266 -0.10800
H 	H 	0.26420 0.19570 0.62170 0.11700
C 	C 	0.16832 0.12760 0.51681 -0.01600
H 	H 	0.18210 0.11320 0.52830 0.05900
O 	O 	0.20610 0.17450 0.61820 1.02100
O 	O 	0.17320 0.13470 0.58310 -0.10400
O 	O 	0.28720 0.67040 0.37130 -1.17400
O 	O 	0.33420 0.62880 0.41630 -0.31100
C 	C 	0.24169 0.71788 0.37734 -0.10800
H 	H 	0.23580 0.69570 0.37830 0.11600
C 	C 	0.33168 0.62760 0.48319 -0.01600
H 	H 	0.31790 0.61320 0.47170 0.05900
O 	O 	0.29390 0.67450 0.38180 1.02100
O 	O 	0.32680 0.63470 0.41690 -0.10400
O 	O 	0.28720 0.17040 0.87130 -1.17300
O 	O 	0.33420 0.12880 0.91630 -0.31100
C 	C 	0.24169 0.21788 0.87734 -0.10800
H 	H 	0.23580 0.19570 0.87830 0.11700
C 	C 	0.33168 0.12760 0.98319 0.00700
H 	H 	0.31790 0.11320 0.97170 0.05300
O 	O 	0.29390 0.17450 0.88180 1.02000
O 	O 	0.32680 0.13470 0.91690 -0.10500
O 	O 	0.78720 0.67040 0.87130 -1.17200
O 	O 	0.83420 0.62880 0.91630 -0.31100
C 	C 	0.74169 0.71788 0.87734 -0.10800
H 	H 	0.73580 0.69570 0.87830 0.11700
C 	C 	0.83168 0.62760 0.98319 0.00700
H 	H 	0.81790 0.61320 0.97170 0.05300
O 	O 	0.79390 0.67450 0.88180 1.01900
O 	O 	0.82680 0.63470 0.91690 -0.10400
O 	O 	0.78720 0.17040 0.37130 -1.17400
O 	O 	0.83420 0.12880 0.41630 -0.31100
C 	C 	0.74169 0.21788 0.37734 -0.10800
H 	H 	0.73580 0.19570 0.37830 0.11700
C 	C 	0.83168 0.12760 0.48319 -0.01600
H 	H 	0.81790 0.11320 0.47170 0.05900
O 	O 	0.79390 0.17450 0.38180 1.02100
O 	O 	0.82680 0.13470 0.41690 -0.10400
O 	O 	0.28720 0.32960 0.62870 -1.17400
O 	O 	0.33420 0.37120 0.58370 -0.31100
C 	C 	0.24169 0.28212 0.62266 -0.10800
H 	H 	0.23580 0.30430 0.62170 0.11600
C 	C 	0.33168 0.37240 0.51681 -0.01600
H 	H 	0.31790 0.38680 0.52830 0.05900
O 	O 	0.29390 0.32550 0.61820 1.02100
O 	O 	0.32680 0.36530 0.58310 -0.10400
O 	O 	0.28720 0.82960 0.12870 -1.17500
O 	O 	0.33420 0.87120 0.08370 -0.31100
C 	C 	0.24169 0.78212 0.12266 -0.10800
H 	H 	0.23580 0.80430 0.12170 0.11600
C 	C 	0.33168 0.87240 0.01681 -0.03800
H 	H 	0.31790 0.88680 0.02830 0.06500
O 	O 	0.29390 0.82550 0.11820 1.02200
O 	O 	0.32680 0.86530 0.08310 -0.10200
O 	O 	0.78720 0.32960 0.12870 -1.17500
O 	O 	0.83420 0.37120 0.08370 -0.31100
C 	C 	0.74169 0.28212 0.12266 -0.10800
H 	H 	0.73580 0.30430 0.12170 0.11600
C 	C 	0.83168 0.37240 0.01681 -0.03800
H 	H 	0.81790 0.38680 0.02830 0.06500
O 	O 	0.79390 0.32550 0.11820 1.02200
O 	O 	0.82680 0.36530 0.08310 -0.10300
O 	O 	0.78720 0.82960 0.62870 -1.17300
O 	O 	0.83420 0.87120 0.58370 -0.31100
C 	C 	0.74169 0.78212 0.62266 -0.10800
H 	H 	0.73580 0.80430 0.62170 0.11600
C 	C 	0.83168 0.87240 0.51681 -0.01600
H 	H 	0.81790 0.88680 0.52830 0.05900
O 	O 	0.79390 0.82550 0.61820 1.02000
O 	O 	0.82680 0.86530 0.58310 -0.10300
O 	O 	0.71280 0.32960 0.37130 -1.17400
O 	O 	0.66580 0.37120 0.41630 -0.31100
C 	C 	0.75831 0.28212 0.37734 -0.10800
H 	H 	0.76420 0.30430 0.37830 0.11700
C 	C 	0.66832 0.37240 0.48319 -0.01600
H 	H 	0.68210 0.38680 0.47170 0.05900
O 	O 	0.70610 0.32550 0.38180 1.02100
O 	O 	0.67320 0.36530 0.41690 -0.10400
O 	O 	0.71280 0.82960 0.87130 -1.17200
O 	O 	0.66580 0.87120 0.91630 -0.31100
C 	C 	0.75831 0.78212 0.87734 -0.10800
H 	H 	0.76420 0.80430 0.87830 0.11700
C 	C 	0.66832 0.87240 0.98319 0.00700
H 	H 	0.68210 0.88680 0.97170 0.05300
O 	O 	0.70610 0.82550 0.88180 1.01800
O 	O 	0.67320 0.86530 0.91690 -0.10400
O 	O 	0.21280 0.32960 0.87130 -1.17300
O 	O 	0.16580 0.37120 0.91630 -0.31100
C 	C 	0.25831 0.28212 0.87734 -0.10800
H 	H 	0.26420 0.30430 0.87830 0.11700
C 	C 	0.16832 0.37240 0.98319 0.00700
H 	H 	0.18210 0.38680 0.97170 0.05300
O 	O 	0.20610 0.32550 0.88180 1.01900
O 	O 	0.17320 0.36530 0.91690 -0.10500
O 	O 	0.21280 0.82960 0.37130 -1.17400
O 	O 	0.16580 0.87120 0.41630 -0.31100
C 	C 	0.25831 0.78212 0.37734 -0.10800
H 	H 	0.26420 0.80430 0.37830 0.11700
C 	C 	0.16832 0.87240 0.48319 -0.01600
H 	H 	0.18210 0.88680 0.47170 0.05900
O 	O 	0.20610 0.82550 0.38180 1.02000
O 	O 	0.17320 0.86530 0.41690 -0.10400
O 	O 	0.67040 0.37130 0.28720 -1.17400
O 	O 	0.62880 0.41630 0.33420 -0.31100
C 	C 	0.71788 0.37734 0.24169 -0.10800
H 	H 	0.69570 0.37830 0.23580 0.11600
C 	C 	0.62760 0.48319 0.33168 -0.01600
H 	H 	0.61320 0.47170 0.31790 0.05900
O 	O 	0.67450 0.38180 0.29390 1.02100
O 	O 	0.63470 0.41690 0.32680 -0.10400
O 	O 	0.67040 0.87130 0.78720 -1.17200
O 	O 	0.62880 0.91630 0.83420 -0.31100
C 	C 	0.71788 0.87734 0.74169 -0.10800
H 	H 	0.69570 0.87830 0.73580 0.11700
C 	C 	0.62760 0.98319 0.83168 0.00700
H 	H 	0.61320 0.97170 0.81790 0.05300
O 	O 	0.67450 0.88180 0.79390 1.01900
O 	O 	0.63470 0.91690 0.82680 -0.10400
O 	O 	0.17040 0.37130 0.78720 -1.17400
O 	O 	0.12880 0.41630 0.83420 -0.31100
C 	C 	0.21788 0.37734 0.74169 -0.10800
H 	H 	0.19570 0.37830 0.73580 0.11700
C 	C 	0.12760 0.48319 0.83168 -0.01600
H 	H 	0.11320 0.47170 0.81790 0.05900
O 	O 	0.17450 0.38180 0.79390 1.02100
O 	O 	0.13470 0.41690 0.82680 -0.10400
O 	O 	0.17040 0.87130 0.28720 -1.17300
O 	O 	0.12880 0.91630 0.33420 -0.31100
C 	C 	0.21788 0.87734 0.24169 -0.10800
H 	H 	0.19570 0.87830 0.23580 0.11700
C 	C 	0.12760 0.98319 0.33168 0.00700
H 	H 	0.11320 0.97170 0.31790 0.05300
O 	O 	0.17450 0.88180 0.29390 1.02000
O 	O 	0.13470 0.91690 0.32680 -0.10500
O 	O 	0.67040 0.62870 0.71280 -1.17400
O 	O 	0.62880 0.58370 0.66580 -0.31100
C 	C 	0.71788 0.62266 0.75831 -0.10800
H 	H 	0.69570 0.62170 0.76420 0.11600
C 	C 	0.62760 0.51681 0.66832 -0.01600
H 	H 	0.61320 0.52830 0.68210 0.05900
O 	O 	0.67450 0.61820 0.70610 1.02000
O 	O 	0.63470 0.58310 0.67320 -0.10400
O 	O 	0.67040 0.12870 0.21280 -1.17500
O 	O 	0.62880 0.08370 0.16580 -0.31100
C 	C 	0.71788 0.12266 0.25831 -0.10900
H 	H 	0.69570 0.12170 0.26420 0.11600
C 	C 	0.62760 0.01681 0.16832 -0.03900
H 	H 	0.61320 0.02830 0.18210 0.06500
O 	O 	0.67450 0.11820 0.20610 1.02200
O 	O 	0.63470 0.08310 0.17320 -0.10300
O 	O 	0.17040 0.62870 0.21280 -1.17400
O 	O 	0.12880 0.58370 0.16580 -0.31100
C 	C 	0.21788 0.62266 0.25831 -0.10800
H 	H 	0.19570 0.62170 0.26420 0.11700
C 	C 	0.12760 0.51681 0.16832 -0.01600
H 	H 	0.11320 0.52830 0.18210 0.05900
O 	O 	0.17450 0.61820 0.20610 1.02100
O 	O 	0.13470 0.58310 0.17320 -0.10400
O 	O 	0.17040 0.12870 0.71280 -1.17600
O 	O 	0.12880 0.08370 0.66580 -0.31100
C 	C 	0.21788 0.12266 0.75831 -0.10900
H 	H 	0.19570 0.12170 0.76420 0.11600
C 	C 	0.12760 0.01681 0.66832 -0.03900
H 	H 	0.11320 0.02830 0.68210 0.06500
O 	O 	0.17450 0.11820 0.70610 1.02200
O 	O 	0.13470 0.08310 0.67320 -0.10300
O 	O 	0.32960 0.37130 0.71280 -1.17400
O 	O 	0.37120 0.41630 0.66580 -0.31100
C 	C 	0.28212 0.37734 0.75831 -0.10800
H 	H 	0.30430 0.37830 0.76420 0.11700
C 	C 	0.37240 0.48319 0.66832 -0.01600
H 	H 	0.38680 0.47170 0.68210 0.05900
O 	O 	0.32550 0.38180 0.70610 1.02100
O 	O 	0.36530 0.41690 0.67320 -0.10400
O 	O 	0.32960 0.87130 0.21280 -1.17300
O 	O 	0.37120 0.91630 0.16580 -0.31100
C 	C 	0.28212 0.87734 0.25831 -0.10800
H 	H 	0.30430 0.87830 0.26420 0.11700
C 	C 	0.37240 0.98319 0.16832 0.00700
H 	H 	0.38680 0.97170 0.18210 0.05300
O 	O 	0.32550 0.88180 0.20610 1.01900
O 	O 	0.36530 0.91690 0.17320 -0.10500
O 	O 	0.82960 0.37130 0.21280 -1.17400
O 	O 	0.87120 0.41630 0.16580 -0.31100
C 	C 	0.78212 0.37734 0.25831 -0.10800
H 	H 	0.80430 0.37830 0.26420 0.11700
C 	C 	0.87240 0.48319 0.16832 -0.01600
H 	H 	0.88680 0.47170 0.18210 0.05900
O 	O 	0.82550 0.38180 0.20610 1.02000
O 	O 	0.86530 0.41690 0.17320 -0.10400
O 	O 	0.82960 0.87130 0.71280 -1.17200
O 	O 	0.87120 0.91630 0.66580 -0.31100
C 	C 	0.78212 0.87734 0.75831 -0.10800
H 	H 	0.80430 0.87830 0.76420 0.11700
C 	C 	0.87240 0.98319 0.66832 0.00700
H 	H 	0.88680 0.97170 0.68210 0.05300
O 	O 	0.82550 0.88180 0.70610 1.01800
O 	O 	0.86530 0.91690 0.67320 -0.10400
O 	O 	0.32960 0.62870 0.28720 -1.17400
O 	O 	0.37120 0.58370 0.33420 -0.31100
C 	C 	0.28212 0.62266 0.24169 -0.10800
H 	H 	0.30430 0.62170 0.23580 0.11600
C 	C 	0.37240 0.51681 0.33168 -0.01600
H 	H 	0.38680 0.52830 0.31790 0.05900
O 	O 	0.32550 0.61820 0.29390 1.02100
O 	O 	0.36530 0.58310 0.32680 -0.10400
O 	O 	0.32960 0.12870 0.78720 -1.17500
O 	O 	0.37120 0.08370 0.83420 -0.31100
C 	C 	0.28212 0.12266 0.74169 -0.10800
H 	H 	0.30430 0.12170 0.73580 0.11600
C 	C 	0.37240 0.01681 0.83168 -0.03800
H 	H 	0.38680 0.02830 0.81790 0.06500
O 	O 	0.32550 0.11820 0.79390 1.02200
O 	O 	0.36530 0.08310 0.82680 -0.10300
O 	O 	0.82960 0.62870 0.78720 -1.17300
O 	O 	0.87120 0.58370 0.83420 -0.31100
C 	C 	0.78212 0.62266 0.74169 -0.10800
H 	H 	0.80430 0.62170 0.73580 0.11600
C 	C 	0.87240 0.51681 0.83168 -0.01600
H 	H 	0.88680 0.52830 0.81790 0.05900
O 	O 	0.82550 0.61820 0.79390 1.02000
O 	O 	0.86530 0.58310 0.82680 -0.10300
O 	O 	0.82960 0.12870 0.28720 -1.17500
O 	O 	0.87120 0.08370 0.33420 -0.31100
C 	C 	0.78212 0.12266 0.24169 -0.10800
H 	H 	0.80430 0.12170 0.23580 0.11600
C 	C 	0.87240 0.01681 0.33168 -0.03800
H 	H 	0.88680 0.02830 0.31790 0.06500
O 	O 	0.82550 0.11820 0.29390 1.02200
O 	O 	0.86530 0.08310 0.32680 -0.10200
O 	O 	0.28720 0.62870 0.32960 -1.17400
O 	O 	0.33420 0.58370 0.37120 -0.31100
C 	C 	0.24169 0.62266 0.28212 -0.10800
H 	H 	0.23580 0.62170 0.30430 0.11600
C 	C 	0.33168 0.51681 0.37240 -0.01600
H 	H 	0.31790 0.52830 0.38680 0.05900
O 	O 	0.29390 0.61820 0.32550 1.02100
O 	O 	0.32680 0.58310 0.36530 -0.10400
O 	O 	0.28720 0.12870 0.82960 -1.17500
O 	O 	0.33420 0.08370 0.87120 -0.31100
C 	C 	0.24169 0.12266 0.78212 -0.10800
H 	H 	0.23580 0.12170 0.80430 0.11600
C 	C 	0.33168 0.01681 0.87240 -0.03800
H 	H 	0.31790 0.02830 0.88680 0.06500
O 	O 	0.29390 0.11820 0.82550 1.02200
O 	O 	0.32680 0.08310 0.86530 -0.10200
O 	O 	0.78720 0.62870 0.82960 -1.17300
O 	O 	0.83420 0.58370 0.87120 -0.31100
C 	C 	0.74169 0.62266 0.78212 -0.10800
H 	H 	0.73580 0.62170 0.80430 0.11600
C 	C 	0.83168 0.51681 0.87240 -0.01600
H 	H 	0.81790 0.52830 0.88680 0.05900
O 	O 	0.79390 0.61820 0.82550 1.02000
O 	O 	0.82680 0.58310 0.86530 -0.10300
O 	O 	0.78720 0.12870 0.32960 -1.17500
O 	O 	0.83420 0.08370 0.37120 -0.31100
C 	C 	0.74169 0.12266 0.28212 -0.10800
H 	H 	0.73580 0.12170 0.30430 0.11600
C 	C 	0.83168 0.01681 0.37240 -0.03800
H 	H 	0.81790 0.02830 0.38680 0.06500
O 	O 	0.79390 0.11820 0.32550 1.02200
O 	O 	0.82680 0.08310 0.36530 -0.10300
O 	O 	0.71280 0.37130 0.32960 -1.17400
O 	O 	0.66580 0.41630 0.37120 -0.31100
C 	C 	0.75831 0.37734 0.28212 -0.10800
H 	H 	0.76420 0.37830 0.30430 0.11700
C 	C 	0.66832 0.48319 0.37240 -0.01600
H 	H 	0.68210 0.47170 0.38680 0.05900
O 	O 	0.70610 0.38180 0.32550 1.02100
O 	O 	0.67320 0.41690 0.36530 -0.10400
O 	O 	0.71280 0.87130 0.82960 -1.17200
O 	O 	0.66580 0.91630 0.87120 -0.31100
C 	C 	0.75831 0.87734 0.78212 -0.10800
H 	H 	0.76420 0.87830 0.80430 0.11700
C 	C 	0.66832 0.98319 0.87240 0.00700
H 	H 	0.68210 0.97170 0.88680 0.05300
O 	O 	0.70610 0.88180 0.82550 1.01800
O 	O 	0.67320 0.91690 0.86530 -0.10400
O 	O 	0.21280 0.37130 0.82960 -1.17400
O 	O 	0.16580 0.41630 0.87120 -0.31100
C 	C 	0.25831 0.37734 0.78212 -0.10800
H 	H 	0.26420 0.37830 0.80430 0.11700
C 	C 	0.16832 0.48319 0.87240 -0.01600
H 	H 	0.18210 0.47170 0.88680 0.05900
O 	O 	0.20610 0.38180 0.82550 1.02000
O 	O 	0.17320 0.41690 0.86530 -0.10400
O 	O 	0.21280 0.87130 0.32960 -1.17300
O 	O 	0.16580 0.91630 0.37120 -0.31100
C 	C 	0.25831 0.87734 0.28212 -0.10800
H 	H 	0.26420 0.87830 0.30430 0.11700
C 	C 	0.16832 0.98319 0.37240 0.00700
H 	H 	0.18210 0.97170 0.38680 0.05300
O 	O 	0.20610 0.88180 0.32550 1.01900
O 	O 	0.17320 0.91690 0.36530 -0.10500
O 	O 	0.71280 0.62870 0.67040 -1.17400
O 	O 	0.66580 0.58370 0.62880 -0.31100
C 	C 	0.75831 0.62266 0.71788 -0.10800
H 	H 	0.76420 0.62170 0.69570 0.11600
C 	C 	0.66832 0.51681 0.62760 -0.01600
H 	H 	0.68210 0.52830 0.61320 0.05900
O 	O 	0.70610 0.61820 0.67450 1.02000
O 	O 	0.67320 0.58310 0.63470 -0.10400
O 	O 	0.71280 0.12870 0.17040 -1.17600
O 	O 	0.66580 0.08370 0.12880 -0.31100
C 	C 	0.75831 0.12266 0.21788 -0.10900
H 	H 	0.76420 0.12170 0.19570 0.11600
C 	C 	0.66832 0.01681 0.12760 -0.03900
H 	H 	0.68210 0.02830 0.11320 0.06500
O 	O 	0.70610 0.11820 0.17450 1.02200
O 	O 	0.67320 0.08310 0.13470 -0.10300
O 	O 	0.21280 0.62870 0.17040 -1.17400
O 	O 	0.16580 0.58370 0.12880 -0.31100
C 	C 	0.25831 0.62266 0.21788 -0.10800
H 	H 	0.26420 0.62170 0.19570 0.11700
C 	C 	0.16832 0.51681 0.12760 -0.01600
H 	H 	0.18210 0.52830 0.11320 0.05900
O 	O 	0.20610 0.61820 0.17450 1.02100
O 	O 	0.17320 0.58310 0.13470 -0.10400
O 	O 	0.21280 0.12870 0.67040 -1.17500
O 	O 	0.16580 0.08370 0.62880 -0.31100
C 	C 	0.25831 0.12266 0.71788 -0.10900
H 	H 	0.26420 0.12170 0.69570 0.11600
C 	C 	0.16832 0.01681 0.62760 -0.03900
H 	H 	0.18210 0.02830 0.61320 0.06500
O 	O 	0.20610 0.11820 0.67450 1.02200
O 	O 	0.17320 0.08310 0.63470 -0.10300
O 	O 	0.28720 0.37130 0.67040 -1.17400
O 	O 	0.33420 0.41630 0.62880 -0.31100
C 	C 	0.24169 0.37734 0.71788 -0.10800
H 	H 	0.23580 0.37830 0.69570 0.11600
C 	C 	0.33168 0.48319 0.62760 -0.01600
H 	H 	0.31790 0.47170 0.61320 0.05900
O 	O 	0.29390 0.38180 0.67450 1.02100
O 	O 	0.32680 0.41690 0.63470 -0.10400
O 	O 	0.28720 0.87130 0.17040 -1.17300
O 	O 	0.33420 0.91630 0.12880 -0.31100
C 	C 	0.24169 0.87734 0.21788 -0.10800
H 	H 	0.23580 0.87830 0.19570 0.11700
C 	C 	0.33168 0.98319 0.12760 0.00700
H 	H 	0.31790 0.97170 0.11320 0.05300
O 	O 	0.29390 0.88180 0.17450 1.02000
O 	O 	0.32680 0.91690 0.13470 -0.10500
O 	O 	0.78720 0.37130 0.17040 -1.17400
O 	O 	0.83420 0.41630 0.12880 -0.31100
C 	C 	0.74169 0.37734 0.21788 -0.10800
H 	H 	0.73580 0.37830 0.19570 0.11700
C 	C 	0.83168 0.48319 0.12760 -0.01600
H 	H 	0.81790 0.47170 0.11320 0.05900
O 	O 	0.79390 0.38180 0.17450 1.02100
O 	O 	0.82680 0.41690 0.13470 -0.10400
O 	O 	0.78720 0.87130 0.67040 -1.17200
O 	O 	0.83420 0.91630 0.62880 -0.31100
C 	C 	0.74169 0.87734 0.71788 -0.10800
H 	H 	0.73580 0.87830 0.69570 0.11700
C 	C 	0.83168 0.98319 0.62760 0.00700
H 	H 	0.81790 0.97170 0.61320 0.05300
O 	O 	0.79390 0.88180 0.67450 1.01900
O 	O 	0.82680 0.91690 0.63470 -0.10400
O 	O 	0.32960 0.28720 0.62870 -1.17400
O 	O 	0.37120 0.33420 0.58370 -0.31100
C 	C 	0.28212 0.24169 0.62266 -0.10800
H 	H 	0.30430 0.23580 0.62170 0.11600
C 	C 	0.37240 0.33168 0.51681 -0.01600
H 	H 	0.38680 0.31790 0.52830 0.05900
O 	O 	0.32550 0.29390 0.61820 1.02100
O 	O 	0.36530 0.32680 0.58310 -0.10400
O 	O 	0.32960 0.78720 0.12870 -1.17500
O 	O 	0.37120 0.83420 0.08370 -0.31100
C 	C 	0.28212 0.74169 0.12266 -0.10800
H 	H 	0.30430 0.73580 0.12170 0.11600
C 	C 	0.37240 0.83168 0.01681 -0.03800
H 	H 	0.38680 0.81790 0.02830 0.06500
O 	O 	0.32550 0.79390 0.11820 1.02200
O 	O 	0.36530 0.82680 0.08310 -0.10300
O 	O 	0.82960 0.28720 0.12870 -1.17500
O 	O 	0.87120 0.33420 0.08370 -0.31100
C 	C 	0.78212 0.24169 0.12266 -0.10800
H 	H 	0.80430 0.23580 0.12170 0.11600
C 	C 	0.87240 0.33168 0.01681 -0.03800
H 	H 	0.88680 0.31790 0.02830 0.06500
O 	O 	0.82550 0.29390 0.11820 1.02200
O 	O 	0.86530 0.32680 0.08310 -0.10200
O 	O 	0.82960 0.78720 0.62870 -1.17300
O 	O 	0.87120 0.83420 0.58370 -0.31100
C 	C 	0.78212 0.74169 0.62266 -0.10800
H 	H 	0.80430 0.73580 0.62170 0.11600
C 	C 	0.87240 0.83168 0.51681 -0.01600
H 	H 	0.88680 0.81790 0.52830 0.05900
O 	O 	0.82550 0.79390 0.61820 1.02000
O 	O 	0.86530 0.82680 0.58310 -0.10300
O 	O 	0.32960 0.71280 0.37130 -1.17400
O 	O 	0.37120 0.66580 0.41630 -0.31100
C 	C 	0.28212 0.75831 0.37734 -0.10800
H 	H 	0.30430 0.76420 0.37830 0.11700
C 	C 	0.37240 0.66832 0.48319 -0.01600
H 	H 	0.38680 0.68210 0.47170 0.05900
O 	O 	0.32550 0.70610 0.38180 1.02100
O 	O 	0.36530 0.67320 0.41690 -0.10400
O 	O 	0.32960 0.21280 0.87130 -1.17300
O 	O 	0.37120 0.16580 0.91630 -0.31100
C 	C 	0.28212 0.25831 0.87734 -0.10800
H 	H 	0.30430 0.26420 0.87830 0.11700
C 	C 	0.37240 0.16832 0.98319 0.00700
H 	H 	0.38680 0.18210 0.97170 0.05300
O 	O 	0.32550 0.20610 0.88180 1.01900
O 	O 	0.36530 0.17320 0.91690 -0.10500
O 	O 	0.82960 0.71280 0.87130 -1.17200
O 	O 	0.87120 0.66580 0.91630 -0.31100
C 	C 	0.78212 0.75831 0.87734 -0.10800
H 	H 	0.80430 0.76420 0.87830 0.11700
C 	C 	0.87240 0.66832 0.98319 0.00700
H 	H 	0.88680 0.68210 0.97170 0.05300
O 	O 	0.82550 0.70610 0.88180 1.01800
O 	O 	0.86530 0.67320 0.91690 -0.10400
O 	O 	0.82960 0.21280 0.37130 -1.17400
O 	O 	0.87120 0.16580 0.41630 -0.31100
C 	C 	0.78212 0.25831 0.37734 -0.10800
H 	H 	0.80430 0.26420 0.37830 0.11700
C 	C 	0.87240 0.16832 0.48319 -0.01600
H 	H 	0.88680 0.18210 0.47170 0.05900
O 	O 	0.82550 0.20610 0.38180 1.02000
O 	O 	0.86530 0.17320 0.41690 -0.10400
O 	O 	0.67040 0.71280 0.62870 -1.17400
O 	O 	0.62880 0.66580 0.58370 -0.31100
C 	C 	0.71788 0.75831 0.62266 -0.10800
H 	H 	0.69570 0.76420 0.62170 0.11600
C 	C 	0.62760 0.66832 0.51681 -0.01600
H 	H 	0.61320 0.68210 0.52830 0.05900
O 	O 	0.67450 0.70610 0.61820 1.02000
O 	O 	0.63470 0.67320 0.58310 -0.10400
O 	O 	0.67040 0.21280 0.12870 -1.17500
O 	O 	0.62880 0.16580 0.08370 -0.31100
C 	C 	0.71788 0.25831 0.12266 -0.10900
H 	H 	0.69570 0.26420 0.12170 0.11600
C 	C 	0.62760 0.16832 0.01681 -0.03900
H 	H 	0.61320 0.18210 0.02830 0.06500
O 	O 	0.67450 0.20610 0.11820 1.02200
O 	O 	0.63470 0.17320 0.08310 -0.10300
O 	O 	0.17040 0.71280 0.12870 -1.17600
O 	O 	0.12880 0.66580 0.08370 -0.31100
C 	C 	0.21788 0.75831 0.12266 -0.10900
H 	H 	0.19570 0.76420 0.12170 0.11600
C 	C 	0.12760 0.66832 0.01681 -0.03900
H 	H 	0.11320 0.68210 0.02830 0.06500
O 	O 	0.17450 0.70610 0.11820 1.02200
O 	O 	0.13470 0.67320 0.08310 -0.10300
O 	O 	0.17040 0.21280 0.62870 -1.17400
O 	O 	0.12880 0.16580 0.58370 -0.31100
C 	C 	0.21788 0.25831 0.62266 -0.10800
H 	H 	0.19570 0.26420 0.62170 0.11700
C 	C 	0.12760 0.16832 0.51681 -0.01600
H 	H 	0.11320 0.18210 0.52830 0.05900
O 	O 	0.17450 0.20610 0.61820 1.02100
O 	O 	0.13470 0.17320 0.58310 -0.10400
O 	O 	0.67040 0.28720 0.37130 -1.17400
O 	O 	0.62880 0.33420 0.41630 -0.31100
C 	C 	0.71788 0.24169 0.37734 -0.10800
H 	H 	0.69570 0.23580 0.37830 0.11600
C 	C 	0.62760 0.33168 0.48319 -0.01600
H 	H 	0.61320 0.31790 0.47170 0.05900
O 	O 	0.67450 0.29390 0.38180 1.02100
O 	O 	0.63470 0.32680 0.41690 -0.10400
O 	O 	0.67040 0.78720 0.87130 -1.17200
O 	O 	0.62880 0.83420 0.91630 -0.31100
C 	C 	0.71788 0.74169 0.87734 -0.10800
H 	H 	0.69570 0.73580 0.87830 0.11700
C 	C 	0.62760 0.83168 0.98319 0.00700
H 	H 	0.61320 0.81790 0.97170 0.05300
O 	O 	0.67450 0.79390 0.88180 1.01900
O 	O 	0.63470 0.82680 0.91690 -0.10400
O 	O 	0.17040 0.28720 0.87130 -1.17300
O 	O 	0.12880 0.33420 0.91630 -0.31100
C 	C 	0.21788 0.24169 0.87734 -0.10800
H 	H 	0.19570 0.23580 0.87830 0.11700
C 	C 	0.12760 0.33168 0.98319 0.00700
H 	H 	0.11320 0.31790 0.97170 0.05300
O 	O 	0.17450 0.29390 0.88180 1.02000
O 	O 	0.13470 0.32680 0.91690 -0.10500
O 	O 	0.17040 0.78720 0.37130 -1.17400
O 	O 	0.12880 0.83420 0.41630 -0.31100
C 	C 	0.21788 0.74169 0.37734 -0.10800
H 	H 	0.19570 0.73580 0.37830 0.11700
C 	C 	0.12760 0.83168 0.48319 -0.01600
H 	H 	0.11320 0.81790 0.47170 0.05900
O 	O 	0.17450 0.79390 0.38180 1.02100
O 	O 	0.13470 0.82680 0.41690 -0.10400
O 	O 	0.62870 0.32960 0.28720 -1.17400
O 	O 	0.58370 0.37120 0.33420 -0.31100
C 	C 	0.62266 0.28212 0.24169 -0.10800
H 	H 	0.62170 0.30430 0.23580 0.11600
C 	C 	0.51681 0.37240 0.33168 -0.01600
H 	H 	0.52830 0.38680 0.31790 0.05900
O 	O 	0.61820 0.32550 0.29390 1.02100
O 	O 	0.58310 0.36530 0.32680 -0.10400
O 	O 	0.62870 0.82960 0.78720 -1.17300
O 	O 	0.58370 0.87120 0.83420 -0.31100
C 	C 	0.62266 0.78212 0.74169 -0.10800
H 	H 	0.62170 0.80430 0.73580 0.11600
C 	C 	0.51681 0.87240 0.83168 -0.01600
H 	H 	0.52830 0.88680 0.81790 0.05900
O 	O 	0.61820 0.82550 0.79390 1.02000
O 	O 	0.58310 0.86530 0.82680 -0.10300
O 	O 	0.12870 0.32960 0.78720 -1.17500
O 	O 	0.08370 0.37120 0.83420 -0.31100
C 	C 	0.12266 0.28212 0.74169 -0.10800
H 	H 	0.12170 0.30430 0.73580 0.11600
C 	C 	0.01681 0.37240 0.83168 -0.03800
H 	H 	0.02830 0.38680 0.81790 0.06500
O 	O 	0.11820 0.32550 0.79390 1.02200
O 	O 	0.08310 0.36530 0.82680 -0.10300
O 	O 	0.12870 0.82960 0.28720 -1.17500
O 	O 	0.08370 0.87120 0.33420 -0.31100
C 	C 	0.12266 0.78212 0.24169 -0.10800
H 	H 	0.12170 0.80430 0.23580 0.11600
C 	C 	0.01681 0.87240 0.33168 -0.03800
H 	H 	0.02830 0.88680 0.31790 0.06500
O 	O 	0.11820 0.82550 0.29390 1.02200
O 	O 	0.08310 0.86530 0.32680 -0.10200
O 	O 	0.37130 0.32960 0.71280 -1.17400
O 	O 	0.41630 0.37120 0.66580 -0.31100
C 	C 	0.37734 0.28212 0.75831 -0.10800
H 	H 	0.37830 0.30430 0.76420 0.11700
C 	C 	0.48319 0.37240 0.66832 -0.01600
H 	H 	0.47170 0.38680 0.68210 0.05900
O 	O 	0.38180 0.32550 0.70610 1.02100
O 	O 	0.41690 0.36530 0.67320 -0.10400
O 	O 	0.37130 0.82960 0.21280 -1.17400
O 	O 	0.41630 0.87120 0.16580 -0.31100
C 	C 	0.37734 0.78212 0.25831 -0.10800
H 	H 	0.37830 0.80430 0.26420 0.11700
C 	C 	0.48319 0.87240 0.16832 -0.01600
H 	H 	0.47170 0.88680 0.18210 0.05900
O 	O 	0.38180 0.82550 0.20610 1.02000
O 	O 	0.41690 0.86530 0.17320 -0.10400
O 	O 	0.87130 0.32960 0.21280 -1.17300
O 	O 	0.91630 0.37120 0.16580 -0.31100
C 	C 	0.87734 0.28212 0.25831 -0.10800
H 	H 	0.87830 0.30430 0.26420 0.11700
C 	C 	0.98319 0.37240 0.16832 0.00700
H 	H 	0.97170 0.38680 0.18210 0.05300
O 	O 	0.88180 0.32550 0.20610 1.01900
O 	O 	0.91690 0.36530 0.17320 -0.10500
O 	O 	0.87130 0.82960 0.71280 -1.17200
O 	O 	0.91630 0.87120 0.66580 -0.31100
C 	C 	0.87734 0.78212 0.75831 -0.10800
H 	H 	0.87830 0.80430 0.76420 0.11700
C 	C 	0.98319 0.87240 0.66832 0.00700
H 	H 	0.97170 0.88680 0.68210 0.05300
O 	O 	0.88180 0.82550 0.70610 1.01800
O 	O 	0.91690 0.86530 0.67320 -0.10400
O 	O 	0.62870 0.67040 0.71280 -1.17400
O 	O 	0.58370 0.62880 0.66580 -0.31100
C 	C 	0.62266 0.71788 0.75831 -0.10800
H 	H 	0.62170 0.69570 0.76420 0.11600
C 	C 	0.51681 0.62760 0.66832 -0.01600
H 	H 	0.52830 0.61320 0.68210 0.05900
O 	O 	0.61820 0.67450 0.70610 1.02000
O 	O 	0.58310 0.63470 0.67320 -0.10400
O 	O 	0.62870 0.17040 0.21280 -1.17400
O 	O 	0.58370 0.12880 0.16580 -0.31100
C 	C 	0.62266 0.21788 0.25831 -0.10800
H 	H 	0.62170 0.19570 0.26420 0.11700
C 	C 	0.51681 0.12760 0.16832 -0.01600
H 	H 	0.52830 0.11320 0.18210 0.05900
O 	O 	0.61820 0.17450 0.20610 1.02100
O 	O 	0.58310 0.13470 0.17320 -0.10400
O 	O 	0.12870 0.67040 0.21280 -1.17500
O 	O 	0.08370 0.62880 0.16580 -0.31100
C 	C 	0.12266 0.71788 0.25831 -0.10900
H 	H 	0.12170 0.69570 0.26420 0.11600
C 	C 	0.01681 0.62760 0.16832 -0.03900
H 	H 	0.02830 0.61320 0.18210 0.06500
O 	O 	0.11820 0.67450 0.20610 1.02200
O 	O 	0.08310 0.63470 0.17320 -0.10300
O 	O 	0.12870 0.17040 0.71280 -1.17600
O 	O 	0.08370 0.12880 0.66580 -0.31100
C 	C 	0.12266 0.21788 0.75831 -0.10900
H 	H 	0.12170 0.19570 0.76420 0.11600
C 	C 	0.01681 0.12760 0.66832 -0.03900
H 	H 	0.02830 0.11320 0.68210 0.06500
O 	O 	0.11820 0.17450 0.70610 1.02200
O 	O 	0.08310 0.13470 0.67320 -0.10300
O 	O 	0.37130 0.67040 0.28720 -1.17400
O 	O 	0.41630 0.62880 0.33420 -0.31100
C 	C 	0.37734 0.71788 0.24169 -0.10800
H 	H 	0.37830 0.69570 0.23580 0.11600
C 	C 	0.48319 0.62760 0.33168 -0.01600
H 	H 	0.47170 0.61320 0.31790 0.05900
O 	O 	0.38180 0.67450 0.29390 1.02100
O 	O 	0.41690 0.63470 0.32680 -0.10400
O 	O 	0.37130 0.17040 0.78720 -1.17400
O 	O 	0.41630 0.12880 0.83420 -0.31100
C 	C 	0.37734 0.21788 0.74169 -0.10800
H 	H 	0.37830 0.19570 0.73580 0.11700
C 	C 	0.48319 0.12760 0.83168 -0.01600
H 	H 	0.47170 0.11320 0.81790 0.05900
O 	O 	0.38180 0.17450 0.79390 1.02100
O 	O 	0.41690 0.13470 0.82680 -0.10400
O 	O 	0.87130 0.67040 0.78720 -1.17200
O 	O 	0.91630 0.62880 0.83420 -0.31100
C 	C 	0.87734 0.71788 0.74169 -0.10800
H 	H 	0.87830 0.69570 0.73580 0.11700
C 	C 	0.98319 0.62760 0.83168 0.00700
H 	H 	0.97170 0.61320 0.81790 0.05300
O 	O 	0.88180 0.67450 0.79390 1.01900
O 	O 	0.91690 0.63470 0.82680 -0.10400
O 	O 	0.87130 0.17040 0.28720 -1.17300
O 	O 	0.91630 0.12880 0.33420 -0.31100
C 	C 	0.87734 0.21788 0.24169 -0.10800
H 	H 	0.87830 0.19570 0.23580 0.11700
C 	C 	0.98319 0.12760 0.33168 0.00700
H 	H 	0.97170 0.11320 0.31790 0.05300
O 	O 	0.88180 0.17450 0.29390 1.02000
O 	O 	0.91690 0.13470 0.32680 -0.10500
O 	O 	0.62870 0.28720 0.67040 -1.17400
O 	O 	0.58370 0.33420 0.62880 -0.31100
C 	C 	0.62266 0.24169 0.71788 -0.10800
H 	H 	0.62170 0.23580 0.69570 0.11600
C 	C 	0.51681 0.33168 0.62760 -0.01600
H 	H 	0.52830 0.31790 0.61320 0.05900
O 	O 	0.61820 0.29390 0.67450 1.02000
O 	O 	0.58310 0.32680 0.63470 -0.10400
O 	O 	0.62870 0.78720 0.17040 -1.17400
O 	O 	0.58370 0.83420 0.12880 -0.31100
C 	C 	0.62266 0.74169 0.21788 -0.10800
H 	H 	0.62170 0.73580 0.19570 0.11600
C 	C 	0.51681 0.83168 0.12760 -0.01600
H 	H 	0.52830 0.81790 0.11320 0.05900
O 	O 	0.61820 0.79390 0.17450 1.02100
O 	O 	0.58310 0.82680 0.13470 -0.10400
O 	O 	0.12870 0.28720 0.17040 -1.17600
O 	O 	0.08370 0.33420 0.12880 -0.31100
C 	C 	0.12266 0.24169 0.21788 -0.10900
H 	H 	0.12170 0.23580 0.19570 0.11600
C 	C 	0.01681 0.33168 0.12760 -0.03900
H 	H 	0.02830 0.31790 0.11320 0.06500
O 	O 	0.11820 0.29390 0.17450 1.02300
O 	O 	0.08310 0.32680 0.13470 -0.10300
O 	O 	0.12870 0.78720 0.67040 -1.17500
O 	O 	0.08370 0.83420 0.62880 -0.31100
C 	C 	0.12266 0.74169 0.71788 -0.10900
H 	H 	0.12170 0.73580 0.69570 0.11600
C 	C 	0.01681 0.83168 0.62760 -0.03800
H 	H 	0.02830 0.81790 0.61320 0.06500
O 	O 	0.11820 0.79390 0.67450 1.02200
O 	O 	0.08310 0.82680 0.63470 -0.10300
O 	O 	0.37130 0.71280 0.67040 -1.17400
O 	O 	0.41630 0.66580 0.62880 -0.31100
C 	C 	0.37734 0.75831 0.71788 -0.10800
H 	H 	0.37830 0.76420 0.69570 0.11700
C 	C 	0.48319 0.66832 0.62760 -0.01600
H 	H 	0.47170 0.68210 0.61320 0.05900
O 	O 	0.38180 0.70610 0.67450 1.02000
O 	O 	0.41690 0.67320 0.63470 -0.10400
O 	O 	0.37130 0.21280 0.17040 -1.17400
O 	O 	0.41630 0.16580 0.12880 -0.31100
C 	C 	0.37734 0.25831 0.21788 -0.10800
H 	H 	0.37830 0.26420 0.19570 0.11700
C 	C 	0.48319 0.16832 0.12760 -0.01600
H 	H 	0.47170 0.18210 0.11320 0.05900
O 	O 	0.38180 0.20610 0.17450 1.02100
O 	O 	0.41690 0.17320 0.13470 -0.10400
O 	O 	0.87130 0.71280 0.17040 -1.17300
O 	O 	0.91630 0.66580 0.12880 -0.31100
C 	C 	0.87734 0.75831 0.21788 -0.10800
H 	H 	0.87830 0.76420 0.19570 0.11700
C 	C 	0.98319 0.66832 0.12760 0.00600
H 	H 	0.97170 0.68210 0.11320 0.05300
O 	O 	0.88180 0.70610 0.17450 1.01900
O 	O 	0.91690 0.67320 0.13470 -0.10500
O 	O 	0.87130 0.21280 0.67040 -1.17200
O 	O 	0.91630 0.16580 0.62880 -0.31100
C 	C 	0.87734 0.25831 0.71788 -0.10800
H 	H 	0.87830 0.26420 0.69570 0.11700
C 	C 	0.98319 0.16832 0.62760 0.00700
H 	H 	0.97170 0.18210 0.61320 0.05300
O 	O 	0.88180 0.20610 0.67450 1.01900
O 	O 	0.91690 0.17320 0.63470 -0.10500
O 	O 	0.62870 0.71280 0.32960 -1.17400
O 	O 	0.58370 0.66580 0.37120 -0.31100
C 	C 	0.62266 0.75831 0.28212 -0.10800
H 	H 	0.62170 0.76420 0.30430 0.11700
C 	C 	0.51681 0.66832 0.37240 -0.01600
H 	H 	0.52830 0.68210 0.38680 0.05900
O 	O 	0.61820 0.70610 0.32550 1.02000
O 	O 	0.58310 0.67320 0.36530 -0.10400
O 	O 	0.62870 0.21280 0.82960 -1.17300
O 	O 	0.58370 0.16580 0.87120 -0.31100
C 	C 	0.62266 0.25831 0.78212 -0.10800
H 	H 	0.62170 0.26420 0.80430 0.11600
C 	C 	0.51681 0.16832 0.87240 -0.01600
H 	H 	0.52830 0.18210 0.88680 0.05900
O 	O 	0.61820 0.20610 0.82550 1.02000
O 	O 	0.58310 0.17320 0.86530 -0.10400
O 	O 	0.12870 0.71280 0.82960 -1.17500
O 	O 	0.08370 0.66580 0.87120 -0.31100
C 	C 	0.12266 0.75831 0.78212 -0.10900
H 	H 	0.12170 0.76420 0.80430 0.11600
C 	C 	0.01681 0.66832 0.87240 -0.03800
H 	H 	0.02830 0.68210 0.88680 0.06500
O 	O 	0.11820 0.70610 0.82550 1.02100
O 	O 	0.08310 0.67320 0.86530 -0.10200
O 	O 	0.12870 0.21280 0.32960 -1.17500
O 	O 	0.08370 0.16580 0.37120 -0.31100
C 	C 	0.12266 0.25831 0.28212 -0.10900
H 	H 	0.12170 0.26420 0.30430 0.11600
C 	C 	0.01681 0.16832 0.37240 -0.03900
H 	H 	0.02830 0.18210 0.38680 0.06500
O 	O 	0.11820 0.20610 0.32550 1.02200
O 	O 	0.08310 0.17320 0.36530 -0.10300
O 	O 	0.37130 0.28720 0.32960 -1.17400
O 	O 	0.41630 0.33420 0.37120 -0.31100
C 	C 	0.37734 0.24169 0.28212 -0.10800
H 	H 	0.37830 0.23580 0.30430 0.11700
C 	C 	0.48319 0.33168 0.37240 -0.01600
H 	H 	0.47170 0.31790 0.38680 0.05900
O 	O 	0.38180 0.29390 0.32550 1.02100
O 	O 	0.41690 0.32680 0.36530 -0.10400
O 	O 	0.37130 0.78720 0.82960 -1.17400
O 	O 	0.41630 0.83420 0.87120 -0.31100
C 	C 	0.37734 0.74169 0.78212 -0.10800
H 	H 	0.37830 0.73580 0.80430 0.11600
C 	C 	0.48319 0.83168 0.87240 -0.01600
H 	H 	0.47170 0.81790 0.88680 0.05900
O 	O 	0.38180 0.79390 0.82550 1.02000
O 	O 	0.41690 0.82680 0.86530 -0.10300
O 	O 	0.87130 0.28720 0.82960 -1.17200
O 	O 	0.91630 0.33420 0.87120 -0.31100
C 	C 	0.87734 0.24169 0.78212 -0.10800
H 	H 	0.87830 0.23580 0.80430 0.11700
C 	C 	0.98319 0.33168 0.87240 0.00700
H 	H 	0.97170 0.31790 0.88680 0.05300
O 	O 	0.88180 0.29390 0.82550 1.01800
O 	O 	0.91690 0.32680 0.86530 -0.10400
O 	O 	0.87130 0.78720 0.32960 -1.17300
O 	O 	0.91630 0.83420 0.37120 -0.31100
C 	C 	0.87734 0.74169 0.28212 -0.10800
H 	H 	0.87830 0.73580 0.30430 0.11700
C 	C 	0.98319 0.83168 0.37240 0.00700
H 	H 	0.97170 0.81790 0.38680 0.05300
O 	O 	0.88180 0.79390 0.32550 1.01900
O 	O 	0.91690 0.82680 0.36530 -0.10400
O 	O 	0.28720 0.32960 0.37130 -1.17400
O 	O 	0.33420 0.37120 0.41630 -0.31100
C 	C 	0.24169 0.28212 0.37734 -0.10800
H 	H 	0.23580 0.30430 0.37830 0.11700
C 	C 	0.33168 0.37240 0.48319 -0.01600
H 	H 	0.31790 0.38680 0.47170 0.05900
O 	O 	0.29390 0.32550 0.38180 1.02100
O 	O 	0.32680 0.36530 0.41690 -0.10400
O 	O 	0.28720 0.82960 0.87130 -1.17200
O 	O 	0.33420 0.87120 0.91630 -0.31100
C 	C 	0.24169 0.78212 0.87734 -0.10800
H 	H 	0.23580 0.80430 0.87830 0.11700
C 	C 	0.33168 0.87240 0.98319 0.00700
H 	H 	0.31790 0.88680 0.97170 0.05300
O 	O 	0.29390 0.82550 0.88180 1.01800
O 	O 	0.32680 0.86530 0.91690 -0.10400
O 	O 	0.78720 0.32960 0.87130 -1.17300
O 	O 	0.83420 0.37120 0.91630 -0.31100
C 	C 	0.74169 0.28212 0.87734 -0.10800
H 	H 	0.73580 0.30430 0.87830 0.11700
C 	C 	0.83168 0.37240 0.98319 0.00700
H 	H 	0.81790 0.38680 0.97170 0.05300
O 	O 	0.79390 0.32550 0.88180 1.01900
O 	O 	0.82680 0.36530 0.91690 -0.10400
O 	O 	0.78720 0.82960 0.37130 -1.17400
O 	O 	0.83420 0.87120 0.41630 -0.31100
C 	C 	0.74169 0.78212 0.37734 -0.10800
H 	H 	0.73580 0.80430 0.37830 0.11600
C 	C 	0.83168 0.87240 0.48319 -0.01600
H 	H 	0.81790 0.88680 0.47170 0.05900
O 	O 	0.79390 0.82550 0.38180 1.02000
O 	O 	0.82680 0.86530 0.41690 -0.10300
O 	O 	0.71280 0.32960 0.62870 -1.17400
O 	O 	0.66580 0.37120 0.58370 -0.31100
C 	C 	0.75831 0.28212 0.62266 -0.10800
H 	H 	0.76420 0.30430 0.62170 0.11700
C 	C 	0.66832 0.37240 0.51681 -0.01600
H 	H 	0.68210 0.38680 0.52830 0.05900
O 	O 	0.70610 0.32550 0.61820 1.02000
O 	O 	0.67320 0.36530 0.58310 -0.10400
O 	O 	0.71280 0.82960 0.12870 -1.17500
O 	O 	0.66580 0.87120 0.08370 -0.31100
C 	C 	0.75831 0.78212 0.12266 -0.10900
H 	H 	0.76420 0.80430 0.12170 0.11600
C 	C 	0.66832 0.87240 0.01681 -0.03800
H 	H 	0.68210 0.88680 0.02830 0.06500
O 	O 	0.70610 0.82550 0.11820 1.02100
O 	O 	0.67320 0.86530 0.08310 -0.10200
O 	O 	0.21280 0.32960 0.12870 -1.17500
O 	O 	0.16580 0.37120 0.08370 -0.31100
C 	C 	0.25831 0.28212 0.12266 -0.10900
H 	H 	0.26420 0.30430 0.12170 0.11600
C 	C 	0.16832 0.37240 0.01681 -0.03900
H 	H 	0.18210 0.38680 0.02830 0.06500
O 	O 	0.20610 0.32550 0.11820 1.02200
O 	O 	0.17320 0.36530 0.08310 -0.10300
O 	O 	0.21280 0.82960 0.62870 -1.17300
O 	O 	0.16580 0.87120 0.58370 -0.31100
C 	C 	0.25831 0.78212 0.62266 -0.10800
H 	H 	0.26420 0.80430 0.62170 0.11600
C 	C 	0.16832 0.87240 0.51681 -0.01600
H 	H 	0.18210 0.88680 0.52830 0.05900
O 	O 	0.20610 0.82550 0.61820 1.02000
O 	O 	0.17320 0.86530 0.58310 -0.10400
O 	O 	0.71280 0.67040 0.37130 -1.17400
O 	O 	0.66580 0.62880 0.41630 -0.31100
C 	C 	0.75831 0.71788 0.37734 -0.10800
H 	H 	0.76420 0.69570 0.37830 0.11700
C 	C 	0.66832 0.62760 0.48319 -0.01600
H 	H 	0.68210 0.61320 0.47170 0.05900
O 	O 	0.70610 0.67450 0.38180 1.02000
O 	O 	0.67320 0.63470 0.41690 -0.10400
O 	O 	0.71280 0.17040 0.87130 -1.17300
O 	O 	0.66580 0.12880 0.91630 -0.31100
C 	C 	0.75831 0.21788 0.87734 -0.10800
H 	H 	0.76420 0.19570 0.87830 0.11700
C 	C 	0.66832 0.12760 0.98319 0.00600
H 	H 	0.68210 0.11320 0.97170 0.05300
O 	O 	0.70610 0.17450 0.88180 1.01900
O 	O 	0.67320 0.13470 0.91690 -0.10500
O 	O 	0.21280 0.67040 0.87130 -1.17200
O 	O 	0.16580 0.62880 0.91630 -0.31100
C 	C 	0.25831 0.71788 0.87734 -0.10800
H 	H 	0.26420 0.69570 0.87830 0.11700
C 	C 	0.16832 0.62760 0.98319 0.00700
H 	H 	0.18210 0.61320 0.97170 0.05300
O 	O 	0.20610 0.67450 0.88180 1.01900
O 	O 	0.17320 0.63470 0.91690 -0.10500
O 	O 	0.21280 0.17040 0.37130 -1.17400
O 	O 	0.16580 0.12880 0.41630 -0.31100
C 	C 	0.25831 0.21788 0.37734 -0.10800
H 	H 	0.26420 0.19570 0.37830 0.11700
C 	C 	0.16832 0.12760 0.48319 -0.01600
H 	H 	0.18210 0.11320 0.47170 0.05900
O 	O 	0.20610 0.17450 0.38180 1.02100
O 	O 	0.17320 0.13470 0.41690 -0.10400
O 	O 	0.28720 0.67040 0.62870 -1.17400
O 	O 	0.33420 0.62880 0.58370 -0.31100
C 	C 	0.24169 0.71788 0.62266 -0.10800
H 	H 	0.23580 0.69570 0.62170 0.11600
C 	C 	0.33168 0.62760 0.51681 -0.01600
H 	H 	0.31790 0.61320 0.52830 0.05900
O 	O 	0.29390 0.67450 0.61820 1.02000
O 	O 	0.32680 0.63470 0.58310 -0.10400
O 	O 	0.28720 0.17040 0.12870 -1.17600
O 	O 	0.33420 0.12880 0.08370 -0.31100
C 	C 	0.24169 0.21788 0.12266 -0.10900
H 	H 	0.23580 0.19570 0.12170 0.11600
C 	C 	0.33168 0.12760 0.01681 -0.03900
H 	H 	0.31790 0.11320 0.02830 0.06500
O 	O 	0.29390 0.17450 0.11820 1.02300
O 	O 	0.32680 0.13470 0.08310 -0.10300
O 	O 	0.78720 0.67040 0.12870 -1.17500
O 	O 	0.83420 0.62880 0.08370 -0.31100
C 	C 	0.74169 0.71788 0.12266 -0.10900
H 	H 	0.73580 0.69570 0.12170 0.11600
C 	C 	0.83168 0.62760 0.01681 -0.03800
H 	H 	0.81790 0.61320 0.02830 0.06500
O 	O 	0.79390 0.67450 0.11820 1.02200
O 	O 	0.82680 0.63470 0.08310 -0.10300
O 	O 	0.78720 0.17040 0.62870 -1.17400
O 	O 	0.83420 0.12880 0.58370 -0.31100
C 	C 	0.74169 0.21788 0.62266 -0.10800
H 	H 	0.73580 0.19570 0.62170 0.11600
C 	C 	0.83168 0.12760 0.51681 -0.01600
H 	H 	0.81790 0.11320 0.52830 0.05900
O 	O 	0.79390 0.17450 0.61820 1.02100
O 	O 	0.82680 0.13470 0.58310 -0.10400
O 	O 	0.32960 0.62870 0.71280 -1.17400
O 	O 	0.37120 0.58370 0.66580 -0.31100
C 	C 	0.28212 0.62266 0.75831 -0.10800
H 	H 	0.30430 0.62170 0.76420 0.11700
C 	C 	0.37240 0.51681 0.66832 -0.01600
H 	H 	0.38680 0.52830 0.68210 0.05900
O 	O 	0.32550 0.61820 0.70610 1.02000
O 	O 	0.36530 0.58310 0.67320 -0.10400
O 	O 	0.32960 0.12870 0.21280 -1.17500
O 	O 	0.37120 0.08370 0.16580 -0.31100
C 	C 	0.28212 0.12266 0.25831 -0.10900
H 	H 	0.30430 0.12170 0.26420 0.11600
C 	C 	0.37240 0.01681 0.16832 -0.03900
H 	H 	0.38680 0.02830 0.18210 0.06500
O 	O 	0.32550 0.11820 0.20610 1.02200
O 	O 	0.36530 0.08310 0.17320 -0.10300
O 	O 	0.82960 0.62870 0.21280 -1.17300
O 	O 	0.87120 0.58370 0.16580 -0.31100
C 	C 	0.78212 0.62266 0.25831 -0.10800
H 	H 	0.80430 0.62170 0.26420 0.11600
C 	C 	0.87240 0.51681 0.16832 -0.01600
H 	H 	0.88680 0.52830 0.18210 0.05900
O 	O 	0.82550 0.61820 0.20610 1.02000
O 	O 	0.86530 0.58310 0.17320 -0.10400
O 	O 	0.82960 0.12870 0.71280 -1.17500
O 	O 	0.87120 0.08370 0.66580 -0.31100
C 	C 	0.78212 0.12266 0.75831 -0.10900
H 	H 	0.80430 0.12170 0.76420 0.11600
C 	C 	0.87240 0.01681 0.66832 -0.03800
H 	H 	0.88680 0.02830 0.68210 0.06500
O 	O 	0.82550 0.11820 0.70610 1.02100
O 	O 	0.86530 0.08310 0.67320 -0.10200
O 	O 	0.32960 0.37130 0.28720 -1.17400
O 	O 	0.37120 0.41630 0.33420 -0.31100
C 	C 	0.28212 0.37734 0.24169 -0.10800
H 	H 	0.30430 0.37830 0.23580 0.11700
C 	C 	0.37240 0.48319 0.33168 -0.01600
H 	H 	0.38680 0.47170 0.31790 0.05900
O 	O 	0.32550 0.38180 0.29390 1.02100
O 	O 	0.36530 0.41690 0.32680 -0.10400
O 	O 	0.32960 0.87130 0.78720 -1.17300
O 	O 	0.37120 0.91630 0.83420 -0.31100
C 	C 	0.28212 0.87734 0.74169 -0.10800
H 	H 	0.30430 0.87830 0.73580 0.11700
C 	C 	0.37240 0.98319 0.83168 0.00700
H 	H 	0.38680 0.97170 0.81790 0.05300
O 	O 	0.32550 0.88180 0.79390 1.01900
O 	O 	0.36530 0.91690 0.82680 -0.10400
O 	O 	0.82960 0.37130 0.78720 -1.17400
O 	O 	0.87120 0.41630 0.83420 -0.31100
C 	C 	0.78212 0.37734 0.74169 -0.10800
H 	H 	0.80430 0.37830 0.73580 0.11600
C 	C 	0.87240 0.48319 0.83168 -0.01600
H 	H 	0.88680 0.47170 0.81790 0.05900
O 	O 	0.82550 0.38180 0.79390 1.02000
O 	O 	0.86530 0.41690 0.82680 -0.10300
O 	O 	0.82960 0.87130 0.28720 -1.17200
O 	O 	0.87120 0.91630 0.33420 -0.31100
C 	C 	0.78212 0.87734 0.24169 -0.10800
H 	H 	0.80430 0.87830 0.23580 0.11700
C 	C 	0.87240 0.98319 0.33168 0.00700
H 	H 	0.88680 0.97170 0.31790 0.05300
O 	O 	0.82550 0.88180 0.29390 1.01800
O 	O 	0.86530 0.91690 0.32680 -0.10400
O 	O 	0.67040 0.62870 0.28720 -1.17400
O 	O 	0.62880 0.58370 0.33420 -0.31100
C 	C 	0.71788 0.62266 0.24169 -0.10800
H 	H 	0.69570 0.62170 0.23580 0.11600
C 	C 	0.62760 0.51681 0.33168 -0.01600
H 	H 	0.61320 0.52830 0.31790 0.05900
O 	O 	0.67450 0.61820 0.29390 1.02000
O 	O 	0.63470 0.58310 0.32680 -0.10400
O 	O 	0.67040 0.12870 0.78720 -1.17500
O 	O 	0.62880 0.08370 0.83420 -0.31100
C 	C 	0.71788 0.12266 0.74169 -0.10900
H 	H 	0.69570 0.12170 0.73580 0.11600
C 	C 	0.62760 0.01681 0.83168 -0.03800
H 	H 	0.61320 0.02830 0.81790 0.06500
O 	O 	0.67450 0.11820 0.79390 1.02200
O 	O 	0.63470 0.08310 0.82680 -0.10300
O 	O 	0.17040 0.62870 0.78720 -1.17400
O 	O 	0.12880 0.58370 0.83420 -0.31100
C 	C 	0.21788 0.62266 0.74169 -0.10800
H 	H 	0.19570 0.62170 0.73580 0.11600
C 	C 	0.12760 0.51681 0.83168 -0.01600
H 	H 	0.11320 0.52830 0.81790 0.05900
O 	O 	0.17450 0.61820 0.79390 1.02100
O 	O 	0.13470 0.58310 0.82680 -0.10400
O 	O 	0.17040 0.12870 0.28720 -1.17600
O 	O 	0.12880 0.08370 0.33420 -0.31100
C 	C 	0.21788 0.12266 0.24169 -0.10900
H 	H 	0.19570 0.12170 0.23580 0.11600
C 	C 	0.12760 0.01681 0.33168 -0.03900
H 	H 	0.11320 0.02830 0.31790 0.06500
O 	O 	0.17450 0.11820 0.29390 1.02300
O 	O 	0.13470 0.08310 0.32680 -0.10300
O 	O 	0.67040 0.37130 0.71280 -1.17400
O 	O 	0.62880 0.41630 0.66580 -0.31100
C 	C 	0.71788 0.37734 0.75831 -0.10800
H 	H 	0.69570 0.37830 0.76420 0.11700
C 	C 	0.62760 0.48319 0.66832 -0.01600
H 	H 	0.61320 0.47170 0.68210 0.05900
O 	O 	0.67450 0.38180 0.70610 1.02000
O 	O 	0.63470 0.41690 0.67320 -0.10400
O 	O 	0.67040 0.87130 0.21280 -1.17200
O 	O 	0.62880 0.91630 0.16580 -0.31100
C 	C 	0.71788 0.87734 0.25831 -0.10800
H 	H 	0.69570 0.87830 0.26420 0.11700
C 	C 	0.62760 0.98319 0.16832 0.00700
H 	H 	0.61320 0.97170 0.18210 0.05300
O 	O 	0.67450 0.88180 0.20610 1.01900
O 	O 	0.63470 0.91690 0.17320 -0.10500
O 	O 	0.17040 0.37130 0.21280 -1.17400
O 	O 	0.12880 0.41630 0.16580 -0.31100
C 	C 	0.21788 0.37734 0.25831 -0.10800
H 	H 	0.19570 0.37830 0.26420 0.11700
C 	C 	0.12760 0.48319 0.16832 -0.01600
H 	H 	0.11320 0.47170 0.18210 0.05900
O 	O 	0.17450 0.38180 0.20610 1.02100
O 	O 	0.13470 0.41690 0.17320 -0.10400
O 	O 	0.17040 0.87130 0.71280 -1.17300
O 	O 	0.12880 0.91630 0.66580 -0.31100
C 	C 	0.21788 0.87734 0.75831 -0.10800
H 	H 	0.19570 0.87830 0.76420 0.11700
C 	C 	0.12760 0.98319 0.66832 0.00600
H 	H 	0.11320 0.97170 0.68210 0.05300
O 	O 	0.17450 0.88180 0.70610 1.01900
O 	O 	0.13470 0.91690 0.67320 -0.10500
Fe	Fe	0.68684 0.37079 0.62921 1.22100
O 	O 	0.77100 0.46670 0.53330 -0.47700
O 	O 	0.71940 0.46040 0.53960 -0.30300
C 	C 	0.75210 0.42939 0.57061 -0.13000
C 	C 	0.72514 0.41512 0.58488 0.05500
H 	H 	0.70400 0.42155 0.57845 0.03700
N 	N 	0.72909 0.39145 0.60855 -0.19900
C 	C 	0.76005 0.38204 0.61796 0.03700
H 	H 	0.76270 0.36590 0.63410 0.07500
C 	C 	0.78704 0.39629 0.60371 -0.10300
H 	H 	0.80820 0.38990 0.61010 0.06400
C 	C 	0.78309 0.41995 0.58005 0.04800
H 	H 	0.80150 0.42970 0.57030 0.02400
C 	C 	0.74690 0.45530 0.54470 0.44600
Fe	Fe	0.68684 0.87079 0.12921 1.22100
O 	O 	0.77100 0.96670 0.03330 -0.47500
O 	O 	0.71940 0.96040 0.03960 -0.30200
C 	C 	0.75210 0.92939 0.07061 -0.12900
C 	C 	0.72514 0.91512 0.08488 0.05500
H 	H 	0.70400 0.92155 0.07845 0.03700
N 	N 	0.72909 0.89145 0.10855 -0.19900
C 	C 	0.76005 0.88204 0.11796 0.03700
H 	H 	0.76270 0.86590 0.13410 0.07500
C 	C 	0.78704 0.89629 0.10371 -0.10300
H 	H 	0.80820 0.88990 0.11010 0.06400
C 	C 	0.78309 0.91996 0.08005 0.04800
H 	H 	0.80150 0.92970 0.07030 0.02400
C 	C 	0.74690 0.95530 0.04470 0.44500
Fe	Fe	0.18684 0.37079 0.12921 1.22100
O 	O 	0.27100 0.46670 0.03330 -0.47800
O 	O 	0.21940 0.46040 0.03960 -0.30500
C 	C 	0.25210 0.42939 0.07061 -0.13100
C 	C 	0.22514 0.41512 0.08488 0.05500
H 	H 	0.20400 0.42155 0.07845 0.03700
N 	N 	0.22909 0.39145 0.10855 -0.19900
C 	C 	0.26005 0.38204 0.11796 0.03700
H 	H 	0.26270 0.36590 0.13410 0.07500
C 	C 	0.28704 0.39629 0.10371 -0.10400
H 	H 	0.30820 0.38990 0.11010 0.06400
C 	C 	0.28309 0.41995 0.08005 0.04800
H 	H 	0.30150 0.42970 0.07030 0.02300
C 	C 	0.24690 0.45530 0.04470 0.44600
Fe	Fe	0.18684 0.87079 0.62921 1.22100
O 	O 	0.27100 0.96670 0.53330 -0.47400
O 	O 	0.21940 0.96040 0.53960 -0.30100
C 	C 	0.25210 0.92939 0.57061 -0.12900
C 	C 	0.22514 0.91512 0.58488 0.05500
H 	H 	0.20400 0.92155 0.57845 0.03800
N 	N 	0.22909 0.89145 0.60855 -0.19900
C 	C 	0.26005 0.88204 0.61796 0.03700
H 	H 	0.26270 0.86590 0.63410 0.07500
C 	C 	0.28704 0.89629 0.60371 -0.10300
H 	H 	0.30820 0.88990 0.61010 0.06400
C 	C 	0.28309 0.91996 0.58005 0.04800
H 	H 	0.30150 0.92970 0.57030 0.02400
C 	C 	0.24690 0.95530 0.54470 0.44500
Fe	Fe	0.31316 0.62921 0.62921 1.22100
O 	O 	0.22900 0.53330 0.53330 -0.47700
O 	O 	0.28060 0.53960 0.53960 -0.30300
C 	C 	0.24790 0.57061 0.57061 -0.13000
C 	C 	0.27486 0.58488 0.58488 0.05500
H 	H 	0.29600 0.57845 0.57845 0.03700
N 	N 	0.27091 0.60855 0.60855 -0.19900
C 	C 	0.23995 0.61796 0.61796 0.03700
H 	H 	0.23730 0.63410 0.63410 0.07500
C 	C 	0.21296 0.60371 0.60371 -0.10300
H 	H 	0.19180 0.61010 0.61010 0.06400
C 	C 	0.21691 0.58005 0.58005 0.04800
H 	H 	0.19850 0.57030 0.57030 0.02300
C 	C 	0.25310 0.54470 0.54470 0.44600
Fe	Fe	0.31316 0.12921 0.12921 1.22100
O 	O 	0.22900 0.03330 0.03330 -0.48000
O 	O 	0.28060 0.03960 0.03960 -0.30600
C 	C 	0.24790 0.07061 0.07061 -0.13100
C 	C 	0.27486 0.08488 0.08488 0.05500
H 	H 	0.29600 0.07845 0.07845 0.03600
N 	N 	0.27091 0.10855 0.10855 -0.19900
C 	C 	0.23995 0.11796 0.11796 0.03700
H 	H 	0.23730 0.13410 0.13410 0.07500
C 	C 	0.21296 0.10371 0.10371 -0.10400
H 	H 	0.19180 0.11010 0.11010 0.06400
C 	C 	0.21691 0.08005 0.08005 0.04800
H 	H 	0.19850 0.07030 0.07030 0.02200
C 	C 	0.25310 0.04470 0.04470 0.44600
Fe	Fe	0.81316 0.62921 0.12921 1.22100
O 	O 	0.72900 0.53330 0.03330 -0.47800
O 	O 	0.78060 0.53960 0.03960 -0.30400
C 	C 	0.74790 0.57061 0.07061 -0.13100
C 	C 	0.77486 0.58488 0.08488 0.05500
H 	H 	0.79600 0.57845 0.07845 0.03700
N 	N 	0.77091 0.60855 0.10855 -0.19900
C 	C 	0.73995 0.61796 0.11796 0.03700
H 	H 	0.73730 0.63410 0.13410 0.07500
C 	C 	0.71296 0.60371 0.10371 -0.10400
H 	H 	0.69180 0.61010 0.11010 0.06400
C 	C 	0.71691 0.58005 0.08005 0.04800
H 	H 	0.69850 0.57030 0.07030 0.02300
C 	C 	0.75310 0.54470 0.04470 0.44600
Fe	Fe	0.81316 0.12921 0.62921 1.22100
O 	O 	0.72900 0.03330 0.53330 -0.47800
O 	O 	0.78060 0.03960 0.53960 -0.30400
C 	C 	0.74790 0.07061 0.57061 -0.13100
C 	C 	0.77486 0.08488 0.58488 0.05500
H 	H 	0.79600 0.07845 0.57845 0.03700
N 	N 	0.77091 0.10855 0.60855 -0.19900
C 	C 	0.73995 0.11796 0.61796 0.03700
H 	H 	0.73730 0.13410 0.63410 0.07500
C 	C 	0.71296 0.10371 0.60371 -0.10400
H 	H 	0.69180 0.11010 0.61010 0.06400
C 	C 	0.71691 0.08005 0.58005 0.04800
H 	H 	0.69850 0.07030 0.57030 0.02300
C 	C 	0.75310 0.04470 0.54470 0.44600
Fe	Fe	0.31316 0.37079 0.37079 1.22100
O 	O 	0.22900 0.46670 0.46670 -0.47700
O 	O 	0.28060 0.46040 0.46040 -0.30300
C 	C 	0.24790 0.42939 0.42939 -0.13000
C 	C 	0.27486 0.41512 0.41512 0.05500
H 	H 	0.29600 0.42155 0.42155 0.03700
N 	N 	0.27091 0.39145 0.39145 -0.19900
C 	C 	0.23995 0.38204 0.38204 0.03700
H 	H 	0.23730 0.36590 0.36590 0.07500
C 	C 	0.21296 0.39629 0.39629 -0.10300
H 	H 	0.19180 0.38990 0.38990 0.06400
C 	C 	0.21691 0.41995 0.41995 0.04800
H 	H 	0.19850 0.42970 0.42970 0.02300
C 	C 	0.25310 0.45530 0.45530 0.44600
Fe	Fe	0.31316 0.87079 0.87079 1.22100
O 	O 	0.22900 0.96670 0.96670 -0.47100
O 	O 	0.28060 0.96040 0.96040 -0.29900
C 	C 	0.24790 0.92939 0.92939 -0.12800
C 	C 	0.27486 0.91512 0.91512 0.05500
H 	H 	0.29600 0.92155 0.92155 0.03800
N 	N 	0.27091 0.89145 0.89145 -0.19900
C 	C 	0.23995 0.88204 0.88204 0.03700
H 	H 	0.23730 0.86590 0.86590 0.07500
C 	C 	0.21296 0.89629 0.89629 -0.10200
H 	H 	0.19180 0.88990 0.88990 0.06500
C 	C 	0.21691 0.91996 0.91995 0.04800
H 	H 	0.19850 0.92970 0.92970 0.02500
C 	C 	0.25310 0.95530 0.95530 0.44400
Fe	Fe	0.81316 0.37079 0.87079 1.22100
O 	O 	0.72900 0.46670 0.96670 -0.47400
O 	O 	0.78060 0.46040 0.96040 -0.30100
C 	C 	0.74790 0.42939 0.92939 -0.12900
C 	C 	0.77486 0.41512 0.91512 0.05500
H 	H 	0.79600 0.42155 0.92155 0.03800
N 	N 	0.77091 0.39145 0.89145 -0.19900
C 	C 	0.73995 0.38204 0.88204 0.03700
H 	H 	0.73730 0.36590 0.86590 0.07500
C 	C 	0.71296 0.39629 0.89629 -0.10300
H 	H 	0.69180 0.38990 0.88990 0.06400
C 	C 	0.71691 0.41995 0.91995 0.04800
H 	H 	0.69850 0.42970 0.92970 0.02400
C 	C 	0.75310 0.45530 0.95530 0.44500
Fe	Fe	0.81316 0.87079 0.37079 1.22100
O 	O 	0.72900 0.96670 0.46670 -0.47400
O 	O 	0.78060 0.96040 0.46040 -0.30100
C 	C 	0.74790 0.92939 0.42939 -0.12900
C 	C 	0.77486 0.91512 0.41512 0.05500
H 	H 	0.79600 0.92155 0.42155 0.03800
N 	N 	0.77091 0.89145 0.39145 -0.19900
C 	C 	0.73995 0.88204 0.38204 0.03700
H 	H 	0.73730 0.86590 0.36590 0.07500
C 	C 	0.71296 0.89629 0.39629 -0.10300
H 	H 	0.69180 0.88990 0.38990 0.06400
C 	C 	0.71691 0.91996 0.41995 0.04800
H 	H 	0.69850 0.92970 0.42970 0.02400
C 	C 	0.75310 0.95530 0.45530 0.44500
Fe	Fe	0.68684 0.62921 0.37079 1.22100
O 	O 	0.77100 0.53330 0.46670 -0.47700
O 	O 	0.71940 0.53960 0.46040 -0.30300
C 	C 	0.75210 0.57061 0.42939 -0.13000
C 	C 	0.72514 0.58488 0.41512 0.05500
H 	H 	0.70400 0.57845 0.42155 0.03700
N 	N 	0.72909 0.60855 0.39145 -0.19900
C 	C 	0.76005 0.61796 0.38204 0.03700
H 	H 	0.76270 0.63410 0.36590 0.07500
C 	C 	0.78704 0.60371 0.39629 -0.10300
H 	H 	0.80820 0.61010 0.38990 0.06400
C 	C 	0.78309 0.58005 0.41995 0.04800
H 	H 	0.80150 0.57030 0.42970 0.02400
C 	C 	0.74690 0.54470 0.45530 0.44600
Fe	Fe	0.68684 0.12921 0.87079 1.22100
O 	O 	0.77100 0.03330 0.96670 -0.47500
O 	O 	0.71940 0.03960 0.96040 -0.30200
C 	C 	0.75210 0.07061 0.92939 -0.12900
C 	C 	0.72514 0.08488 0.91512 0.05500
H 	H 	0.70400 0.07845 0.92155 0.03700
N 	N 	0.72909 0.10855 0.89145 -0.19900
C 	C 	0.76005 0.11796 0.88204 0.03700
H 	H 	0.76270 0.13410 0.86590 0.07500
C 	C 	0.78704 0.10371 0.89629 -0.10300
H 	H 	0.80820 0.11010 0.88990 0.06400
C 	C 	0.78309 0.08005 0.91995 0.04800
H 	H 	0.80150 0.07030 0.92970 0.02400
C 	C 	0.74690 0.04470 0.95530 0.44500
Fe	Fe	0.18684 0.62921 0.87079 1.22100
O 	O 	0.27100 0.53330 0.96670 -0.47400
O 	O 	0.21940 0.53960 0.96040 -0.30100
C 	C 	0.25210 0.57061 0.92939 -0.12900
C 	C 	0.22514 0.58488 0.91512 0.05500
H 	H 	0.20400 0.57845 0.92155 0.03800
N 	N 	0.22909 0.60855 0.89145 -0.19900
C 	C 	0.26005 0.61796 0.88204 0.03700
H 	H 	0.26270 0.63410 0.86590 0.07500
C 	C 	0.28704 0.60371 0.89629 -0.10300
H 	H 	0.30820 0.61010 0.88990 0.06400
C 	C 	0.28309 0.58005 0.91995 0.04800
H 	H 	0.30150 0.57030 0.92970 0.02400
C 	C 	0.24690 0.54470 0.95530 0.44500
Fe	Fe	0.18684 0.12921 0.37079 1.22100
O 	O 	0.27100 0.03330 0.46670 -0.47800
O 	O 	0.21940 0.03960 0.46040 -0.30500
C 	C 	0.25210 0.07061 0.42939 -0.13100
C 	C 	0.22514 0.08488 0.41512 0.05500
H 	H 	0.20400 0.07845 0.42155 0.03700
N 	N 	0.22909 0.10855 0.39145 -0.19900
C 	C 	0.26005 0.11796 0.38204 0.03700
H 	H 	0.26270 0.13410 0.36590 0.07500
C 	C 	0.28704 0.10371 0.39629 -0.10400
H 	H 	0.30820 0.11010 0.38990 0.06400
C 	C 	0.28309 0.08005 0.41995 0.04800
H 	H 	0.30150 0.07030 0.42970 0.02300
C 	C 	0.24690 0.04470 0.45530 0.44600
Fe	Fe	0.62921 0.68684 0.37079 1.22100
O 	O 	0.53330 0.77100 0.46670 -0.47700
O 	O 	0.53960 0.71940 0.46040 -0.30300
C 	C 	0.57061 0.75210 0.42939 -0.13000
C 	C 	0.58488 0.72514 0.41512 0.05500
H 	H 	0.57845 0.70400 0.42155 0.03700
N 	N 	0.60855 0.72909 0.39145 -0.19900
C 	C 	0.61796 0.76005 0.38204 0.03700
H 	H 	0.63410 0.76270 0.36590 0.07500
C 	C 	0.60371 0.78704 0.39629 -0.10300
H 	H 	0.61010 0.80820 0.38990 0.06400
C 	C 	0.58005 0.78309 0.41995 0.04800
H 	H 	0.57030 0.80150 0.42970 0.02400
C 	C 	0.54470 0.74690 0.45530 0.44600
Fe	Fe	0.62921 0.18684 0.87079 1.22100
O 	O 	0.53330 0.27100 0.96670 -0.47400
O 	O 	0.53960 0.21940 0.96040 -0.30100
C 	C 	0.57061 0.25210 0.92939 -0.12900
C 	C 	0.58488 0.22514 0.91512 0.05500
H 	H 	0.57845 0.20400 0.92155 0.03800
N 	N 	0.60855 0.22909 0.89145 -0.19900
C 	C 	0.61796 0.26005 0.88204 0.03700
H 	H 	0.63410 0.26270 0.86590 0.07500
C 	C 	0.60371 0.28704 0.89629 -0.10300
H 	H 	0.61010 0.30820 0.88990 0.06400
C 	C 	0.58005 0.28309 0.91996 0.04800
H 	H 	0.57030 0.30150 0.92970 0.02400
C 	C 	0.54470 0.24690 0.95530 0.44500
Fe	Fe	0.12921 0.68684 0.87079 1.22100
O 	O 	0.03330 0.77100 0.96670 -0.47500
O 	O 	0.03960 0.71940 0.96040 -0.30200
C 	C 	0.07061 0.75210 0.92939 -0.12900
C 	C 	0.08488 0.72514 0.91512 0.05500
H 	H 	0.07845 0.70400 0.92155 0.03700
N 	N 	0.10855 0.72909 0.89145 -0.19900
C 	C 	0.11796 0.76005 0.88204 0.03700
H 	H 	0.13410 0.76270 0.86590 0.07500
C 	C 	0.10371 0.78704 0.89629 -0.10300
H 	H 	0.11010 0.80820 0.88990 0.06400
C 	C 	0.08005 0.78309 0.91996 0.04800
H 	H 	0.07030 0.80150 0.92970 0.02400
C 	C 	0.04470 0.74690 0.95530 0.44500
Fe	Fe	0.12921 0.18684 0.37079 1.22100
O 	O 	0.03330 0.27100 0.46670 -0.47800
O 	O 	0.03960 0.21940 0.46040 -0.30500
C 	C 	0.07061 0.25210 0.42939 -0.13100
C 	C 	0.08488 0.22514 0.41512 0.05500
H 	H 	0.07845 0.20400 0.42155 0.03700
N 	N 	0.10855 0.22909 0.39145 -0.19900
C 	C 	0.11796 0.26005 0.38204 0.03700
H 	H 	0.13410 0.26270 0.36590 0.07500
C 	C 	0.10371 0.28704 0.39629 -0.10400
H 	H 	0.11010 0.30820 0.38990 0.06400
C 	C 	0.08005 0.28309 0.41995 0.04800
H 	H 	0.07030 0.30150 0.42970 0.02300
C 	C 	0.04470 0.24690 0.45530 0.44600
Fe	Fe	0.62921 0.31316 0.62921 1.22100
O 	O 	0.53330 0.22900 0.53330 -0.47700
O 	O 	0.53960 0.28060 0.53960 -0.30300
C 	C 	0.57061 0.24790 0.57061 -0.13000
C 	C 	0.58488 0.27486 0.58488 0.05500
H 	H 	0.57845 0.29600 0.57845 0.03700
N 	N 	0.60855 0.27091 0.60855 -0.19900
C 	C 	0.61796 0.23995 0.61796 0.03700
H 	H 	0.63410 0.23730 0.63410 0.07500
C 	C 	0.60371 0.21296 0.60371 -0.10300
H 	H 	0.61010 0.19180 0.61010 0.06400
C 	C 	0.58005 0.21691 0.58005 0.04800
H 	H 	0.57030 0.19850 0.57030 0.02300
C 	C 	0.54470 0.25310 0.54470 0.44600
Fe	Fe	0.62921 0.81316 0.12921 1.22100
O 	O 	0.53330 0.72900 0.03330 -0.47800
O 	O 	0.53960 0.78060 0.03960 -0.30400
C 	C 	0.57061 0.74790 0.07061 -0.13100
C 	C 	0.58488 0.77486 0.08488 0.05500
H 	H 	0.57845 0.79600 0.07845 0.03700
N 	N 	0.60855 0.77091 0.10855 -0.19900
C 	C 	0.61796 0.73995 0.11796 0.03700
H 	H 	0.63410 0.73730 0.13410 0.07500
C 	C 	0.60371 0.71296 0.10371 -0.10400
H 	H 	0.61010 0.69180 0.11010 0.06400
C 	C 	0.58005 0.71691 0.08005 0.04800
H 	H 	0.57030 0.69850 0.07030 0.02300
C 	C 	0.54470 0.75310 0.04470 0.44600
Fe	Fe	0.12921 0.31316 0.12921 1.22100
O 	O 	0.03330 0.22900 0.03330 -0.48000
O 	O 	0.03960 0.28060 0.03960 -0.30600
C 	C 	0.07061 0.24790 0.07061 -0.13100
C 	C 	0.08488 0.27486 0.08488 0.05500
H 	H 	0.07845 0.29600 0.07845 0.03600
N 	N 	0.10855 0.27091 0.10855 -0.19900
C 	C 	0.11796 0.23995 0.11796 0.03700
H 	H 	0.13410 0.23730 0.13410 0.07500
C 	C 	0.10371 0.21296 0.10371 -0.10400
H 	H 	0.11010 0.19180 0.11010 0.06400
C 	C 	0.08005 0.21691 0.08005 0.04800
H 	H 	0.07030 0.19850 0.07030 0.02200
C 	C 	0.04470 0.25310 0.04470 0.44600
Fe	Fe	0.12921 0.81316 0.62921 1.22100
O 	O 	0.03330 0.72900 0.53330 -0.47800
O 	O 	0.03960 0.78060 0.53960 -0.30400
C 	C 	0.07061 0.74790 0.57061 -0.13100
C 	C 	0.08488 0.77486 0.58488 0.05500
H 	H 	0.07845 0.79600 0.57845 0.03700
N 	N 	0.10855 0.77091 0.60855 -0.19900
C 	C 	0.11796 0.73995 0.61796 0.03700
H 	H 	0.13410 0.73730 0.63410 0.07500
C 	C 	0.10371 0.71296 0.60371 -0.10400
H 	H 	0.11010 0.69180 0.61010 0.06400
C 	C 	0.08005 0.71691 0.58005 0.04800
H 	H 	0.07030 0.69850 0.57030 0.02300
C 	C 	0.04470 0.75310 0.54470 0.44600
Fe	Fe	0.37079 0.31316 0.37079 1.22100
O 	O 	0.46670 0.22900 0.46670 -0.47700
O 	O 	0.46040 0.28060 0.46040 -0.30300
C 	C 	0.42939 0.24790 0.42939 -0.13000
C 	C 	0.41512 0.27486 0.41512 0.05500
H 	H 	0.42155 0.29600 0.42155 0.03700
N 	N 	0.39145 0.27091 0.39145 -0.19900
C 	C 	0.38204 0.23995 0.38204 0.03700
H 	H 	0.36590 0.23730 0.36590 0.07500
C 	C 	0.39629 0.21296 0.39629 -0.10300
H 	H 	0.38990 0.19180 0.38990 0.06400
C 	C 	0.41995 0.21691 0.41995 0.04800
H 	H 	0.42970 0.19850 0.42970 0.02300
C 	C 	0.45530 0.25310 0.45530 0.44600
Fe	Fe	0.37079 0.81316 0.87079 1.22100
O 	O 	0.46670 0.72900 0.96670 -0.47400
O 	O 	0.46040 0.78060 0.96040 -0.30100
C 	C 	0.42939 0.74790 0.92939 -0.12900
C 	C 	0.41512 0.77486 0.91512 0.05500
H 	H 	0.42155 0.79600 0.92155 0.03800
N 	N 	0.39145 0.77091 0.89145 -0.19900
C 	C 	0.38204 0.73995 0.88204 0.03700
H 	H 	0.36590 0.73730 0.86590 0.07500
C 	C 	0.39629 0.71296 0.89629 -0.10300
H 	H 	0.38990 0.69180 0.88990 0.06400
C 	C 	0.41995 0.71691 0.91996 0.04800
H 	H 	0.42970 0.69850 0.92970 0.02400
C 	C 	0.45530 0.75310 0.95530 0.44500
Fe	Fe	0.87079 0.31316 0.87079 1.22100
O 	O 	0.96670 0.22900 0.96670 -0.47100
O 	O 	0.96040 0.28060 0.96040 -0.29900
C 	C 	0.92939 0.24790 0.92939 -0.12800
C 	C 	0.91512 0.27486 0.91512 0.05500
H 	H 	0.92155 0.29600 0.92155 0.03800
N 	N 	0.89145 0.27091 0.89145 -0.19900
C 	C 	0.88204 0.23995 0.88204 0.03700
H 	H 	0.86590 0.23730 0.86590 0.07500
C 	C 	0.89629 0.21296 0.89629 -0.10200
H 	H 	0.88990 0.19180 0.88990 0.06500
C 	C 	0.91995 0.21691 0.91996 0.04800
H 	H 	0.92970 0.19850 0.92970 0.02500
C 	C 	0.95530 0.25310 0.95530 0.44400
Fe	Fe	0.87079 0.81316 0.37079 1.22100
O 	O 	0.96670 0.72900 0.46670 -0.47400
O 	O 	0.96040 0.78060 0.46040 -0.30100
C 	C 	0.92939 0.74790 0.42939 -0.12900
C 	C 	0.91512 0.77486 0.41512 0.05500
H 	H 	0.92155 0.79600 0.42155 0.03800
N 	N 	0.89145 0.77091 0.39145 -0.19900
C 	C 	0.88204 0.73995 0.38204 0.03700
H 	H 	0.86590 0.73730 0.36590 0.07500
C 	C 	0.89629 0.71296 0.39629 -0.10300
H 	H 	0.88990 0.69180 0.38990 0.06400
C 	C 	0.91995 0.71691 0.41995 0.04800
H 	H 	0.92970 0.69850 0.42970 0.02400
C 	C 	0.95530 0.75310 0.45530 0.44500
Fe	Fe	0.37079 0.68684 0.62921 1.22100
O 	O 	0.46670 0.77100 0.53330 -0.47700
O 	O 	0.46040 0.71940 0.53960 -0.30300
C 	C 	0.42939 0.75210 0.57061 -0.13000
C 	C 	0.41512 0.72514 0.58488 0.05500
H 	H 	0.42155 0.70400 0.57845 0.03700
N 	N 	0.39145 0.72909 0.60855 -0.19900
C 	C 	0.38204 0.76005 0.61796 0.03700
H 	H 	0.36590 0.76270 0.63410 0.07500
C 	C 	0.39629 0.78704 0.60371 -0.10300
H 	H 	0.38990 0.80820 0.61010 0.06400
C 	C 	0.41995 0.78309 0.58005 0.04800
H 	H 	0.42970 0.80150 0.57030 0.02400
C 	C 	0.45530 0.74690 0.54470 0.44600
Fe	Fe	0.37079 0.18684 0.12921 1.22100
O 	O 	0.46670 0.27100 0.03330 -0.47800
O 	O 	0.46040 0.21940 0.03960 -0.30500
C 	C 	0.42939 0.25210 0.07061 -0.13100
C 	C 	0.41512 0.22514 0.08488 0.05500
H 	H 	0.42155 0.20400 0.07845 0.03700
N 	N 	0.39145 0.22909 0.10855 -0.19900
C 	C 	0.38204 0.26005 0.11796 0.03700
H 	H 	0.36590 0.26270 0.13410 0.07500
C 	C 	0.39629 0.28704 0.10371 -0.10400
H 	H 	0.38990 0.30820 0.11010 0.06400
C 	C 	0.41995 0.28309 0.08005 0.04800
H 	H 	0.42970 0.30150 0.07030 0.02300
C 	C 	0.45530 0.24690 0.04470 0.44600
Fe	Fe	0.87079 0.68684 0.12921 1.22100
O 	O 	0.96670 0.77100 0.03330 -0.47500
O 	O 	0.96040 0.71940 0.03960 -0.30200
C 	C 	0.92939 0.75210 0.07061 -0.12900
C 	C 	0.91512 0.72514 0.08488 0.05500
H 	H 	0.92155 0.70400 0.07845 0.03700
N 	N 	0.89145 0.72909 0.10855 -0.19900
C 	C 	0.88204 0.76005 0.11796 0.03700
H 	H 	0.86590 0.76270 0.13410 0.07500
C 	C 	0.89629 0.78704 0.10371 -0.10300
H 	H 	0.88990 0.80820 0.11010 0.06400
C 	C 	0.91995 0.78309 0.08005 0.04800
H 	H 	0.92970 0.80150 0.07030 0.02400
C 	C 	0.95530 0.74690 0.04470 0.44500
Fe	Fe	0.87079 0.18684 0.62921 1.22100
O 	O 	0.96670 0.27100 0.53330 -0.47400
O 	O 	0.96040 0.21940 0.53960 -0.30100
C 	C 	0.92939 0.25210 0.57061 -0.12900
C 	C 	0.91512 0.22514 0.58488 0.05500
H 	H 	0.92155 0.20400 0.57845 0.03800
N 	N 	0.89145 0.22909 0.60855 -0.19900
C 	C 	0.88204 0.26005 0.61796 0.03700
H 	H 	0.86590 0.26270 0.63410 0.07500
C 	C 	0.89629 0.28704 0.60371 -0.10300
H 	H 	0.88990 0.30820 0.61010 0.06400
C 	C 	0.91995 0.28309 0.58005 0.04800
H 	H 	0.92970 0.30150 0.57030 0.02400
C 	C 	0.95530 0.24690 0.54470 0.44500
Fe	Fe	0.37079 0.62921 0.68684 1.22100
O 	O 	0.46670 0.53330 0.77100 -0.47700
O 	O 	0.46040 0.53960 0.71940 -0.30300
C 	C 	0.42939 0.57061 0.75210 -0.13000
C 	C 	0.41512 0.58488 0.72514 0.05500
H 	H 	0.42155 0.57845 0.70400 0.03700
N 	N 	0.39145 0.60855 0.72909 -0.19900
C 	C 	0.38204 0.61796 0.76005 0.03700
H 	H 	0.36590 0.63410 0.76270 0.07500
C 	C 	0.39629 0.60371 0.78704 -0.10300
H 	H 	0.38990 0.61010 0.80820 0.06400
C 	C 	0.41995 0.58005 0.78309 0.04800
H 	H 	0.42970 0.57030 0.80150 0.02400
C 	C 	0.45530 0.54470 0.74690 0.44600
Fe	Fe	0.37079 0.12921 0.18684 1.22100
O 	O 	0.46670 0.03330 0.27100 -0.47800
O 	O 	0.46040 0.03960 0.21940 -0.30500
C 	C 	0.42939 0.07061 0.25210 -0.13100
C 	C 	0.41512 0.08488 0.22514 0.05500
H 	H 	0.42155 0.07845 0.20400 0.03700
N 	N 	0.39145 0.10855 0.22909 -0.19900
C 	C 	0.38204 0.11796 0.26005 0.03700
H 	H 	0.36590 0.13410 0.26270 0.07500
C 	C 	0.39629 0.10371 0.28704 -0.10400
H 	H 	0.38990 0.11010 0.30820 0.06400
C 	C 	0.41995 0.08005 0.28309 0.04800
H 	H 	0.42970 0.07030 0.30150 0.02300
C 	C 	0.45530 0.04470 0.24690 0.44600
Fe	Fe	0.87079 0.62921 0.18684 1.22100
O 	O 	0.96670 0.53330 0.27100 -0.47400
O 	O 	0.96040 0.53960 0.21940 -0.30100
C 	C 	0.92939 0.57061 0.25210 -0.12900
C 	C 	0.91512 0.58488 0.22514 0.05500
H 	H 	0.92155 0.57845 0.20400 0.03800
N 	N 	0.89145 0.60855 0.22909 -0.19900
C 	C 	0.88204 0.61796 0.26005 0.03700
H 	H 	0.86590 0.63410 0.26270 0.07500
C 	C 	0.89629 0.60371 0.28704 -0.10300
H 	H 	0.88990 0.61010 0.30820 0.06400
C 	C 	0.91996 0.58005 0.28309 0.04800
H 	H 	0.92970 0.57030 0.30150 0.02400
C 	C 	0.95530 0.54470 0.24690 0.44500
Fe	Fe	0.87079 0.12921 0.68684 1.22100
O 	O 	0.96670 0.03330 0.77100 -0.47500
O 	O 	0.96040 0.03960 0.71940 -0.30200
C 	C 	0.92939 0.07061 0.75210 -0.12900
C 	C 	0.91512 0.08488 0.72514 0.05500
H 	H 	0.92155 0.07845 0.70400 0.03700
N 	N 	0.89145 0.10855 0.72909 -0.19900
C 	C 	0.88204 0.11796 0.76005 0.03700
H 	H 	0.86590 0.13410 0.76270 0.07500
C 	C 	0.89629 0.10371 0.78704 -0.10300
H 	H 	0.88990 0.11010 0.80820 0.06400
C 	C 	0.91996 0.08005 0.78309 0.04800
H 	H 	0.92970 0.07030 0.80150 0.02400
C 	C 	0.95530 0.04470 0.74690 0.44500
Fe	Fe	0.62921 0.62921 0.31316 1.22100
O 	O 	0.53330 0.53330 0.22900 -0.47700
O 	O 	0.53960 0.53960 0.28060 -0.30300
C 	C 	0.57061 0.57061 0.24790 -0.13000
C 	C 	0.58488 0.58488 0.27486 0.05500
H 	H 	0.57845 0.57845 0.29600 0.03700
N 	N 	0.60855 0.60855 0.27091 -0.19900
C 	C 	0.61796 0.61796 0.23995 0.03700
H 	H 	0.63410 0.63410 0.23730 0.07500
C 	C 	0.60371 0.60371 0.21296 -0.10300
H 	H 	0.61010 0.61010 0.19180 0.06400
C 	C 	0.58005 0.58005 0.21691 0.04800
H 	H 	0.57030 0.57030 0.19850 0.02300
C 	C 	0.54470 0.54470 0.25310 0.44600
Fe	Fe	0.62921 0.12921 0.81316 1.22100
O 	O 	0.53330 0.03330 0.72900 -0.47800
O 	O 	0.53960 0.03960 0.78060 -0.30400
C 	C 	0.57061 0.07061 0.74790 -0.13100
C 	C 	0.58488 0.08488 0.77486 0.05500
H 	H 	0.57845 0.07845 0.79600 0.03700
N 	N 	0.60855 0.10855 0.77091 -0.19900
C 	C 	0.61796 0.11796 0.73995 0.03700
H 	H 	0.63410 0.13410 0.73730 0.07500
C 	C 	0.60371 0.10371 0.71296 -0.10400
H 	H 	0.61010 0.11010 0.69180 0.06400
C 	C 	0.58005 0.08005 0.71691 0.04800
H 	H 	0.57030 0.07030 0.69850 0.02300
C 	C 	0.54470 0.04470 0.75310 0.44600
Fe	Fe	0.12921 0.62921 0.81316 1.22100
O 	O 	0.03330 0.53330 0.72900 -0.47800
O 	O 	0.03960 0.53960 0.78060 -0.30400
C 	C 	0.07061 0.57061 0.74790 -0.13100
C 	C 	0.08488 0.58488 0.77486 0.05500
H 	H 	0.07845 0.57845 0.79600 0.03700
N 	N 	0.10855 0.60855 0.77091 -0.19900
C 	C 	0.11796 0.61796 0.73995 0.03700
H 	H 	0.13410 0.63410 0.73730 0.07500
C 	C 	0.10371 0.60371 0.71296 -0.10400
H 	H 	0.11010 0.61010 0.69180 0.06400
C 	C 	0.08005 0.58005 0.71691 0.04800
H 	H 	0.07030 0.57030 0.69850 0.02300
C 	C 	0.04470 0.54470 0.75310 0.44600
Fe	Fe	0.12921 0.12921 0.31316 1.22100
O 	O 	0.03330 0.03330 0.22900 -0.48000
O 	O 	0.03960 0.03960 0.28060 -0.30600
C 	C 	0.07061 0.07061 0.24790 -0.13100
C 	C 	0.08488 0.08488 0.27486 0.05500
H 	H 	0.07845 0.07845 0.29600 0.03600
N 	N 	0.10855 0.10855 0.27091 -0.19900
C 	C 	0.11796 0.11796 0.23995 0.03700
H 	H 	0.13410 0.13410 0.23730 0.07500
C 	C 	0.10371 0.10371 0.21296 -0.10400
H 	H 	0.11010 0.11010 0.19180 0.06400
C 	C 	0.08005 0.08005 0.21691 0.04800
H 	H 	0.07030 0.07030 0.19850 0.02200
C 	C 	0.04470 0.04470 0.25310 0.44600
Fe	Fe	0.37079 0.37079 0.31316 1.22100
O 	O 	0.46670 0.46670 0.22900 -0.47700
O 	O 	0.46040 0.46040 0.28060 -0.30300
C 	C 	0.42939 0.42939 0.24790 -0.13000
C 	C 	0.41512 0.41512 0.27486 0.05500
H 	H 	0.42155 0.42155 0.29600 0.03700
N 	N 	0.39145 0.39145 0.27091 -0.19900
C 	C 	0.38204 0.38204 0.23995 0.03700
H 	H 	0.36590 0.36590 0.23730 0.07500
C 	C 	0.39629 0.39629 0.21296 -0.10300
H 	H 	0.38990 0.38990 0.19180 0.06400
C 	C 	0.41995 0.41995 0.21691 0.04800
H 	H 	0.42970 0.42970 0.19850 0.02300
C 	C 	0.45530 0.45530 0.25310 0.44600
Fe	Fe	0.37079 0.87079 0.81316 1.22100
O 	O 	0.46670 0.96670 0.72900 -0.47400
O 	O 	0.46040 0.96040 0.78060 -0.30100
C 	C 	0.42939 0.92939 0.74790 -0.12900
C 	C 	0.41512 0.91512 0.77486 0.05500
H 	H 	0.42155 0.92155 0.79600 0.03800
N 	N 	0.39145 0.89145 0.77091 -0.19900
C 	C 	0.38204 0.88204 0.73995 0.03700
H 	H 	0.36590 0.86590 0.73730 0.07500
C 	C 	0.39629 0.89629 0.71296 -0.10300
H 	H 	0.38990 0.88990 0.69180 0.06400
C 	C 	0.41995 0.91995 0.71691 0.04800
H 	H 	0.42970 0.92970 0.69850 0.02400
C 	C 	0.45530 0.95530 0.75310 0.44500
Fe	Fe	0.87079 0.37079 0.81316 1.22100
O 	O 	0.96670 0.46670 0.72900 -0.47400
O 	O 	0.96040 0.46040 0.78060 -0.30100
C 	C 	0.92939 0.42939 0.74790 -0.12900
C 	C 	0.91512 0.41512 0.77486 0.05500
H 	H 	0.92155 0.42155 0.79600 0.03800
N 	N 	0.89145 0.39145 0.77091 -0.19900
C 	C 	0.88204 0.38204 0.73995 0.03700
H 	H 	0.86590 0.36590 0.73730 0.07500
C 	C 	0.89629 0.39629 0.71296 -0.10300
H 	H 	0.88990 0.38990 0.69180 0.06400
C 	C 	0.91996 0.41995 0.71691 0.04800
H 	H 	0.92970 0.42970 0.69850 0.02400
C 	C 	0.95530 0.45530 0.75310 0.44500
Fe	Fe	0.87079 0.87079 0.31316 1.22100
O 	O 	0.96670 0.96670 0.22900 -0.47100
O 	O 	0.96040 0.96040 0.28060 -0.29900
C 	C 	0.92939 0.92939 0.24790 -0.12800
C 	C 	0.91512 0.91512 0.27486 0.05500
H 	H 	0.92155 0.92155 0.29600 0.03800
N 	N 	0.89145 0.89145 0.27091 -0.19900
C 	C 	0.88204 0.88204 0.23995 0.03700
H 	H 	0.86590 0.86590 0.23730 0.07500
C 	C 	0.89629 0.89629 0.21296 -0.10200
H 	H 	0.88990 0.88990 0.19180 0.06500
C 	C 	0.91996 0.91995 0.21691 0.04800
H 	H 	0.92970 0.92970 0.19850 0.02500
C 	C 	0.95530 0.95530 0.25310 0.44400
Fe	Fe	0.62921 0.37079 0.68684 1.22100
O 	O 	0.53330 0.46670 0.77100 -0.47700
O 	O 	0.53960 0.46040 0.71940 -0.30300
C 	C 	0.57061 0.42939 0.75210 -0.13000
C 	C 	0.58488 0.41512 0.72514 0.05500
H 	H 	0.57845 0.42155 0.70400 0.03700
N 	N 	0.60855 0.39145 0.72909 -0.19900
C 	C 	0.61796 0.38204 0.76005 0.03700
H 	H 	0.63410 0.36590 0.76270 0.07500
C 	C 	0.60371 0.39629 0.78704 -0.10300
H 	H 	0.61010 0.38990 0.80820 0.06400
C 	C 	0.58005 0.41995 0.78309 0.04800
H 	H 	0.57030 0.42970 0.80150 0.02400
C 	C 	0.54470 0.45530 0.74690 0.44600
Fe	Fe	0.62921 0.87079 0.18684 1.22100
O 	O 	0.53330 0.96670 0.27100 -0.47400
O 	O 	0.53960 0.96040 0.21940 -0.30100
C 	C 	0.57061 0.92939 0.25210 -0.12900
C 	C 	0.58488 0.91512 0.22514 0.05500
H 	H 	0.57845 0.92155 0.20400 0.03800
N 	N 	0.60855 0.89145 0.22909 -0.19900
C 	C 	0.61796 0.88204 0.26005 0.03700
H 	H 	0.63410 0.86590 0.26270 0.07500
C 	C 	0.60371 0.89629 0.28704 -0.10300
H 	H 	0.61010 0.88990 0.30820 0.06400
C 	C 	0.58005 0.91995 0.28309 0.04800
H 	H 	0.57030 0.92970 0.30150 0.02400
C 	C 	0.54470 0.95530 0.24690 0.44500
Fe	Fe	0.12921 0.37079 0.18684 1.22100
O 	O 	0.03330 0.46670 0.27100 -0.47800
O 	O 	0.03960 0.46040 0.21940 -0.30500
C 	C 	0.07061 0.42939 0.25210 -0.13100
C 	C 	0.08488 0.41512 0.22514 0.05500
H 	H 	0.07845 0.42155 0.20400 0.03700
N 	N 	0.10855 0.39145 0.22909 -0.19900
C 	C 	0.11796 0.38204 0.26005 0.03700
H 	H 	0.13410 0.36590 0.26270 0.07500
C 	C 	0.10371 0.39629 0.28704 -0.10400
H 	H 	0.11010 0.38990 0.30820 0.06400
C 	C 	0.08005 0.41995 0.28309 0.04800
H 	H 	0.07030 0.42970 0.30150 0.02300
C 	C 	0.04470 0.45530 0.24690 0.44600
Fe	Fe	0.12921 0.87079 0.68684 1.22100
O 	O 	0.03330 0.96670 0.77100 -0.47500
O 	O 	0.03960 0.96040 0.71940 -0.30200
C 	C 	0.07061 0.92939 0.75210 -0.12900
C 	C 	0.08488 0.91512 0.72514 0.05500
H 	H 	0.07845 0.92155 0.70400 0.03700
N 	N 	0.10855 0.89145 0.72909 -0.19900
C 	C 	0.11796 0.88204 0.76005 0.03700
H 	H 	0.13410 0.86590 0.76270 0.07500
C 	C 	0.10371 0.89629 0.78704 -0.10300
H 	H 	0.11010 0.88990 0.80820 0.06400
C 	C 	0.08005 0.91995 0.78309 0.04800
H 	H 	0.07030 0.92970 0.80150 0.02400
C 	C 	0.04470 0.95530 0.74690 0.44500
Fe	Fe	0.37079 0.68684 0.37079 1.22100
O 	O 	0.46670 0.77100 0.46670 -0.47700
O 	O 	0.46040 0.71940 0.46040 -0.30300
C 	C 	0.42939 0.75210 0.42939 -0.13000
C 	C 	0.41512 0.72514 0.41512 0.05500
H 	H 	0.42155 0.70400 0.42155 0.03700
N 	N 	0.39145 0.72909 0.39145 -0.19900
C 	C 	0.38204 0.76005 0.38204 0.03700
H 	H 	0.36590 0.76270 0.36590 0.07500
C 	C 	0.39629 0.78704 0.39629 -0.10300
H 	H 	0.38990 0.80820 0.38990 0.06400
C 	C 	0.41995 0.78309 0.41995 0.04800
H 	H 	0.42970 0.80150 0.42970 0.02400
C 	C 	0.45530 0.74690 0.45530 0.44600
Fe	Fe	0.37079 0.18684 0.87079 1.22100
O 	O 	0.46670 0.27100 0.96670 -0.47400
O 	O 	0.46040 0.21940 0.96040 -0.30100
C 	C 	0.42939 0.25210 0.92939 -0.12900
C 	C 	0.41512 0.22514 0.91512 0.05500
H 	H 	0.42155 0.20400 0.92155 0.03800
N 	N 	0.39145 0.22909 0.89145 -0.19900
C 	C 	0.38204 0.26005 0.88204 0.03700
H 	H 	0.36590 0.26270 0.86590 0.07500
C 	C 	0.39629 0.28704 0.89629 -0.10300
H 	H 	0.38990 0.30820 0.88990 0.06500
C 	C 	0.41995 0.28309 0.91995 0.04800
H 	H 	0.42970 0.30150 0.92970 0.02400
C 	C 	0.45530 0.24690 0.95530 0.44500
Fe	Fe	0.87079 0.68684 0.87079 1.22100
O 	O 	0.96670 0.77100 0.96670 -0.47100
O 	O 	0.96040 0.71940 0.96040 -0.29900
C 	C 	0.92939 0.75210 0.92939 -0.12800
C 	C 	0.91512 0.72514 0.91512 0.05500
H 	H 	0.92155 0.70400 0.92155 0.03800
N 	N 	0.89145 0.72909 0.89145 -0.19900
C 	C 	0.88204 0.76005 0.88204 0.03700
H 	H 	0.86590 0.76270 0.86590 0.07500
C 	C 	0.89629 0.78704 0.89629 -0.10200
H 	H 	0.88990 0.80820 0.88990 0.06500
C 	C 	0.91996 0.78309 0.91995 0.04700
H 	H 	0.92970 0.80150 0.92970 0.02500
C 	C 	0.95530 0.74690 0.95530 0.44400
Fe	Fe	0.87079 0.18684 0.37079 1.22100
O 	O 	0.96670 0.27100 0.46670 -0.47400
O 	O 	0.96040 0.21940 0.46040 -0.30100
C 	C 	0.92939 0.25210 0.42939 -0.12900
C 	C 	0.91512 0.22514 0.41512 0.05500
H 	H 	0.92155 0.20400 0.42155 0.03800
N 	N 	0.89145 0.22909 0.39145 -0.19900
C 	C 	0.88204 0.26005 0.38204 0.03700
H 	H 	0.86590 0.26270 0.36590 0.07500
C 	C 	0.89629 0.28704 0.39629 -0.10300
H 	H 	0.88990 0.30820 0.38990 0.06400
C 	C 	0.91996 0.28309 0.41995 0.04800
H 	H 	0.92970 0.30150 0.42970 0.02400
C 	C 	0.95530 0.24690 0.45530 0.44500
Fe	Fe	0.62921 0.31316 0.37079 1.22100
O 	O 	0.53330 0.22900 0.46670 -0.47700
O 	O 	0.53960 0.28060 0.46040 -0.30300
C 	C 	0.57061 0.24790 0.42939 -0.13000
C 	C 	0.58488 0.27486 0.41512 0.05500
H 	H 	0.57845 0.29600 0.42155 0.03700
N 	N 	0.60855 0.27091 0.39145 -0.19900
C 	C 	0.61796 0.23995 0.38204 0.03700
H 	H 	0.63410 0.23730 0.36590 0.07500
C 	C 	0.60371 0.21296 0.39629 -0.10300
H 	H 	0.61010 0.19180 0.38990 0.06400
C 	C 	0.58005 0.21691 0.41995 0.04800
H 	H 	0.57030 0.19850 0.42970 0.02300
C 	C 	0.54470 0.25310 0.45530 0.44600
Fe	Fe	0.62921 0.81316 0.87079 1.22100
O 	O 	0.53330 0.72900 0.96670 -0.47400
O 	O 	0.53960 0.78060 0.96040 -0.30100
C 	C 	0.57061 0.74790 0.92939 -0.12900
C 	C 	0.58488 0.77486 0.91512 0.05500
H 	H 	0.57845 0.79600 0.92155 0.03800
N 	N 	0.60855 0.77091 0.89145 -0.19900
C 	C 	0.61796 0.73995 0.88204 0.03700
H 	H 	0.63410 0.73730 0.86590 0.07500
C 	C 	0.60371 0.71296 0.89629 -0.10300
H 	H 	0.61010 0.69180 0.88990 0.06400
C 	C 	0.58005 0.71691 0.91995 0.04800
H 	H 	0.57030 0.69850 0.92970 0.02400
C 	C 	0.54470 0.75310 0.95530 0.44500
Fe	Fe	0.12921 0.31316 0.87079 1.22100
O 	O 	0.03330 0.22900 0.96670 -0.47600
O 	O 	0.03960 0.28060 0.96040 -0.30200
C 	C 	0.07061 0.24790 0.92939 -0.13000
C 	C 	0.08488 0.27486 0.91512 0.05500
H 	H 	0.07845 0.29600 0.92155 0.03700
N 	N 	0.10855 0.27091 0.89145 -0.19900
C 	C 	0.11796 0.23995 0.88204 0.03700
H 	H 	0.13410 0.23730 0.86590 0.07500
C 	C 	0.10371 0.21296 0.89629 -0.10300
H 	H 	0.11010 0.19180 0.88990 0.06400
C 	C 	0.08005 0.21691 0.91995 0.04800
H 	H 	0.07030 0.19850 0.92970 0.02400
C 	C 	0.04470 0.25310 0.95530 0.44500
Fe	Fe	0.12921 0.81316 0.37079 1.22100
O 	O 	0.03330 0.72900 0.46670 -0.47800
O 	O 	0.03960 0.78060 0.46040 -0.30400
C 	C 	0.07061 0.74790 0.42939 -0.13100
C 	C 	0.08488 0.77486 0.41512 0.05500
H 	H 	0.07845 0.79600 0.42155 0.03700
N 	N 	0.10855 0.77091 0.39145 -0.19900
C 	C 	0.11796 0.73995 0.38204 0.03700
H 	H 	0.13410 0.73730 0.36590 0.07500
C 	C 	0.10371 0.71296 0.39629 -0.10400
H 	H 	0.11010 0.69180 0.38990 0.06400
C 	C 	0.08005 0.71691 0.41995 0.04800
H 	H 	0.07030 0.69850 0.42970 0.02300
C 	C 	0.04470 0.75310 0.45530 0.44600
Fe	Fe	0.37079 0.31316 0.62921 1.22100
O 	O 	0.46670 0.22900 0.53330 -0.47700
O 	O 	0.46040 0.28060 0.53960 -0.30300
C 	C 	0.42939 0.24790 0.57061 -0.13000
C 	C 	0.41512 0.27486 0.58488 0.05500
H 	H 	0.42155 0.29600 0.57845 0.03700
N 	N 	0.39145 0.27091 0.60855 -0.19900
C 	C 	0.38204 0.23995 0.61796 0.03700
H 	H 	0.36590 0.23730 0.63410 0.07500
C 	C 	0.39629 0.21296 0.60371 -0.10300
H 	H 	0.38990 0.19180 0.61010 0.06400
C 	C 	0.41995 0.21691 0.58005 0.04800
H 	H 	0.42970 0.19850 0.57030 0.02300
C 	C 	0.45530 0.25310 0.54470 0.44600
Fe	Fe	0.37079 0.81316 0.12921 1.22100
O 	O 	0.46670 0.72900 0.03330 -0.47800
O 	O 	0.46040 0.78060 0.03960 -0.30400
C 	C 	0.42939 0.74790 0.07061 -0.13100
C 	C 	0.41512 0.77486 0.08488 0.05500
H 	H 	0.42155 0.79600 0.07845 0.03700
N 	N 	0.39145 0.77091 0.10855 -0.19900
C 	C 	0.38204 0.73995 0.11796 0.03700
H 	H 	0.36590 0.73730 0.13410 0.07500
C 	C 	0.39629 0.71296 0.10371 -0.10400
H 	H 	0.38990 0.69180 0.11010 0.06400
C 	C 	0.41995 0.71691 0.08005 0.04800
H 	H 	0.42970 0.69850 0.07030 0.02300
C 	C 	0.45530 0.75310 0.04470 0.44600
Fe	Fe	0.87079 0.31316 0.12921 1.22100
O 	O 	0.96670 0.22900 0.03330 -0.47600
O 	O 	0.96040 0.28060 0.03960 -0.30200
C 	C 	0.92939 0.24790 0.07061 -0.13000
C 	C 	0.91512 0.27486 0.08488 0.05500
H 	H 	0.92155 0.29600 0.07845 0.03700
N 	N 	0.89145 0.27091 0.10855 -0.19900
C 	C 	0.88204 0.23995 0.11796 0.03700
H 	H 	0.86590 0.23730 0.13410 0.07500
C 	C 	0.89629 0.21296 0.10371 -0.10300
H 	H 	0.88990 0.19180 0.11010 0.06400
C 	C 	0.91996 0.21691 0.08005 0.04800
H 	H 	0.92970 0.19850 0.07030 0.02400
C 	C 	0.95530 0.25310 0.04470 0.44500
Fe	Fe	0.87079 0.81316 0.62921 1.22100
O 	O 	0.96670 0.72900 0.53330 -0.47400
O 	O 	0.96040 0.78060 0.53960 -0.30100
C 	C 	0.92939 0.74790 0.57061 -0.12900
C 	C 	0.91512 0.77486 0.58488 0.05500
H 	H 	0.92155 0.79600 0.57845 0.03800
N 	N 	0.89145 0.77091 0.60855 -0.19900
C 	C 	0.88204 0.73995 0.61796 0.03700
H 	H 	0.86590 0.73730 0.63410 0.07500
C 	C 	0.89629 0.71296 0.60371 -0.10300
H 	H 	0.88990 0.69180 0.61010 0.06400
C 	C 	0.91996 0.71691 0.58005 0.04800
H 	H 	0.92970 0.69850 0.57030 0.02400
C 	C 	0.95530 0.75310 0.54470 0.44500
Fe	Fe	0.62921 0.68684 0.62921 1.22100
O 	O 	0.53330 0.77100 0.53330 -0.47700
O 	O 	0.53960 0.71940 0.53960 -0.30300
C 	C 	0.57061 0.75210 0.57061 -0.13000
C 	C 	0.58488 0.72514 0.58488 0.05500
H 	H 	0.57845 0.70400 0.57845 0.03700
N 	N 	0.60855 0.72909 0.60855 -0.19900
C 	C 	0.61796 0.76005 0.61796 0.03700
H 	H 	0.63410 0.76270 0.63410 0.07500
C 	C 	0.60371 0.78704 0.60371 -0.10300
H 	H 	0.61010 0.80820 0.61010 0.06400
C 	C 	0.58005 0.78309 0.58005 0.04800
H 	H 	0.57030 0.80150 0.57030 0.02400
C 	C 	0.54470 0.74690 0.54470 0.44600
Fe	Fe	0.62921 0.18684 0.12921 1.22100
O 	O 	0.53330 0.27100 0.03330 -0.47800
O 	O 	0.53960 0.21940 0.03960 -0.30500
C 	C 	0.57061 0.25210 0.07061 -0.13100
C 	C 	0.58488 0.22514 0.08488 0.05500
H 	H 	0.57845 0.20400 0.07845 0.03700
N 	N 	0.60855 0.22909 0.10855 -0.19900
C 	C 	0.61796 0.26005 0.11796 0.03700
H 	H 	0.63410 0.26270 0.13410 0.07500
C 	C 	0.60371 0.28704 0.10371 -0.10400
H 	H 	0.61010 0.30820 0.11010 0.06400
C 	C 	0.58005 0.28309 0.08005 0.04800
H 	H 	0.57030 0.30150 0.07030 0.02300
C 	C 	0.54470 0.24690 0.04470 0.44600
Fe	Fe	0.12921 0.68684 0.12921 1.22100
O 	O 	0.03330 0.77100 0.03330 -0.48000
O 	O 	0.03960 0.71940 0.03960 -0.30600
C 	C 	0.07061 0.75210 0.07061 -0.13100
C 	C 	0.08488 0.72514 0.08488 0.05500
H 	H 	0.07845 0.70400 0.07845 0.03600
N 	N 	0.10855 0.72909 0.10855 -0.19900
C 	C 	0.11796 0.76005 0.11796 0.03700
H 	H 	0.13410 0.76270 0.13410 0.07500
C 	C 	0.10371 0.78704 0.10371 -0.10400
H 	H 	0.11010 0.80820 0.11010 0.06400
C 	C 	0.08005 0.78309 0.08005 0.04800
H 	H 	0.07030 0.80150 0.07030 0.02200
C 	C 	0.04470 0.74690 0.04470 0.44600
Fe	Fe	0.12921 0.18684 0.62921 1.22100
O 	O 	0.03330 0.27100 0.53330 -0.47800
O 	O 	0.03960 0.21940 0.53960 -0.30500
C 	C 	0.07061 0.25210 0.57061 -0.13100
C 	C 	0.08488 0.22514 0.58488 0.05500
H 	H 	0.07845 0.20400 0.57845 0.03700
N 	N 	0.10855 0.22909 0.60855 -0.19900
C 	C 	0.11796 0.26005 0.61796 0.03700
H 	H 	0.13410 0.26270 0.63410 0.07500
C 	C 	0.10371 0.28704 0.60371 -0.10400
H 	H 	0.11010 0.30820 0.61010 0.06400
C 	C 	0.08005 0.28309 0.58005 0.04800
H 	H 	0.07030 0.30150 0.57030 0.02300
C 	C 	0.04470 0.24690 0.54470 0.44600
Fe	Fe	0.68684 0.62921 0.62921 1.22100
O 	O 	0.77100 0.53330 0.53330 -0.47700
O 	O 	0.71940 0.53960 0.53960 -0.30300
C 	C 	0.75210 0.57061 0.57061 -0.13000
C 	C 	0.72514 0.58488 0.58488 0.05500
H 	H 	0.70400 0.57845 0.57845 0.03700
N 	N 	0.72909 0.60855 0.60855 -0.19900
C 	C 	0.76005 0.61796 0.61796 0.03700
H 	H 	0.76270 0.63410 0.63410 0.07500
C 	C 	0.78704 0.60371 0.60371 -0.10300
H 	H 	0.80820 0.61010 0.61010 0.06400
C 	C 	0.78309 0.58005 0.58005 0.04800
H 	H 	0.80150 0.57030 0.57030 0.02400
C 	C 	0.74690 0.54470 0.54470 0.44600
Fe	Fe	0.68684 0.12921 0.12921 1.22100
O 	O 	0.77100 0.03330 0.03330 -0.48000
O 	O 	0.71940 0.03960 0.03960 -0.30600
C 	C 	0.75210 0.07061 0.07061 -0.13100
C 	C 	0.72514 0.08488 0.08488 0.05500
H 	H 	0.70400 0.07845 0.07845 0.03600
N 	N 	0.72909 0.10855 0.10855 -0.19900
C 	C 	0.76005 0.11796 0.11796 0.03700
H 	H 	0.76270 0.13410 0.13410 0.07500
C 	C 	0.78704 0.10371 0.10371 -0.10400
H 	H 	0.80820 0.11010 0.11010 0.06400
C 	C 	0.78309 0.08005 0.08005 0.04800
H 	H 	0.80150 0.07030 0.07030 0.02200
C 	C 	0.74690 0.04470 0.04470 0.44600
Fe	Fe	0.18684 0.62921 0.12921 1.22100
O 	O 	0.27100 0.53330 0.03330 -0.47800
O 	O 	0.21940 0.53960 0.03960 -0.30500
C 	C 	0.25210 0.57061 0.07061 -0.13100
C 	C 	0.22514 0.58488 0.08488 0.05500
H 	H 	0.20400 0.57845 0.07845 0.03700
N 	N 	0.22909 0.60855 0.10855 -0.19900
C 	C 	0.26005 0.61796 0.11796 0.03700
H 	H 	0.26270 0.63410 0.13410 0.07500
C 	C 	0.28704 0.60371 0.10371 -0.10400
H 	H 	0.30820 0.61010 0.11010 0.06400
C 	C 	0.28309 0.58005 0.08005 0.04800
H 	H 	0.30150 0.57030 0.07030 0.02300
C 	C 	0.24690 0.54470 0.04470 0.44600
Fe	Fe	0.18684 0.12921 0.62921 1.22100
O 	O 	0.27100 0.03330 0.53330 -0.47800
O 	O 	0.21940 0.03960 0.53960 -0.30500
C 	C 	0.25210 0.07061 0.57061 -0.13100
C 	C 	0.22514 0.08488 0.58488 0.05500
H 	H 	0.20400 0.07845 0.57845 0.03700
N 	N 	0.22909 0.10855 0.60855 -0.19900
C 	C 	0.26005 0.11796 0.61796 0.03700
H 	H 	0.26270 0.13410 0.63410 0.07500
C 	C 	0.28704 0.10371 0.60371 -0.10400
H 	H 	0.30820 0.11010 0.61010 0.06400
C 	C 	0.28309 0.08005 0.58005 0.04800
H 	H 	0.30150 0.07030 0.57030 0.02300
C 	C 	0.24690 0.04470 0.54470 0.44600
Fe	Fe	0.31316 0.62921 0.37079 1.22100
O 	O 	0.22900 0.53330 0.46670 -0.47700
O 	O 	0.28060 0.53960 0.46040 -0.30300
C 	C 	0.24790 0.57061 0.42939 -0.13000
C 	C 	0.27486 0.58488 0.41512 0.05500
H 	H 	0.29600 0.57845 0.42155 0.03700
N 	N 	0.27091 0.60855 0.39145 -0.19900
C 	C 	0.23995 0.61796 0.38204 0.03700
H 	H 	0.23730 0.63410 0.36590 0.07500
C 	C 	0.21296 0.60371 0.39629 -0.10300
H 	H 	0.19180 0.61010 0.38990 0.06400
C 	C 	0.21691 0.58005 0.41995 0.04800
H 	H 	0.19850 0.57030 0.42970 0.02300
C 	C 	0.25310 0.54470 0.45530 0.44600
Fe	Fe	0.31316 0.12921 0.87079 1.22100
O 	O 	0.22900 0.03330 0.96670 -0.47600
O 	O 	0.28060 0.03960 0.96040 -0.30200
C 	C 	0.24790 0.07061 0.92939 -0.13000
C 	C 	0.27486 0.08488 0.91512 0.05500
H 	H 	0.29600 0.07845 0.92155 0.03700
N 	N 	0.27091 0.10855 0.89145 -0.19900
C 	C 	0.23995 0.11796 0.88204 0.03700
H 	H 	0.23730 0.13410 0.86590 0.07500
C 	C 	0.21296 0.10371 0.89629 -0.10300
H 	H 	0.19180 0.11010 0.88990 0.06400
C 	C 	0.21691 0.08005 0.91996 0.04800
H 	H 	0.19850 0.07030 0.92970 0.02400
C 	C 	0.25310 0.04470 0.95530 0.44500
Fe	Fe	0.81316 0.62921 0.87079 1.22100
O 	O 	0.72900 0.53330 0.96670 -0.47400
O 	O 	0.78060 0.53960 0.96040 -0.30100
C 	C 	0.74790 0.57061 0.92939 -0.12900
C 	C 	0.77486 0.58488 0.91512 0.05500
H 	H 	0.79600 0.57845 0.92155 0.03800
N 	N 	0.77091 0.60855 0.89145 -0.19900
C 	C 	0.73995 0.61796 0.88204 0.03700
H 	H 	0.73730 0.63410 0.86590 0.07500
C 	C 	0.71296 0.60371 0.89629 -0.10300
H 	H 	0.69180 0.61010 0.88990 0.06400
C 	C 	0.71691 0.58005 0.91996 0.04800
H 	H 	0.69850 0.57030 0.92970 0.02400
C 	C 	0.75310 0.54470 0.95530 0.44500
Fe	Fe	0.81316 0.12921 0.37079 1.22100
O 	O 	0.72900 0.03330 0.46670 -0.47800
O 	O 	0.78060 0.03960 0.46040 -0.30400
C 	C 	0.74790 0.07061 0.42939 -0.13100
C 	C 	0.77486 0.08488 0.41512 0.05500
H 	H 	0.79600 0.07845 0.42155 0.03700
N 	N 	0.77091 0.10855 0.39145 -0.19900
C 	C 	0.73995 0.11796 0.38204 0.03700
H 	H 	0.73730 0.13410 0.36590 0.07500
C 	C 	0.71296 0.10371 0.39629 -0.10400
H 	H 	0.69180 0.11010 0.38990 0.06400
C 	C 	0.71691 0.08005 0.41995 0.04800
H 	H 	0.69850 0.07030 0.42970 0.02300
C 	C 	0.75310 0.04470 0.45530 0.44600
Fe	Fe	0.31316 0.37079 0.62921 1.22100
O 	O 	0.22900 0.46670 0.53330 -0.47700
O 	O 	0.28060 0.46040 0.53960 -0.30300
C 	C 	0.24790 0.42939 0.57061 -0.13000
C 	C 	0.27486 0.41512 0.58488 0.05500
H 	H 	0.29600 0.42155 0.57845 0.03700
N 	N 	0.27091 0.39145 0.60855 -0.19900
C 	C 	0.23995 0.38204 0.61796 0.03700
H 	H 	0.23730 0.36590 0.63410 0.07500
C 	C 	0.21296 0.39629 0.60371 -0.10300
H 	H 	0.19180 0.38990 0.61010 0.06400
C 	C 	0.21691 0.41995 0.58005 0.04800
H 	H 	0.19850 0.42970 0.57030 0.02300
C 	C 	0.25310 0.45530 0.54470 0.44600
Fe	Fe	0.31316 0.87079 0.12921 1.22100
O 	O 	0.22900 0.96670 0.03330 -0.47600
O 	O 	0.28060 0.96040 0.03960 -0.30200
C 	C 	0.24790 0.92939 0.07061 -0.13000
C 	C 	0.27486 0.91512 0.08488 0.05500
H 	H 	0.29600 0.92155 0.07845 0.03700
N 	N 	0.27091 0.89145 0.10855 -0.19900
C 	C 	0.23995 0.88204 0.11796 0.03700
H 	H 	0.23730 0.86590 0.13410 0.07500
C 	C 	0.21296 0.89629 0.10371 -0.10300
H 	H 	0.19180 0.88990 0.11010 0.06400
C 	C 	0.21691 0.91995 0.08005 0.04800
H 	H 	0.19850 0.92970 0.07030 0.02400
C 	C 	0.25310 0.95530 0.04470 0.44500
Fe	Fe	0.81316 0.37079 0.12921 1.22100
O 	O 	0.72900 0.46670 0.03330 -0.47800
O 	O 	0.78060 0.46040 0.03960 -0.30400
C 	C 	0.74790 0.42939 0.07061 -0.13100
C 	C 	0.77486 0.41512 0.08488 0.05500
H 	H 	0.79600 0.42155 0.07845 0.03700
N 	N 	0.77091 0.39145 0.10855 -0.19900
C 	C 	0.73995 0.38204 0.11796 0.03700
H 	H 	0.73730 0.36590 0.13410 0.07500
C 	C 	0.71296 0.39629 0.10371 -0.10400
H 	H 	0.69180 0.38990 0.11010 0.06400
C 	C 	0.71691 0.41995 0.08005 0.04800
H 	H 	0.69850 0.42970 0.07030 0.02300
C 	C 	0.75310 0.45530 0.04470 0.44600
Fe	Fe	0.81316 0.87079 0.62921 1.22100
O 	O 	0.72900 0.96670 0.53330 -0.47400
O 	O 	0.78060 0.96040 0.53960 -0.30100
C 	C 	0.74790 0.92939 0.57061 -0.12900
C 	C 	0.77486 0.91512 0.58488 0.05500
H 	H 	0.79600 0.92155 0.57845 0.03800
N 	N 	0.77091 0.89145 0.60855 -0.19900
C 	C 	0.73995 0.88204 0.61796 0.03700
H 	H 	0.73730 0.86590 0.63410 0.07500
C 	C 	0.71296 0.89629 0.60371 -0.10300
H 	H 	0.69180 0.88990 0.61010 0.06400
C 	C 	0.71691 0.91995 0.58005 0.04800
H 	H 	0.69850 0.92970 0.57030 0.02400
C 	C 	0.75310 0.95530 0.54470 0.44500
Fe	Fe	0.68684 0.37079 0.37079 1.22100
O 	O 	0.77100 0.46670 0.46670 -0.47700
O 	O 	0.71940 0.46040 0.46040 -0.30300
C 	C 	0.75210 0.42939 0.42939 -0.13000
C 	C 	0.72514 0.41512 0.41512 0.05500
H 	H 	0.70400 0.42155 0.42155 0.03700
N 	N 	0.72909 0.39145 0.39145 -0.19900
C 	C 	0.76005 0.38204 0.38204 0.03700
H 	H 	0.76270 0.36590 0.36590 0.07500
C 	C 	0.78704 0.39629 0.39629 -0.10300
H 	H 	0.80820 0.38990 0.38990 0.06400
C 	C 	0.78309 0.41995 0.41995 0.04800
H 	H 	0.80150 0.42970 0.42970 0.02400
C 	C 	0.74690 0.45530 0.45530 0.44600
Fe	Fe	0.68684 0.87079 0.87079 1.22100
O 	O 	0.77100 0.96670 0.96670 -0.47100
O 	O 	0.71940 0.96040 0.96040 -0.29900
C 	C 	0.75210 0.92939 0.92939 -0.12800
C 	C 	0.72514 0.91512 0.91512 0.05500
H 	H 	0.70400 0.92155 0.92155 0.03800
N 	N 	0.72909 0.89145 0.89145 -0.19900
C 	C 	0.76005 0.88204 0.88204 0.03700
H 	H 	0.76270 0.86590 0.86590 0.07500
C 	C 	0.78704 0.89629 0.89629 -0.10200
H 	H 	0.80820 0.88990 0.88990 0.06500
C 	C 	0.78309 0.91995 0.91996 0.04700
H 	H 	0.80150 0.92970 0.92970 0.02500
C 	C 	0.74690 0.95530 0.95530 0.44400
Fe	Fe	0.18684 0.37079 0.87079 1.22100
O 	O 	0.27100 0.46670 0.96670 -0.47400
O 	O 	0.21940 0.46040 0.96040 -0.30100
C 	C 	0.25210 0.42939 0.92939 -0.12900
C 	C 	0.22514 0.41512 0.91512 0.05500
H 	H 	0.20400 0.42155 0.92155 0.03800
N 	N 	0.22909 0.39145 0.89145 -0.19900
C 	C 	0.26005 0.38204 0.88204 0.03700
H 	H 	0.26270 0.36590 0.86590 0.07500
C 	C 	0.28704 0.39629 0.89629 -0.10300
H 	H 	0.30820 0.38990 0.88990 0.06400
C 	C 	0.28309 0.41995 0.91996 0.04800
H 	H 	0.30150 0.42970 0.92970 0.02400
C 	C 	0.24690 0.45530 0.95530 0.44500
Fe	Fe	0.18684 0.87079 0.37079 1.22100
O 	O 	0.27100 0.96670 0.46670 -0.47400
O 	O 	0.21940 0.96040 0.46040 -0.30100
C 	C 	0.25210 0.92939 0.42939 -0.12900
C 	C 	0.22514 0.91512 0.41512 0.05500
H 	H 	0.20400 0.92155 0.42155 0.03800
N 	N 	0.22909 0.89145 0.39145 -0.19900
C 	C 	0.26005 0.88204 0.38204 0.03700
H 	H 	0.26270 0.86590 0.36590 0.07500
C 	C 	0.28704 0.89629 0.39629 -0.10300
H 	H 	0.30820 0.88990 0.38990 0.06500
C 	C 	0.28309 0.91995 0.41995 0.04800
H 	H 	0.30150 0.92970 0.42970 0.02400
C 	C 	0.24690 0.95530 0.45530 0.44500
Fe	Fe	0.62921 0.37079 0.31316 1.22100
O 	O 	0.53330 0.46670 0.22900 -0.47700
O 	O 	0.53960 0.46040 0.28060 -0.30300
C 	C 	0.57061 0.42939 0.24790 -0.13000
C 	C 	0.58488 0.41512 0.27486 0.05500
H 	H 	0.57845 0.42155 0.29600 0.03700
N 	N 	0.60855 0.39145 0.27091 -0.19900
C 	C 	0.61796 0.38204 0.23995 0.03700
H 	H 	0.63410 0.36590 0.23730 0.07500
C 	C 	0.60371 0.39629 0.21296 -0.10300
H 	H 	0.61010 0.38990 0.19180 0.06400
C 	C 	0.58005 0.41995 0.21691 0.04800
H 	H 	0.57030 0.42970 0.19850 0.02300
C 	C 	0.54470 0.45530 0.25310 0.44600
Fe	Fe	0.62921 0.87079 0.81316 1.22100
O 	O 	0.53330 0.96670 0.72900 -0.47400
O 	O 	0.53960 0.96040 0.78060 -0.30100
C 	C 	0.57061 0.92939 0.74790 -0.12900
C 	C 	0.58488 0.91512 0.77486 0.05500
H 	H 	0.57845 0.92155 0.79600 0.03800
N 	N 	0.60855 0.89145 0.77091 -0.19900
C 	C 	0.61796 0.88204 0.73995 0.03700
H 	H 	0.63410 0.86590 0.73730 0.07500
C 	C 	0.60371 0.89629 0.71296 -0.10300
H 	H 	0.61010 0.88990 0.69180 0.06400
C 	C 	0.58005 0.91996 0.71691 0.04800
H 	H 	0.57030 0.92970 0.69850 0.02400
C 	C 	0.54470 0.95530 0.75310 0.44500
Fe	Fe	0.12921 0.37079 0.81316 1.22100
O 	O 	0.03330 0.46670 0.72900 -0.47800
O 	O 	0.03960 0.46040 0.78060 -0.30400
C 	C 	0.07061 0.42939 0.74790 -0.13100
C 	C 	0.08488 0.41512 0.77486 0.05500
H 	H 	0.07845 0.42155 0.79600 0.03700
N 	N 	0.10855 0.39145 0.77091 -0.19900
C 	C 	0.11796 0.38204 0.73995 0.03700
H 	H 	0.13410 0.36590 0.73730 0.07500
C 	C 	0.10371 0.39629 0.71296 -0.10400
H 	H 	0.11010 0.38990 0.69180 0.06400
C 	C 	0.08005 0.41995 0.71691 0.04800
H 	H 	0.07030 0.42970 0.69850 0.02300
C 	C 	0.04470 0.45530 0.75310 0.44600
Fe	Fe	0.12921 0.87079 0.31316 1.22100
O 	O 	0.03330 0.96670 0.22900 -0.47600
O 	O 	0.03960 0.96040 0.28060 -0.30200
C 	C 	0.07061 0.92939 0.24790 -0.13000
C 	C 	0.08488 0.91512 0.27486 0.05500
H 	H 	0.07845 0.92155 0.29600 0.03700
N 	N 	0.10855 0.89145 0.27091 -0.19900
C 	C 	0.11796 0.88204 0.23995 0.03700
H 	H 	0.13410 0.86590 0.23730 0.07500
C 	C 	0.10371 0.89629 0.21296 -0.10300
H 	H 	0.11010 0.88990 0.19180 0.06400
C 	C 	0.08005 0.91996 0.21691 0.04800
H 	H 	0.07030 0.92970 0.19850 0.02400
C 	C 	0.04470 0.95530 0.25310 0.44500
Fe	Fe	0.62921 0.62921 0.68684 1.22100
O 	O 	0.53330 0.53330 0.77100 -0.47700
O 	O 	0.53960 0.53960 0.71940 -0.30300
C 	C 	0.57061 0.57061 0.75210 -0.13000
C 	C 	0.58488 0.58488 0.72514 0.05500
H 	H 	0.57845 0.57845 0.70400 0.03700
N 	N 	0.60855 0.60855 0.72909 -0.19900
C 	C 	0.61796 0.61796 0.76005 0.03700
H 	H 	0.63410 0.63410 0.76270 0.07500
C 	C 	0.60371 0.60371 0.78704 -0.10300
H 	H 	0.61010 0.61010 0.80820 0.06400
C 	C 	0.58005 0.58005 0.78309 0.04800
H 	H 	0.57030 0.57030 0.80150 0.02400
C 	C 	0.54470 0.54470 0.74690 0.44600
Fe	Fe	0.62921 0.12921 0.18684 1.22100
O 	O 	0.53330 0.03330 0.27100 -0.47800
O 	O 	0.53960 0.03960 0.21940 -0.30500
C 	C 	0.57061 0.07061 0.25210 -0.13100
C 	C 	0.58488 0.08488 0.22514 0.05500
H 	H 	0.57845 0.07845 0.20400 0.03700
N 	N 	0.60855 0.10855 0.22909 -0.19900
C 	C 	0.61796 0.11796 0.26005 0.03700
H 	H 	0.63410 0.13410 0.26270 0.07500
C 	C 	0.60371 0.10371 0.28704 -0.10400
H 	H 	0.61010 0.11010 0.30820 0.06400
C 	C 	0.58005 0.08005 0.28309 0.04800
H 	H 	0.57030 0.07030 0.30150 0.02300
C 	C 	0.54470 0.04470 0.24690 0.44600
Fe	Fe	0.12921 0.62921 0.18684 1.22100
O 	O 	0.03330 0.53330 0.27100 -0.47800
O 	O 	0.03960 0.53960 0.21940 -0.30500
C 	C 	0.07061 0.57061 0.25210 -0.13100
C 	C 	0.08488 0.58488 0.22514 0.05500
H 	H 	0.07845 0.57845 0.20400 0.03700
N 	N 	0.10855 0.60855 0.22909 -0.19900
C 	C 	0.11796 0.61796 0.26005 0.03700
H 	H 	0.13410 0.63410 0.26270 0.07500
C 	C 	0.10371 0.60371 0.28704 -0.10400
H 	H 	0.11010 0.61010 0.30820 0.06400
C 	C 	0.08005 0.58005 0.28309 0.04800
H 	H 	0.07030 0.57030 0.30150 0.02300
C 	C 	0.04470 0.54470 0.24690 0.44600
Fe	Fe	0.12921 0.12921 0.68684 1.22100
O 	O 	0.03330 0.03330 0.77100 -0.48000
O 	O 	0.03960 0.03960 0.71940 -0.30600
C 	C 	0.07061 0.07061 0.75210 -0.13100
C 	C 	0.08488 0.08488 0.72514 0.05500
H 	H 	0.07845 0.07845 0.70400 0.03600
N 	N 	0.10855 0.10855 0.72909 -0.19900
C 	C 	0.11796 0.11796 0.76005 0.03700
H 	H 	0.13410 0.13410 0.76270 0.07500
C 	C 	0.10371 0.10371 0.78704 -0.10400
H 	H 	0.11010 0.11010 0.80820 0.06400
C 	C 	0.08005 0.08005 0.78309 0.04800
H 	H 	0.07030 0.07030 0.80150 0.02200
C 	C 	0.04470 0.04470 0.74690 0.44600
Fe	Fe	0.37079 0.37079 0.68684 1.22100
O 	O 	0.46670 0.46670 0.77100 -0.47700
O 	O 	0.46040 0.46040 0.71940 -0.30300
C 	C 	0.42939 0.42939 0.75210 -0.13000
C 	C 	0.41512 0.41512 0.72514 0.05500
H 	H 	0.42155 0.42155 0.70400 0.03700
N 	N 	0.39145 0.39145 0.72909 -0.19900
C 	C 	0.38204 0.38204 0.76005 0.03700
H 	H 	0.36590 0.36590 0.76270 0.07500
C 	C 	0.39629 0.39629 0.78704 -0.10300
H 	H 	0.38990 0.38990 0.80820 0.06400
C 	C 	0.41995 0.41995 0.78309 0.04800
H 	H 	0.42970 0.42970 0.80150 0.02400
C 	C 	0.45530 0.45530 0.74690 0.44600
Fe	Fe	0.37079 0.87079 0.18684 1.22100
O 	O 	0.46670 0.96670 0.27100 -0.47400
O 	O 	0.46040 0.96040 0.21940 -0.30100
C 	C 	0.42939 0.92939 0.25210 -0.12900
C 	C 	0.41512 0.91512 0.22514 0.05500
H 	H 	0.42155 0.92155 0.20400 0.03800
N 	N 	0.39145 0.89145 0.22909 -0.19900
C 	C 	0.38204 0.88204 0.26005 0.03700
H 	H 	0.36590 0.86590 0.26270 0.07500
C 	C 	0.39629 0.89629 0.28704 -0.10300
H 	H 	0.38990 0.88990 0.30820 0.06400
C 	C 	0.41995 0.91996 0.28309 0.04800
H 	H 	0.42970 0.92970 0.30150 0.02400
C 	C 	0.45530 0.95530 0.24690 0.44500
Fe	Fe	0.87079 0.37079 0.18684 1.22100
O 	O 	0.96670 0.46670 0.27100 -0.47400
O 	O 	0.96040 0.46040 0.21940 -0.30100
C 	C 	0.92939 0.42939 0.25210 -0.12900
C 	C 	0.91512 0.41512 0.22514 0.05500
H 	H 	0.92155 0.42155 0.20400 0.03800
N 	N 	0.89145 0.39145 0.22909 -0.19900
C 	C 	0.88204 0.38204 0.26005 0.03700
H 	H 	0.86590 0.36590 0.26270 0.07500
C 	C 	0.89629 0.39629 0.28704 -0.10300
H 	H 	0.88990 0.38990 0.30820 0.06500
C 	C 	0.91995 0.41995 0.28309 0.04800
H 	H 	0.92970 0.42970 0.30150 0.02400
C 	C 	0.95530 0.45530 0.24690 0.44500
Fe	Fe	0.87079 0.87079 0.68684 1.22100
O 	O 	0.96670 0.96670 0.77100 -0.47100
O 	O 	0.96040 0.96040 0.71940 -0.29900
C 	C 	0.92939 0.92939 0.75210 -0.12800
C 	C 	0.91512 0.91512 0.72514 0.05500
H 	H 	0.92155 0.92155 0.70400 0.03800
N 	N 	0.89145 0.89145 0.72909 -0.19900
C 	C 	0.88204 0.88204 0.76005 0.03700
H 	H 	0.86590 0.86590 0.76270 0.07500
C 	C 	0.89629 0.89629 0.78704 -0.10200
H 	H 	0.88990 0.88990 0.80820 0.06500
C 	C 	0.91995 0.91996 0.78309 0.04700
H 	H 	0.92970 0.92970 0.80150 0.02500
C 	C 	0.95530 0.95530 0.74690 0.44400
Fe	Fe	0.37079 0.62921 0.31316 1.22100
O 	O 	0.46670 0.53330 0.22900 -0.47700
O 	O 	0.46040 0.53960 0.28060 -0.30300
C 	C 	0.42939 0.57061 0.24790 -0.13000
C 	C 	0.41512 0.58488 0.27486 0.05500
H 	H 	0.42155 0.57845 0.29600 0.03700
N 	N 	0.39145 0.60855 0.27091 -0.19900
C 	C 	0.38204 0.61796 0.23995 0.03700
H 	H 	0.36590 0.63410 0.23730 0.07500
C 	C 	0.39629 0.60371 0.21296 -0.10300
H 	H 	0.38990 0.61010 0.19180 0.06400
C 	C 	0.41995 0.58005 0.21691 0.04800
H 	H 	0.42970 0.57030 0.19850 0.02300
C 	C 	0.45530 0.54470 0.25310 0.44600
Fe	Fe	0.37079 0.12921 0.81316 1.22100
O 	O 	0.46670 0.03330 0.72900 -0.47800
O 	O 	0.46040 0.03960 0.78060 -0.30400
C 	C 	0.42939 0.07061 0.74790 -0.13100
C 	C 	0.41512 0.08488 0.77486 0.05500
H 	H 	0.42155 0.07845 0.79600 0.03700
N 	N 	0.39145 0.10855 0.77091 -0.19900
C 	C 	0.38204 0.11796 0.73995 0.03700
H 	H 	0.36590 0.13410 0.73730 0.07500
C 	C 	0.39629 0.10371 0.71296 -0.10400
H 	H 	0.38990 0.11010 0.69180 0.06400
C 	C 	0.41995 0.08005 0.71691 0.04800
H 	H 	0.42970 0.07030 0.69850 0.02300
C 	C 	0.45530 0.04470 0.75310 0.44600
Fe	Fe	0.87079 0.62921 0.81316 1.22100
O 	O 	0.96670 0.53330 0.72900 -0.47400
O 	O 	0.96040 0.53960 0.78060 -0.30100
C 	C 	0.92939 0.57061 0.74790 -0.12900
C 	C 	0.91512 0.58488 0.77486 0.05500
H 	H 	0.92155 0.57845 0.79600 0.03800
N 	N 	0.89145 0.60855 0.77091 -0.19900
C 	C 	0.88204 0.61796 0.73995 0.03700
H 	H 	0.86590 0.63410 0.73730 0.07500
C 	C 	0.89629 0.60371 0.71296 -0.10300
H 	H 	0.88990 0.61010 0.69180 0.06400
C 	C 	0.91995 0.58005 0.71691 0.04800
H 	H 	0.92970 0.57030 0.69850 0.02400
C 	C 	0.95530 0.54470 0.75310 0.44500
Fe	Fe	0.87079 0.12921 0.31316 1.22100
O 	O 	0.96670 0.03330 0.22900 -0.47600
O 	O 	0.96040 0.03960 0.28060 -0.30200
C 	C 	0.92939 0.07061 0.24790 -0.13000
C 	C 	0.91512 0.08488 0.27486 0.05500
H 	H 	0.92155 0.07845 0.29600 0.03700
N 	N 	0.89145 0.10855 0.27091 -0.19900
C 	C 	0.88204 0.11796 0.23995 0.03700
H 	H 	0.86590 0.13410 0.23730 0.07500
C 	C 	0.89629 0.10371 0.21296 -0.10300
H 	H 	0.88990 0.11010 0.19180 0.06400
C 	C 	0.91995 0.08005 0.21691 0.04800
H 	H 	0.92970 0.07030 0.19850 0.02400
C 	C 	0.95530 0.04470 0.25310 0.44500
Fe	Fe	0.77403 0.50000 0.50000 1.22600
Fe	Fe	0.77403 0.00000 -0.00000 1.22000
Fe	Fe	0.27403 0.50000 -0.00000 1.22300
Fe	Fe	0.27403 0.00000 0.50000 1.22300
Fe	Fe	0.22597 0.50000 0.50000 1.22600
Fe	Fe	0.22597 0.00000 -0.00000 1.22000
Fe	Fe	0.72597 0.50000 -0.00000 1.22300
Fe	Fe	0.72597 0.00000 0.50000 1.22300
Fe	Fe	0.50000 0.77403 0.50000 1.22600
Fe	Fe	0.50000 0.27403 -0.00000 1.22300
Fe	Fe	-0.00000 0.77403 -0.00000 1.22000
Fe	Fe	-0.00000 0.27403 0.50000 1.22300
Fe	Fe	0.50000 0.22597 0.50000 1.22600
Fe	Fe	0.50000 0.72597 -0.00000 1.22300
Fe	Fe	-0.00000 0.22597 -0.00000 1.22000
Fe	Fe	-0.00000 0.72597 0.50000 1.22300
Fe	Fe	0.50000 0.50000 0.77403 1.22600
Fe	Fe	0.50000 0.00000 0.27403 1.22300
Fe	Fe	-0.00000 0.50000 0.27403 1.22300
Fe	Fe	-0.00000 -0.00000 0.77403 1.22000
Fe	Fe	0.50000 0.50000 0.22597 1.22600
Fe	Fe	0.50000 0.00000 0.72597 1.22300
Fe	Fe	-0.00000 0.50000 0.72597 1.22300
Fe	Fe	-0.00000 0.00000 0.22597 1.22000
O 	O 	0.64864 0.35136 0.64864 -0.62200
O 	O 	0.64864 0.85136 0.14864 -0.62200
O 	O 	0.14864 0.35136 0.14864 -0.62200
O 	O 	0.14864 0.85136 0.64864 -0.62200
O 	O 	0.35136 0.64864 0.64864 -0.62200
O 	O 	0.35136 0.14864 0.14864 -0.62200
O 	O 	0.85136 0.64864 0.14864 -0.62200
O 	O 	0.85136 0.14864 0.64864 -0.62200
O 	O 	0.35136 0.35136 0.35136 -0.62200
O 	O 	0.35136 0.85136 0.85136 -0.62200
O 	O 	0.85136 0.35136 0.85136 -0.62200
O 	O 	0.85136 0.85136 0.35136 -0.62200
O 	O 	0.64864 0.64864 0.35136 -0.62200
O 	O 	0.64864 0.14864 0.85136 -0.62200
O 	O 	0.14864 0.64864 0.85136 -0.62200
O 	O 	0.14864 0.14864 0.35136 -0.62200
O 	O 	0.35136 0.64864 0.35136 -0.62200
O 	O 	0.35136 0.14864 0.85136 -0.62200
O 	O 	0.85136 0.64864 0.85136 -0.62200
O 	O 	0.85136 0.14864 0.35136 -0.62200
O 	O 	0.64864 0.35136 0.35136 -0.62200
O 	O 	0.64864 0.85136 0.85136 -0.62200
O 	O 	0.14864 0.35136 0.85136 -0.62200
O 	O 	0.14864 0.85136 0.35136 -0.62200
O 	O 	0.35136 0.35136 0.64864 -0.62200
O 	O 	0.35136 0.85136 0.14864 -0.62200
O 	O 	0.85136 0.35136 0.14864 -0.62200
O 	O 	0.85136 0.85136 0.64864 -0.62200
O 	O 	0.64864 0.64864 0.64864 -0.62200
O 	O 	0.64864 0.14864 0.14864 -0.62200
O 	O 	0.14864 0.64864 0.14864 -0.62200
O 	O 	0.14864 0.14864 0.64864 -0.62200
C 	C 	0.70083 0.37662 0.70083 -0.37500
C 	C 	0.72646 0.37600 0.72646 0.26400
C 	C 	0.65005 0.43030 0.65005 0.32100
C 	C 	0.64839 0.46631 0.64839 -0.07100
C 	C 	0.70083 0.87662 0.20083 -0.37400
C 	C 	0.72646 0.87600 0.22646 0.26400
C 	C 	0.65005 0.93030 0.15005 0.32700
C 	C 	0.64839 0.96631 0.14839 -0.08500
C 	C 	0.20083 0.37662 0.20083 -0.37500
C 	C 	0.22646 0.37600 0.22646 0.26400
C 	C 	0.15005 0.43030 0.15005 0.32100
C 	C 	0.14839 0.46631 0.14839 -0.07100
C 	C 	0.20083 0.87662 0.70083 -0.37400
C 	C 	0.22646 0.87600 0.72646 0.26400
C 	C 	0.15005 0.93030 0.65005 0.32700
C 	C 	0.14839 0.96631 0.64839 -0.08500
C 	C 	0.29917 0.62338 0.70083 -0.37500
C 	C 	0.27354 0.62400 0.72646 0.26400
C 	C 	0.34995 0.56970 0.65005 0.32100
C 	C 	0.35161 0.53369 0.64839 -0.07100
C 	C 	0.29917 0.12338 0.20083 -0.37600
C 	C 	0.27354 0.12400 0.22646 0.26400
C 	C 	0.34995 0.06970 0.15005 0.31600
C 	C 	0.35161 0.03369 0.14839 -0.05700
C 	C 	0.79917 0.62338 0.20083 -0.37500
C 	C 	0.77354 0.62400 0.22646 0.26400
C 	C 	0.84995 0.56970 0.15005 0.32100
C 	C 	0.85161 0.53369 0.14839 -0.07100
C 	C 	0.79917 0.12338 0.70083 -0.37600
C 	C 	0.77354 0.12400 0.72646 0.26400
C 	C 	0.84995 0.06970 0.65005 0.31600
C 	C 	0.85161 0.03369 0.64839 -0.05700
C 	C 	0.29917 0.37662 0.29917 -0.37500
C 	C 	0.27354 0.37600 0.27354 0.26400
C 	C 	0.34995 0.43030 0.34995 0.32100
C 	C 	0.35161 0.46631 0.35161 -0.07100
C 	C 	0.29917 0.87662 0.79917 -0.37400
C 	C 	0.27354 0.87600 0.77354 0.26300
C 	C 	0.34995 0.93030 0.84995 0.32700
C 	C 	0.35161 0.96631 0.85161 -0.08500
C 	C 	0.79917 0.37662 0.79917 -0.37500
C 	C 	0.77354 0.37600 0.77354 0.26400
C 	C 	0.84995 0.43030 0.84995 0.32200
C 	C 	0.85161 0.46631 0.85161 -0.07100
C 	C 	0.79917 0.87662 0.29917 -0.37400
C 	C 	0.77354 0.87600 0.27354 0.26300
C 	C 	0.84995 0.93030 0.34995 0.32700
C 	C 	0.85161 0.96631 0.35161 -0.08500
C 	C 	0.70083 0.62338 0.29917 -0.37500
C 	C 	0.72646 0.62400 0.27354 0.26400
C 	C 	0.65005 0.56970 0.34995 0.32100
C 	C 	0.64839 0.53369 0.35161 -0.07100
C 	C 	0.70083 0.12338 0.79917 -0.37600
C 	C 	0.72646 0.12400 0.77354 0.26400
C 	C 	0.65005 0.06970 0.84995 0.31600
C 	C 	0.64839 0.03369 0.85161 -0.05700
C 	C 	0.20083 0.62338 0.79917 -0.37500
C 	C 	0.22646 0.62400 0.77354 0.26400
C 	C 	0.15005 0.56970 0.84995 0.32100
C 	C 	0.14839 0.53369 0.85161 -0.07100
C 	C 	0.20083 0.12338 0.29917 -0.37600
C 	C 	0.22646 0.12400 0.27354 0.26400
C 	C 	0.15005 0.06970 0.34995 0.31600
C 	C 	0.14839 0.03369 0.35161 -0.05700
C 	C 	0.70083 0.70083 0.37662 -0.37500
C 	C 	0.72646 0.72646 0.37600 0.26400
C 	C 	0.65005 0.65005 0.43030 0.32100
C 	C 	0.64839 0.64839 0.46631 -0.07100
C 	C 	0.70083 0.20083 0.87662 -0.37400
C 	C 	0.72646 0.22646 0.87600 0.26400
C 	C 	0.65005 0.15005 0.93030 0.32700
C 	C 	0.64839 0.14839 0.96631 -0.08500
C 	C 	0.20083 0.70083 0.87662 -0.37400
C 	C 	0.22646 0.72646 0.87600 0.26400
C 	C 	0.15005 0.65005 0.93030 0.32700
C 	C 	0.14839 0.64839 0.96631 -0.08500
C 	C 	0.20083 0.20083 0.37662 -0.37500
C 	C 	0.22646 0.22646 0.37600 0.26400
C 	C 	0.15005 0.15005 0.43030 0.32100
C 	C 	0.14839 0.14839 0.46631 -0.07100
C 	C 	0.70083 0.29917 0.62338 -0.37500
C 	C 	0.72646 0.27354 0.62400 0.26400
C 	C 	0.65005 0.34995 0.56970 0.32100
C 	C 	0.64839 0.35161 0.53369 -0.07100
C 	C 	0.70083 0.79917 0.12338 -0.37600
C 	C 	0.72646 0.77354 0.12400 0.26400
C 	C 	0.65005 0.84995 0.06970 0.31600
C 	C 	0.64839 0.85161 0.03369 -0.05700
C 	C 	0.20083 0.29917 0.12338 -0.37600
C 	C 	0.22646 0.27354 0.12400 0.26400
C 	C 	0.15005 0.34995 0.06970 0.31600
C 	C 	0.14839 0.35161 0.03369 -0.05700
C 	C 	0.20083 0.79917 0.62338 -0.37500
C 	C 	0.22646 0.77354 0.62400 0.26400
C 	C 	0.15005 0.84995 0.56970 0.32100
C 	C 	0.14839 0.85161 0.53369 -0.07100
C 	C 	0.29917 0.29917 0.37662 -0.37500
C 	C 	0.27354 0.27354 0.37600 0.26400
C 	C 	0.34995 0.34995 0.43030 0.32100
C 	C 	0.35161 0.35161 0.46631 -0.07100
C 	C 	0.29917 0.79917 0.87662 -0.37400
C 	C 	0.27354 0.77354 0.87600 0.26300
C 	C 	0.34995 0.84995 0.93030 0.32700
C 	C 	0.35161 0.85161 0.96631 -0.08500
C 	C 	0.79917 0.29917 0.87662 -0.37400
C 	C 	0.77354 0.27354 0.87600 0.26300
C 	C 	0.84995 0.34995 0.93030 0.32700
C 	C 	0.85161 0.35161 0.96631 -0.08500
C 	C 	0.79917 0.79917 0.37662 -0.37500
C 	C 	0.77354 0.77354 0.37600 0.26400
C 	C 	0.84995 0.84995 0.43030 0.32200
C 	C 	0.85161 0.85161 0.46631 -0.07100
C 	C 	0.29917 0.70083 0.62338 -0.37500
C 	C 	0.27354 0.72646 0.62400 0.26400
C 	C 	0.34995 0.65005 0.56970 0.32100
C 	C 	0.35161 0.64839 0.53369 -0.07100
C 	C 	0.29917 0.20083 0.12338 -0.37600
C 	C 	0.27354 0.22646 0.12400 0.26400
C 	C 	0.34995 0.15005 0.06970 0.31600
C 	C 	0.35161 0.14839 0.03369 -0.05700
C 	C 	0.79917 0.70083 0.12338 -0.37600
C 	C 	0.77354 0.72646 0.12400 0.26400
C 	C 	0.84995 0.65005 0.06970 0.31600
C 	C 	0.85161 0.64839 0.03369 -0.05700
C 	C 	0.79917 0.20083 0.62338 -0.37500
C 	C 	0.77354 0.22646 0.62400 0.26400
C 	C 	0.84995 0.15005 0.56970 0.32100
C 	C 	0.85161 0.14839 0.53369 -0.07100
C 	C 	0.37662 0.70083 0.70083 -0.37500
C 	C 	0.37600 0.72646 0.72646 0.26400
C 	C 	0.43030 0.65005 0.65005 0.32100
C 	C 	0.46631 0.64839 0.64839 -0.07100
C 	C 	0.37662 0.20083 0.20083 -0.37500
C 	C 	0.37600 0.22646 0.22646 0.26400
C 	C 	0.43030 0.15005 0.15005 0.32100
C 	C 	0.46631 0.14839 0.14839 -0.07100
C 	C 	0.87662 0.70083 0.20083 -0.37400
C 	C 	0.87600 0.72646 0.22646 0.26400
C 	C 	0.93030 0.65005 0.15005 0.32700
C 	C 	0.96631 0.64839 0.14839 -0.08500
C 	C 	0.87662 0.20083 0.70083 -0.37400
C 	C 	0.87600 0.22646 0.72646 0.26400
C 	C 	0.93030 0.15005 0.65005 0.32700
C 	C 	0.96631 0.14839 0.64839 -0.08500
C 	C 	0.62338 0.70083 0.29917 -0.37500
C 	C 	0.62400 0.72646 0.27354 0.26400
C 	C 	0.56970 0.65005 0.34995 0.32100
C 	C 	0.53369 0.64839 0.35161 -0.07100
C 	C 	0.62338 0.20083 0.79917 -0.37500
C 	C 	0.62400 0.22646 0.77354 0.26400
C 	C 	0.56970 0.15005 0.84995 0.32100
C 	C 	0.53369 0.14839 0.85161 -0.07100
C 	C 	0.12338 0.70083 0.79917 -0.37600
C 	C 	0.12400 0.72646 0.77354 0.26400
C 	C 	0.06970 0.65005 0.84995 0.31600
C 	C 	0.03369 0.64839 0.85161 -0.05700
C 	C 	0.12338 0.20083 0.29917 -0.37600
C 	C 	0.12400 0.22646 0.27354 0.26400
C 	C 	0.06970 0.15005 0.34995 0.31600
C 	C 	0.03369 0.14839 0.35161 -0.05700
C 	C 	0.37662 0.29917 0.29917 -0.37500
C 	C 	0.37600 0.27354 0.27354 0.26400
C 	C 	0.43030 0.34995 0.34995 0.32100
C 	C 	0.46631 0.35161 0.35161 -0.07100
C 	C 	0.37662 0.79917 0.79917 -0.37500
C 	C 	0.37600 0.77354 0.77354 0.26400
C 	C 	0.43030 0.84995 0.84995 0.32200
C 	C 	0.46631 0.85161 0.85161 -0.07100
C 	C 	0.87662 0.29917 0.79917 -0.37400
C 	C 	0.87600 0.27354 0.77354 0.26300
C 	C 	0.93030 0.34995 0.84995 0.32700
C 	C 	0.96631 0.35161 0.85161 -0.08500
C 	C 	0.87662 0.79917 0.29917 -0.37400
C 	C 	0.87600 0.77354 0.27354 0.26300
C 	C 	0.93030 0.84995 0.34995 0.32700
C 	C 	0.96631 0.85161 0.35161 -0.08500
C 	C 	0.62338 0.29917 0.70083 -0.37500
C 	C 	0.62400 0.27354 0.72646 0.26400
C 	C 	0.56970 0.34995 0.65005 0.32100
C 	C 	0.53369 0.35161 0.64839 -0.07100
C 	C 	0.62338 0.79917 0.20083 -0.37500
C 	C 	0.62400 0.77354 0.22646 0.26400
C 	C 	0.56970 0.84995 0.15005 0.32100
C 	C 	0.53369 0.85161 0.14839 -0.07100
C 	C 	0.12338 0.29917 0.20083 -0.37600
C 	C 	0.12400 0.27354 0.22646 0.26400
C 	C 	0.06970 0.34995 0.15005 0.31600
C 	C 	0.03369 0.35161 0.14839 -0.05700
C 	C 	0.12338 0.79917 0.70083 -0.37600
C 	C 	0.12400 0.77354 0.72646 0.26400
C 	C 	0.06970 0.84995 0.65005 0.31600
C 	C 	0.03369 0.85161 0.64839 -0.05700
C 	C 	0.37662 0.70083 0.29917 -0.37500
C 	C 	0.37600 0.72646 0.27354 0.26400
C 	C 	0.43030 0.65005 0.34995 0.32100
C 	C 	0.46631 0.64839 0.35161 -0.07100
C 	C 	0.37662 0.20083 0.79917 -0.37500
C 	C 	0.37600 0.22646 0.77354 0.26400
C 	C 	0.43030 0.15005 0.84995 0.32100
C 	C 	0.46631 0.14839 0.85161 -0.07100
C 	C 	0.87662 0.70083 0.79917 -0.37400
C 	C 	0.87600 0.72646 0.77354 0.26300
C 	C 	0.93030 0.65005 0.84995 0.32700
C 	C 	0.96631 0.64839 0.85161 -0.08500
C 	C 	0.87662 0.20083 0.29917 -0.37400
C 	C 	0.87600 0.22646 0.27354 0.26400
C 	C 	0.93030 0.15005 0.34995 0.32700
C 	C 	0.96631 0.14839 0.35161 -0.08500
C 	C 	0.62338 0.29917 0.29917 -0.37500
C 	C 	0.62400 0.27354 0.27354 0.26400
C 	C 	0.56970 0.34995 0.34995 0.32100
C 	C 	0.53369 0.35161 0.35161 -0.07100
C 	C 	0.62338 0.79917 0.79917 -0.37500
C 	C 	0.62400 0.77354 0.77354 0.26400
C 	C 	0.56970 0.84995 0.84995 0.32200
C 	C 	0.53369 0.85161 0.85161 -0.07100
C 	C 	0.12338 0.29917 0.79917 -0.37600
C 	C 	0.12400 0.27354 0.77354 0.26400
C 	C 	0.06970 0.34995 0.84995 0.31600
C 	C 	0.03369 0.35161 0.85161 -0.05600
C 	C 	0.12338 0.79917 0.29917 -0.37600
C 	C 	0.12400 0.77354 0.27354 0.26400
C 	C 	0.06970 0.84995 0.34995 0.31600
C 	C 	0.03369 0.85161 0.35161 -0.05600
C 	C 	0.37662 0.29917 0.70083 -0.37500
C 	C 	0.37600 0.27354 0.72646 0.26400
C 	C 	0.43030 0.34995 0.65005 0.32100
C 	C 	0.46631 0.35161 0.64839 -0.07100
C 	C 	0.37662 0.79917 0.20083 -0.37500
C 	C 	0.37600 0.77354 0.22646 0.26400
C 	C 	0.43030 0.84995 0.15005 0.32100
C 	C 	0.46631 0.85161 0.14839 -0.07100
C 	C 	0.87662 0.29917 0.20083 -0.37400
C 	C 	0.87600 0.27354 0.22646 0.26400
C 	C 	0.93030 0.34995 0.15005 0.32700
C 	C 	0.96631 0.35161 0.14839 -0.08500
C 	C 	0.87662 0.79917 0.70083 -0.37400
C 	C 	0.87600 0.77354 0.72646 0.26300
C 	C 	0.93030 0.84995 0.65005 0.32700
C 	C 	0.96631 0.85161 0.64839 -0.08500
C 	C 	0.62338 0.70083 0.70083 -0.37500
C 	C 	0.62400 0.72646 0.72646 0.26400
C 	C 	0.56970 0.65005 0.65005 0.32100
C 	C 	0.53369 0.64839 0.64839 -0.07100
C 	C 	0.62338 0.20083 0.20083 -0.37500
C 	C 	0.62400 0.22646 0.22646 0.26400
C 	C 	0.56970 0.15005 0.15005 0.32100
C 	C 	0.53369 0.14839 0.14839 -0.07100
C 	C 	0.12338 0.70083 0.20083 -0.37600
C 	C 	0.12400 0.72646 0.22646 0.26400
C 	C 	0.06970 0.65005 0.15005 0.31600
C 	C 	0.03369 0.64839 0.14839 -0.05700
C 	C 	0.12338 0.20083 0.70083 -0.37600
C 	C 	0.12400 0.22646 0.72646 0.26400
C 	C 	0.06970 0.15005 0.65005 0.31600
C 	C 	0.03369 0.14839 0.64839 -0.05700
C 	C 	0.70083 0.70083 0.62338 -0.37500
C 	C 	0.72646 0.72646 0.62400 0.26400
C 	C 	0.65005 0.65005 0.56970 0.32100
C 	C 	0.64839 0.64839 0.53369 -0.07100
C 	C 	0.70083 0.20083 0.12338 -0.37600
C 	C 	0.72646 0.22646 0.12400 0.26400
C 	C 	0.65005 0.15005 0.06970 0.31600
C 	C 	0.64839 0.14839 0.03369 -0.05700
C 	C 	0.20083 0.70083 0.12338 -0.37600
C 	C 	0.22646 0.72646 0.12400 0.26400
C 	C 	0.15005 0.65005 0.06970 0.31600
C 	C 	0.14839 0.64839 0.03369 -0.05700
C 	C 	0.20083 0.20083 0.62338 -0.37500
C 	C 	0.22646 0.22646 0.62400 0.26400
C 	C 	0.15005 0.15005 0.56970 0.32100
C 	C 	0.14839 0.14839 0.53369 -0.07100
C 	C 	0.29917 0.70083 0.37662 -0.37500
C 	C 	0.27354 0.72646 0.37600 0.26400
C 	C 	0.34995 0.65005 0.43030 0.32100
C 	C 	0.35161 0.64839 0.46631 -0.07100
C 	C 	0.29917 0.20083 0.87662 -0.37400
C 	C 	0.27354 0.22646 0.87600 0.26400
C 	C 	0.34995 0.15005 0.93030 0.32700
C 	C 	0.35161 0.14839 0.96631 -0.08500
C 	C 	0.79917 0.70083 0.87662 -0.37400
C 	C 	0.77354 0.72646 0.87600 0.26300
C 	C 	0.84995 0.65005 0.93030 0.32700
C 	C 	0.85161 0.64839 0.96631 -0.08500
C 	C 	0.79917 0.20083 0.37662 -0.37500
C 	C 	0.77354 0.22646 0.37600 0.26400
C 	C 	0.84995 0.15005 0.43030 0.32100
C 	C 	0.85161 0.14839 0.46631 -0.07100
C 	C 	0.29917 0.29917 0.62338 -0.37500
C 	C 	0.27354 0.27354 0.62400 0.26400
C 	C 	0.34995 0.34995 0.56970 0.32100
C 	C 	0.35161 0.35161 0.53369 -0.07100
C 	C 	0.29917 0.79917 0.12338 -0.37600
C 	C 	0.27354 0.77354 0.12400 0.26400
C 	C 	0.34995 0.84995 0.06970 0.31600
C 	C 	0.35161 0.85161 0.03369 -0.05600
C 	C 	0.79917 0.29917 0.12338 -0.37600
C 	C 	0.77354 0.27354 0.12400 0.26400
C 	C 	0.84995 0.34995 0.06970 0.31600
C 	C 	0.85161 0.35161 0.03369 -0.05600
C 	C 	0.79917 0.79917 0.62338 -0.37500
C 	C 	0.77354 0.77354 0.62400 0.26400
C 	C 	0.84995 0.84995 0.56970 0.32200
C 	C 	0.85161 0.85161 0.53369 -0.07100
C 	C 	0.70083 0.29917 0.37662 -0.37500
C 	C 	0.72646 0.27354 0.37600 0.26400
C 	C 	0.65005 0.34995 0.43030 0.32100
C 	C 	0.64839 0.35161 0.46631 -0.07100
C 	C 	0.70083 0.79917 0.87662 -0.37400
C 	C 	0.72646 0.77354 0.87600 0.26300
C 	C 	0.65005 0.84995 0.93030 0.32700
C 	C 	0.64839 0.85161 0.96631 -0.08500
C 	C 	0.20083 0.29917 0.87662 -0.37400
C 	C 	0.22646 0.27354 0.87600 0.26400
C 	C 	0.15005 0.34995 0.93030 0.32700
C 	C 	0.14839 0.35161 0.96631 -0.08500
C 	C 	0.20083 0.79917 0.37662 -0.37500
C 	C 	0.22646 0.77354 0.37600 0.26400
C 	C 	0.15005 0.84995 0.43030 0.32100
C 	C 	0.14839 0.85161 0.46631 -0.07100
C 	C 	0.70083 0.37662 0.29917 -0.37500
C 	C 	0.72646 0.37600 0.27354 0.26400
C 	C 	0.65005 0.43030 0.34995 0.32100
C 	C 	0.64839 0.46631 0.35161 -0.07100
C 	C 	0.70083 0.87662 0.79917 -0.37400
C 	C 	0.72646 0.87600 0.77354 0.26300
C 	C 	0.65005 0.93030 0.84995 0.32700
C 	C 	0.64839 0.96631 0.85161 -0.08500
C 	C 	0.20083 0.37662 0.79917 -0.37500
C 	C 	0.22646 0.37600 0.77354 0.26400
C 	C 	0.15005 0.43030 0.84995 0.32100
C 	C 	0.14839 0.46631 0.85161 -0.07100
C 	C 	0.20083 0.87662 0.29917 -0.37400
C 	C 	0.22646 0.87600 0.27354 0.26400
C 	C 	0.15005 0.93030 0.34995 0.32700
C 	C 	0.14839 0.96631 0.35161 -0.08500
C 	C 	0.70083 0.62338 0.70083 -0.37500
C 	C 	0.72646 0.62400 0.72646 0.26400
C 	C 	0.65005 0.56970 0.65005 0.32100
C 	C 	0.64839 0.53369 0.64839 -0.07100
C 	C 	0.70083 0.12338 0.20083 -0.37600
C 	C 	0.72646 0.12400 0.22646 0.26400
C 	C 	0.65005 0.06970 0.15005 0.31600
C 	C 	0.64839 0.03369 0.14839 -0.05700
C 	C 	0.20083 0.62338 0.20083 -0.37500
C 	C 	0.22646 0.62400 0.22646 0.26400
C 	C 	0.15005 0.56970 0.15005 0.32100
C 	C 	0.14839 0.53369 0.14839 -0.07100
C 	C 	0.20083 0.12338 0.70083 -0.37600
C 	C 	0.22646 0.12400 0.72646 0.26400
C 	C 	0.15005 0.06970 0.65005 0.31600
C 	C 	0.14839 0.03369 0.64839 -0.05700
C 	C 	0.29917 0.37662 0.70083 -0.37500
C 	C 	0.27354 0.37600 0.72646 0.26400
C 	C 	0.34995 0.43030 0.65005 0.32100
C 	C 	0.35161 0.46631 0.64839 -0.07100
C 	C 	0.29917 0.87662 0.20083 -0.37400
C 	C 	0.27354 0.87600 0.22646 0.26400
C 	C 	0.34995 0.93030 0.15005 0.32700
C 	C 	0.35161 0.96631 0.14839 -0.08500
C 	C 	0.79917 0.37662 0.20083 -0.37500
C 	C 	0.77354 0.37600 0.22646 0.26400
C 	C 	0.84995 0.43030 0.15005 0.32100
C 	C 	0.85161 0.46631 0.14839 -0.07100
C 	C 	0.79917 0.87662 0.70083 -0.37400
C 	C 	0.77354 0.87600 0.72646 0.26300
C 	C 	0.84995 0.93030 0.65005 0.32700
C 	C 	0.85161 0.96631 0.64839 -0.08500
C 	C 	0.29917 0.62338 0.29917 -0.37500
C 	C 	0.27354 0.62400 0.27354 0.26400
C 	C 	0.34995 0.56970 0.34995 0.32100
C 	C 	0.35161 0.53369 0.35161 -0.07100
C 	C 	0.29917 0.12338 0.79917 -0.37600
C 	C 	0.27354 0.12400 0.77354 0.26400
C 	C 	0.34995 0.06970 0.84995 0.31600
C 	C 	0.35161 0.03369 0.85161 -0.05600
C 	C 	0.79917 0.62338 0.79917 -0.37500
C 	C 	0.77354 0.62400 0.77354 0.26400
C 	C 	0.84995 0.56970 0.84995 0.32200
C 	C 	0.85161 0.53369 0.85161 -0.07100
C 	C 	0.79917 0.12338 0.29917 -0.37600
C 	C 	0.77354 0.12400 0.27354 0.26400
C 	C 	0.84995 0.06970 0.34995 0.31600
C 	C 	0.85161 0.03369 0.35161 -0.05600
