data_crystal

_cell_length_a 41.28600
_cell_length_b 41.28600
_cell_length_c 41.28600
_cell_angle_alpha 90.00000
_cell_angle_beta  90.00000
_cell_angle_gamma 90.00000

_symmetry_space_group_name_	'P 1'
_symmetry_space_group_name_H-M	'P 1'

loop_
_symmetry_equiv_pos_as_xyz
  x,y,z

loop_
_atom_site_label
_atom_site_type_symbol
_atom_site_fract_x
_atom_site_fract_y
_atom_site_fract_z
_atom_site_charge
O 	O 	0.71200 0.37077 0.67080 -1.10000
O 	O 	0.66600 0.41680 0.62740 -0.46900
C 	C 	0.75862 0.37862 0.71783 -0.06600
H 	H 	0.76460 0.37870 0.69590 0.09000
C 	C 	0.66653 0.48333 0.62560 -0.02400
H 	H 	0.68000 0.47200 0.61110 0.05500
O 	O 	0.70730 0.38231 0.67310 0.85800
O 	O 	0.67270 0.41700 0.63610 0.06000
O 	O 	0.71200 0.87077 0.17080 -1.09800
O 	O 	0.66600 0.91680 0.12740 -0.47000
C 	C 	0.75862 0.87862 0.21783 -0.06600
H 	H 	0.76460 0.87870 0.19590 0.09000
C 	C 	0.66653 0.98333 0.12560 0.01600
H 	H 	0.68000 0.97200 0.11110 0.04400
O 	O 	0.70730 0.88231 0.17310 0.85600
O 	O 	0.67270 0.91700 0.13610 0.05900
O 	O 	0.21200 0.37077 0.17080 -1.10200
O 	O 	0.16600 0.41680 0.12740 -0.46800
C 	C 	0.25862 0.37862 0.21783 -0.06600
H 	H 	0.26460 0.37870 0.19590 0.09000
C 	C 	0.16653 0.48333 0.12560 -0.02500
H 	H 	0.18000 0.47200 0.11110 0.05500
O 	O 	0.20730 0.38231 0.17310 0.86000
O 	O 	0.17270 0.41700 0.13610 0.05900
O 	O 	0.21200 0.87077 0.67080 -1.09700
O 	O 	0.16600 0.91680 0.62740 -0.47000
C 	C 	0.25862 0.87862 0.71783 -0.06600
H 	H 	0.26460 0.87870 0.69590 0.09000
C 	C 	0.16653 0.98333 0.62560 0.01600
H 	H 	0.18000 0.97200 0.61110 0.04400
O 	O 	0.20730 0.88231 0.67310 0.85500
O 	O 	0.17270 0.91700 0.63610 0.05900
O 	O 	0.28800 0.62923 0.67080 -1.10000
O 	O 	0.33400 0.58320 0.62740 -0.46900
C 	C 	0.24138 0.62138 0.71783 -0.06600
H 	H 	0.23540 0.62130 0.69590 0.09000
C 	C 	0.33347 0.51667 0.62560 -0.02400
H 	H 	0.32000 0.52800 0.61110 0.05500
O 	O 	0.29270 0.61769 0.67310 0.85800
O 	O 	0.32730 0.58300 0.63610 0.06000
O 	O 	0.28800 0.12923 0.17080 -1.10500
O 	O 	0.33400 0.08320 0.12740 -0.46700
C 	C 	0.24138 0.12138 0.21783 -0.06700
H 	H 	0.23540 0.12130 0.19590 0.09000
C 	C 	0.33347 0.01667 0.12560 -0.06500
H 	H 	0.32000 0.02800 0.11110 0.06600
O 	O 	0.29270 0.11769 0.17310 0.86300
O 	O 	0.32730 0.08300 0.13610 0.06000
O 	O 	0.78800 0.62923 0.17080 -1.10100
O 	O 	0.83400 0.58320 0.12740 -0.46900
C 	C 	0.74138 0.62138 0.21783 -0.06600
H 	H 	0.73540 0.62130 0.19590 0.09000
C 	C 	0.83347 0.51667 0.12560 -0.02400
H 	H 	0.82000 0.52800 0.11110 0.05500
O 	O 	0.79270 0.61769 0.17310 0.85900
O 	O 	0.82730 0.58300 0.13610 0.06000
O 	O 	0.78800 0.12923 0.67080 -1.10400
O 	O 	0.83400 0.08320 0.62740 -0.46800
C 	C 	0.74138 0.12138 0.71783 -0.06700
H 	H 	0.73540 0.12130 0.69590 0.08900
C 	C 	0.83347 0.01667 0.62560 -0.06400
H 	H 	0.82000 0.02800 0.61110 0.06700
O 	O 	0.79270 0.11769 0.67310 0.86200
O 	O 	0.82730 0.08300 0.63610 0.06100
O 	O 	0.28800 0.37077 0.32920 -1.10100
O 	O 	0.33400 0.41680 0.37260 -0.46900
C 	C 	0.24138 0.37862 0.28217 -0.06600
H 	H 	0.23540 0.37870 0.30410 0.09000
C 	C 	0.33347 0.48333 0.37440 -0.02400
H 	H 	0.32000 0.47200 0.38890 0.05500
O 	O 	0.29270 0.38231 0.32690 0.85900
O 	O 	0.32730 0.41700 0.36390 0.06000
O 	O 	0.28800 0.87077 0.82920 -1.09700
O 	O 	0.33400 0.91680 0.87260 -0.47100
C 	C 	0.24138 0.87862 0.78217 -0.06600
H 	H 	0.23540 0.87870 0.80410 0.09000
C 	C 	0.33347 0.98333 0.87440 0.01600
H 	H 	0.32000 0.97200 0.88890 0.04400
O 	O 	0.29270 0.88231 0.82690 0.85400
O 	O 	0.32730 0.91700 0.86390 0.06100
O 	O 	0.78800 0.37077 0.82920 -1.10000
O 	O 	0.83400 0.41680 0.87260 -0.47100
C 	C 	0.74138 0.37862 0.78217 -0.06600
H 	H 	0.73540 0.37870 0.80410 0.09000
C 	C 	0.83347 0.48333 0.87440 -0.02400
H 	H 	0.82000 0.47200 0.88890 0.05600
O 	O 	0.79270 0.38231 0.82690 0.85800
O 	O 	0.82730 0.41700 0.86390 0.06200
O 	O 	0.78800 0.87077 0.32920 -1.09700
O 	O 	0.83400 0.91680 0.37260 -0.47100
C 	C 	0.74138 0.87862 0.28217 -0.06600
H 	H 	0.73540 0.87870 0.30410 0.09000
C 	C 	0.83347 0.98333 0.37440 0.01600
H 	H 	0.82000 0.97200 0.38890 0.04400
O 	O 	0.79270 0.88231 0.32690 0.85500
O 	O 	0.82730 0.91700 0.36390 0.06100
O 	O 	0.71200 0.62923 0.32920 -1.10000
O 	O 	0.66600 0.58320 0.37260 -0.46900
C 	C 	0.75862 0.62138 0.28217 -0.06600
H 	H 	0.76460 0.62130 0.30410 0.09000
C 	C 	0.66653 0.51667 0.37440 -0.02400
H 	H 	0.68000 0.52800 0.38890 0.05500
O 	O 	0.70730 0.61769 0.32690 0.85800
O 	O 	0.67270 0.58300 0.36390 0.06000
O 	O 	0.71200 0.12923 0.82920 -1.10300
O 	O 	0.66600 0.08320 0.87260 -0.46900
C 	C 	0.75862 0.12138 0.78217 -0.06700
H 	H 	0.76460 0.12130 0.80410 0.08900
C 	C 	0.66653 0.01667 0.87440 -0.06400
H 	H 	0.68000 0.02800 0.88890 0.06700
O 	O 	0.70730 0.11769 0.82690 0.86100
O 	O 	0.67270 0.08300 0.86390 0.06200
O 	O 	0.21200 0.62923 0.82920 -1.10000
O 	O 	0.16600 0.58320 0.87260 -0.46900
C 	C 	0.25862 0.62138 0.78217 -0.06600
H 	H 	0.26460 0.62130 0.80410 0.09000
C 	C 	0.16653 0.51667 0.87440 -0.02400
H 	H 	0.18000 0.52800 0.88890 0.05600
O 	O 	0.20730 0.61769 0.82690 0.85800
O 	O 	0.17270 0.58300 0.86390 0.06200
O 	O 	0.21200 0.12923 0.32920 -1.10300
O 	O 	0.16600 0.08320 0.37260 -0.46600
C 	C 	0.25862 0.12138 0.28217 -0.06600
H 	H 	0.26460 0.12130 0.30410 0.09100
C 	C 	0.16653 0.01667 0.37440 -0.06400
H 	H 	0.18000 0.02800 0.38890 0.06800
O 	O 	0.20730 0.11769 0.32690 0.86400
O 	O 	0.17270 0.08300 0.36390 0.06100
O 	O 	0.67080 0.71200 0.37077 -1.09900
O 	O 	0.62740 0.66600 0.41680 -0.46800
C 	C 	0.71783 0.75862 0.37862 -0.06500
H 	H 	0.69590 0.76460 0.37870 0.09100
C 	C 	0.62560 0.66653 0.48333 -0.02300
H 	H 	0.61110 0.68000 0.47200 0.05600
O 	O 	0.67310 0.70730 0.38231 0.85900
O 	O 	0.63610 0.67270 0.41700 0.06100
O 	O 	0.67080 0.21200 0.87077 -1.09600
O 	O 	0.62740 0.16600 0.91680 -0.46900
C 	C 	0.71783 0.25862 0.87862 -0.06500
H 	H 	0.69590 0.26460 0.87870 0.09100
C 	C 	0.62560 0.16653 0.98333 0.01700
H 	H 	0.61110 0.18000 0.97200 0.04500
O 	O 	0.67310 0.20730 0.88231 0.85600
O 	O 	0.63610 0.17270 0.91700 0.06000
O 	O 	0.17080 0.71200 0.87077 -1.09700
O 	O 	0.12740 0.66600 0.91680 -0.46900
C 	C 	0.21783 0.75862 0.87862 -0.06500
H 	H 	0.19590 0.76460 0.87870 0.09100
C 	C 	0.12560 0.66653 0.98333 0.01700
H 	H 	0.11110 0.68000 0.97200 0.04500
O 	O 	0.17310 0.70730 0.88231 0.85700
O 	O 	0.13610 0.67270 0.91700 0.06000
O 	O 	0.17080 0.21200 0.37077 -1.10100
O 	O 	0.12740 0.16600 0.41680 -0.46700
C 	C 	0.21783 0.25862 0.37862 -0.06500
H 	H 	0.19590 0.26460 0.37870 0.09100
C 	C 	0.12560 0.16653 0.48333 -0.02400
H 	H 	0.11110 0.18000 0.47200 0.05600
O 	O 	0.17310 0.20730 0.38231 0.86100
O 	O 	0.13610 0.17270 0.41700 0.06000
O 	O 	0.67080 0.28800 0.62923 -1.09900
O 	O 	0.62740 0.33400 0.58320 -0.46800
C 	C 	0.71783 0.24138 0.62138 -0.06500
H 	H 	0.69590 0.23540 0.62130 0.09100
C 	C 	0.62560 0.33347 0.51667 -0.02300
H 	H 	0.61110 0.32000 0.52800 0.05600
O 	O 	0.67310 0.29270 0.61769 0.85900
O 	O 	0.63610 0.32730 0.58300 0.06100
O 	O 	0.67080 0.78800 0.12923 -1.10300
O 	O 	0.62740 0.83400 0.08320 -0.46700
C 	C 	0.71783 0.74138 0.12138 -0.06600
H 	H 	0.69590 0.73540 0.12130 0.09000
C 	C 	0.62560 0.83347 0.01667 -0.06300
H 	H 	0.61110 0.82000 0.02800 0.06800
O 	O 	0.67310 0.79270 0.11769 0.86300
O 	O 	0.63610 0.82730 0.08300 0.06200
O 	O 	0.17080 0.28800 0.12923 -1.10400
O 	O 	0.12740 0.33400 0.08320 -0.46600
C 	C 	0.21783 0.24138 0.12138 -0.06600
H 	H 	0.19590 0.23540 0.12130 0.09100
C 	C 	0.12560 0.33347 0.01667 -0.06400
H 	H 	0.11110 0.32000 0.02800 0.06700
O 	O 	0.17310 0.29270 0.11769 0.86400
O 	O 	0.13610 0.32730 0.08300 0.06100
O 	O 	0.17080 0.78800 0.62923 -1.10000
O 	O 	0.12740 0.83400 0.58320 -0.46800
C 	C 	0.21783 0.74138 0.62138 -0.06500
H 	H 	0.19590 0.73540 0.62130 0.09100
C 	C 	0.12560 0.83347 0.51667 -0.02300
H 	H 	0.11110 0.82000 0.52800 0.05600
O 	O 	0.17310 0.79270 0.61769 0.86000
O 	O 	0.13610 0.82730 0.58300 0.06100
O 	O 	0.32920 0.28800 0.37077 -1.10000
O 	O 	0.37260 0.33400 0.41680 -0.46800
C 	C 	0.28217 0.24138 0.37862 -0.06500
H 	H 	0.30410 0.23540 0.37870 0.09100
C 	C 	0.37440 0.33347 0.48333 -0.02300
H 	H 	0.38890 0.32000 0.47200 0.05600
O 	O 	0.32690 0.29270 0.38231 0.86000
O 	O 	0.36390 0.32730 0.41700 0.06100
O 	O 	0.32920 0.78800 0.87077 -1.09600
O 	O 	0.37260 0.83400 0.91680 -0.47000
C 	C 	0.28217 0.74138 0.87862 -0.06500
H 	H 	0.30410 0.73540 0.87870 0.09100
C 	C 	0.37440 0.83347 0.98333 0.01700
H 	H 	0.38890 0.82000 0.97200 0.04500
O 	O 	0.32690 0.79270 0.88231 0.85600
O 	O 	0.36390 0.82730 0.91700 0.06200
O 	O 	0.82920 0.28800 0.87077 -1.09600
O 	O 	0.87260 0.33400 0.91680 -0.47000
C 	C 	0.78217 0.24138 0.87862 -0.06500
H 	H 	0.80410 0.23540 0.87870 0.09100
C 	C 	0.87440 0.33347 0.98333 0.01700
H 	H 	0.88890 0.32000 0.97200 0.04500
O 	O 	0.82690 0.29270 0.88231 0.85500
O 	O 	0.86390 0.32730 0.91700 0.06200
O 	O 	0.82920 0.78800 0.37077 -1.09900
O 	O 	0.87260 0.83400 0.41680 -0.47000
C 	C 	0.78217 0.74138 0.37862 -0.06500
H 	H 	0.80410 0.73540 0.37870 0.09100
C 	C 	0.87440 0.83347 0.48333 -0.02300
H 	H 	0.88890 0.82000 0.47200 0.05700
O 	O 	0.82690 0.79270 0.38231 0.85900
O 	O 	0.86390 0.82730 0.41700 0.06300
O 	O 	0.32920 0.71200 0.62923 -1.09900
O 	O 	0.37260 0.66600 0.58320 -0.46800
C 	C 	0.28217 0.75862 0.62138 -0.06500
H 	H 	0.30410 0.76460 0.62130 0.09100
C 	C 	0.37440 0.66653 0.51667 -0.02300
H 	H 	0.38890 0.68000 0.52800 0.05600
O 	O 	0.32690 0.70730 0.61769 0.85900
O 	O 	0.36390 0.67270 0.58300 0.06100
O 	O 	0.32920 0.21200 0.12923 -1.10300
O 	O 	0.37260 0.16600 0.08320 -0.46600
C 	C 	0.28217 0.25862 0.12138 -0.06600
H 	H 	0.30410 0.26460 0.12130 0.09100
C 	C 	0.37440 0.16653 0.01667 -0.06400
H 	H 	0.38890 0.18000 0.02800 0.06800
O 	O 	0.32690 0.20730 0.11769 0.86400
O 	O 	0.36390 0.17270 0.08300 0.06100
O 	O 	0.82920 0.71200 0.12923 -1.10200
O 	O 	0.87260 0.66600 0.08320 -0.46800
C 	C 	0.78217 0.75862 0.12138 -0.06600
H 	H 	0.80410 0.76460 0.12130 0.09000
C 	C 	0.87440 0.66653 0.01667 -0.06300
H 	H 	0.88890 0.68000 0.02800 0.06800
O 	O 	0.82690 0.70730 0.11769 0.86200
O 	O 	0.86390 0.67270 0.08300 0.06300
O 	O 	0.82920 0.21200 0.62923 -1.09900
O 	O 	0.87260 0.16600 0.58320 -0.46800
C 	C 	0.78217 0.25862 0.62138 -0.06500
H 	H 	0.80410 0.26460 0.62130 0.09100
C 	C 	0.87440 0.16653 0.51667 -0.02300
H 	H 	0.88890 0.18000 0.52800 0.05700
O 	O 	0.82690 0.20730 0.61769 0.85900
O 	O 	0.86390 0.17270 0.58300 0.06200
O 	O 	0.37077 0.67080 0.71200 -1.09900
O 	O 	0.41680 0.62740 0.66600 -0.46800
C 	C 	0.37862 0.71783 0.75862 -0.06500
H 	H 	0.37870 0.69590 0.76460 0.09100
C 	C 	0.48333 0.62560 0.66653 -0.02300
H 	H 	0.47200 0.61110 0.68000 0.05600
O 	O 	0.38231 0.67310 0.70730 0.85900
O 	O 	0.41700 0.63610 0.67270 0.06100
O 	O 	0.37077 0.17080 0.21200 -1.10100
O 	O 	0.41680 0.12740 0.16600 -0.46700
C 	C 	0.37862 0.21783 0.25862 -0.06500
H 	H 	0.37870 0.19590 0.26460 0.09100
C 	C 	0.48333 0.12560 0.16653 -0.02400
H 	H 	0.47200 0.11110 0.18000 0.05600
O 	O 	0.38231 0.17310 0.20730 0.86100
O 	O 	0.41700 0.13610 0.17270 0.06000
O 	O 	0.87077 0.67080 0.21200 -1.09600
O 	O 	0.91680 0.62740 0.16600 -0.46900
C 	C 	0.87862 0.71783 0.25862 -0.06500
H 	H 	0.87870 0.69590 0.26460 0.09100
C 	C 	0.98333 0.62560 0.16653 0.01700
H 	H 	0.97200 0.61110 0.18000 0.04500
O 	O 	0.88231 0.67310 0.20730 0.85600
O 	O 	0.91700 0.63610 0.17270 0.06000
O 	O 	0.87077 0.17080 0.71200 -1.09700
O 	O 	0.91680 0.12740 0.66600 -0.46900
C 	C 	0.87862 0.21783 0.75862 -0.06500
H 	H 	0.87870 0.19590 0.76460 0.09100
C 	C 	0.98333 0.12560 0.66653 0.01700
H 	H 	0.97200 0.11110 0.68000 0.04500
O 	O 	0.88231 0.17310 0.70730 0.85700
O 	O 	0.91700 0.13610 0.67270 0.06000
O 	O 	0.62923 0.67080 0.28800 -1.09900
O 	O 	0.58320 0.62740 0.33400 -0.46800
C 	C 	0.62138 0.71783 0.24138 -0.06500
H 	H 	0.62130 0.69590 0.23540 0.09100
C 	C 	0.51667 0.62560 0.33347 -0.02300
H 	H 	0.52800 0.61110 0.32000 0.05600
O 	O 	0.61769 0.67310 0.29270 0.85900
O 	O 	0.58300 0.63610 0.32730 0.06100
O 	O 	0.62923 0.17080 0.78800 -1.10000
O 	O 	0.58320 0.12740 0.83400 -0.46800
C 	C 	0.62138 0.21783 0.74138 -0.06500
H 	H 	0.62130 0.19590 0.73540 0.09100
C 	C 	0.51667 0.12560 0.83347 -0.02300
H 	H 	0.52800 0.11110 0.82000 0.05600
O 	O 	0.61769 0.17310 0.79270 0.86000
O 	O 	0.58300 0.13610 0.82730 0.06100
O 	O 	0.12923 0.67080 0.78800 -1.10300
O 	O 	0.08320 0.62740 0.83400 -0.46700
C 	C 	0.12138 0.71783 0.74138 -0.06600
H 	H 	0.12130 0.69590 0.73540 0.09000
C 	C 	0.01667 0.62560 0.83347 -0.06300
H 	H 	0.02800 0.61110 0.82000 0.06800
O 	O 	0.11769 0.67310 0.79270 0.86300
O 	O 	0.08300 0.63610 0.82730 0.06200
O 	O 	0.12923 0.17080 0.28800 -1.10400
O 	O 	0.08320 0.12740 0.33400 -0.46600
C 	C 	0.12138 0.21783 0.24138 -0.06600
H 	H 	0.12130 0.19590 0.23540 0.09100
C 	C 	0.01667 0.12560 0.33347 -0.06400
H 	H 	0.02800 0.11110 0.32000 0.06700
O 	O 	0.11769 0.17310 0.29270 0.86400
O 	O 	0.08300 0.13610 0.32730 0.06100
O 	O 	0.37077 0.32920 0.28800 -1.10000
O 	O 	0.41680 0.37260 0.33400 -0.46800
C 	C 	0.37862 0.28217 0.24138 -0.06500
H 	H 	0.37870 0.30410 0.23540 0.09100
C 	C 	0.48333 0.37440 0.33347 -0.02300
H 	H 	0.47200 0.38890 0.32000 0.05600
O 	O 	0.38231 0.32690 0.29270 0.86000
O 	O 	0.41700 0.36390 0.32730 0.06100
O 	O 	0.37077 0.82920 0.78800 -1.09900
O 	O 	0.41680 0.87260 0.83400 -0.47000
C 	C 	0.37862 0.78217 0.74138 -0.06500
H 	H 	0.37870 0.80410 0.73540 0.09100
C 	C 	0.48333 0.87440 0.83347 -0.02300
H 	H 	0.47200 0.88890 0.82000 0.05700
O 	O 	0.38231 0.82690 0.79270 0.85900
O 	O 	0.41700 0.86390 0.82730 0.06300
O 	O 	0.87077 0.32920 0.78800 -1.09600
O 	O 	0.91680 0.37260 0.83400 -0.47000
C 	C 	0.87862 0.28217 0.74138 -0.06500
H 	H 	0.87870 0.30410 0.73540 0.09100
C 	C 	0.98333 0.37440 0.83347 0.01700
H 	H 	0.97200 0.38890 0.82000 0.04500
O 	O 	0.88231 0.32690 0.79270 0.85600
O 	O 	0.91700 0.36390 0.82730 0.06200
O 	O 	0.87077 0.82920 0.28800 -1.09600
O 	O 	0.91680 0.87260 0.33400 -0.47000
C 	C 	0.87862 0.78217 0.24138 -0.06500
H 	H 	0.87870 0.80410 0.23540 0.09100
C 	C 	0.98333 0.87440 0.33347 0.01700
H 	H 	0.97200 0.88890 0.32000 0.04500
O 	O 	0.88231 0.82690 0.29270 0.85500
O 	O 	0.91700 0.86390 0.32730 0.06200
O 	O 	0.62923 0.32920 0.71200 -1.09900
O 	O 	0.58320 0.37260 0.66600 -0.46800
C 	C 	0.62138 0.28217 0.75862 -0.06500
H 	H 	0.62130 0.30410 0.76460 0.09100
C 	C 	0.51667 0.37440 0.66653 -0.02300
H 	H 	0.52800 0.38890 0.68000 0.05600
O 	O 	0.61769 0.32690 0.70730 0.85900
O 	O 	0.58300 0.36390 0.67270 0.06100
O 	O 	0.62923 0.82920 0.21200 -1.09900
O 	O 	0.58320 0.87260 0.16600 -0.46800
C 	C 	0.62138 0.78217 0.25862 -0.06500
H 	H 	0.62130 0.80410 0.26460 0.09100
C 	C 	0.51667 0.87440 0.16653 -0.02300
H 	H 	0.52800 0.88890 0.18000 0.05700
O 	O 	0.61769 0.82690 0.20730 0.85900
O 	O 	0.58300 0.86390 0.17270 0.06200
O 	O 	0.12923 0.32920 0.21200 -1.10300
O 	O 	0.08320 0.37260 0.16600 -0.46600
C 	C 	0.12138 0.28217 0.25862 -0.06600
H 	H 	0.12130 0.30410 0.26460 0.09100
C 	C 	0.01667 0.37440 0.16653 -0.06400
H 	H 	0.02800 0.38890 0.18000 0.06800
O 	O 	0.11769 0.32690 0.20730 0.86400
O 	O 	0.08300 0.36390 0.17270 0.06100
O 	O 	0.12923 0.82920 0.71200 -1.10200
O 	O 	0.08320 0.87260 0.66600 -0.46800
C 	C 	0.12138 0.78217 0.75862 -0.06600
H 	H 	0.12130 0.80410 0.76460 0.09000
C 	C 	0.01667 0.87440 0.66653 -0.06300
H 	H 	0.02800 0.88890 0.68000 0.06800
O 	O 	0.11769 0.82690 0.70730 0.86200
O 	O 	0.08300 0.86390 0.67270 0.06300
O 	O 	0.37077 0.71200 0.32920 -1.10000
O 	O 	0.41680 0.66600 0.37260 -0.46800
C 	C 	0.37862 0.75862 0.28217 -0.06500
H 	H 	0.37870 0.76460 0.30410 0.09100
C 	C 	0.48333 0.66653 0.37440 -0.02300
H 	H 	0.47200 0.68000 0.38890 0.05600
O 	O 	0.38231 0.70730 0.32690 0.86000
O 	O 	0.41700 0.67270 0.36390 0.06100
O 	O 	0.37077 0.21200 0.82920 -1.09900
O 	O 	0.41680 0.16600 0.87260 -0.46800
C 	C 	0.37862 0.25862 0.78217 -0.06500
H 	H 	0.37870 0.26460 0.80410 0.09100
C 	C 	0.48333 0.16653 0.87440 -0.02300
H 	H 	0.47200 0.18000 0.88890 0.05700
O 	O 	0.38231 0.20730 0.82690 0.85900
O 	O 	0.41700 0.17270 0.86390 0.06200
O 	O 	0.87077 0.71200 0.82920 -1.09500
O 	O 	0.91680 0.66600 0.87260 -0.47000
C 	C 	0.87862 0.75862 0.78217 -0.06500
H 	H 	0.87870 0.76460 0.80410 0.09100
C 	C 	0.98333 0.66653 0.87440 0.01700
H 	H 	0.97200 0.68000 0.88890 0.04500
O 	O 	0.88231 0.70730 0.82690 0.85500
O 	O 	0.91700 0.67270 0.86390 0.06200
O 	O 	0.87077 0.21200 0.32920 -1.09600
O 	O 	0.91680 0.16600 0.37260 -0.46900
C 	C 	0.87862 0.25862 0.28217 -0.06500
H 	H 	0.87870 0.26460 0.30410 0.09100
C 	C 	0.98333 0.16653 0.37440 0.01700
H 	H 	0.97200 0.18000 0.38890 0.04500
O 	O 	0.88231 0.20730 0.32690 0.85600
O 	O 	0.91700 0.17270 0.36390 0.06000
O 	O 	0.62923 0.28800 0.32920 -1.10000
O 	O 	0.58320 0.33400 0.37260 -0.46800
C 	C 	0.62138 0.24138 0.28217 -0.06500
H 	H 	0.62130 0.23540 0.30410 0.09100
C 	C 	0.51667 0.33347 0.37440 -0.02300
H 	H 	0.52800 0.32000 0.38890 0.05600
O 	O 	0.61769 0.29270 0.32690 0.86000
O 	O 	0.58300 0.32730 0.36390 0.06100
O 	O 	0.62923 0.78800 0.82920 -1.09900
O 	O 	0.58320 0.83400 0.87260 -0.47000
C 	C 	0.62138 0.74138 0.78217 -0.06500
H 	H 	0.62130 0.73540 0.80410 0.09100
C 	C 	0.51667 0.83347 0.87440 -0.02300
H 	H 	0.52800 0.82000 0.88890 0.05700
O 	O 	0.61769 0.79270 0.82690 0.85800
O 	O 	0.58300 0.82730 0.86390 0.06300
O 	O 	0.12923 0.28800 0.82920 -1.10200
O 	O 	0.08320 0.33400 0.87260 -0.46800
C 	C 	0.12138 0.24138 0.78217 -0.06600
H 	H 	0.12130 0.23540 0.80410 0.09000
C 	C 	0.01667 0.33347 0.87440 -0.06300
H 	H 	0.02800 0.32000 0.88890 0.06800
O 	O 	0.11769 0.29270 0.82690 0.86200
O 	O 	0.08300 0.32730 0.86390 0.06300
O 	O 	0.12923 0.78800 0.32920 -1.10300
O 	O 	0.08320 0.83400 0.37260 -0.46700
C 	C 	0.12138 0.74138 0.28217 -0.06600
H 	H 	0.12130 0.73540 0.30410 0.09000
C 	C 	0.01667 0.83347 0.37440 -0.06300
H 	H 	0.02800 0.82000 0.38890 0.06800
O 	O 	0.11769 0.79270 0.32690 0.86300
O 	O 	0.08300 0.82730 0.36390 0.06200
O 	O 	0.37077 0.28800 0.67080 -1.10000
O 	O 	0.41680 0.33400 0.62740 -0.46800
C 	C 	0.37862 0.24138 0.71783 -0.06500
H 	H 	0.37870 0.23540 0.69590 0.09100
C 	C 	0.48333 0.33347 0.62560 -0.02300
H 	H 	0.47200 0.32000 0.61110 0.05600
O 	O 	0.38231 0.29270 0.67310 0.86000
O 	O 	0.41700 0.32730 0.63610 0.06100
O 	O 	0.37077 0.78800 0.17080 -1.10000
O 	O 	0.41680 0.83400 0.12740 -0.46800
C 	C 	0.37862 0.74138 0.21783 -0.06500
H 	H 	0.37870 0.73540 0.19590 0.09100
C 	C 	0.48333 0.83347 0.12560 -0.02400
H 	H 	0.47200 0.82000 0.11110 0.05600
O 	O 	0.38231 0.79270 0.17310 0.86100
O 	O 	0.41700 0.82730 0.13610 0.06100
O 	O 	0.87077 0.28800 0.17080 -1.09700
O 	O 	0.91680 0.33400 0.12740 -0.46900
C 	C 	0.87862 0.24138 0.21783 -0.06500
H 	H 	0.87870 0.23540 0.19590 0.09100
C 	C 	0.98333 0.33347 0.12560 0.01700
H 	H 	0.97200 0.32000 0.11110 0.04500
O 	O 	0.88231 0.29270 0.17310 0.85700
O 	O 	0.91700 0.32730 0.13610 0.06000
O 	O 	0.87077 0.78800 0.67080 -1.09600
O 	O 	0.91680 0.83400 0.62740 -0.47000
C 	C 	0.87862 0.74138 0.71783 -0.06500
H 	H 	0.87870 0.73540 0.69590 0.09100
C 	C 	0.98333 0.83347 0.62560 0.01700
H 	H 	0.97200 0.82000 0.61110 0.04500
O 	O 	0.88231 0.79270 0.67310 0.85600
O 	O 	0.91700 0.82730 0.63610 0.06200
O 	O 	0.62923 0.71200 0.67080 -1.09900
O 	O 	0.58320 0.66600 0.62740 -0.46800
C 	C 	0.62138 0.75862 0.71783 -0.06500
H 	H 	0.62130 0.76460 0.69590 0.09100
C 	C 	0.51667 0.66653 0.62560 -0.02300
H 	H 	0.52800 0.68000 0.61110 0.05600
O 	O 	0.61769 0.70730 0.67310 0.85900
O 	O 	0.58300 0.67270 0.63610 0.06100
O 	O 	0.62923 0.21200 0.17080 -1.10000
O 	O 	0.58320 0.16600 0.12740 -0.46700
C 	C 	0.62138 0.25862 0.21783 -0.06500
H 	H 	0.62130 0.26460 0.19590 0.09100
C 	C 	0.51667 0.16653 0.12560 -0.02400
H 	H 	0.52800 0.18000 0.11110 0.05600
O 	O 	0.61769 0.20730 0.17310 0.86100
O 	O 	0.58300 0.17270 0.13610 0.05900
O 	O 	0.12923 0.71200 0.17080 -1.10300
O 	O 	0.08320 0.66600 0.12740 -0.46600
C 	C 	0.12138 0.75862 0.21783 -0.06600
H 	H 	0.12130 0.76460 0.19590 0.09100
C 	C 	0.01667 0.66653 0.12560 -0.06400
H 	H 	0.02800 0.68000 0.11110 0.06700
O 	O 	0.11769 0.70730 0.17310 0.86400
O 	O 	0.08300 0.67270 0.13610 0.06000
O 	O 	0.12923 0.21200 0.67080 -1.10300
O 	O 	0.08320 0.16600 0.62740 -0.46600
C 	C 	0.12138 0.25862 0.71783 -0.06600
H 	H 	0.12130 0.26460 0.69590 0.09100
C 	C 	0.01667 0.16653 0.62560 -0.06400
H 	H 	0.02800 0.18000 0.61110 0.06800
O 	O 	0.11769 0.20730 0.67310 0.86300
O 	O 	0.08300 0.17270 0.63610 0.06100
O 	O 	0.71200 0.67080 0.62923 -1.09900
O 	O 	0.66600 0.62740 0.58320 -0.46800
C 	C 	0.75862 0.71783 0.62138 -0.06500
H 	H 	0.76460 0.69590 0.62130 0.09100
C 	C 	0.66653 0.62560 0.51667 -0.02300
H 	H 	0.68000 0.61110 0.52800 0.05600
O 	O 	0.70730 0.67310 0.61769 0.85900
O 	O 	0.67270 0.63610 0.58300 0.06100
O 	O 	0.71200 0.17080 0.12923 -1.10300
O 	O 	0.66600 0.12740 0.08320 -0.46600
C 	C 	0.75862 0.21783 0.12138 -0.06600
H 	H 	0.76460 0.19590 0.12130 0.09100
C 	C 	0.66653 0.12560 0.01667 -0.06400
H 	H 	0.68000 0.11110 0.02800 0.06700
O 	O 	0.70730 0.17310 0.11769 0.86400
O 	O 	0.67270 0.13610 0.08300 0.06000
O 	O 	0.21200 0.67080 0.12923 -1.10300
O 	O 	0.16600 0.62740 0.08320 -0.46600
C 	C 	0.25862 0.71783 0.12138 -0.06600
H 	H 	0.26460 0.69590 0.12130 0.09100
C 	C 	0.16653 0.62560 0.01667 -0.06400
H 	H 	0.18000 0.61110 0.02800 0.06800
O 	O 	0.20730 0.67310 0.11769 0.86300
O 	O 	0.17270 0.63610 0.08300 0.06100
O 	O 	0.21200 0.17080 0.62923 -1.10000
O 	O 	0.16600 0.12740 0.58320 -0.46700
C 	C 	0.25862 0.21783 0.62138 -0.06500
H 	H 	0.26460 0.19590 0.62130 0.09100
C 	C 	0.16653 0.12560 0.51667 -0.02400
H 	H 	0.18000 0.11110 0.52800 0.05600
O 	O 	0.20730 0.17310 0.61769 0.86100
O 	O 	0.17270 0.13610 0.58300 0.05900
O 	O 	0.28800 0.67080 0.37077 -1.10000
O 	O 	0.33400 0.62740 0.41680 -0.46800
C 	C 	0.24138 0.71783 0.37862 -0.06500
H 	H 	0.23540 0.69590 0.37870 0.09100
C 	C 	0.33347 0.62560 0.48333 -0.02300
H 	H 	0.32000 0.61110 0.47200 0.05600
O 	O 	0.29270 0.67310 0.38231 0.86000
O 	O 	0.32730 0.63610 0.41700 0.06100
O 	O 	0.28800 0.17080 0.87077 -1.09700
O 	O 	0.33400 0.12740 0.91680 -0.46900
C 	C 	0.24138 0.21783 0.87862 -0.06500
H 	H 	0.23540 0.19590 0.87870 0.09100
C 	C 	0.33347 0.12560 0.98333 0.01700
H 	H 	0.32000 0.11110 0.97200 0.04500
O 	O 	0.29270 0.17310 0.88231 0.85700
O 	O 	0.32730 0.13610 0.91700 0.06000
O 	O 	0.78800 0.67080 0.87077 -1.09600
O 	O 	0.83400 0.62740 0.91680 -0.47000
C 	C 	0.74138 0.71783 0.87862 -0.06500
H 	H 	0.73540 0.69590 0.87870 0.09100
C 	C 	0.83347 0.62560 0.98333 0.01700
H 	H 	0.82000 0.61110 0.97200 0.04500
O 	O 	0.79270 0.67310 0.88231 0.85600
O 	O 	0.82730 0.63610 0.91700 0.06200
O 	O 	0.78800 0.17080 0.37077 -1.10000
O 	O 	0.83400 0.12740 0.41680 -0.46800
C 	C 	0.74138 0.21783 0.37862 -0.06500
H 	H 	0.73540 0.19590 0.37870 0.09100
C 	C 	0.83347 0.12560 0.48333 -0.02400
H 	H 	0.82000 0.11110 0.47200 0.05600
O 	O 	0.79270 0.17310 0.38231 0.86100
O 	O 	0.82730 0.13610 0.41700 0.06100
O 	O 	0.28800 0.32920 0.62923 -1.10000
O 	O 	0.33400 0.37260 0.58320 -0.46800
C 	C 	0.24138 0.28217 0.62138 -0.06500
H 	H 	0.23540 0.30410 0.62130 0.09100
C 	C 	0.33347 0.37440 0.51667 -0.02300
H 	H 	0.32000 0.38890 0.52800 0.05600
O 	O 	0.29270 0.32690 0.61769 0.86000
O 	O 	0.32730 0.36390 0.58300 0.06100
O 	O 	0.28800 0.82920 0.12923 -1.10200
O 	O 	0.33400 0.87260 0.08320 -0.46800
C 	C 	0.24138 0.78217 0.12138 -0.06600
H 	H 	0.23540 0.80410 0.12130 0.09000
C 	C 	0.33347 0.87440 0.01667 -0.06300
H 	H 	0.32000 0.88890 0.02800 0.06800
O 	O 	0.29270 0.82690 0.11769 0.86200
O 	O 	0.32730 0.86390 0.08300 0.06300
O 	O 	0.78800 0.32920 0.12923 -1.10300
O 	O 	0.83400 0.37260 0.08320 -0.46700
C 	C 	0.74138 0.28217 0.12138 -0.06600
H 	H 	0.73540 0.30410 0.12130 0.09000
C 	C 	0.83347 0.37440 0.01667 -0.06300
H 	H 	0.82000 0.38890 0.02800 0.06800
O 	O 	0.79270 0.32690 0.11769 0.86300
O 	O 	0.82730 0.36390 0.08300 0.06200
O 	O 	0.78800 0.82920 0.62923 -1.09900
O 	O 	0.83400 0.87260 0.58320 -0.47000
C 	C 	0.74138 0.78217 0.62138 -0.06500
H 	H 	0.73540 0.80410 0.62130 0.09100
C 	C 	0.83347 0.87440 0.51667 -0.02300
H 	H 	0.82000 0.88890 0.52800 0.05700
O 	O 	0.79270 0.82690 0.61769 0.85800
O 	O 	0.82730 0.86390 0.58300 0.06300
O 	O 	0.71200 0.32920 0.37077 -1.10000
O 	O 	0.66600 0.37260 0.41680 -0.46800
C 	C 	0.75862 0.28217 0.37862 -0.06500
H 	H 	0.76460 0.30410 0.37870 0.09100
C 	C 	0.66653 0.37440 0.48333 -0.02300
H 	H 	0.68000 0.38890 0.47200 0.05600
O 	O 	0.70730 0.32690 0.38231 0.86000
O 	O 	0.67270 0.36390 0.41700 0.06100
O 	O 	0.71200 0.82920 0.87077 -1.09500
O 	O 	0.66600 0.87260 0.91680 -0.47000
C 	C 	0.75862 0.78217 0.87862 -0.06500
H 	H 	0.76460 0.80410 0.87870 0.09100
C 	C 	0.66653 0.87440 0.98333 0.01700
H 	H 	0.68000 0.88890 0.97200 0.04500
O 	O 	0.70730 0.82690 0.88231 0.85500
O 	O 	0.67270 0.86390 0.91700 0.06200
O 	O 	0.21200 0.32920 0.87077 -1.09600
O 	O 	0.16600 0.37260 0.91680 -0.46900
C 	C 	0.25862 0.28217 0.87862 -0.06500
H 	H 	0.26460 0.30410 0.87870 0.09100
C 	C 	0.16653 0.37440 0.98333 0.01700
H 	H 	0.18000 0.38890 0.97200 0.04500
O 	O 	0.20730 0.32690 0.88231 0.85600
O 	O 	0.17270 0.36390 0.91700 0.06000
O 	O 	0.21200 0.82920 0.37077 -1.09900
O 	O 	0.16600 0.87260 0.41680 -0.46800
C 	C 	0.25862 0.78217 0.37862 -0.06500
H 	H 	0.26460 0.80410 0.37870 0.09100
C 	C 	0.16653 0.87440 0.48333 -0.02300
H 	H 	0.18000 0.88890 0.47200 0.05700
O 	O 	0.20730 0.82690 0.38231 0.85900
O 	O 	0.17270 0.86390 0.41700 0.06200
O 	O 	0.67080 0.37077 0.28800 -1.10000
O 	O 	0.62740 0.41680 0.33400 -0.46800
C 	C 	0.71783 0.37862 0.24138 -0.06500
H 	H 	0.69590 0.37870 0.23540 0.09100
C 	C 	0.62560 0.48333 0.33347 -0.02300
H 	H 	0.61110 0.47200 0.32000 0.05600
O 	O 	0.67310 0.38231 0.29270 0.86000
O 	O 	0.63610 0.41700 0.32730 0.06100
O 	O 	0.67080 0.87077 0.78800 -1.09600
O 	O 	0.62740 0.91680 0.83400 -0.47000
C 	C 	0.71783 0.87862 0.74138 -0.06500
H 	H 	0.69590 0.87870 0.73540 0.09100
C 	C 	0.62560 0.98333 0.83347 0.01700
H 	H 	0.61110 0.97200 0.82000 0.04500
O 	O 	0.67310 0.88231 0.79270 0.85600
O 	O 	0.63610 0.91700 0.82730 0.06200
O 	O 	0.17080 0.37077 0.78800 -1.10000
O 	O 	0.12740 0.41680 0.83400 -0.46800
C 	C 	0.21783 0.37862 0.74138 -0.06500
H 	H 	0.19590 0.37870 0.73540 0.09100
C 	C 	0.12560 0.48333 0.83347 -0.02400
H 	H 	0.11110 0.47200 0.82000 0.05600
O 	O 	0.17310 0.38231 0.79270 0.86100
O 	O 	0.13610 0.41700 0.82730 0.06100
O 	O 	0.17080 0.87077 0.28800 -1.09700
O 	O 	0.12740 0.91680 0.33400 -0.46900
C 	C 	0.21783 0.87862 0.24138 -0.06500
H 	H 	0.19590 0.87870 0.23540 0.09100
C 	C 	0.12560 0.98333 0.33347 0.01700
H 	H 	0.11110 0.97200 0.32000 0.04500
O 	O 	0.17310 0.88231 0.29270 0.85700
O 	O 	0.13610 0.91700 0.32730 0.06000
O 	O 	0.67080 0.62923 0.71200 -1.09900
O 	O 	0.62740 0.58320 0.66600 -0.46800
C 	C 	0.71783 0.62138 0.75862 -0.06500
H 	H 	0.69590 0.62130 0.76460 0.09100
C 	C 	0.62560 0.51667 0.66653 -0.02300
H 	H 	0.61110 0.52800 0.68000 0.05600
O 	O 	0.67310 0.61769 0.70730 0.85900
O 	O 	0.63610 0.58300 0.67270 0.06100
O 	O 	0.67080 0.12923 0.21200 -1.10300
O 	O 	0.62740 0.08320 0.16600 -0.46600
C 	C 	0.71783 0.12138 0.25862 -0.06600
H 	H 	0.69590 0.12130 0.26460 0.09100
C 	C 	0.62560 0.01667 0.16653 -0.06400
H 	H 	0.61110 0.02800 0.18000 0.06800
O 	O 	0.67310 0.11769 0.20730 0.86300
O 	O 	0.63610 0.08300 0.17270 0.06100
O 	O 	0.17080 0.62923 0.21200 -1.10000
O 	O 	0.12740 0.58320 0.16600 -0.46700
C 	C 	0.21783 0.62138 0.25862 -0.06500
H 	H 	0.19590 0.62130 0.26460 0.09100
C 	C 	0.12560 0.51667 0.16653 -0.02400
H 	H 	0.11110 0.52800 0.18000 0.05600
O 	O 	0.17310 0.61769 0.20730 0.86100
O 	O 	0.13610 0.58300 0.17270 0.05900
O 	O 	0.17080 0.12923 0.71200 -1.10300
O 	O 	0.12740 0.08320 0.66600 -0.46600
C 	C 	0.21783 0.12138 0.75862 -0.06600
H 	H 	0.19590 0.12130 0.76460 0.09100
C 	C 	0.12560 0.01667 0.66653 -0.06400
H 	H 	0.11110 0.02800 0.68000 0.06700
O 	O 	0.17310 0.11769 0.70730 0.86400
O 	O 	0.13610 0.08300 0.67270 0.06000
O 	O 	0.32920 0.37077 0.71200 -1.10000
O 	O 	0.37260 0.41680 0.66600 -0.46800
C 	C 	0.28217 0.37862 0.75862 -0.06500
H 	H 	0.30410 0.37870 0.76460 0.09100
C 	C 	0.37440 0.48333 0.66653 -0.02300
H 	H 	0.38890 0.47200 0.68000 0.05600
O 	O 	0.32690 0.38231 0.70730 0.86000
O 	O 	0.36390 0.41700 0.67270 0.06100
O 	O 	0.32920 0.87077 0.21200 -1.09600
O 	O 	0.37260 0.91680 0.16600 -0.46900
C 	C 	0.28217 0.87862 0.25862 -0.06500
H 	H 	0.30410 0.87870 0.26460 0.09100
C 	C 	0.37440 0.98333 0.16653 0.01700
H 	H 	0.38890 0.97200 0.18000 0.04500
O 	O 	0.32690 0.88231 0.20730 0.85600
O 	O 	0.36390 0.91700 0.17270 0.06000
O 	O 	0.82920 0.37077 0.21200 -1.09900
O 	O 	0.87260 0.41680 0.16600 -0.46800
C 	C 	0.78217 0.37862 0.25862 -0.06500
H 	H 	0.80410 0.37870 0.26460 0.09100
C 	C 	0.87440 0.48333 0.16653 -0.02300
H 	H 	0.88890 0.47200 0.18000 0.05700
O 	O 	0.82690 0.38231 0.20730 0.85900
O 	O 	0.86390 0.41700 0.17270 0.06200
O 	O 	0.82920 0.87077 0.71200 -1.09500
O 	O 	0.87260 0.91680 0.66600 -0.47000
C 	C 	0.78217 0.87862 0.75862 -0.06500
H 	H 	0.80410 0.87870 0.76460 0.09100
C 	C 	0.87440 0.98333 0.66653 0.01700
H 	H 	0.88890 0.97200 0.68000 0.04500
O 	O 	0.82690 0.88231 0.70730 0.85500
O 	O 	0.86390 0.91700 0.67270 0.06200
O 	O 	0.32920 0.62923 0.28800 -1.10000
O 	O 	0.37260 0.58320 0.33400 -0.46800
C 	C 	0.28217 0.62138 0.24138 -0.06500
H 	H 	0.30410 0.62130 0.23540 0.09100
C 	C 	0.37440 0.51667 0.33347 -0.02300
H 	H 	0.38890 0.52800 0.32000 0.05600
O 	O 	0.32690 0.61769 0.29270 0.86000
O 	O 	0.36390 0.58300 0.32730 0.06100
O 	O 	0.32920 0.12923 0.78800 -1.10300
O 	O 	0.37260 0.08320 0.83400 -0.46700
C 	C 	0.28217 0.12138 0.74138 -0.06600
H 	H 	0.30410 0.12130 0.73540 0.09000
C 	C 	0.37440 0.01667 0.83347 -0.06300
H 	H 	0.38890 0.02800 0.82000 0.06800
O 	O 	0.32690 0.11769 0.79270 0.86300
O 	O 	0.36390 0.08300 0.82730 0.06200
O 	O 	0.82920 0.62923 0.78800 -1.09900
O 	O 	0.87260 0.58320 0.83400 -0.47000
C 	C 	0.78217 0.62138 0.74138 -0.06500
H 	H 	0.80410 0.62130 0.73540 0.09100
C 	C 	0.87440 0.51667 0.83347 -0.02300
H 	H 	0.88890 0.52800 0.82000 0.05700
O 	O 	0.82690 0.61769 0.79270 0.85800
O 	O 	0.86390 0.58300 0.82730 0.06300
O 	O 	0.82920 0.12923 0.28800 -1.10200
O 	O 	0.87260 0.08320 0.33400 -0.46800
C 	C 	0.78217 0.12138 0.24138 -0.06600
H 	H 	0.80410 0.12130 0.23540 0.09000
C 	C 	0.87440 0.01667 0.33347 -0.06300
H 	H 	0.88890 0.02800 0.32000 0.06800
O 	O 	0.82690 0.11769 0.29270 0.86200
O 	O 	0.86390 0.08300 0.32730 0.06300
O 	O 	0.28800 0.62923 0.32920 -1.10000
O 	O 	0.33400 0.58320 0.37260 -0.46800
C 	C 	0.24138 0.62138 0.28217 -0.06500
H 	H 	0.23540 0.62130 0.30410 0.09100
C 	C 	0.33347 0.51667 0.37440 -0.02300
H 	H 	0.32000 0.52800 0.38890 0.05600
O 	O 	0.29270 0.61769 0.32690 0.86000
O 	O 	0.32730 0.58300 0.36390 0.06100
O 	O 	0.28800 0.12923 0.82920 -1.10200
O 	O 	0.33400 0.08320 0.87260 -0.46800
C 	C 	0.24138 0.12138 0.78217 -0.06600
H 	H 	0.23540 0.12130 0.80410 0.09000
C 	C 	0.33347 0.01667 0.87440 -0.06300
H 	H 	0.32000 0.02800 0.88890 0.06800
O 	O 	0.29270 0.11769 0.82690 0.86200
O 	O 	0.32730 0.08300 0.86390 0.06300
O 	O 	0.78800 0.62923 0.82920 -1.09900
O 	O 	0.83400 0.58320 0.87260 -0.47000
C 	C 	0.74138 0.62138 0.78217 -0.06500
H 	H 	0.73540 0.62130 0.80410 0.09100
C 	C 	0.83347 0.51667 0.87440 -0.02300
H 	H 	0.82000 0.52800 0.88890 0.05700
O 	O 	0.79270 0.61769 0.82690 0.85800
O 	O 	0.82730 0.58300 0.86390 0.06300
O 	O 	0.78800 0.12923 0.32920 -1.10300
O 	O 	0.83400 0.08320 0.37260 -0.46700
C 	C 	0.74138 0.12138 0.28217 -0.06600
H 	H 	0.73540 0.12130 0.30410 0.09000
C 	C 	0.83347 0.01667 0.37440 -0.06300
H 	H 	0.82000 0.02800 0.38890 0.06800
O 	O 	0.79270 0.11769 0.32690 0.86300
O 	O 	0.82730 0.08300 0.36390 0.06200
O 	O 	0.71200 0.37077 0.32920 -1.10000
O 	O 	0.66600 0.41680 0.37260 -0.46800
C 	C 	0.75862 0.37862 0.28217 -0.06500
H 	H 	0.76460 0.37870 0.30410 0.09100
C 	C 	0.66653 0.48333 0.37440 -0.02300
H 	H 	0.68000 0.47200 0.38890 0.05600
O 	O 	0.70730 0.38231 0.32690 0.86000
O 	O 	0.67270 0.41700 0.36390 0.06100
O 	O 	0.71200 0.87077 0.82920 -1.09500
O 	O 	0.66600 0.91680 0.87260 -0.47000
C 	C 	0.75862 0.87862 0.78217 -0.06500
H 	H 	0.76460 0.87870 0.80410 0.09100
C 	C 	0.66653 0.98333 0.87440 0.01700
H 	H 	0.68000 0.97200 0.88890 0.04500
O 	O 	0.70730 0.88231 0.82690 0.85500
O 	O 	0.67270 0.91700 0.86390 0.06200
O 	O 	0.21200 0.37077 0.82920 -1.09900
O 	O 	0.16600 0.41680 0.87260 -0.46800
C 	C 	0.25862 0.37862 0.78217 -0.06500
H 	H 	0.26460 0.37870 0.80410 0.09100
C 	C 	0.16653 0.48333 0.87440 -0.02300
H 	H 	0.18000 0.47200 0.88890 0.05700
O 	O 	0.20730 0.38231 0.82690 0.85900
O 	O 	0.17270 0.41700 0.86390 0.06200
O 	O 	0.21200 0.87077 0.32920 -1.09600
O 	O 	0.16600 0.91680 0.37260 -0.46900
C 	C 	0.25862 0.87862 0.28217 -0.06500
H 	H 	0.26460 0.87870 0.30410 0.09100
C 	C 	0.16653 0.98333 0.37440 0.01700
H 	H 	0.18000 0.97200 0.38890 0.04500
O 	O 	0.20730 0.88231 0.32690 0.85600
O 	O 	0.17270 0.91700 0.36390 0.06000
O 	O 	0.71200 0.62923 0.67080 -1.09900
O 	O 	0.66600 0.58320 0.62740 -0.46800
C 	C 	0.75862 0.62138 0.71783 -0.06500
H 	H 	0.76460 0.62130 0.69590 0.09100
C 	C 	0.66653 0.51667 0.62560 -0.02300
H 	H 	0.68000 0.52800 0.61110 0.05600
O 	O 	0.70730 0.61769 0.67310 0.85900
O 	O 	0.67270 0.58300 0.63610 0.06100
O 	O 	0.71200 0.12923 0.17080 -1.10300
O 	O 	0.66600 0.08320 0.12740 -0.46600
C 	C 	0.75862 0.12138 0.21783 -0.06600
H 	H 	0.76460 0.12130 0.19590 0.09100
C 	C 	0.66653 0.01667 0.12560 -0.06400
H 	H 	0.68000 0.02800 0.11110 0.06700
O 	O 	0.70730 0.11769 0.17310 0.86400
O 	O 	0.67270 0.08300 0.13610 0.06000
O 	O 	0.21200 0.62923 0.17080 -1.10000
O 	O 	0.16600 0.58320 0.12740 -0.46700
C 	C 	0.25862 0.62138 0.21783 -0.06500
H 	H 	0.26460 0.62130 0.19590 0.09100
C 	C 	0.16653 0.51667 0.12560 -0.02400
H 	H 	0.18000 0.52800 0.11110 0.05600
O 	O 	0.20730 0.61769 0.17310 0.86100
O 	O 	0.17270 0.58300 0.13610 0.05900
O 	O 	0.21200 0.12923 0.67080 -1.10300
O 	O 	0.16600 0.08320 0.62740 -0.46600
C 	C 	0.25862 0.12138 0.71783 -0.06600
H 	H 	0.26460 0.12130 0.69590 0.09100
C 	C 	0.16653 0.01667 0.62560 -0.06400
H 	H 	0.18000 0.02800 0.61110 0.06800
O 	O 	0.20730 0.11769 0.67310 0.86300
O 	O 	0.17270 0.08300 0.63610 0.06100
O 	O 	0.28800 0.37077 0.67080 -1.10000
O 	O 	0.33400 0.41680 0.62740 -0.46800
C 	C 	0.24138 0.37862 0.71783 -0.06500
H 	H 	0.23540 0.37870 0.69590 0.09100
C 	C 	0.33347 0.48333 0.62560 -0.02300
H 	H 	0.32000 0.47200 0.61110 0.05600
O 	O 	0.29270 0.38231 0.67310 0.86000
O 	O 	0.32730 0.41700 0.63610 0.06100
O 	O 	0.28800 0.87077 0.17080 -1.09700
O 	O 	0.33400 0.91680 0.12740 -0.46900
C 	C 	0.24138 0.87862 0.21783 -0.06500
H 	H 	0.23540 0.87870 0.19590 0.09100
C 	C 	0.33347 0.98333 0.12560 0.01700
H 	H 	0.32000 0.97200 0.11110 0.04500
O 	O 	0.29270 0.88231 0.17310 0.85700
O 	O 	0.32730 0.91700 0.13610 0.06000
O 	O 	0.78800 0.37077 0.17080 -1.10000
O 	O 	0.83400 0.41680 0.12740 -0.46800
C 	C 	0.74138 0.37862 0.21783 -0.06500
H 	H 	0.73540 0.37870 0.19590 0.09100
C 	C 	0.83347 0.48333 0.12560 -0.02400
H 	H 	0.82000 0.47200 0.11110 0.05600
O 	O 	0.79270 0.38231 0.17310 0.86100
O 	O 	0.82730 0.41700 0.13610 0.06100
O 	O 	0.78800 0.87077 0.67080 -1.09600
O 	O 	0.83400 0.91680 0.62740 -0.47000
C 	C 	0.74138 0.87862 0.71783 -0.06500
H 	H 	0.73540 0.87870 0.69590 0.09100
C 	C 	0.83347 0.98333 0.62560 0.01700
H 	H 	0.82000 0.97200 0.61110 0.04500
O 	O 	0.79270 0.88231 0.67310 0.85600
O 	O 	0.82730 0.91700 0.63610 0.06200
O 	O 	0.32920 0.28800 0.62923 -1.10000
O 	O 	0.37260 0.33400 0.58320 -0.46800
C 	C 	0.28217 0.24138 0.62138 -0.06500
H 	H 	0.30410 0.23540 0.62130 0.09100
C 	C 	0.37440 0.33347 0.51667 -0.02300
H 	H 	0.38890 0.32000 0.52800 0.05600
O 	O 	0.32690 0.29270 0.61769 0.86000
O 	O 	0.36390 0.32730 0.58300 0.06100
O 	O 	0.32920 0.78800 0.12923 -1.10300
O 	O 	0.37260 0.83400 0.08320 -0.46700
C 	C 	0.28217 0.74138 0.12138 -0.06600
H 	H 	0.30410 0.73540 0.12130 0.09000
C 	C 	0.37440 0.83347 0.01667 -0.06300
H 	H 	0.38890 0.82000 0.02800 0.06800
O 	O 	0.32690 0.79270 0.11769 0.86300
O 	O 	0.36390 0.82730 0.08300 0.06200
O 	O 	0.82920 0.28800 0.12923 -1.10200
O 	O 	0.87260 0.33400 0.08320 -0.46800
C 	C 	0.78217 0.24138 0.12138 -0.06600
H 	H 	0.80410 0.23540 0.12130 0.09000
C 	C 	0.87440 0.33347 0.01667 -0.06300
H 	H 	0.88890 0.32000 0.02800 0.06800
O 	O 	0.82690 0.29270 0.11769 0.86200
O 	O 	0.86390 0.32730 0.08300 0.06300
O 	O 	0.82920 0.78800 0.62923 -1.09900
O 	O 	0.87260 0.83400 0.58320 -0.47000
C 	C 	0.78217 0.74138 0.62138 -0.06500
H 	H 	0.80410 0.73540 0.62130 0.09100
C 	C 	0.87440 0.83347 0.51667 -0.02300
H 	H 	0.88890 0.82000 0.52800 0.05700
O 	O 	0.82690 0.79270 0.61769 0.85800
O 	O 	0.86390 0.82730 0.58300 0.06300
O 	O 	0.32920 0.71200 0.37077 -1.10000
O 	O 	0.37260 0.66600 0.41680 -0.46800
C 	C 	0.28217 0.75862 0.37862 -0.06500
H 	H 	0.30410 0.76460 0.37870 0.09100
C 	C 	0.37440 0.66653 0.48333 -0.02300
H 	H 	0.38890 0.68000 0.47200 0.05600
O 	O 	0.32690 0.70730 0.38231 0.86000
O 	O 	0.36390 0.67270 0.41700 0.06100
O 	O 	0.32920 0.21200 0.87077 -1.09600
O 	O 	0.37260 0.16600 0.91680 -0.46900
C 	C 	0.28217 0.25862 0.87862 -0.06500
H 	H 	0.30410 0.26460 0.87870 0.09100
C 	C 	0.37440 0.16653 0.98333 0.01700
H 	H 	0.38890 0.18000 0.97200 0.04500
O 	O 	0.32690 0.20730 0.88231 0.85600
O 	O 	0.36390 0.17270 0.91700 0.06000
O 	O 	0.82920 0.71200 0.87077 -1.09500
O 	O 	0.87260 0.66600 0.91680 -0.47000
C 	C 	0.78217 0.75862 0.87862 -0.06500
H 	H 	0.80410 0.76460 0.87870 0.09100
C 	C 	0.87440 0.66653 0.98333 0.01700
H 	H 	0.88890 0.68000 0.97200 0.04500
O 	O 	0.82690 0.70730 0.88231 0.85500
O 	O 	0.86390 0.67270 0.91700 0.06200
O 	O 	0.82920 0.21200 0.37077 -1.09900
O 	O 	0.87260 0.16600 0.41680 -0.46800
C 	C 	0.78217 0.25862 0.37862 -0.06500
H 	H 	0.80410 0.26460 0.37870 0.09100
C 	C 	0.87440 0.16653 0.48333 -0.02300
H 	H 	0.88890 0.18000 0.47200 0.05700
O 	O 	0.82690 0.20730 0.38231 0.85900
O 	O 	0.86390 0.17270 0.41700 0.06200
O 	O 	0.67080 0.71200 0.62923 -1.09900
O 	O 	0.62740 0.66600 0.58320 -0.46800
C 	C 	0.71783 0.75862 0.62138 -0.06500
H 	H 	0.69590 0.76460 0.62130 0.09100
C 	C 	0.62560 0.66653 0.51667 -0.02300
H 	H 	0.61110 0.68000 0.52800 0.05600
O 	O 	0.67310 0.70730 0.61769 0.85900
O 	O 	0.63610 0.67270 0.58300 0.06100
O 	O 	0.67080 0.21200 0.12923 -1.10300
O 	O 	0.62740 0.16600 0.08320 -0.46600
C 	C 	0.71783 0.25862 0.12138 -0.06600
H 	H 	0.69590 0.26460 0.12130 0.09100
C 	C 	0.62560 0.16653 0.01667 -0.06400
H 	H 	0.61110 0.18000 0.02800 0.06800
O 	O 	0.67310 0.20730 0.11769 0.86300
O 	O 	0.63610 0.17270 0.08300 0.06100
O 	O 	0.17080 0.71200 0.12923 -1.10300
O 	O 	0.12740 0.66600 0.08320 -0.46600
C 	C 	0.21783 0.75862 0.12138 -0.06600
H 	H 	0.19590 0.76460 0.12130 0.09100
C 	C 	0.12560 0.66653 0.01667 -0.06400
H 	H 	0.11110 0.68000 0.02800 0.06700
O 	O 	0.17310 0.70730 0.11769 0.86400
O 	O 	0.13610 0.67270 0.08300 0.06000
O 	O 	0.17080 0.21200 0.62923 -1.10000
O 	O 	0.12740 0.16600 0.58320 -0.46700
C 	C 	0.21783 0.25862 0.62138 -0.06500
H 	H 	0.19590 0.26460 0.62130 0.09100
C 	C 	0.12560 0.16653 0.51667 -0.02400
H 	H 	0.11110 0.18000 0.52800 0.05600
O 	O 	0.17310 0.20730 0.61769 0.86100
O 	O 	0.13610 0.17270 0.58300 0.05900
O 	O 	0.67080 0.28800 0.37077 -1.10000
O 	O 	0.62740 0.33400 0.41680 -0.46800
C 	C 	0.71783 0.24138 0.37862 -0.06500
H 	H 	0.69590 0.23540 0.37870 0.09100
C 	C 	0.62560 0.33347 0.48333 -0.02300
H 	H 	0.61110 0.32000 0.47200 0.05600
O 	O 	0.67310 0.29270 0.38231 0.86000
O 	O 	0.63610 0.32730 0.41700 0.06100
O 	O 	0.67080 0.78800 0.87077 -1.09600
O 	O 	0.62740 0.83400 0.91680 -0.47000
C 	C 	0.71783 0.74138 0.87862 -0.06500
H 	H 	0.69590 0.73540 0.87870 0.09100
C 	C 	0.62560 0.83347 0.98333 0.01700
H 	H 	0.61110 0.82000 0.97200 0.04500
O 	O 	0.67310 0.79270 0.88231 0.85600
O 	O 	0.63610 0.82730 0.91700 0.06200
O 	O 	0.17080 0.28800 0.87077 -1.09700
O 	O 	0.12740 0.33400 0.91680 -0.46900
C 	C 	0.21783 0.24138 0.87862 -0.06500
H 	H 	0.19590 0.23540 0.87870 0.09100
C 	C 	0.12560 0.33347 0.98333 0.01700
H 	H 	0.11110 0.32000 0.97200 0.04500
O 	O 	0.17310 0.29270 0.88231 0.85700
O 	O 	0.13610 0.32730 0.91700 0.06000
O 	O 	0.17080 0.78800 0.37077 -1.10000
O 	O 	0.12740 0.83400 0.41680 -0.46800
C 	C 	0.21783 0.74138 0.37862 -0.06500
H 	H 	0.19590 0.73540 0.37870 0.09100
C 	C 	0.12560 0.83347 0.48333 -0.02400
H 	H 	0.11110 0.82000 0.47200 0.05600
O 	O 	0.17310 0.79270 0.38231 0.86100
O 	O 	0.13610 0.82730 0.41700 0.06100
O 	O 	0.62923 0.32920 0.28800 -1.10000
O 	O 	0.58320 0.37260 0.33400 -0.46800
C 	C 	0.62138 0.28217 0.24138 -0.06500
H 	H 	0.62130 0.30410 0.23540 0.09100
C 	C 	0.51667 0.37440 0.33347 -0.02300
H 	H 	0.52800 0.38890 0.32000 0.05600
O 	O 	0.61769 0.32690 0.29270 0.86000
O 	O 	0.58300 0.36390 0.32730 0.06100
O 	O 	0.62923 0.82920 0.78800 -1.09900
O 	O 	0.58320 0.87260 0.83400 -0.47000
C 	C 	0.62138 0.78217 0.74138 -0.06500
H 	H 	0.62130 0.80410 0.73540 0.09100
C 	C 	0.51667 0.87440 0.83347 -0.02300
H 	H 	0.52800 0.88890 0.82000 0.05700
O 	O 	0.61769 0.82690 0.79270 0.85800
O 	O 	0.58300 0.86390 0.82730 0.06300
O 	O 	0.12923 0.32920 0.78800 -1.10300
O 	O 	0.08320 0.37260 0.83400 -0.46700
C 	C 	0.12138 0.28217 0.74138 -0.06600
H 	H 	0.12130 0.30410 0.73540 0.09000
C 	C 	0.01667 0.37440 0.83347 -0.06300
H 	H 	0.02800 0.38890 0.82000 0.06800
O 	O 	0.11769 0.32690 0.79270 0.86300
O 	O 	0.08300 0.36390 0.82730 0.06200
O 	O 	0.12923 0.82920 0.28800 -1.10200
O 	O 	0.08320 0.87260 0.33400 -0.46800
C 	C 	0.12138 0.78217 0.24138 -0.06600
H 	H 	0.12130 0.80410 0.23540 0.09000
C 	C 	0.01667 0.87440 0.33347 -0.06300
H 	H 	0.02800 0.88890 0.32000 0.06800
O 	O 	0.11769 0.82690 0.29270 0.86200
O 	O 	0.08300 0.86390 0.32730 0.06300
O 	O 	0.37077 0.32920 0.71200 -1.10000
O 	O 	0.41680 0.37260 0.66600 -0.46800
C 	C 	0.37862 0.28217 0.75862 -0.06500
H 	H 	0.37870 0.30410 0.76460 0.09100
C 	C 	0.48333 0.37440 0.66653 -0.02300
H 	H 	0.47200 0.38890 0.68000 0.05600
O 	O 	0.38231 0.32690 0.70730 0.86000
O 	O 	0.41700 0.36390 0.67270 0.06100
O 	O 	0.37077 0.82920 0.21200 -1.09900
O 	O 	0.41680 0.87260 0.16600 -0.46800
C 	C 	0.37862 0.78217 0.25862 -0.06500
H 	H 	0.37870 0.80410 0.26460 0.09100
C 	C 	0.48333 0.87440 0.16653 -0.02300
H 	H 	0.47200 0.88890 0.18000 0.05700
O 	O 	0.38231 0.82690 0.20730 0.85900
O 	O 	0.41700 0.86390 0.17270 0.06200
O 	O 	0.87077 0.32920 0.21200 -1.09600
O 	O 	0.91680 0.37260 0.16600 -0.46900
C 	C 	0.87862 0.28217 0.25862 -0.06500
H 	H 	0.87870 0.30410 0.26460 0.09100
C 	C 	0.98333 0.37440 0.16653 0.01700
H 	H 	0.97200 0.38890 0.18000 0.04500
O 	O 	0.88231 0.32690 0.20730 0.85600
O 	O 	0.91700 0.36390 0.17270 0.06000
O 	O 	0.87077 0.82920 0.71200 -1.09500
O 	O 	0.91680 0.87260 0.66600 -0.47000
C 	C 	0.87862 0.78217 0.75862 -0.06500
H 	H 	0.87870 0.80410 0.76460 0.09100
C 	C 	0.98333 0.87440 0.66653 0.01700
H 	H 	0.97200 0.88890 0.68000 0.04500
O 	O 	0.88231 0.82690 0.70730 0.85500
O 	O 	0.91700 0.86390 0.67270 0.06200
O 	O 	0.62923 0.67080 0.71200 -1.09900
O 	O 	0.58320 0.62740 0.66600 -0.46800
C 	C 	0.62138 0.71783 0.75862 -0.06500
H 	H 	0.62130 0.69590 0.76460 0.09100
C 	C 	0.51667 0.62560 0.66653 -0.02300
H 	H 	0.52800 0.61110 0.68000 0.05600
O 	O 	0.61769 0.67310 0.70730 0.85900
O 	O 	0.58300 0.63610 0.67270 0.06100
O 	O 	0.62923 0.17080 0.21200 -1.10000
O 	O 	0.58320 0.12740 0.16600 -0.46700
C 	C 	0.62138 0.21783 0.25862 -0.06500
H 	H 	0.62130 0.19590 0.26460 0.09100
C 	C 	0.51667 0.12560 0.16653 -0.02400
H 	H 	0.52800 0.11110 0.18000 0.05600
O 	O 	0.61769 0.17310 0.20730 0.86100
O 	O 	0.58300 0.13610 0.17270 0.05900
O 	O 	0.12923 0.67080 0.21200 -1.10300
O 	O 	0.08320 0.62740 0.16600 -0.46600
C 	C 	0.12138 0.71783 0.25862 -0.06600
H 	H 	0.12130 0.69590 0.26460 0.09100
C 	C 	0.01667 0.62560 0.16653 -0.06400
H 	H 	0.02800 0.61110 0.18000 0.06800
O 	O 	0.11769 0.67310 0.20730 0.86300
O 	O 	0.08300 0.63610 0.17270 0.06100
O 	O 	0.12923 0.17080 0.71200 -1.10300
O 	O 	0.08320 0.12740 0.66600 -0.46600
C 	C 	0.12138 0.21783 0.75862 -0.06600
H 	H 	0.12130 0.19590 0.76460 0.09100
C 	C 	0.01667 0.12560 0.66653 -0.06400
H 	H 	0.02800 0.11110 0.68000 0.06700
O 	O 	0.11769 0.17310 0.70730 0.86400
O 	O 	0.08300 0.13610 0.67270 0.06000
O 	O 	0.37077 0.67080 0.28800 -1.10000
O 	O 	0.41680 0.62740 0.33400 -0.46800
C 	C 	0.37862 0.71783 0.24138 -0.06500
H 	H 	0.37870 0.69590 0.23540 0.09100
C 	C 	0.48333 0.62560 0.33347 -0.02300
H 	H 	0.47200 0.61110 0.32000 0.05600
O 	O 	0.38231 0.67310 0.29270 0.86000
O 	O 	0.41700 0.63610 0.32730 0.06100
O 	O 	0.37077 0.17080 0.78800 -1.10000
O 	O 	0.41680 0.12740 0.83400 -0.46800
C 	C 	0.37862 0.21783 0.74138 -0.06500
H 	H 	0.37870 0.19590 0.73540 0.09100
C 	C 	0.48333 0.12560 0.83347 -0.02400
H 	H 	0.47200 0.11110 0.82000 0.05600
O 	O 	0.38231 0.17310 0.79270 0.86100
O 	O 	0.41700 0.13610 0.82730 0.06100
O 	O 	0.87077 0.67080 0.78800 -1.09600
O 	O 	0.91680 0.62740 0.83400 -0.47000
C 	C 	0.87862 0.71783 0.74138 -0.06500
H 	H 	0.87870 0.69590 0.73540 0.09100
C 	C 	0.98333 0.62560 0.83347 0.01700
H 	H 	0.97200 0.61110 0.82000 0.04500
O 	O 	0.88231 0.67310 0.79270 0.85600
O 	O 	0.91700 0.63610 0.82730 0.06200
O 	O 	0.87077 0.17080 0.28800 -1.09700
O 	O 	0.91680 0.12740 0.33400 -0.46900
C 	C 	0.87862 0.21783 0.24138 -0.06500
H 	H 	0.87870 0.19590 0.23540 0.09100
C 	C 	0.98333 0.12560 0.33347 0.01700
H 	H 	0.97200 0.11110 0.32000 0.04500
O 	O 	0.88231 0.17310 0.29270 0.85700
O 	O 	0.91700 0.13610 0.32730 0.06000
O 	O 	0.62923 0.28800 0.67080 -1.09900
O 	O 	0.58320 0.33400 0.62740 -0.46800
C 	C 	0.62138 0.24138 0.71783 -0.06500
H 	H 	0.62130 0.23540 0.69590 0.09100
C 	C 	0.51667 0.33347 0.62560 -0.02300
H 	H 	0.52800 0.32000 0.61110 0.05600
O 	O 	0.61769 0.29270 0.67310 0.85900
O 	O 	0.58300 0.32730 0.63610 0.06100
O 	O 	0.62923 0.78800 0.17080 -1.10000
O 	O 	0.58320 0.83400 0.12740 -0.46800
C 	C 	0.62138 0.74138 0.21783 -0.06500
H 	H 	0.62130 0.73540 0.19590 0.09100
C 	C 	0.51667 0.83347 0.12560 -0.02300
H 	H 	0.52800 0.82000 0.11110 0.05600
O 	O 	0.61769 0.79270 0.17310 0.86000
O 	O 	0.58300 0.82730 0.13610 0.06100
O 	O 	0.12923 0.28800 0.17080 -1.10400
O 	O 	0.08320 0.33400 0.12740 -0.46600
C 	C 	0.12138 0.24138 0.21783 -0.06600
H 	H 	0.12130 0.23540 0.19590 0.09100
C 	C 	0.01667 0.33347 0.12560 -0.06400
H 	H 	0.02800 0.32000 0.11110 0.06700
O 	O 	0.11769 0.29270 0.17310 0.86400
O 	O 	0.08300 0.32730 0.13610 0.06100
O 	O 	0.12923 0.78800 0.67080 -1.10300
O 	O 	0.08320 0.83400 0.62740 -0.46700
C 	C 	0.12138 0.74138 0.71783 -0.06600
H 	H 	0.12130 0.73540 0.69590 0.09000
C 	C 	0.01667 0.83347 0.62560 -0.06300
H 	H 	0.02800 0.82000 0.61110 0.06800
O 	O 	0.11769 0.79270 0.67310 0.86300
O 	O 	0.08300 0.82730 0.63610 0.06200
O 	O 	0.37077 0.71200 0.67080 -1.09900
O 	O 	0.41680 0.66600 0.62740 -0.46800
C 	C 	0.37862 0.75862 0.71783 -0.06500
H 	H 	0.37870 0.76460 0.69590 0.09100
C 	C 	0.48333 0.66653 0.62560 -0.02300
H 	H 	0.47200 0.68000 0.61110 0.05600
O 	O 	0.38231 0.70730 0.67310 0.85900
O 	O 	0.41700 0.67270 0.63610 0.06100
O 	O 	0.37077 0.21200 0.17080 -1.10100
O 	O 	0.41680 0.16600 0.12740 -0.46700
C 	C 	0.37862 0.25862 0.21783 -0.06500
H 	H 	0.37870 0.26460 0.19590 0.09100
C 	C 	0.48333 0.16653 0.12560 -0.02400
H 	H 	0.47200 0.18000 0.11110 0.05600
O 	O 	0.38231 0.20730 0.17310 0.86100
O 	O 	0.41700 0.17270 0.13610 0.06000
O 	O 	0.87077 0.71200 0.17080 -1.09700
O 	O 	0.91680 0.66600 0.12740 -0.46900
C 	C 	0.87862 0.75862 0.21783 -0.06500
H 	H 	0.87870 0.76460 0.19590 0.09100
C 	C 	0.98333 0.66653 0.12560 0.01700
H 	H 	0.97200 0.68000 0.11110 0.04500
O 	O 	0.88231 0.70730 0.17310 0.85700
O 	O 	0.91700 0.67270 0.13610 0.06000
O 	O 	0.87077 0.21200 0.67080 -1.09600
O 	O 	0.91680 0.16600 0.62740 -0.46900
C 	C 	0.87862 0.25862 0.71783 -0.06500
H 	H 	0.87870 0.26460 0.69590 0.09100
C 	C 	0.98333 0.16653 0.62560 0.01700
H 	H 	0.97200 0.18000 0.61110 0.04500
O 	O 	0.88231 0.20730 0.67310 0.85600
O 	O 	0.91700 0.17270 0.63610 0.06000
O 	O 	0.62923 0.71200 0.32920 -1.09900
O 	O 	0.58320 0.66600 0.37260 -0.46800
C 	C 	0.62138 0.75862 0.28217 -0.06500
H 	H 	0.62130 0.76460 0.30410 0.09100
C 	C 	0.51667 0.66653 0.37440 -0.02300
H 	H 	0.52800 0.68000 0.38890 0.05600
O 	O 	0.61769 0.70730 0.32690 0.85900
O 	O 	0.58300 0.67270 0.36390 0.06100
O 	O 	0.62923 0.21200 0.82920 -1.09900
O 	O 	0.58320 0.16600 0.87260 -0.46800
C 	C 	0.62138 0.25862 0.78217 -0.06500
H 	H 	0.62130 0.26460 0.80410 0.09100
C 	C 	0.51667 0.16653 0.87440 -0.02300
H 	H 	0.52800 0.18000 0.88890 0.05700
O 	O 	0.61769 0.20730 0.82690 0.85900
O 	O 	0.58300 0.17270 0.86390 0.06200
O 	O 	0.12923 0.71200 0.82920 -1.10200
O 	O 	0.08320 0.66600 0.87260 -0.46800
C 	C 	0.12138 0.75862 0.78217 -0.06600
H 	H 	0.12130 0.76460 0.80410 0.09000
C 	C 	0.01667 0.66653 0.87440 -0.06300
H 	H 	0.02800 0.68000 0.88890 0.06800
O 	O 	0.11769 0.70730 0.82690 0.86200
O 	O 	0.08300 0.67270 0.86390 0.06300
O 	O 	0.12923 0.21200 0.32920 -1.10300
O 	O 	0.08320 0.16600 0.37260 -0.46600
C 	C 	0.12138 0.25862 0.28217 -0.06600
H 	H 	0.12130 0.26460 0.30410 0.09100
C 	C 	0.01667 0.16653 0.37440 -0.06400
H 	H 	0.02800 0.18000 0.38890 0.06800
O 	O 	0.11769 0.20730 0.32690 0.86400
O 	O 	0.08300 0.17270 0.36390 0.06100
O 	O 	0.37077 0.28800 0.32920 -1.10000
O 	O 	0.41680 0.33400 0.37260 -0.46800
C 	C 	0.37862 0.24138 0.28217 -0.06500
H 	H 	0.37870 0.23540 0.30410 0.09100
C 	C 	0.48333 0.33347 0.37440 -0.02300
H 	H 	0.47200 0.32000 0.38890 0.05600
O 	O 	0.38231 0.29270 0.32690 0.86000
O 	O 	0.41700 0.32730 0.36390 0.06100
O 	O 	0.37077 0.78800 0.82920 -1.09900
O 	O 	0.41680 0.83400 0.87260 -0.47000
C 	C 	0.37862 0.74138 0.78217 -0.06500
H 	H 	0.37870 0.73540 0.80410 0.09100
C 	C 	0.48333 0.83347 0.87440 -0.02300
H 	H 	0.47200 0.82000 0.88890 0.05700
O 	O 	0.38231 0.79270 0.82690 0.85900
O 	O 	0.41700 0.82730 0.86390 0.06300
O 	O 	0.87077 0.28800 0.82920 -1.09600
O 	O 	0.91680 0.33400 0.87260 -0.47000
C 	C 	0.87862 0.24138 0.78217 -0.06500
H 	H 	0.87870 0.23540 0.80410 0.09100
C 	C 	0.98333 0.33347 0.87440 0.01700
H 	H 	0.97200 0.32000 0.88890 0.04500
O 	O 	0.88231 0.29270 0.82690 0.85500
O 	O 	0.91700 0.32730 0.86390 0.06200
O 	O 	0.87077 0.78800 0.32920 -1.09600
O 	O 	0.91680 0.83400 0.37260 -0.47000
C 	C 	0.87862 0.74138 0.28217 -0.06500
H 	H 	0.87870 0.73540 0.30410 0.09100
C 	C 	0.98333 0.83347 0.37440 0.01700
H 	H 	0.97200 0.82000 0.38890 0.04500
O 	O 	0.88231 0.79270 0.32690 0.85600
O 	O 	0.91700 0.82730 0.36390 0.06200
O 	O 	0.28800 0.32920 0.37077 -1.10000
O 	O 	0.33400 0.37260 0.41680 -0.46800
C 	C 	0.24138 0.28217 0.37862 -0.06500
H 	H 	0.23540 0.30410 0.37870 0.09100
C 	C 	0.33347 0.37440 0.48333 -0.02300
H 	H 	0.32000 0.38890 0.47200 0.05600
O 	O 	0.29270 0.32690 0.38231 0.86000
O 	O 	0.32730 0.36390 0.41700 0.06100
O 	O 	0.28800 0.82920 0.87077 -1.09600
O 	O 	0.33400 0.87260 0.91680 -0.47000
C 	C 	0.24138 0.78217 0.87862 -0.06500
H 	H 	0.23540 0.80410 0.87870 0.09100
C 	C 	0.33347 0.87440 0.98333 0.01700
H 	H 	0.32000 0.88890 0.97200 0.04500
O 	O 	0.29270 0.82690 0.88231 0.85500
O 	O 	0.32730 0.86390 0.91700 0.06200
O 	O 	0.78800 0.32920 0.87077 -1.09600
O 	O 	0.83400 0.37260 0.91680 -0.47000
C 	C 	0.74138 0.28217 0.87862 -0.06500
H 	H 	0.73540 0.30410 0.87870 0.09100
C 	C 	0.83347 0.37440 0.98333 0.01700
H 	H 	0.82000 0.38890 0.97200 0.04500
O 	O 	0.79270 0.32690 0.88231 0.85600
O 	O 	0.82730 0.36390 0.91700 0.06200
O 	O 	0.78800 0.82920 0.37077 -1.09900
O 	O 	0.83400 0.87260 0.41680 -0.47000
C 	C 	0.74138 0.78217 0.37862 -0.06500
H 	H 	0.73540 0.80410 0.37870 0.09100
C 	C 	0.83347 0.87440 0.48333 -0.02300
H 	H 	0.82000 0.88890 0.47200 0.05700
O 	O 	0.79270 0.82690 0.38231 0.85900
O 	O 	0.82730 0.86390 0.41700 0.06300
O 	O 	0.71200 0.32920 0.62923 -1.09900
O 	O 	0.66600 0.37260 0.58320 -0.46800
C 	C 	0.75862 0.28217 0.62138 -0.06500
H 	H 	0.76460 0.30410 0.62130 0.09100
C 	C 	0.66653 0.37440 0.51667 -0.02300
H 	H 	0.68000 0.38890 0.52800 0.05600
O 	O 	0.70730 0.32690 0.61769 0.85900
O 	O 	0.67270 0.36390 0.58300 0.06100
O 	O 	0.71200 0.82920 0.12923 -1.10200
O 	O 	0.66600 0.87260 0.08320 -0.46800
C 	C 	0.75862 0.78217 0.12138 -0.06600
H 	H 	0.76460 0.80410 0.12130 0.09000
C 	C 	0.66653 0.87440 0.01667 -0.06300
H 	H 	0.68000 0.88890 0.02800 0.06800
O 	O 	0.70730 0.82690 0.11769 0.86200
O 	O 	0.67270 0.86390 0.08300 0.06300
O 	O 	0.21200 0.32920 0.12923 -1.10300
O 	O 	0.16600 0.37260 0.08320 -0.46600
C 	C 	0.25862 0.28217 0.12138 -0.06600
H 	H 	0.26460 0.30410 0.12130 0.09100
C 	C 	0.16653 0.37440 0.01667 -0.06400
H 	H 	0.18000 0.38890 0.02800 0.06800
O 	O 	0.20730 0.32690 0.11769 0.86400
O 	O 	0.17270 0.36390 0.08300 0.06100
O 	O 	0.21200 0.82920 0.62923 -1.09900
O 	O 	0.16600 0.87260 0.58320 -0.46800
C 	C 	0.25862 0.78217 0.62138 -0.06500
H 	H 	0.26460 0.80410 0.62130 0.09100
C 	C 	0.16653 0.87440 0.51667 -0.02300
H 	H 	0.18000 0.88890 0.52800 0.05700
O 	O 	0.20730 0.82690 0.61769 0.85900
O 	O 	0.17270 0.86390 0.58300 0.06200
O 	O 	0.71200 0.67080 0.37077 -1.09900
O 	O 	0.66600 0.62740 0.41680 -0.46800
C 	C 	0.75862 0.71783 0.37862 -0.06500
H 	H 	0.76460 0.69590 0.37870 0.09100
C 	C 	0.66653 0.62560 0.48333 -0.02300
H 	H 	0.68000 0.61110 0.47200 0.05600
O 	O 	0.70730 0.67310 0.38231 0.85900
O 	O 	0.67270 0.63610 0.41700 0.06100
O 	O 	0.71200 0.17080 0.87077 -1.09700
O 	O 	0.66600 0.12740 0.91680 -0.46900
C 	C 	0.75862 0.21783 0.87862 -0.06500
H 	H 	0.76460 0.19590 0.87870 0.09100
C 	C 	0.66653 0.12560 0.98333 0.01700
H 	H 	0.68000 0.11110 0.97200 0.04500
O 	O 	0.70730 0.17310 0.88231 0.85700
O 	O 	0.67270 0.13610 0.91700 0.06000
O 	O 	0.21200 0.67080 0.87077 -1.09600
O 	O 	0.16600 0.62740 0.91680 -0.46900
C 	C 	0.25862 0.71783 0.87862 -0.06500
H 	H 	0.26460 0.69590 0.87870 0.09100
C 	C 	0.16653 0.62560 0.98333 0.01700
H 	H 	0.18000 0.61110 0.97200 0.04500
O 	O 	0.20730 0.67310 0.88231 0.85600
O 	O 	0.17270 0.63610 0.91700 0.06000
O 	O 	0.21200 0.17080 0.37077 -1.10100
O 	O 	0.16600 0.12740 0.41680 -0.46700
C 	C 	0.25862 0.21783 0.37862 -0.06500
H 	H 	0.26460 0.19590 0.37870 0.09100
C 	C 	0.16653 0.12560 0.48333 -0.02400
H 	H 	0.18000 0.11110 0.47200 0.05600
O 	O 	0.20730 0.17310 0.38231 0.86100
O 	O 	0.17270 0.13610 0.41700 0.06000
O 	O 	0.28800 0.67080 0.62923 -1.09900
O 	O 	0.33400 0.62740 0.58320 -0.46800
C 	C 	0.24138 0.71783 0.62138 -0.06500
H 	H 	0.23540 0.69590 0.62130 0.09100
C 	C 	0.33347 0.62560 0.51667 -0.02300
H 	H 	0.32000 0.61110 0.52800 0.05600
O 	O 	0.29270 0.67310 0.61769 0.85900
O 	O 	0.32730 0.63610 0.58300 0.06100
O 	O 	0.28800 0.17080 0.12923 -1.10400
O 	O 	0.33400 0.12740 0.08320 -0.46600
C 	C 	0.24138 0.21783 0.12138 -0.06600
H 	H 	0.23540 0.19590 0.12130 0.09100
C 	C 	0.33347 0.12560 0.01667 -0.06400
H 	H 	0.32000 0.11110 0.02800 0.06700
O 	O 	0.29270 0.17310 0.11769 0.86400
O 	O 	0.32730 0.13610 0.08300 0.06100
O 	O 	0.78800 0.67080 0.12923 -1.10300
O 	O 	0.83400 0.62740 0.08320 -0.46700
C 	C 	0.74138 0.71783 0.12138 -0.06600
H 	H 	0.73540 0.69590 0.12130 0.09000
C 	C 	0.83347 0.62560 0.01667 -0.06300
H 	H 	0.82000 0.61110 0.02800 0.06800
O 	O 	0.79270 0.67310 0.11769 0.86300
O 	O 	0.82730 0.63610 0.08300 0.06200
O 	O 	0.78800 0.17080 0.62923 -1.10000
O 	O 	0.83400 0.12740 0.58320 -0.46800
C 	C 	0.74138 0.21783 0.62138 -0.06500
H 	H 	0.73540 0.19590 0.62130 0.09100
C 	C 	0.83347 0.12560 0.51667 -0.02300
H 	H 	0.82000 0.11110 0.52800 0.05600
O 	O 	0.79270 0.17310 0.61769 0.86000
O 	O 	0.82730 0.13610 0.58300 0.06100
O 	O 	0.32920 0.62923 0.71200 -1.09900
O 	O 	0.37260 0.58320 0.66600 -0.46800
C 	C 	0.28217 0.62138 0.75862 -0.06500
H 	H 	0.30410 0.62130 0.76460 0.09100
C 	C 	0.37440 0.51667 0.66653 -0.02300
H 	H 	0.38890 0.52800 0.68000 0.05600
O 	O 	0.32690 0.61769 0.70730 0.85900
O 	O 	0.36390 0.58300 0.67270 0.06100
O 	O 	0.32920 0.12923 0.21200 -1.10300
O 	O 	0.37260 0.08320 0.16600 -0.46600
C 	C 	0.28217 0.12138 0.25862 -0.06600
H 	H 	0.30410 0.12130 0.26460 0.09100
C 	C 	0.37440 0.01667 0.16653 -0.06400
H 	H 	0.38890 0.02800 0.18000 0.06800
O 	O 	0.32690 0.11769 0.20730 0.86400
O 	O 	0.36390 0.08300 0.17270 0.06100
O 	O 	0.82920 0.62923 0.21200 -1.09900
O 	O 	0.87260 0.58320 0.16600 -0.46800
C 	C 	0.78217 0.62138 0.25862 -0.06500
H 	H 	0.80410 0.62130 0.26460 0.09100
C 	C 	0.87440 0.51667 0.16653 -0.02300
H 	H 	0.88890 0.52800 0.18000 0.05700
O 	O 	0.82690 0.61769 0.20730 0.85900
O 	O 	0.86390 0.58300 0.17270 0.06200
O 	O 	0.82920 0.12923 0.71200 -1.10200
O 	O 	0.87260 0.08320 0.66600 -0.46800
C 	C 	0.78217 0.12138 0.75862 -0.06600
H 	H 	0.80410 0.12130 0.76460 0.09000
C 	C 	0.87440 0.01667 0.66653 -0.06300
H 	H 	0.88890 0.02800 0.68000 0.06800
O 	O 	0.82690 0.11769 0.70730 0.86200
O 	O 	0.86390 0.08300 0.67270 0.06300
O 	O 	0.32920 0.37077 0.28800 -1.10000
O 	O 	0.37260 0.41680 0.33400 -0.46800
C 	C 	0.28217 0.37862 0.24138 -0.06500
H 	H 	0.30410 0.37870 0.23540 0.09100
C 	C 	0.37440 0.48333 0.33347 -0.02300
H 	H 	0.38890 0.47200 0.32000 0.05600
O 	O 	0.32690 0.38231 0.29270 0.86000
O 	O 	0.36390 0.41700 0.32730 0.06100
O 	O 	0.32920 0.87077 0.78800 -1.09600
O 	O 	0.37260 0.91680 0.83400 -0.47000
C 	C 	0.28217 0.87862 0.74138 -0.06500
H 	H 	0.30410 0.87870 0.73540 0.09100
C 	C 	0.37440 0.98333 0.83347 0.01700
H 	H 	0.38890 0.97200 0.82000 0.04500
O 	O 	0.32690 0.88231 0.79270 0.85600
O 	O 	0.36390 0.91700 0.82730 0.06200
O 	O 	0.82920 0.37077 0.78800 -1.09900
O 	O 	0.87260 0.41680 0.83400 -0.47000
C 	C 	0.78217 0.37862 0.74138 -0.06500
H 	H 	0.80410 0.37870 0.73540 0.09100
C 	C 	0.87440 0.48333 0.83347 -0.02300
H 	H 	0.88890 0.47200 0.82000 0.05700
O 	O 	0.82690 0.38231 0.79270 0.85900
O 	O 	0.86390 0.41700 0.82730 0.06300
O 	O 	0.82920 0.87077 0.28800 -1.09600
O 	O 	0.87260 0.91680 0.33400 -0.47000
C 	C 	0.78217 0.87862 0.24138 -0.06500
H 	H 	0.80410 0.87870 0.23540 0.09100
C 	C 	0.87440 0.98333 0.33347 0.01700
H 	H 	0.88890 0.97200 0.32000 0.04500
O 	O 	0.82690 0.88231 0.29270 0.85500
O 	O 	0.86390 0.91700 0.32730 0.06200
O 	O 	0.67080 0.62923 0.28800 -1.09900
O 	O 	0.62740 0.58320 0.33400 -0.46800
C 	C 	0.71783 0.62138 0.24138 -0.06500
H 	H 	0.69590 0.62130 0.23540 0.09100
C 	C 	0.62560 0.51667 0.33347 -0.02300
H 	H 	0.61110 0.52800 0.32000 0.05600
O 	O 	0.67310 0.61769 0.29270 0.85900
O 	O 	0.63610 0.58300 0.32730 0.06100
O 	O 	0.67080 0.12923 0.78800 -1.10300
O 	O 	0.62740 0.08320 0.83400 -0.46700
C 	C 	0.71783 0.12138 0.74138 -0.06600
H 	H 	0.69590 0.12130 0.73540 0.09000
C 	C 	0.62560 0.01667 0.83347 -0.06300
H 	H 	0.61110 0.02800 0.82000 0.06800
O 	O 	0.67310 0.11769 0.79270 0.86300
O 	O 	0.63610 0.08300 0.82730 0.06200
O 	O 	0.17080 0.62923 0.78800 -1.10000
O 	O 	0.12740 0.58320 0.83400 -0.46800
C 	C 	0.21783 0.62138 0.74138 -0.06500
H 	H 	0.19590 0.62130 0.73540 0.09100
C 	C 	0.12560 0.51667 0.83347 -0.02300
H 	H 	0.11110 0.52800 0.82000 0.05600
O 	O 	0.17310 0.61769 0.79270 0.86000
O 	O 	0.13610 0.58300 0.82730 0.06100
O 	O 	0.17080 0.12923 0.28800 -1.10400
O 	O 	0.12740 0.08320 0.33400 -0.46600
C 	C 	0.21783 0.12138 0.24138 -0.06600
H 	H 	0.19590 0.12130 0.23540 0.09100
C 	C 	0.12560 0.01667 0.33347 -0.06400
H 	H 	0.11110 0.02800 0.32000 0.06700
O 	O 	0.17310 0.11769 0.29270 0.86400
O 	O 	0.13610 0.08300 0.32730 0.06100
O 	O 	0.67080 0.37077 0.71200 -1.09900
O 	O 	0.62740 0.41680 0.66600 -0.46800
C 	C 	0.71783 0.37862 0.75862 -0.06500
H 	H 	0.69590 0.37870 0.76460 0.09100
C 	C 	0.62560 0.48333 0.66653 -0.02300
H 	H 	0.61110 0.47200 0.68000 0.05600
O 	O 	0.67310 0.38231 0.70730 0.85900
O 	O 	0.63610 0.41700 0.67270 0.06100
O 	O 	0.67080 0.87077 0.21200 -1.09600
O 	O 	0.62740 0.91680 0.16600 -0.46900
C 	C 	0.71783 0.87862 0.25862 -0.06500
H 	H 	0.69590 0.87870 0.26460 0.09100
C 	C 	0.62560 0.98333 0.16653 0.01700
H 	H 	0.61110 0.97200 0.18000 0.04500
O 	O 	0.67310 0.88231 0.20730 0.85600
O 	O 	0.63610 0.91700 0.17270 0.06000
O 	O 	0.17080 0.37077 0.21200 -1.10100
O 	O 	0.12740 0.41680 0.16600 -0.46700
C 	C 	0.21783 0.37862 0.25862 -0.06500
H 	H 	0.19590 0.37870 0.26460 0.09100
C 	C 	0.12560 0.48333 0.16653 -0.02400
H 	H 	0.11110 0.47200 0.18000 0.05600
O 	O 	0.17310 0.38231 0.20730 0.86100
O 	O 	0.13610 0.41700 0.17270 0.06000
O 	O 	0.17080 0.87077 0.71200 -1.09700
O 	O 	0.12740 0.91680 0.66600 -0.46900
C 	C 	0.21783 0.87862 0.75862 -0.06500
H 	H 	0.19590 0.87870 0.76460 0.09100
C 	C 	0.12560 0.98333 0.66653 0.01700
H 	H 	0.11110 0.97200 0.68000 0.04500
O 	O 	0.17310 0.88231 0.70730 0.85700
O 	O 	0.13610 0.91700 0.67270 0.06000
Ni	Ni	0.68739 0.37177 0.62823 1.12200
O 	O 	0.72532 0.46517 0.53483 -0.44100
O 	O 	0.77923 0.46604 0.53396 -0.45400
N 	N 	0.72897 0.39302 0.60698 -0.21100
C 	C 	0.75831 0.38323 0.61677 0.04000
H 	H 	0.75970 0.36720 0.63280 0.06000
C 	C 	0.78673 0.39579 0.60421 -0.11500
H 	H 	0.80700 0.38850 0.61150 0.06800
C 	C 	0.78449 0.41949 0.58051 0.05200
H 	H 	0.80340 0.42840 0.57160 0.02400
C 	C 	0.75456 0.43004 0.56996 -0.13400
C 	C 	0.72732 0.41612 0.58388 0.07000
H 	H 	0.70680 0.42310 0.57690 0.03000
C 	C 	0.75247 0.45572 0.54428 0.38400
Ni	Ni	0.68739 0.87177 0.12823 1.12200
O 	O 	0.72532 0.96517 0.03483 -0.43900
O 	O 	0.77923 0.96604 0.03396 -0.45200
N 	N 	0.72897 0.89302 0.10698 -0.21100
C 	C 	0.75831 0.88323 0.11677 0.04000
H 	H 	0.75970 0.86720 0.13280 0.06000
C 	C 	0.78673 0.89579 0.10421 -0.11500
H 	H 	0.80700 0.88850 0.11150 0.06800
C 	C 	0.78449 0.91949 0.08051 0.05200
H 	H 	0.80340 0.92840 0.07160 0.02400
C 	C 	0.75456 0.93004 0.06996 -0.13400
C 	C 	0.72732 0.91612 0.08388 0.06900
H 	H 	0.70680 0.92310 0.07690 0.03000
C 	C 	0.75247 0.95572 0.04428 0.38400
Ni	Ni	0.18739 0.37177 0.12823 1.12200
O 	O 	0.22532 0.46517 0.03483 -0.44400
O 	O 	0.27923 0.46604 0.03396 -0.45700
N 	N 	0.22897 0.39302 0.10698 -0.21200
C 	C 	0.25831 0.38323 0.11677 0.04000
H 	H 	0.25970 0.36720 0.13280 0.06000
C 	C 	0.28673 0.39579 0.10421 -0.11600
H 	H 	0.30700 0.38850 0.11150 0.06800
C 	C 	0.28449 0.41949 0.08051 0.05200
H 	H 	0.30340 0.42840 0.07160 0.02200
C 	C 	0.25456 0.43004 0.06996 -0.13600
C 	C 	0.22732 0.41612 0.08388 0.07000
H 	H 	0.20680 0.42310 0.07690 0.02900
C 	C 	0.25247 0.45572 0.04428 0.38500
Ni	Ni	0.18739 0.87177 0.62823 1.12200
O 	O 	0.22532 0.96517 0.53483 -0.43700
O 	O 	0.27923 0.96604 0.53396 -0.45000
N 	N 	0.22897 0.89302 0.60698 -0.21100
C 	C 	0.25831 0.88323 0.61677 0.04000
H 	H 	0.25970 0.86720 0.63280 0.06000
C 	C 	0.28673 0.89579 0.60421 -0.11400
H 	H 	0.30700 0.88850 0.61150 0.06800
C 	C 	0.28449 0.91949 0.58051 0.05200
H 	H 	0.30340 0.92840 0.57160 0.02500
C 	C 	0.25456 0.93004 0.56996 -0.13300
C 	C 	0.22732 0.91612 0.58388 0.06900
H 	H 	0.20680 0.92310 0.57690 0.03100
C 	C 	0.25247 0.95572 0.54428 0.38400
Ni	Ni	0.31261 0.62823 0.62823 1.12200
O 	O 	0.27468 0.53483 0.53483 -0.44100
O 	O 	0.22077 0.53396 0.53396 -0.45500
N 	N 	0.27103 0.60698 0.60698 -0.21100
C 	C 	0.24169 0.61677 0.61677 0.04000
H 	H 	0.24030 0.63280 0.63280 0.06000
C 	C 	0.21327 0.60421 0.60421 -0.11500
H 	H 	0.19300 0.61150 0.61150 0.06800
C 	C 	0.21551 0.58051 0.58051 0.05200
H 	H 	0.19660 0.57160 0.57160 0.02300
C 	C 	0.24544 0.56996 0.56996 -0.13400
C 	C 	0.27268 0.58388 0.58388 0.07000
H 	H 	0.29320 0.57690 0.57690 0.03000
C 	C 	0.24753 0.54428 0.54428 0.38500
Ni	Ni	0.31261 0.12823 0.12823 1.12100
O 	O 	0.27468 0.03483 0.03483 -0.44600
O 	O 	0.22077 0.03396 0.03396 -0.45900
N 	N 	0.27103 0.10698 0.10698 -0.21200
C 	C 	0.24169 0.11677 0.11677 0.04000
H 	H 	0.24030 0.13280 0.13280 0.06000
C 	C 	0.21327 0.10421 0.10421 -0.11600
H 	H 	0.19300 0.11150 0.11150 0.06700
C 	C 	0.21551 0.08051 0.08051 0.05200
H 	H 	0.19660 0.07160 0.07160 0.02100
C 	C 	0.24544 0.06996 0.06996 -0.13700
C 	C 	0.27268 0.08388 0.08388 0.07000
H 	H 	0.29320 0.07690 0.07690 0.02800
C 	C 	0.24753 0.04428 0.04428 0.38500
Ni	Ni	0.81261 0.62823 0.12823 1.12100
O 	O 	0.77468 0.53483 0.03483 -0.44400
O 	O 	0.72077 0.53396 0.03396 -0.45700
N 	N 	0.77103 0.60698 0.10698 -0.21200
C 	C 	0.74169 0.61677 0.11677 0.04000
H 	H 	0.74030 0.63280 0.13280 0.06000
C 	C 	0.71327 0.60421 0.10421 -0.11600
H 	H 	0.69300 0.61150 0.11150 0.06800
C 	C 	0.71551 0.58051 0.08051 0.05200
H 	H 	0.69660 0.57160 0.07160 0.02200
C 	C 	0.74544 0.56996 0.06996 -0.13600
C 	C 	0.77268 0.58388 0.08388 0.06900
H 	H 	0.79320 0.57690 0.07690 0.02900
C 	C 	0.74753 0.54428 0.04428 0.38500
Ni	Ni	0.81261 0.12823 0.62823 1.12100
O 	O 	0.77468 0.03483 0.53483 -0.44400
O 	O 	0.72077 0.03396 0.53396 -0.45700
N 	N 	0.77103 0.10698 0.60698 -0.21200
C 	C 	0.74169 0.11677 0.61677 0.04000
H 	H 	0.74030 0.13280 0.63280 0.06000
C 	C 	0.71327 0.10421 0.60421 -0.11600
H 	H 	0.69300 0.11150 0.61150 0.06800
C 	C 	0.71551 0.08051 0.58051 0.05200
H 	H 	0.69660 0.07160 0.57160 0.02200
C 	C 	0.74544 0.06996 0.56996 -0.13600
C 	C 	0.77268 0.08388 0.58388 0.06900
H 	H 	0.79320 0.07690 0.57690 0.02900
C 	C 	0.74753 0.04428 0.54428 0.38500
Ni	Ni	0.31261 0.37177 0.37177 1.12200
O 	O 	0.27468 0.46517 0.46517 -0.44100
O 	O 	0.22077 0.46604 0.46604 -0.45400
N 	N 	0.27103 0.39302 0.39302 -0.21100
C 	C 	0.24169 0.38323 0.38323 0.04000
H 	H 	0.24030 0.36720 0.36720 0.06000
C 	C 	0.21327 0.39579 0.39579 -0.11500
H 	H 	0.19300 0.38850 0.38850 0.06800
C 	C 	0.21551 0.41949 0.41949 0.05200
H 	H 	0.19660 0.42840 0.42840 0.02300
C 	C 	0.24544 0.43004 0.43004 -0.13400
C 	C 	0.27268 0.41612 0.41612 0.07000
H 	H 	0.29320 0.42310 0.42310 0.03000
C 	C 	0.24753 0.45572 0.45572 0.38500
Ni	Ni	0.31261 0.87177 0.87177 1.12200
O 	O 	0.27468 0.96517 0.96517 -0.43200
O 	O 	0.22077 0.96604 0.96604 -0.44500
N 	N 	0.27103 0.89302 0.89302 -0.21100
C 	C 	0.24169 0.88323 0.88323 0.04000
H 	H 	0.24030 0.86720 0.86720 0.06000
C 	C 	0.21327 0.89579 0.89579 -0.11300
H 	H 	0.19300 0.88850 0.88850 0.06900
C 	C 	0.21551 0.91949 0.91949 0.05100
H 	H 	0.19660 0.92840 0.92840 0.02600
C 	C 	0.24544 0.93004 0.93004 -0.13100
C 	C 	0.27268 0.91612 0.91612 0.06900
H 	H 	0.29320 0.92310 0.92310 0.03200
C 	C 	0.24753 0.95572 0.95572 0.38300
Ni	Ni	0.81261 0.37177 0.87177 1.12200
O 	O 	0.77468 0.46517 0.96517 -0.43700
O 	O 	0.72077 0.46604 0.96604 -0.45000
N 	N 	0.77103 0.39302 0.89302 -0.21100
C 	C 	0.74169 0.38323 0.88323 0.04000
H 	H 	0.74030 0.36720 0.86720 0.06000
C 	C 	0.71327 0.39579 0.89579 -0.11400
H 	H 	0.69300 0.38850 0.88850 0.06800
C 	C 	0.71551 0.41949 0.91949 0.05100
H 	H 	0.69660 0.42840 0.92840 0.02500
C 	C 	0.74544 0.43004 0.93004 -0.13200
C 	C 	0.77268 0.41612 0.91612 0.06900
H 	H 	0.79320 0.42310 0.92310 0.03100
C 	C 	0.74753 0.45572 0.95572 0.38400
Ni	Ni	0.81261 0.87177 0.37177 1.12200
O 	O 	0.77468 0.96517 0.46517 -0.43700
O 	O 	0.72077 0.96604 0.46604 -0.45000
N 	N 	0.77103 0.89302 0.39302 -0.21100
C 	C 	0.74169 0.88323 0.38323 0.04000
H 	H 	0.74030 0.86720 0.36720 0.06000
C 	C 	0.71327 0.89579 0.39579 -0.11400
H 	H 	0.69300 0.88850 0.38850 0.06800
C 	C 	0.71551 0.91949 0.41949 0.05100
H 	H 	0.69660 0.92840 0.42840 0.02500
C 	C 	0.74544 0.93004 0.43004 -0.13200
C 	C 	0.77268 0.91612 0.41612 0.06900
H 	H 	0.79320 0.92310 0.42310 0.03100
C 	C 	0.74753 0.95572 0.45572 0.38400
Ni	Ni	0.68739 0.62823 0.37177 1.12200
O 	O 	0.72532 0.53483 0.46517 -0.44100
O 	O 	0.77923 0.53396 0.46604 -0.45400
N 	N 	0.72897 0.60698 0.39302 -0.21100
C 	C 	0.75831 0.61677 0.38323 0.04000
H 	H 	0.75970 0.63280 0.36720 0.06000
C 	C 	0.78673 0.60421 0.39579 -0.11500
H 	H 	0.80700 0.61150 0.38850 0.06800
C 	C 	0.78449 0.58051 0.41949 0.05200
H 	H 	0.80340 0.57160 0.42840 0.02400
C 	C 	0.75456 0.56996 0.43004 -0.13400
C 	C 	0.72732 0.58388 0.41612 0.07000
H 	H 	0.70680 0.57690 0.42310 0.03000
C 	C 	0.75247 0.54428 0.45572 0.38400
Ni	Ni	0.68739 0.12823 0.87177 1.12200
O 	O 	0.72532 0.03483 0.96517 -0.43900
O 	O 	0.77923 0.03396 0.96604 -0.45200
N 	N 	0.72897 0.10698 0.89302 -0.21100
C 	C 	0.75831 0.11677 0.88323 0.04000
H 	H 	0.75970 0.13280 0.86720 0.06000
C 	C 	0.78673 0.10421 0.89579 -0.11500
H 	H 	0.80700 0.11150 0.88850 0.06800
C 	C 	0.78449 0.08051 0.91949 0.05200
H 	H 	0.80340 0.07160 0.92840 0.02400
C 	C 	0.75456 0.06996 0.93004 -0.13400
C 	C 	0.72732 0.08388 0.91612 0.06900
H 	H 	0.70680 0.07690 0.92310 0.03000
C 	C 	0.75247 0.04428 0.95572 0.38400
Ni	Ni	0.18739 0.62823 0.87177 1.12200
O 	O 	0.22532 0.53483 0.96517 -0.43700
O 	O 	0.27923 0.53396 0.96604 -0.45000
N 	N 	0.22897 0.60698 0.89302 -0.21100
C 	C 	0.25831 0.61677 0.88323 0.04000
H 	H 	0.25970 0.63280 0.86720 0.06000
C 	C 	0.28673 0.60421 0.89579 -0.11400
H 	H 	0.30700 0.61150 0.88850 0.06800
C 	C 	0.28449 0.58051 0.91949 0.05200
H 	H 	0.30340 0.57160 0.92840 0.02500
C 	C 	0.25456 0.56996 0.93004 -0.13300
C 	C 	0.22732 0.58388 0.91612 0.06900
H 	H 	0.20680 0.57690 0.92310 0.03100
C 	C 	0.25247 0.54428 0.95572 0.38400
Ni	Ni	0.18739 0.12823 0.37177 1.12200
O 	O 	0.22532 0.03483 0.46517 -0.44400
O 	O 	0.27923 0.03396 0.46604 -0.45700
N 	N 	0.22897 0.10698 0.39302 -0.21200
C 	C 	0.25831 0.11677 0.38323 0.04000
H 	H 	0.25970 0.13280 0.36720 0.06000
C 	C 	0.28673 0.10421 0.39579 -0.11600
H 	H 	0.30700 0.11150 0.38850 0.06800
C 	C 	0.28449 0.08051 0.41949 0.05200
H 	H 	0.30340 0.07160 0.42840 0.02200
C 	C 	0.25456 0.06996 0.43004 -0.13600
C 	C 	0.22732 0.08388 0.41612 0.07000
H 	H 	0.20680 0.07690 0.42310 0.02900
C 	C 	0.25247 0.04428 0.45572 0.38500
Ni	Ni	0.62823 0.68739 0.37177 1.12200
O 	O 	0.53483 0.72532 0.46517 -0.44100
O 	O 	0.53396 0.77923 0.46604 -0.45400
N 	N 	0.60698 0.72897 0.39302 -0.21100
C 	C 	0.61677 0.75831 0.38323 0.04000
H 	H 	0.63280 0.75970 0.36720 0.06000
C 	C 	0.60421 0.78673 0.39579 -0.11500
H 	H 	0.61150 0.80700 0.38850 0.06800
C 	C 	0.58051 0.78449 0.41949 0.05200
H 	H 	0.57160 0.80340 0.42840 0.02400
C 	C 	0.56996 0.75456 0.43004 -0.13400
C 	C 	0.58388 0.72732 0.41612 0.07000
H 	H 	0.57690 0.70680 0.42310 0.03000
C 	C 	0.54428 0.75247 0.45572 0.38400
Ni	Ni	0.62823 0.18739 0.87177 1.12200
O 	O 	0.53483 0.22532 0.96517 -0.43700
O 	O 	0.53396 0.27923 0.96604 -0.45000
N 	N 	0.60698 0.22897 0.89302 -0.21100
C 	C 	0.61677 0.25831 0.88323 0.04000
H 	H 	0.63280 0.25970 0.86720 0.06000
C 	C 	0.60421 0.28673 0.89579 -0.11400
H 	H 	0.61150 0.30700 0.88850 0.06800
C 	C 	0.58051 0.28449 0.91949 0.05200
H 	H 	0.57160 0.30340 0.92840 0.02500
C 	C 	0.56996 0.25456 0.93004 -0.13300
C 	C 	0.58388 0.22732 0.91612 0.06900
H 	H 	0.57690 0.20680 0.92310 0.03100
C 	C 	0.54428 0.25247 0.95572 0.38400
Ni	Ni	0.12823 0.68739 0.87177 1.12200
O 	O 	0.03483 0.72532 0.96517 -0.43900
O 	O 	0.03396 0.77923 0.96604 -0.45200
N 	N 	0.10698 0.72897 0.89302 -0.21100
C 	C 	0.11677 0.75831 0.88323 0.04000
H 	H 	0.13280 0.75970 0.86720 0.06000
C 	C 	0.10421 0.78673 0.89579 -0.11500
H 	H 	0.11150 0.80700 0.88850 0.06800
C 	C 	0.08051 0.78449 0.91949 0.05200
H 	H 	0.07160 0.80340 0.92840 0.02400
C 	C 	0.06996 0.75456 0.93004 -0.13400
C 	C 	0.08388 0.72732 0.91612 0.06900
H 	H 	0.07690 0.70680 0.92310 0.03000
C 	C 	0.04428 0.75247 0.95572 0.38400
Ni	Ni	0.12823 0.18739 0.37177 1.12200
O 	O 	0.03483 0.22532 0.46517 -0.44400
O 	O 	0.03396 0.27923 0.46604 -0.45700
N 	N 	0.10698 0.22897 0.39302 -0.21200
C 	C 	0.11677 0.25831 0.38323 0.04000
H 	H 	0.13280 0.25970 0.36720 0.06000
C 	C 	0.10421 0.28673 0.39579 -0.11600
H 	H 	0.11150 0.30700 0.38850 0.06800
C 	C 	0.08051 0.28449 0.41949 0.05200
H 	H 	0.07160 0.30340 0.42840 0.02200
C 	C 	0.06996 0.25456 0.43004 -0.13600
C 	C 	0.08388 0.22732 0.41612 0.07000
H 	H 	0.07690 0.20680 0.42310 0.02900
C 	C 	0.04428 0.25247 0.45572 0.38500
Ni	Ni	0.62823 0.31261 0.62823 1.12200
O 	O 	0.53483 0.27468 0.53483 -0.44100
O 	O 	0.53396 0.22077 0.53396 -0.45500
N 	N 	0.60698 0.27103 0.60698 -0.21100
C 	C 	0.61677 0.24169 0.61677 0.04000
H 	H 	0.63280 0.24030 0.63280 0.06000
C 	C 	0.60421 0.21327 0.60421 -0.11500
H 	H 	0.61150 0.19300 0.61150 0.06800
C 	C 	0.58051 0.21551 0.58051 0.05200
H 	H 	0.57160 0.19660 0.57160 0.02300
C 	C 	0.56996 0.24544 0.56996 -0.13400
C 	C 	0.58388 0.27268 0.58388 0.07000
H 	H 	0.57690 0.29320 0.57690 0.03000
C 	C 	0.54428 0.24753 0.54428 0.38500
Ni	Ni	0.62823 0.81261 0.12823 1.12100
O 	O 	0.53483 0.77468 0.03483 -0.44400
O 	O 	0.53396 0.72077 0.03396 -0.45700
N 	N 	0.60698 0.77103 0.10698 -0.21200
C 	C 	0.61677 0.74169 0.11677 0.04000
H 	H 	0.63280 0.74030 0.13280 0.06000
C 	C 	0.60421 0.71327 0.10421 -0.11600
H 	H 	0.61150 0.69300 0.11150 0.06800
C 	C 	0.58051 0.71551 0.08051 0.05200
H 	H 	0.57160 0.69660 0.07160 0.02200
C 	C 	0.56996 0.74544 0.06996 -0.13600
C 	C 	0.58388 0.77268 0.08388 0.06900
H 	H 	0.57690 0.79320 0.07690 0.02900
C 	C 	0.54428 0.74753 0.04428 0.38500
Ni	Ni	0.12823 0.31261 0.12823 1.12100
O 	O 	0.03483 0.27468 0.03483 -0.44600
O 	O 	0.03396 0.22077 0.03396 -0.45900
N 	N 	0.10698 0.27103 0.10698 -0.21200
C 	C 	0.11677 0.24169 0.11677 0.04000
H 	H 	0.13280 0.24030 0.13280 0.06000
C 	C 	0.10421 0.21327 0.10421 -0.11600
H 	H 	0.11150 0.19300 0.11150 0.06700
C 	C 	0.08051 0.21551 0.08051 0.05200
H 	H 	0.07160 0.19660 0.07160 0.02100
C 	C 	0.06996 0.24544 0.06996 -0.13700
C 	C 	0.08388 0.27268 0.08388 0.07000
H 	H 	0.07690 0.29320 0.07690 0.02800
C 	C 	0.04428 0.24753 0.04428 0.38500
Ni	Ni	0.12823 0.81261 0.62823 1.12100
O 	O 	0.03483 0.77468 0.53483 -0.44400
O 	O 	0.03396 0.72077 0.53396 -0.45700
N 	N 	0.10698 0.77103 0.60698 -0.21200
C 	C 	0.11677 0.74169 0.61677 0.04000
H 	H 	0.13280 0.74030 0.63280 0.06000
C 	C 	0.10421 0.71327 0.60421 -0.11600
H 	H 	0.11150 0.69300 0.61150 0.06800
C 	C 	0.08051 0.71551 0.58051 0.05200
H 	H 	0.07160 0.69660 0.57160 0.02200
C 	C 	0.06996 0.74544 0.56996 -0.13600
C 	C 	0.08388 0.77268 0.58388 0.06900
H 	H 	0.07690 0.79320 0.57690 0.02900
C 	C 	0.04428 0.74753 0.54428 0.38500
Ni	Ni	0.37177 0.31261 0.37177 1.12200
O 	O 	0.46517 0.27468 0.46517 -0.44100
O 	O 	0.46604 0.22077 0.46604 -0.45400
N 	N 	0.39302 0.27103 0.39302 -0.21100
C 	C 	0.38323 0.24169 0.38323 0.04000
H 	H 	0.36720 0.24030 0.36720 0.06000
C 	C 	0.39579 0.21327 0.39579 -0.11500
H 	H 	0.38850 0.19300 0.38850 0.06800
C 	C 	0.41949 0.21551 0.41949 0.05200
H 	H 	0.42840 0.19660 0.42840 0.02300
C 	C 	0.43004 0.24544 0.43004 -0.13400
C 	C 	0.41612 0.27268 0.41612 0.07000
H 	H 	0.42310 0.29320 0.42310 0.03000
C 	C 	0.45572 0.24753 0.45572 0.38500
Ni	Ni	0.37177 0.81261 0.87177 1.12200
O 	O 	0.46517 0.77468 0.96517 -0.43700
O 	O 	0.46604 0.72077 0.96604 -0.45000
N 	N 	0.39302 0.77103 0.89302 -0.21100
C 	C 	0.38323 0.74169 0.88323 0.04000
H 	H 	0.36720 0.74030 0.86720 0.06000
C 	C 	0.39579 0.71327 0.89579 -0.11400
H 	H 	0.38850 0.69300 0.88850 0.06800
C 	C 	0.41949 0.71551 0.91949 0.05100
H 	H 	0.42840 0.69660 0.92840 0.02500
C 	C 	0.43004 0.74544 0.93004 -0.13200
C 	C 	0.41612 0.77268 0.91612 0.06900
H 	H 	0.42310 0.79320 0.92310 0.03100
C 	C 	0.45572 0.74753 0.95572 0.38400
Ni	Ni	0.87177 0.31261 0.87177 1.12200
O 	O 	0.96517 0.27468 0.96517 -0.43200
O 	O 	0.96604 0.22077 0.96604 -0.44500
N 	N 	0.89302 0.27103 0.89302 -0.21100
C 	C 	0.88323 0.24169 0.88323 0.04000
H 	H 	0.86720 0.24030 0.86720 0.06000
C 	C 	0.89579 0.21327 0.89579 -0.11300
H 	H 	0.88850 0.19300 0.88850 0.06900
C 	C 	0.91949 0.21551 0.91949 0.05100
H 	H 	0.92840 0.19660 0.92840 0.02600
C 	C 	0.93004 0.24544 0.93004 -0.13100
C 	C 	0.91612 0.27268 0.91612 0.06900
H 	H 	0.92310 0.29320 0.92310 0.03200
C 	C 	0.95572 0.24753 0.95572 0.38300
Ni	Ni	0.87177 0.81261 0.37177 1.12200
O 	O 	0.96517 0.77468 0.46517 -0.43700
O 	O 	0.96604 0.72077 0.46604 -0.45000
N 	N 	0.89302 0.77103 0.39302 -0.21100
C 	C 	0.88323 0.74169 0.38323 0.04000
H 	H 	0.86720 0.74030 0.36720 0.06000
C 	C 	0.89579 0.71327 0.39579 -0.11400
H 	H 	0.88850 0.69300 0.38850 0.06800
C 	C 	0.91949 0.71551 0.41949 0.05100
H 	H 	0.92840 0.69660 0.42840 0.02500
C 	C 	0.93004 0.74544 0.43004 -0.13200
C 	C 	0.91612 0.77268 0.41612 0.06900
H 	H 	0.92310 0.79320 0.42310 0.03100
C 	C 	0.95572 0.74753 0.45572 0.38400
Ni	Ni	0.37177 0.68739 0.62823 1.12200
O 	O 	0.46517 0.72532 0.53483 -0.44100
O 	O 	0.46604 0.77923 0.53396 -0.45400
N 	N 	0.39302 0.72897 0.60698 -0.21100
C 	C 	0.38323 0.75831 0.61677 0.04000
H 	H 	0.36720 0.75970 0.63280 0.06000
C 	C 	0.39579 0.78673 0.60421 -0.11500
H 	H 	0.38850 0.80700 0.61150 0.06800
C 	C 	0.41949 0.78449 0.58051 0.05200
H 	H 	0.42840 0.80340 0.57160 0.02400
C 	C 	0.43004 0.75456 0.56996 -0.13400
C 	C 	0.41612 0.72732 0.58388 0.07000
H 	H 	0.42310 0.70680 0.57690 0.03000
C 	C 	0.45572 0.75247 0.54428 0.38400
Ni	Ni	0.37177 0.18739 0.12823 1.12200
O 	O 	0.46517 0.22532 0.03483 -0.44400
O 	O 	0.46604 0.27923 0.03396 -0.45700
N 	N 	0.39302 0.22897 0.10698 -0.21200
C 	C 	0.38323 0.25831 0.11677 0.04000
H 	H 	0.36720 0.25970 0.13280 0.06000
C 	C 	0.39579 0.28673 0.10421 -0.11600
H 	H 	0.38850 0.30700 0.11150 0.06800
C 	C 	0.41949 0.28449 0.08051 0.05200
H 	H 	0.42840 0.30340 0.07160 0.02200
C 	C 	0.43004 0.25456 0.06996 -0.13600
C 	C 	0.41612 0.22732 0.08388 0.07000
H 	H 	0.42310 0.20680 0.07690 0.02900
C 	C 	0.45572 0.25247 0.04428 0.38500
Ni	Ni	0.87177 0.68739 0.12823 1.12200
O 	O 	0.96517 0.72532 0.03483 -0.43900
O 	O 	0.96604 0.77923 0.03396 -0.45200
N 	N 	0.89302 0.72897 0.10698 -0.21100
C 	C 	0.88323 0.75831 0.11677 0.04000
H 	H 	0.86720 0.75970 0.13280 0.06000
C 	C 	0.89579 0.78673 0.10421 -0.11500
H 	H 	0.88850 0.80700 0.11150 0.06800
C 	C 	0.91949 0.78449 0.08051 0.05200
H 	H 	0.92840 0.80340 0.07160 0.02400
C 	C 	0.93004 0.75456 0.06996 -0.13400
C 	C 	0.91612 0.72732 0.08388 0.06900
H 	H 	0.92310 0.70680 0.07690 0.03000
C 	C 	0.95572 0.75247 0.04428 0.38400
Ni	Ni	0.87177 0.18739 0.62823 1.12200
O 	O 	0.96517 0.22532 0.53483 -0.43700
O 	O 	0.96604 0.27923 0.53396 -0.45000
N 	N 	0.89302 0.22897 0.60698 -0.21100
C 	C 	0.88323 0.25831 0.61677 0.04000
H 	H 	0.86720 0.25970 0.63280 0.06000
C 	C 	0.89579 0.28673 0.60421 -0.11400
H 	H 	0.88850 0.30700 0.61150 0.06800
C 	C 	0.91949 0.28449 0.58051 0.05200
H 	H 	0.92840 0.30340 0.57160 0.02500
C 	C 	0.93004 0.25456 0.56996 -0.13300
C 	C 	0.91612 0.22732 0.58388 0.06900
H 	H 	0.92310 0.20680 0.57690 0.03100
C 	C 	0.95572 0.25247 0.54428 0.38400
Ni	Ni	0.37177 0.62823 0.68739 1.12200
O 	O 	0.46517 0.53483 0.72532 -0.44100
O 	O 	0.46604 0.53396 0.77923 -0.45400
N 	N 	0.39302 0.60698 0.72897 -0.21100
C 	C 	0.38323 0.61677 0.75831 0.04000
H 	H 	0.36720 0.63280 0.75970 0.06000
C 	C 	0.39579 0.60421 0.78673 -0.11500
H 	H 	0.38850 0.61150 0.80700 0.06800
C 	C 	0.41949 0.58051 0.78449 0.05200
H 	H 	0.42840 0.57160 0.80340 0.02400
C 	C 	0.43004 0.56996 0.75456 -0.13400
C 	C 	0.41612 0.58388 0.72732 0.07000
H 	H 	0.42310 0.57690 0.70680 0.03000
C 	C 	0.45572 0.54428 0.75247 0.38400
Ni	Ni	0.37177 0.12823 0.18739 1.12200
O 	O 	0.46517 0.03483 0.22532 -0.44400
O 	O 	0.46604 0.03396 0.27923 -0.45700
N 	N 	0.39302 0.10698 0.22897 -0.21200
C 	C 	0.38323 0.11677 0.25831 0.04000
H 	H 	0.36720 0.13280 0.25970 0.06000
C 	C 	0.39579 0.10421 0.28673 -0.11600
H 	H 	0.38850 0.11150 0.30700 0.06800
C 	C 	0.41949 0.08051 0.28449 0.05200
H 	H 	0.42840 0.07160 0.30340 0.02200
C 	C 	0.43004 0.06996 0.25456 -0.13600
C 	C 	0.41612 0.08388 0.22732 0.07000
H 	H 	0.42310 0.07690 0.20680 0.02900
C 	C 	0.45572 0.04428 0.25247 0.38500
Ni	Ni	0.87177 0.62823 0.18739 1.12200
O 	O 	0.96517 0.53483 0.22532 -0.43700
O 	O 	0.96604 0.53396 0.27923 -0.45000
N 	N 	0.89302 0.60698 0.22897 -0.21100
C 	C 	0.88323 0.61677 0.25831 0.04000
H 	H 	0.86720 0.63280 0.25970 0.06000
C 	C 	0.89579 0.60421 0.28673 -0.11400
H 	H 	0.88850 0.61150 0.30700 0.06800
C 	C 	0.91949 0.58051 0.28449 0.05200
H 	H 	0.92840 0.57160 0.30340 0.02500
C 	C 	0.93004 0.56996 0.25456 -0.13300
C 	C 	0.91612 0.58388 0.22732 0.06900
H 	H 	0.92310 0.57690 0.20680 0.03100
C 	C 	0.95572 0.54428 0.25247 0.38400
Ni	Ni	0.87177 0.12823 0.68739 1.12200
O 	O 	0.96517 0.03483 0.72532 -0.43900
O 	O 	0.96604 0.03396 0.77923 -0.45200
N 	N 	0.89302 0.10698 0.72897 -0.21100
C 	C 	0.88323 0.11677 0.75831 0.04000
H 	H 	0.86720 0.13280 0.75970 0.06000
C 	C 	0.89579 0.10421 0.78673 -0.11500
H 	H 	0.88850 0.11150 0.80700 0.06800
C 	C 	0.91949 0.08051 0.78449 0.05200
H 	H 	0.92840 0.07160 0.80340 0.02400
C 	C 	0.93004 0.06996 0.75456 -0.13400
C 	C 	0.91612 0.08388 0.72732 0.06900
H 	H 	0.92310 0.07690 0.70680 0.03000
C 	C 	0.95572 0.04428 0.75247 0.38400
Ni	Ni	0.62823 0.62823 0.31261 1.12200
O 	O 	0.53483 0.53483 0.27468 -0.44100
O 	O 	0.53396 0.53396 0.22077 -0.45500
N 	N 	0.60698 0.60698 0.27103 -0.21100
C 	C 	0.61677 0.61677 0.24169 0.04000
H 	H 	0.63280 0.63280 0.24030 0.06000
C 	C 	0.60421 0.60421 0.21327 -0.11500
H 	H 	0.61150 0.61150 0.19300 0.06800
C 	C 	0.58051 0.58051 0.21551 0.05200
H 	H 	0.57160 0.57160 0.19660 0.02300
C 	C 	0.56996 0.56996 0.24544 -0.13400
C 	C 	0.58388 0.58388 0.27268 0.07000
H 	H 	0.57690 0.57690 0.29320 0.03000
C 	C 	0.54428 0.54428 0.24753 0.38500
Ni	Ni	0.62823 0.12823 0.81261 1.12100
O 	O 	0.53483 0.03483 0.77468 -0.44400
O 	O 	0.53396 0.03396 0.72077 -0.45700
N 	N 	0.60698 0.10698 0.77103 -0.21200
C 	C 	0.61677 0.11677 0.74169 0.04000
H 	H 	0.63280 0.13280 0.74030 0.06000
C 	C 	0.60421 0.10421 0.71327 -0.11600
H 	H 	0.61150 0.11150 0.69300 0.06800
C 	C 	0.58051 0.08051 0.71551 0.05200
H 	H 	0.57160 0.07160 0.69660 0.02200
C 	C 	0.56996 0.06996 0.74544 -0.13600
C 	C 	0.58388 0.08388 0.77268 0.06900
H 	H 	0.57690 0.07690 0.79320 0.02900
C 	C 	0.54428 0.04428 0.74753 0.38500
Ni	Ni	0.12823 0.62823 0.81261 1.12100
O 	O 	0.03483 0.53483 0.77468 -0.44400
O 	O 	0.03396 0.53396 0.72077 -0.45700
N 	N 	0.10698 0.60698 0.77103 -0.21200
C 	C 	0.11677 0.61677 0.74169 0.04000
H 	H 	0.13280 0.63280 0.74030 0.06000
C 	C 	0.10421 0.60421 0.71327 -0.11600
H 	H 	0.11150 0.61150 0.69300 0.06800
C 	C 	0.08051 0.58051 0.71551 0.05200
H 	H 	0.07160 0.57160 0.69660 0.02200
C 	C 	0.06996 0.56996 0.74544 -0.13600
C 	C 	0.08388 0.58388 0.77268 0.06900
H 	H 	0.07690 0.57690 0.79320 0.02900
C 	C 	0.04428 0.54428 0.74753 0.38500
Ni	Ni	0.12823 0.12823 0.31261 1.12100
O 	O 	0.03483 0.03483 0.27468 -0.44600
O 	O 	0.03396 0.03396 0.22077 -0.45900
N 	N 	0.10698 0.10698 0.27103 -0.21200
C 	C 	0.11677 0.11677 0.24169 0.04000
H 	H 	0.13280 0.13280 0.24030 0.06000
C 	C 	0.10421 0.10421 0.21327 -0.11600
H 	H 	0.11150 0.11150 0.19300 0.06700
C 	C 	0.08051 0.08051 0.21551 0.05200
H 	H 	0.07160 0.07160 0.19660 0.02100
C 	C 	0.06996 0.06996 0.24544 -0.13700
C 	C 	0.08388 0.08388 0.27268 0.07000
H 	H 	0.07690 0.07690 0.29320 0.02800
C 	C 	0.04428 0.04428 0.24753 0.38500
Ni	Ni	0.37177 0.37177 0.31261 1.12200
O 	O 	0.46517 0.46517 0.27468 -0.44100
O 	O 	0.46604 0.46604 0.22077 -0.45400
N 	N 	0.39302 0.39302 0.27103 -0.21100
C 	C 	0.38323 0.38323 0.24169 0.04000
H 	H 	0.36720 0.36720 0.24030 0.06000
C 	C 	0.39579 0.39579 0.21327 -0.11500
H 	H 	0.38850 0.38850 0.19300 0.06800
C 	C 	0.41949 0.41949 0.21551 0.05200
H 	H 	0.42840 0.42840 0.19660 0.02300
C 	C 	0.43004 0.43004 0.24544 -0.13400
C 	C 	0.41612 0.41612 0.27268 0.07000
H 	H 	0.42310 0.42310 0.29320 0.03000
C 	C 	0.45572 0.45572 0.24753 0.38500
Ni	Ni	0.37177 0.87177 0.81261 1.12200
O 	O 	0.46517 0.96517 0.77468 -0.43700
O 	O 	0.46604 0.96604 0.72077 -0.45000
N 	N 	0.39302 0.89302 0.77103 -0.21100
C 	C 	0.38323 0.88323 0.74169 0.04000
H 	H 	0.36720 0.86720 0.74030 0.06000
C 	C 	0.39579 0.89579 0.71327 -0.11400
H 	H 	0.38850 0.88850 0.69300 0.06800
C 	C 	0.41949 0.91949 0.71551 0.05100
H 	H 	0.42840 0.92840 0.69660 0.02500
C 	C 	0.43004 0.93004 0.74544 -0.13200
C 	C 	0.41612 0.91612 0.77268 0.06900
H 	H 	0.42310 0.92310 0.79320 0.03100
C 	C 	0.45572 0.95572 0.74753 0.38400
Ni	Ni	0.87177 0.37177 0.81261 1.12200
O 	O 	0.96517 0.46517 0.77468 -0.43700
O 	O 	0.96604 0.46604 0.72077 -0.45000
N 	N 	0.89302 0.39302 0.77103 -0.21100
C 	C 	0.88323 0.38323 0.74169 0.04000
H 	H 	0.86720 0.36720 0.74030 0.06000
C 	C 	0.89579 0.39579 0.71327 -0.11400
H 	H 	0.88850 0.38850 0.69300 0.06800
C 	C 	0.91949 0.41949 0.71551 0.05100
H 	H 	0.92840 0.42840 0.69660 0.02500
C 	C 	0.93004 0.43004 0.74544 -0.13200
C 	C 	0.91612 0.41612 0.77268 0.06900
H 	H 	0.92310 0.42310 0.79320 0.03100
C 	C 	0.95572 0.45572 0.74753 0.38400
Ni	Ni	0.87177 0.87177 0.31261 1.12200
O 	O 	0.96517 0.96517 0.27468 -0.43200
O 	O 	0.96604 0.96604 0.22077 -0.44500
N 	N 	0.89302 0.89302 0.27103 -0.21100
C 	C 	0.88323 0.88323 0.24169 0.04000
H 	H 	0.86720 0.86720 0.24030 0.06000
C 	C 	0.89579 0.89579 0.21327 -0.11300
H 	H 	0.88850 0.88850 0.19300 0.06900
C 	C 	0.91949 0.91949 0.21551 0.05100
H 	H 	0.92840 0.92840 0.19660 0.02600
C 	C 	0.93004 0.93004 0.24544 -0.13100
C 	C 	0.91612 0.91612 0.27268 0.06900
H 	H 	0.92310 0.92310 0.29320 0.03200
C 	C 	0.95572 0.95572 0.24753 0.38300
Ni	Ni	0.62823 0.37177 0.68739 1.12200
O 	O 	0.53483 0.46517 0.72532 -0.44100
O 	O 	0.53396 0.46604 0.77923 -0.45400
N 	N 	0.60698 0.39302 0.72897 -0.21100
C 	C 	0.61677 0.38323 0.75831 0.04000
H 	H 	0.63280 0.36720 0.75970 0.06000
C 	C 	0.60421 0.39579 0.78673 -0.11500
H 	H 	0.61150 0.38850 0.80700 0.06800
C 	C 	0.58051 0.41949 0.78449 0.05200
H 	H 	0.57160 0.42840 0.80340 0.02400
C 	C 	0.56996 0.43004 0.75456 -0.13400
C 	C 	0.58388 0.41612 0.72732 0.07000
H 	H 	0.57690 0.42310 0.70680 0.03000
C 	C 	0.54428 0.45572 0.75247 0.38400
Ni	Ni	0.62823 0.87177 0.18739 1.12200
O 	O 	0.53483 0.96517 0.22532 -0.43700
O 	O 	0.53396 0.96604 0.27923 -0.45000
N 	N 	0.60698 0.89302 0.22897 -0.21100
C 	C 	0.61677 0.88323 0.25831 0.04000
H 	H 	0.63280 0.86720 0.25970 0.06000
C 	C 	0.60421 0.89579 0.28673 -0.11400
H 	H 	0.61150 0.88850 0.30700 0.06800
C 	C 	0.58051 0.91949 0.28449 0.05200
H 	H 	0.57160 0.92840 0.30340 0.02500
C 	C 	0.56996 0.93004 0.25456 -0.13300
C 	C 	0.58388 0.91612 0.22732 0.06900
H 	H 	0.57690 0.92310 0.20680 0.03100
C 	C 	0.54428 0.95572 0.25247 0.38400
Ni	Ni	0.12823 0.37177 0.18739 1.12200
O 	O 	0.03483 0.46517 0.22532 -0.44400
O 	O 	0.03396 0.46604 0.27923 -0.45700
N 	N 	0.10698 0.39302 0.22897 -0.21200
C 	C 	0.11677 0.38323 0.25831 0.04000
H 	H 	0.13280 0.36720 0.25970 0.06000
C 	C 	0.10421 0.39579 0.28673 -0.11600
H 	H 	0.11150 0.38850 0.30700 0.06800
C 	C 	0.08051 0.41949 0.28449 0.05200
H 	H 	0.07160 0.42840 0.30340 0.02200
C 	C 	0.06996 0.43004 0.25456 -0.13600
C 	C 	0.08388 0.41612 0.22732 0.07000
H 	H 	0.07690 0.42310 0.20680 0.02900
C 	C 	0.04428 0.45572 0.25247 0.38500
Ni	Ni	0.12823 0.87177 0.68739 1.12200
O 	O 	0.03483 0.96517 0.72532 -0.43900
O 	O 	0.03396 0.96604 0.77923 -0.45200
N 	N 	0.10698 0.89302 0.72897 -0.21100
C 	C 	0.11677 0.88323 0.75831 0.04000
H 	H 	0.13280 0.86720 0.75970 0.06000
C 	C 	0.10421 0.89579 0.78673 -0.11500
H 	H 	0.11150 0.88850 0.80700 0.06800
C 	C 	0.08051 0.91949 0.78449 0.05200
H 	H 	0.07160 0.92840 0.80340 0.02400
C 	C 	0.06996 0.93004 0.75456 -0.13400
C 	C 	0.08388 0.91612 0.72732 0.06900
H 	H 	0.07690 0.92310 0.70680 0.03000
C 	C 	0.04428 0.95572 0.75247 0.38400
Ni	Ni	0.37177 0.68739 0.37177 1.12200
O 	O 	0.46517 0.72532 0.46517 -0.44100
O 	O 	0.46604 0.77923 0.46604 -0.45400
N 	N 	0.39302 0.72897 0.39302 -0.21100
C 	C 	0.38323 0.75831 0.38323 0.04000
H 	H 	0.36720 0.75970 0.36720 0.06000
C 	C 	0.39579 0.78673 0.39579 -0.11500
H 	H 	0.38850 0.80700 0.38850 0.06800
C 	C 	0.41949 0.78449 0.41949 0.05200
H 	H 	0.42840 0.80340 0.42840 0.02400
C 	C 	0.43004 0.75456 0.43004 -0.13400
C 	C 	0.41612 0.72732 0.41612 0.07000
H 	H 	0.42310 0.70680 0.42310 0.03000
C 	C 	0.45572 0.75247 0.45572 0.38400
Ni	Ni	0.37177 0.18739 0.87177 1.12200
O 	O 	0.46517 0.22532 0.96517 -0.43700
O 	O 	0.46604 0.27923 0.96604 -0.45000
N 	N 	0.39302 0.22897 0.89302 -0.21100
C 	C 	0.38323 0.25831 0.88323 0.04000
H 	H 	0.36720 0.25970 0.86720 0.06000
C 	C 	0.39579 0.28673 0.89579 -0.11400
H 	H 	0.38850 0.30700 0.88850 0.06900
C 	C 	0.41949 0.28449 0.91949 0.05200
H 	H 	0.42840 0.30340 0.92840 0.02500
C 	C 	0.43004 0.25456 0.93004 -0.13300
C 	C 	0.41612 0.22732 0.91612 0.06900
H 	H 	0.42310 0.20680 0.92310 0.03100
C 	C 	0.45572 0.25247 0.95572 0.38400
Ni	Ni	0.87177 0.68739 0.87177 1.12200
O 	O 	0.96517 0.72532 0.96517 -0.43200
O 	O 	0.96604 0.77923 0.96604 -0.44500
N 	N 	0.89302 0.72897 0.89302 -0.21100
C 	C 	0.88323 0.75831 0.88323 0.04000
H 	H 	0.86720 0.75970 0.86720 0.06000
C 	C 	0.89579 0.78673 0.89579 -0.11300
H 	H 	0.88850 0.80700 0.88850 0.06900
C 	C 	0.91949 0.78449 0.91949 0.05100
H 	H 	0.92840 0.80340 0.92840 0.02700
C 	C 	0.93004 0.75456 0.93004 -0.13100
C 	C 	0.91612 0.72732 0.91612 0.06900
H 	H 	0.92310 0.70680 0.92310 0.03200
C 	C 	0.95572 0.75247 0.95572 0.38300
Ni	Ni	0.87177 0.18739 0.37177 1.12200
O 	O 	0.96517 0.22532 0.46517 -0.43700
O 	O 	0.96604 0.27923 0.46604 -0.45000
N 	N 	0.89302 0.22897 0.39302 -0.21100
C 	C 	0.88323 0.25831 0.38323 0.04000
H 	H 	0.86720 0.25970 0.36720 0.06000
C 	C 	0.89579 0.28673 0.39579 -0.11400
H 	H 	0.88850 0.30700 0.38850 0.06900
C 	C 	0.91949 0.28449 0.41949 0.05200
H 	H 	0.92840 0.30340 0.42840 0.02500
C 	C 	0.93004 0.25456 0.43004 -0.13300
C 	C 	0.91612 0.22732 0.41612 0.06900
H 	H 	0.92310 0.20680 0.42310 0.03100
C 	C 	0.95572 0.25247 0.45572 0.38400
Ni	Ni	0.62823 0.31261 0.37177 1.12200
O 	O 	0.53483 0.27468 0.46517 -0.44100
O 	O 	0.53396 0.22077 0.46604 -0.45500
N 	N 	0.60698 0.27103 0.39302 -0.21100
C 	C 	0.61677 0.24169 0.38323 0.04000
H 	H 	0.63280 0.24030 0.36720 0.06000
C 	C 	0.60421 0.21327 0.39579 -0.11500
H 	H 	0.61150 0.19300 0.38850 0.06800
C 	C 	0.58051 0.21551 0.41949 0.05200
H 	H 	0.57160 0.19660 0.42840 0.02300
C 	C 	0.56996 0.24544 0.43004 -0.13400
C 	C 	0.58388 0.27268 0.41612 0.07000
H 	H 	0.57690 0.29320 0.42310 0.03000
C 	C 	0.54428 0.24753 0.45572 0.38500
Ni	Ni	0.62823 0.81261 0.87177 1.12200
O 	O 	0.53483 0.77468 0.96517 -0.43700
O 	O 	0.53396 0.72077 0.96604 -0.45000
N 	N 	0.60698 0.77103 0.89302 -0.21100
C 	C 	0.61677 0.74169 0.88323 0.04000
H 	H 	0.63280 0.74030 0.86720 0.06000
C 	C 	0.60421 0.71327 0.89579 -0.11400
H 	H 	0.61150 0.69300 0.88850 0.06800
C 	C 	0.58051 0.71551 0.91949 0.05100
H 	H 	0.57160 0.69660 0.92840 0.02500
C 	C 	0.56996 0.74544 0.93004 -0.13200
C 	C 	0.58388 0.77268 0.91612 0.06900
H 	H 	0.57690 0.79320 0.92310 0.03100
C 	C 	0.54428 0.74753 0.95572 0.38400
Ni	Ni	0.12823 0.31261 0.87177 1.12200
O 	O 	0.03483 0.27468 0.96517 -0.43900
O 	O 	0.03396 0.22077 0.96604 -0.45200
N 	N 	0.10698 0.27103 0.89302 -0.21100
C 	C 	0.11677 0.24169 0.88323 0.04000
H 	H 	0.13280 0.24030 0.86720 0.06000
C 	C 	0.10421 0.21327 0.89579 -0.11500
H 	H 	0.11150 0.19300 0.88850 0.06800
C 	C 	0.08051 0.21551 0.91949 0.05200
H 	H 	0.07160 0.19660 0.92840 0.02400
C 	C 	0.06996 0.24544 0.93004 -0.13400
C 	C 	0.08388 0.27268 0.91612 0.06900
H 	H 	0.07690 0.29320 0.92310 0.03000
C 	C 	0.04428 0.24753 0.95572 0.38400
Ni	Ni	0.12823 0.81261 0.37177 1.12200
O 	O 	0.03483 0.77468 0.46517 -0.44400
O 	O 	0.03396 0.72077 0.46604 -0.45700
N 	N 	0.10698 0.77103 0.39302 -0.21200
C 	C 	0.11677 0.74169 0.38323 0.04000
H 	H 	0.13280 0.74030 0.36720 0.06000
C 	C 	0.10421 0.71327 0.39579 -0.11600
H 	H 	0.11150 0.69300 0.38850 0.06800
C 	C 	0.08051 0.71551 0.41949 0.05200
H 	H 	0.07160 0.69660 0.42840 0.02200
C 	C 	0.06996 0.74544 0.43004 -0.13500
C 	C 	0.08388 0.77268 0.41612 0.06900
H 	H 	0.07690 0.79320 0.42310 0.02900
C 	C 	0.04428 0.74753 0.45572 0.38500
Ni	Ni	0.37177 0.31261 0.62823 1.12200
O 	O 	0.46517 0.27468 0.53483 -0.44100
O 	O 	0.46604 0.22077 0.53396 -0.45500
N 	N 	0.39302 0.27103 0.60698 -0.21100
C 	C 	0.38323 0.24169 0.61677 0.04000
H 	H 	0.36720 0.24030 0.63280 0.06000
C 	C 	0.39579 0.21327 0.60421 -0.11500
H 	H 	0.38850 0.19300 0.61150 0.06800
C 	C 	0.41949 0.21551 0.58051 0.05200
H 	H 	0.42840 0.19660 0.57160 0.02300
C 	C 	0.43004 0.24544 0.56996 -0.13400
C 	C 	0.41612 0.27268 0.58388 0.07000
H 	H 	0.42310 0.29320 0.57690 0.03000
C 	C 	0.45572 0.24753 0.54428 0.38500
Ni	Ni	0.37177 0.81261 0.12823 1.12200
O 	O 	0.46517 0.77468 0.03483 -0.44400
O 	O 	0.46604 0.72077 0.03396 -0.45700
N 	N 	0.39302 0.77103 0.10698 -0.21200
C 	C 	0.38323 0.74169 0.11677 0.04000
H 	H 	0.36720 0.74030 0.13280 0.06000
C 	C 	0.39579 0.71327 0.10421 -0.11600
H 	H 	0.38850 0.69300 0.11150 0.06800
C 	C 	0.41949 0.71551 0.08051 0.05200
H 	H 	0.42840 0.69660 0.07160 0.02200
C 	C 	0.43004 0.74544 0.06996 -0.13500
C 	C 	0.41612 0.77268 0.08388 0.06900
H 	H 	0.42310 0.79320 0.07690 0.02900
C 	C 	0.45572 0.74753 0.04428 0.38500
Ni	Ni	0.87177 0.31261 0.12823 1.12200
O 	O 	0.96517 0.27468 0.03483 -0.43900
O 	O 	0.96604 0.22077 0.03396 -0.45200
N 	N 	0.89302 0.27103 0.10698 -0.21100
C 	C 	0.88323 0.24169 0.11677 0.04000
H 	H 	0.86720 0.24030 0.13280 0.06000
C 	C 	0.89579 0.21327 0.10421 -0.11500
H 	H 	0.88850 0.19300 0.11150 0.06800
C 	C 	0.91949 0.21551 0.08051 0.05200
H 	H 	0.92840 0.19660 0.07160 0.02400
C 	C 	0.93004 0.24544 0.06996 -0.13400
C 	C 	0.91612 0.27268 0.08388 0.06900
H 	H 	0.92310 0.29320 0.07690 0.03000
C 	C 	0.95572 0.24753 0.04428 0.38400
Ni	Ni	0.87177 0.81261 0.62823 1.12200
O 	O 	0.96517 0.77468 0.53483 -0.43700
O 	O 	0.96604 0.72077 0.53396 -0.45000
N 	N 	0.89302 0.77103 0.60698 -0.21100
C 	C 	0.88323 0.74169 0.61677 0.04000
H 	H 	0.86720 0.74030 0.63280 0.06000
C 	C 	0.89579 0.71327 0.60421 -0.11400
H 	H 	0.88850 0.69300 0.61150 0.06800
C 	C 	0.91949 0.71551 0.58051 0.05100
H 	H 	0.92840 0.69660 0.57160 0.02500
C 	C 	0.93004 0.74544 0.56996 -0.13200
C 	C 	0.91612 0.77268 0.58388 0.06900
H 	H 	0.92310 0.79320 0.57690 0.03100
C 	C 	0.95572 0.74753 0.54428 0.38400
Ni	Ni	0.62823 0.68739 0.62823 1.12200
O 	O 	0.53483 0.72532 0.53483 -0.44100
O 	O 	0.53396 0.77923 0.53396 -0.45400
N 	N 	0.60698 0.72897 0.60698 -0.21100
C 	C 	0.61677 0.75831 0.61677 0.04000
H 	H 	0.63280 0.75970 0.63280 0.06000
C 	C 	0.60421 0.78673 0.60421 -0.11500
H 	H 	0.61150 0.80700 0.61150 0.06800
C 	C 	0.58051 0.78449 0.58051 0.05200
H 	H 	0.57160 0.80340 0.57160 0.02400
C 	C 	0.56996 0.75456 0.56996 -0.13400
C 	C 	0.58388 0.72732 0.58388 0.06900
H 	H 	0.57690 0.70680 0.57690 0.03000
C 	C 	0.54428 0.75247 0.54428 0.38400
Ni	Ni	0.62823 0.18739 0.12823 1.12200
O 	O 	0.53483 0.22532 0.03483 -0.44400
O 	O 	0.53396 0.27923 0.03396 -0.45700
N 	N 	0.60698 0.22897 0.10698 -0.21200
C 	C 	0.61677 0.25831 0.11677 0.04000
H 	H 	0.63280 0.25970 0.13280 0.06000
C 	C 	0.60421 0.28673 0.10421 -0.11600
H 	H 	0.61150 0.30700 0.11150 0.06800
C 	C 	0.58051 0.28449 0.08051 0.05200
H 	H 	0.57160 0.30340 0.07160 0.02200
C 	C 	0.56996 0.25456 0.06996 -0.13600
C 	C 	0.58388 0.22732 0.08388 0.07000
H 	H 	0.57690 0.20680 0.07690 0.02900
C 	C 	0.54428 0.25247 0.04428 0.38500
Ni	Ni	0.12823 0.68739 0.12823 1.12100
O 	O 	0.03483 0.72532 0.03483 -0.44600
O 	O 	0.03396 0.77923 0.03396 -0.45900
N 	N 	0.10698 0.72897 0.10698 -0.21200
C 	C 	0.11677 0.75831 0.11677 0.04000
H 	H 	0.13280 0.75970 0.13280 0.06000
C 	C 	0.10421 0.78673 0.10421 -0.11600
H 	H 	0.11150 0.80700 0.11150 0.06800
C 	C 	0.08051 0.78449 0.08051 0.05200
H 	H 	0.07160 0.80340 0.07160 0.02200
C 	C 	0.06996 0.75456 0.06996 -0.13700
C 	C 	0.08388 0.72732 0.08388 0.07000
H 	H 	0.07690 0.70680 0.07690 0.02800
C 	C 	0.04428 0.75247 0.04428 0.38500
Ni	Ni	0.12823 0.18739 0.62823 1.12200
O 	O 	0.03483 0.22532 0.53483 -0.44400
O 	O 	0.03396 0.27923 0.53396 -0.45700
N 	N 	0.10698 0.22897 0.60698 -0.21200
C 	C 	0.11677 0.25831 0.61677 0.04000
H 	H 	0.13280 0.25970 0.63280 0.06000
C 	C 	0.10421 0.28673 0.60421 -0.11600
H 	H 	0.11150 0.30700 0.61150 0.06800
C 	C 	0.08051 0.28449 0.58051 0.05200
H 	H 	0.07160 0.30340 0.57160 0.02200
C 	C 	0.06996 0.25456 0.56996 -0.13600
C 	C 	0.08388 0.22732 0.58388 0.07000
H 	H 	0.07690 0.20680 0.57690 0.02900
C 	C 	0.04428 0.25247 0.54428 0.38500
Ni	Ni	0.68739 0.62823 0.62823 1.12200
O 	O 	0.72532 0.53483 0.53483 -0.44100
O 	O 	0.77923 0.53396 0.53396 -0.45400
N 	N 	0.72897 0.60698 0.60698 -0.21100
C 	C 	0.75831 0.61677 0.61677 0.04000
H 	H 	0.75970 0.63280 0.63280 0.06000
C 	C 	0.78673 0.60421 0.60421 -0.11500
H 	H 	0.80700 0.61150 0.61150 0.06800
C 	C 	0.78449 0.58051 0.58051 0.05200
H 	H 	0.80340 0.57160 0.57160 0.02400
C 	C 	0.75456 0.56996 0.56996 -0.13400
C 	C 	0.72732 0.58388 0.58388 0.06900
H 	H 	0.70680 0.57690 0.57690 0.03000
C 	C 	0.75247 0.54428 0.54428 0.38400
Ni	Ni	0.68739 0.12823 0.12823 1.12100
O 	O 	0.72532 0.03483 0.03483 -0.44600
O 	O 	0.77923 0.03396 0.03396 -0.45900
N 	N 	0.72897 0.10698 0.10698 -0.21200
C 	C 	0.75831 0.11677 0.11677 0.04000
H 	H 	0.75970 0.13280 0.13280 0.06000
C 	C 	0.78673 0.10421 0.10421 -0.11600
H 	H 	0.80700 0.11150 0.11150 0.06800
C 	C 	0.78449 0.08051 0.08051 0.05200
H 	H 	0.80340 0.07160 0.07160 0.02200
C 	C 	0.75456 0.06996 0.06996 -0.13700
C 	C 	0.72732 0.08388 0.08388 0.07000
H 	H 	0.70680 0.07690 0.07690 0.02800
C 	C 	0.75247 0.04428 0.04428 0.38500
Ni	Ni	0.18739 0.62823 0.12823 1.12200
O 	O 	0.22532 0.53483 0.03483 -0.44400
O 	O 	0.27923 0.53396 0.03396 -0.45700
N 	N 	0.22897 0.60698 0.10698 -0.21200
C 	C 	0.25831 0.61677 0.11677 0.04000
H 	H 	0.25970 0.63280 0.13280 0.06000
C 	C 	0.28673 0.60421 0.10421 -0.11600
H 	H 	0.30700 0.61150 0.11150 0.06800
C 	C 	0.28449 0.58051 0.08051 0.05200
H 	H 	0.30340 0.57160 0.07160 0.02200
C 	C 	0.25456 0.56996 0.06996 -0.13600
C 	C 	0.22732 0.58388 0.08388 0.07000
H 	H 	0.20680 0.57690 0.07690 0.02900
C 	C 	0.25247 0.54428 0.04428 0.38500
Ni	Ni	0.18739 0.12823 0.62823 1.12200
O 	O 	0.22532 0.03483 0.53483 -0.44400
O 	O 	0.27923 0.03396 0.53396 -0.45700
N 	N 	0.22897 0.10698 0.60698 -0.21200
C 	C 	0.25831 0.11677 0.61677 0.04000
H 	H 	0.25970 0.13280 0.63280 0.06000
C 	C 	0.28673 0.10421 0.60421 -0.11600
H 	H 	0.30700 0.11150 0.61150 0.06800
C 	C 	0.28449 0.08051 0.58051 0.05200
H 	H 	0.30340 0.07160 0.57160 0.02200
C 	C 	0.25456 0.06996 0.56996 -0.13600
C 	C 	0.22732 0.08388 0.58388 0.07000
H 	H 	0.20680 0.07690 0.57690 0.02900
C 	C 	0.25247 0.04428 0.54428 0.38500
Ni	Ni	0.31261 0.62823 0.37177 1.12200
O 	O 	0.27468 0.53483 0.46517 -0.44100
O 	O 	0.22077 0.53396 0.46604 -0.45500
N 	N 	0.27103 0.60698 0.39302 -0.21100
C 	C 	0.24169 0.61677 0.38323 0.04000
H 	H 	0.24030 0.63280 0.36720 0.06000
C 	C 	0.21327 0.60421 0.39579 -0.11500
H 	H 	0.19300 0.61150 0.38850 0.06800
C 	C 	0.21551 0.58051 0.41949 0.05200
H 	H 	0.19660 0.57160 0.42840 0.02300
C 	C 	0.24544 0.56996 0.43004 -0.13400
C 	C 	0.27268 0.58388 0.41612 0.07000
H 	H 	0.29320 0.57690 0.42310 0.03000
C 	C 	0.24753 0.54428 0.45572 0.38500
Ni	Ni	0.31261 0.12823 0.87177 1.12200
O 	O 	0.27468 0.03483 0.96517 -0.43900
O 	O 	0.22077 0.03396 0.96604 -0.45200
N 	N 	0.27103 0.10698 0.89302 -0.21100
C 	C 	0.24169 0.11677 0.88323 0.04000
H 	H 	0.24030 0.13280 0.86720 0.06000
C 	C 	0.21327 0.10421 0.89579 -0.11500
H 	H 	0.19300 0.11150 0.88850 0.06800
C 	C 	0.21551 0.08051 0.91949 0.05200
H 	H 	0.19660 0.07160 0.92840 0.02400
C 	C 	0.24544 0.06996 0.93004 -0.13400
C 	C 	0.27268 0.08388 0.91612 0.06900
H 	H 	0.29320 0.07690 0.92310 0.03000
C 	C 	0.24753 0.04428 0.95572 0.38400
Ni	Ni	0.81261 0.62823 0.87177 1.12200
O 	O 	0.77468 0.53483 0.96517 -0.43700
O 	O 	0.72077 0.53396 0.96604 -0.45000
N 	N 	0.77103 0.60698 0.89302 -0.21100
C 	C 	0.74169 0.61677 0.88323 0.04000
H 	H 	0.74030 0.63280 0.86720 0.06000
C 	C 	0.71327 0.60421 0.89579 -0.11400
H 	H 	0.69300 0.61150 0.88850 0.06800
C 	C 	0.71551 0.58051 0.91949 0.05100
H 	H 	0.69660 0.57160 0.92840 0.02500
C 	C 	0.74544 0.56996 0.93004 -0.13200
C 	C 	0.77268 0.58388 0.91612 0.06900
H 	H 	0.79320 0.57690 0.92310 0.03100
C 	C 	0.74753 0.54428 0.95572 0.38400
Ni	Ni	0.81261 0.12823 0.37177 1.12200
O 	O 	0.77468 0.03483 0.46517 -0.44400
O 	O 	0.72077 0.03396 0.46604 -0.45700
N 	N 	0.77103 0.10698 0.39302 -0.21200
C 	C 	0.74169 0.11677 0.38323 0.04000
H 	H 	0.74030 0.13280 0.36720 0.06000
C 	C 	0.71327 0.10421 0.39579 -0.11600
H 	H 	0.69300 0.11150 0.38850 0.06800
C 	C 	0.71551 0.08051 0.41949 0.05200
H 	H 	0.69660 0.07160 0.42840 0.02200
C 	C 	0.74544 0.06996 0.43004 -0.13500
C 	C 	0.77268 0.08388 0.41612 0.06900
H 	H 	0.79320 0.07690 0.42310 0.02900
C 	C 	0.74753 0.04428 0.45572 0.38500
Ni	Ni	0.31261 0.37177 0.62823 1.12200
O 	O 	0.27468 0.46517 0.53483 -0.44100
O 	O 	0.22077 0.46604 0.53396 -0.45500
N 	N 	0.27103 0.39302 0.60698 -0.21100
C 	C 	0.24169 0.38323 0.61677 0.04000
H 	H 	0.24030 0.36720 0.63280 0.06000
C 	C 	0.21327 0.39579 0.60421 -0.11500
H 	H 	0.19300 0.38850 0.61150 0.06800
C 	C 	0.21551 0.41949 0.58051 0.05200
H 	H 	0.19660 0.42840 0.57160 0.02300
C 	C 	0.24544 0.43004 0.56996 -0.13400
C 	C 	0.27268 0.41612 0.58388 0.07000
H 	H 	0.29320 0.42310 0.57690 0.03000
C 	C 	0.24753 0.45572 0.54428 0.38500
Ni	Ni	0.31261 0.87177 0.12823 1.12200
O 	O 	0.27468 0.96517 0.03483 -0.43900
O 	O 	0.22077 0.96604 0.03396 -0.45200
N 	N 	0.27103 0.89302 0.10698 -0.21100
C 	C 	0.24169 0.88323 0.11677 0.04000
H 	H 	0.24030 0.86720 0.13280 0.06000
C 	C 	0.21327 0.89579 0.10421 -0.11500
H 	H 	0.19300 0.88850 0.11150 0.06800
C 	C 	0.21551 0.91949 0.08051 0.05200
H 	H 	0.19660 0.92840 0.07160 0.02400
C 	C 	0.24544 0.93004 0.06996 -0.13400
C 	C 	0.27268 0.91612 0.08388 0.06900
H 	H 	0.29320 0.92310 0.07690 0.03000
C 	C 	0.24753 0.95572 0.04428 0.38400
Ni	Ni	0.81261 0.37177 0.12823 1.12200
O 	O 	0.77468 0.46517 0.03483 -0.44400
O 	O 	0.72077 0.46604 0.03396 -0.45700
N 	N 	0.77103 0.39302 0.10698 -0.21200
C 	C 	0.74169 0.38323 0.11677 0.04000
H 	H 	0.74030 0.36720 0.13280 0.06000
C 	C 	0.71327 0.39579 0.10421 -0.11600
H 	H 	0.69300 0.38850 0.11150 0.06800
C 	C 	0.71551 0.41949 0.08051 0.05200
H 	H 	0.69660 0.42840 0.07160 0.02200
C 	C 	0.74544 0.43004 0.06996 -0.13500
C 	C 	0.77268 0.41612 0.08388 0.06900
H 	H 	0.79320 0.42310 0.07690 0.02900
C 	C 	0.74753 0.45572 0.04428 0.38500
Ni	Ni	0.81261 0.87177 0.62823 1.12200
O 	O 	0.77468 0.96517 0.53483 -0.43700
O 	O 	0.72077 0.96604 0.53396 -0.45000
N 	N 	0.77103 0.89302 0.60698 -0.21100
C 	C 	0.74169 0.88323 0.61677 0.04000
H 	H 	0.74030 0.86720 0.63280 0.06000
C 	C 	0.71327 0.89579 0.60421 -0.11400
H 	H 	0.69300 0.88850 0.61150 0.06800
C 	C 	0.71551 0.91949 0.58051 0.05100
H 	H 	0.69660 0.92840 0.57160 0.02500
C 	C 	0.74544 0.93004 0.56996 -0.13200
C 	C 	0.77268 0.91612 0.58388 0.06900
H 	H 	0.79320 0.92310 0.57690 0.03100
C 	C 	0.74753 0.95572 0.54428 0.38400
Ni	Ni	0.68739 0.37177 0.37177 1.12200
O 	O 	0.72532 0.46517 0.46517 -0.44100
O 	O 	0.77923 0.46604 0.46604 -0.45400
N 	N 	0.72897 0.39302 0.39302 -0.21100
C 	C 	0.75831 0.38323 0.38323 0.04000
H 	H 	0.75970 0.36720 0.36720 0.06000
C 	C 	0.78673 0.39579 0.39579 -0.11500
H 	H 	0.80700 0.38850 0.38850 0.06800
C 	C 	0.78449 0.41949 0.41949 0.05200
H 	H 	0.80340 0.42840 0.42840 0.02400
C 	C 	0.75456 0.43004 0.43004 -0.13400
C 	C 	0.72732 0.41612 0.41612 0.07000
H 	H 	0.70680 0.42310 0.42310 0.03000
C 	C 	0.75247 0.45572 0.45572 0.38400
Ni	Ni	0.68739 0.87177 0.87177 1.12200
O 	O 	0.72532 0.96517 0.96517 -0.43200
O 	O 	0.77923 0.96604 0.96604 -0.44500
N 	N 	0.72897 0.89302 0.89302 -0.21100
C 	C 	0.75831 0.88323 0.88323 0.04000
H 	H 	0.75970 0.86720 0.86720 0.06000
C 	C 	0.78673 0.89579 0.89579 -0.11300
H 	H 	0.80700 0.88850 0.88850 0.06900
C 	C 	0.78449 0.91949 0.91949 0.05100
H 	H 	0.80340 0.92840 0.92840 0.02700
C 	C 	0.75456 0.93004 0.93004 -0.13100
C 	C 	0.72732 0.91612 0.91612 0.06900
H 	H 	0.70680 0.92310 0.92310 0.03200
C 	C 	0.75247 0.95572 0.95572 0.38300
Ni	Ni	0.18739 0.37177 0.87177 1.12200
O 	O 	0.22532 0.46517 0.96517 -0.43700
O 	O 	0.27923 0.46604 0.96604 -0.45000
N 	N 	0.22897 0.39302 0.89302 -0.21100
C 	C 	0.25831 0.38323 0.88323 0.04000
H 	H 	0.25970 0.36720 0.86720 0.06000
C 	C 	0.28673 0.39579 0.89579 -0.11400
H 	H 	0.30700 0.38850 0.88850 0.06900
C 	C 	0.28449 0.41949 0.91949 0.05200
H 	H 	0.30340 0.42840 0.92840 0.02500
C 	C 	0.25456 0.43004 0.93004 -0.13300
C 	C 	0.22732 0.41612 0.91612 0.06900
H 	H 	0.20680 0.42310 0.92310 0.03100
C 	C 	0.25247 0.45572 0.95572 0.38400
Ni	Ni	0.18739 0.87177 0.37177 1.12200
O 	O 	0.22532 0.96517 0.46517 -0.43700
O 	O 	0.27923 0.96604 0.46604 -0.45000
N 	N 	0.22897 0.89302 0.39302 -0.21100
C 	C 	0.25831 0.88323 0.38323 0.04000
H 	H 	0.25970 0.86720 0.36720 0.06000
C 	C 	0.28673 0.89579 0.39579 -0.11400
H 	H 	0.30700 0.88850 0.38850 0.06900
C 	C 	0.28449 0.91949 0.41949 0.05200
H 	H 	0.30340 0.92840 0.42840 0.02500
C 	C 	0.25456 0.93004 0.43004 -0.13300
C 	C 	0.22732 0.91612 0.41612 0.06900
H 	H 	0.20680 0.92310 0.42310 0.03100
C 	C 	0.25247 0.95572 0.45572 0.38400
Ni	Ni	0.62823 0.37177 0.31261 1.12200
O 	O 	0.53483 0.46517 0.27468 -0.44100
O 	O 	0.53396 0.46604 0.22077 -0.45500
N 	N 	0.60698 0.39302 0.27103 -0.21100
C 	C 	0.61677 0.38323 0.24169 0.04000
H 	H 	0.63280 0.36720 0.24030 0.06000
C 	C 	0.60421 0.39579 0.21327 -0.11500
H 	H 	0.61150 0.38850 0.19300 0.06800
C 	C 	0.58051 0.41949 0.21551 0.05200
H 	H 	0.57160 0.42840 0.19660 0.02300
C 	C 	0.56996 0.43004 0.24544 -0.13400
C 	C 	0.58388 0.41612 0.27268 0.07000
H 	H 	0.57690 0.42310 0.29320 0.03000
C 	C 	0.54428 0.45572 0.24753 0.38500
Ni	Ni	0.62823 0.87177 0.81261 1.12200
O 	O 	0.53483 0.96517 0.77468 -0.43700
O 	O 	0.53396 0.96604 0.72077 -0.45000
N 	N 	0.60698 0.89302 0.77103 -0.21100
C 	C 	0.61677 0.88323 0.74169 0.04000
H 	H 	0.63280 0.86720 0.74030 0.06000
C 	C 	0.60421 0.89579 0.71327 -0.11400
H 	H 	0.61150 0.88850 0.69300 0.06800
C 	C 	0.58051 0.91949 0.71551 0.05100
H 	H 	0.57160 0.92840 0.69660 0.02500
C 	C 	0.56996 0.93004 0.74544 -0.13200
C 	C 	0.58388 0.91612 0.77268 0.06900
H 	H 	0.57690 0.92310 0.79320 0.03100
C 	C 	0.54428 0.95572 0.74753 0.38400
Ni	Ni	0.12823 0.37177 0.81261 1.12200
O 	O 	0.03483 0.46517 0.77468 -0.44400
O 	O 	0.03396 0.46604 0.72077 -0.45700
N 	N 	0.10698 0.39302 0.77103 -0.21200
C 	C 	0.11677 0.38323 0.74169 0.04000
H 	H 	0.13280 0.36720 0.74030 0.06000
C 	C 	0.10421 0.39579 0.71327 -0.11600
H 	H 	0.11150 0.38850 0.69300 0.06800
C 	C 	0.08051 0.41949 0.71551 0.05200
H 	H 	0.07160 0.42840 0.69660 0.02200
C 	C 	0.06996 0.43004 0.74544 -0.13500
C 	C 	0.08388 0.41612 0.77268 0.06900
H 	H 	0.07690 0.42310 0.79320 0.02900
C 	C 	0.04428 0.45572 0.74753 0.38500
Ni	Ni	0.12823 0.87177 0.31261 1.12200
O 	O 	0.03483 0.96517 0.27468 -0.43900
O 	O 	0.03396 0.96604 0.22077 -0.45200
N 	N 	0.10698 0.89302 0.27103 -0.21100
C 	C 	0.11677 0.88323 0.24169 0.04000
H 	H 	0.13280 0.86720 0.24030 0.06000
C 	C 	0.10421 0.89579 0.21327 -0.11500
H 	H 	0.11150 0.88850 0.19300 0.06800
C 	C 	0.08051 0.91949 0.21551 0.05200
H 	H 	0.07160 0.92840 0.19660 0.02400
C 	C 	0.06996 0.93004 0.24544 -0.13400
C 	C 	0.08388 0.91612 0.27268 0.06900
H 	H 	0.07690 0.92310 0.29320 0.03000
C 	C 	0.04428 0.95572 0.24753 0.38400
Ni	Ni	0.62823 0.62823 0.68739 1.12200
O 	O 	0.53483 0.53483 0.72532 -0.44100
O 	O 	0.53396 0.53396 0.77923 -0.45400
N 	N 	0.60698 0.60698 0.72897 -0.21100
C 	C 	0.61677 0.61677 0.75831 0.04000
H 	H 	0.63280 0.63280 0.75970 0.06000
C 	C 	0.60421 0.60421 0.78673 -0.11500
H 	H 	0.61150 0.61150 0.80700 0.06800
C 	C 	0.58051 0.58051 0.78449 0.05200
H 	H 	0.57160 0.57160 0.80340 0.02400
C 	C 	0.56996 0.56996 0.75456 -0.13400
C 	C 	0.58388 0.58388 0.72732 0.06900
H 	H 	0.57690 0.57690 0.70680 0.03000
C 	C 	0.54428 0.54428 0.75247 0.38400
Ni	Ni	0.62823 0.12823 0.18739 1.12200
O 	O 	0.53483 0.03483 0.22532 -0.44400
O 	O 	0.53396 0.03396 0.27923 -0.45700
N 	N 	0.60698 0.10698 0.22897 -0.21200
C 	C 	0.61677 0.11677 0.25831 0.04000
H 	H 	0.63280 0.13280 0.25970 0.06000
C 	C 	0.60421 0.10421 0.28673 -0.11600
H 	H 	0.61150 0.11150 0.30700 0.06800
C 	C 	0.58051 0.08051 0.28449 0.05200
H 	H 	0.57160 0.07160 0.30340 0.02200
C 	C 	0.56996 0.06996 0.25456 -0.13600
C 	C 	0.58388 0.08388 0.22732 0.07000
H 	H 	0.57690 0.07690 0.20680 0.02900
C 	C 	0.54428 0.04428 0.25247 0.38500
Ni	Ni	0.12823 0.62823 0.18739 1.12200
O 	O 	0.03483 0.53483 0.22532 -0.44400
O 	O 	0.03396 0.53396 0.27923 -0.45700
N 	N 	0.10698 0.60698 0.22897 -0.21200
C 	C 	0.11677 0.61677 0.25831 0.04000
H 	H 	0.13280 0.63280 0.25970 0.06000
C 	C 	0.10421 0.60421 0.28673 -0.11600
H 	H 	0.11150 0.61150 0.30700 0.06800
C 	C 	0.08051 0.58051 0.28449 0.05200
H 	H 	0.07160 0.57160 0.30340 0.02200
C 	C 	0.06996 0.56996 0.25456 -0.13600
C 	C 	0.08388 0.58388 0.22732 0.07000
H 	H 	0.07690 0.57690 0.20680 0.02900
C 	C 	0.04428 0.54428 0.25247 0.38500
Ni	Ni	0.12823 0.12823 0.68739 1.12100
O 	O 	0.03483 0.03483 0.72532 -0.44600
O 	O 	0.03396 0.03396 0.77923 -0.45900
N 	N 	0.10698 0.10698 0.72897 -0.21200
C 	C 	0.11677 0.11677 0.75831 0.04000
H 	H 	0.13280 0.13280 0.75970 0.06000
C 	C 	0.10421 0.10421 0.78673 -0.11600
H 	H 	0.11150 0.11150 0.80700 0.06800
C 	C 	0.08051 0.08051 0.78449 0.05200
H 	H 	0.07160 0.07160 0.80340 0.02200
C 	C 	0.06996 0.06996 0.75456 -0.13700
C 	C 	0.08388 0.08388 0.72732 0.07000
H 	H 	0.07690 0.07690 0.70680 0.02800
C 	C 	0.04428 0.04428 0.75247 0.38500
Ni	Ni	0.37177 0.37177 0.68739 1.12200
O 	O 	0.46517 0.46517 0.72532 -0.44100
O 	O 	0.46604 0.46604 0.77923 -0.45400
N 	N 	0.39302 0.39302 0.72897 -0.21100
C 	C 	0.38323 0.38323 0.75831 0.04000
H 	H 	0.36720 0.36720 0.75970 0.06000
C 	C 	0.39579 0.39579 0.78673 -0.11500
H 	H 	0.38850 0.38850 0.80700 0.06800
C 	C 	0.41949 0.41949 0.78449 0.05200
H 	H 	0.42840 0.42840 0.80340 0.02400
C 	C 	0.43004 0.43004 0.75456 -0.13400
C 	C 	0.41612 0.41612 0.72732 0.07000
H 	H 	0.42310 0.42310 0.70680 0.03000
C 	C 	0.45572 0.45572 0.75247 0.38400
Ni	Ni	0.37177 0.87177 0.18739 1.12200
O 	O 	0.46517 0.96517 0.22532 -0.43700
O 	O 	0.46604 0.96604 0.27923 -0.45000
N 	N 	0.39302 0.89302 0.22897 -0.21100
C 	C 	0.38323 0.88323 0.25831 0.04000
H 	H 	0.36720 0.86720 0.25970 0.06000
C 	C 	0.39579 0.89579 0.28673 -0.11400
H 	H 	0.38850 0.88850 0.30700 0.06900
C 	C 	0.41949 0.91949 0.28449 0.05200
H 	H 	0.42840 0.92840 0.30340 0.02500
C 	C 	0.43004 0.93004 0.25456 -0.13300
C 	C 	0.41612 0.91612 0.22732 0.06900
H 	H 	0.42310 0.92310 0.20680 0.03100
C 	C 	0.45572 0.95572 0.25247 0.38400
Ni	Ni	0.87177 0.37177 0.18739 1.12200
O 	O 	0.96517 0.46517 0.22532 -0.43700
O 	O 	0.96604 0.46604 0.27923 -0.45000
N 	N 	0.89302 0.39302 0.22897 -0.21100
C 	C 	0.88323 0.38323 0.25831 0.04000
H 	H 	0.86720 0.36720 0.25970 0.06000
C 	C 	0.89579 0.39579 0.28673 -0.11400
H 	H 	0.88850 0.38850 0.30700 0.06900
C 	C 	0.91949 0.41949 0.28449 0.05200
H 	H 	0.92840 0.42840 0.30340 0.02500
C 	C 	0.93004 0.43004 0.25456 -0.13300
C 	C 	0.91612 0.41612 0.22732 0.06900
H 	H 	0.92310 0.42310 0.20680 0.03100
C 	C 	0.95572 0.45572 0.25247 0.38400
Ni	Ni	0.87177 0.87177 0.68739 1.12200
O 	O 	0.96517 0.96517 0.72532 -0.43200
O 	O 	0.96604 0.96604 0.77923 -0.44500
N 	N 	0.89302 0.89302 0.72897 -0.21100
C 	C 	0.88323 0.88323 0.75831 0.04000
H 	H 	0.86720 0.86720 0.75970 0.06000
C 	C 	0.89579 0.89579 0.78673 -0.11300
H 	H 	0.88850 0.88850 0.80700 0.06900
C 	C 	0.91949 0.91949 0.78449 0.05100
H 	H 	0.92840 0.92840 0.80340 0.02700
C 	C 	0.93004 0.93004 0.75456 -0.13100
C 	C 	0.91612 0.91612 0.72732 0.06900
H 	H 	0.92310 0.92310 0.70680 0.03200
C 	C 	0.95572 0.95572 0.75247 0.38300
Ni	Ni	0.37177 0.62823 0.31261 1.12200
O 	O 	0.46517 0.53483 0.27468 -0.44100
O 	O 	0.46604 0.53396 0.22077 -0.45500
N 	N 	0.39302 0.60698 0.27103 -0.21100
C 	C 	0.38323 0.61677 0.24169 0.04000
H 	H 	0.36720 0.63280 0.24030 0.06000
C 	C 	0.39579 0.60421 0.21327 -0.11500
H 	H 	0.38850 0.61150 0.19300 0.06800
C 	C 	0.41949 0.58051 0.21551 0.05200
H 	H 	0.42840 0.57160 0.19660 0.02300
C 	C 	0.43004 0.56996 0.24544 -0.13400
C 	C 	0.41612 0.58388 0.27268 0.07000
H 	H 	0.42310 0.57690 0.29320 0.03000
C 	C 	0.45572 0.54428 0.24753 0.38500
Ni	Ni	0.37177 0.12823 0.81261 1.12200
O 	O 	0.46517 0.03483 0.77468 -0.44400
O 	O 	0.46604 0.03396 0.72077 -0.45700
N 	N 	0.39302 0.10698 0.77103 -0.21200
C 	C 	0.38323 0.11677 0.74169 0.04000
H 	H 	0.36720 0.13280 0.74030 0.06000
C 	C 	0.39579 0.10421 0.71327 -0.11600
H 	H 	0.38850 0.11150 0.69300 0.06800
C 	C 	0.41949 0.08051 0.71551 0.05200
H 	H 	0.42840 0.07160 0.69660 0.02200
C 	C 	0.43004 0.06996 0.74544 -0.13500
C 	C 	0.41612 0.08388 0.77268 0.06900
H 	H 	0.42310 0.07690 0.79320 0.02900
C 	C 	0.45572 0.04428 0.74753 0.38500
Ni	Ni	0.87177 0.62823 0.81261 1.12200
O 	O 	0.96517 0.53483 0.77468 -0.43700
O 	O 	0.96604 0.53396 0.72077 -0.45000
N 	N 	0.89302 0.60698 0.77103 -0.21100
C 	C 	0.88323 0.61677 0.74169 0.04000
H 	H 	0.86720 0.63280 0.74030 0.06000
C 	C 	0.89579 0.60421 0.71327 -0.11400
H 	H 	0.88850 0.61150 0.69300 0.06800
C 	C 	0.91949 0.58051 0.71551 0.05100
H 	H 	0.92840 0.57160 0.69660 0.02500
C 	C 	0.93004 0.56996 0.74544 -0.13200
C 	C 	0.91612 0.58388 0.77268 0.06900
H 	H 	0.92310 0.57690 0.79320 0.03100
C 	C 	0.95572 0.54428 0.74753 0.38400
Ni	Ni	0.87177 0.12823 0.31261 1.12200
O 	O 	0.96517 0.03483 0.27468 -0.43900
O 	O 	0.96604 0.03396 0.22077 -0.45200
N 	N 	0.89302 0.10698 0.27103 -0.21100
C 	C 	0.88323 0.11677 0.24169 0.04000
H 	H 	0.86720 0.13280 0.24030 0.06000
C 	C 	0.89579 0.10421 0.21327 -0.11500
H 	H 	0.88850 0.11150 0.19300 0.06800
C 	C 	0.91949 0.08051 0.21551 0.05200
H 	H 	0.92840 0.07160 0.19660 0.02400
C 	C 	0.93004 0.06996 0.24544 -0.13400
C 	C 	0.91612 0.08388 0.27268 0.06900
H 	H 	0.92310 0.07690 0.29320 0.03000
C 	C 	0.95572 0.04428 0.24753 0.38400
Ni	Ni	0.78434 0.50000 0.50000 1.06800
Ni	Ni	0.72018 0.50000 0.50000 1.06100
Ni	Ni	0.78434 0.00000 -0.00000 1.05900
Ni	Ni	0.72018 0.00000 -0.00000 1.05200
Ni	Ni	0.28434 0.50000 -0.00000 1.06300
Ni	Ni	0.22018 0.50000 -0.00000 1.05600
Ni	Ni	0.28434 0.00000 0.50000 1.06300
Ni	Ni	0.22018 0.00000 0.50000 1.05600
Ni	Ni	0.21566 0.50000 0.50000 1.06700
Ni	Ni	0.27982 0.50000 0.50000 1.06100
Ni	Ni	0.21566 0.00000 -0.00000 1.05900
Ni	Ni	0.27982 0.00000 -0.00000 1.05300
Ni	Ni	0.71566 0.50000 -0.00000 1.06300
Ni	Ni	0.77982 0.50000 -0.00000 1.05700
Ni	Ni	0.71566 0.00000 0.50000 1.06300
Ni	Ni	0.77982 0.00000 0.50000 1.05700
Ni	Ni	0.50000 0.78434 0.50000 1.06800
Ni	Ni	0.50000 0.72018 0.50000 1.06100
Ni	Ni	0.50000 0.28434 -0.00000 1.06300
Ni	Ni	0.50000 0.22018 -0.00000 1.05600
Ni	Ni	-0.00000 0.78434 -0.00000 1.05900
Ni	Ni	-0.00000 0.72018 -0.00000 1.05200
Ni	Ni	0.00000 0.28434 0.50000 1.06300
Ni	Ni	-0.00000 0.22018 0.50000 1.05600
Ni	Ni	0.50000 0.21566 0.50000 1.06700
Ni	Ni	0.50000 0.27982 0.50000 1.06100
Ni	Ni	0.50000 0.71566 -0.00000 1.06300
Ni	Ni	0.50000 0.77982 -0.00000 1.05700
Ni	Ni	-0.00000 0.21566 -0.00000 1.05900
Ni	Ni	-0.00000 0.27982 -0.00000 1.05300
Ni	Ni	-0.00000 0.71566 0.50000 1.06300
Ni	Ni	0.00000 0.77982 0.50000 1.05700
Ni	Ni	0.50000 0.50000 0.78434 1.06800
Ni	Ni	0.50000 0.50000 0.72018 1.06100
Ni	Ni	0.50000 0.00000 0.28434 1.06300
Ni	Ni	0.50000 0.00000 0.22018 1.05600
Ni	Ni	0.00000 0.50000 0.28434 1.06300
Ni	Ni	0.00000 0.50000 0.22018 1.05600
Ni	Ni	-0.00000 0.00000 0.78434 1.05900
Ni	Ni	0.00000 0.00000 0.72018 1.05200
Ni	Ni	0.50000 0.50000 0.21566 1.06700
Ni	Ni	0.50000 0.50000 0.27982 1.06100
Ni	Ni	0.50000 0.00000 0.71566 1.06300
Ni	Ni	0.50000 0.00000 0.77982 1.05700
Ni	Ni	-0.00000 0.50000 0.71566 1.06300
Ni	Ni	-0.00000 0.50000 0.77982 1.05700
Ni	Ni	0.00000 0.00000 0.21566 1.05900
Ni	Ni	0.00000 0.00000 0.27982 1.05300
O 	O 	0.64859 0.35141 0.64859 -0.66400
H 	H 	0.66240 0.33760 0.66240 0.22400
O 	O 	0.64859 0.85141 0.14859 -0.66400
H 	H 	0.66240 0.83760 0.16240 0.22400
O 	O 	0.14859 0.35141 0.14859 -0.66400
H 	H 	0.16240 0.33760 0.16240 0.22400
O 	O 	0.14859 0.85141 0.64859 -0.66400
H 	H 	0.16240 0.83760 0.66240 0.22400
O 	O 	0.35141 0.64859 0.64859 -0.66400
H 	H 	0.33760 0.66240 0.66240 0.22400
O 	O 	0.35141 0.14859 0.14859 -0.66400
H 	H 	0.33760 0.16240 0.16240 0.22400
O 	O 	0.85141 0.64859 0.14859 -0.66400
H 	H 	0.83760 0.66240 0.16240 0.22400
O 	O 	0.85141 0.14859 0.64859 -0.66400
H 	H 	0.83760 0.16240 0.66240 0.22400
O 	O 	0.35141 0.35141 0.35141 -0.66400
H 	H 	0.33760 0.33760 0.33760 0.22400
O 	O 	0.35141 0.85141 0.85141 -0.66300
H 	H 	0.33760 0.83760 0.83760 0.22400
O 	O 	0.85141 0.35141 0.85141 -0.66300
H 	H 	0.83760 0.33760 0.83760 0.22400
O 	O 	0.85141 0.85141 0.35141 -0.66300
H 	H 	0.83760 0.83760 0.33760 0.22400
O 	O 	0.64859 0.64859 0.35141 -0.66400
H 	H 	0.66240 0.66240 0.33760 0.22400
O 	O 	0.64859 0.14859 0.85141 -0.66400
H 	H 	0.66240 0.16240 0.83760 0.22400
O 	O 	0.14859 0.64859 0.85141 -0.66400
H 	H 	0.16240 0.66240 0.83760 0.22400
O 	O 	0.14859 0.14859 0.35141 -0.66400
H 	H 	0.16240 0.16240 0.33760 0.22400
O 	O 	0.35141 0.64859 0.35141 -0.66400
H 	H 	0.33760 0.66240 0.33760 0.22400
O 	O 	0.35141 0.14859 0.85141 -0.66400
H 	H 	0.33760 0.16240 0.83760 0.22400
O 	O 	0.85141 0.64859 0.85141 -0.66300
H 	H 	0.83760 0.66240 0.83760 0.22300
O 	O 	0.85141 0.14859 0.35141 -0.66400
H 	H 	0.83760 0.16240 0.33760 0.22400
O 	O 	0.64859 0.35141 0.35141 -0.66400
H 	H 	0.66240 0.33760 0.33760 0.22400
O 	O 	0.64859 0.85141 0.85141 -0.66300
H 	H 	0.66240 0.83760 0.83760 0.22300
O 	O 	0.14859 0.35141 0.85141 -0.66400
H 	H 	0.16240 0.33760 0.83760 0.22400
O 	O 	0.14859 0.85141 0.35141 -0.66400
H 	H 	0.16240 0.83760 0.33760 0.22400
O 	O 	0.35141 0.35141 0.64859 -0.66400
H 	H 	0.33760 0.33760 0.66240 0.22400
O 	O 	0.35141 0.85141 0.14859 -0.66400
H 	H 	0.33760 0.83760 0.16240 0.22400
O 	O 	0.85141 0.35141 0.14859 -0.66400
H 	H 	0.83760 0.33760 0.16240 0.22400
O 	O 	0.85141 0.85141 0.64859 -0.66300
H 	H 	0.83760 0.83760 0.66240 0.22300
O 	O 	0.64859 0.64859 0.64859 -0.66400
H 	H 	0.66240 0.66240 0.66240 0.22400
O 	O 	0.64859 0.14859 0.14859 -0.66400
H 	H 	0.66240 0.16240 0.16240 0.22400
O 	O 	0.14859 0.64859 0.14859 -0.66400
H 	H 	0.16240 0.66240 0.16240 0.22400
O 	O 	0.14859 0.14859 0.64859 -0.66400
H 	H 	0.16240 0.16240 0.66240 0.22400
C 	C 	0.70016 0.37718 0.70016 -0.08500
C 	C 	0.72615 0.37849 0.72615 0.12400
C 	C 	0.64891 0.42999 0.64891 0.32200
C 	C 	0.64685 0.46627 0.64685 -0.06200
C 	C 	0.70016 0.87718 0.20016 -0.08300
C 	C 	0.72615 0.87849 0.22615 0.12300
C 	C 	0.64891 0.92999 0.14891 0.33200
C 	C 	0.64685 0.96627 0.14685 -0.08700
C 	C 	0.20016 0.37718 0.20016 -0.08500
C 	C 	0.22615 0.37849 0.22615 0.12400
C 	C 	0.14891 0.42999 0.14891 0.32200
C 	C 	0.14685 0.46627 0.14685 -0.06300
C 	C 	0.20016 0.87718 0.70016 -0.08300
C 	C 	0.22615 0.87849 0.72615 0.12300
C 	C 	0.14891 0.92999 0.64891 0.33200
C 	C 	0.14685 0.96627 0.64685 -0.08700
C 	C 	0.29984 0.62282 0.70016 -0.08500
C 	C 	0.27385 0.62151 0.72615 0.12400
C 	C 	0.35109 0.57001 0.64891 0.32200
C 	C 	0.35315 0.53373 0.64685 -0.06200
C 	C 	0.29984 0.12282 0.20016 -0.08700
C 	C 	0.27385 0.12151 0.22615 0.12400
C 	C 	0.35109 0.07001 0.14891 0.31300
C 	C 	0.35315 0.03373 0.14685 -0.03800
C 	C 	0.79984 0.62282 0.20016 -0.08500
C 	C 	0.77385 0.62151 0.22615 0.12400
C 	C 	0.85109 0.57001 0.14891 0.32200
C 	C 	0.85315 0.53373 0.14685 -0.06200
C 	C 	0.79984 0.12282 0.70016 -0.08600
C 	C 	0.77385 0.12151 0.72615 0.12400
C 	C 	0.85109 0.07001 0.64891 0.31300
C 	C 	0.85315 0.03373 0.64685 -0.03700
C 	C 	0.29984 0.37718 0.29984 -0.08500
C 	C 	0.27385 0.37849 0.27385 0.12400
C 	C 	0.35109 0.42999 0.35109 0.32200
C 	C 	0.35315 0.46627 0.35315 -0.06200
C 	C 	0.29984 0.87718 0.79984 -0.08300
C 	C 	0.27385 0.87849 0.77385 0.12300
C 	C 	0.35109 0.92999 0.85109 0.33200
C 	C 	0.35315 0.96627 0.85315 -0.08700
C 	C 	0.79984 0.37718 0.79984 -0.08500
C 	C 	0.77385 0.37849 0.77385 0.12300
C 	C 	0.85109 0.42999 0.85109 0.32300
C 	C 	0.85315 0.46627 0.85315 -0.06200
C 	C 	0.79984 0.87718 0.29984 -0.08300
C 	C 	0.77385 0.87849 0.27385 0.12300
C 	C 	0.85109 0.92999 0.35109 0.33200
C 	C 	0.85315 0.96627 0.35315 -0.08700
C 	C 	0.70016 0.62282 0.29984 -0.08500
C 	C 	0.72615 0.62151 0.27385 0.12400
C 	C 	0.64891 0.57001 0.35109 0.32200
C 	C 	0.64685 0.53373 0.35315 -0.06200
C 	C 	0.70016 0.12282 0.79984 -0.08600
C 	C 	0.72615 0.12151 0.77385 0.12400
C 	C 	0.64891 0.07001 0.85109 0.31300
C 	C 	0.64685 0.03373 0.85315 -0.03700
C 	C 	0.20016 0.62282 0.79984 -0.08500
C 	C 	0.22615 0.62151 0.77385 0.12400
C 	C 	0.14891 0.57001 0.85109 0.32200
C 	C 	0.14685 0.53373 0.85315 -0.06200
C 	C 	0.20016 0.12282 0.29984 -0.08700
C 	C 	0.22615 0.12151 0.27385 0.12400
C 	C 	0.14891 0.07001 0.35109 0.31300
C 	C 	0.14685 0.03373 0.35315 -0.03800
C 	C 	0.70016 0.70016 0.37718 -0.08500
C 	C 	0.72615 0.72615 0.37849 0.12400
C 	C 	0.64891 0.64891 0.42999 0.32200
C 	C 	0.64685 0.64685 0.46627 -0.06200
C 	C 	0.70016 0.20016 0.87718 -0.08300
C 	C 	0.72615 0.22615 0.87849 0.12300
C 	C 	0.64891 0.14891 0.92999 0.33200
C 	C 	0.64685 0.14685 0.96627 -0.08700
C 	C 	0.20016 0.70016 0.87718 -0.08300
C 	C 	0.22615 0.72615 0.87849 0.12300
C 	C 	0.14891 0.64891 0.92999 0.33200
C 	C 	0.14685 0.64685 0.96627 -0.08700
C 	C 	0.20016 0.20016 0.37718 -0.08500
C 	C 	0.22615 0.22615 0.37849 0.12400
C 	C 	0.14891 0.14891 0.42999 0.32200
C 	C 	0.14685 0.14685 0.46627 -0.06300
C 	C 	0.70016 0.29984 0.62282 -0.08500
C 	C 	0.72615 0.27385 0.62151 0.12400
C 	C 	0.64891 0.35109 0.57001 0.32200
C 	C 	0.64685 0.35315 0.53373 -0.06200
C 	C 	0.70016 0.79984 0.12282 -0.08600
C 	C 	0.72615 0.77385 0.12151 0.12400
C 	C 	0.64891 0.85109 0.07001 0.31300
C 	C 	0.64685 0.85315 0.03373 -0.03700
C 	C 	0.20016 0.29984 0.12282 -0.08700
C 	C 	0.22615 0.27385 0.12151 0.12400
C 	C 	0.14891 0.35109 0.07001 0.31300
C 	C 	0.14685 0.35315 0.03373 -0.03800
C 	C 	0.20016 0.79984 0.62282 -0.08500
C 	C 	0.22615 0.77385 0.62151 0.12400
C 	C 	0.14891 0.85109 0.57001 0.32200
C 	C 	0.14685 0.85315 0.53373 -0.06200
C 	C 	0.29984 0.29984 0.37718 -0.08500
C 	C 	0.27385 0.27385 0.37849 0.12400
C 	C 	0.35109 0.35109 0.42999 0.32200
C 	C 	0.35315 0.35315 0.46627 -0.06200
C 	C 	0.29984 0.79984 0.87718 -0.08300
C 	C 	0.27385 0.77385 0.87849 0.12300
C 	C 	0.35109 0.85109 0.92999 0.33200
C 	C 	0.35315 0.85315 0.96627 -0.08700
C 	C 	0.79984 0.29984 0.87718 -0.08300
C 	C 	0.77385 0.27385 0.87849 0.12300
C 	C 	0.85109 0.35109 0.92999 0.33200
C 	C 	0.85315 0.35315 0.96627 -0.08700
C 	C 	0.79984 0.79984 0.37718 -0.08500
C 	C 	0.77385 0.77385 0.37849 0.12300
C 	C 	0.85109 0.85109 0.42999 0.32300
C 	C 	0.85315 0.85315 0.46627 -0.06200
C 	C 	0.29984 0.70016 0.62282 -0.08500
C 	C 	0.27385 0.72615 0.62151 0.12400
C 	C 	0.35109 0.64891 0.57001 0.32200
C 	C 	0.35315 0.64685 0.53373 -0.06200
C 	C 	0.29984 0.20016 0.12282 -0.08700
C 	C 	0.27385 0.22615 0.12151 0.12400
C 	C 	0.35109 0.14891 0.07001 0.31300
C 	C 	0.35315 0.14685 0.03373 -0.03800
C 	C 	0.79984 0.70016 0.12282 -0.08600
C 	C 	0.77385 0.72615 0.12151 0.12400
C 	C 	0.85109 0.64891 0.07001 0.31300
C 	C 	0.85315 0.64685 0.03373 -0.03700
C 	C 	0.79984 0.20016 0.62282 -0.08500
C 	C 	0.77385 0.22615 0.62151 0.12400
C 	C 	0.85109 0.14891 0.57001 0.32200
C 	C 	0.85315 0.14685 0.53373 -0.06200
C 	C 	0.37718 0.70016 0.70016 -0.08500
C 	C 	0.37849 0.72615 0.72615 0.12400
C 	C 	0.42999 0.64891 0.64891 0.32200
C 	C 	0.46627 0.64685 0.64685 -0.06200
C 	C 	0.37718 0.20016 0.20016 -0.08500
C 	C 	0.37849 0.22615 0.22615 0.12400
C 	C 	0.42999 0.14891 0.14891 0.32200
C 	C 	0.46627 0.14685 0.14685 -0.06300
C 	C 	0.87718 0.70016 0.20016 -0.08300
C 	C 	0.87849 0.72615 0.22615 0.12300
C 	C 	0.92999 0.64891 0.14891 0.33200
C 	C 	0.96627 0.64685 0.14685 -0.08700
C 	C 	0.87718 0.20016 0.70016 -0.08300
C 	C 	0.87849 0.22615 0.72615 0.12300
C 	C 	0.92999 0.14891 0.64891 0.33200
C 	C 	0.96627 0.14685 0.64685 -0.08700
C 	C 	0.62282 0.70016 0.29984 -0.08500
C 	C 	0.62151 0.72615 0.27385 0.12400
C 	C 	0.57001 0.64891 0.35109 0.32200
C 	C 	0.53373 0.64685 0.35315 -0.06200
C 	C 	0.62282 0.20016 0.79984 -0.08500
C 	C 	0.62151 0.22615 0.77385 0.12400
C 	C 	0.57001 0.14891 0.85109 0.32200
C 	C 	0.53373 0.14685 0.85315 -0.06200
C 	C 	0.12282 0.70016 0.79984 -0.08600
C 	C 	0.12151 0.72615 0.77385 0.12400
C 	C 	0.07001 0.64891 0.85109 0.31300
C 	C 	0.03373 0.64685 0.85315 -0.03700
C 	C 	0.12282 0.20016 0.29984 -0.08700
C 	C 	0.12151 0.22615 0.27385 0.12400
C 	C 	0.07001 0.14891 0.35109 0.31300
C 	C 	0.03373 0.14685 0.35315 -0.03800
C 	C 	0.37718 0.29984 0.29984 -0.08500
C 	C 	0.37849 0.27385 0.27385 0.12400
C 	C 	0.42999 0.35109 0.35109 0.32200
C 	C 	0.46627 0.35315 0.35315 -0.06200
C 	C 	0.37718 0.79984 0.79984 -0.08500
C 	C 	0.37849 0.77385 0.77385 0.12300
C 	C 	0.42999 0.85109 0.85109 0.32300
C 	C 	0.46627 0.85315 0.85315 -0.06200
C 	C 	0.87718 0.29984 0.79984 -0.08300
C 	C 	0.87849 0.27385 0.77385 0.12300
C 	C 	0.92999 0.35109 0.85109 0.33200
C 	C 	0.96627 0.35315 0.85315 -0.08700
C 	C 	0.87718 0.79984 0.29984 -0.08300
C 	C 	0.87849 0.77385 0.27385 0.12300
C 	C 	0.92999 0.85109 0.35109 0.33200
C 	C 	0.96627 0.85315 0.35315 -0.08700
C 	C 	0.62282 0.29984 0.70016 -0.08500
C 	C 	0.62151 0.27385 0.72615 0.12400
C 	C 	0.57001 0.35109 0.64891 0.32200
C 	C 	0.53373 0.35315 0.64685 -0.06200
C 	C 	0.62282 0.79984 0.20016 -0.08500
C 	C 	0.62151 0.77385 0.22615 0.12400
C 	C 	0.57001 0.85109 0.14891 0.32200
C 	C 	0.53373 0.85315 0.14685 -0.06200
C 	C 	0.12282 0.29984 0.20016 -0.08700
C 	C 	0.12151 0.27385 0.22615 0.12400
C 	C 	0.07001 0.35109 0.14891 0.31300
C 	C 	0.03373 0.35315 0.14685 -0.03800
C 	C 	0.12282 0.79984 0.70016 -0.08600
C 	C 	0.12151 0.77385 0.72615 0.12400
C 	C 	0.07001 0.85109 0.64891 0.31300
C 	C 	0.03373 0.85315 0.64685 -0.03700
C 	C 	0.37718 0.70016 0.29984 -0.08500
C 	C 	0.37849 0.72615 0.27385 0.12400
C 	C 	0.42999 0.64891 0.35109 0.32200
C 	C 	0.46627 0.64685 0.35315 -0.06200
C 	C 	0.37718 0.20016 0.79984 -0.08500
C 	C 	0.37849 0.22615 0.77385 0.12400
C 	C 	0.42999 0.14891 0.85109 0.32200
C 	C 	0.46627 0.14685 0.85315 -0.06200
C 	C 	0.87718 0.70016 0.79984 -0.08300
C 	C 	0.87849 0.72615 0.77385 0.12300
C 	C 	0.92999 0.64891 0.85109 0.33200
C 	C 	0.96627 0.64685 0.85315 -0.08700
C 	C 	0.87718 0.20016 0.29984 -0.08400
C 	C 	0.87849 0.22615 0.27385 0.12400
C 	C 	0.92999 0.14891 0.35109 0.33200
C 	C 	0.96627 0.14685 0.35315 -0.08700
C 	C 	0.62282 0.29984 0.29984 -0.08500
C 	C 	0.62151 0.27385 0.27385 0.12400
C 	C 	0.57001 0.35109 0.35109 0.32200
C 	C 	0.53373 0.35315 0.35315 -0.06200
C 	C 	0.62282 0.79984 0.79984 -0.08500
C 	C 	0.62151 0.77385 0.77385 0.12300
C 	C 	0.57001 0.85109 0.85109 0.32300
C 	C 	0.53373 0.85315 0.85315 -0.06200
C 	C 	0.12282 0.29984 0.79984 -0.08700
C 	C 	0.12151 0.27385 0.77385 0.12400
C 	C 	0.07001 0.35109 0.85109 0.31300
C 	C 	0.03373 0.35315 0.85315 -0.03700
C 	C 	0.12282 0.79984 0.29984 -0.08700
C 	C 	0.12151 0.77385 0.27385 0.12400
C 	C 	0.07001 0.85109 0.35109 0.31300
C 	C 	0.03373 0.85315 0.35315 -0.03700
C 	C 	0.37718 0.29984 0.70016 -0.08500
C 	C 	0.37849 0.27385 0.72615 0.12400
C 	C 	0.42999 0.35109 0.64891 0.32200
C 	C 	0.46627 0.35315 0.64685 -0.06200
C 	C 	0.37718 0.79984 0.20016 -0.08500
C 	C 	0.37849 0.77385 0.22615 0.12400
C 	C 	0.42999 0.85109 0.14891 0.32200
C 	C 	0.46627 0.85315 0.14685 -0.06200
C 	C 	0.87718 0.29984 0.20016 -0.08400
C 	C 	0.87849 0.27385 0.22615 0.12400
C 	C 	0.92999 0.35109 0.14891 0.33200
C 	C 	0.96627 0.35315 0.14685 -0.08700
C 	C 	0.87718 0.79984 0.70016 -0.08300
C 	C 	0.87849 0.77385 0.72615 0.12300
C 	C 	0.92999 0.85109 0.64891 0.33200
C 	C 	0.96627 0.85315 0.64685 -0.08700
C 	C 	0.62282 0.70016 0.70016 -0.08500
C 	C 	0.62151 0.72615 0.72615 0.12300
C 	C 	0.57001 0.64891 0.64891 0.32200
C 	C 	0.53373 0.64685 0.64685 -0.06200
C 	C 	0.62282 0.20016 0.20016 -0.08500
C 	C 	0.62151 0.22615 0.22615 0.12400
C 	C 	0.57001 0.14891 0.14891 0.32200
C 	C 	0.53373 0.14685 0.14685 -0.06300
C 	C 	0.12282 0.70016 0.20016 -0.08700
C 	C 	0.12151 0.72615 0.22615 0.12400
C 	C 	0.07001 0.64891 0.14891 0.31300
C 	C 	0.03373 0.64685 0.14685 -0.03800
C 	C 	0.12282 0.20016 0.70016 -0.08700
C 	C 	0.12151 0.22615 0.72615 0.12400
C 	C 	0.07001 0.14891 0.64891 0.31300
C 	C 	0.03373 0.14685 0.64685 -0.03800
C 	C 	0.70016 0.70016 0.62282 -0.08500
C 	C 	0.72615 0.72615 0.62151 0.12300
C 	C 	0.64891 0.64891 0.57001 0.32200
C 	C 	0.64685 0.64685 0.53373 -0.06200
C 	C 	0.70016 0.20016 0.12282 -0.08700
C 	C 	0.72615 0.22615 0.12151 0.12400
C 	C 	0.64891 0.14891 0.07001 0.31300
C 	C 	0.64685 0.14685 0.03373 -0.03800
C 	C 	0.20016 0.70016 0.12282 -0.08700
C 	C 	0.22615 0.72615 0.12151 0.12400
C 	C 	0.14891 0.64891 0.07001 0.31300
C 	C 	0.14685 0.64685 0.03373 -0.03800
C 	C 	0.20016 0.20016 0.62282 -0.08500
C 	C 	0.22615 0.22615 0.62151 0.12400
C 	C 	0.14891 0.14891 0.57001 0.32200
C 	C 	0.14685 0.14685 0.53373 -0.06300
C 	C 	0.29984 0.70016 0.37718 -0.08500
C 	C 	0.27385 0.72615 0.37849 0.12400
C 	C 	0.35109 0.64891 0.42999 0.32200
C 	C 	0.35315 0.64685 0.46627 -0.06200
C 	C 	0.29984 0.20016 0.87718 -0.08400
C 	C 	0.27385 0.22615 0.87849 0.12400
C 	C 	0.35109 0.14891 0.92999 0.33200
C 	C 	0.35315 0.14685 0.96627 -0.08700
C 	C 	0.79984 0.70016 0.87718 -0.08300
C 	C 	0.77385 0.72615 0.87849 0.12300
C 	C 	0.85109 0.64891 0.92999 0.33200
C 	C 	0.85315 0.64685 0.96627 -0.08700
C 	C 	0.79984 0.20016 0.37718 -0.08500
C 	C 	0.77385 0.22615 0.37849 0.12400
C 	C 	0.85109 0.14891 0.42999 0.32200
C 	C 	0.85315 0.14685 0.46627 -0.06200
C 	C 	0.29984 0.29984 0.62282 -0.08500
C 	C 	0.27385 0.27385 0.62151 0.12400
C 	C 	0.35109 0.35109 0.57001 0.32200
C 	C 	0.35315 0.35315 0.53373 -0.06200
C 	C 	0.29984 0.79984 0.12282 -0.08700
C 	C 	0.27385 0.77385 0.12151 0.12400
C 	C 	0.35109 0.85109 0.07001 0.31300
C 	C 	0.35315 0.85315 0.03373 -0.03700
C 	C 	0.79984 0.29984 0.12282 -0.08700
C 	C 	0.77385 0.27385 0.12151 0.12400
C 	C 	0.85109 0.35109 0.07001 0.31300
C 	C 	0.85315 0.35315 0.03373 -0.03700
C 	C 	0.79984 0.79984 0.62282 -0.08500
C 	C 	0.77385 0.77385 0.62151 0.12300
C 	C 	0.85109 0.85109 0.57001 0.32300
C 	C 	0.85315 0.85315 0.53373 -0.06200
C 	C 	0.70016 0.29984 0.37718 -0.08500
C 	C 	0.72615 0.27385 0.37849 0.12400
C 	C 	0.64891 0.35109 0.42999 0.32200
C 	C 	0.64685 0.35315 0.46627 -0.06200
C 	C 	0.70016 0.79984 0.87718 -0.08300
C 	C 	0.72615 0.77385 0.87849 0.12300
C 	C 	0.64891 0.85109 0.92999 0.33200
C 	C 	0.64685 0.85315 0.96627 -0.08700
C 	C 	0.20016 0.29984 0.87718 -0.08400
C 	C 	0.22615 0.27385 0.87849 0.12400
C 	C 	0.14891 0.35109 0.92999 0.33200
C 	C 	0.14685 0.35315 0.96627 -0.08700
C 	C 	0.20016 0.79984 0.37718 -0.08500
C 	C 	0.22615 0.77385 0.37849 0.12400
C 	C 	0.14891 0.85109 0.42999 0.32200
C 	C 	0.14685 0.85315 0.46627 -0.06200
C 	C 	0.70016 0.37718 0.29984 -0.08500
C 	C 	0.72615 0.37849 0.27385 0.12400
C 	C 	0.64891 0.42999 0.35109 0.32200
C 	C 	0.64685 0.46627 0.35315 -0.06200
C 	C 	0.70016 0.87718 0.79984 -0.08300
C 	C 	0.72615 0.87849 0.77385 0.12300
C 	C 	0.64891 0.92999 0.85109 0.33200
C 	C 	0.64685 0.96627 0.85315 -0.08700
C 	C 	0.20016 0.37718 0.79984 -0.08500
C 	C 	0.22615 0.37849 0.77385 0.12400
C 	C 	0.14891 0.42999 0.85109 0.32200
C 	C 	0.14685 0.46627 0.85315 -0.06200
C 	C 	0.20016 0.87718 0.29984 -0.08400
C 	C 	0.22615 0.87849 0.27385 0.12400
C 	C 	0.14891 0.92999 0.35109 0.33200
C 	C 	0.14685 0.96627 0.35315 -0.08700
C 	C 	0.70016 0.62282 0.70016 -0.08500
C 	C 	0.72615 0.62151 0.72615 0.12300
C 	C 	0.64891 0.57001 0.64891 0.32200
C 	C 	0.64685 0.53373 0.64685 -0.06200
C 	C 	0.70016 0.12282 0.20016 -0.08700
C 	C 	0.72615 0.12151 0.22615 0.12400
C 	C 	0.64891 0.07001 0.14891 0.31300
C 	C 	0.64685 0.03373 0.14685 -0.03800
C 	C 	0.20016 0.62282 0.20016 -0.08500
C 	C 	0.22615 0.62151 0.22615 0.12400
C 	C 	0.14891 0.57001 0.14891 0.32200
C 	C 	0.14685 0.53373 0.14685 -0.06300
C 	C 	0.20016 0.12282 0.70016 -0.08700
C 	C 	0.22615 0.12151 0.72615 0.12400
C 	C 	0.14891 0.07001 0.64891 0.31300
C 	C 	0.14685 0.03373 0.64685 -0.03800
C 	C 	0.29984 0.37718 0.70016 -0.08500
C 	C 	0.27385 0.37849 0.72615 0.12400
C 	C 	0.35109 0.42999 0.64891 0.32200
C 	C 	0.35315 0.46627 0.64685 -0.06200
C 	C 	0.29984 0.87718 0.20016 -0.08400
C 	C 	0.27385 0.87849 0.22615 0.12400
C 	C 	0.35109 0.92999 0.14891 0.33200
C 	C 	0.35315 0.96627 0.14685 -0.08700
C 	C 	0.79984 0.37718 0.20016 -0.08500
C 	C 	0.77385 0.37849 0.22615 0.12400
C 	C 	0.85109 0.42999 0.14891 0.32200
C 	C 	0.85315 0.46627 0.14685 -0.06200
C 	C 	0.79984 0.87718 0.70016 -0.08300
C 	C 	0.77385 0.87849 0.72615 0.12300
C 	C 	0.85109 0.92999 0.64891 0.33200
C 	C 	0.85315 0.96627 0.64685 -0.08700
C 	C 	0.29984 0.62282 0.29984 -0.08500
C 	C 	0.27385 0.62151 0.27385 0.12400
C 	C 	0.35109 0.57001 0.35109 0.32200
C 	C 	0.35315 0.53373 0.35315 -0.06200
C 	C 	0.29984 0.12282 0.79984 -0.08700
C 	C 	0.27385 0.12151 0.77385 0.12400
C 	C 	0.35109 0.07001 0.85109 0.31300
C 	C 	0.35315 0.03373 0.85315 -0.03700
C 	C 	0.79984 0.62282 0.79984 -0.08500
C 	C 	0.77385 0.62151 0.77385 0.12300
C 	C 	0.85109 0.57001 0.85109 0.32300
C 	C 	0.85315 0.53373 0.85315 -0.06200
C 	C 	0.79984 0.12282 0.29984 -0.08700
C 	C 	0.77385 0.12151 0.27385 0.12400
C 	C 	0.85109 0.07001 0.35109 0.31300
C 	C 	0.85315 0.03373 0.35315 -0.03700
