data_crystal

_cell_length_a 20.65800
_cell_length_b 20.65800
_cell_length_c 13.77500
_cell_angle_alpha 90.00000
_cell_angle_beta  90.00000
_cell_angle_gamma 120.00000

_symmetry_space_group_name_	'P 1'
_symmetry_space_group_name_H-M	'P 1'

loop_
_symmetry_equiv_pos_as_xyz
  x,y,z

loop_
_atom_site_label
_atom_site_type_symbol
_atom_site_fract_x
_atom_site_fract_y
_atom_site_fract_z
_atom_site_charge
H 	H 	0.32010 0.56400 0.11990 0.02900
H 	H 	0.32080 0.56580 0.27990 0.04200
H 	H 	0.98677 0.89733 0.45323 0.04300
H 	H 	0.98747 0.89913 0.61323 0.05100
H 	H 	0.65343 0.23067 0.78657 0.03000
H 	H 	0.65413 0.23247 0.94657 0.04400
H 	H 	0.43600 0.75610 0.11990 0.03500
H 	H 	0.43420 0.75500 0.27990 0.05000
H 	H 	0.10267 0.08943 0.45323 0.02100
H 	H 	0.10087 0.08833 0.61323 0.03500
H 	H 	0.76933 0.42277 0.78657 0.03900
H 	H 	0.76753 0.42167 0.94657 0.05400
H 	H 	0.24390 0.67990 0.11990 0.02500
H 	H 	0.24500 0.67920 0.27990 0.03900
H 	H 	0.91057 0.01323 0.45323 0.00800
H 	H 	0.91167 0.01253 0.61323 0.01700
H 	H 	0.57723 0.34657 0.78657 0.03200
H 	H 	0.57833 0.34587 0.94657 0.04800
H 	H 	0.43600 0.67990 0.11990 0.03100
H 	H 	0.43420 0.67920 0.27990 0.04600
H 	H 	0.10267 0.01323 0.45323 0.00600
H 	H 	0.10087 0.01253 0.61323 0.01700
H 	H 	0.76933 0.34657 0.78657 0.03700
H 	H 	0.76753 0.34587 0.94657 0.05300
H 	H 	0.24390 0.56400 0.11990 0.02400
H 	H 	0.24500 0.56580 0.27990 0.03600
H 	H 	0.91057 0.89733 0.45323 0.02500
H 	H 	0.91167 0.89913 0.61323 0.03300
H 	H 	0.57723 0.23067 0.78657 0.02800
H 	H 	0.57833 0.23247 0.94657 0.04300
H 	H 	0.32010 0.75610 0.11990 0.03300
H 	H 	0.32080 0.75500 0.27990 0.04800
H 	H 	0.98677 0.08943 0.45323 0.04000
H 	H 	0.98747 0.08833 0.61323 0.05400
H 	H 	0.65343 0.42277 0.78657 0.03500
H 	H 	0.65413 0.42167 0.94657 0.04900
F 	F 	0.45360 0.90720 0.71090 -0.50800
N 	N 	0.61790 0.23580 0.45260 -0.13900
N 	N 	0.62245 0.24490 0.55170 -0.22600
N 	N 	0.58795 0.17590 0.59160 -0.08300
N 	N 	0.58240 0.16480 0.42850 -0.04800
C 	C 	0.56300 0.12600 0.51410 -0.02000
C 	C 	0.52235 0.04470 0.52430 0.42600
C 	C 	0.50470 0.00940 0.61330 -0.68600
H 	H 	0.51880 0.03760 0.67000 0.29100
C 	C 	0.46645 0.93290 0.61850 0.78700
C 	C 	0.44160 0.88320 0.53930 -0.67900
C 	C 	0.46125 0.92250 0.45130 0.58800
H 	H 	0.44740 0.89480 0.39410 -0.13900
C 	C 	0.50015 0.00030 0.44350 -0.60500
H 	H 	0.51115 0.02230 0.38240 0.24200
C 	C 	0.40390 0.80780 0.54440 0.83900
C 	C 	0.29500 0.59000 0.14340 -0.06100
C 	C 	0.29610 0.59220 0.25630 -0.05200
O 	O 	0.38490 0.76980 0.61500 -0.55600
O 	O 	0.38570 0.77140 0.46950 -0.60600
F 	F 	0.12027 0.24053 0.04423 -0.51900
N 	N 	0.28457 0.56913 0.78593 -0.14000
N 	N 	0.28912 0.57823 0.88503 -0.22500
N 	N 	0.25462 0.50923 0.92493 -0.08700
N 	N 	0.24907 0.49813 0.76183 -0.05600
C 	C 	0.22967 0.45933 0.84743 0.03600
C 	C 	0.18902 0.37803 0.85763 0.26500
C 	C 	0.17137 0.34273 0.94663 -0.43900
H 	H 	0.18547 0.37093 0.00333 0.20600
C 	C 	0.13312 0.26623 0.95183 0.61200
C 	C 	0.10827 0.21653 0.87263 -0.55100
C 	C 	0.12792 0.25583 0.78463 0.34800
H 	H 	0.11407 0.22813 0.72743 -0.08200
C 	C 	0.16682 0.33363 0.77683 -0.36000
H 	H 	0.17782 0.35563 0.71573 0.16800
C 	C 	0.07057 0.14113 0.87773 0.76900
C 	C 	0.96167 0.92333 0.47673 0.03000
C 	C 	0.96277 0.92553 0.58963 0.04700
O 	O 	0.05157 0.10313 0.94833 -0.56200
O 	O 	0.05237 0.10473 0.80283 -0.62000
F 	F 	0.78693 0.57387 0.37757 -0.49100
N 	N 	0.95123 0.90247 0.11927 -0.10900
N 	N 	0.95578 0.91157 0.21837 -0.18600
N 	N 	0.92128 0.84257 0.25827 -0.07500
N 	N 	0.91573 0.83147 0.09517 -0.04500
C 	C 	0.89633 0.79267 0.18077 0.04300
C 	C 	0.85568 0.71137 0.19097 0.28700
C 	C 	0.83803 0.67607 0.27997 -0.46500
H 	H 	0.85213 0.70427 0.33667 0.24000
C 	C 	0.79978 0.59957 0.28517 0.61800
C 	C 	0.77493 0.54987 0.20597 -0.53900
C 	C 	0.79458 0.58917 0.11797 0.35700
H 	H 	0.78073 0.56147 0.06077 -0.07300
C 	C 	0.83348 0.66697 0.11017 -0.36100
H 	H 	0.84448 0.68897 0.04907 0.18100
C 	C 	0.73723 0.47447 0.21107 0.76500
C 	C 	0.62833 0.25667 0.81007 -0.06100
C 	C 	0.62943 0.25887 0.92297 -0.05500
O 	O 	0.71823 0.43647 0.28167 -0.53300
O 	O 	0.71903 0.43807 0.13617 -0.59100
F 	F 	0.09280 0.54640 0.71090 -0.48100
N 	N 	0.76420 0.38210 0.45260 -0.13800
N 	N 	0.75510 0.37755 0.55170 -0.22500
N 	N 	0.82410 0.41205 0.59160 -0.09200
N 	N 	0.83520 0.41760 0.42850 -0.05800
C 	C 	0.87400 0.43700 0.51410 0.09100
C 	C 	0.95530 0.47765 0.52430 0.12600
C 	C 	0.99060 0.49530 0.61330 -0.23400
H 	H 	0.96240 0.48120 0.67000 0.17300
C 	C 	0.06710 0.53355 0.61850 0.43100
C 	C 	0.11680 0.55840 0.53930 -0.39000
C 	C 	0.07750 0.53875 0.45130 0.10300
H 	H 	0.10520 0.55260 0.39410 -0.00200
C 	C 	0.99970 0.49985 0.44350 -0.10300
H 	H 	0.97770 0.48885 0.38240 0.10400
C 	C 	0.19220 0.59610 0.54440 0.68200
C 	C 	0.41000 0.70500 0.14340 -0.06200
C 	C 	0.40780 0.70390 0.25630 -0.05600
O 	O 	0.23020 0.61510 0.61500 -0.51100
O 	O 	0.22860 0.61430 0.46950 -0.57000
F 	F 	0.75947 0.87973 0.04423 -0.48800
N 	N 	0.43087 0.71543 0.78593 -0.13700
N 	N 	0.42177 0.71088 0.88503 -0.22200
N 	N 	0.49077 0.74538 0.92493 -0.08300
N 	N 	0.50187 0.75093 0.76183 -0.05100
C 	C 	0.54067 0.77033 0.84743 0.04700
C 	C 	0.62197 0.81098 0.85763 0.26200
C 	C 	0.65727 0.82863 0.94663 -0.42200
H 	H 	0.62907 0.81453 0.00333 0.21400
C 	C 	0.73377 0.86688 0.95183 0.60500
C 	C 	0.78347 0.89173 0.87263 -0.49800
C 	C 	0.74417 0.87208 0.78463 0.33000
H 	H 	0.77187 0.88593 0.72743 -0.05200
C 	C 	0.66637 0.83318 0.77683 -0.33300
H 	H 	0.64437 0.82218 0.71573 0.17300
C 	C 	0.85887 0.92943 0.87773 0.72800
C 	C 	0.07667 0.03833 0.47673 -0.07000
C 	C 	0.07447 0.03723 0.58963 -0.06700
O 	O 	0.89687 0.94843 0.94833 -0.46900
O 	O 	0.89527 0.94763 0.80283 -0.52500
F 	F 	0.42613 0.21307 0.37757 -0.50100
N 	N 	0.09753 0.04877 0.11927 -0.16300
N 	N 	0.08843 0.04422 0.21837 -0.24900
N 	N 	0.15743 0.07872 0.25827 -0.09700
N 	N 	0.16853 0.08427 0.09517 -0.06500
C 	C 	0.20733 0.10367 0.18077 0.02300
C 	C 	0.28863 0.14432 0.19097 0.27100
C 	C 	0.32393 0.16197 0.27997 -0.46700
H 	H 	0.29573 0.14787 0.33667 0.22500
C 	C 	0.40043 0.20022 0.28517 0.60800
C 	C 	0.45013 0.22507 0.20597 -0.54100
C 	C 	0.41083 0.20542 0.11797 0.34600
H 	H 	0.43853 0.21927 0.06077 -0.07800
C 	C 	0.33303 0.16652 0.11017 -0.36200
H 	H 	0.31103 0.15552 0.04907 0.16400
C 	C 	0.52553 0.26277 0.21107 0.76100
C 	C 	0.74333 0.37167 0.81007 -0.06400
C 	C 	0.74113 0.37057 0.92297 -0.05800
O 	O 	0.56353 0.28177 0.28167 -0.53700
O 	O 	0.56193 0.28097 0.13617 -0.59500
F 	F 	0.45360 0.54640 0.71090 -0.49500
N 	N 	0.61790 0.38210 0.45260 -0.13800
N 	N 	0.62245 0.37755 0.55170 -0.22500
N 	N 	0.58795 0.41205 0.59160 -0.08700
N 	N 	0.58240 0.41760 0.42850 -0.05300
C 	C 	0.56300 0.43700 0.51410 0.03400
C 	C 	0.52235 0.47765 0.52430 0.27900
C 	C 	0.50470 0.49530 0.61330 -0.46500
H 	H 	0.51880 0.48120 0.67000 0.23300
C 	C 	0.46645 0.53355 0.61850 0.61300
C 	C 	0.44160 0.55840 0.53930 -0.53800
C 	C 	0.46125 0.53875 0.45130 0.35100
H 	H 	0.44740 0.55260 0.39410 -0.07200
C 	C 	0.50015 0.49985 0.44350 -0.36000
H 	H 	0.51115 0.48885 0.38240 0.17500
C 	C 	0.40390 0.59610 0.54440 0.76200
C 	C 	0.29500 0.70500 0.14340 -0.06200
C 	C 	0.29610 0.70390 0.25630 -0.05400
O 	O 	0.38490 0.61510 0.61500 -0.53400
O 	O 	0.38570 0.61430 0.46950 -0.58800
F 	F 	0.12027 0.87973 0.04423 -0.50200
N 	N 	0.28457 0.71543 0.78593 -0.13800
N 	N 	0.28912 0.71088 0.88503 -0.22400
N 	N 	0.25462 0.74538 0.92493 -0.08500
N 	N 	0.24907 0.75093 0.76183 -0.05300
C 	C 	0.22967 0.77033 0.84743 0.04200
C 	C 	0.18902 0.81098 0.85763 0.26300
C 	C 	0.17137 0.82863 0.94663 -0.43000
H 	H 	0.18547 0.81453 0.00333 0.21000
C 	C 	0.13312 0.86688 0.95183 0.60800
C 	C 	0.10827 0.89173 0.87263 -0.52200
C 	C 	0.12792 0.87208 0.78463 0.33800
H 	H 	0.11407 0.88593 0.72743 -0.06600
C 	C 	0.16682 0.83318 0.77683 -0.34500
H 	H 	0.17782 0.82218 0.71573 0.17100
C 	C 	0.07057 0.92943 0.87773 0.74700
C 	C 	0.96167 0.03833 0.47673 -0.01500
C 	C 	0.96277 0.03723 0.58963 -0.00500
O 	O 	0.05157 0.94843 0.94833 -0.51300
O 	O 	0.05237 0.94763 0.80283 -0.56900
F 	F 	0.78693 0.21307 0.37757 -0.49600
N 	N 	0.95123 0.04877 0.11927 -0.13300
N 	N 	0.95578 0.04422 0.21837 -0.21400
N 	N 	0.92128 0.07872 0.25827 -0.08500
N 	N 	0.91573 0.08427 0.09517 -0.05400
C 	C 	0.89633 0.10367 0.18077 0.03400
C 	C 	0.85568 0.14432 0.19097 0.28000
C 	C 	0.83803 0.16197 0.27997 -0.46600
H 	H 	0.85213 0.14787 0.33667 0.23300
C 	C 	0.79978 0.20022 0.28517 0.61300
C 	C 	0.77493 0.22507 0.20597 -0.54000
C 	C 	0.79458 0.20542 0.11797 0.35200
H 	H 	0.78073 0.21927 0.06077 -0.07500
C 	C 	0.83348 0.16652 0.11017 -0.36200
H 	H 	0.84448 0.15552 0.04907 0.17400
C 	C 	0.73723 0.26277 0.21107 0.76300
C 	C 	0.62833 0.37167 0.81007 -0.06200
C 	C 	0.62943 0.37057 0.92297 -0.05600
O 	O 	0.71823 0.28177 0.28167 -0.53500
O 	O 	0.71903 0.28097 0.13617 -0.59300
Zn	Zn	0.66667 0.33333 0.36326 1.22400
Zn	Zn	0.66667 0.33333 0.62343 1.18700
Zn	Zn	0.33333 0.66667 0.69659 1.22500
Zn	Zn	0.33333 0.66667 0.95676 1.18900
Zn	Zn	-0.00000 0.00000 0.02993 1.17800
Zn	Zn	-0.00000 0.00000 0.29010 1.14900
Zn	Zn	0.33333 0.66667 0.43650 1.24200
N 	N 	0.33333 0.66667 0.10920 -0.21200
N 	N 	0.33333 0.66667 0.29660 -0.21500
Zn	Zn	-0.00000 0.00000 0.76983 1.20500
N 	N 	-0.00000 0.00000 0.44253 -0.29800
N 	N 	-0.00000 0.00000 0.62993 -0.30300
Zn	Zn	0.66667 0.33333 0.10317 1.23900
N 	N 	0.66667 0.33333 0.77587 -0.20900
N 	N 	0.66667 0.33333 0.96327 -0.21000
