data_crystal

_cell_length_a 28.76110
_cell_length_b 28.76110
_cell_length_c 8.16750
_cell_angle_alpha 90.00000
_cell_angle_beta  90.00000
_cell_angle_gamma 120.00000

_symmetry_space_group_name_	'P 1'
_symmetry_space_group_name_H-M	'P 1'

loop_
_symmetry_equiv_pos_as_xyz
  x,y,z

loop_
_atom_site_label
_atom_site_type_symbol
_atom_site_fract_x
_atom_site_fract_y
_atom_site_fract_z
_atom_site_charge
C 	C 	0.21600 0.57600 0.91000 0.03400
H 	H 	0.24560 0.56930 0.91780 0.02200
C 	C 	0.18500 0.56100 0.76000 -0.07800
H 	H 	0.19270 0.54590 0.66750 0.04900
C 	C 	0.16100 0.60900 0.02700 -0.04300
H 	H 	0.15260 0.62540 0.11700 0.03400
C 	C 	0.12400 0.59100 0.88500 -0.03300
H 	H 	0.09490 0.59810 0.87750 0.04800
C 	C 	0.08740 0.58540 0.53600 0.02300
C 	C 	0.05690 0.56990 0.39100 -0.14700
C 	C 	0.03930 0.60600 0.31600 0.42000
O 	O 	0.01410 0.59080 0.18200 -0.52300
O 	O 	0.05050 0.64860 0.39100 -0.52900
H 	H 	0.08970 0.61570 0.59160 0.03300
C 	C 	0.88267 0.90933 0.24333 -0.03600
H 	H 	0.91227 0.90263 0.25113 0.03400
C 	C 	0.85167 0.89433 0.09333 -0.03600
H 	H 	0.85937 0.87923 0.00083 0.00500
C 	C 	0.82767 0.94233 0.36033 -0.02100
H 	H 	0.81927 0.95873 0.45033 0.04400
C 	C 	0.79067 0.92433 0.21833 -0.04700
H 	H 	0.76157 0.93143 0.21083 0.04700
C 	C 	0.75407 0.91873 0.86933 -0.00300
C 	C 	0.72357 0.90323 0.72433 -0.11700
C 	C 	0.70597 0.93933 0.64933 0.41200
O 	O 	0.68077 0.92413 0.51533 -0.49600
O 	O 	0.71717 0.98193 0.72433 -0.49600
H 	H 	0.75637 0.94903 0.92493 0.06400
C 	C 	0.54933 0.24267 0.57667 -0.00200
H 	H 	0.57893 0.23597 0.58447 0.02600
C 	C 	0.51833 0.22767 0.42667 -0.08200
H 	H 	0.52603 0.21257 0.33417 0.04900
C 	C 	0.49433 0.27567 0.69367 0.01500
H 	H 	0.48593 0.29207 0.78367 0.02800
C 	C 	0.45733 0.25767 0.55167 -0.09300
H 	H 	0.42823 0.26477 0.54417 0.06600
C 	C 	0.42073 0.25207 0.20267 0.11100
C 	C 	0.39023 0.23657 0.05767 -0.27800
C 	C 	0.37263 0.27267 0.98267 0.52800
O 	O 	0.34743 0.25747 0.84867 -0.52200
O 	O 	0.38383 0.31527 0.05767 -0.56900
H 	H 	0.42303 0.28237 0.25827 0.00700
C 	C 	0.42400 0.64000 0.91000 0.03500
H 	H 	0.43070 0.67630 0.91780 0.02300
C 	C 	0.43900 0.62400 0.76000 -0.07800
H 	H 	0.45410 0.64680 0.66750 0.04900
C 	C 	0.39100 0.55200 0.02700 -0.04100
H 	H 	0.37460 0.52720 0.11700 0.03400
C 	C 	0.40900 0.53300 0.88500 -0.03400
H 	H 	0.40190 0.49680 0.87750 0.05200
C 	C 	0.41460 0.50200 0.53600 0.02200
C 	C 	0.43010 0.48700 0.39100 -0.14000
C 	C 	0.39400 0.43330 0.31600 0.42000
O 	O 	0.40920 0.42330 0.18200 -0.51000
O 	O 	0.35140 0.40190 0.39100 -0.52100
H 	H 	0.38430 0.47400 0.59160 0.03600
C 	C 	0.09067 0.97333 0.24333 0.04700
H 	H 	0.09737 0.00963 0.25113 -0.01700
C 	C 	0.10567 0.95733 0.09333 -0.08100
H 	H 	0.12077 0.98013 0.00083 0.04300
C 	C 	0.05767 0.88533 0.36033 0.00800
H 	H 	0.04127 0.86053 0.45033 0.01800
C 	C 	0.07567 0.86633 0.21833 -0.07100
H 	H 	0.06857 0.83013 0.21083 0.04500
C 	C 	0.08127 0.83533 0.86933 -0.00800
C 	C 	0.09677 0.82033 0.72433 -0.12100
C 	C 	0.06067 0.76663 0.64933 0.41400
O 	O 	0.07587 0.75663 0.51533 -0.50700
O 	O 	0.01807 0.73523 0.72433 -0.52900
H 	H 	0.05097 0.80733 0.92493 0.05500
C 	C 	0.75733 0.30667 0.57667 -0.00200
H 	H 	0.76403 0.34297 0.58447 0.02600
C 	C 	0.77233 0.29067 0.42667 -0.08100
H 	H 	0.78743 0.31347 0.33417 0.04900
C 	C 	0.72433 0.21867 0.69367 0.01500
H 	H 	0.70793 0.19387 0.78367 0.02800
C 	C 	0.74233 0.19967 0.55167 -0.09200
H 	H 	0.73523 0.16347 0.54417 0.06500
C 	C 	0.74793 0.16867 0.20267 0.10700
C 	C 	0.76343 0.15367 0.05767 -0.27100
C 	C 	0.72733 0.09997 0.98267 0.52400
O 	O 	0.74253 0.08997 0.84867 -0.52600
O 	O 	0.68473 0.06857 0.05767 -0.57400
H 	H 	0.71763 0.14067 0.25827 0.00800
C 	C 	0.36000 0.78400 0.91000 0.03500
H 	H 	0.32370 0.75440 0.91780 0.02300
C 	C 	0.37600 0.81500 0.76000 -0.07900
H 	H 	0.35320 0.80730 0.66750 0.04900
C 	C 	0.44800 0.83900 0.02700 -0.04000
H 	H 	0.47280 0.84740 0.11700 0.03400
C 	C 	0.46700 0.87600 0.88500 -0.03400
H 	H 	0.50320 0.90510 0.87750 0.05600
C 	C 	0.49800 0.91260 0.53600 0.02100
C 	C 	0.51300 0.94310 0.39100 -0.13100
C 	C 	0.56670 0.96070 0.31600 0.41900
O 	O 	0.57670 0.98590 0.18200 -0.49200
O 	O 	0.59810 0.94950 0.39100 -0.51300
H 	H 	0.52600 0.91030 0.59160 0.04000
C 	C 	0.02667 0.11733 0.24333 -0.12500
H 	H 	0.99037 0.08773 0.25113 0.07600
C 	C 	0.04267 0.14833 0.09333 0.00700
H 	H 	0.01987 0.14063 0.00083 -0.03400
C 	C 	0.11467 0.17233 0.36033 -0.05500
H 	H 	0.13947 0.18073 0.45033 0.04600
C 	C 	0.13367 0.20933 0.21833 -0.02300
H 	H 	0.16987 0.23843 0.21083 0.03400
C 	C 	0.16467 0.24593 0.86933 -0.01300
C 	C 	0.17967 0.27643 0.72433 -0.11700
C 	C 	0.23337 0.29403 0.64933 0.41200
O 	O 	0.24337 0.31923 0.51533 -0.50100
O 	O 	0.26477 0.28283 0.72433 -0.51300
H 	H 	0.19267 0.24363 0.92493 0.06200
C 	C 	0.69333 0.45067 0.57667 -0.00200
H 	H 	0.65703 0.42107 0.58447 0.02600
C 	C 	0.70933 0.48167 0.42667 -0.08100
H 	H 	0.68653 0.47397 0.33417 0.04900
C 	C 	0.78133 0.50567 0.69367 0.01500
H 	H 	0.80613 0.51407 0.78367 0.02800
C 	C 	0.80033 0.54267 0.55167 -0.09300
H 	H 	0.83653 0.57177 0.54417 0.06500
C 	C 	0.83133 0.57927 0.20267 0.10600
C 	C 	0.84633 0.60977 0.05767 -0.27000
C 	C 	0.90003 0.62737 0.98267 0.51900
O 	O 	0.91003 0.65257 0.84867 -0.51700
O 	O 	0.93143 0.61617 0.05767 -0.55600
H 	H 	0.85933 0.57697 0.25827 0.00900
C 	C 	0.57600 0.21600 0.09000 -0.04800
H 	H 	0.56930 0.24560 0.08220 0.03200
C 	C 	0.56100 0.18500 0.24000 -0.06100
H 	H 	0.54590 0.19270 0.33250 0.04100
C 	C 	0.60900 0.16100 0.97300 0.04000
H 	H 	0.62540 0.15260 0.88300 0.02100
C 	C 	0.59100 0.12400 0.11500 -0.11500
H 	H 	0.59810 0.09490 0.12250 0.06200
C 	C 	0.58540 0.08740 0.46400 0.03100
C 	C 	0.56990 0.05690 0.60900 -0.14700
C 	C 	0.60600 0.03930 0.68400 0.41900
O 	O 	0.59080 0.01410 0.81800 -0.50300
O 	O 	0.64860 0.05050 0.60900 -0.52600
H 	H 	0.61570 0.08970 0.40840 0.03100
C 	C 	0.24267 0.54933 0.42333 -0.02600
H 	H 	0.23597 0.57893 0.41553 0.03100
C 	C 	0.22767 0.51833 0.57333 -0.05200
H 	H 	0.21257 0.52603 0.66583 0.03800
C 	C 	0.27567 0.49433 0.30633 -0.01200
H 	H 	0.29207 0.48593 0.21633 0.02600
C 	C 	0.25767 0.45733 0.44833 -0.06000
H 	H 	0.26477 0.42823 0.45583 0.05100
C 	C 	0.25207 0.42073 0.79733 -0.07000
C 	C 	0.23657 0.39023 0.94233 0.02100
C 	C 	0.27267 0.37263 0.01733 0.29700
O 	O 	0.25747 0.34743 0.15133 -0.47700
O 	O 	0.31527 0.38383 0.94233 -0.46000
H 	H 	0.28237 0.42303 0.74173 0.06800
C 	C 	0.90933 0.88267 0.75667 0.01600
H 	H 	0.90263 0.91227 0.74887 0.02700
C 	C 	0.89433 0.85167 0.90667 -0.09800
H 	H 	0.87923 0.85937 0.99917 0.08300
C 	C 	0.94233 0.82767 0.63967 0.02900
H 	H 	0.95873 0.81927 0.54967 0.02700
C 	C 	0.92433 0.79067 0.78167 -0.10600
H 	H 	0.93143 0.76157 0.78917 0.07900
C 	C 	0.91873 0.75407 0.13067 0.06200
C 	C 	0.90323 0.72357 0.27567 -0.15700
C 	C 	0.93933 0.70597 0.35067 0.42600
O 	O 	0.92413 0.68077 0.48467 -0.49700
O 	O 	0.98193 0.71717 0.27567 -0.50900
H 	H 	0.94903 0.75637 0.07507 0.01800
C 	C 	0.64000 0.42400 0.09000 -0.04700
H 	H 	0.67630 0.43070 0.08220 0.03200
C 	C 	0.62400 0.43900 0.24000 -0.06200
H 	H 	0.64680 0.45410 0.33250 0.04100
C 	C 	0.55200 0.39100 0.97300 0.04200
H 	H 	0.52720 0.37460 0.88300 0.02100
C 	C 	0.53300 0.40900 0.11500 -0.11600
H 	H 	0.49680 0.40190 0.12250 0.06600
C 	C 	0.50200 0.41460 0.46400 0.03000
C 	C 	0.48700 0.43010 0.60900 -0.13800
C 	C 	0.43330 0.39400 0.68400 0.41800
O 	O 	0.42330 0.40920 0.81800 -0.48900
O 	O 	0.40190 0.35140 0.60900 -0.51800
H 	H 	0.47400 0.38430 0.40840 0.03500
C 	C 	0.30667 0.75733 0.42333 -0.02600
H 	H 	0.34297 0.76403 0.41553 0.03100
C 	C 	0.29067 0.77233 0.57333 -0.05200
H 	H 	0.31347 0.78743 0.66583 0.03800
C 	C 	0.21867 0.72433 0.30633 -0.01200
H 	H 	0.19387 0.70793 0.21633 0.02600
C 	C 	0.19967 0.74233 0.44833 -0.06000
H 	H 	0.16347 0.73523 0.45583 0.05100
C 	C 	0.16867 0.74793 0.79733 -0.07100
C 	C 	0.15367 0.76343 0.94233 0.02300
C 	C 	0.09997 0.72733 0.01733 0.29500
O 	O 	0.08997 0.74253 0.15133 -0.48100
O 	O 	0.06857 0.68473 0.94233 -0.46400
H 	H 	0.14067 0.71763 0.74173 0.06800
C 	C 	0.97333 0.09067 0.75667 0.08900
H 	H 	0.00963 0.09737 0.74887 -0.01700
C 	C 	0.95733 0.10567 0.90667 -0.13900
H 	H 	0.98013 0.12077 0.99917 0.12000
C 	C 	0.88533 0.05767 0.63967 0.05500
H 	H 	0.86053 0.04127 0.54967 0.00200
C 	C 	0.86633 0.07567 0.78167 -0.12900
H 	H 	0.83013 0.06857 0.78917 0.07700
C 	C 	0.83533 0.08127 0.13067 0.05800
C 	C 	0.82033 0.09677 0.27567 -0.16100
C 	C 	0.76663 0.06067 0.35067 0.42800
O 	O 	0.75663 0.07587 0.48467 -0.50800
O 	O 	0.73523 0.01807 0.27567 -0.54300
H 	H 	0.80733 0.05097 0.07507 0.00700
C 	C 	0.78400 0.36000 0.09000 -0.04700
H 	H 	0.75440 0.32370 0.08220 0.03100
C 	C 	0.81500 0.37600 0.24000 -0.06200
H 	H 	0.80730 0.35320 0.33250 0.04100
C 	C 	0.83900 0.44800 0.97300 0.04000
H 	H 	0.84740 0.47280 0.88300 0.02100
C 	C 	0.87600 0.46700 0.11500 -0.11400
H 	H 	0.90510 0.50320 0.12250 0.07000
C 	C 	0.91260 0.49800 0.46400 0.02900
C 	C 	0.94310 0.51300 0.60900 -0.13100
C 	C 	0.96070 0.56670 0.68400 0.41700
O 	O 	0.98590 0.57670 0.81800 -0.47500
O 	O 	0.94950 0.59810 0.60900 -0.51000
H 	H 	0.91030 0.52600 0.40840 0.03800
C 	C 	0.45067 0.69333 0.42333 -0.02500
H 	H 	0.42107 0.65703 0.41553 0.03100
C 	C 	0.48167 0.70933 0.57333 -0.05200
H 	H 	0.47397 0.68653 0.66583 0.03800
C 	C 	0.50567 0.78133 0.30633 -0.01200
H 	H 	0.51407 0.80613 0.21633 0.02500
C 	C 	0.54267 0.80033 0.44833 -0.06100
H 	H 	0.57177 0.83653 0.45583 0.05200
C 	C 	0.57927 0.83133 0.79733 -0.06900
C 	C 	0.60977 0.84633 0.94233 0.01900
C 	C 	0.62737 0.90003 0.01733 0.29700
O 	O 	0.65257 0.91003 0.15133 -0.47300
O 	O 	0.61617 0.93143 0.94233 -0.45000
H 	H 	0.57697 0.85933 0.74173 0.06800
C 	C 	0.11733 0.02667 0.75667 -0.07700
H 	H 	0.08773 0.99037 0.74887 0.07300
C 	C 	0.14833 0.04267 0.90667 -0.05400
H 	H 	0.14063 0.01987 0.99917 0.04400
C 	C 	0.17233 0.11467 0.63967 -0.00500
H 	H 	0.18073 0.13947 0.54967 0.02900
C 	C 	0.20933 0.13367 0.78167 -0.08300
H 	H 	0.23843 0.16987 0.78917 0.06800
C 	C 	0.24593 0.16467 0.13067 0.05600
C 	C 	0.27643 0.17967 0.27567 -0.15800
C 	C 	0.29403 0.23337 0.35067 0.42600
O 	O 	0.31923 0.24337 0.48467 -0.50200
O 	O 	0.28283 0.26477 0.27567 -0.52600
H 	H 	0.24363 0.19267 0.07507 0.01300
C 	C 	0.78400 0.42400 0.09000 -0.04700
H 	H 	0.75440 0.43070 0.08220 0.03100
C 	C 	0.81500 0.43900 0.24000 -0.06200
H 	H 	0.80730 0.45410 0.33250 0.04100
C 	C 	0.83900 0.39100 0.97300 0.04000
H 	H 	0.84740 0.37460 0.88300 0.02100
C 	C 	0.87600 0.40900 0.11500 -0.11400
H 	H 	0.90510 0.40190 0.12250 0.07000
C 	C 	0.91260 0.41460 0.46400 0.02900
C 	C 	0.94310 0.43010 0.60900 -0.13100
C 	C 	0.96070 0.39400 0.68400 0.41700
O 	O 	0.98590 0.40920 0.81800 -0.47500
O 	O 	0.94950 0.35140 0.60900 -0.51000
H 	H 	0.91030 0.38430 0.40840 0.03800
C 	C 	0.45067 0.75733 0.42333 -0.02500
H 	H 	0.42107 0.76403 0.41553 0.03100
C 	C 	0.48167 0.77233 0.57333 -0.05200
H 	H 	0.47397 0.78743 0.66583 0.03800
C 	C 	0.50567 0.72433 0.30633 -0.01200
H 	H 	0.51407 0.70793 0.21633 0.02600
C 	C 	0.54267 0.74233 0.44833 -0.06100
H 	H 	0.57177 0.73523 0.45583 0.05200
C 	C 	0.57927 0.74793 0.79733 -0.06800
C 	C 	0.60977 0.76343 0.94233 0.01700
C 	C 	0.62737 0.72733 0.01733 0.30000
O 	O 	0.65257 0.74253 0.15133 -0.47800
O 	O 	0.61617 0.68473 0.94233 -0.46100
H 	H 	0.57697 0.71763 0.74173 0.06700
C 	C 	0.11733 0.09067 0.75667 0.01200
H 	H 	0.08773 0.09737 0.74887 0.02300
C 	C 	0.14833 0.10567 0.90667 -0.10100
H 	H 	0.14063 0.12077 0.99917 0.08500
C 	C 	0.17233 0.05767 0.63967 0.02800
H 	H 	0.18073 0.04127 0.54967 0.01000
C 	C 	0.20933 0.07567 0.78167 -0.11000
H 	H 	0.23843 0.06857 0.78917 0.07200
C 	C 	0.24593 0.08127 0.13067 0.05700
C 	C 	0.27643 0.09677 0.27567 -0.16100
C 	C 	0.29403 0.06067 0.35067 0.42800
O 	O 	0.31923 0.07587 0.48467 -0.50800
O 	O 	0.28283 0.01807 0.27567 -0.54300
H 	H 	0.24363 0.05097 0.07507 0.00700
C 	C 	0.57600 0.36000 0.09000 -0.04800
H 	H 	0.56930 0.32370 0.08220 0.03200
C 	C 	0.56100 0.37600 0.24000 -0.06200
H 	H 	0.54590 0.35320 0.33250 0.04100
C 	C 	0.60900 0.44800 0.97300 0.04100
H 	H 	0.62540 0.47280 0.88300 0.02100
C 	C 	0.59100 0.46700 0.11500 -0.11600
H 	H 	0.59810 0.50320 0.12250 0.06600
C 	C 	0.58540 0.49800 0.46400 0.03000
C 	C 	0.56990 0.51300 0.60900 -0.13800
C 	C 	0.60600 0.56670 0.68400 0.41900
O 	O 	0.59080 0.57670 0.81800 -0.49000
O 	O 	0.64860 0.59810 0.60900 -0.51800
H 	H 	0.61570 0.52600 0.40840 0.03500
C 	C 	0.24267 0.69333 0.42333 -0.02600
H 	H 	0.23597 0.65703 0.41553 0.03100
C 	C 	0.22767 0.70933 0.57333 -0.05200
H 	H 	0.21257 0.68653 0.66583 0.03800
C 	C 	0.27567 0.78133 0.30633 -0.01200
H 	H 	0.29207 0.80613 0.21633 0.02600
C 	C 	0.25767 0.80033 0.44833 -0.06000
H 	H 	0.26477 0.83653 0.45583 0.05100
C 	C 	0.25207 0.83133 0.79733 -0.07200
C 	C 	0.23657 0.84633 0.94233 0.02400
C 	C 	0.27267 0.90003 0.01733 0.29300
O 	O 	0.25747 0.91003 0.15133 -0.47200
O 	O 	0.31527 0.93143 0.94233 -0.44800
H 	H 	0.28237 0.85933 0.74173 0.07000
C 	C 	0.90933 0.02667 0.75667 -0.07600
H 	H 	0.90263 0.99037 0.74887 0.07500
C 	C 	0.89433 0.04267 0.90667 -0.05100
H 	H 	0.87923 0.01987 0.99917 0.04100
C 	C 	0.94233 0.11467 0.63967 -0.00600
H 	H 	0.95873 0.13947 0.54967 0.03800
C 	C 	0.92433 0.13367 0.78167 -0.08000
H 	H 	0.93143 0.16987 0.78917 0.07000
C 	C 	0.91873 0.16467 0.13067 0.05700
C 	C 	0.90323 0.17967 0.27567 -0.15500
C 	C 	0.93933 0.23337 0.35067 0.42500
O 	O 	0.92413 0.24337 0.48467 -0.49700
O 	O 	0.98193 0.26477 0.27567 -0.50900
H 	H 	0.94903 0.19267 0.07507 0.02000
C 	C 	0.64000 0.21600 0.09000 -0.04700
H 	H 	0.67630 0.24560 0.08220 0.03200
C 	C 	0.62400 0.18500 0.24000 -0.06200
H 	H 	0.64680 0.19270 0.33250 0.04100
C 	C 	0.55200 0.16100 0.97300 0.04100
H 	H 	0.52720 0.15260 0.88300 0.02100
C 	C 	0.53300 0.12400 0.11500 -0.11500
H 	H 	0.49680 0.09490 0.12250 0.06200
C 	C 	0.50200 0.08740 0.46400 0.03100
C 	C 	0.48700 0.05690 0.60900 -0.14600
C 	C 	0.43330 0.03930 0.68400 0.41900
O 	O 	0.42330 0.01410 0.81800 -0.50300
O 	O 	0.40190 0.05050 0.60900 -0.52500
H 	H 	0.47400 0.08970 0.40840 0.03100
C 	C 	0.30667 0.54933 0.42333 -0.02600
H 	H 	0.34297 0.57893 0.41553 0.03100
C 	C 	0.29067 0.51833 0.57333 -0.05200
H 	H 	0.31347 0.52603 0.66583 0.03800
C 	C 	0.21867 0.49433 0.30633 -0.01200
H 	H 	0.19387 0.48593 0.21633 0.02600
C 	C 	0.19967 0.45733 0.44833 -0.06000
H 	H 	0.16347 0.42823 0.45583 0.05100
C 	C 	0.16867 0.42073 0.79733 -0.07000
C 	C 	0.15367 0.39023 0.94233 0.02100
C 	C 	0.09997 0.37263 0.01733 0.29700
O 	O 	0.08997 0.34743 0.15133 -0.48100
O 	O 	0.06857 0.38383 0.94233 -0.46400
H 	H 	0.14067 0.42303 0.74173 0.06700
C 	C 	0.97333 0.88267 0.75667 0.09200
H 	H 	0.00963 0.91227 0.74887 -0.01500
C 	C 	0.95733 0.85167 0.90667 -0.13900
H 	H 	0.98013 0.85937 0.99917 0.12000
C 	C 	0.88533 0.82767 0.63967 0.05700
H 	H 	0.86053 0.81927 0.54967 0.01000
C 	C 	0.86633 0.79067 0.78167 -0.12900
H 	H 	0.83013 0.76157 0.78917 0.08200
C 	C 	0.83533 0.75407 0.13067 0.06300
C 	C 	0.82033 0.72357 0.27567 -0.16000
C 	C 	0.76663 0.70597 0.35067 0.42700
O 	O 	0.75663 0.68077 0.48467 -0.50300
O 	O 	0.73523 0.71717 0.27567 -0.52600
H 	H 	0.80733 0.75637 0.07507 0.01100
C 	C 	0.42400 0.78400 0.91000 0.03500
H 	H 	0.43070 0.75440 0.91780 0.02300
C 	C 	0.43900 0.81500 0.76000 -0.07800
H 	H 	0.45410 0.80730 0.66750 0.04900
C 	C 	0.39100 0.83900 0.02700 -0.04100
H 	H 	0.37460 0.84740 0.11700 0.03400
C 	C 	0.40900 0.87600 0.88500 -0.03400
H 	H 	0.40190 0.90510 0.87750 0.05600
C 	C 	0.41460 0.91260 0.53600 0.02100
C 	C 	0.43010 0.94310 0.39100 -0.13100
C 	C 	0.39400 0.96070 0.31600 0.41900
O 	O 	0.40920 0.98590 0.18200 -0.49200
O 	O 	0.35140 0.94950 0.39100 -0.51300
H 	H 	0.38430 0.91030 0.59160 0.04000
C 	C 	0.09067 0.11733 0.24333 -0.04400
H 	H 	0.09737 0.08773 0.25113 0.03000
C 	C 	0.10567 0.14833 0.09333 -0.03500
H 	H 	0.12077 0.14063 0.00083 0.00200
C 	C 	0.05767 0.17233 0.36033 -0.02600
H 	H 	0.04127 0.18073 0.45033 0.02800
C 	C 	0.07567 0.20933 0.21833 -0.04700
H 	H 	0.06857 0.23843 0.21083 0.03700
C 	C 	0.08127 0.24593 0.86933 -0.01200
C 	C 	0.09677 0.27643 0.72433 -0.11900
C 	C 	0.06067 0.29403 0.64933 0.41300
O 	O 	0.07587 0.31923 0.51533 -0.50600
O 	O 	0.01807 0.28283 0.72433 -0.52800
H 	H 	0.05097 0.24363 0.92493 0.05600
C 	C 	0.75733 0.45067 0.57667 -0.00200
H 	H 	0.76403 0.42107 0.58447 0.02600
C 	C 	0.77233 0.48167 0.42667 -0.08100
H 	H 	0.78743 0.47397 0.33417 0.04900
C 	C 	0.72433 0.50567 0.69367 0.01500
H 	H 	0.70793 0.51407 0.78367 0.02800
C 	C 	0.74233 0.54267 0.55167 -0.09300
H 	H 	0.73523 0.57177 0.54417 0.06500
C 	C 	0.74793 0.57927 0.20267 0.10700
C 	C 	0.76343 0.60977 0.05767 -0.27200
C 	C 	0.72733 0.62737 0.98267 0.52400
O 	O 	0.74253 0.65257 0.84867 -0.52200
O 	O 	0.68473 0.61617 0.05767 -0.56800
H 	H 	0.71763 0.57697 0.25827 0.00800
C 	C 	0.36000 0.57600 0.91000 0.03500
H 	H 	0.32370 0.56930 0.91780 0.02300
C 	C 	0.37600 0.56100 0.76000 -0.07800
H 	H 	0.35320 0.54590 0.66750 0.04900
C 	C 	0.44800 0.60900 0.02700 -0.04100
H 	H 	0.47280 0.62540 0.11700 0.03400
C 	C 	0.46700 0.59100 0.88500 -0.03400
H 	H 	0.50320 0.59810 0.87750 0.05200
C 	C 	0.49800 0.58540 0.53600 0.02200
C 	C 	0.51300 0.56990 0.39100 -0.14000
C 	C 	0.56670 0.60600 0.31600 0.42000
O 	O 	0.57670 0.59080 0.18200 -0.51000
O 	O 	0.59810 0.64860 0.39100 -0.52100
H 	H 	0.52600 0.61570 0.59160 0.03600
C 	C 	0.02667 0.90933 0.24333 -0.12100
H 	H 	0.99037 0.90263 0.25113 0.07800
C 	C 	0.04267 0.89433 0.09333 0.00800
H 	H 	0.01987 0.87923 0.00083 -0.03500
C 	C 	0.11467 0.94233 0.36033 -0.05400
H 	H 	0.13947 0.95873 0.45033 0.05400
C 	C 	0.13367 0.92433 0.21833 -0.02200
H 	H 	0.16987 0.93143 0.21083 0.03800
C 	C 	0.16467 0.91873 0.86933 -0.00900
C 	C 	0.17967 0.90323 0.72433 -0.11400
C 	C 	0.23337 0.93933 0.64933 0.41100
O 	O 	0.24337 0.92413 0.51533 -0.49600
O 	O 	0.26477 0.98193 0.72433 -0.49500
H 	H 	0.19267 0.94903 0.92493 0.06700
C 	C 	0.69333 0.24267 0.57667 -0.00200
H 	H 	0.65703 0.23597 0.58447 0.02600
C 	C 	0.70933 0.22767 0.42667 -0.08100
H 	H 	0.68653 0.21257 0.33417 0.04900
C 	C 	0.78133 0.27567 0.69367 0.01500
H 	H 	0.80613 0.29207 0.78367 0.02800
C 	C 	0.80033 0.25767 0.55167 -0.09300
H 	H 	0.83653 0.26477 0.54417 0.06500
C 	C 	0.83133 0.25207 0.20267 0.10500
C 	C 	0.84633 0.23657 0.05767 -0.26800
C 	C 	0.90003 0.27267 0.98267 0.51800
O 	O 	0.91003 0.25747 0.84867 -0.51600
O 	O 	0.93143 0.31527 0.05767 -0.55600
H 	H 	0.85933 0.28237 0.25827 0.01000
C 	C 	0.21600 0.64000 0.91000 0.03500
H 	H 	0.24560 0.67630 0.91780 0.02300
C 	C 	0.18500 0.62400 0.76000 -0.07800
H 	H 	0.19270 0.64680 0.66750 0.04900
C 	C 	0.16100 0.55200 0.02700 -0.04300
H 	H 	0.15260 0.52720 0.11700 0.03400
C 	C 	0.12400 0.53300 0.88500 -0.03300
H 	H 	0.09490 0.49680 0.87750 0.04800
C 	C 	0.08740 0.50200 0.53600 0.02300
C 	C 	0.05690 0.48700 0.39100 -0.14700
C 	C 	0.03930 0.43330 0.31600 0.42000
O 	O 	0.01410 0.42330 0.18200 -0.52200
O 	O 	0.05050 0.40190 0.39100 -0.52800
H 	H 	0.08970 0.47400 0.59160 0.03300
C 	C 	0.88267 0.97333 0.24333 0.05100
H 	H 	0.91227 0.00963 0.25113 -0.01500
C 	C 	0.85167 0.95733 0.09333 -0.08300
H 	H 	0.85937 0.98013 0.00083 0.04600
C 	C 	0.82767 0.88533 0.36033 0.01100
H 	H 	0.81927 0.86053 0.45033 0.02500
C 	C 	0.79067 0.86633 0.21833 -0.07300
H 	H 	0.76157 0.83013 0.21083 0.05000
C 	C 	0.75407 0.83533 0.86933 -0.00200
C 	C 	0.72357 0.82033 0.72433 -0.12100
C 	C 	0.70597 0.76663 0.64933 0.41400
O 	O 	0.68077 0.75663 0.51533 -0.50200
O 	O 	0.71717 0.73523 0.72433 -0.51400
H 	H 	0.75637 0.80733 0.92493 0.05700
C 	C 	0.54933 0.30667 0.57667 -0.00200
H 	H 	0.57893 0.34297 0.58447 0.02600
C 	C 	0.51833 0.29067 0.42667 -0.08200
H 	H 	0.52603 0.31347 0.33417 0.04900
C 	C 	0.49433 0.21867 0.69367 0.01500
H 	H 	0.48593 0.19387 0.78367 0.02800
C 	C 	0.45733 0.19967 0.55167 -0.09300
H 	H 	0.42823 0.16347 0.54417 0.06600
C 	C 	0.42073 0.16867 0.20267 0.11100
C 	C 	0.39023 0.15367 0.05767 -0.27900
C 	C 	0.37263 0.09997 0.98267 0.52900
O 	O 	0.34743 0.08997 0.84867 -0.52700
O 	O 	0.38383 0.06857 0.05767 -0.57600
H 	H 	0.42303 0.14067 0.25827 0.00600
Zn	Zn	0.04200 0.70867 0.33333 1.22000
Zn	Zn	0.29133 0.33333 0.33333 1.22500
Zn	Zn	0.66667 0.95800 0.33333 1.23100
Zn	Zn	0.70867 0.04200 0.66667 1.22200
Zn	Zn	0.37533 0.37533 -0.00000 1.21500
Zn	Zn	0.33333 0.29133 0.66667 1.22800
Zn	Zn	-0.00000 0.62467 -0.00000 1.20600
Zn	Zn	0.95800 0.66667 0.66667 1.23400
Zn	Zn	0.62467 0.00000 -0.00000 1.20600
Zn	Zn	0.95800 0.29133 0.66667 1.23400
Zn	Zn	0.62467 0.62467 -0.00000 1.21600
Zn	Zn	0.70867 0.66667 0.66667 1.22800
Zn	Zn	0.37533 0.00000 -0.00000 1.20500
Zn	Zn	0.33333 0.04200 0.66667 1.22200
Zn	Zn	-0.00000 0.37533 -0.00000 1.20600
Zn	Zn	0.29133 0.95800 0.33333 1.23100
Zn	Zn	0.66667 0.70867 0.33333 1.22500
Zn	Zn	0.04200 0.33333 0.33333 1.22000
C 	C 	0.20200 0.60100 0.04200 -0.10200
H 	H 	0.22370 0.61185 0.13990 0.04700
C 	C 	0.13690 0.56845 0.75700 0.06500
C 	C 	0.10370 0.55185 0.60600 -0.05100
C 	C 	0.04210 0.52105 0.31900 0.07800
H 	H 	0.01270 0.50635 0.21100 0.02300
C 	C 	0.86867 0.93433 0.37533 -0.07200
H 	H 	0.89037 0.94518 0.47323 0.05200
C 	C 	0.80357 0.90178 0.09033 0.03300
C 	C 	0.77037 0.88518 0.93933 0.00900
C 	C 	0.70877 0.85438 0.65233 0.06700
H 	H 	0.67937 0.83968 0.54433 0.03900
C 	C 	0.53533 0.26767 0.70867 -0.08900
H 	H 	0.55703 0.27852 0.80657 0.05700
C 	C 	0.47023 0.23512 0.42367 0.12600
C 	C 	0.43703 0.21852 0.27267 -0.12500
C 	C 	0.37543 0.18772 0.98567 0.22800
H 	H 	0.34603 0.17302 0.87767 0.01000
C 	C 	0.39900 0.60100 0.04200 -0.10300
H 	H 	0.38815 0.61185 0.13990 0.04700
C 	C 	0.43155 0.56845 0.75700 0.06600
C 	C 	0.44815 0.55185 0.60600 -0.04700
C 	C 	0.47895 0.52105 0.31900 0.07800
H 	H 	0.49365 0.50635 0.21100 0.03200
C 	C 	0.06567 0.93433 0.37533 -0.02100
H 	H 	0.05482 0.94518 0.47323 0.02900
C 	C 	0.09822 0.90178 0.09033 0.00600
C 	C 	0.11482 0.88518 0.93933 0.02200
C 	C 	0.14562 0.85438 0.65233 0.06500
H 	H 	0.16032 0.83968 0.54433 0.03900
C 	C 	0.73233 0.26767 0.70867 -0.08800
H 	H 	0.72148 0.27852 0.80657 0.05600
C 	C 	0.76488 0.23512 0.42367 0.12400
C 	C 	0.78148 0.21852 0.27267 -0.12000
C 	C 	0.81228 0.18772 0.98567 0.21900
H 	H 	0.82698 0.17302 0.87767 0.01200
C 	C 	0.39900 0.79800 0.04200 -0.10400
H 	H 	0.38815 0.77630 0.13990 0.04700
C 	C 	0.43155 0.86310 0.75700 0.06600
C 	C 	0.44815 0.89630 0.60600 -0.04100
C 	C 	0.47895 0.95790 0.31900 0.07700
H 	H 	0.49365 0.98730 0.21100 0.04200
C 	C 	0.06567 0.13133 0.37533 0.03100
H 	H 	0.05482 0.10963 0.47323 0.00500
C 	C 	0.09822 0.19643 0.09033 -0.01500
C 	C 	0.11482 0.22963 0.93933 0.02900
C 	C 	0.14562 0.29123 0.65233 0.06500
H 	H 	0.16032 0.32063 0.54433 0.03900
C 	C 	0.73233 0.46467 0.70867 -0.08800
H 	H 	0.72148 0.44297 0.80657 0.05600
C 	C 	0.76488 0.52977 0.42367 0.12400
C 	C 	0.78148 0.56297 0.27267 -0.12100
C 	C 	0.81228 0.62457 0.98567 0.22000
H 	H 	0.82698 0.65397 0.87767 0.01100
C 	C 	0.60100 0.20200 0.95800 -0.04500
H 	H 	0.61185 0.22370 0.86010 0.04100
C 	C 	0.56845 0.13690 0.24300 0.10900
C 	C 	0.55185 0.10370 0.39400 -0.06900
C 	C 	0.52105 0.04210 0.68100 0.08200
H 	H 	0.50635 0.01270 0.78900 0.03200
C 	C 	0.26767 0.53533 0.29133 -0.04100
H 	H 	0.27852 0.55703 0.19343 0.02600
C 	C 	0.23512 0.47023 0.57633 0.04600
C 	C 	0.21852 0.43703 0.72733 0.02400
C 	C 	0.18772 0.37543 0.01433 -0.09100
H 	H 	0.17302 0.34603 0.12233 0.06800
C 	C 	0.93433 0.86867 0.62467 -0.15700
H 	H 	0.94518 0.89037 0.52677 0.07900
C 	C 	0.90178 0.80357 0.90967 0.18400
C 	C 	0.88518 0.77037 0.06067 -0.13200
C 	C 	0.85438 0.70877 0.34767 0.09400
H 	H 	0.83968 0.67937 0.45567 0.03500
C 	C 	0.60100 0.39900 0.95800 -0.04700
H 	H 	0.61185 0.38815 0.86010 0.04200
C 	C 	0.56845 0.43155 0.24300 0.11000
C 	C 	0.55185 0.44815 0.39400 -0.06400
C 	C 	0.52105 0.47895 0.68100 0.08100
H 	H 	0.50635 0.49365 0.78900 0.04200
C 	C 	0.26767 0.73233 0.29133 -0.04100
H 	H 	0.27852 0.72148 0.19343 0.02600
C 	C 	0.23512 0.76488 0.57633 0.04600
C 	C 	0.21852 0.78148 0.72733 0.02500
C 	C 	0.18772 0.81228 0.01433 -0.09300
H 	H 	0.17302 0.82698 0.12233 0.06900
C 	C 	0.93433 0.06567 0.62467 -0.10500
H 	H 	0.94518 0.05482 0.52677 0.05400
C 	C 	0.90178 0.09822 0.90967 0.16000
C 	C 	0.88518 0.11482 0.06067 -0.12200
C 	C 	0.85438 0.14562 0.34767 0.09300
H 	H 	0.83968 0.16032 0.45567 0.03500
C 	C 	0.79800 0.39900 0.95800 -0.04700
H 	H 	0.77630 0.38815 0.86010 0.04200
C 	C 	0.86310 0.43155 0.24300 0.10900
C 	C 	0.89630 0.44815 0.39400 -0.05800
C 	C 	0.95790 0.47895 0.68100 0.08000
H 	H 	0.98730 0.49365 0.78900 0.05000
C 	C 	0.46467 0.73233 0.29133 -0.04200
H 	H 	0.44297 0.72148 0.19343 0.02600
C 	C 	0.52977 0.76488 0.57633 0.04700
C 	C 	0.56297 0.78148 0.72733 0.02200
C 	C 	0.62457 0.81228 0.01433 -0.08700
H 	H 	0.65397 0.82698 0.12233 0.06800
C 	C 	0.13133 0.06567 0.62467 -0.06300
H 	H 	0.10963 0.05482 0.52677 0.03400
C 	C 	0.19643 0.09822 0.90967 0.14600
C 	C 	0.22963 0.11482 0.06067 -0.12100
C 	C 	0.29123 0.14562 0.34767 0.09400
H 	H 	0.32063 0.16032 0.45567 0.03500
