data_crystal

_cell_length_a 28.75270
_cell_length_b 28.75270
_cell_length_c 8.19400
_cell_angle_alpha 90.00000
_cell_angle_beta  90.00000
_cell_angle_gamma 120.00000

_symmetry_space_group_name_	'P 1'
_symmetry_space_group_name_H-M	'P 1'

loop_
_symmetry_equiv_pos_as_xyz
  x,y,z

loop_
_atom_site_label
_atom_site_type_symbol
_atom_site_fract_x
_atom_site_fract_y
_atom_site_fract_z
_atom_site_charge
O 	O 	0.05020 0.64840 0.38900 -0.52700
O 	O 	0.01400 0.59080 0.18200 -0.52300
C 	C 	0.03900 0.60570 0.31400 0.41900
C 	C 	0.05670 0.56990 0.39000 -0.11600
C 	C 	0.08730 0.58510 0.53300 -0.04500
H 	H 	0.09300 0.61100 0.58000 0.06400
C 	C 	0.18600 0.56100 0.76000 -0.05600
C 	C 	0.12700 0.59200 0.88000 -0.02500
C 	C 	0.21800 0.57700 0.90000 0.01000
H 	H 	0.19600 0.54810 0.66230 0.04300
C 	C 	0.16300 0.60900 0.02000 -0.04400
H 	H 	0.09710 0.59760 0.87650 0.04200
H 	H 	0.24370 0.56620 0.92190 0.03200
H 	H 	0.15470 0.62580 0.10720 0.03500
H 	H 	0.01000 0.50700 0.22000 0.01200
O 	O 	0.71687 0.98173 0.72233 -0.49600
O 	O 	0.68067 0.92413 0.51533 -0.49800
C 	C 	0.70567 0.93903 0.64733 0.40400
C 	C 	0.72337 0.90323 0.72333 -0.07200
C 	C 	0.75397 0.91843 0.86633 -0.10500
H 	H 	0.75967 0.94433 0.91333 0.10800
C 	C 	0.85267 0.89433 0.09333 -0.08200
C 	C 	0.79367 0.92533 0.21333 -0.04900
C 	C 	0.88467 0.91033 0.23333 -0.00600
H 	H 	0.86267 0.88143 0.99563 0.07400
C 	C 	0.82967 0.94233 0.35333 -0.00600
H 	H 	0.76377 0.93093 0.20983 0.04700
H 	H 	0.91037 0.89953 0.25523 0.02800
H 	H 	0.82137 0.95913 0.44053 0.03700
H 	H 	0.67667 0.84033 0.55333 0.02000
O 	O 	0.38353 0.31507 0.05567 -0.56300
O 	O 	0.34733 0.25747 0.84867 -0.53000
C 	C 	0.37233 0.27237 0.98067 0.53500
C 	C 	0.39003 0.23657 0.05667 -0.31200
C 	C 	0.42063 0.25177 0.19967 0.22500
H 	H 	0.42633 0.27767 0.24667 -0.05600
C 	C 	0.51933 0.22767 0.42667 -0.09000
C 	C 	0.46033 0.25867 0.54667 -0.12700
C 	C 	0.55133 0.24367 0.56667 0.01100
H 	H 	0.52933 0.21477 0.32897 0.05100
C 	C 	0.49633 0.27567 0.68667 0.04500
H 	H 	0.43043 0.26427 0.54317 0.07900
H 	H 	0.57703 0.23287 0.58857 0.02200
H 	H 	0.48803 0.29247 0.77387 0.01700
H 	H 	0.34333 0.17367 0.88667 0.00200
O 	O 	0.35160 0.40180 0.38900 -0.52000
O 	O 	0.40920 0.42320 0.18200 -0.50900
C 	C 	0.39430 0.43330 0.31400 0.41700
C 	C 	0.43010 0.48680 0.39000 -0.10600
C 	C 	0.41490 0.50220 0.53300 -0.05400
H 	H 	0.38900 0.48200 0.58000 0.07000
C 	C 	0.43900 0.62500 0.76000 -0.05700
C 	C 	0.40800 0.53500 0.88000 -0.02700
C 	C 	0.42300 0.64100 0.90000 0.00800
H 	H 	0.45190 0.64790 0.66230 0.04100
C 	C 	0.39100 0.55400 0.02000 -0.04300
H 	H 	0.40240 0.49950 0.87650 0.04600
H 	H 	0.43380 0.67750 0.92190 0.03200
H 	H 	0.37420 0.52890 0.10720 0.03500
H 	H 	0.49300 0.50300 0.22000 0.01700
O 	O 	0.01827 0.73513 0.72233 -0.52800
O 	O 	0.07587 0.75653 0.51533 -0.50700
C 	C 	0.06097 0.76663 0.64733 0.40400
C 	C 	0.09677 0.82013 0.72333 -0.07000
C 	C 	0.08157 0.83553 0.86633 -0.12100
H 	H 	0.05567 0.81533 0.91333 0.10500
C 	C 	0.10567 0.95833 0.09333 -0.13300
C 	C 	0.07467 0.86833 0.21333 -0.07800
C 	C 	0.08967 0.97433 0.23333 0.07900
H 	H 	0.11857 0.98123 0.99563 0.11800
C 	C 	0.05767 0.88733 0.35333 0.02600
H 	H 	0.06907 0.83283 0.20983 0.04700
H 	H 	0.10047 0.01083 0.25523 -0.02100
H 	H 	0.04087 0.86223 0.44053 0.01000
H 	H 	0.15967 0.83633 0.55333 0.02100
O 	O 	0.68493 0.06847 0.05567 -0.56700
O 	O 	0.74253 0.08987 0.84867 -0.53200
C 	C 	0.72763 0.09997 0.98067 0.52900
C 	C 	0.76343 0.15347 0.05667 -0.29900
C 	C 	0.74823 0.16887 0.19967 0.20600
H 	H 	0.72233 0.14867 0.24667 -0.04800
C 	C 	0.77233 0.29167 0.42667 -0.08700
C 	C 	0.74133 0.20167 0.54667 -0.12200
C 	C 	0.75633 0.30767 0.56667 0.00900
H 	H 	0.78523 0.31457 0.32897 0.05100
C 	C 	0.72433 0.22067 0.68667 0.04100
H 	H 	0.73573 0.16617 0.54317 0.07700
H 	H 	0.76713 0.34417 0.58857 0.02200
H 	H 	0.70753 0.19557 0.77387 0.01800
H 	H 	0.82633 0.16967 0.88667 0.00400
O 	O 	0.59820 0.94980 0.38900 -0.51200
O 	O 	0.57680 0.98600 0.18200 -0.49400
C 	C 	0.56670 0.96100 0.31400 0.41400
C 	C 	0.51320 0.94330 0.39000 -0.09400
C 	C 	0.49780 0.91270 0.53300 -0.06300
H 	H 	0.51800 0.90700 0.58000 0.07700
C 	C 	0.37500 0.81400 0.76000 -0.05600
C 	C 	0.46500 0.87300 0.88000 -0.02600
C 	C 	0.35900 0.78200 0.90000 0.00800
H 	H 	0.35210 0.80400 0.66230 0.04100
C 	C 	0.44600 0.83700 0.02000 -0.04300
H 	H 	0.50050 0.90290 0.87650 0.05000
H 	H 	0.32250 0.75630 0.92190 0.03200
H 	H 	0.47110 0.84530 0.10720 0.03500
H 	H 	0.49700 0.99000 0.22000 0.02100
O 	O 	0.26487 0.28313 0.72233 -0.51000
O 	O 	0.24347 0.31933 0.51533 -0.50100
C 	C 	0.23337 0.29433 0.64733 0.40000
C 	C 	0.17987 0.27663 0.72333 -0.05900
C 	C 	0.16447 0.24603 0.86633 -0.13900
H 	H 	0.18467 0.24033 0.91333 0.12000
C 	C 	0.04167 0.14733 0.09333 -0.03100
C 	C 	0.13167 0.20633 0.21333 -0.01200
C 	C 	0.02567 0.11533 0.23333 -0.11200
H 	H 	0.01877 0.13733 0.99563 0.03100
C 	C 	0.11267 0.17033 0.35333 -0.05400
H 	H 	0.16717 0.23623 0.20983 0.03000
H 	H 	0.98917 0.08963 0.25523 0.07900
H 	H 	0.13777 0.17863 0.44053 0.04500
H 	H 	0.16367 0.32333 0.55333 0.02100
O 	O 	0.93153 0.61647 0.05567 -0.54900
O 	O 	0.91013 0.65267 0.84867 -0.52300
C 	C 	0.90003 0.62767 0.98067 0.52500
C 	C 	0.84653 0.60997 0.05667 -0.29700
C 	C 	0.83113 0.57937 0.19967 0.20500
H 	H 	0.85133 0.57367 0.24667 -0.04700
C 	C 	0.70833 0.48067 0.42667 -0.08700
C 	C 	0.79833 0.53967 0.54667 -0.12300
C 	C 	0.69233 0.44867 0.56667 0.00900
H 	H 	0.68543 0.47067 0.32897 0.05100
C 	C 	0.77933 0.50367 0.68667 0.04200
H 	H 	0.83383 0.56957 0.54317 0.07700
H 	H 	0.65583 0.42297 0.58857 0.02200
H 	H 	0.80443 0.51197 0.77387 0.01700
H 	H 	0.83033 0.65667 0.88667 0.00300
O 	O 	0.64840 0.05020 0.61100 -0.52400
O 	O 	0.59080 0.01400 0.81800 -0.50800
C 	C 	0.60570 0.03900 0.68600 0.41900
C 	C 	0.56990 0.05670 0.61000 -0.12200
C 	C 	0.58510 0.08730 0.46700 -0.02600
H 	H 	0.61100 0.09300 0.42000 0.05900
C 	C 	0.56100 0.18600 0.24000 -0.04800
C 	C 	0.59200 0.12700 0.12000 -0.10400
C 	C 	0.57700 0.21800 0.10000 -0.04200
H 	H 	0.54810 0.19600 0.33770 0.03400
C 	C 	0.60900 0.16300 0.98000 0.03400
H 	H 	0.59760 0.09710 0.12350 0.06000
H 	H 	0.56620 0.24370 0.07810 0.03100
H 	H 	0.62580 0.15470 0.89280 0.02200
H 	H 	0.50700 0.01000 0.78000 0.01500
O 	O 	0.31507 0.38353 0.94433 -0.46300
O 	O 	0.25747 0.34733 0.15133 -0.47200
C 	C 	0.27237 0.37233 0.01933 0.28000
C 	C 	0.23657 0.39003 0.94333 0.13200
C 	C 	0.25177 0.42063 0.80033 -0.35800
H 	H 	0.27767 0.42633 0.75333 0.21200
C 	C 	0.22767 0.51933 0.57333 -0.00400
C 	C 	0.25867 0.46033 0.45333 -0.00100
C 	C 	0.24367 0.55133 0.43333 -0.06100
H 	H 	0.21477 0.52933 0.67103 0.01900
C 	C 	0.27567 0.49633 0.31333 -0.05600
H 	H 	0.26427 0.43043 0.45683 0.02800
H 	H 	0.23287 0.57703 0.41143 0.04300
H 	H 	0.29247 0.48803 0.22613 0.04100
H 	H 	0.17367 0.34333 0.11333 0.03700
O 	O 	0.98173 0.71687 0.27767 -0.50700
O 	O 	0.92413 0.68067 0.48467 -0.50100
C 	C 	0.93903 0.70567 0.35267 0.43200
C 	C 	0.90323 0.72337 0.27667 -0.14800
C 	C 	0.91843 0.75397 0.13367 0.03800
H 	H 	0.94433 0.75967 0.08667 0.02800
C 	C 	0.89433 0.85267 0.90667 -0.01900
C 	C 	0.92533 0.79367 0.78667 -0.08600
C 	C 	0.91033 0.88467 0.76667 -0.03300
H 	H 	0.88143 0.86267 0.00437 -0.00000
C 	C 	0.94233 0.82967 0.64667 0.00700
H 	H 	0.93093 0.76377 0.79017 0.07100
H 	H 	0.89953 0.91037 0.74477 0.03900
H 	H 	0.95913 0.82137 0.55947 0.03400
H 	H 	0.84033 0.67667 0.44667 0.01500
O 	O 	0.40180 0.35160 0.61100 -0.51600
O 	O 	0.42320 0.40920 0.81800 -0.49500
C 	C 	0.43330 0.39430 0.68600 0.41800
C 	C 	0.48680 0.43010 0.61000 -0.11100
C 	C 	0.50220 0.41490 0.46700 -0.03300
H 	H 	0.48200 0.38900 0.42000 0.06500
C 	C 	0.62500 0.43900 0.24000 -0.04800
C 	C 	0.53500 0.40800 0.12000 -0.10400
C 	C 	0.64100 0.42300 0.10000 -0.04200
H 	H 	0.64790 0.45190 0.33770 0.03400
C 	C 	0.55400 0.39100 0.98000 0.03500
H 	H 	0.49950 0.40240 0.12350 0.06400
H 	H 	0.67750 0.43380 0.07810 0.03100
H 	H 	0.52890 0.37420 0.89280 0.02200
H 	H 	0.50300 0.49300 0.78000 0.01900
O 	O 	0.06847 0.68493 0.94433 -0.46800
O 	O 	0.08987 0.74253 0.15133 -0.47700
C 	C 	0.09997 0.72763 0.01933 0.27900
C 	C 	0.15347 0.76343 0.94333 0.13500
C 	C 	0.16887 0.74823 0.80033 -0.36200
H 	H 	0.14867 0.72233 0.75333 0.21300
C 	C 	0.29167 0.77233 0.57333 -0.00400
C 	C 	0.20167 0.74133 0.45333 0.00000
C 	C 	0.30767 0.75633 0.43333 -0.06100
H 	H 	0.31457 0.78523 0.67103 0.01900
C 	C 	0.22067 0.72433 0.31333 -0.05700
H 	H 	0.16617 0.73573 0.45683 0.02800
H 	H 	0.34417 0.76713 0.41143 0.04300
H 	H 	0.19557 0.70753 0.22613 0.04200
H 	H 	0.16967 0.82633 0.11333 0.03700
O 	O 	0.73513 0.01827 0.27767 -0.54000
O 	O 	0.75653 0.07587 0.48467 -0.51100
C 	C 	0.76663 0.06097 0.35267 0.43400
C 	C 	0.82013 0.09677 0.27667 -0.15000
C 	C 	0.83553 0.08157 0.13367 0.02900
H 	H 	0.81533 0.05567 0.08667 0.02100
C 	C 	0.95833 0.10567 0.90667 -0.07300
C 	C 	0.86833 0.07467 0.78667 -0.12000
C 	C 	0.97433 0.08967 0.76667 0.06200
H 	H 	0.98123 0.11857 0.00437 0.04500
C 	C 	0.88733 0.05767 0.64667 0.04400
H 	H 	0.83283 0.06907 0.79017 0.07400
H 	H 	0.01083 0.10047 0.74477 -0.01400
H 	H 	0.86223 0.04087 0.55947 0.00500
H 	H 	0.83633 0.15967 0.44667 0.01600
O 	O 	0.94980 0.59820 0.61100 -0.50700
O 	O 	0.98600 0.57680 0.81800 -0.47800
C 	C 	0.96100 0.56670 0.68600 0.41500
C 	C 	0.94330 0.51320 0.61000 -0.09800
C 	C 	0.91270 0.49780 0.46700 -0.04500
H 	H 	0.90700 0.51800 0.42000 0.07300
C 	C 	0.81400 0.37500 0.24000 -0.04700
C 	C 	0.87300 0.46500 0.12000 -0.10000
C 	C 	0.78200 0.35900 0.10000 -0.04200
H 	H 	0.80400 0.35210 0.33770 0.03300
C 	C 	0.83700 0.44600 0.98000 0.03200
H 	H 	0.90290 0.50050 0.12350 0.06700
H 	H 	0.75630 0.32250 0.07810 0.03100
H 	H 	0.84530 0.47110 0.89280 0.02300
H 	H 	0.99000 0.49700 0.78000 0.02400
O 	O 	0.61647 0.93153 0.94433 -0.45400
O 	O 	0.65267 0.91013 0.15133 -0.46900
C 	C 	0.62767 0.90003 0.01933 0.28200
C 	C 	0.60997 0.84653 0.94333 0.12600
C 	C 	0.57937 0.83113 0.80033 -0.35100
H 	H 	0.57367 0.85133 0.75333 0.20900
C 	C 	0.48067 0.70833 0.57333 -0.00500
C 	C 	0.53967 0.79833 0.45333 -0.00200
C 	C 	0.44867 0.69233 0.43333 -0.06000
H 	H 	0.47067 0.68543 0.67103 0.01900
C 	C 	0.50367 0.77933 0.31333 -0.05500
H 	H 	0.56957 0.83383 0.45683 0.02900
H 	H 	0.42297 0.65583 0.41143 0.04300
H 	H 	0.51197 0.80443 0.22613 0.04100
H 	H 	0.65667 0.83033 0.11333 0.03600
O 	O 	0.28313 0.26487 0.27767 -0.52400
O 	O 	0.31933 0.24347 0.48467 -0.50600
C 	C 	0.29433 0.23337 0.35267 0.43000
C 	C 	0.27663 0.17987 0.27667 -0.14200
C 	C 	0.24603 0.16447 0.13367 0.01500
H 	H 	0.24033 0.18467 0.08667 0.03300
C 	C 	0.14733 0.04167 0.90667 0.03200
C 	C 	0.20633 0.13167 0.78667 -0.05800
C 	C 	0.11533 0.02567 0.76667 -0.12600
H 	H 	0.13733 0.01877 0.00437 -0.04400
C 	C 	0.17033 0.11267 0.64667 -0.03400
H 	H 	0.23623 0.16717 0.79017 0.05700
H 	H 	0.08963 0.98917 0.74477 0.08400
H 	H 	0.17863 0.13777 0.55947 0.03800
H 	H 	0.32333 0.16367 0.44667 0.01600
O 	O 	0.94980 0.35160 0.61100 -0.50700
O 	O 	0.98600 0.40920 0.81800 -0.47800
C 	C 	0.96100 0.39430 0.68600 0.41500
C 	C 	0.94330 0.43010 0.61000 -0.09800
C 	C 	0.91270 0.41490 0.46700 -0.04500
H 	H 	0.90700 0.38900 0.42000 0.07300
C 	C 	0.81400 0.43900 0.24000 -0.04700
C 	C 	0.87300 0.40800 0.12000 -0.10000
C 	C 	0.78200 0.42300 0.10000 -0.04200
H 	H 	0.80400 0.45190 0.33770 0.03300
C 	C 	0.83700 0.39100 0.98000 0.03200
H 	H 	0.90290 0.40240 0.12350 0.06700
H 	H 	0.75630 0.43380 0.07810 0.03100
H 	H 	0.84530 0.37420 0.89280 0.02300
H 	H 	0.99000 0.49300 0.78000 0.02400
O 	O 	0.61647 0.68493 0.94433 -0.46400
O 	O 	0.65267 0.74253 0.15133 -0.47400
C 	C 	0.62767 0.72763 0.01933 0.28400
C 	C 	0.60997 0.76343 0.94333 0.12500
C 	C 	0.57937 0.74823 0.80033 -0.35000
H 	H 	0.57367 0.72233 0.75333 0.20800
C 	C 	0.48067 0.77233 0.57333 -0.00600
C 	C 	0.53967 0.74133 0.45333 -0.00200
C 	C 	0.44867 0.75633 0.43333 -0.06000
H 	H 	0.47067 0.78523 0.67103 0.01900
C 	C 	0.50367 0.72433 0.31333 -0.05500
H 	H 	0.56957 0.73573 0.45683 0.02900
H 	H 	0.42297 0.76713 0.41143 0.04300
H 	H 	0.51197 0.70753 0.22613 0.04100
H 	H 	0.65667 0.82633 0.11333 0.03600
O 	O 	0.28313 0.01827 0.27767 -0.54000
O 	O 	0.31933 0.07587 0.48467 -0.51100
C 	C 	0.29433 0.06097 0.35267 0.43200
C 	C 	0.27663 0.09677 0.27667 -0.14500
C 	C 	0.24603 0.08157 0.13367 0.01900
H 	H 	0.24033 0.05567 0.08667 0.02600
C 	C 	0.14733 0.10567 0.90667 -0.01500
C 	C 	0.20633 0.07467 0.78667 -0.08800
C 	C 	0.11533 0.08967 0.76667 -0.04000
H 	H 	0.13733 0.11857 0.00437 -0.00500
C 	C 	0.17033 0.05767 0.64667 0.00200
H 	H 	0.23623 0.06907 0.79017 0.06300
H 	H 	0.08963 0.10047 0.74477 0.03700
H 	H 	0.17863 0.04087 0.55947 0.01900
H 	H 	0.32333 0.15967 0.44667 0.01600
O 	O 	0.64840 0.59820 0.61100 -0.51600
O 	O 	0.59080 0.57680 0.81800 -0.49600
C 	C 	0.60570 0.56670 0.68600 0.41800
C 	C 	0.56990 0.51320 0.61000 -0.11200
C 	C 	0.58510 0.49780 0.46700 -0.03300
H 	H 	0.61100 0.51800 0.42000 0.06400
C 	C 	0.56100 0.37500 0.24000 -0.04800
C 	C 	0.59200 0.46500 0.12000 -0.10400
C 	C 	0.57700 0.35900 0.10000 -0.04200
H 	H 	0.54810 0.35210 0.33770 0.03300
C 	C 	0.60900 0.44600 0.98000 0.03400
H 	H 	0.59760 0.50050 0.12350 0.06400
H 	H 	0.56620 0.32250 0.07810 0.03100
H 	H 	0.62580 0.47110 0.89280 0.02200
H 	H 	0.50700 0.49700 0.78000 0.01900
O 	O 	0.31507 0.93153 0.94433 -0.45200
O 	O 	0.25747 0.91013 0.15133 -0.46700
C 	C 	0.27237 0.90003 0.01933 0.27600
C 	C 	0.23657 0.84653 0.94333 0.13600
C 	C 	0.25177 0.83113 0.80033 -0.36400
H 	H 	0.27767 0.85133 0.75333 0.21500
C 	C 	0.22767 0.70833 0.57333 -0.00400
C 	C 	0.25867 0.79833 0.45333 0.00000
C 	C 	0.24367 0.69233 0.43333 -0.06100
H 	H 	0.21477 0.68543 0.67103 0.01800
C 	C 	0.27567 0.77933 0.31333 -0.05700
H 	H 	0.26427 0.83383 0.45683 0.02800
H 	H 	0.23287 0.65583 0.41143 0.04400
H 	H 	0.29247 0.80443 0.22613 0.04200
H 	H 	0.17367 0.83033 0.11333 0.03700
O 	O 	0.98173 0.26487 0.27767 -0.50600
O 	O 	0.92413 0.24347 0.48467 -0.50000
C 	C 	0.93903 0.23337 0.35267 0.42900
C 	C 	0.90323 0.17987 0.27667 -0.14100
C 	C 	0.91843 0.16447 0.13367 0.02100
H 	H 	0.94433 0.18467 0.08667 0.03600
C 	C 	0.89433 0.04167 0.90667 0.02700
C 	C 	0.92533 0.13167 0.78667 -0.05600
C 	C 	0.91033 0.02567 0.76667 -0.12100
H 	H 	0.88143 0.01877 0.00437 -0.03900
C 	C 	0.94233 0.11267 0.64667 -0.03100
H 	H 	0.93093 0.16717 0.79017 0.06100
H 	H 	0.89953 0.98917 0.74477 0.08400
H 	H 	0.95913 0.13777 0.55947 0.04600
H 	H 	0.84033 0.16367 0.44667 0.01600
O 	O 	0.40180 0.05020 0.61100 -0.52300
O 	O 	0.42320 0.01400 0.81800 -0.50800
C 	C 	0.43330 0.03900 0.68600 0.41900
C 	C 	0.48680 0.05670 0.61000 -0.12200
C 	C 	0.50220 0.08730 0.46700 -0.02600
H 	H 	0.48200 0.09300 0.42000 0.05900
C 	C 	0.62500 0.18600 0.24000 -0.04900
C 	C 	0.53500 0.12700 0.12000 -0.10400
C 	C 	0.64100 0.21800 0.10000 -0.04100
H 	H 	0.64790 0.19600 0.33770 0.03400
C 	C 	0.55400 0.16300 0.98000 0.03400
H 	H 	0.49950 0.09710 0.12350 0.06000
H 	H 	0.67750 0.24370 0.07810 0.03100
H 	H 	0.52890 0.15470 0.89280 0.02200
H 	H 	0.50300 0.01000 0.78000 0.01500
O 	O 	0.06847 0.38353 0.94433 -0.46800
O 	O 	0.08987 0.34733 0.15133 -0.47700
C 	C 	0.09997 0.37233 0.01933 0.28000
C 	C 	0.15347 0.39003 0.94333 0.13200
C 	C 	0.16887 0.42063 0.80033 -0.35800
H 	H 	0.14867 0.42633 0.75333 0.21100
C 	C 	0.29167 0.51933 0.57333 -0.00400
C 	C 	0.20167 0.46033 0.45333 -0.00100
C 	C 	0.30767 0.55133 0.43333 -0.06100
H 	H 	0.31457 0.52933 0.67103 0.01900
C 	C 	0.22067 0.49633 0.31333 -0.05600
H 	H 	0.16617 0.43043 0.45683 0.02800
H 	H 	0.34417 0.57703 0.41143 0.04300
H 	H 	0.19557 0.48803 0.22613 0.04100
H 	H 	0.16967 0.34333 0.11333 0.03700
O 	O 	0.73513 0.71687 0.27767 -0.52500
O 	O 	0.75653 0.68067 0.48467 -0.50700
C 	C 	0.76663 0.70567 0.35267 0.43500
C 	C 	0.82013 0.72337 0.27667 -0.15300
C 	C 	0.83553 0.75397 0.13367 0.04300
H 	H 	0.81533 0.75967 0.08667 0.02000
C 	C 	0.95833 0.85267 0.90667 -0.07200
C 	C 	0.86833 0.79367 0.78667 -0.12000
C 	C 	0.97433 0.88467 0.76667 0.06300
H 	H 	0.98123 0.86267 0.00437 0.04400
C 	C 	0.88733 0.82967 0.64667 0.04700
H 	H 	0.83283 0.76377 0.79017 0.07800
H 	H 	0.01083 0.91037 0.74477 -0.01200
H 	H 	0.86223 0.82137 0.55947 0.01300
H 	H 	0.83633 0.67667 0.44667 0.01500
O 	O 	0.35160 0.94980 0.38900 -0.51200
O 	O 	0.40920 0.98600 0.18200 -0.49300
C 	C 	0.39430 0.96100 0.31400 0.41400
C 	C 	0.43010 0.94330 0.39000 -0.09400
C 	C 	0.41490 0.91270 0.53300 -0.06300
H 	H 	0.38900 0.90700 0.58000 0.07600
C 	C 	0.43900 0.81400 0.76000 -0.05600
C 	C 	0.40800 0.87300 0.88000 -0.02500
C 	C 	0.42300 0.78200 0.90000 0.00800
H 	H 	0.45190 0.80400 0.66230 0.04100
C 	C 	0.39100 0.83700 0.02000 -0.04400
H 	H 	0.40240 0.90290 0.87650 0.05000
H 	H 	0.43380 0.75630 0.92190 0.03200
H 	H 	0.37420 0.84530 0.10720 0.03500
H 	H 	0.49300 0.99000 0.22000 0.02100
O 	O 	0.01827 0.28313 0.72233 -0.52800
O 	O 	0.07587 0.31933 0.51533 -0.50700
C 	C 	0.06097 0.29433 0.64733 0.40200
C 	C 	0.09677 0.27663 0.72333 -0.06300
C 	C 	0.08157 0.24603 0.86633 -0.13500
H 	H 	0.05567 0.24033 0.91333 0.11200
C 	C 	0.10567 0.14733 0.09333 -0.08500
C 	C 	0.07467 0.20633 0.21333 -0.04800
C 	C 	0.08967 0.11533 0.23333 -0.01000
H 	H 	0.11857 0.13733 0.99563 0.07700
C 	C 	0.05767 0.17033 0.35333 -0.01200
H 	H 	0.06907 0.23623 0.20983 0.03700
H 	H 	0.10047 0.08963 0.25523 0.02400
H 	H 	0.04087 0.17863 0.44053 0.02200
H 	H 	0.15967 0.32333 0.55333 0.02100
O 	O 	0.68493 0.61647 0.05567 -0.56100
O 	O 	0.74253 0.65267 0.84867 -0.52900
C 	C 	0.72763 0.62767 0.98067 0.53000
C 	C 	0.76343 0.60997 0.05667 -0.30000
C 	C 	0.74823 0.57937 0.19967 0.20700
H 	H 	0.72233 0.57367 0.24667 -0.04800
C 	C 	0.77233 0.48067 0.42667 -0.08800
C 	C 	0.74133 0.53967 0.54667 -0.12300
C 	C 	0.75633 0.44867 0.56667 0.00900
H 	H 	0.78523 0.47067 0.32897 0.05100
C 	C 	0.72433 0.50367 0.68667 0.04200
H 	H 	0.73573 0.56957 0.54317 0.07700
H 	H 	0.76713 0.42297 0.58857 0.02200
H 	H 	0.70753 0.51197 0.77387 0.01700
H 	H 	0.82633 0.65667 0.88667 0.00400
O 	O 	0.59820 0.64840 0.38900 -0.52000
O 	O 	0.57680 0.59080 0.18200 -0.50900
C 	C 	0.56670 0.60570 0.31400 0.41700
C 	C 	0.51320 0.56990 0.39000 -0.10600
C 	C 	0.49780 0.58510 0.53300 -0.05400
H 	H 	0.51800 0.61100 0.58000 0.07000
C 	C 	0.37500 0.56100 0.76000 -0.05700
C 	C 	0.46500 0.59200 0.88000 -0.02700
C 	C 	0.35900 0.57700 0.90000 0.00900
H 	H 	0.35210 0.54810 0.66230 0.04100
C 	C 	0.44600 0.60900 0.02000 -0.04300
H 	H 	0.50050 0.59760 0.87650 0.04600
H 	H 	0.32250 0.56620 0.92190 0.03200
H 	H 	0.47110 0.62580 0.10720 0.03500
H 	H 	0.49700 0.50700 0.22000 0.01700
O 	O 	0.26487 0.98173 0.72233 -0.49500
O 	O 	0.24347 0.92413 0.51533 -0.49600
C 	C 	0.23337 0.93903 0.64733 0.40000
C 	C 	0.17987 0.90323 0.72333 -0.06100
C 	C 	0.16447 0.91843 0.86633 -0.12900
H 	H 	0.18467 0.94433 0.91333 0.12000
C 	C 	0.04167 0.89433 0.09333 -0.03200
C 	C 	0.13167 0.92533 0.21333 -0.01200
C 	C 	0.02567 0.91033 0.23333 -0.10800
H 	H 	0.01877 0.88143 0.99563 0.03300
C 	C 	0.11267 0.94233 0.35333 -0.05000
H 	H 	0.16717 0.93093 0.20983 0.03500
H 	H 	0.98917 0.89953 0.25523 0.08000
H 	H 	0.13777 0.95913 0.44053 0.05200
H 	H 	0.16367 0.84033 0.55333 0.02100
O 	O 	0.93153 0.31507 0.05567 -0.54800
O 	O 	0.91013 0.25747 0.84867 -0.52200
C 	C 	0.90003 0.27237 0.98067 0.52300
C 	C 	0.84653 0.23657 0.05667 -0.29500
C 	C 	0.83113 0.25177 0.19967 0.20300
H 	H 	0.85133 0.27767 0.24667 -0.04600
C 	C 	0.70833 0.22767 0.42667 -0.08700
C 	C 	0.79833 0.25867 0.54667 -0.12200
C 	C 	0.69233 0.24367 0.56667 0.00900
H 	H 	0.68543 0.21477 0.32897 0.05000
C 	C 	0.77933 0.27567 0.68667 0.04100
H 	H 	0.83383 0.26427 0.54317 0.07700
H 	H 	0.65583 0.23287 0.58857 0.02300
H 	H 	0.80443 0.29247 0.77387 0.01800
H 	H 	0.83033 0.17367 0.88667 0.00400
O 	O 	0.05020 0.40180 0.38900 -0.52800
O 	O 	0.01400 0.42320 0.18200 -0.52400
C 	C 	0.03900 0.43330 0.31400 0.41800
C 	C 	0.05670 0.48680 0.39000 -0.11700
C 	C 	0.08730 0.50220 0.53300 -0.04600
H 	H 	0.09300 0.48200 0.58000 0.06300
C 	C 	0.18600 0.62500 0.76000 -0.05700
C 	C 	0.12700 0.53500 0.88000 -0.02600
C 	C 	0.21800 0.64100 0.90000 0.00900
H 	H 	0.19600 0.64790 0.66230 0.04200
C 	C 	0.16300 0.55400 0.02000 -0.04500
H 	H 	0.09710 0.49950 0.87650 0.04200
H 	H 	0.24370 0.67750 0.92190 0.03200
H 	H 	0.15470 0.52890 0.10720 0.03500
H 	H 	0.01000 0.50300 0.22000 0.01200
O 	O 	0.71687 0.73513 0.72233 -0.51200
O 	O 	0.68067 0.75653 0.51533 -0.50300
C 	C 	0.70567 0.76663 0.64733 0.40600
C 	C 	0.72337 0.82013 0.72333 -0.07600
C 	C 	0.75397 0.83553 0.86633 -0.10100
H 	H 	0.75967 0.81533 0.91333 0.10100
C 	C 	0.85267 0.95833 0.09333 -0.12800
C 	C 	0.79367 0.86833 0.21333 -0.07900
C 	C 	0.88467 0.97433 0.23333 0.07900
H 	H 	0.86267 0.98123 0.99563 0.11300
C 	C 	0.82967 0.88733 0.35333 0.02900
H 	H 	0.76377 0.83283 0.20983 0.05300
H 	H 	0.91037 0.01083 0.25523 -0.01800
H 	H 	0.82137 0.86223 0.44053 0.01800
H 	H 	0.67667 0.83633 0.55333 0.02000
O 	O 	0.38353 0.06847 0.05567 -0.56900
O 	O 	0.34733 0.08987 0.84867 -0.53400
C 	C 	0.37233 0.09997 0.98067 0.53600
C 	C 	0.39003 0.15347 0.05667 -0.31300
C 	C 	0.42063 0.16887 0.19967 0.22600
H 	H 	0.42633 0.14867 0.24667 -0.05700
C 	C 	0.51933 0.29167 0.42667 -0.09000
C 	C 	0.46033 0.20167 0.54667 -0.12700
C 	C 	0.55133 0.30767 0.56667 0.01100
H 	H 	0.52933 0.31457 0.32897 0.05200
C 	C 	0.49633 0.22067 0.68667 0.04500
H 	H 	0.43043 0.16617 0.54317 0.07900
H 	H 	0.57703 0.34417 0.58857 0.02200
H 	H 	0.48803 0.19557 0.77387 0.01700
H 	H 	0.34333 0.16967 0.88667 0.00300
Zn	Zn	0.04207 0.70874 0.33333 1.22000
Zn	Zn	0.29126 0.33333 0.33333 1.22600
Zn	Zn	0.66667 0.95793 0.33333 1.23200
Zn	Zn	0.70874 0.04207 0.66667 1.22400
Zn	Zn	0.37540 0.37540 -0.00000 1.21900
Zn	Zn	0.33333 0.29126 0.66667 1.22900
Zn	Zn	-0.00000 0.62460 -0.00000 1.20800
Zn	Zn	0.95793 0.66667 0.66667 1.23500
Zn	Zn	0.62460 0.00000 -0.00000 1.21100
Zn	Zn	0.95793 0.29126 0.66667 1.23500
Zn	Zn	0.62460 0.62460 -0.00000 1.21900
Zn	Zn	0.70874 0.66667 0.66667 1.22900
Zn	Zn	0.37540 0.00000 -0.00000 1.21000
Zn	Zn	0.33333 0.04207 0.66667 1.22400
Zn	Zn	-0.00000 0.37540 -0.00000 1.20800
Zn	Zn	0.29126 0.95793 0.33333 1.23200
Zn	Zn	0.66667 0.70874 0.33333 1.22600
Zn	Zn	0.04207 0.33333 0.33333 1.22000
C 	C 	0.04230 0.52115 0.31700 0.05800
C 	C 	0.10360 0.55180 0.60300 0.00200
C 	C 	0.13700 0.56850 0.75400 0.02900
C 	C 	0.20400 0.60200 0.03600 -0.06900
H 	H 	0.22670 0.61335 0.13050 0.03700
C 	C 	0.70897 0.85448 0.65033 0.03800
C 	C 	0.77027 0.88513 0.93633 0.05600
C 	C 	0.80367 0.90183 0.08733 0.04400
C 	C 	0.87067 0.93533 0.36933 -0.11300
H 	H 	0.89337 0.94668 0.46383 0.06400
C 	C 	0.37563 0.18782 0.98367 0.23900
C 	C 	0.43693 0.21847 0.26967 -0.21400
C 	C 	0.47033 0.23517 0.42067 0.18200
C 	C 	0.53733 0.26867 0.70267 -0.13400
H 	H 	0.56003 0.28002 0.79717 0.06900
C 	C 	0.47885 0.52115 0.31700 0.05600
C 	C 	0.44820 0.55180 0.60300 0.01100
C 	C 	0.43150 0.56850 0.75400 0.02800
C 	C 	0.39800 0.60200 0.03600 -0.07000
H 	H 	0.38665 0.61335 0.13050 0.03700
C 	C 	0.14552 0.85448 0.65033 0.03100
C 	C 	0.11487 0.88513 0.93633 0.08100
C 	C 	0.09817 0.90183 0.08733 0.00900
C 	C 	0.06467 0.93533 0.36933 -0.05300
H 	H 	0.05332 0.94668 0.46383 0.03700
C 	C 	0.81218 0.18782 0.98367 0.22600
C 	C 	0.78153 0.21847 0.26967 -0.19800
C 	C 	0.76483 0.23517 0.42067 0.17200
C 	C 	0.73133 0.26867 0.70267 -0.12800
H 	H 	0.71998 0.28002 0.79717 0.06700
C 	C 	0.47885 0.95770 0.31700 0.05200
C 	C 	0.44820 0.89640 0.60300 0.02200
C 	C 	0.43150 0.86300 0.75400 0.02500
C 	C 	0.39800 0.79600 0.03600 -0.06900
H 	H 	0.38665 0.77330 0.13050 0.03700
C 	C 	0.14552 0.29103 0.65033 0.02700
C 	C 	0.11487 0.22973 0.93633 0.09600
C 	C 	0.09817 0.19633 0.08733 -0.01800
C 	C 	0.06467 0.12933 0.36933 0.00100
H 	H 	0.05332 0.10663 0.46383 0.01300
C 	C 	0.81218 0.62437 0.98367 0.22800
C 	C 	0.78153 0.56307 0.26967 -0.19900
C 	C 	0.76483 0.52967 0.42067 0.17300
C 	C 	0.73133 0.46267 0.70267 -0.12900
H 	H 	0.71998 0.43997 0.79717 0.06700
C 	C 	0.52115 0.04230 0.68300 0.06700
C 	C 	0.55180 0.10360 0.39700 -0.02500
C 	C 	0.56850 0.13700 0.24600 0.08400
C 	C 	0.60200 0.20400 0.96400 -0.05800
H 	H 	0.61335 0.22670 0.86950 0.04400
C 	C 	0.18782 0.37563 0.01633 -0.15200
C 	C 	0.21847 0.43693 0.73033 0.24500
C 	C 	0.23517 0.47033 0.57933 -0.09100
C 	C 	0.26867 0.53733 0.29733 0.03000
H 	H 	0.28002 0.56003 0.20283 0.00400
C 	C 	0.85448 0.70897 0.34967 0.09000
C 	C 	0.88513 0.77027 0.06367 -0.09000
C 	C 	0.90183 0.80367 0.91267 0.12200
C 	C 	0.93533 0.87067 0.63067 -0.11400
H 	H 	0.94668 0.89337 0.53617 0.06600
C 	C 	0.52115 0.47885 0.68300 0.06500
C 	C 	0.55180 0.44820 0.39700 -0.01600
C 	C 	0.56850 0.43150 0.24600 0.08200
C 	C 	0.60200 0.39800 0.96400 -0.05800
H 	H 	0.61335 0.38665 0.86950 0.04400
C 	C 	0.18782 0.81218 0.01633 -0.15400
C 	C 	0.21847 0.78153 0.73033 0.24900
C 	C 	0.23517 0.76483 0.57933 -0.09300
C 	C 	0.26867 0.73133 0.29733 0.03100
H 	H 	0.28002 0.71998 0.20283 0.00400
C 	C 	0.85448 0.14552 0.34967 0.08600
C 	C 	0.88513 0.11487 0.06367 -0.07300
C 	C 	0.90183 0.09817 0.91267 0.09500
C 	C 	0.93533 0.06467 0.63067 -0.06200
H 	H 	0.94668 0.05332 0.53617 0.04200
C 	C 	0.95770 0.47885 0.68300 0.06000
C 	C 	0.89640 0.44820 0.39700 -0.00200
C 	C 	0.86300 0.43150 0.24600 0.07700
C 	C 	0.79600 0.39800 0.96400 -0.05600
H 	H 	0.77330 0.38665 0.86950 0.04300
C 	C 	0.62437 0.81218 0.01633 -0.14600
C 	C 	0.56307 0.78153 0.73033 0.23900
C 	C 	0.52967 0.76483 0.57933 -0.08700
C 	C 	0.46267 0.73133 0.29733 0.02800
H 	H 	0.43997 0.71998 0.20283 0.00500
C 	C 	0.29103 0.14552 0.34967 0.08400
C 	C 	0.22973 0.11487 0.06367 -0.06200
C 	C 	0.19633 0.09817 0.91267 0.06700
C 	C 	0.12933 0.06467 0.63067 -0.00100
H 	H 	0.10663 0.05332 0.53617 0.01400
