data_crystal

_cell_length_a 20.47100
_cell_length_b 23.42600
_cell_length_c 29.40600
_cell_angle_alpha 90.00000
_cell_angle_beta  90.00000
_cell_angle_gamma 90.00000

_symmetry_space_group_name_	'P 1'
_symmetry_space_group_name_H-M	'P 1'

loop_
_symmetry_equiv_pos_as_xyz
  x,y,z

loop_
_atom_site_label
_atom_site_type_symbol
_atom_site_fract_x
_atom_site_fract_y
_atom_site_fract_z
_atom_site_charge
Nd	Nd	0.40944 0.46772 0.31737 2.12000
Nd	Nd	0.87861 0.80611 0.44806 1.90900
Nd	Nd	0.50686 0.22860 0.35541 1.58700
Nd	Nd	0.59056 0.03228 0.81737 2.12000
Nd	Nd	0.12139 0.69389 0.94806 1.90600
Nd	Nd	0.49314 0.27140 0.85541 1.58700
Nd	Nd	0.90944 0.53228 0.18263 2.12000
Nd	Nd	0.37861 0.19389 0.05194 1.90700
Nd	Nd	0.00686 0.77140 0.14459 1.58700
Nd	Nd	0.09056 0.96772 0.68263 2.11600
Nd	Nd	0.62139 0.30611 0.55194 1.90800
Nd	Nd	0.99314 0.72860 0.64459 1.58900
Nd	Nd	0.59056 0.53228 0.68263 2.12000
Nd	Nd	0.12139 0.19389 0.55194 1.90900
Nd	Nd	0.49314 0.77140 0.64459 1.58600
Nd	Nd	0.40944 0.96772 0.18263 2.11900
Nd	Nd	0.87861 0.30611 0.05194 1.90500
Nd	Nd	0.50686 0.72860 0.14459 1.58600
Nd	Nd	0.09056 0.46772 0.81737 2.11900
Nd	Nd	0.62139 0.80611 0.94806 1.90600
Nd	Nd	0.99314 0.22860 0.85541 1.58600
Nd	Nd	0.90944 0.03228 0.31737 2.11500
Nd	Nd	0.37861 0.69389 0.44806 1.90700
Nd	Nd	0.00686 0.27140 0.35541 1.58800
H 	H 	0.63790 0.74200 0.51770 0.01700
H 	H 	0.67420 0.70400 0.58530 0.01000
H 	H 	0.78210 0.70920 0.60460 0.03700
H 	H 	0.22140 0.57480 0.41540 0.03200
H 	H 	0.13380 0.50930 0.40640 0.03000
H 	H 	0.15410 0.42350 0.36730 0.02600
H 	H 	0.60740 0.34860 0.23350 0.01300
H 	H 	0.64510 0.42060 0.18530 0.04600
H 	H 	0.59590 0.50880 0.18680 0.03300
H 	H 	0.36210 0.75800 0.01770 0.01600
H 	H 	0.32580 0.79600 0.08530 0.01100
H 	H 	0.21790 0.79080 0.10460 0.03600
H 	H 	0.77860 0.92520 0.91540 0.03200
H 	H 	0.86620 0.99070 0.90640 0.03000
H 	H 	0.84590 0.07650 0.86730 0.02700
H 	H 	0.39260 0.15140 0.73350 0.01300
H 	H 	0.35490 0.07940 0.68530 0.04700
H 	H 	0.40410 0.99120 0.68680 0.03200
H 	H 	0.13790 0.25800 0.98230 0.01700
H 	H 	0.17420 0.29600 0.91470 0.01000
H 	H 	0.28210 0.29080 0.89540 0.03700
H 	H 	0.72140 0.42520 0.08460 0.03200
H 	H 	0.63380 0.49070 0.09360 0.03000
H 	H 	0.65410 0.57650 0.13270 0.02600
H 	H 	0.10740 0.65140 0.26650 0.01300
H 	H 	0.14510 0.57940 0.31470 0.04600
H 	H 	0.09590 0.49120 0.31320 0.03300
H 	H 	0.86210 0.24200 0.48230 0.01700
H 	H 	0.82580 0.20400 0.41470 0.01000
H 	H 	0.71790 0.20920 0.39540 0.03700
H 	H 	0.27860 0.07480 0.58460 0.03200
H 	H 	0.36620 0.00930 0.59360 0.02900
H 	H 	0.34590 0.92350 0.63270 0.02700
H 	H 	0.89260 0.84860 0.76650 0.01200
H 	H 	0.85490 0.92060 0.81470 0.04700
H 	H 	0.90410 0.00880 0.81320 0.03200
H 	H 	0.36210 0.25800 0.48230 0.01700
H 	H 	0.32580 0.29600 0.41470 0.01000
H 	H 	0.21790 0.29080 0.39540 0.03700
H 	H 	0.77860 0.42520 0.58460 0.03200
H 	H 	0.86620 0.49070 0.59360 0.03000
H 	H 	0.84590 0.57650 0.63270 0.02600
H 	H 	0.39260 0.65140 0.76650 0.01300
H 	H 	0.35490 0.57940 0.81470 0.04600
H 	H 	0.40410 0.49120 0.81320 0.03300
H 	H 	0.63790 0.24200 0.98230 0.01600
H 	H 	0.67420 0.20400 0.91470 0.01100
H 	H 	0.78210 0.20920 0.89540 0.03600
H 	H 	0.22140 0.07480 0.08460 0.03200
H 	H 	0.13380 0.00930 0.09360 0.03000
H 	H 	0.15410 0.92350 0.13270 0.02700
H 	H 	0.60740 0.84860 0.26650 0.01300
H 	H 	0.64510 0.92060 0.31470 0.04700
H 	H 	0.59590 0.00880 0.31320 0.03200
H 	H 	0.86210 0.74200 0.01770 0.01700
H 	H 	0.82580 0.70400 0.08530 0.01000
H 	H 	0.71790 0.70920 0.10460 0.03700
H 	H 	0.27860 0.57480 0.91540 0.03200
H 	H 	0.36620 0.50930 0.90640 0.03000
H 	H 	0.34590 0.42350 0.86730 0.02600
H 	H 	0.89260 0.34860 0.73350 0.01300
H 	H 	0.85490 0.42060 0.68530 0.04600
H 	H 	0.90410 0.50880 0.68680 0.03300
H 	H 	0.13790 0.75800 0.51770 0.01700
H 	H 	0.17420 0.79600 0.58530 0.01000
H 	H 	0.28210 0.79080 0.60460 0.03700
H 	H 	0.72140 0.92520 0.41540 0.03200
H 	H 	0.63380 0.99070 0.40640 0.02900
H 	H 	0.65410 0.07650 0.36730 0.02700
H 	H 	0.10740 0.15140 0.23350 0.01200
H 	H 	0.14510 0.07940 0.18530 0.04700
H 	H 	0.09590 0.99120 0.18680 0.03200
W 	W 	0.87032 0.40150 0.36879 1.29400
W 	W 	0.93428 0.52264 0.39952 1.00900
W 	W 	0.81958 0.64046 0.42423 1.35900
W 	W 	0.66103 0.62850 0.40754 1.00400
W 	W 	0.59698 0.48772 0.37187 1.31200
W 	W 	0.84832 0.59677 0.30516 1.03000
W 	W 	0.67443 0.42243 0.45308 1.31900
W 	W 	0.69004 0.57583 0.29036 1.02700
W 	W 	0.85061 0.44608 0.47228 1.02100
W 	W 	0.79241 0.47155 0.27240 1.00700
W 	W 	0.73122 0.56275 0.49420 1.01600
W 	W 	0.69352 0.38045 0.34877 1.01700
W 	W 	0.12968 0.09850 0.86879 1.29400
W 	W 	0.06572 0.97736 0.89952 1.00500
W 	W 	0.18042 0.85954 0.92423 1.35900
W 	W 	0.33897 0.87150 0.90754 1.00400
W 	W 	0.40302 0.01228 0.87187 1.31400
W 	W 	0.15168 0.90323 0.80516 1.02900
W 	W 	0.32557 0.07757 0.95308 1.31900
W 	W 	0.30996 0.92417 0.79036 1.02700
W 	W 	0.14939 0.05392 0.97228 1.02200
W 	W 	0.20759 0.02845 0.77240 1.01000
W 	W 	0.26878 0.93725 0.99420 1.01400
W 	W 	0.30648 0.11955 0.84877 1.01700
W 	W 	0.37032 0.59850 0.13121 1.29400
W 	W 	0.43428 0.47736 0.10048 1.00800
W 	W 	0.31958 0.35954 0.07577 1.35900
W 	W 	0.16103 0.37150 0.09246 1.00400
W 	W 	0.09698 0.51228 0.12813 1.31300
W 	W 	0.34832 0.40323 0.19484 1.03000
W 	W 	0.17443 0.57757 0.04692 1.31900
W 	W 	0.19004 0.42417 0.20964 1.02800
W 	W 	0.35061 0.55392 0.02772 1.02100
W 	W 	0.29241 0.52845 0.22760 1.00700
W 	W 	0.23122 0.43725 0.00580 1.01600
W 	W 	0.19352 0.61955 0.15123 1.01700
W 	W 	0.62968 0.90150 0.63121 1.29400
W 	W 	0.56572 0.02264 0.60048 1.00800
W 	W 	0.68042 0.14046 0.57577 1.35900
W 	W 	0.83897 0.12850 0.59246 1.00400
W 	W 	0.90302 0.98772 0.62813 1.31300
W 	W 	0.65168 0.09677 0.69484 1.03000
W 	W 	0.82557 0.92243 0.54692 1.31900
W 	W 	0.80996 0.07583 0.70964 1.02700
W 	W 	0.64939 0.94608 0.52772 1.02100
W 	W 	0.70759 0.97155 0.72760 1.00800
W 	W 	0.76878 0.06275 0.50580 1.01500
W 	W 	0.80648 0.88045 0.65123 1.01700
W 	W 	0.12968 0.59850 0.63121 1.29400
W 	W 	0.06572 0.47736 0.60048 1.00900
W 	W 	0.18042 0.35954 0.57577 1.35900
W 	W 	0.33897 0.37150 0.59246 1.00400
W 	W 	0.40302 0.51228 0.62813 1.31200
W 	W 	0.15168 0.40323 0.69484 1.03000
W 	W 	0.32557 0.57757 0.54692 1.31900
W 	W 	0.30996 0.42417 0.70964 1.02700
W 	W 	0.14939 0.55392 0.52772 1.02100
W 	W 	0.20759 0.52845 0.72760 1.00700
W 	W 	0.26878 0.43725 0.50580 1.01600
W 	W 	0.30648 0.61955 0.65123 1.01700
W 	W 	0.87032 0.90150 0.13121 1.29400
W 	W 	0.93428 0.02264 0.10048 1.00500
W 	W 	0.81958 0.14046 0.07577 1.35900
W 	W 	0.66103 0.12850 0.09246 1.00400
W 	W 	0.59698 0.98772 0.12813 1.31400
W 	W 	0.84832 0.09677 0.19484 1.02900
W 	W 	0.67443 0.92243 0.04692 1.31900
W 	W 	0.69004 0.07583 0.20964 1.02700
W 	W 	0.85061 0.94608 0.02772 1.02200
W 	W 	0.79241 0.97155 0.22760 1.01000
W 	W 	0.73122 0.06275 0.00580 1.01400
W 	W 	0.69352 0.88045 0.15123 1.01700
W 	W 	0.62968 0.40150 0.86879 1.29400
W 	W 	0.56572 0.52264 0.89952 1.00800
W 	W 	0.68042 0.64046 0.92423 1.35900
W 	W 	0.83897 0.62850 0.90754 1.00400
W 	W 	0.90302 0.48772 0.87187 1.31300
W 	W 	0.65168 0.59677 0.80516 1.03000
W 	W 	0.82557 0.42243 0.95308 1.31900
W 	W 	0.80996 0.57583 0.79036 1.02800
W 	W 	0.64939 0.44608 0.97228 1.02100
W 	W 	0.70759 0.47155 0.77240 1.00700
W 	W 	0.76878 0.56275 0.99420 1.01600
W 	W 	0.80648 0.38045 0.84877 1.01700
W 	W 	0.37032 0.09850 0.36879 1.29400
W 	W 	0.43428 0.97736 0.39952 1.00800
W 	W 	0.31958 0.85954 0.42423 1.35900
W 	W 	0.16103 0.87150 0.40754 1.00400
W 	W 	0.09698 0.01228 0.37187 1.31300
W 	W 	0.34832 0.90323 0.30516 1.03000
W 	W 	0.17443 0.07757 0.45308 1.31900
W 	W 	0.19004 0.92417 0.29036 1.02700
W 	W 	0.35061 0.05392 0.47228 1.02100
W 	W 	0.29241 0.02845 0.27240 1.00800
W 	W 	0.23122 0.93725 0.49420 1.01500
W 	W 	0.19352 0.11955 0.34877 1.01700
C 	C 	0.72780 0.76560 0.49650 -0.02800
C 	C 	0.68200 0.74260 0.52520 -0.02200
C 	C 	0.70390 0.72060 0.56530 -0.04900
C 	C 	0.76780 0.72260 0.57660 -0.01300
C 	C 	0.81310 0.74580 0.54440 -0.05900
C 	C 	0.71200 0.78870 0.45110 0.33600
C 	C 	0.88490 0.74920 0.55340 0.45200
C 	C 	0.28540 0.52950 0.37760 -0.09400
C 	C 	0.22680 0.54150 0.39860 -0.01100
C 	C 	0.17460 0.50180 0.39400 -0.06800
C 	C 	0.18630 0.45120 0.37030 -0.02500
C 	C 	0.24940 0.44370 0.35080 -0.05200
C 	C 	0.34420 0.56660 0.38230 0.39600
C 	C 	0.27280 0.38960 0.32970 0.33400
C 	C 	0.53360 0.39560 0.26070 -0.07500
C 	C 	0.58730 0.38420 0.23300 0.00000
C 	C 	0.61010 0.42740 0.20470 -0.07100
C 	C 	0.58100 0.47940 0.20540 -0.01100
C 	C 	0.52850 0.48790 0.23450 -0.04300
C 	C 	0.49610 0.54440 0.24230 0.34200
C 	C 	0.50640 0.35530 0.29480 0.39800
C 	C 	0.27220 0.73440 0.99650 -0.03100
C 	C 	0.31800 0.75740 0.02520 -0.01900
C 	C 	0.29610 0.77940 0.06530 -0.05000
C 	C 	0.23220 0.77740 0.07660 -0.01200
C 	C 	0.18690 0.75420 0.04440 -0.05900
C 	C 	0.28800 0.71130 0.95110 0.33700
C 	C 	0.11510 0.75080 0.05340 0.45200
C 	C 	0.71460 0.97050 0.87760 -0.09400
C 	C 	0.77320 0.95850 0.89860 -0.01100
C 	C 	0.82540 0.99820 0.89400 -0.06800
C 	C 	0.81370 0.04880 0.87030 -0.02500
C 	C 	0.75060 0.05630 0.85080 -0.05200
C 	C 	0.65580 0.93340 0.88230 0.39600
C 	C 	0.72720 0.11040 0.82970 0.33400
C 	C 	0.46640 0.10440 0.76070 -0.07500
C 	C 	0.41270 0.11580 0.73300 0.00100
C 	C 	0.38990 0.07260 0.70470 -0.07200
C 	C 	0.41900 0.02060 0.70540 -0.00900
C 	C 	0.47150 0.01210 0.73450 -0.04300
C 	C 	0.50390 0.95560 0.74230 0.34200
C 	C 	0.49360 0.14470 0.79480 0.39800
C 	C 	0.22780 0.23440 0.00350 -0.02900
C 	C 	0.18200 0.25740 0.97480 -0.02200
C 	C 	0.20390 0.27940 0.93470 -0.04900
C 	C 	0.26780 0.27740 0.92340 -0.01300
C 	C 	0.31310 0.25420 0.95560 -0.05900
C 	C 	0.21200 0.21130 0.04890 0.33600
C 	C 	0.38490 0.25080 0.94660 0.45200
C 	C 	0.78540 0.47050 0.12240 -0.09400
C 	C 	0.72680 0.45850 0.10140 -0.01100
C 	C 	0.67460 0.49820 0.10600 -0.06800
C 	C 	0.68630 0.54880 0.12970 -0.02500
C 	C 	0.74940 0.55630 0.14920 -0.05200
C 	C 	0.84420 0.43340 0.11770 0.39600
C 	C 	0.77280 0.61040 0.17030 0.33400
C 	C 	0.03360 0.60440 0.23930 -0.07500
C 	C 	0.08730 0.61580 0.26700 -0.00000
C 	C 	0.11010 0.57260 0.29530 -0.07100
C 	C 	0.08100 0.52060 0.29460 -0.01100
C 	C 	0.02850 0.51210 0.26550 -0.04200
C 	C 	0.99610 0.45560 0.25770 0.34200
C 	C 	0.00640 0.64470 0.20520 0.39800
C 	C 	0.77220 0.26560 0.50350 -0.02800
C 	C 	0.81800 0.24260 0.47480 -0.02200
C 	C 	0.79610 0.22060 0.43470 -0.04900
C 	C 	0.73220 0.22260 0.42340 -0.01300
C 	C 	0.68690 0.24580 0.45560 -0.05900
C 	C 	0.78800 0.28870 0.54890 0.33600
C 	C 	0.61510 0.24920 0.44660 0.45200
C 	C 	0.21460 0.02950 0.62240 -0.09200
C 	C 	0.27320 0.04150 0.60140 -0.01200
C 	C 	0.32540 0.00180 0.60600 -0.06600
C 	C 	0.31370 0.95120 0.62970 -0.02700
C 	C 	0.25060 0.94370 0.64920 -0.05100
C 	C 	0.15580 0.06660 0.61770 0.39600
C 	C 	0.22720 0.88960 0.67030 0.33400
C 	C 	0.96640 0.89560 0.73930 -0.07500
C 	C 	0.91270 0.88420 0.76700 0.00100
C 	C 	0.88990 0.92740 0.79530 -0.07200
C 	C 	0.91900 0.97940 0.79460 -0.00800
C 	C 	0.97150 0.98790 0.76550 -0.04400
C 	C 	0.00390 0.04440 0.75770 0.34400
C 	C 	0.99360 0.85530 0.70520 0.40000
C 	C 	0.27220 0.23440 0.50350 -0.02800
C 	C 	0.31800 0.25740 0.47480 -0.02200
C 	C 	0.29610 0.27940 0.43470 -0.04900
C 	C 	0.23220 0.27740 0.42340 -0.01300
C 	C 	0.18690 0.25420 0.45560 -0.05900
C 	C 	0.28800 0.21130 0.54890 0.33600
C 	C 	0.11510 0.25080 0.44660 0.45200
C 	C 	0.71460 0.47050 0.62240 -0.09400
C 	C 	0.77320 0.45850 0.60140 -0.01100
C 	C 	0.82540 0.49820 0.60600 -0.06800
C 	C 	0.81370 0.54880 0.62970 -0.02500
C 	C 	0.75060 0.55630 0.64920 -0.05200
C 	C 	0.65580 0.43340 0.61770 0.39600
C 	C 	0.72720 0.61040 0.67030 0.33400
C 	C 	0.46640 0.60440 0.73930 -0.07500
C 	C 	0.41270 0.61580 0.76700 0.00000
C 	C 	0.38990 0.57260 0.79530 -0.07100
C 	C 	0.41900 0.52060 0.79460 -0.01100
C 	C 	0.47150 0.51210 0.76550 -0.04300
C 	C 	0.50390 0.45560 0.75770 0.34200
C 	C 	0.49360 0.64470 0.70520 0.39800
C 	C 	0.72780 0.26560 0.00350 -0.03100
C 	C 	0.68200 0.24260 0.97480 -0.01900
C 	C 	0.70390 0.22060 0.93470 -0.05000
C 	C 	0.76780 0.22260 0.92340 -0.01200
C 	C 	0.81310 0.24580 0.95560 -0.05900
C 	C 	0.71200 0.28870 0.04890 0.33700
C 	C 	0.88490 0.24920 0.94660 0.45200
C 	C 	0.28540 0.02950 0.12240 -0.09400
C 	C 	0.22680 0.04150 0.10140 -0.01100
C 	C 	0.17460 0.00180 0.10600 -0.06800
C 	C 	0.18630 0.95120 0.12970 -0.02500
C 	C 	0.24940 0.94370 0.14920 -0.05200
C 	C 	0.34420 0.06660 0.11770 0.39600
C 	C 	0.27280 0.88960 0.17030 0.33400
C 	C 	0.53360 0.89560 0.23930 -0.07500
C 	C 	0.58730 0.88420 0.26700 0.00100
C 	C 	0.61010 0.92740 0.29530 -0.07200
C 	C 	0.58100 0.97940 0.29460 -0.00900
C 	C 	0.52850 0.98790 0.26550 -0.04300
C 	C 	0.49610 0.04440 0.25770 0.34200
C 	C 	0.50640 0.85530 0.20520 0.39800
C 	C 	0.77220 0.76560 0.99650 -0.02900
C 	C 	0.81800 0.74260 0.02520 -0.02200
C 	C 	0.79610 0.72060 0.06530 -0.04900
C 	C 	0.73220 0.72260 0.07660 -0.01300
C 	C 	0.68690 0.74580 0.04440 -0.05900
C 	C 	0.78800 0.78870 0.95110 0.33600
C 	C 	0.61510 0.74920 0.05340 0.45200
C 	C 	0.21460 0.52950 0.87760 -0.09400
C 	C 	0.27320 0.54150 0.89860 -0.01100
C 	C 	0.32540 0.50180 0.89400 -0.06800
C 	C 	0.31370 0.45120 0.87030 -0.02500
C 	C 	0.25060 0.44370 0.85080 -0.05200
C 	C 	0.15580 0.56660 0.88230 0.39600
C 	C 	0.22720 0.38960 0.82970 0.33400
C 	C 	0.96640 0.39560 0.76070 -0.07500
C 	C 	0.91270 0.38420 0.73300 -0.00000
C 	C 	0.88990 0.42740 0.70470 -0.07100
C 	C 	0.91900 0.47940 0.70540 -0.01100
C 	C 	0.97150 0.48790 0.73450 -0.04200
C 	C 	0.00390 0.54440 0.74230 0.34200
C 	C 	0.99360 0.35530 0.79480 0.39800
C 	C 	0.22780 0.73440 0.49650 -0.02800
C 	C 	0.18200 0.75740 0.52520 -0.02200
C 	C 	0.20390 0.77940 0.56530 -0.04900
C 	C 	0.26780 0.77740 0.57660 -0.01300
C 	C 	0.31310 0.75420 0.54440 -0.05900
C 	C 	0.21200 0.71130 0.45110 0.33600
C 	C 	0.38490 0.75080 0.55340 0.45200
C 	C 	0.78540 0.97050 0.37760 -0.09200
C 	C 	0.72680 0.95850 0.39860 -0.01200
C 	C 	0.67460 0.99820 0.39400 -0.06600
C 	C 	0.68630 0.04880 0.37030 -0.02700
C 	C 	0.74940 0.05630 0.35080 -0.05100
C 	C 	0.84420 0.93340 0.38230 0.39600
C 	C 	0.77280 0.11040 0.32970 0.33400
C 	C 	0.03360 0.10440 0.26070 -0.07500
C 	C 	0.08730 0.11580 0.23300 0.00100
C 	C 	0.11010 0.07260 0.20470 -0.07200
C 	C 	0.08100 0.02060 0.20540 -0.00800
C 	C 	0.02850 0.01210 0.23450 -0.04400
C 	C 	0.99610 0.95560 0.24230 0.34400
C 	C 	0.00640 0.14470 0.29480 0.40000
N 	N 	0.50460 0.44660 0.26120 -0.19500
N 	N 	0.29690 0.48170 0.35400 -0.22600
N 	N 	0.79200 0.76750 0.50550 -0.17500
N 	N 	0.49540 0.05340 0.76120 -0.19500
N 	N 	0.70310 0.01830 0.85400 -0.22600
N 	N 	0.20800 0.73250 0.00550 -0.17400
N 	N 	0.00460 0.55340 0.23880 -0.19500
N 	N 	0.79690 0.51830 0.14600 -0.22600
N 	N 	0.29200 0.23250 0.99450 -0.17500
N 	N 	0.99540 0.94660 0.73880 -0.19400
N 	N 	0.20310 0.98170 0.64600 -0.22600
N 	N 	0.70800 0.26750 0.49450 -0.17500
N 	N 	0.49540 0.55340 0.73880 -0.19500
N 	N 	0.70310 0.51830 0.64600 -0.22600
N 	N 	0.20800 0.23250 0.49450 -0.17500
N 	N 	0.50460 0.94660 0.23880 -0.19500
N 	N 	0.29690 0.98170 0.14600 -0.22600
N 	N 	0.79200 0.26750 0.99450 -0.17400
N 	N 	0.99540 0.44660 0.76120 -0.19500
N 	N 	0.20310 0.48170 0.85400 -0.22600
N 	N 	0.70800 0.76750 0.00550 -0.17500
N 	N 	0.00460 0.05340 0.26120 -0.19400
N 	N 	0.79690 0.01830 0.35400 -0.22600
N 	N 	0.29200 0.73250 0.50550 -0.17500
O 	O 	0.69750 0.46300 0.38910 -0.38500
O 	O 	0.74720 0.57070 0.41930 -0.34200
O 	O 	0.77660 0.53240 0.32590 -0.32900
O 	O 	0.83920 0.47750 0.40090 -0.36700
O 	O 	0.92760 0.48800 0.46040 -0.44200
O 	O 	0.32870 0.38640 0.31650 -0.47500
O 	O 	0.53020 0.30600 0.29910 -0.50100
O 	O 	0.39520 0.55270 0.36320 -0.53900
O 	O 	0.91710 0.34260 0.35200 -0.57900
O 	O 	0.86010 0.70330 0.43570 -0.61400
O 	O 	0.76290 0.41340 0.46380 -0.47000
O 	O 	0.76820 0.62260 0.27900 -0.43400
O 	O 	0.61060 0.55710 0.39980 -0.48500
O 	O 	0.51510 0.58430 0.21350 -0.30100
O 	O 	0.46070 0.37460 0.31960 -0.54200
O 	O 	0.67850 0.62110 0.34440 -0.45000
O 	O 	0.72440 0.52080 0.24850 -0.44800
O 	O 	0.80410 0.51110 0.49400 -0.44200
O 	O 	0.67310 0.35950 0.40980 -0.46900
O 	O 	0.22970 0.34920 0.32430 -0.28700
O 	O 	0.64150 0.38390 0.49840 -0.57500
O 	O 	0.73130 0.42320 0.29820 -0.45400
O 	O 	0.33740 0.61320 0.40590 -0.48900
O 	O 	0.85530 0.43970 0.31170 -0.46400
O 	O 	0.88560 0.58650 0.42740 -0.47700
O 	O 	0.82590 0.63790 0.36060 -0.48700
O 	O 	0.51500 0.49060 0.35680 -0.57100
O 	O 	0.67950 0.49570 0.48080 -0.46600
O 	O 	0.45730 0.55110 0.27250 -0.46400
O 	O 	0.85490 0.53630 0.26040 -0.59200
O 	O 	0.90360 0.73320 0.59150 -0.53000
O 	O 	0.95140 0.45060 0.37500 -0.45000
O 	O 	0.79210 0.62460 0.48540 -0.46000
O 	O 	0.90690 0.55610 0.34320 -0.45500
O 	O 	0.78630 0.37310 0.36590 -0.47500
O 	O 	0.73370 0.67580 0.41570 -0.46400
O 	O 	0.66140 0.61020 0.47220 -0.44700
O 	O 	0.58840 0.44610 0.42710 -0.48500
O 	O 	0.63500 0.52190 0.31720 -0.46100
O 	O 	0.61180 0.41330 0.33970 -0.46300
O 	O 	0.88040 0.38450 0.43350 -0.46300
O 	O 	0.75380 0.80640 0.42630 -0.40400
O 	O 	0.91940 0.76800 0.52220 -0.52600
O 	O 	0.64950 0.79090 0.44240 -0.29000
O 	O 	0.30250 0.03700 0.88910 -0.38500
O 	O 	0.25280 0.92930 0.91930 -0.34300
O 	O 	0.22340 0.96760 0.82590 -0.33000
O 	O 	0.16080 0.02250 0.90090 -0.36600
O 	O 	0.07240 0.01200 0.96040 -0.44000
O 	O 	0.67130 0.11360 0.81650 -0.47500
O 	O 	0.46980 0.19400 0.79910 -0.50200
O 	O 	0.60480 0.94730 0.86320 -0.53900
O 	O 	0.08290 0.15740 0.85200 -0.57800
O 	O 	0.13990 0.79670 0.93570 -0.61400
O 	O 	0.23710 0.08660 0.96380 -0.47000
O 	O 	0.23180 0.87740 0.77900 -0.43400
O 	O 	0.38940 0.94290 0.89980 -0.48600
O 	O 	0.48490 0.91570 0.71350 -0.30100
O 	O 	0.53930 0.12540 0.81960 -0.54200
O 	O 	0.32150 0.87890 0.84440 -0.45000
O 	O 	0.27560 0.97920 0.74850 -0.44900
O 	O 	0.19590 0.98890 0.99400 -0.44400
O 	O 	0.32690 0.14050 0.90980 -0.46900
O 	O 	0.77030 0.15080 0.82430 -0.28700
O 	O 	0.35850 0.11610 0.99840 -0.57500
O 	O 	0.26870 0.07680 0.79820 -0.45400
O 	O 	0.66260 0.88680 0.90590 -0.48900
O 	O 	0.14470 0.06030 0.81170 -0.46400
O 	O 	0.11440 0.91350 0.92740 -0.47800
O 	O 	0.17410 0.86210 0.86060 -0.48700
O 	O 	0.48500 0.00940 0.85680 -0.57100
O 	O 	0.32050 0.00430 0.98080 -0.46500
O 	O 	0.54270 0.94890 0.77250 -0.46400
O 	O 	0.14510 0.96370 0.76040 -0.59200
O 	O 	0.09640 0.76680 0.09150 -0.53000
O 	O 	0.04860 0.04940 0.87500 -0.44800
O 	O 	0.20790 0.87540 0.98540 -0.46000
O 	O 	0.09310 0.94390 0.84320 -0.45500
O 	O 	0.21370 0.12690 0.86590 -0.47500
O 	O 	0.26630 0.82420 0.91570 -0.46400
O 	O 	0.33860 0.88980 0.97220 -0.44800
O 	O 	0.41160 0.05390 0.92710 -0.48600
O 	O 	0.36500 0.97810 0.81720 -0.46200
O 	O 	0.38820 0.08670 0.83970 -0.46300
O 	O 	0.11960 0.11550 0.93350 -0.46300
O 	O 	0.24620 0.69360 0.92630 -0.40500
O 	O 	0.08060 0.73200 0.02220 -0.52500
O 	O 	0.35050 0.70910 0.94240 -0.29000
O 	O 	0.19750 0.53700 0.11090 -0.38500
O 	O 	0.24720 0.42930 0.08070 -0.34200
O 	O 	0.27660 0.46760 0.17410 -0.32900
O 	O 	0.33920 0.52250 0.09910 -0.36700
O 	O 	0.42760 0.51200 0.03960 -0.44200
O 	O 	0.82870 0.61360 0.18350 -0.47500
O 	O 	0.03020 0.69400 0.20090 -0.50200
O 	O 	0.89520 0.44730 0.13680 -0.53900
O 	O 	0.41710 0.65740 0.14800 -0.57800
O 	O 	0.36010 0.29670 0.06430 -0.61400
O 	O 	0.26290 0.58660 0.03620 -0.47000
O 	O 	0.26820 0.37740 0.22100 -0.43400
O 	O 	0.11060 0.44290 0.10020 -0.48500
O 	O 	0.01510 0.41570 0.28650 -0.30100
O 	O 	0.96070 0.62540 0.18040 -0.54200
O 	O 	0.17850 0.37890 0.15560 -0.45000
O 	O 	0.22440 0.47920 0.25150 -0.44900
O 	O 	0.30410 0.48890 0.00600 -0.44200
O 	O 	0.17310 0.64050 0.09020 -0.46900
O 	O 	0.72970 0.65080 0.17570 -0.28700
O 	O 	0.14150 0.61610 0.00160 -0.57500
O 	O 	0.23130 0.57680 0.20180 -0.45400
O 	O 	0.83740 0.38680 0.09410 -0.48900
O 	O 	0.35530 0.56030 0.18830 -0.46400
O 	O 	0.38560 0.41350 0.07260 -0.47800
O 	O 	0.32590 0.36210 0.13940 -0.48700
O 	O 	0.01500 0.50940 0.14320 -0.57000
O 	O 	0.17950 0.50430 0.01920 -0.46600
O 	O 	0.95730 0.44890 0.22750 -0.46400
O 	O 	0.35490 0.46370 0.23960 -0.59200
O 	O 	0.40360 0.26680 0.90850 -0.53000
O 	O 	0.45140 0.54940 0.12500 -0.45000
O 	O 	0.29210 0.37540 0.01460 -0.46000
O 	O 	0.40690 0.44390 0.15680 -0.45500
O 	O 	0.28630 0.62690 0.13410 -0.47500
O 	O 	0.23370 0.32420 0.08430 -0.46400
O 	O 	0.16140 0.38980 0.02780 -0.44700
O 	O 	0.08840 0.55390 0.07290 -0.48500
O 	O 	0.13500 0.47810 0.18280 -0.46100
O 	O 	0.11180 0.58670 0.16030 -0.46300
O 	O 	0.38040 0.61550 0.06650 -0.46300
O 	O 	0.25380 0.19360 0.07370 -0.40400
O 	O 	0.41940 0.23200 0.97780 -0.52600
O 	O 	0.14950 0.20910 0.05760 -0.29000
O 	O 	0.80250 0.96300 0.61090 -0.38500
O 	O 	0.75280 0.07070 0.58070 -0.34300
O 	O 	0.72340 0.03240 0.67410 -0.33000
O 	O 	0.66080 0.97750 0.59910 -0.36700
O 	O 	0.57240 0.98800 0.53960 -0.44200
O 	O 	0.17130 0.88640 0.68350 -0.47500
O 	O 	0.96980 0.80600 0.70090 -0.50200
O 	O 	0.10480 0.05270 0.63680 -0.53800
O 	O 	0.58290 0.84260 0.64800 -0.57800
O 	O 	0.63990 0.20330 0.56430 -0.61400
O 	O 	0.73710 0.91340 0.53620 -0.47000
O 	O 	0.73180 0.12260 0.72100 -0.43400
O 	O 	0.88940 0.05710 0.60020 -0.48600
O 	O 	0.98490 0.08430 0.78650 -0.30200
O 	O 	0.03930 0.87460 0.68040 -0.54300
O 	O 	0.82150 0.12110 0.65560 -0.45000
O 	O 	0.77560 0.02080 0.75150 -0.44900
O 	O 	0.69590 0.01110 0.50600 -0.44200
O 	O 	0.82690 0.85950 0.59020 -0.46900
O 	O 	0.27030 0.84920 0.67570 -0.28700
O 	O 	0.85850 0.88390 0.50160 -0.57500
O 	O 	0.76870 0.92320 0.70180 -0.45400
O 	O 	0.16260 0.11320 0.59410 -0.48900
O 	O 	0.64470 0.93970 0.68830 -0.46400
O 	O 	0.61440 0.08650 0.57260 -0.47800
O 	O 	0.67410 0.13790 0.63940 -0.48700
O 	O 	0.98500 0.99060 0.64320 -0.57000
O 	O 	0.82050 0.99570 0.51920 -0.46600
O 	O 	0.04270 0.05110 0.72750 -0.46400
O 	O 	0.64510 0.03630 0.73960 -0.59200
O 	O 	0.59640 0.23320 0.40850 -0.53000
O 	O 	0.54860 0.95060 0.62500 -0.45000
O 	O 	0.70790 0.12460 0.51460 -0.46000
O 	O 	0.59310 0.05610 0.65680 -0.45500
O 	O 	0.71370 0.87310 0.63410 -0.47500
O 	O 	0.76630 0.17580 0.58430 -0.46400
O 	O 	0.83860 0.11020 0.52780 -0.44700
O 	O 	0.91160 0.94610 0.57290 -0.48500
O 	O 	0.86500 0.02190 0.68280 -0.46200
O 	O 	0.88820 0.91330 0.66030 -0.46300
O 	O 	0.61960 0.88450 0.56650 -0.46300
O 	O 	0.74620 0.30640 0.57370 -0.40400
O 	O 	0.58060 0.26800 0.47780 -0.52600
O 	O 	0.85050 0.29090 0.55760 -0.29000
O 	O 	0.30250 0.53700 0.61090 -0.38500
O 	O 	0.25280 0.42930 0.58070 -0.34200
O 	O 	0.22340 0.46760 0.67410 -0.32900
O 	O 	0.16080 0.52250 0.59910 -0.36700
O 	O 	0.07240 0.51200 0.53960 -0.44200
O 	O 	0.67130 0.61360 0.68350 -0.47500
O 	O 	0.46980 0.69400 0.70090 -0.50100
O 	O 	0.60480 0.44730 0.63680 -0.53900
O 	O 	0.08290 0.65740 0.64800 -0.57900
O 	O 	0.13990 0.29670 0.56430 -0.61400
O 	O 	0.23710 0.58660 0.53620 -0.47000
O 	O 	0.23180 0.37740 0.72100 -0.43400
O 	O 	0.38940 0.44290 0.60020 -0.48500
O 	O 	0.48490 0.41570 0.78650 -0.30100
O 	O 	0.53930 0.62540 0.68040 -0.54200
O 	O 	0.32150 0.37890 0.65560 -0.45000
O 	O 	0.27560 0.47920 0.75150 -0.44800
O 	O 	0.19590 0.48890 0.50600 -0.44200
O 	O 	0.32690 0.64050 0.59020 -0.46900
O 	O 	0.77030 0.65080 0.67570 -0.28700
O 	O 	0.35850 0.61610 0.50160 -0.57500
O 	O 	0.26870 0.57680 0.70180 -0.45400
O 	O 	0.66260 0.38680 0.59410 -0.48900
O 	O 	0.14470 0.56030 0.68830 -0.46400
O 	O 	0.11440 0.41350 0.57260 -0.47700
O 	O 	0.17410 0.36210 0.63940 -0.48700
O 	O 	0.48500 0.50940 0.64320 -0.57100
O 	O 	0.32050 0.50430 0.51920 -0.46600
O 	O 	0.54270 0.44890 0.72750 -0.46400
O 	O 	0.14510 0.46370 0.73960 -0.59200
O 	O 	0.09640 0.26680 0.40850 -0.53000
O 	O 	0.04860 0.54940 0.62500 -0.45000
O 	O 	0.20790 0.37540 0.51460 -0.46000
O 	O 	0.09310 0.44390 0.65680 -0.45500
O 	O 	0.21370 0.62690 0.63410 -0.47500
O 	O 	0.26630 0.32420 0.58430 -0.46400
O 	O 	0.33860 0.38980 0.52780 -0.44700
O 	O 	0.41160 0.55390 0.57290 -0.48500
O 	O 	0.36500 0.47810 0.68280 -0.46100
O 	O 	0.38820 0.58670 0.66030 -0.46300
O 	O 	0.11960 0.61550 0.56650 -0.46300
O 	O 	0.24620 0.19360 0.57370 -0.40400
O 	O 	0.08060 0.23200 0.47780 -0.52600
O 	O 	0.35050 0.20910 0.55760 -0.29000
O 	O 	0.69750 0.96300 0.11090 -0.38500
O 	O 	0.74720 0.07070 0.08070 -0.34300
O 	O 	0.77660 0.03240 0.17410 -0.33000
O 	O 	0.83920 0.97750 0.09910 -0.36600
O 	O 	0.92760 0.98800 0.03960 -0.44000
O 	O 	0.32870 0.88640 0.18350 -0.47500
O 	O 	0.53020 0.80600 0.20090 -0.50200
O 	O 	0.39520 0.05270 0.13680 -0.53900
O 	O 	0.91710 0.84260 0.14800 -0.57800
O 	O 	0.86010 0.20330 0.06430 -0.61400
O 	O 	0.76290 0.91340 0.03620 -0.47000
O 	O 	0.76820 0.12260 0.22100 -0.43400
O 	O 	0.61060 0.05710 0.10020 -0.48600
O 	O 	0.51510 0.08430 0.28650 -0.30100
O 	O 	0.46070 0.87460 0.18040 -0.54200
O 	O 	0.67850 0.12110 0.15560 -0.45000
O 	O 	0.72440 0.02080 0.25150 -0.44900
O 	O 	0.80410 0.01110 0.00600 -0.44400
O 	O 	0.67310 0.85950 0.09020 -0.46900
O 	O 	0.22970 0.84920 0.17570 -0.28700
O 	O 	0.64150 0.88390 0.00160 -0.57500
O 	O 	0.73130 0.92320 0.20180 -0.45400
O 	O 	0.33740 0.11320 0.09410 -0.48900
O 	O 	0.85530 0.93970 0.18830 -0.46400
O 	O 	0.88560 0.08650 0.07260 -0.47800
O 	O 	0.82590 0.13790 0.13940 -0.48700
O 	O 	0.51500 0.99060 0.14320 -0.57100
O 	O 	0.67950 0.99570 0.01920 -0.46500
O 	O 	0.45730 0.05110 0.22750 -0.46400
O 	O 	0.85490 0.03630 0.23960 -0.59200
O 	O 	0.90360 0.23320 0.90850 -0.53000
O 	O 	0.95140 0.95060 0.12500 -0.44800
O 	O 	0.79210 0.12460 0.01460 -0.46000
O 	O 	0.90690 0.05610 0.15680 -0.45500
O 	O 	0.78630 0.87310 0.13410 -0.47500
O 	O 	0.73370 0.17580 0.08430 -0.46400
O 	O 	0.66140 0.11020 0.02780 -0.44800
O 	O 	0.58840 0.94610 0.07290 -0.48600
O 	O 	0.63500 0.02190 0.18280 -0.46200
O 	O 	0.61180 0.91330 0.16030 -0.46300
O 	O 	0.88040 0.88450 0.06650 -0.46300
O 	O 	0.75380 0.30640 0.07370 -0.40500
O 	O 	0.91940 0.26800 0.97780 -0.52500
O 	O 	0.64950 0.29090 0.05760 -0.29000
O 	O 	0.80250 0.46300 0.88910 -0.38500
O 	O 	0.75280 0.57070 0.91930 -0.34200
O 	O 	0.72340 0.53240 0.82590 -0.32900
O 	O 	0.66080 0.47750 0.90090 -0.36700
O 	O 	0.57240 0.48800 0.96040 -0.44200
O 	O 	0.17130 0.38640 0.81650 -0.47500
O 	O 	0.96980 0.30600 0.79910 -0.50200
O 	O 	0.10480 0.55270 0.86320 -0.53900
O 	O 	0.58290 0.34260 0.85200 -0.57800
O 	O 	0.63990 0.70330 0.93570 -0.61400
O 	O 	0.73710 0.41340 0.96380 -0.47000
O 	O 	0.73180 0.62260 0.77900 -0.43400
O 	O 	0.88940 0.55710 0.89980 -0.48500
O 	O 	0.98490 0.58430 0.71350 -0.30100
O 	O 	0.03930 0.37460 0.81960 -0.54200
O 	O 	0.82150 0.62110 0.84440 -0.45000
O 	O 	0.77560 0.52080 0.74850 -0.44900
O 	O 	0.69590 0.51110 0.99400 -0.44200
O 	O 	0.82690 0.35950 0.90980 -0.46900
O 	O 	0.27030 0.34920 0.82430 -0.28700
O 	O 	0.85850 0.38390 0.99840 -0.57500
O 	O 	0.76870 0.42320 0.79820 -0.45400
O 	O 	0.16260 0.61320 0.90590 -0.48900
O 	O 	0.64470 0.43970 0.81170 -0.46400
O 	O 	0.61440 0.58650 0.92740 -0.47800
O 	O 	0.67410 0.63790 0.86060 -0.48700
O 	O 	0.98500 0.49060 0.85680 -0.57000
O 	O 	0.82050 0.49570 0.98080 -0.46600
O 	O 	0.04270 0.55110 0.77250 -0.46400
O 	O 	0.64510 0.53630 0.76040 -0.59200
O 	O 	0.59640 0.73320 0.09150 -0.53000
O 	O 	0.54860 0.45060 0.87500 -0.45000
O 	O 	0.70790 0.62460 0.98540 -0.46000
O 	O 	0.59310 0.55610 0.84320 -0.45500
O 	O 	0.71370 0.37310 0.86590 -0.47500
O 	O 	0.76630 0.67580 0.91570 -0.46400
O 	O 	0.83860 0.61020 0.97220 -0.44700
O 	O 	0.91160 0.44610 0.92710 -0.48500
O 	O 	0.86500 0.52190 0.81720 -0.46100
O 	O 	0.88820 0.41330 0.83970 -0.46300
O 	O 	0.61960 0.38450 0.93350 -0.46300
O 	O 	0.74620 0.80640 0.92630 -0.40400
O 	O 	0.58060 0.76800 0.02220 -0.52600
O 	O 	0.85050 0.79090 0.94240 -0.29000
O 	O 	0.19750 0.03700 0.38910 -0.38500
O 	O 	0.24720 0.92930 0.41930 -0.34300
O 	O 	0.27660 0.96760 0.32590 -0.33000
O 	O 	0.33920 0.02250 0.40090 -0.36700
O 	O 	0.42760 0.01200 0.46040 -0.44200
O 	O 	0.82870 0.11360 0.31650 -0.47500
O 	O 	0.03020 0.19400 0.29910 -0.50200
O 	O 	0.89520 0.94730 0.36320 -0.53800
O 	O 	0.41710 0.15740 0.35200 -0.57800
O 	O 	0.36010 0.79670 0.43570 -0.61400
O 	O 	0.26290 0.08660 0.46380 -0.47000
O 	O 	0.26820 0.87740 0.27900 -0.43400
O 	O 	0.11060 0.94290 0.39980 -0.48600
O 	O 	0.01510 0.91570 0.21350 -0.30200
O 	O 	0.96070 0.12540 0.31960 -0.54300
O 	O 	0.17850 0.87890 0.34440 -0.45000
O 	O 	0.22440 0.97920 0.24850 -0.44900
O 	O 	0.30410 0.98890 0.49400 -0.44200
O 	O 	0.17310 0.14050 0.40980 -0.46900
O 	O 	0.72970 0.15080 0.32430 -0.28700
O 	O 	0.14150 0.11610 0.49840 -0.57500
O 	O 	0.23130 0.07680 0.29820 -0.45400
O 	O 	0.83740 0.88680 0.40590 -0.48900
O 	O 	0.35530 0.06030 0.31170 -0.46400
O 	O 	0.38560 0.91350 0.42740 -0.47800
O 	O 	0.32590 0.86210 0.36060 -0.48700
O 	O 	0.01500 0.00940 0.35680 -0.57000
O 	O 	0.17950 0.00430 0.48080 -0.46600
O 	O 	0.95730 0.94890 0.27250 -0.46400
O 	O 	0.35490 0.96370 0.26040 -0.59200
O 	O 	0.40360 0.76680 0.59150 -0.53000
O 	O 	0.45140 0.04940 0.37500 -0.45000
O 	O 	0.29210 0.87540 0.48540 -0.46000
O 	O 	0.40690 0.94390 0.34320 -0.45500
O 	O 	0.28630 0.12690 0.36590 -0.47500
O 	O 	0.23370 0.82420 0.41570 -0.46400
O 	O 	0.16140 0.88980 0.47220 -0.44700
O 	O 	0.08840 0.05390 0.42710 -0.48500
O 	O 	0.13500 0.97810 0.31720 -0.46200
O 	O 	0.11180 0.08670 0.33970 -0.46300
O 	O 	0.38040 0.11550 0.43350 -0.46300
O 	O 	0.25380 0.69360 0.42630 -0.40400
O 	O 	0.41940 0.73200 0.52220 -0.52600
O 	O 	0.14950 0.70910 0.44240 -0.29000
