data_crystal

_cell_length_a 20.48900
_cell_length_b 23.44000
_cell_length_c 29.48600
_cell_angle_alpha 90.00000
_cell_angle_beta  90.00000
_cell_angle_gamma 90.00000

_symmetry_space_group_name_	'P 1'
_symmetry_space_group_name_H-M	'P 1'

loop_
_symmetry_equiv_pos_as_xyz
  x,y,z

loop_
_atom_site_label
_atom_site_type_symbol
_atom_site_fract_x
_atom_site_fract_y
_atom_site_fract_z
_atom_site_charge
Pr	Pr	0.59126 0.03188 0.18292 2.04600
Pr	Pr	0.37827 0.19382 0.94790 2.01100
Pr	Pr	0.49349 0.27082 0.14481 1.94700
Pr	Pr	0.40874 0.46812 0.68292 2.04600
Pr	Pr	0.62173 0.30618 0.44790 2.01200
Pr	Pr	0.50651 0.22918 0.64481 1.94700
Pr	Pr	0.09126 0.96812 0.31708 2.04500
Pr	Pr	0.87827 0.80618 0.55210 2.01200
Pr	Pr	0.99349 0.72918 0.35519 1.94800
Pr	Pr	0.90874 0.53188 0.81708 2.04600
Pr	Pr	0.12173 0.69382 0.05210 2.01100
Pr	Pr	0.00651 0.77082 0.85519 1.94700
Pr	Pr	0.40874 0.96812 0.81708 2.04600
Pr	Pr	0.62173 0.80618 0.05210 2.01100
Pr	Pr	0.50651 0.72918 0.85519 1.94700
Pr	Pr	0.59126 0.53188 0.31708 2.04600
Pr	Pr	0.37827 0.69382 0.55210 2.01200
Pr	Pr	0.49349 0.77082 0.35519 1.94700
Pr	Pr	0.90874 0.03188 0.68292 2.04400
Pr	Pr	0.12173 0.19382 0.44790 2.01100
Pr	Pr	0.00651 0.27082 0.64481 1.94700
Pr	Pr	0.09126 0.46812 0.18292 2.04500
Pr	Pr	0.87827 0.30618 0.94790 2.01000
Pr	Pr	0.99349 0.22918 0.14481 1.94600
H 	H 	0.14000 0.25920 0.02000 0.00500
H 	H 	0.17350 0.29390 0.08640 0.00900
H 	H 	0.28220 0.28870 0.10530 0.03600
H 	H 	0.78220 0.92560 0.08470 0.03000
H 	H 	0.86640 0.99160 0.09260 0.03400
H 	H 	0.84230 0.07690 0.13410 0.02000
H 	H 	0.40330 0.99130 0.31400 0.03000
H 	H 	0.35280 0.08160 0.31200 0.05400
H 	H 	0.39420 0.15060 0.26620 0.00300
H 	H 	0.86000 0.24080 0.52000 0.00500
H 	H 	0.82650 0.20610 0.58640 0.00800
H 	H 	0.71780 0.21130 0.60530 0.03600
H 	H 	0.21780 0.57440 0.58470 0.03000
H 	H 	0.13360 0.50840 0.59260 0.03400
H 	H 	0.15770 0.42310 0.63410 0.02000
H 	H 	0.59670 0.50870 0.81400 0.03100
H 	H 	0.64720 0.41840 0.81200 0.05300
H 	H 	0.60580 0.34940 0.76620 0.00300
H 	H 	0.64000 0.74080 0.48000 0.00500
H 	H 	0.67350 0.70610 0.41360 0.00800
H 	H 	0.78220 0.71130 0.39470 0.03600
H 	H 	0.28220 0.07440 0.41530 0.03000
H 	H 	0.36640 0.00840 0.40740 0.03300
H 	H 	0.34230 0.92310 0.36590 0.02000
H 	H 	0.90330 0.00870 0.18600 0.03000
H 	H 	0.85280 0.91840 0.18800 0.05400
H 	H 	0.89420 0.84940 0.23380 0.00300
H 	H 	0.36000 0.75920 0.98000 0.00400
H 	H 	0.32650 0.79390 0.91360 0.00900
H 	H 	0.21780 0.78870 0.89470 0.03500
H 	H 	0.71780 0.42560 0.91530 0.03000
H 	H 	0.63360 0.49160 0.90740 0.03400
H 	H 	0.65770 0.57690 0.86590 0.02000
H 	H 	0.09670 0.49130 0.68600 0.03100
H 	H 	0.14720 0.58160 0.68800 0.05300
H 	H 	0.10580 0.65060 0.73380 0.00300
H 	H 	0.86000 0.74080 0.98000 0.00500
H 	H 	0.82650 0.70610 0.91360 0.00900
H 	H 	0.71780 0.71130 0.89470 0.03600
H 	H 	0.21780 0.07440 0.91530 0.03000
H 	H 	0.13360 0.00840 0.90740 0.03400
H 	H 	0.15770 0.92310 0.86590 0.02000
H 	H 	0.59670 0.00870 0.68600 0.03000
H 	H 	0.64720 0.91840 0.68800 0.05400
H 	H 	0.60580 0.84940 0.73380 0.00300
H 	H 	0.14000 0.75920 0.48000 0.00500
H 	H 	0.17350 0.79390 0.41360 0.00800
H 	H 	0.28220 0.78870 0.39470 0.03600
H 	H 	0.78220 0.42560 0.41530 0.03000
H 	H 	0.86640 0.49160 0.40740 0.03400
H 	H 	0.84230 0.57690 0.36590 0.02000
H 	H 	0.40330 0.49130 0.18600 0.03100
H 	H 	0.35280 0.58160 0.18800 0.05300
H 	H 	0.39420 0.65060 0.23380 0.00300
H 	H 	0.36000 0.25920 0.52000 0.00500
H 	H 	0.32650 0.29390 0.58640 0.00800
H 	H 	0.21780 0.28870 0.60530 0.03600
H 	H 	0.71780 0.92560 0.58470 0.03000
H 	H 	0.63360 0.99160 0.59260 0.03300
H 	H 	0.65770 0.07690 0.63410 0.02000
H 	H 	0.09670 0.99130 0.81400 0.03000
H 	H 	0.14720 0.08160 0.81200 0.05400
H 	H 	0.10580 0.15060 0.76620 0.00300
H 	H 	0.64000 0.24080 0.02000 0.00400
H 	H 	0.67350 0.20610 0.08640 0.00900
H 	H 	0.78220 0.21130 0.10530 0.03500
H 	H 	0.28220 0.57440 0.08470 0.03000
H 	H 	0.36640 0.50840 0.09260 0.03400
H 	H 	0.34230 0.42310 0.13410 0.02000
H 	H 	0.90330 0.50870 0.31400 0.03100
H 	H 	0.85280 0.41840 0.31200 0.05300
H 	H 	0.89420 0.34940 0.26620 0.00300
W 	W 	0.06584 0.97726 0.10041 1.00600
W 	W 	0.12982 0.09831 0.13131 1.28200
W 	W 	0.18068 0.85994 0.07558 1.31600
W 	W 	0.33874 0.87144 0.09233 1.00400
W 	W 	0.40296 0.01189 0.12824 1.32900
W 	W 	0.32567 0.07746 0.04726 1.28700
W 	W 	0.30972 0.92368 0.20922 1.00400
W 	W 	0.15174 0.90287 0.19436 1.00100
W 	W 	0.26890 0.93737 0.00610 1.01800
W 	W 	0.20763 0.02779 0.22724 0.97100
W 	W 	0.14966 0.05394 0.02804 1.01400
W 	W 	0.30639 0.11932 0.15144 0.99800
W 	W 	0.93416 0.52274 0.60041 1.01000
W 	W 	0.87018 0.40169 0.63131 1.28200
W 	W 	0.81932 0.64006 0.57558 1.31700
W 	W 	0.66126 0.62856 0.59233 1.00500
W 	W 	0.59704 0.48811 0.62824 1.32700
W 	W 	0.67433 0.42254 0.54726 1.28700
W 	W 	0.69028 0.57632 0.70922 1.00400
W 	W 	0.84826 0.59713 0.69436 1.00100
W 	W 	0.73110 0.56263 0.50610 1.02000
W 	W 	0.79237 0.47221 0.72724 0.96900
W 	W 	0.85034 0.44606 0.52804 1.01300
W 	W 	0.69361 0.38068 0.65144 0.99800
W 	W 	0.56584 0.02274 0.39959 1.00900
W 	W 	0.62982 0.90169 0.36869 1.28200
W 	W 	0.68068 0.14006 0.42442 1.31600
W 	W 	0.83874 0.12856 0.40767 1.00500
W 	W 	0.90296 0.98811 0.37176 1.32800
W 	W 	0.82567 0.92254 0.45274 1.28700
W 	W 	0.80972 0.07632 0.29078 1.00400
W 	W 	0.65174 0.09713 0.30564 1.00100
W 	W 	0.76890 0.06263 0.49390 1.01900
W 	W 	0.70763 0.97221 0.27276 0.96900
W 	W 	0.64966 0.94606 0.47196 1.01300
W 	W 	0.80639 0.88068 0.34856 0.99800
W 	W 	0.43416 0.47726 0.89959 1.00900
W 	W 	0.37018 0.59831 0.86869 1.28200
W 	W 	0.31932 0.35994 0.92442 1.31600
W 	W 	0.16126 0.37144 0.90767 1.00500
W 	W 	0.09704 0.51189 0.87176 1.32700
W 	W 	0.17433 0.57746 0.95274 1.28700
W 	W 	0.19028 0.42368 0.79078 1.00400
W 	W 	0.34826 0.40287 0.80564 1.00100
W 	W 	0.23110 0.43737 0.99390 1.02000
W 	W 	0.29237 0.52779 0.77276 0.96900
W 	W 	0.35034 0.55394 0.97196 1.01300
W 	W 	0.19361 0.61932 0.84856 0.99800
W 	W 	0.93416 0.02274 0.89959 1.00600
W 	W 	0.87018 0.90169 0.86869 1.28200
W 	W 	0.81932 0.14006 0.92442 1.31600
W 	W 	0.66126 0.12856 0.90767 1.00400
W 	W 	0.59704 0.98811 0.87176 1.32900
W 	W 	0.67433 0.92254 0.95274 1.28700
W 	W 	0.69028 0.07632 0.79078 1.00400
W 	W 	0.84826 0.09713 0.80564 1.00100
W 	W 	0.73110 0.06263 0.99390 1.01800
W 	W 	0.79237 0.97221 0.77276 0.97100
W 	W 	0.85034 0.94606 0.97196 1.01400
W 	W 	0.69361 0.88068 0.84856 0.99800
W 	W 	0.06584 0.47726 0.39959 1.01000
W 	W 	0.12982 0.59831 0.36869 1.28200
W 	W 	0.18068 0.35994 0.42442 1.31700
W 	W 	0.33874 0.37144 0.40767 1.00500
W 	W 	0.40296 0.51189 0.37176 1.32700
W 	W 	0.32567 0.57746 0.45274 1.28700
W 	W 	0.30972 0.42368 0.29078 1.00400
W 	W 	0.15174 0.40287 0.30564 1.00100
W 	W 	0.26890 0.43737 0.49390 1.02000
W 	W 	0.20763 0.52779 0.27276 0.96900
W 	W 	0.14966 0.55394 0.47196 1.01300
W 	W 	0.30639 0.61932 0.34856 0.99800
W 	W 	0.43416 0.97726 0.60041 1.00900
W 	W 	0.37018 0.09831 0.63131 1.28200
W 	W 	0.31932 0.85994 0.57558 1.31600
W 	W 	0.16126 0.87144 0.59233 1.00500
W 	W 	0.09704 0.01189 0.62824 1.32800
W 	W 	0.17433 0.07746 0.54726 1.28700
W 	W 	0.19028 0.92368 0.70922 1.00400
W 	W 	0.34826 0.90287 0.69436 1.00100
W 	W 	0.23110 0.93737 0.50610 1.01900
W 	W 	0.29237 0.02779 0.72724 0.96900
W 	W 	0.35034 0.05394 0.52804 1.01300
W 	W 	0.19361 0.11932 0.65144 0.99800
W 	W 	0.56584 0.52274 0.10041 1.00900
W 	W 	0.62982 0.40169 0.13131 1.28200
W 	W 	0.68068 0.64006 0.07558 1.31600
W 	W 	0.83874 0.62856 0.09233 1.00500
W 	W 	0.90296 0.48811 0.12824 1.32700
W 	W 	0.82567 0.42254 0.04726 1.28700
W 	W 	0.80972 0.57632 0.20922 1.00400
W 	W 	0.65174 0.59713 0.19436 1.00100
W 	W 	0.76890 0.56263 0.00610 1.02000
W 	W 	0.70763 0.47221 0.22724 0.96900
W 	W 	0.64966 0.44606 0.02804 1.01300
W 	W 	0.80639 0.38068 0.15144 0.99800
C 	C 	0.22670 0.23670 0.99790 -0.04800
C 	C 	0.18420 0.25830 0.02740 0.00200
C 	C 	0.20350 0.27820 0.06620 -0.06300
C 	C 	0.26760 0.27590 0.07720 -0.00900
C 	C 	0.31150 0.25390 0.04530 -0.04300
C 	C 	0.21250 0.21260 0.95480 0.30000
C 	C 	0.38540 0.24870 0.05140 0.40000
C 	C 	0.71350 0.96940 0.12270 -0.11400
C 	C 	0.77580 0.95880 0.10130 0.00400
C 	C 	0.82550 0.99780 0.10540 -0.07800
C 	C 	0.81080 0.04870 0.13070 -0.01000
C 	C 	0.75000 0.05550 0.14980 -0.06500
C 	C 	0.65690 0.93400 0.11760 0.37700
C 	C 	0.72940 0.10800 0.17110 0.30500
C 	C 	0.47150 0.01140 0.26540 -0.05000
C 	C 	0.41820 0.02000 0.29490 0.00200
C 	C 	0.38900 0.07390 0.29390 -0.08700
C 	C 	0.41350 0.11460 0.26670 0.03100
C 	C 	0.46530 0.10430 0.24020 -0.09600
C 	C 	0.50290 0.95450 0.25870 0.33200
C 	C 	0.49290 0.14460 0.20580 0.39700
C 	C 	0.77330 0.26330 0.49790 -0.04700
C 	C 	0.81580 0.24170 0.52740 0.00100
C 	C 	0.79650 0.22180 0.56620 -0.06200
C 	C 	0.73240 0.22410 0.57720 -0.01000
C 	C 	0.68850 0.24610 0.54530 -0.04200
C 	C 	0.78750 0.28740 0.45480 0.30000
C 	C 	0.61460 0.25130 0.55140 0.40000
C 	C 	0.28650 0.53060 0.62270 -0.11300
C 	C 	0.22420 0.54120 0.60130 0.00400
C 	C 	0.17450 0.50220 0.60540 -0.07800
C 	C 	0.18920 0.45130 0.63070 -0.01000
C 	C 	0.25000 0.44450 0.64980 -0.06500
C 	C 	0.34310 0.56600 0.61760 0.37700
C 	C 	0.27060 0.39200 0.67110 0.30500
C 	C 	0.52850 0.48860 0.76540 -0.05000
C 	C 	0.58180 0.48000 0.79490 0.00100
C 	C 	0.61100 0.42610 0.79390 -0.08600
C 	C 	0.58650 0.38540 0.76670 0.03000
C 	C 	0.53470 0.39570 0.74020 -0.09600
C 	C 	0.49710 0.54550 0.75870 0.33300
C 	C 	0.50710 0.35540 0.70580 0.39700
C 	C 	0.72670 0.76330 0.50210 -0.04700
C 	C 	0.68420 0.74170 0.47260 0.00100
C 	C 	0.70350 0.72180 0.43380 -0.06200
C 	C 	0.76760 0.72410 0.42280 -0.01000
C 	C 	0.81150 0.74610 0.45470 -0.04200
C 	C 	0.71250 0.78740 0.54520 0.30000
C 	C 	0.88540 0.75130 0.44860 0.40000
C 	C 	0.21350 0.03060 0.37730 -0.11200
C 	C 	0.27580 0.04120 0.39870 0.00300
C 	C 	0.32550 0.00220 0.39460 -0.07600
C 	C 	0.31080 0.95130 0.36930 -0.01200
C 	C 	0.25000 0.94450 0.35020 -0.06400
C 	C 	0.15690 0.06600 0.38240 0.37700
C 	C 	0.22940 0.89200 0.32890 0.30500
C 	C 	0.97150 0.98860 0.23460 -0.05100
C 	C 	0.91820 0.98000 0.20510 0.00300
C 	C 	0.88900 0.92610 0.20610 -0.08700
C 	C 	0.91350 0.88540 0.23330 0.03100
C 	C 	0.96530 0.89570 0.25980 -0.09700
C 	C 	0.00290 0.04550 0.24130 0.33500
C 	C 	0.99290 0.85540 0.29420 0.39900
C 	C 	0.27330 0.73670 0.00210 -0.05000
C 	C 	0.31580 0.75830 0.97260 0.00500
C 	C 	0.29650 0.77820 0.93380 -0.06500
C 	C 	0.23240 0.77590 0.92280 -0.00800
C 	C 	0.18850 0.75390 0.95470 -0.04300
C 	C 	0.28750 0.71260 0.04520 0.30100
C 	C 	0.11460 0.74870 0.94860 0.40100
C 	C 	0.78650 0.46940 0.87730 -0.11300
C 	C 	0.72420 0.45880 0.89870 0.00400
C 	C 	0.67450 0.49780 0.89460 -0.07800
C 	C 	0.68920 0.54870 0.86930 -0.01000
C 	C 	0.75000 0.55550 0.85020 -0.06500
C 	C 	0.84310 0.43400 0.88240 0.37700
C 	C 	0.77060 0.60800 0.82890 0.30500
C 	C 	0.02850 0.51140 0.73460 -0.04900
C 	C 	0.08180 0.52000 0.70510 0.00000
C 	C 	0.11100 0.57390 0.70610 -0.08600
C 	C 	0.08650 0.61460 0.73330 0.03000
C 	C 	0.03470 0.60430 0.75980 -0.09600
C 	C 	0.99710 0.45450 0.74130 0.33200
C 	C 	0.00710 0.64460 0.79420 0.39700
C 	C 	0.77330 0.76330 0.00210 -0.04800
C 	C 	0.81580 0.74170 0.97260 0.00200
C 	C 	0.79650 0.72180 0.93380 -0.06300
C 	C 	0.73240 0.72410 0.92280 -0.00900
C 	C 	0.68850 0.74610 0.95470 -0.04300
C 	C 	0.78750 0.78740 0.04520 0.30000
C 	C 	0.61460 0.75130 0.94860 0.40000
C 	C 	0.28650 0.03060 0.87730 -0.11400
C 	C 	0.22420 0.04120 0.89870 0.00400
C 	C 	0.17450 0.00220 0.89460 -0.07800
C 	C 	0.18920 0.95130 0.86930 -0.01000
C 	C 	0.25000 0.94450 0.85020 -0.06500
C 	C 	0.34310 0.06600 0.88240 0.37700
C 	C 	0.27060 0.89200 0.82890 0.30500
C 	C 	0.52850 0.98860 0.73460 -0.05000
C 	C 	0.58180 0.98000 0.70510 0.00200
C 	C 	0.61100 0.92610 0.70610 -0.08700
C 	C 	0.58650 0.88540 0.73330 0.03100
C 	C 	0.53470 0.89570 0.75980 -0.09600
C 	C 	0.49710 0.04550 0.74130 0.33200
C 	C 	0.50710 0.85540 0.79420 0.39700
C 	C 	0.22670 0.73670 0.50210 -0.04700
C 	C 	0.18420 0.75830 0.47260 0.00100
C 	C 	0.20350 0.77820 0.43380 -0.06200
C 	C 	0.26760 0.77590 0.42280 -0.01000
C 	C 	0.31150 0.75390 0.45470 -0.04200
C 	C 	0.21250 0.71260 0.54520 0.30000
C 	C 	0.38540 0.74870 0.44860 0.40000
C 	C 	0.71350 0.46940 0.37730 -0.11300
C 	C 	0.77580 0.45880 0.39870 0.00400
C 	C 	0.82550 0.49780 0.39460 -0.07800
C 	C 	0.81080 0.54870 0.36930 -0.01000
C 	C 	0.75000 0.55550 0.35020 -0.06500
C 	C 	0.65690 0.43400 0.38240 0.37700
C 	C 	0.72940 0.60800 0.32890 0.30500
C 	C 	0.47150 0.51140 0.23460 -0.05000
C 	C 	0.41820 0.52000 0.20510 0.00100
C 	C 	0.38900 0.57390 0.20610 -0.08600
C 	C 	0.41350 0.61460 0.23330 0.03000
C 	C 	0.46530 0.60430 0.25980 -0.09600
C 	C 	0.50290 0.45450 0.24130 0.33300
C 	C 	0.49290 0.64460 0.29420 0.39700
C 	C 	0.27330 0.23670 0.49790 -0.04700
C 	C 	0.31580 0.25830 0.52740 0.00100
C 	C 	0.29650 0.27820 0.56620 -0.06200
C 	C 	0.23240 0.27590 0.57720 -0.01000
C 	C 	0.18850 0.25390 0.54530 -0.04200
C 	C 	0.28750 0.21260 0.45480 0.30000
C 	C 	0.11460 0.24870 0.55140 0.40000
C 	C 	0.78650 0.96940 0.62270 -0.11200
C 	C 	0.72420 0.95880 0.60130 0.00300
C 	C 	0.67450 0.99780 0.60540 -0.07600
C 	C 	0.68920 0.04870 0.63070 -0.01200
C 	C 	0.75000 0.05550 0.64980 -0.06400
C 	C 	0.84310 0.93400 0.61760 0.37700
C 	C 	0.77060 0.10800 0.67110 0.30500
C 	C 	0.02850 0.01140 0.76540 -0.05100
C 	C 	0.08180 0.02000 0.79490 0.00300
C 	C 	0.11100 0.07390 0.79390 -0.08700
C 	C 	0.08650 0.11460 0.76670 0.03100
C 	C 	0.03470 0.10430 0.74020 -0.09700
C 	C 	0.99710 0.95450 0.75870 0.33500
C 	C 	0.00710 0.14460 0.70580 0.39900
C 	C 	0.72670 0.26330 0.99790 -0.05000
C 	C 	0.68420 0.24170 0.02740 0.00500
C 	C 	0.70350 0.22180 0.06620 -0.06500
C 	C 	0.76760 0.22410 0.07720 -0.00800
C 	C 	0.81150 0.24610 0.04530 -0.04300
C 	C 	0.71250 0.28740 0.95480 0.30100
C 	C 	0.88540 0.25130 0.05140 0.40100
C 	C 	0.21350 0.53060 0.12270 -0.11300
C 	C 	0.27580 0.54120 0.10130 0.00400
C 	C 	0.32550 0.50220 0.10540 -0.07800
C 	C 	0.31080 0.45130 0.13070 -0.01000
C 	C 	0.25000 0.44450 0.14980 -0.06500
C 	C 	0.15690 0.56600 0.11760 0.37700
C 	C 	0.22940 0.39200 0.17110 0.30500
C 	C 	0.97150 0.48860 0.26540 -0.04900
C 	C 	0.91820 0.48000 0.29490 0.00000
C 	C 	0.88900 0.42610 0.29390 -0.08600
C 	C 	0.91350 0.38540 0.26670 0.03000
C 	C 	0.96530 0.39570 0.24020 -0.09600
C 	C 	0.00290 0.54550 0.25870 0.33200
C 	C 	0.99290 0.35540 0.20580 0.39700
N 	N 	0.29170 0.23380 0.00650 -0.18300
N 	N 	0.70330 0.01810 0.14520 -0.21800
N 	N 	0.49420 0.05280 0.23960 -0.18600
N 	N 	0.70830 0.26620 0.50650 -0.18400
N 	N 	0.29670 0.48190 0.64520 -0.21800
N 	N 	0.50580 0.44720 0.73960 -0.18600
N 	N 	0.79170 0.76620 0.49350 -0.18400
N 	N 	0.20330 0.98190 0.35480 -0.21900
N 	N 	0.99420 0.94720 0.26040 -0.18500
N 	N 	0.20830 0.73380 0.99350 -0.18300
N 	N 	0.79670 0.51810 0.85480 -0.21800
N 	N 	0.00580 0.55280 0.76040 -0.18600
N 	N 	0.70830 0.76620 0.99350 -0.18300
N 	N 	0.29670 0.98190 0.85480 -0.21800
N 	N 	0.50580 0.94720 0.76040 -0.18600
N 	N 	0.29170 0.73380 0.49350 -0.18400
N 	N 	0.70330 0.51810 0.35480 -0.21800
N 	N 	0.49420 0.55280 0.26040 -0.18600
N 	N 	0.20830 0.23380 0.50650 -0.18400
N 	N 	0.79670 0.01810 0.64520 -0.21900
N 	N 	0.00580 0.05280 0.73960 -0.18500
N 	N 	0.79170 0.26620 0.00650 -0.18300
N 	N 	0.20330 0.48190 0.14520 -0.21800
N 	N 	0.99420 0.44720 0.23960 -0.18600
O 	O 	0.16160 0.02270 0.09920 -0.36100
O 	O 	0.25290 0.92930 0.08090 -0.34000
O 	O 	0.22340 0.96700 0.17380 -0.32000
O 	O 	0.23740 0.08620 0.03630 -0.46300
O 	O 	0.11480 0.91340 0.07290 -0.47300
O 	O 	0.14850 0.20980 0.94420 -0.26900
O 	O 	0.33860 0.88980 0.02780 -0.44800
O 	O 	0.32150 0.87830 0.15460 -0.44700
O 	O 	0.38780 0.08530 0.16020 -0.46400
O 	O 	0.47140 0.19310 0.20190 -0.56600
O 	O 	0.54020 0.12590 0.18150 -0.54700
O 	O 	0.08370 0.15720 0.14880 -0.63500
O 	O 	0.04800 0.04860 0.12500 -0.45000
O 	O 	0.17430 0.86220 0.13900 -0.47600
O 	O 	0.14580 0.06060 0.18740 -0.45800
O 	O 	0.13970 0.79690 0.06330 -0.62100
O 	O 	0.31990 0.00330 0.01980 -0.45900
O 	O 	0.26930 0.07600 0.20160 -0.44000
O 	O 	0.23070 0.87720 0.22060 -0.42900
O 	O 	0.38890 0.94220 0.10000 -0.48100
O 	O 	0.41120 0.05250 0.07340 -0.48500
O 	O 	0.07250 0.01220 0.03940 -0.44000
O 	O 	0.35850 0.11750 0.00290 -0.59000
O 	O 	0.27600 0.97830 0.25140 -0.43700
O 	O 	0.32600 0.14080 0.09070 -0.46000
O 	O 	0.19650 0.98930 0.00640 -0.44200
O 	O 	0.54250 0.94940 0.22740 -0.45800
O 	O 	0.48360 0.00940 0.14290 -0.57600
O 	O 	0.67130 0.11280 0.18290 -0.46100
O 	O 	0.36560 0.97760 0.18140 -0.45800
O 	O 	0.14520 0.96290 0.23930 -0.58400
O 	O 	0.25280 0.19430 0.92790 -0.40500
O 	O 	0.20780 0.87570 0.01390 -0.45000
O 	O 	0.40270 0.26670 0.09200 -0.55700
O 	O 	0.66400 0.88680 0.09580 -0.49700
O 	O 	0.11940 0.11590 0.06720 -0.46800
O 	O 	0.26630 0.82360 0.08430 -0.45600
O 	O 	0.48410 0.91600 0.28690 -0.32100
O 	O 	0.09280 0.94420 0.15560 -0.44700
O 	O 	0.77080 0.15000 0.17490 -0.28200
O 	O 	0.21320 0.12660 0.13440 -0.46900
O 	O 	0.60580 0.94680 0.13730 -0.52800
O 	O 	0.30410 0.03720 0.11130 -0.38200
O 	O 	0.41850 0.23040 0.02100 -0.55800
O 	O 	0.83840 0.47730 0.59920 -0.36200
O 	O 	0.74710 0.57070 0.58090 -0.33900
O 	O 	0.77660 0.53300 0.67380 -0.31900
O 	O 	0.76260 0.41380 0.53630 -0.46300
O 	O 	0.88520 0.58660 0.57290 -0.47300
O 	O 	0.85150 0.29020 0.44420 -0.26900
O 	O 	0.66140 0.61020 0.52780 -0.44800
O 	O 	0.67850 0.62170 0.65460 -0.44700
O 	O 	0.61220 0.41470 0.66020 -0.46400
O 	O 	0.52860 0.30690 0.70190 -0.56600
O 	O 	0.45980 0.37410 0.68150 -0.54700
O 	O 	0.91630 0.34280 0.64880 -0.63500
O 	O 	0.95200 0.45140 0.62500 -0.45200
O 	O 	0.82570 0.63780 0.63900 -0.47600
O 	O 	0.85420 0.43940 0.68740 -0.45800
O 	O 	0.86030 0.70310 0.56330 -0.62000
O 	O 	0.68010 0.49670 0.51980 -0.46000
O 	O 	0.73070 0.42400 0.70160 -0.44000
O 	O 	0.76930 0.62280 0.72060 -0.42900
O 	O 	0.61110 0.55780 0.60000 -0.48000
O 	O 	0.58880 0.44750 0.57340 -0.48500
O 	O 	0.92750 0.48780 0.53940 -0.44100
O 	O 	0.64150 0.38250 0.50290 -0.59000
O 	O 	0.72400 0.52170 0.75140 -0.43600
O 	O 	0.67400 0.35920 0.59070 -0.46000
O 	O 	0.80350 0.51070 0.50640 -0.44100
O 	O 	0.45750 0.55060 0.72740 -0.45800
O 	O 	0.51640 0.49060 0.64290 -0.57600
O 	O 	0.32870 0.38720 0.68290 -0.46100
O 	O 	0.63440 0.52240 0.68140 -0.45700
O 	O 	0.85480 0.53710 0.73930 -0.58300
O 	O 	0.74720 0.30570 0.42790 -0.40500
O 	O 	0.79220 0.62430 0.51390 -0.45000
O 	O 	0.59730 0.23330 0.59200 -0.55700
O 	O 	0.33600 0.61320 0.59580 -0.49700
O 	O 	0.88060 0.38410 0.56720 -0.46800
O 	O 	0.73370 0.67640 0.58430 -0.45600
O 	O 	0.51590 0.58400 0.78690 -0.32100
O 	O 	0.90720 0.55580 0.65560 -0.44700
O 	O 	0.22920 0.35000 0.67490 -0.28200
O 	O 	0.78680 0.37340 0.63440 -0.46900
O 	O 	0.39420 0.55320 0.63730 -0.52800
O 	O 	0.69590 0.46280 0.61130 -0.38300
O 	O 	0.58150 0.26960 0.52100 -0.55800
O 	O 	0.66160 0.97730 0.40080 -0.36200
O 	O 	0.75290 0.07070 0.41910 -0.34000
O 	O 	0.72340 0.03300 0.32620 -0.32000
O 	O 	0.73740 0.91380 0.46370 -0.46300
O 	O 	0.61480 0.08660 0.42710 -0.47300
O 	O 	0.64850 0.79020 0.55580 -0.26900
O 	O 	0.83860 0.11020 0.47220 -0.44800
O 	O 	0.82150 0.12170 0.34540 -0.44700
O 	O 	0.88780 0.91470 0.33980 -0.46400
O 	O 	0.97140 0.80690 0.29810 -0.56600
O 	O 	0.04020 0.87410 0.31850 -0.54900
O 	O 	0.58370 0.84280 0.35120 -0.63500
O 	O 	0.54800 0.95140 0.37500 -0.45200
O 	O 	0.67430 0.13780 0.36100 -0.47600
O 	O 	0.64580 0.93940 0.31260 -0.45800
O 	O 	0.63970 0.20310 0.43670 -0.62000
O 	O 	0.81990 0.99670 0.48020 -0.45900
O 	O 	0.76930 0.92400 0.29840 -0.44000
O 	O 	0.73070 0.12280 0.27940 -0.42900
O 	O 	0.88890 0.05780 0.40000 -0.48100
O 	O 	0.91120 0.94750 0.42660 -0.48500
O 	O 	0.57250 0.98780 0.46060 -0.44100
O 	O 	0.85850 0.88250 0.49710 -0.58900
O 	O 	0.77600 0.02170 0.24860 -0.43600
O 	O 	0.82600 0.85920 0.40930 -0.46000
O 	O 	0.69650 0.01070 0.49360 -0.44100
O 	O 	0.04250 0.05060 0.27260 -0.45800
O 	O 	0.98360 0.99060 0.35710 -0.57500
O 	O 	0.17130 0.88720 0.31710 -0.46100
O 	O 	0.86560 0.02240 0.31860 -0.45800
O 	O 	0.64520 0.03710 0.26070 -0.58300
O 	O 	0.75280 0.80570 0.57210 -0.40500
O 	O 	0.70780 0.12430 0.48610 -0.45000
O 	O 	0.90270 0.73330 0.40800 -0.55700
O 	O 	0.16400 0.11320 0.40420 -0.49700
O 	O 	0.61940 0.88410 0.43280 -0.46800
O 	O 	0.76630 0.17640 0.41570 -0.45600
O 	O 	0.98410 0.08400 0.21310 -0.32200
O 	O 	0.59280 0.05580 0.34440 -0.44700
O 	O 	0.27080 0.85000 0.32510 -0.28200
O 	O 	0.71320 0.87340 0.36560 -0.46900
O 	O 	0.10580 0.05320 0.36270 -0.52700
O 	O 	0.80410 0.96280 0.38870 -0.38300
O 	O 	0.91850 0.76960 0.47900 -0.55800
O 	O 	0.33840 0.52270 0.90080 -0.36200
O 	O 	0.24710 0.42930 0.91910 -0.33900
O 	O 	0.27660 0.46700 0.82620 -0.31900
O 	O 	0.26260 0.58620 0.96370 -0.46300
O 	O 	0.38520 0.41340 0.92710 -0.47300
O 	O 	0.35150 0.70980 0.05580 -0.27000
O 	O 	0.16140 0.38980 0.97220 -0.44800
O 	O 	0.17850 0.37830 0.84540 -0.44700
O 	O 	0.11220 0.58530 0.83980 -0.46400
O 	O 	0.02860 0.69310 0.79810 -0.56600
O 	O 	0.95980 0.62590 0.81850 -0.54700
O 	O 	0.41630 0.65720 0.85120 -0.63500
O 	O 	0.45200 0.54860 0.87500 -0.45200
O 	O 	0.32570 0.36220 0.86100 -0.47600
O 	O 	0.35420 0.56060 0.81260 -0.45800
O 	O 	0.36030 0.29690 0.93670 -0.62000
O 	O 	0.18010 0.50330 0.98020 -0.46000
O 	O 	0.23070 0.57600 0.79840 -0.44000
O 	O 	0.26930 0.37720 0.77940 -0.42900
O 	O 	0.11110 0.44220 0.90000 -0.48000
O 	O 	0.08880 0.55250 0.92660 -0.48500
O 	O 	0.42750 0.51220 0.96060 -0.44100
O 	O 	0.14150 0.61750 0.99710 -0.58900
O 	O 	0.22400 0.47830 0.74860 -0.43600
O 	O 	0.17400 0.64080 0.90930 -0.46000
O 	O 	0.30350 0.48930 0.99360 -0.44100
O 	O 	0.95750 0.44940 0.77260 -0.45800
O 	O 	0.01640 0.50940 0.85710 -0.57500
O 	O 	0.82870 0.61280 0.81710 -0.46100
O 	O 	0.13440 0.47760 0.81860 -0.45700
O 	O 	0.35480 0.46290 0.76070 -0.58300
O 	O 	0.24720 0.69430 0.07210 -0.40600
O 	O 	0.29220 0.37570 0.98610 -0.45000
O 	O 	0.09730 0.76670 0.90800 -0.55700
O 	O 	0.83600 0.38680 0.90420 -0.49700
O 	O 	0.38060 0.61590 0.93280 -0.46800
O 	O 	0.23370 0.32360 0.91570 -0.45600
O 	O 	0.01590 0.41600 0.71310 -0.32000
O 	O 	0.40720 0.44420 0.84440 -0.44700
O 	O 	0.72920 0.65000 0.82510 -0.28200
O 	O 	0.28680 0.62660 0.86560 -0.46900
O 	O 	0.89420 0.44680 0.86270 -0.52800
O 	O 	0.19590 0.53720 0.88870 -0.38300
O 	O 	0.08150 0.73040 0.97900 -0.55800
O 	O 	0.83840 0.97730 0.90080 -0.36100
O 	O 	0.74710 0.07070 0.91910 -0.34000
O 	O 	0.77660 0.03300 0.82620 -0.32000
O 	O 	0.76260 0.91380 0.96370 -0.46300
O 	O 	0.88520 0.08660 0.92710 -0.47300
O 	O 	0.85150 0.79020 0.05580 -0.26900
O 	O 	0.66140 0.11020 0.97220 -0.44800
O 	O 	0.67850 0.12170 0.84540 -0.44700
O 	O 	0.61220 0.91470 0.83980 -0.46400
O 	O 	0.52860 0.80690 0.79810 -0.56600
O 	O 	0.45980 0.87410 0.81850 -0.54700
O 	O 	0.91630 0.84280 0.85120 -0.63500
O 	O 	0.95200 0.95140 0.87500 -0.45000
O 	O 	0.82570 0.13780 0.86100 -0.47600
O 	O 	0.85420 0.93940 0.81260 -0.45800
O 	O 	0.86030 0.20310 0.93670 -0.62100
O 	O 	0.68010 0.99670 0.98020 -0.45900
O 	O 	0.73070 0.92400 0.79840 -0.44000
O 	O 	0.76930 0.12280 0.77940 -0.42900
O 	O 	0.61110 0.05780 0.90000 -0.48100
O 	O 	0.58880 0.94750 0.92660 -0.48500
O 	O 	0.92750 0.98780 0.96060 -0.44000
O 	O 	0.64150 0.88250 0.99710 -0.59000
O 	O 	0.72400 0.02170 0.74860 -0.43700
O 	O 	0.67400 0.85920 0.90930 -0.46000
O 	O 	0.80350 0.01070 0.99360 -0.44200
O 	O 	0.45750 0.05060 0.77260 -0.45800
O 	O 	0.51640 0.99060 0.85710 -0.57600
O 	O 	0.32870 0.88720 0.81710 -0.46100
O 	O 	0.63440 0.02240 0.81860 -0.45800
O 	O 	0.85480 0.03710 0.76070 -0.58400
O 	O 	0.74720 0.80570 0.07210 -0.40500
O 	O 	0.79220 0.12430 0.98610 -0.45000
O 	O 	0.59730 0.73330 0.90800 -0.55700
O 	O 	0.33600 0.11320 0.90420 -0.49700
O 	O 	0.88060 0.88410 0.93280 -0.46800
O 	O 	0.73370 0.17640 0.91570 -0.45600
O 	O 	0.51590 0.08400 0.71310 -0.32100
O 	O 	0.90720 0.05580 0.84440 -0.44700
O 	O 	0.22920 0.85000 0.82510 -0.28200
O 	O 	0.78680 0.87340 0.86560 -0.46900
O 	O 	0.39420 0.05320 0.86270 -0.52800
O 	O 	0.69590 0.96280 0.88870 -0.38200
O 	O 	0.58150 0.76960 0.97900 -0.55800
O 	O 	0.16160 0.52270 0.40080 -0.36200
O 	O 	0.25290 0.42930 0.41910 -0.33900
O 	O 	0.22340 0.46700 0.32620 -0.31900
O 	O 	0.23740 0.58620 0.46370 -0.46300
O 	O 	0.11480 0.41340 0.42710 -0.47300
O 	O 	0.14850 0.70980 0.55580 -0.26900
O 	O 	0.33860 0.38980 0.47220 -0.44800
O 	O 	0.32150 0.37830 0.34540 -0.44700
O 	O 	0.38780 0.58530 0.33980 -0.46400
O 	O 	0.47140 0.69310 0.29810 -0.56600
O 	O 	0.54020 0.62590 0.31850 -0.54700
O 	O 	0.08370 0.65720 0.35120 -0.63500
O 	O 	0.04800 0.54860 0.37500 -0.45200
O 	O 	0.17430 0.36220 0.36100 -0.47600
O 	O 	0.14580 0.56060 0.31260 -0.45800
O 	O 	0.13970 0.29690 0.43670 -0.62000
O 	O 	0.31990 0.50330 0.48020 -0.46000
O 	O 	0.26930 0.57600 0.29840 -0.44000
O 	O 	0.23070 0.37720 0.27940 -0.42900
O 	O 	0.38890 0.44220 0.40000 -0.48000
O 	O 	0.41120 0.55250 0.42660 -0.48500
O 	O 	0.07250 0.51220 0.46060 -0.44100
O 	O 	0.35850 0.61750 0.49710 -0.59000
O 	O 	0.27600 0.47830 0.24860 -0.43600
O 	O 	0.32600 0.64080 0.40930 -0.46000
O 	O 	0.19650 0.48930 0.49360 -0.44100
O 	O 	0.54250 0.44940 0.27260 -0.45800
O 	O 	0.48360 0.50940 0.35710 -0.57600
O 	O 	0.67130 0.61280 0.31710 -0.46100
O 	O 	0.36560 0.47760 0.31860 -0.45700
O 	O 	0.14520 0.46290 0.26070 -0.58300
O 	O 	0.25280 0.69430 0.57210 -0.40500
O 	O 	0.20780 0.37570 0.48610 -0.45000
O 	O 	0.40270 0.76670 0.40800 -0.55700
O 	O 	0.66400 0.38680 0.40420 -0.49700
O 	O 	0.11940 0.61590 0.43280 -0.46800
O 	O 	0.26630 0.32360 0.41570 -0.45600
O 	O 	0.48410 0.41600 0.21310 -0.32100
O 	O 	0.09280 0.44420 0.34440 -0.44700
O 	O 	0.77080 0.65000 0.32510 -0.28200
O 	O 	0.21320 0.62660 0.36560 -0.46900
O 	O 	0.60580 0.44680 0.36270 -0.52800
O 	O 	0.30410 0.53720 0.38870 -0.38300
O 	O 	0.41850 0.73040 0.47900 -0.55800
O 	O 	0.33840 0.02270 0.59920 -0.36200
O 	O 	0.24710 0.92930 0.58090 -0.34000
O 	O 	0.27660 0.96700 0.67380 -0.32000
O 	O 	0.26260 0.08620 0.53630 -0.46300
O 	O 	0.38520 0.91340 0.57290 -0.47300
O 	O 	0.35150 0.20980 0.44420 -0.26900
O 	O 	0.16140 0.88980 0.52780 -0.44800
O 	O 	0.17850 0.87830 0.65460 -0.44700
O 	O 	0.11220 0.08530 0.66020 -0.46400
O 	O 	0.02860 0.19310 0.70190 -0.56600
O 	O 	0.95980 0.12590 0.68150 -0.54900
O 	O 	0.41630 0.15720 0.64880 -0.63500
O 	O 	0.45200 0.04860 0.62500 -0.45200
O 	O 	0.32570 0.86220 0.63900 -0.47600
O 	O 	0.35420 0.06060 0.68740 -0.45800
O 	O 	0.36030 0.79690 0.56330 -0.62000
O 	O 	0.18010 0.00330 0.51980 -0.45900
O 	O 	0.23070 0.07600 0.70160 -0.44000
O 	O 	0.26930 0.87720 0.72060 -0.42900
O 	O 	0.11110 0.94220 0.60000 -0.48100
O 	O 	0.08880 0.05250 0.57340 -0.48500
O 	O 	0.42750 0.01220 0.53940 -0.44100
O 	O 	0.14150 0.11750 0.50290 -0.58900
O 	O 	0.22400 0.97830 0.75140 -0.43600
O 	O 	0.17400 0.14080 0.59070 -0.46000
O 	O 	0.30350 0.98930 0.50640 -0.44100
O 	O 	0.95750 0.94940 0.72740 -0.45800
O 	O 	0.01640 0.00940 0.64290 -0.57500
O 	O 	0.82870 0.11280 0.68290 -0.46100
O 	O 	0.13440 0.97760 0.68140 -0.45800
O 	O 	0.35480 0.96290 0.73930 -0.58300
O 	O 	0.24720 0.19430 0.42790 -0.40500
O 	O 	0.29220 0.87570 0.51390 -0.45000
O 	O 	0.09730 0.26670 0.59200 -0.55700
O 	O 	0.83600 0.88680 0.59580 -0.49700
O 	O 	0.38060 0.11590 0.56720 -0.46800
O 	O 	0.23370 0.82360 0.58430 -0.45600
O 	O 	0.01590 0.91600 0.78690 -0.32200
O 	O 	0.40720 0.94420 0.65560 -0.44700
O 	O 	0.72920 0.15000 0.67490 -0.28200
O 	O 	0.28680 0.12660 0.63440 -0.46900
O 	O 	0.89420 0.94680 0.63730 -0.52700
O 	O 	0.19590 0.03720 0.61130 -0.38300
O 	O 	0.08150 0.23040 0.52100 -0.55800
O 	O 	0.66160 0.47730 0.09920 -0.36200
O 	O 	0.75290 0.57070 0.08090 -0.33900
O 	O 	0.72340 0.53300 0.17380 -0.31900
O 	O 	0.73740 0.41380 0.03630 -0.46300
O 	O 	0.61480 0.58660 0.07290 -0.47300
O 	O 	0.64850 0.29020 0.94420 -0.27000
O 	O 	0.83860 0.61020 0.02780 -0.44800
O 	O 	0.82150 0.62170 0.15460 -0.44700
O 	O 	0.88780 0.41470 0.16020 -0.46400
O 	O 	0.97140 0.30690 0.20190 -0.56600
O 	O 	0.04020 0.37410 0.18150 -0.54700
O 	O 	0.58370 0.34280 0.14880 -0.63500
O 	O 	0.54800 0.45140 0.12500 -0.45200
O 	O 	0.67430 0.63780 0.13900 -0.47600
O 	O 	0.64580 0.43940 0.18740 -0.45800
O 	O 	0.63970 0.70310 0.06330 -0.62000
O 	O 	0.81990 0.49670 0.01980 -0.46000
O 	O 	0.76930 0.42400 0.20160 -0.44000
O 	O 	0.73070 0.62280 0.22060 -0.42900
O 	O 	0.88890 0.55780 0.10000 -0.48000
O 	O 	0.91120 0.44750 0.07340 -0.48500
O 	O 	0.57250 0.48780 0.03940 -0.44100
O 	O 	0.85850 0.38250 0.00290 -0.58900
O 	O 	0.77600 0.52170 0.25140 -0.43600
O 	O 	0.82600 0.35920 0.09070 -0.46000
O 	O 	0.69650 0.51070 0.00640 -0.44100
O 	O 	0.04250 0.55060 0.22740 -0.45800
O 	O 	0.98360 0.49060 0.14290 -0.57500
O 	O 	0.17130 0.38720 0.18290 -0.46100
O 	O 	0.86560 0.52240 0.18140 -0.45700
O 	O 	0.64520 0.53710 0.23930 -0.58300
O 	O 	0.75280 0.30570 0.92790 -0.40600
O 	O 	0.70780 0.62430 0.01390 -0.45000
O 	O 	0.90270 0.23330 0.09200 -0.55700
O 	O 	0.16400 0.61320 0.09580 -0.49700
O 	O 	0.61940 0.38410 0.06720 -0.46800
O 	O 	0.76630 0.67640 0.08430 -0.45600
O 	O 	0.98410 0.58400 0.28690 -0.32000
O 	O 	0.59280 0.55580 0.15560 -0.44700
O 	O 	0.27080 0.35000 0.17490 -0.28200
O 	O 	0.71320 0.37340 0.13440 -0.46900
O 	O 	0.10580 0.55320 0.13730 -0.52800
O 	O 	0.80410 0.46280 0.11130 -0.38300
O 	O 	0.91850 0.26960 0.02100 -0.55800
