data_crystal

_cell_length_a 20.48900
_cell_length_b 23.47200
_cell_length_c 29.66900
_cell_angle_alpha 90.00000
_cell_angle_beta  90.00000
_cell_angle_gamma 90.00000

_symmetry_space_group_name_	'P 1'
_symmetry_space_group_name_H-M	'P 1'

loop_
_symmetry_equiv_pos_as_xyz
  x,y,z

loop_
_atom_site_label
_atom_site_type_symbol
_atom_site_fract_x
_atom_site_fract_y
_atom_site_fract_z
_atom_site_charge
Ce	Ce	0.59276 0.02949 0.68396 2.12900
Ce	Ce	0.37874 0.19389 0.44903 2.08200
Ce	Ce	0.49486 0.26990 0.64603 2.01200
Ce	Ce	0.40724 0.47051 0.18396 2.13000
Ce	Ce	0.62126 0.30611 0.94903 2.08200
Ce	Ce	0.50514 0.23010 0.14603 2.01200
Ce	Ce	0.09276 0.97051 0.81604 2.12900
Ce	Ce	0.87874 0.80611 0.05097 2.08200
Ce	Ce	0.99486 0.73010 0.85397 2.01300
Ce	Ce	0.90724 0.52949 0.31604 2.13000
Ce	Ce	0.12126 0.69389 0.55097 2.08300
Ce	Ce	0.00514 0.76990 0.35397 2.01300
Ce	Ce	0.40724 0.97051 0.31604 2.13000
Ce	Ce	0.62126 0.80611 0.55097 2.08300
Ce	Ce	0.50514 0.73010 0.35397 2.01300
Ce	Ce	0.59276 0.52949 0.81604 2.13100
Ce	Ce	0.37874 0.69389 0.05097 2.08300
Ce	Ce	0.49486 0.76990 0.85397 2.01300
Ce	Ce	0.90724 0.02949 0.18396 2.13000
Ce	Ce	0.12126 0.19389 0.94903 2.08300
Ce	Ce	0.00514 0.26990 0.14603 2.01400
Ce	Ce	0.09276 0.47051 0.68396 2.13100
Ce	Ce	0.87874 0.30611 0.44903 2.08300
Ce	Ce	0.99486 0.23010 0.64603 2.01300
H 	H 	0.13670 0.26100 0.52050 0.01000
H 	H 	0.17780 0.29660 0.59090 0.00500
H 	H 	0.84770 0.07520 0.63130 0.01700
H 	H 	0.77980 0.92680 0.58170 0.03500
H 	H 	0.39370 0.15020 0.76790 0.00800
H 	H 	0.40090 0.99130 0.81200 0.03600
H 	H 	0.86770 0.98860 0.59340 0.03000
H 	H 	0.35370 0.08080 0.81230 0.06300
H 	H 	0.28730 0.29080 0.60640 0.03200
H 	H 	0.86330 0.23900 0.02050 0.01000
H 	H 	0.82220 0.20340 0.09090 0.00500
H 	H 	0.15230 0.42480 0.13130 0.01600
H 	H 	0.22020 0.57320 0.08170 0.03400
H 	H 	0.60630 0.34980 0.26790 0.00800
H 	H 	0.59910 0.50870 0.31200 0.03500
H 	H 	0.13230 0.51140 0.09340 0.03100
H 	H 	0.64630 0.41920 0.31230 0.06400
H 	H 	0.71270 0.20920 0.10640 0.03200
H 	H 	0.63670 0.73900 0.97950 0.00900
H 	H 	0.67780 0.70340 0.90910 0.00500
H 	H 	0.34770 0.92480 0.86870 0.01600
H 	H 	0.27980 0.07320 0.91830 0.03400
H 	H 	0.89370 0.84980 0.73210 0.00700
H 	H 	0.90090 0.00870 0.68800 0.03200
H 	H 	0.36770 0.01140 0.90660 0.03000
H 	H 	0.85370 0.91920 0.68770 0.06500
H 	H 	0.78730 0.70920 0.89360 0.03200
H 	H 	0.36330 0.76100 0.47950 0.01000
H 	H 	0.32220 0.79660 0.40910 0.00500
H 	H 	0.65230 0.57520 0.36870 0.01600
H 	H 	0.72020 0.42680 0.41830 0.03400
H 	H 	0.10630 0.65020 0.23210 0.00800
H 	H 	0.09910 0.49130 0.18800 0.03600
H 	H 	0.63230 0.48860 0.40660 0.03100
H 	H 	0.14630 0.58080 0.18770 0.06300
H 	H 	0.21270 0.79080 0.39360 0.03200
H 	H 	0.86330 0.73900 0.47950 0.01000
H 	H 	0.82220 0.70340 0.40910 0.00500
H 	H 	0.15230 0.92480 0.36870 0.01700
H 	H 	0.22020 0.07320 0.41830 0.03500
H 	H 	0.60630 0.84980 0.23210 0.00800
H 	H 	0.59910 0.00870 0.18800 0.03600
H 	H 	0.13230 0.01140 0.40660 0.03000
H 	H 	0.64630 0.91920 0.18770 0.06300
H 	H 	0.71270 0.70920 0.39360 0.03200
H 	H 	0.13670 0.76100 0.97950 0.01000
H 	H 	0.17780 0.79660 0.90910 0.00500
H 	H 	0.84770 0.57520 0.86870 0.01600
H 	H 	0.77980 0.42680 0.91830 0.03400
H 	H 	0.39370 0.65020 0.73210 0.00800
H 	H 	0.40090 0.49130 0.68800 0.03500
H 	H 	0.86770 0.48860 0.90660 0.03100
H 	H 	0.35370 0.58080 0.68770 0.06400
H 	H 	0.28730 0.79080 0.89360 0.03200
H 	H 	0.36330 0.26100 0.02050 0.00900
H 	H 	0.32220 0.29660 0.09090 0.00500
H 	H 	0.65230 0.07520 0.13130 0.01600
H 	H 	0.72020 0.92680 0.08170 0.03400
H 	H 	0.10630 0.15020 0.26790 0.00700
H 	H 	0.09910 0.99130 0.31200 0.03200
H 	H 	0.63230 0.98860 0.09340 0.03000
H 	H 	0.14630 0.08080 0.31230 0.06500
H 	H 	0.21270 0.29080 0.10640 0.03200
H 	H 	0.63670 0.23900 0.52050 0.01000
H 	H 	0.67780 0.20340 0.59090 0.00500
H 	H 	0.34770 0.42480 0.63130 0.01600
H 	H 	0.27980 0.57320 0.58170 0.03400
H 	H 	0.89370 0.34980 0.76790 0.00800
H 	H 	0.90090 0.50870 0.81200 0.03600
H 	H 	0.36770 0.51140 0.59340 0.03100
H 	H 	0.85370 0.41920 0.81230 0.06300
H 	H 	0.78730 0.20920 0.60640 0.03200
W 	W 	0.62967 0.40244 0.63216 1.29100
W 	W 	0.56564 0.52308 0.59981 1.00400
W 	W 	0.40294 0.01007 0.62987 1.32000
W 	W 	0.31936 0.36009 0.42531 1.33500
W 	W 	0.16154 0.37079 0.40793 1.00000
W 	W 	0.65094 0.44554 0.52881 1.01400
W 	W 	0.65052 0.09886 0.80693 1.00100
W 	W 	0.80807 0.57916 0.70869 1.01700
W 	W 	0.32702 0.07702 0.54878 1.29900
W 	W 	0.70738 0.47556 0.72620 1.27500
W 	W 	0.23033 0.43781 0.49344 1.02100
W 	W 	0.80653 0.38199 0.65287 1.01600
W 	W 	0.37033 0.09756 0.13216 1.29100
W 	W 	0.43436 0.97692 0.09981 1.00200
W 	W 	0.59706 0.48993 0.12987 1.32000
W 	W 	0.68064 0.13991 0.92531 1.33500
W 	W 	0.83846 0.12921 0.90793 1.00000
W 	W 	0.34906 0.05446 0.02881 1.01500
W 	W 	0.34948 0.40114 0.30693 1.00100
W 	W 	0.19193 0.92084 0.20869 1.01700
W 	W 	0.67298 0.42298 0.04878 1.29900
W 	W 	0.29262 0.02444 0.22620 1.27700
W 	W 	0.76967 0.06219 0.99344 1.02000
W 	W 	0.19347 0.11801 0.15287 1.01600
W 	W 	0.12967 0.59756 0.86784 1.29100
W 	W 	0.06564 0.47692 0.90019 1.00400
W 	W 	0.90294 0.98993 0.87013 1.32300
W 	W 	0.81936 0.63991 0.07469 1.33500
W 	W 	0.66154 0.62921 0.09207 1.00000
W 	W 	0.15094 0.55446 0.97119 1.01400
W 	W 	0.15052 0.90114 0.69307 1.00100
W 	W 	0.30807 0.42084 0.79131 1.01700
W 	W 	0.82702 0.92298 0.95122 1.29900
W 	W 	0.20738 0.52444 0.77380 1.27500
W 	W 	0.73033 0.56219 0.00656 1.02100
W 	W 	0.30653 0.61801 0.84713 1.01600
W 	W 	0.87033 0.90244 0.36784 1.29100
W 	W 	0.93436 0.02308 0.40019 1.00100
W 	W 	0.09706 0.51007 0.37013 1.32000
W 	W 	0.18064 0.86009 0.57469 1.33500
W 	W 	0.33846 0.87079 0.59207 1.00000
W 	W 	0.84906 0.94554 0.47119 1.01500
W 	W 	0.84948 0.59886 0.19307 1.00100
W 	W 	0.69193 0.07916 0.29131 1.01700
W 	W 	0.17298 0.57702 0.45122 1.29900
W 	W 	0.79262 0.97556 0.27380 1.27500
W 	W 	0.26967 0.93781 0.50656 1.02100
W 	W 	0.69347 0.88199 0.34713 1.01600
W 	W 	0.37033 0.59756 0.36784 1.29100
W 	W 	0.43436 0.47692 0.40019 1.00400
W 	W 	0.59706 0.98993 0.37013 1.32000
W 	W 	0.68064 0.63991 0.57469 1.33500
W 	W 	0.83846 0.62921 0.59207 1.00000
W 	W 	0.34906 0.55446 0.47119 1.01400
W 	W 	0.34948 0.90114 0.19307 1.00100
W 	W 	0.19193 0.42084 0.29131 1.01700
W 	W 	0.67298 0.92298 0.45122 1.29900
W 	W 	0.29262 0.52444 0.27380 1.27500
W 	W 	0.76967 0.56219 0.50656 1.02100
W 	W 	0.19347 0.61801 0.34713 1.01600
W 	W 	0.62967 0.90244 0.86784 1.29100
W 	W 	0.56564 0.02308 0.90019 1.00200
W 	W 	0.40294 0.51007 0.87013 1.32000
W 	W 	0.31936 0.86009 0.07469 1.33500
W 	W 	0.16154 0.87079 0.09207 1.00000
W 	W 	0.65094 0.94554 0.97119 1.01500
W 	W 	0.65052 0.59886 0.69307 1.00100
W 	W 	0.80807 0.07916 0.79131 1.01700
W 	W 	0.32702 0.57702 0.95122 1.29900
W 	W 	0.70738 0.97556 0.77380 1.27700
W 	W 	0.23033 0.93781 0.00656 1.02000
W 	W 	0.80653 0.88199 0.84713 1.01600
W 	W 	0.87033 0.40244 0.13216 1.29100
W 	W 	0.93436 0.52308 0.09981 1.00400
W 	W 	0.09706 0.01007 0.12987 1.32300
W 	W 	0.18064 0.36009 0.92531 1.33500
W 	W 	0.33846 0.37079 0.90793 1.00000
W 	W 	0.84906 0.44554 0.02881 1.01400
W 	W 	0.84948 0.09886 0.30693 1.00100
W 	W 	0.69193 0.57916 0.20869 1.01700
W 	W 	0.17298 0.07702 0.04878 1.29900
W 	W 	0.79262 0.47556 0.22620 1.27500
W 	W 	0.26967 0.43781 0.99344 1.02100
W 	W 	0.69347 0.38199 0.15287 1.01600
W 	W 	0.12967 0.09756 0.63216 1.29100
W 	W 	0.06564 0.97692 0.59981 1.00100
W 	W 	0.90294 0.48993 0.62987 1.32000
W 	W 	0.81936 0.13991 0.42531 1.33500
W 	W 	0.66154 0.12921 0.40793 1.00000
W 	W 	0.15094 0.05446 0.52881 1.01500
W 	W 	0.15052 0.40114 0.80693 1.00100
W 	W 	0.30807 0.92084 0.70869 1.01700
W 	W 	0.82702 0.42298 0.54878 1.29900
W 	W 	0.20738 0.02444 0.72620 1.27500
W 	W 	0.73033 0.06219 0.49344 1.02100
W 	W 	0.30653 0.11801 0.65287 1.01600
C 	C 	0.65770 0.93010 0.61700 0.40500
C 	C 	0.46460 0.10250 0.74090 -0.09000
C 	C 	0.71570 0.96970 0.62100 -0.06900
C 	C 	0.18080 0.25940 0.52770 -0.02400
C 	C 	0.20600 0.28070 0.56980 -0.05800
C 	C 	0.75290 0.05590 0.64740 -0.07400
C 	C 	0.81520 0.04780 0.62840 -0.00600
C 	C 	0.22890 0.23560 0.49760 -0.03200
C 	C 	0.77480 0.95910 0.59960 -0.00900
C 	C 	0.49390 0.14210 0.70830 0.37100
C 	C 	0.72980 0.10760 0.67060 0.33000
C 	C 	0.46860 0.01140 0.76630 -0.03100
C 	C 	0.41250 0.11420 0.76780 0.02600
C 	C 	0.41710 0.02030 0.79370 -0.00300
C 	C 	0.38640 0.24840 0.55360 0.42400
C 	C 	0.31480 0.25400 0.54660 -0.06700
C 	C 	0.50200 0.95550 0.75850 0.29300
C 	C 	0.21210 0.21170 0.45220 0.31200
C 	C 	0.82660 0.99690 0.60500 -0.06700
C 	C 	0.38940 0.07340 0.79370 -0.08000
C 	C 	0.27140 0.27750 0.57900 -0.00400
C 	C 	0.34230 0.56990 0.11700 0.40500
C 	C 	0.53540 0.39750 0.24090 -0.09100
C 	C 	0.28430 0.53030 0.12100 -0.07000
C 	C 	0.81920 0.24060 0.02770 -0.02300
C 	C 	0.79400 0.21930 0.06980 -0.05800
C 	C 	0.24710 0.44410 0.14740 -0.07400
C 	C 	0.18480 0.45220 0.12840 -0.00300
C 	C 	0.77110 0.26440 0.99760 -0.03300
C 	C 	0.22520 0.54090 0.09960 -0.00700
C 	C 	0.50610 0.35790 0.20830 0.37100
C 	C 	0.27020 0.39240 0.17060 0.33100
C 	C 	0.53140 0.48860 0.26630 -0.03100
C 	C 	0.58750 0.38580 0.26780 0.02700
C 	C 	0.58290 0.47970 0.29370 -0.00300
C 	C 	0.61360 0.25160 0.05360 0.42400
C 	C 	0.68520 0.24600 0.04660 -0.06700
C 	C 	0.49800 0.54450 0.25850 0.29300
C 	C 	0.78790 0.28830 0.95220 0.31200
C 	C 	0.17340 0.50310 0.10500 -0.07000
C 	C 	0.61060 0.42660 0.29370 -0.08000
C 	C 	0.72860 0.22250 0.07900 -0.00400
C 	C 	0.15770 0.06990 0.88300 0.40500
C 	C 	0.96460 0.89750 0.75910 -0.09200
C 	C 	0.21570 0.03030 0.87900 -0.07000
C 	C 	0.68080 0.74060 0.97230 -0.02200
C 	C 	0.70600 0.71930 0.93020 -0.05900
C 	C 	0.25290 0.94410 0.85260 -0.07500
C 	C 	0.31520 0.95220 0.87160 -0.00300
C 	C 	0.72890 0.76440 0.00240 -0.03400
C 	C 	0.27480 0.04090 0.90040 -0.00700
C 	C 	0.99390 0.85790 0.79170 0.37400
C 	C 	0.22980 0.89240 0.82940 0.33100
C 	C 	0.96860 0.98860 0.73370 -0.03200
C 	C 	0.91250 0.88580 0.73220 0.03000
C 	C 	0.91710 0.97970 0.70630 0.00300
C 	C 	0.88640 0.75160 0.94640 0.42400
C 	C 	0.81480 0.74600 0.95340 -0.06700
C 	C 	0.00200 0.04450 0.74150 0.29500
C 	C 	0.71210 0.78830 0.04780 0.31200
C 	C 	0.32660 0.00310 0.89500 -0.07100
C 	C 	0.88940 0.92660 0.70630 -0.08500
C 	C 	0.77140 0.72250 0.92100 -0.00300
C 	C 	0.84230 0.43010 0.38300 0.40500
C 	C 	0.03540 0.60250 0.25910 -0.09000
C 	C 	0.78430 0.46970 0.37900 -0.07000
C 	C 	0.31920 0.75940 0.47230 -0.02400
C 	C 	0.29400 0.78070 0.43020 -0.05800
C 	C 	0.74710 0.55590 0.35260 -0.07400
C 	C 	0.68480 0.54780 0.37160 -0.00300
C 	C 	0.27110 0.73560 0.50240 -0.03200
C 	C 	0.72520 0.45910 0.40040 -0.00700
C 	C 	0.00610 0.64210 0.29170 0.37100
C 	C 	0.77020 0.60760 0.32940 0.33100
C 	C 	0.03140 0.51140 0.23370 -0.03000
C 	C 	0.08750 0.61420 0.23220 0.02600
C 	C 	0.08290 0.52030 0.20630 -0.00300
C 	C 	0.11360 0.74840 0.44640 0.42400
C 	C 	0.18520 0.75400 0.45340 -0.06700
C 	C 	0.99800 0.45550 0.24150 0.29200
C 	C 	0.28790 0.71170 0.54780 0.31200
C 	C 	0.67340 0.49690 0.39500 -0.07100
C 	C 	0.11060 0.57340 0.20630 -0.08000
C 	C 	0.22860 0.77750 0.42100 -0.00400
C 	C 	0.34230 0.06990 0.38300 0.40500
C 	C 	0.53540 0.89750 0.25910 -0.09000
C 	C 	0.28430 0.03030 0.37900 -0.06900
C 	C 	0.81920 0.74060 0.47230 -0.02400
C 	C 	0.79400 0.71930 0.43020 -0.05800
C 	C 	0.24710 0.94410 0.35260 -0.07400
C 	C 	0.18480 0.95220 0.37160 -0.00600
C 	C 	0.77110 0.76440 0.50240 -0.03200
C 	C 	0.22520 0.04090 0.40040 -0.00900
C 	C 	0.50610 0.85790 0.29170 0.37100
C 	C 	0.27020 0.89240 0.32940 0.33000
C 	C 	0.53140 0.98860 0.23370 -0.03100
C 	C 	0.58750 0.88580 0.23220 0.02600
C 	C 	0.58290 0.97970 0.20630 -0.00300
C 	C 	0.61360 0.75160 0.44640 0.42400
C 	C 	0.68520 0.74600 0.45340 -0.06700
C 	C 	0.49800 0.04450 0.24150 0.29300
C 	C 	0.78790 0.78830 0.54780 0.31200
C 	C 	0.17340 0.00310 0.39500 -0.06700
C 	C 	0.61060 0.92660 0.20630 -0.08000
C 	C 	0.72860 0.72250 0.42100 -0.00400
C 	C 	0.65770 0.43010 0.88300 0.40500
C 	C 	0.46460 0.60250 0.75910 -0.09100
C 	C 	0.71570 0.46970 0.87900 -0.07000
C 	C 	0.18080 0.75940 0.97230 -0.02300
C 	C 	0.20600 0.78070 0.93020 -0.05800
C 	C 	0.75290 0.55590 0.85260 -0.07400
C 	C 	0.81520 0.54780 0.87160 -0.00300
C 	C 	0.22890 0.73560 0.00240 -0.03300
C 	C 	0.77480 0.45910 0.90040 -0.00700
C 	C 	0.49390 0.64210 0.79170 0.37100
C 	C 	0.72980 0.60760 0.82940 0.33100
C 	C 	0.46860 0.51140 0.73370 -0.03100
C 	C 	0.41250 0.61420 0.73220 0.02700
C 	C 	0.41710 0.52030 0.70630 -0.00300
C 	C 	0.38640 0.74840 0.94640 0.42400
C 	C 	0.31480 0.75400 0.95340 -0.06700
C 	C 	0.50200 0.45550 0.74150 0.29300
C 	C 	0.21210 0.71170 0.04780 0.31200
C 	C 	0.82660 0.49690 0.89500 -0.07000
C 	C 	0.38940 0.57340 0.70630 -0.08000
C 	C 	0.27140 0.77750 0.92100 -0.00400
C 	C 	0.84230 0.93010 0.11700 0.40500
C 	C 	0.03540 0.10250 0.24090 -0.09200
C 	C 	0.78430 0.96970 0.12100 -0.07000
C 	C 	0.31920 0.25940 0.02770 -0.02200
C 	C 	0.29400 0.28070 0.06980 -0.05900
C 	C 	0.74710 0.05590 0.14740 -0.07500
C 	C 	0.68480 0.04780 0.12840 -0.00300
C 	C 	0.27110 0.23560 0.99760 -0.03400
C 	C 	0.72520 0.95910 0.09960 -0.00700
C 	C 	0.00610 0.14210 0.20830 0.37400
C 	C 	0.77020 0.10760 0.17060 0.33100
C 	C 	0.03140 0.01140 0.26630 -0.03200
C 	C 	0.08750 0.11420 0.26780 0.03000
C 	C 	0.08290 0.02030 0.29370 0.00300
C 	C 	0.11360 0.24840 0.05360 0.42400
C 	C 	0.18520 0.25400 0.04660 -0.06700
C 	C 	0.99800 0.95550 0.25850 0.29500
C 	C 	0.28790 0.21170 0.95220 0.31200
C 	C 	0.67340 0.99690 0.10500 -0.07100
C 	C 	0.11060 0.07340 0.29370 -0.08500
C 	C 	0.22860 0.27750 0.07900 -0.00300
C 	C 	0.15770 0.56990 0.61700 0.40500
C 	C 	0.96460 0.39750 0.74090 -0.09000
C 	C 	0.21570 0.53030 0.62100 -0.07000
C 	C 	0.68080 0.24060 0.52770 -0.02400
C 	C 	0.70600 0.21930 0.56980 -0.05800
C 	C 	0.25290 0.44410 0.64740 -0.07400
C 	C 	0.31520 0.45220 0.62840 -0.00300
C 	C 	0.72890 0.26440 0.49760 -0.03200
C 	C 	0.27480 0.54090 0.59960 -0.00700
C 	C 	0.99390 0.35790 0.70830 0.37100
C 	C 	0.22980 0.39240 0.67060 0.33100
C 	C 	0.96860 0.48860 0.76630 -0.03000
C 	C 	0.91250 0.38580 0.76780 0.02600
C 	C 	0.91710 0.47970 0.79370 -0.00300
C 	C 	0.88640 0.25160 0.55360 0.42400
C 	C 	0.81480 0.24600 0.54660 -0.06700
C 	C 	0.00200 0.54450 0.75850 0.29200
C 	C 	0.71210 0.28830 0.45220 0.31200
C 	C 	0.32660 0.50310 0.60500 -0.07100
C 	C 	0.88940 0.42660 0.79370 -0.08000
C 	C 	0.77140 0.22250 0.57900 -0.00400
N 	N 	0.70500 0.01520 0.64460 -0.20900
N 	N 	0.49490 0.05020 0.73960 -0.19500
N 	N 	0.29360 0.23210 0.50750 -0.19200
N 	N 	0.29500 0.48480 0.14460 -0.20800
N 	N 	0.50510 0.44980 0.23960 -0.19500
N 	N 	0.70640 0.26790 0.00750 -0.19100
N 	N 	0.20500 0.98480 0.85540 -0.20800
N 	N 	0.99490 0.94980 0.76040 -0.19400
N 	N 	0.79360 0.76790 0.99250 -0.19100
N 	N 	0.79500 0.51520 0.35540 -0.20800
N 	N 	0.00510 0.55020 0.26040 -0.19500
N 	N 	0.20640 0.73210 0.49250 -0.19200
N 	N 	0.29500 0.98480 0.35540 -0.20900
N 	N 	0.50510 0.94980 0.26040 -0.19500
N 	N 	0.70640 0.76790 0.49250 -0.19200
N 	N 	0.70500 0.51520 0.85540 -0.20800
N 	N 	0.49490 0.55020 0.76040 -0.19500
N 	N 	0.29360 0.73210 0.99250 -0.19100
N 	N 	0.79500 0.01520 0.14460 -0.20800
N 	N 	0.00510 0.05020 0.23960 -0.19400
N 	N 	0.20640 0.23210 0.00750 -0.19100
N 	N 	0.20500 0.48480 0.64460 -0.20800
N 	N 	0.99490 0.44980 0.73960 -0.19500
N 	N 	0.79360 0.26790 0.50750 -0.19200
O 	O 	0.16150 0.39000 0.47120 -0.45500
O 	O 	0.24750 0.42890 0.41940 -0.34200
O 	O 	0.38920 0.94180 0.60160 -0.48600
O 	O 	0.54050 0.12410 0.68360 -0.54700
O 	O 	0.64410 0.44240 0.68840 -0.46800
O 	O 	0.32770 0.13860 0.59260 -0.47000
O 	O 	0.64260 0.03940 0.76230 -0.59200
O 	O 	0.66190 0.47840 0.59990 -0.35700
O 	O 	0.68550 0.94560 0.72390 -0.47200
O 	O 	0.32770 0.36130 0.36200 -0.47700
O 	O 	0.40460 0.26390 0.59320 -0.58200
O 	O 	0.47220 0.19260 0.70350 -0.55200
O 	O 	0.23370 0.32270 0.41680 -0.45400
O 	O 	0.76920 0.42510 0.70300 -0.45800
O 	O 	0.41190 0.05140 0.57580 -0.48900
O 	O 	0.77570 0.52470 0.75060 -0.45200
O 	O 	0.61510 0.58670 0.57160 -0.47200
O 	O 	0.18030 0.37620 0.34580 -0.44500
O 	O 	0.72990 0.12680 0.78020 -0.42300
O 	O 	0.54950 0.45240 0.62660 -0.45400
O 	O 	0.67460 0.11130 0.68450 -0.47500
O 	O 	0.29140 0.37800 0.48630 -0.45800
O 	O 	0.35930 0.11710 0.50470 -0.59600
O 	O 	0.69720 0.50980 0.50760 -0.44100
O 	O 	0.48380 0.00670 0.64520 -0.57900
O 	O 	0.73910 0.41370 0.53790 -0.46400
O 	O 	0.71390 0.37530 0.63570 -0.47300
O 	O 	0.32150 0.00450 0.52050 -0.46400
O 	O 	0.36470 0.97420 0.68260 -0.45700
O 	O 	0.36020 0.29860 0.43730 -0.63300
O 	O 	0.58420 0.34410 0.64980 -0.64400
O 	O 	0.66530 0.88730 0.59280 -0.51900
O 	O 	0.25440 0.19560 0.42740 -0.42300
O 	O 	0.60770 0.94400 0.63730 -0.52000
O 	O 	0.38670 0.08340 0.66210 -0.46600
O 	O 	0.59190 0.55730 0.65500 -0.44300
O 	O 	0.30360 0.03600 0.61270 -0.37800
O 	O 	0.57420 0.48780 0.54010 -0.44600
O 	O 	0.54210 0.94620 0.72840 -0.41400
O 	O 	0.72420 0.03500 0.82590 -0.36400
O 	O 	0.62110 0.38440 0.56860 -0.47400
O 	O 	0.77230 0.14850 0.67510 -0.28900
O 	O 	0.48180 0.91420 0.78640 -0.29800
O 	O 	0.14730 0.21050 0.44500 -0.27800
O 	O 	0.41980 0.23120 0.52230 -0.56600
O 	O 	0.83850 0.11000 0.97120 -0.45500
O 	O 	0.75250 0.07110 0.91940 -0.34300
O 	O 	0.61080 0.55820 0.10160 -0.48600
O 	O 	0.45950 0.37590 0.18360 -0.54700
O 	O 	0.35590 0.05760 0.18840 -0.46800
O 	O 	0.67230 0.36140 0.09260 -0.47000
O 	O 	0.35740 0.46060 0.26230 -0.59200
O 	O 	0.33810 0.02160 0.09990 -0.35600
O 	O 	0.31450 0.55440 0.22390 -0.47200
O 	O 	0.67230 0.13870 0.86200 -0.47700
O 	O 	0.59540 0.23610 0.09320 -0.58200
O 	O 	0.52780 0.30740 0.20350 -0.55200
O 	O 	0.76630 0.17730 0.91680 -0.45400
O 	O 	0.23080 0.07490 0.20300 -0.45800
O 	O 	0.58810 0.44860 0.07580 -0.48900
O 	O 	0.22430 0.97530 0.25060 -0.45200
O 	O 	0.38490 0.91330 0.07160 -0.47200
O 	O 	0.81970 0.12380 0.84580 -0.44500
O 	O 	0.27010 0.37320 0.28020 -0.42300
O 	O 	0.45050 0.04760 0.12660 -0.45400
O 	O 	0.32540 0.38870 0.18450 -0.47500
O 	O 	0.70860 0.12200 0.98630 -0.45800
O 	O 	0.64070 0.38290 0.00470 -0.59700
O 	O 	0.30280 0.99020 0.00760 -0.44200
O 	O 	0.51620 0.49330 0.14520 -0.57900
O 	O 	0.26090 0.08630 0.03790 -0.46400
O 	O 	0.28610 0.12470 0.13570 -0.47300
O 	O 	0.67850 0.49550 0.02050 -0.46400
O 	O 	0.63530 0.52580 0.18260 -0.45700
O 	O 	0.63980 0.20140 0.93730 -0.63300
O 	O 	0.41580 0.15590 0.14980 -0.64400
O 	O 	0.33470 0.61270 0.09280 -0.51900
O 	O 	0.74560 0.30440 0.92740 -0.42300
O 	O 	0.39230 0.55600 0.13730 -0.52000
O 	O 	0.61330 0.41660 0.16210 -0.46600
O 	O 	0.40810 0.94270 0.15500 -0.44300
O 	O 	0.69640 0.46400 0.11270 -0.37800
O 	O 	0.42580 0.01220 0.04010 -0.44500
O 	O 	0.45790 0.55380 0.22840 -0.41400
O 	O 	0.27580 0.46500 0.32590 -0.36300
O 	O 	0.37890 0.11560 0.06860 -0.47400
O 	O 	0.22770 0.35150 0.17510 -0.28900
O 	O 	0.51820 0.58580 0.28640 -0.29800
O 	O 	0.85270 0.28950 0.94500 -0.27800
O 	O 	0.58020 0.26880 0.02230 -0.56600
O 	O 	0.66150 0.61000 0.02880 -0.45500
O 	O 	0.74750 0.57110 0.08060 -0.34200
O 	O 	0.88920 0.05820 0.89840 -0.48700
O 	O 	0.04050 0.87590 0.81640 -0.54900
O 	O 	0.14410 0.55760 0.81160 -0.46800
O 	O 	0.82770 0.86140 0.90740 -0.47000
O 	O 	0.14260 0.96060 0.73770 -0.59200
O 	O 	0.16190 0.52160 0.90010 -0.35700
O 	O 	0.18550 0.05440 0.77610 -0.47200
O 	O 	0.82770 0.63870 0.13800 -0.47700
O 	O 	0.90460 0.73610 0.90680 -0.58200
O 	O 	0.97220 0.80740 0.79650 -0.55200
O 	O 	0.73370 0.67730 0.08320 -0.45400
O 	O 	0.26920 0.57490 0.79700 -0.45800
O 	O 	0.91190 0.94860 0.92420 -0.48800
O 	O 	0.27570 0.47530 0.74940 -0.45100
O 	O 	0.11510 0.41330 0.92840 -0.47200
O 	O 	0.68030 0.62380 0.15420 -0.44500
O 	O 	0.22990 0.87320 0.71980 -0.42300
O 	O 	0.04950 0.54760 0.87340 -0.45400
O 	O 	0.17460 0.88870 0.81550 -0.47500
O 	O 	0.79140 0.62200 0.01370 -0.45800
O 	O 	0.85930 0.88290 0.99530 -0.59600
O 	O 	0.19720 0.49020 0.99240 -0.44100
O 	O 	0.98380 0.99330 0.85480 -0.57800
O 	O 	0.23910 0.58630 0.96210 -0.46400
O 	O 	0.21390 0.62470 0.86430 -0.47300
O 	O 	0.82150 0.99550 0.97950 -0.46300
O 	O 	0.86470 0.02580 0.81740 -0.45900
O 	O 	0.86020 0.70140 0.06270 -0.63300
O 	O 	0.08420 0.65590 0.85020 -0.64400
O 	O 	0.16530 0.11270 0.90720 -0.51900
O 	O 	0.75440 0.80440 0.07260 -0.42300
O 	O 	0.10770 0.05600 0.86270 -0.52000
O 	O 	0.88670 0.91660 0.83790 -0.46600
O 	O 	0.09190 0.44270 0.84500 -0.44300
O 	O 	0.80360 0.96400 0.88730 -0.37800
O 	O 	0.07420 0.51220 0.95990 -0.44600
O 	O 	0.04210 0.05380 0.77160 -0.41400
O 	O 	0.22420 0.96500 0.67410 -0.36400
O 	O 	0.12110 0.61560 0.93140 -0.47400
O 	O 	0.27230 0.85150 0.82490 -0.28900
O 	O 	0.98180 0.08580 0.71360 -0.29900
O 	O 	0.64730 0.78950 0.05500 -0.27800
O 	O 	0.91980 0.76880 0.97770 -0.56500
O 	O 	0.33850 0.89000 0.52880 -0.45500
O 	O 	0.25250 0.92890 0.58060 -0.34300
O 	O 	0.11080 0.44180 0.39840 -0.48500
O 	O 	0.95950 0.62410 0.31640 -0.54700
O 	O 	0.85590 0.94240 0.31160 -0.46700
O 	O 	0.17230 0.63860 0.40740 -0.47000
O 	O 	0.85740 0.53940 0.23770 -0.59200
O 	O 	0.83810 0.97840 0.40010 -0.35600
O 	O 	0.81450 0.44560 0.27610 -0.47200
O 	O 	0.17230 0.86130 0.63800 -0.47700
O 	O 	0.09540 0.76390 0.40680 -0.58200
O 	O 	0.02780 0.69260 0.29650 -0.55200
O 	O 	0.26630 0.82270 0.58320 -0.45400
O 	O 	0.73080 0.92510 0.29700 -0.45800
O 	O 	0.08810 0.55140 0.42420 -0.48900
O 	O 	0.72430 0.02470 0.24940 -0.45200
O 	O 	0.88490 0.08670 0.42840 -0.47200
O 	O 	0.31970 0.87620 0.65420 -0.44500
O 	O 	0.77010 0.62680 0.21980 -0.42300
O 	O 	0.95050 0.95240 0.37340 -0.45300
O 	O 	0.82540 0.61130 0.31550 -0.47500
O 	O 	0.20860 0.87800 0.51370 -0.45800
O 	O 	0.14070 0.61710 0.49530 -0.59600
O 	O 	0.80280 0.00980 0.49240 -0.44200
O 	O 	0.01620 0.50670 0.35480 -0.57800
O 	O 	0.76090 0.91370 0.46210 -0.46400
O 	O 	0.78610 0.87530 0.36430 -0.47300
O 	O 	0.17850 0.50450 0.47950 -0.46400
O 	O 	0.13530 0.47420 0.31740 -0.45700
O 	O 	0.13980 0.79860 0.56270 -0.63300
O 	O 	0.91580 0.84410 0.35020 -0.64300
O 	O 	0.83470 0.38730 0.40720 -0.51900
O 	O 	0.24560 0.69560 0.57260 -0.42300
O 	O 	0.89230 0.44400 0.36270 -0.52000
O 	O 	0.11330 0.58340 0.33790 -0.46600
O 	O 	0.90810 0.05730 0.34500 -0.44400
O 	O 	0.19640 0.53600 0.38730 -0.37800
O 	O 	0.92580 0.98780 0.45990 -0.44500
O 	O 	0.95790 0.44620 0.27160 -0.41400
O 	O 	0.77580 0.53500 0.17410 -0.36300
O 	O 	0.87890 0.88440 0.43140 -0.47400
O 	O 	0.72770 0.64850 0.32490 -0.28900
O 	O 	0.01820 0.41420 0.21360 -0.29700
O 	O 	0.35270 0.71050 0.55500 -0.27800
O 	O 	0.08020 0.73120 0.47770 -0.56600
O 	O 	0.83850 0.61000 0.52880 -0.45500
O 	O 	0.75250 0.57110 0.58060 -0.34200
O 	O 	0.61080 0.05820 0.39840 -0.48600
O 	O 	0.45950 0.87590 0.31640 -0.54700
O 	O 	0.35590 0.55760 0.31160 -0.46800
O 	O 	0.67230 0.86140 0.40740 -0.47000
O 	O 	0.35740 0.96060 0.23770 -0.59200
O 	O 	0.33810 0.52160 0.40010 -0.35700
O 	O 	0.31450 0.05440 0.27610 -0.47200
O 	O 	0.67230 0.63870 0.63800 -0.47700
O 	O 	0.59540 0.73610 0.40680 -0.58200
O 	O 	0.52780 0.80740 0.29650 -0.55200
O 	O 	0.76630 0.67730 0.58320 -0.45400
O 	O 	0.23080 0.57490 0.29700 -0.45800
O 	O 	0.58810 0.94860 0.42420 -0.48900
O 	O 	0.22430 0.47530 0.24940 -0.45200
O 	O 	0.38490 0.41330 0.42840 -0.47200
O 	O 	0.81970 0.62380 0.65420 -0.44500
O 	O 	0.27010 0.87320 0.21980 -0.42300
O 	O 	0.45050 0.54760 0.37340 -0.45400
O 	O 	0.32540 0.88870 0.31550 -0.47500
O 	O 	0.70860 0.62200 0.51370 -0.45800
O 	O 	0.64070 0.88290 0.49530 -0.59600
O 	O 	0.30280 0.49020 0.49240 -0.44100
O 	O 	0.51620 0.99330 0.35480 -0.57900
O 	O 	0.26090 0.58630 0.46210 -0.46400
O 	O 	0.28610 0.62470 0.36430 -0.47300
O 	O 	0.67850 0.99550 0.47950 -0.46400
O 	O 	0.63530 0.02580 0.31740 -0.45700
O 	O 	0.63980 0.70140 0.56270 -0.63300
O 	O 	0.41580 0.65590 0.35020 -0.64400
O 	O 	0.33470 0.11270 0.40720 -0.51900
O 	O 	0.74560 0.80440 0.57260 -0.42300
O 	O 	0.39230 0.05600 0.36270 -0.52000
O 	O 	0.61330 0.91660 0.33790 -0.46600
O 	O 	0.40810 0.44270 0.34500 -0.44300
O 	O 	0.69640 0.96400 0.38730 -0.37800
O 	O 	0.42580 0.51220 0.45990 -0.44600
O 	O 	0.45790 0.05380 0.27160 -0.41400
O 	O 	0.27580 0.96500 0.17410 -0.36400
O 	O 	0.37890 0.61560 0.43140 -0.47400
O 	O 	0.22770 0.85150 0.32490 -0.28900
O 	O 	0.51820 0.08580 0.21360 -0.29800
O 	O 	0.85270 0.78950 0.55500 -0.27800
O 	O 	0.58020 0.76880 0.47770 -0.56600
O 	O 	0.16150 0.89000 0.02880 -0.45500
O 	O 	0.24750 0.92890 0.08060 -0.34300
O 	O 	0.38920 0.44180 0.89840 -0.48600
O 	O 	0.54050 0.62410 0.81640 -0.54700
O 	O 	0.64410 0.94240 0.81160 -0.46800
O 	O 	0.32770 0.63860 0.90740 -0.47000
O 	O 	0.64260 0.53940 0.73770 -0.59200
O 	O 	0.66190 0.97840 0.90010 -0.35600
O 	O 	0.68550 0.44560 0.77610 -0.47200
O 	O 	0.32770 0.86130 0.13800 -0.47700
O 	O 	0.40460 0.76390 0.90680 -0.58200
O 	O 	0.47220 0.69260 0.79650 -0.55200
O 	O 	0.23370 0.82270 0.08320 -0.45400
O 	O 	0.76920 0.92510 0.79700 -0.45800
O 	O 	0.41190 0.55140 0.92420 -0.48900
O 	O 	0.77570 0.02470 0.74940 -0.45200
O 	O 	0.61510 0.08670 0.92840 -0.47200
O 	O 	0.18030 0.87620 0.15420 -0.44500
O 	O 	0.72990 0.62680 0.71980 -0.42300
O 	O 	0.54950 0.95240 0.87340 -0.45400
O 	O 	0.67460 0.61130 0.81550 -0.47500
O 	O 	0.29140 0.87800 0.01370 -0.45800
O 	O 	0.35930 0.61710 0.99530 -0.59700
O 	O 	0.69720 0.00980 0.99240 -0.44200
O 	O 	0.48380 0.50670 0.85480 -0.57900
O 	O 	0.73910 0.91370 0.96210 -0.46400
O 	O 	0.71390 0.87530 0.86430 -0.47300
O 	O 	0.32150 0.50450 0.97950 -0.46400
O 	O 	0.36470 0.47420 0.81740 -0.45700
O 	O 	0.36020 0.79860 0.06270 -0.63300
O 	O 	0.58420 0.84410 0.85020 -0.64400
O 	O 	0.66530 0.38730 0.90720 -0.51900
O 	O 	0.25440 0.69560 0.07260 -0.42300
O 	O 	0.60770 0.44400 0.86270 -0.52000
O 	O 	0.38670 0.58340 0.83790 -0.46600
O 	O 	0.59190 0.05730 0.84500 -0.44300
O 	O 	0.30360 0.53600 0.88730 -0.37800
O 	O 	0.57420 0.98780 0.95990 -0.44500
O 	O 	0.54210 0.44620 0.77160 -0.41400
O 	O 	0.72420 0.53500 0.67410 -0.36300
O 	O 	0.62110 0.88440 0.93140 -0.47400
O 	O 	0.77230 0.64850 0.82490 -0.28900
O 	O 	0.48180 0.41420 0.71360 -0.29800
O 	O 	0.14730 0.71050 0.05500 -0.27800
O 	O 	0.41980 0.73120 0.97770 -0.56600
O 	O 	0.33850 0.39000 0.97120 -0.45500
O 	O 	0.25250 0.42890 0.91940 -0.34200
O 	O 	0.11080 0.94180 0.10160 -0.48700
O 	O 	0.95950 0.12410 0.18360 -0.54900
O 	O 	0.85590 0.44240 0.18840 -0.46800
O 	O 	0.17230 0.13860 0.09260 -0.47000
O 	O 	0.85740 0.03940 0.26230 -0.59200
O 	O 	0.83810 0.47840 0.09990 -0.35700
O 	O 	0.81450 0.94560 0.22390 -0.47200
O 	O 	0.17230 0.36130 0.86200 -0.47700
O 	O 	0.09540 0.26390 0.09320 -0.58200
O 	O 	0.02780 0.19260 0.20350 -0.55200
O 	O 	0.26630 0.32270 0.91680 -0.45400
O 	O 	0.73080 0.42510 0.20300 -0.45800
O 	O 	0.08810 0.05140 0.07580 -0.48800
O 	O 	0.72430 0.52470 0.25060 -0.45100
O 	O 	0.88490 0.58670 0.07160 -0.47200
O 	O 	0.31970 0.37620 0.84580 -0.44500
O 	O 	0.77010 0.12680 0.28020 -0.42300
O 	O 	0.95050 0.45240 0.12660 -0.45400
O 	O 	0.82540 0.11130 0.18450 -0.47500
O 	O 	0.20860 0.37800 0.98630 -0.45800
O 	O 	0.14070 0.11710 0.00470 -0.59600
O 	O 	0.80280 0.50980 0.00760 -0.44100
O 	O 	0.01620 0.00670 0.14520 -0.57800
O 	O 	0.76090 0.41370 0.03790 -0.46400
O 	O 	0.78610 0.37530 0.13570 -0.47300
O 	O 	0.17850 0.00450 0.02050 -0.46300
O 	O 	0.13530 0.97420 0.18260 -0.45900
O 	O 	0.13980 0.29860 0.93730 -0.63300
O 	O 	0.91580 0.34410 0.14980 -0.64400
O 	O 	0.83470 0.88730 0.09280 -0.51900
O 	O 	0.24560 0.19560 0.92740 -0.42300
O 	O 	0.89230 0.94400 0.13730 -0.52000
O 	O 	0.11330 0.08340 0.16210 -0.46600
O 	O 	0.90810 0.55730 0.15500 -0.44300
O 	O 	0.19640 0.03600 0.11270 -0.37800
O 	O 	0.92580 0.48780 0.04010 -0.44600
O 	O 	0.95790 0.94620 0.22840 -0.41400
O 	O 	0.77580 0.03500 0.32590 -0.36400
O 	O 	0.87890 0.38440 0.06860 -0.47400
O 	O 	0.72770 0.14850 0.17510 -0.28900
O 	O 	0.01820 0.91420 0.28640 -0.29900
O 	O 	0.35270 0.21050 0.94500 -0.27800
O 	O 	0.08020 0.23120 0.02230 -0.56500
O 	O 	0.66150 0.11000 0.47120 -0.45500
O 	O 	0.74750 0.07110 0.41940 -0.34300
O 	O 	0.88920 0.55820 0.60160 -0.48500
O 	O 	0.04050 0.37590 0.68360 -0.54700
O 	O 	0.14410 0.05760 0.68840 -0.46700
O 	O 	0.82770 0.36140 0.59260 -0.47000
O 	O 	0.14260 0.46060 0.76230 -0.59200
O 	O 	0.16190 0.02160 0.59990 -0.35600
O 	O 	0.18550 0.55440 0.72390 -0.47200
O 	O 	0.82770 0.13870 0.36200 -0.47700
O 	O 	0.90460 0.23610 0.59320 -0.58200
O 	O 	0.97220 0.30740 0.70350 -0.55200
O 	O 	0.73370 0.17730 0.41680 -0.45400
O 	O 	0.26920 0.07490 0.70300 -0.45800
O 	O 	0.91190 0.44860 0.57580 -0.48900
O 	O 	0.27570 0.97530 0.75060 -0.45200
O 	O 	0.11510 0.91330 0.57160 -0.47200
O 	O 	0.68030 0.12380 0.34580 -0.44500
O 	O 	0.22990 0.37320 0.78020 -0.42300
O 	O 	0.04950 0.04760 0.62660 -0.45300
O 	O 	0.17460 0.38870 0.68450 -0.47500
O 	O 	0.79140 0.12200 0.48630 -0.45800
O 	O 	0.85930 0.38290 0.50470 -0.59600
O 	O 	0.19720 0.99020 0.50760 -0.44200
O 	O 	0.98380 0.49330 0.64520 -0.57800
O 	O 	0.23910 0.08630 0.53790 -0.46400
O 	O 	0.21390 0.12470 0.63570 -0.47300
O 	O 	0.82150 0.49550 0.52050 -0.46400
O 	O 	0.86470 0.52580 0.68260 -0.45700
O 	O 	0.86020 0.20140 0.43730 -0.63300
O 	O 	0.08420 0.15590 0.64980 -0.64300
O 	O 	0.16530 0.61270 0.59280 -0.51900
O 	O 	0.75440 0.30440 0.42740 -0.42300
O 	O 	0.10770 0.55600 0.63730 -0.52000
O 	O 	0.88670 0.41660 0.66210 -0.46600
O 	O 	0.09190 0.94270 0.65500 -0.44400
O 	O 	0.80360 0.46400 0.61270 -0.37800
O 	O 	0.07420 0.01220 0.54010 -0.44500
O 	O 	0.04210 0.55380 0.72840 -0.41400
O 	O 	0.22420 0.46500 0.82590 -0.36300
O 	O 	0.12110 0.11560 0.56860 -0.47400
O 	O 	0.27230 0.35150 0.67510 -0.28900
O 	O 	0.98180 0.58580 0.78640 -0.29700
O 	O 	0.64730 0.28950 0.44500 -0.27800
O 	O 	0.91980 0.26880 0.52230 -0.56600
