data_crystal

_cell_length_a 37.49200
_cell_length_b 37.49200
_cell_length_c 15.55700
_cell_angle_alpha 90.00000
_cell_angle_beta  90.00000
_cell_angle_gamma 90.00000

_symmetry_space_group_name_	'P 1'
_symmetry_space_group_name_H-M	'P 1'

loop_
_symmetry_equiv_pos_as_xyz
  x,y,z

loop_
_atom_site_label
_atom_site_type_symbol
_atom_site_fract_x
_atom_site_fract_y
_atom_site_fract_z
_atom_site_charge
Mn	Mn	0.14613 0.35170 0.24810 1.30600
N 	N 	0.04820 0.31770 0.34040 -0.22300
N 	N 	0.13430 0.45660 0.33850 -0.21700
N 	N 	0.19890 0.26150 0.16070 -0.22000
O 	O 	0.03410 0.35780 0.20090 -0.35100
O 	O 	0.09580 0.36480 0.18600 -0.34600
O 	O 	0.10620 0.31810 0.32460 -0.32100
O 	O 	0.17220 0.46090 0.19120 -0.42100
O 	O 	0.16960 0.39950 0.18400 -0.40000
O 	O 	0.13750 0.39310 0.33630 -0.33800
O 	O 	0.16090 0.31190 0.16660 -0.35000
O 	O 	0.19450 0.33290 0.31180 -0.35400
O 	O 	0.23330 0.28460 0.30190 -0.35700
C 	C 	0.06580 0.35480 0.22520 0.20100
C 	C 	0.07480 0.32790 0.30550 0.13000
C 	C 	0.14320 0.42640 0.30530 0.08400
C 	C 	0.15720 0.43060 0.21270 0.17600
C 	C 	0.20640 0.30040 0.27960 0.19700
C 	C 	0.18770 0.29060 0.19610 0.06900
C 	C 	0.04400 0.29560 0.42260 -0.02800
C 	C 	0.04870 0.25890 0.42060 0.12100
C 	C 	0.11300 0.45550 0.42500 -0.14600
C 	C 	0.18270 0.24780 0.07810 0.01400
C 	C 	0.15160 0.22220 0.07280 -0.01300
C 	C 	0.07980 0.45380 0.42110 0.18300
C 	C 	0.05520 0.44730 0.33350 -0.46000
H 	H 	0.07050 0.44820 0.28250 0.15000
H 	H 	0.03690 0.46600 0.32960 0.13600
H 	H 	0.04360 0.42390 0.33690 0.15200
C 	C 	0.04790 0.23790 0.33130 -0.44000
H 	H 	0.04850 0.25500 0.28370 0.14200
H 	H 	0.02610 0.22360 0.32780 0.13200
H 	H 	0.06870 0.22210 0.32760 0.15000
K 	K 	0.21560 0.42560 0.06780 0.59500
H 	H 	0.17870 0.45930 0.55820 0.11600
H 	H 	0.18050 0.47270 0.46060 0.07800
H 	H 	0.17490 0.43130 0.48120 0.11700
H 	H 	0.23240 0.29700 0.94060 0.05100
H 	H 	0.24700 0.28300 0.03120 0.06200
H 	H 	0.21620 0.31250 0.02820 0.09300
Mn	Mn	0.85387 0.64830 0.24810 1.30700
N 	N 	0.95180 0.68230 0.34040 -0.22000
N 	N 	0.86570 0.54340 0.33850 -0.21500
N 	N 	0.80110 0.73850 0.16070 -0.21900
O 	O 	0.96590 0.64220 0.20090 -0.34300
O 	O 	0.90420 0.63520 0.18600 -0.34400
O 	O 	0.89380 0.68190 0.32460 -0.32000
O 	O 	0.82780 0.53910 0.19120 -0.42000
O 	O 	0.83040 0.60050 0.18400 -0.39900
O 	O 	0.86250 0.60690 0.33630 -0.33800
O 	O 	0.83910 0.68810 0.16660 -0.34900
O 	O 	0.80550 0.66710 0.31180 -0.35400
O 	O 	0.76670 0.71540 0.30190 -0.35700
C 	C 	0.93420 0.64520 0.22520 0.20100
C 	C 	0.92520 0.67210 0.30550 0.13100
C 	C 	0.85680 0.57360 0.30530 0.08400
C 	C 	0.84280 0.56940 0.21270 0.17600
C 	C 	0.79360 0.69960 0.27960 0.19700
C 	C 	0.81230 0.70940 0.19610 0.06900
C 	C 	0.95600 0.70440 0.42260 -0.02600
C 	C 	0.95130 0.74110 0.42060 0.12600
C 	C 	0.88700 0.54450 0.42500 -0.14900
C 	C 	0.81730 0.75220 0.07810 0.01400
C 	C 	0.84840 0.77780 0.07280 -0.01100
C 	C 	0.92020 0.54620 0.42110 0.18900
C 	C 	0.94480 0.55270 0.33350 -0.46900
H 	H 	0.92950 0.55180 0.28250 0.15400
H 	H 	0.96310 0.53400 0.32960 0.14300
H 	H 	0.95640 0.57610 0.33690 0.15800
C 	C 	0.95210 0.76210 0.33130 -0.45100
H 	H 	0.95150 0.74500 0.28370 0.14800
H 	H 	0.97390 0.77640 0.32780 0.14100
H 	H 	0.93130 0.77790 0.32760 0.15400
K 	K 	0.78440 0.57440 0.06780 0.59500
H 	H 	0.82130 0.54070 0.55820 0.11600
H 	H 	0.81950 0.52730 0.46060 0.07800
H 	H 	0.82510 0.56870 0.48120 0.11700
H 	H 	0.76760 0.70300 0.94060 0.05100
H 	H 	0.75300 0.71700 0.03120 0.06200
H 	H 	0.78380 0.68750 0.02820 0.09300
Mn	Mn	0.64830 0.14613 0.24810 1.30700
N 	N 	0.68230 0.04820 0.34040 -0.22200
N 	N 	0.54340 0.13430 0.33850 -0.21600
N 	N 	0.73850 0.19890 0.16070 -0.21900
O 	O 	0.64220 0.03410 0.20090 -0.35000
O 	O 	0.63520 0.09580 0.18600 -0.34500
O 	O 	0.68190 0.10620 0.32460 -0.32000
O 	O 	0.53910 0.17220 0.19120 -0.42000
O 	O 	0.60050 0.16960 0.18400 -0.39900
O 	O 	0.60690 0.13750 0.33630 -0.33800
O 	O 	0.68810 0.16090 0.16660 -0.35000
O 	O 	0.66710 0.19450 0.31180 -0.35400
O 	O 	0.71540 0.23330 0.30190 -0.35700
C 	C 	0.64520 0.06580 0.22520 0.20100
C 	C 	0.67210 0.07480 0.30550 0.13000
C 	C 	0.57360 0.14320 0.30530 0.08400
C 	C 	0.56940 0.15720 0.21270 0.17600
C 	C 	0.69960 0.20640 0.27960 0.19700
C 	C 	0.70940 0.18770 0.19610 0.06900
C 	C 	0.70440 0.04400 0.42260 -0.02800
C 	C 	0.74110 0.04870 0.42060 0.12100
C 	C 	0.54450 0.11300 0.42500 -0.14600
C 	C 	0.75220 0.18270 0.07810 0.01400
C 	C 	0.77780 0.15160 0.07280 -0.01200
C 	C 	0.54620 0.07980 0.42110 0.18300
C 	C 	0.55270 0.05520 0.33350 -0.46000
H 	H 	0.55180 0.07050 0.28250 0.15000
H 	H 	0.53400 0.03690 0.32960 0.13600
H 	H 	0.57610 0.04360 0.33690 0.15200
C 	C 	0.76210 0.04790 0.33130 -0.44200
H 	H 	0.74500 0.04850 0.28370 0.14300
H 	H 	0.77640 0.02610 0.32780 0.13300
H 	H 	0.77790 0.06870 0.32760 0.15100
K 	K 	0.57440 0.21560 0.06780 0.59500
H 	H 	0.54070 0.17870 0.55820 0.11600
H 	H 	0.52730 0.18050 0.46060 0.07800
H 	H 	0.56870 0.17490 0.48120 0.11700
H 	H 	0.70300 0.23240 0.94060 0.05100
H 	H 	0.71700 0.24700 0.03120 0.06200
H 	H 	0.68750 0.21620 0.02820 0.09300
Mn	Mn	0.35170 0.85387 0.24810 1.30700
N 	N 	0.31770 0.95180 0.34040 -0.22000
N 	N 	0.45660 0.86570 0.33850 -0.21500
N 	N 	0.26150 0.80110 0.16070 -0.21900
O 	O 	0.35780 0.96590 0.20090 -0.34300
O 	O 	0.36480 0.90420 0.18600 -0.34400
O 	O 	0.31810 0.89380 0.32460 -0.32000
O 	O 	0.46090 0.82780 0.19120 -0.42000
O 	O 	0.39950 0.83040 0.18400 -0.39900
O 	O 	0.39310 0.86250 0.33630 -0.33800
O 	O 	0.31190 0.83910 0.16660 -0.34900
O 	O 	0.33290 0.80550 0.31180 -0.35400
O 	O 	0.28460 0.76670 0.30190 -0.35700
C 	C 	0.35480 0.93420 0.22520 0.20100
C 	C 	0.32790 0.92520 0.30550 0.13100
C 	C 	0.42640 0.85680 0.30530 0.08400
C 	C 	0.43060 0.84280 0.21270 0.17600
C 	C 	0.30040 0.79360 0.27960 0.19700
C 	C 	0.29060 0.81230 0.19610 0.06900
C 	C 	0.29560 0.95600 0.42260 -0.02600
C 	C 	0.25890 0.95130 0.42060 0.12600
C 	C 	0.45550 0.88700 0.42500 -0.14900
C 	C 	0.24780 0.81730 0.07810 0.01400
C 	C 	0.22220 0.84840 0.07280 -0.01100
C 	C 	0.45380 0.92020 0.42110 0.18900
C 	C 	0.44730 0.94480 0.33350 -0.46900
H 	H 	0.44820 0.92950 0.28250 0.15400
H 	H 	0.46600 0.96310 0.32960 0.14300
H 	H 	0.42390 0.95640 0.33690 0.15800
C 	C 	0.23790 0.95210 0.33130 -0.44900
H 	H 	0.25500 0.95150 0.28370 0.14800
H 	H 	0.22360 0.97390 0.32780 0.14000
H 	H 	0.22210 0.93130 0.32760 0.15400
K 	K 	0.42560 0.78440 0.06780 0.59500
H 	H 	0.45930 0.82130 0.55820 0.11600
H 	H 	0.47270 0.81950 0.46060 0.07800
H 	H 	0.43130 0.82510 0.48120 0.11700
H 	H 	0.29700 0.76760 0.94060 0.05100
H 	H 	0.28300 0.75300 0.03120 0.06200
H 	H 	0.31250 0.78380 0.02820 0.09300
Mn	Mn	0.85387 0.35170 0.75190 1.30500
N 	N 	0.95180 0.31770 0.65960 -0.22000
N 	N 	0.86570 0.45660 0.66150 -0.21600
N 	N 	0.80110 0.26150 0.83930 -0.21900
O 	O 	0.96590 0.35780 0.79910 -0.35500
O 	O 	0.90420 0.36480 0.81400 -0.35700
O 	O 	0.89380 0.31810 0.67540 -0.32100
O 	O 	0.82780 0.46090 0.80880 -0.43300
O 	O 	0.83040 0.39950 0.81600 -0.41100
O 	O 	0.86250 0.39310 0.66370 -0.33800
O 	O 	0.83910 0.31190 0.83340 -0.36000
O 	O 	0.80550 0.33290 0.68820 -0.35600
O 	O 	0.76670 0.28460 0.69810 -0.36000
C 	C 	0.93420 0.35480 0.77480 0.20100
C 	C 	0.92520 0.32790 0.69450 0.12900
C 	C 	0.85680 0.42640 0.69470 0.08200
C 	C 	0.84280 0.43060 0.78730 0.17300
C 	C 	0.79360 0.30040 0.72040 0.19700
C 	C 	0.81230 0.29060 0.80390 0.06700
C 	C 	0.95600 0.29560 0.57740 -0.02500
C 	C 	0.95130 0.25890 0.57940 0.12200
C 	C 	0.88700 0.45550 0.57500 -0.14800
C 	C 	0.81730 0.24780 0.92190 -0.01300
C 	C 	0.84840 0.22220 0.92720 -0.05200
C 	C 	0.92020 0.45380 0.57890 0.18700
C 	C 	0.94480 0.44730 0.66650 -0.46100
H 	H 	0.92950 0.44820 0.71750 0.14700
H 	H 	0.96310 0.46600 0.67040 0.13800
H 	H 	0.95640 0.42390 0.66310 0.15400
C 	C 	0.95210 0.23790 0.66870 -0.43800
H 	H 	0.95150 0.25500 0.71630 0.13900
H 	H 	0.97390 0.22360 0.67220 0.13300
H 	H 	0.93130 0.22210 0.67240 0.14600
K 	K 	0.78440 0.42560 0.93220 0.58100
H 	H 	0.82130 0.45930 0.44180 0.11700
H 	H 	0.81950 0.47270 0.53940 0.07800
H 	H 	0.82510 0.43130 0.51880 0.11700
H 	H 	0.76760 0.29700 0.05940 0.02900
H 	H 	0.75300 0.28300 0.96880 -0.00100
H 	H 	0.78380 0.31250 0.97180 0.01700
Mn	Mn	0.14613 0.64830 0.75190 1.30500
N 	N 	0.04820 0.68230 0.65960 -0.22300
N 	N 	0.13430 0.54340 0.66150 -0.21600
N 	N 	0.19890 0.73850 0.83930 -0.21900
O 	O 	0.03410 0.64220 0.79910 -0.36200
O 	O 	0.09580 0.63520 0.81400 -0.35900
O 	O 	0.10620 0.68190 0.67540 -0.32100
O 	O 	0.17220 0.53910 0.80880 -0.43300
O 	O 	0.16960 0.60050 0.81600 -0.41100
O 	O 	0.13750 0.60690 0.66370 -0.33800
O 	O 	0.16090 0.68810 0.83340 -0.36000
O 	O 	0.19450 0.66710 0.68820 -0.35600
O 	O 	0.23330 0.71540 0.69810 -0.36000
C 	C 	0.06580 0.64520 0.77480 0.20100
C 	C 	0.07480 0.67210 0.69450 0.12800
C 	C 	0.14320 0.57360 0.69470 0.08200
C 	C 	0.15720 0.56940 0.78730 0.17300
C 	C 	0.20640 0.69960 0.72040 0.19700
C 	C 	0.18770 0.70940 0.80390 0.06700
C 	C 	0.04400 0.70440 0.57740 -0.02700
C 	C 	0.04870 0.74110 0.57940 0.11800
C 	C 	0.11300 0.54450 0.57500 -0.14500
C 	C 	0.18270 0.75220 0.92190 -0.01300
C 	C 	0.15160 0.77780 0.92720 -0.05300
C 	C 	0.07980 0.54620 0.57890 0.18100
C 	C 	0.05520 0.55270 0.66650 -0.45200
H 	H 	0.07050 0.55180 0.71750 0.14400
H 	H 	0.03690 0.53400 0.67040 0.13200
H 	H 	0.04360 0.57610 0.66310 0.14800
C 	C 	0.04790 0.76210 0.66870 -0.43000
H 	H 	0.04850 0.74500 0.71630 0.13400
H 	H 	0.02610 0.77640 0.67220 0.12600
H 	H 	0.06870 0.77790 0.67240 0.14300
K 	K 	0.21560 0.57440 0.93220 0.58100
H 	H 	0.17870 0.54070 0.44180 0.11600
H 	H 	0.18050 0.52730 0.53940 0.07800
H 	H 	0.17490 0.56870 0.51880 0.11700
H 	H 	0.23240 0.70300 0.05940 0.02900
H 	H 	0.24700 0.71700 0.96880 -0.00100
H 	H 	0.21620 0.68750 0.97180 0.01700
Mn	Mn	0.35170 0.14613 0.75190 1.30500
N 	N 	0.31770 0.04820 0.65960 -0.22300
N 	N 	0.45660 0.13430 0.66150 -0.21600
N 	N 	0.26150 0.19890 0.83930 -0.21900
O 	O 	0.35780 0.03410 0.79910 -0.36200
O 	O 	0.36480 0.09580 0.81400 -0.35900
O 	O 	0.31810 0.10620 0.67540 -0.32100
O 	O 	0.46090 0.17220 0.80880 -0.43300
O 	O 	0.39950 0.16960 0.81600 -0.41100
O 	O 	0.39310 0.13750 0.66370 -0.33800
O 	O 	0.31190 0.16090 0.83340 -0.36000
O 	O 	0.33290 0.19450 0.68820 -0.35600
O 	O 	0.28460 0.23330 0.69810 -0.36000
C 	C 	0.35480 0.06580 0.77480 0.20100
C 	C 	0.32790 0.07480 0.69450 0.12800
C 	C 	0.42640 0.14320 0.69470 0.08200
C 	C 	0.43060 0.15720 0.78730 0.17300
C 	C 	0.30040 0.20640 0.72040 0.19700
C 	C 	0.29060 0.18770 0.80390 0.06700
C 	C 	0.29560 0.04400 0.57740 -0.02700
C 	C 	0.25890 0.04870 0.57940 0.11700
C 	C 	0.45550 0.11300 0.57500 -0.14500
C 	C 	0.24780 0.18270 0.92190 -0.01300
C 	C 	0.22220 0.15160 0.92720 -0.05400
C 	C 	0.45380 0.07980 0.57890 0.18100
C 	C 	0.44730 0.05520 0.66650 -0.45200
H 	H 	0.44820 0.07050 0.71750 0.14400
H 	H 	0.46600 0.03690 0.67040 0.13200
H 	H 	0.42390 0.04360 0.66310 0.14800
C 	C 	0.23790 0.04790 0.66870 -0.42900
H 	H 	0.25500 0.04850 0.71630 0.13400
H 	H 	0.22360 0.02610 0.67220 0.12500
H 	H 	0.22210 0.06870 0.67240 0.14200
K 	K 	0.42560 0.21560 0.93220 0.58100
H 	H 	0.45930 0.17870 0.44180 0.11600
H 	H 	0.47270 0.18050 0.53940 0.07800
H 	H 	0.43130 0.17490 0.51880 0.11700
H 	H 	0.29700 0.23240 0.05940 0.02900
H 	H 	0.28300 0.24700 0.96880 -0.00100
H 	H 	0.31250 0.21620 0.97180 0.01700
Mn	Mn	0.64830 0.85387 0.75190 1.30500
N 	N 	0.68230 0.95180 0.65960 -0.22000
N 	N 	0.54340 0.86570 0.66150 -0.21600
N 	N 	0.73850 0.80110 0.83930 -0.21900
O 	O 	0.64220 0.96590 0.79910 -0.35500
O 	O 	0.63520 0.90420 0.81400 -0.35700
O 	O 	0.68190 0.89380 0.67540 -0.32100
O 	O 	0.53910 0.82780 0.80880 -0.43300
O 	O 	0.60050 0.83040 0.81600 -0.41100
O 	O 	0.60690 0.86250 0.66370 -0.33800
O 	O 	0.68810 0.83910 0.83340 -0.36000
O 	O 	0.66710 0.80550 0.68820 -0.35600
O 	O 	0.71540 0.76670 0.69810 -0.36000
C 	C 	0.64520 0.93420 0.77480 0.20100
C 	C 	0.67210 0.92520 0.69450 0.12900
C 	C 	0.57360 0.85680 0.69470 0.08200
C 	C 	0.56940 0.84280 0.78730 0.17300
C 	C 	0.69960 0.79360 0.72040 0.19700
C 	C 	0.70940 0.81230 0.80390 0.06700
C 	C 	0.70440 0.95600 0.57740 -0.02600
C 	C 	0.74110 0.95130 0.57940 0.12300
C 	C 	0.54450 0.88700 0.57500 -0.14800
C 	C 	0.75220 0.81730 0.92190 -0.01300
C 	C 	0.77780 0.84840 0.92720 -0.05200
C 	C 	0.54620 0.92020 0.57890 0.18700
C 	C 	0.55270 0.94480 0.66650 -0.46100
H 	H 	0.55180 0.92950 0.71750 0.14700
H 	H 	0.53400 0.96310 0.67040 0.13800
H 	H 	0.57610 0.95640 0.66310 0.15400
C 	C 	0.76210 0.95210 0.66870 -0.43900
H 	H 	0.74500 0.95150 0.71630 0.14000
H 	H 	0.77640 0.97390 0.67220 0.13400
H 	H 	0.77790 0.93130 0.67240 0.14700
K 	K 	0.57440 0.78440 0.93220 0.58100
H 	H 	0.54070 0.82130 0.44180 0.11700
H 	H 	0.52730 0.81950 0.53940 0.07800
H 	H 	0.56870 0.82510 0.51880 0.11700
H 	H 	0.70300 0.76760 0.05940 0.02900
H 	H 	0.71700 0.75300 0.96880 -0.00100
H 	H 	0.68750 0.78380 0.97180 0.01700
Mn	Mn	0.85387 0.64830 0.75190 1.30500
N 	N 	0.95180 0.68230 0.65960 -0.22000
N 	N 	0.86570 0.54340 0.66150 -0.21600
N 	N 	0.80110 0.73850 0.83930 -0.21900
O 	O 	0.96590 0.64220 0.79910 -0.35500
O 	O 	0.90420 0.63520 0.81400 -0.35700
O 	O 	0.89380 0.68190 0.67540 -0.32100
O 	O 	0.82780 0.53910 0.80880 -0.43300
O 	O 	0.83040 0.60050 0.81600 -0.41100
O 	O 	0.86250 0.60690 0.66370 -0.33800
O 	O 	0.83910 0.68810 0.83340 -0.36000
O 	O 	0.80550 0.66710 0.68820 -0.35600
O 	O 	0.76670 0.71540 0.69810 -0.36000
C 	C 	0.93420 0.64520 0.77480 0.20100
C 	C 	0.92520 0.67210 0.69450 0.12900
C 	C 	0.85680 0.57360 0.69470 0.08200
C 	C 	0.84280 0.56940 0.78730 0.17300
C 	C 	0.79360 0.69960 0.72040 0.19700
C 	C 	0.81230 0.70940 0.80390 0.06700
C 	C 	0.95600 0.70440 0.57740 -0.02600
C 	C 	0.95130 0.74110 0.57940 0.12300
C 	C 	0.88700 0.54450 0.57500 -0.14800
C 	C 	0.81730 0.75220 0.92190 -0.01300
C 	C 	0.84840 0.77780 0.92720 -0.05200
C 	C 	0.92020 0.54620 0.57890 0.18700
C 	C 	0.94480 0.55270 0.66650 -0.46100
H 	H 	0.92950 0.55180 0.71750 0.14700
H 	H 	0.96310 0.53400 0.67040 0.13800
H 	H 	0.95640 0.57610 0.66310 0.15400
C 	C 	0.95210 0.76210 0.66870 -0.43900
H 	H 	0.95150 0.74500 0.71630 0.14000
H 	H 	0.97390 0.77640 0.67220 0.13400
H 	H 	0.93130 0.77790 0.67240 0.14700
K 	K 	0.78440 0.57440 0.93220 0.58100
H 	H 	0.82130 0.54070 0.44180 0.11700
H 	H 	0.81950 0.52730 0.53940 0.07800
H 	H 	0.82510 0.56870 0.51880 0.11700
H 	H 	0.76760 0.70300 0.05940 0.02900
H 	H 	0.75300 0.71700 0.96880 -0.00100
H 	H 	0.78380 0.68750 0.97180 0.01700
Mn	Mn	0.14613 0.35170 0.75190 1.30500
N 	N 	0.04820 0.31770 0.65960 -0.22300
N 	N 	0.13430 0.45660 0.66150 -0.21600
N 	N 	0.19890 0.26150 0.83930 -0.21900
O 	O 	0.03410 0.35780 0.79910 -0.36200
O 	O 	0.09580 0.36480 0.81400 -0.35900
O 	O 	0.10620 0.31810 0.67540 -0.32100
O 	O 	0.17220 0.46090 0.80880 -0.43300
O 	O 	0.16960 0.39950 0.81600 -0.41100
O 	O 	0.13750 0.39310 0.66370 -0.33800
O 	O 	0.16090 0.31190 0.83340 -0.36000
O 	O 	0.19450 0.33290 0.68820 -0.35600
O 	O 	0.23330 0.28460 0.69810 -0.36000
C 	C 	0.06580 0.35480 0.77480 0.20100
C 	C 	0.07480 0.32790 0.69450 0.12800
C 	C 	0.14320 0.42640 0.69470 0.08200
C 	C 	0.15720 0.43060 0.78730 0.17300
C 	C 	0.20640 0.30040 0.72040 0.19700
C 	C 	0.18770 0.29060 0.80390 0.06700
C 	C 	0.04400 0.29560 0.57740 -0.02700
C 	C 	0.04870 0.25890 0.57940 0.11700
C 	C 	0.11300 0.45550 0.57500 -0.14500
C 	C 	0.18270 0.24780 0.92190 -0.01300
C 	C 	0.15160 0.22220 0.92720 -0.05400
C 	C 	0.07980 0.45380 0.57890 0.18100
C 	C 	0.05520 0.44730 0.66650 -0.45200
H 	H 	0.07050 0.44820 0.71750 0.14400
H 	H 	0.03690 0.46600 0.67040 0.13200
H 	H 	0.04360 0.42390 0.66310 0.14800
C 	C 	0.04790 0.23790 0.66870 -0.42900
H 	H 	0.04850 0.25500 0.71630 0.13400
H 	H 	0.02610 0.22360 0.67220 0.12500
H 	H 	0.06870 0.22210 0.67240 0.14200
K 	K 	0.21560 0.42560 0.93220 0.58100
H 	H 	0.17870 0.45930 0.44180 0.11600
H 	H 	0.18050 0.47270 0.53940 0.07800
H 	H 	0.17490 0.43130 0.51880 0.11700
H 	H 	0.23240 0.29700 0.05940 0.02900
H 	H 	0.24700 0.28300 0.96880 -0.00100
H 	H 	0.21620 0.31250 0.97180 0.01700
Mn	Mn	0.35170 0.85387 0.75190 1.30500
N 	N 	0.31770 0.95180 0.65960 -0.22000
N 	N 	0.45660 0.86570 0.66150 -0.21600
N 	N 	0.26150 0.80110 0.83930 -0.21900
O 	O 	0.35780 0.96590 0.79910 -0.35500
O 	O 	0.36480 0.90420 0.81400 -0.35700
O 	O 	0.31810 0.89380 0.67540 -0.32100
O 	O 	0.46090 0.82780 0.80880 -0.43300
O 	O 	0.39950 0.83040 0.81600 -0.41100
O 	O 	0.39310 0.86250 0.66370 -0.33800
O 	O 	0.31190 0.83910 0.83340 -0.36000
O 	O 	0.33290 0.80550 0.68820 -0.35600
O 	O 	0.28460 0.76670 0.69810 -0.36000
C 	C 	0.35480 0.93420 0.77480 0.20100
C 	C 	0.32790 0.92520 0.69450 0.12900
C 	C 	0.42640 0.85680 0.69470 0.08200
C 	C 	0.43060 0.84280 0.78730 0.17300
C 	C 	0.30040 0.79360 0.72040 0.19700
C 	C 	0.29060 0.81230 0.80390 0.06700
C 	C 	0.29560 0.95600 0.57740 -0.02500
C 	C 	0.25890 0.95130 0.57940 0.12200
C 	C 	0.45550 0.88700 0.57500 -0.14800
C 	C 	0.24780 0.81730 0.92190 -0.01300
C 	C 	0.22220 0.84840 0.92720 -0.05200
C 	C 	0.45380 0.92020 0.57890 0.18700
C 	C 	0.44730 0.94480 0.66650 -0.46100
H 	H 	0.44820 0.92950 0.71750 0.14700
H 	H 	0.46600 0.96310 0.67040 0.13800
H 	H 	0.42390 0.95640 0.66310 0.15400
C 	C 	0.23790 0.95210 0.66870 -0.43800
H 	H 	0.25500 0.95150 0.71630 0.13900
H 	H 	0.22360 0.97390 0.67220 0.13300
H 	H 	0.22210 0.93130 0.67240 0.14600
K 	K 	0.42560 0.78440 0.93220 0.58100
H 	H 	0.45930 0.82130 0.44180 0.11700
H 	H 	0.47270 0.81950 0.53940 0.07800
H 	H 	0.43130 0.82510 0.51880 0.11700
H 	H 	0.29700 0.76760 0.05940 0.02900
H 	H 	0.28300 0.75300 0.96880 -0.00100
H 	H 	0.31250 0.78380 0.97180 0.01700
Mn	Mn	0.64830 0.14613 0.75190 1.30500
N 	N 	0.68230 0.04820 0.65960 -0.22300
N 	N 	0.54340 0.13430 0.66150 -0.21600
N 	N 	0.73850 0.19890 0.83930 -0.21900
O 	O 	0.64220 0.03410 0.79910 -0.36200
O 	O 	0.63520 0.09580 0.81400 -0.35900
O 	O 	0.68190 0.10620 0.67540 -0.32100
O 	O 	0.53910 0.17220 0.80880 -0.43300
O 	O 	0.60050 0.16960 0.81600 -0.41100
O 	O 	0.60690 0.13750 0.66370 -0.33800
O 	O 	0.68810 0.16090 0.83340 -0.36000
O 	O 	0.66710 0.19450 0.68820 -0.35600
O 	O 	0.71540 0.23330 0.69810 -0.36000
C 	C 	0.64520 0.06580 0.77480 0.20100
C 	C 	0.67210 0.07480 0.69450 0.12800
C 	C 	0.57360 0.14320 0.69470 0.08200
C 	C 	0.56940 0.15720 0.78730 0.17300
C 	C 	0.69960 0.20640 0.72040 0.19700
C 	C 	0.70940 0.18770 0.80390 0.06700
C 	C 	0.70440 0.04400 0.57740 -0.02700
C 	C 	0.74110 0.04870 0.57940 0.11800
C 	C 	0.54450 0.11300 0.57500 -0.14500
C 	C 	0.75220 0.18270 0.92190 -0.01300
C 	C 	0.77780 0.15160 0.92720 -0.05300
C 	C 	0.54620 0.07980 0.57890 0.18100
C 	C 	0.55270 0.05520 0.66650 -0.45200
H 	H 	0.55180 0.07050 0.71750 0.14400
H 	H 	0.53400 0.03690 0.67040 0.13200
H 	H 	0.57610 0.04360 0.66310 0.14800
C 	C 	0.76210 0.04790 0.66870 -0.43000
H 	H 	0.74500 0.04850 0.71630 0.13400
H 	H 	0.77640 0.02610 0.67220 0.12600
H 	H 	0.77790 0.06870 0.67240 0.14300
K 	K 	0.57440 0.21560 0.93220 0.58100
H 	H 	0.54070 0.17870 0.44180 0.11600
H 	H 	0.52730 0.18050 0.53940 0.07800
H 	H 	0.56870 0.17490 0.51880 0.11700
H 	H 	0.70300 0.23240 0.05940 0.02900
H 	H 	0.71700 0.24700 0.96880 -0.00100
H 	H 	0.68750 0.21620 0.97180 0.01700
Mn	Mn	0.14613 0.64830 0.24810 1.30700
N 	N 	0.04820 0.68230 0.34040 -0.22200
N 	N 	0.13430 0.54340 0.33850 -0.21600
N 	N 	0.19890 0.73850 0.16070 -0.21900
O 	O 	0.03410 0.64220 0.20090 -0.35000
O 	O 	0.09580 0.63520 0.18600 -0.34500
O 	O 	0.10620 0.68190 0.32460 -0.32000
O 	O 	0.17220 0.53910 0.19120 -0.42000
O 	O 	0.16960 0.60050 0.18400 -0.39900
O 	O 	0.13750 0.60690 0.33630 -0.33800
O 	O 	0.16090 0.68810 0.16660 -0.35000
O 	O 	0.19450 0.66710 0.31180 -0.35400
O 	O 	0.23330 0.71540 0.30190 -0.35700
C 	C 	0.06580 0.64520 0.22520 0.20100
C 	C 	0.07480 0.67210 0.30550 0.13000
C 	C 	0.14320 0.57360 0.30530 0.08400
C 	C 	0.15720 0.56940 0.21270 0.17600
C 	C 	0.20640 0.69960 0.27960 0.19700
C 	C 	0.18770 0.70940 0.19610 0.06900
C 	C 	0.04400 0.70440 0.42260 -0.02800
C 	C 	0.04870 0.74110 0.42060 0.12100
C 	C 	0.11300 0.54450 0.42500 -0.14600
C 	C 	0.18270 0.75220 0.07810 0.01400
C 	C 	0.15160 0.77780 0.07280 -0.01200
C 	C 	0.07980 0.54620 0.42110 0.18300
C 	C 	0.05520 0.55270 0.33350 -0.46000
H 	H 	0.07050 0.55180 0.28250 0.15000
H 	H 	0.03690 0.53400 0.32960 0.13600
H 	H 	0.04360 0.57610 0.33690 0.15200
C 	C 	0.04790 0.76210 0.33130 -0.44200
H 	H 	0.04850 0.74500 0.28370 0.14300
H 	H 	0.02610 0.77640 0.32780 0.13300
H 	H 	0.06870 0.77790 0.32760 0.15100
K 	K 	0.21560 0.57440 0.06780 0.59500
H 	H 	0.17870 0.54070 0.55820 0.11600
H 	H 	0.18050 0.52730 0.46060 0.07800
H 	H 	0.17490 0.56870 0.48120 0.11700
H 	H 	0.23240 0.70300 0.94060 0.05100
H 	H 	0.24700 0.71700 0.03120 0.06200
H 	H 	0.21620 0.68750 0.02820 0.09300
Mn	Mn	0.85387 0.35170 0.24810 1.30700
N 	N 	0.95180 0.31770 0.34040 -0.22000
N 	N 	0.86570 0.45660 0.33850 -0.21500
N 	N 	0.80110 0.26150 0.16070 -0.21900
O 	O 	0.96590 0.35780 0.20090 -0.34300
O 	O 	0.90420 0.36480 0.18600 -0.34400
O 	O 	0.89380 0.31810 0.32460 -0.32000
O 	O 	0.82780 0.46090 0.19120 -0.42000
O 	O 	0.83040 0.39950 0.18400 -0.39900
O 	O 	0.86250 0.39310 0.33630 -0.33800
O 	O 	0.83910 0.31190 0.16660 -0.34900
O 	O 	0.80550 0.33290 0.31180 -0.35400
O 	O 	0.76670 0.28460 0.30190 -0.35700
C 	C 	0.93420 0.35480 0.22520 0.20100
C 	C 	0.92520 0.32790 0.30550 0.13100
C 	C 	0.85680 0.42640 0.30530 0.08400
C 	C 	0.84280 0.43060 0.21270 0.17600
C 	C 	0.79360 0.30040 0.27960 0.19700
C 	C 	0.81230 0.29060 0.19610 0.06900
C 	C 	0.95600 0.29560 0.42260 -0.02600
C 	C 	0.95130 0.25890 0.42060 0.12600
C 	C 	0.88700 0.45550 0.42500 -0.14900
C 	C 	0.81730 0.24780 0.07810 0.01400
C 	C 	0.84840 0.22220 0.07280 -0.01100
C 	C 	0.92020 0.45380 0.42110 0.18900
C 	C 	0.94480 0.44730 0.33350 -0.46900
H 	H 	0.92950 0.44820 0.28250 0.15400
H 	H 	0.96310 0.46600 0.32960 0.14300
H 	H 	0.95640 0.42390 0.33690 0.15800
C 	C 	0.95210 0.23790 0.33130 -0.44900
H 	H 	0.95150 0.25500 0.28370 0.14800
H 	H 	0.97390 0.22360 0.32780 0.14000
H 	H 	0.93130 0.22210 0.32760 0.15400
K 	K 	0.78440 0.42560 0.06780 0.59500
H 	H 	0.82130 0.45930 0.55820 0.11600
H 	H 	0.81950 0.47270 0.46060 0.07800
H 	H 	0.82510 0.43130 0.48120 0.11700
H 	H 	0.76760 0.29700 0.94060 0.05100
H 	H 	0.75300 0.28300 0.03120 0.06200
H 	H 	0.78380 0.31250 0.02820 0.09300
Mn	Mn	0.64830 0.85387 0.24810 1.30700
N 	N 	0.68230 0.95180 0.34040 -0.22000
N 	N 	0.54340 0.86570 0.33850 -0.21500
N 	N 	0.73850 0.80110 0.16070 -0.21900
O 	O 	0.64220 0.96590 0.20090 -0.34300
O 	O 	0.63520 0.90420 0.18600 -0.34400
O 	O 	0.68190 0.89380 0.32460 -0.32000
O 	O 	0.53910 0.82780 0.19120 -0.42000
O 	O 	0.60050 0.83040 0.18400 -0.39900
O 	O 	0.60690 0.86250 0.33630 -0.33800
O 	O 	0.68810 0.83910 0.16660 -0.34900
O 	O 	0.66710 0.80550 0.31180 -0.35400
O 	O 	0.71540 0.76670 0.30190 -0.35700
C 	C 	0.64520 0.93420 0.22520 0.20100
C 	C 	0.67210 0.92520 0.30550 0.13100
C 	C 	0.57360 0.85680 0.30530 0.08400
C 	C 	0.56940 0.84280 0.21270 0.17600
C 	C 	0.69960 0.79360 0.27960 0.19700
C 	C 	0.70940 0.81230 0.19610 0.06900
C 	C 	0.70440 0.95600 0.42260 -0.02600
C 	C 	0.74110 0.95130 0.42060 0.12600
C 	C 	0.54450 0.88700 0.42500 -0.14900
C 	C 	0.75220 0.81730 0.07810 0.01400
C 	C 	0.77780 0.84840 0.07280 -0.01100
C 	C 	0.54620 0.92020 0.42110 0.18900
C 	C 	0.55270 0.94480 0.33350 -0.46900
H 	H 	0.55180 0.92950 0.28250 0.15400
H 	H 	0.53400 0.96310 0.32960 0.14300
H 	H 	0.57610 0.95640 0.33690 0.15800
C 	C 	0.76210 0.95210 0.33130 -0.45100
H 	H 	0.74500 0.95150 0.28370 0.14800
H 	H 	0.77640 0.97390 0.32780 0.14100
H 	H 	0.77790 0.93130 0.32760 0.15400
K 	K 	0.57440 0.78440 0.06780 0.59500
H 	H 	0.54070 0.82130 0.55820 0.11600
H 	H 	0.52730 0.81950 0.46060 0.07800
H 	H 	0.56870 0.82510 0.48120 0.11700
H 	H 	0.70300 0.76760 0.94060 0.05100
H 	H 	0.71700 0.75300 0.03120 0.06200
H 	H 	0.68750 0.78380 0.02820 0.09300
Mn	Mn	0.35170 0.14613 0.24810 1.30700
N 	N 	0.31770 0.04820 0.34040 -0.22200
N 	N 	0.45660 0.13430 0.33850 -0.21600
N 	N 	0.26150 0.19890 0.16070 -0.21900
O 	O 	0.35780 0.03410 0.20090 -0.35000
O 	O 	0.36480 0.09580 0.18600 -0.34500
O 	O 	0.31810 0.10620 0.32460 -0.32000
O 	O 	0.46090 0.17220 0.19120 -0.42000
O 	O 	0.39950 0.16960 0.18400 -0.39900
O 	O 	0.39310 0.13750 0.33630 -0.33800
O 	O 	0.31190 0.16090 0.16660 -0.35000
O 	O 	0.33290 0.19450 0.31180 -0.35400
O 	O 	0.28460 0.23330 0.30190 -0.35700
C 	C 	0.35480 0.06580 0.22520 0.20100
C 	C 	0.32790 0.07480 0.30550 0.13000
C 	C 	0.42640 0.14320 0.30530 0.08400
C 	C 	0.43060 0.15720 0.21270 0.17600
C 	C 	0.30040 0.20640 0.27960 0.19700
C 	C 	0.29060 0.18770 0.19610 0.06900
C 	C 	0.29560 0.04400 0.42260 -0.02800
C 	C 	0.25890 0.04870 0.42060 0.12100
C 	C 	0.45550 0.11300 0.42500 -0.14600
C 	C 	0.24780 0.18270 0.07810 0.01400
C 	C 	0.22220 0.15160 0.07280 -0.01300
C 	C 	0.45380 0.07980 0.42110 0.18300
C 	C 	0.44730 0.05520 0.33350 -0.46000
H 	H 	0.44820 0.07050 0.28250 0.15000
H 	H 	0.46600 0.03690 0.32960 0.13600
H 	H 	0.42390 0.04360 0.33690 0.15200
C 	C 	0.23790 0.04790 0.33130 -0.44000
H 	H 	0.25500 0.04850 0.28370 0.14200
H 	H 	0.22360 0.02610 0.32780 0.13200
H 	H 	0.22210 0.06870 0.32760 0.15000
K 	K 	0.42560 0.21560 0.06780 0.59500
H 	H 	0.45930 0.17870 0.55820 0.11600
H 	H 	0.47270 0.18050 0.46060 0.07800
H 	H 	0.43130 0.17490 0.48120 0.11700
H 	H 	0.29700 0.23240 0.94060 0.05100
H 	H 	0.28300 0.24700 0.03120 0.06200
H 	H 	0.31250 0.21620 0.02820 0.09300
Cu	Cu	-0.00000 0.33268 0.27403 0.86200
Cu	Cu	0.00000 0.66732 0.27403 0.86300
Cu	Cu	0.66732 -0.00000 0.27403 0.86300
Cu	Cu	0.33268 -0.00000 0.27403 0.86200
Cu	Cu	-0.00000 0.33268 0.72597 0.86000
Cu	Cu	-0.00000 0.66732 0.72597 0.86000
Cu	Cu	0.33268 -0.00000 0.72597 0.86000
Cu	Cu	0.66732 -0.00000 0.72597 0.86000
Cu	Cu	0.14659 0.50000 0.26827 0.85000
Cu	Cu	0.85341 0.50000 0.26827 0.85000
Cu	Cu	0.50000 0.14659 0.26827 0.85000
Cu	Cu	0.50000 0.85341 0.26827 0.85000
Cu	Cu	0.85341 0.50000 0.73173 0.84700
Cu	Cu	0.14659 0.50000 0.73173 0.84700
Cu	Cu	0.50000 0.14659 0.73173 0.84700
Cu	Cu	0.50000 0.85341 0.73173 0.84700
Cu	Cu	0.24088 0.24088 0.23048 0.86600
Cu	Cu	0.75912 0.75912 0.23048 0.86600
Cu	Cu	0.75912 0.24088 0.23048 0.86600
Cu	Cu	0.24088 0.75912 0.23048 0.86600
Cu	Cu	0.75912 0.24088 0.76952 0.86500
Cu	Cu	0.24088 0.75912 0.76952 0.86500
Cu	Cu	0.24088 0.24088 0.76952 0.86400
Cu	Cu	0.75912 0.75912 0.76952 0.86500
C 	C 	0.04610 0.31440 0.50000 -0.00200
C 	C 	0.04790 0.23700 0.50000 -0.17400
H 	H 	0.04690 0.21170 0.50000 0.07900
C 	C 	0.13050 0.46080 0.50000 0.24400
C 	C 	0.16940 0.45560 0.50000 -0.65300
C 	C 	0.05970 0.45280 0.50000 -0.23200
H 	H 	0.03440 0.45160 0.50000 0.09300
C 	C 	0.95390 0.68560 0.50000 0.00200
C 	C 	0.95210 0.76300 0.50000 -0.17600
H 	H 	0.95310 0.78830 0.50000 0.08300
C 	C 	0.86950 0.53920 0.50000 0.24700
C 	C 	0.83060 0.54440 0.50000 -0.65600
C 	C 	0.94030 0.54720 0.50000 -0.23700
H 	H 	0.96560 0.54840 0.50000 0.09900
C 	C 	0.68560 0.04610 0.50000 -0.00200
C 	C 	0.76300 0.04790 0.50000 -0.17500
H 	H 	0.78830 0.04690 0.50000 0.07900
C 	C 	0.53920 0.13050 0.50000 0.24400
C 	C 	0.54440 0.16940 0.50000 -0.65300
C 	C 	0.54720 0.05970 0.50000 -0.23200
H 	H 	0.54840 0.03440 0.50000 0.09300
C 	C 	0.31440 0.95390 0.50000 0.00200
C 	C 	0.23700 0.95210 0.50000 -0.17500
H 	H 	0.21170 0.95310 0.50000 0.08200
C 	C 	0.46080 0.86950 0.50000 0.24700
C 	C 	0.45560 0.83060 0.50000 -0.65700
C 	C 	0.45280 0.94030 0.50000 -0.23700
H 	H 	0.45160 0.96560 0.50000 0.09900
C 	C 	0.95390 0.31440 0.50000 0.00200
C 	C 	0.95210 0.23700 0.50000 -0.17500
H 	H 	0.95310 0.21170 0.50000 0.08200
C 	C 	0.86950 0.46080 0.50000 0.24700
C 	C 	0.83060 0.45560 0.50000 -0.65700
C 	C 	0.94030 0.45280 0.50000 -0.23700
H 	H 	0.96560 0.45160 0.50000 0.09900
C 	C 	0.04610 0.68560 0.50000 -0.00200
C 	C 	0.04790 0.76300 0.50000 -0.17500
H 	H 	0.04690 0.78830 0.50000 0.07900
C 	C 	0.13050 0.53920 0.50000 0.24400
C 	C 	0.16940 0.54440 0.50000 -0.65300
C 	C 	0.05970 0.54720 0.50000 -0.23200
H 	H 	0.03440 0.54840 0.50000 0.09300
C 	C 	0.31440 0.04610 0.50000 -0.00200
C 	C 	0.23700 0.04790 0.50000 -0.17400
H 	H 	0.21170 0.04690 0.50000 0.07900
C 	C 	0.46080 0.13050 0.50000 0.24400
C 	C 	0.45560 0.16940 0.50000 -0.65300
C 	C 	0.45280 0.05970 0.50000 -0.23200
H 	H 	0.45160 0.03440 0.50000 0.09300
C 	C 	0.68560 0.95390 0.50000 0.00200
C 	C 	0.76300 0.95210 0.50000 -0.17600
H 	H 	0.78830 0.95310 0.50000 0.08300
C 	C 	0.53920 0.86950 0.50000 0.24700
C 	C 	0.54440 0.83060 0.50000 -0.65600
C 	C 	0.54720 0.94030 0.50000 -0.23700
H 	H 	0.54840 0.96560 0.50000 0.09900
C 	C 	0.19590 0.26010 -0.00000 0.07300
C 	C 	0.22580 0.29120 -0.00000 -0.27200
C 	C 	0.13910 0.20500 -0.00000 -0.01300
H 	H 	0.12430 0.18450 -0.00000 0.03700
O 	O 	0.19000 0.38970 -0.00000 -0.41400
C 	C 	0.80410 0.73990 -0.00000 0.07300
C 	C 	0.77420 0.70880 -0.00000 -0.27200
C 	C 	0.86090 0.79500 -0.00000 -0.01400
H 	H 	0.87570 0.81550 -0.00000 0.03900
O 	O 	0.81000 0.61030 -0.00000 -0.41300
C 	C 	0.73990 0.19590 -0.00000 0.07300
C 	C 	0.70880 0.22580 -0.00000 -0.27200
C 	C 	0.79500 0.13910 -0.00000 -0.01400
H 	H 	0.81550 0.12430 -0.00000 0.03800
O 	O 	0.61030 0.19000 -0.00000 -0.41400
C 	C 	0.26010 0.80410 -0.00000 0.07300
C 	C 	0.29120 0.77420 -0.00000 -0.27300
C 	C 	0.20500 0.86090 -0.00000 -0.01400
H 	H 	0.18450 0.87570 -0.00000 0.03800
O 	O 	0.38970 0.81000 -0.00000 -0.41300
C 	C 	0.80410 0.26010 -0.00000 0.07300
C 	C 	0.77420 0.29120 -0.00000 -0.27300
C 	C 	0.86090 0.20500 -0.00000 -0.01400
H 	H 	0.87570 0.18450 -0.00000 0.03800
O 	O 	0.81000 0.38970 -0.00000 -0.41300
C 	C 	0.19590 0.73990 -0.00000 0.07300
C 	C 	0.22580 0.70880 -0.00000 -0.27200
C 	C 	0.13910 0.79500 -0.00000 -0.01400
H 	H 	0.12430 0.81550 -0.00000 0.03800
O 	O 	0.19000 0.61030 -0.00000 -0.41400
C 	C 	0.26010 0.19590 -0.00000 0.07300
C 	C 	0.29120 0.22580 -0.00000 -0.27200
C 	C 	0.20500 0.13910 -0.00000 -0.01300
H 	H 	0.18450 0.12430 -0.00000 0.03700
O 	O 	0.38970 0.19000 -0.00000 -0.41400
C 	C 	0.73990 0.80410 -0.00000 0.07300
C 	C 	0.70880 0.77420 -0.00000 -0.27200
C 	C 	0.79500 0.86090 -0.00000 -0.01400
H 	H 	0.81550 0.87570 -0.00000 0.03900
O 	O 	0.61030 0.81000 -0.00000 -0.41300
