data_crystal

_cell_length_a 36.71000
_cell_length_b 36.71000
_cell_length_c 15.41400
_cell_angle_alpha 90.00000
_cell_angle_beta  90.00000
_cell_angle_gamma 90.00000

_symmetry_space_group_name_	'P 1'
_symmetry_space_group_name_H-M	'P 1'

loop_
_symmetry_equiv_pos_as_xyz
  x,y,z

loop_
_atom_site_label
_atom_site_type_symbol
_atom_site_fract_x
_atom_site_fract_y
_atom_site_fract_z
_atom_site_charge
Mn	Mn	0.14392 0.35117 0.25000 1.32700
N 	N 	0.05450 0.31810 0.33840 -0.18900
N 	N 	0.13340 0.46360 0.33730 -0.23000
N 	N 	0.19060 0.26220 0.17070 -0.17300
O 	O 	0.03300 0.35790 0.20270 -0.38900
O 	O 	0.09740 0.36290 0.19310 -0.40700
O 	O 	0.11020 0.31830 0.32300 -0.41400
O 	O 	0.17620 0.46100 0.18280 -0.26900
O 	O 	0.17110 0.39510 0.18100 -0.27900
O 	O 	0.13660 0.39150 0.34310 -0.31400
O 	O 	0.16010 0.31470 0.16560 -0.39600
O 	O 	0.19200 0.33900 0.30630 -0.38000
O 	O 	0.23660 0.28630 0.30080 -0.36600
C 	C 	0.06410 0.35650 0.22600 0.25600
C 	C 	0.07760 0.32160 0.28470 0.06000
C 	C 	0.14270 0.42850 0.30230 0.03400
C 	C 	0.15710 0.43290 0.20540 0.13100
C 	C 	0.20780 0.30400 0.31200 0.22900
C 	C 	0.19040 0.29050 0.22100 -0.14500
C 	C 	0.05070 0.29370 0.42190 -0.08000
C 	C 	0.04660 0.25850 0.41580 0.11300
C 	C 	0.11100 0.45920 0.42130 -0.11900
C 	C 	0.18940 0.24890 0.07710 -0.13500
C 	C 	0.16030 0.22020 0.08060 0.13800
C 	C 	0.07810 0.45420 0.39950 0.19100
C 	C 	0.05690 0.44980 0.31800 -0.55000
H 	H 	0.07330 0.45170 0.26830 0.17800
H 	H 	0.03840 0.46890 0.31480 0.16100
H 	H 	0.04510 0.42580 0.31800 0.17200
C 	C 	0.04760 0.23980 0.32280 -0.41700
H 	H 	0.05570 0.25760 0.27960 0.11100
H 	H 	0.02310 0.23120 0.30770 0.10700
H 	H 	0.06450 0.21920 0.32380 0.11600
C 	C 	0.13420 0.20660 0.14090 -0.46100
H 	H 	0.14340 0.20970 0.20010 0.10000
H 	H 	0.13000 0.18060 0.12980 0.13600
H 	H 	0.11130 0.22000 0.13430 0.13000
Li	Li	0.14400 0.27980 0.25060 0.53700
H 	H 	0.18020 0.44290 0.55870 0.11800
H 	H 	0.18210 0.47170 0.48100 0.11500
H 	H 	0.17930 0.42910 0.46030 0.14700
H 	H 	0.23210 0.30660 0.94010 0.14100
H 	H 	0.25040 0.29170 0.02740 0.14800
H 	H 	0.21660 0.31910 0.03250 0.17600
H 	H 	0.03380 0.36440 0.55990 0.08300
H 	H 	0.01200 0.35880 0.47090 0.01100
H 	H 	0.05420 0.36960 0.46910 0.09400
Mn	Mn	0.85608 0.64883 0.25000 1.32700
N 	N 	0.94550 0.68190 0.33840 -0.18000
N 	N 	0.86660 0.53640 0.33730 -0.22900
N 	N 	0.80940 0.73780 0.17070 -0.17200
O 	O 	0.96700 0.64210 0.20270 -0.38100
O 	O 	0.90260 0.63710 0.19310 -0.40500
O 	O 	0.88980 0.68170 0.32300 -0.41300
O 	O 	0.82380 0.53900 0.18280 -0.26800
O 	O 	0.82890 0.60490 0.18100 -0.27800
O 	O 	0.86340 0.60850 0.34310 -0.31500
O 	O 	0.83990 0.68530 0.16560 -0.39500
O 	O 	0.80800 0.66100 0.30630 -0.37900
O 	O 	0.76340 0.71370 0.30080 -0.36500
C 	C 	0.93590 0.64350 0.22600 0.25500
C 	C 	0.92240 0.67840 0.28470 0.05800
C 	C 	0.85730 0.57150 0.30230 0.03500
C 	C 	0.84290 0.56710 0.20540 0.13300
C 	C 	0.79220 0.69600 0.31200 0.22900
C 	C 	0.80960 0.70950 0.22100 -0.14400
C 	C 	0.94930 0.70630 0.42190 -0.14600
C 	C 	0.95340 0.74150 0.41580 0.16100
C 	C 	0.88900 0.54080 0.42130 -0.11900
C 	C 	0.81060 0.75110 0.07710 -0.13500
C 	C 	0.83970 0.77980 0.08060 0.14000
C 	C 	0.92190 0.54580 0.39950 0.19300
C 	C 	0.94310 0.55020 0.31800 -0.55500
H 	H 	0.92670 0.54830 0.26830 0.18200
H 	H 	0.96160 0.53110 0.31480 0.16700
H 	H 	0.95490 0.57420 0.31800 0.17500
C 	C 	0.95240 0.76020 0.32280 -0.46000
H 	H 	0.94430 0.74240 0.27960 0.12700
H 	H 	0.97690 0.76880 0.30770 0.12900
H 	H 	0.93550 0.78080 0.32380 0.13000
C 	C 	0.86580 0.79340 0.14090 -0.46500
H 	H 	0.85660 0.79030 0.20010 0.10200
H 	H 	0.87000 0.81940 0.12980 0.13900
H 	H 	0.88870 0.78000 0.13430 0.13200
Li	Li	0.85600 0.72020 0.25060 0.53700
H 	H 	0.81980 0.55710 0.55870 0.11800
H 	H 	0.81790 0.52830 0.48100 0.11400
H 	H 	0.82070 0.57090 0.46030 0.14600
H 	H 	0.76790 0.69340 0.94010 0.14100
H 	H 	0.74960 0.70830 0.02740 0.14800
H 	H 	0.78340 0.68090 0.03250 0.17600
H 	H 	0.96620 0.63560 0.55990 0.15700
H 	H 	0.98800 0.64120 0.47090 0.18100
H 	H 	0.94580 0.63040 0.46910 0.18800
Mn	Mn	0.64883 0.14392 0.25000 1.32800
N 	N 	0.68190 0.05450 0.33840 -0.18800
N 	N 	0.53640 0.13340 0.33730 -0.22900
N 	N 	0.73780 0.19060 0.17070 -0.17200
O 	O 	0.64210 0.03300 0.20270 -0.38800
O 	O 	0.63710 0.09740 0.19310 -0.40600
O 	O 	0.68170 0.11020 0.32300 -0.41300
O 	O 	0.53900 0.17620 0.18280 -0.26800
O 	O 	0.60490 0.17110 0.18100 -0.27800
O 	O 	0.60850 0.13660 0.34310 -0.31300
O 	O 	0.68530 0.16010 0.16560 -0.39500
O 	O 	0.66100 0.19200 0.30630 -0.37900
O 	O 	0.71370 0.23660 0.30080 -0.36500
C 	C 	0.64350 0.06410 0.22600 0.25700
C 	C 	0.67840 0.07760 0.28470 0.06100
C 	C 	0.57150 0.14270 0.30230 0.03500
C 	C 	0.56710 0.15710 0.20540 0.13200
C 	C 	0.69600 0.20780 0.31200 0.23000
C 	C 	0.70950 0.19040 0.22100 -0.14400
C 	C 	0.70630 0.05070 0.42190 -0.07900
C 	C 	0.74150 0.04660 0.41580 0.11400
C 	C 	0.54080 0.11100 0.42130 -0.11800
C 	C 	0.75110 0.18940 0.07710 -0.13400
C 	C 	0.77980 0.16030 0.08060 0.13900
C 	C 	0.54580 0.07810 0.39950 0.19200
C 	C 	0.55020 0.05690 0.31800 -0.54900
H 	H 	0.54830 0.07330 0.26830 0.17900
H 	H 	0.53110 0.03840 0.31480 0.16200
H 	H 	0.57420 0.04510 0.31800 0.17300
C 	C 	0.76020 0.04760 0.32280 -0.41700
H 	H 	0.74240 0.05570 0.27960 0.11200
H 	H 	0.76880 0.02310 0.30770 0.10900
H 	H 	0.78080 0.06450 0.32380 0.11700
C 	C 	0.79340 0.13420 0.14090 -0.46200
H 	H 	0.79030 0.14340 0.20010 0.10100
H 	H 	0.81940 0.13000 0.12980 0.13700
H 	H 	0.78000 0.11130 0.13430 0.13000
Li	Li	0.72020 0.14400 0.25060 0.53700
H 	H 	0.55710 0.18020 0.55870 0.11800
H 	H 	0.52830 0.18210 0.48100 0.11400
H 	H 	0.57090 0.17930 0.46030 0.14700
H 	H 	0.69340 0.23210 0.94010 0.14100
H 	H 	0.70830 0.25040 0.02740 0.14800
H 	H 	0.68090 0.21660 0.03250 0.17600
H 	H 	0.63560 0.03380 0.55990 0.08300
H 	H 	0.64120 0.01200 0.47090 0.01100
H 	H 	0.63040 0.05420 0.46910 0.09400
Mn	Mn	0.35117 0.85608 0.25000 1.32700
N 	N 	0.31810 0.94550 0.33840 -0.18000
N 	N 	0.46360 0.86660 0.33730 -0.22900
N 	N 	0.26220 0.80940 0.17070 -0.17200
O 	O 	0.35790 0.96700 0.20270 -0.38100
O 	O 	0.36290 0.90260 0.19310 -0.40500
O 	O 	0.31830 0.88980 0.32300 -0.41300
O 	O 	0.46100 0.82380 0.18280 -0.26800
O 	O 	0.39510 0.82890 0.18100 -0.27800
O 	O 	0.39150 0.86340 0.34310 -0.31500
O 	O 	0.31470 0.83990 0.16560 -0.39500
O 	O 	0.33900 0.80800 0.30630 -0.37900
O 	O 	0.28630 0.76340 0.30080 -0.36500
C 	C 	0.35650 0.93590 0.22600 0.25500
C 	C 	0.32160 0.92240 0.28470 0.05800
C 	C 	0.42850 0.85730 0.30230 0.03500
C 	C 	0.43290 0.84290 0.20540 0.13300
C 	C 	0.30400 0.79220 0.31200 0.23000
C 	C 	0.29050 0.80960 0.22100 -0.14400
C 	C 	0.29370 0.94930 0.42190 -0.14500
C 	C 	0.25850 0.95340 0.41580 0.16000
C 	C 	0.45920 0.88900 0.42130 -0.11900
C 	C 	0.24890 0.81060 0.07710 -0.13500
C 	C 	0.22020 0.83970 0.08060 0.14000
C 	C 	0.45420 0.92190 0.39950 0.19300
C 	C 	0.44980 0.94310 0.31800 -0.55500
H 	H 	0.45170 0.92670 0.26830 0.18200
H 	H 	0.46890 0.96160 0.31480 0.16800
H 	H 	0.42580 0.95490 0.31800 0.17500
C 	C 	0.23980 0.95240 0.32280 -0.45900
H 	H 	0.25760 0.94430 0.27960 0.12700
H 	H 	0.23120 0.97690 0.30770 0.12800
H 	H 	0.21920 0.93550 0.32380 0.12900
C 	C 	0.20660 0.86580 0.14090 -0.46400
H 	H 	0.20970 0.85660 0.20010 0.10100
H 	H 	0.18060 0.87000 0.12980 0.13800
H 	H 	0.22000 0.88870 0.13430 0.13200
Li	Li	0.27980 0.85600 0.25060 0.53700
H 	H 	0.44290 0.81980 0.55870 0.11800
H 	H 	0.47170 0.81790 0.48100 0.11400
H 	H 	0.42910 0.82070 0.46030 0.14600
H 	H 	0.30660 0.76790 0.94010 0.14100
H 	H 	0.29170 0.74960 0.02740 0.14800
H 	H 	0.31910 0.78340 0.03250 0.17600
H 	H 	0.36440 0.96620 0.55990 0.15700
H 	H 	0.35880 0.98800 0.47090 0.18100
H 	H 	0.36960 0.94580 0.46910 0.18800
Mn	Mn	0.85608 0.35117 0.75000 1.32700
N 	N 	0.94550 0.31810 0.66160 -0.18000
N 	N 	0.86660 0.46360 0.66270 -0.23000
N 	N 	0.80940 0.26220 0.82930 -0.17000
O 	O 	0.96700 0.35790 0.79730 -0.39200
O 	O 	0.90260 0.36290 0.80690 -0.41500
O 	O 	0.88980 0.31830 0.67700 -0.41300
O 	O 	0.82380 0.46100 0.81720 -0.28100
O 	O 	0.82890 0.39510 0.81900 -0.28900
O 	O 	0.86340 0.39150 0.65690 -0.31500
O 	O 	0.83990 0.31470 0.83440 -0.40500
O 	O 	0.80800 0.33900 0.69370 -0.38100
O 	O 	0.76340 0.28630 0.69920 -0.36700
C 	C 	0.93590 0.35650 0.77400 0.25500
C 	C 	0.92240 0.32160 0.71530 0.05500
C 	C 	0.85730 0.42850 0.69770 0.03400
C 	C 	0.84290 0.43290 0.79460 0.12800
C 	C 	0.79220 0.30400 0.68800 0.23000
C 	C 	0.80960 0.29050 0.77900 -0.14600
C 	C 	0.94930 0.29370 0.57810 -0.14500
C 	C 	0.95340 0.25850 0.58420 0.15800
C 	C 	0.88900 0.45920 0.57870 -0.11800
C 	C 	0.81060 0.24890 0.92290 -0.15800
C 	C 	0.83970 0.22020 0.91940 0.10200
C 	C 	0.92190 0.45420 0.60050 0.19000
C 	C 	0.94310 0.44980 0.68200 -0.54600
H 	H 	0.92670 0.45170 0.73170 0.17400
H 	H 	0.96160 0.46890 0.68520 0.16200
H 	H 	0.95490 0.42580 0.68200 0.17000
C 	C 	0.95240 0.23980 0.67720 -0.45100
H 	H 	0.94430 0.25760 0.72040 0.12100
H 	H 	0.97690 0.23120 0.69230 0.12300
H 	H 	0.93550 0.21920 0.67620 0.12500
C 	C 	0.86580 0.20660 0.85910 -0.42100
H 	H 	0.85660 0.20970 0.79990 0.08900
H 	H 	0.87000 0.18060 0.87020 0.11500
H 	H 	0.88870 0.22000 0.86570 0.10900
Li	Li	0.85600 0.27980 0.74940 0.53700
H 	H 	0.81980 0.44290 0.44130 0.11900
H 	H 	0.81790 0.47170 0.51900 0.11400
H 	H 	0.82070 0.42910 0.53970 0.14600
H 	H 	0.76790 0.30660 0.05990 0.12000
H 	H 	0.74960 0.29170 0.97260 0.07700
H 	H 	0.78340 0.31910 0.96750 0.11700
H 	H 	0.96620 0.36440 0.44010 0.15700
H 	H 	0.98800 0.35880 0.52910 0.18100
H 	H 	0.94580 0.36960 0.53090 0.18800
Mn	Mn	0.14392 0.64883 0.75000 1.32700
N 	N 	0.05450 0.68190 0.66160 -0.18800
N 	N 	0.13340 0.53640 0.66270 -0.23000
N 	N 	0.19060 0.73780 0.82930 -0.17000
O 	O 	0.03300 0.64210 0.79730 -0.39900
O 	O 	0.09740 0.63710 0.80690 -0.41700
O 	O 	0.11020 0.68170 0.67700 -0.41300
O 	O 	0.17620 0.53900 0.81720 -0.28100
O 	O 	0.17110 0.60490 0.81900 -0.28900
O 	O 	0.13660 0.60850 0.65690 -0.31300
O 	O 	0.16010 0.68530 0.83440 -0.40500
O 	O 	0.19200 0.66100 0.69370 -0.38100
O 	O 	0.23660 0.71370 0.69920 -0.36700
C 	C 	0.06410 0.64350 0.77400 0.25700
C 	C 	0.07760 0.67840 0.71530 0.05700
C 	C 	0.14270 0.57150 0.69770 0.03400
C 	C 	0.15710 0.56710 0.79460 0.12800
C 	C 	0.20780 0.69600 0.68800 0.23000
C 	C 	0.19040 0.70950 0.77900 -0.14600
C 	C 	0.05070 0.70630 0.57810 -0.07900
C 	C 	0.04660 0.74150 0.58420 0.11200
C 	C 	0.11100 0.54080 0.57870 -0.11700
C 	C 	0.18940 0.75110 0.92290 -0.15800
C 	C 	0.16030 0.77980 0.91940 0.10100
C 	C 	0.07810 0.54580 0.60050 0.18900
C 	C 	0.05690 0.55020 0.68200 -0.54000
H 	H 	0.07330 0.54830 0.73170 0.17200
H 	H 	0.03840 0.53110 0.68520 0.15700
H 	H 	0.04510 0.57420 0.68200 0.16900
C 	C 	0.04760 0.76020 0.67720 -0.40900
H 	H 	0.05570 0.74240 0.72040 0.10600
H 	H 	0.02310 0.76880 0.69230 0.10300
H 	H 	0.06450 0.78080 0.67620 0.11200
C 	C 	0.13420 0.79340 0.85910 -0.42000
H 	H 	0.14340 0.79030 0.79990 0.08900
H 	H 	0.13000 0.81940 0.87020 0.11400
H 	H 	0.11130 0.78000 0.86570 0.10700
Li	Li	0.14400 0.72020 0.74940 0.53700
H 	H 	0.18020 0.55710 0.44130 0.11900
H 	H 	0.18210 0.52830 0.51900 0.11400
H 	H 	0.17930 0.57090 0.53970 0.14700
H 	H 	0.23210 0.69340 0.05990 0.12000
H 	H 	0.25040 0.70830 0.97260 0.07700
H 	H 	0.21660 0.68090 0.96750 0.11700
H 	H 	0.03380 0.63560 0.44010 0.08300
H 	H 	0.01200 0.64120 0.52910 0.01100
H 	H 	0.05420 0.63040 0.53090 0.09400
Mn	Mn	0.35117 0.14392 0.75000 1.32700
N 	N 	0.31810 0.05450 0.66160 -0.18800
N 	N 	0.46360 0.13340 0.66270 -0.23000
N 	N 	0.26220 0.19060 0.82930 -0.17000
O 	O 	0.35790 0.03300 0.79730 -0.39900
O 	O 	0.36290 0.09740 0.80690 -0.41700
O 	O 	0.31830 0.11020 0.67700 -0.41300
O 	O 	0.46100 0.17620 0.81720 -0.28100
O 	O 	0.39510 0.17110 0.81900 -0.28900
O 	O 	0.39150 0.13660 0.65690 -0.31300
O 	O 	0.31470 0.16010 0.83440 -0.40500
O 	O 	0.33900 0.19200 0.69370 -0.38100
O 	O 	0.28630 0.23660 0.69920 -0.36700
C 	C 	0.35650 0.06410 0.77400 0.25800
C 	C 	0.32160 0.07760 0.71530 0.05700
C 	C 	0.42850 0.14270 0.69770 0.03500
C 	C 	0.43290 0.15710 0.79460 0.12800
C 	C 	0.30400 0.20780 0.68800 0.23000
C 	C 	0.29050 0.19040 0.77900 -0.14600
C 	C 	0.29370 0.05070 0.57810 -0.07800
C 	C 	0.25850 0.04660 0.58420 0.11100
C 	C 	0.45920 0.11100 0.57870 -0.11700
C 	C 	0.24890 0.18940 0.92290 -0.15800
C 	C 	0.22020 0.16030 0.91940 0.10100
C 	C 	0.45420 0.07810 0.60050 0.18900
C 	C 	0.44980 0.05690 0.68200 -0.54000
H 	H 	0.45170 0.07330 0.73170 0.17200
H 	H 	0.46890 0.03840 0.68520 0.15700
H 	H 	0.42580 0.04510 0.68200 0.16900
C 	C 	0.23980 0.04760 0.67720 -0.40800
H 	H 	0.25760 0.05570 0.72040 0.10600
H 	H 	0.23120 0.02310 0.69230 0.10300
H 	H 	0.21920 0.06450 0.67620 0.11100
C 	C 	0.20660 0.13420 0.85910 -0.41800
H 	H 	0.20970 0.14340 0.79990 0.08800
H 	H 	0.18060 0.13000 0.87020 0.11300
H 	H 	0.22000 0.11130 0.86570 0.10700
Li	Li	0.27980 0.14400 0.74940 0.53700
H 	H 	0.44290 0.18020 0.44130 0.11900
H 	H 	0.47170 0.18210 0.51900 0.11400
H 	H 	0.42910 0.17930 0.53970 0.14700
H 	H 	0.30660 0.23210 0.05990 0.12000
H 	H 	0.29170 0.25040 0.97260 0.07700
H 	H 	0.31910 0.21660 0.96750 0.11700
H 	H 	0.36440 0.03380 0.44010 0.08300
H 	H 	0.35880 0.01200 0.52910 0.01100
H 	H 	0.36960 0.05420 0.53090 0.09400
Mn	Mn	0.64883 0.85608 0.75000 1.32700
N 	N 	0.68190 0.94550 0.66160 -0.18000
N 	N 	0.53640 0.86660 0.66270 -0.23000
N 	N 	0.73780 0.80940 0.82930 -0.17000
O 	O 	0.64210 0.96700 0.79730 -0.39200
O 	O 	0.63710 0.90260 0.80690 -0.41500
O 	O 	0.68170 0.88980 0.67700 -0.41300
O 	O 	0.53900 0.82380 0.81720 -0.28100
O 	O 	0.60490 0.82890 0.81900 -0.28900
O 	O 	0.60850 0.86340 0.65690 -0.31500
O 	O 	0.68530 0.83990 0.83440 -0.40500
O 	O 	0.66100 0.80800 0.69370 -0.38100
O 	O 	0.71370 0.76340 0.69920 -0.36800
C 	C 	0.64350 0.93590 0.77400 0.25500
C 	C 	0.67840 0.92240 0.71530 0.05500
C 	C 	0.57150 0.85730 0.69770 0.03400
C 	C 	0.56710 0.84290 0.79460 0.12800
C 	C 	0.69600 0.79220 0.68800 0.23000
C 	C 	0.70950 0.80960 0.77900 -0.14600
C 	C 	0.70630 0.94930 0.57810 -0.14500
C 	C 	0.74150 0.95340 0.58420 0.15900
C 	C 	0.54080 0.88900 0.57870 -0.11800
C 	C 	0.75110 0.81060 0.92290 -0.15900
C 	C 	0.77980 0.83970 0.91940 0.10200
C 	C 	0.54580 0.92190 0.60050 0.19000
C 	C 	0.55020 0.94310 0.68200 -0.54600
H 	H 	0.54830 0.92670 0.73170 0.17400
H 	H 	0.53110 0.96160 0.68520 0.16200
H 	H 	0.57420 0.95490 0.68200 0.17000
C 	C 	0.76020 0.95240 0.67720 -0.45200
H 	H 	0.74240 0.94430 0.72040 0.12200
H 	H 	0.76880 0.97690 0.69230 0.12300
H 	H 	0.78080 0.93550 0.67620 0.12500
C 	C 	0.79340 0.86580 0.85910 -0.42200
H 	H 	0.79030 0.85660 0.79990 0.09000
H 	H 	0.81940 0.87000 0.87020 0.11600
H 	H 	0.78000 0.88870 0.86570 0.10900
Li	Li	0.72020 0.85600 0.74940 0.53700
H 	H 	0.55710 0.81980 0.44130 0.11900
H 	H 	0.52830 0.81790 0.51900 0.11400
H 	H 	0.57090 0.82070 0.53970 0.14600
H 	H 	0.69340 0.76790 0.05990 0.12000
H 	H 	0.70830 0.74960 0.97260 0.07700
H 	H 	0.68090 0.78340 0.96750 0.11700
H 	H 	0.63560 0.96620 0.44010 0.15700
H 	H 	0.64120 0.98800 0.52910 0.18100
H 	H 	0.63040 0.94580 0.53090 0.18800
Mn	Mn	0.85608 0.64883 0.75000 1.32700
N 	N 	0.94550 0.68190 0.66160 -0.18000
N 	N 	0.86660 0.53640 0.66270 -0.23000
N 	N 	0.80940 0.73780 0.82930 -0.17000
O 	O 	0.96700 0.64210 0.79730 -0.39200
O 	O 	0.90260 0.63710 0.80690 -0.41500
O 	O 	0.88980 0.68170 0.67700 -0.41300
O 	O 	0.82380 0.53900 0.81720 -0.28100
O 	O 	0.82890 0.60490 0.81900 -0.28900
O 	O 	0.86340 0.60850 0.65690 -0.31500
O 	O 	0.83990 0.68530 0.83440 -0.40500
O 	O 	0.80800 0.66100 0.69370 -0.38100
O 	O 	0.76340 0.71370 0.69920 -0.36800
C 	C 	0.93590 0.64350 0.77400 0.25500
C 	C 	0.92240 0.67840 0.71530 0.05500
C 	C 	0.85730 0.57150 0.69770 0.03400
C 	C 	0.84290 0.56710 0.79460 0.12800
C 	C 	0.79220 0.69600 0.68800 0.23000
C 	C 	0.80960 0.70950 0.77900 -0.14600
C 	C 	0.94930 0.70630 0.57810 -0.14500
C 	C 	0.95340 0.74150 0.58420 0.15900
C 	C 	0.88900 0.54080 0.57870 -0.11800
C 	C 	0.81060 0.75110 0.92290 -0.15900
C 	C 	0.83970 0.77980 0.91940 0.10200
C 	C 	0.92190 0.54580 0.60050 0.19000
C 	C 	0.94310 0.55020 0.68200 -0.54600
H 	H 	0.92670 0.54830 0.73170 0.17400
H 	H 	0.96160 0.53110 0.68520 0.16200
H 	H 	0.95490 0.57420 0.68200 0.17000
C 	C 	0.95240 0.76020 0.67720 -0.45200
H 	H 	0.94430 0.74240 0.72040 0.12200
H 	H 	0.97690 0.76880 0.69230 0.12300
H 	H 	0.93550 0.78080 0.67620 0.12500
C 	C 	0.86580 0.79340 0.85910 -0.42200
H 	H 	0.85660 0.79030 0.79990 0.09000
H 	H 	0.87000 0.81940 0.87020 0.11600
H 	H 	0.88870 0.78000 0.86570 0.10900
Li	Li	0.85600 0.72020 0.74940 0.53700
H 	H 	0.81980 0.55710 0.44130 0.11900
H 	H 	0.81790 0.52830 0.51900 0.11400
H 	H 	0.82070 0.57090 0.53970 0.14600
H 	H 	0.76790 0.69340 0.05990 0.12000
H 	H 	0.74960 0.70830 0.97260 0.07700
H 	H 	0.78340 0.68090 0.96750 0.11700
H 	H 	0.96620 0.63560 0.44010 0.15700
H 	H 	0.98800 0.64120 0.52910 0.18100
H 	H 	0.94580 0.63040 0.53090 0.18800
Mn	Mn	0.14392 0.35117 0.75000 1.32700
N 	N 	0.05450 0.31810 0.66160 -0.18800
N 	N 	0.13340 0.46360 0.66270 -0.23000
N 	N 	0.19060 0.26220 0.82930 -0.17000
O 	O 	0.03300 0.35790 0.79730 -0.39900
O 	O 	0.09740 0.36290 0.80690 -0.41700
O 	O 	0.11020 0.31830 0.67700 -0.41300
O 	O 	0.17620 0.46100 0.81720 -0.28100
O 	O 	0.17110 0.39510 0.81900 -0.28900
O 	O 	0.13660 0.39150 0.65690 -0.31300
O 	O 	0.16010 0.31470 0.83440 -0.40500
O 	O 	0.19200 0.33900 0.69370 -0.38100
O 	O 	0.23660 0.28630 0.69920 -0.36700
C 	C 	0.06410 0.35650 0.77400 0.25800
C 	C 	0.07760 0.32160 0.71530 0.05700
C 	C 	0.14270 0.42850 0.69770 0.03500
C 	C 	0.15710 0.43290 0.79460 0.12800
C 	C 	0.20780 0.30400 0.68800 0.23000
C 	C 	0.19040 0.29050 0.77900 -0.14600
C 	C 	0.05070 0.29370 0.57810 -0.07800
C 	C 	0.04660 0.25850 0.58420 0.11100
C 	C 	0.11100 0.45920 0.57870 -0.11700
C 	C 	0.18940 0.24890 0.92290 -0.15800
C 	C 	0.16030 0.22020 0.91940 0.10100
C 	C 	0.07810 0.45420 0.60050 0.18900
C 	C 	0.05690 0.44980 0.68200 -0.54000
H 	H 	0.07330 0.45170 0.73170 0.17200
H 	H 	0.03840 0.46890 0.68520 0.15700
H 	H 	0.04510 0.42580 0.68200 0.16900
C 	C 	0.04760 0.23980 0.67720 -0.40800
H 	H 	0.05570 0.25760 0.72040 0.10600
H 	H 	0.02310 0.23120 0.69230 0.10300
H 	H 	0.06450 0.21920 0.67620 0.11100
C 	C 	0.13420 0.20660 0.85910 -0.41800
H 	H 	0.14340 0.20970 0.79990 0.08800
H 	H 	0.13000 0.18060 0.87020 0.11300
H 	H 	0.11130 0.22000 0.86570 0.10700
Li	Li	0.14400 0.27980 0.74940 0.53700
H 	H 	0.18020 0.44290 0.44130 0.11900
H 	H 	0.18210 0.47170 0.51900 0.11400
H 	H 	0.17930 0.42910 0.53970 0.14700
H 	H 	0.23210 0.30660 0.05990 0.12000
H 	H 	0.25040 0.29170 0.97260 0.07700
H 	H 	0.21660 0.31910 0.96750 0.11700
H 	H 	0.03380 0.36440 0.44010 0.08300
H 	H 	0.01200 0.35880 0.52910 0.01100
H 	H 	0.05420 0.36960 0.53090 0.09400
Mn	Mn	0.35117 0.85608 0.75000 1.32700
N 	N 	0.31810 0.94550 0.66160 -0.18000
N 	N 	0.46360 0.86660 0.66270 -0.23000
N 	N 	0.26220 0.80940 0.82930 -0.17000
O 	O 	0.35790 0.96700 0.79730 -0.39200
O 	O 	0.36290 0.90260 0.80690 -0.41500
O 	O 	0.31830 0.88980 0.67700 -0.41300
O 	O 	0.46100 0.82380 0.81720 -0.28100
O 	O 	0.39510 0.82890 0.81900 -0.28900
O 	O 	0.39150 0.86340 0.65690 -0.31500
O 	O 	0.31470 0.83990 0.83440 -0.40500
O 	O 	0.33900 0.80800 0.69370 -0.38100
O 	O 	0.28630 0.76340 0.69920 -0.36700
C 	C 	0.35650 0.93590 0.77400 0.25500
C 	C 	0.32160 0.92240 0.71530 0.05500
C 	C 	0.42850 0.85730 0.69770 0.03400
C 	C 	0.43290 0.84290 0.79460 0.12800
C 	C 	0.30400 0.79220 0.68800 0.23000
C 	C 	0.29050 0.80960 0.77900 -0.14600
C 	C 	0.29370 0.94930 0.57810 -0.14500
C 	C 	0.25850 0.95340 0.58420 0.15800
C 	C 	0.45920 0.88900 0.57870 -0.11800
C 	C 	0.24890 0.81060 0.92290 -0.15800
C 	C 	0.22020 0.83970 0.91940 0.10200
C 	C 	0.45420 0.92190 0.60050 0.19000
C 	C 	0.44980 0.94310 0.68200 -0.54600
H 	H 	0.45170 0.92670 0.73170 0.17400
H 	H 	0.46890 0.96160 0.68520 0.16200
H 	H 	0.42580 0.95490 0.68200 0.17000
C 	C 	0.23980 0.95240 0.67720 -0.45100
H 	H 	0.25760 0.94430 0.72040 0.12100
H 	H 	0.23120 0.97690 0.69230 0.12300
H 	H 	0.21920 0.93550 0.67620 0.12500
C 	C 	0.20660 0.86580 0.85910 -0.42100
H 	H 	0.20970 0.85660 0.79990 0.08900
H 	H 	0.18060 0.87000 0.87020 0.11500
H 	H 	0.22000 0.88870 0.86570 0.10900
Li	Li	0.27980 0.85600 0.74940 0.53700
H 	H 	0.44290 0.81980 0.44130 0.11900
H 	H 	0.47170 0.81790 0.51900 0.11400
H 	H 	0.42910 0.82070 0.53970 0.14600
H 	H 	0.30660 0.76790 0.05990 0.12000
H 	H 	0.29170 0.74960 0.97260 0.07700
H 	H 	0.31910 0.78340 0.96750 0.11700
H 	H 	0.36440 0.96620 0.44010 0.15700
H 	H 	0.35880 0.98800 0.52910 0.18100
H 	H 	0.36960 0.94580 0.53090 0.18800
Mn	Mn	0.64883 0.14392 0.75000 1.32700
N 	N 	0.68190 0.05450 0.66160 -0.18800
N 	N 	0.53640 0.13340 0.66270 -0.23000
N 	N 	0.73780 0.19060 0.82930 -0.17000
O 	O 	0.64210 0.03300 0.79730 -0.39900
O 	O 	0.63710 0.09740 0.80690 -0.41700
O 	O 	0.68170 0.11020 0.67700 -0.41300
O 	O 	0.53900 0.17620 0.81720 -0.28100
O 	O 	0.60490 0.17110 0.81900 -0.28900
O 	O 	0.60850 0.13660 0.65690 -0.31300
O 	O 	0.68530 0.16010 0.83440 -0.40500
O 	O 	0.66100 0.19200 0.69370 -0.38100
O 	O 	0.71370 0.23660 0.69920 -0.36700
C 	C 	0.64350 0.06410 0.77400 0.25700
C 	C 	0.67840 0.07760 0.71530 0.05700
C 	C 	0.57150 0.14270 0.69770 0.03400
C 	C 	0.56710 0.15710 0.79460 0.12800
C 	C 	0.69600 0.20780 0.68800 0.23000
C 	C 	0.70950 0.19040 0.77900 -0.14600
C 	C 	0.70630 0.05070 0.57810 -0.07900
C 	C 	0.74150 0.04660 0.58420 0.11200
C 	C 	0.54080 0.11100 0.57870 -0.11700
C 	C 	0.75110 0.18940 0.92290 -0.15800
C 	C 	0.77980 0.16030 0.91940 0.10100
C 	C 	0.54580 0.07810 0.60050 0.18900
C 	C 	0.55020 0.05690 0.68200 -0.54000
H 	H 	0.54830 0.07330 0.73170 0.17200
H 	H 	0.53110 0.03840 0.68520 0.15700
H 	H 	0.57420 0.04510 0.68200 0.16900
C 	C 	0.76020 0.04760 0.67720 -0.40900
H 	H 	0.74240 0.05570 0.72040 0.10600
H 	H 	0.76880 0.02310 0.69230 0.10300
H 	H 	0.78080 0.06450 0.67620 0.11200
C 	C 	0.79340 0.13420 0.85910 -0.42000
H 	H 	0.79030 0.14340 0.79990 0.08900
H 	H 	0.81940 0.13000 0.87020 0.11400
H 	H 	0.78000 0.11130 0.86570 0.10700
Li	Li	0.72020 0.14400 0.74940 0.53700
H 	H 	0.55710 0.18020 0.44130 0.11900
H 	H 	0.52830 0.18210 0.51900 0.11400
H 	H 	0.57090 0.17930 0.53970 0.14700
H 	H 	0.69340 0.23210 0.05990 0.12000
H 	H 	0.70830 0.25040 0.97260 0.07700
H 	H 	0.68090 0.21660 0.96750 0.11700
H 	H 	0.63560 0.03380 0.44010 0.08300
H 	H 	0.64120 0.01200 0.52910 0.01100
H 	H 	0.63040 0.05420 0.53090 0.09400
Mn	Mn	0.14392 0.64883 0.25000 1.32800
N 	N 	0.05450 0.68190 0.33840 -0.18800
N 	N 	0.13340 0.53640 0.33730 -0.22900
N 	N 	0.19060 0.73780 0.17070 -0.17200
O 	O 	0.03300 0.64210 0.20270 -0.38800
O 	O 	0.09740 0.63710 0.19310 -0.40600
O 	O 	0.11020 0.68170 0.32300 -0.41300
O 	O 	0.17620 0.53900 0.18280 -0.26800
O 	O 	0.17110 0.60490 0.18100 -0.27800
O 	O 	0.13660 0.60850 0.34310 -0.31300
O 	O 	0.16010 0.68530 0.16560 -0.39500
O 	O 	0.19200 0.66100 0.30630 -0.37900
O 	O 	0.23660 0.71370 0.30080 -0.36500
C 	C 	0.06410 0.64350 0.22600 0.25700
C 	C 	0.07760 0.67840 0.28470 0.06100
C 	C 	0.14270 0.57150 0.30230 0.03500
C 	C 	0.15710 0.56710 0.20540 0.13200
C 	C 	0.20780 0.69600 0.31200 0.23000
C 	C 	0.19040 0.70950 0.22100 -0.14400
C 	C 	0.05070 0.70630 0.42190 -0.07900
C 	C 	0.04660 0.74150 0.41580 0.11400
C 	C 	0.11100 0.54080 0.42130 -0.11800
C 	C 	0.18940 0.75110 0.07710 -0.13400
C 	C 	0.16030 0.77980 0.08060 0.13900
C 	C 	0.07810 0.54580 0.39950 0.19200
C 	C 	0.05690 0.55020 0.31800 -0.54900
H 	H 	0.07330 0.54830 0.26830 0.17900
H 	H 	0.03840 0.53110 0.31480 0.16200
H 	H 	0.04510 0.57420 0.31800 0.17300
C 	C 	0.04760 0.76020 0.32280 -0.41700
H 	H 	0.05570 0.74240 0.27960 0.11200
H 	H 	0.02310 0.76880 0.30770 0.10900
H 	H 	0.06450 0.78080 0.32380 0.11700
C 	C 	0.13420 0.79340 0.14090 -0.46200
H 	H 	0.14340 0.79030 0.20010 0.10100
H 	H 	0.13000 0.81940 0.12980 0.13700
H 	H 	0.11130 0.78000 0.13430 0.13000
Li	Li	0.14400 0.72020 0.25060 0.53700
H 	H 	0.18020 0.55710 0.55870 0.11800
H 	H 	0.18210 0.52830 0.48100 0.11400
H 	H 	0.17930 0.57090 0.46030 0.14700
H 	H 	0.23210 0.69340 0.94010 0.14100
H 	H 	0.25040 0.70830 0.02740 0.14800
H 	H 	0.21660 0.68090 0.03250 0.17600
H 	H 	0.03380 0.63560 0.55990 0.08300
H 	H 	0.01200 0.64120 0.47090 0.01100
H 	H 	0.05420 0.63040 0.46910 0.09400
Mn	Mn	0.85608 0.35117 0.25000 1.32700
N 	N 	0.94550 0.31810 0.33840 -0.18000
N 	N 	0.86660 0.46360 0.33730 -0.22900
N 	N 	0.80940 0.26220 0.17070 -0.17200
O 	O 	0.96700 0.35790 0.20270 -0.38100
O 	O 	0.90260 0.36290 0.19310 -0.40500
O 	O 	0.88980 0.31830 0.32300 -0.41300
O 	O 	0.82380 0.46100 0.18280 -0.26800
O 	O 	0.82890 0.39510 0.18100 -0.27800
O 	O 	0.86340 0.39150 0.34310 -0.31500
O 	O 	0.83990 0.31470 0.16560 -0.39500
O 	O 	0.80800 0.33900 0.30630 -0.37900
O 	O 	0.76340 0.28630 0.30080 -0.36500
C 	C 	0.93590 0.35650 0.22600 0.25500
C 	C 	0.92240 0.32160 0.28470 0.05800
C 	C 	0.85730 0.42850 0.30230 0.03500
C 	C 	0.84290 0.43290 0.20540 0.13300
C 	C 	0.79220 0.30400 0.31200 0.23000
C 	C 	0.80960 0.29050 0.22100 -0.14400
C 	C 	0.94930 0.29370 0.42190 -0.14500
C 	C 	0.95340 0.25850 0.41580 0.16000
C 	C 	0.88900 0.45920 0.42130 -0.11900
C 	C 	0.81060 0.24890 0.07710 -0.13500
C 	C 	0.83970 0.22020 0.08060 0.14000
C 	C 	0.92190 0.45420 0.39950 0.19300
C 	C 	0.94310 0.44980 0.31800 -0.55500
H 	H 	0.92670 0.45170 0.26830 0.18200
H 	H 	0.96160 0.46890 0.31480 0.16800
H 	H 	0.95490 0.42580 0.31800 0.17500
C 	C 	0.95240 0.23980 0.32280 -0.45900
H 	H 	0.94430 0.25760 0.27960 0.12700
H 	H 	0.97690 0.23120 0.30770 0.12800
H 	H 	0.93550 0.21920 0.32380 0.12900
C 	C 	0.86580 0.20660 0.14090 -0.46400
H 	H 	0.85660 0.20970 0.20010 0.10100
H 	H 	0.87000 0.18060 0.12980 0.13800
H 	H 	0.88870 0.22000 0.13430 0.13200
Li	Li	0.85600 0.27980 0.25060 0.53700
H 	H 	0.81980 0.44290 0.55870 0.11800
H 	H 	0.81790 0.47170 0.48100 0.11400
H 	H 	0.82070 0.42910 0.46030 0.14600
H 	H 	0.76790 0.30660 0.94010 0.14100
H 	H 	0.74960 0.29170 0.02740 0.14800
H 	H 	0.78340 0.31910 0.03250 0.17600
H 	H 	0.96620 0.36440 0.55990 0.15700
H 	H 	0.98800 0.35880 0.47090 0.18100
H 	H 	0.94580 0.36960 0.46910 0.18800
Mn	Mn	0.64883 0.85608 0.25000 1.32700
N 	N 	0.68190 0.94550 0.33840 -0.18000
N 	N 	0.53640 0.86660 0.33730 -0.22900
N 	N 	0.73780 0.80940 0.17070 -0.17200
O 	O 	0.64210 0.96700 0.20270 -0.38100
O 	O 	0.63710 0.90260 0.19310 -0.40500
O 	O 	0.68170 0.88980 0.32300 -0.41300
O 	O 	0.53900 0.82380 0.18280 -0.26800
O 	O 	0.60490 0.82890 0.18100 -0.27800
O 	O 	0.60850 0.86340 0.34310 -0.31500
O 	O 	0.68530 0.83990 0.16560 -0.39500
O 	O 	0.66100 0.80800 0.30630 -0.37900
O 	O 	0.71370 0.76340 0.30080 -0.36500
C 	C 	0.64350 0.93590 0.22600 0.25500
C 	C 	0.67840 0.92240 0.28470 0.05800
C 	C 	0.57150 0.85730 0.30230 0.03500
C 	C 	0.56710 0.84290 0.20540 0.13300
C 	C 	0.69600 0.79220 0.31200 0.22900
C 	C 	0.70950 0.80960 0.22100 -0.14400
C 	C 	0.70630 0.94930 0.42190 -0.14600
C 	C 	0.74150 0.95340 0.41580 0.16100
C 	C 	0.54080 0.88900 0.42130 -0.11900
C 	C 	0.75110 0.81060 0.07710 -0.13500
C 	C 	0.77980 0.83970 0.08060 0.14000
C 	C 	0.54580 0.92190 0.39950 0.19300
C 	C 	0.55020 0.94310 0.31800 -0.55500
H 	H 	0.54830 0.92670 0.26830 0.18200
H 	H 	0.53110 0.96160 0.31480 0.16700
H 	H 	0.57420 0.95490 0.31800 0.17500
C 	C 	0.76020 0.95240 0.32280 -0.46000
H 	H 	0.74240 0.94430 0.27960 0.12700
H 	H 	0.76880 0.97690 0.30770 0.12900
H 	H 	0.78080 0.93550 0.32380 0.13000
C 	C 	0.79340 0.86580 0.14090 -0.46500
H 	H 	0.79030 0.85660 0.20010 0.10200
H 	H 	0.81940 0.87000 0.12980 0.13900
H 	H 	0.78000 0.88870 0.13430 0.13200
Li	Li	0.72020 0.85600 0.25060 0.53700
H 	H 	0.55710 0.81980 0.55870 0.11800
H 	H 	0.52830 0.81790 0.48100 0.11400
H 	H 	0.57090 0.82070 0.46030 0.14600
H 	H 	0.69340 0.76790 0.94010 0.14100
H 	H 	0.70830 0.74960 0.02740 0.14800
H 	H 	0.68090 0.78340 0.03250 0.17600
H 	H 	0.63560 0.96620 0.55990 0.15700
H 	H 	0.64120 0.98800 0.47090 0.18100
H 	H 	0.63040 0.94580 0.46910 0.18800
Mn	Mn	0.35117 0.14392 0.25000 1.32800
N 	N 	0.31810 0.05450 0.33840 -0.18800
N 	N 	0.46360 0.13340 0.33730 -0.22900
N 	N 	0.26220 0.19060 0.17070 -0.17200
O 	O 	0.35790 0.03300 0.20270 -0.38800
O 	O 	0.36290 0.09740 0.19310 -0.40600
O 	O 	0.31830 0.11020 0.32300 -0.41300
O 	O 	0.46100 0.17620 0.18280 -0.26800
O 	O 	0.39510 0.17110 0.18100 -0.27800
O 	O 	0.39150 0.13660 0.34310 -0.31300
O 	O 	0.31470 0.16010 0.16560 -0.39500
O 	O 	0.33900 0.19200 0.30630 -0.37900
O 	O 	0.28630 0.23660 0.30080 -0.36500
C 	C 	0.35650 0.06410 0.22600 0.25700
C 	C 	0.32160 0.07760 0.28470 0.06100
C 	C 	0.42850 0.14270 0.30230 0.03500
C 	C 	0.43290 0.15710 0.20540 0.13200
C 	C 	0.30400 0.20780 0.31200 0.23000
C 	C 	0.29050 0.19040 0.22100 -0.14400
C 	C 	0.29370 0.05070 0.42190 -0.07900
C 	C 	0.25850 0.04660 0.41580 0.11400
C 	C 	0.45920 0.11100 0.42130 -0.11800
C 	C 	0.24890 0.18940 0.07710 -0.13400
C 	C 	0.22020 0.16030 0.08060 0.13900
C 	C 	0.45420 0.07810 0.39950 0.19200
C 	C 	0.44980 0.05690 0.31800 -0.54900
H 	H 	0.45170 0.07330 0.26830 0.17900
H 	H 	0.46890 0.03840 0.31480 0.16200
H 	H 	0.42580 0.04510 0.31800 0.17300
C 	C 	0.23980 0.04760 0.32280 -0.41600
H 	H 	0.25760 0.05570 0.27960 0.11200
H 	H 	0.23120 0.02310 0.30770 0.10800
H 	H 	0.21920 0.06450 0.32380 0.11600
C 	C 	0.20660 0.13420 0.14090 -0.46100
H 	H 	0.20970 0.14340 0.20010 0.10000
H 	H 	0.18060 0.13000 0.12980 0.13600
H 	H 	0.22000 0.11130 0.13430 0.13000
Li	Li	0.27980 0.14400 0.25060 0.53700
H 	H 	0.44290 0.18020 0.55870 0.11800
H 	H 	0.47170 0.18210 0.48100 0.11500
H 	H 	0.42910 0.17930 0.46030 0.14700
H 	H 	0.30660 0.23210 0.94010 0.14100
H 	H 	0.29170 0.25040 0.02740 0.14800
H 	H 	0.31910 0.21660 0.03250 0.17600
H 	H 	0.36440 0.03380 0.55990 0.08300
H 	H 	0.35880 0.01200 0.47090 0.01100
H 	H 	0.36960 0.05420 0.46910 0.09400
Cu	Cu	0.00000 0.33016 0.27270 0.85500
Cu	Cu	0.00000 0.66984 0.27270 0.85500
Cu	Cu	0.66984 -0.00000 0.27270 0.85500
Cu	Cu	0.33016 -0.00000 0.27270 0.85500
Cu	Cu	-0.00000 0.33016 0.72730 0.85300
Cu	Cu	-0.00000 0.66984 0.72730 0.85300
Cu	Cu	0.33016 -0.00000 0.72730 0.85300
Cu	Cu	0.66984 -0.00000 0.72730 0.85300
Cu	Cu	0.14874 0.50000 0.26940 0.87600
Cu	Cu	0.85126 0.50000 0.26940 0.87600
Cu	Cu	0.50000 0.14874 0.26940 0.87600
Cu	Cu	0.50000 0.85126 0.26940 0.87600
Cu	Cu	0.85126 0.50000 0.73060 0.87400
Cu	Cu	0.14874 0.50000 0.73060 0.87400
Cu	Cu	0.50000 0.14874 0.73060 0.87400
Cu	Cu	0.50000 0.85126 0.73060 0.87400
Cu	Cu	0.24185 0.24185 0.23350 0.86300
Cu	Cu	0.75815 0.75815 0.23350 0.86300
Cu	Cu	0.75815 0.24185 0.23350 0.86300
Cu	Cu	0.24185 0.75815 0.23350 0.86300
Cu	Cu	0.75815 0.24185 0.76650 0.86300
Cu	Cu	0.24185 0.75815 0.76650 0.86300
Cu	Cu	0.24185 0.24185 0.76650 0.86300
Cu	Cu	0.75815 0.75815 0.76650 0.86300
C 	C 	0.04630 0.31370 0.50000 0.11800
C 	C 	0.03600 0.24150 0.50000 -0.17900
H 	H 	0.02220 0.21950 0.50000 0.06700
C 	C 	0.13110 0.45100 0.50000 0.25000
C 	C 	0.17170 0.44840 0.50000 -0.72800
C 	C 	0.06520 0.45340 0.50000 -0.18500
H 	H 	0.03940 0.45170 0.50000 0.06700
C 	C 	0.03550 0.35560 0.50000 -0.46100
C 	C 	0.95370 0.68630 0.50000 0.27000
C 	C 	0.96400 0.75850 0.50000 -0.21400
H 	H 	0.97780 0.78050 0.50000 0.08500
C 	C 	0.86890 0.54900 0.50000 0.24900
C 	C 	0.82830 0.55160 0.50000 -0.72700
C 	C 	0.93480 0.54660 0.50000 -0.19200
H 	H 	0.96060 0.54830 0.50000 0.07100
C 	C 	0.96450 0.64440 0.50000 -0.99500
C 	C 	0.68630 0.04630 0.50000 0.11800
C 	C 	0.75850 0.03600 0.50000 -0.17900
H 	H 	0.78050 0.02220 0.50000 0.06700
C 	C 	0.54900 0.13110 0.50000 0.25000
C 	C 	0.55160 0.17170 0.50000 -0.72800
C 	C 	0.54660 0.06520 0.50000 -0.18500
H 	H 	0.54830 0.03940 0.50000 0.06700
C 	C 	0.64440 0.03550 0.50000 -0.46200
C 	C 	0.31370 0.95370 0.50000 0.27000
C 	C 	0.24150 0.96400 0.50000 -0.21300
H 	H 	0.21950 0.97780 0.50000 0.08500
C 	C 	0.45100 0.86890 0.50000 0.24900
C 	C 	0.44840 0.82830 0.50000 -0.72700
C 	C 	0.45340 0.93480 0.50000 -0.19200
H 	H 	0.45170 0.96060 0.50000 0.07100
C 	C 	0.35560 0.96450 0.50000 -0.99500
C 	C 	0.95370 0.31370 0.50000 0.27000
C 	C 	0.96400 0.24150 0.50000 -0.21300
H 	H 	0.97780 0.21950 0.50000 0.08500
C 	C 	0.86890 0.45100 0.50000 0.24900
C 	C 	0.82830 0.44840 0.50000 -0.72700
C 	C 	0.93480 0.45340 0.50000 -0.19200
H 	H 	0.96060 0.45170 0.50000 0.07100
C 	C 	0.96450 0.35560 0.50000 -0.99500
C 	C 	0.04630 0.68630 0.50000 0.11800
C 	C 	0.03600 0.75850 0.50000 -0.17900
H 	H 	0.02220 0.78050 0.50000 0.06700
C 	C 	0.13110 0.54900 0.50000 0.25000
C 	C 	0.17170 0.55160 0.50000 -0.72800
C 	C 	0.06520 0.54660 0.50000 -0.18500
H 	H 	0.03940 0.54830 0.50000 0.06700
C 	C 	0.03550 0.64440 0.50000 -0.46200
C 	C 	0.31370 0.04630 0.50000 0.11800
C 	C 	0.24150 0.03600 0.50000 -0.17900
H 	H 	0.21950 0.02220 0.50000 0.06700
C 	C 	0.45100 0.13110 0.50000 0.25000
C 	C 	0.44840 0.17170 0.50000 -0.72800
C 	C 	0.45340 0.06520 0.50000 -0.18500
H 	H 	0.45170 0.03940 0.50000 0.06700
C 	C 	0.35560 0.03550 0.50000 -0.46100
C 	C 	0.68630 0.95370 0.50000 0.27000
C 	C 	0.75850 0.96400 0.50000 -0.21400
H 	H 	0.78050 0.97780 0.50000 0.08500
C 	C 	0.54900 0.86890 0.50000 0.24900
C 	C 	0.55160 0.82830 0.50000 -0.72700
C 	C 	0.54660 0.93480 0.50000 -0.19200
H 	H 	0.54830 0.96060 0.50000 0.07100
C 	C 	0.64440 0.96450 0.50000 -0.99500
C 	C 	0.20010 0.26530 -0.00000 0.24800
C 	C 	0.22740 0.29890 -0.00000 -0.70700
C 	C 	0.13550 0.20970 -0.00000 -0.11100
H 	H 	0.11170 0.19960 -0.00000 0.05500
C 	C 	0.79990 0.73470 -0.00000 0.24800
C 	C 	0.77260 0.70110 -0.00000 -0.70700
C 	C 	0.86450 0.79030 -0.00000 -0.11200
H 	H 	0.88830 0.80040 -0.00000 0.05700
C 	C 	0.73470 0.20010 -0.00000 0.24800
C 	C 	0.70110 0.22740 -0.00000 -0.70700
C 	C 	0.79030 0.13550 -0.00000 -0.11100
H 	H 	0.80040 0.11170 -0.00000 0.05500
C 	C 	0.26530 0.79990 -0.00000 0.24800
C 	C 	0.29890 0.77260 -0.00000 -0.70700
C 	C 	0.20970 0.86450 -0.00000 -0.11200
H 	H 	0.19960 0.88830 -0.00000 0.05600
C 	C 	0.79990 0.26530 -0.00000 0.24800
C 	C 	0.77260 0.29890 -0.00000 -0.70700
C 	C 	0.86450 0.20970 -0.00000 -0.11200
H 	H 	0.88830 0.19960 -0.00000 0.05600
C 	C 	0.20010 0.73470 -0.00000 0.24800
C 	C 	0.22740 0.70110 -0.00000 -0.70700
C 	C 	0.13550 0.79030 -0.00000 -0.11100
H 	H 	0.11170 0.80040 -0.00000 0.05500
C 	C 	0.26530 0.20010 -0.00000 0.24800
C 	C 	0.29890 0.22740 -0.00000 -0.70700
C 	C 	0.20970 0.13550 -0.00000 -0.11100
H 	H 	0.19960 0.11170 -0.00000 0.05500
C 	C 	0.73470 0.79990 -0.00000 0.24800
C 	C 	0.70110 0.77260 -0.00000 -0.70700
C 	C 	0.79030 0.86450 -0.00000 -0.11200
H 	H 	0.80040 0.88830 -0.00000 0.05700
