data_crystal

_cell_length_a 26.32900
_cell_length_b 26.32900
_cell_length_c 26.32900
_cell_angle_alpha 90.00000
_cell_angle_beta  90.00000
_cell_angle_gamma 90.00000

_symmetry_space_group_name_	'P 1'
_symmetry_space_group_name_H-M	'P 1'

loop_
_symmetry_equiv_pos_as_xyz
  x,y,z

loop_
_atom_site_label
_atom_site_type_symbol
_atom_site_fract_x
_atom_site_fract_y
_atom_site_fract_z
_atom_site_charge
O 	O 	0.55245 0.25676 0.68333 -0.72900
O 	O 	0.55245 0.75676 0.18333 -0.73100
O 	O 	0.05245 0.25676 0.18333 -0.75400
O 	O 	0.05245 0.75676 0.68333 -0.74500
O 	O 	0.44755 0.74324 0.68333 -0.72400
O 	O 	0.44755 0.24324 0.18333 -0.73400
O 	O 	0.94755 0.74324 0.18333 -0.69600
O 	O 	0.94755 0.24324 0.68333 -0.69400
O 	O 	0.44755 0.25676 0.31667 -0.73000
O 	O 	0.44755 0.75676 0.81667 -0.71900
O 	O 	0.94755 0.25676 0.81667 -0.68900
O 	O 	0.94755 0.75676 0.31667 -0.69200
O 	O 	0.55245 0.74324 0.31667 -0.72500
O 	O 	0.55245 0.24324 0.81667 -0.72200
O 	O 	0.05245 0.74324 0.81667 -0.73600
O 	O 	0.05245 0.24324 0.31667 -0.74800
O 	O 	0.68333 0.55245 0.25676 -0.73000
O 	O 	0.68333 0.05245 0.75676 -0.74500
O 	O 	0.18333 0.55245 0.75676 -0.73200
O 	O 	0.18333 0.05245 0.25676 -0.75500
O 	O 	0.68333 0.44755 0.74324 -0.72400
O 	O 	0.68333 0.94755 0.24324 -0.69400
O 	O 	0.18333 0.44755 0.24324 -0.73400
O 	O 	0.18333 0.94755 0.74324 -0.69600
O 	O 	0.31667 0.44755 0.25676 -0.73000
O 	O 	0.31667 0.94755 0.75676 -0.69200
O 	O 	0.81667 0.44755 0.75676 -0.71900
O 	O 	0.81667 0.94755 0.25676 -0.68900
O 	O 	0.31667 0.55245 0.74324 -0.72500
O 	O 	0.31667 0.05245 0.24324 -0.74800
O 	O 	0.81667 0.55245 0.24324 -0.72200
O 	O 	0.81667 0.05245 0.74324 -0.73600
O 	O 	0.25676 0.68333 0.55245 -0.73000
O 	O 	0.25676 0.18333 0.05245 -0.75500
O 	O 	0.75676 0.68333 0.05245 -0.74500
O 	O 	0.75676 0.18333 0.55245 -0.73200
O 	O 	0.74324 0.68333 0.44755 -0.72400
O 	O 	0.74324 0.18333 0.94755 -0.69600
O 	O 	0.24324 0.68333 0.94755 -0.69400
O 	O 	0.24324 0.18333 0.44755 -0.73400
O 	O 	0.25676 0.31667 0.44755 -0.73000
O 	O 	0.25676 0.81667 0.94755 -0.68900
O 	O 	0.75676 0.31667 0.94755 -0.69200
O 	O 	0.75676 0.81667 0.44755 -0.71900
O 	O 	0.74324 0.31667 0.55245 -0.72500
O 	O 	0.74324 0.81667 0.05245 -0.73600
O 	O 	0.24324 0.31667 0.05245 -0.74800
O 	O 	0.24324 0.81667 0.55245 -0.72200
O 	O 	0.25676 0.55245 0.31667 -0.73000
O 	O 	0.25676 0.05245 0.81667 -0.74200
O 	O 	0.75676 0.55245 0.81667 -0.72000
O 	O 	0.75676 0.05245 0.31667 -0.74500
O 	O 	0.74324 0.44755 0.31667 -0.72400
O 	O 	0.74324 0.94755 0.81667 -0.68300
O 	O 	0.24324 0.44755 0.81667 -0.72200
O 	O 	0.24324 0.94755 0.31667 -0.69400
O 	O 	0.25676 0.44755 0.68333 -0.73000
O 	O 	0.25676 0.94755 0.18333 -0.70200
O 	O 	0.75676 0.44755 0.18333 -0.73200
O 	O 	0.75676 0.94755 0.68333 -0.69100
O 	O 	0.74324 0.55245 0.68333 -0.72400
O 	O 	0.74324 0.05245 0.18333 -0.74900
O 	O 	0.24324 0.55245 0.18333 -0.73500
O 	O 	0.24324 0.05245 0.68333 -0.74700
O 	O 	0.55245 0.68333 0.74324 -0.72400
O 	O 	0.55245 0.18333 0.24324 -0.73500
O 	O 	0.05245 0.68333 0.24324 -0.74700
O 	O 	0.05245 0.18333 0.74324 -0.74900
O 	O 	0.44755 0.68333 0.25676 -0.73000
O 	O 	0.44755 0.18333 0.75676 -0.73200
O 	O 	0.94755 0.68333 0.75676 -0.69100
O 	O 	0.94755 0.18333 0.25676 -0.70200
O 	O 	0.44755 0.31667 0.74324 -0.72400
O 	O 	0.44755 0.81667 0.24324 -0.72200
O 	O 	0.94755 0.31667 0.24324 -0.69400
O 	O 	0.94755 0.81667 0.74324 -0.68300
O 	O 	0.55245 0.31667 0.25676 -0.73000
O 	O 	0.55245 0.81667 0.75676 -0.72000
O 	O 	0.05245 0.31667 0.75676 -0.74500
O 	O 	0.05245 0.81667 0.25676 -0.74200
O 	O 	0.68333 0.25676 0.44755 -0.73000
O 	O 	0.68333 0.75676 0.94755 -0.69100
O 	O 	0.18333 0.25676 0.94755 -0.70200
O 	O 	0.18333 0.75676 0.44755 -0.73200
O 	O 	0.68333 0.74324 0.55245 -0.72400
O 	O 	0.68333 0.24324 0.05245 -0.74700
O 	O 	0.18333 0.74324 0.05245 -0.74900
O 	O 	0.18333 0.24324 0.55245 -0.73500
O 	O 	0.31667 0.25676 0.55245 -0.73000
O 	O 	0.31667 0.75676 0.05245 -0.74500
O 	O 	0.81667 0.25676 0.05245 -0.74200
O 	O 	0.81667 0.75676 0.55245 -0.72000
O 	O 	0.31667 0.74324 0.44755 -0.72400
O 	O 	0.31667 0.24324 0.94755 -0.69400
O 	O 	0.81667 0.74324 0.94755 -0.68300
O 	O 	0.81667 0.24324 0.44755 -0.72200
O 	O 	0.44755 0.74324 0.31667 -0.72400
O 	O 	0.44755 0.24324 0.81667 -0.72200
O 	O 	0.94755 0.74324 0.81667 -0.68300
O 	O 	0.94755 0.24324 0.31667 -0.69400
O 	O 	0.55245 0.25676 0.31667 -0.73000
O 	O 	0.55245 0.75676 0.81667 -0.72000
O 	O 	0.05245 0.25676 0.81667 -0.74200
O 	O 	0.05245 0.75676 0.31667 -0.74500
O 	O 	0.55245 0.74324 0.68333 -0.72400
O 	O 	0.55245 0.24324 0.18333 -0.73500
O 	O 	0.05245 0.74324 0.18333 -0.74900
O 	O 	0.05245 0.24324 0.68333 -0.74700
O 	O 	0.44755 0.25676 0.68333 -0.73000
O 	O 	0.44755 0.75676 0.18333 -0.73200
O 	O 	0.94755 0.25676 0.18333 -0.70200
O 	O 	0.94755 0.75676 0.68333 -0.69100
O 	O 	0.31667 0.44755 0.74324 -0.72400
O 	O 	0.31667 0.94755 0.24324 -0.69400
O 	O 	0.81667 0.44755 0.24324 -0.72200
O 	O 	0.81667 0.94755 0.74324 -0.68300
O 	O 	0.31667 0.55245 0.25676 -0.73000
O 	O 	0.31667 0.05245 0.75676 -0.74500
O 	O 	0.81667 0.55245 0.75676 -0.72000
O 	O 	0.81667 0.05245 0.25676 -0.74200
O 	O 	0.68333 0.55245 0.74324 -0.72400
O 	O 	0.68333 0.05245 0.24324 -0.74700
O 	O 	0.18333 0.55245 0.24324 -0.73500
O 	O 	0.18333 0.05245 0.74324 -0.74900
O 	O 	0.68333 0.44755 0.25676 -0.73000
O 	O 	0.68333 0.94755 0.75676 -0.69100
O 	O 	0.18333 0.44755 0.75676 -0.73200
O 	O 	0.18333 0.94755 0.25676 -0.70200
O 	O 	0.74324 0.31667 0.44755 -0.72400
O 	O 	0.74324 0.81667 0.94755 -0.68300
O 	O 	0.24324 0.31667 0.94755 -0.69400
O 	O 	0.24324 0.81667 0.44755 -0.72200
O 	O 	0.25676 0.31667 0.55245 -0.73000
O 	O 	0.25676 0.81667 0.05245 -0.74200
O 	O 	0.75676 0.31667 0.05245 -0.74500
O 	O 	0.75676 0.81667 0.55245 -0.72000
O 	O 	0.74324 0.68333 0.55245 -0.72400
O 	O 	0.74324 0.18333 0.05245 -0.74900
O 	O 	0.24324 0.68333 0.05245 -0.74700
O 	O 	0.24324 0.18333 0.55245 -0.73500
O 	O 	0.25676 0.68333 0.44755 -0.73000
O 	O 	0.25676 0.18333 0.94755 -0.70200
O 	O 	0.75676 0.68333 0.94755 -0.69100
O 	O 	0.75676 0.18333 0.44755 -0.73200
O 	O 	0.74324 0.44755 0.68333 -0.72400
O 	O 	0.74324 0.94755 0.18333 -0.69600
O 	O 	0.24324 0.44755 0.18333 -0.73400
O 	O 	0.24324 0.94755 0.68333 -0.69400
O 	O 	0.25676 0.55245 0.68333 -0.73000
O 	O 	0.25676 0.05245 0.18333 -0.75500
O 	O 	0.75676 0.55245 0.18333 -0.73200
O 	O 	0.75676 0.05245 0.68333 -0.74500
O 	O 	0.74324 0.55245 0.31667 -0.72500
O 	O 	0.74324 0.05245 0.81667 -0.73600
O 	O 	0.24324 0.55245 0.81667 -0.72200
O 	O 	0.24324 0.05245 0.31667 -0.74800
O 	O 	0.25676 0.44755 0.31667 -0.73000
O 	O 	0.25676 0.94755 0.81667 -0.68900
O 	O 	0.75676 0.44755 0.81667 -0.71900
O 	O 	0.75676 0.94755 0.31667 -0.69200
O 	O 	0.44755 0.31667 0.25676 -0.73000
O 	O 	0.44755 0.81667 0.75676 -0.71900
O 	O 	0.94755 0.31667 0.75676 -0.69200
O 	O 	0.94755 0.81667 0.25676 -0.68900
O 	O 	0.55245 0.31667 0.74324 -0.72500
O 	O 	0.55245 0.81667 0.24324 -0.72200
O 	O 	0.05245 0.31667 0.24324 -0.74800
O 	O 	0.05245 0.81667 0.74324 -0.73600
O 	O 	0.55245 0.68333 0.25676 -0.73000
O 	O 	0.55245 0.18333 0.75676 -0.73200
O 	O 	0.05245 0.68333 0.75676 -0.74500
O 	O 	0.05245 0.18333 0.25676 -0.75500
O 	O 	0.44755 0.68333 0.74324 -0.72400
O 	O 	0.44755 0.18333 0.24324 -0.73400
O 	O 	0.94755 0.68333 0.24324 -0.69400
O 	O 	0.94755 0.18333 0.74324 -0.69600
O 	O 	0.31667 0.74324 0.55245 -0.72500
O 	O 	0.31667 0.24324 0.05245 -0.74800
O 	O 	0.81667 0.74324 0.05245 -0.73600
O 	O 	0.81667 0.24324 0.55245 -0.72200
O 	O 	0.31667 0.25676 0.44755 -0.73000
O 	O 	0.31667 0.75676 0.94755 -0.69200
O 	O 	0.81667 0.25676 0.94755 -0.68900
O 	O 	0.81667 0.75676 0.44755 -0.71900
O 	O 	0.68333 0.74324 0.44755 -0.72400
O 	O 	0.68333 0.24324 0.94755 -0.69400
O 	O 	0.18333 0.74324 0.94755 -0.69600
O 	O 	0.18333 0.24324 0.44755 -0.73400
O 	O 	0.68333 0.25676 0.55245 -0.73000
O 	O 	0.68333 0.75676 0.05245 -0.74500
O 	O 	0.18333 0.25676 0.05245 -0.75500
O 	O 	0.18333 0.75676 0.55245 -0.73200
Cu	Cu	0.50000 0.21439 0.71439 0.90700
Cu	Cu	0.00000 0.21439 0.21439 0.87600
Cu	Cu	0.50000 0.78561 0.71439 0.91100
Cu	Cu	-0.00000 0.78561 0.21439 0.88000
Cu	Cu	0.50000 0.21439 0.28561 0.90700
Cu	Cu	-0.00000 0.21439 0.78561 0.88000
Cu	Cu	0.50000 0.78561 0.28561 0.91100
Cu	Cu	0.00000 0.78561 0.78561 0.88300
Cu	Cu	0.71439 0.50000 0.21439 0.90700
Cu	Cu	0.71439 0.00000 0.71439 0.87900
Cu	Cu	0.71439 0.50000 0.78561 0.91100
Cu	Cu	0.71439 0.00000 0.28561 0.87900
Cu	Cu	0.28561 0.50000 0.21439 0.90700
Cu	Cu	0.28561 0.00000 0.71439 0.87900
Cu	Cu	0.28561 0.50000 0.78561 0.91100
Cu	Cu	0.28561 0.00000 0.28561 0.88000
Cu	Cu	0.21439 0.71439 0.50000 0.90700
Cu	Cu	0.21439 0.21439 -0.00000 0.87600
Cu	Cu	0.78561 0.71439 0.50000 0.91100
Cu	Cu	0.78561 0.21439 -0.00000 0.88000
Cu	Cu	0.21439 0.28561 0.50000 0.90700
Cu	Cu	0.21439 0.78561 -0.00000 0.88000
Cu	Cu	0.78561 0.28561 0.50000 0.91100
Cu	Cu	0.78561 0.78561 -0.00000 0.88300
Cu	Cu	0.21439 0.50000 0.28561 0.90700
Cu	Cu	0.21439 0.00000 0.78561 0.88000
Cu	Cu	0.78561 0.50000 0.28561 0.91100
Cu	Cu	0.78561 0.00000 0.78561 0.88300
Cu	Cu	0.21439 0.50000 0.71439 0.90700
Cu	Cu	0.21439 0.00000 0.21439 0.87600
Cu	Cu	0.78561 0.50000 0.71439 0.91100
Cu	Cu	0.78561 0.00000 0.21439 0.88000
Cu	Cu	0.50000 0.71439 0.78561 0.91100
Cu	Cu	0.00000 0.71439 0.28561 0.87900
Cu	Cu	0.50000 0.71439 0.21439 0.90700
Cu	Cu	-0.00000 0.71439 0.71439 0.87900
Cu	Cu	0.50000 0.28561 0.78561 0.91100
Cu	Cu	0.00000 0.28561 0.28561 0.88000
Cu	Cu	0.50000 0.28561 0.21439 0.90700
Cu	Cu	-0.00000 0.28561 0.71439 0.87900
Cu	Cu	0.71439 0.21439 0.50000 0.90700
Cu	Cu	0.71439 0.71439 -0.00000 0.87900
Cu	Cu	0.71439 0.78561 0.50000 0.91100
Cu	Cu	0.71439 0.28561 -0.00000 0.87900
Cu	Cu	0.28561 0.21439 0.50000 0.90700
Cu	Cu	0.28561 0.71439 -0.00000 0.87900
Cu	Cu	0.28561 0.78561 0.50000 0.91100
Cu	Cu	0.28561 0.28561 -0.00000 0.88000
C 	C 	0.56889 0.29648 0.70352 1.27800
C 	C 	0.61257 0.32157 0.67843 -2.48900
C 	C 	0.56889 0.79648 0.20352 1.27800
C 	C 	0.61257 0.82157 0.17843 -2.48900
C 	C 	0.06889 0.29648 0.20352 1.29000
C 	C 	0.11257 0.32157 0.17843 -2.52600
C 	C 	0.06889 0.79648 0.70352 1.28000
C 	C 	0.11257 0.82157 0.67843 -2.49700
C 	C 	0.43111 0.70352 0.70352 1.27400
C 	C 	0.38743 0.67843 0.67843 -2.48100
C 	C 	0.43111 0.20352 0.20352 1.28400
C 	C 	0.38743 0.17843 0.17843 -2.51000
C 	C 	0.93111 0.70352 0.20352 1.26600
C 	C 	0.88743 0.67843 0.17843 -2.46900
C 	C 	0.93111 0.20352 0.70352 1.26600
C 	C 	0.88743 0.17843 0.67843 -2.46900
C 	C 	0.43111 0.29648 0.29648 1.28100
C 	C 	0.38743 0.32157 0.32157 -2.49500
C 	C 	0.43111 0.79648 0.79648 1.27100
C 	C 	0.38743 0.82157 0.82157 -2.46500
C 	C 	0.93111 0.29648 0.79648 1.26300
C 	C 	0.88743 0.32157 0.82157 -2.45300
C 	C 	0.93111 0.79648 0.29648 1.26300
C 	C 	0.88743 0.82157 0.32157 -2.45300
C 	C 	0.56889 0.70352 0.29648 1.27800
C 	C 	0.61257 0.67843 0.32157 -2.48900
C 	C 	0.56889 0.20352 0.79648 1.27800
C 	C 	0.61257 0.17843 0.82157 -2.48900
C 	C 	0.06889 0.70352 0.79648 1.28000
C 	C 	0.11257 0.67843 0.82157 -2.49700
C 	C 	0.06889 0.20352 0.29648 1.29000
C 	C 	0.11257 0.17843 0.32157 -2.52600
C 	C 	0.70352 0.56889 0.29648 1.27800
C 	C 	0.67843 0.61257 0.32157 -2.48900
C 	C 	0.70352 0.06889 0.79648 1.28000
C 	C 	0.67843 0.11257 0.82157 -2.49700
C 	C 	0.20352 0.56889 0.79648 1.27800
C 	C 	0.17843 0.61257 0.82157 -2.48900
C 	C 	0.20352 0.06889 0.29648 1.29000
C 	C 	0.17843 0.11257 0.32157 -2.52600
C 	C 	0.70352 0.43111 0.70352 1.27400
C 	C 	0.67843 0.38743 0.67843 -2.48100
C 	C 	0.70352 0.93111 0.20352 1.26600
C 	C 	0.67843 0.88743 0.17843 -2.46900
C 	C 	0.20352 0.43111 0.20352 1.28400
C 	C 	0.17843 0.38743 0.17843 -2.51000
C 	C 	0.20352 0.93111 0.70352 1.26600
C 	C 	0.17843 0.88743 0.67843 -2.46900
C 	C 	0.29648 0.43111 0.29648 1.28100
C 	C 	0.32157 0.38743 0.32157 -2.49500
C 	C 	0.29648 0.93111 0.79648 1.26300
C 	C 	0.32157 0.88743 0.82157 -2.45300
C 	C 	0.79648 0.43111 0.79648 1.27100
C 	C 	0.82157 0.38743 0.82157 -2.46500
C 	C 	0.79648 0.93111 0.29648 1.26300
C 	C 	0.82157 0.88743 0.32157 -2.45300
C 	C 	0.29648 0.56889 0.70352 1.27800
C 	C 	0.32157 0.61257 0.67843 -2.48900
C 	C 	0.29648 0.06889 0.20352 1.29000
C 	C 	0.32157 0.11257 0.17843 -2.52600
C 	C 	0.79648 0.56889 0.20352 1.27800
C 	C 	0.82157 0.61257 0.17843 -2.48900
C 	C 	0.79648 0.06889 0.70352 1.28000
C 	C 	0.82157 0.11257 0.67843 -2.49700
C 	C 	0.29648 0.70352 0.56889 1.27800
C 	C 	0.32157 0.67843 0.61257 -2.48900
C 	C 	0.29648 0.20352 0.06889 1.29000
C 	C 	0.32157 0.17843 0.11257 -2.52600
C 	C 	0.79648 0.70352 0.06889 1.28000
C 	C 	0.82157 0.67843 0.11257 -2.49700
C 	C 	0.79648 0.20352 0.56889 1.27800
C 	C 	0.82157 0.17843 0.61257 -2.48900
C 	C 	0.70352 0.70352 0.43111 1.27400
C 	C 	0.67843 0.67843 0.38743 -2.48100
C 	C 	0.70352 0.20352 0.93111 1.26600
C 	C 	0.67843 0.17843 0.88743 -2.46900
C 	C 	0.20352 0.70352 0.93111 1.26600
C 	C 	0.17843 0.67843 0.88743 -2.46900
C 	C 	0.20352 0.20352 0.43111 1.28400
C 	C 	0.17843 0.17843 0.38743 -2.51000
C 	C 	0.29648 0.29648 0.43111 1.28100
C 	C 	0.32157 0.32157 0.38743 -2.49500
C 	C 	0.29648 0.79648 0.93111 1.26300
C 	C 	0.32157 0.82157 0.88743 -2.45300
C 	C 	0.79648 0.29648 0.93111 1.26300
C 	C 	0.82157 0.32157 0.88743 -2.45300
C 	C 	0.79648 0.79648 0.43111 1.27100
C 	C 	0.82157 0.82157 0.38743 -2.46500
C 	C 	0.70352 0.29648 0.56889 1.27800
C 	C 	0.67843 0.32157 0.61257 -2.48900
C 	C 	0.70352 0.79648 0.06889 1.28000
C 	C 	0.67843 0.82157 0.11257 -2.49700
C 	C 	0.20352 0.29648 0.06889 1.29000
C 	C 	0.17843 0.32157 0.11257 -2.52600
C 	C 	0.20352 0.79648 0.56889 1.27800
C 	C 	0.17843 0.82157 0.61257 -2.48900
C 	C 	0.29648 0.56889 0.29648 1.28200
C 	C 	0.32157 0.61257 0.32157 -2.49600
C 	C 	0.29648 0.06889 0.79648 1.28300
C 	C 	0.32157 0.11257 0.82157 -2.50400
C 	C 	0.79648 0.56889 0.79648 1.27200
C 	C 	0.82157 0.61257 0.82157 -2.46600
C 	C 	0.79648 0.06889 0.29648 1.28300
C 	C 	0.82157 0.11257 0.32157 -2.50400
C 	C 	0.70352 0.43111 0.29648 1.27800
C 	C 	0.67843 0.38743 0.32157 -2.48800
C 	C 	0.70352 0.93111 0.79648 1.26000
C 	C 	0.67843 0.88743 0.82157 -2.44600
C 	C 	0.20352 0.43111 0.79648 1.27700
C 	C 	0.17843 0.38743 0.82157 -2.48700
C 	C 	0.20352 0.93111 0.29648 1.27000
C 	C 	0.17843 0.88743 0.32157 -2.47500
C 	C 	0.29648 0.43111 0.70352 1.27800
C 	C 	0.32157 0.38743 0.67843 -2.48800
C 	C 	0.29648 0.93111 0.20352 1.27000
C 	C 	0.32157 0.88743 0.17843 -2.47500
C 	C 	0.79648 0.43111 0.20352 1.27700
C 	C 	0.82157 0.38743 0.17843 -2.48700
C 	C 	0.79648 0.93111 0.70352 1.26000
C 	C 	0.82157 0.88743 0.67843 -2.44600
C 	C 	0.70352 0.56889 0.70352 1.27500
C 	C 	0.67843 0.61257 0.67843 -2.48200
C 	C 	0.70352 0.06889 0.20352 1.28600
C 	C 	0.67843 0.11257 0.17843 -2.51900
C 	C 	0.20352 0.56889 0.20352 1.28400
C 	C 	0.17843 0.61257 0.17843 -2.51100
C 	C 	0.20352 0.06889 0.70352 1.28600
C 	C 	0.17843 0.11257 0.67843 -2.51900
C 	C 	0.56889 0.70352 0.70352 1.27500
C 	C 	0.61257 0.67843 0.67843 -2.48200
C 	C 	0.56889 0.20352 0.20352 1.28400
C 	C 	0.61257 0.17843 0.17843 -2.51100
C 	C 	0.06889 0.70352 0.20352 1.28600
C 	C 	0.11257 0.67843 0.17843 -2.51900
C 	C 	0.06889 0.20352 0.70352 1.28600
C 	C 	0.11257 0.17843 0.67843 -2.51900
C 	C 	0.43111 0.70352 0.29648 1.27800
C 	C 	0.38743 0.67843 0.32157 -2.48800
C 	C 	0.43111 0.20352 0.79648 1.27700
C 	C 	0.38743 0.17843 0.82157 -2.48700
C 	C 	0.93111 0.70352 0.79648 1.26000
C 	C 	0.88743 0.67843 0.82157 -2.44600
C 	C 	0.93111 0.20352 0.29648 1.27000
C 	C 	0.88743 0.17843 0.32157 -2.47500
C 	C 	0.43111 0.29648 0.70352 1.27800
C 	C 	0.38743 0.32157 0.67843 -2.48800
C 	C 	0.43111 0.79648 0.20352 1.27700
C 	C 	0.38743 0.82157 0.17843 -2.48700
C 	C 	0.93111 0.29648 0.20352 1.27000
C 	C 	0.88743 0.32157 0.17843 -2.47500
C 	C 	0.93111 0.79648 0.70352 1.26000
C 	C 	0.88743 0.82157 0.67843 -2.44600
C 	C 	0.56889 0.29648 0.29648 1.28200
C 	C 	0.61257 0.32157 0.32157 -2.49600
C 	C 	0.56889 0.79648 0.79648 1.27200
C 	C 	0.61257 0.82157 0.82157 -2.46600
C 	C 	0.06889 0.29648 0.79648 1.28300
C 	C 	0.11257 0.32157 0.82157 -2.50400
C 	C 	0.06889 0.79648 0.29648 1.28300
C 	C 	0.11257 0.82157 0.32157 -2.50400
C 	C 	0.70352 0.29648 0.43111 1.27800
C 	C 	0.67843 0.32157 0.38743 -2.48800
C 	C 	0.70352 0.79648 0.93111 1.26000
C 	C 	0.67843 0.82157 0.88743 -2.44600
C 	C 	0.20352 0.29648 0.93111 1.27000
C 	C 	0.17843 0.32157 0.88743 -2.47500
C 	C 	0.20352 0.79648 0.43111 1.27700
C 	C 	0.17843 0.82157 0.38743 -2.48700
C 	C 	0.70352 0.70352 0.56889 1.27500
C 	C 	0.67843 0.67843 0.61257 -2.48200
C 	C 	0.70352 0.20352 0.06889 1.28600
C 	C 	0.67843 0.17843 0.11257 -2.51900
C 	C 	0.20352 0.70352 0.06889 1.28600
C 	C 	0.17843 0.67843 0.11257 -2.51900
C 	C 	0.20352 0.20352 0.56889 1.28400
C 	C 	0.17843 0.17843 0.61257 -2.51100
C 	C 	0.29648 0.29648 0.56889 1.28200
C 	C 	0.32157 0.32157 0.61257 -2.49600
C 	C 	0.29648 0.79648 0.06889 1.28300
C 	C 	0.32157 0.82157 0.11257 -2.50400
C 	C 	0.79648 0.29648 0.06889 1.28300
C 	C 	0.82157 0.32157 0.11257 -2.50400
C 	C 	0.79648 0.79648 0.56889 1.27200
C 	C 	0.82157 0.82157 0.61257 -2.46600
C 	C 	0.29648 0.70352 0.43111 1.27800
C 	C 	0.32157 0.67843 0.38743 -2.48800
C 	C 	0.29648 0.20352 0.93111 1.27000
C 	C 	0.32157 0.17843 0.88743 -2.47500
C 	C 	0.79648 0.70352 0.93111 1.26000
C 	C 	0.82157 0.67843 0.88743 -2.44600
C 	C 	0.79648 0.20352 0.43111 1.27700
C 	C 	0.82157 0.17843 0.38743 -2.48700
C 	C 	0.63465 0.36535 0.69919 3.18200
H 	H 	0.61950 0.38050 0.72820 -2.76500
F 	F 	0.61160 0.38840 0.74270 1.79000
C 	C 	0.63465 0.86535 0.19919 3.16500
H 	H 	0.61950 0.88050 0.22820 -2.73800
F 	F 	0.61160 0.88840 0.24270 1.77100
C 	C 	0.13465 0.36535 0.19919 3.20800
H 	H 	0.11950 0.38050 0.22820 -2.79100
F 	F 	0.11160 0.38840 0.24270 1.79800
C 	C 	0.13465 0.86535 0.69919 3.17900
H 	H 	0.11950 0.88050 0.72820 -2.76300
F 	F 	0.11160 0.88840 0.74270 1.78900
C 	C 	0.36535 0.63465 0.69919 3.18200
H 	H 	0.38050 0.61950 0.72820 -2.76500
F 	F 	0.38840 0.61160 0.74270 1.79000
C 	C 	0.36535 0.13465 0.19919 3.20800
H 	H 	0.38050 0.11950 0.22820 -2.79100
F 	F 	0.38840 0.11160 0.24270 1.79800
C 	C 	0.86535 0.63465 0.19919 3.16500
H 	H 	0.88050 0.61950 0.22820 -2.73800
F 	F 	0.88840 0.61160 0.24270 1.77100
C 	C 	0.86535 0.13465 0.69919 3.17900
H 	H 	0.88050 0.11950 0.72820 -2.76300
F 	F 	0.88840 0.11160 0.74270 1.78900
C 	C 	0.36535 0.36535 0.30081 3.19700
H 	H 	0.38050 0.38050 0.27180 -2.78600
F 	F 	0.38840 0.38840 0.25730 1.80200
C 	C 	0.36535 0.86535 0.80081 3.17000
H 	H 	0.38050 0.88050 0.77180 -2.76100
F 	F 	0.38840 0.88840 0.75730 1.79500
C 	C 	0.86535 0.36535 0.80081 3.17000
H 	H 	0.88050 0.38050 0.77180 -2.76100
F 	F 	0.88840 0.38840 0.75730 1.79500
C 	C 	0.86535 0.86535 0.30081 3.15200
H 	H 	0.88050 0.88050 0.27180 -2.73100
F 	F 	0.88840 0.88840 0.25730 1.77400
C 	C 	0.63465 0.63465 0.30081 3.20200
H 	H 	0.61950 0.61950 0.27180 -2.80200
F 	F 	0.61160 0.61160 0.25730 1.81600
C 	C 	0.63465 0.13465 0.80081 3.21800
H 	H 	0.61950 0.11950 0.77180 -2.83000
F 	F 	0.61160 0.11160 0.75730 1.83600
C 	C 	0.13465 0.63465 0.80081 3.21800
H 	H 	0.11950 0.61950 0.77180 -2.83000
F 	F 	0.11160 0.61160 0.75730 1.83600
C 	C 	0.13465 0.13465 0.30081 3.24100
H 	H 	0.11950 0.11950 0.27180 -2.84900
F 	F 	0.11160 0.11160 0.25730 1.83900
C 	C 	0.69919 0.63465 0.36535 3.18200
H 	H 	0.72820 0.61950 0.38050 -2.76500
F 	F 	0.74270 0.61160 0.38840 1.79000
C 	C 	0.69919 0.13465 0.86535 3.17900
H 	H 	0.72820 0.11950 0.88050 -2.76300
F 	F 	0.74270 0.11160 0.88840 1.78900
C 	C 	0.19919 0.63465 0.86535 3.16500
H 	H 	0.22820 0.61950 0.88050 -2.73800
F 	F 	0.24270 0.61160 0.88840 1.77100
C 	C 	0.19919 0.13465 0.36535 3.20800
H 	H 	0.22820 0.11950 0.38050 -2.79100
F 	F 	0.24270 0.11160 0.38840 1.79800
C 	C 	0.69919 0.36535 0.63465 3.18200
H 	H 	0.72820 0.38050 0.61950 -2.76500
F 	F 	0.74270 0.38840 0.61160 1.79000
C 	C 	0.69919 0.86535 0.13465 3.17900
H 	H 	0.72820 0.88050 0.11950 -2.76300
F 	F 	0.74270 0.88840 0.11160 1.78900
C 	C 	0.19919 0.36535 0.13465 3.20800
H 	H 	0.22820 0.38050 0.11950 -2.79100
F 	F 	0.24270 0.38840 0.11160 1.79800
C 	C 	0.19919 0.86535 0.63465 3.16500
H 	H 	0.22820 0.88050 0.61950 -2.73800
F 	F 	0.24270 0.88840 0.61160 1.77100
C 	C 	0.30081 0.36535 0.36535 3.19700
H 	H 	0.27180 0.38050 0.38050 -2.78600
F 	F 	0.25730 0.38840 0.38840 1.80200
C 	C 	0.30081 0.86535 0.86535 3.15200
H 	H 	0.27180 0.88050 0.88050 -2.73100
F 	F 	0.25730 0.88840 0.88840 1.77400
C 	C 	0.80081 0.36535 0.86535 3.17000
H 	H 	0.77180 0.38050 0.88050 -2.76100
F 	F 	0.75730 0.38840 0.88840 1.79500
C 	C 	0.80081 0.86535 0.36535 3.17000
H 	H 	0.77180 0.88050 0.38050 -2.76100
F 	F 	0.75730 0.88840 0.38840 1.79500
C 	C 	0.30081 0.63465 0.63465 3.20200
H 	H 	0.27180 0.61950 0.61950 -2.80200
F 	F 	0.25730 0.61160 0.61160 1.81600
C 	C 	0.30081 0.13465 0.13465 3.24100
H 	H 	0.27180 0.11950 0.11950 -2.84900
F 	F 	0.25730 0.11160 0.11160 1.83900
C 	C 	0.80081 0.63465 0.13465 3.21800
H 	H 	0.77180 0.61950 0.11950 -2.83000
F 	F 	0.75730 0.61160 0.11160 1.83600
C 	C 	0.80081 0.13465 0.63465 3.21800
H 	H 	0.77180 0.11950 0.61950 -2.83000
F 	F 	0.75730 0.11160 0.61160 1.83600
C 	C 	0.36535 0.69919 0.63465 3.18200
H 	H 	0.38050 0.72820 0.61950 -2.76500
F 	F 	0.38840 0.74270 0.61160 1.79000
C 	C 	0.36535 0.19919 0.13465 3.20800
H 	H 	0.38050 0.22820 0.11950 -2.79100
F 	F 	0.38840 0.24270 0.11160 1.79800
C 	C 	0.86535 0.69919 0.13465 3.17900
H 	H 	0.88050 0.72820 0.11950 -2.76300
F 	F 	0.88840 0.74270 0.11160 1.78900
C 	C 	0.86535 0.19919 0.63465 3.16500
H 	H 	0.88050 0.22820 0.61950 -2.73800
F 	F 	0.88840 0.24270 0.61160 1.77100
C 	C 	0.63465 0.69919 0.36535 3.18200
H 	H 	0.61950 0.72820 0.38050 -2.76500
F 	F 	0.61160 0.74270 0.38840 1.79000
C 	C 	0.63465 0.19919 0.86535 3.16500
H 	H 	0.61950 0.22820 0.88050 -2.73800
F 	F 	0.61160 0.24270 0.88840 1.77100
C 	C 	0.13465 0.69919 0.86535 3.17900
H 	H 	0.11950 0.72820 0.88050 -2.76300
F 	F 	0.11160 0.74270 0.88840 1.78900
C 	C 	0.13465 0.19919 0.36535 3.20800
H 	H 	0.11950 0.22820 0.38050 -2.79100
F 	F 	0.11160 0.24270 0.38840 1.79800
C 	C 	0.36535 0.30081 0.36535 3.19700
H 	H 	0.38050 0.27180 0.38050 -2.78600
F 	F 	0.38840 0.25730 0.38840 1.80200
C 	C 	0.36535 0.80081 0.86535 3.17000
H 	H 	0.38050 0.77180 0.88050 -2.76100
F 	F 	0.38840 0.75730 0.88840 1.79500
C 	C 	0.86535 0.30081 0.86535 3.15200
H 	H 	0.88050 0.27180 0.88050 -2.73100
F 	F 	0.88840 0.25730 0.88840 1.77400
C 	C 	0.86535 0.80081 0.36535 3.17000
H 	H 	0.88050 0.77180 0.38050 -2.76100
F 	F 	0.88840 0.75730 0.38840 1.79500
C 	C 	0.63465 0.30081 0.63465 3.20200
H 	H 	0.61950 0.27180 0.61950 -2.80200
F 	F 	0.61160 0.25730 0.61160 1.81600
C 	C 	0.63465 0.80081 0.13465 3.21800
H 	H 	0.61950 0.77180 0.11950 -2.83000
F 	F 	0.61160 0.75730 0.11160 1.83600
C 	C 	0.13465 0.30081 0.13465 3.24100
H 	H 	0.11950 0.27180 0.11950 -2.84900
F 	F 	0.11160 0.25730 0.11160 1.83900
C 	C 	0.13465 0.80081 0.63465 3.21800
H 	H 	0.11950 0.77180 0.61950 -2.83000
F 	F 	0.11160 0.75730 0.61160 1.83600
C 	C 	0.36535 0.63465 0.30081 3.20000
H 	H 	0.38050 0.61950 0.27180 -2.79400
F 	F 	0.38840 0.61160 0.25730 1.80900
C 	C 	0.36535 0.13465 0.80081 3.21500
H 	H 	0.38050 0.11950 0.77180 -2.82200
F 	F 	0.38840 0.11160 0.75730 1.82900
C 	C 	0.86535 0.63465 0.80081 3.17200
H 	H 	0.88050 0.61950 0.77180 -2.76900
F 	F 	0.88840 0.61160 0.75730 1.80200
C 	C 	0.86535 0.13465 0.30081 3.19700
H 	H 	0.88050 0.11950 0.27180 -2.79000
F 	F 	0.88840 0.11160 0.25730 1.80700
C 	C 	0.63465 0.36535 0.30081 3.20000
H 	H 	0.61950 0.38050 0.27180 -2.79400
F 	F 	0.61160 0.38840 0.25730 1.80900
C 	C 	0.63465 0.86535 0.80081 3.17200
H 	H 	0.61950 0.88050 0.77180 -2.76900
F 	F 	0.61160 0.88840 0.75730 1.80200
C 	C 	0.13465 0.36535 0.80081 3.21500
H 	H 	0.11950 0.38050 0.77180 -2.82200
F 	F 	0.11160 0.38840 0.75730 1.82900
C 	C 	0.13465 0.86535 0.30081 3.19700
H 	H 	0.11950 0.88050 0.27180 -2.79000
F 	F 	0.11160 0.88840 0.25730 1.80700
C 	C 	0.36535 0.36535 0.69919 3.17900
H 	H 	0.38050 0.38050 0.72820 -2.75700
F 	F 	0.38840 0.38840 0.74270 1.78300
C 	C 	0.36535 0.86535 0.19919 3.16300
H 	H 	0.38050 0.88050 0.22820 -2.73000
F 	F 	0.38840 0.88840 0.24270 1.76500
C 	C 	0.86535 0.36535 0.19919 3.16300
H 	H 	0.88050 0.38050 0.22820 -2.73000
F 	F 	0.88840 0.38840 0.24270 1.76500
C 	C 	0.86535 0.86535 0.69919 3.13400
H 	H 	0.88050 0.88050 0.72820 -2.70400
F 	F 	0.88840 0.88840 0.74270 1.75600
C 	C 	0.63465 0.63465 0.69919 3.18400
H 	H 	0.61950 0.61950 0.72820 -2.77300
F 	F 	0.61160 0.61160 0.74270 1.79700
C 	C 	0.63465 0.13465 0.19919 3.21000
H 	H 	0.61950 0.11950 0.22820 -2.79900
F 	F 	0.61160 0.11160 0.24270 1.80500
C 	C 	0.13465 0.63465 0.19919 3.21000
H 	H 	0.11950 0.61950 0.22820 -2.79900
F 	F 	0.11160 0.61160 0.24270 1.80500
C 	C 	0.13465 0.13465 0.69919 3.22300
H 	H 	0.11950 0.11950 0.72820 -2.82200
F 	F 	0.11160 0.11160 0.74270 1.82100
C 	C 	0.63465 0.69919 0.63465 3.18400
H 	H 	0.61950 0.72820 0.61950 -2.77300
F 	F 	0.61160 0.74270 0.61160 1.79700
C 	C 	0.63465 0.19919 0.13465 3.21000
H 	H 	0.61950 0.22820 0.11950 -2.79900
F 	F 	0.61160 0.24270 0.11160 1.80500
C 	C 	0.13465 0.69919 0.13465 3.22300
H 	H 	0.11950 0.72820 0.11950 -2.82200
F 	F 	0.11160 0.74270 0.11160 1.82100
C 	C 	0.13465 0.19919 0.63465 3.21000
H 	H 	0.11950 0.22820 0.61950 -2.79900
F 	F 	0.11160 0.24270 0.61160 1.80500
C 	C 	0.36535 0.69919 0.36535 3.17900
H 	H 	0.38050 0.72820 0.38050 -2.75700
F 	F 	0.38840 0.74270 0.38840 1.78300
C 	C 	0.36535 0.19919 0.86535 3.16300
H 	H 	0.38050 0.22820 0.88050 -2.73000
F 	F 	0.38840 0.24270 0.88840 1.76500
C 	C 	0.86535 0.69919 0.86535 3.13400
H 	H 	0.88050 0.72820 0.88050 -2.70400
F 	F 	0.88840 0.74270 0.88840 1.75600
C 	C 	0.86535 0.19919 0.36535 3.16300
H 	H 	0.88050 0.22820 0.38050 -2.73000
F 	F 	0.88840 0.24270 0.38840 1.76500
C 	C 	0.36535 0.30081 0.63465 3.20000
H 	H 	0.38050 0.27180 0.61950 -2.79400
F 	F 	0.38840 0.25730 0.61160 1.80900
C 	C 	0.36535 0.80081 0.13465 3.21500
H 	H 	0.38050 0.77180 0.11950 -2.82200
F 	F 	0.38840 0.75730 0.11160 1.82900
C 	C 	0.86535 0.30081 0.13465 3.19700
H 	H 	0.88050 0.27180 0.11950 -2.79000
F 	F 	0.88840 0.25730 0.11160 1.80700
C 	C 	0.86535 0.80081 0.63465 3.17200
H 	H 	0.88050 0.77180 0.61950 -2.76900
F 	F 	0.88840 0.75730 0.61160 1.80200
C 	C 	0.63465 0.30081 0.36535 3.20000
H 	H 	0.61950 0.27180 0.38050 -2.79400
F 	F 	0.61160 0.25730 0.38840 1.80900
C 	C 	0.63465 0.80081 0.86535 3.17200
H 	H 	0.61950 0.77180 0.88050 -2.76900
F 	F 	0.61160 0.75730 0.88840 1.80200
C 	C 	0.13465 0.30081 0.86535 3.19700
H 	H 	0.11950 0.27180 0.88050 -2.79000
F 	F 	0.11160 0.25730 0.88840 1.80700
C 	C 	0.13465 0.80081 0.36535 3.21500
H 	H 	0.11950 0.77180 0.38050 -2.82200
F 	F 	0.11160 0.75730 0.38840 1.82900
C 	C 	0.69919 0.36535 0.36535 3.17900
H 	H 	0.72820 0.38050 0.38050 -2.75700
F 	F 	0.74270 0.38840 0.38840 1.78300
C 	C 	0.69919 0.86535 0.86535 3.13400
H 	H 	0.72820 0.88050 0.88050 -2.70400
F 	F 	0.74270 0.88840 0.88840 1.75600
C 	C 	0.19919 0.36535 0.86535 3.16300
H 	H 	0.22820 0.38050 0.88050 -2.73000
F 	F 	0.24270 0.38840 0.88840 1.76500
C 	C 	0.19919 0.86535 0.36535 3.16300
H 	H 	0.22820 0.88050 0.38050 -2.73000
F 	F 	0.24270 0.88840 0.38840 1.76500
C 	C 	0.69919 0.63465 0.63465 3.18400
H 	H 	0.72820 0.61950 0.61950 -2.77300
F 	F 	0.74270 0.61160 0.61160 1.79700
C 	C 	0.69919 0.13465 0.13465 3.22300
H 	H 	0.72820 0.11950 0.11950 -2.82200
F 	F 	0.74270 0.11160 0.11160 1.82100
C 	C 	0.19919 0.63465 0.13465 3.21000
H 	H 	0.22820 0.61950 0.11950 -2.79900
F 	F 	0.24270 0.61160 0.11160 1.80500
C 	C 	0.19919 0.13465 0.63465 3.21000
H 	H 	0.22820 0.11950 0.61950 -2.79900
F 	F 	0.24270 0.11160 0.61160 1.80500
C 	C 	0.30081 0.36535 0.63465 3.20000
H 	H 	0.27180 0.38050 0.61950 -2.79400
F 	F 	0.25730 0.38840 0.61160 1.80900
C 	C 	0.30081 0.86535 0.13465 3.19700
H 	H 	0.27180 0.88050 0.11950 -2.79000
F 	F 	0.25730 0.88840 0.11160 1.80700
C 	C 	0.80081 0.36535 0.13465 3.21500
H 	H 	0.77180 0.38050 0.11950 -2.82200
F 	F 	0.75730 0.38840 0.11160 1.82900
C 	C 	0.80081 0.86535 0.63465 3.17200
H 	H 	0.77180 0.88050 0.61950 -2.76900
F 	F 	0.75730 0.88840 0.61160 1.80200
C 	C 	0.30081 0.63465 0.36535 3.20000
H 	H 	0.27180 0.61950 0.38050 -2.79400
F 	F 	0.25730 0.61160 0.38840 1.80900
C 	C 	0.30081 0.13465 0.86535 3.19700
H 	H 	0.27180 0.11950 0.88050 -2.79000
F 	F 	0.25730 0.11160 0.88840 1.80700
C 	C 	0.80081 0.63465 0.86535 3.17200
H 	H 	0.77180 0.61950 0.88050 -2.76900
F 	F 	0.75730 0.61160 0.88840 1.80200
C 	C 	0.80081 0.13465 0.36535 3.21500
H 	H 	0.77180 0.11950 0.38050 -2.82200
F 	F 	0.75730 0.11160 0.38840 1.82900
