data_crystal

_cell_length_a 23.40920
_cell_length_b 13.38650
_cell_length_c 25.29540
_cell_angle_alpha 90.00000
_cell_angle_beta  114.82300
_cell_angle_gamma 90.00000

_symmetry_space_group_name_	'P 1'
_symmetry_space_group_name_H-M	'P 1'

loop_
_symmetry_equiv_pos_as_xyz
  x,y,z

loop_
_atom_site_label
_atom_site_type_symbol
_atom_site_fract_x
_atom_site_fract_y
_atom_site_fract_z
_atom_site_charge
Ni	Ni	0.87948 0.35182 0.45001 1.07800
N 	N 	0.98518 0.91100 0.80193 -0.20800
N 	N 	0.94208 0.04160 0.82405 -0.16900
N 	N 	0.66513 0.19551 0.63608 -0.23900
N 	N 	0.73734 0.20140 0.72337 -0.15800
N 	N 	0.90927 0.51507 0.92363 -0.22000
N 	N 	0.90580 0.37700 0.87763 -0.16200
O 	O 	0.90215 0.78762 0.69544 -0.36600
O 	O 	0.97176 0.69353 0.68322 -0.35000
O 	O 	0.46366 0.78968 0.46587 -0.41900
O 	O 	0.45564 0.64261 0.50309 -0.30100
O 	O 	0.80590 0.43873 0.45960 -0.37300
O 	O 	0.89846 0.41631 0.53182 -0.38000
C 	C 	0.92319 0.20820 0.85180 -0.28500
H 	H 	0.96470 0.21080 0.87940 0.15100
C 	C 	0.90083 0.12420 0.81716 0.23400
C 	C 	0.83882 0.11880 0.77543 -0.27900
H 	H 	0.82380 0.06210 0.75240 0.13400
C 	C 	0.80010 0.20100 0.76930 0.22800
C 	C 	0.82099 0.28450 0.80338 -0.28400
H 	H 	0.79410 0.33810 0.79890 0.13700
C 	C 	0.88333 0.28790 0.84497 0.23700
C 	C 	0.94102 0.97900 0.78207 0.11000
H 	H 	0.91220 0.98350 0.74330 -0.01000
C 	C 	0.01669 0.93070 0.86076 -0.07000
H 	H 	0.05040 0.89380 0.88680 0.05800
C 	C 	0.99166 0.01050 0.87485 0.09000
H 	H 	0.00490 0.03940 0.91150 0.00500
C 	C 	0.72230 0.17180 0.66857 0.10800
H 	H 	0.74930 0.13900 0.65590 -0.01700
C 	C 	0.63854 0.23250 0.67000 0.01500
H 	H 	0.59630 0.24880 0.65790 0.02800
C 	C 	0.68424 0.24150 0.72455 0.00200
H 	H 	0.68030 0.26940 0.75650 0.04100
C 	C 	0.87213 0.44440 0.89227 0.11000
H 	H 	0.82900 0.44110 0.88160 -0.01200
C 	C 	0.96762 0.49730 0.92735 0.03700
H 	H 	0.00250 0.53830 0.94570 0.02000
C 	C 	0.96709 0.41170 0.90049 0.03000
H 	H 	0.00130 0.38110 0.89760 0.02700
C 	C 	0.91566 0.71660 0.66916 0.28900
C 	C 	0.86339 0.66110 0.62091 -0.05400
C 	C 	0.79990 0.68530 0.60543 -0.03200
H 	H 	0.78990 0.73700 0.62460 0.05700
C 	C 	0.87775 0.58400 0.59220 -0.00400
H 	H 	0.91950 0.56570 0.60340 0.06100
C 	C 	0.75163 0.63220 0.56144 -0.01200
C 	C 	0.83045 0.53340 0.54680 -0.06300
C 	C 	0.76764 0.55760 0.53206 -0.03300
H 	H 	0.73600 0.52320 0.50200 0.05500
C 	C 	0.68379 0.65380 0.54444 0.07300
C 	C 	0.65938 0.74990 0.52953 -0.13000
H 	H 	0.68620 0.80320 0.53300 0.08500
C 	C 	0.64252 0.57660 0.53973 -0.12200
H 	H 	0.65810 0.51190 0.54870 0.07900
C 	C 	0.57938 0.59280 0.52222 0.04500
H 	H 	0.55300 0.53980 0.52050 0.03800
C 	C 	0.59536 0.76610 0.50957 0.05800
H 	H 	0.57940 0.82990 0.49770 0.02700
C 	C 	0.55451 0.68950 0.50679 -0.11800
C 	C 	0.48581 0.70770 0.49007 0.34700
C 	C 	0.84567 0.45820 0.51139 0.28500
Ni	Ni	0.37948 0.85182 0.45001 1.07600
N 	N 	0.48518 0.41100 0.80193 -0.23300
N 	N 	0.44208 0.54160 0.82405 -0.15700
N 	N 	0.16513 0.69551 0.63608 -0.24000
N 	N 	0.23734 0.70140 0.72337 -0.15800
N 	N 	0.40927 0.01507 0.92363 -0.21700
N 	N 	0.40580 0.87700 0.87763 -0.15900
O 	O 	0.40215 0.28762 0.69544 -0.37200
O 	O 	0.47176 0.19353 0.68322 -0.36200
O 	O 	0.96366 0.28968 0.46587 -0.41900
O 	O 	0.95564 0.14261 0.50309 -0.30400
O 	O 	0.30590 0.93873 0.45960 -0.37500
O 	O 	0.39846 0.91631 0.53182 -0.38400
C 	C 	0.42319 0.70820 0.85180 -0.28000
H 	H 	0.46470 0.71080 0.87940 0.14200
C 	C 	0.40083 0.62420 0.81716 0.22500
C 	C 	0.33882 0.61880 0.77543 -0.27400
H 	H 	0.32380 0.56210 0.75240 0.13200
C 	C 	0.30010 0.70100 0.76930 0.22400
C 	C 	0.32099 0.78450 0.80338 -0.27900
H 	H 	0.29410 0.83810 0.79890 0.13500
C 	C 	0.38333 0.78790 0.84497 0.23000
C 	C 	0.44102 0.47900 0.78207 0.10700
H 	H 	0.41220 0.48350 0.74330 -0.01100
C 	C 	0.51669 0.43070 0.86076 0.01500
H 	H 	0.55040 0.39380 0.88680 0.03100
C 	C 	0.49166 0.51050 0.87485 -0.00300
H 	H 	0.50490 0.53940 0.91150 0.05100
C 	C 	0.22230 0.67180 0.66857 0.10700
H 	H 	0.24930 0.63900 0.65590 -0.01700
C 	C 	0.13854 0.73250 0.67000 0.01600
H 	H 	0.09630 0.74880 0.65790 0.02400
C 	C 	0.18424 0.74150 0.72455 0.00000
H 	H 	0.18030 0.76940 0.75650 0.04100
C 	C 	0.37213 0.94440 0.89227 0.10800
H 	H 	0.32900 0.94110 0.88160 -0.01200
C 	C 	0.46762 0.99730 0.92735 0.01200
H 	H 	0.50250 0.03830 0.94570 0.04000
C 	C 	0.46709 0.91170 0.90049 0.00700
H 	H 	0.50130 0.88110 0.89760 0.04700
C 	C 	0.41566 0.21660 0.66916 0.29100
C 	C 	0.36339 0.16110 0.62091 -0.05900
C 	C 	0.29990 0.18530 0.60543 -0.02700
H 	H 	0.28990 0.23700 0.62460 0.05500
C 	C 	0.37775 0.08400 0.59220 -0.00100
H 	H 	0.41950 0.06570 0.60340 0.05800
C 	C 	0.25163 0.13220 0.56144 -0.01900
C 	C 	0.33045 0.03340 0.54680 -0.06700
C 	C 	0.26764 0.05760 0.53206 -0.02800
H 	H 	0.23600 0.02320 0.50200 0.05200
C 	C 	0.18379 0.15380 0.54444 0.08600
C 	C 	0.15938 0.24990 0.52953 -0.14600
H 	H 	0.18620 0.30320 0.53300 0.09100
C 	C 	0.14252 0.07660 0.53973 -0.13900
H 	H 	0.15810 0.01190 0.54870 0.08400
C 	C 	0.07938 0.09280 0.52222 0.06600
H 	H 	0.05300 0.03980 0.52050 0.02500
C 	C 	0.09536 0.26610 0.50957 0.07900
H 	H 	0.07940 0.32990 0.49770 0.01700
C 	C 	0.05451 0.18950 0.50679 -0.15100
C 	C 	0.98581 0.20770 0.49007 0.37400
C 	C 	0.34567 0.95820 0.51139 0.28600
Ni	Ni	0.12052 0.35182 0.04999 1.07500
N 	N 	0.01482 0.91100 0.69807 -0.25500
N 	N 	0.05792 0.04160 0.67595 -0.14200
N 	N 	0.33487 0.19551 0.86392 -0.24000
N 	N 	0.26266 0.20140 0.77663 -0.15800
N 	N 	0.09073 0.51507 0.57637 -0.21500
N 	N 	0.09420 0.37700 0.62237 -0.15500
O 	O 	0.09785 0.78762 0.80456 -0.37400
O 	O 	0.02824 0.69353 0.81678 -0.37000
O 	O 	0.53634 0.78968 0.03413 -0.42100
O 	O 	0.54436 0.64261 0.99691 -0.30400
O 	O 	0.19410 0.43873 0.04040 -0.37500
O 	O 	0.10154 0.41631 0.96818 -0.38600
C 	C 	0.07681 0.20820 0.64820 -0.27300
H 	H 	0.03530 0.21080 0.62060 0.13400
C 	C 	0.09917 0.12420 0.68284 0.21600
C 	C 	0.16118 0.11880 0.72457 -0.27000
H 	H 	0.17620 0.06210 0.74760 0.13000
C 	C 	0.19990 0.20100 0.73070 0.22100
C 	C 	0.17901 0.28450 0.69662 -0.27500
H 	H 	0.20590 0.33810 0.70110 0.13300
C 	C 	0.11667 0.28790 0.65503 0.22300
C 	C 	0.05898 0.97900 0.71793 0.10300
H 	H 	0.08780 0.98350 0.75670 -0.01200
C 	C 	0.98331 0.93070 0.63924 0.10200
H 	H 	0.94960 0.89380 0.61320 0.00400
C 	C 	0.00834 0.01050 0.62515 -0.09900
H 	H 	0.99510 0.03940 0.58850 0.09900
C 	C 	0.27770 0.17180 0.83143 0.10700
H 	H 	0.25070 0.13900 0.84410 -0.01700
C 	C 	0.36146 0.23250 0.83000 0.01500
H 	H 	0.40370 0.24880 0.84210 0.02800
C 	C 	0.31576 0.24150 0.77545 0.00200
H 	H 	0.31970 0.26940 0.74350 0.04100
C 	C 	0.12787 0.44440 0.60773 0.10900
H 	H 	0.17100 0.44110 0.61840 -0.01200
C 	C 	0.03238 0.49730 0.57265 -0.00900
H 	H 	0.99750 0.53830 0.55430 0.06000
C 	C 	0.03291 0.41170 0.59951 -0.02000
H 	H 	0.99870 0.38110 0.60240 0.07000
C 	C 	0.08434 0.71660 0.83084 0.29200
C 	C 	0.13661 0.66110 0.87909 -0.06000
C 	C 	0.20010 0.68530 0.89457 -0.02900
H 	H 	0.21010 0.73700 0.87540 0.05600
C 	C 	0.12225 0.58400 0.90780 -0.00100
H 	H 	0.08050 0.56570 0.89660 0.05500
C 	C 	0.24837 0.63220 0.93856 -0.01400
C 	C 	0.16955 0.53340 0.95320 -0.06700
C 	C 	0.23236 0.55760 0.96794 -0.03100
H 	H 	0.26400 0.52320 0.99800 0.05400
C 	C 	0.31621 0.65380 0.95556 0.07300
C 	C 	0.34062 0.74990 0.97047 -0.12900
H 	H 	0.31380 0.80320 0.96700 0.08400
C 	C 	0.35748 0.57660 0.96027 -0.12200
H 	H 	0.34190 0.51190 0.95130 0.07800
C 	C 	0.42062 0.59280 0.97778 0.04600
H 	H 	0.44700 0.53980 0.97950 0.03700
C 	C 	0.40464 0.76610 0.99043 0.05500
H 	H 	0.42060 0.82990 0.00230 0.02900
C 	C 	0.44549 0.68950 0.99321 -0.11900
C 	C 	0.51419 0.70770 0.00993 0.35100
C 	C 	0.15433 0.45820 0.98861 0.28600
Ni	Ni	0.62052 0.85182 0.04999 1.07700
N 	N 	0.51482 0.41100 0.69807 -0.23300
N 	N 	0.55792 0.54160 0.67595 -0.15700
N 	N 	0.83487 0.69551 0.86392 -0.23900
N 	N 	0.76266 0.70140 0.77663 -0.15900
N 	N 	0.59073 0.01507 0.57637 -0.21700
N 	N 	0.59420 0.87700 0.62237 -0.15900
O 	O 	0.59785 0.28762 0.80456 -0.37200
O 	O 	0.52824 0.19353 0.81678 -0.36100
O 	O 	0.03634 0.28968 0.03413 -0.42200
O 	O 	0.04436 0.14261 0.99691 -0.29900
O 	O 	0.69410 0.93873 0.04040 -0.37200
O 	O 	0.60154 0.91631 0.96818 -0.38400
C 	C 	0.57681 0.70820 0.64820 -0.28000
H 	H 	0.53530 0.71080 0.62060 0.14200
C 	C 	0.59917 0.62420 0.68284 0.22500
C 	C 	0.66118 0.61880 0.72457 -0.27500
H 	H 	0.67620 0.56210 0.74760 0.13200
C 	C 	0.69990 0.70100 0.73070 0.22400
C 	C 	0.67901 0.78450 0.69662 -0.28000
H 	H 	0.70590 0.83810 0.70110 0.13500
C 	C 	0.61667 0.78790 0.65503 0.23000
C 	C 	0.55898 0.47900 0.71793 0.10700
H 	H 	0.58780 0.48350 0.75670 -0.01100
C 	C 	0.48331 0.43070 0.63924 0.01500
H 	H 	0.44960 0.39380 0.61320 0.03100
C 	C 	0.50834 0.51050 0.62515 -0.00300
H 	H 	0.49510 0.53940 0.58850 0.05100
C 	C 	0.77770 0.67180 0.83143 0.10800
H 	H 	0.75070 0.63900 0.84410 -0.01700
C 	C 	0.86146 0.73250 0.83000 0.01400
H 	H 	0.90370 0.74880 0.84210 0.03200
C 	C 	0.81576 0.74150 0.77545 0.00300
H 	H 	0.81970 0.76940 0.74350 0.04100
C 	C 	0.62787 0.94440 0.60773 0.10900
H 	H 	0.67100 0.94110 0.61840 -0.01200
C 	C 	0.53238 0.99730 0.57265 0.01400
H 	H 	0.49750 0.03830 0.55430 0.03900
C 	C 	0.53291 0.91170 0.59951 0.00600
H 	H 	0.49870 0.88110 0.60240 0.04800
C 	C 	0.58434 0.21660 0.83084 0.28900
C 	C 	0.63661 0.16110 0.87909 -0.05400
C 	C 	0.70010 0.18530 0.89457 -0.03500
H 	H 	0.71010 0.23700 0.87540 0.05800
C 	C 	0.62225 0.08400 0.90780 -0.00600
H 	H 	0.58050 0.06570 0.89660 0.05900
C 	C 	0.74837 0.13220 0.93856 -0.00600
C 	C 	0.66955 0.03340 0.95320 -0.06000
C 	C 	0.73236 0.05760 0.96794 -0.03700
H 	H 	0.76400 0.02320 0.99800 0.05600
C 	C 	0.81621 0.15380 0.95556 0.06000
C 	C 	0.84062 0.24990 0.97047 -0.11100
H 	H 	0.81380 0.30320 0.96700 0.07800
C 	C 	0.85748 0.07660 0.96027 -0.10400
H 	H 	0.84190 0.01190 0.95130 0.07200
C 	C 	0.92062 0.09280 0.97778 0.02300
H 	H 	0.94700 0.03980 0.97950 0.05000
C 	C 	0.90464 0.26610 0.99043 0.03100
H 	H 	0.92060 0.32990 0.00230 0.04000
C 	C 	0.94549 0.18950 0.99321 -0.08400
C 	C 	0.01419 0.20770 0.00993 0.32100
C 	C 	0.65433 0.95820 0.98861 0.28000
Ni	Ni	0.12052 0.64818 0.54999 1.07500
N 	N 	0.01482 0.08900 0.19807 -0.25600
N 	N 	0.05792 0.95840 0.17595 -0.14200
N 	N 	0.33487 0.80449 0.36392 -0.24000
N 	N 	0.26266 0.79860 0.27663 -0.15800
N 	N 	0.09073 0.48493 0.07637 -0.21400
N 	N 	0.09420 0.62300 0.12237 -0.15400
O 	O 	0.09785 0.21238 0.30456 -0.37400
O 	O 	0.02824 0.30647 0.31678 -0.37000
O 	O 	0.53634 0.21032 0.53413 -0.42000
O 	O 	0.54436 0.35739 0.49691 -0.30100
O 	O 	0.19410 0.56127 0.54040 -0.37500
O 	O 	0.10154 0.58369 0.46818 -0.38700
C 	C 	0.07681 0.79180 0.14820 -0.27300
H 	H 	0.03530 0.78920 0.12060 0.13400
C 	C 	0.09917 0.87580 0.18284 0.21600
C 	C 	0.16118 0.88120 0.22457 -0.26900
H 	H 	0.17620 0.93790 0.24760 0.13000
C 	C 	0.19990 0.79900 0.23070 0.22100
C 	C 	0.17901 0.71550 0.19662 -0.27500
H 	H 	0.20590 0.66190 0.20110 0.13300
C 	C 	0.11667 0.71210 0.15503 0.22300
C 	C 	0.05898 0.02100 0.21793 0.10300
H 	H 	0.08780 0.01650 0.25670 -0.01100
C 	C 	0.98331 0.06930 0.13924 0.10500
H 	H 	0.94960 0.10620 0.11320 0.00300
C 	C 	0.00834 0.98950 0.12515 -0.10300
H 	H 	0.99510 0.96060 0.08850 0.10200
C 	C 	0.27770 0.82820 0.33143 0.10700
H 	H 	0.25070 0.86100 0.34410 -0.01700
C 	C 	0.36146 0.76750 0.33000 0.01500
H 	H 	0.40370 0.75120 0.34210 0.02800
C 	C 	0.31576 0.75850 0.27545 0.00200
H 	H 	0.31970 0.73060 0.24350 0.04100
C 	C 	0.12787 0.55560 0.10773 0.10900
H 	H 	0.17100 0.55890 0.11840 -0.01100
C 	C 	0.03238 0.50270 0.07265 -0.00900
H 	H 	0.99750 0.46170 0.05430 0.06100
C 	C 	0.03291 0.58830 0.09951 -0.02100
H 	H 	0.99870 0.61890 0.10240 0.07100
C 	C 	0.08434 0.28340 0.33084 0.29200
C 	C 	0.13661 0.33890 0.37909 -0.06000
C 	C 	0.20010 0.31470 0.39457 -0.02900
H 	H 	0.21010 0.26300 0.37540 0.05500
C 	C 	0.12225 0.41600 0.40780 -0.00000
H 	H 	0.08050 0.43430 0.39660 0.05500
C 	C 	0.24837 0.36780 0.43856 -0.01500
C 	C 	0.16955 0.46660 0.45320 -0.06700
C 	C 	0.23236 0.44240 0.46794 -0.03100
H 	H 	0.26400 0.47680 0.49800 0.05400
C 	C 	0.31621 0.34620 0.45556 0.07400
C 	C 	0.34062 0.25010 0.47047 -0.13100
H 	H 	0.31380 0.19680 0.46700 0.08500
C 	C 	0.35748 0.42340 0.46027 -0.12300
H 	H 	0.34190 0.48810 0.45130 0.07900
C 	C 	0.42062 0.40720 0.47778 0.04500
H 	H 	0.44700 0.46020 0.47950 0.03700
C 	C 	0.40464 0.23390 0.49043 0.05800
H 	H 	0.42060 0.17010 0.50230 0.02700
C 	C 	0.44549 0.31050 0.49321 -0.11800
C 	C 	0.51419 0.29230 0.50993 0.34700
C 	C 	0.15433 0.54180 0.48861 0.28700
Ni	Ni	0.62052 0.14818 0.54999 1.07600
N 	N 	0.51482 0.58900 0.19807 -0.23300
N 	N 	0.55792 0.45840 0.17595 -0.15700
N 	N 	0.83487 0.30449 0.36392 -0.23900
N 	N 	0.76266 0.29860 0.27663 -0.15900
N 	N 	0.59073 0.98493 0.07637 -0.21600
N 	N 	0.59420 0.12300 0.12237 -0.15900
O 	O 	0.59785 0.71238 0.30456 -0.37200
O 	O 	0.52824 0.80647 0.31678 -0.36100
O 	O 	0.03634 0.71032 0.53413 -0.42200
O 	O 	0.04436 0.85739 0.49691 -0.29900
O 	O 	0.69410 0.06127 0.54040 -0.37400
O 	O 	0.60154 0.08369 0.46818 -0.38400
C 	C 	0.57681 0.29180 0.14820 -0.28000
H 	H 	0.53530 0.28920 0.12060 0.14200
C 	C 	0.59917 0.37580 0.18284 0.22500
C 	C 	0.66118 0.38120 0.22457 -0.27500
H 	H 	0.67620 0.43790 0.24760 0.13200
C 	C 	0.69990 0.29900 0.23070 0.22500
C 	C 	0.67901 0.21550 0.19662 -0.28000
H 	H 	0.70590 0.16190 0.20110 0.13500
C 	C 	0.61667 0.21210 0.15503 0.23000
C 	C 	0.55898 0.52100 0.21793 0.10700
H 	H 	0.58780 0.51650 0.25670 -0.01100
C 	C 	0.48331 0.56930 0.13924 0.01500
H 	H 	0.44960 0.60620 0.11320 0.03100
C 	C 	0.50834 0.48950 0.12515 -0.00300
H 	H 	0.49510 0.46060 0.08850 0.05100
C 	C 	0.77770 0.32820 0.33143 0.10800
H 	H 	0.75070 0.36100 0.34410 -0.01700
C 	C 	0.86146 0.26750 0.33000 0.01400
H 	H 	0.90370 0.25120 0.34210 0.03200
C 	C 	0.81576 0.25850 0.27545 0.00400
H 	H 	0.81970 0.23060 0.24350 0.04100
C 	C 	0.62787 0.05560 0.10773 0.10900
H 	H 	0.67100 0.05890 0.11840 -0.01200
C 	C 	0.53238 0.00270 0.07265 0.01300
H 	H 	0.49750 0.96170 0.05430 0.04100
C 	C 	0.53291 0.08830 0.09951 0.00700
H 	H 	0.49870 0.11890 0.10240 0.04700
C 	C 	0.58434 0.78340 0.33084 0.29000
C 	C 	0.63661 0.83890 0.37909 -0.05500
C 	C 	0.70010 0.81470 0.39457 -0.03400
H 	H 	0.71010 0.76300 0.37540 0.05700
C 	C 	0.62225 0.91600 0.40780 -0.00400
H 	H 	0.58050 0.93430 0.39660 0.05900
C 	C 	0.74837 0.86780 0.43856 -0.00800
C 	C 	0.66955 0.96660 0.45320 -0.06300
C 	C 	0.73236 0.94240 0.46794 -0.03500
H 	H 	0.76400 0.97680 0.49800 0.05600
C 	C 	0.81621 0.84620 0.45556 0.06200
C 	C 	0.84062 0.75010 0.47047 -0.11400
H 	H 	0.81380 0.69680 0.46700 0.08000
C 	C 	0.85748 0.92340 0.46027 -0.10600
H 	H 	0.84190 0.98810 0.45130 0.07300
C 	C 	0.92062 0.90720 0.47778 0.02400
H 	H 	0.94700 0.96020 0.47950 0.05000
C 	C 	0.90464 0.73390 0.49043 0.03800
H 	H 	0.92060 0.67010 0.50230 0.03600
C 	C 	0.94549 0.81050 0.49321 -0.08400
C 	C 	0.01419 0.79230 0.50993 0.32000
C 	C 	0.65433 0.04180 0.48861 0.28500
Ni	Ni	0.87948 0.64818 0.95001 1.07600
N 	N 	0.98518 0.08900 0.30193 -0.20700
N 	N 	0.94208 0.95840 0.32405 -0.17100
N 	N 	0.66513 0.80449 0.13608 -0.23900
N 	N 	0.73734 0.79860 0.22337 -0.15900
N 	N 	0.90927 0.48493 0.42363 -0.22100
N 	N 	0.90580 0.62300 0.37763 -0.16300
O 	O 	0.90215 0.21238 0.19544 -0.36700
O 	O 	0.97176 0.30647 0.18322 -0.35000
O 	O 	0.46366 0.21032 0.96587 -0.42000
O 	O 	0.45564 0.35739 0.00309 -0.30000
O 	O 	0.80590 0.56127 0.95960 -0.37700
O 	O 	0.89846 0.58369 0.03182 -0.38100
C 	C 	0.92319 0.79180 0.35180 -0.28700
H 	H 	0.96470 0.78920 0.37940 0.15100
C 	C 	0.90083 0.87580 0.31716 0.23500
C 	C 	0.83882 0.88120 0.27543 -0.28000
H 	H 	0.82380 0.93790 0.25240 0.13500
C 	C 	0.80010 0.79900 0.26930 0.22800
C 	C 	0.82099 0.71550 0.30338 -0.28400
H 	H 	0.79410 0.66190 0.29890 0.13700
C 	C 	0.88333 0.71210 0.34497 0.23700
C 	C 	0.94102 0.02100 0.28207 0.11000
H 	H 	0.91220 0.01650 0.24330 -0.01000
C 	C 	0.01669 0.06930 0.36076 -0.07500
H 	H 	0.05040 0.10620 0.38680 0.06000
C 	C 	0.99166 0.98950 0.37485 0.09600
H 	H 	0.00490 0.96060 0.41150 0.00100
C 	C 	0.72230 0.82820 0.16857 0.10800
H 	H 	0.74930 0.86100 0.15590 -0.01600
C 	C 	0.63854 0.76750 0.17000 0.01500
H 	H 	0.59630 0.75120 0.15790 0.02800
C 	C 	0.68424 0.75850 0.22455 0.00200
H 	H 	0.68030 0.73060 0.25650 0.04100
C 	C 	0.87213 0.55560 0.39227 0.11000
H 	H 	0.82900 0.55890 0.38160 -0.01200
C 	C 	0.96762 0.50270 0.42735 0.03900
H 	H 	0.00250 0.46170 0.44570 0.01800
C 	C 	0.96709 0.58830 0.40049 0.03200
H 	H 	0.00130 0.61890 0.39760 0.02500
C 	C 	0.91566 0.28340 0.16916 0.28900
C 	C 	0.86339 0.33890 0.12091 -0.05400
C 	C 	0.79990 0.31470 0.10543 -0.03100
H 	H 	0.78990 0.26300 0.12460 0.05700
C 	C 	0.87775 0.41600 0.09220 -0.00400
H 	H 	0.91950 0.43430 0.10340 0.06100
C 	C 	0.75163 0.36780 0.06144 -0.01200
C 	C 	0.83045 0.46660 0.04680 -0.06300
C 	C 	0.76764 0.44240 0.03206 -0.03200
H 	H 	0.73600 0.47680 0.00200 0.05500
C 	C 	0.68379 0.34620 0.04444 0.07400
C 	C 	0.65938 0.25010 0.02953 -0.13100
H 	H 	0.68620 0.19680 0.03300 0.08600
C 	C 	0.64252 0.42340 0.03973 -0.12200
H 	H 	0.65810 0.48810 0.04870 0.07900
C 	C 	0.57938 0.40720 0.02222 0.04500
H 	H 	0.55300 0.46020 0.02050 0.03800
C 	C 	0.59536 0.23390 0.00957 0.06100
H 	H 	0.57940 0.17010 0.99770 0.02500
C 	C 	0.55451 0.31050 0.00679 -0.11700
C 	C 	0.48581 0.29230 0.99007 0.34500
C 	C 	0.84567 0.54180 0.01139 0.28800
Ni	Ni	0.37948 0.14818 0.95001 1.07600
N 	N 	0.48518 0.58900 0.30193 -0.23300
N 	N 	0.44208 0.45840 0.32405 -0.15700
N 	N 	0.16513 0.30449 0.13608 -0.24000
N 	N 	0.23734 0.29860 0.22337 -0.15800
N 	N 	0.40927 0.98493 0.42363 -0.21800
N 	N 	0.40580 0.12300 0.37763 -0.15900
O 	O 	0.40215 0.71238 0.19544 -0.37200
O 	O 	0.47176 0.80647 0.18322 -0.36200
O 	O 	0.96366 0.71032 0.96587 -0.41800
O 	O 	0.95564 0.85739 0.00309 -0.30000
O 	O 	0.30590 0.06127 0.95960 -0.37600
O 	O 	0.39846 0.08369 0.03182 -0.38400
C 	C 	0.42319 0.29180 0.35180 -0.28000
H 	H 	0.46470 0.28920 0.37940 0.14200
C 	C 	0.40083 0.37580 0.31716 0.22500
C 	C 	0.33882 0.38120 0.27543 -0.27400
H 	H 	0.32380 0.43790 0.25240 0.13200
C 	C 	0.30010 0.29900 0.26930 0.22400
C 	C 	0.32099 0.21550 0.30338 -0.28000
H 	H 	0.29410 0.16190 0.29890 0.13500
C 	C 	0.38333 0.21210 0.34497 0.23000
C 	C 	0.44102 0.52100 0.28207 0.10700
H 	H 	0.41220 0.51650 0.24330 -0.01100
C 	C 	0.51669 0.56930 0.36076 0.01500
H 	H 	0.55040 0.60620 0.38680 0.03100
C 	C 	0.49166 0.48950 0.37485 -0.00300
H 	H 	0.50490 0.46060 0.41150 0.05100
C 	C 	0.22230 0.32820 0.16857 0.10700
H 	H 	0.24930 0.36100 0.15590 -0.01700
C 	C 	0.13854 0.26750 0.17000 0.01600
H 	H 	0.09630 0.25120 0.15790 0.02400
C 	C 	0.18424 0.25850 0.22455 0.00000
H 	H 	0.18030 0.23060 0.25650 0.04100
C 	C 	0.37213 0.05560 0.39227 0.10900
H 	H 	0.32900 0.05890 0.38160 -0.01200
C 	C 	0.46762 0.00270 0.42735 0.01500
H 	H 	0.50250 0.96170 0.44570 0.03900
C 	C 	0.46709 0.08830 0.40049 0.00600
H 	H 	0.50130 0.11890 0.39760 0.04800
C 	C 	0.41566 0.78340 0.16916 0.29100
C 	C 	0.36339 0.83890 0.12091 -0.05800
C 	C 	0.29990 0.81470 0.10543 -0.02700
H 	H 	0.28990 0.76300 0.12460 0.05500
C 	C 	0.37775 0.91600 0.09220 -0.00100
H 	H 	0.41950 0.93430 0.10340 0.05800
C 	C 	0.25163 0.86780 0.06144 -0.01800
C 	C 	0.33045 0.96660 0.04680 -0.06600
C 	C 	0.26764 0.94240 0.03206 -0.02900
H 	H 	0.23600 0.97680 0.00200 0.05300
C 	C 	0.18379 0.84620 0.04444 0.08500
C 	C 	0.15938 0.75010 0.02953 -0.14500
H 	H 	0.18620 0.69680 0.03300 0.09100
C 	C 	0.14252 0.92340 0.03973 -0.13700
H 	H 	0.15810 0.98810 0.04870 0.08400
C 	C 	0.07938 0.90720 0.02222 0.06400
H 	H 	0.05300 0.96020 0.02050 0.02600
C 	C 	0.09536 0.73390 0.00957 0.07800
H 	H 	0.07940 0.67010 0.99770 0.01700
C 	C 	0.05451 0.81050 0.00679 -0.14700
C 	C 	0.98581 0.79230 0.99007 0.36700
C 	C 	0.34567 0.04180 0.01139 0.28600
Ni	Ni	0.00000 0.80650 0.75000 1.08500
Ni	Ni	0.50000 0.30650 0.75000 1.09400
Ni	Ni	0.00000 0.19350 0.25000 1.08500
Ni	Ni	0.50000 0.69350 0.25000 1.09400
