data_crystal

_cell_length_a 7.46530
_cell_length_b 7.46530
_cell_length_c 12.41420
_cell_angle_alpha 81.72570
_cell_angle_beta  81.72570
_cell_angle_gamma 64.27300

_symmetry_space_group_name_	'P 1'
_symmetry_space_group_name_H-M	'P 1'

loop_
_symmetry_equiv_pos_as_xyz
  x,y,z

loop_
_atom_site_label
_atom_site_type_symbol
_atom_site_fract_x
_atom_site_fract_y
_atom_site_fract_z
_atom_site_charge
Zn	Zn	0.12315 0.87685 0.25000 1.14200
Zn	Zn	0.87685 0.12315 0.75000 1.14600
Ni	Ni	-0.00000 0.50000 -0.00000 0.95400
Ni	Ni	0.50000 0.00000 0.50000 0.98900
C 	C 	0.04040 0.27040 0.09398 -0.38700
C 	C 	0.07650 0.60770 0.10210 -0.36200
C 	C 	0.72960 0.95960 0.40602 -0.19600
C 	C 	0.39230 0.92350 0.39790 -0.21900
C 	C 	0.95960 0.72960 0.90602 -0.13600
C 	C 	0.92350 0.39230 0.89790 -0.16600
C 	C 	0.27040 0.04040 0.59398 -0.34900
C 	C 	0.60770 0.07650 0.60210 -0.32800
N 	N 	0.06726 0.12646 0.15003 -0.30100
N 	N 	0.12315 0.67895 0.16178 -0.27000
N 	N 	0.87354 0.93274 0.34997 -0.21300
N 	N 	0.32105 0.87685 0.33822 -0.27400
N 	N 	0.93274 0.87354 0.84997 -0.20300
N 	N 	0.87685 0.32105 0.83822 -0.27400
N 	N 	0.12646 0.06726 0.65003 -0.28800
N 	N 	0.67895 0.12315 0.66178 -0.26500
