data_crystal

_cell_length_a 10.47100
_cell_length_b 10.47100
_cell_length_c 14.64500
_cell_angle_alpha 90.00000
_cell_angle_beta  90.00000
_cell_angle_gamma 90.00000

_symmetry_space_group_name_	'P 1'
_symmetry_space_group_name_H-M	'P 1'

loop_
_symmetry_equiv_pos_as_xyz
  x,y,z

loop_
_atom_site_label
_atom_site_type_symbol
_atom_site_fract_x
_atom_site_fract_y
_atom_site_fract_z
_atom_site_charge
Gd	Gd	0.14273 0.85727 0.87500 1.65400
Gd	Gd	0.85727 0.14273 0.37500 1.64000
Gd	Gd	0.14273 0.14273 0.62500 1.60000
Gd	Gd	0.85727 0.85727 0.12500 1.66100
H 	H 	0.06430 0.44400 0.86920 0.00200
H 	H 	0.93570 0.55600 0.36920 0.00500
H 	H 	0.55600 0.06430 0.61920 0.00900
H 	H 	0.44400 0.93570 0.11920 -0.00200
H 	H 	0.93570 0.44400 0.13080 0.00200
H 	H 	0.06430 0.55600 0.63080 0.00900
H 	H 	0.44400 0.06430 0.38080 0.00400
H 	H 	0.55600 0.93570 0.88080 0.01000
H 	H 	-0.00000 0.10950 -0.00000 -0.02300
H 	H 	0.00000 0.89050 0.50000 -0.00100
H 	H 	0.89050 0.00000 0.75000 -0.00000
H 	H 	0.10950 0.00000 0.25000 -0.02400
C 	C 	0.07550 0.18970 0.83670 0.45300
C 	C 	0.03840 0.39950 0.92090 0.12900
C 	C 	0.03760 0.26490 0.92060 -0.18400
C 	C 	0.92450 0.81030 0.33670 0.45100
C 	C 	0.96160 0.60050 0.42090 0.13600
C 	C 	0.96240 0.73510 0.42060 -0.15800
C 	C 	0.81030 0.07550 0.58670 0.44800
C 	C 	0.60050 0.03840 0.67090 0.10600
C 	C 	0.73510 0.03760 0.67060 -0.18100
C 	C 	0.18970 0.92450 0.08670 0.45900
C 	C 	0.39950 0.96160 0.17090 0.14500
C 	C 	0.26490 0.96240 0.17060 -0.17800
C 	C 	0.92450 0.18970 0.16330 0.45600
C 	C 	0.96160 0.39950 0.07910 0.13900
C 	C 	0.96240 0.26490 0.07940 -0.17500
C 	C 	0.07550 0.81030 0.66330 0.44800
C 	C 	0.03840 0.60050 0.57910 0.10600
C 	C 	0.03760 0.73510 0.57940 -0.18200
C 	C 	0.18970 0.07550 0.41330 0.45500
C 	C 	0.39950 0.03840 0.32910 0.11500
C 	C 	0.26490 0.03760 0.32940 -0.20000
C 	C 	0.81030 0.92450 0.91330 0.45000
C 	C 	0.60050 0.96160 0.82910 0.13400
C 	C 	0.73510 0.96240 0.82940 -0.15400
C 	C 	-0.00000 0.61270 -0.00000 0.41200
C 	C 	-0.00000 0.46690 -0.00000 -0.22400
C 	C 	-0.00000 0.19830 -0.00000 0.07300
C 	C 	0.00000 0.38730 0.50000 0.42200
C 	C 	-0.00000 0.53310 0.50000 -0.20300
C 	C 	0.00000 0.80170 0.50000 0.08300
C 	C 	0.38730 0.00000 0.75000 0.42200
C 	C 	0.53310 0.00000 0.75000 -0.20100
C 	C 	0.80170 0.00000 0.75000 0.08100
C 	C 	0.61270 0.00000 0.25000 0.42700
C 	C 	0.46690 0.00000 0.25000 -0.21400
C 	C 	0.19830 0.00000 0.25000 0.09300
O 	O 	0.06860 0.66820 0.94080 -0.45200
O 	O 	0.07570 0.24750 0.76070 -0.45100
O 	O 	0.10280 0.07620 0.84300 -0.49300
O 	O 	0.93140 0.33180 0.44080 -0.43700
O 	O 	0.92430 0.75250 0.26070 -0.44000
O 	O 	0.89720 0.92380 0.34300 -0.44800
O 	O 	0.33180 0.06860 0.69080 -0.45900
O 	O 	0.75250 0.07570 0.51070 -0.44800
O 	O 	0.92380 0.10280 0.59300 -0.45800
O 	O 	0.66820 0.93140 0.19080 -0.44500
O 	O 	0.24750 0.92430 0.01070 -0.45600
O 	O 	0.07620 0.89720 0.09300 -0.48800
O 	O 	0.93140 0.66820 0.05920 -0.44500
O 	O 	0.92430 0.24750 0.23930 -0.44400
O 	O 	0.89720 0.07620 0.15700 -0.48600
O 	O 	0.06860 0.33180 0.55920 -0.46000
O 	O 	0.07570 0.75250 0.73930 -0.45000
O 	O 	0.10280 0.92380 0.65700 -0.45900
O 	O 	0.66820 0.06860 0.30920 -0.46600
O 	O 	0.24750 0.07570 0.48930 -0.45200
O 	O 	0.07620 0.10280 0.40700 -0.49600
O 	O 	0.33180 0.93140 0.80920 -0.43500
O 	O 	0.75250 0.92430 0.98930 -0.42600
O 	O 	0.92380 0.89720 0.90700 -0.44100
