data_crystal

_cell_length_a 16.61440
_cell_length_b 32.78200
_cell_length_c 17.86620
_cell_angle_alpha 90.00000
_cell_angle_beta  90.00000
_cell_angle_gamma 90.00000

_symmetry_space_group_name_	'P 1'
_symmetry_space_group_name_H-M	'P 1'

loop_
_symmetry_equiv_pos_as_xyz
  x,y,z

loop_
_atom_site_label
_atom_site_type_symbol
_atom_site_fract_x
_atom_site_fract_y
_atom_site_fract_z
_atom_site_charge
Cd	Cd	0.20494 0.16256 0.70299 1.23100
Cd	Cd	0.29722 0.13065 0.52748 1.25500
Cd	Cd	0.79506 0.33744 0.70299 1.23100
Cd	Cd	0.70278 0.36935 0.52748 1.25500
Cd	Cd	0.20494 0.83744 0.79701 1.23000
Cd	Cd	0.29722 0.86935 0.97252 1.25400
Cd	Cd	0.79506 0.66256 0.79701 1.23000
Cd	Cd	0.70278 0.63065 0.97252 1.25400
Cd	Cd	0.79506 0.83744 0.29701 1.23000
Cd	Cd	0.70278 0.86935 0.47252 1.25400
Cd	Cd	0.20494 0.66256 0.29701 1.23000
Cd	Cd	0.29722 0.63065 0.47252 1.25400
Cd	Cd	0.79506 0.16256 0.20299 1.23000
Cd	Cd	0.70278 0.13065 0.02748 1.25400
Cd	Cd	0.20494 0.33744 0.20299 1.23000
Cd	Cd	0.29722 0.36935 0.02748 1.25400
H 	H 	0.88300 0.24030 0.77970 -0.01300
H 	H 	0.81890 0.24080 0.89330 0.15200
H 	H 	0.73980 0.12650 0.85640 0.15300
H 	H 	0.80720 0.12550 0.74450 -0.02600
H 	H 	0.95590 0.17270 0.68950 0.02500
H 	H 	0.91210 0.21290 0.66510 0.02400
H 	H 	0.79670 0.24580 0.56900 0.27800
H 	H 	0.71670 0.22430 0.59370 0.27800
H 	H 	0.78810 0.22860 0.65050 0.27600
H 	H 	0.95030 0.11100 0.69530 0.31700
H 	H 	0.95220 0.07460 0.63830 0.30700
H 	H 	0.01010 0.11190 0.62740 0.31300
H 	H 	0.71860 0.10840 0.41410 0.29200
H 	H 	0.79730 0.12020 0.37070 0.28400
H 	H 	0.79160 0.07810 0.41220 0.29100
H 	H 	0.74240 0.18570 0.40710 0.02100
H 	H 	0.72200 0.21580 0.47250 0.01600
H 	H 	0.61970 0.18600 0.35130 -0.02100
H 	H 	0.48420 0.16680 0.35490 0.17300
H 	H 	0.50250 0.12560 0.55530 0.18000
H 	H 	0.63050 0.15530 0.57020 -0.03200
H 	H 	0.95890 0.06270 0.52020 0.01700
H 	H 	0.91420 0.07150 0.44450 0.01900
H 	H 	0.78960 0.04950 0.59750 -0.02800
H 	H 	0.71860 0.99180 0.61600 0.15400
H 	H 	0.83980 0.93900 0.44570 0.14100
H 	H 	0.90760 0.00100 0.42860 -0.03400
H 	H 	0.00940 0.21760 0.52540 0.03800
H 	H 	0.92250 0.21550 0.42580 0.05700
H 	H 	0.02500 0.11180 0.35550 0.05200
H 	H 	0.10950 0.11310 0.46290 0.03100
H 	H 	0.33060 0.01010 0.62130 0.05300
H 	H 	0.31380 0.05590 0.83170 0.03200
H 	H 	0.44250 0.23100 0.54860 0.04300
H 	H 	0.44220 0.23210 0.77170 0.04700
H 	H 	0.11700 0.25970 0.77970 -0.01300
H 	H 	0.18110 0.25920 0.89330 0.15200
H 	H 	0.26020 0.37350 0.85640 0.15300
H 	H 	0.19280 0.37450 0.74450 -0.02600
H 	H 	0.04410 0.32730 0.68950 0.02500
H 	H 	0.08790 0.28710 0.66510 0.02400
H 	H 	0.20330 0.25420 0.56900 0.27800
H 	H 	0.28330 0.27570 0.59370 0.27800
H 	H 	0.21190 0.27140 0.65050 0.27600
H 	H 	0.04970 0.38900 0.69530 0.31700
H 	H 	0.04780 0.42540 0.63830 0.30700
H 	H 	0.98990 0.38810 0.62740 0.31300
H 	H 	0.28140 0.39160 0.41410 0.29200
H 	H 	0.20270 0.37980 0.37070 0.28400
H 	H 	0.20840 0.42190 0.41220 0.29100
H 	H 	0.25760 0.31430 0.40710 0.02100
H 	H 	0.27800 0.28420 0.47250 0.01600
H 	H 	0.38030 0.31400 0.35130 -0.02100
H 	H 	0.51580 0.33320 0.35490 0.17300
H 	H 	0.49750 0.37440 0.55530 0.18000
H 	H 	0.36950 0.34470 0.57020 -0.03200
H 	H 	0.04110 0.43730 0.52020 0.01700
H 	H 	0.08580 0.42850 0.44450 0.01900
H 	H 	0.21040 0.45050 0.59750 -0.02800
H 	H 	0.28140 0.50820 0.61600 0.15400
H 	H 	0.16020 0.56100 0.44570 0.14100
H 	H 	0.09240 0.49900 0.42860 -0.03400
H 	H 	0.99060 0.28240 0.52540 0.03800
H 	H 	0.07750 0.28450 0.42580 0.05700
H 	H 	0.97500 0.38820 0.35550 0.05200
H 	H 	0.89050 0.38690 0.46290 0.03100
H 	H 	0.66940 0.48990 0.62130 0.05300
H 	H 	0.68620 0.44410 0.83170 0.03200
H 	H 	0.55750 0.26900 0.54860 0.04300
H 	H 	0.55780 0.26790 0.77170 0.04700
H 	H 	0.88300 0.75970 0.72030 -0.01300
H 	H 	0.81890 0.75920 0.60670 0.15200
H 	H 	0.73980 0.87350 0.64360 0.15300
H 	H 	0.80720 0.87450 0.75550 -0.02600
H 	H 	0.95590 0.82730 0.81050 0.02400
H 	H 	0.91210 0.78710 0.83490 0.02400
H 	H 	0.79670 0.75420 0.93100 0.27800
H 	H 	0.71670 0.77570 0.90630 0.27800
H 	H 	0.78810 0.77140 0.84950 0.27700
H 	H 	0.95030 0.88900 0.80470 0.31700
H 	H 	0.95220 0.92540 0.86170 0.30700
H 	H 	0.01010 0.88810 0.87260 0.31400
H 	H 	0.71860 0.89160 0.08590 0.29300
H 	H 	0.79730 0.87980 0.12930 0.28500
H 	H 	0.79160 0.92190 0.08780 0.29100
H 	H 	0.74240 0.81430 0.09290 0.02000
H 	H 	0.72200 0.78420 0.02750 0.01600
H 	H 	0.61970 0.81400 0.14870 -0.02100
H 	H 	0.48420 0.83320 0.14510 0.17300
H 	H 	0.50250 0.87440 0.94470 0.18000
H 	H 	0.63050 0.84470 0.92980 -0.03200
H 	H 	0.95890 0.93730 0.97980 0.01600
H 	H 	0.91420 0.92850 0.05550 0.01900
H 	H 	0.78960 0.95050 0.90250 -0.02800
H 	H 	0.71860 0.00820 0.88400 0.15400
H 	H 	0.83980 0.06100 0.05430 0.14100
H 	H 	0.90760 0.99900 0.07140 -0.03300
H 	H 	0.00940 0.78240 0.97460 0.03800
H 	H 	0.92250 0.78450 0.07420 0.05700
H 	H 	0.02500 0.88820 0.14450 0.05200
H 	H 	0.10950 0.88690 0.03710 0.03000
H 	H 	0.33060 0.98990 0.87870 0.05300
H 	H 	0.31380 0.94410 0.66830 0.03200
H 	H 	0.44250 0.76900 0.95140 0.04300
H 	H 	0.44220 0.76790 0.72830 0.04700
H 	H 	0.11700 0.74030 0.72030 -0.01300
H 	H 	0.18110 0.74080 0.60670 0.15200
H 	H 	0.26020 0.62650 0.64360 0.15300
H 	H 	0.19280 0.62550 0.75550 -0.02600
H 	H 	0.04410 0.67270 0.81050 0.02500
H 	H 	0.08790 0.71290 0.83490 0.02400
H 	H 	0.20330 0.74580 0.93100 0.27800
H 	H 	0.28330 0.72430 0.90630 0.27800
H 	H 	0.21190 0.72860 0.84950 0.27600
H 	H 	0.04970 0.61100 0.80470 0.31700
H 	H 	0.04780 0.57460 0.86170 0.30700
H 	H 	0.98990 0.61190 0.87260 0.31400
H 	H 	0.28140 0.60840 0.08590 0.29200
H 	H 	0.20270 0.62020 0.12930 0.28500
H 	H 	0.20840 0.57810 0.08780 0.29100
H 	H 	0.25760 0.68570 0.09290 0.02000
H 	H 	0.27800 0.71580 0.02750 0.01600
H 	H 	0.38030 0.68600 0.14870 -0.02100
H 	H 	0.51580 0.66680 0.14510 0.17300
H 	H 	0.49750 0.62560 0.94470 0.18000
H 	H 	0.36950 0.65530 0.92980 -0.03200
H 	H 	0.04110 0.56270 0.97980 0.01700
H 	H 	0.08580 0.57150 0.05550 0.01900
H 	H 	0.21040 0.54950 0.90250 -0.02800
H 	H 	0.28140 0.49180 0.88400 0.15400
H 	H 	0.16020 0.43900 0.05430 0.14100
H 	H 	0.09240 0.50100 0.07140 -0.03400
H 	H 	0.99060 0.71760 0.97460 0.03800
H 	H 	0.07750 0.71550 0.07420 0.05700
H 	H 	0.97500 0.61180 0.14450 0.05200
H 	H 	0.89050 0.61310 0.03710 0.03000
H 	H 	0.66940 0.51010 0.87870 0.05300
H 	H 	0.68620 0.55590 0.66830 0.03200
H 	H 	0.55750 0.73100 0.95140 0.04300
H 	H 	0.55780 0.73210 0.72830 0.04700
H 	H 	0.11700 0.75970 0.22030 -0.01300
H 	H 	0.18110 0.75920 0.10670 0.15200
H 	H 	0.26020 0.87350 0.14360 0.15300
H 	H 	0.19280 0.87450 0.25550 -0.02600
H 	H 	0.04410 0.82730 0.31050 0.02500
H 	H 	0.08790 0.78710 0.33490 0.02400
H 	H 	0.20330 0.75420 0.43100 0.27800
H 	H 	0.28330 0.77570 0.40630 0.27800
H 	H 	0.21190 0.77140 0.34950 0.27600
H 	H 	0.04970 0.88900 0.30470 0.31700
H 	H 	0.04780 0.92540 0.36170 0.30700
H 	H 	0.98990 0.88810 0.37260 0.31300
H 	H 	0.28140 0.89160 0.58590 0.29200
H 	H 	0.20270 0.87980 0.62930 0.28400
H 	H 	0.20840 0.92190 0.58780 0.29100
H 	H 	0.25760 0.81430 0.59290 0.02100
H 	H 	0.27800 0.78420 0.52750 0.01600
H 	H 	0.38030 0.81400 0.64870 -0.02100
H 	H 	0.51580 0.83320 0.64510 0.17300
H 	H 	0.49750 0.87440 0.44470 0.18000
H 	H 	0.36950 0.84470 0.42980 -0.03200
H 	H 	0.04110 0.93730 0.47980 0.01700
H 	H 	0.08580 0.92850 0.55550 0.01900
H 	H 	0.21040 0.95050 0.40250 -0.02800
H 	H 	0.28140 0.00820 0.38400 0.15400
H 	H 	0.16020 0.06100 0.55430 0.14100
H 	H 	0.09240 0.99900 0.57140 -0.03400
H 	H 	0.99060 0.78240 0.47460 0.03800
H 	H 	0.07750 0.78450 0.57420 0.05700
H 	H 	0.97500 0.88820 0.64450 0.05200
H 	H 	0.89050 0.88690 0.53710 0.03100
H 	H 	0.66940 0.98990 0.37870 0.05300
H 	H 	0.68620 0.94410 0.16830 0.03200
H 	H 	0.55750 0.76900 0.45140 0.04300
H 	H 	0.55780 0.76790 0.22830 0.04700
H 	H 	0.88300 0.74030 0.22030 -0.01300
H 	H 	0.81890 0.74080 0.10670 0.15200
H 	H 	0.73980 0.62650 0.14360 0.15300
H 	H 	0.80720 0.62550 0.25550 -0.02600
H 	H 	0.95590 0.67270 0.31050 0.02500
H 	H 	0.91210 0.71290 0.33490 0.02400
H 	H 	0.79670 0.74580 0.43100 0.27800
H 	H 	0.71670 0.72430 0.40630 0.27800
H 	H 	0.78810 0.72860 0.34950 0.27600
H 	H 	0.95030 0.61100 0.30470 0.31700
H 	H 	0.95220 0.57460 0.36170 0.30700
H 	H 	0.01010 0.61190 0.37260 0.31300
H 	H 	0.71860 0.60840 0.58590 0.29200
H 	H 	0.79730 0.62020 0.62930 0.28400
H 	H 	0.79160 0.57810 0.58780 0.29100
H 	H 	0.74240 0.68570 0.59290 0.02100
H 	H 	0.72200 0.71580 0.52750 0.01600
H 	H 	0.61970 0.68600 0.64870 -0.02100
H 	H 	0.48420 0.66680 0.64510 0.17300
H 	H 	0.50250 0.62560 0.44470 0.18000
H 	H 	0.63050 0.65530 0.42980 -0.03200
H 	H 	0.95890 0.56270 0.47980 0.01700
H 	H 	0.91420 0.57150 0.55550 0.01900
H 	H 	0.78960 0.54950 0.40250 -0.02800
H 	H 	0.71860 0.49180 0.38400 0.15400
H 	H 	0.83980 0.43900 0.55430 0.14100
H 	H 	0.90760 0.50100 0.57140 -0.03400
H 	H 	0.00940 0.71760 0.47460 0.03800
H 	H 	0.92250 0.71550 0.57420 0.05700
H 	H 	0.02500 0.61180 0.64450 0.05200
H 	H 	0.10950 0.61310 0.53710 0.03100
H 	H 	0.33060 0.51010 0.37870 0.05300
H 	H 	0.31380 0.55590 0.16830 0.03200
H 	H 	0.44250 0.73100 0.45140 0.04300
H 	H 	0.44220 0.73210 0.22830 0.04700
H 	H 	0.11700 0.24030 0.27970 -0.01300
H 	H 	0.18110 0.24080 0.39330 0.15200
H 	H 	0.26020 0.12650 0.35640 0.15300
H 	H 	0.19280 0.12550 0.24450 -0.02600
H 	H 	0.04410 0.17270 0.18950 0.02400
H 	H 	0.08790 0.21290 0.16510 0.02400
H 	H 	0.20330 0.24580 0.06900 0.27800
H 	H 	0.28330 0.22430 0.09370 0.27800
H 	H 	0.21190 0.22860 0.15050 0.27700
H 	H 	0.04970 0.11100 0.19530 0.31700
H 	H 	0.04780 0.07460 0.13830 0.30700
H 	H 	0.98990 0.11190 0.12740 0.31400
H 	H 	0.28140 0.10840 0.91410 0.29300
H 	H 	0.20270 0.12020 0.87070 0.28500
H 	H 	0.20840 0.07810 0.91220 0.29100
H 	H 	0.25760 0.18570 0.90710 0.02000
H 	H 	0.27800 0.21580 0.97250 0.01600
H 	H 	0.38030 0.18600 0.85130 -0.02100
H 	H 	0.51580 0.16680 0.85490 0.17300
H 	H 	0.49750 0.12560 0.05530 0.18000
H 	H 	0.36950 0.15530 0.07020 -0.03200
H 	H 	0.04110 0.06270 0.02020 0.01600
H 	H 	0.08580 0.07150 0.94450 0.01900
H 	H 	0.21040 0.04950 0.09750 -0.02800
H 	H 	0.28140 0.99180 0.11600 0.15400
H 	H 	0.16020 0.93900 0.94570 0.14100
H 	H 	0.09240 0.00100 0.92860 -0.03300
H 	H 	0.99060 0.21760 0.02540 0.03800
H 	H 	0.07750 0.21550 0.92580 0.05700
H 	H 	0.97500 0.11180 0.85550 0.05200
H 	H 	0.89050 0.11310 0.96290 0.03000
H 	H 	0.66940 0.01010 0.12130 0.05300
H 	H 	0.68620 0.05590 0.33170 0.03200
H 	H 	0.55750 0.23100 0.04860 0.04300
H 	H 	0.55780 0.23210 0.27170 0.04700
H 	H 	0.88300 0.25970 0.27970 -0.01300
H 	H 	0.81890 0.25920 0.39330 0.15200
H 	H 	0.73980 0.37350 0.35640 0.15300
H 	H 	0.80720 0.37450 0.24450 -0.02600
H 	H 	0.95590 0.32730 0.18950 0.02500
H 	H 	0.91210 0.28710 0.16510 0.02400
H 	H 	0.79670 0.25420 0.06900 0.27800
H 	H 	0.71670 0.27570 0.09370 0.27800
H 	H 	0.78810 0.27140 0.15050 0.27600
H 	H 	0.95030 0.38900 0.19530 0.31700
H 	H 	0.95220 0.42540 0.13830 0.30700
H 	H 	0.01010 0.38810 0.12740 0.31400
H 	H 	0.71860 0.39160 0.91410 0.29200
H 	H 	0.79730 0.37980 0.87070 0.28500
H 	H 	0.79160 0.42190 0.91220 0.29100
H 	H 	0.74240 0.31430 0.90710 0.02000
H 	H 	0.72200 0.28420 0.97250 0.01600
H 	H 	0.61970 0.31400 0.85130 -0.02100
H 	H 	0.48420 0.33320 0.85490 0.17300
H 	H 	0.50250 0.37440 0.05530 0.18000
H 	H 	0.63050 0.34470 0.07020 -0.03200
H 	H 	0.95890 0.43730 0.02020 0.01700
H 	H 	0.91420 0.42850 0.94450 0.01900
H 	H 	0.78960 0.45050 0.09750 -0.02800
H 	H 	0.71860 0.50820 0.11600 0.15400
H 	H 	0.83980 0.56100 0.94570 0.14100
H 	H 	0.90760 0.49900 0.92860 -0.03400
H 	H 	0.00940 0.28240 0.02540 0.03800
H 	H 	0.92250 0.28450 0.92580 0.05700
H 	H 	0.02500 0.38820 0.85550 0.05200
H 	H 	0.10950 0.38690 0.96290 0.03000
H 	H 	0.33060 0.48990 0.12130 0.05300
H 	H 	0.31380 0.44410 0.33170 0.03200
H 	H 	0.44250 0.26900 0.04860 0.04300
H 	H 	0.44220 0.26790 0.27170 0.04700
C 	C 	0.85480 0.21736 0.79550 0.15000
C 	C 	0.81630 0.21769 0.86330 -0.30800
C 	C 	0.77330 0.18365 0.88770 0.36800
C 	C 	0.76940 0.14920 0.84140 -0.33000
C 	C 	0.80890 0.14880 0.77430 0.16600
C 	C 	0.90370 0.18464 0.67900 0.04600
C 	C 	0.86620 0.16269 0.61540 -0.27800
C 	C 	0.89480 0.12453 0.59700 0.38500
C 	C 	0.86710 0.10605 0.53290 -0.26300
C 	C 	0.80980 0.12580 0.48420 0.33900
C 	C 	0.78090 0.16415 0.50950 -0.26400
C 	C 	0.80900 0.18180 0.57180 0.33400
C 	C 	0.77420 0.22434 0.59890 -0.80900
C 	C 	0.95750 0.10363 0.64370 -0.92800
C 	C 	0.77630 0.10635 0.41380 -0.85400
C 	C 	0.72250 0.18725 0.45810 0.05400
C 	C 	0.59710 0.17560 0.39500 0.17100
C 	C 	0.51580 0.16310 0.39730 -0.37800
C 	C 	0.48220 0.14600 0.45810 0.46700
C 	C 	0.52450 0.14050 0.51600 -0.42400
C 	C 	0.60430 0.15590 0.52420 0.18800
C 	C 	0.90650 0.06723 0.49780 0.03100
C 	C 	0.79860 0.02710 0.56670 0.17700
C 	C 	0.75720 0.99256 0.57830 -0.33100
C 	C 	0.77110 0.95681 0.53400 0.38500
C 	C 	0.82850 0.96100 0.47690 -0.32900
C 	C 	0.86950 0.99851 0.46650 0.16300
C 	C 	0.11820 0.16621 0.57350 0.33500
C 	C 	0.06640 0.16510 0.50500 -0.10200
C 	C 	0.01170 0.19569 0.49230 0.00600
C 	C 	0.96040 0.19496 0.43230 -0.05200
C 	C 	0.96570 0.16370 0.38220 -0.03500
C 	C 	0.02100 0.13266 0.39050 -0.05000
C 	C 	0.07220 0.13380 0.45500 0.00200
C 	C 	0.90830 0.16092 0.31730 0.25500
C 	C 	0.30640 0.07780 0.67840 0.33600
C 	C 	0.31680 0.03874 0.72090 -0.07200
C 	C 	0.32290 0.00580 0.67220 -0.03600
C 	C 	0.31720 0.03361 0.79970 -0.01200
C 	C 	0.35280 0.20252 0.65940 0.38000
C 	C 	0.46530 0.23872 0.59410 -0.01700
C 	C 	0.42830 0.22713 0.65970 -0.09600
C 	C 	0.46560 0.23920 0.72620 -0.01600
C 	C 	0.14520 0.28264 0.79550 0.15000
C 	C 	0.18370 0.28231 0.86330 -0.30800
C 	C 	0.22670 0.31635 0.88770 0.36800
C 	C 	0.23060 0.35080 0.84140 -0.33000
C 	C 	0.19110 0.35120 0.77430 0.16600
C 	C 	0.09630 0.31536 0.67900 0.04600
C 	C 	0.13380 0.33731 0.61540 -0.27800
C 	C 	0.10520 0.37547 0.59700 0.38500
C 	C 	0.13290 0.39395 0.53290 -0.26300
C 	C 	0.19020 0.37420 0.48420 0.33900
C 	C 	0.21910 0.33585 0.50950 -0.26400
C 	C 	0.19100 0.31820 0.57180 0.33400
C 	C 	0.22580 0.27566 0.59890 -0.80900
C 	C 	0.04250 0.39637 0.64370 -0.92800
C 	C 	0.22370 0.39365 0.41380 -0.85400
C 	C 	0.27750 0.31275 0.45810 0.05400
C 	C 	0.40290 0.32440 0.39500 0.17100
C 	C 	0.48420 0.33690 0.39730 -0.37800
C 	C 	0.51780 0.35400 0.45810 0.46700
C 	C 	0.47550 0.35950 0.51600 -0.42400
C 	C 	0.39570 0.34410 0.52420 0.18800
C 	C 	0.09350 0.43277 0.49780 0.03100
C 	C 	0.20140 0.47290 0.56670 0.17700
C 	C 	0.24280 0.50744 0.57830 -0.33100
C 	C 	0.22890 0.54319 0.53400 0.38500
C 	C 	0.17150 0.53900 0.47690 -0.32900
C 	C 	0.13050 0.50149 0.46650 0.16200
C 	C 	0.88180 0.33379 0.57350 0.33500
C 	C 	0.93360 0.33490 0.50500 -0.10200
C 	C 	0.98830 0.30431 0.49230 0.00600
C 	C 	0.03960 0.30504 0.43230 -0.05200
C 	C 	0.03430 0.33630 0.38220 -0.03500
C 	C 	0.97900 0.36734 0.39050 -0.05000
C 	C 	0.92780 0.36620 0.45500 0.00200
C 	C 	0.09170 0.33908 0.31730 0.25500
C 	C 	0.69360 0.42220 0.67840 0.33500
C 	C 	0.68320 0.46126 0.72090 -0.07200
C 	C 	0.67710 0.49420 0.67220 -0.03600
C 	C 	0.68280 0.46639 0.79970 -0.01300
C 	C 	0.64720 0.29748 0.65940 0.38000
C 	C 	0.53470 0.26128 0.59410 -0.01700
C 	C 	0.57170 0.27287 0.65970 -0.09600
C 	C 	0.53440 0.26080 0.72620 -0.01600
C 	C 	0.85480 0.78264 0.70450 0.15000
C 	C 	0.81630 0.78231 0.63670 -0.30800
C 	C 	0.77330 0.81635 0.61230 0.36800
C 	C 	0.76940 0.85080 0.65860 -0.33000
C 	C 	0.80890 0.85120 0.72570 0.16600
C 	C 	0.90370 0.81536 0.82100 0.04700
C 	C 	0.86620 0.83731 0.88460 -0.27800
C 	C 	0.89480 0.87547 0.90300 0.38600
C 	C 	0.86710 0.89395 0.96710 -0.26400
C 	C 	0.80980 0.87420 0.01580 0.34000
C 	C 	0.78090 0.83585 0.99050 -0.26500
C 	C 	0.80900 0.81820 0.92820 0.33500
C 	C 	0.77420 0.77566 0.90110 -0.81000
C 	C 	0.95750 0.89637 0.85630 -0.92900
C 	C 	0.77630 0.89365 0.08620 -0.85500
C 	C 	0.72250 0.81275 0.04190 0.05500
C 	C 	0.59710 0.82440 0.10500 0.17100
C 	C 	0.51580 0.83690 0.10270 -0.37900
C 	C 	0.48220 0.85400 0.04190 0.46800
C 	C 	0.52450 0.85950 0.98400 -0.42500
C 	C 	0.60430 0.84410 0.97580 0.18800
C 	C 	0.90650 0.93277 0.00220 0.03300
C 	C 	0.79860 0.97290 0.93330 0.17600
C 	C 	0.75720 0.00744 0.92170 -0.33100
C 	C 	0.77110 0.04319 0.96600 0.38600
C 	C 	0.82850 0.03900 0.02310 -0.32900
C 	C 	0.86950 0.00149 0.03350 0.16200
C 	C 	0.11820 0.83379 0.92650 0.33500
C 	C 	0.06640 0.83490 0.99500 -0.10300
C 	C 	0.01170 0.80431 0.00770 0.00800
C 	C 	0.96040 0.80504 0.06770 -0.05300
C 	C 	0.96570 0.83630 0.11780 -0.03400
C 	C 	0.02100 0.86734 0.10950 -0.05100
C 	C 	0.07220 0.86620 0.04500 0.00300
C 	C 	0.90830 0.83908 0.18270 0.25500
C 	C 	0.30640 0.92220 0.82160 0.33500
C 	C 	0.31680 0.96126 0.77910 -0.07200
C 	C 	0.32290 0.99420 0.82780 -0.03600
C 	C 	0.31720 0.96639 0.70030 -0.01300
C 	C 	0.35280 0.79748 0.84060 0.38000
C 	C 	0.46530 0.76128 0.90590 -0.01700
C 	C 	0.42830 0.77287 0.84030 -0.09600
C 	C 	0.46560 0.76080 0.77380 -0.01600
C 	C 	0.14520 0.71736 0.70450 0.15000
C 	C 	0.18370 0.71769 0.63670 -0.30800
C 	C 	0.22670 0.68365 0.61230 0.36800
C 	C 	0.23060 0.64920 0.65860 -0.33000
C 	C 	0.19110 0.64880 0.72570 0.16600
C 	C 	0.09630 0.68464 0.82100 0.04600
C 	C 	0.13380 0.66269 0.88460 -0.27800
C 	C 	0.10520 0.62453 0.90300 0.38500
C 	C 	0.13290 0.60605 0.96710 -0.26400
C 	C 	0.19020 0.62580 0.01580 0.34000
C 	C 	0.21910 0.66415 0.99050 -0.26500
C 	C 	0.19100 0.68180 0.92820 0.33500
C 	C 	0.22580 0.72434 0.90110 -0.80900
C 	C 	0.04250 0.60363 0.85630 -0.92800
C 	C 	0.22370 0.60635 0.08620 -0.85500
C 	C 	0.27750 0.68725 0.04190 0.05500
C 	C 	0.40290 0.67560 0.10500 0.17100
C 	C 	0.48420 0.66310 0.10270 -0.37800
C 	C 	0.51780 0.64600 0.04190 0.46800
C 	C 	0.47550 0.64050 0.98400 -0.42500
C 	C 	0.39570 0.65590 0.97580 0.18800
C 	C 	0.09350 0.56723 0.00220 0.03200
C 	C 	0.20140 0.52710 0.93330 0.17700
C 	C 	0.24280 0.49256 0.92170 -0.33100
C 	C 	0.22890 0.45681 0.96600 0.38600
C 	C 	0.17150 0.46100 0.02310 -0.32900
C 	C 	0.13050 0.49851 0.03350 0.16300
C 	C 	0.88180 0.66621 0.92650 0.33500
C 	C 	0.93360 0.66510 0.99500 -0.10300
C 	C 	0.98830 0.69569 0.00770 0.00800
C 	C 	0.03960 0.69496 0.06770 -0.05300
C 	C 	0.03430 0.66370 0.11780 -0.03400
C 	C 	0.97900 0.63266 0.10950 -0.05100
C 	C 	0.92780 0.63380 0.04500 0.00300
C 	C 	0.09170 0.66092 0.18270 0.25500
C 	C 	0.69360 0.57780 0.82160 0.33500
C 	C 	0.68320 0.53874 0.77910 -0.07200
C 	C 	0.67710 0.50580 0.82780 -0.03600
C 	C 	0.68280 0.53361 0.70030 -0.01300
C 	C 	0.64720 0.70252 0.84060 0.38000
C 	C 	0.53470 0.73872 0.90590 -0.01700
C 	C 	0.57170 0.72713 0.84030 -0.09600
C 	C 	0.53440 0.73920 0.77380 -0.01600
C 	C 	0.14520 0.78264 0.20450 0.15000
C 	C 	0.18370 0.78231 0.13670 -0.30800
C 	C 	0.22670 0.81635 0.11230 0.36800
C 	C 	0.23060 0.85080 0.15860 -0.33000
C 	C 	0.19110 0.85120 0.22570 0.16600
C 	C 	0.09630 0.81536 0.32100 0.04600
C 	C 	0.13380 0.83731 0.38460 -0.27800
C 	C 	0.10520 0.87547 0.40300 0.38500
C 	C 	0.13290 0.89395 0.46710 -0.26300
C 	C 	0.19020 0.87420 0.51580 0.33900
C 	C 	0.21910 0.83585 0.49050 -0.26400
C 	C 	0.19100 0.81820 0.42820 0.33400
C 	C 	0.22580 0.77566 0.40110 -0.80900
C 	C 	0.04250 0.89637 0.35630 -0.92800
C 	C 	0.22370 0.89365 0.58620 -0.85400
C 	C 	0.27750 0.81275 0.54190 0.05400
C 	C 	0.40290 0.82440 0.60500 0.17100
C 	C 	0.48420 0.83690 0.60270 -0.37800
C 	C 	0.51780 0.85400 0.54190 0.46700
C 	C 	0.47550 0.85950 0.48400 -0.42400
C 	C 	0.39570 0.84410 0.47580 0.18800
C 	C 	0.09350 0.93277 0.50220 0.03100
C 	C 	0.20140 0.97290 0.43330 0.17700
C 	C 	0.24280 0.00744 0.42170 -0.33100
C 	C 	0.22890 0.04319 0.46600 0.38500
C 	C 	0.17150 0.03900 0.52310 -0.32900
C 	C 	0.13050 0.00149 0.53350 0.16300
C 	C 	0.88180 0.83379 0.42650 0.33500
C 	C 	0.93360 0.83490 0.49500 -0.10200
C 	C 	0.98830 0.80431 0.50770 0.00600
C 	C 	0.03960 0.80504 0.56770 -0.05200
C 	C 	0.03430 0.83630 0.61780 -0.03500
C 	C 	0.97900 0.86734 0.60950 -0.05000
C 	C 	0.92780 0.86620 0.54500 0.00200
C 	C 	0.09170 0.83908 0.68270 0.25500
C 	C 	0.69360 0.92220 0.32160 0.33600
C 	C 	0.68320 0.96126 0.27910 -0.07200
C 	C 	0.67710 0.99420 0.32780 -0.03600
C 	C 	0.68280 0.96639 0.20030 -0.01200
C 	C 	0.64720 0.79748 0.34060 0.38000
C 	C 	0.53470 0.76128 0.40590 -0.01700
C 	C 	0.57170 0.77287 0.34030 -0.09600
C 	C 	0.53440 0.76080 0.27380 -0.01600
C 	C 	0.85480 0.71736 0.20450 0.15000
C 	C 	0.81630 0.71769 0.13670 -0.30800
C 	C 	0.77330 0.68365 0.11230 0.36800
C 	C 	0.76940 0.64920 0.15860 -0.33000
C 	C 	0.80890 0.64880 0.22570 0.16600
C 	C 	0.90370 0.68464 0.32100 0.04600
C 	C 	0.86620 0.66269 0.38460 -0.27800
C 	C 	0.89480 0.62453 0.40300 0.38500
C 	C 	0.86710 0.60605 0.46710 -0.26300
C 	C 	0.80980 0.62580 0.51580 0.33900
C 	C 	0.78090 0.66415 0.49050 -0.26400
C 	C 	0.80900 0.68180 0.42820 0.33400
C 	C 	0.77420 0.72434 0.40110 -0.80900
C 	C 	0.95750 0.60363 0.35630 -0.92800
C 	C 	0.77630 0.60635 0.58620 -0.85400
C 	C 	0.72250 0.68725 0.54190 0.05400
C 	C 	0.59710 0.67560 0.60500 0.17100
C 	C 	0.51580 0.66310 0.60270 -0.37800
C 	C 	0.48220 0.64600 0.54190 0.46700
C 	C 	0.52450 0.64050 0.48400 -0.42400
C 	C 	0.60430 0.65590 0.47580 0.18800
C 	C 	0.90650 0.56723 0.50220 0.03100
C 	C 	0.79860 0.52710 0.43330 0.17700
C 	C 	0.75720 0.49256 0.42170 -0.33100
C 	C 	0.77110 0.45681 0.46600 0.38500
C 	C 	0.82850 0.46100 0.52310 -0.32900
C 	C 	0.86950 0.49851 0.53350 0.16200
C 	C 	0.11820 0.66621 0.42650 0.33500
C 	C 	0.06640 0.66510 0.49500 -0.10200
C 	C 	0.01170 0.69569 0.50770 0.00600
C 	C 	0.96040 0.69496 0.56770 -0.05200
C 	C 	0.96570 0.66370 0.61780 -0.03500
C 	C 	0.02100 0.63266 0.60950 -0.05000
C 	C 	0.07220 0.63380 0.54500 0.00200
C 	C 	0.90830 0.66092 0.68270 0.25500
C 	C 	0.30640 0.57780 0.32160 0.33500
C 	C 	0.31680 0.53874 0.27910 -0.07200
C 	C 	0.32290 0.50580 0.32780 -0.03600
C 	C 	0.31720 0.53361 0.20030 -0.01300
C 	C 	0.35280 0.70252 0.34060 0.38000
C 	C 	0.46530 0.73872 0.40590 -0.01700
C 	C 	0.42830 0.72713 0.34030 -0.09600
C 	C 	0.46560 0.73920 0.27380 -0.01600
C 	C 	0.14520 0.21736 0.29550 0.15000
C 	C 	0.18370 0.21769 0.36330 -0.30800
C 	C 	0.22670 0.18365 0.38770 0.36800
C 	C 	0.23060 0.14920 0.34140 -0.33000
C 	C 	0.19110 0.14880 0.27430 0.16600
C 	C 	0.09630 0.18464 0.17900 0.04700
C 	C 	0.13380 0.16269 0.11540 -0.27800
C 	C 	0.10520 0.12453 0.09700 0.38600
C 	C 	0.13290 0.10605 0.03290 -0.26400
C 	C 	0.19020 0.12580 0.98420 0.34000
C 	C 	0.21910 0.16415 0.00950 -0.26500
C 	C 	0.19100 0.18180 0.07180 0.33500
C 	C 	0.22580 0.22434 0.09890 -0.81000
C 	C 	0.04250 0.10363 0.14370 -0.92900
C 	C 	0.22370 0.10635 0.91380 -0.85500
C 	C 	0.27750 0.18725 0.95810 0.05500
C 	C 	0.40290 0.17560 0.89500 0.17100
C 	C 	0.48420 0.16310 0.89730 -0.37900
C 	C 	0.51780 0.14600 0.95810 0.46800
C 	C 	0.47550 0.14050 0.01600 -0.42500
C 	C 	0.39570 0.15590 0.02420 0.18800
C 	C 	0.09350 0.06723 0.99780 0.03300
C 	C 	0.20140 0.02710 0.06670 0.17600
C 	C 	0.24280 0.99256 0.07830 -0.33100
C 	C 	0.22890 0.95681 0.03400 0.38600
C 	C 	0.17150 0.96100 0.97690 -0.32900
C 	C 	0.13050 0.99851 0.96650 0.16200
C 	C 	0.88180 0.16621 0.07350 0.33500
C 	C 	0.93360 0.16510 0.00500 -0.10300
C 	C 	0.98830 0.19569 0.99230 0.00800
C 	C 	0.03960 0.19496 0.93230 -0.05300
C 	C 	0.03430 0.16370 0.88220 -0.03400
C 	C 	0.97900 0.13266 0.89050 -0.05100
C 	C 	0.92780 0.13380 0.95500 0.00300
C 	C 	0.09170 0.16092 0.81730 0.25500
C 	C 	0.69360 0.07780 0.17840 0.33500
C 	C 	0.68320 0.03874 0.22090 -0.07200
C 	C 	0.67710 0.00580 0.17220 -0.03600
C 	C 	0.68280 0.03361 0.29970 -0.01300
C 	C 	0.64720 0.20252 0.15940 0.38000
C 	C 	0.53470 0.23872 0.09410 -0.01700
C 	C 	0.57170 0.22713 0.15970 -0.09600
C 	C 	0.53440 0.23920 0.22620 -0.01600
C 	C 	0.85480 0.28264 0.29550 0.15000
C 	C 	0.81630 0.28231 0.36330 -0.30800
C 	C 	0.77330 0.31635 0.38770 0.36800
C 	C 	0.76940 0.35080 0.34140 -0.33000
C 	C 	0.80890 0.35120 0.27430 0.16600
C 	C 	0.90370 0.31536 0.17900 0.04600
C 	C 	0.86620 0.33731 0.11540 -0.27800
C 	C 	0.89480 0.37547 0.09700 0.38500
C 	C 	0.86710 0.39395 0.03290 -0.26400
C 	C 	0.80980 0.37420 0.98420 0.34000
C 	C 	0.78090 0.33585 0.00950 -0.26500
C 	C 	0.80900 0.31820 0.07180 0.33500
C 	C 	0.77420 0.27566 0.09890 -0.80900
C 	C 	0.95750 0.39637 0.14370 -0.92800
C 	C 	0.77630 0.39365 0.91380 -0.85500
C 	C 	0.72250 0.31275 0.95810 0.05500
C 	C 	0.59710 0.32440 0.89500 0.17100
C 	C 	0.51580 0.33690 0.89730 -0.37800
C 	C 	0.48220 0.35400 0.95810 0.46800
C 	C 	0.52450 0.35950 0.01600 -0.42500
C 	C 	0.60430 0.34410 0.02420 0.18800
C 	C 	0.90650 0.43277 0.99780 0.03200
C 	C 	0.79860 0.47290 0.06670 0.17700
C 	C 	0.75720 0.50744 0.07830 -0.33100
C 	C 	0.77110 0.54319 0.03400 0.38600
C 	C 	0.82850 0.53900 0.97690 -0.32900
C 	C 	0.86950 0.50149 0.96650 0.16300
C 	C 	0.11820 0.33379 0.07350 0.33500
C 	C 	0.06640 0.33490 0.00500 -0.10300
C 	C 	0.01170 0.30431 0.99230 0.00800
C 	C 	0.96040 0.30504 0.93230 -0.05300
C 	C 	0.96570 0.33630 0.88220 -0.03400
C 	C 	0.02100 0.36734 0.89050 -0.05100
C 	C 	0.07220 0.36620 0.95500 0.00300
C 	C 	0.90830 0.33908 0.81730 0.25500
C 	C 	0.30640 0.42220 0.17840 0.33500
C 	C 	0.31680 0.46126 0.22090 -0.07200
C 	C 	0.32290 0.49420 0.17220 -0.03600
C 	C 	0.31720 0.46639 0.29970 -0.01300
C 	C 	0.35280 0.29748 0.15940 0.38000
C 	C 	0.46530 0.26128 0.09410 -0.01700
C 	C 	0.42830 0.27287 0.15970 -0.09600
C 	C 	0.46560 0.26080 0.22620 -0.01600
N 	N 	0.85190 0.18293 0.74990 -0.16800
N 	N 	0.64190 0.17205 0.45990 -0.17700
N 	N 	0.85380 0.02972 0.51020 -0.18200
N 	N 	0.14810 0.31707 0.74990 -0.16800
N 	N 	0.35810 0.32795 0.45990 -0.17700
N 	N 	0.14620 0.47028 0.51020 -0.18200
N 	N 	0.85190 0.81707 0.75010 -0.16800
N 	N 	0.64190 0.82795 0.04010 -0.17700
N 	N 	0.85380 0.97028 0.98980 -0.18200
N 	N 	0.14810 0.68293 0.75010 -0.16800
N 	N 	0.35810 0.67205 0.04010 -0.17700
N 	N 	0.14620 0.52972 0.98980 -0.18200
N 	N 	0.14810 0.81707 0.25010 -0.16800
N 	N 	0.35810 0.82795 0.54010 -0.17700
N 	N 	0.14620 0.97028 0.48980 -0.18200
N 	N 	0.85190 0.68293 0.25010 -0.16800
N 	N 	0.64190 0.67205 0.54010 -0.17700
N 	N 	0.85380 0.52972 0.48980 -0.18200
N 	N 	0.14810 0.18293 0.24990 -0.16800
N 	N 	0.35810 0.17205 0.95990 -0.17700
N 	N 	0.14620 0.02972 0.01020 -0.18200
N 	N 	0.85190 0.31707 0.24990 -0.16800
N 	N 	0.64190 0.32795 0.95990 -0.17700
N 	N 	0.85380 0.47028 0.01020 -0.18200
O 	O 	0.74330 0.18104 0.95380 -0.41100
O 	O 	0.40980 0.12982 0.45650 -0.41500
O 	O 	0.73720 0.92364 0.54350 -0.41900
O 	O 	0.16710 0.13638 0.58150 -0.49500
O 	O 	0.11070 0.19304 0.61960 -0.40600
O 	O 	0.91390 0.13260 0.26790 -0.35600
O 	O 	0.85340 0.18818 0.30900 -0.37500
O 	O 	0.32670 0.08618 0.61490 -0.43400
O 	O 	0.27610 0.10717 0.72560 -0.41100
O 	O 	0.33430 0.18353 0.60420 -0.47600
O 	O 	0.31380 0.20187 0.72020 -0.42300
O 	O 	0.25670 0.31896 0.95380 -0.41100
O 	O 	0.59020 0.37018 0.45650 -0.41500
O 	O 	0.26280 0.57636 0.54350 -0.41900
O 	O 	0.83290 0.36362 0.58150 -0.49500
O 	O 	0.88930 0.30696 0.61960 -0.40600
O 	O 	0.08610 0.36740 0.26790 -0.35600
O 	O 	0.14660 0.31182 0.30900 -0.37500
O 	O 	0.67330 0.41382 0.61490 -0.43400
O 	O 	0.72390 0.39283 0.72560 -0.41100
O 	O 	0.66570 0.31647 0.60420 -0.47600
O 	O 	0.68620 0.29813 0.72020 -0.42300
O 	O 	0.74330 0.81896 0.54620 -0.41100
O 	O 	0.40980 0.87018 0.04350 -0.41500
O 	O 	0.73720 0.07636 0.95650 -0.41900
O 	O 	0.16710 0.86362 0.91850 -0.49500
O 	O 	0.11070 0.80696 0.88040 -0.40600
O 	O 	0.91390 0.86740 0.23210 -0.35600
O 	O 	0.85340 0.81182 0.19100 -0.37500
O 	O 	0.32670 0.91382 0.88510 -0.43400
O 	O 	0.27610 0.89283 0.77440 -0.41100
O 	O 	0.33430 0.81647 0.89580 -0.47600
O 	O 	0.31380 0.79813 0.77980 -0.42300
O 	O 	0.25670 0.68104 0.54620 -0.41100
O 	O 	0.59020 0.62982 0.04350 -0.41500
O 	O 	0.26280 0.42364 0.95650 -0.41900
O 	O 	0.83290 0.63638 0.91850 -0.49500
O 	O 	0.88930 0.69304 0.88040 -0.40600
O 	O 	0.08610 0.63260 0.23210 -0.35600
O 	O 	0.14660 0.68818 0.19100 -0.37500
O 	O 	0.67330 0.58618 0.88510 -0.43400
O 	O 	0.72390 0.60717 0.77440 -0.41100
O 	O 	0.66570 0.68353 0.89580 -0.47600
O 	O 	0.68620 0.70187 0.77980 -0.42300
O 	O 	0.25670 0.81896 0.04620 -0.41100
O 	O 	0.59020 0.87018 0.54350 -0.41500
O 	O 	0.26280 0.07636 0.45650 -0.41900
O 	O 	0.83290 0.86362 0.41850 -0.49500
O 	O 	0.88930 0.80696 0.38040 -0.40600
O 	O 	0.08610 0.86740 0.73210 -0.35600
O 	O 	0.14660 0.81182 0.69100 -0.37500
O 	O 	0.67330 0.91382 0.38510 -0.43400
O 	O 	0.72390 0.89283 0.27440 -0.41100
O 	O 	0.66570 0.81647 0.39580 -0.47600
O 	O 	0.68620 0.79813 0.27980 -0.42300
O 	O 	0.74330 0.68104 0.04620 -0.41100
O 	O 	0.40980 0.62982 0.54350 -0.41500
O 	O 	0.73720 0.42364 0.45650 -0.41900
O 	O 	0.16710 0.63638 0.41850 -0.49500
O 	O 	0.11070 0.69304 0.38040 -0.40600
O 	O 	0.91390 0.63260 0.73210 -0.35600
O 	O 	0.85340 0.68818 0.69100 -0.37500
O 	O 	0.32670 0.58618 0.38510 -0.43400
O 	O 	0.27610 0.60717 0.27440 -0.41100
O 	O 	0.33430 0.68353 0.39580 -0.47600
O 	O 	0.31380 0.70187 0.27980 -0.42300
O 	O 	0.25670 0.18104 0.45380 -0.41100
O 	O 	0.59020 0.12982 0.95650 -0.41500
O 	O 	0.26280 0.92364 0.04350 -0.41900
O 	O 	0.83290 0.13638 0.08150 -0.49500
O 	O 	0.88930 0.19304 0.11960 -0.40600
O 	O 	0.08610 0.13260 0.76790 -0.35600
O 	O 	0.14660 0.18818 0.80900 -0.37500
O 	O 	0.67330 0.08618 0.11490 -0.43400
O 	O 	0.72390 0.10717 0.22560 -0.41100
O 	O 	0.66570 0.18353 0.10420 -0.47600
O 	O 	0.68620 0.20187 0.22020 -0.42300
O 	O 	0.74330 0.31896 0.45380 -0.41100
O 	O 	0.40980 0.37018 0.95650 -0.41500
O 	O 	0.73720 0.57636 0.04350 -0.41900
O 	O 	0.16710 0.36362 0.08150 -0.49500
O 	O 	0.11070 0.30696 0.11960 -0.40600
O 	O 	0.91390 0.36740 0.76790 -0.35600
O 	O 	0.85340 0.31182 0.80900 -0.37500
O 	O 	0.32670 0.41382 0.11490 -0.43400
O 	O 	0.27610 0.39283 0.22560 -0.41100
O 	O 	0.33430 0.31647 0.10420 -0.47600
O 	O 	0.31380 0.29813 0.22020 -0.42300
