data_crystal

_cell_length_a 11.06600
_cell_length_b 13.82140
_cell_length_c 16.83870
_cell_angle_alpha 90.00000
_cell_angle_beta  103.31000
_cell_angle_gamma 90.00000

_symmetry_space_group_name_	'P 1'
_symmetry_space_group_name_H-M	'P 1'

loop_
_symmetry_equiv_pos_as_xyz
  x,y,z

loop_
_atom_site_label
_atom_site_type_symbol
_atom_site_fract_x
_atom_site_fract_y
_atom_site_fract_z
_atom_site_charge
Co	Co	0.05672 0.08925 0.17407 1.19100
Co	Co	0.14177 0.99727 0.99494 1.16100
C 	C 	0.67360 0.05800 0.20162 -0.04600
C 	C 	0.55130 0.05020 0.15661 -0.01200
H 	H 	0.53480 0.03840 0.09950 0.06000
C 	C 	0.45390 0.05960 0.19516 -0.03500
C 	C 	0.47820 0.07440 0.27912 -0.09600
H 	H 	0.41110 0.08120 0.30520 0.07700
C 	C 	0.60020 0.07910 0.32538 0.11500
C 	C 	0.69670 0.07180 0.28600 -0.09200
H 	H 	0.78000 0.07630 0.31680 0.08100
C 	C 	0.62390 0.09070 0.41671 -0.28000
C 	C 	0.65360 0.99720 0.46507 0.11500
C 	C 	0.60350 0.90830 0.43588 -0.09700
H 	H 	0.54870 0.90460 0.38350 0.08500
C 	C 	0.63250 0.82410 0.48260 -0.04300
C 	C 	0.71000 0.83050 0.56021 -0.03300
H 	H 	0.72970 0.77380 0.59260 0.06900
C 	C 	0.75880 0.91910 0.59054 -0.01900
C 	C 	0.73130 0.00170 0.54308 -0.10300
H 	H 	0.76560 0.06210 0.56390 0.08100
C 	C 	0.77930 0.04680 0.15981 0.35900
C 	C 	0.32120 0.05270 0.14716 0.32200
C 	C 	0.58390 0.72530 0.45330 0.33600
C 	C 	0.83870 0.92490 0.67564 0.26200
O 	O 	0.88325 0.07870 0.19762 -0.42100
O 	O 	0.75510 0.00517 0.09159 -0.43400
O 	O 	0.30055 0.99428 0.08752 -0.39000
O 	O 	0.24351 0.10505 0.17039 -0.40900
O 	O 	0.49145 0.71939 0.39259 -0.39700
O 	O 	0.63840 0.65560 0.49286 -0.42500
O 	O 	0.88452 0.84598 0.70965 -0.34000
O 	O 	0.85620 0.00384 0.71296 -0.32600
O 	O 	0.03072 0.99278 0.08246 -0.92100
H 	H 	0.55700 0.12300 0.43500 0.11100
H 	H 	0.69200 0.13500 0.43650 0.10900
H 	H 	0.03800 0.94100 0.09800 0.38700
Co	Co	0.44328 0.58925 0.32593 1.19300
Co	Co	0.35823 0.49727 0.50506 1.16600
C 	C 	0.82640 0.55800 0.29838 -0.04700
C 	C 	0.94870 0.55020 0.34339 -0.01100
H 	H 	0.96520 0.53840 0.40050 0.06100
C 	C 	0.04610 0.55960 0.30484 -0.03800
C 	C 	0.02180 0.57440 0.22088 -0.08700
H 	H 	0.08890 0.58120 0.19480 0.07600
C 	C 	0.89980 0.57910 0.17462 0.10900
C 	C 	0.80330 0.57180 0.21400 -0.08800
H 	H 	0.72000 0.57630 0.18320 0.08000
C 	C 	0.87610 0.59070 0.08329 -0.27500
C 	C 	0.84640 0.49720 0.03493 0.11000
C 	C 	0.89650 0.40830 0.06412 -0.09100
H 	H 	0.95130 0.40460 0.11650 0.08200
C 	C 	0.86750 0.32410 0.01740 -0.05400
C 	C 	0.79000 0.33050 0.93979 -0.01900
H 	H 	0.77030 0.27380 0.90740 0.06700
C 	C 	0.74120 0.41910 0.90946 -0.02300
C 	C 	0.76870 0.50170 0.95692 -0.09800
H 	H 	0.73440 0.56210 0.93610 0.07900
C 	C 	0.72070 0.54680 0.34019 0.35900
C 	C 	0.17880 0.55270 0.35284 0.33600
C 	C 	0.91610 0.22530 0.04670 0.33800
C 	C 	0.66130 0.42490 0.82436 0.27300
O 	O 	0.61675 0.57870 0.30238 -0.42000
O 	O 	0.74490 0.50517 0.40841 -0.43000
O 	O 	0.19945 0.49428 0.41248 -0.40500
O 	O 	0.25649 0.60505 0.32961 -0.41000
O 	O 	0.00855 0.21939 0.10741 -0.39800
O 	O 	0.86160 0.15560 0.00714 -0.43000
O 	O 	0.61548 0.34598 0.79035 -0.34100
O 	O 	0.64380 0.50384 0.78704 -0.33600
O 	O 	0.46928 0.49278 0.41754 -0.93300
H 	H 	0.94300 0.62300 0.06500 0.10900
H 	H 	0.80800 0.63500 0.06350 0.10800
H 	H 	0.46200 0.44100 0.40200 0.38700
Co	Co	0.94328 0.91075 0.82593 1.19000
Co	Co	0.85823 0.00273 0.00506 1.16000
C 	C 	0.32640 0.94200 0.79838 -0.04600
C 	C 	0.44870 0.94980 0.84339 -0.01200
H 	H 	0.46520 0.96160 0.90050 0.06000
C 	C 	0.54610 0.94040 0.80484 -0.03500
C 	C 	0.52180 0.92560 0.72088 -0.09600
H 	H 	0.58890 0.91880 0.69480 0.07700
C 	C 	0.39980 0.92090 0.67462 0.11500
C 	C 	0.30330 0.92820 0.71400 -0.09200
H 	H 	0.22000 0.92370 0.68320 0.08100
C 	C 	0.37610 0.90930 0.58329 -0.28000
C 	C 	0.34640 0.00280 0.53493 0.11500
C 	C 	0.39650 0.09170 0.56412 -0.09700
H 	H 	0.45130 0.09540 0.61650 0.08500
C 	C 	0.36750 0.17590 0.51740 -0.04300
C 	C 	0.29000 0.16950 0.43979 -0.03300
H 	H 	0.27030 0.22620 0.40740 0.06900
C 	C 	0.24120 0.08090 0.40946 -0.01900
C 	C 	0.26870 0.99830 0.45692 -0.10300
H 	H 	0.23440 0.93790 0.43610 0.08100
C 	C 	0.22070 0.95320 0.84019 0.35900
C 	C 	0.67880 0.94730 0.85284 0.32200
C 	C 	0.41610 0.27470 0.54670 0.33600
C 	C 	0.16130 0.07510 0.32436 0.26200
O 	O 	0.11675 0.92130 0.80238 -0.42100
O 	O 	0.24490 0.99483 0.90841 -0.43400
O 	O 	0.69945 0.00572 0.91248 -0.39000
O 	O 	0.75649 0.89495 0.82961 -0.40900
O 	O 	0.50855 0.28061 0.60741 -0.39700
O 	O 	0.36160 0.34440 0.50714 -0.42500
O 	O 	0.11548 0.15402 0.29035 -0.34000
O 	O 	0.14380 0.99616 0.28704 -0.32600
O 	O 	0.96928 0.00722 0.91754 -0.92100
H 	H 	0.44300 0.87700 0.56500 0.11100
H 	H 	0.30800 0.86500 0.56350 0.10900
H 	H 	0.96200 0.05900 0.90200 0.38700
Co	Co	0.55672 0.41075 0.67407 1.19300
Co	Co	0.64177 0.50273 0.49494 1.16600
C 	C 	0.17360 0.44200 0.70162 -0.04700
C 	C 	0.05130 0.44980 0.65661 -0.01100
H 	H 	0.03480 0.46160 0.59950 0.06100
C 	C 	0.95390 0.44040 0.69516 -0.03800
C 	C 	0.97820 0.42560 0.77912 -0.08700
H 	H 	0.91110 0.41880 0.80520 0.07600
C 	C 	0.10020 0.42090 0.82538 0.10900
C 	C 	0.19670 0.42820 0.78600 -0.08800
H 	H 	0.28000 0.42370 0.81680 0.08000
C 	C 	0.12390 0.40930 0.91671 -0.27500
C 	C 	0.15360 0.50280 0.96507 0.11000
C 	C 	0.10350 0.59170 0.93588 -0.09100
H 	H 	0.04870 0.59540 0.88350 0.08200
C 	C 	0.13250 0.67590 0.98260 -0.05400
C 	C 	0.21000 0.66950 0.06021 -0.01900
H 	H 	0.22970 0.72620 0.09260 0.06700
C 	C 	0.25880 0.58090 0.09054 -0.02300
C 	C 	0.23130 0.49830 0.04308 -0.09800
H 	H 	0.26560 0.43790 0.06390 0.07900
C 	C 	0.27930 0.45320 0.65981 0.35900
C 	C 	0.82120 0.44730 0.64716 0.33600
C 	C 	0.08390 0.77470 0.95330 0.33800
C 	C 	0.33870 0.57510 0.17564 0.27300
O 	O 	0.38325 0.42130 0.69762 -0.42000
O 	O 	0.25510 0.49483 0.59159 -0.43000
O 	O 	0.80055 0.50572 0.58752 -0.40500
O 	O 	0.74351 0.39495 0.67039 -0.41000
O 	O 	0.99145 0.78061 0.89259 -0.39800
O 	O 	0.13840 0.84440 0.99286 -0.43000
O 	O 	0.38452 0.65402 0.20965 -0.34100
O 	O 	0.35620 0.49616 0.21296 -0.33600
O 	O 	0.53072 0.50722 0.58246 -0.93300
H 	H 	0.05700 0.37700 0.93500 0.10900
H 	H 	0.19200 0.36500 0.93650 0.10800
H 	H 	0.53800 0.55900 0.59800 0.38700
