data_crystal

_cell_length_a 13.14300
_cell_length_b 17.51300
_cell_length_c 25.34800
_cell_angle_alpha 90.00000
_cell_angle_beta  90.00000
_cell_angle_gamma 90.00000

_symmetry_space_group_name_	'P 1'
_symmetry_space_group_name_H-M	'P 1'

loop_
_symmetry_equiv_pos_as_xyz
  x,y,z

loop_
_atom_site_label
_atom_site_type_symbol
_atom_site_fract_x
_atom_site_fract_y
_atom_site_fract_z
_atom_site_charge
N 	N 	0.83080 0.16668 0.24523 -0.09200
N 	N 	0.86860 0.09890 0.23030 -0.10200
N 	N 	0.73310 0.12908 0.18110 -0.24200
C 	C 	0.95670 0.26800 0.26480 -0.09300
H 	H 	0.92170 0.30370 0.24120 0.06000
H 	H 	0.98480 0.29780 0.29410 0.06200
C 	C 	0.87900 0.21220 0.28675 -0.04500
H 	H 	0.91260 0.17790 0.31190 0.04600
H 	H 	0.82640 0.24070 0.30590 0.04300
C 	C 	0.80810 0.07900 0.19130 0.09400
H 	H 	0.81670 0.03350 0.17210 -0.01200
C 	C 	0.75030 0.18390 0.21615 0.08500
H 	H 	0.71110 0.22840 0.21980 -0.00600
N 	N 	0.83080 0.66668 0.74523 -0.09200
N 	N 	0.86860 0.59890 0.73030 -0.10200
N 	N 	0.73310 0.62908 0.68110 -0.24200
C 	C 	0.95670 0.76800 0.76480 -0.09300
H 	H 	0.92170 0.80370 0.74120 0.06000
H 	H 	0.98480 0.79780 0.79410 0.06200
C 	C 	0.87900 0.71220 0.78675 -0.04500
H 	H 	0.91260 0.67790 0.81190 0.04600
H 	H 	0.82640 0.74070 0.80590 0.04300
C 	C 	0.80810 0.57900 0.69130 0.09400
H 	H 	0.81670 0.53350 0.67210 -0.01200
C 	C 	0.75030 0.68390 0.71615 0.08500
H 	H 	0.71110 0.72840 0.71980 -0.00600
N 	N 	0.33080 0.16668 0.74523 -0.09200
N 	N 	0.36860 0.09890 0.73030 -0.10200
N 	N 	0.23310 0.12908 0.68110 -0.24200
C 	C 	0.45670 0.26800 0.76480 -0.09300
H 	H 	0.42170 0.30370 0.74120 0.06000
H 	H 	0.48480 0.29780 0.79410 0.06200
C 	C 	0.37900 0.21220 0.78675 -0.04500
H 	H 	0.41260 0.17790 0.81190 0.04600
H 	H 	0.32640 0.24070 0.80590 0.04300
C 	C 	0.30810 0.07900 0.69130 0.09400
H 	H 	0.31670 0.03350 0.67210 -0.01200
C 	C 	0.25030 0.18390 0.71615 0.08500
H 	H 	0.21110 0.22840 0.71980 -0.00600
N 	N 	0.33080 0.66668 0.24523 -0.09200
N 	N 	0.36860 0.59890 0.23030 -0.10200
N 	N 	0.23310 0.62908 0.18110 -0.24200
C 	C 	0.45670 0.76800 0.26480 -0.09300
H 	H 	0.42170 0.80370 0.24120 0.06000
H 	H 	0.48480 0.79780 0.29410 0.06100
C 	C 	0.37900 0.71220 0.28675 -0.04600
H 	H 	0.41260 0.67790 0.31190 0.04500
H 	H 	0.32640 0.74070 0.30590 0.04200
C 	C 	0.30810 0.57900 0.19130 0.09300
H 	H 	0.31670 0.53350 0.17210 -0.01300
C 	C 	0.25030 0.68390 0.21615 0.08400
H 	H 	0.21110 0.72840 0.21980 -0.00700
N 	N 	0.91920 0.58332 0.24523 -0.09300
N 	N 	0.88140 0.65110 0.23030 -0.10300
N 	N 	0.01690 0.62092 0.18110 -0.24300
C 	C 	0.79330 0.48200 0.26480 -0.09400
H 	H 	0.82830 0.44630 0.24120 0.05900
H 	H 	0.76520 0.45220 0.29410 0.06100
C 	C 	0.87100 0.53780 0.28675 -0.04600
H 	H 	0.83740 0.57210 0.31190 0.04500
H 	H 	0.92360 0.50930 0.30590 0.04200
C 	C 	0.94190 0.67100 0.19130 0.09300
H 	H 	0.93330 0.71650 0.17210 -0.01300
C 	C 	0.99970 0.56610 0.21615 0.08400
H 	H 	0.03890 0.52160 0.21980 -0.00700
N 	N 	0.91920 0.08332 0.74523 -0.09300
N 	N 	0.88140 0.15110 0.73030 -0.10300
N 	N 	0.01690 0.12092 0.68110 -0.24300
C 	C 	0.79330 0.98200 0.76480 -0.09300
H 	H 	0.82830 0.94630 0.74120 0.05900
H 	H 	0.76520 0.95220 0.79410 0.06100
C 	C 	0.87100 0.03780 0.78675 -0.04700
H 	H 	0.83740 0.07210 0.81190 0.04600
H 	H 	0.92360 0.00930 0.80590 0.04200
C 	C 	0.94190 0.17100 0.69130 0.09300
H 	H 	0.93330 0.21650 0.67210 -0.01300
C 	C 	0.99970 0.06610 0.71615 0.08400
H 	H 	0.03890 0.02160 0.71980 -0.00700
N 	N 	0.41920 0.58332 0.74523 -0.09300
N 	N 	0.38140 0.65110 0.73030 -0.10300
N 	N 	0.51690 0.62092 0.68110 -0.24300
C 	C 	0.29330 0.48200 0.76480 -0.09400
H 	H 	0.32830 0.44630 0.74120 0.05900
H 	H 	0.26520 0.45220 0.79410 0.06100
C 	C 	0.37100 0.53780 0.78675 -0.04600
H 	H 	0.33740 0.57210 0.81190 0.04500
H 	H 	0.42360 0.50930 0.80590 0.04200
C 	C 	0.44190 0.67100 0.69130 0.09300
H 	H 	0.43330 0.71650 0.67210 -0.01300
C 	C 	0.49970 0.56610 0.71615 0.08400
H 	H 	0.53890 0.52160 0.71980 -0.00700
N 	N 	0.41920 0.08332 0.24523 -0.09300
N 	N 	0.38140 0.15110 0.23030 -0.10300
N 	N 	0.51690 0.12092 0.18110 -0.24300
C 	C 	0.29330 0.98200 0.26480 -0.09500
H 	H 	0.32830 0.94630 0.24120 0.05900
H 	H 	0.26520 0.95220 0.29410 0.06200
C 	C 	0.37100 0.03780 0.28675 -0.04600
H 	H 	0.33740 0.07210 0.31190 0.04500
H 	H 	0.42360 0.00930 0.30590 0.04200
C 	C 	0.44190 0.17100 0.19130 0.09300
H 	H 	0.43330 0.21650 0.17210 -0.01300
C 	C 	0.49970 0.06610 0.21615 0.08400
H 	H 	0.53890 0.02160 0.21980 -0.00700
N 	N 	0.91920 0.16668 0.50477 -0.09300
N 	N 	0.88140 0.09890 0.51970 -0.10300
N 	N 	0.01690 0.12908 0.56890 -0.24300
C 	C 	0.79330 0.26800 0.48520 -0.09400
H 	H 	0.82830 0.30370 0.50880 0.05900
H 	H 	0.76520 0.29780 0.45590 0.06100
C 	C 	0.87100 0.21220 0.46325 -0.04600
H 	H 	0.83740 0.17790 0.43810 0.04500
H 	H 	0.92360 0.24070 0.44410 0.04200
C 	C 	0.94190 0.07900 0.55870 0.09300
H 	H 	0.93330 0.03350 0.57790 -0.01300
C 	C 	0.99970 0.18390 0.53385 0.08400
H 	H 	0.03890 0.22840 0.53020 -0.00700
N 	N 	0.91920 0.66668 0.00477 -0.09300
N 	N 	0.88140 0.59890 0.01970 -0.10300
N 	N 	0.01690 0.62908 0.06890 -0.24300
C 	C 	0.79330 0.76800 0.98520 -0.09200
H 	H 	0.82830 0.80370 0.00880 0.05800
H 	H 	0.76520 0.79780 0.95590 0.06100
C 	C 	0.87100 0.71220 0.96325 -0.04700
H 	H 	0.83740 0.67790 0.93810 0.04600
H 	H 	0.92360 0.74070 0.94410 0.04200
C 	C 	0.94190 0.57900 0.05870 0.09300
H 	H 	0.93330 0.53350 0.07790 -0.01300
C 	C 	0.99970 0.68390 0.03385 0.08400
H 	H 	0.03890 0.72840 0.03020 -0.00700
N 	N 	0.41920 0.16668 0.00477 -0.09300
N 	N 	0.38140 0.09890 0.01970 -0.10300
N 	N 	0.51690 0.12908 0.06890 -0.24300
C 	C 	0.29330 0.26800 0.98520 -0.09500
H 	H 	0.32830 0.30370 0.00880 0.05900
H 	H 	0.26520 0.29780 0.95590 0.06200
C 	C 	0.37100 0.21220 0.96325 -0.04600
H 	H 	0.33740 0.17790 0.93810 0.04500
H 	H 	0.42360 0.24070 0.94410 0.04200
C 	C 	0.44190 0.07900 0.05870 0.09300
H 	H 	0.43330 0.03350 0.07790 -0.01300
C 	C 	0.49970 0.18390 0.03385 0.08400
H 	H 	0.53890 0.22840 0.03020 -0.00700
N 	N 	0.41920 0.66668 0.50477 -0.09300
N 	N 	0.38140 0.59890 0.51970 -0.10300
N 	N 	0.51690 0.62908 0.56890 -0.24300
C 	C 	0.29330 0.76800 0.48520 -0.09400
H 	H 	0.32830 0.80370 0.50880 0.05900
H 	H 	0.26520 0.79780 0.45590 0.06100
C 	C 	0.37100 0.71220 0.46325 -0.04600
H 	H 	0.33740 0.67790 0.43810 0.04500
H 	H 	0.42360 0.74070 0.44410 0.04200
C 	C 	0.44190 0.57900 0.55870 0.09300
H 	H 	0.43330 0.53350 0.57790 -0.01300
C 	C 	0.49970 0.68390 0.53385 0.08400
H 	H 	0.53890 0.72840 0.53020 -0.00700
N 	N 	0.83080 0.58332 0.50477 -0.09300
N 	N 	0.86860 0.65110 0.51970 -0.10300
N 	N 	0.73310 0.62092 0.56890 -0.24300
C 	C 	0.95670 0.48200 0.48520 -0.09400
H 	H 	0.92170 0.44630 0.50880 0.05900
H 	H 	0.98480 0.45220 0.45590 0.06100
C 	C 	0.87900 0.53780 0.46325 -0.04600
H 	H 	0.91260 0.57210 0.43810 0.04500
H 	H 	0.82640 0.50930 0.44410 0.04200
C 	C 	0.80810 0.67100 0.55870 0.09300
H 	H 	0.81670 0.71650 0.57790 -0.01300
C 	C 	0.75030 0.56610 0.53385 0.08400
H 	H 	0.71110 0.52160 0.53020 -0.00700
N 	N 	0.83080 0.08332 0.00477 -0.09300
N 	N 	0.86860 0.15110 0.01970 -0.10300
N 	N 	0.73310 0.12092 0.06890 -0.24300
C 	C 	0.95670 0.98200 0.98520 -0.09300
H 	H 	0.92170 0.94630 0.00880 0.05800
H 	H 	0.98480 0.95220 0.95590 0.06100
C 	C 	0.87900 0.03780 0.96325 -0.04700
H 	H 	0.91260 0.07210 0.93810 0.04600
H 	H 	0.82640 0.00930 0.94410 0.04200
C 	C 	0.80810 0.17100 0.05870 0.09300
H 	H 	0.81670 0.21650 0.07790 -0.01300
C 	C 	0.75030 0.06610 0.03385 0.08400
H 	H 	0.71110 0.02160 0.03020 -0.00700
N 	N 	0.33080 0.58332 0.00477 -0.09300
N 	N 	0.36860 0.65110 0.01970 -0.10300
N 	N 	0.23310 0.62092 0.06890 -0.24300
C 	C 	0.45670 0.48200 0.98520 -0.09400
H 	H 	0.42170 0.44630 0.00880 0.05900
H 	H 	0.48480 0.45220 0.95590 0.06100
C 	C 	0.37900 0.53780 0.96325 -0.04600
H 	H 	0.41260 0.57210 0.93810 0.04500
H 	H 	0.32640 0.50930 0.94410 0.04200
C 	C 	0.30810 0.67100 0.05870 0.09300
H 	H 	0.31670 0.71650 0.07790 -0.01300
C 	C 	0.25030 0.56610 0.03385 0.08400
H 	H 	0.21110 0.52160 0.03020 -0.00700
N 	N 	0.33080 0.08332 0.50477 -0.09300
N 	N 	0.36860 0.15110 0.51970 -0.10300
N 	N 	0.23310 0.12092 0.56890 -0.24300
C 	C 	0.45670 0.98200 0.48520 -0.09400
H 	H 	0.42170 0.94630 0.50880 0.05900
H 	H 	0.48480 0.95220 0.45590 0.06100
C 	C 	0.37900 0.03780 0.46325 -0.04600
H 	H 	0.41260 0.07210 0.43810 0.04500
H 	H 	0.32640 0.00930 0.44410 0.04200
C 	C 	0.30810 0.17100 0.55870 0.09300
H 	H 	0.31670 0.21650 0.57790 -0.01300
C 	C 	0.25030 0.06610 0.53385 0.08400
H 	H 	0.21110 0.02160 0.53020 -0.00700
N 	N 	0.16920 0.83332 0.75477 -0.09300
N 	N 	0.13140 0.90110 0.76970 -0.10300
N 	N 	0.26690 0.87092 0.81890 -0.24300
C 	C 	0.04330 0.73200 0.73520 -0.09400
H 	H 	0.07830 0.69630 0.75880 0.05900
H 	H 	0.01520 0.70220 0.70590 0.06100
C 	C 	0.12100 0.78780 0.71325 -0.04600
H 	H 	0.08740 0.82210 0.68810 0.04500
H 	H 	0.17360 0.75930 0.69410 0.04200
C 	C 	0.19190 0.92100 0.80870 0.09300
H 	H 	0.18330 0.96650 0.82790 -0.01300
C 	C 	0.24970 0.81610 0.78385 0.08400
H 	H 	0.28890 0.77160 0.78020 -0.00700
N 	N 	0.16920 0.33332 0.25477 -0.09300
N 	N 	0.13140 0.40110 0.26970 -0.10300
N 	N 	0.26690 0.37092 0.31890 -0.24300
C 	C 	0.04330 0.23200 0.23520 -0.09400
H 	H 	0.07830 0.19630 0.25880 0.05900
H 	H 	0.01520 0.20220 0.20590 0.06100
C 	C 	0.12100 0.28780 0.21325 -0.04600
H 	H 	0.08740 0.32210 0.18810 0.04500
H 	H 	0.17360 0.25930 0.19410 0.04200
C 	C 	0.19190 0.42100 0.30870 0.09300
H 	H 	0.18330 0.46650 0.32790 -0.01300
C 	C 	0.24970 0.31610 0.28385 0.08400
H 	H 	0.28890 0.27160 0.28020 -0.00700
N 	N 	0.66920 0.83332 0.25477 -0.09300
N 	N 	0.63140 0.90110 0.26970 -0.10300
N 	N 	0.76690 0.87092 0.31890 -0.24300
C 	C 	0.54330 0.73200 0.23520 -0.09400
H 	H 	0.57830 0.69630 0.25880 0.05900
H 	H 	0.51520 0.70220 0.20590 0.06100
C 	C 	0.62100 0.78780 0.21325 -0.04600
H 	H 	0.58740 0.82210 0.18810 0.04500
H 	H 	0.67360 0.75930 0.19410 0.04200
C 	C 	0.69190 0.92100 0.30870 0.09300
H 	H 	0.68330 0.96650 0.32790 -0.01300
C 	C 	0.74970 0.81610 0.28385 0.08400
H 	H 	0.78890 0.77160 0.28020 -0.00700
N 	N 	0.66920 0.33332 0.75477 -0.09300
N 	N 	0.63140 0.40110 0.76970 -0.10300
N 	N 	0.76690 0.37092 0.81890 -0.24300
C 	C 	0.54330 0.23200 0.73520 -0.09400
H 	H 	0.57830 0.19630 0.75880 0.05900
H 	H 	0.51520 0.20220 0.70590 0.06100
C 	C 	0.62100 0.28780 0.71325 -0.04600
H 	H 	0.58740 0.32210 0.68810 0.04500
H 	H 	0.67360 0.25930 0.69410 0.04200
C 	C 	0.69190 0.42100 0.80870 0.09300
H 	H 	0.68330 0.46650 0.82790 -0.01300
C 	C 	0.74970 0.31610 0.78385 0.08400
H 	H 	0.78890 0.27160 0.78020 -0.00700
N 	N 	0.08080 0.41668 0.75477 -0.09300
N 	N 	0.11860 0.34890 0.76970 -0.10300
N 	N 	0.98310 0.37908 0.81890 -0.24300
C 	C 	0.20670 0.51800 0.73520 -0.09400
H 	H 	0.17170 0.55370 0.75880 0.05900
H 	H 	0.23480 0.54780 0.70590 0.06100
C 	C 	0.12900 0.46220 0.71325 -0.04600
H 	H 	0.16260 0.42790 0.68810 0.04500
H 	H 	0.07640 0.49070 0.69410 0.04200
C 	C 	0.05810 0.32900 0.80870 0.09300
H 	H 	0.06670 0.28350 0.82790 -0.01300
C 	C 	0.00030 0.43390 0.78385 0.08400
H 	H 	0.96110 0.47840 0.78020 -0.00700
N 	N 	0.08080 0.91668 0.25477 -0.09300
N 	N 	0.11860 0.84890 0.26970 -0.10300
N 	N 	0.98310 0.87908 0.31890 -0.24300
C 	C 	0.20670 0.01800 0.23520 -0.09300
H 	H 	0.17170 0.05370 0.25880 0.05900
H 	H 	0.23480 0.04780 0.20590 0.06100
C 	C 	0.12900 0.96220 0.21325 -0.04700
H 	H 	0.16260 0.92790 0.18810 0.04600
H 	H 	0.07640 0.99070 0.19410 0.04200
C 	C 	0.05810 0.82900 0.30870 0.09300
H 	H 	0.06670 0.78350 0.32790 -0.01300
C 	C 	0.00030 0.93390 0.28385 0.08400
H 	H 	0.96110 0.97840 0.28020 -0.00700
N 	N 	0.58080 0.41668 0.25477 -0.09300
N 	N 	0.61860 0.34890 0.26970 -0.10300
N 	N 	0.48310 0.37908 0.31890 -0.24300
C 	C 	0.70670 0.51800 0.23520 -0.09400
H 	H 	0.67170 0.55370 0.25880 0.05900
H 	H 	0.73480 0.54780 0.20590 0.06100
C 	C 	0.62900 0.46220 0.21325 -0.04600
H 	H 	0.66260 0.42790 0.18810 0.04500
H 	H 	0.57640 0.49070 0.19410 0.04200
C 	C 	0.55810 0.32900 0.30870 0.09300
H 	H 	0.56670 0.28350 0.32790 -0.01300
C 	C 	0.50030 0.43390 0.28385 0.08400
H 	H 	0.46110 0.47840 0.28020 -0.00700
N 	N 	0.58080 0.91668 0.75477 -0.09300
N 	N 	0.61860 0.84890 0.76970 -0.10300
N 	N 	0.48310 0.87908 0.81890 -0.24300
C 	C 	0.70670 0.01800 0.73520 -0.09500
H 	H 	0.67170 0.05370 0.75880 0.05900
H 	H 	0.73480 0.04780 0.70590 0.06200
C 	C 	0.62900 0.96220 0.71325 -0.04600
H 	H 	0.66260 0.92790 0.68810 0.04500
H 	H 	0.57640 0.99070 0.69410 0.04200
C 	C 	0.55810 0.82900 0.80870 0.09300
H 	H 	0.56670 0.78350 0.82790 -0.01300
C 	C 	0.50030 0.93390 0.78385 0.08400
H 	H 	0.46110 0.97840 0.78020 -0.00700
N 	N 	0.08080 0.83332 0.49523 -0.09300
N 	N 	0.11860 0.90110 0.48030 -0.10300
N 	N 	0.98310 0.87092 0.43110 -0.24300
C 	C 	0.20670 0.73200 0.51480 -0.09400
H 	H 	0.17170 0.69630 0.49120 0.05900
H 	H 	0.23480 0.70220 0.54410 0.06100
C 	C 	0.12900 0.78780 0.53675 -0.04600
H 	H 	0.16260 0.82210 0.56190 0.04500
H 	H 	0.07640 0.75930 0.55590 0.04200
C 	C 	0.05810 0.92100 0.44130 0.09300
H 	H 	0.06670 0.96650 0.42210 -0.01300
C 	C 	0.00030 0.81610 0.46615 0.08400
H 	H 	0.96110 0.77160 0.46980 -0.00700
N 	N 	0.08080 0.33332 0.99523 -0.09300
N 	N 	0.11860 0.40110 0.98030 -0.10300
N 	N 	0.98310 0.37092 0.93110 -0.24300
C 	C 	0.20670 0.23200 0.01480 -0.09200
H 	H 	0.17170 0.19630 0.99120 0.05800
H 	H 	0.23480 0.20220 0.04410 0.06100
C 	C 	0.12900 0.28780 0.03675 -0.04700
H 	H 	0.16260 0.32210 0.06190 0.04600
H 	H 	0.07640 0.25930 0.05590 0.04200
C 	C 	0.05810 0.42100 0.94130 0.09300
H 	H 	0.06670 0.46650 0.92210 -0.01300
C 	C 	0.00030 0.31610 0.96615 0.08400
H 	H 	0.96110 0.27160 0.96980 -0.00700
N 	N 	0.58080 0.83332 0.99523 -0.09300
N 	N 	0.61860 0.90110 0.98030 -0.10300
N 	N 	0.48310 0.87092 0.93110 -0.24300
C 	C 	0.70670 0.73200 0.01480 -0.09500
H 	H 	0.67170 0.69630 0.99120 0.05900
H 	H 	0.73480 0.70220 0.04410 0.06200
C 	C 	0.62900 0.78780 0.03675 -0.04600
H 	H 	0.66260 0.82210 0.06190 0.04500
H 	H 	0.57640 0.75930 0.05590 0.04200
C 	C 	0.55810 0.92100 0.94130 0.09300
H 	H 	0.56670 0.96650 0.92210 -0.01300
C 	C 	0.50030 0.81610 0.96615 0.08400
H 	H 	0.46110 0.77160 0.96980 -0.00700
N 	N 	0.58080 0.33332 0.49523 -0.09300
N 	N 	0.61860 0.40110 0.48030 -0.10300
N 	N 	0.48310 0.37092 0.43110 -0.24300
C 	C 	0.70670 0.23200 0.51480 -0.09400
H 	H 	0.67170 0.19630 0.49120 0.05900
H 	H 	0.73480 0.20220 0.54410 0.06100
C 	C 	0.62900 0.28780 0.53675 -0.04600
H 	H 	0.66260 0.32210 0.56190 0.04500
H 	H 	0.57640 0.25930 0.55590 0.04200
C 	C 	0.55810 0.42100 0.44130 0.09300
H 	H 	0.56670 0.46650 0.42210 -0.01300
C 	C 	0.50030 0.31610 0.46615 0.08400
H 	H 	0.46110 0.27160 0.46980 -0.00700
N 	N 	0.16920 0.41668 0.49523 -0.09300
N 	N 	0.13140 0.34890 0.48030 -0.10300
N 	N 	0.26690 0.37908 0.43110 -0.24300
C 	C 	0.04330 0.51800 0.51480 -0.09400
H 	H 	0.07830 0.55370 0.49120 0.05900
H 	H 	0.01520 0.54780 0.54410 0.06100
C 	C 	0.12100 0.46220 0.53675 -0.04600
H 	H 	0.08740 0.42790 0.56190 0.04500
H 	H 	0.17360 0.49070 0.55590 0.04200
C 	C 	0.19190 0.32900 0.44130 0.09300
H 	H 	0.18330 0.28350 0.42210 -0.01300
C 	C 	0.24970 0.43390 0.46615 0.08400
H 	H 	0.28890 0.47840 0.46980 -0.00700
N 	N 	0.16920 0.91668 0.99523 -0.09300
N 	N 	0.13140 0.84890 0.98030 -0.10300
N 	N 	0.26690 0.87908 0.93110 -0.24300
C 	C 	0.04330 0.01800 0.01480 -0.09300
H 	H 	0.07830 0.05370 0.99120 0.05800
H 	H 	0.01520 0.04780 0.04410 0.06100
C 	C 	0.12100 0.96220 0.03675 -0.04700
H 	H 	0.08740 0.92790 0.06190 0.04600
H 	H 	0.17360 0.99070 0.05590 0.04200
C 	C 	0.19190 0.82900 0.94130 0.09300
H 	H 	0.18330 0.78350 0.92210 -0.01300
C 	C 	0.24970 0.93390 0.96615 0.08400
H 	H 	0.28890 0.97840 0.96980 -0.00700
N 	N 	0.66920 0.41668 0.99523 -0.09300
N 	N 	0.63140 0.34890 0.98030 -0.10300
N 	N 	0.76690 0.37908 0.93110 -0.24300
C 	C 	0.54330 0.51800 0.01480 -0.09400
H 	H 	0.57830 0.55370 0.99120 0.05900
H 	H 	0.51520 0.54780 0.04410 0.06100
C 	C 	0.62100 0.46220 0.03675 -0.04600
H 	H 	0.58740 0.42790 0.06190 0.04500
H 	H 	0.67360 0.49070 0.05590 0.04200
C 	C 	0.69190 0.32900 0.94130 0.09300
H 	H 	0.68330 0.28350 0.92210 -0.01300
C 	C 	0.74970 0.43390 0.96615 0.08400
H 	H 	0.78890 0.47840 0.96980 -0.00700
N 	N 	0.66920 0.91668 0.49523 -0.09300
N 	N 	0.63140 0.84890 0.48030 -0.10300
N 	N 	0.76690 0.87908 0.43110 -0.24300
C 	C 	0.54330 0.01800 0.51480 -0.09400
H 	H 	0.57830 0.05370 0.49120 0.05900
H 	H 	0.51520 0.04780 0.54410 0.06100
C 	C 	0.62100 0.96220 0.53675 -0.04600
H 	H 	0.58740 0.92790 0.56190 0.04500
H 	H 	0.67360 0.99070 0.55590 0.04200
C 	C 	0.69190 0.82900 0.44130 0.09300
H 	H 	0.68330 0.78350 0.42210 -0.01300
C 	C 	0.74970 0.93390 0.46615 0.08400
H 	H 	0.78890 0.97840 0.46980 -0.00700
Cu	Cu	0.62500 0.12500 0.12500 0.85400
Cu	Cu	0.62500 0.62500 0.62500 0.85400
Cu	Cu	0.12500 0.62500 0.12500 0.85400
Cu	Cu	0.12500 0.12500 0.62500 0.85400
Cu	Cu	0.37500 0.87500 0.87500 0.85400
Cu	Cu	0.37500 0.37500 0.37500 0.85400
Cu	Cu	0.87500 0.37500 0.87500 0.85400
Cu	Cu	0.87500 0.87500 0.37500 0.85400
