data_crystal

_cell_length_a 12.47100
_cell_length_b 13.30600
_cell_length_c 15.71100
_cell_angle_alpha 90.00000
_cell_angle_beta  90.00000
_cell_angle_gamma 90.00000

_symmetry_space_group_name_	'P 1'
_symmetry_space_group_name_H-M	'P 1'

loop_
_symmetry_equiv_pos_as_xyz
  x,y,z

loop_
_atom_site_label
_atom_site_type_symbol
_atom_site_fract_x
_atom_site_fract_y
_atom_site_fract_z
_atom_site_charge
C 	C 	0.96780 0.31970 0.12910 0.35800
C 	C 	0.01070 0.38210 0.05820 -0.21300
H 	H 	0.06740 0.35540 0.02720 0.11500
C 	C 	0.97600 0.47180 0.03530 0.02400
H 	H 	0.91900 0.50030 0.06490 0.04100
C 	C 	0.72600 0.31340 0.40720 0.10700
H 	H 	0.76740 0.26540 0.43490 -0.01300
C 	C 	0.65290 0.36860 0.45360 -0.19900
H 	H 	0.64450 0.35690 0.51160 0.11000
C 	C 	0.59260 0.44110 0.41380 0.15900
C 	C 	0.60480 0.45580 0.32940 -0.22200
H 	H 	0.56450 0.50430 0.30120 0.11400
C 	C 	0.67560 0.39970 0.28720 0.13100
H 	H 	0.68200 0.41120 0.22900 -0.02000
C 	C 	0.51370 0.50550 0.46130 -0.09400
H 	H 	0.48220 0.55810 0.43140 0.07700
N 	N 	0.73910 0.32730 0.32140 -0.27100
O 	O 	0.89240 0.36310 0.17330 -0.43800
O 	O 	0.99190 0.23240 0.14050 -0.37000
C 	C 	0.96780 0.18030 0.37090 0.35700
C 	C 	0.01070 0.11790 0.44180 -0.21000
H 	H 	0.06740 0.14460 0.47280 0.11400
C 	C 	0.97600 0.02820 0.46470 0.02200
H 	H 	0.91900 0.99970 0.43510 0.04100
C 	C 	0.72600 0.18660 0.09280 0.10700
H 	H 	0.76740 0.23460 0.06510 -0.01300
C 	C 	0.65290 0.13140 0.04640 -0.19800
H 	H 	0.64450 0.14310 0.98840 0.11000
C 	C 	0.59260 0.05890 0.08620 0.15800
C 	C 	0.60480 0.04420 0.17060 -0.22200
H 	H 	0.56450 0.99570 0.19880 0.11400
C 	C 	0.67560 0.10030 0.21280 0.13100
H 	H 	0.68200 0.08880 0.27100 -0.02000
C 	C 	0.51370 0.99450 0.03870 -0.09400
H 	H 	0.48220 0.94190 0.06860 0.07600
N 	N 	0.73910 0.17270 0.17860 -0.27100
O 	O 	0.89240 0.13690 0.32670 -0.43800
O 	O 	0.99190 0.26760 0.35950 -0.37000
C 	C 	0.03220 0.68030 0.87090 0.35800
C 	C 	0.98930 0.61790 0.94180 -0.21300
H 	H 	0.93260 0.64460 0.97280 0.11500
C 	C 	0.02400 0.52820 0.96470 0.02400
H 	H 	0.08100 0.49970 0.93510 0.04100
C 	C 	0.27400 0.68660 0.59280 0.10700
H 	H 	0.23260 0.73460 0.56510 -0.01300
C 	C 	0.34710 0.63140 0.54640 -0.19900
H 	H 	0.35550 0.64310 0.48840 0.11000
C 	C 	0.40740 0.55890 0.58620 0.15900
C 	C 	0.39520 0.54420 0.67060 -0.22200
H 	H 	0.43550 0.49570 0.69880 0.11400
C 	C 	0.32440 0.60030 0.71280 0.13100
H 	H 	0.31800 0.58880 0.77100 -0.02000
C 	C 	0.48630 0.49450 0.53870 -0.09400
H 	H 	0.51780 0.44190 0.56860 0.07700
N 	N 	0.26090 0.67270 0.67860 -0.27100
O 	O 	0.10760 0.63690 0.82670 -0.43800
O 	O 	0.00810 0.76760 0.85950 -0.37000
C 	C 	0.03220 0.81970 0.62910 0.35700
C 	C 	0.98930 0.88210 0.55820 -0.21000
H 	H 	0.93260 0.85540 0.52720 0.11400
C 	C 	0.02400 0.97180 0.53530 0.02200
H 	H 	0.08100 0.00030 0.56490 0.04100
C 	C 	0.27400 0.81340 0.90720 0.10700
H 	H 	0.23260 0.76540 0.93490 -0.01300
C 	C 	0.34710 0.86860 0.95360 -0.19800
H 	H 	0.35550 0.85690 0.01160 0.11000
C 	C 	0.40740 0.94110 0.91380 0.15800
C 	C 	0.39520 0.95580 0.82940 -0.22200
H 	H 	0.43550 0.00430 0.80120 0.11400
C 	C 	0.32440 0.89970 0.78720 0.13100
H 	H 	0.31800 0.91120 0.72900 -0.02000
C 	C 	0.48630 0.00550 0.96130 -0.09400
H 	H 	0.51780 0.05810 0.93140 0.07600
N 	N 	0.26090 0.82730 0.82140 -0.27100
O 	O 	0.10760 0.86310 0.67330 -0.43800
O 	O 	0.00810 0.73240 0.64050 -0.37000
Zn	Zn	0.85009 0.25000 0.25000 1.21100
Zn	Zn	0.14991 0.75000 0.75000 1.21100
C 	C 	0.53220 0.68030 0.12910 0.35700
C 	C 	0.48930 0.61790 0.05820 -0.21000
H 	H 	0.43260 0.64460 0.02720 0.11400
C 	C 	0.52400 0.52820 0.03530 0.02200
H 	H 	0.58100 0.49970 0.06490 0.04100
C 	C 	0.77400 0.68660 0.40720 0.10700
H 	H 	0.73260 0.73460 0.43490 -0.01300
C 	C 	0.84710 0.63140 0.45360 -0.19900
H 	H 	0.85550 0.64310 0.51160 0.11000
C 	C 	0.90740 0.55890 0.41380 0.15900
C 	C 	0.89520 0.54420 0.32940 -0.22200
H 	H 	0.93550 0.49570 0.30120 0.11400
C 	C 	0.82440 0.60030 0.28720 0.13100
H 	H 	0.81800 0.58880 0.22900 -0.02000
C 	C 	0.98630 0.49450 0.46130 -0.09400
H 	H 	0.01780 0.44190 0.43140 0.07600
N 	N 	0.76090 0.67270 0.32140 -0.27100
O 	O 	0.60760 0.63690 0.17330 -0.43800
O 	O 	0.50810 0.76760 0.14050 -0.37000
C 	C 	0.53220 0.81970 0.37090 0.35700
C 	C 	0.48930 0.88210 0.44180 -0.21000
H 	H 	0.43260 0.85540 0.47280 0.11400
C 	C 	0.52400 0.97180 0.46470 0.02200
H 	H 	0.58100 0.00030 0.43510 0.04100
C 	C 	0.77400 0.81340 0.09280 0.10600
H 	H 	0.73260 0.76540 0.06510 -0.01300
C 	C 	0.84710 0.86860 0.04640 -0.19700
H 	H 	0.85550 0.85690 0.98840 0.10900
C 	C 	0.90740 0.94110 0.08620 0.15800
C 	C 	0.89520 0.95580 0.17060 -0.22100
H 	H 	0.93550 0.00430 0.19880 0.11400
C 	C 	0.82440 0.89970 0.21280 0.13100
H 	H 	0.81800 0.91120 0.27100 -0.02000
C 	C 	0.98630 0.00550 0.03870 -0.09300
H 	H 	0.01780 0.05810 0.06860 0.07500
N 	N 	0.76090 0.82730 0.17860 -0.27100
O 	O 	0.60760 0.86310 0.32670 -0.43800
O 	O 	0.50810 0.73240 0.35950 -0.37000
C 	C 	0.46780 0.31970 0.87090 0.35700
C 	C 	0.51070 0.38210 0.94180 -0.21000
H 	H 	0.56740 0.35540 0.97280 0.11400
C 	C 	0.47600 0.47180 0.96470 0.02200
H 	H 	0.41900 0.50030 0.93510 0.04100
C 	C 	0.22600 0.31340 0.59280 0.10700
H 	H 	0.26740 0.26540 0.56510 -0.01300
C 	C 	0.15290 0.36860 0.54640 -0.19900
H 	H 	0.14450 0.35690 0.48840 0.11000
C 	C 	0.09260 0.44110 0.58620 0.15900
C 	C 	0.10480 0.45580 0.67060 -0.22200
H 	H 	0.06450 0.50430 0.69880 0.11400
C 	C 	0.17560 0.39970 0.71280 0.13100
H 	H 	0.18200 0.41120 0.77100 -0.02000
C 	C 	0.01370 0.50550 0.53870 -0.09400
H 	H 	0.98220 0.55810 0.56860 0.07600
N 	N 	0.23910 0.32730 0.67860 -0.27100
O 	O 	0.39240 0.36310 0.82670 -0.43800
O 	O 	0.49190 0.23240 0.85950 -0.37000
C 	C 	0.46780 0.18030 0.62910 0.35700
C 	C 	0.51070 0.11790 0.55820 -0.21000
H 	H 	0.56740 0.14460 0.52720 0.11400
C 	C 	0.47600 0.02820 0.53530 0.02200
H 	H 	0.41900 0.99970 0.56490 0.04100
C 	C 	0.22600 0.18660 0.90720 0.10600
H 	H 	0.26740 0.23460 0.93490 -0.01300
C 	C 	0.15290 0.13140 0.95360 -0.19700
H 	H 	0.14450 0.14310 0.01160 0.10900
C 	C 	0.09260 0.05890 0.91380 0.15800
C 	C 	0.10480 0.04420 0.82940 -0.22100
H 	H 	0.06450 0.99570 0.80120 0.11400
C 	C 	0.17560 0.10030 0.78720 0.13100
H 	H 	0.18200 0.08880 0.72900 -0.02000
C 	C 	0.01370 0.99450 0.96130 -0.09300
H 	H 	0.98220 0.94190 0.93140 0.07500
N 	N 	0.23910 0.17270 0.82140 -0.27100
O 	O 	0.39240 0.13690 0.67330 -0.43800
O 	O 	0.49190 0.26760 0.64050 -0.37000
Zn	Zn	0.64991 0.75000 0.25000 1.21100
Zn	Zn	0.35009 0.25000 0.75000 1.21100
