data_crystal

_cell_length_a 12.05910
_cell_length_b 19.16470
_cell_length_c 4.91140
_cell_angle_alpha 90.00000
_cell_angle_beta  90.00000
_cell_angle_gamma 90.00000

_symmetry_space_group_name_	'P 1'
_symmetry_space_group_name_H-M	'P 1'

loop_
_symmetry_equiv_pos_as_xyz
  x,y,z

loop_
_atom_site_label
_atom_site_type_symbol
_atom_site_fract_x
_atom_site_fract_y
_atom_site_fract_z
_atom_site_charge
P 	P 	0.01543 0.10471 0.50240 0.38400
F 	F 	0.14610 0.01350 0.92630 -0.99700
O 	O 	0.00300 0.08533 0.20030 -0.86800
O 	O 	0.14240 0.11020 0.53440 -0.70100
O 	O 	0.95870 0.04920 0.68280 -0.48400
C 	C 	0.94840 0.18758 0.55920 0.20100
P 	P 	0.48457 0.39529 0.50240 0.54200
F 	F 	0.35390 0.48650 0.92630 -0.86500
O 	O 	0.49700 0.41467 0.20030 -0.75100
O 	O 	0.35760 0.38980 0.53440 -0.69200
O 	O 	0.54130 0.45080 0.68280 -0.45300
C 	C 	0.55160 0.31242 0.55920 0.02600
P 	P 	0.98457 0.60471 0.49760 0.67000
F 	F 	0.85390 0.51350 0.07370 -1.19300
O 	O 	0.99700 0.58533 0.79970 -0.31900
O 	O 	0.85760 0.61020 0.46560 -0.68500
O 	O 	0.04130 0.54920 0.31720 -0.83600
C 	C 	0.05160 0.68758 0.44080 -0.33000
P 	P 	0.51543 0.89529 0.49760 0.51800
F 	F 	0.64610 0.98650 0.07370 -1.09500
O 	O 	0.50300 0.91467 0.79970 -0.27600
O 	O 	0.64240 0.88980 0.46560 -0.64800
O 	O 	0.45870 0.95080 0.31720 -0.58300
C 	C 	0.44840 0.81242 0.44080 -0.13100
P 	P 	0.98457 0.89529 0.49760 0.66500
F 	F 	0.85390 0.98650 0.07370 -1.07300
O 	O 	0.99700 0.91467 0.79970 -0.24100
O 	O 	0.85760 0.88980 0.46560 -0.66100
O 	O 	0.04130 0.95080 0.31720 -0.68000
C 	C 	0.05160 0.81242 0.44080 -0.31000
P 	P 	0.51543 0.60471 0.49760 0.51700
F 	F 	0.64610 0.51350 0.07370 -1.21700
O 	O 	0.50300 0.58533 0.79970 -0.35800
O 	O 	0.64240 0.61020 0.46560 -0.67200
O 	O 	0.45870 0.54920 0.31720 -0.73400
C 	C 	0.44840 0.68758 0.44080 -0.14800
P 	P 	0.01543 0.39529 0.50240 0.38900
F 	F 	0.14610 0.48650 0.92630 -0.88300
O 	O 	0.00300 0.41467 0.20030 -0.79200
O 	O 	0.14240 0.38980 0.53440 -0.67800
O 	O 	0.95870 0.45080 0.68280 -0.34900
C 	C 	0.94840 0.31242 0.55920 0.21500
P 	P 	0.48457 0.10471 0.50240 0.53900
F 	F 	0.35390 0.01350 0.92630 -0.97900
O 	O 	0.49700 0.08533 0.20030 -0.82900
O 	O 	0.35760 0.11020 0.53440 -0.71600
O 	O 	0.54130 0.04920 0.68280 -0.59400
C 	C 	0.55160 0.18758 0.55920 0.01000
Al	Al	0.25000 0.06234 0.73370 2.39000
Al	Al	0.25000 0.43766 0.73370 2.39300
Al	Al	0.75000 0.56234 0.26630 2.38600
Al	Al	0.75000 0.93766 0.26630 2.38900
C 	C 	0.01240 0.25000 0.45140 -0.26700
C 	C 	0.48760 0.25000 0.45140 -0.05300
C 	C 	0.98760 0.75000 0.54860 0.33300
C 	C 	0.51240 0.75000 0.54860 0.13000
Al	Al	-0.00000 0.00000 -0.00000 2.34700
Al	Al	0.50000 0.50000 -0.00000 2.37500
Al	Al	-0.00000 0.50000 -0.00000 2.36700
Al	Al	0.50000 0.00000 -0.00000 2.35500
