data_crystal

_cell_length_a 7.24700
_cell_length_b 15.58730
_cell_length_c 19.33700
_cell_angle_alpha 106.36900
_cell_angle_beta  90.00000
_cell_angle_gamma 103.44200

_symmetry_space_group_name_	'P 1'
_symmetry_space_group_name_H-M	'P 1'

loop_
_symmetry_equiv_pos_as_xyz
  x,y,z

loop_
_atom_site_label
_atom_site_type_symbol
_atom_site_fract_x
_atom_site_fract_y
_atom_site_fract_z
_atom_site_charge
Mn	Mn	0.83875 0.35366 0.08992 1.27600
Mn	Mn	0.87062 0.58406 0.04905 1.27000
Mn	Mn	0.39981 0.56908 0.23072 1.26800
Mn	Mn	0.51491 0.35366 0.58992 1.28600
Mn	Mn	0.71344 0.58406 0.54905 1.28500
Mn	Mn	0.16927 0.56908 0.73072 1.27300
H 	H 	0.36850 0.21660 0.20230 0.07100
H 	H 	0.22350 0.23860 0.40580 0.06800
H 	H 	0.50200 0.46440 0.35400 0.01300
H 	H 	0.99560 0.95120 0.10750 0.11000
H 	H 	0.81710 0.80140 0.08710 -0.05200
H 	H 	0.84270 0.83060 0.30010 -0.02900
H 	H 	0.01920 0.98260 0.32250 0.15000
H 	H 	0.32690 0.78820 0.30620 -0.01400
H 	H 	0.49040 0.93780 0.35810 0.08200
H 	H 	0.51110 0.98300 0.16210 0.08300
H 	H 	0.34010 0.83180 0.10980 0.00300
H 	H 	0.68220 0.22340 0.39740 0.06400
H 	H 	0.00180 0.45900 0.37090 0.06600
H 	H 	0.88210 0.22880 0.20280 0.03800
H 	H 	0.84810 0.21660 0.70230 0.07100
H 	H 	0.01510 0.23860 0.90580 0.09800
H 	H 	0.96240 0.46440 0.85400 0.00700
H 	H 	0.95560 0.95120 0.60750 0.08200
H 	H 	0.98430 0.80140 0.58710 -0.02200
H 	H 	0.98790 0.83060 0.80010 0.00300
H 	H 	0.96340 0.98260 0.82250 0.08700
H 	H 	0.46130 0.78820 0.80620 -0.01400
H 	H 	0.44740 0.93780 0.85810 0.08900
H 	H 	0.47190 0.98300 0.66210 0.08800
H 	H 	0.49170 0.83180 0.60980 0.00400
H 	H 	0.54120 0.22340 0.89740 0.06700
H 	H 	0.45720 0.45900 0.87090 0.03700
H 	H 	0.34670 0.22880 0.70280 0.04900
C 	C 	0.56010 0.39200 0.21610 0.35300
C 	C 	0.45270 0.34700 0.26970 -0.08300
C 	C 	0.36560 0.25320 0.24930 -0.04900
C 	C 	0.27250 0.21480 0.30200 0.09400
C 	C 	0.27770 0.26600 0.37140 -0.06200
C 	C 	0.36450 0.36080 0.39190 -0.07800
C 	C 	0.37160 0.41640 0.46920 0.33500
C 	C 	0.44850 0.40140 0.34100 0.02100
C 	C 	0.02100 0.98080 0.21530 0.23700
C 	C 	0.96450 0.92740 0.14610 -0.28700
C 	C 	0.86020 0.83720 0.13400 0.17100
C 	C 	0.81940 0.79980 0.19090 -0.23100
C 	C 	0.70310 0.70120 0.17580 0.41800
C 	C 	0.87520 0.85500 0.26170 0.17800
C 	C 	0.97890 0.94600 0.27560 -0.30100
C 	C 	0.19950 0.69740 0.16850 0.38900
C 	C 	0.31610 0.79320 0.20220 -0.16600
C 	C 	0.36320 0.82700 0.27740 0.09300
C 	C 	0.46170 0.91640 0.30840 -0.17200
C 	C 	0.51930 0.97580 0.26580 0.12600
C 	C 	0.47360 0.94380 0.19070 -0.15900
C 	C 	0.37160 0.85300 0.15930 0.08900
C 	C 	0.76860 0.20840 0.29470 0.07800
C 	C 	0.75110 0.25520 0.36800 -0.04500
C 	C 	0.83870 0.35040 0.39620 -0.08900
C 	C 	0.79950 0.40000 0.46940 0.38200
C 	C 	0.94310 0.39680 0.35220 0.00100
C 	C 	0.96120 0.35160 0.28040 -0.10800
C 	C 	0.07180 0.40280 0.23220 0.39100
C 	C 	0.87240 0.25820 0.25130 -0.04100
C 	C 	0.83190 0.39200 0.71610 0.35200
C 	C 	0.89430 0.34700 0.76970 -0.08600
C 	C 	0.88760 0.25320 0.74930 -0.05700
C 	C 	0.94230 0.21480 0.80200 0.10000
C 	C 	0.98830 0.26600 0.87140 -0.09900
C 	C 	0.99630 0.36080 0.89190 -0.09400
C 	C 	0.04480 0.41640 0.96920 0.37800
C 	C 	0.95290 0.40140 0.84100 0.02300
C 	C 	0.95980 0.98080 0.71530 0.12800
C 	C 	0.96290 0.92740 0.64610 -0.18100
C 	C 	0.97700 0.83720 0.63400 0.09300
C 	C 	0.98040 0.79980 0.69090 -0.16400
C 	C 	0.99810 0.70120 0.67580 0.37200
C 	C 	0.97980 0.85500 0.76170 0.08600
C 	C 	0.96710 0.94600 0.77560 -0.16300
C 	C 	0.49790 0.69740 0.66850 0.39100
C 	C 	0.47710 0.79320 0.70220 -0.16800
C 	C 	0.46380 0.82700 0.77740 0.09600
C 	C 	0.45470 0.91640 0.80840 -0.17400
C 	C 	0.45650 0.97580 0.76580 0.13200
C 	C 	0.47020 0.94380 0.69070 -0.16000
C 	C 	0.48140 0.85300 0.65930 0.09200
C 	C 	0.43980 0.20840 0.79470 0.08200
C 	C 	0.50410 0.25520 0.86800 -0.03100
C 	C 	0.51170 0.35040 0.89620 -0.10800
C 	C 	0.60050 0.40000 0.96940 0.42200
C 	C 	0.45370 0.39680 0.85220 0.04800
C 	C 	0.39040 0.35160 0.78040 -0.09600
C 	C 	0.33100 0.40280 0.73220 0.37500
C 	C 	0.38580 0.25820 0.75130 -0.03800
N 	N 	0.17990 0.11940 0.28860 -0.07500
N 	N 	0.12160 0.07620 0.22510 -0.08600
N 	N 	0.62020 0.06780 0.30170 -0.07700
N 	N 	0.68000 0.11560 0.26110 -0.08000
N 	N 	0.93950 0.11940 0.78860 -0.08200
N 	N 	0.95460 0.07620 0.72510 -0.07800
N 	N 	0.44760 0.06780 0.80170 -0.07300
N 	N 	0.43560 0.11560 0.76110 -0.07500
O 	O 	0.60273 0.33826 0.15920 -0.42500
O 	O 	0.60197 0.47834 0.23200 -0.41900
O 	O 	0.45431 0.50122 0.48620 -0.43700
O 	O 	0.30113 0.37686 0.51640 -0.39600
O 	O 	0.64556 0.67532 0.23080 -0.45900
O 	O 	0.67220 0.65240 0.11270 -0.47900
O 	O 	0.11784 0.68128 0.10720 -0.44000
O 	O 	0.18126 0.63892 0.20400 -0.41500
O 	O 	0.69879 0.35418 0.50640 -0.47100
O 	O 	0.86608 0.48636 0.49140 -0.45100
O 	O 	0.16657 0.48394 0.26310 -0.44900
O 	O 	0.06001 0.36402 0.16490 -0.45400
O 	O 	0.87413 0.50966 0.13740 -0.39600
O 	O 	0.73553 0.33826 0.65920 -0.42300
O 	O 	0.87637 0.47834 0.73200 -0.42200
O 	O 	0.04691 0.50122 0.98620 -0.42400
O 	O 	0.07573 0.37686 0.01640 -0.42100
O 	O 	0.02976 0.67532 0.73080 -0.42600
O 	O 	0.98020 0.65240 0.61270 -0.46600
O 	O 	0.56344 0.68128 0.60720 -0.44600
O 	O 	0.45766 0.63892 0.70400 -0.42000
O 	O 	0.65539 0.35418 0.00640 -0.50500
O 	O 	0.62028 0.48636 0.99140 -0.44100
O 	O 	0.31737 0.48394 0.76310 -0.44500
O 	O 	0.30401 0.36402 0.66490 -0.45500
O 	O 	0.63553 0.50966 0.63740 -0.38200
