data_crystal

_cell_length_a 7.74100
_cell_length_b 15.59670
_cell_length_c 15.59670
_cell_angle_alpha 62.68100
_cell_angle_beta  80.47720
_cell_angle_gamma 99.52280

_symmetry_space_group_name_	'P 1'
_symmetry_space_group_name_H-M	'P 1'

loop_
_symmetry_equiv_pos_as_xyz
  x,y,z

loop_
_atom_site_label
_atom_site_type_symbol
_atom_site_fract_x
_atom_site_fract_y
_atom_site_fract_z
_atom_site_charge
Cu	Cu	0.50000 0.00000 0.50000 0.92700
H 	H 	0.13800 0.95620 0.32130 0.38500
H 	H 	0.22120 0.88010 0.30070 0.35400
H 	H 	0.31760 0.99560 0.23500 0.36900
H 	H 	0.39190 0.80060 0.39730 0.22100
H 	H 	0.85990 0.81600 0.51980 0.08900
H 	H 	0.01610 0.70140 0.53150 -0.01900
H 	H 	0.64370 0.55930 0.46920 0.01800
H 	H 	0.47300 0.66780 0.45710 0.06700
H 	H 	0.86200 0.04380 0.67870 0.31400
H 	H 	0.77880 0.11990 0.69930 0.30400
H 	H 	0.68240 0.00440 0.76500 0.28500
H 	H 	0.60810 0.19940 0.60270 0.19500
H 	H 	0.14010 0.18400 0.48020 0.04300
H 	H 	0.98390 0.29860 0.46850 0.06500
H 	H 	0.35630 0.44070 0.53080 0.02100
H 	H 	0.52700 0.33220 0.54290 0.06200
C 	C 	0.24920 0.94230 0.30110 -1.18600
C 	C 	0.35990 0.93379 0.37389 0.68500
C 	C 	0.43063 0.85091 0.41182 -0.58400
C 	C 	0.55406 0.83754 0.46916 0.34300
C 	C 	0.64822 0.75750 0.48404 -0.03700
C 	C 	0.81315 0.76452 0.50837 -0.10700
C 	C 	0.90620 0.69510 0.51530 0.10700
C 	C 	0.68820 0.61215 0.47915 0.04400
C 	C 	0.58450 0.67733 0.47113 -0.09200
C 	C 	0.75080 0.05770 0.69890 -0.98400
C 	C 	0.64010 0.06621 0.62611 0.49200
C 	C 	0.56937 0.14909 0.58818 -0.50100
C 	C 	0.44594 0.16246 0.53084 0.31200
C 	C 	0.35178 0.24250 0.51596 -0.06400
C 	C 	0.18685 0.23548 0.49163 -0.03600
C 	C 	0.09380 0.30490 0.48470 -0.03100
C 	C 	0.31180 0.38785 0.52085 0.02900
C 	C 	0.41550 0.32267 0.52887 -0.07400
N 	N 	0.84831 0.61929 0.50006 -0.17300
N 	N 	0.15169 0.38071 0.49994 -0.15900
O 	O 	0.38194 0.00248 0.39536 -0.53400
O 	O 	0.60265 0.89139 0.50654 -0.36900
O 	O 	0.61806 0.99752 0.60464 -0.39100
O 	O 	0.39735 0.10861 0.49346 -0.39000
Cu	Cu	0.00000 0.50000 0.50000 0.93600
H 	H 	0.45930 0.32130 0.72250 0.34300
H 	H 	0.52190 0.30070 0.81920 0.32900
H 	H 	0.55260 0.23500 0.76940 0.32300
H 	H 	0.78920 0.39730 0.80210 0.19600
H 	H 	0.37970 0.51980 0.66420 0.07700
H 	H 	0.54760 0.53150 0.76710 0.01900
H 	H 	0.11290 0.46920 0.97150 0.01700
H 	H 	0.93010 0.45710 0.87510 0.12200
H 	H 	0.54070 0.67870 0.27750 0.35700
H 	H 	0.47810 0.69930 0.18080 0.33000
H 	H 	0.44740 0.76500 0.23060 0.33100
H 	H 	0.21080 0.60270 0.19790 0.22100
H 	H 	0.62030 0.48020 0.33580 0.05500
H 	H 	0.45240 0.46850 0.23290 0.02900
H 	H 	0.88710 0.53080 0.02850 0.02100
H 	H 	0.06990 0.54290 0.12490 0.01100
C 	C 	0.55030 0.30110 0.75660 -1.06500
C 	C 	0.73379 0.37389 0.69232 0.56700
C 	C 	0.84245 0.41182 0.73727 -0.47900
C 	C 	0.02322 0.46916 0.69330 0.26700
C 	C 	0.13226 0.48404 0.75846 -0.00000
C 	C 	0.32152 0.50837 0.72711 -0.10300
C 	C 	0.42150 0.51530 0.78960 0.05600
C 	C 	0.16735 0.47915 0.90870 0.08500
C 	C 	0.05563 0.47113 0.85154 -0.17400
C 	C 	0.44970 0.69890 0.24340 -1.10900
C 	C 	0.26621 0.62611 0.30768 0.61200
C 	C 	0.15755 0.58818 0.26273 -0.60700
C 	C 	0.97678 0.53084 0.30670 0.38800
C 	C 	0.86774 0.51596 0.24154 -0.10000
C 	C 	0.67848 0.49163 0.27289 -0.04000
C 	C 	0.57850 0.48470 0.21040 0.01700
C 	C 	0.83265 0.52085 0.09130 -0.00900
C 	C 	0.94437 0.52887 0.14846 0.00300
N 	N 	0.34837 0.50006 0.88065 -0.16900
N 	N 	0.65163 0.49994 0.11935 -0.16100
O 	O 	0.77730 0.39536 0.60216 -0.45000
O 	O 	0.10919 0.50654 0.60207 -0.37400
O 	O 	0.22270 0.60464 0.39784 -0.48000
O 	O 	0.89081 0.49346 0.39793 -0.38900
Cu	Cu	0.50000 0.50000 -0.00000 0.92500
H 	H 	0.18180 0.72250 0.95620 0.40700
H 	H 	0.34110 0.81920 0.88010 0.38600
H 	H 	0.32200 0.76940 0.99560 0.39500
H 	H 	0.59130 0.80210 0.80060 0.23500
H 	H 	0.04390 0.66420 0.81600 0.07100
H 	H 	0.31470 0.76710 0.70140 0.02100
H 	H 	0.08440 0.97150 0.55930 0.05100
H 	H 	0.80520 0.87510 0.66780 0.05500
H 	H 	0.81820 0.27750 0.04380 0.29100
H 	H 	0.65890 0.18080 0.11990 0.27200
H 	H 	0.67800 0.23060 0.00440 0.25800
H 	H 	0.40870 0.19790 0.19940 0.18100
H 	H 	0.95610 0.33580 0.18400 0.06000
H 	H 	0.68530 0.23290 0.29860 0.02600
H 	H 	0.91560 0.02850 0.44070 -0.01000
H 	H 	0.19480 0.12490 0.33220 0.07400
C 	C 	0.30690 0.75660 0.94230 -1.24300
C 	C 	0.42611 0.69232 0.93379 0.71400
C 	C 	0.57972 0.73727 0.85091 -0.60000
C 	C 	0.71652 0.69330 0.83754 0.35700
C 	C 	0.89072 0.75846 0.75750 -0.03900
C 	C 	0.04863 0.72711 0.76452 -0.10200
C 	C 	0.21110 0.78960 0.69510 0.04400
C 	C 	0.07605 0.90870 0.61215 -0.01300
C 	C 	0.90717 0.85154 0.67733 -0.02500
C 	C 	0.69310 0.24340 0.05770 -0.92700
C 	C 	0.57389 0.30768 0.06621 0.46200
C 	C 	0.42028 0.26273 0.14909 -0.48400
C 	C 	0.28348 0.30670 0.16246 0.29800
C 	C 	0.10928 0.24154 0.24250 -0.06100
C 	C 	0.95137 0.27289 0.23548 -0.04400
C 	C 	0.78890 0.21040 0.30490 0.02900
C 	C 	0.92395 0.09130 0.38785 0.08100
C 	C 	0.09283 0.14846 0.32267 -0.13600
N 	N 	0.22902 0.88065 0.61929 -0.15100
N 	N 	0.77098 0.11935 0.38071 -0.17800
O 	O 	0.37946 0.60216 0.00248 -0.54400
O 	O 	0.71126 0.60207 0.89139 -0.36700
O 	O 	0.62054 0.39784 0.99752 -0.38200
O 	O 	0.28874 0.39793 0.10861 -0.39000
