data_crystal

_cell_length_a 7.75540
_cell_length_b 15.64080
_cell_length_c 15.64080
_cell_angle_alpha 62.67590
_cell_angle_beta  80.48640
_cell_angle_gamma 99.51360

_symmetry_space_group_name_	'P 1'
_symmetry_space_group_name_H-M	'P 1'

loop_
_symmetry_equiv_pos_as_xyz
  x,y,z

loop_
_atom_site_label
_atom_site_type_symbol
_atom_site_fract_x
_atom_site_fract_y
_atom_site_fract_z
_atom_site_charge
Cu	Cu	0.50000 0.00000 0.50000 0.92800
H 	H 	0.81040 0.94240 0.72980 0.34400
H 	H 	0.64030 0.88740 0.82330 0.31500
H 	H 	0.69510 0.00420 0.75710 0.28100
H 	H 	0.40400 0.80290 0.80240 0.21200
H 	H 	0.19390 0.66980 0.87390 0.07600
H 	H 	0.95470 0.81590 0.66450 0.06300
H 	H 	0.68480 0.70120 0.76790 0.02800
H 	H 	0.91680 0.56070 0.96970 0.03200
H 	H 	0.18960 0.05760 0.27020 0.37700
H 	H 	0.35970 0.11260 0.17670 0.36400
H 	H 	0.30490 0.99580 0.24290 0.40100
H 	H 	0.59600 0.19710 0.19760 0.20600
H 	H 	0.80610 0.33020 0.12610 0.05300
H 	H 	0.04530 0.18410 0.33550 0.06500
H 	H 	0.31520 0.29880 0.23210 0.01900
H 	H 	0.08320 0.43930 0.03030 0.00600
C 	C 	0.69010 0.94290 0.75640 -1.00200
C 	C 	0.57212 0.93432 0.69226 0.62700
C 	C 	0.41741 0.85258 0.73715 -0.55600
C 	C 	0.28258 0.83920 0.69296 0.34100
C 	C 	0.10829 0.75910 0.75773 -0.07000
C 	C 	0.09211 0.67918 0.85025 -0.10800
C 	C 	0.95085 0.76483 0.72728 -0.03600
C 	C 	0.78874 0.69514 0.78992 0.03100
C 	C 	0.92442 0.61368 0.90712 0.07600
C 	C 	0.30990 0.05710 0.24360 -1.25100
C 	C 	0.42788 0.06568 0.30774 0.58300
C 	C 	0.58259 0.14742 0.26285 -0.55400
C 	C 	0.71742 0.16080 0.30704 0.32400
C 	C 	0.89171 0.24090 0.24227 -0.03400
C 	C 	0.90789 0.32082 0.14975 -0.05600
C 	C 	0.04915 0.23517 0.27272 -0.10600
C 	C 	0.21126 0.30486 0.21008 0.04500
C 	C 	0.07558 0.38632 0.09288 0.00100
N 	N 	0.77207 0.62009 0.87978 -0.16000
N 	N 	0.22793 0.37991 0.12022 -0.17000
O 	O 	0.28831 0.89188 0.60155 -0.37300
O 	O 	0.62032 0.00246 0.60200 -0.50700
O 	O 	0.71169 0.10812 0.39845 -0.38800
O 	O 	0.37968 0.99754 0.39800 -0.42800
Cu	Cu	0.00000 0.50000 0.50000 0.93800
H 	H 	0.54020 0.72980 0.32780 0.37400
H 	H 	0.46360 0.82330 0.28930 0.35300
H 	H 	0.45220 0.75710 0.23870 0.35000
H 	H 	0.20640 0.80240 0.39470 0.22800
H 	H 	0.06780 0.87390 0.45630 0.02300
H 	H 	0.61920 0.66450 0.51960 0.05300
H 	H 	0.45270 0.76790 0.53090 0.03000
H 	H 	0.88650 0.96970 0.46960 0.05800
H 	H 	0.45980 0.27020 0.67220 0.34900
H 	H 	0.53640 0.17670 0.71070 0.32700
H 	H 	0.54780 0.24290 0.76130 0.33300
H 	H 	0.79360 0.19760 0.60530 0.19100
H 	H 	0.93220 0.12610 0.54370 0.10600
H 	H 	0.38080 0.33550 0.48040 0.07600
H 	H 	0.54730 0.23210 0.46910 0.01800
H 	H 	0.11350 0.03030 0.53040 -0.02000
C 	C 	0.44650 0.75640 0.30070 -1.16400
C 	C 	0.26438 0.69226 0.37342 0.63400
C 	C 	0.15456 0.73715 0.41027 -0.61800
C 	C 	0.97554 0.69296 0.46784 0.39000
C 	C 	0.86602 0.75773 0.48317 -0.09900
C 	C 	0.94236 0.85025 0.47057 0.00600
C 	C 	0.67813 0.72728 0.50789 -0.03800
C 	C 	0.57866 0.78992 0.51494 0.02000
C 	C 	0.83154 0.90712 0.47920 -0.00300
C 	C 	0.55350 0.24360 0.69930 -1.09100
C 	C 	0.73562 0.30774 0.62658 0.57800
C 	C 	0.84544 0.26285 0.58973 -0.49500
C 	C 	0.02446 0.30704 0.53216 0.27600
C 	C 	0.13398 0.24227 0.51683 -0.00500
C 	C 	0.05764 0.14975 0.52943 -0.17100
C 	C 	0.32187 0.27272 0.49211 -0.10400
C 	C 	0.42134 0.21008 0.48506 0.05600
C 	C 	0.16846 0.09288 0.52080 0.08000
N 	N 	0.65185 0.87978 0.50013 -0.14700
N 	N 	0.34815 0.12022 0.49987 -0.18400
O 	O 	0.88986 0.60155 0.50657 -0.39000
O 	O 	0.22232 0.60200 0.39554 -0.48500
O 	O 	0.11014 0.39845 0.49343 -0.37500
O 	O 	0.77768 0.39800 0.60446 -0.45400
Cu	Cu	0.50000 0.50000 -0.00000 0.92700
H 	H 	0.86800 0.32780 0.94240 0.33200
H 	H 	0.75290 0.28930 0.88740 0.29900
H 	H 	0.69090 0.23870 0.00420 0.25900
H 	H 	0.60110 0.39470 0.80290 0.20900
H 	H 	0.52410 0.45630 0.66980 0.06100
H 	H 	0.13880 0.51960 0.81590 0.05100
H 	H 	0.98360 0.53090 0.70120 0.05900
H 	H 	0.35610 0.46960 0.56070 0.02100
H 	H 	0.13200 0.67220 0.05760 0.39000
H 	H 	0.24710 0.71070 0.11260 0.38100
H 	H 	0.30910 0.76130 0.99580 0.42400
H 	H 	0.39890 0.60530 0.19710 0.20900
H 	H 	0.47590 0.54370 0.33020 0.06800
H 	H 	0.86120 0.48040 0.18410 0.07800
H 	H 	0.01640 0.46910 0.29880 -0.01200
H 	H 	0.64390 0.53040 0.43930 0.01700
C 	C 	0.74720 0.30070 0.94290 -0.96500
C 	C 	0.63780 0.37342 0.93432 0.61500
C 	C 	0.56483 0.41027 0.85258 -0.55100
C 	C 	0.44338 0.46784 0.83920 0.33900
C 	C 	0.34919 0.48317 0.75910 -0.06700
C 	C 	0.41293 0.47057 0.67918 -0.07100
C 	C 	0.18602 0.50789 0.76483 -0.03900
C 	C 	0.09360 0.51494 0.69514 -0.02000
C 	C 	0.31074 0.47920 0.61368 0.03100
C 	C 	0.25280 0.69930 0.05710 -1.29000
C 	C 	0.36220 0.62658 0.06568 0.59500
C 	C 	0.43517 0.58973 0.14742 -0.56000
C 	C 	0.55662 0.53216 0.16080 0.32600
C 	C 	0.65081 0.51683 0.24090 -0.03700
C 	C 	0.58707 0.52943 0.32082 -0.09400
C 	C 	0.81398 0.49211 0.23517 -0.10400
C 	C 	0.90640 0.48506 0.30486 0.09700
C 	C 	0.68926 0.52080 0.38632 0.04700
N 	N 	0.15198 0.50013 0.62009 -0.15900
N 	N 	0.84802 0.49987 0.37991 -0.17300
O 	O 	0.39643 0.50657 0.89188 -0.36900
O 	O 	0.61786 0.39554 0.00246 -0.50600
O 	O 	0.60357 0.49343 0.10812 -0.39200
O 	O 	0.38214 0.60446 0.99754 -0.42900
