data_crystal

_cell_length_a 6.37220
_cell_length_b 9.99920
_cell_length_c 11.22340
_cell_angle_alpha 116.45300
_cell_angle_beta  96.34090
_cell_angle_gamma 90.00000

_symmetry_space_group_name_	'P 1'
_symmetry_space_group_name_H-M	'P 1'

loop_
_symmetry_equiv_pos_as_xyz
  x,y,z

loop_
_atom_site_label
_atom_site_type_symbol
_atom_site_fract_x
_atom_site_fract_y
_atom_site_fract_z
_atom_site_charge
Ni	Ni	0.50000 0.84882 -0.00000 0.93100
Ni	Ni	0.50000 0.15118 -0.00000 0.93100
Ni	Ni	-0.00000 0.00000 -0.00000 0.96700
H 	H 	0.07660 0.52030 0.65860 0.14000
H 	H 	0.78780 0.55650 0.65800 -0.04100
H 	H 	0.79670 0.67040 0.59860 -0.03500
H 	H 	0.28640 0.62570 0.53240 -0.04600
H 	H 	0.33540 0.50600 0.58380 -0.05100
H 	H 	0.92340 0.86170 0.34140 -0.01400
H 	H 	0.21220 0.89850 0.34200 0.12200
H 	H 	0.20330 0.07180 0.40140 0.13800
H 	H 	0.71360 0.09330 0.46760 0.14700
H 	H 	0.66460 0.92220 0.41620 0.13700
H 	H 	0.92340 0.47970 0.34140 -0.01900
H 	H 	0.21220 0.44350 0.34200 0.13000
H 	H 	0.20330 0.32960 0.40140 0.14600
H 	H 	0.71360 0.37430 0.46760 0.15300
H 	H 	0.66460 0.49400 0.41620 0.14300
H 	H 	0.07660 0.13830 0.65860 0.13700
H 	H 	0.78780 0.10150 0.65800 -0.03500
H 	H 	0.79670 0.92820 0.59860 -0.03100
H 	H 	0.28640 0.90670 0.53240 -0.04000
H 	H 	0.33540 0.07780 0.58380 -0.04500
C 	C 	0.07030 0.60417 0.63574 -0.42200
C 	C 	0.85190 0.57784 0.59348 0.30700
C 	C 	0.22380 0.54401 0.54322 0.26900
C 	C 	0.14970 0.71622 0.77724 0.43500
C 	C 	0.92970 0.96843 0.36426 0.17000
C 	C 	0.14810 0.98436 0.40652 -0.41800
C 	C 	0.77620 0.00079 0.45678 -0.39100
C 	C 	0.85030 0.93898 0.22276 0.25100
C 	C 	0.92970 0.39583 0.36426 0.19100
C 	C 	0.14810 0.42216 0.40652 -0.44600
C 	C 	0.77620 0.45599 0.45678 -0.41100
C 	C 	0.85030 0.28378 0.22276 0.24400
C 	C 	0.07030 0.03157 0.63574 -0.40900
C 	C 	0.85190 0.01564 0.59348 0.29000
C 	C 	0.22380 0.99921 0.54322 0.24900
C 	C 	0.14970 0.06102 0.77724 0.43000
O 	O 	0.34510 0.73959 0.80978 -0.35900
O 	O 	0.01120 0.77986 0.85492 -0.33500
O 	O 	0.65490 0.92981 0.19022 -0.47200
O 	O 	0.98880 0.92494 0.14508 -0.45200
O 	O 	0.65490 0.26041 0.19022 -0.47100
O 	O 	0.98880 0.22014 0.14508 -0.45000
O 	O 	0.34510 0.07019 0.80978 -0.35800
O 	O 	0.01120 0.07506 0.85492 -0.33300
O 	O 	0.68300 0.97101 0.94202 -0.29600
O 	O 	0.31700 0.02899 0.05798 -0.67800
