data_crystal

_cell_length_a 22.92000
_cell_length_b 28.73800
_cell_length_c 22.99900
_cell_angle_alpha 90.00000
_cell_angle_beta  94.90800
_cell_angle_gamma 90.00000

_symmetry_space_group_name_	'P 1'
_symmetry_space_group_name_H-M	'P 1'

loop_
_symmetry_equiv_pos_as_xyz
  x,y,z

loop_
_atom_site_label
_atom_site_type_symbol
_atom_site_fract_x
_atom_site_fract_y
_atom_site_fract_z
_atom_site_charge
Cd	Cd	0.23255 0.43646 0.34208 1.21400
Cd	Cd	0.73113 0.68736 0.34666 1.21700
C 	C 	0.90310 0.62990 0.34710 -0.07900
O 	O 	0.81050 0.64860 0.37990 -0.43600
O 	O 	0.27130 0.39380 0.27230 -0.41500
O 	O 	0.20680 0.44410 0.22930 -0.33500
O 	O 	0.20610 0.39150 0.41320 -0.45700
C 	C 	0.23710 0.37060 0.50840 -0.09900
O 	O 	0.27350 0.43610 0.46060 -0.32900
O 	O 	0.65760 0.64170 0.30370 -0.44200
C 	C 	0.56520 0.62600 0.33640 -0.10400
O 	O 	0.62660 0.69010 0.36660 -0.36800
O 	O 	0.84400 0.69350 0.31220 -0.33900
C 	C 	0.18710 0.31330 0.56350 -0.07300
H 	H 	0.15390 0.29400 0.56620 0.05900
C 	C 	0.28210 0.37160 0.55410 0.01200
H 	H 	0.31460 0.39170 0.55100 0.03800
C 	C 	0.94150 0.63450 0.30330 0.00400
H 	H 	0.93380 0.65620 0.27240 0.04000
C 	C 	0.28860 0.32450 0.11540 -0.07900
H 	H 	0.31770 0.30120 0.11270 0.05900
C 	C 	0.84870 0.66140 0.34490 0.32800
C 	C 	0.28560 0.34880 0.16700 0.00700
H 	H 	0.31100 0.34040 0.20010 0.04500
C 	C 	0.00470 0.57410 0.34860 0.01100
C 	C 	0.99190 0.60620 0.30630 -0.07300
H 	H 	0.01830 0.60980 0.27700 0.05300
C 	C 	0.96200 0.56830 0.39070 -0.07400
H 	H 	0.96750 0.54480 0.41960 0.05800
C 	C 	0.91440 0.59570 0.38930 0.00700
H 	H 	0.88760 0.59160 0.41810 0.04200
C 	C 	0.24650 0.38520 0.17140 -0.08300
C 	C 	0.19110 0.33980 0.51370 0.00900
H 	H 	0.16160 0.33680 0.48230 0.04000
C 	C 	0.23740 0.40850 0.22710 0.28800
C 	C 	0.52630 0.63520 0.37960 0.02100
H 	H 	0.53420 0.66000 0.40640 0.04200
C 	C 	0.61910 0.65530 0.33590 0.33400
C 	C 	0.55120 0.59300 0.29610 0.02200
H 	H 	0.57510 0.58890 0.26480 0.03200
C 	C 	0.24160 0.40170 0.45790 0.32200
N 	N 	0.15560 0.48580 0.34730 -0.24000
C 	C 	0.05470 0.54470 0.34900 0.06100
C 	C 	0.08830 0.54160 0.30110 -0.11900
H 	H 	0.07680 0.55900 0.26690 0.06900
C 	C 	0.13750 0.51410 0.30220 0.06000
H 	H 	0.16020 0.51500 0.26940 0.01300
C 	C 	0.07470 0.51480 0.39530 -0.13000
H 	H 	0.05480 0.51410 0.42990 0.07900
C 	C 	0.12290 0.48640 0.39080 0.08500
H 	H 	0.13290 0.46560 0.42220 -0.00200
N 	N 	0.22200 0.23600 0.76730 -0.24400
C 	C 	0.26020 0.29930 0.71680 -0.14800
H 	H 	0.28470 0.32600 0.71850 0.07800
C 	C 	0.19200 0.22500 0.71870 0.09400
H 	H 	0.16730 0.19850 0.71900 -0.00400
C 	C 	0.22860 0.28750 0.66440 0.08200
C 	C 	0.25650 0.27320 0.76500 0.09100
H 	H 	0.27980 0.28190 0.79940 -0.01500
C 	C 	0.23170 0.31430 0.61120 0.00500
C 	C 	0.19310 0.24900 0.66650 -0.14700
H 	H 	0.16980 0.23890 0.63270 0.08600
C 	C 	0.28050 0.34440 0.60330 -0.07500
H 	H 	0.31240 0.34550 0.63250 0.05300
C 	C 	0.50250 0.56500 0.29940 -0.08400
H 	H 	0.49640 0.53930 0.27360 0.05500
N 	N 	0.30700 0.49120 0.34550 -0.24300
C 	C 	0.46230 0.57390 0.34020 0.01800
C 	C 	0.37960 0.53840 0.39230 -0.15800
H 	H 	0.39380 0.55260 0.42800 0.08500
C 	C 	0.40750 0.54620 0.34330 0.07400
C 	C 	0.33280 0.51140 0.39050 0.11100
H 	H 	0.31640 0.50640 0.42650 -0.00400
C 	C 	0.38110 0.52530 0.29030 -0.13000
H 	H 	0.39540 0.53120 0.25350 0.07300
C 	C 	0.47630 0.60790 0.38270 -0.08100
H 	H 	0.45190 0.61240 0.41360 0.06300
C 	C 	0.33470 0.49700 0.29590 0.07300
H 	H 	0.32040 0.47960 0.26250 -0.00100
N 	N 	0.24130 0.24410 0.91680 -0.23500
C 	C 	0.19790 0.27110 0.93120 0.07800
H 	H 	0.16260 0.26950 0.90630 -0.00300
C 	C 	0.20830 0.37030 0.07030 -0.08300
H 	H 	0.18170 0.37760 0.03750 0.06000
C 	C 	0.24950 0.33380 0.06780 0.02100
C 	C 	0.20760 0.39520 0.12190 0.01000
H 	H 	0.18020 0.41980 0.12400 0.03700
C 	C 	0.24860 0.30520 0.01380 0.05900
C 	C 	0.29220 0.24900 0.95300 0.05800
H 	H 	0.32500 0.23030 0.94560 0.00600
C 	C 	0.19770 0.30110 0.97760 -0.13400
H 	H 	0.16370 0.31840 0.98450 0.07700
C 	C 	0.29780 0.27910 0.99860 -0.11600
H 	H 	0.33460 0.28280 0.02040 0.07000
Cd	Cd	0.73255 0.93646 0.84208 1.21300
Cd	Cd	0.23113 0.18736 0.84666 1.21600
C 	C 	0.40310 0.12990 0.84710 -0.08100
O 	O 	0.31050 0.14860 0.87990 -0.43700
O 	O 	0.77130 0.89380 0.77230 -0.41600
O 	O 	0.70680 0.94410 0.72930 -0.33600
O 	O 	0.70610 0.89150 0.91320 -0.45900
C 	C 	0.73710 0.87060 0.00840 -0.10100
O 	O 	0.77350 0.93610 0.96060 -0.32900
O 	O 	0.15760 0.14170 0.80370 -0.44200
C 	C 	0.06520 0.12600 0.83640 -0.10500
O 	O 	0.12660 0.19010 0.86660 -0.36800
O 	O 	0.34400 0.19350 0.81220 -0.33900
C 	C 	0.68710 0.81330 0.06350 -0.07100
H 	H 	0.65390 0.79400 0.06620 0.05800
C 	C 	0.78210 0.87160 0.05410 0.01200
H 	H 	0.81460 0.89170 0.05100 0.03800
C 	C 	0.44150 0.13450 0.80330 0.00700
H 	H 	0.43380 0.15620 0.77240 0.03900
C 	C 	0.78860 0.82450 0.61540 -0.07600
H 	H 	0.81770 0.80120 0.61270 0.05800
C 	C 	0.34870 0.16140 0.84490 0.32800
C 	C 	0.78560 0.84880 0.66700 0.00600
H 	H 	0.81100 0.84040 0.70010 0.04500
C 	C 	0.50470 0.07410 0.84860 0.01600
C 	C 	0.49190 0.10620 0.80630 -0.07800
H 	H 	0.51830 0.10980 0.77700 0.05500
C 	C 	0.46200 0.06830 0.89070 -0.07700
H 	H 	0.46750 0.04480 0.91960 0.06000
C 	C 	0.41440 0.09570 0.88930 0.00900
H 	H 	0.38760 0.09160 0.91810 0.04100
C 	C 	0.74650 0.88520 0.67140 -0.08200
C 	C 	0.69110 0.83980 0.01370 0.00600
H 	H 	0.66160 0.83680 0.98230 0.04200
C 	C 	0.73740 0.90850 0.72710 0.28800
C 	C 	0.02630 0.13520 0.87960 0.02100
H 	H 	0.03420 0.16000 0.90640 0.04200
C 	C 	0.11910 0.15530 0.83590 0.33500
C 	C 	0.05120 0.09300 0.79610 0.02400
H 	H 	0.07510 0.08890 0.76480 0.03100
C 	C 	0.74160 0.90170 0.95790 0.32300
N 	N 	0.65560 0.98580 0.84730 -0.24000
C 	C 	0.55470 0.04470 0.84900 0.05900
C 	C 	0.58830 0.04160 0.80110 -0.11800
H 	H 	0.57680 0.05900 0.76690 0.06900
C 	C 	0.63750 0.01410 0.80220 0.05900
H 	H 	0.66020 0.01500 0.76940 0.01300
C 	C 	0.57470 0.01480 0.89530 -0.12900
H 	H 	0.55480 0.01410 0.92990 0.07900
C 	C 	0.62290 0.98640 0.89080 0.08500
H 	H 	0.63290 0.96560 0.92220 -0.00100
N 	N 	0.72200 0.73600 0.26730 -0.24400
C 	C 	0.76020 0.79930 0.21680 -0.14800
H 	H 	0.78470 0.82600 0.21850 0.07800
C 	C 	0.69200 0.72500 0.21870 0.09400
H 	H 	0.66730 0.69850 0.21900 -0.00400
C 	C 	0.72860 0.78750 0.16440 0.08200
C 	C 	0.75650 0.77320 0.26500 0.09100
H 	H 	0.77980 0.78190 0.29940 -0.01500
C 	C 	0.73170 0.81430 0.11120 0.00400
C 	C 	0.69310 0.74900 0.16650 -0.14700
H 	H 	0.66980 0.73890 0.13270 0.08600
C 	C 	0.78050 0.84440 0.10330 -0.07500
H 	H 	0.81240 0.84550 0.13250 0.05300
C 	C 	0.00250 0.06500 0.79940 -0.08800
H 	H 	0.99640 0.03930 0.77360 0.05700
N 	N 	0.80700 0.99120 0.84550 -0.24300
C 	C 	0.96230 0.07390 0.84020 0.02000
C 	C 	0.87960 0.03840 0.89230 -0.15700
H 	H 	0.89380 0.05260 0.92800 0.08500
C 	C 	0.90750 0.04620 0.84330 0.07300
C 	C 	0.83280 0.01140 0.89050 0.11100
H 	H 	0.81640 0.00640 0.92650 -0.00300
C 	C 	0.88110 0.02530 0.79030 -0.13000
H 	H 	0.89540 0.03120 0.75350 0.07300
C 	C 	0.97630 0.10790 0.88270 -0.08100
H 	H 	0.95190 0.11240 0.91360 0.06400
C 	C 	0.83470 0.99700 0.79590 0.07300
H 	H 	0.82040 0.97960 0.76250 -0.00100
N 	N 	0.74130 0.74410 0.41680 -0.23600
C 	C 	0.69790 0.77110 0.43120 0.08100
H 	H 	0.66260 0.76950 0.40630 -0.00400
C 	C 	0.70830 0.87030 0.57030 -0.08100
H 	H 	0.68170 0.87760 0.53750 0.06000
C 	C 	0.74950 0.83380 0.56780 0.01800
C 	C 	0.70760 0.89520 0.62190 0.00900
H 	H 	0.68020 0.91980 0.62400 0.03700
C 	C 	0.74860 0.80520 0.51380 0.06600
C 	C 	0.79220 0.74900 0.45300 0.06200
H 	H 	0.82500 0.73030 0.44560 0.00400
C 	C 	0.69770 0.80110 0.47760 -0.14000
H 	H 	0.66370 0.81840 0.48450 0.07800
C 	C 	0.79780 0.77910 0.49860 -0.12400
H 	H 	0.83460 0.78280 0.52040 0.07400
Cd	Cd	0.88350 0.12700 0.04901 1.21600
O 	O 	0.86100 0.14150 0.95220 -0.40500
O 	O 	0.98290 0.11440 0.05050 -0.39400
C 	C 	0.87720 0.18220 0.95560 0.29600
O 	O 	0.89420 0.20230 0.00360 -0.36000
C 	C 	0.88380 0.21090 0.90030 -0.07400
C 	C 	0.13700 0.99090 0.05330 0.02500
O 	O 	0.93070 0.05200 0.05260 -0.37700
C 	C 	0.98090 0.07030 0.05430 0.31900
C 	C 	0.03260 0.04300 0.05330 -0.11500
C 	C 	0.18970 0.96360 0.05310 0.06100
C 	C 	0.13830 0.03940 0.04940 -0.09400
H 	H 	0.17440 0.05510 0.04690 0.06800
C 	C 	0.86900 0.18570 0.84630 -0.00600
H 	H 	0.85930 0.15360 0.84570 0.04800
C 	C 	0.08590 0.06480 0.04930 0.03000
H 	H 	0.08720 0.09780 0.04650 0.03500
C 	C 	0.90000 0.25390 0.90020 0.01500
H 	H 	0.90920 0.26900 0.93660 0.04700
C 	C 	0.03070 0.99490 0.05700 0.02000
H 	H 	0.99450 0.97950 0.06040 0.03600
C 	C 	0.08440 0.96840 0.05550 -0.09000
H 	H 	0.08320 0.93530 0.05610 0.05800
C 	C 	0.24680 0.98330 0.07230 -0.12000
H 	H 	0.24930 0.01510 0.08320 0.07600
C 	C 	0.19360 0.92130 0.03230 -0.13000
H 	H 	0.15920 0.90750 0.01360 0.07300
N 	N 	0.29630 0.91420 0.05380 -0.23900
C 	C 	0.29670 0.95710 0.07500 0.07300
H 	H 	0.33230 0.96990 0.09230 -0.00100
C 	C 	0.24670 0.89480 0.03600 0.07400
H 	H 	0.24570 0.86280 0.02550 -0.01800
N 	N 	0.88170 0.33290 0.63330 -0.24600
C 	C 	0.88810 0.25750 0.79420 0.01100
C 	C 	0.88660 0.28360 0.74030 0.06100
C 	C 	0.90460 0.27880 0.84950 -0.07700
H 	H 	0.91850 0.31000 0.85120 0.06000
C 	C 	0.87010 0.21250 0.79470 -0.06800
H 	H 	0.85750 0.19820 0.75850 0.05300
C 	C 	0.88560 0.33320 0.73830 -0.13400
H 	H 	0.88570 0.35080 0.77330 0.08200
C 	C 	0.88450 0.35480 0.68670 0.07100
H 	H 	0.88580 0.38780 0.68690 -0.01700
C 	C 	0.88770 0.26180 0.68640 -0.11900
H 	H 	0.88950 0.22880 0.68490 0.07200
C 	C 	0.88610 0.28740 0.63400 0.06100
H 	H 	0.88840 0.27120 0.59820 0.01600
Cd	Cd	0.38350 0.62700 0.54901 1.21600
O 	O 	0.36100 0.64150 0.45220 -0.40500
O 	O 	0.48290 0.61440 0.55050 -0.39300
C 	C 	0.37720 0.68220 0.45560 0.29400
O 	O 	0.39420 0.70230 0.50360 -0.35800
C 	C 	0.38380 0.71090 0.40030 -0.07400
C 	C 	0.63700 0.49090 0.55330 0.02500
O 	O 	0.43070 0.55200 0.55260 -0.37600
C 	C 	0.48090 0.57030 0.55430 0.31900
C 	C 	0.53260 0.54300 0.55330 -0.11400
C 	C 	0.68970 0.46360 0.55310 0.06100
C 	C 	0.63830 0.53940 0.54940 -0.09400
H 	H 	0.67440 0.55510 0.54690 0.06800
C 	C 	0.36900 0.68570 0.34630 -0.00600
H 	H 	0.35930 0.65360 0.34570 0.04800
C 	C 	0.58590 0.56480 0.54930 0.03000
H 	H 	0.58720 0.59780 0.54650 0.03500
C 	C 	0.40000 0.75390 0.40020 0.01500
H 	H 	0.40920 0.76900 0.43660 0.04700
C 	C 	0.53070 0.49490 0.55700 0.02100
H 	H 	0.49450 0.47950 0.56040 0.03500
C 	C 	0.58440 0.46840 0.55550 -0.09100
H 	H 	0.58320 0.43530 0.55610 0.05900
C 	C 	0.74680 0.48330 0.57230 -0.12000
H 	H 	0.74930 0.51510 0.58320 0.07700
C 	C 	0.69360 0.42130 0.53230 -0.13000
H 	H 	0.65920 0.40750 0.51360 0.07300
N 	N 	0.79630 0.41420 0.55380 -0.23900
C 	C 	0.79670 0.45710 0.57500 0.07300
H 	H 	0.83230 0.46990 0.59230 -0.00100
C 	C 	0.74670 0.39480 0.53600 0.07400
H 	H 	0.74570 0.36280 0.52550 -0.01800
N 	N 	0.38170 0.83290 0.13330 -0.24600
C 	C 	0.38810 0.75750 0.29420 0.01100
C 	C 	0.38660 0.78360 0.24030 0.06100
C 	C 	0.40460 0.77880 0.34950 -0.07700
H 	H 	0.41850 0.81000 0.35120 0.05900
C 	C 	0.37010 0.71250 0.29470 -0.06800
H 	H 	0.35750 0.69820 0.25850 0.05300
C 	C 	0.38560 0.83320 0.23830 -0.13500
H 	H 	0.38570 0.85080 0.27330 0.08200
C 	C 	0.38450 0.85480 0.18670 0.07100
H 	H 	0.38580 0.88780 0.18690 -0.01700
C 	C 	0.38770 0.76180 0.18640 -0.11900
H 	H 	0.38950 0.72880 0.18490 0.07200
C 	C 	0.38610 0.78740 0.13400 0.06100
H 	H 	0.38840 0.77120 0.09820 0.01600
Cd	Cd	0.38350 0.87300 0.04901 1.21600
O 	O 	0.36100 0.85850 0.95220 -0.40500
O 	O 	0.48290 0.88560 0.05050 -0.39400
C 	C 	0.37720 0.81780 0.95560 0.29600
O 	O 	0.39420 0.79770 0.00360 -0.36000
C 	C 	0.38380 0.78910 0.90030 -0.07400
C 	C 	0.63700 0.00910 0.05330 0.02500
O 	O 	0.43070 0.94800 0.05260 -0.37700
C 	C 	0.48090 0.92970 0.05430 0.31900
C 	C 	0.53260 0.95700 0.05330 -0.11500
C 	C 	0.68970 0.03640 0.05310 0.06100
C 	C 	0.63830 0.96060 0.04940 -0.09400
H 	H 	0.67440 0.94490 0.04690 0.06800
C 	C 	0.36900 0.81430 0.84630 -0.00600
H 	H 	0.35930 0.84640 0.84570 0.04800
C 	C 	0.58590 0.93520 0.04930 0.03000
H 	H 	0.58720 0.90220 0.04650 0.03500
C 	C 	0.40000 0.74610 0.90020 0.01500
H 	H 	0.40920 0.73100 0.93660 0.04700
C 	C 	0.53070 0.00510 0.05700 0.02100
H 	H 	0.49450 0.02050 0.06040 0.03500
C 	C 	0.58440 0.03160 0.05550 -0.09100
H 	H 	0.58320 0.06470 0.05610 0.05800
C 	C 	0.74680 0.01670 0.07230 -0.12100
H 	H 	0.74930 0.98490 0.08320 0.07600
C 	C 	0.69360 0.07870 0.03230 -0.13000
H 	H 	0.65920 0.09250 0.01360 0.07300
N 	N 	0.79630 0.08580 0.05380 -0.23900
C 	C 	0.79670 0.04290 0.07500 0.07300
H 	H 	0.83230 0.03010 0.09230 -0.00100
C 	C 	0.74670 0.10520 0.03600 0.07400
H 	H 	0.74570 0.13720 0.02550 -0.01800
N 	N 	0.38170 0.66710 0.63330 -0.24600
C 	C 	0.38810 0.74250 0.79420 0.01100
C 	C 	0.38660 0.71640 0.74030 0.06100
C 	C 	0.40460 0.72120 0.84950 -0.07700
H 	H 	0.41850 0.69000 0.85120 0.05900
C 	C 	0.37010 0.78750 0.79470 -0.06800
H 	H 	0.35750 0.80180 0.75850 0.05300
C 	C 	0.38560 0.66680 0.73830 -0.13500
H 	H 	0.38570 0.64920 0.77330 0.08200
C 	C 	0.38450 0.64520 0.68670 0.07100
H 	H 	0.38580 0.61220 0.68690 -0.01700
C 	C 	0.38770 0.73820 0.68640 -0.11900
H 	H 	0.38950 0.77120 0.68490 0.07200
C 	C 	0.38610 0.71260 0.63400 0.06100
H 	H 	0.38840 0.72880 0.59820 0.01600
Cd	Cd	0.88350 0.37300 0.54901 1.21600
O 	O 	0.86100 0.35850 0.45220 -0.40500
O 	O 	0.98290 0.38560 0.55050 -0.39300
C 	C 	0.87720 0.31780 0.45560 0.29400
O 	O 	0.89420 0.29770 0.50360 -0.35800
C 	C 	0.88380 0.28910 0.40030 -0.07400
C 	C 	0.13700 0.50910 0.55330 0.02500
O 	O 	0.93070 0.44800 0.55260 -0.37600
C 	C 	0.98090 0.42970 0.55430 0.31900
C 	C 	0.03260 0.45700 0.55330 -0.11500
C 	C 	0.18970 0.53640 0.55310 0.06100
C 	C 	0.13830 0.46060 0.54940 -0.09400
H 	H 	0.17440 0.44490 0.54690 0.06800
C 	C 	0.86900 0.31430 0.34630 -0.00600
H 	H 	0.85930 0.34640 0.34570 0.04800
C 	C 	0.08590 0.43520 0.54930 0.03000
H 	H 	0.08720 0.40220 0.54650 0.03500
C 	C 	0.90000 0.24610 0.40020 0.01500
H 	H 	0.90920 0.23100 0.43660 0.04700
C 	C 	0.03070 0.50510 0.55700 0.02000
H 	H 	0.99450 0.52050 0.56040 0.03600
C 	C 	0.08440 0.53160 0.55550 -0.09000
H 	H 	0.08320 0.56470 0.55610 0.05800
C 	C 	0.24680 0.51670 0.57230 -0.12000
H 	H 	0.24930 0.48490 0.58320 0.07700
C 	C 	0.19360 0.57870 0.53230 -0.13000
H 	H 	0.15920 0.59250 0.51360 0.07300
N 	N 	0.29630 0.58580 0.55380 -0.23900
C 	C 	0.29670 0.54290 0.57500 0.07300
H 	H 	0.33230 0.53010 0.59230 -0.00100
C 	C 	0.24670 0.60520 0.53600 0.07400
H 	H 	0.24570 0.63720 0.52550 -0.01800
N 	N 	0.88170 0.16710 0.13330 -0.24600
C 	C 	0.88810 0.24250 0.29420 0.01100
C 	C 	0.88660 0.21640 0.24030 0.06100
C 	C 	0.90460 0.22120 0.34950 -0.07700
H 	H 	0.91850 0.19000 0.35120 0.05900
C 	C 	0.87010 0.28750 0.29470 -0.06800
H 	H 	0.85750 0.30180 0.25850 0.05300
C 	C 	0.88560 0.16680 0.23830 -0.13500
H 	H 	0.88570 0.14920 0.27330 0.08200
C 	C 	0.88450 0.14520 0.18670 0.07100
H 	H 	0.88580 0.11220 0.18690 -0.01700
C 	C 	0.88770 0.23820 0.18640 -0.11900
H 	H 	0.88950 0.27120 0.18490 0.07200
C 	C 	0.88610 0.21260 0.13400 0.06100
H 	H 	0.88840 0.22880 0.09820 0.01600
Cd	Cd	0.04579 0.37430 0.87058 1.22000
O 	O 	0.05990 0.36750 0.97090 -0.40600
O 	O 	0.03930 0.30500 0.92110 -0.39400
O 	O 	0.94860 0.39300 0.86380 -0.39900
C 	C 	0.04580 0.29980 0.02420 -0.11200
C 	C 	0.04760 0.32570 0.96860 0.33700
C 	C 	0.05520 0.31870 0.07860 0.04000
H 	H 	0.06500 0.35080 0.08140 0.03100
C 	C 	0.95570 0.43610 0.86770 0.31100
C 	C 	0.90120 0.46650 0.86900 -0.10000
O 	O 	0.00630 0.45280 0.86560 -0.37200
C 	C 	0.84740 0.44460 0.87440 0.02100
H 	H 	0.84520 0.41170 0.87740 0.03300
N 	N 	0.63550 0.59380 0.86710 -0.24600
C 	C 	0.90330 0.51390 0.86720 0.03900
H 	H 	0.94010 0.52880 0.86550 0.02600
C 	C 	0.80260 0.52010 0.87180 0.02900
C 	C 	0.74440 0.54680 0.87210 0.06000
C 	C 	0.79800 0.47130 0.87540 -0.09500
H 	H 	0.76100 0.45710 0.87850 0.05800
C 	C 	0.85690 0.53900 0.86750 -0.10900
H 	H 	0.86040 0.57180 0.86480 0.06400
C 	C 	0.69640 0.53000 0.89800 -0.13500
H 	H 	0.69990 0.50270 0.92120 0.05900
C 	C 	0.73790 0.59110 0.84740 -0.13200
H 	H 	0.77000 0.60600 0.83180 0.07200
C 	C 	0.64540 0.55190 0.89040 0.07800
H 	H 	0.61240 0.53600 0.90290 -0.00800
C 	C 	0.68540 0.61220 0.84590 0.06900
H 	H 	0.68230 0.64240 0.82880 -0.01000
N 	N 	0.04590 0.16670 0.28580 -0.24200
C 	C 	0.04000 0.24850 0.12870 0.03400
C 	C 	0.03930 0.21990 0.18330 0.06000
C 	C 	0.02930 0.22530 0.07510 -0.09500
H 	H 	0.02060 0.19300 0.07340 0.06900
C 	C 	0.03210 0.25290 0.02250 0.02700
H 	H 	0.02430 0.23820 0.98560 0.04500
C 	C 	0.05050 0.21330 0.28680 0.06800
H 	H 	0.05870 0.22810 0.32350 0.00900
C 	C 	0.04120 0.14610 0.23300 0.07300
H 	H 	0.03890 0.11310 0.23050 -0.01600
C 	C 	0.05150 0.29430 0.12920 -0.10400
H 	H 	0.05730 0.31020 0.16550 0.06600
C 	C 	0.03960 0.17160 0.18290 -0.13100
H 	H 	0.03860 0.15590 0.14650 0.07700
C 	C 	0.04440 0.23990 0.23910 -0.12500
H 	H 	0.04340 0.27280 0.24310 0.07500
Cd	Cd	0.54579 0.87430 0.37058 1.22000
O 	O 	0.55990 0.86750 0.47090 -0.40600
O 	O 	0.53930 0.80500 0.42110 -0.39400
O 	O 	0.44860 0.89300 0.36380 -0.40000
C 	C 	0.54580 0.79980 0.52420 -0.11100
C 	C 	0.54760 0.82570 0.46860 0.33600
C 	C 	0.55520 0.81870 0.57860 0.04000
H 	H 	0.56500 0.85080 0.58140 0.03100
C 	C 	0.45570 0.93610 0.36770 0.31000
C 	C 	0.40120 0.96650 0.36900 -0.10000
O 	O 	0.50630 0.95280 0.36560 -0.37100
C 	C 	0.34740 0.94460 0.37440 0.02000
H 	H 	0.34520 0.91170 0.37740 0.03300
N 	N 	0.13550 0.09380 0.36710 -0.24600
C 	C 	0.40330 0.01390 0.36720 0.03800
H 	H 	0.44010 0.02880 0.36550 0.02500
C 	C 	0.30260 0.02010 0.37180 0.02900
C 	C 	0.24440 0.04680 0.37210 0.05900
C 	C 	0.29800 0.97130 0.37540 -0.09500
H 	H 	0.26100 0.95710 0.37850 0.05800
C 	C 	0.35690 0.03900 0.36750 -0.10900
H 	H 	0.36040 0.07180 0.36480 0.06300
C 	C 	0.19640 0.03000 0.39800 -0.13500
H 	H 	0.19990 0.00270 0.42120 0.05900
C 	C 	0.23790 0.09110 0.34740 -0.13200
H 	H 	0.27000 0.10600 0.33180 0.07200
C 	C 	0.14540 0.05190 0.39040 0.07700
H 	H 	0.11240 0.03600 0.40290 -0.00900
C 	C 	0.18540 0.11220 0.34590 0.06900
H 	H 	0.18230 0.14240 0.32880 -0.01000
N 	N 	0.54590 0.66670 0.78580 -0.24200
C 	C 	0.54000 0.74850 0.62870 0.03400
C 	C 	0.53930 0.71990 0.68330 0.06000
C 	C 	0.52930 0.72530 0.57510 -0.09600
H 	H 	0.52060 0.69300 0.57340 0.07000
C 	C 	0.53210 0.75290 0.52250 0.03000
H 	H 	0.52430 0.73820 0.48560 0.04400
C 	C 	0.55050 0.71330 0.78680 0.06900
H 	H 	0.55870 0.72810 0.82350 0.00900
C 	C 	0.54120 0.64610 0.73300 0.07300
H 	H 	0.53890 0.61310 0.73050 -0.01600
C 	C 	0.55150 0.79430 0.62920 -0.10500
H 	H 	0.55730 0.81020 0.66550 0.06600
C 	C 	0.53960 0.67160 0.68290 -0.13100
H 	H 	0.53860 0.65590 0.64650 0.07700
C 	C 	0.54440 0.73990 0.73910 -0.12500
H 	H 	0.54340 0.77280 0.74310 0.07600
Cd	Cd	0.54579 0.62570 0.87058 1.22000
O 	O 	0.55990 0.63250 0.97090 -0.40600
O 	O 	0.53930 0.69500 0.92110 -0.39400
O 	O 	0.44860 0.60700 0.86380 -0.39900
C 	C 	0.54580 0.70020 0.02420 -0.11200
C 	C 	0.54760 0.67430 0.96860 0.33700
C 	C 	0.55520 0.68130 0.07860 0.04000
H 	H 	0.56500 0.64920 0.08140 0.03100
C 	C 	0.45570 0.56390 0.86770 0.31000
C 	C 	0.40120 0.53350 0.86900 -0.10000
O 	O 	0.50630 0.54720 0.86560 -0.37100
C 	C 	0.34740 0.55540 0.87440 0.02100
H 	H 	0.34520 0.58830 0.87740 0.03300
N 	N 	0.13550 0.40620 0.86710 -0.24600
C 	C 	0.40330 0.48610 0.86720 0.03800
H 	H 	0.44010 0.47120 0.86550 0.02500
C 	C 	0.30260 0.47990 0.87180 0.02900
C 	C 	0.24440 0.45320 0.87210 0.06000
C 	C 	0.29800 0.52870 0.87540 -0.09500
H 	H 	0.26100 0.54290 0.87850 0.05800
C 	C 	0.35690 0.46100 0.86750 -0.10900
H 	H 	0.36040 0.42820 0.86480 0.06300
C 	C 	0.19640 0.47000 0.89800 -0.13500
H 	H 	0.19990 0.49730 0.92120 0.05900
C 	C 	0.23790 0.40890 0.84740 -0.13200
H 	H 	0.27000 0.39400 0.83180 0.07200
C 	C 	0.14540 0.44810 0.89040 0.07800
H 	H 	0.11240 0.46400 0.90290 -0.00900
C 	C 	0.18540 0.38780 0.84590 0.06900
H 	H 	0.18230 0.35760 0.82880 -0.01000
N 	N 	0.54590 0.83330 0.28580 -0.24200
C 	C 	0.54000 0.75150 0.12870 0.03400
C 	C 	0.53930 0.78010 0.18330 0.06000
C 	C 	0.52930 0.77470 0.07510 -0.09400
H 	H 	0.52060 0.80700 0.07340 0.06900
C 	C 	0.53210 0.74710 0.02250 0.02700
H 	H 	0.52430 0.76180 0.98560 0.04600
C 	C 	0.55050 0.78670 0.28680 0.06900
H 	H 	0.55870 0.77190 0.32350 0.00900
C 	C 	0.54120 0.85390 0.23300 0.07300
H 	H 	0.53890 0.88690 0.23050 -0.01600
C 	C 	0.55150 0.70570 0.12920 -0.10400
H 	H 	0.55730 0.68980 0.16550 0.06600
C 	C 	0.53960 0.82840 0.18290 -0.13100
H 	H 	0.53860 0.84410 0.14650 0.07700
C 	C 	0.54440 0.76010 0.23910 -0.12500
H 	H 	0.54340 0.72720 0.24310 0.07600
Cd	Cd	0.04579 0.12570 0.37058 1.22000
O 	O 	0.05990 0.13250 0.47090 -0.40600
O 	O 	0.03930 0.19500 0.42110 -0.39400
O 	O 	0.94860 0.10700 0.36380 -0.40000
C 	C 	0.04580 0.20020 0.52420 -0.11200
C 	C 	0.04760 0.17430 0.46860 0.33600
C 	C 	0.05520 0.18130 0.57860 0.04000
H 	H 	0.06500 0.14920 0.58140 0.03100
C 	C 	0.95570 0.06390 0.36770 0.31100
C 	C 	0.90120 0.03350 0.36900 -0.10000
O 	O 	0.00630 0.04720 0.36560 -0.37200
C 	C 	0.84740 0.05540 0.37440 0.02100
H 	H 	0.84520 0.08830 0.37740 0.03300
N 	N 	0.63550 0.90620 0.36710 -0.24600
C 	C 	0.90330 0.98610 0.36720 0.03900
H 	H 	0.94010 0.97120 0.36550 0.02500
C 	C 	0.80260 0.97990 0.37180 0.02900
C 	C 	0.74440 0.95320 0.37210 0.05900
C 	C 	0.79800 0.02870 0.37540 -0.09500
H 	H 	0.76100 0.04290 0.37850 0.05800
C 	C 	0.85690 0.96100 0.36750 -0.10900
H 	H 	0.86040 0.92820 0.36480 0.06300
C 	C 	0.69640 0.97000 0.39800 -0.13500
H 	H 	0.69990 0.99730 0.42120 0.05900
C 	C 	0.73790 0.90890 0.34740 -0.13200
H 	H 	0.77000 0.89400 0.33180 0.07200
C 	C 	0.64540 0.94810 0.39040 0.07700
H 	H 	0.61240 0.96400 0.40290 -0.00900
C 	C 	0.68540 0.88780 0.34590 0.06900
H 	H 	0.68230 0.85760 0.32880 -0.01000
N 	N 	0.04590 0.33330 0.78580 -0.24200
C 	C 	0.04000 0.25150 0.62870 0.03400
C 	C 	0.03930 0.28010 0.68330 0.06000
C 	C 	0.02930 0.27470 0.57510 -0.09600
H 	H 	0.02060 0.30700 0.57340 0.07000
C 	C 	0.03210 0.24710 0.52250 0.03000
H 	H 	0.02430 0.26180 0.48560 0.04400
C 	C 	0.05050 0.28670 0.78680 0.06800
H 	H 	0.05870 0.27190 0.82350 0.00900
C 	C 	0.04120 0.35390 0.73300 0.07300
H 	H 	0.03890 0.38690 0.73050 -0.01600
C 	C 	0.05150 0.20570 0.62920 -0.10500
H 	H 	0.05730 0.18980 0.66550 0.06600
C 	C 	0.03960 0.32840 0.68290 -0.13100
H 	H 	0.03860 0.34410 0.64650 0.07700
C 	C 	0.04440 0.26010 0.73910 -0.12500
H 	H 	0.04340 0.22720 0.74310 0.07500
Cd	Cd	0.73255 0.56354 0.34208 1.21300
Cd	Cd	0.23113 0.31264 0.34666 1.21600
C 	C 	0.40310 0.37010 0.34710 -0.08200
O 	O 	0.31050 0.35140 0.37990 -0.43700
O 	O 	0.77130 0.60620 0.27230 -0.41600
O 	O 	0.70680 0.55590 0.22930 -0.33600
O 	O 	0.70610 0.60850 0.41320 -0.45800
C 	C 	0.73710 0.62940 0.50840 -0.10000
O 	O 	0.77350 0.56390 0.46060 -0.32900
O 	O 	0.15760 0.35830 0.30370 -0.44200
C 	C 	0.06520 0.37400 0.33640 -0.10500
O 	O 	0.12660 0.30990 0.36660 -0.36800
O 	O 	0.34400 0.30650 0.31220 -0.33900
C 	C 	0.68710 0.68670 0.56350 -0.07300
H 	H 	0.65390 0.70600 0.56620 0.05900
C 	C 	0.78210 0.62840 0.55410 0.01200
H 	H 	0.81460 0.60830 0.55100 0.03800
C 	C 	0.44150 0.36550 0.30330 0.00700
H 	H 	0.43380 0.34380 0.27240 0.03900
C 	C 	0.78860 0.67550 0.11540 -0.07900
H 	H 	0.81770 0.69880 0.11270 0.05900
C 	C 	0.34870 0.33860 0.34490 0.32800
C 	C 	0.78560 0.65120 0.16700 0.00700
H 	H 	0.81100 0.65960 0.20010 0.04500
C 	C 	0.50470 0.42590 0.34860 0.01600
C 	C 	0.49190 0.39380 0.30630 -0.07800
H 	H 	0.51830 0.39020 0.27700 0.05500
C 	C 	0.46200 0.43170 0.39070 -0.07700
H 	H 	0.46750 0.45520 0.41960 0.05900
C 	C 	0.41440 0.40430 0.38930 0.00900
H 	H 	0.38760 0.40840 0.41810 0.04100
C 	C 	0.74650 0.61480 0.17140 -0.08300
C 	C 	0.69110 0.66020 0.51370 0.00900
H 	H 	0.66160 0.66320 0.48230 0.04000
C 	C 	0.73740 0.59150 0.22710 0.28800
C 	C 	0.02630 0.36480 0.37960 0.02100
H 	H 	0.03420 0.34000 0.40640 0.04200
C 	C 	0.11910 0.34470 0.33590 0.33500
C 	C 	0.05120 0.40700 0.29610 0.02400
H 	H 	0.07510 0.41110 0.26480 0.03100
C 	C 	0.74160 0.59830 0.45790 0.32200
N 	N 	0.65560 0.51420 0.34730 -0.24000
C 	C 	0.55470 0.45530 0.34900 0.05900
C 	C 	0.58830 0.45840 0.30110 -0.11800
H 	H 	0.57680 0.44100 0.26690 0.06900
C 	C 	0.63750 0.48590 0.30220 0.05900
H 	H 	0.66020 0.48500 0.26940 0.01300
C 	C 	0.57470 0.48520 0.39530 -0.12900
H 	H 	0.55480 0.48590 0.42990 0.07800
C 	C 	0.62290 0.51360 0.39080 0.08500
H 	H 	0.63290 0.53440 0.42220 -0.00200
N 	N 	0.72200 0.76400 0.76730 -0.24400
C 	C 	0.76020 0.70070 0.71680 -0.14800
H 	H 	0.78470 0.67400 0.71850 0.07800
C 	C 	0.69200 0.77500 0.71870 0.09400
H 	H 	0.66730 0.80150 0.71900 -0.00400
C 	C 	0.72860 0.71250 0.66440 0.08200
C 	C 	0.75650 0.72680 0.76500 0.09100
H 	H 	0.77980 0.71810 0.79940 -0.01500
C 	C 	0.73170 0.68570 0.61120 0.00500
C 	C 	0.69310 0.75100 0.66650 -0.14700
H 	H 	0.66980 0.76110 0.63270 0.08600
C 	C 	0.78050 0.65560 0.60330 -0.07500
H 	H 	0.81240 0.65450 0.63250 0.05300
C 	C 	0.00250 0.43500 0.29940 -0.08700
H 	H 	0.99640 0.46070 0.27360 0.05700
N 	N 	0.80700 0.50880 0.34550 -0.24300
C 	C 	0.96230 0.42610 0.34020 0.02000
C 	C 	0.87960 0.46160 0.39230 -0.15700
H 	H 	0.89380 0.44740 0.42800 0.08500
C 	C 	0.90750 0.45380 0.34330 0.07300
C 	C 	0.83280 0.48860 0.39050 0.11100
H 	H 	0.81640 0.49360 0.42650 -0.00400
C 	C 	0.88110 0.47470 0.29030 -0.13000
H 	H 	0.89540 0.46880 0.25350 0.07300
C 	C 	0.97630 0.39210 0.38270 -0.08100
H 	H 	0.95190 0.38760 0.41360 0.06300
C 	C 	0.83470 0.50300 0.29590 0.07300
H 	H 	0.82040 0.52040 0.26250 -0.00100
N 	N 	0.74130 0.75590 0.91680 -0.23500
C 	C 	0.69790 0.72890 0.93120 0.07800
H 	H 	0.66260 0.73050 0.90630 -0.00300
C 	C 	0.70830 0.62970 0.07030 -0.08300
H 	H 	0.68170 0.62240 0.03750 0.06000
C 	C 	0.74950 0.66620 0.06780 0.02100
C 	C 	0.70760 0.60480 0.12190 0.01000
H 	H 	0.68020 0.58020 0.12400 0.03700
C 	C 	0.74860 0.69480 0.01380 0.05800
C 	C 	0.79220 0.75100 0.95300 0.05800
H 	H 	0.82500 0.76970 0.94560 0.00600
C 	C 	0.69770 0.69890 0.97760 -0.13400
H 	H 	0.66370 0.68160 0.98450 0.07700
C 	C 	0.79780 0.72090 0.99860 -0.11500
H 	H 	0.83460 0.71720 0.02040 0.07000
Cd	Cd	0.23255 0.06354 0.84208 1.21300
Cd	Cd	0.73113 0.81264 0.84666 1.21600
C 	C 	0.90310 0.87010 0.84710 -0.07900
O 	O 	0.81050 0.85140 0.87990 -0.43700
O 	O 	0.27130 0.10620 0.77230 -0.41600
O 	O 	0.20680 0.05590 0.72930 -0.33600
O 	O 	0.20610 0.10850 0.91320 -0.45900
C 	C 	0.23710 0.12940 0.00840 -0.10100
O 	O 	0.27350 0.06390 0.96060 -0.32900
O 	O 	0.65760 0.85830 0.80370 -0.44200
C 	C 	0.56520 0.87400 0.83640 -0.10400
O 	O 	0.62660 0.80990 0.86660 -0.36800
O 	O 	0.84400 0.80650 0.81220 -0.33800
C 	C 	0.18710 0.18670 0.06350 -0.07100
H 	H 	0.15390 0.20600 0.06620 0.05800
C 	C 	0.28210 0.12840 0.05410 0.01200
H 	H 	0.31460 0.10830 0.05100 0.03800
C 	C 	0.94150 0.86550 0.80330 0.00400
H 	H 	0.93380 0.84380 0.77240 0.04100
C 	C 	0.28860 0.17550 0.61540 -0.07600
H 	H 	0.31770 0.19880 0.61270 0.05800
C 	C 	0.84870 0.83860 0.84490 0.32800
C 	C 	0.28560 0.15120 0.66700 0.00600
H 	H 	0.31100 0.15960 0.70010 0.04500
C 	C 	0.00470 0.92590 0.84860 0.01100
C 	C 	0.99190 0.89380 0.80630 -0.07200
H 	H 	0.01830 0.89020 0.77700 0.05200
C 	C 	0.96200 0.93170 0.89070 -0.07300
H 	H 	0.96750 0.95520 0.91960 0.05800
C 	C 	0.91440 0.90430 0.88930 0.00600
H 	H 	0.88760 0.90840 0.91810 0.04200
C 	C 	0.24650 0.11480 0.67140 -0.08200
C 	C 	0.19110 0.16020 0.01370 0.00600
H 	H 	0.16160 0.16320 0.98230 0.04200
C 	C 	0.23740 0.09150 0.72710 0.28800
C 	C 	0.52630 0.86480 0.87960 0.02100
H 	H 	0.53420 0.84000 0.90640 0.04200
C 	C 	0.61910 0.84470 0.83590 0.33400
C 	C 	0.55120 0.90700 0.79610 0.02200
H 	H 	0.57510 0.91110 0.76480 0.03200
C 	C 	0.24160 0.09830 0.95790 0.32300
N 	N 	0.15560 0.01420 0.84730 -0.24000
C 	C 	0.05470 0.95530 0.84900 0.06100
C 	C 	0.08830 0.95840 0.80110 -0.11900
H 	H 	0.07680 0.94100 0.76690 0.06900
C 	C 	0.13750 0.98590 0.80220 0.06000
H 	H 	0.16020 0.98500 0.76940 0.01300
C 	C 	0.07470 0.98520 0.89530 -0.13000
H 	H 	0.05480 0.98590 0.92990 0.07900
C 	C 	0.12290 0.01360 0.89080 0.08500
H 	H 	0.13290 0.03440 0.92220 -0.00200
N 	N 	0.22200 0.26400 0.26730 -0.24400
C 	C 	0.26020 0.20070 0.21680 -0.14800
H 	H 	0.28470 0.17400 0.21850 0.07800
C 	C 	0.19200 0.27500 0.21870 0.09400
H 	H 	0.16730 0.30150 0.21900 -0.00400
C 	C 	0.22860 0.21250 0.16440 0.08200
C 	C 	0.25650 0.22680 0.26500 0.09100
H 	H 	0.27980 0.21810 0.29940 -0.01500
C 	C 	0.23170 0.18570 0.11120 0.00400
C 	C 	0.19310 0.25100 0.16650 -0.14700
H 	H 	0.16980 0.26110 0.13270 0.08600
C 	C 	0.28050 0.15560 0.10330 -0.07500
H 	H 	0.31240 0.15450 0.13250 0.05300
C 	C 	0.50250 0.93500 0.79940 -0.08400
H 	H 	0.49640 0.96070 0.77360 0.05500
N 	N 	0.30700 0.00880 0.84550 -0.24300
C 	C 	0.46230 0.92610 0.84020 0.01900
C 	C 	0.37960 0.96160 0.89230 -0.15800
H 	H 	0.39380 0.94740 0.92800 0.08500
C 	C 	0.40750 0.95380 0.84330 0.07400
C 	C 	0.33280 0.98860 0.89050 0.11100
H 	H 	0.31640 0.99360 0.92650 -0.00300
C 	C 	0.38110 0.97470 0.79030 -0.13000
H 	H 	0.39540 0.96880 0.75350 0.07300
C 	C 	0.47630 0.89210 0.88270 -0.08100
H 	H 	0.45190 0.88760 0.91360 0.06400
C 	C 	0.33470 0.00300 0.79590 0.07300
H 	H 	0.32040 0.02040 0.76250 -0.00100
N 	N 	0.24130 0.25590 0.41680 -0.23600
C 	C 	0.19790 0.22890 0.43120 0.08100
H 	H 	0.16260 0.23050 0.40630 -0.00400
C 	C 	0.20830 0.12970 0.57030 -0.08100
H 	H 	0.18170 0.12240 0.53750 0.06000
C 	C 	0.24950 0.16620 0.56780 0.01800
C 	C 	0.20760 0.10480 0.62190 0.00900
H 	H 	0.18020 0.08020 0.62400 0.03700
C 	C 	0.24860 0.19480 0.51380 0.06600
C 	C 	0.29220 0.25100 0.45300 0.06200
H 	H 	0.32500 0.26970 0.44560 0.00400
C 	C 	0.19770 0.19890 0.47760 -0.14000
H 	H 	0.16370 0.18160 0.48450 0.07800
C 	C 	0.29780 0.22090 0.49860 -0.12400
H 	H 	0.33460 0.21720 0.52040 0.07400
Cd	Cd	0.19182 0.56523 0.08872 1.17900
Cd	Cd	0.68983 0.31347 0.09238 1.20100
N 	N 	0.26960 0.51610 0.08610 -0.26200
O 	O 	0.22300 0.56280 0.20240 -0.35700
C 	C 	0.52390 0.37540 0.08060 -0.08800
C 	C 	0.85870 0.37080 0.09930 -0.20700
O 	O 	0.58030 0.30900 0.11270 -0.31500
O 	O 	0.16610 0.61300 0.15720 -0.52000
C 	C 	0.14580 0.65710 0.26460 0.04000
H 	H 	0.11850 0.66380 0.23220 0.02600
C 	C 	0.22150 0.64070 0.35850 -0.09700
H 	H 	0.24840 0.63460 0.39130 0.06900
C 	C 	0.14120 0.68110 0.31520 -0.09700
H 	H 	0.11040 0.70310 0.31680 0.06500
C 	C 	0.18800 0.62370 0.25800 -0.13000
C 	C 	0.43390 0.39200 0.12470 -0.07300
H 	H 	0.40780 0.38730 0.15410 0.05600
C 	C 	0.36850 0.45730 0.08150 0.07800
C 	C 	0.48300 0.36480 0.12440 0.00500
H 	H 	0.49030 0.34020 0.15160 0.04100
C 	C 	0.42080 0.42820 0.08050 0.00800
O 	O 	0.61640 0.35940 0.04670 -0.45000
C 	C 	0.51080 0.40780 0.03870 0.01100
H 	H 	0.53730 0.41340 0.00980 0.02400
C 	C 	0.17940 0.67480 0.36380 0.02900
C 	C 	0.19040 0.59780 0.20150 0.39200
C 	C 	0.80930 0.34160 0.10510 0.39900
C 	C 	0.22670 0.61460 0.30710 0.03900
H 	H 	0.25590 0.59130 0.30590 0.03000
C 	C 	0.57610 0.34820 0.07990 0.26400
C 	C 	0.45830 0.43340 0.03770 -0.07600
H 	H 	0.44880 0.45460 0.00670 0.05600
C 	C 	0.29510 0.49670 0.13210 0.08800
H 	H 	0.27980 0.50300 0.16840 0.00600
C 	C 	0.34390 0.46690 0.13240 -0.13900
H 	H 	0.35980 0.45340 0.16800 0.07900
C 	C 	0.29050 0.50500 0.03590 0.08000
H 	H 	0.27210 0.51790 0.00090 -0.03800
C 	C 	0.17940 0.67610 0.82080 0.00200
C 	C 	0.13160 0.64820 0.83010 -0.05600
H 	H 	0.09820 0.64800 0.80250 0.04600
C 	C 	0.13240 0.62050 0.87970 -0.03000
H 	H 	0.09980 0.60140 0.88600 0.03700
C 	C 	0.18120 0.62080 0.92010 -0.04800
C 	C 	0.22900 0.64870 0.91080 -0.03900
H 	H 	0.26230 0.64890 0.93840 0.03000
C 	C 	0.22810 0.67640 0.86120 -0.05200
H 	H 	0.26080 0.69550 0.85480 0.04900
C 	C 	0.33810 0.47550 0.03190 -0.14300
H 	H 	0.35000 0.46770 0.99460 0.08200
C 	C 	0.88780 0.38920 0.14790 0.09900
H 	H 	0.87520 0.38240 0.18530 0.00300
C 	C 	0.88690 0.38020 0.05170 0.11000
H 	H 	0.87060 0.36710 0.01610 -0.00100
N 	N 	0.18460 0.76170 0.51510 -0.24900
C 	C 	0.17960 0.70340 0.41550 0.06700
C 	C 	0.12950 0.72200 0.43470 -0.13700
H 	H 	0.09210 0.71640 0.41480 0.07700
C 	C 	0.23080 0.71600 0.44820 -0.14000
H 	H 	0.26690 0.70450 0.43670 0.08000
C 	C 	0.23190 0.74360 0.49500 0.07300
H 	H 	0.26890 0.75060 0.51500 0.00600
C 	C 	0.13660 0.75020 0.48630 0.08700
H 	H 	0.10170 0.76170 0.50060 -0.00900
C 	C 	0.23650 0.75340 0.70680 0.04800
H 	H 	0.27210 0.76780 0.69840 0.00000
N 	N 	0.18630 0.75920 0.66920 -0.21700
C 	C 	0.13420 0.73810 0.68150 0.04500
H 	H 	0.09990 0.74200 0.65580 0.02000
C 	C 	0.13230 0.71120 0.73150 -0.11300
H 	H 	0.09670 0.69680 0.74000 0.06700
C 	C 	0.18250 0.70540 0.76920 0.06100
C 	C 	0.23460 0.72650 0.75690 -0.11400
H 	H 	0.26890 0.72250 0.78260 0.07200
N 	N 	0.11600 0.51450 0.09180 -0.24100
C 	C 	0.04720 0.45740 0.04630 -0.09600
H 	H 	0.03750 0.43770 0.01370 0.07100
C 	C 	0.96320 0.42740 0.09540 0.10000
C 	C 	0.01340 0.45640 0.09430 0.01200
C 	C 	0.03410 0.48620 0.14010 -0.08500
H 	H 	0.01420 0.48610 0.17460 0.05400
C 	C 	0.93640 0.41830 0.14300 -0.15700
H 	H 	0.95190 0.43310 0.17780 0.07800
C 	C 	0.09660 0.48810 0.04610 0.05000
H 	H 	0.11660 0.48980 0.01160 -0.02100
C 	C 	0.08210 0.51610 0.13820 0.04400
H 	H 	0.09120 0.53750 0.16900 0.00300
C 	C 	0.93770 0.40730 0.04840 -0.16400
H 	H 	0.95370 0.41120 0.01190 0.08800
O 	O 	0.76890 0.35610 0.12880 -0.49700
O 	O 	0.80260 0.30910 0.06720 -0.36700
Cd	Cd	0.69182 0.06523 0.58872 1.17900
Cd	Cd	0.18983 0.81347 0.59238 1.20100
N 	N 	0.76960 0.01610 0.58610 -0.26100
O 	O 	0.72300 0.06280 0.70240 -0.35700
C 	C 	0.02390 0.87540 0.58060 -0.08800
C 	C 	0.35870 0.87080 0.59930 -0.20600
O 	O 	0.08030 0.80900 0.61270 -0.31500
O 	O 	0.66610 0.11300 0.65720 -0.52000
C 	C 	0.64580 0.15710 0.76460 0.03900
H 	H 	0.61850 0.16380 0.73220 0.02600
C 	C 	0.72150 0.14070 0.85850 -0.09600
H 	H 	0.74840 0.13460 0.89130 0.06900
C 	C 	0.64120 0.18110 0.81520 -0.09500
H 	H 	0.61040 0.20310 0.81680 0.06400
C 	C 	0.68800 0.12370 0.75800 -0.13000
C 	C 	0.93390 0.89200 0.62470 -0.07400
H 	H 	0.90780 0.88730 0.65410 0.05600
C 	C 	0.86850 0.95730 0.58150 0.07700
C 	C 	0.98300 0.86480 0.62440 0.00600
H 	H 	0.99030 0.84020 0.65160 0.04100
C 	C 	0.92080 0.92820 0.58050 0.00900
O 	O 	0.11640 0.85940 0.54670 -0.45000
C 	C 	0.01080 0.90780 0.53870 0.01100
H 	H 	0.03730 0.91340 0.50980 0.02500
C 	C 	0.67940 0.17480 0.86380 0.02700
C 	C 	0.69040 0.09780 0.70150 0.39100
C 	C 	0.30930 0.84160 0.60510 0.39900
C 	C 	0.72670 0.11460 0.80710 0.03800
H 	H 	0.75590 0.09130 0.80590 0.03100
C 	C 	0.07610 0.84820 0.57990 0.26400
C 	C 	0.95830 0.93340 0.53770 -0.07500
H 	H 	0.94880 0.95460 0.50670 0.05600
C 	C 	0.79510 0.99670 0.63210 0.08800
H 	H 	0.77980 0.00300 0.66840 0.00600
C 	C 	0.84390 0.96690 0.63240 -0.13800
H 	H 	0.85980 0.95340 0.66800 0.07900
C 	C 	0.79050 0.00500 0.53590 0.07800
H 	H 	0.77210 0.01790 0.50090 -0.03700
C 	C 	0.67940 0.17610 0.32080 0.00300
C 	C 	0.63160 0.14820 0.33010 -0.05600
H 	H 	0.59820 0.14800 0.30250 0.04600
C 	C 	0.63240 0.12050 0.37970 -0.02900
H 	H 	0.59980 0.10140 0.38600 0.03600
C 	C 	0.68120 0.12080 0.42010 -0.04900
C 	C 	0.72900 0.14870 0.41080 -0.03900
H 	H 	0.76230 0.14890 0.43840 0.03000
C 	C 	0.72810 0.17640 0.36120 -0.05200
H 	H 	0.76080 0.19550 0.35480 0.04900
C 	C 	0.83810 0.97550 0.53190 -0.13900
H 	H 	0.85000 0.96770 0.49460 0.08000
C 	C 	0.38780 0.88920 0.64790 0.09800
H 	H 	0.37520 0.88240 0.68530 0.00300
C 	C 	0.38690 0.88020 0.55170 0.10900
H 	H 	0.37060 0.86710 0.51610 0.00000
N 	N 	0.68460 0.26170 0.01510 -0.25300
C 	C 	0.67960 0.20340 0.91550 0.07100
C 	C 	0.62950 0.22200 0.93470 -0.14100
H 	H 	0.59210 0.21640 0.91480 0.07900
C 	C 	0.73080 0.21600 0.94820 -0.14500
H 	H 	0.76690 0.20450 0.93670 0.08200
C 	C 	0.73190 0.24360 0.99500 0.08000
H 	H 	0.76890 0.25060 0.01500 0.00300
C 	C 	0.63660 0.25020 0.98630 0.09300
H 	H 	0.60170 0.26170 0.00060 -0.01200
C 	C 	0.73650 0.25340 0.20680 0.04800
H 	H 	0.77210 0.26780 0.19840 0.00000
N 	N 	0.68630 0.25920 0.16920 -0.21700
C 	C 	0.63420 0.23810 0.18150 0.04500
H 	H 	0.59990 0.24200 0.15580 0.02000
C 	C 	0.63230 0.21120 0.23150 -0.11300
H 	H 	0.59670 0.19680 0.24000 0.06700
C 	C 	0.68250 0.20540 0.26920 0.06100
C 	C 	0.73460 0.22650 0.25690 -0.11300
H 	H 	0.76890 0.22250 0.28260 0.07200
N 	N 	0.61600 0.01450 0.59180 -0.24100
C 	C 	0.54720 0.95740 0.54630 -0.09700
H 	H 	0.53750 0.93770 0.51370 0.07200
C 	C 	0.46320 0.92740 0.59540 0.09800
C 	C 	0.51340 0.95640 0.59430 0.01400
C 	C 	0.53410 0.98620 0.64010 -0.08600
H 	H 	0.51420 0.98610 0.67460 0.05500
C 	C 	0.43640 0.91830 0.64300 -0.15500
H 	H 	0.45190 0.93310 0.67780 0.07800
C 	C 	0.59660 0.98810 0.54610 0.05100
H 	H 	0.61660 0.98980 0.51160 -0.02100
C 	C 	0.58210 0.01610 0.63820 0.04500
H 	H 	0.59120 0.03750 0.66900 0.00300
C 	C 	0.43770 0.90730 0.54840 -0.16200
H 	H 	0.45370 0.91120 0.51190 0.08700
O 	O 	0.26890 0.85610 0.62880 -0.49700
O 	O 	0.30260 0.80910 0.56720 -0.36700
Cd	Cd	0.69182 0.43477 0.08872 1.17900
Cd	Cd	0.18983 0.68653 0.09238 1.20100
N 	N 	0.76960 0.48390 0.08610 -0.26200
O 	O 	0.72300 0.43720 0.20240 -0.35700
C 	C 	0.02390 0.62460 0.08060 -0.08800
C 	C 	0.35870 0.62920 0.09930 -0.20600
O 	O 	0.08030 0.69100 0.11270 -0.31500
O 	O 	0.66610 0.38700 0.15720 -0.52000
C 	C 	0.64580 0.34290 0.26460 0.04000
H 	H 	0.61850 0.33620 0.23220 0.02600
C 	C 	0.72150 0.35930 0.35850 -0.09700
H 	H 	0.74840 0.36540 0.39130 0.06900
C 	C 	0.64120 0.31890 0.31520 -0.09700
H 	H 	0.61040 0.29690 0.31680 0.06500
C 	C 	0.68800 0.37630 0.25800 -0.13000
C 	C 	0.93390 0.60800 0.12470 -0.07300
H 	H 	0.90780 0.61270 0.15410 0.05600
C 	C 	0.86850 0.54270 0.08150 0.07900
C 	C 	0.98300 0.63520 0.12440 0.00500
H 	H 	0.99030 0.65980 0.15160 0.04100
C 	C 	0.92080 0.57180 0.08050 0.00800
O 	O 	0.11640 0.64060 0.04670 -0.45000
C 	C 	0.01080 0.59220 0.03870 0.01000
H 	H 	0.03730 0.58660 0.00980 0.02500
C 	C 	0.67940 0.32520 0.36380 0.02900
C 	C 	0.69040 0.40220 0.20150 0.39200
C 	C 	0.30930 0.65840 0.10510 0.39900
C 	C 	0.72670 0.38540 0.30710 0.03900
H 	H 	0.75590 0.40870 0.30590 0.03000
C 	C 	0.07610 0.65180 0.07990 0.26400
C 	C 	0.95830 0.56660 0.03770 -0.07500
H 	H 	0.94880 0.54540 0.00670 0.05600
C 	C 	0.79510 0.50330 0.13210 0.08800
H 	H 	0.77980 0.49700 0.16840 0.00600
C 	C 	0.84390 0.53310 0.13240 -0.13900
H 	H 	0.85980 0.54660 0.16800 0.07900
C 	C 	0.79050 0.49500 0.03590 0.08000
H 	H 	0.77210 0.48210 0.00090 -0.03800
C 	C 	0.67940 0.32390 0.82080 0.00200
C 	C 	0.63160 0.35180 0.83010 -0.05500
H 	H 	0.59820 0.35200 0.80250 0.04600
C 	C 	0.63240 0.37950 0.87970 -0.03000
H 	H 	0.59980 0.39860 0.88600 0.03700
C 	C 	0.68120 0.37920 0.92010 -0.04800
C 	C 	0.72900 0.35130 0.91080 -0.03900
H 	H 	0.76230 0.35110 0.93840 0.03000
C 	C 	0.72810 0.32360 0.86120 -0.05200
H 	H 	0.76080 0.30450 0.85480 0.04900
C 	C 	0.83810 0.52450 0.03190 -0.14300
H 	H 	0.85000 0.53230 0.99460 0.08300
C 	C 	0.38780 0.61080 0.14790 0.09800
H 	H 	0.37520 0.61760 0.18530 0.00300
C 	C 	0.38690 0.61980 0.05170 0.10900
H 	H 	0.37060 0.63290 0.01610 -0.00000
N 	N 	0.68460 0.23830 0.51510 -0.24900
C 	C 	0.67960 0.29660 0.41550 0.06700
C 	C 	0.62950 0.27800 0.43470 -0.13700
H 	H 	0.59210 0.28360 0.41480 0.07700
C 	C 	0.73080 0.28400 0.44820 -0.14000
H 	H 	0.76690 0.29550 0.43670 0.08000
C 	C 	0.73190 0.25640 0.49500 0.07300
H 	H 	0.76890 0.24940 0.51500 0.00600
C 	C 	0.63660 0.24980 0.48630 0.08700
H 	H 	0.60170 0.23830 0.50060 -0.00900
C 	C 	0.73650 0.24660 0.70680 0.04800
H 	H 	0.77210 0.23220 0.69840 0.00000
N 	N 	0.68630 0.24080 0.66920 -0.21700
C 	C 	0.63420 0.26190 0.68150 0.04500
H 	H 	0.59990 0.25800 0.65580 0.02000
C 	C 	0.63230 0.28880 0.73150 -0.11300
H 	H 	0.59670 0.30320 0.74000 0.06700
C 	C 	0.68250 0.29460 0.76920 0.06100
C 	C 	0.73460 0.27350 0.75690 -0.11400
H 	H 	0.76890 0.27750 0.78260 0.07200
N 	N 	0.61600 0.48550 0.09180 -0.24100
C 	C 	0.54720 0.54260 0.04630 -0.09700
H 	H 	0.53750 0.56230 0.01370 0.07200
C 	C 	0.46320 0.57260 0.09540 0.09800
C 	C 	0.51340 0.54360 0.09430 0.01400
C 	C 	0.53410 0.51380 0.14010 -0.08600
H 	H 	0.51420 0.51390 0.17460 0.05500
C 	C 	0.43640 0.58170 0.14300 -0.15500
H 	H 	0.45190 0.56690 0.17780 0.07800
C 	C 	0.59660 0.51190 0.04610 0.05100
H 	H 	0.61660 0.51020 0.01160 -0.02100
C 	C 	0.58210 0.48390 0.13820 0.04500
H 	H 	0.59120 0.46250 0.16900 0.00300
C 	C 	0.43770 0.59270 0.04840 -0.16300
H 	H 	0.45370 0.58880 0.01190 0.08700
O 	O 	0.26890 0.64390 0.12880 -0.49700
O 	O 	0.30260 0.69090 0.06720 -0.36700
Cd	Cd	0.19182 0.93477 0.58872 1.17900
Cd	Cd	0.68983 0.18653 0.59238 1.20100
N 	N 	0.26960 0.98390 0.58610 -0.26100
O 	O 	0.22300 0.93720 0.70240 -0.35700
C 	C 	0.52390 0.12460 0.58060 -0.08800
C 	C 	0.85870 0.12920 0.59930 -0.20700
O 	O 	0.58030 0.19100 0.61270 -0.31500
O 	O 	0.16610 0.88700 0.65720 -0.52000
C 	C 	0.14580 0.84290 0.76460 0.03900
H 	H 	0.11850 0.83620 0.73220 0.02600
C 	C 	0.22150 0.85930 0.85850 -0.09600
H 	H 	0.24840 0.86540 0.89130 0.06900
C 	C 	0.14120 0.81890 0.81520 -0.09600
H 	H 	0.11040 0.79690 0.81680 0.06400
C 	C 	0.18800 0.87630 0.75800 -0.13000
C 	C 	0.43390 0.10800 0.62470 -0.07400
H 	H 	0.40780 0.11270 0.65410 0.05600
C 	C 	0.36850 0.04270 0.58150 0.07700
C 	C 	0.48300 0.13520 0.62440 0.00500
H 	H 	0.49030 0.15980 0.65160 0.04100
C 	C 	0.42080 0.07180 0.58050 0.01000
O 	O 	0.61640 0.14060 0.54670 -0.45000
C 	C 	0.51080 0.09220 0.53870 0.01200
H 	H 	0.53730 0.08660 0.50980 0.02500
C 	C 	0.17940 0.82520 0.86380 0.02700
C 	C 	0.19040 0.90220 0.70150 0.39100
C 	C 	0.80930 0.15840 0.60510 0.39900
C 	C 	0.22670 0.88540 0.80710 0.03800
H 	H 	0.25590 0.90870 0.80590 0.03100
C 	C 	0.57610 0.15180 0.57990 0.26400
C 	C 	0.45830 0.06660 0.53770 -0.07700
H 	H 	0.44880 0.04540 0.50670 0.05700
C 	C 	0.29510 0.00330 0.63210 0.08700
H 	H 	0.27980 0.99700 0.66840 0.00600
C 	C 	0.34390 0.03310 0.63240 -0.13800
H 	H 	0.35980 0.04660 0.66800 0.07900
C 	C 	0.29050 0.99500 0.53590 0.07800
H 	H 	0.27210 0.98210 0.50090 -0.03700
C 	C 	0.17940 0.82390 0.32080 0.00300
C 	C 	0.13160 0.85180 0.33010 -0.05600
H 	H 	0.09820 0.85200 0.30250 0.04600
C 	C 	0.13240 0.87950 0.37970 -0.02900
H 	H 	0.09980 0.89860 0.38600 0.03600
C 	C 	0.18120 0.87920 0.42010 -0.04900
C 	C 	0.22900 0.85130 0.41080 -0.03900
H 	H 	0.26230 0.85110 0.43840 0.03000
C 	C 	0.22810 0.82360 0.36120 -0.05200
H 	H 	0.26080 0.80450 0.35480 0.04900
C 	C 	0.33810 0.02450 0.53190 -0.13900
H 	H 	0.35000 0.03230 0.49460 0.08000
C 	C 	0.88780 0.11080 0.64790 0.09900
H 	H 	0.87520 0.11760 0.68530 0.00300
C 	C 	0.88690 0.11980 0.55170 0.11000
H 	H 	0.87060 0.13290 0.51610 -0.00000
N 	N 	0.18460 0.73830 0.01510 -0.25200
C 	C 	0.17960 0.79660 0.91550 0.07000
C 	C 	0.12950 0.77800 0.93470 -0.14100
H 	H 	0.09210 0.78360 0.91480 0.07900
C 	C 	0.23080 0.78400 0.94820 -0.14500
H 	H 	0.26690 0.79550 0.93670 0.08200
C 	C 	0.23190 0.75640 0.99500 0.07900
H 	H 	0.26890 0.74940 0.01500 0.00300
C 	C 	0.13660 0.74980 0.98630 0.09300
H 	H 	0.10170 0.73830 0.00060 -0.01200
C 	C 	0.23650 0.74660 0.20680 0.04800
H 	H 	0.27210 0.73220 0.19840 0.00100
N 	N 	0.18630 0.74080 0.16920 -0.21700
C 	C 	0.13420 0.76190 0.18150 0.04500
H 	H 	0.09990 0.75800 0.15580 0.02000
C 	C 	0.13230 0.78880 0.23150 -0.11300
H 	H 	0.09670 0.80320 0.24000 0.06700
C 	C 	0.18250 0.79460 0.26920 0.06100
C 	C 	0.23460 0.77350 0.25690 -0.11300
H 	H 	0.26890 0.77750 0.28260 0.07200
N 	N 	0.11600 0.98550 0.59180 -0.24100
C 	C 	0.04720 0.04260 0.54630 -0.09600
H 	H 	0.03750 0.06230 0.51370 0.07200
C 	C 	0.96320 0.07260 0.59540 0.10000
C 	C 	0.01340 0.04360 0.59430 0.01200
C 	C 	0.03410 0.01380 0.64010 -0.08500
H 	H 	0.01420 0.01390 0.67460 0.05400
C 	C 	0.93640 0.08170 0.64300 -0.15700
H 	H 	0.95190 0.06690 0.67780 0.07800
C 	C 	0.09660 0.01190 0.54610 0.05000
H 	H 	0.11660 0.01020 0.51160 -0.02100
C 	C 	0.08210 0.98390 0.63820 0.04400
H 	H 	0.09120 0.96250 0.66900 0.00300
C 	C 	0.93770 0.09270 0.54840 -0.16400
H 	H 	0.95370 0.08880 0.51190 0.08800
O 	O 	0.76890 0.14390 0.62880 -0.49700
O 	O 	0.80260 0.19090 0.56720 -0.36700
