data_crystal

_cell_length_a 7.79900
_cell_length_b 9.21200
_cell_length_c 10.78400
_cell_angle_alpha 107.59500
_cell_angle_beta  92.87700
_cell_angle_gamma 110.24800

_symmetry_space_group_name_	'P 1'
_symmetry_space_group_name_H-M	'P 1'

loop_
_symmetry_equiv_pos_as_xyz
  x,y,z

loop_
_atom_site_label
_atom_site_type_symbol
_atom_site_fract_x
_atom_site_fract_y
_atom_site_fract_z
_atom_site_charge
Co	Co	0.34848 0.85916 0.87049 1.20800
Co	Co	0.65152 0.14084 0.12951 1.12100
Co	Co	-0.00000 0.00000 -0.00000 1.07700
H 	H 	0.67650 0.01840 0.58830 0.06600
H 	H 	0.87800 0.14580 0.64300 0.10500
H 	H 	0.82350 0.47800 0.56930 0.10300
H 	H 	0.96870 0.42810 0.63110 0.11400
H 	H 	0.93510 0.39220 0.86220 0.13300
H 	H 	0.76130 0.40730 0.92000 0.10700
H 	H 	0.15660 0.00360 0.78410 0.21700
H 	H 	0.30330 0.13660 0.90420 0.21800
H 	H 	0.32350 0.98160 0.41170 0.12400
H 	H 	0.12200 0.85420 0.35700 0.10100
H 	H 	0.17650 0.52200 0.43070 0.06800
H 	H 	0.03130 0.57190 0.36890 0.06100
H 	H 	0.06490 0.60780 0.13780 0.03600
H 	H 	0.23870 0.59270 0.08000 0.01900
H 	H 	0.84340 0.99640 0.21590 0.29900
H 	H 	0.69670 0.86340 0.09580 0.18900
C 	C 	0.69840 0.18800 0.76870 -0.03600
C 	C 	0.75090 0.13140 0.63280 -0.15200
C 	C 	0.71830 0.23320 0.55200 -0.01700
C 	C 	0.84230 0.41570 0.62100 -0.16900
C 	C 	0.79170 0.47850 0.75760 -0.01300
C 	C 	0.80790 0.37390 0.84090 -0.17700
C 	C 	0.74010 0.10060 0.85810 0.34000
C 	C 	0.74900 0.17410 0.41060 0.31000
C 	C 	0.92320 0.65570 0.83190 0.42100
C 	C 	0.30160 0.81200 0.23130 -0.04000
C 	C 	0.24910 0.86860 0.36720 -0.16400
C 	C 	0.28170 0.76680 0.44800 0.00700
C 	C 	0.15770 0.58430 0.37900 -0.14100
C 	C 	0.20830 0.52150 0.24240 -0.03400
C 	C 	0.19210 0.62610 0.15910 -0.10500
C 	C 	0.25990 0.89940 0.14190 0.35900
C 	C 	0.25100 0.82590 0.58940 0.30500
C 	C 	0.07680 0.34430 0.16810 0.27200
O 	O 	0.89590 0.09280 0.87050 -0.35500
O 	O 	0.61560 0.04700 0.92380 -0.54900
O 	O 	0.86950 0.11390 0.38350 -0.31700
O 	O 	0.64810 0.19110 0.32540 -0.44400
O 	O 	0.85390 0.76220 0.87850 -0.35100
O 	O 	0.09320 0.68200 0.84670 -0.47900
O 	O 	0.21390 0.02700 0.87150 -0.68400
O 	O 	0.10410 0.90720 0.12950 -0.42000
O 	O 	0.38440 0.95300 0.07620 -0.55700
O 	O 	0.13050 0.88610 0.61650 -0.27500
O 	O 	0.35190 0.80890 0.67460 -0.39100
O 	O 	0.14610 0.23780 0.12150 -0.46800
O 	O 	0.90680 0.31800 0.15330 -0.41100
O 	O 	0.78610 0.97300 0.12850 -0.63100
