data_crystal

_cell_length_a 8.30300
_cell_length_b 8.30300
_cell_length_c 20.33400
_cell_angle_alpha 90.00000
_cell_angle_beta  90.00000
_cell_angle_gamma 120.00000

_symmetry_space_group_name_	'P 1'
_symmetry_space_group_name_H-M	'P 1'

loop_
_symmetry_equiv_pos_as_xyz
  x,y,z

loop_
_atom_site_label
_atom_site_type_symbol
_atom_site_fract_x
_atom_site_fract_y
_atom_site_fract_z
_atom_site_charge
Co	Co	0.42224 0.28532 0.00066 1.08400
Co	Co	0.86308 0.57776 0.00066 1.10600
Co	Co	0.71468 0.13692 0.00066 1.06900
Co	Co	0.13692 0.71468 0.49934 1.07000
Co	Co	0.28532 0.42224 0.49934 1.08400
Co	Co	0.57776 0.86308 0.49934 1.10700
Co	Co	0.57776 0.71468 0.99934 1.09100
Co	Co	0.13692 0.42224 0.99934 1.06700
Co	Co	0.28532 0.86308 0.99934 1.10400
Co	Co	0.86308 0.28532 0.50066 1.10600
Co	Co	0.71468 0.57776 0.50066 1.09100
Co	Co	0.42224 0.13692 0.50066 1.06700
Co	Co	0.00000 0.00000 0.08472 1.08700
Co	Co	-0.00000 -0.00000 0.41528 1.08600
Co	Co	-0.00000 -0.00000 0.91528 1.08800
Co	Co	-0.00000 0.00000 0.58472 1.08600
H 	H 	0.30500 0.08500 0.09000 0.37800
H 	H 	0.47730 0.10280 0.90340 0.11000
H 	H 	0.15110 0.87350 0.20660 0.07900
H 	H 	0.94250 0.73040 0.18990 0.08200
H 	H 	0.78000 0.69500 0.09000 0.36900
H 	H 	0.62550 0.52270 0.90340 0.12700
H 	H 	0.72240 0.84890 0.20660 -0.12000
H 	H 	0.78790 0.05750 0.18990 -0.19100
H 	H 	0.91500 0.22000 0.09000 0.37800
H 	H 	0.89720 0.37450 0.90340 0.13800
H 	H 	0.12650 0.27760 0.20660 -0.03200
H 	H 	0.26960 0.21210 0.18990 -0.04500
H 	H 	0.22000 0.91500 0.41000 0.37800
H 	H 	0.37450 0.89720 0.59660 0.13700
H 	H 	0.27760 0.12650 0.29340 -0.03200
H 	H 	0.21210 0.26960 0.31010 -0.04500
H 	H 	0.08500 0.30500 0.41000 0.37900
H 	H 	0.10280 0.47730 0.59660 0.10900
H 	H 	0.87350 0.15110 0.29340 0.08400
H 	H 	0.73040 0.94250 0.31010 0.09200
H 	H 	0.69500 0.78000 0.41000 0.36900
H 	H 	0.52270 0.62550 0.59660 0.12700
H 	H 	0.84890 0.72240 0.29340 -0.11300
H 	H 	0.05750 0.78790 0.31010 -0.18200
H 	H 	0.69500 0.91500 0.91000 0.37200
H 	H 	0.52270 0.89720 0.09660 0.13900
H 	H 	0.84890 0.12650 0.79340 -0.14100
H 	H 	0.05750 0.26960 0.81010 -0.20800
H 	H 	0.22000 0.30500 0.91000 0.38200
H 	H 	0.37450 0.47730 0.09660 0.12200
H 	H 	0.27760 0.15110 0.79340 0.08100
H 	H 	0.21210 0.94250 0.81010 0.10400
H 	H 	0.08500 0.78000 0.91000 0.37100
H 	H 	0.10280 0.62550 0.09660 0.11300
H 	H 	0.87350 0.72240 0.79340 -0.01300
H 	H 	0.73040 0.78790 0.81010 -0.05100
H 	H 	0.78000 0.08500 0.59000 0.37100
H 	H 	0.62550 0.10280 0.40340 0.11200
H 	H 	0.72240 0.87350 0.70660 -0.01300
H 	H 	0.78790 0.73040 0.68990 -0.05000
H 	H 	0.91500 0.69500 0.59000 0.37300
H 	H 	0.89720 0.52270 0.40340 0.13800
H 	H 	0.12650 0.84890 0.70660 -0.13600
H 	H 	0.26960 0.05750 0.68990 -0.19800
H 	H 	0.30500 0.22000 0.59000 0.38300
H 	H 	0.47730 0.37450 0.40340 0.12200
H 	H 	0.15110 0.27760 0.70660 0.08700
H 	H 	0.94250 0.21210 0.68990 0.11400
C 	C 	0.02380 0.84530 0.21290 -0.29700
C 	C 	0.82150 0.97620 0.21290 0.36500
C 	C 	0.15470 0.17850 0.21290 -0.04800
C 	C 	0.17850 0.15470 0.28710 -0.04900
C 	C 	0.84530 0.02380 0.28710 -0.32200
C 	C 	0.97620 0.82150 0.28710 0.34300
C 	C 	0.97620 0.15470 0.78710 0.37000
C 	C 	0.17850 0.02380 0.78710 -0.39000
C 	C 	0.84530 0.82150 0.78710 0.04200
C 	C 	0.82150 0.84530 0.71290 0.04100
C 	C 	0.15470 0.97620 0.71290 0.34500
C 	C 	0.02380 0.17850 0.71290 -0.41200
N 	N 	-0.00000 -0.00000 0.18550 -0.31200
N 	N 	-0.00000 0.00000 0.31450 -0.30700
N 	N 	0.00000 0.00000 0.81450 -0.31200
N 	N 	-0.00000 -0.00000 0.68550 -0.30600
O 	O 	0.24990 0.05350 0.05950 -1.06200
O 	O 	0.47710 0.10160 0.95262 -0.78900
O 	O 	0.80360 0.75010 0.05950 -0.97000
O 	O 	0.62450 0.52290 0.95262 -0.76400
O 	O 	0.94650 0.19640 0.05950 -0.99200
O 	O 	0.89840 0.37550 0.95262 -0.74400
O 	O 	0.19640 0.94650 0.44050 -0.98800
O 	O 	0.37550 0.89840 0.54738 -0.74800
O 	O 	0.05350 0.24990 0.44050 -1.06200
O 	O 	0.10160 0.47710 0.54738 -0.79200
O 	O 	0.75010 0.80360 0.44050 -0.97000
O 	O 	0.52290 0.62450 0.54738 -0.76500
O 	O 	0.75010 0.94650 0.94050 -0.95600
O 	O 	0.52290 0.89840 0.04738 -0.74200
O 	O 	0.19640 0.24990 0.94050 -1.04600
O 	O 	0.37550 0.47710 0.04738 -0.77100
O 	O 	0.05350 0.80360 0.94050 -1.02200
O 	O 	0.10160 0.62450 0.04738 -0.78500
O 	O 	0.80360 0.05350 0.55950 -1.01800
O 	O 	0.62450 0.10160 0.45262 -0.78800
O 	O 	0.94650 0.75010 0.55950 -0.95600
O 	O 	0.89840 0.52290 0.45262 -0.74500
O 	O 	0.24990 0.19640 0.55950 -1.04700
O 	O 	0.47710 0.37550 0.45262 -0.77200
