data_crystal

_cell_length_a 16.65000
_cell_length_b 29.14000
_cell_length_c 31.71000
_cell_angle_alpha 90.00000
_cell_angle_beta  90.00000
_cell_angle_gamma 90.00000

_symmetry_space_group_name_	'P 1'
_symmetry_space_group_name_H-M	'P 1'

loop_
_symmetry_equiv_pos_as_xyz
  x,y,z

loop_
_atom_site_label
_atom_site_type_symbol
_atom_site_fract_x
_atom_site_fract_y
_atom_site_fract_z
_atom_site_charge
Sn	Sn	0.81999 0.35585 0.12075 1.23900
C 	C 	0.72060 0.31970 0.14240 -0.61700
H 	H 	0.70900 0.33010 0.17080 0.13100
H 	H 	0.67510 0.32810 0.12490 0.12300
C 	C 	0.72540 0.26740 0.14330 0.08600
H 	H 	0.77340 0.25840 0.15850 -0.04000
H 	H 	0.73050 0.25620 0.11460 -0.04800
C 	C 	0.65300 0.24460 0.16390 -0.04900
H 	H 	0.60390 0.25650 0.15110 0.01700
H 	H 	0.65150 0.25240 0.19360 0.02100
C 	C 	0.65400 0.19230 0.15920 -0.39800
H 	H 	0.62540 0.18370 0.13410 0.11900
H 	H 	0.62850 0.17850 0.18330 0.12100
H 	H 	0.70840 0.18190 0.15730 0.12100
C 	C 	0.92670 0.35710 0.15330 -0.64700
H 	H 	0.97000 0.35530 0.13290 0.14600
H 	H 	0.93100 0.38670 0.16720 0.13500
C 	C 	0.94100 0.31990 0.18660 0.14500
H 	H 	0.91790 0.29120 0.17690 -0.06200
H 	H 	0.99830 0.31520 0.19010 -0.03800
C 	C 	0.90400 0.33270 0.22910 -0.19400
H 	H 	0.84610 0.32910 0.22760 0.05600
H 	H 	0.91540 0.36470 0.23520 0.05900
C 	C 	0.93700 0.30300 0.26490 -0.15200
H 	H 	0.90090 0.27770 0.27000 -0.02700
H 	H 	0.94230 0.32090 0.29000 0.04600
H 	H 	0.98870 0.29090 0.25700 0.05600
C 	C 	0.82000 0.40760 0.07410 -0.59500
H 	H 	0.77160 0.40450 0.05730 0.12000
H 	H 	0.81800 0.43720 0.08800 0.12000
C 	C 	0.89300 0.40660 0.04470 0.06500
H 	H 	0.94090 0.40590 0.06180 -0.04300
H 	H 	0.89100 0.37820 0.02870 -0.04300
C 	C 	0.90000 0.44620 0.01380 -0.02300
H 	H 	0.89420 0.47490 0.02900 0.00800
H 	H 	0.85610 0.44440 0.99350 0.00800
C 	C 	0.98000 0.44560 0.99030 -0.42700
H 	H 	0.99290 0.47600 0.98080 0.13100
H 	H 	0.97660 0.42540 0.96650 0.12700
H 	H 	0.02160 0.43500 0.00900 0.12800
Sn	Sn	0.82396 0.48843 0.24411 1.24100
C 	C 	0.76200 0.54220 0.27350 -0.62700
H 	H 	0.74010 0.53080 0.29990 0.14000
H 	H 	0.80000 0.56620 0.28020 0.14500
C 	C 	0.69320 0.56350 0.24830 0.10800
H 	H 	0.64520 0.54530 0.25250 -0.05100
H 	H 	0.70660 0.56230 0.21860 -0.06800
C 	C 	0.67500 0.61320 0.26010 -0.06300
H 	H 	0.70110 0.62050 0.28650 0.02500
H 	H 	0.61730 0.61650 0.26430 0.02500
C 	C 	0.70300 0.64710 0.22620 -0.39500
H 	H 	0.69730 0.63320 0.19890 0.11800
H 	H 	0.75760 0.65510 0.23110 0.12500
H 	H 	0.66990 0.67430 0.22740 0.12300
C 	C 	0.91540 0.49020 0.20050 -0.61400
H 	H 	0.95440 0.46700 0.20840 0.12800
H 	H 	0.89320 0.48110 0.17350 0.11600
C 	C 	0.96020 0.53530 0.19420 0.06700
H 	H 	0.01610 0.52890 0.18810 -0.01700
H 	H 	0.95790 0.55310 0.22000 -0.05000
C 	C 	0.92400 0.56340 0.15800 -0.02900
H 	H 	0.88380 0.54530 0.14340 -0.00400
H 	H 	0.89790 0.59050 0.16920 0.00400
C 	C 	0.99000 0.57780 0.12670 -0.42000
H 	H 	0.04010 0.56490 0.13530 0.13300
H 	H 	0.99370 0.61070 0.12620 0.12600
H 	H 	0.97610 0.56690 0.09900 0.12500
C 	C 	0.81800 0.43500 0.28660 -0.60200
H 	H 	0.85240 0.44250 0.31010 0.12700
H 	H 	0.76320 0.43390 0.29740 0.12600
C 	C 	0.84000 0.38680 0.27150 0.01900
H 	H 	0.89620 0.38130 0.27680 -0.00900
H 	H 	0.83060 0.38470 0.24140 -0.05200
C 	C 	0.79000 0.34980 0.29400 0.09500
H 	H 	0.76480 0.36290 0.31890 -0.02600
H 	H 	0.74740 0.33930 0.27530 -0.03100
C 	C 	0.84200 0.30890 0.30700 -0.63700
H 	H 	0.88610 0.31950 0.32360 0.19700
H 	H 	0.86140 0.29370 0.28220 0.25100
H 	H 	0.81000 0.28780 0.32330 0.19200
Sn	Sn	0.31999 0.14415 0.87925 1.24000
C 	C 	0.22060 0.18030 0.85760 -0.61600
H 	H 	0.20900 0.16990 0.82920 0.13200
H 	H 	0.17510 0.17190 0.87510 0.12400
C 	C 	0.22540 0.23260 0.85670 0.08700
H 	H 	0.27340 0.24160 0.84150 -0.03900
H 	H 	0.23050 0.24380 0.88540 -0.04700
C 	C 	0.15300 0.25540 0.83610 -0.04800
H 	H 	0.10390 0.24350 0.84890 0.01800
H 	H 	0.15150 0.24760 0.80640 0.02200
C 	C 	0.15400 0.30770 0.84080 -0.39700
H 	H 	0.12540 0.31630 0.86590 0.12000
H 	H 	0.12850 0.32150 0.81670 0.12100
H 	H 	0.20840 0.31810 0.84270 0.12200
C 	C 	0.42670 0.14290 0.84670 -0.64600
H 	H 	0.47000 0.14470 0.86710 0.14700
H 	H 	0.43100 0.11330 0.83280 0.13500
C 	C 	0.44100 0.18010 0.81340 0.14500
H 	H 	0.41790 0.20880 0.82310 -0.06200
H 	H 	0.49830 0.18480 0.80990 -0.03800
C 	C 	0.40400 0.16730 0.77090 -0.19400
H 	H 	0.34610 0.17090 0.77240 0.05600
H 	H 	0.41540 0.13530 0.76480 0.05900
C 	C 	0.43700 0.19700 0.73510 -0.15300
H 	H 	0.40090 0.22230 0.73000 -0.02700
H 	H 	0.44230 0.17910 0.71000 0.04600
H 	H 	0.48870 0.20910 0.74300 0.05600
C 	C 	0.32000 0.09240 0.92590 -0.59700
H 	H 	0.27160 0.09550 0.94270 0.12100
H 	H 	0.31800 0.06280 0.91200 0.12000
C 	C 	0.39300 0.09340 0.95530 0.06900
H 	H 	0.44090 0.09410 0.93820 -0.04400
H 	H 	0.39100 0.12180 0.97130 -0.04400
C 	C 	0.40000 0.05380 0.98620 -0.02900
H 	H 	0.39420 0.02510 0.97100 0.01000
H 	H 	0.35610 0.05560 0.00650 0.01000
C 	C 	0.48000 0.05440 0.00970 -0.41800
H 	H 	0.49290 0.02400 0.01920 0.12900
H 	H 	0.47660 0.07460 0.03350 0.12500
H 	H 	0.52160 0.06500 0.99100 0.12500
Sn	Sn	0.32396 0.01157 0.75589 1.24100
C 	C 	0.26200 0.95780 0.72650 -0.62700
H 	H 	0.24010 0.96920 0.70010 0.14000
H 	H 	0.30000 0.93380 0.71980 0.14500
C 	C 	0.19320 0.93650 0.75170 0.10700
H 	H 	0.14520 0.95470 0.74750 -0.05100
H 	H 	0.20660 0.93770 0.78140 -0.06800
C 	C 	0.17500 0.88680 0.73990 -0.06200
H 	H 	0.20110 0.87950 0.71350 0.02500
H 	H 	0.11730 0.88350 0.73570 0.02500
C 	C 	0.20300 0.85290 0.77380 -0.39600
H 	H 	0.19730 0.86680 0.80110 0.11800
H 	H 	0.25760 0.84490 0.76890 0.12500
H 	H 	0.16990 0.82570 0.77260 0.12300
C 	C 	0.41540 0.00980 0.79950 -0.61400
H 	H 	0.45440 0.03300 0.79160 0.12800
H 	H 	0.39320 0.01890 0.82650 0.11600
C 	C 	0.46020 0.96470 0.80580 0.06700
H 	H 	0.51610 0.97110 0.81190 -0.01700
H 	H 	0.45790 0.94690 0.78000 -0.05000
C 	C 	0.42400 0.93660 0.84200 -0.02900
H 	H 	0.38380 0.95470 0.85660 -0.00400
H 	H 	0.39790 0.90950 0.83080 0.00400
C 	C 	0.49000 0.92220 0.87330 -0.42100
H 	H 	0.54010 0.93510 0.86470 0.13300
H 	H 	0.49370 0.88930 0.87380 0.12700
H 	H 	0.47610 0.93310 0.90100 0.12500
C 	C 	0.31800 0.06500 0.71340 -0.60200
H 	H 	0.35240 0.05750 0.68990 0.12700
H 	H 	0.26320 0.06610 0.70260 0.12600
C 	C 	0.34000 0.11320 0.72850 0.01900
H 	H 	0.39620 0.11870 0.72320 -0.00900
H 	H 	0.33060 0.11530 0.75860 -0.05200
C 	C 	0.29000 0.15020 0.70600 0.09500
H 	H 	0.26480 0.13710 0.68110 -0.02600
H 	H 	0.24740 0.16070 0.72470 -0.03100
C 	C 	0.34200 0.19110 0.69300 -0.63700
H 	H 	0.38610 0.18050 0.67640 0.19700
H 	H 	0.36140 0.20630 0.71780 0.25000
H 	H 	0.31000 0.21220 0.67670 0.19200
Sn	Sn	0.32396 0.48843 0.25589 1.24100
C 	C 	0.26200 0.54220 0.22650 -0.62700
H 	H 	0.24010 0.53080 0.20010 0.14000
H 	H 	0.30000 0.56620 0.21980 0.14500
C 	C 	0.19320 0.56350 0.25170 0.10800
H 	H 	0.14520 0.54530 0.24750 -0.05100
H 	H 	0.20660 0.56230 0.28140 -0.06800
C 	C 	0.17500 0.61320 0.23990 -0.06300
H 	H 	0.20110 0.62050 0.21350 0.02500
H 	H 	0.11730 0.61650 0.23570 0.02500
C 	C 	0.20300 0.64710 0.27380 -0.39500
H 	H 	0.19730 0.63320 0.30110 0.11800
H 	H 	0.25760 0.65510 0.26890 0.12500
H 	H 	0.16990 0.67430 0.27260 0.12300
C 	C 	0.41540 0.49020 0.29950 -0.61300
H 	H 	0.45440 0.46700 0.29160 0.12800
H 	H 	0.39320 0.48110 0.32650 0.11600
C 	C 	0.46020 0.53530 0.30580 0.06700
H 	H 	0.51610 0.52890 0.31190 -0.01700
H 	H 	0.45790 0.55310 0.28000 -0.05000
C 	C 	0.42400 0.56340 0.34200 -0.02900
H 	H 	0.38380 0.54530 0.35660 -0.00400
H 	H 	0.39790 0.59050 0.33080 0.00400
C 	C 	0.49000 0.57780 0.37330 -0.42000
H 	H 	0.54010 0.56490 0.36470 0.13300
H 	H 	0.49370 0.61070 0.37380 0.12700
H 	H 	0.47610 0.56690 0.40100 0.12500
C 	C 	0.31800 0.43500 0.21340 -0.60200
H 	H 	0.35240 0.44250 0.18990 0.12700
H 	H 	0.26320 0.43390 0.20260 0.12600
C 	C 	0.34000 0.38680 0.22850 0.01900
H 	H 	0.39620 0.38130 0.22320 -0.00900
H 	H 	0.33060 0.38470 0.25860 -0.05200
C 	C 	0.29000 0.34980 0.20600 0.09500
H 	H 	0.26480 0.36290 0.18110 -0.02600
H 	H 	0.24740 0.33930 0.22470 -0.03100
C 	C 	0.34200 0.30890 0.19300 -0.63700
H 	H 	0.38610 0.31950 0.17640 0.19700
H 	H 	0.36140 0.29370 0.21780 0.25100
H 	H 	0.31000 0.28780 0.17670 0.19200
Sn	Sn	0.31999 0.35585 0.37925 1.24000
C 	C 	0.22060 0.31970 0.35760 -0.61600
H 	H 	0.20900 0.33010 0.32920 0.13200
H 	H 	0.17510 0.32810 0.37510 0.12400
C 	C 	0.22540 0.26740 0.35670 0.08700
H 	H 	0.27340 0.25840 0.34150 -0.03900
H 	H 	0.23050 0.25620 0.38540 -0.04700
C 	C 	0.15300 0.24460 0.33610 -0.04800
H 	H 	0.10390 0.25650 0.34890 0.01800
H 	H 	0.15150 0.25240 0.30640 0.02200
C 	C 	0.15400 0.19230 0.34080 -0.39700
H 	H 	0.12540 0.18370 0.36590 0.12000
H 	H 	0.12850 0.17850 0.31670 0.12200
H 	H 	0.20840 0.18190 0.34270 0.12200
C 	C 	0.42670 0.35710 0.34670 -0.64600
H 	H 	0.47000 0.35530 0.36710 0.14700
H 	H 	0.43100 0.38670 0.33280 0.13500
C 	C 	0.44100 0.31990 0.31340 0.14500
H 	H 	0.41790 0.29120 0.32310 -0.06200
H 	H 	0.49830 0.31520 0.30990 -0.03800
C 	C 	0.40400 0.33270 0.27090 -0.19400
H 	H 	0.34610 0.32910 0.27240 0.05600
H 	H 	0.41540 0.36470 0.26480 0.05900
C 	C 	0.43700 0.30300 0.23510 -0.15300
H 	H 	0.40090 0.27770 0.23000 -0.02700
H 	H 	0.44230 0.32090 0.21000 0.04600
H 	H 	0.48870 0.29090 0.24300 0.05600
C 	C 	0.32000 0.40760 0.42590 -0.59500
H 	H 	0.27160 0.40450 0.44270 0.12000
H 	H 	0.31800 0.43720 0.41200 0.12000
C 	C 	0.39300 0.40660 0.45530 0.06500
H 	H 	0.44090 0.40590 0.43820 -0.04300
H 	H 	0.39100 0.37820 0.47130 -0.04300
C 	C 	0.40000 0.44620 0.48620 -0.02300
H 	H 	0.39420 0.47490 0.47100 0.00800
H 	H 	0.35610 0.44440 0.50650 0.00800
C 	C 	0.48000 0.44560 0.50970 -0.42600
H 	H 	0.49290 0.47600 0.51920 0.13100
H 	H 	0.47660 0.42540 0.53350 0.12700
H 	H 	0.52160 0.43500 0.49100 0.12800
Sn	Sn	0.68001 0.64415 0.62075 1.24000
C 	C 	0.77940 0.68030 0.64240 -0.61600
H 	H 	0.79100 0.66990 0.67080 0.13200
H 	H 	0.82490 0.67190 0.62490 0.12400
C 	C 	0.77460 0.73260 0.64330 0.08700
H 	H 	0.72660 0.74160 0.65850 -0.03900
H 	H 	0.76950 0.74380 0.61460 -0.04700
C 	C 	0.84700 0.75540 0.66390 -0.04800
H 	H 	0.89610 0.74350 0.65110 0.01800
H 	H 	0.84850 0.74760 0.69360 0.02200
C 	C 	0.84600 0.80770 0.65920 -0.39700
H 	H 	0.87460 0.81630 0.63410 0.12000
H 	H 	0.87150 0.82150 0.68330 0.12200
H 	H 	0.79160 0.81810 0.65730 0.12200
C 	C 	0.57330 0.64290 0.65330 -0.64600
H 	H 	0.53000 0.64470 0.63290 0.14700
H 	H 	0.56900 0.61330 0.66720 0.13500
C 	C 	0.55900 0.68010 0.68660 0.14500
H 	H 	0.58210 0.70880 0.67690 -0.06200
H 	H 	0.50170 0.68480 0.69010 -0.03800
C 	C 	0.59600 0.66730 0.72910 -0.19400
H 	H 	0.65390 0.67090 0.72760 0.05600
H 	H 	0.58460 0.63530 0.73520 0.05900
C 	C 	0.56300 0.69700 0.76490 -0.15300
H 	H 	0.59910 0.72230 0.77000 -0.02700
H 	H 	0.55770 0.67910 0.79000 0.04600
H 	H 	0.51130 0.70910 0.75700 0.05600
C 	C 	0.68000 0.59240 0.57410 -0.59500
H 	H 	0.72840 0.59550 0.55730 0.12000
H 	H 	0.68200 0.56280 0.58800 0.12000
C 	C 	0.60700 0.59340 0.54470 0.06500
H 	H 	0.55910 0.59410 0.56180 -0.04300
H 	H 	0.60900 0.62180 0.52870 -0.04300
C 	C 	0.60000 0.55380 0.51380 -0.02300
H 	H 	0.60580 0.52510 0.52900 0.00800
H 	H 	0.64390 0.55560 0.49350 0.00800
C 	C 	0.52000 0.55440 0.49030 -0.42600
H 	H 	0.50710 0.52400 0.48080 0.13100
H 	H 	0.52340 0.57460 0.46650 0.12700
H 	H 	0.47840 0.56500 0.50900 0.12800
Sn	Sn	0.67604 0.51157 0.74411 1.24100
C 	C 	0.73800 0.45780 0.77350 -0.62700
H 	H 	0.75990 0.46920 0.79990 0.14000
H 	H 	0.70000 0.43380 0.78020 0.14500
C 	C 	0.80680 0.43650 0.74830 0.10800
H 	H 	0.85480 0.45470 0.75250 -0.05100
H 	H 	0.79340 0.43770 0.71860 -0.06800
C 	C 	0.82500 0.38680 0.76010 -0.06300
H 	H 	0.79890 0.37950 0.78650 0.02500
H 	H 	0.88270 0.38350 0.76430 0.02500
C 	C 	0.79700 0.35290 0.72620 -0.39500
H 	H 	0.80270 0.36680 0.69890 0.11800
H 	H 	0.74240 0.34490 0.73110 0.12500
H 	H 	0.83010 0.32570 0.72740 0.12300
C 	C 	0.58460 0.50980 0.70050 -0.61300
H 	H 	0.54560 0.53300 0.70840 0.12800
H 	H 	0.60680 0.51890 0.67350 0.11600
C 	C 	0.53980 0.46470 0.69420 0.06700
H 	H 	0.48390 0.47110 0.68810 -0.01700
H 	H 	0.54210 0.44690 0.72000 -0.05000
C 	C 	0.57600 0.43660 0.65800 -0.02900
H 	H 	0.61620 0.45470 0.64340 -0.00400
H 	H 	0.60210 0.40950 0.66920 0.00400
C 	C 	0.51000 0.42220 0.62670 -0.42000
H 	H 	0.45990 0.43510 0.63530 0.13300
H 	H 	0.50630 0.38930 0.62620 0.12700
H 	H 	0.52390 0.43310 0.59900 0.12500
C 	C 	0.68200 0.56500 0.78660 -0.60200
H 	H 	0.64760 0.55750 0.81010 0.12700
H 	H 	0.73680 0.56610 0.79740 0.12600
C 	C 	0.66000 0.61320 0.77150 0.01900
H 	H 	0.60380 0.61870 0.77680 -0.00900
H 	H 	0.66940 0.61530 0.74140 -0.05200
C 	C 	0.71000 0.65020 0.79400 0.09500
H 	H 	0.73520 0.63710 0.81890 -0.02600
H 	H 	0.75260 0.66070 0.77530 -0.03100
C 	C 	0.65800 0.69110 0.80700 -0.63700
H 	H 	0.61390 0.68050 0.82360 0.19700
H 	H 	0.63860 0.70630 0.78220 0.25100
H 	H 	0.69000 0.71220 0.82330 0.19200
Sn	Sn	0.18001 0.85585 0.37925 1.24000
C 	C 	0.27940 0.81970 0.35760 -0.61600
H 	H 	0.29100 0.83010 0.32920 0.13200
H 	H 	0.32490 0.82810 0.37510 0.12400
C 	C 	0.27460 0.76740 0.35670 0.08700
H 	H 	0.22660 0.75840 0.34150 -0.03900
H 	H 	0.26950 0.75620 0.38540 -0.04700
C 	C 	0.34700 0.74460 0.33610 -0.04800
H 	H 	0.39610 0.75650 0.34890 0.01800
H 	H 	0.34850 0.75240 0.30640 0.02200
C 	C 	0.34600 0.69230 0.34080 -0.39700
H 	H 	0.37460 0.68370 0.36590 0.12000
H 	H 	0.37150 0.67850 0.31670 0.12100
H 	H 	0.29160 0.68190 0.34270 0.12200
C 	C 	0.07330 0.85710 0.34670 -0.64600
H 	H 	0.03000 0.85530 0.36710 0.14700
H 	H 	0.06900 0.88670 0.33280 0.13500
C 	C 	0.05900 0.81990 0.31340 0.14500
H 	H 	0.08210 0.79120 0.32310 -0.06200
H 	H 	0.00170 0.81520 0.30990 -0.03800
C 	C 	0.09600 0.83270 0.27090 -0.19400
H 	H 	0.15390 0.82910 0.27240 0.05600
H 	H 	0.08460 0.86470 0.26480 0.05900
C 	C 	0.06300 0.80300 0.23510 -0.15200
H 	H 	0.09910 0.77770 0.23000 -0.02700
H 	H 	0.05770 0.82090 0.21000 0.04600
H 	H 	0.01130 0.79090 0.24300 0.05600
C 	C 	0.18000 0.90760 0.42590 -0.59500
H 	H 	0.22840 0.90450 0.44270 0.12100
H 	H 	0.18200 0.93720 0.41200 0.12000
C 	C 	0.10700 0.90660 0.45530 0.06600
H 	H 	0.05910 0.90590 0.43820 -0.04300
H 	H 	0.10900 0.87820 0.47130 -0.04300
C 	C 	0.10000 0.94620 0.48620 -0.02400
H 	H 	0.10580 0.97490 0.47100 0.00800
H 	H 	0.14390 0.94440 0.50650 0.00800
C 	C 	0.02000 0.94560 0.50970 -0.42500
H 	H 	0.00710 0.97600 0.51920 0.13100
H 	H 	0.02340 0.92540 0.53350 0.12700
H 	H 	0.97840 0.93500 0.49100 0.12800
Sn	Sn	0.17604 0.98843 0.25589 1.24100
C 	C 	0.23800 0.04220 0.22650 -0.62700
H 	H 	0.25990 0.03080 0.20010 0.14000
H 	H 	0.20000 0.06620 0.21980 0.14500
C 	C 	0.30680 0.06350 0.25170 0.10700
H 	H 	0.35480 0.04530 0.24750 -0.05100
H 	H 	0.29340 0.06230 0.28140 -0.06800
C 	C 	0.32500 0.11320 0.23990 -0.06200
H 	H 	0.29890 0.12050 0.21350 0.02500
H 	H 	0.38270 0.11650 0.23570 0.02500
C 	C 	0.29700 0.14710 0.27380 -0.39600
H 	H 	0.30270 0.13320 0.30110 0.11800
H 	H 	0.24240 0.15510 0.26890 0.12500
H 	H 	0.33010 0.17430 0.27260 0.12300
C 	C 	0.08460 0.99020 0.29950 -0.61300
H 	H 	0.04560 0.96700 0.29160 0.12700
H 	H 	0.10680 0.98110 0.32650 0.11600
C 	C 	0.03980 0.03530 0.30580 0.06700
H 	H 	0.98390 0.02890 0.31190 -0.01700
H 	H 	0.04210 0.05310 0.28000 -0.05000
C 	C 	0.07600 0.06340 0.34200 -0.02900
H 	H 	0.11620 0.04530 0.35660 -0.00400
H 	H 	0.10210 0.09050 0.33080 0.00400
C 	C 	0.01000 0.07780 0.37330 -0.42100
H 	H 	0.95990 0.06490 0.36470 0.13300
H 	H 	0.00630 0.11070 0.37380 0.12700
H 	H 	0.02390 0.06690 0.40100 0.12500
C 	C 	0.18200 0.93500 0.21340 -0.60200
H 	H 	0.14760 0.94250 0.18990 0.12700
H 	H 	0.23680 0.93390 0.20260 0.12600
C 	C 	0.16000 0.88680 0.22850 0.01900
H 	H 	0.10380 0.88130 0.22320 -0.00900
H 	H 	0.16940 0.88470 0.25860 -0.05200
C 	C 	0.21000 0.84980 0.20600 0.09500
H 	H 	0.23520 0.86290 0.18110 -0.02600
H 	H 	0.25260 0.83930 0.22470 -0.03100
C 	C 	0.15800 0.80890 0.19300 -0.63700
H 	H 	0.11390 0.81950 0.17640 0.19700
H 	H 	0.13860 0.79370 0.21780 0.25100
H 	H 	0.19000 0.78780 0.17670 0.19200
Sn	Sn	0.17604 0.51157 0.75589 1.24100
C 	C 	0.23800 0.45780 0.72650 -0.62700
H 	H 	0.25990 0.46920 0.70010 0.14000
H 	H 	0.20000 0.43380 0.71980 0.14500
C 	C 	0.30680 0.43650 0.75170 0.10800
H 	H 	0.35480 0.45470 0.74750 -0.05100
H 	H 	0.29340 0.43770 0.78140 -0.06800
C 	C 	0.32500 0.38680 0.73990 -0.06300
H 	H 	0.29890 0.37950 0.71350 0.02500
H 	H 	0.38270 0.38350 0.73570 0.02500
C 	C 	0.29700 0.35290 0.77380 -0.39500
H 	H 	0.30270 0.36680 0.80110 0.11800
H 	H 	0.24240 0.34490 0.76890 0.12500
H 	H 	0.33010 0.32570 0.77260 0.12300
C 	C 	0.08460 0.50980 0.79950 -0.61400
H 	H 	0.04560 0.53300 0.79160 0.12800
H 	H 	0.10680 0.51890 0.82650 0.11600
C 	C 	0.03980 0.46470 0.80580 0.06700
H 	H 	0.98390 0.47110 0.81190 -0.01700
H 	H 	0.04210 0.44690 0.78000 -0.05000
C 	C 	0.07600 0.43660 0.84200 -0.02900
H 	H 	0.11620 0.45470 0.85660 -0.00400
H 	H 	0.10210 0.40950 0.83080 0.00400
C 	C 	0.01000 0.42220 0.87330 -0.42000
H 	H 	0.95990 0.43510 0.86470 0.13300
H 	H 	0.00630 0.38930 0.87380 0.12600
H 	H 	0.02390 0.43310 0.90100 0.12500
C 	C 	0.18200 0.56500 0.71340 -0.60200
H 	H 	0.14760 0.55750 0.68990 0.12700
H 	H 	0.23680 0.56610 0.70260 0.12600
C 	C 	0.16000 0.61320 0.72850 0.01900
H 	H 	0.10380 0.61870 0.72320 -0.00900
H 	H 	0.16940 0.61530 0.75860 -0.05200
C 	C 	0.21000 0.65020 0.70600 0.09500
H 	H 	0.23520 0.63710 0.68110 -0.02600
H 	H 	0.25260 0.66070 0.72470 -0.03100
C 	C 	0.15800 0.69110 0.69300 -0.63700
H 	H 	0.11390 0.68050 0.67640 0.19700
H 	H 	0.13860 0.70630 0.71780 0.25100
H 	H 	0.19000 0.71220 0.67670 0.19200
Sn	Sn	0.18001 0.64415 0.87925 1.24000
C 	C 	0.27940 0.68030 0.85760 -0.61600
H 	H 	0.29100 0.66990 0.82920 0.13200
H 	H 	0.32490 0.67190 0.87510 0.12400
C 	C 	0.27460 0.73260 0.85670 0.08700
H 	H 	0.22660 0.74160 0.84150 -0.03900
H 	H 	0.26950 0.74380 0.88540 -0.04700
C 	C 	0.34700 0.75540 0.83610 -0.04800
H 	H 	0.39610 0.74350 0.84890 0.01800
H 	H 	0.34850 0.74760 0.80640 0.02200
C 	C 	0.34600 0.80770 0.84080 -0.39700
H 	H 	0.37460 0.81630 0.86590 0.12000
H 	H 	0.37150 0.82150 0.81670 0.12200
H 	H 	0.29160 0.81810 0.84270 0.12200
C 	C 	0.07330 0.64290 0.84670 -0.64600
H 	H 	0.03000 0.64470 0.86710 0.14700
H 	H 	0.06900 0.61330 0.83280 0.13500
C 	C 	0.05900 0.68010 0.81340 0.14500
H 	H 	0.08210 0.70880 0.82310 -0.06200
H 	H 	0.00170 0.68480 0.80990 -0.03800
C 	C 	0.09600 0.66730 0.77090 -0.19400
H 	H 	0.15390 0.67090 0.77240 0.05600
H 	H 	0.08460 0.63530 0.76480 0.05900
C 	C 	0.06300 0.69700 0.73510 -0.15200
H 	H 	0.09910 0.72230 0.73000 -0.02700
H 	H 	0.05770 0.67910 0.71000 0.04600
H 	H 	0.01130 0.70910 0.74300 0.05600
C 	C 	0.18000 0.59240 0.92590 -0.59500
H 	H 	0.22840 0.59550 0.94270 0.12000
H 	H 	0.18200 0.56280 0.91200 0.12000
C 	C 	0.10700 0.59340 0.95530 0.06500
H 	H 	0.05910 0.59410 0.93820 -0.04300
H 	H 	0.10900 0.62180 0.97130 -0.04300
C 	C 	0.10000 0.55380 0.98620 -0.02300
H 	H 	0.10580 0.52510 0.97100 0.00800
H 	H 	0.14390 0.55560 0.00650 0.00800
C 	C 	0.02000 0.55440 0.00970 -0.42700
H 	H 	0.00710 0.52400 0.01920 0.13100
H 	H 	0.02340 0.57460 0.03350 0.12700
H 	H 	0.97840 0.56500 0.99100 0.12800
Sn	Sn	0.67604 0.98843 0.24411 1.24100
C 	C 	0.73800 0.04220 0.27350 -0.62700
H 	H 	0.75990 0.03080 0.29990 0.14000
H 	H 	0.70000 0.06620 0.28020 0.14500
C 	C 	0.80680 0.06350 0.24830 0.10700
H 	H 	0.85480 0.04530 0.25250 -0.05100
H 	H 	0.79340 0.06230 0.21860 -0.06800
C 	C 	0.82500 0.11320 0.26010 -0.06200
H 	H 	0.79890 0.12050 0.28650 0.02500
H 	H 	0.88270 0.11650 0.26430 0.02500
C 	C 	0.79700 0.14710 0.22620 -0.39600
H 	H 	0.80270 0.13320 0.19890 0.11800
H 	H 	0.74240 0.15510 0.23110 0.12500
H 	H 	0.83010 0.17430 0.22740 0.12300
C 	C 	0.58460 0.99020 0.20050 -0.61400
H 	H 	0.54560 0.96700 0.20840 0.12800
H 	H 	0.60680 0.98110 0.17350 0.11600
C 	C 	0.53980 0.03530 0.19420 0.06700
H 	H 	0.48390 0.02890 0.18810 -0.01700
H 	H 	0.54210 0.05310 0.22000 -0.05000
C 	C 	0.57600 0.06340 0.15800 -0.02900
H 	H 	0.61620 0.04530 0.14340 -0.00400
H 	H 	0.60210 0.09050 0.16920 0.00400
C 	C 	0.51000 0.07780 0.12670 -0.42100
H 	H 	0.45990 0.06490 0.13530 0.13300
H 	H 	0.50630 0.11070 0.12620 0.12700
H 	H 	0.52390 0.06690 0.09900 0.12500
C 	C 	0.68200 0.93500 0.28660 -0.60200
H 	H 	0.64760 0.94250 0.31010 0.12700
H 	H 	0.73680 0.93390 0.29740 0.12600
C 	C 	0.66000 0.88680 0.27150 0.01900
H 	H 	0.60380 0.88130 0.27680 -0.00900
H 	H 	0.66940 0.88470 0.24140 -0.05200
C 	C 	0.71000 0.84980 0.29400 0.09500
H 	H 	0.73520 0.86290 0.31890 -0.02600
H 	H 	0.75260 0.83930 0.27530 -0.03100
C 	C 	0.65800 0.80890 0.30700 -0.63700
H 	H 	0.61390 0.81950 0.32360 0.19700
H 	H 	0.63860 0.79370 0.28220 0.25000
H 	H 	0.69000 0.78780 0.32330 0.19200
Sn	Sn	0.68001 0.85585 0.12075 1.24000
C 	C 	0.77940 0.81970 0.14240 -0.61600
H 	H 	0.79100 0.83010 0.17080 0.13200
H 	H 	0.82490 0.82810 0.12490 0.12400
C 	C 	0.77460 0.76740 0.14330 0.08700
H 	H 	0.72660 0.75840 0.15850 -0.03900
H 	H 	0.76950 0.75620 0.11460 -0.04700
C 	C 	0.84700 0.74460 0.16390 -0.04800
H 	H 	0.89610 0.75650 0.15110 0.01800
H 	H 	0.84850 0.75240 0.19360 0.02200
C 	C 	0.84600 0.69230 0.15920 -0.39700
H 	H 	0.87460 0.68370 0.13410 0.12000
H 	H 	0.87150 0.67850 0.18330 0.12100
H 	H 	0.79160 0.68190 0.15730 0.12200
C 	C 	0.57330 0.85710 0.15330 -0.64600
H 	H 	0.53000 0.85530 0.13290 0.14700
H 	H 	0.56900 0.88670 0.16720 0.13500
C 	C 	0.55900 0.81990 0.18660 0.14500
H 	H 	0.58210 0.79120 0.17690 -0.06200
H 	H 	0.50170 0.81520 0.19010 -0.03800
C 	C 	0.59600 0.83270 0.22910 -0.19400
H 	H 	0.65390 0.82910 0.22760 0.05600
H 	H 	0.58460 0.86470 0.23520 0.05900
C 	C 	0.56300 0.80300 0.26490 -0.15300
H 	H 	0.59910 0.77770 0.27000 -0.02700
H 	H 	0.55770 0.82090 0.29000 0.04600
H 	H 	0.51130 0.79090 0.25700 0.05600
C 	C 	0.68000 0.90760 0.07410 -0.59700
H 	H 	0.72840 0.90450 0.05730 0.12100
H 	H 	0.68200 0.93720 0.08800 0.12000
C 	C 	0.60700 0.90660 0.04470 0.06900
H 	H 	0.55910 0.90590 0.06180 -0.04400
H 	H 	0.60900 0.87820 0.02870 -0.04400
C 	C 	0.60000 0.94620 0.01380 -0.02900
H 	H 	0.60580 0.97490 0.02900 0.01000
H 	H 	0.64390 0.94440 0.99350 0.01000
C 	C 	0.52000 0.94560 0.99030 -0.41800
H 	H 	0.50710 0.97600 0.98080 0.12900
H 	H 	0.52340 0.92540 0.96650 0.12500
H 	H 	0.47840 0.93500 0.00900 0.12500
Sn	Sn	0.82396 0.01157 0.74411 1.24100
C 	C 	0.76200 0.95780 0.77350 -0.62700
H 	H 	0.74010 0.96920 0.79990 0.14000
H 	H 	0.80000 0.93380 0.78020 0.14500
C 	C 	0.69320 0.93650 0.74830 0.10700
H 	H 	0.64520 0.95470 0.75250 -0.05100
H 	H 	0.70660 0.93770 0.71860 -0.06800
C 	C 	0.67500 0.88680 0.76010 -0.06200
H 	H 	0.70110 0.87950 0.78650 0.02500
H 	H 	0.61730 0.88350 0.76430 0.02500
C 	C 	0.70300 0.85290 0.72620 -0.39600
H 	H 	0.69730 0.86680 0.69890 0.11800
H 	H 	0.75760 0.84490 0.73110 0.12500
H 	H 	0.66990 0.82570 0.72740 0.12300
C 	C 	0.91540 0.00980 0.70050 -0.61300
H 	H 	0.95440 0.03300 0.70840 0.12700
H 	H 	0.89320 0.01890 0.67350 0.11600
C 	C 	0.96020 0.96470 0.69420 0.06700
H 	H 	0.01610 0.97110 0.68810 -0.01700
H 	H 	0.95790 0.94690 0.72000 -0.05000
C 	C 	0.92400 0.93660 0.65800 -0.02900
H 	H 	0.88380 0.95470 0.64340 -0.00400
H 	H 	0.89790 0.90950 0.66920 0.00400
C 	C 	0.99000 0.92220 0.62670 -0.42100
H 	H 	0.04010 0.93510 0.63530 0.13300
H 	H 	0.99370 0.88930 0.62620 0.12700
H 	H 	0.97610 0.93310 0.59900 0.12500
C 	C 	0.81800 0.06500 0.78660 -0.60200
H 	H 	0.85240 0.05750 0.81010 0.12700
H 	H 	0.76320 0.06610 0.79740 0.12600
C 	C 	0.84000 0.11320 0.77150 0.01900
H 	H 	0.89620 0.11870 0.77680 -0.00900
H 	H 	0.83060 0.11530 0.74140 -0.05200
C 	C 	0.79000 0.15020 0.79400 0.09500
H 	H 	0.76480 0.13710 0.81890 -0.02600
H 	H 	0.74740 0.16070 0.77530 -0.03100
C 	C 	0.84200 0.19110 0.80700 -0.63700
H 	H 	0.88610 0.18050 0.82360 0.19700
H 	H 	0.86140 0.20630 0.78220 0.25100
H 	H 	0.81000 0.21220 0.82330 0.19200
Sn	Sn	0.81999 0.14415 0.62075 1.24000
C 	C 	0.72060 0.18030 0.64240 -0.61600
H 	H 	0.70900 0.16990 0.67080 0.13200
H 	H 	0.67510 0.17190 0.62490 0.12400
C 	C 	0.72540 0.23260 0.64330 0.08700
H 	H 	0.77340 0.24160 0.65850 -0.03900
H 	H 	0.73050 0.24380 0.61460 -0.04700
C 	C 	0.65300 0.25540 0.66390 -0.04800
H 	H 	0.60390 0.24350 0.65110 0.01800
H 	H 	0.65150 0.24760 0.69360 0.02200
C 	C 	0.65400 0.30770 0.65920 -0.39700
H 	H 	0.62540 0.31630 0.63410 0.12000
H 	H 	0.62850 0.32150 0.68330 0.12100
H 	H 	0.70840 0.31810 0.65730 0.12200
C 	C 	0.92670 0.14290 0.65330 -0.64600
H 	H 	0.97000 0.14470 0.63290 0.14700
H 	H 	0.93100 0.11330 0.66720 0.13500
C 	C 	0.94100 0.18010 0.68660 0.14500
H 	H 	0.91790 0.20880 0.67690 -0.06200
H 	H 	0.99830 0.18480 0.69010 -0.03800
C 	C 	0.90400 0.16730 0.72910 -0.19400
H 	H 	0.84610 0.17090 0.72760 0.05600
H 	H 	0.91540 0.13530 0.73520 0.05900
C 	C 	0.93700 0.19700 0.76490 -0.15200
H 	H 	0.90090 0.22230 0.77000 -0.02700
H 	H 	0.94230 0.17910 0.79000 0.04600
H 	H 	0.98870 0.20910 0.75700 0.05600
C 	C 	0.82000 0.09240 0.57410 -0.59500
H 	H 	0.77160 0.09550 0.55730 0.12100
H 	H 	0.81800 0.06280 0.58800 0.12000
C 	C 	0.89300 0.09340 0.54470 0.06600
H 	H 	0.94090 0.09410 0.56180 -0.04300
H 	H 	0.89100 0.12180 0.52870 -0.04300
C 	C 	0.90000 0.05380 0.51380 -0.02400
H 	H 	0.89420 0.02510 0.52900 0.00800
H 	H 	0.85610 0.05560 0.49350 0.00800
C 	C 	0.98000 0.05440 0.49030 -0.42500
H 	H 	0.99290 0.02400 0.48080 0.13100
H 	H 	0.97660 0.07460 0.46650 0.12700
H 	H 	0.02160 0.06500 0.50900 0.12800
