data_crystal

_cell_length_a 7.79650
_cell_length_b 9.57430
_cell_length_c 11.46400
_cell_angle_alpha 91.93000
_cell_angle_beta  105.87000
_cell_angle_gamma 103.38000

_symmetry_space_group_name_	'P 1'
_symmetry_space_group_name_H-M	'P 1'

loop_
_symmetry_equiv_pos_as_xyz
  x,y,z

loop_
_atom_site_label
_atom_site_type_symbol
_atom_site_fract_x
_atom_site_fract_y
_atom_site_fract_z
_atom_site_charge
Pr	Pr	0.71366 0.42010 0.48220 2.07600
Pr	Pr	0.28634 0.57990 0.51780 2.07600
H 	H 	0.94980 0.26070 0.31200 -0.01900
H 	H 	0.01790 0.05760 0.24790 0.07600
H 	H 	0.89280 0.83660 0.30710 0.01200
H 	H 	0.64780 0.04290 0.49620 0.00700
H 	H 	0.26780 0.41100 0.80920 0.15300
H 	H 	0.20850 0.54550 0.85020 0.15200
H 	H 	0.00460 0.38860 0.93980 0.03300
H 	H 	0.08710 0.26200 0.90870 0.03500
H 	H 	0.30760 0.51550 0.06090 0.02400
H 	H 	0.37650 0.37860 0.03770 0.03200
H 	H 	0.17440 0.24580 0.13950 0.15300
H 	H 	0.12000 0.38800 0.16880 0.15300
H 	H 	0.05020 0.73930 0.68800 -0.01800
H 	H 	0.98210 0.94240 0.75210 0.07700
H 	H 	0.10720 0.16340 0.69290 0.01200
H 	H 	0.35220 0.95710 0.50380 0.00700
H 	H 	0.73220 0.58900 0.19080 0.15300
H 	H 	0.79150 0.45450 0.14980 0.15200
H 	H 	0.99540 0.61140 0.06020 0.03300
H 	H 	0.91290 0.73800 0.09130 0.03500
H 	H 	0.69240 0.48450 0.93910 0.02400
H 	H 	0.62350 0.62140 0.96230 0.03200
H 	H 	0.82560 0.75420 0.86050 0.15300
H 	H 	0.88000 0.61200 0.83120 0.15300
C 	C 	0.90090 0.17330 0.33780 0.08700
C 	C 	0.94100 0.05170 0.29790 -0.14800
C 	C 	0.86620 0.92030 0.33270 0.08800
C 	C 	0.75160 0.91490 0.40600 -0.17000
C 	C 	0.72220 0.04530 0.44480 0.10500
C 	C 	0.66210 0.77430 0.44290 0.43800
C 	C 	0.01370 0.41970 0.70630 0.43300
C 	C 	0.16570 0.44280 0.82440 -0.40100
C 	C 	0.11430 0.36560 0.92870 -0.00100
C 	C 	0.27130 0.41100 0.04660 0.01100
C 	C 	0.21910 0.34990 0.15600 -0.41200
C 	C 	0.38050 0.38680 0.27050 0.47800
C 	C 	0.09910 0.82670 0.66220 0.08700
C 	C 	0.05900 0.94830 0.70210 -0.14800
C 	C 	0.13380 0.07970 0.66730 0.08800
C 	C 	0.24840 0.08510 0.59400 -0.17000
C 	C 	0.27780 0.95470 0.55520 0.10500
C 	C 	0.33790 0.22570 0.55710 0.43800
C 	C 	0.98630 0.58030 0.29370 0.43300
C 	C 	0.83430 0.55720 0.17560 -0.40100
C 	C 	0.88570 0.63440 0.07130 -0.00100
C 	C 	0.72870 0.58900 0.95340 0.01100
C 	C 	0.78090 0.65010 0.84400 -0.41200
C 	C 	0.61950 0.61320 0.72950 0.47800
N 	N 	0.79500 0.17280 0.41200 -0.23500
N 	N 	0.20500 0.82720 0.58800 -0.23500
O 	O 	0.04070 0.50270 0.62320 -0.61800
O 	O 	0.86500 0.32760 0.68650 -0.43800
O 	O 	0.36810 0.45200 0.36480 -0.61300
O 	O 	0.52460 0.35120 0.26950 -0.49600
O 	O 	0.52670 0.77050 0.48310 -0.49600
O 	O 	0.72890 0.66870 0.42920 -0.50000
O 	O 	0.95930 0.49730 0.37680 -0.61800
O 	O 	0.13500 0.67240 0.31350 -0.43800
O 	O 	0.63190 0.54800 0.63520 -0.61300
O 	O 	0.47540 0.64880 0.73050 -0.49600
O 	O 	0.47330 0.22950 0.51690 -0.49600
O 	O 	0.27110 0.33130 0.57080 -0.50000
