data_crystal

_cell_length_a 8.99500
_cell_length_b 23.48500
_cell_length_c 23.48500
_cell_angle_alpha 90.00000
_cell_angle_beta  90.00000
_cell_angle_gamma 90.00000

_symmetry_space_group_name_	'P 1'
_symmetry_space_group_name_H-M	'P 1'

loop_
_symmetry_equiv_pos_as_xyz
  x,y,z

loop_
_atom_site_label
_atom_site_type_symbol
_atom_site_fract_x
_atom_site_fract_y
_atom_site_fract_z
_atom_site_charge
Cu	Cu	0.50000 0.17664 0.17664 0.85300
Cu	Cu	0.50000 0.82336 0.82336 0.85300
Cu	Cu	0.00000 0.32336 0.67664 0.83900
Cu	Cu	0.00000 0.67664 0.32336 0.83900
C 	C 	0.23280 0.16410 0.10659 0.02100
C 	C 	0.14340 0.15420 0.06011 -0.03500
C 	C 	0.21380 0.14690 0.00708 -0.08000
C 	C 	0.37330 0.14745 0.00526 0.14000
C 	C 	0.44680 0.15351 0.05599 -0.03400
C 	C 	0.38420 0.13598 0.90768 0.10500
C 	C 	0.10610 0.20920 0.64390 0.00100
C 	C 	0.19000 0.16070 0.64920 -0.02000
C 	C 	0.26890 0.14945 0.69983 -0.09500
C 	C 	0.26010 0.18609 0.74158 0.13400
C 	C 	0.17690 0.23770 0.73397 -0.02000
C 	C 	0.42700 0.13298 0.80209 0.08300
C 	C 	0.23280 0.83590 0.89341 0.02100
C 	C 	0.14340 0.84580 0.93989 -0.03500
C 	C 	0.21380 0.85310 0.99292 -0.08000
C 	C 	0.37330 0.85255 0.99474 0.14000
C 	C 	0.44680 0.84649 0.94401 -0.03400
C 	C 	0.38420 0.86402 0.09232 0.10500
C 	C 	0.10610 0.79080 0.35610 0.00100
C 	C 	0.19000 0.83930 0.35080 -0.02000
C 	C 	0.26890 0.85055 0.30017 -0.09500
C 	C 	0.26010 0.81391 0.25842 0.13400
C 	C 	0.17690 0.76230 0.26603 -0.02000
C 	C 	0.42700 0.86702 0.19791 0.08300
C 	C 	0.73280 0.39341 0.66410 0.02800
C 	C 	0.64340 0.43989 0.65420 -0.03200
C 	C 	0.71380 0.49292 0.64690 -0.07000
C 	C 	0.87330 0.49474 0.64745 0.13100
C 	C 	0.94680 0.44401 0.65351 0.00800
C 	C 	0.88420 0.59232 0.63598 0.14100
C 	C 	0.60610 0.85610 0.70920 0.00500
C 	C 	0.69000 0.85080 0.66070 -0.01600
C 	C 	0.76890 0.80017 0.64945 -0.09200
C 	C 	0.76010 0.75842 0.68609 0.13900
C 	C 	0.67690 0.76603 0.73770 -0.01500
C 	C 	0.92700 0.69791 0.63298 0.12300
C 	C 	0.73280 0.60659 0.33590 0.02800
C 	C 	0.64340 0.56011 0.34580 -0.03200
C 	C 	0.71380 0.50708 0.35310 -0.07000
C 	C 	0.87330 0.50526 0.35255 0.13100
C 	C 	0.94680 0.55599 0.34649 0.00800
C 	C 	0.88420 0.40768 0.36402 0.14100
C 	C 	0.60610 0.14390 0.29080 0.00500
C 	C 	0.69000 0.14920 0.33930 -0.01600
C 	C 	0.76890 0.19983 0.35055 -0.09200
C 	C 	0.76010 0.24158 0.31391 0.13900
C 	C 	0.67690 0.23397 0.26230 -0.01500
C 	C 	0.92700 0.30209 0.36702 0.12300
C 	C 	0.26720 0.33590 0.60659 0.01700
C 	C 	0.35660 0.34580 0.56011 -0.00900
C 	C 	0.28620 0.35310 0.50708 -0.04400
C 	C 	0.12670 0.35255 0.50526 0.14200
C 	C 	0.05320 0.34649 0.55599 -0.07000
C 	C 	0.11580 0.36402 0.40768 0.11400
C 	C 	0.39390 0.29080 0.14390 0.00400
C 	C 	0.31000 0.33930 0.14920 -0.01900
C 	C 	0.23110 0.35055 0.19983 -0.09500
C 	C 	0.23990 0.31391 0.24158 0.13500
C 	C 	0.32310 0.26230 0.23397 -0.01800
C 	C 	0.07300 0.36702 0.30209 0.09000
C 	C 	0.26720 0.66410 0.39341 0.01700
C 	C 	0.35660 0.65420 0.43989 -0.00900
C 	C 	0.28620 0.64690 0.49292 -0.04400
C 	C 	0.12670 0.64745 0.49474 0.14200
C 	C 	0.05320 0.65351 0.44401 -0.07000
C 	C 	0.11580 0.63598 0.59232 0.11400
C 	C 	0.39390 0.70920 0.85610 0.00400
C 	C 	0.31000 0.66070 0.85080 -0.01900
C 	C 	0.23110 0.64945 0.80017 -0.09500
C 	C 	0.23990 0.68609 0.75842 0.13500
C 	C 	0.32310 0.73770 0.76603 -0.01800
C 	C 	0.07300 0.63298 0.69791 0.09000
C 	C 	0.76720 0.10659 0.16410 0.02700
C 	C 	0.85660 0.06011 0.15420 -0.02700
C 	C 	0.78620 0.00708 0.14690 -0.07500
C 	C 	0.62670 0.00526 0.14745 0.14200
C 	C 	0.55320 0.05599 0.15351 -0.03300
C 	C 	0.61580 0.90768 0.13598 0.10700
C 	C 	0.89390 0.64390 0.20920 0.00900
C 	C 	0.81000 0.64920 0.16070 -0.01600
C 	C 	0.73110 0.69983 0.14945 -0.09100
C 	C 	0.73990 0.74158 0.18609 0.13700
C 	C 	0.82310 0.73397 0.23770 -0.01200
C 	C 	0.57300 0.80209 0.13298 0.08400
C 	C 	0.76720 0.89341 0.83590 0.02700
C 	C 	0.85660 0.93989 0.84580 -0.02700
C 	C 	0.78620 0.99292 0.85310 -0.07500
C 	C 	0.62670 0.99474 0.85255 0.14200
C 	C 	0.55320 0.94401 0.84649 -0.03300
C 	C 	0.61580 0.09232 0.86402 0.10700
C 	C 	0.89390 0.35610 0.79080 0.00900
C 	C 	0.81000 0.35080 0.83930 -0.01600
C 	C 	0.73110 0.30017 0.85055 -0.09100
C 	C 	0.73990 0.25842 0.81391 0.13700
C 	C 	0.82310 0.26603 0.76230 -0.01200
C 	C 	0.57300 0.19791 0.86702 0.08400
C 	C 	0.50000 0.14119 0.85881 -0.05800
C 	C 	0.50000 0.85881 0.14119 -0.05800
C 	C 	0.00000 0.64119 0.64119 -0.11400
C 	C 	0.00000 0.35881 0.35881 -0.11400
N 	N 	0.37890 0.16157 0.10624 -0.21100
N 	N 	0.10610 0.24804 0.68770 -0.21200
N 	N 	0.37890 0.83843 0.89376 -0.21100
N 	N 	0.10610 0.75196 0.31230 -0.21200
N 	N 	0.87890 0.39376 0.66157 -0.21000
N 	N 	0.60610 0.81230 0.74804 -0.20800
N 	N 	0.87890 0.60624 0.33843 -0.21000
N 	N 	0.60610 0.18770 0.25196 -0.20800
N 	N 	0.12110 0.33843 0.60624 -0.20900
N 	N 	0.39390 0.25196 0.18770 -0.20900
N 	N 	0.12110 0.66157 0.39376 -0.20900
N 	N 	0.39390 0.74804 0.81230 -0.20900
N 	N 	0.62110 0.10624 0.16157 -0.21100
N 	N 	0.89390 0.68770 0.24804 -0.20100
N 	N 	0.62110 0.89376 0.83843 -0.21100
N 	N 	0.89390 0.31230 0.75196 -0.20100
O 	O 	0.45600 0.14083 0.95870 -0.23400
O 	O 	0.32890 0.18273 0.79356 -0.21900
O 	O 	0.45600 0.85917 0.04130 -0.23400
O 	O 	0.32890 0.81727 0.20644 -0.21900
O 	O 	0.95600 0.54130 0.64083 -0.22200
O 	O 	0.82890 0.70644 0.68273 -0.21500
O 	O 	0.95600 0.45870 0.35917 -0.22200
O 	O 	0.82890 0.29356 0.31727 -0.21500
O 	O 	0.04400 0.35917 0.45870 -0.25000
O 	O 	0.17110 0.31727 0.29356 -0.22300
O 	O 	0.04400 0.64083 0.54130 -0.25000
O 	O 	0.17110 0.68273 0.70644 -0.22300
O 	O 	0.54400 0.95870 0.14083 -0.23600
O 	O 	0.67110 0.79356 0.18273 -0.21400
O 	O 	0.54400 0.04130 0.85917 -0.23600
O 	O 	0.67110 0.20644 0.81727 -0.21400
H 	H 	0.18092 0.17546 0.14940 -0.00700
H 	H 	0.01755 0.15219 0.06546 0.02000
H 	H 	0.14429 0.14075 0.96696 0.04400
H 	H 	0.57342 0.15183 0.05719 0.02900
H 	H 	0.26168 0.12923 0.89725 0.01100
H 	H 	0.03795 0.21674 0.60368 -0.00200
H 	H 	0.19636 0.12907 0.61246 0.02500
H 	H 	0.33852 0.10907 0.70372 0.05000
H 	H 	0.17264 0.27069 0.76954 0.01600
H 	H 	0.45343 0.09365 0.77551 0.02000
H 	H 	0.18092 0.82454 0.85060 -0.00700
H 	H 	0.01755 0.84781 0.93454 0.02000
H 	H 	0.14429 0.85925 0.03304 0.04400
H 	H 	0.57342 0.84817 0.94281 0.02900
H 	H 	0.26168 0.87077 0.10275 0.01100
H 	H 	0.03795 0.78326 0.39632 -0.00200
H 	H 	0.19636 0.87093 0.38754 0.02500
H 	H 	0.33852 0.89093 0.29628 0.05000
H 	H 	0.17264 0.72931 0.23046 0.01600
H 	H 	0.45343 0.90635 0.22449 0.02000
H 	H 	0.68092 0.35060 0.67546 0.00100
H 	H 	0.51755 0.43454 0.65219 0.03300
H 	H 	0.64429 0.53304 0.64075 0.05100
H 	H 	0.07342 0.44281 0.65183 0.00000
H 	H 	0.76168 0.60275 0.62923 0.01100
H 	H 	0.53795 0.89632 0.71674 0.00400
H 	H 	0.69636 0.88754 0.62907 0.03100
H 	H 	0.83852 0.79628 0.60907 0.05600
H 	H 	0.67264 0.73046 0.77069 0.02500
H 	H 	0.95343 0.72449 0.59365 0.02400
H 	H 	0.68092 0.64940 0.32454 0.00100
H 	H 	0.51755 0.56546 0.34781 0.03300
H 	H 	0.64429 0.46696 0.35925 0.05100
H 	H 	0.07342 0.55719 0.34817 0.00000
H 	H 	0.76168 0.39725 0.37077 0.01100
H 	H 	0.53795 0.10368 0.28326 0.00400
H 	H 	0.69636 0.11246 0.37093 0.03100
H 	H 	0.83852 0.20372 0.39093 0.05600
H 	H 	0.67264 0.26954 0.22931 0.02500
H 	H 	0.95343 0.27551 0.40635 0.02400
H 	H 	0.92658 0.34817 0.55719 0.05600
H 	H 	0.23832 0.37077 0.39725 0.01800
H 	H 	0.46205 0.28326 0.10368 0.00600
H 	H 	0.30364 0.37093 0.11246 0.02500
H 	H 	0.16148 0.39093 0.20372 0.04600
H 	H 	0.32736 0.22931 0.26954 0.02000
H 	H 	0.04657 0.40635 0.27551 0.00800
H 	H 	0.92658 0.65183 0.44281 0.05600
H 	H 	0.23832 0.62923 0.60275 0.01800
H 	H 	0.46205 0.71674 0.89632 0.00600
H 	H 	0.30364 0.62907 0.88754 0.02500
H 	H 	0.16148 0.60907 0.79628 0.04600
H 	H 	0.32736 0.77069 0.73046 0.02000
H 	H 	0.04657 0.59365 0.72449 0.00800
H 	H 	0.81908 0.14940 0.17546 0.00500
H 	H 	0.98245 0.06546 0.15219 0.04200
H 	H 	0.85571 0.96696 0.14075 0.05600
H 	H 	0.42658 0.05719 0.15183 0.02400
H 	H 	0.73832 0.89725 0.12923 0.01900
H 	H 	0.96205 0.60368 0.21674 0.01300
H 	H 	0.80364 0.61246 0.12907 0.03200
H 	H 	0.66148 0.70372 0.10907 0.05200
H 	H 	0.82736 0.76954 0.27069 0.03000
H 	H 	0.54657 0.77551 0.09365 0.02100
H 	H 	0.81908 0.85060 0.82454 0.00500
H 	H 	0.98245 0.93454 0.84781 0.04200
H 	H 	0.85571 0.03304 0.85925 0.05600
H 	H 	0.42658 0.94281 0.84817 0.02400
H 	H 	0.73832 0.10275 0.87077 0.01900
H 	H 	0.96205 0.39632 0.78326 0.01300
H 	H 	0.80364 0.38754 0.87093 0.03200
H 	H 	0.66148 0.29628 0.89093 0.05200
H 	H 	0.82736 0.23046 0.72931 0.03000
H 	H 	0.54657 0.22449 0.90635 0.02100
