data_crystal

_cell_length_a 11.05520
_cell_length_b 11.07130
_cell_length_c 17.64880
_cell_angle_alpha 93.08400
_cell_angle_beta  104.42900
_cell_angle_gamma 119.03200

_symmetry_space_group_name_	'P 1'
_symmetry_space_group_name_H-M	'P 1'

loop_
_symmetry_equiv_pos_as_xyz
  x,y,z

loop_
_atom_site_label
_atom_site_type_symbol
_atom_site_fract_x
_atom_site_fract_y
_atom_site_fract_z
_atom_site_charge
Eu	Eu	0.32056 0.39764 0.37876 1.98600
Eu	Eu	0.00114 0.10577 0.09493 1.98200
Eu	Eu	0.67944 0.60236 0.62124 1.98600
Eu	Eu	0.99886 0.89423 0.90507 1.98200
H 	H 	0.33200 0.92450 0.23360 0.03700
H 	H 	0.36580 0.73660 0.26380 0.03500
H 	H 	0.00940 0.46840 0.07500 0.01400
H 	H 	0.98080 0.65760 0.04190 0.02000
H 	H 	0.40260 0.32490 0.70540 0.04000
H 	H 	0.28160 0.14540 0.76910 0.03500
H 	H 	0.90650 0.97980 0.58360 0.03200
H 	H 	0.02790 0.15680 0.51690 0.04500
H 	H 	0.65410 0.18080 0.61280 0.03700
H 	H 	0.34240 0.02610 0.39700 0.03600
H 	H 	0.54570 0.54320 0.87770 0.03800
H 	H 	0.64890 0.67100 0.11640 0.03800
H 	H 	0.66800 0.07550 0.76640 0.03600
H 	H 	0.63420 0.26340 0.73620 0.03400
H 	H 	0.99060 0.53160 0.92500 0.01300
H 	H 	0.01920 0.34240 0.95810 0.01900
H 	H 	0.59740 0.67510 0.29460 0.04000
H 	H 	0.71840 0.85460 0.23090 0.03500
H 	H 	0.09350 0.02020 0.41640 0.03200
H 	H 	0.97210 0.84320 0.48310 0.04500
H 	H 	0.34590 0.81920 0.38720 0.03700
H 	H 	0.65760 0.97390 0.60300 0.03600
H 	H 	0.45430 0.45680 0.12230 0.03800
H 	H 	0.35110 0.32900 0.88360 0.03800
C 	C 	0.11710 0.92010 0.11860 0.40900
C 	C 	0.15120 0.80750 0.13600 -0.11400
C 	C 	0.26710 0.83240 0.20130 -0.01700
C 	C 	0.28730 0.72070 0.21910 -0.00400
C 	C 	0.19150 0.58470 0.17090 -0.13700
C 	C 	0.07600 0.56090 0.10650 0.00400
C 	C 	0.05750 0.67300 0.08770 -0.02300
C 	C 	0.20460 0.46290 0.19680 0.46100
C 	C 	0.30120 0.37420 0.56080 0.44600
C 	C 	0.22690 0.26090 0.60680 -0.10000
C 	C 	0.30250 0.25580 0.68070 -0.02000
C 	C 	0.23020 0.14880 0.71810 0.00200
C 	C 	0.08290 0.04500 0.68260 -0.13000
C 	C 	0.00680 0.04910 0.60780 0.00800
C 	C 	0.07820 0.15510 0.56870 -0.02700
C 	C 	0.00750 0.92540 0.72190 0.46000
C 	C 	0.50340 0.26600 0.51060 0.45400
C 	C 	0.50090 0.12790 0.50440 -0.11500
C 	C 	0.59190 0.10800 0.56650 -0.00800
C 	C 	0.40780 0.01620 0.43900 -0.00900
C 	C 	0.73700 0.77020 0.99500 0.42600
C 	C 	0.61500 0.62860 0.99790 -0.11200
C 	C 	0.52710 0.52600 0.92700 -0.01400
C 	C 	0.58740 0.60090 0.06890 -0.00900
C 	C 	0.88290 0.07990 0.88140 0.40900
C 	C 	0.84880 0.19250 0.86400 -0.11400
C 	C 	0.73290 0.16760 0.79870 -0.01700
C 	C 	0.71270 0.27930 0.78090 -0.00400
C 	C 	0.80850 0.41530 0.82910 -0.13700
C 	C 	0.92400 0.43910 0.89350 0.00400
C 	C 	0.94250 0.32700 0.91230 -0.02300
C 	C 	0.79540 0.53710 0.80320 0.46100
C 	C 	0.69880 0.62580 0.43920 0.44600
C 	C 	0.77310 0.73910 0.39320 -0.10000
C 	C 	0.69750 0.74420 0.31930 -0.02000
C 	C 	0.76980 0.85120 0.28190 0.00200
C 	C 	0.91710 0.95500 0.31740 -0.13000
C 	C 	0.99320 0.95090 0.39220 0.00800
C 	C 	0.92180 0.84490 0.43130 -0.02700
C 	C 	0.99250 0.07460 0.27810 0.46000
C 	C 	0.49660 0.73400 0.48940 0.45400
C 	C 	0.49910 0.87210 0.49560 -0.11500
C 	C 	0.40810 0.89200 0.43350 -0.00800
C 	C 	0.59220 0.98380 0.56100 -0.00900
C 	C 	0.26300 0.22980 0.00500 0.42600
C 	C 	0.38500 0.37140 0.00210 -0.11200
C 	C 	0.47290 0.47400 0.07300 -0.01400
C 	C 	0.41260 0.39910 0.93110 -0.00900
O 	O 	0.14430 0.01180 0.17480 -0.45400
O 	O 	0.05570 0.91700 0.04660 -0.59600
O 	O 	0.30560 0.48800 0.25820 -0.51900
O 	O 	0.10980 0.34040 0.15340 -0.55000
O 	O 	0.22830 0.36440 0.49030 -0.49100
O 	O 	0.42950 0.47090 0.59830 -0.53300
O 	O 	0.87900 0.82730 0.68240 -0.54400
O 	O 	0.07830 0.93030 0.79280 -0.51300
O 	O 	0.40510 0.26820 0.45530 -0.50700
O 	O 	0.60440 0.36590 0.56580 -0.50700
O 	O 	0.79090 0.87310 0.05400 -0.48700
O 	O 	0.77860 0.77740 0.93440 -0.50300
O 	O 	0.85570 0.98820 0.82520 -0.45400
O 	O 	0.94430 0.08300 0.95340 -0.59600
O 	O 	0.69440 0.51200 0.74180 -0.51900
O 	O 	0.89020 0.65960 0.84660 -0.55000
O 	O 	0.77170 0.63560 0.50970 -0.49100
O 	O 	0.57050 0.52910 0.40170 -0.53300
O 	O 	0.12100 0.17270 0.31760 -0.54400
O 	O 	0.92170 0.06970 0.20720 -0.51300
O 	O 	0.59490 0.73180 0.54470 -0.50700
O 	O 	0.39560 0.63410 0.43420 -0.50700
O 	O 	0.20910 0.12690 0.94600 -0.48700
O 	O 	0.22140 0.22260 0.06560 -0.50300
