data_crystal

_cell_length_a 8.22930
_cell_length_b 9.73860
_cell_length_c 9.75430
_cell_angle_alpha 60.74100
_cell_angle_beta  72.35700
_cell_angle_gamma 84.66600

_symmetry_space_group_name_	'P 1'
_symmetry_space_group_name_H-M	'P 1'

loop_
_symmetry_equiv_pos_as_xyz
  x,y,z

loop_
_atom_site_label
_atom_site_type_symbol
_atom_site_fract_x
_atom_site_fract_y
_atom_site_fract_z
_atom_site_charge
Y 	Y 	0.67040 0.84130 0.78680 2.38000
O 	O 	0.69020 0.90680 0.98810 -0.48500
O 	O 	0.47000 0.66050 0.03690 -0.47800
O 	O 	0.88170 0.82840 0.56140 -0.45100
O 	O 	0.56020 0.00820 0.15320 -0.45600
O 	O 	0.46320 0.81200 0.67320 -0.45500
O 	O 	0.08690 0.97200 0.32890 -0.44400
O 	O 	0.32980 0.42230 0.18110 -0.46200
O 	O 	0.34040 0.92170 0.47020 -0.43400
C 	C 	0.44300 0.92350 0.54110 0.24000
C 	C 	0.57290 0.97600 0.03920 0.24700
C 	C 	0.99290 0.94350 0.46740 0.22400
C 	C 	0.44190 0.52400 0.06350 0.23300
Y 	Y 	0.32960 0.15870 0.21320 2.38100
O 	O 	0.30980 0.09320 0.01190 -0.48400
O 	O 	0.53000 0.33950 0.96310 -0.47800
O 	O 	0.11830 0.17160 0.43860 -0.45100
O 	O 	0.43980 0.99180 0.84680 -0.45600
O 	O 	0.53680 0.18800 0.32680 -0.45500
O 	O 	0.91310 0.02800 0.67110 -0.44400
O 	O 	0.67020 0.57770 0.81890 -0.46200
O 	O 	0.65960 0.07830 0.52980 -0.43400
C 	C 	0.55700 0.07650 0.45890 0.24000
C 	C 	0.42710 0.02400 0.96080 0.24700
C 	C 	0.00710 0.05650 0.53260 0.22400
C 	C 	0.55810 0.47600 0.93650 0.23300
N 	N 	0.98780 0.36550 0.65330 -0.26100
C 	C 	0.83380 0.42210 0.58920 -0.31600
C 	C 	0.15040 0.40860 0.51840 0.42400
C 	C 	0.29990 0.35000 0.58140 -1.00200
H 	H 	0.99220 0.40810 0.71590 0.12200
H 	H 	0.97540 0.26000 0.71720 0.14500
H 	H 	0.82300 0.36950 0.52950 0.13500
H 	H 	0.73100 0.39430 0.68140 0.14800
H 	H 	0.14400 0.35840 0.45400 -0.05800
H 	H 	0.28370 0.23770 0.65180 0.35100
H 	H 	0.40150 0.37470 0.49060 0.33500
H 	H 	0.31130 0.39950 0.64260 0.31700
N 	N 	0.01220 0.63450 0.34670 -0.26100
C 	C 	0.16620 0.57790 0.41080 -0.31600
C 	C 	0.84960 0.59140 0.48160 0.42400
C 	C 	0.70010 0.65000 0.41860 -1.00200
H 	H 	0.00780 0.59190 0.28410 0.12200
H 	H 	0.02460 0.74000 0.28280 0.14500
H 	H 	0.17700 0.63050 0.47050 0.13500
H 	H 	0.26900 0.60570 0.31860 0.14800
H 	H 	0.85600 0.64160 0.54600 -0.05800
H 	H 	0.71630 0.76230 0.34820 0.35100
H 	H 	0.59850 0.62530 0.50940 0.33500
H 	H 	0.68870 0.60050 0.35740 0.31700
