data_crystal

_cell_length_a 13.94100
_cell_length_b 15.07500
_cell_length_c 15.07500
_cell_angle_alpha 82.15000
_cell_angle_beta  87.23000
_cell_angle_gamma 87.23000

_symmetry_space_group_name_	'P 1'
_symmetry_space_group_name_H-M	'P 1'

loop_
_symmetry_equiv_pos_as_xyz
  x,y,z

loop_
_atom_site_label
_atom_site_type_symbol
_atom_site_fract_x
_atom_site_fract_y
_atom_site_fract_z
_atom_site_charge
Cu	Cu	0.79398 0.15934 0.38270 0.92000
Cu	Cu	0.60497 0.16514 0.38993 0.92200
H 	H 	0.83950 0.11930 0.66680 0.01700
H 	H 	0.83650 0.10870 0.82630 0.07800
H 	H 	0.56310 0.20810 0.81350 0.08900
H 	H 	0.56450 0.19000 0.67360 0.00400
H 	H 	0.84500 0.10660 0.95230 0.05400
H 	H 	0.84450 0.11210 0.10900 0.04100
H 	H 	0.57370 0.24340 0.10110 0.04200
H 	H 	0.57330 0.22880 0.94980 0.05500
H 	H 	0.55030 0.88530 0.43340 0.04900
H 	H 	0.55290 0.73120 0.43490 0.06200
H 	H 	0.83620 0.72400 0.34100 0.05600
H 	H 	0.84020 0.87830 0.34330 0.04000
H 	H 	0.57520 0.58760 0.46780 0.07900
H 	H 	0.56890 0.43940 0.45080 0.01100
H 	H 	0.82530 0.44600 0.31370 0.03000
H 	H 	0.82800 0.60110 0.32250 0.06700
H 	H 	0.42940 0.29610 0.34550 0.01800
H 	H 	0.26800 0.30050 0.33700 0.07200
H 	H 	0.27750 0.03000 0.40880 0.08000
H 	H 	0.44080 0.03720 0.40820 0.02200
H 	H 	0.12340 0.28090 0.28840 0.07300
H 	H 	0.95850 0.27580 0.29780 0.01500
H 	H 	0.96490 0.05570 0.46680 0.00400
H 	H 	0.13270 0.04930 0.46230 0.08800
C 	C 	0.70160 0.15400 0.55470 0.38900
C 	C 	0.70260 0.15580 0.65350 -0.16900
C 	C 	0.78170 0.13410 0.69860 0.08300
C 	C 	0.78220 0.13300 0.79380 -0.14400
C 	C 	0.70480 0.16530 0.83570 0.09000
C 	C 	0.62100 0.18700 0.78500 -0.17200
C 	C 	0.62300 0.17900 0.70400 0.12100
C 	C 	0.70650 0.16890 0.93500 0.00700
C 	C 	0.79200 0.13200 0.98300 -0.07300
C 	C 	0.79100 0.13600 0.07500 0.01600
C 	C 	0.70900 0.17570 0.11940 -0.09400
C 	C 	0.62600 0.21500 0.07200 0.01400
C 	C 	0.62800 0.20700 0.98200 -0.07000
C 	C 	0.70520 0.17480 0.21730 0.36800
C 	C 	0.70020 0.99470 0.39150 0.37700
C 	C 	0.69930 0.89550 0.39370 -0.09500
C 	C 	0.60700 0.85200 0.41800 0.01600
C 	C 	0.61000 0.76250 0.41800 -0.07400
C 	C 	0.69620 0.71110 0.39140 0.01600
C 	C 	0.78100 0.75600 0.36200 -0.07600
C 	C 	0.78400 0.84700 0.36300 0.01600
C 	C 	0.69380 0.61220 0.39140 0.06200
C 	C 	0.62400 0.56100 0.43300 -0.13800
C 	C 	0.62300 0.47110 0.42600 0.08700
C 	C 	0.69010 0.42710 0.38710 -0.14400
C 	C 	0.77400 0.47610 0.34330 0.04600
C 	C 	0.77500 0.56760 0.34770 -0.10700
C 	C 	0.69110 0.33030 0.38330 0.39300
C 	C 	0.39770 0.24120 0.35910 0.07200
C 	C 	0.30190 0.24510 0.35440 -0.12000
C 	C 	0.25240 0.16500 0.37600 0.05200
C 	C 	0.30680 0.08620 0.39590 -0.12000
C 	C 	0.40500 0.09210 0.39600 0.08000
C 	C 	0.14720 0.16410 0.37590 0.06000
C 	C 	0.09290 0.23310 0.32500 -0.12500
C 	C 	0.99520 0.22870 0.33050 0.07600
C 	C 	0.99790 0.10060 0.42830 0.09200
C 	C 	0.09870 0.09700 0.42770 -0.13500
N 	N 	0.45390 0.16540 0.38150 -0.19300
N 	N 	0.94690 0.16130 0.37960 -0.19300
O 	O 	0.78030 0.14930 0.51190 -0.41700
O 	O 	0.62160 0.15450 0.51990 -0.41300
O 	O 	0.78680 0.16910 0.25270 -0.39400
O 	O 	0.62790 0.17960 0.25930 -0.40800
O 	O 	0.62420 0.03640 0.39620 -0.42400
O 	O 	0.78210 0.02920 0.38880 -0.40200
O 	O 	0.61220 0.29400 0.38540 -0.41200
O 	O 	0.77070 0.29030 0.37730 -0.41100
Cu	Cu	0.20602 0.84066 0.61730 0.92100
Cu	Cu	0.39503 0.83486 0.61007 0.92300
H 	H 	0.16050 0.88070 0.33320 0.01800
H 	H 	0.16350 0.89130 0.17370 0.07900
H 	H 	0.43690 0.79190 0.18650 0.08900
H 	H 	0.43550 0.81000 0.32640 0.00400
H 	H 	0.15500 0.89340 0.04770 0.05400
H 	H 	0.15550 0.88790 0.89100 0.04100
H 	H 	0.42630 0.75660 0.89890 0.04200
H 	H 	0.42670 0.77120 0.05020 0.05500
H 	H 	0.44970 0.11470 0.56660 0.04900
H 	H 	0.44710 0.26880 0.56510 0.06200
H 	H 	0.16380 0.27600 0.65900 0.05600
H 	H 	0.15980 0.12170 0.65670 0.04000
H 	H 	0.42480 0.41240 0.53220 0.07900
H 	H 	0.43110 0.56060 0.54920 0.01100
H 	H 	0.17470 0.55400 0.68630 0.03000
H 	H 	0.17200 0.39890 0.67750 0.06700
H 	H 	0.57060 0.70390 0.65450 0.01800
H 	H 	0.73200 0.69950 0.66300 0.07200
H 	H 	0.72250 0.97000 0.59120 0.08000
H 	H 	0.55920 0.96280 0.59180 0.02200
H 	H 	0.87660 0.71910 0.71160 0.07300
H 	H 	0.04150 0.72420 0.70220 0.01500
H 	H 	0.03510 0.94430 0.53320 0.00400
H 	H 	0.86730 0.95070 0.53770 0.08800
C 	C 	0.29840 0.84600 0.44530 0.38900
C 	C 	0.29740 0.84420 0.34650 -0.16900
C 	C 	0.21830 0.86590 0.30140 0.08300
C 	C 	0.21780 0.86700 0.20620 -0.14400
C 	C 	0.29520 0.83470 0.16430 0.09000
C 	C 	0.37900 0.81300 0.21500 -0.17200
C 	C 	0.37700 0.82100 0.29600 0.12100
C 	C 	0.29350 0.83110 0.06500 0.00700
C 	C 	0.20800 0.86800 0.01700 -0.07300
C 	C 	0.20900 0.86400 0.92500 0.01600
C 	C 	0.29100 0.82430 0.88060 -0.09400
C 	C 	0.37400 0.78500 0.92800 0.01400
C 	C 	0.37200 0.79300 0.01800 -0.07000
C 	C 	0.29480 0.82520 0.78270 0.36800
C 	C 	0.29980 0.00530 0.60850 0.37700
C 	C 	0.30070 0.10450 0.60630 -0.09500
C 	C 	0.39300 0.14800 0.58200 0.01600
C 	C 	0.39000 0.23750 0.58200 -0.07400
C 	C 	0.30380 0.28890 0.60860 0.01600
C 	C 	0.21900 0.24400 0.63800 -0.07600
C 	C 	0.21600 0.15300 0.63700 0.01600
C 	C 	0.30620 0.38780 0.60860 0.06200
C 	C 	0.37600 0.43900 0.56700 -0.13800
C 	C 	0.37700 0.52890 0.57400 0.08700
C 	C 	0.30990 0.57290 0.61290 -0.14400
C 	C 	0.22600 0.52390 0.65670 0.04600
C 	C 	0.22500 0.43240 0.65230 -0.10700
C 	C 	0.30890 0.66970 0.61670 0.39300
C 	C 	0.60230 0.75880 0.64090 0.07200
C 	C 	0.69810 0.75490 0.64560 -0.12000
C 	C 	0.74760 0.83500 0.62400 0.05200
C 	C 	0.69320 0.91380 0.60410 -0.12000
C 	C 	0.59500 0.90790 0.60400 0.08000
C 	C 	0.85280 0.83590 0.62410 0.06000
C 	C 	0.90710 0.76690 0.67500 -0.12500
C 	C 	0.00480 0.77130 0.66950 0.07600
C 	C 	0.00210 0.89940 0.57170 0.09200
C 	C 	0.90130 0.90300 0.57230 -0.13500
N 	N 	0.54610 0.83460 0.61850 -0.19300
N 	N 	0.05310 0.83870 0.62040 -0.19300
O 	O 	0.21970 0.85070 0.48810 -0.41700
O 	O 	0.37840 0.84550 0.48010 -0.41300
O 	O 	0.21320 0.83090 0.74730 -0.39400
O 	O 	0.37210 0.82040 0.74070 -0.40800
O 	O 	0.37580 0.96360 0.60380 -0.42400
O 	O 	0.21790 0.97080 0.61120 -0.40200
O 	O 	0.38780 0.70600 0.61460 -0.41200
O 	O 	0.22930 0.70970 0.62270 -0.41100
