data_crystal

_cell_length_a 13.04690
_cell_length_b 14.12600
_cell_length_c 14.21050
_cell_angle_alpha 90.00000
_cell_angle_beta  91.11000
_cell_angle_gamma 90.00000

_symmetry_space_group_name_	'P 1'
_symmetry_space_group_name_H-M	'P 1'

loop_
_symmetry_equiv_pos_as_xyz
  x,y,z

loop_
_atom_site_label
_atom_site_type_symbol
_atom_site_fract_x
_atom_site_fract_y
_atom_site_fract_z
_atom_site_charge
Co	Co	0.23061 0.12332 0.26302 1.18400
Co	Co	0.94338 0.99903 0.31871 1.19000
Co	Co	0.24346 0.87217 0.28350 1.18500
Co	Co	0.15621 0.00824 0.67085 1.18000
Co	Co	0.61457 0.02064 0.41433 1.18300
Co	Co	0.74630 0.62470 0.31763 1.18400
Co	Co	0.77897 0.37874 0.30324 1.18600
Co	Co	0.05276 0.53225 0.27137 1.16200
Co	Co	0.34079 0.48494 0.41552 1.18300
Co	Co	0.37790 0.48211 0.16890 1.18600
P 	P 	0.09689 0.98387 0.14303 0.51000
P 	P 	0.14257 0.99777 0.43721 0.55600
P 	P 	0.77141 0.14551 0.30124 0.52800
P 	P 	0.43707 0.01270 0.26139 0.53900
P 	P 	0.74963 0.85867 0.33134 0.52400
P 	P 	0.85426 0.53381 0.14634 0.54500
P 	P 	0.90075 0.50924 0.43940 0.52800
P 	P 	0.56060 0.48275 0.31834 0.54000
P 	P 	0.25166 0.64452 0.28721 0.54300
P 	P 	0.22016 0.36006 0.25666 0.54500
O 	O 	0.13960 0.89080 0.18410 -0.43100
O 	O 	0.17640 0.06350 0.14710 -0.41800
O 	O 	0.99900 0.01100 0.19470 -0.39000
O 	O 	0.20460 0.91010 0.40690 -0.44500
O 	O 	0.15770 0.08030 0.37060 -0.49600
O 	O 	0.02880 0.97150 0.43110 -0.43200
O 	O 	0.17470 0.02460 0.53710 -0.41200
O 	O 	0.75900 0.08330 0.21240 -0.44000
O 	O 	0.67860 0.13690 0.36610 -0.43500
O 	O 	0.86830 0.11050 0.35610 -0.40800
O 	O 	0.78590 0.24720 0.27100 -0.39800
O 	O 	0.51550 0.02640 0.18370 -0.41000
O 	O 	0.48590 0.98530 0.35510 -0.44700
O 	O 	0.37800 0.10580 0.27210 -0.42200
O 	O 	0.36260 0.93430 0.22940 -0.42000
O 	O 	0.68370 0.87780 0.24200 -0.44600
O 	O 	0.06630 0.96630 0.04010 -0.36300
O 	O 	0.71680 0.91960 0.41400 -0.42800
O 	O 	0.86510 0.87820 0.31270 -0.39600
O 	O 	0.73960 0.75470 0.36160 -0.38300
O 	O 	0.80200 0.56670 0.43010 -0.45000
O 	O 	0.82210 0.62270 0.20250 -0.43000
O 	O 	0.81490 0.54370 0.04520 -0.35900
O 	O 	0.97110 0.52820 0.15100 -0.37900
O 	O 	0.80370 0.44750 0.18760 -0.45100
O 	O 	0.88660 0.41220 0.39230 -0.44300
O 	O 	0.98880 0.56230 0.39060 -0.40700
O 	O 	0.64410 0.41060 0.34770 -0.42300
O 	O 	0.48790 0.48970 0.40050 -0.42100
O 	O 	0.60660 0.58020 0.29960 -0.42900
O 	O 	0.50740 0.44590 0.22870 -0.42200
O 	O 	0.93110 0.49840 0.54240 -0.37900
O 	O 	0.32100 0.59770 0.21580 -0.45200
O 	O 	0.14020 0.64390 0.25140 -0.42600
O 	O 	0.29050 0.74650 0.29730 -0.40700
O 	O 	0.25890 0.59360 0.38220 -0.45900
O 	O 	0.30300 0.37810 0.33150 -0.46600
O 	O 	0.12080 0.41180 0.27920 -0.45200
O 	O 	0.19390 0.25510 0.25160 -0.40300
O 	O 	0.26210 0.39150 0.16070 -0.39700
Co	Co	0.73061 0.87668 0.76302 1.18100
Co	Co	0.44338 0.00097 0.81871 1.18000
Co	Co	0.74346 0.12783 0.78350 1.18300
Co	Co	0.65621 0.99176 0.17085 1.18700
Co	Co	0.11457 0.97936 0.91433 1.15700
Co	Co	0.24630 0.37530 0.81763 1.18000
Co	Co	0.27897 0.62126 0.80324 1.18000
Co	Co	0.55276 0.46775 0.77137 1.17600
Co	Co	0.84079 0.51506 0.91552 1.16600
Co	Co	0.87790 0.51789 0.66890 1.19000
P 	P 	0.59689 0.01613 0.64303 0.53700
P 	P 	0.64257 0.00223 0.93721 0.49700
P 	P 	0.27141 0.85449 0.80124 0.52800
P 	P 	0.93707 0.98730 0.76139 0.55500
P 	P 	0.24963 0.14133 0.83134 0.52400
P 	P 	0.35426 0.46619 0.64634 0.54600
P 	P 	0.40075 0.49076 0.93940 0.47100
P 	P 	0.06060 0.51725 0.81834 0.51500
P 	P 	0.75166 0.35548 0.78721 0.54300
P 	P 	0.72016 0.63994 0.75666 0.54500
O 	O 	0.63960 0.10920 0.68410 -0.43600
O 	O 	0.67640 0.93650 0.64710 -0.43200
O 	O 	0.49900 0.98900 0.69470 -0.43300
O 	O 	0.70460 0.08990 0.90690 -0.45300
O 	O 	0.65770 0.91970 0.87060 -0.49000
O 	O 	0.52880 0.02850 0.93110 -0.42900
O 	O 	0.67470 0.97540 0.03710 -0.34300
O 	O 	0.25900 0.91670 0.71240 -0.45400
O 	O 	0.17860 0.86310 0.86610 -0.45900
O 	O 	0.36830 0.88950 0.85610 -0.43300
O 	O 	0.28590 0.75280 0.77100 -0.41700
O 	O 	0.01550 0.97360 0.68370 -0.45100
O 	O 	0.98590 0.01470 0.85510 -0.44200
O 	O 	0.87800 0.89420 0.77210 -0.42900
O 	O 	0.86260 0.06570 0.72940 -0.42300
O 	O 	0.18370 0.12220 0.74200 -0.46200
O 	O 	0.56630 0.03370 0.54010 -0.39400
O 	O 	0.21680 0.08040 0.91400 -0.46000
O 	O 	0.36510 0.12180 0.81270 -0.41200
O 	O 	0.23960 0.24530 0.86160 -0.40500
O 	O 	0.30200 0.43330 0.93010 -0.47000
O 	O 	0.32210 0.37730 0.70250 -0.44400
O 	O 	0.31490 0.45630 0.54520 -0.40900
O 	O 	0.47110 0.47180 0.65100 -0.41500
O 	O 	0.30370 0.55250 0.68760 -0.46700
O 	O 	0.38660 0.58780 0.89230 -0.46200
O 	O 	0.48880 0.43770 0.89060 -0.43800
O 	O 	0.14410 0.58940 0.84770 -0.44100
O 	O 	0.98790 0.51030 0.90050 -0.41500
O 	O 	0.10660 0.41980 0.79960 -0.44700
O 	O 	0.00740 0.55410 0.72870 -0.45100
O 	O 	0.43110 0.50160 0.04240 -0.32800
O 	O 	0.82100 0.40230 0.71580 -0.45400
O 	O 	0.64020 0.35610 0.75140 -0.42500
O 	O 	0.79050 0.25350 0.79730 -0.41200
O 	O 	0.75890 0.40640 0.88220 -0.47300
O 	O 	0.80300 0.62190 0.83150 -0.47300
O 	O 	0.62080 0.58820 0.77920 -0.44900
O 	O 	0.69390 0.74490 0.75160 -0.40700
O 	O 	0.76210 0.60850 0.66070 -0.41000
