data_crystal

_cell_length_a 25.77180
_cell_length_b 25.77180
_cell_length_c 25.77180
_cell_angle_alpha 90.00000
_cell_angle_beta  90.00000
_cell_angle_gamma 90.00000

_symmetry_space_group_name_	'P 1'
_symmetry_space_group_name_H-M	'P 1'

loop_
_symmetry_equiv_pos_as_xyz
  x,y,z

loop_
_atom_site_label
_atom_site_type_symbol
_atom_site_fract_x
_atom_site_fract_y
_atom_site_fract_z
_atom_site_charge
C 	C 	0.20990 0.23550 0.02630 0.07500
Br	Br	0.13640 0.21420 0.05160 -0.07500
C 	C 	0.20990 0.73550 0.52630 0.07500
Br	Br	0.13640 0.71420 0.55160 -0.07500
C 	C 	0.70990 0.23550 0.52630 0.07500
Br	Br	0.63640 0.21420 0.55160 -0.07500
C 	C 	0.70990 0.73550 0.02630 0.07500
Br	Br	0.63640 0.71420 0.05160 -0.07500
C 	C 	0.79010 0.76450 0.02630 0.07500
Br	Br	0.86360 0.78580 0.05160 -0.07500
C 	C 	0.79010 0.26450 0.52630 0.07500
Br	Br	0.86360 0.28580 0.55160 -0.07500
C 	C 	0.29010 0.76450 0.52630 0.07500
Br	Br	0.36360 0.78580 0.55160 -0.07500
C 	C 	0.29010 0.26450 0.02630 0.07500
Br	Br	0.36360 0.28580 0.05160 -0.07500
C 	C 	0.79010 0.23550 0.97370 0.07500
Br	Br	0.86360 0.21420 0.94840 -0.07500
C 	C 	0.79010 0.73550 0.47370 0.07500
Br	Br	0.86360 0.71420 0.44840 -0.07500
C 	C 	0.29010 0.23550 0.47370 0.07500
Br	Br	0.36360 0.21420 0.44840 -0.07500
C 	C 	0.29010 0.73550 0.97370 0.07500
Br	Br	0.36360 0.71420 0.94840 -0.07500
C 	C 	0.20990 0.76450 0.97370 0.07500
Br	Br	0.13640 0.78580 0.94840 -0.07500
C 	C 	0.20990 0.26450 0.47370 0.07500
Br	Br	0.13640 0.28580 0.44840 -0.07500
C 	C 	0.70990 0.76450 0.47370 0.07500
Br	Br	0.63640 0.78580 0.44840 -0.07500
C 	C 	0.70990 0.26450 0.97370 0.07500
Br	Br	0.63640 0.28580 0.94840 -0.07500
C 	C 	0.02630 0.20990 0.23550 0.07500
Br	Br	0.05160 0.13640 0.21420 -0.07500
C 	C 	0.02630 0.70990 0.73550 0.07500
Br	Br	0.05160 0.63640 0.71420 -0.07500
C 	C 	0.52630 0.20990 0.73550 0.07500
Br	Br	0.55160 0.13640 0.71420 -0.07500
C 	C 	0.52630 0.70990 0.23550 0.07500
Br	Br	0.55160 0.63640 0.21420 -0.07500
C 	C 	0.02630 0.79010 0.76450 0.07500
Br	Br	0.05160 0.86360 0.78580 -0.07500
C 	C 	0.02630 0.29010 0.26450 0.07500
Br	Br	0.05160 0.36360 0.28580 -0.07500
C 	C 	0.52630 0.79010 0.26450 0.07500
Br	Br	0.55160 0.86360 0.28580 -0.07500
C 	C 	0.52630 0.29010 0.76450 0.07500
Br	Br	0.55160 0.36360 0.78580 -0.07500
C 	C 	0.97370 0.79010 0.23550 0.07500
Br	Br	0.94840 0.86360 0.21420 -0.07500
C 	C 	0.97370 0.29010 0.73550 0.07500
Br	Br	0.94840 0.36360 0.71420 -0.07500
C 	C 	0.47370 0.79010 0.73550 0.07500
Br	Br	0.44840 0.86360 0.71420 -0.07500
C 	C 	0.47370 0.29010 0.23550 0.07500
Br	Br	0.44840 0.36360 0.21420 -0.07500
C 	C 	0.97370 0.20990 0.76450 0.07500
Br	Br	0.94840 0.13640 0.78580 -0.07500
C 	C 	0.97370 0.70990 0.26450 0.07500
Br	Br	0.94840 0.63640 0.28580 -0.07500
C 	C 	0.47370 0.20990 0.26450 0.07500
Br	Br	0.44840 0.13640 0.28580 -0.07500
C 	C 	0.47370 0.70990 0.76450 0.07500
Br	Br	0.44840 0.63640 0.78580 -0.07500
C 	C 	0.23550 0.02630 0.20990 0.07500
Br	Br	0.21420 0.05160 0.13640 -0.07500
C 	C 	0.23550 0.52630 0.70990 0.07500
Br	Br	0.21420 0.55160 0.63640 -0.07500
C 	C 	0.73550 0.02630 0.70990 0.07500
Br	Br	0.71420 0.05160 0.63640 -0.07500
C 	C 	0.73550 0.52630 0.20990 0.07500
Br	Br	0.71420 0.55160 0.13640 -0.07500
C 	C 	0.76450 0.02630 0.79010 0.07500
Br	Br	0.78580 0.05160 0.86360 -0.07500
C 	C 	0.76450 0.52630 0.29010 0.07500
Br	Br	0.78580 0.55160 0.36360 -0.07500
C 	C 	0.26450 0.02630 0.29010 0.07500
Br	Br	0.28580 0.05160 0.36360 -0.07500
C 	C 	0.26450 0.52630 0.79010 0.07500
Br	Br	0.28580 0.55160 0.86360 -0.07500
C 	C 	0.23550 0.97370 0.79010 0.07500
Br	Br	0.21420 0.94840 0.86360 -0.07500
C 	C 	0.23550 0.47370 0.29010 0.07500
Br	Br	0.21420 0.44840 0.36360 -0.07500
C 	C 	0.73550 0.97370 0.29010 0.07500
Br	Br	0.71420 0.94840 0.36360 -0.07500
C 	C 	0.73550 0.47370 0.79010 0.07500
Br	Br	0.71420 0.44840 0.86360 -0.07500
C 	C 	0.76450 0.97370 0.20990 0.07500
Br	Br	0.78580 0.94840 0.13640 -0.07500
C 	C 	0.76450 0.47370 0.70990 0.07500
Br	Br	0.78580 0.44840 0.63640 -0.07500
C 	C 	0.26450 0.97370 0.70990 0.07500
Br	Br	0.28580 0.94840 0.63640 -0.07500
C 	C 	0.26450 0.47370 0.20990 0.07500
Br	Br	0.28580 0.44840 0.13640 -0.07500
C 	C 	0.23550 0.20990 0.97370 0.07500
Br	Br	0.21420 0.13640 0.94840 -0.07500
C 	C 	0.23550 0.70990 0.47370 0.07500
Br	Br	0.21420 0.63640 0.44840 -0.07500
C 	C 	0.73550 0.20990 0.47370 0.07500
Br	Br	0.71420 0.13640 0.44840 -0.07500
C 	C 	0.73550 0.70990 0.97370 0.07500
Br	Br	0.71420 0.63640 0.94840 -0.07500
C 	C 	0.76450 0.79010 0.97370 0.07500
Br	Br	0.78580 0.86360 0.94840 -0.07500
C 	C 	0.76450 0.29010 0.47370 0.07500
Br	Br	0.78580 0.36360 0.44840 -0.07500
C 	C 	0.26450 0.79010 0.47370 0.07500
Br	Br	0.28580 0.86360 0.44840 -0.07500
C 	C 	0.26450 0.29010 0.97370 0.07500
Br	Br	0.28580 0.36360 0.94840 -0.07500
C 	C 	0.23550 0.79010 0.02630 0.07500
Br	Br	0.21420 0.86360 0.05160 -0.07500
C 	C 	0.23550 0.29010 0.52630 0.07500
Br	Br	0.21420 0.36360 0.55160 -0.07500
C 	C 	0.73550 0.79010 0.52630 0.07500
Br	Br	0.71420 0.86360 0.55160 -0.07500
C 	C 	0.73550 0.29010 0.02630 0.07500
Br	Br	0.71420 0.36360 0.05160 -0.07500
C 	C 	0.76450 0.20990 0.02630 0.07500
Br	Br	0.78580 0.13640 0.05160 -0.07500
C 	C 	0.76450 0.70990 0.52630 0.07500
Br	Br	0.78580 0.63640 0.55160 -0.07500
C 	C 	0.26450 0.20990 0.52630 0.07500
Br	Br	0.28580 0.13640 0.55160 -0.07500
C 	C 	0.26450 0.70990 0.02630 0.07500
Br	Br	0.28580 0.63640 0.05160 -0.07500
C 	C 	0.20990 0.02630 0.76450 0.07500
Br	Br	0.13640 0.05160 0.78580 -0.07500
C 	C 	0.20990 0.52630 0.26450 0.07500
Br	Br	0.13640 0.55160 0.28580 -0.07500
C 	C 	0.70990 0.02630 0.26450 0.07500
Br	Br	0.63640 0.05160 0.28580 -0.07500
C 	C 	0.70990 0.52630 0.76450 0.07500
Br	Br	0.63640 0.55160 0.78580 -0.07500
C 	C 	0.79010 0.02630 0.23550 0.07500
Br	Br	0.86360 0.05160 0.21420 -0.07500
C 	C 	0.79010 0.52630 0.73550 0.07500
Br	Br	0.86360 0.55160 0.71420 -0.07500
C 	C 	0.29010 0.02630 0.73550 0.07500
Br	Br	0.36360 0.05160 0.71420 -0.07500
C 	C 	0.29010 0.52630 0.23550 0.07500
Br	Br	0.36360 0.55160 0.21420 -0.07500
C 	C 	0.79010 0.97370 0.76450 0.07500
Br	Br	0.86360 0.94840 0.78580 -0.07500
C 	C 	0.79010 0.47370 0.26450 0.07500
Br	Br	0.86360 0.44840 0.28580 -0.07500
C 	C 	0.29010 0.97370 0.26450 0.07500
Br	Br	0.36360 0.94840 0.28580 -0.07500
C 	C 	0.29010 0.47370 0.76450 0.07500
Br	Br	0.36360 0.44840 0.78580 -0.07500
C 	C 	0.20990 0.97370 0.23550 0.07500
Br	Br	0.13640 0.94840 0.21420 -0.07500
C 	C 	0.20990 0.47370 0.73550 0.07500
Br	Br	0.13640 0.44840 0.71420 -0.07500
C 	C 	0.70990 0.97370 0.73550 0.07500
Br	Br	0.63640 0.94840 0.71420 -0.07500
C 	C 	0.70990 0.47370 0.23550 0.07500
Br	Br	0.63640 0.44840 0.21420 -0.07500
C 	C 	0.02630 0.23550 0.79010 0.07600
Br	Br	0.05160 0.21420 0.86360 -0.07400
C 	C 	0.02630 0.73550 0.29010 0.07600
Br	Br	0.05160 0.71420 0.36360 -0.07400
C 	C 	0.52630 0.23550 0.29010 0.07600
Br	Br	0.55160 0.21420 0.36360 -0.07400
C 	C 	0.52630 0.73550 0.79010 0.07600
Br	Br	0.55160 0.71420 0.86360 -0.07400
C 	C 	0.02630 0.76450 0.20990 0.07600
Br	Br	0.05160 0.78580 0.13640 -0.07400
C 	C 	0.02630 0.26450 0.70990 0.07600
Br	Br	0.05160 0.28580 0.63640 -0.07400
C 	C 	0.52630 0.76450 0.70990 0.07600
Br	Br	0.55160 0.78580 0.63640 -0.07400
C 	C 	0.52630 0.26450 0.20990 0.07600
Br	Br	0.55160 0.28580 0.13640 -0.07400
C 	C 	0.97370 0.23550 0.20990 0.07600
Br	Br	0.94840 0.21420 0.13640 -0.07400
C 	C 	0.97370 0.73550 0.70990 0.07600
Br	Br	0.94840 0.71420 0.63640 -0.07400
C 	C 	0.47370 0.23550 0.70990 0.07600
Br	Br	0.44840 0.21420 0.63640 -0.07400
C 	C 	0.47370 0.73550 0.20990 0.07600
Br	Br	0.44840 0.71420 0.13640 -0.07400
C 	C 	0.97370 0.76450 0.79010 0.07600
Br	Br	0.94840 0.78580 0.86360 -0.07400
C 	C 	0.97370 0.26450 0.29010 0.07600
Br	Br	0.94840 0.28580 0.36360 -0.07400
C 	C 	0.47370 0.76450 0.29010 0.07600
Br	Br	0.44840 0.78580 0.36360 -0.07400
C 	C 	0.47370 0.26450 0.79010 0.07600
Br	Br	0.44840 0.28580 0.86360 -0.07400
C 	C 	0.79010 0.76450 0.97370 0.07600
Br	Br	0.86360 0.78580 0.94840 -0.07400
C 	C 	0.79010 0.26450 0.47370 0.07600
Br	Br	0.86360 0.28580 0.44840 -0.07400
C 	C 	0.29010 0.76450 0.47370 0.07600
Br	Br	0.36360 0.78580 0.44840 -0.07400
C 	C 	0.29010 0.26450 0.97370 0.07600
Br	Br	0.36360 0.28580 0.94840 -0.07400
C 	C 	0.20990 0.23550 0.97370 0.07600
Br	Br	0.13640 0.21420 0.94840 -0.07400
C 	C 	0.20990 0.73550 0.47370 0.07600
Br	Br	0.13640 0.71420 0.44840 -0.07400
C 	C 	0.70990 0.23550 0.47370 0.07600
Br	Br	0.63640 0.21420 0.44840 -0.07400
C 	C 	0.70990 0.73550 0.97370 0.07600
Br	Br	0.63640 0.71420 0.94840 -0.07400
C 	C 	0.20990 0.76450 0.02630 0.07600
Br	Br	0.13640 0.78580 0.05160 -0.07400
C 	C 	0.20990 0.26450 0.52630 0.07600
Br	Br	0.13640 0.28580 0.55160 -0.07400
C 	C 	0.70990 0.76450 0.52630 0.07600
Br	Br	0.63640 0.78580 0.55160 -0.07400
C 	C 	0.70990 0.26450 0.02630 0.07600
Br	Br	0.63640 0.28580 0.05160 -0.07400
C 	C 	0.79010 0.23550 0.02630 0.07600
Br	Br	0.86360 0.21420 0.05160 -0.07400
C 	C 	0.79010 0.73550 0.52630 0.07600
Br	Br	0.86360 0.71420 0.55160 -0.07400
C 	C 	0.29010 0.23550 0.52630 0.07600
Br	Br	0.36360 0.21420 0.55160 -0.07400
C 	C 	0.29010 0.73550 0.02630 0.07600
Br	Br	0.36360 0.71420 0.05160 -0.07400
C 	C 	0.97370 0.79010 0.76450 0.07600
Br	Br	0.94840 0.86360 0.78580 -0.07400
C 	C 	0.97370 0.29010 0.26450 0.07600
Br	Br	0.94840 0.36360 0.28580 -0.07400
C 	C 	0.47370 0.79010 0.26450 0.07600
Br	Br	0.44840 0.86360 0.28580 -0.07400
C 	C 	0.47370 0.29010 0.76450 0.07600
Br	Br	0.44840 0.36360 0.78580 -0.07400
C 	C 	0.97370 0.20990 0.23550 0.07600
Br	Br	0.94840 0.13640 0.21420 -0.07400
C 	C 	0.97370 0.70990 0.73550 0.07600
Br	Br	0.94840 0.63640 0.71420 -0.07400
C 	C 	0.47370 0.20990 0.73550 0.07600
Br	Br	0.44840 0.13640 0.71420 -0.07400
C 	C 	0.47370 0.70990 0.23550 0.07600
Br	Br	0.44840 0.63640 0.21420 -0.07400
C 	C 	0.02630 0.20990 0.76450 0.07600
Br	Br	0.05160 0.13640 0.78580 -0.07400
C 	C 	0.02630 0.70990 0.26450 0.07600
Br	Br	0.05160 0.63640 0.28580 -0.07400
C 	C 	0.52630 0.20990 0.26450 0.07600
Br	Br	0.55160 0.13640 0.28580 -0.07400
C 	C 	0.52630 0.70990 0.76450 0.07600
Br	Br	0.55160 0.63640 0.78580 -0.07400
C 	C 	0.02630 0.79010 0.23550 0.07600
Br	Br	0.05160 0.86360 0.21420 -0.07400
C 	C 	0.02630 0.29010 0.73550 0.07600
Br	Br	0.05160 0.36360 0.71420 -0.07400
C 	C 	0.52630 0.79010 0.73550 0.07600
Br	Br	0.55160 0.86360 0.71420 -0.07400
C 	C 	0.52630 0.29010 0.23550 0.07600
Br	Br	0.55160 0.36360 0.21420 -0.07400
C 	C 	0.76450 0.97370 0.79010 0.07600
Br	Br	0.78580 0.94840 0.86360 -0.07400
C 	C 	0.76450 0.47370 0.29010 0.07600
Br	Br	0.78580 0.44840 0.36360 -0.07400
C 	C 	0.26450 0.97370 0.29010 0.07600
Br	Br	0.28580 0.94840 0.36360 -0.07400
C 	C 	0.26450 0.47370 0.79010 0.07600
Br	Br	0.28580 0.44840 0.86360 -0.07400
C 	C 	0.23550 0.97370 0.20990 0.07600
Br	Br	0.21420 0.94840 0.13640 -0.07400
C 	C 	0.23550 0.47370 0.70990 0.07600
Br	Br	0.21420 0.44840 0.63640 -0.07400
C 	C 	0.73550 0.97370 0.70990 0.07600
Br	Br	0.71420 0.94840 0.63640 -0.07400
C 	C 	0.73550 0.47370 0.20990 0.07600
Br	Br	0.71420 0.44840 0.13640 -0.07400
C 	C 	0.76450 0.02630 0.20990 0.07600
Br	Br	0.78580 0.05160 0.13640 -0.07400
C 	C 	0.76450 0.52630 0.70990 0.07600
Br	Br	0.78580 0.55160 0.63640 -0.07400
C 	C 	0.26450 0.02630 0.70990 0.07600
Br	Br	0.28580 0.05160 0.63640 -0.07400
C 	C 	0.26450 0.52630 0.20990 0.07600
Br	Br	0.28580 0.55160 0.13640 -0.07400
C 	C 	0.23550 0.02630 0.79010 0.07600
Br	Br	0.21420 0.05160 0.86360 -0.07400
C 	C 	0.23550 0.52630 0.29010 0.07600
Br	Br	0.21420 0.55160 0.36360 -0.07400
C 	C 	0.73550 0.02630 0.29010 0.07600
Br	Br	0.71420 0.05160 0.36360 -0.07400
C 	C 	0.73550 0.52630 0.79010 0.07600
Br	Br	0.71420 0.55160 0.86360 -0.07400
C 	C 	0.76450 0.79010 0.02630 0.07600
Br	Br	0.78580 0.86360 0.05160 -0.07400
C 	C 	0.76450 0.29010 0.52630 0.07600
Br	Br	0.78580 0.36360 0.55160 -0.07400
C 	C 	0.26450 0.79010 0.52630 0.07600
Br	Br	0.28580 0.86360 0.55160 -0.07400
C 	C 	0.26450 0.29010 0.02630 0.07600
Br	Br	0.28580 0.36360 0.05160 -0.07400
C 	C 	0.23550 0.20990 0.02630 0.07600
Br	Br	0.21420 0.13640 0.05160 -0.07400
C 	C 	0.23550 0.70990 0.52630 0.07600
Br	Br	0.21420 0.63640 0.55160 -0.07400
C 	C 	0.73550 0.20990 0.52630 0.07600
Br	Br	0.71420 0.13640 0.55160 -0.07400
C 	C 	0.73550 0.70990 0.02630 0.07600
Br	Br	0.71420 0.63640 0.05160 -0.07400
C 	C 	0.76450 0.20990 0.97370 0.07600
Br	Br	0.78580 0.13640 0.94840 -0.07400
C 	C 	0.76450 0.70990 0.47370 0.07600
Br	Br	0.78580 0.63640 0.44840 -0.07400
C 	C 	0.26450 0.20990 0.47370 0.07600
Br	Br	0.28580 0.13640 0.44840 -0.07400
C 	C 	0.26450 0.70990 0.97370 0.07600
Br	Br	0.28580 0.63640 0.94840 -0.07400
C 	C 	0.23550 0.79010 0.97370 0.07600
Br	Br	0.21420 0.86360 0.94840 -0.07400
C 	C 	0.23550 0.29010 0.47370 0.07600
Br	Br	0.21420 0.36360 0.44840 -0.07400
C 	C 	0.73550 0.79010 0.47370 0.07600
Br	Br	0.71420 0.86360 0.44840 -0.07400
C 	C 	0.73550 0.29010 0.97370 0.07600
Br	Br	0.71420 0.36360 0.94840 -0.07400
C 	C 	0.79010 0.97370 0.23550 0.07600
Br	Br	0.86360 0.94840 0.21420 -0.07400
C 	C 	0.79010 0.47370 0.73550 0.07600
Br	Br	0.86360 0.44840 0.71420 -0.07400
C 	C 	0.29010 0.97370 0.73550 0.07600
Br	Br	0.36360 0.94840 0.71420 -0.07400
C 	C 	0.29010 0.47370 0.23550 0.07600
Br	Br	0.36360 0.44840 0.21420 -0.07400
C 	C 	0.20990 0.97370 0.76450 0.07600
Br	Br	0.13640 0.94840 0.78580 -0.07400
C 	C 	0.20990 0.47370 0.26450 0.07600
Br	Br	0.13640 0.44840 0.28580 -0.07400
C 	C 	0.70990 0.97370 0.26450 0.07600
Br	Br	0.63640 0.94840 0.28580 -0.07400
C 	C 	0.70990 0.47370 0.76450 0.07600
Br	Br	0.63640 0.44840 0.78580 -0.07400
C 	C 	0.20990 0.02630 0.23550 0.07600
Br	Br	0.13640 0.05160 0.21420 -0.07400
C 	C 	0.20990 0.52630 0.73550 0.07600
Br	Br	0.13640 0.55160 0.71420 -0.07400
C 	C 	0.70990 0.02630 0.73550 0.07600
Br	Br	0.63640 0.05160 0.71420 -0.07400
C 	C 	0.70990 0.52630 0.23550 0.07600
Br	Br	0.63640 0.55160 0.21420 -0.07400
C 	C 	0.79010 0.02630 0.76450 0.07600
Br	Br	0.86360 0.05160 0.78580 -0.07400
C 	C 	0.79010 0.52630 0.26450 0.07600
Br	Br	0.86360 0.55160 0.28580 -0.07400
C 	C 	0.29010 0.02630 0.26450 0.07600
Br	Br	0.36360 0.05160 0.28580 -0.07400
C 	C 	0.29010 0.52630 0.76450 0.07600
Br	Br	0.36360 0.55160 0.78580 -0.07400
C 	C 	0.97370 0.76450 0.20990 0.07600
Br	Br	0.94840 0.78580 0.13640 -0.07400
C 	C 	0.97370 0.26450 0.70990 0.07600
Br	Br	0.94840 0.28580 0.63640 -0.07400
C 	C 	0.47370 0.76450 0.70990 0.07600
Br	Br	0.44840 0.78580 0.63640 -0.07400
C 	C 	0.47370 0.26450 0.20990 0.07600
Br	Br	0.44840 0.28580 0.13640 -0.07400
C 	C 	0.97370 0.23550 0.79010 0.07600
Br	Br	0.94840 0.21420 0.86360 -0.07400
C 	C 	0.97370 0.73550 0.29010 0.07600
Br	Br	0.94840 0.71420 0.36360 -0.07400
C 	C 	0.47370 0.23550 0.29010 0.07600
Br	Br	0.44840 0.21420 0.36360 -0.07400
C 	C 	0.47370 0.73550 0.79010 0.07600
Br	Br	0.44840 0.71420 0.86360 -0.07400
C 	C 	0.02630 0.76450 0.79010 0.07600
Br	Br	0.05160 0.78580 0.86360 -0.07400
C 	C 	0.02630 0.26450 0.29010 0.07600
Br	Br	0.05160 0.28580 0.36360 -0.07400
C 	C 	0.52630 0.76450 0.29010 0.07600
Br	Br	0.55160 0.78580 0.36360 -0.07400
C 	C 	0.52630 0.26450 0.79010 0.07600
Br	Br	0.55160 0.28580 0.86360 -0.07400
C 	C 	0.02630 0.23550 0.20990 0.07600
Br	Br	0.05160 0.21420 0.13640 -0.07400
C 	C 	0.02630 0.73550 0.70990 0.07600
Br	Br	0.05160 0.71420 0.63640 -0.07400
C 	C 	0.52630 0.23550 0.70990 0.07600
Br	Br	0.55160 0.21420 0.63640 -0.07400
C 	C 	0.52630 0.73550 0.20990 0.07600
Br	Br	0.55160 0.71420 0.13640 -0.07400
Zn	Zn	0.20659 0.20659 0.20659 1.22600
Zn	Zn	0.20659 0.70659 0.70659 1.22600
Zn	Zn	0.70659 0.20659 0.70659 1.22600
Zn	Zn	0.70659 0.70659 0.20659 1.22600
Zn	Zn	0.79341 0.79341 0.20659 1.22600
Zn	Zn	0.79341 0.29341 0.70659 1.22600
Zn	Zn	0.29341 0.79341 0.70659 1.22600
Zn	Zn	0.29341 0.29341 0.20659 1.22600
Zn	Zn	0.79341 0.20659 0.79341 1.22600
Zn	Zn	0.79341 0.70659 0.29341 1.22600
Zn	Zn	0.29341 0.20659 0.29341 1.22600
Zn	Zn	0.29341 0.70659 0.79341 1.22600
Zn	Zn	0.20659 0.79341 0.79341 1.22600
Zn	Zn	0.20659 0.29341 0.29341 1.22600
Zn	Zn	0.70659 0.79341 0.29341 1.22600
Zn	Zn	0.70659 0.29341 0.79341 1.22600
Zn	Zn	0.20659 0.20659 0.79341 1.22600
Zn	Zn	0.20659 0.70659 0.29341 1.22600
Zn	Zn	0.70659 0.20659 0.29341 1.22600
Zn	Zn	0.70659 0.70659 0.79341 1.22600
Zn	Zn	0.79341 0.79341 0.79341 1.22600
Zn	Zn	0.79341 0.29341 0.29341 1.22600
Zn	Zn	0.29341 0.79341 0.29341 1.22600
Zn	Zn	0.29341 0.29341 0.79341 1.22600
Zn	Zn	0.20659 0.79341 0.20659 1.22600
Zn	Zn	0.20659 0.29341 0.70659 1.22600
Zn	Zn	0.70659 0.79341 0.70659 1.22600
Zn	Zn	0.70659 0.29341 0.20659 1.22600
Zn	Zn	0.79341 0.20659 0.20659 1.22600
Zn	Zn	0.79341 0.70659 0.70659 1.22600
Zn	Zn	0.29341 0.20659 0.70659 1.22600
Zn	Zn	0.29341 0.70659 0.20659 1.22600
O 	O 	0.25000 0.25000 0.25000 -0.94800
O 	O 	0.75000 0.75000 0.25000 -0.94800
O 	O 	0.75000 0.25000 0.75000 -0.94800
O 	O 	0.25000 0.75000 0.75000 -0.94800
O 	O 	0.25000 0.25000 0.75000 -0.94800
O 	O 	0.75000 0.75000 0.75000 -0.94800
O 	O 	0.75000 0.25000 0.25000 -0.94800
O 	O 	0.25000 0.75000 0.25000 -0.94800
O 	O 	0.22000 0.22000 0.13380 -0.47800
O 	O 	0.22000 0.72000 0.63380 -0.47800
O 	O 	0.72000 0.22000 0.63380 -0.47800
O 	O 	0.72000 0.72000 0.13380 -0.47800
O 	O 	0.78000 0.78000 0.13380 -0.47800
O 	O 	0.78000 0.28000 0.63380 -0.47800
O 	O 	0.28000 0.78000 0.63380 -0.47800
O 	O 	0.28000 0.28000 0.13380 -0.47800
O 	O 	0.78000 0.22000 0.86620 -0.47800
O 	O 	0.78000 0.72000 0.36620 -0.47800
O 	O 	0.28000 0.22000 0.36620 -0.47800
O 	O 	0.28000 0.72000 0.86620 -0.47800
O 	O 	0.22000 0.78000 0.86620 -0.47800
O 	O 	0.22000 0.28000 0.36620 -0.47800
O 	O 	0.72000 0.78000 0.36620 -0.47800
O 	O 	0.72000 0.28000 0.86620 -0.47800
O 	O 	0.13380 0.22000 0.22000 -0.47800
O 	O 	0.13380 0.72000 0.72000 -0.47800
O 	O 	0.63380 0.22000 0.72000 -0.47800
O 	O 	0.63380 0.72000 0.22000 -0.47800
O 	O 	0.13380 0.78000 0.78000 -0.47800
O 	O 	0.13380 0.28000 0.28000 -0.47800
O 	O 	0.63380 0.78000 0.28000 -0.47800
O 	O 	0.63380 0.28000 0.78000 -0.47800
O 	O 	0.86620 0.78000 0.22000 -0.47800
O 	O 	0.86620 0.28000 0.72000 -0.47800
O 	O 	0.36620 0.78000 0.72000 -0.47800
O 	O 	0.36620 0.28000 0.22000 -0.47800
O 	O 	0.86620 0.22000 0.78000 -0.47800
O 	O 	0.86620 0.72000 0.28000 -0.47800
O 	O 	0.36620 0.22000 0.28000 -0.47800
O 	O 	0.36620 0.72000 0.78000 -0.47800
O 	O 	0.22000 0.13380 0.22000 -0.47800
O 	O 	0.22000 0.63380 0.72000 -0.47800
O 	O 	0.72000 0.13380 0.72000 -0.47800
O 	O 	0.72000 0.63380 0.22000 -0.47800
O 	O 	0.78000 0.13380 0.78000 -0.47800
O 	O 	0.78000 0.63380 0.28000 -0.47800
O 	O 	0.28000 0.13380 0.28000 -0.47800
O 	O 	0.28000 0.63380 0.78000 -0.47800
O 	O 	0.22000 0.86620 0.78000 -0.47800
O 	O 	0.22000 0.36620 0.28000 -0.47800
O 	O 	0.72000 0.86620 0.28000 -0.47800
O 	O 	0.72000 0.36620 0.78000 -0.47800
O 	O 	0.78000 0.86620 0.22000 -0.47800
O 	O 	0.78000 0.36620 0.72000 -0.47800
O 	O 	0.28000 0.86620 0.72000 -0.47800
O 	O 	0.28000 0.36620 0.22000 -0.47800
O 	O 	0.22000 0.22000 0.86620 -0.47800
O 	O 	0.22000 0.72000 0.36620 -0.47800
O 	O 	0.72000 0.22000 0.36620 -0.47800
O 	O 	0.72000 0.72000 0.86620 -0.47800
O 	O 	0.78000 0.78000 0.86620 -0.47800
O 	O 	0.78000 0.28000 0.36620 -0.47800
O 	O 	0.28000 0.78000 0.36620 -0.47800
O 	O 	0.28000 0.28000 0.86620 -0.47800
O 	O 	0.22000 0.78000 0.13380 -0.47800
O 	O 	0.22000 0.28000 0.63380 -0.47800
O 	O 	0.72000 0.78000 0.63380 -0.47800
O 	O 	0.72000 0.28000 0.13380 -0.47800
O 	O 	0.78000 0.22000 0.13380 -0.47800
O 	O 	0.78000 0.72000 0.63380 -0.47800
O 	O 	0.28000 0.22000 0.63380 -0.47800
O 	O 	0.28000 0.72000 0.13380 -0.47800
O 	O 	0.22000 0.13380 0.78000 -0.47800
O 	O 	0.22000 0.63380 0.28000 -0.47800
O 	O 	0.72000 0.13380 0.28000 -0.47800
O 	O 	0.72000 0.63380 0.78000 -0.47800
O 	O 	0.78000 0.13380 0.22000 -0.47800
O 	O 	0.78000 0.63380 0.72000 -0.47800
O 	O 	0.28000 0.13380 0.72000 -0.47800
O 	O 	0.28000 0.63380 0.22000 -0.47800
O 	O 	0.78000 0.86620 0.78000 -0.47800
O 	O 	0.78000 0.36620 0.28000 -0.47800
O 	O 	0.28000 0.86620 0.28000 -0.47800
O 	O 	0.28000 0.36620 0.78000 -0.47800
O 	O 	0.22000 0.86620 0.22000 -0.47800
O 	O 	0.22000 0.36620 0.72000 -0.47800
O 	O 	0.72000 0.86620 0.72000 -0.47800
O 	O 	0.72000 0.36620 0.22000 -0.47800
O 	O 	0.13380 0.22000 0.78000 -0.47800
O 	O 	0.13380 0.72000 0.28000 -0.47800
O 	O 	0.63380 0.22000 0.28000 -0.47800
O 	O 	0.63380 0.72000 0.78000 -0.47800
O 	O 	0.13380 0.78000 0.22000 -0.47800
O 	O 	0.13380 0.28000 0.72000 -0.47800
O 	O 	0.63380 0.78000 0.72000 -0.47800
O 	O 	0.63380 0.28000 0.22000 -0.47800
O 	O 	0.86620 0.22000 0.22000 -0.47800
O 	O 	0.86620 0.72000 0.72000 -0.47800
O 	O 	0.36620 0.22000 0.72000 -0.47800
O 	O 	0.36620 0.72000 0.22000 -0.47800
O 	O 	0.86620 0.78000 0.78000 -0.47800
O 	O 	0.86620 0.28000 0.28000 -0.47800
O 	O 	0.36620 0.78000 0.28000 -0.47800
O 	O 	0.36620 0.28000 0.78000 -0.47800
C 	C 	0.25000 0.25000 0.11060 0.48900
C 	C 	0.25000 0.25000 0.05500 -0.19700
C 	C 	0.25000 0.75000 0.61060 0.48900
C 	C 	0.25000 0.75000 0.55500 -0.19700
C 	C 	0.75000 0.75000 0.11060 0.48900
C 	C 	0.75000 0.75000 0.05500 -0.19700
C 	C 	0.75000 0.25000 0.61060 0.48900
C 	C 	0.75000 0.25000 0.55500 -0.19700
C 	C 	0.75000 0.25000 0.88940 0.48900
C 	C 	0.75000 0.25000 0.94500 -0.19700
C 	C 	0.75000 0.75000 0.38940 0.48900
C 	C 	0.75000 0.75000 0.44500 -0.19700
C 	C 	0.25000 0.25000 0.38940 0.48900
C 	C 	0.25000 0.25000 0.44500 -0.19700
C 	C 	0.25000 0.75000 0.88940 0.48900
C 	C 	0.25000 0.75000 0.94500 -0.19700
C 	C 	0.11060 0.25000 0.25000 0.48900
C 	C 	0.05500 0.25000 0.25000 -0.19700
C 	C 	0.61060 0.25000 0.75000 0.48900
C 	C 	0.55500 0.25000 0.75000 -0.19700
C 	C 	0.11060 0.75000 0.75000 0.48900
C 	C 	0.05500 0.75000 0.75000 -0.19700
C 	C 	0.61060 0.75000 0.25000 0.48900
C 	C 	0.55500 0.75000 0.25000 -0.19700
C 	C 	0.88940 0.75000 0.25000 0.48900
C 	C 	0.94500 0.75000 0.25000 -0.19700
C 	C 	0.38940 0.75000 0.75000 0.48900
C 	C 	0.44500 0.75000 0.75000 -0.19700
C 	C 	0.38940 0.25000 0.25000 0.48900
C 	C 	0.44500 0.25000 0.25000 -0.19700
C 	C 	0.88940 0.25000 0.75000 0.48900
C 	C 	0.94500 0.25000 0.75000 -0.19700
C 	C 	0.25000 0.11060 0.25000 0.48900
C 	C 	0.25000 0.05500 0.25000 -0.19700
C 	C 	0.25000 0.61060 0.75000 0.48900
C 	C 	0.25000 0.55500 0.75000 -0.19700
C 	C 	0.75000 0.11060 0.75000 0.48900
C 	C 	0.75000 0.05500 0.75000 -0.19700
C 	C 	0.75000 0.61060 0.25000 0.48900
C 	C 	0.75000 0.55500 0.25000 -0.19700
C 	C 	0.25000 0.88940 0.75000 0.48900
C 	C 	0.25000 0.94500 0.75000 -0.19700
C 	C 	0.25000 0.38940 0.25000 0.48900
C 	C 	0.25000 0.44500 0.25000 -0.19700
C 	C 	0.75000 0.88940 0.25000 0.48900
C 	C 	0.75000 0.94500 0.25000 -0.19700
C 	C 	0.75000 0.38940 0.75000 0.48900
C 	C 	0.75000 0.44500 0.75000 -0.19700
C 	C 	0.25000 0.25000 0.88940 0.48900
C 	C 	0.25000 0.25000 0.94500 -0.19700
C 	C 	0.25000 0.75000 0.38940 0.48900
C 	C 	0.25000 0.75000 0.44500 -0.19700
C 	C 	0.75000 0.75000 0.88940 0.48900
C 	C 	0.75000 0.75000 0.94500 -0.19700
C 	C 	0.75000 0.25000 0.38940 0.48900
C 	C 	0.75000 0.25000 0.44500 -0.19700
C 	C 	0.25000 0.75000 0.11060 0.48900
C 	C 	0.25000 0.75000 0.05500 -0.19700
C 	C 	0.25000 0.25000 0.61060 0.48900
C 	C 	0.25000 0.25000 0.55500 -0.19700
C 	C 	0.75000 0.25000 0.11060 0.48900
C 	C 	0.75000 0.25000 0.05500 -0.19700
C 	C 	0.75000 0.75000 0.61060 0.48900
C 	C 	0.75000 0.75000 0.55500 -0.19700
C 	C 	0.25000 0.11060 0.75000 0.48900
C 	C 	0.25000 0.05500 0.75000 -0.19700
C 	C 	0.25000 0.61060 0.25000 0.48900
C 	C 	0.25000 0.55500 0.25000 -0.19700
C 	C 	0.75000 0.11060 0.25000 0.48900
C 	C 	0.75000 0.05500 0.25000 -0.19700
C 	C 	0.75000 0.61060 0.75000 0.48900
C 	C 	0.75000 0.55500 0.75000 -0.19700
C 	C 	0.75000 0.88940 0.75000 0.48900
C 	C 	0.75000 0.94500 0.75000 -0.19700
C 	C 	0.75000 0.38940 0.25000 0.48900
C 	C 	0.75000 0.44500 0.25000 -0.19700
C 	C 	0.25000 0.88940 0.25000 0.48900
C 	C 	0.25000 0.94500 0.25000 -0.19700
C 	C 	0.25000 0.38940 0.75000 0.48900
C 	C 	0.25000 0.44500 0.75000 -0.19700
C 	C 	0.11060 0.25000 0.75000 0.48900
C 	C 	0.05500 0.25000 0.75000 -0.19700
C 	C 	0.61060 0.25000 0.25000 0.48900
C 	C 	0.55500 0.25000 0.25000 -0.19700
C 	C 	0.11060 0.75000 0.25000 0.48900
C 	C 	0.05500 0.75000 0.25000 -0.19700
C 	C 	0.61060 0.75000 0.75000 0.48900
C 	C 	0.55500 0.75000 0.75000 -0.19700
C 	C 	0.88940 0.25000 0.25000 0.48900
C 	C 	0.94500 0.25000 0.25000 -0.19700
C 	C 	0.38940 0.25000 0.75000 0.48900
C 	C 	0.44500 0.25000 0.75000 -0.19700
C 	C 	0.88940 0.75000 0.75000 0.48900
C 	C 	0.94500 0.75000 0.75000 -0.19700
C 	C 	0.38940 0.75000 0.25000 0.48900
C 	C 	0.44500 0.75000 0.25000 -0.19700
