data_crystal

_cell_length_a 25.84210
_cell_length_b 25.84210
_cell_length_c 25.84210
_cell_angle_alpha 90.00000
_cell_angle_beta  90.00000
_cell_angle_gamma 90.00000

_symmetry_space_group_name_	'P 1'
_symmetry_space_group_name_H-M	'P 1'

loop_
_symmetry_equiv_pos_as_xyz
  x,y,z

loop_
_atom_site_label
_atom_site_type_symbol
_atom_site_fract_x
_atom_site_fract_y
_atom_site_fract_z
_atom_site_charge
H 	H 	0.31180 0.14490 0.04130 0.06200
H 	H 	0.31180 0.64490 0.54130 0.06200
H 	H 	0.81180 0.14490 0.54130 0.06200
H 	H 	0.81180 0.64490 0.04130 0.06200
H 	H 	0.68820 0.85510 0.04130 0.06200
H 	H 	0.68820 0.35510 0.54130 0.06200
H 	H 	0.18820 0.85510 0.54130 0.06200
H 	H 	0.18820 0.35510 0.04130 0.06200
H 	H 	0.68820 0.14490 0.95870 0.06200
H 	H 	0.68820 0.64490 0.45870 0.06200
H 	H 	0.18820 0.14490 0.45870 0.06200
H 	H 	0.18820 0.64490 0.95870 0.06200
H 	H 	0.31180 0.85510 0.95870 0.06200
H 	H 	0.31180 0.35510 0.45870 0.06200
H 	H 	0.81180 0.85510 0.45870 0.06200
H 	H 	0.81180 0.35510 0.95870 0.06200
H 	H 	0.04130 0.31180 0.14490 0.06200
H 	H 	0.04130 0.81180 0.64490 0.06200
H 	H 	0.54130 0.31180 0.64490 0.06200
H 	H 	0.54130 0.81180 0.14490 0.06200
H 	H 	0.04130 0.68820 0.85510 0.06200
H 	H 	0.04130 0.18820 0.35510 0.06200
H 	H 	0.54130 0.68820 0.35510 0.06200
H 	H 	0.54130 0.18820 0.85510 0.06200
H 	H 	0.95870 0.68820 0.14490 0.06200
H 	H 	0.95870 0.18820 0.64490 0.06200
H 	H 	0.45870 0.68820 0.64490 0.06200
H 	H 	0.45870 0.18820 0.14490 0.06200
H 	H 	0.95870 0.31180 0.85510 0.06200
H 	H 	0.95870 0.81180 0.35510 0.06200
H 	H 	0.45870 0.31180 0.35510 0.06200
H 	H 	0.45870 0.81180 0.85510 0.06200
H 	H 	0.14490 0.04130 0.31180 0.06200
H 	H 	0.14490 0.54130 0.81180 0.06200
H 	H 	0.64490 0.04130 0.81180 0.06200
H 	H 	0.64490 0.54130 0.31180 0.06200
H 	H 	0.85510 0.04130 0.68820 0.06200
H 	H 	0.85510 0.54130 0.18820 0.06200
H 	H 	0.35510 0.04130 0.18820 0.06200
H 	H 	0.35510 0.54130 0.68820 0.06200
H 	H 	0.14490 0.95870 0.68820 0.06100
H 	H 	0.14490 0.45870 0.18820 0.06100
H 	H 	0.64490 0.95870 0.18820 0.06100
H 	H 	0.64490 0.45870 0.68820 0.06100
H 	H 	0.85510 0.95870 0.31180 0.06100
H 	H 	0.85510 0.45870 0.81180 0.06100
H 	H 	0.35510 0.95870 0.81180 0.06100
H 	H 	0.35510 0.45870 0.31180 0.06100
H 	H 	0.14490 0.31180 0.95870 0.06100
H 	H 	0.14490 0.81180 0.45870 0.06100
H 	H 	0.64490 0.31180 0.45870 0.06100
H 	H 	0.64490 0.81180 0.95870 0.06100
H 	H 	0.85510 0.68820 0.95870 0.06100
H 	H 	0.85510 0.18820 0.45870 0.06100
H 	H 	0.35510 0.68820 0.45870 0.06100
H 	H 	0.35510 0.18820 0.95870 0.06100
H 	H 	0.14490 0.68820 0.04130 0.06100
H 	H 	0.14490 0.18820 0.54130 0.06100
H 	H 	0.64490 0.68820 0.54130 0.06100
H 	H 	0.64490 0.18820 0.04130 0.06100
H 	H 	0.85510 0.31180 0.04130 0.06100
H 	H 	0.85510 0.81180 0.54130 0.06100
H 	H 	0.35510 0.31180 0.54130 0.06100
H 	H 	0.35510 0.81180 0.04130 0.06100
H 	H 	0.31180 0.04130 0.85510 0.06100
H 	H 	0.31180 0.54130 0.35510 0.06100
H 	H 	0.81180 0.04130 0.35510 0.06100
H 	H 	0.81180 0.54130 0.85510 0.06100
H 	H 	0.68820 0.04130 0.14490 0.06100
H 	H 	0.68820 0.54130 0.64490 0.06100
H 	H 	0.18820 0.04130 0.64490 0.06100
H 	H 	0.18820 0.54130 0.14490 0.06100
H 	H 	0.68820 0.95870 0.85510 0.06100
H 	H 	0.68820 0.45870 0.35510 0.06100
H 	H 	0.18820 0.95870 0.35510 0.06100
H 	H 	0.18820 0.45870 0.85510 0.06100
H 	H 	0.31180 0.95870 0.14490 0.06100
H 	H 	0.31180 0.45870 0.64490 0.06100
H 	H 	0.81180 0.95870 0.64490 0.06100
H 	H 	0.81180 0.45870 0.14490 0.06100
H 	H 	0.04130 0.14490 0.68820 0.06100
H 	H 	0.04130 0.64490 0.18820 0.06100
H 	H 	0.54130 0.14490 0.18820 0.06100
H 	H 	0.54130 0.64490 0.68820 0.06100
H 	H 	0.04130 0.85510 0.31180 0.06100
H 	H 	0.04130 0.35510 0.81180 0.06100
H 	H 	0.54130 0.85510 0.81180 0.06100
H 	H 	0.54130 0.35510 0.31180 0.06100
H 	H 	0.95870 0.14490 0.31180 0.06100
H 	H 	0.95870 0.64490 0.81180 0.06100
H 	H 	0.45870 0.14490 0.81180 0.06100
H 	H 	0.45870 0.64490 0.31180 0.06100
H 	H 	0.95870 0.85510 0.68820 0.06100
H 	H 	0.95870 0.35510 0.18820 0.06100
H 	H 	0.45870 0.85510 0.18820 0.06100
H 	H 	0.45870 0.35510 0.68820 0.06100
H 	H 	0.68820 0.85510 0.95870 0.06100
H 	H 	0.68820 0.35510 0.45870 0.06100
H 	H 	0.18820 0.85510 0.45870 0.06100
H 	H 	0.18820 0.35510 0.95870 0.06100
H 	H 	0.31180 0.14490 0.95870 0.06100
H 	H 	0.31180 0.64490 0.45870 0.06100
H 	H 	0.81180 0.14490 0.45870 0.06100
H 	H 	0.81180 0.64490 0.95870 0.06100
H 	H 	0.31180 0.85510 0.04130 0.06100
H 	H 	0.31180 0.35510 0.54130 0.06100
H 	H 	0.81180 0.85510 0.54130 0.06100
H 	H 	0.81180 0.35510 0.04130 0.06100
H 	H 	0.68820 0.14490 0.04130 0.06100
H 	H 	0.68820 0.64490 0.54130 0.06100
H 	H 	0.18820 0.14490 0.54130 0.06100
H 	H 	0.18820 0.64490 0.04130 0.06100
H 	H 	0.95870 0.68820 0.85510 0.06100
H 	H 	0.95870 0.18820 0.35510 0.06100
H 	H 	0.45870 0.68820 0.35510 0.06100
H 	H 	0.45870 0.18820 0.85510 0.06100
H 	H 	0.95870 0.31180 0.14490 0.06100
H 	H 	0.95870 0.81180 0.64490 0.06100
H 	H 	0.45870 0.31180 0.64490 0.06100
H 	H 	0.45870 0.81180 0.14490 0.06100
H 	H 	0.04130 0.31180 0.85510 0.06100
H 	H 	0.04130 0.81180 0.35510 0.06100
H 	H 	0.54130 0.31180 0.35510 0.06100
H 	H 	0.54130 0.81180 0.85510 0.06100
H 	H 	0.04130 0.68820 0.14490 0.06100
H 	H 	0.04130 0.18820 0.64490 0.06100
H 	H 	0.54130 0.68820 0.64490 0.06100
H 	H 	0.54130 0.18820 0.14490 0.06100
H 	H 	0.85510 0.95870 0.68820 0.06100
H 	H 	0.85510 0.45870 0.18820 0.06100
H 	H 	0.35510 0.95870 0.18820 0.06100
H 	H 	0.35510 0.45870 0.68820 0.06100
H 	H 	0.14490 0.95870 0.31180 0.06100
H 	H 	0.14490 0.45870 0.81180 0.06100
H 	H 	0.64490 0.95870 0.81180 0.06100
H 	H 	0.64490 0.45870 0.31180 0.06100
H 	H 	0.85510 0.04130 0.31180 0.06100
H 	H 	0.85510 0.54130 0.81180 0.06100
H 	H 	0.35510 0.04130 0.81180 0.06100
H 	H 	0.35510 0.54130 0.31180 0.06100
H 	H 	0.14490 0.04130 0.68820 0.06100
H 	H 	0.14490 0.54130 0.18820 0.06100
H 	H 	0.64490 0.04130 0.18820 0.06100
H 	H 	0.64490 0.54130 0.68820 0.06100
H 	H 	0.85510 0.68820 0.04130 0.06100
H 	H 	0.85510 0.18820 0.54130 0.06100
H 	H 	0.35510 0.68820 0.54130 0.06100
H 	H 	0.35510 0.18820 0.04130 0.06100
H 	H 	0.14490 0.31180 0.04130 0.06100
H 	H 	0.14490 0.81180 0.54130 0.06100
H 	H 	0.64490 0.31180 0.54130 0.06100
H 	H 	0.64490 0.81180 0.04130 0.06100
H 	H 	0.85510 0.31180 0.95870 0.06100
H 	H 	0.85510 0.81180 0.45870 0.06100
H 	H 	0.35510 0.31180 0.45870 0.06100
H 	H 	0.35510 0.81180 0.95870 0.06100
H 	H 	0.14490 0.68820 0.95870 0.06100
H 	H 	0.14490 0.18820 0.45870 0.06100
H 	H 	0.64490 0.68820 0.45870 0.06100
H 	H 	0.64490 0.18820 0.95870 0.06100
H 	H 	0.68820 0.95870 0.14490 0.06100
H 	H 	0.68820 0.45870 0.64490 0.06100
H 	H 	0.18820 0.95870 0.64490 0.06100
H 	H 	0.18820 0.45870 0.14490 0.06100
H 	H 	0.31180 0.95870 0.85510 0.06100
H 	H 	0.31180 0.45870 0.35510 0.06100
H 	H 	0.81180 0.95870 0.35510 0.06100
H 	H 	0.81180 0.45870 0.85510 0.06100
H 	H 	0.31180 0.04130 0.14490 0.06100
H 	H 	0.31180 0.54130 0.64490 0.06100
H 	H 	0.81180 0.04130 0.64490 0.06100
H 	H 	0.81180 0.54130 0.14490 0.06100
H 	H 	0.68820 0.04130 0.85510 0.06100
H 	H 	0.68820 0.54130 0.35510 0.06100
H 	H 	0.18820 0.04130 0.35510 0.06100
H 	H 	0.18820 0.54130 0.85510 0.06100
H 	H 	0.95870 0.85510 0.31180 0.06100
H 	H 	0.95870 0.35510 0.81180 0.06100
H 	H 	0.45870 0.85510 0.81180 0.06100
H 	H 	0.45870 0.35510 0.31180 0.06100
H 	H 	0.95870 0.14490 0.68820 0.06100
H 	H 	0.95870 0.64490 0.18820 0.06100
H 	H 	0.45870 0.14490 0.18820 0.06100
H 	H 	0.45870 0.64490 0.68820 0.06100
H 	H 	0.04130 0.85510 0.68820 0.06100
H 	H 	0.04130 0.35510 0.18820 0.06100
H 	H 	0.54130 0.85510 0.18820 0.06100
H 	H 	0.54130 0.35510 0.68820 0.06100
H 	H 	0.04130 0.14490 0.31180 0.06100
H 	H 	0.04130 0.64490 0.81180 0.06100
H 	H 	0.54130 0.14490 0.81180 0.06100
H 	H 	0.54130 0.64490 0.31180 0.06100
Zn	Zn	0.20645 0.29355 0.20645 1.20900
Zn	Zn	0.79355 0.70645 0.20645 1.20900
Zn	Zn	0.29355 0.20645 0.20645 1.20900
Zn	Zn	0.79355 0.29355 0.79355 1.20900
Zn	Zn	0.29355 0.29355 0.29355 1.20900
Zn	Zn	0.20645 0.70645 0.79355 1.20900
Zn	Zn	0.20645 0.20645 0.29355 1.20900
Zn	Zn	0.20645 0.79355 0.70645 1.20900
Zn	Zn	0.79355 0.79355 0.29355 1.20900
Zn	Zn	0.79355 0.20645 0.70645 1.20900
Zn	Zn	0.29355 0.70645 0.70645 1.20900
Zn	Zn	0.70645 0.20645 0.79355 1.20900
Zn	Zn	0.70645 0.70645 0.29355 1.20900
Zn	Zn	0.29355 0.79355 0.79355 1.20900
Zn	Zn	0.70645 0.79355 0.20645 1.20900
Zn	Zn	0.70645 0.29355 0.70645 1.20900
Zn	Zn	0.29355 0.20645 0.79355 1.20900
Zn	Zn	0.29355 0.70645 0.29355 1.20900
Zn	Zn	0.70645 0.79355 0.79355 1.20900
Zn	Zn	0.70645 0.29355 0.29355 1.20900
Zn	Zn	0.20645 0.79355 0.29355 1.20900
Zn	Zn	0.20645 0.29355 0.79355 1.20900
Zn	Zn	0.29355 0.79355 0.20645 1.20900
Zn	Zn	0.29355 0.29355 0.70645 1.20900
Zn	Zn	0.70645 0.20645 0.20645 1.20900
Zn	Zn	0.70645 0.70645 0.70645 1.20900
Zn	Zn	0.20645 0.20645 0.70645 1.20900
Zn	Zn	0.79355 0.20645 0.29355 1.20900
Zn	Zn	0.79355 0.79355 0.70645 1.20900
Zn	Zn	0.79355 0.29355 0.20645 1.20900
Zn	Zn	0.20645 0.70645 0.20645 1.20900
Zn	Zn	0.79355 0.70645 0.79355 1.20900
O 	O 	0.25000 0.25000 0.25000 -0.96500
O 	O 	0.75000 0.75000 0.25000 -0.96500
O 	O 	0.75000 0.25000 0.75000 -0.96500
O 	O 	0.25000 0.75000 0.75000 -0.96500
O 	O 	0.25000 0.25000 0.75000 -0.96500
O 	O 	0.75000 0.75000 0.75000 -0.96500
O 	O 	0.75000 0.25000 0.25000 -0.96500
O 	O 	0.25000 0.75000 0.25000 -0.96500
O 	O 	0.21860 0.28140 0.13340 -0.51100
C 	C 	0.27890 0.22110 0.02820 0.07800
C 	C 	0.32000 0.18000 0.02700 -0.12100
O 	O 	0.21860 0.78140 0.63340 -0.51100
C 	C 	0.27890 0.72110 0.52820 0.07800
C 	C 	0.32000 0.68000 0.52700 -0.12100
O 	O 	0.78140 0.71860 0.13340 -0.51100
C 	C 	0.72110 0.77890 0.02820 0.07800
C 	C 	0.68000 0.82000 0.02700 -0.12100
O 	O 	0.78140 0.21860 0.63340 -0.51100
C 	C 	0.72110 0.27890 0.52820 0.07800
C 	C 	0.68000 0.32000 0.52700 -0.12100
O 	O 	0.28140 0.21860 0.13340 -0.51100
C 	C 	0.22110 0.27890 0.02820 0.07800
C 	C 	0.18000 0.32000 0.02700 -0.12100
O 	O 	0.78140 0.28140 0.86660 -0.51100
C 	C 	0.72110 0.22110 0.97180 0.07800
C 	C 	0.68000 0.18000 0.97300 -0.12100
O 	O 	0.78140 0.78140 0.36660 -0.51100
C 	C 	0.72110 0.72110 0.47180 0.07800
C 	C 	0.68000 0.68000 0.47300 -0.12100
O 	O 	0.28140 0.28140 0.36660 -0.51100
C 	C 	0.22110 0.22110 0.47180 0.07800
C 	C 	0.18000 0.18000 0.47300 -0.12100
O 	O 	0.21860 0.71860 0.86660 -0.51100
C 	C 	0.27890 0.77890 0.97180 0.07800
C 	C 	0.32000 0.82000 0.97300 -0.12100
O 	O 	0.21860 0.21860 0.36660 -0.51100
C 	C 	0.27890 0.27890 0.47180 0.07800
C 	C 	0.32000 0.32000 0.47300 -0.12100
O 	O 	0.13340 0.21860 0.28140 -0.51100
C 	C 	0.02820 0.27890 0.22110 0.07800
C 	C 	0.02700 0.32000 0.18000 -0.12100
O 	O 	0.63340 0.21860 0.78140 -0.51100
C 	C 	0.52820 0.27890 0.72110 0.07800
C 	C 	0.52700 0.32000 0.68000 -0.12100
O 	O 	0.13340 0.78140 0.71860 -0.51100
C 	C 	0.02820 0.72110 0.77890 0.07800
C 	C 	0.02700 0.68000 0.82000 -0.12100
O 	O 	0.13340 0.28140 0.21860 -0.51100
C 	C 	0.02820 0.22110 0.27890 0.07800
C 	C 	0.02700 0.18000 0.32000 -0.12100
O 	O 	0.63340 0.78140 0.21860 -0.51100
C 	C 	0.52820 0.72110 0.27890 0.07800
C 	C 	0.52700 0.68000 0.32000 -0.12100
O 	O 	0.86660 0.78140 0.28140 -0.51100
C 	C 	0.97180 0.72110 0.22110 0.07800
C 	C 	0.97300 0.68000 0.18000 -0.12100
O 	O 	0.36660 0.78140 0.78140 -0.51100
C 	C 	0.47180 0.72110 0.72110 0.07800
C 	C 	0.47300 0.68000 0.68000 -0.12100
O 	O 	0.36660 0.28140 0.28140 -0.51100
C 	C 	0.47180 0.22110 0.22110 0.07800
C 	C 	0.47300 0.18000 0.18000 -0.12100
O 	O 	0.86660 0.21860 0.71860 -0.51100
C 	C 	0.97180 0.27890 0.77890 0.07800
C 	C 	0.97300 0.32000 0.82000 -0.12100
O 	O 	0.36660 0.21860 0.21860 -0.51100
C 	C 	0.47180 0.27890 0.27890 0.07800
C 	C 	0.47300 0.32000 0.32000 -0.12100
O 	O 	0.28140 0.13340 0.21860 -0.51100
C 	C 	0.22110 0.02820 0.27890 0.07800
C 	C 	0.18000 0.02700 0.32000 -0.12100
O 	O 	0.28140 0.63340 0.71860 -0.51100
C 	C 	0.22110 0.52820 0.77890 0.07800
C 	C 	0.18000 0.52700 0.82000 -0.12100
O 	O 	0.71860 0.13340 0.78140 -0.51100
C 	C 	0.77890 0.02820 0.72110 0.07800
C 	C 	0.82000 0.02700 0.68000 -0.12100
O 	O 	0.71860 0.63340 0.28140 -0.51100
C 	C 	0.77890 0.52820 0.22110 0.07800
C 	C 	0.82000 0.52700 0.18000 -0.12100
O 	O 	0.21860 0.13340 0.28140 -0.51100
C 	C 	0.27890 0.02820 0.22110 0.07800
C 	C 	0.32000 0.02700 0.18000 -0.12100
O 	O 	0.28140 0.86660 0.78140 -0.51100
C 	C 	0.22110 0.97180 0.72110 0.07800
C 	C 	0.18000 0.97300 0.68000 -0.12100
O 	O 	0.28140 0.36660 0.28140 -0.51100
C 	C 	0.22110 0.47180 0.22110 0.07800
C 	C 	0.18000 0.47300 0.18000 -0.12100
O 	O 	0.71860 0.86660 0.21860 -0.51100
C 	C 	0.77890 0.97180 0.27890 0.07800
C 	C 	0.82000 0.97300 0.32000 -0.12100
O 	O 	0.71860 0.36660 0.71860 -0.51100
C 	C 	0.77890 0.47180 0.77890 0.07800
C 	C 	0.82000 0.47300 0.82000 -0.12100
O 	O 	0.21860 0.36660 0.21860 -0.51100
C 	C 	0.27890 0.47180 0.27890 0.07800
C 	C 	0.32000 0.47300 0.32000 -0.12100
O 	O 	0.28140 0.21860 0.86660 -0.51100
C 	C 	0.22110 0.27890 0.97180 0.07800
C 	C 	0.18000 0.32000 0.97300 -0.12100
O 	O 	0.28140 0.71860 0.36660 -0.51100
C 	C 	0.22110 0.77890 0.47180 0.07800
C 	C 	0.18000 0.82000 0.47300 -0.12100
O 	O 	0.71860 0.78140 0.86660 -0.51100
C 	C 	0.77890 0.72110 0.97180 0.07800
C 	C 	0.82000 0.68000 0.97300 -0.12100
O 	O 	0.71860 0.28140 0.36660 -0.51100
C 	C 	0.77890 0.22110 0.47180 0.07800
C 	C 	0.82000 0.18000 0.47300 -0.12100
O 	O 	0.21860 0.28140 0.86660 -0.51100
C 	C 	0.27890 0.22110 0.97180 0.07800
C 	C 	0.32000 0.18000 0.97300 -0.12100
O 	O 	0.28140 0.78140 0.13340 -0.51100
C 	C 	0.22110 0.72110 0.02820 0.07800
C 	C 	0.18000 0.68000 0.02700 -0.12100
O 	O 	0.28140 0.28140 0.63340 -0.51100
C 	C 	0.22110 0.22110 0.52820 0.07800
C 	C 	0.18000 0.18000 0.52700 -0.12100
O 	O 	0.71860 0.21860 0.13340 -0.51100
C 	C 	0.77890 0.27890 0.02820 0.07800
C 	C 	0.82000 0.32000 0.02700 -0.12100
O 	O 	0.71860 0.71860 0.63340 -0.51100
C 	C 	0.77890 0.77890 0.52820 0.07800
C 	C 	0.82000 0.82000 0.52700 -0.12100
O 	O 	0.21860 0.21860 0.63340 -0.51100
C 	C 	0.27890 0.27890 0.52820 0.07800
C 	C 	0.32000 0.32000 0.52700 -0.12100
O 	O 	0.21860 0.13340 0.71860 -0.51100
C 	C 	0.27890 0.02820 0.77890 0.07800
C 	C 	0.32000 0.02700 0.82000 -0.12100
O 	O 	0.21860 0.63340 0.21860 -0.51100
C 	C 	0.27890 0.52820 0.27890 0.07800
C 	C 	0.32000 0.52700 0.32000 -0.12100
O 	O 	0.78140 0.13340 0.28140 -0.51100
C 	C 	0.72110 0.02820 0.22110 0.07800
C 	C 	0.68000 0.02700 0.18000 -0.12100
O 	O 	0.78140 0.63340 0.78140 -0.51100
C 	C 	0.72110 0.52820 0.72110 0.07800
C 	C 	0.68000 0.52700 0.68000 -0.12100
O 	O 	0.28140 0.63340 0.28140 -0.51100
C 	C 	0.22110 0.52820 0.22110 0.07800
C 	C 	0.18000 0.52700 0.18000 -0.12100
O 	O 	0.78140 0.86660 0.71860 -0.51100
C 	C 	0.72110 0.97180 0.77890 0.07800
C 	C 	0.68000 0.97300 0.82000 -0.12100
O 	O 	0.78140 0.36660 0.21860 -0.51100
C 	C 	0.72110 0.47180 0.27890 0.07800
C 	C 	0.68000 0.47300 0.32000 -0.12100
O 	O 	0.28140 0.86660 0.21860 -0.51100
C 	C 	0.22110 0.97180 0.27890 0.07800
C 	C 	0.18000 0.97300 0.32000 -0.12100
O 	O 	0.21860 0.86660 0.28140 -0.51100
C 	C 	0.27890 0.97180 0.22110 0.07800
C 	C 	0.32000 0.97300 0.18000 -0.12100
O 	O 	0.21860 0.36660 0.78140 -0.51100
C 	C 	0.27890 0.47180 0.72110 0.07800
C 	C 	0.32000 0.47300 0.68000 -0.12100
O 	O 	0.13340 0.28140 0.78140 -0.51100
C 	C 	0.02820 0.22110 0.72110 0.07800
C 	C 	0.02700 0.18000 0.68000 -0.12100
O 	O 	0.63340 0.28140 0.28140 -0.51100
C 	C 	0.52820 0.22110 0.22110 0.07800
C 	C 	0.52700 0.18000 0.18000 -0.12100
O 	O 	0.13340 0.71860 0.21860 -0.51100
C 	C 	0.02820 0.77890 0.27890 0.07800
C 	C 	0.02700 0.82000 0.32000 -0.12100
O 	O 	0.63340 0.71860 0.71860 -0.51100
C 	C 	0.52820 0.77890 0.77890 0.07800
C 	C 	0.52700 0.82000 0.82000 -0.12100
O 	O 	0.63340 0.21860 0.21860 -0.51100
C 	C 	0.52820 0.27890 0.27890 0.07800
C 	C 	0.52700 0.32000 0.32000 -0.12100
O 	O 	0.86660 0.28140 0.21860 -0.51100
C 	C 	0.97180 0.22110 0.27890 0.07800
C 	C 	0.97300 0.18000 0.32000 -0.12100
O 	O 	0.36660 0.28140 0.71860 -0.51100
C 	C 	0.47180 0.22110 0.77890 0.07800
C 	C 	0.47300 0.18000 0.82000 -0.12100
O 	O 	0.86660 0.71860 0.78140 -0.51100
C 	C 	0.97180 0.77890 0.72110 0.07800
C 	C 	0.97300 0.82000 0.68000 -0.12100
O 	O 	0.86660 0.21860 0.28140 -0.51100
C 	C 	0.97180 0.27890 0.22110 0.07800
C 	C 	0.97300 0.32000 0.18000 -0.12100
O 	O 	0.36660 0.71860 0.28140 -0.51100
C 	C 	0.47180 0.77890 0.22110 0.07800
C 	C 	0.47300 0.82000 0.18000 -0.12100
O 	O 	0.78140 0.71860 0.86660 -0.51100
C 	C 	0.72110 0.77890 0.97180 0.07800
C 	C 	0.68000 0.82000 0.97300 -0.12100
O 	O 	0.78140 0.21860 0.36660 -0.51100
C 	C 	0.72110 0.27890 0.47180 0.07800
C 	C 	0.68000 0.32000 0.47300 -0.12100
O 	O 	0.21860 0.78140 0.36660 -0.51100
C 	C 	0.27890 0.72110 0.47180 0.07800
C 	C 	0.32000 0.68000 0.47300 -0.12100
O 	O 	0.21860 0.71860 0.13340 -0.51100
C 	C 	0.27890 0.77890 0.02820 0.07800
C 	C 	0.32000 0.82000 0.02700 -0.12100
O 	O 	0.78140 0.28140 0.13340 -0.51100
C 	C 	0.72110 0.22110 0.02820 0.07800
C 	C 	0.68000 0.18000 0.02700 -0.12100
O 	O 	0.78140 0.78140 0.63340 -0.51100
C 	C 	0.72110 0.72110 0.52820 0.07800
C 	C 	0.68000 0.68000 0.52700 -0.12100
O 	O 	0.86660 0.78140 0.71860 -0.51100
C 	C 	0.97180 0.72110 0.77890 0.07800
C 	C 	0.97300 0.68000 0.82000 -0.12100
O 	O 	0.36660 0.78140 0.21860 -0.51100
C 	C 	0.47180 0.72110 0.27890 0.07800
C 	C 	0.47300 0.68000 0.32000 -0.12100
O 	O 	0.36660 0.21860 0.78140 -0.51100
C 	C 	0.47180 0.27890 0.72110 0.07800
C 	C 	0.47300 0.32000 0.68000 -0.12100
O 	O 	0.13340 0.21860 0.71860 -0.51100
C 	C 	0.02820 0.27890 0.77890 0.07800
C 	C 	0.02700 0.32000 0.82000 -0.12100
O 	O 	0.13340 0.78140 0.28140 -0.51100
C 	C 	0.02820 0.72110 0.22110 0.07800
C 	C 	0.02700 0.68000 0.18000 -0.12100
O 	O 	0.63340 0.78140 0.78140 -0.51100
C 	C 	0.52820 0.72110 0.72110 0.07800
C 	C 	0.52700 0.68000 0.68000 -0.12100
O 	O 	0.71860 0.86660 0.78140 -0.51100
C 	C 	0.77890 0.97180 0.72110 0.07800
C 	C 	0.82000 0.97300 0.68000 -0.12100
O 	O 	0.71860 0.36660 0.28140 -0.51100
C 	C 	0.77890 0.47180 0.22110 0.07800
C 	C 	0.82000 0.47300 0.18000 -0.12100
O 	O 	0.28140 0.36660 0.71860 -0.51100
C 	C 	0.22110 0.47180 0.77890 0.07800
C 	C 	0.18000 0.47300 0.82000 -0.12100
O 	O 	0.71860 0.13340 0.21860 -0.51100
C 	C 	0.77890 0.02820 0.27890 0.07800
C 	C 	0.82000 0.02700 0.32000 -0.12100
O 	O 	0.71860 0.63340 0.71860 -0.51100
C 	C 	0.77890 0.52820 0.77890 0.07800
C 	C 	0.82000 0.52700 0.82000 -0.12100
O 	O 	0.28140 0.13340 0.78140 -0.51100
C 	C 	0.22110 0.02820 0.72110 0.07800
C 	C 	0.18000 0.02700 0.68000 -0.12100
O 	O 	0.71860 0.78140 0.13340 -0.51100
C 	C 	0.77890 0.72110 0.02820 0.07800
C 	C 	0.82000 0.68000 0.02700 -0.12100
O 	O 	0.71860 0.28140 0.63340 -0.51100
C 	C 	0.77890 0.22110 0.52820 0.07800
C 	C 	0.82000 0.18000 0.52700 -0.12100
O 	O 	0.28140 0.71860 0.63340 -0.51100
C 	C 	0.22110 0.77890 0.52820 0.07800
C 	C 	0.18000 0.82000 0.52700 -0.12100
O 	O 	0.71860 0.21860 0.86660 -0.51100
C 	C 	0.77890 0.27890 0.97180 0.07800
C 	C 	0.82000 0.32000 0.97300 -0.12100
O 	O 	0.71860 0.71860 0.36660 -0.51100
C 	C 	0.77890 0.77890 0.47180 0.07800
C 	C 	0.82000 0.82000 0.47300 -0.12100
O 	O 	0.28140 0.78140 0.86660 -0.51100
C 	C 	0.22110 0.72110 0.97180 0.07800
C 	C 	0.18000 0.68000 0.97300 -0.12100
O 	O 	0.78140 0.86660 0.28140 -0.51100
C 	C 	0.72110 0.97180 0.22110 0.07800
C 	C 	0.68000 0.97300 0.18000 -0.12100
O 	O 	0.78140 0.36660 0.78140 -0.51100
C 	C 	0.72110 0.47180 0.72110 0.07800
C 	C 	0.68000 0.47300 0.68000 -0.12100
O 	O 	0.21860 0.86660 0.71860 -0.51100
C 	C 	0.27890 0.97180 0.77890 0.07800
C 	C 	0.32000 0.97300 0.82000 -0.12100
O 	O 	0.21860 0.63340 0.78140 -0.51100
C 	C 	0.27890 0.52820 0.72110 0.07800
C 	C 	0.32000 0.52700 0.68000 -0.12100
O 	O 	0.78140 0.13340 0.71860 -0.51100
C 	C 	0.72110 0.02820 0.77890 0.07800
C 	C 	0.68000 0.02700 0.82000 -0.12100
O 	O 	0.78140 0.63340 0.21860 -0.51100
C 	C 	0.72110 0.52820 0.27890 0.07800
C 	C 	0.68000 0.52700 0.32000 -0.12100
O 	O 	0.86660 0.71860 0.21860 -0.51100
C 	C 	0.97180 0.77890 0.27890 0.07800
C 	C 	0.97300 0.82000 0.32000 -0.12100
O 	O 	0.36660 0.71860 0.71860 -0.51100
C 	C 	0.47180 0.77890 0.77890 0.07800
C 	C 	0.47300 0.82000 0.82000 -0.12100
O 	O 	0.86660 0.28140 0.78140 -0.51100
C 	C 	0.97180 0.22110 0.72110 0.07800
C 	C 	0.97300 0.18000 0.68000 -0.12100
O 	O 	0.13340 0.71860 0.78140 -0.51100
C 	C 	0.02820 0.77890 0.72110 0.07800
C 	C 	0.02700 0.82000 0.68000 -0.12100
O 	O 	0.63340 0.71860 0.28140 -0.51100
C 	C 	0.52820 0.77890 0.22110 0.07800
C 	C 	0.52700 0.82000 0.18000 -0.12100
O 	O 	0.63340 0.28140 0.71860 -0.51100
C 	C 	0.52820 0.22110 0.77890 0.07800
C 	C 	0.52700 0.18000 0.82000 -0.12100
C 	C 	0.25000 0.25000 0.11200 0.40600
C 	C 	0.25000 0.25000 0.05650 -0.18800
C 	C 	0.25000 0.75000 0.61200 0.40600
C 	C 	0.25000 0.75000 0.55650 -0.18800
C 	C 	0.75000 0.75000 0.11200 0.40600
C 	C 	0.75000 0.75000 0.05650 -0.18800
C 	C 	0.75000 0.25000 0.61200 0.40600
C 	C 	0.75000 0.25000 0.55650 -0.18800
C 	C 	0.75000 0.25000 0.88800 0.40600
C 	C 	0.75000 0.25000 0.94350 -0.18800
C 	C 	0.75000 0.75000 0.38800 0.40600
C 	C 	0.75000 0.75000 0.44350 -0.18800
C 	C 	0.25000 0.25000 0.38800 0.40600
C 	C 	0.25000 0.25000 0.44350 -0.18800
C 	C 	0.25000 0.75000 0.88800 0.40600
C 	C 	0.25000 0.75000 0.94350 -0.18800
C 	C 	0.11200 0.25000 0.25000 0.40600
C 	C 	0.05650 0.25000 0.25000 -0.18800
C 	C 	0.61200 0.25000 0.75000 0.40600
C 	C 	0.55650 0.25000 0.75000 -0.18800
C 	C 	0.11200 0.75000 0.75000 0.40600
C 	C 	0.05650 0.75000 0.75000 -0.18800
C 	C 	0.61200 0.75000 0.25000 0.40600
C 	C 	0.55650 0.75000 0.25000 -0.18800
C 	C 	0.88800 0.75000 0.25000 0.40600
C 	C 	0.94350 0.75000 0.25000 -0.18800
C 	C 	0.38800 0.75000 0.75000 0.40600
C 	C 	0.44350 0.75000 0.75000 -0.18800
C 	C 	0.38800 0.25000 0.25000 0.40600
C 	C 	0.44350 0.25000 0.25000 -0.18800
C 	C 	0.88800 0.25000 0.75000 0.40600
C 	C 	0.94350 0.25000 0.75000 -0.18800
C 	C 	0.25000 0.11200 0.25000 0.40600
C 	C 	0.25000 0.05650 0.25000 -0.18800
C 	C 	0.25000 0.61200 0.75000 0.40600
C 	C 	0.25000 0.55650 0.75000 -0.18800
C 	C 	0.75000 0.11200 0.75000 0.40600
C 	C 	0.75000 0.05650 0.75000 -0.18800
C 	C 	0.75000 0.61200 0.25000 0.40600
C 	C 	0.75000 0.55650 0.25000 -0.18800
C 	C 	0.25000 0.88800 0.75000 0.40600
C 	C 	0.25000 0.94350 0.75000 -0.18800
C 	C 	0.25000 0.38800 0.25000 0.40600
C 	C 	0.25000 0.44350 0.25000 -0.18800
C 	C 	0.75000 0.88800 0.25000 0.40600
C 	C 	0.75000 0.94350 0.25000 -0.18800
C 	C 	0.75000 0.38800 0.75000 0.40600
C 	C 	0.75000 0.44350 0.75000 -0.18800
C 	C 	0.25000 0.25000 0.88800 0.40600
C 	C 	0.25000 0.25000 0.94350 -0.18800
C 	C 	0.25000 0.75000 0.38800 0.40600
C 	C 	0.25000 0.75000 0.44350 -0.18800
C 	C 	0.75000 0.75000 0.88800 0.40600
C 	C 	0.75000 0.75000 0.94350 -0.18800
C 	C 	0.75000 0.25000 0.38800 0.40600
C 	C 	0.75000 0.25000 0.44350 -0.18800
C 	C 	0.25000 0.75000 0.11200 0.40600
C 	C 	0.25000 0.75000 0.05650 -0.18800
C 	C 	0.25000 0.25000 0.61200 0.40600
C 	C 	0.25000 0.25000 0.55650 -0.18800
C 	C 	0.75000 0.25000 0.11200 0.40600
C 	C 	0.75000 0.25000 0.05650 -0.18800
C 	C 	0.75000 0.75000 0.61200 0.40600
C 	C 	0.75000 0.75000 0.55650 -0.18800
C 	C 	0.25000 0.11200 0.75000 0.40600
C 	C 	0.25000 0.05650 0.75000 -0.18800
C 	C 	0.25000 0.61200 0.25000 0.40600
C 	C 	0.25000 0.55650 0.25000 -0.18800
C 	C 	0.75000 0.11200 0.25000 0.40600
C 	C 	0.75000 0.05650 0.25000 -0.18800
C 	C 	0.75000 0.61200 0.75000 0.40600
C 	C 	0.75000 0.55650 0.75000 -0.18800
C 	C 	0.75000 0.88800 0.75000 0.40600
C 	C 	0.75000 0.94350 0.75000 -0.18800
C 	C 	0.75000 0.38800 0.25000 0.40600
C 	C 	0.75000 0.44350 0.25000 -0.18800
C 	C 	0.25000 0.88800 0.25000 0.40600
C 	C 	0.25000 0.94350 0.25000 -0.18800
C 	C 	0.25000 0.38800 0.75000 0.40600
C 	C 	0.25000 0.44350 0.75000 -0.18800
C 	C 	0.11200 0.25000 0.75000 0.40600
C 	C 	0.05650 0.25000 0.75000 -0.18800
C 	C 	0.61200 0.25000 0.25000 0.40600
C 	C 	0.55650 0.25000 0.25000 -0.18800
C 	C 	0.11200 0.75000 0.25000 0.40600
C 	C 	0.05650 0.75000 0.25000 -0.18800
C 	C 	0.61200 0.75000 0.75000 0.40600
C 	C 	0.55650 0.75000 0.75000 -0.18800
C 	C 	0.88800 0.25000 0.25000 0.40600
C 	C 	0.94350 0.25000 0.25000 -0.18800
C 	C 	0.38800 0.25000 0.75000 0.40600
C 	C 	0.44350 0.25000 0.75000 -0.18800
C 	C 	0.88800 0.75000 0.75000 0.40600
C 	C 	0.94350 0.75000 0.75000 -0.18800
C 	C 	0.38800 0.75000 0.25000 0.40600
C 	C 	0.44350 0.75000 0.25000 -0.18800
