data_crystal

_cell_length_a 34.28070
_cell_length_b 34.28070
_cell_length_c 34.28070
_cell_angle_alpha 90.00000
_cell_angle_beta  90.00000
_cell_angle_gamma 90.00000

_symmetry_space_group_name_	'P 1'
_symmetry_space_group_name_H-M	'P 1'

loop_
_symmetry_equiv_pos_as_xyz
  x,y,z

loop_
_atom_site_label
_atom_site_type_symbol
_atom_site_fract_x
_atom_site_fract_y
_atom_site_fract_z
_atom_site_charge
C 	C 	0.19100 0.21200 0.01850 -0.00400
C 	C 	0.19100 0.71200 0.51850 -0.00400
C 	C 	0.69100 0.21200 0.51850 -0.00400
C 	C 	0.69100 0.71200 0.01850 -0.00400
C 	C 	0.80900 0.78800 0.01850 -0.00400
C 	C 	0.80900 0.28800 0.51850 -0.00400
C 	C 	0.30900 0.78800 0.51850 -0.00400
C 	C 	0.30900 0.28800 0.01850 -0.00400
C 	C 	0.80900 0.21200 0.98150 -0.00400
C 	C 	0.80900 0.71200 0.48150 -0.00400
C 	C 	0.30900 0.21200 0.48150 -0.00400
C 	C 	0.30900 0.71200 0.98150 -0.00400
C 	C 	0.19100 0.78800 0.98150 -0.00400
C 	C 	0.19100 0.28800 0.48150 -0.00400
C 	C 	0.69100 0.78800 0.48150 -0.00400
C 	C 	0.69100 0.28800 0.98150 -0.00400
C 	C 	0.01850 0.19100 0.21200 -0.00400
C 	C 	0.01850 0.69100 0.71200 -0.00400
C 	C 	0.51850 0.19100 0.71200 -0.00400
C 	C 	0.51850 0.69100 0.21200 -0.00400
C 	C 	0.01850 0.80900 0.78800 -0.00400
C 	C 	0.01850 0.30900 0.28800 -0.00400
C 	C 	0.51850 0.80900 0.28800 -0.00400
C 	C 	0.51850 0.30900 0.78800 -0.00400
C 	C 	0.98150 0.80900 0.21200 -0.00400
C 	C 	0.98150 0.30900 0.71200 -0.00400
C 	C 	0.48150 0.80900 0.71200 -0.00400
C 	C 	0.48150 0.30900 0.21200 -0.00400
C 	C 	0.98150 0.19100 0.78800 -0.00400
C 	C 	0.98150 0.69100 0.28800 -0.00400
C 	C 	0.48150 0.19100 0.28800 -0.00400
C 	C 	0.48150 0.69100 0.78800 -0.00400
C 	C 	0.21200 0.01850 0.19100 -0.00400
C 	C 	0.21200 0.51850 0.69100 -0.00400
C 	C 	0.71200 0.01850 0.69100 -0.00400
C 	C 	0.71200 0.51850 0.19100 -0.00400
C 	C 	0.78800 0.01850 0.80900 -0.00400
C 	C 	0.78800 0.51850 0.30900 -0.00400
C 	C 	0.28800 0.01850 0.30900 -0.00400
C 	C 	0.28800 0.51850 0.80900 -0.00400
C 	C 	0.21200 0.98150 0.80900 -0.00400
C 	C 	0.21200 0.48150 0.30900 -0.00400
C 	C 	0.71200 0.98150 0.30900 -0.00400
C 	C 	0.71200 0.48150 0.80900 -0.00400
C 	C 	0.78800 0.98150 0.19100 -0.00400
C 	C 	0.78800 0.48150 0.69100 -0.00400
C 	C 	0.28800 0.98150 0.69100 -0.00400
C 	C 	0.28800 0.48150 0.19100 -0.00400
C 	C 	0.21200 0.19100 0.98150 -0.00400
C 	C 	0.21200 0.69100 0.48150 -0.00400
C 	C 	0.71200 0.19100 0.48150 -0.00400
C 	C 	0.71200 0.69100 0.98150 -0.00400
C 	C 	0.78800 0.80900 0.98150 -0.00400
C 	C 	0.78800 0.30900 0.48150 -0.00400
C 	C 	0.28800 0.80900 0.48150 -0.00400
C 	C 	0.28800 0.30900 0.98150 -0.00400
C 	C 	0.21200 0.80900 0.01850 -0.00400
C 	C 	0.21200 0.30900 0.51850 -0.00400
C 	C 	0.71200 0.80900 0.51850 -0.00400
C 	C 	0.71200 0.30900 0.01850 -0.00400
C 	C 	0.78800 0.19100 0.01850 -0.00400
C 	C 	0.78800 0.69100 0.51850 -0.00400
C 	C 	0.28800 0.19100 0.51850 -0.00400
C 	C 	0.28800 0.69100 0.01850 -0.00400
C 	C 	0.19100 0.01850 0.78800 -0.00400
C 	C 	0.19100 0.51850 0.28800 -0.00400
C 	C 	0.69100 0.01850 0.28800 -0.00400
C 	C 	0.69100 0.51850 0.78800 -0.00400
C 	C 	0.80900 0.01850 0.21200 -0.00400
C 	C 	0.80900 0.51850 0.71200 -0.00400
C 	C 	0.30900 0.01850 0.71200 -0.00400
C 	C 	0.30900 0.51850 0.21200 -0.00400
C 	C 	0.80900 0.98150 0.78800 -0.00400
C 	C 	0.80900 0.48150 0.28800 -0.00400
C 	C 	0.30900 0.98150 0.28800 -0.00400
C 	C 	0.30900 0.48150 0.78800 -0.00400
C 	C 	0.19100 0.98150 0.21200 -0.00400
C 	C 	0.19100 0.48150 0.71200 -0.00400
C 	C 	0.69100 0.98150 0.71200 -0.00400
C 	C 	0.69100 0.48150 0.21200 -0.00400
C 	C 	0.01850 0.21200 0.80900 -0.00400
C 	C 	0.01850 0.71200 0.30900 -0.00400
C 	C 	0.51850 0.21200 0.30900 -0.00400
C 	C 	0.51850 0.71200 0.80900 -0.00400
C 	C 	0.01850 0.78800 0.19100 -0.00400
C 	C 	0.01850 0.28800 0.69100 -0.00400
C 	C 	0.51850 0.78800 0.69100 -0.00400
C 	C 	0.51850 0.28800 0.19100 -0.00400
C 	C 	0.98150 0.21200 0.19100 -0.00400
C 	C 	0.98150 0.71200 0.69100 -0.00400
C 	C 	0.48150 0.21200 0.69100 -0.00400
C 	C 	0.48150 0.71200 0.19100 -0.00400
C 	C 	0.98150 0.78800 0.80900 -0.00400
C 	C 	0.98150 0.28800 0.30900 -0.00400
C 	C 	0.48150 0.78800 0.30900 -0.00400
C 	C 	0.48150 0.28800 0.80900 -0.00400
C 	C 	0.80900 0.78800 0.98150 -0.00400
C 	C 	0.80900 0.28800 0.48150 -0.00400
C 	C 	0.30900 0.78800 0.48150 -0.00400
C 	C 	0.30900 0.28800 0.98150 -0.00400
C 	C 	0.19100 0.21200 0.98150 -0.00400
C 	C 	0.19100 0.71200 0.48150 -0.00400
C 	C 	0.69100 0.21200 0.48150 -0.00400
C 	C 	0.69100 0.71200 0.98150 -0.00400
C 	C 	0.19100 0.78800 0.01850 -0.00400
C 	C 	0.19100 0.28800 0.51850 -0.00400
C 	C 	0.69100 0.78800 0.51850 -0.00400
C 	C 	0.69100 0.28800 0.01850 -0.00400
C 	C 	0.80900 0.21200 0.01850 -0.00400
C 	C 	0.80900 0.71200 0.51850 -0.00400
C 	C 	0.30900 0.21200 0.51850 -0.00400
C 	C 	0.30900 0.71200 0.01850 -0.00400
C 	C 	0.98150 0.80900 0.78800 -0.00400
C 	C 	0.98150 0.30900 0.28800 -0.00400
C 	C 	0.48150 0.80900 0.28800 -0.00400
C 	C 	0.48150 0.30900 0.78800 -0.00400
C 	C 	0.98150 0.19100 0.21200 -0.00400
C 	C 	0.98150 0.69100 0.71200 -0.00400
C 	C 	0.48150 0.19100 0.71200 -0.00400
C 	C 	0.48150 0.69100 0.21200 -0.00400
C 	C 	0.01850 0.19100 0.78800 -0.00400
C 	C 	0.01850 0.69100 0.28800 -0.00400
C 	C 	0.51850 0.19100 0.28800 -0.00400
C 	C 	0.51850 0.69100 0.78800 -0.00400
C 	C 	0.01850 0.80900 0.21200 -0.00400
C 	C 	0.01850 0.30900 0.71200 -0.00400
C 	C 	0.51850 0.80900 0.71200 -0.00400
C 	C 	0.51850 0.30900 0.21200 -0.00400
C 	C 	0.78800 0.98150 0.80900 -0.00400
C 	C 	0.78800 0.48150 0.30900 -0.00400
C 	C 	0.28800 0.98150 0.30900 -0.00400
C 	C 	0.28800 0.48150 0.80900 -0.00400
C 	C 	0.21200 0.98150 0.19100 -0.00400
C 	C 	0.21200 0.48150 0.69100 -0.00400
C 	C 	0.71200 0.98150 0.69100 -0.00400
C 	C 	0.71200 0.48150 0.19100 -0.00400
C 	C 	0.78800 0.01850 0.19100 -0.00400
C 	C 	0.78800 0.51850 0.69100 -0.00400
C 	C 	0.28800 0.01850 0.69100 -0.00400
C 	C 	0.28800 0.51850 0.19100 -0.00400
C 	C 	0.21200 0.01850 0.80900 -0.00400
C 	C 	0.21200 0.51850 0.30900 -0.00400
C 	C 	0.71200 0.01850 0.30900 -0.00400
C 	C 	0.71200 0.51850 0.80900 -0.00400
C 	C 	0.78800 0.80900 0.01850 -0.00400
C 	C 	0.78800 0.30900 0.51850 -0.00400
C 	C 	0.28800 0.80900 0.51850 -0.00400
C 	C 	0.28800 0.30900 0.01850 -0.00400
C 	C 	0.21200 0.19100 0.01850 -0.00400
C 	C 	0.21200 0.69100 0.51850 -0.00400
C 	C 	0.71200 0.19100 0.51850 -0.00400
C 	C 	0.71200 0.69100 0.01850 -0.00400
C 	C 	0.78800 0.19100 0.98150 -0.00400
C 	C 	0.78800 0.69100 0.48150 -0.00400
C 	C 	0.28800 0.19100 0.48150 -0.00400
C 	C 	0.28800 0.69100 0.98150 -0.00400
C 	C 	0.21200 0.80900 0.98150 -0.00400
C 	C 	0.21200 0.30900 0.48150 -0.00400
C 	C 	0.71200 0.80900 0.48150 -0.00400
C 	C 	0.71200 0.30900 0.98150 -0.00400
C 	C 	0.80900 0.98150 0.21200 -0.00400
C 	C 	0.80900 0.48150 0.71200 -0.00400
C 	C 	0.30900 0.98150 0.71200 -0.00400
C 	C 	0.30900 0.48150 0.21200 -0.00400
C 	C 	0.19100 0.98150 0.78800 -0.00400
C 	C 	0.19100 0.48150 0.28800 -0.00400
C 	C 	0.69100 0.98150 0.28800 -0.00400
C 	C 	0.69100 0.48150 0.78800 -0.00400
C 	C 	0.19100 0.01850 0.21200 -0.00400
C 	C 	0.19100 0.51850 0.71200 -0.00400
C 	C 	0.69100 0.01850 0.71200 -0.00400
C 	C 	0.69100 0.51850 0.21200 -0.00400
C 	C 	0.80900 0.01850 0.78800 -0.00400
C 	C 	0.80900 0.51850 0.28800 -0.00400
C 	C 	0.30900 0.01850 0.28800 -0.00400
C 	C 	0.30900 0.51850 0.78800 -0.00400
C 	C 	0.98150 0.78800 0.19100 -0.00400
C 	C 	0.98150 0.28800 0.69100 -0.00400
C 	C 	0.48150 0.78800 0.69100 -0.00400
C 	C 	0.48150 0.28800 0.19100 -0.00400
C 	C 	0.98150 0.21200 0.80900 -0.00400
C 	C 	0.98150 0.71200 0.30900 -0.00400
C 	C 	0.48150 0.21200 0.30900 -0.00400
C 	C 	0.48150 0.71200 0.80900 -0.00400
C 	C 	0.01850 0.78800 0.80900 -0.00400
C 	C 	0.01850 0.28800 0.30900 -0.00400
C 	C 	0.51850 0.78800 0.30900 -0.00400
C 	C 	0.51850 0.28800 0.80900 -0.00400
C 	C 	0.01850 0.21200 0.19100 -0.00400
C 	C 	0.01850 0.71200 0.69100 -0.00400
C 	C 	0.51850 0.21200 0.69100 -0.00400
C 	C 	0.51850 0.71200 0.19100 -0.00400
Zn	Zn	0.21728 0.21728 0.21728 1.21600
Zn	Zn	0.21728 0.71728 0.71728 1.21600
Zn	Zn	0.71728 0.21728 0.71728 1.21600
Zn	Zn	0.71728 0.71728 0.21728 1.21600
Zn	Zn	0.78272 0.78272 0.21728 1.21600
Zn	Zn	0.78272 0.28272 0.71728 1.21600
Zn	Zn	0.28272 0.78272 0.71728 1.21600
Zn	Zn	0.28272 0.28272 0.21728 1.21600
Zn	Zn	0.78272 0.21728 0.78272 1.21600
Zn	Zn	0.78272 0.71728 0.28272 1.21600
Zn	Zn	0.28272 0.21728 0.28272 1.21600
Zn	Zn	0.28272 0.71728 0.78272 1.21600
Zn	Zn	0.21728 0.78272 0.78272 1.21600
Zn	Zn	0.21728 0.28272 0.28272 1.21600
Zn	Zn	0.71728 0.78272 0.28272 1.21600
Zn	Zn	0.71728 0.28272 0.78272 1.21600
Zn	Zn	0.21728 0.21728 0.78272 1.21600
Zn	Zn	0.21728 0.71728 0.28272 1.21600
Zn	Zn	0.71728 0.21728 0.28272 1.21600
Zn	Zn	0.71728 0.71728 0.78272 1.21600
Zn	Zn	0.78272 0.78272 0.78272 1.21600
Zn	Zn	0.78272 0.28272 0.28272 1.21600
Zn	Zn	0.28272 0.78272 0.28272 1.21600
Zn	Zn	0.28272 0.28272 0.78272 1.21600
Zn	Zn	0.21728 0.78272 0.21728 1.21600
Zn	Zn	0.21728 0.28272 0.71728 1.21600
Zn	Zn	0.71728 0.78272 0.71728 1.21600
Zn	Zn	0.71728 0.28272 0.21728 1.21600
Zn	Zn	0.78272 0.21728 0.21728 1.21600
Zn	Zn	0.78272 0.71728 0.71728 1.21600
Zn	Zn	0.28272 0.21728 0.71728 1.21600
Zn	Zn	0.28272 0.71728 0.21728 1.21600
O 	O 	0.25000 0.25000 0.25000 -0.95200
O 	O 	0.75000 0.75000 0.25000 -0.95200
O 	O 	0.75000 0.25000 0.75000 -0.95200
O 	O 	0.25000 0.75000 0.75000 -0.95200
O 	O 	0.25000 0.25000 0.75000 -0.95200
O 	O 	0.75000 0.75000 0.75000 -0.95200
O 	O 	0.75000 0.25000 0.25000 -0.95200
O 	O 	0.25000 0.75000 0.25000 -0.95200
O 	O 	0.22800 0.22800 0.16230 -0.54700
C 	C 	0.22670 0.22670 0.07930 0.00700
H 	H 	0.20940 0.20940 0.09230 0.04500
C 	C 	0.22620 0.22620 0.03870 -0.00600
O 	O 	0.22800 0.72800 0.66230 -0.54700
C 	C 	0.22670 0.72670 0.57930 0.00700
H 	H 	0.20940 0.70940 0.59230 0.04500
C 	C 	0.22620 0.72620 0.53870 -0.00600
O 	O 	0.72800 0.22800 0.66230 -0.54700
C 	C 	0.72670 0.22670 0.57930 0.00700
H 	H 	0.70940 0.20940 0.59230 0.04500
C 	C 	0.72620 0.22620 0.53870 -0.00600
O 	O 	0.72800 0.72800 0.16230 -0.54700
C 	C 	0.72670 0.72670 0.07930 0.00700
H 	H 	0.70940 0.70940 0.09230 0.04500
C 	C 	0.72620 0.72620 0.03870 -0.00600
O 	O 	0.77200 0.77200 0.16230 -0.54700
C 	C 	0.77330 0.77330 0.07930 0.00700
H 	H 	0.79060 0.79060 0.09230 0.04500
C 	C 	0.77380 0.77380 0.03870 -0.00600
O 	O 	0.77200 0.27200 0.66230 -0.54700
C 	C 	0.77330 0.27330 0.57930 0.00700
H 	H 	0.79060 0.29060 0.59230 0.04500
C 	C 	0.77380 0.27380 0.53870 -0.00600
O 	O 	0.27200 0.77200 0.66230 -0.54700
C 	C 	0.27330 0.77330 0.57930 0.00700
H 	H 	0.29060 0.79060 0.59230 0.04500
C 	C 	0.27380 0.77380 0.53870 -0.00600
O 	O 	0.27200 0.27200 0.16230 -0.54700
C 	C 	0.27330 0.27330 0.07930 0.00700
H 	H 	0.29060 0.29060 0.09230 0.04500
C 	C 	0.27380 0.27380 0.03870 -0.00600
O 	O 	0.77200 0.22800 0.83770 -0.54700
C 	C 	0.77330 0.22670 0.92070 0.00700
H 	H 	0.79060 0.20940 0.90770 0.04500
C 	C 	0.77380 0.22620 0.96130 -0.00600
O 	O 	0.77200 0.72800 0.33770 -0.54700
C 	C 	0.77330 0.72670 0.42070 0.00700
H 	H 	0.79060 0.70940 0.40770 0.04500
C 	C 	0.77380 0.72620 0.46130 -0.00600
O 	O 	0.27200 0.22800 0.33770 -0.54700
C 	C 	0.27330 0.22670 0.42070 0.00700
H 	H 	0.29060 0.20940 0.40770 0.04500
C 	C 	0.27380 0.22620 0.46130 -0.00600
O 	O 	0.27200 0.72800 0.83770 -0.54700
C 	C 	0.27330 0.72670 0.92070 0.00700
H 	H 	0.29060 0.70940 0.90770 0.04500
C 	C 	0.27380 0.72620 0.96130 -0.00600
O 	O 	0.22800 0.77200 0.83770 -0.54700
C 	C 	0.22670 0.77330 0.92070 0.00700
H 	H 	0.20940 0.79060 0.90770 0.04500
C 	C 	0.22620 0.77380 0.96130 -0.00600
O 	O 	0.22800 0.27200 0.33770 -0.54700
C 	C 	0.22670 0.27330 0.42070 0.00700
H 	H 	0.20940 0.29060 0.40770 0.04500
C 	C 	0.22620 0.27380 0.46130 -0.00600
O 	O 	0.72800 0.77200 0.33770 -0.54700
C 	C 	0.72670 0.77330 0.42070 0.00700
H 	H 	0.70940 0.79060 0.40770 0.04500
C 	C 	0.72620 0.77380 0.46130 -0.00600
O 	O 	0.72800 0.27200 0.83770 -0.54700
C 	C 	0.72670 0.27330 0.92070 0.00700
H 	H 	0.70940 0.29060 0.90770 0.04500
C 	C 	0.72620 0.27380 0.96130 -0.00600
O 	O 	0.16230 0.22800 0.22800 -0.54700
C 	C 	0.07930 0.22670 0.22670 0.00700
H 	H 	0.09230 0.20940 0.20940 0.04500
C 	C 	0.03870 0.22620 0.22620 -0.00600
O 	O 	0.16230 0.72800 0.72800 -0.54700
C 	C 	0.07930 0.72670 0.72670 0.00700
H 	H 	0.09230 0.70940 0.70940 0.04500
C 	C 	0.03870 0.72620 0.72620 -0.00600
O 	O 	0.66230 0.22800 0.72800 -0.54700
C 	C 	0.57930 0.22670 0.72670 0.00700
H 	H 	0.59230 0.20940 0.70940 0.04500
C 	C 	0.53870 0.22620 0.72620 -0.00600
O 	O 	0.66230 0.72800 0.22800 -0.54700
C 	C 	0.57930 0.72670 0.22670 0.00700
H 	H 	0.59230 0.70940 0.20940 0.04500
C 	C 	0.53870 0.72620 0.22620 -0.00600
O 	O 	0.16230 0.77200 0.77200 -0.54700
C 	C 	0.07930 0.77330 0.77330 0.00700
H 	H 	0.09230 0.79060 0.79060 0.04500
C 	C 	0.03870 0.77380 0.77380 -0.00600
O 	O 	0.16230 0.27200 0.27200 -0.54700
C 	C 	0.07930 0.27330 0.27330 0.00700
H 	H 	0.09230 0.29060 0.29060 0.04500
C 	C 	0.03870 0.27380 0.27380 -0.00600
O 	O 	0.66230 0.77200 0.27200 -0.54700
C 	C 	0.57930 0.77330 0.27330 0.00700
H 	H 	0.59230 0.79060 0.29060 0.04500
C 	C 	0.53870 0.77380 0.27380 -0.00600
O 	O 	0.66230 0.27200 0.77200 -0.54700
C 	C 	0.57930 0.27330 0.77330 0.00700
H 	H 	0.59230 0.29060 0.79060 0.04500
C 	C 	0.53870 0.27380 0.77380 -0.00600
O 	O 	0.83770 0.77200 0.22800 -0.54700
C 	C 	0.92070 0.77330 0.22670 0.00700
H 	H 	0.90770 0.79060 0.20940 0.04500
C 	C 	0.96130 0.77380 0.22620 -0.00600
O 	O 	0.83770 0.27200 0.72800 -0.54700
C 	C 	0.92070 0.27330 0.72670 0.00700
H 	H 	0.90770 0.29060 0.70940 0.04500
C 	C 	0.96130 0.27380 0.72620 -0.00600
O 	O 	0.33770 0.77200 0.72800 -0.54700
C 	C 	0.42070 0.77330 0.72670 0.00700
H 	H 	0.40770 0.79060 0.70940 0.04500
C 	C 	0.46130 0.77380 0.72620 -0.00600
O 	O 	0.33770 0.27200 0.22800 -0.54700
C 	C 	0.42070 0.27330 0.22670 0.00700
H 	H 	0.40770 0.29060 0.20940 0.04500
C 	C 	0.46130 0.27380 0.22620 -0.00600
O 	O 	0.83770 0.22800 0.77200 -0.54700
C 	C 	0.92070 0.22670 0.77330 0.00700
H 	H 	0.90770 0.20940 0.79060 0.04500
C 	C 	0.96130 0.22620 0.77380 -0.00600
O 	O 	0.83770 0.72800 0.27200 -0.54700
C 	C 	0.92070 0.72670 0.27330 0.00700
H 	H 	0.90770 0.70940 0.29060 0.04500
C 	C 	0.96130 0.72620 0.27380 -0.00600
O 	O 	0.33770 0.22800 0.27200 -0.54700
C 	C 	0.42070 0.22670 0.27330 0.00700
H 	H 	0.40770 0.20940 0.29060 0.04500
C 	C 	0.46130 0.22620 0.27380 -0.00600
O 	O 	0.33770 0.72800 0.77200 -0.54700
C 	C 	0.42070 0.72670 0.77330 0.00700
H 	H 	0.40770 0.70940 0.79060 0.04500
C 	C 	0.46130 0.72620 0.77380 -0.00600
O 	O 	0.22800 0.16230 0.22800 -0.54700
C 	C 	0.22670 0.07930 0.22670 0.00700
H 	H 	0.20940 0.09230 0.20940 0.04500
C 	C 	0.22620 0.03870 0.22620 -0.00600
O 	O 	0.22800 0.66230 0.72800 -0.54700
C 	C 	0.22670 0.57930 0.72670 0.00700
H 	H 	0.20940 0.59230 0.70940 0.04500
C 	C 	0.22620 0.53870 0.72620 -0.00600
O 	O 	0.72800 0.16230 0.72800 -0.54700
C 	C 	0.72670 0.07930 0.72670 0.00700
H 	H 	0.70940 0.09230 0.70940 0.04500
C 	C 	0.72620 0.03870 0.72620 -0.00600
O 	O 	0.72800 0.66230 0.22800 -0.54700
C 	C 	0.72670 0.57930 0.22670 0.00700
H 	H 	0.70940 0.59230 0.20940 0.04500
C 	C 	0.72620 0.53870 0.22620 -0.00600
O 	O 	0.77200 0.16230 0.77200 -0.54700
C 	C 	0.77330 0.07930 0.77330 0.00700
H 	H 	0.79060 0.09230 0.79060 0.04500
C 	C 	0.77380 0.03870 0.77380 -0.00600
O 	O 	0.77200 0.66230 0.27200 -0.54700
C 	C 	0.77330 0.57930 0.27330 0.00700
H 	H 	0.79060 0.59230 0.29060 0.04500
C 	C 	0.77380 0.53870 0.27380 -0.00600
O 	O 	0.27200 0.16230 0.27200 -0.54700
C 	C 	0.27330 0.07930 0.27330 0.00700
H 	H 	0.29060 0.09230 0.29060 0.04500
C 	C 	0.27380 0.03870 0.27380 -0.00600
O 	O 	0.27200 0.66230 0.77200 -0.54700
C 	C 	0.27330 0.57930 0.77330 0.00700
H 	H 	0.29060 0.59230 0.79060 0.04500
C 	C 	0.27380 0.53870 0.77380 -0.00600
O 	O 	0.22800 0.83770 0.77200 -0.54700
C 	C 	0.22670 0.92070 0.77330 0.00700
H 	H 	0.20940 0.90770 0.79060 0.04500
C 	C 	0.22620 0.96130 0.77380 -0.00600
O 	O 	0.22800 0.33770 0.27200 -0.54700
C 	C 	0.22670 0.42070 0.27330 0.00700
H 	H 	0.20940 0.40770 0.29060 0.04500
C 	C 	0.22620 0.46130 0.27380 -0.00600
O 	O 	0.72800 0.83770 0.27200 -0.54700
C 	C 	0.72670 0.92070 0.27330 0.00700
H 	H 	0.70940 0.90770 0.29060 0.04500
C 	C 	0.72620 0.96130 0.27380 -0.00600
O 	O 	0.72800 0.33770 0.77200 -0.54700
C 	C 	0.72670 0.42070 0.77330 0.00700
H 	H 	0.70940 0.40770 0.79060 0.04500
C 	C 	0.72620 0.46130 0.77380 -0.00600
O 	O 	0.77200 0.83770 0.22800 -0.54700
C 	C 	0.77330 0.92070 0.22670 0.00700
H 	H 	0.79060 0.90770 0.20940 0.04500
C 	C 	0.77380 0.96130 0.22620 -0.00600
O 	O 	0.77200 0.33770 0.72800 -0.54700
C 	C 	0.77330 0.42070 0.72670 0.00700
H 	H 	0.79060 0.40770 0.70940 0.04500
C 	C 	0.77380 0.46130 0.72620 -0.00600
O 	O 	0.27200 0.83770 0.72800 -0.54700
C 	C 	0.27330 0.92070 0.72670 0.00700
H 	H 	0.29060 0.90770 0.70940 0.04500
C 	C 	0.27380 0.96130 0.72620 -0.00600
O 	O 	0.27200 0.33770 0.22800 -0.54700
C 	C 	0.27330 0.42070 0.22670 0.00700
H 	H 	0.29060 0.40770 0.20940 0.04500
C 	C 	0.27380 0.46130 0.22620 -0.00600
O 	O 	0.22800 0.22800 0.83770 -0.54700
C 	C 	0.22670 0.22670 0.92070 0.00700
H 	H 	0.20940 0.20940 0.90770 0.04500
C 	C 	0.22620 0.22620 0.96130 -0.00600
O 	O 	0.22800 0.72800 0.33770 -0.54700
C 	C 	0.22670 0.72670 0.42070 0.00700
H 	H 	0.20940 0.70940 0.40770 0.04500
C 	C 	0.22620 0.72620 0.46130 -0.00600
O 	O 	0.72800 0.22800 0.33770 -0.54700
C 	C 	0.72670 0.22670 0.42070 0.00700
H 	H 	0.70940 0.20940 0.40770 0.04500
C 	C 	0.72620 0.22620 0.46130 -0.00600
O 	O 	0.72800 0.72800 0.83770 -0.54700
C 	C 	0.72670 0.72670 0.92070 0.00700
H 	H 	0.70940 0.70940 0.90770 0.04500
C 	C 	0.72620 0.72620 0.96130 -0.00600
O 	O 	0.77200 0.77200 0.83770 -0.54700
C 	C 	0.77330 0.77330 0.92070 0.00700
H 	H 	0.79060 0.79060 0.90770 0.04500
C 	C 	0.77380 0.77380 0.96130 -0.00600
O 	O 	0.77200 0.27200 0.33770 -0.54700
C 	C 	0.77330 0.27330 0.42070 0.00700
H 	H 	0.79060 0.29060 0.40770 0.04500
C 	C 	0.77380 0.27380 0.46130 -0.00600
O 	O 	0.27200 0.77200 0.33770 -0.54700
C 	C 	0.27330 0.77330 0.42070 0.00700
H 	H 	0.29060 0.79060 0.40770 0.04500
C 	C 	0.27380 0.77380 0.46130 -0.00600
O 	O 	0.27200 0.27200 0.83770 -0.54700
C 	C 	0.27330 0.27330 0.92070 0.00700
H 	H 	0.29060 0.29060 0.90770 0.04500
C 	C 	0.27380 0.27380 0.96130 -0.00600
O 	O 	0.22800 0.77200 0.16230 -0.54700
C 	C 	0.22670 0.77330 0.07930 0.00700
H 	H 	0.20940 0.79060 0.09230 0.04500
C 	C 	0.22620 0.77380 0.03870 -0.00600
O 	O 	0.22800 0.27200 0.66230 -0.54700
C 	C 	0.22670 0.27330 0.57930 0.00700
H 	H 	0.20940 0.29060 0.59230 0.04500
C 	C 	0.22620 0.27380 0.53870 -0.00600
O 	O 	0.72800 0.77200 0.66230 -0.54700
C 	C 	0.72670 0.77330 0.57930 0.00700
H 	H 	0.70940 0.79060 0.59230 0.04500
C 	C 	0.72620 0.77380 0.53870 -0.00600
O 	O 	0.72800 0.27200 0.16230 -0.54700
C 	C 	0.72670 0.27330 0.07930 0.00700
H 	H 	0.70940 0.29060 0.09230 0.04500
C 	C 	0.72620 0.27380 0.03870 -0.00600
O 	O 	0.77200 0.22800 0.16230 -0.54700
C 	C 	0.77330 0.22670 0.07930 0.00700
H 	H 	0.79060 0.20940 0.09230 0.04500
C 	C 	0.77380 0.22620 0.03870 -0.00600
O 	O 	0.77200 0.72800 0.66230 -0.54700
C 	C 	0.77330 0.72670 0.57930 0.00700
H 	H 	0.79060 0.70940 0.59230 0.04500
C 	C 	0.77380 0.72620 0.53870 -0.00600
O 	O 	0.27200 0.22800 0.66230 -0.54700
C 	C 	0.27330 0.22670 0.57930 0.00700
H 	H 	0.29060 0.20940 0.59230 0.04500
C 	C 	0.27380 0.22620 0.53870 -0.00600
O 	O 	0.27200 0.72800 0.16230 -0.54700
C 	C 	0.27330 0.72670 0.07930 0.00700
H 	H 	0.29060 0.70940 0.09230 0.04500
C 	C 	0.27380 0.72620 0.03870 -0.00600
O 	O 	0.22800 0.16230 0.77200 -0.54700
C 	C 	0.22670 0.07930 0.77330 0.00700
H 	H 	0.20940 0.09230 0.79060 0.04500
C 	C 	0.22620 0.03870 0.77380 -0.00600
O 	O 	0.22800 0.66230 0.27200 -0.54700
C 	C 	0.22670 0.57930 0.27330 0.00700
H 	H 	0.20940 0.59230 0.29060 0.04500
C 	C 	0.22620 0.53870 0.27380 -0.00600
O 	O 	0.72800 0.16230 0.27200 -0.54700
C 	C 	0.72670 0.07930 0.27330 0.00700
H 	H 	0.70940 0.09230 0.29060 0.04500
C 	C 	0.72620 0.03870 0.27380 -0.00600
O 	O 	0.72800 0.66230 0.77200 -0.54700
C 	C 	0.72670 0.57930 0.77330 0.00700
H 	H 	0.70940 0.59230 0.79060 0.04500
C 	C 	0.72620 0.53870 0.77380 -0.00600
O 	O 	0.77200 0.16230 0.22800 -0.54700
C 	C 	0.77330 0.07930 0.22670 0.00700
H 	H 	0.79060 0.09230 0.20940 0.04500
C 	C 	0.77380 0.03870 0.22620 -0.00600
O 	O 	0.77200 0.66230 0.72800 -0.54700
C 	C 	0.77330 0.57930 0.72670 0.00700
H 	H 	0.79060 0.59230 0.70940 0.04500
C 	C 	0.77380 0.53870 0.72620 -0.00600
O 	O 	0.27200 0.16230 0.72800 -0.54700
C 	C 	0.27330 0.07930 0.72670 0.00700
H 	H 	0.29060 0.09230 0.70940 0.04500
C 	C 	0.27380 0.03870 0.72620 -0.00600
O 	O 	0.27200 0.66230 0.22800 -0.54700
C 	C 	0.27330 0.57930 0.22670 0.00700
H 	H 	0.29060 0.59230 0.20940 0.04500
C 	C 	0.27380 0.53870 0.22620 -0.00600
O 	O 	0.77200 0.83770 0.77200 -0.54700
C 	C 	0.77330 0.92070 0.77330 0.00700
H 	H 	0.79060 0.90770 0.79060 0.04500
C 	C 	0.77380 0.96130 0.77380 -0.00600
O 	O 	0.77200 0.33770 0.27200 -0.54700
C 	C 	0.77330 0.42070 0.27330 0.00700
H 	H 	0.79060 0.40770 0.29060 0.04500
C 	C 	0.77380 0.46130 0.27380 -0.00600
O 	O 	0.27200 0.83770 0.27200 -0.54700
C 	C 	0.27330 0.92070 0.27330 0.00700
H 	H 	0.29060 0.90770 0.29060 0.04500
C 	C 	0.27380 0.96130 0.27380 -0.00600
O 	O 	0.27200 0.33770 0.77200 -0.54700
C 	C 	0.27330 0.42070 0.77330 0.00700
H 	H 	0.29060 0.40770 0.79060 0.04500
C 	C 	0.27380 0.46130 0.77380 -0.00600
O 	O 	0.22800 0.83770 0.22800 -0.54700
C 	C 	0.22670 0.92070 0.22670 0.00700
H 	H 	0.20940 0.90770 0.20940 0.04500
C 	C 	0.22620 0.96130 0.22620 -0.00600
O 	O 	0.22800 0.33770 0.72800 -0.54700
C 	C 	0.22670 0.42070 0.72670 0.00700
H 	H 	0.20940 0.40770 0.70940 0.04500
C 	C 	0.22620 0.46130 0.72620 -0.00600
O 	O 	0.72800 0.83770 0.72800 -0.54700
C 	C 	0.72670 0.92070 0.72670 0.00700
H 	H 	0.70940 0.90770 0.70940 0.04500
C 	C 	0.72620 0.96130 0.72620 -0.00600
O 	O 	0.72800 0.33770 0.22800 -0.54700
C 	C 	0.72670 0.42070 0.22670 0.00700
H 	H 	0.70940 0.40770 0.20940 0.04500
C 	C 	0.72620 0.46130 0.22620 -0.00600
O 	O 	0.16230 0.22800 0.77200 -0.54700
C 	C 	0.07930 0.22670 0.77330 0.00700
H 	H 	0.09230 0.20940 0.79060 0.04500
C 	C 	0.03870 0.22620 0.77380 -0.00600
O 	O 	0.16230 0.72800 0.27200 -0.54700
C 	C 	0.07930 0.72670 0.27330 0.00700
H 	H 	0.09230 0.70940 0.29060 0.04500
C 	C 	0.03870 0.72620 0.27380 -0.00600
O 	O 	0.66230 0.22800 0.27200 -0.54700
C 	C 	0.57930 0.22670 0.27330 0.00700
H 	H 	0.59230 0.20940 0.29060 0.04500
C 	C 	0.53870 0.22620 0.27380 -0.00600
O 	O 	0.66230 0.72800 0.77200 -0.54700
C 	C 	0.57930 0.72670 0.77330 0.00700
H 	H 	0.59230 0.70940 0.79060 0.04500
C 	C 	0.53870 0.72620 0.77380 -0.00600
O 	O 	0.16230 0.77200 0.22800 -0.54700
C 	C 	0.07930 0.77330 0.22670 0.00700
H 	H 	0.09230 0.79060 0.20940 0.04500
C 	C 	0.03870 0.77380 0.22620 -0.00600
O 	O 	0.16230 0.27200 0.72800 -0.54700
C 	C 	0.07930 0.27330 0.72670 0.00700
H 	H 	0.09230 0.29060 0.70940 0.04500
C 	C 	0.03870 0.27380 0.72620 -0.00600
O 	O 	0.66230 0.77200 0.72800 -0.54700
C 	C 	0.57930 0.77330 0.72670 0.00700
H 	H 	0.59230 0.79060 0.70940 0.04500
C 	C 	0.53870 0.77380 0.72620 -0.00600
O 	O 	0.66230 0.27200 0.22800 -0.54700
C 	C 	0.57930 0.27330 0.22670 0.00700
H 	H 	0.59230 0.29060 0.20940 0.04500
C 	C 	0.53870 0.27380 0.22620 -0.00600
O 	O 	0.83770 0.22800 0.22800 -0.54700
C 	C 	0.92070 0.22670 0.22670 0.00700
H 	H 	0.90770 0.20940 0.20940 0.04500
C 	C 	0.96130 0.22620 0.22620 -0.00600
O 	O 	0.83770 0.72800 0.72800 -0.54700
C 	C 	0.92070 0.72670 0.72670 0.00700
H 	H 	0.90770 0.70940 0.70940 0.04500
C 	C 	0.96130 0.72620 0.72620 -0.00600
O 	O 	0.33770 0.22800 0.72800 -0.54700
C 	C 	0.42070 0.22670 0.72670 0.00700
H 	H 	0.40770 0.20940 0.70940 0.04500
C 	C 	0.46130 0.22620 0.72620 -0.00600
O 	O 	0.33770 0.72800 0.22800 -0.54700
C 	C 	0.42070 0.72670 0.22670 0.00700
H 	H 	0.40770 0.70940 0.20940 0.04500
C 	C 	0.46130 0.72620 0.22620 -0.00600
O 	O 	0.83770 0.77200 0.77200 -0.54700
C 	C 	0.92070 0.77330 0.77330 0.00700
H 	H 	0.90770 0.79060 0.79060 0.04500
C 	C 	0.96130 0.77380 0.77380 -0.00600
O 	O 	0.83770 0.27200 0.27200 -0.54700
C 	C 	0.92070 0.27330 0.27330 0.00700
H 	H 	0.90770 0.29060 0.29060 0.04500
C 	C 	0.96130 0.27380 0.27380 -0.00600
O 	O 	0.33770 0.77200 0.27200 -0.54700
C 	C 	0.42070 0.77330 0.27330 0.00700
H 	H 	0.40770 0.79060 0.29060 0.04500
C 	C 	0.46130 0.77380 0.27380 -0.00600
O 	O 	0.33770 0.27200 0.77200 -0.54700
C 	C 	0.42070 0.27330 0.77330 0.00700
H 	H 	0.40770 0.29060 0.79060 0.04500
C 	C 	0.46130 0.27380 0.77380 -0.00600
C 	C 	0.25000 0.25000 0.14590 0.49500
C 	C 	0.25000 0.25000 0.10240 -0.13300
C 	C 	0.25000 0.25000 0.02030 0.00400
C 	C 	0.25000 0.75000 0.64590 0.49500
C 	C 	0.25000 0.75000 0.60240 -0.13300
C 	C 	0.25000 0.75000 0.52030 0.00400
C 	C 	0.75000 0.75000 0.14590 0.49500
C 	C 	0.75000 0.75000 0.10240 -0.13300
C 	C 	0.75000 0.75000 0.02030 0.00400
C 	C 	0.75000 0.25000 0.64590 0.49500
C 	C 	0.75000 0.25000 0.60240 -0.13300
C 	C 	0.75000 0.25000 0.52030 0.00400
C 	C 	0.75000 0.25000 0.85410 0.49500
C 	C 	0.75000 0.25000 0.89760 -0.13300
C 	C 	0.75000 0.25000 0.97970 0.00400
C 	C 	0.75000 0.75000 0.35410 0.49500
C 	C 	0.75000 0.75000 0.39760 -0.13300
C 	C 	0.75000 0.75000 0.47970 0.00400
C 	C 	0.25000 0.25000 0.35410 0.49500
C 	C 	0.25000 0.25000 0.39760 -0.13300
C 	C 	0.25000 0.25000 0.47970 0.00400
C 	C 	0.25000 0.75000 0.85410 0.49500
C 	C 	0.25000 0.75000 0.89760 -0.13300
C 	C 	0.25000 0.75000 0.97970 0.00400
C 	C 	0.14590 0.25000 0.25000 0.49500
C 	C 	0.10240 0.25000 0.25000 -0.13300
C 	C 	0.02030 0.25000 0.25000 0.00400
C 	C 	0.64590 0.25000 0.75000 0.49500
C 	C 	0.60240 0.25000 0.75000 -0.13300
C 	C 	0.52030 0.25000 0.75000 0.00400
C 	C 	0.14590 0.75000 0.75000 0.49500
C 	C 	0.10240 0.75000 0.75000 -0.13300
C 	C 	0.02030 0.75000 0.75000 0.00400
C 	C 	0.64590 0.75000 0.25000 0.49500
C 	C 	0.60240 0.75000 0.25000 -0.13300
C 	C 	0.52030 0.75000 0.25000 0.00400
C 	C 	0.85410 0.75000 0.25000 0.49500
C 	C 	0.89760 0.75000 0.25000 -0.13300
C 	C 	0.97970 0.75000 0.25000 0.00400
C 	C 	0.35410 0.75000 0.75000 0.49500
C 	C 	0.39760 0.75000 0.75000 -0.13300
C 	C 	0.47970 0.75000 0.75000 0.00400
C 	C 	0.35410 0.25000 0.25000 0.49500
C 	C 	0.39760 0.25000 0.25000 -0.13300
C 	C 	0.47970 0.25000 0.25000 0.00400
C 	C 	0.85410 0.25000 0.75000 0.49500
C 	C 	0.89760 0.25000 0.75000 -0.13300
C 	C 	0.97970 0.25000 0.75000 0.00400
C 	C 	0.25000 0.14590 0.25000 0.49500
C 	C 	0.25000 0.10240 0.25000 -0.13300
C 	C 	0.25000 0.02030 0.25000 0.00400
C 	C 	0.25000 0.64590 0.75000 0.49500
C 	C 	0.25000 0.60240 0.75000 -0.13300
C 	C 	0.25000 0.52030 0.75000 0.00400
C 	C 	0.75000 0.14590 0.75000 0.49500
C 	C 	0.75000 0.10240 0.75000 -0.13300
C 	C 	0.75000 0.02030 0.75000 0.00400
C 	C 	0.75000 0.64590 0.25000 0.49500
C 	C 	0.75000 0.60240 0.25000 -0.13300
C 	C 	0.75000 0.52030 0.25000 0.00400
C 	C 	0.25000 0.85410 0.75000 0.49500
C 	C 	0.25000 0.89760 0.75000 -0.13300
C 	C 	0.25000 0.97970 0.75000 0.00400
C 	C 	0.25000 0.35410 0.25000 0.49500
C 	C 	0.25000 0.39760 0.25000 -0.13300
C 	C 	0.25000 0.47970 0.25000 0.00400
C 	C 	0.75000 0.85410 0.25000 0.49500
C 	C 	0.75000 0.89760 0.25000 -0.13300
C 	C 	0.75000 0.97970 0.25000 0.00400
C 	C 	0.75000 0.35410 0.75000 0.49500
C 	C 	0.75000 0.39760 0.75000 -0.13300
C 	C 	0.75000 0.47970 0.75000 0.00400
C 	C 	0.25000 0.25000 0.85410 0.49500
C 	C 	0.25000 0.25000 0.89760 -0.13300
C 	C 	0.25000 0.25000 0.97970 0.00400
C 	C 	0.25000 0.75000 0.35410 0.49500
C 	C 	0.25000 0.75000 0.39760 -0.13300
C 	C 	0.25000 0.75000 0.47970 0.00400
C 	C 	0.75000 0.75000 0.85410 0.49500
C 	C 	0.75000 0.75000 0.89760 -0.13300
C 	C 	0.75000 0.75000 0.97970 0.00400
C 	C 	0.75000 0.25000 0.35410 0.49500
C 	C 	0.75000 0.25000 0.39760 -0.13300
C 	C 	0.75000 0.25000 0.47970 0.00400
C 	C 	0.25000 0.75000 0.14590 0.49500
C 	C 	0.25000 0.75000 0.10240 -0.13300
C 	C 	0.25000 0.75000 0.02030 0.00400
C 	C 	0.25000 0.25000 0.64590 0.49500
C 	C 	0.25000 0.25000 0.60240 -0.13300
C 	C 	0.25000 0.25000 0.52030 0.00400
C 	C 	0.75000 0.25000 0.14590 0.49500
C 	C 	0.75000 0.25000 0.10240 -0.13300
C 	C 	0.75000 0.25000 0.02030 0.00400
C 	C 	0.75000 0.75000 0.64590 0.49500
C 	C 	0.75000 0.75000 0.60240 -0.13300
C 	C 	0.75000 0.75000 0.52030 0.00400
C 	C 	0.25000 0.14590 0.75000 0.49500
C 	C 	0.25000 0.10240 0.75000 -0.13300
C 	C 	0.25000 0.02030 0.75000 0.00400
C 	C 	0.25000 0.64590 0.25000 0.49500
C 	C 	0.25000 0.60240 0.25000 -0.13300
C 	C 	0.25000 0.52030 0.25000 0.00400
C 	C 	0.75000 0.14590 0.25000 0.49500
C 	C 	0.75000 0.10240 0.25000 -0.13300
C 	C 	0.75000 0.02030 0.25000 0.00400
C 	C 	0.75000 0.64590 0.75000 0.49500
C 	C 	0.75000 0.60240 0.75000 -0.13300
C 	C 	0.75000 0.52030 0.75000 0.00400
C 	C 	0.75000 0.85410 0.75000 0.49500
C 	C 	0.75000 0.89760 0.75000 -0.13300
C 	C 	0.75000 0.97970 0.75000 0.00400
C 	C 	0.75000 0.35410 0.25000 0.49500
C 	C 	0.75000 0.39760 0.25000 -0.13300
C 	C 	0.75000 0.47970 0.25000 0.00400
C 	C 	0.25000 0.85410 0.25000 0.49500
C 	C 	0.25000 0.89760 0.25000 -0.13300
C 	C 	0.25000 0.97970 0.25000 0.00400
C 	C 	0.25000 0.35410 0.75000 0.49500
C 	C 	0.25000 0.39760 0.75000 -0.13300
C 	C 	0.25000 0.47970 0.75000 0.00400
C 	C 	0.14590 0.25000 0.75000 0.49500
C 	C 	0.10240 0.25000 0.75000 -0.13300
C 	C 	0.02030 0.25000 0.75000 0.00400
C 	C 	0.64590 0.25000 0.25000 0.49500
C 	C 	0.60240 0.25000 0.25000 -0.13300
C 	C 	0.52030 0.25000 0.25000 0.00400
C 	C 	0.14590 0.75000 0.25000 0.49500
C 	C 	0.10240 0.75000 0.25000 -0.13300
C 	C 	0.02030 0.75000 0.25000 0.00400
C 	C 	0.64590 0.75000 0.75000 0.49500
C 	C 	0.60240 0.75000 0.75000 -0.13300
C 	C 	0.52030 0.75000 0.75000 0.00400
C 	C 	0.85410 0.25000 0.25000 0.49500
C 	C 	0.89760 0.25000 0.25000 -0.13300
C 	C 	0.97970 0.25000 0.25000 0.00400
C 	C 	0.35410 0.25000 0.75000 0.49500
C 	C 	0.39760 0.25000 0.75000 -0.13300
C 	C 	0.47970 0.25000 0.75000 0.00400
C 	C 	0.85410 0.75000 0.75000 0.49500
C 	C 	0.89760 0.75000 0.75000 -0.13300
C 	C 	0.97970 0.75000 0.75000 0.00400
C 	C 	0.35410 0.75000 0.25000 0.49500
C 	C 	0.39760 0.75000 0.25000 -0.13300
C 	C 	0.47970 0.75000 0.25000 0.00400
