data_crystal

_cell_length_a 24.82170
_cell_length_b 24.82170
_cell_length_c 56.73400
_cell_angle_alpha 90.00000
_cell_angle_beta  90.00000
_cell_angle_gamma 120.00000

_symmetry_space_group_name_	'P 1'
_symmetry_space_group_name_H-M	'P 1'

loop_
_symmetry_equiv_pos_as_xyz
  x,y,z

loop_
_atom_site_label
_atom_site_type_symbol
_atom_site_fract_x
_atom_site_fract_y
_atom_site_fract_z
_atom_site_charge
O 	O 	0.43710 0.78050 0.02611 -0.48500
O 	O 	0.65470 0.22060 0.13070 -0.50900
C 	C 	0.19060 0.88620 0.95000 -0.00700
C 	C 	0.21640 0.84860 0.87060 -0.00300
C 	C 	0.49440 0.88930 0.05240 -0.05200
H 	H 	0.51810 0.87250 0.04690 0.06900
C 	C 	0.52240 0.94520 0.06530 0.01800
C 	C 	0.57780 0.05700 0.09190 0.01600
C 	C 	0.60380 0.11280 0.10444 -0.03600
H 	H 	0.64610 0.13310 0.10800 0.06500
C 	C 	0.57100 0.95780 0.08560 0.00000
C 	C 	0.59320 0.98560 0.06610 -0.00100
C 	C 	0.60400 0.01400 0.09050 -0.00500
C 	C 	0.61550 0.03320 0.08100 -0.01000
O 	O 	0.10377 0.11383 0.35944 -0.48700
O 	O 	0.32137 0.55393 0.46403 -0.50900
C 	C 	0.85727 0.21953 0.28333 -0.00800
C 	C 	0.88307 0.18193 0.20393 -0.00200
C 	C 	0.16107 0.22263 0.38573 -0.05800
H 	H 	0.18477 0.20583 0.38023 0.06900
C 	C 	0.18907 0.27853 0.39863 0.02400
C 	C 	0.24447 0.39033 0.42523 0.00700
C 	C 	0.27047 0.44613 0.43777 -0.03100
H 	H 	0.31277 0.46643 0.44133 0.06200
C 	C 	0.23767 0.29113 0.41893 -0.00400
C 	C 	0.25987 0.31893 0.39943 -0.01300
C 	C 	0.27067 0.34733 0.42383 -0.00900
C 	C 	0.28217 0.36653 0.41433 0.00400
O 	O 	0.77043 0.44717 0.69278 -0.48500
O 	O 	0.98803 0.88727 0.79737 -0.50500
C 	C 	0.52393 0.55287 0.61667 -0.01000
C 	C 	0.54973 0.51527 0.53727 -0.00400
C 	C 	0.82773 0.55597 0.71907 -0.05800
H 	H 	0.85143 0.53917 0.71357 0.07000
C 	C 	0.85573 0.61187 0.73197 0.02400
C 	C 	0.91113 0.72367 0.75857 0.00900
C 	C 	0.93713 0.77947 0.77111 -0.03200
H 	H 	0.97943 0.79977 0.77467 0.06500
C 	C 	0.90433 0.62447 0.75227 -0.00400
C 	C 	0.92653 0.65227 0.73277 -0.01100
C 	C 	0.93733 0.68067 0.75717 -0.00600
C 	C 	0.94883 0.69987 0.74767 0.00300
O 	O 	0.21950 0.65660 0.02611 -0.48600
O 	O 	0.77940 0.43410 0.13070 -0.51000
C 	C 	0.11380 0.30440 0.95000 -0.01100
C 	C 	0.15140 0.36780 0.87060 -0.00500
C 	C 	0.11070 0.60510 0.05240 -0.06100
H 	H 	0.12750 0.64560 0.04690 0.07100
C 	C 	0.05480 0.57720 0.06530 0.02900
C 	C 	0.94300 0.52080 0.09190 0.00200
C 	C 	0.88720 0.49100 0.10444 -0.02700
H 	H 	0.86690 0.51300 0.10800 0.06100
C 	C 	0.04220 0.61320 0.08560 -0.00600
C 	C 	0.01440 0.60760 0.06610 -0.02000
C 	C 	0.98600 0.59000 0.09050 -0.00900
C 	C 	0.96680 0.58230 0.08100 0.01200
O 	O 	0.88617 0.98993 0.35944 -0.48200
O 	O 	0.44607 0.76743 0.46403 -0.51000
C 	C 	0.78047 0.63773 0.28333 -0.01000
C 	C 	0.81807 0.70113 0.20393 -0.00500
C 	C 	0.77737 0.93843 0.38573 -0.05800
H 	H 	0.79417 0.97893 0.38023 0.07100
C 	C 	0.72147 0.91053 0.39863 0.02400
C 	C 	0.60967 0.85413 0.42523 0.00800
C 	C 	0.55387 0.82433 0.43777 -0.03100
H 	H 	0.53357 0.84633 0.44133 0.06300
C 	C 	0.70887 0.94653 0.41893 -0.00200
C 	C 	0.68107 0.94093 0.39943 -0.01200
C 	C 	0.65267 0.92333 0.42383 -0.00800
C 	C 	0.63347 0.91563 0.41433 0.00400
O 	O 	0.55283 0.32327 0.69278 -0.48600
O 	O 	0.11273 0.10077 0.79737 -0.51100
C 	C 	0.44713 0.97107 0.61667 -0.00600
C 	C 	0.48473 0.03447 0.53727 -0.00800
C 	C 	0.44403 0.27177 0.71907 -0.05800
H 	H 	0.46083 0.31227 0.71357 0.07000
C 	C 	0.38813 0.24387 0.73197 0.02400
C 	C 	0.27633 0.18747 0.75857 0.00700
C 	C 	0.22053 0.15767 0.77111 -0.03100
H 	H 	0.20023 0.17967 0.77467 0.06200
C 	C 	0.37553 0.27987 0.75227 -0.00400
C 	C 	0.34773 0.27427 0.73277 -0.01400
C 	C 	0.31933 0.25667 0.75717 -0.00900
C 	C 	0.30013 0.24897 0.74767 0.00400
O 	O 	0.34340 0.56290 0.02611 -0.48600
O 	O 	0.56590 0.34530 0.13070 -0.51000
C 	C 	0.69560 0.80940 0.95000 -0.00900
C 	C 	0.63220 0.78360 0.87060 -0.00500
C 	C 	0.39490 0.50560 0.05240 -0.05800
H 	H 	0.35440 0.48190 0.04690 0.07000
C 	C 	0.42280 0.47760 0.06530 0.02400
C 	C 	0.47920 0.42220 0.09190 0.00700
C 	C 	0.50900 0.39620 0.10444 -0.03100
H 	H 	0.48700 0.35390 0.10800 0.06200
C 	C 	0.38680 0.42900 0.08560 -0.00400
C 	C 	0.39240 0.40680 0.06610 -0.01400
C 	C 	0.41000 0.39600 0.09050 -0.00900
C 	C 	0.41770 0.38450 0.08100 0.00400
O 	O 	0.01007 0.89623 0.35944 -0.48600
O 	O 	0.23257 0.67863 0.46403 -0.51000
C 	C 	0.36227 0.14273 0.28333 -0.01200
C 	C 	0.29887 0.11693 0.20393 -0.00700
C 	C 	0.06157 0.83893 0.38573 -0.05800
H 	H 	0.02107 0.81523 0.38023 0.06900
C 	C 	0.08947 0.81093 0.39863 0.02400
C 	C 	0.14587 0.75553 0.42523 0.00700
C 	C 	0.17567 0.72953 0.43777 -0.03100
H 	H 	0.15367 0.68723 0.44133 0.06200
C 	C 	0.05347 0.76233 0.41893 -0.00400
C 	C 	0.05907 0.74013 0.39943 -0.01400
C 	C 	0.07667 0.72933 0.42383 -0.00900
C 	C 	0.08437 0.71783 0.41433 0.00400
O 	O 	0.67673 0.22957 0.69278 -0.48600
O 	O 	0.89923 0.01197 0.79737 -0.51000
C 	C 	0.02893 0.47607 0.61667 -0.01600
C 	C 	0.96553 0.45027 0.53727 -0.00000
C 	C 	0.72823 0.17227 0.71907 -0.05800
H 	H 	0.68773 0.14857 0.71357 0.06900
C 	C 	0.75613 0.14427 0.73197 0.02400
C 	C 	0.81253 0.08887 0.75857 0.00800
C 	C 	0.84233 0.06287 0.77111 -0.03100
H 	H 	0.82033 0.02057 0.77467 0.06200
C 	C 	0.72013 0.09567 0.75227 -0.00300
C 	C 	0.72573 0.07347 0.73277 -0.01400
C 	C 	0.74333 0.06267 0.75717 -0.01000
C 	C 	0.75103 0.05117 0.74767 0.00400
O 	O 	0.21950 0.56290 0.02611 -0.48600
O 	O 	0.77940 0.34530 0.13070 -0.51000
C 	C 	0.11380 0.80940 0.95000 -0.01100
C 	C 	0.15140 0.78360 0.87060 -0.00600
C 	C 	0.11070 0.50560 0.05240 -0.06100
H 	H 	0.12750 0.48190 0.04690 0.07100
C 	C 	0.05480 0.47760 0.06530 0.02900
C 	C 	0.94300 0.42220 0.09190 0.00200
C 	C 	0.88720 0.39620 0.10444 -0.02700
H 	H 	0.86690 0.35390 0.10800 0.06100
C 	C 	0.04220 0.42900 0.08560 -0.00600
C 	C 	0.01440 0.40680 0.06610 -0.02100
C 	C 	0.98600 0.39600 0.09050 -0.00900
C 	C 	0.96680 0.38450 0.08100 0.01300
O 	O 	0.88617 0.89623 0.35944 -0.48400
O 	O 	0.44607 0.67863 0.46403 -0.51000
C 	C 	0.78047 0.14273 0.28333 -0.01100
C 	C 	0.81807 0.11693 0.20393 -0.00700
C 	C 	0.77737 0.83893 0.38573 -0.05800
H 	H 	0.79417 0.81523 0.38023 0.07000
C 	C 	0.72147 0.81093 0.39863 0.02400
C 	C 	0.60967 0.75553 0.42523 0.00800
C 	C 	0.55387 0.72953 0.43777 -0.03100
H 	H 	0.53357 0.68723 0.44133 0.06200
C 	C 	0.70887 0.76233 0.41893 -0.00300
C 	C 	0.68107 0.74013 0.39943 -0.01300
C 	C 	0.65267 0.72933 0.42383 -0.00900
C 	C 	0.63347 0.71783 0.41433 0.00400
O 	O 	0.55283 0.22957 0.69278 -0.48600
O 	O 	0.11273 0.01197 0.79737 -0.51300
C 	C 	0.44713 0.47607 0.61667 -0.01000
C 	C 	0.48473 0.45027 0.53727 -0.00500
C 	C 	0.44403 0.17227 0.71907 -0.05800
H 	H 	0.46083 0.14857 0.71357 0.06900
C 	C 	0.38813 0.14427 0.73197 0.02400
C 	C 	0.27633 0.08887 0.75857 0.00700
C 	C 	0.22053 0.06287 0.77111 -0.03100
H 	H 	0.20023 0.02057 0.77467 0.06100
C 	C 	0.37553 0.09567 0.75227 -0.00300
C 	C 	0.34773 0.07347 0.73277 -0.01400
C 	C 	0.31933 0.06267 0.75717 -0.01000
C 	C 	0.30013 0.05117 0.74767 0.00500
O 	O 	0.34340 0.78050 0.02611 -0.48600
O 	O 	0.56590 0.22060 0.13070 -0.51000
C 	C 	0.69560 0.88620 0.95000 -0.00800
C 	C 	0.63220 0.84860 0.87060 -0.00400
C 	C 	0.39490 0.88930 0.05240 -0.05300
H 	H 	0.35440 0.87250 0.04690 0.06800
C 	C 	0.42280 0.94520 0.06530 0.01700
C 	C 	0.47920 0.05700 0.09190 0.01500
C 	C 	0.50900 0.11280 0.10444 -0.03700
H 	H 	0.48700 0.13310 0.10800 0.06400
C 	C 	0.38680 0.95780 0.08560 -0.00100
C 	C 	0.39240 0.98560 0.06610 -0.00200
C 	C 	0.41000 0.01400 0.09050 -0.00600
C 	C 	0.41770 0.03320 0.08100 -0.01100
O 	O 	0.01007 0.11383 0.35944 -0.48900
O 	O 	0.23257 0.55393 0.46403 -0.51000
C 	C 	0.36227 0.21953 0.28333 -0.01000
C 	C 	0.29887 0.18193 0.20393 -0.00400
C 	C 	0.06157 0.22263 0.38573 -0.05800
H 	H 	0.02107 0.20583 0.38023 0.06900
C 	C 	0.08947 0.27853 0.39863 0.02400
C 	C 	0.14587 0.39033 0.42523 0.00700
C 	C 	0.17567 0.44613 0.43777 -0.03100
H 	H 	0.15367 0.46643 0.44133 0.06200
C 	C 	0.05347 0.29113 0.41893 -0.00500
C 	C 	0.05907 0.31893 0.39943 -0.01400
C 	C 	0.07667 0.34733 0.42383 -0.00900
C 	C 	0.08437 0.36653 0.41433 0.00400
O 	O 	0.67673 0.44717 0.69278 -0.48600
O 	O 	0.89923 0.88727 0.79737 -0.50800
C 	C 	0.02893 0.55287 0.61667 -0.01600
C 	C 	0.96553 0.51527 0.53727 0.00000
C 	C 	0.72823 0.55597 0.71907 -0.05800
H 	H 	0.68773 0.53917 0.71357 0.07000
C 	C 	0.75613 0.61187 0.73197 0.02400
C 	C 	0.81253 0.72367 0.75857 0.00800
C 	C 	0.84233 0.77947 0.77111 -0.03200
H 	H 	0.82033 0.79977 0.77467 0.06300
C 	C 	0.72013 0.62447 0.75227 -0.00300
C 	C 	0.72573 0.65227 0.73277 -0.01300
C 	C 	0.74333 0.68067 0.75717 -0.00900
C 	C 	0.75103 0.69987 0.74767 0.00400
O 	O 	0.43710 0.65660 0.02611 -0.48600
O 	O 	0.65470 0.43410 0.13070 -0.51000
C 	C 	0.19060 0.30440 0.95000 -0.01000
C 	C 	0.21640 0.36780 0.87060 -0.00400
C 	C 	0.49440 0.60510 0.05240 -0.05800
H 	H 	0.51810 0.64560 0.04690 0.07000
C 	C 	0.52240 0.57720 0.06530 0.02400
C 	C 	0.57780 0.52080 0.09190 0.00800
C 	C 	0.60380 0.49100 0.10444 -0.03100
H 	H 	0.64610 0.51300 0.10800 0.06200
C 	C 	0.57100 0.61320 0.08560 -0.00300
C 	C 	0.59320 0.60760 0.06610 -0.01300
C 	C 	0.60400 0.59000 0.09050 -0.00900
C 	C 	0.61550 0.58230 0.08100 0.00400
O 	O 	0.10377 0.98993 0.35944 -0.48300
O 	O 	0.32137 0.76743 0.46403 -0.51000
C 	C 	0.85727 0.63773 0.28333 -0.00900
C 	C 	0.88307 0.70113 0.20393 -0.00400
C 	C 	0.16107 0.93843 0.38573 -0.05800
H 	H 	0.18477 0.97893 0.38023 0.07100
C 	C 	0.18907 0.91053 0.39863 0.02400
C 	C 	0.24447 0.85413 0.42523 0.00800
C 	C 	0.27047 0.82433 0.43777 -0.03100
H 	H 	0.31277 0.84633 0.44133 0.06200
C 	C 	0.23767 0.94653 0.41893 -0.00300
C 	C 	0.25987 0.94093 0.39943 -0.01200
C 	C 	0.27067 0.92333 0.42383 -0.00800
C 	C 	0.28217 0.91563 0.41433 0.00400
O 	O 	0.77043 0.32327 0.69278 -0.48500
O 	O 	0.98803 0.10077 0.79737 -0.50500
C 	C 	0.52393 0.97107 0.61667 -0.00600
C 	C 	0.54973 0.03447 0.53727 -0.00800
C 	C 	0.82773 0.27177 0.71907 -0.05800
H 	H 	0.85143 0.31227 0.71357 0.07000
C 	C 	0.85573 0.24387 0.73197 0.02400
C 	C 	0.91113 0.18747 0.75857 0.00800
C 	C 	0.93713 0.15767 0.77111 -0.03100
H 	H 	0.97943 0.17967 0.77467 0.06500
C 	C 	0.90433 0.27987 0.75227 -0.00400
C 	C 	0.92653 0.27427 0.73277 -0.01100
C 	C 	0.93733 0.25667 0.75717 -0.00600
C 	C 	0.94883 0.24897 0.74767 0.00300
Zn	Zn	0.33333 0.66667 0.96170 1.21200
O 	O 	0.33333 0.66667 0.99559 -0.95500
Zn	Zn	-0.00000 0.00000 0.29503 1.21000
O 	O 	0.00000 0.00000 0.32892 -0.96000
Zn	Zn	0.66667 0.33333 0.62837 1.21200
O 	O 	0.66667 0.33333 0.66226 -0.95500
Zn	Zn	0.41919 0.70960 0.00717 1.21300
Zn	Zn	0.08586 0.04293 0.34051 1.21200
Zn	Zn	0.75252 0.37626 0.67384 1.21300
Zn	Zn	0.29040 0.70960 0.00717 1.21300
Zn	Zn	0.95707 0.04293 0.34051 1.21300
Zn	Zn	0.62374 0.37626 0.67384 1.21300
Zn	Zn	0.29040 0.58081 0.00717 1.21300
Zn	Zn	0.95707 0.91414 0.34051 1.21500
Zn	Zn	0.62374 0.24748 0.67384 1.21300
Zn	Zn	0.04156 0.95844 0.81740 1.21400
O 	O 	0.29179 0.70821 0.94794 -0.49600
O 	O 	0.26266 0.73734 0.98047 -0.51000
O 	O 	0.07524 0.92476 0.83979 -0.52000
O 	O 	0.04610 0.95390 0.87100 -0.56300
C 	C 	0.23864 0.76136 0.92001 -0.03000
H 	H 	0.25790 0.74210 0.91260 0.06300
C 	C 	0.23750 0.76250 0.94300 -0.07500
C 	C 	0.20930 0.79070 0.95380 -0.03600
H 	H 	0.20850 0.79150 0.97010 0.06200
C 	C 	0.12780 0.87220 0.93960 -0.00700
C 	C 	0.09910 0.90090 0.90000 -0.01600
H 	H 	0.08000 0.92000 0.90760 0.04600
C 	C 	0.10080 0.89920 0.87580 -0.10400
C 	C 	0.12760 0.87240 0.86627 -0.00700
H 	H 	0.12930 0.87070 0.85000 0.05500
C 	C 	0.21270 0.78730 0.87986 -0.00900
C 	C 	0.21185 0.78815 0.90617 0.01200
C 	C 	0.18330 0.81670 0.91686 -0.00900
C 	C 	0.18110 0.81890 0.94090 0.01500
C 	C 	0.12730 0.87270 0.91300 0.00100
C 	C 	0.15470 0.84530 0.90230 0.00200
C 	C 	0.15480 0.84520 0.88009 0.00100
C 	C 	0.26590 0.73410 0.95830 0.38300
C 	C 	0.07050 0.92950 0.86130 0.46200
Zn	Zn	0.70823 0.29177 0.15073 1.21400
O 	O 	0.95846 0.04154 0.28127 -0.49600
O 	O 	0.92932 0.07068 0.31380 -0.51000
O 	O 	0.74191 0.25809 0.17312 -0.52000
O 	O 	0.71277 0.28723 0.20433 -0.56400
C 	C 	0.90531 0.09469 0.25334 -0.03000
H 	H 	0.92457 0.07543 0.24593 0.06200
C 	C 	0.90417 0.09583 0.27633 -0.07600
C 	C 	0.87597 0.12403 0.28713 -0.03600
H 	H 	0.87517 0.12483 0.30343 0.06100
C 	C 	0.79447 0.20553 0.27293 -0.00700
C 	C 	0.76577 0.23423 0.23333 -0.01600
H 	H 	0.74667 0.25333 0.24093 0.04600
C 	C 	0.76747 0.23253 0.20913 -0.10400
C 	C 	0.79427 0.20573 0.19960 -0.00700
H 	H 	0.79597 0.20403 0.18333 0.05500
C 	C 	0.87937 0.12063 0.21319 -0.01000
C 	C 	0.87852 0.12148 0.23950 0.01200
C 	C 	0.84997 0.15003 0.25019 -0.00900
C 	C 	0.84777 0.15223 0.27423 0.01500
C 	C 	0.79397 0.20603 0.24633 0.00100
C 	C 	0.82137 0.17863 0.23563 0.00200
C 	C 	0.82147 0.17853 0.21342 0.00100
C 	C 	0.93257 0.06743 0.29163 0.38200
C 	C 	0.73717 0.26283 0.19463 0.46200
Zn	Zn	0.37489 0.62511 0.48407 1.21400
O 	O 	0.62512 0.37488 0.61461 -0.49600
O 	O 	0.59599 0.40401 0.64714 -0.51000
O 	O 	0.40857 0.59143 0.50646 -0.51900
O 	O 	0.37943 0.62057 0.53767 -0.56400
C 	C 	0.57197 0.42803 0.58668 -0.03000
H 	H 	0.59123 0.40877 0.57927 0.06300
C 	C 	0.57083 0.42917 0.60967 -0.07500
C 	C 	0.54263 0.45737 0.62047 -0.03600
H 	H 	0.54183 0.45817 0.63677 0.06200
C 	C 	0.46113 0.53887 0.60627 -0.00700
C 	C 	0.43243 0.56757 0.56667 -0.01600
H 	H 	0.41333 0.58667 0.57427 0.04600
C 	C 	0.43413 0.56587 0.54247 -0.10400
C 	C 	0.46093 0.53907 0.53294 -0.00700
H 	H 	0.46263 0.53737 0.51667 0.05500
C 	C 	0.54603 0.45397 0.54653 -0.00900
C 	C 	0.54518 0.45482 0.57284 0.01200
C 	C 	0.51663 0.48337 0.58353 -0.00900
C 	C 	0.51443 0.48557 0.60757 0.01500
C 	C 	0.46063 0.53937 0.57967 0.00100
C 	C 	0.48803 0.51197 0.56897 0.00200
C 	C 	0.48813 0.51187 0.54676 0.00100
C 	C 	0.59923 0.40077 0.62497 0.38200
C 	C 	0.40383 0.59617 0.52797 0.46200
Zn	Zn	0.04156 0.08312 0.81740 1.21200
O 	O 	0.29179 0.58358 0.94794 -0.49600
O 	O 	0.26266 0.52531 0.98047 -0.51000
O 	O 	0.07524 0.15048 0.83979 -0.52100
O 	O 	0.04610 0.09220 0.87100 -0.56600
C 	C 	0.23864 0.47728 0.92001 -0.03000
H 	H 	0.25790 0.51580 0.91260 0.06300
C 	C 	0.23750 0.47500 0.94300 -0.07500
C 	C 	0.20930 0.41860 0.95380 -0.03600
H 	H 	0.20850 0.41700 0.97010 0.06100
C 	C 	0.12780 0.25560 0.93960 -0.00800
C 	C 	0.09910 0.19820 0.90000 -0.01600
H 	H 	0.08000 0.16000 0.90760 0.04400
C 	C 	0.10080 0.20160 0.87580 -0.10600
C 	C 	0.12760 0.25520 0.86627 -0.00600
H 	H 	0.12930 0.25860 0.85000 0.05500
C 	C 	0.21270 0.42540 0.87986 -0.00900
C 	C 	0.21185 0.42370 0.90617 0.01200
C 	C 	0.18330 0.36660 0.91686 -0.00900
C 	C 	0.18110 0.36220 0.94090 0.01600
C 	C 	0.12730 0.25460 0.91300 0.00000
C 	C 	0.15470 0.30940 0.90230 0.00300
C 	C 	0.15480 0.30960 0.88009 -0.00000
C 	C 	0.26590 0.53180 0.95830 0.38200
C 	C 	0.07050 0.14100 0.86130 0.46300
Zn	Zn	0.70823 0.41645 0.15073 1.21400
O 	O 	0.95846 0.91691 0.28127 -0.49200
O 	O 	0.92932 0.85864 0.31380 -0.50800
O 	O 	0.74191 0.48381 0.17312 -0.51900
O 	O 	0.71277 0.42553 0.20433 -0.56400
C 	C 	0.90531 0.81061 0.25334 -0.03000
H 	H 	0.92457 0.84913 0.24593 0.06400
C 	C 	0.90417 0.80833 0.27633 -0.07400
C 	C 	0.87597 0.75193 0.28713 -0.03600
H 	H 	0.87517 0.75033 0.30343 0.06200
C 	C 	0.79447 0.58893 0.27293 -0.00700
C 	C 	0.76577 0.53153 0.23333 -0.01600
H 	H 	0.74667 0.49333 0.24093 0.04600
C 	C 	0.76747 0.53493 0.20913 -0.10400
C 	C 	0.79427 0.58853 0.19960 -0.00600
H 	H 	0.79597 0.59193 0.18333 0.05500
C 	C 	0.87937 0.75873 0.21319 -0.00900
C 	C 	0.87852 0.75703 0.23950 0.01300
C 	C 	0.84997 0.69993 0.25019 -0.00900
C 	C 	0.84777 0.69553 0.27423 0.01600
C 	C 	0.79397 0.58793 0.24633 0.00100
C 	C 	0.82137 0.64273 0.23563 0.00300
C 	C 	0.82147 0.64293 0.21342 0.00000
C 	C 	0.93257 0.86513 0.29163 0.38200
C 	C 	0.73717 0.47433 0.19463 0.46200
Zn	Zn	0.37489 0.74979 0.48407 1.21400
O 	O 	0.62512 0.25025 0.61461 -0.49600
O 	O 	0.59599 0.19198 0.64714 -0.51100
O 	O 	0.40857 0.81715 0.50646 -0.51900
O 	O 	0.37943 0.75887 0.53767 -0.56400
C 	C 	0.57197 0.14395 0.58668 -0.02900
H 	H 	0.59123 0.18247 0.57927 0.06200
C 	C 	0.57083 0.14167 0.60967 -0.07700
C 	C 	0.54263 0.08527 0.62047 -0.03400
H 	H 	0.54183 0.08367 0.63677 0.06000
C 	C 	0.46113 0.92227 0.60627 -0.00800
C 	C 	0.43243 0.86487 0.56667 -0.01700
H 	H 	0.41333 0.82667 0.57427 0.04600
C 	C 	0.43413 0.86827 0.54247 -0.10200
C 	C 	0.46093 0.92187 0.53294 -0.01000
H 	H 	0.46263 0.92527 0.51667 0.05700
C 	C 	0.54603 0.09207 0.54653 -0.00800
C 	C 	0.54518 0.09037 0.57284 0.01100
C 	C 	0.51663 0.03327 0.58353 -0.01000
C 	C 	0.51443 0.02887 0.60757 0.01100
C 	C 	0.46063 0.92127 0.57967 0.00300
C 	C 	0.48803 0.97607 0.56897 0.00300
C 	C 	0.48813 0.97627 0.54676 0.00700
C 	C 	0.59923 0.19847 0.62497 0.38300
C 	C 	0.40383 0.80767 0.52797 0.46200
Zn	Zn	0.91688 0.95844 0.81740 1.21600
O 	O 	0.41642 0.70821 0.94794 -0.49600
O 	O 	0.47469 0.73734 0.98047 -0.51000
O 	O 	0.84952 0.92476 0.83979 -0.51800
O 	O 	0.90780 0.95390 0.87100 -0.55900
C 	C 	0.52272 0.76136 0.92001 -0.02900
H 	H 	0.48420 0.74210 0.91260 0.06200
C 	C 	0.52500 0.76250 0.94300 -0.07500
C 	C 	0.58140 0.79070 0.95380 -0.03600
H 	H 	0.58300 0.79150 0.97010 0.06200
C 	C 	0.74440 0.87220 0.93960 -0.00600
C 	C 	0.80180 0.90090 0.90000 -0.01700
H 	H 	0.84000 0.92000 0.90760 0.04700
C 	C 	0.79840 0.89920 0.87580 -0.10200
C 	C 	0.74480 0.87240 0.86627 -0.00700
H 	H 	0.74140 0.87070 0.85000 0.05600
C 	C 	0.57460 0.78730 0.87986 -0.00900
C 	C 	0.57630 0.78815 0.90617 0.01200
C 	C 	0.63340 0.81670 0.91686 -0.00800
C 	C 	0.63780 0.81890 0.94090 0.01500
C 	C 	0.74540 0.87270 0.91300 0.00200
C 	C 	0.69060 0.84530 0.90230 0.00200
C 	C 	0.69040 0.84520 0.88009 0.00100
C 	C 	0.46820 0.73410 0.95830 0.38300
C 	C 	0.85900 0.92950 0.86130 0.46100
Zn	Zn	0.58355 0.29177 0.15073 1.21400
O 	O 	0.08309 0.04154 0.28127 -0.49900
O 	O 	0.14136 0.07068 0.31380 -0.51200
O 	O 	0.51619 0.25809 0.17312 -0.52000
O 	O 	0.57447 0.28723 0.20433 -0.56400
C 	C 	0.18939 0.09469 0.25334 -0.02900
H 	H 	0.15087 0.07543 0.24593 0.06100
C 	C 	0.19167 0.09583 0.27633 -0.07700
C 	C 	0.24807 0.12403 0.28713 -0.03600
H 	H 	0.24967 0.12483 0.30343 0.06100
C 	C 	0.41107 0.20553 0.27293 -0.00700
C 	C 	0.46847 0.23423 0.23333 -0.01600
H 	H 	0.50667 0.25333 0.24093 0.04600
C 	C 	0.46507 0.23253 0.20913 -0.10400
C 	C 	0.41147 0.20573 0.19960 -0.00700
H 	H 	0.40807 0.20403 0.18333 0.05500
C 	C 	0.24127 0.12063 0.21319 -0.01000
C 	C 	0.24297 0.12148 0.23950 0.01100
C 	C 	0.30007 0.15003 0.25019 -0.00900
C 	C 	0.30447 0.15223 0.27423 0.01500
C 	C 	0.41207 0.20603 0.24633 0.00100
C 	C 	0.35727 0.17863 0.23563 0.00200
C 	C 	0.35707 0.17853 0.21342 0.00100
C 	C 	0.13487 0.06743 0.29163 0.38300
C 	C 	0.52567 0.26283 0.19463 0.46200
Zn	Zn	0.25021 0.62511 0.48407 1.21400
O 	O 	0.74975 0.37488 0.61461 -0.49600
O 	O 	0.80802 0.40401 0.64714 -0.51000
O 	O 	0.18285 0.59143 0.50646 -0.52000
O 	O 	0.24113 0.62057 0.53767 -0.56400
C 	C 	0.85605 0.42803 0.58668 -0.03200
H 	H 	0.81753 0.40877 0.57927 0.06300
C 	C 	0.85833 0.42917 0.60967 -0.07200
C 	C 	0.91473 0.45737 0.62047 -0.04000
H 	H 	0.91633 0.45817 0.63677 0.06400
C 	C 	0.07773 0.53887 0.60627 -0.00500
C 	C 	0.13513 0.56757 0.56667 -0.01500
H 	H 	0.17333 0.58667 0.57427 0.04500
C 	C 	0.13173 0.56587 0.54247 -0.10700
C 	C 	0.07813 0.53907 0.53294 -0.00300
H 	H 	0.07473 0.53737 0.51667 0.05300
C 	C 	0.90793 0.45397 0.54653 -0.01100
C 	C 	0.90963 0.45482 0.57284 0.01400
C 	C 	0.96673 0.48337 0.58353 -0.00700
C 	C 	0.97113 0.48557 0.60757 0.02400
C 	C 	0.07873 0.53937 0.57967 -0.00000
C 	C 	0.02393 0.51197 0.56897 0.00100
C 	C 	0.02373 0.51187 0.54676 -0.00700
C 	C 	0.80153 0.40077 0.62497 0.38200
C 	C 	0.19233 0.59617 0.52797 0.46300
Zn	Zn	-0.00000 -0.00000 0.86537 1.20100
O 	O 	-0.00000 0.00000 0.82952 -0.96400
Zn	Zn	0.66667 0.33333 0.19870 1.20400
O 	O 	0.66667 0.33333 0.16285 -0.95900
Zn	Zn	0.33333 0.66667 0.53204 1.20400
O 	O 	0.33333 0.66667 0.49619 -0.95900
C 	C 	0.42935 0.85870 0.04810 -0.04100
C 	C 	0.48475 0.96950 0.07260 -0.00200
C 	C 	0.51395 0.02790 0.08670 -0.01400
C 	C 	0.56910 0.13820 0.11150 -0.07100
C 	C 	0.40060 0.80120 0.03240 0.32200
C 	C 	0.59885 0.19770 0.12616 0.40500
C 	C 	0.09602 0.19203 0.38143 -0.03900
C 	C 	0.15142 0.30283 0.40593 -0.01500
C 	C 	0.18062 0.36123 0.42003 -0.00100
C 	C 	0.23577 0.47153 0.44483 -0.07500
C 	C 	0.06727 0.13453 0.36573 0.32100
C 	C 	0.26552 0.53103 0.45949 0.40700
C 	C 	0.76268 0.52537 0.71477 -0.03700
C 	C 	0.81808 0.63617 0.73927 -0.01400
C 	C 	0.84728 0.69457 0.75337 -0.00100
C 	C 	0.90243 0.80487 0.77817 -0.07400
C 	C 	0.73393 0.46787 0.69907 0.32100
C 	C 	0.93218 0.86437 0.79283 0.40600
C 	C 	0.14130 0.57065 0.04810 -0.03600
C 	C 	0.03050 0.51525 0.07260 -0.02300
C 	C 	0.97210 0.48605 0.08670 0.00800
C 	C 	0.86180 0.43090 0.11150 -0.07800
C 	C 	0.19880 0.59940 0.03240 0.32000
C 	C 	0.80230 0.40115 0.12616 0.40800
C 	C 	0.80797 0.90398 0.38143 -0.03700
C 	C 	0.69717 0.84858 0.40593 -0.01400
C 	C 	0.63877 0.81938 0.42003 -0.00100
C 	C 	0.52847 0.76423 0.44483 -0.07500
C 	C 	0.86547 0.93273 0.36573 0.32100
C 	C 	0.46897 0.73448 0.45949 0.40700
C 	C 	0.47463 0.23732 0.71477 -0.03800
C 	C 	0.36383 0.18192 0.73927 -0.01500
C 	C 	0.30543 0.15272 0.75337 -0.00100
C 	C 	0.19513 0.09757 0.77817 -0.07600
C 	C 	0.53213 0.26607 0.69907 0.32100
C 	C 	0.13563 0.06782 0.79283 0.40800
C 	C 	0.42935 0.57065 0.04810 -0.03800
C 	C 	0.48475 0.51525 0.07260 -0.01400
C 	C 	0.51395 0.48605 0.08670 -0.00100
C 	C 	0.56910 0.43090 0.11150 -0.07500
C 	C 	0.40060 0.59940 0.03240 0.32100
C 	C 	0.59885 0.40115 0.12616 0.40700
C 	C 	0.09602 0.90398 0.38143 -0.03700
C 	C 	0.15142 0.84858 0.40593 -0.01400
C 	C 	0.18062 0.81938 0.42003 -0.00100
C 	C 	0.23577 0.76423 0.44483 -0.07500
C 	C 	0.06727 0.93273 0.36573 0.32100
C 	C 	0.26552 0.73448 0.45949 0.40700
C 	C 	0.76268 0.23732 0.71477 -0.03800
C 	C 	0.81808 0.18192 0.73927 -0.01400
C 	C 	0.84728 0.15272 0.75337 -0.00100
C 	C 	0.90243 0.09757 0.77817 -0.07400
C 	C 	0.73393 0.26607 0.69907 0.32100
C 	C 	0.93218 0.06782 0.79283 0.40700
O 	O 	0.78050 0.43710 0.97389 -0.48600
O 	O 	0.22060 0.65470 0.86930 -0.51000
C 	C 	0.88620 0.19060 0.05000 -0.00800
C 	C 	0.84860 0.21640 0.12940 -0.00400
C 	C 	0.88930 0.49440 0.94760 -0.05300
H 	H 	0.87250 0.51810 0.95310 0.06800
C 	C 	0.94520 0.52240 0.93470 0.01700
C 	C 	0.05700 0.57780 0.90810 0.01500
C 	C 	0.11280 0.60380 0.89556 -0.03700
H 	H 	0.13310 0.64610 0.89200 0.06400
C 	C 	0.95780 0.57100 0.91440 -0.00100
C 	C 	0.98560 0.59320 0.93390 -0.00200
C 	C 	0.01400 0.60400 0.90950 -0.00600
C 	C 	0.03320 0.61550 0.91900 -0.01100
O 	O 	0.44717 0.77043 0.30722 -0.48500
O 	O 	0.88727 0.98803 0.20263 -0.50500
C 	C 	0.55287 0.52393 0.38333 -0.01000
C 	C 	0.51527 0.54973 0.46273 -0.00400
C 	C 	0.55597 0.82773 0.28093 -0.05800
H 	H 	0.53917 0.85143 0.28643 0.07000
C 	C 	0.61187 0.85573 0.26803 0.02400
C 	C 	0.72367 0.91113 0.24143 0.00900
C 	C 	0.77947 0.93713 0.22889 -0.03200
H 	H 	0.79977 0.97943 0.22533 0.06500
C 	C 	0.62447 0.90433 0.24773 -0.00400
C 	C 	0.65227 0.92653 0.26723 -0.01100
C 	C 	0.68067 0.93733 0.24283 -0.00600
C 	C 	0.69987 0.94883 0.25233 0.00300
O 	O 	0.11383 0.10377 0.64056 -0.48800
O 	O 	0.55393 0.32137 0.53597 -0.51000
C 	C 	0.21953 0.85727 0.71667 -0.00900
C 	C 	0.18193 0.88307 0.79607 -0.00300
C 	C 	0.22263 0.16107 0.61427 -0.05800
H 	H 	0.20583 0.18477 0.61977 0.06900
C 	C 	0.27853 0.18907 0.60137 0.02400
C 	C 	0.39033 0.24447 0.57477 0.00700
C 	C 	0.44613 0.27047 0.56223 -0.03100
H 	H 	0.46643 0.31277 0.55867 0.06200
C 	C 	0.29113 0.23767 0.58107 -0.00400
C 	C 	0.31893 0.25987 0.60057 -0.01300
C 	C 	0.34733 0.27067 0.57617 -0.00900
C 	C 	0.36653 0.28217 0.58567 0.00400
O 	O 	0.65660 0.21950 0.97389 -0.48600
O 	O 	0.43410 0.77940 0.86930 -0.51000
C 	C 	0.30440 0.11380 0.05000 -0.01100
C 	C 	0.36780 0.15140 0.12940 -0.00500
C 	C 	0.60510 0.11070 0.94760 -0.06100
H 	H 	0.64560 0.12750 0.95310 0.07100
C 	C 	0.57720 0.05480 0.93470 0.02900
C 	C 	0.52080 0.94300 0.90810 0.00200
C 	C 	0.49100 0.88720 0.89556 -0.02700
H 	H 	0.51300 0.86690 0.89200 0.06100
C 	C 	0.61320 0.04220 0.91440 -0.00600
C 	C 	0.60760 0.01440 0.93390 -0.02000
C 	C 	0.59000 0.98600 0.90950 -0.00900
C 	C 	0.58230 0.96680 0.91900 0.01200
O 	O 	0.32327 0.55283 0.30722 -0.48600
O 	O 	0.10077 0.11273 0.20263 -0.51100
C 	C 	0.97107 0.44713 0.38333 -0.00600
C 	C 	0.03447 0.48473 0.46273 -0.00800
C 	C 	0.27177 0.44403 0.28093 -0.05800
H 	H 	0.31227 0.46083 0.28643 0.07000
C 	C 	0.24387 0.38813 0.26803 0.02400
C 	C 	0.18747 0.27633 0.24143 0.00700
C 	C 	0.15767 0.22053 0.22889 -0.03100
H 	H 	0.17967 0.20023 0.22533 0.06200
C 	C 	0.27987 0.37553 0.24773 -0.00400
C 	C 	0.27427 0.34773 0.26723 -0.01400
C 	C 	0.25667 0.31933 0.24283 -0.00900
C 	C 	0.24897 0.30013 0.25233 0.00400
O 	O 	0.98993 0.88617 0.64056 -0.48200
O 	O 	0.76743 0.44607 0.53597 -0.51000
C 	C 	0.63773 0.78047 0.71667 -0.01000
C 	C 	0.70113 0.81807 0.79607 -0.00500
C 	C 	0.93843 0.77737 0.61427 -0.05800
H 	H 	0.97893 0.79417 0.61977 0.07100
C 	C 	0.91053 0.72147 0.60137 0.02400
C 	C 	0.85413 0.60967 0.57477 0.00800
C 	C 	0.82433 0.55387 0.56223 -0.03100
H 	H 	0.84633 0.53357 0.55867 0.06300
C 	C 	0.94653 0.70887 0.58107 -0.00200
C 	C 	0.94093 0.68107 0.60057 -0.01200
C 	C 	0.92333 0.65267 0.57617 -0.00800
C 	C 	0.91563 0.63347 0.58567 0.00400
O 	O 	0.56290 0.34340 0.97389 -0.48600
O 	O 	0.34530 0.56590 0.86930 -0.51000
C 	C 	0.80940 0.69560 0.05000 -0.00900
C 	C 	0.78360 0.63220 0.12940 -0.00500
C 	C 	0.50560 0.39490 0.94760 -0.05800
H 	H 	0.48190 0.35440 0.95310 0.07000
C 	C 	0.47760 0.42280 0.93470 0.02400
C 	C 	0.42220 0.47920 0.90810 0.00700
C 	C 	0.39620 0.50900 0.89556 -0.03100
H 	H 	0.35390 0.48700 0.89200 0.06200
C 	C 	0.42900 0.38680 0.91440 -0.00400
C 	C 	0.40680 0.39240 0.93390 -0.01400
C 	C 	0.39600 0.41000 0.90950 -0.00900
C 	C 	0.38450 0.41770 0.91900 0.00400
O 	O 	0.22957 0.67673 0.30722 -0.48600
O 	O 	0.01197 0.89923 0.20263 -0.51000
C 	C 	0.47607 0.02893 0.38333 -0.01600
C 	C 	0.45027 0.96553 0.46273 -0.00000
C 	C 	0.17227 0.72823 0.28093 -0.05800
H 	H 	0.14857 0.68773 0.28643 0.06900
C 	C 	0.14427 0.75613 0.26803 0.02400
C 	C 	0.08887 0.81253 0.24143 0.00800
C 	C 	0.06287 0.84233 0.22889 -0.03100
H 	H 	0.02057 0.82033 0.22533 0.06200
C 	C 	0.09567 0.72013 0.24773 -0.00300
C 	C 	0.07347 0.72573 0.26723 -0.01400
C 	C 	0.06267 0.74333 0.24283 -0.01000
C 	C 	0.05117 0.75103 0.25233 0.00400
O 	O 	0.89623 0.01007 0.64056 -0.48600
O 	O 	0.67863 0.23257 0.53597 -0.51000
C 	C 	0.14273 0.36227 0.71667 -0.01200
C 	C 	0.11693 0.29887 0.79607 -0.00700
C 	C 	0.83893 0.06157 0.61427 -0.05800
H 	H 	0.81523 0.02107 0.61977 0.06900
C 	C 	0.81093 0.08947 0.60137 0.02400
C 	C 	0.75553 0.14587 0.57477 0.00700
C 	C 	0.72953 0.17567 0.56223 -0.03100
H 	H 	0.68723 0.15367 0.55867 0.06200
C 	C 	0.76233 0.05347 0.58107 -0.00400
C 	C 	0.74013 0.05907 0.60057 -0.01400
C 	C 	0.72933 0.07667 0.57617 -0.00900
C 	C 	0.71783 0.08437 0.58567 0.00400
O 	O 	0.56290 0.21950 0.97389 -0.48600
O 	O 	0.34530 0.77940 0.86930 -0.51000
C 	C 	0.80940 0.11380 0.05000 -0.01100
C 	C 	0.78360 0.15140 0.12940 -0.00600
C 	C 	0.50560 0.11070 0.94760 -0.06100
H 	H 	0.48190 0.12750 0.95310 0.07100
C 	C 	0.47760 0.05480 0.93470 0.02900
C 	C 	0.42220 0.94300 0.90810 0.00200
C 	C 	0.39620 0.88720 0.89556 -0.02700
H 	H 	0.35390 0.86690 0.89200 0.06100
C 	C 	0.42900 0.04220 0.91440 -0.00600
C 	C 	0.40680 0.01440 0.93390 -0.02100
C 	C 	0.39600 0.98600 0.90950 -0.00900
C 	C 	0.38450 0.96680 0.91900 0.01300
O 	O 	0.22957 0.55283 0.30722 -0.48600
O 	O 	0.01197 0.11273 0.20263 -0.51300
C 	C 	0.47607 0.44713 0.38333 -0.01000
C 	C 	0.45027 0.48473 0.46273 -0.00500
C 	C 	0.17227 0.44403 0.28093 -0.05800
H 	H 	0.14857 0.46083 0.28643 0.06900
C 	C 	0.14427 0.38813 0.26803 0.02400
C 	C 	0.08887 0.27633 0.24143 0.00700
C 	C 	0.06287 0.22053 0.22889 -0.03100
H 	H 	0.02057 0.20023 0.22533 0.06100
C 	C 	0.09567 0.37553 0.24773 -0.00300
C 	C 	0.07347 0.34773 0.26723 -0.01400
C 	C 	0.06267 0.31933 0.24283 -0.01000
C 	C 	0.05117 0.30013 0.25233 0.00500
O 	O 	0.89623 0.88617 0.64056 -0.48400
O 	O 	0.67863 0.44607 0.53597 -0.51000
C 	C 	0.14273 0.78047 0.71667 -0.01100
C 	C 	0.11693 0.81807 0.79607 -0.00700
C 	C 	0.83893 0.77737 0.61427 -0.05800
H 	H 	0.81523 0.79417 0.61977 0.07000
C 	C 	0.81093 0.72147 0.60137 0.02400
C 	C 	0.75553 0.60967 0.57477 0.00800
C 	C 	0.72953 0.55387 0.56223 -0.03100
H 	H 	0.68723 0.53357 0.55867 0.06200
C 	C 	0.76233 0.70887 0.58107 -0.00300
C 	C 	0.74013 0.68107 0.60057 -0.01300
C 	C 	0.72933 0.65267 0.57617 -0.00900
C 	C 	0.71783 0.63347 0.58567 0.00400
O 	O 	0.78050 0.34340 0.97389 -0.48600
O 	O 	0.22060 0.56590 0.86930 -0.51000
C 	C 	0.88620 0.69560 0.05000 -0.00800
C 	C 	0.84860 0.63220 0.12940 -0.00400
C 	C 	0.88930 0.39490 0.94760 -0.05300
H 	H 	0.87250 0.35440 0.95310 0.06800
C 	C 	0.94520 0.42280 0.93470 0.01700
C 	C 	0.05700 0.47920 0.90810 0.01500
C 	C 	0.11280 0.50900 0.89556 -0.03700
H 	H 	0.13310 0.48700 0.89200 0.06400
C 	C 	0.95780 0.38680 0.91440 -0.00100
C 	C 	0.98560 0.39240 0.93390 -0.00200
C 	C 	0.01400 0.41000 0.90950 -0.00600
C 	C 	0.03320 0.41770 0.91900 -0.01100
O 	O 	0.44717 0.67673 0.30722 -0.48600
O 	O 	0.88727 0.89923 0.20263 -0.50800
C 	C 	0.55287 0.02893 0.38333 -0.01600
C 	C 	0.51527 0.96553 0.46273 0.00000
C 	C 	0.55597 0.72823 0.28093 -0.05800
H 	H 	0.53917 0.68773 0.28643 0.07000
C 	C 	0.61187 0.75613 0.26803 0.02400
C 	C 	0.72367 0.81253 0.24143 0.00800
C 	C 	0.77947 0.84233 0.22889 -0.03200
H 	H 	0.79977 0.82033 0.22533 0.06300
C 	C 	0.62447 0.72013 0.24773 -0.00300
C 	C 	0.65227 0.72573 0.26723 -0.01300
C 	C 	0.68067 0.74333 0.24283 -0.00900
C 	C 	0.69987 0.75103 0.25233 0.00400
O 	O 	0.11383 0.01007 0.64056 -0.48900
O 	O 	0.55393 0.23257 0.53597 -0.51000
C 	C 	0.21953 0.36227 0.71667 -0.01000
C 	C 	0.18193 0.29887 0.79607 -0.00400
C 	C 	0.22263 0.06157 0.61427 -0.05800
H 	H 	0.20583 0.02107 0.61977 0.06900
C 	C 	0.27853 0.08947 0.60137 0.02400
C 	C 	0.39033 0.14587 0.57477 0.00700
C 	C 	0.44613 0.17567 0.56223 -0.03100
H 	H 	0.46643 0.15367 0.55867 0.06200
C 	C 	0.29113 0.05347 0.58107 -0.00500
C 	C 	0.31893 0.05907 0.60057 -0.01400
C 	C 	0.34733 0.07667 0.57617 -0.00900
C 	C 	0.36653 0.08437 0.58567 0.00400
O 	O 	0.65660 0.43710 0.97389 -0.48600
O 	O 	0.43410 0.65470 0.86930 -0.51000
C 	C 	0.30440 0.19060 0.05000 -0.01000
C 	C 	0.36780 0.21640 0.12940 -0.00400
C 	C 	0.60510 0.49440 0.94760 -0.05800
H 	H 	0.64560 0.51810 0.95310 0.07000
C 	C 	0.57720 0.52240 0.93470 0.02400
C 	C 	0.52080 0.57780 0.90810 0.00800
C 	C 	0.49100 0.60380 0.89556 -0.03100
H 	H 	0.51300 0.64610 0.89200 0.06200
C 	C 	0.61320 0.57100 0.91440 -0.00300
C 	C 	0.60760 0.59320 0.93390 -0.01300
C 	C 	0.59000 0.60400 0.90950 -0.00900
C 	C 	0.58230 0.61550 0.91900 0.00400
O 	O 	0.32327 0.77043 0.30722 -0.48500
O 	O 	0.10077 0.98803 0.20263 -0.50500
C 	C 	0.97107 0.52393 0.38333 -0.00600
C 	C 	0.03447 0.54973 0.46273 -0.00800
C 	C 	0.27177 0.82773 0.28093 -0.05800
H 	H 	0.31227 0.85143 0.28643 0.07000
C 	C 	0.24387 0.85573 0.26803 0.02400
C 	C 	0.18747 0.91113 0.24143 0.00800
C 	C 	0.15767 0.93713 0.22889 -0.03100
H 	H 	0.17967 0.97943 0.22533 0.06500
C 	C 	0.27987 0.90433 0.24773 -0.00400
C 	C 	0.27427 0.92653 0.26723 -0.01100
C 	C 	0.25667 0.93733 0.24283 -0.00600
C 	C 	0.24897 0.94883 0.25233 0.00300
O 	O 	0.98993 0.10377 0.64056 -0.48300
O 	O 	0.76743 0.32137 0.53597 -0.51000
C 	C 	0.63773 0.85727 0.71667 -0.00900
C 	C 	0.70113 0.88307 0.79607 -0.00400
C 	C 	0.93843 0.16107 0.61427 -0.05800
H 	H 	0.97893 0.18477 0.61977 0.07100
C 	C 	0.91053 0.18907 0.60137 0.02400
C 	C 	0.85413 0.24447 0.57477 0.00800
C 	C 	0.82433 0.27047 0.56223 -0.03100
H 	H 	0.84633 0.31277 0.55867 0.06200
C 	C 	0.94653 0.23767 0.58107 -0.00300
C 	C 	0.94093 0.25987 0.60057 -0.01200
C 	C 	0.92333 0.27067 0.57617 -0.00800
C 	C 	0.91563 0.28217 0.58567 0.00400
Zn	Zn	0.66667 0.33333 0.03830 1.21200
O 	O 	0.66667 0.33333 0.00441 -0.95500
Zn	Zn	0.33333 0.66667 0.37163 1.21200
O 	O 	0.33333 0.66667 0.33774 -0.95500
Zn	Zn	-0.00000 0.00000 0.70497 1.21000
O 	O 	0.00000 -0.00000 0.67108 -0.96000
Zn	Zn	0.70960 0.41919 0.99283 1.21300
Zn	Zn	0.37626 0.75252 0.32616 1.21300
Zn	Zn	0.04293 0.08586 0.65949 1.21200
Zn	Zn	0.70960 0.29040 0.99283 1.21300
Zn	Zn	0.37626 0.62374 0.32616 1.21300
Zn	Zn	0.04293 0.95707 0.65949 1.21300
Zn	Zn	0.58081 0.29040 0.99283 1.21300
Zn	Zn	0.24748 0.62374 0.32616 1.21300
Zn	Zn	0.91414 0.95707 0.65949 1.21500
Zn	Zn	0.95844 0.04156 0.18260 1.21400
O 	O 	0.70821 0.29179 0.05206 -0.49600
O 	O 	0.73734 0.26266 0.01953 -0.51000
O 	O 	0.92476 0.07524 0.16021 -0.52000
O 	O 	0.95390 0.04610 0.12900 -0.56300
C 	C 	0.76136 0.23864 0.07999 -0.03000
H 	H 	0.74210 0.25790 0.08740 0.06300
C 	C 	0.76250 0.23750 0.05700 -0.07500
C 	C 	0.79070 0.20930 0.04620 -0.03600
H 	H 	0.79150 0.20850 0.02990 0.06200
C 	C 	0.87220 0.12780 0.06040 -0.00700
C 	C 	0.90090 0.09910 0.10000 -0.01600
H 	H 	0.92000 0.08000 0.09240 0.04600
C 	C 	0.89920 0.10080 0.12420 -0.10400
C 	C 	0.87240 0.12760 0.13373 -0.00700
H 	H 	0.87070 0.12930 0.15000 0.05500
C 	C 	0.78730 0.21270 0.12014 -0.00900
C 	C 	0.78815 0.21185 0.09383 0.01200
C 	C 	0.81670 0.18330 0.08314 -0.00900
C 	C 	0.81890 0.18110 0.05910 0.01500
C 	C 	0.87270 0.12730 0.08700 0.00100
C 	C 	0.84530 0.15470 0.09770 0.00200
C 	C 	0.84520 0.15480 0.11991 0.00100
C 	C 	0.73410 0.26590 0.04170 0.38300
C 	C 	0.92950 0.07050 0.13870 0.46200
Zn	Zn	0.62511 0.37489 0.51593 1.21400
O 	O 	0.37488 0.62512 0.38539 -0.49600
O 	O 	0.40401 0.59599 0.35286 -0.51000
O 	O 	0.59143 0.40857 0.49354 -0.51900
O 	O 	0.62057 0.37943 0.46233 -0.56400
C 	C 	0.42803 0.57197 0.41332 -0.03000
H 	H 	0.40877 0.59123 0.42073 0.06300
C 	C 	0.42917 0.57083 0.39033 -0.07500
C 	C 	0.45737 0.54263 0.37953 -0.03600
H 	H 	0.45817 0.54183 0.36323 0.06200
C 	C 	0.53887 0.46113 0.39373 -0.00700
C 	C 	0.56757 0.43243 0.43333 -0.01600
H 	H 	0.58667 0.41333 0.42573 0.04600
C 	C 	0.56587 0.43413 0.45753 -0.10400
C 	C 	0.53907 0.46093 0.46706 -0.00700
H 	H 	0.53737 0.46263 0.48333 0.05500
C 	C 	0.45397 0.54603 0.45347 -0.00900
C 	C 	0.45482 0.54518 0.42716 0.01200
C 	C 	0.48337 0.51663 0.41647 -0.00900
C 	C 	0.48557 0.51443 0.39243 0.01500
C 	C 	0.53937 0.46063 0.42033 0.00100
C 	C 	0.51197 0.48803 0.43103 0.00200
C 	C 	0.51187 0.48813 0.45324 0.00100
C 	C 	0.40077 0.59923 0.37503 0.38200
C 	C 	0.59617 0.40383 0.47203 0.46200
Zn	Zn	0.29177 0.70823 0.84927 1.21400
O 	O 	0.04154 0.95846 0.71873 -0.49600
O 	O 	0.07068 0.92932 0.68620 -0.51000
O 	O 	0.25809 0.74191 0.82688 -0.52000
O 	O 	0.28723 0.71277 0.79567 -0.56400
C 	C 	0.09469 0.90531 0.74666 -0.03000
H 	H 	0.07543 0.92457 0.75407 0.06200
C 	C 	0.09583 0.90417 0.72367 -0.07600
C 	C 	0.12403 0.87597 0.71287 -0.03600
H 	H 	0.12483 0.87517 0.69657 0.06100
C 	C 	0.20553 0.79447 0.72707 -0.00700
C 	C 	0.23423 0.76577 0.76667 -0.01600
H 	H 	0.25333 0.74667 0.75907 0.04600
C 	C 	0.23253 0.76747 0.79087 -0.10400
C 	C 	0.20573 0.79427 0.80040 -0.00700
H 	H 	0.20403 0.79597 0.81667 0.05500
C 	C 	0.12063 0.87937 0.78681 -0.01000
C 	C 	0.12148 0.87852 0.76050 0.01200
C 	C 	0.15003 0.84997 0.74981 -0.00900
C 	C 	0.15223 0.84777 0.72577 0.01500
C 	C 	0.20603 0.79397 0.75367 0.00100
C 	C 	0.17863 0.82137 0.76437 0.00200
C 	C 	0.17853 0.82147 0.78658 0.00100
C 	C 	0.06743 0.93257 0.70837 0.38200
C 	C 	0.26283 0.73717 0.80537 0.46200
Zn	Zn	0.08312 0.04156 0.18260 1.21200
O 	O 	0.58358 0.29179 0.05206 -0.49600
O 	O 	0.52531 0.26266 0.01953 -0.51000
O 	O 	0.15048 0.07524 0.16021 -0.52100
O 	O 	0.09220 0.04610 0.12900 -0.56600
C 	C 	0.47728 0.23864 0.07999 -0.03000
H 	H 	0.51580 0.25790 0.08740 0.06300
C 	C 	0.47500 0.23750 0.05700 -0.07500
C 	C 	0.41860 0.20930 0.04620 -0.03600
H 	H 	0.41700 0.20850 0.02990 0.06100
C 	C 	0.25560 0.12780 0.06040 -0.00800
C 	C 	0.19820 0.09910 0.10000 -0.01600
H 	H 	0.16000 0.08000 0.09240 0.04400
C 	C 	0.20160 0.10080 0.12420 -0.10600
C 	C 	0.25520 0.12760 0.13373 -0.00600
H 	H 	0.25860 0.12930 0.15000 0.05500
C 	C 	0.42540 0.21270 0.12014 -0.00900
C 	C 	0.42370 0.21185 0.09383 0.01200
C 	C 	0.36660 0.18330 0.08314 -0.00900
C 	C 	0.36220 0.18110 0.05910 0.01600
C 	C 	0.25460 0.12730 0.08700 0.00000
C 	C 	0.30940 0.15470 0.09770 0.00300
C 	C 	0.30960 0.15480 0.11991 -0.00000
C 	C 	0.53180 0.26590 0.04170 0.38200
C 	C 	0.14100 0.07050 0.13870 0.46300
Zn	Zn	0.74979 0.37489 0.51593 1.21400
O 	O 	0.25025 0.62512 0.38539 -0.49600
O 	O 	0.19198 0.59599 0.35286 -0.51100
O 	O 	0.81715 0.40857 0.49354 -0.51900
O 	O 	0.75887 0.37943 0.46233 -0.56400
C 	C 	0.14395 0.57197 0.41332 -0.02900
H 	H 	0.18247 0.59123 0.42073 0.06200
C 	C 	0.14167 0.57083 0.39033 -0.07700
C 	C 	0.08527 0.54263 0.37953 -0.03400
H 	H 	0.08367 0.54183 0.36323 0.06000
C 	C 	0.92227 0.46113 0.39373 -0.00800
C 	C 	0.86487 0.43243 0.43333 -0.01700
H 	H 	0.82667 0.41333 0.42573 0.04600
C 	C 	0.86827 0.43413 0.45753 -0.10200
C 	C 	0.92187 0.46093 0.46706 -0.01000
H 	H 	0.92527 0.46263 0.48333 0.05700
C 	C 	0.09207 0.54603 0.45347 -0.00800
C 	C 	0.09037 0.54518 0.42716 0.01100
C 	C 	0.03327 0.51663 0.41647 -0.01000
C 	C 	0.02887 0.51443 0.39243 0.01100
C 	C 	0.92127 0.46063 0.42033 0.00300
C 	C 	0.97607 0.48803 0.43103 0.00300
C 	C 	0.97627 0.48813 0.45324 0.00700
C 	C 	0.19847 0.59923 0.37503 0.38300
C 	C 	0.80767 0.40383 0.47203 0.46200
Zn	Zn	0.41645 0.70823 0.84927 1.21400
O 	O 	0.91691 0.95846 0.71873 -0.49200
O 	O 	0.85864 0.92932 0.68620 -0.50800
O 	O 	0.48381 0.74191 0.82688 -0.51900
O 	O 	0.42553 0.71277 0.79567 -0.56400
C 	C 	0.81061 0.90531 0.74666 -0.03000
H 	H 	0.84913 0.92457 0.75407 0.06400
C 	C 	0.80833 0.90417 0.72367 -0.07400
C 	C 	0.75193 0.87597 0.71287 -0.03600
H 	H 	0.75033 0.87517 0.69657 0.06200
C 	C 	0.58893 0.79447 0.72707 -0.00700
C 	C 	0.53153 0.76577 0.76667 -0.01600
H 	H 	0.49333 0.74667 0.75907 0.04600
C 	C 	0.53493 0.76747 0.79087 -0.10400
C 	C 	0.58853 0.79427 0.80040 -0.00600
H 	H 	0.59193 0.79597 0.81667 0.05500
C 	C 	0.75873 0.87937 0.78681 -0.00900
C 	C 	0.75703 0.87852 0.76050 0.01300
C 	C 	0.69993 0.84997 0.74981 -0.00900
C 	C 	0.69553 0.84777 0.72577 0.01600
C 	C 	0.58793 0.79397 0.75367 0.00100
C 	C 	0.64273 0.82137 0.76437 0.00300
C 	C 	0.64293 0.82147 0.78658 0.00000
C 	C 	0.86513 0.93257 0.70837 0.38200
C 	C 	0.47433 0.73717 0.80537 0.46200
Zn	Zn	0.95844 0.91688 0.18260 1.21600
O 	O 	0.70821 0.41642 0.05206 -0.49600
O 	O 	0.73734 0.47469 0.01953 -0.51000
O 	O 	0.92476 0.84952 0.16021 -0.51800
O 	O 	0.95390 0.90780 0.12900 -0.55900
C 	C 	0.76136 0.52272 0.07999 -0.02900
H 	H 	0.74210 0.48420 0.08740 0.06200
C 	C 	0.76250 0.52500 0.05700 -0.07500
C 	C 	0.79070 0.58140 0.04620 -0.03600
H 	H 	0.79150 0.58300 0.02990 0.06200
C 	C 	0.87220 0.74440 0.06040 -0.00600
C 	C 	0.90090 0.80180 0.10000 -0.01700
H 	H 	0.92000 0.84000 0.09240 0.04700
C 	C 	0.89920 0.79840 0.12420 -0.10200
C 	C 	0.87240 0.74480 0.13373 -0.00700
H 	H 	0.87070 0.74140 0.15000 0.05600
C 	C 	0.78730 0.57460 0.12014 -0.00900
C 	C 	0.78815 0.57630 0.09383 0.01200
C 	C 	0.81670 0.63340 0.08314 -0.00800
C 	C 	0.81890 0.63780 0.05910 0.01500
C 	C 	0.87270 0.74540 0.08700 0.00200
C 	C 	0.84530 0.69060 0.09770 0.00200
C 	C 	0.84520 0.69040 0.11991 0.00100
C 	C 	0.73410 0.46820 0.04170 0.38300
C 	C 	0.92950 0.85900 0.13870 0.46100
Zn	Zn	0.62511 0.25021 0.51593 1.21400
O 	O 	0.37488 0.74975 0.38539 -0.49600
O 	O 	0.40401 0.80802 0.35286 -0.51000
O 	O 	0.59143 0.18285 0.49354 -0.52000
O 	O 	0.62057 0.24113 0.46233 -0.56400
C 	C 	0.42803 0.85605 0.41332 -0.03200
H 	H 	0.40877 0.81753 0.42073 0.06300
C 	C 	0.42917 0.85833 0.39033 -0.07200
C 	C 	0.45737 0.91473 0.37953 -0.04000
H 	H 	0.45817 0.91633 0.36323 0.06400
C 	C 	0.53887 0.07773 0.39373 -0.00500
C 	C 	0.56757 0.13513 0.43333 -0.01500
H 	H 	0.58667 0.17333 0.42573 0.04500
C 	C 	0.56587 0.13173 0.45753 -0.10700
C 	C 	0.53907 0.07813 0.46706 -0.00300
H 	H 	0.53737 0.07473 0.48333 0.05300
C 	C 	0.45397 0.90793 0.45347 -0.01100
C 	C 	0.45482 0.90963 0.42716 0.01400
C 	C 	0.48337 0.96673 0.41647 -0.00700
C 	C 	0.48557 0.97113 0.39243 0.02400
C 	C 	0.53937 0.07873 0.42033 -0.00000
C 	C 	0.51197 0.02393 0.43103 0.00100
C 	C 	0.51187 0.02373 0.45324 -0.00700
C 	C 	0.40077 0.80153 0.37503 0.38200
C 	C 	0.59617 0.19233 0.47203 0.46300
Zn	Zn	0.29177 0.58355 0.84927 1.21400
O 	O 	0.04154 0.08309 0.71873 -0.49900
O 	O 	0.07068 0.14136 0.68620 -0.51200
O 	O 	0.25809 0.51619 0.82688 -0.52000
O 	O 	0.28723 0.57447 0.79567 -0.56400
C 	C 	0.09469 0.18939 0.74666 -0.02900
H 	H 	0.07543 0.15087 0.75407 0.06100
C 	C 	0.09583 0.19167 0.72367 -0.07700
C 	C 	0.12403 0.24807 0.71287 -0.03600
H 	H 	0.12483 0.24967 0.69657 0.06100
C 	C 	0.20553 0.41107 0.72707 -0.00700
C 	C 	0.23423 0.46847 0.76667 -0.01600
H 	H 	0.25333 0.50667 0.75907 0.04600
C 	C 	0.23253 0.46507 0.79087 -0.10400
C 	C 	0.20573 0.41147 0.80040 -0.00700
H 	H 	0.20403 0.40807 0.81667 0.05500
C 	C 	0.12063 0.24127 0.78681 -0.01000
C 	C 	0.12148 0.24297 0.76050 0.01100
C 	C 	0.15003 0.30007 0.74981 -0.00900
C 	C 	0.15223 0.30447 0.72577 0.01500
C 	C 	0.20603 0.41207 0.75367 0.00100
C 	C 	0.17863 0.35727 0.76437 0.00200
C 	C 	0.17853 0.35707 0.78658 0.00100
C 	C 	0.06743 0.13487 0.70837 0.38300
C 	C 	0.26283 0.52567 0.80537 0.46200
Zn	Zn	-0.00000 -0.00000 0.13463 1.20100
O 	O 	-0.00000 0.00000 0.17048 -0.96400
Zn	Zn	0.66667 0.33333 0.46796 1.20400
O 	O 	0.66667 0.33333 0.50381 -0.95900
Zn	Zn	0.33333 0.66667 0.80130 1.20400
O 	O 	0.33333 0.66667 0.83715 -0.95900
C 	C 	0.85870 0.42935 0.95190 -0.04100
C 	C 	0.96950 0.48475 0.92740 -0.00200
C 	C 	0.02790 0.51395 0.91330 -0.01400
C 	C 	0.13820 0.56910 0.88850 -0.07100
C 	C 	0.80120 0.40060 0.96760 0.32200
C 	C 	0.19770 0.59885 0.87384 0.40500
C 	C 	0.52537 0.76268 0.28523 -0.03700
C 	C 	0.63617 0.81808 0.26073 -0.01400
C 	C 	0.69457 0.84728 0.24663 -0.00100
C 	C 	0.80487 0.90243 0.22183 -0.07400
C 	C 	0.46787 0.73393 0.30093 0.32100
C 	C 	0.86437 0.93218 0.20717 0.40600
C 	C 	0.19203 0.09602 0.61857 -0.03900
C 	C 	0.30283 0.15142 0.59407 -0.01500
C 	C 	0.36123 0.18062 0.57997 -0.00100
C 	C 	0.47153 0.23577 0.55517 -0.07500
C 	C 	0.13453 0.06727 0.63427 0.32100
C 	C 	0.53103 0.26552 0.54051 0.40700
C 	C 	0.57065 0.14130 0.95190 -0.03600
C 	C 	0.51525 0.03050 0.92740 -0.02300
C 	C 	0.48605 0.97210 0.91330 0.00800
C 	C 	0.43090 0.86180 0.88850 -0.07800
C 	C 	0.59940 0.19880 0.96760 0.32000
C 	C 	0.40115 0.80230 0.87384 0.40800
C 	C 	0.23732 0.47463 0.28523 -0.03800
C 	C 	0.18192 0.36383 0.26073 -0.01500
C 	C 	0.15272 0.30543 0.24663 -0.00100
C 	C 	0.09757 0.19513 0.22183 -0.07600
C 	C 	0.26607 0.53213 0.30093 0.32100
C 	C 	0.06782 0.13563 0.20717 0.40800
C 	C 	0.90398 0.80797 0.61857 -0.03700
C 	C 	0.84858 0.69717 0.59407 -0.01400
C 	C 	0.81938 0.63877 0.57997 -0.00100
C 	C 	0.76423 0.52847 0.55517 -0.07500
C 	C 	0.93273 0.86547 0.63427 0.32100
C 	C 	0.73448 0.46897 0.54051 0.40700
C 	C 	0.57065 0.42935 0.95190 -0.03800
C 	C 	0.51525 0.48475 0.92740 -0.01400
C 	C 	0.48605 0.51395 0.91330 -0.00100
C 	C 	0.43090 0.56910 0.88850 -0.07500
C 	C 	0.59940 0.40060 0.96760 0.32100
C 	C 	0.40115 0.59885 0.87384 0.40700
C 	C 	0.23732 0.76268 0.28523 -0.03800
C 	C 	0.18192 0.81808 0.26073 -0.01400
C 	C 	0.15272 0.84728 0.24663 -0.00100
C 	C 	0.09757 0.90243 0.22183 -0.07400
C 	C 	0.26607 0.73393 0.30093 0.32100
C 	C 	0.06782 0.93218 0.20717 0.40700
C 	C 	0.90398 0.09602 0.61857 -0.03700
C 	C 	0.84858 0.15142 0.59407 -0.01400
C 	C 	0.81938 0.18062 0.57997 -0.00100
C 	C 	0.76423 0.23577 0.55517 -0.07500
C 	C 	0.93273 0.06727 0.63427 0.32100
C 	C 	0.73448 0.26552 0.54051 0.40700
