data_crystal

_cell_length_a 29.43920
_cell_length_b 29.43920
_cell_length_c 59.61680
_cell_angle_alpha 127.93650
_cell_angle_beta  127.93650
_cell_angle_gamma 90.41290

_symmetry_space_group_name_	'P 1'
_symmetry_space_group_name_H-M	'P 1'

loop_
_symmetry_equiv_pos_as_xyz
  x,y,z

loop_
_atom_site_label
_atom_site_type_symbol
_atom_site_fract_x
_atom_site_fract_y
_atom_site_fract_z
_atom_site_charge
Cu	Cu	0.67998 0.46612 0.97296 0.91200
Cu	Cu	0.50273 0.96669 0.97331 0.90000
Cu	Cu	0.81929 0.53323 0.02657 0.89900
Cu	Cu	0.00297 0.96699 0.97353 0.90000
H 	H 	0.73629 0.35858 0.08896 0.03500
H 	H 	0.13787 0.76304 0.40914 0.03500
H 	H 	0.07910 0.75850 0.42388 0.04400
H 	H 	0.07139 0.84906 0.47015 0.03700
H 	H 	0.93919 0.84093 0.37250 0.03800
H 	H 	0.94691 0.75038 0.32623 0.05400
H 	H 	0.74429 0.26954 0.07742 0.04100
H 	H 	0.65047 0.14547 0.02984 0.04000
H 	H 	0.65462 0.25715 0.12569 0.03900
H 	H 	0.74844 0.38123 0.17326 0.03800
H 	H 	0.93282 0.55457 0.17423 0.06100
H 	H 	0.91004 0.56189 0.12815 0.03600
H 	H 	0.67188 0.42361 0.02686 0.03600
H 	H 	0.69454 0.41611 0.07281 0.04500
H 	H 	0.69393 0.76570 0.07357 0.04300
H 	H 	0.66963 0.64258 0.02781 0.03400
H 	H 	0.90699 0.75725 0.12656 0.03400
H 	H 	0.93111 0.88033 0.17212 0.04200
H 	H 	0.73451 0.85986 0.08739 0.03500
H 	H 	0.75728 0.73227 0.92435 0.04500
H 	H 	0.84835 0.85638 0.97081 0.03700
H 	H 	0.84112 0.74507 0.87352 0.03900
H 	H 	0.75024 0.62098 0.82723 0.05700
H 	H 	0.76648 0.63840 0.91263 0.03500
H 	H 	0.80279 0.58269 0.92551 0.04300
H 	H 	0.82781 0.57658 0.97251 0.03700
H 	H 	0.59006 0.43638 0.87178 0.03700
H 	H 	0.56508 0.44257 0.82479 0.04500
H 	H 	0.11770 0.56371 0.32616 0.04100
H 	H 	0.24124 0.58867 0.37192 0.03700
H 	H 	0.35456 0.82574 0.47030 0.03800
H 	H 	0.23107 0.80075 0.42454 0.04200
H 	H 	0.73923 0.91983 0.07504 0.04400
H 	H 	0.64863 0.92701 0.02840 0.03800
H 	H 	0.65732 0.06105 0.12624 0.03800
H 	H 	0.74790 0.05388 0.17288 0.05700
C 	C 	0.90780 0.87960 0.95240 0.37300
C 	C 	0.59330 0.99730 0.04630 0.32800
C 	C 	0.90549 0.53231 0.22490 -0.01600
C 	C 	0.85943 0.46437 0.20150 -0.03700
C 	C 	0.79920 0.40252 0.15310 -0.00600
C 	C 	0.78500 0.40860 0.12810 -0.02700
C 	C 	0.83103 0.47651 0.15150 -0.05300
C 	C 	0.89128 0.53836 0.19990 0.11600
C 	C 	0.96424 0.59104 0.27320 -0.01800
C 	C 	0.03234 0.60460 0.29670 -0.03300
C 	C 	0.09419 0.66581 0.34510 -0.00500
C 	C 	0.08789 0.71349 0.37000 -0.02700
C 	C 	0.01991 0.70001 0.34660 -0.05200
C 	C 	0.95807 0.63881 0.29820 0.11600
C 	C 	0.01352 0.74974 0.37270 0.04800
C 	C 	0.04784 0.77694 0.41240 -0.06900
C 	C 	0.04357 0.82703 0.43800 0.01700
C 	C 	0.00490 0.84982 0.42380 -0.08300
C 	C 	0.97048 0.82252 0.38400 0.01700
C 	C 	0.97475 0.77243 0.35840 -0.06100
C 	C 	0.75124 0.33194 0.12780 0.02300
C 	C 	0.72422 0.26678 0.08820 -0.05800
C 	C 	0.67237 0.19815 0.06190 0.01100
C 	C 	0.64764 0.19476 0.07530 -0.07600
C 	C 	0.67467 0.25991 0.11490 0.01200
C 	C 	0.72653 0.32855 0.14120 -0.05800
C 	C 	0.81493 0.48501 0.12600 0.05300
C 	C 	0.87448 0.52528 0.14128 -0.06900
C 	C 	0.86188 0.52934 0.11580 0.03000
C 	C 	0.78979 0.49317 0.07510 -0.10600
C 	C 	0.73021 0.45287 0.05980 0.02600
C 	C 	0.74272 0.44874 0.08520 -0.07300
C 	C 	0.81383 0.82955 0.12530 0.02900
C 	C 	0.74155 0.76381 0.08540 -0.06600
C 	C 	0.72810 0.69570 0.06010 0.02800
C 	C 	0.78708 0.69340 0.07480 -0.11700
C 	C 	0.85936 0.75914 0.11470 0.02900
C 	C 	0.87269 0.82717 0.13990 -0.06600
C 	C 	0.80086 0.97810 0.15130 -0.04800
C 	C 	0.78352 0.90836 0.12653 -0.02600
C 	C 	0.82672 0.89848 0.15010 -0.00800
C 	C 	0.88733 0.95841 0.19850 -0.03300
C 	C 	0.90476 0.02824 0.22336 -0.02400
C 	C 	0.86157 0.03813 0.19980 0.12200
C 	C 	0.74891 0.67003 0.87330 0.05200
C 	C 	0.77605 0.73513 0.91300 -0.07200
C 	C 	0.82640 0.80380 0.93870 0.02500
C 	C 	0.84955 0.80731 0.92460 -0.09200
C 	C 	0.82241 0.74221 0.88490 0.02100
C 	C 	0.77214 0.67362 0.85930 -0.06500
C 	C 	0.59550 0.47250 0.77670 -0.01500
C 	C 	0.61141 0.46091 0.79960 -0.03200
C 	C 	0.67231 0.51997 0.84800 -0.00600
C 	C 	0.71725 0.59065 0.87350 -0.02600
C 	C 	0.70128 0.60224 0.85060 -0.05200
C 	C 	0.64037 0.54319 0.80220 0.10600
C 	C 	0.68262 0.51302 0.87270 0.02700
C 	C 	0.75523 0.55001 0.91350 -0.06300
C 	C 	0.76908 0.54660 0.93950 0.02400
C 	C 	0.71023 0.50609 0.92460 -0.09700
C 	C 	0.63763 0.46909 0.88380 0.01800
C 	C 	0.62378 0.47252 0.85780 -0.06100
C 	C 	0.16791 0.68095 0.37300 0.02400
C 	C 	0.17067 0.62227 0.35840 -0.05800
C 	C 	0.23896 0.63608 0.38370 0.01600
C 	C 	0.30450 0.70858 0.42360 -0.08700
C 	C 	0.30164 0.76716 0.43810 0.01600
C 	C 	0.23335 0.75335 0.41280 -0.05800
C 	C 	0.74845 0.98655 0.12650 0.05300
C 	C 	0.72094 0.95142 0.08650 -0.06900
C 	C 	0.67083 0.95539 0.06070 0.01700
C 	C 	0.64823 0.99449 0.07490 -0.08000
C 	C 	0.67564 0.02950 0.11480 0.01500
C 	C 	0.72574 0.02554 0.14060 -0.06600
C 	C 	0.59210 0.11750 0.04600 0.35100
C 	C 	0.77050 0.49530 0.04610 0.37600
C 	C 	0.77200 0.62240 0.04810 0.37200
C 	C 	0.71770 0.49910 0.95010 0.39100
C 	C 	0.37870 0.72410 0.45230 0.34100
C 	C 	0.00040 0.90540 0.45160 0.32400
C 	C 	0.91740 0.14600 0.22720 0.05000
C 	C 	0.90910 0.20910 0.24240 -0.15200
C 	C 	0.58310 0.57770 0.77380 0.06600
C 	C 	0.54840 0.57120 0.73810 -0.16200
C 	C 	0.91000 0.64660 0.23460 0.05700
C 	C 	0.96790 0.73050 0.27150 -0.15500
C 	C 	0.84860 0.57500 0.26450 0.06900
C 	C 	0.76680 0.54100 0.22470 -0.16100
O 	O 	0.91961 0.93125 0.98270 -0.41100
O 	O 	0.92677 0.87645 0.93830 -0.42200
O 	O 	0.57672 0.97034 0.01390 -0.40500
O 	O 	0.57265 0.03009 0.06110 -0.39700
O 	O 	0.97113 0.92971 0.43990 -0.40200
O 	O 	0.82737 0.62253 0.06000 -0.39800
O 	O 	0.71062 0.56510 0.01460 -0.42200
O 	O 	0.71107 0.47293 0.01600 -0.42900
O 	O 	0.82953 0.52879 0.06140 -0.39200
O 	O 	0.43637 0.78963 0.48590 -0.41000
O 	O 	0.37950 0.67088 0.44070 -0.41100
O 	O 	0.66954 0.47062 0.93940 -0.45100
O 	O 	0.78664 0.52758 0.98340 -0.39600
O 	O 	0.02799 0.92327 0.48520 -0.39900
O 	O 	0.57800 0.06642 0.01540 -0.42300
O 	O 	0.57261 0.12383 0.06150 -0.40500
O 	O 	0.87510 0.10330 0.22190 -0.20300
O 	O 	0.62240 0.54800 0.77640 -0.21500
O 	O 	0.93770 0.60690 0.22600 -0.21300
O 	O 	0.89170 0.62450 0.27450 -0.22400
H 	H 	0.87092 0.45951 0.22172 0.03700
H 	H 	0.03742 0.56605 0.27656 0.04200
H 	H 	0.92230 0.95046 0.21758 0.03700
H 	H 	0.57504 0.40379 0.77899 0.04900
H 	H 	0.97757 0.17093 0.25503 0.02300
H 	H 	0.89368 0.11088 0.19353 0.02200
H 	H 	0.89487 0.21808 0.25809 0.07100
H 	H 	0.86355 0.19223 0.21112 0.06200
H 	H 	0.96295 0.26212 0.26887 0.05600
H 	H 	0.53770 0.54709 0.76384 0.01700
H 	H 	0.62339 0.63792 0.80933 0.02100
H 	H 	0.53427 0.61026 0.74514 0.05500
H 	H 	0.49638 0.51252 0.70199 0.06200
H 	H 	0.58919 0.58607 0.74108 0.06700
H 	H 	0.85764 0.62183 0.20116 0.02300
H 	H 	0.89684 0.64082 0.24752 0.04000
H 	H 	0.97040 0.73733 0.25534 0.06400
H 	H 	0.02421 0.75222 0.30174 0.06800
H 	H 	0.95090 0.76252 0.28406 0.05600
H 	H 	0.85438 0.52971 0.25309 0.01400
H 	H 	0.86675 0.60561 0.29597 0.01900
H 	H 	0.72905 0.48694 0.20629 0.05500
H 	H 	0.75526 0.53067 0.19931 0.06900
H 	H 	0.75652 0.58063 0.23952 0.06200
Cu	Cu	0.53388 0.32002 0.52704 0.91300
Cu	Cu	0.03331 0.49727 0.52669 0.90100
Cu	Cu	0.46677 0.18071 0.47343 0.90000
Cu	Cu	0.03301 0.99703 0.52647 0.90200
H 	H 	0.64142 0.26371 0.41104 0.03500
H 	H 	0.23696 0.86213 0.09086 0.03500
H 	H 	0.24150 0.92090 0.07612 0.04400
H 	H 	0.15094 0.92861 0.02985 0.03800
H 	H 	0.15907 0.06081 0.12750 0.03800
H 	H 	0.24962 0.05309 0.17377 0.05400
H 	H 	0.73046 0.25571 0.42258 0.04100
H 	H 	0.85453 0.34953 0.47016 0.04000
H 	H 	0.74285 0.34538 0.37431 0.03900
H 	H 	0.61877 0.25156 0.32674 0.03800
H 	H 	0.44543 0.06718 0.32577 0.06100
H 	H 	0.43811 0.08996 0.37185 0.03700
H 	H 	0.57639 0.32812 0.47314 0.03600
H 	H 	0.58389 0.30546 0.42719 0.04500
H 	H 	0.23430 0.30607 0.42643 0.04300
H 	H 	0.35742 0.33037 0.47219 0.03400
H 	H 	0.24275 0.09301 0.37344 0.03400
H 	H 	0.11967 0.06889 0.32788 0.04200
H 	H 	0.14014 0.26549 0.41261 0.03500
H 	H 	0.26773 0.24272 0.57565 0.04500
H 	H 	0.14362 0.15165 0.52919 0.03700
H 	H 	0.25493 0.15888 0.62648 0.03900
H 	H 	0.37902 0.24976 0.67277 0.05700
H 	H 	0.36160 0.23352 0.58737 0.03500
H 	H 	0.41731 0.19721 0.57449 0.04300
H 	H 	0.42342 0.17219 0.52749 0.03700
H 	H 	0.56362 0.40994 0.62822 0.03700
H 	H 	0.55743 0.43492 0.67521 0.04500
H 	H 	0.43629 0.88230 0.17384 0.04100
H 	H 	0.41133 0.75876 0.12808 0.03700
H 	H 	0.17426 0.64544 0.02970 0.03800
H 	H 	0.19925 0.76893 0.07546 0.04200
H 	H 	0.08017 0.26077 0.42496 0.04400
H 	H 	0.07299 0.35137 0.47160 0.03800
H 	H 	0.93895 0.34268 0.37376 0.03800
H 	H 	0.94612 0.25210 0.32712 0.05700
C 	C 	0.12040 0.09220 0.54760 0.37300
C 	C 	0.00270 0.40670 0.45370 0.32700
C 	C 	0.46769 0.09451 0.27510 -0.01600
C 	C 	0.53563 0.14057 0.29850 -0.03700
C 	C 	0.59748 0.20080 0.34690 -0.00600
C 	C 	0.59140 0.21500 0.37190 -0.02700
C 	C 	0.52349 0.16897 0.34850 -0.05300
C 	C 	0.46164 0.10872 0.30010 0.11600
C 	C 	0.40896 0.03576 0.22680 -0.01800
C 	C 	0.39540 0.96766 0.20330 -0.03300
C 	C 	0.33419 0.90581 0.15490 -0.00500
C 	C 	0.28651 0.91211 0.13000 -0.02700
C 	C 	0.29999 0.98009 0.15340 -0.05200
C 	C 	0.36119 0.04193 0.20180 0.11600
C 	C 	0.25026 0.98648 0.12730 0.04800
C 	C 	0.22306 0.95216 0.08760 -0.06900
C 	C 	0.17297 0.95643 0.06200 0.01700
C 	C 	0.15018 0.99510 0.07620 -0.08300
C 	C 	0.17748 0.02952 0.11600 0.01600
C 	C 	0.22757 0.02525 0.14160 -0.06100
C 	C 	0.66806 0.24876 0.37220 0.02300
C 	C 	0.73322 0.27578 0.41180 -0.05800
C 	C 	0.80185 0.32763 0.43810 0.01100
C 	C 	0.80524 0.35236 0.42470 -0.07600
C 	C 	0.74009 0.32533 0.38510 0.01200
C 	C 	0.67145 0.27347 0.35880 -0.05800
C 	C 	0.51499 0.18507 0.37400 0.05300
C 	C 	0.47472 0.12552 0.35872 -0.06900
C 	C 	0.47066 0.13812 0.38420 0.03000
C 	C 	0.50683 0.21021 0.42490 -0.10600
C 	C 	0.54713 0.26979 0.44020 0.02600
C 	C 	0.55126 0.25728 0.41480 -0.07300
C 	C 	0.17045 0.18617 0.37470 0.02900
C 	C 	0.23619 0.25845 0.41460 -0.06600
C 	C 	0.30430 0.27190 0.43990 0.02800
C 	C 	0.30660 0.21292 0.42520 -0.11700
C 	C 	0.24086 0.14064 0.38530 0.02900
C 	C 	0.17283 0.12731 0.36010 -0.06600
C 	C 	0.02190 0.19914 0.34870 -0.04800
C 	C 	0.09164 0.21648 0.37347 -0.02600
C 	C 	0.10152 0.17328 0.34990 -0.00800
C 	C 	0.04159 0.11267 0.30150 -0.03300
C 	C 	0.97176 0.09524 0.27664 -0.02400
C 	C 	0.96187 0.13843 0.30020 0.12200
C 	C 	0.32997 0.25109 0.62670 0.05200
C 	C 	0.26487 0.22395 0.58700 -0.07200
C 	C 	0.19620 0.17360 0.56130 0.02500
C 	C 	0.19269 0.15045 0.57540 -0.09200
C 	C 	0.25779 0.17759 0.61510 0.02100
C 	C 	0.32638 0.22786 0.64070 -0.06500
C 	C 	0.52750 0.40450 0.72330 -0.01500
C 	C 	0.53909 0.38859 0.70040 -0.03200
C 	C 	0.48003 0.32769 0.65200 -0.00600
C 	C 	0.40935 0.28275 0.62650 -0.02600
C 	C 	0.39776 0.29872 0.64940 -0.05200
C 	C 	0.45681 0.35963 0.69780 0.10600
C 	C 	0.48698 0.31738 0.62730 0.02700
C 	C 	0.44999 0.24477 0.58650 -0.06300
C 	C 	0.45340 0.23092 0.56050 0.02400
C 	C 	0.49391 0.28977 0.57540 -0.09700
C 	C 	0.53091 0.36237 0.61620 0.01800
C 	C 	0.52748 0.37622 0.64220 -0.06100
C 	C 	0.31905 0.83209 0.12700 0.02400
C 	C 	0.37773 0.82933 0.14160 -0.05800
C 	C 	0.36392 0.76104 0.11630 0.01600
C 	C 	0.29142 0.69550 0.07640 -0.08700
C 	C 	0.23284 0.69836 0.06190 0.01600
C 	C 	0.24665 0.76665 0.08720 -0.05800
C 	C 	0.01345 0.25155 0.37350 0.05200
C 	C 	0.04858 0.27906 0.41350 -0.06900
C 	C 	0.04461 0.32917 0.43930 0.01700
C 	C 	0.00551 0.35177 0.42510 -0.08100
C 	C 	0.97050 0.32436 0.38520 0.01500
C 	C 	0.97446 0.27426 0.35940 -0.06500
C 	C 	0.88250 0.40790 0.45400 0.35100
C 	C 	0.50470 0.22950 0.45390 0.37600
C 	C 	0.37760 0.22800 0.45190 0.37200
C 	C 	0.50090 0.28230 0.54990 0.39100
C 	C 	0.27590 0.62130 0.04770 0.34100
C 	C 	0.09460 0.99960 0.04840 0.32500
C 	C 	0.85400 0.08260 0.27280 0.05000
C 	C 	0.79090 0.09090 0.25760 -0.15200
C 	C 	0.42230 0.41690 0.72620 0.06600
C 	C 	0.42880 0.45160 0.76190 -0.16200
C 	C 	0.35340 0.09000 0.26540 0.05700
C 	C 	0.26950 0.03210 0.22850 -0.15500
C 	C 	0.42500 0.15140 0.23550 0.06900
C 	C 	0.45900 0.23320 0.27530 -0.16100
O 	O 	0.06875 0.08039 0.51730 -0.41100
O 	O 	0.12355 0.07323 0.56170 -0.42200
O 	O 	0.02966 0.42328 0.48610 -0.40500
O 	O 	0.96991 0.42735 0.43890 -0.39700
O 	O 	0.07029 0.02887 0.06010 -0.40300
O 	O 	0.37747 0.17263 0.44000 -0.39700
O 	O 	0.43490 0.28938 0.48540 -0.42200
O 	O 	0.52707 0.28893 0.48400 -0.42900
O 	O 	0.47121 0.17047 0.43860 -0.39200
O 	O 	0.21037 0.56363 0.01410 -0.41000
O 	O 	0.32912 0.62050 0.05930 -0.41100
O 	O 	0.52938 0.33046 0.56060 -0.45100
O 	O 	0.47242 0.21336 0.51660 -0.39600
O 	O 	0.07673 0.97201 0.01480 -0.39800
O 	O 	0.93358 0.42200 0.48460 -0.42300
O 	O 	0.87617 0.42739 0.43850 -0.40500
O 	O 	0.89670 0.12490 0.27810 -0.20300
O 	O 	0.45200 0.37760 0.72360 -0.21500
O 	O 	0.39310 0.06230 0.27400 -0.21300
O 	O 	0.37550 0.10830 0.22550 -0.22400
H 	H 	0.54049 0.12908 0.27828 0.03700
H 	H 	0.43395 0.96258 0.22344 0.04200
H 	H 	0.04954 0.07770 0.28242 0.03700
H 	H 	0.59621 0.42496 0.72101 0.04900
H 	H 	0.82907 0.02243 0.24497 0.02300
H 	H 	0.88912 0.10632 0.30647 0.02200
H 	H 	0.78192 0.10513 0.24191 0.07100
H 	H 	0.80777 0.13645 0.28888 0.06200
H 	H 	0.73788 0.03705 0.23113 0.05600
H 	H 	0.45291 0.46230 0.73616 0.01700
H 	H 	0.36208 0.37661 0.69067 0.02100
H 	H 	0.38974 0.46573 0.75486 0.05500
H 	H 	0.48748 0.50362 0.79801 0.06200
H 	H 	0.41393 0.41081 0.75892 0.06700
H 	H 	0.37817 0.14236 0.29884 0.02300
H 	H 	0.35918 0.10316 0.25248 0.04000
H 	H 	0.26267 0.02960 0.24466 0.06400
H 	H 	0.24778 0.97579 0.19826 0.06800
H 	H 	0.23748 0.04910 0.21594 0.05600
H 	H 	0.47029 0.14562 0.24691 0.01400
H 	H 	0.39439 0.13325 0.20403 0.01900
H 	H 	0.51306 0.27095 0.29371 0.05500
H 	H 	0.46933 0.24474 0.30069 0.06900
H 	H 	0.41937 0.24348 0.26048 0.06200
Cu	Cu	0.32002 0.53388 0.02704 0.91300
Cu	Cu	0.49727 0.03331 0.02669 0.90100
Cu	Cu	0.18071 0.46677 0.97343 0.90000
Cu	Cu	0.99703 0.03301 0.02647 0.90100
H 	H 	0.26371 0.64142 0.91104 0.03500
H 	H 	0.86213 0.23696 0.59086 0.03500
H 	H 	0.92090 0.24150 0.57612 0.04400
H 	H 	0.92861 0.15094 0.52985 0.03700
H 	H 	0.06081 0.15907 0.62750 0.03800
H 	H 	0.05309 0.24962 0.67377 0.05400
H 	H 	0.25571 0.73046 0.92258 0.04100
H 	H 	0.34953 0.85453 0.97016 0.04000
H 	H 	0.34538 0.74285 0.87431 0.03900
H 	H 	0.25156 0.61877 0.82674 0.03800
H 	H 	0.06718 0.44543 0.82577 0.06100
H 	H 	0.08996 0.43811 0.87185 0.03600
H 	H 	0.32812 0.57639 0.97314 0.03600
H 	H 	0.30546 0.58389 0.92719 0.04500
H 	H 	0.30607 0.23430 0.92643 0.04300
H 	H 	0.33037 0.35742 0.97219 0.03400
H 	H 	0.09301 0.24275 0.87344 0.03400
H 	H 	0.06889 0.11967 0.82788 0.04200
H 	H 	0.26549 0.14014 0.91261 0.03500
H 	H 	0.24272 0.26773 0.07565 0.04500
H 	H 	0.15165 0.14362 0.02919 0.03700
H 	H 	0.15888 0.25493 0.12648 0.03900
H 	H 	0.24976 0.37902 0.17277 0.05700
H 	H 	0.23352 0.36160 0.08737 0.03500
H 	H 	0.19721 0.41731 0.07449 0.04300
H 	H 	0.17219 0.42342 0.02749 0.03700
H 	H 	0.40994 0.56362 0.12822 0.03700
H 	H 	0.43492 0.55743 0.17521 0.04500
H 	H 	0.88230 0.43629 0.67384 0.04100
H 	H 	0.75876 0.41133 0.62808 0.03700
H 	H 	0.64544 0.17426 0.52970 0.03800
H 	H 	0.76893 0.19925 0.57546 0.04200
H 	H 	0.26077 0.08017 0.92496 0.04400
H 	H 	0.35137 0.07299 0.97160 0.03800
H 	H 	0.34268 0.93895 0.87376 0.03800
H 	H 	0.25210 0.94612 0.82712 0.05700
C 	C 	0.09220 0.12040 0.04760 0.37300
C 	C 	0.40670 0.00270 0.95370 0.32800
C 	C 	0.09451 0.46769 0.77510 -0.01600
C 	C 	0.14057 0.53563 0.79850 -0.03700
C 	C 	0.20080 0.59748 0.84690 -0.00600
C 	C 	0.21500 0.59140 0.87190 -0.02700
C 	C 	0.16897 0.52349 0.84850 -0.05300
C 	C 	0.10872 0.46164 0.80010 0.11600
C 	C 	0.03576 0.40896 0.72680 -0.01800
C 	C 	0.96766 0.39540 0.70330 -0.03300
C 	C 	0.90581 0.33419 0.65490 -0.00500
C 	C 	0.91211 0.28651 0.63000 -0.02700
C 	C 	0.98009 0.29999 0.65340 -0.05200
C 	C 	0.04193 0.36119 0.70180 0.11600
C 	C 	0.98648 0.25026 0.62730 0.04800
C 	C 	0.95216 0.22306 0.58760 -0.06900
C 	C 	0.95643 0.17297 0.56200 0.01700
C 	C 	0.99510 0.15018 0.57620 -0.08300
C 	C 	0.02952 0.17748 0.61600 0.01700
C 	C 	0.02525 0.22757 0.64160 -0.06100
C 	C 	0.24876 0.66806 0.87220 0.02300
C 	C 	0.27578 0.73322 0.91180 -0.05800
C 	C 	0.32763 0.80185 0.93810 0.01100
C 	C 	0.35236 0.80524 0.92470 -0.07600
C 	C 	0.32533 0.74009 0.88510 0.01200
C 	C 	0.27347 0.67145 0.85880 -0.05800
C 	C 	0.18507 0.51499 0.87400 0.05300
C 	C 	0.12552 0.47472 0.85872 -0.06900
C 	C 	0.13812 0.47066 0.88420 0.03000
C 	C 	0.21021 0.50683 0.92490 -0.10600
C 	C 	0.26979 0.54713 0.94020 0.02600
C 	C 	0.25728 0.55126 0.91480 -0.07300
C 	C 	0.18617 0.17045 0.87470 0.02900
C 	C 	0.25845 0.23619 0.91460 -0.06600
C 	C 	0.27190 0.30430 0.93990 0.02800
C 	C 	0.21292 0.30660 0.92520 -0.11700
C 	C 	0.14064 0.24086 0.88530 0.02900
C 	C 	0.12731 0.17283 0.86010 -0.06600
C 	C 	0.19914 0.02190 0.84870 -0.04800
C 	C 	0.21648 0.09164 0.87347 -0.02600
C 	C 	0.17328 0.10152 0.84990 -0.00800
C 	C 	0.11267 0.04159 0.80150 -0.03300
C 	C 	0.09524 0.97176 0.77664 -0.02400
C 	C 	0.13843 0.96187 0.80020 0.12200
C 	C 	0.25109 0.32997 0.12670 0.05200
C 	C 	0.22395 0.26487 0.08700 -0.07200
C 	C 	0.17360 0.19620 0.06130 0.02500
C 	C 	0.15045 0.19269 0.07540 -0.09200
C 	C 	0.17759 0.25779 0.11510 0.02100
C 	C 	0.22786 0.32638 0.14070 -0.06500
C 	C 	0.40450 0.52750 0.22330 -0.01500
C 	C 	0.38859 0.53909 0.20040 -0.03200
C 	C 	0.32769 0.48003 0.15200 -0.00600
C 	C 	0.28275 0.40935 0.12650 -0.02600
C 	C 	0.29872 0.39776 0.14940 -0.05200
C 	C 	0.35963 0.45681 0.19780 0.10600
C 	C 	0.31738 0.48698 0.12730 0.02700
C 	C 	0.24477 0.44999 0.08650 -0.06300
C 	C 	0.23092 0.45340 0.06050 0.02400
C 	C 	0.28977 0.49391 0.07540 -0.09700
C 	C 	0.36237 0.53091 0.11620 0.01800
C 	C 	0.37622 0.52748 0.14220 -0.06100
C 	C 	0.83209 0.31905 0.62700 0.02400
C 	C 	0.82933 0.37773 0.64160 -0.05800
C 	C 	0.76104 0.36392 0.61630 0.01600
C 	C 	0.69550 0.29142 0.57640 -0.08700
C 	C 	0.69836 0.23284 0.56190 0.01600
C 	C 	0.76665 0.24665 0.58720 -0.05800
C 	C 	0.25155 0.01345 0.87350 0.05300
C 	C 	0.27906 0.04858 0.91350 -0.06900
C 	C 	0.32917 0.04461 0.93930 0.01700
C 	C 	0.35177 0.00551 0.92510 -0.08000
C 	C 	0.32436 0.97050 0.88520 0.01500
C 	C 	0.27426 0.97446 0.85940 -0.06600
C 	C 	0.40790 0.88250 0.95400 0.35100
C 	C 	0.22950 0.50470 0.95390 0.37600
C 	C 	0.22800 0.37760 0.95190 0.37200
C 	C 	0.28230 0.50090 0.04990 0.39100
C 	C 	0.62130 0.27590 0.54770 0.34100
C 	C 	0.99960 0.09460 0.54840 0.32400
C 	C 	0.08260 0.85400 0.77280 0.05000
C 	C 	0.09090 0.79090 0.75760 -0.15200
C 	C 	0.41690 0.42230 0.22620 0.06600
C 	C 	0.45160 0.42880 0.26190 -0.16200
C 	C 	0.09000 0.35340 0.76540 0.05700
C 	C 	0.03210 0.26950 0.72850 -0.15500
C 	C 	0.15140 0.42500 0.73550 0.06900
C 	C 	0.23320 0.45900 0.77530 -0.16100
O 	O 	0.08039 0.06875 0.01730 -0.41100
O 	O 	0.07323 0.12355 0.06170 -0.42200
O 	O 	0.42328 0.02966 0.98610 -0.40500
O 	O 	0.42735 0.96991 0.93890 -0.39700
O 	O 	0.02887 0.07029 0.56010 -0.40200
O 	O 	0.17263 0.37747 0.94000 -0.39800
O 	O 	0.28938 0.43490 0.98540 -0.42200
O 	O 	0.28893 0.52707 0.98400 -0.42900
O 	O 	0.17047 0.47121 0.93860 -0.39200
O 	O 	0.56363 0.21037 0.51410 -0.41000
O 	O 	0.62050 0.32912 0.55930 -0.41100
O 	O 	0.33046 0.52938 0.06060 -0.45100
O 	O 	0.21336 0.47242 0.01660 -0.39600
O 	O 	0.97201 0.07673 0.51480 -0.39900
O 	O 	0.42200 0.93358 0.98460 -0.42300
O 	O 	0.42739 0.87617 0.93850 -0.40500
O 	O 	0.12490 0.89670 0.77810 -0.20300
O 	O 	0.37760 0.45200 0.22360 -0.21500
O 	O 	0.06230 0.39310 0.77400 -0.21300
O 	O 	0.10830 0.37550 0.72550 -0.22400
H 	H 	0.12908 0.54049 0.77828 0.03700
H 	H 	0.96258 0.43395 0.72344 0.04200
H 	H 	0.07770 0.04954 0.78242 0.03700
H 	H 	0.42496 0.59621 0.22101 0.04900
H 	H 	0.02243 0.82907 0.74497 0.02300
H 	H 	0.10632 0.88912 0.80647 0.02200
H 	H 	0.10513 0.78192 0.74191 0.07100
H 	H 	0.13645 0.80777 0.78888 0.06200
H 	H 	0.03705 0.73788 0.73113 0.05600
H 	H 	0.46230 0.45291 0.23616 0.01700
H 	H 	0.37661 0.36208 0.19067 0.02100
H 	H 	0.46573 0.38974 0.25486 0.05500
H 	H 	0.50362 0.48748 0.29801 0.06200
H 	H 	0.41081 0.41393 0.25892 0.06700
H 	H 	0.14236 0.37817 0.79884 0.02300
H 	H 	0.10316 0.35918 0.75248 0.04000
H 	H 	0.02960 0.26267 0.74466 0.06400
H 	H 	0.97579 0.24778 0.69826 0.06800
H 	H 	0.04910 0.23748 0.71594 0.05600
H 	H 	0.14562 0.47029 0.74691 0.01400
H 	H 	0.13325 0.39439 0.70403 0.01900
H 	H 	0.27095 0.51306 0.79371 0.05500
H 	H 	0.24474 0.46933 0.80069 0.06900
H 	H 	0.24348 0.41937 0.76048 0.06200
Cu	Cu	0.46612 0.67998 0.47296 0.91300
Cu	Cu	0.96669 0.50273 0.47331 0.90100
Cu	Cu	0.53323 0.81929 0.52657 0.90000
Cu	Cu	0.96699 0.00297 0.47353 0.90200
H 	H 	0.35858 0.73629 0.58896 0.03500
H 	H 	0.76304 0.13787 0.90914 0.03500
H 	H 	0.75850 0.07910 0.92388 0.04400
H 	H 	0.84906 0.07139 0.97015 0.03800
H 	H 	0.84093 0.93919 0.87250 0.03800
H 	H 	0.75038 0.94691 0.82623 0.05400
H 	H 	0.26954 0.74429 0.57742 0.04100
H 	H 	0.14547 0.65047 0.52984 0.04000
H 	H 	0.25715 0.65462 0.62569 0.03900
H 	H 	0.38123 0.74844 0.67326 0.03800
H 	H 	0.55457 0.93282 0.67423 0.06100
H 	H 	0.56189 0.91004 0.62815 0.03700
H 	H 	0.42361 0.67188 0.52686 0.03600
H 	H 	0.41611 0.69454 0.57281 0.04500
H 	H 	0.76570 0.69393 0.57357 0.04300
H 	H 	0.64258 0.66963 0.52781 0.03400
H 	H 	0.75725 0.90699 0.62656 0.03400
H 	H 	0.88033 0.93111 0.67212 0.04200
H 	H 	0.85986 0.73451 0.58739 0.03500
H 	H 	0.73227 0.75728 0.42435 0.04500
H 	H 	0.85638 0.84835 0.47081 0.03700
H 	H 	0.74507 0.84112 0.37352 0.03900
H 	H 	0.62098 0.75024 0.32723 0.05700
H 	H 	0.63840 0.76648 0.41263 0.03500
H 	H 	0.58269 0.80279 0.42551 0.04300
H 	H 	0.57658 0.82781 0.47251 0.03700
H 	H 	0.43638 0.59006 0.37178 0.03700
H 	H 	0.44257 0.56508 0.32479 0.04500
H 	H 	0.56371 0.11770 0.82616 0.04100
H 	H 	0.58867 0.24124 0.87192 0.03700
H 	H 	0.82574 0.35456 0.97030 0.03800
H 	H 	0.80075 0.23107 0.92454 0.04200
H 	H 	0.91983 0.73923 0.57504 0.04400
H 	H 	0.92701 0.64863 0.52840 0.03800
H 	H 	0.06105 0.65732 0.62624 0.03800
H 	H 	0.05388 0.74790 0.67288 0.05700
C 	C 	0.87960 0.90780 0.45240 0.37300
C 	C 	0.99730 0.59330 0.54630 0.32700
C 	C 	0.53231 0.90549 0.72490 -0.01600
C 	C 	0.46437 0.85943 0.70150 -0.03700
C 	C 	0.40252 0.79920 0.65310 -0.00600
C 	C 	0.40860 0.78500 0.62810 -0.02700
C 	C 	0.47651 0.83103 0.65150 -0.05300
C 	C 	0.53836 0.89128 0.69990 0.11600
C 	C 	0.59104 0.96424 0.77320 -0.01800
C 	C 	0.60460 0.03234 0.79670 -0.03300
C 	C 	0.66581 0.09419 0.84510 -0.00500
C 	C 	0.71349 0.08789 0.87000 -0.02700
C 	C 	0.70001 0.01991 0.84660 -0.05200
C 	C 	0.63881 0.95807 0.79820 0.11600
C 	C 	0.74974 0.01352 0.87270 0.04800
C 	C 	0.77694 0.04784 0.91240 -0.06900
C 	C 	0.82703 0.04357 0.93800 0.01700
C 	C 	0.84982 0.00490 0.92380 -0.08300
C 	C 	0.82252 0.97048 0.88400 0.01600
C 	C 	0.77243 0.97475 0.85840 -0.06100
C 	C 	0.33194 0.75124 0.62780 0.02300
C 	C 	0.26678 0.72422 0.58820 -0.05800
C 	C 	0.19815 0.67237 0.56190 0.01100
C 	C 	0.19476 0.64764 0.57530 -0.07600
C 	C 	0.25991 0.67467 0.61490 0.01200
C 	C 	0.32855 0.72653 0.64120 -0.05800
C 	C 	0.48501 0.81493 0.62600 0.05300
C 	C 	0.52528 0.87448 0.64128 -0.06900
C 	C 	0.52934 0.86188 0.61580 0.03000
C 	C 	0.49317 0.78979 0.57510 -0.10600
C 	C 	0.45287 0.73021 0.55980 0.02600
C 	C 	0.44874 0.74272 0.58520 -0.07300
C 	C 	0.82955 0.81383 0.62530 0.02900
C 	C 	0.76381 0.74155 0.58540 -0.06600
C 	C 	0.69570 0.72810 0.56010 0.02800
C 	C 	0.69340 0.78708 0.57480 -0.11700
C 	C 	0.75914 0.85936 0.61470 0.02900
C 	C 	0.82717 0.87269 0.63990 -0.06600
C 	C 	0.97810 0.80086 0.65130 -0.04800
C 	C 	0.90836 0.78352 0.62653 -0.02600
C 	C 	0.89848 0.82672 0.65010 -0.00800
C 	C 	0.95841 0.88733 0.69850 -0.03300
C 	C 	0.02824 0.90476 0.72336 -0.02400
C 	C 	0.03813 0.86157 0.69980 0.12200
C 	C 	0.67003 0.74891 0.37330 0.05200
C 	C 	0.73513 0.77605 0.41300 -0.07200
C 	C 	0.80380 0.82640 0.43870 0.02500
C 	C 	0.80731 0.84955 0.42460 -0.09200
C 	C 	0.74221 0.82241 0.38490 0.02100
C 	C 	0.67362 0.77214 0.35930 -0.06500
C 	C 	0.47250 0.59550 0.27670 -0.01500
C 	C 	0.46091 0.61141 0.29960 -0.03200
C 	C 	0.51997 0.67231 0.34800 -0.00600
C 	C 	0.59065 0.71725 0.37350 -0.02600
C 	C 	0.60224 0.70128 0.35060 -0.05200
C 	C 	0.54319 0.64037 0.30220 0.10600
C 	C 	0.51302 0.68262 0.37270 0.02700
C 	C 	0.55001 0.75523 0.41350 -0.06300
C 	C 	0.54660 0.76908 0.43950 0.02400
C 	C 	0.50609 0.71023 0.42460 -0.09700
C 	C 	0.46909 0.63763 0.38380 0.01800
C 	C 	0.47252 0.62378 0.35780 -0.06100
C 	C 	0.68095 0.16791 0.87300 0.02400
C 	C 	0.62227 0.17067 0.85840 -0.05800
C 	C 	0.63608 0.23896 0.88370 0.01600
C 	C 	0.70858 0.30450 0.92360 -0.08700
C 	C 	0.76716 0.30164 0.93810 0.01600
C 	C 	0.75335 0.23335 0.91280 -0.05800
C 	C 	0.98655 0.74845 0.62650 0.05200
C 	C 	0.95142 0.72094 0.58650 -0.06900
C 	C 	0.95539 0.67083 0.56070 0.01700
C 	C 	0.99449 0.64823 0.57490 -0.08100
C 	C 	0.02950 0.67564 0.61480 0.01500
C 	C 	0.02554 0.72574 0.64060 -0.06500
C 	C 	0.11750 0.59210 0.54600 0.35100
C 	C 	0.49530 0.77050 0.54610 0.37600
C 	C 	0.62240 0.77200 0.54810 0.37200
C 	C 	0.49910 0.71770 0.45010 0.39100
C 	C 	0.72410 0.37870 0.95230 0.34100
C 	C 	0.90540 0.00040 0.95160 0.32500
C 	C 	0.14600 0.91740 0.72720 0.05000
C 	C 	0.20910 0.90910 0.74240 -0.15200
C 	C 	0.57770 0.58310 0.27380 0.06600
C 	C 	0.57120 0.54840 0.23810 -0.16200
C 	C 	0.64660 0.91000 0.73460 0.05700
C 	C 	0.73050 0.96790 0.77150 -0.15500
C 	C 	0.57500 0.84860 0.76450 0.06900
C 	C 	0.54100 0.76680 0.72470 -0.16100
O 	O 	0.93125 0.91961 0.48270 -0.41100
O 	O 	0.87645 0.92677 0.43830 -0.42200
O 	O 	0.97034 0.57672 0.51390 -0.40500
O 	O 	0.03009 0.57265 0.56110 -0.39700
O 	O 	0.92971 0.97113 0.93990 -0.40300
O 	O 	0.62253 0.82737 0.56000 -0.39700
O 	O 	0.56510 0.71062 0.51460 -0.42200
O 	O 	0.47293 0.71107 0.51600 -0.42900
O 	O 	0.52879 0.82953 0.56140 -0.39200
O 	O 	0.78963 0.43637 0.98590 -0.41000
O 	O 	0.67088 0.37950 0.94070 -0.41100
O 	O 	0.47062 0.66954 0.43940 -0.45100
O 	O 	0.52758 0.78664 0.48340 -0.39600
O 	O 	0.92327 0.02799 0.98520 -0.39800
O 	O 	0.06642 0.57800 0.51540 -0.42300
O 	O 	0.12383 0.57261 0.56150 -0.40500
O 	O 	0.10330 0.87510 0.72190 -0.20300
O 	O 	0.54800 0.62240 0.27640 -0.21500
O 	O 	0.60690 0.93770 0.72600 -0.21300
O 	O 	0.62450 0.89170 0.77450 -0.22400
H 	H 	0.45951 0.87092 0.72172 0.03700
H 	H 	0.56605 0.03742 0.77656 0.04200
H 	H 	0.95046 0.92230 0.71758 0.03700
H 	H 	0.40379 0.57504 0.27899 0.04900
H 	H 	0.17093 0.97757 0.75503 0.02300
H 	H 	0.11088 0.89368 0.69353 0.02200
H 	H 	0.21808 0.89487 0.75809 0.07100
H 	H 	0.19223 0.86355 0.71112 0.06200
H 	H 	0.26212 0.96295 0.76887 0.05600
H 	H 	0.54709 0.53770 0.26384 0.01700
H 	H 	0.63792 0.62339 0.30933 0.02100
H 	H 	0.61026 0.53427 0.24514 0.05500
H 	H 	0.51252 0.49638 0.20199 0.06200
H 	H 	0.58607 0.58919 0.24108 0.06700
H 	H 	0.62183 0.85764 0.70116 0.02300
H 	H 	0.64082 0.89684 0.74752 0.04000
H 	H 	0.73733 0.97040 0.75534 0.06400
H 	H 	0.75222 0.02421 0.80174 0.06800
H 	H 	0.76252 0.95090 0.78406 0.05600
H 	H 	0.52971 0.85438 0.75309 0.01400
H 	H 	0.60561 0.86675 0.79597 0.01900
H 	H 	0.48694 0.72905 0.70629 0.05500
H 	H 	0.53067 0.75526 0.69931 0.06900
H 	H 	0.58063 0.75652 0.73952 0.06200
