data_crystal

_cell_length_a 29.56650
_cell_length_b 29.56650
_cell_length_c 31.15630
_cell_angle_alpha 103.72600
_cell_angle_beta  103.72600
_cell_angle_gamma 90.00380

_symmetry_space_group_name_	'P 1'
_symmetry_space_group_name_H-M	'P 1'

loop_
_symmetry_equiv_pos_as_xyz
  x,y,z

loop_
_atom_site_label
_atom_site_type_symbol
_atom_site_fract_x
_atom_site_fract_y
_atom_site_fract_z
_atom_site_charge
Zn	Zn	0.46691 0.00773 0.02982 1.19800
Zn	Zn	0.49256 0.70198 0.47037 1.19500
Zn	Zn	0.99275 0.03327 0.47040 1.19900
Zn	Zn	0.50742 0.79808 0.52982 1.19700
Zn	Zn	0.99227 0.53309 0.47018 1.19800
Zn	Zn	0.29802 0.50744 0.02963 1.19500
Zn	Zn	0.96673 0.00725 0.02960 1.19800
Zn	Zn	0.20192 0.49258 0.97018 1.19600
Zn	Zn	0.53309 0.99227 0.97018 1.19800
Zn	Zn	0.50744 0.29802 0.52963 1.19500
Zn	Zn	0.00725 0.96673 0.52960 1.20000
Zn	Zn	0.49258 0.20192 0.47018 1.19800
Zn	Zn	0.00773 0.46691 0.52982 1.19900
Zn	Zn	0.70198 0.49256 0.97037 1.19600
Zn	Zn	0.03327 0.99275 0.97040 1.19900
Zn	Zn	0.79808 0.50742 0.02982 1.19700
H 	H 	0.64880 0.77360 0.09810 0.04000
H 	H 	0.72650 0.85110 0.40210 0.04100
H 	H 	0.65920 0.84740 0.07910 0.08600
H 	H 	0.61900 0.89680 0.03670 0.01800
H 	H 	0.53650 0.92890 0.12530 0.01900
H 	H 	0.57680 0.87960 0.16780 0.10000
H 	H 	0.63030 0.69190 0.07980 0.07300
H 	H 	0.64970 0.62110 0.03800 0.02700
H 	H 	0.77690 0.63490 0.12610 0.02800
H 	H 	0.75760 0.70580 0.16790 0.07700
H 	H 	0.79550 0.92470 0.33210 0.10000
H 	H 	0.86640 0.96480 0.37420 0.01700
H 	H 	0.87860 0.88280 0.46330 0.01600
H 	H 	0.80780 0.84260 0.42120 0.08400
H 	H 	0.35200 0.72500 0.90360 0.04100
H 	H 	0.24350 0.61910 0.83120 0.09600
H 	H 	0.22440 0.56980 0.87370 0.02000
H 	H 	0.35010 0.60430 0.96390 0.01800
H 	H 	0.36920 0.65360 0.92130 0.08300
H 	H 	0.34070 0.80890 0.92110 0.07700
H 	H 	0.38080 0.88000 0.96280 0.02400
H 	H 	0.46320 0.86680 0.87410 0.02400
H 	H 	0.42310 0.79570 0.83240 0.08600
H 	H 	0.22490 0.85030 0.40420 0.04300
H 	H 	0.15140 0.84060 0.42170 0.08200
H 	H 	0.10220 0.88100 0.46440 0.01900
H 	H 	0.06990 0.96350 0.37570 0.02200
H 	H 	0.11910 0.92310 0.33310 0.10100
H 	H 	0.29660 0.74400 0.33250 0.07900
H 	H 	0.36760 0.72480 0.37420 0.02300
H 	H 	0.37920 0.85040 0.46470 0.02400
H 	H 	0.30820 0.86960 0.42290 0.07700
H 	H 	0.65170 0.87110 0.42230 0.07900
H 	H 	0.60140 0.85180 0.46370 0.02100
H 	H 	0.57120 0.72460 0.37530 0.02000
H 	H 	0.62160 0.74400 0.33390 0.08100
H 	H 	0.22640 0.35120 0.40190 0.04000
H 	H 	0.14890 0.27350 0.09790 0.04100
H 	H 	0.15260 0.34080 0.42090 0.08600
H 	H 	0.10320 0.38100 0.46330 0.01800
H 	H 	0.07110 0.46350 0.37470 0.01900
H 	H 	0.12040 0.42320 0.33220 0.10000
H 	H 	0.30810 0.36970 0.42020 0.07300
H 	H 	0.37890 0.35030 0.46200 0.02700
H 	H 	0.36510 0.22310 0.37390 0.02800
H 	H 	0.29420 0.24240 0.33210 0.07700
H 	H 	0.07530 0.20450 0.16790 0.10000
H 	H 	0.03520 0.13360 0.12580 0.01700
H 	H 	0.11720 0.12140 0.03670 0.01600
H 	H 	0.15740 0.19220 0.07880 0.08400
H 	H 	0.27500 0.64800 0.59640 0.04100
H 	H 	0.38090 0.75650 0.66880 0.09600
H 	H 	0.43020 0.77560 0.62630 0.02000
H 	H 	0.39570 0.64990 0.53610 0.01800
H 	H 	0.34640 0.63080 0.57870 0.08300
H 	H 	0.19110 0.65930 0.57890 0.07700
H 	H 	0.12000 0.61920 0.53720 0.02400
H 	H 	0.13320 0.53680 0.62590 0.02400
H 	H 	0.20430 0.57690 0.66760 0.08600
H 	H 	0.14970 0.77510 0.09580 0.04300
H 	H 	0.15940 0.84860 0.07830 0.08200
H 	H 	0.11900 0.89780 0.03560 0.02000
H 	H 	0.03650 0.93010 0.12430 0.02200
H 	H 	0.07690 0.88090 0.16690 0.10100
H 	H 	0.25600 0.70340 0.16750 0.07900
H 	H 	0.27520 0.63240 0.12580 0.02300
H 	H 	0.14960 0.62080 0.03530 0.02400
H 	H 	0.13040 0.69180 0.07710 0.07700
H 	H 	0.12890 0.34830 0.07770 0.07900
H 	H 	0.14820 0.39860 0.03630 0.02200
H 	H 	0.27540 0.42880 0.12470 0.02000
H 	H 	0.25600 0.37840 0.16610 0.08100
H 	H 	0.35120 0.22640 0.90190 0.04000
H 	H 	0.27350 0.14890 0.59790 0.04100
H 	H 	0.34080 0.15260 0.92090 0.08600
H 	H 	0.38100 0.10320 0.96330 0.01800
H 	H 	0.46350 0.07110 0.87470 0.01900
H 	H 	0.42320 0.12040 0.83220 0.10000
H 	H 	0.36970 0.30810 0.92020 0.07300
H 	H 	0.35030 0.37890 0.96200 0.02700
H 	H 	0.22310 0.36510 0.87390 0.02800
H 	H 	0.24240 0.29420 0.83210 0.07700
H 	H 	0.20450 0.07530 0.66790 0.10000
H 	H 	0.13360 0.03520 0.62580 0.01700
H 	H 	0.12140 0.11720 0.53670 0.01600
H 	H 	0.19220 0.15740 0.57880 0.08400
H 	H 	0.64800 0.27500 0.09640 0.04100
H 	H 	0.75650 0.38090 0.16880 0.09600
H 	H 	0.77560 0.43020 0.12630 0.02000
H 	H 	0.64990 0.39570 0.03610 0.01800
H 	H 	0.63080 0.34640 0.07870 0.08300
H 	H 	0.65930 0.19110 0.07890 0.07700
H 	H 	0.61920 0.12000 0.03720 0.02400
H 	H 	0.53680 0.13320 0.12590 0.02400
H 	H 	0.57690 0.20430 0.16760 0.08600
H 	H 	0.77510 0.14970 0.59580 0.04300
H 	H 	0.84860 0.15940 0.57830 0.08200
H 	H 	0.89780 0.11900 0.53560 0.01900
H 	H 	0.93010 0.03650 0.62430 0.02200
H 	H 	0.88090 0.07690 0.66690 0.10100
H 	H 	0.70340 0.25600 0.66750 0.07900
H 	H 	0.63240 0.27520 0.62580 0.02300
H 	H 	0.62080 0.14960 0.53530 0.02400
H 	H 	0.69180 0.13040 0.57710 0.07700
H 	H 	0.34830 0.12890 0.57770 0.07900
H 	H 	0.39860 0.14820 0.53630 0.02100
H 	H 	0.42880 0.27540 0.62470 0.02000
H 	H 	0.37840 0.25600 0.66610 0.08100
H 	H 	0.77360 0.64880 0.59810 0.04000
H 	H 	0.85110 0.72650 0.90210 0.04100
H 	H 	0.84740 0.65920 0.57910 0.08600
H 	H 	0.89680 0.61900 0.53670 0.01800
H 	H 	0.92890 0.53650 0.62530 0.01900
H 	H 	0.87960 0.57680 0.66780 0.10000
H 	H 	0.69190 0.63030 0.57980 0.07300
H 	H 	0.62110 0.64970 0.53800 0.02700
H 	H 	0.63490 0.77690 0.62610 0.02800
H 	H 	0.70580 0.75760 0.66790 0.07700
H 	H 	0.92470 0.79550 0.83210 0.10000
H 	H 	0.96480 0.86640 0.87420 0.01700
H 	H 	0.88280 0.87860 0.96330 0.01600
H 	H 	0.84260 0.80780 0.92120 0.08400
H 	H 	0.72500 0.35200 0.40360 0.04100
H 	H 	0.61910 0.24350 0.33120 0.09600
H 	H 	0.56980 0.22440 0.37370 0.02000
H 	H 	0.60430 0.35010 0.46390 0.01800
H 	H 	0.65360 0.36920 0.42130 0.08300
H 	H 	0.80890 0.34070 0.42110 0.07700
H 	H 	0.88000 0.38080 0.46280 0.02400
H 	H 	0.86680 0.46320 0.37410 0.02400
H 	H 	0.79570 0.42310 0.33240 0.08600
H 	H 	0.85030 0.22490 0.90420 0.04300
H 	H 	0.84060 0.15140 0.92170 0.08200
H 	H 	0.88100 0.10220 0.96440 0.02000
H 	H 	0.96350 0.06990 0.87570 0.02200
H 	H 	0.92310 0.11910 0.83310 0.10100
H 	H 	0.74400 0.29660 0.83250 0.07900
H 	H 	0.72480 0.36760 0.87420 0.02300
H 	H 	0.85040 0.37920 0.96470 0.02400
H 	H 	0.86960 0.30820 0.92290 0.07700
H 	H 	0.87110 0.65170 0.92230 0.07900
H 	H 	0.85180 0.60140 0.96370 0.02200
H 	H 	0.72460 0.57120 0.87530 0.02000
H 	H 	0.74400 0.62160 0.83390 0.08100
C 	C 	0.68146 0.80898 0.22585 -0.02400
C 	C 	0.65748 0.83944 0.20090 0.14100
C 	C 	0.64519 0.82613 0.15290 -0.07900
C 	C 	0.65687 0.78235 0.12980 -0.02500
C 	C 	0.68085 0.75189 0.15470 -0.03000
C 	C 	0.69314 0.76520 0.20280 0.00800
C 	C 	0.69101 0.81913 0.27441 -0.02600
C 	C 	0.73476 0.84248 0.29730 0.13600
C 	C 	0.74811 0.85451 0.34540 -0.06800
C 	C 	0.71771 0.84321 0.37045 -0.02900
C 	C 	0.67395 0.81985 0.34750 -0.03300
C 	C 	0.66060 0.80782 0.29950 0.01100
C 	C 	0.62217 0.85837 0.12780 0.11600
C 	C 	0.63486 0.86360 0.08830 -0.15200
C 	C 	0.61057 0.89339 0.06273 0.06800
C 	C 	0.57357 0.91797 0.07666 -0.14000
C 	C 	0.56088 0.91274 0.11620 0.07100
C 	C 	0.58517 0.88295 0.14172 -0.15000
C 	C 	0.69199 0.70615 0.12810 0.07200
C 	C 	0.65947 0.68061 0.08900 -0.12100
C 	C 	0.67112 0.63788 0.06381 0.03800
C 	C 	0.71528 0.62070 0.07775 -0.11100
C 	C 	0.74781 0.64623 0.11690 0.04300
C 	C 	0.73616 0.68896 0.14207 -0.12200
C 	C 	0.79437 0.87951 0.37234 0.10900
C 	C 	0.81202 0.91632 0.35819 -0.14800
C 	C 	0.85471 0.94053 0.38360 0.07600
C 	C 	0.87973 0.92793 0.42310 -0.15200
C 	C 	0.86209 0.89111 0.43723 0.07300
C 	C 	0.81940 0.86690 0.41190 -0.15200
C 	C 	0.31878 0.69656 0.77585 -0.02500
C 	C 	0.31023 0.66305 0.79900 0.12000
C 	C 	0.32271 0.67377 0.84700 -0.06600
C 	C 	0.34374 0.71800 0.87189 -0.02800
C 	C 	0.35227 0.75151 0.84880 -0.03700
C 	C 	0.33979 0.74079 0.80080 0.02000
C 	C 	0.30835 0.64141 0.87190 0.10600
C 	C 	0.26472 0.61618 0.85754 -0.14400
C 	C 	0.25318 0.58648 0.88320 0.06800
C 	C 	0.28529 0.58199 0.92317 -0.13900
C 	C 	0.32892 0.60720 0.93752 0.06500
C 	C 	0.34045 0.63691 0.91190 -0.14700
C 	C 	0.37776 0.79506 0.87250 0.08400
C 	C 	0.36501 0.82043 0.91180 -0.13200
C 	C 	0.38918 0.86322 0.93692 0.05100
C 	C 	0.42610 0.88062 0.92274 -0.12400
C 	C 	0.43885 0.85525 0.88340 0.05400
C 	C 	0.41468 0.81246 0.85830 -0.13200
C 	C 	0.19656 0.81922 0.27654 -0.02400
C 	C 	0.24067 0.81049 0.30150 0.00400
C 	C 	0.25132 0.82214 0.34960 -0.03000
C 	C 	0.21785 0.84253 0.37258 -0.03400
C 	C 	0.17375 0.85127 0.34760 -0.06000
C 	C 	0.16309 0.83961 0.29960 0.12100
C 	C 	0.14033 0.87773 0.37306 0.10500
C 	C 	0.13522 0.86506 0.41260 -0.14600
C 	C 	0.10555 0.88943 0.43828 0.06500
C 	C 	0.08099 0.92645 0.42441 -0.13900
C 	C 	0.08610 0.93912 0.38490 0.07000
C 	C 	0.11576 0.91476 0.35919 -0.14400
C 	C 	0.29514 0.80872 0.37344 0.07800
C 	C 	0.31304 0.76510 0.35876 -0.13000
C 	C 	0.35584 0.75354 0.38390 0.05400
C 	C 	0.38074 0.78560 0.42371 -0.12900
C 	C 	0.36283 0.82923 0.43839 0.05200
C 	C 	0.32005 0.84079 0.41330 -0.12900
C 	C 	0.64183 0.80953 0.37380 0.08200
C 	C 	0.63574 0.84200 0.41290 -0.13300
C 	C 	0.60537 0.83035 0.43790 0.05600
C 	C 	0.58109 0.78623 0.42374 -0.13800
C 	C 	0.58718 0.75376 0.38460 0.06200
C 	C 	0.61756 0.76542 0.35967 -0.13500
C 	C 	0.54810 0.94910 0.04790 0.41600
C 	C 	0.72600 0.57420 0.04790 0.39200
C 	C 	0.55130 0.77630 0.45310 0.41000
C 	C 	0.04990 0.95150 0.45260 0.41900
C 	C 	0.27390 0.55090 0.95090 0.40100
C 	C 	0.92420 0.95340 0.45100 0.42000
C 	C 	0.45220 0.92580 0.95070 0.38800
C 	C 	0.42580 0.77380 0.45240 0.41400
C 	C 	0.80250 0.81610 0.27450 0.06700
C 	C 	0.83290 0.83490 0.24490 -0.01200
C 	C 	0.68870 0.91610 0.23420 0.07800
C 	C 	0.67540 0.96420 0.26360 -0.01500
C 	C 	0.08180 0.81000 0.27650 0.06400
C 	C 	0.03410 0.82630 0.24590 -0.01000
C 	C 	0.33110 0.58630 0.77630 0.07200
C 	C 	0.30250 0.53790 0.74980 -0.01600
C 	C 	0.19102 0.31854 0.27415 -0.02400
C 	C 	0.16056 0.34252 0.29910 0.14100
C 	C 	0.17387 0.35481 0.34710 -0.07900
C 	C 	0.21765 0.34313 0.37020 -0.02500
C 	C 	0.24811 0.31915 0.34530 -0.03000
C 	C 	0.23480 0.30686 0.29720 0.00800
C 	C 	0.18087 0.30899 0.22559 -0.02600
C 	C 	0.15752 0.26524 0.20270 0.13600
C 	C 	0.14549 0.25189 0.15460 -0.06800
C 	C 	0.15679 0.28229 0.12955 -0.02900
C 	C 	0.18015 0.32605 0.15250 -0.03300
C 	C 	0.19218 0.33940 0.20050 0.01100
C 	C 	0.14163 0.37783 0.37220 0.11600
C 	C 	0.13640 0.36514 0.41170 -0.15300
C 	C 	0.10661 0.38943 0.43727 0.06800
C 	C 	0.08203 0.42643 0.42334 -0.14000
C 	C 	0.08726 0.43912 0.38380 0.07200
C 	C 	0.11705 0.41483 0.35828 -0.15000
C 	C 	0.29385 0.30801 0.37190 0.07200
C 	C 	0.31939 0.34053 0.41100 -0.12100
C 	C 	0.36212 0.32888 0.43619 0.03800
C 	C 	0.37930 0.28472 0.42225 -0.11100
C 	C 	0.35377 0.25219 0.38310 0.04300
C 	C 	0.31104 0.26384 0.35793 -0.12200
C 	C 	0.12049 0.20563 0.12766 0.10900
C 	C 	0.08368 0.18798 0.14181 -0.14800
C 	C 	0.05947 0.14529 0.11640 0.07600
C 	C 	0.07207 0.12027 0.07690 -0.15200
C 	C 	0.10889 0.13791 0.06277 0.07300
C 	C 	0.13310 0.18060 0.08810 -0.15200
C 	C 	0.30344 0.68122 0.72415 -0.02500
C 	C 	0.33695 0.68977 0.70100 0.12000
C 	C 	0.32623 0.67729 0.65300 -0.06600
C 	C 	0.28200 0.65626 0.62811 -0.02800
C 	C 	0.24849 0.64773 0.65120 -0.03700
C 	C 	0.25921 0.66021 0.69920 0.02000
C 	C 	0.35859 0.69165 0.62810 0.10600
C 	C 	0.38382 0.73528 0.64246 -0.14400
C 	C 	0.41352 0.74682 0.61680 0.06800
C 	C 	0.41801 0.71471 0.57683 -0.13900
C 	C 	0.39280 0.67108 0.56248 0.06500
C 	C 	0.36309 0.65955 0.58810 -0.14700
C 	C 	0.20494 0.62224 0.62750 0.08400
C 	C 	0.17957 0.63499 0.58820 -0.13100
C 	C 	0.13678 0.61082 0.56308 0.05100
C 	C 	0.11938 0.57390 0.57726 -0.12300
C 	C 	0.14475 0.56115 0.61660 0.05400
C 	C 	0.18754 0.58532 0.64170 -0.13200
C 	C 	0.18078 0.80344 0.22346 -0.02400
C 	C 	0.18951 0.75933 0.19850 0.00400
C 	C 	0.17786 0.74868 0.15040 -0.03000
C 	C 	0.15747 0.78215 0.12742 -0.03400
C 	C 	0.14873 0.82625 0.15240 -0.06000
C 	C 	0.16039 0.83691 0.20040 0.12100
C 	C 	0.12227 0.85967 0.12694 0.10500
C 	C 	0.13494 0.86478 0.08740 -0.14500
C 	C 	0.11057 0.89445 0.06172 0.06500
C 	C 	0.07355 0.91901 0.07559 -0.13900
C 	C 	0.06088 0.91390 0.11510 0.07000
C 	C 	0.08524 0.88424 0.14081 -0.14400
C 	C 	0.19128 0.70486 0.12656 0.07800
C 	C 	0.23490 0.68696 0.14124 -0.13000
C 	C 	0.24646 0.64416 0.11610 0.05400
C 	C 	0.21440 0.61926 0.07629 -0.12900
C 	C 	0.17077 0.63717 0.06161 0.05200
C 	C 	0.15921 0.67995 0.08670 -0.12900
C 	C 	0.19047 0.35817 0.12620 0.08200
C 	C 	0.15800 0.36426 0.08710 -0.13300
C 	C 	0.16965 0.39463 0.06210 0.05600
C 	C 	0.21377 0.41891 0.07626 -0.13800
C 	C 	0.24624 0.41282 0.11540 0.06200
C 	C 	0.23458 0.38244 0.14033 -0.13400
C 	C 	0.05090 0.45190 0.45210 0.41600
C 	C 	0.42580 0.27400 0.45210 0.39200
C 	C 	0.22370 0.44870 0.04690 0.41000
C 	C 	0.04850 0.95010 0.04740 0.41900
C 	C 	0.44910 0.72610 0.54910 0.40100
C 	C 	0.04660 0.07580 0.04900 0.42000
C 	C 	0.07420 0.54780 0.54930 0.38800
C 	C 	0.22620 0.57420 0.04760 0.41400
C 	C 	0.18390 0.19750 0.22550 0.06700
C 	C 	0.16510 0.16710 0.25510 -0.01200
C 	C 	0.08390 0.31130 0.26580 0.07800
C 	C 	0.03580 0.32460 0.23640 -0.01500
C 	C 	0.19000 0.91820 0.22350 0.06400
C 	C 	0.17370 0.96590 0.25410 -0.01000
C 	C 	0.41370 0.66890 0.72370 0.07200
C 	C 	0.46210 0.69750 0.75020 -0.01600
C 	C 	0.31854 0.19102 0.77415 -0.02400
C 	C 	0.34252 0.16056 0.79910 0.14100
C 	C 	0.35481 0.17387 0.84710 -0.07900
C 	C 	0.34313 0.21765 0.87020 -0.02500
C 	C 	0.31915 0.24811 0.84530 -0.03000
C 	C 	0.30686 0.23480 0.79720 0.00800
C 	C 	0.30899 0.18087 0.72559 -0.02600
C 	C 	0.26524 0.15752 0.70270 0.13600
C 	C 	0.25189 0.14549 0.65460 -0.06800
C 	C 	0.28229 0.15679 0.62955 -0.02900
C 	C 	0.32605 0.18015 0.65250 -0.03300
C 	C 	0.33940 0.19218 0.70050 0.01100
C 	C 	0.37783 0.14163 0.87220 0.11600
C 	C 	0.36514 0.13640 0.91170 -0.15200
C 	C 	0.38943 0.10661 0.93727 0.06800
C 	C 	0.42643 0.08203 0.92334 -0.14000
C 	C 	0.43912 0.08726 0.88380 0.07100
C 	C 	0.41483 0.11705 0.85828 -0.15000
C 	C 	0.30801 0.29385 0.87190 0.07200
C 	C 	0.34053 0.31939 0.91100 -0.12100
C 	C 	0.32888 0.36212 0.93619 0.03800
C 	C 	0.28472 0.37930 0.92225 -0.11100
C 	C 	0.25219 0.35377 0.88310 0.04300
C 	C 	0.26384 0.31104 0.85793 -0.12200
C 	C 	0.20563 0.12049 0.62766 0.10900
C 	C 	0.18798 0.08368 0.64181 -0.14800
C 	C 	0.14529 0.05947 0.61640 0.07600
C 	C 	0.12027 0.07207 0.57690 -0.15200
C 	C 	0.13791 0.10889 0.56277 0.07300
C 	C 	0.18060 0.13310 0.58810 -0.15200
C 	C 	0.68122 0.30344 0.22415 -0.02500
C 	C 	0.68977 0.33695 0.20100 0.12000
C 	C 	0.67729 0.32623 0.15300 -0.06600
C 	C 	0.65626 0.28200 0.12811 -0.02800
C 	C 	0.64773 0.24849 0.15120 -0.03700
C 	C 	0.66021 0.25921 0.19920 0.02000
C 	C 	0.69165 0.35859 0.12810 0.10600
C 	C 	0.73528 0.38382 0.14246 -0.14400
C 	C 	0.74682 0.41352 0.11680 0.06800
C 	C 	0.71471 0.41801 0.07683 -0.13900
C 	C 	0.67108 0.39280 0.06248 0.06500
C 	C 	0.65955 0.36309 0.08810 -0.14700
C 	C 	0.62224 0.20494 0.12750 0.08400
C 	C 	0.63499 0.17957 0.08820 -0.13200
C 	C 	0.61082 0.13678 0.06308 0.05100
C 	C 	0.57390 0.11938 0.07726 -0.12400
C 	C 	0.56115 0.14475 0.11660 0.05400
C 	C 	0.58532 0.18754 0.14170 -0.13200
C 	C 	0.80344 0.18078 0.72346 -0.02400
C 	C 	0.75933 0.18951 0.69850 0.00400
C 	C 	0.74868 0.17786 0.65040 -0.03000
C 	C 	0.78215 0.15747 0.62742 -0.03400
C 	C 	0.82625 0.14873 0.65240 -0.06000
C 	C 	0.83691 0.16039 0.70040 0.12100
C 	C 	0.85967 0.12227 0.62694 0.10500
C 	C 	0.86478 0.13494 0.58740 -0.14600
C 	C 	0.89445 0.11057 0.56172 0.06500
C 	C 	0.91901 0.07355 0.57559 -0.13900
C 	C 	0.91390 0.06088 0.61510 0.07000
C 	C 	0.88424 0.08524 0.64081 -0.14400
C 	C 	0.70486 0.19128 0.62656 0.07800
C 	C 	0.68696 0.23490 0.64124 -0.13000
C 	C 	0.64416 0.24646 0.61610 0.05400
C 	C 	0.61926 0.21440 0.57629 -0.12900
C 	C 	0.63717 0.17077 0.56161 0.05200
C 	C 	0.67995 0.15921 0.58670 -0.12900
C 	C 	0.35817 0.19047 0.62620 0.08200
C 	C 	0.36426 0.15800 0.58710 -0.13300
C 	C 	0.39463 0.16965 0.56210 0.05600
C 	C 	0.41891 0.21377 0.57626 -0.13800
C 	C 	0.41282 0.24624 0.61540 0.06200
C 	C 	0.38244 0.23458 0.64033 -0.13500
C 	C 	0.45190 0.05090 0.95210 0.41600
C 	C 	0.27400 0.42580 0.95210 0.39200
C 	C 	0.44870 0.22370 0.54690 0.41000
C 	C 	0.95010 0.04850 0.54740 0.41900
C 	C 	0.72610 0.44910 0.04910 0.40100
C 	C 	0.07580 0.04660 0.54900 0.42000
C 	C 	0.54780 0.07420 0.04930 0.38800
C 	C 	0.57420 0.22620 0.54760 0.41400
C 	C 	0.19750 0.18390 0.72550 0.06700
C 	C 	0.16710 0.16510 0.75510 -0.01200
C 	C 	0.31130 0.08390 0.76580 0.07800
C 	C 	0.32460 0.03580 0.73640 -0.01500
C 	C 	0.91820 0.19000 0.72350 0.06400
C 	C 	0.96590 0.17370 0.75410 -0.01000
C 	C 	0.66890 0.41370 0.22370 0.07200
C 	C 	0.69750 0.46210 0.25020 -0.01600
C 	C 	0.80898 0.68146 0.72585 -0.02400
C 	C 	0.83944 0.65748 0.70090 0.14100
C 	C 	0.82613 0.64519 0.65290 -0.07900
C 	C 	0.78235 0.65687 0.62980 -0.02500
C 	C 	0.75189 0.68085 0.65470 -0.03000
C 	C 	0.76520 0.69314 0.70280 0.00800
C 	C 	0.81913 0.69101 0.77441 -0.02600
C 	C 	0.84248 0.73476 0.79730 0.13600
C 	C 	0.85451 0.74811 0.84540 -0.06800
C 	C 	0.84321 0.71771 0.87045 -0.02900
C 	C 	0.81985 0.67395 0.84750 -0.03300
C 	C 	0.80782 0.66060 0.79950 0.01100
C 	C 	0.85837 0.62217 0.62780 0.11600
C 	C 	0.86360 0.63486 0.58830 -0.15300
C 	C 	0.89339 0.61057 0.56273 0.06800
C 	C 	0.91797 0.57357 0.57666 -0.14000
C 	C 	0.91274 0.56088 0.61620 0.07200
C 	C 	0.88295 0.58517 0.64172 -0.15000
C 	C 	0.70615 0.69199 0.62810 0.07200
C 	C 	0.68061 0.65947 0.58900 -0.12100
C 	C 	0.63788 0.67112 0.56381 0.03800
C 	C 	0.62070 0.71528 0.57775 -0.11100
C 	C 	0.64623 0.74781 0.61690 0.04300
C 	C 	0.68896 0.73616 0.64207 -0.12200
C 	C 	0.87951 0.79437 0.87234 0.10900
C 	C 	0.91632 0.81202 0.85819 -0.14800
C 	C 	0.94053 0.85471 0.88360 0.07600
C 	C 	0.92793 0.87973 0.92310 -0.15200
C 	C 	0.89111 0.86209 0.93723 0.07300
C 	C 	0.86690 0.81940 0.91190 -0.15200
C 	C 	0.69656 0.31878 0.27585 -0.02500
C 	C 	0.66305 0.31023 0.29900 0.12000
C 	C 	0.67377 0.32271 0.34700 -0.06600
C 	C 	0.71800 0.34374 0.37189 -0.02800
C 	C 	0.75151 0.35227 0.34880 -0.03700
C 	C 	0.74079 0.33979 0.30080 0.02000
C 	C 	0.64141 0.30835 0.37190 0.10600
C 	C 	0.61618 0.26472 0.35754 -0.14400
C 	C 	0.58648 0.25318 0.38320 0.06800
C 	C 	0.58199 0.28529 0.42317 -0.13900
C 	C 	0.60720 0.32892 0.43752 0.06500
C 	C 	0.63691 0.34045 0.41190 -0.14700
C 	C 	0.79506 0.37776 0.37250 0.08400
C 	C 	0.82043 0.36501 0.41180 -0.13100
C 	C 	0.86322 0.38918 0.43692 0.05100
C 	C 	0.88062 0.42610 0.42274 -0.12300
C 	C 	0.85525 0.43885 0.38340 0.05400
C 	C 	0.81246 0.41468 0.35830 -0.13200
C 	C 	0.81922 0.19656 0.77654 -0.02400
C 	C 	0.81049 0.24067 0.80150 0.00400
C 	C 	0.82214 0.25132 0.84960 -0.03000
C 	C 	0.84253 0.21785 0.87258 -0.03400
C 	C 	0.85127 0.17375 0.84760 -0.06000
C 	C 	0.83961 0.16309 0.79960 0.12100
C 	C 	0.87773 0.14033 0.87306 0.10500
C 	C 	0.86506 0.13522 0.91260 -0.14500
C 	C 	0.88943 0.10555 0.93828 0.06500
C 	C 	0.92645 0.08099 0.92441 -0.13900
C 	C 	0.93912 0.08610 0.88490 0.07000
C 	C 	0.91476 0.11576 0.85919 -0.14400
C 	C 	0.80872 0.29514 0.87344 0.07800
C 	C 	0.76510 0.31304 0.85876 -0.13000
C 	C 	0.75354 0.35584 0.88390 0.05400
C 	C 	0.78560 0.38074 0.92371 -0.12900
C 	C 	0.82923 0.36283 0.93839 0.05200
C 	C 	0.84079 0.32005 0.91330 -0.12900
C 	C 	0.80953 0.64183 0.87380 0.08200
C 	C 	0.84200 0.63574 0.91290 -0.13300
C 	C 	0.83035 0.60537 0.93790 0.05600
C 	C 	0.78623 0.58109 0.92374 -0.13800
C 	C 	0.75376 0.58718 0.88460 0.06200
C 	C 	0.76542 0.61756 0.85967 -0.13400
C 	C 	0.94910 0.54810 0.54790 0.41600
C 	C 	0.57420 0.72600 0.54790 0.39200
C 	C 	0.77630 0.55130 0.95310 0.41000
C 	C 	0.95150 0.04990 0.95260 0.41900
C 	C 	0.55090 0.27390 0.45090 0.40100
C 	C 	0.95340 0.92420 0.95100 0.42000
C 	C 	0.92580 0.45220 0.45070 0.38800
C 	C 	0.77380 0.42580 0.95240 0.41400
C 	C 	0.81610 0.80250 0.77450 0.06700
C 	C 	0.83490 0.83290 0.74490 -0.01200
C 	C 	0.91610 0.68870 0.73420 0.07800
C 	C 	0.96420 0.67540 0.76360 -0.01500
C 	C 	0.81000 0.08180 0.77650 0.06400
C 	C 	0.82630 0.03410 0.74590 -0.01000
C 	C 	0.58630 0.33110 0.27630 0.07200
C 	C 	0.53790 0.30250 0.24980 -0.01600
O 	O 	0.53335 0.73275 0.43920 -0.46200
O 	O 	0.54371 0.80519 0.48440 -0.50200
O 	O 	0.30402 0.54502 0.98420 -0.48300
O 	O 	0.23179 0.53303 0.93830 -0.46700
O 	O 	0.76854 0.56384 0.06220 -0.46400
O 	O 	0.69574 0.55158 0.01630 -0.49300
O 	O 	0.43651 0.73159 0.43794 -0.47300
O 	O 	0.44720 0.80376 0.48430 -0.49700
O 	O 	0.04409 0.93711 0.48400 -0.49900
O 	O 	0.03297 0.98705 0.43830 -0.46800
O 	O 	0.51260 0.96698 0.06100 -0.47200
O 	O 	0.56202 0.95550 0.01580 -0.49300
O 	O 	0.93734 0.98808 0.43920 -0.48500
O 	O 	0.94756 0.93904 0.48400 -0.48700
O 	O 	0.43740 0.94834 0.98430 -0.47400
O 	O 	0.48786 0.93700 0.93880 -0.47600
O 	O 	0.76610 0.85090 0.27480 -0.21300
O 	O 	0.64900 0.88020 0.22600 -0.21400
O 	O 	0.11760 0.84620 0.27640 -0.19100
O 	O 	0.29290 0.61790 0.77490 -0.20800
O 	O 	0.26725 0.46665 0.06080 -0.46100
O 	O 	0.19481 0.45629 0.01560 -0.50100
O 	O 	0.45498 0.69598 0.51580 -0.48300
O 	O 	0.46697 0.76821 0.56170 -0.46700
O 	O 	0.43616 0.23146 0.43780 -0.46400
O 	O 	0.44842 0.30426 0.48370 -0.49300
O 	O 	0.26841 0.56349 0.06206 -0.47300
O 	O 	0.19624 0.55280 0.01570 -0.49600
O 	O 	0.06289 0.95591 0.01600 -0.49800
O 	O 	0.01295 0.96703 0.06170 -0.46700
O 	O 	0.03302 0.48740 0.43900 -0.47200
O 	O 	0.04450 0.43798 0.48420 -0.49400
O 	O 	0.01192 0.06266 0.06080 -0.48500
O 	O 	0.06096 0.05244 0.01600 -0.48700
O 	O 	0.05166 0.56260 0.51570 -0.47300
O 	O 	0.06300 0.51214 0.56120 -0.47600
O 	O 	0.14910 0.23390 0.22520 -0.21300
O 	O 	0.11980 0.35100 0.27400 -0.21400
O 	O 	0.15380 0.88240 0.22360 -0.19100
O 	O 	0.38210 0.70710 0.72510 -0.20800
O 	O 	0.46665 0.26725 0.56080 -0.46200
O 	O 	0.45629 0.19481 0.51560 -0.50200
O 	O 	0.69598 0.45498 0.01580 -0.48300
O 	O 	0.76821 0.46697 0.06170 -0.46700
O 	O 	0.23146 0.43616 0.93780 -0.46400
O 	O 	0.30426 0.44842 0.98370 -0.49300
O 	O 	0.56349 0.26841 0.56206 -0.47300
O 	O 	0.55280 0.19624 0.51570 -0.49700
O 	O 	0.95591 0.06289 0.51600 -0.49900
O 	O 	0.96703 0.01295 0.56170 -0.46800
O 	O 	0.48740 0.03302 0.93900 -0.47200
O 	O 	0.43798 0.04450 0.98420 -0.49300
O 	O 	0.06266 0.01192 0.56080 -0.48500
O 	O 	0.05244 0.06096 0.51600 -0.48700
O 	O 	0.56260 0.05166 0.01570 -0.47400
O 	O 	0.51214 0.06300 0.06120 -0.47600
O 	O 	0.23390 0.14910 0.72520 -0.21300
O 	O 	0.35100 0.11980 0.77400 -0.21400
O 	O 	0.88240 0.15380 0.72360 -0.19100
O 	O 	0.70710 0.38210 0.22510 -0.20800
O 	O 	0.73275 0.53335 0.93920 -0.46100
O 	O 	0.80519 0.54371 0.98440 -0.50100
O 	O 	0.54502 0.30402 0.48420 -0.48300
O 	O 	0.53303 0.23179 0.43830 -0.46700
O 	O 	0.56384 0.76854 0.56220 -0.46400
O 	O 	0.55158 0.69574 0.51630 -0.49300
O 	O 	0.73159 0.43651 0.93794 -0.47300
O 	O 	0.80376 0.44720 0.98430 -0.49600
O 	O 	0.93711 0.04409 0.98400 -0.49800
O 	O 	0.98705 0.03297 0.93830 -0.46700
O 	O 	0.96698 0.51260 0.56100 -0.47200
O 	O 	0.95550 0.56202 0.51580 -0.49400
O 	O 	0.98808 0.93734 0.93920 -0.48500
O 	O 	0.93904 0.94756 0.98400 -0.48700
O 	O 	0.94834 0.43740 0.48430 -0.47300
O 	O 	0.93700 0.48786 0.43880 -0.47600
O 	O 	0.85090 0.76610 0.77480 -0.21300
O 	O 	0.88020 0.64900 0.72600 -0.21400
O 	O 	0.84620 0.11760 0.77640 -0.19100
O 	O 	0.61790 0.29290 0.27490 -0.20800
