data_crystal

_cell_length_a 25.12200
_cell_length_b 25.12200
_cell_length_c 23.41200
_cell_angle_alpha 90.00000
_cell_angle_beta  90.00000
_cell_angle_gamma 90.00000

_symmetry_space_group_name_	'P 1'
_symmetry_space_group_name_H-M	'P 1'

loop_
_symmetry_equiv_pos_as_xyz
  x,y,z

loop_
_atom_site_label
_atom_site_type_symbol
_atom_site_fract_x
_atom_site_fract_y
_atom_site_fract_z
_atom_site_charge
C 	C 	0.59800 0.15000 0.12000 0.36400
C 	C 	0.61000 0.19800 0.15400 -0.18400
C 	C 	0.57800 0.22400 0.18500 0.12200
H 	H 	0.54400 0.20980 0.19000 -0.00100
C 	C 	0.73460 0.46580 0.17630 0.02200
H 	H 	0.70610 0.46680 0.14840 0.04000
H 	H 	0.75570 0.43390 0.17090 0.01600
C 	C 	0.77020 0.51880 0.17490 0.00300
H 	H 	0.78430 0.52800 0.21220 0.05700
H 	H 	0.79880 0.51680 0.14720 -0.00100
C 	C 	0.75100 0.60100 0.14300 0.01200
H 	H 	0.74900 0.60410 0.10210 0.02800
H 	H 	0.78890 0.59920 0.15260 0.03400
C 	C 	0.73200 0.65000 0.16600 0.00200
H 	H 	0.69650 0.65510 0.15190 0.04200
H 	H 	0.75430 0.67810 0.15100 0.03100
C 	C 	0.70400 0.65500 0.40100 0.04800
H 	H 	0.66620 0.65090 0.41010 0.03500
H 	H 	0.71560 0.68970 0.41480 0.01800
C 	C 	0.74000 0.60700 0.42700 -0.07200
H 	H 	0.77390 0.60360 0.40770 0.07300
H 	H 	0.74520 0.61010 0.46770 0.06300
C 	C 	0.73000 0.51400 0.42400 -0.01800
H 	H 	0.73580 0.51090 0.46470 0.04600
H 	H 	0.76480 0.51530 0.40510 0.05600
C 	C 	0.69900 0.47100 0.40200 0.00900
H 	H 	0.71170 0.43720 0.41700 0.03000
H 	H 	0.66170 0.47500 0.41390 0.04800
C 	C 	0.64500 0.82400 0.20700 0.05400
C 	C 	0.59400 0.83000 0.19200 -0.11300
H 	H 	0.56820 0.80610 0.20520 0.07300
C 	C 	0.58000 0.87400 0.15600 0.04500
H 	H 	0.54540 0.87740 0.14320 0.04800
C 	C 	0.61500 0.91000 0.14000 -0.12800
C 	C 	0.66400 0.90700 0.15800 0.04500
H 	H 	0.68680 0.93440 0.14930 0.04300
C 	C 	0.68500 0.86200 0.19200 -0.11300
H 	H 	0.72040 0.85860 0.20190 0.07800
C 	C 	0.59900 0.95900 0.10600 0.39800
O 	O 	0.63400 0.12200 0.10000 -0.46500
O 	O 	0.54800 0.13800 0.11800 -0.29000
O 	O 	0.71600 0.47000 0.23100 -0.18500
O 	O 	0.72900 0.55300 0.15800 -0.16700
O 	O 	0.73100 0.65400 0.22600 -0.19200
O 	O 	0.71200 0.65100 0.34200 -0.18700
O 	O 	0.70200 0.56000 0.41200 -0.13900
O 	O 	0.70300 0.47200 0.34100 -0.16300
O 	O 	0.56300 0.16600 0.49000 -0.50400
O 	O 	0.62100 0.11600 0.44400 -0.52100
O 	O 	0.54560 0.96000 0.46500 -0.56600
O 	O 	0.47700 0.92700 0.42200 -0.50100
O 	O 	0.63300 0.99100 0.09200 -0.48100
O 	O 	0.54900 0.96200 0.09340 -0.42000
C 	C 	0.66100 0.22000 0.15200 0.11200
H 	H 	0.68820 0.20190 0.13190 0.01200
C 	C 	0.67200 0.26800 0.17900 -0.20700
H 	H 	0.70400 0.28420 0.17180 0.10400
C 	C 	0.64000 0.29100 0.21300 0.13400
C 	C 	0.59100 0.27300 0.21400 -0.19200
H 	H 	0.56430 0.29140 0.23350 0.10100
C 	C 	0.65600 0.33800 0.24800 0.00700
C 	C 	0.67800 0.38200 0.22400 -0.14700
H 	H 	0.68440 0.38170 0.18510 0.08300
C 	C 	0.69200 0.42500 0.25200 0.12800
C 	C 	0.68500 0.42500 0.31300 0.08000
C 	C 	0.66100 0.38500 0.34100 -0.08900
H 	H 	0.65410 0.38770 0.37970 0.06600
C 	C 	0.64500 0.33800 0.30900 -0.05200
C 	C 	0.63300 0.29100 0.34200 0.18900
C 	C 	0.59200 0.29300 0.38100 -0.29700
H 	H 	0.57120 0.32290 0.38490 0.13900
C 	C 	0.58300 0.24900 0.41300 0.24400
H 	H 	0.55600 0.25100 0.44060 -0.03700
C 	C 	0.60700 0.20500 0.41000 -0.28800
C 	C 	0.64500 0.20100 0.37100 0.19900
H 	H 	0.66380 0.16960 0.36740 -0.03300
C 	C 	0.65800 0.24400 0.33500 -0.26100
H 	H 	0.68370 0.23900 0.30670 0.12900
C 	C 	0.59600 0.15700 0.45000 0.47200
C 	C 	0.69600 0.69100 0.31200 0.10200
C 	C 	0.70500 0.69300 0.25100 0.13900
C 	C 	0.68600 0.73300 0.22200 -0.15700
H 	H 	0.68750 0.72970 0.18280 0.09100
C 	C 	0.66200 0.78100 0.24400 0.02000
C 	C 	0.65100 0.77800 0.30300 -0.03500
C 	C 	0.66700 0.73500 0.33700 -0.10100
H 	H 	0.65880 0.73480 0.37530 0.07000
C 	C 	0.61800 0.82000 0.33000 0.14700
C 	C 	0.56700 0.81700 0.32900 -0.20800
H 	H 	0.55060 0.79260 0.30580 0.10700
C 	C 	0.53500 0.85200 0.36400 0.12100
H 	H 	0.49870 0.84660 0.36640 0.00300
C 	C 	0.56000 0.89400 0.39500 -0.22400
C 	C 	0.61400 0.89700 0.39600 0.11900
H 	H 	0.63280 0.91910 0.42050 -0.04100
C 	C 	0.64100 0.86100 0.35600 -0.19200
H 	H 	0.67650 0.86830 0.34690 0.09400
C 	C 	0.52600 0.92900 0.42900 0.45900
O 	O 	0.54600 0.06500 0.03300 -0.67300
Zn	Zn	0.53750 0.09300 0.95150 1.18100
Zn	Zn	0.61930 0.05820 0.05450 1.23200
C 	C 	0.40200 0.85000 0.12000 0.36500
C 	C 	0.39000 0.80200 0.15400 -0.18000
C 	C 	0.42200 0.77600 0.18500 0.12200
H 	H 	0.45600 0.79020 0.19000 0.00100
C 	C 	0.26540 0.53420 0.17630 0.02100
H 	H 	0.29390 0.53320 0.14840 0.04100
H 	H 	0.24430 0.56610 0.17090 0.01800
C 	C 	0.22980 0.48120 0.17490 0.00600
H 	H 	0.21570 0.47200 0.21220 0.05600
H 	H 	0.20120 0.48320 0.14720 -0.00200
C 	C 	0.24900 0.39900 0.14300 0.01300
H 	H 	0.25100 0.39590 0.10210 0.02800
H 	H 	0.21110 0.40080 0.15260 0.03300
C 	C 	0.26800 0.35000 0.16600 0.00200
H 	H 	0.30350 0.34490 0.15190 0.04200
H 	H 	0.24570 0.32190 0.15100 0.03100
C 	C 	0.29600 0.34500 0.40100 0.04900
H 	H 	0.33380 0.34910 0.41010 0.03500
H 	H 	0.28440 0.31030 0.41480 0.01700
C 	C 	0.26000 0.39300 0.42700 -0.07200
H 	H 	0.22610 0.39640 0.40770 0.07300
H 	H 	0.25480 0.38990 0.46770 0.06200
C 	C 	0.27000 0.48600 0.42400 -0.01800
H 	H 	0.26420 0.48910 0.46470 0.04600
H 	H 	0.23520 0.48470 0.40510 0.05600
C 	C 	0.30100 0.52900 0.40200 0.00900
H 	H 	0.28830 0.56280 0.41700 0.03000
H 	H 	0.33830 0.52500 0.41390 0.04800
C 	C 	0.35500 0.17600 0.20700 0.05800
C 	C 	0.40600 0.17000 0.19200 -0.12100
H 	H 	0.43180 0.19390 0.20520 0.07500
C 	C 	0.42000 0.12600 0.15600 0.05100
H 	H 	0.45460 0.12260 0.14320 0.04400
C 	C 	0.38500 0.09000 0.14000 -0.14100
C 	C 	0.33600 0.09300 0.15800 0.05300
H 	H 	0.31320 0.06560 0.14930 0.03300
C 	C 	0.31500 0.13800 0.19200 -0.12200
H 	H 	0.27960 0.14140 0.20190 0.08000
C 	C 	0.40100 0.04100 0.10600 0.40400
O 	O 	0.36600 0.87800 0.10000 -0.45900
O 	O 	0.45200 0.86200 0.11800 -0.28600
O 	O 	0.28400 0.53000 0.23100 -0.18500
O 	O 	0.27100 0.44700 0.15800 -0.16700
O 	O 	0.26900 0.34600 0.22600 -0.19200
O 	O 	0.28800 0.34900 0.34200 -0.18700
O 	O 	0.29800 0.44000 0.41200 -0.13900
O 	O 	0.29700 0.52800 0.34100 -0.16400
O 	O 	0.43700 0.83400 0.49000 -0.50400
O 	O 	0.37900 0.88400 0.44400 -0.51700
O 	O 	0.45440 0.04000 0.46500 -0.58900
O 	O 	0.52300 0.07300 0.42200 -0.51100
O 	O 	0.36700 0.00900 0.09200 -0.51000
O 	O 	0.45100 0.03800 0.09340 -0.43900
C 	C 	0.33900 0.78000 0.15200 0.11100
H 	H 	0.31180 0.79810 0.13190 0.01300
C 	C 	0.32800 0.73200 0.17900 -0.20600
H 	H 	0.29600 0.71580 0.17180 0.10300
C 	C 	0.36000 0.70900 0.21300 0.13300
C 	C 	0.40900 0.72700 0.21400 -0.19000
H 	H 	0.43570 0.70860 0.23350 0.10000
C 	C 	0.34400 0.66200 0.24800 0.00700
C 	C 	0.32200 0.61800 0.22400 -0.14700
H 	H 	0.31560 0.61830 0.18510 0.08300
C 	C 	0.30800 0.57500 0.25200 0.12800
C 	C 	0.31500 0.57500 0.31300 0.08000
C 	C 	0.33900 0.61500 0.34100 -0.08900
H 	H 	0.34590 0.61230 0.37970 0.06600
C 	C 	0.35500 0.66200 0.30900 -0.05200
C 	C 	0.36700 0.70900 0.34200 0.18800
C 	C 	0.40800 0.70700 0.38100 -0.29500
H 	H 	0.42880 0.67710 0.38490 0.13900
C 	C 	0.41700 0.75100 0.41300 0.24200
H 	H 	0.44400 0.74900 0.44060 -0.03600
C 	C 	0.39300 0.79500 0.41000 -0.28500
C 	C 	0.35500 0.79900 0.37100 0.19800
H 	H 	0.33620 0.83040 0.36740 -0.03100
C 	C 	0.34200 0.75600 0.33500 -0.25900
H 	H 	0.31630 0.76100 0.30670 0.12800
C 	C 	0.40400 0.84300 0.45000 0.47000
C 	C 	0.30400 0.30900 0.31200 0.10200
C 	C 	0.29500 0.30700 0.25100 0.13800
C 	C 	0.31400 0.26700 0.22200 -0.15600
H 	H 	0.31250 0.27030 0.18280 0.09000
C 	C 	0.33800 0.21900 0.24400 0.01900
C 	C 	0.34900 0.22200 0.30300 -0.03700
C 	C 	0.33300 0.26500 0.33700 -0.10000
H 	H 	0.34120 0.26520 0.37530 0.07000
C 	C 	0.38200 0.18000 0.33000 0.15000
C 	C 	0.43300 0.18300 0.32900 -0.21300
H 	H 	0.44940 0.20740 0.30580 0.10800
C 	C 	0.46500 0.14800 0.36400 0.12400
H 	H 	0.50130 0.15340 0.36640 0.00100
C 	C 	0.44000 0.10600 0.39500 -0.23400
C 	C 	0.38600 0.10300 0.39600 0.12200
H 	H 	0.36720 0.08090 0.42050 -0.05200
C 	C 	0.35900 0.13900 0.35600 -0.19900
H 	H 	0.32350 0.13170 0.34690 0.09200
C 	C 	0.47400 0.07100 0.42900 0.46300
O 	O 	0.45400 0.93500 0.03300 -0.65900
Zn	Zn	0.46250 0.90700 0.95150 1.18100
Zn	Zn	0.38070 0.94180 0.05450 1.24000
C 	C 	0.35000 0.90200 0.62000 0.36200
C 	C 	0.30200 0.89000 0.65400 -0.17500
C 	C 	0.27600 0.92200 0.68500 0.11800
H 	H 	0.29020 0.95600 0.69000 0.00800
C 	C 	0.03420 0.76540 0.67630 -0.00600
H 	H 	0.03320 0.79390 0.64840 0.04400
H 	H 	0.06610 0.74430 0.67090 0.02200
C 	C 	0.98120 0.72980 0.67490 0.03100
H 	H 	0.97200 0.71570 0.71220 0.05600
H 	H 	0.98320 0.70120 0.64720 -0.00200
C 	C 	0.89900 0.74900 0.64300 0.01100
H 	H 	0.89590 0.75100 0.60210 0.03200
H 	H 	0.90080 0.71110 0.65260 0.03500
C 	C 	0.85000 0.76800 0.66600 0.00400
H 	H 	0.84490 0.80350 0.65190 0.04500
H 	H 	0.82190 0.74570 0.65100 0.03100
C 	C 	0.84500 0.79600 0.90100 0.04500
H 	H 	0.84910 0.83380 0.91010 0.04000
H 	H 	0.81030 0.78440 0.91480 0.01900
C 	C 	0.89300 0.76000 0.92700 -0.06900
H 	H 	0.89640 0.72610 0.90770 0.07300
H 	H 	0.88990 0.75480 0.96770 0.06200
C 	C 	0.98600 0.77000 0.92400 0.02900
H 	H 	0.98910 0.76420 0.96470 0.03900
H 	H 	0.98470 0.73520 0.90510 0.05200
C 	C 	0.02900 0.80100 0.90200 -0.03900
H 	H 	0.06280 0.78830 0.91700 0.04100
H 	H 	0.02500 0.83830 0.91390 0.05600
C 	C 	0.67600 0.85500 0.70700 0.04900
C 	C 	0.67000 0.90600 0.69200 -0.10900
H 	H 	0.69390 0.93180 0.70520 0.07600
C 	C 	0.62600 0.92000 0.65600 0.04300
H 	H 	0.62260 0.95460 0.64320 0.05500
C 	C 	0.59000 0.88500 0.64000 -0.12700
C 	C 	0.59300 0.83600 0.65800 0.04400
H 	H 	0.56560 0.81320 0.64930 0.04000
C 	C 	0.63800 0.81500 0.69200 -0.11200
H 	H 	0.64140 0.77960 0.70190 0.07700
C 	C 	0.54100 0.90100 0.60600 0.39800
O 	O 	0.37800 0.86600 0.60000 -0.46000
O 	O 	0.36200 0.95200 0.61800 -0.27900
O 	O 	0.03000 0.78400 0.73100 -0.18700
O 	O 	0.94700 0.77100 0.65800 -0.16100
O 	O 	0.84600 0.76900 0.72600 -0.19100
O 	O 	0.84900 0.78800 0.84200 -0.18200
O 	O 	0.94000 0.79800 0.91200 -0.14000
O 	O 	0.02800 0.79700 0.84100 -0.16200
O 	O 	0.33400 0.93700 0.99000 -0.49900
O 	O 	0.38400 0.87900 0.94400 -0.51800
O 	O 	0.54000 0.95440 0.96500 -0.58400
O 	O 	0.57300 0.02300 0.92200 -0.53400
O 	O 	0.50900 0.86700 0.59200 -0.49400
O 	O 	0.53800 0.95100 0.59340 -0.42000
C 	C 	0.28000 0.83900 0.65200 0.10800
H 	H 	0.29810 0.81180 0.63190 0.01400
C 	C 	0.23200 0.82800 0.67900 -0.20200
H 	H 	0.21580 0.79600 0.67180 0.10200
C 	C 	0.20900 0.86000 0.71300 0.13000
C 	C 	0.22700 0.90900 0.71400 -0.18600
H 	H 	0.20860 0.93570 0.73350 0.10200
C 	C 	0.16200 0.84400 0.74800 0.00900
C 	C 	0.11800 0.82200 0.72400 -0.14800
H 	H 	0.11830 0.81560 0.68510 0.08300
C 	C 	0.07500 0.80800 0.75200 0.12800
C 	C 	0.07500 0.81500 0.81300 0.07700
C 	C 	0.11500 0.83900 0.84100 -0.08700
H 	H 	0.11230 0.84590 0.87970 0.06500
C 	C 	0.16200 0.85500 0.80900 -0.05200
C 	C 	0.20900 0.86700 0.84200 0.18800
C 	C 	0.20700 0.90800 0.88100 -0.29300
H 	H 	0.17710 0.92880 0.88490 0.14000
C 	C 	0.25100 0.91700 0.91300 0.24100
H 	H 	0.24900 0.94400 0.94060 -0.03300
C 	C 	0.29500 0.89300 0.91000 -0.28400
C 	C 	0.29900 0.85500 0.87100 0.19700
H 	H 	0.33040 0.83620 0.86740 -0.03100
C 	C 	0.25600 0.84200 0.83500 -0.25800
H 	H 	0.26100 0.81630 0.80670 0.12800
C 	C 	0.34300 0.90400 0.95000 0.46900
C 	C 	0.80900 0.80400 0.81200 0.09800
C 	C 	0.80700 0.79500 0.75100 0.14400
C 	C 	0.76700 0.81400 0.72200 -0.16200
H 	H 	0.77030 0.81250 0.68280 0.09400
C 	C 	0.71900 0.83800 0.74400 0.03000
C 	C 	0.72200 0.84900 0.80300 -0.05400
C 	C 	0.76500 0.83300 0.83700 -0.08800
H 	H 	0.76520 0.84120 0.87530 0.06700
C 	C 	0.68000 0.88200 0.83000 0.19300
C 	C 	0.68300 0.93300 0.82900 -0.27200
H 	H 	0.70740 0.94940 0.80580 0.13700
C 	C 	0.64800 0.96500 0.86400 0.21300
H 	H 	0.65340 0.00130 0.86640 -0.04500
C 	C 	0.60600 0.94000 0.89500 -0.27800
C 	C 	0.60300 0.88600 0.89600 0.16200
H 	H 	0.58090 0.86720 0.92050 -0.06100
C 	C 	0.63900 0.85900 0.85600 -0.23400
H 	H 	0.63170 0.82350 0.84690 0.10600
C 	C 	0.57100 0.97400 0.92900 0.51000
O 	O 	0.43500 0.95400 0.53300 -0.65800
Zn	Zn	0.40700 0.96250 0.45150 1.18600
Zn	Zn	0.44180 0.88070 0.55450 1.23600
C 	C 	0.65000 0.09800 0.62000 0.36800
C 	C 	0.69800 0.11000 0.65400 -0.18700
C 	C 	0.72400 0.07800 0.68500 0.12700
H 	H 	0.70980 0.04400 0.69000 -0.00700
C 	C 	0.96580 0.23460 0.67630 0.05000
H 	H 	0.96680 0.20610 0.64840 0.03800
H 	H 	0.93390 0.25570 0.67090 0.01200
C 	C 	0.01880 0.27020 0.67490 -0.02100
H 	H 	0.02800 0.28430 0.71220 0.05700
H 	H 	0.01680 0.29880 0.64720 -0.00100
C 	C 	0.10100 0.25100 0.64300 0.01500
H 	H 	0.10410 0.24900 0.60210 0.02400
H 	H 	0.09920 0.28890 0.65260 0.03200
C 	C 	0.15000 0.23200 0.66600 0.00000
H 	H 	0.15510 0.19650 0.65190 0.04000
H 	H 	0.17810 0.25430 0.65100 0.03100
C 	C 	0.15500 0.20400 0.90100 0.05200
H 	H 	0.15090 0.16620 0.91010 0.03100
H 	H 	0.18970 0.21560 0.91480 0.01600
C 	C 	0.10700 0.24000 0.92700 -0.07500
H 	H 	0.10360 0.27390 0.90770 0.07200
H 	H 	0.11010 0.24520 0.96770 0.06300
C 	C 	0.01400 0.23000 0.92400 -0.06500
H 	H 	0.01090 0.23580 0.96470 0.05300
H 	H 	0.01530 0.26480 0.90510 0.06100
C 	C 	0.97100 0.19900 0.90200 0.05600
H 	H 	0.93720 0.21170 0.91700 0.02000
H 	H 	0.97500 0.16170 0.91390 0.03900
C 	C 	0.32400 0.14500 0.70700 0.06300
C 	C 	0.33000 0.09400 0.69200 -0.12600
H 	H 	0.30610 0.06820 0.70520 0.07200
C 	C 	0.37400 0.08000 0.65600 0.05400
H 	H 	0.37740 0.04540 0.64320 0.03700
C 	C 	0.41000 0.11500 0.64000 -0.14200
C 	C 	0.40700 0.16400 0.65800 0.05400
H 	H 	0.43440 0.18680 0.64930 0.03600
C 	C 	0.36200 0.18500 0.69200 -0.12300
H 	H 	0.35860 0.22040 0.70190 0.08100
C 	C 	0.45900 0.09900 0.60600 0.40300
O 	O 	0.62200 0.13400 0.60000 -0.46400
O 	O 	0.63800 0.04800 0.61800 -0.29700
O 	O 	0.97000 0.21600 0.73100 -0.18200
O 	O 	0.05300 0.22900 0.65800 -0.17200
O 	O 	0.15400 0.23100 0.72600 -0.19200
O 	O 	0.15100 0.21200 0.84200 -0.19200
O 	O 	0.06000 0.20200 0.91200 -0.13700
O 	O 	0.97200 0.20300 0.84100 -0.16500
O 	O 	0.66600 0.06300 0.99000 -0.50900
O 	O 	0.61600 0.12100 0.94400 -0.51900
O 	O 	0.46000 0.04560 0.96500 -0.57100
O 	O 	0.42700 0.97700 0.92200 -0.47800
O 	O 	0.49100 0.13300 0.59200 -0.49800
O 	O 	0.46200 0.04900 0.59340 -0.43900
C 	C 	0.72000 0.16100 0.65200 0.11600
H 	H 	0.70190 0.18820 0.63190 0.01100
C 	C 	0.76800 0.17200 0.67900 -0.21100
H 	H 	0.78420 0.20400 0.67180 0.10500
C 	C 	0.79100 0.14000 0.71300 0.13700
C 	C 	0.77300 0.09100 0.71400 -0.19700
H 	H 	0.79140 0.06430 0.73350 0.09900
C 	C 	0.83800 0.15600 0.74800 0.00500
C 	C 	0.88200 0.17800 0.72400 -0.14600
H 	H 	0.88170 0.18440 0.68510 0.08300
C 	C 	0.92500 0.19200 0.75200 0.12900
C 	C 	0.92500 0.18500 0.81300 0.08300
C 	C 	0.88500 0.16100 0.84100 -0.09000
H 	H 	0.88770 0.15410 0.87970 0.06700
C 	C 	0.83800 0.14500 0.80900 -0.05200
C 	C 	0.79100 0.13300 0.84200 0.18900
C 	C 	0.79300 0.09200 0.88100 -0.29800
H 	H 	0.82290 0.07120 0.88490 0.13800
C 	C 	0.74900 0.08300 0.91300 0.24500
H 	H 	0.75100 0.05600 0.94060 -0.04000
C 	C 	0.70500 0.10700 0.91000 -0.28900
C 	C 	0.70100 0.14500 0.87100 0.20000
H 	H 	0.66960 0.16380 0.86740 -0.03300
C 	C 	0.74400 0.15800 0.83500 -0.26100
H 	H 	0.73900 0.18370 0.80670 0.12900
C 	C 	0.65700 0.09600 0.95000 0.47300
C 	C 	0.19100 0.19600 0.81200 0.10600
C 	C 	0.19300 0.20500 0.75100 0.13200
C 	C 	0.23300 0.18600 0.72200 -0.15000
H 	H 	0.22970 0.18750 0.68280 0.08700
C 	C 	0.28100 0.16200 0.74400 0.00900
C 	C 	0.27800 0.15100 0.80300 -0.01700
C 	C 	0.23500 0.16700 0.83700 -0.11300
H 	H 	0.23480 0.15880 0.87530 0.07300
C 	C 	0.32000 0.11800 0.83000 0.10400
C 	C 	0.31700 0.06700 0.82900 -0.14900
H 	H 	0.29260 0.05060 0.80580 0.07900
C 	C 	0.35200 0.03500 0.86400 0.03200
H 	H 	0.34660 0.99870 0.86640 0.04900
C 	C 	0.39400 0.06000 0.89500 -0.18100
C 	C 	0.39700 0.11400 0.89600 0.07900
H 	H 	0.41910 0.13280 0.92050 -0.03200
C 	C 	0.36100 0.14100 0.85600 -0.15700
H 	H 	0.36830 0.17650 0.84690 0.08000
C 	C 	0.42900 0.02600 0.92900 0.41200
O 	O 	0.56500 0.04600 0.53300 -0.67400
Zn	Zn	0.59300 0.03750 0.45150 1.17700
Zn	Zn	0.55820 0.11930 0.55450 1.23600
Zn	Zn	0.50000 0.00000 0.03250 1.22400
Zn	Zn	0.50000 0.00000 0.53250 1.22400
C 	C 	0.15000 0.40200 0.88000 0.36500
C 	C 	0.19800 0.39000 0.84600 -0.18300
C 	C 	0.22400 0.42200 0.81500 0.12300
H 	H 	0.20980 0.45600 0.81000 -0.00000
C 	C 	0.46580 0.26540 0.82370 0.02100
H 	H 	0.46680 0.29390 0.85160 0.04200
H 	H 	0.43390 0.24430 0.82910 0.01800
C 	C 	0.51880 0.22980 0.82510 0.00600
H 	H 	0.52800 0.21570 0.78780 0.05600
H 	H 	0.51680 0.20120 0.85280 -0.00200
C 	C 	0.60100 0.24900 0.85700 0.01300
H 	H 	0.60410 0.25100 0.89790 0.02800
H 	H 	0.59920 0.21110 0.84740 0.03300
C 	C 	0.65000 0.26800 0.83400 0.00200
H 	H 	0.65510 0.30350 0.84810 0.04200
H 	H 	0.67810 0.24570 0.84900 0.03100
C 	C 	0.65500 0.29600 0.59900 0.04800
H 	H 	0.65090 0.33380 0.58990 0.03500
H 	H 	0.68970 0.28440 0.58520 0.01800
C 	C 	0.60700 0.26000 0.57300 -0.07200
H 	H 	0.60360 0.22610 0.59230 0.07300
H 	H 	0.61010 0.25480 0.53230 0.06200
C 	C 	0.51400 0.27000 0.57600 -0.01800
H 	H 	0.51090 0.26420 0.53530 0.04600
H 	H 	0.51530 0.23520 0.59490 0.05600
C 	C 	0.47100 0.30100 0.59800 0.00900
H 	H 	0.43720 0.28830 0.58300 0.03000
H 	H 	0.47500 0.33830 0.58610 0.04800
C 	C 	0.82400 0.35500 0.79300 0.05400
C 	C 	0.83000 0.40600 0.80800 -0.11300
H 	H 	0.80610 0.43180 0.79480 0.07300
C 	C 	0.87400 0.42000 0.84400 0.04500
H 	H 	0.87740 0.45460 0.85680 0.04800
C 	C 	0.91000 0.38500 0.86000 -0.12800
C 	C 	0.90700 0.33600 0.84200 0.04500
H 	H 	0.93440 0.31320 0.85070 0.04300
C 	C 	0.86200 0.31500 0.80800 -0.11400
H 	H 	0.85860 0.27960 0.79810 0.07800
C 	C 	0.95900 0.40100 0.89400 0.39800
O 	O 	0.12200 0.36600 0.90000 -0.46500
O 	O 	0.13800 0.45200 0.88200 -0.29000
O 	O 	0.47000 0.28400 0.76900 -0.18500
O 	O 	0.55300 0.27100 0.84200 -0.16700
O 	O 	0.65400 0.26900 0.77400 -0.19200
O 	O 	0.65100 0.28800 0.65800 -0.18700
O 	O 	0.56000 0.29800 0.58800 -0.13900
O 	O 	0.47200 0.29700 0.65900 -0.16400
O 	O 	0.16600 0.43700 0.51000 -0.50400
O 	O 	0.11600 0.37900 0.55600 -0.52100
O 	O 	0.96000 0.45440 0.53500 -0.56700
O 	O 	0.92700 0.52300 0.57800 -0.50100
O 	O 	0.99100 0.36700 0.90800 -0.48100
O 	O 	0.96200 0.45100 0.90660 -0.42000
C 	C 	0.22000 0.33900 0.84800 0.11200
H 	H 	0.20190 0.31180 0.86810 0.01200
C 	C 	0.26800 0.32800 0.82100 -0.20700
H 	H 	0.28420 0.29600 0.82820 0.10400
C 	C 	0.29100 0.36000 0.78700 0.13400
C 	C 	0.27300 0.40900 0.78600 -0.19200
H 	H 	0.29140 0.43570 0.76650 0.10100
C 	C 	0.33800 0.34400 0.75200 0.00700
C 	C 	0.38200 0.32200 0.77600 -0.14700
H 	H 	0.38170 0.31560 0.81490 0.08300
C 	C 	0.42500 0.30800 0.74800 0.12800
C 	C 	0.42500 0.31500 0.68700 0.08000
C 	C 	0.38500 0.33900 0.65900 -0.08900
H 	H 	0.38770 0.34590 0.62030 0.06600
C 	C 	0.33800 0.35500 0.69100 -0.05200
C 	C 	0.29100 0.36700 0.65800 0.18900
C 	C 	0.29300 0.40800 0.61900 -0.29700
H 	H 	0.32290 0.42880 0.61510 0.13900
C 	C 	0.24900 0.41700 0.58700 0.24400
H 	H 	0.25100 0.44400 0.55940 -0.03700
C 	C 	0.20500 0.39300 0.59000 -0.28800
C 	C 	0.20100 0.35500 0.62900 0.19900
H 	H 	0.16960 0.33620 0.63260 -0.03300
C 	C 	0.24400 0.34200 0.66500 -0.26100
H 	H 	0.23900 0.31630 0.69330 0.12900
C 	C 	0.15700 0.40400 0.55000 0.47200
C 	C 	0.69100 0.30400 0.68800 0.10200
C 	C 	0.69300 0.29500 0.74900 0.13900
C 	C 	0.73300 0.31400 0.77800 -0.15700
H 	H 	0.72970 0.31250 0.81720 0.09100
C 	C 	0.78100 0.33800 0.75600 0.02000
C 	C 	0.77800 0.34900 0.69700 -0.03500
C 	C 	0.73500 0.33300 0.66300 -0.10100
H 	H 	0.73480 0.34120 0.62470 0.07000
C 	C 	0.82000 0.38200 0.67000 0.14700
C 	C 	0.81700 0.43300 0.67100 -0.20800
H 	H 	0.79260 0.44940 0.69420 0.10700
C 	C 	0.85200 0.46500 0.63600 0.12100
H 	H 	0.84660 0.50130 0.63360 0.00300
C 	C 	0.89400 0.44000 0.60500 -0.22500
C 	C 	0.89700 0.38600 0.60400 0.11900
H 	H 	0.91910 0.36720 0.57950 -0.04200
C 	C 	0.86100 0.35900 0.64400 -0.19200
H 	H 	0.86830 0.32350 0.65310 0.09400
C 	C 	0.92900 0.47400 0.57100 0.45900
O 	O 	0.06500 0.45400 0.96700 -0.67300
Zn	Zn	0.09300 0.46250 0.04850 1.18100
Zn	Zn	0.05820 0.38070 0.94550 1.23200
C 	C 	0.85000 0.59800 0.88000 0.36500
C 	C 	0.80200 0.61000 0.84600 -0.18000
C 	C 	0.77600 0.57800 0.81500 0.12100
H 	H 	0.79020 0.54400 0.81000 0.00200
C 	C 	0.53420 0.73460 0.82370 0.02300
H 	H 	0.53320 0.70610 0.85160 0.04100
H 	H 	0.56610 0.75570 0.82910 0.01600
C 	C 	0.48120 0.77020 0.82510 0.00400
H 	H 	0.47200 0.78430 0.78780 0.05800
H 	H 	0.48320 0.79880 0.85280 -0.00100
C 	C 	0.39900 0.75100 0.85700 0.01200
H 	H 	0.39590 0.74900 0.89790 0.02800
H 	H 	0.40080 0.78890 0.84740 0.03400
C 	C 	0.35000 0.73200 0.83400 0.00200
H 	H 	0.34490 0.69650 0.84810 0.04200
H 	H 	0.32190 0.75430 0.84900 0.03000
C 	C 	0.34500 0.70400 0.59900 0.04800
H 	H 	0.34910 0.66620 0.58990 0.03500
H 	H 	0.31030 0.71560 0.58520 0.01800
C 	C 	0.39300 0.74000 0.57300 -0.07200
H 	H 	0.39640 0.77390 0.59230 0.07300
H 	H 	0.38990 0.74520 0.53230 0.06200
C 	C 	0.48600 0.73000 0.57600 -0.01800
H 	H 	0.48910 0.73580 0.53530 0.04600
H 	H 	0.48470 0.76480 0.59490 0.05600
C 	C 	0.52900 0.69900 0.59800 0.00900
H 	H 	0.56280 0.71170 0.58300 0.03100
H 	H 	0.52500 0.66170 0.58610 0.04800
C 	C 	0.17600 0.64500 0.79300 0.05800
C 	C 	0.17000 0.59400 0.80800 -0.12100
H 	H 	0.19390 0.56820 0.79480 0.07500
C 	C 	0.12600 0.58000 0.84400 0.05100
H 	H 	0.12260 0.54540 0.85680 0.04400
C 	C 	0.09000 0.61500 0.86000 -0.14100
C 	C 	0.09300 0.66400 0.84200 0.05300
H 	H 	0.06560 0.68680 0.85070 0.03300
C 	C 	0.13800 0.68500 0.80800 -0.12200
H 	H 	0.14140 0.72040 0.79810 0.08000
C 	C 	0.04100 0.59900 0.89400 0.40400
O 	O 	0.87800 0.63400 0.90000 -0.45900
O 	O 	0.86200 0.54800 0.88200 -0.28600
O 	O 	0.53000 0.71600 0.76900 -0.18500
O 	O 	0.44700 0.72900 0.84200 -0.16700
O 	O 	0.34600 0.73100 0.77400 -0.19100
O 	O 	0.34900 0.71200 0.65800 -0.18700
O 	O 	0.44000 0.70200 0.58800 -0.13900
O 	O 	0.52800 0.70300 0.65900 -0.16300
O 	O 	0.83400 0.56300 0.51000 -0.50400
O 	O 	0.88400 0.62100 0.55600 -0.51600
O 	O 	0.04000 0.54560 0.53500 -0.58900
O 	O 	0.07300 0.47700 0.57800 -0.51100
O 	O 	0.00900 0.63300 0.90800 -0.51000
O 	O 	0.03800 0.54900 0.90660 -0.43900
C 	C 	0.78000 0.66100 0.84800 0.11100
H 	H 	0.79810 0.68820 0.86810 0.01300
C 	C 	0.73200 0.67200 0.82100 -0.20500
H 	H 	0.71580 0.70400 0.82820 0.10300
C 	C 	0.70900 0.64000 0.78700 0.13300
C 	C 	0.72700 0.59100 0.78600 -0.19000
H 	H 	0.70860 0.56430 0.76650 0.10000
C 	C 	0.66200 0.65600 0.75200 0.00700
C 	C 	0.61800 0.67800 0.77600 -0.14800
H 	H 	0.61830 0.68440 0.81490 0.08300
C 	C 	0.57500 0.69200 0.74800 0.12800
C 	C 	0.57500 0.68500 0.68700 0.08000
C 	C 	0.61500 0.66100 0.65900 -0.08900
H 	H 	0.61230 0.65410 0.62030 0.06600
C 	C 	0.66200 0.64500 0.69100 -0.05200
C 	C 	0.70900 0.63300 0.65800 0.18800
C 	C 	0.70700 0.59200 0.61900 -0.29500
H 	H 	0.67710 0.57120 0.61510 0.13900
C 	C 	0.75100 0.58300 0.58700 0.24200
H 	H 	0.74900 0.55600 0.55940 -0.03600
C 	C 	0.79500 0.60700 0.59000 -0.28500
C 	C 	0.79900 0.64500 0.62900 0.19800
H 	H 	0.83040 0.66380 0.63260 -0.03100
C 	C 	0.75600 0.65800 0.66500 -0.25900
H 	H 	0.76100 0.68370 0.69330 0.12800
C 	C 	0.84300 0.59600 0.55000 0.47000
C 	C 	0.30900 0.69600 0.68800 0.10200
C 	C 	0.30700 0.70500 0.74900 0.13800
C 	C 	0.26700 0.68600 0.77800 -0.15600
H 	H 	0.27030 0.68750 0.81720 0.09000
C 	C 	0.21900 0.66200 0.75600 0.01900
C 	C 	0.22200 0.65100 0.69700 -0.03600
C 	C 	0.26500 0.66700 0.66300 -0.10000
H 	H 	0.26520 0.65880 0.62470 0.07000
C 	C 	0.18000 0.61800 0.67000 0.15000
C 	C 	0.18300 0.56700 0.67100 -0.21300
H 	H 	0.20740 0.55060 0.69420 0.10800
C 	C 	0.14800 0.53500 0.63600 0.12400
H 	H 	0.15340 0.49870 0.63360 0.00100
C 	C 	0.10600 0.56000 0.60500 -0.23400
C 	C 	0.10300 0.61400 0.60400 0.12200
H 	H 	0.08090 0.63280 0.57950 -0.05100
C 	C 	0.13900 0.64100 0.64400 -0.19900
H 	H 	0.13170 0.67650 0.65310 0.09200
C 	C 	0.07100 0.52600 0.57100 0.46300
O 	O 	0.93500 0.54600 0.96700 -0.65900
Zn	Zn	0.90700 0.53750 0.04850 1.18100
Zn	Zn	0.94180 0.61930 0.94550 1.24000
C 	C 	0.90200 0.65000 0.38000 0.36300
C 	C 	0.89000 0.69800 0.34600 -0.17600
C 	C 	0.92200 0.72400 0.31500 0.12000
H 	H 	0.95600 0.70980 0.31000 0.00800
C 	C 	0.76540 0.96580 0.32370 0.04800
H 	H 	0.79390 0.96680 0.35160 0.04200
H 	H 	0.74430 0.93390 0.32910 0.01300
C 	C 	0.72980 0.01880 0.32510 -0.02100
H 	H 	0.71570 0.02800 0.28780 0.05800
H 	H 	0.70120 0.01680 0.35280 -0.00100
C 	C 	0.74900 0.10100 0.35700 0.01500
H 	H 	0.75100 0.10410 0.39790 0.02600
H 	H 	0.71110 0.09920 0.34740 0.03200
C 	C 	0.76800 0.15000 0.33400 0.00100
H 	H 	0.80350 0.15510 0.34810 0.04300
H 	H 	0.74570 0.17810 0.34900 0.03100
C 	C 	0.79600 0.15500 0.09900 0.04700
H 	H 	0.83380 0.15090 0.08990 0.03600
H 	H 	0.78440 0.18970 0.08520 0.01800
C 	C 	0.76000 0.10700 0.07300 -0.07300
H 	H 	0.72610 0.10360 0.09230 0.07100
H 	H 	0.75480 0.11010 0.03230 0.06200
C 	C 	0.77000 0.01400 0.07600 -0.06400
H 	H 	0.76420 0.01090 0.03530 0.05400
H 	H 	0.73520 0.01530 0.09490 0.06100
C 	C 	0.80100 0.97100 0.09800 0.05300
H 	H 	0.78830 0.93720 0.08300 0.02100
H 	H 	0.83830 0.97500 0.08610 0.04400
C 	C 	0.85500 0.32400 0.29300 0.04900
C 	C 	0.90600 0.33000 0.30800 -0.10900
H 	H 	0.93180 0.30610 0.29480 0.07500
C 	C 	0.92000 0.37400 0.34400 0.04200
H 	H 	0.95460 0.37740 0.35680 0.05500
C 	C 	0.88500 0.41000 0.36000 -0.12700
C 	C 	0.83600 0.40700 0.34200 0.04400
H 	H 	0.81320 0.43440 0.35070 0.04000
C 	C 	0.81500 0.36200 0.30800 -0.11200
H 	H 	0.77960 0.35860 0.29810 0.07700
C 	C 	0.90100 0.45900 0.39400 0.39800
O 	O 	0.86600 0.62200 0.40000 -0.46100
O 	O 	0.95200 0.63800 0.38200 -0.27800
O 	O 	0.78400 0.97000 0.26900 -0.18100
O 	O 	0.77100 0.05300 0.34200 -0.16900
O 	O 	0.76900 0.15400 0.27400 -0.19400
O 	O 	0.78800 0.15100 0.15800 -0.18700
O 	O 	0.79800 0.06000 0.08800 -0.13500
O 	O 	0.79700 0.97200 0.15900 -0.16300
O 	O 	0.93700 0.66600 0.01000 -0.49900
O 	O 	0.87900 0.61600 0.05600 -0.51800
O 	O 	0.95440 0.46000 0.03500 -0.58400
O 	O 	0.02300 0.42700 0.07800 -0.53400
O 	O 	0.86700 0.49100 0.40800 -0.49400
O 	O 	0.95100 0.46200 0.40660 -0.42000
C 	C 	0.83900 0.72000 0.34800 0.11000
H 	H 	0.81180 0.70190 0.36810 0.01300
C 	C 	0.82800 0.76800 0.32100 -0.20400
H 	H 	0.79600 0.78420 0.32820 0.10300
C 	C 	0.86000 0.79100 0.28700 0.13300
C 	C 	0.90900 0.77300 0.28600 -0.18700
H 	H 	0.93570 0.79140 0.26650 0.10500
C 	C 	0.84400 0.83800 0.25200 0.00900
C 	C 	0.82200 0.88200 0.27600 -0.14700
H 	H 	0.81560 0.88170 0.31490 0.08500
C 	C 	0.80800 0.92500 0.24800 0.13100
C 	C 	0.81500 0.92500 0.18700 0.08400
C 	C 	0.83900 0.88500 0.15900 -0.08900
H 	H 	0.84590 0.88770 0.12030 0.06900
C 	C 	0.85500 0.83800 0.19100 -0.05000
C 	C 	0.86700 0.79100 0.15800 0.18800
C 	C 	0.90800 0.79300 0.11900 -0.29400
H 	H 	0.92880 0.82290 0.11510 0.14400
C 	C 	0.91700 0.74900 0.08700 0.24300
H 	H 	0.94400 0.75100 0.05940 -0.03300
C 	C 	0.89300 0.70500 0.09000 -0.28500
C 	C 	0.85500 0.70100 0.12900 0.19800
H 	H 	0.83620 0.66960 0.13260 -0.03200
C 	C 	0.84200 0.74400 0.16500 -0.25900
H 	H 	0.81630 0.73900 0.19330 0.12800
C 	C 	0.90400 0.65700 0.05000 0.46900
C 	C 	0.80400 0.19100 0.18800 0.09700
C 	C 	0.79500 0.19300 0.24900 0.14300
C 	C 	0.81400 0.23300 0.27800 -0.16200
H 	H 	0.81250 0.22970 0.31720 0.09300
C 	C 	0.83800 0.28100 0.25600 0.02900
C 	C 	0.84900 0.27800 0.19700 -0.05400
C 	C 	0.83300 0.23500 0.16300 -0.09000
H 	H 	0.84120 0.23480 0.12470 0.06700
C 	C 	0.88200 0.32000 0.17000 0.19200
C 	C 	0.93300 0.31700 0.17100 -0.27200
H 	H 	0.94940 0.29260 0.19420 0.13500
C 	C 	0.96500 0.35200 0.13600 0.21300
H 	H 	0.00130 0.34660 0.13360 -0.04500
C 	C 	0.94000 0.39400 0.10500 -0.27800
C 	C 	0.88600 0.39700 0.10400 0.16200
H 	H 	0.86720 0.41910 0.07950 -0.06100
C 	C 	0.85900 0.36100 0.14400 -0.23400
H 	H 	0.82350 0.36830 0.15310 0.10600
C 	C 	0.97400 0.42900 0.07100 0.51000
O 	O 	0.95400 0.56500 0.46700 -0.65800
Zn	Zn	0.96250 0.59300 0.54850 1.18600
Zn	Zn	0.88070 0.55820 0.44550 1.23600
C 	C 	0.09800 0.35000 0.38000 0.36700
C 	C 	0.11000 0.30200 0.34600 -0.18600
C 	C 	0.07800 0.27600 0.31500 0.12500
H 	H 	0.04400 0.29020 0.31000 -0.00600
C 	C 	0.23460 0.03420 0.32370 -0.00400
H 	H 	0.20610 0.03320 0.35160 0.04100
H 	H 	0.25570 0.06610 0.32910 0.02100
C 	C 	0.27020 0.98120 0.32510 0.03100
H 	H 	0.28430 0.97200 0.28780 0.05600
H 	H 	0.29880 0.98320 0.35280 -0.00300
C 	C 	0.25100 0.89900 0.35700 0.01100
H 	H 	0.24900 0.89590 0.39790 0.03000
H 	H 	0.28890 0.90080 0.34740 0.03500
C 	C 	0.23200 0.85000 0.33400 0.00300
H 	H 	0.19650 0.84490 0.34810 0.04200
H 	H 	0.25430 0.82190 0.34900 0.03000
C 	C 	0.20400 0.84500 0.09900 0.05000
H 	H 	0.16620 0.84910 0.08990 0.03500
H 	H 	0.21560 0.81030 0.08520 0.01700
C 	C 	0.24000 0.89300 0.07300 -0.07100
H 	H 	0.27390 0.89640 0.09230 0.07400
H 	H 	0.24520 0.88990 0.03230 0.06300
C 	C 	0.23000 0.98600 0.07600 0.02700
H 	H 	0.23580 0.98910 0.03530 0.03900
H 	H 	0.26480 0.98470 0.09490 0.05200
C 	C 	0.19900 0.02900 0.09800 -0.03600
H 	H 	0.21170 0.06280 0.08300 0.04000
H 	H 	0.16170 0.02500 0.08610 0.05100
C 	C 	0.14500 0.67600 0.29300 0.06300
C 	C 	0.09400 0.67000 0.30800 -0.12500
H 	H 	0.06820 0.69390 0.29480 0.07300
C 	C 	0.08000 0.62600 0.34400 0.05400
H 	H 	0.04540 0.62260 0.35680 0.03700
C 	C 	0.11500 0.59000 0.36000 -0.14200
C 	C 	0.16400 0.59300 0.34200 0.05400
H 	H 	0.18680 0.56560 0.35070 0.03600
C 	C 	0.18500 0.63800 0.30800 -0.12300
H 	H 	0.22040 0.64140 0.29810 0.08100
C 	C 	0.09900 0.54100 0.39400 0.40400
O 	O 	0.13400 0.37800 0.40000 -0.46400
O 	O 	0.04800 0.36200 0.38200 -0.29800
O 	O 	0.21600 0.03000 0.26900 -0.18900
O 	O 	0.22900 0.94700 0.34200 -0.16400
O 	O 	0.23100 0.84600 0.27400 -0.18900
O 	O 	0.21200 0.84900 0.15800 -0.18700
O 	O 	0.20200 0.94000 0.08800 -0.14200
O 	O 	0.20300 0.02800 0.15900 -0.16400
O 	O 	0.06300 0.33400 0.01000 -0.50900
O 	O 	0.12100 0.38400 0.05600 -0.51900
O 	O 	0.04560 0.54000 0.03500 -0.57100
O 	O 	0.97700 0.57300 0.07800 -0.47800
O 	O 	0.13300 0.50900 0.40800 -0.49800
O 	O 	0.04900 0.53800 0.40660 -0.43900
C 	C 	0.16100 0.28000 0.34800 0.11300
H 	H 	0.18820 0.29810 0.36810 0.01100
C 	C 	0.17200 0.23200 0.32100 -0.20900
H 	H 	0.20400 0.21580 0.32820 0.10400
C 	C 	0.14000 0.20900 0.28700 0.13400
C 	C 	0.09100 0.22700 0.28600 -0.19500
H 	H 	0.06430 0.20860 0.26650 0.09600
C 	C 	0.15600 0.16200 0.25200 0.00500
C 	C 	0.17800 0.11800 0.27600 -0.14800
H 	H 	0.18440 0.11830 0.31490 0.08100
C 	C 	0.19200 0.07500 0.24800 0.12600
C 	C 	0.18500 0.07500 0.18700 0.07600
C 	C 	0.16100 0.11500 0.15900 -0.08900
H 	H 	0.15410 0.11230 0.12030 0.06300
C 	C 	0.14500 0.16200 0.19100 -0.05400
C 	C 	0.13300 0.20900 0.15800 0.18800
C 	C 	0.09200 0.20700 0.11900 -0.29800
H 	H 	0.07120 0.17710 0.11510 0.13400
C 	C 	0.08300 0.25100 0.08700 0.24300
H 	H 	0.05600 0.24900 0.05940 -0.04100
C 	C 	0.10700 0.29500 0.09000 -0.28800
C 	C 	0.14500 0.29900 0.12900 0.19900
H 	H 	0.16380 0.33040 0.13260 -0.03300
C 	C 	0.15800 0.25600 0.16500 -0.26100
H 	H 	0.18370 0.26100 0.19330 0.12900
C 	C 	0.09600 0.34300 0.05000 0.47300
C 	C 	0.19600 0.80900 0.18800 0.10600
C 	C 	0.20500 0.80700 0.24900 0.13400
C 	C 	0.18600 0.76700 0.27800 -0.15000
H 	H 	0.18750 0.77030 0.31720 0.08800
C 	C 	0.16200 0.71900 0.25600 0.01000
C 	C 	0.15100 0.72200 0.19700 -0.01800
C 	C 	0.16700 0.76500 0.16300 -0.11200
H 	H 	0.15880 0.76520 0.12470 0.07300
C 	C 	0.11800 0.68000 0.17000 0.10400
C 	C 	0.06700 0.68300 0.17100 -0.15000
H 	H 	0.05060 0.70740 0.19420 0.08000
C 	C 	0.03500 0.64800 0.13600 0.03200
H 	H 	0.99870 0.65340 0.13360 0.04900
C 	C 	0.06000 0.60600 0.10500 -0.18100
C 	C 	0.11400 0.60300 0.10400 0.07900
H 	H 	0.13280 0.58090 0.07950 -0.03200
C 	C 	0.14100 0.63900 0.14400 -0.15700
H 	H 	0.17650 0.63170 0.15310 0.08000
C 	C 	0.02600 0.57100 0.07100 0.41200
O 	O 	0.04600 0.43500 0.46700 -0.67500
Zn	Zn	0.03750 0.40700 0.54850 1.17700
Zn	Zn	0.11930 0.44180 0.44550 1.23600
Zn	Zn	-0.00000 0.50000 0.96750 1.22400
Zn	Zn	-0.00000 0.50000 0.46750 1.22400
