data_crystal

_cell_length_a 25.10700
_cell_length_b 25.10700
_cell_length_c 23.53100
_cell_angle_alpha 90.00000
_cell_angle_beta  90.00000
_cell_angle_gamma 90.00000

_symmetry_space_group_name_	'P 1'
_symmetry_space_group_name_H-M	'P 1'

loop_
_symmetry_equiv_pos_as_xyz
  x,y,z

loop_
_atom_site_label
_atom_site_type_symbol
_atom_site_fract_x
_atom_site_fract_y
_atom_site_fract_z
_atom_site_charge
C 	C 	0.13730 0.20860 0.78630 0.06500
C 	C 	0.27200 0.99300 0.83440 -0.00700
H 	H 	0.29200 0.00040 0.86880 -0.01200
H 	H 	0.29610 0.98810 0.80250 0.05500
C 	C 	0.25880 0.89690 0.85270 0.00600
H 	H 	0.26670 0.89430 0.89300 0.03200
H 	H 	0.29200 0.89990 0.83200 0.04600
C 	C 	0.22800 0.84800 0.83310 -0.01700
H 	H 	0.24180 0.81600 0.85100 0.03600
H 	H 	0.19050 0.85130 0.84250 0.05800
C 	C 	0.20730 0.84430 0.59770 0.02200
H 	H 	0.16950 0.84370 0.58900 0.04200
H 	H 	0.22330 0.81200 0.58310 0.02600
C 	C 	0.02629 0.57030 0.57020 0.37700
C 	C 	0.14910 0.67370 0.79170 0.06800
C 	C 	0.09430 0.66860 0.81030 -0.12100
H 	H 	0.06950 0.69470 0.80090 0.07400
C 	C 	0.07920 0.62520 0.84190 0.05200
H 	H 	0.04380 0.62140 0.85260 0.03800
C 	C 	0.11530 0.58760 0.85770 -0.13700
C 	C 	0.16740 0.59200 0.84090 0.06300
H 	H 	0.19190 0.56590 0.85140 0.03200
C 	C 	0.18390 0.63460 0.80840 -0.13400
H 	H 	0.21940 0.63700 0.79760 0.08400
C 	C 	0.09700 0.54030 0.89290 0.41000
O 	O 	0.13279 0.37601 0.89894 -0.44900
O 	O 	0.04600 0.35973 0.88376 -0.29600
O 	O 	0.22660 0.94100 0.84220 -0.14900
O 	O 	0.97697 0.57244 0.57921 -0.47200
O 	O 	0.04744 0.53977 0.53381 -0.55800
O 	O 	0.13318 0.50637 0.90592 -0.48300
O 	O 	0.05035 0.53779 0.90640 -0.46000
C 	C 	0.09500 0.34880 0.87910 0.33500
C 	C 	0.10840 0.29790 0.84730 -0.11700
C 	C 	0.15940 0.27860 0.85120 0.04400
H 	H 	0.18460 0.29600 0.87330 0.03400
C 	C 	0.17310 0.23120 0.82090 -0.12300
H 	H 	0.20680 0.21620 0.82510 0.07400
C 	C 	0.08570 0.22860 0.78500 -0.12900
H 	H 	0.05970 0.21120 0.76370 0.07400
C 	C 	0.07270 0.27380 0.81490 0.05700
H 	H 	0.03840 0.28770 0.81230 0.01500
C 	C 	0.15130 0.16090 0.74920 0.01400
C 	C 	0.17390 0.11670 0.77510 -0.13700
H 	H 	0.17890 0.11710 0.81420 0.07900
C 	C 	0.18930 0.07210 0.74520 0.11700
C 	C 	0.18030 0.07200 0.68570 0.09100
C 	C 	0.15820 0.11560 0.65870 -0.10700
H 	H 	0.15230 0.11540 0.61970 0.07000
C 	C 	0.14450 0.16140 0.69250 -0.02200
C 	C 	0.12840 0.20856 0.65850 0.09900
C 	C 	0.08690 0.20740 0.61990 -0.16500
H 	H 	0.06620 0.17670 0.61750 0.08600
C 	C 	0.07510 0.24910 0.58540 0.08600
H 	H 	0.04710 0.24660 0.55970 0.00900
C 	C 	0.10570 0.29624 0.58870 -0.16300
C 	C 	0.14460 0.29870 0.63000 0.09300
H 	H 	0.16390 0.33010 0.63470 0.00500
C 	C 	0.15540 0.25580 0.66420 -0.16600
H 	H 	0.18170 0.25880 0.69200 0.09700
C 	C 	0.09570 0.34140 0.54800 0.41800
C 	C 	0.23250 0.03030 0.82370 0.00300
H 	H 	0.24660 0.06560 0.83130 0.02400
H 	H 	0.20320 0.02420 0.84990 0.04500
C 	C 	0.23290 0.89230 0.57100 -0.02300
H 	H 	0.26920 0.89620 0.58470 0.05400
H 	H 	0.23390 0.88830 0.53000 0.04600
C 	C 	0.23010 0.98430 0.57660 0.03800
H 	H 	0.23830 0.98760 0.53650 0.03300
H 	H 	0.26330 0.98370 0.59770 0.05000
C 	C 	0.19650 0.03080 0.59560 -0.05500
H 	H 	0.21130 0.06420 0.58220 0.04600
H 	H 	0.16030 0.02740 0.58180 0.05800
C 	C 	0.19870 0.80460 0.68790 0.11300
C 	C 	0.21000 0.80400 0.74560 0.09200
C 	C 	0.19160 0.76070 0.78010 -0.10500
H 	H 	0.19760 0.76060 0.81910 0.07000
C 	C 	0.16430 0.71860 0.75420 -0.00800
C 	C 	0.15380 0.72040 0.69750 0.01000
C 	C 	0.17060 0.76290 0.66630 -0.13400
H 	H 	0.16230 0.76340 0.62780 0.08100
C 	C 	0.12190 0.67940 0.66820 0.06300
C 	C 	0.06570 0.68200 0.66650 -0.11200
H 	H 	0.04850 0.70870 0.68690 0.06600
C 	C 	0.03540 0.64660 0.63590 0.02300
H 	H 	0.99850 0.64950 0.63580 0.05100
C 	C 	0.06000 0.60640 0.60513 -0.16300
C 	C 	0.11390 0.60393 0.60500 0.08000
H 	H 	0.13070 0.57800 0.58320 -0.03300
C 	C 	0.14490 0.63920 0.63660 -0.14500
H 	H 	0.18170 0.63550 0.63640 0.07700
O 	O 	0.04493 0.43395 0.96727 -0.67500
O 	O 	0.21266 0.02886 0.76750 -0.18500
O 	O 	0.23540 0.84566 0.77085 -0.16600
O 	O 	0.21494 0.84760 0.65710 -0.17600
O 	O 	0.20197 0.93808 0.58630 -0.15400
O 	O 	0.19827 0.02769 0.65904 -0.16600
O 	O 	0.06350 0.33277 0.50913 -0.50200
O 	O 	0.12248 0.38312 0.55563 -0.48900
Zn	Zn	0.03769 0.40773 0.04833 1.17600
Zn	Zn	0.11908 0.43994 0.94480 1.23100
C 	C 	0.86270 0.79140 0.78630 0.06100
C 	C 	0.72800 0.00700 0.83440 -0.24200
H 	H 	0.70800 0.99960 0.86880 0.08900
H 	H 	0.70390 0.01190 0.80250 0.10800
C 	C 	0.74120 0.10310 0.85270 0.00000
H 	H 	0.73330 0.10570 0.89300 0.03000
H 	H 	0.70800 0.10010 0.83200 0.04400
C 	C 	0.77200 0.15200 0.83310 -0.01600
H 	H 	0.75820 0.18400 0.85100 0.03500
H 	H 	0.80950 0.14870 0.84250 0.05600
C 	C 	0.79270 0.15570 0.59770 0.01800
H 	H 	0.83050 0.15630 0.58900 0.04300
H 	H 	0.77670 0.18800 0.58310 0.02700
C 	C 	0.97371 0.42970 0.57020 0.46500
C 	C 	0.85090 0.32630 0.79170 0.05600
C 	C 	0.90570 0.33140 0.81030 -0.10900
H 	H 	0.93050 0.30530 0.80090 0.07700
C 	C 	0.92080 0.37480 0.84190 0.04200
H 	H 	0.95620 0.37860 0.85260 0.05400
C 	C 	0.88470 0.41240 0.85770 -0.12500
C 	C 	0.83260 0.40800 0.84090 0.05300
H 	H 	0.80810 0.43410 0.85140 0.03500
C 	C 	0.81610 0.36540 0.80840 -0.12200
H 	H 	0.78060 0.36300 0.79760 0.08000
C 	C 	0.90300 0.45970 0.89290 0.40400
O 	O 	0.86721 0.62399 0.89894 -0.44600
O 	O 	0.95400 0.64027 0.88376 -0.27800
O 	O 	0.77340 0.05900 0.84220 -0.13900
O 	O 	0.02303 0.42756 0.57921 -0.52200
O 	O 	0.95256 0.46023 0.53381 -0.57000
O 	O 	0.86682 0.49363 0.90592 -0.47900
O 	O 	0.94965 0.46221 0.90640 -0.44300
C 	C 	0.90500 0.65120 0.87910 0.33100
C 	C 	0.89160 0.70210 0.84730 -0.10700
C 	C 	0.84060 0.72140 0.85120 0.04000
H 	H 	0.81540 0.70400 0.87330 0.03700
C 	C 	0.82690 0.76880 0.82090 -0.11700
H 	H 	0.79320 0.78380 0.82510 0.07300
C 	C 	0.91430 0.77140 0.78500 -0.12000
H 	H 	0.94030 0.78880 0.76370 0.08200
C 	C 	0.92730 0.72620 0.81490 0.05200
H 	H 	0.96160 0.71230 0.81230 0.02900
C 	C 	0.84870 0.83910 0.74920 0.02400
C 	C 	0.82610 0.88330 0.77510 -0.14700
H 	H 	0.82110 0.88290 0.81420 0.08800
C 	C 	0.81070 0.92790 0.74520 0.13800
C 	C 	0.81970 0.92800 0.68570 0.08900
C 	C 	0.84180 0.88440 0.65870 -0.10000
H 	H 	0.84770 0.88460 0.61970 0.07200
C 	C 	0.85550 0.83860 0.69250 -0.02400
C 	C 	0.87160 0.79144 0.65850 0.10300
C 	C 	0.91310 0.79260 0.61990 -0.16500
H 	H 	0.93380 0.82330 0.61750 0.09600
C 	C 	0.92490 0.75090 0.58540 0.08800
H 	H 	0.95290 0.75340 0.55970 0.01700
C 	C 	0.89430 0.70376 0.58870 -0.16200
C 	C 	0.85540 0.70130 0.63000 0.09500
H 	H 	0.83610 0.66990 0.63470 0.00500
C 	C 	0.84460 0.74420 0.66420 -0.16700
H 	H 	0.81830 0.74120 0.69200 0.09700
C 	C 	0.90430 0.65860 0.54800 0.41500
C 	C 	0.76750 0.96970 0.82370 0.19500
H 	H 	0.75340 0.93440 0.83130 -0.03000
H 	H 	0.79680 0.97580 0.84990 0.00500
C 	C 	0.76710 0.10770 0.57100 -0.02500
H 	H 	0.73080 0.10380 0.58470 0.05200
H 	H 	0.76610 0.11170 0.53000 0.04600
C 	C 	0.76990 0.01570 0.57660 -0.02100
H 	H 	0.76170 0.01240 0.53650 0.04000
H 	H 	0.73670 0.01630 0.59770 0.05100
C 	C 	0.80350 0.96920 0.59560 0.00200
H 	H 	0.78870 0.93580 0.58220 0.03600
H 	H 	0.83970 0.97260 0.58180 0.05700
C 	C 	0.80130 0.19540 0.68790 0.10300
C 	C 	0.79000 0.19600 0.74560 0.10000
C 	C 	0.80840 0.23930 0.78010 -0.11700
H 	H 	0.80240 0.23940 0.81910 0.07500
C 	C 	0.83570 0.28140 0.75420 0.01100
C 	C 	0.84620 0.27960 0.69750 -0.02300
C 	C 	0.82940 0.23710 0.66630 -0.11200
H 	H 	0.83770 0.23660 0.62780 0.07400
C 	C 	0.87810 0.32060 0.66820 0.13200
C 	C 	0.93430 0.31800 0.66650 -0.22100
H 	H 	0.95150 0.29130 0.68690 0.11500
C 	C 	0.96460 0.35340 0.63590 0.20000
H 	H 	0.00150 0.35050 0.63580 -0.03800
C 	C 	0.94000 0.39360 0.60513 -0.26000
C 	C 	0.88610 0.39607 0.60500 0.16400
H 	H 	0.86930 0.42200 0.58320 -0.06200
C 	C 	0.85510 0.36080 0.63660 -0.21600
H 	H 	0.81830 0.36450 0.63640 0.10200
O 	O 	0.95507 0.56605 0.96727 -0.65900
O 	O 	0.78734 0.97114 0.76750 -0.21000
O 	O 	0.76460 0.15434 0.77085 -0.17100
O 	O 	0.78506 0.15240 0.65710 -0.17600
O 	O 	0.79803 0.06192 0.58630 -0.15100
O 	O 	0.80173 0.97231 0.65904 -0.15700
O 	O 	0.93650 0.66723 0.50913 -0.49200
O 	O 	0.87752 0.61688 0.55563 -0.48800
Zn	Zn	0.96231 0.59227 0.04833 1.18500
Zn	Zn	0.88092 0.56006 0.94480 1.23100
C 	C 	0.29140 0.36270 0.28630 0.06300
C 	C 	0.50700 0.22800 0.33440 -0.12400
H 	H 	0.49960 0.20800 0.36880 0.03700
H 	H 	0.51190 0.20390 0.30250 0.08100
C 	C 	0.60310 0.24120 0.35270 0.00300
H 	H 	0.60570 0.23330 0.39300 0.03000
H 	H 	0.60010 0.20800 0.33200 0.04400
C 	C 	0.65200 0.27200 0.33310 -0.01700
H 	H 	0.68400 0.25820 0.35100 0.03500
H 	H 	0.64870 0.30950 0.34250 0.05700
C 	C 	0.65570 0.29270 0.09770 0.02000
H 	H 	0.65630 0.33050 0.08900 0.04200
H 	H 	0.68800 0.27670 0.08310 0.02600
C 	C 	0.92970 0.47371 0.07020 0.41900
C 	C 	0.82630 0.35090 0.29170 0.06000
C 	C 	0.83140 0.40570 0.31030 -0.11300
H 	H 	0.80530 0.43050 0.30090 0.07400
C 	C 	0.87480 0.42080 0.34190 0.04400
H 	H 	0.87860 0.45620 0.35260 0.04800
C 	C 	0.91240 0.38470 0.35770 -0.12600
C 	C 	0.90800 0.33260 0.34090 0.05500
H 	H 	0.93410 0.30810 0.35140 0.03700
C 	C 	0.86540 0.31610 0.30840 -0.12500
H 	H 	0.86300 0.28060 0.29760 0.08100
C 	C 	0.95970 0.40300 0.39290 0.40400
O 	O 	0.12399 0.36721 0.39894 -0.45000
O 	O 	0.14027 0.45400 0.38376 -0.28900
O 	O 	0.55900 0.27340 0.34220 -0.14400
O 	O 	0.92756 0.52303 0.07921 -0.49300
O 	O 	0.96023 0.45256 0.03381 -0.55500
O 	O 	0.99363 0.36682 0.40592 -0.46800
O 	O 	0.96221 0.44965 0.40640 -0.44300
C 	C 	0.15120 0.40500 0.37910 0.33300
C 	C 	0.20210 0.39160 0.34730 -0.11300
C 	C 	0.22140 0.34060 0.35120 0.04300
H 	H 	0.20400 0.31540 0.37330 0.03600
C 	C 	0.26880 0.32690 0.32090 -0.12000
H 	H 	0.28380 0.29320 0.32510 0.07400
C 	C 	0.27140 0.41430 0.28500 -0.12500
H 	H 	0.28880 0.44030 0.26370 0.07800
C 	C 	0.22620 0.42730 0.31490 0.05500
H 	H 	0.21230 0.46160 0.31230 0.02200
C 	C 	0.33910 0.34870 0.24920 0.01900
C 	C 	0.38330 0.32610 0.27510 -0.14200
H 	H 	0.38290 0.32110 0.31420 0.08400
C 	C 	0.42790 0.31070 0.24520 0.12700
C 	C 	0.42800 0.31970 0.18570 0.09000
C 	C 	0.38440 0.34180 0.15870 -0.10300
H 	H 	0.38460 0.34770 0.11970 0.07100
C 	C 	0.33860 0.35550 0.19250 -0.02300
C 	C 	0.29144 0.37160 0.15850 0.10100
C 	C 	0.29260 0.41310 0.11990 -0.16500
H 	H 	0.32330 0.43380 0.11750 0.09100
C 	C 	0.25090 0.42490 0.08540 0.08800
H 	H 	0.25340 0.45290 0.05970 0.01300
C 	C 	0.20376 0.39430 0.08870 -0.16300
C 	C 	0.20130 0.35540 0.13000 0.09400
H 	H 	0.16990 0.33610 0.13470 0.00400
C 	C 	0.24420 0.34460 0.16420 -0.16700
H 	H 	0.24120 0.31830 0.19200 0.09700
C 	C 	0.15860 0.40430 0.04800 0.41700
C 	C 	0.46970 0.26750 0.32370 0.09800
H 	H 	0.43440 0.25340 0.33130 -0.00300
H 	H 	0.47580 0.29680 0.34990 0.02500
C 	C 	0.60770 0.26710 0.07100 -0.02400
H 	H 	0.60380 0.23080 0.08470 0.05300
H 	H 	0.61170 0.26610 0.03000 0.04600
C 	C 	0.51570 0.26990 0.07660 0.00900
H 	H 	0.51240 0.26170 0.03650 0.03700
H 	H 	0.51630 0.23670 0.09770 0.05000
C 	C 	0.46920 0.30350 0.09560 -0.02600
H 	H 	0.43580 0.28870 0.08220 0.04100
H 	H 	0.47260 0.33970 0.08180 0.05700
C 	C 	0.69540 0.30130 0.18790 0.10800
C 	C 	0.69600 0.29000 0.24560 0.09600
C 	C 	0.73930 0.30840 0.28010 -0.11100
H 	H 	0.73940 0.30240 0.31910 0.07300
C 	C 	0.78140 0.33570 0.25420 0.00200
C 	C 	0.77960 0.34620 0.19750 -0.00700
C 	C 	0.73710 0.32940 0.16630 -0.12300
H 	H 	0.73660 0.33770 0.12780 0.07800
C 	C 	0.82060 0.37810 0.16820 0.09700
C 	C 	0.81800 0.43430 0.16650 -0.16500
H 	H 	0.79130 0.45150 0.18690 0.09000
C 	C 	0.85340 0.46460 0.13590 0.11000
H 	H 	0.85050 0.50150 0.13580 0.00800
C 	C 	0.89360 0.44000 0.10513 -0.20800
C 	C 	0.89607 0.38610 0.10500 0.12100
H 	H 	0.92200 0.36930 0.08320 -0.04500
C 	C 	0.86080 0.35510 0.13660 -0.17900
H 	H 	0.86450 0.31830 0.13640 0.09000
O 	O 	0.06605 0.45507 0.46727 -0.67300
O 	O 	0.47114 0.28734 0.26750 -0.19800
O 	O 	0.65434 0.26460 0.27085 -0.16900
O 	O 	0.65240 0.28506 0.15710 -0.17600
O 	O 	0.56192 0.29803 0.08630 -0.15200
O 	O 	0.47231 0.30173 0.15904 -0.16100
O 	O 	0.16723 0.43650 0.00913 -0.49700
O 	O 	0.11688 0.37752 0.05563 -0.49100
Zn	Zn	0.09227 0.46231 0.54833 1.18000
Zn	Zn	0.06006 0.38092 0.44480 1.22700
C 	C 	0.70860 0.63730 0.28630 0.06200
C 	C 	0.49300 0.77200 0.33440 -0.12600
H 	H 	0.50040 0.79200 0.36880 0.03900
H 	H 	0.48810 0.79610 0.30250 0.08200
C 	C 	0.39690 0.75880 0.35270 0.00200
H 	H 	0.39430 0.76670 0.39300 0.03000
H 	H 	0.39990 0.79200 0.33200 0.04500
C 	C 	0.34800 0.72800 0.33310 -0.01700
H 	H 	0.31600 0.74180 0.35100 0.03500
H 	H 	0.35130 0.69050 0.34250 0.05600
C 	C 	0.34430 0.70730 0.09770 0.02000
H 	H 	0.34370 0.66950 0.08900 0.04200
H 	H 	0.31200 0.72330 0.08310 0.02600
C 	C 	0.07030 0.52629 0.07020 0.42200
C 	C 	0.17370 0.64910 0.29170 0.06300
C 	C 	0.16860 0.59430 0.31030 -0.11800
H 	H 	0.19470 0.56950 0.30090 0.07500
C 	C 	0.12520 0.57920 0.34190 0.05000
H 	H 	0.12140 0.54380 0.35260 0.04400
C 	C 	0.08760 0.61530 0.35770 -0.13600
C 	C 	0.09200 0.66740 0.34090 0.06100
H 	H 	0.06590 0.69190 0.35140 0.03000
C 	C 	0.13460 0.68390 0.30840 -0.13200
H 	H 	0.13700 0.71940 0.29760 0.08300
C 	C 	0.04030 0.59700 0.39290 0.40900
O 	O 	0.87601 0.63279 0.39894 -0.44500
O 	O 	0.85973 0.54600 0.38376 -0.28600
O 	O 	0.44100 0.72660 0.34220 -0.14400
O 	O 	0.07244 0.47697 0.07921 -0.50200
O 	O 	0.03977 0.54744 0.03381 -0.57300
O 	O 	0.00637 0.63318 0.40592 -0.49400
O 	O 	0.03779 0.55035 0.40640 -0.46000
C 	C 	0.84880 0.59500 0.37910 0.33300
C 	C 	0.79790 0.60840 0.34730 -0.11100
C 	C 	0.77860 0.65940 0.35120 0.04200
H 	H 	0.79600 0.68460 0.37330 0.03600
C 	C 	0.73120 0.67310 0.32090 -0.11900
H 	H 	0.71620 0.70680 0.32510 0.07300
C 	C 	0.72860 0.58570 0.28500 -0.12400
H 	H 	0.71120 0.55970 0.26370 0.07800
C 	C 	0.77380 0.57270 0.31490 0.05400
H 	H 	0.78770 0.53840 0.31230 0.02300
C 	C 	0.66090 0.65130 0.24920 0.01900
C 	C 	0.61670 0.67390 0.27510 -0.14200
H 	H 	0.61710 0.67890 0.31420 0.08400
C 	C 	0.57210 0.68930 0.24520 0.12800
C 	C 	0.57200 0.68030 0.18570 0.09000
C 	C 	0.61560 0.65820 0.15870 -0.10300
H 	H 	0.61540 0.65230 0.11970 0.07100
C 	C 	0.66140 0.64450 0.19250 -0.02300
C 	C 	0.70856 0.62840 0.15850 0.10000
C 	C 	0.70740 0.58690 0.11990 -0.16400
H 	H 	0.67670 0.56620 0.11750 0.09000
C 	C 	0.74910 0.57510 0.08540 0.08600
H 	H 	0.74660 0.54710 0.05970 0.01300
C 	C 	0.79624 0.60570 0.08870 -0.16100
C 	C 	0.79870 0.64460 0.13000 0.09400
H 	H 	0.83010 0.66390 0.13470 0.00600
C 	C 	0.75580 0.65540 0.16420 -0.16600
H 	H 	0.75880 0.68170 0.19200 0.09700
C 	C 	0.84140 0.59570 0.04800 0.41600
C 	C 	0.53030 0.73250 0.32370 0.10000
H 	H 	0.56560 0.74660 0.33130 -0.00400
H 	H 	0.52420 0.70320 0.34990 0.02500
C 	C 	0.39230 0.73290 0.07100 -0.02400
H 	H 	0.39620 0.76920 0.08470 0.05300
H 	H 	0.38830 0.73390 0.03000 0.04600
C 	C 	0.48430 0.73010 0.07660 0.00800
H 	H 	0.48760 0.73830 0.03650 0.03700
H 	H 	0.48370 0.76330 0.09770 0.05000
C 	C 	0.53080 0.69650 0.09560 -0.02700
H 	H 	0.56420 0.71130 0.08220 0.04100
H 	H 	0.52740 0.66030 0.08180 0.05700
C 	C 	0.30460 0.69870 0.18790 0.10800
C 	C 	0.30400 0.71000 0.24560 0.09600
C 	C 	0.26070 0.69160 0.28010 -0.11100
H 	H 	0.26060 0.69760 0.31910 0.07200
C 	C 	0.21860 0.66430 0.25420 0.00000
C 	C 	0.22040 0.65380 0.19750 -0.00700
C 	C 	0.26290 0.67060 0.16630 -0.12300
H 	H 	0.26340 0.66230 0.12780 0.07800
C 	C 	0.17940 0.62190 0.16820 0.09800
C 	C 	0.18200 0.56570 0.16650 -0.16800
H 	H 	0.20870 0.54850 0.18690 0.09100
C 	C 	0.14660 0.53540 0.13590 0.11200
H 	H 	0.14950 0.49850 0.13580 0.00500
C 	C 	0.10640 0.56000 0.10513 -0.21500
C 	C 	0.10393 0.61390 0.10500 0.12300
H 	H 	0.07800 0.63070 0.08320 -0.05000
C 	C 	0.13920 0.64490 0.13660 -0.18200
H 	H 	0.13550 0.68170 0.13640 0.08800
O 	O 	0.93395 0.54493 0.46727 -0.66100
O 	O 	0.52886 0.71266 0.26750 -0.19800
O 	O 	0.34566 0.73540 0.27085 -0.16800
O 	O 	0.34760 0.71494 0.15710 -0.17600
O 	O 	0.43808 0.70197 0.08630 -0.15200
O 	O 	0.52769 0.69827 0.15904 -0.16100
O 	O 	0.83277 0.56350 0.00913 -0.49700
O 	O 	0.88312 0.62248 0.05563 -0.48500
Zn	Zn	0.90773 0.53769 0.54833 1.18100
Zn	Zn	0.93994 0.61908 0.44480 1.23500
Zn	Zn	-0.00000 0.50000 0.96656 1.22200
Zn	Zn	-0.00000 0.50000 0.46656 1.22200
C 	C 	0.20860 0.86270 0.21370 0.06300
C 	C 	0.99300 0.72800 0.16560 -0.00600
H 	H 	0.00040 0.70800 0.13120 -0.01300
H 	H 	0.98810 0.70390 0.19750 0.05400
C 	C 	0.89690 0.74120 0.14730 0.00600
H 	H 	0.89430 0.73330 0.10700 0.03200
H 	H 	0.89990 0.70800 0.16800 0.04500
C 	C 	0.84800 0.77200 0.16690 -0.01900
H 	H 	0.81600 0.75820 0.14900 0.03600
H 	H 	0.85130 0.80950 0.15750 0.06100
C 	C 	0.84430 0.79270 0.40230 0.01600
H 	H 	0.84370 0.83050 0.41100 0.04600
H 	H 	0.81200 0.77670 0.41690 0.02700
C 	C 	0.57030 0.97371 0.42980 0.46500
C 	C 	0.67370 0.85090 0.20830 0.05600
C 	C 	0.66860 0.90570 0.18970 -0.10900
H 	H 	0.69470 0.93050 0.19910 0.07700
C 	C 	0.62520 0.92080 0.15810 0.04300
H 	H 	0.62140 0.95620 0.14740 0.05400
C 	C 	0.58760 0.88470 0.14230 -0.12500
C 	C 	0.59200 0.83260 0.15910 0.05300
H 	H 	0.56590 0.80810 0.14860 0.03500
C 	C 	0.63460 0.81610 0.19160 -0.12300
H 	H 	0.63700 0.78060 0.20240 0.08000
C 	C 	0.54030 0.90300 0.10710 0.40400
O 	O 	0.37601 0.86721 0.10106 -0.44600
O 	O 	0.35973 0.95400 0.11624 -0.27900
O 	O 	0.94100 0.77340 0.15780 -0.14700
O 	O 	0.57244 0.02303 0.42079 -0.52200
O 	O 	0.53977 0.95256 0.46619 -0.57000
O 	O 	0.50637 0.86682 0.09408 -0.47900
O 	O 	0.53779 0.94965 0.09360 -0.44300
C 	C 	0.34880 0.90500 0.12090 0.33100
C 	C 	0.29790 0.89160 0.15270 -0.10800
C 	C 	0.27860 0.84060 0.14880 0.04100
H 	H 	0.29600 0.81540 0.12670 0.03700
C 	C 	0.23120 0.82690 0.17910 -0.11900
H 	H 	0.21620 0.79320 0.17490 0.07300
C 	C 	0.22860 0.91430 0.21500 -0.12200
H 	H 	0.21120 0.94030 0.23630 0.08000
C 	C 	0.27380 0.92730 0.18510 0.05200
H 	H 	0.28770 0.96160 0.18770 0.02800
C 	C 	0.16090 0.84870 0.25080 0.01700
C 	C 	0.11670 0.82610 0.22490 -0.13600
H 	H 	0.11710 0.82110 0.18580 0.08100
C 	C 	0.07210 0.81070 0.25480 0.11800
C 	C 	0.07200 0.81970 0.31430 0.09300
C 	C 	0.11560 0.84180 0.34130 -0.10500
H 	H 	0.11540 0.84770 0.38030 0.07100
C 	C 	0.16140 0.85550 0.30750 -0.02100
C 	C 	0.20856 0.87160 0.34150 0.09900
C 	C 	0.20740 0.91310 0.38010 -0.16200
H 	H 	0.17670 0.93380 0.38250 0.09200
C 	C 	0.24910 0.92490 0.41460 0.08600
H 	H 	0.24660 0.95290 0.44030 0.01700
C 	C 	0.29624 0.89430 0.41130 -0.16000
C 	C 	0.29870 0.85540 0.37000 0.09200
H 	H 	0.33010 0.83610 0.36530 0.00600
C 	C 	0.25580 0.84460 0.33580 -0.16400
H 	H 	0.25880 0.81830 0.30800 0.09600
C 	C 	0.34140 0.90430 0.45200 0.41500
C 	C 	0.03030 0.76750 0.17630 -0.00000
H 	H 	0.06560 0.75340 0.16870 0.02500
H 	H 	0.02420 0.79680 0.15010 0.04900
C 	C 	0.89230 0.76710 0.42900 -0.02100
H 	H 	0.89620 0.73080 0.41530 0.05300
H 	H 	0.88830 0.76610 0.47000 0.04600
C 	C 	0.98430 0.76990 0.42340 0.04000
H 	H 	0.98760 0.76170 0.46350 0.03400
H 	H 	0.98370 0.73670 0.40230 0.04900
C 	C 	0.03080 0.80350 0.40440 -0.05700
H 	H 	0.06420 0.78870 0.41780 0.04700
H 	H 	0.02740 0.83970 0.41820 0.06200
C 	C 	0.80460 0.80130 0.31210 0.10400
C 	C 	0.80400 0.79000 0.25440 0.10100
C 	C 	0.76070 0.80840 0.21990 -0.11600
H 	H 	0.76060 0.80240 0.18090 0.07500
C 	C 	0.71860 0.83570 0.24580 0.01100
C 	C 	0.72040 0.84620 0.30250 -0.02300
C 	C 	0.76290 0.82940 0.33370 -0.11100
H 	H 	0.76340 0.83770 0.37220 0.07500
C 	C 	0.67940 0.87810 0.33180 0.13200
C 	C 	0.68200 0.93430 0.33350 -0.22100
H 	H 	0.70870 0.95150 0.31310 0.11600
C 	C 	0.64660 0.96460 0.36410 0.20000
H 	H 	0.64950 0.00150 0.36420 -0.03800
C 	C 	0.60640 0.94000 0.39487 -0.26000
C 	C 	0.60393 0.88610 0.39500 0.16500
H 	H 	0.57800 0.86930 0.41680 -0.06200
C 	C 	0.63920 0.85510 0.36340 -0.21600
H 	H 	0.63550 0.81830 0.36360 0.10200
O 	O 	0.43395 0.95507 0.03273 -0.65900
O 	O 	0.02886 0.78734 0.23250 -0.18300
O 	O 	0.84566 0.76460 0.22915 -0.16700
O 	O 	0.84760 0.78506 0.34290 -0.17200
O 	O 	0.93808 0.79803 0.41370 -0.15200
O 	O 	0.02769 0.80173 0.34096 -0.16400
O 	O 	0.33277 0.93650 0.49087 -0.49200
O 	O 	0.38312 0.87752 0.44437 -0.48800
Zn	Zn	0.40773 0.96231 0.95167 1.18400
Zn	Zn	0.43994 0.88092 0.05520 1.23100
C 	C 	0.79140 0.13730 0.21370 0.06300
C 	C 	0.00700 0.27200 0.16560 -0.24400
H 	H 	0.99960 0.29200 0.13120 0.08900
H 	H 	0.01190 0.29610 0.19750 0.10900
C 	C 	0.10310 0.25880 0.14730 -0.00000
H 	H 	0.10570 0.26670 0.10700 0.02900
H 	H 	0.10010 0.29200 0.16800 0.04400
C 	C 	0.15200 0.22800 0.16690 -0.01500
H 	H 	0.18400 0.24180 0.14900 0.03400
H 	H 	0.14870 0.19050 0.15750 0.05300
C 	C 	0.15570 0.20730 0.40230 0.02300
H 	H 	0.15630 0.16950 0.41100 0.03700
H 	H 	0.18800 0.22330 0.41690 0.02400
C 	C 	0.42970 0.02629 0.42980 0.37600
C 	C 	0.32630 0.14910 0.20830 0.06700
C 	C 	0.33140 0.09430 0.18970 -0.12200
H 	H 	0.30530 0.06950 0.19910 0.07200
C 	C 	0.37480 0.07920 0.15810 0.05100
H 	H 	0.37860 0.04380 0.14740 0.03800
C 	C 	0.41240 0.11530 0.14230 -0.13700
C 	C 	0.40800 0.16740 0.15910 0.06200
H 	H 	0.43410 0.19190 0.14860 0.03200
C 	C 	0.36540 0.18390 0.19160 -0.13400
H 	H 	0.36300 0.21940 0.20240 0.08400
C 	C 	0.45970 0.09700 0.10710 0.41000
O 	O 	0.62399 0.13279 0.10106 -0.44900
O 	O 	0.64027 0.04600 0.11624 -0.29600
O 	O 	0.05900 0.22660 0.15780 -0.14100
O 	O 	0.42756 0.97697 0.42079 -0.47200
O 	O 	0.46023 0.04744 0.46619 -0.55800
O 	O 	0.49363 0.13318 0.09408 -0.48300
O 	O 	0.46221 0.05035 0.09360 -0.46000
C 	C 	0.65120 0.09500 0.12090 0.33400
C 	C 	0.70210 0.10840 0.15270 -0.11600
C 	C 	0.72140 0.15940 0.14880 0.04400
H 	H 	0.70400 0.18460 0.12670 0.03500
C 	C 	0.76880 0.17310 0.17910 -0.12100
H 	H 	0.78380 0.20680 0.17490 0.07400
C 	C 	0.77140 0.08570 0.21500 -0.12700
H 	H 	0.78880 0.05970 0.23630 0.07500
C 	C 	0.72620 0.07270 0.18510 0.05600
H 	H 	0.71230 0.03840 0.18770 0.01600
C 	C 	0.83910 0.15130 0.25080 0.02100
C 	C 	0.88330 0.17390 0.22490 -0.14700
H 	H 	0.88290 0.17890 0.18580 0.08600
C 	C 	0.92790 0.18930 0.25480 0.13700
C 	C 	0.92800 0.18030 0.31430 0.08800
C 	C 	0.88440 0.15820 0.34130 -0.10100
H 	H 	0.88460 0.15230 0.38030 0.07000
C 	C 	0.83860 0.14450 0.30750 -0.02500
C 	C 	0.79144 0.12840 0.34150 0.10200
C 	C 	0.79260 0.08690 0.38010 -0.16800
H 	H 	0.82330 0.06620 0.38250 0.08900
C 	C 	0.75090 0.07510 0.41460 0.08800
H 	H 	0.75340 0.04710 0.44030 0.00900
C 	C 	0.70376 0.10570 0.41130 -0.16400
C 	C 	0.70130 0.14460 0.37000 0.09500
H 	H 	0.66990 0.16390 0.36530 0.00400
C 	C 	0.74420 0.15540 0.33580 -0.16800
H 	H 	0.74120 0.18170 0.30800 0.09800
C 	C 	0.65860 0.09570 0.45200 0.41900
C 	C 	0.96970 0.23250 0.17630 0.19800
H 	H 	0.93440 0.24660 0.16870 -0.03200
H 	H 	0.97580 0.20320 0.15010 0.00100
C 	C 	0.10770 0.23290 0.42900 -0.02700
H 	H 	0.10380 0.26920 0.41530 0.05300
H 	H 	0.11170 0.23390 0.47000 0.04600
C 	C 	0.01570 0.23010 0.42340 -0.02200
H 	H 	0.01240 0.23830 0.46350 0.04000
H 	H 	0.01630 0.26330 0.40230 0.05200
C 	C 	0.96920 0.19650 0.40440 0.00400
H 	H 	0.93580 0.21130 0.41780 0.03500
H 	H 	0.97260 0.16030 0.41820 0.05300
C 	C 	0.19540 0.19870 0.31210 0.11300
C 	C 	0.19600 0.21000 0.25440 0.09100
C 	C 	0.23930 0.19160 0.21990 -0.10600
H 	H 	0.23940 0.19760 0.18090 0.07000
C 	C 	0.28140 0.16430 0.24580 -0.00900
C 	C 	0.27960 0.15380 0.30250 0.01000
C 	C 	0.23710 0.17060 0.33370 -0.13500
H 	H 	0.23660 0.16230 0.37220 0.08000
C 	C 	0.32060 0.12190 0.33180 0.06200
C 	C 	0.31800 0.06570 0.33350 -0.11100
H 	H 	0.29130 0.04850 0.31310 0.06500
C 	C 	0.35340 0.03540 0.36410 0.02200
H 	H 	0.35050 0.99850 0.36420 0.05100
C 	C 	0.39360 0.06000 0.39487 -0.16300
C 	C 	0.39607 0.11390 0.39500 0.08000
H 	H 	0.42200 0.13070 0.41680 -0.03300
C 	C 	0.36080 0.14490 0.36340 -0.14500
H 	H 	0.36450 0.18170 0.36360 0.07700
O 	O 	0.56605 0.04493 0.03273 -0.67500
O 	O 	0.97114 0.21266 0.23250 -0.21200
O 	O 	0.15434 0.23540 0.22915 -0.17000
O 	O 	0.15240 0.21494 0.34290 -0.18100
O 	O 	0.06192 0.20197 0.41370 -0.15300
O 	O 	0.97231 0.19827 0.34096 -0.15900
O 	O 	0.66723 0.06350 0.49087 -0.50200
O 	O 	0.61688 0.12248 0.44437 -0.48900
Zn	Zn	0.59227 0.03769 0.95167 1.17600
Zn	Zn	0.56006 0.11908 0.05520 1.23100
C 	C 	0.36270 0.70860 0.71370 0.06300
C 	C 	0.22800 0.49300 0.66560 -0.12400
H 	H 	0.20800 0.50040 0.63120 0.03700
H 	H 	0.20390 0.48810 0.69750 0.08100
C 	C 	0.24120 0.39690 0.64730 0.00300
H 	H 	0.23330 0.39430 0.60700 0.03000
H 	H 	0.20800 0.39990 0.66800 0.04400
C 	C 	0.27200 0.34800 0.66690 -0.01700
H 	H 	0.25820 0.31600 0.64900 0.03500
H 	H 	0.30950 0.35130 0.65750 0.05700
C 	C 	0.29270 0.34430 0.90230 0.02000
H 	H 	0.33050 0.34370 0.91100 0.04100
H 	H 	0.27670 0.31200 0.91690 0.02500
C 	C 	0.47371 0.07030 0.92980 0.42200
C 	C 	0.35090 0.17370 0.70830 0.06300
C 	C 	0.40570 0.16860 0.68970 -0.11800
H 	H 	0.43050 0.19470 0.69910 0.07500
C 	C 	0.42080 0.12520 0.65810 0.05000
H 	H 	0.45620 0.12140 0.64740 0.04400
C 	C 	0.38470 0.08760 0.64230 -0.13600
C 	C 	0.33260 0.09200 0.65910 0.06100
H 	H 	0.30810 0.06590 0.64860 0.03000
C 	C 	0.31610 0.13460 0.69160 -0.13200
H 	H 	0.28060 0.13700 0.70240 0.08300
C 	C 	0.40300 0.04030 0.60710 0.40900
O 	O 	0.36721 0.87601 0.60106 -0.44500
O 	O 	0.45400 0.85973 0.61624 -0.28600
O 	O 	0.27340 0.44100 0.65780 -0.14400
O 	O 	0.52303 0.07244 0.92079 -0.50200
O 	O 	0.45256 0.03977 0.96619 -0.57300
O 	O 	0.36682 0.00637 0.59408 -0.49400
O 	O 	0.44965 0.03779 0.59360 -0.46000
C 	C 	0.40500 0.84880 0.62090 0.33300
C 	C 	0.39160 0.79790 0.65270 -0.11100
C 	C 	0.34060 0.77860 0.64880 0.04200
H 	H 	0.31540 0.79600 0.62670 0.03600
C 	C 	0.32690 0.73120 0.67910 -0.12000
H 	H 	0.29320 0.71620 0.67490 0.07400
C 	C 	0.41430 0.72860 0.71500 -0.12400
H 	H 	0.44030 0.71120 0.73630 0.07800
C 	C 	0.42730 0.77380 0.68510 0.05400
H 	H 	0.46160 0.78770 0.68770 0.02300
C 	C 	0.34870 0.66090 0.75080 0.01900
C 	C 	0.32610 0.61670 0.72490 -0.14200
H 	H 	0.32110 0.61710 0.68580 0.08400
C 	C 	0.31070 0.57210 0.75480 0.12700
C 	C 	0.31970 0.57200 0.81430 0.09000
C 	C 	0.34180 0.61560 0.84130 -0.10300
H 	H 	0.34770 0.61540 0.88030 0.07100
C 	C 	0.35550 0.66140 0.80750 -0.02300
C 	C 	0.37160 0.70856 0.84150 0.10000
C 	C 	0.41310 0.70740 0.88010 -0.16400
H 	H 	0.43380 0.67670 0.88250 0.09000
C 	C 	0.42490 0.74910 0.91460 0.08700
H 	H 	0.45290 0.74660 0.94030 0.01300
C 	C 	0.39430 0.79624 0.91130 -0.16200
C 	C 	0.35540 0.79870 0.87000 0.09400
H 	H 	0.33610 0.83010 0.86530 0.00600
C 	C 	0.34460 0.75580 0.83580 -0.16600
H 	H 	0.31830 0.75880 0.80800 0.09700
C 	C 	0.40430 0.84140 0.95200 0.41600
C 	C 	0.26750 0.53030 0.67630 0.09800
H 	H 	0.25340 0.56560 0.66870 -0.00300
H 	H 	0.29680 0.52420 0.65010 0.02500
C 	C 	0.26710 0.39230 0.92900 -0.02400
H 	H 	0.23080 0.39620 0.91530 0.05300
H 	H 	0.26610 0.38830 0.97000 0.04600
C 	C 	0.26990 0.48430 0.92340 0.00800
H 	H 	0.26170 0.48760 0.96350 0.03700
H 	H 	0.23670 0.48370 0.90230 0.05000
C 	C 	0.30350 0.53080 0.90440 -0.02600
H 	H 	0.28870 0.56420 0.91780 0.04100
H 	H 	0.33970 0.52740 0.91820 0.05700
C 	C 	0.30130 0.30460 0.81210 0.10800
C 	C 	0.29000 0.30400 0.75440 0.09600
C 	C 	0.30840 0.26070 0.71990 -0.11100
H 	H 	0.30240 0.26060 0.68090 0.07200
C 	C 	0.33570 0.21860 0.74580 0.00000
C 	C 	0.34620 0.22040 0.80250 -0.00700
C 	C 	0.32940 0.26290 0.83370 -0.12300
H 	H 	0.33770 0.26340 0.87220 0.07700
C 	C 	0.37810 0.17940 0.83180 0.09800
C 	C 	0.43430 0.18200 0.83350 -0.16800
H 	H 	0.45150 0.20870 0.81310 0.09100
C 	C 	0.46460 0.14660 0.86410 0.11200
H 	H 	0.50150 0.14950 0.86420 0.00500
C 	C 	0.44000 0.10640 0.89487 -0.21500
C 	C 	0.38610 0.10393 0.89500 0.12300
H 	H 	0.36930 0.07800 0.91680 -0.05000
C 	C 	0.35510 0.13920 0.86340 -0.18200
H 	H 	0.31830 0.13550 0.86360 0.08800
O 	O 	0.45507 0.93395 0.53273 -0.66100
O 	O 	0.28734 0.52886 0.73250 -0.19800
O 	O 	0.26460 0.34566 0.72915 -0.16900
O 	O 	0.28506 0.34760 0.84290 -0.17600
O 	O 	0.29803 0.43808 0.91370 -0.15200
O 	O 	0.30173 0.52769 0.84096 -0.16100
O 	O 	0.43650 0.83277 0.99087 -0.49700
O 	O 	0.37752 0.88312 0.94437 -0.48600
Zn	Zn	0.46231 0.90773 0.45167 1.18100
Zn	Zn	0.38092 0.93994 0.55520 1.23500
C 	C 	0.63730 0.29140 0.71370 0.06300
C 	C 	0.77200 0.50700 0.66560 -0.12600
H 	H 	0.79200 0.49960 0.63120 0.03900
H 	H 	0.79610 0.51190 0.69750 0.08200
C 	C 	0.75880 0.60310 0.64730 0.00200
H 	H 	0.76670 0.60570 0.60700 0.03000
H 	H 	0.79200 0.60010 0.66800 0.04500
C 	C 	0.72800 0.65200 0.66690 -0.01700
H 	H 	0.74180 0.68400 0.64900 0.03500
H 	H 	0.69050 0.64870 0.65750 0.05600
C 	C 	0.70730 0.65570 0.90230 0.01900
H 	H 	0.66950 0.65630 0.91100 0.04200
H 	H 	0.72330 0.68800 0.91690 0.02600
C 	C 	0.52629 0.92970 0.92980 0.41900
C 	C 	0.64910 0.82630 0.70830 0.06000
C 	C 	0.59430 0.83140 0.68970 -0.11300
H 	H 	0.56950 0.80530 0.69910 0.07400
C 	C 	0.57920 0.87480 0.65810 0.04400
H 	H 	0.54380 0.87860 0.64740 0.04800
C 	C 	0.61530 0.91240 0.64230 -0.12600
C 	C 	0.66740 0.90800 0.65910 0.05500
H 	H 	0.69190 0.93410 0.64860 0.03700
C 	C 	0.68390 0.86540 0.69160 -0.12400
H 	H 	0.71940 0.86300 0.70240 0.08100
C 	C 	0.59700 0.95970 0.60710 0.40400
O 	O 	0.63279 0.12399 0.60106 -0.45000
O 	O 	0.54600 0.14027 0.61624 -0.28900
O 	O 	0.72660 0.55900 0.65780 -0.14400
O 	O 	0.47697 0.92756 0.92079 -0.49300
O 	O 	0.54744 0.96023 0.96619 -0.55500
O 	O 	0.63318 0.99363 0.59408 -0.46800
O 	O 	0.55035 0.96221 0.59360 -0.44300
C 	C 	0.59500 0.15120 0.62090 0.33300
C 	C 	0.60840 0.20210 0.65270 -0.11300
C 	C 	0.65940 0.22140 0.64880 0.04200
H 	H 	0.68460 0.20400 0.62670 0.03600
C 	C 	0.67310 0.26880 0.67910 -0.12000
H 	H 	0.70680 0.28380 0.67490 0.07400
C 	C 	0.58570 0.27140 0.71500 -0.12500
H 	H 	0.55970 0.28880 0.73630 0.07800
C 	C 	0.57270 0.22620 0.68510 0.05400
H 	H 	0.53840 0.21230 0.68770 0.02200
C 	C 	0.65130 0.33910 0.75080 0.01900
C 	C 	0.67390 0.38330 0.72490 -0.14200
H 	H 	0.67890 0.38290 0.68580 0.08400
C 	C 	0.68930 0.42790 0.75480 0.12800
C 	C 	0.68030 0.42800 0.81430 0.09000
C 	C 	0.65820 0.38440 0.84130 -0.10300
H 	H 	0.65230 0.38460 0.88030 0.07100
C 	C 	0.64450 0.33860 0.80750 -0.02300
C 	C 	0.62840 0.29144 0.84150 0.10100
C 	C 	0.58690 0.29260 0.88010 -0.16500
H 	H 	0.56620 0.32330 0.88250 0.09100
C 	C 	0.57510 0.25090 0.91460 0.08800
H 	H 	0.54710 0.25340 0.94030 0.01300
C 	C 	0.60570 0.20376 0.91130 -0.16300
C 	C 	0.64460 0.20130 0.87000 0.09400
H 	H 	0.66390 0.16990 0.86530 0.00400
C 	C 	0.65540 0.24420 0.83580 -0.16700
H 	H 	0.68170 0.24120 0.80800 0.09700
C 	C 	0.59570 0.15860 0.95200 0.41700
C 	C 	0.73250 0.46970 0.67630 0.10000
H 	H 	0.74660 0.43440 0.66870 -0.00400
H 	H 	0.70320 0.47580 0.65010 0.02500
C 	C 	0.73290 0.60770 0.92900 -0.02400
H 	H 	0.76920 0.60380 0.91530 0.05300
H 	H 	0.73390 0.61170 0.97000 0.04600
C 	C 	0.73010 0.51570 0.92340 0.00900
H 	H 	0.73830 0.51240 0.96350 0.03700
H 	H 	0.76330 0.51630 0.90230 0.05000
C 	C 	0.69650 0.46920 0.90440 -0.02700
H 	H 	0.71130 0.43580 0.91780 0.04100
H 	H 	0.66030 0.47260 0.91820 0.05700
C 	C 	0.69870 0.69540 0.81210 0.10800
C 	C 	0.71000 0.69600 0.75440 0.09600
C 	C 	0.69160 0.73930 0.71990 -0.11200
H 	H 	0.69760 0.73940 0.68090 0.07300
C 	C 	0.66430 0.78140 0.74580 0.00200
C 	C 	0.65380 0.77960 0.80250 -0.00700
C 	C 	0.67060 0.73710 0.83370 -0.12300
H 	H 	0.66230 0.73660 0.87220 0.07800
C 	C 	0.62190 0.82060 0.83180 0.09700
C 	C 	0.56570 0.81800 0.83350 -0.16500
H 	H 	0.54850 0.79130 0.81310 0.09000
C 	C 	0.53540 0.85340 0.86410 0.11000
H 	H 	0.49850 0.85050 0.86420 0.00800
C 	C 	0.56000 0.89360 0.89487 -0.20800
C 	C 	0.61390 0.89607 0.89500 0.12100
H 	H 	0.63070 0.92200 0.91680 -0.04400
C 	C 	0.64490 0.86080 0.86340 -0.17900
H 	H 	0.68170 0.86450 0.86360 0.09100
O 	O 	0.54493 0.06605 0.53273 -0.67300
O 	O 	0.71266 0.47114 0.73250 -0.19800
O 	O 	0.73540 0.65434 0.72915 -0.16900
O 	O 	0.71494 0.65240 0.84290 -0.17600
O 	O 	0.70197 0.56192 0.91370 -0.15200
O 	O 	0.69827 0.47231 0.84096 -0.16100
O 	O 	0.56350 0.16723 0.99087 -0.49700
O 	O 	0.62248 0.11688 0.94437 -0.49100
Zn	Zn	0.53769 0.09227 0.45167 1.18000
Zn	Zn	0.61908 0.06006 0.55520 1.22700
Zn	Zn	0.50000 -0.00000 0.03344 1.22200
Zn	Zn	0.50000 -0.00000 0.53344 1.22200
