data_crystal

_cell_length_a 31.81810
_cell_length_b 31.81810
_cell_length_c 31.81810
_cell_angle_alpha 90.00000
_cell_angle_beta  90.00000
_cell_angle_gamma 90.00000

_symmetry_space_group_name_	'P 1'
_symmetry_space_group_name_H-M	'P 1'

loop_
_symmetry_equiv_pos_as_xyz
  x,y,z

loop_
_atom_site_label
_atom_site_type_symbol
_atom_site_fract_x
_atom_site_fract_y
_atom_site_fract_z
_atom_site_charge
N 	N 	0.70592 0.95375 0.73778 -0.13700
N 	N 	0.65438 0.00016 0.68634 -0.26100
N 	N 	0.70759 0.00463 0.64208 -0.14400
C 	C 	0.77827 0.94140 0.76382 -0.15400
H 	H 	0.78950 0.95890 0.74240 0.09400
C 	C 	0.80450 0.92290 0.79330 0.05500
H 	H 	0.83400 0.92740 0.79210 0.00700
C 	C 	0.78750 0.89770 0.82420 -0.12300
H 	H 	0.80540 0.88520 0.84450 0.06700
C 	C 	0.74430 0.89040 0.82610 0.05700
H 	H 	0.73300 0.87270 0.84720 0.01100
C 	C 	0.71800 0.90930 0.79675 -0.15800
H 	H 	0.68840 0.90520 0.79800 0.08100
C 	C 	0.73540 0.93399 0.76604 0.14800
N 	N 	0.72275 0.96869 0.70500 -0.10300
C 	C 	0.69431 0.98991 0.67959 0.17400
C 	C 	0.64175 0.02161 0.65150 -0.00200
H 	H 	0.61440 0.03270 0.64720 0.01900
C 	C 	0.67438 0.02484 0.62363 0.00600
H 	H 	0.67400 0.03830 0.59700 0.03300
H 	H 	0.77030 0.00400 0.64740 0.01500
N 	N 	0.20592 0.45375 0.23778 -0.13900
N 	N 	0.15438 0.50016 0.18634 -0.25300
N 	N 	0.20759 0.50463 0.14208 -0.12700
C 	C 	0.27827 0.44140 0.26382 -0.15300
H 	H 	0.28950 0.45890 0.24240 0.09100
C 	C 	0.30450 0.42290 0.29330 0.05400
H 	H 	0.33400 0.42740 0.29210 0.00700
C 	C 	0.28750 0.39770 0.32420 -0.12200
H 	H 	0.30540 0.38520 0.34450 0.06600
C 	C 	0.24430 0.39040 0.32610 0.05600
H 	H 	0.23300 0.37270 0.34720 0.01100
C 	C 	0.21800 0.40930 0.29675 -0.15700
H 	H 	0.18840 0.40520 0.29800 0.07900
C 	C 	0.23540 0.43399 0.26604 0.14400
N 	N 	0.22275 0.46869 0.20500 -0.10300
C 	C 	0.19431 0.48991 0.17959 0.15400
C 	C 	0.14175 0.52161 0.15150 -0.00000
H 	H 	0.11440 0.53270 0.14720 0.01800
C 	C 	0.17438 0.52484 0.12363 0.00300
H 	H 	0.17400 0.53830 0.09700 0.03300
H 	H 	0.27030 0.50400 0.14740 0.03700
N 	N 	0.79408 0.04625 0.23778 -0.14100
N 	N 	0.84562 0.99984 0.18634 -0.24400
N 	N 	0.79241 0.99537 0.14208 -0.11000
C 	C 	0.72173 0.05860 0.26382 -0.15300
H 	H 	0.71050 0.04110 0.24240 0.08700
C 	C 	0.69550 0.07710 0.29330 0.05100
H 	H 	0.66600 0.07260 0.29210 0.00500
C 	C 	0.71250 0.10230 0.32420 -0.12200
H 	H 	0.69460 0.11480 0.34450 0.06400
C 	C 	0.75570 0.10960 0.32610 0.05400
H 	H 	0.76700 0.12730 0.34720 0.01000
C 	C 	0.78200 0.09070 0.29675 -0.15700
H 	H 	0.81160 0.09480 0.29800 0.07800
C 	C 	0.76460 0.06601 0.26604 0.14200
N 	N 	0.77725 0.03131 0.20500 -0.10200
C 	C 	0.80569 0.01009 0.17959 0.13400
C 	C 	0.85825 0.97839 0.15150 0.00200
H 	H 	0.88560 0.96730 0.14720 0.02000
C 	C 	0.82562 0.97516 0.12363 0.00200
H 	H 	0.82600 0.96170 0.09700 0.03600
H 	H 	0.72970 0.99600 0.14740 0.05900
N 	N 	0.29408 0.54625 0.73778 -0.14000
N 	N 	0.34562 0.49984 0.68634 -0.25400
N 	N 	0.29241 0.49537 0.64208 -0.12800
C 	C 	0.22173 0.55860 0.76382 -0.15400
H 	H 	0.21050 0.54110 0.74240 0.09000
C 	C 	0.19550 0.57710 0.79330 0.05300
H 	H 	0.16600 0.57260 0.79210 0.00600
C 	C 	0.21250 0.60230 0.82420 -0.12300
H 	H 	0.19460 0.61480 0.84450 0.06500
C 	C 	0.25570 0.60960 0.82610 0.05500
H 	H 	0.26700 0.62730 0.84720 0.01000
C 	C 	0.28200 0.59070 0.79675 -0.15800
H 	H 	0.31160 0.59480 0.79800 0.07900
C 	C 	0.26460 0.56601 0.76604 0.14400
N 	N 	0.27725 0.53131 0.70500 -0.10300
C 	C 	0.30569 0.51009 0.67959 0.15400
C 	C 	0.35825 0.47839 0.65150 -0.00000
H 	H 	0.38560 0.46730 0.64720 0.01900
C 	C 	0.32562 0.47516 0.62363 0.00300
H 	H 	0.32600 0.46170 0.59700 0.03500
H 	H 	0.22970 0.49600 0.64740 0.03700
N 	N 	0.29408 0.45375 0.76222 -0.14000
N 	N 	0.34562 0.50016 0.81366 -0.25400
N 	N 	0.29241 0.50463 0.85792 -0.12700
C 	C 	0.22173 0.44140 0.73618 -0.15400
H 	H 	0.21050 0.45890 0.75760 0.09000
C 	C 	0.19550 0.42290 0.70670 0.05300
H 	H 	0.16600 0.42740 0.70790 0.00600
C 	C 	0.21250 0.39770 0.67580 -0.12300
H 	H 	0.19460 0.38520 0.65550 0.06500
C 	C 	0.25570 0.39040 0.67390 0.05500
H 	H 	0.26700 0.37270 0.65280 0.01000
C 	C 	0.28200 0.40930 0.70325 -0.15800
H 	H 	0.31160 0.40520 0.70200 0.07900
C 	C 	0.26460 0.43399 0.73396 0.14400
N 	N 	0.27725 0.46869 0.79500 -0.10300
C 	C 	0.30569 0.48991 0.82041 0.15400
C 	C 	0.35825 0.52161 0.84850 0.00000
H 	H 	0.38560 0.53270 0.85280 0.01900
C 	C 	0.32562 0.52484 0.87637 0.00300
H 	H 	0.32600 0.53830 0.90300 0.03600
H 	H 	0.22970 0.50400 0.85260 0.03700
N 	N 	0.79408 0.95375 0.26222 -0.13800
N 	N 	0.84562 0.00016 0.31366 -0.26200
N 	N 	0.79241 0.00463 0.35792 -0.14500
C 	C 	0.72173 0.94140 0.23618 -0.15500
H 	H 	0.71050 0.95890 0.25760 0.09300
C 	C 	0.69550 0.92290 0.20670 0.05400
H 	H 	0.66600 0.92740 0.20790 0.00600
C 	C 	0.71250 0.89770 0.17580 -0.12400
H 	H 	0.69460 0.88520 0.15550 0.06500
C 	C 	0.75570 0.89040 0.17390 0.05600
H 	H 	0.76700 0.87270 0.15280 0.00900
C 	C 	0.78200 0.90930 0.20325 -0.15900
H 	H 	0.81160 0.90520 0.20200 0.08000
C 	C 	0.76460 0.93399 0.23396 0.14700
N 	N 	0.77725 0.96869 0.29500 -0.10400
C 	C 	0.80569 0.98991 0.32041 0.17300
C 	C 	0.85825 0.02161 0.34850 -0.00400
H 	H 	0.88560 0.03270 0.35280 0.01800
C 	C 	0.82562 0.02484 0.37637 0.00500
H 	H 	0.82600 0.03830 0.40300 0.03200
H 	H 	0.72970 0.00400 0.35260 0.01400
N 	N 	0.20592 0.54625 0.26222 -0.14000
N 	N 	0.15438 0.49984 0.31366 -0.25400
N 	N 	0.20759 0.49537 0.35792 -0.12800
C 	C 	0.27827 0.55860 0.23618 -0.15400
H 	H 	0.28950 0.54110 0.25760 0.09000
C 	C 	0.30450 0.57710 0.20670 0.05300
H 	H 	0.33400 0.57260 0.20790 0.00600
C 	C 	0.28750 0.60230 0.17580 -0.12300
H 	H 	0.30540 0.61480 0.15550 0.06500
C 	C 	0.24430 0.60960 0.17390 0.05500
H 	H 	0.23300 0.62730 0.15280 0.01000
C 	C 	0.21800 0.59070 0.20325 -0.15800
H 	H 	0.18840 0.59480 0.20200 0.07900
C 	C 	0.23540 0.56601 0.23396 0.14400
N 	N 	0.22275 0.53131 0.29500 -0.10300
C 	C 	0.19431 0.51009 0.32041 0.15400
C 	C 	0.14175 0.47839 0.34850 -0.00000
H 	H 	0.11440 0.46730 0.35280 0.01800
C 	C 	0.17438 0.47516 0.37637 0.00300
H 	H 	0.17400 0.46170 0.40300 0.03400
H 	H 	0.27030 0.49600 0.35260 0.03700
N 	N 	0.70592 0.04625 0.76222 -0.14100
N 	N 	0.65438 0.99984 0.81366 -0.24400
N 	N 	0.70759 0.99537 0.85792 -0.11000
C 	C 	0.77827 0.05860 0.73618 -0.15300
H 	H 	0.78950 0.04110 0.75760 0.08700
C 	C 	0.80450 0.07710 0.70670 0.05200
H 	H 	0.83400 0.07260 0.70790 0.00500
C 	C 	0.78750 0.10230 0.67580 -0.12200
H 	H 	0.80540 0.11480 0.65550 0.06500
C 	C 	0.74430 0.10960 0.67390 0.05400
H 	H 	0.73300 0.12730 0.65280 0.01000
C 	C 	0.71800 0.09070 0.70325 -0.15700
H 	H 	0.68840 0.09480 0.70200 0.07800
C 	C 	0.73540 0.06601 0.73396 0.14200
N 	N 	0.72275 0.03131 0.79500 -0.10200
C 	C 	0.69431 0.01009 0.82041 0.13400
C 	C 	0.64175 0.97839 0.84850 0.00300
H 	H 	0.61440 0.96730 0.85280 0.02000
C 	C 	0.67438 0.97516 0.87637 0.00100
H 	H 	0.67400 0.96170 0.90300 0.03800
H 	H 	0.77030 0.99600 0.85260 0.05900
N 	N 	0.73778 0.70592 0.95375 -0.13800
N 	N 	0.68634 0.65438 0.00016 -0.26200
N 	N 	0.64208 0.70759 0.00463 -0.14500
C 	C 	0.76382 0.77827 0.94140 -0.15500
H 	H 	0.74240 0.78950 0.95890 0.09300
C 	C 	0.79330 0.80450 0.92290 0.05400
H 	H 	0.79210 0.83400 0.92740 0.00600
C 	C 	0.82420 0.78750 0.89770 -0.12400
H 	H 	0.84450 0.80540 0.88520 0.06600
C 	C 	0.82610 0.74430 0.89040 0.05600
H 	H 	0.84720 0.73300 0.87270 0.01000
C 	C 	0.79675 0.71800 0.90930 -0.15900
H 	H 	0.79800 0.68840 0.90520 0.08000
C 	C 	0.76604 0.73540 0.93399 0.14700
N 	N 	0.70500 0.72275 0.96869 -0.10400
C 	C 	0.67959 0.69431 0.98991 0.17300
C 	C 	0.65150 0.64175 0.02161 -0.00300
H 	H 	0.64720 0.61440 0.03270 0.01800
C 	C 	0.62363 0.67438 0.02484 0.00500
H 	H 	0.59700 0.67400 0.03830 0.03200
H 	H 	0.64740 0.77030 0.00400 0.01400
N 	N 	0.23778 0.20592 0.45375 -0.14000
N 	N 	0.18634 0.15438 0.50016 -0.25400
N 	N 	0.14208 0.20759 0.50463 -0.12800
C 	C 	0.26382 0.27827 0.44140 -0.15400
H 	H 	0.24240 0.28950 0.45890 0.09000
C 	C 	0.29330 0.30450 0.42290 0.05300
H 	H 	0.29210 0.33400 0.42740 0.00600
C 	C 	0.32420 0.28750 0.39770 -0.12300
H 	H 	0.34450 0.30540 0.38520 0.06500
C 	C 	0.32610 0.24430 0.39040 0.05500
H 	H 	0.34720 0.23300 0.37270 0.01000
C 	C 	0.29675 0.21800 0.40930 -0.15800
H 	H 	0.29800 0.18840 0.40520 0.07900
C 	C 	0.26604 0.23540 0.43399 0.14400
N 	N 	0.20500 0.22275 0.46869 -0.10300
C 	C 	0.17959 0.19431 0.48991 0.15400
C 	C 	0.15150 0.14175 0.52161 -0.00000
H 	H 	0.14720 0.11440 0.53270 0.01800
C 	C 	0.12363 0.17438 0.52484 0.00300
H 	H 	0.09700 0.17400 0.53830 0.03300
H 	H 	0.14740 0.27030 0.50400 0.03700
N 	N 	0.23778 0.79408 0.04625 -0.14100
N 	N 	0.18634 0.84562 0.99984 -0.24400
N 	N 	0.14208 0.79241 0.99537 -0.11000
C 	C 	0.26382 0.72173 0.05860 -0.15300
H 	H 	0.24240 0.71050 0.04110 0.08700
C 	C 	0.29330 0.69550 0.07710 0.05100
H 	H 	0.29210 0.66600 0.07260 0.00500
C 	C 	0.32420 0.71250 0.10230 -0.12200
H 	H 	0.34450 0.69460 0.11480 0.06400
C 	C 	0.32610 0.75570 0.10960 0.05400
H 	H 	0.34720 0.76700 0.12730 0.01000
C 	C 	0.29675 0.78200 0.09070 -0.15700
H 	H 	0.29800 0.81160 0.09480 0.07800
C 	C 	0.26604 0.76460 0.06601 0.14200
N 	N 	0.20500 0.77725 0.03131 -0.10200
C 	C 	0.17959 0.80569 0.01009 0.13400
C 	C 	0.15150 0.85825 0.97839 0.00200
H 	H 	0.14720 0.88560 0.96730 0.02000
C 	C 	0.12363 0.82562 0.97516 0.00200
H 	H 	0.09700 0.82600 0.96170 0.03600
H 	H 	0.14740 0.72970 0.99600 0.05900
N 	N 	0.73778 0.29408 0.54625 -0.14000
N 	N 	0.68634 0.34562 0.49984 -0.25400
N 	N 	0.64208 0.29241 0.49537 -0.12800
C 	C 	0.76382 0.22173 0.55860 -0.15400
H 	H 	0.74240 0.21050 0.54110 0.09000
C 	C 	0.79330 0.19550 0.57710 0.05300
H 	H 	0.79210 0.16600 0.57260 0.00600
C 	C 	0.82420 0.21250 0.60230 -0.12300
H 	H 	0.84450 0.19460 0.61480 0.06500
C 	C 	0.82610 0.25570 0.60960 0.05500
H 	H 	0.84720 0.26700 0.62730 0.01000
C 	C 	0.79675 0.28200 0.59070 -0.15800
H 	H 	0.79800 0.31160 0.59480 0.07900
C 	C 	0.76604 0.26460 0.56601 0.14400
N 	N 	0.70500 0.27725 0.53131 -0.10300
C 	C 	0.67959 0.30569 0.51009 0.15400
C 	C 	0.65150 0.35825 0.47839 -0.00000
H 	H 	0.64720 0.38560 0.46730 0.01900
C 	C 	0.62363 0.32562 0.47516 0.00300
H 	H 	0.59700 0.32600 0.46170 0.03500
H 	H 	0.64740 0.22970 0.49600 0.03700
N 	N 	0.76222 0.29408 0.45375 -0.14000
N 	N 	0.81366 0.34562 0.50016 -0.25400
N 	N 	0.85792 0.29241 0.50463 -0.12700
C 	C 	0.73618 0.22173 0.44140 -0.15400
H 	H 	0.75760 0.21050 0.45890 0.09000
C 	C 	0.70670 0.19550 0.42290 0.05300
H 	H 	0.70790 0.16600 0.42740 0.00600
C 	C 	0.67580 0.21250 0.39770 -0.12300
H 	H 	0.65550 0.19460 0.38520 0.06500
C 	C 	0.67390 0.25570 0.39040 0.05500
H 	H 	0.65280 0.26700 0.37270 0.01000
C 	C 	0.70325 0.28200 0.40930 -0.15800
H 	H 	0.70200 0.31160 0.40520 0.07900
C 	C 	0.73396 0.26460 0.43399 0.14400
N 	N 	0.79500 0.27725 0.46869 -0.10300
C 	C 	0.82041 0.30569 0.48991 0.15400
C 	C 	0.84850 0.35825 0.52161 0.00000
H 	H 	0.85280 0.38560 0.53270 0.01900
C 	C 	0.87637 0.32562 0.52484 0.00300
H 	H 	0.90300 0.32600 0.53830 0.03600
H 	H 	0.85260 0.22970 0.50400 0.03700
N 	N 	0.26222 0.79408 0.95375 -0.13800
N 	N 	0.31366 0.84562 0.00016 -0.26200
N 	N 	0.35792 0.79241 0.00463 -0.14500
C 	C 	0.23618 0.72173 0.94140 -0.15500
H 	H 	0.25760 0.71050 0.95890 0.09300
C 	C 	0.20670 0.69550 0.92290 0.05400
H 	H 	0.20790 0.66600 0.92740 0.00600
C 	C 	0.17580 0.71250 0.89770 -0.12400
H 	H 	0.15550 0.69460 0.88520 0.06500
C 	C 	0.17390 0.75570 0.89040 0.05600
H 	H 	0.15280 0.76700 0.87270 0.00900
C 	C 	0.20325 0.78200 0.90930 -0.15900
H 	H 	0.20200 0.81160 0.90520 0.08000
C 	C 	0.23396 0.76460 0.93399 0.14700
N 	N 	0.29500 0.77725 0.96869 -0.10400
C 	C 	0.32041 0.80569 0.98991 0.17300
C 	C 	0.34850 0.85825 0.02161 -0.00400
H 	H 	0.35280 0.88560 0.03270 0.01800
C 	C 	0.37637 0.82562 0.02484 0.00500
H 	H 	0.40300 0.82600 0.03830 0.03200
H 	H 	0.35260 0.72970 0.00400 0.01400
N 	N 	0.26222 0.20592 0.54625 -0.14000
N 	N 	0.31366 0.15438 0.49984 -0.25400
N 	N 	0.35792 0.20759 0.49537 -0.12800
C 	C 	0.23618 0.27827 0.55860 -0.15400
H 	H 	0.25760 0.28950 0.54110 0.09000
C 	C 	0.20670 0.30450 0.57710 0.05300
H 	H 	0.20790 0.33400 0.57260 0.00600
C 	C 	0.17580 0.28750 0.60230 -0.12300
H 	H 	0.15550 0.30540 0.61480 0.06500
C 	C 	0.17390 0.24430 0.60960 0.05500
H 	H 	0.15280 0.23300 0.62730 0.01000
C 	C 	0.20325 0.21800 0.59070 -0.15800
H 	H 	0.20200 0.18840 0.59480 0.07900
C 	C 	0.23396 0.23540 0.56601 0.14400
N 	N 	0.29500 0.22275 0.53131 -0.10300
C 	C 	0.32041 0.19431 0.51009 0.15400
C 	C 	0.34850 0.14175 0.47839 -0.00000
H 	H 	0.35280 0.11440 0.46730 0.01800
C 	C 	0.37637 0.17438 0.47516 0.00300
H 	H 	0.40300 0.17400 0.46170 0.03400
H 	H 	0.35260 0.27030 0.49600 0.03700
N 	N 	0.76222 0.70592 0.04625 -0.14100
N 	N 	0.81366 0.65438 0.99984 -0.24400
N 	N 	0.85792 0.70759 0.99537 -0.11000
C 	C 	0.73618 0.77827 0.05860 -0.15300
H 	H 	0.75760 0.78950 0.04110 0.08700
C 	C 	0.70670 0.80450 0.07710 0.05200
H 	H 	0.70790 0.83400 0.07260 0.00500
C 	C 	0.67580 0.78750 0.10230 -0.12200
H 	H 	0.65550 0.80540 0.11480 0.06500
C 	C 	0.67390 0.74430 0.10960 0.05400
H 	H 	0.65280 0.73300 0.12730 0.01000
C 	C 	0.70325 0.71800 0.09070 -0.15700
H 	H 	0.70200 0.68840 0.09480 0.07800
C 	C 	0.73396 0.73540 0.06601 0.14200
N 	N 	0.79500 0.72275 0.03131 -0.10200
C 	C 	0.82041 0.69431 0.01009 0.13400
C 	C 	0.84850 0.64175 0.97839 0.00300
H 	H 	0.85280 0.61440 0.96730 0.02000
C 	C 	0.87637 0.67438 0.97516 0.00100
H 	H 	0.90300 0.67400 0.96170 0.03800
H 	H 	0.85260 0.77030 0.99600 0.05900
N 	N 	0.95375 0.73778 0.70592 -0.13800
N 	N 	0.00016 0.68634 0.65438 -0.26200
N 	N 	0.00463 0.64208 0.70759 -0.14500
C 	C 	0.94140 0.76382 0.77827 -0.15500
H 	H 	0.95890 0.74240 0.78950 0.09300
C 	C 	0.92290 0.79330 0.80450 0.05400
H 	H 	0.92740 0.79210 0.83400 0.00600
C 	C 	0.89770 0.82420 0.78750 -0.12400
H 	H 	0.88520 0.84450 0.80540 0.06600
C 	C 	0.89040 0.82610 0.74430 0.05600
H 	H 	0.87270 0.84720 0.73300 0.01000
C 	C 	0.90930 0.79675 0.71800 -0.15900
H 	H 	0.90520 0.79800 0.68840 0.08000
C 	C 	0.93399 0.76604 0.73540 0.14700
N 	N 	0.96869 0.70500 0.72275 -0.10400
C 	C 	0.98991 0.67959 0.69431 0.17300
C 	C 	0.02161 0.65150 0.64175 -0.00300
H 	H 	0.03270 0.64720 0.61440 0.01800
C 	C 	0.02484 0.62363 0.67438 0.00500
H 	H 	0.03830 0.59700 0.67400 0.03200
H 	H 	0.00400 0.64740 0.77030 0.01400
N 	N 	0.45375 0.23778 0.20592 -0.14000
N 	N 	0.50016 0.18634 0.15438 -0.25400
N 	N 	0.50463 0.14208 0.20759 -0.12800
C 	C 	0.44140 0.26382 0.27827 -0.15400
H 	H 	0.45890 0.24240 0.28950 0.09000
C 	C 	0.42290 0.29330 0.30450 0.05300
H 	H 	0.42740 0.29210 0.33400 0.00600
C 	C 	0.39770 0.32420 0.28750 -0.12300
H 	H 	0.38520 0.34450 0.30540 0.06500
C 	C 	0.39040 0.32610 0.24430 0.05500
H 	H 	0.37270 0.34720 0.23300 0.01000
C 	C 	0.40930 0.29675 0.21800 -0.15800
H 	H 	0.40520 0.29800 0.18840 0.07900
C 	C 	0.43399 0.26604 0.23540 0.14400
N 	N 	0.46869 0.20500 0.22275 -0.10300
C 	C 	0.48991 0.17959 0.19431 0.15400
C 	C 	0.52161 0.15150 0.14175 -0.00000
H 	H 	0.53270 0.14720 0.11440 0.01800
C 	C 	0.52484 0.12363 0.17438 0.00300
H 	H 	0.53830 0.09700 0.17400 0.03300
H 	H 	0.50400 0.14740 0.27030 0.03700
N 	N 	0.04625 0.23778 0.79408 -0.14100
N 	N 	0.99984 0.18634 0.84562 -0.24400
N 	N 	0.99537 0.14208 0.79241 -0.11000
C 	C 	0.05860 0.26382 0.72173 -0.15300
H 	H 	0.04110 0.24240 0.71050 0.08700
C 	C 	0.07710 0.29330 0.69550 0.05100
H 	H 	0.07260 0.29210 0.66600 0.00500
C 	C 	0.10230 0.32420 0.71250 -0.12200
H 	H 	0.11480 0.34450 0.69460 0.06400
C 	C 	0.10960 0.32610 0.75570 0.05400
H 	H 	0.12730 0.34720 0.76700 0.01000
C 	C 	0.09070 0.29675 0.78200 -0.15700
H 	H 	0.09480 0.29800 0.81160 0.07800
C 	C 	0.06601 0.26604 0.76460 0.14200
N 	N 	0.03131 0.20500 0.77725 -0.10200
C 	C 	0.01009 0.17959 0.80569 0.13400
C 	C 	0.97839 0.15150 0.85825 0.00200
H 	H 	0.96730 0.14720 0.88560 0.02000
C 	C 	0.97516 0.12363 0.82562 0.00200
H 	H 	0.96170 0.09700 0.82600 0.03600
H 	H 	0.99600 0.14740 0.72970 0.05900
N 	N 	0.54625 0.73778 0.29408 -0.14000
N 	N 	0.49984 0.68634 0.34562 -0.25400
N 	N 	0.49537 0.64208 0.29241 -0.12800
C 	C 	0.55860 0.76382 0.22173 -0.15400
H 	H 	0.54110 0.74240 0.21050 0.09000
C 	C 	0.57710 0.79330 0.19550 0.05300
H 	H 	0.57260 0.79210 0.16600 0.00600
C 	C 	0.60230 0.82420 0.21250 -0.12300
H 	H 	0.61480 0.84450 0.19460 0.06500
C 	C 	0.60960 0.82610 0.25570 0.05500
H 	H 	0.62730 0.84720 0.26700 0.01000
C 	C 	0.59070 0.79675 0.28200 -0.15800
H 	H 	0.59480 0.79800 0.31160 0.07900
C 	C 	0.56601 0.76604 0.26460 0.14400
N 	N 	0.53131 0.70500 0.27725 -0.10300
C 	C 	0.51009 0.67959 0.30569 0.15400
C 	C 	0.47839 0.65150 0.35825 -0.00000
H 	H 	0.46730 0.64720 0.38560 0.01900
C 	C 	0.47516 0.62363 0.32562 0.00300
H 	H 	0.46170 0.59700 0.32600 0.03500
H 	H 	0.49600 0.64740 0.22970 0.03700
N 	N 	0.45375 0.76222 0.29408 -0.14000
N 	N 	0.50016 0.81366 0.34562 -0.25400
N 	N 	0.50463 0.85792 0.29241 -0.12700
C 	C 	0.44140 0.73618 0.22173 -0.15400
H 	H 	0.45890 0.75760 0.21050 0.09000
C 	C 	0.42290 0.70670 0.19550 0.05300
H 	H 	0.42740 0.70790 0.16600 0.00600
C 	C 	0.39770 0.67580 0.21250 -0.12300
H 	H 	0.38520 0.65550 0.19460 0.06500
C 	C 	0.39040 0.67390 0.25570 0.05500
H 	H 	0.37270 0.65280 0.26700 0.01000
C 	C 	0.40930 0.70325 0.28200 -0.15800
H 	H 	0.40520 0.70200 0.31160 0.07900
C 	C 	0.43399 0.73396 0.26460 0.14400
N 	N 	0.46869 0.79500 0.27725 -0.10300
C 	C 	0.48991 0.82041 0.30569 0.15400
C 	C 	0.52161 0.84850 0.35825 0.00000
H 	H 	0.53270 0.85280 0.38560 0.01900
C 	C 	0.52484 0.87637 0.32562 0.00300
H 	H 	0.53830 0.90300 0.32600 0.03600
H 	H 	0.50400 0.85260 0.22970 0.03700
N 	N 	0.95375 0.26222 0.79408 -0.13800
N 	N 	0.00016 0.31366 0.84562 -0.26200
N 	N 	0.00463 0.35792 0.79241 -0.14500
C 	C 	0.94140 0.23618 0.72173 -0.15500
H 	H 	0.95890 0.25760 0.71050 0.09300
C 	C 	0.92290 0.20670 0.69550 0.05400
H 	H 	0.92740 0.20790 0.66600 0.00600
C 	C 	0.89770 0.17580 0.71250 -0.12400
H 	H 	0.88520 0.15550 0.69460 0.06500
C 	C 	0.89040 0.17390 0.75570 0.05600
H 	H 	0.87270 0.15280 0.76700 0.00900
C 	C 	0.90930 0.20325 0.78200 -0.15900
H 	H 	0.90520 0.20200 0.81160 0.08000
C 	C 	0.93399 0.23396 0.76460 0.14700
N 	N 	0.96869 0.29500 0.77725 -0.10400
C 	C 	0.98991 0.32041 0.80569 0.17300
C 	C 	0.02161 0.34850 0.85825 -0.00400
H 	H 	0.03270 0.35280 0.88560 0.01800
C 	C 	0.02484 0.37637 0.82562 0.00500
H 	H 	0.03830 0.40300 0.82600 0.03200
H 	H 	0.00400 0.35260 0.72970 0.01400
N 	N 	0.54625 0.26222 0.20592 -0.14000
N 	N 	0.49984 0.31366 0.15438 -0.25400
N 	N 	0.49537 0.35792 0.20759 -0.12800
C 	C 	0.55860 0.23618 0.27827 -0.15400
H 	H 	0.54110 0.25760 0.28950 0.09000
C 	C 	0.57710 0.20670 0.30450 0.05300
H 	H 	0.57260 0.20790 0.33400 0.00600
C 	C 	0.60230 0.17580 0.28750 -0.12300
H 	H 	0.61480 0.15550 0.30540 0.06500
C 	C 	0.60960 0.17390 0.24430 0.05500
H 	H 	0.62730 0.15280 0.23300 0.01000
C 	C 	0.59070 0.20325 0.21800 -0.15800
H 	H 	0.59480 0.20200 0.18840 0.07900
C 	C 	0.56601 0.23396 0.23540 0.14400
N 	N 	0.53131 0.29500 0.22275 -0.10300
C 	C 	0.51009 0.32041 0.19431 0.15400
C 	C 	0.47839 0.34850 0.14175 -0.00000
H 	H 	0.46730 0.35280 0.11440 0.01800
C 	C 	0.47516 0.37637 0.17438 0.00300
H 	H 	0.46170 0.40300 0.17400 0.03400
H 	H 	0.49600 0.35260 0.27030 0.03700
N 	N 	0.04625 0.76222 0.70592 -0.14100
N 	N 	0.99984 0.81366 0.65438 -0.24400
N 	N 	0.99537 0.85792 0.70759 -0.11000
C 	C 	0.05860 0.73618 0.77827 -0.15300
H 	H 	0.04110 0.75760 0.78950 0.08700
C 	C 	0.07710 0.70670 0.80450 0.05200
H 	H 	0.07260 0.70790 0.83400 0.00500
C 	C 	0.10230 0.67580 0.78750 -0.12200
H 	H 	0.11480 0.65550 0.80540 0.06500
C 	C 	0.10960 0.67390 0.74430 0.05400
H 	H 	0.12730 0.65280 0.73300 0.01000
C 	C 	0.09070 0.70325 0.71800 -0.15700
H 	H 	0.09480 0.70200 0.68840 0.07800
C 	C 	0.06601 0.73396 0.73540 0.14200
N 	N 	0.03131 0.79500 0.72275 -0.10200
C 	C 	0.01009 0.82041 0.69431 0.13400
C 	C 	0.97839 0.84850 0.64175 0.00300
H 	H 	0.96730 0.85280 0.61440 0.02000
C 	C 	0.97516 0.87637 0.67438 0.00100
H 	H 	0.96170 0.90300 0.67400 0.03800
H 	H 	0.99600 0.85260 0.77030 0.05900
N 	N 	0.70375 0.95592 0.51222 -0.14400
N 	N 	0.75016 0.90438 0.56366 -0.25400
N 	N 	0.75463 0.95759 0.60792 -0.13400
C 	C 	0.69140 0.02827 0.48618 -0.19700
H 	H 	0.70890 0.03950 0.50760 0.10200
C 	C 	0.67290 0.05450 0.45670 0.09100
H 	H 	0.67740 0.08400 0.45790 -0.00700
C 	C 	0.64770 0.03750 0.42580 -0.17000
H 	H 	0.63520 0.05540 0.40550 0.07900
C 	C 	0.64040 0.99430 0.42390 0.10200
H 	H 	0.62270 0.98300 0.40280 -0.00300
C 	C 	0.65930 0.96800 0.45325 -0.19000
H 	H 	0.65520 0.93840 0.45200 0.09000
C 	C 	0.68399 0.98540 0.48396 0.17800
N 	N 	0.71869 0.97275 0.54500 -0.10100
C 	C 	0.73991 0.94431 0.57041 0.15600
C 	C 	0.77161 0.89175 0.59850 -0.00200
H 	H 	0.78270 0.86440 0.60280 0.01900
C 	C 	0.77484 0.92438 0.62637 0.00700
H 	H 	0.78830 0.92400 0.65300 0.03400
H 	H 	0.75400 0.02030 0.60260 0.01600
N 	N 	0.20375 0.45592 0.01222 -0.14500
N 	N 	0.25016 0.40438 0.06366 -0.25500
N 	N 	0.25463 0.45759 0.10792 -0.12700
C 	C 	0.19140 0.52827 0.98618 -0.12700
H 	H 	0.20890 0.53950 0.00760 0.07400
C 	C 	0.17290 0.55450 0.95670 0.03700
H 	H 	0.17740 0.58400 0.95790 0.01300
C 	C 	0.14770 0.53750 0.92580 -0.11200
H 	H 	0.13520 0.55540 0.90550 0.06100
C 	C 	0.14040 0.49430 0.92390 0.04800
H 	H 	0.12270 0.48300 0.90280 0.01200
C 	C 	0.15930 0.46800 0.95325 -0.15200
H 	H 	0.15520 0.43840 0.95200 0.07900
C 	C 	0.18399 0.48540 0.98396 0.14300
N 	N 	0.21869 0.47275 0.04500 -0.10400
C 	C 	0.23991 0.44431 0.07041 0.15300
C 	C 	0.27161 0.39175 0.09850 -0.00100
H 	H 	0.28270 0.36440 0.10280 0.01800
C 	C 	0.27484 0.42438 0.12637 0.00300
H 	H 	0.28830 0.42400 0.15300 0.03400
H 	H 	0.25400 0.52030 0.10260 0.03700
N 	N 	0.79625 0.04408 0.01222 -0.14000
N 	N 	0.74984 0.09562 0.06366 -0.25400
N 	N 	0.74537 0.04241 0.10792 -0.12100
C 	C 	0.80860 0.97173 0.98618 -0.08500
H 	H 	0.79110 0.96050 0.00760 0.06200
C 	C 	0.82710 0.94550 0.95670 0.00000
H 	H 	0.82260 0.91600 0.95790 0.02600
C 	C 	0.85230 0.96250 0.92580 -0.06500
H 	H 	0.86480 0.94460 0.90550 0.04800
C 	C 	0.85960 0.00570 0.92390 0.00200
H 	H 	0.87730 0.01700 0.90280 0.02600
C 	C 	0.84070 0.03200 0.95325 -0.12000
H 	H 	0.84480 0.06160 0.95200 0.06900
C 	C 	0.81601 0.01460 0.98396 0.11000
N 	N 	0.78131 0.02725 0.04500 -0.10700
C 	C 	0.76009 0.05569 0.07041 0.15000
C 	C 	0.72839 0.10825 0.09850 0.00100
H 	H 	0.71730 0.13560 0.10280 0.01800
C 	C 	0.72516 0.07562 0.12637 -0.00100
H 	H 	0.71170 0.07600 0.15300 0.03500
H 	H 	0.74600 0.97970 0.10260 0.05700
N 	N 	0.29625 0.54408 0.51222 -0.14000
N 	N 	0.24984 0.59562 0.56366 -0.25400
N 	N 	0.24537 0.54241 0.60792 -0.12800
C 	C 	0.30860 0.47173 0.48618 -0.15400
H 	H 	0.29110 0.46050 0.50760 0.09000
C 	C 	0.32710 0.44550 0.45670 0.05300
H 	H 	0.32260 0.41600 0.45790 0.00600
C 	C 	0.35230 0.46250 0.42580 -0.12300
H 	H 	0.36480 0.44460 0.40550 0.06500
C 	C 	0.35960 0.50570 0.42390 0.05500
H 	H 	0.37730 0.51700 0.40280 0.01000
C 	C 	0.34070 0.53200 0.45325 -0.15800
H 	H 	0.34480 0.56160 0.45200 0.07900
C 	C 	0.31601 0.51460 0.48396 0.14400
N 	N 	0.28131 0.52725 0.54500 -0.10300
C 	C 	0.26009 0.55569 0.57041 0.15400
C 	C 	0.22839 0.60825 0.59850 -0.00000
H 	H 	0.21730 0.63560 0.60280 0.01900
C 	C 	0.22516 0.57562 0.62637 0.00300
H 	H 	0.21170 0.57600 0.65300 0.03400
H 	H 	0.24600 0.47970 0.60260 0.03700
N 	N 	0.20375 0.54408 0.48778 -0.14000
N 	N 	0.25016 0.59562 0.43634 -0.25400
N 	N 	0.25463 0.54241 0.39208 -0.12800
C 	C 	0.19140 0.47173 0.51382 -0.15400
H 	H 	0.20890 0.46050 0.49240 0.09000
C 	C 	0.17290 0.44550 0.54330 0.05300
H 	H 	0.17740 0.41600 0.54210 0.00600
C 	C 	0.14770 0.46250 0.57420 -0.12300
H 	H 	0.13520 0.44460 0.59450 0.06500
C 	C 	0.14040 0.50570 0.57610 0.05500
H 	H 	0.12270 0.51700 0.59720 0.00900
C 	C 	0.15930 0.53200 0.54675 -0.15800
H 	H 	0.15520 0.56160 0.54800 0.07900
C 	C 	0.18399 0.51460 0.51604 0.14400
N 	N 	0.21869 0.52725 0.45500 -0.10300
C 	C 	0.23991 0.55569 0.42959 0.15400
C 	C 	0.27161 0.60825 0.40150 -0.00000
H 	H 	0.28270 0.63560 0.39720 0.01900
C 	C 	0.27484 0.57562 0.37363 0.00300
H 	H 	0.28830 0.57600 0.34700 0.03500
H 	H 	0.25400 0.47970 0.39740 0.03700
N 	N 	0.70375 0.04408 0.98778 -0.13000
N 	N 	0.75016 0.09562 0.93634 -0.25200
N 	N 	0.75463 0.04241 0.89208 -0.12100
C 	C 	0.69140 0.97173 0.01382 -0.13800
H 	H 	0.70890 0.96050 0.99240 0.09500
C 	C 	0.67290 0.94550 0.04330 0.03100
H 	H 	0.67740 0.91600 0.04210 0.01100
C 	C 	0.64770 0.96250 0.07420 -0.08700
H 	H 	0.63520 0.94460 0.09450 0.05400
C 	C 	0.64040 0.00570 0.07610 0.01500
H 	H 	0.62270 0.01700 0.09720 0.01900
C 	C 	0.65930 0.03200 0.04675 -0.13100
H 	H 	0.65520 0.06160 0.04800 0.06700
C 	C 	0.68399 0.01460 0.01604 0.11300
N 	N 	0.71869 0.02725 0.95500 -0.10500
C 	C 	0.73991 0.05569 0.92959 0.15200
C 	C 	0.77161 0.10825 0.90150 0.00200
H 	H 	0.78270 0.13560 0.89720 0.01800
C 	C 	0.77484 0.07562 0.87363 -0.00100
H 	H 	0.78830 0.07600 0.84700 0.03500
H 	H 	0.75400 0.97970 0.89740 0.05800
N 	N 	0.29625 0.45592 0.98778 -0.13400
N 	N 	0.24984 0.40438 0.93634 -0.25200
N 	N 	0.24537 0.45759 0.89208 -0.12800
C 	C 	0.30860 0.52827 0.01382 -0.18100
H 	H 	0.29110 0.53950 0.99240 0.10700
C 	C 	0.32710 0.55450 0.04330 0.06800
H 	H 	0.32260 0.58400 0.04210 -0.00200
C 	C 	0.35230 0.53750 0.07420 -0.13400
H 	H 	0.36480 0.55540 0.09450 0.06800
C 	C 	0.35960 0.49430 0.07610 0.06200
H 	H 	0.37730 0.48300 0.09720 0.00700
C 	C 	0.34070 0.46800 0.04675 -0.16400
H 	H 	0.34480 0.43840 0.04800 0.07800
C 	C 	0.31601 0.48540 0.01604 0.14600
N 	N 	0.28131 0.47275 0.95500 -0.10200
C 	C 	0.26009 0.44431 0.92959 0.15500
C 	C 	0.22839 0.39175 0.90150 0.00000
H 	H 	0.21730 0.36440 0.89720 0.01900
C 	C 	0.22516 0.42438 0.87363 0.00300
H 	H 	0.21170 0.42400 0.84700 0.03500
H 	H 	0.24600 0.52030 0.89740 0.03700
N 	N 	0.79625 0.95592 0.48778 -0.14400
N 	N 	0.74984 0.90438 0.43634 -0.25400
N 	N 	0.74537 0.95759 0.39208 -0.13400
C 	C 	0.80860 0.02827 0.51382 -0.19600
H 	H 	0.79110 0.03950 0.49240 0.10200
C 	C 	0.82710 0.05450 0.54330 0.09100
H 	H 	0.82260 0.08400 0.54210 -0.00700
C 	C 	0.85230 0.03750 0.57420 -0.17000
H 	H 	0.86480 0.05540 0.59450 0.08000
C 	C 	0.85960 0.99430 0.57610 0.10200
H 	H 	0.87730 0.98300 0.59720 -0.00200
C 	C 	0.84070 0.96800 0.54675 -0.19000
H 	H 	0.84480 0.93840 0.54800 0.09000
C 	C 	0.81601 0.98540 0.51604 0.17800
N 	N 	0.78131 0.97275 0.45500 -0.10100
C 	C 	0.76009 0.94431 0.42959 0.15600
C 	C 	0.72839 0.89175 0.40150 -0.00200
H 	H 	0.71730 0.86440 0.39720 0.01900
C 	C 	0.72516 0.92438 0.37363 0.00700
H 	H 	0.71170 0.92400 0.34700 0.03400
H 	H 	0.74600 0.02030 0.39740 0.01600
N 	N 	0.45592 0.98778 0.29625 -0.13400
N 	N 	0.40438 0.93634 0.24984 -0.25200
N 	N 	0.45759 0.89208 0.24537 -0.12800
C 	C 	0.52827 0.01382 0.30860 -0.18100
H 	H 	0.53950 0.99240 0.29110 0.10700
C 	C 	0.55450 0.04330 0.32710 0.06800
H 	H 	0.58400 0.04210 0.32260 -0.00200
C 	C 	0.53750 0.07420 0.35230 -0.13400
H 	H 	0.55540 0.09450 0.36480 0.06800
C 	C 	0.49430 0.07610 0.35960 0.06200
H 	H 	0.48300 0.09720 0.37730 0.00700
C 	C 	0.46800 0.04675 0.34070 -0.16400
H 	H 	0.43840 0.04800 0.34480 0.07800
C 	C 	0.48540 0.01604 0.31601 0.14600
N 	N 	0.47275 0.95500 0.28131 -0.10200
C 	C 	0.44431 0.92959 0.26009 0.15500
C 	C 	0.39175 0.90150 0.22839 0.00000
H 	H 	0.36440 0.89720 0.21730 0.01900
C 	C 	0.42438 0.87363 0.22516 0.00300
H 	H 	0.42400 0.84700 0.21170 0.03500
H 	H 	0.52030 0.89740 0.24600 0.03700
N 	N 	0.95592 0.48778 0.79625 -0.14400
N 	N 	0.90438 0.43634 0.74984 -0.25400
N 	N 	0.95759 0.39208 0.74537 -0.13400
C 	C 	0.02827 0.51382 0.80860 -0.19600
H 	H 	0.03950 0.49240 0.79110 0.10200
C 	C 	0.05450 0.54330 0.82710 0.09100
H 	H 	0.08400 0.54210 0.82260 -0.00700
C 	C 	0.03750 0.57420 0.85230 -0.17000
H 	H 	0.05540 0.59450 0.86480 0.08000
C 	C 	0.99430 0.57610 0.85960 0.10200
H 	H 	0.98300 0.59720 0.87730 -0.00200
C 	C 	0.96800 0.54675 0.84070 -0.19000
H 	H 	0.93840 0.54800 0.84480 0.09000
C 	C 	0.98540 0.51604 0.81601 0.17800
N 	N 	0.97275 0.45500 0.78131 -0.10100
C 	C 	0.94431 0.42959 0.76009 0.15600
C 	C 	0.89175 0.40150 0.72839 -0.00200
H 	H 	0.86440 0.39720 0.71730 0.01900
C 	C 	0.92438 0.37363 0.72516 0.00700
H 	H 	0.92400 0.34700 0.71170 0.03400
H 	H 	0.02030 0.39740 0.74600 0.01600
N 	N 	0.54408 0.48778 0.20375 -0.14000
N 	N 	0.59562 0.43634 0.25016 -0.25400
N 	N 	0.54241 0.39208 0.25463 -0.12800
C 	C 	0.47173 0.51382 0.19140 -0.15400
H 	H 	0.46050 0.49240 0.20890 0.09000
C 	C 	0.44550 0.54330 0.17290 0.05300
H 	H 	0.41600 0.54210 0.17740 0.00600
C 	C 	0.46250 0.57420 0.14770 -0.12300
H 	H 	0.44460 0.59450 0.13520 0.06500
C 	C 	0.50570 0.57610 0.14040 0.05500
H 	H 	0.51700 0.59720 0.12270 0.00900
C 	C 	0.53200 0.54675 0.15930 -0.15800
H 	H 	0.56160 0.54800 0.15520 0.07900
C 	C 	0.51460 0.51604 0.18399 0.14400
N 	N 	0.52725 0.45500 0.21869 -0.10300
C 	C 	0.55569 0.42959 0.23991 0.15400
C 	C 	0.60825 0.40150 0.27161 -0.00000
H 	H 	0.63560 0.39720 0.28270 0.01900
C 	C 	0.57562 0.37363 0.27484 0.00300
H 	H 	0.57600 0.34700 0.28830 0.03500
H 	H 	0.47970 0.39740 0.25400 0.03700
N 	N 	0.04408 0.98778 0.70375 -0.13000
N 	N 	0.09562 0.93634 0.75016 -0.25200
N 	N 	0.04241 0.89208 0.75463 -0.12100
C 	C 	0.97173 0.01382 0.69140 -0.13800
H 	H 	0.96050 0.99240 0.70890 0.09500
C 	C 	0.94550 0.04330 0.67290 0.03100
H 	H 	0.91600 0.04210 0.67740 0.01100
C 	C 	0.96250 0.07420 0.64770 -0.08700
H 	H 	0.94460 0.09450 0.63520 0.05400
C 	C 	0.00570 0.07610 0.64040 0.01500
H 	H 	0.01700 0.09720 0.62270 0.01900
C 	C 	0.03200 0.04675 0.65930 -0.13100
H 	H 	0.06160 0.04800 0.65520 0.06700
C 	C 	0.01460 0.01604 0.68399 0.11300
N 	N 	0.02725 0.95500 0.71869 -0.10500
C 	C 	0.05569 0.92959 0.73991 0.15200
C 	C 	0.10825 0.90150 0.77161 0.00200
H 	H 	0.13560 0.89720 0.78270 0.01800
C 	C 	0.07562 0.87363 0.77484 -0.00100
H 	H 	0.07600 0.84700 0.78830 0.03500
H 	H 	0.97970 0.89740 0.75400 0.05800
N 	N 	0.04408 0.01222 0.79625 -0.14000
N 	N 	0.09562 0.06366 0.74984 -0.25400
N 	N 	0.04241 0.10792 0.74537 -0.12100
C 	C 	0.97173 0.98618 0.80860 -0.08500
H 	H 	0.96050 0.00760 0.79110 0.06200
C 	C 	0.94550 0.95670 0.82710 0.00000
H 	H 	0.91600 0.95790 0.82260 0.02600
C 	C 	0.96250 0.92580 0.85230 -0.06500
H 	H 	0.94460 0.90550 0.86480 0.04800
C 	C 	0.00570 0.92390 0.85960 0.00200
H 	H 	0.01700 0.90280 0.87730 0.02600
C 	C 	0.03200 0.95325 0.84070 -0.12000
H 	H 	0.06160 0.95200 0.84480 0.06900
C 	C 	0.01460 0.98396 0.81601 0.11000
N 	N 	0.02725 0.04500 0.78131 -0.10700
C 	C 	0.05569 0.07041 0.76009 0.15000
C 	C 	0.10825 0.09850 0.72839 0.00100
H 	H 	0.13560 0.10280 0.71730 0.01800
C 	C 	0.07562 0.12637 0.72516 -0.00100
H 	H 	0.07600 0.15300 0.71170 0.03500
H 	H 	0.97970 0.10260 0.74600 0.05700
N 	N 	0.54408 0.51222 0.29625 -0.14000
N 	N 	0.59562 0.56366 0.24984 -0.25400
N 	N 	0.54241 0.60792 0.24537 -0.12800
C 	C 	0.47173 0.48618 0.30860 -0.15400
H 	H 	0.46050 0.50760 0.29110 0.09000
C 	C 	0.44550 0.45670 0.32710 0.05300
H 	H 	0.41600 0.45790 0.32260 0.00600
C 	C 	0.46250 0.42580 0.35230 -0.12300
H 	H 	0.44460 0.40550 0.36480 0.06500
C 	C 	0.50570 0.42390 0.35960 0.05500
H 	H 	0.51700 0.40280 0.37730 0.01000
C 	C 	0.53200 0.45325 0.34070 -0.15800
H 	H 	0.56160 0.45200 0.34480 0.07900
C 	C 	0.51460 0.48396 0.31601 0.14400
N 	N 	0.52725 0.54500 0.28131 -0.10300
C 	C 	0.55569 0.57041 0.26009 0.15400
C 	C 	0.60825 0.59850 0.22839 -0.00000
H 	H 	0.63560 0.60280 0.21730 0.01900
C 	C 	0.57562 0.62637 0.22516 0.00300
H 	H 	0.57600 0.65300 0.21170 0.03400
H 	H 	0.47970 0.60260 0.24600 0.03700
N 	N 	0.95592 0.51222 0.70375 -0.14400
N 	N 	0.90438 0.56366 0.75016 -0.25400
N 	N 	0.95759 0.60792 0.75463 -0.13400
C 	C 	0.02827 0.48618 0.69140 -0.19700
H 	H 	0.03950 0.50760 0.70890 0.10200
C 	C 	0.05450 0.45670 0.67290 0.09100
H 	H 	0.08400 0.45790 0.67740 -0.00700
C 	C 	0.03750 0.42580 0.64770 -0.17000
H 	H 	0.05540 0.40550 0.63520 0.07900
C 	C 	0.99430 0.42390 0.64040 0.10200
H 	H 	0.98300 0.40280 0.62270 -0.00300
C 	C 	0.96800 0.45325 0.65930 -0.19000
H 	H 	0.93840 0.45200 0.65520 0.09000
C 	C 	0.98540 0.48396 0.68399 0.17800
N 	N 	0.97275 0.54500 0.71869 -0.10100
C 	C 	0.94431 0.57041 0.73991 0.15600
C 	C 	0.89175 0.59850 0.77161 -0.00200
H 	H 	0.86440 0.60280 0.78270 0.01900
C 	C 	0.92438 0.62637 0.77484 0.00700
H 	H 	0.92400 0.65300 0.78830 0.03400
H 	H 	0.02030 0.60260 0.75400 0.01600
N 	N 	0.45592 0.01222 0.20375 -0.14500
N 	N 	0.40438 0.06366 0.25016 -0.25500
N 	N 	0.45759 0.10792 0.25463 -0.12700
C 	C 	0.52827 0.98618 0.19140 -0.12700
H 	H 	0.53950 0.00760 0.20890 0.07400
C 	C 	0.55450 0.95670 0.17290 0.03700
H 	H 	0.58400 0.95790 0.17740 0.01300
C 	C 	0.53750 0.92580 0.14770 -0.11200
H 	H 	0.55540 0.90550 0.13520 0.06100
C 	C 	0.49430 0.92390 0.14040 0.04800
H 	H 	0.48300 0.90280 0.12270 0.01200
C 	C 	0.46800 0.95325 0.15930 -0.15200
H 	H 	0.43840 0.95200 0.15520 0.07900
C 	C 	0.48540 0.98396 0.18399 0.14300
N 	N 	0.47275 0.04500 0.21869 -0.10400
C 	C 	0.44431 0.07041 0.23991 0.15300
C 	C 	0.39175 0.09850 0.27161 -0.00100
H 	H 	0.36440 0.10280 0.28270 0.01800
C 	C 	0.42438 0.12637 0.27484 0.00300
H 	H 	0.42400 0.15300 0.28830 0.03400
H 	H 	0.52030 0.10260 0.25400 0.03700
N 	N 	0.48778 0.20375 0.54408 -0.14000
N 	N 	0.43634 0.25016 0.59562 -0.25400
N 	N 	0.39208 0.25463 0.54241 -0.12800
C 	C 	0.51382 0.19140 0.47173 -0.15400
H 	H 	0.49240 0.20890 0.46050 0.09000
C 	C 	0.54330 0.17290 0.44550 0.05300
H 	H 	0.54210 0.17740 0.41600 0.00600
C 	C 	0.57420 0.14770 0.46250 -0.12300
H 	H 	0.59450 0.13520 0.44460 0.06500
C 	C 	0.57610 0.14040 0.50570 0.05500
H 	H 	0.59720 0.12270 0.51700 0.00900
C 	C 	0.54675 0.15930 0.53200 -0.15800
H 	H 	0.54800 0.15520 0.56160 0.07900
C 	C 	0.51604 0.18399 0.51460 0.14400
N 	N 	0.45500 0.21869 0.52725 -0.10300
C 	C 	0.42959 0.23991 0.55569 0.15400
C 	C 	0.40150 0.27161 0.60825 -0.00000
H 	H 	0.39720 0.28270 0.63560 0.01900
C 	C 	0.37363 0.27484 0.57562 0.00300
H 	H 	0.34700 0.28830 0.57600 0.03500
H 	H 	0.39740 0.25400 0.47970 0.03700
N 	N 	0.98778 0.70375 0.04408 -0.13000
N 	N 	0.93634 0.75016 0.09562 -0.25200
N 	N 	0.89208 0.75463 0.04241 -0.12100
C 	C 	0.01382 0.69140 0.97173 -0.13800
H 	H 	0.99240 0.70890 0.96050 0.09500
C 	C 	0.04330 0.67290 0.94550 0.03100
H 	H 	0.04210 0.67740 0.91600 0.01100
C 	C 	0.07420 0.64770 0.96250 -0.08700
H 	H 	0.09450 0.63520 0.94460 0.05400
C 	C 	0.07610 0.64040 0.00570 0.01500
H 	H 	0.09720 0.62270 0.01700 0.01900
C 	C 	0.04675 0.65930 0.03200 -0.13100
H 	H 	0.04800 0.65520 0.06160 0.06700
C 	C 	0.01604 0.68399 0.01460 0.11300
N 	N 	0.95500 0.71869 0.02725 -0.10500
C 	C 	0.92959 0.73991 0.05569 0.15200
C 	C 	0.90150 0.77161 0.10825 0.00200
H 	H 	0.89720 0.78270 0.13560 0.01800
C 	C 	0.87363 0.77484 0.07562 -0.00100
H 	H 	0.84700 0.78830 0.07600 0.03500
H 	H 	0.89740 0.75400 0.97970 0.05800
N 	N 	0.98778 0.29625 0.45592 -0.13400
N 	N 	0.93634 0.24984 0.40438 -0.25200
N 	N 	0.89208 0.24537 0.45759 -0.12800
C 	C 	0.01382 0.30860 0.52827 -0.18100
H 	H 	0.99240 0.29110 0.53950 0.10700
C 	C 	0.04330 0.32710 0.55450 0.06800
H 	H 	0.04210 0.32260 0.58400 -0.00200
C 	C 	0.07420 0.35230 0.53750 -0.13400
H 	H 	0.09450 0.36480 0.55540 0.06800
C 	C 	0.07610 0.35960 0.49430 0.06200
H 	H 	0.09720 0.37730 0.48300 0.00700
C 	C 	0.04675 0.34070 0.46800 -0.16400
H 	H 	0.04800 0.34480 0.43840 0.07800
C 	C 	0.01604 0.31601 0.48540 0.14600
N 	N 	0.95500 0.28131 0.47275 -0.10200
C 	C 	0.92959 0.26009 0.44431 0.15500
C 	C 	0.90150 0.22839 0.39175 0.00000
H 	H 	0.89720 0.21730 0.36440 0.01900
C 	C 	0.87363 0.22516 0.42438 0.00300
H 	H 	0.84700 0.21170 0.42400 0.03500
H 	H 	0.89740 0.24600 0.52030 0.03700
N 	N 	0.48778 0.79625 0.95592 -0.14400
N 	N 	0.43634 0.74984 0.90438 -0.25400
N 	N 	0.39208 0.74537 0.95759 -0.13400
C 	C 	0.51382 0.80860 0.02827 -0.19600
H 	H 	0.49240 0.79110 0.03950 0.10200
C 	C 	0.54330 0.82710 0.05450 0.09100
H 	H 	0.54210 0.82260 0.08400 -0.00700
C 	C 	0.57420 0.85230 0.03750 -0.17000
H 	H 	0.59450 0.86480 0.05540 0.08000
C 	C 	0.57610 0.85960 0.99430 0.10200
H 	H 	0.59720 0.87730 0.98300 -0.00200
C 	C 	0.54675 0.84070 0.96800 -0.19000
H 	H 	0.54800 0.84480 0.93840 0.09000
C 	C 	0.51604 0.81601 0.98540 0.17800
N 	N 	0.45500 0.78131 0.97275 -0.10100
C 	C 	0.42959 0.76009 0.94431 0.15600
C 	C 	0.40150 0.72839 0.89175 -0.00200
H 	H 	0.39720 0.71730 0.86440 0.01900
C 	C 	0.37363 0.72516 0.92438 0.00700
H 	H 	0.34700 0.71170 0.92400 0.03400
H 	H 	0.39740 0.74600 0.02030 0.01600
N 	N 	0.51222 0.70375 0.95592 -0.14400
N 	N 	0.56366 0.75016 0.90438 -0.25400
N 	N 	0.60792 0.75463 0.95759 -0.13400
C 	C 	0.48618 0.69140 0.02827 -0.19700
H 	H 	0.50760 0.70890 0.03950 0.10200
C 	C 	0.45670 0.67290 0.05450 0.09100
H 	H 	0.45790 0.67740 0.08400 -0.00700
C 	C 	0.42580 0.64770 0.03750 -0.17000
H 	H 	0.40550 0.63520 0.05540 0.07900
C 	C 	0.42390 0.64040 0.99430 0.10200
H 	H 	0.40280 0.62270 0.98300 -0.00300
C 	C 	0.45325 0.65930 0.96800 -0.19000
H 	H 	0.45200 0.65520 0.93840 0.09000
C 	C 	0.48396 0.68399 0.98540 0.17800
N 	N 	0.54500 0.71869 0.97275 -0.10100
C 	C 	0.57041 0.73991 0.94431 0.15600
C 	C 	0.59850 0.77161 0.89175 -0.00200
H 	H 	0.60280 0.78270 0.86440 0.01900
C 	C 	0.62637 0.77484 0.92438 0.00700
H 	H 	0.65300 0.78830 0.92400 0.03400
H 	H 	0.60260 0.75400 0.02030 0.01600
N 	N 	0.01222 0.20375 0.45592 -0.14500
N 	N 	0.06366 0.25016 0.40438 -0.25500
N 	N 	0.10792 0.25463 0.45759 -0.12700
C 	C 	0.98618 0.19140 0.52827 -0.12700
H 	H 	0.00760 0.20890 0.53950 0.07400
C 	C 	0.95670 0.17290 0.55450 0.03700
H 	H 	0.95790 0.17740 0.58400 0.01300
C 	C 	0.92580 0.14770 0.53750 -0.11200
H 	H 	0.90550 0.13520 0.55540 0.06100
C 	C 	0.92390 0.14040 0.49430 0.04800
H 	H 	0.90280 0.12270 0.48300 0.01200
C 	C 	0.95325 0.15930 0.46800 -0.15200
H 	H 	0.95200 0.15520 0.43840 0.07900
C 	C 	0.98396 0.18399 0.48540 0.14300
N 	N 	0.04500 0.21869 0.47275 -0.10400
C 	C 	0.07041 0.23991 0.44431 0.15300
C 	C 	0.09850 0.27161 0.39175 -0.00100
H 	H 	0.10280 0.28270 0.36440 0.01800
C 	C 	0.12637 0.27484 0.42438 0.00300
H 	H 	0.15300 0.28830 0.42400 0.03400
H 	H 	0.10260 0.25400 0.52030 0.03700
N 	N 	0.01222 0.79625 0.04408 -0.14000
N 	N 	0.06366 0.74984 0.09562 -0.25400
N 	N 	0.10792 0.74537 0.04241 -0.12100
C 	C 	0.98618 0.80860 0.97173 -0.08500
H 	H 	0.00760 0.79110 0.96050 0.06200
C 	C 	0.95670 0.82710 0.94550 0.00000
H 	H 	0.95790 0.82260 0.91600 0.02600
C 	C 	0.92580 0.85230 0.96250 -0.06500
H 	H 	0.90550 0.86480 0.94460 0.04800
C 	C 	0.92390 0.85960 0.00570 0.00200
H 	H 	0.90280 0.87730 0.01700 0.02600
C 	C 	0.95325 0.84070 0.03200 -0.12000
H 	H 	0.95200 0.84480 0.06160 0.06900
C 	C 	0.98396 0.81601 0.01460 0.11000
N 	N 	0.04500 0.78131 0.02725 -0.10700
C 	C 	0.07041 0.76009 0.05569 0.15000
C 	C 	0.09850 0.72839 0.10825 0.00100
H 	H 	0.10280 0.71730 0.13560 0.01800
C 	C 	0.12637 0.72516 0.07562 -0.00100
H 	H 	0.15300 0.71170 0.07600 0.03500
H 	H 	0.10260 0.74600 0.97970 0.05700
N 	N 	0.51222 0.29625 0.54408 -0.14000
N 	N 	0.56366 0.24984 0.59562 -0.25400
N 	N 	0.60792 0.24537 0.54241 -0.12800
C 	C 	0.48618 0.30860 0.47173 -0.15400
H 	H 	0.50760 0.29110 0.46050 0.09000
C 	C 	0.45670 0.32710 0.44550 0.05300
H 	H 	0.45790 0.32260 0.41600 0.00600
C 	C 	0.42580 0.35230 0.46250 -0.12300
H 	H 	0.40550 0.36480 0.44460 0.06500
C 	C 	0.42390 0.35960 0.50570 0.05500
H 	H 	0.40280 0.37730 0.51700 0.01000
C 	C 	0.45325 0.34070 0.53200 -0.15800
H 	H 	0.45200 0.34480 0.56160 0.07900
C 	C 	0.48396 0.31601 0.51460 0.14400
N 	N 	0.54500 0.28131 0.52725 -0.10300
C 	C 	0.57041 0.26009 0.55569 0.15400
C 	C 	0.59850 0.22839 0.60825 -0.00000
H 	H 	0.60280 0.21730 0.63560 0.01900
C 	C 	0.62637 0.22516 0.57562 0.00300
H 	H 	0.65300 0.21170 0.57600 0.03400
H 	H 	0.60260 0.24600 0.47970 0.03700
N 	N 	0.29408 0.04625 0.26222 -0.14100
N 	N 	0.34562 0.99984 0.31366 -0.24400
N 	N 	0.29241 0.99537 0.35792 -0.11000
C 	C 	0.22173 0.05860 0.23618 -0.15300
H 	H 	0.21050 0.04110 0.25760 0.08700
C 	C 	0.19550 0.07710 0.20670 0.05100
H 	H 	0.16600 0.07260 0.20790 0.00500
C 	C 	0.21250 0.10230 0.17580 -0.12200
H 	H 	0.19460 0.11480 0.15550 0.06400
C 	C 	0.25570 0.10960 0.17390 0.05400
H 	H 	0.26700 0.12730 0.15280 0.01000
C 	C 	0.28200 0.09070 0.20325 -0.15700
H 	H 	0.31160 0.09480 0.20200 0.07800
C 	C 	0.26460 0.06601 0.23396 0.14200
N 	N 	0.27725 0.03131 0.29500 -0.10200
C 	C 	0.30569 0.01009 0.32041 0.13400
C 	C 	0.35825 0.97839 0.34850 0.00300
H 	H 	0.38560 0.96730 0.35280 0.02000
C 	C 	0.32562 0.97516 0.37637 0.00100
H 	H 	0.32600 0.96170 0.40300 0.03700
H 	H 	0.22970 0.99600 0.35260 0.05900
N 	N 	0.79408 0.54625 0.76222 -0.14000
N 	N 	0.84562 0.49984 0.81366 -0.25400
N 	N 	0.79241 0.49537 0.85792 -0.12800
C 	C 	0.72173 0.55860 0.73618 -0.15400
H 	H 	0.71050 0.54110 0.75760 0.09000
C 	C 	0.69550 0.57710 0.70670 0.05300
H 	H 	0.66600 0.57260 0.70790 0.00600
C 	C 	0.71250 0.60230 0.67580 -0.12300
H 	H 	0.69460 0.61480 0.65550 0.06500
C 	C 	0.75570 0.60960 0.67390 0.05500
H 	H 	0.76700 0.62730 0.65280 0.01000
C 	C 	0.78200 0.59070 0.70325 -0.15800
H 	H 	0.81160 0.59480 0.70200 0.07900
C 	C 	0.76460 0.56601 0.73396 0.14400
N 	N 	0.77725 0.53131 0.79500 -0.10300
C 	C 	0.80569 0.51009 0.82041 0.15400
C 	C 	0.85825 0.47839 0.84850 -0.00000
H 	H 	0.88560 0.46730 0.85280 0.02000
C 	C 	0.82562 0.47516 0.87637 0.00300
H 	H 	0.82600 0.46170 0.90300 0.03600
H 	H 	0.72970 0.49600 0.85260 0.03700
N 	N 	0.20592 0.95375 0.76222 -0.13800
N 	N 	0.15438 0.00016 0.81366 -0.26200
N 	N 	0.20759 0.00463 0.85792 -0.14500
C 	C 	0.27827 0.94140 0.73618 -0.15500
H 	H 	0.28950 0.95890 0.75760 0.09300
C 	C 	0.30450 0.92290 0.70670 0.05400
H 	H 	0.33400 0.92740 0.70790 0.00600
C 	C 	0.28750 0.89770 0.67580 -0.12400
H 	H 	0.30540 0.88520 0.65550 0.06500
C 	C 	0.24430 0.89040 0.67390 0.05600
H 	H 	0.23300 0.87270 0.65280 0.01000
C 	C 	0.21800 0.90930 0.70325 -0.15900
H 	H 	0.18840 0.90520 0.70200 0.07900
C 	C 	0.23540 0.93399 0.73396 0.14700
N 	N 	0.22275 0.96869 0.79500 -0.10400
C 	C 	0.19431 0.98991 0.82041 0.17300
C 	C 	0.14175 0.02161 0.84850 -0.00300
H 	H 	0.11440 0.03270 0.85280 0.01800
C 	C 	0.17438 0.02484 0.87637 0.00400
H 	H 	0.17400 0.03830 0.90300 0.03300
H 	H 	0.27030 0.00400 0.85260 0.01400
N 	N 	0.70592 0.45375 0.26222 -0.14000
N 	N 	0.65438 0.50016 0.31366 -0.25400
N 	N 	0.70759 0.50463 0.35792 -0.12800
C 	C 	0.77827 0.44140 0.23618 -0.15400
H 	H 	0.78950 0.45890 0.25760 0.09000
C 	C 	0.80450 0.42290 0.20670 0.05300
H 	H 	0.83400 0.42740 0.20790 0.00500
C 	C 	0.78750 0.39770 0.17580 -0.12300
H 	H 	0.80540 0.38520 0.15550 0.06500
C 	C 	0.74430 0.39040 0.17390 0.05500
H 	H 	0.73300 0.37270 0.15280 0.01000
C 	C 	0.71800 0.40930 0.20325 -0.15800
H 	H 	0.68840 0.40520 0.20200 0.07900
C 	C 	0.73540 0.43399 0.23396 0.14400
N 	N 	0.72275 0.46869 0.29500 -0.10300
C 	C 	0.69431 0.48991 0.32041 0.15400
C 	C 	0.64175 0.52161 0.34850 -0.00000
H 	H 	0.61440 0.53270 0.35280 0.01900
C 	C 	0.67438 0.52484 0.37637 0.00300
H 	H 	0.67400 0.53830 0.40300 0.03400
H 	H 	0.77030 0.50400 0.35260 0.03700
N 	N 	0.70592 0.54625 0.23778 -0.14000
N 	N 	0.65438 0.49984 0.18634 -0.25400
N 	N 	0.70759 0.49537 0.14208 -0.12800
C 	C 	0.77827 0.55860 0.26382 -0.15400
H 	H 	0.78950 0.54110 0.24240 0.09000
C 	C 	0.80450 0.57710 0.29330 0.05300
H 	H 	0.83400 0.57260 0.29210 0.00500
C 	C 	0.78750 0.60230 0.32420 -0.12300
H 	H 	0.80540 0.61480 0.34450 0.06500
C 	C 	0.74430 0.60960 0.32610 0.05500
H 	H 	0.73300 0.62730 0.34720 0.01000
C 	C 	0.71800 0.59070 0.29675 -0.15800
H 	H 	0.68840 0.59480 0.29800 0.07900
C 	C 	0.73540 0.56601 0.26604 0.14400
N 	N 	0.72275 0.53131 0.20500 -0.10300
C 	C 	0.69431 0.51009 0.17959 0.15300
C 	C 	0.64175 0.47839 0.15150 -0.00100
H 	H 	0.61440 0.46730 0.14720 0.01800
C 	C 	0.67438 0.47516 0.12363 0.00300
H 	H 	0.67400 0.46170 0.09700 0.03300
H 	H 	0.77030 0.49600 0.14740 0.03700
N 	N 	0.20592 0.04625 0.73778 -0.14100
N 	N 	0.15438 0.99984 0.68634 -0.24400
N 	N 	0.20759 0.99537 0.64208 -0.11000
C 	C 	0.27827 0.05860 0.76382 -0.15300
H 	H 	0.28950 0.04110 0.74240 0.08700
C 	C 	0.30450 0.07710 0.79330 0.05100
H 	H 	0.33400 0.07260 0.79210 0.00500
C 	C 	0.28750 0.10230 0.82420 -0.12200
H 	H 	0.30540 0.11480 0.84450 0.06500
C 	C 	0.24430 0.10960 0.82610 0.05400
H 	H 	0.23300 0.12730 0.84720 0.01000
C 	C 	0.21800 0.09070 0.79675 -0.15700
H 	H 	0.18840 0.09480 0.79800 0.07800
C 	C 	0.23540 0.06601 0.76604 0.14200
N 	N 	0.22275 0.03131 0.70500 -0.10200
C 	C 	0.19431 0.01009 0.67959 0.13400
C 	C 	0.14175 0.97839 0.65150 0.00300
H 	H 	0.11440 0.96730 0.64720 0.01900
C 	C 	0.17438 0.97516 0.62363 0.00100
H 	H 	0.17400 0.96170 0.59700 0.03700
H 	H 	0.27030 0.99600 0.64740 0.05900
N 	N 	0.79408 0.45375 0.73778 -0.14000
N 	N 	0.84562 0.50016 0.68634 -0.25400
N 	N 	0.79241 0.50463 0.64208 -0.12800
C 	C 	0.72173 0.44140 0.76382 -0.15400
H 	H 	0.71050 0.45890 0.74240 0.09000
C 	C 	0.69550 0.42290 0.79330 0.05300
H 	H 	0.66600 0.42740 0.79210 0.00600
C 	C 	0.71250 0.39770 0.82420 -0.12300
H 	H 	0.69460 0.38520 0.84450 0.06500
C 	C 	0.75570 0.39040 0.82610 0.05500
H 	H 	0.76700 0.37270 0.84720 0.01000
C 	C 	0.78200 0.40930 0.79675 -0.15800
H 	H 	0.81160 0.40520 0.79800 0.07900
C 	C 	0.76460 0.43399 0.76604 0.14400
N 	N 	0.77725 0.46869 0.70500 -0.10300
C 	C 	0.80569 0.48991 0.67959 0.15400
C 	C 	0.85825 0.52161 0.65150 -0.00000
H 	H 	0.88560 0.53270 0.64720 0.01900
C 	C 	0.82562 0.52484 0.62363 0.00300
H 	H 	0.82600 0.53830 0.59700 0.03500
H 	H 	0.72970 0.50400 0.64740 0.03700
N 	N 	0.29408 0.95375 0.23778 -0.13800
N 	N 	0.34562 0.00016 0.18634 -0.26200
N 	N 	0.29241 0.00463 0.14208 -0.14500
C 	C 	0.22173 0.94140 0.26382 -0.15400
H 	H 	0.21050 0.95890 0.24240 0.09300
C 	C 	0.19550 0.92290 0.29330 0.05400
H 	H 	0.16600 0.92740 0.29210 0.00600
C 	C 	0.21250 0.89770 0.32420 -0.12300
H 	H 	0.19460 0.88520 0.34450 0.06500
C 	C 	0.25570 0.89040 0.32610 0.05600
H 	H 	0.26700 0.87270 0.34720 0.01000
C 	C 	0.28200 0.90930 0.29675 -0.15800
H 	H 	0.31160 0.90520 0.29800 0.08000
C 	C 	0.26460 0.93399 0.26604 0.14700
N 	N 	0.27725 0.96869 0.20500 -0.10400
C 	C 	0.30569 0.98991 0.17959 0.17300
C 	C 	0.35825 0.02161 0.15150 -0.00400
H 	H 	0.38560 0.03270 0.14720 0.01700
C 	C 	0.32562 0.02484 0.12363 0.00500
H 	H 	0.32600 0.03830 0.09700 0.03100
H 	H 	0.22970 0.00400 0.14740 0.01500
N 	N 	0.26222 0.29408 0.04625 -0.14100
N 	N 	0.31366 0.34562 0.99984 -0.24400
N 	N 	0.35792 0.29241 0.99537 -0.11000
C 	C 	0.23618 0.22173 0.05860 -0.15300
H 	H 	0.25760 0.21050 0.04110 0.08700
C 	C 	0.20670 0.19550 0.07710 0.05100
H 	H 	0.20790 0.16600 0.07260 0.00500
C 	C 	0.17580 0.21250 0.10230 -0.12200
H 	H 	0.15550 0.19460 0.11480 0.06400
C 	C 	0.17390 0.25570 0.10960 0.05400
H 	H 	0.15280 0.26700 0.12730 0.01000
C 	C 	0.20325 0.28200 0.09070 -0.15700
H 	H 	0.20200 0.31160 0.09480 0.07800
C 	C 	0.23396 0.26460 0.06601 0.14200
N 	N 	0.29500 0.27725 0.03131 -0.10200
C 	C 	0.32041 0.30569 0.01009 0.13400
C 	C 	0.34850 0.35825 0.97839 0.00300
H 	H 	0.35280 0.38560 0.96730 0.02000
C 	C 	0.37637 0.32562 0.97516 0.00100
H 	H 	0.40300 0.32600 0.96170 0.03700
H 	H 	0.35260 0.22970 0.99600 0.05900
N 	N 	0.76222 0.79408 0.54625 -0.14000
N 	N 	0.81366 0.84562 0.49984 -0.25400
N 	N 	0.85792 0.79241 0.49537 -0.12800
C 	C 	0.73618 0.72173 0.55860 -0.15400
H 	H 	0.75760 0.71050 0.54110 0.09000
C 	C 	0.70670 0.69550 0.57710 0.05300
H 	H 	0.70790 0.66600 0.57260 0.00600
C 	C 	0.67580 0.71250 0.60230 -0.12300
H 	H 	0.65550 0.69460 0.61480 0.06500
C 	C 	0.67390 0.75570 0.60960 0.05500
H 	H 	0.65280 0.76700 0.62730 0.01000
C 	C 	0.70325 0.78200 0.59070 -0.15800
H 	H 	0.70200 0.81160 0.59480 0.07900
C 	C 	0.73396 0.76460 0.56601 0.14400
N 	N 	0.79500 0.77725 0.53131 -0.10300
C 	C 	0.82041 0.80569 0.51009 0.15400
C 	C 	0.84850 0.85825 0.47839 -0.00000
H 	H 	0.85280 0.88560 0.46730 0.02000
C 	C 	0.87637 0.82562 0.47516 0.00300
H 	H 	0.90300 0.82600 0.46170 0.03600
H 	H 	0.85260 0.72970 0.49600 0.03700
N 	N 	0.76222 0.20592 0.95375 -0.13800
N 	N 	0.81366 0.15438 0.00016 -0.26200
N 	N 	0.85792 0.20759 0.00463 -0.14500
C 	C 	0.73618 0.27827 0.94140 -0.15500
H 	H 	0.75760 0.28950 0.95890 0.09300
C 	C 	0.70670 0.30450 0.92290 0.05400
H 	H 	0.70790 0.33400 0.92740 0.00600
C 	C 	0.67580 0.28750 0.89770 -0.12400
H 	H 	0.65550 0.30540 0.88520 0.06500
C 	C 	0.67390 0.24430 0.89040 0.05600
H 	H 	0.65280 0.23300 0.87270 0.01000
C 	C 	0.70325 0.21800 0.90930 -0.15900
H 	H 	0.70200 0.18840 0.90520 0.07900
C 	C 	0.73396 0.23540 0.93399 0.14700
N 	N 	0.79500 0.22275 0.96869 -0.10400
C 	C 	0.82041 0.19431 0.98991 0.17300
C 	C 	0.84850 0.14175 0.02161 -0.00300
H 	H 	0.85280 0.11440 0.03270 0.01800
C 	C 	0.87637 0.17438 0.02484 0.00400
H 	H 	0.90300 0.17400 0.03830 0.03300
H 	H 	0.85260 0.27030 0.00400 0.01400
N 	N 	0.26222 0.70592 0.45375 -0.14000
N 	N 	0.31366 0.65438 0.50016 -0.25400
N 	N 	0.35792 0.70759 0.50463 -0.12800
C 	C 	0.23618 0.77827 0.44140 -0.15400
H 	H 	0.25760 0.78950 0.45890 0.09000
C 	C 	0.20670 0.80450 0.42290 0.05300
H 	H 	0.20790 0.83400 0.42740 0.00500
C 	C 	0.17580 0.78750 0.39770 -0.12300
H 	H 	0.15550 0.80540 0.38520 0.06500
C 	C 	0.17390 0.74430 0.39040 0.05500
H 	H 	0.15280 0.73300 0.37270 0.01000
C 	C 	0.20325 0.71800 0.40930 -0.15800
H 	H 	0.20200 0.68840 0.40520 0.07900
C 	C 	0.23396 0.73540 0.43399 0.14400
N 	N 	0.29500 0.72275 0.46869 -0.10300
C 	C 	0.32041 0.69431 0.48991 0.15400
C 	C 	0.34850 0.64175 0.52161 -0.00000
H 	H 	0.35280 0.61440 0.53270 0.01900
C 	C 	0.37637 0.67438 0.52484 0.00300
H 	H 	0.40300 0.67400 0.53830 0.03400
H 	H 	0.35260 0.77030 0.50400 0.03700
N 	N 	0.23778 0.70592 0.54625 -0.14000
N 	N 	0.18634 0.65438 0.49984 -0.25400
N 	N 	0.14208 0.70759 0.49537 -0.12800
C 	C 	0.26382 0.77827 0.55860 -0.15400
H 	H 	0.24240 0.78950 0.54110 0.09000
C 	C 	0.29330 0.80450 0.57710 0.05300
H 	H 	0.29210 0.83400 0.57260 0.00500
C 	C 	0.32420 0.78750 0.60230 -0.12300
H 	H 	0.34450 0.80540 0.61480 0.06500
C 	C 	0.32610 0.74430 0.60960 0.05500
H 	H 	0.34720 0.73300 0.62730 0.01000
C 	C 	0.29675 0.71800 0.59070 -0.15800
H 	H 	0.29800 0.68840 0.59480 0.07900
C 	C 	0.26604 0.73540 0.56601 0.14400
N 	N 	0.20500 0.72275 0.53131 -0.10300
C 	C 	0.17959 0.69431 0.51009 0.15300
C 	C 	0.15150 0.64175 0.47839 -0.00100
H 	H 	0.14720 0.61440 0.46730 0.01800
C 	C 	0.12363 0.67438 0.47516 0.00300
H 	H 	0.09700 0.67400 0.46170 0.03300
H 	H 	0.14740 0.77030 0.49600 0.03700
N 	N 	0.73778 0.20592 0.04625 -0.14100
N 	N 	0.68634 0.15438 0.99984 -0.24400
N 	N 	0.64208 0.20759 0.99537 -0.11000
C 	C 	0.76382 0.27827 0.05860 -0.15300
H 	H 	0.74240 0.28950 0.04110 0.08700
C 	C 	0.79330 0.30450 0.07710 0.05100
H 	H 	0.79210 0.33400 0.07260 0.00500
C 	C 	0.82420 0.28750 0.10230 -0.12200
H 	H 	0.84450 0.30540 0.11480 0.06500
C 	C 	0.82610 0.24430 0.10960 0.05400
H 	H 	0.84720 0.23300 0.12730 0.01000
C 	C 	0.79675 0.21800 0.09070 -0.15700
H 	H 	0.79800 0.18840 0.09480 0.07800
C 	C 	0.76604 0.23540 0.06601 0.14200
N 	N 	0.70500 0.22275 0.03131 -0.10200
C 	C 	0.67959 0.19431 0.01009 0.13400
C 	C 	0.65150 0.14175 0.97839 0.00300
H 	H 	0.64720 0.11440 0.96730 0.01900
C 	C 	0.62363 0.17438 0.97516 0.00100
H 	H 	0.59700 0.17400 0.96170 0.03700
H 	H 	0.64740 0.27030 0.99600 0.05900
N 	N 	0.73778 0.79408 0.45375 -0.14000
N 	N 	0.68634 0.84562 0.50016 -0.25400
N 	N 	0.64208 0.79241 0.50463 -0.12800
C 	C 	0.76382 0.72173 0.44140 -0.15400
H 	H 	0.74240 0.71050 0.45890 0.09000
C 	C 	0.79330 0.69550 0.42290 0.05300
H 	H 	0.79210 0.66600 0.42740 0.00600
C 	C 	0.82420 0.71250 0.39770 -0.12300
H 	H 	0.84450 0.69460 0.38520 0.06500
C 	C 	0.82610 0.75570 0.39040 0.05500
H 	H 	0.84720 0.76700 0.37270 0.01000
C 	C 	0.79675 0.78200 0.40930 -0.15800
H 	H 	0.79800 0.81160 0.40520 0.07900
C 	C 	0.76604 0.76460 0.43399 0.14400
N 	N 	0.70500 0.77725 0.46869 -0.10300
C 	C 	0.67959 0.80569 0.48991 0.15400
C 	C 	0.65150 0.85825 0.52161 -0.00000
H 	H 	0.64720 0.88560 0.53270 0.01900
C 	C 	0.62363 0.82562 0.52484 0.00300
H 	H 	0.59700 0.82600 0.53830 0.03500
H 	H 	0.64740 0.72970 0.50400 0.03700
N 	N 	0.23778 0.29408 0.95375 -0.13800
N 	N 	0.18634 0.34562 0.00016 -0.26200
N 	N 	0.14208 0.29241 0.00463 -0.14500
C 	C 	0.26382 0.22173 0.94140 -0.15400
H 	H 	0.24240 0.21050 0.95890 0.09300
C 	C 	0.29330 0.19550 0.92290 0.05400
H 	H 	0.29210 0.16600 0.92740 0.00600
C 	C 	0.32420 0.21250 0.89770 -0.12300
H 	H 	0.34450 0.19460 0.88520 0.06500
C 	C 	0.32610 0.25570 0.89040 0.05600
H 	H 	0.34720 0.26700 0.87270 0.01000
C 	C 	0.29675 0.28200 0.90930 -0.15800
H 	H 	0.29800 0.31160 0.90520 0.08000
C 	C 	0.26604 0.26460 0.93399 0.14700
N 	N 	0.20500 0.27725 0.96869 -0.10400
C 	C 	0.17959 0.30569 0.98991 0.17300
C 	C 	0.15150 0.35825 0.02161 -0.00400
H 	H 	0.14720 0.38560 0.03270 0.01700
C 	C 	0.12363 0.32562 0.02484 0.00500
H 	H 	0.09700 0.32600 0.03830 0.03100
H 	H 	0.14740 0.22970 0.00400 0.01500
N 	N 	0.04625 0.26222 0.29408 -0.14100
N 	N 	0.99984 0.31366 0.34562 -0.24400
N 	N 	0.99537 0.35792 0.29241 -0.11000
C 	C 	0.05860 0.23618 0.22173 -0.15300
H 	H 	0.04110 0.25760 0.21050 0.08700
C 	C 	0.07710 0.20670 0.19550 0.05100
H 	H 	0.07260 0.20790 0.16600 0.00500
C 	C 	0.10230 0.17580 0.21250 -0.12200
H 	H 	0.11480 0.15550 0.19460 0.06400
C 	C 	0.10960 0.17390 0.25570 0.05400
H 	H 	0.12730 0.15280 0.26700 0.01000
C 	C 	0.09070 0.20325 0.28200 -0.15700
H 	H 	0.09480 0.20200 0.31160 0.07800
C 	C 	0.06601 0.23396 0.26460 0.14200
N 	N 	0.03131 0.29500 0.27725 -0.10200
C 	C 	0.01009 0.32041 0.30569 0.13400
C 	C 	0.97839 0.34850 0.35825 0.00300
H 	H 	0.96730 0.35280 0.38560 0.02000
C 	C 	0.97516 0.37637 0.32562 0.00100
H 	H 	0.96170 0.40300 0.32600 0.03700
H 	H 	0.99600 0.35260 0.22970 0.05900
N 	N 	0.54625 0.76222 0.79408 -0.14000
N 	N 	0.49984 0.81366 0.84562 -0.25400
N 	N 	0.49537 0.85792 0.79241 -0.12800
C 	C 	0.55860 0.73618 0.72173 -0.15400
H 	H 	0.54110 0.75760 0.71050 0.09000
C 	C 	0.57710 0.70670 0.69550 0.05300
H 	H 	0.57260 0.70790 0.66600 0.00600
C 	C 	0.60230 0.67580 0.71250 -0.12300
H 	H 	0.61480 0.65550 0.69460 0.06500
C 	C 	0.60960 0.67390 0.75570 0.05500
H 	H 	0.62730 0.65280 0.76700 0.01000
C 	C 	0.59070 0.70325 0.78200 -0.15800
H 	H 	0.59480 0.70200 0.81160 0.07900
C 	C 	0.56601 0.73396 0.76460 0.14400
N 	N 	0.53131 0.79500 0.77725 -0.10300
C 	C 	0.51009 0.82041 0.80569 0.15400
C 	C 	0.47839 0.84850 0.85825 -0.00000
H 	H 	0.46730 0.85280 0.88560 0.02000
C 	C 	0.47516 0.87637 0.82562 0.00300
H 	H 	0.46170 0.90300 0.82600 0.03600
H 	H 	0.49600 0.85260 0.72970 0.03700
N 	N 	0.95375 0.76222 0.20592 -0.13800
N 	N 	0.00016 0.81366 0.15438 -0.26200
N 	N 	0.00463 0.85792 0.20759 -0.14500
C 	C 	0.94140 0.73618 0.27827 -0.15500
H 	H 	0.95890 0.75760 0.28950 0.09300
C 	C 	0.92290 0.70670 0.30450 0.05400
H 	H 	0.92740 0.70790 0.33400 0.00600
C 	C 	0.89770 0.67580 0.28750 -0.12400
H 	H 	0.88520 0.65550 0.30540 0.06500
C 	C 	0.89040 0.67390 0.24430 0.05600
H 	H 	0.87270 0.65280 0.23300 0.01000
C 	C 	0.90930 0.70325 0.21800 -0.15900
H 	H 	0.90520 0.70200 0.18840 0.07900
C 	C 	0.93399 0.73396 0.23540 0.14700
N 	N 	0.96869 0.79500 0.22275 -0.10400
C 	C 	0.98991 0.82041 0.19431 0.17300
C 	C 	0.02161 0.84850 0.14175 -0.00300
H 	H 	0.03270 0.85280 0.11440 0.01800
C 	C 	0.02484 0.87637 0.17438 0.00400
H 	H 	0.03830 0.90300 0.17400 0.03300
H 	H 	0.00400 0.85260 0.27030 0.01400
N 	N 	0.45375 0.26222 0.70592 -0.14000
N 	N 	0.50016 0.31366 0.65438 -0.25400
N 	N 	0.50463 0.35792 0.70759 -0.12800
C 	C 	0.44140 0.23618 0.77827 -0.15400
H 	H 	0.45890 0.25760 0.78950 0.09000
C 	C 	0.42290 0.20670 0.80450 0.05300
H 	H 	0.42740 0.20790 0.83400 0.00500
C 	C 	0.39770 0.17580 0.78750 -0.12300
H 	H 	0.38520 0.15550 0.80540 0.06500
C 	C 	0.39040 0.17390 0.74430 0.05500
H 	H 	0.37270 0.15280 0.73300 0.01000
C 	C 	0.40930 0.20325 0.71800 -0.15800
H 	H 	0.40520 0.20200 0.68840 0.07900
C 	C 	0.43399 0.23396 0.73540 0.14400
N 	N 	0.46869 0.29500 0.72275 -0.10300
C 	C 	0.48991 0.32041 0.69431 0.15400
C 	C 	0.52161 0.34850 0.64175 -0.00000
H 	H 	0.53270 0.35280 0.61440 0.01900
C 	C 	0.52484 0.37637 0.67438 0.00300
H 	H 	0.53830 0.40300 0.67400 0.03400
H 	H 	0.50400 0.35260 0.77030 0.03700
N 	N 	0.54625 0.23778 0.70592 -0.14000
N 	N 	0.49984 0.18634 0.65438 -0.25400
N 	N 	0.49537 0.14208 0.70759 -0.12800
C 	C 	0.55860 0.26382 0.77827 -0.15400
H 	H 	0.54110 0.24240 0.78950 0.09000
C 	C 	0.57710 0.29330 0.80450 0.05300
H 	H 	0.57260 0.29210 0.83400 0.00500
C 	C 	0.60230 0.32420 0.78750 -0.12300
H 	H 	0.61480 0.34450 0.80540 0.06500
C 	C 	0.60960 0.32610 0.74430 0.05500
H 	H 	0.62730 0.34720 0.73300 0.01000
C 	C 	0.59070 0.29675 0.71800 -0.15800
H 	H 	0.59480 0.29800 0.68840 0.07900
C 	C 	0.56601 0.26604 0.73540 0.14400
N 	N 	0.53131 0.20500 0.72275 -0.10300
C 	C 	0.51009 0.17959 0.69431 0.15300
C 	C 	0.47839 0.15150 0.64175 -0.00100
H 	H 	0.46730 0.14720 0.61440 0.01800
C 	C 	0.47516 0.12363 0.67438 0.00300
H 	H 	0.46170 0.09700 0.67400 0.03300
H 	H 	0.49600 0.14740 0.77030 0.03700
N 	N 	0.04625 0.73778 0.20592 -0.14100
N 	N 	0.99984 0.68634 0.15438 -0.24400
N 	N 	0.99537 0.64208 0.20759 -0.11000
C 	C 	0.05860 0.76382 0.27827 -0.15300
H 	H 	0.04110 0.74240 0.28950 0.08700
C 	C 	0.07710 0.79330 0.30450 0.05100
H 	H 	0.07260 0.79210 0.33400 0.00500
C 	C 	0.10230 0.82420 0.28750 -0.12200
H 	H 	0.11480 0.84450 0.30540 0.06500
C 	C 	0.10960 0.82610 0.24430 0.05400
H 	H 	0.12730 0.84720 0.23300 0.01000
C 	C 	0.09070 0.79675 0.21800 -0.15700
H 	H 	0.09480 0.79800 0.18840 0.07800
C 	C 	0.06601 0.76604 0.23540 0.14200
N 	N 	0.03131 0.70500 0.22275 -0.10200
C 	C 	0.01009 0.67959 0.19431 0.13400
C 	C 	0.97839 0.65150 0.14175 0.00300
H 	H 	0.96730 0.64720 0.11440 0.01900
C 	C 	0.97516 0.62363 0.17438 0.00100
H 	H 	0.96170 0.59700 0.17400 0.03700
H 	H 	0.99600 0.64740 0.27030 0.05900
N 	N 	0.45375 0.73778 0.79408 -0.14000
N 	N 	0.50016 0.68634 0.84562 -0.25400
N 	N 	0.50463 0.64208 0.79241 -0.12800
C 	C 	0.44140 0.76382 0.72173 -0.15400
H 	H 	0.45890 0.74240 0.71050 0.09000
C 	C 	0.42290 0.79330 0.69550 0.05300
H 	H 	0.42740 0.79210 0.66600 0.00600
C 	C 	0.39770 0.82420 0.71250 -0.12300
H 	H 	0.38520 0.84450 0.69460 0.06500
C 	C 	0.39040 0.82610 0.75570 0.05500
H 	H 	0.37270 0.84720 0.76700 0.01000
C 	C 	0.40930 0.79675 0.78200 -0.15800
H 	H 	0.40520 0.79800 0.81160 0.07900
C 	C 	0.43399 0.76604 0.76460 0.14400
N 	N 	0.46869 0.70500 0.77725 -0.10300
C 	C 	0.48991 0.67959 0.80569 0.15400
C 	C 	0.52161 0.65150 0.85825 -0.00000
H 	H 	0.53270 0.64720 0.88560 0.01900
C 	C 	0.52484 0.62363 0.82562 0.00300
H 	H 	0.53830 0.59700 0.82600 0.03500
H 	H 	0.50400 0.64740 0.72970 0.03700
N 	N 	0.95375 0.23778 0.29408 -0.13800
N 	N 	0.00016 0.18634 0.34562 -0.26200
N 	N 	0.00463 0.14208 0.29241 -0.14500
C 	C 	0.94140 0.26382 0.22173 -0.15400
H 	H 	0.95890 0.24240 0.21050 0.09300
C 	C 	0.92290 0.29330 0.19550 0.05400
H 	H 	0.92740 0.29210 0.16600 0.00600
C 	C 	0.89770 0.32420 0.21250 -0.12300
H 	H 	0.88520 0.34450 0.19460 0.06500
C 	C 	0.89040 0.32610 0.25570 0.05600
H 	H 	0.87270 0.34720 0.26700 0.01000
C 	C 	0.90930 0.29675 0.28200 -0.15800
H 	H 	0.90520 0.29800 0.31160 0.08000
C 	C 	0.93399 0.26604 0.26460 0.14700
N 	N 	0.96869 0.20500 0.27725 -0.10400
C 	C 	0.98991 0.17959 0.30569 0.17300
C 	C 	0.02161 0.15150 0.35825 -0.00400
H 	H 	0.03270 0.14720 0.38560 0.01700
C 	C 	0.02484 0.12363 0.32562 0.00500
H 	H 	0.03830 0.09700 0.32600 0.03100
H 	H 	0.00400 0.14740 0.22970 0.01500
N 	N 	0.29625 0.04408 0.48778 -0.13500
N 	N 	0.24984 0.09562 0.43634 -0.25300
N 	N 	0.24537 0.04241 0.39208 -0.12100
C 	C 	0.30860 0.97173 0.51382 -0.11100
H 	H 	0.29110 0.96050 0.49240 0.07800
C 	C 	0.32710 0.94550 0.54330 0.01500
H 	H 	0.32260 0.91600 0.54210 0.01900
C 	C 	0.35230 0.96250 0.57420 -0.07500
H 	H 	0.36480 0.94460 0.59450 0.05000
C 	C 	0.35960 0.00570 0.57610 0.00800
H 	H 	0.37730 0.01700 0.59720 0.02200
C 	C 	0.34070 0.03200 0.54675 -0.12500
H 	H 	0.34480 0.06160 0.54800 0.06800
C 	C 	0.31601 0.01460 0.51604 0.11100
N 	N 	0.28131 0.02725 0.45500 -0.10600
C 	C 	0.26009 0.05569 0.42959 0.15100
C 	C 	0.22839 0.10825 0.40150 0.00100
H 	H 	0.21730 0.13560 0.39720 0.01800
C 	C 	0.22516 0.07562 0.37363 -0.00100
H 	H 	0.21170 0.07600 0.34700 0.03500
H 	H 	0.24600 0.97970 0.39740 0.05800
N 	N 	0.79625 0.54408 0.98778 -0.13400
N 	N 	0.74984 0.59562 0.93634 -0.25200
N 	N 	0.74537 0.54241 0.89208 -0.12800
C 	C 	0.80860 0.47173 0.01382 -0.18000
H 	H 	0.79110 0.46050 0.99240 0.10700
C 	C 	0.82710 0.44550 0.04330 0.06800
H 	H 	0.82260 0.41600 0.04210 -0.00200
C 	C 	0.85230 0.46250 0.07420 -0.13400
H 	H 	0.86480 0.44460 0.09450 0.06800
C 	C 	0.85960 0.50570 0.07610 0.06200
H 	H 	0.87730 0.51700 0.09720 0.00800
C 	C 	0.84070 0.53200 0.04675 -0.16300
H 	H 	0.84480 0.56160 0.04800 0.07900
C 	C 	0.81601 0.51460 0.01604 0.14600
N 	N 	0.78131 0.52725 0.95500 -0.10200
C 	C 	0.76009 0.55569 0.92959 0.15500
C 	C 	0.72839 0.60825 0.90150 0.00000
H 	H 	0.71730 0.63560 0.89720 0.01900
C 	C 	0.72516 0.57562 0.87363 0.00300
H 	H 	0.71170 0.57600 0.84700 0.03500
H 	H 	0.74600 0.47970 0.89740 0.03700
N 	N 	0.20375 0.95592 0.98778 -0.13900
N 	N 	0.25016 0.90438 0.93634 -0.25200
N 	N 	0.25463 0.95759 0.89208 -0.13400
C 	C 	0.19140 0.02827 0.01382 -0.22300
H 	H 	0.20890 0.03950 0.99240 0.11800
C 	C 	0.17290 0.05450 0.04330 0.10500
H 	H 	0.17740 0.08400 0.04210 -0.01500
C 	C 	0.14770 0.03750 0.07420 -0.18100
H 	H 	0.13520 0.05540 0.09450 0.08200
C 	C 	0.14040 0.99430 0.07610 0.10800
H 	H 	0.12270 0.98300 0.09720 -0.00600
C 	C 	0.15930 0.96800 0.04675 -0.19600
H 	H 	0.15520 0.93840 0.04800 0.08900
C 	C 	0.18399 0.98540 0.01604 0.17900
N 	N 	0.21869 0.97275 0.95500 -0.10000
C 	C 	0.23991 0.94431 0.92959 0.15700
C 	C 	0.27161 0.89175 0.90150 -0.00100
H 	H 	0.28270 0.86440 0.89720 0.02000
C 	C 	0.27484 0.92438 0.87363 0.00700
H 	H 	0.28830 0.92400 0.84700 0.03400
H 	H 	0.25400 0.02030 0.89740 0.01600
N 	N 	0.70375 0.45592 0.48778 -0.14000
N 	N 	0.75016 0.40438 0.43634 -0.25400
N 	N 	0.75463 0.45759 0.39208 -0.12800
C 	C 	0.69140 0.52827 0.51382 -0.15400
H 	H 	0.70890 0.53950 0.49240 0.09000
C 	C 	0.67290 0.55450 0.54330 0.05300
H 	H 	0.67740 0.58400 0.54210 0.00600
C 	C 	0.64770 0.53750 0.57420 -0.12300
H 	H 	0.63520 0.55540 0.59450 0.06500
C 	C 	0.64040 0.49430 0.57610 0.05500
H 	H 	0.62270 0.48300 0.59720 0.01000
C 	C 	0.65930 0.46800 0.54675 -0.15800
H 	H 	0.65520 0.43840 0.54800 0.07900
C 	C 	0.68399 0.48540 0.51604 0.14400
N 	N 	0.71869 0.47275 0.45500 -0.10300
C 	C 	0.73991 0.44431 0.42959 0.15400
C 	C 	0.77161 0.39175 0.40150 -0.00000
H 	H 	0.78270 0.36440 0.39720 0.01900
C 	C 	0.77484 0.42438 0.37363 0.00300
H 	H 	0.78830 0.42400 0.34700 0.03500
H 	H 	0.75400 0.52030 0.39740 0.03700
N 	N 	0.79625 0.45592 0.51222 -0.13900
N 	N 	0.74984 0.40438 0.56366 -0.25400
N 	N 	0.74537 0.45759 0.60792 -0.12800
C 	C 	0.80860 0.52827 0.48618 -0.15400
H 	H 	0.79110 0.53950 0.50760 0.09000
C 	C 	0.82710 0.55450 0.45670 0.05300
H 	H 	0.82260 0.58400 0.45790 0.00600
C 	C 	0.85230 0.53750 0.42580 -0.12200
H 	H 	0.86480 0.55540 0.40550 0.06500
C 	C 	0.85960 0.49430 0.42390 0.05500
H 	H 	0.87730 0.48300 0.40280 0.01000
C 	C 	0.84070 0.46800 0.45325 -0.15800
H 	H 	0.84480 0.43840 0.45200 0.07900
C 	C 	0.81601 0.48540 0.48396 0.14500
N 	N 	0.78131 0.47275 0.54500 -0.10300
C 	C 	0.76009 0.44431 0.57041 0.15400
C 	C 	0.72839 0.39175 0.59850 -0.00000
H 	H 	0.71730 0.36440 0.60280 0.01900
C 	C 	0.72516 0.42438 0.62637 0.00300
H 	H 	0.71170 0.42400 0.65300 0.03400
H 	H 	0.74600 0.52030 0.60260 0.03700
N 	N 	0.29625 0.95592 0.01222 -0.14900
N 	N 	0.24984 0.90438 0.06366 -0.25500
N 	N 	0.24537 0.95759 0.10792 -0.13400
C 	C 	0.30860 0.02827 0.98618 -0.17000
H 	H 	0.29110 0.03950 0.00760 0.08600
C 	C 	0.32710 0.05450 0.95670 0.07500
H 	H 	0.32260 0.08400 0.95790 0.00000
C 	C 	0.35230 0.03750 0.92580 -0.15900
H 	H 	0.36480 0.05540 0.90550 0.07600
C 	C 	0.35960 0.99430 0.92390 0.09500
H 	H 	0.37730 0.98300 0.90280 0.00000
C 	C 	0.34070 0.96800 0.95325 -0.18400
H 	H 	0.34480 0.93840 0.95200 0.09100
C 	C 	0.31601 0.98540 0.98396 0.17600
N 	N 	0.28131 0.97275 0.04500 -0.10200
C 	C 	0.26009 0.94431 0.07041 0.15500
C 	C 	0.22839 0.89175 0.09850 -0.00200
H 	H 	0.21730 0.86440 0.10280 0.01900
C 	C 	0.22516 0.92438 0.12637 0.00700
H 	H 	0.21170 0.92400 0.15300 0.03400
H 	H 	0.24600 0.02030 0.10260 0.01600
N 	N 	0.70375 0.54408 0.01222 -0.14400
N 	N 	0.75016 0.59562 0.06366 -0.25500
N 	N 	0.75463 0.54241 0.10792 -0.12800
C 	C 	0.69140 0.47173 0.98618 -0.12700
H 	H 	0.70890 0.46050 0.00760 0.07400
C 	C 	0.67290 0.44550 0.95670 0.03700
H 	H 	0.67740 0.41600 0.95790 0.01300
C 	C 	0.64770 0.46250 0.92580 -0.11200
H 	H 	0.63520 0.44460 0.90550 0.06200
C 	C 	0.64040 0.50570 0.92390 0.04800
H 	H 	0.62270 0.51700 0.90280 0.01300
C 	C 	0.65930 0.53200 0.95325 -0.15200
H 	H 	0.65520 0.56160 0.95200 0.07900
C 	C 	0.68399 0.51460 0.98396 0.14300
N 	N 	0.71869 0.52725 0.04500 -0.10400
C 	C 	0.73991 0.55569 0.07041 0.15300
C 	C 	0.77161 0.60825 0.09850 -0.00100
H 	H 	0.78270 0.63560 0.10280 0.01800
C 	C 	0.77484 0.57562 0.12637 0.00300
H 	H 	0.78830 0.57600 0.15300 0.03400
H 	H 	0.75400 0.47970 0.10260 0.03700
N 	N 	0.20375 0.04408 0.51222 -0.13500
N 	N 	0.25016 0.09562 0.56366 -0.25300
N 	N 	0.25463 0.04241 0.60792 -0.12100
C 	C 	0.19140 0.97173 0.48618 -0.11100
H 	H 	0.20890 0.96050 0.50760 0.07800
C 	C 	0.17290 0.94550 0.45670 0.01500
H 	H 	0.17740 0.91600 0.45790 0.01900
C 	C 	0.14770 0.96250 0.42580 -0.07600
H 	H 	0.13520 0.94460 0.40550 0.05000
C 	C 	0.14040 0.00570 0.42390 0.00800
H 	H 	0.12270 0.01700 0.40280 0.02200
C 	C 	0.15930 0.03200 0.45325 -0.12600
H 	H 	0.15520 0.06160 0.45200 0.06700
C 	C 	0.18399 0.01460 0.48396 0.11100
N 	N 	0.21869 0.02725 0.54500 -0.10600
C 	C 	0.23991 0.05569 0.57041 0.15100
C 	C 	0.27161 0.10825 0.59850 0.00100
H 	H 	0.28270 0.13560 0.60280 0.01800
C 	C 	0.27484 0.07562 0.62637 -0.00100
H 	H 	0.28830 0.07600 0.65300 0.03500
H 	H 	0.25400 0.97970 0.60260 0.05800
N 	N 	0.54408 0.01222 0.70375 -0.14400
N 	N 	0.59562 0.06366 0.75016 -0.25500
N 	N 	0.54241 0.10792 0.75463 -0.12800
C 	C 	0.47173 0.98618 0.69140 -0.12700
H 	H 	0.46050 0.00760 0.70890 0.07400
C 	C 	0.44550 0.95670 0.67290 0.03700
H 	H 	0.41600 0.95790 0.67740 0.01300
C 	C 	0.46250 0.92580 0.64770 -0.11200
H 	H 	0.44460 0.90550 0.63520 0.06200
C 	C 	0.50570 0.92390 0.64040 0.04800
H 	H 	0.51700 0.90280 0.62270 0.01300
C 	C 	0.53200 0.95325 0.65930 -0.15200
H 	H 	0.56160 0.95200 0.65520 0.07900
C 	C 	0.51460 0.98396 0.68399 0.14300
N 	N 	0.52725 0.04500 0.71869 -0.10400
C 	C 	0.55569 0.07041 0.73991 0.15300
C 	C 	0.60825 0.09850 0.77161 -0.00100
H 	H 	0.63560 0.10280 0.78270 0.01800
C 	C 	0.57562 0.12637 0.77484 0.00300
H 	H 	0.57600 0.15300 0.78830 0.03400
H 	H 	0.47970 0.10260 0.75400 0.03700
N 	N 	0.04408 0.51222 0.20375 -0.13500
N 	N 	0.09562 0.56366 0.25016 -0.25300
N 	N 	0.04241 0.60792 0.25463 -0.12100
C 	C 	0.97173 0.48618 0.19140 -0.11100
H 	H 	0.96050 0.50760 0.20890 0.07800
C 	C 	0.94550 0.45670 0.17290 0.01500
H 	H 	0.91600 0.45790 0.17740 0.01900
C 	C 	0.96250 0.42580 0.14770 -0.07600
H 	H 	0.94460 0.40550 0.13520 0.05000
C 	C 	0.00570 0.42390 0.14040 0.00800
H 	H 	0.01700 0.40280 0.12270 0.02200
C 	C 	0.03200 0.45325 0.15930 -0.12600
H 	H 	0.06160 0.45200 0.15520 0.06700
C 	C 	0.01460 0.48396 0.18399 0.11100
N 	N 	0.02725 0.54500 0.21869 -0.10600
C 	C 	0.05569 0.57041 0.23991 0.15100
C 	C 	0.10825 0.59850 0.27161 0.00100
H 	H 	0.13560 0.60280 0.28270 0.01800
C 	C 	0.07562 0.62637 0.27484 -0.00100
H 	H 	0.07600 0.65300 0.28830 0.03500
H 	H 	0.97970 0.60260 0.25400 0.05800
N 	N 	0.45592 0.51222 0.79625 -0.13900
N 	N 	0.40438 0.56366 0.74984 -0.25400
N 	N 	0.45759 0.60792 0.74537 -0.12800
C 	C 	0.52827 0.48618 0.80860 -0.15400
H 	H 	0.53950 0.50760 0.79110 0.09000
C 	C 	0.55450 0.45670 0.82710 0.05300
H 	H 	0.58400 0.45790 0.82260 0.00600
C 	C 	0.53750 0.42580 0.85230 -0.12200
H 	H 	0.55540 0.40550 0.86480 0.06500
C 	C 	0.49430 0.42390 0.85960 0.05500
H 	H 	0.48300 0.40280 0.87730 0.01000
C 	C 	0.46800 0.45325 0.84070 -0.15800
H 	H 	0.43840 0.45200 0.84480 0.07900
C 	C 	0.48540 0.48396 0.81601 0.14500
N 	N 	0.47275 0.54500 0.78131 -0.10300
C 	C 	0.44431 0.57041 0.76009 0.15400
C 	C 	0.39175 0.59850 0.72839 -0.00000
H 	H 	0.36440 0.60280 0.71730 0.01900
C 	C 	0.42438 0.62637 0.72516 0.00300
H 	H 	0.42400 0.65300 0.71170 0.03400
H 	H 	0.52030 0.60260 0.74600 0.03700
N 	N 	0.95592 0.01222 0.29625 -0.14900
N 	N 	0.90438 0.06366 0.24984 -0.25500
N 	N 	0.95759 0.10792 0.24537 -0.13400
C 	C 	0.02827 0.98618 0.30860 -0.17000
H 	H 	0.03950 0.00760 0.29110 0.08600
C 	C 	0.05450 0.95670 0.32710 0.07500
H 	H 	0.08400 0.95790 0.32260 0.00000
C 	C 	0.03750 0.92580 0.35230 -0.15900
H 	H 	0.05540 0.90550 0.36480 0.07600
C 	C 	0.99430 0.92390 0.35960 0.09500
H 	H 	0.98300 0.90280 0.37730 0.00000
C 	C 	0.96800 0.95325 0.34070 -0.18400
H 	H 	0.93840 0.95200 0.34480 0.09100
C 	C 	0.98540 0.98396 0.31601 0.17600
N 	N 	0.97275 0.04500 0.28131 -0.10200
C 	C 	0.94431 0.07041 0.26009 0.15500
C 	C 	0.89175 0.09850 0.22839 -0.00200
H 	H 	0.86440 0.10280 0.21730 0.01900
C 	C 	0.92438 0.12637 0.22516 0.00700
H 	H 	0.92400 0.15300 0.21170 0.03400
H 	H 	0.02030 0.10260 0.24600 0.01600
N 	N 	0.95592 0.98778 0.20375 -0.13900
N 	N 	0.90438 0.93634 0.25016 -0.25200
N 	N 	0.95759 0.89208 0.25463 -0.13400
C 	C 	0.02827 0.01382 0.19140 -0.22300
H 	H 	0.03950 0.99240 0.20890 0.11800
C 	C 	0.05450 0.04330 0.17290 0.10500
H 	H 	0.08400 0.04210 0.17740 -0.01500
C 	C 	0.03750 0.07420 0.14770 -0.18100
H 	H 	0.05540 0.09450 0.13520 0.08200
C 	C 	0.99430 0.07610 0.14040 0.10800
H 	H 	0.98300 0.09720 0.12270 -0.00600
C 	C 	0.96800 0.04675 0.15930 -0.19600
H 	H 	0.93840 0.04800 0.15520 0.08900
C 	C 	0.98540 0.01604 0.18399 0.17900
N 	N 	0.97275 0.95500 0.21869 -0.10000
C 	C 	0.94431 0.92959 0.23991 0.15700
C 	C 	0.89175 0.90150 0.27161 -0.00100
H 	H 	0.86440 0.89720 0.28270 0.02000
C 	C 	0.92438 0.87363 0.27484 0.00700
H 	H 	0.92400 0.84700 0.28830 0.03400
H 	H 	0.02030 0.89740 0.25400 0.01600
N 	N 	0.45592 0.48778 0.70375 -0.14000
N 	N 	0.40438 0.43634 0.75016 -0.25400
N 	N 	0.45759 0.39208 0.75463 -0.12800
C 	C 	0.52827 0.51382 0.69140 -0.15400
H 	H 	0.53950 0.49240 0.70890 0.09000
C 	C 	0.55450 0.54330 0.67290 0.05300
H 	H 	0.58400 0.54210 0.67740 0.00600
C 	C 	0.53750 0.57420 0.64770 -0.12300
H 	H 	0.55540 0.59450 0.63520 0.06500
C 	C 	0.49430 0.57610 0.64040 0.05500
H 	H 	0.48300 0.59720 0.62270 0.01000
C 	C 	0.46800 0.54675 0.65930 -0.15800
H 	H 	0.43840 0.54800 0.65520 0.07900
C 	C 	0.48540 0.51604 0.68399 0.14400
N 	N 	0.47275 0.45500 0.71869 -0.10300
C 	C 	0.44431 0.42959 0.73991 0.15400
C 	C 	0.39175 0.40150 0.77161 -0.00000
H 	H 	0.36440 0.39720 0.78270 0.01900
C 	C 	0.42438 0.37363 0.77484 0.00300
H 	H 	0.42400 0.34700 0.78830 0.03500
H 	H 	0.52030 0.39740 0.75400 0.03700
N 	N 	0.04408 0.48778 0.29625 -0.13500
N 	N 	0.09562 0.43634 0.24984 -0.25300
N 	N 	0.04241 0.39208 0.24537 -0.12100
C 	C 	0.97173 0.51382 0.30860 -0.11100
H 	H 	0.96050 0.49240 0.29110 0.07800
C 	C 	0.94550 0.54330 0.32710 0.01500
H 	H 	0.91600 0.54210 0.32260 0.01900
C 	C 	0.96250 0.57420 0.35230 -0.07500
H 	H 	0.94460 0.59450 0.36480 0.05000
C 	C 	0.00570 0.57610 0.35960 0.00800
H 	H 	0.01700 0.59720 0.37730 0.02200
C 	C 	0.03200 0.54675 0.34070 -0.12500
H 	H 	0.06160 0.54800 0.34480 0.06800
C 	C 	0.01460 0.51604 0.31601 0.11100
N 	N 	0.02725 0.45500 0.28131 -0.10600
C 	C 	0.05569 0.42959 0.26009 0.15100
C 	C 	0.10825 0.40150 0.22839 0.00100
H 	H 	0.13560 0.39720 0.21730 0.01800
C 	C 	0.07562 0.37363 0.22516 -0.00100
H 	H 	0.07600 0.34700 0.21170 0.03500
H 	H 	0.97970 0.39740 0.24600 0.05800
N 	N 	0.54408 0.98778 0.79625 -0.13400
N 	N 	0.59562 0.93634 0.74984 -0.25200
N 	N 	0.54241 0.89208 0.74537 -0.12800
C 	C 	0.47173 0.01382 0.80860 -0.18000
H 	H 	0.46050 0.99240 0.79110 0.10700
C 	C 	0.44550 0.04330 0.82710 0.06800
H 	H 	0.41600 0.04210 0.82260 -0.00200
C 	C 	0.46250 0.07420 0.85230 -0.13400
H 	H 	0.44460 0.09450 0.86480 0.06800
C 	C 	0.50570 0.07610 0.85960 0.06200
H 	H 	0.51700 0.09720 0.87730 0.00800
C 	C 	0.53200 0.04675 0.84070 -0.16300
H 	H 	0.56160 0.04800 0.84480 0.07900
C 	C 	0.51460 0.01604 0.81601 0.14600
N 	N 	0.52725 0.95500 0.78131 -0.10200
C 	C 	0.55569 0.92959 0.76009 0.15500
C 	C 	0.60825 0.90150 0.72839 0.00000
H 	H 	0.63560 0.89720 0.71730 0.01900
C 	C 	0.57562 0.87363 0.72516 0.00300
H 	H 	0.57600 0.84700 0.71170 0.03500
H 	H 	0.47970 0.89740 0.74600 0.03700
N 	N 	0.51222 0.79625 0.45592 -0.13900
N 	N 	0.56366 0.74984 0.40438 -0.25400
N 	N 	0.60792 0.74537 0.45759 -0.12800
C 	C 	0.48618 0.80860 0.52827 -0.15400
H 	H 	0.50760 0.79110 0.53950 0.09000
C 	C 	0.45670 0.82710 0.55450 0.05300
H 	H 	0.45790 0.82260 0.58400 0.00600
C 	C 	0.42580 0.85230 0.53750 -0.12200
H 	H 	0.40550 0.86480 0.55540 0.06500
C 	C 	0.42390 0.85960 0.49430 0.05500
H 	H 	0.40280 0.87730 0.48300 0.01000
C 	C 	0.45325 0.84070 0.46800 -0.15800
H 	H 	0.45200 0.84480 0.43840 0.07900
C 	C 	0.48396 0.81601 0.48540 0.14500
N 	N 	0.54500 0.78131 0.47275 -0.10300
C 	C 	0.57041 0.76009 0.44431 0.15400
C 	C 	0.59850 0.72839 0.39175 -0.00000
H 	H 	0.60280 0.71730 0.36440 0.01900
C 	C 	0.62637 0.72516 0.42438 0.00300
H 	H 	0.65300 0.71170 0.42400 0.03400
H 	H 	0.60260 0.74600 0.52030 0.03700
N 	N 	0.01222 0.29625 0.95592 -0.14900
N 	N 	0.06366 0.24984 0.90438 -0.25500
N 	N 	0.10792 0.24537 0.95759 -0.13400
C 	C 	0.98618 0.30860 0.02827 -0.17000
H 	H 	0.00760 0.29110 0.03950 0.08600
C 	C 	0.95670 0.32710 0.05450 0.07500
H 	H 	0.95790 0.32260 0.08400 0.00000
C 	C 	0.92580 0.35230 0.03750 -0.15900
H 	H 	0.90550 0.36480 0.05540 0.07600
C 	C 	0.92390 0.35960 0.99430 0.09500
H 	H 	0.90280 0.37730 0.98300 0.00000
C 	C 	0.95325 0.34070 0.96800 -0.18400
H 	H 	0.95200 0.34480 0.93840 0.09100
C 	C 	0.98396 0.31601 0.98540 0.17600
N 	N 	0.04500 0.28131 0.97275 -0.10200
C 	C 	0.07041 0.26009 0.94431 0.15500
C 	C 	0.09850 0.22839 0.89175 -0.00200
H 	H 	0.10280 0.21730 0.86440 0.01900
C 	C 	0.12637 0.22516 0.92438 0.00700
H 	H 	0.15300 0.21170 0.92400 0.03400
H 	H 	0.10260 0.24600 0.02030 0.01600
N 	N 	0.01222 0.70375 0.54408 -0.14400
N 	N 	0.06366 0.75016 0.59562 -0.25500
N 	N 	0.10792 0.75463 0.54241 -0.12800
C 	C 	0.98618 0.69140 0.47173 -0.12700
H 	H 	0.00760 0.70890 0.46050 0.07400
C 	C 	0.95670 0.67290 0.44550 0.03700
H 	H 	0.95790 0.67740 0.41600 0.01300
C 	C 	0.92580 0.64770 0.46250 -0.11200
H 	H 	0.90550 0.63520 0.44460 0.06200
C 	C 	0.92390 0.64040 0.50570 0.04800
H 	H 	0.90280 0.62270 0.51700 0.01300
C 	C 	0.95325 0.65930 0.53200 -0.15200
H 	H 	0.95200 0.65520 0.56160 0.07900
C 	C 	0.98396 0.68399 0.51460 0.14300
N 	N 	0.04500 0.71869 0.52725 -0.10400
C 	C 	0.07041 0.73991 0.55569 0.15300
C 	C 	0.09850 0.77161 0.60825 -0.00100
H 	H 	0.10280 0.78270 0.63560 0.01800
C 	C 	0.12637 0.77484 0.57562 0.00300
H 	H 	0.15300 0.78830 0.57600 0.03400
H 	H 	0.10260 0.75400 0.47970 0.03700
N 	N 	0.51222 0.20375 0.04408 -0.13500
N 	N 	0.56366 0.25016 0.09562 -0.25300
N 	N 	0.60792 0.25463 0.04241 -0.12100
C 	C 	0.48618 0.19140 0.97173 -0.11100
H 	H 	0.50760 0.20890 0.96050 0.07800
C 	C 	0.45670 0.17290 0.94550 0.01500
H 	H 	0.45790 0.17740 0.91600 0.01900
C 	C 	0.42580 0.14770 0.96250 -0.07600
H 	H 	0.40550 0.13520 0.94460 0.05000
C 	C 	0.42390 0.14040 0.00570 0.00800
H 	H 	0.40280 0.12270 0.01700 0.02200
C 	C 	0.45325 0.15930 0.03200 -0.12600
H 	H 	0.45200 0.15520 0.06160 0.06700
C 	C 	0.48396 0.18399 0.01460 0.11100
N 	N 	0.54500 0.21869 0.02725 -0.10600
C 	C 	0.57041 0.23991 0.05569 0.15100
C 	C 	0.59850 0.27161 0.10825 0.00100
H 	H 	0.60280 0.28270 0.13560 0.01800
C 	C 	0.62637 0.27484 0.07562 -0.00100
H 	H 	0.65300 0.28830 0.07600 0.03500
H 	H 	0.60260 0.25400 0.97970 0.05800
N 	N 	0.48778 0.29625 0.04408 -0.13500
N 	N 	0.43634 0.24984 0.09562 -0.25300
N 	N 	0.39208 0.24537 0.04241 -0.12100
C 	C 	0.51382 0.30860 0.97173 -0.11100
H 	H 	0.49240 0.29110 0.96050 0.07800
C 	C 	0.54330 0.32710 0.94550 0.01500
H 	H 	0.54210 0.32260 0.91600 0.01900
C 	C 	0.57420 0.35230 0.96250 -0.07500
H 	H 	0.59450 0.36480 0.94460 0.05000
C 	C 	0.57610 0.35960 0.00570 0.00800
H 	H 	0.59720 0.37730 0.01700 0.02200
C 	C 	0.54675 0.34070 0.03200 -0.12500
H 	H 	0.54800 0.34480 0.06160 0.06800
C 	C 	0.51604 0.31601 0.01460 0.11100
N 	N 	0.45500 0.28131 0.02725 -0.10600
C 	C 	0.42959 0.26009 0.05569 0.15100
C 	C 	0.40150 0.22839 0.10825 0.00100
H 	H 	0.39720 0.21730 0.13560 0.01800
C 	C 	0.37363 0.22516 0.07562 -0.00100
H 	H 	0.34700 0.21170 0.07600 0.03500
H 	H 	0.39740 0.24600 0.97970 0.05800
N 	N 	0.98778 0.79625 0.54408 -0.13400
N 	N 	0.93634 0.74984 0.59562 -0.25200
N 	N 	0.89208 0.74537 0.54241 -0.12800
C 	C 	0.01382 0.80860 0.47173 -0.18000
H 	H 	0.99240 0.79110 0.46050 0.10700
C 	C 	0.04330 0.82710 0.44550 0.06800
H 	H 	0.04210 0.82260 0.41600 -0.00200
C 	C 	0.07420 0.85230 0.46250 -0.13400
H 	H 	0.09450 0.86480 0.44460 0.06800
C 	C 	0.07610 0.85960 0.50570 0.06200
H 	H 	0.09720 0.87730 0.51700 0.00800
C 	C 	0.04675 0.84070 0.53200 -0.16300
H 	H 	0.04800 0.84480 0.56160 0.07900
C 	C 	0.01604 0.81601 0.51460 0.14600
N 	N 	0.95500 0.78131 0.52725 -0.10200
C 	C 	0.92959 0.76009 0.55569 0.15500
C 	C 	0.90150 0.72839 0.60825 0.00000
H 	H 	0.89720 0.71730 0.63560 0.01900
C 	C 	0.87363 0.72516 0.57562 0.00300
H 	H 	0.84700 0.71170 0.57600 0.03500
H 	H 	0.89740 0.74600 0.47970 0.03700
N 	N 	0.98778 0.20375 0.95592 -0.13900
N 	N 	0.93634 0.25016 0.90438 -0.25200
N 	N 	0.89208 0.25463 0.95759 -0.13400
C 	C 	0.01382 0.19140 0.02827 -0.22300
H 	H 	0.99240 0.20890 0.03950 0.11800
C 	C 	0.04330 0.17290 0.05450 0.10500
H 	H 	0.04210 0.17740 0.08400 -0.01500
C 	C 	0.07420 0.14770 0.03750 -0.18100
H 	H 	0.09450 0.13520 0.05540 0.08200
C 	C 	0.07610 0.14040 0.99430 0.10800
H 	H 	0.09720 0.12270 0.98300 -0.00600
C 	C 	0.04675 0.15930 0.96800 -0.19600
H 	H 	0.04800 0.15520 0.93840 0.08900
C 	C 	0.01604 0.18399 0.98540 0.17900
N 	N 	0.95500 0.21869 0.97275 -0.10000
C 	C 	0.92959 0.23991 0.94431 0.15700
C 	C 	0.90150 0.27161 0.89175 -0.00100
H 	H 	0.89720 0.28270 0.86440 0.02000
C 	C 	0.87363 0.27484 0.92438 0.00700
H 	H 	0.84700 0.28830 0.92400 0.03400
H 	H 	0.89740 0.25400 0.02030 0.01600
N 	N 	0.48778 0.70375 0.45592 -0.14000
N 	N 	0.43634 0.75016 0.40438 -0.25400
N 	N 	0.39208 0.75463 0.45759 -0.12800
C 	C 	0.51382 0.69140 0.52827 -0.15400
H 	H 	0.49240 0.70890 0.53950 0.09000
C 	C 	0.54330 0.67290 0.55450 0.05300
H 	H 	0.54210 0.67740 0.58400 0.00600
C 	C 	0.57420 0.64770 0.53750 -0.12300
H 	H 	0.59450 0.63520 0.55540 0.06500
C 	C 	0.57610 0.64040 0.49430 0.05500
H 	H 	0.59720 0.62270 0.48300 0.01000
C 	C 	0.54675 0.65930 0.46800 -0.15800
H 	H 	0.54800 0.65520 0.43840 0.07900
C 	C 	0.51604 0.68399 0.48540 0.14400
N 	N 	0.45500 0.71869 0.47275 -0.10300
C 	C 	0.42959 0.73991 0.44431 0.15400
C 	C 	0.40150 0.77161 0.39175 -0.00000
H 	H 	0.39720 0.78270 0.36440 0.01900
C 	C 	0.37363 0.77484 0.42438 0.00300
H 	H 	0.34700 0.78830 0.42400 0.03500
H 	H 	0.39740 0.75400 0.52030 0.03700
Cd	Cd	0.62500 0.00000 0.75000 1.19100
Cd	Cd	0.87500 0.00000 0.25000 1.19100
Cd	Cd	0.37500 0.50000 0.75000 1.19500
Cd	Cd	0.12500 0.50000 0.25000 1.19500
Cd	Cd	0.75000 0.62500 -0.00000 1.19100
Cd	Cd	0.25000 0.87500 -0.00000 1.19100
Cd	Cd	0.75000 0.37500 0.50000 1.19500
Cd	Cd	0.25000 0.12500 0.50000 1.19500
Cd	Cd	-0.00000 0.75000 0.62500 1.19100
Cd	Cd	0.00000 0.25000 0.87500 1.19100
Cd	Cd	0.50000 0.75000 0.37500 1.19500
Cd	Cd	0.50000 0.25000 0.12500 1.19500
Cd	Cd	0.75000 0.87500 0.50000 1.19400
Cd	Cd	0.75000 0.12500 -0.00000 1.19100
Cd	Cd	0.25000 0.62500 0.50000 1.19400
Cd	Cd	0.25000 0.37500 -0.00000 1.19100
Cd	Cd	0.37500 0.00000 0.25000 1.19100
Cd	Cd	0.62500 0.50000 0.25000 1.19400
Cd	Cd	0.12500 0.00000 0.75000 1.19100
Cd	Cd	0.87500 0.50000 0.75000 1.19400
Cd	Cd	0.50000 0.25000 0.62500 1.19400
Cd	Cd	0.00000 0.25000 0.37500 1.19100
Cd	Cd	0.50000 0.75000 0.87500 1.19400
Cd	Cd	0.00000 0.75000 0.12500 1.19100
C 	C 	0.74919 0.99919 0.62500 0.07500
C 	C 	0.24919 0.49919 0.12500 0.02400
C 	C 	0.75081 0.00081 0.12500 -0.02700
C 	C 	0.25081 0.50081 0.62500 0.02400
C 	C 	0.25081 0.49919 0.87500 0.02400
C 	C 	0.75081 0.99919 0.37500 0.07500
C 	C 	0.24919 0.50081 0.37500 0.02400
C 	C 	0.74919 0.00081 0.87500 -0.02700
C 	C 	0.62500 0.74919 0.99919 0.07500
C 	C 	0.12500 0.24919 0.49919 0.02400
C 	C 	0.12500 0.75081 0.00081 -0.02700
C 	C 	0.62500 0.25081 0.50081 0.02400
C 	C 	0.87500 0.25081 0.49919 0.02400
C 	C 	0.37500 0.75081 0.99919 0.07500
C 	C 	0.37500 0.24919 0.50081 0.02400
C 	C 	0.87500 0.74919 0.00081 -0.02700
C 	C 	0.99919 0.62500 0.74919 0.07500
C 	C 	0.49919 0.12500 0.24919 0.02400
C 	C 	0.00081 0.12500 0.75081 -0.02700
C 	C 	0.50081 0.62500 0.25081 0.02400
C 	C 	0.49919 0.87500 0.25081 0.02400
C 	C 	0.99919 0.37500 0.75081 0.07500
C 	C 	0.50081 0.37500 0.24919 0.02400
C 	C 	0.00081 0.87500 0.74919 -0.02700
C 	C 	0.25081 0.00081 0.37500 -0.02800
C 	C 	0.75081 0.50081 0.87500 0.02400
C 	C 	0.24919 0.99919 0.87500 0.07500
C 	C 	0.74919 0.49919 0.37500 0.02400
C 	C 	0.74919 0.50081 0.12500 0.02400
C 	C 	0.24919 0.00081 0.62500 -0.02800
C 	C 	0.75081 0.49919 0.62500 0.02400
C 	C 	0.25081 0.99919 0.12500 0.07500
C 	C 	0.37500 0.25081 0.00081 -0.02800
C 	C 	0.87500 0.75081 0.50081 0.02400
C 	C 	0.87500 0.24919 0.99919 0.07500
C 	C 	0.37500 0.74919 0.49919 0.02400
C 	C 	0.12500 0.74919 0.50081 0.02400
C 	C 	0.62500 0.24919 0.00081 -0.02800
C 	C 	0.62500 0.75081 0.49919 0.02400
C 	C 	0.12500 0.25081 0.99919 0.07500
C 	C 	0.00081 0.37500 0.25081 -0.02800
C 	C 	0.50081 0.87500 0.75081 0.02400
C 	C 	0.99919 0.87500 0.24919 0.07500
C 	C 	0.49919 0.37500 0.74919 0.02400
C 	C 	0.50081 0.12500 0.74919 0.02400
C 	C 	0.00081 0.62500 0.24919 -0.02800
C 	C 	0.49919 0.62500 0.75081 0.02400
C 	C 	0.99919 0.12500 0.25081 0.07500
