data_crystal

_cell_length_a 9.14000
_cell_length_b 11.15380
_cell_length_c 11.27160
_cell_angle_alpha 77.26100
_cell_angle_beta  68.45300
_cell_angle_gamma 78.84300

_symmetry_space_group_name_	'P 1'
_symmetry_space_group_name_H-M	'P 1'

loop_
_symmetry_equiv_pos_as_xyz
  x,y,z

loop_
_atom_site_label
_atom_site_type_symbol
_atom_site_fract_x
_atom_site_fract_y
_atom_site_fract_z
_atom_site_charge
Nd	Nd	0.73063 0.01791 0.01935 1.94700
S 	S 	0.69499 0.11981 0.49523 0.03400
O 	O 	0.42870 0.07200 0.75280 -0.49900
C 	C 	0.55750 0.07290 0.76650 0.48000
S 	S 	0.91645 0.73610 0.43742 0.04900
O 	O 	0.57030 0.04640 0.87810 -0.59300
C 	C 	0.70620 0.10120 0.65340 -0.40200
H 	H 	0.79020 0.03500 0.66040 0.14200
H 	H 	0.73710 0.17670 0.66150 0.14800
S 	S 	0.84860 0.55392 0.87540 0.02500
O 	O 	0.94160 0.89600 0.09400 -0.57100
C 	C 	0.71140 0.95880 0.48160 -0.11900
H 	H 	0.64610 0.91480 0.56220 0.05300
H 	H 	0.67290 0.95300 0.41380 0.06400
O 	O 	0.14430 0.81700 0.15780 -0.51400
C 	C 	0.88280 0.89850 0.45060 -0.14200
H 	H 	0.92080 0.90800 0.51750 0.06200
H 	H 	0.94630 0.94330 0.36970 0.07500
O 	O 	0.91490 0.90360 0.83450 -0.44500
C 	C 	0.89440 0.74220 0.28340 -0.41700
H 	H 	0.91600 0.65870 0.26410 0.14400
H 	H 	0.78510 0.77250 0.29070 0.15700
O 	O 	0.73350 0.79580 0.98450 -0.43500
C 	C 	0.00090 0.82300 0.17180 0.50000
C 	C 	0.91270 0.51360 0.01790 -0.12300
H 	H 	0.87550 0.58180 0.06640 0.06600
H 	H 	0.86460 0.44170 0.07340 0.04400
C 	C 	0.91660 0.69920 0.80280 -0.32000
H 	H 	0.03080 0.68800 0.78070 0.10700
H 	H 	0.89450 0.72460 0.72240 0.11400
C 	C 	0.84880 0.80540 0.88050 0.36900
Nd	Nd	0.26937 0.98209 0.98065 1.94700
S 	S 	0.30501 0.88019 0.50477 0.03400
O 	O 	0.57130 0.92800 0.24720 -0.49900
C 	C 	0.44250 0.92710 0.23350 0.48000
S 	S 	0.08355 0.26390 0.56258 0.04900
O 	O 	0.42970 0.95360 0.12190 -0.59300
C 	C 	0.29380 0.89880 0.34660 -0.40200
H 	H 	0.20980 0.96500 0.33960 0.14200
H 	H 	0.26290 0.82330 0.33850 0.14800
S 	S 	0.15140 0.44608 0.12460 0.02500
O 	O 	0.05840 0.10400 0.90600 -0.57100
C 	C 	0.28860 0.04120 0.51840 -0.11900
H 	H 	0.35390 0.08520 0.43780 0.05300
H 	H 	0.32710 0.04700 0.58620 0.06400
O 	O 	0.85570 0.18300 0.84220 -0.51400
C 	C 	0.11720 0.10150 0.54940 -0.14200
H 	H 	0.07920 0.09200 0.48250 0.06200
H 	H 	0.05370 0.05670 0.63030 0.07500
O 	O 	0.08510 0.09640 0.16550 -0.44500
C 	C 	0.10560 0.25780 0.71660 -0.41700
H 	H 	0.08400 0.34130 0.73590 0.14400
H 	H 	0.21490 0.22750 0.70930 0.15700
O 	O 	0.26650 0.20420 0.01550 -0.43500
C 	C 	0.99910 0.17700 0.82820 0.50000
C 	C 	0.08730 0.48640 0.98210 -0.12300
H 	H 	0.12450 0.41820 0.93360 0.06600
H 	H 	0.13540 0.55830 0.92660 0.04400
C 	C 	0.08340 0.30080 0.19720 -0.32000
H 	H 	0.96920 0.31200 0.21930 0.10700
H 	H 	0.10550 0.27540 0.27760 0.11400
C 	C 	0.15120 0.19460 0.11950 0.36900
