data_crystal

_cell_length_a 9.12580
_cell_length_b 11.13800
_cell_length_c 11.32620
_cell_angle_alpha 77.31700
_cell_angle_beta  68.68100
_cell_angle_gamma 79.25000

_symmetry_space_group_name_	'P 1'
_symmetry_space_group_name_H-M	'P 1'

loop_
_symmetry_equiv_pos_as_xyz
  x,y,z

loop_
_atom_site_label
_atom_site_type_symbol
_atom_site_fract_x
_atom_site_fract_y
_atom_site_fract_z
_atom_site_charge
La	La	0.23463 0.51922 0.51840 1.59200
S 	S 	0.19640 0.61900 0.99609 0.05200
S 	S 	0.41181 0.23535 0.93975 0.05200
S 	S 	0.34838 0.05074 0.37636 0.03900
O 	O 	0.06750 0.54670 0.37640 -0.51400
O 	O 	0.41690 0.40030 0.33170 -0.40500
O 	O 	0.92770 0.57560 0.24980 -0.44200
O 	O 	0.23670 0.29270 0.48230 -0.39100
O 	O 	0.64810 0.30830 0.66580 -0.44300
O 	O 	0.45340 0.39520 0.59510 -0.50700
C 	C 	0.41350 0.01260 0.51740 -0.12400
H 	H 	0.37590 0.08110 0.56510 0.06900
H 	H 	0.36610 0.94030 0.57310 0.05100
C 	C 	0.20600 0.60030 0.15460 -0.41600
H 	H 	0.28850 0.53340 0.16270 0.15300
H 	H 	0.23820 0.67550 0.16280 0.16100
C 	C 	0.38110 0.39790 0.95290 -0.13600
H 	H 	0.41890 0.40700 0.01980 0.06000
H 	H 	0.44520 0.44270 0.87260 0.07300
C 	C 	0.21050 0.45770 0.98280 -0.13400
H 	H 	0.14460 0.41380 0.06280 0.06300
H 	H 	0.17200 0.45200 0.91510 0.07200
C 	C 	0.39200 0.24310 0.78520 -0.41300
H 	H 	0.40840 0.15960 0.76690 0.15000
H 	H 	0.28460 0.27750 0.79000 0.16100
C 	C 	0.41560 0.19620 0.30200 -0.35500
H 	H 	0.53000 0.18570 0.27830 0.12900
H 	H 	0.39110 0.22090 0.22300 0.12800
C 	C 	0.05600 0.57330 0.26540 0.44700
C 	C 	0.35040 0.30210 0.37850 0.37500
C 	C 	0.50600 0.32000 0.67540 0.45200
La	La	0.76537 0.48078 0.48160 1.59300
S 	S 	0.80360 0.38100 0.00391 0.05300
S 	S 	0.58819 0.76465 0.06025 0.05200
S 	S 	0.65162 0.94926 0.62364 0.03900
O 	O 	0.93250 0.45330 0.62360 -0.51400
O 	O 	0.58310 0.59970 0.66830 -0.40500
O 	O 	0.07230 0.42440 0.75020 -0.44200
O 	O 	0.76330 0.70730 0.51770 -0.39100
O 	O 	0.35190 0.69170 0.33420 -0.44300
O 	O 	0.54660 0.60480 0.40490 -0.50700
C 	C 	0.58650 0.98740 0.48260 -0.12400
H 	H 	0.62410 0.91890 0.43490 0.06900
H 	H 	0.63390 0.05970 0.42690 0.05100
C 	C 	0.79400 0.39970 0.84540 -0.41600
H 	H 	0.71150 0.46660 0.83730 0.15300
H 	H 	0.76180 0.32450 0.83720 0.16100
C 	C 	0.61890 0.60210 0.04710 -0.13600
H 	H 	0.58110 0.59300 0.98020 0.06000
H 	H 	0.55480 0.55730 0.12740 0.07300
C 	C 	0.78950 0.54230 0.01720 -0.13400
H 	H 	0.85540 0.58620 0.93720 0.06300
H 	H 	0.82800 0.54800 0.08490 0.07200
C 	C 	0.60800 0.75690 0.21480 -0.41300
H 	H 	0.59160 0.84040 0.23310 0.15000
H 	H 	0.71540 0.72250 0.21000 0.16100
C 	C 	0.58440 0.80380 0.69800 -0.35500
H 	H 	0.47000 0.81430 0.72170 0.12900
H 	H 	0.60890 0.77910 0.77700 0.12800
C 	C 	0.94400 0.42670 0.73460 0.44700
C 	C 	0.64960 0.69790 0.62150 0.37500
C 	C 	0.49400 0.68000 0.32460 0.45200
