data_crystal

_cell_length_a 9.17420
_cell_length_b 11.11530
_cell_length_c 11.17140
_cell_angle_alpha 77.00900
_cell_angle_beta  68.08200
_cell_angle_gamma 78.22200

_symmetry_space_group_name_	'P 1'
_symmetry_space_group_name_H-M	'P 1'

loop_
_symmetry_equiv_pos_as_xyz
  x,y,z

loop_
_atom_site_label
_atom_site_type_symbol
_atom_site_fract_x
_atom_site_fract_y
_atom_site_fract_z
_atom_site_charge
Gd	Gd	0.72540 0.51598 0.02028 1.48600
C 	C 	0.00600 0.67280 0.83330 0.50000
S 	S 	0.84780 0.05570 0.87611 0.04500
C 	C 	0.10350 0.75750 0.71880 -0.42600
H 	H 	0.21460 0.73070 0.70760 0.16600
H 	H 	0.07750 0.84120 0.73950 0.15100
C 	C 	0.11440 0.59950 0.55320 -0.13600
H 	H 	0.05270 0.55430 0.63560 0.07600
H 	H 	0.07670 0.58870 0.48650 0.05900
S 	S 	0.30642 0.37908 0.50674 0.05500
O 	O 	0.91230 0.40510 0.83770 -0.39000
S 	S 	0.07667 0.76291 0.56563 0.05200
O 	O 	0.72940 0.29850 0.98420 -0.38200
C 	C 	0.28670 0.54130 0.52060 -0.13600
H 	H 	0.32510 0.54770 0.58860 0.07400
H 	H 	0.35060 0.58600 0.43870 0.06500
O 	O 	0.56770 0.43190 0.24450 -0.45000
C 	C 	0.29320 0.39740 0.34740 -0.41900
H 	H 	0.26540 0.32070 0.33930 0.15800
H 	H 	0.20680 0.46260 0.34180 0.15600
O 	O 	0.86350 0.67250 0.85160 -0.45800
C 	C 	0.43890 0.42830 0.23270 0.47400
C 	C 	0.91280 0.01530 0.01820 -0.12700
H 	H 	0.87730 0.08470 0.06610 0.07000
H 	H 	0.86340 0.94430 0.07580 0.05200
O 	O 	0.07510 0.60520 0.90740 -0.49600
C 	C 	0.91510 0.20130 0.80310 -0.33900
H 	H 	0.02930 0.18960 0.78120 0.12100
H 	H 	0.89400 0.22720 0.72160 0.12300
C 	C 	0.84580 0.30740 0.88190 0.38400
O 	O 	0.42500 0.45320 0.12140 -0.50700
Gd	Gd	0.27460 0.48402 0.97972 1.48500
C 	C 	0.99400 0.32720 0.16670 0.49900
S 	S 	0.15220 0.94430 0.12389 0.04500
C 	C 	0.89650 0.24250 0.28120 -0.42600
H 	H 	0.78540 0.26930 0.29240 0.16600
H 	H 	0.92250 0.15880 0.26050 0.15100
C 	C 	0.88560 0.40050 0.44680 -0.13600
H 	H 	0.94730 0.44570 0.36440 0.07600
H 	H 	0.92330 0.41130 0.51350 0.05900
S 	S 	0.69358 0.62092 0.49326 0.05500
O 	O 	0.08770 0.59490 0.16230 -0.39000
S 	S 	0.92333 0.23709 0.43437 0.05200
O 	O 	0.27060 0.70150 0.01580 -0.38200
C 	C 	0.71330 0.45870 0.47940 -0.13600
H 	H 	0.67490 0.45230 0.41140 0.07400
H 	H 	0.64940 0.41400 0.56130 0.06500
O 	O 	0.43230 0.56810 0.75550 -0.45000
C 	C 	0.70680 0.60260 0.65260 -0.41900
H 	H 	0.73460 0.67930 0.66070 0.15800
H 	H 	0.79320 0.53740 0.65820 0.15600
O 	O 	0.13650 0.32750 0.14840 -0.45800
C 	C 	0.56110 0.57170 0.76730 0.47400
C 	C 	0.08720 0.98470 0.98180 -0.12700
H 	H 	0.12270 0.91530 0.93390 0.07000
H 	H 	0.13660 0.05570 0.92420 0.05200
O 	O 	0.92490 0.39480 0.09260 -0.49600
C 	C 	0.08490 0.79870 0.19690 -0.33900
H 	H 	0.97070 0.81040 0.21880 0.12100
H 	H 	0.10600 0.77280 0.27840 0.12300
C 	C 	0.15420 0.69260 0.11810 0.38400
O 	O 	0.57500 0.54680 0.87860 -0.50700
