data_crystal

_cell_length_a 9.16860
_cell_length_b 11.11450
_cell_length_c 11.18990
_cell_angle_alpha 77.15600
_cell_angle_beta  68.19500
_cell_angle_gamma 78.35000

_symmetry_space_group_name_	'P 1'
_symmetry_space_group_name_H-M	'P 1'

loop_
_symmetry_equiv_pos_as_xyz
  x,y,z

loop_
_atom_site_label
_atom_site_type_symbol
_atom_site_fract_x
_atom_site_fract_y
_atom_site_fract_z
_atom_site_charge
Eu	Eu	0.72641 0.51635 0.52012 1.82400
S 	S 	0.07780 0.76299 0.06503 0.05400
O 	O 	0.86190 0.67440 0.34890 -0.51600
C 	C 	0.00550 0.67360 0.33190 0.53500
S 	S 	0.30590 0.37920 0.00618 0.04900
O 	O 	0.07210 0.60500 0.40570 -0.56700
C 	C 	0.10340 0.75830 0.21720 -0.44000
H 	H 	0.21440 0.73180 0.20650 0.16500
H 	H 	0.07720 0.84210 0.23760 0.15300
S 	S 	0.84850 0.05550 0.37540 0.02800
O 	O 	0.42590 0.45320 0.62150 -0.58400
C 	C 	0.11480 0.60060 0.05140 -0.14200
H 	H 	0.05200 0.55540 0.13300 0.07400
H 	H 	0.07740 0.59070 0.98410 0.06100
O 	O 	0.56790 0.43150 0.74490 -0.49700
C 	C 	0.28610 0.54040 0.01980 -0.13100
H 	H 	0.32430 0.54680 0.08790 0.06800
H 	H 	0.35080 0.58460 0.93830 0.06000
O 	O 	0.72920 0.29860 0.48520 -0.42000
C 	C 	0.29390 0.39800 0.84710 -0.42700
H 	H 	0.26490 0.32180 0.83890 0.15700
H 	H 	0.20810 0.46380 0.84140 0.15400
O 	O 	0.91310 0.40550 0.33670 -0.42700
C 	C 	0.43890 0.42790 0.73270 0.49900
C 	C 	0.84550 0.30760 0.38200 0.36900
C 	C 	0.91590 0.20010 0.30270 -0.32800
H 	H 	0.03000 0.18850 0.28130 0.11700
H 	H 	0.89510 0.22560 0.22120 0.11700
C 	C 	0.91350 0.01440 0.51770 -0.12000
H 	H 	0.87680 0.08320 0.56650 0.06600
H 	H 	0.86500 0.94280 0.57420 0.04700
Eu	Eu	0.27359 0.48365 0.47988 1.82500
S 	S 	0.92220 0.23701 0.93497 0.05500
O 	O 	0.13810 0.32560 0.65110 -0.51500
C 	C 	0.99450 0.32640 0.66810 0.53600
S 	S 	0.69410 0.62080 0.99382 0.04900
O 	O 	0.92790 0.39500 0.59430 -0.56700
C 	C 	0.89660 0.24170 0.78280 -0.44000
H 	H 	0.78560 0.26820 0.79350 0.16500
H 	H 	0.92280 0.15790 0.76240 0.15300
S 	S 	0.15150 0.94450 0.62460 0.02800
O 	O 	0.57410 0.54680 0.37850 -0.58400
C 	C 	0.88520 0.39940 0.94860 -0.14200
H 	H 	0.94800 0.44460 0.86700 0.07400
H 	H 	0.92260 0.40930 0.01590 0.06100
O 	O 	0.43210 0.56850 0.25510 -0.49700
C 	C 	0.71390 0.45960 0.98020 -0.13100
H 	H 	0.67570 0.45320 0.91210 0.06800
H 	H 	0.64920 0.41540 0.06170 0.06000
O 	O 	0.27080 0.70140 0.51480 -0.42000
C 	C 	0.70610 0.60200 0.15290 -0.42700
H 	H 	0.73510 0.67820 0.16110 0.15700
H 	H 	0.79190 0.53620 0.15860 0.15400
O 	O 	0.08690 0.59450 0.66330 -0.42700
C 	C 	0.56110 0.57210 0.26730 0.49900
C 	C 	0.15450 0.69240 0.61800 0.36900
C 	C 	0.08410 0.79990 0.69730 -0.32800
H 	H 	0.97000 0.81150 0.71870 0.11700
H 	H 	0.10490 0.77440 0.77880 0.11700
C 	C 	0.08650 0.98560 0.48230 -0.12000
H 	H 	0.12320 0.91680 0.43350 0.06600
H 	H 	0.13500 0.05720 0.42580 0.04700
