data_crystal

_cell_length_a 24.35840
_cell_length_b 23.84850
_cell_length_c 17.19870
_cell_angle_alpha 90.00000
_cell_angle_beta  93.46500
_cell_angle_gamma 90.00000

_symmetry_space_group_name_	'P 1'
_symmetry_space_group_name_H-M	'P 1'

loop_
_symmetry_equiv_pos_as_xyz
  x,y,z

loop_
_atom_site_label
_atom_site_type_symbol
_atom_site_fract_x
_atom_site_fract_y
_atom_site_fract_z
_atom_site_charge
Zn	Zn	0.14194 0.06619 0.31002 1.21500
O 	O 	0.24350 0.07150 0.20760 -0.50700
O 	O 	0.19690 0.12000 0.29920 -0.49900
O 	O 	0.06830 0.10180 0.29540 -0.50400
O 	O 	0.02860 0.93700 0.19000 -0.50400
O 	O 	0.14390 0.04630 0.42080 -0.51100
O 	O 	0.36450 0.85000 0.70600 -0.10400
O 	O 	0.41930 0.77640 0.71800 -0.10200
O 	O 	0.39250 0.63130 0.89410 -0.16200
O 	O 	0.33660 0.64250 0.99000 -0.14200
O 	O 	0.51640 0.15540 0.82700 -0.10400
O 	O 	0.48150 0.20530 0.92100 -0.12500
O 	O 	0.35130 0.03540 0.76400 -0.13400
N 	N 	0.23810 0.89060 0.83320 -0.07300
N 	N 	0.27990 0.86290 0.79960 -0.15900
H 	H 	0.29440 0.87910 0.75980 0.14900
N 	N 	0.37720 0.80310 0.73180 -0.00700
N 	N 	0.35780 0.65680 0.93000 -0.01000
N 	N 	0.38070 0.16500 0.06410 -0.06000
N 	N 	0.41220 0.16390 -0.00000 -0.13900
H 	H 	0.43580 0.19100 0.99240 0.14900
N 	N 	0.48300 0.16390 0.87730 -0.00500
C 	C 	0.23040 0.11410 0.24690 0.36200
C 	C 	0.27260 0.16040 0.24450 -0.05800
C 	C 	0.27760 0.20040 0.30330 -0.00600
H 	H 	0.25340 0.19970 0.34450 0.05900
C 	C 	0.31810 0.24140 0.30170 -0.04400
H 	H 	0.32150 0.26870 0.34190 0.05500
C 	C 	0.35360 0.24240 0.24140 -0.02200
C 	C 	0.34850 0.20240 0.18260 0.03000
C 	C 	0.30810 0.16140 0.18410 -0.03300
H 	H 	0.30460 0.13410 0.14390 0.07100
C 	C 	0.13840 0.99180 0.03770 0.12100
C 	C 	0.09733 0.01855 0.90330 -0.17600
H 	H 	0.06660 0.03420 0.92680 0.10300
C 	C 	0.09710 0.01415 0.82270 -0.09800
H 	H 	0.06620 0.02680 0.79110 0.06100
C 	C 	0.14220 0.99120 0.78820 -0.02500
C 	C 	0.18737 0.97270 0.83430 0.02500
C 	C 	0.18760 0.97706 0.91490 -0.02700
H 	H 	0.21850 0.96440 0.94650 0.06000
C 	C 	0.03040 0.09850 0.24160 0.46500
C 	C 	0.98640 0.13620 0.24600 -0.19900
C 	C 	0.94650 0.13795 0.18460 0.11100
H 	H 	0.94770 0.11170 0.14320 0.02400
C 	C 	0.90507 0.17802 0.18390 -0.15200
H 	H 	0.87780 0.17920 0.14200 0.10300
C 	C 	0.40344 0.28361 0.24460 0.10500
C 	C 	0.44330 0.28530 0.30590 -0.14900
H 	H 	0.44220 0.25910 0.34740 0.09900
C 	C 	0.98470 0.17460 0.30660 0.11300
H 	H 	0.01200 0.17350 0.34850 0.01900
C 	C 	0.14280 0.04890 0.58030 0.08800
H 	H 	0.14030 0.08330 0.55250 0.02100
C 	C 	0.14322 0.04920 0.66020 -0.14100
H 	H 	0.14210 0.08400 0.68710 0.08600
C 	C 	0.22688 0.93432 0.79680 -0.00100
H 	H 	0.24210 0.94290 0.74860 0.05700
C 	C 	0.30160 0.81010 0.82380 0.06900
C 	C 	0.34120 0.77790 0.78970 0.06900
C 	C 	0.35960 0.72830 0.82460 -0.11600
H 	H 	0.38660 0.70630 0.80130 0.10800
C 	C 	0.33830 0.71077 0.89380 0.10400
C 	C 	0.29870 0.74292 0.92800 -0.07700
H 	H 	0.28420 0.73090 0.97520 0.06600
C 	C 	0.28030 0.79255 0.89300 -0.05000
H 	H 	0.25330 0.81450 0.91640 0.06800
C 	C 	0.37846 0.20784 0.11140 0.00400
H 	H 	0.39600 0.24210 0.09970 0.06100
C 	C 	0.40630 0.12050 0.94810 0.06500
C 	C 	0.44060 0.11990 0.88600 0.08000
C 	C 	0.43240 0.08070 0.82720 -0.13200
H 	H 	0.45590 0.08030 0.78500 0.13000
C 	C 	0.38990 0.04200 0.82950 0.14200
C 	C 	0.35560 0.04250 0.89120 -0.05100
H 	H 	0.32650 0.01600 0.89280 0.01800
C 	C 	0.36370 0.08180 0.95050 -0.05900
H 	H 	0.34030 0.08210 0.99260 0.06400
Zn	Zn	0.64194 0.56619 0.31002 1.21700
O 	O 	0.74350 0.57150 0.20760 -0.50300
O 	O 	0.69690 0.62000 0.29920 -0.49700
O 	O 	0.56830 0.60180 0.29540 -0.50200
O 	O 	0.52860 0.43700 0.19000 -0.51000
O 	O 	0.64390 0.54630 0.42080 -0.51300
O 	O 	0.86450 0.35000 0.70600 -0.10500
O 	O 	0.91930 0.27640 0.71800 -0.10100
O 	O 	0.89250 0.13130 0.89410 -0.16200
O 	O 	0.83660 0.14250 0.99000 -0.14000
O 	O 	0.01640 0.65540 0.82700 -0.10200
O 	O 	0.98150 0.70530 0.92100 -0.12400
O 	O 	0.85130 0.53540 0.76400 -0.13300
N 	N 	0.73810 0.39060 0.83320 -0.07200
N 	N 	0.77990 0.36290 0.79960 -0.15800
H 	H 	0.79440 0.37910 0.75980 0.14900
N 	N 	0.87720 0.30310 0.73180 -0.00700
N 	N 	0.85780 0.15680 0.93000 -0.01000
N 	N 	0.88070 0.66500 0.06410 -0.06000
N 	N 	0.91220 0.66390 -0.00000 -0.13700
H 	H 	0.93580 0.69100 0.99240 0.14900
N 	N 	0.98300 0.66390 0.87730 -0.00600
C 	C 	0.73040 0.61410 0.24690 0.36100
C 	C 	0.77260 0.66040 0.24450 -0.05700
C 	C 	0.77760 0.70040 0.30330 -0.00600
H 	H 	0.75340 0.69970 0.34450 0.05900
C 	C 	0.81810 0.74140 0.30170 -0.04400
H 	H 	0.82150 0.76870 0.34190 0.05500
C 	C 	0.85360 0.74240 0.24140 -0.02200
C 	C 	0.84850 0.70240 0.18260 0.03100
C 	C 	0.80810 0.66140 0.18410 -0.03300
H 	H 	0.80460 0.63410 0.14390 0.07200
C 	C 	0.63840 0.49180 0.03770 0.16400
C 	C 	0.59733 0.51855 0.90330 -0.01900
H 	H 	0.56660 0.53420 0.92680 0.05600
C 	C 	0.59710 0.51415 0.82270 -0.02600
H 	H 	0.56620 0.52680 0.79110 0.04300
C 	C 	0.64220 0.49120 0.78820 -0.01300
C 	C 	0.68737 0.47270 0.83430 0.01200
C 	C 	0.68760 0.47706 0.91490 -0.02700
H 	H 	0.71850 0.46440 0.94650 0.05600
C 	C 	0.53040 0.59850 0.24160 0.46500
C 	C 	0.48640 0.63620 0.24600 -0.19900
C 	C 	0.44650 0.63795 0.18460 0.11200
H 	H 	0.44770 0.61170 0.14320 0.02100
C 	C 	0.40507 0.67802 0.18390 -0.15400
H 	H 	0.37780 0.67920 0.14200 0.10300
C 	C 	0.90344 0.78361 0.24460 0.10600
C 	C 	0.94330 0.78530 0.30590 -0.14900
H 	H 	0.94220 0.75910 0.34740 0.10000
C 	C 	0.48470 0.67460 0.30660 0.11300
H 	H 	0.51200 0.67350 0.34850 0.02100
C 	C 	0.64280 0.54890 0.58030 0.09600
H 	H 	0.64030 0.58330 0.55250 0.01800
C 	C 	0.64322 0.54920 0.66020 -0.15500
H 	H 	0.64210 0.58400 0.68710 0.09000
C 	C 	0.72688 0.43432 0.79680 0.00300
H 	H 	0.74210 0.44290 0.74860 0.05200
C 	C 	0.80160 0.31010 0.82380 0.06900
C 	C 	0.84120 0.27790 0.78970 0.06900
C 	C 	0.85960 0.22830 0.82460 -0.11600
H 	H 	0.88660 0.20630 0.80130 0.10800
C 	C 	0.83830 0.21077 0.89380 0.10400
C 	C 	0.79870 0.24292 0.92800 -0.07700
H 	H 	0.78420 0.23090 0.97520 0.06600
C 	C 	0.78030 0.29255 0.89300 -0.05000
H 	H 	0.75330 0.31450 0.91640 0.06800
C 	C 	0.87846 0.70784 0.11140 0.00400
H 	H 	0.89600 0.74210 0.09970 0.06100
C 	C 	0.90630 0.62050 0.94810 0.05800
C 	C 	0.94060 0.61990 0.88600 0.08800
C 	C 	0.93240 0.58070 0.82720 -0.14200
H 	H 	0.95590 0.58030 0.78500 0.13400
C 	C 	0.88990 0.54200 0.82950 0.16000
C 	C 	0.85560 0.54250 0.89120 -0.07800
H 	H 	0.82650 0.51600 0.89280 0.05200
C 	C 	0.86370 0.58180 0.95050 -0.04000
H 	H 	0.84030 0.58210 0.99260 0.05900
Zn	Zn	0.14194 0.93381 0.31002 1.21900
O 	O 	0.24350 0.92850 0.20760 -0.49600
O 	O 	0.19690 0.88000 0.29920 -0.49500
O 	O 	0.06830 0.89820 0.29540 -0.49900
O 	O 	0.02860 0.06300 0.19000 -0.51300
O 	O 	0.14390 0.95370 0.42080 -0.49800
O 	O 	0.36450 0.15000 0.70600 -0.10600
O 	O 	0.41930 0.22360 0.71800 -0.10200
O 	O 	0.39250 0.36870 0.89410 -0.16100
O 	O 	0.33660 0.35750 0.99000 -0.14100
O 	O 	0.51640 0.84460 0.82700 -0.10000
O 	O 	0.48150 0.79470 0.92100 -0.12300
O 	O 	0.35130 0.96460 0.76400 -0.12700
N 	N 	0.23810 0.10940 0.83320 -0.07400
N 	N 	0.27990 0.13710 0.79960 -0.15800
H 	H 	0.29440 0.12090 0.75980 0.14800
N 	N 	0.37720 0.19690 0.73180 -0.00700
N 	N 	0.35780 0.34320 0.93000 -0.01000
N 	N 	0.38070 0.83500 0.06410 -0.05900
N 	N 	0.41220 0.83610 -0.00000 -0.13500
H 	H 	0.43580 0.80900 0.99240 0.14800
N 	N 	0.48300 0.83610 0.87730 -0.00700
C 	C 	0.23040 0.88590 0.24690 0.36100
C 	C 	0.27260 0.83960 0.24450 -0.05500
C 	C 	0.27760 0.79960 0.30330 -0.00700
H 	H 	0.25340 0.80030 0.34450 0.06000
C 	C 	0.31810 0.75860 0.30170 -0.04300
H 	H 	0.32150 0.73130 0.34190 0.05500
C 	C 	0.35360 0.75760 0.24140 -0.02200
C 	C 	0.34850 0.79760 0.18260 0.03200
C 	C 	0.30810 0.83860 0.18410 -0.03400
H 	H 	0.30460 0.86590 0.14390 0.07300
C 	C 	0.13840 0.00820 0.03770 0.23400
C 	C 	0.09733 0.98145 0.90330 0.16300
H 	H 	0.06660 0.96580 0.92680 0.00300
C 	C 	0.09710 0.98585 0.82270 0.02900
H 	H 	0.06620 0.97320 0.79110 0.03200
C 	C 	0.14220 0.00880 0.78820 0.01800
C 	C 	0.18737 0.02730 0.83430 -0.01600
C 	C 	0.18760 0.02294 0.91490 0.00000
H 	H 	0.21850 0.03560 0.94650 0.04500
C 	C 	0.03040 0.90150 0.24160 0.46400
C 	C 	0.98640 0.86380 0.24600 -0.19800
C 	C 	0.94650 0.86205 0.18460 0.11100
H 	H 	0.94770 0.88830 0.14320 0.02000
C 	C 	0.90507 0.82198 0.18390 -0.15500
H 	H 	0.87780 0.82080 0.14200 0.10200
C 	C 	0.40344 0.71639 0.24460 0.10600
C 	C 	0.44330 0.71470 0.30590 -0.14900
H 	H 	0.44220 0.74090 0.34740 0.10000
C 	C 	0.98470 0.82540 0.30660 0.11300
H 	H 	0.01200 0.82650 0.34850 0.02000
C 	C 	0.14280 0.95110 0.58030 0.10100
H 	H 	0.14030 0.91670 0.55250 0.01900
C 	C 	0.14322 0.95080 0.66020 -0.12700
H 	H 	0.14210 0.91600 0.68710 0.08200
C 	C 	0.22688 0.06568 0.79680 0.01400
H 	H 	0.24210 0.05710 0.74860 0.04600
C 	C 	0.30160 0.18990 0.82380 0.06900
C 	C 	0.34120 0.22210 0.78970 0.06900
C 	C 	0.35960 0.27170 0.82460 -0.11600
H 	H 	0.38660 0.29370 0.80130 0.10800
C 	C 	0.33830 0.28923 0.89380 0.10400
C 	C 	0.29870 0.25708 0.92800 -0.07600
H 	H 	0.28420 0.26910 0.97520 0.06600
C 	C 	0.28030 0.20745 0.89300 -0.05000
H 	H 	0.25330 0.18550 0.91640 0.06900
C 	C 	0.37846 0.79216 0.11140 0.00400
H 	H 	0.39600 0.75790 0.09970 0.06100
C 	C 	0.40630 0.87950 0.94810 0.05000
C 	C 	0.44060 0.88010 0.88600 0.09600
C 	C 	0.43240 0.91930 0.82720 -0.15400
H 	H 	0.45590 0.91970 0.78500 0.14100
C 	C 	0.38990 0.95800 0.82950 0.18500
C 	C 	0.35560 0.95750 0.89120 -0.10800
H 	H 	0.32650 0.98400 0.89280 0.08600
C 	C 	0.36370 0.91820 0.95050 -0.02000
H 	H 	0.34030 0.91790 0.99260 0.05400
Zn	Zn	0.64194 0.43381 0.31002 1.21700
O 	O 	0.74350 0.42850 0.20760 -0.50300
O 	O 	0.69690 0.38000 0.29920 -0.49700
O 	O 	0.56830 0.39820 0.29540 -0.50200
O 	O 	0.52860 0.56300 0.19000 -0.51000
O 	O 	0.64390 0.45370 0.42080 -0.51300
O 	O 	0.86450 0.65000 0.70600 -0.10500
O 	O 	0.91930 0.72360 0.71800 -0.10100
O 	O 	0.89250 0.86870 0.89410 -0.15700
O 	O 	0.83660 0.85750 0.99000 -0.14000
O 	O 	0.01640 0.34460 0.82700 -0.10200
O 	O 	0.98150 0.29470 0.92100 -0.12400
O 	O 	0.85130 0.46460 0.76400 -0.13300
N 	N 	0.73810 0.60940 0.83320 -0.07200
N 	N 	0.77990 0.63710 0.79960 -0.15800
H 	H 	0.79440 0.62090 0.75980 0.14900
N 	N 	0.87720 0.69690 0.73180 -0.00700
N 	N 	0.85780 0.84320 0.93000 -0.01000
N 	N 	0.88070 0.33500 0.06410 -0.06000
N 	N 	0.91220 0.33610 -0.00000 -0.13700
H 	H 	0.93580 0.30900 0.99240 0.14900
N 	N 	0.98300 0.33610 0.87730 -0.00600
C 	C 	0.73040 0.38590 0.24690 0.36100
C 	C 	0.77260 0.33960 0.24450 -0.05700
C 	C 	0.77760 0.29960 0.30330 -0.00600
H 	H 	0.75340 0.30030 0.34450 0.05900
C 	C 	0.81810 0.25860 0.30170 -0.04400
H 	H 	0.82150 0.23130 0.34190 0.05500
C 	C 	0.85360 0.25760 0.24140 -0.02200
C 	C 	0.84850 0.29760 0.18260 0.03100
C 	C 	0.80810 0.33860 0.18410 -0.03300
H 	H 	0.80460 0.36590 0.14390 0.07200
C 	C 	0.63840 0.50820 0.03770 0.16400
C 	C 	0.59733 0.48145 0.90330 -0.01900
H 	H 	0.56660 0.46580 0.92680 0.05600
C 	C 	0.59710 0.48585 0.82270 -0.02600
H 	H 	0.56620 0.47320 0.79110 0.04300
C 	C 	0.64220 0.50880 0.78820 -0.01300
C 	C 	0.68737 0.52730 0.83430 0.01200
C 	C 	0.68760 0.52294 0.91490 -0.02700
H 	H 	0.71850 0.53560 0.94650 0.05600
C 	C 	0.53040 0.40150 0.24160 0.46500
C 	C 	0.48640 0.36380 0.24600 -0.19900
C 	C 	0.44650 0.36205 0.18460 0.11100
H 	H 	0.44770 0.38830 0.14320 0.02200
C 	C 	0.40507 0.32198 0.18390 -0.15400
H 	H 	0.37780 0.32080 0.14200 0.10300
C 	C 	0.90344 0.21639 0.24460 0.10500
C 	C 	0.94330 0.21470 0.30590 -0.14900
H 	H 	0.94220 0.24090 0.34740 0.10000
C 	C 	0.48470 0.32540 0.30660 0.11200
H 	H 	0.51200 0.32650 0.34850 0.02000
C 	C 	0.64280 0.45110 0.58030 0.09600
H 	H 	0.64030 0.41670 0.55250 0.01800
C 	C 	0.64322 0.45080 0.66020 -0.15500
H 	H 	0.64210 0.41600 0.68710 0.09000
C 	C 	0.72688 0.56568 0.79680 0.00300
H 	H 	0.74210 0.55710 0.74860 0.05200
C 	C 	0.80160 0.68990 0.82380 0.06900
C 	C 	0.84120 0.72210 0.78970 0.06900
C 	C 	0.85960 0.77170 0.82460 -0.11600
H 	H 	0.88660 0.79370 0.80130 0.10800
C 	C 	0.83830 0.78923 0.89380 0.10500
C 	C 	0.79870 0.75708 0.92800 -0.07700
H 	H 	0.78420 0.76910 0.97520 0.06600
C 	C 	0.78030 0.70745 0.89300 -0.05000
H 	H 	0.75330 0.68550 0.91640 0.06800
C 	C 	0.87846 0.29216 0.11140 0.00400
H 	H 	0.89600 0.25790 0.09970 0.06100
C 	C 	0.90630 0.37950 0.94810 0.05800
C 	C 	0.94060 0.38010 0.88600 0.08800
C 	C 	0.93240 0.41930 0.82720 -0.14200
H 	H 	0.95590 0.41970 0.78500 0.13400
C 	C 	0.88990 0.45800 0.82950 0.16000
C 	C 	0.85560 0.45750 0.89120 -0.07800
H 	H 	0.82650 0.48400 0.89280 0.05200
C 	C 	0.86370 0.41820 0.95050 -0.04000
H 	H 	0.84030 0.41790 0.99260 0.05900
Zn	Zn	0.07869 -0.00000 0.17430 1.21400
Zn	Zn	0.20859 0.00000 0.18591 1.21100
O 	O 	0.14280 0.00000 0.24560 -0.96500
O 	O 	0.09180 0.00000 0.06360 -0.45300
O 	O 	0.18370 0.00000 0.07620 -0.47900
O 	O 	0.42830 0.00000 0.72270 -0.11300
N 	N 	0.38890 0.00000 0.76480 -0.00800
C 	C 	0.14250 0.00000 0.94940 -0.07300
C 	C 	0.14310 0.00000 0.45280 0.42900
C 	C 	0.14600 0.00000 0.54080 -0.17500
C 	C 	0.14523 0.00000 0.70190 0.06200
Zn	Zn	0.57869 0.50000 0.17430 1.21700
Zn	Zn	0.70859 0.50000 0.18591 1.21400
O 	O 	0.64280 0.50000 0.24560 -0.95900
O 	O 	0.59180 0.50000 0.06360 -0.43900
O 	O 	0.68370 0.50000 0.07620 -0.46600
O 	O 	0.92830 0.50000 0.72270 -0.10700
N 	N 	0.88890 0.50000 0.76480 0.00000
C 	C 	0.64250 0.50000 0.94940 -0.03700
C 	C 	0.64310 0.50000 0.45280 0.44700
C 	C 	0.64600 0.50000 0.54080 -0.16900
C 	C 	0.64523 0.50000 0.70190 0.09500
Zn	Zn	0.85806 0.06619 0.68998 1.21600
O 	O 	0.75650 0.07150 0.79240 -0.50900
O 	O 	0.80310 0.12000 0.70080 -0.49800
O 	O 	0.93170 0.10180 0.70460 -0.50300
O 	O 	0.97140 0.93700 0.81000 -0.50400
O 	O 	0.85610 0.04630 0.57920 -0.51100
O 	O 	0.63550 0.85000 0.29400 -0.10300
O 	O 	0.58070 0.77640 0.28200 -0.10100
O 	O 	0.60750 0.63130 0.10590 -0.15600
O 	O 	0.66340 0.64250 0.01000 -0.12500
O 	O 	0.48360 0.15540 0.17300 -0.10000
O 	O 	0.51850 0.20530 0.07900 -0.11600
O 	O 	0.64870 0.03540 0.23600 -0.13300
N 	N 	0.76190 0.89060 0.16680 -0.07000
N 	N 	0.72010 0.86290 0.20040 -0.15800
H 	H 	0.70560 0.87910 0.24020 0.14900
N 	N 	0.62280 0.80310 0.26820 -0.00700
N 	N 	0.64220 0.65680 0.07000 -0.01100
N 	N 	0.61930 0.16500 0.93590 -0.07000
N 	N 	0.58780 0.16390 -0.00000 -0.15600
H 	H 	0.56420 0.19100 0.00760 0.16900
N 	N 	0.51700 0.16390 0.12270 -0.00400
C 	C 	0.76960 0.11410 0.75310 0.36300
C 	C 	0.72740 0.16040 0.75550 -0.06000
C 	C 	0.72240 0.20040 0.69670 -0.00500
H 	H 	0.74660 0.19970 0.65550 0.05800
C 	C 	0.68190 0.24140 0.69830 -0.04600
H 	H 	0.67850 0.26870 0.65810 0.05600
C 	C 	0.64640 0.24240 0.75860 -0.02100
C 	C 	0.65150 0.20240 0.81740 0.02700
C 	C 	0.69190 0.16140 0.81590 -0.03100
H 	H 	0.69540 0.13410 0.85610 0.06600
C 	C 	0.86160 0.99180 0.96230 0.10700
C 	C 	0.90267 0.01855 0.09670 -0.18500
H 	H 	0.93340 0.03420 0.07320 0.11300
C 	C 	0.90290 0.01415 0.17730 -0.09300
H 	H 	0.93380 0.02680 0.20890 0.06000
C 	C 	0.85780 0.99120 0.21180 -0.02800
C 	C 	0.81263 0.97270 0.16570 0.03000
C 	C 	0.81240 0.97706 0.08510 -0.03600
H 	H 	0.78150 0.96440 0.05350 0.07100
C 	C 	0.96960 0.09850 0.75840 0.46600
C 	C 	0.01360 0.13620 0.75400 -0.19900
C 	C 	0.05350 0.13795 0.81540 0.10900
H 	H 	0.05230 0.11170 0.85680 0.02100
C 	C 	0.09493 0.17802 0.81610 -0.15100
H 	H 	0.12220 0.17920 0.85800 0.09800
C 	C 	0.59656 0.28361 0.75540 0.10400
C 	C 	0.55670 0.28530 0.69410 -0.14800
H 	H 	0.55780 0.25910 0.65260 0.09900
C 	C 	0.01530 0.17460 0.69340 0.11100
H 	H 	0.98800 0.17350 0.65150 0.02100
C 	C 	0.85720 0.04890 0.41970 0.08900
H 	H 	0.85970 0.08330 0.44750 0.02000
C 	C 	0.85678 0.04920 0.33980 -0.14200
H 	H 	0.85790 0.08400 0.31290 0.08700
C 	C 	0.77312 0.93432 0.20320 -0.00300
H 	H 	0.75790 0.94290 0.25140 0.05800
C 	C 	0.69840 0.81010 0.17620 0.06800
C 	C 	0.65880 0.77790 0.21030 0.07000
C 	C 	0.64040 0.72830 0.17540 -0.11800
H 	H 	0.61340 0.70630 0.19870 0.10900
C 	C 	0.66170 0.71077 0.10620 0.10900
C 	C 	0.70130 0.74292 0.07200 -0.07700
H 	H 	0.71580 0.73090 0.02480 0.07700
C 	C 	0.71970 0.79255 0.10700 -0.04700
H 	H 	0.74670 0.81450 0.08360 0.07400
C 	C 	0.62154 0.20784 0.88860 0.00200
H 	H 	0.60400 0.24210 0.90030 0.05500
C 	C 	0.59370 0.12050 0.05190 0.08700
C 	C 	0.55940 0.11990 0.11400 0.07600
C 	C 	0.56760 0.08070 0.17280 -0.12600
H 	H 	0.54410 0.08030 0.21500 0.12900
C 	C 	0.61010 0.04200 0.17050 0.13800
C 	C 	0.64440 0.04250 0.10880 -0.04300
H 	H 	0.67350 0.01600 0.10720 0.01700
C 	C 	0.63630 0.08180 0.04950 -0.06800
H 	H 	0.65970 0.08210 0.00740 0.07700
Zn	Zn	0.35806 0.56619 0.68998 1.21700
O 	O 	0.25650 0.57150 0.79240 -0.50600
O 	O 	0.30310 0.62000 0.70080 -0.49700
O 	O 	0.43170 0.60180 0.70460 -0.50200
O 	O 	0.47140 0.43700 0.81000 -0.51200
O 	O 	0.35610 0.54630 0.57920 -0.51300
O 	O 	0.13550 0.35000 0.29400 -0.10500
O 	O 	0.08070 0.27640 0.28200 -0.10100
O 	O 	0.10750 0.13130 0.10590 -0.15700
O 	O 	0.16340 0.14250 0.01000 -0.12400
O 	O 	0.98360 0.65540 0.17300 -0.09900
O 	O 	0.01850 0.70530 0.07900 -0.11600
O 	O 	0.14870 0.53540 0.23600 -0.13300
N 	N 	0.26190 0.39060 0.16680 -0.07000
N 	N 	0.22010 0.36290 0.20040 -0.15800
H 	H 	0.20560 0.37910 0.24020 0.14900
N 	N 	0.12280 0.30310 0.26820 -0.00700
N 	N 	0.14220 0.15680 0.07000 -0.01100
N 	N 	0.11930 0.66500 0.93590 -0.07000
N 	N 	0.08780 0.66390 -0.00000 -0.15400
H 	H 	0.06420 0.69100 0.00760 0.16800
N 	N 	0.01700 0.66390 0.12270 -0.00500
C 	C 	0.26960 0.61410 0.75310 0.36200
C 	C 	0.22740 0.66040 0.75550 -0.05900
C 	C 	0.22240 0.70040 0.69670 -0.00500
H 	H 	0.24660 0.69970 0.65550 0.05900
C 	C 	0.18190 0.74140 0.69830 -0.04500
H 	H 	0.17850 0.76870 0.65810 0.05600
C 	C 	0.14640 0.74240 0.75860 -0.02100
C 	C 	0.15150 0.70240 0.81740 0.02800
C 	C 	0.19190 0.66140 0.81590 -0.03100
H 	H 	0.19540 0.63410 0.85610 0.06700
C 	C 	0.36160 0.49180 0.96230 0.15100
C 	C 	0.40267 0.51855 0.09670 -0.02800
H 	H 	0.43340 0.53420 0.07320 0.06600
C 	C 	0.40290 0.51415 0.17730 -0.02100
H 	H 	0.43380 0.52680 0.20890 0.04200
C 	C 	0.35780 0.49120 0.21180 -0.01600
C 	C 	0.31263 0.47270 0.16570 0.01700
C 	C 	0.31240 0.47706 0.08510 -0.03700
H 	H 	0.28150 0.46440 0.05350 0.06600
C 	C 	0.46960 0.59850 0.75840 0.46500
C 	C 	0.51360 0.63620 0.75400 -0.19900
C 	C 	0.55350 0.63795 0.81540 0.11000
H 	H 	0.55230 0.61170 0.85680 0.01900
C 	C 	0.59493 0.67802 0.81610 -0.15300
H 	H 	0.62220 0.67920 0.85800 0.09800
C 	C 	0.09656 0.78361 0.75540 0.10400
C 	C 	0.05670 0.78530 0.69410 -0.14800
H 	H 	0.05780 0.75910 0.65260 0.09900
C 	C 	0.51530 0.67460 0.69340 0.11200
H 	H 	0.48800 0.67350 0.65150 0.02100
C 	C 	0.35720 0.54890 0.41970 0.09800
H 	H 	0.35970 0.58330 0.44750 0.01800
C 	C 	0.35678 0.54920 0.33980 -0.15700
H 	H 	0.35790 0.58400 0.31290 0.09100
C 	C 	0.27312 0.43432 0.20320 0.00100
H 	H 	0.25790 0.44290 0.25140 0.05300
C 	C 	0.19840 0.31010 0.17620 0.06800
C 	C 	0.15880 0.27790 0.21030 0.07000
C 	C 	0.14040 0.22830 0.17540 -0.11800
H 	H 	0.11340 0.20630 0.19870 0.10900
C 	C 	0.16170 0.21077 0.10620 0.10900
C 	C 	0.20130 0.24292 0.07200 -0.07700
H 	H 	0.21580 0.23090 0.02480 0.07700
C 	C 	0.21970 0.29255 0.10700 -0.04700
H 	H 	0.24670 0.31450 0.08360 0.07400
C 	C 	0.12154 0.70784 0.88860 0.00200
H 	H 	0.10400 0.74210 0.90030 0.05500
C 	C 	0.09370 0.62050 0.05190 0.08000
C 	C 	0.05940 0.61990 0.11400 0.08300
C 	C 	0.06760 0.58070 0.17280 -0.13600
H 	H 	0.04410 0.58030 0.21500 0.13300
C 	C 	0.11010 0.54200 0.17050 0.15600
C 	C 	0.14440 0.54250 0.10880 -0.07000
H 	H 	0.17350 0.51600 0.10720 0.05100
C 	C 	0.13630 0.58180 0.04950 -0.05000
H 	H 	0.15970 0.58210 0.00740 0.07200
Zn	Zn	0.85806 0.93381 0.68998 1.21900
O 	O 	0.75650 0.92850 0.79240 -0.49900
O 	O 	0.80310 0.88000 0.70080 -0.49500
O 	O 	0.93170 0.89820 0.70460 -0.49900
O 	O 	0.97140 0.06300 0.81000 -0.51400
O 	O 	0.85610 0.95370 0.57920 -0.49800
O 	O 	0.63550 0.15000 0.29400 -0.10600
O 	O 	0.58070 0.22360 0.28200 -0.10100
O 	O 	0.60750 0.36870 0.10590 -0.15600
O 	O 	0.66340 0.35750 0.01000 -0.12500
O 	O 	0.48360 0.84460 0.17300 -0.09800
O 	O 	0.51850 0.79470 0.07900 -0.11600
O 	O 	0.64870 0.96460 0.23600 -0.12700
N 	N 	0.76190 0.10940 0.16680 -0.07200
N 	N 	0.72010 0.13710 0.20040 -0.15800
H 	H 	0.70560 0.12090 0.24020 0.14800
N 	N 	0.62280 0.19690 0.26820 -0.00700
N 	N 	0.64220 0.34320 0.07000 -0.01100
N 	N 	0.61930 0.83500 0.93590 -0.06900
N 	N 	0.58780 0.83610 -0.00000 -0.15200
H 	H 	0.56420 0.80900 0.00760 0.16800
N 	N 	0.51700 0.83610 0.12270 -0.00600
C 	C 	0.76960 0.88590 0.75310 0.36200
C 	C 	0.72740 0.83960 0.75550 -0.05700
C 	C 	0.72240 0.79960 0.69670 -0.00500
H 	H 	0.74660 0.80030 0.65550 0.05900
C 	C 	0.68190 0.75860 0.69830 -0.04400
H 	H 	0.67850 0.73130 0.65810 0.05500
C 	C 	0.64640 0.75760 0.75860 -0.02100
C 	C 	0.65150 0.79760 0.81740 0.02900
C 	C 	0.69190 0.83860 0.81590 -0.03200
H 	H 	0.69540 0.86590 0.85610 0.06800
C 	C 	0.86160 0.00820 0.96230 0.22100
C 	C 	0.90267 0.98145 0.09670 0.15500
H 	H 	0.93340 0.96580 0.07320 0.01300
C 	C 	0.90290 0.98585 0.17730 0.03400
H 	H 	0.93380 0.97320 0.20890 0.03100
C 	C 	0.85780 0.00880 0.21180 0.01600
C 	C 	0.81263 0.02730 0.16570 -0.01100
C 	C 	0.81240 0.02294 0.08510 -0.00900
H 	H 	0.78150 0.03560 0.05350 0.05500
C 	C 	0.96960 0.90150 0.75840 0.46500
C 	C 	0.01360 0.86380 0.75400 -0.19800
C 	C 	0.05350 0.86205 0.81540 0.10900
H 	H 	0.05230 0.88830 0.85680 0.01700
C 	C 	0.09493 0.82198 0.81610 -0.15400
H 	H 	0.12220 0.82080 0.85800 0.09700
C 	C 	0.59656 0.71639 0.75540 0.10500
C 	C 	0.55670 0.71470 0.69410 -0.14900
H 	H 	0.55780 0.74090 0.65260 0.10000
C 	C 	0.01530 0.82540 0.69340 0.11100
H 	H 	0.98800 0.82650 0.65150 0.02200
C 	C 	0.85720 0.95110 0.41970 0.10200
H 	H 	0.85970 0.91670 0.44750 0.01800
C 	C 	0.85678 0.95080 0.33980 -0.12900
H 	H 	0.85790 0.91600 0.31290 0.08200
C 	C 	0.77312 0.06568 0.20320 0.01300
H 	H 	0.75790 0.05710 0.25140 0.04700
C 	C 	0.69840 0.18990 0.17620 0.06800
C 	C 	0.65880 0.22210 0.21030 0.07000
C 	C 	0.64040 0.27170 0.17540 -0.11800
H 	H 	0.61340 0.29370 0.19870 0.10900
C 	C 	0.66170 0.28923 0.10620 0.10900
C 	C 	0.70130 0.25708 0.07200 -0.07700
H 	H 	0.71580 0.26910 0.02480 0.07700
C 	C 	0.71970 0.20745 0.10700 -0.04700
H 	H 	0.74670 0.18550 0.08360 0.07500
C 	C 	0.62154 0.79216 0.88860 0.00200
H 	H 	0.60400 0.75790 0.90030 0.05500
C 	C 	0.59370 0.87950 0.05190 0.07200
C 	C 	0.55940 0.88010 0.11400 0.09100
C 	C 	0.56760 0.91930 0.17280 -0.14800
H 	H 	0.54410 0.91970 0.21500 0.14000
C 	C 	0.61010 0.95800 0.17050 0.18100
C 	C 	0.64440 0.95750 0.10880 -0.10100
H 	H 	0.67350 0.98400 0.10720 0.08500
C 	C 	0.63630 0.91820 0.04950 -0.02900
H 	H 	0.65970 0.91790 0.00740 0.06700
Zn	Zn	0.35806 0.43381 0.68998 1.21700
O 	O 	0.25650 0.42850 0.79240 -0.50600
O 	O 	0.30310 0.38000 0.70080 -0.49700
O 	O 	0.43170 0.39820 0.70460 -0.50200
O 	O 	0.47140 0.56300 0.81000 -0.51200
O 	O 	0.35610 0.45370 0.57920 -0.51300
O 	O 	0.13550 0.65000 0.29400 -0.10500
O 	O 	0.08070 0.72360 0.28200 -0.10100
O 	O 	0.10750 0.86870 0.10590 -0.15300
O 	O 	0.16340 0.85750 0.01000 -0.12400
O 	O 	0.98360 0.34460 0.17300 -0.09900
O 	O 	0.01850 0.29470 0.07900 -0.11600
O 	O 	0.14870 0.46460 0.23600 -0.13300
N 	N 	0.26190 0.60940 0.16680 -0.07000
N 	N 	0.22010 0.63710 0.20040 -0.15800
H 	H 	0.20560 0.62090 0.24020 0.14900
N 	N 	0.12280 0.69690 0.26820 -0.00700
N 	N 	0.14220 0.84320 0.07000 -0.01100
N 	N 	0.11930 0.33500 0.93590 -0.07000
N 	N 	0.08780 0.33610 -0.00000 -0.15400
H 	H 	0.06420 0.30900 0.00760 0.16800
N 	N 	0.01700 0.33610 0.12270 -0.00500
C 	C 	0.26960 0.38590 0.75310 0.36200
C 	C 	0.22740 0.33960 0.75550 -0.05900
C 	C 	0.22240 0.29960 0.69670 -0.00500
H 	H 	0.24660 0.30030 0.65550 0.05800
C 	C 	0.18190 0.25860 0.69830 -0.04500
H 	H 	0.17850 0.23130 0.65810 0.05500
C 	C 	0.14640 0.25760 0.75860 -0.02100
C 	C 	0.15150 0.29760 0.81740 0.02800
C 	C 	0.19190 0.33860 0.81590 -0.03100
H 	H 	0.19540 0.36590 0.85610 0.06700
C 	C 	0.36160 0.50820 0.96230 0.15100
C 	C 	0.40267 0.48145 0.09670 -0.02800
H 	H 	0.43340 0.46580 0.07320 0.06600
C 	C 	0.40290 0.48585 0.17730 -0.02100
H 	H 	0.43380 0.47320 0.20890 0.04200
C 	C 	0.35780 0.50880 0.21180 -0.01600
C 	C 	0.31263 0.52730 0.16570 0.01700
C 	C 	0.31240 0.52294 0.08510 -0.03700
H 	H 	0.28150 0.53560 0.05350 0.06600
C 	C 	0.46960 0.40150 0.75840 0.46500
C 	C 	0.51360 0.36380 0.75400 -0.19900
C 	C 	0.55350 0.36205 0.81540 0.10900
H 	H 	0.55230 0.38830 0.85680 0.01900
C 	C 	0.59493 0.32198 0.81610 -0.15300
H 	H 	0.62220 0.32080 0.85800 0.09800
C 	C 	0.09656 0.21639 0.75540 0.10300
C 	C 	0.05670 0.21470 0.69410 -0.14800
H 	H 	0.05780 0.24090 0.65260 0.09900
C 	C 	0.51530 0.32540 0.69340 0.11200
H 	H 	0.48800 0.32650 0.65150 0.02100
C 	C 	0.35720 0.45110 0.41970 0.09800
H 	H 	0.35970 0.41670 0.44750 0.01800
C 	C 	0.35678 0.45080 0.33980 -0.15700
H 	H 	0.35790 0.41600 0.31290 0.09100
C 	C 	0.27312 0.56568 0.20320 0.00100
H 	H 	0.25790 0.55710 0.25140 0.05300
C 	C 	0.19840 0.68990 0.17620 0.06800
C 	C 	0.15880 0.72210 0.21030 0.07000
C 	C 	0.14040 0.77170 0.17540 -0.11800
H 	H 	0.11340 0.79370 0.19870 0.10900
C 	C 	0.16170 0.78923 0.10620 0.10900
C 	C 	0.20130 0.75708 0.07200 -0.07700
H 	H 	0.21580 0.76910 0.02480 0.07700
C 	C 	0.21970 0.70745 0.10700 -0.04700
H 	H 	0.24670 0.68550 0.08360 0.07400
C 	C 	0.12154 0.29216 0.88860 0.00200
H 	H 	0.10400 0.25790 0.90030 0.05500
C 	C 	0.09370 0.37950 0.05190 0.08000
C 	C 	0.05940 0.38010 0.11400 0.08300
C 	C 	0.06760 0.41930 0.17280 -0.13600
H 	H 	0.04410 0.41970 0.21500 0.13300
C 	C 	0.11010 0.45800 0.17050 0.15600
C 	C 	0.14440 0.45750 0.10880 -0.07000
H 	H 	0.17350 0.48400 0.10720 0.05100
C 	C 	0.13630 0.41820 0.04950 -0.05000
H 	H 	0.15970 0.41790 0.00740 0.07200
Zn	Zn	0.92131 0.00000 0.82570 1.21400
Zn	Zn	0.79141 0.00000 0.81409 1.21100
O 	O 	0.85720 0.00000 0.75440 -0.96500
O 	O 	0.90820 -0.00000 0.93640 -0.45600
O 	O 	0.81630 -0.00000 0.92380 -0.48200
O 	O 	0.57170 0.00000 0.27730 -0.11200
N 	N 	0.61110 0.00000 0.23520 -0.00700
C 	C 	0.85750 0.00000 0.05060 -0.03500
C 	C 	0.85690 0.00000 0.54720 0.42900
C 	C 	0.85400 0.00000 0.45920 -0.17600
C 	C 	0.85477 0.00000 0.29810 0.06500
Zn	Zn	0.42131 0.50000 0.82570 1.21700
Zn	Zn	0.29141 0.50000 0.81409 1.21300
O 	O 	0.35720 0.50000 0.75440 -0.95900
O 	O 	0.40820 0.50000 0.93640 -0.44300
O 	O 	0.31630 0.50000 0.92380 -0.46900
O 	O 	0.07170 0.50000 0.27730 -0.10700
N 	N 	0.11110 0.50000 0.23520 0.00100
C 	C 	0.35750 0.50000 0.05060 0.00200
C 	C 	0.35690 0.50000 0.54720 0.44700
C 	C 	0.35400 0.50000 0.45920 -0.17000
C 	C 	0.35477 0.50000 0.29810 0.09800
