data_crystal

_cell_length_a 10.94530
_cell_length_b 11.48510
_cell_length_c 13.45300
_cell_angle_alpha 69.53900
_cell_angle_beta  80.09500
_cell_angle_gamma 62.42000

_symmetry_space_group_name_	'P 1'
_symmetry_space_group_name_H-M	'P 1'

loop_
_symmetry_equiv_pos_as_xyz
  x,y,z

loop_
_atom_site_label
_atom_site_type_symbol
_atom_site_fract_x
_atom_site_fract_y
_atom_site_fract_z
_atom_site_charge
U 	U 	0.63266 0.70178 0.83352 -0.00900
Ce	Ce	0.62199 0.21398 0.77513 2.02000
O 	O 	0.85870 0.52870 0.90510 -0.21100
O 	O 	0.77530 0.48420 0.79440 -0.23700
O 	O 	0.85640 0.20590 0.76120 -0.54700
O 	O 	0.90090 0.35530 0.62260 -0.24900
O 	O 	0.42830 0.90810 0.82750 -0.23200
O 	O 	0.51550 0.06050 0.77490 -0.49400
O 	O 	0.47510 0.17410 0.93150 -0.51500
O 	O 	0.31180 0.21460 0.05380 -0.23500
O 	O 	0.50860 0.69140 0.71280 -0.22700
O 	O 	0.42880 0.69820 0.57040 -0.31200
O 	O 	0.73910 0.62970 0.53390 -0.21200
O 	O 	0.85630 0.75130 0.47860 -0.20600
C 	C 	0.00830 0.33590 0.84580 -0.03900
C 	C 	0.11800 0.31120 0.90490 -0.01800
H 	H 	0.09970 0.36110 0.95150 0.06500
C 	C 	0.25100 0.21510 0.89520 -0.09900
C 	C 	0.27800 0.13670 0.82670 -0.09600
C 	C 	0.16710 0.15530 0.77370 0.01700
H 	H 	0.18330 0.09870 0.73290 0.04000
C 	C 	0.03260 0.25680 0.78060 -0.07400
C 	C 	0.62010 0.00110 0.45150 -0.01100
H 	H 	0.70160 0.00260 0.41860 0.04900
C 	C 	0.61810 0.87430 0.50360 -0.04700
C 	C 	0.49460 0.87360 0.55340 -0.04900
C 	C 	0.87270 0.45470 0.84870 0.27700
C 	C 	0.35590 0.19850 0.96220 0.34200
C 	C 	0.41910 0.02780 0.80900 0.36000
C 	C 	0.92110 0.27490 0.71710 0.37600
C 	C 	0.47960 0.74470 0.61640 0.29900
C 	C 	0.74220 0.74470 0.50780 0.27400
U 	U 	0.36734 0.29822 0.16648 -0.01000
Ce	Ce	0.37801 0.78602 0.22487 2.01900
O 	O 	0.14130 0.47130 0.09490 -0.21000
O 	O 	0.22470 0.51580 0.20560 -0.23700
O 	O 	0.14360 0.79410 0.23880 -0.54700
O 	O 	0.09910 0.64470 0.37740 -0.24900
O 	O 	0.57170 0.09190 0.17250 -0.23200
O 	O 	0.48450 0.93950 0.22510 -0.49400
O 	O 	0.52490 0.82590 0.06850 -0.51500
O 	O 	0.68820 0.78540 0.94620 -0.23500
O 	O 	0.49140 0.30860 0.28720 -0.22700
O 	O 	0.57120 0.30180 0.42960 -0.31200
O 	O 	0.26090 0.37030 0.46610 -0.21200
O 	O 	0.14370 0.24870 0.52140 -0.20600
C 	C 	0.99170 0.66410 0.15420 -0.03900
C 	C 	0.88200 0.68880 0.09510 -0.01800
H 	H 	0.90030 0.63890 0.04850 0.06500
C 	C 	0.74900 0.78490 0.10480 -0.09900
C 	C 	0.72200 0.86330 0.17330 -0.09600
C 	C 	0.83290 0.84470 0.22630 0.01700
H 	H 	0.81670 0.90130 0.26710 0.04000
C 	C 	0.96740 0.74320 0.21940 -0.07400
C 	C 	0.37990 0.99890 0.54850 -0.01100
H 	H 	0.29840 0.99740 0.58140 0.04900
C 	C 	0.38190 0.12570 0.49640 -0.04700
C 	C 	0.50540 0.12640 0.44660 -0.04900
C 	C 	0.12730 0.54530 0.15130 0.27800
C 	C 	0.64410 0.80150 0.03780 0.34200
C 	C 	0.58090 0.97220 0.19100 0.36000
C 	C 	0.07890 0.72510 0.28290 0.37600
C 	C 	0.52040 0.25530 0.38360 0.29900
C 	C 	0.25780 0.25530 0.49220 0.27400
U 	U 	-0.00000 0.50000 0.50000 -0.00000
