data_crystal

_cell_length_a 10.87610
_cell_length_b 11.48660
_cell_length_c 13.42250
_cell_angle_alpha 69.49900
_cell_angle_beta  79.99200
_cell_angle_gamma 62.50600

_symmetry_space_group_name_	'P 1'
_symmetry_space_group_name_H-M	'P 1'

loop_
_symmetry_equiv_pos_as_xyz
  x,y,z

loop_
_atom_site_label
_atom_site_type_symbol
_atom_site_fract_x
_atom_site_fract_y
_atom_site_fract_z
_atom_site_charge
U 	U 	0.63156 0.70286 0.83306 -0.00300
Nd	Nd	0.62063 0.21519 0.77498 1.60200
O 	O 	0.85710 0.52830 0.90700 -0.20400
O 	O 	0.77420 0.48530 0.79430 -0.21600
O 	O 	0.85350 0.20740 0.76120 -0.46700
O 	O 	0.89830 0.35670 0.62270 -0.23100
O 	O 	0.42700 0.90950 0.82710 -0.22200
O 	O 	0.51700 0.05940 0.77600 -0.42600
O 	O 	0.47630 0.17600 0.93150 -0.45000
O 	O 	0.31210 0.21350 0.05440 -0.22300
O 	O 	0.50680 0.69150 0.71240 -0.21000
O 	O 	0.42520 0.70010 0.56980 -0.28400
O 	O 	0.73620 0.63140 0.53180 -0.20200
O 	O 	0.85750 0.75120 0.47730 -0.20000
C 	C 	0.00830 0.33710 0.84590 -0.03100
C 	C 	0.11720 0.31240 0.90480 -0.02200
H 	H 	0.09920 0.36290 0.95100 0.07100
C 	C 	0.25070 0.21460 0.89570 -0.07900
C 	C 	0.27730 0.13450 0.82810 -0.08500
C 	C 	0.16600 0.15510 0.77480 0.01700
H 	H 	0.18150 0.09840 0.73420 0.04400
C 	C 	0.03270 0.25760 0.78010 -0.06900
C 	C 	0.62080 0.00200 0.45180 -0.01400
H 	H 	0.70360 0.00250 0.41980 0.05500
C 	C 	0.61520 0.87550 0.50330 -0.03600
C 	C 	0.49230 0.87480 0.55280 -0.04000
C 	C 	0.87210 0.45550 0.85000 0.27500
C 	C 	0.35690 0.19860 0.96220 0.34700
C 	C 	0.41880 0.02970 0.80870 0.35800
C 	C 	0.91910 0.27750 0.71700 0.37100
C 	C 	0.47450 0.74580 0.61540 0.30000
C 	C 	0.74260 0.74440 0.50560 0.27200
U 	U 	0.36844 0.29714 0.16694 -0.00300
Nd	Nd	0.37937 0.78481 0.22502 1.60200
O 	O 	0.14290 0.47170 0.09300 -0.20400
O 	O 	0.22580 0.51470 0.20570 -0.21600
O 	O 	0.14650 0.79260 0.23880 -0.46700
O 	O 	0.10170 0.64330 0.37730 -0.23100
O 	O 	0.57300 0.09050 0.17290 -0.22200
O 	O 	0.48300 0.94060 0.22400 -0.42600
O 	O 	0.52370 0.82400 0.06850 -0.45000
O 	O 	0.68790 0.78650 0.94560 -0.22300
O 	O 	0.49320 0.30850 0.28760 -0.21000
O 	O 	0.57480 0.29990 0.43020 -0.28400
O 	O 	0.26380 0.36860 0.46820 -0.20200
O 	O 	0.14250 0.24880 0.52270 -0.20000
C 	C 	0.99170 0.66290 0.15410 -0.03100
C 	C 	0.88280 0.68760 0.09520 -0.02200
H 	H 	0.90080 0.63710 0.04900 0.07100
C 	C 	0.74930 0.78540 0.10430 -0.07800
C 	C 	0.72270 0.86550 0.17190 -0.08500
C 	C 	0.83400 0.84490 0.22520 0.01700
H 	H 	0.81850 0.90160 0.26580 0.04400
C 	C 	0.96730 0.74240 0.21990 -0.06900
C 	C 	0.37920 0.99800 0.54820 -0.01400
H 	H 	0.29640 0.99750 0.58020 0.05500
C 	C 	0.38480 0.12450 0.49670 -0.03600
C 	C 	0.50770 0.12520 0.44720 -0.04000
C 	C 	0.12790 0.54450 0.15000 0.27500
C 	C 	0.64310 0.80140 0.03780 0.34700
C 	C 	0.58120 0.97030 0.19130 0.35800
C 	C 	0.08090 0.72250 0.28300 0.37100
C 	C 	0.52550 0.25420 0.38460 0.30000
C 	C 	0.25740 0.25560 0.49440 0.27200
U 	U 	-0.00000 0.50000 0.50000 0.00300
