data_crystal

_cell_length_a 10.50900
_cell_length_b 11.48000
_cell_length_c 13.42600
_cell_angle_alpha 69.13700
_cell_angle_beta  78.67100
_cell_angle_gamma 63.56400

_symmetry_space_group_name_	'P 1'
_symmetry_space_group_name_H-M	'P 1'

loop_
_symmetry_equiv_pos_as_xyz
  x,y,z

loop_
_atom_site_label
_atom_site_type_symbol
_atom_site_fract_x
_atom_site_fract_y
_atom_site_fract_z
_atom_site_charge
U 	U 	0.62233 0.71400 0.83603 0.00700
Yb	Yb	0.59779 0.23117 0.75074 1.42000
C 	C 	0.99700 0.34260 0.85230 -0.02000
C 	C 	0.10960 0.31300 0.91000 -0.02100
H 	H 	0.09440 0.35910 0.95880 0.07800
C 	C 	0.24570 0.21490 0.89580 -0.06800
C 	C 	0.26560 0.14270 0.82330 -0.07400
C 	C 	0.14670 0.16500 0.77320 0.01000
H 	H 	0.15740 0.11210 0.73080 0.05000
C 	C 	0.01230 0.26680 0.78720 -0.05000
C 	C 	0.62870 0.00190 0.44800 -0.01300
H 	H 	0.71450 0.00170 0.41330 0.05800
C 	C 	0.61650 0.87620 0.50490 -0.04000
C 	C 	0.48620 0.87680 0.55560 -0.03300
C 	C 	0.86240 0.46250 0.85740 0.26800
C 	C 	0.36000 0.19460 0.95660 0.32200
C 	C 	0.40750 0.04200 0.79500 0.34400
C 	C 	0.89220 0.29290 0.72460 0.33800
C 	C 	0.46550 0.74920 0.62010 0.28200
C 	C 	0.74380 0.74750 0.50610 0.28100
O 	O 	0.85230 0.53440 0.91400 -0.19400
O 	O 	0.76140 0.49710 0.79940 -0.19000
O 	O 	0.81210 0.23420 0.77260 -0.42900
O 	O 	0.88540 0.36250 0.62620 -0.22200
O 	O 	0.41530 0.92190 0.81700 -0.20500
O 	O 	0.50460 0.07920 0.75530 -0.42300
O 	O 	0.48270 0.17990 0.91540 -0.40500
O 	O 	0.32840 0.19510 0.05120 -0.20900
O 	O 	0.49840 0.69440 0.71900 -0.18500
O 	O 	0.40950 0.70260 0.57920 -0.27200
O 	O 	0.73470 0.63410 0.53340 -0.20100
O 	O 	0.86340 0.74830 0.48140 -0.20400
U 	U 	0.37767 0.28600 0.16397 0.00600
Yb	Yb	0.40221 0.76883 0.24926 1.41900
C 	C 	0.00300 0.65740 0.14770 -0.02200
C 	C 	0.89040 0.68700 0.09000 -0.02000
H 	H 	0.90560 0.64090 0.04120 0.07700
C 	C 	0.75430 0.78510 0.10420 -0.06900
C 	C 	0.73440 0.85730 0.17670 -0.07400
C 	C 	0.85330 0.83500 0.22680 0.01000
H 	H 	0.84260 0.88790 0.26920 0.05100
C 	C 	0.98770 0.73320 0.21280 -0.04900
C 	C 	0.37130 0.99810 0.55200 -0.01300
H 	H 	0.28550 0.99830 0.58670 0.05800
C 	C 	0.38350 0.12380 0.49510 -0.04000
C 	C 	0.51380 0.12320 0.44440 -0.03300
C 	C 	0.13760 0.53750 0.14260 0.26800
C 	C 	0.64000 0.80540 0.04340 0.32200
C 	C 	0.59250 0.95800 0.20500 0.34400
C 	C 	0.10780 0.70710 0.27540 0.33800
C 	C 	0.53450 0.25080 0.37990 0.28200
C 	C 	0.25620 0.25250 0.49390 0.28100
O 	O 	0.14770 0.46560 0.08600 -0.19500
O 	O 	0.23860 0.50290 0.20060 -0.19100
O 	O 	0.18790 0.76580 0.22740 -0.42900
O 	O 	0.11460 0.63750 0.37380 -0.22200
O 	O 	0.58470 0.07810 0.18300 -0.20500
O 	O 	0.49540 0.92080 0.24470 -0.42300
O 	O 	0.51730 0.82010 0.08460 -0.40500
O 	O 	0.67160 0.80490 0.94880 -0.20900
O 	O 	0.50160 0.30560 0.28100 -0.18500
O 	O 	0.59050 0.29740 0.42080 -0.27200
O 	O 	0.26530 0.36590 0.46660 -0.20100
O 	O 	0.13660 0.25170 0.51860 -0.20400
U 	U 	-0.00000 0.50000 0.50000 0.00500
