data_crystal

_cell_length_a 10.53630
_cell_length_b 11.46980
_cell_length_c 13.41140
_cell_angle_alpha 69.02800
_cell_angle_beta  78.40600
_cell_angle_gamma 63.41400

_symmetry_space_group_name_	'P 1'
_symmetry_space_group_name_H-M	'P 1'

loop_
_symmetry_equiv_pos_as_xyz
  x,y,z

loop_
_atom_site_label
_atom_site_type_symbol
_atom_site_fract_x
_atom_site_fract_y
_atom_site_fract_z
_atom_site_charge
U 	U 	0.62382 0.71245 0.83696 0.00700
Dy	Dy	0.60033 0.22942 0.74930 1.37300
C 	C 	0.99640 0.34150 0.85380 -0.01400
C 	C 	0.11100 0.31200 0.91050 -0.03000
H 	H 	0.09580 0.35770 0.95970 0.08000
C 	C 	0.24790 0.21510 0.89470 -0.06000
C 	C 	0.26660 0.14190 0.82370 -0.08500
C 	C 	0.14570 0.16480 0.77510 0.02500
H 	H 	0.15570 0.10960 0.73490 0.04400
C 	C 	0.01550 0.26560 0.78610 -0.06900
C 	C 	0.62600 0.99870 0.45150 -0.01000
H 	H 	0.71260 0.99800 0.41830 0.05700
C 	C 	0.61860 0.87570 0.50600 -0.03600
C 	C 	0.48790 0.87590 0.55710 -0.03600
C 	C 	0.86210 0.46300 0.86070 0.27500
C 	C 	0.36230 0.19270 0.95790 0.34000
C 	C 	0.40830 0.04100 0.79480 0.37800
C 	C 	0.89640 0.29130 0.72500 0.36800
C 	C 	0.46800 0.74740 0.62210 0.29300
C 	C 	0.74310 0.74550 0.50840 0.26600
O 	O 	0.85040 0.53530 0.91480 -0.20100
O 	O 	0.76190 0.49500 0.80310 -0.19000
O 	O 	0.81500 0.23380 0.77200 -0.42700
O 	O 	0.88770 0.36230 0.62830 -0.23100
O 	O 	0.41700 0.92010 0.82000 -0.21600
O 	O 	0.50210 0.07710 0.75190 -0.42500
O 	O 	0.48360 0.17480 0.91670 -0.40600
O 	O 	0.32630 0.19650 0.05240 -0.21500
O 	O 	0.50200 0.69510 0.71840 -0.19100
O 	O 	0.41070 0.70150 0.58160 -0.27100
O 	O 	0.73300 0.63360 0.53360 -0.20000
O 	O 	0.86610 0.75050 0.47910 -0.19200
U 	U 	0.37618 0.28755 0.16304 0.00700
Dy	Dy	0.39967 0.77058 0.25070 1.37300
C 	C 	0.00360 0.65850 0.14620 -0.01500
C 	C 	0.88900 0.68800 0.08950 -0.02900
H 	H 	0.90420 0.64230 0.04030 0.07900
C 	C 	0.75210 0.78490 0.10530 -0.06000
C 	C 	0.73340 0.85810 0.17630 -0.08500
C 	C 	0.85430 0.83520 0.22490 0.02400
H 	H 	0.84430 0.89040 0.26510 0.04400
C 	C 	0.98450 0.73440 0.21390 -0.06800
C 	C 	0.37400 0.00130 0.54850 -0.01000
H 	H 	0.28740 0.00200 0.58170 0.05700
C 	C 	0.38140 0.12430 0.49400 -0.03600
C 	C 	0.51210 0.12410 0.44290 -0.03600
C 	C 	0.13790 0.53700 0.13930 0.27500
C 	C 	0.63770 0.80730 0.04210 0.34000
C 	C 	0.59170 0.95900 0.20520 0.37800
C 	C 	0.10360 0.70870 0.27500 0.36700
C 	C 	0.53200 0.25260 0.37790 0.29300
C 	C 	0.25690 0.25450 0.49160 0.26600
O 	O 	0.14960 0.46470 0.08520 -0.20200
O 	O 	0.23810 0.50500 0.19690 -0.19100
O 	O 	0.18500 0.76620 0.22800 -0.42700
O 	O 	0.11230 0.63770 0.37170 -0.23100
O 	O 	0.58300 0.07990 0.18000 -0.21600
O 	O 	0.49790 0.92290 0.24810 -0.42500
O 	O 	0.51640 0.82520 0.08330 -0.40600
O 	O 	0.67370 0.80350 0.94760 -0.21500
O 	O 	0.49800 0.30490 0.28160 -0.19100
O 	O 	0.58930 0.29850 0.41840 -0.27100
O 	O 	0.26700 0.36640 0.46640 -0.20000
O 	O 	0.13390 0.24950 0.52090 -0.19300
U 	U 	0.00000 0.50000 0.50000 0.00300
