data_crystal

_cell_length_a 10.58700
_cell_length_b 11.48700
_cell_length_c 13.37200
_cell_angle_alpha 69.30100
_cell_angle_beta  79.25000
_cell_angle_gamma 63.14000

_symmetry_space_group_name_	'P 1'
_symmetry_space_group_name_H-M	'P 1'

loop_
_symmetry_equiv_pos_as_xyz
  x,y,z

loop_
_atom_site_label
_atom_site_type_symbol
_atom_site_fract_x
_atom_site_fract_y
_atom_site_fract_z
_atom_site_charge
U 	U 	0.62533 0.71279 0.83466 0.00900
Gd	Gd	0.60381 0.22774 0.75457 1.23700
C 	C 	0.00180 0.34220 0.84990 -0.02300
C 	C 	0.11340 0.31320 0.90640 -0.01900
H 	H 	0.09740 0.36100 0.95430 0.07600
C 	C 	0.24750 0.21690 0.89550 -0.06400
C 	C 	0.26930 0.14130 0.82630 -0.07500
C 	C 	0.15250 0.16360 0.77680 0.02100
H 	H 	0.16450 0.10740 0.73670 0.04800
C 	C 	0.01940 0.26570 0.78450 -0.06400
C 	C 	0.62380 0.99980 0.44980 -0.01000
H 	H 	0.70930 0.99890 0.41620 0.05900
C 	C 	0.61530 0.87580 0.50370 -0.03500
C 	C 	0.49020 0.87520 0.55580 -0.03600
C 	C 	0.86420 0.46450 0.85340 0.28400
C 	C 	0.36030 0.19690 0.95710 0.33700
C 	C 	0.41000 0.03730 0.80310 0.35000
C 	C 	0.90010 0.29140 0.72410 0.35700
C 	C 	0.46860 0.74970 0.61940 0.30100
C 	C 	0.74310 0.74570 0.50340 0.28500
O 	O 	0.85250 0.53570 0.90960 -0.19900
O 	O 	0.76390 0.49570 0.79890 -0.19700
O 	O 	0.82480 0.22950 0.76750 -0.40100
O 	O 	0.88930 0.36400 0.62540 -0.21200
O 	O 	0.41920 0.91790 0.82330 -0.20800
O 	O 	0.50760 0.07120 0.76210 -0.38200
O 	O 	0.47940 0.17970 0.92010 -0.38400
O 	O 	0.32240 0.20040 0.05370 -0.20400
O 	O 	0.50380 0.69660 0.71630 -0.18900
O 	O 	0.41420 0.70450 0.57770 -0.26500
O 	O 	0.73290 0.63460 0.53230 -0.20000
O 	O 	0.86100 0.74820 0.47700 -0.20300
U 	U 	0.37467 0.28721 0.16534 0.01000
Gd	Gd	0.39619 0.77226 0.24543 1.23800
C 	C 	0.99820 0.65780 0.15010 -0.02100
C 	C 	0.88660 0.68680 0.09360 -0.01900
H 	H 	0.90260 0.63900 0.04570 0.07700
C 	C 	0.75250 0.78310 0.10450 -0.06400
C 	C 	0.73070 0.85870 0.17370 -0.07500
C 	C 	0.84750 0.83640 0.22320 0.02100
H 	H 	0.83550 0.89260 0.26330 0.04800
C 	C 	0.98060 0.73430 0.21550 -0.06300
C 	C 	0.37620 0.00020 0.55020 -0.01000
H 	H 	0.29070 0.00110 0.58380 0.05900
C 	C 	0.38470 0.12420 0.49630 -0.03500
C 	C 	0.50980 0.12480 0.44420 -0.03600
C 	C 	0.13580 0.53550 0.14660 0.28300
C 	C 	0.63970 0.80310 0.04290 0.33700
C 	C 	0.59000 0.96270 0.19690 0.35000
C 	C 	0.09990 0.70860 0.27590 0.35600
C 	C 	0.53140 0.25030 0.38060 0.30100
C 	C 	0.25690 0.25430 0.49660 0.28500
O 	O 	0.14750 0.46430 0.09040 -0.19900
O 	O 	0.23610 0.50430 0.20110 -0.19700
O 	O 	0.17520 0.77050 0.23250 -0.40100
O 	O 	0.11070 0.63600 0.37460 -0.21200
O 	O 	0.58080 0.08210 0.17670 -0.20800
O 	O 	0.49240 0.92880 0.23790 -0.38200
O 	O 	0.52060 0.82030 0.07990 -0.38400
O 	O 	0.67760 0.79960 0.94630 -0.20400
O 	O 	0.49620 0.30340 0.28370 -0.18900
O 	O 	0.58580 0.29550 0.42230 -0.26400
O 	O 	0.26710 0.36540 0.46770 -0.20000
O 	O 	0.13900 0.25180 0.52300 -0.20300
U 	U 	0.00000 0.50000 0.50000 0.00700
