data_crystal

_cell_length_a 10.56750
_cell_length_b 11.51480
_cell_length_c 13.43060
_cell_angle_alpha 69.15100
_cell_angle_beta  78.56900
_cell_angle_gamma 63.22800

_symmetry_space_group_name_	'P 1'
_symmetry_space_group_name_H-M	'P 1'

loop_
_symmetry_equiv_pos_as_xyz
  x,y,z

loop_
_atom_site_label
_atom_site_type_symbol
_atom_site_fract_x
_atom_site_fract_y
_atom_site_fract_z
_atom_site_charge
U 	U 	0.62428 0.71303 0.83617 0.00700
Tb	Tb	0.60045 0.22954 0.75007 1.40600
O 	O 	0.85150 0.53610 0.91310 -0.19300
O 	O 	0.76300 0.49540 0.80160 -0.19300
O 	O 	0.81770 0.23300 0.77060 -0.43400
O 	O 	0.88730 0.36330 0.62650 -0.22700
O 	O 	0.41790 0.92000 0.82090 -0.21600
O 	O 	0.50380 0.07680 0.75430 -0.42000
O 	O 	0.48230 0.17660 0.91780 -0.41000
O 	O 	0.32450 0.19780 0.05280 -0.21000
O 	O 	0.50140 0.69690 0.71760 -0.19400
O 	O 	0.41050 0.70310 0.58090 -0.27400
O 	O 	0.73380 0.63400 0.53400 -0.20100
O 	O 	0.86380 0.74860 0.47800 -0.20300
C 	C 	0.99830 0.34330 0.85130 -0.01700
C 	C 	0.11160 0.31260 0.90880 -0.02800
H 	H 	0.09650 0.35850 0.95770 0.07800
C 	C 	0.24610 0.21550 0.89490 -0.06100
C 	C 	0.26640 0.14240 0.82400 -0.08200
C 	C 	0.14880 0.16590 0.77480 0.02100
H 	H 	0.16010 0.11180 0.73340 0.04500
C 	C 	0.01580 0.26710 0.78560 -0.06500
C 	C 	0.62720 0.99890 0.44990 -0.01300
H 	H 	0.71340 0.99810 0.41640 0.05700
C 	C 	0.61720 0.87550 0.50500 -0.03900
C 	C 	0.48810 0.87700 0.55640 -0.03300
C 	C 	0.86430 0.46270 0.85670 0.26800
C 	C 	0.36140 0.19480 0.95660 0.33400
C 	C 	0.40820 0.03920 0.79830 0.36300
C 	C 	0.89660 0.29110 0.72410 0.36500
C 	C 	0.46700 0.74890 0.62200 0.29300
C 	C 	0.74420 0.74650 0.50660 0.27600
U 	U 	0.37572 0.28697 0.16383 0.00600
Tb	Tb	0.39955 0.77046 0.24993 1.40500
O 	O 	0.14850 0.46390 0.08690 -0.19400
O 	O 	0.23700 0.50460 0.19840 -0.19300
O 	O 	0.18230 0.76700 0.22940 -0.43400
O 	O 	0.11270 0.63670 0.37350 -0.22700
O 	O 	0.58210 0.08000 0.17910 -0.21600
O 	O 	0.49620 0.92320 0.24570 -0.42000
O 	O 	0.51770 0.82340 0.08220 -0.41000
O 	O 	0.67550 0.80220 0.94720 -0.21000
O 	O 	0.49860 0.30310 0.28240 -0.19400
O 	O 	0.58950 0.29690 0.41910 -0.27400
O 	O 	0.26620 0.36600 0.46600 -0.20100
O 	O 	0.13620 0.25140 0.52200 -0.20300
C 	C 	0.00170 0.65670 0.14870 -0.01800
C 	C 	0.88840 0.68740 0.09120 -0.02700
H 	H 	0.90350 0.64150 0.04230 0.07700
C 	C 	0.75390 0.78450 0.10510 -0.06100
C 	C 	0.73360 0.85760 0.17600 -0.08200
C 	C 	0.85120 0.83410 0.22520 0.02100
H 	H 	0.83990 0.88820 0.26660 0.04500
C 	C 	0.98420 0.73290 0.21440 -0.06400
C 	C 	0.37280 0.00110 0.55010 -0.01300
H 	H 	0.28660 0.00190 0.58360 0.05700
C 	C 	0.38280 0.12450 0.49500 -0.03900
C 	C 	0.51190 0.12300 0.44360 -0.03300
C 	C 	0.13570 0.53730 0.14330 0.26800
C 	C 	0.63860 0.80520 0.04340 0.33400
C 	C 	0.59180 0.96080 0.20170 0.36300
C 	C 	0.10340 0.70890 0.27590 0.36500
C 	C 	0.53300 0.25110 0.37800 0.29300
C 	C 	0.25580 0.25350 0.49340 0.27600
U 	U 	-0.00000 0.50000 0.50000 0.00300
