data_crystal

_cell_length_a 11.63350
_cell_length_b 16.79610
_cell_length_c 18.15750
_cell_angle_alpha 90.00000
_cell_angle_beta  90.00000
_cell_angle_gamma 90.00000

_symmetry_space_group_name_	'P 1'
_symmetry_space_group_name_H-M	'P 1'

loop_
_symmetry_equiv_pos_as_xyz
  x,y,z

loop_
_atom_site_label
_atom_site_type_symbol
_atom_site_fract_x
_atom_site_fract_y
_atom_site_fract_z
_atom_site_charge
Mn	Mn	0.50000 0.89026 0.18434 1.21400
Mn	Mn	0.50000 0.10974 0.81566 1.20800
Mn	Mn	0.50000 0.60974 0.68434 1.21200
Mn	Mn	0.50000 0.39026 0.31566 1.21100
Mn	Mn	0.50000 0.50000 -0.00000 1.17700
Mn	Mn	0.50000 0.00000 0.50000 1.17700
Cr	Cr	0.50000 0.80360 0.90096 1.47300
Cr	Cr	0.50000 0.19640 0.09904 1.46500
Cr	Cr	0.50000 0.69640 0.40096 1.46900
Cr	Cr	0.50000 0.30360 0.59904 1.46900
H 	H 	0.71420 0.82910 0.27630 -0.02900
H 	H 	0.91220 0.83090 0.28130 0.07600
H 	H 	0.91020 0.96010 0.09700 0.07700
H 	H 	0.71260 0.95360 0.09710 -0.02200
H 	H 	0.71610 0.57560 0.92140 -0.04200
H 	H 	0.91330 0.57710 0.91870 0.07200
H 	H 	0.71420 0.17090 0.72370 -0.03000
H 	H 	0.91220 0.16910 0.71870 0.07500
H 	H 	0.91020 0.03990 0.90300 0.07400
H 	H 	0.71260 0.04640 0.90290 -0.02600
H 	H 	0.71610 0.42440 0.07860 -0.03800
H 	H 	0.91330 0.42290 0.08130 0.07400
H 	H 	0.28580 0.67090 0.77630 -0.02900
H 	H 	0.08780 0.66910 0.78130 0.07700
H 	H 	0.08980 0.53990 0.59700 0.07600
H 	H 	0.28740 0.54640 0.59710 -0.02400
H 	H 	0.28390 0.92440 0.42140 -0.04200
H 	H 	0.08670 0.92290 0.41870 0.07100
H 	H 	0.28580 0.32910 0.22370 -0.03000
H 	H 	0.08780 0.33090 0.21870 0.07400
H 	H 	0.08980 0.46010 0.40300 0.07500
H 	H 	0.28740 0.45360 0.40290 -0.02400
H 	H 	0.28390 0.07560 0.57860 -0.03900
H 	H 	0.08670 0.07710 0.58130 0.07400
H 	H 	0.28580 0.17090 0.72370 -0.03000
H 	H 	0.08780 0.16910 0.71870 0.07500
H 	H 	0.08980 0.03990 0.90300 0.07400
H 	H 	0.28740 0.04640 0.90290 -0.02600
H 	H 	0.28390 0.42440 0.07860 -0.03800
H 	H 	0.08670 0.42290 0.08130 0.07400
H 	H 	0.28580 0.82910 0.27630 -0.02900
H 	H 	0.08780 0.83090 0.28130 0.07600
H 	H 	0.08980 0.96010 0.09700 0.07700
H 	H 	0.28740 0.95360 0.09710 -0.02200
H 	H 	0.28390 0.57560 0.92140 -0.04200
H 	H 	0.08670 0.57710 0.91870 0.07200
H 	H 	0.71420 0.32910 0.22370 -0.03000
H 	H 	0.91220 0.33090 0.21870 0.07400
H 	H 	0.91020 0.46010 0.40300 0.07500
H 	H 	0.71260 0.45360 0.40290 -0.02400
H 	H 	0.71610 0.07560 0.57860 -0.03900
H 	H 	0.91330 0.07710 0.58130 0.07400
H 	H 	0.71420 0.67090 0.77630 -0.02900
H 	H 	0.91220 0.66910 0.78130 0.07700
H 	H 	0.91020 0.53990 0.59700 0.07600
H 	H 	0.71260 0.54640 0.59710 -0.02400
H 	H 	0.71610 0.92440 0.42140 -0.04200
H 	H 	0.91330 0.92290 0.41870 0.07100
C 	C 	0.67890 0.80200 0.90230 -0.25600
C 	C 	0.75440 0.85610 0.23960 0.07500
C 	C 	0.87400 0.85670 0.24310 -0.14200
C 	C 	0.93510 0.89620 0.18910 0.05700
C 	C 	0.87250 0.93270 0.13440 -0.13900
C 	C 	0.75320 0.92900 0.13490 0.07800
C 	C 	0.75560 0.54350 0.95460 0.10300
C 	C 	0.87560 0.54500 0.95270 -0.12200
C 	C 	0.67890 0.19800 0.09770 -0.27700
C 	C 	0.75440 0.14390 0.76040 0.07400
C 	C 	0.87400 0.14330 0.75690 -0.14200
C 	C 	0.93510 0.10380 0.81090 0.05600
C 	C 	0.87250 0.06730 0.86560 -0.14000
C 	C 	0.75320 0.07100 0.86510 0.07600
C 	C 	0.75560 0.45650 0.04540 0.07400
C 	C 	0.87560 0.45500 0.04730 -0.14700
C 	C 	0.32110 0.69800 0.40230 -0.26700
C 	C 	0.24560 0.64390 0.73960 0.07600
C 	C 	0.12600 0.64330 0.74310 -0.14200
C 	C 	0.06490 0.60380 0.68910 0.05800
C 	C 	0.12750 0.56730 0.63440 -0.14000
C 	C 	0.24680 0.57100 0.63490 0.07700
C 	C 	0.24440 0.95650 0.45460 0.10400
C 	C 	0.12440 0.95500 0.45270 -0.12100
C 	C 	0.32110 0.30200 0.59770 -0.26700
C 	C 	0.24560 0.35610 0.26040 0.07300
C 	C 	0.12600 0.35670 0.25690 -0.14200
C 	C 	0.06490 0.39620 0.31090 0.05600
C 	C 	0.12750 0.43270 0.36560 -0.14000
C 	C 	0.24680 0.42900 0.36510 0.07600
C 	C 	0.24440 0.04350 0.54540 0.07400
C 	C 	0.12440 0.04500 0.54730 -0.14700
C 	C 	0.32110 0.19800 0.09770 -0.27700
C 	C 	0.24560 0.14390 0.76040 0.07400
C 	C 	0.12600 0.14330 0.75690 -0.14200
C 	C 	0.06490 0.10380 0.81090 0.05600
C 	C 	0.12750 0.06730 0.86560 -0.14000
C 	C 	0.24680 0.07100 0.86510 0.07600
C 	C 	0.24440 0.45650 0.04540 0.07400
C 	C 	0.12440 0.45500 0.04730 -0.14700
C 	C 	0.32110 0.80200 0.90230 -0.25600
C 	C 	0.24560 0.85610 0.23960 0.07500
C 	C 	0.12600 0.85670 0.24310 -0.14200
C 	C 	0.06490 0.89620 0.18910 0.05700
C 	C 	0.12750 0.93270 0.13440 -0.13900
C 	C 	0.24680 0.92900 0.13490 0.07800
C 	C 	0.24440 0.54350 0.95460 0.10300
C 	C 	0.12440 0.54500 0.95270 -0.12200
C 	C 	0.67890 0.30200 0.59770 -0.26700
C 	C 	0.75440 0.35610 0.26040 0.07300
C 	C 	0.87400 0.35670 0.25690 -0.14200
C 	C 	0.93510 0.39620 0.31090 0.05600
C 	C 	0.87250 0.43270 0.36560 -0.14000
C 	C 	0.75320 0.42900 0.36510 0.07600
C 	C 	0.75560 0.04350 0.54540 0.07400
C 	C 	0.87560 0.04500 0.54730 -0.14700
C 	C 	0.67890 0.69800 0.40230 -0.26700
C 	C 	0.75440 0.64390 0.73960 0.07600
C 	C 	0.87400 0.64330 0.74310 -0.14200
C 	C 	0.93510 0.60380 0.68910 0.05800
C 	C 	0.87250 0.56730 0.63440 -0.14000
C 	C 	0.75320 0.57100 0.63490 0.07700
C 	C 	0.75560 0.95650 0.45460 0.10400
C 	C 	0.87560 0.95500 0.45270 -0.12100
C 	C 	0.50000 0.83870 0.01040 -0.26400
C 	C 	0.50000 0.68710 0.93690 -0.25400
C 	C 	0.50000 0.76050 0.79500 -0.27100
C 	C 	0.50000 0.91890 0.86450 -0.24500
C 	C 	0.50000 0.16130 0.98960 -0.22100
C 	C 	0.50000 0.31290 0.06310 -0.27100
C 	C 	0.50000 0.23950 0.20500 -0.27600
C 	C 	0.50000 0.08110 0.13550 -0.27300
C 	C 	0.50000 0.66130 0.51040 -0.24100
C 	C 	0.50000 0.81290 0.43690 -0.26000
C 	C 	0.50000 0.73950 0.29500 -0.27400
C 	C 	0.50000 0.58110 0.36450 -0.26000
C 	C 	0.50000 0.33870 0.48960 -0.24300
C 	C 	0.50000 0.18710 0.56310 -0.26400
C 	C 	0.50000 0.26050 0.70500 -0.27300
C 	C 	0.50000 0.41890 0.63550 -0.25900
C 	C 	0.93690 0.50000 -0.00000 0.03800
C 	C 	0.06310 0.00000 0.50000 0.03700
C 	C 	0.06310 0.50000 -0.00000 0.03800
C 	C 	0.93690 0.00000 0.50000 0.03700
N 	N 	0.77850 0.80090 0.90460 -0.04600
N 	N 	0.69510 0.89160 0.18720 -0.26500
N 	N 	0.77850 0.19910 0.09540 -0.05700
N 	N 	0.69510 0.10840 0.81280 -0.26800
N 	N 	0.22150 0.69910 0.40460 -0.05200
N 	N 	0.30490 0.60840 0.68720 -0.26600
N 	N 	0.22150 0.30090 0.59540 -0.05200
N 	N 	0.30490 0.39160 0.31280 -0.26600
N 	N 	0.22150 0.19910 0.09540 -0.05700
N 	N 	0.30490 0.10840 0.81280 -0.26800
N 	N 	0.22150 0.80090 0.90460 -0.04600
N 	N 	0.30490 0.89160 0.18720 -0.26500
N 	N 	0.77850 0.30090 0.59540 -0.05200
N 	N 	0.69510 0.39160 0.31280 -0.26600
N 	N 	0.77850 0.69910 0.40460 -0.05200
N 	N 	0.69510 0.60840 0.68720 -0.26600
N 	N 	0.50000 0.85450 0.06960 -0.19600
N 	N 	0.50000 0.61990 0.95250 -0.21500
N 	N 	0.50000 0.72700 0.73880 -0.19900
N 	N 	0.50000 0.98250 0.84300 -0.19100
N 	N 	0.50000 0.14550 0.93040 -0.20300
N 	N 	0.50000 0.38010 0.04750 -0.22400
N 	N 	0.50000 0.27300 0.26120 -0.20200
N 	N 	0.50000 0.01750 0.15700 -0.21500
N 	N 	0.50000 0.64550 0.56960 -0.19900
N 	N 	0.50000 0.88010 0.45250 -0.21400
N 	N 	0.50000 0.77300 0.23880 -0.20200
N 	N 	0.50000 0.51750 0.34300 -0.20300
N 	N 	0.50000 0.35450 0.43040 -0.20000
N 	N 	0.50000 0.11990 0.54750 -0.22400
N 	N 	0.50000 0.22700 0.76120 -0.20000
N 	N 	0.50000 0.48250 0.65700 -0.20300
N 	N 	0.69530 0.50000 -0.00000 -0.29800
N 	N 	0.30470 0.00000 0.50000 -0.29900
N 	N 	0.30470 0.50000 -0.00000 -0.29800
N 	N 	0.69530 0.00000 0.50000 -0.29900
