data_crystal

_cell_length_a 18.47300
_cell_length_b 18.47300
_cell_length_c 52.11000
_cell_angle_alpha 90.00000
_cell_angle_beta  90.00000
_cell_angle_gamma 120.00000

_symmetry_space_group_name_	'P 1'
_symmetry_space_group_name_H-M	'P 1'

loop_
_symmetry_equiv_pos_as_xyz
  x,y,z

loop_
_atom_site_label
_atom_site_type_symbol
_atom_site_fract_x
_atom_site_fract_y
_atom_site_fract_z
_atom_site_charge
Cu	Cu	0.47545 0.95077 0.02074 0.91000
O 	O 	0.11080 0.62720 0.00202 -0.40300
O 	O 	0.02700 0.58700 0.96715 -0.40300
O 	O 	0.37210 0.88900 0.00189 -0.39600
O 	O 	0.41390 0.97260 0.96692 -0.40600
C 	C 	0.35810 0.90760 0.97927 0.33000
C 	C 	0.28060 0.84970 0.96671 -0.09000
C 	C 	0.21710 0.78320 0.97935 0.03200
H 	H 	0.21970 0.78110 0.99710 0.04200
C 	C 	0.26660 0.86220 0.94102 -0.05200
H 	H 	0.30760 0.90790 0.93210 0.04500
C 	C 	0.19220 0.80720 0.92878 0.00500
C 	C 	0.18240 0.81620 0.90116 -0.02700
C 	C 	0.10690 0.80640 0.89060 -0.80500
C 	C 	0.10210 0.81440 0.86390 1.58700
H 	H 	0.05360 0.80940 0.85680 -1.22100
C 	C 	0.16930 0.83000 0.84797 -0.03100
C 	C 	0.24450 0.84300 0.85850 1.71500
C 	C 	0.24750 0.82790 0.88440 -1.41500
H 	H 	0.29310 0.82540 0.89090 0.52100
C 	C 	0.03270 0.79440 0.90830 0.37600
H 	H 	0.04590 0.79050 0.92590 -0.08700
H 	H 	0.98270 0.74410 0.90350 -0.09600
H 	H 	0.02430 0.84140 0.90630 -0.10400
C 	C 	0.32010 0.86810 0.84140 -3.62200
H 	H 	0.30600 0.87240 0.82400 1.66500
H 	H 	0.33690 0.82670 0.84260 1.12400
H 	H 	0.36530 0.92120 0.84700 1.10000
C 	C 	0.09180 0.64140 0.97946 0.33900
C 	C 	0.14890 0.71890 0.96671 -0.09600
C 	C 	0.13660 0.73400 0.94082 -0.02000
H 	H 	0.09030 0.69390 0.93190 0.05300
C 	C 	0.21280 0.96830 0.90870 -1.49800
H 	H 	0.21650 0.95380 0.92620 0.47000
H 	H 	0.16830 0.98070 0.90720 0.45900
H 	H 	0.26460 0.01640 0.90380 0.45700
C 	C 	0.19450 0.89260 0.89060 1.04500
H 	H 	0.12400 0.69650 0.82300 -1.43100
H 	H 	0.07770 0.63390 0.84550 -0.78500
H 	H 	0.17240 0.66530 0.84020 -0.82600
C 	C 	0.15450 0.75460 0.85840 -1.42500
C 	C 	0.16920 0.75070 0.88460 1.16600
H 	H 	0.17020 0.70430 0.89110 -0.38700
C 	C 	0.18690 0.89830 0.86400 -1.81500
H 	H 	0.19360 0.94750 0.85690 1.37600
C 	C 	0.12980 0.68060 0.84000 2.63500
Cu	Cu	0.14212 0.28410 0.35407 0.91000
O 	O 	0.77747 0.96053 0.33535 -0.40300
O 	O 	0.69367 0.92033 0.30048 -0.40300
O 	O 	0.03877 0.22233 0.33522 -0.39600
O 	O 	0.08057 0.30593 0.30025 -0.40600
C 	C 	0.02477 0.24093 0.31260 0.32300
C 	C 	0.94727 0.18303 0.30004 -0.08200
C 	C 	0.88377 0.11653 0.31268 0.02300
H 	H 	0.88637 0.11443 0.33043 0.04500
C 	C 	0.93327 0.19553 0.27435 -0.06100
H 	H 	0.97427 0.24123 0.26543 0.04700
C 	C 	0.85887 0.14053 0.26211 0.01200
C 	C 	0.84907 0.14953 0.23449 -0.03900
C 	C 	0.77357 0.13973 0.22393 -0.80100
C 	C 	0.76877 0.14773 0.19723 1.58500
H 	H 	0.72027 0.14273 0.19013 -1.22900
C 	C 	0.83597 0.16333 0.18130 -0.01700
C 	C 	0.91117 0.17633 0.19183 1.69800
C 	C 	0.91417 0.16123 0.21773 -1.40500
H 	H 	0.95977 0.15873 0.22423 0.51900
C 	C 	0.69937 0.12773 0.24163 0.36300
H 	H 	0.71257 0.12383 0.25923 -0.08400
H 	H 	0.64937 0.07743 0.23683 -0.09000
H 	H 	0.69097 0.17473 0.23963 -0.10100
C 	C 	0.98677 0.20143 0.17473 -3.57000
H 	H 	0.97267 0.20573 0.15733 1.64600
H 	H 	0.00357 0.16003 0.17593 1.10700
H 	H 	0.03197 0.25453 0.18033 1.08200
C 	C 	0.75847 0.97473 0.31279 0.33300
C 	C 	0.81557 0.05223 0.30004 -0.08700
C 	C 	0.80327 0.06733 0.27415 -0.02700
H 	H 	0.75697 0.02723 0.26523 0.05600
C 	C 	0.87947 0.30163 0.24203 -1.50900
H 	H 	0.88317 0.28713 0.25953 0.47300
H 	H 	0.83497 0.31403 0.24053 0.46100
H 	H 	0.93127 0.34973 0.23713 0.46200
C 	C 	0.86117 0.22593 0.22393 1.04800
H 	H 	0.79067 0.02983 0.15633 -1.45700
H 	H 	0.74437 0.96723 0.17883 -0.80600
H 	H 	0.83907 0.99863 0.17353 -0.84600
C 	C 	0.82117 0.08793 0.19173 -1.44200
C 	C 	0.83587 0.08403 0.21793 1.17600
H 	H 	0.83687 0.03763 0.22443 -0.39000
C 	C 	0.85357 0.23163 0.19733 -1.81100
H 	H 	0.86027 0.28083 0.19023 1.36300
C 	C 	0.79647 0.01393 0.17333 2.69600
Cu	Cu	0.80878 0.61744 0.68740 0.90900
O 	O 	0.44413 0.29387 0.66869 -0.40400
O 	O 	0.36033 0.25367 0.63382 -0.40300
O 	O 	0.70543 0.55567 0.66856 -0.39700
O 	O 	0.74723 0.63927 0.63359 -0.40700
C 	C 	0.69143 0.57427 0.64594 0.32800
C 	C 	0.61393 0.51637 0.63338 -0.08900
C 	C 	0.55043 0.44987 0.64602 0.02900
H 	H 	0.55303 0.44777 0.66377 0.04100
C 	C 	0.59993 0.52887 0.60769 -0.05700
H 	H 	0.64093 0.57457 0.59877 0.04400
C 	C 	0.52553 0.47387 0.59545 0.00700
C 	C 	0.51573 0.48287 0.56783 -0.03400
C 	C 	0.44023 0.47307 0.55727 -0.90300
C 	C 	0.43543 0.48107 0.53057 1.76800
H 	H 	0.38693 0.47607 0.52347 -1.35800
C 	C 	0.50263 0.49667 0.51464 -0.02300
C 	C 	0.57783 0.50967 0.52517 1.88500
C 	C 	0.58083 0.49457 0.55107 -1.55500
H 	H 	0.62643 0.49207 0.55757 0.57200
C 	C 	0.36603 0.46107 0.57497 0.46900
H 	H 	0.37923 0.45717 0.59257 -0.11600
H 	H 	0.31603 0.41077 0.57017 -0.12100
H 	H 	0.35763 0.50807 0.57297 -0.13400
C 	C 	0.65343 0.53477 0.50807 -3.94900
H 	H 	0.63933 0.53907 0.49067 1.82000
H 	H 	0.67023 0.49337 0.50927 1.23100
H 	H 	0.69863 0.58787 0.51367 1.20200
C 	C 	0.42513 0.30807 0.64613 0.33900
C 	C 	0.48223 0.38557 0.63338 -0.09500
C 	C 	0.46993 0.40067 0.60749 -0.02000
H 	H 	0.42363 0.36057 0.59857 0.05400
C 	C 	0.54613 0.63497 0.57537 -1.61300
H 	H 	0.54983 0.62047 0.59287 0.50300
H 	H 	0.50163 0.64737 0.57387 0.49200
H 	H 	0.59793 0.68307 0.57047 0.49300
C 	C 	0.52783 0.55927 0.55727 1.15200
H 	H 	0.45733 0.36317 0.48967 -1.62500
H 	H 	0.41103 0.30057 0.51217 -0.89700
H 	H 	0.50573 0.33197 0.50687 -0.94100
C 	C 	0.48783 0.42127 0.52507 -1.60500
C 	C 	0.50253 0.41737 0.55127 1.31300
H 	H 	0.50353 0.37097 0.55777 -0.43800
C 	C 	0.52023 0.56497 0.53067 -2.00700
H 	H 	0.52693 0.61417 0.52357 1.52400
C 	C 	0.46313 0.34727 0.50667 3.01100
Cu	Cu	0.04923 0.52468 0.02074 0.90900
O 	O 	0.37280 0.48360 0.00202 -0.40300
O 	O 	0.41300 0.44000 0.96715 -0.40200
O 	O 	0.11100 0.48310 0.00189 -0.39700
O 	O 	0.02740 0.44130 0.96692 -0.40700
C 	C 	0.09240 0.45050 0.97927 0.32800
C 	C 	0.15030 0.43090 0.96671 -0.08900
C 	C 	0.21680 0.43390 0.97935 0.02900
H 	H 	0.21890 0.43860 0.99710 0.04200
C 	C 	0.13780 0.40440 0.94102 -0.05800
H 	H 	0.09210 0.39970 0.93210 0.04400
C 	C 	0.19280 0.38500 0.92878 0.00700
C 	C 	0.18380 0.36620 0.90116 -0.03400
C 	C 	0.19360 0.30050 0.89060 -0.90900
C 	C 	0.18560 0.28770 0.86390 1.78100
H 	H 	0.19060 0.24420 0.85680 -1.36700
C 	C 	0.17000 0.33930 0.84797 -0.02400
C 	C 	0.15700 0.40150 0.85850 1.89300
C 	C 	0.17210 0.41960 0.88440 -1.56100
H 	H 	0.17460 0.46770 0.89090 0.57400
C 	C 	0.20560 0.23830 0.90830 0.47400
H 	H 	0.20950 0.25540 0.92590 -0.11700
H 	H 	0.25590 0.23860 0.90350 -0.12300
H 	H 	0.15860 0.18290 0.90630 -0.13500
C 	C 	0.13190 0.45200 0.84140 -3.96200
H 	H 	0.12760 0.43360 0.82400 1.82800
H 	H 	0.17330 0.51020 0.84260 1.23300
H 	H 	0.07880 0.44410 0.84700 1.20400
C 	C 	0.35860 0.45040 0.97946 0.33900
C 	C 	0.28110 0.43000 0.96671 -0.09400
C 	C 	0.26600 0.40260 0.94082 -0.02000
H 	H 	0.30610 0.39640 0.93190 0.05500
C 	C 	0.03170 0.24450 0.90870 -1.61200
H 	H 	0.04620 0.26270 0.92620 0.50300
H 	H 	0.01930 0.18760 0.90720 0.49100
H 	H 	0.98360 0.24820 0.90380 0.49000
C 	C 	0.10740 0.30190 0.89060 1.15800
H 	H 	0.30350 0.42750 0.82300 -1.63000
H 	H 	0.36610 0.44380 0.84550 -0.89500
H 	H 	0.33470 0.50710 0.84020 -0.93700
C 	C 	0.24540 0.39990 0.85840 -1.60900
C 	C 	0.24930 0.41850 0.88460 1.31700
H 	H 	0.29570 0.46590 0.89110 -0.43700
C 	C 	0.10170 0.28860 0.86400 -2.02400
H 	H 	0.05250 0.24610 0.85690 1.54300
C 	C 	0.31940 0.44920 0.84000 3.01600
Cu	Cu	0.71590 0.85801 0.35407 0.91000
O 	O 	0.03947 0.81693 0.33535 -0.40300
O 	O 	0.07967 0.77333 0.30048 -0.40300
O 	O 	0.77767 0.81643 0.33522 -0.39600
O 	O 	0.69407 0.77463 0.30025 -0.40700
C 	C 	0.75907 0.78383 0.31260 0.32800
C 	C 	0.81697 0.76423 0.30004 -0.08700
C 	C 	0.88347 0.76723 0.31268 0.02600
H 	H 	0.88557 0.77193 0.33043 0.04300
C 	C 	0.80447 0.73773 0.27435 -0.06000
H 	H 	0.75877 0.73303 0.26543 0.04500
C 	C 	0.85947 0.71833 0.26211 0.01000
C 	C 	0.85047 0.69953 0.23449 -0.03700
C 	C 	0.86027 0.63383 0.22393 -0.90700
C 	C 	0.85227 0.62103 0.19723 1.77900
H 	H 	0.85727 0.57753 0.19013 -1.36600
C 	C 	0.83667 0.67263 0.18130 -0.02000
C 	C 	0.82367 0.73483 0.19183 1.89500
C 	C 	0.83877 0.75293 0.21773 -1.56300
H 	H 	0.84127 0.80103 0.22423 0.57400
C 	C 	0.87227 0.57163 0.24163 0.47200
H 	H 	0.87617 0.58873 0.25923 -0.11600
H 	H 	0.92257 0.57193 0.23683 -0.12100
H 	H 	0.82527 0.51623 0.23963 -0.13500
C 	C 	0.79857 0.78533 0.17473 -3.96600
H 	H 	0.79427 0.76693 0.15733 1.82900
H 	H 	0.83997 0.84353 0.17593 1.23400
H 	H 	0.74547 0.77743 0.18033 1.20500
C 	C 	0.02527 0.78373 0.31279 0.33500
C 	C 	0.94777 0.76333 0.30004 -0.09000
C 	C 	0.93267 0.73593 0.27415 -0.02300
H 	H 	0.97277 0.72973 0.26523 0.05700
C 	C 	0.69837 0.57783 0.24203 -1.61700
H 	H 	0.71287 0.59603 0.25953 0.50400
H 	H 	0.68597 0.52093 0.24053 0.49300
H 	H 	0.65027 0.58153 0.23713 0.49300
C 	C 	0.77407 0.63523 0.22393 1.15900
H 	H 	0.97017 0.76083 0.15633 -1.65000
H 	H 	0.03277 0.77713 0.17883 -0.91000
H 	H 	0.00137 0.84043 0.17353 -0.95300
C 	C 	0.91207 0.73323 0.19173 -1.62300
C 	C 	0.91597 0.75183 0.21793 1.32600
H 	H 	0.96237 0.79923 0.22443 -0.44000
C 	C 	0.76837 0.62193 0.19733 -2.02000
H 	H 	0.71917 0.57943 0.19023 1.53200
C 	C 	0.98607 0.78253 0.17333 3.06300
Cu	Cu	0.38256 0.19135 0.68740 0.90900
O 	O 	0.70613 0.15027 0.66869 -0.40300
O 	O 	0.74633 0.10667 0.63382 -0.40300
O 	O 	0.44433 0.14977 0.66856 -0.39700
O 	O 	0.36073 0.10797 0.63359 -0.40700
C 	C 	0.42573 0.11717 0.64594 0.32800
C 	C 	0.48363 0.09757 0.63338 -0.08900
C 	C 	0.55013 0.10057 0.64602 0.02800
H 	H 	0.55223 0.10527 0.66377 0.04200
C 	C 	0.47113 0.07107 0.60769 -0.05900
H 	H 	0.42543 0.06637 0.59877 0.04400
C 	C 	0.52613 0.05167 0.59545 0.00900
C 	C 	0.51713 0.03287 0.56783 -0.03900
C 	C 	0.52693 0.96717 0.55727 -0.90700
C 	C 	0.51893 0.95437 0.53057 1.77900
H 	H 	0.52393 0.91087 0.52347 -1.36500
C 	C 	0.50333 0.00597 0.51464 -0.02100
C 	C 	0.49033 0.06817 0.52517 1.89500
C 	C 	0.50543 0.08627 0.55107 -1.56300
H 	H 	0.50793 0.13437 0.55757 0.57500
C 	C 	0.53893 0.90497 0.57497 0.47300
H 	H 	0.54283 0.92207 0.59257 -0.11600
H 	H 	0.58923 0.90527 0.57017 -0.12200
H 	H 	0.49193 0.84957 0.57297 -0.13500
C 	C 	0.46523 0.11867 0.50807 -3.96600
H 	H 	0.46093 0.10027 0.49067 1.82800
H 	H 	0.50663 0.17687 0.50927 1.23700
H 	H 	0.41213 0.11077 0.51367 1.20700
C 	C 	0.69193 0.11707 0.64613 0.33800
C 	C 	0.61443 0.09667 0.63338 -0.09400
C 	C 	0.59933 0.06927 0.60749 -0.02100
H 	H 	0.63943 0.06307 0.59857 0.05500
C 	C 	0.36503 0.91117 0.57537 -1.62400
H 	H 	0.37953 0.92937 0.59287 0.50700
H 	H 	0.35263 0.85427 0.57387 0.49500
H 	H 	0.31693 0.91487 0.57047 0.49600
C 	C 	0.44073 0.96857 0.55727 1.16200
H 	H 	0.63683 0.09417 0.48967 -1.64100
H 	H 	0.69943 0.11047 0.51217 -0.90600
H 	H 	0.66803 0.17377 0.50687 -0.95000
C 	C 	0.57873 0.06657 0.52507 -1.61900
C 	C 	0.58263 0.08517 0.55127 1.32500
H 	H 	0.62903 0.13257 0.55777 -0.44200
C 	C 	0.43503 0.95527 0.53067 -2.02300
H 	H 	0.38583 0.91277 0.52357 1.53700
C 	C 	0.65273 0.11587 0.50667 3.04200
Cu	Cu	0.47532 0.52455 0.02074 0.91000
O 	O 	0.51640 0.88920 0.00202 -0.40400
O 	O 	0.56000 0.97300 0.96715 -0.40500
O 	O 	0.51690 0.62790 0.00189 -0.39700
O 	O 	0.55870 0.58610 0.96692 -0.40600
C 	C 	0.54950 0.64190 0.97927 0.33100
C 	C 	0.56910 0.71940 0.96671 -0.09500
C 	C 	0.56610 0.78290 0.97935 0.03500
H 	H 	0.56140 0.78030 0.99710 0.04000
C 	C 	0.59560 0.73340 0.94102 -0.04200
H 	H 	0.60030 0.69240 0.93210 0.04300
C 	C 	0.61500 0.80780 0.92878 -0.00900
C 	C 	0.63380 0.81760 0.90116 0.00000
C 	C 	0.69950 0.89310 0.89060 -0.66600
C 	C 	0.71230 0.89790 0.86390 1.32600
H 	H 	0.75580 0.94640 0.85680 -1.04300
C 	C 	0.66070 0.83070 0.84797 -0.06100
C 	C 	0.59850 0.75550 0.85850 1.48000
C 	C 	0.58040 0.75250 0.88440 -1.21800
H 	H 	0.53230 0.70690 0.89090 0.45500
C 	C 	0.76170 0.96730 0.90830 0.23500
H 	H 	0.74460 0.95410 0.92590 -0.04600
H 	H 	0.76140 0.01730 0.90350 -0.05500
H 	H 	0.81710 0.97570 0.90630 -0.06300
C 	C 	0.54800 0.67990 0.84140 -3.19700
H 	H 	0.56640 0.69400 0.82400 1.46200
H 	H 	0.48980 0.66310 0.84260 1.00300
H 	H 	0.55590 0.63470 0.84700 0.97800
C 	C 	0.54960 0.90820 0.97946 0.34000
C 	C 	0.57000 0.85110 0.96671 -0.10000
C 	C 	0.59740 0.86340 0.94082 -0.01400
H 	H 	0.60360 0.90970 0.93190 0.04900
C 	C 	0.75550 0.78720 0.90870 -1.32500
H 	H 	0.73730 0.78350 0.92620 0.41900
H 	H 	0.81240 0.83170 0.90720 0.40700
H 	H 	0.75180 0.73540 0.90380 0.40800
C 	C 	0.69810 0.80550 0.89060 0.86800
H 	H 	0.57250 0.87600 0.82300 -1.10700
H 	H 	0.55620 0.92230 0.84550 -0.59900
H 	H 	0.49290 0.82760 0.84020 -0.63200
C 	C 	0.60010 0.84550 0.85840 -1.13400
C 	C 	0.58150 0.83080 0.88460 0.93100
H 	H 	0.53410 0.82980 0.89110 -0.30500
C 	C 	0.71140 0.81310 0.86400 -1.48300
H 	H 	0.75390 0.80640 0.85690 1.09200
C 	C 	0.55080 0.87020 0.84000 2.01100
Cu	Cu	0.14199 0.85788 0.35407 0.90900
O 	O 	0.18307 0.22253 0.33535 -0.40400
O 	O 	0.22667 0.30633 0.30048 -0.40500
O 	O 	0.18357 0.96123 0.33522 -0.39700
O 	O 	0.22537 0.91943 0.30025 -0.40600
C 	C 	0.21617 0.97523 0.31260 0.32800
C 	C 	0.23577 0.05273 0.30004 -0.09100
C 	C 	0.23277 0.11623 0.31268 0.03200
H 	H 	0.22807 0.11363 0.33043 0.04100
C 	C 	0.26227 0.06673 0.27435 -0.04500
H 	H 	0.26697 0.02573 0.26543 0.04400
C 	C 	0.28167 0.14113 0.26211 -0.00600
C 	C 	0.30047 0.15093 0.23449 -0.00400
C 	C 	0.36617 0.22643 0.22393 -0.66400
C 	C 	0.37897 0.23123 0.19723 1.32600
H 	H 	0.42247 0.27973 0.19013 -1.04900
C 	C 	0.32737 0.16403 0.18130 -0.05600
C 	C 	0.26517 0.08883 0.19183 1.46700
C 	C 	0.24707 0.08583 0.21773 -1.20900
H 	H 	0.19897 0.04023 0.22423 0.45300
C 	C 	0.42837 0.30063 0.24163 0.22800
H 	H 	0.41127 0.28743 0.25923 -0.04400
H 	H 	0.42807 0.35063 0.23683 -0.05200
H 	H 	0.48377 0.30903 0.23963 -0.06100
C 	C 	0.21467 0.01323 0.17473 -3.16000
H 	H 	0.23307 0.02733 0.15733 1.44800
H 	H 	0.15647 0.99643 0.17593 0.99100
H 	H 	0.22257 0.96803 0.18033 0.96600
C 	C 	0.21627 0.24153 0.31279 0.33900
C 	C 	0.23667 0.18443 0.30004 -0.09800
C 	C 	0.26407 0.19673 0.27415 -0.01600
H 	H 	0.27027 0.24303 0.26523 0.05000
C 	C 	0.42217 0.12053 0.24203 -1.32700
H 	H 	0.40397 0.11683 0.25953 0.41900
H 	H 	0.47907 0.16503 0.24053 0.40800
H 	H 	0.41847 0.06873 0.23713 0.40900
C 	C 	0.36477 0.13883 0.22393 0.86900
H 	H 	0.23917 0.20933 0.15633 -1.10600
H 	H 	0.22287 0.25563 0.17883 -0.59800
H 	H 	0.15957 0.16093 0.17353 -0.63000
C 	C 	0.26677 0.17883 0.19173 -1.13300
C 	C 	0.24817 0.16413 0.21793 0.92900
H 	H 	0.20077 0.16313 0.22443 -0.30400
C 	C 	0.37807 0.14643 0.19733 -1.48400
H 	H 	0.42057 0.13973 0.19023 1.09300
C 	C 	0.21747 0.20353 0.17333 2.00800
Cu	Cu	0.80865 0.19122 0.68740 0.91000
O 	O 	0.84973 0.55587 0.66869 -0.40400
O 	O 	0.89333 0.63967 0.63382 -0.40300
O 	O 	0.85023 0.29457 0.66856 -0.39700
O 	O 	0.89203 0.25277 0.63359 -0.40700
C 	C 	0.88283 0.30857 0.64594 0.32800
C 	C 	0.90243 0.38607 0.63338 -0.08900
C 	C 	0.89943 0.44957 0.64602 0.02900
H 	H 	0.89473 0.44697 0.66377 0.04200
C 	C 	0.92893 0.40007 0.60769 -0.05800
H 	H 	0.93363 0.35907 0.59877 0.04400
C 	C 	0.94833 0.47447 0.59545 0.00800
C 	C 	0.96713 0.48427 0.56783 -0.03700
C 	C 	0.03283 0.55977 0.55727 -0.90200
C 	C 	0.04563 0.56457 0.53057 1.76900
H 	H 	0.08913 0.61307 0.52347 -1.35900
C 	C 	0.99403 0.49737 0.51464 -0.02300
C 	C 	0.93183 0.42217 0.52517 1.88600
C 	C 	0.91373 0.41917 0.55107 -1.55500
H 	H 	0.86563 0.37357 0.55757 0.57200
C 	C 	0.09503 0.63397 0.57497 0.46700
H 	H 	0.07793 0.62077 0.59257 -0.11400
H 	H 	0.09473 0.68397 0.57017 -0.12100
H 	H 	0.15043 0.64237 0.57297 -0.13300
C 	C 	0.88133 0.34657 0.50807 -3.95100
H 	H 	0.89973 0.36067 0.49067 1.82100
H 	H 	0.82313 0.32977 0.50927 1.23200
H 	H 	0.88923 0.30137 0.51367 1.20300
C 	C 	0.88293 0.57487 0.64613 0.33800
C 	C 	0.90333 0.51777 0.63338 -0.09500
C 	C 	0.93073 0.53007 0.60749 -0.02100
H 	H 	0.93693 0.57637 0.59857 0.05400
C 	C 	0.08883 0.45387 0.57537 -1.61500
H 	H 	0.07063 0.45017 0.59287 0.50500
H 	H 	0.14573 0.49837 0.57387 0.49300
H 	H 	0.08513 0.40207 0.57047 0.49300
C 	C 	0.03143 0.47217 0.55727 1.15400
H 	H 	0.90583 0.54267 0.48967 -1.62500
H 	H 	0.88953 0.58897 0.51217 -0.89700
H 	H 	0.82623 0.49427 0.50687 -0.94100
C 	C 	0.93343 0.51217 0.52507 -1.60500
C 	C 	0.91483 0.49747 0.55127 1.31400
H 	H 	0.86743 0.49647 0.55777 -0.43800
C 	C 	0.04473 0.47977 0.53067 -2.00800
H 	H 	0.08723 0.47307 0.52357 1.52400
C 	C 	0.88413 0.53687 0.50667 3.01200
Cu	Cu	0.52455 0.04923 0.97926 0.90900
O 	O 	0.88920 0.37280 0.99798 -0.40400
O 	O 	0.97300 0.41300 0.03285 -0.40400
O 	O 	0.62790 0.11100 0.99811 -0.39700
O 	O 	0.58610 0.02740 0.03308 -0.40700
C 	C 	0.64190 0.09240 0.02073 0.32900
C 	C 	0.71940 0.15030 0.03329 -0.09100
C 	C 	0.78290 0.21680 0.02065 0.03100
H 	H 	0.78030 0.21890 0.00290 0.04100
C 	C 	0.73340 0.13780 0.05898 -0.05300
H 	H 	0.69240 0.09210 0.06790 0.04400
C 	C 	0.80780 0.19280 0.07122 0.00400
C 	C 	0.81760 0.18380 0.09884 -0.02800
C 	C 	0.89310 0.19360 0.10940 -0.80600
C 	C 	0.89790 0.18560 0.13610 1.58700
H 	H 	0.94640 0.19060 0.14320 -1.22100
C 	C 	0.83070 0.17000 0.15203 -0.03100
C 	C 	0.75550 0.15700 0.14150 1.71500
C 	C 	0.75250 0.17210 0.11560 -1.41500
H 	H 	0.70690 0.17460 0.10910 0.52100
C 	C 	0.96730 0.20560 0.09170 0.37600
H 	H 	0.95410 0.20950 0.07410 -0.08700
H 	H 	0.01730 0.25590 0.09650 -0.09600
H 	H 	0.97570 0.15860 0.09370 -0.10400
C 	C 	0.67990 0.13190 0.15860 -3.62200
H 	H 	0.69400 0.12760 0.17600 1.66500
H 	H 	0.66310 0.17330 0.15740 1.12400
H 	H 	0.63470 0.07880 0.15300 1.10000
C 	C 	0.90820 0.35860 0.02054 0.33900
C 	C 	0.85110 0.28110 0.03329 -0.09600
C 	C 	0.86340 0.26600 0.05918 -0.02000
H 	H 	0.90970 0.30610 0.06810 0.05300
C 	C 	0.78720 0.03170 0.09130 -1.49800
H 	H 	0.78350 0.04620 0.07380 0.47000
H 	H 	0.83170 0.01930 0.09280 0.45900
H 	H 	0.73540 0.98360 0.09620 0.45700
C 	C 	0.80550 0.10740 0.10940 1.04500
H 	H 	0.87600 0.30350 0.17700 -1.43100
H 	H 	0.92230 0.36610 0.15450 -0.78500
H 	H 	0.82760 0.33470 0.15980 -0.82600
C 	C 	0.84550 0.24540 0.14160 -1.42500
C 	C 	0.83080 0.24930 0.11540 1.16600
H 	H 	0.82980 0.29570 0.10890 -0.38700
C 	C 	0.81310 0.10170 0.13600 -1.81500
H 	H 	0.80640 0.05250 0.14310 1.37600
C 	C 	0.87020 0.31940 0.16000 2.63500
Cu	Cu	0.19122 0.38256 0.31260 0.90900
O 	O 	0.55587 0.70613 0.33131 -0.40400
O 	O 	0.63967 0.74633 0.36618 -0.40300
O 	O 	0.29457 0.44433 0.33144 -0.39700
O 	O 	0.25277 0.36073 0.36641 -0.40700
C 	C 	0.30857 0.42573 0.35406 0.32800
C 	C 	0.38607 0.48363 0.36662 -0.08900
C 	C 	0.44957 0.55013 0.35398 0.02900
H 	H 	0.44697 0.55223 0.33623 0.04100
C 	C 	0.40007 0.47113 0.39231 -0.05700
H 	H 	0.35907 0.42543 0.40123 0.04400
C 	C 	0.47447 0.52613 0.40455 0.00700
C 	C 	0.48427 0.51713 0.43217 -0.03400
C 	C 	0.55977 0.52693 0.44273 -0.90300
C 	C 	0.56457 0.51893 0.46943 1.76800
H 	H 	0.61307 0.52393 0.47653 -1.35800
C 	C 	0.49737 0.50333 0.48536 -0.02300
C 	C 	0.42217 0.49033 0.47483 1.88500
C 	C 	0.41917 0.50543 0.44893 -1.55500
H 	H 	0.37357 0.50793 0.44243 0.57200
C 	C 	0.63397 0.53893 0.42503 0.46900
H 	H 	0.62077 0.54283 0.40743 -0.11600
H 	H 	0.68397 0.58923 0.42983 -0.12100
H 	H 	0.64237 0.49193 0.42703 -0.13400
C 	C 	0.34657 0.46523 0.49193 -3.94900
H 	H 	0.36067 0.46093 0.50933 1.82000
H 	H 	0.32977 0.50663 0.49073 1.23100
H 	H 	0.30137 0.41213 0.48633 1.20200
C 	C 	0.57487 0.69193 0.35387 0.33900
C 	C 	0.51777 0.61443 0.36662 -0.09500
C 	C 	0.53007 0.59933 0.39251 -0.02000
H 	H 	0.57637 0.63943 0.40143 0.05400
C 	C 	0.45387 0.36503 0.42463 -1.61300
H 	H 	0.45017 0.37953 0.40713 0.50300
H 	H 	0.49837 0.35263 0.42613 0.49200
H 	H 	0.40207 0.31693 0.42953 0.49300
C 	C 	0.47217 0.44073 0.44273 1.15200
H 	H 	0.54267 0.63683 0.51033 -1.62500
H 	H 	0.58897 0.69943 0.48783 -0.89700
H 	H 	0.49427 0.66803 0.49313 -0.94100
C 	C 	0.51217 0.57873 0.47493 -1.60500
C 	C 	0.49747 0.58263 0.44873 1.31300
H 	H 	0.49647 0.62903 0.44223 -0.43800
C 	C 	0.47977 0.43503 0.46933 -2.00700
H 	H 	0.47307 0.38583 0.47643 1.52400
C 	C 	0.53687 0.65273 0.49333 3.01100
Cu	Cu	0.85788 0.71590 0.64593 0.91000
O 	O 	0.22253 0.03947 0.66465 -0.40300
O 	O 	0.30633 0.07967 0.69952 -0.40300
O 	O 	0.96123 0.77767 0.66478 -0.39600
O 	O 	0.91943 0.69407 0.69975 -0.40600
C 	C 	0.97523 0.75907 0.68740 0.32300
C 	C 	0.05273 0.81697 0.69996 -0.08200
C 	C 	0.11623 0.88347 0.68732 0.02300
H 	H 	0.11363 0.88557 0.66957 0.04500
C 	C 	0.06673 0.80447 0.72565 -0.06100
H 	H 	0.02573 0.75877 0.73457 0.04700
C 	C 	0.14113 0.85947 0.73789 0.01200
C 	C 	0.15093 0.85047 0.76551 -0.03900
C 	C 	0.22643 0.86027 0.77607 -0.80100
C 	C 	0.23123 0.85227 0.80277 1.58500
H 	H 	0.27973 0.85727 0.80987 -1.22900
C 	C 	0.16403 0.83667 0.81870 -0.01700
C 	C 	0.08883 0.82367 0.80817 1.69800
C 	C 	0.08583 0.83877 0.78227 -1.40500
H 	H 	0.04023 0.84127 0.77577 0.51900
C 	C 	0.30063 0.87227 0.75837 0.36300
H 	H 	0.28743 0.87617 0.74077 -0.08400
H 	H 	0.35063 0.92257 0.76317 -0.09000
H 	H 	0.30903 0.82527 0.76037 -0.10100
C 	C 	0.01323 0.79857 0.82527 -3.57000
H 	H 	0.02733 0.79427 0.84267 1.64600
H 	H 	0.99643 0.83997 0.82407 1.10700
H 	H 	0.96803 0.74547 0.81967 1.08200
C 	C 	0.24153 0.02527 0.68721 0.33300
C 	C 	0.18443 0.94777 0.69996 -0.08700
C 	C 	0.19673 0.93267 0.72585 -0.02700
H 	H 	0.24303 0.97277 0.73477 0.05600
C 	C 	0.12053 0.69837 0.75797 -1.50900
H 	H 	0.11683 0.71287 0.74047 0.47300
H 	H 	0.16503 0.68597 0.75947 0.46100
H 	H 	0.06873 0.65027 0.76287 0.46200
C 	C 	0.13883 0.77407 0.77607 1.04800
H 	H 	0.20933 0.97017 0.84367 -1.45700
H 	H 	0.25563 0.03277 0.82117 -0.80600
H 	H 	0.16093 0.00137 0.82647 -0.84600
C 	C 	0.17883 0.91207 0.80827 -1.44200
C 	C 	0.16413 0.91597 0.78207 1.17600
H 	H 	0.16313 0.96237 0.77557 -0.39000
C 	C 	0.14643 0.76837 0.80267 -1.81100
H 	H 	0.13973 0.71917 0.80977 1.36300
C 	C 	0.20353 0.98607 0.82667 2.69600
Cu	Cu	0.95077 0.47532 0.97926 0.90900
O 	O 	0.62720 0.51640 0.99798 -0.40300
O 	O 	0.58700 0.56000 0.03285 -0.40200
O 	O 	0.88900 0.51690 0.99811 -0.39700
O 	O 	0.97260 0.55870 0.03308 -0.40700
C 	C 	0.90760 0.54950 0.02073 0.32800
C 	C 	0.84970 0.56910 0.03329 -0.08900
C 	C 	0.78320 0.56610 0.02065 0.02900
H 	H 	0.78110 0.56140 0.00290 0.04200
C 	C 	0.86220 0.59560 0.05898 -0.05800
H 	H 	0.90790 0.60030 0.06790 0.04400
C 	C 	0.80720 0.61500 0.07122 0.00700
C 	C 	0.81620 0.63380 0.09884 -0.03400
C 	C 	0.80640 0.69950 0.10940 -0.90900
C 	C 	0.81440 0.71230 0.13610 1.78100
H 	H 	0.80940 0.75580 0.14320 -1.36700
C 	C 	0.83000 0.66070 0.15203 -0.02400
C 	C 	0.84300 0.59850 0.14150 1.89300
C 	C 	0.82790 0.58040 0.11560 -1.56100
H 	H 	0.82540 0.53230 0.10910 0.57400
C 	C 	0.79440 0.76170 0.09170 0.47400
H 	H 	0.79050 0.74460 0.07410 -0.11700
H 	H 	0.74410 0.76140 0.09650 -0.12300
H 	H 	0.84140 0.81710 0.09370 -0.13500
C 	C 	0.86810 0.54800 0.15860 -3.96200
H 	H 	0.87240 0.56640 0.17600 1.82800
H 	H 	0.82670 0.48980 0.15740 1.23300
H 	H 	0.92120 0.55590 0.15300 1.20400
C 	C 	0.64140 0.54960 0.02054 0.33900
C 	C 	0.71890 0.57000 0.03329 -0.09400
C 	C 	0.73400 0.59740 0.05918 -0.02000
H 	H 	0.69390 0.60360 0.06810 0.05500
C 	C 	0.96830 0.75550 0.09130 -1.61200
H 	H 	0.95380 0.73730 0.07380 0.50300
H 	H 	0.98070 0.81240 0.09280 0.49100
H 	H 	0.01640 0.75180 0.09620 0.49000
C 	C 	0.89260 0.69810 0.10940 1.15800
H 	H 	0.69650 0.57250 0.17700 -1.63000
H 	H 	0.63390 0.55620 0.15450 -0.89500
H 	H 	0.66530 0.49290 0.15980 -0.93700
C 	C 	0.75460 0.60010 0.14160 -1.60900
C 	C 	0.75070 0.58150 0.11540 1.31700
H 	H 	0.70430 0.53410 0.10890 -0.43700
C 	C 	0.89830 0.71140 0.13600 -2.02400
H 	H 	0.94750 0.75390 0.14310 1.54300
C 	C 	0.68060 0.55080 0.16000 3.01600
Cu	Cu	0.61744 0.80865 0.31260 0.90900
O 	O 	0.29387 0.84973 0.33131 -0.40300
O 	O 	0.25367 0.89333 0.36618 -0.40300
O 	O 	0.55567 0.85023 0.33144 -0.39700
O 	O 	0.63927 0.89203 0.36641 -0.40700
C 	C 	0.57427 0.88283 0.35406 0.32800
C 	C 	0.51637 0.90243 0.36662 -0.08900
C 	C 	0.44987 0.89943 0.35398 0.02800
H 	H 	0.44777 0.89473 0.33623 0.04200
C 	C 	0.52887 0.92893 0.39231 -0.05900
H 	H 	0.57457 0.93363 0.40123 0.04400
C 	C 	0.47387 0.94833 0.40455 0.00900
C 	C 	0.48287 0.96713 0.43217 -0.03900
C 	C 	0.47307 0.03283 0.44273 -0.90700
C 	C 	0.48107 0.04563 0.46943 1.77900
H 	H 	0.47607 0.08913 0.47653 -1.36500
C 	C 	0.49667 0.99403 0.48536 -0.02100
C 	C 	0.50967 0.93183 0.47483 1.89500
C 	C 	0.49457 0.91373 0.44893 -1.56300
H 	H 	0.49207 0.86563 0.44243 0.57500
C 	C 	0.46107 0.09503 0.42503 0.47300
H 	H 	0.45717 0.07793 0.40743 -0.11600
H 	H 	0.41077 0.09473 0.42983 -0.12200
H 	H 	0.50807 0.15043 0.42703 -0.13500
C 	C 	0.53477 0.88133 0.49193 -3.96600
H 	H 	0.53907 0.89973 0.50933 1.82800
H 	H 	0.49337 0.82313 0.49073 1.23700
H 	H 	0.58787 0.88923 0.48633 1.20700
C 	C 	0.30807 0.88293 0.35387 0.33800
C 	C 	0.38557 0.90333 0.36662 -0.09400
C 	C 	0.40067 0.93073 0.39251 -0.02100
H 	H 	0.36057 0.93693 0.40143 0.05500
C 	C 	0.63497 0.08883 0.42463 -1.62400
H 	H 	0.62047 0.07063 0.40713 0.50700
H 	H 	0.64737 0.14573 0.42613 0.49500
H 	H 	0.68307 0.08513 0.42953 0.49600
C 	C 	0.55927 0.03143 0.44273 1.16200
H 	H 	0.36317 0.90583 0.51033 -1.64100
H 	H 	0.30057 0.88953 0.48783 -0.90600
H 	H 	0.33197 0.82623 0.49313 -0.95000
C 	C 	0.42127 0.93343 0.47493 -1.61900
C 	C 	0.41737 0.91483 0.44873 1.32500
H 	H 	0.37097 0.86743 0.44223 -0.44200
C 	C 	0.56497 0.04473 0.46933 -2.02300
H 	H 	0.61417 0.08723 0.47643 1.53700
C 	C 	0.34727 0.88413 0.49333 3.04200
Cu	Cu	0.28410 0.14199 0.64593 0.91000
O 	O 	0.96053 0.18307 0.66465 -0.40300
O 	O 	0.92033 0.22667 0.69952 -0.40300
O 	O 	0.22233 0.18357 0.66478 -0.39600
O 	O 	0.30593 0.22537 0.69975 -0.40700
C 	C 	0.24093 0.21617 0.68740 0.32800
C 	C 	0.18303 0.23577 0.69996 -0.08700
C 	C 	0.11653 0.23277 0.68732 0.02600
H 	H 	0.11443 0.22807 0.66957 0.04300
C 	C 	0.19553 0.26227 0.72565 -0.06000
H 	H 	0.24123 0.26697 0.73457 0.04500
C 	C 	0.14053 0.28167 0.73789 0.01000
C 	C 	0.14953 0.30047 0.76551 -0.03700
C 	C 	0.13973 0.36617 0.77607 -0.90700
C 	C 	0.14773 0.37897 0.80277 1.77900
H 	H 	0.14273 0.42247 0.80987 -1.36600
C 	C 	0.16333 0.32737 0.81870 -0.02000
C 	C 	0.17633 0.26517 0.80817 1.89500
C 	C 	0.16123 0.24707 0.78227 -1.56300
H 	H 	0.15873 0.19897 0.77577 0.57400
C 	C 	0.12773 0.42837 0.75837 0.47200
H 	H 	0.12383 0.41127 0.74077 -0.11600
H 	H 	0.07743 0.42807 0.76317 -0.12100
H 	H 	0.17473 0.48377 0.76037 -0.13500
C 	C 	0.20143 0.21467 0.82527 -3.96600
H 	H 	0.20573 0.23307 0.84267 1.82900
H 	H 	0.16003 0.15647 0.82407 1.23400
H 	H 	0.25453 0.22257 0.81967 1.20500
C 	C 	0.97473 0.21627 0.68721 0.33500
C 	C 	0.05223 0.23667 0.69996 -0.09000
C 	C 	0.06733 0.26407 0.72585 -0.02300
H 	H 	0.02723 0.27027 0.73477 0.05700
C 	C 	0.30163 0.42217 0.75797 -1.61700
H 	H 	0.28713 0.40397 0.74047 0.50400
H 	H 	0.31403 0.47907 0.75947 0.49300
H 	H 	0.34973 0.41847 0.76287 0.49300
C 	C 	0.22593 0.36477 0.77607 1.15900
H 	H 	0.02983 0.23917 0.84367 -1.65000
H 	H 	0.96723 0.22287 0.82117 -0.91000
H 	H 	0.99863 0.15957 0.82647 -0.95300
C 	C 	0.08793 0.26677 0.80827 -1.62300
C 	C 	0.08403 0.24817 0.78207 1.32600
H 	H 	0.03763 0.20077 0.77557 -0.44000
C 	C 	0.23163 0.37807 0.80267 -2.02000
H 	H 	0.28083 0.42057 0.80977 1.53200
C 	C 	0.01393 0.21747 0.82667 3.06300
Cu	Cu	0.52468 0.47545 0.97926 0.91000
O 	O 	0.48360 0.11080 0.99798 -0.40400
O 	O 	0.44000 0.02700 0.03285 -0.40500
O 	O 	0.48310 0.37210 0.99811 -0.39700
O 	O 	0.44130 0.41390 0.03308 -0.40600
C 	C 	0.45050 0.35810 0.02073 0.33100
C 	C 	0.43090 0.28060 0.03329 -0.09500
C 	C 	0.43390 0.21710 0.02065 0.03500
H 	H 	0.43860 0.21970 0.00290 0.04000
C 	C 	0.40440 0.26660 0.05898 -0.04200
H 	H 	0.39970 0.30760 0.06790 0.04300
C 	C 	0.38500 0.19220 0.07122 -0.00900
C 	C 	0.36620 0.18240 0.09884 0.00000
C 	C 	0.30050 0.10690 0.10940 -0.66600
C 	C 	0.28770 0.10210 0.13610 1.32600
H 	H 	0.24420 0.05360 0.14320 -1.04300
C 	C 	0.33930 0.16930 0.15203 -0.06100
C 	C 	0.40150 0.24450 0.14150 1.48000
C 	C 	0.41960 0.24750 0.11560 -1.21800
H 	H 	0.46770 0.29310 0.10910 0.45500
C 	C 	0.23830 0.03270 0.09170 0.23500
H 	H 	0.25540 0.04590 0.07410 -0.04600
H 	H 	0.23860 0.98270 0.09650 -0.05500
H 	H 	0.18290 0.02430 0.09370 -0.06300
C 	C 	0.45200 0.32010 0.15860 -3.19700
H 	H 	0.43360 0.30600 0.17600 1.46200
H 	H 	0.51020 0.33690 0.15740 1.00300
H 	H 	0.44410 0.36530 0.15300 0.97800
C 	C 	0.45040 0.09180 0.02054 0.34000
C 	C 	0.43000 0.14890 0.03329 -0.10000
C 	C 	0.40260 0.13660 0.05918 -0.01400
H 	H 	0.39640 0.09030 0.06810 0.04900
C 	C 	0.24450 0.21280 0.09130 -1.32500
H 	H 	0.26270 0.21650 0.07380 0.41900
H 	H 	0.18760 0.16830 0.09280 0.40700
H 	H 	0.24820 0.26460 0.09620 0.40800
C 	C 	0.30190 0.19450 0.10940 0.86800
H 	H 	0.42750 0.12400 0.17700 -1.10700
H 	H 	0.44380 0.07770 0.15450 -0.59900
H 	H 	0.50710 0.17240 0.15980 -0.63200
C 	C 	0.39990 0.15450 0.14160 -1.13400
C 	C 	0.41850 0.16920 0.11540 0.93100
H 	H 	0.46590 0.17020 0.10890 -0.30500
C 	C 	0.28860 0.18690 0.13600 -1.48300
H 	H 	0.24610 0.19360 0.14310 1.09200
C 	C 	0.44920 0.12980 0.16000 2.01100
Cu	Cu	0.19135 0.80878 0.31260 0.91000
O 	O 	0.15027 0.44413 0.33131 -0.40400
O 	O 	0.10667 0.36033 0.36618 -0.40300
O 	O 	0.14977 0.70543 0.33144 -0.39700
O 	O 	0.10797 0.74723 0.36641 -0.40700
C 	C 	0.11717 0.69143 0.35406 0.32800
C 	C 	0.09757 0.61393 0.36662 -0.08900
C 	C 	0.10057 0.55043 0.35398 0.02900
H 	H 	0.10527 0.55303 0.33623 0.04200
C 	C 	0.07107 0.59993 0.39231 -0.05800
H 	H 	0.06637 0.64093 0.40123 0.04400
C 	C 	0.05167 0.52553 0.40455 0.00800
C 	C 	0.03287 0.51573 0.43217 -0.03700
C 	C 	0.96717 0.44023 0.44273 -0.90200
C 	C 	0.95437 0.43543 0.46943 1.76900
H 	H 	0.91087 0.38693 0.47653 -1.35900
C 	C 	0.00597 0.50263 0.48536 -0.02300
C 	C 	0.06817 0.57783 0.47483 1.88600
C 	C 	0.08627 0.58083 0.44893 -1.55500
H 	H 	0.13437 0.62643 0.44243 0.57200
C 	C 	0.90497 0.36603 0.42503 0.46700
H 	H 	0.92207 0.37923 0.40743 -0.11400
H 	H 	0.90527 0.31603 0.42983 -0.12100
H 	H 	0.84957 0.35763 0.42703 -0.13300
C 	C 	0.11867 0.65343 0.49193 -3.95100
H 	H 	0.10027 0.63933 0.50933 1.82100
H 	H 	0.17687 0.67023 0.49073 1.23200
H 	H 	0.11077 0.69863 0.48633 1.20300
C 	C 	0.11707 0.42513 0.35387 0.33800
C 	C 	0.09667 0.48223 0.36662 -0.09500
C 	C 	0.06927 0.46993 0.39251 -0.02100
H 	H 	0.06307 0.42363 0.40143 0.05400
C 	C 	0.91117 0.54613 0.42463 -1.61500
H 	H 	0.92937 0.54983 0.40713 0.50500
H 	H 	0.85427 0.50163 0.42613 0.49300
H 	H 	0.91487 0.59793 0.42953 0.49300
C 	C 	0.96857 0.52783 0.44273 1.15400
H 	H 	0.09417 0.45733 0.51033 -1.62500
H 	H 	0.11047 0.41103 0.48783 -0.89700
H 	H 	0.17377 0.50573 0.49313 -0.94100
C 	C 	0.06657 0.48783 0.47493 -1.60500
C 	C 	0.08517 0.50253 0.44873 1.31400
H 	H 	0.13257 0.50353 0.44223 -0.43800
C 	C 	0.95527 0.52023 0.46933 -2.00800
H 	H 	0.91277 0.52693 0.47643 1.52400
C 	C 	0.11587 0.46313 0.49333 3.01200
Cu	Cu	0.85801 0.14212 0.64593 0.90900
O 	O 	0.81693 0.77747 0.66465 -0.40400
O 	O 	0.77333 0.69367 0.69952 -0.40500
O 	O 	0.81643 0.03877 0.66478 -0.39700
O 	O 	0.77463 0.08057 0.69975 -0.40600
C 	C 	0.78383 0.02477 0.68740 0.32800
C 	C 	0.76423 0.94727 0.69996 -0.09100
C 	C 	0.76723 0.88377 0.68732 0.03200
H 	H 	0.77193 0.88637 0.66957 0.04100
C 	C 	0.73773 0.93327 0.72565 -0.04500
H 	H 	0.73303 0.97427 0.73457 0.04400
C 	C 	0.71833 0.85887 0.73789 -0.00600
C 	C 	0.69953 0.84907 0.76551 -0.00400
C 	C 	0.63383 0.77357 0.77607 -0.66400
C 	C 	0.62103 0.76877 0.80277 1.32600
H 	H 	0.57753 0.72027 0.80987 -1.04900
C 	C 	0.67263 0.83597 0.81870 -0.05600
C 	C 	0.73483 0.91117 0.80817 1.46700
C 	C 	0.75293 0.91417 0.78227 -1.20900
H 	H 	0.80103 0.95977 0.77577 0.45300
C 	C 	0.57163 0.69937 0.75837 0.22800
H 	H 	0.58873 0.71257 0.74077 -0.04400
H 	H 	0.57193 0.64937 0.76317 -0.05200
H 	H 	0.51623 0.69097 0.76037 -0.06100
C 	C 	0.78533 0.98677 0.82527 -3.16000
H 	H 	0.76693 0.97267 0.84267 1.44800
H 	H 	0.84353 0.00357 0.82407 0.99100
H 	H 	0.77743 0.03197 0.81967 0.96600
C 	C 	0.78373 0.75847 0.68721 0.33900
C 	C 	0.76333 0.81557 0.69996 -0.09800
C 	C 	0.73593 0.80327 0.72585 -0.01600
H 	H 	0.72973 0.75697 0.73477 0.05000
C 	C 	0.57783 0.87947 0.75797 -1.32700
H 	H 	0.59603 0.88317 0.74047 0.41900
H 	H 	0.52093 0.83497 0.75947 0.40800
H 	H 	0.58153 0.93127 0.76287 0.40900
C 	C 	0.63523 0.86117 0.77607 0.86900
H 	H 	0.76083 0.79067 0.84367 -1.10600
H 	H 	0.77713 0.74437 0.82117 -0.59800
H 	H 	0.84043 0.83907 0.82647 -0.63000
C 	C 	0.73323 0.82117 0.80827 -1.13300
C 	C 	0.75183 0.83587 0.78207 0.92900
H 	H 	0.79923 0.83687 0.77557 -0.30400
C 	C 	0.62193 0.85357 0.80267 -1.48400
H 	H 	0.57943 0.86027 0.80977 1.09300
C 	C 	0.78253 0.79647 0.82667 2.00800
