data_crystal

_cell_length_a 18.31940
_cell_length_b 18.31940
_cell_length_c 65.62090
_cell_angle_alpha 90.00000
_cell_angle_beta  90.00000
_cell_angle_gamma 120.00000

_symmetry_space_group_name_	'P 1'
_symmetry_space_group_name_H-M	'P 1'

loop_
_symmetry_equiv_pos_as_xyz
  x,y,z

loop_
_atom_site_label
_atom_site_type_symbol
_atom_site_fract_x
_atom_site_fract_y
_atom_site_fract_z
_atom_site_charge
Cu	Cu	0.94951 0.47484 0.48369 0.89900
O 	O 	0.02490 0.58800 0.47313 -0.42300
O 	O 	0.88860 0.51860 0.49959 -0.40400
O 	O 	0.02630 0.43840 0.47315 -0.42200
O 	O 	0.88820 0.36930 0.49962 -0.40000
C 	C 	0.09030 0.44900 0.48230 0.36800
C 	C 	0.14780 0.42940 0.47270 -0.12900
C 	C 	0.21160 0.42550 0.48230 0.06100
C 	C 	0.13730 0.40280 0.45290 -0.00600
C 	C 	0.28290 0.42780 0.47240 -0.12200
H 	H 	0.20910 0.42120 0.49650 0.03000
H 	H 	0.09240 0.39920 0.44550 0.03900
C 	C 	0.19120 0.38120 0.44360 -0.01800
C 	C 	0.26800 0.40370 0.45180 -0.01000
C 	C 	0.35970 0.44870 0.48220 0.36600
C 	C 	0.18280 0.35940 0.42080 -0.02100
H 	H 	0.30990 0.40320 0.44390 0.04000
C 	C 	0.18500 0.29100 0.41250 0.06800
C 	C 	0.17530 0.41690 0.40820 -0.24100
C 	C 	0.19300 0.22900 0.42590 -0.54500
C 	C 	0.17960 0.27920 0.39130 -0.03100
C 	C 	0.17010 0.40520 0.38710 0.31000
H 	H 	0.17370 0.46260 0.41390 0.11100
H 	H 	0.24200 0.22610 0.42200 0.17500
H 	H 	0.14380 0.17470 0.42460 0.17000
H 	H 	0.19920 0.24770 0.43980 0.18500
C 	C 	0.17310 0.33690 0.37870 -0.05600
H 	H 	0.18050 0.23310 0.38570 0.00600
C 	C 	0.16200 0.46700 0.37360 -0.96800
C 	C 	0.17700 0.34400 0.35510 -0.04600
H 	H 	0.11090 0.46680 0.37690 0.30700
H 	H 	0.15990 0.45010 0.35960 0.38700
H 	H 	0.20930 0.52200 0.37560 0.29900
C 	C 	0.14180 0.38570 0.34420 -0.08300
C 	C 	0.20320 0.28970 0.34460 0.13200
H 	H 	0.12590 0.41960 0.35120 -0.09800
C 	C 	0.24040 0.24610 0.35650 -0.60600
H 	H 	0.29790 0.26750 0.35250 0.19100
H 	H 	0.23830 0.25620 0.37080 0.20600
H 	H 	0.20860 0.18650 0.35390 0.18800
C 	C 	0.16500 0.75020 0.40850 -0.01700
H 	H 	0.16160 0.70230 0.41430 0.03200
C 	C 	0.15840 0.75510 0.38740 0.02900
C 	C 	0.17520 0.89390 0.39100 -0.17400
H 	H 	0.17860 0.94180 0.38520 0.08200
C 	C 	0.18140 0.88870 0.41220 0.18900
C 	C 	0.19400 0.96140 0.42520 -0.65500
H 	H 	0.18820 0.94530 0.43930 0.21800
H 	H 	0.15270 0.97690 0.42180 0.20400
H 	H 	0.24950 0.00850 0.42290 0.20600
C 	C 	0.14570 0.68310 0.37420 -0.47300
H 	H 	0.14430 0.69710 0.36010 0.16000
H 	H 	0.09340 0.63370 0.37760 0.15200
H 	H 	0.19130 0.67220 0.37620 0.14000
Cu	Cu	0.61618 0.80817 0.81702 0.90000
O 	O 	0.69157 0.92133 0.80646 -0.42100
O 	O 	0.55527 0.85193 0.83292 -0.40400
O 	O 	0.69297 0.77173 0.80648 -0.42200
O 	O 	0.55487 0.70263 0.83295 -0.39900
C 	C 	0.75697 0.78233 0.81563 0.36700
C 	C 	0.81447 0.76273 0.80603 -0.12300
C 	C 	0.87827 0.75883 0.81563 0.05300
C 	C 	0.80397 0.73613 0.78623 -0.01300
C 	C 	0.94957 0.76113 0.80573 -0.10700
H 	H 	0.87577 0.75453 0.82983 0.03400
H 	H 	0.75907 0.73253 0.77883 0.04000
C 	C 	0.85787 0.71453 0.77693 -0.01000
C 	C 	0.93467 0.73703 0.78513 -0.02000
C 	C 	0.02637 0.78203 0.81553 0.35400
C 	C 	0.84947 0.69273 0.75413 -0.03100
H 	H 	0.97657 0.73653 0.77723 0.04600
C 	C 	0.85167 0.62433 0.74583 0.05400
C 	C 	0.84197 0.75023 0.74153 -0.26100
C 	C 	0.85967 0.56233 0.75923 -0.53100
C 	C 	0.84627 0.61253 0.72463 -0.01400
C 	C 	0.83677 0.73853 0.72043 0.33300
H 	H 	0.84037 0.79593 0.74723 0.11700
H 	H 	0.90867 0.55943 0.75533 0.17200
H 	H 	0.81047 0.50803 0.75793 0.16600
H 	H 	0.86587 0.58103 0.77313 0.18100
C 	C 	0.83977 0.67023 0.71203 -0.04700
H 	H 	0.84717 0.56643 0.71903 -0.00000
C 	C 	0.82867 0.80033 0.70693 -1.00200
C 	C 	0.84367 0.67733 0.68843 -0.05400
H 	H 	0.77757 0.80013 0.71023 0.31600
H 	H 	0.82657 0.78343 0.69293 0.40200
H 	H 	0.87597 0.85533 0.70893 0.30900
C 	C 	0.80847 0.71903 0.67753 -0.07200
C 	C 	0.86987 0.62303 0.67793 0.14200
H 	H 	0.79257 0.75293 0.68453 -0.10900
C 	C 	0.90707 0.57943 0.68983 -0.62200
H 	H 	0.96457 0.60083 0.68583 0.19800
H 	H 	0.90497 0.58953 0.70413 0.21200
H 	H 	0.87527 0.51983 0.68723 0.19400
C 	C 	0.83167 0.08353 0.74183 -0.00700
H 	H 	0.82827 0.03563 0.74763 0.03100
C 	C 	0.82507 0.08843 0.72073 0.01500
C 	C 	0.84187 0.22723 0.72433 -0.18400
H 	H 	0.84527 0.27513 0.71853 0.08400
C 	C 	0.84807 0.22203 0.74553 0.20100
C 	C 	0.86067 0.29473 0.75853 -0.68800
H 	H 	0.85487 0.27863 0.77263 0.22700
H 	H 	0.81937 0.31023 0.75513 0.21200
H 	H 	0.91617 0.34183 0.75623 0.22100
C 	C 	0.81237 0.01643 0.70753 -0.42600
H 	H 	0.81097 0.03043 0.69343 0.14800
H 	H 	0.76007 0.96703 0.71093 0.12900
H 	H 	0.85797 0.00553 0.70953 0.13000
Cu	Cu	0.28284 0.14151 0.15036 0.90000
O 	O 	0.35823 0.25467 0.13980 -0.42200
O 	O 	0.22193 0.18527 0.16626 -0.40200
O 	O 	0.35963 0.10507 0.13982 -0.42300
O 	O 	0.22153 0.03597 0.16629 -0.39800
C 	C 	0.42363 0.11567 0.14897 0.36900
C 	C 	0.48113 0.09607 0.13937 -0.12900
C 	C 	0.54493 0.09217 0.14897 0.06000
C 	C 	0.47063 0.06947 0.11957 -0.00900
C 	C 	0.61623 0.09447 0.13907 -0.12200
H 	H 	0.54243 0.08787 0.16317 0.02900
H 	H 	0.42573 0.06587 0.11217 0.03900
C 	C 	0.52453 0.04787 0.11027 -0.01500
C 	C 	0.60133 0.07037 0.11847 -0.01300
C 	C 	0.69303 0.11537 0.14887 0.36600
C 	C 	0.51613 0.02607 0.08747 -0.03300
H 	H 	0.64323 0.06987 0.11057 0.04000
C 	C 	0.51833 0.95767 0.07917 0.06600
C 	C 	0.50863 0.08357 0.07487 -0.24500
C 	C 	0.52633 0.89567 0.09257 -0.54300
C 	C 	0.51293 0.94587 0.05797 -0.02300
C 	C 	0.50343 0.07187 0.05377 0.31400
H 	H 	0.50703 0.12927 0.08057 0.11200
H 	H 	0.57533 0.89277 0.08867 0.17500
H 	H 	0.47713 0.84137 0.09127 0.17000
H 	H 	0.53253 0.91437 0.10647 0.18600
C 	C 	0.50643 0.00357 0.04537 -0.05500
H 	H 	0.51383 0.89977 0.05237 0.00300
C 	C 	0.49533 0.13367 0.04027 -0.97600
C 	C 	0.51033 0.01067 0.02177 -0.05000
H 	H 	0.44423 0.13347 0.04357 0.30800
H 	H 	0.49323 0.11677 0.02627 0.39000
H 	H 	0.54263 0.18867 0.04227 0.30100
C 	C 	0.47513 0.05237 0.01087 -0.07900
C 	C 	0.53653 0.95637 0.01127 0.13700
H 	H 	0.45923 0.08627 0.01787 -0.10200
C 	C 	0.57373 0.91277 0.02317 -0.61400
H 	H 	0.63123 0.93417 0.01917 0.19400
H 	H 	0.57163 0.92287 0.03747 0.20900
H 	H 	0.54193 0.85317 0.02057 0.19100
C 	C 	0.49833 0.41687 0.07517 -0.01000
H 	H 	0.49493 0.36897 0.08097 0.02900
C 	C 	0.49173 0.42177 0.05407 0.02000
C 	C 	0.50853 0.56057 0.05767 -0.18200
H 	H 	0.51193 0.60847 0.05187 0.08300
C 	C 	0.51473 0.55537 0.07887 0.19800
C 	C 	0.52733 0.62807 0.09187 -0.68300
H 	H 	0.52153 0.61197 0.10597 0.22500
H 	H 	0.48603 0.64357 0.08847 0.21100
H 	H 	0.58283 0.67517 0.08957 0.21800
C 	C 	0.47903 0.34977 0.04087 -0.46300
H 	H 	0.47763 0.36377 0.02677 0.15600
H 	H 	0.42673 0.30037 0.04427 0.14800
H 	H 	0.52463 0.33887 0.04287 0.13700
Cu	Cu	0.52516 0.47467 0.48369 0.90000
O 	O 	0.41200 0.43690 0.47313 -0.42300
O 	O 	0.48140 0.37000 0.49959 -0.40300
O 	O 	0.56160 0.58790 0.47315 -0.42200
O 	O 	0.63070 0.51890 0.49962 -0.39900
C 	C 	0.55100 0.64130 0.48230 0.37000
C 	C 	0.57060 0.71840 0.47270 -0.12900
C 	C 	0.57450 0.78610 0.48230 0.06100
C 	C 	0.59720 0.73450 0.45290 -0.00600
C 	C 	0.57220 0.85510 0.47240 -0.12200
H 	H 	0.57880 0.78790 0.49650 0.03000
H 	H 	0.60080 0.69320 0.44550 0.03800
C 	C 	0.61880 0.81000 0.44360 -0.01900
C 	C 	0.59630 0.86430 0.45180 -0.01000
C 	C 	0.55130 0.91100 0.48220 0.36600
C 	C 	0.64060 0.82340 0.42080 -0.01900
H 	H 	0.59680 0.90670 0.44390 0.04100
C 	C 	0.70900 0.89400 0.41250 0.04700
C 	C 	0.58310 0.75840 0.40820 -0.25200
C 	C 	0.77100 0.96400 0.42590 -0.50300
C 	C 	0.72080 0.90040 0.39130 -0.01300
C 	C 	0.59480 0.76490 0.38710 0.31900
H 	H 	0.53740 0.71110 0.41390 0.11400
H 	H 	0.77390 0.01590 0.42200 0.15900
H 	H 	0.82530 0.96910 0.42460 0.15800
H 	H 	0.75230 0.95150 0.43980 0.17300
C 	C 	0.66310 0.83620 0.37870 -0.06000
H 	H 	0.76690 0.94740 0.38570 0.00400
C 	C 	0.53300 0.69500 0.37360 -0.98000
C 	C 	0.65600 0.83300 0.35510 -0.03900
H 	H 	0.53320 0.64410 0.37690 0.30900
H 	H 	0.54990 0.70980 0.35960 0.39100
H 	H 	0.47800 0.68730 0.37560 0.30200
C 	C 	0.61430 0.75610 0.34420 -0.08500
C 	C 	0.71030 0.91350 0.34460 0.11300
H 	H 	0.58040 0.70630 0.35120 -0.10000
C 	C 	0.75390 0.99430 0.35650 -0.52500
H 	H 	0.73250 0.03040 0.35250 0.16100
H 	H 	0.74380 0.98210 0.37080 0.18300
H 	H 	0.81350 0.02210 0.35390 0.15900
C 	C 	0.24980 0.41480 0.40850 -0.01800
H 	H 	0.29770 0.45930 0.41430 0.03200
C 	C 	0.24490 0.40330 0.38740 0.02700
C 	C 	0.10610 0.28130 0.39100 -0.17000
H 	H 	0.05820 0.23680 0.38520 0.08000
C 	C 	0.11130 0.29270 0.41220 0.18300
C 	C 	0.03860 0.23260 0.42520 -0.64800
H 	H 	0.05470 0.24290 0.43930 0.21500
H 	H 	0.02310 0.17580 0.42180 0.20100
H 	H 	0.99150 0.24100 0.42290 0.20400
C 	C 	0.31690 0.46260 0.37420 -0.47000
H 	H 	0.30290 0.44720 0.36010 0.15800
H 	H 	0.36630 0.45970 0.37760 0.14900
H 	H 	0.32780 0.51910 0.37620 0.13900
Cu	Cu	0.19183 0.80800 0.81702 0.90000
O 	O 	0.07867 0.77023 0.80646 -0.42300
O 	O 	0.14807 0.70333 0.83292 -0.40400
O 	O 	0.22827 0.92123 0.80648 -0.42200
O 	O 	0.29737 0.85223 0.83295 -0.40000
C 	C 	0.21767 0.97463 0.81563 0.35600
C 	C 	0.23727 0.05173 0.80603 -0.11200
C 	C 	0.24117 0.11943 0.81563 0.05100
C 	C 	0.26387 0.06783 0.78623 -0.01900
C 	C 	0.23887 0.18843 0.80573 -0.11500
H 	H 	0.24547 0.12123 0.82983 0.03500
H 	H 	0.26747 0.02653 0.77883 0.04500
C 	C 	0.28547 0.14333 0.77693 -0.00800
C 	C 	0.26297 0.19763 0.78513 -0.01800
C 	C 	0.21797 0.24433 0.81553 0.36300
C 	C 	0.30727 0.15673 0.75413 -0.03500
H 	H 	0.26347 0.24003 0.77723 0.04200
C 	C 	0.37567 0.22733 0.74583 0.08200
C 	C 	0.24977 0.09173 0.74153 -0.20600
C 	C 	0.43767 0.29733 0.75923 -0.56000
C 	C 	0.38747 0.23373 0.72463 -0.04900
C 	C 	0.26147 0.09823 0.72043 0.26300
H 	H 	0.20407 0.04443 0.74723 0.10000
H 	H 	0.44057 0.34923 0.75533 0.17900
H 	H 	0.49197 0.30243 0.75793 0.17500
H 	H 	0.41897 0.28483 0.77313 0.18900
C 	C 	0.32977 0.16953 0.71203 -0.04100
H 	H 	0.43357 0.28073 0.71903 0.01200
C 	C 	0.19967 0.02833 0.70693 -0.85900
C 	C 	0.32267 0.16633 0.68843 -0.05500
H 	H 	0.19987 0.97743 0.71023 0.26600
H 	H 	0.21657 0.04313 0.69293 0.34600
H 	H 	0.14467 0.02063 0.70893 0.26700
C 	C 	0.28097 0.08943 0.67753 -0.07200
C 	C 	0.37697 0.24683 0.67793 0.14000
H 	H 	0.24707 0.03963 0.68453 -0.08500
C 	C 	0.42057 0.32763 0.68983 -0.61500
H 	H 	0.39917 0.36373 0.68583 0.19400
H 	H 	0.41047 0.31543 0.70413 0.20800
H 	H 	0.48017 0.35543 0.68723 0.19100
C 	C 	0.91647 0.74813 0.74183 0.01400
H 	H 	0.96437 0.79263 0.74763 0.02200
C 	C 	0.91157 0.73663 0.72073 -0.01000
C 	C 	0.77277 0.61463 0.72433 -0.19700
H 	H 	0.72487 0.57013 0.71853 0.08800
C 	C 	0.77797 0.62603 0.74553 0.21000
C 	C 	0.70527 0.56593 0.75853 -0.69500
H 	H 	0.72137 0.57623 0.77263 0.22900
H 	H 	0.68977 0.50913 0.75513 0.21400
H 	H 	0.65817 0.57433 0.75623 0.22100
C 	C 	0.98357 0.79593 0.70753 -0.39600
H 	H 	0.96957 0.78053 0.69343 0.13800
H 	H 	0.03297 0.79303 0.71093 0.12100
H 	H 	0.99447 0.85243 0.70953 0.11900
Cu	Cu	0.85849 0.14134 0.15036 0.90000
O 	O 	0.74533 0.10357 0.13980 -0.42400
O 	O 	0.81473 0.03667 0.16626 -0.40300
O 	O 	0.89493 0.25457 0.13982 -0.42300
O 	O 	0.96403 0.18557 0.16629 -0.40000
C 	C 	0.88433 0.30797 0.14897 0.36900
C 	C 	0.90393 0.38507 0.13937 -0.12900
C 	C 	0.90783 0.45277 0.14897 0.06000
C 	C 	0.93053 0.40117 0.11957 -0.00900
C 	C 	0.90553 0.52177 0.13907 -0.12200
H 	H 	0.91213 0.45457 0.16317 0.02900
H 	H 	0.93413 0.35987 0.11217 0.03800
C 	C 	0.95213 0.47667 0.11027 -0.01500
C 	C 	0.92963 0.53097 0.11847 -0.01300
C 	C 	0.88463 0.57767 0.14887 0.36600
C 	C 	0.97393 0.49007 0.08747 -0.03400
H 	H 	0.93013 0.57337 0.11057 0.04000
C 	C 	0.04233 0.56067 0.07917 0.06700
C 	C 	0.91643 0.42507 0.07487 -0.24400
C 	C 	0.10433 0.63067 0.09257 -0.54600
C 	C 	0.05413 0.56707 0.05797 -0.02500
C 	C 	0.92813 0.43157 0.05377 0.31300
H 	H 	0.87073 0.37777 0.08057 0.11100
H 	H 	0.10723 0.68257 0.08867 0.17600
H 	H 	0.15863 0.63577 0.09127 0.17100
H 	H 	0.08563 0.61817 0.10647 0.18700
C 	C 	0.99643 0.50287 0.04537 -0.05500
H 	H 	0.10023 0.61407 0.05237 0.00400
C 	C 	0.86633 0.36167 0.04027 -0.97300
C 	C 	0.98933 0.49967 0.02177 -0.05000
H 	H 	0.86653 0.31077 0.04357 0.30700
H 	H 	0.88323 0.37647 0.02627 0.39000
H 	H 	0.81133 0.35397 0.04227 0.30000
C 	C 	0.94763 0.42277 0.01087 -0.07900
C 	C 	0.04363 0.58017 0.01127 0.13700
H 	H 	0.91373 0.37297 0.01787 -0.10100
C 	C 	0.08723 0.66097 0.02317 -0.61500
H 	H 	0.06583 0.69707 0.01917 0.19400
H 	H 	0.07713 0.64877 0.03747 0.20900
H 	H 	0.14683 0.68877 0.02057 0.19100
C 	C 	0.58313 0.08147 0.07517 -0.00800
H 	H 	0.63103 0.12597 0.08097 0.02800
C 	C 	0.57823 0.06997 0.05407 0.01800
C 	C 	0.43943 0.94797 0.05767 -0.18300
H 	H 	0.39153 0.90347 0.05187 0.08400
C 	C 	0.44463 0.95937 0.07887 0.20500
C 	C 	0.37193 0.89927 0.09187 -0.69100
H 	H 	0.38803 0.90957 0.10597 0.22900
H 	H 	0.35643 0.84247 0.08847 0.21300
H 	H 	0.32483 0.90767 0.08957 0.22100
C 	C 	0.65023 0.12927 0.04087 -0.46100
H 	H 	0.63623 0.11387 0.02677 0.15600
H 	H 	0.69963 0.12637 0.04427 0.14600
H 	H 	0.66113 0.18577 0.04287 0.13600
Cu	Cu	0.52533 0.05049 0.48369 0.90000
O 	O 	0.56310 0.97510 0.47313 -0.42200
O 	O 	0.63000 0.11140 0.49959 -0.40300
O 	O 	0.41210 0.97370 0.47315 -0.42100
O 	O 	0.48110 0.11180 0.49962 -0.39900
C 	C 	0.35870 0.90970 0.48230 0.36900
C 	C 	0.28160 0.85220 0.47270 -0.12900
C 	C 	0.21390 0.78840 0.48230 0.06200
C 	C 	0.26550 0.86270 0.45290 -0.00600
C 	C 	0.14490 0.71710 0.47240 -0.12200
H 	H 	0.21210 0.79090 0.49650 0.03000
H 	H 	0.30680 0.90760 0.44550 0.03900
C 	C 	0.19000 0.80880 0.44360 -0.01900
C 	C 	0.13570 0.73200 0.45180 -0.00900
C 	C 	0.08900 0.64030 0.48220 0.36600
C 	C 	0.17660 0.81720 0.42080 -0.01700
H 	H 	0.09330 0.69010 0.44390 0.04000
C 	C 	0.10600 0.81500 0.41250 0.05600
C 	C 	0.24160 0.82470 0.40820 -0.24500
C 	C 	0.03600 0.80700 0.42590 -0.51500
C 	C 	0.09960 0.82040 0.39130 -0.02200
C 	C 	0.23510 0.82990 0.38710 0.31400
H 	H 	0.28890 0.82630 0.41390 0.11200
H 	H 	0.98410 0.75800 0.42200 0.16300
H 	H 	0.03090 0.85620 0.42460 0.16300
H 	H 	0.04850 0.80080 0.43980 0.17700
C 	C 	0.16380 0.82690 0.37870 -0.06100
H 	H 	0.05260 0.81950 0.38570 0.00800
C 	C 	0.30500 0.83800 0.37360 -0.97200
C 	C 	0.16700 0.82300 0.35510 -0.03600
H 	H 	0.35590 0.88910 0.37690 0.30800
H 	H 	0.29020 0.84010 0.35960 0.38700
H 	H 	0.31270 0.79070 0.37560 0.30000
C 	C 	0.24390 0.85820 0.34420 -0.08800
C 	C 	0.08650 0.79680 0.34460 0.11100
H 	H 	0.29370 0.87410 0.35120 -0.09600
C 	C 	0.00570 0.75960 0.35650 -0.52400
H 	H 	0.96960 0.70210 0.35250 0.16200
H 	H 	0.01790 0.76170 0.37080 0.18300
H 	H 	0.97790 0.79140 0.35390 0.16000
C 	C 	0.58520 0.83500 0.40850 -0.00900
H 	H 	0.54070 0.83840 0.41430 0.02900
C 	C 	0.59670 0.84160 0.38740 0.02200
C 	C 	0.71870 0.82480 0.39100 -0.18600
H 	H 	0.76320 0.82140 0.38520 0.08500
C 	C 	0.70730 0.81860 0.41220 0.20300
C 	C 	0.76740 0.80600 0.42520 -0.68800
H 	H 	0.75710 0.81180 0.43930 0.22700
H 	H 	0.82420 0.84730 0.42180 0.21200
H 	H 	0.75900 0.75050 0.42290 0.21900
C 	C 	0.53740 0.85430 0.37420 -0.46600
H 	H 	0.55280 0.85570 0.36010 0.15800
H 	H 	0.54030 0.90660 0.37760 0.15000
H 	H 	0.48090 0.80870 0.37620 0.13800
Cu	Cu	0.19200 0.38382 0.81702 0.90000
O 	O 	0.22977 0.30843 0.80646 -0.42300
O 	O 	0.29667 0.44473 0.83292 -0.40300
O 	O 	0.07877 0.30703 0.80648 -0.42100
O 	O 	0.14777 0.44513 0.83295 -0.40000
C 	C 	0.02537 0.24303 0.81563 0.35300
C 	C 	0.94827 0.18553 0.80603 -0.10500
C 	C 	0.88057 0.12173 0.81563 0.04300
C 	C 	0.93217 0.19603 0.78623 -0.02500
C 	C 	0.81157 0.05043 0.80573 -0.09900
H 	H 	0.87877 0.12423 0.82983 0.03900
H 	H 	0.97347 0.24093 0.77883 0.04700
C 	C 	0.85667 0.14213 0.77693 -0.00000
C 	C 	0.80237 0.06533 0.78513 -0.02700
C 	C 	0.75567 0.97363 0.81553 0.35100
C 	C 	0.84327 0.15053 0.75413 -0.04100
H 	H 	0.75997 0.02343 0.77723 0.04800
C 	C 	0.77267 0.14833 0.74583 0.07400
C 	C 	0.90827 0.15803 0.74153 -0.22600
C 	C 	0.70267 0.14033 0.75923 -0.55400
C 	C 	0.76627 0.15373 0.72463 -0.03700
C 	C 	0.90177 0.16323 0.72043 0.28700
H 	H 	0.95557 0.15963 0.74723 0.10700
H 	H 	0.65077 0.09133 0.75533 0.17900
H 	H 	0.69757 0.18953 0.75793 0.17300
H 	H 	0.71517 0.13413 0.77313 0.18800
C 	C 	0.83047 0.16023 0.71203 -0.03600
H 	H 	0.71927 0.15283 0.71903 0.00800
C 	C 	0.97167 0.17133 0.70693 -0.89800
C 	C 	0.83367 0.15633 0.68843 -0.05900
H 	H 	0.02257 0.22243 0.71023 0.27800
H 	H 	0.95687 0.17343 0.69293 0.36300
H 	H 	0.97937 0.12403 0.70893 0.28200
C 	C 	0.91057 0.19153 0.67753 -0.06500
C 	C 	0.75317 0.13013 0.67793 0.14600
H 	H 	0.96037 0.20743 0.68453 -0.09300
C 	C 	0.67237 0.09293 0.68983 -0.62600
H 	H 	0.63627 0.03543 0.68583 0.19900
H 	H 	0.68457 0.09503 0.70413 0.21200
H 	H 	0.64457 0.12473 0.68723 0.19500
C 	C 	0.25187 0.16833 0.74183 -0.03300
H 	H 	0.20737 0.17173 0.74763 0.03700
C 	C 	0.26337 0.17493 0.72073 0.04600
C 	C 	0.38537 0.15813 0.72433 -0.16700
H 	H 	0.42987 0.15473 0.71853 0.07800
C 	C 	0.37397 0.15193 0.74553 0.18700
C 	C 	0.43407 0.13933 0.75853 -0.67200
H 	H 	0.42377 0.14513 0.77263 0.22200
H 	H 	0.49087 0.18063 0.75513 0.20700
H 	H 	0.42567 0.08383 0.75623 0.21600
C 	C 	0.20407 0.18763 0.70753 -0.49100
H 	H 	0.21947 0.18903 0.69343 0.16500
H 	H 	0.20697 0.23993 0.71093 0.15500
H 	H 	0.14757 0.14203 0.70953 0.14600
Cu	Cu	0.85866 0.71716 0.15036 0.90000
O 	O 	0.89643 0.64177 0.13980 -0.42300
O 	O 	0.96333 0.77807 0.16626 -0.40100
O 	O 	0.74543 0.64037 0.13982 -0.42200
O 	O 	0.81443 0.77847 0.16629 -0.39900
C 	C 	0.69203 0.57637 0.14897 0.36900
C 	C 	0.61493 0.51887 0.13937 -0.12900
C 	C 	0.54723 0.45507 0.14897 0.06100
C 	C 	0.59883 0.52937 0.11957 -0.00700
C 	C 	0.47823 0.38377 0.13907 -0.12100
H 	H 	0.54543 0.45757 0.16317 0.03000
H 	H 	0.64013 0.57427 0.11217 0.03900
C 	C 	0.52333 0.47547 0.11027 -0.01700
C 	C 	0.46903 0.39867 0.11847 -0.01100
C 	C 	0.42233 0.30697 0.14887 0.36600
C 	C 	0.50993 0.48387 0.08747 -0.02400
H 	H 	0.42663 0.35677 0.11057 0.04000
C 	C 	0.43933 0.48167 0.07917 0.06000
C 	C 	0.57493 0.49137 0.07487 -0.24700
C 	C 	0.36933 0.47367 0.09257 -0.53700
C 	C 	0.43293 0.48707 0.05797 -0.02400
C 	C 	0.56843 0.49657 0.05377 0.31500
H 	H 	0.62223 0.49297 0.08057 0.11200
H 	H 	0.31743 0.42467 0.08867 0.17300
H 	H 	0.36423 0.52287 0.09127 0.16800
H 	H 	0.38183 0.46747 0.10647 0.18200
C 	C 	0.49713 0.49357 0.04537 -0.05400
H 	H 	0.38593 0.48617 0.05237 0.00300
C 	C 	0.63833 0.50467 0.04027 -0.97600
C 	C 	0.50033 0.48967 0.02177 -0.05000
H 	H 	0.68923 0.55577 0.04357 0.30900
H 	H 	0.62353 0.50677 0.02627 0.39100
H 	H 	0.64603 0.45737 0.04227 0.30100
C 	C 	0.57723 0.52487 0.01087 -0.07900
C 	C 	0.41983 0.46347 0.01127 0.13600
H 	H 	0.62703 0.54077 0.01787 -0.10200
C 	C 	0.33903 0.42627 0.02317 -0.61300
H 	H 	0.30293 0.36877 0.01917 0.19400
H 	H 	0.35123 0.42837 0.03747 0.20800
H 	H 	0.31123 0.45807 0.02057 0.19100
C 	C 	0.91853 0.50167 0.07517 -0.00900
H 	H 	0.87403 0.50507 0.08097 0.02900
C 	C 	0.93003 0.50827 0.05407 0.02000
C 	C 	0.05203 0.49147 0.05767 -0.18200
H 	H 	0.09653 0.48807 0.05187 0.08300
C 	C 	0.04063 0.48527 0.07887 0.20300
C 	C 	0.10073 0.47267 0.09187 -0.68900
H 	H 	0.09043 0.47847 0.10597 0.22900
H 	H 	0.15753 0.51397 0.08847 0.21200
H 	H 	0.09233 0.41717 0.08957 0.22000
C 	C 	0.87073 0.52097 0.04087 -0.46200
H 	H 	0.88613 0.52237 0.02677 0.15600
H 	H 	0.87363 0.57327 0.04427 0.14700
H 	H 	0.81423 0.47537 0.04287 0.13700
Cu	Cu	0.05049 0.52516 0.51631 0.90000
O 	O 	0.97510 0.41200 0.52687 -0.42200
O 	O 	0.11140 0.48140 0.50041 -0.40300
O 	O 	0.97370 0.56160 0.52685 -0.42100
O 	O 	0.11180 0.63070 0.50038 -0.39900
C 	C 	0.90970 0.55100 0.51770 0.36900
C 	C 	0.85220 0.57060 0.52730 -0.12900
C 	C 	0.78840 0.57450 0.51770 0.06100
C 	C 	0.86270 0.59720 0.54710 -0.00600
C 	C 	0.71710 0.57220 0.52760 -0.12200
H 	H 	0.79090 0.57880 0.50350 0.03000
H 	H 	0.90760 0.60080 0.55450 0.03900
C 	C 	0.80880 0.61880 0.55640 -0.01800
C 	C 	0.73200 0.59630 0.54820 -0.01000
C 	C 	0.64030 0.55130 0.51780 0.36600
C 	C 	0.81720 0.64060 0.57920 -0.02100
H 	H 	0.69010 0.59680 0.55610 0.04000
C 	C 	0.81500 0.70900 0.58750 0.06800
C 	C 	0.82470 0.58310 0.59180 -0.24100
C 	C 	0.80700 0.77100 0.57410 -0.54500
C 	C 	0.82040 0.72080 0.60870 -0.03100
C 	C 	0.82990 0.59480 0.61290 0.31000
H 	H 	0.82630 0.53740 0.58610 0.11100
H 	H 	0.75800 0.77390 0.57800 0.17500
H 	H 	0.85620 0.82530 0.57540 0.17000
H 	H 	0.80080 0.75230 0.56020 0.18500
C 	C 	0.82690 0.66310 0.62130 -0.05600
H 	H 	0.81950 0.76690 0.61430 0.00600
C 	C 	0.83800 0.53300 0.62640 -0.96800
C 	C 	0.82300 0.65600 0.64490 -0.04600
H 	H 	0.88910 0.53320 0.62310 0.30700
H 	H 	0.84010 0.54990 0.64040 0.38700
H 	H 	0.79070 0.47800 0.62440 0.29900
C 	C 	0.85820 0.61430 0.65580 -0.08300
C 	C 	0.79680 0.71030 0.65540 0.13200
H 	H 	0.87410 0.58040 0.64880 -0.09800
C 	C 	0.75960 0.75390 0.64350 -0.60600
H 	H 	0.70210 0.73250 0.64750 0.19100
H 	H 	0.76170 0.74380 0.62920 0.20600
H 	H 	0.79140 0.81350 0.64610 0.18800
C 	C 	0.83500 0.24980 0.59150 -0.01700
H 	H 	0.83840 0.29770 0.58570 0.03200
C 	C 	0.84160 0.24490 0.61260 0.02900
C 	C 	0.82480 0.10610 0.60900 -0.17400
H 	H 	0.82140 0.05820 0.61480 0.08200
C 	C 	0.81860 0.11130 0.58780 0.18900
C 	C 	0.80600 0.03860 0.57480 -0.65500
H 	H 	0.81180 0.05470 0.56070 0.21800
H 	H 	0.84730 0.02310 0.57820 0.20400
H 	H 	0.75050 0.99150 0.57710 0.20600
C 	C 	0.85430 0.31690 0.62580 -0.47300
H 	H 	0.85570 0.30290 0.63990 0.16000
H 	H 	0.90660 0.36630 0.62240 0.15200
H 	H 	0.80870 0.32780 0.62380 0.14000
Cu	Cu	0.71716 0.85849 0.84964 0.90000
O 	O 	0.64177 0.74533 0.86020 -0.42200
O 	O 	0.77807 0.81473 0.83374 -0.40200
O 	O 	0.64037 0.89493 0.86018 -0.42300
O 	O 	0.77847 0.96403 0.83371 -0.39800
C 	C 	0.57637 0.88433 0.85103 0.36900
C 	C 	0.51887 0.90393 0.86063 -0.12900
C 	C 	0.45507 0.90783 0.85103 0.06000
C 	C 	0.52937 0.93053 0.88043 -0.00900
C 	C 	0.38377 0.90553 0.86093 -0.12200
H 	H 	0.45757 0.91213 0.83683 0.02900
H 	H 	0.57427 0.93413 0.88783 0.03900
C 	C 	0.47547 0.95213 0.88973 -0.01500
C 	C 	0.39867 0.92963 0.88153 -0.01300
C 	C 	0.30697 0.88463 0.85113 0.36600
C 	C 	0.48387 0.97393 0.91253 -0.03300
H 	H 	0.35677 0.93013 0.88943 0.04000
C 	C 	0.48167 0.04233 0.92083 0.06600
C 	C 	0.49137 0.91643 0.92513 -0.24500
C 	C 	0.47367 0.10433 0.90743 -0.54300
C 	C 	0.48707 0.05413 0.94203 -0.02300
C 	C 	0.49657 0.92813 0.94623 0.31400
H 	H 	0.49297 0.87073 0.91943 0.11200
H 	H 	0.42467 0.10723 0.91133 0.17500
H 	H 	0.52287 0.15863 0.90873 0.17000
H 	H 	0.46747 0.08563 0.89353 0.18600
C 	C 	0.49357 0.99643 0.95463 -0.05500
H 	H 	0.48617 0.10023 0.94763 0.00300
C 	C 	0.50467 0.86633 0.95973 -0.97600
C 	C 	0.48967 0.98933 0.97823 -0.05000
H 	H 	0.55577 0.86653 0.95643 0.30800
H 	H 	0.50677 0.88323 0.97373 0.39000
H 	H 	0.45737 0.81133 0.95773 0.30100
C 	C 	0.52487 0.94763 0.98913 -0.07900
C 	C 	0.46347 0.04363 0.98873 0.13700
H 	H 	0.54077 0.91373 0.98213 -0.10200
C 	C 	0.42627 0.08723 0.97683 -0.61400
H 	H 	0.36877 0.06583 0.98083 0.19400
H 	H 	0.42837 0.07713 0.96253 0.20900
H 	H 	0.45807 0.14683 0.97943 0.19100
C 	C 	0.50167 0.58313 0.92483 -0.01000
H 	H 	0.50507 0.63103 0.91903 0.02900
C 	C 	0.50827 0.57823 0.94593 0.02000
C 	C 	0.49147 0.43943 0.94233 -0.18200
H 	H 	0.48807 0.39153 0.94813 0.08300
C 	C 	0.48527 0.44463 0.92113 0.19800
C 	C 	0.47267 0.37193 0.90813 -0.68300
H 	H 	0.47847 0.38803 0.89403 0.22500
H 	H 	0.51397 0.35643 0.91153 0.21100
H 	H 	0.41717 0.32483 0.91043 0.21800
C 	C 	0.52097 0.65023 0.95913 -0.46300
H 	H 	0.52237 0.63623 0.97323 0.15600
H 	H 	0.57327 0.69963 0.95573 0.14800
H 	H 	0.47537 0.66113 0.95713 0.13700
Cu	Cu	0.38382 0.19183 0.18298 0.90000
O 	O 	0.30843 0.07867 0.19354 -0.42100
O 	O 	0.44473 0.14807 0.16708 -0.40400
O 	O 	0.30703 0.22827 0.19352 -0.42200
O 	O 	0.44513 0.29737 0.16705 -0.39900
C 	C 	0.24303 0.21767 0.18437 0.36700
C 	C 	0.18553 0.23727 0.19397 -0.12300
C 	C 	0.12173 0.24117 0.18437 0.05300
C 	C 	0.19603 0.26387 0.21377 -0.01300
C 	C 	0.05043 0.23887 0.19427 -0.10700
H 	H 	0.12423 0.24547 0.17017 0.03400
H 	H 	0.24093 0.26747 0.22117 0.04000
C 	C 	0.14213 0.28547 0.22307 -0.01000
C 	C 	0.06533 0.26297 0.21487 -0.02000
C 	C 	0.97363 0.21797 0.18447 0.35400
C 	C 	0.15053 0.30727 0.24587 -0.03100
H 	H 	0.02343 0.26347 0.22277 0.04600
C 	C 	0.14833 0.37567 0.25417 0.05400
C 	C 	0.15803 0.24977 0.25847 -0.26100
C 	C 	0.14033 0.43767 0.24077 -0.53100
C 	C 	0.15373 0.38747 0.27537 -0.01400
C 	C 	0.16323 0.26147 0.27957 0.33300
H 	H 	0.15963 0.20407 0.25277 0.11700
H 	H 	0.09133 0.44057 0.24467 0.17200
H 	H 	0.18953 0.49197 0.24207 0.16600
H 	H 	0.13413 0.41897 0.22687 0.18100
C 	C 	0.16023 0.32977 0.28797 -0.04700
H 	H 	0.15283 0.43357 0.28097 -0.00000
C 	C 	0.17133 0.19967 0.29307 -1.00200
C 	C 	0.15633 0.32267 0.31157 -0.05400
H 	H 	0.22243 0.19987 0.28977 0.31600
H 	H 	0.17343 0.21657 0.30707 0.40200
H 	H 	0.12403 0.14467 0.29107 0.30900
C 	C 	0.19153 0.28097 0.32247 -0.07200
C 	C 	0.13013 0.37697 0.32207 0.14200
H 	H 	0.20743 0.24707 0.31547 -0.10900
C 	C 	0.09293 0.42057 0.31017 -0.62200
H 	H 	0.03543 0.39917 0.31417 0.19800
H 	H 	0.09503 0.41047 0.29587 0.21200
H 	H 	0.12473 0.48017 0.31277 0.19400
C 	C 	0.16833 0.91647 0.25817 -0.00700
H 	H 	0.17173 0.96437 0.25237 0.03100
C 	C 	0.17493 0.91157 0.27927 0.01500
C 	C 	0.15813 0.77277 0.27567 -0.18400
H 	H 	0.15473 0.72487 0.28147 0.08400
C 	C 	0.15193 0.77797 0.25447 0.20100
C 	C 	0.13933 0.70527 0.24147 -0.68800
H 	H 	0.14513 0.72137 0.22737 0.22700
H 	H 	0.18063 0.68977 0.24487 0.21200
H 	H 	0.08383 0.65817 0.24377 0.22100
C 	C 	0.18763 0.98357 0.29247 -0.42600
H 	H 	0.18903 0.96957 0.30657 0.14800
H 	H 	0.23993 0.03297 0.28907 0.12900
H 	H 	0.14203 0.99447 0.29047 0.13000
Cu	Cu	0.47484 0.52533 0.51631 0.90000
O 	O 	0.58800 0.56310 0.52687 -0.42300
O 	O 	0.51860 0.63000 0.50041 -0.40300
O 	O 	0.43840 0.41210 0.52685 -0.42200
O 	O 	0.36930 0.48110 0.50038 -0.39900
C 	C 	0.44900 0.35870 0.51770 0.37000
C 	C 	0.42940 0.28160 0.52730 -0.12900
C 	C 	0.42550 0.21390 0.51770 0.06100
C 	C 	0.40280 0.26550 0.54710 -0.00600
C 	C 	0.42780 0.14490 0.52760 -0.12200
H 	H 	0.42120 0.21210 0.50350 0.03000
H 	H 	0.39920 0.30680 0.55450 0.03800
C 	C 	0.38120 0.19000 0.55640 -0.01900
C 	C 	0.40370 0.13570 0.54820 -0.01000
C 	C 	0.44870 0.08900 0.51780 0.36600
C 	C 	0.35940 0.17660 0.57920 -0.01900
H 	H 	0.40320 0.09330 0.55610 0.04100
C 	C 	0.29100 0.10600 0.58750 0.04700
C 	C 	0.41690 0.24160 0.59180 -0.25200
C 	C 	0.22900 0.03600 0.57410 -0.50300
C 	C 	0.27920 0.09960 0.60870 -0.01300
C 	C 	0.40520 0.23510 0.61290 0.31900
H 	H 	0.46260 0.28890 0.58610 0.11400
H 	H 	0.22610 0.98410 0.57800 0.15900
H 	H 	0.17470 0.03090 0.57540 0.15800
H 	H 	0.24770 0.04850 0.56020 0.17300
C 	C 	0.33690 0.16380 0.62130 -0.06000
H 	H 	0.23310 0.05260 0.61430 0.00400
C 	C 	0.46700 0.30500 0.62640 -0.98000
C 	C 	0.34400 0.16700 0.64490 -0.03900
H 	H 	0.46680 0.35590 0.62310 0.30900
H 	H 	0.45010 0.29020 0.64040 0.39100
H 	H 	0.52200 0.31270 0.62440 0.30200
C 	C 	0.38570 0.24390 0.65580 -0.08500
C 	C 	0.28970 0.08650 0.65540 0.11300
H 	H 	0.41960 0.29370 0.64880 -0.10000
C 	C 	0.24610 0.00570 0.64350 -0.52500
H 	H 	0.26750 0.96960 0.64750 0.16100
H 	H 	0.25620 0.01790 0.62920 0.18300
H 	H 	0.18650 0.97790 0.64610 0.15900
C 	C 	0.75020 0.58520 0.59150 -0.01800
H 	H 	0.70230 0.54070 0.58570 0.03200
C 	C 	0.75510 0.59670 0.61260 0.02700
C 	C 	0.89390 0.71870 0.60900 -0.17000
H 	H 	0.94180 0.76320 0.61480 0.08000
C 	C 	0.88870 0.70730 0.58780 0.18300
C 	C 	0.96140 0.76740 0.57480 -0.64800
H 	H 	0.94530 0.75710 0.56070 0.21500
H 	H 	0.97690 0.82420 0.57820 0.20100
H 	H 	0.00850 0.75900 0.57710 0.20400
C 	C 	0.68310 0.53740 0.62580 -0.47000
H 	H 	0.69710 0.55280 0.63990 0.15800
H 	H 	0.63370 0.54030 0.62240 0.14900
H 	H 	0.67220 0.48090 0.62380 0.13900
Cu	Cu	0.14151 0.85866 0.84964 0.90000
O 	O 	0.25467 0.89643 0.86020 -0.42400
O 	O 	0.18527 0.96333 0.83374 -0.40300
O 	O 	0.10507 0.74543 0.86018 -0.42300
O 	O 	0.03597 0.81443 0.83371 -0.40000
C 	C 	0.11567 0.69203 0.85103 0.36900
C 	C 	0.09607 0.61493 0.86063 -0.12900
C 	C 	0.09217 0.54723 0.85103 0.06000
C 	C 	0.06947 0.59883 0.88043 -0.00900
C 	C 	0.09447 0.47823 0.86093 -0.12200
H 	H 	0.08787 0.54543 0.83683 0.02900
H 	H 	0.06587 0.64013 0.88783 0.03800
C 	C 	0.04787 0.52333 0.88973 -0.01500
C 	C 	0.07037 0.46903 0.88153 -0.01300
C 	C 	0.11537 0.42233 0.85113 0.36600
C 	C 	0.02607 0.50993 0.91253 -0.03400
H 	H 	0.06987 0.42663 0.88943 0.04000
C 	C 	0.95767 0.43933 0.92083 0.06700
C 	C 	0.08357 0.57493 0.92513 -0.24400
C 	C 	0.89567 0.36933 0.90743 -0.54600
C 	C 	0.94587 0.43293 0.94203 -0.02500
C 	C 	0.07187 0.56843 0.94623 0.31300
H 	H 	0.12927 0.62223 0.91943 0.11100
H 	H 	0.89277 0.31743 0.91133 0.17600
H 	H 	0.84137 0.36423 0.90873 0.17100
H 	H 	0.91437 0.38183 0.89353 0.18700
C 	C 	0.00357 0.49713 0.95463 -0.05500
H 	H 	0.89977 0.38593 0.94763 0.00400
C 	C 	0.13367 0.63833 0.95973 -0.97300
C 	C 	0.01067 0.50033 0.97823 -0.05000
H 	H 	0.13347 0.68923 0.95643 0.30700
H 	H 	0.11677 0.62353 0.97373 0.39000
H 	H 	0.18867 0.64603 0.95773 0.30000
C 	C 	0.05237 0.57723 0.98913 -0.07900
C 	C 	0.95637 0.41983 0.98873 0.13700
H 	H 	0.08627 0.62703 0.98213 -0.10100
C 	C 	0.91277 0.33903 0.97683 -0.61500
H 	H 	0.93417 0.30293 0.98083 0.19400
H 	H 	0.92287 0.35123 0.96253 0.20900
H 	H 	0.85317 0.31123 0.97943 0.19100
C 	C 	0.41687 0.91853 0.92483 -0.00800
H 	H 	0.36897 0.87403 0.91903 0.02800
C 	C 	0.42177 0.93003 0.94593 0.01800
C 	C 	0.56057 0.05203 0.94233 -0.18300
H 	H 	0.60847 0.09653 0.94813 0.08400
C 	C 	0.55537 0.04063 0.92113 0.20500
C 	C 	0.62807 0.10073 0.90813 -0.69100
H 	H 	0.61197 0.09043 0.89403 0.22900
H 	H 	0.64357 0.15753 0.91153 0.21300
H 	H 	0.67517 0.09233 0.91043 0.22100
C 	C 	0.34977 0.87073 0.95913 -0.46100
H 	H 	0.36377 0.88613 0.97323 0.15600
H 	H 	0.30037 0.87363 0.95573 0.14600
H 	H 	0.33887 0.81423 0.95713 0.13600
Cu	Cu	0.80817 0.19200 0.18298 0.90000
O 	O 	0.92133 0.22977 0.19354 -0.42300
O 	O 	0.85193 0.29667 0.16708 -0.40400
O 	O 	0.77173 0.07877 0.19352 -0.42200
O 	O 	0.70263 0.14777 0.16705 -0.40000
C 	C 	0.78233 0.02537 0.18437 0.35600
C 	C 	0.76273 0.94827 0.19397 -0.11200
C 	C 	0.75883 0.88057 0.18437 0.05100
C 	C 	0.73613 0.93217 0.21377 -0.01900
C 	C 	0.76113 0.81157 0.19427 -0.11500
H 	H 	0.75453 0.87877 0.17017 0.03500
H 	H 	0.73253 0.97347 0.22117 0.04500
C 	C 	0.71453 0.85667 0.22307 -0.00800
C 	C 	0.73703 0.80237 0.21487 -0.01800
C 	C 	0.78203 0.75567 0.18447 0.36300
C 	C 	0.69273 0.84327 0.24587 -0.03500
H 	H 	0.73653 0.75997 0.22277 0.04200
C 	C 	0.62433 0.77267 0.25417 0.08200
C 	C 	0.75023 0.90827 0.25847 -0.20600
C 	C 	0.56233 0.70267 0.24077 -0.56000
C 	C 	0.61253 0.76627 0.27537 -0.04900
C 	C 	0.73853 0.90177 0.27957 0.26300
H 	H 	0.79593 0.95557 0.25277 0.10000
H 	H 	0.55943 0.65077 0.24467 0.17900
H 	H 	0.50803 0.69757 0.24207 0.17500
H 	H 	0.58103 0.71517 0.22687 0.18900
C 	C 	0.67023 0.83047 0.28797 -0.04100
H 	H 	0.56643 0.71927 0.28097 0.01200
C 	C 	0.80033 0.97167 0.29307 -0.85900
C 	C 	0.67733 0.83367 0.31157 -0.05500
H 	H 	0.80013 0.02257 0.28977 0.26600
H 	H 	0.78343 0.95687 0.30707 0.34600
H 	H 	0.85533 0.97937 0.29107 0.26700
C 	C 	0.71903 0.91057 0.32247 -0.07200
C 	C 	0.62303 0.75317 0.32207 0.14000
H 	H 	0.75293 0.96037 0.31547 -0.08500
C 	C 	0.57943 0.67237 0.31017 -0.61500
H 	H 	0.60083 0.63627 0.31417 0.19400
H 	H 	0.58953 0.68457 0.29587 0.20800
H 	H 	0.51983 0.64457 0.31277 0.19100
C 	C 	0.08353 0.25187 0.25817 0.01400
H 	H 	0.03563 0.20737 0.25237 0.02200
C 	C 	0.08843 0.26337 0.27927 -0.01000
C 	C 	0.22723 0.38537 0.27567 -0.19700
H 	H 	0.27513 0.42987 0.28147 0.08800
C 	C 	0.22203 0.37397 0.25447 0.21000
C 	C 	0.29473 0.43407 0.24147 -0.69500
H 	H 	0.27863 0.42377 0.22737 0.22900
H 	H 	0.31023 0.49087 0.24487 0.21400
H 	H 	0.34183 0.42567 0.24377 0.22100
C 	C 	0.01643 0.20407 0.29247 -0.39600
H 	H 	0.03043 0.21947 0.30657 0.13800
H 	H 	0.96703 0.20697 0.28907 0.12100
H 	H 	0.00553 0.14757 0.29047 0.11900
Cu	Cu	0.47467 0.94951 0.51631 0.90000
O 	O 	0.43690 0.02490 0.52687 -0.42200
O 	O 	0.37000 0.88860 0.50041 -0.40300
O 	O 	0.58790 0.02630 0.52685 -0.42100
O 	O 	0.51890 0.88820 0.50038 -0.39900
C 	C 	0.64130 0.09030 0.51770 0.36900
C 	C 	0.71840 0.14780 0.52730 -0.12900
C 	C 	0.78610 0.21160 0.51770 0.06200
C 	C 	0.73450 0.13730 0.54710 -0.00600
C 	C 	0.85510 0.28290 0.52760 -0.12200
H 	H 	0.78790 0.20910 0.50350 0.03000
H 	H 	0.69320 0.09240 0.55450 0.03900
C 	C 	0.81000 0.19120 0.55640 -0.01900
C 	C 	0.86430 0.26800 0.54820 -0.00900
C 	C 	0.91100 0.35970 0.51780 0.36600
C 	C 	0.82340 0.18280 0.57920 -0.01700
H 	H 	0.90670 0.30990 0.55610 0.04000
C 	C 	0.89400 0.18500 0.58750 0.05600
C 	C 	0.75840 0.17530 0.59180 -0.24500
C 	C 	0.96400 0.19300 0.57410 -0.51500
C 	C 	0.90040 0.17960 0.60870 -0.02200
C 	C 	0.76490 0.17010 0.61290 0.31400
H 	H 	0.71110 0.17370 0.58610 0.11200
H 	H 	0.01590 0.24200 0.57800 0.16300
H 	H 	0.96910 0.14380 0.57540 0.16300
H 	H 	0.95150 0.19920 0.56020 0.17700
C 	C 	0.83620 0.17310 0.62130 -0.06100
H 	H 	0.94740 0.18050 0.61430 0.00800
C 	C 	0.69500 0.16200 0.62640 -0.97200
C 	C 	0.83300 0.17700 0.64490 -0.03600
H 	H 	0.64410 0.11090 0.62310 0.30800
H 	H 	0.70980 0.15990 0.64040 0.38700
H 	H 	0.68730 0.20930 0.62440 0.30000
C 	C 	0.75610 0.14180 0.65580 -0.08800
C 	C 	0.91350 0.20320 0.65540 0.11100
H 	H 	0.70630 0.12590 0.64880 -0.09600
C 	C 	0.99430 0.24040 0.64350 -0.52400
H 	H 	0.03040 0.29790 0.64750 0.16200
H 	H 	0.98210 0.23830 0.62920 0.18300
H 	H 	0.02210 0.20860 0.64610 0.16000
C 	C 	0.41480 0.16500 0.59150 -0.00900
H 	H 	0.45930 0.16160 0.58570 0.02900
C 	C 	0.40330 0.15840 0.61260 0.02200
C 	C 	0.28130 0.17520 0.60900 -0.18600
H 	H 	0.23680 0.17860 0.61480 0.08500
C 	C 	0.29270 0.18140 0.58780 0.20300
C 	C 	0.23260 0.19400 0.57480 -0.68800
H 	H 	0.24290 0.18820 0.56070 0.22700
H 	H 	0.17580 0.15270 0.57820 0.21200
H 	H 	0.24100 0.24950 0.57710 0.21900
C 	C 	0.46260 0.14570 0.62580 -0.46600
H 	H 	0.44720 0.14430 0.63990 0.15800
H 	H 	0.45970 0.09340 0.62240 0.15000
H 	H 	0.51910 0.19130 0.62380 0.13800
Cu	Cu	0.14134 0.28284 0.84964 0.90000
O 	O 	0.10357 0.35823 0.86020 -0.42300
O 	O 	0.03667 0.22193 0.83374 -0.40100
O 	O 	0.25457 0.35963 0.86018 -0.42200
O 	O 	0.18557 0.22153 0.83371 -0.39900
C 	C 	0.30797 0.42363 0.85103 0.36900
C 	C 	0.38507 0.48113 0.86063 -0.12900
C 	C 	0.45277 0.54493 0.85103 0.06100
C 	C 	0.40117 0.47063 0.88043 -0.00700
C 	C 	0.52177 0.61623 0.86093 -0.12100
H 	H 	0.45457 0.54243 0.83683 0.03000
H 	H 	0.35987 0.42573 0.88783 0.03900
C 	C 	0.47667 0.52453 0.88973 -0.01700
C 	C 	0.53097 0.60133 0.88153 -0.01100
C 	C 	0.57767 0.69303 0.85113 0.36600
C 	C 	0.49007 0.51613 0.91253 -0.02400
H 	H 	0.57337 0.64323 0.88943 0.04000
C 	C 	0.56067 0.51833 0.92083 0.06000
C 	C 	0.42507 0.50863 0.92513 -0.24700
C 	C 	0.63067 0.52633 0.90743 -0.53700
C 	C 	0.56707 0.51293 0.94203 -0.02400
C 	C 	0.43157 0.50343 0.94623 0.31500
H 	H 	0.37777 0.50703 0.91943 0.11200
H 	H 	0.68257 0.57533 0.91133 0.17300
H 	H 	0.63577 0.47713 0.90873 0.16800
H 	H 	0.61817 0.53253 0.89353 0.18200
C 	C 	0.50287 0.50643 0.95463 -0.05400
H 	H 	0.61407 0.51383 0.94763 0.00300
C 	C 	0.36167 0.49533 0.95973 -0.97600
C 	C 	0.49967 0.51033 0.97823 -0.05000
H 	H 	0.31077 0.44423 0.95643 0.30900
H 	H 	0.37647 0.49323 0.97373 0.39100
H 	H 	0.35397 0.54263 0.95773 0.30100
C 	C 	0.42277 0.47513 0.98913 -0.07900
C 	C 	0.58017 0.53653 0.98873 0.13600
H 	H 	0.37297 0.45923 0.98213 -0.10200
C 	C 	0.66097 0.57373 0.97683 -0.61300
H 	H 	0.69707 0.63123 0.98083 0.19400
H 	H 	0.64877 0.57163 0.96253 0.20800
H 	H 	0.68877 0.54193 0.97943 0.19100
C 	C 	0.08147 0.49833 0.92483 -0.00900
H 	H 	0.12597 0.49493 0.91903 0.02900
C 	C 	0.06997 0.49173 0.94593 0.02000
C 	C 	0.94797 0.50853 0.94233 -0.18200
H 	H 	0.90347 0.51193 0.94813 0.08300
C 	C 	0.95937 0.51473 0.92113 0.20300
C 	C 	0.89927 0.52733 0.90813 -0.68900
H 	H 	0.90957 0.52153 0.89403 0.22900
H 	H 	0.84247 0.48603 0.91153 0.21200
H 	H 	0.90767 0.58283 0.91043 0.22000
C 	C 	0.12927 0.47903 0.95913 -0.46200
H 	H 	0.11387 0.47763 0.97323 0.15600
H 	H 	0.12637 0.42673 0.95573 0.14700
H 	H 	0.18577 0.52463 0.95713 0.13700
Cu	Cu	0.80800 0.61618 0.18298 0.90000
O 	O 	0.77023 0.69157 0.19354 -0.42300
O 	O 	0.70333 0.55527 0.16708 -0.40300
O 	O 	0.92123 0.69297 0.19352 -0.42100
O 	O 	0.85223 0.55487 0.16705 -0.40000
C 	C 	0.97463 0.75697 0.18437 0.35300
C 	C 	0.05173 0.81447 0.19397 -0.10500
C 	C 	0.11943 0.87827 0.18437 0.04300
C 	C 	0.06783 0.80397 0.21377 -0.02500
C 	C 	0.18843 0.94957 0.19427 -0.09900
H 	H 	0.12123 0.87577 0.17017 0.03900
H 	H 	0.02653 0.75907 0.22117 0.04700
C 	C 	0.14333 0.85787 0.22307 -0.00000
C 	C 	0.19763 0.93467 0.21487 -0.02700
C 	C 	0.24433 0.02637 0.18447 0.35100
C 	C 	0.15673 0.84947 0.24587 -0.04100
H 	H 	0.24003 0.97657 0.22277 0.04800
C 	C 	0.22733 0.85167 0.25417 0.07400
C 	C 	0.09173 0.84197 0.25847 -0.22600
C 	C 	0.29733 0.85967 0.24077 -0.55400
C 	C 	0.23373 0.84627 0.27537 -0.03700
C 	C 	0.09823 0.83677 0.27957 0.28700
H 	H 	0.04443 0.84037 0.25277 0.10700
H 	H 	0.34923 0.90867 0.24467 0.17900
H 	H 	0.30243 0.81047 0.24207 0.17300
H 	H 	0.28483 0.86587 0.22687 0.18800
C 	C 	0.16953 0.83977 0.28797 -0.03600
H 	H 	0.28073 0.84717 0.28097 0.00800
C 	C 	0.02833 0.82867 0.29307 -0.89800
C 	C 	0.16633 0.84367 0.31157 -0.05900
H 	H 	0.97743 0.77757 0.28977 0.27800
H 	H 	0.04313 0.82657 0.30707 0.36300
H 	H 	0.02063 0.87597 0.29107 0.28200
C 	C 	0.08943 0.80847 0.32247 -0.06500
C 	C 	0.24683 0.86987 0.32207 0.14600
H 	H 	0.03963 0.79257 0.31547 -0.09300
C 	C 	0.32763 0.90707 0.31017 -0.62600
H 	H 	0.36373 0.96457 0.31417 0.19900
H 	H 	0.31543 0.90497 0.29587 0.21200
H 	H 	0.35543 0.87527 0.31277 0.19500
C 	C 	0.74813 0.83167 0.25817 -0.03300
H 	H 	0.79263 0.82827 0.25237 0.03700
C 	C 	0.73663 0.82507 0.27927 0.04600
C 	C 	0.61463 0.84187 0.27567 -0.16700
H 	H 	0.57013 0.84527 0.28147 0.07800
C 	C 	0.62603 0.84807 0.25447 0.18700
C 	C 	0.56593 0.86067 0.24147 -0.67200
H 	H 	0.57623 0.85487 0.22737 0.22200
H 	H 	0.50913 0.81937 0.24487 0.20700
H 	H 	0.57433 0.91617 0.24377 0.21600
C 	C 	0.79593 0.81237 0.29247 -0.49100
H 	H 	0.78053 0.81097 0.30657 0.16500
H 	H 	0.79303 0.76007 0.28907 0.15500
H 	H 	0.85243 0.85797 0.29047 0.14600
