data_crystal

_cell_length_a 26.40400
_cell_length_b 26.40400
_cell_length_c 26.40400
_cell_angle_alpha 90.00000
_cell_angle_beta  90.00000
_cell_angle_gamma 90.00000

_symmetry_space_group_name_	'P 1'
_symmetry_space_group_name_H-M	'P 1'

loop_
_symmetry_equiv_pos_as_xyz
  x,y,z

loop_
_atom_site_label
_atom_site_type_symbol
_atom_site_fract_x
_atom_site_fract_y
_atom_site_fract_z
_atom_site_charge
U 	U 	0.23820 0.57193 0.15518 -0.00100
P 	P 	0.12415 0.64320 0.13216 0.45500
C 	C 	0.16980 0.68910 0.11140 -0.49800
H 	H 	0.15270 0.72070 0.10380 0.14600
H 	H 	0.18600 0.67720 0.08070 0.19800
C 	C 	0.20940 0.69810 0.15170 0.47800
O 	O 	0.15295 0.59769 0.14997 -0.18000
O 	O 	0.08991 0.66639 0.17312 -0.19200
O 	O 	0.08767 0.63290 0.08849 -0.18000
O 	O 	0.23846 0.66229 0.16369 -0.27200
O 	O 	0.21135 0.74112 0.17312 -0.56200
U 	U 	0.73820 0.07193 0.65518 -0.00100
P 	P 	0.62415 0.14320 0.63216 0.45500
C 	C 	0.66980 0.18910 0.61140 -0.50000
H 	H 	0.65270 0.22070 0.60380 0.14900
H 	H 	0.68600 0.17720 0.58070 0.20200
C 	C 	0.70940 0.19810 0.65170 0.48100
O 	O 	0.65295 0.09769 0.64997 -0.18000
O 	O 	0.58991 0.16639 0.67312 -0.19000
O 	O 	0.58767 0.13290 0.58849 -0.17800
O 	O 	0.73846 0.16229 0.66369 -0.27100
O 	O 	0.71135 0.24112 0.67312 -0.56100
U 	U 	0.76180 0.42807 0.15518 0.00100
P 	P 	0.87585 0.35680 0.13216 0.45600
C 	C 	0.83020 0.31090 0.11140 -0.49800
H 	H 	0.84730 0.27930 0.10380 0.14900
H 	H 	0.81400 0.32280 0.08070 0.20000
C 	C 	0.79060 0.30190 0.15170 0.48000
O 	O 	0.84705 0.40231 0.14997 -0.17700
O 	O 	0.91009 0.33361 0.17312 -0.18300
O 	O 	0.91233 0.36710 0.08849 -0.17200
O 	O 	0.76154 0.33771 0.16369 -0.27100
O 	O 	0.78865 0.25888 0.17312 -0.56100
U 	U 	0.26180 0.92807 0.65518 0.01100
P 	P 	0.37585 0.85680 0.63216 0.45700
C 	C 	0.33020 0.81090 0.61140 -0.50000
H 	H 	0.34730 0.77930 0.60380 0.15000
H 	H 	0.31400 0.82280 0.58070 0.20400
C 	C 	0.29060 0.80190 0.65170 0.48100
O 	O 	0.34705 0.90231 0.64997 -0.17300
O 	O 	0.41009 0.83361 0.67312 -0.18900
O 	O 	0.41233 0.86710 0.58849 -0.17400
O 	O 	0.26154 0.83771 0.66369 -0.27000
O 	O 	0.28865 0.75888 0.67312 -0.56100
U 	U 	0.76180 0.57193 0.84482 0.00300
P 	P 	0.87585 0.64320 0.86784 0.45800
C 	C 	0.83020 0.68910 0.88860 -0.50400
H 	H 	0.84730 0.72070 0.89620 0.15700
H 	H 	0.81400 0.67720 0.91930 0.20900
C 	C 	0.79060 0.69810 0.84830 0.48300
O 	O 	0.84705 0.59769 0.85003 -0.17600
O 	O 	0.91009 0.66639 0.82688 -0.18200
O 	O 	0.91233 0.63290 0.91151 -0.16400
O 	O 	0.76154 0.66229 0.83631 -0.27100
O 	O 	0.78865 0.74112 0.82688 -0.55900
U 	U 	0.26180 0.07193 0.34482 -0.00000
P 	P 	0.37585 0.14320 0.36784 0.45600
C 	C 	0.33020 0.18910 0.38860 -0.49900
H 	H 	0.34730 0.22070 0.39620 0.15000
H 	H 	0.31400 0.17720 0.41930 0.20300
C 	C 	0.29060 0.19810 0.34830 0.48100
O 	O 	0.34705 0.09769 0.35003 -0.18000
O 	O 	0.41009 0.16639 0.32688 -0.19000
O 	O 	0.41233 0.13290 0.41151 -0.17800
O 	O 	0.26154 0.16229 0.33631 -0.27100
O 	O 	0.28865 0.24112 0.32688 -0.56100
U 	U 	0.23820 0.42807 0.84482 0.00300
P 	P 	0.12415 0.35680 0.86784 0.45700
C 	C 	0.16980 0.31090 0.88860 -0.50200
H 	H 	0.15270 0.27930 0.89620 0.15200
H 	H 	0.18600 0.32280 0.91930 0.20800
C 	C 	0.20940 0.30190 0.84830 0.48200
O 	O 	0.15295 0.40231 0.85003 -0.17800
O 	O 	0.08991 0.33361 0.82688 -0.19100
O 	O 	0.08767 0.36710 0.91151 -0.17200
O 	O 	0.23846 0.33771 0.83631 -0.27100
O 	O 	0.21135 0.25888 0.82688 -0.56100
U 	U 	0.73820 0.92807 0.34482 0.01100
P 	P 	0.62415 0.85680 0.36784 0.45700
C 	C 	0.66980 0.81090 0.38860 -0.50000
H 	H 	0.65270 0.77930 0.39620 0.15000
H 	H 	0.68600 0.82280 0.41930 0.20400
C 	C 	0.70940 0.80190 0.34830 0.48100
O 	O 	0.65295 0.90231 0.35003 -0.17300
O 	O 	0.58991 0.83361 0.32688 -0.18900
O 	O 	0.58767 0.86710 0.41151 -0.17400
O 	O 	0.73846 0.83771 0.33631 -0.27000
O 	O 	0.71135 0.75888 0.32688 -0.56100
U 	U 	0.15518 0.23820 0.57193 0.00000
P 	P 	0.13216 0.12415 0.64320 0.45600
C 	C 	0.11140 0.16980 0.68910 -0.49700
H 	H 	0.10380 0.15270 0.72070 0.14700
H 	H 	0.08070 0.18600 0.67720 0.19900
C 	C 	0.15170 0.20940 0.69810 0.47900
O 	O 	0.14997 0.15295 0.59769 -0.17900
O 	O 	0.17312 0.08991 0.66639 -0.19100
O 	O 	0.08849 0.08767 0.63290 -0.17900
O 	O 	0.16369 0.23846 0.66229 -0.27100
O 	O 	0.17312 0.21135 0.74112 -0.56100
U 	U 	0.65518 0.73820 0.07193 0.00000
P 	P 	0.63216 0.62415 0.14320 0.45600
C 	C 	0.61140 0.66980 0.18910 -0.49900
H 	H 	0.60380 0.65270 0.22070 0.15000
H 	H 	0.58070 0.68600 0.17720 0.20300
C 	C 	0.65170 0.70940 0.19810 0.48100
O 	O 	0.64997 0.65295 0.09769 -0.18000
O 	O 	0.67312 0.58991 0.16639 -0.19000
O 	O 	0.58849 0.58767 0.13290 -0.17800
O 	O 	0.66369 0.73846 0.16229 -0.27100
O 	O 	0.67312 0.71135 0.24112 -0.56100
U 	U 	0.15518 0.76180 0.42807 0.00100
P 	P 	0.13216 0.87585 0.35680 0.45600
C 	C 	0.11140 0.83020 0.31090 -0.49800
H 	H 	0.10380 0.84730 0.27930 0.14900
H 	H 	0.08070 0.81400 0.32280 0.20000
C 	C 	0.15170 0.79060 0.30190 0.48000
O 	O 	0.14997 0.84705 0.40231 -0.17700
O 	O 	0.17312 0.91009 0.33361 -0.18300
O 	O 	0.08849 0.91233 0.36710 -0.17200
O 	O 	0.16369 0.76154 0.33771 -0.27100
O 	O 	0.17312 0.78865 0.25888 -0.56100
U 	U 	0.65518 0.26180 0.92807 0.01100
P 	P 	0.63216 0.37585 0.85680 0.45700
C 	C 	0.61140 0.33020 0.81090 -0.50000
H 	H 	0.60380 0.34730 0.77930 0.15000
H 	H 	0.58070 0.31400 0.82280 0.20400
C 	C 	0.65170 0.29060 0.80190 0.48100
O 	O 	0.64997 0.34705 0.90231 -0.17300
O 	O 	0.67312 0.41009 0.83361 -0.18900
O 	O 	0.58849 0.41233 0.86710 -0.17400
O 	O 	0.66369 0.26154 0.83771 -0.27000
O 	O 	0.67312 0.28865 0.75888 -0.56100
U 	U 	0.84482 0.76180 0.57193 0.00300
P 	P 	0.86784 0.87585 0.64320 0.45800
C 	C 	0.88860 0.83020 0.68910 -0.50400
H 	H 	0.89620 0.84730 0.72070 0.15700
H 	H 	0.91930 0.81400 0.67720 0.20900
C 	C 	0.84830 0.79060 0.69810 0.48300
O 	O 	0.85003 0.84705 0.59769 -0.17600
O 	O 	0.82688 0.91009 0.66639 -0.18200
O 	O 	0.91151 0.91233 0.63290 -0.16400
O 	O 	0.83631 0.76154 0.66229 -0.27100
O 	O 	0.82688 0.78865 0.74112 -0.55900
U 	U 	0.34482 0.26180 0.07193 -0.00000
P 	P 	0.36784 0.37585 0.14320 0.45600
C 	C 	0.38860 0.33020 0.18910 -0.49900
H 	H 	0.39620 0.34730 0.22070 0.15000
H 	H 	0.41930 0.31400 0.17720 0.20300
C 	C 	0.34830 0.29060 0.19810 0.48100
O 	O 	0.35003 0.34705 0.09769 -0.18000
O 	O 	0.32688 0.41009 0.16639 -0.19000
O 	O 	0.41151 0.41233 0.13290 -0.17800
O 	O 	0.33631 0.26154 0.16229 -0.27100
O 	O 	0.32688 0.28865 0.24112 -0.56100
U 	U 	0.84482 0.23820 0.42807 0.00300
P 	P 	0.86784 0.12415 0.35680 0.45700
C 	C 	0.88860 0.16980 0.31090 -0.50200
H 	H 	0.89620 0.15270 0.27930 0.15200
H 	H 	0.91930 0.18600 0.32280 0.20800
C 	C 	0.84830 0.20940 0.30190 0.48200
O 	O 	0.85003 0.15295 0.40231 -0.17800
O 	O 	0.82688 0.08991 0.33361 -0.19100
O 	O 	0.91151 0.08767 0.36710 -0.17200
O 	O 	0.83631 0.23846 0.33771 -0.27100
O 	O 	0.82688 0.21135 0.25888 -0.56100
U 	U 	0.34482 0.73820 0.92807 0.01100
P 	P 	0.36784 0.62415 0.85680 0.45700
C 	C 	0.38860 0.66980 0.81090 -0.50000
H 	H 	0.39620 0.65270 0.77930 0.15000
H 	H 	0.41930 0.68600 0.82280 0.20400
C 	C 	0.34830 0.70940 0.80190 0.48100
O 	O 	0.35003 0.65295 0.90231 -0.17300
O 	O 	0.32688 0.58991 0.83361 -0.18900
O 	O 	0.41151 0.58767 0.86710 -0.17400
O 	O 	0.33631 0.73846 0.83771 -0.27000
O 	O 	0.32688 0.71135 0.75888 -0.56100
U 	U 	0.57193 0.15518 0.23820 0.00000
P 	P 	0.64320 0.13216 0.12415 0.45600
C 	C 	0.68910 0.11140 0.16980 -0.49700
H 	H 	0.72070 0.10380 0.15270 0.14700
H 	H 	0.67720 0.08070 0.18600 0.19900
C 	C 	0.69810 0.15170 0.20940 0.47900
O 	O 	0.59769 0.14997 0.15295 -0.17900
O 	O 	0.66639 0.17312 0.08991 -0.19100
O 	O 	0.63290 0.08849 0.08767 -0.17900
O 	O 	0.66229 0.16369 0.23846 -0.27100
O 	O 	0.74112 0.17312 0.21135 -0.56100
U 	U 	0.07193 0.65518 0.73820 0.00000
P 	P 	0.14320 0.63216 0.62415 0.45600
C 	C 	0.18910 0.61140 0.66980 -0.49900
H 	H 	0.22070 0.60380 0.65270 0.15000
H 	H 	0.17720 0.58070 0.68600 0.20300
C 	C 	0.19810 0.65170 0.70940 0.48100
O 	O 	0.09769 0.64997 0.65295 -0.18000
O 	O 	0.16639 0.67312 0.58991 -0.19000
O 	O 	0.13290 0.58849 0.58767 -0.17800
O 	O 	0.16229 0.66369 0.73846 -0.27100
O 	O 	0.24112 0.67312 0.71135 -0.56100
U 	U 	0.42807 0.15518 0.76180 0.00100
P 	P 	0.35680 0.13216 0.87585 0.45600
C 	C 	0.31090 0.11140 0.83020 -0.49800
H 	H 	0.27930 0.10380 0.84730 0.14900
H 	H 	0.32280 0.08070 0.81400 0.20000
C 	C 	0.30190 0.15170 0.79060 0.48000
O 	O 	0.40231 0.14997 0.84705 -0.17700
O 	O 	0.33361 0.17312 0.91009 -0.18300
O 	O 	0.36710 0.08849 0.91233 -0.17200
O 	O 	0.33771 0.16369 0.76154 -0.27100
O 	O 	0.25888 0.17312 0.78865 -0.56100
U 	U 	0.92807 0.65518 0.26180 0.01100
P 	P 	0.85680 0.63216 0.37585 0.45700
C 	C 	0.81090 0.61140 0.33020 -0.50000
H 	H 	0.77930 0.60380 0.34730 0.15000
H 	H 	0.82280 0.58070 0.31400 0.20400
C 	C 	0.80190 0.65170 0.29060 0.48100
O 	O 	0.90231 0.64997 0.34705 -0.17300
O 	O 	0.83361 0.67312 0.41009 -0.18900
O 	O 	0.86710 0.58849 0.41233 -0.17400
O 	O 	0.83771 0.66369 0.26154 -0.27000
O 	O 	0.75888 0.67312 0.28865 -0.56100
U 	U 	0.57193 0.84482 0.76180 0.00300
P 	P 	0.64320 0.86784 0.87585 0.45800
C 	C 	0.68910 0.88860 0.83020 -0.50400
H 	H 	0.72070 0.89620 0.84730 0.15700
H 	H 	0.67720 0.91930 0.81400 0.20900
C 	C 	0.69810 0.84830 0.79060 0.48300
O 	O 	0.59769 0.85003 0.84705 -0.17600
O 	O 	0.66639 0.82688 0.91009 -0.18200
O 	O 	0.63290 0.91151 0.91233 -0.16400
O 	O 	0.66229 0.83631 0.76154 -0.27100
O 	O 	0.74112 0.82688 0.78865 -0.55900
U 	U 	0.07193 0.34482 0.26180 -0.00000
P 	P 	0.14320 0.36784 0.37585 0.45600
C 	C 	0.18910 0.38860 0.33020 -0.49900
H 	H 	0.22070 0.39620 0.34730 0.15000
H 	H 	0.17720 0.41930 0.31400 0.20300
C 	C 	0.19810 0.34830 0.29060 0.48100
O 	O 	0.09769 0.35003 0.34705 -0.18000
O 	O 	0.16639 0.32688 0.41009 -0.19000
O 	O 	0.13290 0.41151 0.41233 -0.17800
O 	O 	0.16229 0.33631 0.26154 -0.27100
O 	O 	0.24112 0.32688 0.28865 -0.56100
U 	U 	0.42807 0.84482 0.23820 0.00300
P 	P 	0.35680 0.86784 0.12415 0.45700
C 	C 	0.31090 0.88860 0.16980 -0.50200
H 	H 	0.27930 0.89620 0.15270 0.15200
H 	H 	0.32280 0.91930 0.18600 0.20800
C 	C 	0.30190 0.84830 0.20940 0.48200
O 	O 	0.40231 0.85003 0.15295 -0.17800
O 	O 	0.33361 0.82688 0.08991 -0.19100
O 	O 	0.36710 0.91151 0.08767 -0.17200
O 	O 	0.33771 0.83631 0.23846 -0.27100
O 	O 	0.25888 0.82688 0.21135 -0.56100
U 	U 	0.92807 0.34482 0.73820 0.01100
P 	P 	0.85680 0.36784 0.62415 0.45700
C 	C 	0.81090 0.38860 0.66980 -0.50000
H 	H 	0.77930 0.39620 0.65270 0.15000
H 	H 	0.82280 0.41930 0.68600 0.20400
C 	C 	0.80190 0.34830 0.70940 0.48100
O 	O 	0.90231 0.35003 0.65295 -0.17300
O 	O 	0.83361 0.32688 0.58991 -0.18900
O 	O 	0.86710 0.41151 0.58767 -0.17400
O 	O 	0.83771 0.33631 0.73846 -0.27000
O 	O 	0.75888 0.32688 0.71135 -0.56100
U 	U 	0.76180 0.42807 0.84482 0.00300
P 	P 	0.87585 0.35680 0.86784 0.45800
C 	C 	0.83020 0.31090 0.88860 -0.50300
H 	H 	0.84730 0.27930 0.89620 0.15600
H 	H 	0.81400 0.32280 0.91930 0.20900
C 	C 	0.79060 0.30190 0.84830 0.48300
O 	O 	0.84705 0.40231 0.85003 -0.17600
O 	O 	0.91009 0.33361 0.82688 -0.18200
O 	O 	0.91233 0.36710 0.91151 -0.16400
O 	O 	0.76154 0.33771 0.83631 -0.27100
O 	O 	0.78865 0.25888 0.82688 -0.56000
U 	U 	0.26180 0.92807 0.34482 0.01000
P 	P 	0.37585 0.85680 0.36784 0.45700
C 	C 	0.33020 0.81090 0.38860 -0.50000
H 	H 	0.34730 0.77930 0.39620 0.15000
H 	H 	0.31400 0.82280 0.41930 0.20400
C 	C 	0.29060 0.80190 0.34830 0.48100
O 	O 	0.34705 0.90231 0.35003 -0.17300
O 	O 	0.41009 0.83361 0.32688 -0.18900
O 	O 	0.41233 0.86710 0.41151 -0.17400
O 	O 	0.26154 0.83771 0.33631 -0.27000
O 	O 	0.28865 0.75888 0.32688 -0.56100
U 	U 	0.23820 0.57193 0.84482 0.00300
P 	P 	0.12415 0.64320 0.86784 0.45700
C 	C 	0.16980 0.68910 0.88860 -0.50200
H 	H 	0.15270 0.72070 0.89620 0.15400
H 	H 	0.18600 0.67720 0.91930 0.20800
C 	C 	0.20940 0.69810 0.84830 0.48300
O 	O 	0.15295 0.59769 0.85003 -0.17800
O 	O 	0.08991 0.66639 0.82688 -0.19000
O 	O 	0.08767 0.63290 0.91151 -0.17200
O 	O 	0.23846 0.66229 0.83631 -0.27100
O 	O 	0.21135 0.74112 0.82688 -0.56000
U 	U 	0.73820 0.07193 0.34482 -0.00000
P 	P 	0.62415 0.14320 0.36784 0.45600
C 	C 	0.66980 0.18910 0.38860 -0.49900
H 	H 	0.65270 0.22070 0.39620 0.15000
H 	H 	0.68600 0.17720 0.41930 0.20300
C 	C 	0.70940 0.19810 0.34830 0.48100
O 	O 	0.65295 0.09769 0.35003 -0.18000
O 	O 	0.58991 0.16639 0.32688 -0.19000
O 	O 	0.58767 0.13290 0.41151 -0.17800
O 	O 	0.73846 0.16229 0.33631 -0.27100
O 	O 	0.71135 0.24112 0.32688 -0.56100
U 	U 	0.23820 0.42807 0.15518 0.00000
P 	P 	0.12415 0.35680 0.13216 0.45500
C 	C 	0.16980 0.31090 0.11140 -0.49700
H 	H 	0.15270 0.27930 0.10380 0.14600
H 	H 	0.18600 0.32280 0.08070 0.19900
C 	C 	0.20940 0.30190 0.15170 0.47900
O 	O 	0.15295 0.40231 0.14997 -0.17900
O 	O 	0.08991 0.33361 0.17312 -0.19100
O 	O 	0.08767 0.36710 0.08849 -0.18000
O 	O 	0.23846 0.33771 0.16369 -0.27100
O 	O 	0.21135 0.25888 0.17312 -0.56100
U 	U 	0.73820 0.92807 0.65518 0.01100
P 	P 	0.62415 0.85680 0.63216 0.45700
C 	C 	0.66980 0.81090 0.61140 -0.50000
H 	H 	0.65270 0.77930 0.60380 0.15000
H 	H 	0.68600 0.82280 0.58070 0.20400
C 	C 	0.70940 0.80190 0.65170 0.48100
O 	O 	0.65295 0.90231 0.64997 -0.17200
O 	O 	0.58991 0.83361 0.67312 -0.18900
O 	O 	0.58767 0.86710 0.58849 -0.17400
O 	O 	0.73846 0.83771 0.66369 -0.27000
O 	O 	0.71135 0.75888 0.67312 -0.56100
U 	U 	0.76180 0.57193 0.15518 0.00100
P 	P 	0.87585 0.64320 0.13216 0.45600
C 	C 	0.83020 0.68910 0.11140 -0.49800
H 	H 	0.84730 0.72070 0.10380 0.15000
H 	H 	0.81400 0.67720 0.08070 0.20000
C 	C 	0.79060 0.69810 0.15170 0.48000
O 	O 	0.84705 0.59769 0.14997 -0.17800
O 	O 	0.91009 0.66639 0.17312 -0.18300
O 	O 	0.91233 0.63290 0.08849 -0.17100
O 	O 	0.76154 0.66229 0.16369 -0.27100
O 	O 	0.78865 0.74112 0.17312 -0.56000
U 	U 	0.26180 0.07193 0.65518 -0.00000
P 	P 	0.37585 0.14320 0.63216 0.45600
C 	C 	0.33020 0.18910 0.61140 -0.49900
H 	H 	0.34730 0.22070 0.60380 0.15000
H 	H 	0.31400 0.17720 0.58070 0.20300
C 	C 	0.29060 0.19810 0.65170 0.48100
O 	O 	0.34705 0.09769 0.64997 -0.18000
O 	O 	0.41009 0.16639 0.67312 -0.19000
O 	O 	0.41233 0.13290 0.58849 -0.17800
O 	O 	0.26154 0.16229 0.66369 -0.27100
O 	O 	0.28865 0.24112 0.67312 -0.56100
U 	U 	0.84482 0.76180 0.42807 0.00300
P 	P 	0.86784 0.87585 0.35680 0.45800
C 	C 	0.88860 0.83020 0.31090 -0.50300
H 	H 	0.89620 0.84730 0.27930 0.15600
H 	H 	0.91930 0.81400 0.32280 0.20900
C 	C 	0.84830 0.79060 0.30190 0.48300
O 	O 	0.85003 0.84705 0.40231 -0.17600
O 	O 	0.82688 0.91009 0.33361 -0.18200
O 	O 	0.91151 0.91233 0.36710 -0.16400
O 	O 	0.83631 0.76154 0.33771 -0.27100
O 	O 	0.82688 0.78865 0.25888 -0.56000
U 	U 	0.34482 0.26180 0.92807 0.01000
P 	P 	0.36784 0.37585 0.85680 0.45700
C 	C 	0.38860 0.33020 0.81090 -0.50000
H 	H 	0.39620 0.34730 0.77930 0.15000
H 	H 	0.41930 0.31400 0.82280 0.20400
C 	C 	0.34830 0.29060 0.80190 0.48100
O 	O 	0.35003 0.34705 0.90231 -0.17300
O 	O 	0.32688 0.41009 0.83361 -0.18900
O 	O 	0.41151 0.41233 0.86710 -0.17400
O 	O 	0.33631 0.26154 0.83771 -0.27000
O 	O 	0.32688 0.28865 0.75888 -0.56100
U 	U 	0.84482 0.23820 0.57193 0.00300
P 	P 	0.86784 0.12415 0.64320 0.45700
C 	C 	0.88860 0.16980 0.68910 -0.50200
H 	H 	0.89620 0.15270 0.72070 0.15400
H 	H 	0.91930 0.18600 0.67720 0.20800
C 	C 	0.84830 0.20940 0.69810 0.48300
O 	O 	0.85003 0.15295 0.59769 -0.17800
O 	O 	0.82688 0.08991 0.66639 -0.19000
O 	O 	0.91151 0.08767 0.63290 -0.17200
O 	O 	0.83631 0.23846 0.66229 -0.27100
O 	O 	0.82688 0.21135 0.74112 -0.56000
U 	U 	0.34482 0.73820 0.07193 -0.00000
P 	P 	0.36784 0.62415 0.14320 0.45600
C 	C 	0.38860 0.66980 0.18910 -0.49900
H 	H 	0.39620 0.65270 0.22070 0.15000
H 	H 	0.41930 0.68600 0.17720 0.20300
C 	C 	0.34830 0.70940 0.19810 0.48100
O 	O 	0.35003 0.65295 0.09769 -0.18000
O 	O 	0.32688 0.58991 0.16639 -0.19000
O 	O 	0.41151 0.58767 0.13290 -0.17800
O 	O 	0.33631 0.73846 0.16229 -0.27100
O 	O 	0.32688 0.71135 0.24112 -0.56100
U 	U 	0.15518 0.23820 0.42807 0.00000
P 	P 	0.13216 0.12415 0.35680 0.45500
C 	C 	0.11140 0.16980 0.31090 -0.49700
H 	H 	0.10380 0.15270 0.27930 0.14600
H 	H 	0.08070 0.18600 0.32280 0.19900
C 	C 	0.15170 0.20940 0.30190 0.47900
O 	O 	0.14997 0.15295 0.40231 -0.17900
O 	O 	0.17312 0.08991 0.33361 -0.19100
O 	O 	0.08849 0.08767 0.36710 -0.18000
O 	O 	0.16369 0.23846 0.33771 -0.27100
O 	O 	0.17312 0.21135 0.25888 -0.56100
U 	U 	0.65518 0.73820 0.92807 0.01100
P 	P 	0.63216 0.62415 0.85680 0.45700
C 	C 	0.61140 0.66980 0.81090 -0.50000
H 	H 	0.60380 0.65270 0.77930 0.15000
H 	H 	0.58070 0.68600 0.82280 0.20400
C 	C 	0.65170 0.70940 0.80190 0.48100
O 	O 	0.64997 0.65295 0.90231 -0.17200
O 	O 	0.67312 0.58991 0.83361 -0.18900
O 	O 	0.58849 0.58767 0.86710 -0.17400
O 	O 	0.66369 0.73846 0.83771 -0.27000
O 	O 	0.67312 0.71135 0.75888 -0.56100
U 	U 	0.15518 0.76180 0.57193 0.00100
P 	P 	0.13216 0.87585 0.64320 0.45600
C 	C 	0.11140 0.83020 0.68910 -0.49800
H 	H 	0.10380 0.84730 0.72070 0.15000
H 	H 	0.08070 0.81400 0.67720 0.20000
C 	C 	0.15170 0.79060 0.69810 0.48000
O 	O 	0.14997 0.84705 0.59769 -0.17800
O 	O 	0.17312 0.91009 0.66639 -0.18300
O 	O 	0.08849 0.91233 0.63290 -0.17100
O 	O 	0.16369 0.76154 0.66229 -0.27100
O 	O 	0.17312 0.78865 0.74112 -0.56000
U 	U 	0.65518 0.26180 0.07193 -0.00000
P 	P 	0.63216 0.37585 0.14320 0.45600
C 	C 	0.61140 0.33020 0.18910 -0.49900
H 	H 	0.60380 0.34730 0.22070 0.15000
H 	H 	0.58070 0.31400 0.17720 0.20300
C 	C 	0.65170 0.29060 0.19810 0.48100
O 	O 	0.64997 0.34705 0.09769 -0.18000
O 	O 	0.67312 0.41009 0.16639 -0.19000
O 	O 	0.58849 0.41233 0.13290 -0.17800
O 	O 	0.66369 0.26154 0.16229 -0.27100
O 	O 	0.67312 0.28865 0.24112 -0.56100
U 	U 	0.42807 0.84482 0.76180 0.00300
P 	P 	0.35680 0.86784 0.87585 0.45800
C 	C 	0.31090 0.88860 0.83020 -0.50300
H 	H 	0.27930 0.89620 0.84730 0.15600
H 	H 	0.32280 0.91930 0.81400 0.20900
C 	C 	0.30190 0.84830 0.79060 0.48300
O 	O 	0.40231 0.85003 0.84705 -0.17600
O 	O 	0.33361 0.82688 0.91009 -0.18200
O 	O 	0.36710 0.91151 0.91233 -0.16400
O 	O 	0.33771 0.83631 0.76154 -0.27100
O 	O 	0.25888 0.82688 0.78865 -0.56000
U 	U 	0.92807 0.34482 0.26180 0.01000
P 	P 	0.85680 0.36784 0.37585 0.45700
C 	C 	0.81090 0.38860 0.33020 -0.50000
H 	H 	0.77930 0.39620 0.34730 0.15000
H 	H 	0.82280 0.41930 0.31400 0.20400
C 	C 	0.80190 0.34830 0.29060 0.48100
O 	O 	0.90231 0.35003 0.34705 -0.17300
O 	O 	0.83361 0.32688 0.41009 -0.18900
O 	O 	0.86710 0.41151 0.41233 -0.17400
O 	O 	0.83771 0.33631 0.26154 -0.27000
O 	O 	0.75888 0.32688 0.28865 -0.56100
U 	U 	0.57193 0.84482 0.23820 0.00300
P 	P 	0.64320 0.86784 0.12415 0.45700
C 	C 	0.68910 0.88860 0.16980 -0.50200
H 	H 	0.72070 0.89620 0.15270 0.15400
H 	H 	0.67720 0.91930 0.18600 0.20800
C 	C 	0.69810 0.84830 0.20940 0.48300
O 	O 	0.59769 0.85003 0.15295 -0.17800
O 	O 	0.66639 0.82688 0.08991 -0.19000
O 	O 	0.63290 0.91151 0.08767 -0.17200
O 	O 	0.66229 0.83631 0.23846 -0.27100
O 	O 	0.74112 0.82688 0.21135 -0.56000
U 	U 	0.07193 0.34482 0.73820 -0.00000
P 	P 	0.14320 0.36784 0.62415 0.45600
C 	C 	0.18910 0.38860 0.66980 -0.49900
H 	H 	0.22070 0.39620 0.65270 0.15000
H 	H 	0.17720 0.41930 0.68600 0.20300
C 	C 	0.19810 0.34830 0.70940 0.48100
O 	O 	0.09769 0.35003 0.65295 -0.18000
O 	O 	0.16639 0.32688 0.58991 -0.19000
O 	O 	0.13290 0.41151 0.58767 -0.17800
O 	O 	0.16229 0.33631 0.73846 -0.27100
O 	O 	0.24112 0.32688 0.71135 -0.56100
U 	U 	0.42807 0.15518 0.23820 0.00000
P 	P 	0.35680 0.13216 0.12415 0.45500
C 	C 	0.31090 0.11140 0.16980 -0.49700
H 	H 	0.27930 0.10380 0.15270 0.14600
H 	H 	0.32280 0.08070 0.18600 0.19900
C 	C 	0.30190 0.15170 0.20940 0.47900
O 	O 	0.40231 0.14997 0.15295 -0.17900
O 	O 	0.33361 0.17312 0.08991 -0.19100
O 	O 	0.36710 0.08849 0.08767 -0.18000
O 	O 	0.33771 0.16369 0.23846 -0.27100
O 	O 	0.25888 0.17312 0.21135 -0.56100
U 	U 	0.92807 0.65518 0.73820 0.01100
P 	P 	0.85680 0.63216 0.62415 0.45700
C 	C 	0.81090 0.61140 0.66980 -0.50000
H 	H 	0.77930 0.60380 0.65270 0.15000
H 	H 	0.82280 0.58070 0.68600 0.20400
C 	C 	0.80190 0.65170 0.70940 0.48100
O 	O 	0.90231 0.64997 0.65295 -0.17200
O 	O 	0.83361 0.67312 0.58991 -0.18900
O 	O 	0.86710 0.58849 0.58767 -0.17400
O 	O 	0.83771 0.66369 0.73846 -0.27000
O 	O 	0.75888 0.67312 0.71135 -0.56100
U 	U 	0.57193 0.15518 0.76180 0.00100
P 	P 	0.64320 0.13216 0.87585 0.45600
C 	C 	0.68910 0.11140 0.83020 -0.49800
H 	H 	0.72070 0.10380 0.84730 0.15000
H 	H 	0.67720 0.08070 0.81400 0.20000
C 	C 	0.69810 0.15170 0.79060 0.48000
O 	O 	0.59769 0.14997 0.84705 -0.17800
O 	O 	0.66639 0.17312 0.91009 -0.18300
O 	O 	0.63290 0.08849 0.91233 -0.17100
O 	O 	0.66229 0.16369 0.76154 -0.27100
O 	O 	0.74112 0.17312 0.78865 -0.56000
U 	U 	0.07193 0.65518 0.26180 -0.00000
P 	P 	0.14320 0.63216 0.37585 0.45600
C 	C 	0.18910 0.61140 0.33020 -0.49900
H 	H 	0.22070 0.60380 0.34730 0.15000
H 	H 	0.17720 0.58070 0.31400 0.20300
C 	C 	0.19810 0.65170 0.29060 0.48100
O 	O 	0.09769 0.64997 0.34705 -0.18000
O 	O 	0.16639 0.67312 0.41009 -0.19000
O 	O 	0.13290 0.58849 0.41233 -0.17800
O 	O 	0.16229 0.66369 0.26154 -0.27100
O 	O 	0.24112 0.67312 0.28865 -0.56100
U 	U 	0.06922 0.63677 -0.00000 -0.02100
U 	U 	0.56922 0.13677 0.50000 -0.00900
U 	U 	0.93078 0.36323 -0.00000 -0.01100
U 	U 	0.43078 0.86323 0.50000 -0.00600
U 	U 	0.93078 0.63677 -0.00000 -0.01100
U 	U 	0.43078 0.13677 0.50000 -0.00900
U 	U 	0.06922 0.36323 -0.00000 -0.02200
U 	U 	0.56922 0.86323 0.50000 -0.00600
U 	U 	0.00000 0.06922 0.63677 -0.02100
U 	U 	0.50000 0.56922 0.13677 -0.00900
U 	U 	-0.00000 0.93078 0.36323 -0.01100
U 	U 	0.50000 0.43078 0.86323 -0.00600
U 	U 	0.00000 0.93078 0.63677 -0.01100
U 	U 	0.50000 0.43078 0.13677 -0.00900
U 	U 	0.00000 0.06922 0.36323 -0.02200
U 	U 	0.50000 0.56922 0.86323 -0.00600
U 	U 	0.63677 0.00000 0.06922 -0.02100
U 	U 	0.13677 0.50000 0.56922 -0.00900
U 	U 	0.36323 0.00000 0.93078 -0.01100
U 	U 	0.86323 0.50000 0.43078 -0.00600
U 	U 	0.63677 0.00000 0.93078 -0.01100
U 	U 	0.13677 0.50000 0.43078 -0.00900
U 	U 	0.36323 0.00000 0.06922 -0.02200
U 	U 	0.86323 0.50000 0.56922 -0.00600
U 	U 	-0.00000 0.65332 0.13184 0.00300
O 	O 	-0.00000 0.58430 0.13760 -0.23400
O 	O 	0.00000 0.65190 0.95160 -0.05400
O 	O 	-0.00000 0.65520 0.21460 -0.07100
U 	U 	0.50000 0.15332 0.63184 0.00900
O 	O 	0.50000 0.08430 0.63760 -0.22800
O 	O 	0.50000 0.15190 0.45160 -0.05700
O 	O 	0.50000 0.15520 0.71460 -0.06300
U 	U 	-0.00000 0.34668 0.13184 0.00200
O 	O 	0.00000 0.41570 0.13760 -0.23300
O 	O 	-0.00000 0.34810 0.95160 -0.05400
O 	O 	-0.00000 0.34480 0.21460 -0.07100
U 	U 	0.50000 0.84668 0.63184 0.00900
O 	O 	0.50000 0.91570 0.63760 -0.21700
O 	O 	0.50000 0.84810 0.45160 -0.05500
O 	O 	0.50000 0.84480 0.71460 -0.06100
U 	U 	0.00000 0.65332 0.86816 0.00400
O 	O 	-0.00000 0.58430 0.86240 -0.23200
O 	O 	-0.00000 0.65190 0.04840 -0.07000
O 	O 	0.00000 0.65520 0.78540 -0.07100
U 	U 	0.50000 0.15332 0.36816 0.00900
O 	O 	0.50000 0.08430 0.36240 -0.22800
O 	O 	0.50000 0.15190 0.54840 -0.05700
O 	O 	0.50000 0.15520 0.28540 -0.06300
U 	U 	-0.00000 0.34668 0.86816 0.00400
O 	O 	0.00000 0.41570 0.86240 -0.23200
O 	O 	-0.00000 0.34810 0.04840 -0.07100
O 	O 	-0.00000 0.34480 0.78540 -0.07100
U 	U 	0.50000 0.84668 0.36816 0.00900
O 	O 	0.50000 0.91570 0.36240 -0.21700
O 	O 	0.50000 0.84810 0.54840 -0.05500
O 	O 	0.50000 0.84480 0.28540 -0.06100
U 	U 	0.13184 0.00000 0.65332 0.00300
O 	O 	0.13760 0.00000 0.58430 -0.23400
O 	O 	0.95160 0.00000 0.65190 -0.05400
O 	O 	0.21460 -0.00000 0.65520 -0.07100
U 	U 	0.63184 0.50000 0.15332 0.00900
O 	O 	0.63760 0.50000 0.08430 -0.22800
O 	O 	0.45160 0.50000 0.15190 -0.05700
O 	O 	0.71460 0.50000 0.15520 -0.06300
U 	U 	0.13184 0.00000 0.34668 0.00200
O 	O 	0.13760 0.00000 0.41570 -0.23300
O 	O 	0.95160 0.00000 0.34810 -0.05400
O 	O 	0.21460 -0.00000 0.34480 -0.07100
U 	U 	0.63184 0.50000 0.84668 0.00900
O 	O 	0.63760 0.50000 0.91570 -0.21700
O 	O 	0.45160 0.50000 0.84810 -0.05500
O 	O 	0.71460 0.50000 0.84480 -0.06100
U 	U 	0.86816 0.00000 0.65332 0.00400
O 	O 	0.86240 0.00000 0.58430 -0.23200
O 	O 	0.04840 0.00000 0.65190 -0.07000
O 	O 	0.78540 -0.00000 0.65520 -0.07100
U 	U 	0.36816 0.50000 0.15332 0.00900
O 	O 	0.36240 0.50000 0.08430 -0.22800
O 	O 	0.54840 0.50000 0.15190 -0.05700
O 	O 	0.28540 0.50000 0.15520 -0.06300
U 	U 	0.86816 0.00000 0.34668 0.00400
O 	O 	0.86240 0.00000 0.41570 -0.23200
O 	O 	0.04840 0.00000 0.34810 -0.07100
O 	O 	0.78540 -0.00000 0.34480 -0.07100
U 	U 	0.36816 0.50000 0.84668 0.00900
O 	O 	0.36240 0.50000 0.91570 -0.21700
O 	O 	0.54840 0.50000 0.84810 -0.05500
O 	O 	0.28540 0.50000 0.84480 -0.06100
U 	U 	0.65332 0.13184 -0.00000 0.00300
O 	O 	0.58430 0.13760 -0.00000 -0.23400
O 	O 	0.65190 0.95160 -0.00000 -0.05400
O 	O 	0.65520 0.21460 -0.00000 -0.07100
U 	U 	0.15332 0.63184 0.50000 0.00900
O 	O 	0.08430 0.63760 0.50000 -0.22800
O 	O 	0.15190 0.45160 0.50000 -0.05700
O 	O 	0.15520 0.71460 0.50000 -0.06300
U 	U 	0.34668 0.13184 -0.00000 0.00200
O 	O 	0.41570 0.13760 -0.00000 -0.23300
O 	O 	0.34810 0.95160 -0.00000 -0.05400
O 	O 	0.34480 0.21460 -0.00000 -0.07100
U 	U 	0.84668 0.63184 0.50000 0.00900
O 	O 	0.91570 0.63760 0.50000 -0.21700
O 	O 	0.84810 0.45160 0.50000 -0.05500
O 	O 	0.84480 0.71460 0.50000 -0.06100
U 	U 	0.65332 0.86816 -0.00000 0.00400
O 	O 	0.58430 0.86240 -0.00000 -0.23200
O 	O 	0.65190 0.04840 -0.00000 -0.07000
O 	O 	0.65520 0.78540 -0.00000 -0.07100
U 	U 	0.15332 0.36816 0.50000 0.00900
O 	O 	0.08430 0.36240 0.50000 -0.22800
O 	O 	0.15190 0.54840 0.50000 -0.05700
O 	O 	0.15520 0.28540 0.50000 -0.06300
U 	U 	0.34668 0.86816 -0.00000 0.00400
O 	O 	0.41570 0.86240 -0.00000 -0.23200
O 	O 	0.34810 0.04840 -0.00000 -0.07100
O 	O 	0.34480 0.78540 -0.00000 -0.07100
U 	U 	0.84668 0.36816 0.50000 0.00900
O 	O 	0.91570 0.36240 0.50000 -0.21700
O 	O 	0.84810 0.54840 0.50000 -0.05500
O 	O 	0.84480 0.28540 0.50000 -0.06100
Cd	Cd	-0.00000 0.50000 0.14387 1.21900
Cd	Cd	0.50000 0.00000 0.64387 1.21900
Cd	Cd	-0.00000 0.50000 0.85613 1.21900
Cd	Cd	0.50000 0.00000 0.35613 1.21900
Cd	Cd	0.14387 0.00000 0.50000 1.21900
Cd	Cd	0.64387 0.50000 -0.00000 1.21900
Cd	Cd	0.85613 0.00000 0.50000 1.21900
Cd	Cd	0.35613 0.50000 -0.00000 1.21900
Cd	Cd	0.50000 0.14387 -0.00000 1.21900
Cd	Cd	0.00000 0.64387 0.50000 1.21900
Cd	Cd	0.50000 0.85613 -0.00000 1.21900
Cd	Cd	0.00000 0.35613 0.50000 1.21900
Cd	Cd	0.17908 0.82092 0.17908 1.15900
Cd	Cd	0.67908 0.32092 0.67908 1.16000
Cd	Cd	0.82092 0.17908 0.17908 1.15900
Cd	Cd	0.32092 0.67908 0.67908 1.16000
Cd	Cd	0.82092 0.82092 0.82092 1.16300
Cd	Cd	0.32092 0.32092 0.32092 1.16000
Cd	Cd	0.17908 0.17908 0.82092 1.15900
Cd	Cd	0.67908 0.67908 0.32092 1.16000
Cd	Cd	0.82092 0.17908 0.82092 1.16100
Cd	Cd	0.32092 0.67908 0.32092 1.16000
Cd	Cd	0.17908 0.82092 0.82092 1.16100
Cd	Cd	0.67908 0.32092 0.32092 1.16000
Cd	Cd	0.17908 0.17908 0.17908 1.15700
Cd	Cd	0.67908 0.67908 0.67908 1.16000
Cd	Cd	0.82092 0.82092 0.17908 1.16100
Cd	Cd	0.32092 0.32092 0.67908 1.16000
Cd	Cd	0.25000 0.75000 0.25000 1.25500
Cd	Cd	0.75000 0.25000 0.25000 1.25500
Cd	Cd	0.75000 0.75000 0.75000 1.25500
Cd	Cd	0.25000 0.25000 0.75000 1.25500
Cd	Cd	0.25000 0.75000 0.75000 1.25500
Cd	Cd	0.75000 0.75000 0.25000 1.25500
Cd	Cd	0.75000 0.25000 0.75000 1.25500
Cd	Cd	0.25000 0.25000 0.25000 1.25500
O 	O 	0.18780 0.50000 0.14350 -0.06000
O 	O 	0.94830 0.50000 0.07410 -0.08900
O 	O 	0.07260 0.50000 0.90500 -0.13000
O 	O 	0.68780 0.00000 0.64350 -0.06800
O 	O 	0.44830 0.00000 0.57410 -0.10000
O 	O 	0.57260 0.00000 0.40500 -0.13700
O 	O 	0.81220 0.50000 0.14350 -0.05800
O 	O 	0.05170 0.50000 0.07410 -0.10700
O 	O 	0.92740 0.50000 0.90500 -0.13200
O 	O 	0.31220 0.00000 0.64350 -0.06800
O 	O 	0.55170 0.00000 0.57410 -0.10000
O 	O 	0.42740 0.00000 0.40500 -0.13700
O 	O 	0.81220 0.50000 0.85650 -0.05500
O 	O 	0.05170 0.50000 0.92590 -0.09500
O 	O 	0.92740 0.50000 0.09500 -0.13000
O 	O 	0.31220 0.00000 0.35650 -0.06800
O 	O 	0.55170 -0.00000 0.42590 -0.10000
O 	O 	0.42740 0.00000 0.59500 -0.13700
O 	O 	0.18780 0.50000 0.85650 -0.05600
O 	O 	0.94830 0.50000 0.92590 -0.07800
O 	O 	0.07260 0.50000 0.09500 -0.12900
O 	O 	0.68780 0.00000 0.35650 -0.06800
O 	O 	0.44830 -0.00000 0.42590 -0.10000
O 	O 	0.57260 0.00000 0.59500 -0.13700
O 	O 	0.14350 0.18780 0.50000 -0.06000
O 	O 	0.07410 0.94830 0.50000 -0.08900
O 	O 	0.90500 0.07260 0.50000 -0.13000
O 	O 	0.64350 0.68780 -0.00000 -0.06800
O 	O 	0.57410 0.44830 -0.00000 -0.10000
O 	O 	0.40500 0.57260 -0.00000 -0.13700
O 	O 	0.14350 0.81220 0.50000 -0.05800
O 	O 	0.07410 0.05170 0.50000 -0.10700
O 	O 	0.90500 0.92740 0.50000 -0.13200
O 	O 	0.64350 0.31220 -0.00000 -0.06800
O 	O 	0.57410 0.55170 -0.00000 -0.10000
O 	O 	0.40500 0.42740 -0.00000 -0.13700
O 	O 	0.85650 0.81220 0.50000 -0.05500
O 	O 	0.92590 0.05170 0.50000 -0.09500
O 	O 	0.09500 0.92740 0.50000 -0.13000
O 	O 	0.35650 0.31220 -0.00000 -0.06800
O 	O 	0.42590 0.55170 -0.00000 -0.10000
O 	O 	0.59500 0.42740 -0.00000 -0.13700
O 	O 	0.85650 0.18780 0.50000 -0.05600
O 	O 	0.92590 0.94830 0.50000 -0.07800
O 	O 	0.09500 0.07260 0.50000 -0.12900
O 	O 	0.35650 0.68780 -0.00000 -0.06800
O 	O 	0.42590 0.44830 -0.00000 -0.10000
O 	O 	0.59500 0.57260 -0.00000 -0.13700
O 	O 	0.50000 0.14350 0.18780 -0.06000
O 	O 	0.50000 0.07410 0.94830 -0.08900
O 	O 	0.50000 0.90500 0.07260 -0.13000
O 	O 	0.00000 0.64350 0.68780 -0.06800
O 	O 	0.00000 0.57410 0.44830 -0.10000
O 	O 	0.00000 0.40500 0.57260 -0.13700
O 	O 	0.50000 0.14350 0.81220 -0.05800
O 	O 	0.50000 0.07410 0.05170 -0.10700
O 	O 	0.50000 0.90500 0.92740 -0.13200
O 	O 	0.00000 0.64350 0.31220 -0.06800
O 	O 	-0.00000 0.57410 0.55170 -0.10000
O 	O 	0.00000 0.40500 0.42740 -0.13700
O 	O 	0.50000 0.85650 0.81220 -0.05500
O 	O 	0.50000 0.92590 0.05170 -0.09500
O 	O 	0.50000 0.09500 0.92740 -0.13000
O 	O 	0.00000 0.35650 0.31220 -0.06800
O 	O 	0.00000 0.42590 0.55170 -0.10000
O 	O 	0.00000 0.59500 0.42740 -0.13700
O 	O 	0.50000 0.85650 0.18780 -0.05600
O 	O 	0.50000 0.92590 0.94830 -0.07800
O 	O 	0.50000 0.09500 0.07260 -0.12900
O 	O 	0.00000 0.35650 0.68780 -0.06800
O 	O 	0.00000 0.42590 0.44830 -0.10000
O 	O 	-0.00000 0.59500 0.57260 -0.13700
