data_crystal

_cell_length_a 27.53400
_cell_length_b 21.63000
_cell_length_c 19.29680
_cell_angle_alpha 90.00000
_cell_angle_beta  120.52700
_cell_angle_gamma 90.00000

_symmetry_space_group_name_	'P 1'
_symmetry_space_group_name_H-M	'P 1'

loop_
_symmetry_equiv_pos_as_xyz
  x,y,z

loop_
_atom_site_label
_atom_site_type_symbol
_atom_site_fract_x
_atom_site_fract_y
_atom_site_fract_z
_atom_site_charge
Cu	Cu	0.12088 0.17335 0.13109 0.89800
Cu	Cu	0.21369 0.11178 0.16528 0.90600
Cu	Cu	0.18976 0.18203 0.41258 0.94600
K 	K 	0.08638 0.24318 0.31557 0.66300
C 	C 	0.10523 0.99340 0.25180 0.23800
C 	C 	0.15084 0.03010 0.29790 -0.17100
C 	C 	0.18410 0.01720 0.38000 0.02500
C 	C 	0.16940 0.96690 0.41280 -0.12000
H 	H 	0.19190 0.95690 0.46690 0.09400
C 	C 	0.12200 0.93310 0.36440 0.09400
H 	H 	0.11190 0.90080 0.38630 0.00700
C 	C 	0.08840 0.94650 0.28250 -0.22500
H 	H 	0.05560 0.92430 0.24990 0.11600
C 	C 	0.02127 0.01080 0.12680 0.12800
C 	C 	0.99810 0.06210 0.14230 -0.04300
H 	H 	0.02080 0.08860 0.18450 0.05400
C 	C 	0.94030 0.07380 0.09400 -0.09300
C 	C 	0.90720 0.03300 0.03160 0.02700
H 	H 	0.86860 0.03980 0.99960 0.04500
C 	C 	0.93170 0.98216 0.01720 -0.07000
C 	C 	0.98825 0.97120 0.06490 -0.05200
H 	H 	0.00430 0.93690 0.05530 0.07100
C 	C 	0.16488 0.07860 0.25540 0.40000
C 	C 	0.23330 0.05630 0.43510 0.30900
C 	C 	0.89484 0.93760 0.95200 0.36800
C 	C 	0.91400 0.12820 0.10880 0.40500
C 	C 	0.23040 0.17480 0.77760 0.23900
C 	C 	0.24670 0.20800 0.73130 -0.16000
C 	C 	0.23410 0.18370 0.65590 0.01900
C 	C 	0.20500 0.12830 0.63100 -0.11100
H 	H 	0.19620 0.11210 0.58120 0.09000
C 	C 	0.18880 0.09600 0.67810 0.08400
H 	H 	0.16920 0.05900 0.65980 0.02400
C 	C 	0.20170 0.11920 0.75230 -0.21300
H 	H 	0.19140 0.09790 0.78460 0.12700
C 	C 	0.20800 0.21570 0.87110 0.22600
C 	C 	0.16780 0.25900 0.82240 -0.16800
H 	H 	0.16620 0.27260 0.77550 0.12000
C 	C 	0.13120 0.28140 0.84290 0.00400
C 	C 	0.13230 0.26030 0.91300 -0.05600
H 	H 	0.10670 0.27560 0.92670 0.07700
C 	C 	0.17100 0.21740 0.95990 -0.00100
C 	C 	0.20960 0.19470 0.93980 -0.15900
H 	H 	0.23630 0.16550 0.97240 0.11600
C 	C 	0.28030 0.26470 0.76700 0.40700
C 	C 	0.25200 0.21570 0.60500 0.31400
C 	C 	0.17240 0.19160 0.03290 0.33000
C 	C 	0.09100 0.32960 0.79280 0.29300
O 	O 	0.13122 0.12351 0.22513 -0.44400
O 	O 	0.20637 0.06743 0.24732 -0.40300
O 	O 	0.23407 0.11130 0.41462 -0.34000
O 	O 	0.27040 0.03370 0.49850 -0.24400
O 	O 	0.91978 0.89396 0.94036 -0.40900
O 	O 	0.84293 0.94637 0.91495 -0.40700
O 	O 	0.86144 0.12749 0.07580 -0.41900
O 	O 	0.94430 0.16940 0.14960 -0.42700
O 	O 	0.07854 0.00081 0.16801 -0.25100
O 	O 	0.25334 0.31297 0.76509 -0.39700
O 	O 	0.33287 0.25982 0.80109 -0.43700
O 	O 	0.26890 0.27054 0.62400 -0.37100
O 	O 	0.25140 0.18640 0.54880 -0.31500
O 	O 	0.21158 0.15571 0.07659 -0.40200
O 	O 	0.13196 0.20676 0.04355 -0.38900
O 	O 	0.05470 0.34850 0.81180 -0.39600
O 	O 	0.09360 0.35240 0.73630 -0.29100
O 	O 	0.24905 0.19544 0.85561 -0.27100
O 	O 	0.14400 0.25240 0.40330 -0.44600
Cu	Cu	0.62088 0.67335 0.13109 0.89800
Cu	Cu	0.71369 0.61178 0.16528 0.90600
Cu	Cu	0.68976 0.68203 0.41258 0.94500
K 	K 	0.58638 0.74318 0.31557 0.66300
C 	C 	0.60523 0.49340 0.25180 0.24700
C 	C 	0.65084 0.53010 0.29790 -0.17700
C 	C 	0.68410 0.51720 0.38000 0.02700
C 	C 	0.66940 0.46690 0.41280 -0.12500
H 	H 	0.69190 0.45690 0.46690 0.09500
C 	C 	0.62200 0.43310 0.36440 0.09800
H 	H 	0.61190 0.40080 0.38630 0.00500
C 	C 	0.58840 0.44650 0.28250 -0.23300
H 	H 	0.55560 0.42430 0.24990 0.12100
C 	C 	0.52127 0.51080 0.12680 0.20700
C 	C 	0.49810 0.56210 0.14230 -0.13000
H 	H 	0.52080 0.58860 0.18450 0.09100
C 	C 	0.44030 0.57380 0.09400 -0.04800
C 	C 	0.40720 0.53300 0.03160 -0.02200
H 	H 	0.36860 0.53980 0.99960 0.06300
C 	C 	0.43170 0.48216 0.01720 -0.02100
C 	C 	0.48825 0.47120 0.06490 -0.14200
H 	H 	0.50430 0.43690 0.05530 0.11000
C 	C 	0.66488 0.57860 0.25540 0.40200
C 	C 	0.73330 0.55630 0.43510 0.30800
C 	C 	0.39484 0.43760 0.95200 0.35000
C 	C 	0.41400 0.62820 0.10880 0.38700
C 	C 	0.73040 0.67480 0.77760 0.24000
C 	C 	0.74670 0.70800 0.73130 -0.16000
C 	C 	0.73410 0.68370 0.65590 0.01900
C 	C 	0.70500 0.62830 0.63100 -0.11000
H 	H 	0.69620 0.61210 0.58120 0.09100
C 	C 	0.68880 0.59600 0.67810 0.08400
H 	H 	0.66920 0.55900 0.65980 0.02500
C 	C 	0.70170 0.61920 0.75230 -0.21300
H 	H 	0.69140 0.59790 0.78460 0.12700
C 	C 	0.70800 0.71570 0.87110 0.22600
C 	C 	0.66780 0.75900 0.82240 -0.16900
H 	H 	0.66620 0.77260 0.77550 0.12100
C 	C 	0.63120 0.78140 0.84290 0.00600
C 	C 	0.63230 0.76030 0.91300 -0.05600
H 	H 	0.60670 0.77560 0.92670 0.07900
C 	C 	0.67100 0.71740 0.95990 0.00000
C 	C 	0.70960 0.69470 0.93980 -0.16000
H 	H 	0.73630 0.66550 0.97240 0.11600
C 	C 	0.78030 0.76470 0.76700 0.40700
C 	C 	0.75200 0.71570 0.60500 0.31400
C 	C 	0.67240 0.69160 0.03290 0.33000
C 	C 	0.59100 0.82960 0.79280 0.29300
O 	O 	0.63122 0.62351 0.22513 -0.44400
O 	O 	0.70637 0.56743 0.24732 -0.40300
O 	O 	0.73407 0.61130 0.41462 -0.33900
O 	O 	0.77040 0.53370 0.49850 -0.24300
O 	O 	0.41978 0.39396 0.94036 -0.40800
O 	O 	0.34293 0.44637 0.91495 -0.40300
O 	O 	0.36144 0.62749 0.07580 -0.41500
O 	O 	0.44430 0.66940 0.14960 -0.42600
O 	O 	0.57854 0.50081 0.16801 -0.27000
O 	O 	0.75334 0.81297 0.76509 -0.39700
O 	O 	0.83287 0.75982 0.80109 -0.43500
O 	O 	0.76890 0.77054 0.62400 -0.37100
O 	O 	0.75140 0.68640 0.54880 -0.31400
O 	O 	0.71158 0.65571 0.07659 -0.40200
O 	O 	0.63196 0.70676 0.04355 -0.38700
O 	O 	0.55470 0.84850 0.81180 -0.39200
O 	O 	0.59360 0.85240 0.73630 -0.28900
O 	O 	0.74905 0.69544 0.85561 -0.27100
O 	O 	0.64400 0.75240 0.40330 -0.44500
Cu	Cu	0.87912 0.17335 0.36891 0.89900
Cu	Cu	0.78631 0.11178 0.33472 0.90600
Cu	Cu	0.81024 0.18203 0.08742 0.94600
K 	K 	0.91362 0.24318 0.18443 0.66400
C 	C 	0.89477 0.99340 0.24820 0.25400
C 	C 	0.84916 0.03010 0.20210 -0.18000
C 	C 	0.81590 0.01720 0.12000 0.03000
C 	C 	0.83060 0.96690 0.08720 -0.12900
H 	H 	0.80810 0.95690 0.03310 0.09600
C 	C 	0.87800 0.93310 0.13560 0.10300
H 	H 	0.88810 0.90080 0.11370 0.00400
C 	C 	0.91160 0.94650 0.21750 -0.23900
H 	H 	0.94440 0.92430 0.25010 0.12600
C 	C 	0.97873 0.01080 0.37320 0.28200
C 	C 	0.00190 0.06210 0.35770 -0.21300
H 	H 	0.97920 0.08860 0.31550 0.12700
C 	C 	0.05970 0.07380 0.40600 -0.00600
C 	C 	0.09280 0.03300 0.46840 -0.06300
H 	H 	0.13140 0.03980 0.50040 0.07700
C 	C 	0.06830 0.98216 0.48280 0.02300
C 	C 	0.01175 0.97120 0.43510 -0.22900
H 	H 	0.99570 0.93690 0.44470 0.14700
C 	C 	0.83512 0.07860 0.24460 0.40300
C 	C 	0.76670 0.05630 0.06490 0.30800
C 	C 	0.10516 0.93760 0.54800 0.33400
C 	C 	0.08600 0.12820 0.39120 0.37000
C 	C 	0.76960 0.17480 0.72240 0.24000
C 	C 	0.75330 0.20800 0.76870 -0.16000
C 	C 	0.76590 0.18370 0.84410 0.01900
C 	C 	0.79500 0.12830 0.86900 -0.11100
H 	H 	0.80380 0.11210 0.91880 0.09100
C 	C 	0.81120 0.09600 0.82190 0.08400
H 	H 	0.83080 0.05900 0.84020 0.02500
C 	C 	0.79830 0.11920 0.74770 -0.21300
H 	H 	0.80860 0.09790 0.71540 0.12700
C 	C 	0.79200 0.21570 0.62890 0.22800
C 	C 	0.83220 0.25900 0.67760 -0.17000
H 	H 	0.83380 0.27260 0.72450 0.12200
C 	C 	0.86880 0.28140 0.65710 0.00800
C 	C 	0.86770 0.26030 0.58700 -0.05800
H 	H 	0.89330 0.27560 0.57330 0.08100
C 	C 	0.82900 0.21740 0.54010 0.00300
C 	C 	0.79040 0.19470 0.56020 -0.16200
H 	H 	0.76370 0.16550 0.52760 0.11700
C 	C 	0.71970 0.26470 0.73300 0.40700
C 	C 	0.74800 0.21570 0.89500 0.31400
C 	C 	0.82760 0.19160 0.46710 0.32800
C 	C 	0.90900 0.32960 0.70720 0.29100
O 	O 	0.86878 0.12351 0.27487 -0.44400
O 	O 	0.79363 0.06743 0.25268 -0.40400
O 	O 	0.76593 0.11130 0.08538 -0.33900
O 	O 	0.72960 0.03370 0.00150 -0.24300
O 	O 	0.08022 0.89396 0.55964 -0.40600
O 	O 	0.15707 0.94637 0.58505 -0.39900
O 	O 	0.13856 0.12749 0.42420 -0.41100
O 	O 	0.05570 0.16940 0.35040 -0.42500
O 	O 	0.92146 0.00081 0.33199 -0.28700
O 	O 	0.74666 0.31297 0.73491 -0.39700
O 	O 	0.66713 0.25982 0.69891 -0.43700
O 	O 	0.73110 0.27054 0.87600 -0.37100
O 	O 	0.74860 0.18640 0.95120 -0.31500
O 	O 	0.78842 0.15571 0.42341 -0.40100
O 	O 	0.86804 0.20676 0.45645 -0.38600
O 	O 	0.94530 0.34850 0.68820 -0.38600
O 	O 	0.90640 0.35240 0.76370 -0.28500
O 	O 	0.75095 0.19544 0.64439 -0.27100
O 	O 	0.85600 0.25240 0.09670 -0.44300
Cu	Cu	0.37912 0.67335 0.36891 0.89800
Cu	Cu	0.28631 0.61178 0.33472 0.90500
Cu	Cu	0.31024 0.68203 0.08742 0.94500
K 	K 	0.41362 0.74318 0.18443 0.66300
C 	C 	0.39477 0.49340 0.24820 0.24700
C 	C 	0.34916 0.53010 0.20210 -0.17700
C 	C 	0.31590 0.51720 0.12000 0.02700
C 	C 	0.33060 0.46690 0.08720 -0.12500
H 	H 	0.30810 0.45690 0.03310 0.09400
C 	C 	0.37800 0.43310 0.13560 0.09800
H 	H 	0.38810 0.40080 0.11370 0.00500
C 	C 	0.41160 0.44650 0.21750 -0.23300
H 	H 	0.44440 0.42430 0.25010 0.12100
C 	C 	0.47873 0.51080 0.37320 0.20700
C 	C 	0.50190 0.56210 0.35770 -0.13000
H 	H 	0.47920 0.58860 0.31550 0.09100
C 	C 	0.55970 0.57380 0.40600 -0.04800
C 	C 	0.59280 0.53300 0.46840 -0.02200
H 	H 	0.63140 0.53980 0.50040 0.06300
C 	C 	0.56830 0.48216 0.48280 -0.02100
C 	C 	0.51175 0.47120 0.43510 -0.14200
H 	H 	0.49570 0.43690 0.44470 0.11000
C 	C 	0.33512 0.57860 0.24460 0.40200
C 	C 	0.26670 0.55630 0.06490 0.30900
C 	C 	0.60516 0.43760 0.54800 0.35100
C 	C 	0.58600 0.62820 0.39120 0.38700
C 	C 	0.26960 0.67480 0.72240 0.24000
C 	C 	0.25330 0.70800 0.76870 -0.16000
C 	C 	0.26590 0.68370 0.84410 0.01900
C 	C 	0.29500 0.62830 0.86900 -0.11100
H 	H 	0.30380 0.61210 0.91880 0.09100
C 	C 	0.31120 0.59600 0.82190 0.08400
H 	H 	0.33080 0.55900 0.84020 0.02500
C 	C 	0.29830 0.61920 0.74770 -0.21300
H 	H 	0.30860 0.59790 0.71540 0.12700
C 	C 	0.29200 0.71570 0.62890 0.22700
C 	C 	0.33220 0.75900 0.67760 -0.16900
H 	H 	0.33380 0.77260 0.72450 0.12100
C 	C 	0.36880 0.78140 0.65710 0.00600
C 	C 	0.36770 0.76030 0.58700 -0.05700
H 	H 	0.39330 0.77560 0.57330 0.07900
C 	C 	0.32900 0.71740 0.54010 0.00100
C 	C 	0.29040 0.69470 0.56020 -0.16100
H 	H 	0.26370 0.66550 0.52760 0.11700
C 	C 	0.21970 0.76470 0.73300 0.40700
C 	C 	0.24800 0.71570 0.89500 0.31400
C 	C 	0.32760 0.69160 0.46710 0.32900
C 	C 	0.40900 0.82960 0.70720 0.29200
O 	O 	0.36878 0.62351 0.27487 -0.44400
O 	O 	0.29363 0.56743 0.25268 -0.40400
O 	O 	0.26593 0.61130 0.08538 -0.34000
O 	O 	0.22960 0.53370 0.00150 -0.24500
O 	O 	0.58022 0.39396 0.55964 -0.40700
O 	O 	0.65707 0.44637 0.58505 -0.40300
O 	O 	0.63856 0.62749 0.42420 -0.41500
O 	O 	0.55570 0.66940 0.35040 -0.42600
O 	O 	0.42146 0.50081 0.33199 -0.27000
O 	O 	0.24666 0.81297 0.73491 -0.39700
O 	O 	0.16713 0.75982 0.69891 -0.43800
O 	O 	0.23110 0.77054 0.87600 -0.37100
O 	O 	0.24860 0.68640 0.95120 -0.31500
O 	O 	0.28842 0.65571 0.42341 -0.40200
O 	O 	0.36804 0.70676 0.45645 -0.38700
O 	O 	0.44530 0.84850 0.68820 -0.39200
O 	O 	0.40640 0.85240 0.76370 -0.28900
O 	O 	0.25095 0.69544 0.64439 -0.27100
O 	O 	0.35600 0.75240 0.09670 -0.44500
Cu	Cu	0.87912 0.82665 0.86891 0.89800
Cu	Cu	0.78631 0.88822 0.83472 0.90500
Cu	Cu	0.81024 0.81797 0.58742 0.94500
K 	K 	0.91362 0.75682 0.68443 0.66400
C 	C 	0.89477 0.00660 0.74820 0.25300
C 	C 	0.84916 0.96990 0.70210 -0.17900
C 	C 	0.81590 0.98280 0.62000 0.02900
C 	C 	0.83060 0.03310 0.58720 -0.12800
H 	H 	0.80810 0.04310 0.53310 0.09600
C 	C 	0.87800 0.06690 0.63560 0.10200
H 	H 	0.88810 0.09920 0.61370 0.00400
C 	C 	0.91160 0.05350 0.71750 -0.23800
H 	H 	0.94440 0.07570 0.75010 0.12500
C 	C 	0.97873 0.98920 0.87320 0.27400
C 	C 	0.00190 0.93790 0.85770 -0.20300
H 	H 	0.97920 0.91140 0.81550 0.12300
C 	C 	0.05970 0.92620 0.90600 -0.01200
C 	C 	0.09280 0.96700 0.96840 -0.05500
H 	H 	0.13140 0.96020 0.00040 0.07300
C 	C 	0.06830 0.01784 0.98280 0.01500
C 	C 	0.01175 0.02880 0.93510 -0.22000
H 	H 	0.99570 0.06310 0.94470 0.14300
C 	C 	0.83512 0.92140 0.74460 0.40300
C 	C 	0.76670 0.94370 0.56490 0.30800
C 	C 	0.10516 0.06240 0.04800 0.33700
C 	C 	0.08600 0.87180 0.89120 0.37300
C 	C 	0.76960 0.82520 0.22240 0.24000
C 	C 	0.75330 0.79200 0.26870 -0.16000
C 	C 	0.76590 0.81630 0.34410 0.01900
C 	C 	0.79500 0.87170 0.36900 -0.11100
H 	H 	0.80380 0.88790 0.41880 0.09100
C 	C 	0.81120 0.90400 0.32190 0.08400
H 	H 	0.83080 0.94100 0.34020 0.02500
C 	C 	0.79830 0.88080 0.24770 -0.21300
H 	H 	0.80860 0.90210 0.21540 0.12700
C 	C 	0.79200 0.78430 0.12890 0.22800
C 	C 	0.83220 0.74100 0.17760 -0.17100
H 	H 	0.83380 0.72740 0.22450 0.12200
C 	C 	0.86880 0.71860 0.15710 0.00900
C 	C 	0.86770 0.73970 0.08700 -0.05900
H 	H 	0.89330 0.72440 0.07330 0.08100
C 	C 	0.82900 0.78260 0.04010 0.00400
C 	C 	0.79040 0.80530 0.06020 -0.16200
H 	H 	0.76370 0.83450 0.02760 0.11700
C 	C 	0.71970 0.73530 0.23300 0.40700
C 	C 	0.74800 0.78430 0.39500 0.31400
C 	C 	0.82760 0.80840 0.96710 0.32700
C 	C 	0.90900 0.67040 0.20720 0.29100
O 	O 	0.86878 0.87649 0.77487 -0.44400
O 	O 	0.79363 0.93257 0.75268 -0.40300
O 	O 	0.76593 0.88870 0.58538 -0.33900
O 	O 	0.72960 0.96630 0.50150 -0.24400
O 	O 	0.08022 0.10604 0.05964 -0.40700
O 	O 	0.15707 0.05363 0.08505 -0.39900
O 	O 	0.13856 0.87251 0.92420 -0.41200
O 	O 	0.05570 0.83060 0.85040 -0.42500
O 	O 	0.92146 0.99919 0.83199 -0.28600
O 	O 	0.74666 0.68703 0.23491 -0.39700
O 	O 	0.66713 0.74018 0.19891 -0.43700
O 	O 	0.73110 0.72946 0.37600 -0.37100
O 	O 	0.74860 0.81360 0.45120 -0.31400
O 	O 	0.78842 0.84429 0.92341 -0.40100
O 	O 	0.86804 0.79324 0.95645 -0.38600
O 	O 	0.94530 0.65150 0.18820 -0.38500
O 	O 	0.90640 0.64760 0.26370 -0.28500
O 	O 	0.75095 0.80456 0.14439 -0.27100
O 	O 	0.85600 0.74760 0.59670 -0.44400
Cu	Cu	0.37912 0.32665 0.86891 0.89800
Cu	Cu	0.28631 0.38822 0.83472 0.90500
Cu	Cu	0.31024 0.31797 0.58742 0.94500
K 	K 	0.41362 0.25682 0.68443 0.66300
C 	C 	0.39477 0.50660 0.74820 0.24700
C 	C 	0.34916 0.46990 0.70210 -0.17700
C 	C 	0.31590 0.48280 0.62000 0.02700
C 	C 	0.33060 0.53310 0.58720 -0.12500
H 	H 	0.30810 0.54310 0.53310 0.09400
C 	C 	0.37800 0.56690 0.63560 0.09800
H 	H 	0.38810 0.59920 0.61370 0.00500
C 	C 	0.41160 0.55350 0.71750 -0.23300
H 	H 	0.44440 0.57570 0.75010 0.12100
C 	C 	0.47873 0.48920 0.87320 0.20700
C 	C 	0.50190 0.43790 0.85770 -0.13000
H 	H 	0.47920 0.41140 0.81550 0.09100
C 	C 	0.55970 0.42620 0.90600 -0.04700
C 	C 	0.59280 0.46700 0.96840 -0.02400
H 	H 	0.63140 0.46020 0.00040 0.06400
C 	C 	0.56830 0.51784 0.98280 -0.02200
C 	C 	0.51175 0.52880 0.93510 -0.14300
H 	H 	0.49570 0.56310 0.94470 0.11000
C 	C 	0.33512 0.42140 0.74460 0.40200
C 	C 	0.26670 0.44370 0.56490 0.30800
C 	C 	0.60516 0.56240 0.04800 0.35100
C 	C 	0.58600 0.37180 0.89120 0.38600
C 	C 	0.26960 0.32520 0.22240 0.24000
C 	C 	0.25330 0.29200 0.26870 -0.16000
C 	C 	0.26590 0.31630 0.34410 0.01900
C 	C 	0.29500 0.37170 0.36900 -0.11100
H 	H 	0.30380 0.38790 0.41880 0.09100
C 	C 	0.31120 0.40400 0.32190 0.08400
H 	H 	0.33080 0.44100 0.34020 0.02500
C 	C 	0.29830 0.38080 0.24770 -0.21300
H 	H 	0.30860 0.40210 0.21540 0.12700
C 	C 	0.29200 0.28430 0.12890 0.22700
C 	C 	0.33220 0.24100 0.17760 -0.16900
H 	H 	0.33380 0.22740 0.22450 0.12100
C 	C 	0.36880 0.21860 0.15710 0.00600
C 	C 	0.36770 0.23970 0.08700 -0.05700
H 	H 	0.39330 0.22440 0.07330 0.07900
C 	C 	0.32900 0.28260 0.04010 0.00200
C 	C 	0.29040 0.30530 0.06020 -0.16100
H 	H 	0.26370 0.33450 0.02760 0.11700
C 	C 	0.21970 0.23530 0.23300 0.40700
C 	C 	0.24800 0.28430 0.39500 0.31400
C 	C 	0.32760 0.30840 0.96710 0.32800
C 	C 	0.40900 0.17040 0.20720 0.29200
O 	O 	0.36878 0.37649 0.77487 -0.44400
O 	O 	0.29363 0.43257 0.75268 -0.40400
O 	O 	0.26593 0.38870 0.58538 -0.34000
O 	O 	0.22960 0.46630 0.50150 -0.24500
O 	O 	0.58022 0.60604 0.05964 -0.40700
O 	O 	0.65707 0.55363 0.08505 -0.40200
O 	O 	0.63856 0.37251 0.92420 -0.41500
O 	O 	0.55570 0.33060 0.85040 -0.42600
O 	O 	0.42146 0.49919 0.83199 -0.27000
O 	O 	0.24666 0.18703 0.23491 -0.39700
O 	O 	0.16713 0.24018 0.19891 -0.43800
O 	O 	0.23110 0.22946 0.37600 -0.37100
O 	O 	0.24860 0.31360 0.45120 -0.31500
O 	O 	0.28842 0.34429 0.92341 -0.40200
O 	O 	0.36804 0.29324 0.95645 -0.38700
O 	O 	0.44530 0.15150 0.18820 -0.39200
O 	O 	0.40640 0.14760 0.26370 -0.28800
O 	O 	0.25095 0.30456 0.14439 -0.27100
O 	O 	0.35600 0.24760 0.59670 -0.44500
Cu	Cu	0.12088 0.82665 0.63109 0.89700
Cu	Cu	0.21369 0.88822 0.66528 0.90500
Cu	Cu	0.18976 0.81797 0.91258 0.94500
K 	K 	0.08638 0.75682 0.81557 0.66200
C 	C 	0.10523 0.00660 0.75180 0.23800
C 	C 	0.15084 0.96990 0.79790 -0.17300
C 	C 	0.18410 0.98280 0.88000 0.02500
C 	C 	0.16940 0.03310 0.91280 -0.12300
H 	H 	0.19190 0.04310 0.96690 0.09300
C 	C 	0.12200 0.06690 0.86440 0.09400
H 	H 	0.11190 0.09920 0.88630 0.00500
C 	C 	0.08840 0.05350 0.78250 -0.22600
H 	H 	0.05560 0.07570 0.74990 0.11700
C 	C 	0.02127 0.98920 0.62680 0.13400
C 	C 	0.99810 0.93790 0.64230 -0.05100
H 	H 	0.02080 0.91140 0.68450 0.05700
C 	C 	0.94030 0.92620 0.59400 -0.08800
C 	C 	0.90720 0.96700 0.53160 0.01700
H 	H 	0.86860 0.96020 0.49960 0.05000
C 	C 	0.93170 0.01784 0.51720 -0.06400
C 	C 	0.98825 0.02880 0.56490 -0.05900
H 	H 	0.00430 0.06310 0.55530 0.07400
C 	C 	0.16488 0.92140 0.75540 0.40000
C 	C 	0.23330 0.94370 0.93510 0.30900
C 	C 	0.89484 0.06240 0.45200 0.36700
C 	C 	0.91400 0.87180 0.60880 0.40200
C 	C 	0.23040 0.82520 0.27760 0.23900
C 	C 	0.24670 0.79200 0.23130 -0.16000
C 	C 	0.23410 0.81630 0.15590 0.01900
C 	C 	0.20500 0.87170 0.13100 -0.11100
H 	H 	0.19620 0.88790 0.08120 0.09000
C 	C 	0.18880 0.90400 0.17810 0.08400
H 	H 	0.16920 0.94100 0.15980 0.02400
C 	C 	0.20170 0.88080 0.25230 -0.21300
H 	H 	0.19140 0.90210 0.28460 0.12700
C 	C 	0.20800 0.78430 0.37110 0.22600
C 	C 	0.16780 0.74100 0.32240 -0.16800
H 	H 	0.16620 0.72740 0.27550 0.12000
C 	C 	0.13120 0.71860 0.34290 0.00400
C 	C 	0.13230 0.73970 0.41300 -0.05600
H 	H 	0.10670 0.72440 0.42670 0.07700
C 	C 	0.17100 0.78260 0.45990 -0.00000
C 	C 	0.20960 0.80530 0.43980 -0.16000
H 	H 	0.23630 0.83450 0.47240 0.11600
C 	C 	0.28030 0.73530 0.26700 0.40700
C 	C 	0.25200 0.78430 0.10500 0.31400
C 	C 	0.17240 0.80840 0.53290 0.33000
C 	C 	0.09100 0.67040 0.29280 0.29300
O 	O 	0.13122 0.87649 0.72513 -0.44400
O 	O 	0.20637 0.93257 0.74732 -0.40300
O 	O 	0.23407 0.88870 0.91462 -0.34000
O 	O 	0.27040 0.96630 0.99850 -0.24400
O 	O 	0.91978 0.10604 0.44036 -0.40800
O 	O 	0.84293 0.05363 0.41495 -0.40600
O 	O 	0.86144 0.87251 0.57580 -0.41900
O 	O 	0.94430 0.83060 0.64960 -0.42700
O 	O 	0.07854 0.99919 0.66801 -0.25200
O 	O 	0.25334 0.68703 0.26509 -0.39700
O 	O 	0.33287 0.74018 0.30109 -0.43700
O 	O 	0.26890 0.72946 0.12400 -0.37100
O 	O 	0.25140 0.81360 0.04880 -0.31500
O 	O 	0.21158 0.84429 0.57659 -0.40200
O 	O 	0.13196 0.79324 0.54355 -0.38900
O 	O 	0.05470 0.65150 0.31180 -0.39600
O 	O 	0.09360 0.64760 0.23630 -0.29100
O 	O 	0.24905 0.80456 0.35561 -0.27100
O 	O 	0.14400 0.74760 0.90330 -0.44600
Cu	Cu	0.62088 0.32665 0.63109 0.89800
Cu	Cu	0.71369 0.38822 0.66528 0.90600
Cu	Cu	0.68976 0.31797 0.91258 0.94500
K 	K 	0.58638 0.25682 0.81557 0.66300
C 	C 	0.60523 0.50660 0.75180 0.24700
C 	C 	0.65084 0.46990 0.79790 -0.17700
C 	C 	0.68410 0.48280 0.88000 0.02700
C 	C 	0.66940 0.53310 0.91280 -0.12500
H 	H 	0.69190 0.54310 0.96690 0.09400
C 	C 	0.62200 0.56690 0.86440 0.09800
H 	H 	0.61190 0.59920 0.88630 0.00500
C 	C 	0.58840 0.55350 0.78250 -0.23300
H 	H 	0.55560 0.57570 0.74990 0.12100
C 	C 	0.52127 0.48920 0.62680 0.20700
C 	C 	0.49810 0.43790 0.64230 -0.13000
H 	H 	0.52080 0.41140 0.68450 0.09100
C 	C 	0.44030 0.42620 0.59400 -0.04800
C 	C 	0.40720 0.46700 0.53160 -0.02200
H 	H 	0.36860 0.46020 0.49960 0.06300
C 	C 	0.43170 0.51784 0.51720 -0.02200
C 	C 	0.48825 0.52880 0.56490 -0.14200
H 	H 	0.50430 0.56310 0.55530 0.11000
C 	C 	0.66488 0.42140 0.75540 0.40200
C 	C 	0.73330 0.44370 0.93510 0.30800
C 	C 	0.39484 0.56240 0.45200 0.35100
C 	C 	0.41400 0.37180 0.60880 0.38700
C 	C 	0.73040 0.32520 0.27760 0.24000
C 	C 	0.74670 0.29200 0.23130 -0.16000
C 	C 	0.73410 0.31630 0.15590 0.01900
C 	C 	0.70500 0.37170 0.13100 -0.11000
H 	H 	0.69620 0.38790 0.08120 0.09100
C 	C 	0.68880 0.40400 0.17810 0.08400
H 	H 	0.66920 0.44100 0.15980 0.02500
C 	C 	0.70170 0.38080 0.25230 -0.21300
H 	H 	0.69140 0.40210 0.28460 0.12700
C 	C 	0.70800 0.28430 0.37110 0.22700
C 	C 	0.66780 0.24100 0.32240 -0.16900
H 	H 	0.66620 0.22740 0.27550 0.12100
C 	C 	0.63120 0.21860 0.34290 0.00600
C 	C 	0.63230 0.23970 0.41300 -0.05700
H 	H 	0.60670 0.22440 0.42670 0.07900
C 	C 	0.67100 0.28260 0.45990 0.00100
C 	C 	0.70960 0.30530 0.43980 -0.16100
H 	H 	0.73630 0.33450 0.47240 0.11700
C 	C 	0.78030 0.23530 0.26700 0.40700
C 	C 	0.75200 0.28430 0.10500 0.31400
C 	C 	0.67240 0.30840 0.53290 0.32900
C 	C 	0.59100 0.17040 0.29280 0.29200
O 	O 	0.63122 0.37649 0.72513 -0.44400
O 	O 	0.70637 0.43257 0.74732 -0.40300
O 	O 	0.73407 0.38870 0.91462 -0.33900
O 	O 	0.77040 0.46630 0.99850 -0.24300
O 	O 	0.41978 0.60604 0.44036 -0.40700
O 	O 	0.34293 0.55363 0.41495 -0.40300
O 	O 	0.36144 0.37251 0.57580 -0.41500
O 	O 	0.44430 0.33060 0.64960 -0.42600
O 	O 	0.57854 0.49919 0.66801 -0.27000
O 	O 	0.75334 0.18703 0.26509 -0.39700
O 	O 	0.83287 0.24018 0.30109 -0.43500
O 	O 	0.76890 0.22946 0.12400 -0.37100
O 	O 	0.75140 0.31360 0.04880 -0.31400
O 	O 	0.71158 0.34429 0.57659 -0.40200
O 	O 	0.63196 0.29324 0.54355 -0.38700
O 	O 	0.55470 0.15150 0.31180 -0.39200
O 	O 	0.59360 0.14760 0.23630 -0.28800
O 	O 	0.74905 0.30456 0.35561 -0.27100
O 	O 	0.64400 0.24760 0.90330 -0.44600
Cu	Cu	0.00000 0.41027 0.75000 0.84500
Cu	Cu	0.50000 0.91027 0.75000 0.84900
Cu	Cu	0.00000 0.58973 0.25000 0.84400
Cu	Cu	0.50000 0.08973 0.25000 0.84900
