data_crystal

_cell_length_a 10.78800
_cell_length_b 11.25200
_cell_length_c 11.84000
_cell_angle_alpha 100.85400
_cell_angle_beta  110.28900
_cell_angle_gamma 99.77700

_symmetry_space_group_name_	'P 1'
_symmetry_space_group_name_H-M	'P 1'

loop_
_symmetry_equiv_pos_as_xyz
  x,y,z

loop_
_atom_site_label
_atom_site_type_symbol
_atom_site_fract_x
_atom_site_fract_y
_atom_site_fract_z
_atom_site_charge
Cu	Cu	0.64293 0.50999 0.01128 0.91500
Cu	Cu	0.56086 0.38500 0.21096 0.90400
C 	C 	0.12480 0.07370 0.43170 0.12900
C 	C 	0.18220 0.18820 0.51830 -0.13000
H 	H 	0.16500 0.26030 0.49550 0.09000
C 	C 	0.26680 0.19590 0.64090 0.00900
C 	C 	0.29420 0.08640 0.67400 -0.09300
C 	C 	0.23440 0.97260 0.58420 0.03200
H 	H 	0.25230 0.90000 0.60570 0.04200
C 	C 	0.14800 0.96400 0.46210 0.00200
C 	C 	0.03880 0.16360 0.26160 0.19100
C 	C 	0.15080 0.21270 0.23840 -0.13800
H 	H 	0.22870 0.18300 0.26270 0.08800
C 	C 	0.14500 0.30710 0.17800 -0.03800
C 	C 	0.02910 0.35190 0.14260 -0.01700
H 	H 	0.02470 0.41350 0.09990 0.06400
C 	C 	0.91880 0.30390 0.17130 -0.04700
C 	C 	0.92320 0.20790 0.23100 -0.15000
H 	H 	0.85000 0.17460 0.24970 0.10100
C 	C 	0.31570 0.32440 0.73270 0.31600
C 	C 	0.38980 0.09130 0.80320 0.27900
C 	C 	0.79670 0.35790 0.14220 0.35100
C 	C 	0.26610 0.36020 0.15080 0.35300
O 	O 	0.39750 0.40700 0.71830 -0.36500
O 	O 	0.26263 0.34026 0.81155 -0.32200
O 	O 	0.47120 0.19050 0.87551 -0.27400
O 	O 	0.38440 0.98636 0.83034 -0.36100
O 	O 	0.72980 0.34640 0.20894 -0.43400
O 	O 	0.77411 0.41116 0.05582 -0.40400
O 	O 	0.24508 0.42200 0.07079 -0.40800
O 	O 	0.37760 0.33920 0.21032 -0.43000
O 	O 	0.03590 0.05865 0.31010 -0.25100
O 	O 	0.49959 0.39988 0.04148 -0.53400
Cu	Cu	0.35707 0.49001 0.98872 0.95800
Cu	Cu	0.43914 0.61500 0.78904 0.90800
C 	C 	0.87520 0.92630 0.56830 0.20600
C 	C 	0.81780 0.81180 0.48170 -0.14800
H 	H 	0.83500 0.73970 0.50450 0.09400
C 	C 	0.73320 0.80410 0.35910 0.00600
C 	C 	0.70580 0.91360 0.32600 -0.03500
C 	C 	0.76560 0.02740 0.41580 -0.04700
H 	H 	0.74770 0.10000 0.39430 0.05700
C 	C 	0.85200 0.03600 0.53790 -0.06500
C 	C 	0.96120 0.83640 0.73840 0.19500
C 	C 	0.84920 0.78730 0.76160 -0.14200
H 	H 	0.77130 0.81700 0.73730 0.10600
C 	C 	0.85500 0.69290 0.82200 -0.00500
C 	C 	0.97090 0.64810 0.85740 -0.05100
H 	H 	0.97530 0.58650 0.90010 0.09200
C 	C 	0.08120 0.69610 0.82870 -0.00400
C 	C 	0.07680 0.79210 0.76900 -0.13500
H 	H 	0.15000 0.82540 0.75030 0.11000
C 	C 	0.68430 0.67560 0.26730 0.31700
C 	C 	0.61020 0.90870 0.19680 0.35900
C 	C 	0.20330 0.64210 0.85780 0.34400
C 	C 	0.73390 0.63980 0.84920 0.34300
O 	O 	0.60250 0.59300 0.28170 -0.37100
O 	O 	0.73737 0.65974 0.18845 -0.34300
O 	O 	0.52880 0.80950 0.12449 -0.32800
O 	O 	0.61560 0.01364 0.16966 -0.46600
O 	O 	0.27020 0.65360 0.79106 -0.42000
O 	O 	0.22589 0.58884 0.94418 -0.35700
O 	O 	0.75492 0.57800 0.92921 -0.35100
O 	O 	0.62240 0.66080 0.78968 -0.41100
O 	O 	0.96410 0.94135 0.68990 -0.23700
O 	O 	0.50041 0.60012 0.95852 -0.47400
Cu	Cu	0.50000 0.00000 -0.00000 0.82500
