data_crystal

_cell_length_a 39.90000
_cell_length_b 9.99250
_cell_length_c 28.72800
_cell_angle_alpha 90.00000
_cell_angle_beta  133.79900
_cell_angle_gamma 90.00000

_symmetry_space_group_name_	'P 1'
_symmetry_space_group_name_H-M	'P 1'

loop_
_symmetry_equiv_pos_as_xyz
  x,y,z

loop_
_atom_site_label
_atom_site_type_symbol
_atom_site_fract_x
_atom_site_fract_y
_atom_site_fract_z
_atom_site_charge
Cu	Cu	0.42533 0.85743 0.08497 0.92000
Cu	Cu	0.40646 0.89400 0.23489 0.92100
O 	O 	0.58113 0.01530 0.46103 -0.36800
O 	O 	0.50900 0.90100 0.34235 -0.40600
O 	O 	0.42340 0.46980 0.87176 -0.23400
O 	O 	0.43026 0.70870 0.13496 -0.38000
O 	O 	0.41504 0.85030 0.17727 -0.40400
O 	O 	0.45191 0.04130 0.27271 -0.38200
O 	O 	0.34234 0.53660 0.15830 -0.25500
N 	N 	0.43642 0.30130 0.93588 -0.23800
H 	H 	0.44450 0.28540 0.97270 0.15500
N 	N 	0.41397 0.08870 0.81165 -0.18200
C 	C 	0.55602 0.12060 0.43357 0.28800
C 	C 	0.52600 0.13970 0.36060 -0.00200
O 	O 	0.55700 0.21030 0.46367 -0.26100
C 	C 	0.49361 0.01860 0.32262 0.30400
N 	N 	0.43092 0.71600 0.03032 -0.18700
C 	C 	0.45857 0.60940 0.05828 0.06200
H 	H 	0.47830 0.59840 0.10350 0.00300
C 	C 	0.46013 0.51390 0.02505 -0.09000
H 	H 	0.48050 0.43950 0.04710 0.07100
C 	C 	0.43169 0.52800 0.95934 0.00400
C 	C 	0.42986 0.43090 0.91786 0.21100
C 	C 	0.43171 0.18890 0.90215 0.13300
C 	C 	0.40283 0.63950 0.92962 -0.08500
H 	H 	0.38310 0.65350 0.88460 0.07400
C 	C 	0.40337 0.72960 0.96667 0.05200
H 	H 	0.38320 0.80470 0.94590 0.02000
N 	N 	0.14450 0.65960 0.97687 -0.18100
C 	C 	0.16425 0.78180 0.99324 0.01700
H 	H 	0.14540 0.85900 0.97900 0.02500
C 	C 	0.21054 0.79690 0.02970 -0.02000
H 	H 	0.22360 0.88400 0.04020 0.04200
C 	C 	0.23832 0.68610 0.05130 -0.11100
H 	H 	0.27060 0.69590 0.07670 0.08800
C 	C 	0.21860 0.55920 0.03571 0.13100
C 	C 	0.17108 0.55150 0.99744 -0.04600
H 	H 	0.15690 0.46570 0.98540 0.06700
N 	N 	0.24800 0.44820 0.06106 -0.23600
H 	H 	0.27740 0.46410 0.08300 0.15400
C 	C 	0.42038 0.73210 0.16735 0.29900
N 	N 	0.34755 0.03580 0.17194 -0.18600
C 	C 	0.35014 0.14100 0.14630 0.06300
H 	H 	0.37760 0.15220 0.15470 0.00400
C 	C 	0.31534 0.23500 0.10809 -0.08700
H 	H 	0.31880 0.30760 0.09030 0.06900
C 	C 	0.27565 0.22200 0.09616 0.00500
C 	C 	0.23558 0.31820 0.05509 0.21300
O 	O 	0.19567 0.27960 0.01995 -0.23500
C 	C 	0.27243 0.11340 0.12330 -0.08500
H 	H 	0.24550 0.10110 0.11600 0.07400
C 	C 	0.30871 0.02430 0.16070 0.05300
H 	H 	0.30640 0.95120 0.17940 0.01800
C 	C 	0.49827 0.26970 0.33688 -0.37300
H 	H 	0.47730 0.26600 0.34360 0.14700
H 	H 	0.48010 0.28120 0.29080 0.13200
H 	H 	0.51960 0.34530 0.36100 0.13800
C 	C 	0.55954 0.14650 0.35108 -0.39500
H 	H 	0.58280 0.21610 0.37910 0.14500
H 	H 	0.54200 0.16780 0.30600 0.14400
H 	H 	0.57500 0.05990 0.36220 0.12500
C 	C 	0.41882 0.96690 0.83590 0.01700
H 	H 	0.41360 0.88930 0.81240 0.02500
C 	C 	0.43111 0.95210 0.89350 -0.01600
H 	H 	0.43470 0.86510 0.90980 0.04200
C 	C 	0.43832 0.06350 0.92800 -0.11500
H 	H 	0.44760 0.05440 0.96850 0.09000
C 	C 	0.42019 0.19790 0.84429 -0.05100
H 	H 	0.41660 0.28390 0.82720 0.07000
O 	O 	0.36724 0.73570 0.20440 -0.36600
C 	C 	0.37071 0.62940 0.18312 0.28300
C 	C 	0.41418 0.61160 0.19405 -0.00000
C 	C 	0.41145 0.48110 0.16362 -0.37600
H 	H 	0.38450 0.48410 0.11690 0.14700
H 	H 	0.40820 0.40550 0.18200 0.13900
H 	H 	0.43980 0.47020 0.17250 0.13400
C 	C 	0.45658 0.60560 0.26772 -0.39000
H 	H 	0.48450 0.58340 0.27650 0.14200
H 	H 	0.45140 0.53690 0.28650 0.14400
H 	H 	0.46080 0.69270 0.28680 0.12400
Cu	Cu	0.92533 0.35743 0.08497 0.92200
Cu	Cu	0.90646 0.39400 0.23489 0.92300
O 	O 	0.08113 0.51530 0.46103 -0.36700
O 	O 	0.00900 0.40100 0.34235 -0.40400
O 	O 	0.92340 0.96980 0.87176 -0.23400
O 	O 	0.93026 0.20870 0.13496 -0.37900
O 	O 	0.91504 0.35030 0.17727 -0.40200
O 	O 	0.95191 0.54130 0.27271 -0.38100
O 	O 	0.84234 0.03660 0.15830 -0.25400
N 	N 	0.93642 0.80130 0.93588 -0.23700
H 	H 	0.94450 0.78540 0.97270 0.15600
N 	N 	0.91397 0.58870 0.81165 -0.18100
C 	C 	0.05602 0.62060 0.43357 0.28800
C 	C 	0.02600 0.63970 0.36060 -0.00100
O 	O 	0.05700 0.71030 0.46367 -0.26000
C 	C 	0.99361 0.51860 0.32262 0.30400
N 	N 	0.93092 0.21600 0.03032 -0.18500
C 	C 	0.95857 0.10940 0.05828 0.06100
H 	H 	0.97830 0.09840 0.10350 0.00500
C 	C 	0.96013 0.01390 0.02505 -0.08300
H 	H 	0.98050 0.93950 0.04710 0.06900
C 	C 	0.93169 0.02800 0.95934 -0.00100
C 	C 	0.92986 0.93090 0.91786 0.21300
C 	C 	0.93171 0.68890 0.90215 0.13300
C 	C 	0.90283 0.13950 0.92962 -0.08200
H 	H 	0.88310 0.15350 0.88460 0.07300
C 	C 	0.90337 0.22960 0.96667 0.04900
H 	H 	0.88320 0.30470 0.94590 0.02000
N 	N 	0.64450 0.15960 0.97687 -0.18000
C 	C 	0.66425 0.28180 0.99324 0.01300
H 	H 	0.64540 0.35900 0.97900 0.02600
C 	C 	0.71054 0.29690 0.02970 -0.01600
H 	H 	0.72360 0.38400 0.04020 0.04100
C 	C 	0.73832 0.18610 0.05130 -0.11400
H 	H 	0.77060 0.19590 0.07670 0.08900
C 	C 	0.71860 0.05920 0.03571 0.13500
C 	C 	0.67108 0.05150 0.99744 -0.05300
H 	H 	0.65690 0.96570 0.98540 0.07000
N 	N 	0.74800 0.94820 0.06106 -0.23700
H 	H 	0.77740 0.96410 0.08300 0.15400
C 	C 	0.92038 0.23210 0.16735 0.29900
N 	N 	0.84755 0.53580 0.17194 -0.18600
C 	C 	0.85014 0.64100 0.14630 0.06200
H 	H 	0.87760 0.65220 0.15470 0.00400
C 	C 	0.81534 0.73500 0.10809 -0.08600
H 	H 	0.81880 0.80760 0.09030 0.06800
C 	C 	0.77565 0.72200 0.09616 0.00400
C 	C 	0.73558 0.81820 0.05509 0.21400
O 	O 	0.69567 0.77960 0.01995 -0.23500
C 	C 	0.77243 0.61340 0.12330 -0.08300
H 	H 	0.74550 0.60110 0.11600 0.07300
C 	C 	0.80871 0.52430 0.16070 0.05000
H 	H 	0.80640 0.45120 0.17940 0.02000
C 	C 	0.99827 0.76970 0.33688 -0.37300
H 	H 	0.97730 0.76600 0.34360 0.14700
H 	H 	0.98010 0.78120 0.29080 0.13200
H 	H 	0.01960 0.84530 0.36100 0.13800
C 	C 	0.05954 0.64650 0.35108 -0.39400
H 	H 	0.08280 0.71610 0.37910 0.14500
H 	H 	0.04200 0.66780 0.30600 0.14400
H 	H 	0.07500 0.55990 0.36220 0.12400
C 	C 	0.91882 0.46690 0.83590 0.01600
H 	H 	0.91360 0.38930 0.81240 0.02500
C 	C 	0.93111 0.45210 0.89350 -0.01800
H 	H 	0.93470 0.36510 0.90980 0.04200
C 	C 	0.93832 0.56350 0.92800 -0.11400
H 	H 	0.94760 0.55440 0.96850 0.09000
C 	C 	0.92019 0.69790 0.84429 -0.05100
H 	H 	0.91660 0.78390 0.82720 0.07000
O 	O 	0.86724 0.23570 0.20440 -0.36600
C 	C 	0.87071 0.12940 0.18312 0.28300
C 	C 	0.91418 0.11160 0.19405 0.00000
C 	C 	0.91145 0.98110 0.16362 -0.37600
H 	H 	0.88450 0.98410 0.11690 0.14700
H 	H 	0.90820 0.90550 0.18200 0.13900
H 	H 	0.93980 0.97020 0.17250 0.13400
C 	C 	0.95658 0.10560 0.26772 -0.39000
H 	H 	0.98450 0.08340 0.27650 0.14200
H 	H 	0.95140 0.03690 0.28650 0.14400
H 	H 	0.96080 0.19270 0.28680 0.12400
Cu	Cu	0.57467 0.85743 0.41503 0.92100
Cu	Cu	0.59354 0.89400 0.26511 0.92200
O 	O 	0.41887 0.01530 0.03897 -0.36700
O 	O 	0.49100 0.90100 0.15765 -0.40500
O 	O 	0.57660 0.46980 0.62824 -0.23300
O 	O 	0.56974 0.70870 0.36504 -0.37900
O 	O 	0.58496 0.85030 0.32273 -0.40300
O 	O 	0.54809 0.04130 0.22729 -0.38100
O 	O 	0.65766 0.53660 0.34170 -0.25400
N 	N 	0.56358 0.30130 0.56412 -0.23700
H 	H 	0.55550 0.28540 0.52730 0.15600
N 	N 	0.58603 0.08870 0.68835 -0.18100
C 	C 	0.44398 0.12060 0.06643 0.28800
C 	C 	0.47400 0.13970 0.13940 -0.00100
O 	O 	0.44300 0.21030 0.03633 -0.26000
C 	C 	0.50639 0.01860 0.17738 0.30600
N 	N 	0.56908 0.71600 0.46968 -0.18600
C 	C 	0.54143 0.60940 0.44172 0.06300
H 	H 	0.52170 0.59840 0.39650 0.00400
C 	C 	0.53987 0.51390 0.47495 -0.08800
H 	H 	0.51950 0.43950 0.45290 0.07100
C 	C 	0.56831 0.52800 0.54066 0.00300
C 	C 	0.57014 0.43090 0.58214 0.21100
C 	C 	0.56829 0.18890 0.59785 0.13300
C 	C 	0.59717 0.63950 0.57038 -0.08500
H 	H 	0.61690 0.65350 0.61540 0.07400
C 	C 	0.59663 0.72960 0.53333 0.05200
H 	H 	0.61680 0.80470 0.55410 0.02000
N 	N 	0.85550 0.65960 0.52313 -0.18100
C 	C 	0.83575 0.78180 0.50676 0.01500
H 	H 	0.85460 0.85900 0.52100 0.02500
C 	C 	0.78946 0.79690 0.47030 -0.01800
H 	H 	0.77640 0.88400 0.45980 0.04200
C 	C 	0.76168 0.68610 0.44870 -0.11200
H 	H 	0.72940 0.69590 0.42330 0.08800
C 	C 	0.78140 0.55920 0.46429 0.13200
C 	C 	0.82892 0.55150 0.50256 -0.04700
H 	H 	0.84310 0.46570 0.51460 0.06700
N 	N 	0.75200 0.44820 0.43894 -0.23700
H 	H 	0.72260 0.46410 0.41700 0.15400
C 	C 	0.57962 0.73210 0.33265 0.29900
N 	N 	0.65245 0.03580 0.32806 -0.18600
C 	C 	0.64986 0.14100 0.35370 0.06200
H 	H 	0.62240 0.15220 0.34530 0.00400
C 	C 	0.68466 0.23500 0.39191 -0.08700
H 	H 	0.68120 0.30760 0.40970 0.06900
C 	C 	0.72435 0.22200 0.40384 0.00500
C 	C 	0.76442 0.31820 0.44491 0.21300
O 	O 	0.80433 0.27960 0.48005 -0.23500
C 	C 	0.72757 0.11340 0.37670 -0.08500
H 	H 	0.75450 0.10110 0.38400 0.07400
C 	C 	0.69129 0.02430 0.33930 0.05300
H 	H 	0.69360 0.95120 0.32060 0.01900
C 	C 	0.50173 0.26970 0.16312 -0.37300
H 	H 	0.52270 0.26600 0.15640 0.14700
H 	H 	0.51990 0.28120 0.20920 0.13200
H 	H 	0.48040 0.34530 0.13900 0.13800
C 	C 	0.44046 0.14650 0.14892 -0.39500
H 	H 	0.41720 0.21610 0.12090 0.14500
H 	H 	0.45800 0.16780 0.19400 0.14400
H 	H 	0.42500 0.05990 0.13780 0.12500
C 	C 	0.58118 0.96690 0.66410 0.01700
H 	H 	0.58640 0.88930 0.68760 0.02500
C 	C 	0.56889 0.95210 0.60650 -0.01800
H 	H 	0.56530 0.86510 0.59020 0.04200
C 	C 	0.56168 0.06350 0.57200 -0.11400
H 	H 	0.55240 0.05440 0.53150 0.09000
C 	C 	0.57981 0.19790 0.65571 -0.05100
H 	H 	0.58340 0.28390 0.67280 0.07000
O 	O 	0.63276 0.73570 0.29560 -0.36600
C 	C 	0.62929 0.62940 0.31688 0.28300
C 	C 	0.58582 0.61160 0.30595 -0.00000
C 	C 	0.58855 0.48110 0.33638 -0.37600
H 	H 	0.61550 0.48410 0.38310 0.14700
H 	H 	0.59180 0.40550 0.31800 0.13900
H 	H 	0.56020 0.47020 0.32750 0.13400
C 	C 	0.54342 0.60560 0.23228 -0.39000
H 	H 	0.51550 0.58340 0.22350 0.14200
H 	H 	0.54860 0.53690 0.21350 0.14400
H 	H 	0.53920 0.69270 0.21320 0.12400
Cu	Cu	0.07467 0.35743 0.41503 0.92200
Cu	Cu	0.09354 0.39400 0.26511 0.92300
O 	O 	0.91887 0.51530 0.03897 -0.36700
O 	O 	0.99100 0.40100 0.15765 -0.40300
O 	O 	0.07660 0.96980 0.62824 -0.23300
O 	O 	0.06974 0.20870 0.36504 -0.37900
O 	O 	0.08496 0.35030 0.32273 -0.40200
O 	O 	0.04809 0.54130 0.22729 -0.38100
O 	O 	0.15766 0.03660 0.34170 -0.25500
N 	N 	0.06358 0.80130 0.56412 -0.23700
H 	H 	0.05550 0.78540 0.52730 0.15600
N 	N 	0.08603 0.58870 0.68835 -0.18100
C 	C 	0.94398 0.62060 0.06643 0.28800
C 	C 	0.97400 0.63970 0.13940 0.00100
O 	O 	0.94300 0.71030 0.03633 -0.26000
C 	C 	0.00639 0.51860 0.17738 0.30300
N 	N 	0.06908 0.21600 0.46968 -0.18600
C 	C 	0.04143 0.10940 0.44172 0.06300
H 	H 	0.02170 0.09840 0.39650 0.00400
C 	C 	0.03987 0.01390 0.47495 -0.08900
H 	H 	0.01950 0.93950 0.45290 0.07100
C 	C 	0.06831 0.02800 0.54066 0.00300
C 	C 	0.07014 0.93090 0.58214 0.21200
C 	C 	0.06829 0.68890 0.59785 0.13300
C 	C 	0.09717 0.13950 0.57038 -0.08500
H 	H 	0.11690 0.15350 0.61540 0.07300
C 	C 	0.09663 0.22960 0.53333 0.05200
H 	H 	0.11680 0.30470 0.55410 0.02000
N 	N 	0.35550 0.15960 0.52313 -0.18000
C 	C 	0.33575 0.28180 0.50676 0.01500
H 	H 	0.35460 0.35900 0.52100 0.02500
C 	C 	0.28946 0.29690 0.47030 -0.01800
H 	H 	0.27640 0.38400 0.45980 0.04200
C 	C 	0.26168 0.18610 0.44870 -0.11200
H 	H 	0.22940 0.19590 0.42330 0.08800
C 	C 	0.28140 0.05920 0.46429 0.13100
C 	C 	0.32892 0.05150 0.50256 -0.04900
H 	H 	0.34310 0.96570 0.51460 0.06900
N 	N 	0.25200 0.94820 0.43894 -0.23600
H 	H 	0.22260 0.96410 0.41700 0.15400
C 	C 	0.07962 0.23210 0.33265 0.29900
N 	N 	0.15245 0.53580 0.32806 -0.18600
C 	C 	0.14986 0.64100 0.35370 0.06200
H 	H 	0.12240 0.65220 0.34530 0.00400
C 	C 	0.18466 0.73500 0.39191 -0.08600
H 	H 	0.18120 0.80760 0.40970 0.06900
C 	C 	0.22435 0.72200 0.40384 0.00400
C 	C 	0.26442 0.81820 0.44491 0.21300
O 	O 	0.30433 0.77960 0.48005 -0.23500
C 	C 	0.22757 0.61340 0.37670 -0.08300
H 	H 	0.25450 0.60110 0.38400 0.07300
C 	C 	0.19129 0.52430 0.33930 0.05000
H 	H 	0.19360 0.45120 0.32060 0.02000
C 	C 	0.00173 0.76970 0.16312 -0.37500
H 	H 	0.02270 0.76600 0.15640 0.14700
H 	H 	0.01990 0.78120 0.20920 0.13300
H 	H 	0.98040 0.84530 0.13900 0.13900
C 	C 	0.94046 0.64650 0.14892 -0.39500
H 	H 	0.91720 0.71610 0.12090 0.14500
H 	H 	0.95800 0.66780 0.19400 0.14400
H 	H 	0.92500 0.55990 0.13780 0.12500
C 	C 	0.08118 0.46690 0.66410 0.01600
H 	H 	0.08640 0.38930 0.68760 0.02500
C 	C 	0.06889 0.45210 0.60650 -0.01800
H 	H 	0.06530 0.36510 0.59020 0.04200
C 	C 	0.06168 0.56350 0.57200 -0.11400
H 	H 	0.05240 0.55440 0.53150 0.09000
C 	C 	0.07981 0.69790 0.65571 -0.05100
H 	H 	0.08340 0.78390 0.67280 0.07000
O 	O 	0.13276 0.23570 0.29560 -0.36600
C 	C 	0.12929 0.12940 0.31688 0.28300
C 	C 	0.08582 0.11160 0.30595 -0.00100
C 	C 	0.08855 0.98110 0.33638 -0.37500
H 	H 	0.11550 0.98410 0.38310 0.14700
H 	H 	0.09180 0.90550 0.31800 0.13900
H 	H 	0.06020 0.97020 0.32750 0.13400
C 	C 	0.04342 0.10560 0.23228 -0.39000
H 	H 	0.01550 0.08340 0.22350 0.14100
H 	H 	0.04860 0.03690 0.21350 0.14400
H 	H 	0.03920 0.19270 0.21320 0.12400
Cu	Cu	0.57467 0.14257 0.91503 0.92100
Cu	Cu	0.59354 0.10600 0.76511 0.92200
O 	O 	0.41887 0.98470 0.53897 -0.36700
O 	O 	0.49100 0.09900 0.65765 -0.40500
O 	O 	0.57660 0.53020 0.12824 -0.23300
O 	O 	0.56974 0.29130 0.86504 -0.37900
O 	O 	0.58496 0.14970 0.82273 -0.40300
O 	O 	0.54809 0.95870 0.72729 -0.38100
O 	O 	0.65766 0.46340 0.84170 -0.25400
N 	N 	0.56358 0.69870 0.06412 -0.23700
H 	H 	0.55550 0.71460 0.02730 0.15600
N 	N 	0.58603 0.91130 0.18835 -0.18100
C 	C 	0.44398 0.87940 0.56643 0.28900
C 	C 	0.47400 0.86030 0.63940 -0.00100
O 	O 	0.44300 0.78970 0.53633 -0.26000
C 	C 	0.50639 0.98140 0.67738 0.30500
N 	N 	0.56908 0.28400 0.96968 -0.18600
C 	C 	0.54143 0.39060 0.94172 0.06300
H 	H 	0.52170 0.40160 0.89650 0.00400
C 	C 	0.53987 0.48610 0.97495 -0.08900
H 	H 	0.51950 0.56050 0.95290 0.07100
C 	C 	0.56831 0.47200 0.04066 0.00400
C 	C 	0.57014 0.56910 0.08214 0.21100
C 	C 	0.56829 0.81110 0.09785 0.13300
C 	C 	0.59717 0.36050 0.07038 -0.08500
H 	H 	0.61690 0.34650 0.11540 0.07400
C 	C 	0.59663 0.27040 0.03333 0.05200
H 	H 	0.61680 0.19530 0.05410 0.02000
N 	N 	0.85550 0.34040 0.02313 -0.18100
C 	C 	0.83575 0.21820 0.00676 0.01700
H 	H 	0.85460 0.14100 0.02100 0.02500
C 	C 	0.78946 0.20310 0.97030 -0.02000
H 	H 	0.77640 0.11600 0.95980 0.04200
C 	C 	0.76168 0.31390 0.94870 -0.11100
H 	H 	0.72940 0.30410 0.92330 0.08800
C 	C 	0.78140 0.44080 0.96429 0.13100
C 	C 	0.82892 0.44850 0.00256 -0.04600
H 	H 	0.84310 0.53430 0.01460 0.06700
N 	N 	0.75200 0.55180 0.93894 -0.23600
H 	H 	0.72260 0.53590 0.91700 0.15400
C 	C 	0.57962 0.26790 0.83265 0.29900
N 	N 	0.65245 0.96420 0.82806 -0.18600
C 	C 	0.64986 0.85900 0.85370 0.06300
H 	H 	0.62240 0.84780 0.84530 0.00400
C 	C 	0.68466 0.76500 0.89191 -0.08700
H 	H 	0.68120 0.69240 0.90970 0.06900
C 	C 	0.72435 0.77800 0.90384 0.00500
C 	C 	0.76442 0.68180 0.94491 0.21300
O 	O 	0.80433 0.72040 0.98005 -0.23500
C 	C 	0.72757 0.88660 0.87670 -0.08500
H 	H 	0.75450 0.89890 0.88400 0.07400
C 	C 	0.69129 0.97570 0.83930 0.05300
H 	H 	0.69360 0.04880 0.82060 0.01800
C 	C 	0.50173 0.73030 0.66312 -0.37300
H 	H 	0.52270 0.73400 0.65640 0.14700
H 	H 	0.51990 0.71880 0.70920 0.13200
H 	H 	0.48040 0.65470 0.63900 0.13800
C 	C 	0.44046 0.85350 0.64892 -0.39500
H 	H 	0.41720 0.78390 0.62090 0.14500
H 	H 	0.45800 0.83220 0.69400 0.14400
H 	H 	0.42500 0.94010 0.63780 0.12500
C 	C 	0.58118 0.03310 0.16410 0.01700
H 	H 	0.58640 0.11070 0.18760 0.02500
C 	C 	0.56889 0.04790 0.10650 -0.01600
H 	H 	0.56530 0.13490 0.09020 0.04200
C 	C 	0.56168 0.93650 0.07200 -0.11500
H 	H 	0.55240 0.94560 0.03150 0.09000
C 	C 	0.57981 0.80210 0.15571 -0.05100
H 	H 	0.58340 0.71610 0.17280 0.07000
O 	O 	0.63276 0.26430 0.79560 -0.36600
C 	C 	0.62929 0.37060 0.81688 0.28300
C 	C 	0.58582 0.38840 0.80595 -0.00000
C 	C 	0.58855 0.51890 0.83638 -0.37600
H 	H 	0.61550 0.51590 0.88310 0.14700
H 	H 	0.59180 0.59450 0.81800 0.13900
H 	H 	0.56020 0.52980 0.82750 0.13400
C 	C 	0.54342 0.39440 0.73228 -0.39000
H 	H 	0.51550 0.41660 0.72350 0.14200
H 	H 	0.54860 0.46310 0.71350 0.14400
H 	H 	0.53920 0.30730 0.71320 0.12400
Cu	Cu	0.07467 0.64257 0.91503 0.92200
Cu	Cu	0.09354 0.60600 0.76511 0.92300
O 	O 	0.91887 0.48470 0.53897 -0.36700
O 	O 	0.99100 0.59900 0.65765 -0.40400
O 	O 	0.07660 0.03020 0.12824 -0.23400
O 	O 	0.06974 0.79130 0.86504 -0.37900
O 	O 	0.08496 0.64970 0.82273 -0.40200
O 	O 	0.04809 0.45870 0.72729 -0.38100
O 	O 	0.15766 0.96340 0.84170 -0.25400
N 	N 	0.06358 0.19870 0.06412 -0.23700
H 	H 	0.05550 0.21460 0.02730 0.15600
N 	N 	0.08603 0.41130 0.18835 -0.18100
C 	C 	0.94398 0.37940 0.56643 0.28800
C 	C 	0.97400 0.36030 0.63940 -0.00100
O 	O 	0.94300 0.28970 0.53633 -0.26000
C 	C 	0.00639 0.48140 0.67738 0.30400
N 	N 	0.06908 0.78400 0.96968 -0.18500
C 	C 	0.04143 0.89060 0.94172 0.06100
H 	H 	0.02170 0.90160 0.89650 0.00500
C 	C 	0.03987 0.98610 0.97495 -0.08300
H 	H 	0.01950 0.06050 0.95290 0.06900
C 	C 	0.06831 0.97200 0.04066 -0.00100
C 	C 	0.07014 0.06910 0.08214 0.21300
C 	C 	0.06829 0.31110 0.09785 0.13300
C 	C 	0.09717 0.86050 0.07038 -0.08200
H 	H 	0.11690 0.84650 0.11540 0.07300
C 	C 	0.09663 0.77040 0.03333 0.04900
H 	H 	0.11680 0.69530 0.05410 0.02000
N 	N 	0.35550 0.84040 0.02313 -0.18000
C 	C 	0.33575 0.71820 0.00676 0.01300
H 	H 	0.35460 0.64100 0.02100 0.02600
C 	C 	0.28946 0.70310 0.97030 -0.01600
H 	H 	0.27640 0.61600 0.95980 0.04100
C 	C 	0.26168 0.81390 0.94870 -0.11400
H 	H 	0.22940 0.80410 0.92330 0.08900
C 	C 	0.28140 0.94080 0.96429 0.13500
C 	C 	0.32892 0.94850 0.00256 -0.05300
H 	H 	0.34310 0.03430 0.01460 0.07000
N 	N 	0.25200 0.05180 0.93894 -0.23700
H 	H 	0.22260 0.03590 0.91700 0.15400
C 	C 	0.07962 0.76790 0.83265 0.29900
N 	N 	0.15245 0.46420 0.82806 -0.18600
C 	C 	0.14986 0.35900 0.85370 0.06200
H 	H 	0.12240 0.34780 0.84530 0.00400
C 	C 	0.18466 0.26500 0.89191 -0.08600
H 	H 	0.18120 0.19240 0.90970 0.06800
C 	C 	0.22435 0.27800 0.90384 0.00400
C 	C 	0.26442 0.18180 0.94491 0.21400
O 	O 	0.30433 0.22040 0.98005 -0.23500
C 	C 	0.22757 0.38660 0.87670 -0.08300
H 	H 	0.25450 0.39890 0.88400 0.07300
C 	C 	0.19129 0.47570 0.83930 0.05000
H 	H 	0.19360 0.54880 0.82060 0.02000
C 	C 	0.00173 0.23030 0.66312 -0.37300
H 	H 	0.02270 0.23400 0.65640 0.14700
H 	H 	0.01990 0.21880 0.70920 0.13200
H 	H 	0.98040 0.15470 0.63900 0.13800
C 	C 	0.94046 0.35350 0.64892 -0.39400
H 	H 	0.91720 0.28390 0.62090 0.14500
H 	H 	0.95800 0.33220 0.69400 0.14400
H 	H 	0.92500 0.44010 0.63780 0.12400
C 	C 	0.08118 0.53310 0.16410 0.01600
H 	H 	0.08640 0.61070 0.18760 0.02500
C 	C 	0.06889 0.54790 0.10650 -0.01800
H 	H 	0.06530 0.63490 0.09020 0.04200
C 	C 	0.06168 0.43650 0.07200 -0.11400
H 	H 	0.05240 0.44560 0.03150 0.09000
C 	C 	0.07981 0.30210 0.15571 -0.05100
H 	H 	0.08340 0.21610 0.17280 0.07000
O 	O 	0.13276 0.76430 0.79560 -0.36600
C 	C 	0.12929 0.87060 0.81688 0.28300
C 	C 	0.08582 0.88840 0.80595 0.00000
C 	C 	0.08855 0.01890 0.83638 -0.37600
H 	H 	0.11550 0.01590 0.88310 0.14700
H 	H 	0.09180 0.09450 0.81800 0.13900
H 	H 	0.06020 0.02980 0.82750 0.13400
C 	C 	0.04342 0.89440 0.73228 -0.39000
H 	H 	0.01550 0.91660 0.72350 0.14200
H 	H 	0.04860 0.96310 0.71350 0.14400
H 	H 	0.03920 0.80730 0.71320 0.12400
Cu	Cu	0.42533 0.14257 0.58497 0.92100
Cu	Cu	0.40646 0.10600 0.73489 0.92200
O 	O 	0.58113 0.98470 0.96103 -0.36700
O 	O 	0.50900 0.09900 0.84235 -0.40500
O 	O 	0.42340 0.53020 0.37176 -0.23300
O 	O 	0.43026 0.29130 0.63496 -0.37900
O 	O 	0.41504 0.14970 0.67727 -0.40300
O 	O 	0.45191 0.95870 0.77271 -0.38100
O 	O 	0.34234 0.46340 0.65830 -0.25400
N 	N 	0.43642 0.69870 0.43588 -0.23700
H 	H 	0.44450 0.71460 0.47270 0.15600
N 	N 	0.41397 0.91130 0.31165 -0.18100
C 	C 	0.55602 0.87940 0.93357 0.28800
C 	C 	0.52600 0.86030 0.86060 -0.00100
O 	O 	0.55700 0.78970 0.96367 -0.26000
C 	C 	0.49361 0.98140 0.82262 0.30600
N 	N 	0.43092 0.28400 0.53032 -0.18600
C 	C 	0.45857 0.39060 0.55828 0.06300
H 	H 	0.47830 0.40160 0.60350 0.00400
C 	C 	0.46013 0.48610 0.52505 -0.08800
H 	H 	0.48050 0.56050 0.54710 0.07100
C 	C 	0.43169 0.47200 0.45934 0.00300
C 	C 	0.42986 0.56910 0.41786 0.21100
C 	C 	0.43171 0.81110 0.40215 0.13300
C 	C 	0.40283 0.36050 0.42962 -0.08500
H 	H 	0.38310 0.34650 0.38460 0.07400
C 	C 	0.40337 0.27040 0.46667 0.05200
H 	H 	0.38320 0.19530 0.44590 0.02000
N 	N 	0.14450 0.34040 0.47687 -0.18100
C 	C 	0.16425 0.21820 0.49324 0.01500
H 	H 	0.14540 0.14100 0.47900 0.02500
C 	C 	0.21054 0.20310 0.52970 -0.01800
H 	H 	0.22360 0.11600 0.54020 0.04200
C 	C 	0.23832 0.31390 0.55130 -0.11200
H 	H 	0.27060 0.30410 0.57670 0.08800
C 	C 	0.21860 0.44080 0.53571 0.13200
C 	C 	0.17108 0.44850 0.49744 -0.04700
H 	H 	0.15690 0.53430 0.48540 0.06700
N 	N 	0.24800 0.55180 0.56106 -0.23700
H 	H 	0.27740 0.53590 0.58300 0.15400
C 	C 	0.42038 0.26790 0.66735 0.29900
N 	N 	0.34755 0.96420 0.67194 -0.18600
C 	C 	0.35014 0.85900 0.64630 0.06200
H 	H 	0.37760 0.84780 0.65470 0.00400
C 	C 	0.31534 0.76500 0.60809 -0.08700
H 	H 	0.31880 0.69240 0.59030 0.06900
C 	C 	0.27565 0.77800 0.59616 0.00500
C 	C 	0.23558 0.68180 0.55509 0.21300
O 	O 	0.19567 0.72040 0.51995 -0.23500
C 	C 	0.27243 0.88660 0.62330 -0.08500
H 	H 	0.24550 0.89890 0.61600 0.07400
C 	C 	0.30871 0.97570 0.66070 0.05300
H 	H 	0.30640 0.04880 0.67940 0.01900
C 	C 	0.49827 0.73030 0.83688 -0.37300
H 	H 	0.47730 0.73400 0.84360 0.14700
H 	H 	0.48010 0.71880 0.79080 0.13200
H 	H 	0.51960 0.65470 0.86100 0.13800
C 	C 	0.55954 0.85350 0.85108 -0.39500
H 	H 	0.58280 0.78390 0.87910 0.14500
H 	H 	0.54200 0.83220 0.80600 0.14400
H 	H 	0.57500 0.94010 0.86220 0.12500
C 	C 	0.41882 0.03310 0.33590 0.01700
H 	H 	0.41360 0.11070 0.31240 0.02500
C 	C 	0.43111 0.04790 0.39350 -0.01800
H 	H 	0.43470 0.13490 0.40980 0.04200
C 	C 	0.43832 0.93650 0.42800 -0.11400
H 	H 	0.44760 0.94560 0.46850 0.09000
C 	C 	0.42019 0.80210 0.34429 -0.05100
H 	H 	0.41660 0.71610 0.32720 0.07000
O 	O 	0.36724 0.26430 0.70440 -0.36600
C 	C 	0.37071 0.37060 0.68312 0.28300
C 	C 	0.41418 0.38840 0.69405 -0.00000
C 	C 	0.41145 0.51890 0.66362 -0.37600
H 	H 	0.38450 0.51590 0.61690 0.14700
H 	H 	0.40820 0.59450 0.68200 0.13900
H 	H 	0.43980 0.52980 0.67250 0.13400
C 	C 	0.45658 0.39440 0.76772 -0.39000
H 	H 	0.48450 0.41660 0.77650 0.14200
H 	H 	0.45140 0.46310 0.78650 0.14400
H 	H 	0.46080 0.30730 0.78680 0.12400
Cu	Cu	0.92533 0.64257 0.58497 0.92200
Cu	Cu	0.90646 0.60600 0.73489 0.92300
O 	O 	0.08113 0.48470 0.96103 -0.36700
O 	O 	0.00900 0.59900 0.84235 -0.40300
O 	O 	0.92340 0.03020 0.37176 -0.23300
O 	O 	0.93026 0.79130 0.63496 -0.37900
O 	O 	0.91504 0.64970 0.67727 -0.40200
O 	O 	0.95191 0.45870 0.77271 -0.38100
O 	O 	0.84234 0.96340 0.65830 -0.25500
N 	N 	0.93642 0.19870 0.43588 -0.23700
H 	H 	0.94450 0.21460 0.47270 0.15600
N 	N 	0.91397 0.41130 0.31165 -0.18100
C 	C 	0.05602 0.37940 0.93357 0.28800
C 	C 	0.02600 0.36030 0.86060 0.00100
O 	O 	0.05700 0.28970 0.96367 -0.26000
C 	C 	0.99361 0.48140 0.82262 0.30300
N 	N 	0.93092 0.78400 0.53032 -0.18600
C 	C 	0.95857 0.89060 0.55828 0.06300
H 	H 	0.97830 0.90160 0.60350 0.00400
C 	C 	0.96013 0.98610 0.52505 -0.08900
H 	H 	0.98050 0.06050 0.54710 0.07100
C 	C 	0.93169 0.97200 0.45934 0.00300
C 	C 	0.92986 0.06910 0.41786 0.21200
C 	C 	0.93171 0.31110 0.40215 0.13300
C 	C 	0.90283 0.86050 0.42962 -0.08500
H 	H 	0.88310 0.84650 0.38460 0.07300
C 	C 	0.90337 0.77040 0.46667 0.05200
H 	H 	0.88320 0.69530 0.44590 0.02000
N 	N 	0.64450 0.84040 0.47687 -0.18000
C 	C 	0.66425 0.71820 0.49324 0.01500
H 	H 	0.64540 0.64100 0.47900 0.02500
C 	C 	0.71054 0.70310 0.52970 -0.01800
H 	H 	0.72360 0.61600 0.54020 0.04200
C 	C 	0.73832 0.81390 0.55130 -0.11200
H 	H 	0.77060 0.80410 0.57670 0.08800
C 	C 	0.71860 0.94080 0.53571 0.13100
C 	C 	0.67108 0.94850 0.49744 -0.04900
H 	H 	0.65690 0.03430 0.48540 0.06900
N 	N 	0.74800 0.05180 0.56106 -0.23600
H 	H 	0.77740 0.03590 0.58300 0.15400
C 	C 	0.92038 0.76790 0.66735 0.29900
N 	N 	0.84755 0.46420 0.67194 -0.18600
C 	C 	0.85014 0.35900 0.64630 0.06200
H 	H 	0.87760 0.34780 0.65470 0.00400
C 	C 	0.81534 0.26500 0.60809 -0.08600
H 	H 	0.81880 0.19240 0.59030 0.06900
C 	C 	0.77565 0.27800 0.59616 0.00400
C 	C 	0.73558 0.18180 0.55509 0.21300
O 	O 	0.69567 0.22040 0.51995 -0.23500
C 	C 	0.77243 0.38660 0.62330 -0.08300
H 	H 	0.74550 0.39890 0.61600 0.07300
C 	C 	0.80871 0.47570 0.66070 0.05000
H 	H 	0.80640 0.54880 0.67940 0.02000
C 	C 	0.99827 0.23030 0.83688 -0.37500
H 	H 	0.97730 0.23400 0.84360 0.14700
H 	H 	0.98010 0.21880 0.79080 0.13300
H 	H 	0.01960 0.15470 0.86100 0.13900
C 	C 	0.05954 0.35350 0.85108 -0.39500
H 	H 	0.08280 0.28390 0.87910 0.14500
H 	H 	0.04200 0.33220 0.80600 0.14400
H 	H 	0.07500 0.44010 0.86220 0.12500
C 	C 	0.91882 0.53310 0.33590 0.01600
H 	H 	0.91360 0.61070 0.31240 0.02500
C 	C 	0.93111 0.54790 0.39350 -0.01800
H 	H 	0.93470 0.63490 0.40980 0.04200
C 	C 	0.93832 0.43650 0.42800 -0.11400
H 	H 	0.94760 0.44560 0.46850 0.09000
C 	C 	0.92019 0.30210 0.34429 -0.05100
H 	H 	0.91660 0.21610 0.32720 0.07000
O 	O 	0.86724 0.76430 0.70440 -0.36600
C 	C 	0.87071 0.87060 0.68312 0.28300
C 	C 	0.91418 0.88840 0.69405 -0.00100
C 	C 	0.91145 0.01890 0.66362 -0.37500
H 	H 	0.88450 0.01590 0.61690 0.14700
H 	H 	0.90820 0.09450 0.68200 0.13900
H 	H 	0.93980 0.02980 0.67250 0.13400
C 	C 	0.95658 0.89440 0.76772 -0.39000
H 	H 	0.98450 0.91660 0.77650 0.14100
H 	H 	0.95140 0.96310 0.78650 0.14400
H 	H 	0.96080 0.80730 0.78680 0.12400
