data_crystal

_cell_length_a 34.48850
_cell_length_b 34.48850
_cell_length_c 34.48850
_cell_angle_alpha 90.00000
_cell_angle_beta  90.00000
_cell_angle_gamma 90.00000

_symmetry_space_group_name_	'P 1'
_symmetry_space_group_name_H-M	'P 1'

loop_
_symmetry_equiv_pos_as_xyz
  x,y,z

loop_
_atom_site_label
_atom_site_type_symbol
_atom_site_fract_x
_atom_site_fract_y
_atom_site_fract_z
_atom_site_charge
C 	C 	0.87558 0.03517 0.07321 0.09600
H 	H 	0.86570 0.05420 0.08950 -0.03500
C 	C 	0.90413 0.98498 0.05365 -0.02800
H 	H 	0.91810 0.96190 0.05300 0.02900
C 	C 	0.88980 0.00326 0.02221 0.05800
C 	C 	0.89960 0.98830 0.98350 0.17500
H 	H 	0.91480 0.96610 0.98350 -0.03500
C 	C 	0.85150 0.04430 0.92130 -0.22800
H 	H 	0.85030 0.02740 0.90030 0.07800
N 	N 	0.89060 0.00100 0.94940 -0.06300
N 	N 	0.86980 0.03480 0.95280 -0.06800
C 	C 	0.83270 0.08230 0.91958 0.05200
C 	C 	0.80960 0.10200 0.89400 -0.03300
H 	H 	0.80650 0.09600 0.86790 0.02400
C 	C 	0.80437 0.12825 0.94970 0.09700
H 	H 	0.79700 0.14510 0.96940 -0.04100
N 	N 	0.87100 0.03601 0.03499 -0.23100
N 	N 	0.89542 0.00481 0.08614 -0.26500
N 	N 	0.82826 0.09881 0.95519 -0.23400
N 	N 	0.79177 0.13149 0.91295 -0.26600
Cu	Cu	0.85991 0.08173 0.00098 0.86900
C 	C 	0.88710 0.00090 0.98000 -0.21300
H 	H 	0.89390 0.97820 0.96710 0.06600
C 	C 	0.85920 0.05220 0.90490 0.19300
H 	H 	0.86180 0.05250 0.87810 -0.04400
N 	N 	0.87520 0.03080 0.96100 0.00200
N 	N 	0.87960 0.02530 0.92170 -0.06300
Zn	Zn	0.91827 0.99902 0.14009 1.18100
C 	C 	0.37558 0.53517 0.57321 0.09600
H 	H 	0.36570 0.55420 0.58950 -0.03500
C 	C 	0.40413 0.48498 0.55365 -0.02800
H 	H 	0.41810 0.46190 0.55300 0.02900
C 	C 	0.38980 0.50326 0.52221 0.05800
C 	C 	0.39960 0.48830 0.48350 0.17500
H 	H 	0.41480 0.46610 0.48350 -0.03500
C 	C 	0.35150 0.54430 0.42130 -0.22800
H 	H 	0.35030 0.52740 0.40030 0.07800
N 	N 	0.39060 0.50100 0.44940 -0.06300
N 	N 	0.36980 0.53480 0.45280 -0.06800
C 	C 	0.33270 0.58230 0.41958 0.05200
C 	C 	0.30960 0.60200 0.39400 -0.03300
H 	H 	0.30650 0.59600 0.36790 0.02400
C 	C 	0.30437 0.62825 0.44970 0.09700
H 	H 	0.29700 0.64510 0.46940 -0.04100
N 	N 	0.37100 0.53601 0.53499 -0.23100
N 	N 	0.39542 0.50481 0.58614 -0.26500
N 	N 	0.32826 0.59881 0.45519 -0.23400
N 	N 	0.29177 0.63149 0.41295 -0.26600
Cu	Cu	0.35991 0.58173 0.50098 0.86800
C 	C 	0.38710 0.50090 0.48000 -0.21400
H 	H 	0.39390 0.47820 0.46710 0.06500
C 	C 	0.35920 0.55220 0.40490 0.19200
H 	H 	0.36180 0.55250 0.37810 -0.04500
N 	N 	0.37520 0.53080 0.46100 0.00100
N 	N 	0.37960 0.52530 0.42170 -0.06400
Zn	Zn	0.41827 0.49902 0.64009 1.18000
C 	C 	0.62442 0.96483 0.57321 0.09500
H 	H 	0.63430 0.94580 0.58950 -0.03600
C 	C 	0.59587 0.01502 0.55365 -0.02900
H 	H 	0.58190 0.03810 0.55300 0.02800
C 	C 	0.61020 0.99674 0.52221 0.05700
C 	C 	0.60040 0.01170 0.48350 0.17400
H 	H 	0.58520 0.03390 0.48350 -0.03600
C 	C 	0.64850 0.95570 0.42130 -0.22900
H 	H 	0.64970 0.97260 0.40030 0.07700
N 	N 	0.60940 0.99900 0.44940 -0.06400
N 	N 	0.63020 0.96520 0.45280 -0.06900
C 	C 	0.66730 0.91770 0.41958 0.05100
C 	C 	0.69040 0.89800 0.39400 -0.03400
H 	H 	0.69350 0.90400 0.36790 0.02300
C 	C 	0.69563 0.87175 0.44970 0.09600
H 	H 	0.70300 0.85490 0.46940 -0.04200
N 	N 	0.62900 0.96399 0.53499 -0.23200
N 	N 	0.60458 0.99519 0.58614 -0.26600
N 	N 	0.67174 0.90119 0.45519 -0.23500
N 	N 	0.70823 0.86851 0.41295 -0.26700
Cu	Cu	0.64009 0.91827 0.50098 0.86800
C 	C 	0.61290 0.99910 0.48000 -0.21400
H 	H 	0.60610 0.02180 0.46710 0.06500
C 	C 	0.64080 0.94780 0.40490 0.19200
H 	H 	0.63820 0.94750 0.37810 -0.04500
N 	N 	0.62480 0.96920 0.46100 0.00100
N 	N 	0.62040 0.97470 0.42170 -0.06400
Zn	Zn	0.58173 0.00098 0.64009 1.18000
C 	C 	0.12442 0.46483 0.07321 0.09500
H 	H 	0.13430 0.44580 0.08950 -0.03600
C 	C 	0.09587 0.51502 0.05365 -0.02900
H 	H 	0.08190 0.53810 0.05300 0.02800
C 	C 	0.11020 0.49674 0.02221 0.05700
C 	C 	0.10040 0.51170 0.98350 0.17400
H 	H 	0.08520 0.53390 0.98350 -0.03600
C 	C 	0.14850 0.45570 0.92130 -0.22900
H 	H 	0.14970 0.47260 0.90030 0.07700
N 	N 	0.10940 0.49900 0.94940 -0.06400
N 	N 	0.13020 0.46520 0.95280 -0.06900
C 	C 	0.16730 0.41770 0.91958 0.05100
C 	C 	0.19040 0.39800 0.89400 -0.03400
H 	H 	0.19350 0.40400 0.86790 0.02300
C 	C 	0.19563 0.37175 0.94970 0.09600
H 	H 	0.20300 0.35490 0.96940 -0.04200
N 	N 	0.12900 0.46399 0.03499 -0.23200
N 	N 	0.10458 0.49519 0.08614 -0.26600
N 	N 	0.17174 0.40119 0.95519 -0.23500
N 	N 	0.20823 0.36851 0.91295 -0.26700
Cu	Cu	0.14009 0.41827 0.00098 0.86800
C 	C 	0.11290 0.49910 0.98000 -0.21400
H 	H 	0.10610 0.52180 0.96710 0.06500
C 	C 	0.14080 0.44780 0.90490 0.19200
H 	H 	0.13820 0.44750 0.87810 -0.04500
N 	N 	0.12480 0.46920 0.96100 0.00100
N 	N 	0.12040 0.47470 0.92170 -0.06400
Zn	Zn	0.08173 0.50098 0.14009 1.18000
C 	C 	0.12442 0.53517 0.42679 0.09500
H 	H 	0.13430 0.55420 0.41050 -0.03600
C 	C 	0.09587 0.48498 0.44635 -0.02900
H 	H 	0.08190 0.46190 0.44700 0.02800
C 	C 	0.11020 0.50326 0.47779 0.05700
C 	C 	0.10040 0.48830 0.51650 0.17400
H 	H 	0.08520 0.46610 0.51650 -0.03600
C 	C 	0.14850 0.54430 0.57870 -0.22900
H 	H 	0.14970 0.52740 0.59970 0.07700
N 	N 	0.10940 0.50100 0.55060 -0.06400
N 	N 	0.13020 0.53480 0.54720 -0.06900
C 	C 	0.16730 0.58230 0.58042 0.05100
C 	C 	0.19040 0.60200 0.60600 -0.03400
H 	H 	0.19350 0.59600 0.63210 0.02300
C 	C 	0.19563 0.62825 0.55030 0.09600
H 	H 	0.20300 0.64510 0.53060 -0.04200
N 	N 	0.12900 0.53601 0.46501 -0.23200
N 	N 	0.10458 0.50481 0.41386 -0.26600
N 	N 	0.17174 0.59881 0.54481 -0.23500
N 	N 	0.20823 0.63149 0.58705 -0.26700
Cu	Cu	0.14009 0.58173 0.49902 0.86800
C 	C 	0.11290 0.50090 0.52000 -0.21400
H 	H 	0.10610 0.47820 0.53290 0.06500
C 	C 	0.14080 0.55220 0.59510 0.19200
H 	H 	0.13820 0.55250 0.62190 -0.04500
N 	N 	0.12480 0.53080 0.53900 0.00100
N 	N 	0.12040 0.52530 0.57830 -0.06400
Zn	Zn	0.08173 0.49902 0.35991 1.18000
C 	C 	0.62442 0.03517 0.92679 0.09500
H 	H 	0.63430 0.05420 0.91050 -0.03600
C 	C 	0.59587 0.98498 0.94635 -0.02900
H 	H 	0.58190 0.96190 0.94700 0.02800
C 	C 	0.61020 0.00326 0.97779 0.05700
C 	C 	0.60040 0.98830 0.01650 0.17400
H 	H 	0.58520 0.96610 0.01650 -0.03600
C 	C 	0.64850 0.04430 0.07870 -0.22900
H 	H 	0.64970 0.02740 0.09970 0.07700
N 	N 	0.60940 0.00100 0.05060 -0.06400
N 	N 	0.63020 0.03480 0.04720 -0.06900
C 	C 	0.66730 0.08230 0.08042 0.05100
C 	C 	0.69040 0.10200 0.10600 -0.03400
H 	H 	0.69350 0.09600 0.13210 0.02300
C 	C 	0.69563 0.12825 0.05030 0.09600
H 	H 	0.70300 0.14510 0.03060 -0.04200
N 	N 	0.62900 0.03601 0.96501 -0.23200
N 	N 	0.60458 0.00481 0.91386 -0.26600
N 	N 	0.67174 0.09881 0.04481 -0.23500
N 	N 	0.70823 0.13149 0.08705 -0.26700
Cu	Cu	0.64009 0.08173 0.99902 0.86800
C 	C 	0.61290 0.00090 0.02000 -0.21400
H 	H 	0.60610 0.97820 0.03290 0.06500
C 	C 	0.64080 0.05220 0.09510 0.19200
H 	H 	0.63820 0.05250 0.12190 -0.04500
N 	N 	0.62480 0.03080 0.03900 0.00100
N 	N 	0.62040 0.02530 0.07830 -0.06400
Zn	Zn	0.58173 0.99902 0.85991 1.18000
C 	C 	0.37558 0.46483 0.92679 0.09500
H 	H 	0.36570 0.44580 0.91050 -0.03600
C 	C 	0.40413 0.51502 0.94635 -0.02900
H 	H 	0.41810 0.53810 0.94700 0.02800
C 	C 	0.38980 0.49674 0.97779 0.05700
C 	C 	0.39960 0.51170 0.01650 0.17400
H 	H 	0.41480 0.53390 0.01650 -0.03600
C 	C 	0.35150 0.45570 0.07870 -0.22900
H 	H 	0.35030 0.47260 0.09970 0.07700
N 	N 	0.39060 0.49900 0.05060 -0.06400
N 	N 	0.36980 0.46520 0.04720 -0.06900
C 	C 	0.33270 0.41770 0.08042 0.05100
C 	C 	0.30960 0.39800 0.10600 -0.03400
H 	H 	0.30650 0.40400 0.13210 0.02300
C 	C 	0.30437 0.37175 0.05030 0.09600
H 	H 	0.29700 0.35490 0.03060 -0.04200
N 	N 	0.37100 0.46399 0.96501 -0.23200
N 	N 	0.39542 0.49519 0.91386 -0.26600
N 	N 	0.32826 0.40119 0.04481 -0.23500
N 	N 	0.29177 0.36851 0.08705 -0.26700
Cu	Cu	0.35991 0.41827 0.99902 0.86800
C 	C 	0.38710 0.49910 0.02000 -0.21400
H 	H 	0.39390 0.52180 0.03290 0.06500
C 	C 	0.35920 0.44780 0.09510 0.19200
H 	H 	0.36180 0.44750 0.12190 -0.04500
N 	N 	0.37520 0.46920 0.03900 0.00100
N 	N 	0.37960 0.47470 0.07830 -0.06400
Zn	Zn	0.41827 0.50098 0.85991 1.18000
C 	C 	0.87558 0.96483 0.42679 0.09500
H 	H 	0.86570 0.94580 0.41050 -0.03600
C 	C 	0.90413 0.01502 0.44635 -0.02900
H 	H 	0.91810 0.03810 0.44700 0.02800
C 	C 	0.88980 0.99674 0.47779 0.05700
C 	C 	0.89960 0.01170 0.51650 0.17400
H 	H 	0.91480 0.03390 0.51650 -0.03600
C 	C 	0.85150 0.95570 0.57870 -0.22900
H 	H 	0.85030 0.97260 0.59970 0.07700
N 	N 	0.89060 0.99900 0.55060 -0.06400
N 	N 	0.86980 0.96520 0.54720 -0.06900
C 	C 	0.83270 0.91770 0.58042 0.05100
C 	C 	0.80960 0.89800 0.60600 -0.03400
H 	H 	0.80650 0.90400 0.63210 0.02300
C 	C 	0.80437 0.87175 0.55030 0.09600
H 	H 	0.79700 0.85490 0.53060 -0.04200
N 	N 	0.87100 0.96399 0.46501 -0.23200
N 	N 	0.89542 0.99519 0.41386 -0.26600
N 	N 	0.82826 0.90119 0.54481 -0.23500
N 	N 	0.79177 0.86851 0.58705 -0.26700
Cu	Cu	0.85991 0.91827 0.49902 0.86800
C 	C 	0.88710 0.99910 0.52000 -0.21400
H 	H 	0.89390 0.02180 0.53290 0.06500
C 	C 	0.85920 0.94780 0.59510 0.19200
H 	H 	0.86180 0.94750 0.62190 -0.04500
N 	N 	0.87520 0.96920 0.53900 0.00100
N 	N 	0.87960 0.97470 0.57830 -0.06400
Zn	Zn	0.91827 0.00098 0.35991 1.18000
C 	C 	0.07321 0.87558 0.03517 0.09500
H 	H 	0.08950 0.86570 0.05420 -0.03600
C 	C 	0.05365 0.90413 0.98498 -0.02900
H 	H 	0.05300 0.91810 0.96190 0.02800
C 	C 	0.02221 0.88980 0.00326 0.05700
C 	C 	0.98350 0.89960 0.98830 0.17400
H 	H 	0.98350 0.91480 0.96610 -0.03600
C 	C 	0.92130 0.85150 0.04430 -0.22900
H 	H 	0.90030 0.85030 0.02740 0.07700
N 	N 	0.94940 0.89060 0.00100 -0.06400
N 	N 	0.95280 0.86980 0.03480 -0.06900
C 	C 	0.91958 0.83270 0.08230 0.05100
C 	C 	0.89400 0.80960 0.10200 -0.03400
H 	H 	0.86790 0.80650 0.09600 0.02300
C 	C 	0.94970 0.80437 0.12825 0.09600
H 	H 	0.96940 0.79700 0.14510 -0.04200
N 	N 	0.03499 0.87100 0.03601 -0.23200
N 	N 	0.08614 0.89542 0.00481 -0.26600
N 	N 	0.95519 0.82826 0.09881 -0.23500
N 	N 	0.91295 0.79177 0.13149 -0.26700
Cu	Cu	0.00098 0.85991 0.08173 0.86800
C 	C 	0.98000 0.88710 0.00090 -0.21400
H 	H 	0.96710 0.89390 0.97820 0.06500
C 	C 	0.90490 0.85920 0.05220 0.19200
H 	H 	0.87810 0.86180 0.05250 -0.04500
N 	N 	0.96100 0.87520 0.03080 0.00100
N 	N 	0.92170 0.87960 0.02530 -0.06400
Zn	Zn	0.14009 0.91827 0.99902 1.18000
C 	C 	0.57321 0.37558 0.53517 0.09500
H 	H 	0.58950 0.36570 0.55420 -0.03600
C 	C 	0.55365 0.40413 0.48498 -0.02900
H 	H 	0.55300 0.41810 0.46190 0.02800
C 	C 	0.52221 0.38980 0.50326 0.05700
C 	C 	0.48350 0.39960 0.48830 0.17400
H 	H 	0.48350 0.41480 0.46610 -0.03600
C 	C 	0.42130 0.35150 0.54430 -0.22900
H 	H 	0.40030 0.35030 0.52740 0.07700
N 	N 	0.44940 0.39060 0.50100 -0.06400
N 	N 	0.45280 0.36980 0.53480 -0.06900
C 	C 	0.41958 0.33270 0.58230 0.05100
C 	C 	0.39400 0.30960 0.60200 -0.03400
H 	H 	0.36790 0.30650 0.59600 0.02300
C 	C 	0.44970 0.30437 0.62825 0.09600
H 	H 	0.46940 0.29700 0.64510 -0.04200
N 	N 	0.53499 0.37100 0.53601 -0.23200
N 	N 	0.58614 0.39542 0.50481 -0.26600
N 	N 	0.45519 0.32826 0.59881 -0.23500
N 	N 	0.41295 0.29177 0.63149 -0.26700
Cu	Cu	0.50098 0.35991 0.58173 0.86800
C 	C 	0.48000 0.38710 0.50090 -0.21400
H 	H 	0.46710 0.39390 0.47820 0.06500
C 	C 	0.40490 0.35920 0.55220 0.19200
H 	H 	0.37810 0.36180 0.55250 -0.04500
N 	N 	0.46100 0.37520 0.53080 0.00100
N 	N 	0.42170 0.37960 0.52530 -0.06400
Zn	Zn	0.64009 0.41827 0.49902 1.18000
C 	C 	0.57321 0.62442 0.96483 0.09500
H 	H 	0.58950 0.63430 0.94580 -0.03600
C 	C 	0.55365 0.59587 0.01502 -0.02900
H 	H 	0.55300 0.58190 0.03810 0.02800
C 	C 	0.52221 0.61020 0.99674 0.05700
C 	C 	0.48350 0.60040 0.01170 0.17400
H 	H 	0.48350 0.58520 0.03390 -0.03600
C 	C 	0.42130 0.64850 0.95570 -0.22900
H 	H 	0.40030 0.64970 0.97260 0.07700
N 	N 	0.44940 0.60940 0.99900 -0.06400
N 	N 	0.45280 0.63020 0.96520 -0.06900
C 	C 	0.41958 0.66730 0.91770 0.05100
C 	C 	0.39400 0.69040 0.89800 -0.03400
H 	H 	0.36790 0.69350 0.90400 0.02300
C 	C 	0.44970 0.69563 0.87175 0.09600
H 	H 	0.46940 0.70300 0.85490 -0.04200
N 	N 	0.53499 0.62900 0.96399 -0.23200
N 	N 	0.58614 0.60458 0.99519 -0.26600
N 	N 	0.45519 0.67174 0.90119 -0.23500
N 	N 	0.41295 0.70823 0.86851 -0.26700
Cu	Cu	0.50098 0.64009 0.91827 0.86800
C 	C 	0.48000 0.61290 0.99910 -0.21400
H 	H 	0.46710 0.60610 0.02180 0.06500
C 	C 	0.40490 0.64080 0.94780 0.19200
H 	H 	0.37810 0.63820 0.94750 -0.04500
N 	N 	0.46100 0.62480 0.96920 0.00100
N 	N 	0.42170 0.62040 0.97470 -0.06400
Zn	Zn	0.64009 0.58173 0.00098 1.18000
C 	C 	0.07321 0.12442 0.46483 0.09500
H 	H 	0.08950 0.13430 0.44580 -0.03600
C 	C 	0.05365 0.09587 0.51502 -0.02900
H 	H 	0.05300 0.08190 0.53810 0.02800
C 	C 	0.02221 0.11020 0.49674 0.05700
C 	C 	0.98350 0.10040 0.51170 0.17400
H 	H 	0.98350 0.08520 0.53390 -0.03600
C 	C 	0.92130 0.14850 0.45570 -0.22900
H 	H 	0.90030 0.14970 0.47260 0.07700
N 	N 	0.94940 0.10940 0.49900 -0.06400
N 	N 	0.95280 0.13020 0.46520 -0.06900
C 	C 	0.91958 0.16730 0.41770 0.05100
C 	C 	0.89400 0.19040 0.39800 -0.03400
H 	H 	0.86790 0.19350 0.40400 0.02300
C 	C 	0.94970 0.19563 0.37175 0.09600
H 	H 	0.96940 0.20300 0.35490 -0.04200
N 	N 	0.03499 0.12900 0.46399 -0.23200
N 	N 	0.08614 0.10458 0.49519 -0.26600
N 	N 	0.95519 0.17174 0.40119 -0.23500
N 	N 	0.91295 0.20823 0.36851 -0.26700
Cu	Cu	0.00098 0.14009 0.41827 0.86800
C 	C 	0.98000 0.11290 0.49910 -0.21400
H 	H 	0.96710 0.10610 0.52180 0.06500
C 	C 	0.90490 0.14080 0.44780 0.19200
H 	H 	0.87810 0.13820 0.44750 -0.04500
N 	N 	0.96100 0.12480 0.46920 0.00100
N 	N 	0.92170 0.12040 0.47470 -0.06400
Zn	Zn	0.14009 0.08173 0.50098 1.18000
C 	C 	0.42679 0.12442 0.53517 0.09500
H 	H 	0.41050 0.13430 0.55420 -0.03600
C 	C 	0.44635 0.09587 0.48498 -0.02900
H 	H 	0.44700 0.08190 0.46190 0.02800
C 	C 	0.47779 0.11020 0.50326 0.05700
C 	C 	0.51650 0.10040 0.48830 0.17400
H 	H 	0.51650 0.08520 0.46610 -0.03600
C 	C 	0.57870 0.14850 0.54430 -0.22900
H 	H 	0.59970 0.14970 0.52740 0.07700
N 	N 	0.55060 0.10940 0.50100 -0.06400
N 	N 	0.54720 0.13020 0.53480 -0.06900
C 	C 	0.58042 0.16730 0.58230 0.05100
C 	C 	0.60600 0.19040 0.60200 -0.03400
H 	H 	0.63210 0.19350 0.59600 0.02300
C 	C 	0.55030 0.19563 0.62825 0.09600
H 	H 	0.53060 0.20300 0.64510 -0.04200
N 	N 	0.46501 0.12900 0.53601 -0.23200
N 	N 	0.41386 0.10458 0.50481 -0.26600
N 	N 	0.54481 0.17174 0.59881 -0.23500
N 	N 	0.58705 0.20823 0.63149 -0.26700
Cu	Cu	0.49902 0.14009 0.58173 0.86800
C 	C 	0.52000 0.11290 0.50090 -0.21400
H 	H 	0.53290 0.10610 0.47820 0.06500
C 	C 	0.59510 0.14080 0.55220 0.19200
H 	H 	0.62190 0.13820 0.55250 -0.04500
N 	N 	0.53900 0.12480 0.53080 0.00100
N 	N 	0.57830 0.12040 0.52530 -0.06400
Zn	Zn	0.35991 0.08173 0.49902 1.18000
C 	C 	0.92679 0.62442 0.03517 0.09500
H 	H 	0.91050 0.63430 0.05420 -0.03600
C 	C 	0.94635 0.59587 0.98498 -0.02900
H 	H 	0.94700 0.58190 0.96190 0.02800
C 	C 	0.97779 0.61020 0.00326 0.05700
C 	C 	0.01650 0.60040 0.98830 0.17400
H 	H 	0.01650 0.58520 0.96610 -0.03600
C 	C 	0.07870 0.64850 0.04430 -0.22900
H 	H 	0.09970 0.64970 0.02740 0.07700
N 	N 	0.05060 0.60940 0.00100 -0.06400
N 	N 	0.04720 0.63020 0.03480 -0.06900
C 	C 	0.08042 0.66730 0.08230 0.05100
C 	C 	0.10600 0.69040 0.10200 -0.03400
H 	H 	0.13210 0.69350 0.09600 0.02300
C 	C 	0.05030 0.69563 0.12825 0.09600
H 	H 	0.03060 0.70300 0.14510 -0.04200
N 	N 	0.96501 0.62900 0.03601 -0.23200
N 	N 	0.91386 0.60458 0.00481 -0.26600
N 	N 	0.04481 0.67174 0.09881 -0.23500
N 	N 	0.08705 0.70823 0.13149 -0.26700
Cu	Cu	0.99902 0.64009 0.08173 0.86800
C 	C 	0.02000 0.61290 0.00090 -0.21400
H 	H 	0.03290 0.60610 0.97820 0.06500
C 	C 	0.09510 0.64080 0.05220 0.19200
H 	H 	0.12190 0.63820 0.05250 -0.04500
N 	N 	0.03900 0.62480 0.03080 0.00100
N 	N 	0.07830 0.62040 0.02530 -0.06400
Zn	Zn	0.85991 0.58173 0.99902 1.18000
C 	C 	0.92679 0.37558 0.46483 0.09500
H 	H 	0.91050 0.36570 0.44580 -0.03600
C 	C 	0.94635 0.40413 0.51502 -0.02900
H 	H 	0.94700 0.41810 0.53810 0.02800
C 	C 	0.97779 0.38980 0.49674 0.05700
C 	C 	0.01650 0.39960 0.51170 0.17400
H 	H 	0.01650 0.41480 0.53390 -0.03600
C 	C 	0.07870 0.35150 0.45570 -0.22900
H 	H 	0.09970 0.35030 0.47260 0.07700
N 	N 	0.05060 0.39060 0.49900 -0.06400
N 	N 	0.04720 0.36980 0.46520 -0.06900
C 	C 	0.08042 0.33270 0.41770 0.05100
C 	C 	0.10600 0.30960 0.39800 -0.03400
H 	H 	0.13210 0.30650 0.40400 0.02300
C 	C 	0.05030 0.30437 0.37175 0.09600
H 	H 	0.03060 0.29700 0.35490 -0.04200
N 	N 	0.96501 0.37100 0.46399 -0.23200
N 	N 	0.91386 0.39542 0.49519 -0.26600
N 	N 	0.04481 0.32826 0.40119 -0.23500
N 	N 	0.08705 0.29177 0.36851 -0.26700
Cu	Cu	0.99902 0.35991 0.41827 0.86800
C 	C 	0.02000 0.38710 0.49910 -0.21400
H 	H 	0.03290 0.39390 0.52180 0.06500
C 	C 	0.09510 0.35920 0.44780 0.19200
H 	H 	0.12190 0.36180 0.44750 -0.04500
N 	N 	0.03900 0.37520 0.46920 0.00100
N 	N 	0.07830 0.37960 0.47470 -0.06400
Zn	Zn	0.85991 0.41827 0.50098 1.18000
C 	C 	0.42679 0.87558 0.96483 0.09500
H 	H 	0.41050 0.86570 0.94580 -0.03600
C 	C 	0.44635 0.90413 0.01502 -0.02900
H 	H 	0.44700 0.91810 0.03810 0.02800
C 	C 	0.47779 0.88980 0.99674 0.05700
C 	C 	0.51650 0.89960 0.01170 0.17400
H 	H 	0.51650 0.91480 0.03390 -0.03600
C 	C 	0.57870 0.85150 0.95570 -0.22900
H 	H 	0.59970 0.85030 0.97260 0.07700
N 	N 	0.55060 0.89060 0.99900 -0.06400
N 	N 	0.54720 0.86980 0.96520 -0.06900
C 	C 	0.58042 0.83270 0.91770 0.05100
C 	C 	0.60600 0.80960 0.89800 -0.03400
H 	H 	0.63210 0.80650 0.90400 0.02300
C 	C 	0.55030 0.80437 0.87175 0.09600
H 	H 	0.53060 0.79700 0.85490 -0.04200
N 	N 	0.46501 0.87100 0.96399 -0.23200
N 	N 	0.41386 0.89542 0.99519 -0.26600
N 	N 	0.54481 0.82826 0.90119 -0.23500
N 	N 	0.58705 0.79177 0.86851 -0.26700
Cu	Cu	0.49902 0.85991 0.91827 0.86800
C 	C 	0.52000 0.88710 0.99910 -0.21400
H 	H 	0.53290 0.89390 0.02180 0.06500
C 	C 	0.59510 0.85920 0.94780 0.19200
H 	H 	0.62190 0.86180 0.94750 -0.04500
N 	N 	0.53900 0.87520 0.96920 0.00100
N 	N 	0.57830 0.87960 0.97470 -0.06400
Zn	Zn	0.35991 0.91827 0.00098 1.18000
C 	C 	0.03517 0.07321 0.87558 0.09500
H 	H 	0.05420 0.08950 0.86570 -0.03600
C 	C 	0.98498 0.05365 0.90413 -0.02900
H 	H 	0.96190 0.05300 0.91810 0.02800
C 	C 	0.00326 0.02221 0.88980 0.05700
C 	C 	0.98830 0.98350 0.89960 0.17400
H 	H 	0.96610 0.98350 0.91480 -0.03600
C 	C 	0.04430 0.92130 0.85150 -0.22900
H 	H 	0.02740 0.90030 0.85030 0.07700
N 	N 	0.00100 0.94940 0.89060 -0.06400
N 	N 	0.03480 0.95280 0.86980 -0.06900
C 	C 	0.08230 0.91958 0.83270 0.05100
C 	C 	0.10200 0.89400 0.80960 -0.03400
H 	H 	0.09600 0.86790 0.80650 0.02300
C 	C 	0.12825 0.94970 0.80437 0.09600
H 	H 	0.14510 0.96940 0.79700 -0.04200
N 	N 	0.03601 0.03499 0.87100 -0.23200
N 	N 	0.00481 0.08614 0.89542 -0.26600
N 	N 	0.09881 0.95519 0.82826 -0.23500
N 	N 	0.13149 0.91295 0.79177 -0.26700
Cu	Cu	0.08173 0.00098 0.85991 0.86800
C 	C 	0.00090 0.98000 0.88710 -0.21400
H 	H 	0.97820 0.96710 0.89390 0.06500
C 	C 	0.05220 0.90490 0.85920 0.19200
H 	H 	0.05250 0.87810 0.86180 -0.04500
N 	N 	0.03080 0.96100 0.87520 0.00100
N 	N 	0.02530 0.92170 0.87960 -0.06400
Zn	Zn	0.99902 0.14009 0.91827 1.18000
C 	C 	0.53517 0.57321 0.37558 0.09500
H 	H 	0.55420 0.58950 0.36570 -0.03600
C 	C 	0.48498 0.55365 0.40413 -0.02900
H 	H 	0.46190 0.55300 0.41810 0.02800
C 	C 	0.50326 0.52221 0.38980 0.05700
C 	C 	0.48830 0.48350 0.39960 0.17400
H 	H 	0.46610 0.48350 0.41480 -0.03600
C 	C 	0.54430 0.42130 0.35150 -0.22900
H 	H 	0.52740 0.40030 0.35030 0.07700
N 	N 	0.50100 0.44940 0.39060 -0.06400
N 	N 	0.53480 0.45280 0.36980 -0.06900
C 	C 	0.58230 0.41958 0.33270 0.05100
C 	C 	0.60200 0.39400 0.30960 -0.03400
H 	H 	0.59600 0.36790 0.30650 0.02300
C 	C 	0.62825 0.44970 0.30437 0.09600
H 	H 	0.64510 0.46940 0.29700 -0.04200
N 	N 	0.53601 0.53499 0.37100 -0.23200
N 	N 	0.50481 0.58614 0.39542 -0.26600
N 	N 	0.59881 0.45519 0.32826 -0.23500
N 	N 	0.63149 0.41295 0.29177 -0.26700
Cu	Cu	0.58173 0.50098 0.35991 0.86800
C 	C 	0.50090 0.48000 0.38710 -0.21400
H 	H 	0.47820 0.46710 0.39390 0.06500
C 	C 	0.55220 0.40490 0.35920 0.19200
H 	H 	0.55250 0.37810 0.36180 -0.04500
N 	N 	0.53080 0.46100 0.37520 0.00100
N 	N 	0.52530 0.42170 0.37960 -0.06400
Zn	Zn	0.49902 0.64009 0.41827 1.18000
C 	C 	0.96483 0.57321 0.62442 0.09500
H 	H 	0.94580 0.58950 0.63430 -0.03600
C 	C 	0.01502 0.55365 0.59587 -0.02900
H 	H 	0.03810 0.55300 0.58190 0.02800
C 	C 	0.99674 0.52221 0.61020 0.05700
C 	C 	0.01170 0.48350 0.60040 0.17400
H 	H 	0.03390 0.48350 0.58520 -0.03600
C 	C 	0.95570 0.42130 0.64850 -0.22900
H 	H 	0.97260 0.40030 0.64970 0.07700
N 	N 	0.99900 0.44940 0.60940 -0.06400
N 	N 	0.96520 0.45280 0.63020 -0.06900
C 	C 	0.91770 0.41958 0.66730 0.05100
C 	C 	0.89800 0.39400 0.69040 -0.03400
H 	H 	0.90400 0.36790 0.69350 0.02300
C 	C 	0.87175 0.44970 0.69563 0.09600
H 	H 	0.85490 0.46940 0.70300 -0.04200
N 	N 	0.96399 0.53499 0.62900 -0.23200
N 	N 	0.99519 0.58614 0.60458 -0.26600
N 	N 	0.90119 0.45519 0.67174 -0.23500
N 	N 	0.86851 0.41295 0.70823 -0.26700
Cu	Cu	0.91827 0.50098 0.64009 0.86800
C 	C 	0.99910 0.48000 0.61290 -0.21400
H 	H 	0.02180 0.46710 0.60610 0.06500
C 	C 	0.94780 0.40490 0.64080 0.19200
H 	H 	0.94750 0.37810 0.63820 -0.04500
N 	N 	0.96920 0.46100 0.62480 0.00100
N 	N 	0.97470 0.42170 0.62040 -0.06400
Zn	Zn	0.00098 0.64009 0.58173 1.18000
C 	C 	0.46483 0.07321 0.12442 0.09500
H 	H 	0.44580 0.08950 0.13430 -0.03600
C 	C 	0.51502 0.05365 0.09587 -0.02900
H 	H 	0.53810 0.05300 0.08190 0.02800
C 	C 	0.49674 0.02221 0.11020 0.05700
C 	C 	0.51170 0.98350 0.10040 0.17400
H 	H 	0.53390 0.98350 0.08520 -0.03600
C 	C 	0.45570 0.92130 0.14850 -0.22900
H 	H 	0.47260 0.90030 0.14970 0.07700
N 	N 	0.49900 0.94940 0.10940 -0.06400
N 	N 	0.46520 0.95280 0.13020 -0.06900
C 	C 	0.41770 0.91958 0.16730 0.05100
C 	C 	0.39800 0.89400 0.19040 -0.03400
H 	H 	0.40400 0.86790 0.19350 0.02300
C 	C 	0.37175 0.94970 0.19563 0.09600
H 	H 	0.35490 0.96940 0.20300 -0.04200
N 	N 	0.46399 0.03499 0.12900 -0.23200
N 	N 	0.49519 0.08614 0.10458 -0.26600
N 	N 	0.40119 0.95519 0.17174 -0.23500
N 	N 	0.36851 0.91295 0.20823 -0.26700
Cu	Cu	0.41827 0.00098 0.14009 0.86800
C 	C 	0.49910 0.98000 0.11290 -0.21400
H 	H 	0.52180 0.96710 0.10610 0.06500
C 	C 	0.44780 0.90490 0.14080 0.19200
H 	H 	0.44750 0.87810 0.13820 -0.04500
N 	N 	0.46920 0.96100 0.12480 0.00100
N 	N 	0.47470 0.92170 0.12040 -0.06400
Zn	Zn	0.50098 0.14009 0.08173 1.18000
C 	C 	0.53517 0.42679 0.12442 0.09500
H 	H 	0.55420 0.41050 0.13430 -0.03600
C 	C 	0.48498 0.44635 0.09587 -0.02900
H 	H 	0.46190 0.44700 0.08190 0.02800
C 	C 	0.50326 0.47779 0.11020 0.05700
C 	C 	0.48830 0.51650 0.10040 0.17400
H 	H 	0.46610 0.51650 0.08520 -0.03600
C 	C 	0.54430 0.57870 0.14850 -0.22900
H 	H 	0.52740 0.59970 0.14970 0.07700
N 	N 	0.50100 0.55060 0.10940 -0.06400
N 	N 	0.53480 0.54720 0.13020 -0.06900
C 	C 	0.58230 0.58042 0.16730 0.05100
C 	C 	0.60200 0.60600 0.19040 -0.03400
H 	H 	0.59600 0.63210 0.19350 0.02300
C 	C 	0.62825 0.55030 0.19563 0.09600
H 	H 	0.64510 0.53060 0.20300 -0.04200
N 	N 	0.53601 0.46501 0.12900 -0.23200
N 	N 	0.50481 0.41386 0.10458 -0.26600
N 	N 	0.59881 0.54481 0.17174 -0.23500
N 	N 	0.63149 0.58705 0.20823 -0.26700
Cu	Cu	0.58173 0.49902 0.14009 0.86800
C 	C 	0.50090 0.52000 0.11290 -0.21400
H 	H 	0.47820 0.53290 0.10610 0.06500
C 	C 	0.55220 0.59510 0.14080 0.19200
H 	H 	0.55250 0.62190 0.13820 -0.04500
N 	N 	0.53080 0.53900 0.12480 0.00100
N 	N 	0.52530 0.57830 0.12040 -0.06400
Zn	Zn	0.49902 0.35991 0.08173 1.18000
C 	C 	0.03517 0.92679 0.62442 0.09500
H 	H 	0.05420 0.91050 0.63430 -0.03600
C 	C 	0.98498 0.94635 0.59587 -0.02900
H 	H 	0.96190 0.94700 0.58190 0.02800
C 	C 	0.00326 0.97779 0.61020 0.05700
C 	C 	0.98830 0.01650 0.60040 0.17400
H 	H 	0.96610 0.01650 0.58520 -0.03600
C 	C 	0.04430 0.07870 0.64850 -0.22900
H 	H 	0.02740 0.09970 0.64970 0.07700
N 	N 	0.00100 0.05060 0.60940 -0.06400
N 	N 	0.03480 0.04720 0.63020 -0.06900
C 	C 	0.08230 0.08042 0.66730 0.05100
C 	C 	0.10200 0.10600 0.69040 -0.03400
H 	H 	0.09600 0.13210 0.69350 0.02300
C 	C 	0.12825 0.05030 0.69563 0.09600
H 	H 	0.14510 0.03060 0.70300 -0.04200
N 	N 	0.03601 0.96501 0.62900 -0.23200
N 	N 	0.00481 0.91386 0.60458 -0.26600
N 	N 	0.09881 0.04481 0.67174 -0.23500
N 	N 	0.13149 0.08705 0.70823 -0.26700
Cu	Cu	0.08173 0.99902 0.64009 0.86800
C 	C 	0.00090 0.02000 0.61290 -0.21400
H 	H 	0.97820 0.03290 0.60610 0.06500
C 	C 	0.05220 0.09510 0.64080 0.19200
H 	H 	0.05250 0.12190 0.63820 -0.04500
N 	N 	0.03080 0.03900 0.62480 0.00100
N 	N 	0.02530 0.07830 0.62040 -0.06400
Zn	Zn	0.99902 0.85991 0.58173 1.18000
C 	C 	0.46483 0.92679 0.37558 0.09500
H 	H 	0.44580 0.91050 0.36570 -0.03600
C 	C 	0.51502 0.94635 0.40413 -0.02900
H 	H 	0.53810 0.94700 0.41810 0.02800
C 	C 	0.49674 0.97779 0.38980 0.05700
C 	C 	0.51170 0.01650 0.39960 0.17400
H 	H 	0.53390 0.01650 0.41480 -0.03600
C 	C 	0.45570 0.07870 0.35150 -0.22900
H 	H 	0.47260 0.09970 0.35030 0.07700
N 	N 	0.49900 0.05060 0.39060 -0.06400
N 	N 	0.46520 0.04720 0.36980 -0.06900
C 	C 	0.41770 0.08042 0.33270 0.05100
C 	C 	0.39800 0.10600 0.30960 -0.03400
H 	H 	0.40400 0.13210 0.30650 0.02300
C 	C 	0.37175 0.05030 0.30437 0.09600
H 	H 	0.35490 0.03060 0.29700 -0.04200
N 	N 	0.46399 0.96501 0.37100 -0.23200
N 	N 	0.49519 0.91386 0.39542 -0.26600
N 	N 	0.40119 0.04481 0.32826 -0.23500
N 	N 	0.36851 0.08705 0.29177 -0.26700
Cu	Cu	0.41827 0.99902 0.35991 0.86800
C 	C 	0.49910 0.02000 0.38710 -0.21400
H 	H 	0.52180 0.03290 0.39390 0.06500
C 	C 	0.44780 0.09510 0.35920 0.19200
H 	H 	0.44750 0.12190 0.36180 -0.04500
N 	N 	0.46920 0.03900 0.37520 0.00100
N 	N 	0.47470 0.07830 0.37960 -0.06400
Zn	Zn	0.50098 0.85991 0.41827 1.18000
C 	C 	0.96483 0.42679 0.87558 0.09500
H 	H 	0.94580 0.41050 0.86570 -0.03600
C 	C 	0.01502 0.44635 0.90413 -0.02900
H 	H 	0.03810 0.44700 0.91810 0.02800
C 	C 	0.99674 0.47779 0.88980 0.05700
C 	C 	0.01170 0.51650 0.89960 0.17400
H 	H 	0.03390 0.51650 0.91480 -0.03600
C 	C 	0.95570 0.57870 0.85150 -0.22900
H 	H 	0.97260 0.59970 0.85030 0.07700
N 	N 	0.99900 0.55060 0.89060 -0.06400
N 	N 	0.96520 0.54720 0.86980 -0.06900
C 	C 	0.91770 0.58042 0.83270 0.05100
C 	C 	0.89800 0.60600 0.80960 -0.03400
H 	H 	0.90400 0.63210 0.80650 0.02300
C 	C 	0.87175 0.55030 0.80437 0.09600
H 	H 	0.85490 0.53060 0.79700 -0.04200
N 	N 	0.96399 0.46501 0.87100 -0.23200
N 	N 	0.99519 0.41386 0.89542 -0.26600
N 	N 	0.90119 0.54481 0.82826 -0.23500
N 	N 	0.86851 0.58705 0.79177 -0.26700
Cu	Cu	0.91827 0.49902 0.85991 0.86800
C 	C 	0.99910 0.52000 0.88710 -0.21400
H 	H 	0.02180 0.53290 0.89390 0.06500
C 	C 	0.94780 0.59510 0.85920 0.19200
H 	H 	0.94750 0.62190 0.86180 -0.04500
N 	N 	0.96920 0.53900 0.87520 0.00100
N 	N 	0.97470 0.57830 0.87960 -0.06400
Zn	Zn	0.00098 0.35991 0.91827 1.18000
C 	C 	0.78517 0.12558 0.17679 0.09500
H 	H 	0.80420 0.11570 0.16050 -0.03600
C 	C 	0.73498 0.15413 0.19635 -0.02900
H 	H 	0.71190 0.16810 0.19700 0.02800
C 	C 	0.75326 0.13980 0.22779 0.05700
C 	C 	0.73830 0.14960 0.26650 0.17400
H 	H 	0.71610 0.16480 0.26650 -0.03600
C 	C 	0.79430 0.10150 0.32870 -0.22900
H 	H 	0.77740 0.10030 0.34970 0.07700
N 	N 	0.75100 0.14060 0.30060 -0.06400
N 	N 	0.78480 0.11980 0.29720 -0.06900
C 	C 	0.83230 0.08270 0.33042 0.05100
C 	C 	0.85200 0.05960 0.35600 -0.03400
H 	H 	0.84600 0.05650 0.38210 0.02300
C 	C 	0.87825 0.05437 0.30030 0.09600
H 	H 	0.89510 0.04700 0.28060 -0.04200
N 	N 	0.78601 0.12100 0.21501 -0.23200
N 	N 	0.75481 0.14542 0.16386 -0.26600
N 	N 	0.84881 0.07826 0.29481 -0.23500
N 	N 	0.88149 0.04177 0.33705 -0.26700
Cu	Cu	0.83173 0.10991 0.24902 0.86800
C 	C 	0.75090 0.13710 0.27000 -0.21400
H 	H 	0.72820 0.14390 0.28290 0.06500
C 	C 	0.80220 0.10920 0.34510 0.19200
H 	H 	0.80250 0.11180 0.37190 -0.04500
N 	N 	0.78080 0.12520 0.28900 0.00100
N 	N 	0.77530 0.12960 0.32830 -0.06400
Zn	Zn	0.74902 0.16827 0.10991 1.18000
C 	C 	0.28517 0.62558 0.67679 0.09500
H 	H 	0.30420 0.61570 0.66050 -0.03600
C 	C 	0.23498 0.65413 0.69635 -0.02900
H 	H 	0.21190 0.66810 0.69700 0.02800
C 	C 	0.25326 0.63980 0.72779 0.05700
C 	C 	0.23830 0.64960 0.76650 0.17400
H 	H 	0.21610 0.66480 0.76650 -0.03600
C 	C 	0.29430 0.60150 0.82870 -0.22900
H 	H 	0.27740 0.60030 0.84970 0.07700
N 	N 	0.25100 0.64060 0.80060 -0.06400
N 	N 	0.28480 0.61980 0.79720 -0.06900
C 	C 	0.33230 0.58270 0.83042 0.05100
C 	C 	0.35200 0.55960 0.85600 -0.03400
H 	H 	0.34600 0.55650 0.88210 0.02300
C 	C 	0.37825 0.55437 0.80030 0.09600
H 	H 	0.39510 0.54700 0.78060 -0.04200
N 	N 	0.28601 0.62100 0.71501 -0.23200
N 	N 	0.25481 0.64542 0.66386 -0.26600
N 	N 	0.34881 0.57826 0.79481 -0.23500
N 	N 	0.38149 0.54177 0.83705 -0.26700
Cu	Cu	0.33173 0.60991 0.74902 0.86800
C 	C 	0.25090 0.63710 0.77000 -0.21400
H 	H 	0.22820 0.64390 0.78290 0.06500
C 	C 	0.30220 0.60920 0.84510 0.19200
H 	H 	0.30250 0.61180 0.87190 -0.04500
N 	N 	0.28080 0.62520 0.78900 0.00100
N 	N 	0.27530 0.62960 0.82830 -0.06400
Zn	Zn	0.24902 0.66827 0.60991 1.18000
C 	C 	0.71483 0.87442 0.67679 0.09500
H 	H 	0.69580 0.88430 0.66050 -0.03600
C 	C 	0.76502 0.84587 0.69635 -0.02900
H 	H 	0.78810 0.83190 0.69700 0.02800
C 	C 	0.74674 0.86020 0.72779 0.05700
C 	C 	0.76170 0.85040 0.76650 0.17400
H 	H 	0.78390 0.83520 0.76650 -0.03600
C 	C 	0.70570 0.89850 0.82870 -0.22900
H 	H 	0.72260 0.89970 0.84970 0.07700
N 	N 	0.74900 0.85940 0.80060 -0.06400
N 	N 	0.71520 0.88020 0.79720 -0.06900
C 	C 	0.66770 0.91730 0.83042 0.05100
C 	C 	0.64800 0.94040 0.85600 -0.03400
H 	H 	0.65400 0.94350 0.88210 0.02300
C 	C 	0.62175 0.94563 0.80030 0.09600
H 	H 	0.60490 0.95300 0.78060 -0.04200
N 	N 	0.71399 0.87900 0.71501 -0.23200
N 	N 	0.74519 0.85458 0.66386 -0.26600
N 	N 	0.65119 0.92174 0.79481 -0.23500
N 	N 	0.61851 0.95823 0.83705 -0.26700
Cu	Cu	0.66827 0.89009 0.74902 0.86800
C 	C 	0.74910 0.86290 0.77000 -0.21400
H 	H 	0.77180 0.85610 0.78290 0.06500
C 	C 	0.69780 0.89080 0.84510 0.19200
H 	H 	0.69750 0.88820 0.87190 -0.04500
N 	N 	0.71920 0.87480 0.78900 0.00100
N 	N 	0.72470 0.87040 0.82830 -0.06400
Zn	Zn	0.75098 0.83173 0.60991 1.18000
C 	C 	0.21483 0.37442 0.17679 0.09500
H 	H 	0.19580 0.38430 0.16050 -0.03600
C 	C 	0.26502 0.34587 0.19635 -0.02900
H 	H 	0.28810 0.33190 0.19700 0.02800
C 	C 	0.24674 0.36020 0.22779 0.05700
C 	C 	0.26170 0.35040 0.26650 0.17400
H 	H 	0.28390 0.33520 0.26650 -0.03600
C 	C 	0.20570 0.39850 0.32870 -0.22900
H 	H 	0.22260 0.39970 0.34970 0.07700
N 	N 	0.24900 0.35940 0.30060 -0.06400
N 	N 	0.21520 0.38020 0.29720 -0.06900
C 	C 	0.16770 0.41730 0.33042 0.05100
C 	C 	0.14800 0.44040 0.35600 -0.03400
H 	H 	0.15400 0.44350 0.38210 0.02300
C 	C 	0.12175 0.44563 0.30030 0.09600
H 	H 	0.10490 0.45300 0.28060 -0.04200
N 	N 	0.21399 0.37900 0.21501 -0.23200
N 	N 	0.24519 0.35458 0.16386 -0.26600
N 	N 	0.15119 0.42174 0.29481 -0.23500
N 	N 	0.11851 0.45823 0.33705 -0.26700
Cu	Cu	0.16827 0.39009 0.24902 0.86800
C 	C 	0.24910 0.36290 0.27000 -0.21400
H 	H 	0.27180 0.35610 0.28290 0.06500
C 	C 	0.19780 0.39080 0.34510 0.19200
H 	H 	0.19750 0.38820 0.37190 -0.04500
N 	N 	0.21920 0.37480 0.28900 0.00100
N 	N 	0.22470 0.37040 0.32830 -0.06400
Zn	Zn	0.25098 0.33173 0.10991 1.18000
C 	C 	0.28517 0.37442 0.82321 0.09500
H 	H 	0.30420 0.38430 0.83950 -0.03600
C 	C 	0.23498 0.34587 0.80365 -0.02900
H 	H 	0.21190 0.33190 0.80300 0.02800
C 	C 	0.25326 0.36020 0.77221 0.05700
C 	C 	0.23830 0.35040 0.73350 0.17400
H 	H 	0.21610 0.33520 0.73350 -0.03600
C 	C 	0.29430 0.39850 0.67130 -0.22900
H 	H 	0.27740 0.39970 0.65030 0.07700
N 	N 	0.25100 0.35940 0.69940 -0.06400
N 	N 	0.28480 0.38020 0.70280 -0.06900
C 	C 	0.33230 0.41730 0.66958 0.05100
C 	C 	0.35200 0.44040 0.64400 -0.03400
H 	H 	0.34600 0.44350 0.61790 0.02300
C 	C 	0.37825 0.44563 0.69970 0.09600
H 	H 	0.39510 0.45300 0.71940 -0.04200
N 	N 	0.28601 0.37900 0.78499 -0.23200
N 	N 	0.25481 0.35458 0.83614 -0.26600
N 	N 	0.34881 0.42174 0.70519 -0.23500
N 	N 	0.38149 0.45823 0.66295 -0.26700
Cu	Cu	0.33173 0.39009 0.75098 0.86800
C 	C 	0.25090 0.36290 0.73000 -0.21400
H 	H 	0.22820 0.35610 0.71710 0.06500
C 	C 	0.30220 0.39080 0.65490 0.19200
H 	H 	0.30250 0.38820 0.62810 -0.04500
N 	N 	0.28080 0.37480 0.71100 0.00100
N 	N 	0.27530 0.37040 0.67170 -0.06400
Zn	Zn	0.24902 0.33173 0.89009 1.18000
C 	C 	0.78517 0.87442 0.32321 0.09500
H 	H 	0.80420 0.88430 0.33950 -0.03600
C 	C 	0.73498 0.84587 0.30365 -0.02900
H 	H 	0.71190 0.83190 0.30300 0.02800
C 	C 	0.75326 0.86020 0.27221 0.05700
C 	C 	0.73830 0.85040 0.23350 0.17400
H 	H 	0.71610 0.83520 0.23350 -0.03600
C 	C 	0.79430 0.89850 0.17130 -0.22900
H 	H 	0.77740 0.89970 0.15030 0.07700
N 	N 	0.75100 0.85940 0.19940 -0.06400
N 	N 	0.78480 0.88020 0.20280 -0.06900
C 	C 	0.83230 0.91730 0.16958 0.05100
C 	C 	0.85200 0.94040 0.14400 -0.03400
H 	H 	0.84600 0.94350 0.11790 0.02300
C 	C 	0.87825 0.94563 0.19970 0.09600
H 	H 	0.89510 0.95300 0.21940 -0.04200
N 	N 	0.78601 0.87900 0.28499 -0.23200
N 	N 	0.75481 0.85458 0.33614 -0.26600
N 	N 	0.84881 0.92174 0.20519 -0.23500
N 	N 	0.88149 0.95823 0.16295 -0.26700
Cu	Cu	0.83173 0.89009 0.25098 0.86800
C 	C 	0.75090 0.86290 0.23000 -0.21400
H 	H 	0.72820 0.85610 0.21710 0.06500
C 	C 	0.80220 0.89080 0.15490 0.19200
H 	H 	0.80250 0.88820 0.12810 -0.04500
N 	N 	0.78080 0.87480 0.21100 0.00100
N 	N 	0.77530 0.87040 0.17170 -0.06400
Zn	Zn	0.74902 0.83173 0.39009 1.18000
C 	C 	0.21483 0.62558 0.32321 0.09500
H 	H 	0.19580 0.61570 0.33950 -0.03600
C 	C 	0.26502 0.65413 0.30365 -0.02900
H 	H 	0.28810 0.66810 0.30300 0.02800
C 	C 	0.24674 0.63980 0.27221 0.05700
C 	C 	0.26170 0.64960 0.23350 0.17400
H 	H 	0.28390 0.66480 0.23350 -0.03600
C 	C 	0.20570 0.60150 0.17130 -0.22900
H 	H 	0.22260 0.60030 0.15030 0.07700
N 	N 	0.24900 0.64060 0.19940 -0.06400
N 	N 	0.21520 0.61980 0.20280 -0.06900
C 	C 	0.16770 0.58270 0.16958 0.05100
C 	C 	0.14800 0.55960 0.14400 -0.03400
H 	H 	0.15400 0.55650 0.11790 0.02300
C 	C 	0.12175 0.55437 0.19970 0.09600
H 	H 	0.10490 0.54700 0.21940 -0.04200
N 	N 	0.21399 0.62100 0.28499 -0.23200
N 	N 	0.24519 0.64542 0.33614 -0.26600
N 	N 	0.15119 0.57826 0.20519 -0.23500
N 	N 	0.11851 0.54177 0.16295 -0.26700
Cu	Cu	0.16827 0.60991 0.25098 0.86800
C 	C 	0.24910 0.63710 0.23000 -0.21400
H 	H 	0.27180 0.64390 0.21710 0.06500
C 	C 	0.19780 0.60920 0.15490 0.19200
H 	H 	0.19750 0.61180 0.12810 -0.04500
N 	N 	0.21920 0.62520 0.21100 0.00100
N 	N 	0.22470 0.62960 0.17170 -0.06400
Zn	Zn	0.25098 0.66827 0.39009 1.18000
C 	C 	0.71483 0.12558 0.82321 0.09500
H 	H 	0.69580 0.11570 0.83950 -0.03600
C 	C 	0.76502 0.15413 0.80365 -0.02900
H 	H 	0.78810 0.16810 0.80300 0.02800
C 	C 	0.74674 0.13980 0.77221 0.05700
C 	C 	0.76170 0.14960 0.73350 0.17400
H 	H 	0.78390 0.16480 0.73350 -0.03600
C 	C 	0.70570 0.10150 0.67130 -0.22900
H 	H 	0.72260 0.10030 0.65030 0.07700
N 	N 	0.74900 0.14060 0.69940 -0.06400
N 	N 	0.71520 0.11980 0.70280 -0.06900
C 	C 	0.66770 0.08270 0.66958 0.05100
C 	C 	0.64800 0.05960 0.64400 -0.03400
H 	H 	0.65400 0.05650 0.61790 0.02300
C 	C 	0.62175 0.05437 0.69970 0.09600
H 	H 	0.60490 0.04700 0.71940 -0.04200
N 	N 	0.71399 0.12100 0.78499 -0.23200
N 	N 	0.74519 0.14542 0.83614 -0.26600
N 	N 	0.65119 0.07826 0.70519 -0.23500
N 	N 	0.61851 0.04177 0.66295 -0.26700
Cu	Cu	0.66827 0.10991 0.75098 0.86800
C 	C 	0.74910 0.13710 0.73000 -0.21400
H 	H 	0.77180 0.14390 0.71710 0.06500
C 	C 	0.69780 0.10920 0.65490 0.19200
H 	H 	0.69750 0.11180 0.62810 -0.04500
N 	N 	0.71920 0.12520 0.71100 0.00100
N 	N 	0.72470 0.12960 0.67170 -0.06400
Zn	Zn	0.75098 0.16827 0.89009 1.18000
C 	C 	0.62558 0.32321 0.21483 0.09500
H 	H 	0.61570 0.33950 0.19580 -0.03600
C 	C 	0.65413 0.30365 0.26502 -0.02900
H 	H 	0.66810 0.30300 0.28810 0.02800
C 	C 	0.63980 0.27221 0.24674 0.05700
C 	C 	0.64960 0.23350 0.26170 0.17400
H 	H 	0.66480 0.23350 0.28390 -0.03600
C 	C 	0.60150 0.17130 0.20570 -0.22900
H 	H 	0.60030 0.15030 0.22260 0.07700
N 	N 	0.64060 0.19940 0.24900 -0.06400
N 	N 	0.61980 0.20280 0.21520 -0.06900
C 	C 	0.58270 0.16958 0.16770 0.05100
C 	C 	0.55960 0.14400 0.14800 -0.03400
H 	H 	0.55650 0.11790 0.15400 0.02300
C 	C 	0.55437 0.19970 0.12175 0.09600
H 	H 	0.54700 0.21940 0.10490 -0.04200
N 	N 	0.62100 0.28499 0.21399 -0.23200
N 	N 	0.64542 0.33614 0.24519 -0.26600
N 	N 	0.57826 0.20519 0.15119 -0.23500
N 	N 	0.54177 0.16295 0.11851 -0.26700
Cu	Cu	0.60991 0.25098 0.16827 0.86800
C 	C 	0.63710 0.23000 0.24910 -0.21400
H 	H 	0.64390 0.21710 0.27180 0.06500
C 	C 	0.60920 0.15490 0.19780 0.19200
H 	H 	0.61180 0.12810 0.19750 -0.04500
N 	N 	0.62520 0.21100 0.21920 0.00100
N 	N 	0.62960 0.17170 0.22470 -0.06400
Zn	Zn	0.66827 0.39009 0.25098 1.18000
C 	C 	0.12558 0.82321 0.71483 0.09500
H 	H 	0.11570 0.83950 0.69580 -0.03600
C 	C 	0.15413 0.80365 0.76502 -0.02900
H 	H 	0.16810 0.80300 0.78810 0.02800
C 	C 	0.13980 0.77221 0.74674 0.05700
C 	C 	0.14960 0.73350 0.76170 0.17400
H 	H 	0.16480 0.73350 0.78390 -0.03600
C 	C 	0.10150 0.67130 0.70570 -0.22900
H 	H 	0.10030 0.65030 0.72260 0.07700
N 	N 	0.14060 0.69940 0.74900 -0.06400
N 	N 	0.11980 0.70280 0.71520 -0.06900
C 	C 	0.08270 0.66958 0.66770 0.05100
C 	C 	0.05960 0.64400 0.64800 -0.03400
H 	H 	0.05650 0.61790 0.65400 0.02300
C 	C 	0.05437 0.69970 0.62175 0.09600
H 	H 	0.04700 0.71940 0.60490 -0.04200
N 	N 	0.12100 0.78499 0.71399 -0.23200
N 	N 	0.14542 0.83614 0.74519 -0.26600
N 	N 	0.07826 0.70519 0.65119 -0.23500
N 	N 	0.04177 0.66295 0.61851 -0.26700
Cu	Cu	0.10991 0.75098 0.66827 0.86800
C 	C 	0.13710 0.73000 0.74910 -0.21400
H 	H 	0.14390 0.71710 0.77180 0.06500
C 	C 	0.10920 0.65490 0.69780 0.19200
H 	H 	0.11180 0.62810 0.69750 -0.04500
N 	N 	0.12520 0.71100 0.71920 0.00100
N 	N 	0.12960 0.67170 0.72470 -0.06400
Zn	Zn	0.16827 0.89009 0.75098 1.18000
C 	C 	0.37442 0.82321 0.28517 0.09500
H 	H 	0.38430 0.83950 0.30420 -0.03600
C 	C 	0.34587 0.80365 0.23498 -0.02900
H 	H 	0.33190 0.80300 0.21190 0.02800
C 	C 	0.36020 0.77221 0.25326 0.05700
C 	C 	0.35040 0.73350 0.23830 0.17400
H 	H 	0.33520 0.73350 0.21610 -0.03600
C 	C 	0.39850 0.67130 0.29430 -0.22900
H 	H 	0.39970 0.65030 0.27740 0.07700
N 	N 	0.35940 0.69940 0.25100 -0.06400
N 	N 	0.38020 0.70280 0.28480 -0.06900
C 	C 	0.41730 0.66958 0.33230 0.05100
C 	C 	0.44040 0.64400 0.35200 -0.03400
H 	H 	0.44350 0.61790 0.34600 0.02300
C 	C 	0.44563 0.69970 0.37825 0.09600
H 	H 	0.45300 0.71940 0.39510 -0.04200
N 	N 	0.37900 0.78499 0.28601 -0.23200
N 	N 	0.35458 0.83614 0.25481 -0.26600
N 	N 	0.42174 0.70519 0.34881 -0.23500
N 	N 	0.45823 0.66295 0.38149 -0.26700
Cu	Cu	0.39009 0.75098 0.33173 0.86800
C 	C 	0.36290 0.73000 0.25090 -0.21400
H 	H 	0.35610 0.71710 0.22820 0.06500
C 	C 	0.39080 0.65490 0.30220 0.19200
H 	H 	0.38820 0.62810 0.30250 -0.04500
N 	N 	0.37480 0.71100 0.28080 0.00100
N 	N 	0.37040 0.67170 0.27530 -0.06400
Zn	Zn	0.33173 0.89009 0.24902 1.18000
C 	C 	0.87442 0.32321 0.78517 0.09500
H 	H 	0.88430 0.33950 0.80420 -0.03600
C 	C 	0.84587 0.30365 0.73498 -0.02900
H 	H 	0.83190 0.30300 0.71190 0.02800
C 	C 	0.86020 0.27221 0.75326 0.05700
C 	C 	0.85040 0.23350 0.73830 0.17400
H 	H 	0.83520 0.23350 0.71610 -0.03600
C 	C 	0.89850 0.17130 0.79430 -0.22900
H 	H 	0.89970 0.15030 0.77740 0.07700
N 	N 	0.85940 0.19940 0.75100 -0.06400
N 	N 	0.88020 0.20280 0.78480 -0.06900
C 	C 	0.91730 0.16958 0.83230 0.05100
C 	C 	0.94040 0.14400 0.85200 -0.03400
H 	H 	0.94350 0.11790 0.84600 0.02300
C 	C 	0.94563 0.19970 0.87825 0.09600
H 	H 	0.95300 0.21940 0.89510 -0.04200
N 	N 	0.87900 0.28499 0.78601 -0.23200
N 	N 	0.85458 0.33614 0.75481 -0.26600
N 	N 	0.92174 0.20519 0.84881 -0.23500
N 	N 	0.95823 0.16295 0.88149 -0.26700
Cu	Cu	0.89009 0.25098 0.83173 0.86800
C 	C 	0.86290 0.23000 0.75090 -0.21400
H 	H 	0.85610 0.21710 0.72820 0.06500
C 	C 	0.89080 0.15490 0.80220 0.19200
H 	H 	0.88820 0.12810 0.80250 -0.04500
N 	N 	0.87480 0.21100 0.78080 0.00100
N 	N 	0.87040 0.17170 0.77530 -0.06400
Zn	Zn	0.83173 0.39009 0.74902 1.18000
C 	C 	0.87442 0.67679 0.71483 0.09500
H 	H 	0.88430 0.66050 0.69580 -0.03600
C 	C 	0.84587 0.69635 0.76502 -0.02900
H 	H 	0.83190 0.69700 0.78810 0.02800
C 	C 	0.86020 0.72779 0.74674 0.05700
C 	C 	0.85040 0.76650 0.76170 0.17400
H 	H 	0.83520 0.76650 0.78390 -0.03600
C 	C 	0.89850 0.82870 0.70570 -0.22900
H 	H 	0.89970 0.84970 0.72260 0.07700
N 	N 	0.85940 0.80060 0.74900 -0.06400
N 	N 	0.88020 0.79720 0.71520 -0.06900
C 	C 	0.91730 0.83042 0.66770 0.05100
C 	C 	0.94040 0.85600 0.64800 -0.03400
H 	H 	0.94350 0.88210 0.65400 0.02300
C 	C 	0.94563 0.80030 0.62175 0.09600
H 	H 	0.95300 0.78060 0.60490 -0.04200
N 	N 	0.87900 0.71501 0.71399 -0.23200
N 	N 	0.85458 0.66386 0.74519 -0.26600
N 	N 	0.92174 0.79481 0.65119 -0.23500
N 	N 	0.95823 0.83705 0.61851 -0.26700
Cu	Cu	0.89009 0.74902 0.66827 0.86800
C 	C 	0.86290 0.77000 0.74910 -0.21400
H 	H 	0.85610 0.78290 0.77180 0.06500
C 	C 	0.89080 0.84510 0.69780 0.19200
H 	H 	0.88820 0.87190 0.69750 -0.04500
N 	N 	0.87480 0.78900 0.71920 0.00100
N 	N 	0.87040 0.82830 0.72470 -0.06400
Zn	Zn	0.83173 0.60991 0.75098 1.18000
C 	C 	0.37442 0.17679 0.21483 0.09500
H 	H 	0.38430 0.16050 0.19580 -0.03600
C 	C 	0.34587 0.19635 0.26502 -0.02900
H 	H 	0.33190 0.19700 0.28810 0.02800
C 	C 	0.36020 0.22779 0.24674 0.05700
C 	C 	0.35040 0.26650 0.26170 0.17400
H 	H 	0.33520 0.26650 0.28390 -0.03600
C 	C 	0.39850 0.32870 0.20570 -0.22900
H 	H 	0.39970 0.34970 0.22260 0.07700
N 	N 	0.35940 0.30060 0.24900 -0.06400
N 	N 	0.38020 0.29720 0.21520 -0.06900
C 	C 	0.41730 0.33042 0.16770 0.05100
C 	C 	0.44040 0.35600 0.14800 -0.03400
H 	H 	0.44350 0.38210 0.15400 0.02300
C 	C 	0.44563 0.30030 0.12175 0.09600
H 	H 	0.45300 0.28060 0.10490 -0.04200
N 	N 	0.37900 0.21501 0.21399 -0.23200
N 	N 	0.35458 0.16386 0.24519 -0.26600
N 	N 	0.42174 0.29481 0.15119 -0.23500
N 	N 	0.45823 0.33705 0.11851 -0.26700
Cu	Cu	0.39009 0.24902 0.16827 0.86800
C 	C 	0.36290 0.27000 0.24910 -0.21400
H 	H 	0.35610 0.28290 0.27180 0.06500
C 	C 	0.39080 0.34510 0.19780 0.19200
H 	H 	0.38820 0.37190 0.19750 -0.04500
N 	N 	0.37480 0.28900 0.21920 0.00100
N 	N 	0.37040 0.32830 0.22470 -0.06400
Zn	Zn	0.33173 0.10991 0.25098 1.18000
C 	C 	0.12558 0.17679 0.78517 0.09500
H 	H 	0.11570 0.16050 0.80420 -0.03600
C 	C 	0.15413 0.19635 0.73498 -0.02900
H 	H 	0.16810 0.19700 0.71190 0.02800
C 	C 	0.13980 0.22779 0.75326 0.05700
C 	C 	0.14960 0.26650 0.73830 0.17400
H 	H 	0.16480 0.26650 0.71610 -0.03600
C 	C 	0.10150 0.32870 0.79430 -0.22900
H 	H 	0.10030 0.34970 0.77740 0.07700
N 	N 	0.14060 0.30060 0.75100 -0.06400
N 	N 	0.11980 0.29720 0.78480 -0.06900
C 	C 	0.08270 0.33042 0.83230 0.05100
C 	C 	0.05960 0.35600 0.85200 -0.03400
H 	H 	0.05650 0.38210 0.84600 0.02300
C 	C 	0.05437 0.30030 0.87825 0.09600
H 	H 	0.04700 0.28060 0.89510 -0.04200
N 	N 	0.12100 0.21501 0.78601 -0.23200
N 	N 	0.14542 0.16386 0.75481 -0.26600
N 	N 	0.07826 0.29481 0.84881 -0.23500
N 	N 	0.04177 0.33705 0.88149 -0.26700
Cu	Cu	0.10991 0.24902 0.83173 0.86800
C 	C 	0.13710 0.27000 0.75090 -0.21400
H 	H 	0.14390 0.28290 0.72820 0.06500
C 	C 	0.10920 0.34510 0.80220 0.19200
H 	H 	0.11180 0.37190 0.80250 -0.04500
N 	N 	0.12520 0.28900 0.78080 0.00100
N 	N 	0.12960 0.32830 0.77530 -0.06400
Zn	Zn	0.16827 0.10991 0.74902 1.18000
C 	C 	0.62558 0.67679 0.28517 0.09500
H 	H 	0.61570 0.66050 0.30420 -0.03600
C 	C 	0.65413 0.69635 0.23498 -0.02900
H 	H 	0.66810 0.69700 0.21190 0.02800
C 	C 	0.63980 0.72779 0.25326 0.05700
C 	C 	0.64960 0.76650 0.23830 0.17400
H 	H 	0.66480 0.76650 0.21610 -0.03600
C 	C 	0.60150 0.82870 0.29430 -0.22900
H 	H 	0.60030 0.84970 0.27740 0.07700
N 	N 	0.64060 0.80060 0.25100 -0.06400
N 	N 	0.61980 0.79720 0.28480 -0.06900
C 	C 	0.58270 0.83042 0.33230 0.05100
C 	C 	0.55960 0.85600 0.35200 -0.03400
H 	H 	0.55650 0.88210 0.34600 0.02300
C 	C 	0.55437 0.80030 0.37825 0.09600
H 	H 	0.54700 0.78060 0.39510 -0.04200
N 	N 	0.62100 0.71501 0.28601 -0.23200
N 	N 	0.64542 0.66386 0.25481 -0.26600
N 	N 	0.57826 0.79481 0.34881 -0.23500
N 	N 	0.54177 0.83705 0.38149 -0.26700
Cu	Cu	0.60991 0.74902 0.33173 0.86800
C 	C 	0.63710 0.77000 0.25090 -0.21400
H 	H 	0.64390 0.78290 0.22820 0.06500
C 	C 	0.60920 0.84510 0.30220 0.19200
H 	H 	0.61180 0.87190 0.30250 -0.04500
N 	N 	0.62520 0.78900 0.28080 0.00100
N 	N 	0.62960 0.82830 0.27530 -0.06400
Zn	Zn	0.66827 0.60991 0.24902 1.18000
C 	C 	0.82321 0.28517 0.37442 0.09500
H 	H 	0.83950 0.30420 0.38430 -0.03600
C 	C 	0.80365 0.23498 0.34587 -0.02900
H 	H 	0.80300 0.21190 0.33190 0.02800
C 	C 	0.77221 0.25326 0.36020 0.05700
C 	C 	0.73350 0.23830 0.35040 0.17400
H 	H 	0.73350 0.21610 0.33520 -0.03600
C 	C 	0.67130 0.29430 0.39850 -0.22900
H 	H 	0.65030 0.27740 0.39970 0.07700
N 	N 	0.69940 0.25100 0.35940 -0.06400
N 	N 	0.70280 0.28480 0.38020 -0.06900
C 	C 	0.66958 0.33230 0.41730 0.05100
C 	C 	0.64400 0.35200 0.44040 -0.03400
H 	H 	0.61790 0.34600 0.44350 0.02300
C 	C 	0.69970 0.37825 0.44563 0.09600
H 	H 	0.71940 0.39510 0.45300 -0.04200
N 	N 	0.78499 0.28601 0.37900 -0.23200
N 	N 	0.83614 0.25481 0.35458 -0.26600
N 	N 	0.70519 0.34881 0.42174 -0.23500
N 	N 	0.66295 0.38149 0.45823 -0.26700
Cu	Cu	0.75098 0.33173 0.39009 0.86800
C 	C 	0.73000 0.25090 0.36290 -0.21400
H 	H 	0.71710 0.22820 0.35610 0.06500
C 	C 	0.65490 0.30220 0.39080 0.19200
H 	H 	0.62810 0.30250 0.38820 -0.04500
N 	N 	0.71100 0.28080 0.37480 0.00100
N 	N 	0.67170 0.27530 0.37040 -0.06400
Zn	Zn	0.89009 0.24902 0.33173 1.18000
C 	C 	0.32321 0.78517 0.87442 0.09500
H 	H 	0.33950 0.80420 0.88430 -0.03600
C 	C 	0.30365 0.73498 0.84587 -0.02900
H 	H 	0.30300 0.71190 0.83190 0.02800
C 	C 	0.27221 0.75326 0.86020 0.05700
C 	C 	0.23350 0.73830 0.85040 0.17400
H 	H 	0.23350 0.71610 0.83520 -0.03600
C 	C 	0.17130 0.79430 0.89850 -0.22900
H 	H 	0.15030 0.77740 0.89970 0.07700
N 	N 	0.19940 0.75100 0.85940 -0.06400
N 	N 	0.20280 0.78480 0.88020 -0.06900
C 	C 	0.16958 0.83230 0.91730 0.05100
C 	C 	0.14400 0.85200 0.94040 -0.03400
H 	H 	0.11790 0.84600 0.94350 0.02300
C 	C 	0.19970 0.87825 0.94563 0.09600
H 	H 	0.21940 0.89510 0.95300 -0.04200
N 	N 	0.28499 0.78601 0.87900 -0.23200
N 	N 	0.33614 0.75481 0.85458 -0.26600
N 	N 	0.20519 0.84881 0.92174 -0.23500
N 	N 	0.16295 0.88149 0.95823 -0.26700
Cu	Cu	0.25098 0.83173 0.89009 0.86800
C 	C 	0.23000 0.75090 0.86290 -0.21400
H 	H 	0.21710 0.72820 0.85610 0.06500
C 	C 	0.15490 0.80220 0.89080 0.19200
H 	H 	0.12810 0.80250 0.88820 -0.04500
N 	N 	0.21100 0.78080 0.87480 0.00100
N 	N 	0.17170 0.77530 0.87040 -0.06400
Zn	Zn	0.39009 0.74902 0.83173 1.18000
C 	C 	0.32321 0.21483 0.62558 0.09500
H 	H 	0.33950 0.19580 0.61570 -0.03600
C 	C 	0.30365 0.26502 0.65413 -0.02900
H 	H 	0.30300 0.28810 0.66810 0.02800
C 	C 	0.27221 0.24674 0.63980 0.05700
C 	C 	0.23350 0.26170 0.64960 0.17400
H 	H 	0.23350 0.28390 0.66480 -0.03600
C 	C 	0.17130 0.20570 0.60150 -0.22900
H 	H 	0.15030 0.22260 0.60030 0.07700
N 	N 	0.19940 0.24900 0.64060 -0.06400
N 	N 	0.20280 0.21520 0.61980 -0.06900
C 	C 	0.16958 0.16770 0.58270 0.05100
C 	C 	0.14400 0.14800 0.55960 -0.03400
H 	H 	0.11790 0.15400 0.55650 0.02300
C 	C 	0.19970 0.12175 0.55437 0.09600
H 	H 	0.21940 0.10490 0.54700 -0.04200
N 	N 	0.28499 0.21399 0.62100 -0.23200
N 	N 	0.33614 0.24519 0.64542 -0.26600
N 	N 	0.20519 0.15119 0.57826 -0.23500
N 	N 	0.16295 0.11851 0.54177 -0.26700
Cu	Cu	0.25098 0.16827 0.60991 0.86800
C 	C 	0.23000 0.24910 0.63710 -0.21400
H 	H 	0.21710 0.27180 0.64390 0.06500
C 	C 	0.15490 0.19780 0.60920 0.19200
H 	H 	0.12810 0.19750 0.61180 -0.04500
N 	N 	0.21100 0.21920 0.62520 0.00100
N 	N 	0.17170 0.22470 0.62960 -0.06400
Zn	Zn	0.39009 0.25098 0.66827 1.18000
C 	C 	0.82321 0.71483 0.12558 0.09500
H 	H 	0.83950 0.69580 0.11570 -0.03600
C 	C 	0.80365 0.76502 0.15413 -0.02900
H 	H 	0.80300 0.78810 0.16810 0.02800
C 	C 	0.77221 0.74674 0.13980 0.05700
C 	C 	0.73350 0.76170 0.14960 0.17400
H 	H 	0.73350 0.78390 0.16480 -0.03600
C 	C 	0.67130 0.70570 0.10150 -0.22900
H 	H 	0.65030 0.72260 0.10030 0.07700
N 	N 	0.69940 0.74900 0.14060 -0.06400
N 	N 	0.70280 0.71520 0.11980 -0.06900
C 	C 	0.66958 0.66770 0.08270 0.05100
C 	C 	0.64400 0.64800 0.05960 -0.03400
H 	H 	0.61790 0.65400 0.05650 0.02300
C 	C 	0.69970 0.62175 0.05437 0.09600
H 	H 	0.71940 0.60490 0.04700 -0.04200
N 	N 	0.78499 0.71399 0.12100 -0.23200
N 	N 	0.83614 0.74519 0.14542 -0.26600
N 	N 	0.70519 0.65119 0.07826 -0.23500
N 	N 	0.66295 0.61851 0.04177 -0.26700
Cu	Cu	0.75098 0.66827 0.10991 0.86800
C 	C 	0.73000 0.74910 0.13710 -0.21400
H 	H 	0.71710 0.77180 0.14390 0.06500
C 	C 	0.65490 0.69780 0.10920 0.19200
H 	H 	0.62810 0.69750 0.11180 -0.04500
N 	N 	0.71100 0.71920 0.12520 0.00100
N 	N 	0.67170 0.72470 0.12960 -0.06400
Zn	Zn	0.89009 0.75098 0.16827 1.18000
C 	C 	0.17679 0.78517 0.12558 0.09500
H 	H 	0.16050 0.80420 0.11570 -0.03600
C 	C 	0.19635 0.73498 0.15413 -0.02900
H 	H 	0.19700 0.71190 0.16810 0.02800
C 	C 	0.22779 0.75326 0.13980 0.05700
C 	C 	0.26650 0.73830 0.14960 0.17400
H 	H 	0.26650 0.71610 0.16480 -0.03600
C 	C 	0.32870 0.79430 0.10150 -0.22900
H 	H 	0.34970 0.77740 0.10030 0.07700
N 	N 	0.30060 0.75100 0.14060 -0.06400
N 	N 	0.29720 0.78480 0.11980 -0.06900
C 	C 	0.33042 0.83230 0.08270 0.05100
C 	C 	0.35600 0.85200 0.05960 -0.03400
H 	H 	0.38210 0.84600 0.05650 0.02300
C 	C 	0.30030 0.87825 0.05437 0.09600
H 	H 	0.28060 0.89510 0.04700 -0.04200
N 	N 	0.21501 0.78601 0.12100 -0.23200
N 	N 	0.16386 0.75481 0.14542 -0.26600
N 	N 	0.29481 0.84881 0.07826 -0.23500
N 	N 	0.33705 0.88149 0.04177 -0.26700
Cu	Cu	0.24902 0.83173 0.10991 0.86800
C 	C 	0.27000 0.75090 0.13710 -0.21400
H 	H 	0.28290 0.72820 0.14390 0.06500
C 	C 	0.34510 0.80220 0.10920 0.19200
H 	H 	0.37190 0.80250 0.11180 -0.04500
N 	N 	0.28900 0.78080 0.12520 0.00100
N 	N 	0.32830 0.77530 0.12960 -0.06400
Zn	Zn	0.10991 0.74902 0.16827 1.18000
C 	C 	0.67679 0.28517 0.62558 0.09500
H 	H 	0.66050 0.30420 0.61570 -0.03600
C 	C 	0.69635 0.23498 0.65413 -0.02900
H 	H 	0.69700 0.21190 0.66810 0.02800
C 	C 	0.72779 0.25326 0.63980 0.05700
C 	C 	0.76650 0.23830 0.64960 0.17400
H 	H 	0.76650 0.21610 0.66480 -0.03600
C 	C 	0.82870 0.29430 0.60150 -0.22900
H 	H 	0.84970 0.27740 0.60030 0.07700
N 	N 	0.80060 0.25100 0.64060 -0.06400
N 	N 	0.79720 0.28480 0.61980 -0.06900
C 	C 	0.83042 0.33230 0.58270 0.05100
C 	C 	0.85600 0.35200 0.55960 -0.03400
H 	H 	0.88210 0.34600 0.55650 0.02300
C 	C 	0.80030 0.37825 0.55437 0.09600
H 	H 	0.78060 0.39510 0.54700 -0.04200
N 	N 	0.71501 0.28601 0.62100 -0.23200
N 	N 	0.66386 0.25481 0.64542 -0.26600
N 	N 	0.79481 0.34881 0.57826 -0.23500
N 	N 	0.83705 0.38149 0.54177 -0.26700
Cu	Cu	0.74902 0.33173 0.60991 0.86800
C 	C 	0.77000 0.25090 0.63710 -0.21400
H 	H 	0.78290 0.22820 0.64390 0.06500
C 	C 	0.84510 0.30220 0.60920 0.19200
H 	H 	0.87190 0.30250 0.61180 -0.04500
N 	N 	0.78900 0.28080 0.62520 0.00100
N 	N 	0.82830 0.27530 0.62960 -0.06400
Zn	Zn	0.60991 0.24902 0.66827 1.18000
C 	C 	0.67679 0.71483 0.87442 0.09500
H 	H 	0.66050 0.69580 0.88430 -0.03600
C 	C 	0.69635 0.76502 0.84587 -0.02900
H 	H 	0.69700 0.78810 0.83190 0.02800
C 	C 	0.72779 0.74674 0.86020 0.05700
C 	C 	0.76650 0.76170 0.85040 0.17400
H 	H 	0.76650 0.78390 0.83520 -0.03600
C 	C 	0.82870 0.70570 0.89850 -0.22900
H 	H 	0.84970 0.72260 0.89970 0.07700
N 	N 	0.80060 0.74900 0.85940 -0.06400
N 	N 	0.79720 0.71520 0.88020 -0.06900
C 	C 	0.83042 0.66770 0.91730 0.05100
C 	C 	0.85600 0.64800 0.94040 -0.03400
H 	H 	0.88210 0.65400 0.94350 0.02300
C 	C 	0.80030 0.62175 0.94563 0.09600
H 	H 	0.78060 0.60490 0.95300 -0.04200
N 	N 	0.71501 0.71399 0.87900 -0.23200
N 	N 	0.66386 0.74519 0.85458 -0.26600
N 	N 	0.79481 0.65119 0.92174 -0.23500
N 	N 	0.83705 0.61851 0.95823 -0.26700
Cu	Cu	0.74902 0.66827 0.89009 0.86800
C 	C 	0.77000 0.74910 0.86290 -0.21400
H 	H 	0.78290 0.77180 0.85610 0.06500
C 	C 	0.84510 0.69780 0.89080 0.19200
H 	H 	0.87190 0.69750 0.88820 -0.04500
N 	N 	0.78900 0.71920 0.87480 0.00100
N 	N 	0.82830 0.72470 0.87040 -0.06400
Zn	Zn	0.60991 0.75098 0.83173 1.18000
C 	C 	0.17679 0.21483 0.37442 0.09500
H 	H 	0.16050 0.19580 0.38430 -0.03600
C 	C 	0.19635 0.26502 0.34587 -0.02900
H 	H 	0.19700 0.28810 0.33190 0.02800
C 	C 	0.22779 0.24674 0.36020 0.05700
C 	C 	0.26650 0.26170 0.35040 0.17400
H 	H 	0.26650 0.28390 0.33520 -0.03600
C 	C 	0.32870 0.20570 0.39850 -0.22900
H 	H 	0.34970 0.22260 0.39970 0.07700
N 	N 	0.30060 0.24900 0.35940 -0.06400
N 	N 	0.29720 0.21520 0.38020 -0.06900
C 	C 	0.33042 0.16770 0.41730 0.05100
C 	C 	0.35600 0.14800 0.44040 -0.03400
H 	H 	0.38210 0.15400 0.44350 0.02300
C 	C 	0.30030 0.12175 0.44563 0.09600
H 	H 	0.28060 0.10490 0.45300 -0.04200
N 	N 	0.21501 0.21399 0.37900 -0.23200
N 	N 	0.16386 0.24519 0.35458 -0.26600
N 	N 	0.29481 0.15119 0.42174 -0.23500
N 	N 	0.33705 0.11851 0.45823 -0.26700
Cu	Cu	0.24902 0.16827 0.39009 0.86800
C 	C 	0.27000 0.24910 0.36290 -0.21400
H 	H 	0.28290 0.27180 0.35610 0.06500
C 	C 	0.34510 0.19780 0.39080 0.19200
H 	H 	0.37190 0.19750 0.38820 -0.04500
N 	N 	0.28900 0.21920 0.37480 0.00100
N 	N 	0.32830 0.22470 0.37040 -0.06400
Zn	Zn	0.10991 0.25098 0.33173 1.18000
C 	C 	0.12442 0.96483 0.92679 0.09500
H 	H 	0.13430 0.94580 0.91050 -0.03600
C 	C 	0.09587 0.01502 0.94635 -0.03300
H 	H 	0.08190 0.03810 0.94700 0.03500
C 	C 	0.11020 0.99674 0.97779 0.05900
C 	C 	0.10040 0.01170 0.01650 0.15500
H 	H 	0.08520 0.03390 0.01650 -0.03300
C 	C 	0.14850 0.95570 0.07870 -0.22300
H 	H 	0.14970 0.97260 0.09970 0.07900
N 	N 	0.10940 0.99900 0.05060 -0.06400
N 	N 	0.13020 0.96520 0.04720 -0.08900
C 	C 	0.16730 0.91770 0.08042 0.05000
C 	C 	0.19040 0.89800 0.10600 -0.03500
H 	H 	0.19350 0.90400 0.13210 0.02900
C 	C 	0.19563 0.87175 0.05030 0.09600
H 	H 	0.20300 0.85490 0.03060 -0.03900
N 	N 	0.12900 0.96399 0.96501 -0.28100
N 	N 	0.10458 0.99519 0.91386 -0.22000
N 	N 	0.17174 0.90119 0.04481 -0.28300
N 	N 	0.20823 0.86851 0.08705 -0.22200
C 	C 	0.11290 0.99910 0.02000 -0.21800
H 	H 	0.10610 0.02180 0.03290 0.07400
C 	C 	0.14080 0.94780 0.09510 0.16800
H 	H 	0.13820 0.94750 0.12190 -0.03800
N 	N 	0.12480 0.96920 0.03900 -0.01000
N 	N 	0.12040 0.97470 0.07830 -0.06200
C 	C 	0.62442 0.46483 0.42679 0.09500
H 	H 	0.63430 0.44580 0.41050 -0.03600
C 	C 	0.59587 0.51502 0.44635 -0.03300
H 	H 	0.58190 0.53810 0.44700 0.03500
C 	C 	0.61020 0.49674 0.47779 0.05900
C 	C 	0.60040 0.51170 0.51650 0.15500
H 	H 	0.58520 0.53390 0.51650 -0.03300
C 	C 	0.64850 0.45570 0.57870 -0.22300
H 	H 	0.64970 0.47260 0.59970 0.07900
N 	N 	0.60940 0.49900 0.55060 -0.06400
N 	N 	0.63020 0.46520 0.54720 -0.08900
C 	C 	0.66730 0.41770 0.58042 0.05000
C 	C 	0.69040 0.39800 0.60600 -0.03500
H 	H 	0.69350 0.40400 0.63210 0.02900
C 	C 	0.69563 0.37175 0.55030 0.09600
H 	H 	0.70300 0.35490 0.53060 -0.03900
N 	N 	0.62900 0.46399 0.46501 -0.28100
N 	N 	0.60458 0.49519 0.41386 -0.22000
N 	N 	0.67174 0.40119 0.54481 -0.28300
N 	N 	0.70823 0.36851 0.58705 -0.22200
C 	C 	0.61290 0.49910 0.52000 -0.21800
H 	H 	0.60610 0.52180 0.53290 0.07400
C 	C 	0.64080 0.44780 0.59510 0.16800
H 	H 	0.63820 0.44750 0.62190 -0.03800
N 	N 	0.62480 0.46920 0.53900 -0.01000
N 	N 	0.62040 0.47470 0.57830 -0.06200
C 	C 	0.37558 0.03517 0.42679 0.09500
H 	H 	0.36570 0.05420 0.41050 -0.03600
C 	C 	0.40413 0.98498 0.44635 -0.03300
H 	H 	0.41810 0.96190 0.44700 0.03500
C 	C 	0.38980 0.00326 0.47779 0.05900
C 	C 	0.39960 0.98830 0.51650 0.15500
H 	H 	0.41480 0.96610 0.51650 -0.03300
C 	C 	0.35150 0.04430 0.57870 -0.22300
H 	H 	0.35030 0.02740 0.59970 0.07900
N 	N 	0.39060 0.00100 0.55060 -0.06400
N 	N 	0.36980 0.03480 0.54720 -0.08900
C 	C 	0.33270 0.08230 0.58042 0.05000
C 	C 	0.30960 0.10200 0.60600 -0.03500
H 	H 	0.30650 0.09600 0.63210 0.02900
C 	C 	0.30437 0.12825 0.55030 0.09600
H 	H 	0.29700 0.14510 0.53060 -0.03900
N 	N 	0.37100 0.03601 0.46501 -0.28100
N 	N 	0.39542 0.00481 0.41386 -0.22000
N 	N 	0.32826 0.09881 0.54481 -0.28300
N 	N 	0.29177 0.13149 0.58705 -0.22200
C 	C 	0.38710 0.00090 0.52000 -0.21800
H 	H 	0.39390 0.97820 0.53290 0.07400
C 	C 	0.35920 0.05220 0.59510 0.16800
H 	H 	0.36180 0.05250 0.62190 -0.03800
N 	N 	0.37520 0.03080 0.53900 -0.01000
N 	N 	0.37960 0.02530 0.57830 -0.06200
C 	C 	0.87558 0.53517 0.92679 0.09500
H 	H 	0.86570 0.55420 0.91050 -0.03600
C 	C 	0.90413 0.48498 0.94635 -0.03300
H 	H 	0.91810 0.46190 0.94700 0.03500
C 	C 	0.88980 0.50326 0.97779 0.05900
C 	C 	0.89960 0.48830 0.01650 0.15500
H 	H 	0.91480 0.46610 0.01650 -0.03300
C 	C 	0.85150 0.54430 0.07870 -0.22300
H 	H 	0.85030 0.52740 0.09970 0.07900
N 	N 	0.89060 0.50100 0.05060 -0.06400
N 	N 	0.86980 0.53480 0.04720 -0.08900
C 	C 	0.83270 0.58230 0.08042 0.05000
C 	C 	0.80960 0.60200 0.10600 -0.03500
H 	H 	0.80650 0.59600 0.13210 0.02900
C 	C 	0.80437 0.62825 0.05030 0.09600
H 	H 	0.79700 0.64510 0.03060 -0.03900
N 	N 	0.87100 0.53601 0.96501 -0.28100
N 	N 	0.89542 0.50481 0.91386 -0.22000
N 	N 	0.82826 0.59881 0.04481 -0.28300
N 	N 	0.79177 0.63149 0.08705 -0.22200
C 	C 	0.88710 0.50090 0.02000 -0.21800
H 	H 	0.89390 0.47820 0.03290 0.07400
C 	C 	0.85920 0.55220 0.09510 0.16800
H 	H 	0.86180 0.55250 0.12190 -0.03800
N 	N 	0.87520 0.53080 0.03900 -0.01000
N 	N 	0.87960 0.52530 0.07830 -0.06200
C 	C 	0.87558 0.46483 0.57321 0.09500
H 	H 	0.86570 0.44580 0.58950 -0.03600
C 	C 	0.90413 0.51502 0.55365 -0.03300
H 	H 	0.91810 0.53810 0.55300 0.03500
C 	C 	0.88980 0.49674 0.52221 0.05900
C 	C 	0.89960 0.51170 0.48350 0.15500
H 	H 	0.91480 0.53390 0.48350 -0.03300
C 	C 	0.85150 0.45570 0.42130 -0.22300
H 	H 	0.85030 0.47260 0.40030 0.07900
N 	N 	0.89060 0.49900 0.44940 -0.06400
N 	N 	0.86980 0.46520 0.45280 -0.08900
C 	C 	0.83270 0.41770 0.41958 0.05000
C 	C 	0.80960 0.39800 0.39400 -0.03500
H 	H 	0.80650 0.40400 0.36790 0.02900
C 	C 	0.80437 0.37175 0.44970 0.09600
H 	H 	0.79700 0.35490 0.46940 -0.03900
N 	N 	0.87100 0.46399 0.53499 -0.28100
N 	N 	0.89542 0.49519 0.58614 -0.22000
N 	N 	0.82826 0.40119 0.45519 -0.28300
N 	N 	0.79177 0.36851 0.41295 -0.22200
C 	C 	0.88710 0.49910 0.48000 -0.21800
H 	H 	0.89390 0.52180 0.46710 0.07400
C 	C 	0.85920 0.44780 0.40490 0.16800
H 	H 	0.86180 0.44750 0.37810 -0.03800
N 	N 	0.87520 0.46920 0.46100 -0.01000
N 	N 	0.87960 0.47470 0.42170 -0.06200
C 	C 	0.37558 0.96483 0.07321 0.09500
H 	H 	0.36570 0.94580 0.08950 -0.03600
C 	C 	0.40413 0.01502 0.05365 -0.03300
H 	H 	0.41810 0.03810 0.05300 0.03500
C 	C 	0.38980 0.99674 0.02221 0.05900
C 	C 	0.39960 0.01170 0.98350 0.15500
H 	H 	0.41480 0.03390 0.98350 -0.03300
C 	C 	0.35150 0.95570 0.92130 -0.22300
H 	H 	0.35030 0.97260 0.90030 0.07900
N 	N 	0.39060 0.99900 0.94940 -0.06400
N 	N 	0.36980 0.96520 0.95280 -0.08900
C 	C 	0.33270 0.91770 0.91958 0.05000
C 	C 	0.30960 0.89800 0.89400 -0.03500
H 	H 	0.30650 0.90400 0.86790 0.02900
C 	C 	0.30437 0.87175 0.94970 0.09600
H 	H 	0.29700 0.85490 0.96940 -0.03900
N 	N 	0.37100 0.96399 0.03499 -0.28100
N 	N 	0.39542 0.99519 0.08614 -0.22000
N 	N 	0.32826 0.90119 0.95519 -0.28300
N 	N 	0.29177 0.86851 0.91295 -0.22200
C 	C 	0.38710 0.99910 0.98000 -0.21800
H 	H 	0.39390 0.02180 0.96710 0.07400
C 	C 	0.35920 0.94780 0.90490 0.16800
H 	H 	0.36180 0.94750 0.87810 -0.03800
N 	N 	0.37520 0.96920 0.96100 -0.01000
N 	N 	0.37960 0.97470 0.92170 -0.06200
C 	C 	0.62442 0.53517 0.07321 0.09500
H 	H 	0.63430 0.55420 0.08950 -0.03600
C 	C 	0.59587 0.48498 0.05365 -0.03300
H 	H 	0.58190 0.46190 0.05300 0.03500
C 	C 	0.61020 0.50326 0.02221 0.05900
C 	C 	0.60040 0.48830 0.98350 0.15500
H 	H 	0.58520 0.46610 0.98350 -0.03300
C 	C 	0.64850 0.54430 0.92130 -0.22300
H 	H 	0.64970 0.52740 0.90030 0.07900
N 	N 	0.60940 0.50100 0.94940 -0.06400
N 	N 	0.63020 0.53480 0.95280 -0.08900
C 	C 	0.66730 0.58230 0.91958 0.05000
C 	C 	0.69040 0.60200 0.89400 -0.03500
H 	H 	0.69350 0.59600 0.86790 0.02900
C 	C 	0.69563 0.62825 0.94970 0.09600
H 	H 	0.70300 0.64510 0.96940 -0.03900
N 	N 	0.62900 0.53601 0.03499 -0.28100
N 	N 	0.60458 0.50481 0.08614 -0.22000
N 	N 	0.67174 0.59881 0.95519 -0.28300
N 	N 	0.70823 0.63149 0.91295 -0.22200
C 	C 	0.61290 0.50090 0.98000 -0.21800
H 	H 	0.60610 0.47820 0.96710 0.07400
C 	C 	0.64080 0.55220 0.90490 0.16800
H 	H 	0.63820 0.55250 0.87810 -0.03800
N 	N 	0.62480 0.53080 0.96100 -0.01000
N 	N 	0.62040 0.52530 0.92170 -0.06200
C 	C 	0.12442 0.03517 0.57321 0.09500
H 	H 	0.13430 0.05420 0.58950 -0.03600
C 	C 	0.09587 0.98498 0.55365 -0.03300
H 	H 	0.08190 0.96190 0.55300 0.03500
C 	C 	0.11020 0.00326 0.52221 0.05900
C 	C 	0.10040 0.98830 0.48350 0.15500
H 	H 	0.08520 0.96610 0.48350 -0.03300
C 	C 	0.14850 0.04430 0.42130 -0.22300
H 	H 	0.14970 0.02740 0.40030 0.07900
N 	N 	0.10940 0.00100 0.44940 -0.06400
N 	N 	0.13020 0.03480 0.45280 -0.08900
C 	C 	0.16730 0.08230 0.41958 0.05000
C 	C 	0.19040 0.10200 0.39400 -0.03500
H 	H 	0.19350 0.09600 0.36790 0.02900
C 	C 	0.19563 0.12825 0.44970 0.09600
H 	H 	0.20300 0.14510 0.46940 -0.03900
N 	N 	0.12900 0.03601 0.53499 -0.28100
N 	N 	0.10458 0.00481 0.58614 -0.22000
N 	N 	0.17174 0.09881 0.45519 -0.28300
N 	N 	0.20823 0.13149 0.41295 -0.22200
C 	C 	0.11290 0.00090 0.48000 -0.21800
H 	H 	0.10610 0.97820 0.46710 0.07400
C 	C 	0.14080 0.05220 0.40490 0.16800
H 	H 	0.13820 0.05250 0.37810 -0.03800
N 	N 	0.12480 0.03080 0.46100 -0.01000
N 	N 	0.12040 0.02530 0.42170 -0.06200
C 	C 	0.92679 0.12442 0.96483 0.09500
H 	H 	0.91050 0.13430 0.94580 -0.03600
C 	C 	0.94635 0.09587 0.01502 -0.03300
H 	H 	0.94700 0.08190 0.03810 0.03500
C 	C 	0.97779 0.11020 0.99674 0.05900
C 	C 	0.01650 0.10040 0.01170 0.15500
H 	H 	0.01650 0.08520 0.03390 -0.03300
C 	C 	0.07870 0.14850 0.95570 -0.22300
H 	H 	0.09970 0.14970 0.97260 0.07900
N 	N 	0.05060 0.10940 0.99900 -0.06400
N 	N 	0.04720 0.13020 0.96520 -0.08900
C 	C 	0.08042 0.16730 0.91770 0.05000
C 	C 	0.10600 0.19040 0.89800 -0.03500
H 	H 	0.13210 0.19350 0.90400 0.02900
C 	C 	0.05030 0.19563 0.87175 0.09600
H 	H 	0.03060 0.20300 0.85490 -0.03900
N 	N 	0.96501 0.12900 0.96399 -0.28100
N 	N 	0.91386 0.10458 0.99519 -0.22000
N 	N 	0.04481 0.17174 0.90119 -0.28300
N 	N 	0.08705 0.20823 0.86851 -0.22200
C 	C 	0.02000 0.11290 0.99910 -0.21800
H 	H 	0.03290 0.10610 0.02180 0.07400
C 	C 	0.09510 0.14080 0.94780 0.16800
H 	H 	0.12190 0.13820 0.94750 -0.03800
N 	N 	0.03900 0.12480 0.96920 -0.01000
N 	N 	0.07830 0.12040 0.97470 -0.06200
C 	C 	0.42679 0.62442 0.46483 0.09500
H 	H 	0.41050 0.63430 0.44580 -0.03600
C 	C 	0.44635 0.59587 0.51502 -0.03300
H 	H 	0.44700 0.58190 0.53810 0.03500
C 	C 	0.47779 0.61020 0.49674 0.05900
C 	C 	0.51650 0.60040 0.51170 0.15500
H 	H 	0.51650 0.58520 0.53390 -0.03300
C 	C 	0.57870 0.64850 0.45570 -0.22300
H 	H 	0.59970 0.64970 0.47260 0.07900
N 	N 	0.55060 0.60940 0.49900 -0.06400
N 	N 	0.54720 0.63020 0.46520 -0.08900
C 	C 	0.58042 0.66730 0.41770 0.05000
C 	C 	0.60600 0.69040 0.39800 -0.03500
H 	H 	0.63210 0.69350 0.40400 0.02900
C 	C 	0.55030 0.69563 0.37175 0.09600
H 	H 	0.53060 0.70300 0.35490 -0.03900
N 	N 	0.46501 0.62900 0.46399 -0.28100
N 	N 	0.41386 0.60458 0.49519 -0.22000
N 	N 	0.54481 0.67174 0.40119 -0.28300
N 	N 	0.58705 0.70823 0.36851 -0.22200
C 	C 	0.52000 0.61290 0.49910 -0.21800
H 	H 	0.53290 0.60610 0.52180 0.07400
C 	C 	0.59510 0.64080 0.44780 0.16800
H 	H 	0.62190 0.63820 0.44750 -0.03800
N 	N 	0.53900 0.62480 0.46920 -0.01000
N 	N 	0.57830 0.62040 0.47470 -0.06200
C 	C 	0.42679 0.37558 0.03517 0.09500
H 	H 	0.41050 0.36570 0.05420 -0.03600
C 	C 	0.44635 0.40413 0.98498 -0.03300
H 	H 	0.44700 0.41810 0.96190 0.03500
C 	C 	0.47779 0.38980 0.00326 0.05900
C 	C 	0.51650 0.39960 0.98830 0.15500
H 	H 	0.51650 0.41480 0.96610 -0.03300
C 	C 	0.57870 0.35150 0.04430 -0.22300
H 	H 	0.59970 0.35030 0.02740 0.07900
N 	N 	0.55060 0.39060 0.00100 -0.06400
N 	N 	0.54720 0.36980 0.03480 -0.08900
C 	C 	0.58042 0.33270 0.08230 0.05000
C 	C 	0.60600 0.30960 0.10200 -0.03500
H 	H 	0.63210 0.30650 0.09600 0.02900
C 	C 	0.55030 0.30437 0.12825 0.09600
H 	H 	0.53060 0.29700 0.14510 -0.03900
N 	N 	0.46501 0.37100 0.03601 -0.28100
N 	N 	0.41386 0.39542 0.00481 -0.22000
N 	N 	0.54481 0.32826 0.09881 -0.28300
N 	N 	0.58705 0.29177 0.13149 -0.22200
C 	C 	0.52000 0.38710 0.00090 -0.21800
H 	H 	0.53290 0.39390 0.97820 0.07400
C 	C 	0.59510 0.35920 0.05220 0.16800
H 	H 	0.62190 0.36180 0.05250 -0.03800
N 	N 	0.53900 0.37520 0.03080 -0.01000
N 	N 	0.57830 0.37960 0.02530 -0.06200
C 	C 	0.92679 0.87558 0.53517 0.09500
H 	H 	0.91050 0.86570 0.55420 -0.03600
C 	C 	0.94635 0.90413 0.48498 -0.03300
H 	H 	0.94700 0.91810 0.46190 0.03500
C 	C 	0.97779 0.88980 0.50326 0.05900
C 	C 	0.01650 0.89960 0.48830 0.15500
H 	H 	0.01650 0.91480 0.46610 -0.03300
C 	C 	0.07870 0.85150 0.54430 -0.22300
H 	H 	0.09970 0.85030 0.52740 0.07900
N 	N 	0.05060 0.89060 0.50100 -0.06400
N 	N 	0.04720 0.86980 0.53480 -0.08900
C 	C 	0.08042 0.83270 0.58230 0.05000
C 	C 	0.10600 0.80960 0.60200 -0.03500
H 	H 	0.13210 0.80650 0.59600 0.02900
C 	C 	0.05030 0.80437 0.62825 0.09600
H 	H 	0.03060 0.79700 0.64510 -0.03900
N 	N 	0.96501 0.87100 0.53601 -0.28100
N 	N 	0.91386 0.89542 0.50481 -0.22000
N 	N 	0.04481 0.82826 0.59881 -0.28300
N 	N 	0.08705 0.79177 0.63149 -0.22200
C 	C 	0.02000 0.88710 0.50090 -0.21800
H 	H 	0.03290 0.89390 0.47820 0.07400
C 	C 	0.09510 0.85920 0.55220 0.16800
H 	H 	0.12190 0.86180 0.55250 -0.03800
N 	N 	0.03900 0.87520 0.53080 -0.01000
N 	N 	0.07830 0.87960 0.52530 -0.06200
C 	C 	0.57321 0.87558 0.46483 0.09500
H 	H 	0.58950 0.86570 0.44580 -0.03600
C 	C 	0.55365 0.90413 0.51502 -0.03300
H 	H 	0.55300 0.91810 0.53810 0.03500
C 	C 	0.52221 0.88980 0.49674 0.05900
C 	C 	0.48350 0.89960 0.51170 0.15500
H 	H 	0.48350 0.91480 0.53390 -0.03300
C 	C 	0.42130 0.85150 0.45570 -0.22300
H 	H 	0.40030 0.85030 0.47260 0.07900
N 	N 	0.44940 0.89060 0.49900 -0.06400
N 	N 	0.45280 0.86980 0.46520 -0.08900
C 	C 	0.41958 0.83270 0.41770 0.05000
C 	C 	0.39400 0.80960 0.39800 -0.03500
H 	H 	0.36790 0.80650 0.40400 0.02900
C 	C 	0.44970 0.80437 0.37175 0.09600
H 	H 	0.46940 0.79700 0.35490 -0.03900
N 	N 	0.53499 0.87100 0.46399 -0.28100
N 	N 	0.58614 0.89542 0.49519 -0.22000
N 	N 	0.45519 0.82826 0.40119 -0.28300
N 	N 	0.41295 0.79177 0.36851 -0.22200
C 	C 	0.48000 0.88710 0.49910 -0.21800
H 	H 	0.46710 0.89390 0.52180 0.07400
C 	C 	0.40490 0.85920 0.44780 0.16800
H 	H 	0.37810 0.86180 0.44750 -0.03800
N 	N 	0.46100 0.87520 0.46920 -0.01000
N 	N 	0.42170 0.87960 0.47470 -0.06200
C 	C 	0.07321 0.37558 0.96483 0.09500
H 	H 	0.08950 0.36570 0.94580 -0.03600
C 	C 	0.05365 0.40413 0.01502 -0.03300
H 	H 	0.05300 0.41810 0.03810 0.03500
C 	C 	0.02221 0.38980 0.99674 0.05900
C 	C 	0.98350 0.39960 0.01170 0.15500
H 	H 	0.98350 0.41480 0.03390 -0.03300
C 	C 	0.92130 0.35150 0.95570 -0.22300
H 	H 	0.90030 0.35030 0.97260 0.07900
N 	N 	0.94940 0.39060 0.99900 -0.06400
N 	N 	0.95280 0.36980 0.96520 -0.08900
C 	C 	0.91958 0.33270 0.91770 0.05000
C 	C 	0.89400 0.30960 0.89800 -0.03500
H 	H 	0.86790 0.30650 0.90400 0.02900
C 	C 	0.94970 0.30437 0.87175 0.09600
H 	H 	0.96940 0.29700 0.85490 -0.03900
N 	N 	0.03499 0.37100 0.96399 -0.28100
N 	N 	0.08614 0.39542 0.99519 -0.22000
N 	N 	0.95519 0.32826 0.90119 -0.28300
N 	N 	0.91295 0.29177 0.86851 -0.22200
C 	C 	0.98000 0.38710 0.99910 -0.21800
H 	H 	0.96710 0.39390 0.02180 0.07400
C 	C 	0.90490 0.35920 0.94780 0.16800
H 	H 	0.87810 0.36180 0.94750 -0.03800
N 	N 	0.96100 0.37520 0.96920 -0.01000
N 	N 	0.92170 0.37960 0.97470 -0.06200
C 	C 	0.07321 0.62442 0.53517 0.09500
H 	H 	0.08950 0.63430 0.55420 -0.03600
C 	C 	0.05365 0.59587 0.48498 -0.03300
H 	H 	0.05300 0.58190 0.46190 0.03500
C 	C 	0.02221 0.61020 0.50326 0.05900
C 	C 	0.98350 0.60040 0.48830 0.15500
H 	H 	0.98350 0.58520 0.46610 -0.03300
C 	C 	0.92130 0.64850 0.54430 -0.22300
H 	H 	0.90030 0.64970 0.52740 0.07900
N 	N 	0.94940 0.60940 0.50100 -0.06400
N 	N 	0.95280 0.63020 0.53480 -0.08900
C 	C 	0.91958 0.66730 0.58230 0.05000
C 	C 	0.89400 0.69040 0.60200 -0.03500
H 	H 	0.86790 0.69350 0.59600 0.02900
C 	C 	0.94970 0.69563 0.62825 0.09600
H 	H 	0.96940 0.70300 0.64510 -0.03900
N 	N 	0.03499 0.62900 0.53601 -0.28100
N 	N 	0.08614 0.60458 0.50481 -0.22000
N 	N 	0.95519 0.67174 0.59881 -0.28300
N 	N 	0.91295 0.70823 0.63149 -0.22200
C 	C 	0.98000 0.61290 0.50090 -0.21800
H 	H 	0.96710 0.60610 0.47820 0.07400
C 	C 	0.90490 0.64080 0.55220 0.16800
H 	H 	0.87810 0.63820 0.55250 -0.03800
N 	N 	0.96100 0.62480 0.53080 -0.01000
N 	N 	0.92170 0.62040 0.52530 -0.06200
C 	C 	0.57321 0.12442 0.03517 0.09500
H 	H 	0.58950 0.13430 0.05420 -0.03600
C 	C 	0.55365 0.09587 0.98498 -0.03300
H 	H 	0.55300 0.08190 0.96190 0.03500
C 	C 	0.52221 0.11020 0.00326 0.05900
C 	C 	0.48350 0.10040 0.98830 0.15500
H 	H 	0.48350 0.08520 0.96610 -0.03300
C 	C 	0.42130 0.14850 0.04430 -0.22300
H 	H 	0.40030 0.14970 0.02740 0.07900
N 	N 	0.44940 0.10940 0.00100 -0.06400
N 	N 	0.45280 0.13020 0.03480 -0.08900
C 	C 	0.41958 0.16730 0.08230 0.05000
C 	C 	0.39400 0.19040 0.10200 -0.03500
H 	H 	0.36790 0.19350 0.09600 0.02900
C 	C 	0.44970 0.19563 0.12825 0.09600
H 	H 	0.46940 0.20300 0.14510 -0.03900
N 	N 	0.53499 0.12900 0.03601 -0.28100
N 	N 	0.58614 0.10458 0.00481 -0.22000
N 	N 	0.45519 0.17174 0.09881 -0.28300
N 	N 	0.41295 0.20823 0.13149 -0.22200
C 	C 	0.48000 0.11290 0.00090 -0.21800
H 	H 	0.46710 0.10610 0.97820 0.07400
C 	C 	0.40490 0.14080 0.05220 0.16800
H 	H 	0.37810 0.13820 0.05250 -0.03800
N 	N 	0.46100 0.12480 0.03080 -0.01000
N 	N 	0.42170 0.12040 0.02530 -0.06200
C 	C 	0.96483 0.92679 0.12442 0.09500
H 	H 	0.94580 0.91050 0.13430 -0.03600
C 	C 	0.01502 0.94635 0.09587 -0.03300
H 	H 	0.03810 0.94700 0.08190 0.03500
C 	C 	0.99674 0.97779 0.11020 0.05900
C 	C 	0.01170 0.01650 0.10040 0.15500
H 	H 	0.03390 0.01650 0.08520 -0.03300
C 	C 	0.95570 0.07870 0.14850 -0.22300
H 	H 	0.97260 0.09970 0.14970 0.07900
N 	N 	0.99900 0.05060 0.10940 -0.06400
N 	N 	0.96520 0.04720 0.13020 -0.08900
C 	C 	0.91770 0.08042 0.16730 0.05000
C 	C 	0.89800 0.10600 0.19040 -0.03500
H 	H 	0.90400 0.13210 0.19350 0.02900
C 	C 	0.87175 0.05030 0.19563 0.09600
H 	H 	0.85490 0.03060 0.20300 -0.03900
N 	N 	0.96399 0.96501 0.12900 -0.28100
N 	N 	0.99519 0.91386 0.10458 -0.22000
N 	N 	0.90119 0.04481 0.17174 -0.28300
N 	N 	0.86851 0.08705 0.20823 -0.22200
C 	C 	0.99910 0.02000 0.11290 -0.21800
H 	H 	0.02180 0.03290 0.10610 0.07400
C 	C 	0.94780 0.09510 0.14080 0.16800
H 	H 	0.94750 0.12190 0.13820 -0.03800
N 	N 	0.96920 0.03900 0.12480 -0.01000
N 	N 	0.97470 0.07830 0.12040 -0.06200
C 	C 	0.46483 0.42679 0.62442 0.09500
H 	H 	0.44580 0.41050 0.63430 -0.03600
C 	C 	0.51502 0.44635 0.59587 -0.03300
H 	H 	0.53810 0.44700 0.58190 0.03500
C 	C 	0.49674 0.47779 0.61020 0.05900
C 	C 	0.51170 0.51650 0.60040 0.15500
H 	H 	0.53390 0.51650 0.58520 -0.03300
C 	C 	0.45570 0.57870 0.64850 -0.22300
H 	H 	0.47260 0.59970 0.64970 0.07900
N 	N 	0.49900 0.55060 0.60940 -0.06400
N 	N 	0.46520 0.54720 0.63020 -0.08900
C 	C 	0.41770 0.58042 0.66730 0.05000
C 	C 	0.39800 0.60600 0.69040 -0.03500
H 	H 	0.40400 0.63210 0.69350 0.02900
C 	C 	0.37175 0.55030 0.69563 0.09600
H 	H 	0.35490 0.53060 0.70300 -0.03900
N 	N 	0.46399 0.46501 0.62900 -0.28100
N 	N 	0.49519 0.41386 0.60458 -0.22000
N 	N 	0.40119 0.54481 0.67174 -0.28300
N 	N 	0.36851 0.58705 0.70823 -0.22200
C 	C 	0.49910 0.52000 0.61290 -0.21800
H 	H 	0.52180 0.53290 0.60610 0.07400
C 	C 	0.44780 0.59510 0.64080 0.16800
H 	H 	0.44750 0.62190 0.63820 -0.03800
N 	N 	0.46920 0.53900 0.62480 -0.01000
N 	N 	0.47470 0.57830 0.62040 -0.06200
C 	C 	0.03517 0.42679 0.37558 0.09500
H 	H 	0.05420 0.41050 0.36570 -0.03600
C 	C 	0.98498 0.44635 0.40413 -0.03300
H 	H 	0.96190 0.44700 0.41810 0.03500
C 	C 	0.00326 0.47779 0.38980 0.05900
C 	C 	0.98830 0.51650 0.39960 0.15500
H 	H 	0.96610 0.51650 0.41480 -0.03300
C 	C 	0.04430 0.57870 0.35150 -0.22300
H 	H 	0.02740 0.59970 0.35030 0.07900
N 	N 	0.00100 0.55060 0.39060 -0.06400
N 	N 	0.03480 0.54720 0.36980 -0.08900
C 	C 	0.08230 0.58042 0.33270 0.05000
C 	C 	0.10200 0.60600 0.30960 -0.03500
H 	H 	0.09600 0.63210 0.30650 0.02900
C 	C 	0.12825 0.55030 0.30437 0.09600
H 	H 	0.14510 0.53060 0.29700 -0.03900
N 	N 	0.03601 0.46501 0.37100 -0.28100
N 	N 	0.00481 0.41386 0.39542 -0.22000
N 	N 	0.09881 0.54481 0.32826 -0.28300
N 	N 	0.13149 0.58705 0.29177 -0.22200
C 	C 	0.00090 0.52000 0.38710 -0.21800
H 	H 	0.97820 0.53290 0.39390 0.07400
C 	C 	0.05220 0.59510 0.35920 0.16800
H 	H 	0.05250 0.62190 0.36180 -0.03800
N 	N 	0.03080 0.53900 0.37520 -0.01000
N 	N 	0.02530 0.57830 0.37960 -0.06200
C 	C 	0.53517 0.92679 0.87558 0.09500
H 	H 	0.55420 0.91050 0.86570 -0.03600
C 	C 	0.48498 0.94635 0.90413 -0.03300
H 	H 	0.46190 0.94700 0.91810 0.03500
C 	C 	0.50326 0.97779 0.88980 0.05900
C 	C 	0.48830 0.01650 0.89960 0.15500
H 	H 	0.46610 0.01650 0.91480 -0.03300
C 	C 	0.54430 0.07870 0.85150 -0.22300
H 	H 	0.52740 0.09970 0.85030 0.07900
N 	N 	0.50100 0.05060 0.89060 -0.06400
N 	N 	0.53480 0.04720 0.86980 -0.08900
C 	C 	0.58230 0.08042 0.83270 0.05000
C 	C 	0.60200 0.10600 0.80960 -0.03500
H 	H 	0.59600 0.13210 0.80650 0.02900
C 	C 	0.62825 0.05030 0.80437 0.09600
H 	H 	0.64510 0.03060 0.79700 -0.03900
N 	N 	0.53601 0.96501 0.87100 -0.28100
N 	N 	0.50481 0.91386 0.89542 -0.22000
N 	N 	0.59881 0.04481 0.82826 -0.28300
N 	N 	0.63149 0.08705 0.79177 -0.22200
C 	C 	0.50090 0.02000 0.88710 -0.21800
H 	H 	0.47820 0.03290 0.89390 0.07400
C 	C 	0.55220 0.09510 0.85920 0.16800
H 	H 	0.55250 0.12190 0.86180 -0.03800
N 	N 	0.53080 0.03900 0.87520 -0.01000
N 	N 	0.52530 0.07830 0.87960 -0.06200
C 	C 	0.46483 0.57321 0.87558 0.09500
H 	H 	0.44580 0.58950 0.86570 -0.03600
C 	C 	0.51502 0.55365 0.90413 -0.03300
H 	H 	0.53810 0.55300 0.91810 0.03500
C 	C 	0.49674 0.52221 0.88980 0.05900
C 	C 	0.51170 0.48350 0.89960 0.15500
H 	H 	0.53390 0.48350 0.91480 -0.03300
C 	C 	0.45570 0.42130 0.85150 -0.22300
H 	H 	0.47260 0.40030 0.85030 0.07900
N 	N 	0.49900 0.44940 0.89060 -0.06400
N 	N 	0.46520 0.45280 0.86980 -0.08900
C 	C 	0.41770 0.41958 0.83270 0.05000
C 	C 	0.39800 0.39400 0.80960 -0.03500
H 	H 	0.40400 0.36790 0.80650 0.02900
C 	C 	0.37175 0.44970 0.80437 0.09600
H 	H 	0.35490 0.46940 0.79700 -0.03900
N 	N 	0.46399 0.53499 0.87100 -0.28100
N 	N 	0.49519 0.58614 0.89542 -0.22000
N 	N 	0.40119 0.45519 0.82826 -0.28300
N 	N 	0.36851 0.41295 0.79177 -0.22200
C 	C 	0.49910 0.48000 0.88710 -0.21800
H 	H 	0.52180 0.46710 0.89390 0.07400
C 	C 	0.44780 0.40490 0.85920 0.16800
H 	H 	0.44750 0.37810 0.86180 -0.03800
N 	N 	0.46920 0.46100 0.87520 -0.01000
N 	N 	0.47470 0.42170 0.87960 -0.06200
C 	C 	0.96483 0.07321 0.37558 0.09500
H 	H 	0.94580 0.08950 0.36570 -0.03600
C 	C 	0.01502 0.05365 0.40413 -0.03300
H 	H 	0.03810 0.05300 0.41810 0.03500
C 	C 	0.99674 0.02221 0.38980 0.05900
C 	C 	0.01170 0.98350 0.39960 0.15500
H 	H 	0.03390 0.98350 0.41480 -0.03300
C 	C 	0.95570 0.92130 0.35150 -0.22300
H 	H 	0.97260 0.90030 0.35030 0.07900
N 	N 	0.99900 0.94940 0.39060 -0.06400
N 	N 	0.96520 0.95280 0.36980 -0.08900
C 	C 	0.91770 0.91958 0.33270 0.05000
C 	C 	0.89800 0.89400 0.30960 -0.03500
H 	H 	0.90400 0.86790 0.30650 0.02900
C 	C 	0.87175 0.94970 0.30437 0.09600
H 	H 	0.85490 0.96940 0.29700 -0.03900
N 	N 	0.96399 0.03499 0.37100 -0.28100
N 	N 	0.99519 0.08614 0.39542 -0.22000
N 	N 	0.90119 0.95519 0.32826 -0.28300
N 	N 	0.86851 0.91295 0.29177 -0.22200
C 	C 	0.99910 0.98000 0.38710 -0.21800
H 	H 	0.02180 0.96710 0.39390 0.07400
C 	C 	0.94780 0.90490 0.35920 0.16800
H 	H 	0.94750 0.87810 0.36180 -0.03800
N 	N 	0.96920 0.96100 0.37520 -0.01000
N 	N 	0.97470 0.92170 0.37960 -0.06200
C 	C 	0.53517 0.07321 0.62442 0.09500
H 	H 	0.55420 0.08950 0.63430 -0.03600
C 	C 	0.48498 0.05365 0.59587 -0.03300
H 	H 	0.46190 0.05300 0.58190 0.03500
C 	C 	0.50326 0.02221 0.61020 0.05900
C 	C 	0.48830 0.98350 0.60040 0.15500
H 	H 	0.46610 0.98350 0.58520 -0.03300
C 	C 	0.54430 0.92130 0.64850 -0.22300
H 	H 	0.52740 0.90030 0.64970 0.07900
N 	N 	0.50100 0.94940 0.60940 -0.06400
N 	N 	0.53480 0.95280 0.63020 -0.08900
C 	C 	0.58230 0.91958 0.66730 0.05000
C 	C 	0.60200 0.89400 0.69040 -0.03500
H 	H 	0.59600 0.86790 0.69350 0.02900
C 	C 	0.62825 0.94970 0.69563 0.09600
H 	H 	0.64510 0.96940 0.70300 -0.03900
N 	N 	0.53601 0.03499 0.62900 -0.28100
N 	N 	0.50481 0.08614 0.60458 -0.22000
N 	N 	0.59881 0.95519 0.67174 -0.28300
N 	N 	0.63149 0.91295 0.70823 -0.22200
C 	C 	0.50090 0.98000 0.61290 -0.21800
H 	H 	0.47820 0.96710 0.60610 0.07400
C 	C 	0.55220 0.90490 0.64080 0.16800
H 	H 	0.55250 0.87810 0.63820 -0.03800
N 	N 	0.53080 0.96100 0.62480 -0.01000
N 	N 	0.52530 0.92170 0.62040 -0.06200
C 	C 	0.03517 0.57321 0.12442 0.09500
H 	H 	0.05420 0.58950 0.13430 -0.03600
C 	C 	0.98498 0.55365 0.09587 -0.03300
H 	H 	0.96190 0.55300 0.08190 0.03500
C 	C 	0.00326 0.52221 0.11020 0.05900
C 	C 	0.98830 0.48350 0.10040 0.15500
H 	H 	0.96610 0.48350 0.08520 -0.03300
C 	C 	0.04430 0.42130 0.14850 -0.22300
H 	H 	0.02740 0.40030 0.14970 0.07900
N 	N 	0.00100 0.44940 0.10940 -0.06400
N 	N 	0.03480 0.45280 0.13020 -0.08900
C 	C 	0.08230 0.41958 0.16730 0.05000
C 	C 	0.10200 0.39400 0.19040 -0.03500
H 	H 	0.09600 0.36790 0.19350 0.02900
C 	C 	0.12825 0.44970 0.19563 0.09600
H 	H 	0.14510 0.46940 0.20300 -0.03900
N 	N 	0.03601 0.53499 0.12900 -0.28100
N 	N 	0.00481 0.58614 0.10458 -0.22000
N 	N 	0.09881 0.45519 0.17174 -0.28300
N 	N 	0.13149 0.41295 0.20823 -0.22200
C 	C 	0.00090 0.48000 0.11290 -0.21800
H 	H 	0.97820 0.46710 0.10610 0.07400
C 	C 	0.05220 0.40490 0.14080 0.16800
H 	H 	0.05250 0.37810 0.13820 -0.03800
N 	N 	0.03080 0.46100 0.12480 -0.01000
N 	N 	0.02530 0.42170 0.12040 -0.06200
C 	C 	0.21483 0.87442 0.82321 0.09500
H 	H 	0.19580 0.88430 0.83950 -0.03600
C 	C 	0.26502 0.84587 0.80365 -0.03300
H 	H 	0.28810 0.83190 0.80300 0.03500
C 	C 	0.24674 0.86020 0.77221 0.05900
C 	C 	0.26170 0.85040 0.73350 0.15500
H 	H 	0.28390 0.83520 0.73350 -0.03300
C 	C 	0.20570 0.89850 0.67130 -0.22300
H 	H 	0.22260 0.89970 0.65030 0.07900
N 	N 	0.24900 0.85940 0.69940 -0.06400
N 	N 	0.21520 0.88020 0.70280 -0.08900
C 	C 	0.16770 0.91730 0.66958 0.05000
C 	C 	0.14800 0.94040 0.64400 -0.03500
H 	H 	0.15400 0.94350 0.61790 0.02900
C 	C 	0.12175 0.94563 0.69970 0.09600
H 	H 	0.10490 0.95300 0.71940 -0.03900
N 	N 	0.21399 0.87900 0.78499 -0.28100
N 	N 	0.24519 0.85458 0.83614 -0.22000
N 	N 	0.15119 0.92174 0.70519 -0.28300
N 	N 	0.11851 0.95823 0.66295 -0.22200
C 	C 	0.24910 0.86290 0.73000 -0.21800
H 	H 	0.27180 0.85610 0.71710 0.07400
C 	C 	0.19780 0.89080 0.65490 0.16800
H 	H 	0.19750 0.88820 0.62810 -0.03800
N 	N 	0.21920 0.87480 0.71100 -0.01000
N 	N 	0.22470 0.87040 0.67170 -0.06200
C 	C 	0.71483 0.37442 0.32321 0.09500
H 	H 	0.69580 0.38430 0.33950 -0.03600
C 	C 	0.76502 0.34587 0.30365 -0.03300
H 	H 	0.78810 0.33190 0.30300 0.03500
C 	C 	0.74674 0.36020 0.27221 0.05900
C 	C 	0.76170 0.35040 0.23350 0.15500
H 	H 	0.78390 0.33520 0.23350 -0.03300
C 	C 	0.70570 0.39850 0.17130 -0.22300
H 	H 	0.72260 0.39970 0.15030 0.07900
N 	N 	0.74900 0.35940 0.19940 -0.06400
N 	N 	0.71520 0.38020 0.20280 -0.08900
C 	C 	0.66770 0.41730 0.16958 0.05000
C 	C 	0.64800 0.44040 0.14400 -0.03500
H 	H 	0.65400 0.44350 0.11790 0.02900
C 	C 	0.62175 0.44563 0.19970 0.09600
H 	H 	0.60490 0.45300 0.21940 -0.03900
N 	N 	0.71399 0.37900 0.28499 -0.28100
N 	N 	0.74519 0.35458 0.33614 -0.22000
N 	N 	0.65119 0.42174 0.20519 -0.28300
N 	N 	0.61851 0.45823 0.16295 -0.22200
C 	C 	0.74910 0.36290 0.23000 -0.21800
H 	H 	0.77180 0.35610 0.21710 0.07400
C 	C 	0.69780 0.39080 0.15490 0.16800
H 	H 	0.69750 0.38820 0.12810 -0.03800
N 	N 	0.71920 0.37480 0.21100 -0.01000
N 	N 	0.72470 0.37040 0.17170 -0.06200
C 	C 	0.28517 0.12558 0.32321 0.09500
H 	H 	0.30420 0.11570 0.33950 -0.03600
C 	C 	0.23498 0.15413 0.30365 -0.03300
H 	H 	0.21190 0.16810 0.30300 0.03500
C 	C 	0.25326 0.13980 0.27221 0.05900
C 	C 	0.23830 0.14960 0.23350 0.15500
H 	H 	0.21610 0.16480 0.23350 -0.03300
C 	C 	0.29430 0.10150 0.17130 -0.22300
H 	H 	0.27740 0.10030 0.15030 0.07900
N 	N 	0.25100 0.14060 0.19940 -0.06400
N 	N 	0.28480 0.11980 0.20280 -0.08900
C 	C 	0.33230 0.08270 0.16958 0.05000
C 	C 	0.35200 0.05960 0.14400 -0.03500
H 	H 	0.34600 0.05650 0.11790 0.02900
C 	C 	0.37825 0.05437 0.19970 0.09600
H 	H 	0.39510 0.04700 0.21940 -0.03900
N 	N 	0.28601 0.12100 0.28499 -0.28100
N 	N 	0.25481 0.14542 0.33614 -0.22000
N 	N 	0.34881 0.07826 0.20519 -0.28300
N 	N 	0.38149 0.04177 0.16295 -0.22200
C 	C 	0.25090 0.13710 0.23000 -0.21800
H 	H 	0.22820 0.14390 0.21710 0.07400
C 	C 	0.30220 0.10920 0.15490 0.16800
H 	H 	0.30250 0.11180 0.12810 -0.03800
N 	N 	0.28080 0.12520 0.21100 -0.01000
N 	N 	0.27530 0.12960 0.17170 -0.06200
C 	C 	0.78517 0.62558 0.82321 0.09500
H 	H 	0.80420 0.61570 0.83950 -0.03600
C 	C 	0.73498 0.65413 0.80365 -0.03300
H 	H 	0.71190 0.66810 0.80300 0.03500
C 	C 	0.75326 0.63980 0.77221 0.05900
C 	C 	0.73830 0.64960 0.73350 0.15500
H 	H 	0.71610 0.66480 0.73350 -0.03300
C 	C 	0.79430 0.60150 0.67130 -0.22300
H 	H 	0.77740 0.60030 0.65030 0.07900
N 	N 	0.75100 0.64060 0.69940 -0.06400
N 	N 	0.78480 0.61980 0.70280 -0.08900
C 	C 	0.83230 0.58270 0.66958 0.05000
C 	C 	0.85200 0.55960 0.64400 -0.03500
H 	H 	0.84600 0.55650 0.61790 0.02900
C 	C 	0.87825 0.55437 0.69970 0.09600
H 	H 	0.89510 0.54700 0.71940 -0.03900
N 	N 	0.78601 0.62100 0.78499 -0.28100
N 	N 	0.75481 0.64542 0.83614 -0.22000
N 	N 	0.84881 0.57826 0.70519 -0.28300
N 	N 	0.88149 0.54177 0.66295 -0.22200
C 	C 	0.75090 0.63710 0.73000 -0.21800
H 	H 	0.72820 0.64390 0.71710 0.07400
C 	C 	0.80220 0.60920 0.65490 0.16800
H 	H 	0.80250 0.61180 0.62810 -0.03800
N 	N 	0.78080 0.62520 0.71100 -0.01000
N 	N 	0.77530 0.62960 0.67170 -0.06200
C 	C 	0.71483 0.62558 0.17679 0.09500
H 	H 	0.69580 0.61570 0.16050 -0.03600
C 	C 	0.76502 0.65413 0.19635 -0.03300
H 	H 	0.78810 0.66810 0.19700 0.03500
C 	C 	0.74674 0.63980 0.22779 0.05900
C 	C 	0.76170 0.64960 0.26650 0.15500
H 	H 	0.78390 0.66480 0.26650 -0.03300
C 	C 	0.70570 0.60150 0.32870 -0.22300
H 	H 	0.72260 0.60030 0.34970 0.07900
N 	N 	0.74900 0.64060 0.30060 -0.06400
N 	N 	0.71520 0.61980 0.29720 -0.08900
C 	C 	0.66770 0.58270 0.33042 0.05000
C 	C 	0.64800 0.55960 0.35600 -0.03500
H 	H 	0.65400 0.55650 0.38210 0.02900
C 	C 	0.62175 0.55437 0.30030 0.09600
H 	H 	0.60490 0.54700 0.28060 -0.03900
N 	N 	0.71399 0.62100 0.21501 -0.28100
N 	N 	0.74519 0.64542 0.16386 -0.22000
N 	N 	0.65119 0.57826 0.29481 -0.28300
N 	N 	0.61851 0.54177 0.33705 -0.22200
C 	C 	0.74910 0.63710 0.27000 -0.21800
H 	H 	0.77180 0.64390 0.28290 0.07400
C 	C 	0.69780 0.60920 0.34510 0.16800
H 	H 	0.69750 0.61180 0.37190 -0.03800
N 	N 	0.71920 0.62520 0.28900 -0.01000
N 	N 	0.72470 0.62960 0.32830 -0.06200
C 	C 	0.21483 0.12558 0.67679 0.09500
H 	H 	0.19580 0.11570 0.66050 -0.03600
C 	C 	0.26502 0.15413 0.69635 -0.03300
H 	H 	0.28810 0.16810 0.69700 0.03500
C 	C 	0.24674 0.13980 0.72779 0.05900
C 	C 	0.26170 0.14960 0.76650 0.15500
H 	H 	0.28390 0.16480 0.76650 -0.03300
C 	C 	0.20570 0.10150 0.82870 -0.22300
H 	H 	0.22260 0.10030 0.84970 0.07900
N 	N 	0.24900 0.14060 0.80060 -0.06400
N 	N 	0.21520 0.11980 0.79720 -0.08900
C 	C 	0.16770 0.08270 0.83042 0.05000
C 	C 	0.14800 0.05960 0.85600 -0.03500
H 	H 	0.15400 0.05650 0.88210 0.02900
C 	C 	0.12175 0.05437 0.80030 0.09600
H 	H 	0.10490 0.04700 0.78060 -0.03900
N 	N 	0.21399 0.12100 0.71501 -0.28100
N 	N 	0.24519 0.14542 0.66386 -0.22000
N 	N 	0.15119 0.07826 0.79481 -0.28300
N 	N 	0.11851 0.04177 0.83705 -0.22200
C 	C 	0.24910 0.13710 0.77000 -0.21800
H 	H 	0.27180 0.14390 0.78290 0.07400
C 	C 	0.19780 0.10920 0.84510 0.16800
H 	H 	0.19750 0.11180 0.87190 -0.03800
N 	N 	0.21920 0.12520 0.78900 -0.01000
N 	N 	0.22470 0.12960 0.82830 -0.06200
C 	C 	0.78517 0.37442 0.67679 0.09500
H 	H 	0.80420 0.38430 0.66050 -0.03600
C 	C 	0.73498 0.34587 0.69635 -0.03300
H 	H 	0.71190 0.33190 0.69700 0.03500
C 	C 	0.75326 0.36020 0.72779 0.05900
C 	C 	0.73830 0.35040 0.76650 0.15500
H 	H 	0.71610 0.33520 0.76650 -0.03300
C 	C 	0.79430 0.39850 0.82870 -0.22300
H 	H 	0.77740 0.39970 0.84970 0.07900
N 	N 	0.75100 0.35940 0.80060 -0.06400
N 	N 	0.78480 0.38020 0.79720 -0.08900
C 	C 	0.83230 0.41730 0.83042 0.05000
C 	C 	0.85200 0.44040 0.85600 -0.03500
H 	H 	0.84600 0.44350 0.88210 0.02900
C 	C 	0.87825 0.44563 0.80030 0.09600
H 	H 	0.89510 0.45300 0.78060 -0.03900
N 	N 	0.78601 0.37900 0.71501 -0.28100
N 	N 	0.75481 0.35458 0.66386 -0.22000
N 	N 	0.84881 0.42174 0.79481 -0.28300
N 	N 	0.88149 0.45823 0.83705 -0.22200
C 	C 	0.75090 0.36290 0.77000 -0.21800
H 	H 	0.72820 0.35610 0.78290 0.07400
C 	C 	0.80220 0.39080 0.84510 0.16800
H 	H 	0.80250 0.38820 0.87190 -0.03800
N 	N 	0.78080 0.37480 0.78900 -0.01000
N 	N 	0.77530 0.37040 0.82830 -0.06200
C 	C 	0.28517 0.87442 0.17679 0.09500
H 	H 	0.30420 0.88430 0.16050 -0.03600
C 	C 	0.23498 0.84587 0.19635 -0.03300
H 	H 	0.21190 0.83190 0.19700 0.03500
C 	C 	0.25326 0.86020 0.22779 0.05900
C 	C 	0.23830 0.85040 0.26650 0.15500
H 	H 	0.21610 0.83520 0.26650 -0.03300
C 	C 	0.29430 0.89850 0.32870 -0.22300
H 	H 	0.27740 0.89970 0.34970 0.07900
N 	N 	0.25100 0.85940 0.30060 -0.06400
N 	N 	0.28480 0.88020 0.29720 -0.08900
C 	C 	0.33230 0.91730 0.33042 0.05000
C 	C 	0.35200 0.94040 0.35600 -0.03500
H 	H 	0.34600 0.94350 0.38210 0.02900
C 	C 	0.37825 0.94563 0.30030 0.09600
H 	H 	0.39510 0.95300 0.28060 -0.03900
N 	N 	0.28601 0.87900 0.21501 -0.28100
N 	N 	0.25481 0.85458 0.16386 -0.22000
N 	N 	0.34881 0.92174 0.29481 -0.28300
N 	N 	0.38149 0.95823 0.33705 -0.22200
C 	C 	0.25090 0.86290 0.27000 -0.21800
H 	H 	0.22820 0.85610 0.28290 0.07400
C 	C 	0.30220 0.89080 0.34510 0.16800
H 	H 	0.30250 0.88820 0.37190 -0.03800
N 	N 	0.28080 0.87480 0.28900 -0.01000
N 	N 	0.27530 0.87040 0.32830 -0.06200
C 	C 	0.37442 0.67679 0.78517 0.09500
H 	H 	0.38430 0.66050 0.80420 -0.03600
C 	C 	0.34587 0.69635 0.73498 -0.03300
H 	H 	0.33190 0.69700 0.71190 0.03500
C 	C 	0.36020 0.72779 0.75326 0.05900
C 	C 	0.35040 0.76650 0.73830 0.15500
H 	H 	0.33520 0.76650 0.71610 -0.03300
C 	C 	0.39850 0.82870 0.79430 -0.22300
H 	H 	0.39970 0.84970 0.77740 0.07900
N 	N 	0.35940 0.80060 0.75100 -0.06400
N 	N 	0.38020 0.79720 0.78480 -0.08900
C 	C 	0.41730 0.83042 0.83230 0.05000
C 	C 	0.44040 0.85600 0.85200 -0.03500
H 	H 	0.44350 0.88210 0.84600 0.02900
C 	C 	0.44563 0.80030 0.87825 0.09600
H 	H 	0.45300 0.78060 0.89510 -0.03900
N 	N 	0.37900 0.71501 0.78601 -0.28100
N 	N 	0.35458 0.66386 0.75481 -0.22000
N 	N 	0.42174 0.79481 0.84881 -0.28300
N 	N 	0.45823 0.83705 0.88149 -0.22200
C 	C 	0.36290 0.77000 0.75090 -0.21800
H 	H 	0.35610 0.78290 0.72820 0.07400
C 	C 	0.39080 0.84510 0.80220 0.16800
H 	H 	0.38820 0.87190 0.80250 -0.03800
N 	N 	0.37480 0.78900 0.78080 -0.01000
N 	N 	0.37040 0.82830 0.77530 -0.06200
C 	C 	0.87442 0.17679 0.28517 0.09500
H 	H 	0.88430 0.16050 0.30420 -0.03600
C 	C 	0.84587 0.19635 0.23498 -0.03300
H 	H 	0.83190 0.19700 0.21190 0.03500
C 	C 	0.86020 0.22779 0.25326 0.05900
C 	C 	0.85040 0.26650 0.23830 0.15500
H 	H 	0.83520 0.26650 0.21610 -0.03300
C 	C 	0.89850 0.32870 0.29430 -0.22300
H 	H 	0.89970 0.34970 0.27740 0.07900
N 	N 	0.85940 0.30060 0.25100 -0.06400
N 	N 	0.88020 0.29720 0.28480 -0.08900
C 	C 	0.91730 0.33042 0.33230 0.05000
C 	C 	0.94040 0.35600 0.35200 -0.03500
H 	H 	0.94350 0.38210 0.34600 0.02900
C 	C 	0.94563 0.30030 0.37825 0.09600
H 	H 	0.95300 0.28060 0.39510 -0.03900
N 	N 	0.87900 0.21501 0.28601 -0.28100
N 	N 	0.85458 0.16386 0.25481 -0.22000
N 	N 	0.92174 0.29481 0.34881 -0.28300
N 	N 	0.95823 0.33705 0.38149 -0.22200
C 	C 	0.86290 0.27000 0.25090 -0.21800
H 	H 	0.85610 0.28290 0.22820 0.07400
C 	C 	0.89080 0.34510 0.30220 0.16800
H 	H 	0.88820 0.37190 0.30250 -0.03800
N 	N 	0.87480 0.28900 0.28080 -0.01000
N 	N 	0.87040 0.32830 0.27530 -0.06200
C 	C 	0.62558 0.17679 0.71483 0.09500
H 	H 	0.61570 0.16050 0.69580 -0.03600
C 	C 	0.65413 0.19635 0.76502 -0.03300
H 	H 	0.66810 0.19700 0.78810 0.03500
C 	C 	0.63980 0.22779 0.74674 0.05900
C 	C 	0.64960 0.26650 0.76170 0.15500
H 	H 	0.66480 0.26650 0.78390 -0.03300
C 	C 	0.60150 0.32870 0.70570 -0.22300
H 	H 	0.60030 0.34970 0.72260 0.07900
N 	N 	0.64060 0.30060 0.74900 -0.06400
N 	N 	0.61980 0.29720 0.71520 -0.08900
C 	C 	0.58270 0.33042 0.66770 0.05000
C 	C 	0.55960 0.35600 0.64800 -0.03500
H 	H 	0.55650 0.38210 0.65400 0.02900
C 	C 	0.55437 0.30030 0.62175 0.09600
H 	H 	0.54700 0.28060 0.60490 -0.03900
N 	N 	0.62100 0.21501 0.71399 -0.28100
N 	N 	0.64542 0.16386 0.74519 -0.22000
N 	N 	0.57826 0.29481 0.65119 -0.28300
N 	N 	0.54177 0.33705 0.61851 -0.22200
C 	C 	0.63710 0.27000 0.74910 -0.21800
H 	H 	0.64390 0.28290 0.77180 0.07400
C 	C 	0.60920 0.34510 0.69780 0.16800
H 	H 	0.61180 0.37190 0.69750 -0.03800
N 	N 	0.62520 0.28900 0.71920 -0.01000
N 	N 	0.62960 0.32830 0.72470 -0.06200
C 	C 	0.12558 0.67679 0.21483 0.09500
H 	H 	0.11570 0.66050 0.19580 -0.03600
C 	C 	0.15413 0.69635 0.26502 -0.03300
H 	H 	0.16810 0.69700 0.28810 0.03500
C 	C 	0.13980 0.72779 0.24674 0.05900
C 	C 	0.14960 0.76650 0.26170 0.15500
H 	H 	0.16480 0.76650 0.28390 -0.03300
C 	C 	0.10150 0.82870 0.20570 -0.22300
H 	H 	0.10030 0.84970 0.22260 0.07900
N 	N 	0.14060 0.80060 0.24900 -0.06400
N 	N 	0.11980 0.79720 0.21520 -0.08900
C 	C 	0.08270 0.83042 0.16770 0.05000
C 	C 	0.05960 0.85600 0.14800 -0.03500
H 	H 	0.05650 0.88210 0.15400 0.02900
C 	C 	0.05437 0.80030 0.12175 0.09600
H 	H 	0.04700 0.78060 0.10490 -0.03900
N 	N 	0.12100 0.71501 0.21399 -0.28100
N 	N 	0.14542 0.66386 0.24519 -0.22000
N 	N 	0.07826 0.79481 0.15119 -0.28300
N 	N 	0.04177 0.83705 0.11851 -0.22200
C 	C 	0.13710 0.77000 0.24910 -0.21800
H 	H 	0.14390 0.78290 0.27180 0.07400
C 	C 	0.10920 0.84510 0.19780 0.16800
H 	H 	0.11180 0.87190 0.19750 -0.03800
N 	N 	0.12520 0.78900 0.21920 -0.01000
N 	N 	0.12960 0.82830 0.22470 -0.06200
C 	C 	0.12558 0.32321 0.28517 0.09500
H 	H 	0.11570 0.33950 0.30420 -0.03600
C 	C 	0.15413 0.30365 0.23498 -0.03300
H 	H 	0.16810 0.30300 0.21190 0.03500
C 	C 	0.13980 0.27221 0.25326 0.05900
C 	C 	0.14960 0.23350 0.23830 0.15500
H 	H 	0.16480 0.23350 0.21610 -0.03300
C 	C 	0.10150 0.17130 0.29430 -0.22300
H 	H 	0.10030 0.15030 0.27740 0.07900
N 	N 	0.14060 0.19940 0.25100 -0.06400
N 	N 	0.11980 0.20280 0.28480 -0.08900
C 	C 	0.08270 0.16958 0.33230 0.05000
C 	C 	0.05960 0.14400 0.35200 -0.03500
H 	H 	0.05650 0.11790 0.34600 0.02900
C 	C 	0.05437 0.19970 0.37825 0.09600
H 	H 	0.04700 0.21940 0.39510 -0.03900
N 	N 	0.12100 0.28499 0.28601 -0.28100
N 	N 	0.14542 0.33614 0.25481 -0.22000
N 	N 	0.07826 0.20519 0.34881 -0.28300
N 	N 	0.04177 0.16295 0.38149 -0.22200
C 	C 	0.13710 0.23000 0.25090 -0.21800
H 	H 	0.14390 0.21710 0.22820 0.07400
C 	C 	0.10920 0.15490 0.30220 0.16800
H 	H 	0.11180 0.12810 0.30250 -0.03800
N 	N 	0.12520 0.21100 0.28080 -0.01000
N 	N 	0.12960 0.17170 0.27530 -0.06200
C 	C 	0.62558 0.82321 0.78517 0.09500
H 	H 	0.61570 0.83950 0.80420 -0.03600
C 	C 	0.65413 0.80365 0.73498 -0.03300
H 	H 	0.66810 0.80300 0.71190 0.03500
C 	C 	0.63980 0.77221 0.75326 0.05900
C 	C 	0.64960 0.73350 0.73830 0.15500
H 	H 	0.66480 0.73350 0.71610 -0.03300
C 	C 	0.60150 0.67130 0.79430 -0.22300
H 	H 	0.60030 0.65030 0.77740 0.07900
N 	N 	0.64060 0.69940 0.75100 -0.06400
N 	N 	0.61980 0.70280 0.78480 -0.08900
C 	C 	0.58270 0.66958 0.83230 0.05000
C 	C 	0.55960 0.64400 0.85200 -0.03500
H 	H 	0.55650 0.61790 0.84600 0.02900
C 	C 	0.55437 0.69970 0.87825 0.09600
H 	H 	0.54700 0.71940 0.89510 -0.03900
N 	N 	0.62100 0.78499 0.78601 -0.28100
N 	N 	0.64542 0.83614 0.75481 -0.22000
N 	N 	0.57826 0.70519 0.84881 -0.28300
N 	N 	0.54177 0.66295 0.88149 -0.22200
C 	C 	0.63710 0.73000 0.75090 -0.21800
H 	H 	0.64390 0.71710 0.72820 0.07400
C 	C 	0.60920 0.65490 0.80220 0.16800
H 	H 	0.61180 0.62810 0.80250 -0.03800
N 	N 	0.62520 0.71100 0.78080 -0.01000
N 	N 	0.62960 0.67170 0.77530 -0.06200
C 	C 	0.87442 0.82321 0.21483 0.09500
H 	H 	0.88430 0.83950 0.19580 -0.03600
C 	C 	0.84587 0.80365 0.26502 -0.03300
H 	H 	0.83190 0.80300 0.28810 0.03500
C 	C 	0.86020 0.77221 0.24674 0.05900
C 	C 	0.85040 0.73350 0.26170 0.15500
H 	H 	0.83520 0.73350 0.28390 -0.03300
C 	C 	0.89850 0.67130 0.20570 -0.22300
H 	H 	0.89970 0.65030 0.22260 0.07900
N 	N 	0.85940 0.69940 0.24900 -0.06400
N 	N 	0.88020 0.70280 0.21520 -0.08900
C 	C 	0.91730 0.66958 0.16770 0.05000
C 	C 	0.94040 0.64400 0.14800 -0.03500
H 	H 	0.94350 0.61790 0.15400 0.02900
C 	C 	0.94563 0.69970 0.12175 0.09600
H 	H 	0.95300 0.71940 0.10490 -0.03900
N 	N 	0.87900 0.78499 0.21399 -0.28100
N 	N 	0.85458 0.83614 0.24519 -0.22000
N 	N 	0.92174 0.70519 0.15119 -0.28300
N 	N 	0.95823 0.66295 0.11851 -0.22200
C 	C 	0.86290 0.73000 0.24910 -0.21800
H 	H 	0.85610 0.71710 0.27180 0.07400
C 	C 	0.89080 0.65490 0.19780 0.16800
H 	H 	0.88820 0.62810 0.19750 -0.03800
N 	N 	0.87480 0.71100 0.21920 -0.01000
N 	N 	0.87040 0.67170 0.22470 -0.06200
C 	C 	0.37442 0.32321 0.71483 0.09500
H 	H 	0.38430 0.33950 0.69580 -0.03600
C 	C 	0.34587 0.30365 0.76502 -0.03300
H 	H 	0.33190 0.30300 0.78810 0.03500
C 	C 	0.36020 0.27221 0.74674 0.05900
C 	C 	0.35040 0.23350 0.76170 0.15500
H 	H 	0.33520 0.23350 0.78390 -0.03300
C 	C 	0.39850 0.17130 0.70570 -0.22300
H 	H 	0.39970 0.15030 0.72260 0.07900
N 	N 	0.35940 0.19940 0.74900 -0.06400
N 	N 	0.38020 0.20280 0.71520 -0.08900
C 	C 	0.41730 0.16958 0.66770 0.05000
C 	C 	0.44040 0.14400 0.64800 -0.03500
H 	H 	0.44350 0.11790 0.65400 0.02900
C 	C 	0.44563 0.19970 0.62175 0.09600
H 	H 	0.45300 0.21940 0.60490 -0.03900
N 	N 	0.37900 0.28499 0.71399 -0.28100
N 	N 	0.35458 0.33614 0.74519 -0.22000
N 	N 	0.42174 0.20519 0.65119 -0.28300
N 	N 	0.45823 0.16295 0.61851 -0.22200
C 	C 	0.36290 0.23000 0.74910 -0.21800
H 	H 	0.35610 0.21710 0.77180 0.07400
C 	C 	0.39080 0.15490 0.69780 0.16800
H 	H 	0.38820 0.12810 0.69750 -0.03800
N 	N 	0.37480 0.21100 0.71920 -0.01000
N 	N 	0.37040 0.17170 0.72470 -0.06200
C 	C 	0.17679 0.71483 0.62558 0.09500
H 	H 	0.16050 0.69580 0.61570 -0.03600
C 	C 	0.19635 0.76502 0.65413 -0.03300
H 	H 	0.19700 0.78810 0.66810 0.03500
C 	C 	0.22779 0.74674 0.63980 0.05900
C 	C 	0.26650 0.76170 0.64960 0.15500
H 	H 	0.26650 0.78390 0.66480 -0.03300
C 	C 	0.32870 0.70570 0.60150 -0.22300
H 	H 	0.34970 0.72260 0.60030 0.07900
N 	N 	0.30060 0.74900 0.64060 -0.06400
N 	N 	0.29720 0.71520 0.61980 -0.08900
C 	C 	0.33042 0.66770 0.58270 0.05000
C 	C 	0.35600 0.64800 0.55960 -0.03500
H 	H 	0.38210 0.65400 0.55650 0.02900
C 	C 	0.30030 0.62175 0.55437 0.09600
H 	H 	0.28060 0.60490 0.54700 -0.03900
N 	N 	0.21501 0.71399 0.62100 -0.28100
N 	N 	0.16386 0.74519 0.64542 -0.22000
N 	N 	0.29481 0.65119 0.57826 -0.28300
N 	N 	0.33705 0.61851 0.54177 -0.22200
C 	C 	0.27000 0.74910 0.63710 -0.21800
H 	H 	0.28290 0.77180 0.64390 0.07400
C 	C 	0.34510 0.69780 0.60920 0.16800
H 	H 	0.37190 0.69750 0.61180 -0.03800
N 	N 	0.28900 0.71920 0.62520 -0.01000
N 	N 	0.32830 0.72470 0.62960 -0.06200
C 	C 	0.67679 0.21483 0.12558 0.09500
H 	H 	0.66050 0.19580 0.11570 -0.03600
C 	C 	0.69635 0.26502 0.15413 -0.03300
H 	H 	0.69700 0.28810 0.16810 0.03500
C 	C 	0.72779 0.24674 0.13980 0.05900
C 	C 	0.76650 0.26170 0.14960 0.15500
H 	H 	0.76650 0.28390 0.16480 -0.03300
C 	C 	0.82870 0.20570 0.10150 -0.22300
H 	H 	0.84970 0.22260 0.10030 0.07900
N 	N 	0.80060 0.24900 0.14060 -0.06400
N 	N 	0.79720 0.21520 0.11980 -0.08900
C 	C 	0.83042 0.16770 0.08270 0.05000
C 	C 	0.85600 0.14800 0.05960 -0.03500
H 	H 	0.88210 0.15400 0.05650 0.02900
C 	C 	0.80030 0.12175 0.05437 0.09600
H 	H 	0.78060 0.10490 0.04700 -0.03900
N 	N 	0.71501 0.21399 0.12100 -0.28100
N 	N 	0.66386 0.24519 0.14542 -0.22000
N 	N 	0.79481 0.15119 0.07826 -0.28300
N 	N 	0.83705 0.11851 0.04177 -0.22200
C 	C 	0.77000 0.24910 0.13710 -0.21800
H 	H 	0.78290 0.27180 0.14390 0.07400
C 	C 	0.84510 0.19780 0.10920 0.16800
H 	H 	0.87190 0.19750 0.11180 -0.03800
N 	N 	0.78900 0.21920 0.12520 -0.01000
N 	N 	0.82830 0.22470 0.12960 -0.06200
C 	C 	0.67679 0.78517 0.37442 0.09500
H 	H 	0.66050 0.80420 0.38430 -0.03600
C 	C 	0.69635 0.73498 0.34587 -0.03300
H 	H 	0.69700 0.71190 0.33190 0.03500
C 	C 	0.72779 0.75326 0.36020 0.05900
C 	C 	0.76650 0.73830 0.35040 0.15500
H 	H 	0.76650 0.71610 0.33520 -0.03300
C 	C 	0.82870 0.79430 0.39850 -0.22300
H 	H 	0.84970 0.77740 0.39970 0.07900
N 	N 	0.80060 0.75100 0.35940 -0.06400
N 	N 	0.79720 0.78480 0.38020 -0.08900
C 	C 	0.83042 0.83230 0.41730 0.05000
C 	C 	0.85600 0.85200 0.44040 -0.03500
H 	H 	0.88210 0.84600 0.44350 0.02900
C 	C 	0.80030 0.87825 0.44563 0.09600
H 	H 	0.78060 0.89510 0.45300 -0.03900
N 	N 	0.71501 0.78601 0.37900 -0.28100
N 	N 	0.66386 0.75481 0.35458 -0.22000
N 	N 	0.79481 0.84881 0.42174 -0.28300
N 	N 	0.83705 0.88149 0.45823 -0.22200
C 	C 	0.77000 0.75090 0.36290 -0.21800
H 	H 	0.78290 0.72820 0.35610 0.07400
C 	C 	0.84510 0.80220 0.39080 0.16800
H 	H 	0.87190 0.80250 0.38820 -0.03800
N 	N 	0.78900 0.78080 0.37480 -0.01000
N 	N 	0.82830 0.77530 0.37040 -0.06200
C 	C 	0.17679 0.28517 0.87442 0.09500
H 	H 	0.16050 0.30420 0.88430 -0.03600
C 	C 	0.19635 0.23498 0.84587 -0.03300
H 	H 	0.19700 0.21190 0.83190 0.03500
C 	C 	0.22779 0.25326 0.86020 0.05900
C 	C 	0.26650 0.23830 0.85040 0.15500
H 	H 	0.26650 0.21610 0.83520 -0.03300
C 	C 	0.32870 0.29430 0.89850 -0.22300
H 	H 	0.34970 0.27740 0.89970 0.07900
N 	N 	0.30060 0.25100 0.85940 -0.06400
N 	N 	0.29720 0.28480 0.88020 -0.08900
C 	C 	0.33042 0.33230 0.91730 0.05000
C 	C 	0.35600 0.35200 0.94040 -0.03500
H 	H 	0.38210 0.34600 0.94350 0.02900
C 	C 	0.30030 0.37825 0.94563 0.09600
H 	H 	0.28060 0.39510 0.95300 -0.03900
N 	N 	0.21501 0.28601 0.87900 -0.28100
N 	N 	0.16386 0.25481 0.85458 -0.22000
N 	N 	0.29481 0.34881 0.92174 -0.28300
N 	N 	0.33705 0.38149 0.95823 -0.22200
C 	C 	0.27000 0.25090 0.86290 -0.21800
H 	H 	0.28290 0.22820 0.85610 0.07400
C 	C 	0.34510 0.30220 0.89080 0.16800
H 	H 	0.37190 0.30250 0.88820 -0.03800
N 	N 	0.28900 0.28080 0.87480 -0.01000
N 	N 	0.32830 0.27530 0.87040 -0.06200
C 	C 	0.82321 0.21483 0.87442 0.09500
H 	H 	0.83950 0.19580 0.88430 -0.03600
C 	C 	0.80365 0.26502 0.84587 -0.03300
H 	H 	0.80300 0.28810 0.83190 0.03500
C 	C 	0.77221 0.24674 0.86020 0.05900
C 	C 	0.73350 0.26170 0.85040 0.15500
H 	H 	0.73350 0.28390 0.83520 -0.03300
C 	C 	0.67130 0.20570 0.89850 -0.22300
H 	H 	0.65030 0.22260 0.89970 0.07900
N 	N 	0.69940 0.24900 0.85940 -0.06400
N 	N 	0.70280 0.21520 0.88020 -0.08900
C 	C 	0.66958 0.16770 0.91730 0.05000
C 	C 	0.64400 0.14800 0.94040 -0.03500
H 	H 	0.61790 0.15400 0.94350 0.02900
C 	C 	0.69970 0.12175 0.94563 0.09600
H 	H 	0.71940 0.10490 0.95300 -0.03900
N 	N 	0.78499 0.21399 0.87900 -0.28100
N 	N 	0.83614 0.24519 0.85458 -0.22000
N 	N 	0.70519 0.15119 0.92174 -0.28300
N 	N 	0.66295 0.11851 0.95823 -0.22200
C 	C 	0.73000 0.24910 0.86290 -0.21800
H 	H 	0.71710 0.27180 0.85610 0.07400
C 	C 	0.65490 0.19780 0.89080 0.16800
H 	H 	0.62810 0.19750 0.88820 -0.03800
N 	N 	0.71100 0.21920 0.87480 -0.01000
N 	N 	0.67170 0.22470 0.87040 -0.06200
C 	C 	0.32321 0.71483 0.37442 0.09500
H 	H 	0.33950 0.69580 0.38430 -0.03600
C 	C 	0.30365 0.76502 0.34587 -0.03300
H 	H 	0.30300 0.78810 0.33190 0.03500
C 	C 	0.27221 0.74674 0.36020 0.05900
C 	C 	0.23350 0.76170 0.35040 0.15500
H 	H 	0.23350 0.78390 0.33520 -0.03300
C 	C 	0.17130 0.70570 0.39850 -0.22300
H 	H 	0.15030 0.72260 0.39970 0.07900
N 	N 	0.19940 0.74900 0.35940 -0.06400
N 	N 	0.20280 0.71520 0.38020 -0.08900
C 	C 	0.16958 0.66770 0.41730 0.05000
C 	C 	0.14400 0.64800 0.44040 -0.03500
H 	H 	0.11790 0.65400 0.44350 0.02900
C 	C 	0.19970 0.62175 0.44563 0.09600
H 	H 	0.21940 0.60490 0.45300 -0.03900
N 	N 	0.28499 0.71399 0.37900 -0.28100
N 	N 	0.33614 0.74519 0.35458 -0.22000
N 	N 	0.20519 0.65119 0.42174 -0.28300
N 	N 	0.16295 0.61851 0.45823 -0.22200
C 	C 	0.23000 0.74910 0.36290 -0.21800
H 	H 	0.21710 0.77180 0.35610 0.07400
C 	C 	0.15490 0.69780 0.39080 0.16800
H 	H 	0.12810 0.69750 0.38820 -0.03800
N 	N 	0.21100 0.71920 0.37480 -0.01000
N 	N 	0.17170 0.72470 0.37040 -0.06200
C 	C 	0.32321 0.28517 0.12558 0.09500
H 	H 	0.33950 0.30420 0.11570 -0.03600
C 	C 	0.30365 0.23498 0.15413 -0.03300
H 	H 	0.30300 0.21190 0.16810 0.03500
C 	C 	0.27221 0.25326 0.13980 0.05900
C 	C 	0.23350 0.23830 0.14960 0.15500
H 	H 	0.23350 0.21610 0.16480 -0.03300
C 	C 	0.17130 0.29430 0.10150 -0.22300
H 	H 	0.15030 0.27740 0.10030 0.07900
N 	N 	0.19940 0.25100 0.14060 -0.06400
N 	N 	0.20280 0.28480 0.11980 -0.08900
C 	C 	0.16958 0.33230 0.08270 0.05000
C 	C 	0.14400 0.35200 0.05960 -0.03500
H 	H 	0.11790 0.34600 0.05650 0.02900
C 	C 	0.19970 0.37825 0.05437 0.09600
H 	H 	0.21940 0.39510 0.04700 -0.03900
N 	N 	0.28499 0.28601 0.12100 -0.28100
N 	N 	0.33614 0.25481 0.14542 -0.22000
N 	N 	0.20519 0.34881 0.07826 -0.28300
N 	N 	0.16295 0.38149 0.04177 -0.22200
C 	C 	0.23000 0.25090 0.13710 -0.21800
H 	H 	0.21710 0.22820 0.14390 0.07400
C 	C 	0.15490 0.30220 0.10920 0.16800
H 	H 	0.12810 0.30250 0.11180 -0.03800
N 	N 	0.21100 0.28080 0.12520 -0.01000
N 	N 	0.17170 0.27530 0.12960 -0.06200
C 	C 	0.82321 0.78517 0.62558 0.09500
H 	H 	0.83950 0.80420 0.61570 -0.03600
C 	C 	0.80365 0.73498 0.65413 -0.03300
H 	H 	0.80300 0.71190 0.66810 0.03500
C 	C 	0.77221 0.75326 0.63980 0.05900
C 	C 	0.73350 0.73830 0.64960 0.15500
H 	H 	0.73350 0.71610 0.66480 -0.03300
C 	C 	0.67130 0.79430 0.60150 -0.22300
H 	H 	0.65030 0.77740 0.60030 0.07900
N 	N 	0.69940 0.75100 0.64060 -0.06400
N 	N 	0.70280 0.78480 0.61980 -0.08900
C 	C 	0.66958 0.83230 0.58270 0.05000
C 	C 	0.64400 0.85200 0.55960 -0.03500
H 	H 	0.61790 0.84600 0.55650 0.02900
C 	C 	0.69970 0.87825 0.55437 0.09600
H 	H 	0.71940 0.89510 0.54700 -0.03900
N 	N 	0.78499 0.78601 0.62100 -0.28100
N 	N 	0.83614 0.75481 0.64542 -0.22000
N 	N 	0.70519 0.84881 0.57826 -0.28300
N 	N 	0.66295 0.88149 0.54177 -0.22200
C 	C 	0.73000 0.75090 0.63710 -0.21800
H 	H 	0.71710 0.72820 0.64390 0.07400
C 	C 	0.65490 0.80220 0.60920 0.16800
H 	H 	0.62810 0.80250 0.61180 -0.03800
N 	N 	0.71100 0.78080 0.62520 -0.01000
N 	N 	0.67170 0.77530 0.62960 -0.06200
