data_crystal

_cell_length_a 18.65670
_cell_length_b 18.65670
_cell_length_c 38.61980
_cell_angle_alpha 90.00000
_cell_angle_beta  90.00000
_cell_angle_gamma 120.00000

_symmetry_space_group_name_	'P 1'
_symmetry_space_group_name_H-M	'P 1'

loop_
_symmetry_equiv_pos_as_xyz
  x,y,z

loop_
_atom_site_label
_atom_site_type_symbol
_atom_site_fract_x
_atom_site_fract_y
_atom_site_fract_z
_atom_site_charge
O 	O 	0.48150 0.37194 0.99683 -0.40900
O 	O 	0.44210 0.41130 0.04405 -0.41200
O 	O 	0.44950 0.31650 0.14560 -1.15800
C 	C 	0.45340 0.36100 0.02718 0.36900
C 	C 	0.43210 0.28000 0.04422 -0.07900
C 	C 	0.40160 0.26480 0.07808 0.00500
H 	H 	0.39070 0.30250 0.08920 0.06000
C 	C 	0.40520 0.25310 0.15550 -0.25700
C 	C 	0.38700 0.24010 0.19060 0.08200
H 	H 	0.41710 0.28380 0.20700 0.23700
C 	C 	0.49700 0.39340 0.16910 0.49300
H 	H 	0.54360 0.39340 0.18060 -0.06900
H 	H 	0.46140 0.39690 0.18630 -0.13200
H 	H 	0.41190 0.28830 0.14650 1.14900
H 	H 	0.38590 0.26540 0.20610 -0.28300
C 	C 	0.37420 0.23350 0.15480 -0.28700
C 	C 	0.31080 0.11170 0.14360 0.07400
O 	O 	0.14817 0.70527 0.33016 -0.40900
O 	O 	0.10877 0.74463 0.37738 -0.41200
O 	O 	0.11617 0.64983 0.47893 -1.15800
C 	C 	0.12007 0.69433 0.36051 0.36900
C 	C 	0.09877 0.61333 0.37755 -0.07900
C 	C 	0.06827 0.59813 0.41141 0.00400
H 	H 	0.05737 0.63583 0.42253 0.06000
C 	C 	0.07187 0.58643 0.48883 -0.25700
C 	C 	0.05367 0.57343 0.52393 0.08300
H 	H 	0.08377 0.61713 0.54033 0.23900
C 	C 	0.16367 0.72673 0.50243 0.49400
H 	H 	0.21027 0.72673 0.51393 -0.06800
H 	H 	0.12807 0.73023 0.51963 -0.13100
H 	H 	0.07857 0.62163 0.47983 1.15100
H 	H 	0.05257 0.59873 0.53943 -0.28300
C 	C 	0.04087 0.56683 0.48813 -0.28600
C 	C 	0.97747 0.44503 0.47693 0.07600
O 	O 	0.81483 0.03861 0.66350 -0.40800
O 	O 	0.77543 0.07797 0.71072 -0.41100
O 	O 	0.78283 0.98317 0.81227 -1.15500
C 	C 	0.78673 0.02767 0.69385 0.36800
C 	C 	0.76543 0.94667 0.71089 -0.07600
C 	C 	0.73493 0.93147 0.74475 0.00400
H 	H 	0.72403 0.96917 0.75587 0.06200
C 	C 	0.73853 0.91977 0.82217 -0.25600
C 	C 	0.72033 0.90677 0.85727 0.08400
H 	H 	0.75043 0.95047 0.87367 0.23900
C 	C 	0.83033 0.06007 0.83577 0.49200
H 	H 	0.87693 0.06007 0.84727 -0.06800
H 	H 	0.79473 0.06357 0.85297 -0.13100
H 	H 	0.74523 0.95497 0.81317 1.14900
H 	H 	0.71923 0.93207 0.87277 -0.28400
C 	C 	0.70753 0.90017 0.82147 -0.28600
C 	C 	0.64413 0.77837 0.81027 0.07500
O 	O 	0.62806 0.10956 0.99683 -0.40800
O 	O 	0.58870 0.03080 0.04405 -0.41000
O 	O 	0.68350 0.13300 0.14560 -1.15700
C 	C 	0.63900 0.09240 0.02718 0.37000
C 	C 	0.72000 0.15210 0.04422 -0.07800
C 	C 	0.73520 0.13680 0.07808 0.00600
H 	H 	0.69750 0.08820 0.08920 0.06100
C 	C 	0.74690 0.15210 0.15550 -0.25700
C 	C 	0.75990 0.14690 0.19060 0.08400
H 	H 	0.71620 0.13330 0.20700 0.23900
C 	C 	0.60660 0.10360 0.16910 0.49300
H 	H 	0.60660 0.15020 0.18060 -0.06700
H 	H 	0.60310 0.06450 0.18630 -0.13000
H 	H 	0.71170 0.12360 0.14650 1.15100
H 	H 	0.73460 0.12050 0.20610 -0.28400
C 	C 	0.76650 0.14070 0.15480 -0.28600
C 	C 	0.88830 0.19910 0.14360 0.07500
O 	O 	0.29473 0.44289 0.33016 -0.40800
O 	O 	0.25537 0.36413 0.37738 -0.41000
O 	O 	0.35017 0.46633 0.47893 -1.15800
C 	C 	0.30567 0.42573 0.36051 0.37000
C 	C 	0.38667 0.48543 0.37755 -0.07800
C 	C 	0.40187 0.47013 0.41141 0.00500
H 	H 	0.36417 0.42153 0.42253 0.06100
C 	C 	0.41357 0.48543 0.48883 -0.25700
C 	C 	0.42657 0.48023 0.52393 0.08300
H 	H 	0.38287 0.46663 0.54033 0.23900
C 	C 	0.27327 0.43693 0.50243 0.49400
H 	H 	0.27327 0.48353 0.51393 -0.06800
H 	H 	0.26977 0.39783 0.51963 -0.13100
H 	H 	0.37837 0.45693 0.47983 1.15100
H 	H 	0.40127 0.45383 0.53943 -0.28400
C 	C 	0.43317 0.47403 0.48813 -0.28600
C 	C 	0.55497 0.53243 0.47693 0.07600
O 	O 	0.96139 0.77623 0.66350 -0.40800
O 	O 	0.92203 0.69747 0.71072 -0.41000
O 	O 	0.01683 0.79967 0.81227 -1.15400
C 	C 	0.97233 0.75907 0.69385 0.36800
C 	C 	0.05333 0.81877 0.71089 -0.07500
C 	C 	0.06853 0.80347 0.74475 0.00400
H 	H 	0.03083 0.75487 0.75587 0.06200
C 	C 	0.08023 0.81877 0.82217 -0.25500
C 	C 	0.09323 0.81357 0.85727 0.08300
H 	H 	0.04953 0.79997 0.87367 0.23800
C 	C 	0.93993 0.77027 0.83577 0.49100
H 	H 	0.93993 0.81687 0.84727 -0.06700
H 	H 	0.93643 0.73117 0.85297 -0.13000
H 	H 	0.04503 0.79027 0.81317 1.14800
H 	H 	0.06793 0.78717 0.87277 -0.28300
C 	C 	0.09983 0.80737 0.82147 -0.28500
C 	C 	0.22163 0.86577 0.81027 0.07500
O 	O 	0.89044 0.51850 0.99683 -0.40800
O 	O 	0.96920 0.55790 0.04405 -0.41000
O 	O 	0.86700 0.55050 0.14560 -1.15800
C 	C 	0.90760 0.54660 0.02718 0.37000
C 	C 	0.84790 0.56790 0.04422 -0.07800
C 	C 	0.86320 0.59840 0.07808 0.00600
H 	H 	0.91180 0.60930 0.08920 0.06100
C 	C 	0.84790 0.59480 0.15550 -0.25700
C 	C 	0.85310 0.61300 0.19060 0.08500
H 	H 	0.86670 0.58290 0.20700 0.23900
C 	C 	0.89640 0.50300 0.16910 0.49300
H 	H 	0.84980 0.45640 0.18060 -0.06800
H 	H 	0.93550 0.53860 0.18630 -0.13000
H 	H 	0.87640 0.58810 0.14650 1.15200
H 	H 	0.87950 0.61410 0.20610 -0.28500
C 	C 	0.85930 0.62580 0.15480 -0.28700
C 	C 	0.80090 0.68920 0.14360 0.07500
O 	O 	0.55711 0.85183 0.33016 -0.40800
O 	O 	0.63587 0.89123 0.37738 -0.41100
O 	O 	0.53367 0.88383 0.47893 -1.15700
C 	C 	0.57427 0.87993 0.36051 0.37000
C 	C 	0.51457 0.90123 0.37755 -0.07800
C 	C 	0.52987 0.93173 0.41141 0.00500
H 	H 	0.57847 0.94263 0.42253 0.06100
C 	C 	0.51457 0.92813 0.48883 -0.25700
C 	C 	0.51977 0.94633 0.52393 0.08300
H 	H 	0.53337 0.91623 0.54033 0.23900
C 	C 	0.56307 0.83633 0.50243 0.49400
H 	H 	0.51647 0.78973 0.51393 -0.06800
H 	H 	0.60217 0.87193 0.51963 -0.13100
H 	H 	0.54307 0.92143 0.47983 1.15100
H 	H 	0.54617 0.94743 0.53943 -0.28300
C 	C 	0.52597 0.95913 0.48813 -0.28500
C 	C 	0.46757 0.02253 0.47693 0.07500
O 	O 	0.22377 0.18517 0.66350 -0.40800
O 	O 	0.30253 0.22457 0.71072 -0.41000
O 	O 	0.20033 0.21717 0.81227 -1.15700
C 	C 	0.24093 0.21327 0.69385 0.36900
C 	C 	0.18123 0.23457 0.71089 -0.07700
C 	C 	0.19653 0.26507 0.74475 0.00500
H 	H 	0.24513 0.27597 0.75587 0.06200
C 	C 	0.18123 0.26147 0.82217 -0.25600
C 	C 	0.18643 0.27967 0.85727 0.08200
H 	H 	0.20003 0.24957 0.87367 0.23800
C 	C 	0.22973 0.16967 0.83577 0.49400
H 	H 	0.18313 0.12307 0.84727 -0.06800
H 	H 	0.26883 0.20527 0.85297 -0.13100
H 	H 	0.20973 0.25477 0.81317 1.15000
H 	H 	0.21283 0.28077 0.87277 -0.28200
C 	C 	0.19263 0.29247 0.82147 -0.28500
C 	C 	0.13423 0.35587 0.81027 0.07600
O 	O 	0.37194 0.48150 0.00317 -0.40800
O 	O 	0.41130 0.44210 0.95595 -0.41100
O 	O 	0.31650 0.44950 0.85440 -1.15700
C 	C 	0.36100 0.45340 0.97282 0.37000
C 	C 	0.28000 0.43210 0.95578 -0.07800
C 	C 	0.26480 0.40160 0.92192 0.00600
H 	H 	0.30250 0.39070 0.91080 0.06100
C 	C 	0.25310 0.40520 0.84450 -0.25600
C 	C 	0.24010 0.38700 0.80940 0.08300
H 	H 	0.28380 0.41710 0.79300 0.23800
C 	C 	0.39340 0.49700 0.83090 0.49400
H 	H 	0.39340 0.54360 0.81940 -0.06800
H 	H 	0.39690 0.46140 0.81370 -0.13100
H 	H 	0.28830 0.41190 0.85350 1.15000
H 	H 	0.26540 0.38590 0.79390 -0.28200
C 	C 	0.23350 0.37420 0.84520 -0.28600
C 	C 	0.11170 0.31080 0.85640 0.07500
O 	O 	0.03861 0.81483 0.33650 -0.40800
O 	O 	0.07797 0.77543 0.28928 -0.41100
O 	O 	0.98317 0.78283 0.18773 -1.15500
C 	C 	0.02767 0.78673 0.30615 0.36800
C 	C 	0.94667 0.76543 0.28911 -0.07600
C 	C 	0.93147 0.73493 0.25525 0.00400
H 	H 	0.96917 0.72403 0.24413 0.06200
C 	C 	0.91977 0.73853 0.17783 -0.25600
C 	C 	0.90677 0.72033 0.14273 0.08400
H 	H 	0.95047 0.75043 0.12633 0.23900
C 	C 	0.06007 0.83033 0.16423 0.49200
H 	H 	0.06007 0.87693 0.15273 -0.06800
H 	H 	0.06357 0.79473 0.14703 -0.13100
H 	H 	0.95497 0.74523 0.18683 1.14900
H 	H 	0.93207 0.71923 0.12723 -0.28400
C 	C 	0.90017 0.70753 0.17853 -0.28600
C 	C 	0.77837 0.64413 0.18973 0.07500
O 	O 	0.70527 0.14817 0.66984 -0.40800
O 	O 	0.74463 0.10877 0.62262 -0.41100
O 	O 	0.64983 0.11617 0.52107 -1.15700
C 	C 	0.69433 0.12007 0.63949 0.37000
C 	C 	0.61333 0.09877 0.62245 -0.07800
C 	C 	0.59813 0.06827 0.58859 0.00500
H 	H 	0.63583 0.05737 0.57747 0.06100
C 	C 	0.58643 0.07187 0.51117 -0.25700
C 	C 	0.57343 0.05367 0.47607 0.08300
H 	H 	0.61713 0.08377 0.45967 0.23900
C 	C 	0.72673 0.16367 0.49757 0.49400
H 	H 	0.72673 0.21027 0.48607 -0.06800
H 	H 	0.73023 0.12807 0.48037 -0.13100
H 	H 	0.62163 0.07857 0.52017 1.15100
H 	H 	0.59873 0.05257 0.46057 -0.28300
C 	C 	0.56683 0.04087 0.51187 -0.28600
C 	C 	0.44503 0.97747 0.52307 0.07600
O 	O 	0.10956 0.62806 0.00317 -0.40800
O 	O 	0.03080 0.58870 0.95595 -0.41000
O 	O 	0.13300 0.68350 0.85440 -1.15700
C 	C 	0.09240 0.63900 0.97282 0.37000
C 	C 	0.15210 0.72000 0.95578 -0.07800
C 	C 	0.13680 0.73520 0.92192 0.00600
H 	H 	0.08820 0.69750 0.91080 0.06100
C 	C 	0.15210 0.74690 0.84450 -0.25700
C 	C 	0.14690 0.75990 0.80940 0.08400
H 	H 	0.13330 0.71620 0.79300 0.23900
C 	C 	0.10360 0.60660 0.83090 0.49300
H 	H 	0.15020 0.60660 0.81940 -0.06700
H 	H 	0.06450 0.60310 0.81370 -0.13000
H 	H 	0.12360 0.71170 0.85350 1.15100
H 	H 	0.12050 0.73460 0.79390 -0.28400
C 	C 	0.14070 0.76650 0.84520 -0.28600
C 	C 	0.19910 0.88830 0.85640 0.07500
O 	O 	0.77623 0.96139 0.33650 -0.40800
O 	O 	0.69747 0.92203 0.28928 -0.41000
O 	O 	0.79967 0.01683 0.18773 -1.15400
C 	C 	0.75907 0.97233 0.30615 0.36800
C 	C 	0.81877 0.05333 0.28911 -0.07500
C 	C 	0.80347 0.06853 0.25525 0.00400
H 	H 	0.75487 0.03083 0.24413 0.06200
C 	C 	0.81877 0.08023 0.17783 -0.25500
C 	C 	0.81357 0.09323 0.14273 0.08300
H 	H 	0.79997 0.04953 0.12633 0.23800
C 	C 	0.77027 0.93993 0.16423 0.49100
H 	H 	0.81687 0.93993 0.15273 -0.06700
H 	H 	0.73117 0.93643 0.14703 -0.13000
H 	H 	0.79027 0.04503 0.18683 1.14800
H 	H 	0.78717 0.06793 0.12723 -0.28300
C 	C 	0.80737 0.09983 0.17853 -0.28500
C 	C 	0.86577 0.22163 0.18973 0.07500
O 	O 	0.44289 0.29473 0.66984 -0.40800
O 	O 	0.36413 0.25537 0.62262 -0.41000
O 	O 	0.46633 0.35017 0.52107 -1.15800
C 	C 	0.42573 0.30567 0.63949 0.37000
C 	C 	0.48543 0.38667 0.62245 -0.07800
C 	C 	0.47013 0.40187 0.58859 0.00500
H 	H 	0.42153 0.36417 0.57747 0.06100
C 	C 	0.48543 0.41357 0.51117 -0.25700
C 	C 	0.48023 0.42657 0.47607 0.08300
H 	H 	0.46663 0.38287 0.45967 0.23900
C 	C 	0.43693 0.27327 0.49757 0.49400
H 	H 	0.48353 0.27327 0.48607 -0.06800
H 	H 	0.39783 0.26977 0.48037 -0.13100
H 	H 	0.45693 0.37837 0.52017 1.15100
H 	H 	0.45383 0.40127 0.46057 -0.28400
C 	C 	0.47403 0.43317 0.51187 -0.28600
C 	C 	0.53243 0.55497 0.52307 0.07600
O 	O 	0.51850 0.89044 0.00317 -0.40800
O 	O 	0.55790 0.96920 0.95595 -0.41000
O 	O 	0.55050 0.86700 0.85440 -1.15800
C 	C 	0.54660 0.90760 0.97282 0.37000
C 	C 	0.56790 0.84790 0.95578 -0.07800
C 	C 	0.59840 0.86320 0.92192 0.00600
H 	H 	0.60930 0.91180 0.91080 0.06100
C 	C 	0.59480 0.84790 0.84450 -0.25700
C 	C 	0.61300 0.85310 0.80940 0.08500
H 	H 	0.58290 0.86670 0.79300 0.23900
C 	C 	0.50300 0.89640 0.83090 0.49300
H 	H 	0.45640 0.84980 0.81940 -0.06800
H 	H 	0.53860 0.93550 0.81370 -0.13000
H 	H 	0.58810 0.87640 0.85350 1.15200
H 	H 	0.61410 0.87950 0.79390 -0.28500
C 	C 	0.62580 0.85930 0.84520 -0.28700
C 	C 	0.68920 0.80090 0.85640 0.07500
O 	O 	0.18517 0.22377 0.33650 -0.40800
O 	O 	0.22457 0.30253 0.28928 -0.41000
O 	O 	0.21717 0.20033 0.18773 -1.15700
C 	C 	0.21327 0.24093 0.30615 0.36900
C 	C 	0.23457 0.18123 0.28911 -0.07700
C 	C 	0.26507 0.19653 0.25525 0.00500
H 	H 	0.27597 0.24513 0.24413 0.06200
C 	C 	0.26147 0.18123 0.17783 -0.25600
C 	C 	0.27967 0.18643 0.14273 0.08200
H 	H 	0.24957 0.20003 0.12633 0.23800
C 	C 	0.16967 0.22973 0.16423 0.49400
H 	H 	0.12307 0.18313 0.15273 -0.06800
H 	H 	0.20527 0.26883 0.14703 -0.13100
H 	H 	0.25477 0.20973 0.18683 1.15000
H 	H 	0.28077 0.21283 0.12723 -0.28200
C 	C 	0.29247 0.19263 0.17853 -0.28500
C 	C 	0.35587 0.13423 0.18973 0.07600
O 	O 	0.85183 0.55711 0.66984 -0.40800
O 	O 	0.89123 0.63587 0.62262 -0.41100
O 	O 	0.88383 0.53367 0.52107 -1.15700
C 	C 	0.87993 0.57427 0.63949 0.37000
C 	C 	0.90123 0.51457 0.62245 -0.07800
C 	C 	0.93173 0.52987 0.58859 0.00500
H 	H 	0.94263 0.57847 0.57747 0.06100
C 	C 	0.92813 0.51457 0.51117 -0.25700
C 	C 	0.94633 0.51977 0.47607 0.08300
H 	H 	0.91623 0.53337 0.45967 0.23900
C 	C 	0.83633 0.56307 0.49757 0.49400
H 	H 	0.78973 0.51647 0.48607 -0.06800
H 	H 	0.87193 0.60217 0.48037 -0.13100
H 	H 	0.92143 0.54307 0.52017 1.15100
H 	H 	0.94743 0.54617 0.46057 -0.28300
C 	C 	0.95913 0.52597 0.51187 -0.28500
C 	C 	0.02253 0.46757 0.52307 0.07500
O 	O 	0.51850 0.62806 0.00317 -0.40800
O 	O 	0.55790 0.58870 0.95595 -0.41100
O 	O 	0.55050 0.68350 0.85440 -1.15700
C 	C 	0.54660 0.63900 0.97282 0.37000
C 	C 	0.56790 0.72000 0.95578 -0.07800
C 	C 	0.59840 0.73520 0.92192 0.00600
H 	H 	0.60930 0.69750 0.91080 0.06100
C 	C 	0.59480 0.74690 0.84450 -0.25600
C 	C 	0.61300 0.75990 0.80940 0.08300
H 	H 	0.58290 0.71620 0.79300 0.23800
C 	C 	0.50300 0.60660 0.83090 0.49400
H 	H 	0.45640 0.60660 0.81940 -0.06800
H 	H 	0.53860 0.60310 0.81370 -0.13100
H 	H 	0.58810 0.71170 0.85350 1.15000
H 	H 	0.61410 0.73460 0.79390 -0.28200
C 	C 	0.62580 0.76650 0.84520 -0.28600
C 	C 	0.68920 0.88830 0.85640 0.07500
O 	O 	0.18517 0.96139 0.33650 -0.40800
O 	O 	0.22457 0.92203 0.28928 -0.41100
O 	O 	0.21717 0.01683 0.18773 -1.15500
C 	C 	0.21327 0.97233 0.30615 0.36800
C 	C 	0.23457 0.05333 0.28911 -0.07600
C 	C 	0.26507 0.06853 0.25525 0.00400
H 	H 	0.27597 0.03083 0.24413 0.06200
C 	C 	0.26147 0.08023 0.17783 -0.25600
C 	C 	0.27967 0.09323 0.14273 0.08400
H 	H 	0.24957 0.04953 0.12633 0.23900
C 	C 	0.16967 0.93993 0.16423 0.49200
H 	H 	0.12307 0.93993 0.15273 -0.06800
H 	H 	0.20527 0.93643 0.14703 -0.13100
H 	H 	0.25477 0.04503 0.18683 1.14900
H 	H 	0.28077 0.06793 0.12723 -0.28400
C 	C 	0.29247 0.09983 0.17853 -0.28600
C 	C 	0.35587 0.22163 0.18973 0.07500
O 	O 	0.85183 0.29473 0.66984 -0.40800
O 	O 	0.89123 0.25537 0.62262 -0.41100
O 	O 	0.88383 0.35017 0.52107 -1.15700
C 	C 	0.87993 0.30567 0.63949 0.37000
C 	C 	0.90123 0.38667 0.62245 -0.07800
C 	C 	0.93173 0.40187 0.58859 0.00500
H 	H 	0.94263 0.36417 0.57747 0.06100
C 	C 	0.92813 0.41357 0.51117 -0.25700
C 	C 	0.94633 0.42657 0.47607 0.08300
H 	H 	0.91623 0.38287 0.45967 0.23900
C 	C 	0.83633 0.27327 0.49757 0.49400
H 	H 	0.78973 0.27327 0.48607 -0.06800
H 	H 	0.87193 0.26977 0.48037 -0.13100
H 	H 	0.92143 0.37837 0.52017 1.15100
H 	H 	0.94743 0.40127 0.46057 -0.28300
C 	C 	0.95913 0.43317 0.51187 -0.28600
C 	C 	0.02253 0.55497 0.52307 0.07600
O 	O 	0.37194 0.89044 0.00317 -0.40800
O 	O 	0.41130 0.96920 0.95595 -0.41000
O 	O 	0.31650 0.86700 0.85440 -1.15700
C 	C 	0.36100 0.90760 0.97282 0.37000
C 	C 	0.28000 0.84790 0.95578 -0.07800
C 	C 	0.26480 0.86320 0.92192 0.00600
H 	H 	0.30250 0.91180 0.91080 0.06100
C 	C 	0.25310 0.84790 0.84450 -0.25700
C 	C 	0.24010 0.85310 0.80940 0.08400
H 	H 	0.28380 0.86670 0.79300 0.23900
C 	C 	0.39340 0.89640 0.83090 0.49300
H 	H 	0.39340 0.84980 0.81940 -0.06700
H 	H 	0.39690 0.93550 0.81370 -0.13000
H 	H 	0.28830 0.87640 0.85350 1.15100
H 	H 	0.26540 0.87950 0.79390 -0.28400
C 	C 	0.23350 0.85930 0.84520 -0.28600
C 	C 	0.11170 0.80090 0.85640 0.07500
O 	O 	0.03861 0.22377 0.33650 -0.40800
O 	O 	0.07797 0.30253 0.28928 -0.41000
O 	O 	0.98317 0.20033 0.18773 -1.15400
C 	C 	0.02767 0.24093 0.30615 0.36800
C 	C 	0.94667 0.18123 0.28911 -0.07500
C 	C 	0.93147 0.19653 0.25525 0.00400
H 	H 	0.96917 0.24513 0.24413 0.06200
C 	C 	0.91977 0.18123 0.17783 -0.25500
C 	C 	0.90677 0.18643 0.14273 0.08300
H 	H 	0.95047 0.20003 0.12633 0.23800
C 	C 	0.06007 0.22973 0.16423 0.49100
H 	H 	0.06007 0.18313 0.15273 -0.06700
H 	H 	0.06357 0.26883 0.14703 -0.13000
H 	H 	0.95497 0.20973 0.18683 1.14800
H 	H 	0.93207 0.21283 0.12723 -0.28300
C 	C 	0.90017 0.19263 0.17853 -0.28500
C 	C 	0.77837 0.13423 0.18973 0.07500
O 	O 	0.70527 0.55711 0.66984 -0.40800
O 	O 	0.74463 0.63587 0.62262 -0.41000
O 	O 	0.64983 0.53367 0.52107 -1.15800
C 	C 	0.69433 0.57427 0.63949 0.37000
C 	C 	0.61333 0.51457 0.62245 -0.07800
C 	C 	0.59813 0.52987 0.58859 0.00500
H 	H 	0.63583 0.57847 0.57747 0.06100
C 	C 	0.58643 0.51457 0.51117 -0.25700
C 	C 	0.57343 0.51977 0.47607 0.08300
H 	H 	0.61713 0.53337 0.45967 0.23900
C 	C 	0.72673 0.56307 0.49757 0.49400
H 	H 	0.72673 0.51647 0.48607 -0.06800
H 	H 	0.73023 0.60217 0.48037 -0.13100
H 	H 	0.62163 0.54307 0.52017 1.15100
H 	H 	0.59873 0.54617 0.46057 -0.28400
C 	C 	0.56683 0.52597 0.51187 -0.28600
C 	C 	0.44503 0.46757 0.52307 0.07600
O 	O 	0.10956 0.48150 0.00317 -0.40800
O 	O 	0.03080 0.44210 0.95595 -0.41000
O 	O 	0.13300 0.44950 0.85440 -1.15800
C 	C 	0.09240 0.45340 0.97282 0.37000
C 	C 	0.15210 0.43210 0.95578 -0.07800
C 	C 	0.13680 0.40160 0.92192 0.00600
H 	H 	0.08820 0.39070 0.91080 0.06100
C 	C 	0.15210 0.40520 0.84450 -0.25700
C 	C 	0.14690 0.38700 0.80940 0.08500
H 	H 	0.13330 0.41710 0.79300 0.23900
C 	C 	0.10360 0.49700 0.83090 0.49300
H 	H 	0.15020 0.54360 0.81940 -0.06800
H 	H 	0.06450 0.46140 0.81370 -0.13000
H 	H 	0.12360 0.41190 0.85350 1.15200
H 	H 	0.12050 0.38590 0.79390 -0.28500
C 	C 	0.14070 0.37420 0.84520 -0.28700
C 	C 	0.19910 0.31080 0.85640 0.07500
O 	O 	0.77623 0.81483 0.33650 -0.40800
O 	O 	0.69747 0.77543 0.28928 -0.41000
O 	O 	0.79967 0.78283 0.18773 -1.15700
C 	C 	0.75907 0.78673 0.30615 0.36900
C 	C 	0.81877 0.76543 0.28911 -0.07700
C 	C 	0.80347 0.73493 0.25525 0.00500
H 	H 	0.75487 0.72403 0.24413 0.06200
C 	C 	0.81877 0.73853 0.17783 -0.25600
C 	C 	0.81357 0.72033 0.14273 0.08200
H 	H 	0.79997 0.75043 0.12633 0.23800
C 	C 	0.77027 0.83033 0.16423 0.49400
H 	H 	0.81687 0.87693 0.15273 -0.06800
H 	H 	0.73117 0.79473 0.14703 -0.13100
H 	H 	0.79027 0.74523 0.18683 1.15000
H 	H 	0.78717 0.71923 0.12723 -0.28200
C 	C 	0.80737 0.70753 0.17853 -0.28500
C 	C 	0.86577 0.64413 0.18973 0.07600
O 	O 	0.44289 0.14817 0.66984 -0.40800
O 	O 	0.36413 0.10877 0.62262 -0.41100
O 	O 	0.46633 0.11617 0.52107 -1.15700
C 	C 	0.42573 0.12007 0.63949 0.37000
C 	C 	0.48543 0.09877 0.62245 -0.07800
C 	C 	0.47013 0.06827 0.58859 0.00500
H 	H 	0.42153 0.05737 0.57747 0.06100
C 	C 	0.48543 0.07187 0.51117 -0.25700
C 	C 	0.48023 0.05367 0.47607 0.08300
H 	H 	0.46663 0.08377 0.45967 0.23900
C 	C 	0.43693 0.16367 0.49757 0.49400
H 	H 	0.48353 0.21027 0.48607 -0.06800
H 	H 	0.39783 0.12807 0.48037 -0.13100
H 	H 	0.45693 0.07857 0.52017 1.15100
H 	H 	0.45383 0.05257 0.46057 -0.28300
C 	C 	0.47403 0.04087 0.51187 -0.28500
C 	C 	0.53243 0.97747 0.52307 0.07500
O 	O 	0.62806 0.51850 0.99683 -0.40800
O 	O 	0.58870 0.55790 0.04405 -0.41100
O 	O 	0.68350 0.55050 0.14560 -1.15700
C 	C 	0.63900 0.54660 0.02718 0.37000
C 	C 	0.72000 0.56790 0.04422 -0.07800
C 	C 	0.73520 0.59840 0.07808 0.00600
H 	H 	0.69750 0.60930 0.08920 0.06100
C 	C 	0.74690 0.59480 0.15550 -0.25600
C 	C 	0.75990 0.61300 0.19060 0.08300
H 	H 	0.71620 0.58290 0.20700 0.23800
C 	C 	0.60660 0.50300 0.16910 0.49400
H 	H 	0.60660 0.45640 0.18060 -0.06800
H 	H 	0.60310 0.53860 0.18630 -0.13100
H 	H 	0.71170 0.58810 0.14650 1.15000
H 	H 	0.73460 0.61410 0.20610 -0.28200
C 	C 	0.76650 0.62580 0.15480 -0.28600
C 	C 	0.88830 0.68920 0.14360 0.07500
O 	O 	0.29473 0.85183 0.33016 -0.40800
O 	O 	0.25537 0.89123 0.37738 -0.41100
O 	O 	0.35017 0.88383 0.47893 -1.15700
C 	C 	0.30567 0.87993 0.36051 0.37000
C 	C 	0.38667 0.90123 0.37755 -0.07800
C 	C 	0.40187 0.93173 0.41141 0.00500
H 	H 	0.36417 0.94263 0.42253 0.06100
C 	C 	0.41357 0.92813 0.48883 -0.25700
C 	C 	0.42657 0.94633 0.52393 0.08300
H 	H 	0.38287 0.91623 0.54033 0.23900
C 	C 	0.27327 0.83633 0.50243 0.49400
H 	H 	0.27327 0.78973 0.51393 -0.06800
H 	H 	0.26977 0.87193 0.51963 -0.13100
H 	H 	0.37837 0.92143 0.47983 1.15100
H 	H 	0.40127 0.94743 0.53943 -0.28300
C 	C 	0.43317 0.95913 0.48813 -0.28600
C 	C 	0.55497 0.02253 0.47693 0.07600
O 	O 	0.96139 0.18517 0.66350 -0.40800
O 	O 	0.92203 0.22457 0.71072 -0.41100
O 	O 	0.01683 0.21717 0.81227 -1.15500
C 	C 	0.97233 0.21327 0.69385 0.36800
C 	C 	0.05333 0.23457 0.71089 -0.07600
C 	C 	0.06853 0.26507 0.74475 0.00400
H 	H 	0.03083 0.27597 0.75587 0.06200
C 	C 	0.08023 0.26147 0.82217 -0.25600
C 	C 	0.09323 0.27967 0.85727 0.08400
H 	H 	0.04953 0.24957 0.87367 0.23900
C 	C 	0.93993 0.16967 0.83577 0.49200
H 	H 	0.93993 0.12307 0.84727 -0.06800
H 	H 	0.93643 0.20527 0.85297 -0.13100
H 	H 	0.04503 0.25477 0.81317 1.14900
H 	H 	0.06793 0.28077 0.87277 -0.28400
C 	C 	0.09983 0.29247 0.82147 -0.28600
C 	C 	0.22163 0.35587 0.81027 0.07500
O 	O 	0.89044 0.37194 0.99683 -0.40800
O 	O 	0.96920 0.41130 0.04405 -0.41000
O 	O 	0.86700 0.31650 0.14560 -1.15700
C 	C 	0.90760 0.36100 0.02718 0.37000
C 	C 	0.84790 0.28000 0.04422 -0.07800
C 	C 	0.86320 0.26480 0.07808 0.00600
H 	H 	0.91180 0.30250 0.08920 0.06100
C 	C 	0.84790 0.25310 0.15550 -0.25700
C 	C 	0.85310 0.24010 0.19060 0.08400
H 	H 	0.86670 0.28380 0.20700 0.23900
C 	C 	0.89640 0.39340 0.16910 0.49300
H 	H 	0.84980 0.39340 0.18060 -0.06700
H 	H 	0.93550 0.39690 0.18630 -0.13000
H 	H 	0.87640 0.28830 0.14650 1.15100
H 	H 	0.87950 0.26540 0.20610 -0.28400
C 	C 	0.85930 0.23350 0.15480 -0.28600
C 	C 	0.80090 0.11170 0.14360 0.07500
O 	O 	0.55711 0.70527 0.33016 -0.40800
O 	O 	0.63587 0.74463 0.37738 -0.41000
O 	O 	0.53367 0.64983 0.47893 -1.15800
C 	C 	0.57427 0.69433 0.36051 0.37000
C 	C 	0.51457 0.61333 0.37755 -0.07800
C 	C 	0.52987 0.59813 0.41141 0.00500
H 	H 	0.57847 0.63583 0.42253 0.06100
C 	C 	0.51457 0.58643 0.48883 -0.25700
C 	C 	0.51977 0.57343 0.52393 0.08300
H 	H 	0.53337 0.61713 0.54033 0.23900
C 	C 	0.56307 0.72673 0.50243 0.49400
H 	H 	0.51647 0.72673 0.51393 -0.06800
H 	H 	0.60217 0.73023 0.51963 -0.13100
H 	H 	0.54307 0.62163 0.47983 1.15100
H 	H 	0.54617 0.59873 0.53943 -0.28400
C 	C 	0.52597 0.56683 0.48813 -0.28600
C 	C 	0.46757 0.44503 0.47693 0.07600
O 	O 	0.22377 0.03861 0.66350 -0.40800
O 	O 	0.30253 0.07797 0.71072 -0.41000
O 	O 	0.20033 0.98317 0.81227 -1.15400
C 	C 	0.24093 0.02767 0.69385 0.36800
C 	C 	0.18123 0.94667 0.71089 -0.07500
C 	C 	0.19653 0.93147 0.74475 0.00400
H 	H 	0.24513 0.96917 0.75587 0.06200
C 	C 	0.18123 0.91977 0.82217 -0.25500
C 	C 	0.18643 0.90677 0.85727 0.08300
H 	H 	0.20003 0.95047 0.87367 0.23800
C 	C 	0.22973 0.06007 0.83577 0.49100
H 	H 	0.18313 0.06007 0.84727 -0.06700
H 	H 	0.26883 0.06357 0.85297 -0.13000
H 	H 	0.20973 0.95497 0.81317 1.14800
H 	H 	0.21283 0.93207 0.87277 -0.28300
C 	C 	0.19263 0.90017 0.82147 -0.28500
C 	C 	0.13423 0.77837 0.81027 0.07500
O 	O 	0.48150 0.10956 0.99683 -0.40800
O 	O 	0.44210 0.03080 0.04405 -0.41000
O 	O 	0.44950 0.13300 0.14560 -1.15800
C 	C 	0.45340 0.09240 0.02718 0.37000
C 	C 	0.43210 0.15210 0.04422 -0.07800
C 	C 	0.40160 0.13680 0.07808 0.00600
H 	H 	0.39070 0.08820 0.08920 0.06100
C 	C 	0.40520 0.15210 0.15550 -0.25700
C 	C 	0.38700 0.14690 0.19060 0.08500
H 	H 	0.41710 0.13330 0.20700 0.23900
C 	C 	0.49700 0.10360 0.16910 0.49300
H 	H 	0.54360 0.15020 0.18060 -0.06800
H 	H 	0.46140 0.06450 0.18630 -0.13000
H 	H 	0.41190 0.12360 0.14650 1.15200
H 	H 	0.38590 0.12050 0.20610 -0.28500
C 	C 	0.37420 0.14070 0.15480 -0.28700
C 	C 	0.31080 0.19910 0.14360 0.07500
O 	O 	0.14817 0.44289 0.33016 -0.40800
O 	O 	0.10877 0.36413 0.37738 -0.41100
O 	O 	0.11617 0.46633 0.47893 -1.15700
C 	C 	0.12007 0.42573 0.36051 0.37000
C 	C 	0.09877 0.48543 0.37755 -0.07800
C 	C 	0.06827 0.47013 0.41141 0.00500
H 	H 	0.05737 0.42153 0.42253 0.06100
C 	C 	0.07187 0.48543 0.48883 -0.25700
C 	C 	0.05367 0.48023 0.52393 0.08300
H 	H 	0.08377 0.46663 0.54033 0.23900
C 	C 	0.16367 0.43693 0.50243 0.49400
H 	H 	0.21027 0.48353 0.51393 -0.06800
H 	H 	0.12807 0.39783 0.51963 -0.13100
H 	H 	0.07857 0.45693 0.47983 1.15100
H 	H 	0.05257 0.45383 0.53943 -0.28300
C 	C 	0.04087 0.47403 0.48813 -0.28500
C 	C 	0.97747 0.53243 0.47693 0.07500
O 	O 	0.81483 0.77623 0.66350 -0.40800
O 	O 	0.77543 0.69747 0.71072 -0.41000
O 	O 	0.78283 0.79967 0.81227 -1.15700
C 	C 	0.78673 0.75907 0.69385 0.36900
C 	C 	0.76543 0.81877 0.71089 -0.07700
C 	C 	0.73493 0.80347 0.74475 0.00500
H 	H 	0.72403 0.75487 0.75587 0.06200
C 	C 	0.73853 0.81877 0.82217 -0.25600
C 	C 	0.72033 0.81357 0.85727 0.08200
H 	H 	0.75043 0.79997 0.87367 0.23800
C 	C 	0.83033 0.77027 0.83577 0.49400
H 	H 	0.87693 0.81687 0.84727 -0.06800
H 	H 	0.79473 0.73117 0.85297 -0.13100
H 	H 	0.74523 0.79027 0.81317 1.15000
H 	H 	0.71923 0.78717 0.87277 -0.28200
C 	C 	0.70753 0.80737 0.82147 -0.28500
C 	C 	0.64413 0.86577 0.81027 0.07600
Cu	Cu	0.52323 0.47677 0.97237 0.90500
C 	C 	0.52970 0.47030 0.14000 -0.45300
H 	H 	0.54180 0.45820 0.11700 0.25300
H 	H 	0.49960 0.50040 0.13960 0.17700
Cu	Cu	0.18990 0.81010 0.30571 0.90500
C 	C 	0.19637 0.80363 0.47333 -0.45300
H 	H 	0.20847 0.79153 0.45033 0.25300
H 	H 	0.16627 0.83373 0.47293 0.17700
Cu	Cu	0.85657 0.14343 0.63904 0.90500
C 	C 	0.86303 0.13697 0.80667 -0.45200
H 	H 	0.87513 0.12487 0.78367 0.25200
H 	H 	0.83293 0.16707 0.80627 0.17600
Cu	Cu	0.52323 0.04646 0.97237 0.90500
C 	C 	0.52970 0.05940 0.14000 -0.45000
H 	H 	0.54180 0.08360 0.11700 0.25200
H 	H 	0.49960 0.99920 0.13960 0.17500
Cu	Cu	0.18990 0.37980 0.30571 0.90500
C 	C 	0.19637 0.39273 0.47333 -0.45300
H 	H 	0.20847 0.41693 0.45033 0.25300
H 	H 	0.16627 0.33253 0.47293 0.17700
Cu	Cu	0.85657 0.71313 0.63904 0.90500
C 	C 	0.86303 0.72607 0.80667 -0.45200
H 	H 	0.87513 0.75027 0.78367 0.25300
H 	H 	0.83293 0.66587 0.80627 0.17700
Cu	Cu	0.95354 0.47677 0.97237 0.90500
C 	C 	0.94060 0.47030 0.14000 -0.45000
H 	H 	0.91640 0.45820 0.11700 0.25200
H 	H 	0.00080 0.50040 0.13960 0.17500
Cu	Cu	0.62020 0.81010 0.30571 0.90500
C 	C 	0.60727 0.80363 0.47333 -0.45300
H 	H 	0.58307 0.79153 0.45033 0.25300
H 	H 	0.66747 0.83373 0.47293 0.17700
Cu	Cu	0.28687 0.14343 0.63904 0.90500
C 	C 	0.27393 0.13697 0.80667 -0.45200
H 	H 	0.24973 0.12487 0.78367 0.25300
H 	H 	0.33413 0.16707 0.80627 0.17700
Cu	Cu	0.47677 0.52323 0.02762 0.90500
C 	C 	0.47030 0.52970 0.86000 -0.45300
H 	H 	0.45820 0.54180 0.88300 0.25300
H 	H 	0.50040 0.49960 0.86040 0.17700
Cu	Cu	0.14343 0.85657 0.36096 0.90500
C 	C 	0.13697 0.86303 0.19333 -0.45200
H 	H 	0.12487 0.87513 0.21633 0.25200
H 	H 	0.16707 0.83293 0.19373 0.17600
Cu	Cu	0.81010 0.18990 0.69429 0.90500
C 	C 	0.80363 0.19637 0.52667 -0.45300
H 	H 	0.79153 0.20847 0.54967 0.25300
H 	H 	0.83373 0.16627 0.52707 0.17700
Cu	Cu	0.04646 0.52323 0.02762 0.90500
C 	C 	0.05940 0.52970 0.86000 -0.45000
H 	H 	0.08360 0.54180 0.88300 0.25200
H 	H 	0.99920 0.49960 0.86040 0.17500
Cu	Cu	0.71313 0.85657 0.36096 0.90500
C 	C 	0.72607 0.86303 0.19333 -0.45200
H 	H 	0.75027 0.87513 0.21633 0.25300
H 	H 	0.66587 0.83293 0.19373 0.17700
Cu	Cu	0.37980 0.18990 0.69429 0.90500
C 	C 	0.39273 0.19637 0.52667 -0.45300
H 	H 	0.41693 0.20847 0.54967 0.25300
H 	H 	0.33253 0.16627 0.52707 0.17700
Cu	Cu	0.47677 0.95354 0.02762 0.90500
C 	C 	0.47030 0.94060 0.86000 -0.45000
H 	H 	0.45820 0.91640 0.88300 0.25200
H 	H 	0.50040 0.00080 0.86040 0.17500
Cu	Cu	0.14343 0.28687 0.36096 0.90500
C 	C 	0.13697 0.27393 0.19333 -0.45200
H 	H 	0.12487 0.24973 0.21633 0.25300
H 	H 	0.16707 0.33413 0.19373 0.17700
Cu	Cu	0.81010 0.62020 0.69429 0.90500
C 	C 	0.80363 0.60727 0.52667 -0.45300
H 	H 	0.79153 0.58307 0.54967 0.25300
H 	H 	0.83373 0.66747 0.52707 0.17700
C 	C 	0.44690 0.22345 0.02739 0.03700
H 	H 	0.46670 0.23335 0.00480 0.05100
C 	C 	0.38770 0.19385 0.09512 0.01000
C 	C 	0.37380 0.18690 0.13280 -0.34700
C 	C 	0.32610 0.16305 0.20180 0.56800
C 	C 	0.11357 0.55678 0.36072 0.03600
H 	H 	0.13337 0.56668 0.33813 0.05100
C 	C 	0.05437 0.52718 0.42845 0.01000
C 	C 	0.04047 0.52023 0.46613 -0.34800
C 	C 	0.99277 0.49638 0.53513 0.56900
C 	C 	0.78023 0.89012 0.69406 0.03500
H 	H 	0.80003 0.90002 0.67147 0.05200
C 	C 	0.72103 0.86052 0.76179 0.01100
C 	C 	0.70713 0.85357 0.79947 -0.34800
C 	C 	0.65943 0.82972 0.86847 0.56900
C 	C 	0.77655 0.22345 0.02739 0.03700
H 	H 	0.76665 0.23335 0.00480 0.05100
C 	C 	0.80615 0.19385 0.09512 0.01000
C 	C 	0.81310 0.18690 0.13280 -0.34700
C 	C 	0.83695 0.16305 0.20180 0.56700
C 	C 	0.44322 0.55678 0.36072 0.03600
H 	H 	0.43332 0.56668 0.33813 0.05100
C 	C 	0.47282 0.52718 0.42845 0.01000
C 	C 	0.47977 0.52023 0.46613 -0.34800
C 	C 	0.50362 0.49638 0.53513 0.56900
C 	C 	0.10988 0.89012 0.69406 0.03400
H 	H 	0.09998 0.90002 0.67147 0.05200
C 	C 	0.13948 0.86052 0.76179 0.01200
C 	C 	0.14643 0.85357 0.79947 -0.34800
C 	C 	0.17028 0.82972 0.86847 0.56900
C 	C 	0.77655 0.55310 0.02739 0.03700
H 	H 	0.76665 0.53330 0.00480 0.05100
C 	C 	0.80615 0.61230 0.09512 0.01000
C 	C 	0.81310 0.62620 0.13280 -0.34700
C 	C 	0.83695 0.67390 0.20180 0.56800
C 	C 	0.44322 0.88643 0.36072 0.03600
H 	H 	0.43332 0.86663 0.33813 0.05100
C 	C 	0.47282 0.94563 0.42845 0.01000
C 	C 	0.47977 0.95953 0.46613 -0.34800
C 	C 	0.50362 0.00723 0.53513 0.56900
C 	C 	0.10988 0.21977 0.69406 0.03500
H 	H 	0.09998 0.19997 0.67147 0.05200
C 	C 	0.13948 0.27897 0.76179 0.01100
C 	C 	0.14643 0.29287 0.79947 -0.34800
C 	C 	0.17028 0.34057 0.86847 0.56900
C 	C 	0.22345 0.44690 0.97261 0.03700
H 	H 	0.23335 0.46670 0.99520 0.05100
C 	C 	0.19385 0.38770 0.90488 0.01000
C 	C 	0.18690 0.37380 0.86720 -0.34700
C 	C 	0.16305 0.32610 0.79820 0.56800
C 	C 	0.89012 0.78023 0.30594 0.03500
H 	H 	0.90002 0.80003 0.32853 0.05200
C 	C 	0.86052 0.72103 0.23821 0.01100
C 	C 	0.85357 0.70713 0.20053 -0.34800
C 	C 	0.82972 0.65943 0.13153 0.56900
C 	C 	0.55678 0.11357 0.63928 0.03600
H 	H 	0.56668 0.13337 0.66187 0.05100
C 	C 	0.52718 0.05437 0.57155 0.01000
C 	C 	0.52023 0.04047 0.53387 -0.34800
C 	C 	0.49638 0.99277 0.46487 0.56900
C 	C 	0.22345 0.77655 0.97261 0.03700
H 	H 	0.23335 0.76665 0.99520 0.05100
C 	C 	0.19385 0.80615 0.90488 0.01000
C 	C 	0.18690 0.81310 0.86720 -0.34700
C 	C 	0.16305 0.83695 0.79820 0.56700
C 	C 	0.89012 0.10988 0.30594 0.03400
H 	H 	0.90002 0.09998 0.32853 0.05200
C 	C 	0.86052 0.13948 0.23821 0.01200
C 	C 	0.85357 0.14643 0.20053 -0.34800
C 	C 	0.82972 0.17028 0.13153 0.56900
C 	C 	0.55678 0.44322 0.63928 0.03600
H 	H 	0.56668 0.43332 0.66187 0.05100
C 	C 	0.52718 0.47282 0.57155 0.01000
C 	C 	0.52023 0.47977 0.53387 -0.34800
C 	C 	0.49638 0.50362 0.46487 0.56900
C 	C 	0.55310 0.77655 0.97261 0.03700
H 	H 	0.53330 0.76665 0.99520 0.05100
C 	C 	0.61230 0.80615 0.90488 0.01000
C 	C 	0.62620 0.81310 0.86720 -0.34700
C 	C 	0.67390 0.83695 0.79820 0.56800
C 	C 	0.21977 0.10988 0.30594 0.03500
H 	H 	0.19997 0.09998 0.32853 0.05200
C 	C 	0.27897 0.13948 0.23821 0.01100
C 	C 	0.29287 0.14643 0.20053 -0.34800
C 	C 	0.34057 0.17028 0.13153 0.56900
C 	C 	0.88643 0.44322 0.63928 0.03600
H 	H 	0.86663 0.43332 0.66187 0.05100
C 	C 	0.94563 0.47282 0.57155 0.01000
C 	C 	0.95953 0.47977 0.53387 -0.34800
C 	C 	0.00723 0.50362 0.46487 0.56900
