data_crystal

_cell_length_a 19.81000
_cell_length_b 13.15300
_cell_length_c 9.80600
_cell_angle_alpha 90.00000
_cell_angle_beta  113.19600
_cell_angle_gamma 90.00000

_symmetry_space_group_name_	'P 1'
_symmetry_space_group_name_H-M	'P 1'

loop_
_symmetry_equiv_pos_as_xyz
  x,y,z

loop_
_atom_site_label
_atom_site_type_symbol
_atom_site_fract_x
_atom_site_fract_y
_atom_site_fract_z
_atom_site_charge
N 	N 	0.43144 0.28540 0.11810 -0.18100
N 	N 	0.39779 0.26840 0.97070 -0.18200
H 	H 	0.40820 0.30100 0.90540 0.14300
C 	C 	0.11400 0.05270 0.56920 0.50500
C 	C 	0.19090 0.09050 0.60810 -0.17000
C 	C 	0.23190 0.12730 0.74760 0.05000
H 	H 	0.21150 0.12960 0.81830 0.01900
C 	C 	0.30320 0.16100 0.78440 -0.07300
C 	C 	0.33220 0.15920 0.67710 0.01100
H 	H 	0.38000 0.18170 0.70040 0.05100
C 	C 	0.29100 0.12460 0.53620 -0.10800
H 	H 	0.31060 0.12570 0.46420 0.07500
C 	C 	0.22090 0.08820 0.50140 0.06800
H 	H 	0.19380 0.06230 0.40730 0.01700
C 	C 	0.34620 0.19500 0.93670 0.13800
C 	C 	0.34640 0.16260 0.06950 -0.17900
H 	H 	0.31690 0.11240 0.08420 0.10100
C 	C 	0.39960 0.21970 0.17770 0.11600
H 	H 	0.41160 0.21310 0.27900 -0.00900
O 	O 	0.08108 0.08430 0.64700 -0.51500
O 	O 	0.08805 0.99240 0.46290 -0.50400
O 	O 	0.95931 0.88710 0.79600 -0.14400
N 	N 	0.93144 0.78540 0.11810 -0.12700
N 	N 	0.89779 0.76840 0.97070 -0.17900
H 	H 	0.90820 0.80100 0.90540 0.16400
C 	C 	0.61400 0.55270 0.56920 0.53900
C 	C 	0.69090 0.59050 0.60810 -0.18300
C 	C 	0.73190 0.62730 0.74760 0.06000
H 	H 	0.71150 0.62960 0.81830 0.01500
C 	C 	0.80320 0.66100 0.78440 -0.06900
C 	C 	0.83220 0.65920 0.67710 0.01100
H 	H 	0.88000 0.68170 0.70040 0.07800
C 	C 	0.79100 0.62460 0.53620 -0.10600
H 	H 	0.81060 0.62570 0.46420 0.08500
C 	C 	0.72090 0.58820 0.50140 0.07700
H 	H 	0.69380 0.56230 0.40730 0.01100
C 	C 	0.84620 0.69500 0.93670 0.14400
C 	C 	0.84640 0.66260 0.06950 -0.16500
H 	H 	0.81690 0.61240 0.08420 0.10200
C 	C 	0.89960 0.71970 0.17770 0.11900
H 	H 	0.91160 0.71310 0.27900 0.02200
O 	O 	0.58108 0.58430 0.64700 -0.53700
O 	O 	0.58805 0.49240 0.46290 -0.53100
O 	O 	0.45931 0.38710 0.79600 -0.26800
N 	N 	0.56856 0.28540 0.38190 -0.18100
N 	N 	0.60221 0.26840 0.52930 -0.18000
H 	H 	0.59180 0.30100 0.59460 0.14500
C 	C 	0.88600 0.05270 0.93080 0.48300
C 	C 	0.80910 0.09050 0.89190 -0.15000
C 	C 	0.76810 0.12730 0.75240 0.04300
H 	H 	0.78850 0.12960 0.68170 0.02400
C 	C 	0.69680 0.16100 0.71560 -0.07000
C 	C 	0.66780 0.15920 0.82290 0.01000
H 	H 	0.62000 0.18170 0.79960 0.05100
C 	C 	0.70900 0.12460 0.96380 -0.10800
H 	H 	0.68940 0.12570 0.03580 0.07800
C 	C 	0.77910 0.08820 0.99860 0.05000
H 	H 	0.80620 0.06230 0.09270 0.02800
C 	C 	0.65380 0.19500 0.56330 0.14200
C 	C 	0.65360 0.16260 0.43050 -0.18600
H 	H 	0.68310 0.11240 0.41580 0.10100
C 	C 	0.60040 0.21970 0.32230 0.11800
H 	H 	0.58840 0.21310 0.22100 -0.01000
O 	O 	0.91892 0.08430 0.85300 -0.44000
O 	O 	0.91195 0.99240 0.03710 -0.43500
O 	O 	0.04069 0.88710 0.70400 -0.26800
N 	N 	0.06856 0.78540 0.38190 -0.18500
N 	N 	0.10221 0.76840 0.52930 -0.18400
H 	H 	0.09180 0.80100 0.59460 0.14000
C 	C 	0.38600 0.55270 0.93080 0.53600
C 	C 	0.30910 0.59050 0.89190 -0.18900
C 	C 	0.26810 0.62730 0.75240 0.06800
H 	H 	0.28850 0.62960 0.68170 0.01300
C 	C 	0.19680 0.66100 0.71560 -0.08800
C 	C 	0.16780 0.65920 0.82290 0.02400
H 	H 	0.12000 0.68170 0.79960 0.03700
C 	C 	0.20900 0.62460 0.96380 -0.13000
H 	H 	0.18940 0.62570 0.03580 0.07900
C 	C 	0.27910 0.58820 0.99860 0.08100
H 	H 	0.30620 0.56230 0.09270 0.01100
C 	C 	0.15380 0.69500 0.56330 0.14200
C 	C 	0.15360 0.66260 0.43050 -0.19200
H 	H 	0.18310 0.61240 0.41580 0.09900
C 	C 	0.10040 0.71970 0.32230 0.10600
H 	H 	0.08840 0.71310 0.22100 -0.02200
O 	O 	0.41892 0.58430 0.85300 -0.53700
O 	O 	0.41195 0.49240 0.03710 -0.52700
O 	O 	0.54069 0.38710 0.70400 -0.26700
N 	N 	0.56856 0.71460 0.88190 -0.18300
N 	N 	0.60221 0.73160 0.02930 -0.17900
H 	H 	0.59180 0.69900 0.09460 0.14600
C 	C 	0.88600 0.94730 0.43080 0.49100
C 	C 	0.80910 0.90950 0.39190 -0.15700
C 	C 	0.76810 0.87270 0.25240 0.04800
H 	H 	0.78850 0.87040 0.18170 0.02200
C 	C 	0.69680 0.83900 0.21560 -0.07300
C 	C 	0.66780 0.84080 0.32290 0.01100
H 	H 	0.62000 0.81830 0.29960 0.05100
C 	C 	0.70900 0.87540 0.46380 -0.10500
H 	H 	0.68940 0.87430 0.53580 0.07400
C 	C 	0.77910 0.91180 0.49860 0.06300
H 	H 	0.80620 0.93770 0.59270 0.01900
C 	C 	0.65380 0.80500 0.06330 0.14800
C 	C 	0.65360 0.83740 0.93050 -0.19400
H 	H 	0.68310 0.88760 0.91580 0.10300
C 	C 	0.60040 0.78030 0.82230 0.12000
H 	H 	0.58840 0.78690 0.72100 -0.01100
O 	O 	0.91892 0.91570 0.35300 -0.44000
O 	O 	0.91195 0.00760 0.53710 -0.43900
O 	O 	0.04069 0.11290 0.20400 -0.26600
N 	N 	0.06856 0.21460 0.88190 -0.18700
N 	N 	0.10221 0.23160 0.02930 -0.18200
H 	H 	0.09180 0.19900 0.09460 0.14100
C 	C 	0.38600 0.44730 0.43080 0.54200
C 	C 	0.30910 0.40950 0.39190 -0.19300
C 	C 	0.26810 0.37270 0.25240 0.07100
H 	H 	0.28850 0.37040 0.18170 0.01200
C 	C 	0.19680 0.33900 0.21560 -0.09000
C 	C 	0.16780 0.34080 0.32290 0.02400
H 	H 	0.12000 0.31830 0.29960 0.03800
C 	C 	0.20900 0.37540 0.46380 -0.12700
H 	H 	0.18940 0.37430 0.53580 0.07600
C 	C 	0.27910 0.41180 0.49860 0.08700
H 	H 	0.30620 0.43770 0.59270 0.00700
C 	C 	0.15380 0.30500 0.06330 0.14800
C 	C 	0.15360 0.33740 0.93050 -0.20000
H 	H 	0.18310 0.38760 0.91580 0.10100
C 	C 	0.10040 0.28030 0.82230 0.10900
H 	H 	0.08840 0.28690 0.72100 -0.02400
O 	O 	0.41892 0.41570 0.35300 -0.53800
O 	O 	0.41195 0.50760 0.53710 -0.53100
O 	O 	0.54069 0.61290 0.20400 -0.26700
N 	N 	0.43144 0.71460 0.61810 -0.18200
N 	N 	0.39779 0.73160 0.47070 -0.18000
H 	H 	0.40820 0.69900 0.40540 0.14500
C 	C 	0.11400 0.94730 0.06920 0.51000
C 	C 	0.19090 0.90950 0.10810 -0.17200
C 	C 	0.23190 0.87270 0.24760 0.05400
H 	H 	0.21150 0.87040 0.31830 0.02000
C 	C 	0.30320 0.83900 0.28440 -0.07500
C 	C 	0.33220 0.84080 0.17710 0.01200
H 	H 	0.38000 0.81830 0.20040 0.05100
C 	C 	0.29100 0.87540 0.03620 -0.10600
H 	H 	0.31060 0.87430 0.96420 0.07300
C 	C 	0.22090 0.91180 0.00140 0.07300
H 	H 	0.19380 0.93770 0.90730 0.01300
C 	C 	0.34620 0.80500 0.43670 0.14400
C 	C 	0.34640 0.83740 0.56950 -0.18700
H 	H 	0.31690 0.88760 0.58420 0.10200
C 	C 	0.39960 0.78030 0.67770 0.11800
H 	H 	0.41160 0.78690 0.77900 -0.01100
O 	O 	0.08108 0.91570 0.14700 -0.51500
O 	O 	0.08805 0.00760 0.96290 -0.50600
O 	O 	0.95931 0.11290 0.29600 -0.14100
N 	N 	0.93144 0.21460 0.61810 -0.13100
N 	N 	0.89779 0.23160 0.47070 -0.17700
H 	H 	0.90820 0.19900 0.40540 0.16500
C 	C 	0.61400 0.44730 0.06920 0.54500
C 	C 	0.69090 0.40950 0.10810 -0.18600
C 	C 	0.73190 0.37270 0.24760 0.06300
H 	H 	0.71150 0.37040 0.31830 0.01500
C 	C 	0.80320 0.33900 0.28440 -0.07100
C 	C 	0.83220 0.34080 0.17710 0.00900
H 	H 	0.88000 0.31830 0.20040 0.08000
C 	C 	0.79100 0.37540 0.03620 -0.09700
H 	H 	0.81060 0.37430 0.96420 0.07700
C 	C 	0.72090 0.41180 0.00140 0.08300
H 	H 	0.69380 0.43770 0.90730 0.00700
C 	C 	0.84620 0.30500 0.43670 0.15200
C 	C 	0.84640 0.33740 0.56950 -0.17600
H 	H 	0.81690 0.38760 0.58420 0.10400
C 	C 	0.89960 0.28030 0.67770 0.12300
H 	H 	0.91160 0.28690 0.77900 0.01900
O 	O 	0.58108 0.41570 0.14700 -0.53800
O 	O 	0.58805 0.50760 0.96290 -0.53500
O 	O 	0.45931 0.61290 0.29600 -0.26700
Er	Er	0.00000 0.05874 0.75000 1.59800
N 	N 	0.00000 0.83660 0.75000 0.00400
O 	O 	0.00000 0.74530 0.75000 -0.19500
Er	Er	0.50000 0.55874 0.75000 1.90800
N 	N 	0.50000 0.33660 0.75000 0.06700
O 	O 	0.50000 0.24530 0.75000 -0.14300
Er	Er	0.00000 0.94126 0.25000 1.59600
N 	N 	0.00000 0.16340 0.25000 0.00400
O 	O 	0.00000 0.25470 0.25000 -0.19400
Er	Er	0.50000 0.44126 0.25000 1.90900
N 	N 	0.50000 0.66340 0.25000 0.06700
O 	O 	0.50000 0.75470 0.25000 -0.14200
