data_crystal

_cell_length_a 10.91100
_cell_length_b 6.41300
_cell_length_c 17.04500
_cell_angle_alpha 90.00000
_cell_angle_beta  105.86700
_cell_angle_gamma 90.00000

_symmetry_space_group_name_	'P 1'
_symmetry_space_group_name_H-M	'P 1'

loop_
_symmetry_equiv_pos_as_xyz
  x,y,z

loop_
_atom_site_label
_atom_site_type_symbol
_atom_site_fract_x
_atom_site_fract_y
_atom_site_fract_z
_atom_site_charge
Co	Co	0.53436 0.99644 0.41579 1.12100
O 	O 	0.35990 0.12640 0.34520 -0.47400
O 	O 	0.38420 0.46270 0.38150 -0.45900
O 	O 	0.34330 0.03260 0.04860 -0.49600
O 	O 	0.27590 0.36160 0.03460 -0.47300
O 	O 	0.44310 0.80980 0.48260 -0.67700
H 	H 	0.35230 0.80970 0.45350 0.17700
C 	C 	0.33040 0.31510 0.33600 0.37400
C 	C 	0.22140 0.38320 0.26420 -0.12900
C 	C 	0.17850 0.24450 0.19860 0.00900
H 	H 	0.21710 0.11470 0.20000 0.02200
C 	C 	0.07800 0.30020 0.13120 -0.06400
C 	C 	0.01870 0.49440 0.13080 -0.00600
H 	H 	0.94910 0.53040 0.08770 0.03200
C 	C 	0.06450 0.63410 0.19540 -0.09300
H 	H 	0.02650 0.76390 0.19500 0.07300
C 	C 	0.16730 0.57690 0.26010 0.02800
H 	H 	0.20010 0.67240 0.30160 0.02400
C 	C 	0.03840 0.15220 0.06180 0.15000
C 	C 	0.91510 0.06930 0.03980 -0.24500
H 	H 	0.85620 0.11810 0.06580 0.09800
C 	C 	0.12230 0.08490 0.02020 -0.25700
C 	C 	0.25900 0.17040 0.03650 0.41100
Co	Co	0.46564 0.49644 0.08421 1.10500
O 	O 	0.64010 0.62640 0.15480 -0.46600
O 	O 	0.61580 0.96270 0.11850 -0.44900
O 	O 	0.65670 0.53260 0.45140 -0.46200
O 	O 	0.72410 0.86160 0.46540 -0.43700
O 	O 	0.55690 0.30980 0.01740 -0.71000
H 	H 	0.64770 0.30970 0.04650 0.16200
C 	C 	0.66960 0.81510 0.16400 0.36000
C 	C 	0.77860 0.88320 0.23580 -0.09600
C 	C 	0.82150 0.74450 0.30140 -0.01400
H 	H 	0.78290 0.61470 0.30000 0.03400
C 	C 	0.92200 0.80020 0.36880 -0.03600
C 	C 	0.98130 0.99440 0.36920 0.04900
H 	H 	0.05090 0.03040 0.41230 0.01300
C 	C 	0.93550 0.13410 0.30460 -0.12600
H 	H 	0.97350 0.26390 0.30500 0.07900
C 	C 	0.83270 0.07690 0.23990 0.00200
H 	H 	0.79990 0.17240 0.19840 0.02200
C 	C 	0.96160 0.65220 0.43820 0.05700
C 	C 	0.08490 0.56930 0.46020 -0.05700
H 	H 	0.14380 0.61810 0.43420 0.05300
C 	C 	0.87770 0.58490 0.47980 -0.10400
C 	C 	0.74100 0.67040 0.46350 0.36900
Co	Co	0.46564 0.00356 0.58421 1.10400
O 	O 	0.64010 0.87360 0.65480 -0.44800
O 	O 	0.61580 0.53730 0.61850 -0.45300
O 	O 	0.65670 0.96740 0.95140 -0.41300
O 	O 	0.72410 0.63840 0.96540 -0.40800
O 	O 	0.55690 0.19020 0.51740 -0.68900
H 	H 	0.64770 0.19030 0.54650 0.16800
C 	C 	0.66960 0.68490 0.66400 0.35100
C 	C 	0.77860 0.61680 0.73580 -0.07100
C 	C 	0.82150 0.75550 0.80140 -0.07900
H 	H 	0.78290 0.88530 0.80000 0.06300
C 	C 	0.92200 0.69980 0.86880 0.07300
C 	C 	0.98130 0.50560 0.86920 -0.10600
H 	H 	0.05090 0.46960 0.91230 0.09300
C 	C 	0.93550 0.36590 0.80460 -0.01100
H 	H 	0.97350 0.23610 0.80500 0.03700
C 	C 	0.83270 0.42310 0.73990 -0.03900
H 	H 	0.79990 0.32760 0.69840 0.04100
C 	C 	0.96160 0.84780 0.93820 -0.08500
C 	C 	0.08490 0.93070 0.96020 0.16000
H 	H 	0.14380 0.88190 0.93420 -0.00600
C 	C 	0.87770 0.91510 0.97980 0.08300
C 	C 	0.74100 0.82960 0.96350 0.31500
Co	Co	0.53436 0.50356 0.91579 1.12200
O 	O 	0.35990 0.37360 0.84520 -0.45400
O 	O 	0.38420 0.03730 0.88150 -0.45200
O 	O 	0.34330 0.46740 0.54860 -0.45800
O 	O 	0.27590 0.13840 0.53460 -0.44500
O 	O 	0.44310 0.69020 0.98260 -0.64700
H 	H 	0.35230 0.69030 0.95350 0.18300
C 	C 	0.33040 0.18490 0.83600 0.36200
C 	C 	0.22140 0.11680 0.76420 -0.10200
C 	C 	0.17850 0.25550 0.69860 -0.05800
H 	H 	0.21710 0.38530 0.70000 0.05100
C 	C 	0.07800 0.19980 0.63120 0.04700
C 	C 	0.01870 0.00560 0.63080 -0.16000
H 	H 	0.94910 0.96960 0.58770 0.11400
C 	C 	0.06450 0.86590 0.69540 0.02000
H 	H 	0.02650 0.73610 0.69500 0.03100
C 	C 	0.16730 0.92310 0.76010 -0.01400
H 	H 	0.20010 0.82760 0.80160 0.04300
C 	C 	0.03840 0.34780 0.56180 0.00500
C 	C 	0.91510 0.43070 0.53980 -0.02100
H 	H 	0.85620 0.38190 0.56580 0.03600
C 	C 	0.12230 0.41510 0.52020 -0.07400
C 	C 	0.25900 0.32960 0.53650 0.36000
Co	Co	0.50000 0.50000 0.50000 1.18500
Co	Co	0.50000 0.00000 -0.00000 1.15200
