data_crystal

_cell_length_a 19.13100
_cell_length_b 19.22600
_cell_length_c 7.18990
_cell_angle_alpha 90.00000
_cell_angle_beta  90.00000
_cell_angle_gamma 90.00000

_symmetry_space_group_name_	'P 1'
_symmetry_space_group_name_H-M	'P 1'

loop_
_symmetry_equiv_pos_as_xyz
  x,y,z

loop_
_atom_site_label
_atom_site_type_symbol
_atom_site_fract_x
_atom_site_fract_y
_atom_site_fract_z
_atom_site_charge
Cd	Cd	0.24558 0.30070 0.66330 1.22700
Ca	Ca	0.23236 0.35977 0.13047 1.48200
O 	O 	0.17840 0.27732 0.93700 -0.51900
O 	O 	0.12309 0.26548 0.67180 -0.38200
O 	O 	0.87560 0.19225 0.66420 -0.38000
O 	O 	0.81998 0.17453 0.92440 -0.52900
O 	O 	0.25726 0.26842 0.33340 -0.59300
O 	O 	0.26508 0.19069 0.55480 -0.41700
O 	O 	0.27879 0.90944 0.10160 -0.56000
O 	O 	0.28972 0.93879 0.39900 -0.55600
C 	C 	0.12450 0.26141 0.84600 0.32600
C 	C 	0.87570 0.18719 0.83530 0.34600
C 	C 	0.06203 0.23579 0.94880 -0.00300
C 	C 	0.06326 0.22639 0.14010 -0.13300
H 	H 	0.10420 0.23490 0.20610 0.04500
C 	C 	0.00420 0.20450 0.23310 0.01100
H 	H 	0.00540 0.19860 0.36140 0.02900
C 	C 	0.94360 0.19158 0.13590 -0.11700
H 	H 	0.90370 0.17740 0.19950 0.03400
C 	C 	0.94130 0.19948 0.94410 -0.00700
C 	C 	0.00105 0.22123 0.85230 -0.03700
H 	H 	0.00020 0.22620 0.72360 0.06400
C 	C 	0.26690 0.20635 0.38690 0.41700
C 	C 	0.28630 0.95300 0.23170 0.48700
C 	C 	0.28120 0.15049 0.24880 -0.20700
C 	C 	0.29610 0.16550 0.06510 0.06200
H 	H 	0.29710 0.21170 0.02720 -0.03200
C 	C 	0.30960 0.11411 0.93580 -0.16200
H 	H 	0.32090 0.12570 0.81390 0.10200
C 	C 	0.30610 0.04527 0.99000 0.21800
H 	H 	0.31390 0.01020 0.90320 -0.06500
C 	C 	0.29099 0.02788 0.17470 -0.30600
C 	C 	0.27970 0.08034 0.30250 0.16100
H 	H 	0.27090 0.06900 0.42600 -0.01600
Cd	Cd	0.75442 0.69930 0.16330 1.22100
Ca	Ca	0.76764 0.64023 0.63047 1.49500
O 	O 	0.82160 0.72268 0.43700 -0.56100
O 	O 	0.87691 0.73452 0.17180 -0.41700
O 	O 	0.12440 0.80775 0.16420 -0.41700
O 	O 	0.18002 0.82547 0.42440 -0.56800
O 	O 	0.74274 0.73158 0.83340 -0.57700
O 	O 	0.73492 0.80931 0.05480 -0.48100
O 	O 	0.72121 0.09056 0.60160 -0.53800
O 	O 	0.71028 0.06121 0.89900 -0.53500
C 	C 	0.87550 0.73859 0.34600 0.39600
C 	C 	0.12430 0.81281 0.33530 0.41500
C 	C 	0.93797 0.76421 0.44880 -0.21300
C 	C 	0.93674 0.77361 0.64010 0.13200
H 	H 	0.89580 0.76510 0.70610 -0.02400
C 	C 	0.99580 0.79550 0.73310 -0.21100
H 	H 	0.99460 0.80140 0.86140 0.12900
C 	C 	0.05640 0.80842 0.63590 0.14300
H 	H 	0.09630 0.82260 0.69950 -0.03300
C 	C 	0.05870 0.80052 0.44410 -0.21700
C 	C 	0.99895 0.77877 0.35230 0.13600
H 	H 	0.99980 0.77380 0.22360 -0.00600
C 	C 	0.73310 0.79365 0.88690 0.49800
C 	C 	0.71370 0.04700 0.73170 0.46900
C 	C 	0.71880 0.84951 0.74880 -0.24100
C 	C 	0.70390 0.83450 0.56510 0.17500
H 	H 	0.70290 0.78830 0.52720 -0.04300
C 	C 	0.69040 0.88589 0.43580 -0.25500
H 	H 	0.67910 0.87430 0.31390 0.12000
C 	C 	0.69390 0.95473 0.49000 0.17100
H 	H 	0.68610 0.98980 0.40320 -0.07200
C 	C 	0.70901 0.97212 0.67470 -0.24600
C 	C 	0.72030 0.91966 0.80250 0.17000
H 	H 	0.72910 0.93100 0.92600 -0.00300
Cd	Cd	0.74558 0.19930 0.66330 1.22700
Ca	Ca	0.73236 0.14023 0.13047 1.48200
O 	O 	0.67840 0.22268 0.93700 -0.51900
O 	O 	0.62309 0.23452 0.67180 -0.38200
O 	O 	0.37560 0.30775 0.66420 -0.38000
O 	O 	0.31998 0.32547 0.92440 -0.52900
O 	O 	0.75726 0.23158 0.33340 -0.59300
O 	O 	0.76508 0.30931 0.55480 -0.41700
O 	O 	0.77879 0.59056 0.10160 -0.56000
O 	O 	0.78972 0.56121 0.39900 -0.55500
C 	C 	0.62450 0.23859 0.84600 0.32600
C 	C 	0.37570 0.31281 0.83530 0.34600
C 	C 	0.56203 0.26421 0.94880 -0.00300
C 	C 	0.56326 0.27361 0.14010 -0.13400
H 	H 	0.60420 0.26510 0.20610 0.04600
C 	C 	0.50420 0.29550 0.23310 0.01400
H 	H 	0.50540 0.30140 0.36140 0.02800
C 	C 	0.44360 0.30842 0.13590 -0.12000
H 	H 	0.40370 0.32260 0.19950 0.03500
C 	C 	0.44130 0.30052 0.94410 -0.00600
C 	C 	0.50105 0.27877 0.85230 -0.03700
H 	H 	0.50020 0.27380 0.72360 0.06500
C 	C 	0.76690 0.29365 0.38690 0.41600
C 	C 	0.78630 0.54700 0.23170 0.48300
C 	C 	0.78120 0.34951 0.24880 -0.20600
C 	C 	0.79610 0.33450 0.06510 0.06100
H 	H 	0.79710 0.28830 0.02720 -0.03200
C 	C 	0.80960 0.38589 0.93580 -0.16000
H 	H 	0.82090 0.37430 0.81390 0.10100
C 	C 	0.80610 0.45473 0.99000 0.21400
H 	H 	0.81390 0.48980 0.90320 -0.06300
C 	C 	0.79099 0.47212 0.17470 -0.30100
C 	C 	0.77970 0.41966 0.30250 0.15800
H 	H 	0.77090 0.43100 0.42600 -0.01500
Cd	Cd	0.25442 0.80070 0.16330 1.22100
Ca	Ca	0.26764 0.85977 0.63047 1.49500
O 	O 	0.32160 0.77732 0.43700 -0.56100
O 	O 	0.37691 0.76548 0.17180 -0.41700
O 	O 	0.62440 0.69225 0.16420 -0.41700
O 	O 	0.68002 0.67453 0.42440 -0.56800
O 	O 	0.24274 0.76842 0.83340 -0.57700
O 	O 	0.23492 0.69069 0.05480 -0.48200
O 	O 	0.22121 0.40944 0.60160 -0.53800
O 	O 	0.21028 0.43879 0.89900 -0.53600
C 	C 	0.37550 0.76141 0.34600 0.39600
C 	C 	0.62430 0.68719 0.33530 0.41500
C 	C 	0.43797 0.73579 0.44880 -0.21300
C 	C 	0.43674 0.72639 0.64010 0.13200
H 	H 	0.39580 0.73490 0.70610 -0.02400
C 	C 	0.49580 0.70450 0.73310 -0.21400
H 	H 	0.49460 0.69860 0.86140 0.13000
C 	C 	0.55640 0.69158 0.63590 0.14600
H 	H 	0.59630 0.67740 0.69950 -0.03400
C 	C 	0.55870 0.69948 0.44410 -0.21600
C 	C 	0.49895 0.72123 0.35230 0.13500
H 	H 	0.49980 0.72620 0.22360 -0.00700
C 	C 	0.23310 0.70635 0.88690 0.49900
C 	C 	0.21370 0.45300 0.73170 0.47000
C 	C 	0.21880 0.65049 0.74880 -0.24200
C 	C 	0.20390 0.66550 0.56510 0.17500
H 	H 	0.20290 0.71170 0.52720 -0.04400
C 	C 	0.19040 0.61411 0.43580 -0.25600
H 	H 	0.17910 0.62570 0.31390 0.12000
C 	C 	0.19390 0.54527 0.49000 0.17200
H 	H 	0.18610 0.51020 0.40320 -0.07300
C 	C 	0.20901 0.52788 0.67470 -0.24700
C 	C 	0.22030 0.58034 0.80250 0.17100
H 	H 	0.22910 0.56900 0.92600 -0.00300
