data_crystal

_cell_length_a 25.21390
_cell_length_b 26.24860
_cell_length_c 26.24860
_cell_angle_alpha 120.00000
_cell_angle_beta  90.00000
_cell_angle_gamma 90.00000

_symmetry_space_group_name_	'P 1'
_symmetry_space_group_name_H-M	'P 1'

loop_
_symmetry_equiv_pos_as_xyz
  x,y,z

loop_
_atom_site_label
_atom_site_type_symbol
_atom_site_fract_x
_atom_site_fract_y
_atom_site_fract_z
_atom_site_charge
Cu	Cu	0.60340 0.92226 0.94264 0.88800
Cu	Cu	0.68509 0.41945 0.71049 0.94500
Cu	Cu	0.60340 0.02038 0.07774 0.89000
Cu	Cu	0.68509 0.29104 0.58055 0.94500
Cu	Cu	0.60340 0.05736 0.97962 0.88900
Cu	Cu	0.68509 0.28951 0.70896 0.94500
Cu	Cu	0.10340 0.07774 0.05736 0.89000
Cu	Cu	0.18509 0.58055 0.28951 0.94500
Cu	Cu	0.10340 0.97962 0.92226 0.88800
Cu	Cu	0.18509 0.70896 0.41945 0.94500
Cu	Cu	0.10340 0.94264 0.02038 0.88900
Cu	Cu	0.18509 0.71049 0.29104 0.94500
Cu	Cu	0.39660 0.97962 0.05736 0.88900
Cu	Cu	0.31491 0.70896 0.28951 0.94500
Cu	Cu	0.39660 0.94264 0.92226 0.88900
Cu	Cu	0.31491 0.71049 0.41945 0.94500
Cu	Cu	0.39660 0.07774 0.02038 0.89000
Cu	Cu	0.31491 0.58055 0.29104 0.94500
Cu	Cu	0.89660 0.02038 0.94264 0.88900
Cu	Cu	0.81491 0.29104 0.71049 0.94500
Cu	Cu	0.89660 0.05736 0.07774 0.89000
Cu	Cu	0.81491 0.28951 0.58055 0.94500
Cu	Cu	0.89660 0.92226 0.97962 0.88900
Cu	Cu	0.81491 0.41945 0.70896 0.94600
Cu	Cu	0.50000 0.00000 -0.00000 0.89500
Cu	Cu	-0.00000 0.00000 -0.00000 0.89300
H 	H 	0.54540 0.81040 0.75520 0.08300
H 	H 	0.44700 0.92750 0.71670 0.18000
H 	H 	0.46710 0.99160 0.75910 0.17100
H 	H 	0.41840 0.96670 0.77700 0.18700
H 	H 	0.50530 0.79950 0.67260 0.21000
H 	H 	0.50650 0.85600 0.66660 0.20100
H 	H 	0.45340 0.83630 0.68280 0.21500
H 	H 	0.58640 0.78210 0.80390 -0.00800
H 	H 	0.71390 0.70580 0.92570 -0.06800
H 	H 	0.62620 0.70260 0.79630 -0.01400
H 	H 	0.69000 0.86940 0.09310 0.43700
H 	H 	0.64890 0.81970 0.05560 0.47000
H 	H 	0.65150 0.87640 0.05010 0.47700
H 	H 	0.76790 0.88620 0.04390 0.42700
H 	H 	0.73070 0.89200 0.99920 0.45100
H 	H 	0.77670 0.84550 0.97600 0.46000
H 	H 	0.76270 0.80050 0.05830 0.42600
H 	H 	0.77360 0.75940 0.99090 0.45200
H 	H 	0.72410 0.74830 0.02020 0.45000
H 	H 	0.67160 0.62080 0.73980 0.08200
H 	H 	0.67310 0.51880 0.68600 0.02300
H 	H 	0.67940 0.51320 0.83610 0.02800
H 	H 	0.67790 0.61520 0.88990 0.08100
H 	H 	0.54540 0.94480 0.18960 0.08200
H 	H 	0.44700 0.78920 0.07250 0.18100
H 	H 	0.46710 0.76750 0.00840 0.17400
H 	H 	0.41840 0.81030 0.03330 0.18900
H 	H 	0.50530 0.87310 0.20050 0.21000
H 	H 	0.50650 0.81060 0.14400 0.20200
H 	H 	0.45340 0.84650 0.16370 0.21500
H 	H 	0.58640 0.02180 0.21790 -0.00700
H 	H 	0.71390 0.21990 0.29420 -0.06900
H 	H 	0.62620 0.09370 0.29740 -0.01500
H 	H 	0.69000 0.22370 0.13060 0.44700
H 	H 	0.64890 0.23590 0.18030 0.47800
H 	H 	0.65150 0.17370 0.12360 0.48600
H 	H 	0.76790 0.15770 0.11380 0.44400
H 	H 	0.73070 0.10720 0.10800 0.47100
H 	H 	0.77670 0.13050 0.15450 0.47800
H 	H 	0.76270 0.25780 0.19950 0.43700
H 	H 	0.77360 0.23150 0.24060 0.46500
H 	H 	0.72410 0.27190 0.25170 0.46000
H 	H 	0.67160 0.11900 0.37920 0.08200
H 	H 	0.67310 0.16720 0.48120 0.02300
H 	H 	0.67940 0.32290 0.48680 0.02800
H 	H 	0.67790 0.27470 0.38480 0.08100
H 	H 	0.54540 0.24480 0.05520 0.08400
H 	H 	0.44700 0.28330 0.21080 0.18000
H 	H 	0.46710 0.24090 0.23250 0.17200
H 	H 	0.41840 0.22300 0.18970 0.18700
H 	H 	0.50530 0.32740 0.12690 0.21200
H 	H 	0.50650 0.33340 0.18940 0.20300
H 	H 	0.45340 0.31720 0.15350 0.21600
H 	H 	0.58640 0.19610 0.97820 -0.00900
H 	H 	0.71390 0.07430 0.78010 -0.07000
H 	H 	0.62620 0.20370 0.90630 -0.01600
H 	H 	0.69000 0.90690 0.77630 0.44800
H 	H 	0.64890 0.94440 0.76410 0.47900
H 	H 	0.65150 0.94990 0.82630 0.48700
H 	H 	0.76790 0.95610 0.84230 0.44900
H 	H 	0.73070 0.00080 0.89280 0.47800
H 	H 	0.77670 0.02400 0.86950 0.48600
H 	H 	0.76270 0.94170 0.74220 0.44100
H 	H 	0.77360 0.00910 0.76850 0.47100
H 	H 	0.72410 0.97980 0.72810 0.46300
H 	H 	0.67160 0.26020 0.88100 0.08200
H 	H 	0.67310 0.31400 0.83280 0.02300
H 	H 	0.67940 0.16390 0.67710 0.02800
H 	H 	0.67790 0.11010 0.72530 0.08200
H 	H 	0.04540 0.18960 0.24480 0.07700
H 	H 	0.94700 0.07250 0.28330 0.19100
H 	H 	0.96710 0.00840 0.24090 0.18400
H 	H 	0.91840 0.03330 0.22300 0.19700
H 	H 	0.00530 0.20050 0.32740 0.19600
H 	H 	0.00650 0.14400 0.33340 0.18700
H 	H 	0.95340 0.16370 0.31720 0.20100
H 	H 	0.08640 0.21790 0.19610 -0.00800
H 	H 	0.21390 0.29420 0.07430 -0.07000
H 	H 	0.12620 0.29740 0.20370 -0.01600
H 	H 	0.19000 0.13060 0.90690 0.45000
H 	H 	0.14890 0.18030 0.94440 0.48100
H 	H 	0.15150 0.12360 0.94990 0.48900
H 	H 	0.26790 0.11380 0.95610 0.44900
H 	H 	0.23070 0.10800 0.00080 0.47700
H 	H 	0.27670 0.15450 0.02400 0.48500
H 	H 	0.26270 0.19950 0.94170 0.44100
H 	H 	0.27360 0.24060 0.00910 0.47000
H 	H 	0.22410 0.25170 0.97980 0.46300
H 	H 	0.17160 0.37920 0.26020 0.08200
H 	H 	0.17310 0.48120 0.31400 0.02300
H 	H 	0.17940 0.48680 0.16390 0.02800
H 	H 	0.17790 0.38480 0.11010 0.08100
H 	H 	0.04540 0.05520 0.81040 0.08400
H 	H 	0.94700 0.21080 0.92750 0.18100
H 	H 	0.96710 0.23250 0.99160 0.17300
H 	H 	0.91840 0.18970 0.96670 0.18700
H 	H 	0.00530 0.12690 0.79950 0.21100
H 	H 	0.00650 0.18940 0.85600 0.20200
H 	H 	0.95340 0.15350 0.83630 0.21500
H 	H 	0.08640 0.97820 0.78210 -0.00900
H 	H 	0.21390 0.78010 0.70580 -0.06900
H 	H 	0.12620 0.90630 0.70260 -0.01600
H 	H 	0.19000 0.77630 0.86940 0.44400
H 	H 	0.14890 0.76410 0.81970 0.47600
H 	H 	0.15150 0.82630 0.87640 0.48300
H 	H 	0.26790 0.84230 0.88620 0.44000
H 	H 	0.23070 0.89280 0.89200 0.46800
H 	H 	0.27670 0.86950 0.84550 0.47600
H 	H 	0.26270 0.74220 0.80050 0.43500
H 	H 	0.27360 0.76850 0.75940 0.46400
H 	H 	0.22410 0.72810 0.74830 0.45800
H 	H 	0.17160 0.88100 0.62080 0.08200
H 	H 	0.17310 0.83280 0.51880 0.02300
H 	H 	0.17940 0.67710 0.51320 0.02800
H 	H 	0.17790 0.72530 0.61520 0.08100
H 	H 	0.04540 0.75520 0.94480 0.07800
H 	H 	0.94700 0.71670 0.78920 0.18700
H 	H 	0.96710 0.75910 0.76750 0.17900
H 	H 	0.91840 0.77700 0.81030 0.19300
H 	H 	0.00530 0.67260 0.87310 0.20100
H 	H 	0.00650 0.66660 0.81060 0.19200
H 	H 	0.95340 0.68280 0.84650 0.20600
H 	H 	0.08640 0.80390 0.02180 -0.00800
H 	H 	0.21390 0.92570 0.21990 -0.06800
H 	H 	0.12620 0.79630 0.09370 -0.01500
H 	H 	0.19000 0.09310 0.22370 0.44000
H 	H 	0.14890 0.05560 0.23590 0.47200
H 	H 	0.15150 0.05010 0.17370 0.48000
H 	H 	0.26790 0.04390 0.15770 0.43000
H 	H 	0.23070 0.99920 0.10720 0.45500
H 	H 	0.27670 0.97600 0.13050 0.46300
H 	H 	0.26270 0.05830 0.25780 0.42800
H 	H 	0.27360 0.99090 0.23150 0.45400
H 	H 	0.22410 0.02020 0.27190 0.45200
H 	H 	0.17160 0.73980 0.11900 0.08100
H 	H 	0.17310 0.68600 0.16720 0.02300
H 	H 	0.17940 0.83610 0.32290 0.02800
H 	H 	0.17790 0.88990 0.27470 0.08100
H 	H 	0.45460 0.05520 0.24480 0.08400
H 	H 	0.55300 0.21080 0.28330 0.18000
H 	H 	0.53290 0.23250 0.24090 0.17200
H 	H 	0.58160 0.18970 0.22300 0.18700
H 	H 	0.49470 0.12690 0.32740 0.21200
H 	H 	0.49350 0.18940 0.33340 0.20300
H 	H 	0.54660 0.15350 0.31720 0.21600
H 	H 	0.41360 0.97820 0.19610 -0.00900
H 	H 	0.28610 0.78010 0.07430 -0.07000
H 	H 	0.37380 0.90630 0.20370 -0.01600
H 	H 	0.31000 0.77630 0.90690 0.44700
H 	H 	0.35110 0.76410 0.94440 0.47800
H 	H 	0.34850 0.82630 0.94990 0.48600
H 	H 	0.23210 0.84230 0.95610 0.44700
H 	H 	0.26930 0.89280 0.00080 0.47600
H 	H 	0.22330 0.86950 0.02400 0.48300
H 	H 	0.23730 0.74220 0.94170 0.43900
H 	H 	0.22640 0.76850 0.00910 0.46900
H 	H 	0.27590 0.72810 0.97980 0.46200
H 	H 	0.32840 0.88100 0.26020 0.08200
H 	H 	0.32690 0.83280 0.31400 0.02300
H 	H 	0.32060 0.67710 0.16390 0.02800
H 	H 	0.32210 0.72530 0.11010 0.08100
H 	H 	0.45460 0.75520 0.81040 0.08300
H 	H 	0.55300 0.71670 0.92750 0.18000
H 	H 	0.53290 0.75910 0.99160 0.17100
H 	H 	0.58160 0.77700 0.96670 0.18700
H 	H 	0.49470 0.67260 0.79950 0.21000
H 	H 	0.49350 0.66660 0.85600 0.20200
H 	H 	0.54660 0.68280 0.83630 0.21500
H 	H 	0.41360 0.80390 0.78210 -0.00800
H 	H 	0.28610 0.92570 0.70580 -0.06800
H 	H 	0.37380 0.79630 0.70260 -0.01400
H 	H 	0.31000 0.09310 0.86940 0.43700
H 	H 	0.35110 0.05560 0.81970 0.47000
H 	H 	0.34850 0.05010 0.87640 0.47700
H 	H 	0.23210 0.04390 0.88620 0.42800
H 	H 	0.26930 0.99920 0.89200 0.45200
H 	H 	0.22330 0.97600 0.84550 0.46100
H 	H 	0.23730 0.05830 0.80050 0.42700
H 	H 	0.22640 0.99090 0.75940 0.45300
H 	H 	0.27590 0.02020 0.74830 0.45000
H 	H 	0.32840 0.73980 0.62080 0.08200
H 	H 	0.32690 0.68600 0.51880 0.02300
H 	H 	0.32060 0.83610 0.51320 0.02800
H 	H 	0.32210 0.88990 0.61520 0.08100
H 	H 	0.45460 0.18960 0.94480 0.08200
H 	H 	0.55300 0.07250 0.78920 0.18100
H 	H 	0.53290 0.00840 0.76750 0.17400
H 	H 	0.58160 0.03330 0.81030 0.18900
H 	H 	0.49470 0.20050 0.87310 0.21100
H 	H 	0.49350 0.14400 0.81060 0.20200
H 	H 	0.54660 0.16370 0.84650 0.21500
H 	H 	0.41360 0.21790 0.02180 -0.00700
H 	H 	0.28610 0.29420 0.21990 -0.06900
H 	H 	0.37380 0.29740 0.09370 -0.01500
H 	H 	0.31000 0.13060 0.22370 0.44700
H 	H 	0.35110 0.18030 0.23590 0.47800
H 	H 	0.34850 0.12360 0.17370 0.48500
H 	H 	0.23210 0.11380 0.15770 0.44400
H 	H 	0.26930 0.10800 0.10720 0.47000
H 	H 	0.22330 0.15450 0.13050 0.47800
H 	H 	0.23730 0.19950 0.25780 0.43700
H 	H 	0.22640 0.24060 0.23150 0.46500
H 	H 	0.27590 0.25170 0.27190 0.46000
H 	H 	0.32840 0.37920 0.11900 0.08200
H 	H 	0.32690 0.48120 0.16720 0.02300
H 	H 	0.32060 0.48680 0.32290 0.02800
H 	H 	0.32210 0.38480 0.27470 0.08100
H 	H 	0.95460 0.94480 0.75520 0.08700
H 	H 	0.05300 0.78920 0.71670 0.17300
H 	H 	0.03290 0.76750 0.75910 0.16400
H 	H 	0.08160 0.81030 0.77700 0.18100
H 	H 	0.99470 0.87310 0.67260 0.22500
H 	H 	0.99350 0.81060 0.66660 0.21700
H 	H 	0.04660 0.84650 0.68280 0.22800
H 	H 	0.91360 0.02180 0.80390 -0.00800
H 	H 	0.78610 0.21990 0.92570 -0.06800
H 	H 	0.87380 0.09370 0.79630 -0.01400
H 	H 	0.81000 0.22370 0.09310 0.43900
H 	H 	0.85110 0.23590 0.05560 0.47200
H 	H 	0.84850 0.17370 0.05010 0.47900
H 	H 	0.73210 0.15770 0.04390 0.42900
H 	H 	0.76930 0.10720 0.99920 0.45400
H 	H 	0.72330 0.13050 0.97600 0.46200
H 	H 	0.73730 0.25780 0.05830 0.42800
H 	H 	0.72640 0.23150 0.99090 0.45400
H 	H 	0.77590 0.27190 0.02020 0.45100
H 	H 	0.82840 0.11900 0.73980 0.08200
H 	H 	0.82690 0.16720 0.68600 0.02300
H 	H 	0.82060 0.32290 0.83610 0.02800
H 	H 	0.82210 0.27470 0.88990 0.08100
H 	H 	0.95460 0.24480 0.18960 0.09000
H 	H 	0.05300 0.28330 0.07250 0.17100
H 	H 	0.03290 0.24090 0.00840 0.16400
H 	H 	0.08160 0.22300 0.03330 0.17900
H 	H 	0.99470 0.32740 0.20050 0.23100
H 	H 	0.99350 0.33340 0.14400 0.22300
H 	H 	0.04660 0.31720 0.16370 0.23300
H 	H 	0.91360 0.19610 0.21790 -0.00800
H 	H 	0.78610 0.07430 0.29420 -0.07000
H 	H 	0.87380 0.20370 0.29740 -0.01500
H 	H 	0.81000 0.90690 0.13060 0.45100
H 	H 	0.85110 0.94440 0.18030 0.48100
H 	H 	0.84850 0.94990 0.12360 0.48900
H 	H 	0.73210 0.95610 0.11380 0.45100
H 	H 	0.76930 0.00080 0.10800 0.48000
H 	H 	0.72330 0.02400 0.15450 0.48700
H 	H 	0.73730 0.94170 0.19950 0.44200
H 	H 	0.72640 0.00910 0.24060 0.47200
H 	H 	0.77590 0.97980 0.25170 0.46500
H 	H 	0.82840 0.26020 0.37920 0.08200
H 	H 	0.82690 0.31400 0.48120 0.02300
H 	H 	0.82060 0.16390 0.48680 0.02800
H 	H 	0.82210 0.11010 0.38480 0.08200
H 	H 	0.95460 0.81040 0.05520 0.09500
H 	H 	0.05300 0.92750 0.21080 0.16300
H 	H 	0.03290 0.99160 0.23250 0.15400
H 	H 	0.08160 0.96670 0.18970 0.17200
H 	H 	0.99470 0.79950 0.12690 0.24000
H 	H 	0.99350 0.85600 0.18940 0.23200
H 	H 	0.04660 0.83630 0.15350 0.24200
H 	H 	0.91360 0.78210 0.97820 -0.01000
H 	H 	0.78610 0.70580 0.78010 -0.06900
H 	H 	0.87380 0.70260 0.90630 -0.01500
H 	H 	0.81000 0.86940 0.77630 0.44300
H 	H 	0.85110 0.81970 0.76410 0.47500
H 	H 	0.84850 0.87640 0.82630 0.48200
H 	H 	0.73210 0.88620 0.84230 0.44000
H 	H 	0.76930 0.89200 0.89280 0.46700
H 	H 	0.72330 0.84550 0.86950 0.47600
H 	H 	0.73730 0.80050 0.74220 0.43500
H 	H 	0.72640 0.75940 0.76850 0.46400
H 	H 	0.77590 0.74830 0.72810 0.45800
H 	H 	0.82840 0.62080 0.88100 0.08200
H 	H 	0.82690 0.51880 0.83280 0.02300
H 	H 	0.82060 0.51320 0.67710 0.02800
H 	H 	0.82210 0.61520 0.72530 0.08100
C 	C 	0.53468 0.94066 0.87008 0.09100
C 	C 	0.55011 0.88218 0.83645 0.02300
C 	C 	0.53507 0.84957 0.77774 -0.17900
C 	C 	0.50459 0.87545 0.75266 0.13900
C 	C 	0.48916 0.93393 0.78630 0.06200
C 	C 	0.50420 0.96654 0.84501 -0.07500
C 	C 	0.45200 0.95710 0.75710 -0.54600
C 	C 	0.49120 0.83840 0.68770 -0.63300
C 	C 	0.59850 0.80780 0.84170 0.08400
C 	C 	0.63248 0.78362 0.86805 -0.22700
C 	C 	0.65454 0.81468 0.92398 0.32600
C 	C 	0.68505 0.78550 0.94554 -0.47600
C 	C 	0.69349 0.72528 0.91120 0.20700
C 	C 	0.67143 0.69422 0.85527 -0.16500
C 	C 	0.64092 0.72340 0.83370 0.07800
C 	C 	0.71270 0.81910 0.00650 1.05700
C 	C 	0.67200 0.84890 0.05590 -1.53700
C 	C 	0.75060 0.86500 0.00640 -1.49900
C 	C 	0.74650 0.77790 0.02030 -1.46000
C 	C 	0.67460 0.62813 0.82023 0.13000
C 	C 	0.67320 0.59924 0.75913 -0.16400
C 	C 	0.67410 0.53814 0.72684 0.08500
C 	C 	0.67780 0.53479 0.81680 0.08300
C 	C 	0.67690 0.59590 0.84907 -0.16400
C 	C 	0.53468 0.92942 0.05934 0.09100
C 	C 	0.55011 0.95427 0.11782 0.02200
C 	C 	0.53507 0.92817 0.15043 -0.17900
C 	C 	0.50459 0.87721 0.12455 0.13900
C 	C 	0.48916 0.85237 0.06607 0.06300
C 	C 	0.50420 0.87847 0.03346 -0.07100
C 	C 	0.45200 0.80000 0.04290 -0.54800
C 	C 	0.49120 0.84930 0.16160 -0.63300
C 	C 	0.59850 0.03390 0.19220 0.08500
C 	C 	0.63248 0.08443 0.21638 -0.22900
C 	C 	0.65454 0.10930 0.18532 0.33000
C 	C 	0.68505 0.16004 0.21450 -0.48300
C 	C 	0.69349 0.18592 0.27472 0.21200
C 	C 	0.67143 0.16105 0.30578 -0.16700
C 	C 	0.64092 0.11030 0.27660 0.08000
C 	C 	0.71270 0.18740 0.18090 1.08300
C 	C 	0.67200 0.20700 0.15110 -1.56600
C 	C 	0.75060 0.14140 0.13500 -1.55200
C 	C 	0.74650 0.24240 0.22210 -1.49800
C 	C 	0.67460 0.19210 0.37187 0.13100
C 	C 	0.67320 0.15989 0.40076 -0.16500
C 	C 	0.67410 0.18870 0.46186 0.08600
C 	C 	0.67780 0.28201 0.46521 0.08300
C 	C 	0.67690 0.25317 0.40410 -0.16400
C 	C 	0.53468 0.12992 0.07058 0.08900
C 	C 	0.55011 0.16355 0.04573 0.02700
C 	C 	0.53507 0.22226 0.07183 -0.18200
C 	C 	0.50459 0.24734 0.12279 0.14100
C 	C 	0.48916 0.21370 0.14763 0.06100
C 	C 	0.50420 0.15499 0.12153 -0.07200
C 	C 	0.45200 0.24290 0.20000 -0.54500
C 	C 	0.49120 0.31230 0.15070 -0.63600
C 	C 	0.59850 0.15830 0.96610 0.08600
C 	C 	0.63248 0.13195 0.91557 -0.23000
C 	C 	0.65454 0.07602 0.89070 0.33200
C 	C 	0.68505 0.05446 0.83996 -0.48500
C 	C 	0.69349 0.08880 0.81408 0.21400
C 	C 	0.67143 0.14473 0.83895 -0.16800
C 	C 	0.64092 0.16630 0.88970 0.08100
C 	C 	0.71270 0.99350 0.81260 1.09100
C 	C 	0.67200 0.94410 0.79300 -1.57300
C 	C 	0.75060 0.99360 0.85860 -1.57500
C 	C 	0.74650 0.97970 0.75760 -1.51300
C 	C 	0.67460 0.17977 0.80790 0.13100
C 	C 	0.67320 0.24087 0.84011 -0.16500
C 	C 	0.67410 0.27316 0.81130 0.08600
C 	C 	0.67780 0.18320 0.71799 0.08300
C 	C 	0.67690 0.15093 0.74683 -0.16500
C 	C 	0.03468 0.05934 0.12992 0.10100
C 	C 	0.05011 0.11782 0.16355 0.01400
C 	C 	0.03507 0.15043 0.22226 -0.16300
C 	C 	0.00459 0.12455 0.24734 0.11200
C 	C 	0.98916 0.06607 0.21370 0.09000
C 	C 	0.00420 0.03346 0.15499 -0.09400
C 	C 	0.95200 0.04290 0.24290 -0.57800
C 	C 	0.99120 0.16160 0.31230 -0.58700
C 	C 	0.09850 0.19220 0.15830 0.08400
C 	C 	0.13248 0.21638 0.13195 -0.22900
C 	C 	0.15454 0.18532 0.07602 0.33100
C 	C 	0.18505 0.21450 0.05446 -0.48600
C 	C 	0.19349 0.27472 0.08880 0.21400
C 	C 	0.17143 0.30578 0.14473 -0.16800
C 	C 	0.14092 0.27660 0.16630 0.08000
C 	C 	0.21270 0.18090 0.99350 1.09200
C 	C 	0.17200 0.15110 0.94410 -1.57600
C 	C 	0.25060 0.13500 0.99360 -1.57200
C 	C 	0.24650 0.22210 0.97970 -1.51300
C 	C 	0.17460 0.37187 0.17977 0.13100
C 	C 	0.17320 0.40076 0.24087 -0.16500
C 	C 	0.17410 0.46186 0.27316 0.08500
C 	C 	0.17780 0.46521 0.18320 0.08300
C 	C 	0.17690 0.40410 0.15093 -0.16500
C 	C 	0.03468 0.07058 0.94066 0.09200
C 	C 	0.05011 0.04573 0.88218 0.02600
C 	C 	0.03507 0.07183 0.84957 -0.18000
C 	C 	0.00459 0.12279 0.87545 0.13900
C 	C 	0.98916 0.14763 0.93393 0.06400
C 	C 	0.00420 0.12153 0.96654 -0.08000
C 	C 	0.95200 0.20000 0.95710 -0.54800
C 	C 	0.99120 0.15070 0.83840 -0.63300
C 	C 	0.09850 0.96610 0.80780 0.08500
C 	C 	0.13248 0.91557 0.78362 -0.22900
C 	C 	0.15454 0.89070 0.81468 0.33000
C 	C 	0.18505 0.83996 0.78550 -0.48200
C 	C 	0.19349 0.81408 0.72528 0.21200
C 	C 	0.17143 0.83895 0.69422 -0.16700
C 	C 	0.14092 0.88970 0.72340 0.08000
C 	C 	0.21270 0.81260 0.81910 1.07900
C 	C 	0.17200 0.79300 0.84890 -1.56000
C 	C 	0.25060 0.85860 0.86500 -1.54700
C 	C 	0.24650 0.75760 0.77790 -1.49300
C 	C 	0.17460 0.80790 0.62813 0.13000
C 	C 	0.17320 0.84011 0.59924 -0.16500
C 	C 	0.17410 0.81130 0.53814 0.08500
C 	C 	0.17780 0.71799 0.53479 0.08300
C 	C 	0.17690 0.74683 0.59590 -0.16400
C 	C 	0.03468 0.87008 0.92942 0.09700
C 	C 	0.05011 0.83645 0.95427 0.01600
C 	C 	0.03507 0.77774 0.92817 -0.16800
C 	C 	0.00459 0.75266 0.87721 0.12100
C 	C 	0.98916 0.78630 0.85237 0.07900
C 	C 	0.00420 0.84501 0.87847 -0.08600
C 	C 	0.95200 0.75710 0.80000 -0.56500
C 	C 	0.99120 0.68770 0.84930 -0.60300
C 	C 	0.09850 0.84170 0.03390 0.08300
C 	C 	0.13248 0.86805 0.08443 -0.22700
C 	C 	0.15454 0.92398 0.10930 0.32700
C 	C 	0.18505 0.94554 0.16004 -0.47800
C 	C 	0.19349 0.91120 0.18592 0.20900
C 	C 	0.17143 0.85527 0.16105 -0.16500
C 	C 	0.14092 0.83370 0.11030 0.07700
C 	C 	0.21270 0.00650 0.18740 1.06300
C 	C 	0.17200 0.05590 0.20700 -1.54400
C 	C 	0.25060 0.00640 0.14140 -1.50800
C 	C 	0.24650 0.02030 0.24240 -1.46800
C 	C 	0.17460 0.82023 0.19210 0.12900
C 	C 	0.17320 0.75913 0.15989 -0.16400
C 	C 	0.17410 0.72684 0.18870 0.08500
C 	C 	0.17780 0.81680 0.28201 0.08300
C 	C 	0.17690 0.84907 0.25317 -0.16400
C 	C 	0.46532 0.07058 0.12992 0.08900
C 	C 	0.44989 0.04573 0.16355 0.02700
C 	C 	0.46493 0.07183 0.22226 -0.18200
C 	C 	0.49541 0.12279 0.24734 0.14100
C 	C 	0.51084 0.14763 0.21370 0.06100
C 	C 	0.49580 0.12153 0.15499 -0.07200
C 	C 	0.54800 0.20000 0.24290 -0.54500
C 	C 	0.50880 0.15070 0.31230 -0.63600
C 	C 	0.40150 0.96610 0.15830 0.08600
C 	C 	0.36752 0.91557 0.13195 -0.22900
C 	C 	0.34546 0.89070 0.07602 0.33100
C 	C 	0.31495 0.83996 0.05446 -0.48400
C 	C 	0.30651 0.81408 0.08880 0.21300
C 	C 	0.32857 0.83895 0.14473 -0.16800
C 	C 	0.35908 0.88970 0.16630 0.08100
C 	C 	0.28730 0.81260 0.99350 1.08800
C 	C 	0.32800 0.79300 0.94410 -1.56900
C 	C 	0.24940 0.85860 0.99360 -1.56800
C 	C 	0.25350 0.75760 0.97970 -1.50800
C 	C 	0.32540 0.80790 0.17977 0.13100
C 	C 	0.32680 0.84011 0.24087 -0.16500
C 	C 	0.32590 0.81130 0.27316 0.08600
C 	C 	0.32220 0.71799 0.18320 0.08300
C 	C 	0.32310 0.74683 0.15093 -0.16500
C 	C 	0.46532 0.87008 0.94066 0.09100
C 	C 	0.44989 0.83645 0.88218 0.02300
C 	C 	0.46493 0.77774 0.84957 -0.17900
C 	C 	0.49541 0.75266 0.87545 0.13900
C 	C 	0.51084 0.78630 0.93393 0.06200
C 	C 	0.49580 0.84501 0.96654 -0.07500
C 	C 	0.54800 0.75710 0.95710 -0.54600
C 	C 	0.50880 0.68770 0.83840 -0.63300
C 	C 	0.40150 0.84170 0.80780 0.08400
C 	C 	0.36752 0.86805 0.78362 -0.22700
C 	C 	0.34546 0.92398 0.81468 0.32700
C 	C 	0.31495 0.94554 0.78550 -0.47600
C 	C 	0.30651 0.91120 0.72528 0.20800
C 	C 	0.32857 0.85527 0.69422 -0.16500
C 	C 	0.35908 0.83370 0.72340 0.07800
C 	C 	0.28730 0.00650 0.81910 1.05900
C 	C 	0.32800 0.05590 0.84890 -1.53900
C 	C 	0.24940 0.00640 0.86500 -1.50200
C 	C 	0.25350 0.02030 0.77790 -1.46300
C 	C 	0.32540 0.82023 0.62813 0.13000
C 	C 	0.32680 0.75913 0.59924 -0.16400
C 	C 	0.32590 0.72684 0.53814 0.08500
C 	C 	0.32220 0.81680 0.53479 0.08300
C 	C 	0.32310 0.84907 0.59590 -0.16400
C 	C 	0.46532 0.05934 0.92942 0.09000
C 	C 	0.44989 0.11782 0.95427 0.02200
C 	C 	0.46493 0.15043 0.92817 -0.17900
C 	C 	0.49541 0.12455 0.87721 0.13900
C 	C 	0.51084 0.06607 0.85237 0.06300
C 	C 	0.49580 0.03346 0.87847 -0.07000
C 	C 	0.54800 0.04290 0.80000 -0.54800
C 	C 	0.50880 0.16160 0.84930 -0.63400
C 	C 	0.40150 0.19220 0.03390 0.08500
C 	C 	0.36752 0.21638 0.08443 -0.22900
C 	C 	0.34546 0.18532 0.10930 0.33000
C 	C 	0.31495 0.21450 0.16004 -0.48300
C 	C 	0.30651 0.27472 0.18592 0.21200
C 	C 	0.32857 0.30578 0.16105 -0.16700
C 	C 	0.35908 0.27660 0.11030 0.08000
C 	C 	0.28730 0.18090 0.18740 1.08300
C 	C 	0.32800 0.15110 0.20700 -1.56500
C 	C 	0.24940 0.13500 0.14140 -1.55200
C 	C 	0.25350 0.22210 0.24240 -1.49800
C 	C 	0.32540 0.37187 0.19210 0.13100
C 	C 	0.32680 0.40076 0.15989 -0.16500
C 	C 	0.32590 0.46186 0.18870 0.08600
C 	C 	0.32220 0.46521 0.28201 0.08300
C 	C 	0.32310 0.40410 0.25317 -0.16400
C 	C 	0.96532 0.92942 0.87008 0.08300
C 	C 	0.94989 0.95427 0.83645 0.03000
C 	C 	0.96493 0.92817 0.77774 -0.19400
C 	C 	0.99541 0.87721 0.75266 0.16300
C 	C 	0.01084 0.85237 0.78630 0.04100
C 	C 	0.99580 0.87847 0.84501 -0.05800
C 	C 	0.04800 0.80000 0.75710 -0.52300
C 	C 	0.00880 0.84930 0.68770 -0.68000
C 	C 	0.90150 0.03390 0.84170 0.08500
C 	C 	0.86752 0.08443 0.86805 -0.22700
C 	C 	0.84546 0.10930 0.92398 0.32700
C 	C 	0.81495 0.16004 0.94554 -0.47800
C 	C 	0.80651 0.18592 0.91120 0.20900
C 	C 	0.82857 0.16105 0.85527 -0.16500
C 	C 	0.85908 0.11030 0.83370 0.07800
C 	C 	0.78730 0.18740 0.00650 1.06200
C 	C 	0.82800 0.20700 0.05590 -1.54200
C 	C 	0.74940 0.14140 0.00640 -1.50500
C 	C 	0.75350 0.24240 0.02030 -1.46600
C 	C 	0.82540 0.19210 0.82023 0.13000
C 	C 	0.82680 0.15989 0.75913 -0.16400
C 	C 	0.82590 0.18870 0.72684 0.08500
C 	C 	0.82220 0.28201 0.81680 0.08300
C 	C 	0.82310 0.25317 0.84907 -0.16400
C 	C 	0.96532 0.12992 0.05934 0.08100
C 	C 	0.94989 0.16355 0.11782 0.03400
C 	C 	0.96493 0.22226 0.15043 -0.20000
C 	C 	0.99541 0.24734 0.12455 0.17300
C 	C 	0.01084 0.21370 0.06607 0.03500
C 	C 	0.99580 0.15499 0.03346 -0.05400
C 	C 	0.04800 0.24290 0.04290 -0.51800
C 	C 	0.00880 0.31230 0.16160 -0.69600
C 	C 	0.90150 0.15830 0.19220 0.08700
C 	C 	0.86752 0.13195 0.21638 -0.23000
C 	C 	0.84546 0.07602 0.18532 0.33200
C 	C 	0.81495 0.05446 0.21450 -0.48700
C 	C 	0.80651 0.08880 0.27472 0.21500
C 	C 	0.82857 0.14473 0.30578 -0.16900
C 	C 	0.85908 0.16630 0.27660 0.08200
C 	C 	0.78730 0.99350 0.18090 1.09500
C 	C 	0.82800 0.94410 0.15110 -1.57800
C 	C 	0.74940 0.99360 0.13500 -1.57900
C 	C 	0.75350 0.97970 0.22210 -1.51700
C 	C 	0.82540 0.17977 0.37187 0.13200
C 	C 	0.82680 0.24087 0.40076 -0.16500
C 	C 	0.82590 0.27316 0.46186 0.08600
C 	C 	0.82220 0.18320 0.46521 0.08400
C 	C 	0.82310 0.15093 0.40410 -0.16500
C 	C 	0.96532 0.94066 0.07058 0.07400
C 	C 	0.94989 0.88218 0.04573 0.04400
C 	C 	0.96493 0.84957 0.07183 -0.21200
C 	C 	0.99541 0.87545 0.12279 0.19000
C 	C 	0.01084 0.93393 0.14763 0.01700
C 	C 	0.99580 0.96654 0.12153 -0.04400
C 	C 	0.04800 0.95710 0.20000 -0.49600
C 	C 	0.00880 0.83840 0.15070 -0.72600
C 	C 	0.90150 0.80780 0.96610 0.08700
C 	C 	0.86752 0.78362 0.91557 -0.22900
C 	C 	0.84546 0.81468 0.89070 0.33000
C 	C 	0.81495 0.78550 0.83996 -0.48200
C 	C 	0.80651 0.72528 0.81408 0.21200
C 	C 	0.82857 0.69422 0.83895 -0.16700
C 	C 	0.85908 0.72340 0.88970 0.08100
C 	C 	0.78730 0.81910 0.81260 1.07800
C 	C 	0.82800 0.84890 0.79300 -1.55800
C 	C 	0.74940 0.86500 0.85860 -1.54600
C 	C 	0.75350 0.77790 0.75760 -1.49300
C 	C 	0.82540 0.62813 0.80790 0.13100
C 	C 	0.82680 0.59924 0.84011 -0.16500
C 	C 	0.82590 0.53814 0.81130 0.08500
C 	C 	0.82220 0.53479 0.71799 0.08300
C 	C 	0.82310 0.59590 0.74683 -0.16400
S 	S 	0.58860 0.36540 0.73270 0.70100
S 	S 	0.58860 0.36730 0.63460 0.70100
S 	S 	0.58860 0.26730 0.63270 0.70100
S 	S 	0.08860 0.63460 0.26730 0.70100
S 	S 	0.08860 0.63270 0.36540 0.70100
S 	S 	0.08860 0.73270 0.36730 0.70100
S 	S 	0.41140 0.63270 0.26730 0.70100
S 	S 	0.41140 0.73270 0.36540 0.70100
S 	S 	0.41140 0.63460 0.36730 0.70100
S 	S 	0.91140 0.36730 0.73270 0.70100
S 	S 	0.91140 0.26730 0.63460 0.70100
S 	S 	0.91140 0.36540 0.63270 0.70100
S 	S 	0.75000 0.40436 0.80872 0.66200
S 	S 	0.75000 0.40436 0.59564 0.66200
S 	S 	0.75000 0.19128 0.59564 0.66200
S 	S 	0.25000 0.59564 0.19128 0.66200
S 	S 	0.25000 0.59564 0.40436 0.66200
S 	S 	0.25000 0.80872 0.40436 0.66200
N 	N 	0.67640 0.50591 0.75571 -0.19100
N 	N 	0.58316 0.86150 0.86520 -0.24500
N 	N 	0.67640 0.24980 0.49409 -0.19100
N 	N 	0.58316 0.00370 0.13850 -0.24400
N 	N 	0.67640 0.24429 0.75020 -0.19100
N 	N 	0.58316 0.13480 0.99630 -0.24700
N 	N 	0.17640 0.49409 0.24429 -0.19100
N 	N 	0.08316 0.13850 0.13480 -0.24400
N 	N 	0.17640 0.75020 0.50591 -0.19100
N 	N 	0.08316 0.99630 0.86150 -0.24800
N 	N 	0.17640 0.75571 0.24980 -0.19100
N 	N 	0.08316 0.86520 0.00370 -0.24400
N 	N 	0.32360 0.75020 0.24429 -0.19100
N 	N 	0.41684 0.99630 0.13480 -0.24700
N 	N 	0.32360 0.75571 0.50591 -0.19100
N 	N 	0.41684 0.86520 0.86150 -0.24500
N 	N 	0.32360 0.49409 0.24980 -0.19100
N 	N 	0.41684 0.13850 0.00370 -0.24400
N 	N 	0.82360 0.24980 0.75571 -0.19100
N 	N 	0.91684 0.00370 0.86520 -0.24600
N 	N 	0.82360 0.24429 0.49409 -0.19100
N 	N 	0.91684 0.13480 0.13850 -0.24700
N 	N 	0.82360 0.50591 0.75020 -0.19100
N 	N 	0.91684 0.86150 0.99630 -0.25100
O 	O 	0.55128 0.97087 0.92758 -0.48800
O 	O 	0.64611 0.87285 0.95868 -0.46700
O 	O 	0.75170 0.43030 0.76950 -0.45900
O 	O 	0.70160 0.42250 0.84430 -0.28000
O 	O 	0.62590 0.41530 0.75570 -0.39000
O 	O 	0.53650 0.38270 0.76440 -0.24600
O 	O 	0.61890 0.32390 0.74560 -0.38600
O 	O 	0.55128 0.95671 0.02913 -0.48600
O 	O 	0.64611 0.08583 0.12715 -0.46800
O 	O 	0.75170 0.33920 0.56970 -0.45900
O 	O 	0.70160 0.42180 0.57750 -0.28000
O 	O 	0.62590 0.34040 0.58470 -0.39000
O 	O 	0.53650 0.38170 0.61730 -0.24600
O 	O 	0.61890 0.42170 0.67610 -0.38600
O 	O 	0.55128 0.07242 0.04329 -0.48400
O 	O 	0.64611 0.04132 0.91417 -0.46800
O 	O 	0.75170 0.23050 0.66080 -0.45900
O 	O 	0.70160 0.15570 0.57820 -0.27900
O 	O 	0.62590 0.24430 0.65960 -0.39000
O 	O 	0.53650 0.23560 0.61830 -0.24600
O 	O 	0.61890 0.25440 0.57830 -0.38600
O 	O 	0.05128 0.02913 0.07242 -0.48800
O 	O 	0.14611 0.12715 0.04132 -0.46800
O 	O 	0.25170 0.56970 0.23050 -0.45900
O 	O 	0.20160 0.57750 0.15570 -0.28000
O 	O 	0.12590 0.58470 0.24430 -0.39000
O 	O 	0.03650 0.61730 0.23560 -0.24700
O 	O 	0.11890 0.67610 0.25440 -0.38700
O 	O 	0.05128 0.04329 0.97087 -0.48600
O 	O 	0.14611 0.91417 0.87285 -0.46800
O 	O 	0.25170 0.66080 0.43030 -0.45900
O 	O 	0.20160 0.57820 0.42250 -0.28000
O 	O 	0.12590 0.65960 0.41530 -0.39100
O 	O 	0.03650 0.61830 0.38270 -0.24700
O 	O 	0.11890 0.57830 0.32390 -0.38700
O 	O 	0.05128 0.92758 0.95671 -0.48900
O 	O 	0.14611 0.95868 0.08583 -0.46800
O 	O 	0.25170 0.76950 0.33920 -0.45900
O 	O 	0.20160 0.84430 0.42180 -0.28000
O 	O 	0.12590 0.75570 0.34040 -0.39100
O 	O 	0.03650 0.76440 0.38170 -0.24800
O 	O 	0.11890 0.74560 0.42170 -0.38700
O 	O 	0.44872 0.04329 0.07242 -0.48400
O 	O 	0.35389 0.91417 0.04132 -0.46800
O 	O 	0.24830 0.66080 0.23050 -0.45900
O 	O 	0.29840 0.57820 0.15570 -0.27900
O 	O 	0.37410 0.65960 0.24430 -0.39000
O 	O 	0.46350 0.61830 0.23560 -0.24600
O 	O 	0.38110 0.57830 0.25440 -0.38600
O 	O 	0.44872 0.92758 0.97087 -0.48800
O 	O 	0.35389 0.95868 0.87285 -0.46700
O 	O 	0.24830 0.76950 0.43030 -0.45900
O 	O 	0.29840 0.84430 0.42250 -0.28000
O 	O 	0.37410 0.75570 0.41530 -0.39000
O 	O 	0.46350 0.76440 0.38270 -0.24600
O 	O 	0.38110 0.74560 0.32390 -0.38600
O 	O 	0.44872 0.02913 0.95671 -0.48600
O 	O 	0.35389 0.12715 0.08583 -0.46800
O 	O 	0.24830 0.56970 0.33920 -0.45900
O 	O 	0.29840 0.57750 0.42180 -0.28000
O 	O 	0.37410 0.58470 0.34040 -0.39000
O 	O 	0.46350 0.61730 0.38170 -0.24600
O 	O 	0.38110 0.67610 0.42170 -0.38600
O 	O 	0.94872 0.95671 0.92758 -0.48600
O 	O 	0.85389 0.08583 0.95868 -0.46800
O 	O 	0.74830 0.33920 0.76950 -0.45900
O 	O 	0.79840 0.42180 0.84430 -0.28000
O 	O 	0.87410 0.34040 0.75570 -0.39000
O 	O 	0.96350 0.38170 0.76440 -0.24600
O 	O 	0.88110 0.42170 0.74560 -0.38600
O 	O 	0.94872 0.07242 0.02913 -0.48200
O 	O 	0.85389 0.04132 0.12715 -0.46800
O 	O 	0.74830 0.23050 0.56970 -0.45900
O 	O 	0.79840 0.15570 0.57750 -0.27900
O 	O 	0.87410 0.24430 0.58470 -0.39000
O 	O 	0.96350 0.23560 0.61730 -0.24600
O 	O 	0.88110 0.25440 0.67610 -0.38600
O 	O 	0.94872 0.97087 0.04329 -0.48100
O 	O 	0.85389 0.87285 0.91417 -0.46800
O 	O 	0.74830 0.43030 0.66080 -0.45900
O 	O 	0.79840 0.42250 0.57820 -0.27900
O 	O 	0.87410 0.41530 0.65960 -0.39000
O 	O 	0.96350 0.38270 0.61830 -0.24600
O 	O 	0.88110 0.32390 0.57830 -0.38600
O 	O 	0.63590 0.00000 -0.00000 -0.55900
O 	O 	0.13590 0.00000 -0.00000 -0.56000
O 	O 	0.36410 0.00000 -0.00000 -0.56000
O 	O 	0.86410 0.00000 -0.00000 -0.55900
O 	O 	0.69880 0.33333 0.66666 -0.50600
O 	O 	0.57800 0.33333 0.66666 -0.56700
O 	O 	0.19880 0.66667 0.33334 -0.50600
O 	O 	0.07800 0.66667 0.33334 -0.56700
O 	O 	0.30120 0.66667 0.33334 -0.50600
O 	O 	0.42200 0.66667 0.33334 -0.56700
O 	O 	0.80120 0.33333 0.66666 -0.50600
O 	O 	0.92200 0.33333 0.66666 -0.56700
