data_crystal

_cell_length_a 31.10890
_cell_length_b 31.10890
_cell_length_c 31.10890
_cell_angle_alpha 90.00000
_cell_angle_beta  90.00000
_cell_angle_gamma 90.00000

_symmetry_space_group_name_	'P 1'
_symmetry_space_group_name_H-M	'P 1'

loop_
_symmetry_equiv_pos_as_xyz
  x,y,z

loop_
_atom_site_label
_atom_site_type_symbol
_atom_site_fract_x
_atom_site_fract_y
_atom_site_fract_z
_atom_site_charge
C 	C 	0.10020 0.15430 0.31760 -0.03600
H 	H 	0.08550 0.17610 0.33160 0.06100
C 	C 	0.09040 0.14500 0.27470 -0.07400
C 	C 	0.05720 0.16970 0.25090 0.34300
O 	O 	0.04406 0.15394 0.21601 -0.41200
O 	O 	0.04437 0.20456 0.26769 -0.39600
C 	C 	0.60020 0.65430 0.81760 -0.03700
H 	H 	0.58550 0.67610 0.83160 0.06600
C 	C 	0.59040 0.64500 0.77470 -0.06800
C 	C 	0.55720 0.66970 0.75090 0.34300
O 	O 	0.54406 0.65394 0.71601 -0.40300
O 	O 	0.54437 0.70456 0.76769 -0.39000
C 	C 	0.89980 0.84570 0.31760 -0.04200
H 	H 	0.91450 0.82390 0.33160 0.07000
C 	C 	0.90960 0.85500 0.27470 -0.05900
C 	C 	0.94280 0.83030 0.25090 0.34000
O 	O 	0.95594 0.84606 0.21601 -0.38800
O 	O 	0.95563 0.79544 0.26769 -0.37700
C 	C 	0.39980 0.34570 0.81760 -0.03600
H 	H 	0.41450 0.32390 0.83160 0.06700
C 	C 	0.40960 0.35500 0.77470 -0.06700
C 	C 	0.44280 0.33030 0.75090 0.34400
O 	O 	0.45594 0.34606 0.71601 -0.40200
O 	O 	0.45563 0.29544 0.76769 -0.38900
C 	C 	0.89980 0.15430 0.68240 -0.03900
H 	H 	0.91450 0.17610 0.66840 0.07000
C 	C 	0.90960 0.14500 0.72530 -0.06300
C 	C 	0.94280 0.16970 0.74910 0.34100
O 	O 	0.95594 0.15394 0.78399 -0.39100
O 	O 	0.95563 0.20456 0.73231 -0.37800
C 	C 	0.39980 0.65430 0.18240 -0.03500
H 	H 	0.41450 0.67610 0.16840 0.06500
C 	C 	0.40960 0.64500 0.22530 -0.06800
C 	C 	0.44280 0.66970 0.24910 0.34400
O 	O 	0.45594 0.65394 0.28399 -0.40300
O 	O 	0.45563 0.70456 0.23231 -0.39000
C 	C 	0.10020 0.84570 0.68240 -0.03900
H 	H 	0.08550 0.82390 0.66840 0.06500
C 	C 	0.09040 0.85500 0.72530 -0.06700
C 	C 	0.05720 0.83030 0.74910 0.34200
O 	O 	0.04406 0.84606 0.78399 -0.40600
O 	O 	0.04437 0.79544 0.73231 -0.39400
C 	C 	0.60020 0.34570 0.18240 -0.03500
H 	H 	0.58550 0.32390 0.16840 0.06500
C 	C 	0.59040 0.35500 0.22530 -0.06800
C 	C 	0.55720 0.33030 0.24910 0.34400
O 	O 	0.54406 0.34606 0.28399 -0.40200
O 	O 	0.54437 0.29544 0.23231 -0.39000
C 	C 	0.31760 0.10020 0.15430 -0.03500
H 	H 	0.33160 0.08550 0.17610 0.06200
C 	C 	0.27470 0.09040 0.14500 -0.07300
C 	C 	0.25090 0.05720 0.16970 0.34400
O 	O 	0.21601 0.04406 0.15394 -0.41100
O 	O 	0.26769 0.04437 0.20456 -0.39500
C 	C 	0.81760 0.60020 0.65430 -0.03600
H 	H 	0.83160 0.58550 0.67610 0.06700
C 	C 	0.77470 0.59040 0.64500 -0.06700
C 	C 	0.75090 0.55720 0.66970 0.34400
O 	O 	0.71601 0.54406 0.65394 -0.40200
O 	O 	0.76769 0.54437 0.70456 -0.38900
C 	C 	0.31760 0.89980 0.84570 -0.04100
H 	H 	0.33160 0.91450 0.82390 0.07100
C 	C 	0.27470 0.90960 0.85500 -0.05800
C 	C 	0.25090 0.94280 0.83030 0.34000
O 	O 	0.21601 0.95594 0.84606 -0.38800
O 	O 	0.26769 0.95563 0.79544 -0.37700
C 	C 	0.81760 0.39980 0.34570 -0.03600
H 	H 	0.83160 0.41450 0.32390 0.06700
C 	C 	0.77470 0.40960 0.35500 -0.06700
C 	C 	0.75090 0.44280 0.33030 0.34400
O 	O 	0.71601 0.45594 0.34606 -0.40200
O 	O 	0.76769 0.45563 0.29544 -0.38900
C 	C 	0.68240 0.89980 0.15430 -0.03900
H 	H 	0.66840 0.91450 0.17610 0.07000
C 	C 	0.72530 0.90960 0.14500 -0.06300
C 	C 	0.74910 0.94280 0.16970 0.34100
O 	O 	0.78399 0.95594 0.15394 -0.39100
O 	O 	0.73231 0.95563 0.20456 -0.37800
C 	C 	0.18240 0.39980 0.65430 -0.03500
H 	H 	0.16840 0.41450 0.67610 0.06500
C 	C 	0.22530 0.40960 0.64500 -0.06800
C 	C 	0.24910 0.44280 0.66970 0.34400
O 	O 	0.28399 0.45594 0.65394 -0.40300
O 	O 	0.23231 0.45563 0.70456 -0.39000
C 	C 	0.68240 0.10020 0.84570 -0.03900
H 	H 	0.66840 0.08550 0.82390 0.06500
C 	C 	0.72530 0.09040 0.85500 -0.06700
C 	C 	0.74910 0.05720 0.83030 0.34200
O 	O 	0.78399 0.04406 0.84606 -0.40600
O 	O 	0.73231 0.04437 0.79544 -0.39400
C 	C 	0.18240 0.60020 0.34570 -0.03500
H 	H 	0.16840 0.58550 0.32390 0.06500
C 	C 	0.22530 0.59040 0.35500 -0.06800
C 	C 	0.24910 0.55720 0.33030 0.34400
O 	O 	0.28399 0.54406 0.34606 -0.40200
O 	O 	0.23231 0.54437 0.29544 -0.39000
C 	C 	0.15430 0.31760 0.10020 -0.03500
H 	H 	0.17610 0.33160 0.08550 0.06200
C 	C 	0.14500 0.27470 0.09040 -0.07300
C 	C 	0.16970 0.25090 0.05720 0.34400
O 	O 	0.15394 0.21601 0.04406 -0.41100
O 	O 	0.20456 0.26769 0.04437 -0.39500
C 	C 	0.65430 0.81760 0.60020 -0.03600
H 	H 	0.67610 0.83160 0.58550 0.06700
C 	C 	0.64500 0.77470 0.59040 -0.06700
C 	C 	0.66970 0.75090 0.55720 0.34400
O 	O 	0.65394 0.71601 0.54406 -0.40200
O 	O 	0.70456 0.76769 0.54437 -0.38900
C 	C 	0.84570 0.31760 0.89980 -0.04100
H 	H 	0.82390 0.33160 0.91450 0.07100
C 	C 	0.85500 0.27470 0.90960 -0.05800
C 	C 	0.83030 0.25090 0.94280 0.34000
O 	O 	0.84606 0.21601 0.95594 -0.38800
O 	O 	0.79544 0.26769 0.95563 -0.37700
C 	C 	0.34570 0.81760 0.39980 -0.03600
H 	H 	0.32390 0.83160 0.41450 0.06700
C 	C 	0.35500 0.77470 0.40960 -0.06700
C 	C 	0.33030 0.75090 0.44280 0.34400
O 	O 	0.34606 0.71601 0.45594 -0.40200
O 	O 	0.29544 0.76769 0.45563 -0.38900
C 	C 	0.15430 0.68240 0.89980 -0.03900
H 	H 	0.17610 0.66840 0.91450 0.07000
C 	C 	0.14500 0.72530 0.90960 -0.06300
C 	C 	0.16970 0.74910 0.94280 0.34100
O 	O 	0.15394 0.78399 0.95594 -0.39100
O 	O 	0.20456 0.73231 0.95563 -0.37800
C 	C 	0.65430 0.18240 0.39980 -0.03500
H 	H 	0.67610 0.16840 0.41450 0.06500
C 	C 	0.64500 0.22530 0.40960 -0.06800
C 	C 	0.66970 0.24910 0.44280 0.34400
O 	O 	0.65394 0.28399 0.45594 -0.40300
O 	O 	0.70456 0.23231 0.45563 -0.39000
C 	C 	0.84570 0.68240 0.10020 -0.03900
H 	H 	0.82390 0.66840 0.08550 0.06500
C 	C 	0.85500 0.72530 0.09040 -0.06700
C 	C 	0.83030 0.74910 0.05720 0.34200
O 	O 	0.84606 0.78399 0.04406 -0.40600
O 	O 	0.79544 0.73231 0.04437 -0.39400
C 	C 	0.34570 0.18240 0.60020 -0.03500
H 	H 	0.32390 0.16840 0.58550 0.06500
C 	C 	0.35500 0.22530 0.59040 -0.06800
C 	C 	0.33030 0.24910 0.55720 0.34400
O 	O 	0.34606 0.28399 0.54406 -0.40200
O 	O 	0.29544 0.23231 0.54437 -0.39000
C 	C 	0.15430 0.10020 0.68240 -0.03600
H 	H 	0.17610 0.08550 0.66840 0.06300
C 	C 	0.14500 0.09040 0.72530 -0.07200
C 	C 	0.16970 0.05720 0.74910 0.34400
O 	O 	0.15394 0.04406 0.78399 -0.41000
O 	O 	0.20456 0.04437 0.73231 -0.39500
C 	C 	0.65430 0.60020 0.18240 -0.03600
H 	H 	0.67610 0.58550 0.16840 0.06500
C 	C 	0.64500 0.59040 0.22530 -0.06800
C 	C 	0.66970 0.55720 0.24910 0.34400
O 	O 	0.65394 0.54406 0.28399 -0.40300
O 	O 	0.70456 0.54437 0.23231 -0.39000
C 	C 	0.84570 0.89980 0.68240 -0.04200
H 	H 	0.82390 0.91450 0.66840 0.07200
C 	C 	0.85500 0.90960 0.72530 -0.05700
C 	C 	0.83030 0.94280 0.74910 0.34000
O 	O 	0.84606 0.95594 0.78399 -0.38700
O 	O 	0.79544 0.95563 0.73231 -0.37700
C 	C 	0.34570 0.39980 0.18240 -0.03500
H 	H 	0.32390 0.41450 0.16840 0.06500
C 	C 	0.35500 0.40960 0.22530 -0.06800
C 	C 	0.33030 0.44280 0.24910 0.34400
O 	O 	0.34606 0.45594 0.28399 -0.40200
O 	O 	0.29544 0.45563 0.23231 -0.39000
C 	C 	0.15430 0.89980 0.31760 -0.03800
H 	H 	0.17610 0.91450 0.33160 0.06900
C 	C 	0.14500 0.90960 0.27470 -0.06400
C 	C 	0.16970 0.94280 0.25090 0.34200
O 	O 	0.15394 0.95594 0.21601 -0.39200
O 	O 	0.20456 0.95563 0.26769 -0.37800
C 	C 	0.65430 0.39980 0.81760 -0.03600
H 	H 	0.67610 0.41450 0.83160 0.06700
C 	C 	0.64500 0.40960 0.77470 -0.06700
C 	C 	0.66970 0.44280 0.75090 0.34400
O 	O 	0.65394 0.45594 0.71601 -0.40200
O 	O 	0.70456 0.45563 0.76769 -0.38900
C 	C 	0.84570 0.10020 0.31760 -0.03800
H 	H 	0.82390 0.08550 0.33160 0.06400
C 	C 	0.85500 0.09040 0.27470 -0.06800
C 	C 	0.83030 0.05720 0.25090 0.34300
O 	O 	0.84606 0.04406 0.21601 -0.40700
O 	O 	0.79544 0.04437 0.26769 -0.39400
C 	C 	0.34570 0.60020 0.81760 -0.03600
H 	H 	0.32390 0.58550 0.83160 0.06700
C 	C 	0.35500 0.59040 0.77470 -0.06700
C 	C 	0.33030 0.55720 0.75090 0.34400
O 	O 	0.34606 0.54406 0.71601 -0.40200
O 	O 	0.29544 0.54437 0.76769 -0.38900
C 	C 	0.10020 0.31760 0.84570 -0.03800
H 	H 	0.08550 0.33160 0.82390 0.06400
C 	C 	0.09040 0.27470 0.85500 -0.06800
C 	C 	0.05720 0.25090 0.83030 0.34300
O 	O 	0.04406 0.21601 0.84606 -0.40700
O 	O 	0.04437 0.26769 0.79544 -0.39400
C 	C 	0.60020 0.81760 0.34570 -0.03600
H 	H 	0.58550 0.83160 0.32390 0.06700
C 	C 	0.59040 0.77470 0.35500 -0.06700
C 	C 	0.55720 0.75090 0.33030 0.34400
O 	O 	0.54406 0.71601 0.34606 -0.40200
O 	O 	0.54437 0.76769 0.29544 -0.38900
C 	C 	0.89980 0.31760 0.15430 -0.03800
H 	H 	0.91450 0.33160 0.17610 0.06900
C 	C 	0.90960 0.27470 0.14500 -0.06400
C 	C 	0.94280 0.25090 0.16970 0.34200
O 	O 	0.95594 0.21601 0.15394 -0.39200
O 	O 	0.95563 0.26769 0.20456 -0.37800
C 	C 	0.39980 0.81760 0.65430 -0.03600
H 	H 	0.41450 0.83160 0.67610 0.06700
C 	C 	0.40960 0.77470 0.64500 -0.06700
C 	C 	0.44280 0.75090 0.66970 0.34400
O 	O 	0.45594 0.71601 0.65394 -0.40200
O 	O 	0.45563 0.76769 0.70456 -0.38900
C 	C 	0.89980 0.68240 0.84570 -0.04200
H 	H 	0.91450 0.66840 0.82390 0.07200
C 	C 	0.90960 0.72530 0.85500 -0.05700
C 	C 	0.94280 0.74910 0.83030 0.34000
O 	O 	0.95594 0.78399 0.84606 -0.38700
O 	O 	0.95563 0.73231 0.79544 -0.37700
C 	C 	0.39980 0.18240 0.34570 -0.03500
H 	H 	0.41450 0.16840 0.32390 0.06500
C 	C 	0.40960 0.22530 0.35500 -0.06800
C 	C 	0.44280 0.24910 0.33030 0.34400
O 	O 	0.45594 0.28399 0.34606 -0.40200
O 	O 	0.45563 0.23231 0.29544 -0.39000
C 	C 	0.10020 0.68240 0.15430 -0.03600
H 	H 	0.08550 0.66840 0.17610 0.06300
C 	C 	0.09040 0.72530 0.14500 -0.07200
C 	C 	0.05720 0.74910 0.16970 0.34400
O 	O 	0.04406 0.78399 0.15394 -0.41000
O 	O 	0.04437 0.73231 0.20456 -0.39500
C 	C 	0.60020 0.18240 0.65430 -0.03600
H 	H 	0.58550 0.16840 0.67610 0.06500
C 	C 	0.59040 0.22530 0.64500 -0.06800
C 	C 	0.55720 0.24910 0.66970 0.34400
O 	O 	0.54406 0.28399 0.65394 -0.40300
O 	O 	0.54437 0.23231 0.70456 -0.39000
C 	C 	0.31760 0.15430 0.89980 -0.03800
H 	H 	0.33160 0.17610 0.91450 0.06900
C 	C 	0.27470 0.14500 0.90960 -0.06400
C 	C 	0.25090 0.16970 0.94280 0.34200
O 	O 	0.21601 0.15394 0.95594 -0.39200
O 	O 	0.26769 0.20456 0.95563 -0.37800
C 	C 	0.81760 0.65430 0.39980 -0.03600
H 	H 	0.83160 0.67610 0.41450 0.06700
C 	C 	0.77470 0.64500 0.40960 -0.06700
C 	C 	0.75090 0.66970 0.44280 0.34400
O 	O 	0.71601 0.65394 0.45594 -0.40200
O 	O 	0.76769 0.70456 0.45563 -0.38900
C 	C 	0.31760 0.84570 0.10020 -0.03800
H 	H 	0.33160 0.82390 0.08550 0.06400
C 	C 	0.27470 0.85500 0.09040 -0.06800
C 	C 	0.25090 0.83030 0.05720 0.34300
O 	O 	0.21601 0.84606 0.04406 -0.40700
O 	O 	0.26769 0.79544 0.04437 -0.39400
C 	C 	0.81760 0.34570 0.60020 -0.03600
H 	H 	0.83160 0.32390 0.58550 0.06700
C 	C 	0.77470 0.35500 0.59040 -0.06700
C 	C 	0.75090 0.33030 0.55720 0.34400
O 	O 	0.71601 0.34606 0.54406 -0.40200
O 	O 	0.76769 0.29544 0.54437 -0.38900
C 	C 	0.68240 0.15430 0.10020 -0.03600
H 	H 	0.66840 0.17610 0.08550 0.06300
C 	C 	0.72530 0.14500 0.09040 -0.07200
C 	C 	0.74910 0.16970 0.05720 0.34400
O 	O 	0.78399 0.15394 0.04406 -0.41000
O 	O 	0.73231 0.20456 0.04437 -0.39500
C 	C 	0.18240 0.65430 0.60020 -0.03600
H 	H 	0.16840 0.67610 0.58550 0.06500
C 	C 	0.22530 0.64500 0.59040 -0.06800
C 	C 	0.24910 0.66970 0.55720 0.34400
O 	O 	0.28399 0.65394 0.54406 -0.40300
O 	O 	0.23231 0.70456 0.54437 -0.39000
C 	C 	0.68240 0.84570 0.89980 -0.04200
H 	H 	0.66840 0.82390 0.91450 0.07200
C 	C 	0.72530 0.85500 0.90960 -0.05700
C 	C 	0.74910 0.83030 0.94280 0.34000
O 	O 	0.78399 0.84606 0.95594 -0.38700
O 	O 	0.73231 0.79544 0.95563 -0.37700
C 	C 	0.18240 0.34570 0.39980 -0.03500
H 	H 	0.16840 0.32390 0.41450 0.06500
C 	C 	0.22530 0.35500 0.40960 -0.06800
C 	C 	0.24910 0.33030 0.44280 0.34400
O 	O 	0.28399 0.34606 0.45594 -0.40200
O 	O 	0.23231 0.29544 0.45563 -0.39000
C 	C 	0.89980 0.84570 0.68240 -0.04200
H 	H 	0.91450 0.82390 0.66840 0.07200
C 	C 	0.90960 0.85500 0.72530 -0.05700
C 	C 	0.94280 0.83030 0.74910 0.34000
O 	O 	0.95594 0.84606 0.78399 -0.38700
O 	O 	0.95563 0.79544 0.73231 -0.37700
C 	C 	0.39980 0.34570 0.18240 -0.03500
H 	H 	0.41450 0.32390 0.16840 0.06500
C 	C 	0.40960 0.35500 0.22530 -0.06800
C 	C 	0.44280 0.33030 0.24910 0.34400
O 	O 	0.45594 0.34606 0.28399 -0.40200
O 	O 	0.45563 0.29544 0.23231 -0.39000
C 	C 	0.10020 0.15430 0.68240 -0.03600
H 	H 	0.08550 0.17610 0.66840 0.06300
C 	C 	0.09040 0.14500 0.72530 -0.07200
C 	C 	0.05720 0.16970 0.74910 0.34400
O 	O 	0.04406 0.15394 0.78399 -0.41000
O 	O 	0.04437 0.20456 0.73231 -0.39500
C 	C 	0.60020 0.65430 0.18240 -0.03600
H 	H 	0.58550 0.67610 0.16840 0.06500
C 	C 	0.59040 0.64500 0.22530 -0.06800
C 	C 	0.55720 0.66970 0.24910 0.34400
O 	O 	0.54406 0.65394 0.28399 -0.40300
O 	O 	0.54437 0.70456 0.23231 -0.39000
C 	C 	0.10020 0.84570 0.31760 -0.03800
H 	H 	0.08550 0.82390 0.33160 0.06400
C 	C 	0.09040 0.85500 0.27470 -0.06800
C 	C 	0.05720 0.83030 0.25090 0.34300
O 	O 	0.04406 0.84606 0.21601 -0.40700
O 	O 	0.04437 0.79544 0.26769 -0.39400
C 	C 	0.60020 0.34570 0.81760 -0.03600
H 	H 	0.58550 0.32390 0.83160 0.06700
C 	C 	0.59040 0.35500 0.77470 -0.06700
C 	C 	0.55720 0.33030 0.75090 0.34400
O 	O 	0.54406 0.34606 0.71601 -0.40200
O 	O 	0.54437 0.29544 0.76769 -0.38900
C 	C 	0.89980 0.15430 0.31760 -0.03800
H 	H 	0.91450 0.17610 0.33160 0.06900
C 	C 	0.90960 0.14500 0.27470 -0.06400
C 	C 	0.94280 0.16970 0.25090 0.34200
O 	O 	0.95594 0.15394 0.21601 -0.39200
O 	O 	0.95563 0.20456 0.26769 -0.37800
C 	C 	0.39980 0.65430 0.81760 -0.03600
H 	H 	0.41450 0.67610 0.83160 0.06700
C 	C 	0.40960 0.64500 0.77470 -0.06700
C 	C 	0.44280 0.66970 0.75090 0.34400
O 	O 	0.45594 0.65394 0.71601 -0.40200
O 	O 	0.45563 0.70456 0.76769 -0.38900
C 	C 	0.68240 0.89980 0.84570 -0.04200
H 	H 	0.66840 0.91450 0.82390 0.07200
C 	C 	0.72530 0.90960 0.85500 -0.05700
C 	C 	0.74910 0.94280 0.83030 0.34000
O 	O 	0.78399 0.95594 0.84606 -0.38700
O 	O 	0.73231 0.95563 0.79544 -0.37700
C 	C 	0.18240 0.39980 0.34570 -0.03500
H 	H 	0.16840 0.41450 0.32390 0.06500
C 	C 	0.22530 0.40960 0.35500 -0.06800
C 	C 	0.24910 0.44280 0.33030 0.34400
O 	O 	0.28399 0.45594 0.34606 -0.40200
O 	O 	0.23231 0.45563 0.29544 -0.39000
C 	C 	0.68240 0.10020 0.15430 -0.03600
H 	H 	0.66840 0.08550 0.17610 0.06300
C 	C 	0.72530 0.09040 0.14500 -0.07200
C 	C 	0.74910 0.05720 0.16970 0.34400
O 	O 	0.78399 0.04406 0.15394 -0.41000
O 	O 	0.73231 0.04437 0.20456 -0.39500
C 	C 	0.18240 0.60020 0.65430 -0.03600
H 	H 	0.16840 0.58550 0.67610 0.06500
C 	C 	0.22530 0.59040 0.64500 -0.06800
C 	C 	0.24910 0.55720 0.66970 0.34400
O 	O 	0.28399 0.54406 0.65394 -0.40300
O 	O 	0.23231 0.54437 0.70456 -0.39000
C 	C 	0.31760 0.10020 0.84570 -0.03800
H 	H 	0.33160 0.08550 0.82390 0.06400
C 	C 	0.27470 0.09040 0.85500 -0.06800
C 	C 	0.25090 0.05720 0.83030 0.34300
O 	O 	0.21601 0.04406 0.84606 -0.40700
O 	O 	0.26769 0.04437 0.79544 -0.39400
C 	C 	0.81760 0.60020 0.34570 -0.03600
H 	H 	0.83160 0.58550 0.32390 0.06700
C 	C 	0.77470 0.59040 0.35500 -0.06700
C 	C 	0.75090 0.55720 0.33030 0.34400
O 	O 	0.71601 0.54406 0.34606 -0.40200
O 	O 	0.76769 0.54437 0.29544 -0.38900
C 	C 	0.31760 0.89980 0.15430 -0.03800
H 	H 	0.33160 0.91450 0.17610 0.06900
C 	C 	0.27470 0.90960 0.14500 -0.06400
C 	C 	0.25090 0.94280 0.16970 0.34200
O 	O 	0.21601 0.95594 0.15394 -0.39200
O 	O 	0.26769 0.95563 0.20456 -0.37800
C 	C 	0.81760 0.39980 0.65430 -0.03600
H 	H 	0.83160 0.41450 0.67610 0.06700
C 	C 	0.77470 0.40960 0.64500 -0.06700
C 	C 	0.75090 0.44280 0.66970 0.34400
O 	O 	0.71601 0.45594 0.65394 -0.40200
O 	O 	0.76769 0.45563 0.70456 -0.38900
C 	C 	0.84570 0.68240 0.89980 -0.04200
H 	H 	0.82390 0.66840 0.91450 0.07200
C 	C 	0.85500 0.72530 0.90960 -0.05700
C 	C 	0.83030 0.74910 0.94280 0.34000
O 	O 	0.84606 0.78399 0.95594 -0.38700
O 	O 	0.79544 0.73231 0.95563 -0.37700
C 	C 	0.34570 0.18240 0.39980 -0.03500
H 	H 	0.32390 0.16840 0.41450 0.06500
C 	C 	0.35500 0.22530 0.40960 -0.06800
C 	C 	0.33030 0.24910 0.44280 0.34400
O 	O 	0.34606 0.28399 0.45594 -0.40200
O 	O 	0.29544 0.23231 0.45563 -0.39000
C 	C 	0.15430 0.68240 0.10020 -0.03600
H 	H 	0.17610 0.66840 0.08550 0.06300
C 	C 	0.14500 0.72530 0.09040 -0.07200
C 	C 	0.16970 0.74910 0.05720 0.34400
O 	O 	0.15394 0.78399 0.04406 -0.41000
O 	O 	0.20456 0.73231 0.04437 -0.39500
C 	C 	0.65430 0.18240 0.60020 -0.03600
H 	H 	0.67610 0.16840 0.58550 0.06500
C 	C 	0.64500 0.22530 0.59040 -0.06800
C 	C 	0.66970 0.24910 0.55720 0.34400
O 	O 	0.65394 0.28399 0.54406 -0.40300
O 	O 	0.70456 0.23231 0.54437 -0.39000
C 	C 	0.84570 0.31760 0.10020 -0.03800
H 	H 	0.82390 0.33160 0.08550 0.06400
C 	C 	0.85500 0.27470 0.09040 -0.06800
C 	C 	0.83030 0.25090 0.05720 0.34300
O 	O 	0.84606 0.21601 0.04406 -0.40700
O 	O 	0.79544 0.26769 0.04437 -0.39400
C 	C 	0.34570 0.81760 0.60020 -0.03600
H 	H 	0.32390 0.83160 0.58550 0.06700
C 	C 	0.35500 0.77470 0.59040 -0.06700
C 	C 	0.33030 0.75090 0.55720 0.34400
O 	O 	0.34606 0.71601 0.54406 -0.40200
O 	O 	0.29544 0.76769 0.54437 -0.38900
C 	C 	0.15430 0.31760 0.89980 -0.03800
H 	H 	0.17610 0.33160 0.91450 0.06900
C 	C 	0.14500 0.27470 0.90960 -0.06400
C 	C 	0.16970 0.25090 0.94280 0.34200
O 	O 	0.15394 0.21601 0.95594 -0.39200
O 	O 	0.20456 0.26769 0.95563 -0.37800
C 	C 	0.65430 0.81760 0.39980 -0.03600
H 	H 	0.67610 0.83160 0.41450 0.06700
C 	C 	0.64500 0.77470 0.40960 -0.06700
C 	C 	0.66970 0.75090 0.44280 0.34400
O 	O 	0.65394 0.71601 0.45594 -0.40200
O 	O 	0.70456 0.76769 0.45563 -0.38900
C 	C 	0.84570 0.89980 0.31760 -0.04100
H 	H 	0.82390 0.91450 0.33160 0.07100
C 	C 	0.85500 0.90960 0.27470 -0.05800
C 	C 	0.83030 0.94280 0.25090 0.34000
O 	O 	0.84606 0.95594 0.21601 -0.38800
O 	O 	0.79544 0.95563 0.26769 -0.37700
C 	C 	0.34570 0.39980 0.81760 -0.03600
H 	H 	0.32390 0.41450 0.83160 0.06700
C 	C 	0.35500 0.40960 0.77470 -0.06700
C 	C 	0.33030 0.44280 0.75090 0.34400
O 	O 	0.34606 0.45594 0.71601 -0.40200
O 	O 	0.29544 0.45563 0.76769 -0.38900
C 	C 	0.15430 0.10020 0.31760 -0.03500
H 	H 	0.17610 0.08550 0.33160 0.06200
C 	C 	0.14500 0.09040 0.27470 -0.07300
C 	C 	0.16970 0.05720 0.25090 0.34400
O 	O 	0.15394 0.04406 0.21601 -0.41100
O 	O 	0.20456 0.04437 0.26769 -0.39500
C 	C 	0.65430 0.60020 0.81760 -0.03600
H 	H 	0.67610 0.58550 0.83160 0.06700
C 	C 	0.64500 0.59040 0.77470 -0.06700
C 	C 	0.66970 0.55720 0.75090 0.34400
O 	O 	0.65394 0.54406 0.71601 -0.40200
O 	O 	0.70456 0.54437 0.76769 -0.38900
C 	C 	0.84570 0.10020 0.68240 -0.03900
H 	H 	0.82390 0.08550 0.66840 0.06500
C 	C 	0.85500 0.09040 0.72530 -0.06700
C 	C 	0.83030 0.05720 0.74910 0.34200
O 	O 	0.84606 0.04406 0.78399 -0.40600
O 	O 	0.79544 0.04437 0.73231 -0.39400
C 	C 	0.34570 0.60020 0.18240 -0.03500
H 	H 	0.32390 0.58550 0.16840 0.06500
C 	C 	0.35500 0.59040 0.22530 -0.06800
C 	C 	0.33030 0.55720 0.24910 0.34400
O 	O 	0.34606 0.54406 0.28399 -0.40200
O 	O 	0.29544 0.54437 0.23231 -0.39000
C 	C 	0.15430 0.89980 0.68240 -0.03900
H 	H 	0.17610 0.91450 0.66840 0.07000
C 	C 	0.14500 0.90960 0.72530 -0.06300
C 	C 	0.16970 0.94280 0.74910 0.34100
O 	O 	0.15394 0.95594 0.78399 -0.39100
O 	O 	0.20456 0.95563 0.73231 -0.37800
C 	C 	0.65430 0.39980 0.18240 -0.03500
H 	H 	0.67610 0.41450 0.16840 0.06500
C 	C 	0.64500 0.40960 0.22530 -0.06800
C 	C 	0.66970 0.44280 0.24910 0.34400
O 	O 	0.65394 0.45594 0.28399 -0.40300
O 	O 	0.70456 0.45563 0.23231 -0.39000
C 	C 	0.89980 0.68240 0.15430 -0.03900
H 	H 	0.91450 0.66840 0.17610 0.07000
C 	C 	0.90960 0.72530 0.14500 -0.06300
C 	C 	0.94280 0.74910 0.16970 0.34100
O 	O 	0.95594 0.78399 0.15394 -0.39100
O 	O 	0.95563 0.73231 0.20456 -0.37800
C 	C 	0.39980 0.18240 0.65430 -0.03500
H 	H 	0.41450 0.16840 0.67610 0.06500
C 	C 	0.40960 0.22530 0.64500 -0.06800
C 	C 	0.44280 0.24910 0.66970 0.34400
O 	O 	0.45594 0.28399 0.65394 -0.40300
O 	O 	0.45563 0.23231 0.70456 -0.39000
C 	C 	0.10020 0.68240 0.84570 -0.03900
H 	H 	0.08550 0.66840 0.82390 0.06500
C 	C 	0.09040 0.72530 0.85500 -0.06700
C 	C 	0.05720 0.74910 0.83030 0.34200
O 	O 	0.04406 0.78399 0.84606 -0.40600
O 	O 	0.04437 0.73231 0.79544 -0.39400
C 	C 	0.60020 0.18240 0.34570 -0.03500
H 	H 	0.58550 0.16840 0.32390 0.06500
C 	C 	0.59040 0.22530 0.35500 -0.06800
C 	C 	0.55720 0.24910 0.33030 0.34400
O 	O 	0.54406 0.28399 0.34606 -0.40200
O 	O 	0.54437 0.23231 0.29544 -0.39000
C 	C 	0.10020 0.31760 0.15430 -0.03500
H 	H 	0.08550 0.33160 0.17610 0.06200
C 	C 	0.09040 0.27470 0.14500 -0.07300
C 	C 	0.05720 0.25090 0.16970 0.34400
O 	O 	0.04406 0.21601 0.15394 -0.41100
O 	O 	0.04437 0.26769 0.20456 -0.39500
C 	C 	0.60020 0.81760 0.65430 -0.03600
H 	H 	0.58550 0.83160 0.67610 0.06700
C 	C 	0.59040 0.77470 0.64500 -0.06700
C 	C 	0.55720 0.75090 0.66970 0.34400
O 	O 	0.54406 0.71601 0.65394 -0.40200
O 	O 	0.54437 0.76769 0.70456 -0.38900
C 	C 	0.89980 0.31760 0.84570 -0.04100
H 	H 	0.91450 0.33160 0.82390 0.07100
C 	C 	0.90960 0.27470 0.85500 -0.05800
C 	C 	0.94280 0.25090 0.83030 0.34000
O 	O 	0.95594 0.21601 0.84606 -0.38800
O 	O 	0.95563 0.26769 0.79544 -0.37700
C 	C 	0.39980 0.81760 0.34570 -0.03600
H 	H 	0.41450 0.83160 0.32390 0.06700
C 	C 	0.40960 0.77470 0.35500 -0.06700
C 	C 	0.44280 0.75090 0.33030 0.34400
O 	O 	0.45594 0.71601 0.34606 -0.40200
O 	O 	0.45563 0.76769 0.29544 -0.38900
C 	C 	0.68240 0.84570 0.10020 -0.03900
H 	H 	0.66840 0.82390 0.08550 0.06500
C 	C 	0.72530 0.85500 0.09040 -0.06700
C 	C 	0.74910 0.83030 0.05720 0.34200
O 	O 	0.78399 0.84606 0.04406 -0.40600
O 	O 	0.73231 0.79544 0.04437 -0.39400
C 	C 	0.18240 0.34570 0.60020 -0.03500
H 	H 	0.16840 0.32390 0.58550 0.06500
C 	C 	0.22530 0.35500 0.59040 -0.06800
C 	C 	0.24910 0.33030 0.55720 0.34400
O 	O 	0.28399 0.34606 0.54406 -0.40200
O 	O 	0.23231 0.29544 0.54437 -0.39000
C 	C 	0.68240 0.15430 0.89980 -0.03900
H 	H 	0.66840 0.17610 0.91450 0.07000
C 	C 	0.72530 0.14500 0.90960 -0.06300
C 	C 	0.74910 0.16970 0.94280 0.34100
O 	O 	0.78399 0.15394 0.95594 -0.39100
O 	O 	0.73231 0.20456 0.95563 -0.37800
C 	C 	0.18240 0.65430 0.39980 -0.03500
H 	H 	0.16840 0.67610 0.41450 0.06500
C 	C 	0.22530 0.64500 0.40960 -0.06800
C 	C 	0.24910 0.66970 0.44280 0.34400
O 	O 	0.28399 0.65394 0.45594 -0.40300
O 	O 	0.23231 0.70456 0.45563 -0.39000
C 	C 	0.31760 0.84570 0.89980 -0.04100
H 	H 	0.33160 0.82390 0.91450 0.07100
C 	C 	0.27470 0.85500 0.90960 -0.05800
C 	C 	0.25090 0.83030 0.94280 0.34000
O 	O 	0.21601 0.84606 0.95594 -0.38800
O 	O 	0.26769 0.79544 0.95563 -0.37700
C 	C 	0.81760 0.34570 0.39980 -0.03600
H 	H 	0.83160 0.32390 0.41450 0.06700
C 	C 	0.77470 0.35500 0.40960 -0.06700
C 	C 	0.75090 0.33030 0.44280 0.34400
O 	O 	0.71601 0.34606 0.45594 -0.40200
O 	O 	0.76769 0.29544 0.45563 -0.38900
C 	C 	0.31760 0.15430 0.10020 -0.03500
H 	H 	0.33160 0.17610 0.08550 0.06200
C 	C 	0.27470 0.14500 0.09040 -0.07300
C 	C 	0.25090 0.16970 0.05720 0.34400
O 	O 	0.21601 0.15394 0.04406 -0.41100
O 	O 	0.26769 0.20456 0.04437 -0.39500
C 	C 	0.81760 0.65430 0.60020 -0.03600
H 	H 	0.83160 0.67610 0.58550 0.06700
C 	C 	0.77470 0.64500 0.59040 -0.06700
C 	C 	0.75090 0.66970 0.55720 0.34400
O 	O 	0.71601 0.65394 0.54406 -0.40200
O 	O 	0.76769 0.70456 0.54437 -0.38900
Cu	Cu	0.00000 0.18048 0.18048 0.89400
Cu	Cu	0.00000 0.24047 0.24047 0.90600
Cu	Cu	0.50000 0.68048 0.68048 0.90700
Cu	Cu	0.50000 0.74047 0.74047 0.91600
Cu	Cu	0.00000 0.81952 0.18048 0.89600
Cu	Cu	0.00000 0.75953 0.24047 0.90600
Cu	Cu	0.50000 0.31952 0.68048 0.90700
Cu	Cu	0.50000 0.25953 0.74047 0.91600
Cu	Cu	0.00000 0.18048 0.81952 0.89600
Cu	Cu	0.00000 0.24047 0.75953 0.90600
Cu	Cu	0.50000 0.68048 0.31952 0.90700
Cu	Cu	0.50000 0.74047 0.25953 0.91600
Cu	Cu	0.00000 0.81952 0.81952 0.89700
Cu	Cu	0.00000 0.75953 0.75953 0.90600
Cu	Cu	0.50000 0.31952 0.31952 0.90700
Cu	Cu	0.50000 0.25953 0.25953 0.91600
Cu	Cu	0.18048 0.00000 0.18048 0.89400
Cu	Cu	0.24047 0.00000 0.24047 0.90600
Cu	Cu	0.68048 0.50000 0.68048 0.90700
Cu	Cu	0.74047 0.50000 0.74047 0.91600
Cu	Cu	0.18048 0.00000 0.81952 0.89600
Cu	Cu	0.24047 0.00000 0.75953 0.90600
Cu	Cu	0.68048 0.50000 0.31952 0.90700
Cu	Cu	0.74047 0.50000 0.25953 0.91600
Cu	Cu	0.81952 0.00000 0.18048 0.89600
Cu	Cu	0.75953 0.00000 0.24047 0.90600
Cu	Cu	0.31952 0.50000 0.68048 0.90700
Cu	Cu	0.25953 0.50000 0.74047 0.91600
Cu	Cu	0.81952 0.00000 0.81952 0.89700
Cu	Cu	0.75953 0.00000 0.75953 0.90600
Cu	Cu	0.31952 0.50000 0.31952 0.90700
Cu	Cu	0.25953 0.50000 0.25953 0.91600
Cu	Cu	0.18048 0.18048 -0.00000 0.89400
Cu	Cu	0.24047 0.24047 -0.00000 0.90600
Cu	Cu	0.68048 0.68048 0.50000 0.90700
Cu	Cu	0.74047 0.74047 0.50000 0.91600
Cu	Cu	0.81952 0.18048 -0.00000 0.89600
Cu	Cu	0.75953 0.24047 -0.00000 0.90600
Cu	Cu	0.31952 0.68048 0.50000 0.90700
Cu	Cu	0.25953 0.74047 0.50000 0.91600
Cu	Cu	0.18048 0.81952 -0.00000 0.89600
Cu	Cu	0.24047 0.75953 -0.00000 0.90600
Cu	Cu	0.68048 0.31952 0.50000 0.90700
Cu	Cu	0.74047 0.25953 0.50000 0.91600
Cu	Cu	0.81952 0.81952 -0.00000 0.89700
Cu	Cu	0.75953 0.75953 -0.00000 0.90600
Cu	Cu	0.31952 0.31952 0.50000 0.90700
Cu	Cu	0.25953 0.25953 0.50000 0.91600
N 	N 	0.21070 0.21070 0.50000 -0.16200
C 	C 	0.14740 0.14740 0.50000 -0.09200
H 	H 	0.12630 0.12630 0.50000 0.06800
N 	N 	0.71070 0.71070 -0.00000 -0.17600
C 	C 	0.64740 0.64740 -0.00000 -0.13700
H 	H 	0.62630 0.62630 -0.00000 0.08100
N 	N 	0.78930 0.78930 0.50000 -0.16100
C 	C 	0.85260 0.85260 0.50000 -0.09000
H 	H 	0.87370 0.87370 0.50000 0.07900
N 	N 	0.28930 0.28930 -0.00000 -0.17600
C 	C 	0.35260 0.35260 -0.00000 -0.13700
H 	H 	0.37370 0.37370 -0.00000 0.08100
N 	N 	0.78930 0.21070 0.50000 -0.16100
C 	C 	0.85260 0.14740 0.50000 -0.09100
H 	H 	0.87370 0.12630 0.50000 0.07300
N 	N 	0.28930 0.71070 -0.00000 -0.17600
C 	C 	0.35260 0.64740 -0.00000 -0.13700
H 	H 	0.37370 0.62630 -0.00000 0.08100
N 	N 	0.21070 0.78930 0.50000 -0.16100
C 	C 	0.14740 0.85260 0.50000 -0.09100
H 	H 	0.12630 0.87370 0.50000 0.07300
N 	N 	0.71070 0.28930 -0.00000 -0.17600
C 	C 	0.64740 0.35260 -0.00000 -0.13700
H 	H 	0.62630 0.37370 -0.00000 0.08100
N 	N 	0.50000 0.21070 0.21070 -0.16200
C 	C 	0.50000 0.14740 0.14740 -0.09200
H 	H 	0.50000 0.12630 0.12630 0.06800
N 	N 	0.00000 0.71070 0.71070 -0.17600
C 	C 	0.00000 0.64740 0.64740 -0.13700
H 	H 	0.00000 0.62630 0.62630 0.08100
N 	N 	0.50000 0.78930 0.78930 -0.16100
C 	C 	0.50000 0.85260 0.85260 -0.09000
H 	H 	0.50000 0.87370 0.87370 0.07900
N 	N 	0.00000 0.28930 0.28930 -0.17600
C 	C 	0.00000 0.35260 0.35260 -0.13700
H 	H 	0.00000 0.37370 0.37370 0.08100
N 	N 	0.50000 0.78930 0.21070 -0.16100
C 	C 	0.50000 0.85260 0.14740 -0.09100
H 	H 	0.50000 0.87370 0.12630 0.07300
N 	N 	0.00000 0.28930 0.71070 -0.17600
C 	C 	0.00000 0.35260 0.64740 -0.13700
H 	H 	0.00000 0.37370 0.62630 0.08100
N 	N 	0.50000 0.21070 0.78930 -0.16100
C 	C 	0.50000 0.14740 0.85260 -0.09100
H 	H 	0.50000 0.12630 0.87370 0.07300
N 	N 	0.00000 0.71070 0.28930 -0.17600
C 	C 	0.00000 0.64740 0.35260 -0.13700
H 	H 	0.00000 0.62630 0.37370 0.08100
N 	N 	0.21070 0.50000 0.21070 -0.16200
C 	C 	0.14740 0.50000 0.14740 -0.09200
H 	H 	0.12630 0.50000 0.12630 0.06800
N 	N 	0.71070 0.00000 0.71070 -0.17600
C 	C 	0.64740 0.00000 0.64740 -0.13700
H 	H 	0.62630 0.00000 0.62630 0.08100
N 	N 	0.78930 0.50000 0.78930 -0.16100
C 	C 	0.85260 0.50000 0.85260 -0.09000
H 	H 	0.87370 0.50000 0.87370 0.07900
N 	N 	0.28930 0.00000 0.28930 -0.17600
C 	C 	0.35260 0.00000 0.35260 -0.13700
H 	H 	0.37370 0.00000 0.37370 0.08100
N 	N 	0.21070 0.50000 0.78930 -0.16100
C 	C 	0.14740 0.50000 0.85260 -0.09100
H 	H 	0.12630 0.50000 0.87370 0.07300
N 	N 	0.71070 0.00000 0.28930 -0.17600
C 	C 	0.64740 0.00000 0.35260 -0.13700
H 	H 	0.62630 0.00000 0.37370 0.08100
N 	N 	0.78930 0.50000 0.21070 -0.16100
C 	C 	0.85260 0.50000 0.14740 -0.09100
H 	H 	0.87370 0.50000 0.12630 0.07300
N 	N 	0.28930 0.00000 0.71070 -0.17600
C 	C 	0.35260 0.00000 0.64740 -0.13700
H 	H 	0.37370 0.00000 0.62630 0.08100
C 	C 	0.19570 0.19570 0.46330 0.00000
H 	H 	0.20660 0.20660 0.43770 0.04500
C 	C 	0.16360 0.16360 0.46150 0.03000
C 	C 	0.14950 0.14950 0.41980 -0.01800
C 	C 	0.14100 0.14100 0.38310 -0.01400
C 	C 	0.13160 0.13160 0.33950 0.02200
C 	C 	0.11230 0.11230 0.25430 0.01600
H 	H 	0.10490 0.10490 0.22630 0.05400
C 	C 	0.69570 0.69570 0.96330 0.02000
H 	H 	0.70660 0.70660 0.93770 0.04200
C 	C 	0.66360 0.66360 0.96150 0.06500
C 	C 	0.64950 0.64950 0.91980 -0.02000
C 	C 	0.64100 0.64100 0.88310 -0.00400
C 	C 	0.63160 0.63160 0.83950 0.02500
C 	C 	0.61230 0.61230 0.75430 0.01400
H 	H 	0.60490 0.60490 0.72630 0.05900
C 	C 	0.80430 0.80430 0.46330 0.00200
H 	H 	0.79340 0.79340 0.43770 0.04500
C 	C 	0.83640 0.83640 0.46150 0.03300
C 	C 	0.85050 0.85050 0.41980 -0.01000
C 	C 	0.85900 0.85900 0.38310 -0.01000
C 	C 	0.86840 0.86840 0.33950 0.03300
C 	C 	0.88770 0.88770 0.25430 0.00900
H 	H 	0.89510 0.89510 0.22630 0.06400
C 	C 	0.30430 0.30430 0.96330 0.01900
H 	H 	0.29340 0.29340 0.93770 0.04200
C 	C 	0.33640 0.33640 0.96150 0.06500
C 	C 	0.35050 0.35050 0.91980 -0.02000
C 	C 	0.35900 0.35900 0.88310 -0.00400
C 	C 	0.36840 0.36840 0.83950 0.02500
C 	C 	0.38770 0.38770 0.75430 0.01400
H 	H 	0.39510 0.39510 0.72630 0.05900
C 	C 	0.80430 0.19570 0.53670 0.00100
H 	H 	0.79340 0.20660 0.56230 0.04500
C 	C 	0.83640 0.16360 0.53850 0.03100
C 	C 	0.85050 0.14950 0.58020 -0.01400
C 	C 	0.85900 0.14100 0.61690 -0.01200
C 	C 	0.86840 0.13160 0.66050 0.02800
C 	C 	0.88770 0.11230 0.74570 0.01100
H 	H 	0.89510 0.10490 0.77370 0.06000
C 	C 	0.30430 0.69570 0.03670 -0.01100
H 	H 	0.29340 0.70660 0.06230 0.04800
C 	C 	0.33640 0.66360 0.03850 0.04500
C 	C 	0.35050 0.64950 0.08020 -0.02400
C 	C 	0.35900 0.64100 0.11690 -0.00900
C 	C 	0.36840 0.63160 0.16050 0.02300
C 	C 	0.38770 0.61230 0.24570 0.01400
H 	H 	0.39510 0.60490 0.27370 0.05800
C 	C 	0.19570 0.80430 0.53670 0.00100
H 	H 	0.20660 0.79340 0.56230 0.04500
C 	C 	0.16360 0.83640 0.53850 0.03100
C 	C 	0.14950 0.85050 0.58020 -0.01400
C 	C 	0.14100 0.85900 0.61690 -0.01200
C 	C 	0.13160 0.86840 0.66050 0.02800
C 	C 	0.11230 0.88770 0.74570 0.01100
H 	H 	0.10490 0.89510 0.77370 0.06000
C 	C 	0.69570 0.30430 0.03670 -0.01100
H 	H 	0.70660 0.29340 0.06230 0.04800
C 	C 	0.66360 0.33640 0.03850 0.04500
C 	C 	0.64950 0.35050 0.08020 -0.02400
C 	C 	0.64100 0.35900 0.11690 -0.00900
C 	C 	0.63160 0.36840 0.16050 0.02300
C 	C 	0.61230 0.38770 0.24570 0.01400
H 	H 	0.60490 0.39510 0.27370 0.05800
C 	C 	0.46330 0.19570 0.19570 0.00000
H 	H 	0.43770 0.20660 0.20660 0.04500
C 	C 	0.46150 0.16360 0.16360 0.03000
C 	C 	0.41980 0.14950 0.14950 -0.01800
C 	C 	0.38310 0.14100 0.14100 -0.01400
C 	C 	0.33950 0.13160 0.13160 0.02200
C 	C 	0.25430 0.11230 0.11230 0.01600
H 	H 	0.22630 0.10490 0.10490 0.05400
C 	C 	0.96330 0.69570 0.69570 0.02000
H 	H 	0.93770 0.70660 0.70660 0.04200
C 	C 	0.96150 0.66360 0.66360 0.06500
C 	C 	0.91980 0.64950 0.64950 -0.02000
C 	C 	0.88310 0.64100 0.64100 -0.00400
C 	C 	0.83950 0.63160 0.63160 0.02500
C 	C 	0.75430 0.61230 0.61230 0.01400
H 	H 	0.72630 0.60490 0.60490 0.05900
C 	C 	0.46330 0.80430 0.80430 0.00200
H 	H 	0.43770 0.79340 0.79340 0.04500
C 	C 	0.46150 0.83640 0.83640 0.03300
C 	C 	0.41980 0.85050 0.85050 -0.01000
C 	C 	0.38310 0.85900 0.85900 -0.01000
C 	C 	0.33950 0.86840 0.86840 0.03300
C 	C 	0.25430 0.88770 0.88770 0.00900
H 	H 	0.22630 0.89510 0.89510 0.06400
C 	C 	0.96330 0.30430 0.30430 0.01900
H 	H 	0.93770 0.29340 0.29340 0.04200
C 	C 	0.96150 0.33640 0.33640 0.06500
C 	C 	0.91980 0.35050 0.35050 -0.02000
C 	C 	0.88310 0.35900 0.35900 -0.00400
C 	C 	0.83950 0.36840 0.36840 0.02500
C 	C 	0.75430 0.38770 0.38770 0.01400
H 	H 	0.72630 0.39510 0.39510 0.05900
C 	C 	0.53670 0.80430 0.19570 0.00100
H 	H 	0.56230 0.79340 0.20660 0.04500
C 	C 	0.53850 0.83640 0.16360 0.03100
C 	C 	0.58020 0.85050 0.14950 -0.01400
C 	C 	0.61690 0.85900 0.14100 -0.01200
C 	C 	0.66050 0.86840 0.13160 0.02800
C 	C 	0.74570 0.88770 0.11230 0.01100
H 	H 	0.77370 0.89510 0.10490 0.06000
C 	C 	0.03670 0.30430 0.69570 -0.01100
H 	H 	0.06230 0.29340 0.70660 0.04800
C 	C 	0.03850 0.33640 0.66360 0.04500
C 	C 	0.08020 0.35050 0.64950 -0.02400
C 	C 	0.11690 0.35900 0.64100 -0.00900
C 	C 	0.16050 0.36840 0.63160 0.02300
C 	C 	0.24570 0.38770 0.61230 0.01400
H 	H 	0.27370 0.39510 0.60490 0.05800
C 	C 	0.53670 0.19570 0.80430 0.00100
H 	H 	0.56230 0.20660 0.79340 0.04500
C 	C 	0.53850 0.16360 0.83640 0.03100
C 	C 	0.58020 0.14950 0.85050 -0.01400
C 	C 	0.61690 0.14100 0.85900 -0.01200
C 	C 	0.66050 0.13160 0.86840 0.02800
C 	C 	0.74570 0.11230 0.88770 0.01100
H 	H 	0.77370 0.10490 0.89510 0.06000
C 	C 	0.03670 0.69570 0.30430 -0.01100
H 	H 	0.06230 0.70660 0.29340 0.04800
C 	C 	0.03850 0.66360 0.33640 0.04500
C 	C 	0.08020 0.64950 0.35050 -0.02400
C 	C 	0.11690 0.64100 0.35900 -0.00900
C 	C 	0.16050 0.63160 0.36840 0.02300
C 	C 	0.24570 0.61230 0.38770 0.01400
H 	H 	0.27370 0.60490 0.39510 0.05800
C 	C 	0.19570 0.46330 0.19570 0.00000
H 	H 	0.20660 0.43770 0.20660 0.04500
C 	C 	0.16360 0.46150 0.16360 0.03000
C 	C 	0.14950 0.41980 0.14950 -0.01800
C 	C 	0.14100 0.38310 0.14100 -0.01400
C 	C 	0.13160 0.33950 0.13160 0.02200
C 	C 	0.11230 0.25430 0.11230 0.01600
H 	H 	0.10490 0.22630 0.10490 0.05400
C 	C 	0.69570 0.96330 0.69570 0.02000
H 	H 	0.70660 0.93770 0.70660 0.04200
C 	C 	0.66360 0.96150 0.66360 0.06500
C 	C 	0.64950 0.91980 0.64950 -0.02000
C 	C 	0.64100 0.88310 0.64100 -0.00400
C 	C 	0.63160 0.83950 0.63160 0.02500
C 	C 	0.61230 0.75430 0.61230 0.01400
H 	H 	0.60490 0.72630 0.60490 0.05900
C 	C 	0.80430 0.46330 0.80430 0.00200
H 	H 	0.79340 0.43770 0.79340 0.04500
C 	C 	0.83640 0.46150 0.83640 0.03300
C 	C 	0.85050 0.41980 0.85050 -0.01000
C 	C 	0.85900 0.38310 0.85900 -0.01000
C 	C 	0.86840 0.33950 0.86840 0.03300
C 	C 	0.88770 0.25430 0.88770 0.00900
H 	H 	0.89510 0.22630 0.89510 0.06400
C 	C 	0.30430 0.96330 0.30430 0.01900
H 	H 	0.29340 0.93770 0.29340 0.04200
C 	C 	0.33640 0.96150 0.33640 0.06500
C 	C 	0.35050 0.91980 0.35050 -0.02000
C 	C 	0.35900 0.88310 0.35900 -0.00400
C 	C 	0.36840 0.83950 0.36840 0.02500
C 	C 	0.38770 0.75430 0.38770 0.01400
H 	H 	0.39510 0.72630 0.39510 0.05900
C 	C 	0.19570 0.53670 0.80430 0.00100
H 	H 	0.20660 0.56230 0.79340 0.04500
C 	C 	0.16360 0.53850 0.83640 0.03100
C 	C 	0.14950 0.58020 0.85050 -0.01400
C 	C 	0.14100 0.61690 0.85900 -0.01200
C 	C 	0.13160 0.66050 0.86840 0.02800
C 	C 	0.11230 0.74570 0.88770 0.01100
H 	H 	0.10490 0.77370 0.89510 0.06000
C 	C 	0.69570 0.03670 0.30430 -0.01100
H 	H 	0.70660 0.06230 0.29340 0.04800
C 	C 	0.66360 0.03850 0.33640 0.04500
C 	C 	0.64950 0.08020 0.35050 -0.02400
C 	C 	0.64100 0.11690 0.35900 -0.00900
C 	C 	0.63160 0.16050 0.36840 0.02300
C 	C 	0.61230 0.24570 0.38770 0.01400
H 	H 	0.60490 0.27370 0.39510 0.05800
C 	C 	0.80430 0.53670 0.19570 0.00100
H 	H 	0.79340 0.56230 0.20660 0.04500
C 	C 	0.83640 0.53850 0.16360 0.03100
C 	C 	0.85050 0.58020 0.14950 -0.01400
C 	C 	0.85900 0.61690 0.14100 -0.01200
C 	C 	0.86840 0.66050 0.13160 0.02800
C 	C 	0.88770 0.74570 0.11230 0.01100
H 	H 	0.89510 0.77370 0.10490 0.06000
C 	C 	0.30430 0.03670 0.69570 -0.01100
H 	H 	0.29340 0.06230 0.70660 0.04800
C 	C 	0.33640 0.03850 0.66360 0.04500
C 	C 	0.35050 0.08020 0.64950 -0.02400
C 	C 	0.35900 0.11690 0.64100 -0.00900
C 	C 	0.36840 0.16050 0.63160 0.02300
C 	C 	0.38770 0.24570 0.61230 0.01400
H 	H 	0.39510 0.27370 0.60490 0.05800
C 	C 	0.19570 0.19570 0.53670 0.00000
H 	H 	0.20660 0.20660 0.56230 0.04500
C 	C 	0.16360 0.16360 0.53850 0.03000
C 	C 	0.14950 0.14950 0.58020 -0.01800
C 	C 	0.14100 0.14100 0.61690 -0.01400
C 	C 	0.13160 0.13160 0.66050 0.02200
C 	C 	0.11230 0.11230 0.74570 0.01500
H 	H 	0.10490 0.10490 0.77370 0.05500
C 	C 	0.69570 0.69570 0.03670 -0.01000
H 	H 	0.70660 0.70660 0.06230 0.04700
C 	C 	0.66360 0.66360 0.03850 0.04500
C 	C 	0.64950 0.64950 0.08020 -0.02400
C 	C 	0.64100 0.64100 0.11690 -0.00900
C 	C 	0.63160 0.63160 0.16050 0.02300
C 	C 	0.61230 0.61230 0.24570 0.01400
H 	H 	0.60490 0.60490 0.27370 0.05800
C 	C 	0.80430 0.80430 0.53670 0.00200
H 	H 	0.79340 0.79340 0.56230 0.04500
C 	C 	0.83640 0.83640 0.53850 0.03300
C 	C 	0.85050 0.85050 0.58020 -0.01000
C 	C 	0.85900 0.85900 0.61690 -0.01000
C 	C 	0.86840 0.86840 0.66050 0.03400
C 	C 	0.88770 0.88770 0.74570 0.00800
H 	H 	0.89510 0.89510 0.77370 0.06500
C 	C 	0.30430 0.30430 0.03670 -0.01100
H 	H 	0.29340 0.29340 0.06230 0.04800
C 	C 	0.33640 0.33640 0.03850 0.04500
C 	C 	0.35050 0.35050 0.08020 -0.02400
C 	C 	0.35900 0.35900 0.11690 -0.00900
C 	C 	0.36840 0.36840 0.16050 0.02300
C 	C 	0.38770 0.38770 0.24570 0.01400
H 	H 	0.39510 0.39510 0.27370 0.05800
C 	C 	0.19570 0.80430 0.46330 0.00100
H 	H 	0.20660 0.79340 0.43770 0.04500
C 	C 	0.16360 0.83640 0.46150 0.03100
C 	C 	0.14950 0.85050 0.41980 -0.01400
C 	C 	0.14100 0.85900 0.38310 -0.01200
C 	C 	0.13160 0.86840 0.33950 0.02800
C 	C 	0.11230 0.88770 0.25430 0.01300
H 	H 	0.10490 0.89510 0.22630 0.05900
C 	C 	0.69570 0.30430 0.96330 0.02000
H 	H 	0.70660 0.29340 0.93770 0.04200
C 	C 	0.66360 0.33640 0.96150 0.06500
C 	C 	0.64950 0.35050 0.91980 -0.02000
C 	C 	0.64100 0.35900 0.88310 -0.00400
C 	C 	0.63160 0.36840 0.83950 0.02500
C 	C 	0.61230 0.38770 0.75430 0.01400
H 	H 	0.60490 0.39510 0.72630 0.05900
C 	C 	0.80430 0.19570 0.46330 0.00100
H 	H 	0.79340 0.20660 0.43770 0.04500
C 	C 	0.83640 0.16360 0.46150 0.03100
C 	C 	0.85050 0.14950 0.41980 -0.01400
C 	C 	0.85900 0.14100 0.38310 -0.01200
C 	C 	0.86840 0.13160 0.33950 0.02800
C 	C 	0.88770 0.11230 0.25430 0.01300
H 	H 	0.89510 0.10490 0.22630 0.05900
C 	C 	0.30430 0.69570 0.96330 0.02000
H 	H 	0.29340 0.70660 0.93770 0.04200
C 	C 	0.33640 0.66360 0.96150 0.06500
C 	C 	0.35050 0.64950 0.91980 -0.02000
C 	C 	0.35900 0.64100 0.88310 -0.00400
C 	C 	0.36840 0.63160 0.83950 0.02500
C 	C 	0.38770 0.61230 0.75430 0.01400
H 	H 	0.39510 0.60490 0.72630 0.05900
C 	C 	0.19570 0.46330 0.80430 0.00100
H 	H 	0.20660 0.43770 0.79340 0.04500
C 	C 	0.16360 0.46150 0.83640 0.03100
C 	C 	0.14950 0.41980 0.85050 -0.01400
C 	C 	0.14100 0.38310 0.85900 -0.01200
C 	C 	0.13160 0.33950 0.86840 0.02800
C 	C 	0.11230 0.25430 0.88770 0.01300
H 	H 	0.10490 0.22630 0.89510 0.05900
C 	C 	0.69570 0.96330 0.30430 0.02000
H 	H 	0.70660 0.93770 0.29340 0.04200
C 	C 	0.66360 0.96150 0.33640 0.06500
C 	C 	0.64950 0.91980 0.35050 -0.02000
C 	C 	0.64100 0.88310 0.35900 -0.00400
C 	C 	0.63160 0.83950 0.36840 0.02500
C 	C 	0.61230 0.75430 0.38770 0.01400
H 	H 	0.60490 0.72630 0.39510 0.05900
C 	C 	0.80430 0.46330 0.19570 0.00100
H 	H 	0.79340 0.43770 0.20660 0.04500
C 	C 	0.83640 0.46150 0.16360 0.03100
C 	C 	0.85050 0.41980 0.14950 -0.01400
C 	C 	0.85900 0.38310 0.14100 -0.01200
C 	C 	0.86840 0.33950 0.13160 0.02800
C 	C 	0.88770 0.25430 0.11230 0.01300
H 	H 	0.89510 0.22630 0.10490 0.05900
C 	C 	0.30430 0.96330 0.69570 0.02000
H 	H 	0.29340 0.93770 0.70660 0.04200
C 	C 	0.33640 0.96150 0.66360 0.06500
C 	C 	0.35050 0.91980 0.64950 -0.02000
C 	C 	0.35900 0.88310 0.64100 -0.00400
C 	C 	0.36840 0.83950 0.63160 0.02500
C 	C 	0.38770 0.75430 0.61230 0.01400
H 	H 	0.39510 0.72630 0.60490 0.05900
C 	C 	0.80430 0.53670 0.80430 0.00200
H 	H 	0.79340 0.56230 0.79340 0.04500
C 	C 	0.83640 0.53850 0.83640 0.03300
C 	C 	0.85050 0.58020 0.85050 -0.01000
C 	C 	0.85900 0.61690 0.85900 -0.01000
C 	C 	0.86840 0.66050 0.86840 0.03400
C 	C 	0.88770 0.74570 0.88770 0.00800
H 	H 	0.89510 0.77370 0.89510 0.06500
C 	C 	0.30430 0.03670 0.30430 -0.01100
H 	H 	0.29340 0.06230 0.29340 0.04800
C 	C 	0.33640 0.03850 0.33640 0.04500
C 	C 	0.35050 0.08020 0.35050 -0.02400
C 	C 	0.35900 0.11690 0.35900 -0.00900
C 	C 	0.36840 0.16050 0.36840 0.02300
C 	C 	0.38770 0.24570 0.38770 0.01400
H 	H 	0.39510 0.27370 0.39510 0.05800
C 	C 	0.19570 0.53670 0.19570 0.00000
H 	H 	0.20660 0.56230 0.20660 0.04500
C 	C 	0.16360 0.53850 0.16360 0.03000
C 	C 	0.14950 0.58020 0.14950 -0.01800
C 	C 	0.14100 0.61690 0.14100 -0.01400
C 	C 	0.13160 0.66050 0.13160 0.02200
C 	C 	0.11230 0.74570 0.11230 0.01500
H 	H 	0.10490 0.77370 0.10490 0.05500
C 	C 	0.69570 0.03670 0.69570 -0.01000
H 	H 	0.70660 0.06230 0.70660 0.04700
C 	C 	0.66360 0.03850 0.66360 0.04500
C 	C 	0.64950 0.08020 0.64950 -0.02400
C 	C 	0.64100 0.11690 0.64100 -0.00900
C 	C 	0.63160 0.16050 0.63160 0.02300
C 	C 	0.61230 0.24570 0.61230 0.01400
H 	H 	0.60490 0.27370 0.60490 0.05800
C 	C 	0.46330 0.19570 0.80430 0.00100
H 	H 	0.43770 0.20660 0.79340 0.04500
C 	C 	0.46150 0.16360 0.83640 0.03100
C 	C 	0.41980 0.14950 0.85050 -0.01400
C 	C 	0.38310 0.14100 0.85900 -0.01200
C 	C 	0.33950 0.13160 0.86840 0.02800
C 	C 	0.25430 0.11230 0.88770 0.01300
H 	H 	0.22630 0.10490 0.89510 0.05900
C 	C 	0.96330 0.69570 0.30430 0.02000
H 	H 	0.93770 0.70660 0.29340 0.04200
C 	C 	0.96150 0.66360 0.33640 0.06500
C 	C 	0.91980 0.64950 0.35050 -0.02000
C 	C 	0.88310 0.64100 0.35900 -0.00400
C 	C 	0.83950 0.63160 0.36840 0.02500
C 	C 	0.75430 0.61230 0.38770 0.01400
H 	H 	0.72630 0.60490 0.39510 0.05900
C 	C 	0.46330 0.80430 0.19570 0.00100
H 	H 	0.43770 0.79340 0.20660 0.04500
C 	C 	0.46150 0.83640 0.16360 0.03100
C 	C 	0.41980 0.85050 0.14950 -0.01400
C 	C 	0.38310 0.85900 0.14100 -0.01200
C 	C 	0.33950 0.86840 0.13160 0.02800
C 	C 	0.25430 0.88770 0.11230 0.01300
H 	H 	0.22630 0.89510 0.10490 0.05900
C 	C 	0.96330 0.30430 0.69570 0.02000
H 	H 	0.93770 0.29340 0.70660 0.04200
C 	C 	0.96150 0.33640 0.66360 0.06500
C 	C 	0.91980 0.35050 0.64950 -0.02000
C 	C 	0.88310 0.35900 0.64100 -0.00400
C 	C 	0.83950 0.36840 0.63160 0.02500
C 	C 	0.75430 0.38770 0.61230 0.01400
H 	H 	0.72630 0.39510 0.60490 0.05900
C 	C 	0.53670 0.19570 0.19570 0.00000
H 	H 	0.56230 0.20660 0.20660 0.04500
C 	C 	0.53850 0.16360 0.16360 0.03000
C 	C 	0.58020 0.14950 0.14950 -0.01800
C 	C 	0.61690 0.14100 0.14100 -0.01400
C 	C 	0.66050 0.13160 0.13160 0.02200
C 	C 	0.74570 0.11230 0.11230 0.01500
H 	H 	0.77370 0.10490 0.10490 0.05500
C 	C 	0.03670 0.69570 0.69570 -0.01000
H 	H 	0.06230 0.70660 0.70660 0.04700
C 	C 	0.03850 0.66360 0.66360 0.04500
C 	C 	0.08020 0.64950 0.64950 -0.02400
C 	C 	0.11690 0.64100 0.64100 -0.00900
C 	C 	0.16050 0.63160 0.63160 0.02300
C 	C 	0.24570 0.61230 0.61230 0.01400
H 	H 	0.27370 0.60490 0.60490 0.05800
C 	C 	0.53670 0.80430 0.80430 0.00200
H 	H 	0.56230 0.79340 0.79340 0.04500
C 	C 	0.53850 0.83640 0.83640 0.03300
C 	C 	0.58020 0.85050 0.85050 -0.01000
C 	C 	0.61690 0.85900 0.85900 -0.01000
C 	C 	0.66050 0.86840 0.86840 0.03400
C 	C 	0.74570 0.88770 0.88770 0.00800
H 	H 	0.77370 0.89510 0.89510 0.06500
C 	C 	0.03670 0.30430 0.30430 -0.01100
H 	H 	0.06230 0.29340 0.29340 0.04800
C 	C 	0.03850 0.33640 0.33640 0.04500
C 	C 	0.08020 0.35050 0.35050 -0.02400
C 	C 	0.11690 0.35900 0.35900 -0.00900
C 	C 	0.16050 0.36840 0.36840 0.02300
C 	C 	0.24570 0.38770 0.38770 0.01400
H 	H 	0.27370 0.39510 0.39510 0.05800
