data_crystal

_cell_length_a 7.03280
_cell_length_b 18.15800
_cell_length_c 24.66000
_cell_angle_alpha 90.00000
_cell_angle_beta  90.00000
_cell_angle_gamma 99.54000

_symmetry_space_group_name_	'P 1'
_symmetry_space_group_name_H-M	'P 1'

loop_
_symmetry_equiv_pos_as_xyz
  x,y,z

loop_
_atom_site_label
_atom_site_type_symbol
_atom_site_fract_x
_atom_site_fract_y
_atom_site_fract_z
_atom_site_charge
Eu	Eu	0.21929 0.01571 0.40171 1.72500
Eu	Eu	0.78071 0.98429 0.90171 1.68200
Eu	Eu	0.78071 0.98429 0.59829 1.68700
Eu	Eu	0.21929 0.01571 0.09829 1.72200
Cu	Cu	0.75160 0.44615 0.31520 0.76600
Cu	Cu	0.37900 0.54442 0.49233 0.78000
Cu	Cu	0.82560 0.55967 0.41930 0.79200
Cu	Cu	0.24840 0.55385 0.81520 0.77700
Cu	Cu	0.62100 0.45558 0.99233 0.77300
Cu	Cu	0.17440 0.44033 0.91930 0.80200
Cu	Cu	0.24840 0.55385 0.68480 0.77700
Cu	Cu	0.62100 0.45558 0.50767 0.77700
Cu	Cu	0.17440 0.44033 0.58070 0.80400
Cu	Cu	0.75160 0.44615 0.18480 0.76600
Cu	Cu	0.37900 0.54442 0.00767 0.78200
Cu	Cu	0.82560 0.55967 0.08070 0.79200
Cu	Cu	0.77120 0.56582 0.25000 0.74600
Cu	Cu	0.22880 0.43418 0.75000 0.76000
H 	H 	0.22570 0.28050 0.36310 0.04100
H 	H 	0.11320 0.39240 0.34640 0.03500
H 	H 	0.59420 0.28120 0.32040 0.01300
H 	H 	0.69470 0.16860 0.33890 0.02500
H 	H 	0.39070 0.76130 0.37060 0.06900
H 	H 	0.42180 0.64180 0.39470 -0.00300
H 	H 	0.31840 0.68290 0.54870 -0.00300
H 	H 	0.29140 0.80300 0.52810 0.05900
H 	H 	0.90550 0.83430 0.37850 0.02200
H 	H 	0.90070 0.70870 0.36220 0.00200
H 	H 	0.80130 0.65760 0.51630 -0.00600
H 	H 	0.80670 0.78310 0.53710 0.03800
H 	H 	0.77430 0.71950 0.86310 0.07600
H 	H 	0.88680 0.60760 0.84640 0.02700
H 	H 	0.40580 0.71880 0.82040 -0.00200
H 	H 	0.30530 0.83140 0.83890 0.05100
H 	H 	0.60930 0.23870 0.87060 0.07000
H 	H 	0.57820 0.35820 0.89470 -0.00400
H 	H 	0.68160 0.31710 0.04870 -0.01600
H 	H 	0.70860 0.19700 0.02810 0.07100
H 	H 	0.09450 0.16570 0.87850 0.02500
H 	H 	0.09930 0.29130 0.86220 0.01300
H 	H 	0.19870 0.34240 0.01630 0.01400
H 	H 	0.19330 0.21690 0.03710 0.03000
H 	H 	0.77430 0.71950 0.63690 0.07700
H 	H 	0.88680 0.60760 0.65360 0.02700
H 	H 	0.40580 0.71880 0.67960 -0.00200
H 	H 	0.30530 0.83140 0.66110 0.05200
H 	H 	0.60930 0.23870 0.62940 0.06700
H 	H 	0.57820 0.35820 0.60530 -0.00100
H 	H 	0.68160 0.31710 0.45130 -0.00600
H 	H 	0.70860 0.19700 0.47190 0.05400
H 	H 	0.09450 0.16570 0.62150 0.02900
H 	H 	0.09930 0.29130 0.63780 0.01100
H 	H 	0.19870 0.34240 0.48370 -0.00300
H 	H 	0.19330 0.21690 0.46290 0.04100
H 	H 	0.22570 0.28050 0.13690 0.04100
H 	H 	0.11320 0.39240 0.15360 0.03500
H 	H 	0.59420 0.28120 0.17960 0.01300
H 	H 	0.69470 0.16860 0.16110 0.02500
H 	H 	0.39070 0.76130 0.12940 0.06300
H 	H 	0.42180 0.64180 0.10530 0.00100
H 	H 	0.31840 0.68290 0.95130 0.01300
H 	H 	0.29140 0.80300 0.97190 0.03100
H 	H 	0.90550 0.83430 0.12150 0.02800
H 	H 	0.90070 0.70870 0.13780 -0.00200
H 	H 	0.80130 0.65760 0.98370 -0.02900
H 	H 	0.80670 0.78310 0.96290 0.05300
H 	H 	0.22270 0.71060 0.25000 0.06100
H 	H 	0.37940 0.60150 0.25000 0.03500
H 	H 	0.88620 0.73830 0.25000 0.00800
H 	H 	0.74390 0.84120 0.25000 0.05300
H 	H 	0.77730 0.28940 0.75000 0.05200
H 	H 	0.62060 0.39850 0.75000 0.03700
H 	H 	0.11380 0.26170 0.75000 0.02200
H 	H 	0.25610 0.15880 0.75000 0.05700
C 	C 	0.05100 0.14300 0.36270 0.36000
C 	C 	0.97600 0.21460 0.35200 -0.12000
C 	C 	0.09400 0.27940 0.35450 0.01500
C 	C 	0.02500 0.34670 0.34440 0.00100
C 	C 	0.72600 0.28220 0.32980 0.00500
C 	C 	0.78400 0.21400 0.34010 -0.01700
C 	C 	0.32600 0.87670 0.43290 0.29900
C 	C 	0.34580 0.79800 0.44830 -0.02600
C 	C 	0.37900 0.74630 0.40750 -0.05900
C 	C 	0.39450 0.67560 0.42190 0.02800
C 	C 	0.33490 0.69930 0.51210 0.04000
C 	C 	0.32020 0.77080 0.49990 -0.06000
C 	C 	0.85910 0.90330 0.47360 0.45600
C 	C 	0.85750 0.82070 0.45950 -0.11200
C 	C 	0.88430 0.79910 0.40730 -0.01000
C 	C 	0.87900 0.72380 0.39830 0.01000
C 	C 	0.82180 0.69360 0.48810 -0.00700
C 	C 	0.82560 0.76820 0.50080 -0.01000
C 	C 	0.94900 0.85700 0.86270 0.24100
C 	C 	0.02400 0.78540 0.85200 0.02400
C 	C 	0.90600 0.72060 0.85450 -0.09900
C 	C 	0.97500 0.65330 0.84440 0.00700
C 	C 	0.27400 0.71780 0.82980 0.04800
C 	C 	0.21600 0.78600 0.84010 -0.08900
C 	C 	0.67400 0.12330 0.93290 0.29000
C 	C 	0.65420 0.20200 0.94830 -0.01600
C 	C 	0.62100 0.25370 0.90750 -0.07100
C 	C 	0.60550 0.32440 0.92190 0.02900
C 	C 	0.66510 0.30070 0.01210 0.06700
C 	C 	0.67980 0.22920 0.99990 -0.10100
C 	C 	0.14090 0.09670 0.97360 0.45700
C 	C 	0.14250 0.17930 0.95950 -0.12500
C 	C 	0.11570 0.20090 0.90730 0.00600
C 	C 	0.12100 0.27620 0.89830 0.00800
C 	C 	0.17820 0.30640 0.98810 -0.03800
C 	C 	0.17440 0.23180 0.00080 0.03200
C 	C 	0.94900 0.85700 0.63730 0.24000
C 	C 	0.02400 0.78540 0.64800 0.02700
C 	C 	0.90600 0.72060 0.64550 -0.10100
C 	C 	0.97500 0.65330 0.65560 0.00800
C 	C 	0.27400 0.71780 0.67020 0.04900
C 	C 	0.21600 0.78600 0.65990 -0.09000
C 	C 	0.67400 0.12330 0.56710 0.29700
C 	C 	0.65420 0.20200 0.55170 -0.03300
C 	C 	0.62100 0.25370 0.59250 -0.06000
C 	C 	0.60550 0.32440 0.57810 0.02200
C 	C 	0.66510 0.30070 0.48790 0.03400
C 	C 	0.67980 0.22920 0.50010 -0.06100
C 	C 	0.14090 0.09670 0.52640 0.45900
C 	C 	0.14250 0.17930 0.54050 -0.10400
C 	C 	0.11570 0.20090 0.59270 -0.00700
C 	C 	0.12100 0.27620 0.60170 0.01600
C 	C 	0.17820 0.30640 0.51190 -0.00100
C 	C 	0.17440 0.23180 0.49920 -0.00700
C 	C 	0.05100 0.14300 0.13730 0.36200
C 	C 	0.97600 0.21460 0.14800 -0.12100
C 	C 	0.09400 0.27940 0.14550 0.01600
C 	C 	0.02500 0.34670 0.15560 0.00100
C 	C 	0.72600 0.28220 0.17020 0.00600
C 	C 	0.78400 0.21400 0.15990 -0.01700
C 	C 	0.32600 0.87670 0.06710 0.30900
C 	C 	0.34580 0.79800 0.05170 -0.05200
C 	C 	0.37900 0.74630 0.09250 -0.04100
C 	C 	0.39450 0.67560 0.07810 0.01600
C 	C 	0.33490 0.69930 0.98790 -0.01300
C 	C 	0.32020 0.77080 0.00010 0.00500
C 	C 	0.85910 0.90330 0.02640 0.46100
C 	C 	0.85750 0.82070 0.04050 -0.08400
C 	C 	0.88430 0.79910 0.09270 -0.02700
C 	C 	0.87900 0.72380 0.10170 0.02100
C 	C 	0.82180 0.69360 0.01190 0.04000
C 	C 	0.82560 0.76820 0.99920 -0.06100
C 	C 	0.36200 0.85330 0.25000 0.28600
C 	C 	0.47200 0.79040 0.25000 -0.04300
C 	C 	0.35900 0.71650 0.25000 -0.03700
C 	C 	0.45300 0.65040 0.25000 -0.00600
C 	C 	0.74900 0.73180 0.25000 0.02200
C 	C 	0.66400 0.79360 0.25000 -0.05100
C 	C 	0.63800 0.14670 0.75000 0.29000
C 	C 	0.52800 0.20960 0.75000 -0.05000
C 	C 	0.64100 0.28350 0.75000 -0.03300
C 	C 	0.54700 0.34960 0.75000 -0.00900
C 	C 	0.25100 0.26820 0.75000 0.01900
C 	C 	0.33600 0.20640 0.75000 -0.04500
I 	I 	0.02427 0.55690 0.32978 -0.60300
I 	I 	0.48960 0.47047 0.40983 -0.73200
I 	I 	0.97573 0.44310 0.82978 -0.64900
I 	I 	0.51040 0.52953 0.90983 -0.73400
I 	I 	0.97573 0.44310 0.67022 -0.64900
I 	I 	0.51040 0.52953 0.59017 -0.72900
I 	I 	0.02427 0.55690 0.17022 -0.60200
I 	I 	0.48960 0.47047 0.09017 -0.73000
I 	I 	0.46789 0.44153 0.25000 -0.59500
I 	I 	0.53211 0.55847 0.75000 -0.59300
I 	I 	-0.00000 0.50000 0.50000 -0.74200
I 	I 	-0.00000 0.50000 -0.00000 -0.73100
N 	N 	0.83770 0.34880 0.33200 -0.23700
N 	N 	0.37200 0.65120 0.47420 -0.23200
N 	N 	0.84660 0.67000 0.43630 -0.22700
N 	N 	0.16230 0.65120 0.83200 -0.23000
N 	N 	0.62800 0.34880 0.97420 -0.24400
N 	N 	0.15340 0.33000 0.93630 -0.21500
N 	N 	0.16230 0.65120 0.66800 -0.23000
N 	N 	0.62800 0.34880 0.52580 -0.23400
N 	N 	0.15340 0.33000 0.56370 -0.22200
N 	N 	0.83770 0.34880 0.16800 -0.23700
N 	N 	0.37200 0.65120 0.02580 -0.21700
N 	N 	0.84660 0.67000 0.06370 -0.23500
N 	N 	0.65000 0.66150 0.25000 -0.22600
N 	N 	0.35000 0.33850 0.75000 -0.22100
O 	O 	0.23210 0.14690 0.36430 -0.42600
O 	O 	0.93800 0.08440 0.37150 -0.41800
O 	O 	0.33130 0.89640 0.38450 -0.41800
O 	O 	0.30310 0.92300 0.47030 -0.38000
O 	O 	0.92600 0.95020 0.43710 -0.47700
O 	O 	0.79210 0.91680 0.51830 -0.49100
O 	O 	0.76790 0.85310 0.86430 -0.39900
O 	O 	0.06200 0.91560 0.87150 -0.35500
O 	O 	0.66870 0.10360 0.88450 -0.42000
O 	O 	0.69690 0.07700 0.97030 -0.38600
O 	O 	0.07400 0.04980 0.93710 -0.46100
O 	O 	0.20790 0.08320 0.01830 -0.48400
O 	O 	0.76790 0.85310 0.63570 -0.39800
O 	O 	0.06200 0.91560 0.62850 -0.35300
O 	O 	0.66870 0.10360 0.61550 -0.42200
O 	O 	0.69690 0.07700 0.52970 -0.38700
O 	O 	0.07400 0.04980 0.56290 -0.46200
O 	O 	0.20790 0.08320 0.48170 -0.48900
O 	O 	0.23210 0.14690 0.13570 -0.42500
O 	O 	0.93800 0.08440 0.12850 -0.41900
O 	O 	0.33130 0.89640 0.11550 -0.41900
O 	O 	0.30310 0.92300 0.02970 -0.37700
O 	O 	0.92600 0.95020 0.06290 -0.47600
O 	O 	0.79210 0.91680 0.98170 -0.50000
O 	O 	0.47300 0.91950 0.25000 -0.26500
O 	O 	0.18690 0.84740 0.25000 -0.26300
O 	O 	0.52700 0.08050 0.75000 -0.26800
O 	O 	0.81310 0.15260 0.75000 -0.28100
