data_crystal

_cell_length_a 30.41280
_cell_length_b 30.41280
_cell_length_c 30.41280
_cell_angle_alpha 90.00000
_cell_angle_beta  90.00000
_cell_angle_gamma 90.00000

_symmetry_space_group_name_	'P 1'
_symmetry_space_group_name_H-M	'P 1'

loop_
_symmetry_equiv_pos_as_xyz
  x,y,z

loop_
_atom_site_label
_atom_site_type_symbol
_atom_site_fract_x
_atom_site_fract_y
_atom_site_fract_z
_atom_site_charge
O 	O 	0.22750 0.29140 0.45490 -0.38800
O 	O 	0.28010 0.34330 0.45530 -0.39800
O 	O 	0.08390 0.41530 0.33780 -0.19100
C 	C 	0.03960 0.35260 0.32980 -0.02800
C 	C 	0.24460 0.32660 0.44140 0.32900
C 	C 	0.22060 0.35130 0.40700 -0.01600
C 	C 	0.17900 0.33840 0.39390 -0.12100
H 	H 	0.16530 0.31480 0.40770 0.10900
C 	C 	0.08280 0.37520 0.33800 0.18400
O 	O 	0.72750 0.79140 0.95490 -0.37200
O 	O 	0.78010 0.84330 0.95530 -0.38000
O 	O 	0.58390 0.91530 0.83780 -0.17800
C 	C 	0.53960 0.85260 0.82980 -0.03500
C 	C 	0.74460 0.82660 0.94140 0.32400
C 	C 	0.72060 0.85130 0.90700 -0.00500
C 	C 	0.67900 0.83840 0.89390 -0.12700
H 	H 	0.66530 0.81480 0.90770 0.11400
C 	C 	0.58280 0.87520 0.83800 0.18800
O 	O 	0.77250 0.70860 0.45490 -0.38700
O 	O 	0.71990 0.65670 0.45530 -0.39800
O 	O 	0.91610 0.58470 0.33780 -0.17800
C 	C 	0.96040 0.64740 0.32980 -0.01300
C 	C 	0.75540 0.67340 0.44140 0.33000
C 	C 	0.77940 0.64870 0.40700 -0.01400
C 	C 	0.82100 0.66160 0.39390 -0.12100
H 	H 	0.83470 0.68520 0.40770 0.11100
C 	C 	0.91720 0.62480 0.33800 0.18400
O 	O 	0.27250 0.20860 0.95490 -0.37200
O 	O 	0.21990 0.15670 0.95530 -0.38500
O 	O 	0.41610 0.08470 0.83780 -0.19200
C 	C 	0.46040 0.14740 0.82980 -0.03700
C 	C 	0.25540 0.17340 0.94140 0.32800
C 	C 	0.27940 0.14870 0.90700 -0.01100
C 	C 	0.32100 0.16160 0.89390 -0.12200
H 	H 	0.33470 0.18520 0.90770 0.11300
C 	C 	0.41720 0.12480 0.83800 0.19100
O 	O 	0.77250 0.29140 0.54510 -0.38600
O 	O 	0.71990 0.34330 0.54470 -0.39700
O 	O 	0.91610 0.41530 0.66220 -0.17700
C 	C 	0.96040 0.35260 0.67020 -0.01300
C 	C 	0.75540 0.32660 0.55860 0.33000
C 	C 	0.77940 0.35130 0.59300 -0.01400
C 	C 	0.82100 0.33840 0.60610 -0.12100
H 	H 	0.83470 0.31480 0.59230 0.11100
C 	C 	0.91720 0.37520 0.66200 0.18400
O 	O 	0.27250 0.79140 0.04510 -0.39200
O 	O 	0.21990 0.84330 0.04470 -0.40300
O 	O 	0.41610 0.91530 0.16220 -0.18100
C 	C 	0.46040 0.85260 0.17020 -0.03700
C 	C 	0.25540 0.82660 0.05860 0.33000
C 	C 	0.27940 0.85130 0.09300 -0.01600
C 	C 	0.32100 0.83840 0.10610 -0.12100
H 	H 	0.33470 0.81480 0.09230 0.10800
C 	C 	0.41720 0.87520 0.16200 0.18900
O 	O 	0.22750 0.70860 0.54510 -0.38700
O 	O 	0.28010 0.65670 0.54470 -0.39700
O 	O 	0.08390 0.58470 0.66220 -0.19000
C 	C 	0.03960 0.64740 0.67020 -0.02700
C 	C 	0.24460 0.67340 0.55860 0.33000
C 	C 	0.22060 0.64870 0.59300 -0.01500
C 	C 	0.17900 0.66160 0.60610 -0.12000
H 	H 	0.16530 0.68520 0.59230 0.10900
C 	C 	0.08280 0.62480 0.66200 0.18500
O 	O 	0.72750 0.20860 0.04510 -0.39300
O 	O 	0.78010 0.15670 0.04470 -0.40600
O 	O 	0.58390 0.08470 0.16220 -0.19600
C 	C 	0.53960 0.14740 0.17020 -0.03900
C 	C 	0.74460 0.17340 0.05860 0.33000
C 	C 	0.72060 0.14870 0.09300 -0.02100
C 	C 	0.67900 0.16160 0.10610 -0.11900
H 	H 	0.66530 0.18520 0.09230 0.10700
C 	C 	0.58280 0.12480 0.16200 0.19100
O 	O 	0.45490 0.22750 0.29140 -0.38700
O 	O 	0.45530 0.28010 0.34330 -0.39700
O 	O 	0.33780 0.08390 0.41530 -0.19000
C 	C 	0.32980 0.03960 0.35260 -0.02700
C 	C 	0.44140 0.24460 0.32660 0.33000
C 	C 	0.40700 0.22060 0.35130 -0.01500
C 	C 	0.39390 0.17900 0.33840 -0.12000
H 	H 	0.40770 0.16530 0.31480 0.11000
C 	C 	0.33800 0.08280 0.37520 0.18500
O 	O 	0.95490 0.72750 0.79140 -0.37100
O 	O 	0.95530 0.78010 0.84330 -0.37900
O 	O 	0.83780 0.58390 0.91530 -0.17700
C 	C 	0.82980 0.53960 0.85260 -0.03400
C 	C 	0.94140 0.74460 0.82660 0.32500
C 	C 	0.90700 0.72060 0.85130 -0.00400
C 	C 	0.89390 0.67900 0.83840 -0.12600
H 	H 	0.90770 0.66530 0.81480 0.11500
C 	C 	0.83800 0.58280 0.87520 0.18900
O 	O 	0.45490 0.77250 0.70860 -0.38600
O 	O 	0.45530 0.71990 0.65670 -0.39700
O 	O 	0.33780 0.91610 0.58470 -0.17700
C 	C 	0.32980 0.96040 0.64740 -0.01300
C 	C 	0.44140 0.75540 0.67340 0.33000
C 	C 	0.40700 0.77940 0.64870 -0.01400
C 	C 	0.39390 0.82100 0.66160 -0.12100
H 	H 	0.40770 0.83470 0.68520 0.11100
C 	C 	0.33800 0.91720 0.62480 0.18400
O 	O 	0.95490 0.27250 0.20860 -0.37200
O 	O 	0.95530 0.21990 0.15670 -0.38500
O 	O 	0.83780 0.41610 0.08470 -0.19200
C 	C 	0.82980 0.46040 0.14740 -0.03700
C 	C 	0.94140 0.25540 0.17340 0.32800
C 	C 	0.90700 0.27940 0.14870 -0.01100
C 	C 	0.89390 0.32100 0.16160 -0.12200
H 	H 	0.90770 0.33470 0.18520 0.11300
C 	C 	0.83800 0.41720 0.12480 0.19100
O 	O 	0.54510 0.77250 0.29140 -0.38600
O 	O 	0.54470 0.71990 0.34330 -0.39700
O 	O 	0.66220 0.91610 0.41530 -0.17700
C 	C 	0.67020 0.96040 0.35260 -0.01300
C 	C 	0.55860 0.75540 0.32660 0.33000
C 	C 	0.59300 0.77940 0.35130 -0.01400
C 	C 	0.60610 0.82100 0.33840 -0.12100
H 	H 	0.59230 0.83470 0.31480 0.11100
C 	C 	0.66200 0.91720 0.37520 0.18400
O 	O 	0.04510 0.27250 0.79140 -0.39200
O 	O 	0.04470 0.21990 0.84330 -0.40300
O 	O 	0.16220 0.41610 0.91530 -0.18100
C 	C 	0.17020 0.46040 0.85260 -0.03700
C 	C 	0.05860 0.25540 0.82660 0.33000
C 	C 	0.09300 0.27940 0.85130 -0.01600
C 	C 	0.10610 0.32100 0.83840 -0.12100
H 	H 	0.09230 0.33470 0.81480 0.10800
C 	C 	0.16200 0.41720 0.87520 0.18900
O 	O 	0.54510 0.22750 0.70860 -0.38700
O 	O 	0.54470 0.28010 0.65670 -0.39700
O 	O 	0.66220 0.08390 0.58470 -0.19000
C 	C 	0.67020 0.03960 0.64740 -0.02700
C 	C 	0.55860 0.24460 0.67340 0.33000
C 	C 	0.59300 0.22060 0.64870 -0.01500
C 	C 	0.60610 0.17900 0.66160 -0.12000
H 	H 	0.59230 0.16530 0.68520 0.10900
C 	C 	0.66200 0.08280 0.62480 0.18500
O 	O 	0.04510 0.72750 0.20860 -0.39300
O 	O 	0.04470 0.78010 0.15670 -0.40600
O 	O 	0.16220 0.58390 0.08470 -0.19600
C 	C 	0.17020 0.53960 0.14740 -0.03900
C 	C 	0.05860 0.74460 0.17340 0.33000
C 	C 	0.09300 0.72060 0.14870 -0.02100
C 	C 	0.10610 0.67900 0.16160 -0.11900
H 	H 	0.09230 0.66530 0.18520 0.10700
C 	C 	0.16200 0.58280 0.12480 0.19100
O 	O 	0.29140 0.45490 0.22750 -0.38700
O 	O 	0.34330 0.45530 0.28010 -0.39700
O 	O 	0.41530 0.33780 0.08390 -0.19000
C 	C 	0.35260 0.32980 0.03960 -0.02700
C 	C 	0.32660 0.44140 0.24460 0.33000
C 	C 	0.35130 0.40700 0.22060 -0.01500
C 	C 	0.33840 0.39390 0.17900 -0.12000
H 	H 	0.31480 0.40770 0.16530 0.11000
C 	C 	0.37520 0.33800 0.08280 0.18500
O 	O 	0.79140 0.95490 0.72750 -0.37100
O 	O 	0.84330 0.95530 0.78010 -0.37900
O 	O 	0.91530 0.83780 0.58390 -0.17700
C 	C 	0.85260 0.82980 0.53960 -0.03400
C 	C 	0.82660 0.94140 0.74460 0.32500
C 	C 	0.85130 0.90700 0.72060 -0.00400
C 	C 	0.83840 0.89390 0.67900 -0.12600
H 	H 	0.81480 0.90770 0.66530 0.11500
C 	C 	0.87520 0.83800 0.58280 0.18900
O 	O 	0.70860 0.45490 0.77250 -0.38600
O 	O 	0.65670 0.45530 0.71990 -0.39700
O 	O 	0.58470 0.33780 0.91610 -0.17700
C 	C 	0.64740 0.32980 0.96040 -0.01300
C 	C 	0.67340 0.44140 0.75540 0.33000
C 	C 	0.64870 0.40700 0.77940 -0.01400
C 	C 	0.66160 0.39390 0.82100 -0.12100
H 	H 	0.68520 0.40770 0.83470 0.11100
C 	C 	0.62480 0.33800 0.91720 0.18400
O 	O 	0.20860 0.95490 0.27250 -0.37200
O 	O 	0.15670 0.95530 0.21990 -0.38500
O 	O 	0.08470 0.83780 0.41610 -0.19200
C 	C 	0.14740 0.82980 0.46040 -0.03700
C 	C 	0.17340 0.94140 0.25540 0.32800
C 	C 	0.14870 0.90700 0.27940 -0.01100
C 	C 	0.16160 0.89390 0.32100 -0.12200
H 	H 	0.18520 0.90770 0.33470 0.11300
C 	C 	0.12480 0.83800 0.41720 0.19100
O 	O 	0.29140 0.54510 0.77250 -0.38600
O 	O 	0.34330 0.54470 0.71990 -0.39700
O 	O 	0.41530 0.66220 0.91610 -0.17700
C 	C 	0.35260 0.67020 0.96040 -0.01300
C 	C 	0.32660 0.55860 0.75540 0.33000
C 	C 	0.35130 0.59300 0.77940 -0.01400
C 	C 	0.33840 0.60610 0.82100 -0.12100
H 	H 	0.31480 0.59230 0.83470 0.11100
C 	C 	0.37520 0.66200 0.91720 0.18400
O 	O 	0.79140 0.04510 0.27250 -0.39200
O 	O 	0.84330 0.04470 0.21990 -0.40300
O 	O 	0.91530 0.16220 0.41610 -0.18100
C 	C 	0.85260 0.17020 0.46040 -0.03700
C 	C 	0.82660 0.05860 0.25540 0.33000
C 	C 	0.85130 0.09300 0.27940 -0.01600
C 	C 	0.83840 0.10610 0.32100 -0.12100
H 	H 	0.81480 0.09230 0.33470 0.10800
C 	C 	0.87520 0.16200 0.41720 0.18900
O 	O 	0.70860 0.54510 0.22750 -0.38700
O 	O 	0.65670 0.54470 0.28010 -0.39700
O 	O 	0.58470 0.66220 0.08390 -0.19000
C 	C 	0.64740 0.67020 0.03960 -0.02700
C 	C 	0.67340 0.55860 0.24460 0.33000
C 	C 	0.64870 0.59300 0.22060 -0.01500
C 	C 	0.66160 0.60610 0.17900 -0.12000
H 	H 	0.68520 0.59230 0.16530 0.10900
C 	C 	0.62480 0.66200 0.08280 0.18500
O 	O 	0.20860 0.04510 0.72750 -0.39300
O 	O 	0.15670 0.04470 0.78010 -0.40600
O 	O 	0.08470 0.16220 0.58390 -0.19600
C 	C 	0.14740 0.17020 0.53960 -0.03900
C 	C 	0.17340 0.05860 0.74460 0.33000
C 	C 	0.14870 0.09300 0.72060 -0.02100
C 	C 	0.16160 0.10610 0.67900 -0.11900
H 	H 	0.18520 0.09230 0.66530 0.10700
C 	C 	0.12480 0.16200 0.58280 0.19100
O 	O 	0.29140 0.22750 0.54510 -0.38700
O 	O 	0.34330 0.28010 0.54470 -0.39700
O 	O 	0.41530 0.08390 0.66220 -0.19000
C 	C 	0.35260 0.03960 0.67020 -0.02700
C 	C 	0.32660 0.24460 0.55860 0.33000
C 	C 	0.35130 0.22060 0.59300 -0.01500
C 	C 	0.33840 0.17900 0.60610 -0.12000
H 	H 	0.31480 0.16530 0.59230 0.11000
C 	C 	0.37520 0.08280 0.66200 0.18500
O 	O 	0.79140 0.72750 0.04510 -0.39200
O 	O 	0.84330 0.78010 0.04470 -0.40100
O 	O 	0.91530 0.58390 0.16220 -0.18100
C 	C 	0.85260 0.53960 0.17020 -0.03700
C 	C 	0.82660 0.74460 0.05860 0.32900
C 	C 	0.85130 0.72060 0.09300 -0.01500
C 	C 	0.83840 0.67900 0.10610 -0.12200
H 	H 	0.81480 0.66530 0.09230 0.10900
C 	C 	0.87520 0.58280 0.16200 0.18900
O 	O 	0.70860 0.77250 0.54510 -0.38600
O 	O 	0.65670 0.71990 0.54470 -0.39700
O 	O 	0.58470 0.91610 0.66220 -0.17700
C 	C 	0.64740 0.96040 0.67020 -0.01300
C 	C 	0.67340 0.75540 0.55860 0.33000
C 	C 	0.64870 0.77940 0.59300 -0.01400
C 	C 	0.66160 0.82100 0.60610 -0.12100
H 	H 	0.68520 0.83470 0.59230 0.11100
C 	C 	0.62480 0.91720 0.66200 0.18400
O 	O 	0.20860 0.27250 0.04510 -0.39300
O 	O 	0.15670 0.21990 0.04470 -0.40800
O 	O 	0.08470 0.41610 0.16220 -0.19600
C 	C 	0.14740 0.46040 0.17020 -0.03900
C 	C 	0.17340 0.25540 0.05860 0.33100
C 	C 	0.14870 0.27940 0.09300 -0.02200
C 	C 	0.16160 0.32100 0.10610 -0.11800
H 	H 	0.18520 0.33470 0.09230 0.10700
C 	C 	0.12480 0.41720 0.16200 0.19100
O 	O 	0.29140 0.77250 0.45490 -0.38600
O 	O 	0.34330 0.71990 0.45530 -0.39700
O 	O 	0.41530 0.91610 0.33780 -0.17700
C 	C 	0.35260 0.96040 0.32980 -0.01300
C 	C 	0.32660 0.75540 0.44140 0.33000
C 	C 	0.35130 0.77940 0.40700 -0.01400
C 	C 	0.33840 0.82100 0.39390 -0.12100
H 	H 	0.31480 0.83470 0.40770 0.11100
C 	C 	0.37520 0.91720 0.33800 0.18400
O 	O 	0.79140 0.27250 0.95490 -0.37200
O 	O 	0.84330 0.21990 0.95530 -0.38100
O 	O 	0.91530 0.41610 0.83780 -0.17700
C 	C 	0.85260 0.46040 0.82980 -0.03400
C 	C 	0.82660 0.25540 0.94140 0.32600
C 	C 	0.85130 0.27940 0.90700 -0.00500
C 	C 	0.83840 0.32100 0.89390 -0.12500
H 	H 	0.81480 0.33470 0.90770 0.11500
C 	C 	0.87520 0.41720 0.83800 0.18900
O 	O 	0.70860 0.22750 0.45490 -0.38700
O 	O 	0.65670 0.28010 0.45530 -0.39700
O 	O 	0.58470 0.08390 0.33780 -0.19000
C 	C 	0.64740 0.03960 0.32980 -0.02700
C 	C 	0.67340 0.24460 0.44140 0.33000
C 	C 	0.64870 0.22060 0.40700 -0.01500
C 	C 	0.66160 0.17900 0.39390 -0.12000
H 	H 	0.68520 0.16530 0.40770 0.11000
C 	C 	0.62480 0.08280 0.33800 0.18500
O 	O 	0.20860 0.72750 0.95490 -0.37200
O 	O 	0.15670 0.78010 0.95530 -0.38300
O 	O 	0.08470 0.58390 0.83780 -0.19200
C 	C 	0.14740 0.53960 0.82980 -0.03700
C 	C 	0.17340 0.74460 0.94140 0.32700
C 	C 	0.14870 0.72060 0.90700 -0.01000
C 	C 	0.16160 0.67900 0.89390 -0.12300
H 	H 	0.18520 0.66530 0.90770 0.11300
C 	C 	0.12480 0.58280 0.83800 0.19100
O 	O 	0.22750 0.45490 0.70860 -0.38700
O 	O 	0.28010 0.45530 0.65670 -0.39700
O 	O 	0.08390 0.33780 0.58470 -0.19000
C 	C 	0.03960 0.32980 0.64740 -0.02700
C 	C 	0.24460 0.44140 0.67340 0.33000
C 	C 	0.22060 0.40700 0.64870 -0.01500
C 	C 	0.17900 0.39390 0.66160 -0.12000
H 	H 	0.16530 0.40770 0.68520 0.11000
C 	C 	0.08280 0.33800 0.62480 0.18500
O 	O 	0.72750 0.95490 0.20860 -0.37200
O 	O 	0.78010 0.95530 0.15670 -0.38300
O 	O 	0.58390 0.83780 0.08470 -0.19200
C 	C 	0.53960 0.82980 0.14740 -0.03700
C 	C 	0.74460 0.94140 0.17340 0.32700
C 	C 	0.72060 0.90700 0.14870 -0.01000
C 	C 	0.67900 0.89390 0.16160 -0.12300
H 	H 	0.66530 0.90770 0.18520 0.11300
C 	C 	0.58280 0.83800 0.12480 0.19100
O 	O 	0.77250 0.45490 0.29140 -0.38600
O 	O 	0.71990 0.45530 0.34330 -0.39700
O 	O 	0.91610 0.33780 0.41530 -0.17700
C 	C 	0.96040 0.32980 0.35260 -0.01300
C 	C 	0.75540 0.44140 0.32660 0.33000
C 	C 	0.77940 0.40700 0.35130 -0.01400
C 	C 	0.82100 0.39390 0.33840 -0.12100
H 	H 	0.83470 0.40770 0.31480 0.11100
C 	C 	0.91720 0.33800 0.37520 0.18400
O 	O 	0.27250 0.95490 0.79140 -0.37200
O 	O 	0.21990 0.95530 0.84330 -0.38100
O 	O 	0.41610 0.83780 0.91530 -0.17700
C 	C 	0.46040 0.82980 0.85260 -0.03400
C 	C 	0.25540 0.94140 0.82660 0.32600
C 	C 	0.27940 0.90700 0.85130 -0.00500
C 	C 	0.32100 0.89390 0.83840 -0.12500
H 	H 	0.33470 0.90770 0.81480 0.11500
C 	C 	0.41720 0.83800 0.87520 0.18900
O 	O 	0.77250 0.54510 0.70860 -0.38600
O 	O 	0.71990 0.54470 0.65670 -0.39700
O 	O 	0.91610 0.66220 0.58470 -0.17700
C 	C 	0.96040 0.67020 0.64740 -0.01300
C 	C 	0.75540 0.55860 0.67340 0.33000
C 	C 	0.77940 0.59300 0.64870 -0.01400
C 	C 	0.82100 0.60610 0.66160 -0.12100
H 	H 	0.83470 0.59230 0.68520 0.11100
C 	C 	0.91720 0.66200 0.62480 0.18400
O 	O 	0.27250 0.04510 0.20860 -0.39300
O 	O 	0.21990 0.04470 0.15670 -0.40800
O 	O 	0.41610 0.16220 0.08470 -0.19600
C 	C 	0.46040 0.17020 0.14740 -0.03900
C 	C 	0.25540 0.05860 0.17340 0.33100
C 	C 	0.27940 0.09300 0.14870 -0.02200
C 	C 	0.32100 0.10610 0.16160 -0.11800
H 	H 	0.33470 0.09230 0.18520 0.10700
C 	C 	0.41720 0.16200 0.12480 0.19100
O 	O 	0.22750 0.54510 0.29140 -0.38700
O 	O 	0.28010 0.54470 0.34330 -0.39700
O 	O 	0.08390 0.66220 0.41530 -0.19000
C 	C 	0.03960 0.67020 0.35260 -0.02700
C 	C 	0.24460 0.55860 0.32660 0.33000
C 	C 	0.22060 0.59300 0.35130 -0.01500
C 	C 	0.17900 0.60610 0.33840 -0.12000
H 	H 	0.16530 0.59230 0.31480 0.11000
C 	C 	0.08280 0.66200 0.37520 0.18500
O 	O 	0.72750 0.04510 0.79140 -0.39200
O 	O 	0.78010 0.04470 0.84330 -0.40100
O 	O 	0.58390 0.16220 0.91530 -0.18100
C 	C 	0.53960 0.17020 0.85260 -0.03700
C 	C 	0.74460 0.05860 0.82660 0.32900
C 	C 	0.72060 0.09300 0.85130 -0.01500
C 	C 	0.67900 0.10610 0.83840 -0.12200
H 	H 	0.66530 0.09230 0.81480 0.10900
C 	C 	0.58280 0.16200 0.87520 0.18900
O 	O 	0.45490 0.29140 0.77250 -0.38600
O 	O 	0.45530 0.34330 0.71990 -0.39700
O 	O 	0.33780 0.41530 0.91610 -0.17700
C 	C 	0.32980 0.35260 0.96040 -0.01300
C 	C 	0.44140 0.32660 0.75540 0.33000
C 	C 	0.40700 0.35130 0.77940 -0.01400
C 	C 	0.39390 0.33840 0.82100 -0.12100
H 	H 	0.40770 0.31480 0.83470 0.11100
C 	C 	0.33800 0.37520 0.91720 0.18400
O 	O 	0.95490 0.79140 0.27250 -0.37200
O 	O 	0.95530 0.84330 0.21990 -0.38100
O 	O 	0.83780 0.91530 0.41610 -0.17700
C 	C 	0.82980 0.85260 0.46040 -0.03400
C 	C 	0.94140 0.82660 0.25540 0.32600
C 	C 	0.90700 0.85130 0.27940 -0.00500
C 	C 	0.89390 0.83840 0.32100 -0.12500
H 	H 	0.90770 0.81480 0.33470 0.11500
C 	C 	0.83800 0.87520 0.41720 0.18900
O 	O 	0.45490 0.70860 0.22750 -0.38700
O 	O 	0.45530 0.65670 0.28010 -0.39700
O 	O 	0.33780 0.58470 0.08390 -0.19000
C 	C 	0.32980 0.64740 0.03960 -0.02700
C 	C 	0.44140 0.67340 0.24460 0.33000
C 	C 	0.40700 0.64870 0.22060 -0.01500
C 	C 	0.39390 0.66160 0.17900 -0.12000
H 	H 	0.40770 0.68520 0.16530 0.11000
C 	C 	0.33800 0.62480 0.08280 0.18500
O 	O 	0.95490 0.20860 0.72750 -0.37200
O 	O 	0.95530 0.15670 0.78010 -0.38300
O 	O 	0.83780 0.08470 0.58390 -0.19200
C 	C 	0.82980 0.14740 0.53960 -0.03700
C 	C 	0.94140 0.17340 0.74460 0.32700
C 	C 	0.90700 0.14870 0.72060 -0.01000
C 	C 	0.89390 0.16160 0.67900 -0.12300
H 	H 	0.90770 0.18520 0.66530 0.11300
C 	C 	0.83800 0.12480 0.58280 0.19100
O 	O 	0.54510 0.29140 0.22750 -0.38700
O 	O 	0.54470 0.34330 0.28010 -0.39700
O 	O 	0.66220 0.41530 0.08390 -0.19000
C 	C 	0.67020 0.35260 0.03960 -0.02700
C 	C 	0.55860 0.32660 0.24460 0.33000
C 	C 	0.59300 0.35130 0.22060 -0.01500
C 	C 	0.60610 0.33840 0.17900 -0.12000
H 	H 	0.59230 0.31480 0.16530 0.11000
C 	C 	0.66200 0.37520 0.08280 0.18500
O 	O 	0.04510 0.79140 0.72750 -0.39200
O 	O 	0.04470 0.84330 0.78010 -0.40100
O 	O 	0.16220 0.91530 0.58390 -0.18100
C 	C 	0.17020 0.85260 0.53960 -0.03700
C 	C 	0.05860 0.82660 0.74460 0.32900
C 	C 	0.09300 0.85130 0.72060 -0.01500
C 	C 	0.10610 0.83840 0.67900 -0.12200
H 	H 	0.09230 0.81480 0.66530 0.10900
C 	C 	0.16200 0.87520 0.58280 0.18900
O 	O 	0.54510 0.70860 0.77250 -0.38600
O 	O 	0.54470 0.65670 0.71990 -0.39700
O 	O 	0.66220 0.58470 0.91610 -0.17700
C 	C 	0.67020 0.64740 0.96040 -0.01300
C 	C 	0.55860 0.67340 0.75540 0.33000
C 	C 	0.59300 0.64870 0.77940 -0.01400
C 	C 	0.60610 0.66160 0.82100 -0.12100
H 	H 	0.59230 0.68520 0.83470 0.11100
C 	C 	0.66200 0.62480 0.91720 0.18400
O 	O 	0.04510 0.20860 0.27250 -0.39300
O 	O 	0.04470 0.15670 0.21990 -0.40800
O 	O 	0.16220 0.08470 0.41610 -0.19600
C 	C 	0.17020 0.14740 0.46040 -0.03900
C 	C 	0.05860 0.17340 0.25540 0.33100
C 	C 	0.09300 0.14870 0.27940 -0.02200
C 	C 	0.10610 0.16160 0.32100 -0.11800
H 	H 	0.09230 0.18520 0.33470 0.10700
C 	C 	0.16200 0.12480 0.41720 0.19100
O 	O 	0.77250 0.70860 0.54510 -0.38600
O 	O 	0.71990 0.65670 0.54470 -0.39700
O 	O 	0.91610 0.58470 0.66220 -0.17700
C 	C 	0.96040 0.64740 0.67020 -0.01300
C 	C 	0.75540 0.67340 0.55860 0.33000
C 	C 	0.77940 0.64870 0.59300 -0.01400
C 	C 	0.82100 0.66160 0.60610 -0.12100
H 	H 	0.83470 0.68520 0.59230 0.11100
C 	C 	0.91720 0.62480 0.66200 0.18400
O 	O 	0.27250 0.20860 0.04510 -0.39300
O 	O 	0.21990 0.15670 0.04470 -0.40800
O 	O 	0.41610 0.08470 0.16220 -0.19600
C 	C 	0.46040 0.14740 0.17020 -0.03900
C 	C 	0.25540 0.17340 0.05860 0.33100
C 	C 	0.27940 0.14870 0.09300 -0.02200
C 	C 	0.32100 0.16160 0.10610 -0.11800
H 	H 	0.33470 0.18520 0.09230 0.10700
C 	C 	0.41720 0.12480 0.16200 0.19100
O 	O 	0.22750 0.29140 0.54510 -0.38700
O 	O 	0.28010 0.34330 0.54470 -0.39700
O 	O 	0.08390 0.41530 0.66220 -0.19000
C 	C 	0.03960 0.35260 0.67020 -0.02700
C 	C 	0.24460 0.32660 0.55860 0.33000
C 	C 	0.22060 0.35130 0.59300 -0.01500
C 	C 	0.17900 0.33840 0.60610 -0.12000
H 	H 	0.16530 0.31480 0.59230 0.11000
C 	C 	0.08280 0.37520 0.66200 0.18500
O 	O 	0.72750 0.79140 0.04510 -0.39200
O 	O 	0.78010 0.84330 0.04470 -0.40100
O 	O 	0.58390 0.91530 0.16220 -0.18100
C 	C 	0.53960 0.85260 0.17020 -0.03700
C 	C 	0.74460 0.82660 0.05860 0.32900
C 	C 	0.72060 0.85130 0.09300 -0.01500
C 	C 	0.67900 0.83840 0.10610 -0.12200
H 	H 	0.66530 0.81480 0.09230 0.10900
C 	C 	0.58280 0.87520 0.16200 0.18900
O 	O 	0.22750 0.70860 0.45490 -0.38700
O 	O 	0.28010 0.65670 0.45530 -0.39700
O 	O 	0.08390 0.58470 0.33780 -0.19000
C 	C 	0.03960 0.64740 0.32980 -0.02700
C 	C 	0.24460 0.67340 0.44140 0.33000
C 	C 	0.22060 0.64870 0.40700 -0.01500
C 	C 	0.17900 0.66160 0.39390 -0.12000
H 	H 	0.16530 0.68520 0.40770 0.11000
C 	C 	0.08280 0.62480 0.33800 0.18500
O 	O 	0.72750 0.20860 0.95490 -0.37200
O 	O 	0.78010 0.15670 0.95530 -0.38300
O 	O 	0.58390 0.08470 0.83780 -0.19200
C 	C 	0.53960 0.14740 0.82980 -0.03700
C 	C 	0.74460 0.17340 0.94140 0.32700
C 	C 	0.72060 0.14870 0.90700 -0.01000
C 	C 	0.67900 0.16160 0.89390 -0.12300
H 	H 	0.66530 0.18520 0.90770 0.11300
C 	C 	0.58280 0.12480 0.83800 0.19100
O 	O 	0.77250 0.29140 0.45490 -0.38600
O 	O 	0.71990 0.34330 0.45530 -0.39700
O 	O 	0.91610 0.41530 0.33780 -0.17700
C 	C 	0.96040 0.35260 0.32980 -0.01300
C 	C 	0.75540 0.32660 0.44140 0.33000
C 	C 	0.77940 0.35130 0.40700 -0.01400
C 	C 	0.82100 0.33840 0.39390 -0.12100
H 	H 	0.83470 0.31480 0.40770 0.11100
C 	C 	0.91720 0.37520 0.33800 0.18400
O 	O 	0.27250 0.79140 0.95490 -0.37200
O 	O 	0.21990 0.84330 0.95530 -0.38100
O 	O 	0.41610 0.91530 0.83780 -0.17700
C 	C 	0.46040 0.85260 0.82980 -0.03400
C 	C 	0.25540 0.82660 0.94140 0.32600
C 	C 	0.27940 0.85130 0.90700 -0.00500
C 	C 	0.32100 0.83840 0.89390 -0.12500
H 	H 	0.33470 0.81480 0.90770 0.11500
C 	C 	0.41720 0.87520 0.83800 0.18900
O 	O 	0.54510 0.77250 0.70860 -0.38600
O 	O 	0.54470 0.71990 0.65670 -0.39700
O 	O 	0.66220 0.91610 0.58470 -0.17700
C 	C 	0.67020 0.96040 0.64740 -0.01300
C 	C 	0.55860 0.75540 0.67340 0.33000
C 	C 	0.59300 0.77940 0.64870 -0.01400
C 	C 	0.60610 0.82100 0.66160 -0.12100
H 	H 	0.59230 0.83470 0.68520 0.11100
C 	C 	0.66200 0.91720 0.62480 0.18400
O 	O 	0.04510 0.27250 0.20860 -0.39300
O 	O 	0.04470 0.21990 0.15670 -0.40800
O 	O 	0.16220 0.41610 0.08470 -0.19600
C 	C 	0.17020 0.46040 0.14740 -0.03900
C 	C 	0.05860 0.25540 0.17340 0.33100
C 	C 	0.09300 0.27940 0.14870 -0.02200
C 	C 	0.10610 0.32100 0.16160 -0.11800
H 	H 	0.09230 0.33470 0.18520 0.10700
C 	C 	0.16200 0.41720 0.12480 0.19100
O 	O 	0.54510 0.22750 0.29140 -0.38700
O 	O 	0.54470 0.28010 0.34330 -0.39700
O 	O 	0.66220 0.08390 0.41530 -0.19000
C 	C 	0.67020 0.03960 0.35260 -0.02700
C 	C 	0.55860 0.24460 0.32660 0.33000
C 	C 	0.59300 0.22060 0.35130 -0.01500
C 	C 	0.60610 0.17900 0.33840 -0.12000
H 	H 	0.59230 0.16530 0.31480 0.11000
C 	C 	0.66200 0.08280 0.37520 0.18500
O 	O 	0.04510 0.72750 0.79140 -0.39200
O 	O 	0.04470 0.78010 0.84330 -0.40100
O 	O 	0.16220 0.58390 0.91530 -0.18100
C 	C 	0.17020 0.53960 0.85260 -0.03700
C 	C 	0.05860 0.74460 0.82660 0.32900
C 	C 	0.09300 0.72060 0.85130 -0.01500
C 	C 	0.10610 0.67900 0.83840 -0.12200
H 	H 	0.09230 0.66530 0.81480 0.10900
C 	C 	0.16200 0.58280 0.87520 0.18900
O 	O 	0.45490 0.22750 0.70860 -0.38700
O 	O 	0.45530 0.28010 0.65670 -0.39700
O 	O 	0.33780 0.08390 0.58470 -0.19000
C 	C 	0.32980 0.03960 0.64740 -0.02700
C 	C 	0.44140 0.24460 0.67340 0.33000
C 	C 	0.40700 0.22060 0.64870 -0.01500
C 	C 	0.39390 0.17900 0.66160 -0.12000
H 	H 	0.40770 0.16530 0.68520 0.11000
C 	C 	0.33800 0.08280 0.62480 0.18500
O 	O 	0.95490 0.72750 0.20860 -0.37200
O 	O 	0.95530 0.78010 0.15670 -0.38300
O 	O 	0.83780 0.58390 0.08470 -0.19200
C 	C 	0.82980 0.53960 0.14740 -0.03700
C 	C 	0.94140 0.74460 0.17340 0.32700
C 	C 	0.90700 0.72060 0.14870 -0.01000
C 	C 	0.89390 0.67900 0.16160 -0.12300
H 	H 	0.90770 0.66530 0.18520 0.11300
C 	C 	0.83800 0.58280 0.12480 0.19100
O 	O 	0.45490 0.77250 0.29140 -0.38600
O 	O 	0.45530 0.71990 0.34330 -0.39700
O 	O 	0.33780 0.91610 0.41530 -0.17700
C 	C 	0.32980 0.96040 0.35260 -0.01300
C 	C 	0.44140 0.75540 0.32660 0.33000
C 	C 	0.40700 0.77940 0.35130 -0.01400
C 	C 	0.39390 0.82100 0.33840 -0.12100
H 	H 	0.40770 0.83470 0.31480 0.11100
C 	C 	0.33800 0.91720 0.37520 0.18400
O 	O 	0.95490 0.27250 0.79140 -0.37200
O 	O 	0.95530 0.21990 0.84330 -0.38100
O 	O 	0.83780 0.41610 0.91530 -0.17700
C 	C 	0.82980 0.46040 0.85260 -0.03400
C 	C 	0.94140 0.25540 0.82660 0.32600
C 	C 	0.90700 0.27940 0.85130 -0.00500
C 	C 	0.89390 0.32100 0.83840 -0.12500
H 	H 	0.90770 0.33470 0.81480 0.11500
C 	C 	0.83800 0.41720 0.87520 0.18900
O 	O 	0.70860 0.54510 0.77250 -0.38600
O 	O 	0.65670 0.54470 0.71990 -0.39700
O 	O 	0.58470 0.66220 0.91610 -0.17700
C 	C 	0.64740 0.67020 0.96040 -0.01300
C 	C 	0.67340 0.55860 0.75540 0.33000
C 	C 	0.64870 0.59300 0.77940 -0.01400
C 	C 	0.66160 0.60610 0.82100 -0.12100
H 	H 	0.68520 0.59230 0.83470 0.11100
C 	C 	0.62480 0.66200 0.91720 0.18400
O 	O 	0.20860 0.04510 0.27250 -0.39300
O 	O 	0.15670 0.04470 0.21990 -0.40800
O 	O 	0.08470 0.16220 0.41610 -0.19600
C 	C 	0.14740 0.17020 0.46040 -0.03900
C 	C 	0.17340 0.05860 0.25540 0.33100
C 	C 	0.14870 0.09300 0.27940 -0.02200
C 	C 	0.16160 0.10610 0.32100 -0.11800
H 	H 	0.18520 0.09230 0.33470 0.10700
C 	C 	0.12480 0.16200 0.41720 0.19100
O 	O 	0.29140 0.54510 0.22750 -0.38700
O 	O 	0.34330 0.54470 0.28010 -0.39700
O 	O 	0.41530 0.66220 0.08390 -0.19000
C 	C 	0.35260 0.67020 0.03960 -0.02700
C 	C 	0.32660 0.55860 0.24460 0.33000
C 	C 	0.35130 0.59300 0.22060 -0.01500
C 	C 	0.33840 0.60610 0.17900 -0.12000
H 	H 	0.31480 0.59230 0.16530 0.11000
C 	C 	0.37520 0.66200 0.08280 0.18500
O 	O 	0.79140 0.04510 0.72750 -0.39200
O 	O 	0.84330 0.04470 0.78010 -0.40100
O 	O 	0.91530 0.16220 0.58390 -0.18100
C 	C 	0.85260 0.17020 0.53960 -0.03700
C 	C 	0.82660 0.05860 0.74460 0.32900
C 	C 	0.85130 0.09300 0.72060 -0.01500
C 	C 	0.83840 0.10610 0.67900 -0.12200
H 	H 	0.81480 0.09230 0.66530 0.10900
C 	C 	0.87520 0.16200 0.58280 0.18900
O 	O 	0.70860 0.45490 0.22750 -0.38700
O 	O 	0.65670 0.45530 0.28010 -0.39700
O 	O 	0.58470 0.33780 0.08390 -0.19000
C 	C 	0.64740 0.32980 0.03960 -0.02700
C 	C 	0.67340 0.44140 0.24460 0.33000
C 	C 	0.64870 0.40700 0.22060 -0.01500
C 	C 	0.66160 0.39390 0.17900 -0.12000
H 	H 	0.68520 0.40770 0.16530 0.11000
C 	C 	0.62480 0.33800 0.08280 0.18500
O 	O 	0.20860 0.95490 0.72750 -0.37200
O 	O 	0.15670 0.95530 0.78010 -0.38300
O 	O 	0.08470 0.83780 0.58390 -0.19200
C 	C 	0.14740 0.82980 0.53960 -0.03700
C 	C 	0.17340 0.94140 0.74460 0.32700
C 	C 	0.14870 0.90700 0.72060 -0.01000
C 	C 	0.16160 0.89390 0.67900 -0.12300
H 	H 	0.18520 0.90770 0.66530 0.11300
C 	C 	0.12480 0.83800 0.58280 0.19100
O 	O 	0.29140 0.45490 0.77250 -0.38600
O 	O 	0.34330 0.45530 0.71990 -0.39700
O 	O 	0.41530 0.33780 0.91610 -0.17700
C 	C 	0.35260 0.32980 0.96040 -0.01300
C 	C 	0.32660 0.44140 0.75540 0.33000
C 	C 	0.35130 0.40700 0.77940 -0.01400
C 	C 	0.33840 0.39390 0.82100 -0.12100
H 	H 	0.31480 0.40770 0.83470 0.11100
C 	C 	0.37520 0.33800 0.91720 0.18400
O 	O 	0.79140 0.95490 0.27250 -0.37200
O 	O 	0.84330 0.95530 0.21990 -0.38100
O 	O 	0.91530 0.83780 0.41610 -0.17700
C 	C 	0.85260 0.82980 0.46040 -0.03400
C 	C 	0.82660 0.94140 0.25540 0.32600
C 	C 	0.85130 0.90700 0.27940 -0.00500
C 	C 	0.83840 0.89390 0.32100 -0.12500
H 	H 	0.81480 0.90770 0.33470 0.11500
C 	C 	0.87520 0.83800 0.41720 0.18900
O 	O 	0.70860 0.77250 0.45490 -0.38600
O 	O 	0.65670 0.71990 0.45530 -0.39700
O 	O 	0.58470 0.91610 0.33780 -0.17700
C 	C 	0.64740 0.96040 0.32980 -0.01300
C 	C 	0.67340 0.75540 0.44140 0.33000
C 	C 	0.64870 0.77940 0.40700 -0.01400
C 	C 	0.66160 0.82100 0.39390 -0.12100
H 	H 	0.68520 0.83470 0.40770 0.11100
C 	C 	0.62480 0.91720 0.33800 0.18400
O 	O 	0.20860 0.27250 0.95490 -0.37200
O 	O 	0.15670 0.21990 0.95530 -0.38500
O 	O 	0.08470 0.41610 0.83780 -0.19200
C 	C 	0.14740 0.46040 0.82980 -0.03700
C 	C 	0.17340 0.25540 0.94140 0.32800
C 	C 	0.14870 0.27940 0.90700 -0.01100
C 	C 	0.16160 0.32100 0.89390 -0.12200
H 	H 	0.18520 0.33470 0.90770 0.11300
C 	C 	0.12480 0.41720 0.83800 0.19100
O 	O 	0.29140 0.22750 0.45490 -0.38700
O 	O 	0.34330 0.28010 0.45530 -0.39700
O 	O 	0.41530 0.08390 0.33780 -0.19000
C 	C 	0.35260 0.03960 0.32980 -0.02700
C 	C 	0.32660 0.24460 0.44140 0.33000
C 	C 	0.35130 0.22060 0.40700 -0.01500
C 	C 	0.33840 0.17900 0.39390 -0.12000
H 	H 	0.31480 0.16530 0.40770 0.11000
C 	C 	0.37520 0.08280 0.33800 0.18500
O 	O 	0.79140 0.72750 0.95490 -0.37100
O 	O 	0.84330 0.78010 0.95530 -0.37900
O 	O 	0.91530 0.58390 0.83780 -0.17700
C 	C 	0.85260 0.53960 0.82980 -0.03400
C 	C 	0.82660 0.74460 0.94140 0.32500
C 	C 	0.85130 0.72060 0.90700 -0.00400
C 	C 	0.83840 0.67900 0.89390 -0.12600
H 	H 	0.81480 0.66530 0.90770 0.11500
C 	C 	0.87520 0.58280 0.83800 0.18900
O 	O 	0.70860 0.22750 0.54510 -0.38700
O 	O 	0.65670 0.28010 0.54470 -0.39700
O 	O 	0.58470 0.08390 0.66220 -0.19000
C 	C 	0.64740 0.03960 0.67020 -0.02700
C 	C 	0.67340 0.24460 0.55860 0.33000
C 	C 	0.64870 0.22060 0.59300 -0.01500
C 	C 	0.66160 0.17900 0.60610 -0.12000
H 	H 	0.68520 0.16530 0.59230 0.10900
C 	C 	0.62480 0.08280 0.66200 0.18500
O 	O 	0.20860 0.72750 0.04510 -0.39300
O 	O 	0.15670 0.78010 0.04470 -0.40600
O 	O 	0.08470 0.58390 0.16220 -0.19600
C 	C 	0.14740 0.53960 0.17020 -0.03900
C 	C 	0.17340 0.74460 0.05860 0.33000
C 	C 	0.14870 0.72060 0.09300 -0.02100
C 	C 	0.16160 0.67900 0.10610 -0.11900
H 	H 	0.18520 0.66530 0.09230 0.10700
C 	C 	0.12480 0.58280 0.16200 0.19100
O 	O 	0.29140 0.77250 0.54510 -0.38600
O 	O 	0.34330 0.71990 0.54470 -0.39700
O 	O 	0.41530 0.91610 0.66220 -0.17700
C 	C 	0.35260 0.96040 0.67020 -0.01300
C 	C 	0.32660 0.75540 0.55860 0.33000
C 	C 	0.35130 0.77940 0.59300 -0.01400
C 	C 	0.33840 0.82100 0.60610 -0.12100
H 	H 	0.31480 0.83470 0.59230 0.11100
C 	C 	0.37520 0.91720 0.66200 0.18400
O 	O 	0.79140 0.27250 0.04510 -0.39200
O 	O 	0.84330 0.21990 0.04470 -0.40300
O 	O 	0.91530 0.41610 0.16220 -0.18100
C 	C 	0.85260 0.46040 0.17020 -0.03700
C 	C 	0.82660 0.25540 0.05860 0.33000
C 	C 	0.85130 0.27940 0.09300 -0.01600
C 	C 	0.83840 0.32100 0.10610 -0.12100
H 	H 	0.81480 0.33470 0.09230 0.10800
C 	C 	0.87520 0.41720 0.16200 0.18900
O 	O 	0.77250 0.54510 0.29140 -0.38600
O 	O 	0.71990 0.54470 0.34330 -0.39700
O 	O 	0.91610 0.66220 0.41530 -0.17700
C 	C 	0.96040 0.67020 0.35260 -0.01300
C 	C 	0.75540 0.55860 0.32660 0.33000
C 	C 	0.77940 0.59300 0.35130 -0.01400
C 	C 	0.82100 0.60610 0.33840 -0.12100
H 	H 	0.83470 0.59230 0.31480 0.11100
C 	C 	0.91720 0.66200 0.37520 0.18400
O 	O 	0.27250 0.04510 0.79140 -0.39200
O 	O 	0.21990 0.04470 0.84330 -0.40300
O 	O 	0.41610 0.16220 0.91530 -0.18100
C 	C 	0.46040 0.17020 0.85260 -0.03700
C 	C 	0.25540 0.05860 0.82660 0.33000
C 	C 	0.27940 0.09300 0.85130 -0.01600
C 	C 	0.32100 0.10610 0.83840 -0.12100
H 	H 	0.33470 0.09230 0.81480 0.10800
C 	C 	0.41720 0.16200 0.87520 0.18900
O 	O 	0.22750 0.54510 0.70860 -0.38700
O 	O 	0.28010 0.54470 0.65670 -0.39700
O 	O 	0.08390 0.66220 0.58470 -0.19000
C 	C 	0.03960 0.67020 0.64740 -0.02700
C 	C 	0.24460 0.55860 0.67340 0.33000
C 	C 	0.22060 0.59300 0.64870 -0.01500
C 	C 	0.17900 0.60610 0.66160 -0.12000
H 	H 	0.16530 0.59230 0.68520 0.10900
C 	C 	0.08280 0.66200 0.62480 0.18500
O 	O 	0.72750 0.04510 0.20860 -0.39300
O 	O 	0.78010 0.04470 0.15670 -0.40600
O 	O 	0.58390 0.16220 0.08470 -0.19600
C 	C 	0.53960 0.17020 0.14740 -0.03900
C 	C 	0.74460 0.05860 0.17340 0.33000
C 	C 	0.72060 0.09300 0.14870 -0.02100
C 	C 	0.67900 0.10610 0.16160 -0.11900
H 	H 	0.66530 0.09230 0.18520 0.10700
C 	C 	0.58280 0.16200 0.12480 0.19100
O 	O 	0.22750 0.45490 0.29140 -0.38700
O 	O 	0.28010 0.45530 0.34330 -0.39700
O 	O 	0.08390 0.33780 0.41530 -0.19000
C 	C 	0.03960 0.32980 0.35260 -0.02700
C 	C 	0.24460 0.44140 0.32660 0.33000
C 	C 	0.22060 0.40700 0.35130 -0.01500
C 	C 	0.17900 0.39390 0.33840 -0.12000
H 	H 	0.16530 0.40770 0.31480 0.11000
C 	C 	0.08280 0.33800 0.37520 0.18500
O 	O 	0.72750 0.95490 0.79140 -0.37100
O 	O 	0.78010 0.95530 0.84330 -0.37900
O 	O 	0.58390 0.83780 0.91530 -0.17700
C 	C 	0.53960 0.82980 0.85260 -0.03400
C 	C 	0.74460 0.94140 0.82660 0.32500
C 	C 	0.72060 0.90700 0.85130 -0.00400
C 	C 	0.67900 0.89390 0.83840 -0.12600
H 	H 	0.66530 0.90770 0.81480 0.11500
C 	C 	0.58280 0.83800 0.87520 0.18900
O 	O 	0.77250 0.45490 0.70860 -0.38600
O 	O 	0.71990 0.45530 0.65670 -0.39700
O 	O 	0.91610 0.33780 0.58470 -0.17700
C 	C 	0.96040 0.32980 0.64740 -0.01300
C 	C 	0.75540 0.44140 0.67340 0.33000
C 	C 	0.77940 0.40700 0.64870 -0.01400
C 	C 	0.82100 0.39390 0.66160 -0.12100
H 	H 	0.83470 0.40770 0.68520 0.11100
C 	C 	0.91720 0.33800 0.62480 0.18400
O 	O 	0.27250 0.95490 0.20860 -0.37200
O 	O 	0.21990 0.95530 0.15670 -0.38500
O 	O 	0.41610 0.83780 0.08470 -0.19200
C 	C 	0.46040 0.82980 0.14740 -0.03700
C 	C 	0.25540 0.94140 0.17340 0.32800
C 	C 	0.27940 0.90700 0.14870 -0.01100
C 	C 	0.32100 0.89390 0.16160 -0.12200
H 	H 	0.33470 0.90770 0.18520 0.11300
C 	C 	0.41720 0.83800 0.12480 0.19100
O 	O 	0.54510 0.70860 0.22750 -0.38700
O 	O 	0.54470 0.65670 0.28010 -0.39700
O 	O 	0.66220 0.58470 0.08390 -0.19000
C 	C 	0.67020 0.64740 0.03960 -0.02700
C 	C 	0.55860 0.67340 0.24460 0.33000
C 	C 	0.59300 0.64870 0.22060 -0.01500
C 	C 	0.60610 0.66160 0.17900 -0.12000
H 	H 	0.59230 0.68520 0.16530 0.10900
C 	C 	0.66200 0.62480 0.08280 0.18500
O 	O 	0.04510 0.20860 0.72750 -0.39300
O 	O 	0.04470 0.15670 0.78010 -0.40600
O 	O 	0.16220 0.08470 0.58390 -0.19600
C 	C 	0.17020 0.14740 0.53960 -0.03900
C 	C 	0.05860 0.17340 0.74460 0.33000
C 	C 	0.09300 0.14870 0.72060 -0.02100
C 	C 	0.10610 0.16160 0.67900 -0.11900
H 	H 	0.09230 0.18520 0.66530 0.10700
C 	C 	0.16200 0.12480 0.58280 0.19100
O 	O 	0.54510 0.29140 0.77250 -0.38600
O 	O 	0.54470 0.34330 0.71990 -0.39700
O 	O 	0.66220 0.41530 0.91610 -0.17700
C 	C 	0.67020 0.35260 0.96040 -0.01300
C 	C 	0.55860 0.32660 0.75540 0.33000
C 	C 	0.59300 0.35130 0.77940 -0.01400
C 	C 	0.60610 0.33840 0.82100 -0.12100
H 	H 	0.59230 0.31480 0.83470 0.11100
C 	C 	0.66200 0.37520 0.91720 0.18400
O 	O 	0.04510 0.79140 0.27250 -0.39200
O 	O 	0.04470 0.84330 0.21990 -0.40300
O 	O 	0.16220 0.91530 0.41610 -0.18100
C 	C 	0.17020 0.85260 0.46040 -0.03700
C 	C 	0.05860 0.82660 0.25540 0.33000
C 	C 	0.09300 0.85130 0.27940 -0.01600
C 	C 	0.10610 0.83840 0.32100 -0.12100
H 	H 	0.09230 0.81480 0.33470 0.10800
C 	C 	0.16200 0.87520 0.41720 0.18900
O 	O 	0.45490 0.70860 0.77250 -0.38600
O 	O 	0.45530 0.65670 0.71990 -0.39700
O 	O 	0.33780 0.58470 0.91610 -0.17700
C 	C 	0.32980 0.64740 0.96040 -0.01300
C 	C 	0.44140 0.67340 0.75540 0.33000
C 	C 	0.40700 0.64870 0.77940 -0.01400
C 	C 	0.39390 0.66160 0.82100 -0.12100
H 	H 	0.40770 0.68520 0.83470 0.11100
C 	C 	0.33800 0.62480 0.91720 0.18400
O 	O 	0.95490 0.20860 0.27250 -0.37200
O 	O 	0.95530 0.15670 0.21990 -0.38500
O 	O 	0.83780 0.08470 0.41610 -0.19200
C 	C 	0.82980 0.14740 0.46040 -0.03700
C 	C 	0.94140 0.17340 0.25540 0.32800
C 	C 	0.90700 0.14870 0.27940 -0.01100
C 	C 	0.89390 0.16160 0.32100 -0.12200
H 	H 	0.90770 0.18520 0.33470 0.11300
C 	C 	0.83800 0.12480 0.41720 0.19100
O 	O 	0.45490 0.29140 0.22750 -0.38700
O 	O 	0.45530 0.34330 0.28010 -0.39700
O 	O 	0.33780 0.41530 0.08390 -0.19000
C 	C 	0.32980 0.35260 0.03960 -0.02700
C 	C 	0.44140 0.32660 0.24460 0.33000
C 	C 	0.40700 0.35130 0.22060 -0.01500
C 	C 	0.39390 0.33840 0.17900 -0.12000
H 	H 	0.40770 0.31480 0.16530 0.11000
C 	C 	0.33800 0.37520 0.08280 0.18500
O 	O 	0.95490 0.79140 0.72750 -0.37100
O 	O 	0.95530 0.84330 0.78010 -0.37900
O 	O 	0.83780 0.91530 0.58390 -0.17700
C 	C 	0.82980 0.85260 0.53960 -0.03400
C 	C 	0.94140 0.82660 0.74460 0.32500
C 	C 	0.90700 0.85130 0.72060 -0.00400
C 	C 	0.89390 0.83840 0.67900 -0.12600
H 	H 	0.90770 0.81480 0.66530 0.11500
C 	C 	0.83800 0.87520 0.58280 0.18900
Cu	Cu	0.00000 0.18366 0.18366 0.89600
Cu	Cu	0.00000 0.24516 0.24516 0.90900
N 	N 	0.00000 0.29500 0.29500 -0.20400
Cu	Cu	0.50000 0.68366 0.68366 0.91100
Cu	Cu	0.50000 0.74516 0.74516 0.92200
N 	N 	0.50000 0.79500 0.79500 -0.18600
Cu	Cu	0.00000 0.81634 0.18366 0.89700
Cu	Cu	0.00000 0.75484 0.24516 0.90900
N 	N 	0.00000 0.70500 0.29500 -0.20400
Cu	Cu	0.50000 0.31634 0.68366 0.91100
Cu	Cu	0.50000 0.25484 0.74516 0.92200
N 	N 	0.50000 0.20500 0.79500 -0.18700
Cu	Cu	0.00000 0.18366 0.81634 0.89700
Cu	Cu	0.00000 0.24516 0.75484 0.90900
N 	N 	0.00000 0.29500 0.70500 -0.20400
Cu	Cu	0.50000 0.68366 0.31634 0.91100
Cu	Cu	0.50000 0.74516 0.25484 0.92200
N 	N 	0.50000 0.79500 0.20500 -0.18700
Cu	Cu	0.00000 0.81634 0.81634 0.89900
Cu	Cu	0.00000 0.75484 0.75484 0.90900
N 	N 	0.00000 0.70500 0.70500 -0.20500
Cu	Cu	0.50000 0.31634 0.31634 0.91100
Cu	Cu	0.50000 0.25484 0.25484 0.92200
N 	N 	0.50000 0.20500 0.20500 -0.18800
Cu	Cu	0.18366 0.00000 0.18366 0.89600
Cu	Cu	0.24516 0.00000 0.24516 0.90900
N 	N 	0.29500 0.00000 0.29500 -0.20400
Cu	Cu	0.68366 0.50000 0.68366 0.91100
Cu	Cu	0.74516 0.50000 0.74516 0.92200
N 	N 	0.79500 0.50000 0.79500 -0.18600
Cu	Cu	0.18366 0.00000 0.81634 0.89700
Cu	Cu	0.24516 0.00000 0.75484 0.90900
N 	N 	0.29500 0.00000 0.70500 -0.20400
Cu	Cu	0.68366 0.50000 0.31634 0.91100
Cu	Cu	0.74516 0.50000 0.25484 0.92200
N 	N 	0.79500 0.50000 0.20500 -0.18700
Cu	Cu	0.81634 0.00000 0.18366 0.89700
Cu	Cu	0.75484 0.00000 0.24516 0.90900
N 	N 	0.70500 0.00000 0.29500 -0.20400
Cu	Cu	0.31634 0.50000 0.68366 0.91100
Cu	Cu	0.25484 0.50000 0.74516 0.92200
N 	N 	0.20500 0.50000 0.79500 -0.18700
Cu	Cu	0.81634 0.00000 0.81634 0.89900
Cu	Cu	0.75484 0.00000 0.75484 0.90900
N 	N 	0.70500 0.00000 0.70500 -0.20500
Cu	Cu	0.31634 0.50000 0.31634 0.91100
Cu	Cu	0.25484 0.50000 0.25484 0.92200
N 	N 	0.20500 0.50000 0.20500 -0.18800
Cu	Cu	0.18366 0.18366 -0.00000 0.89600
Cu	Cu	0.24516 0.24516 -0.00000 0.90900
N 	N 	0.29500 0.29500 -0.00000 -0.20400
Cu	Cu	0.68366 0.68366 0.50000 0.91100
Cu	Cu	0.74516 0.74516 0.50000 0.92200
N 	N 	0.79500 0.79500 0.50000 -0.18600
Cu	Cu	0.81634 0.18366 -0.00000 0.89700
Cu	Cu	0.75484 0.24516 -0.00000 0.90900
N 	N 	0.70500 0.29500 -0.00000 -0.20400
Cu	Cu	0.31634 0.68366 0.50000 0.91100
Cu	Cu	0.25484 0.74516 0.50000 0.92200
N 	N 	0.20500 0.79500 0.50000 -0.18700
Cu	Cu	0.18366 0.81634 -0.00000 0.89700
Cu	Cu	0.24516 0.75484 -0.00000 0.90900
N 	N 	0.29500 0.70500 -0.00000 -0.20400
Cu	Cu	0.68366 0.31634 0.50000 0.91100
Cu	Cu	0.74516 0.25484 0.50000 0.92200
N 	N 	0.79500 0.20500 0.50000 -0.18700
Cu	Cu	0.81634 0.81634 -0.00000 0.89900
Cu	Cu	0.75484 0.75484 -0.00000 0.90900
N 	N 	0.70500 0.70500 -0.00000 -0.20500
Cu	Cu	0.31634 0.31634 0.50000 0.91100
Cu	Cu	0.25484 0.25484 0.50000 0.92200
N 	N 	0.20500 0.20500 0.50000 -0.18800
N 	N 	0.11490 0.34770 0.34770 -0.26300
H 	H 	0.11550 0.32680 0.32680 0.12500
C 	C 	0.03700 0.30940 0.30940 0.06400
H 	H 	0.06500 0.29990 0.29990 0.01100
C 	C 	0.24240 0.38450 0.38450 -0.03300
H 	H 	0.27130 0.39160 0.39160 0.07500
C 	C 	0.15780 0.36050 0.36050 0.16700
N 	N 	0.61490 0.84770 0.84770 -0.26500
H 	H 	0.61550 0.82680 0.82680 0.12600
C 	C 	0.53700 0.80940 0.80940 0.07300
H 	H 	0.56500 0.79990 0.79990 0.00900
C 	C 	0.74240 0.88450 0.88450 -0.04000
H 	H 	0.77130 0.89160 0.89160 0.08200
C 	C 	0.65780 0.86050 0.86050 0.17500
N 	N 	0.88510 0.65230 0.34770 -0.26300
H 	H 	0.88450 0.67320 0.32680 0.12500
C 	C 	0.96300 0.69060 0.30940 0.09700
H 	H 	0.93500 0.70010 0.29990 0.00300
C 	C 	0.75760 0.61550 0.38450 -0.03400
H 	H 	0.72870 0.60840 0.39160 0.07500
C 	C 	0.84220 0.63950 0.36050 0.16900
N 	N 	0.38510 0.15230 0.84770 -0.26600
H 	H 	0.38450 0.17320 0.82680 0.12600
C 	C 	0.46300 0.19060 0.80940 0.07400
H 	H 	0.43500 0.20010 0.79990 0.00800
C 	C 	0.25760 0.11550 0.88450 -0.03400
H 	H 	0.22870 0.10840 0.89160 0.07500
C 	C 	0.34220 0.13950 0.86050 0.16900
N 	N 	0.88510 0.34770 0.65230 -0.26300
H 	H 	0.88450 0.32680 0.67320 0.12500
C 	C 	0.96300 0.30940 0.69060 0.09700
H 	H 	0.93500 0.29990 0.70010 0.00300
C 	C 	0.75760 0.38450 0.61550 -0.03400
H 	H 	0.72870 0.39160 0.60840 0.07500
C 	C 	0.84220 0.36050 0.63950 0.16900
N 	N 	0.38510 0.84770 0.15230 -0.26600
H 	H 	0.38450 0.82680 0.17320 0.12600
C 	C 	0.46300 0.80940 0.19060 0.07400
H 	H 	0.43500 0.79990 0.20010 0.00800
C 	C 	0.25760 0.88450 0.11550 -0.03400
H 	H 	0.22870 0.89160 0.10840 0.07500
C 	C 	0.34220 0.86050 0.13950 0.16900
N 	N 	0.11490 0.65230 0.65230 -0.26300
H 	H 	0.11550 0.67320 0.67320 0.12500
C 	C 	0.03700 0.69060 0.69060 0.06400
H 	H 	0.06500 0.70010 0.70010 0.01000
C 	C 	0.24240 0.61550 0.61550 -0.03300
H 	H 	0.27130 0.60840 0.60840 0.07500
C 	C 	0.15780 0.63950 0.63950 0.16700
N 	N 	0.61490 0.15230 0.15230 -0.26600
H 	H 	0.61550 0.17320 0.17320 0.12600
C 	C 	0.53700 0.19060 0.19060 0.07600
H 	H 	0.56500 0.20010 0.20010 0.00700
C 	C 	0.74240 0.11550 0.11550 -0.03100
H 	H 	0.77130 0.10840 0.10840 0.07100
C 	C 	0.65780 0.13950 0.13950 0.16500
N 	N 	0.34770 0.11490 0.34770 -0.26300
H 	H 	0.32680 0.11550 0.32680 0.12500
C 	C 	0.30940 0.03700 0.30940 0.06400
H 	H 	0.29990 0.06500 0.29990 0.01100
C 	C 	0.38450 0.24240 0.38450 -0.03300
H 	H 	0.39160 0.27130 0.39160 0.07500
C 	C 	0.36050 0.15780 0.36050 0.16700
N 	N 	0.84770 0.61490 0.84770 -0.26500
H 	H 	0.82680 0.61550 0.82680 0.12600
C 	C 	0.80940 0.53700 0.80940 0.07300
H 	H 	0.79990 0.56500 0.79990 0.00900
C 	C 	0.88450 0.74240 0.88450 -0.04000
H 	H 	0.89160 0.77130 0.89160 0.08200
C 	C 	0.86050 0.65780 0.86050 0.17500
N 	N 	0.34770 0.88510 0.65230 -0.26300
H 	H 	0.32680 0.88450 0.67320 0.12500
C 	C 	0.30940 0.96300 0.69060 0.09700
H 	H 	0.29990 0.93500 0.70010 0.00300
C 	C 	0.38450 0.75760 0.61550 -0.03400
H 	H 	0.39160 0.72870 0.60840 0.07500
C 	C 	0.36050 0.84220 0.63950 0.16900
N 	N 	0.84770 0.38510 0.15230 -0.26600
H 	H 	0.82680 0.38450 0.17320 0.12600
C 	C 	0.80940 0.46300 0.19060 0.07400
H 	H 	0.79990 0.43500 0.20010 0.00800
C 	C 	0.88450 0.25760 0.11550 -0.03400
H 	H 	0.89160 0.22870 0.10840 0.07500
C 	C 	0.86050 0.34220 0.13950 0.16900
N 	N 	0.65230 0.88510 0.34770 -0.26300
H 	H 	0.67320 0.88450 0.32680 0.12500
C 	C 	0.69060 0.96300 0.30940 0.09700
H 	H 	0.70010 0.93500 0.29990 0.00300
C 	C 	0.61550 0.75760 0.38450 -0.03400
H 	H 	0.60840 0.72870 0.39160 0.07500
C 	C 	0.63950 0.84220 0.36050 0.16900
N 	N 	0.15230 0.38510 0.84770 -0.26600
H 	H 	0.17320 0.38450 0.82680 0.12600
C 	C 	0.19060 0.46300 0.80940 0.07400
H 	H 	0.20010 0.43500 0.79990 0.00800
C 	C 	0.11550 0.25760 0.88450 -0.03400
H 	H 	0.10840 0.22870 0.89160 0.07500
C 	C 	0.13950 0.34220 0.86050 0.16900
N 	N 	0.65230 0.11490 0.65230 -0.26300
H 	H 	0.67320 0.11550 0.67320 0.12500
C 	C 	0.69060 0.03700 0.69060 0.06400
H 	H 	0.70010 0.06500 0.70010 0.01000
C 	C 	0.61550 0.24240 0.61550 -0.03300
H 	H 	0.60840 0.27130 0.60840 0.07500
C 	C 	0.63950 0.15780 0.63950 0.16700
N 	N 	0.15230 0.61490 0.15230 -0.26600
H 	H 	0.17320 0.61550 0.17320 0.12600
C 	C 	0.19060 0.53700 0.19060 0.07600
H 	H 	0.20010 0.56500 0.20010 0.00700
C 	C 	0.11550 0.74240 0.11550 -0.03100
H 	H 	0.10840 0.77130 0.10840 0.07100
C 	C 	0.13950 0.65780 0.13950 0.16500
N 	N 	0.34770 0.34770 0.11490 -0.26300
H 	H 	0.32680 0.32680 0.11550 0.12500
C 	C 	0.30940 0.30940 0.03700 0.06400
H 	H 	0.29990 0.29990 0.06500 0.01100
C 	C 	0.38450 0.38450 0.24240 -0.03300
H 	H 	0.39160 0.39160 0.27130 0.07500
C 	C 	0.36050 0.36050 0.15780 0.16700
N 	N 	0.84770 0.84770 0.61490 -0.26500
H 	H 	0.82680 0.82680 0.61550 0.12600
C 	C 	0.80940 0.80940 0.53700 0.07300
H 	H 	0.79990 0.79990 0.56500 0.00900
C 	C 	0.88450 0.88450 0.74240 -0.04000
H 	H 	0.89160 0.89160 0.77130 0.08200
C 	C 	0.86050 0.86050 0.65780 0.17500
N 	N 	0.65230 0.34770 0.88510 -0.26300
H 	H 	0.67320 0.32680 0.88450 0.12500
C 	C 	0.69060 0.30940 0.96300 0.09700
H 	H 	0.70010 0.29990 0.93500 0.00300
C 	C 	0.61550 0.38450 0.75760 -0.03400
H 	H 	0.60840 0.39160 0.72870 0.07500
C 	C 	0.63950 0.36050 0.84220 0.16900
N 	N 	0.15230 0.84770 0.38510 -0.26600
H 	H 	0.17320 0.82680 0.38450 0.12600
C 	C 	0.19060 0.80940 0.46300 0.07400
H 	H 	0.20010 0.79990 0.43500 0.00800
C 	C 	0.11550 0.88450 0.25760 -0.03400
H 	H 	0.10840 0.89160 0.22870 0.07500
C 	C 	0.13950 0.86050 0.34220 0.16900
N 	N 	0.34770 0.65230 0.88510 -0.26300
H 	H 	0.32680 0.67320 0.88450 0.12500
C 	C 	0.30940 0.69060 0.96300 0.09700
H 	H 	0.29990 0.70010 0.93500 0.00300
C 	C 	0.38450 0.61550 0.75760 -0.03400
H 	H 	0.39160 0.60840 0.72870 0.07500
C 	C 	0.36050 0.63950 0.84220 0.16900
N 	N 	0.84770 0.15230 0.38510 -0.26600
H 	H 	0.82680 0.17320 0.38450 0.12600
C 	C 	0.80940 0.19060 0.46300 0.07400
H 	H 	0.79990 0.20010 0.43500 0.00800
C 	C 	0.88450 0.11550 0.25760 -0.03400
H 	H 	0.89160 0.10840 0.22870 0.07500
C 	C 	0.86050 0.13950 0.34220 0.16900
N 	N 	0.65230 0.65230 0.11490 -0.26300
H 	H 	0.67320 0.67320 0.11550 0.12500
C 	C 	0.69060 0.69060 0.03700 0.06400
H 	H 	0.70010 0.70010 0.06500 0.01000
C 	C 	0.61550 0.61550 0.24240 -0.03300
H 	H 	0.60840 0.60840 0.27130 0.07500
C 	C 	0.63950 0.63950 0.15780 0.16700
N 	N 	0.15230 0.15230 0.61490 -0.26600
H 	H 	0.17320 0.17320 0.61550 0.12600
C 	C 	0.19060 0.19060 0.53700 0.07600
H 	H 	0.20010 0.20010 0.56500 0.00700
C 	C 	0.11550 0.11550 0.74240 -0.03100
H 	H 	0.10840 0.10840 0.77130 0.07100
C 	C 	0.13950 0.13950 0.65780 0.16500
N 	N 	0.34770 0.11490 0.65230 -0.26300
H 	H 	0.32680 0.11550 0.67320 0.12500
C 	C 	0.30940 0.03700 0.69060 0.06400
H 	H 	0.29990 0.06500 0.70010 0.01000
C 	C 	0.38450 0.24240 0.61550 -0.03300
H 	H 	0.39160 0.27130 0.60840 0.07500
C 	C 	0.36050 0.15780 0.63950 0.16700
N 	N 	0.84770 0.61490 0.15230 -0.26600
H 	H 	0.82680 0.61550 0.17320 0.12600
C 	C 	0.80940 0.53700 0.19060 0.07400
H 	H 	0.79990 0.56500 0.20010 0.00800
C 	C 	0.88450 0.74240 0.11550 -0.03600
H 	H 	0.89160 0.77130 0.10840 0.07700
C 	C 	0.86050 0.65780 0.13950 0.17000
N 	N 	0.65230 0.88510 0.65230 -0.26300
H 	H 	0.67320 0.88450 0.67320 0.12500
C 	C 	0.69060 0.96300 0.69060 0.09700
H 	H 	0.70010 0.93500 0.70010 0.00300
C 	C 	0.61550 0.75760 0.61550 -0.03400
H 	H 	0.60840 0.72870 0.60840 0.07500
C 	C 	0.63950 0.84220 0.63950 0.16900
N 	N 	0.15230 0.38510 0.15230 -0.26600
H 	H 	0.17320 0.38450 0.17320 0.12600
C 	C 	0.19060 0.46300 0.19060 0.07600
H 	H 	0.20010 0.43500 0.20010 0.00700
C 	C 	0.11550 0.25760 0.11550 -0.03000
H 	H 	0.10840 0.22870 0.10840 0.06900
C 	C 	0.13950 0.34220 0.13950 0.16400
N 	N 	0.34770 0.88510 0.34770 -0.26300
H 	H 	0.32680 0.88450 0.32680 0.12600
C 	C 	0.30940 0.96300 0.30940 0.09700
H 	H 	0.29990 0.93500 0.29990 0.00300
C 	C 	0.38450 0.75760 0.38450 -0.03400
H 	H 	0.39160 0.72870 0.39160 0.07500
C 	C 	0.36050 0.84220 0.36050 0.16900
N 	N 	0.84770 0.38510 0.84770 -0.26500
H 	H 	0.82680 0.38450 0.82680 0.12600
C 	C 	0.80940 0.46300 0.80940 0.07300
H 	H 	0.79990 0.43500 0.79990 0.00900
C 	C 	0.88450 0.25760 0.88450 -0.03900
H 	H 	0.89160 0.22870 0.89160 0.08100
C 	C 	0.86050 0.34220 0.86050 0.17400
N 	N 	0.65230 0.11490 0.34770 -0.26300
H 	H 	0.67320 0.11550 0.32680 0.12500
C 	C 	0.69060 0.03700 0.30940 0.06400
H 	H 	0.70010 0.06500 0.29990 0.01000
C 	C 	0.61550 0.24240 0.38450 -0.03300
H 	H 	0.60840 0.27130 0.39160 0.07500
C 	C 	0.63950 0.15780 0.36050 0.16700
N 	N 	0.15230 0.61490 0.84770 -0.26600
H 	H 	0.17320 0.61550 0.82680 0.12600
C 	C 	0.19060 0.53700 0.80940 0.07400
H 	H 	0.20010 0.56500 0.79990 0.00800
C 	C 	0.11550 0.74240 0.88450 -0.03600
H 	H 	0.10840 0.77130 0.89160 0.07700
C 	C 	0.13950 0.65780 0.86050 0.17000
N 	N 	0.11490 0.34770 0.65230 -0.26300
H 	H 	0.11550 0.32680 0.67320 0.12500
C 	C 	0.03700 0.30940 0.69060 0.06400
H 	H 	0.06500 0.29990 0.70010 0.01000
C 	C 	0.24240 0.38450 0.61550 -0.03300
H 	H 	0.27130 0.39160 0.60840 0.07500
C 	C 	0.15780 0.36050 0.63950 0.16700
N 	N 	0.61490 0.84770 0.15230 -0.26600
H 	H 	0.61550 0.82680 0.17320 0.12600
C 	C 	0.53700 0.80940 0.19060 0.07400
H 	H 	0.56500 0.79990 0.20010 0.00800
C 	C 	0.74240 0.88450 0.11550 -0.03600
H 	H 	0.77130 0.89160 0.10840 0.07700
C 	C 	0.65780 0.86050 0.13950 0.17000
N 	N 	0.88510 0.34770 0.34770 -0.26300
H 	H 	0.88450 0.32680 0.32680 0.12600
C 	C 	0.96300 0.30940 0.30940 0.09700
H 	H 	0.93500 0.29990 0.29990 0.00300
C 	C 	0.75760 0.38450 0.38450 -0.03400
H 	H 	0.72870 0.39160 0.39160 0.07500
C 	C 	0.84220 0.36050 0.36050 0.16900
N 	N 	0.38510 0.84770 0.84770 -0.26500
H 	H 	0.38450 0.82680 0.82680 0.12600
C 	C 	0.46300 0.80940 0.80940 0.07300
H 	H 	0.43500 0.79990 0.79990 0.00900
C 	C 	0.25760 0.88450 0.88450 -0.03900
H 	H 	0.22870 0.89160 0.89160 0.08100
C 	C 	0.34220 0.86050 0.86050 0.17400
N 	N 	0.88510 0.65230 0.65230 -0.26300
H 	H 	0.88450 0.67320 0.67320 0.12500
C 	C 	0.96300 0.69060 0.69060 0.09700
H 	H 	0.93500 0.70010 0.70010 0.00300
C 	C 	0.75760 0.61550 0.61550 -0.03400
H 	H 	0.72870 0.60840 0.60840 0.07500
C 	C 	0.84220 0.63950 0.63950 0.16900
N 	N 	0.38510 0.15230 0.15230 -0.26600
H 	H 	0.38450 0.17320 0.17320 0.12600
C 	C 	0.46300 0.19060 0.19060 0.07600
H 	H 	0.43500 0.20010 0.20010 0.00700
C 	C 	0.25760 0.11550 0.11550 -0.03000
H 	H 	0.22870 0.10840 0.10840 0.06900
C 	C 	0.34220 0.13950 0.13950 0.16400
N 	N 	0.11490 0.65230 0.34770 -0.26300
H 	H 	0.11550 0.67320 0.32680 0.12500
C 	C 	0.03700 0.69060 0.30940 0.06400
H 	H 	0.06500 0.70010 0.29990 0.01000
C 	C 	0.24240 0.61550 0.38450 -0.03300
H 	H 	0.27130 0.60840 0.39160 0.07500
C 	C 	0.15780 0.63950 0.36050 0.16700
N 	N 	0.61490 0.15230 0.84770 -0.26600
H 	H 	0.61550 0.17320 0.82680 0.12600
C 	C 	0.53700 0.19060 0.80940 0.07400
H 	H 	0.56500 0.20010 0.79990 0.00800
C 	C 	0.74240 0.11550 0.88450 -0.03600
H 	H 	0.77130 0.10840 0.89160 0.07700
C 	C 	0.65780 0.13950 0.86050 0.17000
N 	N 	0.34770 0.34770 0.88510 -0.26300
H 	H 	0.32680 0.32680 0.88450 0.12600
C 	C 	0.30940 0.30940 0.96300 0.09700
H 	H 	0.29990 0.29990 0.93500 0.00300
C 	C 	0.38450 0.38450 0.75760 -0.03400
H 	H 	0.39160 0.39160 0.72870 0.07500
C 	C 	0.36050 0.36050 0.84220 0.16900
N 	N 	0.84770 0.84770 0.38510 -0.26500
H 	H 	0.82680 0.82680 0.38450 0.12600
C 	C 	0.80940 0.80940 0.46300 0.07300
H 	H 	0.79990 0.79990 0.43500 0.00900
C 	C 	0.88450 0.88450 0.25760 -0.03900
H 	H 	0.89160 0.89160 0.22870 0.08100
C 	C 	0.86050 0.86050 0.34220 0.17400
N 	N 	0.34770 0.65230 0.11490 -0.26300
H 	H 	0.32680 0.67320 0.11550 0.12500
C 	C 	0.30940 0.69060 0.03700 0.06400
H 	H 	0.29990 0.70010 0.06500 0.01000
C 	C 	0.38450 0.61550 0.24240 -0.03300
H 	H 	0.39160 0.60840 0.27130 0.07500
C 	C 	0.36050 0.63950 0.15780 0.16700
N 	N 	0.84770 0.15230 0.61490 -0.26600
H 	H 	0.82680 0.17320 0.61550 0.12600
C 	C 	0.80940 0.19060 0.53700 0.07400
H 	H 	0.79990 0.20010 0.56500 0.00800
C 	C 	0.88450 0.11550 0.74240 -0.03600
H 	H 	0.89160 0.10840 0.77130 0.07700
C 	C 	0.86050 0.13950 0.65780 0.17000
N 	N 	0.65230 0.34770 0.11490 -0.26300
H 	H 	0.67320 0.32680 0.11550 0.12500
C 	C 	0.69060 0.30940 0.03700 0.06400
H 	H 	0.70010 0.29990 0.06500 0.01000
C 	C 	0.61550 0.38450 0.24240 -0.03300
H 	H 	0.60840 0.39160 0.27130 0.07500
C 	C 	0.63950 0.36050 0.15780 0.16700
N 	N 	0.15230 0.84770 0.61490 -0.26600
H 	H 	0.17320 0.82680 0.61550 0.12600
C 	C 	0.19060 0.80940 0.53700 0.07400
H 	H 	0.20010 0.79990 0.56500 0.00800
C 	C 	0.11550 0.88450 0.74240 -0.03600
H 	H 	0.10840 0.89160 0.77130 0.07700
C 	C 	0.13950 0.86050 0.65780 0.17000
N 	N 	0.65230 0.65230 0.88510 -0.26300
H 	H 	0.67320 0.67320 0.88450 0.12500
C 	C 	0.69060 0.69060 0.96300 0.09700
H 	H 	0.70010 0.70010 0.93500 0.00300
C 	C 	0.61550 0.61550 0.75760 -0.03400
H 	H 	0.60840 0.60840 0.72870 0.07500
C 	C 	0.63950 0.63950 0.84220 0.16900
N 	N 	0.15230 0.15230 0.38510 -0.26600
H 	H 	0.17320 0.17320 0.38450 0.12600
C 	C 	0.19060 0.19060 0.46300 0.07600
H 	H 	0.20010 0.20010 0.43500 0.00700
C 	C 	0.11550 0.11550 0.25760 -0.03000
H 	H 	0.10840 0.10840 0.22870 0.06900
C 	C 	0.13950 0.13950 0.34220 0.16400
H 	H 	0.00000 0.38900 0.35730 0.09100
C 	C 	0.00000 0.37140 0.34020 -0.07200
H 	H 	0.50000 0.88900 0.85730 0.08400
C 	C 	0.50000 0.87140 0.84020 -0.03200
H 	H 	0.00000 0.61100 0.35730 0.09100
C 	C 	-0.00000 0.62860 0.34020 -0.07200
H 	H 	0.50000 0.11100 0.85730 0.08000
C 	C 	0.50000 0.12860 0.84020 -0.03400
H 	H 	-0.00000 0.38900 0.64270 0.09100
C 	C 	0.00000 0.37140 0.65980 -0.07200
H 	H 	0.50000 0.88900 0.14270 0.07700
C 	C 	0.50000 0.87140 0.15980 -0.02400
H 	H 	0.00000 0.61100 0.64270 0.09100
C 	C 	-0.00000 0.62860 0.65980 -0.07200
H 	H 	0.50000 0.11100 0.14270 0.07300
C 	C 	0.50000 0.12860 0.15980 -0.02600
H 	H 	0.35730 0.00000 0.38900 0.09100
C 	C 	0.34020 0.00000 0.37140 -0.07200
H 	H 	0.85730 0.50000 0.88900 0.08400
C 	C 	0.84020 0.50000 0.87140 -0.03200
H 	H 	0.35730 0.00000 0.61100 0.09100
C 	C 	0.34020 0.00000 0.62860 -0.07200
H 	H 	0.85730 0.50000 0.11100 0.08000
C 	C 	0.84020 0.50000 0.12860 -0.03400
H 	H 	0.64270 0.00000 0.38900 0.09100
C 	C 	0.65980 0.00000 0.37140 -0.07200
H 	H 	0.14270 0.50000 0.88900 0.07700
C 	C 	0.15980 0.50000 0.87140 -0.02400
H 	H 	0.64270 0.00000 0.61100 0.09100
C 	C 	0.65980 0.00000 0.62860 -0.07200
H 	H 	0.14270 0.50000 0.11100 0.07300
C 	C 	0.15980 0.50000 0.12860 -0.02600
H 	H 	0.38900 0.35730 -0.00000 0.09100
C 	C 	0.37140 0.34020 -0.00000 -0.07200
H 	H 	0.88900 0.85730 0.50000 0.08400
C 	C 	0.87140 0.84020 0.50000 -0.03200
H 	H 	0.61100 0.35730 -0.00000 0.09100
C 	C 	0.62860 0.34020 -0.00000 -0.07200
H 	H 	0.11100 0.85730 0.50000 0.08000
C 	C 	0.12860 0.84020 0.50000 -0.03400
H 	H 	0.38900 0.64270 -0.00000 0.09100
C 	C 	0.37140 0.65980 -0.00000 -0.07200
H 	H 	0.88900 0.14270 0.50000 0.07700
C 	C 	0.87140 0.15980 0.50000 -0.02400
H 	H 	0.61100 0.64270 -0.00000 0.09100
C 	C 	0.62860 0.65980 -0.00000 -0.07200
H 	H 	0.11100 0.14270 0.50000 0.07300
C 	C 	0.12860 0.15980 0.50000 -0.02600
H 	H 	0.38900 0.00000 0.64270 0.09100
C 	C 	0.37140 0.00000 0.65980 -0.07200
H 	H 	0.88900 0.50000 0.14270 0.07700
C 	C 	0.87140 0.50000 0.15980 -0.02400
H 	H 	0.61100 0.00000 0.64270 0.09100
C 	C 	0.62860 0.00000 0.65980 -0.07200
H 	H 	0.11100 0.50000 0.14270 0.07300
C 	C 	0.12860 0.50000 0.15980 -0.02600
H 	H 	0.38900 0.00000 0.35730 0.09100
C 	C 	0.37140 0.00000 0.34020 -0.07200
H 	H 	0.88900 0.50000 0.85730 0.08400
C 	C 	0.87140 0.50000 0.84020 -0.03200
H 	H 	0.61100 0.00000 0.35730 0.09100
C 	C 	0.62860 0.00000 0.34020 -0.07200
H 	H 	0.11100 0.50000 0.85730 0.08000
C 	C 	0.12860 0.50000 0.84020 -0.03400
H 	H 	0.00000 0.35730 0.61100 0.09100
C 	C 	-0.00000 0.34020 0.62860 -0.07200
H 	H 	0.50000 0.85730 0.11100 0.08000
C 	C 	0.50000 0.84020 0.12860 -0.03400
H 	H 	0.00000 0.35730 0.38900 0.09100
C 	C 	0.00000 0.34020 0.37140 -0.07200
H 	H 	0.50000 0.85730 0.88900 0.08400
C 	C 	0.50000 0.84020 0.87140 -0.03200
H 	H 	0.00000 0.64270 0.61100 0.09100
C 	C 	-0.00000 0.65980 0.62860 -0.07200
H 	H 	0.50000 0.14270 0.11100 0.07300
C 	C 	0.50000 0.15980 0.12860 -0.02600
H 	H 	0.00000 0.64270 0.38900 0.09100
C 	C 	0.00000 0.65980 0.37140 -0.07200
H 	H 	0.50000 0.14270 0.88900 0.07700
C 	C 	0.50000 0.15980 0.87140 -0.02400
H 	H 	0.35730 0.38900 -0.00000 0.09100
C 	C 	0.34020 0.37140 -0.00000 -0.07200
H 	H 	0.85730 0.88900 0.50000 0.08400
C 	C 	0.84020 0.87140 0.50000 -0.03200
H 	H 	0.35730 0.61100 -0.00000 0.09100
C 	C 	0.34020 0.62860 -0.00000 -0.07200
H 	H 	0.85730 0.11100 0.50000 0.08000
C 	C 	0.84020 0.12860 0.50000 -0.03400
H 	H 	0.64270 0.38900 -0.00000 0.09100
C 	C 	0.65980 0.37140 -0.00000 -0.07200
H 	H 	0.14270 0.88900 0.50000 0.07700
C 	C 	0.15980 0.87140 0.50000 -0.02400
H 	H 	0.64270 0.61100 -0.00000 0.09100
C 	C 	0.65980 0.62860 -0.00000 -0.07200
H 	H 	0.14270 0.11100 0.50000 0.07300
C 	C 	0.15980 0.12860 0.50000 -0.02600
