data_crystal

_cell_length_a 38.72040
_cell_length_b 38.72040
_cell_length_c 38.72040
_cell_angle_alpha 90.00000
_cell_angle_beta  90.00000
_cell_angle_gamma 90.00000

_symmetry_space_group_name_	'P 1'
_symmetry_space_group_name_H-M	'P 1'

loop_
_symmetry_equiv_pos_as_xyz
  x,y,z

loop_
_atom_site_label
_atom_site_type_symbol
_atom_site_fract_x
_atom_site_fract_y
_atom_site_fract_z
_atom_site_charge
O 	O 	0.82577 0.87622 0.96495 -0.40600
O 	O 	0.78584 0.83452 0.96414 -0.39600
C 	C 	0.79950 0.86174 0.95395 0.35100
C 	C 	0.78151 0.88044 0.92488 -0.02500
C 	C 	0.75303 0.86594 0.90863 -0.11300
H 	H 	0.74420 0.84450 0.91650 0.11400
C 	C 	0.69235 0.88172 0.83670 0.20500
C 	C 	0.66197 0.86384 0.81827 -0.06200
O 	O 	0.70069 0.90839 0.82081 -0.22700
C 	C 	0.66950 0.83818 0.79354 0.02600
C 	C 	0.62887 0.87116 0.82670 0.02500
H 	H 	0.69280 0.83240 0.78850 0.02000
C 	C 	0.64327 0.82168 0.77691 -0.12700
C 	C 	0.60194 0.85412 0.81097 -0.12100
H 	H 	0.62420 0.88820 0.84370 0.02800
H 	H 	0.64840 0.80530 0.75940 0.07800
C 	C 	0.60923 0.82859 0.78526 0.12000
H 	H 	0.57880 0.85930 0.81710 0.07400
N 	N 	0.57900 0.81130 0.76490 -0.22900
O 	O 	0.57600 0.80650 0.76710 0.02300
H 	H 	0.57170 0.81890 0.74420 0.13700
H 	H 	0.69830 0.84520 0.87310 -0.00600
O 	O 	0.32577 0.37622 0.46495 -0.41000
O 	O 	0.28584 0.33452 0.46414 -0.40000
C 	C 	0.29950 0.36174 0.45395 0.35200
C 	C 	0.28151 0.38044 0.42488 -0.02700
C 	C 	0.25303 0.36594 0.40863 -0.11200
H 	H 	0.24420 0.34450 0.41650 0.11400
C 	C 	0.19235 0.38172 0.33670 0.20500
C 	C 	0.16197 0.36384 0.31827 -0.06300
O 	O 	0.20069 0.40839 0.32081 -0.22800
C 	C 	0.16950 0.33818 0.29354 0.02600
C 	C 	0.12887 0.37116 0.32670 0.02500
H 	H 	0.19280 0.33240 0.28850 0.02000
C 	C 	0.14327 0.32168 0.27691 -0.12700
C 	C 	0.10194 0.35412 0.31097 -0.12100
H 	H 	0.12420 0.38820 0.34370 0.02600
H 	H 	0.14840 0.30530 0.25940 0.07800
C 	C 	0.10923 0.32859 0.28526 0.12000
H 	H 	0.07880 0.35930 0.31710 0.07300
N 	N 	0.07900 0.31130 0.26490 -0.22900
O 	O 	0.07600 0.30650 0.26710 0.02300
H 	H 	0.07170 0.31890 0.24420 0.13700
H 	H 	0.19830 0.34520 0.37310 -0.00500
O 	O 	0.17423 0.12378 0.96495 -0.40700
O 	O 	0.21416 0.16548 0.96414 -0.39600
C 	C 	0.20050 0.13826 0.95395 0.35300
C 	C 	0.21849 0.11956 0.92488 -0.02600
C 	C 	0.24697 0.13406 0.90863 -0.11100
H 	H 	0.25580 0.15550 0.91650 0.11500
C 	C 	0.30765 0.11828 0.83670 0.20600
C 	C 	0.33803 0.13616 0.81827 -0.06200
O 	O 	0.29931 0.09161 0.82081 -0.22800
C 	C 	0.33050 0.16182 0.79354 0.02700
C 	C 	0.37113 0.12884 0.82670 0.02600
H 	H 	0.30720 0.16760 0.78850 0.02100
C 	C 	0.35673 0.17832 0.77691 -0.12600
C 	C 	0.39806 0.14588 0.81097 -0.12000
H 	H 	0.37580 0.11180 0.84370 0.02800
H 	H 	0.35160 0.19470 0.75940 0.07900
C 	C 	0.39077 0.17141 0.78526 0.12100
H 	H 	0.42120 0.14070 0.81710 0.07400
N 	N 	0.42100 0.18870 0.76490 -0.22800
O 	O 	0.42400 0.19350 0.76710 0.02400
H 	H 	0.42830 0.18110 0.74420 0.13700
H 	H 	0.30170 0.15480 0.87310 -0.00500
O 	O 	0.67423 0.62378 0.46495 -0.40900
O 	O 	0.71416 0.66548 0.46414 -0.39900
C 	C 	0.70050 0.63826 0.45395 0.35300
C 	C 	0.71849 0.61956 0.42488 -0.02600
C 	C 	0.74697 0.63406 0.40863 -0.11100
H 	H 	0.75580 0.65550 0.41650 0.11500
C 	C 	0.80765 0.61828 0.33670 0.20600
C 	C 	0.83803 0.63616 0.31827 -0.06200
O 	O 	0.79931 0.59161 0.32081 -0.22700
C 	C 	0.83050 0.66182 0.29354 0.02800
C 	C 	0.87113 0.62884 0.32670 0.02600
H 	H 	0.80720 0.66760 0.28850 0.02100
C 	C 	0.85673 0.67832 0.27691 -0.12700
C 	C 	0.89806 0.64588 0.31097 -0.12100
H 	H 	0.87580 0.61180 0.34370 0.02800
H 	H 	0.85160 0.69470 0.25940 0.07900
C 	C 	0.89077 0.67141 0.28526 0.12100
H 	H 	0.92120 0.64070 0.31710 0.07600
N 	N 	0.92100 0.68870 0.26490 -0.22800
O 	O 	0.92400 0.69350 0.26710 0.02400
H 	H 	0.92830 0.68110 0.24420 0.13800
H 	H 	0.80170 0.65480 0.37310 -0.00500
O 	O 	0.17423 0.87622 0.03505 -0.41100
O 	O 	0.21416 0.83452 0.03586 -0.40000
C 	C 	0.20050 0.86174 0.04605 0.35300
C 	C 	0.21849 0.88044 0.07512 -0.02600
C 	C 	0.24697 0.86594 0.09137 -0.11100
H 	H 	0.25580 0.84450 0.08350 0.11500
C 	C 	0.30765 0.88172 0.16330 0.20600
C 	C 	0.33803 0.86384 0.18173 -0.06200
O 	O 	0.29931 0.90839 0.17919 -0.22700
C 	C 	0.33050 0.83818 0.20646 0.02800
C 	C 	0.37113 0.87116 0.17330 0.02600
H 	H 	0.30720 0.83240 0.21150 0.02100
C 	C 	0.35673 0.82168 0.22309 -0.12600
C 	C 	0.39806 0.85412 0.18903 -0.12000
H 	H 	0.37580 0.88820 0.15630 0.02800
H 	H 	0.35160 0.80530 0.24060 0.07900
C 	C 	0.39077 0.82859 0.21474 0.12100
H 	H 	0.42120 0.85930 0.18290 0.07500
N 	N 	0.42100 0.81130 0.23510 -0.22800
O 	O 	0.42400 0.80650 0.23290 0.02400
H 	H 	0.42830 0.81890 0.25580 0.13800
H 	H 	0.30170 0.84520 0.12690 -0.00500
O 	O 	0.67423 0.37622 0.53505 -0.40900
O 	O 	0.71416 0.33452 0.53586 -0.39900
C 	C 	0.70050 0.36174 0.54605 0.35300
C 	C 	0.71849 0.38044 0.57512 -0.02600
C 	C 	0.74697 0.36594 0.59137 -0.11100
H 	H 	0.75580 0.34450 0.58350 0.11500
C 	C 	0.80765 0.38172 0.66330 0.20600
C 	C 	0.83803 0.36384 0.68173 -0.06200
O 	O 	0.79931 0.40839 0.67919 -0.22700
C 	C 	0.83050 0.33818 0.70646 0.02800
C 	C 	0.87113 0.37116 0.67330 0.02700
H 	H 	0.80720 0.33240 0.71150 0.02100
C 	C 	0.85673 0.32168 0.72309 -0.12700
C 	C 	0.89806 0.35412 0.68903 -0.12100
H 	H 	0.87580 0.38820 0.65630 0.02800
H 	H 	0.85160 0.30530 0.74060 0.07900
C 	C 	0.89077 0.32859 0.71474 0.12100
H 	H 	0.92120 0.35930 0.68290 0.07600
N 	N 	0.92100 0.31130 0.73510 -0.22800
O 	O 	0.92400 0.30650 0.73290 0.02400
H 	H 	0.92830 0.31890 0.75580 0.13800
H 	H 	0.80170 0.34520 0.62690 -0.00500
O 	O 	0.82577 0.12378 0.03505 -0.41100
O 	O 	0.78584 0.16548 0.03586 -0.40000
C 	C 	0.79950 0.13826 0.04605 0.35400
C 	C 	0.78151 0.11956 0.07512 -0.02800
C 	C 	0.75303 0.13406 0.09137 -0.11000
H 	H 	0.74420 0.15550 0.08350 0.11400
C 	C 	0.69235 0.11828 0.16330 0.20600
C 	C 	0.66197 0.13616 0.18173 -0.06200
O 	O 	0.70069 0.09161 0.17919 -0.22800
C 	C 	0.66950 0.16182 0.20646 0.02800
C 	C 	0.62887 0.12884 0.17330 0.02600
H 	H 	0.69280 0.16760 0.21150 0.02100
C 	C 	0.64327 0.17832 0.22309 -0.12700
C 	C 	0.60194 0.14588 0.18903 -0.12100
H 	H 	0.62420 0.11180 0.15630 0.02700
H 	H 	0.64840 0.19470 0.24060 0.07900
C 	C 	0.60923 0.17141 0.21474 0.12100
H 	H 	0.57880 0.14070 0.18290 0.07400
N 	N 	0.57900 0.18870 0.23510 -0.22800
O 	O 	0.57600 0.19350 0.23290 0.02400
H 	H 	0.57170 0.18110 0.25580 0.13700
H 	H 	0.69830 0.15480 0.12690 -0.00500
O 	O 	0.32577 0.62378 0.53505 -0.41000
O 	O 	0.28584 0.66548 0.53586 -0.39900
C 	C 	0.29950 0.63826 0.54605 0.35300
C 	C 	0.28151 0.61956 0.57512 -0.02600
C 	C 	0.25303 0.63406 0.59137 -0.11100
H 	H 	0.24420 0.65550 0.58350 0.11500
C 	C 	0.19235 0.61828 0.66330 0.20600
C 	C 	0.16197 0.63616 0.68173 -0.06200
O 	O 	0.20069 0.59161 0.67919 -0.22800
C 	C 	0.16950 0.66182 0.70646 0.02700
C 	C 	0.12887 0.62884 0.67330 0.02600
H 	H 	0.19280 0.66760 0.71150 0.02100
C 	C 	0.14327 0.67832 0.72309 -0.12600
C 	C 	0.10194 0.64588 0.68903 -0.12000
H 	H 	0.12420 0.61180 0.65630 0.02700
H 	H 	0.14840 0.69470 0.74060 0.07900
C 	C 	0.10923 0.67141 0.71474 0.12100
H 	H 	0.07880 0.64070 0.68290 0.07400
N 	N 	0.07900 0.68870 0.73510 -0.22800
O 	O 	0.07600 0.69350 0.73290 0.02400
H 	H 	0.07170 0.68110 0.75580 0.13700
H 	H 	0.19830 0.65480 0.62690 -0.00500
O 	O 	0.96495 0.82577 0.87622 -0.40500
O 	O 	0.96414 0.78584 0.83452 -0.39500
C 	C 	0.95395 0.79950 0.86174 0.35200
C 	C 	0.92488 0.78151 0.88044 -0.02400
C 	C 	0.90863 0.75303 0.86594 -0.11200
H 	H 	0.91650 0.74420 0.84450 0.11500
C 	C 	0.83670 0.69235 0.88172 0.20600
C 	C 	0.81827 0.66197 0.86384 -0.06100
O 	O 	0.82081 0.70069 0.90839 -0.22600
C 	C 	0.79354 0.66950 0.83818 0.02700
C 	C 	0.82670 0.62887 0.87116 0.02600
H 	H 	0.78850 0.69280 0.83240 0.02100
C 	C 	0.77691 0.64327 0.82168 -0.12600
C 	C 	0.81097 0.60194 0.85412 -0.12000
H 	H 	0.84370 0.62420 0.88820 0.02900
H 	H 	0.75940 0.64840 0.80530 0.07900
C 	C 	0.78526 0.60923 0.82859 0.12100
H 	H 	0.81710 0.57880 0.85930 0.07500
N 	N 	0.76490 0.57900 0.81130 -0.22800
O 	O 	0.76710 0.57600 0.80650 0.02400
H 	H 	0.74420 0.57170 0.81890 0.13800
H 	H 	0.87310 0.69830 0.84520 -0.00500
O 	O 	0.46495 0.32577 0.37622 -0.40900
O 	O 	0.46414 0.28584 0.33452 -0.39900
C 	C 	0.45395 0.29950 0.36174 0.35300
C 	C 	0.42488 0.28151 0.38044 -0.02600
C 	C 	0.40863 0.25303 0.36594 -0.11100
H 	H 	0.41650 0.24420 0.34450 0.11500
C 	C 	0.33670 0.19235 0.38172 0.20600
C 	C 	0.31827 0.16197 0.36384 -0.06200
O 	O 	0.32081 0.20069 0.40839 -0.22700
C 	C 	0.29354 0.16950 0.33818 0.02700
C 	C 	0.32670 0.12887 0.37116 0.02600
H 	H 	0.28850 0.19280 0.33240 0.02100
C 	C 	0.27691 0.14327 0.32168 -0.12600
C 	C 	0.31097 0.10194 0.35412 -0.12000
H 	H 	0.34370 0.12420 0.38820 0.02700
H 	H 	0.25940 0.14840 0.30530 0.07900
C 	C 	0.28526 0.10923 0.32859 0.12100
H 	H 	0.31710 0.07880 0.35930 0.07400
N 	N 	0.26490 0.07900 0.31130 -0.22800
O 	O 	0.26710 0.07600 0.30650 0.02400
H 	H 	0.24420 0.07170 0.31890 0.13700
H 	H 	0.37310 0.19830 0.34520 -0.00500
O 	O 	0.96495 0.17423 0.12378 -0.40700
O 	O 	0.96414 0.21416 0.16548 -0.39600
C 	C 	0.95395 0.20050 0.13826 0.35300
C 	C 	0.92488 0.21849 0.11956 -0.02600
C 	C 	0.90863 0.24697 0.13406 -0.11100
H 	H 	0.91650 0.25580 0.15550 0.11500
C 	C 	0.83670 0.30765 0.11828 0.20600
C 	C 	0.81827 0.33803 0.13616 -0.06200
O 	O 	0.82081 0.29931 0.09161 -0.22800
C 	C 	0.79354 0.33050 0.16182 0.02700
C 	C 	0.82670 0.37113 0.12884 0.02600
H 	H 	0.78850 0.30720 0.16760 0.02100
C 	C 	0.77691 0.35673 0.17832 -0.12600
C 	C 	0.81097 0.39806 0.14588 -0.12000
H 	H 	0.84370 0.37580 0.11180 0.02800
H 	H 	0.75940 0.35160 0.19470 0.07900
C 	C 	0.78526 0.39077 0.17141 0.12100
H 	H 	0.81710 0.42120 0.14070 0.07400
N 	N 	0.76490 0.42100 0.18870 -0.22800
O 	O 	0.76710 0.42400 0.19350 0.02400
H 	H 	0.74420 0.42830 0.18110 0.13700
H 	H 	0.87310 0.30170 0.15480 -0.00500
O 	O 	0.46495 0.67423 0.62378 -0.40900
O 	O 	0.46414 0.71416 0.66548 -0.39900
C 	C 	0.45395 0.70050 0.63826 0.35300
C 	C 	0.42488 0.71849 0.61956 -0.02600
C 	C 	0.40863 0.74697 0.63406 -0.11100
H 	H 	0.41650 0.75580 0.65550 0.11500
C 	C 	0.33670 0.80765 0.61828 0.20600
C 	C 	0.31827 0.83803 0.63616 -0.06200
O 	O 	0.32081 0.79931 0.59161 -0.22700
C 	C 	0.29354 0.83050 0.66182 0.02800
C 	C 	0.32670 0.87113 0.62884 0.02600
H 	H 	0.28850 0.80720 0.66760 0.02100
C 	C 	0.27691 0.85673 0.67832 -0.12700
C 	C 	0.31097 0.89806 0.64588 -0.12100
H 	H 	0.34370 0.87580 0.61180 0.02800
H 	H 	0.25940 0.85160 0.69470 0.07900
C 	C 	0.28526 0.89077 0.67141 0.12100
H 	H 	0.31710 0.92120 0.64070 0.07600
N 	N 	0.26490 0.92100 0.68870 -0.22800
O 	O 	0.26710 0.92400 0.69350 0.02400
H 	H 	0.24420 0.92830 0.68110 0.13800
H 	H 	0.37310 0.80170 0.65480 -0.00500
O 	O 	0.03505 0.17423 0.87622 -0.41100
O 	O 	0.03586 0.21416 0.83452 -0.40000
C 	C 	0.04605 0.20050 0.86174 0.35300
C 	C 	0.07512 0.21849 0.88044 -0.02600
C 	C 	0.09137 0.24697 0.86594 -0.11100
H 	H 	0.08350 0.25580 0.84450 0.11500
C 	C 	0.16330 0.30765 0.88172 0.20600
C 	C 	0.18173 0.33803 0.86384 -0.06200
O 	O 	0.17919 0.29931 0.90839 -0.22700
C 	C 	0.20646 0.33050 0.83818 0.02800
C 	C 	0.17330 0.37113 0.87116 0.02600
H 	H 	0.21150 0.30720 0.83240 0.02100
C 	C 	0.22309 0.35673 0.82168 -0.12600
C 	C 	0.18903 0.39806 0.85412 -0.12000
H 	H 	0.15630 0.37580 0.88820 0.02800
H 	H 	0.24060 0.35160 0.80530 0.07900
C 	C 	0.21474 0.39077 0.82859 0.12100
H 	H 	0.18290 0.42120 0.85930 0.07500
N 	N 	0.23510 0.42100 0.81130 -0.22800
O 	O 	0.23290 0.42400 0.80650 0.02400
H 	H 	0.25580 0.42830 0.81890 0.13800
H 	H 	0.12690 0.30170 0.84520 -0.00500
O 	O 	0.53505 0.67423 0.37622 -0.40900
O 	O 	0.53586 0.71416 0.33452 -0.39900
C 	C 	0.54605 0.70050 0.36174 0.35300
C 	C 	0.57512 0.71849 0.38044 -0.02600
C 	C 	0.59137 0.74697 0.36594 -0.11100
H 	H 	0.58350 0.75580 0.34450 0.11500
C 	C 	0.66330 0.80765 0.38172 0.20600
C 	C 	0.68173 0.83803 0.36384 -0.06200
O 	O 	0.67919 0.79931 0.40839 -0.22700
C 	C 	0.70646 0.83050 0.33818 0.02800
C 	C 	0.67330 0.87113 0.37116 0.02700
H 	H 	0.71150 0.80720 0.33240 0.02100
C 	C 	0.72309 0.85673 0.32168 -0.12700
C 	C 	0.68903 0.89806 0.35412 -0.12100
H 	H 	0.65630 0.87580 0.38820 0.02800
H 	H 	0.74060 0.85160 0.30530 0.07900
C 	C 	0.71474 0.89077 0.32859 0.12100
H 	H 	0.68290 0.92120 0.35930 0.07600
N 	N 	0.73510 0.92100 0.31130 -0.22800
O 	O 	0.73290 0.92400 0.30650 0.02400
H 	H 	0.75580 0.92830 0.31890 0.13800
H 	H 	0.62690 0.80170 0.34520 -0.00500
O 	O 	0.03505 0.82577 0.12378 -0.41100
O 	O 	0.03586 0.78584 0.16548 -0.40000
C 	C 	0.04605 0.79950 0.13826 0.35400
C 	C 	0.07512 0.78151 0.11956 -0.02800
C 	C 	0.09137 0.75303 0.13406 -0.11000
H 	H 	0.08350 0.74420 0.15550 0.11400
C 	C 	0.16330 0.69235 0.11828 0.20600
C 	C 	0.18173 0.66197 0.13616 -0.06200
O 	O 	0.17919 0.70069 0.09161 -0.22800
C 	C 	0.20646 0.66950 0.16182 0.02800
C 	C 	0.17330 0.62887 0.12884 0.02600
H 	H 	0.21150 0.69280 0.16760 0.02100
C 	C 	0.22309 0.64327 0.17832 -0.12700
C 	C 	0.18903 0.60194 0.14588 -0.12100
H 	H 	0.15630 0.62420 0.11180 0.02700
H 	H 	0.24060 0.64840 0.19470 0.07900
C 	C 	0.21474 0.60923 0.17141 0.12100
H 	H 	0.18290 0.57880 0.14070 0.07400
N 	N 	0.23510 0.57900 0.18870 -0.22800
O 	O 	0.23290 0.57600 0.19350 0.02400
H 	H 	0.25580 0.57170 0.18110 0.13700
H 	H 	0.12690 0.69830 0.15480 -0.00500
O 	O 	0.53505 0.32577 0.62378 -0.41000
O 	O 	0.53586 0.28584 0.66548 -0.39900
C 	C 	0.54605 0.29950 0.63826 0.35300
C 	C 	0.57512 0.28151 0.61956 -0.02600
C 	C 	0.59137 0.25303 0.63406 -0.11100
H 	H 	0.58350 0.24420 0.65550 0.11500
C 	C 	0.66330 0.19235 0.61828 0.20600
C 	C 	0.68173 0.16197 0.63616 -0.06200
O 	O 	0.67919 0.20069 0.59161 -0.22800
C 	C 	0.70646 0.16950 0.66182 0.02700
C 	C 	0.67330 0.12887 0.62884 0.02600
H 	H 	0.71150 0.19280 0.66760 0.02100
C 	C 	0.72309 0.14327 0.67832 -0.12600
C 	C 	0.68903 0.10194 0.64588 -0.12000
H 	H 	0.65630 0.12420 0.61180 0.02700
H 	H 	0.74060 0.14840 0.69470 0.07900
C 	C 	0.71474 0.10923 0.67141 0.12100
H 	H 	0.68290 0.07880 0.64070 0.07400
N 	N 	0.73510 0.07900 0.68870 -0.22800
O 	O 	0.73290 0.07600 0.69350 0.02400
H 	H 	0.75580 0.07170 0.68110 0.13700
H 	H 	0.62690 0.19830 0.65480 -0.00500
O 	O 	0.87622 0.96495 0.82577 -0.40500
O 	O 	0.83452 0.96414 0.78584 -0.39500
C 	C 	0.86174 0.95395 0.79950 0.35200
C 	C 	0.88044 0.92488 0.78151 -0.02400
C 	C 	0.86594 0.90863 0.75303 -0.11200
H 	H 	0.84450 0.91650 0.74420 0.11500
C 	C 	0.88172 0.83670 0.69235 0.20600
C 	C 	0.86384 0.81827 0.66197 -0.06100
O 	O 	0.90839 0.82081 0.70069 -0.22600
C 	C 	0.83818 0.79354 0.66950 0.02700
C 	C 	0.87116 0.82670 0.62887 0.02600
H 	H 	0.83240 0.78850 0.69280 0.02100
C 	C 	0.82168 0.77691 0.64327 -0.12600
C 	C 	0.85412 0.81097 0.60194 -0.12000
H 	H 	0.88820 0.84370 0.62420 0.02900
H 	H 	0.80530 0.75940 0.64840 0.07900
C 	C 	0.82859 0.78526 0.60923 0.12100
H 	H 	0.85930 0.81710 0.57880 0.07500
N 	N 	0.81130 0.76490 0.57900 -0.22800
O 	O 	0.80650 0.76710 0.57600 0.02400
H 	H 	0.81890 0.74420 0.57170 0.13800
H 	H 	0.84520 0.87310 0.69830 -0.00500
O 	O 	0.37622 0.46495 0.32577 -0.40900
O 	O 	0.33452 0.46414 0.28584 -0.39900
C 	C 	0.36174 0.45395 0.29950 0.35300
C 	C 	0.38044 0.42488 0.28151 -0.02600
C 	C 	0.36594 0.40863 0.25303 -0.11100
H 	H 	0.34450 0.41650 0.24420 0.11500
C 	C 	0.38172 0.33670 0.19235 0.20600
C 	C 	0.36384 0.31827 0.16197 -0.06200
O 	O 	0.40839 0.32081 0.20069 -0.22700
C 	C 	0.33818 0.29354 0.16950 0.02700
C 	C 	0.37116 0.32670 0.12887 0.02600
H 	H 	0.33240 0.28850 0.19280 0.02100
C 	C 	0.32168 0.27691 0.14327 -0.12600
C 	C 	0.35412 0.31097 0.10194 -0.12000
H 	H 	0.38820 0.34370 0.12420 0.02700
H 	H 	0.30530 0.25940 0.14840 0.07900
C 	C 	0.32859 0.28526 0.10923 0.12100
H 	H 	0.35930 0.31710 0.07880 0.07400
N 	N 	0.31130 0.26490 0.07900 -0.22800
O 	O 	0.30650 0.26710 0.07600 0.02400
H 	H 	0.31890 0.24420 0.07170 0.13700
H 	H 	0.34520 0.37310 0.19830 -0.00500
O 	O 	0.12378 0.96495 0.17423 -0.40700
O 	O 	0.16548 0.96414 0.21416 -0.39600
C 	C 	0.13826 0.95395 0.20050 0.35300
C 	C 	0.11956 0.92488 0.21849 -0.02600
C 	C 	0.13406 0.90863 0.24697 -0.11100
H 	H 	0.15550 0.91650 0.25580 0.11500
C 	C 	0.11828 0.83670 0.30765 0.20600
C 	C 	0.13616 0.81827 0.33803 -0.06200
O 	O 	0.09161 0.82081 0.29931 -0.22800
C 	C 	0.16182 0.79354 0.33050 0.02700
C 	C 	0.12884 0.82670 0.37113 0.02600
H 	H 	0.16760 0.78850 0.30720 0.02100
C 	C 	0.17832 0.77691 0.35673 -0.12600
C 	C 	0.14588 0.81097 0.39806 -0.12000
H 	H 	0.11180 0.84370 0.37580 0.02800
H 	H 	0.19470 0.75940 0.35160 0.07900
C 	C 	0.17141 0.78526 0.39077 0.12100
H 	H 	0.14070 0.81710 0.42120 0.07400
N 	N 	0.18870 0.76490 0.42100 -0.22800
O 	O 	0.19350 0.76710 0.42400 0.02400
H 	H 	0.18110 0.74420 0.42830 0.13700
H 	H 	0.15480 0.87310 0.30170 -0.00500
O 	O 	0.62378 0.46495 0.67423 -0.40900
O 	O 	0.66548 0.46414 0.71416 -0.39900
C 	C 	0.63826 0.45395 0.70050 0.35300
C 	C 	0.61956 0.42488 0.71849 -0.02600
C 	C 	0.63406 0.40863 0.74697 -0.11100
H 	H 	0.65550 0.41650 0.75580 0.11500
C 	C 	0.61828 0.33670 0.80765 0.20600
C 	C 	0.63616 0.31827 0.83803 -0.06200
O 	O 	0.59161 0.32081 0.79931 -0.22700
C 	C 	0.66182 0.29354 0.83050 0.02800
C 	C 	0.62884 0.32670 0.87113 0.02600
H 	H 	0.66760 0.28850 0.80720 0.02100
C 	C 	0.67832 0.27691 0.85673 -0.12700
C 	C 	0.64588 0.31097 0.89806 -0.12100
H 	H 	0.61180 0.34370 0.87580 0.02800
H 	H 	0.69470 0.25940 0.85160 0.07900
C 	C 	0.67141 0.28526 0.89077 0.12100
H 	H 	0.64070 0.31710 0.92120 0.07600
N 	N 	0.68870 0.26490 0.92100 -0.22800
O 	O 	0.69350 0.26710 0.92400 0.02400
H 	H 	0.68110 0.24420 0.92830 0.13800
H 	H 	0.65480 0.37310 0.80170 -0.00500
O 	O 	0.87622 0.03505 0.17423 -0.41100
O 	O 	0.83452 0.03586 0.21416 -0.40000
C 	C 	0.86174 0.04605 0.20050 0.35300
C 	C 	0.88044 0.07512 0.21849 -0.02600
C 	C 	0.86594 0.09137 0.24697 -0.11100
H 	H 	0.84450 0.08350 0.25580 0.11500
C 	C 	0.88172 0.16330 0.30765 0.20600
C 	C 	0.86384 0.18173 0.33803 -0.06200
O 	O 	0.90839 0.17919 0.29931 -0.22700
C 	C 	0.83818 0.20646 0.33050 0.02800
C 	C 	0.87116 0.17330 0.37113 0.02600
H 	H 	0.83240 0.21150 0.30720 0.02100
C 	C 	0.82168 0.22309 0.35673 -0.12600
C 	C 	0.85412 0.18903 0.39806 -0.12000
H 	H 	0.88820 0.15630 0.37580 0.02800
H 	H 	0.80530 0.24060 0.35160 0.07900
C 	C 	0.82859 0.21474 0.39077 0.12100
H 	H 	0.85930 0.18290 0.42120 0.07500
N 	N 	0.81130 0.23510 0.42100 -0.22800
O 	O 	0.80650 0.23290 0.42400 0.02400
H 	H 	0.81890 0.25580 0.42830 0.13800
H 	H 	0.84520 0.12690 0.30170 -0.00500
O 	O 	0.37622 0.53505 0.67423 -0.40900
O 	O 	0.33452 0.53586 0.71416 -0.39900
C 	C 	0.36174 0.54605 0.70050 0.35300
C 	C 	0.38044 0.57512 0.71849 -0.02600
C 	C 	0.36594 0.59137 0.74697 -0.11100
H 	H 	0.34450 0.58350 0.75580 0.11500
C 	C 	0.38172 0.66330 0.80765 0.20600
C 	C 	0.36384 0.68173 0.83803 -0.06200
O 	O 	0.40839 0.67919 0.79931 -0.22700
C 	C 	0.33818 0.70646 0.83050 0.02800
C 	C 	0.37116 0.67330 0.87113 0.02700
H 	H 	0.33240 0.71150 0.80720 0.02100
C 	C 	0.32168 0.72309 0.85673 -0.12700
C 	C 	0.35412 0.68903 0.89806 -0.12100
H 	H 	0.38820 0.65630 0.87580 0.02800
H 	H 	0.30530 0.74060 0.85160 0.07900
C 	C 	0.32859 0.71474 0.89077 0.12100
H 	H 	0.35930 0.68290 0.92120 0.07600
N 	N 	0.31130 0.73510 0.92100 -0.22800
O 	O 	0.30650 0.73290 0.92400 0.02400
H 	H 	0.31890 0.75580 0.92830 0.13800
H 	H 	0.34520 0.62690 0.80170 -0.00500
O 	O 	0.12378 0.03505 0.82577 -0.41100
O 	O 	0.16548 0.03586 0.78584 -0.40000
C 	C 	0.13826 0.04605 0.79950 0.35400
C 	C 	0.11956 0.07512 0.78151 -0.02800
C 	C 	0.13406 0.09137 0.75303 -0.11000
H 	H 	0.15550 0.08350 0.74420 0.11400
C 	C 	0.11828 0.16330 0.69235 0.20600
C 	C 	0.13616 0.18173 0.66197 -0.06200
O 	O 	0.09161 0.17919 0.70069 -0.22800
C 	C 	0.16182 0.20646 0.66950 0.02800
C 	C 	0.12884 0.17330 0.62887 0.02600
H 	H 	0.16760 0.21150 0.69280 0.02100
C 	C 	0.17832 0.22309 0.64327 -0.12700
C 	C 	0.14588 0.18903 0.60194 -0.12100
H 	H 	0.11180 0.15630 0.62420 0.02700
H 	H 	0.19470 0.24060 0.64840 0.07900
C 	C 	0.17141 0.21474 0.60923 0.12100
H 	H 	0.14070 0.18290 0.57880 0.07400
N 	N 	0.18870 0.23510 0.57900 -0.22800
O 	O 	0.19350 0.23290 0.57600 0.02400
H 	H 	0.18110 0.25580 0.57170 0.13700
H 	H 	0.15480 0.12690 0.69830 -0.00500
O 	O 	0.62378 0.53505 0.32577 -0.41000
O 	O 	0.66548 0.53586 0.28584 -0.39900
C 	C 	0.63826 0.54605 0.29950 0.35300
C 	C 	0.61956 0.57512 0.28151 -0.02600
C 	C 	0.63406 0.59137 0.25303 -0.11100
H 	H 	0.65550 0.58350 0.24420 0.11500
C 	C 	0.61828 0.66330 0.19235 0.20600
C 	C 	0.63616 0.68173 0.16197 -0.06200
O 	O 	0.59161 0.67919 0.20069 -0.22800
C 	C 	0.66182 0.70646 0.16950 0.02700
C 	C 	0.62884 0.67330 0.12887 0.02600
H 	H 	0.66760 0.71150 0.19280 0.02100
C 	C 	0.67832 0.72309 0.14327 -0.12600
C 	C 	0.64588 0.68903 0.10194 -0.12000
H 	H 	0.61180 0.65630 0.12420 0.02700
H 	H 	0.69470 0.74060 0.14840 0.07900
C 	C 	0.67141 0.71474 0.10923 0.12100
H 	H 	0.64070 0.68290 0.07880 0.07400
N 	N 	0.68870 0.73510 0.07900 -0.22800
O 	O 	0.69350 0.73290 0.07600 0.02400
H 	H 	0.68110 0.75580 0.07170 0.13700
H 	H 	0.65480 0.62690 0.19830 -0.00500
O 	O 	0.87622 0.82577 0.03505 -0.41000
O 	O 	0.83452 0.78584 0.03586 -0.40000
C 	C 	0.86174 0.79950 0.04605 0.35300
C 	C 	0.88044 0.78151 0.07512 -0.02600
C 	C 	0.86594 0.75303 0.09137 -0.11100
H 	H 	0.84450 0.74420 0.08350 0.11500
C 	C 	0.88172 0.69235 0.16330 0.20600
C 	C 	0.86384 0.66197 0.18173 -0.06200
O 	O 	0.90839 0.70069 0.17919 -0.22700
C 	C 	0.83818 0.66950 0.20646 0.02800
C 	C 	0.87116 0.62887 0.17330 0.02600
H 	H 	0.83240 0.69280 0.21150 0.02100
C 	C 	0.82168 0.64327 0.22309 -0.12600
C 	C 	0.85412 0.60194 0.18903 -0.12000
H 	H 	0.88820 0.62420 0.15630 0.02800
H 	H 	0.80530 0.64840 0.24060 0.07900
C 	C 	0.82859 0.60923 0.21474 0.12100
H 	H 	0.85930 0.57880 0.18290 0.07500
N 	N 	0.81130 0.57900 0.23510 -0.22800
O 	O 	0.80650 0.57600 0.23290 0.02400
H 	H 	0.81890 0.57170 0.25580 0.13800
H 	H 	0.84520 0.69830 0.12690 -0.00500
O 	O 	0.37622 0.32577 0.53505 -0.40900
O 	O 	0.33452 0.28584 0.53586 -0.39900
C 	C 	0.36174 0.29950 0.54605 0.35300
C 	C 	0.38044 0.28151 0.57512 -0.02600
C 	C 	0.36594 0.25303 0.59137 -0.11100
H 	H 	0.34450 0.24420 0.58350 0.11500
C 	C 	0.38172 0.19235 0.66330 0.20600
C 	C 	0.36384 0.16197 0.68173 -0.06200
O 	O 	0.40839 0.20069 0.67919 -0.22700
C 	C 	0.33818 0.16950 0.70646 0.02700
C 	C 	0.37116 0.12887 0.67330 0.02600
H 	H 	0.33240 0.19280 0.71150 0.02100
C 	C 	0.32168 0.14327 0.72309 -0.12600
C 	C 	0.35412 0.10194 0.68903 -0.12000
H 	H 	0.38820 0.12420 0.65630 0.02700
H 	H 	0.30530 0.14840 0.74060 0.07900
C 	C 	0.32859 0.10923 0.71474 0.12100
H 	H 	0.35930 0.07880 0.68290 0.07400
N 	N 	0.31130 0.07900 0.73510 -0.22800
O 	O 	0.30650 0.07600 0.73290 0.02400
H 	H 	0.31890 0.07170 0.75580 0.13700
H 	H 	0.34520 0.19830 0.62690 -0.00500
O 	O 	0.12378 0.17423 0.03505 -0.41200
O 	O 	0.16548 0.21416 0.03586 -0.40000
C 	C 	0.13826 0.20050 0.04605 0.35400
C 	C 	0.11956 0.21849 0.07512 -0.02800
C 	C 	0.13406 0.24697 0.09137 -0.11000
H 	H 	0.15550 0.25580 0.08350 0.11400
C 	C 	0.11828 0.30765 0.16330 0.20600
C 	C 	0.13616 0.33803 0.18173 -0.06200
O 	O 	0.09161 0.29931 0.17919 -0.22800
C 	C 	0.16182 0.33050 0.20646 0.02800
C 	C 	0.12884 0.37113 0.17330 0.02600
H 	H 	0.16760 0.30720 0.21150 0.02100
C 	C 	0.17832 0.35673 0.22309 -0.12700
C 	C 	0.14588 0.39806 0.18903 -0.12100
H 	H 	0.11180 0.37580 0.15630 0.02700
H 	H 	0.19470 0.35160 0.24060 0.07900
C 	C 	0.17141 0.39077 0.21474 0.12100
H 	H 	0.14070 0.42120 0.18290 0.07400
N 	N 	0.18870 0.42100 0.23510 -0.22800
O 	O 	0.19350 0.42400 0.23290 0.02400
H 	H 	0.18110 0.42830 0.25580 0.13700
H 	H 	0.15480 0.30170 0.12690 -0.00500
O 	O 	0.62378 0.67423 0.53505 -0.40900
O 	O 	0.66548 0.71416 0.53586 -0.39900
C 	C 	0.63826 0.70050 0.54605 0.35300
C 	C 	0.61956 0.71849 0.57512 -0.02600
C 	C 	0.63406 0.74697 0.59137 -0.11100
H 	H 	0.65550 0.75580 0.58350 0.11500
C 	C 	0.61828 0.80765 0.66330 0.20600
C 	C 	0.63616 0.83803 0.68173 -0.06200
O 	O 	0.59161 0.79931 0.67919 -0.22700
C 	C 	0.66182 0.83050 0.70646 0.02800
C 	C 	0.62884 0.87113 0.67330 0.02700
H 	H 	0.66760 0.80720 0.71150 0.02100
C 	C 	0.67832 0.85673 0.72309 -0.12700
C 	C 	0.64588 0.89806 0.68903 -0.12100
H 	H 	0.61180 0.87580 0.65630 0.02800
H 	H 	0.69470 0.85160 0.74060 0.07900
C 	C 	0.67141 0.89077 0.71474 0.12100
H 	H 	0.64070 0.92120 0.68290 0.07600
N 	N 	0.68870 0.92100 0.73510 -0.22800
O 	O 	0.69350 0.92400 0.73290 0.02400
H 	H 	0.68110 0.92830 0.75580 0.13800
H 	H 	0.65480 0.80170 0.62690 -0.00500
O 	O 	0.87622 0.17423 0.96495 -0.40600
O 	O 	0.83452 0.21416 0.96414 -0.39500
C 	C 	0.86174 0.20050 0.95395 0.35300
C 	C 	0.88044 0.21849 0.92488 -0.02400
C 	C 	0.86594 0.24697 0.90863 -0.11100
H 	H 	0.84450 0.25580 0.91650 0.11500
C 	C 	0.88172 0.30765 0.83670 0.20600
C 	C 	0.86384 0.33803 0.81827 -0.06100
O 	O 	0.90839 0.29931 0.82081 -0.22600
C 	C 	0.83818 0.33050 0.79354 0.02700
C 	C 	0.87116 0.37113 0.82670 0.02600
H 	H 	0.83240 0.30720 0.78850 0.02100
C 	C 	0.82168 0.35673 0.77691 -0.12600
C 	C 	0.85412 0.39806 0.81097 -0.12000
H 	H 	0.88820 0.37580 0.84370 0.02900
H 	H 	0.80530 0.35160 0.75940 0.07900
C 	C 	0.82859 0.39077 0.78526 0.12100
H 	H 	0.85930 0.42120 0.81710 0.07500
N 	N 	0.81130 0.42100 0.76490 -0.22800
O 	O 	0.80650 0.42400 0.76710 0.02400
H 	H 	0.81890 0.42830 0.74420 0.13800
H 	H 	0.84520 0.30170 0.87310 -0.00500
O 	O 	0.37622 0.67423 0.46495 -0.40900
O 	O 	0.33452 0.71416 0.46414 -0.39900
C 	C 	0.36174 0.70050 0.45395 0.35300
C 	C 	0.38044 0.71849 0.42488 -0.02600
C 	C 	0.36594 0.74697 0.40863 -0.11100
H 	H 	0.34450 0.75580 0.41650 0.11500
C 	C 	0.38172 0.80765 0.33670 0.20600
C 	C 	0.36384 0.83803 0.31827 -0.06200
O 	O 	0.40839 0.79931 0.32081 -0.22700
C 	C 	0.33818 0.83050 0.29354 0.02800
C 	C 	0.37116 0.87113 0.32670 0.02700
H 	H 	0.33240 0.80720 0.28850 0.02100
C 	C 	0.32168 0.85673 0.27691 -0.12700
C 	C 	0.35412 0.89806 0.31097 -0.12100
H 	H 	0.38820 0.87580 0.34370 0.02800
H 	H 	0.30530 0.85160 0.25940 0.07900
C 	C 	0.32859 0.89077 0.28526 0.12100
H 	H 	0.35930 0.92120 0.31710 0.07600
N 	N 	0.31130 0.92100 0.26490 -0.22800
O 	O 	0.30650 0.92400 0.26710 0.02400
H 	H 	0.31890 0.92830 0.24420 0.13800
H 	H 	0.34520 0.80170 0.37310 -0.00500
O 	O 	0.12378 0.82577 0.96495 -0.40600
O 	O 	0.16548 0.78584 0.96414 -0.39600
C 	C 	0.13826 0.79950 0.95395 0.35300
C 	C 	0.11956 0.78151 0.92488 -0.02500
C 	C 	0.13406 0.75303 0.90863 -0.11100
H 	H 	0.15550 0.74420 0.91650 0.11500
C 	C 	0.11828 0.69235 0.83670 0.20600
C 	C 	0.13616 0.66197 0.81827 -0.06200
O 	O 	0.09161 0.70069 0.82081 -0.22800
C 	C 	0.16182 0.66950 0.79354 0.02700
C 	C 	0.12884 0.62887 0.82670 0.02600
H 	H 	0.16760 0.69280 0.78850 0.02100
C 	C 	0.17832 0.64327 0.77691 -0.12700
C 	C 	0.14588 0.60194 0.81097 -0.12100
H 	H 	0.11180 0.62420 0.84370 0.02800
H 	H 	0.19470 0.64840 0.75940 0.07900
C 	C 	0.17141 0.60923 0.78526 0.12100
H 	H 	0.14070 0.57880 0.81710 0.07400
N 	N 	0.18870 0.57900 0.76490 -0.22800
O 	O 	0.19350 0.57600 0.76710 0.02400
H 	H 	0.18110 0.57170 0.74420 0.13700
H 	H 	0.15480 0.69830 0.87310 -0.00500
O 	O 	0.62378 0.32577 0.46495 -0.40900
O 	O 	0.66548 0.28584 0.46414 -0.39900
C 	C 	0.63826 0.29950 0.45395 0.35300
C 	C 	0.61956 0.28151 0.42488 -0.02600
C 	C 	0.63406 0.25303 0.40863 -0.11100
H 	H 	0.65550 0.24420 0.41650 0.11500
C 	C 	0.61828 0.19235 0.33670 0.20600
C 	C 	0.63616 0.16197 0.31827 -0.06200
O 	O 	0.59161 0.20069 0.32081 -0.22700
C 	C 	0.66182 0.16950 0.29354 0.02700
C 	C 	0.62884 0.12887 0.32670 0.02600
H 	H 	0.66760 0.19280 0.28850 0.02100
C 	C 	0.67832 0.14327 0.27691 -0.12600
C 	C 	0.64588 0.10194 0.31097 -0.12000
H 	H 	0.61180 0.12420 0.34370 0.02700
H 	H 	0.69470 0.14840 0.25940 0.07900
C 	C 	0.67141 0.10923 0.28526 0.12000
H 	H 	0.64070 0.07880 0.31710 0.07400
N 	N 	0.68870 0.07900 0.26490 -0.22800
O 	O 	0.69350 0.07600 0.26710 0.02400
H 	H 	0.68110 0.07170 0.24420 0.13700
H 	H 	0.65480 0.19830 0.37310 -0.00500
O 	O 	0.82577 0.96495 0.12378 -0.40600
O 	O 	0.78584 0.96414 0.16548 -0.39600
C 	C 	0.79950 0.95395 0.13826 0.35300
C 	C 	0.78151 0.92488 0.11956 -0.02500
C 	C 	0.75303 0.90863 0.13406 -0.11100
H 	H 	0.74420 0.91650 0.15550 0.11500
C 	C 	0.69235 0.83670 0.11828 0.20600
C 	C 	0.66197 0.81827 0.13616 -0.06200
O 	O 	0.70069 0.82081 0.09161 -0.22800
C 	C 	0.66950 0.79354 0.16182 0.02700
C 	C 	0.62887 0.82670 0.12884 0.02600
H 	H 	0.69280 0.78850 0.16760 0.02100
C 	C 	0.64327 0.77691 0.17832 -0.12700
C 	C 	0.60194 0.81097 0.14588 -0.12100
H 	H 	0.62420 0.84370 0.11180 0.02800
H 	H 	0.64840 0.75940 0.19470 0.07900
C 	C 	0.60923 0.78526 0.17141 0.12100
H 	H 	0.57880 0.81710 0.14070 0.07400
N 	N 	0.57900 0.76490 0.18870 -0.22800
O 	O 	0.57600 0.76710 0.19350 0.02400
H 	H 	0.57170 0.74420 0.18110 0.13700
H 	H 	0.69830 0.87310 0.15480 -0.00500
O 	O 	0.32577 0.46495 0.62378 -0.40900
O 	O 	0.28584 0.46414 0.66548 -0.39900
C 	C 	0.29950 0.45395 0.63826 0.35300
C 	C 	0.28151 0.42488 0.61956 -0.02600
C 	C 	0.25303 0.40863 0.63406 -0.11100
H 	H 	0.24420 0.41650 0.65550 0.11500
C 	C 	0.19235 0.33670 0.61828 0.20600
C 	C 	0.16197 0.31827 0.63616 -0.06200
O 	O 	0.20069 0.32081 0.59161 -0.22700
C 	C 	0.16950 0.29354 0.66182 0.02700
C 	C 	0.12887 0.32670 0.62884 0.02600
H 	H 	0.19280 0.28850 0.66760 0.02100
C 	C 	0.14327 0.27691 0.67832 -0.12600
C 	C 	0.10194 0.31097 0.64588 -0.12000
H 	H 	0.12420 0.34370 0.61180 0.02700
H 	H 	0.14840 0.25940 0.69470 0.07900
C 	C 	0.10923 0.28526 0.67141 0.12000
H 	H 	0.07880 0.31710 0.64070 0.07400
N 	N 	0.07900 0.26490 0.68870 -0.22800
O 	O 	0.07600 0.26710 0.69350 0.02400
H 	H 	0.07170 0.24420 0.68110 0.13700
H 	H 	0.19830 0.37310 0.65480 -0.00500
O 	O 	0.17423 0.96495 0.87622 -0.40600
O 	O 	0.21416 0.96414 0.83452 -0.39500
C 	C 	0.20050 0.95395 0.86174 0.35300
C 	C 	0.21849 0.92488 0.88044 -0.02400
C 	C 	0.24697 0.90863 0.86594 -0.11100
H 	H 	0.25580 0.91650 0.84450 0.11500
C 	C 	0.30765 0.83670 0.88172 0.20600
C 	C 	0.33803 0.81827 0.86384 -0.06100
O 	O 	0.29931 0.82081 0.90839 -0.22600
C 	C 	0.33050 0.79354 0.83818 0.02700
C 	C 	0.37113 0.82670 0.87116 0.02600
H 	H 	0.30720 0.78850 0.83240 0.02100
C 	C 	0.35673 0.77691 0.82168 -0.12600
C 	C 	0.39806 0.81097 0.85412 -0.12000
H 	H 	0.37580 0.84370 0.88820 0.02900
H 	H 	0.35160 0.75940 0.80530 0.07900
C 	C 	0.39077 0.78526 0.82859 0.12100
H 	H 	0.42120 0.81710 0.85930 0.07500
N 	N 	0.42100 0.76490 0.81130 -0.22800
O 	O 	0.42400 0.76710 0.80650 0.02400
H 	H 	0.42830 0.74420 0.81890 0.13800
H 	H 	0.30170 0.87310 0.84520 -0.00500
O 	O 	0.67423 0.46495 0.37622 -0.40900
O 	O 	0.71416 0.46414 0.33452 -0.39900
C 	C 	0.70050 0.45395 0.36174 0.35300
C 	C 	0.71849 0.42488 0.38044 -0.02600
C 	C 	0.74697 0.40863 0.36594 -0.11100
H 	H 	0.75580 0.41650 0.34450 0.11500
C 	C 	0.80765 0.33670 0.38172 0.20600
C 	C 	0.83803 0.31827 0.36384 -0.06200
O 	O 	0.79931 0.32081 0.40839 -0.22700
C 	C 	0.83050 0.29354 0.33818 0.02800
C 	C 	0.87113 0.32670 0.37116 0.02700
H 	H 	0.80720 0.28850 0.33240 0.02100
C 	C 	0.85673 0.27691 0.32168 -0.12700
C 	C 	0.89806 0.31097 0.35412 -0.12100
H 	H 	0.87580 0.34370 0.38820 0.02800
H 	H 	0.85160 0.25940 0.30530 0.07900
C 	C 	0.89077 0.28526 0.32859 0.12100
H 	H 	0.92120 0.31710 0.35930 0.07600
N 	N 	0.92100 0.26490 0.31130 -0.22800
O 	O 	0.92400 0.26710 0.30650 0.02400
H 	H 	0.92830 0.24420 0.31890 0.13800
H 	H 	0.80170 0.37310 0.34520 -0.00500
O 	O 	0.17423 0.03505 0.12378 -0.41200
O 	O 	0.21416 0.03586 0.16548 -0.40000
C 	C 	0.20050 0.04605 0.13826 0.35400
C 	C 	0.21849 0.07512 0.11956 -0.02800
C 	C 	0.24697 0.09137 0.13406 -0.11000
H 	H 	0.25580 0.08350 0.15550 0.11400
C 	C 	0.30765 0.16330 0.11828 0.20600
C 	C 	0.33803 0.18173 0.13616 -0.06200
O 	O 	0.29931 0.17919 0.09161 -0.22800
C 	C 	0.33050 0.20646 0.16182 0.02800
C 	C 	0.37113 0.17330 0.12884 0.02600
H 	H 	0.30720 0.21150 0.16760 0.02100
C 	C 	0.35673 0.22309 0.17832 -0.12700
C 	C 	0.39806 0.18903 0.14588 -0.12100
H 	H 	0.37580 0.15630 0.11180 0.02700
H 	H 	0.35160 0.24060 0.19470 0.07900
C 	C 	0.39077 0.21474 0.17141 0.12100
H 	H 	0.42120 0.18290 0.14070 0.07400
N 	N 	0.42100 0.23510 0.18870 -0.22800
O 	O 	0.42400 0.23290 0.19350 0.02400
H 	H 	0.42830 0.25580 0.18110 0.13700
H 	H 	0.30170 0.12690 0.15480 -0.00500
O 	O 	0.67423 0.53505 0.62378 -0.40900
O 	O 	0.71416 0.53586 0.66548 -0.39900
C 	C 	0.70050 0.54605 0.63826 0.35300
C 	C 	0.71849 0.57512 0.61956 -0.02600
C 	C 	0.74697 0.59137 0.63406 -0.11100
H 	H 	0.75580 0.58350 0.65550 0.11500
C 	C 	0.80765 0.66330 0.61828 0.20600
C 	C 	0.83803 0.68173 0.63616 -0.06200
O 	O 	0.79931 0.67919 0.59161 -0.22700
C 	C 	0.83050 0.70646 0.66182 0.02800
C 	C 	0.87113 0.67330 0.62884 0.02700
H 	H 	0.80720 0.71150 0.66760 0.02100
C 	C 	0.85673 0.72309 0.67832 -0.12700
C 	C 	0.89806 0.68903 0.64588 -0.12100
H 	H 	0.87580 0.65630 0.61180 0.02800
H 	H 	0.85160 0.74060 0.69470 0.07900
C 	C 	0.89077 0.71474 0.67141 0.12100
H 	H 	0.92120 0.68290 0.64070 0.07600
N 	N 	0.92100 0.73510 0.68870 -0.22800
O 	O 	0.92400 0.73290 0.69350 0.02400
H 	H 	0.92830 0.75580 0.68110 0.13800
H 	H 	0.80170 0.62690 0.65480 -0.00500
O 	O 	0.82577 0.03505 0.87622 -0.41000
O 	O 	0.78584 0.03586 0.83452 -0.40000
C 	C 	0.79950 0.04605 0.86174 0.35300
C 	C 	0.78151 0.07512 0.88044 -0.02600
C 	C 	0.75303 0.09137 0.86594 -0.11100
H 	H 	0.74420 0.08350 0.84450 0.11500
C 	C 	0.69235 0.16330 0.88172 0.20600
C 	C 	0.66197 0.18173 0.86384 -0.06200
O 	O 	0.70069 0.17919 0.90839 -0.22700
C 	C 	0.66950 0.20646 0.83818 0.02800
C 	C 	0.62887 0.17330 0.87116 0.02600
H 	H 	0.69280 0.21150 0.83240 0.02100
C 	C 	0.64327 0.22309 0.82168 -0.12600
C 	C 	0.60194 0.18903 0.85412 -0.12000
H 	H 	0.62420 0.15630 0.88820 0.02800
H 	H 	0.64840 0.24060 0.80530 0.07900
C 	C 	0.60923 0.21474 0.82859 0.12100
H 	H 	0.57880 0.18290 0.85930 0.07500
N 	N 	0.57900 0.23510 0.81130 -0.22800
O 	O 	0.57600 0.23290 0.80650 0.02400
H 	H 	0.57170 0.25580 0.81890 0.13800
H 	H 	0.69830 0.12690 0.84520 -0.00500
O 	O 	0.32577 0.53505 0.37622 -0.40900
O 	O 	0.28584 0.53586 0.33452 -0.39900
C 	C 	0.29950 0.54605 0.36174 0.35300
C 	C 	0.28151 0.57512 0.38044 -0.02600
C 	C 	0.25303 0.59137 0.36594 -0.11100
H 	H 	0.24420 0.58350 0.34450 0.11500
C 	C 	0.19235 0.66330 0.38172 0.20600
C 	C 	0.16197 0.68173 0.36384 -0.06200
O 	O 	0.20069 0.67919 0.40839 -0.22700
C 	C 	0.16950 0.70646 0.33818 0.02700
C 	C 	0.12887 0.67330 0.37116 0.02600
H 	H 	0.19280 0.71150 0.33240 0.02100
C 	C 	0.14327 0.72309 0.32168 -0.12600
C 	C 	0.10194 0.68903 0.35412 -0.12000
H 	H 	0.12420 0.65630 0.38820 0.02700
H 	H 	0.14840 0.74060 0.30530 0.07900
C 	C 	0.10923 0.71474 0.32859 0.12100
H 	H 	0.07880 0.68290 0.35930 0.07400
N 	N 	0.07900 0.73510 0.31130 -0.22800
O 	O 	0.07600 0.73290 0.30650 0.02400
H 	H 	0.07170 0.75580 0.31890 0.13700
H 	H 	0.19830 0.62690 0.34520 -0.00500
O 	O 	0.96495 0.87622 0.17423 -0.40600
O 	O 	0.96414 0.83452 0.21416 -0.39500
C 	C 	0.95395 0.86174 0.20050 0.35300
C 	C 	0.92488 0.88044 0.21849 -0.02400
C 	C 	0.90863 0.86594 0.24697 -0.11100
H 	H 	0.91650 0.84450 0.25580 0.11500
C 	C 	0.83670 0.88172 0.30765 0.20600
C 	C 	0.81827 0.86384 0.33803 -0.06100
O 	O 	0.82081 0.90839 0.29931 -0.22600
C 	C 	0.79354 0.83818 0.33050 0.02700
C 	C 	0.82670 0.87116 0.37113 0.02600
H 	H 	0.78850 0.83240 0.30720 0.02100
C 	C 	0.77691 0.82168 0.35673 -0.12600
C 	C 	0.81097 0.85412 0.39806 -0.12000
H 	H 	0.84370 0.88820 0.37580 0.02900
H 	H 	0.75940 0.80530 0.35160 0.07900
C 	C 	0.78526 0.82859 0.39077 0.12100
H 	H 	0.81710 0.85930 0.42120 0.07500
N 	N 	0.76490 0.81130 0.42100 -0.22800
O 	O 	0.76710 0.80650 0.42400 0.02400
H 	H 	0.74420 0.81890 0.42830 0.13800
H 	H 	0.87310 0.84520 0.30170 -0.00500
O 	O 	0.46495 0.37622 0.67423 -0.40900
O 	O 	0.46414 0.33452 0.71416 -0.39900
C 	C 	0.45395 0.36174 0.70050 0.35300
C 	C 	0.42488 0.38044 0.71849 -0.02600
C 	C 	0.40863 0.36594 0.74697 -0.11100
H 	H 	0.41650 0.34450 0.75580 0.11500
C 	C 	0.33670 0.38172 0.80765 0.20600
C 	C 	0.31827 0.36384 0.83803 -0.06200
O 	O 	0.32081 0.40839 0.79931 -0.22700
C 	C 	0.29354 0.33818 0.83050 0.02800
C 	C 	0.32670 0.37116 0.87113 0.02700
H 	H 	0.28850 0.33240 0.80720 0.02100
C 	C 	0.27691 0.32168 0.85673 -0.12700
C 	C 	0.31097 0.35412 0.89806 -0.12100
H 	H 	0.34370 0.38820 0.87580 0.02800
H 	H 	0.25940 0.30530 0.85160 0.07900
C 	C 	0.28526 0.32859 0.89077 0.12100
H 	H 	0.31710 0.35930 0.92120 0.07600
N 	N 	0.26490 0.31130 0.92100 -0.22800
O 	O 	0.26710 0.30650 0.92400 0.02400
H 	H 	0.24420 0.31890 0.92830 0.13800
H 	H 	0.37310 0.34520 0.80170 -0.00500
O 	O 	0.96495 0.12378 0.82577 -0.40600
O 	O 	0.96414 0.16548 0.78584 -0.39600
C 	C 	0.95395 0.13826 0.79950 0.35300
C 	C 	0.92488 0.11956 0.78151 -0.02500
C 	C 	0.90863 0.13406 0.75303 -0.11100
H 	H 	0.91650 0.15550 0.74420 0.11500
C 	C 	0.83670 0.11828 0.69235 0.20600
C 	C 	0.81827 0.13616 0.66197 -0.06200
O 	O 	0.82081 0.09161 0.70069 -0.22800
C 	C 	0.79354 0.16182 0.66950 0.02700
C 	C 	0.82670 0.12884 0.62887 0.02600
H 	H 	0.78850 0.16760 0.69280 0.02100
C 	C 	0.77691 0.17832 0.64327 -0.12700
C 	C 	0.81097 0.14588 0.60194 -0.12100
H 	H 	0.84370 0.11180 0.62420 0.02800
H 	H 	0.75940 0.19470 0.64840 0.07900
C 	C 	0.78526 0.17141 0.60923 0.12100
H 	H 	0.81710 0.14070 0.57880 0.07400
N 	N 	0.76490 0.18870 0.57900 -0.22800
O 	O 	0.76710 0.19350 0.57600 0.02400
H 	H 	0.74420 0.18110 0.57170 0.13700
H 	H 	0.87310 0.15480 0.69830 -0.00500
O 	O 	0.46495 0.62378 0.32577 -0.40900
O 	O 	0.46414 0.66548 0.28584 -0.39900
C 	C 	0.45395 0.63826 0.29950 0.35300
C 	C 	0.42488 0.61956 0.28151 -0.02600
C 	C 	0.40863 0.63406 0.25303 -0.11100
H 	H 	0.41650 0.65550 0.24420 0.11500
C 	C 	0.33670 0.61828 0.19235 0.20600
C 	C 	0.31827 0.63616 0.16197 -0.06200
O 	O 	0.32081 0.59161 0.20069 -0.22700
C 	C 	0.29354 0.66182 0.16950 0.02700
C 	C 	0.32670 0.62884 0.12887 0.02600
H 	H 	0.28850 0.66760 0.19280 0.02100
C 	C 	0.27691 0.67832 0.14327 -0.12600
C 	C 	0.31097 0.64588 0.10194 -0.12000
H 	H 	0.34370 0.61180 0.12420 0.02700
H 	H 	0.25940 0.69470 0.14840 0.07900
C 	C 	0.28526 0.67141 0.10923 0.12000
H 	H 	0.31710 0.64070 0.07880 0.07400
N 	N 	0.26490 0.68870 0.07900 -0.22800
O 	O 	0.26710 0.69350 0.07600 0.02400
H 	H 	0.24420 0.68110 0.07170 0.13700
H 	H 	0.37310 0.65480 0.19830 -0.00500
O 	O 	0.03505 0.87622 0.82577 -0.41000
O 	O 	0.03586 0.83452 0.78584 -0.40000
C 	C 	0.04605 0.86174 0.79950 0.35300
C 	C 	0.07512 0.88044 0.78151 -0.02600
C 	C 	0.09137 0.86594 0.75303 -0.11100
H 	H 	0.08350 0.84450 0.74420 0.11500
C 	C 	0.16330 0.88172 0.69235 0.20600
C 	C 	0.18173 0.86384 0.66197 -0.06200
O 	O 	0.17919 0.90839 0.70069 -0.22700
C 	C 	0.20646 0.83818 0.66950 0.02800
C 	C 	0.17330 0.87116 0.62887 0.02600
H 	H 	0.21150 0.83240 0.69280 0.02100
C 	C 	0.22309 0.82168 0.64327 -0.12600
C 	C 	0.18903 0.85412 0.60194 -0.12000
H 	H 	0.15630 0.88820 0.62420 0.02800
H 	H 	0.24060 0.80530 0.64840 0.07900
C 	C 	0.21474 0.82859 0.60923 0.12100
H 	H 	0.18290 0.85930 0.57880 0.07500
N 	N 	0.23510 0.81130 0.57900 -0.22800
O 	O 	0.23290 0.80650 0.57600 0.02400
H 	H 	0.25580 0.81890 0.57170 0.13800
H 	H 	0.12690 0.84520 0.69830 -0.00500
O 	O 	0.53505 0.37622 0.32577 -0.40900
O 	O 	0.53586 0.33452 0.28584 -0.39900
C 	C 	0.54605 0.36174 0.29950 0.35300
C 	C 	0.57512 0.38044 0.28151 -0.02600
C 	C 	0.59137 0.36594 0.25303 -0.11100
H 	H 	0.58350 0.34450 0.24420 0.11500
C 	C 	0.66330 0.38172 0.19235 0.20600
C 	C 	0.68173 0.36384 0.16197 -0.06200
O 	O 	0.67919 0.40839 0.20069 -0.22700
C 	C 	0.70646 0.33818 0.16950 0.02700
C 	C 	0.67330 0.37116 0.12887 0.02600
H 	H 	0.71150 0.33240 0.19280 0.02100
C 	C 	0.72309 0.32168 0.14327 -0.12600
C 	C 	0.68903 0.35412 0.10194 -0.12000
H 	H 	0.65630 0.38820 0.12420 0.02700
H 	H 	0.74060 0.30530 0.14840 0.07900
C 	C 	0.71474 0.32859 0.10923 0.12100
H 	H 	0.68290 0.35930 0.07880 0.07400
N 	N 	0.73510 0.31130 0.07900 -0.22800
O 	O 	0.73290 0.30650 0.07600 0.02400
H 	H 	0.75580 0.31890 0.07170 0.13700
H 	H 	0.62690 0.34520 0.19830 -0.00500
O 	O 	0.03505 0.12378 0.17423 -0.41200
O 	O 	0.03586 0.16548 0.21416 -0.40000
C 	C 	0.04605 0.13826 0.20050 0.35400
C 	C 	0.07512 0.11956 0.21849 -0.02800
C 	C 	0.09137 0.13406 0.24697 -0.11000
H 	H 	0.08350 0.15550 0.25580 0.11400
C 	C 	0.16330 0.11828 0.30765 0.20600
C 	C 	0.18173 0.13616 0.33803 -0.06200
O 	O 	0.17919 0.09161 0.29931 -0.22800
C 	C 	0.20646 0.16182 0.33050 0.02800
C 	C 	0.17330 0.12884 0.37113 0.02600
H 	H 	0.21150 0.16760 0.30720 0.02100
C 	C 	0.22309 0.17832 0.35673 -0.12700
C 	C 	0.18903 0.14588 0.39806 -0.12100
H 	H 	0.15630 0.11180 0.37580 0.02700
H 	H 	0.24060 0.19470 0.35160 0.07900
C 	C 	0.21474 0.17141 0.39077 0.12100
H 	H 	0.18290 0.14070 0.42120 0.07400
N 	N 	0.23510 0.18870 0.42100 -0.22800
O 	O 	0.23290 0.19350 0.42400 0.02400
H 	H 	0.25580 0.18110 0.42830 0.13700
H 	H 	0.12690 0.15480 0.30170 -0.00500
O 	O 	0.53505 0.62378 0.67423 -0.40900
O 	O 	0.53586 0.66548 0.71416 -0.39900
C 	C 	0.54605 0.63826 0.70050 0.35300
C 	C 	0.57512 0.61956 0.71849 -0.02600
C 	C 	0.59137 0.63406 0.74697 -0.11100
H 	H 	0.58350 0.65550 0.75580 0.11500
C 	C 	0.66330 0.61828 0.80765 0.20600
C 	C 	0.68173 0.63616 0.83803 -0.06200
O 	O 	0.67919 0.59161 0.79931 -0.22700
C 	C 	0.70646 0.66182 0.83050 0.02800
C 	C 	0.67330 0.62884 0.87113 0.02700
H 	H 	0.71150 0.66760 0.80720 0.02100
C 	C 	0.72309 0.67832 0.85673 -0.12700
C 	C 	0.68903 0.64588 0.89806 -0.12100
H 	H 	0.65630 0.61180 0.87580 0.02800
H 	H 	0.74060 0.69470 0.85160 0.07900
C 	C 	0.71474 0.67141 0.89077 0.12100
H 	H 	0.68290 0.64070 0.92120 0.07600
N 	N 	0.73510 0.68870 0.92100 -0.22800
O 	O 	0.73290 0.69350 0.92400 0.02400
H 	H 	0.75580 0.68110 0.92830 0.13800
H 	H 	0.62690 0.65480 0.80170 -0.00500
O 	O 	0.17423 0.12378 0.03505 -0.41200
O 	O 	0.21416 0.16548 0.03586 -0.40000
C 	C 	0.20050 0.13826 0.04605 0.35400
C 	C 	0.21849 0.11956 0.07512 -0.02800
C 	C 	0.24697 0.13406 0.09137 -0.11000
H 	H 	0.25580 0.15550 0.08350 0.11400
C 	C 	0.30765 0.11828 0.16330 0.20600
C 	C 	0.33803 0.13616 0.18173 -0.06200
O 	O 	0.29931 0.09161 0.17919 -0.22800
C 	C 	0.33050 0.16182 0.20646 0.02800
C 	C 	0.37113 0.12884 0.17330 0.02600
H 	H 	0.30720 0.16760 0.21150 0.02100
C 	C 	0.35673 0.17832 0.22309 -0.12700
C 	C 	0.39806 0.14588 0.18903 -0.12100
H 	H 	0.37580 0.11180 0.15630 0.02700
H 	H 	0.35160 0.19470 0.24060 0.07900
C 	C 	0.39077 0.17141 0.21474 0.12100
H 	H 	0.42120 0.14070 0.18290 0.07400
N 	N 	0.42100 0.18870 0.23510 -0.22800
O 	O 	0.42400 0.19350 0.23290 0.02400
H 	H 	0.42830 0.18110 0.25580 0.13700
H 	H 	0.30170 0.15480 0.12690 -0.00500
O 	O 	0.67423 0.62378 0.53505 -0.40900
O 	O 	0.71416 0.66548 0.53586 -0.39900
C 	C 	0.70050 0.63826 0.54605 0.35300
C 	C 	0.71849 0.61956 0.57512 -0.02600
C 	C 	0.74697 0.63406 0.59137 -0.11100
H 	H 	0.75580 0.65550 0.58350 0.11500
C 	C 	0.80765 0.61828 0.66330 0.20600
C 	C 	0.83803 0.63616 0.68173 -0.06200
O 	O 	0.79931 0.59161 0.67919 -0.22700
C 	C 	0.83050 0.66182 0.70646 0.02800
C 	C 	0.87113 0.62884 0.67330 0.02700
H 	H 	0.80720 0.66760 0.71150 0.02100
C 	C 	0.85673 0.67832 0.72309 -0.12700
C 	C 	0.89806 0.64588 0.68903 -0.12100
H 	H 	0.87580 0.61180 0.65630 0.02800
H 	H 	0.85160 0.69470 0.74060 0.07900
C 	C 	0.89077 0.67141 0.71474 0.12100
H 	H 	0.92120 0.64070 0.68290 0.07600
N 	N 	0.92100 0.68870 0.73510 -0.22800
O 	O 	0.92400 0.69350 0.73290 0.02400
H 	H 	0.92830 0.68110 0.75580 0.13800
H 	H 	0.80170 0.65480 0.62690 -0.00500
O 	O 	0.82577 0.87622 0.03505 -0.41000
O 	O 	0.78584 0.83452 0.03586 -0.40000
C 	C 	0.79950 0.86174 0.04605 0.35300
C 	C 	0.78151 0.88044 0.07512 -0.02600
C 	C 	0.75303 0.86594 0.09137 -0.11100
H 	H 	0.74420 0.84450 0.08350 0.11500
C 	C 	0.69235 0.88172 0.16330 0.20600
C 	C 	0.66197 0.86384 0.18173 -0.06200
O 	O 	0.70069 0.90839 0.17919 -0.22700
C 	C 	0.66950 0.83818 0.20646 0.02800
C 	C 	0.62887 0.87116 0.17330 0.02600
H 	H 	0.69280 0.83240 0.21150 0.02100
C 	C 	0.64327 0.82168 0.22309 -0.12600
C 	C 	0.60194 0.85412 0.18903 -0.12000
H 	H 	0.62420 0.88820 0.15630 0.02800
H 	H 	0.64840 0.80530 0.24060 0.07900
C 	C 	0.60923 0.82859 0.21474 0.12100
H 	H 	0.57880 0.85930 0.18290 0.07500
N 	N 	0.57900 0.81130 0.23510 -0.22800
O 	O 	0.57600 0.80650 0.23290 0.02400
H 	H 	0.57170 0.81890 0.25580 0.13800
H 	H 	0.69830 0.84520 0.12690 -0.00500
O 	O 	0.32577 0.37622 0.53505 -0.40900
O 	O 	0.28584 0.33452 0.53586 -0.39900
C 	C 	0.29950 0.36174 0.54605 0.35300
C 	C 	0.28151 0.38044 0.57512 -0.02600
C 	C 	0.25303 0.36594 0.59137 -0.11100
H 	H 	0.24420 0.34450 0.58350 0.11500
C 	C 	0.19235 0.38172 0.66330 0.20600
C 	C 	0.16197 0.36384 0.68173 -0.06200
O 	O 	0.20069 0.40839 0.67919 -0.22700
C 	C 	0.16950 0.33818 0.70646 0.02700
C 	C 	0.12887 0.37116 0.67330 0.02600
H 	H 	0.19280 0.33240 0.71150 0.02100
C 	C 	0.14327 0.32168 0.72309 -0.12600
C 	C 	0.10194 0.35412 0.68903 -0.12000
H 	H 	0.12420 0.38820 0.65630 0.02700
H 	H 	0.14840 0.30530 0.74060 0.07900
C 	C 	0.10923 0.32859 0.71474 0.12100
H 	H 	0.07880 0.35930 0.68290 0.07400
N 	N 	0.07900 0.31130 0.73510 -0.22800
O 	O 	0.07600 0.30650 0.73290 0.02400
H 	H 	0.07170 0.31890 0.75580 0.13700
H 	H 	0.19830 0.34520 0.62690 -0.00500
O 	O 	0.82577 0.12378 0.96495 -0.40600
O 	O 	0.78584 0.16548 0.96414 -0.39600
C 	C 	0.79950 0.13826 0.95395 0.35300
C 	C 	0.78151 0.11956 0.92488 -0.02500
C 	C 	0.75303 0.13406 0.90863 -0.11100
H 	H 	0.74420 0.15550 0.91650 0.11500
C 	C 	0.69235 0.11828 0.83670 0.20600
C 	C 	0.66197 0.13616 0.81827 -0.06200
O 	O 	0.70069 0.09161 0.82081 -0.22800
C 	C 	0.66950 0.16182 0.79354 0.02700
C 	C 	0.62887 0.12884 0.82670 0.02600
H 	H 	0.69280 0.16760 0.78850 0.02100
C 	C 	0.64327 0.17832 0.77691 -0.12700
C 	C 	0.60194 0.14588 0.81097 -0.12100
H 	H 	0.62420 0.11180 0.84370 0.02800
H 	H 	0.64840 0.19470 0.75940 0.07900
C 	C 	0.60923 0.17141 0.78526 0.12100
H 	H 	0.57880 0.14070 0.81710 0.07400
N 	N 	0.57900 0.18870 0.76490 -0.22800
O 	O 	0.57600 0.19350 0.76710 0.02400
H 	H 	0.57170 0.18110 0.74420 0.13700
H 	H 	0.69830 0.15480 0.87310 -0.00500
O 	O 	0.32577 0.62378 0.46495 -0.40900
O 	O 	0.28584 0.66548 0.46414 -0.39900
C 	C 	0.29950 0.63826 0.45395 0.35300
C 	C 	0.28151 0.61956 0.42488 -0.02600
C 	C 	0.25303 0.63406 0.40863 -0.11100
H 	H 	0.24420 0.65550 0.41650 0.11500
C 	C 	0.19235 0.61828 0.33670 0.20600
C 	C 	0.16197 0.63616 0.31827 -0.06200
O 	O 	0.20069 0.59161 0.32081 -0.22700
C 	C 	0.16950 0.66182 0.29354 0.02700
C 	C 	0.12887 0.62884 0.32670 0.02600
H 	H 	0.19280 0.66760 0.28850 0.02100
C 	C 	0.14327 0.67832 0.27691 -0.12600
C 	C 	0.10194 0.64588 0.31097 -0.12000
H 	H 	0.12420 0.61180 0.34370 0.02700
H 	H 	0.14840 0.69470 0.25940 0.07900
C 	C 	0.10923 0.67141 0.28526 0.12000
H 	H 	0.07880 0.64070 0.31710 0.07400
N 	N 	0.07900 0.68870 0.26490 -0.22800
O 	O 	0.07600 0.69350 0.26710 0.02400
H 	H 	0.07170 0.68110 0.24420 0.13700
H 	H 	0.19830 0.65480 0.37310 -0.00500
O 	O 	0.17423 0.87622 0.96495 -0.40600
O 	O 	0.21416 0.83452 0.96414 -0.39500
C 	C 	0.20050 0.86174 0.95395 0.35300
C 	C 	0.21849 0.88044 0.92488 -0.02400
C 	C 	0.24697 0.86594 0.90863 -0.11100
H 	H 	0.25580 0.84450 0.91650 0.11500
C 	C 	0.30765 0.88172 0.83670 0.20600
C 	C 	0.33803 0.86384 0.81827 -0.06100
O 	O 	0.29931 0.90839 0.82081 -0.22600
C 	C 	0.33050 0.83818 0.79354 0.02700
C 	C 	0.37113 0.87116 0.82670 0.02600
H 	H 	0.30720 0.83240 0.78850 0.02100
C 	C 	0.35673 0.82168 0.77691 -0.12600
C 	C 	0.39806 0.85412 0.81097 -0.12000
H 	H 	0.37580 0.88820 0.84370 0.02900
H 	H 	0.35160 0.80530 0.75940 0.07900
C 	C 	0.39077 0.82859 0.78526 0.12100
H 	H 	0.42120 0.85930 0.81710 0.07500
N 	N 	0.42100 0.81130 0.76490 -0.22800
O 	O 	0.42400 0.80650 0.76710 0.02400
H 	H 	0.42830 0.81890 0.74420 0.13800
H 	H 	0.30170 0.84520 0.87310 -0.00500
O 	O 	0.67423 0.37622 0.46495 -0.40900
O 	O 	0.71416 0.33452 0.46414 -0.39900
C 	C 	0.70050 0.36174 0.45395 0.35300
C 	C 	0.71849 0.38044 0.42488 -0.02600
C 	C 	0.74697 0.36594 0.40863 -0.11100
H 	H 	0.75580 0.34450 0.41650 0.11500
C 	C 	0.80765 0.38172 0.33670 0.20600
C 	C 	0.83803 0.36384 0.31827 -0.06200
O 	O 	0.79931 0.40839 0.32081 -0.22700
C 	C 	0.83050 0.33818 0.29354 0.02800
C 	C 	0.87113 0.37116 0.32670 0.02700
H 	H 	0.80720 0.33240 0.28850 0.02100
C 	C 	0.85673 0.32168 0.27691 -0.12700
C 	C 	0.89806 0.35412 0.31097 -0.12100
H 	H 	0.87580 0.38820 0.34370 0.02800
H 	H 	0.85160 0.30530 0.25940 0.07900
C 	C 	0.89077 0.32859 0.28526 0.12100
H 	H 	0.92120 0.35930 0.31710 0.07600
N 	N 	0.92100 0.31130 0.26490 -0.22800
O 	O 	0.92400 0.30650 0.26710 0.02400
H 	H 	0.92830 0.31890 0.24420 0.13800
H 	H 	0.80170 0.34520 0.37310 -0.00500
O 	O 	0.03505 0.17423 0.12378 -0.41200
O 	O 	0.03586 0.21416 0.16548 -0.40000
C 	C 	0.04605 0.20050 0.13826 0.35400
C 	C 	0.07512 0.21849 0.11956 -0.02800
C 	C 	0.09137 0.24697 0.13406 -0.11000
H 	H 	0.08350 0.25580 0.15550 0.11400
C 	C 	0.16330 0.30765 0.11828 0.20600
C 	C 	0.18173 0.33803 0.13616 -0.06200
O 	O 	0.17919 0.29931 0.09161 -0.22800
C 	C 	0.20646 0.33050 0.16182 0.02800
C 	C 	0.17330 0.37113 0.12884 0.02600
H 	H 	0.21150 0.30720 0.16760 0.02100
C 	C 	0.22309 0.35673 0.17832 -0.12700
C 	C 	0.18903 0.39806 0.14588 -0.12100
H 	H 	0.15630 0.37580 0.11180 0.02700
H 	H 	0.24060 0.35160 0.19470 0.07900
C 	C 	0.21474 0.39077 0.17141 0.12100
H 	H 	0.18290 0.42120 0.14070 0.07400
N 	N 	0.23510 0.42100 0.18870 -0.22800
O 	O 	0.23290 0.42400 0.19350 0.02400
H 	H 	0.25580 0.42830 0.18110 0.13700
H 	H 	0.12690 0.30170 0.15480 -0.00500
O 	O 	0.53505 0.67423 0.62378 -0.40900
O 	O 	0.53586 0.71416 0.66548 -0.39900
C 	C 	0.54605 0.70050 0.63826 0.35300
C 	C 	0.57512 0.71849 0.61956 -0.02600
C 	C 	0.59137 0.74697 0.63406 -0.11100
H 	H 	0.58350 0.75580 0.65550 0.11500
C 	C 	0.66330 0.80765 0.61828 0.20600
C 	C 	0.68173 0.83803 0.63616 -0.06200
O 	O 	0.67919 0.79931 0.59161 -0.22700
C 	C 	0.70646 0.83050 0.66182 0.02800
C 	C 	0.67330 0.87113 0.62884 0.02700
H 	H 	0.71150 0.80720 0.66760 0.02100
C 	C 	0.72309 0.85673 0.67832 -0.12700
C 	C 	0.68903 0.89806 0.64588 -0.12100
H 	H 	0.65630 0.87580 0.61180 0.02800
H 	H 	0.74060 0.85160 0.69470 0.07900
C 	C 	0.71474 0.89077 0.67141 0.12100
H 	H 	0.68290 0.92120 0.64070 0.07600
N 	N 	0.73510 0.92100 0.68870 -0.22800
O 	O 	0.73290 0.92400 0.69350 0.02400
H 	H 	0.75580 0.92830 0.68110 0.13800
H 	H 	0.62690 0.80170 0.65480 -0.00500
O 	O 	0.03505 0.82577 0.87622 -0.41000
O 	O 	0.03586 0.78584 0.83452 -0.40000
C 	C 	0.04605 0.79950 0.86174 0.35300
C 	C 	0.07512 0.78151 0.88044 -0.02600
C 	C 	0.09137 0.75303 0.86594 -0.11100
H 	H 	0.08350 0.74420 0.84450 0.11500
C 	C 	0.16330 0.69235 0.88172 0.20600
C 	C 	0.18173 0.66197 0.86384 -0.06200
O 	O 	0.17919 0.70069 0.90839 -0.22700
C 	C 	0.20646 0.66950 0.83818 0.02800
C 	C 	0.17330 0.62887 0.87116 0.02600
H 	H 	0.21150 0.69280 0.83240 0.02100
C 	C 	0.22309 0.64327 0.82168 -0.12600
C 	C 	0.18903 0.60194 0.85412 -0.12000
H 	H 	0.15630 0.62420 0.88820 0.02800
H 	H 	0.24060 0.64840 0.80530 0.07900
C 	C 	0.21474 0.60923 0.82859 0.12100
H 	H 	0.18290 0.57880 0.85930 0.07500
N 	N 	0.23510 0.57900 0.81130 -0.22800
O 	O 	0.23290 0.57600 0.80650 0.02400
H 	H 	0.25580 0.57170 0.81890 0.13800
H 	H 	0.12690 0.69830 0.84520 -0.00500
O 	O 	0.53505 0.32577 0.37622 -0.40900
O 	O 	0.53586 0.28584 0.33452 -0.39900
C 	C 	0.54605 0.29950 0.36174 0.35300
C 	C 	0.57512 0.28151 0.38044 -0.02600
C 	C 	0.59137 0.25303 0.36594 -0.11100
H 	H 	0.58350 0.24420 0.34450 0.11500
C 	C 	0.66330 0.19235 0.38172 0.20600
C 	C 	0.68173 0.16197 0.36384 -0.06200
O 	O 	0.67919 0.20069 0.40839 -0.22700
C 	C 	0.70646 0.16950 0.33818 0.02700
C 	C 	0.67330 0.12887 0.37116 0.02600
H 	H 	0.71150 0.19280 0.33240 0.02100
C 	C 	0.72309 0.14327 0.32168 -0.12600
C 	C 	0.68903 0.10194 0.35412 -0.12000
H 	H 	0.65630 0.12420 0.38820 0.02700
H 	H 	0.74060 0.14840 0.30530 0.07900
C 	C 	0.71474 0.10923 0.32859 0.12100
H 	H 	0.68290 0.07880 0.35930 0.07400
N 	N 	0.73510 0.07900 0.31130 -0.22800
O 	O 	0.73290 0.07600 0.30650 0.02400
H 	H 	0.75580 0.07170 0.31890 0.13700
H 	H 	0.62690 0.19830 0.34520 -0.00500
O 	O 	0.96495 0.82577 0.12378 -0.40600
O 	O 	0.96414 0.78584 0.16548 -0.39600
C 	C 	0.95395 0.79950 0.13826 0.35300
C 	C 	0.92488 0.78151 0.11956 -0.02500
C 	C 	0.90863 0.75303 0.13406 -0.11100
H 	H 	0.91650 0.74420 0.15550 0.11500
C 	C 	0.83670 0.69235 0.11828 0.20600
C 	C 	0.81827 0.66197 0.13616 -0.06200
O 	O 	0.82081 0.70069 0.09161 -0.22800
C 	C 	0.79354 0.66950 0.16182 0.02700
C 	C 	0.82670 0.62887 0.12884 0.02600
H 	H 	0.78850 0.69280 0.16760 0.02100
C 	C 	0.77691 0.64327 0.17832 -0.12700
C 	C 	0.81097 0.60194 0.14588 -0.12100
H 	H 	0.84370 0.62420 0.11180 0.02800
H 	H 	0.75940 0.64840 0.19470 0.07900
C 	C 	0.78526 0.60923 0.17141 0.12100
H 	H 	0.81710 0.57880 0.14070 0.07400
N 	N 	0.76490 0.57900 0.18870 -0.22800
O 	O 	0.76710 0.57600 0.19350 0.02400
H 	H 	0.74420 0.57170 0.18110 0.13700
H 	H 	0.87310 0.69830 0.15480 -0.00500
O 	O 	0.46495 0.32577 0.62378 -0.40900
O 	O 	0.46414 0.28584 0.66548 -0.39900
C 	C 	0.45395 0.29950 0.63826 0.35300
C 	C 	0.42488 0.28151 0.61956 -0.02600
C 	C 	0.40863 0.25303 0.63406 -0.11100
H 	H 	0.41650 0.24420 0.65550 0.11500
C 	C 	0.33670 0.19235 0.61828 0.20600
C 	C 	0.31827 0.16197 0.63616 -0.06200
O 	O 	0.32081 0.20069 0.59161 -0.22700
C 	C 	0.29354 0.16950 0.66182 0.02700
C 	C 	0.32670 0.12887 0.62884 0.02600
H 	H 	0.28850 0.19280 0.66760 0.02100
C 	C 	0.27691 0.14327 0.67832 -0.12600
C 	C 	0.31097 0.10194 0.64588 -0.12000
H 	H 	0.34370 0.12420 0.61180 0.02700
H 	H 	0.25940 0.14840 0.69470 0.07900
C 	C 	0.28526 0.10923 0.67141 0.12000
H 	H 	0.31710 0.07880 0.64070 0.07400
N 	N 	0.26490 0.07900 0.68870 -0.22800
O 	O 	0.26710 0.07600 0.69350 0.02400
H 	H 	0.24420 0.07170 0.68110 0.13700
H 	H 	0.37310 0.19830 0.65480 -0.00500
O 	O 	0.96495 0.17423 0.87622 -0.40600
O 	O 	0.96414 0.21416 0.83452 -0.39500
C 	C 	0.95395 0.20050 0.86174 0.35300
C 	C 	0.92488 0.21849 0.88044 -0.02400
C 	C 	0.90863 0.24697 0.86594 -0.11100
H 	H 	0.91650 0.25580 0.84450 0.11500
C 	C 	0.83670 0.30765 0.88172 0.20600
C 	C 	0.81827 0.33803 0.86384 -0.06100
O 	O 	0.82081 0.29931 0.90839 -0.22600
C 	C 	0.79354 0.33050 0.83818 0.02700
C 	C 	0.82670 0.37113 0.87116 0.02600
H 	H 	0.78850 0.30720 0.83240 0.02100
C 	C 	0.77691 0.35673 0.82168 -0.12600
C 	C 	0.81097 0.39806 0.85412 -0.12000
H 	H 	0.84370 0.37580 0.88820 0.02900
H 	H 	0.75940 0.35160 0.80530 0.07900
C 	C 	0.78526 0.39077 0.82859 0.12100
H 	H 	0.81710 0.42120 0.85930 0.07500
N 	N 	0.76490 0.42100 0.81130 -0.22800
O 	O 	0.76710 0.42400 0.80650 0.02400
H 	H 	0.74420 0.42830 0.81890 0.13800
H 	H 	0.87310 0.30170 0.84520 -0.00500
O 	O 	0.46495 0.67423 0.37622 -0.40900
O 	O 	0.46414 0.71416 0.33452 -0.39900
C 	C 	0.45395 0.70050 0.36174 0.35300
C 	C 	0.42488 0.71849 0.38044 -0.02600
C 	C 	0.40863 0.74697 0.36594 -0.11100
H 	H 	0.41650 0.75580 0.34450 0.11500
C 	C 	0.33670 0.80765 0.38172 0.20600
C 	C 	0.31827 0.83803 0.36384 -0.06200
O 	O 	0.32081 0.79931 0.40839 -0.22700
C 	C 	0.29354 0.83050 0.33818 0.02800
C 	C 	0.32670 0.87113 0.37116 0.02700
H 	H 	0.28850 0.80720 0.33240 0.02100
C 	C 	0.27691 0.85673 0.32168 -0.12700
C 	C 	0.31097 0.89806 0.35412 -0.12100
H 	H 	0.34370 0.87580 0.38820 0.02800
H 	H 	0.25940 0.85160 0.30530 0.07900
C 	C 	0.28526 0.89077 0.32859 0.12100
H 	H 	0.31710 0.92120 0.35930 0.07600
N 	N 	0.26490 0.92100 0.31130 -0.22800
O 	O 	0.26710 0.92400 0.30650 0.02400
H 	H 	0.24420 0.92830 0.31890 0.13800
H 	H 	0.37310 0.80170 0.34520 -0.00500
O 	O 	0.12378 0.03505 0.17423 -0.41200
O 	O 	0.16548 0.03586 0.21416 -0.40000
C 	C 	0.13826 0.04605 0.20050 0.35400
C 	C 	0.11956 0.07512 0.21849 -0.02800
C 	C 	0.13406 0.09137 0.24697 -0.11000
H 	H 	0.15550 0.08350 0.25580 0.11400
C 	C 	0.11828 0.16330 0.30765 0.20600
C 	C 	0.13616 0.18173 0.33803 -0.06200
O 	O 	0.09161 0.17919 0.29931 -0.22800
C 	C 	0.16182 0.20646 0.33050 0.02800
C 	C 	0.12884 0.17330 0.37113 0.02600
H 	H 	0.16760 0.21150 0.30720 0.02100
C 	C 	0.17832 0.22309 0.35673 -0.12700
C 	C 	0.14588 0.18903 0.39806 -0.12100
H 	H 	0.11180 0.15630 0.37580 0.02700
H 	H 	0.19470 0.24060 0.35160 0.07900
C 	C 	0.17141 0.21474 0.39077 0.12100
H 	H 	0.14070 0.18290 0.42120 0.07400
N 	N 	0.18870 0.23510 0.42100 -0.22800
O 	O 	0.19350 0.23290 0.42400 0.02400
H 	H 	0.18110 0.25580 0.42830 0.13700
H 	H 	0.15480 0.12690 0.30170 -0.00500
O 	O 	0.62378 0.53505 0.67423 -0.40900
O 	O 	0.66548 0.53586 0.71416 -0.39900
C 	C 	0.63826 0.54605 0.70050 0.35300
C 	C 	0.61956 0.57512 0.71849 -0.02600
C 	C 	0.63406 0.59137 0.74697 -0.11100
H 	H 	0.65550 0.58350 0.75580 0.11500
C 	C 	0.61828 0.66330 0.80765 0.20600
C 	C 	0.63616 0.68173 0.83803 -0.06200
O 	O 	0.59161 0.67919 0.79931 -0.22700
C 	C 	0.66182 0.70646 0.83050 0.02800
C 	C 	0.62884 0.67330 0.87113 0.02700
H 	H 	0.66760 0.71150 0.80720 0.02100
C 	C 	0.67832 0.72309 0.85673 -0.12700
C 	C 	0.64588 0.68903 0.89806 -0.12100
H 	H 	0.61180 0.65630 0.87580 0.02800
H 	H 	0.69470 0.74060 0.85160 0.07900
C 	C 	0.67141 0.71474 0.89077 0.12100
H 	H 	0.64070 0.68290 0.92120 0.07600
N 	N 	0.68870 0.73510 0.92100 -0.22800
O 	O 	0.69350 0.73290 0.92400 0.02400
H 	H 	0.68110 0.75580 0.92830 0.13800
H 	H 	0.65480 0.62690 0.80170 -0.00500
O 	O 	0.87622 0.03505 0.82577 -0.41000
O 	O 	0.83452 0.03586 0.78584 -0.40000
C 	C 	0.86174 0.04605 0.79950 0.35300
C 	C 	0.88044 0.07512 0.78151 -0.02600
C 	C 	0.86594 0.09137 0.75303 -0.11100
H 	H 	0.84450 0.08350 0.74420 0.11500
C 	C 	0.88172 0.16330 0.69235 0.20600
C 	C 	0.86384 0.18173 0.66197 -0.06200
O 	O 	0.90839 0.17919 0.70069 -0.22700
C 	C 	0.83818 0.20646 0.66950 0.02800
C 	C 	0.87116 0.17330 0.62887 0.02600
H 	H 	0.83240 0.21150 0.69280 0.02100
C 	C 	0.82168 0.22309 0.64327 -0.12600
C 	C 	0.85412 0.18903 0.60194 -0.12000
H 	H 	0.88820 0.15630 0.62420 0.02800
H 	H 	0.80530 0.24060 0.64840 0.07900
C 	C 	0.82859 0.21474 0.60923 0.12100
H 	H 	0.85930 0.18290 0.57880 0.07500
N 	N 	0.81130 0.23510 0.57900 -0.22800
O 	O 	0.80650 0.23290 0.57600 0.02400
H 	H 	0.81890 0.25580 0.57170 0.13800
H 	H 	0.84520 0.12690 0.69830 -0.00500
O 	O 	0.37622 0.53505 0.32577 -0.40900
O 	O 	0.33452 0.53586 0.28584 -0.39900
C 	C 	0.36174 0.54605 0.29950 0.35300
C 	C 	0.38044 0.57512 0.28151 -0.02600
C 	C 	0.36594 0.59137 0.25303 -0.11100
H 	H 	0.34450 0.58350 0.24420 0.11500
C 	C 	0.38172 0.66330 0.19235 0.20600
C 	C 	0.36384 0.68173 0.16197 -0.06200
O 	O 	0.40839 0.67919 0.20069 -0.22700
C 	C 	0.33818 0.70646 0.16950 0.02700
C 	C 	0.37116 0.67330 0.12887 0.02600
H 	H 	0.33240 0.71150 0.19280 0.02100
C 	C 	0.32168 0.72309 0.14327 -0.12600
C 	C 	0.35412 0.68903 0.10194 -0.12000
H 	H 	0.38820 0.65630 0.12420 0.02700
H 	H 	0.30530 0.74060 0.14840 0.07900
C 	C 	0.32859 0.71474 0.10923 0.12100
H 	H 	0.35930 0.68290 0.07880 0.07400
N 	N 	0.31130 0.73510 0.07900 -0.22800
O 	O 	0.30650 0.73290 0.07600 0.02400
H 	H 	0.31890 0.75580 0.07170 0.13700
H 	H 	0.34520 0.62690 0.19830 -0.00500
O 	O 	0.12378 0.96495 0.82577 -0.40600
O 	O 	0.16548 0.96414 0.78584 -0.39600
C 	C 	0.13826 0.95395 0.79950 0.35300
C 	C 	0.11956 0.92488 0.78151 -0.02500
C 	C 	0.13406 0.90863 0.75303 -0.11100
H 	H 	0.15550 0.91650 0.74420 0.11500
C 	C 	0.11828 0.83670 0.69235 0.20600
C 	C 	0.13616 0.81827 0.66197 -0.06200
O 	O 	0.09161 0.82081 0.70069 -0.22800
C 	C 	0.16182 0.79354 0.66950 0.02700
C 	C 	0.12884 0.82670 0.62887 0.02600
H 	H 	0.16760 0.78850 0.69280 0.02100
C 	C 	0.17832 0.77691 0.64327 -0.12700
C 	C 	0.14588 0.81097 0.60194 -0.12100
H 	H 	0.11180 0.84370 0.62420 0.02800
H 	H 	0.19470 0.75940 0.64840 0.07900
C 	C 	0.17141 0.78526 0.60923 0.12100
H 	H 	0.14070 0.81710 0.57880 0.07400
N 	N 	0.18870 0.76490 0.57900 -0.22800
O 	O 	0.19350 0.76710 0.57600 0.02400
H 	H 	0.18110 0.74420 0.57170 0.13700
H 	H 	0.15480 0.87310 0.69830 -0.00500
O 	O 	0.62378 0.46495 0.32577 -0.40900
O 	O 	0.66548 0.46414 0.28584 -0.39900
C 	C 	0.63826 0.45395 0.29950 0.35300
C 	C 	0.61956 0.42488 0.28151 -0.02600
C 	C 	0.63406 0.40863 0.25303 -0.11100
H 	H 	0.65550 0.41650 0.24420 0.11500
C 	C 	0.61828 0.33670 0.19235 0.20600
C 	C 	0.63616 0.31827 0.16197 -0.06200
O 	O 	0.59161 0.32081 0.20069 -0.22700
C 	C 	0.66182 0.29354 0.16950 0.02700
C 	C 	0.62884 0.32670 0.12887 0.02600
H 	H 	0.66760 0.28850 0.19280 0.02100
C 	C 	0.67832 0.27691 0.14327 -0.12600
C 	C 	0.64588 0.31097 0.10194 -0.12000
H 	H 	0.61180 0.34370 0.12420 0.02700
H 	H 	0.69470 0.25940 0.14840 0.07900
C 	C 	0.67141 0.28526 0.10923 0.12000
H 	H 	0.64070 0.31710 0.07880 0.07400
N 	N 	0.68870 0.26490 0.07900 -0.22800
O 	O 	0.69350 0.26710 0.07600 0.02400
H 	H 	0.68110 0.24420 0.07170 0.13700
H 	H 	0.65480 0.37310 0.19830 -0.00500
O 	O 	0.87622 0.96495 0.17423 -0.40600
O 	O 	0.83452 0.96414 0.21416 -0.39500
C 	C 	0.86174 0.95395 0.20050 0.35300
C 	C 	0.88044 0.92488 0.21849 -0.02400
C 	C 	0.86594 0.90863 0.24697 -0.11100
H 	H 	0.84450 0.91650 0.25580 0.11500
C 	C 	0.88172 0.83670 0.30765 0.20600
C 	C 	0.86384 0.81827 0.33803 -0.06100
O 	O 	0.90839 0.82081 0.29931 -0.22600
C 	C 	0.83818 0.79354 0.33050 0.02700
C 	C 	0.87116 0.82670 0.37113 0.02600
H 	H 	0.83240 0.78850 0.30720 0.02100
C 	C 	0.82168 0.77691 0.35673 -0.12600
C 	C 	0.85412 0.81097 0.39806 -0.12000
H 	H 	0.88820 0.84370 0.37580 0.02900
H 	H 	0.80530 0.75940 0.35160 0.07900
C 	C 	0.82859 0.78526 0.39077 0.12100
H 	H 	0.85930 0.81710 0.42120 0.07500
N 	N 	0.81130 0.76490 0.42100 -0.22800
O 	O 	0.80650 0.76710 0.42400 0.02400
H 	H 	0.81890 0.74420 0.42830 0.13800
H 	H 	0.84520 0.87310 0.30170 -0.00500
O 	O 	0.37622 0.46495 0.67423 -0.40900
O 	O 	0.33452 0.46414 0.71416 -0.39900
C 	C 	0.36174 0.45395 0.70050 0.35300
C 	C 	0.38044 0.42488 0.71849 -0.02600
C 	C 	0.36594 0.40863 0.74697 -0.11100
H 	H 	0.34450 0.41650 0.75580 0.11500
C 	C 	0.38172 0.33670 0.80765 0.20600
C 	C 	0.36384 0.31827 0.83803 -0.06200
O 	O 	0.40839 0.32081 0.79931 -0.22700
C 	C 	0.33818 0.29354 0.83050 0.02800
C 	C 	0.37116 0.32670 0.87113 0.02700
H 	H 	0.33240 0.28850 0.80720 0.02100
C 	C 	0.32168 0.27691 0.85673 -0.12700
C 	C 	0.35412 0.31097 0.89806 -0.12100
H 	H 	0.38820 0.34370 0.87580 0.02800
H 	H 	0.30530 0.25940 0.85160 0.07900
C 	C 	0.32859 0.28526 0.89077 0.12100
H 	H 	0.35930 0.31710 0.92120 0.07600
N 	N 	0.31130 0.26490 0.92100 -0.22800
O 	O 	0.30650 0.26710 0.92400 0.02400
H 	H 	0.31890 0.24420 0.92830 0.13800
H 	H 	0.34520 0.37310 0.80170 -0.00500
O 	O 	0.12378 0.17423 0.96495 -0.40700
O 	O 	0.16548 0.21416 0.96414 -0.39600
C 	C 	0.13826 0.20050 0.95395 0.35300
C 	C 	0.11956 0.21849 0.92488 -0.02600
C 	C 	0.13406 0.24697 0.90863 -0.11100
H 	H 	0.15550 0.25580 0.91650 0.11500
C 	C 	0.11828 0.30765 0.83670 0.20600
C 	C 	0.13616 0.33803 0.81827 -0.06200
O 	O 	0.09161 0.29931 0.82081 -0.22800
C 	C 	0.16182 0.33050 0.79354 0.02700
C 	C 	0.12884 0.37113 0.82670 0.02600
H 	H 	0.16760 0.30720 0.78850 0.02100
C 	C 	0.17832 0.35673 0.77691 -0.12600
C 	C 	0.14588 0.39806 0.81097 -0.12000
H 	H 	0.11180 0.37580 0.84370 0.02800
H 	H 	0.19470 0.35160 0.75940 0.07900
C 	C 	0.17141 0.39077 0.78526 0.12100
H 	H 	0.14070 0.42120 0.81710 0.07400
N 	N 	0.18870 0.42100 0.76490 -0.22800
O 	O 	0.19350 0.42400 0.76710 0.02400
H 	H 	0.18110 0.42830 0.74420 0.13700
H 	H 	0.15480 0.30170 0.87310 -0.00500
O 	O 	0.62378 0.67423 0.46495 -0.40900
O 	O 	0.66548 0.71416 0.46414 -0.39900
C 	C 	0.63826 0.70050 0.45395 0.35300
C 	C 	0.61956 0.71849 0.42488 -0.02600
C 	C 	0.63406 0.74697 0.40863 -0.11100
H 	H 	0.65550 0.75580 0.41650 0.11500
C 	C 	0.61828 0.80765 0.33670 0.20600
C 	C 	0.63616 0.83803 0.31827 -0.06200
O 	O 	0.59161 0.79931 0.32081 -0.22700
C 	C 	0.66182 0.83050 0.29354 0.02800
C 	C 	0.62884 0.87113 0.32670 0.02600
H 	H 	0.66760 0.80720 0.28850 0.02100
C 	C 	0.67832 0.85673 0.27691 -0.12700
C 	C 	0.64588 0.89806 0.31097 -0.12100
H 	H 	0.61180 0.87580 0.34370 0.02800
H 	H 	0.69470 0.85160 0.25940 0.07900
C 	C 	0.67141 0.89077 0.28526 0.12100
H 	H 	0.64070 0.92120 0.31710 0.07600
N 	N 	0.68870 0.92100 0.26490 -0.22800
O 	O 	0.69350 0.92400 0.26710 0.02400
H 	H 	0.68110 0.92830 0.24420 0.13800
H 	H 	0.65480 0.80170 0.37310 -0.00500
O 	O 	0.87622 0.82577 0.96495 -0.40500
O 	O 	0.83452 0.78584 0.96414 -0.39500
C 	C 	0.86174 0.79950 0.95395 0.35200
C 	C 	0.88044 0.78151 0.92488 -0.02400
C 	C 	0.86594 0.75303 0.90863 -0.11200
H 	H 	0.84450 0.74420 0.91650 0.11500
C 	C 	0.88172 0.69235 0.83670 0.20600
C 	C 	0.86384 0.66197 0.81827 -0.06100
O 	O 	0.90839 0.70069 0.82081 -0.22600
C 	C 	0.83818 0.66950 0.79354 0.02700
C 	C 	0.87116 0.62887 0.82670 0.02600
H 	H 	0.83240 0.69280 0.78850 0.02100
C 	C 	0.82168 0.64327 0.77691 -0.12600
C 	C 	0.85412 0.60194 0.81097 -0.12000
H 	H 	0.88820 0.62420 0.84370 0.02900
H 	H 	0.80530 0.64840 0.75940 0.07900
C 	C 	0.82859 0.60923 0.78526 0.12100
H 	H 	0.85930 0.57880 0.81710 0.07500
N 	N 	0.81130 0.57900 0.76490 -0.22800
O 	O 	0.80650 0.57600 0.76710 0.02400
H 	H 	0.81890 0.57170 0.74420 0.13800
H 	H 	0.84520 0.69830 0.87310 -0.00500
O 	O 	0.37622 0.32577 0.46495 -0.40900
O 	O 	0.33452 0.28584 0.46414 -0.39900
C 	C 	0.36174 0.29950 0.45395 0.35300
C 	C 	0.38044 0.28151 0.42488 -0.02600
C 	C 	0.36594 0.25303 0.40863 -0.11100
H 	H 	0.34450 0.24420 0.41650 0.11500
C 	C 	0.38172 0.19235 0.33670 0.20600
C 	C 	0.36384 0.16197 0.31827 -0.06200
O 	O 	0.40839 0.20069 0.32081 -0.22700
C 	C 	0.33818 0.16950 0.29354 0.02700
C 	C 	0.37116 0.12887 0.32670 0.02600
H 	H 	0.33240 0.19280 0.28850 0.02100
C 	C 	0.32168 0.14327 0.27691 -0.12600
C 	C 	0.35412 0.10194 0.31097 -0.12000
H 	H 	0.38820 0.12420 0.34370 0.02700
H 	H 	0.30530 0.14840 0.25940 0.07900
C 	C 	0.32859 0.10923 0.28526 0.12100
H 	H 	0.35930 0.07880 0.31710 0.07400
N 	N 	0.31130 0.07900 0.26490 -0.22800
O 	O 	0.30650 0.07600 0.26710 0.02400
H 	H 	0.31890 0.07170 0.24420 0.13700
H 	H 	0.34520 0.19830 0.37310 -0.00500
O 	O 	0.12378 0.82577 0.03505 -0.41100
O 	O 	0.16548 0.78584 0.03586 -0.40000
C 	C 	0.13826 0.79950 0.04605 0.35400
C 	C 	0.11956 0.78151 0.07512 -0.02800
C 	C 	0.13406 0.75303 0.09137 -0.11000
H 	H 	0.15550 0.74420 0.08350 0.11400
C 	C 	0.11828 0.69235 0.16330 0.20600
C 	C 	0.13616 0.66197 0.18173 -0.06200
O 	O 	0.09161 0.70069 0.17919 -0.22800
C 	C 	0.16182 0.66950 0.20646 0.02800
C 	C 	0.12884 0.62887 0.17330 0.02600
H 	H 	0.16760 0.69280 0.21150 0.02100
C 	C 	0.17832 0.64327 0.22309 -0.12700
C 	C 	0.14588 0.60194 0.18903 -0.12100
H 	H 	0.11180 0.62420 0.15630 0.02700
H 	H 	0.19470 0.64840 0.24060 0.07900
C 	C 	0.17141 0.60923 0.21474 0.12100
H 	H 	0.14070 0.57880 0.18290 0.07400
N 	N 	0.18870 0.57900 0.23510 -0.22800
O 	O 	0.19350 0.57600 0.23290 0.02400
H 	H 	0.18110 0.57170 0.25580 0.13700
H 	H 	0.15480 0.69830 0.12690 -0.00500
O 	O 	0.62378 0.32577 0.53505 -0.41000
O 	O 	0.66548 0.28584 0.53586 -0.39900
C 	C 	0.63826 0.29950 0.54605 0.35300
C 	C 	0.61956 0.28151 0.57512 -0.02600
C 	C 	0.63406 0.25303 0.59137 -0.11100
H 	H 	0.65550 0.24420 0.58350 0.11500
C 	C 	0.61828 0.19235 0.66330 0.20600
C 	C 	0.63616 0.16197 0.68173 -0.06200
O 	O 	0.59161 0.20069 0.67919 -0.22800
C 	C 	0.66182 0.16950 0.70646 0.02700
C 	C 	0.62884 0.12887 0.67330 0.02600
H 	H 	0.66760 0.19280 0.71150 0.02100
C 	C 	0.67832 0.14327 0.72309 -0.12600
C 	C 	0.64588 0.10194 0.68903 -0.12000
H 	H 	0.61180 0.12420 0.65630 0.02700
H 	H 	0.69470 0.14840 0.74060 0.07900
C 	C 	0.67141 0.10923 0.71474 0.12100
H 	H 	0.64070 0.07880 0.68290 0.07400
N 	N 	0.68870 0.07900 0.73510 -0.22800
O 	O 	0.69350 0.07600 0.73290 0.02400
H 	H 	0.68110 0.07170 0.75580 0.13700
H 	H 	0.65480 0.19830 0.62690 -0.00500
O 	O 	0.87622 0.17423 0.03505 -0.41100
O 	O 	0.83452 0.21416 0.03586 -0.40000
C 	C 	0.86174 0.20050 0.04605 0.35300
C 	C 	0.88044 0.21849 0.07512 -0.02600
C 	C 	0.86594 0.24697 0.09137 -0.11100
H 	H 	0.84450 0.25580 0.08350 0.11500
C 	C 	0.88172 0.30765 0.16330 0.20600
C 	C 	0.86384 0.33803 0.18173 -0.06200
O 	O 	0.90839 0.29931 0.17919 -0.22700
C 	C 	0.83818 0.33050 0.20646 0.02800
C 	C 	0.87116 0.37113 0.17330 0.02600
H 	H 	0.83240 0.30720 0.21150 0.02100
C 	C 	0.82168 0.35673 0.22309 -0.12600
C 	C 	0.85412 0.39806 0.18903 -0.12000
H 	H 	0.88820 0.37580 0.15630 0.02800
H 	H 	0.80530 0.35160 0.24060 0.07900
C 	C 	0.82859 0.39077 0.21474 0.12100
H 	H 	0.85930 0.42120 0.18290 0.07500
N 	N 	0.81130 0.42100 0.23510 -0.22800
O 	O 	0.80650 0.42400 0.23290 0.02400
H 	H 	0.81890 0.42830 0.25580 0.13800
H 	H 	0.84520 0.30170 0.12690 -0.00500
O 	O 	0.37622 0.67423 0.53505 -0.40900
O 	O 	0.33452 0.71416 0.53586 -0.39900
C 	C 	0.36174 0.70050 0.54605 0.35300
C 	C 	0.38044 0.71849 0.57512 -0.02600
C 	C 	0.36594 0.74697 0.59137 -0.11100
H 	H 	0.34450 0.75580 0.58350 0.11500
C 	C 	0.38172 0.80765 0.66330 0.20600
C 	C 	0.36384 0.83803 0.68173 -0.06200
O 	O 	0.40839 0.79931 0.67919 -0.22700
C 	C 	0.33818 0.83050 0.70646 0.02800
C 	C 	0.37116 0.87113 0.67330 0.02700
H 	H 	0.33240 0.80720 0.71150 0.02100
C 	C 	0.32168 0.85673 0.72309 -0.12700
C 	C 	0.35412 0.89806 0.68903 -0.12100
H 	H 	0.38820 0.87580 0.65630 0.02800
H 	H 	0.30530 0.85160 0.74060 0.07900
C 	C 	0.32859 0.89077 0.71474 0.12100
H 	H 	0.35930 0.92120 0.68290 0.07600
N 	N 	0.31130 0.92100 0.73510 -0.22800
O 	O 	0.30650 0.92400 0.73290 0.02400
H 	H 	0.31890 0.92830 0.75580 0.13800
H 	H 	0.34520 0.80170 0.62690 -0.00500
O 	O 	0.17423 0.03505 0.87622 -0.41100
O 	O 	0.21416 0.03586 0.83452 -0.40000
C 	C 	0.20050 0.04605 0.86174 0.35300
C 	C 	0.21849 0.07512 0.88044 -0.02600
C 	C 	0.24697 0.09137 0.86594 -0.11100
H 	H 	0.25580 0.08350 0.84450 0.11500
C 	C 	0.30765 0.16330 0.88172 0.20600
C 	C 	0.33803 0.18173 0.86384 -0.06200
O 	O 	0.29931 0.17919 0.90839 -0.22700
C 	C 	0.33050 0.20646 0.83818 0.02800
C 	C 	0.37113 0.17330 0.87116 0.02600
H 	H 	0.30720 0.21150 0.83240 0.02100
C 	C 	0.35673 0.22309 0.82168 -0.12600
C 	C 	0.39806 0.18903 0.85412 -0.12000
H 	H 	0.37580 0.15630 0.88820 0.02800
H 	H 	0.35160 0.24060 0.80530 0.07900
C 	C 	0.39077 0.21474 0.82859 0.12100
H 	H 	0.42120 0.18290 0.85930 0.07500
N 	N 	0.42100 0.23510 0.81130 -0.22800
O 	O 	0.42400 0.23290 0.80650 0.02400
H 	H 	0.42830 0.25580 0.81890 0.13800
H 	H 	0.30170 0.12690 0.84520 -0.00500
O 	O 	0.67423 0.53505 0.37622 -0.40900
O 	O 	0.71416 0.53586 0.33452 -0.39900
C 	C 	0.70050 0.54605 0.36174 0.35300
C 	C 	0.71849 0.57512 0.38044 -0.02600
C 	C 	0.74697 0.59137 0.36594 -0.11100
H 	H 	0.75580 0.58350 0.34450 0.11500
C 	C 	0.80765 0.66330 0.38172 0.20600
C 	C 	0.83803 0.68173 0.36384 -0.06200
O 	O 	0.79931 0.67919 0.40839 -0.22700
C 	C 	0.83050 0.70646 0.33818 0.02800
C 	C 	0.87113 0.67330 0.37116 0.02700
H 	H 	0.80720 0.71150 0.33240 0.02100
C 	C 	0.85673 0.72309 0.32168 -0.12700
C 	C 	0.89806 0.68903 0.35412 -0.12100
H 	H 	0.87580 0.65630 0.38820 0.02800
H 	H 	0.85160 0.74060 0.30530 0.07900
C 	C 	0.89077 0.71474 0.32859 0.12100
H 	H 	0.92120 0.68290 0.35930 0.07600
N 	N 	0.92100 0.73510 0.31130 -0.22800
O 	O 	0.92400 0.73290 0.30650 0.02400
H 	H 	0.92830 0.75580 0.31890 0.13800
H 	H 	0.80170 0.62690 0.34520 -0.00500
O 	O 	0.82577 0.03505 0.12378 -0.41100
O 	O 	0.78584 0.03586 0.16548 -0.40000
C 	C 	0.79950 0.04605 0.13826 0.35400
C 	C 	0.78151 0.07512 0.11956 -0.02800
C 	C 	0.75303 0.09137 0.13406 -0.11000
H 	H 	0.74420 0.08350 0.15550 0.11400
C 	C 	0.69235 0.16330 0.11828 0.20600
C 	C 	0.66197 0.18173 0.13616 -0.06200
O 	O 	0.70069 0.17919 0.09161 -0.22800
C 	C 	0.66950 0.20646 0.16182 0.02800
C 	C 	0.62887 0.17330 0.12884 0.02600
H 	H 	0.69280 0.21150 0.16760 0.02100
C 	C 	0.64327 0.22309 0.17832 -0.12700
C 	C 	0.60194 0.18903 0.14588 -0.12100
H 	H 	0.62420 0.15630 0.11180 0.02700
H 	H 	0.64840 0.24060 0.19470 0.07900
C 	C 	0.60923 0.21474 0.17141 0.12100
H 	H 	0.57880 0.18290 0.14070 0.07400
N 	N 	0.57900 0.23510 0.18870 -0.22800
O 	O 	0.57600 0.23290 0.19350 0.02400
H 	H 	0.57170 0.25580 0.18110 0.13700
H 	H 	0.69830 0.12690 0.15480 -0.00500
O 	O 	0.32577 0.53505 0.62378 -0.41000
O 	O 	0.28584 0.53586 0.66548 -0.39900
C 	C 	0.29950 0.54605 0.63826 0.35300
C 	C 	0.28151 0.57512 0.61956 -0.02600
C 	C 	0.25303 0.59137 0.63406 -0.11100
H 	H 	0.24420 0.58350 0.65550 0.11500
C 	C 	0.19235 0.66330 0.61828 0.20600
C 	C 	0.16197 0.68173 0.63616 -0.06200
O 	O 	0.20069 0.67919 0.59161 -0.22800
C 	C 	0.16950 0.70646 0.66182 0.02700
C 	C 	0.12887 0.67330 0.62884 0.02600
H 	H 	0.19280 0.71150 0.66760 0.02100
C 	C 	0.14327 0.72309 0.67832 -0.12600
C 	C 	0.10194 0.68903 0.64588 -0.12000
H 	H 	0.12420 0.65630 0.61180 0.02700
H 	H 	0.14840 0.74060 0.69470 0.07900
C 	C 	0.10923 0.71474 0.67141 0.12100
H 	H 	0.07880 0.68290 0.64070 0.07400
N 	N 	0.07900 0.73510 0.68870 -0.22800
O 	O 	0.07600 0.73290 0.69350 0.02400
H 	H 	0.07170 0.75580 0.68110 0.13700
H 	H 	0.19830 0.62690 0.65480 -0.00500
O 	O 	0.82577 0.96495 0.87622 -0.40500
O 	O 	0.78584 0.96414 0.83452 -0.39500
C 	C 	0.79950 0.95395 0.86174 0.35200
C 	C 	0.78151 0.92488 0.88044 -0.02400
C 	C 	0.75303 0.90863 0.86594 -0.11200
H 	H 	0.74420 0.91650 0.84450 0.11500
C 	C 	0.69235 0.83670 0.88172 0.20600
C 	C 	0.66197 0.81827 0.86384 -0.06100
O 	O 	0.70069 0.82081 0.90839 -0.22600
C 	C 	0.66950 0.79354 0.83818 0.02700
C 	C 	0.62887 0.82670 0.87116 0.02600
H 	H 	0.69280 0.78850 0.83240 0.02100
C 	C 	0.64327 0.77691 0.82168 -0.12600
C 	C 	0.60194 0.81097 0.85412 -0.12000
H 	H 	0.62420 0.84370 0.88820 0.02900
H 	H 	0.64840 0.75940 0.80530 0.07900
C 	C 	0.60923 0.78526 0.82859 0.12100
H 	H 	0.57880 0.81710 0.85930 0.07500
N 	N 	0.57900 0.76490 0.81130 -0.22800
O 	O 	0.57600 0.76710 0.80650 0.02400
H 	H 	0.57170 0.74420 0.81890 0.13800
H 	H 	0.69830 0.87310 0.84520 -0.00500
O 	O 	0.32577 0.46495 0.37622 -0.40900
O 	O 	0.28584 0.46414 0.33452 -0.39900
C 	C 	0.29950 0.45395 0.36174 0.35300
C 	C 	0.28151 0.42488 0.38044 -0.02600
C 	C 	0.25303 0.40863 0.36594 -0.11100
H 	H 	0.24420 0.41650 0.34450 0.11500
C 	C 	0.19235 0.33670 0.38172 0.20600
C 	C 	0.16197 0.31827 0.36384 -0.06200
O 	O 	0.20069 0.32081 0.40839 -0.22700
C 	C 	0.16950 0.29354 0.33818 0.02700
C 	C 	0.12887 0.32670 0.37116 0.02600
H 	H 	0.19280 0.28850 0.33240 0.02100
C 	C 	0.14327 0.27691 0.32168 -0.12600
C 	C 	0.10194 0.31097 0.35412 -0.12000
H 	H 	0.12420 0.34370 0.38820 0.02700
H 	H 	0.14840 0.25940 0.30530 0.07900
C 	C 	0.10923 0.28526 0.32859 0.12100
H 	H 	0.07880 0.31710 0.35930 0.07400
N 	N 	0.07900 0.26490 0.31130 -0.22800
O 	O 	0.07600 0.26710 0.30650 0.02400
H 	H 	0.07170 0.24420 0.31890 0.13700
H 	H 	0.19830 0.37310 0.34520 -0.00500
O 	O 	0.17423 0.96495 0.12378 -0.40700
O 	O 	0.21416 0.96414 0.16548 -0.39600
C 	C 	0.20050 0.95395 0.13826 0.35300
C 	C 	0.21849 0.92488 0.11956 -0.02600
C 	C 	0.24697 0.90863 0.13406 -0.11100
H 	H 	0.25580 0.91650 0.15550 0.11500
C 	C 	0.30765 0.83670 0.11828 0.20600
C 	C 	0.33803 0.81827 0.13616 -0.06200
O 	O 	0.29931 0.82081 0.09161 -0.22800
C 	C 	0.33050 0.79354 0.16182 0.02700
C 	C 	0.37113 0.82670 0.12884 0.02600
H 	H 	0.30720 0.78850 0.16760 0.02100
C 	C 	0.35673 0.77691 0.17832 -0.12600
C 	C 	0.39806 0.81097 0.14588 -0.12000
H 	H 	0.37580 0.84370 0.11180 0.02800
H 	H 	0.35160 0.75940 0.19470 0.07900
C 	C 	0.39077 0.78526 0.17141 0.12100
H 	H 	0.42120 0.81710 0.14070 0.07400
N 	N 	0.42100 0.76490 0.18870 -0.22800
O 	O 	0.42400 0.76710 0.19350 0.02400
H 	H 	0.42830 0.74420 0.18110 0.13700
H 	H 	0.30170 0.87310 0.15480 -0.00500
O 	O 	0.67423 0.46495 0.62378 -0.40900
O 	O 	0.71416 0.46414 0.66548 -0.39900
C 	C 	0.70050 0.45395 0.63826 0.35300
C 	C 	0.71849 0.42488 0.61956 -0.02600
C 	C 	0.74697 0.40863 0.63406 -0.11100
H 	H 	0.75580 0.41650 0.65550 0.11500
C 	C 	0.80765 0.33670 0.61828 0.20600
C 	C 	0.83803 0.31827 0.63616 -0.06200
O 	O 	0.79931 0.32081 0.59161 -0.22700
C 	C 	0.83050 0.29354 0.66182 0.02800
C 	C 	0.87113 0.32670 0.62884 0.02600
H 	H 	0.80720 0.28850 0.66760 0.02100
C 	C 	0.85673 0.27691 0.67832 -0.12700
C 	C 	0.89806 0.31097 0.64588 -0.12100
H 	H 	0.87580 0.34370 0.61180 0.02800
H 	H 	0.85160 0.25940 0.69470 0.07900
C 	C 	0.89077 0.28526 0.67141 0.12100
H 	H 	0.92120 0.31710 0.64070 0.07600
N 	N 	0.92100 0.26490 0.68870 -0.22800
O 	O 	0.92400 0.26710 0.69350 0.02400
H 	H 	0.92830 0.24420 0.68110 0.13800
H 	H 	0.80170 0.37310 0.65480 -0.00500
O 	O 	0.03505 0.12378 0.82577 -0.41100
O 	O 	0.03586 0.16548 0.78584 -0.40000
C 	C 	0.04605 0.13826 0.79950 0.35400
C 	C 	0.07512 0.11956 0.78151 -0.02800
C 	C 	0.09137 0.13406 0.75303 -0.11000
H 	H 	0.08350 0.15550 0.74420 0.11400
C 	C 	0.16330 0.11828 0.69235 0.20600
C 	C 	0.18173 0.13616 0.66197 -0.06200
O 	O 	0.17919 0.09161 0.70069 -0.22800
C 	C 	0.20646 0.16182 0.66950 0.02800
C 	C 	0.17330 0.12884 0.62887 0.02600
H 	H 	0.21150 0.16760 0.69280 0.02100
C 	C 	0.22309 0.17832 0.64327 -0.12700
C 	C 	0.18903 0.14588 0.60194 -0.12100
H 	H 	0.15630 0.11180 0.62420 0.02700
H 	H 	0.24060 0.19470 0.64840 0.07900
C 	C 	0.21474 0.17141 0.60923 0.12100
H 	H 	0.18290 0.14070 0.57880 0.07400
N 	N 	0.23510 0.18870 0.57900 -0.22800
O 	O 	0.23290 0.19350 0.57600 0.02400
H 	H 	0.25580 0.18110 0.57170 0.13700
H 	H 	0.12690 0.15480 0.69830 -0.00500
O 	O 	0.53505 0.62378 0.32577 -0.41000
O 	O 	0.53586 0.66548 0.28584 -0.39900
C 	C 	0.54605 0.63826 0.29950 0.35300
C 	C 	0.57512 0.61956 0.28151 -0.02600
C 	C 	0.59137 0.63406 0.25303 -0.11100
H 	H 	0.58350 0.65550 0.24420 0.11500
C 	C 	0.66330 0.61828 0.19235 0.20600
C 	C 	0.68173 0.63616 0.16197 -0.06200
O 	O 	0.67919 0.59161 0.20069 -0.22800
C 	C 	0.70646 0.66182 0.16950 0.02700
C 	C 	0.67330 0.62884 0.12887 0.02600
H 	H 	0.71150 0.66760 0.19280 0.02100
C 	C 	0.72309 0.67832 0.14327 -0.12600
C 	C 	0.68903 0.64588 0.10194 -0.12000
H 	H 	0.65630 0.61180 0.12420 0.02700
H 	H 	0.74060 0.69470 0.14840 0.07900
C 	C 	0.71474 0.67141 0.10923 0.12100
H 	H 	0.68290 0.64070 0.07880 0.07400
N 	N 	0.73510 0.68870 0.07900 -0.22800
O 	O 	0.73290 0.69350 0.07600 0.02400
H 	H 	0.75580 0.68110 0.07170 0.13700
H 	H 	0.62690 0.65480 0.19830 -0.00500
O 	O 	0.03505 0.87622 0.17423 -0.41100
O 	O 	0.03586 0.83452 0.21416 -0.40000
C 	C 	0.04605 0.86174 0.20050 0.35300
C 	C 	0.07512 0.88044 0.21849 -0.02600
C 	C 	0.09137 0.86594 0.24697 -0.11100
H 	H 	0.08350 0.84450 0.25580 0.11500
C 	C 	0.16330 0.88172 0.30765 0.20600
C 	C 	0.18173 0.86384 0.33803 -0.06200
O 	O 	0.17919 0.90839 0.29931 -0.22700
C 	C 	0.20646 0.83818 0.33050 0.02800
C 	C 	0.17330 0.87116 0.37113 0.02600
H 	H 	0.21150 0.83240 0.30720 0.02100
C 	C 	0.22309 0.82168 0.35673 -0.12600
C 	C 	0.18903 0.85412 0.39806 -0.12000
H 	H 	0.15630 0.88820 0.37580 0.02800
H 	H 	0.24060 0.80530 0.35160 0.07900
C 	C 	0.21474 0.82859 0.39077 0.12100
H 	H 	0.18290 0.85930 0.42120 0.07500
N 	N 	0.23510 0.81130 0.42100 -0.22800
O 	O 	0.23290 0.80650 0.42400 0.02400
H 	H 	0.25580 0.81890 0.42830 0.13800
H 	H 	0.12690 0.84520 0.30170 -0.00500
O 	O 	0.53505 0.37622 0.67423 -0.40900
O 	O 	0.53586 0.33452 0.71416 -0.39900
C 	C 	0.54605 0.36174 0.70050 0.35300
C 	C 	0.57512 0.38044 0.71849 -0.02600
C 	C 	0.59137 0.36594 0.74697 -0.11100
H 	H 	0.58350 0.34450 0.75580 0.11500
C 	C 	0.66330 0.38172 0.80765 0.20600
C 	C 	0.68173 0.36384 0.83803 -0.06200
O 	O 	0.67919 0.40839 0.79931 -0.22700
C 	C 	0.70646 0.33818 0.83050 0.02800
C 	C 	0.67330 0.37116 0.87113 0.02700
H 	H 	0.71150 0.33240 0.80720 0.02100
C 	C 	0.72309 0.32168 0.85673 -0.12700
C 	C 	0.68903 0.35412 0.89806 -0.12100
H 	H 	0.65630 0.38820 0.87580 0.02800
H 	H 	0.74060 0.30530 0.85160 0.07900
C 	C 	0.71474 0.32859 0.89077 0.12100
H 	H 	0.68290 0.35930 0.92120 0.07600
N 	N 	0.73510 0.31130 0.92100 -0.22800
O 	O 	0.73290 0.30650 0.92400 0.02400
H 	H 	0.75580 0.31890 0.92830 0.13800
H 	H 	0.62690 0.34520 0.80170 -0.00500
O 	O 	0.96495 0.12378 0.17423 -0.40700
O 	O 	0.96414 0.16548 0.21416 -0.39600
C 	C 	0.95395 0.13826 0.20050 0.35300
C 	C 	0.92488 0.11956 0.21849 -0.02600
C 	C 	0.90863 0.13406 0.24697 -0.11100
H 	H 	0.91650 0.15550 0.25580 0.11500
C 	C 	0.83670 0.11828 0.30765 0.20600
C 	C 	0.81827 0.13616 0.33803 -0.06200
O 	O 	0.82081 0.09161 0.29931 -0.22800
C 	C 	0.79354 0.16182 0.33050 0.02700
C 	C 	0.82670 0.12884 0.37113 0.02600
H 	H 	0.78850 0.16760 0.30720 0.02100
C 	C 	0.77691 0.17832 0.35673 -0.12600
C 	C 	0.81097 0.14588 0.39806 -0.12000
H 	H 	0.84370 0.11180 0.37580 0.02800
H 	H 	0.75940 0.19470 0.35160 0.07900
C 	C 	0.78526 0.17141 0.39077 0.12100
H 	H 	0.81710 0.14070 0.42120 0.07400
N 	N 	0.76490 0.18870 0.42100 -0.22800
O 	O 	0.76710 0.19350 0.42400 0.02400
H 	H 	0.74420 0.18110 0.42830 0.13700
H 	H 	0.87310 0.15480 0.30170 -0.00500
O 	O 	0.46495 0.62378 0.67423 -0.40900
O 	O 	0.46414 0.66548 0.71416 -0.39900
C 	C 	0.45395 0.63826 0.70050 0.35300
C 	C 	0.42488 0.61956 0.71849 -0.02600
C 	C 	0.40863 0.63406 0.74697 -0.11100
H 	H 	0.41650 0.65550 0.75580 0.11500
C 	C 	0.33670 0.61828 0.80765 0.20600
C 	C 	0.31827 0.63616 0.83803 -0.06200
O 	O 	0.32081 0.59161 0.79931 -0.22700
C 	C 	0.29354 0.66182 0.83050 0.02800
C 	C 	0.32670 0.62884 0.87113 0.02600
H 	H 	0.28850 0.66760 0.80720 0.02100
C 	C 	0.27691 0.67832 0.85673 -0.12700
C 	C 	0.31097 0.64588 0.89806 -0.12100
H 	H 	0.34370 0.61180 0.87580 0.02800
H 	H 	0.25940 0.69470 0.85160 0.07900
C 	C 	0.28526 0.67141 0.89077 0.12100
H 	H 	0.31710 0.64070 0.92120 0.07600
N 	N 	0.26490 0.68870 0.92100 -0.22800
O 	O 	0.26710 0.69350 0.92400 0.02400
H 	H 	0.24420 0.68110 0.92830 0.13800
H 	H 	0.37310 0.65480 0.80170 -0.00500
O 	O 	0.96495 0.87622 0.82577 -0.40500
O 	O 	0.96414 0.83452 0.78584 -0.39500
C 	C 	0.95395 0.86174 0.79950 0.35200
C 	C 	0.92488 0.88044 0.78151 -0.02400
C 	C 	0.90863 0.86594 0.75303 -0.11200
H 	H 	0.91650 0.84450 0.74420 0.11500
C 	C 	0.83670 0.88172 0.69235 0.20600
C 	C 	0.81827 0.86384 0.66197 -0.06100
O 	O 	0.82081 0.90839 0.70069 -0.22600
C 	C 	0.79354 0.83818 0.66950 0.02700
C 	C 	0.82670 0.87116 0.62887 0.02600
H 	H 	0.78850 0.83240 0.69280 0.02100
C 	C 	0.77691 0.82168 0.64327 -0.12600
C 	C 	0.81097 0.85412 0.60194 -0.12000
H 	H 	0.84370 0.88820 0.62420 0.02900
H 	H 	0.75940 0.80530 0.64840 0.07900
C 	C 	0.78526 0.82859 0.60923 0.12100
H 	H 	0.81710 0.85930 0.57880 0.07500
N 	N 	0.76490 0.81130 0.57900 -0.22800
O 	O 	0.76710 0.80650 0.57600 0.02400
H 	H 	0.74420 0.81890 0.57170 0.13800
H 	H 	0.87310 0.84520 0.69830 -0.00500
O 	O 	0.46495 0.37622 0.32577 -0.40900
O 	O 	0.46414 0.33452 0.28584 -0.39900
C 	C 	0.45395 0.36174 0.29950 0.35300
C 	C 	0.42488 0.38044 0.28151 -0.02600
C 	C 	0.40863 0.36594 0.25303 -0.11100
H 	H 	0.41650 0.34450 0.24420 0.11500
C 	C 	0.33670 0.38172 0.19235 0.20600
C 	C 	0.31827 0.36384 0.16197 -0.06200
O 	O 	0.32081 0.40839 0.20069 -0.22700
C 	C 	0.29354 0.33818 0.16950 0.02700
C 	C 	0.32670 0.37116 0.12887 0.02600
H 	H 	0.28850 0.33240 0.19280 0.02100
C 	C 	0.27691 0.32168 0.14327 -0.12600
C 	C 	0.31097 0.35412 0.10194 -0.12000
H 	H 	0.34370 0.38820 0.12420 0.02700
H 	H 	0.25940 0.30530 0.14840 0.07900
C 	C 	0.28526 0.32859 0.10923 0.12100
H 	H 	0.31710 0.35930 0.07880 0.07400
N 	N 	0.26490 0.31130 0.07900 -0.22800
O 	O 	0.26710 0.30650 0.07600 0.02400
H 	H 	0.24420 0.31890 0.07170 0.13700
H 	H 	0.37310 0.34520 0.19830 -0.00500
Cu	Cu	0.85478 0.85478 -0.00000 0.90500
Cu	Cu	0.80660 0.80660 -0.00000 0.92400
Cu	Cu	0.35478 0.35478 0.50000 0.90800
Cu	Cu	0.30660 0.30660 0.50000 0.92600
Cu	Cu	0.14522 0.14522 -0.00000 0.90400
Cu	Cu	0.19340 0.19340 -0.00000 0.92400
Cu	Cu	0.64522 0.64522 0.50000 0.90800
Cu	Cu	0.69340 0.69340 0.50000 0.92600
Cu	Cu	0.14522 0.85478 -0.00000 0.90500
Cu	Cu	0.19340 0.80660 -0.00000 0.92400
Cu	Cu	0.64522 0.35478 0.50000 0.90800
Cu	Cu	0.69340 0.30660 0.50000 0.92600
Cu	Cu	0.85478 0.14522 -0.00000 0.90500
Cu	Cu	0.80660 0.19340 -0.00000 0.92400
Cu	Cu	0.35478 0.64522 0.50000 0.90800
Cu	Cu	0.30660 0.69340 0.50000 0.92600
Cu	Cu	0.00000 0.85478 0.85478 0.90500
Cu	Cu	-0.00000 0.80660 0.80660 0.92400
Cu	Cu	0.50000 0.35478 0.35478 0.90800
Cu	Cu	0.50000 0.30660 0.30660 0.92600
Cu	Cu	0.00000 0.14522 0.14522 0.90400
Cu	Cu	0.00000 0.19340 0.19340 0.92400
Cu	Cu	0.50000 0.64522 0.64522 0.90800
Cu	Cu	0.50000 0.69340 0.69340 0.92600
Cu	Cu	-0.00000 0.14522 0.85478 0.90500
Cu	Cu	0.00000 0.19340 0.80660 0.92400
Cu	Cu	0.50000 0.64522 0.35478 0.90800
Cu	Cu	0.50000 0.69340 0.30660 0.92600
Cu	Cu	0.00000 0.85478 0.14522 0.90500
Cu	Cu	0.00000 0.80660 0.19340 0.92400
Cu	Cu	0.50000 0.35478 0.64522 0.90800
Cu	Cu	0.50000 0.30660 0.69340 0.92600
Cu	Cu	0.85478 0.00000 0.85478 0.90500
Cu	Cu	0.80660 0.00000 0.80660 0.92400
Cu	Cu	0.35478 0.50000 0.35478 0.90800
Cu	Cu	0.30660 0.50000 0.30660 0.92600
Cu	Cu	0.14522 0.00000 0.14522 0.90400
Cu	Cu	0.19340 0.00000 0.19340 0.92400
Cu	Cu	0.64522 0.50000 0.64522 0.90800
Cu	Cu	0.69340 0.50000 0.69340 0.92600
Cu	Cu	0.85478 0.00000 0.14522 0.90500
Cu	Cu	0.80660 0.00000 0.19340 0.92400
Cu	Cu	0.35478 0.50000 0.64522 0.90800
Cu	Cu	0.30660 0.50000 0.69340 0.92600
Cu	Cu	0.14522 0.00000 0.85478 0.90500
Cu	Cu	0.19340 0.00000 0.80660 0.92400
Cu	Cu	0.64522 0.50000 0.35478 0.90800
Cu	Cu	0.69340 0.50000 0.30660 0.92600
N 	N 	0.50000 0.73204 0.73204 -0.17300
C 	C 	0.50000 0.78250 0.78250 -0.02500
H 	H 	0.50000 0.79980 0.79980 0.04300
N 	N 	-0.00000 0.23204 0.23204 -0.17700
C 	C 	0.00000 0.28250 0.28250 -0.03700
H 	H 	0.00000 0.29980 0.29980 0.04400
N 	N 	0.50000 0.26796 0.73204 -0.17300
C 	C 	0.50000 0.21750 0.78250 -0.02500
H 	H 	0.50000 0.20020 0.79980 0.04200
N 	N 	-0.00000 0.76796 0.23204 -0.17700
C 	C 	-0.00000 0.71750 0.28250 -0.03700
H 	H 	-0.00000 0.70020 0.29980 0.04400
N 	N 	0.50000 0.73204 0.26796 -0.17300
C 	C 	0.50000 0.78250 0.21750 -0.02500
H 	H 	0.50000 0.79980 0.20020 0.04200
N 	N 	-0.00000 0.23204 0.76796 -0.17700
C 	C 	-0.00000 0.28250 0.71750 -0.03700
H 	H 	-0.00000 0.29980 0.70020 0.04400
N 	N 	0.50000 0.26796 0.26796 -0.17300
C 	C 	0.50000 0.21750 0.21750 -0.02500
H 	H 	0.50000 0.20020 0.20020 0.04200
N 	N 	0.00000 0.76796 0.76796 -0.17700
C 	C 	0.00000 0.71750 0.71750 -0.03700
H 	H 	0.00000 0.70020 0.70020 0.04400
N 	N 	0.73204 0.50000 0.73204 -0.17300
C 	C 	0.78250 0.50000 0.78250 -0.02500
H 	H 	0.79980 0.50000 0.79980 0.04300
N 	N 	0.23204 -0.00000 0.23204 -0.17700
C 	C 	0.28250 0.00000 0.28250 -0.03700
H 	H 	0.29980 0.00000 0.29980 0.04400
N 	N 	0.73204 0.50000 0.26796 -0.17300
C 	C 	0.78250 0.50000 0.21750 -0.02500
H 	H 	0.79980 0.50000 0.20020 0.04200
N 	N 	0.23204 0.00000 0.76796 -0.17700
C 	C 	0.28250 0.00000 0.71750 -0.03700
H 	H 	0.29980 0.00000 0.70020 0.04400
N 	N 	0.26796 0.50000 0.73204 -0.17300
C 	C 	0.21750 0.50000 0.78250 -0.02500
H 	H 	0.20020 0.50000 0.79980 0.04200
N 	N 	0.76796 -0.00000 0.23204 -0.17700
C 	C 	0.71750 0.00000 0.28250 -0.03700
H 	H 	0.70020 0.00000 0.29980 0.04400
N 	N 	0.26796 0.50000 0.26796 -0.17300
C 	C 	0.21750 0.50000 0.21750 -0.02500
H 	H 	0.20020 0.50000 0.20020 0.04200
N 	N 	0.76796 0.00000 0.76796 -0.17700
C 	C 	0.71750 0.00000 0.71750 -0.03700
H 	H 	0.70020 0.00000 0.70020 0.04400
N 	N 	0.73204 0.73204 0.50000 -0.17300
C 	C 	0.78250 0.78250 0.50000 -0.02500
H 	H 	0.79980 0.79980 0.50000 0.04300
N 	N 	0.23204 0.23204 -0.00000 -0.17700
C 	C 	0.28250 0.28250 -0.00000 -0.03700
H 	H 	0.29980 0.29980 -0.00000 0.04400
N 	N 	0.26796 0.73204 0.50000 -0.17300
C 	C 	0.21750 0.78250 0.50000 -0.02500
H 	H 	0.20020 0.79980 0.50000 0.04200
N 	N 	0.76796 0.23204 -0.00000 -0.17700
C 	C 	0.71750 0.28250 -0.00000 -0.03700
H 	H 	0.70020 0.29980 -0.00000 0.04400
N 	N 	0.73204 0.26796 0.50000 -0.17300
C 	C 	0.78250 0.21750 0.50000 -0.02500
H 	H 	0.79980 0.20020 0.50000 0.04200
N 	N 	0.23204 0.76796 -0.00000 -0.17700
C 	C 	0.28250 0.71750 -0.00000 -0.03700
H 	H 	0.29980 0.70020 -0.00000 0.04400
N 	N 	0.26796 0.26796 0.50000 -0.17300
C 	C 	0.21750 0.21750 0.50000 -0.02500
H 	H 	0.20020 0.20020 0.50000 0.04200
N 	N 	0.76796 0.76796 -0.00000 -0.17700
C 	C 	0.71750 0.71750 -0.00000 -0.03700
H 	H 	0.70020 0.70020 -0.00000 0.04400
C 	C 	0.79426 0.91261 0.91261 -0.01900
H 	H 	0.81070 0.92550 0.92550 0.07100
C 	C 	0.73796 0.88196 0.88196 0.14000
N 	N 	0.70696 0.86518 0.86518 -0.18000
C 	C 	0.56453 0.78245 0.78245 0.11000
C 	C 	0.53007 0.76918 0.76918 -0.03300
C 	C 	0.52968 0.74411 0.74411 0.04100
H 	H 	0.55080 0.73530 0.73530 0.03800
C 	C 	0.29426 0.41261 0.41261 -0.01800
H 	H 	0.31070 0.42550 0.42550 0.06900
C 	C 	0.23796 0.38196 0.38196 0.13800
N 	N 	0.20696 0.36518 0.36518 -0.18000
C 	C 	0.06453 0.28245 0.28245 0.10900
C 	C 	0.03007 0.26918 0.26918 -0.03000
C 	C 	0.02968 0.24411 0.24411 0.03800
H 	H 	0.05080 0.23530 0.23530 0.03900
C 	C 	0.20574 0.08739 0.91261 -0.01800
H 	H 	0.18930 0.07450 0.92550 0.06900
C 	C 	0.26204 0.11804 0.88196 0.13800
N 	N 	0.29304 0.13482 0.86518 -0.18000
C 	C 	0.43547 0.21755 0.78245 0.11000
C 	C 	0.46993 0.23082 0.76918 -0.03300
C 	C 	0.47032 0.25589 0.74411 0.04100
H 	H 	0.44920 0.26470 0.73530 0.03800
C 	C 	0.70574 0.58739 0.41261 -0.01800
H 	H 	0.68930 0.57450 0.42550 0.06900
C 	C 	0.76204 0.61804 0.38196 0.13800
N 	N 	0.79304 0.63482 0.36518 -0.18000
C 	C 	0.93547 0.71755 0.28245 0.11000
C 	C 	0.96993 0.73082 0.26918 -0.02500
C 	C 	0.97032 0.75589 0.24411 0.04500
H 	H 	0.94920 0.76470 0.23530 0.03700
C 	C 	0.20574 0.91261 0.08739 -0.01800
H 	H 	0.18930 0.92550 0.07450 0.06900
C 	C 	0.26204 0.88196 0.11804 0.13800
N 	N 	0.29304 0.86518 0.13482 -0.18000
C 	C 	0.43547 0.78245 0.21755 0.11000
C 	C 	0.46993 0.76918 0.23082 -0.03300
C 	C 	0.47032 0.74411 0.25589 0.04100
H 	H 	0.44920 0.73530 0.26470 0.03800
C 	C 	0.70574 0.41261 0.58739 -0.01800
H 	H 	0.68930 0.42550 0.57450 0.06900
C 	C 	0.76204 0.38196 0.61804 0.13800
N 	N 	0.79304 0.36518 0.63482 -0.18000
C 	C 	0.93547 0.28245 0.71755 0.11000
C 	C 	0.96993 0.26918 0.73082 -0.02500
C 	C 	0.97032 0.24411 0.75589 0.04500
H 	H 	0.94920 0.23530 0.76470 0.03700
C 	C 	0.79426 0.08739 0.08739 -0.01800
H 	H 	0.81070 0.07450 0.07450 0.06700
C 	C 	0.73796 0.11804 0.11804 0.13700
N 	N 	0.70696 0.13482 0.13482 -0.18000
C 	C 	0.56453 0.21755 0.21755 0.11000
C 	C 	0.53007 0.23082 0.23082 -0.03300
C 	C 	0.52968 0.25589 0.25589 0.04100
H 	H 	0.55080 0.26470 0.26470 0.03800
C 	C 	0.29426 0.58739 0.58739 -0.01800
H 	H 	0.31070 0.57450 0.57450 0.06900
C 	C 	0.23796 0.61804 0.61804 0.13800
N 	N 	0.20696 0.63482 0.63482 -0.18000
C 	C 	0.06453 0.71755 0.71755 0.10900
C 	C 	0.03007 0.73082 0.73082 -0.03000
C 	C 	0.02968 0.75589 0.75589 0.03800
H 	H 	0.05080 0.76470 0.76470 0.03900
C 	C 	0.91261 0.79426 0.91261 -0.01900
H 	H 	0.92550 0.81070 0.92550 0.07100
C 	C 	0.88196 0.73796 0.88196 0.14000
N 	N 	0.86518 0.70696 0.86518 -0.18000
C 	C 	0.78245 0.56453 0.78245 0.11000
C 	C 	0.76918 0.53007 0.76918 -0.03300
C 	C 	0.74411 0.52968 0.74411 0.04100
H 	H 	0.73530 0.55080 0.73530 0.03800
C 	C 	0.41261 0.29426 0.41261 -0.01800
H 	H 	0.42550 0.31070 0.42550 0.06900
C 	C 	0.38196 0.23796 0.38196 0.13800
N 	N 	0.36518 0.20696 0.36518 -0.18000
C 	C 	0.28245 0.06453 0.28245 0.10900
C 	C 	0.26918 0.03007 0.26918 -0.03000
C 	C 	0.24411 0.02968 0.24411 0.03800
H 	H 	0.23530 0.05080 0.23530 0.03900
C 	C 	0.91261 0.20574 0.08739 -0.01800
H 	H 	0.92550 0.18930 0.07450 0.06900
C 	C 	0.88196 0.26204 0.11804 0.13800
N 	N 	0.86518 0.29304 0.13482 -0.18000
C 	C 	0.78245 0.43547 0.21755 0.11000
C 	C 	0.76918 0.46993 0.23082 -0.03300
C 	C 	0.74411 0.47032 0.25589 0.04100
H 	H 	0.73530 0.44920 0.26470 0.03800
C 	C 	0.41261 0.70574 0.58739 -0.01800
H 	H 	0.42550 0.68930 0.57450 0.06900
C 	C 	0.38196 0.76204 0.61804 0.13800
N 	N 	0.36518 0.79304 0.63482 -0.18000
C 	C 	0.28245 0.93547 0.71755 0.11000
C 	C 	0.26918 0.96993 0.73082 -0.02500
C 	C 	0.24411 0.97032 0.75589 0.04500
H 	H 	0.23530 0.94920 0.76470 0.03700
C 	C 	0.08739 0.20574 0.91261 -0.01800
H 	H 	0.07450 0.18930 0.92550 0.06900
C 	C 	0.11804 0.26204 0.88196 0.13800
N 	N 	0.13482 0.29304 0.86518 -0.18000
C 	C 	0.21755 0.43547 0.78245 0.11000
C 	C 	0.23082 0.46993 0.76918 -0.03300
C 	C 	0.25589 0.47032 0.74411 0.04100
H 	H 	0.26470 0.44920 0.73530 0.03800
C 	C 	0.58739 0.70574 0.41261 -0.01800
H 	H 	0.57450 0.68930 0.42550 0.06900
C 	C 	0.61804 0.76204 0.38196 0.13800
N 	N 	0.63482 0.79304 0.36518 -0.18000
C 	C 	0.71755 0.93547 0.28245 0.11000
C 	C 	0.73082 0.96993 0.26918 -0.02500
C 	C 	0.75589 0.97032 0.24411 0.04500
H 	H 	0.76470 0.94920 0.23530 0.03700
C 	C 	0.08739 0.79426 0.08739 -0.01800
H 	H 	0.07450 0.81070 0.07450 0.06700
C 	C 	0.11804 0.73796 0.11804 0.13700
N 	N 	0.13482 0.70696 0.13482 -0.18000
C 	C 	0.21755 0.56453 0.21755 0.11000
C 	C 	0.23082 0.53007 0.23082 -0.03300
C 	C 	0.25589 0.52968 0.25589 0.04100
H 	H 	0.26470 0.55080 0.26470 0.03800
C 	C 	0.58739 0.29426 0.58739 -0.01800
H 	H 	0.57450 0.31070 0.57450 0.06900
C 	C 	0.61804 0.23796 0.61804 0.13800
N 	N 	0.63482 0.20696 0.63482 -0.18000
C 	C 	0.71755 0.06453 0.71755 0.10900
C 	C 	0.73082 0.03007 0.73082 -0.03000
C 	C 	0.75589 0.02968 0.75589 0.03800
H 	H 	0.76470 0.05080 0.76470 0.03900
C 	C 	0.91261 0.91261 0.79426 -0.01900
H 	H 	0.92550 0.92550 0.81070 0.07100
C 	C 	0.88196 0.88196 0.73796 0.14000
N 	N 	0.86518 0.86518 0.70696 -0.18000
C 	C 	0.78245 0.78245 0.56453 0.11000
C 	C 	0.76918 0.76918 0.53007 -0.03300
C 	C 	0.74411 0.74411 0.52968 0.04100
H 	H 	0.73530 0.73530 0.55080 0.03800
C 	C 	0.41261 0.41261 0.29426 -0.01800
H 	H 	0.42550 0.42550 0.31070 0.06900
C 	C 	0.38196 0.38196 0.23796 0.13800
N 	N 	0.36518 0.36518 0.20696 -0.18000
C 	C 	0.28245 0.28245 0.06453 0.10900
C 	C 	0.26918 0.26918 0.03007 -0.03000
C 	C 	0.24411 0.24411 0.02968 0.03800
H 	H 	0.23530 0.23530 0.05080 0.03900
C 	C 	0.08739 0.91261 0.20574 -0.01800
H 	H 	0.07450 0.92550 0.18930 0.06900
C 	C 	0.11804 0.88196 0.26204 0.13800
N 	N 	0.13482 0.86518 0.29304 -0.18000
C 	C 	0.21755 0.78245 0.43547 0.11000
C 	C 	0.23082 0.76918 0.46993 -0.03300
C 	C 	0.25589 0.74411 0.47032 0.04100
H 	H 	0.26470 0.73530 0.44920 0.03800
C 	C 	0.58739 0.41261 0.70574 -0.01800
H 	H 	0.57450 0.42550 0.68930 0.06900
C 	C 	0.61804 0.38196 0.76204 0.13800
N 	N 	0.63482 0.36518 0.79304 -0.18000
C 	C 	0.71755 0.28245 0.93547 0.11000
C 	C 	0.73082 0.26918 0.96993 -0.02500
C 	C 	0.75589 0.24411 0.97032 0.04500
H 	H 	0.76470 0.23530 0.94920 0.03700
C 	C 	0.91261 0.08739 0.20574 -0.01800
H 	H 	0.92550 0.07450 0.18930 0.06900
C 	C 	0.88196 0.11804 0.26204 0.13800
N 	N 	0.86518 0.13482 0.29304 -0.18000
C 	C 	0.78245 0.21755 0.43547 0.11000
C 	C 	0.76918 0.23082 0.46993 -0.03300
C 	C 	0.74411 0.25589 0.47032 0.04100
H 	H 	0.73530 0.26470 0.44920 0.03800
C 	C 	0.41261 0.58739 0.70574 -0.01800
H 	H 	0.42550 0.57450 0.68930 0.06900
C 	C 	0.38196 0.61804 0.76204 0.13800
N 	N 	0.36518 0.63482 0.79304 -0.18000
C 	C 	0.28245 0.71755 0.93547 0.11000
C 	C 	0.26918 0.73082 0.96993 -0.02500
C 	C 	0.24411 0.75589 0.97032 0.04500
H 	H 	0.23530 0.76470 0.94920 0.03700
C 	C 	0.08739 0.08739 0.79426 -0.01800
H 	H 	0.07450 0.07450 0.81070 0.06700
C 	C 	0.11804 0.11804 0.73796 0.13700
N 	N 	0.13482 0.13482 0.70696 -0.18000
C 	C 	0.21755 0.21755 0.56453 0.11000
C 	C 	0.23082 0.23082 0.53007 -0.03300
C 	C 	0.25589 0.25589 0.52968 0.04100
H 	H 	0.26470 0.26470 0.55080 0.03800
C 	C 	0.58739 0.58739 0.29426 -0.01800
H 	H 	0.57450 0.57450 0.31070 0.06900
C 	C 	0.61804 0.61804 0.23796 0.13800
N 	N 	0.63482 0.63482 0.20696 -0.18000
C 	C 	0.71755 0.71755 0.06453 0.10900
C 	C 	0.73082 0.73082 0.03007 -0.03000
C 	C 	0.75589 0.75589 0.02968 0.03800
H 	H 	0.76470 0.76470 0.05080 0.03900
C 	C 	0.91261 0.79426 0.08739 -0.01900
H 	H 	0.92550 0.81070 0.07450 0.06900
C 	C 	0.88196 0.73796 0.11804 0.13800
N 	N 	0.86518 0.70696 0.13482 -0.18000
C 	C 	0.78245 0.56453 0.21755 0.11000
C 	C 	0.76918 0.53007 0.23082 -0.03300
C 	C 	0.74411 0.52968 0.25589 0.04100
H 	H 	0.73530 0.55080 0.26470 0.03800
C 	C 	0.41261 0.29426 0.58739 -0.01800
H 	H 	0.42550 0.31070 0.57450 0.06900
C 	C 	0.38196 0.23796 0.61804 0.13800
N 	N 	0.36518 0.20696 0.63482 -0.18000
C 	C 	0.28245 0.06453 0.71755 0.10900
C 	C 	0.26918 0.03007 0.73082 -0.03000
C 	C 	0.24411 0.02968 0.75589 0.03800
H 	H 	0.23530 0.05080 0.76470 0.03900
C 	C 	0.08739 0.20574 0.08739 -0.01800
H 	H 	0.07450 0.18930 0.07450 0.06700
C 	C 	0.11804 0.26204 0.11804 0.13700
N 	N 	0.13482 0.29304 0.13482 -0.18000
C 	C 	0.21755 0.43547 0.21755 0.11000
C 	C 	0.23082 0.46993 0.23082 -0.03300
C 	C 	0.25589 0.47032 0.25589 0.04100
H 	H 	0.26470 0.44920 0.26470 0.03800
C 	C 	0.58739 0.70574 0.58739 -0.01800
H 	H 	0.57450 0.68930 0.57450 0.06900
C 	C 	0.61804 0.76204 0.61804 0.13800
N 	N 	0.63482 0.79304 0.63482 -0.18000
C 	C 	0.71755 0.93547 0.71755 0.11000
C 	C 	0.73082 0.96993 0.73082 -0.02500
C 	C 	0.75589 0.97032 0.75589 0.04500
H 	H 	0.76470 0.94920 0.76470 0.03700
C 	C 	0.91261 0.20574 0.91261 -0.01900
H 	H 	0.92550 0.18930 0.92550 0.07000
C 	C 	0.88196 0.26204 0.88196 0.13900
N 	N 	0.86518 0.29304 0.86518 -0.18000
C 	C 	0.78245 0.43547 0.78245 0.11000
C 	C 	0.76918 0.46993 0.76918 -0.03300
C 	C 	0.74411 0.47032 0.74411 0.04100
H 	H 	0.73530 0.44920 0.73530 0.03800
C 	C 	0.41261 0.70574 0.41261 -0.01800
H 	H 	0.42550 0.68930 0.42550 0.06900
C 	C 	0.38196 0.76204 0.38196 0.13800
N 	N 	0.36518 0.79304 0.36518 -0.18000
C 	C 	0.28245 0.93547 0.28245 0.11000
C 	C 	0.26918 0.96993 0.26918 -0.02500
C 	C 	0.24411 0.97032 0.24411 0.04500
H 	H 	0.23530 0.94920 0.23530 0.03700
C 	C 	0.08739 0.79426 0.91261 -0.01900
H 	H 	0.07450 0.81070 0.92550 0.06900
C 	C 	0.11804 0.73796 0.88196 0.13800
N 	N 	0.13482 0.70696 0.86518 -0.18000
C 	C 	0.21755 0.56453 0.78245 0.11000
C 	C 	0.23082 0.53007 0.76918 -0.03300
C 	C 	0.25589 0.52968 0.74411 0.04100
H 	H 	0.26470 0.55080 0.73530 0.03800
C 	C 	0.58739 0.29426 0.41261 -0.01800
H 	H 	0.57450 0.31070 0.42550 0.06900
C 	C 	0.61804 0.23796 0.38196 0.13800
N 	N 	0.63482 0.20696 0.36518 -0.18000
C 	C 	0.71755 0.06453 0.28245 0.10900
C 	C 	0.73082 0.03007 0.26918 -0.03000
C 	C 	0.75589 0.02968 0.24411 0.03800
H 	H 	0.76470 0.05080 0.23530 0.03900
C 	C 	0.79426 0.91261 0.08739 -0.01900
H 	H 	0.81070 0.92550 0.07450 0.06900
C 	C 	0.73796 0.88196 0.11804 0.13800
N 	N 	0.70696 0.86518 0.13482 -0.18000
C 	C 	0.56453 0.78245 0.21755 0.11000
C 	C 	0.53007 0.76918 0.23082 -0.03300
C 	C 	0.52968 0.74411 0.25589 0.04100
H 	H 	0.55080 0.73530 0.26470 0.03800
C 	C 	0.29426 0.41261 0.58739 -0.01800
H 	H 	0.31070 0.42550 0.57450 0.06900
C 	C 	0.23796 0.38196 0.61804 0.13800
N 	N 	0.20696 0.36518 0.63482 -0.18000
C 	C 	0.06453 0.28245 0.71755 0.10900
C 	C 	0.03007 0.26918 0.73082 -0.03000
C 	C 	0.02968 0.24411 0.75589 0.03800
H 	H 	0.05080 0.23530 0.76470 0.03900
C 	C 	0.20574 0.91261 0.91261 -0.01900
H 	H 	0.18930 0.92550 0.92550 0.07000
C 	C 	0.26204 0.88196 0.88196 0.13900
N 	N 	0.29304 0.86518 0.86518 -0.18000
C 	C 	0.43547 0.78245 0.78245 0.11000
C 	C 	0.46993 0.76918 0.76918 -0.03300
C 	C 	0.47032 0.74411 0.74411 0.04100
H 	H 	0.44920 0.73530 0.73530 0.03800
C 	C 	0.70574 0.41261 0.41261 -0.01800
H 	H 	0.68930 0.42550 0.42550 0.06900
C 	C 	0.76204 0.38196 0.38196 0.13800
N 	N 	0.79304 0.36518 0.36518 -0.18000
C 	C 	0.93547 0.28245 0.28245 0.11000
C 	C 	0.96993 0.26918 0.26918 -0.02500
C 	C 	0.97032 0.24411 0.24411 0.04500
H 	H 	0.94920 0.23530 0.23530 0.03700
C 	C 	0.20574 0.08739 0.08739 -0.01800
H 	H 	0.18930 0.07450 0.07450 0.06700
C 	C 	0.26204 0.11804 0.11804 0.13700
N 	N 	0.29304 0.13482 0.13482 -0.18000
C 	C 	0.43547 0.21755 0.21755 0.11000
C 	C 	0.46993 0.23082 0.23082 -0.03300
C 	C 	0.47032 0.25589 0.25589 0.04100
H 	H 	0.44920 0.26470 0.26470 0.03800
C 	C 	0.70574 0.58739 0.58739 -0.01800
H 	H 	0.68930 0.57450 0.57450 0.06900
C 	C 	0.76204 0.61804 0.61804 0.13800
N 	N 	0.79304 0.63482 0.63482 -0.18000
C 	C 	0.93547 0.71755 0.71755 0.11000
C 	C 	0.96993 0.73082 0.73082 -0.02500
C 	C 	0.97032 0.75589 0.75589 0.04500
H 	H 	0.94920 0.76470 0.76470 0.03700
C 	C 	0.79426 0.08739 0.91261 -0.01900
H 	H 	0.81070 0.07450 0.92550 0.06900
C 	C 	0.73796 0.11804 0.88196 0.13800
N 	N 	0.70696 0.13482 0.86518 -0.18000
C 	C 	0.56453 0.21755 0.78245 0.11000
C 	C 	0.53007 0.23082 0.76918 -0.03300
C 	C 	0.52968 0.25589 0.74411 0.04100
H 	H 	0.55080 0.26470 0.73530 0.03800
C 	C 	0.29426 0.58739 0.41261 -0.01800
H 	H 	0.31070 0.57450 0.42550 0.06900
C 	C 	0.23796 0.61804 0.38196 0.13800
N 	N 	0.20696 0.63482 0.36518 -0.18000
C 	C 	0.06453 0.71755 0.28245 0.10900
C 	C 	0.03007 0.73082 0.26918 -0.03000
C 	C 	0.02968 0.75589 0.24411 0.03800
H 	H 	0.05080 0.76470 0.23530 0.03900
C 	C 	0.91261 0.91261 0.20574 -0.01900
H 	H 	0.92550 0.92550 0.18930 0.07000
C 	C 	0.88196 0.88196 0.26204 0.13900
N 	N 	0.86518 0.86518 0.29304 -0.18000
C 	C 	0.78245 0.78245 0.43547 0.11000
C 	C 	0.76918 0.76918 0.46993 -0.03300
C 	C 	0.74411 0.74411 0.47032 0.04100
H 	H 	0.73530 0.73530 0.44920 0.03800
C 	C 	0.41261 0.41261 0.70574 -0.01800
H 	H 	0.42550 0.42550 0.68930 0.06900
C 	C 	0.38196 0.38196 0.76204 0.13800
N 	N 	0.36518 0.36518 0.79304 -0.18000
C 	C 	0.28245 0.28245 0.93547 0.11000
C 	C 	0.26918 0.26918 0.96993 -0.02500
C 	C 	0.24411 0.24411 0.97032 0.04500
H 	H 	0.23530 0.23530 0.94920 0.03700
C 	C 	0.91261 0.08739 0.79426 -0.01900
H 	H 	0.92550 0.07450 0.81070 0.06900
C 	C 	0.88196 0.11804 0.73796 0.13800
N 	N 	0.86518 0.13482 0.70696 -0.18000
C 	C 	0.78245 0.21755 0.56453 0.11000
C 	C 	0.76918 0.23082 0.53007 -0.03300
C 	C 	0.74411 0.25589 0.52968 0.04100
H 	H 	0.73530 0.26470 0.55080 0.03800
C 	C 	0.41261 0.58739 0.29426 -0.01800
H 	H 	0.42550 0.57450 0.31070 0.06900
C 	C 	0.38196 0.61804 0.23796 0.13800
N 	N 	0.36518 0.63482 0.20696 -0.18000
C 	C 	0.28245 0.71755 0.06453 0.10900
C 	C 	0.26918 0.73082 0.03007 -0.03000
C 	C 	0.24411 0.75589 0.02968 0.03800
H 	H 	0.23530 0.76470 0.05080 0.03900
C 	C 	0.08739 0.91261 0.79426 -0.01900
H 	H 	0.07450 0.92550 0.81070 0.06900
C 	C 	0.11804 0.88196 0.73796 0.13800
N 	N 	0.13482 0.86518 0.70696 -0.18000
C 	C 	0.21755 0.78245 0.56453 0.11000
C 	C 	0.23082 0.76918 0.53007 -0.03300
C 	C 	0.25589 0.74411 0.52968 0.04100
H 	H 	0.26470 0.73530 0.55080 0.03800
C 	C 	0.58739 0.41261 0.29426 -0.01800
H 	H 	0.57450 0.42550 0.31070 0.06900
C 	C 	0.61804 0.38196 0.23796 0.13800
N 	N 	0.63482 0.36518 0.20696 -0.18000
C 	C 	0.71755 0.28245 0.06453 0.10900
C 	C 	0.73082 0.26918 0.03007 -0.03000
C 	C 	0.75589 0.24411 0.02968 0.03800
H 	H 	0.76470 0.23530 0.05080 0.03900
C 	C 	0.08739 0.08739 0.20574 -0.01800
H 	H 	0.07450 0.07450 0.18930 0.06700
C 	C 	0.11804 0.11804 0.26204 0.13700
N 	N 	0.13482 0.13482 0.29304 -0.18000
C 	C 	0.21755 0.21755 0.43547 0.11000
C 	C 	0.23082 0.23082 0.46993 -0.03300
C 	C 	0.25589 0.25589 0.47032 0.04100
H 	H 	0.26470 0.26470 0.44920 0.03800
C 	C 	0.58739 0.58739 0.70574 -0.01800
H 	H 	0.57450 0.57450 0.68930 0.06900
C 	C 	0.61804 0.61804 0.76204 0.13800
N 	N 	0.63482 0.63482 0.79304 -0.18000
C 	C 	0.71755 0.71755 0.93547 0.11000
C 	C 	0.73082 0.73082 0.96993 -0.02500
C 	C 	0.75589 0.75589 0.97032 0.04500
H 	H 	0.76470 0.76470 0.94920 0.03700
