data_crystal

_cell_length_a 15.83810
_cell_length_b 16.52260
_cell_length_c 23.57960
_cell_angle_alpha 90.00000
_cell_angle_beta  90.00000
_cell_angle_gamma 90.00000

_symmetry_space_group_name_	'P 1'
_symmetry_space_group_name_H-M	'P 1'

loop_
_symmetry_equiv_pos_as_xyz
  x,y,z

loop_
_atom_site_label
_atom_site_type_symbol
_atom_site_fract_x
_atom_site_fract_y
_atom_site_fract_z
_atom_site_charge
Cu	Cu	0.07371 0.61777 0.51124 0.92400
Cu	Cu	0.88689 0.50600 0.50320 0.89100
Cu	Cu	0.98202 0.50957 0.62188 0.92600
N 	N 	0.09450 0.35930 0.68830 0.02800
O 	O 	0.09250 0.41650 0.65520 -0.14700
O 	O 	0.03630 0.30500 0.69180 -0.12100
O 	O 	0.15420 0.35890 0.72250 -0.08200
Cu	Cu	0.71609 0.59583 0.43205 0.91200
Cu	Cu	0.76972 0.39466 0.43418 0.91100
Cu	Cu	0.60769 0.49367 0.50661 0.88900
Cu	Cu	0.51564 0.49451 0.62724 0.91200
Cu	Cu	0.41738 0.39035 0.51469 0.92500
C 	C 	0.22440 0.64910 0.57900 0.30100
C 	C 	0.17510 0.64660 0.63540 -0.00600
H 	H 	0.19090 0.69630 0.65720 0.06500
C 	C 	0.07990 0.64930 0.62690 -0.01800
H 	H 	0.06450 0.70370 0.61150 0.04700
C 	C 	0.03550 0.63830 0.68390 0.31100
C 	C 	0.02340 0.65880 0.40470 0.32900
C 	C 	0.94130 0.63460 0.43400 -0.04400
H 	H 	0.90900 0.68480 0.44340 0.04100
C 	C 	0.88380 0.57790 0.39840 -0.03800
H 	H 	0.91900 0.53360 0.38180 0.05200
C 	C 	0.83500 0.62080 0.35030 0.31400
C 	C 	0.90670 0.31090 0.47000 0.26200
C 	C 	0.86610 0.34390 0.52380 -0.04000
H 	H 	0.83030 0.30040 0.54090 0.06800
C 	C 	0.93180 0.36980 0.56740 -0.03800
H 	H 	0.97850 0.32900 0.56780 0.07900
C 	C 	0.89110 0.37200 0.62630 0.30500
C 	C 	0.61450 0.62810 0.62800 0.29700
C 	C 	0.56890 0.63170 0.57110 -0.05100
H 	H 	0.52290 0.67300 0.57360 0.05800
C 	C 	0.62900 0.65590 0.52380 -0.03100
H 	H 	0.66450 0.70230 0.53700 0.02900
C 	C 	0.58130 0.68130 0.47120 0.25600
C 	C 	0.65240 0.38810 0.35020 0.30400
C 	C 	0.60520 0.43100 0.39850 -0.03400
H 	H 	0.57520 0.47900 0.38230 0.03300
C 	C 	0.53970 0.37790 0.43080 -0.04300
H 	H 	0.56370 0.32230 0.43540 0.06000
C 	C 	0.45290 0.37060 0.40220 0.29500
C 	C 	0.46130 0.36490 0.68800 0.30900
C 	C 	0.41430 0.35750 0.63207 -0.02700
H 	H 	0.42170 0.30120 0.61730 0.06500
C 	C 	0.31910 0.37310 0.64150 0.00300
H 	H 	0.29140 0.32040 0.65090 0.07200
C 	C 	0.28010 0.40520 0.58660 0.28600
O 	O 	0.18510 0.65980 0.53233 -0.41100
O 	O 	0.30280 0.64480 0.58103 -0.26600
O 	O 	0.20000 0.57910 0.66854 -0.31000
H 	H 	0.19740 0.53690 0.64870 0.23800
O 	O 	0.05170 0.59000 0.58853 -0.44500
O 	O 	0.98830 0.57650 0.68933 -0.35400
O 	O 	0.04740 0.68850 0.72244 -0.30400
O 	O 	0.02360 0.68970 0.35719 -0.39600
O 	O 	0.09150 0.64880 0.43291 -0.45900
O 	O 	0.96107 0.59340 0.48539 -0.44800
O 	O 	0.82500 0.54370 0.43732 -0.47100
O 	O 	0.86990 0.64000 0.30576 -0.34600
O 	O 	0.75550 0.63050 0.35936 -0.38100
O 	O 	0.87900 0.33940 0.42270 -0.34400
O 	O 	0.96200 0.25800 0.47426 -0.27400
O 	O 	0.81337 0.41138 0.51083 -0.44300
O 	O 	0.96630 0.44698 0.55249 -0.42500
O 	O 	0.90850 0.43360 0.65748 -0.38000
O 	O 	0.84430 0.31630 0.64071 -0.33900
O 	O 	0.59660 0.56840 0.66045 -0.36700
O 	O 	0.66530 0.68190 0.64081 -0.32000
O 	O 	0.53220 0.55489 0.55742 -0.43900
O 	O 	0.68269 0.58855 0.51191 -0.44300
O 	O 	0.60830 0.65230 0.42383 -0.37600
O 	O 	0.52070 0.72840 0.47544 -0.30100
O 	O 	0.73070 0.37400 0.35852 -0.35100
O 	O 	0.61680 0.37030 0.30537 -0.29800
O 	O 	0.66620 0.45910 0.43896 -0.48700
O 	O 	0.52800 0.41230 0.48582 -0.44100
O 	O 	0.38930 0.37370 0.43536 -0.35200
O 	O 	0.44730 0.35860 0.35025 -0.29900
O 	O 	0.51240 0.42430 0.69379 -0.36800
O 	O 	0.44880 0.31300 0.72579 -0.30900
O 	O 	0.44920 0.41260 0.59213 -0.44100
O 	O 	0.30520 0.42760 0.68736 -0.32300
H 	H 	0.25310 0.43460 0.69180 0.25100
O 	O 	0.30170 0.36850 0.54057 -0.35100
O 	O 	0.22870 0.46120 0.58819 -0.26100
Li	Li	0.16850 0.69950 0.37520 0.55700
Li	Li	0.97010 0.70040 0.28810 0.55700
Li	Li	0.77970 0.31990 0.70850 0.54900
Li	Li	0.51620 0.30860 0.29300 0.56300
O 	O 	0.70030 0.22170 0.69760 -0.37800
Li	Li	0.15450 0.44080 0.41670 0.56100
O 	O 	0.22550 0.34150 0.40210 -0.05300
O 	O 	0.24270 0.50930 0.37440 -0.16700
O 	O 	0.04550 0.41530 0.38140 -0.21600
Li	Li	0.34510 0.56980 0.41920 0.54400
O 	O 	0.26820 0.66970 0.42942 -0.87400
H 	H 	0.31000 0.70000 0.42900 0.34100
H 	H 	0.24700 0.67500 0.46130 0.38300
O 	O 	0.60950 0.27650 0.57660 0.01300
N 	N 	0.09510 0.33610 0.67900 0.05800
O 	O 	0.05600 0.29930 0.72000 -0.08600
O 	O 	0.11010 0.31150 0.63120 -0.11900
O 	O 	0.13210 0.41100 0.70940 -0.04500
Li	Li	0.64040 0.18880 0.62220 0.55600
O 	O 	0.72740 0.21630 0.71500 0.10300
O 	O 	0.20790 0.38620 0.42020 -0.40000
O 	O 	0.28390 0.51620 0.36210 -0.11300
O 	O 	0.61960 0.27440 0.55940 -0.23800
O 	O 	0.02570 0.36160 0.35560 -0.11200
Cu	Cu	0.42629 0.38223 0.01124 0.92500
Cu	Cu	0.61311 0.49400 0.00320 0.89000
Cu	Cu	0.51798 0.49043 0.12188 0.92600
N 	N 	0.40550 0.64070 0.18830 0.02800
O 	O 	0.40750 0.58350 0.15520 -0.14700
O 	O 	0.46370 0.69500 0.19180 -0.12100
O 	O 	0.34580 0.64110 0.22250 -0.08200
Cu	Cu	0.78391 0.40417 0.93205 0.91300
Cu	Cu	0.73028 0.60534 0.93418 0.91100
Cu	Cu	0.89231 0.50633 0.00661 0.88800
Cu	Cu	0.98436 0.50549 0.12724 0.91200
Cu	Cu	0.08262 0.60965 0.01469 0.92500
C 	C 	0.27560 0.35090 0.07900 0.30100
C 	C 	0.32490 0.35340 0.13540 -0.00600
H 	H 	0.30910 0.30370 0.15720 0.06500
C 	C 	0.42010 0.35070 0.12690 -0.01700
H 	H 	0.43550 0.29630 0.11150 0.04700
C 	C 	0.46450 0.36170 0.18390 0.30900
C 	C 	0.47660 0.34120 0.90470 0.32700
C 	C 	0.55870 0.36540 0.93400 -0.04200
H 	H 	0.59100 0.31520 0.94340 0.04200
C 	C 	0.61620 0.42210 0.89840 -0.03800
H 	H 	0.58100 0.46640 0.88180 0.05300
C 	C 	0.66500 0.37920 0.85030 0.31500
C 	C 	0.59330 0.68910 0.97000 0.26400
C 	C 	0.63390 0.65610 0.02380 -0.04000
H 	H 	0.66970 0.69960 0.04090 0.06800
C 	C 	0.56820 0.63020 0.06740 -0.03800
H 	H 	0.52150 0.67100 0.06780 0.07900
C 	C 	0.60890 0.62800 0.12630 0.30500
C 	C 	0.88550 0.37190 0.12800 0.29700
C 	C 	0.93110 0.36830 0.07110 -0.05100
H 	H 	0.97710 0.32700 0.07360 0.05700
C 	C 	0.87100 0.34410 0.02380 -0.03200
H 	H 	0.83550 0.29770 0.03700 0.03000
C 	C 	0.91870 0.31870 0.97120 0.25800
C 	C 	0.84760 0.61190 0.85020 0.30400
C 	C 	0.89480 0.56900 0.89850 -0.03400
H 	H 	0.92480 0.52100 0.88230 0.03300
C 	C 	0.96030 0.62210 0.93080 -0.04500
H 	H 	0.93630 0.67770 0.93540 0.06000
C 	C 	0.04710 0.62940 0.90220 0.29600
C 	C 	0.03870 0.63510 0.18800 0.31200
C 	C 	0.08570 0.64250 0.13207 -0.02800
H 	H 	0.07830 0.69880 0.11730 0.06600
C 	C 	0.18090 0.62690 0.14150 0.00400
H 	H 	0.20860 0.67960 0.15090 0.07200
C 	C 	0.21990 0.59480 0.08660 0.28600
O 	O 	0.31490 0.34020 0.03233 -0.41100
O 	O 	0.19720 0.35520 0.08103 -0.26600
O 	O 	0.30000 0.42090 0.16854 -0.31000
H 	H 	0.30260 0.46310 0.14870 0.23800
O 	O 	0.44830 0.41000 0.08853 -0.44600
O 	O 	0.51170 0.42350 0.18933 -0.35300
O 	O 	0.45260 0.31150 0.22244 -0.30500
O 	O 	0.47640 0.31030 0.85719 -0.39600
O 	O 	0.40850 0.35120 0.93291 -0.45800
O 	O 	0.53893 0.40660 0.98539 -0.44700
O 	O 	0.67500 0.45630 0.93732 -0.47100
O 	O 	0.63010 0.36000 0.80576 -0.34500
O 	O 	0.74450 0.36950 0.85936 -0.38100
O 	O 	0.62100 0.66060 0.92270 -0.34500
O 	O 	0.53800 0.74200 0.97426 -0.27400
O 	O 	0.68663 0.58862 0.01083 -0.44300
O 	O 	0.53370 0.55302 0.05249 -0.42500
O 	O 	0.59150 0.56640 0.15748 -0.38000
O 	O 	0.65570 0.68370 0.14071 -0.33900
O 	O 	0.90340 0.43160 0.16045 -0.36700
O 	O 	0.83470 0.31810 0.14081 -0.32000
O 	O 	0.96780 0.44511 0.05742 -0.44000
O 	O 	0.81731 0.41145 0.01191 -0.44300
O 	O 	0.89170 0.34770 0.92383 -0.37600
O 	O 	0.97930 0.27160 0.97544 -0.30000
O 	O 	0.76930 0.62600 0.85852 -0.35100
O 	O 	0.88320 0.62970 0.80537 -0.29800
O 	O 	0.83380 0.54090 0.93896 -0.48700
O 	O 	0.97200 0.58770 0.98582 -0.44000
O 	O 	0.11070 0.62630 0.93536 -0.35200
O 	O 	0.05270 0.64140 0.85025 -0.29800
O 	O 	0.98760 0.57570 0.19379 -0.37100
O 	O 	0.05120 0.68700 0.22579 -0.30900
O 	O 	0.05080 0.58740 0.09213 -0.44000
O 	O 	0.19480 0.57240 0.18736 -0.32300
H 	H 	0.24690 0.56540 0.19180 0.25100
O 	O 	0.19830 0.63150 0.04057 -0.35000
O 	O 	0.27130 0.53880 0.08819 -0.26100
Li	Li	0.33150 0.30050 0.87520 0.55700
Li	Li	0.52990 0.29960 0.78810 0.55700
Li	Li	0.72030 0.68010 0.20850 0.54900
Li	Li	0.98380 0.69140 0.79300 0.56300
O 	O 	0.79970 0.77830 0.19760 -0.37800
Li	Li	0.34550 0.55920 0.91670 0.56100
O 	O 	0.27450 0.65850 0.90210 -0.05300
O 	O 	0.25730 0.49070 0.87440 -0.16700
O 	O 	0.45450 0.58470 0.88140 -0.21700
Li	Li	0.15490 0.43020 0.91920 0.54400
O 	O 	0.23180 0.33030 0.92942 -0.87400
H 	H 	0.19000 0.30000 0.92900 0.34100
H 	H 	0.25300 0.32500 0.96130 0.38300
O 	O 	0.89050 0.72350 0.07660 0.01300
N 	N 	0.40490 0.66390 0.17900 0.05900
O 	O 	0.44400 0.70070 0.22000 -0.08500
O 	O 	0.38990 0.68850 0.13120 -0.11800
O 	O 	0.36790 0.58900 0.20940 -0.04500
Li	Li	0.85960 0.81120 0.12220 0.55600
O 	O 	0.77260 0.78370 0.21500 0.10200
O 	O 	0.29210 0.61380 0.92020 -0.39900
O 	O 	0.21610 0.48380 0.86210 -0.11300
O 	O 	0.88040 0.72560 0.05940 -0.23900
O 	O 	0.47430 0.63840 0.85560 -0.11100
Cu	Cu	0.92629 0.11777 0.98876 0.92600
Cu	Cu	0.11311 0.00600 0.99680 0.89000
Cu	Cu	0.01798 0.00957 0.87812 0.92500
N 	N 	0.90550 0.85930 0.81170 0.02800
O 	O 	0.90750 0.91650 0.84480 -0.14800
O 	O 	0.96370 0.80500 0.80820 -0.12200
O 	O 	0.84580 0.85890 0.77750 -0.08200
Cu	Cu	0.28391 0.09583 0.06795 0.91200
Cu	Cu	0.23028 0.89466 0.06582 0.91100
Cu	Cu	0.39231 0.99367 0.99339 0.88900
Cu	Cu	0.48436 0.99451 0.87276 0.91200
Cu	Cu	0.58262 0.89035 0.98531 0.92500
C 	C 	0.77560 0.14910 0.92100 0.30100
C 	C 	0.82490 0.14660 0.86460 -0.00500
H 	H 	0.80910 0.19630 0.84280 0.06500
C 	C 	0.92010 0.14930 0.87310 -0.01900
H 	H 	0.93550 0.20370 0.88850 0.04700
C 	C 	0.96450 0.13830 0.81610 0.31500
C 	C 	0.97660 0.15880 0.09530 0.32900
C 	C 	0.05870 0.13460 0.06600 -0.04300
H 	H 	0.09100 0.18480 0.05660 0.04200
C 	C 	0.11620 0.07790 0.10160 -0.03800
H 	H 	0.08100 0.03360 0.11820 0.05300
C 	C 	0.16500 0.12080 0.14970 0.31400
C 	C 	0.09330 0.81090 0.03000 0.26300
C 	C 	0.13390 0.84390 0.97620 -0.03900
H 	H 	0.16970 0.80040 0.95910 0.06800
C 	C 	0.06820 0.86980 0.93260 -0.03800
H 	H 	0.02150 0.82900 0.93220 0.08000
C 	C 	0.10890 0.87200 0.87370 0.30600
C 	C 	0.38550 0.12810 0.87200 0.29700
C 	C 	0.43110 0.13170 0.92890 -0.05200
H 	H 	0.47710 0.17300 0.92640 0.05800
C 	C 	0.37100 0.15590 0.97620 -0.03000
H 	H 	0.33550 0.20230 0.96300 0.02900
C 	C 	0.41870 0.18130 0.02880 0.25600
C 	C 	0.34760 0.88810 0.14980 0.30400
C 	C 	0.39480 0.93100 0.10150 -0.03400
H 	H 	0.42480 0.97900 0.11770 0.03300
C 	C 	0.46030 0.87790 0.06920 -0.04400
H 	H 	0.43630 0.82230 0.06460 0.06000
C 	C 	0.54710 0.87060 0.09780 0.29500
C 	C 	0.53870 0.86490 0.81200 0.30900
C 	C 	0.58570 0.85750 0.86793 -0.02700
H 	H 	0.57830 0.80120 0.88270 0.06500
C 	C 	0.68090 0.87310 0.85850 0.00300
H 	H 	0.70860 0.82040 0.84910 0.07200
C 	C 	0.71990 0.90520 0.91340 0.28600
O 	O 	0.81490 0.15980 0.96767 -0.41000
O 	O 	0.69720 0.14480 0.91897 -0.26500
O 	O 	0.80000 0.07910 0.83146 -0.31000
H 	H 	0.80260 0.03690 0.85130 0.24000
O 	O 	0.94830 0.09000 0.91147 -0.44300
O 	O 	0.01170 0.07650 0.81067 -0.35600
O 	O 	0.95260 0.18850 0.77756 -0.30500
O 	O 	0.97640 0.18970 0.14281 -0.39600
O 	O 	0.90850 0.14880 0.06709 -0.45900
O 	O 	0.03893 0.09340 0.01461 -0.44900
O 	O 	0.17500 0.04370 0.06268 -0.47100
O 	O 	0.13010 0.14000 0.19424 -0.34500
O 	O 	0.24450 0.13050 0.14064 -0.38100
O 	O 	0.12100 0.83940 0.07730 -0.34300
O 	O 	0.03800 0.75800 0.02574 -0.27300
O 	O 	0.18663 0.91138 0.98917 -0.44200
O 	O 	0.03370 0.94698 0.94751 -0.42300
O 	O 	0.09150 0.93360 0.84252 -0.37800
O 	O 	0.15570 0.81630 0.85929 -0.33800
O 	O 	0.40340 0.06840 0.83955 -0.36700
O 	O 	0.33470 0.18190 0.85919 -0.32000
O 	O 	0.46780 0.05489 0.94258 -0.43800
O 	O 	0.31731 0.08855 0.98809 -0.44300
O 	O 	0.39170 0.15230 0.07617 -0.37600
O 	O 	0.47930 0.22840 0.02456 -0.30100
O 	O 	0.26930 0.87400 0.14148 -0.35000
O 	O 	0.38320 0.87030 0.19463 -0.29800
O 	O 	0.33380 0.95910 0.06104 -0.48700
O 	O 	0.47200 0.91230 0.01418 -0.44100
O 	O 	0.61070 0.87370 0.06464 -0.35300
O 	O 	0.55270 0.85860 0.14975 -0.29900
O 	O 	0.48760 0.92430 0.80621 -0.36800
O 	O 	0.55120 0.81300 0.77421 -0.31000
O 	O 	0.55080 0.91260 0.90787 -0.44200
O 	O 	0.69480 0.92760 0.81264 -0.32300
H 	H 	0.74690 0.93460 0.80820 0.25000
O 	O 	0.69830 0.86850 0.95943 -0.35000
O 	O 	0.77130 0.96120 0.91181 -0.26200
Li	Li	0.83150 0.19950 0.12480 0.55700
Li	Li	0.02990 0.20040 0.21190 0.55700
Li	Li	0.22030 0.81990 0.79150 0.54900
Li	Li	0.48380 0.80860 0.20700 0.56300
O 	O 	0.29970 0.72170 0.80240 -0.37800
Li	Li	0.84550 0.94080 0.08330 0.56100
O 	O 	0.77450 0.84150 0.09790 -0.05300
O 	O 	0.75730 0.00930 0.12560 -0.16500
O 	O 	0.95450 0.91530 0.11860 -0.21900
Li	Li	0.65490 0.06980 0.08080 0.54400
O 	O 	0.73180 0.16970 0.07058 -0.87300
H 	H 	0.69000 0.20000 0.07100 0.34100
H 	H 	0.75300 0.17500 0.03870 0.38200
O 	O 	0.39050 0.77650 0.92340 0.01400
N 	N 	0.90490 0.83610 0.82100 0.05900
O 	O 	0.94400 0.79930 0.78000 -0.08600
O 	O 	0.88990 0.81150 0.86880 -0.11900
O 	O 	0.86790 0.91100 0.79060 -0.04600
Li	Li	0.35960 0.68880 0.87780 0.55600
O 	O 	0.27260 0.71630 0.78500 0.10200
O 	O 	0.79210 0.88620 0.07980 -0.40100
O 	O 	0.71610 0.01620 0.13790 -0.11200
O 	O 	0.38040 0.77440 0.94060 -0.23900
O 	O 	0.97430 0.86160 0.14440 -0.11300
Cu	Cu	0.57371 0.88223 0.48876 0.92500
Cu	Cu	0.38689 0.99400 0.49680 0.89100
Cu	Cu	0.48202 0.99043 0.37812 0.92600
N 	N 	0.59450 0.14070 0.31170 0.02900
O 	O 	0.59250 0.08350 0.34480 -0.14600
O 	O 	0.53630 0.19500 0.30820 -0.12100
O 	O 	0.65420 0.14110 0.27750 -0.08200
Cu	Cu	0.21609 0.90417 0.56795 0.91300
Cu	Cu	0.26972 0.10534 0.56582 0.91100
Cu	Cu	0.10769 0.00633 0.49339 0.88800
Cu	Cu	0.01564 0.00549 0.37276 0.91100
Cu	Cu	0.91738 0.10965 0.48531 0.92600
C 	C 	0.72440 0.85090 0.42100 0.30100
C 	C 	0.67510 0.85340 0.36460 -0.00700
H 	H 	0.69090 0.80370 0.34280 0.06500
C 	C 	0.57990 0.85070 0.37310 -0.01700
H 	H 	0.56450 0.79630 0.38850 0.04700
C 	C 	0.53550 0.86170 0.31610 0.30900
C 	C 	0.52340 0.84120 0.59530 0.32700
C 	C 	0.44130 0.86540 0.56600 -0.04200
H 	H 	0.40900 0.81520 0.55660 0.04100
C 	C 	0.38380 0.92210 0.60160 -0.03800
H 	H 	0.41900 0.96640 0.61820 0.05300
C 	C 	0.33500 0.87920 0.64970 0.31500
C 	C 	0.40670 0.18910 0.53000 0.26300
C 	C 	0.36610 0.15610 0.47620 -0.04000
H 	H 	0.33030 0.19960 0.45910 0.06800
C 	C 	0.43180 0.13020 0.43260 -0.03800
H 	H 	0.47850 0.17100 0.43220 0.07900
C 	C 	0.39110 0.12800 0.37370 0.30500
C 	C 	0.11450 0.87190 0.37200 0.29700
C 	C 	0.06890 0.86830 0.42890 -0.05100
H 	H 	0.02290 0.82700 0.42640 0.05800
C 	C 	0.12900 0.84410 0.47620 -0.03000
H 	H 	0.16450 0.79770 0.46300 0.02900
C 	C 	0.08130 0.81870 0.52880 0.25600
C 	C 	0.15240 0.11190 0.64980 0.30400
C 	C 	0.10520 0.06900 0.60150 -0.03300
H 	H 	0.07520 0.02100 0.61770 0.03200
C 	C 	0.03970 0.12210 0.56920 -0.04600
H 	H 	0.06370 0.17770 0.56460 0.06100
C 	C 	0.95290 0.12940 0.59780 0.29800
C 	C 	0.96130 0.13510 0.31200 0.31300
C 	C 	0.91430 0.14250 0.36793 -0.02800
H 	H 	0.92170 0.19880 0.38270 0.06500
C 	C 	0.81910 0.12690 0.35850 0.00400
H 	H 	0.79140 0.17960 0.34910 0.07200
C 	C 	0.78010 0.09480 0.41340 0.28600
O 	O 	0.68510 0.84020 0.46767 -0.41100
O 	O 	0.80280 0.85520 0.41897 -0.26700
O 	O 	0.70000 0.92090 0.33146 -0.31000
H 	H 	0.69740 0.96310 0.35130 0.23700
O 	O 	0.55170 0.91000 0.41147 -0.44600
O 	O 	0.48830 0.92350 0.31067 -0.35300
O 	O 	0.54740 0.81150 0.27756 -0.30500
O 	O 	0.52360 0.81030 0.64281 -0.39600
O 	O 	0.59150 0.85120 0.56709 -0.45900
O 	O 	0.46107 0.90660 0.51461 -0.44800
O 	O 	0.32500 0.95630 0.56268 -0.47100
O 	O 	0.36990 0.86000 0.69424 -0.34500
O 	O 	0.25550 0.86950 0.64064 -0.38100
O 	O 	0.37900 0.16060 0.57730 -0.34400
O 	O 	0.46200 0.24200 0.52574 -0.27400
O 	O 	0.31337 0.08862 0.48917 -0.44200
O 	O 	0.46630 0.05302 0.44751 -0.42400
O 	O 	0.40850 0.06640 0.34252 -0.37900
O 	O 	0.34430 0.18370 0.35929 -0.33900
O 	O 	0.09660 0.93160 0.33955 -0.36500
O 	O 	0.16530 0.81810 0.35919 -0.31900
O 	O 	0.03220 0.94511 0.44258 -0.43700
O 	O 	0.18269 0.91145 0.48809 -0.44200
O 	O 	0.10830 0.84770 0.57617 -0.37500
O 	O 	0.02070 0.77160 0.52456 -0.30000
O 	O 	0.23070 0.12600 0.64148 -0.35100
O 	O 	0.11680 0.12970 0.69463 -0.29800
O 	O 	0.16620 0.04090 0.56104 -0.48800
O 	O 	0.02800 0.08770 0.51418 -0.44200
O 	O 	0.88930 0.12630 0.56464 -0.35200
O 	O 	0.94730 0.14140 0.64975 -0.29800
O 	O 	0.01240 0.07570 0.30621 -0.37100
O 	O 	0.94880 0.18700 0.27421 -0.31000
O 	O 	0.94920 0.08740 0.40787 -0.44000
O 	O 	0.80520 0.07240 0.31264 -0.32200
H 	H 	0.75310 0.06540 0.30820 0.25100
O 	O 	0.80170 0.13150 0.45943 -0.35000
O 	O 	0.72870 0.03880 0.41181 -0.25900
Li	Li	0.66850 0.80050 0.62480 0.55700
Li	Li	0.47010 0.79960 0.71190 0.55700
Li	Li	0.27970 0.18010 0.29150 0.54900
Li	Li	0.01620 0.19140 0.70700 0.56200
O 	O 	0.20030 0.27830 0.30240 -0.37800
Li	Li	0.65450 0.05920 0.58330 0.56100
O 	O 	0.72550 0.15850 0.59790 -0.05300
O 	O 	0.74270 0.99070 0.62560 -0.16800
O 	O 	0.54550 0.08470 0.61860 -0.21600
Li	Li	0.84510 0.93020 0.58080 0.54400
O 	O 	0.76820 0.83030 0.57058 -0.87400
H 	H 	0.81000 0.80000 0.57100 0.34000
H 	H 	0.74700 0.82500 0.53870 0.38200
O 	O 	0.10950 0.22350 0.42340 0.01300
N 	N 	0.59510 0.16390 0.32100 0.05800
O 	O 	0.55600 0.20070 0.28000 -0.08500
O 	O 	0.61010 0.18850 0.36880 -0.11800
O 	O 	0.63210 0.08900 0.29060 -0.04400
Li	Li	0.14040 0.31120 0.37780 0.55600
O 	O 	0.22740 0.28370 0.28500 0.10200
O 	O 	0.70790 0.11380 0.57980 -0.39800
O 	O 	0.78390 0.98380 0.63790 -0.11400
O 	O 	0.11960 0.22560 0.44060 -0.23900
O 	O 	0.52570 0.13840 0.64440 -0.11100
