data_crystal

_cell_length_a 13.36800
_cell_length_b 23.92200
_cell_length_c 13.09200
_cell_angle_alpha 90.00000
_cell_angle_beta  90.00000
_cell_angle_gamma 90.00000

_symmetry_space_group_name_	'P 1'
_symmetry_space_group_name_H-M	'P 1'

loop_
_symmetry_equiv_pos_as_xyz
  x,y,z

loop_
_atom_site_label
_atom_site_type_symbol
_atom_site_fract_x
_atom_site_fract_y
_atom_site_fract_z
_atom_site_charge
O 	O 	0.07060 0.42470 0.99720 -0.38700
O 	O 	0.19640 0.36430 0.99330 -0.29000
C 	C 	0.15780 0.41080 0.96500 0.29200
O 	O 	0.86930 0.53340 0.58410 -0.47700
O 	O 	0.64500 0.75950 0.60920 -0.42200
O 	O 	0.48390 0.73990 0.61820 -0.35900
C 	C 	0.57320 0.72500 0.61110 0.29200
C 	C 	0.60150 0.66350 0.60110 -0.03400
Tb	Tb	0.05756 0.65650 0.61083 1.62600
O 	O 	0.06570 0.56170 0.70630 -0.53100
C 	C 	0.66280 0.55230 0.58200 -0.05200
H 	H 	0.68370 0.51560 0.57200 0.07700
C 	C 	0.73200 0.59450 0.59390 -0.08700
C 	C 	0.70030 0.65030 0.60030 0.00200
H 	H 	0.74760 0.67870 0.60400 0.05800
C 	C 	0.84360 0.58300 0.59560 0.45100
C 	C 	0.56060 0.56520 0.58510 0.09800
O 	O 	0.19590 0.61600 0.70470 -0.40600
C 	C 	0.31980 0.52730 0.78250 -0.06400
H 	H 	0.35490 0.55550 0.74910 0.08900
C 	C 	0.16340 0.48920 0.84510 -0.00500
H 	H 	0.09400 0.49120 0.84850 0.03400
O 	O 	0.89910 0.62390 0.60490 -0.51100
C 	C 	0.52950 0.62080 0.59920 -0.08200
H 	H 	0.46200 0.62910 0.60710 0.08800
N 	N 	0.47670 0.47780 0.83060 -0.06900
N 	N 	0.48310 0.52400 0.58110 -0.08300
C 	C 	0.21620 0.52760 0.78430 -0.05400
C 	C 	0.21310 0.44850 0.89990 -0.02500
C 	C 	0.37100 0.48350 0.83210 0.12400
C 	C 	0.31770 0.44380 0.88650 -0.07700
H 	H 	0.35130 0.41350 0.91480 0.11200
C 	C 	0.15590 0.57170 0.72610 0.36500
O 	O 	0.57060 0.92470 0.49720 -0.45700
O 	O 	0.69640 0.86430 0.49330 -0.37300
C 	C 	0.65780 0.91080 0.46500 0.30600
O 	O 	0.36930 0.03340 0.08410 -0.55000
O 	O 	0.14500 0.25950 0.10920 -0.42000
O 	O 	0.98390 0.23990 0.11820 -0.31700
C 	C 	0.07320 0.22500 0.11110 0.21900
C 	C 	0.10150 0.16350 0.10110 -0.02100
Tb	Tb	0.55756 0.15650 0.11083 1.53600
O 	O 	0.56570 0.06170 0.20630 -0.53900
C 	C 	0.16280 0.05230 0.08200 -0.04700
H 	H 	0.18370 0.01560 0.07200 0.03100
C 	C 	0.23200 0.09450 0.09390 -0.11400
C 	C 	0.20030 0.15030 0.10030 -0.01500
H 	H 	0.24760 0.17870 0.10400 0.04700
C 	C 	0.34360 0.08300 0.09560 0.45200
C 	C 	0.06060 0.06520 0.08510 0.05700
O 	O 	0.69590 0.11600 0.20470 -0.42800
C 	C 	0.81980 0.02730 0.28250 -0.11500
H 	H 	0.85490 0.05550 0.24910 0.09500
C 	C 	0.66340 0.98920 0.34510 0.06000
H 	H 	0.59400 0.99120 0.34850 0.02900
O 	O 	0.39910 0.12390 0.10490 -0.54900
C 	C 	0.02950 0.12080 0.09920 -0.17200
H 	H 	0.96200 0.12910 0.10710 0.12300
N 	N 	0.97670 0.97780 0.33060 -0.04000
N 	N 	0.98310 0.02400 0.08110 -0.08900
C 	C 	0.71620 0.02760 0.28430 -0.11300
C 	C 	0.71310 0.94850 0.39990 -0.06100
C 	C 	0.87100 0.98350 0.33210 0.15900
C 	C 	0.81770 0.94380 0.38650 -0.08100
H 	H 	0.85130 0.91350 0.41480 0.09200
C 	C 	0.65590 0.07170 0.22610 0.36200
O 	O 	0.92940 0.57530 0.99720 -0.36800
O 	O 	0.80360 0.63570 0.99330 -0.29500
C 	C 	0.84220 0.58920 0.96500 0.28500
O 	O 	0.13070 0.46660 0.58410 -0.50400
O 	O 	0.35500 0.24050 0.60920 -0.42400
O 	O 	0.51610 0.26010 0.61820 -0.35800
C 	C 	0.42680 0.27500 0.61110 0.29300
C 	C 	0.39850 0.33650 0.60110 -0.03900
Tb	Tb	0.94244 0.34350 0.61083 1.77000
O 	O 	0.93430 0.43830 0.70630 -0.50400
C 	C 	0.33720 0.44770 0.58200 -0.04700
H 	H 	0.31630 0.48440 0.57200 0.07600
C 	C 	0.26800 0.40550 0.59390 -0.09800
C 	C 	0.29970 0.34970 0.60030 0.00800
H 	H 	0.25240 0.32130 0.60400 0.05200
C 	C 	0.15640 0.41700 0.59560 0.46500
C 	C 	0.43940 0.43480 0.58510 0.09500
O 	O 	0.80410 0.38400 0.70470 -0.41000
C 	C 	0.68020 0.47270 0.78250 -0.07300
H 	H 	0.64510 0.44450 0.74910 0.09300
C 	C 	0.83660 0.51080 0.84510 -0.01900
H 	H 	0.90600 0.50880 0.84850 0.06000
O 	O 	0.10090 0.37610 0.60490 -0.56800
C 	C 	0.47050 0.37920 0.59920 -0.07900
H 	H 	0.53800 0.37090 0.60710 0.08700
N 	N 	0.52330 0.52220 0.83060 -0.07000
N 	N 	0.51690 0.47600 0.58110 -0.08300
C 	C 	0.78380 0.47240 0.78430 -0.03800
C 	C 	0.78690 0.55150 0.89990 -0.00900
C 	C 	0.62900 0.51650 0.83210 0.13100
C 	C 	0.68230 0.55620 0.88650 -0.08600
H 	H 	0.64870 0.58650 0.91480 0.11600
C 	C 	0.84410 0.42830 0.72610 0.35700
O 	O 	0.42940 0.07530 0.49720 -0.47200
O 	O 	0.30360 0.13570 0.49330 -0.37600
C 	C 	0.34220 0.08920 0.46500 0.29600
O 	O 	0.63070 0.96660 0.08410 -0.50700
O 	O 	0.85500 0.74050 0.10920 -0.45800
O 	O 	0.01610 0.76010 0.11820 -0.43300
C 	C 	0.92680 0.77500 0.11110 0.36300
C 	C 	0.89850 0.83650 0.10110 -0.11300
Tb	Tb	0.44244 0.84350 0.11083 1.54000
O 	O 	0.43430 0.93830 0.20630 -0.50900
C 	C 	0.83720 0.94770 0.08200 -0.03200
H 	H 	0.81630 0.98440 0.07200 0.06700
C 	C 	0.76800 0.90550 0.09390 -0.12600
C 	C 	0.79970 0.84970 0.10030 0.04100
H 	H 	0.75240 0.82130 0.10400 0.03000
C 	C 	0.65640 0.91700 0.09560 0.45300
C 	C 	0.93940 0.93480 0.08510 0.07100
O 	O 	0.30410 0.88400 0.20470 -0.42500
C 	C 	0.18020 0.97270 0.28250 -0.01100
H 	H 	0.14510 0.94450 0.24910 0.06000
C 	C 	0.33660 0.01080 0.34510 -0.06500
H 	H 	0.40600 0.00880 0.34850 0.03800
O 	O 	0.60090 0.87610 0.10490 -0.54500
C 	C 	0.97050 0.87920 0.09920 0.02600
H 	H 	0.03800 0.87090 0.10710 0.00600
N 	N 	0.02330 0.02220 0.33060 -0.12200
N 	N 	0.01690 0.97600 0.08110 -0.10300
C 	C 	0.28380 0.97240 0.28430 -0.02700
C 	C 	0.28690 0.05150 0.39990 -0.05400
C 	C 	0.12900 0.01650 0.33210 0.04000
C 	C 	0.18230 0.05620 0.38650 -0.06500
H 	H 	0.14870 0.08650 0.41480 0.07200
C 	C 	0.34410 0.92830 0.22610 0.35100
O 	O 	0.57060 0.07530 0.99720 -0.38400
O 	O 	0.69640 0.13570 0.99330 -0.29000
C 	C 	0.65780 0.08920 0.96500 0.28100
O 	O 	0.36930 0.96660 0.58410 -0.46600
O 	O 	0.14500 0.74050 0.60920 -0.40300
O 	O 	0.98390 0.76010 0.61820 -0.29900
C 	C 	0.07320 0.77500 0.61110 0.21800
C 	C 	0.10150 0.83650 0.60110 0.01900
Tb	Tb	0.55756 0.84350 0.61083 1.69800
O 	O 	0.56570 0.93830 0.70630 -0.50200
C 	C 	0.16280 0.94770 0.58200 -0.06800
H 	H 	0.18370 0.98440 0.57200 0.09900
C 	C 	0.23200 0.90550 0.59390 -0.06600
C 	C 	0.20030 0.84970 0.60030 -0.03400
H 	H 	0.24760 0.82130 0.60400 0.06800
C 	C 	0.34360 0.91700 0.59560 0.44600
C 	C 	0.06060 0.93480 0.58510 0.11100
O 	O 	0.69590 0.88400 0.70470 -0.40300
C 	C 	0.81980 0.97270 0.78250 -0.01900
H 	H 	0.85490 0.94450 0.74910 0.08700
C 	C 	0.66340 0.01080 0.84510 -0.07600
H 	H 	0.59400 0.00880 0.84850 0.05300
O 	O 	0.39910 0.87610 0.60490 -0.53500
C 	C 	0.02950 0.87920 0.59920 -0.19000
H 	H 	0.96200 0.87090 0.60710 0.15200
N 	N 	0.97670 0.02220 0.83060 -0.05900
N 	N 	0.98310 0.97600 0.58110 -0.02700
C 	C 	0.71620 0.97240 0.78430 -0.00100
C 	C 	0.71310 0.05150 0.89990 -0.00900
C 	C 	0.87100 0.01650 0.83210 0.08100
C 	C 	0.81770 0.05620 0.88650 -0.07900
H 	H 	0.85130 0.08650 0.91480 0.11500
C 	C 	0.65590 0.92830 0.72610 0.35400
O 	O 	0.07060 0.57530 0.49720 -0.47500
O 	O 	0.19640 0.63570 0.49330 -0.37300
C 	C 	0.15780 0.58920 0.46500 0.30400
O 	O 	0.86930 0.46660 0.08410 -0.51600
O 	O 	0.64500 0.24050 0.10920 -0.43700
O 	O 	0.48390 0.26010 0.11820 -0.37600
C 	C 	0.57320 0.27500 0.11110 0.29000
C 	C 	0.60150 0.33650 0.10110 -0.06500
Tb	Tb	0.05756 0.34350 0.11083 1.46900
O 	O 	0.06570 0.43830 0.20630 -0.53800
C 	C 	0.66280 0.44770 0.08200 -0.04200
H 	H 	0.68370 0.48440 0.07200 0.05000
C 	C 	0.73200 0.40550 0.09390 -0.11500
C 	C 	0.70030 0.34970 0.10030 0.01000
H 	H 	0.74760 0.32130 0.10400 0.04200
C 	C 	0.84360 0.41700 0.09560 0.44600
C 	C 	0.56060 0.43480 0.08510 0.06500
O 	O 	0.19590 0.38400 0.20470 -0.42500
C 	C 	0.31980 0.47270 0.28250 -0.05800
H 	H 	0.35490 0.44450 0.24910 0.07600
C 	C 	0.16340 0.51080 0.34510 0.00400
H 	H 	0.09400 0.50880 0.34850 0.02100
O 	O 	0.89910 0.37610 0.10490 -0.51800
C 	C 	0.52950 0.37920 0.09920 -0.07600
H 	H 	0.46200 0.37090 0.10710 0.06500
N 	N 	0.47670 0.52220 0.33060 -0.08100
N 	N 	0.48310 0.47600 0.08110 -0.09700
C 	C 	0.21620 0.47240 0.28430 -0.07800
C 	C 	0.21310 0.55150 0.39990 -0.06600
C 	C 	0.37100 0.51650 0.33210 0.09600
C 	C 	0.31770 0.55620 0.38650 -0.06900
H 	H 	0.35130 0.58650 0.41480 0.08000
C 	C 	0.15590 0.42830 0.22610 0.36100
O 	O 	0.42940 0.92470 0.99720 -0.37100
O 	O 	0.30360 0.86430 0.99330 -0.29500
C 	C 	0.34220 0.91080 0.96500 0.29500
O 	O 	0.63070 0.03340 0.58410 -0.51500
O 	O 	0.85500 0.25950 0.60920 -0.44300
O 	O 	0.01610 0.23990 0.61820 -0.41600
C 	C 	0.92680 0.22500 0.61110 0.36700
C 	C 	0.89850 0.16350 0.60110 -0.09100
Tb	Tb	0.44244 0.15650 0.61083 1.69700
O 	O 	0.43430 0.06170 0.70630 -0.53300
C 	C 	0.83720 0.05230 0.58200 -0.03100
H 	H 	0.81630 0.01560 0.57200 0.05400
C 	C 	0.76800 0.09450 0.59390 -0.11900
C 	C 	0.79970 0.15030 0.60030 0.04500
H 	H 	0.75240 0.17870 0.60400 0.04200
C 	C 	0.65640 0.08300 0.59560 0.46900
C 	C 	0.93940 0.06520 0.58510 0.08300
O 	O 	0.30410 0.11600 0.70470 -0.41300
C 	C 	0.18020 0.02730 0.78250 -0.11800
H 	H 	0.14510 0.05550 0.74910 0.09500
C 	C 	0.33660 0.98920 0.84510 0.05100
H 	H 	0.40600 0.99120 0.84850 0.04100
O 	O 	0.60090 0.12390 0.60490 -0.54400
C 	C 	0.97050 0.12080 0.59920 0.02800
H 	H 	0.03800 0.12910 0.60710 0.02400
N 	N 	0.02330 0.97780 0.83060 -0.08100
N 	N 	0.01690 0.02400 0.58110 -0.13900
C 	C 	0.28380 0.02760 0.78430 -0.09200
C 	C 	0.28690 0.94850 0.89990 -0.02500
C 	C 	0.12900 0.98350 0.83210 0.17300
C 	C 	0.18230 0.94380 0.88650 -0.08500
H 	H 	0.14870 0.91350 0.91480 0.11200
C 	C 	0.34410 0.07170 0.72610 0.36700
O 	O 	0.92940 0.42470 0.49720 -0.45300
O 	O 	0.80360 0.36430 0.49330 -0.37600
C 	C 	0.84220 0.41080 0.46500 0.29700
O 	O 	0.13070 0.53340 0.08410 -0.54100
O 	O 	0.35500 0.75950 0.10920 -0.44000
O 	O 	0.51610 0.73990 0.11820 -0.37600
C 	C 	0.42680 0.72500 0.11110 0.29100
C 	C 	0.39850 0.66350 0.10110 -0.06900
Tb	Tb	0.94244 0.65650 0.11083 1.61200
O 	O 	0.93430 0.56170 0.20630 -0.51000
C 	C 	0.33720 0.55230 0.08200 -0.03700
H 	H 	0.31630 0.51560 0.07200 0.04800
C 	C 	0.26800 0.59450 0.09390 -0.12600
C 	C 	0.29970 0.65030 0.10030 0.01600
H 	H 	0.25240 0.67870 0.10400 0.03500
C 	C 	0.15640 0.58300 0.09560 0.46000
C 	C 	0.43940 0.56520 0.08510 0.06200
O 	O 	0.80410 0.61600 0.20470 -0.42800
C 	C 	0.68020 0.52730 0.28250 -0.06800
H 	H 	0.64510 0.55550 0.24910 0.07900
C 	C 	0.83660 0.48920 0.34510 -0.01000
H 	H 	0.90600 0.49120 0.34850 0.04700
O 	O 	0.10090 0.62390 0.10490 -0.57600
C 	C 	0.47050 0.62080 0.09920 -0.07300
H 	H 	0.53800 0.62910 0.10710 0.06400
N 	N 	0.52330 0.47780 0.33060 -0.08200
N 	N 	0.51690 0.52400 0.08110 -0.09600
C 	C 	0.78380 0.52760 0.28430 -0.06200
C 	C 	0.78690 0.44850 0.39990 -0.04900
C 	C 	0.62900 0.48350 0.33210 0.10300
C 	C 	0.68230 0.44380 0.38650 -0.07800
H 	H 	0.64870 0.41350 0.41480 0.08400
C 	C 	0.84410 0.57170 0.22610 0.35300
Zn	Zn	0.00000 0.50000 0.60940 1.21700
Zn	Zn	0.50000 0.00000 0.10940 1.20000
Zn	Zn	0.50000 0.00000 0.60940 1.21600
Zn	Zn	-0.00000 0.50000 0.10940 1.20100
