data_crystal

_cell_length_a 23.88220
_cell_length_b 23.88220
_cell_length_c 46.85140
_cell_angle_alpha 90.00000
_cell_angle_beta  90.00000
_cell_angle_gamma 90.00000

_symmetry_space_group_name_	'P 1'
_symmetry_space_group_name_H-M	'P 1'

loop_
_symmetry_equiv_pos_as_xyz
  x,y,z

loop_
_atom_site_label
_atom_site_type_symbol
_atom_site_fract_x
_atom_site_fract_y
_atom_site_fract_z
_atom_site_charge
N 	N 	0.18450 0.81840 0.71729 -0.24000
N 	N 	0.07700 0.80000 0.74844 -0.29100
N 	N 	0.09500 0.91100 0.71789 -0.24200
C 	C 	0.19270 0.76340 0.71865 0.06300
C 	C 	0.20370 0.84470 0.69387 0.07200
C 	C 	0.04100 0.77920 0.75440 0.14300
C 	C 	0.21970 0.73310 0.69729 -0.12300
H 	H 	0.17950 0.74380 0.73500 -0.00800
H 	H 	0.19760 0.88390 0.69240 -0.00600
C 	C 	0.23130 0.81920 0.67229 -0.12600
S 	S 	0.98290 0.74870 0.76440 -0.11600
C 	C 	0.23930 0.76020 0.67320 0.04200
H 	H 	0.22470 0.69380 0.69930 0.06700
H 	H 	0.24510 0.84040 0.65670 0.08400
C 	C 	0.26430 0.72970 0.64866 0.07600
N 	N 	0.27520 0.76080 0.62513 -0.13500
C 	C 	0.27430 0.67260 0.65002 -0.14800
C 	C 	0.29600 0.73430 0.60214 0.07900
C 	C 	0.29600 0.64510 0.62608 0.10100
H 	H 	0.26650 0.65240 0.66700 0.07700
C 	C 	0.30650 0.67750 0.60184 -0.14700
C 	C 	0.30870 0.76970 0.57667 0.04800
C 	C 	0.30640 0.58410 0.62589 -0.08500
H 	H 	0.32080 0.66030 0.58510 0.07400
C 	C 	0.30650 0.82800 0.57765 -0.11700
C 	C 	0.32510 0.74590 0.55129 -0.12400
C 	C 	0.29700 0.55280 0.60102 0.05400
C 	C 	0.32540 0.55650 0.64978 0.05600
H 	H 	0.29370 0.84650 0.59440 0.07800
C 	C 	0.32290 0.85850 0.55435 0.07000
C 	C 	0.34110 0.77930 0.52879 0.06100
H 	H 	0.32540 0.70630 0.54930 0.05800
H 	H 	0.28340 0.57120 0.58440 0.00500
C 	C 	0.30700 0.49610 0.60023 -0.19400
C 	C 	0.33680 0.49890 0.64961 -0.19200
H 	H 	0.33100 0.57710 0.66690 0.01100
N 	N 	0.34090 0.83550 0.52978 -0.23800
H 	H 	0.32150 0.89820 0.55560 -0.00600
H 	H 	0.35300 0.76170 0.51170 -0.01300
H 	H 	0.30040 0.47570 0.58320 0.10300
C 	C 	0.32690 0.46860 0.62453 0.22900
H 	H 	0.35090 0.48080 0.66620 0.09700
Co	Co	0.38181 0.87986 0.49538 1.12200
O 	O 	0.33680 0.41273 0.62167 -0.26100
N 	N 	0.33581 0.82876 0.46492 -0.23800
N 	N 	0.44430 0.81770 0.49592 -0.25500
N 	N 	0.42850 0.92940 0.52607 -0.23600
N 	N 	0.32090 0.94090 0.49248 -0.26500
N 	N 	0.42740 0.92020 0.46100 -0.23800
C 	C 	0.36280 0.38490 0.64492 0.11600
C 	C 	0.28110 0.82120 0.46766 0.06200
C 	C 	0.36070 0.80650 0.44185 0.06100
C 	C 	0.47280 0.78430 0.48520 0.08800
C 	C 	0.45500 0.90360 0.54788 0.06100
C 	C 	0.43030 0.98490 0.52435 0.06700
C 	C 	0.28700 0.97250 0.48527 0.09400
H 	H 	0.33730 0.38420 0.66160 -0.00300
H 	H 	0.39750 0.40480 0.65050 0.00200
C 	C 	0.37640 0.32590 0.63570 -0.20400
C 	C 	0.24900 0.79090 0.44830 -0.12500
H 	H 	0.26290 0.83740 0.48370 -0.01000
H 	H 	0.40000 0.81080 0.43980 -0.00600
C 	C 	0.33160 0.77740 0.42067 -0.12000
S 	S 	0.51630 0.74100 0.47013 -0.08200
C 	C 	0.48270 0.93370 0.56883 -0.11400
H 	H 	0.45460 0.86390 0.54890 -0.00400
H 	H 	0.41250 0.00270 0.50870 -0.00900
C 	C 	0.45710 0.01790 0.54439 -0.12000
S 	S 	0.23797 0.01601 0.47515 -0.07500
H 	H 	0.34150 0.30350 0.63570 0.09200
H 	H 	0.39050 0.32680 0.61580 0.09100
C 	C 	0.41900 0.29720 0.65420 -0.01200
C 	C 	0.27410 0.76950 0.42384 0.04100
H 	H 	0.21030 0.78490 0.45180 0.06600
H 	H 	0.35060 0.76330 0.40440 0.08000
C 	C 	0.48410 0.99230 0.56738 0.04000
H 	H 	0.50070 0.91480 0.58410 0.07800
H 	H 	0.45720 0.05750 0.54250 0.06400
H 	H 	0.42670 0.25990 0.64590 0.02000
H 	H 	0.45420 0.31890 0.65320 0.02700
C 	C 	0.40440 0.28950 0.68470 -0.11900
C 	C 	0.24130 0.74270 0.40037 0.07900
C 	C 	0.51160 0.02540 0.59045 0.08000
H 	H 	0.39230 0.32550 0.69320 0.06100
H 	H 	0.43700 0.27540 0.69550 0.05700
C 	C 	0.35770 0.24790 0.68540 -0.09100
N 	N 	0.26970 0.72960 0.37660 -0.13800
C 	C 	0.18380 0.73280 0.40345 -0.15400
N 	N 	0.52085 0.99690 0.61473 -0.13800
C 	C 	0.52300 0.08180 0.58748 -0.15000
H 	H 	0.32200 0.26560 0.67950 0.05500
H 	H 	0.36570 0.21620 0.67240 0.04900
C 	C 	0.35420 0.22830 0.71540 -0.04500
C 	C 	0.24170 0.70730 0.35490 0.08400
C 	C 	0.15470 0.70920 0.38055 0.11000
H 	H 	0.16510 0.74190 0.42070 0.07800
C 	C 	0.54260 0.02520 0.63686 0.08400
H 	H 	0.51590 0.10040 0.56990 0.07600
C 	C 	0.54510 0.11130 0.61079 0.10400
H 	H 	0.34200 0.25980 0.72760 0.03900
H 	H 	0.39200 0.21660 0.72180 0.03800
C 	C 	0.31360 0.17940 0.71910 -0.18000
C 	C 	0.18450 0.69790 0.35588 -0.15400
C 	C 	0.27630 0.69200 0.32922 0.04800
C 	C 	0.09360 0.69720 0.38215 -0.09900
C 	C 	0.55460 0.08180 0.63564 -0.15200
C 	C 	0.55270 0.99240 0.66292 0.04200
C 	C 	0.55720 0.17210 0.60966 -0.08500
H 	H 	0.32690 0.14620 0.70850 0.07600
H 	H 	0.27580 0.18960 0.71210 0.07800
C 	C 	0.31260 0.16770 0.75120 0.09100
H 	H 	0.16570 0.68380 0.33950 0.07700
C 	C 	0.33260 0.69760 0.32895 -0.11700
C 	C 	0.25080 0.67000 0.30490 -0.12400
C 	C 	0.05970 0.70200 0.35843 0.07200
C 	C 	0.06900 0.68130 0.40755 0.07400
H 	H 	0.56940 0.10040 0.65190 0.07800
C 	C 	0.56910 0.01650 0.68864 -0.11800
C 	C 	0.54920 0.93290 0.66262 -0.11600
C 	C 	0.57500 0.19860 0.58443 0.04600
C 	C 	0.55090 0.20540 0.63403 0.04900
H 	H 	0.32420 0.20080 0.76250 -0.00200
H 	H 	0.33630 0.13520 0.75640 -0.00200
C 	C 	0.24840 0.15500 0.75490 -0.45200
H 	H 	0.35090 0.71420 0.34490 0.07700
C 	C 	0.36440 0.67950 0.30569 0.06400
C 	C 	0.28430 0.65290 0.28292 0.06500
H 	H 	0.21120 0.66700 0.30370 0.06500
H 	H 	0.07550 0.71330 0.34070 0.00200
C 	C 	0.00340 0.69050 0.35996 -0.21300
C 	C 	0.01270 0.66940 0.40967 -0.20800
H 	H 	0.09170 0.67860 0.42420 0.00600
H 	H 	0.57120 0.05610 0.69030 0.06300
C 	C 	0.58230 0.98330 0.71152 0.06300
C 	C 	0.56190 0.90340 0.68697 0.07100
H 	H 	0.53810 0.91380 0.64580 0.07800
H 	H 	0.57980 0.17710 0.56750 0.01000
C 	C 	0.58580 0.25670 0.58390 -0.19700
C 	C 	0.56170 0.26250 0.63370 -0.19600
H 	H 	0.53880 0.18840 0.65130 0.00600
H 	H 	0.24050 0.14590 0.77490 0.15300
H 	H 	0.22640 0.18720 0.74900 0.15600
H 	H 	0.23830 0.12240 0.74300 0.15400
N 	N 	0.34060 0.65650 0.28248 -0.23800
H 	H 	0.40400 0.68350 0.30630 -0.00500
H 	H 	0.26650 0.63730 0.26660 -0.00900
H 	H 	0.98100 0.69370 0.34330 0.11000
C 	C 	0.97930 0.67460 0.38526 0.24400
H 	H 	0.99690 0.65790 0.42730 0.10400
H 	H 	0.59390 0.00100 0.72870 -0.00800
H 	H 	0.55780 0.86390 0.68660 -0.01300
H 	H 	0.59810 0.27430 0.56680 0.08900
C 	C 	0.57830 0.28760 0.60840 0.23100
H 	H 	0.55780 0.28410 0.65060 0.10300
O 	O 	0.92300 0.66490 0.38511 -0.26400
O 	O 	0.58670 0.34390 0.61037 -0.25700
N 	N 	0.42960 0.56500 0.28290 -0.23900
N 	N 	0.45030 0.67340 0.25257 -0.25900
C 	C 	0.89710 0.64840 0.41100 0.11000
C 	C 	0.60290 0.37190 0.58530 0.09700
C 	C 	0.40360 0.54400 0.30536 0.07500
C 	C 	0.48600 0.55960 0.28207 0.05800
C 	C 	0.48300 0.70280 0.26286 0.09200
H 	H 	0.90240 0.67800 0.42550 -0.00000
H 	H 	0.91480 0.61370 0.41810 0.00300
C 	C 	0.83490 0.63850 0.40630 -0.19400
H 	H 	0.57400 0.36770 0.57030 -0.00500
H 	H 	0.63880 0.35690 0.57810 0.00200
C 	C 	0.60940 0.43440 0.59410 -0.16500
C 	C 	0.43010 0.51910 0.32813 -0.12300
H 	H 	0.36390 0.54620 0.30580 -0.01100
H 	H 	0.50560 0.57430 0.26610 -0.00600
C 	C 	0.51620 0.53370 0.30339 -0.11600
S 	S 	0.52852 0.74290 0.27943 -0.07700
H 	H 	0.83030 0.61020 0.39110 0.08600
H 	H 	0.81770 0.67380 0.39950 0.09200
C 	C 	0.80330 0.61870 0.43290 -0.03300
H 	H 	0.57740 0.44540 0.60630 0.09200
H 	H 	0.60860 0.45810 0.57670 0.07100
C 	C 	0.66520 0.44440 0.61040 -0.05400
C 	C 	0.48880 0.51340 0.32774 0.03900
H 	H 	0.40910 0.50600 0.34400 0.07900
H 	H 	0.55570 0.52970 0.30160 0.06300
H 	H 	0.81940 0.58310 0.43990 0.03500
H 	H 	0.80650 0.64700 0.44820 0.03600
C 	C 	0.74290 0.61050 0.42500 -0.11400
H 	H 	0.69410 0.45730 0.59680 0.04400
H 	H 	0.67810 0.40850 0.61880 0.05300
C 	C 	0.65850 0.48920 0.63500 -0.09200
C 	C 	0.51940 0.48930 0.35256 0.08200
H 	H 	0.73840 0.57550 0.41390 0.05300
H 	H 	0.72950 0.64220 0.41320 0.05500
C 	C 	0.70900 0.60710 0.45310 -0.09200
H 	H 	0.62980 0.47590 0.64870 0.06000
H 	H 	0.69440 0.49220 0.64550 0.05700
C 	C 	0.64190 0.54690 0.62420 -0.12000
N 	N 	0.48870 0.47780 0.37548 -0.13700
C 	C 	0.57710 0.48050 0.35158 -0.15200
H 	H 	0.72780 0.63110 0.46740 0.05100
H 	H 	0.71110 0.56810 0.46010 0.05100
C 	C 	0.64560 0.62440 0.45180 -0.07800
H 	H 	0.67070 0.56020 0.61060 0.06300
H 	H 	0.60610 0.54380 0.61360 0.06500
C 	C 	0.63540 0.58900 0.64730 -0.01400
C 	C 	0.51500 0.45710 0.39859 0.08000
H 	H 	0.59730 0.48820 0.33460 0.07800
C 	C 	0.60500 0.46060 0.37550 0.10300
H 	H 	0.64100 0.65520 0.46570 0.04700
H 	H 	0.63970 0.64110 0.43270 0.04900
C 	C 	0.59530 0.58410 0.45680 -0.15600
H 	H 	0.60790 0.57450 0.66130 0.03300
H 	H 	0.67170 0.59280 0.65730 0.03200
C 	C 	0.61710 0.64510 0.63820 -0.20300
C 	C 	0.57180 0.44850 0.39933 -0.14700
C 	C 	0.47820 0.44330 0.42318 0.05100
C 	C 	0.66580 0.44950 0.37547 -0.08800
H 	H 	0.60250 0.58060 0.47750 0.06800
H 	H 	0.61500 0.55130 0.44870 0.06800
C 	C 	0.53660 0.55250 0.45850 0.04700
H 	H 	0.58630 0.64130 0.62420 0.08600
H 	H 	0.64860 0.66450 0.62870 0.08500
C 	C 	0.59620 0.68140 0.66430 0.09500
H 	H 	0.58870 0.43420 0.41620 0.07400
C 	C 	0.50080 0.42250 0.44848 -0.13400
C 	C 	0.42080 0.44850 0.42184 -0.12400
C 	C 	0.69350 0.43240 0.35138 0.05400
C 	C 	0.69740 0.45750 0.40043 0.05200
H 	H 	0.52260 0.55500 0.43870 0.01300
H 	H 	0.54780 0.51290 0.46100 0.00100
C 	C 	0.48160 0.55660 0.47670 -0.43700
H 	H 	0.62610 0.68290 0.67890 -0.00200
H 	H 	0.56310 0.66330 0.67290 -0.00400
C 	C 	0.58050 0.74290 0.65500 -0.46900
H 	H 	0.54020 0.42020 0.45090 0.06400
C 	C 	0.46510 0.40500 0.47009 0.07400
C 	C 	0.38870 0.42910 0.44486 0.06700
H 	H 	0.40340 0.46490 0.40570 0.08000
H 	H 	0.67290 0.42750 0.33420 0.01200
C 	C 	0.75160 0.42190 0.35111 -0.19900
C 	C 	0.75490 0.44810 0.40082 -0.19700
H 	H 	0.67920 0.46950 0.41740 0.00400
H 	H 	0.45510 0.52780 0.47030 0.15100
H 	H 	0.49040 0.55090 0.49690 0.14600
H 	H 	0.46480 0.59370 0.47410 0.14700
H 	H 	0.59610 0.75060 0.63610 0.15900
H 	H 	0.59600 0.76960 0.66880 0.16400
H 	H 	0.53970 0.74680 0.65440 0.16600
H 	H 	0.48130 0.39230 0.48750 -0.02100
H 	H 	0.34920 0.43340 0.44400 -0.01300
H 	H 	0.76950 0.40920 0.33420 0.10000
C 	C 	0.78230 0.43040 0.37623 0.23100
H 	H 	0.77540 0.45370 0.41790 0.10400
O 	O 	0.83810 0.42180 0.37917 -0.26500
C 	C 	0.86650 0.40210 0.35540 0.11900
H 	H 	0.86640 0.43080 0.34020 -0.00400
H 	H 	0.84810 0.36790 0.34800 -0.00000
C 	C 	0.92700 0.38870 0.36430 -0.19200
H 	H 	0.94370 0.42190 0.37360 0.09800
H 	H 	0.92690 0.35760 0.37830 0.09100
C 	C 	0.96220 0.37230 0.33840 -0.04400
H 	H 	0.94180 0.34280 0.32790 0.03700
H 	H 	0.96480 0.40530 0.32570 0.04100
C 	C 	0.01870 0.35230 0.34380 -0.08000
H 	H 	0.03640 0.34660 0.32490 0.04600
H 	H 	0.01500 0.31480 0.35260 0.05200
C 	C 	0.05990 0.38490 0.36180 -0.15000
H 	H 	0.06830 0.42060 0.35200 0.07300
H 	H 	0.04170 0.39420 0.38020 0.07500
C 	C 	0.11110 0.35690 0.36760 0.01700
H 	H 	0.12340 0.34040 0.34920 0.01800
H 	H 	0.10160 0.32520 0.38020 0.02500
C 	C 	0.16250 0.38440 0.38050 -0.23900
H 	H 	0.19540 0.36020 0.37690 0.09400
H 	H 	0.16910 0.42060 0.37070 0.09200
C 	C 	0.15790 0.39490 0.41210 0.15200
H 	H 	0.15020 0.35970 0.42250 -0.02000
H 	H 	0.12770 0.42210 0.41620 -0.01900
C 	C 	0.21580 0.41910 0.42050 -0.51200
H 	H 	0.24370 0.38900 0.42050 0.17400
H 	H 	0.21350 0.43560 0.43960 0.17200
H 	H 	0.22680 0.44790 0.40670 0.17400
N 	N 	0.81550 0.18160 0.21729 -0.24100
N 	N 	0.92300 0.20000 0.24844 -0.29200
N 	N 	0.90500 0.08900 0.21789 -0.24300
C 	C 	0.80730 0.23660 0.21865 0.06300
C 	C 	0.79630 0.15530 0.19387 0.07100
C 	C 	0.95900 0.22080 0.25440 0.14200
C 	C 	0.78030 0.26690 0.19729 -0.12400
H 	H 	0.82050 0.25620 0.23500 -0.00800
H 	H 	0.80240 0.11610 0.19240 -0.00600
C 	C 	0.76870 0.18080 0.17229 -0.12600
S 	S 	0.01710 0.25130 0.26440 -0.11600
C 	C 	0.76070 0.23980 0.17320 0.04200
H 	H 	0.77530 0.30620 0.19930 0.06700
H 	H 	0.75490 0.15960 0.15670 0.08400
C 	C 	0.73570 0.27030 0.14866 0.07600
N 	N 	0.72480 0.23920 0.12513 -0.13500
C 	C 	0.72570 0.32740 0.15002 -0.14800
C 	C 	0.70400 0.26570 0.10214 0.07900
C 	C 	0.70400 0.35490 0.12608 0.10100
H 	H 	0.73350 0.34760 0.16700 0.07700
C 	C 	0.69350 0.32250 0.10184 -0.14700
C 	C 	0.69130 0.23030 0.07667 0.04800
C 	C 	0.69360 0.41590 0.12589 -0.08500
H 	H 	0.67920 0.33970 0.08510 0.07400
C 	C 	0.69350 0.17200 0.07765 -0.11700
C 	C 	0.67490 0.25410 0.05129 -0.12400
C 	C 	0.70300 0.44720 0.10102 0.05400
C 	C 	0.67460 0.44350 0.14978 0.05600
H 	H 	0.70630 0.15350 0.09440 0.07800
C 	C 	0.67710 0.14150 0.05435 0.07000
C 	C 	0.65890 0.22070 0.02879 0.06100
H 	H 	0.67460 0.29370 0.04930 0.05800
H 	H 	0.71660 0.42880 0.08440 0.00500
C 	C 	0.69300 0.50390 0.10023 -0.19400
C 	C 	0.66320 0.50110 0.14961 -0.19200
H 	H 	0.66900 0.42290 0.16690 0.01100
N 	N 	0.65910 0.16450 0.02978 -0.23900
H 	H 	0.67850 0.10180 0.05560 -0.00600
H 	H 	0.64700 0.23830 0.01170 -0.01400
H 	H 	0.69960 0.52430 0.08320 0.10300
C 	C 	0.67310 0.53140 0.12453 0.22900
H 	H 	0.64910 0.51920 0.16620 0.09700
Co	Co	0.61819 0.12014 0.99538 1.12200
O 	O 	0.66320 0.58727 0.12167 -0.26100
N 	N 	0.66419 0.17124 0.96492 -0.23800
N 	N 	0.55570 0.18230 0.99592 -0.25400
N 	N 	0.57150 0.07060 0.02607 -0.23600
N 	N 	0.67910 0.05910 0.99248 -0.26500
N 	N 	0.57260 0.07980 0.96100 -0.23800
C 	C 	0.63720 0.61510 0.14492 0.11600
C 	C 	0.71890 0.17880 0.96766 0.06300
C 	C 	0.63930 0.19350 0.94185 0.06100
C 	C 	0.52720 0.21570 0.98520 0.08800
C 	C 	0.54500 0.09640 0.04788 0.06100
C 	C 	0.56970 0.01510 0.02435 0.06700
C 	C 	0.71300 0.02750 0.98527 0.09500
H 	H 	0.66270 0.61580 0.16160 -0.00300
H 	H 	0.60250 0.59520 0.15050 0.00200
C 	C 	0.62360 0.67410 0.13570 -0.20400
C 	C 	0.75100 0.20910 0.94830 -0.12500
H 	H 	0.73710 0.16260 0.98370 -0.01000
H 	H 	0.60000 0.18920 0.93980 -0.00600
C 	C 	0.66840 0.22260 0.92067 -0.12000
S 	S 	0.48370 0.25900 0.97013 -0.08100
C 	C 	0.51730 0.06630 0.06883 -0.11400
H 	H 	0.54540 0.13610 0.04890 -0.00400
H 	H 	0.58750 0.99730 0.00870 -0.00900
C 	C 	0.54290 0.98210 0.04439 -0.12000
S 	S 	0.76203 0.98399 0.97515 -0.07400
H 	H 	0.65850 0.69650 0.13570 0.09200
H 	H 	0.60950 0.67320 0.11580 0.09100
C 	C 	0.58100 0.70280 0.15420 -0.01200
C 	C 	0.72590 0.23050 0.92384 0.04100
H 	H 	0.78970 0.21510 0.95180 0.06600
H 	H 	0.64940 0.23670 0.90440 0.08000
C 	C 	0.51590 0.00770 0.06738 0.04000
H 	H 	0.49930 0.08520 0.08410 0.07800
H 	H 	0.54280 0.94250 0.04250 0.06400
H 	H 	0.57330 0.74010 0.14590 0.02000
H 	H 	0.54580 0.68110 0.15320 0.02700
C 	C 	0.59560 0.71050 0.18470 -0.11900
C 	C 	0.75870 0.25730 0.90037 0.07900
C 	C 	0.48840 0.97460 0.09045 0.08000
H 	H 	0.60770 0.67450 0.19320 0.06100
H 	H 	0.56300 0.72460 0.19550 0.05700
C 	C 	0.64230 0.75210 0.18540 -0.09100
N 	N 	0.73030 0.27040 0.87660 -0.13800
C 	C 	0.81620 0.26720 0.90345 -0.15400
N 	N 	0.47915 0.00310 0.11473 -0.13800
C 	C 	0.47700 0.91820 0.08748 -0.15000
H 	H 	0.67800 0.73440 0.17950 0.05500
H 	H 	0.63430 0.78380 0.17240 0.04900
C 	C 	0.64580 0.77170 0.21540 -0.04500
C 	C 	0.75830 0.29270 0.85490 0.08400
C 	C 	0.84530 0.29080 0.88055 0.11000
H 	H 	0.83490 0.25810 0.92070 0.07800
C 	C 	0.45740 0.97480 0.13686 0.08400
H 	H 	0.48410 0.89960 0.06990 0.07600
C 	C 	0.45490 0.88870 0.11079 0.10400
H 	H 	0.65800 0.74020 0.22760 0.03900
H 	H 	0.60800 0.78340 0.22180 0.03800
C 	C 	0.68640 0.82060 0.21910 -0.18000
C 	C 	0.81550 0.30210 0.85588 -0.15400
C 	C 	0.72370 0.30800 0.82922 0.04800
C 	C 	0.90640 0.30280 0.88215 -0.09900
C 	C 	0.44540 0.91820 0.13564 -0.15200
C 	C 	0.44730 0.00760 0.16292 0.04200
C 	C 	0.44280 0.82790 0.10966 -0.08500
H 	H 	0.67310 0.85380 0.20850 0.07600
H 	H 	0.72420 0.81040 0.21210 0.07800
C 	C 	0.68740 0.83230 0.25120 0.09100
H 	H 	0.83430 0.31620 0.83950 0.07700
C 	C 	0.66740 0.30240 0.82895 -0.11700
C 	C 	0.74920 0.33000 0.80490 -0.12400
C 	C 	0.94030 0.29800 0.85843 0.07200
C 	C 	0.93100 0.31870 0.90755 0.07400
H 	H 	0.43060 0.89960 0.15190 0.07800
C 	C 	0.43090 0.98350 0.18864 -0.11800
C 	C 	0.45080 0.06710 0.16262 -0.11600
C 	C 	0.42500 0.80140 0.08443 0.04600
C 	C 	0.44910 0.79460 0.13403 0.04900
H 	H 	0.67580 0.79920 0.26250 -0.00200
H 	H 	0.66370 0.86480 0.25640 -0.00200
C 	C 	0.75160 0.84500 0.25490 -0.45200
H 	H 	0.64910 0.28580 0.84490 0.07700
C 	C 	0.63560 0.32050 0.80569 0.06400
C 	C 	0.71570 0.34710 0.78292 0.06500
H 	H 	0.78880 0.33300 0.80370 0.06500
H 	H 	0.92450 0.28670 0.84070 0.00200
C 	C 	0.99660 0.30950 0.85996 -0.21300
C 	C 	0.98730 0.33060 0.90967 -0.20800
H 	H 	0.90830 0.32140 0.92420 0.00600
H 	H 	0.42880 0.94390 0.19030 0.06300
C 	C 	0.41770 0.01670 0.21152 0.06300
C 	C 	0.43810 0.09660 0.18697 0.07100
H 	H 	0.46190 0.08620 0.14580 0.07800
H 	H 	0.42020 0.82290 0.06750 0.01000
C 	C 	0.41420 0.74330 0.08390 -0.19700
C 	C 	0.43830 0.73750 0.13370 -0.19600
H 	H 	0.46120 0.81160 0.15130 0.00600
H 	H 	0.75950 0.85410 0.27490 0.15300
H 	H 	0.77360 0.81280 0.24900 0.15600
H 	H 	0.76170 0.87760 0.24300 0.15400
N 	N 	0.65940 0.34350 0.78248 -0.23800
H 	H 	0.59600 0.31650 0.80630 -0.00500
H 	H 	0.73350 0.36270 0.76660 -0.00900
H 	H 	0.01900 0.30630 0.84330 0.11000
C 	C 	0.02070 0.32540 0.88526 0.24400
H 	H 	0.00310 0.34210 0.92730 0.10400
H 	H 	0.40610 0.99900 0.22870 -0.00800
H 	H 	0.44220 0.13610 0.18660 -0.01300
H 	H 	0.40190 0.72570 0.06680 0.08800
C 	C 	0.42170 0.71240 0.10840 0.23000
H 	H 	0.44220 0.71590 0.15060 0.10300
O 	O 	0.07700 0.33510 0.88511 -0.26400
O 	O 	0.41330 0.65610 0.11037 -0.25700
N 	N 	0.57040 0.43500 0.78290 -0.23900
N 	N 	0.54970 0.32660 0.75257 -0.25900
C 	C 	0.10290 0.35160 0.91100 0.10900
C 	C 	0.39710 0.62810 0.08530 0.09800
C 	C 	0.59640 0.45600 0.80536 0.07500
C 	C 	0.51400 0.44040 0.78207 0.05800
C 	C 	0.51700 0.29720 0.76286 0.09200
H 	H 	0.09760 0.32200 0.92550 0.00000
H 	H 	0.08520 0.38630 0.91810 0.00300
C 	C 	0.16510 0.36150 0.90630 -0.19300
H 	H 	0.42600 0.63230 0.07030 -0.00600
H 	H 	0.36120 0.64310 0.07810 0.00200
C 	C 	0.39060 0.56560 0.09410 -0.16600
C 	C 	0.56990 0.48090 0.82813 -0.12300
H 	H 	0.63610 0.45380 0.80580 -0.01100
H 	H 	0.49440 0.42570 0.76610 -0.00600
C 	C 	0.48380 0.46630 0.80339 -0.11600
S 	S 	0.47148 0.25710 0.77943 -0.07700
H 	H 	0.16970 0.38980 0.89110 0.08600
H 	H 	0.18230 0.32620 0.89950 0.09200
C 	C 	0.19670 0.38130 0.93290 -0.03300
H 	H 	0.42260 0.55460 0.10630 0.09200
H 	H 	0.39140 0.54190 0.07670 0.07100
C 	C 	0.33480 0.55560 0.11040 -0.05400
C 	C 	0.51120 0.48660 0.82774 0.03900
H 	H 	0.59090 0.49400 0.84400 0.07900
H 	H 	0.44430 0.47030 0.80160 0.06300
H 	H 	0.18060 0.41690 0.93990 0.03500
H 	H 	0.19350 0.35300 0.94820 0.03600
C 	C 	0.25710 0.38950 0.92500 -0.11300
H 	H 	0.30590 0.54270 0.09680 0.04400
H 	H 	0.32190 0.59150 0.11880 0.05300
C 	C 	0.34150 0.51080 0.13500 -0.09200
C 	C 	0.48060 0.51070 0.85256 0.08200
H 	H 	0.26160 0.42450 0.91390 0.05300
H 	H 	0.27050 0.35780 0.91320 0.05500
C 	C 	0.29100 0.39290 0.95310 -0.09300
H 	H 	0.37020 0.52410 0.14870 0.06000
H 	H 	0.30560 0.50780 0.14550 0.05700
C 	C 	0.35810 0.45310 0.12420 -0.12000
N 	N 	0.51130 0.52220 0.87548 -0.13700
C 	C 	0.42290 0.51950 0.85158 -0.15200
H 	H 	0.27220 0.36890 0.96740 0.05100
H 	H 	0.28890 0.43190 0.96010 0.05100
C 	C 	0.35440 0.37560 0.95180 -0.07800
H 	H 	0.32930 0.43980 0.11060 0.06300
H 	H 	0.39390 0.45620 0.11360 0.06500
C 	C 	0.36460 0.41100 0.14730 -0.01400
C 	C 	0.48500 0.54290 0.89859 0.08000
H 	H 	0.40270 0.51180 0.83460 0.07800
C 	C 	0.39500 0.53940 0.87550 0.10300
H 	H 	0.35900 0.34480 0.96570 0.04700
H 	H 	0.36030 0.35890 0.93270 0.04900
C 	C 	0.40470 0.41590 0.95680 -0.15600
H 	H 	0.39210 0.42550 0.16130 0.03300
H 	H 	0.32830 0.40720 0.15730 0.03200
C 	C 	0.38290 0.35490 0.13820 -0.20300
C 	C 	0.42820 0.55150 0.89933 -0.14700
C 	C 	0.52180 0.55670 0.92318 0.05100
C 	C 	0.33420 0.55050 0.87547 -0.08800
H 	H 	0.39750 0.41940 0.97750 0.06800
H 	H 	0.38500 0.44870 0.94870 0.06800
C 	C 	0.46340 0.44750 0.95850 0.04800
H 	H 	0.41370 0.35870 0.12420 0.08600
H 	H 	0.35140 0.33550 0.12870 0.08500
C 	C 	0.40380 0.31860 0.16430 0.09500
H 	H 	0.41130 0.56580 0.91620 0.07400
C 	C 	0.49920 0.57750 0.94848 -0.13300
C 	C 	0.57920 0.55150 0.92184 -0.12300
C 	C 	0.30650 0.56760 0.85138 0.05400
C 	C 	0.30260 0.54250 0.90043 0.05200
H 	H 	0.47740 0.44500 0.93870 0.01300
H 	H 	0.45220 0.48710 0.96100 0.00100
C 	C 	0.51840 0.44340 0.97670 -0.43900
H 	H 	0.37390 0.31710 0.17890 -0.00200
H 	H 	0.43690 0.33670 0.17290 -0.00400
C 	C 	0.41950 0.25710 0.15500 -0.46900
H 	H 	0.45980 0.57980 0.95090 0.06400
C 	C 	0.53490 0.59500 0.97009 0.07400
C 	C 	0.61130 0.57090 0.94486 0.06700
H 	H 	0.59660 0.53510 0.90570 0.08000
H 	H 	0.32710 0.57250 0.83420 0.01200
C 	C 	0.24840 0.57810 0.85111 -0.19900
C 	C 	0.24510 0.55190 0.90082 -0.19700
H 	H 	0.32080 0.53050 0.91740 0.00400
H 	H 	0.54490 0.47220 0.97030 0.15200
H 	H 	0.50960 0.44910 0.99690 0.14800
H 	H 	0.53520 0.40630 0.97410 0.14800
H 	H 	0.40390 0.24940 0.13610 0.15900
H 	H 	0.40400 0.23040 0.16880 0.16400
H 	H 	0.46030 0.25320 0.15440 0.16600
H 	H 	0.51870 0.60770 0.98750 -0.02000
H 	H 	0.65080 0.56660 0.94400 -0.01200
H 	H 	0.23050 0.59080 0.83420 0.10000
C 	C 	0.21770 0.56960 0.87623 0.23100
H 	H 	0.22460 0.54630 0.91790 0.10400
O 	O 	0.16190 0.57820 0.87917 -0.26500
C 	C 	0.13350 0.59790 0.85540 0.11900
H 	H 	0.13360 0.56920 0.84020 -0.00400
H 	H 	0.15190 0.63210 0.84800 -0.00000
C 	C 	0.07300 0.61130 0.86430 -0.19200
H 	H 	0.05630 0.57810 0.87360 0.09800
H 	H 	0.07310 0.64240 0.87830 0.09100
C 	C 	0.03780 0.62770 0.83840 -0.04400
H 	H 	0.05820 0.65720 0.82790 0.03700
H 	H 	0.03520 0.59470 0.82570 0.04100
C 	C 	0.98130 0.64770 0.84380 -0.08000
H 	H 	0.96360 0.65340 0.82490 0.04600
H 	H 	0.98500 0.68520 0.85260 0.05200
C 	C 	0.94010 0.61510 0.86180 -0.15000
H 	H 	0.93170 0.57940 0.85200 0.07300
H 	H 	0.95830 0.60580 0.88020 0.07500
C 	C 	0.88890 0.64310 0.86760 0.01700
H 	H 	0.87660 0.65960 0.84920 0.01800
H 	H 	0.89840 0.67480 0.88020 0.02500
C 	C 	0.83750 0.61560 0.88050 -0.23900
H 	H 	0.80460 0.63980 0.87690 0.09400
H 	H 	0.83090 0.57940 0.87070 0.09200
C 	C 	0.84210 0.60510 0.91210 0.15200
H 	H 	0.84980 0.64030 0.92250 -0.02000
H 	H 	0.87230 0.57790 0.91620 -0.01900
C 	C 	0.78420 0.58090 0.92050 -0.51300
H 	H 	0.75630 0.61100 0.92050 0.17400
H 	H 	0.78650 0.56440 0.93960 0.17200
H 	H 	0.77320 0.55210 0.90670 0.17400
N 	N 	0.68160 0.68450 0.96729 -0.24100
N 	N 	0.70000 0.57700 0.99844 -0.29000
N 	N 	0.58900 0.59500 0.96789 -0.24300
C 	C 	0.73660 0.69270 0.96865 0.06300
C 	C 	0.65530 0.70370 0.94387 0.07100
C 	C 	0.72080 0.54100 0.00440 0.14000
C 	C 	0.76690 0.71970 0.94729 -0.12400
H 	H 	0.75620 0.67950 0.98500 -0.00700
H 	H 	0.61610 0.69760 0.94240 -0.00600
C 	C 	0.68080 0.73130 0.92229 -0.12600
S 	S 	0.75130 0.48290 0.01440 -0.11500
C 	C 	0.73980 0.73930 0.92320 0.04200
H 	H 	0.80620 0.72470 0.94930 0.06700
H 	H 	0.65960 0.74510 0.90670 0.08400
C 	C 	0.77030 0.76430 0.89866 0.07600
N 	N 	0.73920 0.77520 0.87513 -0.13500
C 	C 	0.82740 0.77430 0.90002 -0.14800
C 	C 	0.76570 0.79600 0.85214 0.07900
C 	C 	0.85490 0.79600 0.87608 0.10100
H 	H 	0.84760 0.76650 0.91700 0.07700
C 	C 	0.82250 0.80650 0.85184 -0.14700
C 	C 	0.73030 0.80870 0.82667 0.04800
C 	C 	0.91590 0.80640 0.87589 -0.08500
H 	H 	0.83970 0.82080 0.83510 0.07400
C 	C 	0.67200 0.80650 0.82765 -0.11700
C 	C 	0.75410 0.82510 0.80129 -0.12400
C 	C 	0.94720 0.79700 0.85102 0.05400
C 	C 	0.94350 0.82540 0.89978 0.05500
H 	H 	0.65350 0.79370 0.84440 0.07800
C 	C 	0.64150 0.82290 0.80435 0.07000
C 	C 	0.72070 0.84110 0.77879 0.06100
H 	H 	0.79370 0.82540 0.79930 0.05800
H 	H 	0.92880 0.78340 0.83440 0.00500
C 	C 	0.00390 0.80700 0.85023 -0.19300
C 	C 	0.00110 0.83680 0.89961 -0.19100
H 	H 	0.92290 0.83100 0.91690 0.01100
N 	N 	0.66450 0.84090 0.77978 -0.23800
H 	H 	0.60180 0.82150 0.80560 -0.00600
H 	H 	0.73830 0.85300 0.76170 -0.01300
H 	H 	0.02430 0.80040 0.83320 0.10300
C 	C 	0.03140 0.82690 0.87453 0.22900
H 	H 	0.01920 0.85090 0.91620 0.09700
Co	Co	0.62014 0.88181 0.74538 1.12200
O 	O 	0.08727 0.83680 0.87167 -0.26100
N 	N 	0.67124 0.83581 0.71492 -0.23800
N 	N 	0.68230 0.94430 0.74592 -0.25500
N 	N 	0.57060 0.92850 0.77607 -0.23600
N 	N 	0.55910 0.82090 0.74248 -0.26500
N 	N 	0.57980 0.92740 0.71100 -0.23800
C 	C 	0.11510 0.86280 0.89492 0.11600
C 	C 	0.67880 0.78110 0.71766 0.06200
C 	C 	0.69350 0.86070 0.69185 0.06100
C 	C 	0.71570 0.97280 0.73520 0.08700
C 	C 	0.59640 0.95500 0.79788 0.06100
C 	C 	0.51510 0.93030 0.77435 0.06800
C 	C 	0.52750 0.78700 0.73527 0.09400
H 	H 	0.11580 0.83730 0.91160 -0.00300
H 	H 	0.09520 0.89750 0.90050 0.00200
C 	C 	0.17410 0.87640 0.88570 -0.20400
C 	C 	0.70910 0.74900 0.69830 -0.12500
H 	H 	0.66260 0.76290 0.73370 -0.01000
H 	H 	0.68920 0.90000 0.68980 -0.00600
C 	C 	0.72260 0.83160 0.67067 -0.12000
S 	S 	0.75900 0.01630 0.72013 -0.08200
C 	C 	0.56630 0.98270 0.81883 -0.11400
H 	H 	0.63610 0.95460 0.79890 -0.00400
H 	H 	0.49730 0.91250 0.75870 -0.00900
C 	C 	0.48210 0.95710 0.79439 -0.12100
S 	S 	0.48399 0.73797 0.72515 -0.07500
H 	H 	0.19650 0.84150 0.88570 0.09200
H 	H 	0.17320 0.89050 0.86580 0.09100
C 	C 	0.20280 0.91900 0.90420 -0.01200
C 	C 	0.73050 0.77410 0.67384 0.04100
H 	H 	0.71510 0.71030 0.70180 0.06600
H 	H 	0.73670 0.85060 0.65440 0.08000
C 	C 	0.50770 0.98410 0.81738 0.04000
H 	H 	0.58520 0.00070 0.83410 0.07800
H 	H 	0.44250 0.95720 0.79250 0.06400
H 	H 	0.24010 0.92670 0.89590 0.02000
H 	H 	0.18110 0.95420 0.90320 0.02700
C 	C 	0.21050 0.90440 0.93470 -0.12000
C 	C 	0.75730 0.74130 0.65037 0.07900
C 	C 	0.47460 0.01160 0.84045 0.07900
H 	H 	0.17450 0.89230 0.94320 0.06100
H 	H 	0.22460 0.93700 0.94550 0.05800
C 	C 	0.25210 0.85770 0.93540 -0.09000
N 	N 	0.77040 0.76970 0.62660 -0.13800
C 	C 	0.76720 0.68380 0.65345 -0.15400
N 	N 	0.50310 0.02085 0.86473 -0.13700
C 	C 	0.41820 0.02300 0.83748 -0.15000
H 	H 	0.23440 0.82200 0.92950 0.05500
H 	H 	0.28380 0.86570 0.92240 0.04900
C 	C 	0.27170 0.85420 0.96540 -0.04600
C 	C 	0.79270 0.74170 0.60490 0.08400
C 	C 	0.79080 0.65470 0.63055 0.11000
H 	H 	0.75810 0.66510 0.67070 0.07800
C 	C 	0.47480 0.04260 0.88686 0.08400
H 	H 	0.39960 0.01590 0.81990 0.07600
C 	C 	0.38870 0.04510 0.86079 0.10300
H 	H 	0.24020 0.84200 0.97760 0.04000
H 	H 	0.28340 0.89200 0.97180 0.03900
C 	C 	0.32060 0.81360 0.96910 -0.18000
C 	C 	0.80210 0.68450 0.60588 -0.15400
C 	C 	0.80800 0.77630 0.57922 0.04800
C 	C 	0.80280 0.59360 0.63215 -0.10000
C 	C 	0.41820 0.05460 0.88564 -0.15200
C 	C 	0.50760 0.05270 0.91292 0.04200
C 	C 	0.32790 0.05720 0.85966 -0.08500
H 	H 	0.35380 0.82690 0.95850 0.07700
H 	H 	0.31040 0.77580 0.96210 0.07800
C 	C 	0.33230 0.81260 0.00120 0.09400
H 	H 	0.81620 0.66570 0.58950 0.07800
C 	C 	0.80240 0.83260 0.57895 -0.11700
C 	C 	0.83000 0.75080 0.55490 -0.12400
C 	C 	0.79800 0.55970 0.60843 0.07300
C 	C 	0.81870 0.56900 0.65755 0.07500
H 	H 	0.39960 0.06940 0.90190 0.07800
C 	C 	0.48350 0.06910 0.93864 -0.11900
C 	C 	0.56710 0.04920 0.91262 -0.11600
C 	C 	0.30140 0.07500 0.83443 0.04600
C 	C 	0.29460 0.05090 0.88403 0.04900
H 	H 	0.29920 0.82420 0.01250 -0.00400
H 	H 	0.36480 0.83630 0.00640 -0.00400
C 	C 	0.34500 0.74840 0.00490 -0.46300
H 	H 	0.78580 0.85090 0.59490 0.07700
C 	C 	0.82050 0.86440 0.55569 0.06400
C 	C 	0.84710 0.78430 0.53292 0.06500
H 	H 	0.83300 0.71120 0.55370 0.06500
H 	H 	0.78670 0.57550 0.59070 0.00200
C 	C 	0.80950 0.50340 0.60996 -0.21500
C 	C 	0.83060 0.51270 0.65967 -0.21000
H 	H 	0.82140 0.59170 0.67420 0.00500
H 	H 	0.44390 0.07120 0.94030 0.06300
C 	C 	0.51670 0.08230 0.96152 0.06400
C 	C 	0.59660 0.06190 0.93697 0.07100
H 	H 	0.58620 0.03810 0.89580 0.07900
H 	H 	0.32290 0.07980 0.81750 0.01000
C 	C 	0.24330 0.08580 0.83390 -0.19700
C 	C 	0.23750 0.06170 0.88370 -0.19600
H 	H 	0.31160 0.03880 0.90130 0.00600
H 	H 	0.35410 0.74050 0.02490 0.15600
H 	H 	0.31280 0.72640 0.99900 0.16000
H 	H 	0.37760 0.73830 0.99300 0.15800
N 	N 	0.84350 0.84060 0.53248 -0.23800
H 	H 	0.81650 0.90400 0.55630 -0.00500
H 	H 	0.86270 0.76650 0.51660 -0.00900
H 	H 	0.80630 0.48100 0.59330 0.11100
C 	C 	0.82540 0.47930 0.63526 0.24500
H 	H 	0.84210 0.49690 0.67730 0.10500
H 	H 	0.49900 0.09390 0.97870 -0.00800
H 	H 	0.63610 0.05780 0.93660 -0.01300
H 	H 	0.22570 0.09810 0.81680 0.08900
C 	C 	0.21240 0.07830 0.85840 0.23000
H 	H 	0.21590 0.05780 0.90060 0.10300
O 	O 	0.83510 0.42300 0.63511 -0.26400
O 	O 	0.15610 0.08670 0.86037 -0.25700
N 	N 	0.93500 0.92960 0.53290 -0.23800
N 	N 	0.82660 0.95030 0.50257 -0.25900
C 	C 	0.85160 0.39710 0.66100 0.11000
C 	C 	0.12810 0.10290 0.83530 0.09800
C 	C 	0.95600 0.90360 0.55536 0.07400
C 	C 	0.94040 0.98600 0.53207 0.05500
C 	C 	0.79720 0.98300 0.51286 0.09100
H 	H 	0.82200 0.40240 0.67550 -0.00000
H 	H 	0.88630 0.41480 0.66810 0.00200
C 	C 	0.86150 0.33490 0.65630 -0.19400
H 	H 	0.13230 0.07400 0.82030 -0.00600
H 	H 	0.14310 0.13880 0.82810 0.00200
C 	C 	0.06560 0.10940 0.84410 -0.16600
C 	C 	0.98090 0.93010 0.57813 -0.12200
H 	H 	0.95380 0.86390 0.55580 -0.01100
H 	H 	0.92570 0.00560 0.51610 -0.00500
C 	C 	0.96630 0.01620 0.55339 -0.11300
S 	S 	0.75710 0.02852 0.52943 -0.07700
H 	H 	0.88980 0.33030 0.64110 0.08600
H 	H 	0.82620 0.31770 0.64950 0.09200
C 	C 	0.88130 0.30330 0.68290 -0.03300
H 	H 	0.05460 0.07740 0.85630 0.09200
H 	H 	0.04190 0.10860 0.82670 0.07100
C 	C 	0.05560 0.16520 0.86040 -0.05400
C 	C 	0.98660 0.98880 0.57774 0.03700
H 	H 	0.99400 0.90910 0.59400 0.07800
H 	H 	0.97030 0.05570 0.55160 0.06200
H 	H 	0.91690 0.31940 0.68990 0.03500
H 	H 	0.85300 0.30650 0.69820 0.03600
C 	C 	0.88950 0.24290 0.67500 -0.11400
H 	H 	0.04270 0.19410 0.84680 0.04400
H 	H 	0.09150 0.17810 0.86880 0.05300
C 	C 	0.01080 0.15850 0.88500 -0.09300
C 	C 	0.01070 0.01940 0.60256 0.08200
H 	H 	0.92450 0.23840 0.66390 0.05300
H 	H 	0.85780 0.22950 0.66320 0.05500
C 	C 	0.89290 0.20900 0.70310 -0.09200
H 	H 	0.02410 0.12980 0.89870 0.06100
H 	H 	0.00780 0.19440 0.89550 0.05700
C 	C 	0.95310 0.14190 0.87420 -0.12000
N 	N 	0.02220 0.98870 0.62548 -0.13700
C 	C 	0.01950 0.07710 0.60158 -0.15200
H 	H 	0.86890 0.22780 0.71740 0.05100
H 	H 	0.93190 0.21110 0.71010 0.05100
C 	C 	0.87560 0.14560 0.70180 -0.07800
H 	H 	0.93980 0.17070 0.86060 0.06300
H 	H 	0.95620 0.10610 0.86360 0.06500
C 	C 	0.91100 0.13540 0.89730 -0.01500
C 	C 	0.04290 0.01500 0.64859 0.07900
H 	H 	0.01180 0.09730 0.58460 0.07800
C 	C 	0.03940 0.10500 0.62550 0.10300
H 	H 	0.84480 0.14100 0.71570 0.04700
H 	H 	0.85890 0.13970 0.68270 0.04900
C 	C 	0.91590 0.09530 0.70680 -0.15600
H 	H 	0.92550 0.10790 0.91130 0.03300
H 	H 	0.90720 0.17170 0.90730 0.03200
C 	C 	0.85490 0.11710 0.88820 -0.20300
C 	C 	0.05150 0.07180 0.64933 -0.14700
C 	C 	0.05670 0.97820 0.67318 0.05200
C 	C 	0.05050 0.16580 0.62547 -0.08800
H 	H 	0.91940 0.10250 0.72750 0.06800
H 	H 	0.94870 0.11500 0.69870 0.06800
C 	C 	0.94750 0.03660 0.70850 0.04700
H 	H 	0.85870 0.08630 0.87420 0.08600
H 	H 	0.83550 0.14860 0.87870 0.08500
C 	C 	0.81860 0.09620 0.91430 0.09500
H 	H 	0.06580 0.08870 0.66620 0.07400
C 	C 	0.07750 0.00080 0.69848 -0.13500
C 	C 	0.05150 0.92080 0.67184 -0.12400
C 	C 	0.06760 0.19350 0.60138 0.05400
C 	C 	0.04250 0.19740 0.65043 0.05100
H 	H 	0.94500 0.02260 0.68870 0.01300
H 	H 	0.98710 0.04780 0.71100 0.00100
C 	C 	0.94340 0.98160 0.72670 -0.43800
H 	H 	0.81710 0.12610 0.92890 -0.00100
H 	H 	0.83670 0.06310 0.92290 -0.00300
C 	C 	0.75710 0.08050 0.90500 -0.46900
H 	H 	0.07980 0.04020 0.70090 0.06400
C 	C 	0.09500 0.96510 0.72009 0.07500
C 	C 	0.07090 0.88870 0.69486 0.06700
H 	H 	0.03510 0.90340 0.65570 0.08000
H 	H 	0.07250 0.17290 0.58420 0.01200
C 	C 	0.07810 0.25160 0.60111 -0.19900
C 	C 	0.05190 0.25490 0.65082 -0.19700
H 	H 	0.03050 0.17920 0.66740 0.00400
H 	H 	0.97220 0.95510 0.72030 0.15100
H 	H 	0.94910 0.99040 0.74690 0.14600
H 	H 	0.90630 0.96480 0.72410 0.14700
H 	H 	0.74940 0.09610 0.88610 0.15900
H 	H 	0.73040 0.09600 0.91880 0.16400
H 	H 	0.75320 0.03970 0.90440 0.16600
H 	H 	0.10770 0.98130 0.73750 -0.02100
H 	H 	0.06660 0.84920 0.69400 -0.01300
H 	H 	0.09080 0.26950 0.58420 0.10000
C 	C 	0.06960 0.28230 0.62623 0.23100
H 	H 	0.04630 0.27540 0.66790 0.10400
O 	O 	0.07820 0.33810 0.62917 -0.26500
C 	C 	0.09790 0.36650 0.60540 0.11900
H 	H 	0.06920 0.36640 0.59020 -0.00400
H 	H 	0.13210 0.34810 0.59800 -0.00000
C 	C 	0.11130 0.42700 0.61430 -0.19200
H 	H 	0.07810 0.44370 0.62360 0.09800
H 	H 	0.14240 0.42690 0.62830 0.09100
C 	C 	0.12770 0.46220 0.58840 -0.04400
H 	H 	0.15720 0.44180 0.57790 0.03700
H 	H 	0.09470 0.46480 0.57570 0.04100
C 	C 	0.14770 0.51870 0.59380 -0.08000
H 	H 	0.15340 0.53640 0.57490 0.04600
H 	H 	0.18520 0.51500 0.60260 0.05200
C 	C 	0.11510 0.55990 0.61180 -0.15000
H 	H 	0.07940 0.56830 0.60200 0.07300
H 	H 	0.10580 0.54170 0.63020 0.07500
C 	C 	0.14310 0.61110 0.61760 0.01700
H 	H 	0.15960 0.62340 0.59920 0.01800
H 	H 	0.17480 0.60160 0.63020 0.02500
C 	C 	0.11560 0.66250 0.63050 -0.23900
H 	H 	0.13980 0.69540 0.62690 0.09400
H 	H 	0.07940 0.66910 0.62070 0.09200
C 	C 	0.10510 0.65790 0.66210 0.15200
H 	H 	0.14030 0.65020 0.67250 -0.02000
H 	H 	0.07790 0.62770 0.66620 -0.01900
C 	C 	0.08090 0.71580 0.67050 -0.51200
H 	H 	0.11100 0.74370 0.67050 0.17400
H 	H 	0.06440 0.71350 0.68960 0.17200
H 	H 	0.05210 0.72680 0.65670 0.17400
N 	N 	0.31840 0.31550 0.46729 -0.24100
N 	N 	0.30000 0.42300 0.49844 -0.29200
N 	N 	0.41100 0.40500 0.46789 -0.24300
C 	C 	0.26340 0.30730 0.46865 0.06300
C 	C 	0.34470 0.29630 0.44387 0.07100
C 	C 	0.27920 0.45900 0.50440 0.14200
C 	C 	0.23310 0.28030 0.44729 -0.12400
H 	H 	0.24380 0.32050 0.48500 -0.00800
H 	H 	0.38390 0.30240 0.44240 -0.00600
C 	C 	0.31920 0.26870 0.42229 -0.12600
S 	S 	0.24870 0.51710 0.51440 -0.11600
C 	C 	0.26020 0.26070 0.42320 0.04200
H 	H 	0.19380 0.27530 0.44930 0.06700
H 	H 	0.34040 0.25490 0.40670 0.08400
C 	C 	0.22970 0.23570 0.39866 0.07600
N 	N 	0.26080 0.22480 0.37513 -0.13500
C 	C 	0.17260 0.22570 0.40002 -0.14800
C 	C 	0.23430 0.20400 0.35214 0.07900
C 	C 	0.14510 0.20400 0.37608 0.10100
H 	H 	0.15240 0.23350 0.41700 0.07700
C 	C 	0.17750 0.19350 0.35184 -0.14700
C 	C 	0.26970 0.19130 0.32667 0.04800
C 	C 	0.08410 0.19360 0.37589 -0.08500
H 	H 	0.16030 0.17920 0.33510 0.07400
C 	C 	0.32800 0.19350 0.32765 -0.11700
C 	C 	0.24590 0.17490 0.30129 -0.12400
C 	C 	0.05280 0.20300 0.35102 0.05400
C 	C 	0.05650 0.17460 0.39978 0.05500
H 	H 	0.34650 0.20630 0.34440 0.07800
C 	C 	0.35850 0.17710 0.30435 0.07000
C 	C 	0.27930 0.15890 0.27879 0.06100
H 	H 	0.20630 0.17460 0.29930 0.05800
H 	H 	0.07120 0.21660 0.33440 0.00500
C 	C 	0.99610 0.19300 0.35023 -0.19300
C 	C 	0.99890 0.16320 0.39961 -0.19100
H 	H 	0.07710 0.16900 0.41690 0.01100
N 	N 	0.33550 0.15910 0.27978 -0.23800
H 	H 	0.39820 0.17850 0.30560 -0.00600
H 	H 	0.26170 0.14700 0.26170 -0.01300
H 	H 	0.97570 0.19960 0.33320 0.10300
C 	C 	0.96860 0.17310 0.37453 0.22900
H 	H 	0.98080 0.14910 0.41620 0.09700
Co	Co	0.37986 0.11819 0.24538 1.12200
O 	O 	0.91273 0.16320 0.37167 -0.26100
N 	N 	0.32876 0.16419 0.21492 -0.23800
N 	N 	0.31770 0.05570 0.24592 -0.25500
N 	N 	0.42940 0.07150 0.27607 -0.23600
N 	N 	0.44090 0.17910 0.24248 -0.26500
N 	N 	0.42020 0.07260 0.21100 -0.23800
C 	C 	0.88490 0.13720 0.39492 0.11600
C 	C 	0.32120 0.21890 0.21766 0.06200
C 	C 	0.30650 0.13930 0.19185 0.06100
C 	C 	0.28430 0.02720 0.23520 0.08700
C 	C 	0.40360 0.04500 0.29788 0.06100
C 	C 	0.48490 0.06970 0.27435 0.06800
C 	C 	0.47250 0.21300 0.23527 0.09400
H 	H 	0.88420 0.16270 0.41160 -0.00300
H 	H 	0.90480 0.10250 0.40050 0.00200
C 	C 	0.82590 0.12360 0.38570 -0.20400
C 	C 	0.29090 0.25100 0.19830 -0.12500
H 	H 	0.33740 0.23710 0.23370 -0.01000
H 	H 	0.31080 0.10000 0.18980 -0.00600
C 	C 	0.27740 0.16840 0.17067 -0.12000
S 	S 	0.24100 0.98370 0.22013 -0.08100
C 	C 	0.43370 0.01730 0.31883 -0.11400
H 	H 	0.36390 0.04540 0.29890 -0.00400
H 	H 	0.50270 0.08750 0.25870 -0.00900
C 	C 	0.51790 0.04290 0.29439 -0.12100
S 	S 	0.51601 0.26203 0.22515 -0.07500
H 	H 	0.80350 0.15850 0.38570 0.09200
H 	H 	0.82680 0.10950 0.36580 0.09100
C 	C 	0.79720 0.08100 0.40420 -0.01200
C 	C 	0.26950 0.22590 0.17384 0.04100
H 	H 	0.28490 0.28970 0.20180 0.06600
H 	H 	0.26330 0.14940 0.15440 0.08000
C 	C 	0.49230 0.01590 0.31738 0.04000
H 	H 	0.41480 0.99930 0.33410 0.07800
H 	H 	0.55750 0.04280 0.29250 0.06400
H 	H 	0.75990 0.07330 0.39590 0.02000
H 	H 	0.81890 0.04580 0.40320 0.02700
C 	C 	0.78950 0.09560 0.43470 -0.11900
C 	C 	0.24270 0.25870 0.15037 0.07900
C 	C 	0.52540 0.98840 0.34045 0.07900
H 	H 	0.82550 0.10770 0.44320 0.06100
H 	H 	0.77540 0.06300 0.44550 0.05700
C 	C 	0.74790 0.14230 0.43540 -0.09100
N 	N 	0.22960 0.23030 0.12660 -0.13800
C 	C 	0.23280 0.31620 0.15345 -0.15400
N 	N 	0.49690 0.97915 0.36473 -0.13700
C 	C 	0.58180 0.97700 0.33748 -0.15000
H 	H 	0.76560 0.17800 0.42950 0.05500
H 	H 	0.71620 0.13430 0.42240 0.04900
C 	C 	0.72830 0.14580 0.46540 -0.04500
C 	C 	0.20730 0.25830 0.10490 0.08400
C 	C 	0.20920 0.34530 0.13055 0.11000
H 	H 	0.24190 0.33490 0.17070 0.07800
C 	C 	0.52520 0.95740 0.38686 0.08400
H 	H 	0.60040 0.98410 0.31990 0.07600
C 	C 	0.61130 0.95490 0.36079 0.10300
H 	H 	0.75980 0.15800 0.47760 0.03900
H 	H 	0.71660 0.10800 0.47180 0.03800
C 	C 	0.67940 0.18640 0.46910 -0.18000
C 	C 	0.19790 0.31550 0.10588 -0.15400
C 	C 	0.19200 0.22370 0.07922 0.04800
C 	C 	0.19720 0.40640 0.13215 -0.10000
C 	C 	0.58180 0.94540 0.38564 -0.15200
C 	C 	0.49240 0.94730 0.41292 0.04200
C 	C 	0.67210 0.94280 0.35966 -0.08500
H 	H 	0.64620 0.17310 0.45850 0.07600
H 	H 	0.68960 0.22420 0.46210 0.07800
C 	C 	0.66770 0.18740 0.50120 0.09100
H 	H 	0.18380 0.33430 0.08950 0.07800
C 	C 	0.19760 0.16740 0.07895 -0.11700
C 	C 	0.17000 0.24920 0.05490 -0.12400
C 	C 	0.20200 0.44030 0.10843 0.07300
C 	C 	0.18130 0.43100 0.15755 0.07500
H 	H 	0.60040 0.93060 0.40190 0.07800
C 	C 	0.51650 0.93090 0.43864 -0.11900
C 	C 	0.43290 0.95080 0.41262 -0.11600
C 	C 	0.69860 0.92500 0.33443 0.04600
C 	C 	0.70540 0.94910 0.38403 0.04900
H 	H 	0.70080 0.17580 0.51250 -0.00200
H 	H 	0.63520 0.16370 0.50640 -0.00200
C 	C 	0.65500 0.25160 0.50490 -0.45200
H 	H 	0.21420 0.14910 0.09490 0.07700
C 	C 	0.17950 0.13560 0.05569 0.06400
C 	C 	0.15290 0.21570 0.03292 0.06500
H 	H 	0.16700 0.28880 0.05370 0.06500
H 	H 	0.21330 0.42450 0.09070 0.00200
C 	C 	0.19050 0.49660 0.10996 -0.21500
C 	C 	0.16940 0.48730 0.15967 -0.21000
H 	H 	0.17860 0.40830 0.17420 0.00500
H 	H 	0.55610 0.92880 0.44030 0.06300
C 	C 	0.48330 0.91770 0.46152 0.06400
C 	C 	0.40340 0.93810 0.43697 0.07100
H 	H 	0.41380 0.96190 0.39580 0.07900
H 	H 	0.67710 0.92020 0.31750 0.01000
C 	C 	0.75670 0.91420 0.33390 -0.19700
C 	C 	0.76250 0.93830 0.38370 -0.19600
H 	H 	0.68840 0.96120 0.40130 0.00600
H 	H 	0.64590 0.25950 0.52490 0.15300
H 	H 	0.68720 0.27360 0.49900 0.15600
H 	H 	0.62240 0.26170 0.49300 0.15400
N 	N 	0.15650 0.15940 0.03248 -0.23800
H 	H 	0.18350 0.09600 0.05630 -0.00500
H 	H 	0.13730 0.23350 0.01660 -0.00900
H 	H 	0.19370 0.51900 0.09330 0.11100
C 	C 	0.17460 0.52070 0.13526 0.24500
H 	H 	0.15790 0.50310 0.17730 0.10500
H 	H 	0.50100 0.90610 0.47870 -0.00800
H 	H 	0.36390 0.94220 0.43660 -0.01300
H 	H 	0.77430 0.90190 0.31680 0.08900
C 	C 	0.78760 0.92170 0.35840 0.23000
H 	H 	0.78410 0.94220 0.40060 0.10300
O 	O 	0.16490 0.57700 0.13511 -0.26400
O 	O 	0.84390 0.91330 0.36037 -0.25700
N 	N 	0.06500 0.07040 0.03290 -0.23800
N 	N 	0.17340 0.04970 0.00257 -0.25900
C 	C 	0.14840 0.60290 0.16100 0.11000
C 	C 	0.87190 0.89710 0.33530 0.09800
C 	C 	0.04400 0.09640 0.05536 0.07400
C 	C 	0.05960 0.01400 0.03207 0.05500
C 	C 	0.20280 0.01700 0.01286 0.09100
H 	H 	0.17800 0.59760 0.17550 -0.00000
H 	H 	0.11370 0.58520 0.16810 0.00200
C 	C 	0.13850 0.66510 0.15630 -0.19400
H 	H 	0.86770 0.92600 0.32030 -0.00600
H 	H 	0.85690 0.86120 0.32810 0.00200
C 	C 	0.93440 0.89060 0.34410 -0.16600
C 	C 	0.01910 0.06990 0.07813 -0.12200
H 	H 	0.04620 0.13610 0.05580 -0.01100
H 	H 	0.07430 0.99440 0.01610 -0.00500
C 	C 	0.03370 0.98380 0.05339 -0.11300
S 	S 	0.24290 0.97148 0.02943 -0.07700
H 	H 	0.11020 0.66970 0.14110 0.08600
H 	H 	0.17380 0.68230 0.14950 0.09200
C 	C 	0.11870 0.69670 0.18290 -0.03300
H 	H 	0.94540 0.92260 0.35630 0.09200
H 	H 	0.95810 0.89140 0.32670 0.07100
C 	C 	0.94440 0.83480 0.36040 -0.05400
C 	C 	0.01340 0.01120 0.07774 0.03700
H 	H 	0.00600 0.09090 0.09400 0.07800
H 	H 	0.02970 0.94430 0.05160 0.06200
H 	H 	0.08310 0.68060 0.18990 0.03500
H 	H 	0.14700 0.69350 0.19820 0.03600
C 	C 	0.11050 0.75710 0.17500 -0.11400
H 	H 	0.95730 0.80590 0.34680 0.04400
H 	H 	0.90850 0.82190 0.36880 0.05300
C 	C 	0.98920 0.84150 0.38500 -0.09300
C 	C 	0.98930 0.98060 0.10256 0.08200
H 	H 	0.07550 0.76160 0.16390 0.05300
H 	H 	0.14220 0.77050 0.16320 0.05500
C 	C 	0.10710 0.79100 0.20310 -0.09200
H 	H 	0.97590 0.87020 0.39870 0.06100
H 	H 	0.99220 0.80560 0.39550 0.05700
C 	C 	0.04690 0.85810 0.37420 -0.12000
N 	N 	0.97780 0.01130 0.12548 -0.13700
C 	C 	0.98050 0.92290 0.10158 -0.15200
H 	H 	0.13110 0.77220 0.21740 0.05100
H 	H 	0.06810 0.78890 0.21010 0.05100
C 	C 	0.12440 0.85440 0.20180 -0.07800
H 	H 	0.06020 0.82930 0.36060 0.06300
H 	H 	0.04380 0.89390 0.36360 0.06500
C 	C 	0.08900 0.86460 0.39730 -0.01500
C 	C 	0.95710 0.98500 0.14859 0.07900
H 	H 	0.98820 0.90270 0.08460 0.07800
C 	C 	0.96060 0.89500 0.12550 0.10300
H 	H 	0.15520 0.85900 0.21570 0.04700
H 	H 	0.14110 0.86030 0.18270 0.04900
C 	C 	0.08410 0.90470 0.20680 -0.15600
H 	H 	0.07450 0.89210 0.41130 0.03300
H 	H 	0.09280 0.82830 0.40730 0.03200
C 	C 	0.14510 0.88290 0.38820 -0.20300
C 	C 	0.94850 0.92820 0.14933 -0.14700
C 	C 	0.94330 0.02180 0.17318 0.05200
C 	C 	0.94950 0.83420 0.12547 -0.08800
H 	H 	0.08060 0.89750 0.22750 0.06800
H 	H 	0.05130 0.88500 0.19870 0.06800
C 	C 	0.05250 0.96340 0.20850 0.04700
H 	H 	0.14130 0.91370 0.37420 0.08600
H 	H 	0.16450 0.85140 0.37870 0.08500
C 	C 	0.18140 0.90380 0.41430 0.09500
H 	H 	0.93420 0.91130 0.16620 0.07400
C 	C 	0.92250 0.99920 0.19848 -0.13500
C 	C 	0.94850 0.07920 0.17184 -0.12400
C 	C 	0.93240 0.80650 0.10138 0.05400
C 	C 	0.95750 0.80260 0.15043 0.05200
H 	H 	0.05500 0.97740 0.18870 0.01300
H 	H 	0.01290 0.95220 0.21100 0.00100
C 	C 	0.05660 0.01840 0.22670 -0.43800
H 	H 	0.18290 0.87390 0.42890 -0.00200
H 	H 	0.16330 0.93690 0.42290 -0.00300
C 	C 	0.24290 0.91950 0.40500 -0.46900
H 	H 	0.92020 0.95980 0.20090 0.06400
C 	C 	0.90500 0.03490 0.22009 0.07500
C 	C 	0.92910 0.11130 0.19486 0.06700
H 	H 	0.96490 0.09660 0.15570 0.08000
H 	H 	0.92750 0.82710 0.08420 0.01200
C 	C 	0.92190 0.74840 0.10111 -0.20000
C 	C 	0.94810 0.74510 0.15082 -0.19700
H 	H 	0.96950 0.82080 0.16740 0.00400
H 	H 	0.02780 0.04490 0.22030 0.15100
H 	H 	0.05090 0.00960 0.24690 0.14600
H 	H 	0.09370 0.03520 0.22410 0.14700
H 	H 	0.25060 0.90390 0.38610 0.15900
H 	H 	0.26960 0.90400 0.41880 0.16400
H 	H 	0.24680 0.96030 0.40440 0.16600
H 	H 	0.89230 0.01870 0.23750 -0.02100
H 	H 	0.93340 0.15080 0.19400 -0.01300
H 	H 	0.90920 0.73050 0.08420 0.10000
C 	C 	0.93040 0.71770 0.12623 0.23100
H 	H 	0.95370 0.72460 0.16790 0.10400
O 	O 	0.92180 0.66190 0.12917 -0.26500
C 	C 	0.90210 0.63350 0.10540 0.11900
H 	H 	0.93080 0.63360 0.09020 -0.00400
H 	H 	0.86790 0.65190 0.09800 -0.00000
C 	C 	0.88870 0.57300 0.11430 -0.19200
H 	H 	0.92190 0.55630 0.12360 0.09900
H 	H 	0.85760 0.57310 0.12830 0.09200
C 	C 	0.87230 0.53780 0.08840 -0.04400
H 	H 	0.84280 0.55820 0.07790 0.03700
H 	H 	0.90530 0.53520 0.07570 0.04100
C 	C 	0.85230 0.48130 0.09380 -0.08000
H 	H 	0.84660 0.46360 0.07490 0.04600
H 	H 	0.81480 0.48500 0.10260 0.05200
C 	C 	0.88490 0.44010 0.11180 -0.14900
H 	H 	0.92060 0.43170 0.10200 0.07300
H 	H 	0.89420 0.45830 0.13020 0.07500
C 	C 	0.85690 0.38890 0.11760 0.01700
H 	H 	0.84040 0.37660 0.09920 0.01800
H 	H 	0.82520 0.39840 0.13020 0.02500
C 	C 	0.88440 0.33750 0.13050 -0.23900
H 	H 	0.86020 0.30460 0.12690 0.09400
H 	H 	0.92060 0.33090 0.12070 0.09200
C 	C 	0.89490 0.34210 0.16210 0.15200
H 	H 	0.85970 0.34980 0.17250 -0.02000
H 	H 	0.92210 0.37230 0.16620 -0.01900
C 	C 	0.91910 0.28420 0.17050 -0.51200
H 	H 	0.88900 0.25630 0.17050 0.17400
H 	H 	0.93560 0.28650 0.18960 0.17200
H 	H 	0.94790 0.27320 0.15670 0.17400
N 	N 	0.31550 0.31840 0.53271 -0.24100
N 	N 	0.42300 0.30000 0.50156 -0.29200
N 	N 	0.40500 0.41100 0.53211 -0.24300
C 	C 	0.30730 0.26340 0.53135 0.06200
C 	C 	0.29630 0.34470 0.55613 0.07100
C 	C 	0.45900 0.27920 0.49560 0.14200
C 	C 	0.28030 0.23310 0.55271 -0.12400
H 	H 	0.32050 0.24380 0.51500 -0.00800
H 	H 	0.30240 0.38390 0.55760 -0.00600
C 	C 	0.26870 0.31920 0.57771 -0.12600
S 	S 	0.51710 0.24870 0.48560 -0.11600
C 	C 	0.26070 0.26020 0.57680 0.04200
H 	H 	0.27530 0.19380 0.55070 0.06700
H 	H 	0.25490 0.34040 0.59330 0.08400
C 	C 	0.23570 0.22970 0.60134 0.07600
N 	N 	0.22480 0.26080 0.62487 -0.13500
C 	C 	0.22570 0.17260 0.59998 -0.14800
C 	C 	0.20400 0.23430 0.64786 0.07900
C 	C 	0.20400 0.14510 0.62392 0.10100
H 	H 	0.23350 0.15240 0.58300 0.07700
C 	C 	0.19350 0.17750 0.64816 -0.14700
C 	C 	0.19130 0.26970 0.67333 0.04800
C 	C 	0.19360 0.08410 0.62411 -0.08500
H 	H 	0.17920 0.16030 0.66490 0.07400
C 	C 	0.19350 0.32800 0.67235 -0.11700
C 	C 	0.17490 0.24590 0.69871 -0.12400
C 	C 	0.20300 0.05280 0.64898 0.05400
C 	C 	0.17460 0.05650 0.60022 0.05500
H 	H 	0.20630 0.34650 0.65560 0.07800
C 	C 	0.17710 0.35850 0.69565 0.07000
C 	C 	0.15890 0.27930 0.72121 0.06100
H 	H 	0.17460 0.20630 0.70070 0.05800
H 	H 	0.21660 0.07120 0.66560 0.00500
C 	C 	0.19300 0.99610 0.64977 -0.19300
C 	C 	0.16320 0.99890 0.60039 -0.19100
H 	H 	0.16900 0.07710 0.58310 0.01100
N 	N 	0.15910 0.33550 0.72022 -0.23800
H 	H 	0.17850 0.39820 0.69440 -0.00600
H 	H 	0.14700 0.26170 0.73830 -0.01300
H 	H 	0.19960 0.97570 0.66680 0.10300
C 	C 	0.17310 0.96860 0.62547 0.22900
H 	H 	0.14910 0.98080 0.58380 0.09700
Co	Co	0.11819 0.37986 0.75462 1.12200
O 	O 	0.16320 0.91273 0.62833 -0.26100
N 	N 	0.16419 0.32876 0.78508 -0.23800
N 	N 	0.05570 0.31770 0.75408 -0.25500
N 	N 	0.07150 0.42940 0.72393 -0.23600
N 	N 	0.17910 0.44090 0.75752 -0.26500
N 	N 	0.07260 0.42020 0.78900 -0.23800
C 	C 	0.13720 0.88490 0.60508 0.11600
C 	C 	0.21890 0.32120 0.78234 0.06200
C 	C 	0.13930 0.30650 0.80815 0.06100
C 	C 	0.02720 0.28430 0.76480 0.08700
C 	C 	0.04500 0.40360 0.70212 0.06100
C 	C 	0.06970 0.48490 0.72565 0.06800
C 	C 	0.21300 0.47250 0.76473 0.09400
H 	H 	0.16270 0.88420 0.58840 -0.00300
H 	H 	0.10250 0.90480 0.59950 0.00200
C 	C 	0.12360 0.82590 0.61430 -0.20400
C 	C 	0.25100 0.29090 0.80170 -0.12500
H 	H 	0.23710 0.33740 0.76630 -0.01000
H 	H 	0.10000 0.31080 0.81020 -0.00600
C 	C 	0.16840 0.27740 0.82933 -0.12000
S 	S 	0.98370 0.24100 0.77987 -0.08200
C 	C 	0.01730 0.43370 0.68117 -0.11400
H 	H 	0.04540 0.36390 0.70110 -0.00400
H 	H 	0.08750 0.50270 0.74130 -0.00900
C 	C 	0.04290 0.51790 0.70561 -0.12100
S 	S 	0.26203 0.51601 0.77485 -0.07500
H 	H 	0.15850 0.80350 0.61430 0.09200
H 	H 	0.10950 0.82680 0.63420 0.09100
C 	C 	0.08100 0.79720 0.59580 -0.01200
C 	C 	0.22590 0.26950 0.82616 0.04100
H 	H 	0.28970 0.28490 0.79820 0.06600
H 	H 	0.14940 0.26330 0.84560 0.08000
C 	C 	0.01590 0.49230 0.68262 0.04000
H 	H 	0.99930 0.41480 0.66590 0.07800
H 	H 	0.04280 0.55750 0.70750 0.06400
H 	H 	0.07330 0.75990 0.60410 0.02000
H 	H 	0.04580 0.81890 0.59680 0.02700
C 	C 	0.09560 0.78950 0.56530 -0.11900
C 	C 	0.25870 0.24270 0.84963 0.07900
C 	C 	0.98840 0.52540 0.65955 0.07900
H 	H 	0.10770 0.82550 0.55680 0.06100
H 	H 	0.06300 0.77540 0.55450 0.05700
C 	C 	0.14230 0.74790 0.56460 -0.09100
N 	N 	0.23030 0.22960 0.87340 -0.13800
C 	C 	0.31620 0.23280 0.84655 -0.15400
N 	N 	0.97915 0.49690 0.63527 -0.13700
C 	C 	0.97700 0.58180 0.66252 -0.15000
H 	H 	0.17800 0.76560 0.57050 0.05500
H 	H 	0.13430 0.71620 0.57760 0.04900
C 	C 	0.14580 0.72830 0.53460 -0.04500
C 	C 	0.25830 0.20730 0.89510 0.08400
C 	C 	0.34530 0.20920 0.86945 0.11000
H 	H 	0.33490 0.24190 0.82930 0.07800
C 	C 	0.95740 0.52520 0.61314 0.08400
H 	H 	0.98410 0.60040 0.68010 0.07600
C 	C 	0.95490 0.61130 0.63921 0.10300
H 	H 	0.15800 0.75980 0.52240 0.03900
H 	H 	0.10800 0.71660 0.52820 0.03800
C 	C 	0.18640 0.67940 0.53090 -0.18000
C 	C 	0.31550 0.19790 0.89412 -0.15400
C 	C 	0.22370 0.19200 0.92078 0.04800
C 	C 	0.40640 0.19720 0.86785 -0.10000
C 	C 	0.94540 0.58180 0.61436 -0.15200
C 	C 	0.94730 0.49240 0.58708 0.04200
C 	C 	0.94280 0.67210 0.64034 -0.08500
H 	H 	0.17310 0.64620 0.54150 0.07600
H 	H 	0.22420 0.68960 0.53790 0.07800
C 	C 	0.18740 0.66770 0.49880 0.09100
H 	H 	0.33430 0.18380 0.91050 0.07800
C 	C 	0.16740 0.19760 0.92105 -0.11700
C 	C 	0.24920 0.17000 0.94510 -0.12400
C 	C 	0.44030 0.20200 0.89157 0.07300
C 	C 	0.43100 0.18130 0.84245 0.07500
H 	H 	0.93060 0.60040 0.59810 0.07800
C 	C 	0.93090 0.51650 0.56136 -0.11900
C 	C 	0.95080 0.43290 0.58738 -0.11600
C 	C 	0.92500 0.69860 0.66557 0.04600
C 	C 	0.94910 0.70540 0.61597 0.04900
H 	H 	0.17580 0.70080 0.48750 -0.00200
H 	H 	0.16370 0.63520 0.49360 -0.00200
C 	C 	0.25160 0.65500 0.49510 -0.45200
H 	H 	0.14910 0.21420 0.90510 0.07700
C 	C 	0.13560 0.17950 0.94431 0.06400
C 	C 	0.21570 0.15290 0.96708 0.06500
H 	H 	0.28880 0.16700 0.94630 0.06500
H 	H 	0.42450 0.21330 0.90930 0.00200
C 	C 	0.49660 0.19050 0.89004 -0.21500
C 	C 	0.48730 0.16940 0.84033 -0.21000
H 	H 	0.40830 0.17860 0.82580 0.00500
H 	H 	0.92880 0.55610 0.55970 0.06300
C 	C 	0.91770 0.48330 0.53848 0.06400
C 	C 	0.93810 0.40340 0.56303 0.07100
H 	H 	0.96190 0.41380 0.60420 0.07900
H 	H 	0.92020 0.67710 0.68250 0.01000
C 	C 	0.91420 0.75670 0.66610 -0.19700
C 	C 	0.93830 0.76250 0.61630 -0.19600
H 	H 	0.96120 0.68840 0.59870 0.00600
H 	H 	0.25950 0.64590 0.47510 0.15300
H 	H 	0.27360 0.68720 0.50100 0.15600
H 	H 	0.26170 0.62240 0.50700 0.15400
N 	N 	0.15940 0.15650 0.96752 -0.23700
H 	H 	0.09600 0.18350 0.94370 -0.00500
H 	H 	0.23350 0.13730 0.98340 -0.00800
H 	H 	0.51900 0.19370 0.90670 0.11100
C 	C 	0.52070 0.17460 0.86474 0.24500
H 	H 	0.50310 0.15790 0.82270 0.10500
H 	H 	0.90610 0.50100 0.52130 -0.00800
H 	H 	0.94220 0.36390 0.56340 -0.01300
H 	H 	0.90190 0.77430 0.68320 0.08900
C 	C 	0.92170 0.78760 0.64160 0.23000
H 	H 	0.94220 0.78410 0.59940 0.10300
O 	O 	0.57700 0.16490 0.86489 -0.26400
O 	O 	0.91330 0.84390 0.63963 -0.25700
N 	N 	0.07040 0.06500 0.96710 -0.23800
N 	N 	0.04970 0.17340 0.99743 -0.25900
C 	C 	0.60290 0.14840 0.83900 0.11000
C 	C 	0.89710 0.87190 0.66470 0.09800
C 	C 	0.09640 0.04400 0.94464 0.07400
C 	C 	0.01400 0.05960 0.96793 0.05600
C 	C 	0.01700 0.20280 0.98714 0.09200
H 	H 	0.59760 0.17800 0.82450 -0.00000
H 	H 	0.58520 0.11370 0.83190 0.00200
C 	C 	0.66510 0.13850 0.84370 -0.19400
H 	H 	0.92600 0.86770 0.67970 -0.00600
H 	H 	0.86120 0.85690 0.67190 0.00200
C 	C 	0.89060 0.93440 0.65590 -0.16600
C 	C 	0.06990 0.01910 0.92187 -0.12200
H 	H 	0.13610 0.04620 0.94420 -0.01100
H 	H 	0.99440 0.07430 0.98390 -0.00400
C 	C 	0.98380 0.03370 0.94661 -0.11300
S 	S 	0.97148 0.24290 0.97057 -0.07600
H 	H 	0.66970 0.11020 0.85890 0.08600
H 	H 	0.68230 0.17380 0.85050 0.09200
C 	C 	0.69670 0.11870 0.81710 -0.03300
H 	H 	0.92260 0.94540 0.64370 0.09200
H 	H 	0.89140 0.95810 0.67330 0.07100
C 	C 	0.83480 0.94440 0.63960 -0.05400
C 	C 	0.01120 0.01340 0.92226 0.03700
H 	H 	0.09090 0.00600 0.90600 0.07800
H 	H 	0.94430 0.02970 0.94840 0.06200
H 	H 	0.68060 0.08310 0.81010 0.03500
H 	H 	0.69350 0.14700 0.80180 0.03600
C 	C 	0.75710 0.11050 0.82500 -0.11400
H 	H 	0.80590 0.95730 0.65320 0.04400
H 	H 	0.82190 0.90850 0.63120 0.05300
C 	C 	0.84150 0.98920 0.61500 -0.09300
C 	C 	0.98060 0.98930 0.89744 0.08200
H 	H 	0.76160 0.07550 0.83610 0.05300
H 	H 	0.77050 0.14220 0.83680 0.05500
C 	C 	0.79100 0.10710 0.79690 -0.09200
H 	H 	0.87020 0.97590 0.60130 0.06100
H 	H 	0.80560 0.99220 0.60450 0.05700
C 	C 	0.85810 0.04690 0.62580 -0.12000
N 	N 	0.01130 0.97780 0.87452 -0.13700
C 	C 	0.92290 0.98050 0.89842 -0.15200
H 	H 	0.77220 0.13110 0.78260 0.05100
H 	H 	0.78890 0.06810 0.78990 0.05100
C 	C 	0.85440 0.12440 0.79820 -0.07800
H 	H 	0.82930 0.06020 0.63940 0.06300
H 	H 	0.89390 0.04380 0.63640 0.06500
C 	C 	0.86460 0.08900 0.60270 -0.01500
C 	C 	0.98500 0.95710 0.85141 0.07900
H 	H 	0.90270 0.98820 0.91540 0.07800
C 	C 	0.89500 0.96060 0.87450 0.10300
H 	H 	0.85900 0.15520 0.78430 0.04700
H 	H 	0.86030 0.14110 0.81730 0.04900
C 	C 	0.90470 0.08410 0.79320 -0.15600
H 	H 	0.89210 0.07450 0.58870 0.03300
H 	H 	0.82830 0.09280 0.59270 0.03200
C 	C 	0.88290 0.14510 0.61180 -0.20300
C 	C 	0.92820 0.94850 0.85067 -0.14700
C 	C 	0.02180 0.94330 0.82682 0.05200
C 	C 	0.83420 0.94950 0.87453 -0.08800
H 	H 	0.89750 0.08060 0.77250 0.06800
H 	H 	0.88500 0.05130 0.80130 0.06800
C 	C 	0.96340 0.05250 0.79150 0.04700
H 	H 	0.91370 0.14130 0.62580 0.08600
H 	H 	0.85140 0.16450 0.62130 0.08500
C 	C 	0.90380 0.18140 0.58570 0.09500
H 	H 	0.91130 0.93420 0.83380 0.07300
C 	C 	0.99920 0.92250 0.80152 -0.13500
C 	C 	0.07920 0.94850 0.82816 -0.12400
C 	C 	0.80650 0.93240 0.89862 0.05400
C 	C 	0.80260 0.95750 0.84957 0.05100
H 	H 	0.97740 0.05500 0.81130 0.01300
H 	H 	0.95220 0.01290 0.78900 0.00100
C 	C 	0.01840 0.05660 0.77330 -0.43800
H 	H 	0.87390 0.18290 0.57110 -0.00200
H 	H 	0.93690 0.16330 0.57710 -0.00300
C 	C 	0.91950 0.24290 0.59500 -0.46900
H 	H 	0.95980 0.92020 0.79910 0.06400
C 	C 	0.03490 0.90500 0.77991 0.07500
C 	C 	0.11130 0.92910 0.80514 0.06700
H 	H 	0.09660 0.96490 0.84430 0.08000
H 	H 	0.82710 0.92750 0.91580 0.01200
C 	C 	0.74840 0.92190 0.89889 -0.19900
C 	C 	0.74510 0.94810 0.84918 -0.19700
H 	H 	0.82080 0.96950 0.83260 0.00400
H 	H 	0.04490 0.02780 0.77970 0.15100
H 	H 	0.00960 0.05090 0.75310 0.14600
H 	H 	0.03520 0.09370 0.77590 0.14700
H 	H 	0.90390 0.25060 0.61390 0.15900
H 	H 	0.90400 0.26960 0.58120 0.16400
H 	H 	0.96030 0.24680 0.59560 0.16600
H 	H 	0.01870 0.89230 0.76250 -0.02100
H 	H 	0.15080 0.93340 0.80600 -0.01300
H 	H 	0.73050 0.90920 0.91580 0.10000
C 	C 	0.71770 0.93040 0.87377 0.23100
H 	H 	0.72460 0.95370 0.83210 0.10400
O 	O 	0.66190 0.92180 0.87083 -0.26500
C 	C 	0.63350 0.90210 0.89460 0.11800
H 	H 	0.63360 0.93080 0.90980 -0.00300
H 	H 	0.65190 0.86790 0.90200 -0.00000
C 	C 	0.57300 0.88870 0.88570 -0.19100
H 	H 	0.55630 0.92190 0.87640 0.09800
H 	H 	0.57310 0.85760 0.87170 0.09100
C 	C 	0.53780 0.87230 0.91160 -0.04400
H 	H 	0.55820 0.84280 0.92210 0.03800
H 	H 	0.53520 0.90530 0.92430 0.04100
C 	C 	0.48130 0.85230 0.90620 -0.08000
H 	H 	0.46360 0.84660 0.92510 0.04600
H 	H 	0.48500 0.81480 0.89740 0.05200
C 	C 	0.44010 0.88490 0.88820 -0.15000
H 	H 	0.43170 0.92060 0.89800 0.07300
H 	H 	0.45830 0.89420 0.86980 0.07500
C 	C 	0.38890 0.85690 0.88240 0.01700
H 	H 	0.37660 0.84040 0.90080 0.01800
H 	H 	0.39840 0.82520 0.86980 0.02500
C 	C 	0.33750 0.88440 0.86950 -0.23900
H 	H 	0.30460 0.86020 0.87310 0.09400
H 	H 	0.33090 0.92060 0.87930 0.09200
C 	C 	0.34210 0.89490 0.83790 0.15200
H 	H 	0.34980 0.85970 0.82750 -0.02000
H 	H 	0.37230 0.92210 0.83380 -0.01900
C 	C 	0.28420 0.91910 0.82950 -0.51200
H 	H 	0.25630 0.88900 0.82950 0.17400
H 	H 	0.28650 0.93560 0.81040 0.17200
H 	H 	0.27320 0.94790 0.84330 0.17400
N 	N 	0.68450 0.68160 0.03271 -0.24100
N 	N 	0.57700 0.70000 0.00156 -0.29400
N 	N 	0.59500 0.58900 0.03211 -0.24300
C 	C 	0.69270 0.73660 0.03135 0.06200
C 	C 	0.70370 0.65530 0.05613 0.07100
C 	C 	0.54100 0.72080 0.99560 0.14400
C 	C 	0.71970 0.76690 0.05271 -0.12400
H 	H 	0.67950 0.75620 0.01500 -0.00800
H 	H 	0.69760 0.61610 0.05760 -0.00600
C 	C 	0.73130 0.68080 0.07771 -0.12600
S 	S 	0.48290 0.75130 0.98560 -0.11600
C 	C 	0.73930 0.73980 0.07680 0.04200
H 	H 	0.72470 0.80620 0.05070 0.06600
H 	H 	0.74510 0.65960 0.09330 0.08400
C 	C 	0.76430 0.77030 0.10134 0.07500
N 	N 	0.77520 0.73920 0.12487 -0.13500
C 	C 	0.77430 0.82740 0.09998 -0.14800
C 	C 	0.79600 0.76570 0.14786 0.07900
C 	C 	0.79600 0.85490 0.12392 0.10100
H 	H 	0.76650 0.84760 0.08300 0.07600
C 	C 	0.80650 0.82250 0.14816 -0.14700
C 	C 	0.80870 0.73030 0.17333 0.04800
C 	C 	0.80640 0.91590 0.12411 -0.08500
H 	H 	0.82080 0.83970 0.16490 0.07400
C 	C 	0.80650 0.67200 0.17235 -0.11700
C 	C 	0.82510 0.75410 0.19871 -0.12400
C 	C 	0.79700 0.94720 0.14898 0.05400
C 	C 	0.82540 0.94350 0.10022 0.05500
H 	H 	0.79370 0.65350 0.15560 0.07800
C 	C 	0.82290 0.64150 0.19565 0.07000
C 	C 	0.84110 0.72070 0.22121 0.06100
H 	H 	0.82540 0.79370 0.20070 0.05800
H 	H 	0.78340 0.92880 0.16560 0.00500
C 	C 	0.80700 0.00390 0.14977 -0.19300
C 	C 	0.83680 0.00110 0.10039 -0.19100
H 	H 	0.83100 0.92290 0.08310 0.01100
N 	N 	0.84090 0.66450 0.22022 -0.23800
H 	H 	0.82150 0.60180 0.19440 -0.00600
H 	H 	0.85300 0.73830 0.23830 -0.01300
H 	H 	0.80040 0.02430 0.16680 0.10300
C 	C 	0.82690 0.03140 0.12547 0.22900
H 	H 	0.85090 0.01920 0.08380 0.09700
Co	Co	0.88181 0.62014 0.25462 1.12200
O 	O 	0.83680 0.08727 0.12833 -0.26100
N 	N 	0.83581 0.67124 0.28508 -0.23800
N 	N 	0.94430 0.68230 0.25408 -0.25500
N 	N 	0.92850 0.57060 0.22393 -0.23600
N 	N 	0.82090 0.55910 0.25752 -0.26500
N 	N 	0.92740 0.57980 0.28900 -0.23800
C 	C 	0.86280 0.11510 0.10508 0.11600
C 	C 	0.78110 0.67880 0.28234 0.06200
C 	C 	0.86070 0.69350 0.30815 0.06100
C 	C 	0.97280 0.71570 0.26480 0.08700
C 	C 	0.95500 0.59640 0.20212 0.06100
C 	C 	0.93030 0.51510 0.22565 0.06800
C 	C 	0.78700 0.52750 0.26473 0.09400
H 	H 	0.83730 0.11580 0.08840 -0.00300
H 	H 	0.89750 0.09520 0.09950 0.00200
C 	C 	0.87640 0.17410 0.11430 -0.20400
C 	C 	0.74900 0.70910 0.30170 -0.12500
H 	H 	0.76290 0.66260 0.26630 -0.01000
H 	H 	0.90000 0.68920 0.31020 -0.00600
C 	C 	0.83160 0.72260 0.32933 -0.12000
S 	S 	0.01630 0.75900 0.27987 -0.08200
C 	C 	0.98270 0.56630 0.18117 -0.11400
H 	H 	0.95460 0.63610 0.20110 -0.00400
H 	H 	0.91250 0.49730 0.24130 -0.00900
C 	C 	0.95710 0.48210 0.20561 -0.12100
S 	S 	0.73797 0.48399 0.27485 -0.07500
H 	H 	0.84150 0.19650 0.11430 0.09200
H 	H 	0.89050 0.17320 0.13420 0.09100
C 	C 	0.91900 0.20280 0.09580 -0.01200
C 	C 	0.77410 0.73050 0.32616 0.04100
H 	H 	0.71030 0.71510 0.29820 0.06600
H 	H 	0.85060 0.73670 0.34560 0.08000
C 	C 	0.98410 0.50770 0.18262 0.04000
H 	H 	0.00070 0.58520 0.16590 0.07800
H 	H 	0.95720 0.44250 0.20750 0.06400
H 	H 	0.92670 0.24010 0.10410 0.02000
H 	H 	0.95420 0.18110 0.09680 0.02800
C 	C 	0.90440 0.21050 0.06530 -0.11900
C 	C 	0.74130 0.75730 0.34963 0.07900
C 	C 	0.01160 0.47460 0.15955 0.07900
H 	H 	0.89230 0.17450 0.05680 0.06000
H 	H 	0.93700 0.22460 0.05450 0.05700
C 	C 	0.85770 0.25210 0.06460 -0.09100
N 	N 	0.76970 0.77040 0.37340 -0.13800
C 	C 	0.68380 0.76720 0.34655 -0.15400
N 	N 	0.02085 0.50310 0.13527 -0.13700
C 	C 	0.02300 0.41820 0.16252 -0.15000
H 	H 	0.82200 0.23440 0.07050 0.05500
H 	H 	0.86570 0.28380 0.07760 0.04900
C 	C 	0.85420 0.27170 0.03460 -0.04500
C 	C 	0.74170 0.79270 0.39510 0.08400
C 	C 	0.65470 0.79080 0.36945 0.11000
H 	H 	0.66510 0.75810 0.32930 0.07800
C 	C 	0.04260 0.47480 0.11314 0.08400
H 	H 	0.01590 0.39960 0.18010 0.07600
C 	C 	0.04510 0.38870 0.13921 0.10300
H 	H 	0.84200 0.24020 0.02240 0.03900
H 	H 	0.89200 0.28340 0.02820 0.03800
C 	C 	0.81360 0.32060 0.03090 -0.18000
C 	C 	0.68450 0.80210 0.39412 -0.15400
C 	C 	0.77630 0.80800 0.42078 0.04800
C 	C 	0.59360 0.80280 0.36785 -0.10000
C 	C 	0.05460 0.41820 0.11436 -0.15200
C 	C 	0.05270 0.50760 0.08708 0.04200
C 	C 	0.05720 0.32790 0.14034 -0.08500
H 	H 	0.82690 0.35380 0.04150 0.07600
H 	H 	0.77580 0.31040 0.03790 0.07800
C 	C 	0.81260 0.33230 0.99880 0.08800
H 	H 	0.66570 0.81620 0.41050 0.07800
C 	C 	0.83260 0.80240 0.42105 -0.11700
C 	C 	0.75080 0.83000 0.44510 -0.12400
C 	C 	0.55970 0.79800 0.39157 0.07300
C 	C 	0.56900 0.81870 0.34245 0.07500
H 	H 	0.06940 0.39960 0.09810 0.07800
C 	C 	0.06910 0.48350 0.06136 -0.11900
C 	C 	0.04920 0.56710 0.08738 -0.11600
C 	C 	0.07500 0.30140 0.16557 0.04600
C 	C 	0.05090 0.29460 0.11597 0.04900
H 	H 	0.82420 0.29920 0.98750 -0.00100
H 	H 	0.83630 0.36480 0.99360 -0.00100
C 	C 	0.74840 0.34500 0.99510 -0.44200
H 	H 	0.85090 0.78580 0.40510 0.07700
C 	C 	0.86440 0.82050 0.44431 0.06400
C 	C 	0.78430 0.84710 0.46708 0.06500
H 	H 	0.71120 0.83300 0.44630 0.06500
H 	H 	0.57550 0.78670 0.40930 0.00200
C 	C 	0.50340 0.80950 0.39004 -0.21500
C 	C 	0.51270 0.83060 0.34033 -0.21000
H 	H 	0.59170 0.82140 0.32580 0.00500
H 	H 	0.07120 0.44390 0.05970 0.06300
C 	C 	0.08230 0.51670 0.03848 0.06400
C 	C 	0.06190 0.59660 0.06303 0.07100
H 	H 	0.03810 0.58620 0.10420 0.07900
H 	H 	0.07980 0.32290 0.18250 0.01000
C 	C 	0.08580 0.24330 0.16610 -0.19700
C 	C 	0.06170 0.23750 0.11630 -0.19600
H 	H 	0.03880 0.31160 0.09870 0.00600
H 	H 	0.74050 0.35410 0.97510 0.15000
H 	H 	0.72640 0.31280 0.00100 0.15200
H 	H 	0.73830 0.37760 0.00700 0.15000
N 	N 	0.84060 0.84350 0.46752 -0.23800
H 	H 	0.90400 0.81650 0.44370 -0.00500
H 	H 	0.76650 0.86270 0.48340 -0.00900
H 	H 	0.48100 0.80630 0.40670 0.11100
C 	C 	0.47930 0.82540 0.36474 0.24500
H 	H 	0.49690 0.84210 0.32270 0.10500
H 	H 	0.09390 0.49900 0.02130 -0.00900
H 	H 	0.05780 0.63610 0.06340 -0.01300
H 	H 	0.09810 0.22570 0.18320 0.08900
C 	C 	0.07830 0.21240 0.14160 0.23000
H 	H 	0.05780 0.21590 0.09940 0.10300
O 	O 	0.42300 0.83510 0.36489 -0.26400
O 	O 	0.08670 0.15610 0.13963 -0.25700
N 	N 	0.92960 0.93500 0.46710 -0.23800
N 	N 	0.95030 0.82660 0.49743 -0.25900
C 	C 	0.39710 0.85160 0.33900 0.11000
C 	C 	0.10290 0.12810 0.16470 0.09800
C 	C 	0.90360 0.95600 0.44464 0.07400
C 	C 	0.98600 0.94040 0.46793 0.05500
C 	C 	0.98300 0.79720 0.48714 0.09100
H 	H 	0.40240 0.82200 0.32450 -0.00000
H 	H 	0.41480 0.88630 0.33190 0.00200
C 	C 	0.33490 0.86150 0.34370 -0.19400
H 	H 	0.07400 0.13230 0.17970 -0.00600
H 	H 	0.13880 0.14310 0.17190 0.00200
C 	C 	0.10940 0.06560 0.15590 -0.16600
C 	C 	0.93010 0.98090 0.42187 -0.12200
H 	H 	0.86390 0.95380 0.44420 -0.01100
H 	H 	0.00560 0.92570 0.48390 -0.00500
C 	C 	0.01620 0.96630 0.44661 -0.11300
S 	S 	0.02852 0.75710 0.47057 -0.07700
H 	H 	0.33030 0.88980 0.35890 0.08600
H 	H 	0.31770 0.82620 0.35050 0.09200
C 	C 	0.30330 0.88130 0.31710 -0.03300
H 	H 	0.07740 0.05460 0.14370 0.09200
H 	H 	0.10860 0.04190 0.17330 0.07100
C 	C 	0.16520 0.05560 0.13960 -0.05400
C 	C 	0.98880 0.98660 0.42226 0.03700
H 	H 	0.90910 0.99400 0.40600 0.07800
H 	H 	0.05570 0.97030 0.44840 0.06200
H 	H 	0.31940 0.91690 0.31010 0.03500
H 	H 	0.30650 0.85300 0.30180 0.03600
C 	C 	0.24290 0.88950 0.32500 -0.11400
H 	H 	0.19410 0.04270 0.15320 0.04400
H 	H 	0.17810 0.09150 0.13120 0.05300
C 	C 	0.15850 0.01080 0.11500 -0.09300
C 	C 	0.01940 0.01070 0.39744 0.08200
H 	H 	0.23840 0.92450 0.33610 0.05300
H 	H 	0.22950 0.85780 0.33680 0.05500
C 	C 	0.20900 0.89290 0.29690 -0.09200
H 	H 	0.12980 0.02410 0.10130 0.06100
H 	H 	0.19440 0.00780 0.10450 0.05700
C 	C 	0.14190 0.95310 0.12580 -0.12000
N 	N 	0.98870 0.02220 0.37452 -0.13700
C 	C 	0.07710 0.01950 0.39842 -0.15200
H 	H 	0.22780 0.86890 0.28260 0.05100
H 	H 	0.21110 0.93190 0.28990 0.05100
C 	C 	0.14560 0.87560 0.29820 -0.07800
H 	H 	0.17070 0.93980 0.13940 0.06300
H 	H 	0.10610 0.95620 0.13640 0.06500
C 	C 	0.13540 0.91100 0.10270 -0.01500
C 	C 	0.01500 0.04290 0.35141 0.07900
H 	H 	0.09730 0.01180 0.41540 0.07800
C 	C 	0.10500 0.03940 0.37450 0.10300
H 	H 	0.14100 0.84480 0.28430 0.04700
H 	H 	0.13970 0.85890 0.31730 0.04900
C 	C 	0.09530 0.91590 0.29320 -0.15600
H 	H 	0.10790 0.92550 0.08870 0.03300
H 	H 	0.17170 0.90720 0.09270 0.03200
C 	C 	0.11710 0.85490 0.11180 -0.20300
C 	C 	0.07180 0.05150 0.35067 -0.14700
C 	C 	0.97820 0.05670 0.32682 0.05200
C 	C 	0.16580 0.05050 0.37453 -0.08800
H 	H 	0.10250 0.91940 0.27250 0.06800
H 	H 	0.11500 0.94870 0.30130 0.06800
C 	C 	0.03660 0.94750 0.29150 0.04700
H 	H 	0.08630 0.85870 0.12580 0.08600
H 	H 	0.14860 0.83550 0.12130 0.08500
C 	C 	0.09620 0.81860 0.08570 0.09500
H 	H 	0.08870 0.06580 0.33380 0.07400
C 	C 	0.00080 0.07750 0.30152 -0.13500
C 	C 	0.92080 0.05150 0.32816 -0.12400
C 	C 	0.19350 0.06760 0.39862 0.05400
C 	C 	0.19740 0.04250 0.34957 0.05100
H 	H 	0.02260 0.94500 0.31130 0.01300
H 	H 	0.04780 0.98710 0.28900 0.00100
C 	C 	0.98160 0.94340 0.27330 -0.43800
H 	H 	0.12610 0.81710 0.07110 -0.00200
H 	H 	0.06310 0.83670 0.07710 -0.00400
C 	C 	0.08050 0.75710 0.09500 -0.46900
H 	H 	0.04020 0.07980 0.29910 0.06400
C 	C 	0.96510 0.09500 0.27991 0.07500
C 	C 	0.88870 0.07090 0.30514 0.06700
H 	H 	0.90340 0.03510 0.34430 0.08000
H 	H 	0.17290 0.07250 0.41580 0.01200
C 	C 	0.25160 0.07810 0.39889 -0.19900
C 	C 	0.25490 0.05190 0.34918 -0.19700
H 	H 	0.17920 0.03050 0.33260 0.00400
H 	H 	0.95510 0.97220 0.27970 0.15100
H 	H 	0.99040 0.94910 0.25310 0.14600
H 	H 	0.96480 0.90630 0.27590 0.14700
H 	H 	0.09610 0.74940 0.11390 0.15900
H 	H 	0.09600 0.73040 0.08120 0.16400
H 	H 	0.03970 0.75320 0.09560 0.16600
H 	H 	0.98130 0.10770 0.26250 -0.02100
H 	H 	0.84920 0.06660 0.30600 -0.01300
H 	H 	0.26950 0.09080 0.41580 0.10000
C 	C 	0.28230 0.06960 0.37377 0.23100
H 	H 	0.27540 0.04630 0.33210 0.10400
O 	O 	0.33810 0.07820 0.37083 -0.26500
C 	C 	0.36650 0.09790 0.39460 0.11900
H 	H 	0.36640 0.06920 0.40980 -0.00400
H 	H 	0.34810 0.13210 0.40200 -0.00000
C 	C 	0.42700 0.11130 0.38570 -0.19200
H 	H 	0.44370 0.07810 0.37640 0.09800
H 	H 	0.42690 0.14240 0.37170 0.09100
C 	C 	0.46220 0.12770 0.41160 -0.04400
H 	H 	0.44180 0.15720 0.42210 0.03700
H 	H 	0.46480 0.09470 0.42430 0.04100
C 	C 	0.51870 0.14770 0.40620 -0.08000
H 	H 	0.53640 0.15340 0.42510 0.04600
H 	H 	0.51500 0.18520 0.39740 0.05200
C 	C 	0.55990 0.11510 0.38820 -0.15000
H 	H 	0.56830 0.07940 0.39800 0.07300
H 	H 	0.54170 0.10580 0.36980 0.07500
C 	C 	0.61110 0.14310 0.38240 0.01700
H 	H 	0.62340 0.15960 0.40080 0.01800
H 	H 	0.60160 0.17480 0.36980 0.02500
C 	C 	0.66250 0.11560 0.36950 -0.23900
H 	H 	0.69540 0.13980 0.37310 0.09400
H 	H 	0.66910 0.07940 0.37930 0.09200
C 	C 	0.65790 0.10510 0.33790 0.15200
H 	H 	0.65020 0.14030 0.32750 -0.02000
H 	H 	0.62770 0.07790 0.33380 -0.01900
C 	C 	0.71580 0.08090 0.32950 -0.51200
H 	H 	0.74370 0.11100 0.32950 0.17400
H 	H 	0.71350 0.06440 0.31040 0.17200
H 	H 	0.72680 0.05210 0.34330 0.17400
N 	N 	0.81840 0.18450 0.28271 -0.24100
N 	N 	0.80000 0.07700 0.25156 -0.29200
N 	N 	0.91100 0.09500 0.28211 -0.24300
C 	C 	0.76340 0.19270 0.28135 0.06300
C 	C 	0.84470 0.20370 0.30613 0.07100
C 	C 	0.77920 0.04100 0.24560 0.14200
C 	C 	0.73310 0.21970 0.30271 -0.12400
H 	H 	0.74380 0.17950 0.26500 -0.00800
H 	H 	0.88390 0.19760 0.30760 -0.00600
C 	C 	0.81920 0.23130 0.32771 -0.12600
S 	S 	0.74870 0.98290 0.23560 -0.11600
C 	C 	0.76020 0.23930 0.32680 0.04200
H 	H 	0.69380 0.22470 0.30070 0.06700
H 	H 	0.84040 0.24510 0.34330 0.08400
C 	C 	0.72970 0.26430 0.35134 0.07600
N 	N 	0.76080 0.27520 0.37487 -0.13500
C 	C 	0.67260 0.27430 0.34998 -0.14800
C 	C 	0.73430 0.29600 0.39786 0.07900
C 	C 	0.64510 0.29600 0.37392 0.10100
H 	H 	0.65240 0.26650 0.33300 0.07700
C 	C 	0.67750 0.30650 0.39816 -0.14700
C 	C 	0.76970 0.30870 0.42333 0.04800
C 	C 	0.58410 0.30640 0.37411 -0.08500
H 	H 	0.66030 0.32080 0.41490 0.07400
C 	C 	0.82800 0.30650 0.42235 -0.11700
C 	C 	0.74590 0.32510 0.44871 -0.12400
C 	C 	0.55280 0.29700 0.39898 0.05400
C 	C 	0.55650 0.32540 0.35022 0.05600
H 	H 	0.84650 0.29370 0.40560 0.07800
C 	C 	0.85850 0.32290 0.44565 0.07000
C 	C 	0.77930 0.34110 0.47121 0.06100
H 	H 	0.70630 0.32540 0.45070 0.05800
H 	H 	0.57120 0.28340 0.41560 0.00500
C 	C 	0.49610 0.30700 0.39977 -0.19400
C 	C 	0.49890 0.33680 0.35039 -0.19200
H 	H 	0.57710 0.33100 0.33310 0.01100
N 	N 	0.83550 0.34090 0.47022 -0.23800
H 	H 	0.89820 0.32150 0.44440 -0.00600
H 	H 	0.76170 0.35300 0.48830 -0.01300
H 	H 	0.47570 0.30040 0.41680 0.10300
C 	C 	0.46860 0.32690 0.37547 0.22900
H 	H 	0.48080 0.35090 0.33380 0.09700
Co	Co	0.87986 0.38181 0.50462 1.12200
O 	O 	0.41273 0.33680 0.37833 -0.26100
N 	N 	0.82876 0.33581 0.53508 -0.23800
N 	N 	0.81770 0.44430 0.50408 -0.25500
N 	N 	0.92940 0.42850 0.47393 -0.23600
N 	N 	0.94090 0.32090 0.50752 -0.26500
N 	N 	0.92020 0.42740 0.53900 -0.23800
C 	C 	0.38490 0.36280 0.35508 0.11600
C 	C 	0.82120 0.28110 0.53234 0.06200
C 	C 	0.80650 0.36070 0.55815 0.06100
C 	C 	0.78430 0.47280 0.51480 0.08800
C 	C 	0.90360 0.45500 0.45212 0.06100
C 	C 	0.98490 0.43030 0.47565 0.06700
C 	C 	0.97250 0.28700 0.51473 0.09400
H 	H 	0.38420 0.33730 0.33840 -0.00300
H 	H 	0.40480 0.39750 0.34950 0.00200
C 	C 	0.32590 0.37640 0.36430 -0.20400
C 	C 	0.79090 0.24900 0.55170 -0.12500
H 	H 	0.83740 0.26290 0.51630 -0.01000
H 	H 	0.81080 0.40000 0.56020 -0.00600
C 	C 	0.77740 0.33160 0.57933 -0.12000
S 	S 	0.74100 0.51630 0.52987 -0.08200
C 	C 	0.93370 0.48270 0.43117 -0.11400
H 	H 	0.86390 0.45460 0.45110 -0.00400
H 	H 	0.00270 0.41250 0.49130 -0.00900
C 	C 	0.01790 0.45710 0.45561 -0.12000
S 	S 	0.01601 0.23797 0.52485 -0.07500
H 	H 	0.30350 0.34150 0.36430 0.09200
H 	H 	0.32680 0.39050 0.38420 0.09100
C 	C 	0.29720 0.41900 0.34580 -0.01200
C 	C 	0.76950 0.27410 0.57616 0.04100
H 	H 	0.78490 0.21030 0.54820 0.06600
H 	H 	0.76330 0.35060 0.59560 0.08000
C 	C 	0.99230 0.48410 0.43262 0.04000
H 	H 	0.91480 0.50070 0.41590 0.07800
H 	H 	0.05750 0.45720 0.45750 0.06400
H 	H 	0.25990 0.42670 0.35410 0.02000
H 	H 	0.31890 0.45420 0.34680 0.02700
C 	C 	0.28950 0.40440 0.31530 -0.11900
C 	C 	0.74270 0.24130 0.59963 0.07900
C 	C 	0.02540 0.51160 0.40955 0.08000
H 	H 	0.32550 0.39230 0.30680 0.06100
H 	H 	0.27540 0.43700 0.30450 0.05700
C 	C 	0.24790 0.35770 0.31460 -0.09100
N 	N 	0.72960 0.26970 0.62340 -0.13800
C 	C 	0.73280 0.18380 0.59655 -0.15400
N 	N 	0.99690 0.52085 0.38527 -0.13800
C 	C 	0.08180 0.52300 0.41252 -0.15000
H 	H 	0.26560 0.32200 0.32050 0.05500
H 	H 	0.21620 0.36570 0.32760 0.04900
C 	C 	0.22830 0.35420 0.28460 -0.04500
C 	C 	0.70730 0.24170 0.64510 0.08400
C 	C 	0.70920 0.15470 0.61945 0.11000
H 	H 	0.74190 0.16510 0.57930 0.07800
C 	C 	0.02520 0.54260 0.36314 0.08400
H 	H 	0.10040 0.51590 0.43010 0.07600
C 	C 	0.11130 0.54510 0.38921 0.10400
H 	H 	0.25980 0.34200 0.27240 0.03900
H 	H 	0.21660 0.39200 0.27820 0.03800
C 	C 	0.17940 0.31360 0.28090 -0.18000
C 	C 	0.69790 0.18450 0.64412 -0.15400
C 	C 	0.69200 0.27630 0.67078 0.04800
C 	C 	0.69720 0.09360 0.61785 -0.09900
C 	C 	0.08180 0.55460 0.36436 -0.15200
C 	C 	0.99240 0.55270 0.33708 0.04200
C 	C 	0.17210 0.55720 0.39034 -0.08500
H 	H 	0.14620 0.32690 0.29150 0.07600
H 	H 	0.18960 0.27580 0.28790 0.07800
C 	C 	0.16770 0.31260 0.24880 0.09100
H 	H 	0.68380 0.16570 0.66050 0.07700
C 	C 	0.69760 0.33260 0.67105 -0.11700
C 	C 	0.67000 0.25080 0.69510 -0.12400
C 	C 	0.70200 0.05970 0.64157 0.07200
C 	C 	0.68130 0.06900 0.59245 0.07400
H 	H 	0.10040 0.56940 0.34810 0.07800
C 	C 	0.01650 0.56910 0.31136 -0.11800
C 	C 	0.93290 0.54920 0.33738 -0.11600
C 	C 	0.19860 0.57500 0.41557 0.04600
C 	C 	0.20540 0.55090 0.36597 0.04900
H 	H 	0.20080 0.32420 0.23750 -0.00200
H 	H 	0.13520 0.33630 0.24360 -0.00200
C 	C 	0.15500 0.24840 0.24510 -0.45200
H 	H 	0.71420 0.35090 0.65510 0.07700
C 	C 	0.67950 0.36440 0.69431 0.06400
C 	C 	0.65290 0.28430 0.71708 0.06500
H 	H 	0.66700 0.21120 0.69630 0.06500
H 	H 	0.71330 0.07550 0.65930 0.00200
C 	C 	0.69050 0.00340 0.64004 -0.21300
C 	C 	0.66940 0.01270 0.59033 -0.20800
H 	H 	0.67860 0.09170 0.57580 0.00600
H 	H 	0.05610 0.57120 0.30970 0.06300
C 	C 	0.98330 0.58230 0.28848 0.06300
C 	C 	0.90340 0.56190 0.31303 0.07100
H 	H 	0.91380 0.53810 0.35420 0.07800
H 	H 	0.17710 0.57980 0.43250 0.01000
C 	C 	0.25670 0.58580 0.41610 -0.19700
C 	C 	0.26250 0.56170 0.36630 -0.19600
H 	H 	0.18840 0.53880 0.34870 0.00600
H 	H 	0.14590 0.24050 0.22510 0.15300
H 	H 	0.18720 0.22640 0.25100 0.15600
H 	H 	0.12240 0.23830 0.25700 0.15400
N 	N 	0.65650 0.34060 0.71752 -0.23800
H 	H 	0.68350 0.40400 0.69370 -0.00500
H 	H 	0.63730 0.26650 0.73340 -0.00900
H 	H 	0.69370 0.98100 0.65670 0.11000
C 	C 	0.67460 0.97930 0.61474 0.24400
H 	H 	0.65790 0.99690 0.57270 0.10400
H 	H 	0.00100 0.59390 0.27130 -0.00800
H 	H 	0.86390 0.55780 0.31340 -0.01300
H 	H 	0.27430 0.59810 0.43320 0.08900
C 	C 	0.28760 0.57830 0.39160 0.23100
H 	H 	0.28410 0.55780 0.34940 0.10300
O 	O 	0.66490 0.92300 0.61489 -0.26400
O 	O 	0.34390 0.58670 0.38963 -0.25700
N 	N 	0.56500 0.42960 0.71710 -0.23900
N 	N 	0.67340 0.45030 0.74743 -0.25900
C 	C 	0.64840 0.89710 0.58900 0.11000
C 	C 	0.37190 0.60290 0.41470 0.09700
C 	C 	0.54400 0.40360 0.69464 0.07500
C 	C 	0.55960 0.48600 0.71793 0.05800
C 	C 	0.70280 0.48300 0.73714 0.09200
H 	H 	0.67800 0.90240 0.57450 -0.00000
H 	H 	0.61370 0.91480 0.58190 0.00300
C 	C 	0.63850 0.83490 0.59370 -0.19400
H 	H 	0.36770 0.57400 0.42970 -0.00500
H 	H 	0.35690 0.63880 0.42190 0.00200
C 	C 	0.43440 0.60940 0.40590 -0.16500
C 	C 	0.51910 0.43010 0.67187 -0.12300
H 	H 	0.54620 0.36390 0.69420 -0.01100
H 	H 	0.57430 0.50560 0.73390 -0.00600
C 	C 	0.53370 0.51620 0.69661 -0.11600
S 	S 	0.74290 0.52852 0.72057 -0.07700
H 	H 	0.61020 0.83030 0.60890 0.08600
H 	H 	0.67380 0.81770 0.60050 0.09200
C 	C 	0.61870 0.80330 0.56710 -0.03300
H 	H 	0.44540 0.57740 0.39370 0.09200
H 	H 	0.45810 0.60860 0.42330 0.07100
C 	C 	0.44440 0.66520 0.38960 -0.05400
C 	C 	0.51340 0.48880 0.67226 0.03900
H 	H 	0.50600 0.40910 0.65600 0.07900
H 	H 	0.52970 0.55570 0.69840 0.06300
H 	H 	0.58310 0.81940 0.56010 0.03500
H 	H 	0.64700 0.80650 0.55180 0.03600
C 	C 	0.61050 0.74290 0.57500 -0.11400
H 	H 	0.45730 0.69410 0.40320 0.04400
H 	H 	0.40850 0.67810 0.38120 0.05300
C 	C 	0.48920 0.65850 0.36500 -0.09200
C 	C 	0.48930 0.51940 0.64744 0.08200
H 	H 	0.57550 0.73840 0.58610 0.05300
H 	H 	0.64220 0.72950 0.58680 0.05500
C 	C 	0.60710 0.70900 0.54690 -0.09200
H 	H 	0.47590 0.62980 0.35130 0.06000
H 	H 	0.49220 0.69440 0.35450 0.05700
C 	C 	0.54690 0.64190 0.37580 -0.12000
N 	N 	0.47780 0.48870 0.62452 -0.13700
C 	C 	0.48050 0.57710 0.64842 -0.15200
H 	H 	0.63110 0.72780 0.53260 0.05100
H 	H 	0.56810 0.71110 0.53990 0.05100
C 	C 	0.62440 0.64560 0.54820 -0.07800
H 	H 	0.56020 0.67070 0.38940 0.06300
H 	H 	0.54380 0.60610 0.38640 0.06500
C 	C 	0.58900 0.63540 0.35270 -0.01400
C 	C 	0.45710 0.51500 0.60141 0.08000
H 	H 	0.48820 0.59730 0.66540 0.07800
C 	C 	0.46060 0.60500 0.62450 0.10300
H 	H 	0.65520 0.64100 0.53430 0.04700
H 	H 	0.64110 0.63970 0.56730 0.04900
C 	C 	0.58410 0.59530 0.54320 -0.15600
H 	H 	0.57450 0.60790 0.33870 0.03300
H 	H 	0.59280 0.67170 0.34270 0.03200
C 	C 	0.64510 0.61710 0.36180 -0.20300
C 	C 	0.44850 0.57180 0.60067 -0.14700
C 	C 	0.44330 0.47820 0.57682 0.05100
C 	C 	0.44950 0.66580 0.62453 -0.08800
H 	H 	0.58060 0.60250 0.52250 0.06800
H 	H 	0.55130 0.61500 0.55130 0.06800
C 	C 	0.55250 0.53660 0.54150 0.04700
H 	H 	0.64130 0.58630 0.37580 0.08600
H 	H 	0.66450 0.64860 0.37130 0.08500
C 	C 	0.68140 0.59620 0.33570 0.09500
H 	H 	0.43420 0.58870 0.58380 0.07400
C 	C 	0.42250 0.50080 0.55152 -0.13400
C 	C 	0.44850 0.42080 0.57816 -0.12400
C 	C 	0.43240 0.69350 0.64862 0.05400
C 	C 	0.45750 0.69740 0.59957 0.05200
H 	H 	0.55500 0.52260 0.56130 0.01300
H 	H 	0.51290 0.54780 0.53900 0.00100
C 	C 	0.55660 0.48160 0.52330 -0.43700
H 	H 	0.68290 0.62610 0.32110 -0.00200
H 	H 	0.66330 0.56310 0.32710 -0.00400
C 	C 	0.74290 0.58050 0.34500 -0.46900
H 	H 	0.42020 0.54020 0.54910 0.06400
C 	C 	0.40500 0.46510 0.52991 0.07400
C 	C 	0.42910 0.38870 0.55514 0.06700
H 	H 	0.46490 0.40340 0.59430 0.08000
H 	H 	0.42750 0.67290 0.66580 0.01200
C 	C 	0.42190 0.75160 0.64889 -0.19900
C 	C 	0.44810 0.75490 0.59918 -0.19700
H 	H 	0.46950 0.67920 0.58260 0.00400
H 	H 	0.52780 0.45510 0.52970 0.15100
H 	H 	0.55090 0.49040 0.50310 0.14600
H 	H 	0.59370 0.46480 0.52590 0.14700
H 	H 	0.75060 0.59610 0.36390 0.15900
H 	H 	0.76960 0.59600 0.33120 0.16400
H 	H 	0.74680 0.53970 0.34560 0.16600
H 	H 	0.39230 0.48130 0.51250 -0.02100
H 	H 	0.43340 0.34920 0.55600 -0.01300
H 	H 	0.40920 0.76950 0.66580 0.10000
C 	C 	0.43040 0.78230 0.62377 0.23100
H 	H 	0.45370 0.77540 0.58210 0.10400
O 	O 	0.42180 0.83810 0.62083 -0.26500
C 	C 	0.40210 0.86650 0.64460 0.11900
H 	H 	0.43080 0.86640 0.65980 -0.00400
H 	H 	0.36790 0.84810 0.65200 -0.00000
C 	C 	0.38870 0.92700 0.63570 -0.19200
H 	H 	0.42190 0.94370 0.62640 0.09800
H 	H 	0.35760 0.92690 0.62170 0.09100
C 	C 	0.37230 0.96220 0.66160 -0.04400
H 	H 	0.34280 0.94180 0.67210 0.03700
H 	H 	0.40530 0.96480 0.67430 0.04100
C 	C 	0.35230 0.01870 0.65620 -0.08000
H 	H 	0.34660 0.03640 0.67510 0.04600
H 	H 	0.31480 0.01500 0.64740 0.05200
C 	C 	0.38490 0.05990 0.63820 -0.15000
H 	H 	0.42060 0.06830 0.64800 0.07300
H 	H 	0.39420 0.04170 0.61980 0.07500
C 	C 	0.35690 0.11110 0.63240 0.01700
H 	H 	0.34040 0.12340 0.65080 0.01800
H 	H 	0.32520 0.10160 0.61980 0.02500
C 	C 	0.38440 0.16250 0.61950 -0.23900
H 	H 	0.36020 0.19540 0.62310 0.09400
H 	H 	0.42060 0.16910 0.62930 0.09200
C 	C 	0.39490 0.15790 0.58790 0.15200
H 	H 	0.35970 0.15020 0.57750 -0.02000
H 	H 	0.42210 0.12770 0.58380 -0.01900
C 	C 	0.41910 0.21580 0.57950 -0.51200
H 	H 	0.38900 0.24370 0.57950 0.17400
H 	H 	0.43560 0.21350 0.56040 0.17200
H 	H 	0.44790 0.22680 0.59330 0.17400
N 	N 	0.18160 0.81550 0.78271 -0.24100
N 	N 	0.20000 0.92300 0.75156 -0.29200
N 	N 	0.08900 0.90500 0.78211 -0.24300
C 	C 	0.23660 0.80730 0.78135 0.06200
C 	C 	0.15530 0.79630 0.80613 0.07100
C 	C 	0.22080 0.95900 0.74560 0.14200
C 	C 	0.26690 0.78030 0.80271 -0.12400
H 	H 	0.25620 0.82050 0.76500 -0.00800
H 	H 	0.11610 0.80240 0.80760 -0.00600
C 	C 	0.18080 0.76870 0.82771 -0.12600
S 	S 	0.25130 0.01710 0.73560 -0.11600
C 	C 	0.23980 0.76070 0.82680 0.04200
H 	H 	0.30620 0.77530 0.80070 0.06700
H 	H 	0.15960 0.75490 0.84330 0.08400
C 	C 	0.27030 0.73570 0.85134 0.07600
N 	N 	0.23920 0.72480 0.87487 -0.13500
C 	C 	0.32740 0.72570 0.84998 -0.14800
C 	C 	0.26570 0.70400 0.89786 0.07900
C 	C 	0.35490 0.70400 0.87392 0.10100
H 	H 	0.34760 0.73350 0.83300 0.07700
C 	C 	0.32250 0.69350 0.89816 -0.14700
C 	C 	0.23030 0.69130 0.92333 0.04800
C 	C 	0.41590 0.69360 0.87411 -0.08500
H 	H 	0.33970 0.67920 0.91490 0.07400
C 	C 	0.17200 0.69350 0.92235 -0.11700
C 	C 	0.25410 0.67490 0.94871 -0.12400
C 	C 	0.44720 0.70300 0.89898 0.05400
C 	C 	0.44350 0.67460 0.85022 0.05600
H 	H 	0.15350 0.70630 0.90560 0.07800
C 	C 	0.14150 0.67710 0.94565 0.07000
C 	C 	0.22070 0.65890 0.97121 0.06100
H 	H 	0.29370 0.67460 0.95070 0.05800
H 	H 	0.42880 0.71660 0.91560 0.00500
C 	C 	0.50390 0.69300 0.89977 -0.19400
C 	C 	0.50110 0.66320 0.85039 -0.19200
H 	H 	0.42290 0.66900 0.83310 0.01100
N 	N 	0.16450 0.65910 0.97022 -0.23800
H 	H 	0.10180 0.67850 0.94440 -0.00600
H 	H 	0.23830 0.64700 0.98830 -0.01300
H 	H 	0.52430 0.69960 0.91680 0.10300
C 	C 	0.53140 0.67310 0.87547 0.22900
H 	H 	0.51920 0.64910 0.83380 0.09700
Co	Co	0.12014 0.61819 0.00462 1.12100
O 	O 	0.58727 0.66320 0.87833 -0.26100
N 	N 	0.17124 0.66419 0.03508 -0.23800
N 	N 	0.18230 0.55570 0.00408 -0.25500
N 	N 	0.07060 0.57150 0.97393 -0.23600
N 	N 	0.05910 0.67910 0.00752 -0.26600
N 	N 	0.07980 0.57260 0.03900 -0.23800
C 	C 	0.61510 0.63720 0.85508 0.11600
C 	C 	0.17880 0.71890 0.03234 0.06200
C 	C 	0.19350 0.63930 0.05815 0.06100
C 	C 	0.21570 0.52720 0.01480 0.08700
C 	C 	0.09640 0.54500 0.95212 0.06100
C 	C 	0.01510 0.56970 0.97565 0.06700
C 	C 	0.02750 0.71300 0.01473 0.09400
H 	H 	0.61580 0.66270 0.83840 -0.00300
H 	H 	0.59520 0.60250 0.84950 0.00200
C 	C 	0.67410 0.62360 0.86430 -0.20400
C 	C 	0.20910 0.75100 0.05170 -0.12500
H 	H 	0.16260 0.73710 0.01630 -0.01000
H 	H 	0.18920 0.60000 0.06020 -0.00600
C 	C 	0.22260 0.66840 0.07933 -0.12000
S 	S 	0.25900 0.48370 0.02987 -0.08200
C 	C 	0.06630 0.51730 0.93117 -0.11400
H 	H 	0.13610 0.54540 0.95110 -0.00400
H 	H 	0.99730 0.58750 0.99130 -0.00800
C 	C 	0.98210 0.54290 0.95561 -0.12000
S 	S 	0.98399 0.76203 0.02485 -0.07600
H 	H 	0.69650 0.65850 0.86430 0.09200
H 	H 	0.67320 0.60950 0.88420 0.09100
C 	C 	0.70280 0.58100 0.84580 -0.01200
C 	C 	0.23050 0.72590 0.07616 0.04100
H 	H 	0.21510 0.78970 0.04820 0.06600
H 	H 	0.23670 0.64940 0.09560 0.08000
C 	C 	0.00770 0.51590 0.93262 0.04000
H 	H 	0.08520 0.49930 0.91590 0.07800
H 	H 	0.94250 0.54280 0.95750 0.06400
H 	H 	0.74010 0.57330 0.85410 0.02000
H 	H 	0.68110 0.54580 0.84680 0.02700
C 	C 	0.71050 0.59560 0.81530 -0.11900
C 	C 	0.25730 0.75870 0.09963 0.07900
C 	C 	0.97460 0.48840 0.90955 0.08000
H 	H 	0.67450 0.60770 0.80680 0.06100
H 	H 	0.72460 0.56300 0.80450 0.05700
C 	C 	0.75210 0.64230 0.81460 -0.09100
N 	N 	0.27040 0.73030 0.12340 -0.13800
C 	C 	0.26720 0.81620 0.09655 -0.15400
N 	N 	0.00310 0.47915 0.88527 -0.13800
C 	C 	0.91820 0.47700 0.91252 -0.15000
H 	H 	0.73440 0.67800 0.82050 0.05500
H 	H 	0.78380 0.63430 0.82760 0.04900
C 	C 	0.77170 0.64580 0.78460 -0.04500
C 	C 	0.29270 0.75830 0.14510 0.08400
C 	C 	0.29080 0.84530 0.11945 0.11000
H 	H 	0.25810 0.83490 0.07930 0.07800
C 	C 	0.97480 0.45740 0.86314 0.08400
H 	H 	0.89960 0.48410 0.93010 0.07600
C 	C 	0.88870 0.45490 0.88921 0.10400
H 	H 	0.74020 0.65800 0.77240 0.03900
H 	H 	0.78340 0.60800 0.77820 0.03800
C 	C 	0.82060 0.68640 0.78090 -0.18000
C 	C 	0.30210 0.81550 0.14412 -0.15400
C 	C 	0.30800 0.72370 0.17078 0.04800
C 	C 	0.30280 0.90640 0.11785 -0.09900
C 	C 	0.91820 0.44540 0.86436 -0.15200
C 	C 	0.00760 0.44730 0.83708 0.04200
C 	C 	0.82790 0.44280 0.89034 -0.08500
H 	H 	0.85380 0.67310 0.79150 0.07600
H 	H 	0.81040 0.72420 0.78790 0.07800
C 	C 	0.83230 0.68740 0.74880 0.09100
H 	H 	0.31620 0.83430 0.16050 0.07700
C 	C 	0.30240 0.66740 0.17105 -0.11700
C 	C 	0.33000 0.74920 0.19510 -0.12400
C 	C 	0.29800 0.94030 0.14157 0.07200
C 	C 	0.31870 0.93100 0.09245 0.07400
H 	H 	0.89960 0.43060 0.84810 0.07800
C 	C 	0.98350 0.43090 0.81136 -0.11800
C 	C 	0.06710 0.45080 0.83738 -0.11600
C 	C 	0.80140 0.42500 0.91557 0.04600
C 	C 	0.79460 0.44910 0.86597 0.04900
H 	H 	0.79920 0.67580 0.73750 -0.00200
H 	H 	0.86480 0.66370 0.74360 -0.00200
C 	C 	0.84500 0.75160 0.74510 -0.45200
H 	H 	0.28580 0.64910 0.15510 0.07700
C 	C 	0.32050 0.63560 0.19431 0.06400
C 	C 	0.34710 0.71570 0.21708 0.06500
H 	H 	0.33300 0.78880 0.19630 0.06500
H 	H 	0.28670 0.92450 0.15930 0.00200
C 	C 	0.30950 0.99660 0.14004 -0.21200
C 	C 	0.33060 0.98730 0.09033 -0.20800
H 	H 	0.32140 0.90830 0.07580 0.00600
H 	H 	0.94390 0.42880 0.80970 0.06300
C 	C 	0.01670 0.41770 0.78848 0.06300
C 	C 	0.09660 0.43810 0.81303 0.07100
H 	H 	0.08620 0.46190 0.85420 0.07800
H 	H 	0.82290 0.42020 0.93250 0.01000
C 	C 	0.74330 0.41420 0.91610 -0.19700
C 	C 	0.73750 0.43830 0.86630 -0.19600
H 	H 	0.81160 0.46120 0.84870 0.00600
H 	H 	0.85410 0.75950 0.72510 0.15300
H 	H 	0.81280 0.77360 0.75100 0.15600
H 	H 	0.87760 0.76170 0.75700 0.15400
N 	N 	0.34350 0.65940 0.21752 -0.23800
H 	H 	0.31650 0.59600 0.19370 -0.00500
H 	H 	0.36270 0.73350 0.23340 -0.00900
H 	H 	0.30630 0.01900 0.15670 0.11000
C 	C 	0.32540 0.02070 0.11474 0.24400
H 	H 	0.34210 0.00310 0.07270 0.10400
H 	H 	0.99900 0.40610 0.77130 -0.00800
H 	H 	0.13610 0.44220 0.81340 -0.01300
H 	H 	0.72570 0.40190 0.93320 0.08900
C 	C 	0.71240 0.42170 0.89160 0.23100
H 	H 	0.71590 0.44220 0.84940 0.10300
O 	O 	0.33510 0.07700 0.11489 -0.26400
O 	O 	0.65610 0.41330 0.88963 -0.25700
N 	N 	0.43500 0.57040 0.21710 -0.23900
N 	N 	0.32660 0.54970 0.24743 -0.25900
C 	C 	0.35160 0.10290 0.08900 0.11000
C 	C 	0.62810 0.39710 0.91470 0.09700
C 	C 	0.45600 0.59640 0.19464 0.07500
C 	C 	0.44040 0.51400 0.21793 0.05800
C 	C 	0.29720 0.51700 0.23714 0.09200
H 	H 	0.32200 0.09760 0.07450 -0.00000
H 	H 	0.38630 0.08520 0.08190 0.00200
C 	C 	0.36150 0.16510 0.09370 -0.19400
H 	H 	0.63230 0.42600 0.92970 -0.00500
H 	H 	0.64310 0.36120 0.92190 0.00200
C 	C 	0.56560 0.39060 0.90590 -0.16500
C 	C 	0.48090 0.56990 0.17187 -0.12300
H 	H 	0.45380 0.63610 0.19420 -0.01100
H 	H 	0.42570 0.49440 0.23390 -0.00600
C 	C 	0.46630 0.48380 0.19661 -0.11600
S 	S 	0.25710 0.47148 0.22057 -0.07700
H 	H 	0.38980 0.16970 0.10890 0.08600
H 	H 	0.32620 0.18230 0.10050 0.09300
C 	C 	0.38130 0.19670 0.06710 -0.03200
H 	H 	0.55460 0.42260 0.89370 0.09200
H 	H 	0.54190 0.39140 0.92330 0.07100
C 	C 	0.55560 0.33480 0.88960 -0.05400
C 	C 	0.48660 0.51120 0.17226 0.03900
H 	H 	0.49400 0.59090 0.15600 0.07900
H 	H 	0.47030 0.44430 0.19840 0.06300
H 	H 	0.41690 0.18060 0.06010 0.03400
H 	H 	0.35300 0.19350 0.05180 0.03500
C 	C 	0.38950 0.25710 0.07500 -0.11400
H 	H 	0.54270 0.30590 0.90320 0.04400
H 	H 	0.59150 0.32190 0.88120 0.05300
C 	C 	0.51080 0.34150 0.86500 -0.09200
C 	C 	0.51070 0.48060 0.14744 0.08200
H 	H 	0.42450 0.26160 0.08610 0.05300
H 	H 	0.35780 0.27050 0.08680 0.05500
C 	C 	0.39290 0.29100 0.04690 -0.09200
H 	H 	0.52410 0.37020 0.85130 0.06000
H 	H 	0.50780 0.30560 0.85450 0.05700
C 	C 	0.45310 0.35810 0.87580 -0.12000
N 	N 	0.52220 0.51130 0.12452 -0.13700
C 	C 	0.51950 0.42290 0.14842 -0.15200
H 	H 	0.36890 0.27220 0.03260 0.05000
H 	H 	0.43190 0.28890 0.03990 0.05000
C 	C 	0.37560 0.35440 0.04820 -0.07900
H 	H 	0.43980 0.32930 0.88940 0.06300
H 	H 	0.45620 0.39390 0.88640 0.06500
C 	C 	0.41100 0.36460 0.85270 -0.01400
C 	C 	0.54290 0.48500 0.10141 0.08000
H 	H 	0.51180 0.40270 0.16540 0.07800
C 	C 	0.53940 0.39500 0.12450 0.10300
H 	H 	0.34480 0.35900 0.03430 0.04700
H 	H 	0.35890 0.36030 0.06730 0.04900
C 	C 	0.41590 0.40470 0.04320 -0.15500
H 	H 	0.42550 0.39210 0.83870 0.03300
H 	H 	0.40720 0.32830 0.84270 0.03200
C 	C 	0.35490 0.38290 0.86180 -0.20300
C 	C 	0.55150 0.42820 0.10067 -0.14700
C 	C 	0.55670 0.52180 0.07682 0.05100
C 	C 	0.55050 0.33420 0.12453 -0.08800
H 	H 	0.41940 0.39750 0.02250 0.06700
H 	H 	0.44870 0.38500 0.05130 0.06700
C 	C 	0.44750 0.46340 0.04150 0.04600
H 	H 	0.35870 0.41370 0.87580 0.08600
H 	H 	0.33550 0.35140 0.87130 0.08500
C 	C 	0.31860 0.40380 0.83570 0.09500
H 	H 	0.56580 0.41130 0.08380 0.07400
C 	C 	0.57750 0.49920 0.05152 -0.13400
C 	C 	0.55150 0.57920 0.07816 -0.12400
C 	C 	0.56760 0.30650 0.14862 0.05400
C 	C 	0.54250 0.30260 0.09957 0.05200
H 	H 	0.44500 0.47740 0.06130 0.01400
H 	H 	0.48710 0.45220 0.03900 0.00100
C 	C 	0.44340 0.51840 0.02330 -0.43600
H 	H 	0.31710 0.37390 0.82110 -0.00200
H 	H 	0.33670 0.43690 0.82710 -0.00400
C 	C 	0.25710 0.41950 0.84500 -0.46900
H 	H 	0.57980 0.45980 0.04910 0.06300
C 	C 	0.59500 0.53490 0.02991 0.07400
C 	C 	0.57090 0.61130 0.05514 0.06700
H 	H 	0.53510 0.59660 0.09430 0.08000
H 	H 	0.57250 0.32710 0.16580 0.01200
C 	C 	0.57810 0.24840 0.14889 -0.19900
C 	C 	0.55190 0.24510 0.09918 -0.19700
H 	H 	0.53050 0.32080 0.08260 0.00400
H 	H 	0.47220 0.54490 0.02970 0.15100
H 	H 	0.44910 0.50960 0.00310 0.14500
H 	H 	0.40630 0.53520 0.02590 0.14600
H 	H 	0.24940 0.40390 0.86390 0.15900
H 	H 	0.23040 0.40400 0.83120 0.16400
H 	H 	0.25320 0.46030 0.84560 0.16600
H 	H 	0.60770 0.51870 0.01250 -0.02100
H 	H 	0.56660 0.65080 0.05600 -0.01300
H 	H 	0.59080 0.23050 0.16580 0.10000
C 	C 	0.56960 0.21770 0.12377 0.23100
H 	H 	0.54630 0.22460 0.08210 0.10400
O 	O 	0.57820 0.16190 0.12083 -0.26500
C 	C 	0.59790 0.13350 0.14460 0.11900
H 	H 	0.56920 0.13360 0.15980 -0.00400
H 	H 	0.63210 0.15190 0.15200 -0.00000
C 	C 	0.61130 0.07300 0.13570 -0.19100
H 	H 	0.57810 0.05630 0.12640 0.09800
H 	H 	0.64240 0.07310 0.12170 0.09100
C 	C 	0.62770 0.03780 0.16160 -0.04400
H 	H 	0.65720 0.05820 0.17210 0.03700
H 	H 	0.59470 0.03520 0.17430 0.04100
C 	C 	0.64770 0.98130 0.15620 -0.08000
H 	H 	0.65340 0.96360 0.17510 0.04600
H 	H 	0.68520 0.98500 0.14740 0.05200
C 	C 	0.61510 0.94010 0.13820 -0.15000
H 	H 	0.57940 0.93170 0.14800 0.07300
H 	H 	0.60580 0.95830 0.11980 0.07500
C 	C 	0.64310 0.88890 0.13240 0.01700
H 	H 	0.65960 0.87660 0.15080 0.01800
H 	H 	0.67480 0.89840 0.11980 0.02500
C 	C 	0.61560 0.83750 0.11950 -0.23900
H 	H 	0.63980 0.80460 0.12310 0.09400
H 	H 	0.57940 0.83090 0.12930 0.09200
C 	C 	0.60510 0.84210 0.08790 0.15100
H 	H 	0.64030 0.84980 0.07750 -0.02000
H 	H 	0.57790 0.87230 0.08380 -0.01900
C 	C 	0.58090 0.78420 0.07950 -0.51200
H 	H 	0.61100 0.75630 0.07950 0.17400
H 	H 	0.56440 0.78650 0.06040 0.17200
H 	H 	0.55210 0.77320 0.09330 0.17300
Co	Co	0.13831 0.86169 0.75000 1.12400
Co	Co	0.86169 0.13831 0.25000 1.12400
Co	Co	0.63831 0.63831 -0.00000 1.12400
Co	Co	0.36169 0.36169 0.50000 1.12400
Co	Co	0.38740 0.61260 0.25000 1.12200
Co	Co	0.61260 0.38740 0.75000 1.12200
Co	Co	0.88740 0.88740 0.50000 1.12200
Co	Co	0.11260 0.11260 -0.00000 1.12200
