data_crystal

_cell_length_a 9.22000
_cell_length_b 10.75000
_cell_length_c 18.83100
_cell_angle_alpha 90.00000
_cell_angle_beta  90.00000
_cell_angle_gamma 104.08700

_symmetry_space_group_name_	'P 1'
_symmetry_space_group_name_H-M	'P 1'

loop_
_symmetry_equiv_pos_as_xyz
  x,y,z

loop_
_atom_site_label
_atom_site_type_symbol
_atom_site_fract_x
_atom_site_fract_y
_atom_site_fract_z
_atom_site_charge
Cd	Cd	0.50825 0.83577 0.38166 1.20600
Cd	Cd	0.49175 0.66423 0.88166 1.20600
Cd	Cd	0.49175 0.16423 0.61834 1.20600
Cd	Cd	0.50825 0.33577 0.11834 1.20600
H 	H 	0.64370 0.34890 0.36840 0.09300
H 	H 	0.05310 0.51930 0.29380 0.11200
H 	H 	0.93920 0.13840 0.32640 0.09800
H 	H 	0.01260 0.70330 0.35160 0.03100
H 	H 	0.86960 0.86530 0.36160 0.03400
H 	H 	0.58220 0.53800 0.32820 -0.00800
H 	H 	0.21600 0.18610 0.35570 0.02400
H 	H 	0.43780 0.20310 0.28280 0.03100
H 	H 	0.21090 0.43010 0.19840 -0.01100
H 	H 	0.18970 0.42090 0.45130 0.05300
H 	H 	0.01950 0.71830 0.50530 0.05000
H 	H 	0.35630 0.15110 0.86840 0.09400
H 	H 	0.94690 0.98070 0.79380 0.11400
H 	H 	0.06080 0.36160 0.82640 0.09900
H 	H 	0.98740 0.79670 0.85160 0.03000
H 	H 	0.13040 0.63470 0.86160 0.03700
H 	H 	0.41780 0.96200 0.82820 -0.00600
H 	H 	0.78400 0.31390 0.85570 0.02500
H 	H 	0.56220 0.29690 0.78280 0.03200
H 	H 	0.78910 0.06990 0.69840 -0.01000
H 	H 	0.81030 0.07910 0.95130 0.05300
H 	H 	0.98050 0.78170 0.00530 0.05000
H 	H 	0.35630 0.65110 0.63160 0.09400
H 	H 	0.94690 0.48070 0.70620 0.11300
H 	H 	0.06080 0.86160 0.67360 0.09900
H 	H 	0.98740 0.29670 0.64840 0.03200
H 	H 	0.13040 0.13470 0.63840 0.03500
H 	H 	0.41780 0.46200 0.67180 -0.00700
H 	H 	0.78400 0.81390 0.64430 0.02500
H 	H 	0.56220 0.79690 0.71720 0.03200
H 	H 	0.78910 0.56990 0.80160 -0.01100
H 	H 	0.81030 0.57910 0.54870 0.05300
H 	H 	0.98050 0.28170 0.49470 0.05000
H 	H 	0.64370 0.84890 0.13160 0.09400
H 	H 	0.05310 0.01930 0.20620 0.11400
H 	H 	0.93920 0.63840 0.17360 0.09900
H 	H 	0.01260 0.20330 0.14840 0.03000
H 	H 	0.86960 0.36530 0.13840 0.03700
H 	H 	0.58220 0.03800 0.17180 -0.00600
H 	H 	0.21600 0.68610 0.14430 0.02500
H 	H 	0.43780 0.70310 0.21720 0.03200
H 	H 	0.21090 0.93010 0.30160 -0.01000
H 	H 	0.18970 0.92090 0.04870 0.05300
H 	H 	0.01950 0.21830 0.99470 0.05000
C 	C 	0.77170 0.22400 0.34880 0.02400
C 	C 	0.73680 0.34260 0.35205 -0.15200
C 	C 	0.84200 0.45120 0.33076 0.16400
C 	C 	0.98350 0.44560 0.30821 -0.20900
C 	C 	0.01800 0.32750 0.30780 0.15500
C 	C 	0.91400 0.21710 0.32745 -0.14400
C 	C 	0.65880 0.10150 0.36671 0.29300
C 	C 	0.90930 0.68950 0.34792 0.01800
C 	C 	0.82960 0.77840 0.35320 -0.01400
C 	C 	0.67140 0.59950 0.33489 0.10300
C 	C 	0.24240 0.23710 0.31564 0.01600
C 	C 	0.36410 0.24730 0.27501 -0.01500
C 	C 	0.24150 0.37230 0.22815 0.10200
C 	C 	0.12680 0.58520 0.47314 -0.05600
C 	C 	0.11320 0.45260 0.47081 -0.02400
C 	C 	0.01150 0.63040 0.50306 -0.02100
C 	C 	0.26110 0.67540 0.44129 0.29800
C 	C 	0.22830 0.27600 0.84880 0.02400
C 	C 	0.26320 0.15740 0.85205 -0.15300
C 	C 	0.15800 0.04880 0.83076 0.16400
C 	C 	0.01650 0.05440 0.80821 -0.21200
C 	C 	0.98200 0.17250 0.80780 0.15700
C 	C 	0.08600 0.28290 0.82745 -0.14600
C 	C 	0.34120 0.39850 0.86671 0.29300
C 	C 	0.09070 0.81050 0.84792 0.02200
C 	C 	0.17040 0.72160 0.85320 -0.01600
C 	C 	0.32860 0.90050 0.83489 0.10400
C 	C 	0.75760 0.26290 0.81564 0.01700
C 	C 	0.63590 0.25270 0.77501 -0.01500
C 	C 	0.75850 0.12770 0.72815 0.10200
C 	C 	0.87320 0.91480 0.97314 -0.05600
C 	C 	0.88680 0.04740 0.97081 -0.02500
C 	C 	0.98850 0.86960 0.00306 -0.02100
C 	C 	0.73890 0.82460 0.94129 0.29800
C 	C 	0.22830 0.77600 0.65120 0.02400
C 	C 	0.26320 0.65740 0.64795 -0.15200
C 	C 	0.15800 0.54880 0.66924 0.16400
C 	C 	0.01650 0.55440 0.69179 -0.20900
C 	C 	0.98200 0.67250 0.69220 0.15500
C 	C 	0.08600 0.78290 0.67255 -0.14400
C 	C 	0.34120 0.89850 0.63329 0.29300
C 	C 	0.09070 0.31050 0.65208 0.01800
C 	C 	0.17040 0.22160 0.64680 -0.01400
C 	C 	0.32860 0.40050 0.66511 0.10300
C 	C 	0.75760 0.76290 0.68436 0.01600
C 	C 	0.63590 0.75270 0.72499 -0.01500
C 	C 	0.75850 0.62770 0.77185 0.10200
C 	C 	0.87320 0.41480 0.52686 -0.05600
C 	C 	0.88680 0.54740 0.52919 -0.02400
C 	C 	0.98850 0.36960 0.49694 -0.02100
C 	C 	0.73890 0.32460 0.55871 0.29800
C 	C 	0.77170 0.72400 0.15120 0.02400
C 	C 	0.73680 0.84260 0.14795 -0.15300
C 	C 	0.84200 0.95120 0.16924 0.16400
C 	C 	0.98350 0.94560 0.19179 -0.21200
C 	C 	0.01800 0.82750 0.19220 0.15700
C 	C 	0.91400 0.71710 0.17255 -0.14600
C 	C 	0.65880 0.60150 0.13329 0.29300
C 	C 	0.90930 0.18950 0.15208 0.02200
C 	C 	0.82960 0.27840 0.14680 -0.01600
C 	C 	0.67140 0.09950 0.16511 0.10400
C 	C 	0.24240 0.73710 0.18436 0.01700
C 	C 	0.36410 0.74730 0.22499 -0.01500
C 	C 	0.24150 0.87230 0.27185 0.10200
C 	C 	0.12680 0.08520 0.02686 -0.05600
C 	C 	0.11320 0.95260 0.02919 -0.02500
C 	C 	0.01150 0.13040 0.99694 -0.02100
C 	C 	0.26110 0.17540 0.05871 0.29800
N 	N 	0.68100 0.72240 0.34449 -0.22100
N 	N 	0.80820 0.57420 0.33599 -0.14900
N 	N 	0.36490 0.33280 0.21984 -0.22300
N 	N 	0.16540 0.31710 0.28599 -0.14900
N 	N 	0.31900 0.77760 0.84449 -0.22000
N 	N 	0.19180 0.92580 0.83599 -0.14900
N 	N 	0.63510 0.16720 0.71984 -0.22300
N 	N 	0.83460 0.18290 0.78599 -0.15000
N 	N 	0.31900 0.27760 0.65551 -0.22100
N 	N 	0.19180 0.42580 0.66401 -0.14900
N 	N 	0.63510 0.66720 0.78016 -0.22300
N 	N 	0.83460 0.68290 0.71401 -0.14900
N 	N 	0.68100 0.22240 0.15551 -0.22000
N 	N 	0.80820 0.07420 0.16401 -0.14900
N 	N 	0.36490 0.83280 0.28016 -0.22300
N 	N 	0.16540 0.81710 0.21401 -0.15000
O 	O 	0.53190 0.10340 0.38806 -0.34000
O 	O 	0.69910 0.00090 0.35611 -0.41600
O 	O 	0.27070 0.79370 0.44206 -0.38000
O 	O 	0.35910 0.62900 0.41272 -0.38000
O 	O 	0.46810 0.39660 0.88806 -0.34000
O 	O 	0.30090 0.49910 0.85611 -0.41600
O 	O 	0.72930 0.70630 0.94206 -0.38000
O 	O 	0.64090 0.87100 0.91272 -0.38000
O 	O 	0.46810 0.89660 0.61194 -0.34000
O 	O 	0.30090 0.99910 0.64389 -0.41600
O 	O 	0.72930 0.20630 0.55794 -0.38000
O 	O 	0.64090 0.37100 0.58728 -0.38000
O 	O 	0.53190 0.60340 0.11194 -0.34000
O 	O 	0.69910 0.50090 0.14389 -0.41600
O 	O 	0.27070 0.29370 0.05794 -0.38000
O 	O 	0.35910 0.12900 0.08728 -0.38000
