data_crystal

_cell_length_a 16.23260
_cell_length_b 33.00240
_cell_length_c 35.75030
_cell_angle_alpha 90.00000
_cell_angle_beta  90.00000
_cell_angle_gamma 90.00000

_symmetry_space_group_name_	'P 1'
_symmetry_space_group_name_H-M	'P 1'

loop_
_symmetry_equiv_pos_as_xyz
  x,y,z

loop_
_atom_site_label
_atom_site_type_symbol
_atom_site_fract_x
_atom_site_fract_y
_atom_site_fract_z
_atom_site_charge
O 	O 	0.41790 0.46001 0.40106 -0.68800
C 	C 	0.37040 0.43131 0.41018 0.52000
O 	O 	0.34770 0.42257 0.44291 -0.70000
C 	C 	0.34120 0.40596 0.37800 -0.19900
C 	C 	0.29090 0.37300 0.38276 0.09000
C 	C 	0.37030 0.41577 0.34228 0.09000
H 	H 	0.27220 0.36600 0.40710 -0.00700
C 	C 	0.26710 0.34964 0.35212 -0.14800
C 	C 	0.34590 0.39266 0.31219 -0.14700
H 	H 	0.40640 0.43810 0.33880 0.01500
H 	H 	0.23150 0.32710 0.35550 0.06800
C 	C 	0.29550 0.35957 0.31647 0.07000
H 	H 	0.36440 0.39980 0.28790 0.07700
C 	C 	0.26980 0.33590 0.28273 0.01600
C 	C 	0.26910 0.29397 0.28258 -0.09200
H 	H 	0.28180 0.27960 0.30490 0.05400
O 	O 	0.41790 0.96001 0.90106 -0.67700
C 	C 	0.37040 0.93131 0.91018 0.51500
O 	O 	0.34770 0.92257 0.94291 -0.66700
C 	C 	0.34120 0.90596 0.87800 -0.18500
C 	C 	0.29090 0.87300 0.88276 0.08600
C 	C 	0.37030 0.91577 0.84228 0.08600
H 	H 	0.27220 0.86600 0.90710 0.00900
C 	C 	0.26710 0.84964 0.85212 -0.13800
C 	C 	0.34590 0.89266 0.81219 -0.13900
H 	H 	0.40640 0.93810 0.83880 0.02100
H 	H 	0.23150 0.82710 0.85550 0.07200
C 	C 	0.29550 0.85957 0.81647 0.06700
H 	H 	0.36440 0.89980 0.78790 0.07800
C 	C 	0.26980 0.83590 0.78273 0.02100
C 	C 	0.26910 0.79397 0.78258 -0.09300
H 	H 	0.28180 0.77960 0.80490 0.05800
O 	O 	0.91790 0.46001 0.90106 -0.66900
C 	C 	0.87040 0.43131 0.91018 0.51600
O 	O 	0.84770 0.42257 0.94291 -0.66100
C 	C 	0.84120 0.40596 0.87800 -0.18000
C 	C 	0.79090 0.37300 0.88276 0.08700
C 	C 	0.87030 0.41577 0.84228 0.08700
H 	H 	0.77220 0.36600 0.90710 0.01300
C 	C 	0.76710 0.34964 0.85212 -0.13500
C 	C 	0.84590 0.39266 0.81219 -0.13600
H 	H 	0.90640 0.43810 0.83880 0.02600
H 	H 	0.73150 0.32710 0.85550 0.07600
C 	C 	0.79550 0.35957 0.81647 0.06900
H 	H 	0.86440 0.39980 0.78790 0.08100
C 	C 	0.76980 0.33590 0.78273 0.02500
C 	C 	0.76910 0.29397 0.78258 -0.09100
H 	H 	0.78180 0.27960 0.80490 0.06100
O 	O 	0.91790 0.96001 0.40106 -0.66600
C 	C 	0.87040 0.93131 0.41018 0.52000
O 	O 	0.84770 0.92257 0.44291 -0.68600
C 	C 	0.84120 0.90596 0.37800 -0.18900
C 	C 	0.79090 0.87300 0.38276 0.09000
C 	C 	0.87030 0.91577 0.34228 0.09100
H 	H 	0.77220 0.86600 0.40710 0.00000
C 	C 	0.76710 0.84964 0.35212 -0.14200
C 	C 	0.84590 0.89266 0.31219 -0.13900
H 	H 	0.90640 0.93810 0.33880 0.02600
H 	H 	0.73150 0.82710 0.35550 0.07200
C 	C 	0.79550 0.85957 0.31647 0.07200
H 	H 	0.86440 0.89980 0.28790 0.08300
C 	C 	0.76980 0.83590 0.28273 0.02200
C 	C 	0.76910 0.79397 0.28258 -0.09000
H 	H 	0.78180 0.77960 0.30490 0.05900
O 	O 	0.58210 0.53999 0.40106 -0.68600
C 	C 	0.62960 0.56869 0.41018 0.52200
O 	O 	0.65230 0.57743 0.44291 -0.69600
C 	C 	0.65880 0.59404 0.37800 -0.19500
C 	C 	0.70910 0.62700 0.38276 0.09200
C 	C 	0.62970 0.58423 0.34228 0.09200
H 	H 	0.72780 0.63400 0.40710 -0.00000
C 	C 	0.73290 0.65036 0.35212 -0.14500
C 	C 	0.65410 0.60734 0.31219 -0.14400
H 	H 	0.59360 0.56190 0.33880 0.01700
H 	H 	0.76850 0.67290 0.35550 0.07500
C 	C 	0.70450 0.64043 0.31647 0.07200
H 	H 	0.63560 0.60020 0.28790 0.07800
C 	C 	0.73020 0.66410 0.28273 0.02100
C 	C 	0.73090 0.70603 0.28258 -0.09000
H 	H 	0.71820 0.72040 0.30490 0.05700
O 	O 	0.58210 0.03999 0.90106 -0.68700
C 	C 	0.62960 0.06869 0.91018 0.51700
O 	O 	0.65230 0.07743 0.94291 -0.66900
C 	C 	0.65880 0.09404 0.87800 -0.18700
C 	C 	0.70910 0.12700 0.88276 0.08900
C 	C 	0.62970 0.08423 0.84228 0.08800
H 	H 	0.72780 0.13400 0.90710 0.01200
C 	C 	0.73290 0.15036 0.85212 -0.13800
C 	C 	0.65410 0.10734 0.81219 -0.14100
H 	H 	0.59360 0.06190 0.83880 0.01600
H 	H 	0.76850 0.17290 0.85550 0.07900
C 	C 	0.70450 0.14043 0.81647 0.07000
H 	H 	0.63560 0.10020 0.78790 0.07600
C 	C 	0.73020 0.16410 0.78273 0.02300
C 	C 	0.73090 0.20603 0.78258 -0.09100
H 	H 	0.71820 0.22040 0.80490 0.05900
O 	O 	0.08210 0.53999 0.90106 -0.69200
C 	C 	0.12960 0.56869 0.91018 0.51700
O 	O 	0.15230 0.57743 0.94291 -0.67200
C 	C 	0.15880 0.59404 0.87800 -0.19100
C 	C 	0.20910 0.62700 0.88276 0.08800
C 	C 	0.12970 0.58423 0.84228 0.08700
H 	H 	0.22780 0.63400 0.90710 0.00800
C 	C 	0.23290 0.65036 0.85212 -0.14100
C 	C 	0.15410 0.60734 0.81219 -0.14400
H 	H 	0.09360 0.56190 0.83880 0.01200
H 	H 	0.26850 0.67290 0.85550 0.07500
C 	C 	0.20450 0.64043 0.81647 0.06800
H 	H 	0.13560 0.60020 0.78790 0.07300
C 	C 	0.23020 0.66410 0.78273 0.02000
C 	C 	0.23090 0.70603 0.78258 -0.09200
H 	H 	0.21820 0.72040 0.80490 0.05600
O 	O 	0.08210 0.03999 0.40106 -0.69900
C 	C 	0.12960 0.06869 0.41018 0.52300
O 	O 	0.15230 0.07743 0.44291 -0.70100
C 	C 	0.15880 0.09404 0.37800 -0.20400
C 	C 	0.20910 0.12700 0.38276 0.09300
C 	C 	0.12970 0.08423 0.34228 0.09200
H 	H 	0.22780 0.13400 0.40710 -0.00600
C 	C 	0.23290 0.15036 0.35212 -0.15000
C 	C 	0.15410 0.10734 0.31219 -0.15000
H 	H 	0.09360 0.06190 0.33880 0.00700
H 	H 	0.26850 0.17290 0.35550 0.07200
C 	C 	0.20450 0.14043 0.31647 0.07100
H 	H 	0.13560 0.10020 0.28790 0.07300
C 	C 	0.23020 0.16410 0.28273 0.01500
C 	C 	0.23090 0.20603 0.28258 -0.09000
H 	H 	0.21820 0.22040 0.30490 0.05300
O 	O 	0.58210 0.46001 0.59894 -0.68600
C 	C 	0.62960 0.43131 0.58982 0.52100
O 	O 	0.65230 0.42257 0.55709 -0.69600
C 	C 	0.65880 0.40596 0.62200 -0.19500
C 	C 	0.70910 0.37300 0.61724 0.09200
C 	C 	0.62970 0.41577 0.65772 0.09200
H 	H 	0.72780 0.36600 0.59290 -0.00000
C 	C 	0.73290 0.34964 0.64788 -0.14500
C 	C 	0.65410 0.39266 0.68781 -0.14400
H 	H 	0.59360 0.43810 0.66120 0.01700
H 	H 	0.76850 0.32710 0.64450 0.07500
C 	C 	0.70450 0.35957 0.68353 0.07200
H 	H 	0.63560 0.39980 0.71210 0.07900
C 	C 	0.73020 0.33590 0.71727 0.02200
C 	C 	0.73090 0.29397 0.71742 -0.09100
H 	H 	0.71820 0.27960 0.69510 0.05700
O 	O 	0.58210 0.96001 0.09894 -0.67900
C 	C 	0.62960 0.93131 0.08982 0.52300
O 	O 	0.65230 0.92257 0.05709 -0.70400
C 	C 	0.65880 0.90596 0.12200 -0.19800
C 	C 	0.70910 0.87300 0.11724 0.09400
C 	C 	0.62970 0.91577 0.15772 0.09300
H 	H 	0.72780 0.86600 0.09290 -0.00800
C 	C 	0.73290 0.84964 0.14788 -0.14700
C 	C 	0.65410 0.89266 0.18781 -0.14500
H 	H 	0.59360 0.93810 0.16120 0.01900
H 	H 	0.76850 0.82710 0.14450 0.07300
C 	C 	0.70450 0.85957 0.18353 0.07300
H 	H 	0.63560 0.89980 0.21210 0.08000
C 	C 	0.73020 0.83590 0.21727 0.02100
C 	C 	0.73090 0.79397 0.21742 -0.09000
H 	H 	0.71820 0.77960 0.19510 0.05500
O 	O 	0.08210 0.46001 0.09894 -0.69500
C 	C 	0.12960 0.43131 0.08982 0.52400
O 	O 	0.15230 0.42257 0.05709 -0.71100
C 	C 	0.15880 0.40596 0.12200 -0.20700
C 	C 	0.20910 0.37300 0.11724 0.09400
C 	C 	0.12970 0.41577 0.15772 0.09300
H 	H 	0.22780 0.36600 0.09290 -0.01300
C 	C 	0.23290 0.34964 0.14788 -0.15300
C 	C 	0.15410 0.39266 0.18781 -0.15100
H 	H 	0.09360 0.43810 0.16120 0.00900
H 	H 	0.26850 0.32710 0.14450 0.06900
C 	C 	0.20450 0.35957 0.18353 0.07200
H 	H 	0.13560 0.39980 0.21210 0.07500
C 	C 	0.23020 0.33590 0.21727 0.01500
C 	C 	0.23090 0.29397 0.21742 -0.09100
H 	H 	0.21820 0.27960 0.19510 0.05100
O 	O 	0.08210 0.96001 0.59894 -0.68700
C 	C 	0.12960 0.93131 0.58982 0.52100
O 	O 	0.15230 0.92257 0.55709 -0.69600
C 	C 	0.15880 0.90596 0.62200 -0.19900
C 	C 	0.20910 0.87300 0.61724 0.09100
C 	C 	0.12970 0.91577 0.65772 0.09100
H 	H 	0.22780 0.86600 0.59290 -0.00400
C 	C 	0.23290 0.84964 0.64788 -0.14700
C 	C 	0.15410 0.89266 0.68781 -0.14700
H 	H 	0.09360 0.93810 0.66120 0.01300
H 	H 	0.26850 0.82710 0.64450 0.07200
C 	C 	0.20450 0.85957 0.68353 0.07000
H 	H 	0.13560 0.89980 0.71210 0.07600
C 	C 	0.23020 0.83590 0.71727 0.01900
C 	C 	0.23090 0.79397 0.71742 -0.09200
H 	H 	0.21820 0.77960 0.69510 0.05400
O 	O 	0.41790 0.53999 0.59894 -0.68700
C 	C 	0.37040 0.56869 0.58982 0.52100
O 	O 	0.34770 0.57743 0.55709 -0.69900
C 	C 	0.34120 0.59404 0.62200 -0.19800
C 	C 	0.29090 0.62700 0.61724 0.09100
C 	C 	0.37030 0.58423 0.65772 0.09100
H 	H 	0.27220 0.63400 0.59290 -0.00600
C 	C 	0.26710 0.65036 0.64788 -0.14700
C 	C 	0.34590 0.60734 0.68781 -0.14600
H 	H 	0.40640 0.56190 0.66120 0.01600
H 	H 	0.23150 0.67290 0.64450 0.06900
C 	C 	0.29550 0.64043 0.68353 0.07000
H 	H 	0.36440 0.60020 0.71210 0.07900
C 	C 	0.26980 0.66410 0.71727 0.01800
C 	C 	0.26910 0.70603 0.71742 -0.09100
H 	H 	0.28180 0.72040 0.69510 0.05500
O 	O 	0.41790 0.03999 0.09894 -0.69200
C 	C 	0.37040 0.06869 0.08982 0.52400
O 	O 	0.34770 0.07743 0.05709 -0.71200
C 	C 	0.34120 0.09404 0.12200 -0.20500
C 	C 	0.29090 0.12700 0.11724 0.09300
C 	C 	0.37030 0.08423 0.15772 0.09400
H 	H 	0.27220 0.13400 0.09290 -0.01500
C 	C 	0.26710 0.15036 0.14788 -0.15300
C 	C 	0.34590 0.10734 0.18781 -0.15000
H 	H 	0.40640 0.06190 0.16120 0.01200
H 	H 	0.23150 0.17290 0.14450 0.06700
C 	C 	0.29550 0.14043 0.18353 0.07200
H 	H 	0.36440 0.10020 0.21210 0.07800
C 	C 	0.26980 0.16410 0.21727 0.01400
C 	C 	0.26910 0.20603 0.21742 -0.09000
H 	H 	0.28180 0.22040 0.19510 0.05300
O 	O 	0.91790 0.53999 0.09894 -0.67300
C 	C 	0.87040 0.56869 0.08982 0.52300
O 	O 	0.84770 0.57743 0.05709 -0.70100
C 	C 	0.84120 0.59404 0.12200 -0.19600
C 	C 	0.79090 0.62700 0.11724 0.09300
C 	C 	0.87030 0.58423 0.15772 0.09400
H 	H 	0.77220 0.63400 0.09290 -0.00900
C 	C 	0.76710 0.65036 0.14788 -0.14700
C 	C 	0.84590 0.60734 0.18781 -0.14400
H 	H 	0.90640 0.56190 0.16120 0.02300
H 	H 	0.73150 0.67290 0.14450 0.07000
C 	C 	0.79550 0.64043 0.18353 0.07300
H 	H 	0.86440 0.60020 0.21210 0.08300
C 	C 	0.76980 0.66410 0.21727 0.02000
C 	C 	0.76910 0.70603 0.21742 -0.08900
H 	H 	0.78180 0.72040 0.19510 0.05700
O 	O 	0.91790 0.03999 0.59894 -0.67600
C 	C 	0.87040 0.06869 0.58982 0.52200
O 	O 	0.84770 0.07743 0.55709 -0.69000
C 	C 	0.84120 0.09404 0.62200 -0.19300
C 	C 	0.79090 0.12700 0.61724 0.09200
C 	C 	0.87030 0.08423 0.65772 0.09200
H 	H 	0.77220 0.13400 0.59290 -0.00100
C 	C 	0.76710 0.15036 0.64788 -0.14400
C 	C 	0.84590 0.10734 0.68781 -0.14300
H 	H 	0.90640 0.06190 0.66120 0.02100
H 	H 	0.73150 0.17290 0.64450 0.07200
C 	C 	0.79550 0.14043 0.68353 0.07200
H 	H 	0.86440 0.10020 0.71210 0.08200
C 	C 	0.76980 0.16410 0.71727 0.02200
C 	C 	0.76910 0.20603 0.71742 -0.09000
H 	H 	0.78180 0.22040 0.69510 0.05900
O 	O 	0.58210 0.53999 0.59894 -0.68600
C 	C 	0.62960 0.56869 0.58982 0.52100
O 	O 	0.65230 0.57743 0.55709 -0.69600
C 	C 	0.65880 0.59404 0.62200 -0.19500
C 	C 	0.70910 0.62700 0.61724 0.09200
C 	C 	0.62970 0.58423 0.65772 0.09200
H 	H 	0.72780 0.63400 0.59290 -0.00000
C 	C 	0.73290 0.65036 0.64788 -0.14500
C 	C 	0.65410 0.60734 0.68781 -0.14400
H 	H 	0.59360 0.56190 0.66120 0.01700
H 	H 	0.76850 0.67290 0.64450 0.07500
C 	C 	0.70450 0.64043 0.68353 0.07200
H 	H 	0.63560 0.60020 0.71210 0.07900
C 	C 	0.73020 0.66410 0.71727 0.02200
C 	C 	0.73090 0.70603 0.71742 -0.09100
H 	H 	0.71820 0.72040 0.69510 0.05700
O 	O 	0.58210 0.03999 0.09894 -0.69100
C 	C 	0.62960 0.06869 0.08982 0.52400
O 	O 	0.65230 0.07743 0.05709 -0.70800
C 	C 	0.65880 0.09404 0.12200 -0.20300
C 	C 	0.70910 0.12700 0.11724 0.09500
C 	C 	0.62970 0.08423 0.15772 0.09500
H 	H 	0.72780 0.13400 0.09290 -0.00900
C 	C 	0.73290 0.15036 0.14788 -0.15000
C 	C 	0.65410 0.10734 0.18781 -0.14800
H 	H 	0.59360 0.06190 0.16120 0.01300
H 	H 	0.76850 0.17290 0.14450 0.07300
C 	C 	0.70450 0.14043 0.18353 0.07400
H 	H 	0.63560 0.10020 0.21210 0.07800
C 	C 	0.73020 0.16410 0.21727 0.01800
C 	C 	0.73090 0.20603 0.21742 -0.08900
H 	H 	0.71820 0.22040 0.19510 0.05500
O 	O 	0.08210 0.53999 0.09894 -0.69500
C 	C 	0.12960 0.56869 0.08982 0.52400
O 	O 	0.15230 0.57743 0.05709 -0.71100
C 	C 	0.15880 0.59404 0.12200 -0.20600
C 	C 	0.20910 0.62700 0.11724 0.09400
C 	C 	0.12970 0.58423 0.15772 0.09300
H 	H 	0.22780 0.63400 0.09290 -0.01300
C 	C 	0.23290 0.65036 0.14788 -0.15300
C 	C 	0.15410 0.60734 0.18781 -0.15100
H 	H 	0.09360 0.56190 0.16120 0.00900
H 	H 	0.26850 0.67290 0.14450 0.06900
C 	C 	0.20450 0.64043 0.18353 0.07200
H 	H 	0.13560 0.60020 0.21210 0.07500
C 	C 	0.23020 0.66410 0.21727 0.01500
C 	C 	0.23090 0.70603 0.21742 -0.09000
H 	H 	0.21820 0.72040 0.19510 0.05100
O 	O 	0.08210 0.03999 0.59894 -0.69900
C 	C 	0.12960 0.06869 0.58982 0.52300
O 	O 	0.15230 0.07743 0.55709 -0.70100
C 	C 	0.15880 0.09404 0.62200 -0.20400
C 	C 	0.20910 0.12700 0.61724 0.09300
C 	C 	0.12970 0.08423 0.65772 0.09200
H 	H 	0.22780 0.13400 0.59290 -0.00600
C 	C 	0.23290 0.15036 0.64788 -0.15000
C 	C 	0.15410 0.10734 0.68781 -0.15100
H 	H 	0.09360 0.06190 0.66120 0.00700
H 	H 	0.26850 0.17290 0.64450 0.07200
C 	C 	0.20450 0.14043 0.68353 0.07100
H 	H 	0.13560 0.10020 0.71210 0.07400
C 	C 	0.23020 0.16410 0.71727 0.01600
C 	C 	0.23090 0.20603 0.71742 -0.09100
H 	H 	0.21820 0.22040 0.69510 0.05300
O 	O 	0.41790 0.46001 0.59894 -0.68700
C 	C 	0.37040 0.43131 0.58982 0.52100
O 	O 	0.34770 0.42257 0.55709 -0.69900
C 	C 	0.34120 0.40596 0.62200 -0.19800
C 	C 	0.29090 0.37300 0.61724 0.09000
C 	C 	0.37030 0.41577 0.65772 0.09100
H 	H 	0.27220 0.36600 0.59290 -0.00600
C 	C 	0.26710 0.34964 0.64788 -0.14700
C 	C 	0.34590 0.39266 0.68781 -0.14600
H 	H 	0.40640 0.43810 0.66120 0.01600
H 	H 	0.23150 0.32710 0.64450 0.06900
C 	C 	0.29550 0.35957 0.68353 0.07000
H 	H 	0.36440 0.39980 0.71210 0.07900
C 	C 	0.26980 0.33590 0.71727 0.01800
C 	C 	0.26910 0.29397 0.71742 -0.09200
H 	H 	0.28180 0.27960 0.69510 0.05500
O 	O 	0.41790 0.96001 0.09894 -0.68000
C 	C 	0.37040 0.93131 0.08982 0.52200
O 	O 	0.34770 0.92257 0.05709 -0.70700
C 	C 	0.34120 0.90596 0.12200 -0.20100
C 	C 	0.29090 0.87300 0.11724 0.09200
C 	C 	0.37030 0.91577 0.15772 0.09300
H 	H 	0.27220 0.86600 0.09290 -0.01300
C 	C 	0.26710 0.84964 0.14788 -0.15000
C 	C 	0.34590 0.89266 0.18781 -0.14700
H 	H 	0.40640 0.93810 0.16120 0.01800
H 	H 	0.23150 0.82710 0.14450 0.06700
C 	C 	0.29550 0.85957 0.18353 0.07100
H 	H 	0.36440 0.89980 0.21210 0.08000
C 	C 	0.26980 0.83590 0.21727 0.01700
C 	C 	0.26910 0.79397 0.21742 -0.09100
H 	H 	0.28180 0.77960 0.19510 0.05300
O 	O 	0.91790 0.46001 0.09894 -0.67300
C 	C 	0.87040 0.43131 0.08982 0.52300
O 	O 	0.84770 0.42257 0.05709 -0.70100
C 	C 	0.84120 0.40596 0.12200 -0.19600
C 	C 	0.79090 0.37300 0.11724 0.09300
C 	C 	0.87030 0.41577 0.15772 0.09400
H 	H 	0.77220 0.36600 0.09290 -0.00900
C 	C 	0.76710 0.34964 0.14788 -0.14700
C 	C 	0.84590 0.39266 0.18781 -0.14400
H 	H 	0.90640 0.43810 0.16120 0.02300
H 	H 	0.73150 0.32710 0.14450 0.07000
C 	C 	0.79550 0.35957 0.18353 0.07300
H 	H 	0.86440 0.39980 0.21210 0.08300
C 	C 	0.76980 0.33590 0.21727 0.02000
C 	C 	0.76910 0.29397 0.21742 -0.08900
H 	H 	0.78180 0.27960 0.19510 0.05700
O 	O 	0.91790 0.96001 0.59894 -0.66600
C 	C 	0.87040 0.93131 0.58982 0.52000
O 	O 	0.84770 0.92257 0.55709 -0.68600
C 	C 	0.84120 0.90596 0.62200 -0.18900
C 	C 	0.79090 0.87300 0.61724 0.09000
C 	C 	0.87030 0.91577 0.65772 0.09100
H 	H 	0.77220 0.86600 0.59290 0.00000
C 	C 	0.76710 0.84964 0.64788 -0.14200
C 	C 	0.84590 0.89266 0.68781 -0.14000
H 	H 	0.90640 0.93810 0.66120 0.02600
H 	H 	0.73150 0.82710 0.64450 0.07200
C 	C 	0.79550 0.85957 0.68353 0.07100
H 	H 	0.86440 0.89980 0.71210 0.08400
C 	C 	0.76980 0.83590 0.71727 0.02400
C 	C 	0.76910 0.79397 0.71742 -0.09100
H 	H 	0.78180 0.77960 0.69510 0.05900
O 	O 	0.41790 0.53999 0.40106 -0.68700
C 	C 	0.37040 0.56869 0.41018 0.52100
O 	O 	0.34770 0.57743 0.44291 -0.69900
C 	C 	0.34120 0.59404 0.37800 -0.19800
C 	C 	0.29090 0.62700 0.38276 0.09100
C 	C 	0.37030 0.58423 0.34228 0.09100
H 	H 	0.27220 0.63400 0.40710 -0.00500
C 	C 	0.26710 0.65036 0.35212 -0.14700
C 	C 	0.34590 0.60734 0.31219 -0.14600
H 	H 	0.40640 0.56190 0.33880 0.01600
H 	H 	0.23150 0.67290 0.35550 0.06900
C 	C 	0.29550 0.64043 0.31647 0.07100
H 	H 	0.36440 0.60020 0.28790 0.07800
C 	C 	0.26980 0.66410 0.28273 0.01600
C 	C 	0.26910 0.70603 0.28258 -0.09100
H 	H 	0.28180 0.72040 0.30490 0.05500
O 	O 	0.41790 0.03999 0.90106 -0.68800
C 	C 	0.37040 0.06869 0.91018 0.51600
O 	O 	0.34770 0.07743 0.94291 -0.67200
C 	C 	0.34120 0.09404 0.87800 -0.19000
C 	C 	0.29090 0.12700 0.88276 0.08700
C 	C 	0.37030 0.08423 0.84228 0.08700
H 	H 	0.27220 0.13400 0.90710 0.00700
C 	C 	0.26710 0.15036 0.85212 -0.14100
C 	C 	0.34590 0.10734 0.81219 -0.14200
H 	H 	0.40640 0.06190 0.83880 0.01600
H 	H 	0.23150 0.17290 0.85550 0.07200
C 	C 	0.29550 0.14043 0.81647 0.06800
H 	H 	0.36440 0.10020 0.78790 0.07600
C 	C 	0.26980 0.16410 0.78273 0.01900
C 	C 	0.26910 0.20603 0.78258 -0.09200
H 	H 	0.28180 0.22040 0.80490 0.05800
O 	O 	0.91790 0.53999 0.90106 -0.67000
C 	C 	0.87040 0.56869 0.91018 0.51600
O 	O 	0.84770 0.57743 0.94291 -0.66100
C 	C 	0.84120 0.59404 0.87800 -0.18100
C 	C 	0.79090 0.62700 0.88276 0.08700
C 	C 	0.87030 0.58423 0.84228 0.08700
H 	H 	0.77220 0.63400 0.90710 0.01300
C 	C 	0.76710 0.65036 0.85212 -0.13500
C 	C 	0.84590 0.60734 0.81219 -0.13600
H 	H 	0.90640 0.56190 0.83880 0.02600
H 	H 	0.73150 0.67290 0.85550 0.07600
C 	C 	0.79550 0.64043 0.81647 0.06900
H 	H 	0.86440 0.60020 0.78790 0.08100
C 	C 	0.76980 0.66410 0.78273 0.02500
C 	C 	0.76910 0.70603 0.78258 -0.09100
H 	H 	0.78180 0.72040 0.80490 0.06100
O 	O 	0.91790 0.03999 0.40106 -0.67600
C 	C 	0.87040 0.06869 0.41018 0.52200
O 	O 	0.84770 0.07743 0.44291 -0.69000
C 	C 	0.84120 0.09404 0.37800 -0.19300
C 	C 	0.79090 0.12700 0.38276 0.09200
C 	C 	0.87030 0.08423 0.34228 0.09200
H 	H 	0.77220 0.13400 0.40710 -0.00100
C 	C 	0.76710 0.15036 0.35212 -0.14400
C 	C 	0.84590 0.10734 0.31219 -0.14200
H 	H 	0.90640 0.06190 0.33880 0.02100
H 	H 	0.73150 0.17290 0.35550 0.07300
C 	C 	0.79550 0.14043 0.31647 0.07200
H 	H 	0.86440 0.10020 0.28790 0.08100
C 	C 	0.76980 0.16410 0.28273 0.02000
C 	C 	0.76910 0.20603 0.28258 -0.08900
H 	H 	0.78180 0.22040 0.30490 0.05800
O 	O 	0.58210 0.46001 0.40106 -0.68600
C 	C 	0.62960 0.43131 0.41018 0.52200
O 	O 	0.65230 0.42257 0.44291 -0.69600
C 	C 	0.65880 0.40596 0.37800 -0.19500
C 	C 	0.70910 0.37300 0.38276 0.09200
C 	C 	0.62970 0.41577 0.34228 0.09200
H 	H 	0.72780 0.36600 0.40710 -0.00000
C 	C 	0.73290 0.34964 0.35212 -0.14500
C 	C 	0.65410 0.39266 0.31219 -0.14400
H 	H 	0.59360 0.43810 0.33880 0.01700
H 	H 	0.76850 0.32710 0.35550 0.07500
C 	C 	0.70450 0.35957 0.31647 0.07200
H 	H 	0.63560 0.39980 0.28790 0.07800
C 	C 	0.73020 0.33590 0.28273 0.02100
C 	C 	0.73090 0.29397 0.28258 -0.09000
H 	H 	0.71820 0.27960 0.30490 0.05700
O 	O 	0.58210 0.96001 0.90106 -0.67600
C 	C 	0.62960 0.93131 0.91018 0.51500
O 	O 	0.65230 0.92257 0.94291 -0.66400
C 	C 	0.65880 0.90596 0.87800 -0.18200
C 	C 	0.70910 0.87300 0.88276 0.08800
C 	C 	0.62970 0.91577 0.84228 0.08700
H 	H 	0.72780 0.86600 0.90710 0.01400
C 	C 	0.73290 0.84964 0.85212 -0.13600
C 	C 	0.65410 0.89266 0.81219 -0.13700
H 	H 	0.59360 0.93810 0.83880 0.02200
H 	H 	0.76850 0.82710 0.85550 0.07800
C 	C 	0.70450 0.85957 0.81647 0.06900
H 	H 	0.63560 0.89980 0.78790 0.07800
C 	C 	0.73020 0.83590 0.78273 0.02500
C 	C 	0.73090 0.79397 0.78258 -0.09200
H 	H 	0.71820 0.77960 0.80490 0.06000
O 	O 	0.08210 0.46001 0.90106 -0.69200
C 	C 	0.12960 0.43131 0.91018 0.51700
O 	O 	0.15230 0.42257 0.94291 -0.67200
C 	C 	0.15880 0.40596 0.87800 -0.19100
C 	C 	0.20910 0.37300 0.88276 0.08800
C 	C 	0.12970 0.41577 0.84228 0.08700
H 	H 	0.22780 0.36600 0.90710 0.00800
C 	C 	0.23290 0.34964 0.85212 -0.14100
C 	C 	0.15410 0.39266 0.81219 -0.14400
H 	H 	0.09360 0.43810 0.83880 0.01200
H 	H 	0.26850 0.32710 0.85550 0.07500
C 	C 	0.20450 0.35957 0.81647 0.06800
H 	H 	0.13560 0.39980 0.78790 0.07300
C 	C 	0.23020 0.33590 0.78273 0.02000
C 	C 	0.23090 0.29397 0.78258 -0.09300
H 	H 	0.21820 0.27960 0.80490 0.05600
O 	O 	0.08210 0.96001 0.40106 -0.68700
C 	C 	0.12960 0.93131 0.41018 0.52200
O 	O 	0.15230 0.92257 0.44291 -0.69600
C 	C 	0.15880 0.90596 0.37800 -0.19900
C 	C 	0.20910 0.87300 0.38276 0.09100
C 	C 	0.12970 0.91577 0.34228 0.09100
H 	H 	0.22780 0.86600 0.40710 -0.00400
C 	C 	0.23290 0.84964 0.35212 -0.14700
C 	C 	0.15410 0.89266 0.31219 -0.14700
H 	H 	0.09360 0.93810 0.33880 0.01300
H 	H 	0.26850 0.82710 0.35550 0.07200
C 	C 	0.20450 0.85957 0.31647 0.07000
H 	H 	0.13560 0.89980 0.28790 0.07500
C 	C 	0.23020 0.83590 0.28273 0.01700
C 	C 	0.23090 0.79397 0.28258 -0.09100
H 	H 	0.21820 0.77960 0.30490 0.05300
Zr	Zr	0.50000 0.50000 0.43188 3.21800
Zr	Zr	0.50000 0.00000 0.93188 3.21600
Zr	Zr	0.00000 0.50000 0.93188 3.21500
Zr	Zr	-0.00000 -0.00000 0.43188 3.21300
Zr	Zr	0.50000 0.50000 0.56812 3.21800
Zr	Zr	0.50000 -0.00000 0.06812 3.21700
Zr	Zr	0.00000 0.50000 0.06812 3.21500
Zr	Zr	0.00000 -0.00000 0.56812 3.21300
O 	O 	0.60810 0.50000 0.46727 -1.40500
H 	H 	0.65800 0.50000 0.45090 0.24200
O 	O 	0.60810 0.00000 0.96727 -1.37800
H 	H 	0.65800 0.00000 0.95090 0.24800
O 	O 	0.10810 0.50000 0.96727 -1.37400
H 	H 	0.15800 0.50000 0.95090 0.25200
O 	O 	0.10810 0.00000 0.46727 -1.41400
H 	H 	0.15800 0.00000 0.45090 0.23800
O 	O 	0.39190 0.50000 0.46727 -1.40500
H 	H 	0.34200 0.50000 0.45090 0.24000
O 	O 	0.39190 0.00000 0.96727 -1.37800
H 	H 	0.34200 0.00000 0.95090 0.24500
O 	O 	0.89190 0.50000 0.96727 -1.35800
H 	H 	0.84200 0.50000 0.95090 0.24800
O 	O 	0.89190 0.00000 0.46727 -1.39600
H 	H 	0.84200 0.00000 0.45090 0.23500
O 	O 	0.39190 0.50000 0.53273 -1.40500
H 	H 	0.34200 0.50000 0.54910 0.24000
O 	O 	0.39190 -0.00000 0.03273 -1.43000
H 	H 	0.34200 -0.00000 0.04910 0.23800
O 	O 	0.89190 0.50000 0.03273 -1.41000
H 	H 	0.84200 0.50000 0.04910 0.24100
O 	O 	0.89190 -0.00000 0.53273 -1.39600
H 	H 	0.84200 -0.00000 0.54910 0.23500
O 	O 	0.60810 0.50000 0.53273 -1.40500
H 	H 	0.65800 0.50000 0.54910 0.24200
O 	O 	0.60810 -0.00000 0.03273 -1.43100
H 	H 	0.65800 -0.00000 0.04910 0.24100
O 	O 	0.10810 0.50000 0.03273 -1.42600
H 	H 	0.15800 0.50000 0.04910 0.24400
O 	O 	0.10810 -0.00000 0.53273 -1.41400
H 	H 	0.15800 -0.00000 0.54910 0.23800
O 	O 	0.50000 0.55353 0.46687 -1.42400
H 	H 	0.50000 0.57810 0.45040 0.18900
O 	O 	0.50000 0.05353 0.96687 -1.39500
H 	H 	0.50000 0.07810 0.95040 0.19300
O 	O 	-0.00000 0.55353 0.96687 -1.40700
H 	H 	-0.00000 0.57810 0.95040 0.18400
O 	O 	0.00000 0.05353 0.46687 -1.43800
H 	H 	-0.00000 0.07810 0.45040 0.18100
O 	O 	0.50000 0.44647 0.46687 -1.42400
H 	H 	0.50000 0.42190 0.45040 0.18800
O 	O 	0.50000 0.94647 0.96687 -1.38700
H 	H 	0.50000 0.92190 0.95040 0.19100
O 	O 	-0.00000 0.44647 0.96687 -1.40700
H 	H 	0.00000 0.42190 0.95040 0.18400
O 	O 	0.00000 0.94647 0.46687 -1.42900
H 	H 	0.00000 0.92190 0.45040 0.18000
O 	O 	0.50000 0.55353 0.53313 -1.42400
H 	H 	0.50000 0.57810 0.54960 0.18900
O 	O 	0.50000 0.05353 0.03313 -1.44700
H 	H 	0.50000 0.07810 0.04960 0.18600
O 	O 	-0.00000 0.55353 0.03313 -1.45800
H 	H 	0.00000 0.57810 0.04960 0.17800
O 	O 	-0.00000 0.05353 0.53313 -1.43800
H 	H 	-0.00000 0.07810 0.54960 0.18100
O 	O 	0.50000 0.44647 0.53313 -1.42400
H 	H 	0.50000 0.42190 0.54960 0.18800
O 	O 	0.50000 0.94647 0.03313 -1.43900
H 	H 	0.50000 0.92190 0.04960 0.18400
O 	O 	0.00000 0.44647 0.03313 -1.45800
H 	H 	-0.00000 0.42190 0.04960 0.17800
O 	O 	-0.00000 0.94647 0.53313 -1.42900
H 	H 	0.00000 0.92190 0.54960 0.18000
Zr	Zr	0.60953 0.55389 0.50000 3.19900
O 	O 	0.74170 0.54785 0.50000 -0.76200
H 	H 	0.75430 0.52320 0.50000 0.25200
Zr	Zr	0.60953 0.05389 -0.00000 3.19100
O 	O 	0.74170 0.04785 -0.00000 -0.79500
H 	H 	0.75430 0.02320 -0.00000 0.24100
Zr	Zr	0.10953 0.55389 -0.00000 3.19000
O 	O 	0.24170 0.54785 -0.00000 -0.79900
H 	H 	0.25430 0.52320 -0.00000 0.24500
Zr	Zr	0.10953 0.05389 0.50000 3.19900
O 	O 	0.24170 0.04785 0.50000 -0.76700
H 	H 	0.25430 0.02320 0.50000 0.24500
Zr	Zr	0.39047 0.44611 0.50000 3.19900
O 	O 	0.25830 0.45215 0.50000 -0.77000
H 	H 	0.24570 0.47680 0.50000 0.24900
Zr	Zr	0.39047 0.94611 -0.00000 3.19200
O 	O 	0.25830 0.95215 -0.00000 -0.80000
H 	H 	0.24570 0.97680 -0.00000 0.25200
Zr	Zr	0.89047 0.44611 -0.00000 3.19300
O 	O 	0.75830 0.45215 -0.00000 -0.79700
H 	H 	0.74570 0.47680 -0.00000 0.24500
Zr	Zr	0.89047 0.94611 0.50000 3.20300
O 	O 	0.75830 0.95215 0.50000 -0.76200
H 	H 	0.74570 0.97680 0.50000 0.25800
Zr	Zr	0.39047 0.55389 0.50000 3.19900
O 	O 	0.25830 0.54785 0.50000 -0.77000
H 	H 	0.24570 0.52320 0.50000 0.24900
Zr	Zr	0.39047 0.05389 -0.00000 3.19000
O 	O 	0.25830 0.04785 -0.00000 -0.80200
H 	H 	0.24570 0.02320 -0.00000 0.23800
Zr	Zr	0.89047 0.55389 -0.00000 3.19300
O 	O 	0.75830 0.54785 -0.00000 -0.79700
H 	H 	0.74570 0.52320 -0.00000 0.24500
Zr	Zr	0.89047 0.05389 0.50000 3.20200
O 	O 	0.75830 0.04785 0.50000 -0.76500
H 	H 	0.74570 0.02320 0.50000 0.24500
Zr	Zr	0.60953 0.44611 0.50000 3.19900
O 	O 	0.74170 0.45215 0.50000 -0.76200
H 	H 	0.75430 0.47680 0.50000 0.25200
Zr	Zr	0.60953 0.94611 -0.00000 3.19200
O 	O 	0.74170 0.95215 -0.00000 -0.79200
H 	H 	0.75430 0.97680 -0.00000 0.25400
Zr	Zr	0.10953 0.44611 -0.00000 3.19000
O 	O 	0.24170 0.45215 -0.00000 -0.79900
H 	H 	0.25430 0.47680 -0.00000 0.24500
Zr	Zr	0.10953 0.94611 0.50000 3.20000
O 	O 	0.24170 0.95215 0.50000 -0.76400
H 	H 	0.25430 0.97680 0.50000 0.25900
C 	C 	0.25000 0.35676 0.25000 -0.08700
C 	C 	0.25000 0.27231 0.25000 0.02800
H 	H 	0.25000 0.38550 0.25000 0.05700
C 	C 	0.25000 0.85676 0.75000 -0.09000
C 	C 	0.25000 0.77231 0.75000 0.03000
H 	H 	0.25000 0.88550 0.75000 0.06100
C 	C 	0.75000 0.64324 0.25000 -0.08700
C 	C 	0.75000 0.72769 0.25000 0.03200
H 	H 	0.75000 0.61450 0.25000 0.06000
C 	C 	0.75000 0.14324 0.75000 -0.08800
C 	C 	0.75000 0.22769 0.75000 0.03300
H 	H 	0.75000 0.11450 0.75000 0.06000
C 	C 	0.25000 0.14324 0.25000 -0.08600
C 	C 	0.25000 0.22769 0.25000 0.02700
H 	H 	0.25000 0.11450 0.25000 0.05600
C 	C 	0.75000 0.35676 0.75000 -0.08900
C 	C 	0.75000 0.27231 0.75000 0.03400
H 	H 	0.75000 0.38550 0.75000 0.06200
C 	C 	0.75000 0.85676 0.25000 -0.08800
C 	C 	0.75000 0.77231 0.25000 0.03200
H 	H 	0.75000 0.88550 0.25000 0.06200
C 	C 	0.25000 0.64324 0.75000 -0.08900
C 	C 	0.25000 0.72769 0.75000 0.02900
H 	H 	0.25000 0.61450 0.75000 0.05900
C 	C 	0.75000 0.64324 0.75000 -0.08900
C 	C 	0.75000 0.72769 0.75000 0.03300
H 	H 	0.75000 0.61450 0.75000 0.06200
C 	C 	0.75000 0.14324 0.25000 -0.08600
C 	C 	0.75000 0.22769 0.25000 0.03100
H 	H 	0.75000 0.11450 0.25000 0.05900
C 	C 	0.25000 0.64324 0.25000 -0.08700
C 	C 	0.25000 0.72769 0.25000 0.02800
H 	H 	0.25000 0.61450 0.25000 0.05700
C 	C 	0.25000 0.35676 0.75000 -0.08900
C 	C 	0.25000 0.27231 0.75000 0.03000
H 	H 	0.25000 0.38550 0.75000 0.05900
C 	C 	0.25000 0.85676 0.25000 -0.08800
C 	C 	0.25000 0.77231 0.25000 0.02800
H 	H 	0.25000 0.88550 0.25000 0.05900
C 	C 	0.25000 0.14324 0.75000 -0.08800
C 	C 	0.25000 0.22769 0.75000 0.02900
H 	H 	0.25000 0.11450 0.75000 0.05700
C 	C 	0.75000 0.35676 0.25000 -0.08700
C 	C 	0.75000 0.27231 0.25000 0.03200
H 	H 	0.75000 0.38550 0.25000 0.06100
C 	C 	0.75000 0.85676 0.75000 -0.08900
C 	C 	0.75000 0.77231 0.75000 0.03400
H 	H 	0.75000 0.88550 0.75000 0.06400
