data_crystal

_cell_length_a 9.51930
_cell_length_b 10.95340
_cell_length_c 11.49350
_cell_angle_alpha 91.78600
_cell_angle_beta  113.80000
_cell_angle_gamma 105.46900

_symmetry_space_group_name_	'P 1'
_symmetry_space_group_name_H-M	'P 1'

loop_
_symmetry_equiv_pos_as_xyz
  x,y,z

loop_
_atom_site_label
_atom_site_type_symbol
_atom_site_fract_x
_atom_site_fract_y
_atom_site_fract_z
_atom_site_charge
Co	Co	0.00000 0.50000 0.50000 1.11800
Mo	Mo	0.41889 0.62111 0.74983 1.13300
Mo	Mo	0.51151 0.64734 0.06347 1.05600
Mo	Mo	0.52394 0.92865 0.86002 1.01200
Mo	Mo	0.58111 0.37889 0.25017 1.13300
Mo	Mo	0.48849 0.35266 0.93653 1.03400
Mo	Mo	0.47606 0.07135 0.13998 1.06500
H 	H 	0.88980 0.57060 0.22200 -0.04600
H 	H 	0.25060 0.76320 0.54070 -0.04000
H 	H 	0.33140 0.91960 0.43210 0.05300
H 	H 	0.18710 0.90230 0.21170 -0.08000
H 	H 	0.94970 0.58240 0.73500 0.01700
H 	H 	0.79860 0.68120 0.39480 -0.04100
H 	H 	0.67110 0.80810 0.45010 0.01000
H 	H 	0.68060 0.82060 0.65570 0.00900
H 	H 	0.13060 0.76820 0.89620 0.08100
H 	H 	0.19870 0.77850 0.03900 0.07900
H 	H 	0.11020 0.42940 0.77800 0.04600
H 	H 	0.74940 0.23680 0.45930 0.00200
H 	H 	0.66860 0.08040 0.56790 0.03100
H 	H 	0.81290 0.09770 0.78830 0.02500
H 	H 	0.05030 0.41760 0.26500 -0.01000
H 	H 	0.20140 0.31880 0.60520 -0.04500
H 	H 	0.32890 0.19190 0.54990 0.02400
H 	H 	0.31940 0.17940 0.34430 0.02200
H 	H 	0.86940 0.23180 0.10380 0.10700
H 	H 	0.80130 0.22150 0.96100 0.03600
C 	C 	0.91150 0.71530 0.05700 0.19400
C 	C 	0.02010 0.73320 0.19440 -0.25500
C 	C 	0.98010 0.64170 0.26480 0.18700
C 	C 	0.19230 0.75420 0.45200 0.07900
C 	C 	0.24090 0.84930 0.38710 -0.21700
C 	C 	0.15560 0.83990 0.25680 0.10800
C 	C 	0.82360 0.70080 0.84770 0.08300
C 	C 	0.81770 0.70180 0.71740 -0.07400
C 	C 	0.89260 0.62830 0.67710 0.01900
C 	C 	0.80420 0.68650 0.47760 0.02400
C 	C 	0.72650 0.76280 0.50980 -0.11100
C 	C 	0.73240 0.77060 0.63160 -0.03000
C 	C 	0.08850 0.28470 0.94300 -0.01200
C 	C 	0.97990 0.26680 0.80560 0.08100
C 	C 	0.01990 0.35830 0.73520 -0.14300
C 	C 	0.80770 0.24580 0.54800 0.00600
C 	C 	0.75910 0.15070 0.61290 -0.05200
C 	C 	0.84440 0.16010 0.74320 -0.09000
C 	C 	0.17640 0.29920 0.15230 0.09200
C 	C 	0.18230 0.29820 0.28260 -0.08600
C 	C 	0.10740 0.37170 0.32290 0.02000
C 	C 	0.19580 0.31350 0.52240 0.02300
C 	C 	0.27350 0.23720 0.49020 -0.11300
C 	C 	0.26760 0.22940 0.36840 -0.02200
N 	N 	0.75440 0.68210 0.00700 -0.18200
N 	N 	0.69950 0.67400 0.87550 -0.21300
N 	N 	0.95980 0.72750 0.95860 -0.12900
N 	N 	0.11680 0.76260 0.96550 -0.27200
N 	N 	0.06520 0.65030 0.39200 -0.28300
N 	N 	0.88650 0.62050 0.55890 -0.22300
N 	N 	0.24560 0.31790 0.99300 -0.18200
N 	N 	0.30050 0.32600 0.12450 -0.19000
N 	N 	0.04020 0.27250 0.04140 -0.10500
N 	N 	0.88320 0.23740 0.03450 -0.18500
N 	N 	0.93480 0.34970 0.60800 -0.16600
N 	N 	0.11350 0.37950 0.44110 -0.24100
O 	O 	0.42980 0.51030 0.88550 -0.61500
O 	O 	0.47640 0.78970 0.72090 -0.55400
O 	O 	0.20810 0.58000 0.66940 -0.56600
O 	O 	0.46680 0.74410 0.92830 -0.61800
O 	O 	0.57020 0.48970 0.11450 -0.59000
O 	O 	0.52360 0.21030 0.27910 -0.53600
O 	O 	0.79190 0.42000 0.33060 -0.53700
O 	O 	0.53320 0.25590 0.07170 -0.57100
O 	O 	0.50000 0.00000 -0.00000 -0.58400
