data_crystal

_cell_length_a 29.55700
_cell_length_b 29.55700
_cell_length_c 29.55700
_cell_angle_alpha 90.00000
_cell_angle_beta  90.00000
_cell_angle_gamma 90.00000

_symmetry_space_group_name_	'P 1'
_symmetry_space_group_name_H-M	'P 1'

loop_
_symmetry_equiv_pos_as_xyz
  x,y,z

loop_
_atom_site_label
_atom_site_type_symbol
_atom_site_fract_x
_atom_site_fract_y
_atom_site_fract_z
_atom_site_charge
Ni	Ni	0.72410 -0.00000 0.71043 1.06500
Ni	Ni	0.27590 -0.00000 0.71043 1.06500
Ni	Ni	0.27590 0.00000 0.28957 1.06500
Ni	Ni	0.72410 0.00000 0.28957 1.06500
Ni	Ni	0.71043 0.72410 -0.00000 1.06500
Ni	Ni	0.71043 0.27590 -0.00000 1.06500
Ni	Ni	0.28957 0.27590 -0.00000 1.06500
Ni	Ni	0.28957 0.72410 -0.00000 1.06500
Ni	Ni	0.00000 0.71043 0.72410 1.06500
Ni	Ni	0.00000 0.71043 0.27590 1.06500
Ni	Ni	0.00000 0.28957 0.27590 1.06500
Ni	Ni	-0.00000 0.28957 0.72410 1.06500
Ni	Ni	0.50000 0.22410 0.78957 1.06700
Ni	Ni	0.50000 0.77590 0.78957 1.06700
Ni	Ni	0.50000 0.77590 0.21043 1.06700
Ni	Ni	0.50000 0.22410 0.21043 1.06700
Ni	Ni	0.22410 0.21043 0.50000 1.06700
Ni	Ni	0.77590 0.21043 0.50000 1.06700
Ni	Ni	0.77590 0.78957 0.50000 1.06700
Ni	Ni	0.22410 0.78957 0.50000 1.06700
Ni	Ni	0.21043 0.50000 0.77590 1.06700
Ni	Ni	0.21043 0.50000 0.22410 1.06700
Ni	Ni	0.78957 0.50000 0.22410 1.06700
Ni	Ni	0.78957 0.50000 0.77590 1.06700
P 	P 	0.78924 0.78924 0.78924 0.56900
P 	P 	0.21076 0.21076 0.78924 0.56900
P 	P 	0.21076 0.78924 0.21076 0.56900
P 	P 	0.78924 0.21076 0.21076 0.56900
P 	P 	0.28924 0.28924 0.71076 0.56900
P 	P 	0.71076 0.71076 0.71076 0.56900
P 	P 	0.28924 0.71076 0.28924 0.56900
P 	P 	0.71076 0.28924 0.28924 0.56900
P 	P 	0.21076 0.21076 0.21076 0.56900
P 	P 	0.78924 0.78924 0.21076 0.56900
P 	P 	0.78924 0.21076 0.78924 0.56900
P 	P 	0.21076 0.78924 0.78924 0.56800
P 	P 	0.71076 0.71076 0.28924 0.56800
P 	P 	0.28924 0.28924 0.28924 0.56800
P 	P 	0.71076 0.28924 0.71076 0.56800
P 	P 	0.28924 0.71076 0.71076 0.56800
H 	H 	0.65760 0.93420 0.67080 -0.02000
H 	H 	0.59500 0.93130 0.62410 0.07100
H 	H 	0.54350 0.97290 0.56990 0.08700
H 	H 	0.76860 0.93280 0.64580 -0.00300
H 	H 	0.82160 0.93170 0.58860 0.07400
H 	H 	0.88080 0.02730 0.54340 0.09100
H 	H 	0.34240 0.06580 0.67080 -0.01800
H 	H 	0.40500 0.06870 0.62410 0.07200
H 	H 	0.45650 0.02710 0.56990 0.08000
H 	H 	0.23140 0.06720 0.64580 -0.00100
H 	H 	0.17840 0.06830 0.58860 0.07500
H 	H 	0.11920 0.97270 0.54340 0.09600
H 	H 	0.34240 0.93420 0.32920 -0.02000
H 	H 	0.40500 0.93130 0.37590 0.07100
H 	H 	0.45650 0.97290 0.43010 0.08700
H 	H 	0.23140 0.93280 0.35420 -0.00300
H 	H 	0.17840 0.93170 0.41140 0.07400
H 	H 	0.11920 0.02730 0.45660 0.09000
H 	H 	0.65760 0.06580 0.32920 -0.01800
H 	H 	0.59500 0.06870 0.37590 0.07200
H 	H 	0.54350 0.02710 0.43010 0.08000
H 	H 	0.76860 0.06720 0.35420 -0.00100
H 	H 	0.82160 0.06830 0.41140 0.07500
H 	H 	0.88080 0.97270 0.45660 0.09800
H 	H 	0.67080 0.65760 0.93420 -0.02000
H 	H 	0.62410 0.59500 0.93130 0.07100
H 	H 	0.56990 0.54350 0.97290 0.08700
H 	H 	0.64580 0.76860 0.93280 -0.00300
H 	H 	0.58860 0.82160 0.93170 0.07400
H 	H 	0.54340 0.88080 0.02730 0.09100
H 	H 	0.67080 0.34240 0.06580 -0.01800
H 	H 	0.62410 0.40500 0.06870 0.07200
H 	H 	0.56990 0.45650 0.02710 0.08000
H 	H 	0.64580 0.23140 0.06720 -0.00100
H 	H 	0.58860 0.17840 0.06830 0.07500
H 	H 	0.54340 0.11920 0.97270 0.09600
H 	H 	0.32920 0.34240 0.93420 -0.02000
H 	H 	0.37590 0.40500 0.93130 0.07100
H 	H 	0.43010 0.45650 0.97290 0.08700
H 	H 	0.35420 0.23140 0.93280 -0.00300
H 	H 	0.41140 0.17840 0.93170 0.07400
H 	H 	0.45660 0.11920 0.02730 0.09000
H 	H 	0.32920 0.65760 0.06580 -0.01800
H 	H 	0.37590 0.59500 0.06870 0.07200
H 	H 	0.43010 0.54350 0.02710 0.08000
H 	H 	0.35420 0.76860 0.06720 -0.00100
H 	H 	0.41140 0.82160 0.06830 0.07500
H 	H 	0.45660 0.88080 0.97270 0.09800
H 	H 	0.93420 0.67080 0.65760 -0.02000
H 	H 	0.93130 0.62410 0.59500 0.07100
H 	H 	0.97290 0.56990 0.54350 0.08700
H 	H 	0.93280 0.64580 0.76860 -0.00300
H 	H 	0.93170 0.58860 0.82160 0.07400
H 	H 	0.02730 0.54340 0.88080 0.09100
H 	H 	0.06580 0.67080 0.34240 -0.01800
H 	H 	0.06870 0.62410 0.40500 0.07200
H 	H 	0.02710 0.56990 0.45650 0.08000
H 	H 	0.06720 0.64580 0.23140 -0.00100
H 	H 	0.06830 0.58860 0.17840 0.07500
H 	H 	0.97270 0.54340 0.11920 0.09600
H 	H 	0.93420 0.32920 0.34240 -0.02000
H 	H 	0.93130 0.37590 0.40500 0.07100
H 	H 	0.97290 0.43010 0.45650 0.08700
H 	H 	0.93280 0.35420 0.23140 -0.00300
H 	H 	0.93170 0.41140 0.17840 0.07400
H 	H 	0.02730 0.45660 0.11920 0.09000
H 	H 	0.06580 0.32920 0.65760 -0.01800
H 	H 	0.06870 0.37590 0.59500 0.07200
H 	H 	0.02710 0.43010 0.54350 0.08000
H 	H 	0.06720 0.35420 0.76860 -0.00100
H 	H 	0.06830 0.41140 0.82160 0.07500
H 	H 	0.97270 0.45660 0.88080 0.09800
H 	H 	0.43420 0.15760 0.82920 -0.01900
H 	H 	0.43130 0.09500 0.87590 0.07200
H 	H 	0.47290 0.04350 0.93010 0.07700
H 	H 	0.43280 0.26860 0.85420 -0.00200
H 	H 	0.43170 0.32160 0.91140 0.07600
H 	H 	0.52730 0.38080 0.95660 0.08700
H 	H 	0.56580 0.84240 0.82920 -0.01900
H 	H 	0.56870 0.90500 0.87590 0.07400
H 	H 	0.52710 0.95650 0.93010 0.07900
H 	H 	0.56720 0.73140 0.85420 -0.00200
H 	H 	0.56830 0.67840 0.91140 0.07600
H 	H 	0.47270 0.61920 0.95660 0.08700
H 	H 	0.43420 0.84240 0.17080 -0.01800
H 	H 	0.43130 0.90500 0.12410 0.07300
H 	H 	0.47290 0.95650 0.06990 0.07600
H 	H 	0.43280 0.73140 0.14580 -0.00200
H 	H 	0.43170 0.67840 0.08860 0.07500
H 	H 	0.52730 0.61920 0.04340 0.08600
H 	H 	0.56580 0.15760 0.17080 -0.01900
H 	H 	0.56870 0.09500 0.12410 0.07100
H 	H 	0.52710 0.04350 0.06990 0.07400
H 	H 	0.56720 0.26860 0.14580 -0.00200
H 	H 	0.56830 0.32160 0.08860 0.07500
H 	H 	0.47270 0.38080 0.04340 0.08600
H 	H 	0.15760 0.17080 0.56580 -0.01900
H 	H 	0.09500 0.12410 0.56870 0.07100
H 	H 	0.04350 0.06990 0.52710 0.07400
H 	H 	0.26860 0.14580 0.56720 -0.00200
H 	H 	0.32160 0.08860 0.56830 0.07500
H 	H 	0.38080 0.04340 0.47270 0.08600
H 	H 	0.84240 0.17080 0.43420 -0.01800
H 	H 	0.90500 0.12410 0.43130 0.07300
H 	H 	0.95650 0.06990 0.47290 0.07600
H 	H 	0.73140 0.14580 0.43280 -0.00200
H 	H 	0.67840 0.08860 0.43170 0.07500
H 	H 	0.61920 0.04340 0.52730 0.08600
H 	H 	0.84240 0.82920 0.56580 -0.01900
H 	H 	0.90500 0.87590 0.56870 0.07400
H 	H 	0.95650 0.93010 0.52710 0.07900
H 	H 	0.73140 0.85420 0.56720 -0.00200
H 	H 	0.67840 0.91140 0.56830 0.07600
H 	H 	0.61920 0.95660 0.47270 0.08700
H 	H 	0.15760 0.82920 0.43420 -0.01900
H 	H 	0.09500 0.87590 0.43130 0.07200
H 	H 	0.04350 0.93010 0.47290 0.07700
H 	H 	0.26860 0.85420 0.43280 -0.00200
H 	H 	0.32160 0.91140 0.43170 0.07600
H 	H 	0.38080 0.95660 0.52730 0.08700
H 	H 	0.17080 0.43420 0.84240 -0.01800
H 	H 	0.12410 0.43130 0.90500 0.07300
H 	H 	0.06990 0.47290 0.95650 0.07600
H 	H 	0.14580 0.43280 0.73140 -0.00200
H 	H 	0.08860 0.43170 0.67840 0.07500
H 	H 	0.04340 0.52730 0.61920 0.08600
H 	H 	0.17080 0.56580 0.15760 -0.01900
H 	H 	0.12410 0.56870 0.09500 0.07100
H 	H 	0.06990 0.52710 0.04350 0.07400
H 	H 	0.14580 0.56720 0.26860 -0.00200
H 	H 	0.08860 0.56830 0.32160 0.07500
H 	H 	0.04340 0.47270 0.38080 0.08600
H 	H 	0.82920 0.43420 0.15760 -0.01900
H 	H 	0.87590 0.43130 0.09500 0.07200
H 	H 	0.93010 0.47290 0.04350 0.07700
H 	H 	0.85420 0.43280 0.26860 -0.00200
H 	H 	0.91140 0.43170 0.32160 0.07600
H 	H 	0.95660 0.52730 0.38080 0.08700
H 	H 	0.82920 0.56580 0.84240 -0.01900
H 	H 	0.87590 0.56870 0.90500 0.07400
H 	H 	0.93010 0.52710 0.95650 0.07900
H 	H 	0.85420 0.56720 0.73140 -0.00200
H 	H 	0.91140 0.56830 0.67840 0.07600
H 	H 	0.95660 0.47270 0.61920 0.08700
H 	H 	0.34240 0.06580 0.32920 -0.01800
H 	H 	0.40500 0.06870 0.37590 0.07200
H 	H 	0.45650 0.02710 0.43010 0.08000
H 	H 	0.23140 0.06720 0.35420 -0.00100
H 	H 	0.17840 0.06830 0.41140 0.07500
H 	H 	0.11920 0.97270 0.45660 0.09600
H 	H 	0.65760 0.93420 0.32920 -0.02000
H 	H 	0.59500 0.93130 0.37590 0.07100
H 	H 	0.54350 0.97290 0.43010 0.08700
H 	H 	0.76860 0.93280 0.35420 -0.00300
H 	H 	0.82160 0.93170 0.41140 0.07400
H 	H 	0.88080 0.02730 0.45660 0.09100
H 	H 	0.65760 0.06580 0.67080 -0.01800
H 	H 	0.59500 0.06870 0.62410 0.07200
H 	H 	0.54350 0.02710 0.56990 0.08000
H 	H 	0.76860 0.06720 0.64580 -0.00100
H 	H 	0.82160 0.06830 0.58860 0.07500
H 	H 	0.88080 0.97270 0.54340 0.09800
H 	H 	0.34240 0.93420 0.67080 -0.02000
H 	H 	0.40500 0.93130 0.62410 0.07100
H 	H 	0.45650 0.97290 0.56990 0.08700
H 	H 	0.23140 0.93280 0.64580 -0.00300
H 	H 	0.17840 0.93170 0.58860 0.07400
H 	H 	0.11920 0.02730 0.54340 0.09000
H 	H 	0.32920 0.34240 0.06580 -0.01800
H 	H 	0.37590 0.40500 0.06870 0.07200
H 	H 	0.43010 0.45650 0.02710 0.08000
H 	H 	0.35420 0.23140 0.06720 -0.00100
H 	H 	0.41140 0.17840 0.06830 0.07500
H 	H 	0.45660 0.11920 0.97270 0.09600
H 	H 	0.32920 0.65760 0.93420 -0.02000
H 	H 	0.37590 0.59500 0.93130 0.07100
H 	H 	0.43010 0.54350 0.97290 0.08700
H 	H 	0.35420 0.76860 0.93280 -0.00300
H 	H 	0.41140 0.82160 0.93170 0.07400
H 	H 	0.45660 0.88080 0.02730 0.09100
H 	H 	0.67080 0.65760 0.06580 -0.01800
H 	H 	0.62410 0.59500 0.06870 0.07200
H 	H 	0.56990 0.54350 0.02710 0.08000
H 	H 	0.64580 0.76860 0.06720 -0.00100
H 	H 	0.58860 0.82160 0.06830 0.07500
H 	H 	0.54340 0.88080 0.97270 0.09800
H 	H 	0.67080 0.34240 0.93420 -0.02000
H 	H 	0.62410 0.40500 0.93130 0.07100
H 	H 	0.56990 0.45650 0.97290 0.08700
H 	H 	0.64580 0.23140 0.93280 -0.00300
H 	H 	0.58860 0.17840 0.93170 0.07400
H 	H 	0.54340 0.11920 0.02730 0.09000
H 	H 	0.06580 0.32920 0.34240 -0.01800
H 	H 	0.06870 0.37590 0.40500 0.07200
H 	H 	0.02710 0.43010 0.45650 0.08000
H 	H 	0.06720 0.35420 0.23140 -0.00100
H 	H 	0.06830 0.41140 0.17840 0.07500
H 	H 	0.97270 0.45660 0.11920 0.09600
H 	H 	0.93420 0.32920 0.65760 -0.02000
H 	H 	0.93130 0.37590 0.59500 0.07100
H 	H 	0.97290 0.43010 0.54350 0.08700
H 	H 	0.93280 0.35420 0.76860 -0.00300
H 	H 	0.93170 0.41140 0.82160 0.07400
H 	H 	0.02730 0.45660 0.88080 0.09100
H 	H 	0.06580 0.67080 0.65760 -0.01800
H 	H 	0.06870 0.62410 0.59500 0.07200
H 	H 	0.02710 0.56990 0.54350 0.08000
H 	H 	0.06720 0.64580 0.76860 -0.00100
H 	H 	0.06830 0.58860 0.82160 0.07500
H 	H 	0.97270 0.54340 0.88080 0.09800
H 	H 	0.93420 0.67080 0.34240 -0.02000
H 	H 	0.93130 0.62410 0.40500 0.07100
H 	H 	0.97290 0.56990 0.45650 0.08700
H 	H 	0.93280 0.64580 0.23140 -0.00300
H 	H 	0.93170 0.58860 0.17840 0.07400
H 	H 	0.02730 0.54340 0.11920 0.09000
H 	H 	0.56580 0.84240 0.17080 -0.01800
H 	H 	0.56870 0.90500 0.12410 0.07300
H 	H 	0.52710 0.95650 0.06990 0.07600
H 	H 	0.56720 0.73140 0.14580 -0.00200
H 	H 	0.56830 0.67840 0.08860 0.07500
H 	H 	0.47270 0.61920 0.04340 0.08600
H 	H 	0.43420 0.15760 0.17080 -0.01900
H 	H 	0.43130 0.09500 0.12410 0.07100
H 	H 	0.47290 0.04350 0.06990 0.07400
H 	H 	0.43280 0.26860 0.14580 -0.00200
H 	H 	0.43170 0.32160 0.08860 0.07500
H 	H 	0.52730 0.38080 0.04340 0.08600
H 	H 	0.56580 0.15760 0.82920 -0.01900
H 	H 	0.56870 0.09500 0.87590 0.07200
H 	H 	0.52710 0.04350 0.93010 0.07700
H 	H 	0.56720 0.26860 0.85420 -0.00200
H 	H 	0.56830 0.32160 0.91140 0.07600
H 	H 	0.47270 0.38080 0.95660 0.08700
H 	H 	0.43420 0.84240 0.82920 -0.01900
H 	H 	0.43130 0.90500 0.87590 0.07400
H 	H 	0.47290 0.95650 0.93010 0.07900
H 	H 	0.43280 0.73140 0.85420 -0.00200
H 	H 	0.43170 0.67840 0.91140 0.07600
H 	H 	0.52730 0.61920 0.95660 0.08700
H 	H 	0.84240 0.82920 0.43420 -0.01900
H 	H 	0.90500 0.87590 0.43130 0.07400
H 	H 	0.95650 0.93010 0.47290 0.07900
H 	H 	0.73140 0.85420 0.43280 -0.00200
H 	H 	0.67840 0.91140 0.43170 0.07600
H 	H 	0.61920 0.95660 0.52730 0.08700
H 	H 	0.15760 0.82920 0.56580 -0.01900
H 	H 	0.09500 0.87590 0.56870 0.07200
H 	H 	0.04350 0.93010 0.52710 0.07700
H 	H 	0.26860 0.85420 0.56720 -0.00200
H 	H 	0.32160 0.91140 0.56830 0.07600
H 	H 	0.38080 0.95660 0.47270 0.08700
H 	H 	0.15760 0.17080 0.43420 -0.01900
H 	H 	0.09500 0.12410 0.43130 0.07100
H 	H 	0.04350 0.06990 0.47290 0.07400
H 	H 	0.26860 0.14580 0.43280 -0.00200
H 	H 	0.32160 0.08860 0.43170 0.07500
H 	H 	0.38080 0.04340 0.52730 0.08600
H 	H 	0.84240 0.17080 0.56580 -0.01800
H 	H 	0.90500 0.12410 0.56870 0.07300
H 	H 	0.95650 0.06990 0.52710 0.07600
H 	H 	0.73140 0.14580 0.56720 -0.00200
H 	H 	0.67840 0.08860 0.56830 0.07500
H 	H 	0.61920 0.04340 0.47270 0.08600
H 	H 	0.82920 0.56580 0.15760 -0.01900
H 	H 	0.87590 0.56870 0.09500 0.07200
H 	H 	0.93010 0.52710 0.04350 0.07700
H 	H 	0.85420 0.56720 0.26860 -0.00200
H 	H 	0.91140 0.56830 0.32160 0.07600
H 	H 	0.95660 0.47270 0.38080 0.08700
H 	H 	0.82920 0.43420 0.84240 -0.01900
H 	H 	0.87590 0.43130 0.90500 0.07400
H 	H 	0.93010 0.47290 0.95650 0.07900
H 	H 	0.85420 0.43280 0.73140 -0.00200
H 	H 	0.91140 0.43170 0.67840 0.07600
H 	H 	0.95660 0.52730 0.61920 0.08700
H 	H 	0.17080 0.56580 0.84240 -0.01800
H 	H 	0.12410 0.56870 0.90500 0.07300
H 	H 	0.06990 0.52710 0.95650 0.07600
H 	H 	0.14580 0.56720 0.73140 -0.00200
H 	H 	0.08860 0.56830 0.67840 0.07500
H 	H 	0.04340 0.47270 0.61920 0.08600
H 	H 	0.17080 0.43420 0.15760 -0.01900
H 	H 	0.12410 0.43130 0.09500 0.07100
H 	H 	0.06990 0.47290 0.04350 0.07400
H 	H 	0.14580 0.43280 0.26860 -0.00200
H 	H 	0.08860 0.43170 0.32160 0.07500
H 	H 	0.04340 0.52730 0.38080 0.08600
H 	H 	0.50000 0.97290 0.63870 0.02500
H 	H 	0.50000 0.02710 0.63870 0.01800
H 	H 	0.50000 0.97290 0.36130 0.02500
H 	H 	0.50000 0.02710 0.36130 0.01800
H 	H 	0.63870 0.50000 0.97290 0.02500
H 	H 	0.63870 0.50000 0.02710 0.01800
H 	H 	0.36130 0.50000 0.97290 0.02500
H 	H 	0.36130 0.50000 0.02710 0.01800
H 	H 	0.97290 0.63870 0.50000 0.02500
H 	H 	0.02710 0.63870 0.50000 0.01800
H 	H 	0.97290 0.36130 0.50000 0.02500
H 	H 	0.02710 0.36130 0.50000 0.01800
H 	H 	0.47290 0.00000 0.86130 0.01600
H 	H 	0.52710 0.00000 0.86130 0.01600
H 	H 	0.47290 0.00000 0.13870 0.01700
H 	H 	0.52710 0.00000 0.13870 0.01700
H 	H 	0.00000 0.13870 0.52710 0.01700
H 	H 	0.00000 0.13870 0.47290 0.01700
H 	H 	0.00000 0.86130 0.52710 0.01600
H 	H 	0.00000 0.86130 0.47290 0.01600
H 	H 	0.13870 0.47290 -0.00000 0.01700
H 	H 	0.13870 0.52710 -0.00000 0.01700
H 	H 	0.86130 0.47290 -0.00000 0.01600
H 	H 	0.86130 0.52710 -0.00000 0.01600
H 	H 	0.81280 0.02710 0.50000 0.02100
H 	H 	0.18720 0.97290 0.50000 0.02800
H 	H 	0.18720 0.02710 0.50000 0.02100
H 	H 	0.81280 0.97290 0.50000 0.02700
H 	H 	0.50000 0.81280 0.02710 0.02100
H 	H 	0.50000 0.18720 0.97290 0.02800
H 	H 	0.50000 0.18720 0.02710 0.02100
H 	H 	0.50000 0.81280 0.97290 0.02700
H 	H 	0.02710 0.50000 0.81280 0.02100
H 	H 	0.97290 0.50000 0.18720 0.02800
H 	H 	0.02710 0.50000 0.18720 0.02100
H 	H 	0.97290 0.50000 0.81280 0.02700
H 	H 	0.52710 0.31280 -0.00000 0.02100
H 	H 	0.47290 0.68720 -0.00000 0.02100
H 	H 	0.52710 0.68720 -0.00000 0.02100
H 	H 	0.47290 0.31280 -0.00000 0.02100
H 	H 	0.31280 0.00000 0.47290 0.02100
H 	H 	0.68720 0.00000 0.52710 0.02100
H 	H 	0.68720 0.00000 0.47290 0.02100
H 	H 	0.31280 0.00000 0.52710 0.02100
H 	H 	-0.00000 0.52710 0.68720 0.02100
H 	H 	0.00000 0.47290 0.31280 0.02100
H 	H 	0.00000 0.52710 0.31280 0.02100
H 	H 	-0.00000 0.47290 0.68720 0.02100
W 	W 	0.69027 0.83891 0.83419 1.05900
W 	W 	0.73584 0.88081 0.74019 1.35800
W 	W 	0.84501 0.89271 0.80020 1.01300
W 	W 	0.30973 0.16109 0.83419 1.05700
W 	W 	0.26416 0.11919 0.74019 1.35700
W 	W 	0.15499 0.10729 0.80020 1.00600
W 	W 	0.30973 0.83891 0.16581 1.05700
W 	W 	0.26416 0.88081 0.25981 1.35800
W 	W 	0.15499 0.89271 0.19980 1.01000
W 	W 	0.69027 0.16109 0.16581 1.05600
W 	W 	0.73584 0.11919 0.25981 1.35700
W 	W 	0.84501 0.10729 0.19980 1.00800
W 	W 	0.83419 0.69027 0.83891 1.05900
W 	W 	0.74019 0.73584 0.88081 1.35800
W 	W 	0.80020 0.84501 0.89271 1.01300
W 	W 	0.83419 0.30973 0.16109 1.05700
W 	W 	0.74019 0.26416 0.11919 1.35700
W 	W 	0.80020 0.15499 0.10729 1.00600
W 	W 	0.16581 0.30973 0.83891 1.05700
W 	W 	0.25981 0.26416 0.88081 1.35800
W 	W 	0.19980 0.15499 0.89271 1.01000
W 	W 	0.16581 0.69027 0.16109 1.05600
W 	W 	0.25981 0.73584 0.11919 1.35700
W 	W 	0.19980 0.84501 0.10729 1.00800
W 	W 	0.83891 0.83419 0.69027 1.05900
W 	W 	0.88081 0.74019 0.73584 1.35800
W 	W 	0.89271 0.80020 0.84501 1.01300
W 	W 	0.16109 0.83419 0.30973 1.05700
W 	W 	0.11919 0.74019 0.26416 1.35700
W 	W 	0.10729 0.80020 0.15499 1.00600
W 	W 	0.83891 0.16581 0.30973 1.05700
W 	W 	0.88081 0.25981 0.26416 1.35800
W 	W 	0.89271 0.19980 0.15499 1.01000
W 	W 	0.16109 0.16581 0.69027 1.05600
W 	W 	0.11919 0.25981 0.73584 1.35700
W 	W 	0.10729 0.19980 0.84501 1.00800
W 	W 	0.33891 0.19027 0.66581 1.05700
W 	W 	0.38081 0.23584 0.75981 1.35800
W 	W 	0.39271 0.34501 0.69980 1.00900
W 	W 	0.66109 0.80973 0.66581 1.05700
W 	W 	0.61919 0.76416 0.75981 1.35800
W 	W 	0.60729 0.65499 0.69980 1.00900
W 	W 	0.33891 0.80973 0.33419 1.05800
W 	W 	0.38081 0.76416 0.24019 1.35800
W 	W 	0.39271 0.65499 0.30020 1.00900
W 	W 	0.66109 0.19027 0.33419 1.05700
W 	W 	0.61919 0.23584 0.24019 1.35800
W 	W 	0.60729 0.34501 0.30020 1.00900
W 	W 	0.19027 0.33419 0.66109 1.05700
W 	W 	0.23584 0.24019 0.61919 1.35800
W 	W 	0.34501 0.30020 0.60729 1.00900
W 	W 	0.80973 0.33419 0.33891 1.05800
W 	W 	0.76416 0.24019 0.38081 1.35800
W 	W 	0.65499 0.30020 0.39271 1.00900
W 	W 	0.80973 0.66581 0.66109 1.05700
W 	W 	0.76416 0.75981 0.61919 1.35800
W 	W 	0.65499 0.69980 0.60729 1.00900
W 	W 	0.19027 0.66581 0.33891 1.05700
W 	W 	0.23584 0.75981 0.38081 1.35800
W 	W 	0.34501 0.69980 0.39271 1.00900
W 	W 	0.33419 0.33891 0.80973 1.05800
W 	W 	0.24019 0.38081 0.76416 1.35800
W 	W 	0.30020 0.39271 0.65499 1.00900
W 	W 	0.33419 0.66109 0.19027 1.05700
W 	W 	0.24019 0.61919 0.23584 1.35800
W 	W 	0.30020 0.60729 0.34501 1.00900
W 	W 	0.66581 0.33891 0.19027 1.05700
W 	W 	0.75981 0.38081 0.23584 1.35800
W 	W 	0.69980 0.39271 0.34501 1.00900
W 	W 	0.66581 0.66109 0.80973 1.05700
W 	W 	0.75981 0.61919 0.76416 1.35800
W 	W 	0.69980 0.60729 0.65499 1.00900
W 	W 	0.30973 0.16109 0.16581 1.05600
W 	W 	0.26416 0.11919 0.25981 1.35700
W 	W 	0.15499 0.10729 0.19980 1.00600
W 	W 	0.69027 0.83891 0.16581 1.05700
W 	W 	0.73584 0.88081 0.25981 1.35800
W 	W 	0.84501 0.89271 0.19980 1.01200
W 	W 	0.69027 0.16109 0.83419 1.05700
W 	W 	0.73584 0.11919 0.74019 1.35700
W 	W 	0.84501 0.10729 0.80020 1.00900
W 	W 	0.30973 0.83891 0.83419 1.05900
W 	W 	0.26416 0.88081 0.74019 1.35800
W 	W 	0.15499 0.89271 0.80020 1.01100
W 	W 	0.16581 0.30973 0.16109 1.05600
W 	W 	0.25981 0.26416 0.11919 1.35700
W 	W 	0.19980 0.15499 0.10729 1.00600
W 	W 	0.16581 0.69027 0.83891 1.05700
W 	W 	0.25981 0.73584 0.88081 1.35800
W 	W 	0.19980 0.84501 0.89271 1.01200
W 	W 	0.83419 0.69027 0.16109 1.05700
W 	W 	0.74019 0.73584 0.11919 1.35700
W 	W 	0.80020 0.84501 0.10729 1.00900
W 	W 	0.83419 0.30973 0.83891 1.05900
W 	W 	0.74019 0.26416 0.88081 1.35800
W 	W 	0.80020 0.15499 0.89271 1.01100
W 	W 	0.16109 0.16581 0.30973 1.05600
W 	W 	0.11919 0.25981 0.26416 1.35700
W 	W 	0.10729 0.19980 0.15499 1.00600
W 	W 	0.83891 0.16581 0.69027 1.05700
W 	W 	0.88081 0.25981 0.73584 1.35800
W 	W 	0.89271 0.19980 0.84501 1.01200
W 	W 	0.16109 0.83419 0.69027 1.05700
W 	W 	0.11919 0.74019 0.73584 1.35700
W 	W 	0.10729 0.80020 0.84501 1.00900
W 	W 	0.83891 0.83419 0.30973 1.05900
W 	W 	0.88081 0.74019 0.26416 1.35800
W 	W 	0.89271 0.80020 0.15499 1.01100
W 	W 	0.66109 0.80973 0.33419 1.05700
W 	W 	0.61919 0.76416 0.24019 1.35800
W 	W 	0.60729 0.65499 0.30020 1.00900
W 	W 	0.33891 0.19027 0.33419 1.05700
W 	W 	0.38081 0.23584 0.24019 1.35800
W 	W 	0.39271 0.34501 0.30020 1.00900
W 	W 	0.66109 0.19027 0.66581 1.05700
W 	W 	0.61919 0.23584 0.75981 1.35800
W 	W 	0.60729 0.34501 0.69980 1.00900
W 	W 	0.33891 0.80973 0.66581 1.05700
W 	W 	0.38081 0.76416 0.75981 1.35800
W 	W 	0.39271 0.65499 0.69980 1.00900
W 	W 	0.80973 0.66581 0.33891 1.05700
W 	W 	0.76416 0.75981 0.38081 1.35800
W 	W 	0.65499 0.69980 0.39271 1.00900
W 	W 	0.19027 0.66581 0.66109 1.05700
W 	W 	0.23584 0.75981 0.61919 1.35800
W 	W 	0.34501 0.69980 0.60729 1.00900
W 	W 	0.19027 0.33419 0.33891 1.05700
W 	W 	0.23584 0.24019 0.38081 1.35800
W 	W 	0.34501 0.30020 0.39271 1.00900
W 	W 	0.80973 0.33419 0.66109 1.05700
W 	W 	0.76416 0.24019 0.61919 1.35800
W 	W 	0.65499 0.30020 0.60729 1.00900
W 	W 	0.66581 0.66109 0.19027 1.05700
W 	W 	0.75981 0.61919 0.23584 1.35800
W 	W 	0.69980 0.60729 0.34501 1.00900
W 	W 	0.66581 0.33891 0.80973 1.05700
W 	W 	0.75981 0.38081 0.76416 1.35800
W 	W 	0.69980 0.39271 0.65499 1.00900
W 	W 	0.33419 0.66109 0.80973 1.05700
W 	W 	0.24019 0.61919 0.76416 1.35800
W 	W 	0.30020 0.60729 0.65499 1.00900
W 	W 	0.33419 0.33891 0.19027 1.05700
W 	W 	0.24019 0.38081 0.23584 1.35800
W 	W 	0.30020 0.39271 0.34501 1.00900
C 	C 	0.64520 0.96170 0.65960 0.10500
C 	C 	0.60720 0.95970 0.63300 -0.18300
C 	C 	0.78020 0.96090 0.63540 0.07100
C 	C 	0.81120 0.96000 0.59970 -0.16800
C 	C 	0.35480 0.03830 0.65960 0.09600
C 	C 	0.39280 0.04030 0.63300 -0.18900
C 	C 	0.21980 0.03910 0.63540 0.06200
C 	C 	0.18880 0.04000 0.59970 -0.17500
C 	C 	0.35480 0.96170 0.34040 0.10500
C 	C 	0.39280 0.95970 0.36700 -0.18300
C 	C 	0.21980 0.96090 0.36460 0.07000
C 	C 	0.18880 0.96000 0.40030 -0.16700
C 	C 	0.64520 0.03830 0.34040 0.09600
C 	C 	0.60720 0.04030 0.36700 -0.18900
C 	C 	0.78020 0.03910 0.36460 0.06200
C 	C 	0.81120 0.04000 0.40030 -0.17500
C 	C 	0.65960 0.64520 0.96170 0.10500
C 	C 	0.63300 0.60720 0.95970 -0.18300
C 	C 	0.63540 0.78020 0.96090 0.07100
C 	C 	0.59970 0.81120 0.96000 -0.16800
C 	C 	0.65960 0.35480 0.03830 0.09600
C 	C 	0.63300 0.39280 0.04030 -0.18900
C 	C 	0.63540 0.21980 0.03910 0.06200
C 	C 	0.59970 0.18880 0.04000 -0.17500
C 	C 	0.34040 0.35480 0.96170 0.10500
C 	C 	0.36700 0.39280 0.95970 -0.18300
C 	C 	0.36460 0.21980 0.96090 0.07000
C 	C 	0.40030 0.18880 0.96000 -0.16700
C 	C 	0.34040 0.64520 0.03830 0.09600
C 	C 	0.36700 0.60720 0.04030 -0.18900
C 	C 	0.36460 0.78020 0.03910 0.06200
C 	C 	0.40030 0.81120 0.04000 -0.17500
C 	C 	0.96170 0.65960 0.64520 0.10500
C 	C 	0.95970 0.63300 0.60720 -0.18300
C 	C 	0.96090 0.63540 0.78020 0.07100
C 	C 	0.96000 0.59970 0.81120 -0.16800
C 	C 	0.03830 0.65960 0.35480 0.09600
C 	C 	0.04030 0.63300 0.39280 -0.18900
C 	C 	0.03910 0.63540 0.21980 0.06200
C 	C 	0.04000 0.59970 0.18880 -0.17500
C 	C 	0.96170 0.34040 0.35480 0.10500
C 	C 	0.95970 0.36700 0.39280 -0.18300
C 	C 	0.96090 0.36460 0.21980 0.07000
C 	C 	0.96000 0.40030 0.18880 -0.16700
C 	C 	0.03830 0.34040 0.64520 0.09600
C 	C 	0.04030 0.36700 0.60720 -0.18900
C 	C 	0.03910 0.36460 0.78020 0.06200
C 	C 	0.04000 0.40030 0.81120 -0.17500
C 	C 	0.46170 0.14520 0.84040 0.09800
C 	C 	0.45970 0.10720 0.86700 -0.19100
C 	C 	0.46090 0.28020 0.86460 0.06400
C 	C 	0.46000 0.31120 0.90030 -0.17400
C 	C 	0.53830 0.85480 0.84040 0.09900
C 	C 	0.54030 0.89280 0.86700 -0.19000
C 	C 	0.53910 0.71980 0.86460 0.06400
C 	C 	0.54000 0.68880 0.90030 -0.17400
C 	C 	0.46170 0.85480 0.15960 0.09800
C 	C 	0.45970 0.89280 0.13300 -0.18900
C 	C 	0.46090 0.71980 0.13540 0.06400
C 	C 	0.46000 0.68880 0.09970 -0.17600
C 	C 	0.53830 0.14520 0.15960 0.09700
C 	C 	0.54030 0.10720 0.13300 -0.18900
C 	C 	0.53910 0.28020 0.13540 0.06400
C 	C 	0.54000 0.31120 0.09970 -0.17500
C 	C 	0.14520 0.15960 0.53830 0.09700
C 	C 	0.10720 0.13300 0.54030 -0.18900
C 	C 	0.28020 0.13540 0.53910 0.06400
C 	C 	0.31120 0.09970 0.54000 -0.17500
C 	C 	0.85480 0.15960 0.46170 0.09800
C 	C 	0.89280 0.13300 0.45970 -0.18900
C 	C 	0.71980 0.13540 0.46090 0.06400
C 	C 	0.68880 0.09970 0.46000 -0.17600
C 	C 	0.85480 0.84040 0.53830 0.09900
C 	C 	0.89280 0.86700 0.54030 -0.19000
C 	C 	0.71980 0.86460 0.53910 0.06400
C 	C 	0.68880 0.90030 0.54000 -0.17400
C 	C 	0.14520 0.84040 0.46170 0.09800
C 	C 	0.10720 0.86700 0.45970 -0.19100
C 	C 	0.28020 0.86460 0.46090 0.06400
C 	C 	0.31120 0.90030 0.46000 -0.17400
C 	C 	0.15960 0.46170 0.85480 0.09800
C 	C 	0.13300 0.45970 0.89280 -0.18900
C 	C 	0.13540 0.46090 0.71980 0.06400
C 	C 	0.09970 0.46000 0.68880 -0.17600
C 	C 	0.15960 0.53830 0.14520 0.09700
C 	C 	0.13300 0.54030 0.10720 -0.18900
C 	C 	0.13540 0.53910 0.28020 0.06400
C 	C 	0.09970 0.54000 0.31120 -0.17500
C 	C 	0.84040 0.46170 0.14520 0.09800
C 	C 	0.86700 0.45970 0.10720 -0.19100
C 	C 	0.86460 0.46090 0.28020 0.06400
C 	C 	0.90030 0.46000 0.31120 -0.17400
C 	C 	0.84040 0.53830 0.85480 0.09900
C 	C 	0.86700 0.54030 0.89280 -0.19000
C 	C 	0.86460 0.53910 0.71980 0.06400
C 	C 	0.90030 0.54000 0.68880 -0.17400
C 	C 	0.35480 0.03830 0.34040 0.09600
C 	C 	0.39280 0.04030 0.36700 -0.18900
C 	C 	0.21980 0.03910 0.36460 0.06200
C 	C 	0.18880 0.04000 0.40030 -0.17500
C 	C 	0.64520 0.96170 0.34040 0.10500
C 	C 	0.60720 0.95970 0.36700 -0.18300
C 	C 	0.78020 0.96090 0.36460 0.07100
C 	C 	0.81120 0.96000 0.40030 -0.16800
C 	C 	0.64520 0.03830 0.65960 0.09600
C 	C 	0.60720 0.04030 0.63300 -0.18900
C 	C 	0.78020 0.03910 0.63540 0.06200
C 	C 	0.81120 0.04000 0.59970 -0.17500
C 	C 	0.35480 0.96170 0.65960 0.10500
C 	C 	0.39280 0.95970 0.63300 -0.18300
C 	C 	0.21980 0.96090 0.63540 0.07000
C 	C 	0.18880 0.96000 0.59970 -0.16700
C 	C 	0.34040 0.35480 0.03830 0.09600
C 	C 	0.36700 0.39280 0.04030 -0.18900
C 	C 	0.36460 0.21980 0.03910 0.06200
C 	C 	0.40030 0.18880 0.04000 -0.17500
C 	C 	0.34040 0.64520 0.96170 0.10500
C 	C 	0.36700 0.60720 0.95970 -0.18300
C 	C 	0.36460 0.78020 0.96090 0.07100
C 	C 	0.40030 0.81120 0.96000 -0.16800
C 	C 	0.65960 0.64520 0.03830 0.09600
C 	C 	0.63300 0.60720 0.04030 -0.18900
C 	C 	0.63540 0.78020 0.03910 0.06200
C 	C 	0.59970 0.81120 0.04000 -0.17500
C 	C 	0.65960 0.35480 0.96170 0.10500
C 	C 	0.63300 0.39280 0.95970 -0.18300
C 	C 	0.63540 0.21980 0.96090 0.07000
C 	C 	0.59970 0.18880 0.96000 -0.16700
C 	C 	0.03830 0.34040 0.35480 0.09600
C 	C 	0.04030 0.36700 0.39280 -0.18900
C 	C 	0.03910 0.36460 0.21980 0.06200
C 	C 	0.04000 0.40030 0.18880 -0.17500
C 	C 	0.96170 0.34040 0.64520 0.10500
C 	C 	0.95970 0.36700 0.60720 -0.18300
C 	C 	0.96090 0.36460 0.78020 0.07100
C 	C 	0.96000 0.40030 0.81120 -0.16800
C 	C 	0.03830 0.65960 0.64520 0.09600
C 	C 	0.04030 0.63300 0.60720 -0.18900
C 	C 	0.03910 0.63540 0.78020 0.06200
C 	C 	0.04000 0.59970 0.81120 -0.17500
C 	C 	0.96170 0.65960 0.35480 0.10500
C 	C 	0.95970 0.63300 0.39280 -0.18300
C 	C 	0.96090 0.63540 0.21980 0.07000
C 	C 	0.96000 0.59970 0.18880 -0.16700
C 	C 	0.53830 0.85480 0.15960 0.09800
C 	C 	0.54030 0.89280 0.13300 -0.18900
C 	C 	0.53910 0.71980 0.13540 0.06400
C 	C 	0.54000 0.68880 0.09970 -0.17600
C 	C 	0.46170 0.14520 0.15960 0.09700
C 	C 	0.45970 0.10720 0.13300 -0.18900
C 	C 	0.46090 0.28020 0.13540 0.06400
C 	C 	0.46000 0.31120 0.09970 -0.17500
C 	C 	0.53830 0.14520 0.84040 0.09800
C 	C 	0.54030 0.10720 0.86700 -0.19100
C 	C 	0.53910 0.28020 0.86460 0.06400
C 	C 	0.54000 0.31120 0.90030 -0.17400
C 	C 	0.46170 0.85480 0.84040 0.09900
C 	C 	0.45970 0.89280 0.86700 -0.19000
C 	C 	0.46090 0.71980 0.86460 0.06400
C 	C 	0.46000 0.68880 0.90030 -0.17400
C 	C 	0.85480 0.84040 0.46170 0.09900
C 	C 	0.89280 0.86700 0.45970 -0.19000
C 	C 	0.71980 0.86460 0.46090 0.06400
C 	C 	0.68880 0.90030 0.46000 -0.17400
C 	C 	0.14520 0.84040 0.53830 0.09800
C 	C 	0.10720 0.86700 0.54030 -0.19100
C 	C 	0.28020 0.86460 0.53910 0.06400
C 	C 	0.31120 0.90030 0.54000 -0.17400
C 	C 	0.14520 0.15960 0.46170 0.09700
C 	C 	0.10720 0.13300 0.45970 -0.18900
C 	C 	0.28020 0.13540 0.46090 0.06400
C 	C 	0.31120 0.09970 0.46000 -0.17500
C 	C 	0.85480 0.15960 0.53830 0.09800
C 	C 	0.89280 0.13300 0.54030 -0.18900
C 	C 	0.71980 0.13540 0.53910 0.06400
C 	C 	0.68880 0.09970 0.54000 -0.17600
C 	C 	0.84040 0.53830 0.14520 0.09800
C 	C 	0.86700 0.54030 0.10720 -0.19100
C 	C 	0.86460 0.53910 0.28020 0.06400
C 	C 	0.90030 0.54000 0.31120 -0.17400
C 	C 	0.84040 0.46170 0.85480 0.09900
C 	C 	0.86700 0.45970 0.89280 -0.19000
C 	C 	0.86460 0.46090 0.71980 0.06400
C 	C 	0.90030 0.46000 0.68880 -0.17400
C 	C 	0.15960 0.53830 0.85480 0.09800
C 	C 	0.13300 0.54030 0.89280 -0.18900
C 	C 	0.13540 0.53910 0.71980 0.06400
C 	C 	0.09970 0.54000 0.68880 -0.17600
C 	C 	0.15960 0.46170 0.14520 0.09700
C 	C 	0.13300 0.45970 0.10720 -0.18900
C 	C 	0.13540 0.46090 0.28020 0.06400
C 	C 	0.09970 0.46000 0.31120 -0.17500
C 	C 	0.58690 0.00000 0.61920 0.13100
C 	C 	0.54350 0.00000 0.58960 -0.24000
C 	C 	0.82720 0.00000 0.58010 0.13200
C 	C 	0.86140 0.00000 0.54220 -0.25900
C 	C 	0.41310 0.00000 0.61920 0.13100
C 	C 	0.45650 0.00000 0.58960 -0.24000
C 	C 	0.17280 0.00000 0.58010 0.13100
C 	C 	0.13860 0.00000 0.54220 -0.25800
C 	C 	0.41310 0.00000 0.38080 0.13100
C 	C 	0.45650 0.00000 0.41040 -0.24000
C 	C 	0.17280 0.00000 0.41990 0.13100
C 	C 	0.13860 0.00000 0.45780 -0.25800
C 	C 	0.58690 0.00000 0.38080 0.13100
C 	C 	0.54350 0.00000 0.41040 -0.24000
C 	C 	0.82720 0.00000 0.41990 0.13200
C 	C 	0.86140 0.00000 0.45780 -0.25900
C 	C 	0.61920 0.58690 -0.00000 0.13100
C 	C 	0.58960 0.54350 -0.00000 -0.24000
C 	C 	0.58010 0.82720 -0.00000 0.13200
C 	C 	0.54220 0.86140 -0.00000 -0.25900
C 	C 	0.61920 0.41310 -0.00000 0.13100
C 	C 	0.58960 0.45650 -0.00000 -0.24000
C 	C 	0.58010 0.17280 -0.00000 0.13100
C 	C 	0.54220 0.13860 -0.00000 -0.25800
C 	C 	0.38080 0.41310 -0.00000 0.13100
C 	C 	0.41040 0.45650 -0.00000 -0.24000
C 	C 	0.41990 0.17280 -0.00000 0.13100
C 	C 	0.45780 0.13860 -0.00000 -0.25800
C 	C 	0.38080 0.58690 -0.00000 0.13100
C 	C 	0.41040 0.54350 -0.00000 -0.24000
C 	C 	0.41990 0.82720 -0.00000 0.13200
C 	C 	0.45780 0.86140 -0.00000 -0.25900
C 	C 	0.00000 0.61920 0.58690 0.13100
C 	C 	0.00000 0.58960 0.54350 -0.24000
C 	C 	0.00000 0.58010 0.82720 0.13200
C 	C 	-0.00000 0.54220 0.86140 -0.25900
C 	C 	-0.00000 0.61920 0.41310 0.13100
C 	C 	0.00000 0.58960 0.45650 -0.24000
C 	C 	0.00000 0.58010 0.17280 0.13100
C 	C 	-0.00000 0.54220 0.13860 -0.25800
C 	C 	0.00000 0.38080 0.41310 0.13100
C 	C 	-0.00000 0.41040 0.45650 -0.24000
C 	C 	0.00000 0.41990 0.17280 0.13100
C 	C 	0.00000 0.45780 0.13860 -0.25800
C 	C 	0.00000 0.38080 0.58690 0.13100
C 	C 	-0.00000 0.41040 0.54350 -0.24000
C 	C 	0.00000 0.41990 0.82720 0.13200
C 	C 	0.00000 0.45780 0.86140 -0.25900
C 	C 	0.50000 0.08690 0.88080 0.13800
C 	C 	0.50000 0.04350 0.91040 -0.22700
C 	C 	0.50000 0.32720 0.91990 0.13700
C 	C 	0.50000 0.36140 0.95780 -0.23600
C 	C 	0.50000 0.91310 0.88080 0.13900
C 	C 	0.50000 0.95650 0.91040 -0.22200
C 	C 	0.50000 0.67280 0.91990 0.13700
C 	C 	0.50000 0.63860 0.95780 -0.23600
C 	C 	0.50000 0.91310 0.11920 0.13600
C 	C 	0.50000 0.95650 0.08960 -0.21700
C 	C 	0.50000 0.67280 0.08010 0.13700
C 	C 	0.50000 0.63860 0.04220 -0.24200
C 	C 	0.50000 0.08690 0.11920 0.13500
C 	C 	0.50000 0.04350 0.08960 -0.22300
C 	C 	0.50000 0.32720 0.08010 0.13700
C 	C 	0.50000 0.36140 0.04220 -0.24200
C 	C 	0.08690 0.11920 0.50000 0.13500
C 	C 	0.04350 0.08960 0.50000 -0.22300
C 	C 	0.32720 0.08010 0.50000 0.13700
C 	C 	0.36140 0.04220 0.50000 -0.24200
C 	C 	0.91310 0.11920 0.50000 0.13600
C 	C 	0.95650 0.08960 0.50000 -0.21700
C 	C 	0.67280 0.08010 0.50000 0.13700
C 	C 	0.63860 0.04220 0.50000 -0.24200
C 	C 	0.91310 0.88080 0.50000 0.13900
C 	C 	0.95650 0.91040 0.50000 -0.22200
C 	C 	0.67280 0.91990 0.50000 0.13700
C 	C 	0.63860 0.95780 0.50000 -0.23600
C 	C 	0.08690 0.88080 0.50000 0.13800
C 	C 	0.04350 0.91040 0.50000 -0.22700
C 	C 	0.32720 0.91990 0.50000 0.13700
C 	C 	0.36140 0.95780 0.50000 -0.23600
C 	C 	0.11920 0.50000 0.91310 0.13600
C 	C 	0.08960 0.50000 0.95650 -0.21700
C 	C 	0.08010 0.50000 0.67280 0.13700
C 	C 	0.04220 0.50000 0.63860 -0.24200
C 	C 	0.11920 0.50000 0.08690 0.13500
C 	C 	0.08960 0.50000 0.04350 -0.22300
C 	C 	0.08010 0.50000 0.32720 0.13700
C 	C 	0.04220 0.50000 0.36140 -0.24200
C 	C 	0.88080 0.50000 0.08690 0.13800
C 	C 	0.91040 0.50000 0.04350 -0.22700
C 	C 	0.91990 0.50000 0.32720 0.13700
C 	C 	0.95780 0.50000 0.36140 -0.23600
C 	C 	0.88080 0.50000 0.91310 0.13900
C 	C 	0.91040 0.50000 0.95650 -0.22200
C 	C 	0.91990 0.50000 0.67280 0.13700
C 	C 	0.95780 0.50000 0.63860 -0.23600
C 	C 	0.50000 0.00000 0.61900 0.01200
C 	C 	0.50000 0.00000 0.38100 0.01200
C 	C 	0.61900 0.50000 -0.00000 0.01200
C 	C 	0.38100 0.50000 -0.00000 0.01200
C 	C 	-0.00000 0.61900 0.50000 0.01200
C 	C 	-0.00000 0.38100 0.50000 0.01200
C 	C 	0.50000 0.00000 0.88100 0.01100
C 	C 	0.50000 0.00000 0.11900 0.00700
C 	C 	-0.00000 0.11900 0.50000 0.00700
C 	C 	-0.00000 0.88100 0.50000 0.01100
C 	C 	0.11900 0.50000 -0.00000 0.00700
C 	C 	0.88100 0.50000 -0.00000 0.01100
C 	C 	0.83200 0.00000 0.50000 0.03700
C 	C 	0.16800 0.00000 0.50000 0.03600
C 	C 	0.50000 0.83200 -0.00000 0.03700
C 	C 	0.50000 0.16800 -0.00000 0.03600
C 	C 	-0.00000 0.50000 0.83200 0.03700
C 	C 	-0.00000 0.50000 0.16800 0.03600
C 	C 	0.50000 0.33200 -0.00000 0.03100
C 	C 	0.50000 0.66800 -0.00000 0.03100
C 	C 	0.33200 0.00000 0.50000 0.03100
C 	C 	0.66800 0.00000 0.50000 0.03100
C 	C 	-0.00000 0.50000 0.66800 0.03100
C 	C 	-0.00000 0.50000 0.33200 0.03100
N 	N 	0.66520 0.00000 0.67010 -0.25200
N 	N 	0.76510 0.00000 0.65680 -0.25400
N 	N 	0.33480 0.00000 0.67010 -0.25200
N 	N 	0.23490 0.00000 0.65680 -0.25400
N 	N 	0.33480 0.00000 0.32990 -0.25200
N 	N 	0.23490 0.00000 0.34320 -0.25400
N 	N 	0.66520 0.00000 0.32990 -0.25200
N 	N 	0.76510 0.00000 0.34320 -0.25400
N 	N 	0.67010 0.66520 -0.00000 -0.25200
N 	N 	0.65680 0.76510 -0.00000 -0.25400
N 	N 	0.67010 0.33480 -0.00000 -0.25200
N 	N 	0.65680 0.23490 -0.00000 -0.25400
N 	N 	0.32990 0.33480 -0.00000 -0.25200
N 	N 	0.34320 0.23490 -0.00000 -0.25400
N 	N 	0.32990 0.66520 -0.00000 -0.25200
N 	N 	0.34320 0.76510 -0.00000 -0.25400
N 	N 	0.00000 0.67010 0.66520 -0.25200
N 	N 	0.00000 0.65680 0.76510 -0.25400
N 	N 	0.00000 0.67010 0.33480 -0.25200
N 	N 	0.00000 0.65680 0.23490 -0.25400
N 	N 	-0.00000 0.32990 0.33480 -0.25200
N 	N 	0.00000 0.34320 0.23490 -0.25400
N 	N 	0.00000 0.32990 0.66520 -0.25200
N 	N 	-0.00000 0.34320 0.76510 -0.25400
N 	N 	0.50000 0.16520 0.82990 -0.24700
N 	N 	0.50000 0.26510 0.84320 -0.25000
N 	N 	0.50000 0.83480 0.82990 -0.24700
N 	N 	0.50000 0.73490 0.84320 -0.25000
N 	N 	0.50000 0.83480 0.17010 -0.24700
N 	N 	0.50000 0.73490 0.15680 -0.25000
N 	N 	0.50000 0.16520 0.17010 -0.24700
N 	N 	0.50000 0.26510 0.15680 -0.25000
N 	N 	0.16520 0.17010 0.50000 -0.24700
N 	N 	0.26510 0.15680 0.50000 -0.25000
N 	N 	0.83480 0.17010 0.50000 -0.24700
N 	N 	0.73490 0.15680 0.50000 -0.25000
N 	N 	0.83480 0.82990 0.50000 -0.24700
N 	N 	0.73490 0.84320 0.50000 -0.25000
N 	N 	0.16520 0.82990 0.50000 -0.24700
N 	N 	0.26510 0.84320 0.50000 -0.25000
N 	N 	0.17010 0.50000 0.83480 -0.24700
N 	N 	0.15680 0.50000 0.73490 -0.25000
N 	N 	0.17010 0.50000 0.16520 -0.24700
N 	N 	0.15680 0.50000 0.26510 -0.25000
N 	N 	0.82990 0.50000 0.16520 -0.24700
N 	N 	0.84320 0.50000 0.26510 -0.25000
N 	N 	0.82990 0.50000 0.83480 -0.24700
N 	N 	0.84320 0.50000 0.73490 -0.25000
O 	O 	0.74550 0.81560 0.77910 -0.36700
O 	O 	0.78010 0.85830 0.70030 -0.48300
O 	O 	0.69120 0.84890 0.70950 -0.46100
O 	O 	0.74360 0.85720 0.86550 -0.46900
O 	O 	0.72550 0.93260 0.71540 -0.57600
O 	O 	0.89700 0.86100 0.82210 -0.45600
O 	O 	0.69660 0.88600 0.79180 -0.48300
O 	O 	0.78580 0.90130 0.77750 -0.48800
O 	O 	0.25450 0.18440 0.77910 -0.36600
O 	O 	0.21990 0.14170 0.70030 -0.48300
O 	O 	0.30880 0.15110 0.70950 -0.46100
O 	O 	0.25640 0.14280 0.86550 -0.47000
O 	O 	0.27450 0.06740 0.71540 -0.58000
O 	O 	0.10300 0.13900 0.82210 -0.45900
O 	O 	0.30340 0.11400 0.79180 -0.48500
O 	O 	0.21420 0.09870 0.77750 -0.48900
O 	O 	0.25450 0.81560 0.22090 -0.36600
O 	O 	0.21990 0.85830 0.29970 -0.48200
O 	O 	0.30880 0.84890 0.29050 -0.46100
O 	O 	0.25640 0.85720 0.13450 -0.46900
O 	O 	0.27450 0.93260 0.28460 -0.57700
O 	O 	0.10300 0.86100 0.17790 -0.45900
O 	O 	0.30340 0.88600 0.20820 -0.48300
O 	O 	0.21420 0.90130 0.22250 -0.48800
O 	O 	0.74550 0.18440 0.22090 -0.36600
O 	O 	0.78010 0.14170 0.29970 -0.48300
O 	O 	0.69120 0.15110 0.29050 -0.46100
O 	O 	0.74360 0.14280 0.13450 -0.47000
O 	O 	0.72550 0.06740 0.28460 -0.58100
O 	O 	0.89700 0.13900 0.17790 -0.45800
O 	O 	0.69660 0.11400 0.20820 -0.48500
O 	O 	0.78580 0.09870 0.22250 -0.48900
O 	O 	0.77910 0.74550 0.81560 -0.36700
O 	O 	0.70030 0.78010 0.85830 -0.48300
O 	O 	0.70950 0.69120 0.84890 -0.46100
O 	O 	0.86550 0.74360 0.85720 -0.46900
O 	O 	0.71540 0.72550 0.93260 -0.57600
O 	O 	0.82210 0.89700 0.86100 -0.45600
O 	O 	0.79180 0.69660 0.88600 -0.48300
O 	O 	0.77750 0.78580 0.90130 -0.48800
O 	O 	0.77910 0.25450 0.18440 -0.36600
O 	O 	0.70030 0.21990 0.14170 -0.48300
O 	O 	0.70950 0.30880 0.15110 -0.46100
O 	O 	0.86550 0.25640 0.14280 -0.47000
O 	O 	0.71540 0.27450 0.06740 -0.58000
O 	O 	0.82210 0.10300 0.13900 -0.45900
O 	O 	0.79180 0.30340 0.11400 -0.48500
O 	O 	0.77750 0.21420 0.09870 -0.48900
O 	O 	0.22090 0.25450 0.81560 -0.36600
O 	O 	0.29970 0.21990 0.85830 -0.48200
O 	O 	0.29050 0.30880 0.84890 -0.46100
O 	O 	0.13450 0.25640 0.85720 -0.46900
O 	O 	0.28460 0.27450 0.93260 -0.57700
O 	O 	0.17790 0.10300 0.86100 -0.45900
O 	O 	0.20820 0.30340 0.88600 -0.48300
O 	O 	0.22250 0.21420 0.90130 -0.48800
O 	O 	0.22090 0.74550 0.18440 -0.36600
O 	O 	0.29970 0.78010 0.14170 -0.48300
O 	O 	0.29050 0.69120 0.15110 -0.46100
O 	O 	0.13450 0.74360 0.14280 -0.47000
O 	O 	0.28460 0.72550 0.06740 -0.58100
O 	O 	0.17790 0.89700 0.13900 -0.45800
O 	O 	0.20820 0.69660 0.11400 -0.48500
O 	O 	0.22250 0.78580 0.09870 -0.48900
O 	O 	0.81560 0.77910 0.74550 -0.36700
O 	O 	0.85830 0.70030 0.78010 -0.48300
O 	O 	0.84890 0.70950 0.69120 -0.46100
O 	O 	0.85720 0.86550 0.74360 -0.46900
O 	O 	0.93260 0.71540 0.72550 -0.57600
O 	O 	0.86100 0.82210 0.89700 -0.45600
O 	O 	0.88600 0.79180 0.69660 -0.48300
O 	O 	0.90130 0.77750 0.78580 -0.48800
O 	O 	0.18440 0.77910 0.25450 -0.36600
O 	O 	0.14170 0.70030 0.21990 -0.48300
O 	O 	0.15110 0.70950 0.30880 -0.46100
O 	O 	0.14280 0.86550 0.25640 -0.47000
O 	O 	0.06740 0.71540 0.27450 -0.58000
O 	O 	0.13900 0.82210 0.10300 -0.45900
O 	O 	0.11400 0.79180 0.30340 -0.48500
O 	O 	0.09870 0.77750 0.21420 -0.48900
O 	O 	0.81560 0.22090 0.25450 -0.36600
O 	O 	0.85830 0.29970 0.21990 -0.48200
O 	O 	0.84890 0.29050 0.30880 -0.46100
O 	O 	0.85720 0.13450 0.25640 -0.46900
O 	O 	0.93260 0.28460 0.27450 -0.57700
O 	O 	0.86100 0.17790 0.10300 -0.45900
O 	O 	0.88600 0.20820 0.30340 -0.48300
O 	O 	0.90130 0.22250 0.21420 -0.48800
O 	O 	0.18440 0.22090 0.74550 -0.36600
O 	O 	0.14170 0.29970 0.78010 -0.48300
O 	O 	0.15110 0.29050 0.69120 -0.46100
O 	O 	0.14280 0.13450 0.74360 -0.47000
O 	O 	0.06740 0.28460 0.72550 -0.58100
O 	O 	0.13900 0.17790 0.89700 -0.45800
O 	O 	0.11400 0.20820 0.69660 -0.48500
O 	O 	0.09870 0.22250 0.78580 -0.48900
O 	O 	0.31560 0.24550 0.72090 -0.36600
O 	O 	0.35830 0.28010 0.79970 -0.48300
O 	O 	0.34890 0.19120 0.79050 -0.46100
O 	O 	0.35720 0.24360 0.63450 -0.47000
O 	O 	0.43260 0.22550 0.78460 -0.58000
O 	O 	0.36100 0.39700 0.67790 -0.45800
O 	O 	0.38600 0.19660 0.70820 -0.48400
O 	O 	0.40130 0.28580 0.72250 -0.48900
O 	O 	0.68440 0.75450 0.72090 -0.36600
O 	O 	0.64170 0.71990 0.79970 -0.48300
O 	O 	0.65110 0.80880 0.79050 -0.46100
O 	O 	0.64280 0.75640 0.63450 -0.47000
O 	O 	0.56740 0.77450 0.78460 -0.58000
O 	O 	0.63900 0.60300 0.67790 -0.45800
O 	O 	0.61400 0.80340 0.70820 -0.48400
O 	O 	0.59870 0.71420 0.72250 -0.48900
O 	O 	0.31560 0.75450 0.27910 -0.36600
O 	O 	0.35830 0.71990 0.20030 -0.48300
O 	O 	0.34890 0.80880 0.20950 -0.46100
O 	O 	0.35720 0.75640 0.36550 -0.47000
O 	O 	0.43260 0.77450 0.21540 -0.58000
O 	O 	0.36100 0.60300 0.32210 -0.45800
O 	O 	0.38600 0.80340 0.29180 -0.48400
O 	O 	0.40130 0.71420 0.27750 -0.48900
O 	O 	0.68440 0.24550 0.27910 -0.36600
O 	O 	0.64170 0.28010 0.20030 -0.48300
O 	O 	0.65110 0.19120 0.20950 -0.46100
O 	O 	0.64280 0.24360 0.36550 -0.47000
O 	O 	0.56740 0.22550 0.21540 -0.58000
O 	O 	0.63900 0.39700 0.32210 -0.45800
O 	O 	0.61400 0.19660 0.29180 -0.48400
O 	O 	0.59870 0.28580 0.27750 -0.48900
O 	O 	0.24550 0.27910 0.68440 -0.36600
O 	O 	0.28010 0.20030 0.64170 -0.48300
O 	O 	0.19120 0.20950 0.65110 -0.46100
O 	O 	0.24360 0.36550 0.64280 -0.47000
O 	O 	0.22550 0.21540 0.56740 -0.58000
O 	O 	0.39700 0.32210 0.63900 -0.45800
O 	O 	0.19660 0.29180 0.61400 -0.48400
O 	O 	0.28580 0.27750 0.59870 -0.48900
O 	O 	0.75450 0.27910 0.31560 -0.36600
O 	O 	0.71990 0.20030 0.35830 -0.48300
O 	O 	0.80880 0.20950 0.34890 -0.46100
O 	O 	0.75640 0.36550 0.35720 -0.47000
O 	O 	0.77450 0.21540 0.43260 -0.58000
O 	O 	0.60300 0.32210 0.36100 -0.45800
O 	O 	0.80340 0.29180 0.38600 -0.48400
O 	O 	0.71420 0.27750 0.40130 -0.48900
O 	O 	0.75450 0.72090 0.68440 -0.36600
O 	O 	0.71990 0.79970 0.64170 -0.48300
O 	O 	0.80880 0.79050 0.65110 -0.46100
O 	O 	0.75640 0.63450 0.64280 -0.47000
O 	O 	0.77450 0.78460 0.56740 -0.58000
O 	O 	0.60300 0.67790 0.63900 -0.45800
O 	O 	0.80340 0.70820 0.61400 -0.48400
O 	O 	0.71420 0.72250 0.59870 -0.48900
O 	O 	0.24550 0.72090 0.31560 -0.36600
O 	O 	0.28010 0.79970 0.35830 -0.48300
O 	O 	0.19120 0.79050 0.34890 -0.46100
O 	O 	0.24360 0.63450 0.35720 -0.47000
O 	O 	0.22550 0.78460 0.43260 -0.58000
O 	O 	0.39700 0.67790 0.36100 -0.45800
O 	O 	0.19660 0.70820 0.38600 -0.48400
O 	O 	0.28580 0.72250 0.40130 -0.48900
O 	O 	0.27910 0.31560 0.75450 -0.36600
O 	O 	0.20030 0.35830 0.71990 -0.48300
O 	O 	0.20950 0.34890 0.80880 -0.46100
O 	O 	0.36550 0.35720 0.75640 -0.47000
O 	O 	0.21540 0.43260 0.77450 -0.58000
O 	O 	0.32210 0.36100 0.60300 -0.45800
O 	O 	0.29180 0.38600 0.80340 -0.48400
O 	O 	0.27750 0.40130 0.71420 -0.48900
O 	O 	0.27910 0.68440 0.24550 -0.36600
O 	O 	0.20030 0.64170 0.28010 -0.48300
O 	O 	0.20950 0.65110 0.19120 -0.46100
O 	O 	0.36550 0.64280 0.24360 -0.47000
O 	O 	0.21540 0.56740 0.22550 -0.58000
O 	O 	0.32210 0.63900 0.39700 -0.45800
O 	O 	0.29180 0.61400 0.19660 -0.48400
O 	O 	0.27750 0.59870 0.28580 -0.48900
O 	O 	0.72090 0.31560 0.24550 -0.36600
O 	O 	0.79970 0.35830 0.28010 -0.48300
O 	O 	0.79050 0.34890 0.19120 -0.46100
O 	O 	0.63450 0.35720 0.24360 -0.47000
O 	O 	0.78460 0.43260 0.22550 -0.58000
O 	O 	0.67790 0.36100 0.39700 -0.45800
O 	O 	0.70820 0.38600 0.19660 -0.48400
O 	O 	0.72250 0.40130 0.28580 -0.48900
O 	O 	0.72090 0.68440 0.75450 -0.36600
O 	O 	0.79970 0.64170 0.71990 -0.48300
O 	O 	0.79050 0.65110 0.80880 -0.46100
O 	O 	0.63450 0.64280 0.75640 -0.47000
O 	O 	0.78460 0.56740 0.77450 -0.58000
O 	O 	0.67790 0.63900 0.60300 -0.45800
O 	O 	0.70820 0.61400 0.80340 -0.48400
O 	O 	0.72250 0.59870 0.71420 -0.48900
O 	O 	0.25450 0.18440 0.22090 -0.36600
O 	O 	0.21990 0.14170 0.29970 -0.48300
O 	O 	0.30880 0.15110 0.29050 -0.46100
O 	O 	0.25640 0.14280 0.13450 -0.47000
O 	O 	0.27450 0.06740 0.28460 -0.58100
O 	O 	0.10300 0.13900 0.17790 -0.46000
O 	O 	0.30340 0.11400 0.20820 -0.48500
O 	O 	0.21420 0.09870 0.22250 -0.48900
O 	O 	0.74550 0.81560 0.22090 -0.36600
O 	O 	0.78010 0.85830 0.29970 -0.48200
O 	O 	0.69120 0.84890 0.29050 -0.46100
O 	O 	0.74360 0.85720 0.13450 -0.46900
O 	O 	0.72550 0.93260 0.28460 -0.57600
O 	O 	0.89700 0.86100 0.17790 -0.45700
O 	O 	0.69660 0.88600 0.20820 -0.48300
O 	O 	0.78580 0.90130 0.22250 -0.48800
O 	O 	0.74550 0.18440 0.77910 -0.36600
O 	O 	0.78010 0.14170 0.70030 -0.48300
O 	O 	0.69120 0.15110 0.70950 -0.46100
O 	O 	0.74360 0.14280 0.86550 -0.47000
O 	O 	0.72550 0.06740 0.71540 -0.58000
O 	O 	0.89700 0.13900 0.82210 -0.45700
O 	O 	0.69660 0.11400 0.79180 -0.48500
O 	O 	0.78580 0.09870 0.77750 -0.48900
O 	O 	0.25450 0.81560 0.77910 -0.36700
O 	O 	0.21990 0.85830 0.70030 -0.48200
O 	O 	0.30880 0.84890 0.70950 -0.46100
O 	O 	0.25640 0.85720 0.86550 -0.46900
O 	O 	0.27450 0.93260 0.71540 -0.57600
O 	O 	0.10300 0.86100 0.82210 -0.45800
O 	O 	0.30340 0.88600 0.79180 -0.48300
O 	O 	0.21420 0.90130 0.77750 -0.48800
O 	O 	0.22090 0.25450 0.18440 -0.36600
O 	O 	0.29970 0.21990 0.14170 -0.48300
O 	O 	0.29050 0.30880 0.15110 -0.46100
O 	O 	0.13450 0.25640 0.14280 -0.47000
O 	O 	0.28460 0.27450 0.06740 -0.58100
O 	O 	0.17790 0.10300 0.13900 -0.46000
O 	O 	0.20820 0.30340 0.11400 -0.48500
O 	O 	0.22250 0.21420 0.09870 -0.48900
O 	O 	0.22090 0.74550 0.81560 -0.36600
O 	O 	0.29970 0.78010 0.85830 -0.48200
O 	O 	0.29050 0.69120 0.84890 -0.46100
O 	O 	0.13450 0.74360 0.85720 -0.46900
O 	O 	0.28460 0.72550 0.93260 -0.57600
O 	O 	0.17790 0.89700 0.86100 -0.45700
O 	O 	0.20820 0.69660 0.88600 -0.48300
O 	O 	0.22250 0.78580 0.90130 -0.48800
O 	O 	0.77910 0.74550 0.18440 -0.36600
O 	O 	0.70030 0.78010 0.14170 -0.48300
O 	O 	0.70950 0.69120 0.15110 -0.46100
O 	O 	0.86550 0.74360 0.14280 -0.47000
O 	O 	0.71540 0.72550 0.06740 -0.58000
O 	O 	0.82210 0.89700 0.13900 -0.45700
O 	O 	0.79180 0.69660 0.11400 -0.48500
O 	O 	0.77750 0.78580 0.09870 -0.48900
O 	O 	0.77910 0.25450 0.81560 -0.36700
O 	O 	0.70030 0.21990 0.85830 -0.48200
O 	O 	0.70950 0.30880 0.84890 -0.46100
O 	O 	0.86550 0.25640 0.85720 -0.46900
O 	O 	0.71540 0.27450 0.93260 -0.57600
O 	O 	0.82210 0.10300 0.86100 -0.45800
O 	O 	0.79180 0.30340 0.88600 -0.48300
O 	O 	0.77750 0.21420 0.90130 -0.48800
O 	O 	0.18440 0.22090 0.25450 -0.36600
O 	O 	0.14170 0.29970 0.21990 -0.48300
O 	O 	0.15110 0.29050 0.30880 -0.46100
O 	O 	0.14280 0.13450 0.25640 -0.47000
O 	O 	0.06740 0.28460 0.27450 -0.58100
O 	O 	0.13900 0.17790 0.10300 -0.46000
O 	O 	0.11400 0.20820 0.30340 -0.48500
O 	O 	0.09870 0.22250 0.21420 -0.48900
O 	O 	0.81560 0.22090 0.74550 -0.36600
O 	O 	0.85830 0.29970 0.78010 -0.48200
O 	O 	0.84890 0.29050 0.69120 -0.46100
O 	O 	0.85720 0.13450 0.74360 -0.46900
O 	O 	0.93260 0.28460 0.72550 -0.57600
O 	O 	0.86100 0.17790 0.89700 -0.45700
O 	O 	0.88600 0.20820 0.69660 -0.48300
O 	O 	0.90130 0.22250 0.78580 -0.48800
O 	O 	0.18440 0.77910 0.74550 -0.36600
O 	O 	0.14170 0.70030 0.78010 -0.48300
O 	O 	0.15110 0.70950 0.69120 -0.46100
O 	O 	0.14280 0.86550 0.74360 -0.47000
O 	O 	0.06740 0.71540 0.72550 -0.58000
O 	O 	0.13900 0.82210 0.89700 -0.45700
O 	O 	0.11400 0.79180 0.69660 -0.48500
O 	O 	0.09870 0.77750 0.78580 -0.48900
O 	O 	0.81560 0.77910 0.25450 -0.36700
O 	O 	0.85830 0.70030 0.21990 -0.48200
O 	O 	0.84890 0.70950 0.30880 -0.46100
O 	O 	0.85720 0.86550 0.25640 -0.46900
O 	O 	0.93260 0.71540 0.27450 -0.57600
O 	O 	0.86100 0.82210 0.10300 -0.45800
O 	O 	0.88600 0.79180 0.30340 -0.48300
O 	O 	0.90130 0.77750 0.21420 -0.48800
O 	O 	0.68440 0.75450 0.27910 -0.36600
O 	O 	0.64170 0.71990 0.20030 -0.48300
O 	O 	0.65110 0.80880 0.20950 -0.46100
O 	O 	0.64280 0.75640 0.36550 -0.47000
O 	O 	0.56740 0.77450 0.21540 -0.58000
O 	O 	0.63900 0.60300 0.32210 -0.45800
O 	O 	0.61400 0.80340 0.29180 -0.48400
O 	O 	0.59870 0.71420 0.27750 -0.48900
O 	O 	0.31560 0.24550 0.27910 -0.36600
O 	O 	0.35830 0.28010 0.20030 -0.48300
O 	O 	0.34890 0.19120 0.20950 -0.46100
O 	O 	0.35720 0.24360 0.36550 -0.47000
O 	O 	0.43260 0.22550 0.21540 -0.58000
O 	O 	0.36100 0.39700 0.32210 -0.45800
O 	O 	0.38600 0.19660 0.29180 -0.48400
O 	O 	0.40130 0.28580 0.27750 -0.48900
O 	O 	0.68440 0.24550 0.72090 -0.36600
O 	O 	0.64170 0.28010 0.79970 -0.48300
O 	O 	0.65110 0.19120 0.79050 -0.46200
O 	O 	0.64280 0.24360 0.63450 -0.47000
O 	O 	0.56740 0.22550 0.78460 -0.58000
O 	O 	0.63900 0.39700 0.67790 -0.45800
O 	O 	0.61400 0.19660 0.70820 -0.48400
O 	O 	0.59870 0.28580 0.72250 -0.48900
O 	O 	0.31560 0.75450 0.72090 -0.36600
O 	O 	0.35830 0.71990 0.79970 -0.48300
O 	O 	0.34890 0.80880 0.79050 -0.46100
O 	O 	0.35720 0.75640 0.63450 -0.47000
O 	O 	0.43260 0.77450 0.78460 -0.58000
O 	O 	0.36100 0.60300 0.67790 -0.45800
O 	O 	0.38600 0.80340 0.70820 -0.48400
O 	O 	0.40130 0.71420 0.72250 -0.48900
O 	O 	0.75450 0.72090 0.31560 -0.36600
O 	O 	0.71990 0.79970 0.35830 -0.48300
O 	O 	0.80880 0.79050 0.34890 -0.46100
O 	O 	0.75640 0.63450 0.35720 -0.47000
O 	O 	0.77450 0.78460 0.43260 -0.58000
O 	O 	0.60300 0.67790 0.36100 -0.45800
O 	O 	0.80340 0.70820 0.38600 -0.48400
O 	O 	0.71420 0.72250 0.40130 -0.48900
O 	O 	0.24550 0.72090 0.68440 -0.36600
O 	O 	0.28010 0.79970 0.64170 -0.48300
O 	O 	0.19120 0.79050 0.65110 -0.46200
O 	O 	0.24360 0.63450 0.64280 -0.47000
O 	O 	0.22550 0.78460 0.56740 -0.58000
O 	O 	0.39700 0.67790 0.63900 -0.45800
O 	O 	0.19660 0.70820 0.61400 -0.48400
O 	O 	0.28580 0.72250 0.59870 -0.48900
O 	O 	0.24550 0.27910 0.31560 -0.36600
O 	O 	0.28010 0.20030 0.35830 -0.48300
O 	O 	0.19120 0.20950 0.34890 -0.46100
O 	O 	0.24360 0.36550 0.35720 -0.47000
O 	O 	0.22550 0.21540 0.43260 -0.58000
O 	O 	0.39700 0.32210 0.36100 -0.45800
O 	O 	0.19660 0.29180 0.38600 -0.48400
O 	O 	0.28580 0.27750 0.40130 -0.48900
O 	O 	0.75450 0.27910 0.68440 -0.36600
O 	O 	0.71990 0.20030 0.64170 -0.48300
O 	O 	0.80880 0.20950 0.65110 -0.46100
O 	O 	0.75640 0.36550 0.64280 -0.47000
O 	O 	0.77450 0.21540 0.56740 -0.58000
O 	O 	0.60300 0.32210 0.63900 -0.45800
O 	O 	0.80340 0.29180 0.61400 -0.48400
O 	O 	0.71420 0.27750 0.59870 -0.48900
O 	O 	0.72090 0.68440 0.24550 -0.36600
O 	O 	0.79970 0.64170 0.28010 -0.48300
O 	O 	0.79050 0.65110 0.19120 -0.46200
O 	O 	0.63450 0.64280 0.24360 -0.47000
O 	O 	0.78460 0.56740 0.22550 -0.58000
O 	O 	0.67790 0.63900 0.39700 -0.45800
O 	O 	0.70820 0.61400 0.19660 -0.48400
O 	O 	0.72250 0.59870 0.28580 -0.48900
O 	O 	0.72090 0.31560 0.75450 -0.36600
O 	O 	0.79970 0.35830 0.71990 -0.48300
O 	O 	0.79050 0.34890 0.80880 -0.46100
O 	O 	0.63450 0.35720 0.75640 -0.47000
O 	O 	0.78460 0.43260 0.77450 -0.58000
O 	O 	0.67790 0.36100 0.60300 -0.45800
O 	O 	0.70820 0.38600 0.80340 -0.48400
O 	O 	0.72250 0.40130 0.71420 -0.48900
O 	O 	0.27910 0.68440 0.75450 -0.36600
O 	O 	0.20030 0.64170 0.71990 -0.48300
O 	O 	0.20950 0.65110 0.80880 -0.46100
O 	O 	0.36550 0.64280 0.75640 -0.47000
O 	O 	0.21540 0.56740 0.77450 -0.58000
O 	O 	0.32210 0.63900 0.60300 -0.45800
O 	O 	0.29180 0.61400 0.80340 -0.48400
O 	O 	0.27750 0.59870 0.71420 -0.48900
O 	O 	0.27910 0.31560 0.24550 -0.36600
O 	O 	0.20030 0.35830 0.28010 -0.48300
O 	O 	0.20950 0.34890 0.19120 -0.46100
O 	O 	0.36550 0.35720 0.24360 -0.47000
O 	O 	0.21540 0.43260 0.22550 -0.58000
O 	O 	0.32210 0.36100 0.39700 -0.45800
O 	O 	0.29180 0.38600 0.19660 -0.48400
O 	O 	0.27750 0.40130 0.28580 -0.48900
O 	O 	0.82000 0.82000 0.82000 -0.39700
O 	O 	0.18000 0.18000 0.82000 -0.39600
O 	O 	0.18000 0.82000 0.18000 -0.39600
O 	O 	0.82000 0.18000 0.18000 -0.39600
O 	O 	0.32000 0.32000 0.68000 -0.39600
O 	O 	0.68000 0.68000 0.68000 -0.39600
O 	O 	0.32000 0.68000 0.32000 -0.39600
O 	O 	0.68000 0.32000 0.32000 -0.39600
O 	O 	0.18000 0.18000 0.18000 -0.39500
O 	O 	0.82000 0.82000 0.18000 -0.39700
O 	O 	0.82000 0.18000 0.82000 -0.39700
O 	O 	0.18000 0.82000 0.82000 -0.39700
O 	O 	0.68000 0.68000 0.32000 -0.39600
O 	O 	0.32000 0.32000 0.32000 -0.39600
O 	O 	0.68000 0.32000 0.68000 -0.39600
O 	O 	0.32000 0.68000 0.68000 -0.39600
