data_crystal

_cell_length_a 27.09000
_cell_length_b 38.27600
_cell_length_c 19.10700
_cell_angle_alpha 90.00000
_cell_angle_beta  90.00000
_cell_angle_gamma 90.00000

_symmetry_space_group_name_	'P 1'
_symmetry_space_group_name_H-M	'P 1'

loop_
_symmetry_equiv_pos_as_xyz
  x,y,z

loop_
_atom_site_label
_atom_site_type_symbol
_atom_site_fract_x
_atom_site_fract_y
_atom_site_fract_z
_atom_site_charge
O 	O 	0.40780 0.38308 0.14720 -0.24300
N 	N 	0.44646 0.44708 0.30210 -0.21700
C 	C 	0.31430 0.30066 0.08010 -0.03200
H 	H 	0.28600 0.30120 0.10780 0.02200
O 	O 	0.66551 0.62922 0.40410 -0.25100
C 	C 	0.35300 0.32250 0.09870 0.09200
N 	N 	0.44400 0.42373 0.35630 -0.06700
N 	N 	0.41120 0.40021 0.34300 -0.05000
C 	C 	0.35610 0.27858 0.98690 0.09500
H 	H 	0.35770 0.26350 0.94890 -0.01600
N 	N 	0.39170 0.40796 0.28070 -0.06000
C 	C 	0.39650 0.29964 0.00120 -0.13600
H 	H 	0.42440 0.29860 0.97300 0.09100
N 	N 	0.34610 0.34317 0.15900 -0.25000
H 	H 	0.32180 0.33750 0.18570 0.12900
N 	N 	0.31450 0.27911 0.02620 -0.25100
N 	N 	0.55890 0.52519 0.30620 -0.23000
N 	N 	0.60080 0.59258 0.42640 -0.25500
H 	H 	0.57830 0.58810 0.45700 0.12700
N 	N 	0.65068 0.66594 0.52440 -0.05800
C 	C 	0.39500 0.32200 0.05720 -0.05300
H 	H 	0.42160 0.33650 0.06720 0.07000
N 	N 	0.66420 0.66921 0.59250 -0.05200
C 	C 	0.37310 0.37058 0.17910 0.27900
N 	N 	0.69647 0.69456 0.59490 -0.06800
C 	C 	0.35400 0.38557 0.24800 -0.22500
H 	H 	0.32440 0.39910 0.23930 0.10200
H 	H 	0.34550 0.36660 0.27950 0.11200
N 	N 	0.70351 0.70790 0.53010 -0.22100
C 	C 	0.41380 0.43663 0.25590 0.10000
H 	H 	0.40720 0.44730 0.21320 -0.00800
C 	C 	0.59370 0.52672 0.25700 0.01900
H 	H 	0.59040 0.51260 0.21770 -0.00800
C 	C 	0.63450 0.54810 0.26160 -0.03100
H 	H 	0.65880 0.54720 0.22730 0.04100
C 	C 	0.63920 0.57080 0.31680 -0.11400
H 	H 	0.66590 0.58600 0.31970 0.09300
C 	C 	0.56430 0.54687 0.36110 -0.05000
H 	H 	0.54080 0.54610 0.39650 0.01100
C 	C 	0.60340 0.57051 0.36780 0.11800
C 	C 	0.63040 0.62007 0.43860 0.27600
C 	C 	0.61390 0.64068 0.50420 -0.21900
H 	H 	0.58300 0.65260 0.49450 0.10200
H 	H 	0.60820 0.62450 0.54260 0.11500
C 	C 	0.67470 0.68991 0.48730 0.08800
H 	H 	0.67170 0.69340 0.43940 -0.00600
O 	O 	0.09220 0.61692 0.64720 -0.25000
N 	N 	0.05354 0.55292 0.80210 -0.22200
C 	C 	0.18570 0.69934 0.58010 -0.05100
H 	H 	0.21400 0.69880 0.60780 0.02700
O 	O 	0.83449 0.37078 0.90410 -0.25500
C 	C 	0.14700 0.67750 0.59870 0.12100
N 	N 	0.05600 0.57627 0.85630 -0.07000
N 	N 	0.08880 0.59979 0.84300 -0.05000
C 	C 	0.14390 0.72142 0.48690 0.00200
H 	H 	0.14230 0.73650 0.44890 0.00900
N 	N 	0.10830 0.59204 0.78070 -0.06000
C 	C 	0.10350 0.70036 0.50120 -0.02000
H 	H 	0.07560 0.70140 0.47300 0.03100
N 	N 	0.15390 0.65683 0.65900 -0.25600
H 	H 	0.17820 0.66250 0.68570 0.13000
N 	N 	0.18550 0.72089 0.52620 -0.22500
N 	N 	0.94110 0.47481 0.80620 -0.22000
N 	N 	0.89920 0.40742 0.92640 -0.26200
H 	H 	0.92170 0.41190 0.95700 0.13800
N 	N 	0.84932 0.33406 0.02440 -0.06300
C 	C 	0.10500 0.67800 0.55720 -0.12000
H 	H 	0.07840 0.66350 0.56720 0.09100
N 	N 	0.83580 0.33079 0.09250 -0.05300
C 	C 	0.12690 0.62942 0.67910 0.28100
N 	N 	0.80353 0.30544 0.09490 -0.06800
C 	C 	0.14600 0.61443 0.74800 -0.22800
H 	H 	0.17560 0.60090 0.73930 0.10400
H 	H 	0.15450 0.63340 0.77950 0.11300
N 	N 	0.79649 0.29210 0.03010 -0.23400
C 	C 	0.08620 0.56337 0.75590 0.09800
H 	H 	0.09280 0.55270 0.71320 -0.00900
C 	C 	0.90630 0.47328 0.75700 0.02000
H 	H 	0.90960 0.48740 0.71770 -0.00100
C 	C 	0.86550 0.45190 0.76160 -0.02500
H 	H 	0.84120 0.45280 0.72730 0.04300
C 	C 	0.86080 0.42920 0.81680 -0.11700
H 	H 	0.83410 0.41400 0.81970 0.09600
C 	C 	0.93570 0.45313 0.86110 -0.05000
H 	H 	0.95920 0.45390 0.89650 0.02400
C 	C 	0.89660 0.42949 0.86780 0.12700
C 	C 	0.86960 0.37993 0.93860 0.30700
C 	C 	0.88610 0.35932 0.00420 -0.28200
H 	H 	0.91700 0.34740 0.99450 0.13800
H 	H 	0.89180 0.37550 0.04260 0.13100
C 	C 	0.82530 0.31009 0.98730 0.12200
H 	H 	0.82830 0.30660 0.93940 -0.01200
O 	O 	0.59220 0.88308 0.35280 -0.24300
N 	N 	0.55354 0.94708 0.19790 -0.21800
C 	C 	0.68570 0.80066 0.41990 -0.05100
H 	H 	0.71400 0.80120 0.39220 0.02800
O 	O 	0.33449 0.12922 0.09590 -0.24800
C 	C 	0.64700 0.82250 0.40130 0.12300
N 	N 	0.55600 0.92373 0.14370 -0.07000
N 	N 	0.58880 0.90021 0.15700 -0.05200
C 	C 	0.64390 0.77858 0.51310 0.00400
H 	H 	0.64230 0.76350 0.55110 0.01200
N 	N 	0.60830 0.90796 0.21930 -0.06000
C 	C 	0.60350 0.79964 0.49880 -0.01900
H 	H 	0.57560 0.79860 0.52700 0.03800
N 	N 	0.65390 0.84317 0.34100 -0.25600
H 	H 	0.67820 0.83750 0.31430 0.13000
N 	N 	0.68550 0.77911 0.47380 -0.22400
N 	N 	0.44110 0.02519 0.19380 -0.23000
N 	N 	0.39920 0.09258 0.07360 -0.24900
H 	H 	0.42170 0.08810 0.04300 0.12200
N 	N 	0.34932 0.16594 0.97560 -0.05100
C 	C 	0.60500 0.82200 0.44280 -0.11800
H 	H 	0.57840 0.83650 0.43280 0.09600
N 	N 	0.33580 0.16921 0.90750 -0.05000
C 	C 	0.62690 0.87058 0.32090 0.28100
N 	N 	0.30353 0.19456 0.90510 -0.06700
C 	C 	0.64600 0.88557 0.25200 -0.22600
H 	H 	0.67560 0.89910 0.26070 0.10200
H 	H 	0.65450 0.86660 0.22050 0.11200
N 	N 	0.29649 0.20790 0.96990 -0.20600
C 	C 	0.58620 0.93663 0.24410 0.10000
H 	H 	0.59280 0.94730 0.28680 -0.00700
C 	C 	0.40630 0.02672 0.24300 0.02000
H 	H 	0.40960 0.01260 0.28230 -0.00700
C 	C 	0.36550 0.04810 0.23840 -0.03300
H 	H 	0.34120 0.04720 0.27270 0.04200
C 	C 	0.36080 0.07080 0.18320 -0.11200
H 	H 	0.33410 0.08600 0.18030 0.09100
C 	C 	0.43570 0.04687 0.13890 -0.04900
H 	H 	0.45920 0.04610 0.10350 0.00900
C 	C 	0.39660 0.07051 0.13220 0.11400
C 	C 	0.36960 0.12007 0.06140 0.25000
C 	C 	0.38610 0.14068 0.99580 -0.16100
H 	H 	0.41700 0.15260 0.00550 0.07400
H 	H 	0.39180 0.12450 0.95740 0.10300
C 	C 	0.32530 0.18991 0.01270 0.05400
H 	H 	0.32830 0.19340 0.06060 0.00200
O 	O 	0.90780 0.11692 0.85280 -0.23500
N 	N 	0.94646 0.05292 0.69790 -0.20900
C 	C 	0.81430 0.19934 0.91990 -0.06800
H 	H 	0.78600 0.19880 0.89220 0.03500
O 	O 	0.16551 0.87078 0.59590 -0.25100
C 	C 	0.85300 0.17750 0.90130 0.15700
N 	N 	0.94400 0.07627 0.64370 -0.06000
N 	N 	0.91120 0.09979 0.65700 -0.04700
C 	C 	0.85610 0.22142 0.01310 -0.08500
H 	H 	0.85770 0.23650 0.05110 0.04100
N 	N 	0.89170 0.09204 0.71930 -0.05800
C 	C 	0.89650 0.20036 0.99880 0.10000
H 	H 	0.92440 0.20140 0.02700 -0.00800
N 	N 	0.84610 0.15683 0.84100 -0.26100
H 	H 	0.82180 0.16250 0.81430 0.13300
N 	N 	0.81450 0.22089 0.97380 -0.19600
N 	N 	0.05890 0.97481 0.69380 -0.23400
N 	N 	0.10080 0.90742 0.57360 -0.25400
H 	H 	0.07830 0.91190 0.54300 0.12300
N 	N 	0.15068 0.83406 0.47560 -0.05900
C 	C 	0.89500 0.17800 0.94280 -0.18200
H 	H 	0.92160 0.16350 0.93280 0.12800
N 	N 	0.16420 0.83079 0.40750 -0.05400
C 	C 	0.87310 0.12942 0.82090 0.28400
N 	N 	0.19647 0.80544 0.40510 -0.06900
C 	C 	0.85400 0.11443 0.75200 -0.22500
H 	H 	0.82440 0.10090 0.76070 0.10400
H 	H 	0.84550 0.13340 0.72050 0.11400
N 	N 	0.20351 0.79210 0.46990 -0.22200
C 	C 	0.91380 0.06337 0.74410 0.10300
H 	H 	0.90720 0.05270 0.78680 -0.00200
C 	C 	0.09370 0.97328 0.74300 0.02000
H 	H 	0.09040 0.98740 0.78230 -0.00900
C 	C 	0.13450 0.95190 0.73840 -0.03300
H 	H 	0.15880 0.95280 0.77270 0.04400
C 	C 	0.13920 0.92920 0.68320 -0.11200
H 	H 	0.16590 0.91400 0.68030 0.09200
C 	C 	0.06430 0.95313 0.63890 -0.05000
H 	H 	0.04080 0.95390 0.60350 0.00200
C 	C 	0.10340 0.92949 0.63220 0.11400
C 	C 	0.13040 0.87993 0.56140 0.27300
C 	C 	0.11390 0.85932 0.49580 -0.21500
H 	H 	0.08300 0.84740 0.50550 0.09600
H 	H 	0.10820 0.87550 0.45740 0.11200
C 	C 	0.17470 0.81009 0.51270 0.08700
H 	H 	0.17170 0.80660 0.56060 -0.00700
O 	O 	0.09220 0.11692 0.85280 -0.24900
N 	N 	0.05354 0.05292 0.69790 -0.22200
C 	C 	0.18570 0.19934 0.91990 -0.06900
H 	H 	0.21400 0.19880 0.89220 0.03400
O 	O 	0.83449 0.87078 0.59590 -0.25100
C 	C 	0.14700 0.17750 0.90130 0.15300
N 	N 	0.05600 0.07627 0.64370 -0.07300
N 	N 	0.08880 0.09979 0.65700 -0.05200
C 	C 	0.14390 0.22142 0.01310 -0.08800
H 	H 	0.14230 0.23650 0.05110 0.03700
N 	N 	0.10830 0.09204 0.71930 -0.06000
C 	C 	0.10350 0.20036 0.99880 0.09700
H 	H 	0.07560 0.20140 0.02700 -0.02100
N 	N 	0.15390 0.15683 0.84100 -0.26200
H 	H 	0.17820 0.16250 0.81430 0.13100
N 	N 	0.18550 0.22089 0.97380 -0.19600
N 	N 	0.94110 0.97481 0.69380 -0.22000
N 	N 	0.89920 0.90742 0.57360 -0.25600
H 	H 	0.92170 0.91190 0.54300 0.13300
N 	N 	0.84932 0.83406 0.47560 -0.05600
C 	C 	0.10500 0.17800 0.94280 -0.18500
H 	H 	0.07840 0.16350 0.93280 0.11700
N 	N 	0.83580 0.83079 0.40750 -0.05100
C 	C 	0.12690 0.12942 0.82090 0.28300
N 	N 	0.80353 0.80544 0.40510 -0.06700
C 	C 	0.14600 0.11443 0.75200 -0.22800
H 	H 	0.17560 0.10090 0.76070 0.10400
H 	H 	0.15450 0.13340 0.72050 0.11200
N 	N 	0.79649 0.79210 0.46990 -0.22100
C 	C 	0.08620 0.06337 0.74410 0.09800
H 	H 	0.09280 0.05270 0.78680 -0.00800
C 	C 	0.90630 0.97328 0.74300 0.02100
H 	H 	0.90960 0.98740 0.78230 -0.00000
C 	C 	0.86550 0.95190 0.73840 -0.02700
H 	H 	0.84120 0.95280 0.77270 0.04400
C 	C 	0.86080 0.92920 0.68320 -0.11500
H 	H 	0.83410 0.91400 0.68030 0.09500
C 	C 	0.93570 0.95313 0.63890 -0.04900
H 	H 	0.95920 0.95390 0.60350 0.02200
C 	C 	0.89660 0.92949 0.63220 0.12300
C 	C 	0.86960 0.87993 0.56140 0.28100
C 	C 	0.88610 0.85932 0.49580 -0.22400
H 	H 	0.91700 0.84740 0.50550 0.11000
H 	H 	0.89180 0.87550 0.45740 0.11900
C 	C 	0.82530 0.81009 0.51270 0.08800
H 	H 	0.82830 0.80660 0.56060 -0.00400
O 	O 	0.40780 0.88308 0.35280 -0.24300
N 	N 	0.44646 0.94708 0.19790 -0.21800
C 	C 	0.31430 0.80066 0.41990 -0.05100
H 	H 	0.28600 0.80120 0.39220 0.02700
O 	O 	0.66551 0.12922 0.09590 -0.24800
C 	C 	0.35300 0.82250 0.40130 0.12300
N 	N 	0.44400 0.92373 0.14370 -0.07000
N 	N 	0.41120 0.90021 0.15700 -0.05200
C 	C 	0.35610 0.77858 0.51310 0.00400
H 	H 	0.35770 0.76350 0.55110 0.01100
N 	N 	0.39170 0.90796 0.21930 -0.06000
C 	C 	0.39650 0.79964 0.49880 -0.01900
H 	H 	0.42440 0.79860 0.52700 0.03800
N 	N 	0.34610 0.84317 0.34100 -0.25600
H 	H 	0.32180 0.83750 0.31430 0.13000
N 	N 	0.31450 0.77911 0.47380 -0.22400
N 	N 	0.55890 0.02519 0.19380 -0.23000
N 	N 	0.60080 0.09258 0.07360 -0.24900
H 	H 	0.57830 0.08810 0.04300 0.12200
N 	N 	0.65068 0.16594 0.97560 -0.05100
C 	C 	0.39500 0.82200 0.44280 -0.11800
H 	H 	0.42160 0.83650 0.43280 0.09600
N 	N 	0.66420 0.16921 0.90750 -0.05000
C 	C 	0.37310 0.87058 0.32090 0.28100
N 	N 	0.69647 0.19456 0.90510 -0.06600
C 	C 	0.35400 0.88557 0.25200 -0.22600
H 	H 	0.32440 0.89910 0.26070 0.10200
H 	H 	0.34550 0.86660 0.22050 0.11200
N 	N 	0.70351 0.20790 0.96990 -0.20600
C 	C 	0.41380 0.93663 0.24410 0.10000
H 	H 	0.40720 0.94730 0.28680 -0.00700
C 	C 	0.59370 0.02672 0.24300 0.02000
H 	H 	0.59040 0.01260 0.28230 -0.00700
C 	C 	0.63450 0.04810 0.23840 -0.03300
H 	H 	0.65880 0.04720 0.27270 0.04300
C 	C 	0.63920 0.07080 0.18320 -0.11200
H 	H 	0.66590 0.08600 0.18030 0.09200
C 	C 	0.56430 0.04687 0.13890 -0.04900
H 	H 	0.54080 0.04610 0.10350 0.00900
C 	C 	0.60340 0.07051 0.13220 0.11500
C 	C 	0.63040 0.12007 0.06140 0.25000
C 	C 	0.61390 0.14068 0.99580 -0.16100
H 	H 	0.58300 0.15260 0.00550 0.07400
H 	H 	0.60820 0.12450 0.95740 0.10300
C 	C 	0.67470 0.18991 0.01270 0.05400
H 	H 	0.67170 0.19340 0.06060 0.00200
O 	O 	0.90780 0.61692 0.64720 -0.23600
N 	N 	0.94646 0.55292 0.80210 -0.20900
C 	C 	0.81430 0.69934 0.58010 -0.05000
H 	H 	0.78600 0.69880 0.60780 0.02800
O 	O 	0.16551 0.37078 0.90410 -0.25500
C 	C 	0.85300 0.67750 0.59870 0.12500
N 	N 	0.94400 0.57627 0.85630 -0.05700
N 	N 	0.91120 0.59979 0.84300 -0.04500
C 	C 	0.85610 0.72142 0.48690 0.00600
H 	H 	0.85770 0.73650 0.44890 0.01300
N 	N 	0.89170 0.59204 0.78070 -0.05800
C 	C 	0.89650 0.70036 0.50120 -0.01700
H 	H 	0.92440 0.70140 0.47300 0.04400
N 	N 	0.84610 0.65683 0.65900 -0.25500
H 	H 	0.82180 0.66250 0.68570 0.13100
N 	N 	0.81450 0.72089 0.52620 -0.22400
N 	N 	0.05890 0.47481 0.80620 -0.23300
N 	N 	0.10080 0.40742 0.92640 -0.25900
H 	H 	0.07830 0.41190 0.95700 0.12800
N 	N 	0.15068 0.33406 0.02440 -0.06600
C 	C 	0.89500 0.67800 0.55720 -0.11700
H 	H 	0.92160 0.66350 0.56720 0.10200
N 	N 	0.16420 0.33079 0.09250 -0.05600
C 	C 	0.87310 0.62942 0.67910 0.28200
N 	N 	0.19647 0.30544 0.09490 -0.07000
C 	C 	0.85400 0.61443 0.74800 -0.22400
H 	H 	0.82440 0.60090 0.73930 0.10300
H 	H 	0.84550 0.63340 0.77950 0.11400
N 	N 	0.20351 0.29210 0.03010 -0.23500
C 	C 	0.91380 0.56337 0.75590 0.10300
H 	H 	0.90720 0.55270 0.71320 -0.00300
C 	C 	0.09370 0.47328 0.75700 0.01900
H 	H 	0.09040 0.48740 0.71770 -0.01000
C 	C 	0.13450 0.45190 0.76160 -0.03200
H 	H 	0.15880 0.45280 0.72730 0.04200
C 	C 	0.13920 0.42920 0.81680 -0.11500
H 	H 	0.16590 0.41400 0.81970 0.09300
C 	C 	0.06430 0.45313 0.86110 -0.05100
H 	H 	0.04080 0.45390 0.89650 0.00500
C 	C 	0.10340 0.42949 0.86780 0.11800
C 	C 	0.13040 0.37993 0.93860 0.29900
C 	C 	0.11390 0.35932 0.00420 -0.27300
H 	H 	0.08300 0.34740 0.99450 0.12400
H 	H 	0.10820 0.37550 0.04260 0.12400
C 	C 	0.17470 0.31009 0.98730 0.12100
H 	H 	0.17170 0.30660 0.93940 -0.01500
O 	O 	0.59220 0.38308 0.14720 -0.24400
N 	N 	0.55354 0.44708 0.30210 -0.21800
C 	C 	0.68570 0.30066 0.08010 -0.03400
H 	H 	0.71400 0.30120 0.10780 0.02100
O 	O 	0.33449 0.62922 0.40410 -0.25300
C 	C 	0.64700 0.32250 0.09870 0.09200
N 	N 	0.55600 0.42373 0.35630 -0.06700
N 	N 	0.58880 0.40021 0.34300 -0.05000
C 	C 	0.64390 0.27858 0.98690 0.09500
H 	H 	0.64230 0.26350 0.94890 -0.01600
N 	N 	0.60830 0.40796 0.28070 -0.06000
C 	C 	0.60350 0.29964 0.00120 -0.13600
H 	H 	0.57560 0.29860 0.97300 0.09100
N 	N 	0.65390 0.34317 0.15900 -0.25000
H 	H 	0.67820 0.33750 0.18570 0.12900
N 	N 	0.68550 0.27911 0.02620 -0.25000
N 	N 	0.44110 0.52519 0.30620 -0.23000
N 	N 	0.39920 0.59258 0.42640 -0.25500
H 	H 	0.42170 0.58810 0.45700 0.12700
N 	N 	0.34932 0.66594 0.52440 -0.05800
C 	C 	0.60500 0.32200 0.05720 -0.05300
H 	H 	0.57840 0.33650 0.06720 0.07000
N 	N 	0.33580 0.66921 0.59250 -0.05200
C 	C 	0.62690 0.37058 0.17910 0.27900
N 	N 	0.30353 0.69456 0.59490 -0.06800
C 	C 	0.64600 0.38557 0.24800 -0.22500
H 	H 	0.67560 0.39910 0.23930 0.10200
H 	H 	0.65450 0.36660 0.27950 0.11200
N 	N 	0.29649 0.70790 0.53010 -0.22100
C 	C 	0.58620 0.43663 0.25590 0.10000
H 	H 	0.59280 0.44730 0.21320 -0.00800
C 	C 	0.40630 0.52672 0.25700 0.01900
H 	H 	0.40960 0.51260 0.21770 -0.00800
C 	C 	0.36550 0.54810 0.26160 -0.03100
H 	H 	0.34120 0.54720 0.22730 0.04100
C 	C 	0.36080 0.57080 0.31680 -0.11400
H 	H 	0.33410 0.58600 0.31970 0.09200
C 	C 	0.43570 0.54687 0.36110 -0.05000
H 	H 	0.45920 0.54610 0.39650 0.01100
C 	C 	0.39660 0.57051 0.36780 0.11800
C 	C 	0.36960 0.62007 0.43860 0.27600
C 	C 	0.38610 0.64068 0.50420 -0.21900
H 	H 	0.41700 0.65260 0.49450 0.10200
H 	H 	0.39180 0.62450 0.54260 0.11500
C 	C 	0.32530 0.68991 0.48730 0.08700
H 	H 	0.32830 0.69340 0.43940 -0.00600
Co	Co	0.50000 0.48789 0.30238 1.07600
Co	Co	0.00000 0.51211 0.80238 1.06300
Co	Co	0.50000 0.98789 0.19762 1.07600
Co	Co	0.00000 0.01211 0.69762 1.06300
Co	Co	0.75000 0.75000 0.50000 1.07700
Co	Co	0.25000 0.25000 -0.00000 1.06900
Co	Co	0.75000 0.25000 -0.00000 1.07000
Co	Co	0.25000 0.75000 0.50000 1.07700
O 	O 	0.90780 0.88308 0.14720 -0.23700
N 	N 	0.94646 0.94708 0.30210 -0.20900
C 	C 	0.81430 0.80066 0.08010 -0.03300
H 	H 	0.78600 0.80120 0.10780 0.02100
O 	O 	0.16551 0.12922 0.40410 -0.25200
C 	C 	0.85300 0.82250 0.09870 0.09300
N 	N 	0.94400 0.92373 0.35630 -0.06000
N 	N 	0.91120 0.90021 0.34300 -0.04700
C 	C 	0.85610 0.77858 0.98690 0.09600
H 	H 	0.85770 0.76350 0.94890 -0.01400
N 	N 	0.89170 0.90796 0.28070 -0.05900
C 	C 	0.89650 0.79964 0.00120 -0.13400
H 	H 	0.92440 0.79860 0.97300 0.09700
N 	N 	0.84610 0.84317 0.15900 -0.24900
H 	H 	0.82180 0.83750 0.18570 0.12900
N 	N 	0.81450 0.77911 0.02620 -0.25000
N 	N 	0.05890 0.02519 0.30620 -0.23500
N 	N 	0.10080 0.09258 0.42640 -0.25400
H 	H 	0.07830 0.08810 0.45700 0.12300
N 	N 	0.15068 0.16594 0.52440 -0.05900
C 	C 	0.89500 0.82200 0.05720 -0.05100
H 	H 	0.92160 0.83650 0.06720 0.07500
N 	N 	0.16420 0.16921 0.59250 -0.05300
C 	C 	0.87310 0.87058 0.17910 0.27900
N 	N 	0.19647 0.19456 0.59490 -0.06800
C 	C 	0.85400 0.88557 0.24800 -0.22300
H 	H 	0.82440 0.89910 0.23930 0.10200
H 	H 	0.84550 0.86660 0.27950 0.11300
N 	N 	0.20351 0.20790 0.53010 -0.22200
C 	C 	0.91380 0.93663 0.25590 0.10300
H 	H 	0.90720 0.94730 0.21320 -0.00500
C 	C 	0.09370 0.02672 0.25700 0.01900
H 	H 	0.09040 0.01260 0.21770 -0.01200
C 	C 	0.13450 0.04810 0.26160 -0.03400
H 	H 	0.15880 0.04720 0.22730 0.04000
C 	C 	0.13920 0.07080 0.31680 -0.11300
H 	H 	0.16590 0.08600 0.31970 0.09100
C 	C 	0.06430 0.04687 0.36110 -0.05000
H 	H 	0.04080 0.04610 0.39650 0.00200
C 	C 	0.10340 0.07051 0.36780 0.11300
C 	C 	0.13040 0.12007 0.43860 0.27200
C 	C 	0.11390 0.14068 0.50420 -0.21500
H 	H 	0.08300 0.15260 0.49450 0.09500
H 	H 	0.10820 0.12450 0.54260 0.11200
C 	C 	0.17470 0.18991 0.48730 0.08700
H 	H 	0.17170 0.19340 0.43940 -0.00800
O 	O 	0.59220 0.11692 0.64720 -0.24300
N 	N 	0.55354 0.05292 0.80210 -0.21700
C 	C 	0.68570 0.19934 0.58010 -0.05100
H 	H 	0.71400 0.19880 0.60780 0.02800
O 	O 	0.33449 0.87078 0.90410 -0.25600
C 	C 	0.64700 0.17750 0.59870 0.12400
N 	N 	0.55600 0.07627 0.85630 -0.06400
N 	N 	0.58880 0.09979 0.84300 -0.04800
C 	C 	0.64390 0.22142 0.48690 0.00400
H 	H 	0.64230 0.23650 0.44890 0.01100
N 	N 	0.60830 0.09204 0.78070 -0.05900
C 	C 	0.60350 0.20036 0.50120 -0.01800
H 	H 	0.57560 0.20140 0.47300 0.03800
N 	N 	0.65390 0.15683 0.65900 -0.25600
H 	H 	0.67820 0.16250 0.68570 0.13100
N 	N 	0.68550 0.22089 0.52620 -0.22400
N 	N 	0.44110 0.97481 0.80620 -0.22900
N 	N 	0.39920 0.90742 0.92640 -0.26100
H 	H 	0.42170 0.91190 0.95700 0.13300
N 	N 	0.34932 0.83406 0.02440 -0.06400
C 	C 	0.60500 0.17800 0.55720 -0.11800
H 	H 	0.57840 0.16350 0.56720 0.09600
N 	N 	0.33580 0.83079 0.09250 -0.05500
C 	C 	0.62690 0.12942 0.67910 0.28200
N 	N 	0.30353 0.80544 0.09490 -0.06900
C 	C 	0.64600 0.11443 0.74800 -0.22600
H 	H 	0.67560 0.10090 0.73930 0.10400
H 	H 	0.65450 0.13340 0.77950 0.11400
N 	N 	0.29649 0.79210 0.03010 -0.23500
C 	C 	0.58620 0.06337 0.75590 0.10100
H 	H 	0.59280 0.05270 0.71320 -0.00700
C 	C 	0.40630 0.97328 0.75700 0.01900
H 	H 	0.40960 0.98740 0.71770 -0.00600
C 	C 	0.36550 0.95190 0.76160 -0.02900
H 	H 	0.34120 0.95280 0.72730 0.04200
C 	C 	0.36080 0.92920 0.81680 -0.11600
H 	H 	0.33410 0.91400 0.81970 0.09400
C 	C 	0.43570 0.95313 0.86110 -0.05100
H 	H 	0.45920 0.95390 0.89650 0.01400
C 	C 	0.39660 0.92949 0.86780 0.12200
C 	C 	0.36960 0.87993 0.93860 0.30300
C 	C 	0.38610 0.85932 0.00420 -0.27800
H 	H 	0.41700 0.84740 0.99450 0.13100
H 	H 	0.39180 0.87550 0.04260 0.12700
C 	C 	0.32530 0.81009 0.98730 0.12200
H 	H 	0.32830 0.80660 0.93940 -0.01300
O 	O 	0.09220 0.38308 0.35280 -0.25000
N 	N 	0.05354 0.44708 0.19790 -0.22300
C 	C 	0.18570 0.30066 0.41990 -0.05100
H 	H 	0.21400 0.30120 0.39220 0.02700
O 	O 	0.83449 0.62922 0.09590 -0.24800
C 	C 	0.14700 0.32250 0.40130 0.12100
N 	N 	0.05600 0.42373 0.14370 -0.07600
N 	N 	0.08880 0.40021 0.15700 -0.05400
C 	C 	0.14390 0.27858 0.51310 0.00200
H 	H 	0.14230 0.26350 0.55110 0.01000
N 	N 	0.10830 0.40796 0.21930 -0.06000
C 	C 	0.10350 0.29964 0.49880 -0.02100
H 	H 	0.07560 0.29860 0.52700 0.03200
N 	N 	0.15390 0.34317 0.34100 -0.25600
H 	H 	0.17820 0.33750 0.31430 0.12900
N 	N 	0.18550 0.27911 0.47380 -0.22500
N 	N 	0.94110 0.52519 0.19380 -0.22100
N 	N 	0.89920 0.59258 0.07360 -0.25000
H 	H 	0.92170 0.58810 0.04300 0.12700
N 	N 	0.84932 0.66594 0.97560 -0.05000
C 	C 	0.10500 0.32200 0.44280 -0.12000
H 	H 	0.07840 0.33650 0.43280 0.09000
N 	N 	0.83580 0.66921 0.90750 -0.04900
C 	C 	0.12690 0.37058 0.32090 0.28000
N 	N 	0.80353 0.69456 0.90510 -0.06600
C 	C 	0.14600 0.38557 0.25200 -0.22700
H 	H 	0.17560 0.39910 0.26070 0.10300
H 	H 	0.15450 0.36660 0.22050 0.11100
N 	N 	0.79649 0.70790 0.96990 -0.20600
C 	C 	0.08620 0.43663 0.24410 0.09700
H 	H 	0.09280 0.44730 0.28680 -0.00900
C 	C 	0.90630 0.52672 0.24300 0.02100
H 	H 	0.90960 0.51260 0.28230 -0.00200
C 	C 	0.86550 0.54810 0.23840 -0.02900
H 	H 	0.84120 0.54720 0.27270 0.04300
C 	C 	0.86080 0.57080 0.18320 -0.11300
H 	H 	0.83410 0.58600 0.18030 0.09300
C 	C 	0.93570 0.54687 0.13890 -0.04900
H 	H 	0.95920 0.54610 0.10350 0.01900
C 	C 	0.89660 0.57051 0.13220 0.11900
C 	C 	0.86960 0.62007 0.06140 0.25400
C 	C 	0.88610 0.64068 0.99580 -0.16500
H 	H 	0.91700 0.65260 0.00550 0.08200
H 	H 	0.89180 0.62450 0.95740 0.10700
C 	C 	0.82530 0.68991 0.01270 0.05400
H 	H 	0.82830 0.69340 0.06060 0.00400
O 	O 	0.40780 0.61692 0.85280 -0.24200
N 	N 	0.44646 0.55292 0.69790 -0.21800
C 	C 	0.31430 0.69934 0.91990 -0.06800
H 	H 	0.28600 0.69880 0.89220 0.03500
O 	O 	0.66551 0.37078 0.59590 -0.25100
C 	C 	0.35300 0.67750 0.90130 0.15500
N 	N 	0.44400 0.57627 0.64370 -0.06700
N 	N 	0.41120 0.59979 0.65700 -0.05000
C 	C 	0.35610 0.72142 0.01310 -0.08700
H 	H 	0.35770 0.73650 0.05110 0.03900
N 	N 	0.39170 0.59204 0.71930 -0.05900
C 	C 	0.39650 0.70036 0.99880 0.10000
H 	H 	0.42440 0.70140 0.02700 -0.01500
N 	N 	0.34610 0.65683 0.84100 -0.26200
H 	H 	0.32180 0.66250 0.81430 0.13200
N 	N 	0.31450 0.72089 0.97380 -0.19600
N 	N 	0.55890 0.47481 0.69380 -0.22900
N 	N 	0.60080 0.40742 0.57360 -0.25500
H 	H 	0.57830 0.41190 0.54300 0.12800
N 	N 	0.65068 0.33406 0.47560 -0.05800
C 	C 	0.39500 0.67800 0.94280 -0.18400
H 	H 	0.42160 0.66350 0.93280 0.12200
N 	N 	0.66420 0.33079 0.40750 -0.05200
C 	C 	0.37310 0.62942 0.82090 0.28300
N 	N 	0.69647 0.30544 0.40510 -0.06800
C 	C 	0.35400 0.61443 0.75200 -0.22700
H 	H 	0.32440 0.60090 0.76070 0.10400
H 	H 	0.34550 0.63340 0.72050 0.11300
N 	N 	0.70351 0.29210 0.46990 -0.22100
C 	C 	0.41380 0.56337 0.74410 0.10000
H 	H 	0.40720 0.55270 0.78680 -0.00500
C 	C 	0.59370 0.47328 0.74300 0.02000
H 	H 	0.59040 0.48740 0.78230 -0.00500
C 	C 	0.63450 0.45190 0.73840 -0.03000
H 	H 	0.65880 0.45280 0.77270 0.04400
C 	C 	0.63920 0.42920 0.68320 -0.11300
H 	H 	0.66590 0.41400 0.68030 0.09400
C 	C 	0.56430 0.45313 0.63890 -0.04900
H 	H 	0.54080 0.45390 0.60350 0.01100
C 	C 	0.60340 0.42949 0.63220 0.11900
C 	C 	0.63040 0.37993 0.56140 0.27600
C 	C 	0.61390 0.35932 0.49580 -0.21900
H 	H 	0.58300 0.34740 0.50550 0.10300
H 	H 	0.60820 0.37550 0.45740 0.11500
C 	C 	0.67470 0.31009 0.51270 0.08800
H 	H 	0.67170 0.30660 0.56060 -0.00500
O 	O 	0.59220 0.61692 0.85280 -0.24200
N 	N 	0.55354 0.55292 0.69790 -0.21800
C 	C 	0.68570 0.69934 0.91990 -0.06800
H 	H 	0.71400 0.69880 0.89220 0.03500
O 	O 	0.33449 0.37078 0.59590 -0.25200
C 	C 	0.64700 0.67750 0.90130 0.15500
N 	N 	0.55600 0.57627 0.64370 -0.06700
N 	N 	0.58880 0.59979 0.65700 -0.05000
C 	C 	0.64390 0.72142 0.01310 -0.08700
H 	H 	0.64230 0.73650 0.05110 0.03900
N 	N 	0.60830 0.59204 0.71930 -0.05900
C 	C 	0.60350 0.70036 0.99880 0.10000
H 	H 	0.57560 0.70140 0.02700 -0.01500
N 	N 	0.65390 0.65683 0.84100 -0.26200
H 	H 	0.67820 0.66250 0.81430 0.13200
N 	N 	0.68550 0.72089 0.97380 -0.19600
N 	N 	0.44110 0.47481 0.69380 -0.22900
N 	N 	0.39920 0.40742 0.57360 -0.25500
H 	H 	0.42170 0.41190 0.54300 0.12800
N 	N 	0.34932 0.33406 0.47560 -0.05800
C 	C 	0.60500 0.67800 0.94280 -0.18500
H 	H 	0.57840 0.66350 0.93280 0.12200
N 	N 	0.33580 0.33079 0.40750 -0.05200
C 	C 	0.62690 0.62942 0.82090 0.28400
N 	N 	0.30353 0.30544 0.40510 -0.06800
C 	C 	0.64600 0.61443 0.75200 -0.22700
H 	H 	0.67560 0.60090 0.76070 0.10400
H 	H 	0.65450 0.63340 0.72050 0.11300
N 	N 	0.29649 0.29210 0.46990 -0.22100
C 	C 	0.58620 0.56337 0.74410 0.10000
H 	H 	0.59280 0.55270 0.78680 -0.00500
C 	C 	0.40630 0.47328 0.74300 0.02000
H 	H 	0.40960 0.48740 0.78230 -0.00500
C 	C 	0.36550 0.45190 0.73840 -0.03000
H 	H 	0.34120 0.45280 0.77270 0.04400
C 	C 	0.36080 0.42920 0.68320 -0.11300
H 	H 	0.33410 0.41400 0.68030 0.09300
C 	C 	0.43570 0.45313 0.63890 -0.04900
H 	H 	0.45920 0.45390 0.60350 0.01100
C 	C 	0.39660 0.42949 0.63220 0.11800
C 	C 	0.36960 0.37993 0.56140 0.27600
C 	C 	0.38610 0.35932 0.49580 -0.21900
H 	H 	0.41700 0.34740 0.50550 0.10300
H 	H 	0.39180 0.37550 0.45740 0.11500
C 	C 	0.32530 0.31009 0.51270 0.08700
H 	H 	0.32830 0.30660 0.56060 -0.00600
O 	O 	0.90780 0.38308 0.35280 -0.23600
N 	N 	0.94646 0.44708 0.19790 -0.21000
C 	C 	0.81430 0.30066 0.41990 -0.05000
H 	H 	0.78600 0.30120 0.39220 0.02800
O 	O 	0.16551 0.62922 0.09590 -0.24800
C 	C 	0.85300 0.32250 0.40130 0.12500
N 	N 	0.94400 0.42373 0.14370 -0.06200
N 	N 	0.91120 0.40021 0.15700 -0.04900
C 	C 	0.85610 0.27858 0.51310 0.00600
H 	H 	0.85770 0.26350 0.55110 0.01400
N 	N 	0.89170 0.40796 0.21930 -0.05900
C 	C 	0.89650 0.29964 0.49880 -0.01700
H 	H 	0.92440 0.29860 0.52700 0.04500
N 	N 	0.84610 0.34317 0.34100 -0.25500
H 	H 	0.82180 0.33750 0.31430 0.13100
N 	N 	0.81450 0.27911 0.47380 -0.22400
N 	N 	0.05890 0.52519 0.19380 -0.23500
N 	N 	0.10080 0.59258 0.07360 -0.24800
H 	H 	0.07830 0.58810 0.04300 0.11700
N 	N 	0.15068 0.66594 0.97560 -0.05300
C 	C 	0.89500 0.32200 0.44280 -0.11700
H 	H 	0.92160 0.33650 0.43280 0.10200
N 	N 	0.16420 0.66921 0.90750 -0.05100
C 	C 	0.87310 0.37058 0.32090 0.28100
N 	N 	0.19647 0.69456 0.90510 -0.06700
C 	C 	0.85400 0.38557 0.25200 -0.22400
H 	H 	0.82440 0.39910 0.26070 0.10200
H 	H 	0.84550 0.36660 0.22050 0.11300
N 	N 	0.20351 0.70790 0.96990 -0.20600
C 	C 	0.91380 0.43663 0.24410 0.10200
H 	H 	0.90720 0.44730 0.28680 -0.00300
C 	C 	0.09370 0.52672 0.24300 0.02000
H 	H 	0.09040 0.51260 0.28230 -0.01100
C 	C 	0.13450 0.54810 0.23840 -0.03600
H 	H 	0.15880 0.54720 0.27270 0.04200
C 	C 	0.13920 0.57080 0.18320 -0.11100
H 	H 	0.16590 0.58600 0.18030 0.09000
C 	C 	0.06430 0.54687 0.13890 -0.04900
H 	H 	0.04080 0.54610 0.10350 0.00000
C 	C 	0.10340 0.57051 0.13220 0.11000
C 	C 	0.13040 0.62007 0.06140 0.24600
C 	C 	0.11390 0.64068 0.99580 -0.15700
H 	H 	0.08300 0.65260 0.00550 0.06700
H 	H 	0.10820 0.62450 0.95740 0.10000
C 	C 	0.17470 0.68991 0.01270 0.05300
H 	H 	0.17170 0.69340 0.06060 0.00100
O 	O 	0.40780 0.11692 0.64720 -0.24300
N 	N 	0.44646 0.05292 0.80210 -0.21700
C 	C 	0.31430 0.19934 0.58010 -0.05100
H 	H 	0.28600 0.19880 0.60780 0.02800
O 	O 	0.66551 0.87078 0.90410 -0.25500
C 	C 	0.35300 0.17750 0.59870 0.12300
N 	N 	0.44400 0.07627 0.85630 -0.06400
N 	N 	0.41120 0.09979 0.84300 -0.04800
C 	C 	0.35610 0.22142 0.48690 0.00400
H 	H 	0.35770 0.23650 0.44890 0.01100
N 	N 	0.39170 0.09204 0.78070 -0.05900
C 	C 	0.39650 0.20036 0.50120 -0.01900
H 	H 	0.42440 0.20140 0.47300 0.03800
N 	N 	0.34610 0.15683 0.65900 -0.25600
H 	H 	0.32180 0.16250 0.68570 0.13100
N 	N 	0.31450 0.22089 0.52620 -0.22400
N 	N 	0.55890 0.97481 0.80620 -0.22900
N 	N 	0.60080 0.90742 0.92640 -0.26100
H 	H 	0.57830 0.91190 0.95700 0.13300
N 	N 	0.65068 0.83406 0.02440 -0.06400
C 	C 	0.39500 0.17800 0.55720 -0.11800
H 	H 	0.42160 0.16350 0.56720 0.09600
N 	N 	0.66420 0.83079 0.09250 -0.05400
C 	C 	0.37310 0.12942 0.67910 0.28100
N 	N 	0.69647 0.80544 0.09490 -0.06900
C 	C 	0.35400 0.11443 0.74800 -0.22600
H 	H 	0.32440 0.10090 0.73930 0.10300
H 	H 	0.34550 0.13340 0.77950 0.11300
N 	N 	0.70351 0.79210 0.03010 -0.23500
C 	C 	0.41380 0.06337 0.75590 0.10100
H 	H 	0.40720 0.05270 0.71320 -0.00700
C 	C 	0.59370 0.97328 0.75700 0.01900
H 	H 	0.59040 0.98740 0.71770 -0.00600
C 	C 	0.63450 0.95190 0.76160 -0.02900
H 	H 	0.65880 0.95280 0.72730 0.04200
C 	C 	0.63920 0.92920 0.81680 -0.11600
H 	H 	0.66590 0.91400 0.81970 0.09500
C 	C 	0.56430 0.95313 0.86110 -0.05100
H 	H 	0.54080 0.95390 0.89650 0.01400
C 	C 	0.60340 0.92949 0.86780 0.12200
C 	C 	0.63040 0.87993 0.93860 0.30300
C 	C 	0.61390 0.85932 0.00420 -0.27800
H 	H 	0.58300 0.84740 0.99450 0.13100
H 	H 	0.60820 0.87550 0.04260 0.12800
C 	C 	0.67470 0.81009 0.98730 0.12200
H 	H 	0.67170 0.80660 0.93940 -0.01300
O 	O 	0.09220 0.88308 0.14720 -0.25100
N 	N 	0.05354 0.94708 0.30210 -0.22300
C 	C 	0.18570 0.80066 0.08010 -0.03400
H 	H 	0.21400 0.80120 0.10780 0.02100
O 	O 	0.83449 0.12922 0.40410 -0.25200
C 	C 	0.14700 0.82250 0.09870 0.09000
N 	N 	0.05600 0.92373 0.35630 -0.07300
N 	N 	0.08880 0.90021 0.34300 -0.05200
C 	C 	0.14390 0.77858 0.98690 0.09300
H 	H 	0.14230 0.76350 0.94890 -0.01800
N 	N 	0.10830 0.90796 0.28070 -0.06000
C 	C 	0.10350 0.79964 0.00120 -0.13800
H 	H 	0.07560 0.79860 0.97300 0.08500
N 	N 	0.15390 0.84317 0.15900 -0.25100
H 	H 	0.17820 0.83750 0.18570 0.12800
N 	N 	0.18550 0.77911 0.02620 -0.25100
N 	N 	0.94110 0.02519 0.30620 -0.22100
N 	N 	0.89920 0.09258 0.42640 -0.25600
H 	H 	0.92170 0.08810 0.45700 0.13300
N 	N 	0.84932 0.16594 0.52440 -0.05600
C 	C 	0.10500 0.82200 0.05720 -0.05400
H 	H 	0.07840 0.83650 0.06720 0.06500
N 	N 	0.83580 0.16921 0.59250 -0.05100
C 	C 	0.12690 0.87058 0.17910 0.27800
N 	N 	0.80353 0.19456 0.59490 -0.06700
C 	C 	0.14600 0.88557 0.24800 -0.22600
H 	H 	0.17560 0.89910 0.23930 0.10200
H 	H 	0.15450 0.86660 0.27950 0.11100
N 	N 	0.79649 0.20790 0.53010 -0.22100
C 	C 	0.08620 0.93663 0.25590 0.09800
H 	H 	0.09280 0.94730 0.21320 -0.01000
C 	C 	0.90630 0.02672 0.25700 0.02000
H 	H 	0.90960 0.01260 0.21770 -0.00300
C 	C 	0.86550 0.04810 0.26160 -0.02800
H 	H 	0.84120 0.04720 0.22730 0.04100
C 	C 	0.86080 0.07080 0.31680 -0.11600
H 	H 	0.83410 0.08600 0.31970 0.09400
C 	C 	0.93570 0.04687 0.36110 -0.05000
H 	H 	0.95920 0.04610 0.39650 0.02200
C 	C 	0.89660 0.07051 0.36780 0.12300
C 	C 	0.86960 0.12007 0.43860 0.28000
C 	C 	0.88610 0.14068 0.50420 -0.22400
H 	H 	0.91700 0.15260 0.49450 0.11000
H 	H 	0.89180 0.12450 0.54260 0.11900
C 	C 	0.82530 0.18991 0.48730 0.08800
H 	H 	0.82830 0.19340 0.43940 -0.00500
Co	Co	0.00000 0.98789 0.30238 1.06200
Co	Co	0.50000 0.01211 0.80238 1.07800
Co	Co	-0.00000 0.48789 0.19762 1.06100
Co	Co	0.50000 0.51211 0.69762 1.07700
Co	Co	0.25000 0.75000 -0.00000 1.06900
Co	Co	0.75000 0.25000 0.50000 1.07700
Co	Co	0.25000 0.25000 0.50000 1.07700
Co	Co	0.75000 0.75000 -0.00000 1.07000
