data_crystal

_cell_length_a 26.98290
_cell_length_b 37.60590
_cell_length_c 19.33140
_cell_angle_alpha 90.00000
_cell_angle_beta  90.00000
_cell_angle_gamma 90.00000

_symmetry_space_group_name_	'P 1'
_symmetry_space_group_name_H-M	'P 1'

loop_
_symmetry_equiv_pos_as_xyz
  x,y,z

loop_
_atom_site_label
_atom_site_type_symbol
_atom_site_fract_x
_atom_site_fract_y
_atom_site_fract_z
_atom_site_charge
C 	C 	0.31140 0.29916 0.58290 -0.05400
H 	H 	0.28300 0.29980 0.61020 0.03900
N 	N 	0.31240 0.27791 0.52730 -0.19500
O 	O 	0.66640 0.62715 0.90110 -0.23900
C 	C 	0.35270 0.27782 0.48860 0.02100
H 	H 	0.35350 0.26310 0.45000 0.01600
N 	N 	0.55520 0.52302 0.80670 -0.20200
O 	O 	0.40710 0.38188 0.64890 -0.23800
C 	C 	0.39380 0.29870 0.50310 -0.02200
H 	H 	0.42150 0.29800 0.47440 0.04200
N 	N 	0.44790 0.44699 0.80300 -0.19300
C 	C 	0.39320 0.32070 0.56060 -0.11800
H 	H 	0.42000 0.33520 0.57130 0.09900
N 	N 	0.34540 0.34075 0.66200 -0.24900
H 	H 	0.32180 0.33440 0.68920 0.12900
N 	N 	0.39250 0.40752 0.78110 -0.06100
C 	C 	0.35170 0.32038 0.60090 0.12800
C 	C 	0.37300 0.36943 0.68210 0.27100
N 	N 	0.41010 0.40051 0.84490 -0.05200
N 	N 	0.44380 0.42391 0.85760 -0.05900
C 	C 	0.35350 0.38540 0.74930 -0.21600
H 	H 	0.32440 0.39980 0.73990 0.10000
H 	H 	0.34400 0.36650 0.78090 0.10100
N 	N 	0.60160 0.59027 0.92570 -0.25900
H 	H 	0.58060 0.58530 0.95770 0.13500
C 	C 	0.41600 0.43647 0.75630 0.10100
H 	H 	0.41040 0.44710 0.71360 0.00100
N 	N 	0.65240 0.66588 0.02010 -0.05600
C 	C 	0.56300 0.54420 0.86200 -0.05100
H 	H 	0.54100 0.54240 0.89890 0.02500
N 	N 	0.67690 0.68938 0.98230 -0.03800
C 	C 	0.58920 0.52490 0.75550 0.01600
H 	H 	0.58470 0.51070 0.71650 0.00600
N 	N 	0.70540 0.70855 0.02430 -0.16200
C 	C 	0.63000 0.54670 0.75850 -0.02300
H 	H 	0.65330 0.54650 0.72300 0.04400
N 	N 	0.69520 0.69639 0.09030 -0.10900
C 	C 	0.63630 0.56910 0.81450 -0.11500
H 	H 	0.66340 0.58440 0.81680 0.09800
C 	C 	0.61520 0.64010 0.00080 -0.26900
H 	H 	0.58430 0.65230 0.99060 0.13000
H 	H 	0.60930 0.62410 0.03930 0.11900
C 	C 	0.66370 0.67121 0.08730 0.08500
H 	H 	0.65080 0.65870 0.12470 0.00900
C 	C 	0.63160 0.61856 0.93700 0.29900
C 	C 	0.60150 0.56836 0.86740 0.12600
C 	C 	0.18860 0.70084 0.08290 -0.03800
H 	H 	0.21700 0.70020 0.11020 0.03400
N 	N 	0.18760 0.72209 0.02730 -0.21800
O 	O 	0.83360 0.37285 0.40110 -0.23700
C 	C 	0.14730 0.72218 0.98860 0.09500
H 	H 	0.14650 0.73690 0.95000 -0.00800
N 	N 	0.94480 0.47698 0.30670 -0.19600
O 	O 	0.09290 0.61812 0.14890 -0.24400
C 	C 	0.10620 0.70130 0.00310 -0.11800
H 	H 	0.07850 0.70200 0.97440 0.08000
N 	N 	0.05210 0.55301 0.30300 -0.19700
C 	C 	0.10680 0.67930 0.06060 -0.06600
H 	H 	0.08000 0.66480 0.07130 0.07300
N 	N 	0.15460 0.65925 0.16200 -0.24500
H 	H 	0.17820 0.66560 0.18920 0.12600
N 	N 	0.10750 0.59248 0.28110 -0.06200
C 	C 	0.14830 0.67962 0.10090 0.10000
C 	C 	0.12700 0.63057 0.18210 0.26800
N 	N 	0.08990 0.59949 0.34490 -0.05500
N 	N 	0.05620 0.57609 0.35760 -0.06600
C 	C 	0.14650 0.61460 0.24930 -0.21600
H 	H 	0.17560 0.60020 0.23990 0.09900
H 	H 	0.15600 0.63350 0.28090 0.10000
N 	N 	0.89840 0.40973 0.42570 -0.25500
H 	H 	0.91940 0.41470 0.45770 0.13400
C 	C 	0.08400 0.56353 0.25630 0.09900
H 	H 	0.08960 0.55290 0.21360 -0.00200
N 	N 	0.84760 0.33412 0.52010 -0.05400
C 	C 	0.93700 0.45580 0.36200 -0.05000
H 	H 	0.95900 0.45760 0.39890 0.03100
N 	N 	0.82310 0.31062 0.48230 -0.04900
C 	C 	0.91080 0.47510 0.25550 0.01600
H 	H 	0.91530 0.48930 0.21650 0.00900
N 	N 	0.79460 0.29145 0.52430 -0.15500
C 	C 	0.87000 0.45330 0.25850 -0.02300
H 	H 	0.84670 0.45350 0.22300 0.04300
N 	N 	0.80480 0.30361 0.59030 -0.10800
C 	C 	0.86370 0.43090 0.31450 -0.11400
H 	H 	0.83660 0.41560 0.31680 0.09700
C 	C 	0.88480 0.35990 0.50080 -0.22200
H 	H 	0.91570 0.34770 0.49060 0.11200
H 	H 	0.89070 0.37590 0.53930 0.11100
C 	C 	0.83630 0.32879 0.58730 0.09000
H 	H 	0.84920 0.34130 0.62470 0.00900
C 	C 	0.86840 0.38144 0.43700 0.27900
C 	C 	0.89850 0.43164 0.36740 0.12700
C 	C 	0.68860 0.79916 0.91710 -0.06800
H 	H 	0.71700 0.79980 0.88980 0.04700
N 	N 	0.68760 0.77791 0.97270 -0.17000
O 	O 	0.33360 0.12715 0.59890 -0.23600
C 	C 	0.64730 0.77782 0.01140 -0.05600
H 	H 	0.64650 0.76310 0.05000 0.04000
N 	N 	0.44480 0.02302 0.69330 -0.20300
O 	O 	0.59290 0.88188 0.85110 -0.23700
C 	C 	0.60620 0.79870 0.99690 0.07400
H 	H 	0.57850 0.79800 0.02560 -0.00100
N 	N 	0.55210 0.94699 0.69700 -0.19300
C 	C 	0.60680 0.82070 0.93940 -0.17200
H 	H 	0.58000 0.83520 0.92870 0.12000
N 	N 	0.65460 0.84075 0.83800 -0.25400
H 	H 	0.67820 0.83440 0.81080 0.13000
N 	N 	0.60750 0.90752 0.71890 -0.06100
C 	C 	0.64830 0.82038 0.89910 0.15500
C 	C 	0.62700 0.86943 0.81790 0.27200
N 	N 	0.58990 0.90051 0.65510 -0.05300
N 	N 	0.55620 0.92391 0.64240 -0.06100
C 	C 	0.64650 0.88540 0.75070 -0.21700
H 	H 	0.67560 0.89980 0.76010 0.10100
H 	H 	0.65600 0.86650 0.71910 0.10100
N 	N 	0.39840 0.09027 0.57430 -0.25400
H 	H 	0.41940 0.08530 0.54230 0.13000
C 	C 	0.58400 0.93647 0.74370 0.10100
H 	H 	0.58960 0.94710 0.78640 0.00200
N 	N 	0.34760 0.16588 0.47990 -0.05600
C 	C 	0.43700 0.04420 0.63800 -0.04900
H 	H 	0.45900 0.04240 0.60110 0.02200
N 	N 	0.32310 0.18938 0.51770 -0.04900
C 	C 	0.41080 0.02490 0.74450 0.01700
H 	H 	0.41530 0.01070 0.78350 0.00700
N 	N 	0.29460 0.20855 0.47570 -0.15500
C 	C 	0.37000 0.04670 0.74150 -0.02500
H 	H 	0.34670 0.04650 0.77700 0.04500
N 	N 	0.30480 0.19639 0.40970 -0.10900
C 	C 	0.36370 0.06910 0.68550 -0.11300
H 	H 	0.33660 0.08440 0.68320 0.09600
C 	C 	0.38480 0.14010 0.49920 -0.21900
H 	H 	0.41570 0.15230 0.50940 0.10600
H 	H 	0.39070 0.12410 0.46070 0.10800
C 	C 	0.33630 0.17121 0.41270 0.08900
H 	H 	0.34920 0.15870 0.37530 0.00800
C 	C 	0.36840 0.11856 0.56300 0.27600
C 	C 	0.39850 0.06836 0.63260 0.12300
C 	C 	0.81140 0.20084 0.41710 -0.05200
H 	H 	0.78300 0.20020 0.38980 0.04000
N 	N 	0.81240 0.22209 0.47270 -0.19500
O 	O 	0.16640 0.87285 0.09890 -0.23400
C 	C 	0.85270 0.22218 0.51140 0.02200
H 	H 	0.85350 0.23690 0.55000 0.01800
N 	N 	0.05520 0.97698 0.19330 -0.20800
O 	O 	0.90710 0.11812 0.35110 -0.23200
C 	C 	0.89380 0.20130 0.49690 -0.02000
H 	H 	0.92150 0.20200 0.52560 0.04700
N 	N 	0.94790 0.05301 0.19700 -0.18600
C 	C 	0.89320 0.17930 0.43940 -0.11700
H 	H 	0.92000 0.16480 0.42870 0.10300
N 	N 	0.84540 0.15925 0.33800 -0.24900
H 	H 	0.82180 0.16560 0.31080 0.12900
N 	N 	0.89250 0.09248 0.21890 -0.06100
C 	C 	0.85170 0.17962 0.39910 0.12900
C 	C 	0.87300 0.13057 0.31790 0.27000
N 	N 	0.91010 0.09949 0.15510 -0.05300
N 	N 	0.94380 0.07609 0.14240 -0.05800
C 	C 	0.85350 0.11460 0.25070 -0.21400
H 	H 	0.82440 0.10020 0.26010 0.09900
H 	H 	0.84400 0.13350 0.21910 0.10100
N 	N 	0.10160 0.90973 0.07430 -0.24800
H 	H 	0.08060 0.91470 0.04230 0.12200
C 	C 	0.91600 0.06353 0.24370 0.10200
H 	H 	0.91040 0.05290 0.28640 0.00300
N 	N 	0.15240 0.83412 0.97990 -0.05600
C 	C 	0.06300 0.95580 0.13800 -0.04900
H 	H 	0.04100 0.95760 0.10110 0.01300
N 	N 	0.17690 0.81062 0.01770 -0.06100
C 	C 	0.08920 0.97510 0.24450 0.01600
H 	H 	0.08470 0.98930 0.28350 0.00200
N 	N 	0.20540 0.79145 0.97570 -0.14700
C 	C 	0.13000 0.95330 0.24150 -0.02900
H 	H 	0.15330 0.95350 0.27700 0.04300
N 	N 	0.19520 0.80361 0.90970 -0.10900
C 	C 	0.13630 0.93090 0.18550 -0.11100
H 	H 	0.16340 0.91560 0.18320 0.09400
C 	C 	0.11520 0.85990 0.99920 -0.16500
H 	H 	0.08430 0.84770 0.00940 0.07600
H 	H 	0.10930 0.87590 0.96070 0.09400
C 	C 	0.16370 0.82879 0.91270 0.09300
H 	H 	0.15080 0.84130 0.87530 0.00700
C 	C 	0.13160 0.88144 0.06300 0.25000
C 	C 	0.10150 0.93164 0.13260 0.11600
C 	C 	0.18860 0.20084 0.41710 -0.05300
H 	H 	0.21700 0.20020 0.38980 0.04000
N 	N 	0.18760 0.22209 0.47270 -0.19600
O 	O 	0.83360 0.87285 0.09890 -0.23300
C 	C 	0.14730 0.22218 0.51140 0.01900
H 	H 	0.14650 0.23690 0.55000 0.01500
N 	N 	0.94480 0.97698 0.19330 -0.19600
O 	O 	0.09290 0.11812 0.35110 -0.24300
C 	C 	0.10620 0.20130 0.49690 -0.02300
H 	H 	0.07850 0.20200 0.52560 0.03700
N 	N 	0.05210 0.05301 0.19700 -0.19700
C 	C 	0.10680 0.17930 0.43940 -0.11900
H 	H 	0.08000 0.16480 0.42870 0.09500
N 	N 	0.15460 0.15925 0.33800 -0.25000
H 	H 	0.17820 0.16560 0.31080 0.12800
N 	N 	0.10750 0.09248 0.21890 -0.06200
C 	C 	0.14830 0.17962 0.39910 0.12600
C 	C 	0.12700 0.13057 0.31790 0.27000
N 	N 	0.08990 0.09949 0.15510 -0.05700
N 	N 	0.05620 0.07609 0.14240 -0.06800
C 	C 	0.14650 0.11460 0.25070 -0.21700
H 	H 	0.17560 0.10020 0.26010 0.10000
H 	H 	0.15600 0.13350 0.21910 0.10000
N 	N 	0.89840 0.90973 0.07430 -0.25000
H 	H 	0.91940 0.91470 0.04230 0.13000
C 	C 	0.08400 0.06353 0.24370 0.09800
H 	H 	0.08960 0.05290 0.28640 -0.00100
N 	N 	0.84760 0.83412 0.97990 -0.05400
C 	C 	0.93700 0.95580 0.13800 -0.04800
H 	H 	0.95900 0.95760 0.10110 0.02900
N 	N 	0.82310 0.81062 0.01770 -0.05900
C 	C 	0.91080 0.97510 0.24450 0.01700
H 	H 	0.91530 0.98930 0.28350 0.01000
N 	N 	0.79460 0.79145 0.97570 -0.14700
C 	C 	0.87000 0.95330 0.24150 -0.02400
H 	H 	0.84670 0.95350 0.27700 0.04400
N 	N 	0.80480 0.80361 0.90970 -0.10800
C 	C 	0.86370 0.93090 0.18550 -0.11200
H 	H 	0.83660 0.91560 0.18320 0.09600
C 	C 	0.88480 0.85990 0.99920 -0.17200
H 	H 	0.91570 0.84770 0.00940 0.08800
H 	H 	0.89070 0.87590 0.96070 0.10000
C 	C 	0.83630 0.82879 0.91270 0.09400
H 	H 	0.84920 0.84130 0.87530 0.00900
C 	C 	0.86840 0.88144 0.06300 0.25600
C 	C 	0.89850 0.93164 0.13260 0.12400
C 	C 	0.31140 0.79916 0.91710 -0.06800
H 	H 	0.28300 0.79980 0.88980 0.04600
N 	N 	0.31240 0.77791 0.97270 -0.17100
O 	O 	0.66640 0.12715 0.59890 -0.23600
C 	C 	0.35270 0.77782 0.01140 -0.05500
H 	H 	0.35350 0.76310 0.05000 0.04000
N 	N 	0.55520 0.02302 0.69330 -0.20300
O 	O 	0.40710 0.88188 0.85110 -0.23700
C 	C 	0.39380 0.79870 0.99690 0.07400
H 	H 	0.42150 0.79800 0.02560 -0.00100
N 	N 	0.44790 0.94699 0.69700 -0.19300
C 	C 	0.39320 0.82070 0.93940 -0.17200
H 	H 	0.42000 0.83520 0.92870 0.12000
N 	N 	0.34540 0.84075 0.83800 -0.25400
H 	H 	0.32180 0.83440 0.81080 0.13000
N 	N 	0.39250 0.90752 0.71890 -0.06100
C 	C 	0.35170 0.82038 0.89910 0.15400
C 	C 	0.37300 0.86943 0.81790 0.27200
N 	N 	0.41010 0.90051 0.65510 -0.05300
N 	N 	0.44380 0.92391 0.64240 -0.06100
C 	C 	0.35350 0.88540 0.75070 -0.21600
H 	H 	0.32440 0.89980 0.76010 0.10100
H 	H 	0.34400 0.86650 0.71910 0.10100
N 	N 	0.60160 0.09027 0.57430 -0.25400
H 	H 	0.58060 0.08530 0.54230 0.13100
C 	C 	0.41600 0.93647 0.74370 0.10100
H 	H 	0.41040 0.94710 0.78640 0.00200
N 	N 	0.65240 0.16588 0.47990 -0.05600
C 	C 	0.56300 0.04420 0.63800 -0.04900
H 	H 	0.54100 0.04240 0.60110 0.02300
N 	N 	0.67690 0.18938 0.51770 -0.04900
C 	C 	0.58920 0.02490 0.74450 0.01700
H 	H 	0.58470 0.01070 0.78350 0.00700
N 	N 	0.70540 0.20855 0.47570 -0.15500
C 	C 	0.63000 0.04670 0.74150 -0.02500
H 	H 	0.65330 0.04650 0.77700 0.04500
N 	N 	0.69520 0.19639 0.40970 -0.10900
C 	C 	0.63630 0.06910 0.68550 -0.11300
H 	H 	0.66340 0.08440 0.68320 0.09700
C 	C 	0.61520 0.14010 0.49920 -0.21900
H 	H 	0.58430 0.15230 0.50940 0.10600
H 	H 	0.60930 0.12410 0.46070 0.10800
C 	C 	0.66370 0.17121 0.41270 0.08900
H 	H 	0.65080 0.15870 0.37530 0.00800
C 	C 	0.63160 0.11856 0.56300 0.27600
C 	C 	0.60150 0.06836 0.63260 0.12300
C 	C 	0.81140 0.70084 0.08290 -0.03700
H 	H 	0.78300 0.70020 0.11020 0.03500
N 	N 	0.81240 0.72209 0.02730 -0.21800
O 	O 	0.16640 0.37285 0.40110 -0.23700
C 	C 	0.85270 0.72218 0.98860 0.09800
H 	H 	0.85350 0.73690 0.95000 -0.00500
N 	N 	0.05520 0.47698 0.30670 -0.20700
O 	O 	0.90710 0.61812 0.14890 -0.23300
C 	C 	0.89380 0.70130 0.00310 -0.11600
H 	H 	0.92150 0.70200 0.97440 0.09000
N 	N 	0.94790 0.55301 0.30300 -0.18600
C 	C 	0.89320 0.67930 0.06060 -0.06400
H 	H 	0.92000 0.66480 0.07130 0.08200
N 	N 	0.84540 0.65925 0.16200 -0.24400
H 	H 	0.82180 0.66560 0.18920 0.12800
N 	N 	0.89250 0.59248 0.28110 -0.06100
C 	C 	0.85170 0.67962 0.10090 0.10300
C 	C 	0.87300 0.63057 0.18210 0.26900
N 	N 	0.91010 0.59949 0.34490 -0.05100
N 	N 	0.94380 0.57609 0.35760 -0.05500
C 	C 	0.85350 0.61460 0.24930 -0.21400
H 	H 	0.82440 0.60020 0.23990 0.09900
H 	H 	0.84400 0.63350 0.28090 0.10100
N 	N 	0.10160 0.40973 0.42570 -0.25300
H 	H 	0.08060 0.41470 0.45770 0.12700
C 	C 	0.91600 0.56353 0.25630 0.10300
H 	H 	0.91040 0.55290 0.21360 0.00200
N 	N 	0.15240 0.33412 0.52010 -0.05700
C 	C 	0.06300 0.45580 0.36200 -0.05000
H 	H 	0.04100 0.45760 0.39890 0.01500
N 	N 	0.17690 0.31062 0.48230 -0.05000
C 	C 	0.08920 0.47510 0.25550 0.01500
H 	H 	0.08470 0.48930 0.21650 0.00100
N 	N 	0.20540 0.29145 0.52430 -0.15600
C 	C 	0.13000 0.45330 0.25850 -0.02800
H 	H 	0.15330 0.45350 0.22300 0.04200
N 	N 	0.19520 0.30361 0.59030 -0.11000
C 	C 	0.13630 0.43090 0.31450 -0.11300
H 	H 	0.16340 0.41560 0.31680 0.09500
C 	C 	0.11520 0.35990 0.50080 -0.21600
H 	H 	0.08430 0.34770 0.49060 0.10000
H 	H 	0.10930 0.37590 0.53930 0.10500
C 	C 	0.16370 0.32879 0.58730 0.08800
H 	H 	0.15080 0.34130 0.62470 0.00700
C 	C 	0.13160 0.38144 0.43700 0.27300
C 	C 	0.10150 0.43164 0.36740 0.11900
C 	C 	0.68860 0.29916 0.58290 -0.05300
H 	H 	0.71700 0.29980 0.61020 0.04100
N 	N 	0.68760 0.27791 0.52730 -0.19500
O 	O 	0.33360 0.62715 0.90110 -0.24000
C 	C 	0.64730 0.27782 0.48860 0.02100
H 	H 	0.64650 0.26310 0.45000 0.01700
N 	N 	0.44480 0.52302 0.80670 -0.20200
O 	O 	0.59290 0.38188 0.64890 -0.23800
C 	C 	0.60620 0.29870 0.50310 -0.02200
H 	H 	0.57850 0.29800 0.47440 0.04200
N 	N 	0.55210 0.44699 0.80300 -0.19300
C 	C 	0.60680 0.32070 0.56060 -0.11800
H 	H 	0.58000 0.33520 0.57130 0.09900
N 	N 	0.65460 0.34075 0.66200 -0.24900
H 	H 	0.67820 0.33440 0.68920 0.12900
N 	N 	0.60750 0.40752 0.78110 -0.06100
C 	C 	0.64830 0.32038 0.60090 0.12800
C 	C 	0.62700 0.36943 0.68210 0.27100
N 	N 	0.58990 0.40051 0.84490 -0.05200
N 	N 	0.55620 0.42391 0.85760 -0.05900
C 	C 	0.64650 0.38540 0.74930 -0.21600
H 	H 	0.67560 0.39980 0.73990 0.10100
H 	H 	0.65600 0.36650 0.78090 0.10200
N 	N 	0.39840 0.59027 0.92570 -0.25900
H 	H 	0.41940 0.58530 0.95770 0.13500
C 	C 	0.58400 0.43647 0.75630 0.10100
H 	H 	0.58960 0.44710 0.71360 0.00100
N 	N 	0.34760 0.66588 0.02010 -0.05600
C 	C 	0.43700 0.54420 0.86200 -0.05100
H 	H 	0.45900 0.54240 0.89890 0.02500
N 	N 	0.32310 0.68938 0.98230 -0.03800
C 	C 	0.41080 0.52490 0.75550 0.01600
H 	H 	0.41530 0.51070 0.71650 0.00600
N 	N 	0.29460 0.70855 0.02430 -0.16200
C 	C 	0.37000 0.54670 0.75850 -0.02400
H 	H 	0.34670 0.54650 0.72300 0.04300
N 	N 	0.30480 0.69639 0.09030 -0.11000
C 	C 	0.36370 0.56910 0.81450 -0.11500
H 	H 	0.33660 0.58440 0.81680 0.09700
C 	C 	0.38480 0.64010 0.00080 -0.27000
H 	H 	0.41570 0.65230 0.99060 0.13000
H 	H 	0.39070 0.62410 0.03930 0.11900
C 	C 	0.33630 0.67121 0.08730 0.08500
H 	H 	0.34920 0.65870 0.12470 0.00900
C 	C 	0.36840 0.61856 0.93700 0.29900
C 	C 	0.39850 0.56836 0.86740 0.12600
Cu	Cu	0.50000 0.48616 0.80491 0.85500
Cu	Cu	-0.00000 0.51384 0.30491 0.84200
Cu	Cu	0.50000 0.98616 0.69509 0.85400
Cu	Cu	-0.00000 0.01384 0.19509 0.84200
Cu	Cu	0.25000 0.25000 0.50000 0.85700
Cu	Cu	0.75000 0.75000 -0.00000 0.85100
Cu	Cu	0.25000 0.75000 -0.00000 0.85100
Cu	Cu	0.75000 0.25000 0.50000 0.85700
C 	C 	0.81140 0.79916 0.58290 -0.05200
H 	H 	0.78300 0.79980 0.61020 0.04100
N 	N 	0.81240 0.77791 0.52730 -0.19500
O 	O 	0.16640 0.12715 0.90110 -0.24000
C 	C 	0.85270 0.77782 0.48860 0.02200
H 	H 	0.85350 0.76310 0.45000 0.01800
N 	N 	0.05520 0.02302 0.80670 -0.20600
O 	O 	0.90710 0.88188 0.64890 -0.23200
C 	C 	0.89380 0.79870 0.50310 -0.02000
H 	H 	0.92150 0.79800 0.47440 0.04700
N 	N 	0.94790 0.94699 0.80300 -0.18500
C 	C 	0.89320 0.82070 0.56060 -0.11700
H 	H 	0.92000 0.83520 0.57130 0.10400
N 	N 	0.84540 0.84075 0.66200 -0.24900
H 	H 	0.82180 0.83440 0.68920 0.12900
N 	N 	0.89250 0.90752 0.78110 -0.06000
C 	C 	0.85170 0.82038 0.60090 0.13000
C 	C 	0.87300 0.86943 0.68210 0.27100
N 	N 	0.91010 0.90051 0.84490 -0.05000
N 	N 	0.94380 0.92391 0.85760 -0.05300
C 	C 	0.85350 0.88540 0.74930 -0.21500
H 	H 	0.82440 0.89980 0.73990 0.10000
H 	H 	0.84400 0.86650 0.78090 0.10200
N 	N 	0.10160 0.09027 0.92570 -0.25800
H 	H 	0.08060 0.08530 0.95770 0.13200
C 	C 	0.91600 0.93647 0.75630 0.10300
H 	H 	0.91040 0.94710 0.71360 0.00300
N 	N 	0.15240 0.16588 0.02010 -0.05700
C 	C 	0.06300 0.04420 0.86200 -0.05100
H 	H 	0.04100 0.04240 0.89890 0.01800
N 	N 	0.17690 0.18938 0.98230 -0.03900
C 	C 	0.08920 0.02490 0.75550 0.01500
H 	H 	0.08470 0.01070 0.71650 0.00300
N 	N 	0.20540 0.20855 0.02430 -0.16200
C 	C 	0.13000 0.04670 0.75850 -0.02600
H 	H 	0.15330 0.04650 0.72300 0.04300
N 	N 	0.19520 0.19639 0.09030 -0.11000
C 	C 	0.13630 0.06910 0.81450 -0.11400
H 	H 	0.16340 0.08440 0.81680 0.09700
C 	C 	0.11520 0.14010 0.00080 -0.26600
H 	H 	0.08430 0.15230 0.99060 0.12500
H 	H 	0.10930 0.12410 0.03930 0.11600
C 	C 	0.16370 0.17121 0.08730 0.08400
H 	H 	0.15080 0.15870 0.12470 0.00800
C 	C 	0.13160 0.11856 0.93700 0.29600
C 	C 	0.10150 0.06836 0.86740 0.12300
C 	C 	0.68860 0.20084 0.08290 -0.03800
H 	H 	0.71700 0.20020 0.11020 0.03500
N 	N 	0.68760 0.22209 0.02730 -0.21800
O 	O 	0.33360 0.87285 0.40110 -0.23700
C 	C 	0.64730 0.22218 0.98860 0.09700
H 	H 	0.64650 0.23690 0.95000 -0.00600
N 	N 	0.44480 0.97698 0.30670 -0.20300
O 	O 	0.59290 0.11812 0.14890 -0.23800
C 	C 	0.60620 0.20130 0.00310 -0.11800
H 	H 	0.57850 0.20200 0.97440 0.08600
N 	N 	0.55210 0.05301 0.30300 -0.19300
C 	C 	0.60680 0.17930 0.06060 -0.06400
H 	H 	0.58000 0.16480 0.07130 0.07700
N 	N 	0.65460 0.15925 0.16200 -0.24400
H 	H 	0.67820 0.16560 0.18920 0.12700
N 	N 	0.60750 0.09248 0.28110 -0.06100
C 	C 	0.64830 0.17962 0.10090 0.10100
C 	C 	0.62700 0.13057 0.18210 0.26900
N 	N 	0.58990 0.09949 0.34490 -0.05300
N 	N 	0.55620 0.07609 0.35760 -0.06100
C 	C 	0.64650 0.11460 0.24930 -0.21500
H 	H 	0.67560 0.10020 0.23990 0.09900
H 	H 	0.65600 0.13350 0.28090 0.10100
N 	N 	0.39840 0.90973 0.42570 -0.25400
H 	H 	0.41940 0.91470 0.45770 0.13000
C 	C 	0.58400 0.06353 0.25630 0.10100
H 	H 	0.58960 0.05290 0.21360 -0.00000
N 	N 	0.34760 0.83412 0.52010 -0.05600
C 	C 	0.43700 0.95580 0.36200 -0.05000
H 	H 	0.45900 0.95760 0.39890 0.02200
N 	N 	0.32310 0.81062 0.48230 -0.05000
C 	C 	0.41080 0.97510 0.25550 0.01600
H 	H 	0.41530 0.98930 0.21650 0.00500
N 	N 	0.29460 0.79145 0.52430 -0.15600
C 	C 	0.37000 0.95330 0.25850 -0.02500
H 	H 	0.34670 0.95350 0.22300 0.04200
N 	N 	0.30480 0.80361 0.59030 -0.10900
C 	C 	0.36370 0.93090 0.31450 -0.11300
H 	H 	0.33660 0.91560 0.31680 0.09600
C 	C 	0.38480 0.85990 0.50080 -0.21900
H 	H 	0.41570 0.84770 0.49060 0.10600
H 	H 	0.39070 0.87590 0.53930 0.10800
C 	C 	0.33630 0.82879 0.58730 0.08900
H 	H 	0.34920 0.84130 0.62470 0.00800
C 	C 	0.36840 0.88144 0.43700 0.27600
C 	C 	0.39850 0.93164 0.36740 0.12300
C 	C 	0.18860 0.29916 0.91710 -0.06900
H 	H 	0.21700 0.29980 0.88980 0.04600
N 	N 	0.18760 0.27791 0.97270 -0.17100
O 	O 	0.83360 0.62715 0.59890 -0.23600
C 	C 	0.14730 0.27782 0.01140 -0.05700
H 	H 	0.14650 0.26310 0.05000 0.03900
N 	N 	0.94480 0.52302 0.69330 -0.19500
O 	O 	0.09290 0.38188 0.85110 -0.24200
C 	C 	0.10620 0.29870 0.99690 0.07300
H 	H 	0.07850 0.29800 0.02560 -0.00600
N 	N 	0.05210 0.44699 0.69700 -0.19700
C 	C 	0.10680 0.32070 0.93940 -0.17300
H 	H 	0.08000 0.33520 0.92870 0.11600
N 	N 	0.15460 0.34075 0.83800 -0.25400
H 	H 	0.17820 0.33440 0.81080 0.12900
N 	N 	0.10750 0.40752 0.71890 -0.06100
C 	C 	0.14830 0.32038 0.89910 0.15300
C 	C 	0.12700 0.36943 0.81790 0.27200
N 	N 	0.08990 0.40051 0.65510 -0.05500
N 	N 	0.05620 0.42391 0.64240 -0.06600
C 	C 	0.14650 0.38540 0.75070 -0.21800
H 	H 	0.17560 0.39980 0.76010 0.10100
H 	H 	0.15600 0.36650 0.71910 0.10100
N 	N 	0.89840 0.59027 0.57430 -0.25500
H 	H 	0.91940 0.58530 0.54230 0.13500
C 	C 	0.08400 0.43647 0.74370 0.09900
H 	H 	0.08960 0.44710 0.78640 -0.00000
N 	N 	0.84760 0.66588 0.47990 -0.05400
C 	C 	0.93700 0.54420 0.63800 -0.04900
H 	H 	0.95900 0.54240 0.60110 0.03100
N 	N 	0.82310 0.68938 0.51770 -0.04800
C 	C 	0.91080 0.52490 0.74450 0.01700
H 	H 	0.91530 0.51070 0.78350 0.01100
N 	N 	0.79460 0.70855 0.47570 -0.15500
C 	C 	0.87000 0.54670 0.74150 -0.02200
H 	H 	0.84670 0.54650 0.77700 0.04500
N 	N 	0.80480 0.69639 0.40970 -0.10900
C 	C 	0.86370 0.56910 0.68550 -0.11400
H 	H 	0.83660 0.58440 0.68320 0.09800
C 	C 	0.88480 0.64010 0.49920 -0.22200
H 	H 	0.91570 0.65230 0.50940 0.11200
H 	H 	0.89070 0.62410 0.46070 0.11100
C 	C 	0.83630 0.67121 0.41270 0.09000
H 	H 	0.84920 0.65870 0.37530 0.00900
C 	C 	0.86840 0.61856 0.56300 0.27900
C 	C 	0.89850 0.56836 0.63260 0.12700
C 	C 	0.31140 0.70084 0.41710 -0.05300
H 	H 	0.28300 0.70020 0.38980 0.04000
N 	N 	0.31240 0.72209 0.47270 -0.19500
O 	O 	0.66640 0.37285 0.09890 -0.23300
C 	C 	0.35270 0.72218 0.51140 0.02100
H 	H 	0.35350 0.73690 0.55000 0.01700
N 	N 	0.55520 0.47698 0.19330 -0.20400
O 	O 	0.40710 0.61812 0.35110 -0.23800
C 	C 	0.39380 0.70130 0.49690 -0.02200
H 	H 	0.42150 0.70200 0.52560 0.04200
N 	N 	0.44790 0.55301 0.19700 -0.19300
C 	C 	0.39320 0.67930 0.43940 -0.11800
H 	H 	0.42000 0.66480 0.42870 0.09900
N 	N 	0.34540 0.65925 0.33800 -0.24900
H 	H 	0.32180 0.66560 0.31080 0.12800
N 	N 	0.39250 0.59248 0.21890 -0.06100
C 	C 	0.35170 0.67962 0.39910 0.12700
C 	C 	0.37300 0.63057 0.31790 0.27000
N 	N 	0.41010 0.59949 0.15510 -0.05500
N 	N 	0.44380 0.57609 0.14240 -0.06300
C 	C 	0.35350 0.61460 0.25070 -0.21600
H 	H 	0.32440 0.60020 0.26010 0.09900
H 	H 	0.34400 0.63350 0.21910 0.10000
N 	N 	0.60160 0.40973 0.07430 -0.24900
H 	H 	0.58060 0.41470 0.04230 0.12600
C 	C 	0.41600 0.56353 0.24370 0.10000
H 	H 	0.41040 0.55290 0.28640 0.00100
N 	N 	0.65240 0.33412 0.97990 -0.05500
C 	C 	0.56300 0.45580 0.13800 -0.04900
H 	H 	0.54100 0.45760 0.10110 0.02000
N 	N 	0.67690 0.31062 0.01770 -0.06000
C 	C 	0.58920 0.47510 0.24450 0.01700
H 	H 	0.58470 0.48930 0.28350 0.00500
N 	N 	0.70540 0.29145 0.97570 -0.14700
C 	C 	0.63000 0.45330 0.24150 -0.02700
H 	H 	0.65330 0.45350 0.27700 0.04400
N 	N 	0.69520 0.30361 0.90970 -0.10800
C 	C 	0.63630 0.43090 0.18550 -0.11100
H 	H 	0.66340 0.41560 0.18320 0.09500
C 	C 	0.61520 0.35990 0.99920 -0.16800
H 	H 	0.58430 0.34770 0.00940 0.08100
H 	H 	0.60930 0.37590 0.96070 0.09700
C 	C 	0.66370 0.32879 0.91270 0.09300
H 	H 	0.65080 0.34130 0.87530 0.00800
C 	C 	0.63160 0.38144 0.06300 0.25300
C 	C 	0.60150 0.43164 0.13260 0.12000
C 	C 	0.68860 0.70084 0.41710 -0.05300
H 	H 	0.71700 0.70020 0.38980 0.04000
N 	N 	0.68760 0.72209 0.47270 -0.19500
O 	O 	0.33360 0.37285 0.09890 -0.23400
C 	C 	0.64730 0.72218 0.51140 0.02100
H 	H 	0.64650 0.73690 0.55000 0.01700
N 	N 	0.44480 0.47698 0.19330 -0.20400
O 	O 	0.59290 0.61812 0.35110 -0.23800
C 	C 	0.60620 0.70130 0.49690 -0.02200
H 	H 	0.57850 0.70200 0.52560 0.04200
N 	N 	0.55210 0.55301 0.19700 -0.19300
C 	C 	0.60680 0.67930 0.43940 -0.11800
H 	H 	0.58000 0.66480 0.42870 0.09900
N 	N 	0.65460 0.65925 0.33800 -0.24900
H 	H 	0.67820 0.66560 0.31080 0.12800
N 	N 	0.60750 0.59248 0.21890 -0.06100
C 	C 	0.64830 0.67962 0.39910 0.12800
C 	C 	0.62700 0.63057 0.31790 0.27000
N 	N 	0.58990 0.59949 0.15510 -0.05500
N 	N 	0.55620 0.57609 0.14240 -0.06300
C 	C 	0.64650 0.61460 0.25070 -0.21600
H 	H 	0.67560 0.60020 0.26010 0.10000
H 	H 	0.65600 0.63350 0.21910 0.10000
N 	N 	0.39840 0.40973 0.07430 -0.24900
H 	H 	0.41940 0.41470 0.04230 0.12600
C 	C 	0.58400 0.56353 0.24370 0.10100
H 	H 	0.58960 0.55290 0.28640 0.00100
N 	N 	0.34760 0.33412 0.97990 -0.05500
C 	C 	0.43700 0.45580 0.13800 -0.04900
H 	H 	0.45900 0.45760 0.10110 0.02000
N 	N 	0.32310 0.31062 0.01770 -0.06100
C 	C 	0.41080 0.47510 0.24450 0.01700
H 	H 	0.41530 0.48930 0.28350 0.00500
N 	N 	0.29460 0.29145 0.97570 -0.14700
C 	C 	0.37000 0.45330 0.24150 -0.02700
H 	H 	0.34670 0.45350 0.27700 0.04400
N 	N 	0.30480 0.30361 0.90970 -0.10900
C 	C 	0.36370 0.43090 0.18550 -0.11100
H 	H 	0.33660 0.41560 0.18320 0.09500
C 	C 	0.38480 0.35990 0.99920 -0.16800
H 	H 	0.41570 0.34770 0.00940 0.08100
H 	H 	0.39070 0.37590 0.96070 0.09700
C 	C 	0.33630 0.32879 0.91270 0.09300
H 	H 	0.34920 0.34130 0.87530 0.00800
C 	C 	0.36840 0.38144 0.06300 0.25300
C 	C 	0.39850 0.43164 0.13260 0.12000
C 	C 	0.81140 0.29916 0.91710 -0.06800
H 	H 	0.78300 0.29980 0.88980 0.04700
N 	N 	0.81240 0.27791 0.97270 -0.17000
O 	O 	0.16640 0.62715 0.59890 -0.23600
C 	C 	0.85270 0.27782 0.01140 -0.05400
H 	H 	0.85350 0.26310 0.05000 0.04200
N 	N 	0.05520 0.52302 0.69330 -0.20700
O 	O 	0.90710 0.38188 0.85110 -0.23100
C 	C 	0.89380 0.29870 0.99690 0.07600
H 	H 	0.92150 0.29800 0.02560 0.00400
N 	N 	0.94790 0.44699 0.69700 -0.18600
C 	C 	0.89320 0.32070 0.93940 -0.17100
H 	H 	0.92000 0.33520 0.92870 0.12500
N 	N 	0.84540 0.34075 0.83800 -0.25400
H 	H 	0.82180 0.33440 0.81080 0.13000
N 	N 	0.89250 0.40752 0.71890 -0.06000
C 	C 	0.85170 0.32038 0.89910 0.15600
C 	C 	0.87300 0.36943 0.81790 0.27300
N 	N 	0.91010 0.40051 0.65510 -0.05100
N 	N 	0.94380 0.42391 0.64240 -0.05500
C 	C 	0.85350 0.38540 0.75070 -0.21500
H 	H 	0.82440 0.39980 0.76010 0.10100
H 	H 	0.84400 0.36650 0.71910 0.10200
N 	N 	0.10160 0.59027 0.57430 -0.25300
H 	H 	0.08060 0.58530 0.54230 0.12700
C 	C 	0.91600 0.43647 0.74370 0.10300
H 	H 	0.91040 0.44710 0.78640 0.00400
N 	N 	0.15240 0.66588 0.47990 -0.05700
C 	C 	0.06300 0.54420 0.63800 -0.05000
H 	H 	0.04100 0.54240 0.60110 0.01500
N 	N 	0.17690 0.68938 0.51770 -0.05000
C 	C 	0.08920 0.52490 0.74450 0.01600
H 	H 	0.08470 0.51070 0.78350 0.00400
N 	N 	0.20540 0.70855 0.47570 -0.15600
C 	C 	0.13000 0.54670 0.74150 -0.02700
H 	H 	0.15330 0.54650 0.77700 0.04400
N 	N 	0.19520 0.69639 0.40970 -0.11000
C 	C 	0.13630 0.56910 0.68550 -0.11200
H 	H 	0.16340 0.58440 0.68320 0.09600
C 	C 	0.11520 0.64010 0.49920 -0.21500
H 	H 	0.08430 0.65230 0.50940 0.10000
H 	H 	0.10930 0.62410 0.46070 0.10500
C 	C 	0.16370 0.67121 0.41270 0.08800
H 	H 	0.15080 0.65870 0.37530 0.00700
C 	C 	0.13160 0.61856 0.56300 0.27300
C 	C 	0.10150 0.56836 0.63260 0.12000
C 	C 	0.31140 0.20084 0.08290 -0.03800
H 	H 	0.28300 0.20020 0.11020 0.03400
N 	N 	0.31240 0.22209 0.02730 -0.21800
O 	O 	0.66640 0.87285 0.40110 -0.23600
C 	C 	0.35270 0.22218 0.98860 0.09700
H 	H 	0.35350 0.23690 0.95000 -0.00700
N 	N 	0.55520 0.97698 0.30670 -0.20300
O 	O 	0.40710 0.11812 0.14890 -0.23800
C 	C 	0.39380 0.20130 0.00310 -0.11800
H 	H 	0.42150 0.20200 0.97440 0.08600
N 	N 	0.44790 0.05301 0.30300 -0.19300
C 	C 	0.39320 0.17930 0.06060 -0.06400
H 	H 	0.42000 0.16480 0.07130 0.07700
N 	N 	0.34540 0.15925 0.16200 -0.24400
H 	H 	0.32180 0.16560 0.18920 0.12700
N 	N 	0.39250 0.09248 0.28110 -0.06100
C 	C 	0.35170 0.17962 0.10090 0.10100
C 	C 	0.37300 0.13057 0.18210 0.26800
N 	N 	0.41010 0.09949 0.34490 -0.05300
N 	N 	0.44380 0.07609 0.35760 -0.06100
C 	C 	0.35350 0.11460 0.24930 -0.21500
H 	H 	0.32440 0.10020 0.23990 0.09900
H 	H 	0.34400 0.13350 0.28090 0.10100
N 	N 	0.60160 0.90973 0.42570 -0.25400
H 	H 	0.58060 0.91470 0.45770 0.13000
C 	C 	0.41600 0.06353 0.25630 0.10100
H 	H 	0.41040 0.05290 0.21360 -0.00000
N 	N 	0.65240 0.83412 0.52010 -0.05600
C 	C 	0.56300 0.95580 0.36200 -0.05000
H 	H 	0.54100 0.95760 0.39890 0.02300
N 	N 	0.67690 0.81062 0.48230 -0.04900
C 	C 	0.58920 0.97510 0.25550 0.01600
H 	H 	0.58470 0.98930 0.21650 0.00500
N 	N 	0.70540 0.79145 0.52430 -0.15500
C 	C 	0.63000 0.95330 0.25850 -0.02500
H 	H 	0.65330 0.95350 0.22300 0.04200
N 	N 	0.69520 0.80361 0.59030 -0.10900
C 	C 	0.63630 0.93090 0.31450 -0.11300
H 	H 	0.66340 0.91560 0.31680 0.09600
C 	C 	0.61520 0.85990 0.50080 -0.21900
H 	H 	0.58430 0.84770 0.49060 0.10600
H 	H 	0.60930 0.87590 0.53930 0.10800
C 	C 	0.66370 0.82879 0.58730 0.08900
H 	H 	0.65080 0.84130 0.62470 0.00800
C 	C 	0.63160 0.88144 0.43700 0.27600
C 	C 	0.60150 0.93164 0.36740 0.12300
C 	C 	0.18860 0.79916 0.58290 -0.05300
H 	H 	0.21700 0.79980 0.61020 0.04000
N 	N 	0.18760 0.77791 0.52730 -0.19500
O 	O 	0.83360 0.12715 0.90110 -0.23900
C 	C 	0.14730 0.77782 0.48860 0.01900
H 	H 	0.14650 0.76310 0.45000 0.01500
N 	N 	0.94480 0.02302 0.80670 -0.19500
O 	O 	0.09290 0.88188 0.64890 -0.24300
C 	C 	0.10620 0.79870 0.50310 -0.02300
H 	H 	0.07850 0.79800 0.47440 0.03700
N 	N 	0.05210 0.94699 0.80300 -0.19600
C 	C 	0.10680 0.82070 0.56060 -0.11900
H 	H 	0.08000 0.83520 0.57130 0.09500
N 	N 	0.15460 0.84075 0.66200 -0.25000
H 	H 	0.17820 0.83440 0.68920 0.12800
N 	N 	0.10750 0.90752 0.78110 -0.06100
C 	C 	0.14830 0.82038 0.60090 0.12600
C 	C 	0.12700 0.86943 0.68210 0.27000
N 	N 	0.08990 0.90051 0.84490 -0.05300
N 	N 	0.05620 0.92391 0.85760 -0.06400
C 	C 	0.14650 0.88540 0.74930 -0.21700
H 	H 	0.17560 0.89980 0.73990 0.10100
H 	H 	0.15600 0.86650 0.78090 0.10100
N 	N 	0.89840 0.09027 0.92570 -0.26000
H 	H 	0.91940 0.08530 0.95770 0.13900
C 	C 	0.08400 0.93647 0.75630 0.09900
H 	H 	0.08960 0.94710 0.71360 -0.00100
N 	N 	0.84760 0.16588 0.02010 -0.05500
C 	C 	0.93700 0.04420 0.86200 -0.05000
H 	H 	0.95900 0.04240 0.89890 0.03300
N 	N 	0.82310 0.18938 0.98230 -0.03700
C 	C 	0.91080 0.02490 0.75550 0.01600
H 	H 	0.91530 0.01070 0.71650 0.01000
N 	N 	0.79460 0.20855 0.02430 -0.16200
C 	C 	0.87000 0.04670 0.75850 -0.02100
H 	H 	0.84670 0.04650 0.72300 0.04400
N 	N 	0.80480 0.19639 0.09030 -0.10900
C 	C 	0.86370 0.06910 0.81450 -0.11500
H 	H 	0.83660 0.08440 0.81680 0.09900
C 	C 	0.88480 0.14010 0.00080 -0.27300
H 	H 	0.91570 0.15230 0.99060 0.13600
H 	H 	0.89070 0.12410 0.03930 0.12100
C 	C 	0.83630 0.17121 0.08730 0.08600
H 	H 	0.84920 0.15870 0.12470 0.01000
C 	C 	0.86840 0.11856 0.93700 0.30200
C 	C 	0.89850 0.06836 0.86740 0.13000
Cu	Cu	-0.00000 0.98616 0.80491 0.84300
Cu	Cu	0.50000 0.01384 0.30491 0.85400
Cu	Cu	-0.00000 0.48616 0.69509 0.84300
Cu	Cu	0.50000 0.51384 0.19509 0.85400
Cu	Cu	0.75000 0.25000 -0.00000 0.85100
Cu	Cu	0.25000 0.75000 0.50000 0.85700
Cu	Cu	0.75000 0.75000 0.50000 0.85700
Cu	Cu	0.25000 0.25000 -0.00000 0.85100
