data_crystal

_cell_length_a 14.18690
_cell_length_b 14.86230
_cell_length_c 14.86230
_cell_angle_alpha 76.80640
_cell_angle_beta  63.57100
_cell_angle_gamma 116.42900

_symmetry_space_group_name_	'P 1'
_symmetry_space_group_name_H-M	'P 1'

loop_
_symmetry_equiv_pos_as_xyz
  x,y,z

loop_
_atom_site_label
_atom_site_type_symbol
_atom_site_fract_x
_atom_site_fract_y
_atom_site_fract_z
_atom_site_charge
Cd	Cd	0.75000 0.43594 0.93594 1.25100
Cd	Cd	0.25000 0.56406 0.06406 1.21100
Cd	Cd	0.00000 0.50000 -0.00000 1.14400
Cd	Cd	0.50000 0.50000 -0.00000 1.15700
Si	Si	0.25000 0.20678 0.70678 0.78200
Si	Si	0.75000 0.79322 0.29322 0.79200
H 	H 	0.09750 0.03990 0.66470 -0.04500
H 	H 	0.98040 0.83970 0.73410 0.12900
H 	H 	0.04180 0.79740 0.97520 0.10700
H 	H 	0.16050 0.99830 0.90410 -0.00300
H 	H 	0.28930 0.41760 0.70320 -0.00000
H 	H 	0.15310 0.47200 0.77360 0.05500
H 	H 	0.82720 0.15200 0.89580 0.06500
H 	H 	0.96110 0.09670 0.82550 0.07900
H 	H 	0.40250 0.16470 0.53990 -0.01200
H 	H 	0.51960 0.23410 0.33970 0.05400
H 	H 	0.45820 0.47520 0.29740 0.06600
H 	H 	0.33950 0.40410 0.49830 -0.01400
H 	H 	0.21070 0.20320 0.91760 0.01500
H 	H 	0.34690 0.27360 0.97200 0.07500
H 	H 	0.67280 0.39580 0.65200 0.08100
H 	H 	0.53890 0.32550 0.59670 -0.00900
H 	H 	0.90250 0.96010 0.33530 0.01800
H 	H 	0.01960 0.16030 0.26590 -0.00700
H 	H 	0.95820 0.20260 0.02480 0.03600
H 	H 	0.83950 0.00170 0.09590 -0.02300
H 	H 	0.71070 0.58240 0.29680 -0.01000
H 	H 	0.84690 0.52800 0.22640 0.03800
H 	H 	0.17280 0.84800 0.10420 0.08500
H 	H 	0.03890 0.90330 0.17450 -0.11100
H 	H 	0.59750 0.83530 0.46010 -0.01700
H 	H 	0.48040 0.76590 0.66030 0.07200
H 	H 	0.54180 0.52480 0.70260 0.07400
H 	H 	0.66050 0.59590 0.50170 -0.01200
H 	H 	0.78930 0.79680 0.08240 -0.02400
H 	H 	0.65310 0.72640 0.02800 0.01800
H 	H 	0.32720 0.60420 0.34800 0.06500
H 	H 	0.46110 0.67450 0.40330 -0.01100
C 	C 	0.14513 0.04267 0.77471 -0.31200
C 	C 	0.08800 0.99128 0.72728 0.15200
C 	C 	0.01810 0.87192 0.76832 -0.19400
C 	C 	0.00307 0.79925 0.85945 -0.00700
C 	C 	0.05460 0.84694 0.91054 -0.12100
C 	C 	0.12490 0.96690 0.86810 0.13300
C 	C 	0.93117 0.66957 0.90277 0.35800
C 	C 	0.13976 0.24991 0.75813 -0.22600
C 	C 	0.19540 0.36292 0.74252 0.06900
C 	C 	0.11445 0.39565 0.78405 -0.10000
C 	C 	0.97785 0.31712 0.84052 -0.00800
C 	C 	0.92123 0.20601 0.85641 0.01500
C 	C 	0.00110 0.17305 0.81505 -0.05300
C 	C 	0.89011 0.35151 0.88951 0.31000
C 	C 	0.35487 0.27471 0.54267 -0.28100
C 	C 	0.41200 0.22728 0.49128 0.08100
C 	C 	0.48190 0.26832 0.37192 -0.09100
C 	C 	0.49693 0.35945 0.29925 -0.04900
C 	C 	0.44540 0.41054 0.34694 -0.09700
C 	C 	0.37510 0.36810 0.46690 0.08800
C 	C 	0.56883 0.40277 0.16957 0.34200
C 	C 	0.36024 0.25813 0.74991 -0.27000
C 	C 	0.30460 0.24252 0.86292 0.08600
C 	C 	0.38555 0.28405 0.89565 -0.08300
C 	C 	0.52215 0.34052 0.81712 -0.01700
C 	C 	0.57877 0.35641 0.70601 -0.09700
C 	C 	0.49890 0.31505 0.67305 0.09000
C 	C 	0.60989 0.38951 0.85151 0.29500
C 	C 	0.85487 0.95733 0.22529 -0.25300
C 	C 	0.91200 0.00872 0.27272 0.01800
C 	C 	0.98190 0.12808 0.23168 0.00600
C 	C 	0.99693 0.20075 0.14055 -0.05800
C 	C 	0.94540 0.15306 0.08946 -0.08200
C 	C 	0.87510 0.03310 0.13190 0.05500
C 	C 	0.06883 0.33043 0.09723 0.31300
C 	C 	0.86024 0.75009 0.24187 -0.32600
C 	C 	0.80460 0.63708 0.25748 0.08600
C 	C 	0.88555 0.60435 0.21595 -0.06100
C 	C 	0.02215 0.68288 0.15948 -0.06100
C 	C 	0.07877 0.79399 0.14359 -0.21600
C 	C 	0.99890 0.82695 0.18495 0.24100
C 	C 	0.10989 0.64849 0.11049 0.29400
C 	C 	0.64513 0.72529 0.45733 -0.28700
C 	C 	0.58800 0.77272 0.50872 0.09500
C 	C 	0.51810 0.73168 0.62808 -0.10200
C 	C 	0.50307 0.64055 0.70075 -0.01900
C 	C 	0.55460 0.58946 0.65306 -0.10600
C 	C 	0.62490 0.63190 0.53310 0.10000
C 	C 	0.43117 0.59723 0.83043 0.33400
C 	C 	0.63976 0.74187 0.25009 -0.27600
C 	C 	0.69540 0.75748 0.13708 0.06600
C 	C 	0.61445 0.71595 0.10435 -0.08000
C 	C 	0.47785 0.65948 0.18288 -0.05300
C 	C 	0.42123 0.64359 0.29399 -0.08800
C 	C 	0.50110 0.68495 0.32695 0.07600
C 	C 	0.39011 0.61049 0.14849 0.31000
O 	O 	0.87448 0.62961 0.85869 -0.41300
O 	O 	0.93073 0.60948 0.97634 -0.39100
O 	O 	0.94075 0.44805 0.88643 -0.47100
O 	O 	0.77029 0.28677 0.92857 -0.33500
O 	O 	0.62552 0.35869 0.12961 -0.49400
O 	O 	0.56927 0.47634 0.10948 -0.50300
O 	O 	0.55925 0.38643 0.94805 -0.46600
O 	O 	0.72971 0.42857 0.78677 -0.35500
O 	O 	0.12552 0.37039 0.14131 -0.46500
O 	O 	0.06927 0.39052 0.02366 -0.52400
O 	O 	0.05925 0.55195 0.11357 -0.55100
O 	O 	0.22971 0.71323 0.07143 -0.40400
O 	O 	0.37448 0.64131 0.87039 -0.38200
O 	O 	0.43073 0.52366 0.89052 -0.41300
O 	O 	0.44075 0.61357 0.05195 -0.55800
O 	O 	0.27029 0.57143 0.21323 -0.38500
