data_crystal

_cell_length_a 13.70100
_cell_length_b 14.34410
_cell_length_c 24.53470
_cell_angle_alpha 78.36860
_cell_angle_beta  73.78650
_cell_angle_gamma 61.47220

_symmetry_space_group_name_	'P 1'
_symmetry_space_group_name_H-M	'P 1'

loop_
_symmetry_equiv_pos_as_xyz
  x,y,z

loop_
_atom_site_label
_atom_site_type_symbol
_atom_site_fract_x
_atom_site_fract_y
_atom_site_fract_z
_atom_site_charge
Zn	Zn	0.69125 0.08307 0.95633 1.24300
Zn	Zn	0.73065 0.41693 0.54367 1.23600
Zn	Zn	0.30875 0.91693 0.04367 1.22600
Zn	Zn	0.26935 0.58307 0.45633 1.23600
Zn	Zn	0.50000 1.00000 -0.00000 1.21600
Zn	Zn	0.50000 0.50000 0.50000 1.23600
Si	Si	0.07080 0.44863 0.82721 0.76600
Si	Si	0.34664 0.05137 0.67279 0.81200
Si	Si	0.92920 0.55137 0.17279 0.74900
Si	Si	0.65336 0.94863 0.32721 0.70800
H 	H 	0.05320 0.66350 0.81010 -0.00800
H 	H 	0.93120 0.82420 0.85200 0.07600
H 	H 	0.73360 0.69010 0.95230 0.08900
H 	H 	0.85550 0.52950 0.91030 0.00200
H 	H 	0.86850 0.47730 0.79510 -0.01100
H 	H 	0.75700 0.38680 0.81540 0.08300
H 	H 	0.97990 0.15000 0.90420 0.08700
H 	H 	0.09130 0.24050 0.88390 -0.00400
H 	H 	0.27070 0.23940 0.82980 -0.01000
H 	H 	0.41980 0.15620 0.87700 0.08700
H 	H 	0.30540 0.42750 0.95190 0.08500
H 	H 	0.14980 0.50550 0.90890 -0.00700
H 	H 	0.25790 0.49180 0.76280 -0.00800
H 	H 	0.33200 0.52570 0.66830 0.07700
H 	H 	0.08420 0.50160 0.62200 0.07400
H 	H 	0.01660 0.45940 0.71680 -0.00900
H 	H 	0.52680 0.83650 0.68990 -0.01800
H 	H 	0.60740 0.67580 0.64800 0.08100
H 	H 	0.37600 0.80990 0.54770 0.08200
H 	H 	0.29530 0.97050 0.58970 -0.01600
H 	H 	0.14090 0.02270 0.70490 -0.00600
H 	H 	0.95920 0.11320 0.68460 0.08300
H 	H 	0.03410 0.35000 0.59580 0.07900
H 	H 	0.21570 0.25950 0.61610 -0.00900
H 	H 	0.33990 0.26060 0.67020 -0.01900
H 	H 	0.45300 0.34380 0.62300 0.08700
H 	H 	0.68480 0.07250 0.54810 0.09500
H 	H 	0.56420 0.99450 0.59110 -0.04700
H 	H 	0.51250 0.00820 0.73720 -0.01100
H 	H 	0.52600 0.97430 0.83170 0.07800
H 	H 	0.20780 0.99840 0.87800 0.03900
H 	H 	0.19280 0.04060 0.78320 0.00200
H 	H 	0.94680 0.33650 0.18990 -0.00700
H 	H 	0.06880 0.17580 0.14800 0.08100
H 	H 	0.26640 0.30990 0.04770 0.07000
H 	H 	0.14450 0.47050 0.08970 -0.00500
H 	H 	0.13150 0.52270 0.20490 -0.00600
H 	H 	0.24300 0.61320 0.18460 0.07900
H 	H 	0.02010 0.85000 0.09580 0.06600
H 	H 	0.90870 0.75950 0.11610 -0.00800
H 	H 	0.72930 0.76060 0.17020 -0.00900
H 	H 	0.58020 0.84380 0.12300 0.06900
H 	H 	0.69460 0.57250 0.04810 0.06800
H 	H 	0.85020 0.49450 0.09110 -0.01000
H 	H 	0.74210 0.50820 0.23720 -0.00600
H 	H 	0.66800 0.47430 0.33170 0.07700
H 	H 	0.91580 0.49840 0.37800 0.07400
H 	H 	0.98340 0.54060 0.28320 -0.00800
H 	H 	0.47320 0.16350 0.31010 0.00800
H 	H 	0.39260 0.32420 0.35200 0.07200
H 	H 	0.62400 0.19010 0.45230 0.07500
H 	H 	0.70470 0.02950 0.41030 0.01400
H 	H 	0.85910 0.97730 0.29510 -0.01200
H 	H 	0.04080 0.88680 0.31540 0.07800
H 	H 	0.96590 0.65000 0.40420 0.07700
H 	H 	0.78430 0.74050 0.38390 -0.00500
H 	H 	0.66010 0.73940 0.32980 0.00000
H 	H 	0.54700 0.65620 0.37700 0.07100
H 	H 	0.31520 0.92750 0.45190 0.05800
H 	H 	0.43580 0.00550 0.40890 0.03400
H 	H 	0.48750 0.99180 0.26280 -0.00400
H 	H 	0.47400 0.02570 0.16830 0.07900
H 	H 	0.79220 0.00160 0.12200 0.12200
H 	H 	0.80720 0.95940 0.21680 -0.02400
C 	C 	0.96576 0.58144 0.85624 -0.26100
C 	C 	0.98827 0.66896 0.83890 0.08500
C 	C 	0.91592 0.76436 0.86380 -0.09000
C 	C 	0.82096 0.77218 0.90610 -0.01700
C 	C 	0.79844 0.68472 0.92340 -0.08700
C 	C 	0.87089 0.58932 0.89850 0.08400
C 	C 	0.74685 0.87753 0.93477 0.36600
C 	C 	0.99037 0.36749 0.83757 -0.26800
C 	C 	0.89100 0.41098 0.81722 0.09300
C 	C 	0.82490 0.35710 0.82930 -0.10100
C 	C 	0.85801 0.25991 0.86167 0.00700
C 	C 	0.95730 0.21640 0.88200 -0.10000
C 	C 	0.02350 0.27020 0.87000 0.09100
C 	C 	0.78430 0.20400 0.87760 0.29000
C 	C 	0.19304 0.38167 0.86505 -0.27100
C 	C 	0.27600 0.27720 0.85560 0.09700
C 	C 	0.36586 0.22798 0.88330 -0.09800
C 	C 	0.37868 0.28126 0.91998 -0.00100
C 	C 	0.29740 0.38780 0.92820 -0.09700
C 	C 	0.20570 0.43450 0.90170 0.09900
C 	C 	0.47651 0.22931 0.94867 0.30900
C 	C 	0.12861 0.47360 0.75018 -0.27600
C 	C 	0.22250 0.49292 0.73428 0.09100
C 	C 	0.26640 0.51386 0.67794 -0.09300
C 	C 	0.21632 0.51781 0.63555 -0.02600
C 	C 	0.12070 0.49850 0.65050 -0.09300
C 	C 	0.07970 0.47510 0.70710 0.08900
C 	C 	0.26766 0.53477 0.57431 0.35500
C 	C 	0.40344 0.91856 0.64376 -0.29600
C 	C 	0.49613 0.83104 0.66110 0.10100
C 	C 	0.54408 0.73564 0.63620 -0.10200
C 	C 	0.49924 0.72782 0.59390 -0.01300
C 	C 	0.40656 0.81528 0.57660 -0.10000
C 	C 	0.35871 0.91068 0.60150 0.09800
C 	C 	0.55915 0.62247 0.56523 0.36300
C 	C 	0.19543 0.13251 0.66243 -0.27600
C 	C 	0.11920 0.08902 0.68278 0.09700
C 	C 	0.01130 0.14290 0.67070 -0.09600
C 	C 	0.97959 0.24009 0.63833 0.00100
C 	C 	0.05570 0.28360 0.61800 -0.09800
C 	C 	0.16370 0.22980 0.63000 0.09400
C 	C 	0.86590 0.29600 0.62240 0.29200
C 	C 	0.43976 0.11833 0.63495 -0.30500
C 	C 	0.40880 0.22280 0.64440 0.11700
C 	C 	0.47714 0.27202 0.61670 -0.11600
C 	C 	0.57992 0.21874 0.58002 0.01100
C 	C 	0.61340 0.11220 0.57180 -0.13300
C 	C 	0.54190 0.06550 0.59830 0.16100
C 	C 	0.65449 0.27069 0.55133 0.30200
C 	C 	0.35239 0.02640 0.74982 -0.27900
C 	C 	0.44970 0.00708 0.76572 0.11700
C 	C 	0.45820 0.98614 0.82206 -0.11000
C 	C 	0.36968 0.98219 0.86445 -0.05800
C 	C 	0.26970 0.00150 0.84950 -0.02000
C 	C 	0.26190 0.02490 0.79290 0.06600
C 	C 	0.37674 0.96523 0.92569 0.36300
C 	C 	0.03424 0.41856 0.14376 -0.25700
C 	C 	0.01173 0.33104 0.16110 0.08600
C 	C 	0.08408 0.23564 0.13620 -0.08900
C 	C 	0.17904 0.22782 0.09390 -0.02300
C 	C 	0.20156 0.31528 0.07660 -0.08500
C 	C 	0.12911 0.41068 0.10150 0.07500
C 	C 	0.25315 0.12247 0.06523 0.36500
C 	C 	0.00963 0.63251 0.16243 -0.25500
C 	C 	0.10900 0.58902 0.18278 0.08100
C 	C 	0.17510 0.64290 0.17070 -0.09200
C 	C 	0.14199 0.74009 0.13833 -0.00900
C 	C 	0.04270 0.78360 0.11800 -0.08900
C 	C 	0.97650 0.72980 0.13000 0.07200
C 	C 	0.21570 0.79600 0.12240 0.29400
C 	C 	0.80696 0.61833 0.13495 -0.26500
C 	C 	0.72400 0.72280 0.14440 0.08100
C 	C 	0.63414 0.77202 0.11670 -0.08900
C 	C 	0.62132 0.71874 0.08002 -0.02300
C 	C 	0.70260 0.61220 0.07180 -0.09200
C 	C 	0.79430 0.56550 0.09830 0.08400
C 	C 	0.52349 0.77069 0.05133 0.31200
C 	C 	0.87139 0.52640 0.24982 -0.27000
C 	C 	0.77750 0.50708 0.26572 0.08800
C 	C 	0.73360 0.48614 0.32206 -0.09000
C 	C 	0.78368 0.48219 0.36445 -0.02600
C 	C 	0.87930 0.50150 0.34950 -0.09000
C 	C 	0.92030 0.52490 0.29290 0.08600
C 	C 	0.73234 0.46523 0.42569 0.35600
C 	C 	0.59656 0.08144 0.35624 -0.21900
C 	C 	0.50387 0.16896 0.33890 0.05900
C 	C 	0.45592 0.26436 0.36380 -0.07000
C 	C 	0.50076 0.27218 0.40610 -0.03300
C 	C 	0.59344 0.18472 0.42340 -0.06700
C 	C 	0.64129 0.08932 0.39850 0.05700
C 	C 	0.44085 0.37753 0.43477 0.37100
C 	C 	0.80457 0.86749 0.33757 -0.25400
C 	C 	0.88080 0.91098 0.31722 0.08200
C 	C 	0.98870 0.85710 0.32930 -0.09900
C 	C 	0.02041 0.75991 0.36167 0.00000
C 	C 	0.94430 0.71640 0.38200 -0.09600
C 	C 	0.83630 0.77020 0.37000 0.07800
C 	C 	0.13410 0.70400 0.37760 0.29200
C 	C 	0.56024 0.88167 0.36505 -0.23000
C 	C 	0.59120 0.77720 0.35560 0.06200
C 	C 	0.52286 0.72798 0.38330 -0.07000
C 	C 	0.42008 0.78126 0.41998 -0.03600
C 	C 	0.38660 0.88780 0.42820 -0.05300
C 	C 	0.45810 0.93450 0.40170 0.01700
C 	C 	0.34551 0.72931 0.44867 0.31900
C 	C 	0.64761 0.97360 0.25018 -0.27200
C 	C 	0.55030 0.99292 0.23428 0.06000
C 	C 	0.54180 0.01386 0.17794 -0.07400
C 	C 	0.63032 0.01781 0.13555 0.02100
C 	C 	0.73030 0.99850 0.15050 -0.18900
C 	C 	0.73810 0.97510 0.20710 0.12200
C 	C 	0.62326 0.03477 0.07431 0.34100
O 	O 	0.77669 0.94942 0.91820 -0.46400
O 	O 	0.66130 0.88260 0.97220 -0.43500
O 	O 	0.70720 0.22520 0.85340 -0.26800
O 	O 	0.78980 0.15100 0.92700 -0.40800
O 	O 	0.53926 0.12706 0.94422 -0.51800
O 	O 	0.49789 0.28136 0.97366 -0.28000
O 	O 	0.36475 0.53153 0.56517 -0.45300
O 	O 	0.21261 0.55021 0.53737 -0.45600
O 	O 	0.64431 0.55058 0.58180 -0.46000
O 	O 	0.51610 0.61740 0.52780 -0.44800
O 	O 	0.78580 0.27480 0.64660 -0.27000
O 	O 	0.86780 0.34900 0.57300 -0.41900
O 	O 	0.61054 0.37294 0.55578 -0.53200
O 	O 	0.75291 0.21864 0.52634 -0.28700
O 	O 	0.46145 0.96847 0.93483 -0.44800
O 	O 	0.30019 0.94979 0.96263 -0.44500
O 	O 	0.22331 0.05058 0.08180 -0.45000
O 	O 	0.33870 0.11740 0.02780 -0.45200
O 	O 	0.29280 0.77480 0.14660 -0.27600
O 	O 	0.21020 0.84900 0.07300 -0.43400
O 	O 	0.46074 0.87294 0.05578 -0.54900
O 	O 	0.50211 0.71864 0.02634 -0.30800
O 	O 	0.63525 0.46847 0.43483 -0.45200
O 	O 	0.78739 0.44979 0.46263 -0.45500
O 	O 	0.35569 0.44942 0.41820 -0.46100
O 	O 	0.48390 0.38260 0.47220 -0.44900
O 	O 	0.21420 0.72520 0.35340 -0.27300
O 	O 	0.13220 0.65100 0.42700 -0.42000
O 	O 	0.38946 0.62706 0.44422 -0.53600
O 	O 	0.24709 0.78136 0.47366 -0.29900
O 	O 	0.53855 0.03153 0.06517 -0.44600
O 	O 	0.69981 0.05021 0.03737 -0.46100
