data_crystal

_cell_length_a 12.37100
_cell_length_b 12.37100
_cell_length_c 24.06890
_cell_angle_alpha 90.00000
_cell_angle_beta  90.00000
_cell_angle_gamma 90.00000

_symmetry_space_group_name_	'P 1'
_symmetry_space_group_name_H-M	'P 1'

loop_
_symmetry_equiv_pos_as_xyz
  x,y,z

loop_
_atom_site_label
_atom_site_type_symbol
_atom_site_fract_x
_atom_site_fract_y
_atom_site_fract_z
_atom_site_charge
Cu	Cu	0.89260 0.50000 -0.00000 0.88300
Cu	Cu	0.10740 0.50000 -0.00000 0.87100
Cu	Cu	0.50000 0.89260 0.50000 0.90600
Cu	Cu	0.50000 0.10740 0.50000 0.89500
Si	Si	0.00000 0.00000 0.75000 0.75000
Si	Si	-0.00000 0.00000 0.25000 0.73900
H 	H 	0.83740 0.87000 0.80490 -0.00700
H 	H 	0.84060 0.73350 0.87270 0.07700
H 	H 	0.16260 0.13000 0.80490 -0.02600
H 	H 	0.15940 0.26650 0.87270 0.08400
H 	H 	0.13000 0.83740 0.30490 -0.03200
H 	H 	0.26650 0.84060 0.37270 0.07000
H 	H 	0.87000 0.16260 0.30490 -0.00100
H 	H 	0.73350 0.15940 0.37270 0.07500
H 	H 	0.16260 0.87000 0.19510 -0.00200
H 	H 	0.15940 0.73350 0.12730 0.06900
H 	H 	0.83740 0.13000 0.19510 -0.03300
H 	H 	0.84060 0.26650 0.12730 0.06400
H 	H 	0.87000 0.83740 0.69510 -0.00800
H 	H 	0.73350 0.84060 0.62730 0.07000
H 	H 	0.13000 0.16260 0.69510 -0.02600
H 	H 	0.26650 0.15940 0.62730 0.07700
H 	H 	0.16260 0.13000 0.19510 -0.02700
H 	H 	0.15940 0.26650 0.12730 0.07000
H 	H 	0.83740 0.87000 0.19510 -0.00800
H 	H 	0.84060 0.73350 0.12730 0.06300
H 	H 	0.87000 0.16260 0.69510 -0.00200
H 	H 	0.73350 0.15940 0.62730 0.07600
H 	H 	0.13000 0.83740 0.69510 -0.03200
H 	H 	0.26650 0.84060 0.62730 0.07100
H 	H 	0.83740 0.13000 0.80490 -0.03200
H 	H 	0.84060 0.26650 0.87270 0.07800
H 	H 	0.16260 0.87000 0.80490 -0.00100
H 	H 	0.15940 0.73350 0.87270 0.08300
H 	H 	0.13000 0.16260 0.30490 -0.02600
H 	H 	0.26650 0.15940 0.37270 0.07600
H 	H 	0.87000 0.83740 0.30490 -0.00700
H 	H 	0.73350 0.84060 0.37270 0.06900
C 	C 	0.90440 0.84320 0.81830 0.13800
C 	C 	0.90680 0.76290 0.85950 -0.05100
C 	C 	0.09560 0.15680 0.81830 0.12200
C 	C 	0.09320 0.23710 0.85950 -0.11500
C 	C 	0.15680 0.90440 0.31830 0.15300
C 	C 	0.23710 0.90680 0.35950 -0.06600
C 	C 	0.84320 0.09560 0.31830 0.09200
C 	C 	0.76290 0.09320 0.35950 -0.08600
C 	C 	0.09560 0.84320 0.18170 0.08800
C 	C 	0.09320 0.76290 0.14050 -0.08300
C 	C 	0.90440 0.15680 0.18170 0.14800
C 	C 	0.90680 0.23710 0.14050 -0.06400
C 	C 	0.84320 0.90440 0.68170 0.13200
C 	C 	0.76290 0.90680 0.64050 -0.04600
C 	C 	0.15680 0.09560 0.68170 0.11600
C 	C 	0.23710 0.09320 0.64050 -0.11100
C 	C 	0.09560 0.15680 0.18170 0.10800
C 	C 	0.09320 0.23710 0.14050 -0.10700
C 	C 	0.90440 0.84320 0.18170 0.12400
C 	C 	0.90680 0.76290 0.14050 -0.04200
C 	C 	0.84320 0.09560 0.68170 0.09600
C 	C 	0.76290 0.09320 0.64050 -0.08700
C 	C 	0.15680 0.90440 0.68170 0.15700
C 	C 	0.23710 0.90680 0.64050 -0.06700
C 	C 	0.90440 0.15680 0.81830 0.16300
C 	C 	0.90680 0.23710 0.85950 -0.07200
C 	C 	0.09560 0.84320 0.81830 0.10200
C 	C 	0.09320 0.76290 0.85950 -0.09200
C 	C 	0.15680 0.09560 0.31830 0.11200
C 	C 	0.23710 0.09320 0.35950 -0.10900
C 	C 	0.84320 0.90440 0.31830 0.12900
C 	C 	0.76290 0.90680 0.35950 -0.04500
C 	C 	-0.00000 0.88260 0.79770 -0.29800
C 	C 	0.00000 0.72680 0.88060 -0.03400
C 	C 	-0.00000 0.64190 0.92680 0.29000
C 	C 	-0.00000 0.11740 0.79770 -0.35100
C 	C 	0.00000 0.27320 0.88060 -0.02700
C 	C 	0.00000 0.35810 0.92680 0.28300
C 	C 	0.11740 0.00000 0.29770 -0.34600
C 	C 	0.27320 0.00000 0.38060 -0.04000
C 	C 	0.35810 -0.00000 0.42680 0.28800
C 	C 	0.88260 0.00000 0.29770 -0.29300
C 	C 	0.72680 0.00000 0.38060 -0.04800
C 	C 	0.64190 -0.00000 0.42680 0.29600
C 	C 	0.00000 0.88260 0.20230 -0.29100
C 	C 	0.00000 0.72680 0.11940 -0.05600
C 	C 	-0.00000 0.64190 0.07320 0.29800
C 	C 	-0.00000 0.11740 0.20230 -0.34400
C 	C 	0.00000 0.27320 0.11940 -0.04800
C 	C 	0.00000 0.35810 0.07320 0.29000
C 	C 	0.88260 -0.00000 0.70230 -0.29600
C 	C 	0.72680 0.00000 0.61940 -0.04600
C 	C 	0.64190 0.00000 0.57320 0.29600
C 	C 	0.11740 -0.00000 0.70230 -0.34900
C 	C 	0.27320 0.00000 0.61940 -0.03800
C 	C 	0.35810 0.00000 0.57320 0.28800
O 	O 	0.90920 0.61220 0.94317 -0.34000
O 	O 	0.09080 0.38780 0.94317 -0.37600
O 	O 	0.38780 0.90920 0.44317 -0.36900
O 	O 	0.61220 0.09080 0.44317 -0.40100
O 	O 	0.09080 0.61220 0.05683 -0.41500
O 	O 	0.90920 0.38780 0.05683 -0.38300
O 	O 	0.61220 0.90920 0.55683 -0.36700
O 	O 	0.38780 0.09080 0.55683 -0.40300
O 	O 	0.09080 0.38780 0.05683 -0.41700
O 	O 	0.90920 0.61220 0.05683 -0.38200
O 	O 	0.61220 0.09080 0.55683 -0.40000
O 	O 	0.38780 0.90920 0.55683 -0.36800
O 	O 	0.90920 0.38780 0.94317 -0.34200
O 	O 	0.09080 0.61220 0.94317 -0.37400
O 	O 	0.38780 0.09080 0.44317 -0.40300
O 	O 	0.61220 0.90920 0.44317 -0.36700
