data_crystal

_cell_length_a 15.62060
_cell_length_b 15.90540
_cell_length_c 22.84960
_cell_angle_alpha 90.00000
_cell_angle_beta  90.00000
_cell_angle_gamma 119.41000

_symmetry_space_group_name_	'P 1'
_symmetry_space_group_name_H-M	'P 1'

loop_
_symmetry_equiv_pos_as_xyz
  x,y,z

loop_
_atom_site_label
_atom_site_type_symbol
_atom_site_fract_x
_atom_site_fract_y
_atom_site_fract_z
_atom_site_charge
Cd	Cd	0.32081 0.17124 0.37003 1.24200
Cd	Cd	0.67919 0.82876 0.87003 1.24300
Cd	Cd	0.85043 0.17124 0.12996 1.24300
Cd	Cd	0.14957 0.82876 0.62997 1.24400
Cd	Cd	0.23505 0.00000 0.50000 1.19200
Cd	Cd	0.76495 0.00000 -0.00000 1.18600
Si	Si	0.83291 0.19528 0.55103 0.71700
Si	Si	0.16709 0.80472 0.05103 0.82700
Si	Si	0.36237 0.19528 0.94897 0.68500
Si	Si	0.63763 0.80472 0.44897 0.79000
H 	H 	0.99360 0.16340 0.58240 -0.00300
H 	H 	0.12000 0.15400 0.53530 0.04500
H 	H 	0.99610 0.14900 0.37890 0.07300
H 	H 	0.86910 0.15820 0.42620 -0.01000
H 	H 	0.80510 0.32120 0.63400 -0.00900
H 	H 	0.88290 0.48680 0.65380 0.08100
H 	H 	0.07930 0.53560 0.52440 0.07800
H 	H 	0.00160 0.37000 0.50460 -0.00100
H 	H 	0.68720 0.00280 0.58600 0.02000
H 	H 	0.65510 0.90360 0.66770 0.02700
H 	H 	0.86110 0.13200 0.75920 0.03900
H 	H 	0.89950 0.22880 0.67390 0.01400
H 	H 	0.62430 0.10920 0.58060 0.00000
H 	H 	0.48290 0.09080 0.53380 0.03000
H 	H 	0.63910 0.20120 0.38470 0.06600
H 	H 	0.78050 0.21960 0.43160 -0.00100
H 	H 	0.00640 0.83660 0.08240 -0.02000
H 	H 	0.88000 0.84600 0.03530 0.07400
H 	H 	0.00390 0.85100 0.87890 0.10200
H 	H 	0.13090 0.84180 0.92620 -0.02800
H 	H 	0.19490 0.67880 0.13400 -0.01900
H 	H 	0.11710 0.51320 0.15380 0.08800
H 	H 	0.92070 0.46440 0.02440 0.08300
H 	H 	0.99840 0.63000 0.00460 -0.02200
H 	H 	0.31280 0.99720 0.08600 -0.04800
H 	H 	0.34490 0.09640 0.16770 0.12900
H 	H 	0.13890 0.86800 0.25920 0.11100
H 	H 	0.10050 0.77120 0.17390 -0.03600
H 	H 	0.37570 0.89080 0.08060 -0.01600
H 	H 	0.51710 0.90920 0.03380 0.06600
H 	H 	0.36090 0.79880 0.88470 0.09100
H 	H 	0.21950 0.78040 0.93160 -0.02200
H 	H 	0.16980 0.16340 0.91760 0.01200
H 	H 	0.03400 0.15400 0.96470 0.03000
H 	H 	0.15290 0.14900 0.12110 0.05700
H 	H 	0.28910 0.15820 0.07380 0.00800
H 	H 	0.51610 0.32120 0.86600 -0.00700
H 	H 	0.60390 0.48680 0.84620 0.08100
H 	H 	0.45630 0.53560 0.97560 0.08200
H 	H 	0.36840 0.37000 0.99540 0.00300
H 	H 	0.31560 0.00280 0.91400 0.02500
H 	H 	0.24850 0.90360 0.83230 0.02700
H 	H 	0.27090 0.13200 0.74080 0.03700
H 	H 	0.32930 0.22880 0.82610 0.01600
H 	H 	0.48490 0.10920 0.91940 0.01700
H 	H 	0.60790 0.09080 0.96620 0.01400
H 	H 	0.56210 0.20120 0.11530 0.04900
H 	H 	0.43910 0.21960 0.06840 0.01600
H 	H 	0.83020 0.83660 0.41760 -0.00300
H 	H 	0.96600 0.84600 0.46470 0.05600
H 	H 	0.84710 0.85100 0.62110 0.08400
H 	H 	0.71090 0.84180 0.57380 -0.01000
H 	H 	0.48390 0.67880 0.36600 -0.01400
H 	H 	0.39610 0.51320 0.34620 0.08500
H 	H 	0.54370 0.46440 0.47560 0.08200
H 	H 	0.63160 0.63000 0.49540 -0.01100
H 	H 	0.68440 0.99720 0.41400 -0.04300
H 	H 	0.75150 0.09640 0.33230 0.12800
H 	H 	0.72910 0.86800 0.24080 0.10800
H 	H 	0.67070 0.77120 0.32610 -0.03400
H 	H 	0.51510 0.89080 0.41940 0.00100
H 	H 	0.39210 0.90920 0.46620 0.05000
H 	H 	0.43790 0.79880 0.61530 0.07500
H 	H 	0.56090 0.78040 0.56840 -0.00500
C 	C 	0.91819 0.16718 0.50907 -0.25600
C 	C 	0.99410 0.16120 0.54080 0.05800
C 	C 	0.06720 0.15200 0.51360 -0.07400
C 	C 	0.06171 0.13982 0.45256 -0.04100
C 	C 	0.99350 0.14900 0.42040 -0.08700
C 	C 	0.92010 0.15820 0.44880 0.07900
C 	C 	0.14499 0.13398 0.42320 0.33700
C 	C 	0.89600 0.33000 0.56745 -0.24700
C 	C 	0.86076 0.36472 0.61177 0.08400
C 	C 	0.90695 0.46310 0.62353 -0.10300
C 	C 	0.98837 0.52674 0.59096 0.01400
C 	C 	0.02361 0.49202 0.54664 -0.10000
C 	C 	0.97742 0.39364 0.53489 0.07800
C 	C 	0.04603 0.63466 0.60400 0.25200
C 	C 	0.80216 0.12432 0.62070 -0.20500
C 	C 	0.72532 0.02824 0.62050 -0.04600
C 	C 	0.70411 0.96982 0.66950 0.07300
C 	C 	0.75529 0.00918 0.72165 -0.14200
C 	C 	0.82709 0.10478 0.72370 -0.01300
C 	C 	0.85016 0.16272 0.67240 0.01700
C 	C 	0.73133 0.94686 0.77545 0.35900
C 	C 	0.71569 0.16614 0.51051 -0.23800
C 	C 	0.62731 0.12786 0.54086 0.04700
C 	C 	0.54330 0.11688 0.51303 -0.05600
C 	C 	0.54767 0.14420 0.45484 -0.06700
C 	C 	0.63605 0.18248 0.42448 -0.06200
C 	C 	0.72005 0.19344 0.45232 0.05300
C 	C 	0.45667 0.13534 0.42620 0.36200
C 	C 	0.08181 0.83282 0.00907 -0.33200
C 	C 	0.00590 0.83880 0.04080 0.12900
C 	C 	0.93280 0.84800 0.01360 -0.15200
C 	C 	0.93829 0.86018 0.95256 0.03400
C 	C 	0.00650 0.85100 0.92040 -0.14500
C 	C 	0.07990 0.84180 0.94880 0.16900
C 	C 	0.85501 0.86602 0.92320 0.31700
C 	C 	0.10400 0.67000 0.06745 -0.29200
C 	C 	0.13924 0.63528 0.11177 0.11400
C 	C 	0.09305 0.53690 0.12353 -0.12700
C 	C 	0.01163 0.47326 0.09096 0.03400
C 	C 	0.97639 0.50798 0.04664 -0.13200
C 	C 	0.02258 0.60636 0.03489 0.11600
C 	C 	0.95397 0.36534 0.10400 0.24400
C 	C 	0.19784 0.87568 0.12070 -0.35000
C 	C 	0.27468 0.97176 0.12050 0.22600
C 	C 	0.29589 0.03018 0.16950 -0.27700
C 	C 	0.24471 0.99082 0.22165 0.14300
C 	C 	0.17291 0.89522 0.22370 -0.19200
C 	C 	0.14984 0.83728 0.17240 0.17500
C 	C 	0.26867 0.05314 0.27545 0.21900
C 	C 	0.28431 0.83386 0.01051 -0.31700
C 	C 	0.37269 0.87214 0.04086 0.12100
C 	C 	0.45670 0.88312 0.01303 -0.13100
C 	C 	0.45233 0.85580 0.95484 0.00700
C 	C 	0.36395 0.81752 0.92448 -0.11900
C 	C 	0.27995 0.80656 0.95232 0.14000
C 	C 	0.54333 0.86466 0.92620 0.34200
C 	C 	0.24899 0.16718 0.99093 -0.20100
C 	C 	0.16710 0.16120 0.95920 0.01600
C 	C 	0.08480 0.15200 0.98640 -0.01300
C 	C 	0.07811 0.13982 0.04744 -0.09500
C 	C 	0.15550 0.14900 0.07960 -0.03600
C 	C 	0.23810 0.15820 0.05120 0.01300
C 	C 	0.98899 0.13398 0.07680 0.35300
C 	C 	0.43400 0.33000 0.93255 -0.23700
C 	C 	0.50396 0.36472 0.88823 0.08000
C 	C 	0.55615 0.46310 0.87647 -0.10100
C 	C 	0.53837 0.52674 0.90904 0.01700
C 	C 	0.46841 0.49202 0.95336 -0.10100
C 	C 	0.41622 0.39364 0.96511 0.07900
C 	C 	0.58863 0.63466 0.89600 0.25100
C 	C 	0.32216 0.12432 0.87930 -0.19400
C 	C 	0.30292 0.02824 0.87950 -0.05100
C 	C 	0.26571 0.96982 0.83050 0.07500
C 	C 	0.25389 0.00918 0.77835 -0.14400
C 	C 	0.27769 0.10478 0.77630 -0.00900
C 	C 	0.31256 0.16272 0.82760 0.01000
C 	C 	0.21553 0.94686 0.72455 0.35900
C 	C 	0.45045 0.16614 0.98949 -0.17900
C 	C 	0.50055 0.12786 0.95914 -0.00000
C 	C 	0.57358 0.11688 0.98697 0.01100
C 	C 	0.59653 0.14420 0.04516 -0.12200
C 	C 	0.54643 0.18248 0.07552 -0.01400
C 	C 	0.47339 0.19344 0.04768 -0.01200
C 	C 	0.67867 0.13534 0.07380 0.37900
C 	C 	0.75101 0.83282 0.49093 -0.27500
C 	C 	0.83290 0.83880 0.45920 0.08100
C 	C 	0.91520 0.84800 0.48640 -0.08300
C 	C 	0.92189 0.86018 0.54744 -0.02400
C 	C 	0.84450 0.85100 0.57960 -0.09300
C 	C 	0.76190 0.84180 0.55120 0.10100
C 	C 	0.01101 0.86602 0.57680 0.33600
C 	C 	0.56600 0.67000 0.43255 -0.27400
C 	C 	0.49604 0.63528 0.38823 0.10200
C 	C 	0.44385 0.53690 0.37647 -0.11600
C 	C 	0.46163 0.47326 0.40904 0.02500
C 	C 	0.53159 0.50798 0.45336 -0.11600
C 	C 	0.58378 0.60636 0.46511 0.10000
C 	C 	0.41137 0.36534 0.39600 0.24900
C 	C 	0.67784 0.87568 0.37930 -0.33800
C 	C 	0.69708 0.97176 0.37950 0.21800
C 	C 	0.73429 0.03018 0.33050 -0.27200
C 	C 	0.74611 0.99082 0.27835 0.13900
C 	C 	0.72231 0.89522 0.27630 -0.18700
C 	C 	0.68744 0.83728 0.32760 0.16600
C 	C 	0.78447 0.05314 0.22455 0.22100
C 	C 	0.54955 0.83386 0.48949 -0.25900
C 	C 	0.49945 0.87214 0.45914 0.07400
C 	C 	0.42642 0.88312 0.48697 -0.06600
C 	C 	0.40347 0.85580 0.54516 -0.04700
C 	C 	0.45357 0.81752 0.57552 -0.07200
C 	C 	0.52661 0.80656 0.54768 0.07600
C 	C 	0.32133 0.86466 0.57380 0.35900
O 	O 	0.18772 0.09644 0.45010 -0.50400
O 	O 	0.17398 0.17154 0.37364 -0.37700
O 	O 	0.08750 0.69360 0.56180 -0.33300
O 	O 	0.04473 0.66106 0.65600 -0.32000
O 	O 	0.75570 0.98660 0.82456 -0.37000
O 	O 	0.68700 0.85740 0.76980 -0.36600
O 	O 	0.46729 0.17178 0.37523 -0.38500
O 	O 	0.37660 0.09980 0.45011 -0.52700
O 	O 	0.81228 0.90356 0.95010 -0.47300
O 	O 	0.82602 0.82846 0.87364 -0.36400
O 	O 	0.91250 0.30640 0.06180 -0.33600
O 	O 	0.95527 0.33894 0.15600 -0.32100
O 	O 	0.24430 0.01340 0.32456 -0.36700
O 	O 	0.31300 0.14260 0.26980 -0.33900
O 	O 	0.53271 0.82822 0.87523 -0.37300
O 	O 	0.62340 0.90020 0.95011 -0.49600
O 	O 	0.90872 0.09644 0.04990 -0.51400
O 	O 	0.99756 0.17154 0.12636 -0.38200
O 	O 	0.60610 0.69360 0.93820 -0.32800
O 	O 	0.61633 0.66106 0.84400 -0.32000
O 	O 	0.23090 0.98660 0.67544 -0.37200
O 	O 	0.17040 0.85740 0.73020 -0.36600
O 	O 	0.70449 0.17178 0.12477 -0.39000
O 	O 	0.72320 0.09980 0.04989 -0.53800
O 	O 	0.09128 0.90356 0.54990 -0.48500
O 	O 	0.00244 0.82846 0.62636 -0.37000
O 	O 	0.39390 0.30640 0.43820 -0.33300
O 	O 	0.38367 0.33894 0.34400 -0.32200
O 	O 	0.76910 0.01340 0.17544 -0.36900
O 	O 	0.82960 0.14260 0.23020 -0.33900
O 	O 	0.29551 0.82822 0.62477 -0.37800
O 	O 	0.27680 0.90020 0.54989 -0.50900
