data_crystal

_cell_length_a 34.55830
_cell_length_b 19.05730
_cell_length_c 23.68800
_cell_angle_alpha 90.00000
_cell_angle_beta  128.18800
_cell_angle_gamma 90.00000

_symmetry_space_group_name_	'P 1'
_symmetry_space_group_name_H-M	'P 1'

loop_
_symmetry_equiv_pos_as_xyz
  x,y,z

loop_
_atom_site_label
_atom_site_type_symbol
_atom_site_fract_x
_atom_site_fract_y
_atom_site_fract_z
_atom_site_charge
Gd	Gd	0.20624 0.09203 0.71776 1.63500
O 	O 	0.13101 0.11400 0.70610 -0.42500
O 	O 	0.29728 0.09380 0.80500 -0.39300
O 	O 	0.23707 0.03850 0.66150 -0.52900
O 	O 	0.14082 0.06640 0.59445 -0.54000
O 	O 	0.18453 0.97430 0.70500 -0.52600
O 	O 	0.20833 0.19490 0.66390 -0.44500
O 	O 	0.22420 0.07548 0.83620 -0.35100
O 	O 	0.22782 0.18410 0.80690 -0.36500
C 	C 	0.09230 0.07930 0.67710 0.44500
C 	C 	0.31620 0.03370 0.82420 0.40500
Gd	Gd	0.17568 0.04273 0.53520 1.48200
Gd	Gd	0.24218 0.91392 0.69509 1.45800
Gd	Gd	0.10515 0.95571 0.58737 1.45600
C 	C 	0.05320 0.10550 0.68150 -0.16700
O 	O 	0.08105 0.02460 0.64040 -0.47000
C 	C 	0.37060 0.02550 0.87770 -0.16200
O 	O 	0.29071 0.97760 0.80020 -0.46500
O 	O 	0.23842 0.97610 0.54870 -0.46800
O 	O 	0.16816 0.93380 0.57807 -0.59000
O 	O 	0.09424 0.07960 0.44220 -0.44900
O 	O 	0.18936 0.16460 0.55830 -0.45200
O 	O 	0.20243 0.82980 0.71520 -0.45800
O 	O 	0.29328 0.92630 0.65680 -0.43300
O 	O 	0.12217 0.85310 0.65340 -0.47200
O 	O 	0.05630 0.00400 0.46550 -0.45700
C 	C 	0.04570 0.17700 0.68170 0.07800
C 	C 	0.01940 0.05890 0.67650 0.09200
C 	C 	0.39010 0.96030 0.90700 0.07100
C 	C 	0.40140 0.07900 0.89590 0.07000
C 	C 	0.27660 0.94220 0.59290 0.43200
C 	C 	0.05680 0.04920 0.42630 0.42100
C 	C 	0.16110 0.82160 0.70140 0.45700
H 	H 	0.06770 0.20910 0.68600 0.00500
C 	C 	0.00510 0.20020 0.67520 -0.15300
C 	C 	0.02820 0.98150 0.68880 0.10200
N 	N 	0.97883 0.08170 0.66720 -0.13700
H 	H 	0.36910 0.92230 0.89380 0.00500
C 	C 	0.44050 0.95080 0.95570 -0.13000
C 	C 	0.45270 0.06940 0.94420 -0.13000
H 	H 	0.38870 0.12320 0.87650 0.01700
C 	C 	0.30640 0.92180 0.56940 -0.16800
C 	C 	0.00850 0.06810 0.35590 -0.16500
C 	C 	0.15880 0.76940 0.74640 -0.17800
H 	H 	0.00010 0.24780 0.67750 0.07700
C 	C 	0.97190 0.15000 0.66520 0.07800
N 	N 	0.07262 0.96180 0.74850 -0.13700
H 	H 	0.45290 0.90690 0.97650 0.06900
C 	C 	0.47280 0.00530 0.97430 0.05000
H 	H 	0.47340 0.10730 0.95570 0.06800
C 	C 	0.35440 0.94510 0.60840 0.08700
C 	C 	0.28700 0.88280 0.50680 0.10200
C 	C 	0.00010 0.13820 0.33560 0.08200
C 	C 	0.11800 0.72610 0.71570 0.10700
C 	C 	0.19730 0.76060 0.81900 0.10400
H 	H 	0.94320 0.16570 0.65670 0.00400
C 	C 	0.08030 0.89470 0.76580 0.09600
H 	H 	0.36900 0.96860 0.65160 0.00200
C 	C 	0.38080 0.93360 0.58320 -0.15900
C 	C 	0.23810 0.84630 0.46410 0.07600
N 	N 	0.31245 0.87060 0.48220 -0.13300
C 	C 	0.95460 0.15720 0.27310 -0.15300
H 	H 	0.02450 0.17170 0.36340 0.00700
H 	H 	0.09090 0.73180 0.66780 -0.00700
C 	C 	0.11780 0.67530 0.75590 -0.17500
C 	C 	0.24040 0.80870 0.86160 0.09200
N 	N 	0.19730 0.71130 0.85900 -0.14200
H 	H 	0.11120 0.88150 0.80670 0.00400
H 	H 	0.41300 0.94950 0.60840 0.08100
C 	C 	0.35770 0.89760 0.51920 0.08400
C 	C 	0.21250 0.83070 0.39140 -0.10800
N 	N 	0.22174 0.82430 0.50020 -0.13700
H 	H 	0.94770 0.20360 0.25760 0.08500
H 	H 	0.09080 0.64580 0.73600 0.08700
C 	C 	0.15840 0.66860 0.82650 0.09900
C 	C 	0.28880 0.78220 0.90320 -0.16800
N 	N 	0.23080 0.87700 0.86240 -0.13500
H 	H 	0.37470 0.89190 0.50070 0.00900
C 	C 	0.17060 0.78860 0.35660 0.05100
C 	C 	0.22437 0.85880 0.34460 0.32000
C 	C 	0.18020 0.78680 0.46470 0.07400
H 	H 	0.15880 0.63230 0.85310 -0.00000
C 	C 	0.32710 0.82700 0.95090 0.08800
C 	C 	0.29750 0.70760 0.89360 0.44700
C 	C 	0.26890 0.91830 0.90890 0.08600
C 	C 	0.15370 0.76680 0.39340 -0.13000
H 	H 	0.15420 0.77520 0.30910 0.02000
H 	H 	0.16830 0.77330 0.48920 0.00400
C 	C 	0.31700 0.89620 0.95440 -0.15400
H 	H 	0.35940 0.81070 0.98030 -0.00100
H 	H 	0.26260 0.96540 0.91060 0.02600
H 	H 	0.12550 0.73960 0.37120 0.07600
H 	H 	0.34210 0.92710 0.98680 0.08700
Gd	Gd	0.70624 0.59203 0.71776 1.63500
O 	O 	0.63101 0.61400 0.70610 -0.42600
O 	O 	0.79728 0.59380 0.80500 -0.39500
O 	O 	0.73707 0.53850 0.66150 -0.53000
O 	O 	0.64082 0.56640 0.59445 -0.54100
O 	O 	0.68453 0.47430 0.70500 -0.52800
O 	O 	0.70833 0.69490 0.66390 -0.44600
O 	O 	0.72420 0.57548 0.83620 -0.35200
O 	O 	0.72782 0.68410 0.80690 -0.36600
C 	C 	0.59230 0.57930 0.67710 0.44400
C 	C 	0.81620 0.53370 0.82420 0.40500
Gd	Gd	0.67568 0.54273 0.53520 1.48100
Gd	Gd	0.74218 0.41392 0.69509 1.45700
Gd	Gd	0.60515 0.45571 0.58737 1.45400
C 	C 	0.55320 0.60550 0.68150 -0.16800
O 	O 	0.58105 0.52460 0.64040 -0.47100
C 	C 	0.87060 0.52550 0.87770 -0.16200
O 	O 	0.79071 0.47760 0.80020 -0.46700
O 	O 	0.73842 0.47610 0.54870 -0.46900
O 	O 	0.66816 0.43380 0.57807 -0.59100
O 	O 	0.59424 0.57960 0.44220 -0.45000
O 	O 	0.68936 0.66460 0.55830 -0.45300
O 	O 	0.70243 0.32980 0.71520 -0.45900
O 	O 	0.79328 0.42630 0.65680 -0.43400
O 	O 	0.62217 0.35310 0.65340 -0.47300
O 	O 	0.55630 0.50400 0.46550 -0.45800
C 	C 	0.54570 0.67700 0.68170 0.07700
C 	C 	0.51940 0.55890 0.67650 0.09200
C 	C 	0.89010 0.46030 0.90700 0.06800
C 	C 	0.90140 0.57900 0.89590 0.06900
C 	C 	0.77660 0.44220 0.59290 0.43100
C 	C 	0.55680 0.54920 0.42630 0.42000
C 	C 	0.66110 0.32160 0.70140 0.45600
H 	H 	0.56770 0.70910 0.68600 0.00400
C 	C 	0.50510 0.70020 0.67520 -0.15500
C 	C 	0.52820 0.48150 0.68880 0.10000
N 	N 	0.47883 0.58170 0.66720 -0.13800
H 	H 	0.86910 0.42230 0.89380 0.00400
C 	C 	0.94050 0.45080 0.95570 -0.13300
C 	C 	0.95270 0.56940 0.94420 -0.13100
H 	H 	0.88870 0.62320 0.87650 0.01600
C 	C 	0.80640 0.42180 0.56940 -0.16900
C 	C 	0.50850 0.56810 0.35590 -0.16600
C 	C 	0.65880 0.26940 0.74640 -0.17900
H 	H 	0.50010 0.74780 0.67750 0.07700
C 	C 	0.47190 0.65000 0.66520 0.07800
N 	N 	0.57262 0.46180 0.74850 -0.13700
H 	H 	0.95290 0.40690 0.97650 0.06900
C 	C 	0.97280 0.50530 0.97430 0.05100
H 	H 	0.97340 0.60730 0.95570 0.06800
C 	C 	0.85440 0.44510 0.60840 0.08700
C 	C 	0.78700 0.38280 0.50680 0.10200
C 	C 	0.50010 0.63820 0.33560 0.08300
C 	C 	0.61800 0.22610 0.71570 0.10700
C 	C 	0.69730 0.26060 0.81900 0.10300
H 	H 	0.44320 0.66570 0.65670 0.00400
C 	C 	0.58030 0.39470 0.76580 0.09600
H 	H 	0.86900 0.46860 0.65160 0.00100
C 	C 	0.88080 0.43360 0.58320 -0.15900
C 	C 	0.73810 0.34630 0.46410 0.07600
N 	N 	0.81245 0.37060 0.48220 -0.13300
C 	C 	0.45460 0.65720 0.27310 -0.15400
H 	H 	0.52450 0.67170 0.36340 0.00700
H 	H 	0.59090 0.23180 0.66780 -0.00700
C 	C 	0.61780 0.17530 0.75590 -0.17500
C 	C 	0.74040 0.30870 0.86160 0.09200
N 	N 	0.69730 0.21130 0.85900 -0.14200
H 	H 	0.61120 0.38150 0.80670 0.00400
H 	H 	0.91300 0.44950 0.60840 0.08100
C 	C 	0.85770 0.39760 0.51920 0.08400
C 	C 	0.71250 0.33070 0.39140 -0.10800
N 	N 	0.72174 0.32430 0.50020 -0.13700
H 	H 	0.44770 0.70360 0.25760 0.08500
H 	H 	0.59080 0.14580 0.73600 0.08700
C 	C 	0.65840 0.16860 0.82650 0.09900
C 	C 	0.78880 0.28220 0.90320 -0.16800
N 	N 	0.73080 0.37700 0.86240 -0.13500
H 	H 	0.87470 0.39190 0.50070 0.00900
C 	C 	0.67060 0.28860 0.35660 0.05100
C 	C 	0.72437 0.35880 0.34460 0.32000
C 	C 	0.68020 0.28680 0.46470 0.07400
H 	H 	0.65880 0.13230 0.85310 -0.00100
C 	C 	0.82710 0.32700 0.95090 0.08800
C 	C 	0.79750 0.20760 0.89360 0.44600
C 	C 	0.76890 0.41830 0.90890 0.08500
C 	C 	0.65370 0.26680 0.39340 -0.13000
H 	H 	0.65420 0.27520 0.30910 0.02000
H 	H 	0.66830 0.27330 0.48920 0.00400
C 	C 	0.81700 0.39620 0.95440 -0.15400
H 	H 	0.85940 0.31070 0.98030 -0.00200
H 	H 	0.76260 0.46540 0.91060 0.02500
H 	H 	0.62550 0.23960 0.37120 0.07600
H 	H 	0.84210 0.42710 0.98680 0.08700
Gd	Gd	0.79376 0.09203 0.78224 1.63400
O 	O 	0.86899 0.11400 0.79390 -0.42600
O 	O 	0.70272 0.09380 0.69500 -0.39400
O 	O 	0.76293 0.03850 0.83850 -0.53000
O 	O 	0.85918 0.06640 0.90555 -0.54100
O 	O 	0.81547 0.97430 0.79500 -0.52700
O 	O 	0.79167 0.19490 0.83610 -0.44600
O 	O 	0.77580 0.07548 0.66380 -0.35200
O 	O 	0.77218 0.18410 0.69310 -0.36600
C 	C 	0.90770 0.07930 0.82290 0.44400
C 	C 	0.68380 0.03370 0.67580 0.40400
Gd	Gd	0.82432 0.04273 0.96480 1.47900
Gd	Gd	0.75782 0.91392 0.80491 1.45800
Gd	Gd	0.89485 0.95571 0.91263 1.45500
C 	C 	0.94680 0.10550 0.81850 -0.16800
O 	O 	0.91895 0.02460 0.85960 -0.47200
C 	C 	0.62940 0.02550 0.62230 -0.16200
O 	O 	0.70929 0.97760 0.69980 -0.46700
O 	O 	0.76158 0.97610 0.95130 -0.46800
O 	O 	0.83184 0.93380 0.92193 -0.59000
O 	O 	0.90576 0.07960 0.05780 -0.44900
O 	O 	0.81064 0.16460 0.94170 -0.45300
O 	O 	0.79757 0.82980 0.78480 -0.45900
O 	O 	0.70672 0.92630 0.84320 -0.43400
O 	O 	0.87783 0.85310 0.84660 -0.47300
O 	O 	0.94370 0.00400 0.03450 -0.45700
C 	C 	0.95430 0.17700 0.81830 0.07700
C 	C 	0.98060 0.05890 0.82350 0.09100
C 	C 	0.60990 0.96030 0.59300 0.06900
C 	C 	0.59860 0.07900 0.60410 0.06900
C 	C 	0.72340 0.94220 0.90710 0.43100
C 	C 	0.94320 0.04920 0.07370 0.42000
C 	C 	0.83890 0.82160 0.79860 0.45600
H 	H 	0.93230 0.20910 0.81400 0.00400
C 	C 	0.99490 0.20020 0.82480 -0.15500
C 	C 	0.97180 0.98150 0.81120 0.10000
N 	N 	0.02117 0.08170 0.83280 -0.13800
H 	H 	0.63090 0.92230 0.60620 0.00400
C 	C 	0.55950 0.95080 0.54430 -0.13300
C 	C 	0.54730 0.06940 0.55580 -0.13100
H 	H 	0.61130 0.12320 0.62350 0.01600
C 	C 	0.69360 0.92180 0.93060 -0.17000
C 	C 	0.99150 0.06810 0.14410 -0.16500
C 	C 	0.84120 0.76940 0.75360 -0.17900
H 	H 	0.99990 0.24780 0.82250 0.07700
C 	C 	0.02810 0.15000 0.83480 0.07900
N 	N 	0.92738 0.96180 0.75150 -0.13700
H 	H 	0.54710 0.90690 0.52350 0.06900
C 	C 	0.52720 0.00530 0.52570 0.05100
H 	H 	0.52660 0.10730 0.54430 0.06800
C 	C 	0.64560 0.94510 0.89160 0.08800
C 	C 	0.71300 0.88280 0.99320 0.10400
C 	C 	0.99990 0.13820 0.16440 0.08300
C 	C 	0.88200 0.72610 0.78430 0.10700
C 	C 	0.80270 0.76060 0.68100 0.10400
H 	H 	0.05680 0.16570 0.84330 0.00400
C 	C 	0.91970 0.89470 0.73420 0.09600
H 	H 	0.63100 0.96860 0.84840 0.00100
C 	C 	0.61920 0.93360 0.91680 -0.16000
C 	C 	0.76190 0.84630 0.03590 0.07400
N 	N 	0.68755 0.87060 0.01780 -0.13400
C 	C 	0.04540 0.15720 0.22690 -0.15400
H 	H 	0.97550 0.17170 0.13660 0.00700
H 	H 	0.90910 0.73180 0.83220 -0.00700
C 	C 	0.88220 0.67530 0.74410 -0.17500
C 	C 	0.75960 0.80870 0.63840 0.09200
N 	N 	0.80270 0.71130 0.64100 -0.14200
H 	H 	0.88880 0.88150 0.69330 0.00400
H 	H 	0.58700 0.94950 0.89160 0.08100
C 	C 	0.64230 0.89760 0.98080 0.08600
C 	C 	0.78750 0.83070 0.10860 -0.10700
N 	N 	0.77826 0.82430 0.99980 -0.13600
H 	H 	0.05230 0.20360 0.24240 0.08500
H 	H 	0.90920 0.64580 0.76400 0.08700
C 	C 	0.84160 0.66860 0.67350 0.09900
C 	C 	0.71120 0.78220 0.59680 -0.16800
N 	N 	0.76920 0.87700 0.63760 -0.13500
H 	H 	0.62530 0.89190 0.99930 0.00900
C 	C 	0.82940 0.78860 0.14340 0.05000
C 	C 	0.77563 0.85880 0.15540 0.32000
C 	C 	0.81980 0.78680 0.03530 0.07300
H 	H 	0.84120 0.63230 0.64690 -0.00000
C 	C 	0.67290 0.82700 0.54910 0.08800
C 	C 	0.70250 0.70760 0.60640 0.44700
C 	C 	0.73110 0.91830 0.59110 0.08500
C 	C 	0.84630 0.76680 0.10660 -0.12900
H 	H 	0.84580 0.77520 0.19090 0.02000
H 	H 	0.83170 0.77330 0.01080 0.00500
C 	C 	0.68300 0.89620 0.54560 -0.15400
H 	H 	0.64060 0.81070 0.51970 -0.00200
H 	H 	0.73740 0.96540 0.58940 0.02600
H 	H 	0.87450 0.73960 0.12880 0.07600
H 	H 	0.65790 0.92710 0.51320 0.08700
Gd	Gd	0.29376 0.59203 0.78224 1.63500
O 	O 	0.36899 0.61400 0.79390 -0.42600
O 	O 	0.20272 0.59380 0.69500 -0.39500
O 	O 	0.26293 0.53850 0.83850 -0.53000
O 	O 	0.35918 0.56640 0.90555 -0.54100
O 	O 	0.31547 0.47430 0.79500 -0.52800
O 	O 	0.29167 0.69490 0.83610 -0.44600
O 	O 	0.27580 0.57548 0.66380 -0.35200
O 	O 	0.27218 0.68410 0.69310 -0.36600
C 	C 	0.40770 0.57930 0.82290 0.44400
C 	C 	0.18380 0.53370 0.67580 0.40500
Gd	Gd	0.32432 0.54273 0.96480 1.48200
Gd	Gd	0.25782 0.41392 0.80491 1.45700
Gd	Gd	0.39485 0.45571 0.91263 1.45400
C 	C 	0.44680 0.60550 0.81850 -0.16800
O 	O 	0.41895 0.52460 0.85960 -0.47100
C 	C 	0.12940 0.52550 0.62230 -0.16200
O 	O 	0.20929 0.47760 0.69980 -0.46700
O 	O 	0.26158 0.47610 0.95130 -0.46900
O 	O 	0.33184 0.43380 0.92193 -0.59100
O 	O 	0.40576 0.57960 0.05780 -0.45000
O 	O 	0.31064 0.66460 0.94170 -0.45300
O 	O 	0.29757 0.32980 0.78480 -0.45900
O 	O 	0.20672 0.42630 0.84320 -0.43400
O 	O 	0.37783 0.35310 0.84660 -0.47300
O 	O 	0.44370 0.50400 0.03450 -0.45700
C 	C 	0.45430 0.67700 0.81830 0.07700
C 	C 	0.48060 0.55890 0.82350 0.09200
C 	C 	0.10990 0.46030 0.59300 0.06800
C 	C 	0.09860 0.57900 0.60410 0.06900
C 	C 	0.22340 0.44220 0.90710 0.43100
C 	C 	0.44320 0.54920 0.07370 0.42000
C 	C 	0.33890 0.32160 0.79860 0.45600
H 	H 	0.43230 0.70910 0.81400 0.00400
C 	C 	0.49490 0.70020 0.82480 -0.15400
C 	C 	0.47180 0.48150 0.81120 0.10000
N 	N 	0.52117 0.58170 0.83280 -0.13800
H 	H 	0.13090 0.42230 0.60620 0.00400
C 	C 	0.05950 0.45080 0.54430 -0.13300
C 	C 	0.04730 0.56940 0.55580 -0.13100
H 	H 	0.11130 0.62320 0.62350 0.01600
C 	C 	0.19360 0.42180 0.93060 -0.16900
C 	C 	0.49150 0.56810 0.14410 -0.16600
C 	C 	0.34120 0.26940 0.75360 -0.17900
H 	H 	0.49990 0.74780 0.82250 0.07700
C 	C 	0.52810 0.65000 0.83480 0.07800
N 	N 	0.42738 0.46180 0.75150 -0.13700
H 	H 	0.04710 0.40690 0.52350 0.06900
C 	C 	0.02720 0.50530 0.52570 0.05100
H 	H 	0.02660 0.60730 0.54430 0.06800
C 	C 	0.14560 0.44510 0.89160 0.08700
C 	C 	0.21300 0.38280 0.99320 0.10200
C 	C 	0.49990 0.63820 0.16440 0.08300
C 	C 	0.38200 0.22610 0.78430 0.10700
C 	C 	0.30270 0.26060 0.68100 0.10300
H 	H 	0.55680 0.66570 0.84330 0.00400
C 	C 	0.41970 0.39470 0.73420 0.09600
H 	H 	0.13100 0.46860 0.84840 0.00100
C 	C 	0.11920 0.43360 0.91680 -0.15900
C 	C 	0.26190 0.34630 0.03590 0.07700
N 	N 	0.18755 0.37060 0.01780 -0.13300
C 	C 	0.54540 0.65720 0.22690 -0.15400
H 	H 	0.47550 0.67170 0.13660 0.00700
H 	H 	0.40910 0.23180 0.83220 -0.00700
C 	C 	0.38220 0.17530 0.74410 -0.17500
C 	C 	0.25960 0.30870 0.63840 0.09200
N 	N 	0.30270 0.21130 0.64100 -0.14200
H 	H 	0.38880 0.38150 0.69330 0.00400
H 	H 	0.08700 0.44950 0.89160 0.08100
C 	C 	0.14230 0.39760 0.98080 0.08400
C 	C 	0.28750 0.33070 0.10860 -0.10800
N 	N 	0.27826 0.32430 0.99980 -0.13800
H 	H 	0.55230 0.70360 0.24240 0.08500
H 	H 	0.40920 0.14580 0.76400 0.08700
C 	C 	0.34160 0.16860 0.67350 0.09900
C 	C 	0.21120 0.28220 0.59680 -0.16800
N 	N 	0.26920 0.37700 0.63760 -0.13500
H 	H 	0.12530 0.39190 0.99930 0.00900
C 	C 	0.32940 0.28860 0.14340 0.05100
C 	C 	0.27563 0.35880 0.15540 0.32100
C 	C 	0.31980 0.28680 0.03530 0.07500
H 	H 	0.34120 0.13230 0.64690 -0.00000
C 	C 	0.17290 0.32700 0.54910 0.08800
C 	C 	0.20250 0.20760 0.60640 0.44700
C 	C 	0.23110 0.41830 0.59110 0.08500
C 	C 	0.34630 0.26680 0.10660 -0.13000
H 	H 	0.34580 0.27520 0.19090 0.02000
H 	H 	0.33170 0.27330 0.01080 0.00400
C 	C 	0.18300 0.39620 0.54560 -0.15400
H 	H 	0.14060 0.31070 0.51970 -0.00200
H 	H 	0.23740 0.46540 0.58940 0.02500
H 	H 	0.37450 0.23960 0.12880 0.07600
H 	H 	0.15790 0.42710 0.51320 0.08700
Gd	Gd	0.79376 0.90797 0.28224 1.63400
O 	O 	0.86899 0.88600 0.29390 -0.42600
O 	O 	0.70272 0.90620 0.19500 -0.39400
O 	O 	0.76293 0.96150 0.33850 -0.53000
O 	O 	0.85918 0.93360 0.40555 -0.54100
O 	O 	0.81547 0.02570 0.29500 -0.52700
O 	O 	0.79167 0.80510 0.33610 -0.44600
O 	O 	0.77580 0.92452 0.16380 -0.35200
O 	O 	0.77218 0.81590 0.19310 -0.36600
C 	C 	0.90770 0.92070 0.32290 0.44400
C 	C 	0.68380 0.96630 0.17580 0.40400
Gd	Gd	0.82432 0.95727 0.46480 1.48100
Gd	Gd	0.75782 0.08608 0.30491 1.45700
Gd	Gd	0.89485 0.04429 0.41263 1.45500
C 	C 	0.94680 0.89450 0.31850 -0.16800
O 	O 	0.91895 0.97540 0.35960 -0.47100
C 	C 	0.62940 0.97450 0.12230 -0.16300
O 	O 	0.70929 0.02240 0.19980 -0.46600
O 	O 	0.76158 0.02390 0.45130 -0.46900
O 	O 	0.83184 0.06620 0.42193 -0.59100
O 	O 	0.90576 0.92040 0.55780 -0.45000
O 	O 	0.81064 0.83540 0.44170 -0.45300
O 	O 	0.79757 0.17020 0.28480 -0.45900
O 	O 	0.70672 0.07370 0.34320 -0.43400
O 	O 	0.87783 0.14690 0.34660 -0.47300
O 	O 	0.94370 0.99600 0.53450 -0.45800
C 	C 	0.95430 0.82300 0.31830 0.07700
C 	C 	0.98060 0.94110 0.32350 0.09100
C 	C 	0.60990 0.03970 0.09300 0.07000
C 	C 	0.59860 0.92100 0.10410 0.06900
C 	C 	0.72340 0.05780 0.40710 0.43100
C 	C 	0.94320 0.95080 0.57370 0.42000
C 	C 	0.83890 0.17840 0.29860 0.45600
H 	H 	0.93230 0.79090 0.31400 0.00400
C 	C 	0.99490 0.79980 0.32480 -0.15400
C 	C 	0.97180 0.01850 0.31120 0.10100
N 	N 	0.02117 0.91830 0.33280 -0.13800
H 	H 	0.63090 0.07770 0.10620 0.00400
C 	C 	0.55950 0.04920 0.04430 -0.13100
C 	C 	0.54730 0.93060 0.05580 -0.13100
H 	H 	0.61130 0.87680 0.12350 0.01600
C 	C 	0.69360 0.07820 0.43060 -0.16900
C 	C 	0.99150 0.93190 0.64410 -0.16600
C 	C 	0.84120 0.23060 0.25360 -0.17900
H 	H 	0.99990 0.75220 0.32250 0.07700
C 	C 	0.02810 0.85000 0.33480 0.07800
N 	N 	0.92738 0.03820 0.25150 -0.13700
H 	H 	0.54710 0.09310 0.02350 0.06900
C 	C 	0.52720 0.99470 0.02570 0.05000
H 	H 	0.52660 0.89270 0.04430 0.06800
C 	C 	0.64560 0.05490 0.39160 0.08700
C 	C 	0.71300 0.11720 0.49320 0.10200
C 	C 	0.99990 0.86180 0.66440 0.08200
C 	C 	0.88200 0.27390 0.28430 0.10700
C 	C 	0.80270 0.23940 0.18100 0.10400
H 	H 	0.05680 0.83430 0.34330 0.00400
C 	C 	0.91970 0.10530 0.23420 0.09600
H 	H 	0.63100 0.03140 0.34840 0.00200
C 	C 	0.61920 0.06640 0.41680 -0.15900
C 	C 	0.76190 0.15370 0.53590 0.07600
N 	N 	0.68755 0.12940 0.51780 -0.13300
C 	C 	0.04540 0.84280 0.72690 -0.15300
H 	H 	0.97550 0.82830 0.63660 0.00700
H 	H 	0.90910 0.26820 0.33220 -0.00700
C 	C 	0.88220 0.32470 0.24410 -0.17500
C 	C 	0.75960 0.19130 0.13840 0.09200
N 	N 	0.80270 0.28870 0.14100 -0.14200
H 	H 	0.88880 0.11850 0.19330 0.00400
H 	H 	0.58700 0.05050 0.39160 0.08100
C 	C 	0.64230 0.10240 0.48080 0.08400
C 	C 	0.78750 0.16930 0.60860 -0.10800
N 	N 	0.77826 0.17570 0.49980 -0.13700
H 	H 	0.05230 0.79640 0.74240 0.08500
H 	H 	0.90920 0.35420 0.26400 0.08700
C 	C 	0.84160 0.33140 0.17350 0.09900
C 	C 	0.71120 0.21780 0.09680 -0.16800
N 	N 	0.76920 0.12300 0.13760 -0.13500
H 	H 	0.62530 0.10810 0.49930 0.00900
C 	C 	0.82940 0.21140 0.64340 0.05100
C 	C 	0.77563 0.14120 0.65540 0.32000
C 	C 	0.81980 0.21320 0.53530 0.07400
H 	H 	0.84120 0.36770 0.14690 -0.00000
C 	C 	0.67290 0.17300 0.04910 0.08800
C 	C 	0.70250 0.29240 0.10640 0.44700
C 	C 	0.73110 0.08170 0.09110 0.08600
C 	C 	0.84630 0.23320 0.60660 -0.13000
H 	H 	0.84580 0.22480 0.69090 0.02000
H 	H 	0.83170 0.22670 0.51080 0.00400
C 	C 	0.68300 0.10380 0.04560 -0.15400
H 	H 	0.64060 0.18930 0.01970 -0.00100
H 	H 	0.73740 0.03460 0.08940 0.02600
H 	H 	0.87450 0.26040 0.62880 0.07600
H 	H 	0.65790 0.07290 0.01320 0.08700
Gd	Gd	0.29376 0.40797 0.28224 1.63500
O 	O 	0.36899 0.38600 0.29390 -0.42600
O 	O 	0.20272 0.40620 0.19500 -0.39500
O 	O 	0.26293 0.46150 0.33850 -0.53000
O 	O 	0.35918 0.43360 0.40555 -0.54100
O 	O 	0.31547 0.52570 0.29500 -0.52800
O 	O 	0.29167 0.30510 0.33610 -0.44600
O 	O 	0.27580 0.42452 0.16380 -0.35200
O 	O 	0.27218 0.31590 0.19310 -0.36600
C 	C 	0.40770 0.42070 0.32290 0.44400
C 	C 	0.18380 0.46630 0.17580 0.40500
Gd	Gd	0.32432 0.45727 0.46480 1.48100
Gd	Gd	0.25782 0.58608 0.30491 1.45700
Gd	Gd	0.39485 0.54429 0.41263 1.45400
C 	C 	0.44680 0.39450 0.31850 -0.16800
O 	O 	0.41895 0.47540 0.35960 -0.47100
C 	C 	0.12940 0.47450 0.12230 -0.16200
O 	O 	0.20929 0.52240 0.19980 -0.46700
O 	O 	0.26158 0.52390 0.45130 -0.46900
O 	O 	0.33184 0.56620 0.42193 -0.59100
O 	O 	0.40576 0.42040 0.55780 -0.45000
O 	O 	0.31064 0.33540 0.44170 -0.45300
O 	O 	0.29757 0.67020 0.28480 -0.45900
O 	O 	0.20672 0.57370 0.34320 -0.43400
O 	O 	0.37783 0.64690 0.34660 -0.47300
O 	O 	0.44370 0.49600 0.53450 -0.45800
C 	C 	0.45430 0.32300 0.31830 0.07700
C 	C 	0.48060 0.44110 0.32350 0.09200
C 	C 	0.10990 0.53970 0.09300 0.06800
C 	C 	0.09860 0.42100 0.10410 0.06900
C 	C 	0.22340 0.55780 0.40710 0.43100
C 	C 	0.44320 0.45080 0.57370 0.42000
C 	C 	0.33890 0.67840 0.29860 0.45600
H 	H 	0.43230 0.29090 0.31400 0.00400
C 	C 	0.49490 0.29980 0.32480 -0.15500
C 	C 	0.47180 0.51850 0.31120 0.10000
N 	N 	0.52117 0.41830 0.33280 -0.13800
H 	H 	0.13090 0.57770 0.10620 0.00400
C 	C 	0.05950 0.54920 0.04430 -0.13300
C 	C 	0.04730 0.43060 0.05580 -0.13100
H 	H 	0.11130 0.37680 0.12350 0.01600
C 	C 	0.19360 0.57820 0.43060 -0.16900
C 	C 	0.49150 0.43190 0.64410 -0.16600
C 	C 	0.34120 0.73060 0.25360 -0.17900
H 	H 	0.49990 0.25220 0.32250 0.07700
C 	C 	0.52810 0.35000 0.33480 0.07800
N 	N 	0.42738 0.53820 0.25150 -0.13700
H 	H 	0.04710 0.59310 0.02350 0.06900
C 	C 	0.02720 0.49470 0.02570 0.05100
H 	H 	0.02660 0.39270 0.04430 0.06800
C 	C 	0.14560 0.55490 0.39160 0.08700
C 	C 	0.21300 0.61720 0.49320 0.10200
C 	C 	0.49990 0.36180 0.66440 0.08300
C 	C 	0.38200 0.77390 0.28430 0.10700
C 	C 	0.30270 0.73940 0.18100 0.10300
H 	H 	0.55680 0.33430 0.34330 0.00400
C 	C 	0.41970 0.60530 0.23420 0.09600
H 	H 	0.13100 0.53140 0.34840 0.00100
C 	C 	0.11920 0.56640 0.41680 -0.15900
C 	C 	0.26190 0.65370 0.53590 0.07600
N 	N 	0.18755 0.62940 0.51780 -0.13300
C 	C 	0.54540 0.34280 0.72690 -0.15400
H 	H 	0.47550 0.32830 0.63660 0.00700
H 	H 	0.40910 0.76820 0.33220 -0.00700
C 	C 	0.38220 0.82470 0.24410 -0.17500
C 	C 	0.25960 0.69130 0.13840 0.09200
N 	N 	0.30270 0.78870 0.14100 -0.14200
H 	H 	0.38880 0.61850 0.19330 0.00400
H 	H 	0.08700 0.55050 0.39160 0.08100
C 	C 	0.14230 0.60240 0.48080 0.08400
C 	C 	0.28750 0.66930 0.60860 -0.10800
N 	N 	0.27826 0.67570 0.49980 -0.13700
H 	H 	0.55230 0.29640 0.74240 0.08500
H 	H 	0.40920 0.85420 0.26400 0.08700
C 	C 	0.34160 0.83140 0.17350 0.09900
C 	C 	0.21120 0.71780 0.09680 -0.16800
N 	N 	0.26920 0.62300 0.13760 -0.13500
H 	H 	0.12530 0.60810 0.49930 0.00900
C 	C 	0.32940 0.71140 0.64340 0.05100
C 	C 	0.27563 0.64120 0.65540 0.32000
C 	C 	0.31980 0.71320 0.53530 0.07400
H 	H 	0.34120 0.86770 0.14690 -0.00100
C 	C 	0.17290 0.67300 0.04910 0.08800
C 	C 	0.20250 0.79240 0.10640 0.44600
C 	C 	0.23110 0.58170 0.09110 0.08500
C 	C 	0.34630 0.73320 0.60660 -0.13000
H 	H 	0.34580 0.72480 0.69090 0.02000
H 	H 	0.33170 0.72670 0.51080 0.00400
C 	C 	0.18300 0.60380 0.04560 -0.15400
H 	H 	0.14060 0.68930 0.01970 -0.00200
H 	H 	0.23740 0.53460 0.08940 0.02500
H 	H 	0.37450 0.76040 0.62880 0.07600
H 	H 	0.15790 0.57290 0.01320 0.08700
Gd	Gd	0.20624 0.90797 0.21776 1.63400
O 	O 	0.13101 0.88600 0.20610 -0.42600
O 	O 	0.29728 0.90620 0.30500 -0.39400
O 	O 	0.23707 0.96150 0.16150 -0.53000
O 	O 	0.14082 0.93360 0.09445 -0.54100
O 	O 	0.18453 0.02570 0.20500 -0.52700
O 	O 	0.20833 0.80510 0.16390 -0.44600
O 	O 	0.22420 0.92452 0.33620 -0.35200
O 	O 	0.22782 0.81590 0.30690 -0.36600
C 	C 	0.09230 0.92070 0.17710 0.44400
C 	C 	0.31620 0.96630 0.32420 0.40400
Gd	Gd	0.17568 0.95727 0.03520 1.47900
Gd	Gd	0.24218 0.08608 0.19509 1.45800
Gd	Gd	0.10515 0.04429 0.08737 1.45500
C 	C 	0.05320 0.89450 0.18150 -0.16800
O 	O 	0.08105 0.97540 0.14040 -0.47200
C 	C 	0.37060 0.97450 0.37770 -0.16200
O 	O 	0.29071 0.02240 0.30020 -0.46700
O 	O 	0.23842 0.02390 0.04870 -0.46800
O 	O 	0.16816 0.06620 0.07807 -0.59000
O 	O 	0.09424 0.92040 0.94220 -0.44900
O 	O 	0.18936 0.83540 0.05830 -0.45300
O 	O 	0.20243 0.17020 0.21520 -0.45900
O 	O 	0.29328 0.07370 0.15680 -0.43400
O 	O 	0.12217 0.14690 0.15340 -0.47300
O 	O 	0.05630 0.99600 0.96550 -0.45700
C 	C 	0.04570 0.82300 0.18170 0.07700
C 	C 	0.01940 0.94110 0.17650 0.09100
C 	C 	0.39010 0.03970 0.40700 0.06900
C 	C 	0.40140 0.92100 0.39590 0.06900
C 	C 	0.27660 0.05780 0.09290 0.43100
C 	C 	0.05680 0.95080 0.92630 0.42000
C 	C 	0.16110 0.17840 0.20140 0.45600
H 	H 	0.06770 0.79090 0.18600 0.00400
C 	C 	0.00510 0.79980 0.17520 -0.15500
C 	C 	0.02820 0.01850 0.18880 0.10000
N 	N 	0.97883 0.91830 0.16720 -0.13800
H 	H 	0.36910 0.07770 0.39380 0.00400
C 	C 	0.44050 0.04920 0.45570 -0.13300
C 	C 	0.45270 0.93060 0.44420 -0.13100
H 	H 	0.38870 0.87680 0.37650 0.01600
C 	C 	0.30640 0.07820 0.06940 -0.17000
C 	C 	0.00850 0.93190 0.85590 -0.16500
C 	C 	0.15880 0.23060 0.24640 -0.17900
H 	H 	0.00010 0.75220 0.17750 0.07700
C 	C 	0.97190 0.85000 0.16520 0.07900
N 	N 	0.07262 0.03820 0.24850 -0.13700
H 	H 	0.45290 0.09310 0.47650 0.06900
C 	C 	0.47280 0.99470 0.47430 0.05100
H 	H 	0.47340 0.89270 0.45570 0.06800
C 	C 	0.35440 0.05490 0.10840 0.08800
C 	C 	0.28700 0.11720 0.00680 0.10400
C 	C 	0.00010 0.86180 0.83560 0.08300
C 	C 	0.11800 0.27390 0.21570 0.10700
C 	C 	0.19730 0.23940 0.31900 0.10400
H 	H 	0.94320 0.83430 0.15670 0.00400
C 	C 	0.08030 0.10530 0.26580 0.09600
H 	H 	0.36900 0.03140 0.15160 0.00100
C 	C 	0.38080 0.06640 0.08320 -0.16000
C 	C 	0.23810 0.15370 0.96410 0.07400
N 	N 	0.31245 0.12940 0.98220 -0.13400
C 	C 	0.95460 0.84280 0.77310 -0.15400
H 	H 	0.02450 0.82830 0.86340 0.00700
H 	H 	0.09090 0.26820 0.16780 -0.00700
C 	C 	0.11780 0.32470 0.25590 -0.17500
C 	C 	0.24040 0.19130 0.36160 0.09200
N 	N 	0.19730 0.28870 0.35900 -0.14200
H 	H 	0.11120 0.11850 0.30670 0.00400
H 	H 	0.41300 0.05050 0.10840 0.08100
C 	C 	0.35770 0.10240 0.01920 0.08600
C 	C 	0.21250 0.16930 0.89140 -0.10700
N 	N 	0.22174 0.17570 0.00020 -0.13600
H 	H 	0.94770 0.79640 0.75760 0.08500
H 	H 	0.09080 0.35420 0.23600 0.08700
C 	C 	0.15840 0.33140 0.32650 0.09900
C 	C 	0.28880 0.21780 0.40320 -0.16800
N 	N 	0.23080 0.12300 0.36240 -0.13500
H 	H 	0.37470 0.10810 0.00070 0.00900
C 	C 	0.17060 0.21140 0.85660 0.05000
C 	C 	0.22437 0.14120 0.84460 0.32000
C 	C 	0.18020 0.21320 0.96470 0.07300
H 	H 	0.15880 0.36770 0.35310 -0.00000
C 	C 	0.32710 0.17300 0.45090 0.08800
C 	C 	0.29750 0.29240 0.39360 0.44700
C 	C 	0.26890 0.08170 0.40890 0.08500
C 	C 	0.15370 0.23320 0.89340 -0.12900
H 	H 	0.15420 0.22480 0.80910 0.02000
H 	H 	0.16830 0.22670 0.98920 0.00500
C 	C 	0.31700 0.10380 0.45440 -0.15400
H 	H 	0.35940 0.18930 0.48030 -0.00200
H 	H 	0.26260 0.03460 0.41060 0.02600
H 	H 	0.12550 0.26040 0.87120 0.07600
H 	H 	0.34210 0.07290 0.48680 0.08700
Gd	Gd	0.70624 0.40797 0.21776 1.63500
O 	O 	0.63101 0.38600 0.20610 -0.42600
O 	O 	0.79728 0.40620 0.30500 -0.39500
O 	O 	0.73707 0.46150 0.16150 -0.53000
O 	O 	0.64082 0.43360 0.09445 -0.54100
O 	O 	0.68453 0.52570 0.20500 -0.52800
O 	O 	0.70833 0.30510 0.16390 -0.44600
O 	O 	0.72420 0.42452 0.33620 -0.35200
O 	O 	0.72782 0.31590 0.30690 -0.36600
C 	C 	0.59230 0.42070 0.17710 0.44400
C 	C 	0.81620 0.46630 0.32420 0.40500
Gd	Gd	0.67568 0.45727 0.03520 1.48200
Gd	Gd	0.74218 0.58608 0.19509 1.45700
Gd	Gd	0.60515 0.54429 0.08737 1.45400
C 	C 	0.55320 0.39450 0.18150 -0.16800
O 	O 	0.58105 0.47540 0.14040 -0.47100
C 	C 	0.87060 0.47450 0.37770 -0.16200
O 	O 	0.79071 0.52240 0.30020 -0.46700
O 	O 	0.73842 0.52390 0.04870 -0.46900
O 	O 	0.66816 0.56620 0.07807 -0.59100
O 	O 	0.59424 0.42040 0.94220 -0.45000
O 	O 	0.68936 0.33540 0.05830 -0.45300
O 	O 	0.70243 0.67020 0.21520 -0.45900
O 	O 	0.79328 0.57370 0.15680 -0.43400
O 	O 	0.62217 0.64690 0.15340 -0.47300
O 	O 	0.55630 0.49600 0.96550 -0.45700
C 	C 	0.54570 0.32300 0.18170 0.07700
C 	C 	0.51940 0.44110 0.17650 0.09200
C 	C 	0.89010 0.53970 0.40700 0.06800
C 	C 	0.90140 0.42100 0.39590 0.06900
C 	C 	0.77660 0.55780 0.09290 0.43100
C 	C 	0.55680 0.45080 0.92630 0.42000
C 	C 	0.66110 0.67840 0.20140 0.45600
H 	H 	0.56770 0.29090 0.18600 0.00400
C 	C 	0.50510 0.29980 0.17520 -0.15400
C 	C 	0.52820 0.51850 0.18880 0.10000
N 	N 	0.47883 0.41830 0.16720 -0.13800
H 	H 	0.86910 0.57770 0.39380 0.00400
C 	C 	0.94050 0.54920 0.45570 -0.13300
C 	C 	0.95270 0.43060 0.44420 -0.13100
H 	H 	0.88870 0.37680 0.37650 0.01600
C 	C 	0.80640 0.57820 0.06940 -0.16900
C 	C 	0.50850 0.43190 0.85590 -0.16600
C 	C 	0.65880 0.73060 0.24640 -0.17900
H 	H 	0.50010 0.25220 0.17750 0.07700
C 	C 	0.47190 0.35000 0.16520 0.07800
N 	N 	0.57262 0.53820 0.24850 -0.13700
H 	H 	0.95290 0.59310 0.47650 0.06900
C 	C 	0.97280 0.49470 0.47430 0.05100
H 	H 	0.97340 0.39270 0.45570 0.06800
C 	C 	0.85440 0.55490 0.10840 0.08700
C 	C 	0.78700 0.61720 0.00680 0.10200
C 	C 	0.50010 0.36180 0.83560 0.08300
C 	C 	0.61800 0.77390 0.21570 0.10700
C 	C 	0.69730 0.73940 0.31900 0.10300
H 	H 	0.44320 0.33430 0.15670 0.00400
C 	C 	0.58030 0.60530 0.26580 0.09600
H 	H 	0.86900 0.53140 0.15160 0.00100
C 	C 	0.88080 0.56640 0.08320 -0.15900
C 	C 	0.73810 0.65370 0.96410 0.07700
N 	N 	0.81245 0.62940 0.98220 -0.13300
C 	C 	0.45460 0.34280 0.77310 -0.15400
H 	H 	0.52450 0.32830 0.86340 0.00700
H 	H 	0.59090 0.76820 0.16780 -0.00700
C 	C 	0.61780 0.82470 0.25590 -0.17500
C 	C 	0.74040 0.69130 0.36160 0.09200
N 	N 	0.69730 0.78870 0.35900 -0.14200
H 	H 	0.61120 0.61850 0.30670 0.00400
H 	H 	0.91300 0.55050 0.10840 0.08100
C 	C 	0.85770 0.60240 0.01920 0.08400
C 	C 	0.71250 0.66930 0.89140 -0.10800
N 	N 	0.72174 0.67570 0.00020 -0.13800
H 	H 	0.44770 0.29640 0.75760 0.08500
H 	H 	0.59080 0.85420 0.23600 0.08700
C 	C 	0.65840 0.83140 0.32650 0.09900
C 	C 	0.78880 0.71780 0.40320 -0.16800
N 	N 	0.73080 0.62300 0.36240 -0.13500
H 	H 	0.87470 0.60810 0.00070 0.00900
C 	C 	0.67060 0.71140 0.85660 0.05100
C 	C 	0.72437 0.64120 0.84460 0.32100
C 	C 	0.68020 0.71320 0.96470 0.07500
H 	H 	0.65880 0.86770 0.35310 -0.00000
C 	C 	0.82710 0.67300 0.45090 0.08800
C 	C 	0.79750 0.79240 0.39360 0.44700
C 	C 	0.76890 0.58170 0.40890 0.08500
C 	C 	0.65370 0.73320 0.89340 -0.13000
H 	H 	0.65420 0.72480 0.80910 0.02000
H 	H 	0.66830 0.72670 0.98920 0.00400
C 	C 	0.81700 0.60380 0.45440 -0.15400
H 	H 	0.85940 0.68930 0.48030 -0.00200
H 	H 	0.76260 0.53460 0.41060 0.02500
H 	H 	0.62550 0.76040 0.87120 0.07600
H 	H 	0.84210 0.57290 0.48680 0.08700
