data_crystal

_cell_length_a 34.50790
_cell_length_b 19.15900
_cell_length_c 23.98380
_cell_angle_alpha 90.00000
_cell_angle_beta  128.01900
_cell_angle_gamma 90.00000

_symmetry_space_group_name_	'P 1'
_symmetry_space_group_name_H-M	'P 1'

loop_
_symmetry_equiv_pos_as_xyz
  x,y,z

loop_
_atom_site_label
_atom_site_type_symbol
_atom_site_fract_x
_atom_site_fract_y
_atom_site_fract_z
_atom_site_charge
C 	C 	0.94350 0.45150 0.07130 0.45500
C 	C 	0.99080 0.43070 0.14020 -0.19600
C 	C 	0.99890 0.36100 0.15910 0.11100
H 	H 	0.97450 0.32810 0.13070 -0.00700
C 	C 	0.04300 0.34110 0.21970 -0.18200
H 	H 	0.04920 0.29460 0.23360 0.09300
C 	C 	0.07810 0.39090 0.25980 0.10700
H 	H 	0.10870 0.37650 0.30000 -0.00400
C 	C 	0.02750 0.47850 0.18540 0.10500
C 	C 	0.02010 0.55600 0.17510 0.09900
C 	C 	0.97450 0.64860 0.16630 0.08900
H 	H 	0.94690 0.66530 0.16030 -0.00400
C 	C 	0.00670 0.69580 0.17400 -0.18300
H 	H 	0.00190 0.74330 0.17520 0.08300
C 	C 	0.04660 0.67190 0.17980 0.10000
H 	H 	0.06870 0.70330 0.18390 -0.00800
C 	C 	0.05350 0.60050 0.17960 -0.19600
C 	C 	0.09210 0.57460 0.17440 0.47900
C 	C 	0.84600 0.68400 0.81260 0.49900
C 	C 	0.84940 0.73920 0.77220 -0.21200
C 	C 	0.88970 0.78190 0.80610 0.14500
H 	H 	0.91640 0.77320 0.85300 -0.02400
C 	C 	0.89050 0.83670 0.77150 -0.21200
H 	H 	0.91720 0.86700 0.79450 0.10000
C 	C 	0.85200 0.84670 0.70320 0.12000
H 	H 	0.85270 0.88530 0.68030 -0.01100
C 	C 	0.81140 0.75090 0.70150 0.11000
C 	C 	0.76850 0.70260 0.65610 0.10100
C 	C 	0.74230 0.59340 0.61460 0.09300
H 	H 	0.74950 0.54630 0.61620 0.01500
C 	C 	0.69370 0.61350 0.56540 -0.17200
H 	H 	0.66930 0.58130 0.53490 0.09200
C 	C 	0.68320 0.68220 0.56370 0.10600
H 	H 	0.65110 0.69830 0.53160 -0.01000
C 	C 	0.72110 0.72780 0.61040 -0.19100
C 	C 	0.70920 0.80290 0.61480 0.50200
C 	C 	0.77720 0.36360 0.66120 0.34400
C 	C 	0.78920 0.33160 0.61660 -0.12700
C 	C 	0.83040 0.29010 0.65150 0.07400
H 	H 	0.84640 0.27810 0.69860 0.00700
C 	C 	0.84790 0.26670 0.61680 -0.15800
H 	H 	0.87590 0.23900 0.63980 0.08400
C 	C 	0.82320 0.28490 0.54840 0.09400
H 	H 	0.83600 0.27030 0.52560 -0.00900
C 	C 	0.76420 0.34560 0.54430 0.07400
C 	C 	0.71590 0.38130 0.50070 0.11600
C 	C 	0.64400 0.39900 0.48500 0.11200
H 	H 	0.62520 0.39320 0.50040 -0.00400
C 	C 	0.62490 0.43490 0.42470 -0.19700
H 	H 	0.59330 0.45330 0.39920 0.09300
C 	C 	0.65150 0.44420 0.40110 0.12800
H 	H 	0.63790 0.46780 0.35890 -0.01600
C 	C 	0.69860 0.41860 0.44000 -0.20400
C 	C 	0.72910 0.43700 0.41740 0.48200
C 	C 	0.68440 0.48870 0.68050 0.47900
C 	C 	0.62980 0.49090 0.62510 -0.20300
C 	C 	0.60210 0.43180 0.59860 0.10300
H 	H 	0.61740 0.38850 0.61420 0.00300
C 	C 	0.55170 0.43520 0.54930 -0.15700
H 	H 	0.53380 0.39400 0.53120 0.07600
C 	C 	0.52760 0.49720 0.52620 0.06400
C 	C 	0.55610 0.55650 0.54840 -0.15500
H 	H 	0.54110 0.59950 0.52950 0.07500
C 	C 	0.60710 0.55300 0.59890 0.10300
H 	H 	0.62570 0.59380 0.61450 -0.00700
N 	N 	0.07106 0.45880 0.24490 -0.14300
N 	N 	0.97997 0.57890 0.16680 -0.14500
N 	N 	0.81240 0.80460 0.66570 -0.15000
N 	N 	0.77940 0.63530 0.65950 -0.14600
N 	N 	0.68910 0.37180 0.52300 -0.14300
N 	N 	0.78200 0.32220 0.51120 -0.14600
O 	O 	0.90538 0.42060 0.05380 -0.50600
O 	O 	0.94508 0.49680 0.03451 -0.51600
O 	O 	0.08081 0.51990 0.13780 -0.53100
O 	O 	0.13147 0.60730 0.20390 -0.47800
O 	O 	0.88367 0.64840 0.85540 -0.52900
O 	O 	0.80546 0.67770 0.80170 -0.51700
O 	O 	0.71628 0.81930 0.67040 -0.52900
O 	O 	0.69344 0.84120 0.56250 -0.51300
O 	O 	0.77213 0.32440 0.69860 -0.41200
O 	O 	0.77833 0.42870 0.66766 -0.39000
O 	O 	0.76616 0.47480 0.45940 -0.53000
O 	O 	0.71504 0.41600 0.35800 -0.50100
O 	O 	0.76472 0.47150 0.84216 -0.62500
O 	O 	0.85901 0.43745 0.90551 -0.64500
O 	O 	0.81595 0.53382 0.79909 -0.62600
O 	O 	0.83585 0.56850 0.92858 -0.70100
O 	O 	0.70494 0.54640 0.70840 -0.53700
O 	O 	0.70654 0.43160 0.69710 -0.47700
Tb	Tb	0.89633 0.54573 0.91612 1.71200
Tb	Tb	0.79376 0.41744 0.78387 1.96000
Tb	Tb	0.82531 0.45937 0.96577 1.74900
Tb	Tb	0.76244 0.59492 0.81633 1.73600
C 	C 	0.44350 0.95150 0.07130 0.45600
C 	C 	0.49080 0.93070 0.14020 -0.19500
C 	C 	0.49890 0.86100 0.15910 0.11200
H 	H 	0.47450 0.82810 0.13070 -0.00600
C 	C 	0.54300 0.84110 0.21970 -0.18000
H 	H 	0.54920 0.79460 0.23360 0.09400
C 	C 	0.57810 0.89090 0.25980 0.10800
H 	H 	0.60870 0.87650 0.30000 -0.00300
C 	C 	0.52750 0.97850 0.18540 0.10800
C 	C 	0.52010 0.05600 0.17510 0.09900
C 	C 	0.47450 0.14860 0.16630 0.08800
H 	H 	0.44690 0.16530 0.16030 -0.00200
C 	C 	0.50670 0.19580 0.17400 -0.18000
H 	H 	0.50190 0.24330 0.17520 0.08400
C 	C 	0.54660 0.17190 0.17980 0.09900
H 	H 	0.56870 0.20330 0.18390 -0.00800
C 	C 	0.55350 0.10050 0.17960 -0.19600
C 	C 	0.59210 0.07460 0.17440 0.47900
C 	C 	0.34600 0.18400 0.81260 0.49900
C 	C 	0.34940 0.23920 0.77220 -0.21200
C 	C 	0.38970 0.28190 0.80610 0.14500
H 	H 	0.41640 0.27320 0.85300 -0.02400
C 	C 	0.39050 0.33670 0.77150 -0.21200
H 	H 	0.41720 0.36700 0.79450 0.10000
C 	C 	0.35200 0.34670 0.70320 0.12000
H 	H 	0.35270 0.38530 0.68030 -0.01100
C 	C 	0.31140 0.25090 0.70150 0.11000
C 	C 	0.26850 0.20260 0.65610 0.10100
C 	C 	0.24230 0.09340 0.61460 0.09300
H 	H 	0.24950 0.04630 0.61620 0.01500
C 	C 	0.19370 0.11350 0.56540 -0.17200
H 	H 	0.16930 0.08130 0.53490 0.09200
C 	C 	0.18320 0.18220 0.56370 0.10600
H 	H 	0.15110 0.19830 0.53160 -0.01000
C 	C 	0.22110 0.22780 0.61040 -0.19100
C 	C 	0.20920 0.30290 0.61480 0.50200
C 	C 	0.27720 0.86360 0.66120 0.34400
C 	C 	0.28920 0.83160 0.61660 -0.12700
C 	C 	0.33040 0.79010 0.65150 0.07400
H 	H 	0.34640 0.77810 0.69860 0.00700
C 	C 	0.34790 0.76670 0.61680 -0.15900
H 	H 	0.37590 0.73900 0.63980 0.08400
C 	C 	0.32320 0.78490 0.54840 0.09400
H 	H 	0.33600 0.77030 0.52560 -0.00900
C 	C 	0.26420 0.84560 0.54430 0.07500
C 	C 	0.21590 0.88130 0.50070 0.11600
C 	C 	0.14400 0.89900 0.48500 0.11100
H 	H 	0.12520 0.89320 0.50040 -0.00400
C 	C 	0.12490 0.93490 0.42470 -0.19700
H 	H 	0.09330 0.95330 0.39920 0.09300
C 	C 	0.15150 0.94420 0.40110 0.12800
H 	H 	0.13790 0.96780 0.35890 -0.01600
C 	C 	0.19860 0.91860 0.44000 -0.20400
C 	C 	0.22910 0.93700 0.41740 0.48200
C 	C 	0.18440 0.98870 0.68050 0.47800
C 	C 	0.12980 0.99090 0.62510 -0.20300
C 	C 	0.10210 0.93180 0.59860 0.10300
H 	H 	0.11740 0.88850 0.61420 0.00300
C 	C 	0.05170 0.93520 0.54930 -0.15700
H 	H 	0.03380 0.89400 0.53120 0.07500
C 	C 	0.02760 0.99720 0.52620 0.06400
C 	C 	0.05610 0.05650 0.54840 -0.15500
H 	H 	0.04110 0.09950 0.52950 0.07500
C 	C 	0.10710 0.05300 0.59890 0.10300
H 	H 	0.12570 0.09380 0.61450 -0.00700
N 	N 	0.57106 0.95880 0.24490 -0.14300
N 	N 	0.47997 0.07890 0.16680 -0.14500
N 	N 	0.31240 0.30460 0.66570 -0.15000
N 	N 	0.27940 0.13530 0.65950 -0.14600
N 	N 	0.18910 0.87180 0.52300 -0.14300
N 	N 	0.28200 0.82220 0.51120 -0.14600
O 	O 	0.40538 0.92060 0.05380 -0.50500
O 	O 	0.44508 0.99680 0.03451 -0.51600
O 	O 	0.58081 0.01990 0.13780 -0.53200
O 	O 	0.63147 0.10730 0.20390 -0.47800
O 	O 	0.38367 0.14840 0.85540 -0.52900
O 	O 	0.30546 0.17770 0.80170 -0.51800
O 	O 	0.21628 0.31930 0.67040 -0.52900
O 	O 	0.19344 0.34120 0.56250 -0.51300
O 	O 	0.27213 0.82440 0.69860 -0.41200
O 	O 	0.27833 0.92870 0.66766 -0.39000
O 	O 	0.26616 0.97480 0.45940 -0.53000
O 	O 	0.21504 0.91600 0.35800 -0.50100
O 	O 	0.26472 0.97150 0.84216 -0.62500
O 	O 	0.35901 0.93745 0.90551 -0.64500
O 	O 	0.31595 0.03382 0.79909 -0.62600
O 	O 	0.33585 0.06850 0.92858 -0.70000
O 	O 	0.20494 0.04640 0.70840 -0.53600
O 	O 	0.20654 0.93160 0.69710 -0.47700
Tb	Tb	0.39633 0.04573 0.91612 1.71500
Tb	Tb	0.29376 0.91744 0.78387 1.95900
Tb	Tb	0.32531 0.95937 0.96577 1.74600
Tb	Tb	0.26244 0.09492 0.81633 1.73700
C 	C 	0.05650 0.45150 0.42870 0.45600
C 	C 	0.00920 0.43070 0.35980 -0.19500
C 	C 	0.00110 0.36100 0.34090 0.11100
H 	H 	0.02550 0.32810 0.36930 -0.00600
C 	C 	0.95700 0.34110 0.28030 -0.17900
H 	H 	0.95080 0.29460 0.26640 0.09300
C 	C 	0.92190 0.39090 0.24020 0.10700
H 	H 	0.89130 0.37650 0.20000 -0.00300
C 	C 	0.97250 0.47850 0.31460 0.10700
C 	C 	0.97990 0.55600 0.32490 0.10000
C 	C 	0.02550 0.64860 0.33370 0.08800
H 	H 	0.05310 0.66530 0.33970 -0.00200
C 	C 	0.99330 0.69580 0.32600 -0.18000
H 	H 	0.99810 0.74330 0.32480 0.08400
C 	C 	0.95340 0.67190 0.32020 0.09900
H 	H 	0.93130 0.70330 0.31610 -0.00800
C 	C 	0.94650 0.60050 0.32040 -0.19600
C 	C 	0.90790 0.57460 0.32560 0.47900
C 	C 	0.15400 0.68400 0.68740 0.49900
C 	C 	0.15060 0.73920 0.72780 -0.21200
C 	C 	0.11030 0.78190 0.69390 0.14500
H 	H 	0.08360 0.77320 0.64700 -0.02400
C 	C 	0.10950 0.83670 0.72850 -0.21200
H 	H 	0.08280 0.86700 0.70550 0.10000
C 	C 	0.14800 0.84670 0.79680 0.12000
H 	H 	0.14730 0.88530 0.81970 -0.01100
C 	C 	0.18860 0.75090 0.79850 0.11000
C 	C 	0.23150 0.70260 0.84390 0.10100
C 	C 	0.25770 0.59340 0.88540 0.09400
H 	H 	0.25050 0.54630 0.88380 0.01500
C 	C 	0.30630 0.61350 0.93460 -0.17200
H 	H 	0.33070 0.58130 0.96510 0.09200
C 	C 	0.31680 0.68220 0.93630 0.10600
H 	H 	0.34890 0.69830 0.96840 -0.01000
C 	C 	0.27890 0.72780 0.88960 -0.19100
C 	C 	0.29080 0.80290 0.88520 0.50100
C 	C 	0.22280 0.36360 0.83880 0.34400
C 	C 	0.21080 0.33160 0.88340 -0.12700
C 	C 	0.16960 0.29010 0.84850 0.07400
H 	H 	0.15360 0.27810 0.80140 0.00700
C 	C 	0.15210 0.26670 0.88320 -0.15800
H 	H 	0.12410 0.23900 0.86020 0.08400
C 	C 	0.17680 0.28490 0.95160 0.09500
H 	H 	0.16400 0.27030 0.97440 -0.00900
C 	C 	0.23580 0.34560 0.95570 0.07500
C 	C 	0.28410 0.38130 0.99930 0.11700
C 	C 	0.35600 0.39900 0.01500 0.11000
H 	H 	0.37480 0.39320 0.99960 -0.00300
C 	C 	0.37510 0.43490 0.07530 -0.19600
H 	H 	0.40670 0.45330 0.10080 0.09300
C 	C 	0.34850 0.44420 0.09890 0.12800
H 	H 	0.36210 0.46780 0.14110 -0.01600
C 	C 	0.30140 0.41860 0.06000 -0.20500
C 	C 	0.27090 0.43700 0.08260 0.48200
C 	C 	0.31560 0.48870 0.81950 0.47900
C 	C 	0.37020 0.49090 0.87490 -0.20300
C 	C 	0.39790 0.43180 0.90140 0.10300
H 	H 	0.38260 0.38850 0.88580 0.00300
C 	C 	0.44830 0.43520 0.95070 -0.15700
H 	H 	0.46620 0.39400 0.96880 0.07600
C 	C 	0.47240 0.49720 0.97380 0.06400
C 	C 	0.44390 0.55650 0.95160 -0.15500
H 	H 	0.45890 0.59950 0.97050 0.07500
C 	C 	0.39290 0.55300 0.90110 0.10300
H 	H 	0.37430 0.59380 0.88550 -0.00700
N 	N 	0.92894 0.45880 0.25510 -0.14300
N 	N 	0.02003 0.57890 0.33320 -0.14500
N 	N 	0.18760 0.80460 0.83430 -0.15000
N 	N 	0.22060 0.63530 0.84050 -0.14600
N 	N 	0.31090 0.37180 0.97700 -0.14300
N 	N 	0.21800 0.32220 0.98880 -0.14600
O 	O 	0.09462 0.42060 0.44620 -0.50600
O 	O 	0.05492 0.49680 0.46549 -0.51700
O 	O 	0.91919 0.51990 0.36220 -0.53100
O 	O 	0.86853 0.60730 0.29610 -0.47800
O 	O 	0.11633 0.64840 0.64460 -0.52900
O 	O 	0.19454 0.67770 0.69830 -0.51700
O 	O 	0.28372 0.81930 0.82960 -0.52900
O 	O 	0.30656 0.84120 0.93750 -0.51300
O 	O 	0.22787 0.32440 0.80140 -0.41200
O 	O 	0.22167 0.42870 0.83234 -0.39000
O 	O 	0.23384 0.47480 0.04060 -0.53000
O 	O 	0.28496 0.41600 0.14200 -0.50100
O 	O 	0.23528 0.47150 0.65784 -0.62500
O 	O 	0.14099 0.43745 0.59449 -0.64500
O 	O 	0.18405 0.53382 0.70091 -0.62700
O 	O 	0.16415 0.56850 0.57142 -0.70100
O 	O 	0.29506 0.54640 0.79160 -0.53700
O 	O 	0.29346 0.43160 0.80290 -0.47700
Tb	Tb	0.10367 0.54573 0.58388 1.71200
Tb	Tb	0.20624 0.41744 0.71613 1.96000
Tb	Tb	0.17469 0.45937 0.53423 1.74900
Tb	Tb	0.23756 0.59492 0.68367 1.73600
C 	C 	0.55650 0.95150 0.42870 0.45600
C 	C 	0.50920 0.93070 0.35980 -0.19500
C 	C 	0.50110 0.86100 0.34090 0.11200
H 	H 	0.52550 0.82810 0.36930 -0.00600
C 	C 	0.45700 0.84110 0.28030 -0.18000
H 	H 	0.45080 0.79460 0.26640 0.09400
C 	C 	0.42190 0.89090 0.24020 0.10800
H 	H 	0.39130 0.87650 0.20000 -0.00300
C 	C 	0.47250 0.97850 0.31460 0.10800
C 	C 	0.47990 0.05600 0.32490 0.10000
C 	C 	0.52550 0.14860 0.33370 0.08900
H 	H 	0.55310 0.16530 0.33970 -0.00200
C 	C 	0.49330 0.19580 0.32600 -0.18000
H 	H 	0.49810 0.24330 0.32480 0.08400
C 	C 	0.45340 0.17190 0.32020 0.09900
H 	H 	0.43130 0.20330 0.31610 -0.00800
C 	C 	0.44650 0.10050 0.32040 -0.19600
C 	C 	0.40790 0.07460 0.32560 0.47900
C 	C 	0.65400 0.18400 0.68740 0.49900
C 	C 	0.65060 0.23920 0.72780 -0.21200
C 	C 	0.61030 0.28190 0.69390 0.14500
H 	H 	0.58360 0.27320 0.64700 -0.02400
C 	C 	0.60950 0.33670 0.72850 -0.21200
H 	H 	0.58280 0.36700 0.70550 0.10000
C 	C 	0.64800 0.34670 0.79680 0.12000
H 	H 	0.64730 0.38530 0.81970 -0.01100
C 	C 	0.68860 0.25090 0.79850 0.11000
C 	C 	0.73150 0.20260 0.84390 0.10100
C 	C 	0.75770 0.09340 0.88540 0.09300
H 	H 	0.75050 0.04630 0.88380 0.01500
C 	C 	0.80630 0.11350 0.93460 -0.17200
H 	H 	0.83070 0.08130 0.96510 0.09200
C 	C 	0.81680 0.18220 0.93630 0.10600
H 	H 	0.84890 0.19830 0.96840 -0.01000
C 	C 	0.77890 0.22780 0.88960 -0.19100
C 	C 	0.79080 0.30290 0.88520 0.50200
C 	C 	0.72280 0.86360 0.83880 0.34400
C 	C 	0.71080 0.83160 0.88340 -0.12700
C 	C 	0.66960 0.79010 0.84850 0.07400
H 	H 	0.65360 0.77810 0.80140 0.00700
C 	C 	0.65210 0.76670 0.88320 -0.15900
H 	H 	0.62410 0.73900 0.86020 0.08400
C 	C 	0.67680 0.78490 0.95160 0.09400
H 	H 	0.66400 0.77030 0.97440 -0.00900
C 	C 	0.73580 0.84560 0.95570 0.07500
C 	C 	0.78410 0.88130 0.99930 0.11500
C 	C 	0.85600 0.89900 0.01500 0.11800
H 	H 	0.87480 0.89320 0.99960 -0.00800
C 	C 	0.87510 0.93490 0.07530 -0.20100
H 	H 	0.90670 0.95330 0.10080 0.09500
C 	C 	0.84850 0.94420 0.09890 0.13000
H 	H 	0.86210 0.96780 0.14110 -0.01600
C 	C 	0.80140 0.91860 0.06000 -0.20300
C 	C 	0.77090 0.93700 0.08260 0.48200
C 	C 	0.81560 0.98870 0.81950 0.47800
C 	C 	0.87020 0.99090 0.87490 -0.20400
C 	C 	0.89790 0.93180 0.90140 0.10300
H 	H 	0.88260 0.88850 0.88580 0.00300
C 	C 	0.94830 0.93520 0.95070 -0.15700
H 	H 	0.96620 0.89400 0.96880 0.07500
C 	C 	0.97240 0.99720 0.97380 0.06200
C 	C 	0.94390 0.05650 0.95160 -0.15300
H 	H 	0.95890 0.09950 0.97050 0.07500
C 	C 	0.89290 0.05300 0.90110 0.10400
H 	H 	0.87430 0.09380 0.88550 -0.00700
N 	N 	0.42894 0.95880 0.25510 -0.14300
N 	N 	0.52003 0.07890 0.33320 -0.14500
N 	N 	0.68760 0.30460 0.83430 -0.15000
N 	N 	0.72060 0.13530 0.84050 -0.14600
N 	N 	0.81090 0.87180 0.97700 -0.14500
N 	N 	0.71800 0.82220 0.98880 -0.14700
O 	O 	0.59462 0.92060 0.44620 -0.50600
O 	O 	0.55492 0.99680 0.46549 -0.51700
O 	O 	0.41919 0.01990 0.36220 -0.53100
O 	O 	0.36853 0.10730 0.29610 -0.47800
O 	O 	0.61633 0.14840 0.64460 -0.52900
O 	O 	0.69454 0.17770 0.69830 -0.51700
O 	O 	0.78372 0.31930 0.82960 -0.52900
O 	O 	0.80656 0.34120 0.93750 -0.51300
O 	O 	0.72787 0.82440 0.80140 -0.41200
O 	O 	0.72167 0.92870 0.83234 -0.39000
O 	O 	0.73384 0.97480 0.04060 -0.52800
O 	O 	0.78496 0.91600 0.14200 -0.50100
O 	O 	0.73528 0.97150 0.65784 -0.62500
O 	O 	0.64099 0.93745 0.59449 -0.64500
O 	O 	0.68405 0.03382 0.70091 -0.62600
O 	O 	0.66415 0.06850 0.57142 -0.70100
O 	O 	0.79506 0.04640 0.79160 -0.53600
O 	O 	0.79346 0.93160 0.80290 -0.47700
Tb	Tb	0.60367 0.04573 0.58388 1.71300
Tb	Tb	0.70624 0.91744 0.71613 1.95900
Tb	Tb	0.67469 0.95937 0.53424 1.74900
Tb	Tb	0.73756 0.09492 0.68367 1.73600
C 	C 	0.05650 0.54850 0.92870 0.45600
C 	C 	0.00920 0.56930 0.85980 -0.19500
C 	C 	0.00110 0.63900 0.84090 0.11200
H 	H 	0.02550 0.67190 0.86930 -0.00600
C 	C 	0.95700 0.65890 0.78030 -0.18100
H 	H 	0.95080 0.70540 0.76640 0.09400
C 	C 	0.92190 0.60910 0.74020 0.10800
H 	H 	0.89130 0.62350 0.70000 -0.00300
C 	C 	0.97250 0.52150 0.81460 0.10600
C 	C 	0.97990 0.44400 0.82490 0.10000
C 	C 	0.02550 0.35140 0.83370 0.09000
H 	H 	0.05310 0.33470 0.83970 -0.00300
C 	C 	0.99330 0.30420 0.82600 -0.18200
H 	H 	0.99810 0.25670 0.82480 0.08400
C 	C 	0.95340 0.32810 0.82020 0.10000
H 	H 	0.93130 0.29670 0.81610 -0.00800
C 	C 	0.94650 0.39950 0.82040 -0.19600
C 	C 	0.90790 0.42540 0.82560 0.47900
C 	C 	0.15400 0.31600 0.18740 0.49900
C 	C 	0.15060 0.26080 0.22780 -0.21200
C 	C 	0.11030 0.21810 0.19390 0.14500
H 	H 	0.08360 0.22680 0.14700 -0.02400
C 	C 	0.10950 0.16330 0.22850 -0.21200
H 	H 	0.08280 0.13300 0.20550 0.10000
C 	C 	0.14800 0.15330 0.29680 0.12000
H 	H 	0.14730 0.11470 0.31970 -0.01100
C 	C 	0.18860 0.24910 0.29850 0.11000
C 	C 	0.23150 0.29740 0.34390 0.10100
C 	C 	0.25770 0.40660 0.38540 0.09300
H 	H 	0.25050 0.45370 0.38380 0.01500
C 	C 	0.30630 0.38650 0.43460 -0.17200
H 	H 	0.33070 0.41870 0.46510 0.09200
C 	C 	0.31680 0.31780 0.43630 0.10600
H 	H 	0.34890 0.30170 0.46840 -0.01000
C 	C 	0.27890 0.27220 0.38960 -0.19100
C 	C 	0.29080 0.19710 0.38520 0.50200
C 	C 	0.22280 0.63640 0.33880 0.34400
C 	C 	0.21080 0.66840 0.38340 -0.12700
C 	C 	0.16960 0.70990 0.34850 0.07400
H 	H 	0.15360 0.72190 0.30140 0.00700
C 	C 	0.15210 0.73330 0.38320 -0.15800
H 	H 	0.12410 0.76100 0.36020 0.08400
C 	C 	0.17680 0.71510 0.45160 0.09400
H 	H 	0.16400 0.72970 0.47440 -0.00900
C 	C 	0.23580 0.65440 0.45570 0.07400
C 	C 	0.28410 0.61870 0.49930 0.11600
C 	C 	0.35600 0.60100 0.51500 0.11200
H 	H 	0.37480 0.60680 0.49960 -0.00400
C 	C 	0.37510 0.56510 0.57530 -0.19700
H 	H 	0.40670 0.54670 0.60080 0.09300
C 	C 	0.34850 0.55580 0.59890 0.12800
H 	H 	0.36210 0.53220 0.64110 -0.01600
C 	C 	0.30140 0.58140 0.56000 -0.20400
C 	C 	0.27090 0.56300 0.58260 0.48200
C 	C 	0.31560 0.51130 0.31950 0.47900
C 	C 	0.37020 0.50910 0.37490 -0.20300
C 	C 	0.39790 0.56820 0.40140 0.10300
H 	H 	0.38260 0.61150 0.38580 0.00300
C 	C 	0.44830 0.56480 0.45070 -0.15700
H 	H 	0.46620 0.60600 0.46880 0.07600
C 	C 	0.47240 0.50280 0.47380 0.06400
C 	C 	0.44390 0.44350 0.45160 -0.15500
H 	H 	0.45890 0.40050 0.47050 0.07500
C 	C 	0.39290 0.44700 0.40110 0.10300
H 	H 	0.37430 0.40620 0.38550 -0.00700
N 	N 	0.92894 0.54120 0.75510 -0.14300
N 	N 	0.02003 0.42110 0.83320 -0.14500
N 	N 	0.18760 0.19540 0.33430 -0.15000
N 	N 	0.22060 0.36470 0.34050 -0.14600
N 	N 	0.31090 0.62820 0.47700 -0.14300
N 	N 	0.21800 0.67780 0.48880 -0.14600
O 	O 	0.09462 0.57940 0.94620 -0.50600
O 	O 	0.05492 0.50320 0.96549 -0.51600
O 	O 	0.91919 0.48010 0.86220 -0.53100
O 	O 	0.86853 0.39270 0.79610 -0.47800
O 	O 	0.11633 0.35160 0.14460 -0.52900
O 	O 	0.19454 0.32230 0.19830 -0.51700
O 	O 	0.28372 0.18070 0.32960 -0.52900
O 	O 	0.30656 0.15880 0.43750 -0.51300
O 	O 	0.22787 0.67560 0.30140 -0.41200
O 	O 	0.22167 0.57130 0.33234 -0.39000
O 	O 	0.23384 0.52520 0.54060 -0.53000
O 	O 	0.28496 0.58400 0.64200 -0.50100
O 	O 	0.23528 0.52850 0.15784 -0.62500
O 	O 	0.14099 0.56255 0.09449 -0.64500
O 	O 	0.18405 0.46618 0.20091 -0.62600
O 	O 	0.16415 0.43150 0.07142 -0.70100
O 	O 	0.29506 0.45360 0.29160 -0.53700
O 	O 	0.29346 0.56840 0.30290 -0.47700
Tb	Tb	0.10367 0.45427 0.08388 1.71200
Tb	Tb	0.20624 0.58256 0.21613 1.96000
Tb	Tb	0.17469 0.54063 0.03423 1.74900
Tb	Tb	0.23756 0.40508 0.18367 1.73600
C 	C 	0.55650 0.04850 0.92870 0.45600
C 	C 	0.50920 0.06930 0.85980 -0.19500
C 	C 	0.50110 0.13900 0.84090 0.11200
H 	H 	0.52550 0.17190 0.86930 -0.00600
C 	C 	0.45700 0.15890 0.78030 -0.18000
H 	H 	0.45080 0.20540 0.76640 0.09400
C 	C 	0.42190 0.10910 0.74020 0.10800
H 	H 	0.39130 0.12350 0.70000 -0.00300
C 	C 	0.47250 0.02150 0.81460 0.10800
C 	C 	0.47990 0.94400 0.82490 0.09900
C 	C 	0.52550 0.85140 0.83370 0.08800
H 	H 	0.55310 0.83470 0.83970 -0.00200
C 	C 	0.49330 0.80420 0.82600 -0.18000
H 	H 	0.49810 0.75670 0.82480 0.08400
C 	C 	0.45340 0.82810 0.82020 0.09900
H 	H 	0.43130 0.79670 0.81610 -0.00800
C 	C 	0.44650 0.89950 0.82040 -0.19600
C 	C 	0.40790 0.92540 0.82560 0.47900
C 	C 	0.65400 0.81600 0.18740 0.49900
C 	C 	0.65060 0.76080 0.22780 -0.21200
C 	C 	0.61030 0.71810 0.19390 0.14500
H 	H 	0.58360 0.72680 0.14700 -0.02400
C 	C 	0.60950 0.66330 0.22850 -0.21200
H 	H 	0.58280 0.63300 0.20550 0.10000
C 	C 	0.64800 0.65330 0.29680 0.12000
H 	H 	0.64730 0.61470 0.31970 -0.01100
C 	C 	0.68860 0.74910 0.29850 0.11000
C 	C 	0.73150 0.79740 0.34390 0.10100
C 	C 	0.75770 0.90660 0.38540 0.09300
H 	H 	0.75050 0.95370 0.38380 0.01500
C 	C 	0.80630 0.88650 0.43460 -0.17200
H 	H 	0.83070 0.91870 0.46510 0.09200
C 	C 	0.81680 0.81780 0.43630 0.10600
H 	H 	0.84890 0.80170 0.46840 -0.01000
C 	C 	0.77890 0.77220 0.38960 -0.19100
C 	C 	0.79080 0.69710 0.38520 0.50200
C 	C 	0.72280 0.13640 0.33880 0.34400
C 	C 	0.71080 0.16840 0.38340 -0.12700
C 	C 	0.66960 0.20990 0.34850 0.07400
H 	H 	0.65360 0.22190 0.30140 0.00700
C 	C 	0.65210 0.23330 0.38320 -0.15900
H 	H 	0.62410 0.26100 0.36020 0.08400
C 	C 	0.67680 0.21510 0.45160 0.09400
H 	H 	0.66400 0.22970 0.47440 -0.00900
C 	C 	0.73580 0.15440 0.45570 0.07500
C 	C 	0.78410 0.11870 0.49930 0.11600
C 	C 	0.85600 0.10100 0.51500 0.11100
H 	H 	0.87480 0.10680 0.49960 -0.00400
C 	C 	0.87510 0.06510 0.57530 -0.19700
H 	H 	0.90670 0.04670 0.60080 0.09300
C 	C 	0.84850 0.05580 0.59890 0.12800
H 	H 	0.86210 0.03220 0.64110 -0.01600
C 	C 	0.80140 0.08140 0.56000 -0.20400
C 	C 	0.77090 0.06300 0.58260 0.48200
C 	C 	0.81560 0.01130 0.31950 0.47800
C 	C 	0.87020 0.00910 0.37490 -0.20300
C 	C 	0.89790 0.06820 0.40140 0.10300
H 	H 	0.88260 0.11150 0.38580 0.00300
C 	C 	0.94830 0.06480 0.45070 -0.15700
H 	H 	0.96620 0.10600 0.46880 0.07500
C 	C 	0.97240 0.00280 0.47380 0.06400
C 	C 	0.94390 0.94350 0.45160 -0.15500
H 	H 	0.95890 0.90050 0.47050 0.07500
C 	C 	0.89290 0.94700 0.40110 0.10300
H 	H 	0.87430 0.90620 0.38550 -0.00700
N 	N 	0.42894 0.04120 0.75510 -0.14300
N 	N 	0.52003 0.92110 0.83320 -0.14500
N 	N 	0.68760 0.69540 0.33430 -0.15000
N 	N 	0.72060 0.86470 0.34050 -0.14600
N 	N 	0.81090 0.12820 0.47700 -0.14300
N 	N 	0.71800 0.17780 0.48880 -0.14600
O 	O 	0.59462 0.07940 0.94620 -0.50500
O 	O 	0.55492 0.00320 0.96549 -0.51600
O 	O 	0.41919 0.98010 0.86220 -0.53200
O 	O 	0.36853 0.89270 0.79610 -0.47800
O 	O 	0.61633 0.85160 0.14460 -0.52900
O 	O 	0.69454 0.82230 0.19830 -0.51800
O 	O 	0.78372 0.68070 0.32960 -0.52900
O 	O 	0.80656 0.65880 0.43750 -0.51300
O 	O 	0.72787 0.17560 0.30140 -0.41200
O 	O 	0.72167 0.07130 0.33234 -0.39000
O 	O 	0.73384 0.02520 0.54060 -0.53000
O 	O 	0.78496 0.08400 0.64200 -0.50100
O 	O 	0.73528 0.02850 0.15784 -0.62500
O 	O 	0.64099 0.06255 0.09449 -0.64500
O 	O 	0.68405 0.96618 0.20091 -0.62600
O 	O 	0.66415 0.93150 0.07142 -0.70000
O 	O 	0.79506 0.95360 0.29160 -0.53600
O 	O 	0.79346 0.06840 0.30290 -0.47700
Tb	Tb	0.60367 0.95427 0.08388 1.71500
Tb	Tb	0.70624 0.08256 0.21613 1.95900
Tb	Tb	0.67469 0.04063 0.03423 1.74600
Tb	Tb	0.73756 0.90508 0.18367 1.73700
C 	C 	0.94350 0.54850 0.57130 0.45600
C 	C 	0.99080 0.56930 0.64020 -0.19500
C 	C 	0.99890 0.63900 0.65910 0.11100
H 	H 	0.97450 0.67190 0.63070 -0.00600
C 	C 	0.04300 0.65890 0.71970 -0.17900
H 	H 	0.04920 0.70540 0.73360 0.09300
C 	C 	0.07810 0.60910 0.75980 0.10700
H 	H 	0.10870 0.62350 0.80000 -0.00300
C 	C 	0.02750 0.52150 0.68540 0.10700
C 	C 	0.02010 0.44400 0.67510 0.10000
C 	C 	0.97450 0.35140 0.66630 0.08800
H 	H 	0.94690 0.33470 0.66030 -0.00200
C 	C 	0.00670 0.30420 0.67400 -0.18000
H 	H 	0.00190 0.25670 0.67520 0.08400
C 	C 	0.04660 0.32810 0.67980 0.09900
H 	H 	0.06870 0.29670 0.68390 -0.00800
C 	C 	0.05350 0.39950 0.67960 -0.19600
C 	C 	0.09210 0.42540 0.67440 0.47900
C 	C 	0.84600 0.31600 0.31260 0.49900
C 	C 	0.84940 0.26080 0.27220 -0.21200
C 	C 	0.88970 0.21810 0.30610 0.14500
H 	H 	0.91640 0.22680 0.35300 -0.02400
C 	C 	0.89050 0.16330 0.27150 -0.21200
H 	H 	0.91720 0.13300 0.29450 0.10000
C 	C 	0.85200 0.15330 0.20320 0.12000
H 	H 	0.85270 0.11470 0.18030 -0.01100
C 	C 	0.81140 0.24910 0.20150 0.11000
C 	C 	0.76850 0.29740 0.15610 0.10100
C 	C 	0.74230 0.40660 0.11460 0.09400
H 	H 	0.74950 0.45370 0.11620 0.01500
C 	C 	0.69370 0.38650 0.06540 -0.17200
H 	H 	0.66930 0.41870 0.03490 0.09200
C 	C 	0.68320 0.31780 0.06370 0.10600
H 	H 	0.65110 0.30170 0.03160 -0.01000
C 	C 	0.72110 0.27220 0.11040 -0.19100
C 	C 	0.70920 0.19710 0.11480 0.50100
C 	C 	0.77720 0.63640 0.16120 0.34400
C 	C 	0.78920 0.66840 0.11660 -0.12700
C 	C 	0.83040 0.70990 0.15150 0.07400
H 	H 	0.84640 0.72190 0.19860 0.00700
C 	C 	0.84790 0.73330 0.11680 -0.15800
H 	H 	0.87590 0.76100 0.13980 0.08400
C 	C 	0.82320 0.71510 0.04840 0.09500
H 	H 	0.83600 0.72970 0.02560 -0.00900
C 	C 	0.76420 0.65440 0.04430 0.07500
C 	C 	0.71590 0.61870 0.00070 0.11700
C 	C 	0.64400 0.60100 0.98500 0.11000
H 	H 	0.62520 0.60680 0.00040 -0.00300
C 	C 	0.62490 0.56510 0.92470 -0.19600
H 	H 	0.59330 0.54670 0.89920 0.09300
C 	C 	0.65150 0.55580 0.90110 0.12800
H 	H 	0.63790 0.53220 0.85890 -0.01600
C 	C 	0.69860 0.58140 0.94000 -0.20500
C 	C 	0.72910 0.56300 0.91740 0.48200
C 	C 	0.68440 0.51130 0.18050 0.47900
C 	C 	0.62980 0.50910 0.12510 -0.20300
C 	C 	0.60210 0.56820 0.09860 0.10300
H 	H 	0.61740 0.61150 0.11420 0.00300
C 	C 	0.55170 0.56480 0.04930 -0.15700
H 	H 	0.53380 0.60600 0.03120 0.07600
C 	C 	0.52760 0.50280 0.02620 0.06400
C 	C 	0.55610 0.44350 0.04840 -0.15500
H 	H 	0.54110 0.40050 0.02950 0.07500
C 	C 	0.60710 0.44700 0.09890 0.10300
H 	H 	0.62570 0.40620 0.11450 -0.00700
N 	N 	0.07106 0.54120 0.74490 -0.14300
N 	N 	0.97997 0.42110 0.66680 -0.14500
N 	N 	0.81240 0.19540 0.16570 -0.15000
N 	N 	0.77940 0.36470 0.15950 -0.14600
N 	N 	0.68910 0.62820 0.02300 -0.14300
N 	N 	0.78200 0.67780 0.01120 -0.14600
O 	O 	0.90538 0.57940 0.55380 -0.50600
O 	O 	0.94508 0.50320 0.53451 -0.51700
O 	O 	0.08081 0.48010 0.63780 -0.53100
O 	O 	0.13147 0.39270 0.70390 -0.47800
O 	O 	0.88367 0.35160 0.35540 -0.52900
O 	O 	0.80546 0.32230 0.30170 -0.51700
O 	O 	0.71628 0.18070 0.17040 -0.52900
O 	O 	0.69344 0.15880 0.06250 -0.51300
O 	O 	0.77213 0.67560 0.19860 -0.41200
O 	O 	0.77833 0.57130 0.16766 -0.39000
O 	O 	0.76616 0.52520 0.95940 -0.53000
O 	O 	0.71504 0.58400 0.85800 -0.50100
O 	O 	0.76472 0.52850 0.34216 -0.62500
O 	O 	0.85901 0.56255 0.40551 -0.64500
O 	O 	0.81595 0.46618 0.29909 -0.62700
O 	O 	0.83585 0.43150 0.42858 -0.70100
O 	O 	0.70494 0.45360 0.20840 -0.53700
O 	O 	0.70654 0.56840 0.19710 -0.47700
Tb	Tb	0.89633 0.45427 0.41612 1.71200
Tb	Tb	0.79376 0.58256 0.28387 1.96000
Tb	Tb	0.82531 0.54063 0.46576 1.74900
Tb	Tb	0.76244 0.40508 0.31633 1.73600
C 	C 	0.44350 0.04850 0.57130 0.45600
C 	C 	0.49080 0.06930 0.64020 -0.19500
C 	C 	0.49890 0.13900 0.65910 0.11200
H 	H 	0.47450 0.17190 0.63070 -0.00600
C 	C 	0.54300 0.15890 0.71970 -0.18000
H 	H 	0.54920 0.20540 0.73360 0.09400
C 	C 	0.57810 0.10910 0.75980 0.10800
H 	H 	0.60870 0.12350 0.80000 -0.00300
C 	C 	0.52750 0.02150 0.68540 0.10800
C 	C 	0.52010 0.94400 0.67510 0.10000
C 	C 	0.47450 0.85140 0.66630 0.08900
H 	H 	0.44690 0.83470 0.66030 -0.00200
C 	C 	0.50670 0.80420 0.67400 -0.18000
H 	H 	0.50190 0.75670 0.67520 0.08400
C 	C 	0.54660 0.82810 0.67980 0.09900
H 	H 	0.56870 0.79670 0.68390 -0.00800
C 	C 	0.55350 0.89950 0.67960 -0.19600
C 	C 	0.59210 0.92540 0.67440 0.47900
C 	C 	0.34600 0.81600 0.31260 0.49900
C 	C 	0.34940 0.76080 0.27220 -0.21200
C 	C 	0.38970 0.71810 0.30610 0.14500
H 	H 	0.41640 0.72680 0.35300 -0.02400
C 	C 	0.39050 0.66330 0.27150 -0.21200
H 	H 	0.41720 0.63300 0.29450 0.10000
C 	C 	0.35200 0.65330 0.20320 0.12000
H 	H 	0.35270 0.61470 0.18030 -0.01100
C 	C 	0.31140 0.74910 0.20150 0.11000
C 	C 	0.26850 0.79740 0.15610 0.10100
C 	C 	0.24230 0.90660 0.11460 0.09300
H 	H 	0.24950 0.95370 0.11620 0.01500
C 	C 	0.19370 0.88650 0.06540 -0.17200
H 	H 	0.16930 0.91870 0.03490 0.09200
C 	C 	0.18320 0.81780 0.06370 0.10600
H 	H 	0.15110 0.80170 0.03160 -0.01000
C 	C 	0.22110 0.77220 0.11040 -0.19100
C 	C 	0.20920 0.69710 0.11480 0.50200
C 	C 	0.27720 0.13640 0.16120 0.34400
C 	C 	0.28920 0.16840 0.11660 -0.12700
C 	C 	0.33040 0.20990 0.15150 0.07400
H 	H 	0.34640 0.22190 0.19860 0.00700
C 	C 	0.34790 0.23330 0.11680 -0.15900
H 	H 	0.37590 0.26100 0.13980 0.08400
C 	C 	0.32320 0.21510 0.04840 0.09400
H 	H 	0.33600 0.22970 0.02560 -0.00900
C 	C 	0.26420 0.15440 0.04430 0.07500
C 	C 	0.21590 0.11870 0.00070 0.11500
C 	C 	0.14400 0.10100 0.98500 0.11800
H 	H 	0.12520 0.10680 0.00040 -0.00800
C 	C 	0.12490 0.06510 0.92470 -0.20100
H 	H 	0.09330 0.04670 0.89920 0.09500
C 	C 	0.15150 0.05580 0.90110 0.13000
H 	H 	0.13790 0.03220 0.85890 -0.01600
C 	C 	0.19860 0.08140 0.94000 -0.20300
C 	C 	0.22910 0.06300 0.91740 0.48200
C 	C 	0.18440 0.01130 0.18050 0.47800
C 	C 	0.12980 0.00910 0.12510 -0.20400
C 	C 	0.10210 0.06820 0.09860 0.10300
H 	H 	0.11740 0.11150 0.11420 0.00300
C 	C 	0.05170 0.06480 0.04930 -0.15700
H 	H 	0.03380 0.10600 0.03120 0.07500
C 	C 	0.02760 0.00280 0.02620 0.06200
C 	C 	0.05610 0.94350 0.04840 -0.15300
H 	H 	0.04110 0.90050 0.02950 0.07500
C 	C 	0.10710 0.94700 0.09890 0.10400
H 	H 	0.12570 0.90620 0.11450 -0.00700
N 	N 	0.57106 0.04120 0.74490 -0.14300
N 	N 	0.47997 0.92110 0.66680 -0.14500
N 	N 	0.31240 0.69540 0.16570 -0.15000
N 	N 	0.27940 0.86470 0.15950 -0.14600
N 	N 	0.18910 0.12820 0.02300 -0.14500
N 	N 	0.28200 0.17780 0.01120 -0.14700
O 	O 	0.40538 0.07940 0.55380 -0.50600
O 	O 	0.44508 0.00320 0.53451 -0.51700
O 	O 	0.58081 0.98010 0.63780 -0.53100
O 	O 	0.63147 0.89270 0.70390 -0.47800
O 	O 	0.38367 0.85160 0.35540 -0.52900
O 	O 	0.30546 0.82230 0.30170 -0.51700
O 	O 	0.21628 0.68070 0.17040 -0.52900
O 	O 	0.19344 0.65880 0.06250 -0.51300
O 	O 	0.27213 0.17560 0.19860 -0.41200
O 	O 	0.27833 0.07130 0.16766 -0.39000
O 	O 	0.26616 0.02520 0.95940 -0.52800
O 	O 	0.21504 0.08400 0.85800 -0.50100
O 	O 	0.26472 0.02850 0.34216 -0.62500
O 	O 	0.35901 0.06255 0.40551 -0.64500
O 	O 	0.31595 0.96618 0.29909 -0.62600
O 	O 	0.33585 0.93150 0.42858 -0.70100
O 	O 	0.20494 0.95360 0.20840 -0.53600
O 	O 	0.20654 0.06840 0.19710 -0.47700
Tb	Tb	0.39633 0.95427 0.41612 1.71300
Tb	Tb	0.29376 0.08256 0.28387 1.95900
Tb	Tb	0.32531 0.04063 0.46577 1.74900
Tb	Tb	0.26244 0.90508 0.31633 1.73600
