data_crystal

_cell_length_a 25.50200
_cell_length_b 25.50200
_cell_length_c 50.46900
_cell_angle_alpha 90.00000
_cell_angle_beta  90.00000
_cell_angle_gamma 90.00000

_symmetry_space_group_name_	'P 1'
_symmetry_space_group_name_H-M	'P 1'

loop_
_symmetry_equiv_pos_as_xyz
  x,y,z

loop_
_atom_site_label
_atom_site_type_symbol
_atom_site_fract_x
_atom_site_fract_y
_atom_site_fract_z
_atom_site_charge
O 	O 	0.04370 0.03910 0.12815 -0.99800
Zn	Zn	0.00534 0.99588 0.10254 1.21300
Zn	Zn	0.09023 0.50034 0.08396 1.23500
Zn	Zn	0.58904 0.92384 0.11431 1.21100
Zn	Zn	0.99774 0.57689 0.09562 1.20900
Zn	Zn	0.07732 0.99186 0.15241 1.17100
Zn	Zn	0.09810 0.07209 0.10779 1.20800
Zn	Zn	0.00916 0.48154 0.13226 1.21700
Zn	Zn	0.99316 0.08850 0.14271 1.23200
O 	O 	0.92710 0.13330 0.14660 -0.43500
C 	C 	0.92150 0.17260 0.16130 0.25400
H 	H 	0.95150 0.18990 0.16810 0.02400
N 	N 	0.87320 0.19040 0.16740 0.00000
C 	C 	0.82860 0.16810 0.15450 0.52000
H 	H 	0.79710 0.18760 0.15960 -0.01800
H 	H 	0.82480 0.13140 0.15980 -0.15400
H 	H 	0.83330 0.17000 0.13530 -0.12200
C 	C 	0.86010 0.23180 0.18370 0.50100
H 	H 	0.82220 0.23790 0.18280 -0.18100
H 	H 	0.87870 0.26340 0.17790 -0.15000
H 	H 	0.87010 0.22340 0.20200 0.49700
C 	C 	0.05240 0.39620 0.09920 0.38100
O 	O 	0.01660 0.41630 0.11380 -0.50300
O 	O 	0.08130 0.42170 0.08408 -0.45400
C 	C 	0.06480 0.17290 0.11760 0.43700
O 	O 	0.03230 0.15450 0.13240 -0.53100
O 	O 	0.10030 0.14680 0.10700 -0.52800
C 	C 	0.05790 0.33830 0.10170 -0.11000
C 	C 	0.01290 0.30860 0.10630 -0.01900
H 	H 	0.97950 0.32490 0.10540 0.04500
C 	C 	0.01610 0.25620 0.11210 -0.00100
H 	H 	0.98520 0.23730 0.11640 0.03500
C 	C 	0.06450 0.23020 0.11160 -0.13700
C 	C 	0.11040 0.25850 0.10660 0.05600
C 	C 	0.10580 0.31220 0.09990 0.04000
C 	C 	0.16700 0.23940 0.10759 -0.10400
H 	H 	0.16970 0.20130 0.11200 0.07200
C 	C 	0.15910 0.33780 0.09576 -0.09500
H 	H 	0.15640 0.37580 0.09100 0.07700
C 	C 	0.19550 0.27460 0.12790 0.02900
C 	C 	0.19130 0.32870 0.12060 0.02400
C 	C 	0.21640 0.36830 0.13510 -0.07800
H 	H 	0.21490 0.40430 0.13030 0.06200
C 	C 	0.24460 0.34900 0.15780 -0.03600
H 	H 	0.26370 0.37340 0.16820 0.04400
C 	C 	0.24540 0.30040 0.16460 -0.02700
H 	H 	0.26320 0.29060 0.18040 0.03000
C 	C 	0.22070 0.26170 0.14950 -0.08800
H 	H 	0.22230 0.22600 0.15480 0.04700
C 	C 	0.18980 0.25210 0.08080 0.03600
C 	C 	0.18460 0.30600 0.07450 0.02400
C 	C 	0.20280 0.32330 0.04990 -0.06900
H 	H 	0.19940 0.35900 0.04480 0.05100
C 	C 	0.22670 0.28600 0.03260 -0.04100
H 	H 	0.23930 0.29680 0.01580 0.03800
C 	C 	0.23130 0.23560 0.04010 -0.01500
H 	H 	0.24660 0.21110 0.02820 0.03400
C 	C 	0.21450 0.21880 0.06430 -0.08700
H 	H 	0.22020 0.18350 0.06950 0.05700
C 	C 	0.68300 0.97560 0.12920 0.35800
O 	O 	0.66050 0.00310 0.14680 -0.46000
O 	O 	0.66420 0.93650 0.11713 -0.48900
C 	C 	0.90550 0.01400 0.11800 0.45800
O 	O 	0.92780 0.03890 0.13370 -0.52300
O 	O 	0.92950 0.98690 0.10080 -0.49800
C 	C 	0.73920 0.98770 0.12446 -0.10200
C 	C 	0.77100 0.00270 0.14560 -0.02100
H 	H 	0.75520 0.00670 0.16250 0.04600
C 	C 	0.82200 0.01180 0.14340 0.00800
H 	H 	0.84180 0.02060 0.15870 0.04300
C 	C 	0.84700 0.00860 0.11850 -0.13800
C 	C 	0.81620 0.99600 0.09640 0.05600
C 	C 	0.76250 0.98380 0.09986 0.03600
C 	C 	0.83400 0.99190 0.06742 -0.10600
H 	H 	0.87240 0.99840 0.06510 0.07400
C 	C 	0.73540 0.97390 0.07295 -0.09000
H 	H 	0.69710 0.96680 0.07510 0.06700
C 	C 	0.79910 0.03180 0.05190 0.03200
C 	C 	0.74500 0.01970 0.05520 0.02200
C 	C 	0.70580 0.05090 0.04350 -0.07500
H 	H 	0.66940 0.04540 0.04640 0.04900
C 	C 	0.72540 0.09130 0.02670 -0.03200
H 	H 	0.70080 0.11340 0.01810 0.03000
C 	C 	0.77490 0.09970 0.02250 -0.02500
H 	H 	0.78550 0.12630 0.01050 0.03300
C 	C 	0.81250 0.06960 0.03570 -0.08500
H 	H 	0.84860 0.07680 0.03290 0.05600
C 	C 	0.81770 0.93810 0.05844 0.04100
C 	C 	0.76330 0.92850 0.06120 0.02400
C 	C 	0.74330 0.87950 0.05410 -0.06500
H 	H 	0.70790 0.87050 0.05780 0.05800
C 	C 	0.77820 0.84230 0.04080 -0.04100
H 	H 	0.76560 0.80980 0.03430 0.04300
C 	C 	0.82790 0.85570 0.03810 -0.01400
H 	H 	0.85070 0.83150 0.02970 0.03700
C 	C 	0.84910 0.90280 0.04690 -0.08600
H 	H 	0.88540 0.90980 0.04470 0.06000
C 	C 	0.00280 0.54110 0.04489 0.39100
O 	O 	0.98380 0.57960 0.05738 -0.48000
O 	O 	0.02330 0.50520 0.05710 -0.46800
C 	C 	0.96900 0.54450 0.93211 0.44400
O 	O 	0.94240 0.58040 0.92374 -0.51200
O 	O 	0.99520 0.51340 0.91880 -0.54500
C 	C 	0.99280 0.53670 0.01597 -0.11700
C 	C 	0.97480 0.58290 0.00311 -0.02300
H 	H 	0.96650 0.61320 0.01320 0.04800
C 	C 	0.96970 0.58330 0.97674 0.00800
H 	H 	0.96330 0.61580 0.96810 0.03600
C 	C 	0.97320 0.53870 0.96162 -0.13300
C 	C 	0.99010 0.49210 0.97357 0.05200
C 	C 	0.99930 0.49180 0.00119 0.05100
C 	C 	0.99760 0.43800 0.96110 -0.09600
H 	H 	0.99080 0.43800 0.94160 0.07500
C 	C 	0.01560 0.43720 0.01060 -0.10900
H 	H 	0.02220 0.43670 0.03010 0.08800
C 	C 	0.96160 0.39970 0.97640 0.02400
C 	C 	0.97300 0.39950 0.00310 0.03700
C 	C 	0.94920 0.36340 0.02020 -0.08300
H 	H 	0.95700 0.36080 0.03860 0.06100
C 	C 	0.91180 0.33080 0.00690 -0.02000
H 	H 	0.89780 0.30230 0.01670 0.03400
C 	C 	0.89540 0.33650 0.98300 -0.03300
H 	H 	0.86350 0.32190 0.97670 0.03700
C 	C 	0.92800 0.36530 0.96770 -0.07200
H 	H 	0.92620 0.36000 0.94910 0.05500
C 	C 	0.05260 0.42340 0.96780 0.02800
C 	C 	0.06230 0.42200 0.99570 0.03700
C 	C 	0.11110 0.40740 0.00480 -0.08300
H 	H 	0.11830 0.40460 0.02320 0.07100
C 	C 	0.15010 0.39670 0.98560 -0.02800
H 	H 	0.18560 0.39330 0.99100 0.03800
C 	C 	0.13800 0.39120 0.95980 -0.03100
H 	H 	0.16270 0.37630 0.94790 0.04200
C 	C 	0.08970 0.40720 0.95080 -0.08000
H 	H 	0.08250 0.40670 0.93230 0.05800
C 	C 	0.03410 0.67120 0.12160 0.39400
O 	O 	0.06960 0.64910 0.13500 -0.51600
O 	O 	0.00260 0.64930 0.10600 -0.51900
C 	C 	0.04250 0.89810 0.12580 0.37100
O 	O 	0.05950 0.91740 0.14622 -0.36500
O 	O 	0.03410 0.92280 0.10462 -0.47600
C 	C 	0.03000 0.73000 0.12280 -0.11600
C 	C 	0.06790 0.75650 0.13810 0.00400
H 	H 	0.09230 0.73590 0.14780 0.04600
C 	C 	0.07160 0.80870 0.13980 -0.02100
H 	H 	0.09750 0.82470 0.15070 0.06300
C 	C 	0.03570 0.83940 0.12500 -0.07200
C 	C 	0.99690 0.81620 0.10950 0.03200
C 	C 	0.99410 0.76030 0.10950 0.06100
C 	C 	0.95670 0.84240 0.09170 -0.08400
H 	H 	0.96190 0.88120 0.09040 0.06800
C 	C 	0.94570 0.74320 0.09410 -0.10600
H 	H 	0.94090 0.70430 0.09500 0.08000
C 	C 	0.90170 0.82730 0.10310 0.03000
C 	C 	0.89870 0.77140 0.10510 0.03700
C 	C 	0.85440 0.74820 0.11600 -0.08300
H 	H 	0.84960 0.71130 0.11700 0.06200
C 	C 	0.81720 0.78480 0.12550 -0.01600
H 	H 	0.78940 0.77130 0.13610 0.03500
C 	C 	0.81720 0.83510 0.12130 -0.03100
H 	H 	0.78710 0.85590 0.12480 0.04500
C 	C 	0.86340 0.85760 0.11120 -0.07000
H 	H 	0.86680 0.89460 0.11020 0.07100
C 	C 	0.96240 0.81560 0.06540 0.02700
C 	C 	0.95260 0.76090 0.06640 0.03500
C 	C 	0.95680 0.73380 0.04280 -0.08100
H 	H 	0.95290 0.69680 0.04260 0.06000
C 	C 	0.96690 0.76160 0.01890 -0.02700
H 	H 	0.96460 0.74390 0.00240 0.04200
C 	C 	0.97960 0.81250 0.01950 -0.02700
H 	H 	0.99460 0.82880 0.00440 0.04000
C 	C 	0.97100 0.84080 0.04190 -0.07200
H 	H 	0.97110 0.87800 0.04120 0.05400
C 	C 	0.40720 0.98340 0.13170 0.39700
O 	O 	0.43250 0.01820 0.11946 -0.48300
O 	O 	0.42610 0.94440 0.14309 -0.50200
C 	C 	0.18280 0.01520 0.13210 0.41600
O 	O 	0.16810 0.04950 0.11671 -0.54200
O 	O 	0.15270 0.98830 0.14640 -0.57300
C 	C 	0.34910 0.98980 0.13290 -0.10800
C 	C 	0.32330 0.01170 0.11100 -0.01800
H 	H 	0.34310 0.02210 0.09600 0.04300
C 	C 	0.27130 0.01820 0.11100 0.00200
H 	H 	0.25460 0.03170 0.09560 0.03900
C 	C 	0.24110 0.00540 0.13320 -0.13000
C 	C 	0.26420 0.98250 0.15545 0.04800
C 	C 	0.31960 0.97410 0.15460 0.05100
C 	C 	0.23930 0.96310 0.18050 -0.09100
H 	H 	0.20030 0.96660 0.18040 0.05400
C 	C 	0.33900 0.95220 0.18060 -0.10500
H 	H 	0.37790 0.94770 0.18050 0.07800
C 	C 	0.26530 0.99400 0.20370 0.01000
C 	C 	0.32170 0.98900 0.20220 0.04500
C 	C 	0.35300 0.01550 0.22050 -0.09200
H 	H 	0.39020 0.01380 0.21990 0.06800
C 	C 	0.32600 0.04520 0.24000 -0.00600
H 	H 	0.34590 0.06060 0.25390 0.03700
C 	C 	0.27570 0.05240 0.23990 -0.05100
H 	H 	0.25970 0.07500 0.25250 0.04400
C 	C 	0.24500 0.02600 0.22070 -0.05400
H 	H 	0.20830 0.03200 0.22030 0.01700
C 	C 	0.25710 0.90700 0.18360 0.03900
C 	C 	0.31200 0.90160 0.18450 0.03400
C 	C 	0.33240 0.85240 0.18640 -0.06800
H 	H 	0.36940 0.84810 0.18680 0.05700
C 	C 	0.29900 0.80650 0.18810 -0.04000
H 	H 	0.31330 0.77220 0.18860 0.04600
C 	C 	0.24660 0.81450 0.18890 -0.01000
H 	H 	0.22360 0.78530 0.19020 0.03600
C 	C 	0.22630 0.86460 0.18800 -0.08400
H 	H 	0.18970 0.86950 0.19040 0.07600
C 	C 	0.05730 0.03950 0.05670 0.42100
O 	O 	0.01810 0.01240 0.06578 -0.50700
O 	O 	0.09260 0.05650 0.06963 -0.52900
C 	C 	0.05190 0.04940 0.02840 -0.12700
C 	C 	0.02000 0.01530 0.01310 -0.01200
H 	H 	0.00120 0.98820 0.02180 0.05100
C 	C 	0.08560 0.08270 0.01340 0.04800
C 	C 	0.12500 0.12170 0.02550 -0.09100
H 	H 	0.12620 0.12020 0.04530 0.07500
C 	C 	0.17840 0.10780 0.01231 0.02900
C 	C 	0.22180 0.09100 0.02660 -0.07400
H 	H 	0.22160 0.08870 0.04530 0.05700
C 	C 	0.10610 0.17690 0.01460 0.02700
C 	C 	0.09610 0.21900 0.02970 -0.07300
H 	H 	0.09780 0.21760 0.04850 0.06300
C 	C 	0.26520 0.07800 0.01170 -0.02600
H 	H 	0.29560 0.06530 0.02050 0.04200
C 	C 	0.08270 0.26630 0.01580 -0.03000
H 	H 	0.07720 0.29800 0.02520 0.04600
O 	O 	0.04840 0.53230 0.11246 -0.96100
O 	O 	0.06180 0.00830 0.18670 4.35100
C 	C 	0.01180 0.02960 0.22270 0.66900
C 	C 	0.02080 0.03660 0.19400 1.42100
O 	O 	0.99970 0.07050 0.18190 -1.33400
C 	C 	0.00900 0.96700 0.23590 0.47200
C 	C 	0.93770 0.10100 0.22900 -0.09300
H 	H 	0.94290 0.11490 0.21060 0.05500
C 	C 	0.89150 0.06130 0.22990 0.11300
C 	C 	0.84960 0.07400 0.21390 0.58000
H 	H 	0.85340 0.08840 0.19670 -0.17500
C 	C 	0.80110 0.06200 0.22510 -0.78700
C 	C 	0.95300 0.03890 0.23410 0.26500
C 	C 	0.96000 0.17830 0.23450 1.09700
H 	H 	0.96800 0.17840 0.21620 -0.34500
C 	C 	0.96400 0.22430 0.24900 -0.50000
C 	C 	0.94300 0.13270 0.24610 0.18900
C 	C 	0.92310 0.08920 0.22590 -0.06600
C 	C 	0.98580 0.06840 0.23800 -0.34300
H 	H 	0.92830 0.09900 0.20690 0.04000
O 	O 	0.95200 0.14910 0.16180 -0.26400
C 	C 	0.90640 0.15720 0.15400 0.13100
H 	H 	0.89270 0.13380 0.14110 0.14200
N 	N 	0.87520 0.19560 0.16210 -0.23200
C 	C 	0.89900 0.23400 0.17990 0.08500
H 	H 	0.93580 0.22400 0.18310 0.00900
H 	H 	0.88010 0.23440 0.19670 -0.69300
H 	H 	0.89790 0.26870 0.17170 0.08900
C 	C 	0.82700 0.21130 0.15380 -0.73600
H 	H 	0.81800 0.24470 0.16230 0.27300
H 	H 	0.80100 0.18470 0.15870 0.06900
H 	H 	0.82730 0.21580 0.13450 0.24900
O 	O 	0.10990 0.51920 0.04830 -0.33200
C 	C 	0.15670 0.52700 0.04370 -0.02900
H 	H 	0.18080 0.52300 0.05790 0.19100
N 	N 	0.17600 0.54070 0.01980 -0.33000
C 	C 	0.13950 0.54990 0.99830 -0.23400
H 	H 	0.15750 0.56840 0.98390 -0.08100
H 	H 	0.11020 0.57140 0.00470 0.09300
H 	H 	0.12610 0.51630 0.99180 0.25700
C 	C 	0.22680 0.54540 0.01280 0.09200
H 	H 	0.22930 0.55150 0.99370 -0.00800
H 	H 	0.24550 0.51310 0.01740 -0.02100
H 	H 	0.24240 0.57500 0.02240 -0.02000
O 	O 	0.14870 0.50610 0.05740 -0.43700
C 	C 	0.14520 0.50700 0.03290 0.48500
H 	H 	0.13340 0.47560 0.02480 -0.11800
N 	N 	0.15570 0.54700 0.01620 0.20200
C 	C 	0.14900 0.53800 0.98810 -0.12800
H 	H 	0.15260 0.57100 0.97850 0.19000
H 	H 	0.11360 0.52350 0.98490 -0.12700
H 	H 	0.17520 0.51280 0.98180 0.05300
C 	C 	0.16900 0.59700 0.02190 -0.25300
H 	H 	0.17360 0.61670 0.00540 0.09400
H 	H 	0.20180 0.59750 0.03200 0.10500
H 	H 	0.14110 0.61330 0.03240 0.08400
C 	C 	0.01040 0.02160 0.19410 -1.29200
O 	O 	0.05050 0.99130 0.18780 -4.75300
O 	O 	0.98460 0.04790 0.17940 0.78300
H 	H 	0.00630 0.93140 0.23070 0.02200
C 	C 	0.99400 0.01150 0.22170 -0.48800
C 	C 	0.04720 0.00470 0.23910 -0.42100
C 	C 	0.86540 0.07000 0.23230 -0.28800
H 	H 	0.78130 0.08710 0.21540 0.15100
C 	C 	0.82740 0.06600 0.21450 -0.05100
H 	H 	0.83280 0.07630 0.19660 0.00400
C 	C 	0.93950 0.14740 0.25040 -0.19000
C 	C 	0.94350 0.19680 0.24200 -0.74000
C 	C 	0.95700 0.23820 0.26100 0.56000
H 	H 	0.97510 0.25590 0.24060 0.14200
C 	C 	0.77640 0.04700 0.22370 0.61500
H 	H 	0.72750 0.02860 0.23760 -0.17700
H 	H 	0.93760 0.20520 0.22390 0.10000
H 	H 	0.74700 0.04170 0.21240 -0.21700
O 	O 	0.95630 0.96090 0.62815 -0.99900
Zn	Zn	0.99466 0.00412 0.60254 1.21100
Zn	Zn	0.90977 0.49966 0.58396 1.23400
Zn	Zn	0.41096 0.07616 0.61431 1.21000
Zn	Zn	0.00226 0.42311 0.59562 1.20800
Zn	Zn	0.92268 0.00814 0.65241 1.17000
Zn	Zn	0.90190 0.92791 0.60779 1.20700
Zn	Zn	0.99084 0.51846 0.63226 1.21600
Zn	Zn	0.00684 0.91150 0.64271 1.23100
O 	O 	0.07290 0.86670 0.64660 -0.43600
C 	C 	0.07850 0.82740 0.66130 0.25300
H 	H 	0.04850 0.81010 0.66810 0.02300
N 	N 	0.12680 0.80960 0.66740 -0.00100
C 	C 	0.17140 0.83190 0.65450 0.51900
H 	H 	0.20290 0.81240 0.65960 -0.01800
H 	H 	0.17520 0.86860 0.65980 -0.15400
H 	H 	0.16670 0.83000 0.63530 -0.12200
C 	C 	0.13990 0.76820 0.68370 0.50100
H 	H 	0.17780 0.76210 0.68280 -0.18100
H 	H 	0.12130 0.73660 0.67790 -0.15000
H 	H 	0.12990 0.77660 0.70200 0.49700
C 	C 	0.94760 0.60380 0.59920 0.38100
O 	O 	0.98340 0.58370 0.61380 -0.50300
O 	O 	0.91870 0.57830 0.58408 -0.45400
C 	C 	0.93520 0.82710 0.61760 0.43700
O 	O 	0.96770 0.84550 0.63240 -0.53100
O 	O 	0.89970 0.85320 0.60700 -0.52800
C 	C 	0.94210 0.66170 0.60170 -0.11000
C 	C 	0.98710 0.69140 0.60630 -0.01900
H 	H 	0.02050 0.67510 0.60540 0.04500
C 	C 	0.98390 0.74380 0.61210 -0.00100
H 	H 	0.01480 0.76270 0.61640 0.03500
C 	C 	0.93550 0.76980 0.61160 -0.13700
C 	C 	0.88960 0.74150 0.60660 0.05600
C 	C 	0.89420 0.68780 0.59990 0.04000
C 	C 	0.83300 0.76060 0.60759 -0.10400
H 	H 	0.83030 0.79870 0.61200 0.07200
C 	C 	0.84090 0.66220 0.59576 -0.09500
H 	H 	0.84360 0.62420 0.59100 0.07700
C 	C 	0.80450 0.72540 0.62790 0.02900
C 	C 	0.80870 0.67130 0.62060 0.02400
C 	C 	0.78360 0.63170 0.63510 -0.07800
H 	H 	0.78510 0.59570 0.63030 0.06200
C 	C 	0.75540 0.65100 0.65780 -0.03600
H 	H 	0.73630 0.62660 0.66820 0.04400
C 	C 	0.75460 0.69960 0.66460 -0.02700
H 	H 	0.73680 0.70940 0.68040 0.03000
C 	C 	0.77930 0.73830 0.64950 -0.08800
H 	H 	0.77770 0.77400 0.65480 0.04700
C 	C 	0.81020 0.74790 0.58080 0.03600
C 	C 	0.81540 0.69400 0.57450 0.02400
C 	C 	0.79720 0.67670 0.54990 -0.06900
H 	H 	0.80060 0.64100 0.54480 0.05100
C 	C 	0.77330 0.71400 0.53260 -0.04100
H 	H 	0.76070 0.70320 0.51580 0.03800
C 	C 	0.76870 0.76440 0.54010 -0.01500
H 	H 	0.75340 0.78890 0.52820 0.03400
C 	C 	0.78550 0.78120 0.56430 -0.08700
H 	H 	0.77980 0.81650 0.56950 0.05700
C 	C 	0.31700 0.02440 0.62920 0.35800
O 	O 	0.33950 0.99690 0.64680 -0.46000
O 	O 	0.33580 0.06350 0.61713 -0.48900
C 	C 	0.09450 0.98600 0.61800 0.45800
O 	O 	0.07220 0.96110 0.63370 -0.52300
O 	O 	0.07050 0.01310 0.60080 -0.49800
C 	C 	0.26080 0.01230 0.62446 -0.10200
C 	C 	0.22900 0.99730 0.64560 -0.02100
H 	H 	0.24480 0.99330 0.66250 0.04600
C 	C 	0.17800 0.98820 0.64340 0.00800
H 	H 	0.15820 0.97940 0.65870 0.04300
C 	C 	0.15300 0.99140 0.61850 -0.13800
C 	C 	0.18380 0.00400 0.59640 0.05600
C 	C 	0.23750 0.01620 0.59986 0.03600
C 	C 	0.16600 0.00810 0.56742 -0.10600
H 	H 	0.12760 0.00160 0.56510 0.07400
C 	C 	0.26460 0.02610 0.57295 -0.09000
H 	H 	0.30290 0.03320 0.57510 0.06700
C 	C 	0.20090 0.96820 0.55190 0.03200
C 	C 	0.25500 0.98030 0.55520 0.02200
C 	C 	0.29420 0.94910 0.54350 -0.07500
H 	H 	0.33060 0.95460 0.54640 0.04900
C 	C 	0.27460 0.90870 0.52670 -0.03200
H 	H 	0.29920 0.88660 0.51810 0.03000
C 	C 	0.22510 0.90030 0.52250 -0.02500
H 	H 	0.21450 0.87370 0.51050 0.03300
C 	C 	0.18750 0.93040 0.53570 -0.08500
H 	H 	0.15140 0.92320 0.53290 0.05600
C 	C 	0.18230 0.06190 0.55844 0.04100
C 	C 	0.23670 0.07150 0.56120 0.02400
C 	C 	0.25670 0.12050 0.55410 -0.06500
H 	H 	0.29210 0.12950 0.55780 0.05800
C 	C 	0.22180 0.15770 0.54080 -0.04100
H 	H 	0.23440 0.19020 0.53430 0.04300
C 	C 	0.17210 0.14430 0.53810 -0.01400
H 	H 	0.14930 0.16850 0.52970 0.03700
C 	C 	0.15090 0.09720 0.54690 -0.08600
H 	H 	0.11460 0.09020 0.54470 0.06000
C 	C 	0.99720 0.45890 0.54489 0.39100
O 	O 	0.01620 0.42040 0.55738 -0.48000
O 	O 	0.97670 0.49480 0.55710 -0.46800
C 	C 	0.03100 0.45550 0.43211 0.44400
O 	O 	0.05760 0.41960 0.42374 -0.51200
O 	O 	0.00480 0.48660 0.41880 -0.54500
C 	C 	0.00720 0.46330 0.51597 -0.11700
C 	C 	0.02520 0.41710 0.50311 -0.02300
H 	H 	0.03350 0.38680 0.51320 0.04800
C 	C 	0.03030 0.41670 0.47674 0.00800
H 	H 	0.03670 0.38420 0.46810 0.03600
C 	C 	0.02680 0.46130 0.46162 -0.13300
C 	C 	0.00990 0.50790 0.47357 0.05200
C 	C 	0.00070 0.50820 0.50119 0.05100
C 	C 	0.00240 0.56200 0.46110 -0.09600
H 	H 	0.00920 0.56200 0.44160 0.07500
C 	C 	0.98440 0.56280 0.51060 -0.10900
H 	H 	0.97780 0.56330 0.53010 0.08800
C 	C 	0.03840 0.60030 0.47640 0.02400
C 	C 	0.02700 0.60050 0.50310 0.03700
C 	C 	0.05080 0.63660 0.52020 -0.08300
H 	H 	0.04300 0.63920 0.53860 0.06100
C 	C 	0.08820 0.66920 0.50690 -0.02000
H 	H 	0.10220 0.69770 0.51670 0.03400
C 	C 	0.10460 0.66350 0.48300 -0.03400
H 	H 	0.13650 0.67810 0.47670 0.03700
C 	C 	0.07200 0.63470 0.46770 -0.07200
H 	H 	0.07380 0.64000 0.44910 0.05500
C 	C 	0.94740 0.57660 0.46780 0.02800
C 	C 	0.93770 0.57800 0.49570 0.03700
C 	C 	0.88890 0.59260 0.50480 -0.08400
H 	H 	0.88170 0.59540 0.52320 0.07100
C 	C 	0.84990 0.60330 0.48560 -0.02700
H 	H 	0.81440 0.60670 0.49100 0.03800
C 	C 	0.86200 0.60880 0.45980 -0.03100
H 	H 	0.83730 0.62370 0.44790 0.04200
C 	C 	0.91030 0.59280 0.45080 -0.08000
H 	H 	0.91750 0.59330 0.43230 0.05800
C 	C 	0.96590 0.32880 0.62160 0.39400
O 	O 	0.93040 0.35090 0.63500 -0.51600
O 	O 	0.99740 0.35070 0.60600 -0.51900
C 	C 	0.95750 0.10190 0.62580 0.37100
O 	O 	0.94050 0.08260 0.64622 -0.36500
O 	O 	0.96590 0.07720 0.60462 -0.47600
C 	C 	0.97000 0.27000 0.62280 -0.11600
C 	C 	0.93210 0.24350 0.63810 0.00400
H 	H 	0.90770 0.26410 0.64780 0.04600
C 	C 	0.92840 0.19130 0.63980 -0.02100
H 	H 	0.90250 0.17530 0.65070 0.06300
C 	C 	0.96430 0.16060 0.62500 -0.07200
C 	C 	0.00310 0.18380 0.60950 0.03200
C 	C 	0.00590 0.23970 0.60950 0.06100
C 	C 	0.04330 0.15760 0.59170 -0.08400
H 	H 	0.03810 0.11880 0.59040 0.06800
C 	C 	0.05430 0.25680 0.59410 -0.10600
H 	H 	0.05910 0.29570 0.59500 0.08000
C 	C 	0.09830 0.17270 0.60310 0.03000
C 	C 	0.10130 0.22860 0.60510 0.03700
C 	C 	0.14560 0.25180 0.61600 -0.08300
H 	H 	0.15040 0.28870 0.61700 0.06200
C 	C 	0.18280 0.21520 0.62550 -0.01600
H 	H 	0.21060 0.22870 0.63610 0.03500
C 	C 	0.18280 0.16490 0.62130 -0.03100
H 	H 	0.21290 0.14410 0.62480 0.04500
C 	C 	0.13660 0.14240 0.61120 -0.07000
H 	H 	0.13320 0.10540 0.61020 0.07100
C 	C 	0.03760 0.18440 0.56540 0.02700
C 	C 	0.04740 0.23910 0.56640 0.03500
C 	C 	0.04320 0.26620 0.54280 -0.08100
H 	H 	0.04710 0.30320 0.54260 0.06000
C 	C 	0.03310 0.23840 0.51890 -0.02700
H 	H 	0.03540 0.25610 0.50240 0.04200
C 	C 	0.02040 0.18750 0.51950 -0.02700
H 	H 	0.00540 0.17120 0.50440 0.04000
C 	C 	0.02900 0.15920 0.54190 -0.07200
H 	H 	0.02890 0.12200 0.54120 0.05400
C 	C 	0.59280 0.01660 0.63170 0.39700
O 	O 	0.56750 0.98180 0.61946 -0.48300
O 	O 	0.57390 0.05560 0.64309 -0.50200
C 	C 	0.81720 0.98480 0.63210 0.41600
O 	O 	0.83190 0.95050 0.61671 -0.54200
O 	O 	0.84730 0.01170 0.64640 -0.57300
C 	C 	0.65090 0.01020 0.63290 -0.10800
C 	C 	0.67670 0.98830 0.61100 -0.01800
H 	H 	0.65690 0.97790 0.59600 0.04300
C 	C 	0.72870 0.98180 0.61100 0.00200
H 	H 	0.74540 0.96830 0.59560 0.03900
C 	C 	0.75890 0.99460 0.63320 -0.13000
C 	C 	0.73580 0.01750 0.65545 0.04800
C 	C 	0.68040 0.02590 0.65460 0.05100
C 	C 	0.76070 0.03690 0.68050 -0.09100
H 	H 	0.79970 0.03340 0.68040 0.05400
C 	C 	0.66100 0.04780 0.68060 -0.10500
H 	H 	0.62210 0.05230 0.68050 0.07800
C 	C 	0.73470 0.00600 0.70370 0.01000
C 	C 	0.67830 0.01100 0.70220 0.04500
C 	C 	0.64700 0.98450 0.72050 -0.09200
H 	H 	0.60980 0.98620 0.71990 0.06800
C 	C 	0.67400 0.95480 0.74000 -0.00600
H 	H 	0.65410 0.93940 0.75390 0.03700
C 	C 	0.72430 0.94760 0.73990 -0.05100
H 	H 	0.74030 0.92500 0.75250 0.04400
C 	C 	0.75500 0.97400 0.72070 -0.05400
H 	H 	0.79170 0.96800 0.72030 0.01700
C 	C 	0.74290 0.09300 0.68360 0.03900
C 	C 	0.68800 0.09840 0.68450 0.03400
C 	C 	0.66760 0.14760 0.68640 -0.06800
H 	H 	0.63060 0.15190 0.68680 0.05700
C 	C 	0.70100 0.19350 0.68810 -0.04000
H 	H 	0.68670 0.22780 0.68860 0.04600
C 	C 	0.75340 0.18550 0.68890 -0.01000
H 	H 	0.77640 0.21470 0.69020 0.03600
C 	C 	0.77370 0.13540 0.68800 -0.08400
H 	H 	0.81030 0.13050 0.69040 0.07600
C 	C 	0.94270 0.96050 0.55670 0.42100
O 	O 	0.98190 0.98760 0.56578 -0.50700
O 	O 	0.90740 0.94350 0.56963 -0.52900
C 	C 	0.94810 0.95060 0.52840 -0.12700
C 	C 	0.98000 0.98470 0.51310 -0.01200
H 	H 	0.99880 0.01180 0.52180 0.05100
C 	C 	0.91440 0.91730 0.51340 0.04800
C 	C 	0.87500 0.87830 0.52550 -0.09100
H 	H 	0.87380 0.87980 0.54530 0.07500
C 	C 	0.82160 0.89220 0.51231 0.02900
C 	C 	0.77820 0.90900 0.52660 -0.07400
H 	H 	0.77840 0.91130 0.54530 0.05700
C 	C 	0.89390 0.82310 0.51460 0.02700
C 	C 	0.90390 0.78100 0.52970 -0.07300
H 	H 	0.90220 0.78240 0.54850 0.06300
C 	C 	0.73480 0.92200 0.51170 -0.02600
H 	H 	0.70440 0.93470 0.52050 0.04200
C 	C 	0.91730 0.73370 0.51580 -0.03000
H 	H 	0.92280 0.70200 0.52520 0.04600
O 	O 	0.95160 0.46770 0.61246 -0.96100
O 	O 	0.93820 0.99170 0.68670 4.35100
C 	C 	0.98820 0.97040 0.72270 0.66900
C 	C 	0.97920 0.96340 0.69400 1.42100
O 	O 	0.00030 0.92950 0.68190 -1.33400
C 	C 	0.99100 0.03300 0.73590 0.47200
C 	C 	0.06230 0.89900 0.72900 -0.09400
H 	H 	0.05710 0.88510 0.71060 0.05500
C 	C 	0.10850 0.93870 0.72990 0.11300
C 	C 	0.15040 0.92600 0.71390 0.58000
H 	H 	0.14660 0.91160 0.69670 -0.17500
C 	C 	0.19890 0.93800 0.72510 -0.78700
C 	C 	0.04700 0.96110 0.73410 0.26500
C 	C 	0.04000 0.82170 0.73450 1.09700
H 	H 	0.03200 0.82160 0.71620 -0.34500
C 	C 	0.03600 0.77570 0.74900 -0.50000
C 	C 	0.05700 0.86730 0.74610 0.18900
C 	C 	0.07690 0.91080 0.72590 -0.06600
C 	C 	0.01420 0.93160 0.73800 -0.34300
H 	H 	0.07170 0.90100 0.70690 0.04000
O 	O 	0.04800 0.85090 0.66180 -0.26400
C 	C 	0.09360 0.84280 0.65400 0.13100
H 	H 	0.10730 0.86620 0.64110 0.14200
N 	N 	0.12480 0.80440 0.66210 -0.23200
C 	C 	0.10100 0.76600 0.67990 0.08500
H 	H 	0.06420 0.77600 0.68310 0.00900
H 	H 	0.11990 0.76560 0.69670 -0.69300
H 	H 	0.10210 0.73130 0.67170 0.08900
C 	C 	0.17300 0.78870 0.65380 -0.73600
H 	H 	0.18200 0.75530 0.66230 0.27300
H 	H 	0.19900 0.81530 0.65870 0.06900
H 	H 	0.17270 0.78420 0.63450 0.24900
O 	O 	0.89010 0.48080 0.54830 -0.33200
C 	C 	0.84330 0.47300 0.54370 -0.02900
H 	H 	0.81920 0.47700 0.55790 0.19100
N 	N 	0.82400 0.45930 0.51980 -0.32900
C 	C 	0.86050 0.45010 0.49830 -0.23400
H 	H 	0.84250 0.43160 0.48390 -0.08100
H 	H 	0.88980 0.42860 0.50470 0.09300
H 	H 	0.87390 0.48370 0.49180 0.25700
C 	C 	0.77320 0.45460 0.51280 0.09200
H 	H 	0.77070 0.44850 0.49370 -0.00800
H 	H 	0.75450 0.48690 0.51740 -0.02100
H 	H 	0.75760 0.42500 0.52240 -0.02000
O 	O 	0.85130 0.49390 0.55740 -0.43700
C 	C 	0.85480 0.49300 0.53290 0.48500
H 	H 	0.86660 0.52440 0.52480 -0.11800
N 	N 	0.84430 0.45300 0.51620 0.20200
C 	C 	0.85100 0.46200 0.48810 -0.12800
H 	H 	0.84740 0.42900 0.47850 0.19000
H 	H 	0.88640 0.47650 0.48490 -0.12700
H 	H 	0.82480 0.48720 0.48180 0.05300
C 	C 	0.83100 0.40300 0.52190 -0.25300
H 	H 	0.82640 0.38330 0.50540 0.09400
H 	H 	0.79820 0.40250 0.53200 0.10500
H 	H 	0.85890 0.38670 0.53240 0.08400
C 	C 	0.98960 0.97840 0.69410 -1.29200
O 	O 	0.94950 0.00870 0.68780 -4.75400
O 	O 	0.01540 0.95210 0.67940 0.78300
H 	H 	0.99370 0.06860 0.73070 0.02200
C 	C 	0.00600 0.98850 0.72170 -0.48800
C 	C 	0.95280 0.99530 0.73910 -0.42100
C 	C 	0.13460 0.93000 0.73230 -0.28800
H 	H 	0.21870 0.91290 0.71540 0.15100
C 	C 	0.17260 0.93400 0.71450 -0.05000
H 	H 	0.16720 0.92370 0.69660 0.00400
C 	C 	0.06050 0.85260 0.75040 -0.19000
C 	C 	0.05650 0.80320 0.74200 -0.74000
C 	C 	0.04300 0.76180 0.76100 0.56000
H 	H 	0.02490 0.74410 0.74060 0.14200
C 	C 	0.22360 0.95300 0.72370 0.61500
H 	H 	0.27250 0.97140 0.73760 -0.17700
H 	H 	0.06240 0.79480 0.72390 0.10000
H 	H 	0.25300 0.95830 0.71240 -0.21700
O 	O 	0.46090 0.54370 0.87815 -0.98800
Zn	Zn	0.50412 0.50534 0.85254 1.20800
Zn	Zn	0.99966 0.59023 0.83396 1.23400
Zn	Zn	0.57616 0.08904 0.86431 1.21000
Zn	Zn	0.92311 0.49774 0.84562 1.20800
Zn	Zn	0.50814 0.57732 0.90241 1.17800
Zn	Zn	0.42791 0.59810 0.85779 1.20900
Zn	Zn	0.01846 0.50916 0.88226 1.21600
Zn	Zn	0.41150 0.49316 0.89271 1.23100
O 	O 	0.36670 0.42710 0.89660 -0.43600
C 	C 	0.32740 0.42150 0.91130 0.25200
H 	H 	0.31010 0.45150 0.91810 0.02400
N 	N 	0.30960 0.37320 0.91740 -0.00100
C 	C 	0.33190 0.32860 0.90450 0.51800
H 	H 	0.31240 0.29710 0.90960 -0.01800
H 	H 	0.36860 0.32480 0.90980 -0.15300
H 	H 	0.33000 0.33330 0.88530 -0.12200
C 	C 	0.26820 0.36010 0.93370 0.50300
H 	H 	0.26210 0.32220 0.93280 -0.18200
H 	H 	0.23660 0.37870 0.92790 -0.15100
H 	H 	0.27660 0.37010 0.95200 0.49700
C 	C 	0.10380 0.55240 0.84920 0.38100
O 	O 	0.08370 0.51660 0.86380 -0.50300
O 	O 	0.07830 0.58130 0.83408 -0.45400
C 	C 	0.32710 0.56480 0.86760 0.43800
O 	O 	0.34550 0.53230 0.88240 -0.52800
O 	O 	0.35320 0.60030 0.85700 -0.52600
C 	C 	0.16170 0.55790 0.85170 -0.11000
C 	C 	0.19140 0.51290 0.85630 -0.01800
H 	H 	0.17510 0.47950 0.85540 0.04400
C 	C 	0.24380 0.51610 0.86210 0.00200
H 	H 	0.26270 0.48520 0.86640 0.03200
C 	C 	0.26980 0.56450 0.86160 -0.13800
C 	C 	0.24150 0.61040 0.85660 0.05700
C 	C 	0.18780 0.60580 0.84990 0.04000
C 	C 	0.26060 0.66700 0.85759 -0.10500
H 	H 	0.29870 0.66970 0.86200 0.07300
C 	C 	0.16220 0.65910 0.84576 -0.09500
H 	H 	0.12420 0.65640 0.84100 0.07700
C 	C 	0.22540 0.69550 0.87790 0.03000
C 	C 	0.17130 0.69130 0.87060 0.02300
C 	C 	0.13170 0.71640 0.88510 -0.07700
H 	H 	0.09570 0.71490 0.88030 0.06200
C 	C 	0.15100 0.74460 0.90780 -0.03700
H 	H 	0.12660 0.76370 0.91820 0.04400
C 	C 	0.19960 0.74540 0.91460 -0.02500
H 	H 	0.20940 0.76320 0.93040 0.03000
C 	C 	0.23830 0.72070 0.89950 -0.08900
H 	H 	0.27400 0.72230 0.90480 0.04900
C 	C 	0.24790 0.68980 0.83080 0.03700
C 	C 	0.19400 0.68460 0.82450 0.02300
C 	C 	0.17670 0.70280 0.79990 -0.06900
H 	H 	0.14100 0.69940 0.79480 0.05100
C 	C 	0.21400 0.72670 0.78260 -0.04200
H 	H 	0.20320 0.73930 0.76580 0.03800
C 	C 	0.26440 0.73130 0.79010 -0.01500
H 	H 	0.28890 0.74660 0.77820 0.03400
C 	C 	0.28120 0.71450 0.81430 -0.08700
H 	H 	0.31650 0.72020 0.81950 0.05800
C 	C 	0.52440 0.18300 0.87920 0.35700
O 	O 	0.49690 0.16050 0.89680 -0.46100
O 	O 	0.56350 0.16420 0.86713 -0.48800
C 	C 	0.48600 0.40550 0.86800 0.45300
O 	O 	0.46110 0.42780 0.88370 -0.52200
O 	O 	0.51310 0.42950 0.85080 -0.49600
C 	C 	0.51230 0.23920 0.87446 -0.09800
C 	C 	0.49730 0.27100 0.89560 -0.02500
H 	H 	0.49330 0.25520 0.91250 0.04700
C 	C 	0.48820 0.32200 0.89340 0.01000
H 	H 	0.47940 0.34180 0.90870 0.04100
C 	C 	0.49140 0.34700 0.86850 -0.14000
C 	C 	0.50400 0.31620 0.84640 0.05900
C 	C 	0.51620 0.26250 0.84986 0.03400
C 	C 	0.50810 0.33400 0.81742 -0.10500
H 	H 	0.50160 0.37240 0.81510 0.07500
C 	C 	0.52610 0.23540 0.82295 -0.08800
H 	H 	0.53320 0.19710 0.82510 0.06600
C 	C 	0.46820 0.29910 0.80190 0.03000
C 	C 	0.48030 0.24500 0.80520 0.02100
C 	C 	0.44910 0.20580 0.79350 -0.07500
H 	H 	0.45460 0.16940 0.79640 0.04900
C 	C 	0.40870 0.22540 0.77670 -0.03200
H 	H 	0.38660 0.20080 0.76810 0.03000
C 	C 	0.40030 0.27490 0.77250 -0.02600
H 	H 	0.37370 0.28550 0.76050 0.03300
C 	C 	0.43040 0.31250 0.78570 -0.08500
H 	H 	0.42320 0.34860 0.78290 0.05500
C 	C 	0.56190 0.31770 0.80844 0.04200
C 	C 	0.57150 0.26330 0.81120 0.02300
C 	C 	0.62050 0.24330 0.80410 -0.06500
H 	H 	0.62950 0.20790 0.80780 0.05800
C 	C 	0.65770 0.27820 0.79080 -0.04100
H 	H 	0.69020 0.26560 0.78430 0.04300
C 	C 	0.64430 0.32790 0.78810 -0.01300
H 	H 	0.66850 0.35070 0.77970 0.03700
C 	C 	0.59720 0.34910 0.79690 -0.08600
H 	H 	0.59020 0.38540 0.79470 0.06100
C 	C 	0.95890 0.50280 0.79489 0.38900
O 	O 	0.92040 0.48380 0.80738 -0.47900
O 	O 	0.99480 0.52330 0.80710 -0.46800
C 	C 	0.95550 0.46900 0.68211 0.44400
O 	O 	0.91960 0.44240 0.67374 -0.51200
O 	O 	0.98660 0.49520 0.66880 -0.54500
C 	C 	0.96330 0.49280 0.76597 -0.11400
C 	C 	0.91710 0.47480 0.75311 -0.02400
H 	H 	0.88680 0.46650 0.76320 0.04900
C 	C 	0.91670 0.46970 0.72674 0.00900
H 	H 	0.88420 0.46330 0.71810 0.03600
C 	C 	0.96130 0.47320 0.71162 -0.13200
C 	C 	0.00790 0.49010 0.72357 0.05200
C 	C 	0.00820 0.49930 0.75119 0.04800
C 	C 	0.06200 0.49760 0.71110 -0.09800
H 	H 	0.06200 0.49080 0.69160 0.07500
C 	C 	0.06280 0.51560 0.76060 -0.10600
H 	H 	0.06330 0.52220 0.78010 0.08700
C 	C 	0.10030 0.46160 0.72640 0.02500
C 	C 	0.10050 0.47300 0.75310 0.03400
C 	C 	0.13660 0.44920 0.77020 -0.08200
H 	H 	0.13920 0.45700 0.78860 0.06000
C 	C 	0.16920 0.41180 0.75690 -0.02200
H 	H 	0.19770 0.39780 0.76670 0.03400
C 	C 	0.16350 0.39540 0.73300 -0.03200
H 	H 	0.17810 0.36350 0.72670 0.03600
C 	C 	0.13470 0.42800 0.71770 -0.07400
H 	H 	0.14000 0.42620 0.69910 0.05500
C 	C 	0.07660 0.55260 0.71780 0.03100
C 	C 	0.07800 0.56230 0.74570 0.03500
C 	C 	0.09260 0.61110 0.75480 -0.08200
H 	H 	0.09540 0.61830 0.77320 0.07100
C 	C 	0.10330 0.65010 0.73560 -0.02900
H 	H 	0.10670 0.68560 0.74100 0.03800
C 	C 	0.10880 0.63800 0.70980 -0.02900
H 	H 	0.12370 0.66270 0.69790 0.04200
C 	C 	0.09280 0.58970 0.70080 -0.08200
H 	H 	0.09330 0.58250 0.68230 0.05900
C 	C 	0.82880 0.53410 0.87160 0.39500
O 	O 	0.85090 0.56960 0.88500 -0.51600
O 	O 	0.85070 0.50260 0.85600 -0.52000
C 	C 	0.60190 0.54250 0.87580 0.37800
O 	O 	0.58260 0.55950 0.89622 -0.39200
O 	O 	0.57720 0.53410 0.85462 -0.48300
C 	C 	0.77000 0.53000 0.87280 -0.11800
C 	C 	0.74350 0.56790 0.88810 0.00100
H 	H 	0.76410 0.59230 0.89780 0.04600
C 	C 	0.69130 0.57160 0.88980 -0.01800
H 	H 	0.67530 0.59750 0.90070 0.05900
C 	C 	0.66060 0.53570 0.87500 -0.08200
C 	C 	0.68380 0.49690 0.85950 0.03700
C 	C 	0.73970 0.49410 0.85950 0.06200
C 	C 	0.65760 0.45670 0.84170 -0.08600
H 	H 	0.61880 0.46190 0.84040 0.06900
C 	C 	0.75680 0.44570 0.84410 -0.10600
H 	H 	0.79570 0.44090 0.84500 0.08100
C 	C 	0.67270 0.40170 0.85310 0.03000
C 	C 	0.72860 0.39870 0.85510 0.03600
C 	C 	0.75180 0.35440 0.86600 -0.08300
H 	H 	0.78870 0.34960 0.86700 0.06200
C 	C 	0.71520 0.31720 0.87550 -0.01700
H 	H 	0.72870 0.28940 0.88610 0.03500
C 	C 	0.66490 0.31720 0.87130 -0.03100
H 	H 	0.64410 0.28710 0.87480 0.04500
C 	C 	0.64240 0.36340 0.86120 -0.07200
H 	H 	0.60540 0.36680 0.86020 0.07100
C 	C 	0.68440 0.46240 0.81540 0.02900
C 	C 	0.73910 0.45260 0.81640 0.03400
C 	C 	0.76620 0.45680 0.79280 -0.08000
H 	H 	0.80320 0.45290 0.79260 0.06000
C 	C 	0.73840 0.46690 0.76890 -0.02700
H 	H 	0.75610 0.46460 0.75240 0.04200
C 	C 	0.68750 0.47960 0.76950 -0.02600
H 	H 	0.67120 0.49460 0.75440 0.04100
C 	C 	0.65920 0.47100 0.79190 -0.07300
H 	H 	0.62200 0.47110 0.79120 0.05500
C 	C 	0.51660 0.90720 0.88170 0.39600
O 	O 	0.48180 0.93250 0.86946 -0.48200
O 	O 	0.55560 0.92610 0.89309 -0.50200
C 	C 	0.48480 0.68280 0.88210 0.42000
O 	O 	0.45050 0.66810 0.86671 -0.53800
O 	O 	0.51170 0.65270 0.89640 -0.56600
C 	C 	0.51020 0.84910 0.88290 -0.11300
C 	C 	0.48830 0.82330 0.86100 -0.01100
H 	H 	0.47790 0.84310 0.84600 0.04100
C 	C 	0.48180 0.77130 0.86100 -0.00200
H 	H 	0.46830 0.75460 0.84560 0.04000
C 	C 	0.49460 0.74110 0.88320 -0.12400
C 	C 	0.51750 0.76420 0.90545 0.04400
C 	C 	0.52590 0.81960 0.90460 0.05300
C 	C 	0.53690 0.73930 0.93050 -0.08900
H 	H 	0.53340 0.70030 0.93040 0.05600
C 	C 	0.54780 0.83900 0.93060 -0.10500
H 	H 	0.55230 0.87790 0.93050 0.07800
C 	C 	0.50600 0.76530 0.95370 0.00800
C 	C 	0.51100 0.82170 0.95220 0.04300
C 	C 	0.48450 0.85300 0.97050 -0.08800
H 	H 	0.48620 0.89020 0.96990 0.06800
C 	C 	0.45480 0.82600 0.99000 -0.00700
H 	H 	0.43940 0.84590 0.00390 0.03700
C 	C 	0.44760 0.77570 0.98990 -0.05000
H 	H 	0.42500 0.75970 0.00250 0.04400
C 	C 	0.47400 0.74500 0.97070 -0.05100
H 	H 	0.46800 0.70830 0.97030 0.02300
C 	C 	0.59300 0.75710 0.93360 0.03700
C 	C 	0.59840 0.81200 0.93450 0.03500
C 	C 	0.64760 0.83240 0.93640 -0.06900
H 	H 	0.65190 0.86940 0.93680 0.05700
C 	C 	0.69350 0.79900 0.93810 -0.03900
H 	H 	0.72780 0.81330 0.93860 0.04500
C 	C 	0.68550 0.74660 0.93890 -0.01300
H 	H 	0.71470 0.72360 0.94020 0.03600
C 	C 	0.63540 0.72630 0.93800 -0.08200
H 	H 	0.63050 0.68970 0.94040 0.07200
C 	C 	0.46050 0.55730 0.80670 0.42200
O 	O 	0.48760 0.51810 0.81578 -0.50400
O 	O 	0.44350 0.59260 0.81963 -0.52900
C 	C 	0.45060 0.55190 0.77840 -0.12800
C 	C 	0.48470 0.52000 0.76310 -0.00500
H 	H 	0.51180 0.50120 0.77180 0.04500
C 	C 	0.41730 0.58560 0.76340 0.04800
C 	C 	0.37830 0.62500 0.77550 -0.09100
H 	H 	0.37980 0.62620 0.79530 0.07500
C 	C 	0.39220 0.67840 0.76231 0.02900
C 	C 	0.40900 0.72180 0.77660 -0.07400
H 	H 	0.41130 0.72160 0.79530 0.05700
C 	C 	0.32310 0.60610 0.76460 0.02700
C 	C 	0.28100 0.59610 0.77970 -0.07300
H 	H 	0.28240 0.59780 0.79850 0.06300
C 	C 	0.42200 0.76520 0.76170 -0.02600
H 	H 	0.43470 0.79560 0.77050 0.04200
C 	C 	0.23370 0.58270 0.76580 -0.03000
H 	H 	0.20200 0.57720 0.77520 0.04600
O 	O 	0.96770 0.54840 0.86246 -0.96100
O 	O 	0.49170 0.56180 0.93670 3.47500
C 	C 	0.47040 0.51180 0.97270 0.53900
C 	C 	0.46340 0.52080 0.94400 1.17300
O 	O 	0.42950 0.49970 0.93190 -1.12400
C 	C 	0.53300 0.50900 0.98590 0.35700
C 	C 	0.39900 0.43770 0.97900 -0.08800
H 	H 	0.38510 0.44290 0.96060 0.04800
C 	C 	0.43870 0.39150 0.97990 0.11800
C 	C 	0.42600 0.34960 0.96390 0.58200
H 	H 	0.41160 0.35340 0.94670 -0.17700
C 	C 	0.43800 0.30110 0.97510 -0.79000
C 	C 	0.46110 0.45300 0.98410 0.22200
C 	C 	0.32170 0.46000 0.98450 1.11000
H 	H 	0.32160 0.46800 0.96620 -0.34900
C 	C 	0.27570 0.46400 0.99900 -0.50700
C 	C 	0.36730 0.44300 0.99610 0.18700
C 	C 	0.41080 0.42310 0.97590 -0.07500
C 	C 	0.43160 0.48580 0.98800 -0.28500
H 	H 	0.40100 0.42830 0.95690 0.04400
O 	O 	0.35090 0.45200 0.91180 -0.26900
C 	C 	0.34280 0.40640 0.90400 0.13400
H 	H 	0.36620 0.39270 0.89110 0.14100
N 	N 	0.30440 0.37520 0.91210 -0.23200
C 	C 	0.26600 0.39900 0.92990 0.08500
H 	H 	0.27600 0.43580 0.93310 0.00900
H 	H 	0.26560 0.38010 0.94670 -0.69300
H 	H 	0.23130 0.39790 0.92170 0.08900
C 	C 	0.28870 0.32700 0.90380 -0.73500
H 	H 	0.25530 0.31800 0.91230 0.27300
H 	H 	0.31530 0.30100 0.90870 0.06900
H 	H 	0.28420 0.32730 0.88450 0.24800
O 	O 	0.98080 0.60990 0.79830 -0.33200
C 	C 	0.97300 0.65670 0.79370 -0.02900
H 	H 	0.97700 0.68080 0.80790 0.19100
N 	N 	0.95930 0.67600 0.76980 -0.33000
C 	C 	0.95010 0.63950 0.74830 -0.23300
H 	H 	0.93160 0.65750 0.73390 -0.08100
H 	H 	0.92860 0.61020 0.75470 0.09300
H 	H 	0.98370 0.62610 0.74180 0.25700
C 	C 	0.95460 0.72680 0.76280 0.09400
H 	H 	0.94850 0.72930 0.74370 -0.01000
H 	H 	0.98690 0.74550 0.76740 -0.02200
H 	H 	0.92500 0.74240 0.77240 -0.02100
O 	O 	0.99390 0.64870 0.80740 -0.43700
C 	C 	0.99300 0.64520 0.78290 0.48600
H 	H 	0.02440 0.63340 0.77480 -0.11900
N 	N 	0.95300 0.65570 0.76620 0.20200
C 	C 	0.96200 0.64900 0.73810 -0.12800
H 	H 	0.92900 0.65260 0.72850 0.19000
H 	H 	0.97650 0.61360 0.73490 -0.12700
H 	H 	0.98720 0.67520 0.73180 0.05300
C 	C 	0.90300 0.66900 0.77190 -0.25200
H 	H 	0.88330 0.67360 0.75540 0.09300
H 	H 	0.90250 0.70180 0.78200 0.10400
H 	H 	0.88670 0.64110 0.78240 0.08300
C 	C 	0.47840 0.51040 0.94410 -1.01000
O 	O 	0.50870 0.55050 0.93780 -3.88900
O 	O 	0.45210 0.48460 0.92940 0.58800
H 	H 	0.56860 0.50630 0.98070 0.03000
C 	C 	0.48850 0.49400 0.97170 -0.40500
C 	C 	0.49530 0.54720 0.98910 -0.32200
C 	C 	0.43000 0.36540 0.98230 -0.28200
H 	H 	0.41290 0.28130 0.96540 0.15100
C 	C 	0.43400 0.32740 0.96450 -0.05600
H 	H 	0.42370 0.33280 0.94660 0.00700
C 	C 	0.35260 0.43950 0.00040 -0.20000
C 	C 	0.30320 0.44350 0.99200 -0.74100
C 	C 	0.26180 0.45700 0.01100 0.56000
H 	H 	0.24410 0.47510 0.99060 0.14400
C 	C 	0.45300 0.27640 0.97370 0.62400
H 	H 	0.47140 0.22750 0.98760 -0.17800
H 	H 	0.29480 0.43760 0.97390 0.09900
H 	H 	0.45830 0.24700 0.96240 -0.22000
O 	O 	0.53910 0.45630 0.37815 -0.98800
Zn	Zn	0.49588 0.49466 0.35254 1.20800
Zn	Zn	0.00034 0.40977 0.33396 1.23400
Zn	Zn	0.42384 0.91096 0.36431 1.21000
Zn	Zn	0.07689 0.50226 0.34562 1.20800
Zn	Zn	0.49186 0.42268 0.40241 1.17800
Zn	Zn	0.57209 0.40190 0.35779 1.20900
Zn	Zn	0.98154 0.49084 0.38226 1.21600
Zn	Zn	0.58850 0.50684 0.39271 1.23100
O 	O 	0.63330 0.57290 0.39660 -0.43600
C 	C 	0.67260 0.57850 0.41130 0.25200
H 	H 	0.68990 0.54850 0.41810 0.02400
N 	N 	0.69040 0.62680 0.41740 -0.00100
C 	C 	0.66810 0.67140 0.40450 0.51800
H 	H 	0.68760 0.70290 0.40960 -0.01800
H 	H 	0.63140 0.67520 0.40980 -0.15300
H 	H 	0.67000 0.66670 0.38530 -0.12200
C 	C 	0.73180 0.63990 0.43370 0.50300
H 	H 	0.73790 0.67780 0.43280 -0.18200
H 	H 	0.76340 0.62130 0.42790 -0.15100
H 	H 	0.72340 0.62990 0.45200 0.49700
C 	C 	0.89620 0.44760 0.34920 0.38100
O 	O 	0.91630 0.48340 0.36380 -0.50300
O 	O 	0.92170 0.41870 0.33408 -0.45400
C 	C 	0.67290 0.43520 0.36760 0.43800
O 	O 	0.65450 0.46770 0.38240 -0.52800
O 	O 	0.64680 0.39970 0.35700 -0.52600
C 	C 	0.83830 0.44210 0.35170 -0.11000
C 	C 	0.80860 0.48710 0.35630 -0.01800
H 	H 	0.82490 0.52050 0.35540 0.04400
C 	C 	0.75620 0.48390 0.36210 0.00200
H 	H 	0.73730 0.51480 0.36640 0.03200
C 	C 	0.73020 0.43550 0.36160 -0.13800
C 	C 	0.75850 0.38960 0.35660 0.05700
C 	C 	0.81220 0.39420 0.34990 0.04000
C 	C 	0.73940 0.33300 0.35759 -0.10500
H 	H 	0.70130 0.33030 0.36200 0.07300
C 	C 	0.83780 0.34090 0.34576 -0.09500
H 	H 	0.87580 0.34360 0.34100 0.07700
C 	C 	0.77460 0.30450 0.37790 0.03000
C 	C 	0.82870 0.30870 0.37060 0.02300
C 	C 	0.86830 0.28360 0.38510 -0.07700
H 	H 	0.90430 0.28510 0.38030 0.06200
C 	C 	0.84900 0.25540 0.40780 -0.03700
H 	H 	0.87340 0.23630 0.41820 0.04400
C 	C 	0.80040 0.25460 0.41460 -0.02500
H 	H 	0.79060 0.23680 0.43040 0.03000
C 	C 	0.76170 0.27930 0.39950 -0.08900
H 	H 	0.72600 0.27770 0.40480 0.04900
C 	C 	0.75210 0.31020 0.33080 0.03700
C 	C 	0.80600 0.31540 0.32450 0.02300
C 	C 	0.82330 0.29720 0.29990 -0.06900
H 	H 	0.85900 0.30060 0.29480 0.05100
C 	C 	0.78600 0.27330 0.28260 -0.04200
H 	H 	0.79680 0.26070 0.26580 0.03800
C 	C 	0.73560 0.26870 0.29010 -0.01500
H 	H 	0.71110 0.25340 0.27820 0.03400
C 	C 	0.71880 0.28550 0.31430 -0.08700
H 	H 	0.68350 0.27980 0.31950 0.05800
C 	C 	0.47560 0.81700 0.37920 0.35700
O 	O 	0.50310 0.83950 0.39680 -0.46100
O 	O 	0.43650 0.83580 0.36713 -0.48800
C 	C 	0.51400 0.59450 0.36800 0.45300
O 	O 	0.53890 0.57220 0.38370 -0.52200
O 	O 	0.48690 0.57050 0.35080 -0.49600
C 	C 	0.48770 0.76080 0.37446 -0.09800
C 	C 	0.50270 0.72900 0.39560 -0.02500
H 	H 	0.50670 0.74480 0.41250 0.04700
C 	C 	0.51180 0.67800 0.39340 0.01000
H 	H 	0.52060 0.65820 0.40870 0.04100
C 	C 	0.50860 0.65300 0.36850 -0.14000
C 	C 	0.49600 0.68380 0.34640 0.05900
C 	C 	0.48380 0.73750 0.34986 0.03400
C 	C 	0.49190 0.66600 0.31742 -0.10500
H 	H 	0.49840 0.62760 0.31510 0.07500
C 	C 	0.47390 0.76460 0.32295 -0.08800
H 	H 	0.46680 0.80290 0.32510 0.06600
C 	C 	0.53180 0.70090 0.30190 0.03000
C 	C 	0.51970 0.75500 0.30520 0.02100
C 	C 	0.55090 0.79420 0.29350 -0.07500
H 	H 	0.54540 0.83060 0.29640 0.04900
C 	C 	0.59130 0.77460 0.27670 -0.03200
H 	H 	0.61340 0.79920 0.26810 0.03000
C 	C 	0.59970 0.72510 0.27250 -0.02600
H 	H 	0.62630 0.71450 0.26050 0.03300
C 	C 	0.56960 0.68750 0.28570 -0.08500
H 	H 	0.57680 0.65140 0.28290 0.05500
C 	C 	0.43810 0.68230 0.30844 0.04200
C 	C 	0.42850 0.73670 0.31120 0.02300
C 	C 	0.37950 0.75670 0.30410 -0.06500
H 	H 	0.37050 0.79210 0.30780 0.05800
C 	C 	0.34230 0.72180 0.29080 -0.04100
H 	H 	0.30980 0.73440 0.28430 0.04300
C 	C 	0.35570 0.67210 0.28810 -0.01300
H 	H 	0.33150 0.64930 0.27970 0.03700
C 	C 	0.40280 0.65090 0.29690 -0.08600
H 	H 	0.40980 0.61460 0.29470 0.06100
C 	C 	0.04110 0.49720 0.29489 0.38900
O 	O 	0.07960 0.51620 0.30738 -0.47900
O 	O 	0.00520 0.47670 0.30710 -0.46800
C 	C 	0.04450 0.53100 0.18211 0.44400
O 	O 	0.08040 0.55760 0.17374 -0.51200
O 	O 	0.01340 0.50480 0.16880 -0.54500
C 	C 	0.03670 0.50720 0.26597 -0.11400
C 	C 	0.08290 0.52520 0.25311 -0.02400
H 	H 	0.11320 0.53350 0.26320 0.04900
C 	C 	0.08330 0.53030 0.22674 0.00900
H 	H 	0.11580 0.53670 0.21810 0.03600
C 	C 	0.03870 0.52680 0.21162 -0.13200
C 	C 	0.99210 0.50990 0.22357 0.05200
C 	C 	0.99180 0.50070 0.25119 0.04800
C 	C 	0.93800 0.50240 0.21110 -0.09800
H 	H 	0.93800 0.50920 0.19160 0.07500
C 	C 	0.93720 0.48440 0.26060 -0.10600
H 	H 	0.93670 0.47780 0.28010 0.08700
C 	C 	0.89970 0.53840 0.22640 0.02500
C 	C 	0.89950 0.52700 0.25310 0.03400
C 	C 	0.86340 0.55080 0.27020 -0.08200
H 	H 	0.86080 0.54300 0.28860 0.06000
C 	C 	0.83080 0.58820 0.25690 -0.02200
H 	H 	0.80230 0.60220 0.26670 0.03400
C 	C 	0.83650 0.60460 0.23300 -0.03200
H 	H 	0.82190 0.63650 0.22670 0.03600
C 	C 	0.86530 0.57200 0.21770 -0.07400
H 	H 	0.86000 0.57380 0.19910 0.05500
C 	C 	0.92340 0.44740 0.21780 0.03100
C 	C 	0.92200 0.43770 0.24570 0.03500
C 	C 	0.90740 0.38890 0.25480 -0.08200
H 	H 	0.90460 0.38170 0.27320 0.07100
C 	C 	0.89670 0.34990 0.23560 -0.02900
H 	H 	0.89330 0.31440 0.24100 0.03800
C 	C 	0.89120 0.36200 0.20980 -0.02900
H 	H 	0.87630 0.33730 0.19790 0.04200
C 	C 	0.90720 0.41030 0.20080 -0.08200
H 	H 	0.90670 0.41750 0.18230 0.05900
C 	C 	0.17120 0.46590 0.37160 0.39500
O 	O 	0.14910 0.43040 0.38500 -0.51600
O 	O 	0.14930 0.49740 0.35600 -0.52000
C 	C 	0.39810 0.45750 0.37580 0.37800
O 	O 	0.41740 0.44050 0.39622 -0.39200
O 	O 	0.42280 0.46590 0.35462 -0.48300
C 	C 	0.23000 0.47000 0.37280 -0.11800
C 	C 	0.25650 0.43210 0.38810 0.00100
H 	H 	0.23590 0.40770 0.39780 0.04600
C 	C 	0.30870 0.42840 0.38980 -0.01800
H 	H 	0.32470 0.40250 0.40070 0.05900
C 	C 	0.33940 0.46430 0.37500 -0.08200
C 	C 	0.31620 0.50310 0.35950 0.03700
C 	C 	0.26030 0.50590 0.35950 0.06200
C 	C 	0.34240 0.54330 0.34170 -0.08600
H 	H 	0.38120 0.53810 0.34040 0.06900
C 	C 	0.24320 0.55430 0.34410 -0.10600
H 	H 	0.20430 0.55910 0.34500 0.08100
C 	C 	0.32730 0.59830 0.35310 0.03000
C 	C 	0.27140 0.60130 0.35510 0.03600
C 	C 	0.24820 0.64560 0.36600 -0.08300
H 	H 	0.21130 0.65040 0.36700 0.06200
C 	C 	0.28480 0.68280 0.37550 -0.01700
H 	H 	0.27130 0.71060 0.38610 0.03500
C 	C 	0.33510 0.68280 0.37130 -0.03100
H 	H 	0.35590 0.71290 0.37480 0.04500
C 	C 	0.35760 0.63660 0.36120 -0.07200
H 	H 	0.39460 0.63320 0.36020 0.07100
C 	C 	0.31560 0.53760 0.31540 0.02900
C 	C 	0.26090 0.54740 0.31640 0.03400
C 	C 	0.23380 0.54320 0.29280 -0.08000
H 	H 	0.19680 0.54710 0.29260 0.06000
C 	C 	0.26160 0.53310 0.26890 -0.02700
H 	H 	0.24390 0.53540 0.25240 0.04200
C 	C 	0.31250 0.52040 0.26950 -0.02600
H 	H 	0.32880 0.50540 0.25440 0.04100
C 	C 	0.34080 0.52900 0.29190 -0.07300
H 	H 	0.37800 0.52890 0.29120 0.05500
C 	C 	0.48340 0.09280 0.38170 0.39600
O 	O 	0.51820 0.06750 0.36946 -0.48200
O 	O 	0.44440 0.07390 0.39309 -0.50200
C 	C 	0.51520 0.31720 0.38210 0.42000
O 	O 	0.54950 0.33190 0.36671 -0.53800
O 	O 	0.48830 0.34730 0.39640 -0.56600
C 	C 	0.48980 0.15090 0.38290 -0.11300
C 	C 	0.51170 0.17670 0.36100 -0.01100
H 	H 	0.52210 0.15690 0.34600 0.04100
C 	C 	0.51820 0.22870 0.36100 -0.00200
H 	H 	0.53170 0.24540 0.34560 0.04000
C 	C 	0.50540 0.25890 0.38320 -0.12400
C 	C 	0.48250 0.23580 0.40545 0.04400
C 	C 	0.47410 0.18040 0.40460 0.05300
C 	C 	0.46310 0.26070 0.43050 -0.08900
H 	H 	0.46660 0.29970 0.43040 0.05600
C 	C 	0.45220 0.16100 0.43060 -0.10500
H 	H 	0.44770 0.12210 0.43050 0.07800
C 	C 	0.49400 0.23470 0.45370 0.00800
C 	C 	0.48900 0.17830 0.45220 0.04300
C 	C 	0.51550 0.14700 0.47050 -0.08800
H 	H 	0.51380 0.10980 0.46990 0.06800
C 	C 	0.54520 0.17400 0.49000 -0.00700
H 	H 	0.56060 0.15410 0.50390 0.03700
C 	C 	0.55240 0.22430 0.48990 -0.05000
H 	H 	0.57500 0.24030 0.50250 0.04400
C 	C 	0.52600 0.25500 0.47070 -0.05100
H 	H 	0.53200 0.29170 0.47030 0.02300
C 	C 	0.40700 0.24290 0.43360 0.03700
C 	C 	0.40160 0.18800 0.43450 0.03500
C 	C 	0.35240 0.16760 0.43640 -0.06900
H 	H 	0.34810 0.13060 0.43680 0.05700
C 	C 	0.30650 0.20100 0.43810 -0.03900
H 	H 	0.27220 0.18670 0.43860 0.04500
C 	C 	0.31450 0.25340 0.43890 -0.01300
H 	H 	0.28530 0.27640 0.44020 0.03600
C 	C 	0.36460 0.27370 0.43800 -0.08200
H 	H 	0.36950 0.31030 0.44040 0.07200
C 	C 	0.53950 0.44270 0.30670 0.42200
O 	O 	0.51240 0.48190 0.31578 -0.50400
O 	O 	0.55650 0.40740 0.31963 -0.52900
C 	C 	0.54940 0.44810 0.27840 -0.12800
C 	C 	0.51530 0.48000 0.26310 -0.00500
H 	H 	0.48820 0.49880 0.27180 0.04500
C 	C 	0.58270 0.41440 0.26340 0.04800
C 	C 	0.62170 0.37500 0.27550 -0.09100
H 	H 	0.62020 0.37380 0.29530 0.07500
C 	C 	0.60780 0.32160 0.26231 0.02900
C 	C 	0.59100 0.27820 0.27660 -0.07400
H 	H 	0.58870 0.27840 0.29530 0.05700
C 	C 	0.67690 0.39390 0.26460 0.02700
C 	C 	0.71900 0.40390 0.27970 -0.07300
H 	H 	0.71760 0.40220 0.29850 0.06300
C 	C 	0.57800 0.23480 0.26170 -0.02600
H 	H 	0.56530 0.20440 0.27050 0.04200
C 	C 	0.76630 0.41730 0.26580 -0.03000
H 	H 	0.79800 0.42280 0.27520 0.04600
O 	O 	0.03230 0.45160 0.36246 -0.96100
O 	O 	0.50830 0.43820 0.43670 3.47500
C 	C 	0.52960 0.48820 0.47270 0.53900
C 	C 	0.53660 0.47920 0.44400 1.17300
O 	O 	0.57050 0.50030 0.43190 -1.12400
C 	C 	0.46700 0.49100 0.48590 0.35700
C 	C 	0.60100 0.56230 0.47900 -0.08800
H 	H 	0.61490 0.55710 0.46060 0.04800
C 	C 	0.56130 0.60850 0.47990 0.11800
C 	C 	0.57400 0.65040 0.46390 0.58200
H 	H 	0.58840 0.64660 0.44670 -0.17700
C 	C 	0.56200 0.69890 0.47510 -0.79000
C 	C 	0.53890 0.54700 0.48410 0.22200
C 	C 	0.67830 0.54000 0.48450 1.11000
H 	H 	0.67840 0.53200 0.46620 -0.34900
C 	C 	0.72430 0.53600 0.49900 -0.50700
C 	C 	0.63270 0.55700 0.49610 0.18700
C 	C 	0.58920 0.57690 0.47590 -0.07500
C 	C 	0.56840 0.51420 0.48800 -0.28500
H 	H 	0.59900 0.57170 0.45690 0.04400
O 	O 	0.64910 0.54800 0.41180 -0.26900
C 	C 	0.65720 0.59360 0.40400 0.13400
H 	H 	0.63380 0.60730 0.39110 0.14100
N 	N 	0.69560 0.62480 0.41210 -0.23200
C 	C 	0.73400 0.60100 0.42990 0.08500
H 	H 	0.72400 0.56420 0.43310 0.00900
H 	H 	0.73440 0.61990 0.44670 -0.69300
H 	H 	0.76870 0.60210 0.42170 0.08900
C 	C 	0.71130 0.67300 0.40380 -0.73500
H 	H 	0.74470 0.68200 0.41230 0.27300
H 	H 	0.68470 0.69900 0.40870 0.06900
H 	H 	0.71580 0.67270 0.38450 0.24800
O 	O 	0.01920 0.39010 0.29830 -0.33200
C 	C 	0.02700 0.34330 0.29370 -0.02900
H 	H 	0.02300 0.31920 0.30790 0.19100
N 	N 	0.04070 0.32400 0.26980 -0.33000
C 	C 	0.04990 0.36050 0.24830 -0.23300
H 	H 	0.06840 0.34250 0.23390 -0.08100
H 	H 	0.07140 0.38980 0.25470 0.09300
H 	H 	0.01630 0.37390 0.24180 0.25700
C 	C 	0.04540 0.27320 0.26280 0.09400
H 	H 	0.05150 0.27070 0.24370 -0.01000
H 	H 	0.01310 0.25450 0.26740 -0.02200
H 	H 	0.07500 0.25760 0.27240 -0.02100
O 	O 	0.00610 0.35130 0.30740 -0.43700
C 	C 	0.00700 0.35480 0.28290 0.48600
H 	H 	0.97560 0.36660 0.27480 -0.11900
N 	N 	0.04700 0.34430 0.26620 0.20200
C 	C 	0.03800 0.35100 0.23810 -0.12800
H 	H 	0.07100 0.34740 0.22850 0.19000
H 	H 	0.02350 0.38640 0.23490 -0.12700
H 	H 	0.01280 0.32480 0.23180 0.05300
C 	C 	0.09700 0.33100 0.27190 -0.25200
H 	H 	0.11670 0.32640 0.25540 0.09300
H 	H 	0.09750 0.29820 0.28200 0.10400
H 	H 	0.11330 0.35890 0.28240 0.08300
C 	C 	0.52160 0.48960 0.44410 -1.01000
O 	O 	0.49130 0.44950 0.43780 -3.88900
O 	O 	0.54790 0.51540 0.42940 0.58800
H 	H 	0.43140 0.49370 0.48070 0.03000
C 	C 	0.51150 0.50600 0.47170 -0.40500
C 	C 	0.50470 0.45280 0.48910 -0.32200
C 	C 	0.57000 0.63460 0.48230 -0.28200
H 	H 	0.58710 0.71870 0.46540 0.15100
C 	C 	0.56600 0.67260 0.46450 -0.05600
H 	H 	0.57630 0.66720 0.44660 0.00700
C 	C 	0.64740 0.56050 0.50040 -0.20000
C 	C 	0.69680 0.55650 0.49200 -0.74200
C 	C 	0.73820 0.54300 0.51100 0.56000
H 	H 	0.75590 0.52490 0.49060 0.14400
C 	C 	0.54700 0.72360 0.47370 0.62400
H 	H 	0.52860 0.77250 0.48760 -0.17800
H 	H 	0.70520 0.56240 0.47390 0.09900
H 	H 	0.54170 0.75300 0.46240 -0.22000
O 	O 	0.45630 0.53910 0.62185 -0.98800
Zn	Zn	0.49466 0.49588 0.64746 1.20800
Zn	Zn	0.40977 0.00034 0.66604 1.23400
Zn	Zn	0.91096 0.42384 0.63569 1.21000
Zn	Zn	0.50226 0.07689 0.65438 1.20800
Zn	Zn	0.42268 0.49186 0.59759 1.17800
Zn	Zn	0.40190 0.57209 0.64221 1.20900
Zn	Zn	0.49084 0.98154 0.61774 1.21600
Zn	Zn	0.50684 0.58850 0.60729 1.23100
O 	O 	0.57290 0.63330 0.60340 -0.43600
C 	C 	0.57850 0.67260 0.58870 0.25200
H 	H 	0.54850 0.68990 0.58190 0.02400
N 	N 	0.62680 0.69040 0.58260 -0.00100
C 	C 	0.67140 0.66810 0.59550 0.51800
H 	H 	0.70290 0.68760 0.59040 -0.01800
H 	H 	0.67520 0.63140 0.59020 -0.15300
H 	H 	0.66670 0.67000 0.61470 -0.12200
C 	C 	0.63990 0.73180 0.56630 0.50300
H 	H 	0.67780 0.73790 0.56720 -0.18200
H 	H 	0.62130 0.76340 0.57210 -0.15100
H 	H 	0.62990 0.72340 0.54800 0.49700
C 	C 	0.44760 0.89620 0.65080 0.38100
O 	O 	0.48340 0.91630 0.63620 -0.50300
O 	O 	0.41870 0.92170 0.66592 -0.45400
C 	C 	0.43520 0.67290 0.63240 0.43800
O 	O 	0.46770 0.65450 0.61760 -0.52800
O 	O 	0.39970 0.64680 0.64300 -0.52600
C 	C 	0.44210 0.83830 0.64830 -0.11000
C 	C 	0.48710 0.80860 0.64370 -0.01800
H 	H 	0.52050 0.82490 0.64460 0.04400
C 	C 	0.48390 0.75620 0.63790 0.00200
H 	H 	0.51480 0.73730 0.63360 0.03200
C 	C 	0.43550 0.73020 0.63840 -0.13800
C 	C 	0.38960 0.75850 0.64340 0.05700
C 	C 	0.39420 0.81220 0.65010 0.04000
C 	C 	0.33300 0.73940 0.64241 -0.10500
H 	H 	0.33030 0.70130 0.63800 0.07300
C 	C 	0.34090 0.83780 0.65424 -0.09500
H 	H 	0.34360 0.87580 0.65900 0.07700
C 	C 	0.30450 0.77460 0.62210 0.03000
C 	C 	0.30870 0.82870 0.62940 0.02300
C 	C 	0.28360 0.86830 0.61490 -0.07700
H 	H 	0.28510 0.90430 0.61970 0.06200
C 	C 	0.25540 0.84900 0.59220 -0.03700
H 	H 	0.23630 0.87340 0.58180 0.04400
C 	C 	0.25460 0.80040 0.58540 -0.02500
H 	H 	0.23680 0.79060 0.56960 0.03000
C 	C 	0.27930 0.76170 0.60050 -0.08900
H 	H 	0.27770 0.72600 0.59520 0.04900
C 	C 	0.31020 0.75210 0.66920 0.03700
C 	C 	0.31540 0.80600 0.67550 0.02300
C 	C 	0.29720 0.82330 0.70010 -0.06900
H 	H 	0.30060 0.85900 0.70520 0.05100
C 	C 	0.27330 0.78600 0.71740 -0.04200
H 	H 	0.26070 0.79680 0.73420 0.03800
C 	C 	0.26870 0.73560 0.70990 -0.01500
H 	H 	0.25340 0.71110 0.72180 0.03400
C 	C 	0.28550 0.71880 0.68570 -0.08700
H 	H 	0.27980 0.68350 0.68050 0.05800
C 	C 	0.81700 0.47560 0.62080 0.35700
O 	O 	0.83950 0.50310 0.60320 -0.46100
O 	O 	0.83580 0.43650 0.63287 -0.48800
C 	C 	0.59450 0.51400 0.63200 0.45300
O 	O 	0.57220 0.53890 0.61630 -0.52200
O 	O 	0.57050 0.48690 0.64920 -0.49600
C 	C 	0.76080 0.48770 0.62554 -0.09800
C 	C 	0.72900 0.50270 0.60440 -0.02500
H 	H 	0.74480 0.50670 0.58750 0.04700
C 	C 	0.67800 0.51180 0.60660 0.01000
H 	H 	0.65820 0.52060 0.59130 0.04100
C 	C 	0.65300 0.50860 0.63150 -0.14000
C 	C 	0.68380 0.49600 0.65360 0.05900
C 	C 	0.73750 0.48380 0.65014 0.03400
C 	C 	0.66600 0.49190 0.68258 -0.10500
H 	H 	0.62760 0.49840 0.68490 0.07500
C 	C 	0.76460 0.47390 0.67705 -0.08800
H 	H 	0.80290 0.46680 0.67490 0.06600
C 	C 	0.70090 0.53180 0.69810 0.03000
C 	C 	0.75500 0.51970 0.69480 0.02100
C 	C 	0.79420 0.55090 0.70650 -0.07500
H 	H 	0.83060 0.54540 0.70360 0.04900
C 	C 	0.77460 0.59130 0.72330 -0.03200
H 	H 	0.79920 0.61340 0.73190 0.03000
C 	C 	0.72510 0.59970 0.72750 -0.02600
H 	H 	0.71450 0.62630 0.73950 0.03300
C 	C 	0.68750 0.56960 0.71430 -0.08500
H 	H 	0.65140 0.57680 0.71710 0.05500
C 	C 	0.68230 0.43810 0.69156 0.04200
C 	C 	0.73670 0.42850 0.68880 0.02300
C 	C 	0.75670 0.37950 0.69590 -0.06500
H 	H 	0.79210 0.37050 0.69220 0.05800
C 	C 	0.72180 0.34230 0.70920 -0.04100
H 	H 	0.73440 0.30980 0.71570 0.04300
C 	C 	0.67210 0.35570 0.71190 -0.01300
H 	H 	0.64930 0.33150 0.72030 0.03700
C 	C 	0.65090 0.40280 0.70310 -0.08600
H 	H 	0.61460 0.40980 0.70530 0.06100
C 	C 	0.49720 0.04110 0.70511 0.38900
O 	O 	0.51620 0.07960 0.69262 -0.47900
O 	O 	0.47670 0.00520 0.69290 -0.46800
C 	C 	0.53100 0.04450 0.81789 0.44400
O 	O 	0.55760 0.08040 0.82626 -0.51200
O 	O 	0.50480 0.01340 0.83120 -0.54500
C 	C 	0.50720 0.03670 0.73403 -0.11400
C 	C 	0.52520 0.08290 0.74689 -0.02400
H 	H 	0.53350 0.11320 0.73680 0.04900
C 	C 	0.53030 0.08330 0.77326 0.00900
H 	H 	0.53670 0.11580 0.78190 0.03600
C 	C 	0.52680 0.03870 0.78838 -0.13200
C 	C 	0.50990 0.99210 0.77643 0.05200
C 	C 	0.50070 0.99180 0.74881 0.04800
C 	C 	0.50240 0.93800 0.78890 -0.09800
H 	H 	0.50920 0.93800 0.80840 0.07500
C 	C 	0.48440 0.93720 0.73940 -0.10600
H 	H 	0.47780 0.93670 0.71990 0.08700
C 	C 	0.53840 0.89970 0.77360 0.02500
C 	C 	0.52700 0.89950 0.74690 0.03400
C 	C 	0.55080 0.86340 0.72980 -0.08200
H 	H 	0.54300 0.86080 0.71140 0.06000
C 	C 	0.58820 0.83080 0.74310 -0.02200
H 	H 	0.60220 0.80230 0.73330 0.03400
C 	C 	0.60460 0.83650 0.76700 -0.03200
H 	H 	0.63650 0.82190 0.77330 0.03600
C 	C 	0.57200 0.86530 0.78230 -0.07400
H 	H 	0.57380 0.86000 0.80090 0.05500
C 	C 	0.44740 0.92340 0.78220 0.03100
C 	C 	0.43770 0.92200 0.75430 0.03500
C 	C 	0.38890 0.90740 0.74520 -0.08200
H 	H 	0.38170 0.90460 0.72680 0.07100
C 	C 	0.34990 0.89670 0.76440 -0.02900
H 	H 	0.31440 0.89330 0.75900 0.03800
C 	C 	0.36200 0.89120 0.79020 -0.02900
H 	H 	0.33730 0.87630 0.80210 0.04200
C 	C 	0.41030 0.90720 0.79920 -0.08200
H 	H 	0.41750 0.90670 0.81770 0.05900
C 	C 	0.46590 0.17120 0.62840 0.39500
O 	O 	0.43040 0.14910 0.61500 -0.51600
O 	O 	0.49740 0.14930 0.64400 -0.52000
C 	C 	0.45750 0.39810 0.62420 0.37800
O 	O 	0.44050 0.41740 0.60378 -0.39200
O 	O 	0.46590 0.42280 0.64538 -0.48300
C 	C 	0.47000 0.23000 0.62720 -0.11800
C 	C 	0.43210 0.25650 0.61190 0.00100
H 	H 	0.40770 0.23590 0.60220 0.04600
C 	C 	0.42840 0.30870 0.61020 -0.01800
H 	H 	0.40250 0.32470 0.59930 0.05900
C 	C 	0.46430 0.33940 0.62500 -0.08200
C 	C 	0.50310 0.31620 0.64050 0.03700
C 	C 	0.50590 0.26030 0.64050 0.06200
C 	C 	0.54330 0.34240 0.65830 -0.08600
H 	H 	0.53810 0.38120 0.65960 0.06900
C 	C 	0.55430 0.24320 0.65590 -0.10600
H 	H 	0.55910 0.20430 0.65500 0.08100
C 	C 	0.59830 0.32730 0.64690 0.03000
C 	C 	0.60130 0.27140 0.64490 0.03600
C 	C 	0.64560 0.24820 0.63400 -0.08300
H 	H 	0.65040 0.21130 0.63300 0.06200
C 	C 	0.68280 0.28480 0.62450 -0.01700
H 	H 	0.71060 0.27130 0.61390 0.03500
C 	C 	0.68280 0.33510 0.62870 -0.03100
H 	H 	0.71290 0.35590 0.62520 0.04500
C 	C 	0.63660 0.35760 0.63880 -0.07200
H 	H 	0.63320 0.39460 0.63980 0.07100
C 	C 	0.53760 0.31560 0.68460 0.02900
C 	C 	0.54740 0.26090 0.68360 0.03400
C 	C 	0.54320 0.23380 0.70720 -0.08000
H 	H 	0.54710 0.19680 0.70740 0.06000
C 	C 	0.53310 0.26160 0.73110 -0.02700
H 	H 	0.53540 0.24390 0.74760 0.04200
C 	C 	0.52040 0.31250 0.73050 -0.02600
H 	H 	0.50540 0.32880 0.74560 0.04100
C 	C 	0.52900 0.34080 0.70810 -0.07300
H 	H 	0.52890 0.37800 0.70880 0.05500
C 	C 	0.09280 0.48340 0.61830 0.39600
O 	O 	0.06750 0.51820 0.63054 -0.48200
O 	O 	0.07390 0.44440 0.60691 -0.50200
C 	C 	0.31720 0.51520 0.61790 0.42000
O 	O 	0.33190 0.54950 0.63329 -0.53800
O 	O 	0.34730 0.48830 0.60360 -0.56600
C 	C 	0.15090 0.48980 0.61710 -0.11300
C 	C 	0.17670 0.51170 0.63900 -0.01100
H 	H 	0.15690 0.52210 0.65400 0.04100
C 	C 	0.22870 0.51820 0.63900 -0.00200
H 	H 	0.24540 0.53170 0.65440 0.04000
C 	C 	0.25890 0.50540 0.61680 -0.12400
C 	C 	0.23580 0.48250 0.59455 0.04400
C 	C 	0.18040 0.47410 0.59540 0.05300
C 	C 	0.26070 0.46310 0.56950 -0.08900
H 	H 	0.29970 0.46660 0.56960 0.05600
C 	C 	0.16100 0.45220 0.56940 -0.10500
H 	H 	0.12210 0.44770 0.56950 0.07800
C 	C 	0.23470 0.49400 0.54630 0.00800
C 	C 	0.17830 0.48900 0.54780 0.04300
C 	C 	0.14700 0.51550 0.52950 -0.08800
H 	H 	0.10980 0.51380 0.53010 0.06800
C 	C 	0.17400 0.54520 0.51000 -0.00700
H 	H 	0.15410 0.56060 0.49610 0.03700
C 	C 	0.22430 0.55240 0.51010 -0.05000
H 	H 	0.24030 0.57500 0.49750 0.04400
C 	C 	0.25500 0.52600 0.52930 -0.05100
H 	H 	0.29170 0.53200 0.52970 0.02300
C 	C 	0.24290 0.40700 0.56640 0.03700
C 	C 	0.18800 0.40160 0.56550 0.03500
C 	C 	0.16760 0.35240 0.56360 -0.06900
H 	H 	0.13060 0.34810 0.56320 0.05700
C 	C 	0.20100 0.30650 0.56190 -0.03900
H 	H 	0.18670 0.27220 0.56140 0.04500
C 	C 	0.25340 0.31450 0.56110 -0.01300
H 	H 	0.27640 0.28530 0.55980 0.03600
C 	C 	0.27370 0.36460 0.56200 -0.08200
H 	H 	0.31030 0.36950 0.55960 0.07200
C 	C 	0.44270 0.53950 0.69330 0.42200
O 	O 	0.48190 0.51240 0.68422 -0.50400
O 	O 	0.40740 0.55650 0.68037 -0.52900
C 	C 	0.44810 0.54940 0.72160 -0.12800
C 	C 	0.48000 0.51530 0.73690 -0.00500
H 	H 	0.49880 0.48820 0.72820 0.04500
C 	C 	0.41440 0.58270 0.73660 0.04800
C 	C 	0.37500 0.62170 0.72450 -0.09100
H 	H 	0.37380 0.62020 0.70470 0.07500
C 	C 	0.32160 0.60780 0.73769 0.02900
C 	C 	0.27820 0.59100 0.72340 -0.07400
H 	H 	0.27840 0.58870 0.70470 0.05700
C 	C 	0.39390 0.67690 0.73540 0.02700
C 	C 	0.40390 0.71900 0.72030 -0.07300
H 	H 	0.40220 0.71760 0.70150 0.06300
C 	C 	0.23480 0.57800 0.73830 -0.02600
H 	H 	0.20440 0.56530 0.72950 0.04200
C 	C 	0.41730 0.76630 0.73420 -0.03000
H 	H 	0.42280 0.79800 0.72480 0.04600
O 	O 	0.45160 0.03230 0.63754 -0.96100
O 	O 	0.43820 0.50830 0.56330 3.47500
C 	C 	0.48820 0.52960 0.52730 0.53900
C 	C 	0.47920 0.53660 0.55600 1.17300
O 	O 	0.50030 0.57050 0.56810 -1.12400
C 	C 	0.49100 0.46700 0.51410 0.35700
C 	C 	0.56230 0.60100 0.52100 -0.08800
H 	H 	0.55710 0.61490 0.53940 0.04800
C 	C 	0.60850 0.56130 0.52010 0.11800
C 	C 	0.65040 0.57400 0.53610 0.58200
H 	H 	0.64660 0.58840 0.55330 -0.17700
C 	C 	0.69890 0.56200 0.52490 -0.79000
C 	C 	0.54700 0.53890 0.51590 0.22200
C 	C 	0.54000 0.67830 0.51550 1.11000
H 	H 	0.53200 0.67840 0.53380 -0.34900
C 	C 	0.53600 0.72430 0.50100 -0.50700
C 	C 	0.55700 0.63270 0.50390 0.18700
C 	C 	0.57690 0.58920 0.52410 -0.07500
C 	C 	0.51420 0.56840 0.51200 -0.28500
H 	H 	0.57170 0.59900 0.54310 0.04400
O 	O 	0.54800 0.64910 0.58820 -0.26900
C 	C 	0.59360 0.65720 0.59600 0.13400
H 	H 	0.60730 0.63380 0.60890 0.14100
N 	N 	0.62480 0.69560 0.58790 -0.23200
C 	C 	0.60100 0.73400 0.57010 0.08500
H 	H 	0.56420 0.72400 0.56690 0.00900
H 	H 	0.61990 0.73440 0.55330 -0.69300
H 	H 	0.60210 0.76870 0.57830 0.08900
C 	C 	0.67300 0.71130 0.59620 -0.73500
H 	H 	0.68200 0.74470 0.58770 0.27300
H 	H 	0.69900 0.68470 0.59130 0.06900
H 	H 	0.67270 0.71580 0.61550 0.24800
O 	O 	0.39010 0.01920 0.70170 -0.33200
C 	C 	0.34330 0.02700 0.70630 -0.02900
H 	H 	0.31920 0.02300 0.69210 0.19100
N 	N 	0.32400 0.04070 0.73020 -0.33000
C 	C 	0.36050 0.04990 0.75170 -0.23300
H 	H 	0.34250 0.06840 0.76610 -0.08100
H 	H 	0.38980 0.07140 0.74530 0.09300
H 	H 	0.37390 0.01630 0.75820 0.25700
C 	C 	0.27320 0.04540 0.73720 0.09400
H 	H 	0.27070 0.05150 0.75630 -0.01000
H 	H 	0.25450 0.01310 0.73260 -0.02200
H 	H 	0.25760 0.07500 0.72760 -0.02100
O 	O 	0.35130 0.00610 0.69260 -0.43700
C 	C 	0.35480 0.00700 0.71710 0.48600
H 	H 	0.36660 0.97560 0.72520 -0.11900
N 	N 	0.34430 0.04700 0.73380 0.20200
C 	C 	0.35100 0.03800 0.76190 -0.12800
H 	H 	0.34740 0.07100 0.77150 0.19000
H 	H 	0.38640 0.02350 0.76510 -0.12700
H 	H 	0.32480 0.01280 0.76820 0.05300
C 	C 	0.33100 0.09700 0.72810 -0.25200
H 	H 	0.32640 0.11670 0.74460 0.09300
H 	H 	0.29820 0.09750 0.71800 0.10400
H 	H 	0.35890 0.11330 0.71760 0.08300
C 	C 	0.48960 0.52160 0.55590 -1.01000
O 	O 	0.44950 0.49130 0.56220 -3.88900
O 	O 	0.51540 0.54790 0.57060 0.58800
H 	H 	0.49370 0.43140 0.51930 0.03000
C 	C 	0.50600 0.51150 0.52830 -0.40500
C 	C 	0.45280 0.50470 0.51090 -0.32200
C 	C 	0.63460 0.57000 0.51770 -0.28200
H 	H 	0.71870 0.58710 0.53460 0.15100
C 	C 	0.67260 0.56600 0.53550 -0.05600
H 	H 	0.66720 0.57630 0.55340 0.00700
C 	C 	0.56050 0.64740 0.49960 -0.20000
C 	C 	0.55650 0.69680 0.50800 -0.74200
C 	C 	0.54300 0.73820 0.48900 0.56000
H 	H 	0.52490 0.75590 0.50940 0.14400
C 	C 	0.72360 0.54700 0.52630 0.62400
H 	H 	0.77250 0.52860 0.51240 -0.17800
H 	H 	0.56240 0.70520 0.52610 0.09900
H 	H 	0.75300 0.54170 0.53760 -0.22000
O 	O 	0.54370 0.46090 0.12185 -0.98800
Zn	Zn	0.50534 0.50412 0.14746 1.20800
Zn	Zn	0.59023 0.99966 0.16604 1.23400
Zn	Zn	0.08904 0.57616 0.13569 1.21000
Zn	Zn	0.49774 0.92311 0.15438 1.20800
Zn	Zn	0.57732 0.50814 0.09759 1.17800
Zn	Zn	0.59810 0.42791 0.14221 1.20900
Zn	Zn	0.50916 0.01846 0.11774 1.21600
Zn	Zn	0.49316 0.41150 0.10729 1.23100
O 	O 	0.42710 0.36670 0.10340 -0.43600
C 	C 	0.42150 0.32740 0.08870 0.25200
H 	H 	0.45150 0.31010 0.08190 0.02400
N 	N 	0.37320 0.30960 0.08260 -0.00100
C 	C 	0.32860 0.33190 0.09550 0.51800
H 	H 	0.29710 0.31240 0.09040 -0.01800
H 	H 	0.32480 0.36860 0.09020 -0.15300
H 	H 	0.33330 0.33000 0.11470 -0.12200
C 	C 	0.36010 0.26820 0.06630 0.50300
H 	H 	0.32220 0.26210 0.06720 -0.18200
H 	H 	0.37870 0.23660 0.07210 -0.15100
H 	H 	0.37010 0.27660 0.04800 0.49700
C 	C 	0.55240 0.10380 0.15080 0.38100
O 	O 	0.51660 0.08370 0.13620 -0.50300
O 	O 	0.58130 0.07830 0.16592 -0.45400
C 	C 	0.56480 0.32710 0.13240 0.43800
O 	O 	0.53230 0.34550 0.11760 -0.52800
O 	O 	0.60030 0.35320 0.14300 -0.52600
C 	C 	0.55790 0.16170 0.14830 -0.11000
C 	C 	0.51290 0.19140 0.14370 -0.01800
H 	H 	0.47950 0.17510 0.14460 0.04400
C 	C 	0.51610 0.24380 0.13790 0.00200
H 	H 	0.48520 0.26270 0.13360 0.03200
C 	C 	0.56450 0.26980 0.13840 -0.13800
C 	C 	0.61040 0.24150 0.14340 0.05700
C 	C 	0.60580 0.18780 0.15010 0.04000
C 	C 	0.66700 0.26060 0.14241 -0.10500
H 	H 	0.66970 0.29870 0.13800 0.07300
C 	C 	0.65910 0.16220 0.15424 -0.09500
H 	H 	0.65640 0.12420 0.15900 0.07700
C 	C 	0.69550 0.22540 0.12210 0.03000
C 	C 	0.69130 0.17130 0.12940 0.02300
C 	C 	0.71640 0.13170 0.11490 -0.07700
H 	H 	0.71490 0.09570 0.11970 0.06200
C 	C 	0.74460 0.15100 0.09220 -0.03700
H 	H 	0.76370 0.12660 0.08180 0.04400
C 	C 	0.74540 0.19960 0.08540 -0.02500
H 	H 	0.76320 0.20940 0.06960 0.03000
C 	C 	0.72070 0.23830 0.10050 -0.08900
H 	H 	0.72230 0.27400 0.09520 0.04900
C 	C 	0.68980 0.24790 0.16920 0.03700
C 	C 	0.68460 0.19400 0.17550 0.02300
C 	C 	0.70280 0.17670 0.20010 -0.06900
H 	H 	0.69940 0.14100 0.20520 0.05100
C 	C 	0.72670 0.21400 0.21740 -0.04200
H 	H 	0.73930 0.20320 0.23420 0.03800
C 	C 	0.73130 0.26440 0.20990 -0.01500
H 	H 	0.74660 0.28890 0.22180 0.03400
C 	C 	0.71450 0.28120 0.18570 -0.08700
H 	H 	0.72020 0.31650 0.18050 0.05800
C 	C 	0.18300 0.52440 0.12080 0.35700
O 	O 	0.16050 0.49690 0.10320 -0.46100
O 	O 	0.16420 0.56350 0.13287 -0.48800
C 	C 	0.40550 0.48600 0.13200 0.45300
O 	O 	0.42780 0.46110 0.11630 -0.52200
O 	O 	0.42950 0.51310 0.14920 -0.49600
C 	C 	0.23920 0.51230 0.12554 -0.09800
C 	C 	0.27100 0.49730 0.10440 -0.02500
H 	H 	0.25520 0.49330 0.08750 0.04700
C 	C 	0.32200 0.48820 0.10660 0.01000
H 	H 	0.34180 0.47940 0.09130 0.04100
C 	C 	0.34700 0.49140 0.13150 -0.14000
C 	C 	0.31620 0.50400 0.15360 0.05900
C 	C 	0.26250 0.51620 0.15014 0.03400
C 	C 	0.33400 0.50810 0.18258 -0.10500
H 	H 	0.37240 0.50160 0.18490 0.07500
C 	C 	0.23540 0.52610 0.17705 -0.08800
H 	H 	0.19710 0.53320 0.17490 0.06600
C 	C 	0.29910 0.46820 0.19810 0.03000
C 	C 	0.24500 0.48030 0.19480 0.02100
C 	C 	0.20580 0.44910 0.20650 -0.07500
H 	H 	0.16940 0.45460 0.20360 0.04900
C 	C 	0.22540 0.40870 0.22330 -0.03200
H 	H 	0.20080 0.38660 0.23190 0.03000
C 	C 	0.27490 0.40030 0.22750 -0.02600
H 	H 	0.28550 0.37370 0.23950 0.03300
C 	C 	0.31250 0.43040 0.21430 -0.08500
H 	H 	0.34860 0.42320 0.21710 0.05500
C 	C 	0.31770 0.56190 0.19156 0.04200
C 	C 	0.26330 0.57150 0.18880 0.02300
C 	C 	0.24330 0.62050 0.19590 -0.06500
H 	H 	0.20790 0.62950 0.19220 0.05800
C 	C 	0.27820 0.65770 0.20920 -0.04100
H 	H 	0.26560 0.69020 0.21570 0.04300
C 	C 	0.32790 0.64430 0.21190 -0.01300
H 	H 	0.35070 0.66850 0.22030 0.03700
C 	C 	0.34910 0.59720 0.20310 -0.08600
H 	H 	0.38540 0.59020 0.20530 0.06100
C 	C 	0.50280 0.95890 0.20511 0.38900
O 	O 	0.48380 0.92040 0.19262 -0.47900
O 	O 	0.52330 0.99480 0.19290 -0.46800
C 	C 	0.46900 0.95550 0.31789 0.44400
O 	O 	0.44240 0.91960 0.32626 -0.51200
O 	O 	0.49520 0.98660 0.33120 -0.54500
C 	C 	0.49280 0.96330 0.23403 -0.11400
C 	C 	0.47480 0.91710 0.24689 -0.02400
H 	H 	0.46650 0.88680 0.23680 0.04900
C 	C 	0.46970 0.91670 0.27326 0.00900
H 	H 	0.46330 0.88420 0.28190 0.03600
C 	C 	0.47320 0.96130 0.28838 -0.13200
C 	C 	0.49010 0.00790 0.27643 0.05200
C 	C 	0.49930 0.00820 0.24881 0.04800
C 	C 	0.49760 0.06200 0.28890 -0.09800
H 	H 	0.49080 0.06200 0.30840 0.07500
C 	C 	0.51560 0.06280 0.23940 -0.10600
H 	H 	0.52220 0.06330 0.21990 0.08700
C 	C 	0.46160 0.10030 0.27360 0.02500
C 	C 	0.47300 0.10050 0.24690 0.03400
C 	C 	0.44920 0.13660 0.22980 -0.08200
H 	H 	0.45700 0.13920 0.21140 0.06000
C 	C 	0.41180 0.16920 0.24310 -0.02200
H 	H 	0.39780 0.19770 0.23330 0.03400
C 	C 	0.39540 0.16350 0.26700 -0.03200
H 	H 	0.36350 0.17810 0.27330 0.03600
C 	C 	0.42800 0.13470 0.28230 -0.07400
H 	H 	0.42620 0.14000 0.30090 0.05500
C 	C 	0.55260 0.07660 0.28220 0.03100
C 	C 	0.56230 0.07800 0.25430 0.03500
C 	C 	0.61110 0.09260 0.24520 -0.08200
H 	H 	0.61830 0.09540 0.22680 0.07100
C 	C 	0.65010 0.10330 0.26440 -0.02900
H 	H 	0.68560 0.10670 0.25900 0.03800
C 	C 	0.63800 0.10880 0.29020 -0.02900
H 	H 	0.66270 0.12370 0.30210 0.04200
C 	C 	0.58970 0.09280 0.29920 -0.08200
H 	H 	0.58250 0.09330 0.31770 0.05900
C 	C 	0.53410 0.82880 0.12840 0.39500
O 	O 	0.56960 0.85090 0.11500 -0.51600
O 	O 	0.50260 0.85070 0.14400 -0.52000
C 	C 	0.54250 0.60190 0.12420 0.37800
O 	O 	0.55950 0.58260 0.10378 -0.39200
O 	O 	0.53410 0.57720 0.14538 -0.48300
C 	C 	0.53000 0.77000 0.12720 -0.11800
C 	C 	0.56790 0.74350 0.11190 0.00100
H 	H 	0.59230 0.76410 0.10220 0.04600
C 	C 	0.57160 0.69130 0.11020 -0.01800
H 	H 	0.59750 0.67530 0.09930 0.05900
C 	C 	0.53570 0.66060 0.12500 -0.08200
C 	C 	0.49690 0.68380 0.14050 0.03700
C 	C 	0.49410 0.73970 0.14050 0.06200
C 	C 	0.45670 0.65760 0.15830 -0.08600
H 	H 	0.46190 0.61880 0.15960 0.06900
C 	C 	0.44570 0.75680 0.15590 -0.10600
H 	H 	0.44090 0.79570 0.15500 0.08100
C 	C 	0.40170 0.67270 0.14690 0.03000
C 	C 	0.39870 0.72860 0.14490 0.03600
C 	C 	0.35440 0.75180 0.13400 -0.08300
H 	H 	0.34960 0.78870 0.13300 0.06200
C 	C 	0.31720 0.71520 0.12450 -0.01700
H 	H 	0.28940 0.72870 0.11390 0.03500
C 	C 	0.31720 0.66490 0.12870 -0.03100
H 	H 	0.28710 0.64410 0.12520 0.04500
C 	C 	0.36340 0.64240 0.13880 -0.07200
H 	H 	0.36680 0.60540 0.13980 0.07100
C 	C 	0.46240 0.68440 0.18460 0.02900
C 	C 	0.45260 0.73910 0.18360 0.03400
C 	C 	0.45680 0.76620 0.20720 -0.08000
H 	H 	0.45290 0.80320 0.20740 0.06000
C 	C 	0.46690 0.73840 0.23110 -0.02700
H 	H 	0.46460 0.75610 0.24760 0.04200
C 	C 	0.47960 0.68750 0.23050 -0.02600
H 	H 	0.49460 0.67120 0.24560 0.04100
C 	C 	0.47100 0.65920 0.20810 -0.07300
H 	H 	0.47110 0.62200 0.20880 0.05500
C 	C 	0.90720 0.51660 0.11830 0.39600
O 	O 	0.93250 0.48180 0.13054 -0.48200
O 	O 	0.92610 0.55560 0.10691 -0.50200
C 	C 	0.68280 0.48480 0.11790 0.42000
O 	O 	0.66810 0.45050 0.13329 -0.53800
O 	O 	0.65270 0.51170 0.10360 -0.56600
C 	C 	0.84910 0.51020 0.11710 -0.11300
C 	C 	0.82330 0.48830 0.13900 -0.01100
H 	H 	0.84310 0.47790 0.15400 0.04100
C 	C 	0.77130 0.48180 0.13900 -0.00200
H 	H 	0.75460 0.46830 0.15440 0.04000
C 	C 	0.74110 0.49460 0.11680 -0.12400
C 	C 	0.76420 0.51750 0.09455 0.04400
C 	C 	0.81960 0.52590 0.09540 0.05300
C 	C 	0.73930 0.53690 0.06950 -0.08900
H 	H 	0.70030 0.53340 0.06960 0.05600
C 	C 	0.83900 0.54780 0.06940 -0.10500
H 	H 	0.87790 0.55230 0.06950 0.07800
C 	C 	0.76530 0.50600 0.04630 0.00800
C 	C 	0.82170 0.51100 0.04780 0.04300
C 	C 	0.85300 0.48450 0.02950 -0.08800
H 	H 	0.89020 0.48620 0.03010 0.06800
C 	C 	0.82600 0.45480 0.01000 -0.00700
H 	H 	0.84590 0.43940 0.99610 0.03700
C 	C 	0.77570 0.44760 0.01010 -0.05000
H 	H 	0.75970 0.42500 0.99750 0.04400
C 	C 	0.74500 0.47400 0.02930 -0.05100
H 	H 	0.70830 0.46800 0.02970 0.02300
C 	C 	0.75710 0.59300 0.06640 0.03700
C 	C 	0.81200 0.59840 0.06550 0.03500
C 	C 	0.83240 0.64760 0.06360 -0.06900
H 	H 	0.86940 0.65190 0.06320 0.05700
C 	C 	0.79900 0.69350 0.06190 -0.03900
H 	H 	0.81330 0.72780 0.06140 0.04500
C 	C 	0.74660 0.68550 0.06110 -0.01300
H 	H 	0.72360 0.71470 0.05980 0.03600
C 	C 	0.72630 0.63540 0.06200 -0.08200
H 	H 	0.68970 0.63050 0.05960 0.07200
C 	C 	0.55730 0.46050 0.19330 0.42200
O 	O 	0.51810 0.48760 0.18422 -0.50400
O 	O 	0.59260 0.44350 0.18037 -0.52900
C 	C 	0.55190 0.45060 0.22160 -0.12800
C 	C 	0.52000 0.48470 0.23690 -0.00500
H 	H 	0.50120 0.51180 0.22820 0.04500
C 	C 	0.58560 0.41730 0.23660 0.04800
C 	C 	0.62500 0.37830 0.22450 -0.09100
H 	H 	0.62620 0.37980 0.20470 0.07500
C 	C 	0.67840 0.39220 0.23769 0.02900
C 	C 	0.72180 0.40900 0.22340 -0.07400
H 	H 	0.72160 0.41130 0.20470 0.05700
C 	C 	0.60610 0.32310 0.23540 0.02700
C 	C 	0.59610 0.28100 0.22030 -0.07300
H 	H 	0.59780 0.28240 0.20150 0.06300
C 	C 	0.76520 0.42200 0.23830 -0.02600
H 	H 	0.79560 0.43470 0.22950 0.04200
C 	C 	0.58270 0.23370 0.23420 -0.03000
H 	H 	0.57720 0.20200 0.22480 0.04600
O 	O 	0.54840 0.96770 0.13754 -0.96100
O 	O 	0.56180 0.49170 0.06330 3.47500
C 	C 	0.51180 0.47040 0.02730 0.53900
C 	C 	0.52080 0.46340 0.05600 1.17300
O 	O 	0.49970 0.42950 0.06810 -1.12400
C 	C 	0.50900 0.53300 0.01410 0.35700
C 	C 	0.43770 0.39900 0.02100 -0.08800
H 	H 	0.44290 0.38510 0.03940 0.04800
C 	C 	0.39150 0.43870 0.02010 0.11800
C 	C 	0.34960 0.42600 0.03610 0.58200
H 	H 	0.35340 0.41160 0.05330 -0.17700
C 	C 	0.30110 0.43800 0.02490 -0.79000
C 	C 	0.45300 0.46110 0.01590 0.22200
C 	C 	0.46000 0.32170 0.01550 1.11000
H 	H 	0.46800 0.32160 0.03380 -0.34900
C 	C 	0.46400 0.27570 0.00100 -0.50700
C 	C 	0.44300 0.36730 0.00390 0.18700
C 	C 	0.42310 0.41080 0.02410 -0.07500
C 	C 	0.48580 0.43160 0.01200 -0.28500
H 	H 	0.42830 0.40100 0.04310 0.04400
O 	O 	0.45200 0.35090 0.08820 -0.26900
C 	C 	0.40640 0.34280 0.09600 0.13400
H 	H 	0.39270 0.36620 0.10890 0.14100
N 	N 	0.37520 0.30440 0.08790 -0.23200
C 	C 	0.39900 0.26600 0.07010 0.08500
H 	H 	0.43580 0.27600 0.06690 0.00900
H 	H 	0.38010 0.26560 0.05330 -0.69300
H 	H 	0.39790 0.23130 0.07830 0.08900
C 	C 	0.32700 0.28870 0.09620 -0.73500
H 	H 	0.31800 0.25530 0.08770 0.27300
H 	H 	0.30100 0.31530 0.09130 0.06900
H 	H 	0.32730 0.28420 0.11550 0.24800
O 	O 	0.60990 0.98080 0.20170 -0.33200
C 	C 	0.65670 0.97300 0.20630 -0.02900
H 	H 	0.68080 0.97700 0.19210 0.19100
N 	N 	0.67600 0.95930 0.23020 -0.33000
C 	C 	0.63950 0.95010 0.25170 -0.23300
H 	H 	0.65750 0.93160 0.26610 -0.08100
H 	H 	0.61020 0.92860 0.24530 0.09300
H 	H 	0.62610 0.98370 0.25820 0.25700
C 	C 	0.72680 0.95460 0.23720 0.09400
H 	H 	0.72930 0.94850 0.25630 -0.01000
H 	H 	0.74550 0.98690 0.23260 -0.02200
H 	H 	0.74240 0.92500 0.22760 -0.02100
O 	O 	0.64870 0.99390 0.19260 -0.43700
C 	C 	0.64520 0.99300 0.21710 0.48600
H 	H 	0.63340 0.02440 0.22520 -0.11900
N 	N 	0.65570 0.95300 0.23380 0.20200
C 	C 	0.64900 0.96200 0.26190 -0.12800
H 	H 	0.65260 0.92900 0.27150 0.19000
H 	H 	0.61360 0.97650 0.26510 -0.12700
H 	H 	0.67520 0.98720 0.26820 0.05300
C 	C 	0.66900 0.90300 0.22810 -0.25200
H 	H 	0.67360 0.88330 0.24460 0.09300
H 	H 	0.70180 0.90250 0.21800 0.10400
H 	H 	0.64110 0.88670 0.21760 0.08300
C 	C 	0.51040 0.47840 0.05590 -1.01000
O 	O 	0.55050 0.50870 0.06220 -3.88900
O 	O 	0.48460 0.45210 0.07060 0.58800
H 	H 	0.50630 0.56860 0.01930 0.03000
C 	C 	0.49400 0.48850 0.02830 -0.40500
C 	C 	0.54720 0.49530 0.01090 -0.32200
C 	C 	0.36540 0.43000 0.01770 -0.28200
H 	H 	0.28130 0.41290 0.03460 0.15100
C 	C 	0.32740 0.43400 0.03550 -0.05600
H 	H 	0.33280 0.42370 0.05340 0.00700
C 	C 	0.43950 0.35260 0.99960 -0.20000
C 	C 	0.44350 0.30320 0.00800 -0.74100
C 	C 	0.45700 0.26180 0.98900 0.56000
H 	H 	0.47510 0.24410 0.00940 0.14400
C 	C 	0.27640 0.45300 0.02630 0.62400
H 	H 	0.22750 0.47140 0.01240 -0.17800
H 	H 	0.43760 0.29480 0.02610 0.09900
H 	H 	0.24700 0.45830 0.03760 -0.22000
O 	O 	0.03910 0.04370 0.87185 -0.99900
Zn	Zn	0.99588 0.00534 0.89746 1.21200
Zn	Zn	0.50034 0.09023 0.91604 1.23400
Zn	Zn	0.92384 0.58904 0.88569 1.21000
Zn	Zn	0.57689 0.99774 0.90438 1.20800
Zn	Zn	0.99186 0.07732 0.84759 1.17000
Zn	Zn	0.07209 0.09810 0.89221 1.20700
Zn	Zn	0.48154 0.00916 0.86774 1.21600
Zn	Zn	0.08850 0.99316 0.85729 1.23100
O 	O 	0.13330 0.92710 0.85340 -0.43600
C 	C 	0.17260 0.92150 0.83870 0.25300
H 	H 	0.18990 0.95150 0.83190 0.02300
N 	N 	0.19040 0.87320 0.83260 -0.00100
C 	C 	0.16810 0.82860 0.84550 0.51900
H 	H 	0.18760 0.79710 0.84040 -0.01800
H 	H 	0.13140 0.82480 0.84020 -0.15400
H 	H 	0.17000 0.83330 0.86470 -0.12200
C 	C 	0.23180 0.86010 0.81630 0.50100
H 	H 	0.23790 0.82220 0.81720 -0.18100
H 	H 	0.26340 0.87870 0.82210 -0.15000
H 	H 	0.22340 0.87010 0.79800 0.49700
C 	C 	0.39620 0.05240 0.90080 0.38100
O 	O 	0.41630 0.01660 0.88620 -0.50300
O 	O 	0.42170 0.08130 0.91592 -0.45400
C 	C 	0.17290 0.06480 0.88240 0.43700
O 	O 	0.15450 0.03230 0.86760 -0.53100
O 	O 	0.14680 0.10030 0.89300 -0.52800
C 	C 	0.33830 0.05790 0.89830 -0.11000
C 	C 	0.30860 0.01290 0.89370 -0.01900
H 	H 	0.32490 0.97950 0.89460 0.04500
C 	C 	0.25620 0.01610 0.88790 -0.00100
H 	H 	0.23730 0.98520 0.88360 0.03500
C 	C 	0.23020 0.06450 0.88840 -0.13700
C 	C 	0.25850 0.11040 0.89340 0.05600
C 	C 	0.31220 0.10580 0.90010 0.04000
C 	C 	0.23940 0.16700 0.89241 -0.10400
H 	H 	0.20130 0.16970 0.88800 0.07200
C 	C 	0.33780 0.15910 0.90424 -0.09500
H 	H 	0.37580 0.15640 0.90900 0.07700
C 	C 	0.27460 0.19550 0.87210 0.02900
C 	C 	0.32870 0.19130 0.87940 0.02400
C 	C 	0.36830 0.21640 0.86490 -0.07800
H 	H 	0.40430 0.21490 0.86970 0.06200
C 	C 	0.34900 0.24460 0.84220 -0.03600
H 	H 	0.37340 0.26370 0.83180 0.04400
C 	C 	0.30040 0.24540 0.83540 -0.02700
H 	H 	0.29060 0.26320 0.81960 0.03000
C 	C 	0.26170 0.22070 0.85050 -0.08800
H 	H 	0.22600 0.22230 0.84520 0.04700
C 	C 	0.25210 0.18980 0.91920 0.03600
C 	C 	0.30600 0.18460 0.92550 0.02400
C 	C 	0.32330 0.20280 0.95010 -0.06900
H 	H 	0.35900 0.19940 0.95520 0.05100
C 	C 	0.28600 0.22670 0.96740 -0.04100
H 	H 	0.29680 0.23930 0.98420 0.03800
C 	C 	0.23560 0.23130 0.95990 -0.01500
H 	H 	0.21110 0.24660 0.97180 0.03400
C 	C 	0.21880 0.21450 0.93570 -0.08700
H 	H 	0.18350 0.22020 0.93050 0.05700
C 	C 	0.97560 0.68300 0.87080 0.35800
O 	O 	0.00310 0.66050 0.85320 -0.46000
O 	O 	0.93650 0.66420 0.88287 -0.48900
C 	C 	0.01400 0.90550 0.88200 0.45800
O 	O 	0.03890 0.92780 0.86630 -0.52300
O 	O 	0.98690 0.92950 0.89920 -0.49800
C 	C 	0.98770 0.73920 0.87554 -0.10200
C 	C 	0.00270 0.77100 0.85440 -0.02100
H 	H 	0.00670 0.75520 0.83750 0.04600
C 	C 	0.01180 0.82200 0.85660 0.00800
H 	H 	0.02060 0.84180 0.84130 0.04300
C 	C 	0.00860 0.84700 0.88150 -0.13800
C 	C 	0.99600 0.81620 0.90360 0.05600
C 	C 	0.98380 0.76250 0.90014 0.03600
C 	C 	0.99190 0.83400 0.93258 -0.10600
H 	H 	0.99840 0.87240 0.93490 0.07400
C 	C 	0.97390 0.73540 0.92705 -0.09000
H 	H 	0.96680 0.69710 0.92490 0.06700
C 	C 	0.03180 0.79910 0.94810 0.03200
C 	C 	0.01970 0.74500 0.94480 0.02200
C 	C 	0.05090 0.70580 0.95650 -0.07500
H 	H 	0.04540 0.66940 0.95360 0.04900
C 	C 	0.09130 0.72540 0.97330 -0.03200
H 	H 	0.11340 0.70080 0.98190 0.03000
C 	C 	0.09970 0.77490 0.97750 -0.02500
H 	H 	0.12630 0.78550 0.98950 0.03300
C 	C 	0.06960 0.81250 0.96430 -0.08500
H 	H 	0.07680 0.84860 0.96710 0.05600
C 	C 	0.93810 0.81770 0.94156 0.04100
C 	C 	0.92850 0.76330 0.93880 0.02400
C 	C 	0.87950 0.74330 0.94590 -0.06500
H 	H 	0.87050 0.70790 0.94220 0.05800
C 	C 	0.84230 0.77820 0.95920 -0.04100
H 	H 	0.80980 0.76560 0.96570 0.04300
C 	C 	0.85570 0.82790 0.96190 -0.01400
H 	H 	0.83150 0.85070 0.97030 0.03700
C 	C 	0.90280 0.84910 0.95310 -0.08600
H 	H 	0.90980 0.88540 0.95530 0.06000
C 	C 	0.54110 0.00280 0.95511 0.39100
O 	O 	0.57960 0.98380 0.94262 -0.48000
O 	O 	0.50520 0.02330 0.94290 -0.46800
C 	C 	0.54450 0.96900 0.06789 0.44400
O 	O 	0.58040 0.94240 0.07626 -0.51200
O 	O 	0.51340 0.99520 0.08120 -0.54500
C 	C 	0.53670 0.99280 0.98403 -0.11700
C 	C 	0.58290 0.97480 0.99689 -0.02300
H 	H 	0.61320 0.96650 0.98680 0.04800
C 	C 	0.58330 0.96970 0.02326 0.00800
H 	H 	0.61580 0.96330 0.03190 0.03600
C 	C 	0.53870 0.97320 0.03838 -0.13300
C 	C 	0.49210 0.99010 0.02643 0.05200
C 	C 	0.49180 0.99930 0.99881 0.05100
C 	C 	0.43800 0.99760 0.03890 -0.09600
H 	H 	0.43800 0.99080 0.05840 0.07500
C 	C 	0.43720 0.01560 0.98940 -0.10900
H 	H 	0.43670 0.02220 0.96990 0.08800
C 	C 	0.39970 0.96160 0.02360 0.02400
C 	C 	0.39950 0.97300 0.99690 0.03700
C 	C 	0.36340 0.94920 0.97980 -0.08300
H 	H 	0.36080 0.95700 0.96140 0.06100
C 	C 	0.33080 0.91180 0.99310 -0.02000
H 	H 	0.30230 0.89780 0.98330 0.03400
C 	C 	0.33650 0.89540 0.01700 -0.03300
H 	H 	0.32190 0.86350 0.02330 0.03700
C 	C 	0.36530 0.92800 0.03230 -0.07200
H 	H 	0.36000 0.92620 0.05090 0.05500
C 	C 	0.42340 0.05260 0.03220 0.02800
C 	C 	0.42200 0.06230 0.00430 0.03700
C 	C 	0.40740 0.11110 0.99520 -0.08300
H 	H 	0.40460 0.11830 0.97680 0.07100
C 	C 	0.39670 0.15010 0.01440 -0.02800
H 	H 	0.39330 0.18560 0.00900 0.03800
C 	C 	0.39120 0.13800 0.04020 -0.03100
H 	H 	0.37630 0.16270 0.05210 0.04200
C 	C 	0.40720 0.08970 0.04920 -0.08000
H 	H 	0.40670 0.08250 0.06770 0.05800
C 	C 	0.67120 0.03410 0.87840 0.39400
O 	O 	0.64910 0.06960 0.86500 -0.51600
O 	O 	0.64930 0.00260 0.89400 -0.51900
C 	C 	0.89810 0.04250 0.87420 0.37100
O 	O 	0.91740 0.05950 0.85378 -0.36500
O 	O 	0.92280 0.03410 0.89538 -0.47600
C 	C 	0.73000 0.03000 0.87720 -0.11600
C 	C 	0.75650 0.06790 0.86190 0.00400
H 	H 	0.73590 0.09230 0.85220 0.04600
C 	C 	0.80870 0.07160 0.86020 -0.02100
H 	H 	0.82470 0.09750 0.84930 0.06300
C 	C 	0.83940 0.03570 0.87500 -0.07200
C 	C 	0.81620 0.99690 0.89050 0.03200
C 	C 	0.76030 0.99410 0.89050 0.06100
C 	C 	0.84240 0.95670 0.90830 -0.08400
H 	H 	0.88120 0.96190 0.90960 0.06800
C 	C 	0.74320 0.94570 0.90590 -0.10600
H 	H 	0.70430 0.94090 0.90500 0.08000
C 	C 	0.82730 0.90170 0.89690 0.03000
C 	C 	0.77140 0.89870 0.89490 0.03700
C 	C 	0.74820 0.85440 0.88400 -0.08300
H 	H 	0.71130 0.84960 0.88300 0.06200
C 	C 	0.78480 0.81720 0.87450 -0.01600
H 	H 	0.77130 0.78940 0.86390 0.03500
C 	C 	0.83510 0.81720 0.87870 -0.03100
H 	H 	0.85590 0.78710 0.87520 0.04500
C 	C 	0.85760 0.86340 0.88880 -0.07000
H 	H 	0.89460 0.86680 0.88980 0.07100
C 	C 	0.81560 0.96240 0.93460 0.02700
C 	C 	0.76090 0.95260 0.93360 0.03500
C 	C 	0.73380 0.95680 0.95720 -0.08100
H 	H 	0.69680 0.95290 0.95740 0.06000
C 	C 	0.76160 0.96690 0.98110 -0.02700
H 	H 	0.74390 0.96460 0.99760 0.04200
C 	C 	0.81250 0.97960 0.98050 -0.02700
H 	H 	0.82880 0.99460 0.99560 0.04000
C 	C 	0.84080 0.97100 0.95810 -0.07200
H 	H 	0.87800 0.97110 0.95880 0.05400
C 	C 	0.98340 0.40720 0.86830 0.39700
O 	O 	0.01820 0.43250 0.88054 -0.48300
O 	O 	0.94440 0.42610 0.85691 -0.50200
C 	C 	0.01520 0.18280 0.86790 0.41600
O 	O 	0.04950 0.16810 0.88329 -0.54200
O 	O 	0.98830 0.15270 0.85360 -0.57300
C 	C 	0.98980 0.34910 0.86710 -0.10800
C 	C 	0.01170 0.32330 0.88900 -0.01800
H 	H 	0.02210 0.34310 0.90400 0.04300
C 	C 	0.01820 0.27130 0.88900 0.00200
H 	H 	0.03170 0.25460 0.90440 0.03900
C 	C 	0.00540 0.24110 0.86680 -0.13000
C 	C 	0.98250 0.26420 0.84455 0.04800
C 	C 	0.97410 0.31960 0.84540 0.05100
C 	C 	0.96310 0.23930 0.81950 -0.09100
H 	H 	0.96660 0.20030 0.81960 0.05400
C 	C 	0.95220 0.33900 0.81940 -0.10500
H 	H 	0.94770 0.37790 0.81950 0.07800
C 	C 	0.99400 0.26530 0.79630 0.01000
C 	C 	0.98900 0.32170 0.79780 0.04500
C 	C 	0.01550 0.35300 0.77950 -0.09200
H 	H 	0.01380 0.39020 0.78010 0.06800
C 	C 	0.04520 0.32600 0.76000 -0.00600
H 	H 	0.06060 0.34590 0.74610 0.03700
C 	C 	0.05240 0.27570 0.76010 -0.05100
H 	H 	0.07500 0.25970 0.74750 0.04400
C 	C 	0.02600 0.24500 0.77930 -0.05400
H 	H 	0.03200 0.20830 0.77970 0.01700
C 	C 	0.90700 0.25710 0.81640 0.03900
C 	C 	0.90160 0.31200 0.81550 0.03400
C 	C 	0.85240 0.33240 0.81360 -0.06800
H 	H 	0.84810 0.36940 0.81320 0.05700
C 	C 	0.80650 0.29900 0.81190 -0.04000
H 	H 	0.77220 0.31330 0.81140 0.04600
C 	C 	0.81450 0.24660 0.81110 -0.01000
H 	H 	0.78530 0.22360 0.80980 0.03600
C 	C 	0.86460 0.22630 0.81200 -0.08400
H 	H 	0.86950 0.18970 0.80960 0.07600
C 	C 	0.03950 0.05730 0.94330 0.42100
O 	O 	0.01240 0.01810 0.93422 -0.50700
O 	O 	0.05650 0.09260 0.93037 -0.52900
C 	C 	0.04940 0.05190 0.97160 -0.12700
C 	C 	0.01530 0.02000 0.98690 -0.01200
H 	H 	0.98820 0.00120 0.97820 0.05100
C 	C 	0.08270 0.08560 0.98660 0.04800
C 	C 	0.12170 0.12500 0.97450 -0.09100
H 	H 	0.12020 0.12620 0.95470 0.07500
C 	C 	0.10780 0.17840 0.98769 0.02900
C 	C 	0.09100 0.22180 0.97340 -0.07400
H 	H 	0.08870 0.22160 0.95470 0.05700
C 	C 	0.17690 0.10610 0.98540 0.02700
C 	C 	0.21900 0.09610 0.97030 -0.07300
H 	H 	0.21760 0.09780 0.95150 0.06300
C 	C 	0.07800 0.26520 0.98830 -0.02600
H 	H 	0.06530 0.29560 0.97950 0.04200
C 	C 	0.26630 0.08270 0.98420 -0.03000
H 	H 	0.29800 0.07720 0.97480 0.04600
O 	O 	0.53230 0.04840 0.88754 -0.96100
O 	O 	0.00830 0.06180 0.81330 4.35100
C 	C 	0.02960 0.01180 0.77730 0.66900
C 	C 	0.03660 0.02080 0.80600 1.42100
O 	O 	0.07050 0.99970 0.81810 -1.33400
C 	C 	0.96700 0.00900 0.76410 0.47200
C 	C 	0.10100 0.93770 0.77100 -0.09300
H 	H 	0.11490 0.94290 0.78940 0.05500
C 	C 	0.06130 0.89150 0.77010 0.11300
C 	C 	0.07400 0.84960 0.78610 0.58000
H 	H 	0.08840 0.85340 0.80330 -0.17500
C 	C 	0.06200 0.80110 0.77490 -0.78700
C 	C 	0.03890 0.95300 0.76590 0.26500
C 	C 	0.17830 0.96000 0.76550 1.09700
H 	H 	0.17840 0.96800 0.78380 -0.34500
C 	C 	0.22430 0.96400 0.75100 -0.50000
C 	C 	0.13270 0.94300 0.75390 0.18900
C 	C 	0.08920 0.92310 0.77410 -0.06600
C 	C 	0.06840 0.98580 0.76200 -0.34300
H 	H 	0.09900 0.92830 0.79310 0.04000
O 	O 	0.14910 0.95200 0.83820 -0.26400
C 	C 	0.15720 0.90640 0.84600 0.13100
H 	H 	0.13380 0.89270 0.85890 0.14200
N 	N 	0.19560 0.87520 0.83790 -0.23200
C 	C 	0.23400 0.89900 0.82010 0.08500
H 	H 	0.22400 0.93580 0.81690 0.00900
H 	H 	0.23440 0.88010 0.80330 -0.69300
H 	H 	0.26870 0.89790 0.82830 0.08900
C 	C 	0.21130 0.82700 0.84620 -0.73600
H 	H 	0.24470 0.81800 0.83770 0.27300
H 	H 	0.18470 0.80100 0.84130 0.06900
H 	H 	0.21580 0.82730 0.86550 0.24900
O 	O 	0.51920 0.10990 0.95170 -0.33200
C 	C 	0.52700 0.15670 0.95630 -0.02900
H 	H 	0.52300 0.18080 0.94210 0.19100
N 	N 	0.54070 0.17600 0.98020 -0.33000
C 	C 	0.54990 0.13950 0.00170 -0.23400
H 	H 	0.56840 0.15750 0.01610 -0.08100
H 	H 	0.57140 0.11020 0.99530 0.09300
H 	H 	0.51630 0.12610 0.00820 0.25700
C 	C 	0.54540 0.22680 0.98720 0.09200
H 	H 	0.55150 0.22930 0.00630 -0.00800
H 	H 	0.51310 0.24550 0.98260 -0.02100
H 	H 	0.57500 0.24240 0.97760 -0.02000
O 	O 	0.50610 0.14870 0.94260 -0.43700
C 	C 	0.50700 0.14520 0.96710 0.48500
H 	H 	0.47560 0.13340 0.97520 -0.11800
N 	N 	0.54700 0.15570 0.98380 0.20200
C 	C 	0.53800 0.14900 0.01190 -0.12800
H 	H 	0.57100 0.15260 0.02150 0.19000
H 	H 	0.52350 0.11360 0.01510 -0.12700
H 	H 	0.51280 0.17520 0.01820 0.05300
C 	C 	0.59700 0.16900 0.97810 -0.25300
H 	H 	0.61670 0.17360 0.99460 0.09400
H 	H 	0.59750 0.20180 0.96800 0.10500
H 	H 	0.61330 0.14110 0.96760 0.08400
C 	C 	0.02160 0.01040 0.80590 -1.29200
O 	O 	0.99130 0.05050 0.81220 -4.75300
O 	O 	0.04790 0.98460 0.82060 0.78300
H 	H 	0.93140 0.00630 0.76930 0.02200
C 	C 	0.01150 0.99400 0.77830 -0.48800
C 	C 	0.00470 0.04720 0.76090 -0.42100
C 	C 	0.07000 0.86540 0.76770 -0.28800
H 	H 	0.08710 0.78130 0.78460 0.15100
C 	C 	0.06600 0.82740 0.78550 -0.05100
H 	H 	0.07630 0.83280 0.80340 0.00400
C 	C 	0.14740 0.93950 0.74960 -0.19000
C 	C 	0.19680 0.94350 0.75800 -0.74000
C 	C 	0.23820 0.95700 0.73900 0.56000
H 	H 	0.25590 0.97510 0.75940 0.14200
C 	C 	0.04700 0.77640 0.77630 0.61500
H 	H 	0.02860 0.72750 0.76240 -0.17700
H 	H 	0.20520 0.93760 0.77610 0.10000
H 	H 	0.04170 0.74700 0.78760 -0.21700
O 	O 	0.96090 0.95630 0.37185 -0.99900
Zn	Zn	0.00412 0.99466 0.39746 1.21100
Zn	Zn	0.49966 0.90977 0.41604 1.23400
Zn	Zn	0.07616 0.41096 0.38569 1.21000
Zn	Zn	0.42311 0.00226 0.40438 1.20800
Zn	Zn	0.00814 0.92268 0.34759 1.17000
Zn	Zn	0.92791 0.90190 0.39221 1.20700
Zn	Zn	0.51846 0.99084 0.36774 1.21600
Zn	Zn	0.91150 0.00684 0.35729 1.23100
O 	O 	0.86670 0.07290 0.35340 -0.43600
C 	C 	0.82740 0.07850 0.33870 0.25300
H 	H 	0.81010 0.04850 0.33190 0.02300
N 	N 	0.80960 0.12680 0.33260 -0.00100
C 	C 	0.83190 0.17140 0.34550 0.51900
H 	H 	0.81240 0.20290 0.34040 -0.01800
H 	H 	0.86860 0.17520 0.34020 -0.15400
H 	H 	0.83000 0.16670 0.36470 -0.12200
C 	C 	0.76820 0.13990 0.31630 0.50100
H 	H 	0.76210 0.17780 0.31720 -0.18100
H 	H 	0.73660 0.12130 0.32210 -0.15000
H 	H 	0.77660 0.12990 0.29800 0.49700
C 	C 	0.60380 0.94760 0.40080 0.38100
O 	O 	0.58370 0.98340 0.38620 -0.50300
O 	O 	0.57830 0.91870 0.41592 -0.45400
C 	C 	0.82710 0.93520 0.38240 0.43700
O 	O 	0.84550 0.96770 0.36760 -0.53100
O 	O 	0.85320 0.89970 0.39300 -0.52800
C 	C 	0.66170 0.94210 0.39830 -0.11000
C 	C 	0.69140 0.98710 0.39370 -0.01900
H 	H 	0.67510 0.02050 0.39460 0.04500
C 	C 	0.74380 0.98390 0.38790 -0.00100
H 	H 	0.76270 0.01480 0.38360 0.03500
C 	C 	0.76980 0.93550 0.38840 -0.13700
C 	C 	0.74150 0.88960 0.39340 0.05600
C 	C 	0.68780 0.89420 0.40010 0.04000
C 	C 	0.76060 0.83300 0.39241 -0.10400
H 	H 	0.79870 0.83030 0.38800 0.07200
C 	C 	0.66220 0.84090 0.40424 -0.09500
H 	H 	0.62420 0.84360 0.40900 0.07700
C 	C 	0.72540 0.80450 0.37210 0.02900
C 	C 	0.67130 0.80870 0.37940 0.02400
C 	C 	0.63170 0.78360 0.36490 -0.07800
H 	H 	0.59570 0.78510 0.36970 0.06200
C 	C 	0.65100 0.75540 0.34220 -0.03600
H 	H 	0.62660 0.73630 0.33180 0.04400
C 	C 	0.69960 0.75460 0.33540 -0.02700
H 	H 	0.70940 0.73680 0.31960 0.03000
C 	C 	0.73830 0.77930 0.35050 -0.08800
H 	H 	0.77400 0.77770 0.34520 0.04700
C 	C 	0.74790 0.81020 0.41920 0.03600
C 	C 	0.69400 0.81540 0.42550 0.02400
C 	C 	0.67670 0.79720 0.45010 -0.06900
H 	H 	0.64100 0.80060 0.45520 0.05100
C 	C 	0.71400 0.77330 0.46740 -0.04100
H 	H 	0.70320 0.76070 0.48420 0.03800
C 	C 	0.76440 0.76870 0.45990 -0.01500
H 	H 	0.78890 0.75340 0.47180 0.03400
C 	C 	0.78120 0.78550 0.43570 -0.08700
H 	H 	0.81650 0.77980 0.43050 0.05700
C 	C 	0.02440 0.31700 0.37080 0.35800
O 	O 	0.99690 0.33950 0.35320 -0.46000
O 	O 	0.06350 0.33580 0.38287 -0.48900
C 	C 	0.98600 0.09450 0.38200 0.45800
O 	O 	0.96110 0.07220 0.36630 -0.52300
O 	O 	0.01310 0.07050 0.39920 -0.49800
C 	C 	0.01230 0.26080 0.37554 -0.10200
C 	C 	0.99730 0.22900 0.35440 -0.02100
H 	H 	0.99330 0.24480 0.33750 0.04600
C 	C 	0.98820 0.17800 0.35660 0.00800
H 	H 	0.97940 0.15820 0.34130 0.04300
C 	C 	0.99140 0.15300 0.38150 -0.13800
C 	C 	0.00400 0.18380 0.40360 0.05600
C 	C 	0.01620 0.23750 0.40014 0.03600
C 	C 	0.00810 0.16600 0.43258 -0.10600
H 	H 	0.00160 0.12760 0.43490 0.07400
C 	C 	0.02610 0.26460 0.42705 -0.09000
H 	H 	0.03320 0.30290 0.42490 0.06700
C 	C 	0.96820 0.20090 0.44810 0.03200
C 	C 	0.98030 0.25500 0.44480 0.02200
C 	C 	0.94910 0.29420 0.45650 -0.07500
H 	H 	0.95460 0.33060 0.45360 0.04900
C 	C 	0.90870 0.27460 0.47330 -0.03200
H 	H 	0.88660 0.29920 0.48190 0.03000
C 	C 	0.90030 0.22510 0.47750 -0.02500
H 	H 	0.87370 0.21450 0.48950 0.03300
C 	C 	0.93040 0.18750 0.46430 -0.08500
H 	H 	0.92320 0.15140 0.46710 0.05600
C 	C 	0.06190 0.18230 0.44156 0.04100
C 	C 	0.07150 0.23670 0.43880 0.02400
C 	C 	0.12050 0.25670 0.44590 -0.06500
H 	H 	0.12950 0.29210 0.44220 0.05800
C 	C 	0.15770 0.22180 0.45920 -0.04100
H 	H 	0.19020 0.23440 0.46570 0.04300
C 	C 	0.14430 0.17210 0.46190 -0.01400
H 	H 	0.16850 0.14930 0.47030 0.03700
C 	C 	0.09720 0.15090 0.45310 -0.08600
H 	H 	0.09020 0.11460 0.45530 0.06000
C 	C 	0.45890 0.99720 0.45511 0.39100
O 	O 	0.42040 0.01620 0.44262 -0.48000
O 	O 	0.49480 0.97670 0.44290 -0.46800
C 	C 	0.45550 0.03100 0.56789 0.44400
O 	O 	0.41960 0.05760 0.57626 -0.51200
O 	O 	0.48660 0.00480 0.58120 -0.54500
C 	C 	0.46330 0.00720 0.48403 -0.11700
C 	C 	0.41710 0.02520 0.49689 -0.02300
H 	H 	0.38680 0.03350 0.48680 0.04800
C 	C 	0.41670 0.03030 0.52326 0.00800
H 	H 	0.38420 0.03670 0.53190 0.03600
C 	C 	0.46130 0.02680 0.53838 -0.13300
C 	C 	0.50790 0.00990 0.52643 0.05200
C 	C 	0.50820 0.00070 0.49881 0.05100
C 	C 	0.56200 0.00240 0.53890 -0.09600
H 	H 	0.56200 0.00920 0.55840 0.07500
C 	C 	0.56280 0.98440 0.48940 -0.10900
H 	H 	0.56330 0.97780 0.46990 0.08800
C 	C 	0.60030 0.03840 0.52360 0.02400
C 	C 	0.60050 0.02700 0.49690 0.03700
C 	C 	0.63660 0.05080 0.47980 -0.08300
H 	H 	0.63920 0.04300 0.46140 0.06100
C 	C 	0.66920 0.08820 0.49310 -0.02000
H 	H 	0.69770 0.10220 0.48330 0.03400
C 	C 	0.66350 0.10460 0.51700 -0.03400
H 	H 	0.67810 0.13650 0.52330 0.03700
C 	C 	0.63470 0.07200 0.53230 -0.07200
H 	H 	0.64000 0.07380 0.55090 0.05500
C 	C 	0.57660 0.94740 0.53220 0.02800
C 	C 	0.57800 0.93770 0.50430 0.03700
C 	C 	0.59260 0.88890 0.49520 -0.08400
H 	H 	0.59540 0.88170 0.47680 0.07100
C 	C 	0.60330 0.84990 0.51440 -0.02700
H 	H 	0.60670 0.81440 0.50900 0.03800
C 	C 	0.60880 0.86200 0.54020 -0.03100
H 	H 	0.62370 0.83730 0.55210 0.04200
C 	C 	0.59280 0.91030 0.54920 -0.08000
H 	H 	0.59330 0.91750 0.56770 0.05800
C 	C 	0.32880 0.96590 0.37840 0.39400
O 	O 	0.35090 0.93040 0.36500 -0.51600
O 	O 	0.35070 0.99740 0.39400 -0.51900
C 	C 	0.10190 0.95750 0.37420 0.37100
O 	O 	0.08260 0.94050 0.35378 -0.36500
O 	O 	0.07720 0.96590 0.39538 -0.47600
C 	C 	0.27000 0.97000 0.37720 -0.11600
C 	C 	0.24350 0.93210 0.36190 0.00400
H 	H 	0.26410 0.90770 0.35220 0.04600
C 	C 	0.19130 0.92840 0.36020 -0.02100
H 	H 	0.17530 0.90250 0.34930 0.06300
C 	C 	0.16060 0.96430 0.37500 -0.07200
C 	C 	0.18380 0.00310 0.39050 0.03200
C 	C 	0.23970 0.00590 0.39050 0.06100
C 	C 	0.15760 0.04330 0.40830 -0.08400
H 	H 	0.11880 0.03810 0.40960 0.06800
C 	C 	0.25680 0.05430 0.40590 -0.10600
H 	H 	0.29570 0.05910 0.40500 0.08000
C 	C 	0.17270 0.09830 0.39690 0.03000
C 	C 	0.22860 0.10130 0.39490 0.03700
C 	C 	0.25180 0.14560 0.38400 -0.08300
H 	H 	0.28870 0.15040 0.38300 0.06200
C 	C 	0.21520 0.18280 0.37450 -0.01600
H 	H 	0.22870 0.21060 0.36390 0.03500
C 	C 	0.16490 0.18280 0.37870 -0.03100
H 	H 	0.14410 0.21290 0.37520 0.04500
C 	C 	0.14240 0.13660 0.38880 -0.07000
H 	H 	0.10540 0.13320 0.38980 0.07100
C 	C 	0.18440 0.03760 0.43460 0.02700
C 	C 	0.23910 0.04740 0.43360 0.03500
C 	C 	0.26620 0.04320 0.45720 -0.08100
H 	H 	0.30320 0.04710 0.45740 0.06000
C 	C 	0.23840 0.03310 0.48110 -0.02700
H 	H 	0.25610 0.03540 0.49760 0.04200
C 	C 	0.18750 0.02040 0.48050 -0.02700
H 	H 	0.17120 0.00540 0.49560 0.04000
C 	C 	0.15920 0.02900 0.45810 -0.07200
H 	H 	0.12200 0.02890 0.45880 0.05400
C 	C 	0.01660 0.59280 0.36830 0.39700
O 	O 	0.98180 0.56750 0.38054 -0.48300
O 	O 	0.05560 0.57390 0.35691 -0.50200
C 	C 	0.98480 0.81720 0.36790 0.41600
O 	O 	0.95050 0.83190 0.38329 -0.54200
O 	O 	0.01170 0.84730 0.35360 -0.57300
C 	C 	0.01020 0.65090 0.36710 -0.10800
C 	C 	0.98830 0.67670 0.38900 -0.01800
H 	H 	0.97790 0.65690 0.40400 0.04300
C 	C 	0.98180 0.72870 0.38900 0.00200
H 	H 	0.96830 0.74540 0.40440 0.03900
C 	C 	0.99460 0.75890 0.36680 -0.13000
C 	C 	0.01750 0.73580 0.34455 0.04800
C 	C 	0.02590 0.68040 0.34540 0.05100
C 	C 	0.03690 0.76070 0.31950 -0.09100
H 	H 	0.03340 0.79970 0.31960 0.05400
C 	C 	0.04780 0.66100 0.31940 -0.10500
H 	H 	0.05230 0.62210 0.31950 0.07800
C 	C 	0.00600 0.73470 0.29630 0.01000
C 	C 	0.01100 0.67830 0.29780 0.04500
C 	C 	0.98450 0.64700 0.27950 -0.09200
H 	H 	0.98620 0.60980 0.28010 0.06800
C 	C 	0.95480 0.67400 0.26000 -0.00600
H 	H 	0.93940 0.65410 0.24610 0.03700
C 	C 	0.94760 0.72430 0.26010 -0.05100
H 	H 	0.92500 0.74030 0.24750 0.04400
C 	C 	0.97400 0.75500 0.27930 -0.05400
H 	H 	0.96800 0.79170 0.27970 0.01700
C 	C 	0.09300 0.74290 0.31640 0.03900
C 	C 	0.09840 0.68800 0.31550 0.03400
C 	C 	0.14760 0.66760 0.31360 -0.06800
H 	H 	0.15190 0.63060 0.31320 0.05700
C 	C 	0.19350 0.70100 0.31190 -0.04000
H 	H 	0.22780 0.68670 0.31140 0.04600
C 	C 	0.18550 0.75340 0.31110 -0.01000
H 	H 	0.21470 0.77640 0.30980 0.03600
C 	C 	0.13540 0.77370 0.31200 -0.08400
H 	H 	0.13050 0.81030 0.30960 0.07600
C 	C 	0.96050 0.94270 0.44330 0.42100
O 	O 	0.98760 0.98190 0.43422 -0.50700
O 	O 	0.94350 0.90740 0.43037 -0.52900
C 	C 	0.95060 0.94810 0.47160 -0.12700
C 	C 	0.98470 0.98000 0.48690 -0.01200
H 	H 	0.01180 0.99880 0.47820 0.05100
C 	C 	0.91730 0.91440 0.48660 0.04800
C 	C 	0.87830 0.87500 0.47450 -0.09100
H 	H 	0.87980 0.87380 0.45470 0.07500
C 	C 	0.89220 0.82160 0.48769 0.02900
C 	C 	0.90900 0.77820 0.47340 -0.07400
H 	H 	0.91130 0.77840 0.45470 0.05700
C 	C 	0.82310 0.89390 0.48540 0.02700
C 	C 	0.78100 0.90390 0.47030 -0.07300
H 	H 	0.78240 0.90220 0.45150 0.06300
C 	C 	0.92200 0.73480 0.48830 -0.02600
H 	H 	0.93470 0.70440 0.47950 0.04200
C 	C 	0.73370 0.91730 0.48420 -0.03000
H 	H 	0.70200 0.92280 0.47480 0.04600
O 	O 	0.46770 0.95160 0.38754 -0.96100
O 	O 	0.99170 0.93820 0.31330 4.35100
C 	C 	0.97040 0.98820 0.27730 0.66900
C 	C 	0.96340 0.97920 0.30600 1.42100
O 	O 	0.92950 0.00030 0.31810 -1.33400
C 	C 	0.03300 0.99100 0.26410 0.47200
C 	C 	0.89900 0.06230 0.27100 -0.09400
H 	H 	0.88510 0.05710 0.28940 0.05500
C 	C 	0.93870 0.10850 0.27010 0.11300
C 	C 	0.92600 0.15040 0.28610 0.58000
H 	H 	0.91160 0.14660 0.30330 -0.17500
C 	C 	0.93800 0.19890 0.27490 -0.78700
C 	C 	0.96110 0.04700 0.26590 0.26500
C 	C 	0.82170 0.04000 0.26550 1.09700
H 	H 	0.82160 0.03200 0.28380 -0.34500
C 	C 	0.77570 0.03600 0.25100 -0.50000
C 	C 	0.86730 0.05700 0.25390 0.18900
C 	C 	0.91080 0.07690 0.27410 -0.06600
C 	C 	0.93160 0.01420 0.26200 -0.34300
H 	H 	0.90100 0.07170 0.29310 0.04000
O 	O 	0.85090 0.04800 0.33820 -0.26400
C 	C 	0.84280 0.09360 0.34600 0.13100
H 	H 	0.86620 0.10730 0.35890 0.14200
N 	N 	0.80440 0.12480 0.33790 -0.23200
C 	C 	0.76600 0.10100 0.32010 0.08500
H 	H 	0.77600 0.06420 0.31690 0.00900
H 	H 	0.76560 0.11990 0.30330 -0.69300
H 	H 	0.73130 0.10210 0.32830 0.08900
C 	C 	0.78870 0.17300 0.34620 -0.73600
H 	H 	0.75530 0.18200 0.33770 0.27300
H 	H 	0.81530 0.19900 0.34130 0.06900
H 	H 	0.78420 0.17270 0.36550 0.24900
O 	O 	0.48080 0.89010 0.45170 -0.33200
C 	C 	0.47300 0.84330 0.45630 -0.02900
H 	H 	0.47700 0.81920 0.44210 0.19100
N 	N 	0.45930 0.82400 0.48020 -0.32900
C 	C 	0.45010 0.86050 0.50170 -0.23400
H 	H 	0.43160 0.84250 0.51610 -0.08100
H 	H 	0.42860 0.88980 0.49530 0.09300
H 	H 	0.48370 0.87390 0.50820 0.25700
C 	C 	0.45460 0.77320 0.48720 0.09200
H 	H 	0.44850 0.77070 0.50630 -0.00800
H 	H 	0.48690 0.75450 0.48260 -0.02100
H 	H 	0.42500 0.75760 0.47760 -0.02000
O 	O 	0.49390 0.85130 0.44260 -0.43700
C 	C 	0.49300 0.85480 0.46710 0.48500
H 	H 	0.52440 0.86660 0.47520 -0.11800
N 	N 	0.45300 0.84430 0.48380 0.20200
C 	C 	0.46200 0.85100 0.51190 -0.12800
H 	H 	0.42900 0.84740 0.52150 0.19000
H 	H 	0.47650 0.88640 0.51510 -0.12700
H 	H 	0.48720 0.82480 0.51820 0.05300
C 	C 	0.40300 0.83100 0.47810 -0.25300
H 	H 	0.38330 0.82640 0.49460 0.09400
H 	H 	0.40250 0.79820 0.46800 0.10500
H 	H 	0.38670 0.85890 0.46760 0.08400
C 	C 	0.97840 0.98960 0.30590 -1.29200
O 	O 	0.00870 0.94950 0.31220 -4.75400
O 	O 	0.95210 0.01540 0.32060 0.78300
H 	H 	0.06860 0.99370 0.26930 0.02200
C 	C 	0.98850 0.00600 0.27830 -0.48800
C 	C 	0.99530 0.95280 0.26090 -0.42100
C 	C 	0.93000 0.13460 0.26770 -0.28800
H 	H 	0.91290 0.21870 0.28460 0.15100
C 	C 	0.93400 0.17260 0.28550 -0.05000
H 	H 	0.92370 0.16720 0.30340 0.00400
C 	C 	0.85260 0.06050 0.24960 -0.19000
C 	C 	0.80320 0.05650 0.25800 -0.74000
C 	C 	0.76180 0.04300 0.23900 0.56000
H 	H 	0.74410 0.02490 0.25940 0.14200
C 	C 	0.95300 0.22360 0.27630 0.61500
H 	H 	0.97140 0.27250 0.26240 -0.17700
H 	H 	0.79480 0.06240 0.27610 0.10000
H 	H 	0.95830 0.25300 0.28760 -0.21700
