data_crystal

_cell_length_a 23.31000
_cell_length_b 15.34070
_cell_length_c 23.68400
_cell_angle_alpha 90.00000
_cell_angle_beta  113.84500
_cell_angle_gamma 90.00000

_symmetry_space_group_name_	'P 1'
_symmetry_space_group_name_H-M	'P 1'

loop_
_symmetry_equiv_pos_as_xyz
  x,y,z

loop_
_atom_site_label
_atom_site_type_symbol
_atom_site_fract_x
_atom_site_fract_y
_atom_site_fract_z
_atom_site_charge
O 	O 	0.34730 0.78450 0.58700 -0.95600
Zn	Zn	0.34135 0.82552 0.50787 1.20500
Zn	Zn	0.39112 0.87092 0.64768 1.21100
Zn	Zn	0.83008 0.79245 0.00899 1.23300
Zn	Zn	0.39979 0.67299 0.60785 1.17200
Zn	Zn	0.26504 0.76562 0.58576 1.20500
O 	O 	0.81170 0.88120 0.94540 -0.32200
C 	C 	0.77970 0.87580 0.89130 0.44400
H 	H 	0.76710 0.81650 0.88480 -0.00900
N 	N 	0.75380 0.91170 0.83730 -0.10500
C 	C 	0.79180 0.99500 0.84200 -0.37100
H 	H 	0.77460 0.02560 0.80240 0.11600
H 	H 	0.83560 0.97940 0.85210 0.13800
H 	H 	0.78930 0.03230 0.87440 0.13700
C 	C 	0.72030 0.88500 0.77760 -0.13600
H 	H 	0.70920 0.93650 0.75040 0.09600
H 	H 	0.68190 0.85590 0.77470 0.26700
H 	H 	0.74570 0.84530 0.76520 0.05300
O 	O 	0.54990 0.24060 0.44060 -0.49200
O 	O 	0.61690 0.26400 0.53810 -0.47100
O 	O 	0.41760 0.97390 0.61380 -0.50200
O 	O 	0.37430 0.94530 0.51260 -0.48900
C 	C 	0.52980 0.16750 0.51910 -0.08200
C 	C 	0.46600 0.16060 0.48070 -0.04600
H 	H 	0.44860 0.19660 0.44510 0.04900
C 	C 	0.42770 0.10190 0.49380 0.01300
H 	H 	0.38490 0.09580 0.46630 0.03000
C 	C 	0.45270 0.05130 0.54830 -0.13900
C 	C 	0.51690 0.05830 0.58700 0.07200
C 	C 	0.55550 0.11600 0.57270 0.00700
C 	C 	0.62370 0.11280 0.61890 -0.05200
H 	H 	0.65120 0.15400 0.60840 0.05100
C 	C 	0.55320 0.00420 0.64560 -0.15800
H 	H 	0.52590 0.96280 0.65610 0.09000
C 	C 	0.64280 0.01710 0.61880 -0.05800
C 	C 	0.60320 0.95960 0.63270 0.09200
C 	C 	0.61450 0.86940 0.63390 -0.14500
H 	H 	0.58830 0.83010 0.64360 0.07300
C 	C 	0.66240 0.83820 0.62150 0.03000
H 	H 	0.66930 0.77710 0.62230 0.01200
C 	C 	0.70210 0.89520 0.60730 -0.10200
H 	H 	0.73500 0.87260 0.59780 0.05800
C 	C 	0.69280 0.98580 0.60730 0.01100
H 	H 	0.72040 0.02490 0.59960 0.00200
C 	C 	0.62430 0.12920 0.68210 0.00700
C 	C 	0.58480 0.06970 0.69540 0.05100
C 	C 	0.57830 0.07820 0.75160 -0.09300
H 	H 	0.55180 0.04030 0.76210 0.05700
C 	C 	0.61340 0.14670 0.79270 -0.01700
H 	H 	0.61070 0.15300 0.83150 0.02800
C 	C 	0.64970 0.20160 0.77800 -0.04300
H 	H 	0.67140 0.24630 0.80640 0.04100
C 	C 	0.65660 0.19540 0.72260 -0.05900
H 	H 	0.68250 0.23500 0.71270 0.05300
C 	C 	0.56990 0.22960 0.49880 0.30800
C 	C 	0.41250 0.98440 0.56070 0.41100
O 	O 	0.46960 0.83900 0.71520 -0.50500
O 	O 	0.47080 0.69800 0.69230 -0.50300
C 	C 	0.54290 0.75040 0.78960 -0.11800
C 	C 	0.54380 0.80700 0.83640 -0.00900
H 	H 	0.51230 0.85050 0.82740 0.03500
C 	C 	0.58990 0.80030 0.89560 -0.02800
H 	H 	0.58850 0.83750 0.92710 0.05000
C 	C 	0.63800 0.74090 0.90980 -0.08700
C 	C 	0.63840 0.68330 0.86350 0.03800
C 	C 	0.58960 0.68720 0.80430 0.03900
C 	C 	0.59670 0.61880 0.75990 -0.08300
H 	H 	0.56230 0.62110 0.71750 0.05900
C 	C 	0.68770 0.61190 0.87000 -0.09800
H 	H 	0.72220 0.60920 0.91220 0.08200
C 	C 	0.60120 0.53130 0.79220 0.01400
C 	C 	0.64940 0.52910 0.85190 0.03500
C 	C 	0.65890 0.45220 0.88780 -0.08300
H 	H 	0.69130 0.44910 0.92820 0.05700
C 	C 	0.62030 0.38260 0.86290 -0.01300
H 	H 	0.62700 0.33040 0.88640 0.02600
C 	C 	0.57260 0.38530 0.80590 -0.04300
H 	H 	0.54600 0.33600 0.79120 0.04700
C 	C 	0.56230 0.45800 0.76920 -0.05600
H 	H 	0.52950 0.45870 0.72900 0.04200
C 	C 	0.66180 0.63090 0.76040 0.01200
C 	C 	0.71110 0.62870 0.81970 0.03800
C 	C 	0.77300 0.63800 0.82730 -0.08600
H 	H 	0.80580 0.63830 0.86750 0.07300
C 	C 	0.78700 0.64700 0.77540 -0.02100
H 	H 	0.82940 0.65060 0.78000 0.03900
C 	C 	0.73730 0.65080 0.71590 -0.03900
H 	H 	0.74620 0.65820 0.68040 0.04000
C 	C 	0.67520 0.64350 0.70950 -0.06900
H 	H 	0.64200 0.64730 0.66970 0.04700
C 	C 	0.48960 0.76230 0.72620 0.40500
O 	O 	0.67890 0.77500 0.01670 -0.47500
C 	C 	0.69200 0.74550 0.97300 0.34900
O 	O 	0.74420 0.71520 0.98080 -0.45800
O 	O 	0.35120 0.61220 0.65280 -0.52700
O 	O 	0.25070 0.64920 0.61170 -0.50900
C 	C 	0.27970 0.53390 0.68240 -0.11900
C 	C 	0.21860 0.53170 0.67880 -0.00300
H 	H 	0.18780 0.56790 0.64960 0.03900
C 	C 	0.20180 0.48020 0.71510 -0.02200
H 	H 	0.15980 0.48190 0.71180 0.05100
C 	C 	0.24610 0.42240 0.75910 -0.10300
C 	C 	0.30640 0.41960 0.76010 0.04600
C 	C 	0.32370 0.47650 0.72170 0.04600
C 	C 	0.39370 0.46570 0.73390 -0.09000
H 	H 	0.40720 0.50620 0.70860 0.06300
C 	C 	0.36040 0.35860 0.79970 -0.09700
H 	H 	0.34760 0.31760 0.82530 0.07700
C 	C 	0.42900 0.48010 0.80200 0.02900
C 	C 	0.41120 0.42310 0.83920 0.02800
C 	C 	0.43900 0.42990 0.90480 -0.07300
H 	H 	0.42830 0.39140 0.93050 0.05700
C 	C 	0.48170 0.49480 0.92840 -0.02500
H 	H 	0.50100 0.50090 0.97200 0.04200
C 	C 	0.49850 0.55090 0.89430 -0.02800
H 	H 	0.52880 0.59450 0.91460 0.04400
C 	C 	0.47270 0.54730 0.82970 -0.07300
H 	H 	0.48410 0.58800 0.80580 0.06400
C 	C 	0.40090 0.37020 0.72060 0.01700
C 	C 	0.38290 0.31280 0.75810 0.03500
C 	C 	0.38930 0.22130 0.75100 -0.08200
H 	H 	0.37810 0.18110 0.77530 0.06200
C 	C 	0.41160 0.19140 0.70920 -0.01600
H 	H 	0.41480 0.13030 0.70450 0.03800
C 	C 	0.42970 0.24790 0.67390 -0.04300
H 	H 	0.44640 0.22590 0.64620 0.05000
C 	C 	0.42300 0.33890 0.67940 -0.06200
H 	H 	0.43400 0.37810 0.65430 0.03900
C 	C 	0.29630 0.60280 0.64560 0.40100
O 	O 	0.95080 0.86420 0.20560 -0.49800
O 	O 	0.96270 0.72270 0.20780 -0.50700
O 	O 	0.19740 0.79130 0.50560 -0.47500
O 	O 	0.25450 0.84110 0.44850 -0.47800
C 	C 	0.03860 0.80740 0.28490 -0.12500
C 	C 	0.04540 0.75390 0.33580 0.01000
H 	H 	0.01400 0.71200 0.33230 0.03300
C 	C 	0.09820 0.76260 0.39140 -0.03800
H 	H 	0.10210 0.72690 0.42560 0.04900
C 	C 	0.14510 0.82260 0.39760 -0.06800
C 	C 	0.13700 0.87590 0.34650 0.03000
C 	C 	0.08470 0.86880 0.29010 0.05700
C 	C 	0.08200 0.93800 0.24190 -0.08600
H 	H 	0.04310 0.93390 0.20290 0.06900
C 	C 	0.18310 0.94760 0.34490 -0.07800
H 	H 	0.22200 0.95230 0.38380 0.07300
C 	C 	0.14240 0.92480 0.23160 0.02100
C 	C 	0.19540 0.93010 0.28760 0.03500
C 	C 	0.25460 0.92270 0.28810 -0.08100
H 	H 	0.29100 0.92640 0.32560 0.06300
C 	C 	0.25880 0.91070 0.23680 -0.01000
H 	H 	0.29980 0.90590 0.23780 0.03700
C 	C 	0.20620 0.90370 0.17610 -0.03900
H 	H 	0.21390 0.89430 0.14010 0.04700
C 	C 	0.14330 0.91090 0.17160 -0.06100
H 	H 	0.10690 0.90710 0.13410 0.05900
C 	C 	0.08910 0.02550 0.27370 0.02600
C 	C 	0.14390 0.02910 0.32850 0.01000
C 	C 	0.15490 0.11310 0.36150 -0.06600
H 	H 	0.19040 0.11890 0.39950 0.04700
C 	C 	0.11800 0.17860 0.34040 -0.02800
H 	H 	0.12780 0.23270 0.36170 0.03500
C 	C 	0.06200 0.17030 0.28450 -0.03100
H 	H 	0.03400 0.21810 0.27000 0.04300
C 	C 	0.04940 0.09480 0.25320 -0.06900
H 	H 	0.01250 0.08960 0.21620 0.05100
C 	C 	0.97900 0.79670 0.22750 0.44500
C 	C 	0.20460 0.82060 0.45610 0.30400
O 	O 	0.24960 0.84650 0.64390 -0.48800
O 	O 	0.33960 0.91690 0.68790 -0.49200
O 	O 	0.92030 0.63640 0.07740 -0.49500
O 	O 	0.86980 0.69380 0.98290 -0.44900
C 	C 	0.94130 0.58050 0.99490 -0.09900
C 	C 	0.96250 0.60940 0.95190 -0.01000
H 	H 	0.94950 0.66480 0.93320 0.04100
C 	C 	0.00270 0.55910 0.93540 -0.01300
H 	H 	0.01890 0.58220 0.90760 0.04100
C 	C 	0.01960 0.47650 0.95840 -0.11300
C 	C 	0.99490 0.44180 0.99810 0.05800
C 	C 	0.95650 0.49380 0.01690 0.03200
C 	C 	0.93270 0.44830 0.06000 -0.08000
H 	H 	0.90620 0.48660 0.07390 0.06400
C 	C 	0.00160 0.34910 0.02460 -0.09900
H 	H 	0.02830 0.31090 0.01090 0.08400
C 	C 	0.89640 0.36730 0.02180 0.01800
C 	C 	0.93290 0.31520 0.00260 0.02700
C 	C 	0.90780 0.24240 0.96930 -0.07500
H 	H 	0.93330 0.20570 0.95680 0.05900
C 	C 	0.84560 0.22070 0.95320 -0.03100
H 	H 	0.82680 0.17190 0.92780 0.03200
C 	C 	0.81030 0.27710 0.97770 -0.02900
H 	H 	0.76880 0.26080 0.97110 0.03200
C 	C 	0.83350 0.34910 0.00820 -0.07200
H 	H 	0.80860 0.38720 0.02050 0.05200
C 	C 	0.99000 0.41350 0.11270 0.01600
C 	C 	0.02800 0.36030 0.09440 0.03800
C 	C 	0.08380 0.32430 0.13640 -0.08300
H 	H 	0.10880 0.28830 0.12270 0.06100
C 	C 	0.10250 0.34270 0.20010 -0.02900
H 	H 	0.14060 0.32010 0.22980 0.03500
C 	C 	0.06480 0.39320 0.21770 -0.03500
H 	H 	0.07660 0.40400 0.26050 0.03800
C 	C 	0.00970 0.42960 0.17580 -0.06100
H 	H 	0.98520 0.46570 0.19000 0.05300
C 	C 	0.90790 0.64060 0.02110 0.37800
O 	O 	0.83540 0.78960 0.09300 -0.94200
Zn	Zn	0.75356 0.76830 0.09287 1.20700
Zn	Zn	0.88889 0.69359 0.13346 1.21700
Zn	Zn	0.86724 0.90010 0.13700 1.19600
O 	O 	0.14770 0.09900 0.83550 -0.52800
O 	O 	0.24690 0.14510 0.87910 -0.52100
C 	C 	0.28650 0.89720 0.68340 0.28100
C 	C 	0.26430 0.93920 0.72800 0.23200
C 	C 	0.20280 0.93360 0.72220 -0.52300
C 	C 	0.18290 0.98150 0.76130 0.40000
C 	C 	0.22500 0.03380 0.80770 -0.42000
C 	C 	0.28850 0.01480 0.82460 0.51300
C 	C 	0.30880 0.97370 0.78380 -0.46700
C 	C 	0.20470 0.09590 0.84510 0.51000
C 	C 	0.15530 0.85190 0.69340 -0.89500
C 	C 	0.12310 0.93990 0.76770 0.08100
C 	C 	0.07390 0.94500 0.70150 -0.10100
C 	C 	0.09350 0.89800 0.66100 0.25800
C 	C 	0.05510 0.90300 0.59480 -0.25900
C 	C 	0.01400 0.97100 0.57990 0.12400
C 	C 	0.99400 0.01900 0.61800 -0.16500
C 	C 	0.02410 0.00600 0.67970 0.03600
H 	H 	0.01200 0.03790 0.70770 0.01900
H 	H 	0.96080 0.06000 0.60160 0.07900
H 	H 	0.99590 0.98720 0.53760 -0.00700
H 	H 	0.05860 0.86430 0.56530 0.11900
C 	C 	0.12720 0.84280 0.78150 -0.17600
C 	C 	0.14570 0.79360 0.74080 0.39700
C 	C 	0.11620 0.80100 0.82740 0.10700
C 	C 	0.14610 0.70390 0.74570 -0.33500
C 	C 	0.13400 0.66180 0.79340 0.16700
C 	C 	0.11600 0.71100 0.83230 -0.21100
H 	H 	0.10820 0.83480 0.85690 -0.00100
H 	H 	0.10490 0.68410 0.86220 0.09700
H 	H 	0.13720 0.60030 0.79820 -0.04500
H 	H 	0.15480 0.66940 0.71680 0.14600
H 	H 	0.11030 0.97380 0.79680 0.03900
H 	H 	0.16710 0.81740 0.66390 0.26600
C 	C 	0.06820 0.42920 0.94220 0.38400
O 	O 	0.08020 0.34910 0.95280 -0.32000
O 	O 	0.08240 0.46020 0.90060 -0.15000
C 	C 	0.22580 0.37890 0.80480 0.38800
O 	O 	0.27010 0.34700 0.85150 -0.33100
O 	O 	0.17650 0.41700 0.80710 -0.33400
O 	O 	0.76830 0.84340 0.92780 -0.35000
H 	H 	0.82400 0.87780 0.90460 -0.02300
C 	C 	0.68560 0.88080 0.80390 -0.61600
H 	H 	0.66660 0.90840 0.76320 0.12100
H 	H 	0.66180 0.89690 0.82830 0.23100
H 	H 	0.68480 0.81730 0.79900 0.09900
C 	C 	0.76900 0.93700 0.78800 0.14500
H 	H 	0.73120 0.96190 0.75510 -0.07700
H 	H 	0.78310 0.88670 0.77230 -0.03500
H 	H 	0.80180 0.98150 0.80230 0.00800
O 	O 	0.10310 0.37540 0.98580 -0.21800
O 	O 	0.09330 0.47350 0.91310 -0.29700
O 	O 	0.16860 0.36450 0.79360 -0.24000
O 	O 	0.26070 0.32360 0.84010 -0.14000
H 	H 	0.14040 0.97830 0.75610 -0.11800
H 	H 	0.17390 0.89700 0.69140 0.61100
C 	C 	0.33900 0.01290 0.89460 0.58400
H 	H 	0.32370 0.04390 0.92300 -0.10400
C 	C 	0.37810 0.93300 0.82220 -0.58500
H 	H 	0.39380 0.90150 0.79430 0.18200
C 	C 	0.39470 0.06000 0.88930 -0.19700
C 	C 	0.41600 0.01530 0.84860 0.17700
C 	C 	0.47810 0.03900 0.84810 -0.19700
H 	H 	0.50250 0.00160 0.83460 0.08900
C 	C 	0.49490 0.12200 0.87010 0.08500
H 	H 	0.52450 0.15160 0.85880 -0.00400
C 	C 	0.47180 0.16600 0.90720 -0.15700
H 	H 	0.49160 0.21930 0.92540 0.07900
C 	C 	0.42210 0.13830 0.91980 0.09100
H 	H 	0.40760 0.16880 0.94640 0.00400
C 	C 	0.36280 0.92180 0.91750 -0.31500
C 	C 	0.38510 0.87790 0.87760 0.34100
C 	C 	0.41490 0.79720 0.89470 -0.30100
H 	H 	0.43260 0.76890 0.86990 0.13300
C 	C 	0.41770 0.75900 0.94970 0.16000
H 	H 	0.43470 0.70210 0.96060 -0.02500
C 	C 	0.39600 0.80300 0.98860 -0.22500
H 	H 	0.40400 0.78080 0.02840 0.10000
C 	C 	0.36200 0.88150 0.96920 0.18200
H 	H 	0.33940 0.90560 0.99090 -0.03300
H 	H 	0.31820 0.03030 0.86460 -0.43100
H 	H 	0.35230 0.96870 0.79340 0.43000
O 	O 	0.65270 0.28450 0.41300 -0.95500
Zn	Zn	0.65865 0.32552 0.49213 1.20600
Zn	Zn	0.60888 0.37092 0.35232 1.21200
Zn	Zn	0.16992 0.29245 0.99101 1.23400
Zn	Zn	0.60021 0.17299 0.39215 1.17200
Zn	Zn	0.73496 0.26562 0.41424 1.20500
O 	O 	0.18830 0.38120 0.05460 -0.32300
C 	C 	0.22030 0.37580 0.10870 0.44100
H 	H 	0.23290 0.31650 0.11520 -0.00800
N 	N 	0.24620 0.41170 0.16270 -0.09700
C 	C 	0.20820 0.49500 0.15800 -0.44600
H 	H 	0.22540 0.52560 0.19760 0.14600
H 	H 	0.16440 0.47940 0.14790 0.15600
H 	H 	0.21070 0.53230 0.12560 0.16700
C 	C 	0.27970 0.38500 0.22240 -0.10400
H 	H 	0.29080 0.43650 0.24960 0.08000
H 	H 	0.31810 0.35590 0.22530 0.27200
H 	H 	0.25430 0.34530 0.23480 0.04200
O 	O 	0.45010 0.74060 0.55940 -0.49300
O 	O 	0.38310 0.76400 0.46190 -0.47200
O 	O 	0.58240 0.47390 0.38620 -0.50100
O 	O 	0.62570 0.44530 0.48740 -0.48900
C 	C 	0.47020 0.66750 0.48090 -0.09100
C 	C 	0.53400 0.66060 0.51930 -0.03400
H 	H 	0.55140 0.69660 0.55490 0.04600
C 	C 	0.57230 0.60190 0.50620 0.00000
H 	H 	0.61510 0.59580 0.53370 0.03700
C 	C 	0.54730 0.55130 0.45170 -0.11600
C 	C 	0.48310 0.55830 0.41300 0.05000
C 	C 	0.44450 0.61600 0.42730 0.02500
C 	C 	0.37630 0.61280 0.38110 -0.08500
H 	H 	0.34880 0.65400 0.39160 0.06100
C 	C 	0.44680 0.50420 0.35440 -0.09900
H 	H 	0.47410 0.46280 0.34390 0.06700
C 	C 	0.35720 0.51710 0.38120 0.00700
C 	C 	0.39680 0.45960 0.36730 0.02900
C 	C 	0.38550 0.36940 0.36610 -0.09400
H 	H 	0.41170 0.33010 0.35640 0.05600
C 	C 	0.33760 0.33820 0.37850 -0.02000
H 	H 	0.33070 0.27710 0.37770 0.02900
C 	C 	0.29790 0.39520 0.39270 -0.04800
H 	H 	0.26500 0.37260 0.40220 0.03700
C 	C 	0.30720 0.48580 0.39270 -0.06900
H 	H 	0.27960 0.52490 0.40040 0.03500
C 	C 	0.37570 0.62920 0.31790 0.02800
C 	C 	0.41520 0.56970 0.30460 0.02900
C 	C 	0.42170 0.57820 0.24840 -0.07500
H 	H 	0.44820 0.54030 0.23790 0.05400
C 	C 	0.38660 0.64670 0.20730 -0.03000
H 	H 	0.38930 0.65300 0.16850 0.03400
C 	C 	0.35030 0.70160 0.22200 -0.02800
H 	H 	0.32860 0.74630 0.19360 0.03600
C 	C 	0.34340 0.69540 0.27740 -0.07400
H 	H 	0.31750 0.73500 0.28730 0.05800
C 	C 	0.43010 0.72960 0.50120 0.31200
C 	C 	0.58750 0.48440 0.43930 0.39500
O 	O 	0.53040 0.33900 0.28480 -0.50600
O 	O 	0.52920 0.19800 0.30770 -0.50400
C 	C 	0.45710 0.25040 0.21040 -0.11800
C 	C 	0.45620 0.30700 0.16360 -0.00900
H 	H 	0.48770 0.35050 0.17260 0.03300
C 	C 	0.41010 0.30030 0.10440 -0.02900
H 	H 	0.41150 0.33750 0.07290 0.04900
C 	C 	0.36200 0.24090 0.09020 -0.08700
C 	C 	0.36160 0.18330 0.13650 0.03700
C 	C 	0.41040 0.18720 0.19570 0.03900
C 	C 	0.40330 0.11880 0.24010 -0.08000
H 	H 	0.43770 0.12110 0.28250 0.05700
C 	C 	0.31230 0.11190 0.13000 -0.09500
H 	H 	0.27780 0.10920 0.08780 0.08000
C 	C 	0.39880 0.03130 0.20780 0.00500
C 	C 	0.35060 0.02910 0.14810 0.02700
C 	C 	0.34110 0.95220 0.11220 -0.07200
H 	H 	0.30870 0.94910 0.07180 0.05600
C 	C 	0.37970 0.88260 0.13710 -0.01500
H 	H 	0.37300 0.83040 0.11360 0.02700
C 	C 	0.42740 0.88530 0.19410 -0.04600
H 	H 	0.45400 0.83600 0.20880 0.04900
C 	C 	0.43770 0.95800 0.23080 -0.04300
H 	H 	0.47050 0.95870 0.27100 0.04100
C 	C 	0.33820 0.13090 0.23960 0.01000
C 	C 	0.28890 0.12870 0.18030 0.03600
C 	C 	0.22700 0.13800 0.17270 -0.08600
H 	H 	0.19420 0.13830 0.13250 0.07200
C 	C 	0.21300 0.14700 0.22460 -0.02200
H 	H 	0.17060 0.15060 0.22000 0.03900
C 	C 	0.26270 0.15080 0.28410 -0.04000
H 	H 	0.25380 0.15820 0.31960 0.03900
C 	C 	0.32480 0.14350 0.29050 -0.07000
H 	H 	0.35800 0.14730 0.33030 0.04600
C 	C 	0.51040 0.26230 0.27380 0.40600
O 	O 	0.32110 0.27500 0.98330 -0.47500
C 	C 	0.30800 0.24550 0.02700 0.34900
O 	O 	0.25580 0.21520 0.01920 -0.45900
O 	O 	0.64880 0.11220 0.34720 -0.52800
O 	O 	0.74930 0.14920 0.38830 -0.51000
C 	C 	0.72030 0.03390 0.31760 -0.12200
C 	C 	0.78140 0.03170 0.32120 -0.02100
H 	H 	0.81220 0.06790 0.35040 0.04300
C 	C 	0.79820 0.98020 0.28490 -0.00200
H 	H 	0.84020 0.98190 0.28820 0.04700
C 	C 	0.75390 0.92240 0.24090 -0.10800
C 	C 	0.69360 0.91960 0.23990 0.05000
C 	C 	0.67630 0.97650 0.27830 0.05000
C 	C 	0.60630 0.96570 0.26610 -0.07400
H 	H 	0.59280 0.00620 0.29140 0.05300
C 	C 	0.63960 0.85860 0.20030 -0.10400
H 	H 	0.65240 0.81760 0.17470 0.08000
C 	C 	0.57100 0.98010 0.19800 0.02400
C 	C 	0.58880 0.92310 0.16080 0.04100
C 	C 	0.56100 0.92990 0.09520 -0.10000
H 	H 	0.57170 0.89140 0.06950 0.06800
C 	C 	0.51830 0.99480 0.07160 0.02600
H 	H 	0.49900 0.00090 0.02800 0.02000
C 	C 	0.50150 0.05090 0.10570 -0.06600
H 	H 	0.47120 0.09450 0.08540 0.05600
C 	C 	0.52730 0.04730 0.17030 -0.06200
H 	H 	0.51590 0.08800 0.19420 0.05900
C 	C 	0.59910 0.87020 0.27940 0.01200
C 	C 	0.61710 0.81280 0.24190 0.03900
C 	C 	0.61070 0.72130 0.24900 -0.08400
H 	H 	0.62190 0.68110 0.22470 0.06300
C 	C 	0.58840 0.69140 0.29080 -0.01300
H 	H 	0.58520 0.63030 0.29550 0.04000
C 	C 	0.57030 0.74790 0.32610 -0.04400
H 	H 	0.55360 0.72590 0.35380 0.05100
C 	C 	0.57700 0.83890 0.32060 -0.05800
H 	H 	0.56600 0.87810 0.34570 0.04000
C 	C 	0.70370 0.10280 0.35440 0.40100
O 	O 	0.04920 0.36420 0.79440 -0.49900
O 	O 	0.03730 0.22270 0.79220 -0.50800
O 	O 	0.80260 0.29130 0.49440 -0.47600
O 	O 	0.74550 0.34110 0.55150 -0.47900
C 	C 	0.96140 0.30740 0.71510 -0.12500
C 	C 	0.95460 0.25390 0.66420 0.00900
H 	H 	0.98600 0.21200 0.66770 0.03300
C 	C 	0.90180 0.26260 0.60860 -0.03800
H 	H 	0.89790 0.22690 0.57440 0.04800
C 	C 	0.85490 0.32260 0.60240 -0.06900
C 	C 	0.86300 0.37590 0.65350 0.03000
C 	C 	0.91530 0.36880 0.70990 0.05700
C 	C 	0.91800 0.43800 0.75810 -0.09400
H 	H 	0.95690 0.43390 0.79710 0.07000
C 	C 	0.81690 0.44760 0.65510 -0.08600
H 	H 	0.77800 0.45230 0.61620 0.07300
C 	C 	0.85760 0.42480 0.76840 0.02100
C 	C 	0.80460 0.43010 0.71240 0.03500
C 	C 	0.74540 0.42270 0.71190 -0.08300
H 	H 	0.70900 0.42640 0.67440 0.06100
C 	C 	0.74120 0.41070 0.76320 -0.01100
H 	H 	0.70020 0.40590 0.76220 0.03600
C 	C 	0.79380 0.40370 0.82390 -0.04000
H 	H 	0.78610 0.39430 0.85990 0.04700
C 	C 	0.85670 0.41090 0.82840 -0.06300
H 	H 	0.89310 0.40710 0.86590 0.05800
C 	C 	0.91090 0.52550 0.72630 0.03400
C 	C 	0.85610 0.52910 0.67150 0.01800
C 	C 	0.84510 0.61310 0.63850 -0.06800
H 	H 	0.80960 0.61890 0.60050 0.05000
C 	C 	0.88200 0.67860 0.65960 -0.02700
H 	H 	0.87220 0.73270 0.63830 0.03500
C 	C 	0.93800 0.67030 0.71550 -0.02900
H 	H 	0.96600 0.71810 0.73000 0.04300
C 	C 	0.95060 0.59480 0.74680 -0.07200
H 	H 	0.98750 0.58960 0.78380 0.05500
C 	C 	0.02100 0.29670 0.77250 0.44400
C 	C 	0.79540 0.32060 0.54390 0.30300
O 	O 	0.75040 0.34650 0.35610 -0.49100
O 	O 	0.66040 0.41690 0.31210 -0.49700
O 	O 	0.07970 0.13640 0.92260 -0.50000
O 	O 	0.13020 0.19380 0.01710 -0.44900
C 	C 	0.05870 0.08050 0.00510 -0.11700
C 	C 	0.03750 0.10940 0.04810 0.00500
H 	H 	0.05050 0.16480 0.06680 0.03600
C 	C 	0.99730 0.05910 0.06460 -0.03600
H 	H 	0.98110 0.08220 0.09240 0.04700
C 	C 	0.98040 0.97650 0.04160 -0.09200
C 	C 	0.00510 0.94180 0.00190 0.04100
C 	C 	0.04350 0.99380 0.98310 0.05300
C 	C 	0.06730 0.94830 0.94000 -0.08900
H 	H 	0.09380 0.98660 0.92610 0.07000
C 	C 	0.99840 0.84910 0.97540 -0.08900
H 	H 	0.97170 0.81090 0.98910 0.08100
C 	C 	0.10360 0.86730 0.97820 0.02500
C 	C 	0.06710 0.81520 0.99740 0.02000
C 	C 	0.09220 0.74240 0.03070 -0.06900
H 	H 	0.06670 0.70570 0.04320 0.05800
C 	C 	0.15440 0.72070 0.04680 -0.03400
H 	H 	0.17320 0.67190 0.07220 0.03400
C 	C 	0.18970 0.77710 0.02230 -0.02400
H 	H 	0.23120 0.76080 0.02890 0.03200
C 	C 	0.16650 0.84910 0.99180 -0.07800
H 	H 	0.19140 0.88720 0.97950 0.05500
C 	C 	0.01000 0.91350 0.88730 0.01900
C 	C 	0.97200 0.86030 0.90560 0.03600
C 	C 	0.91620 0.82430 0.86360 -0.08100
H 	H 	0.89120 0.78830 0.87730 0.06100
C 	C 	0.89750 0.84270 0.79990 -0.02800
H 	H 	0.85940 0.82010 0.77020 0.03500
C 	C 	0.93520 0.89320 0.78230 -0.03500
H 	H 	0.92340 0.90400 0.73950 0.04100
C 	C 	0.99030 0.92960 0.82420 -0.05800
H 	H 	0.01480 0.96570 0.81000 0.05500
C 	C 	0.09210 0.14060 0.97890 0.37900
O 	O 	0.16460 0.28960 0.90700 -0.94200
Zn	Zn	0.24644 0.26830 0.90713 1.20700
Zn	Zn	0.11111 0.19359 0.86654 1.21600
Zn	Zn	0.13276 0.40010 0.86300 1.19500
O 	O 	0.85230 0.59900 0.16450 -0.52000
O 	O 	0.75310 0.64510 0.12090 -0.51700
C 	C 	0.71350 0.39720 0.31660 0.29300
C 	C 	0.73570 0.43920 0.27200 0.19800
C 	C 	0.79720 0.43360 0.27780 -0.46600
C 	C 	0.81710 0.48150 0.23870 0.33100
C 	C 	0.77500 0.53380 0.19230 -0.36700
C 	C 	0.71150 0.51480 0.17540 0.45800
C 	C 	0.69120 0.47370 0.21620 -0.43300
C 	C 	0.79530 0.59590 0.15490 0.49200
C 	C 	0.84470 0.35190 0.30660 -0.83500
C 	C 	0.87690 0.43990 0.23230 0.02900
C 	C 	0.92610 0.44500 0.29850 -0.09300
C 	C 	0.90650 0.39800 0.33900 0.23800
C 	C 	0.94490 0.40300 0.40520 -0.24000
C 	C 	0.98600 0.47100 0.42010 0.09800
C 	C 	0.00600 0.51900 0.38200 -0.14200
C 	C 	0.97590 0.50600 0.32030 0.03300
H 	H 	0.98800 0.53790 0.29230 0.02400
H 	H 	0.03920 0.56000 0.39840 0.07300
H 	H 	0.00410 0.48720 0.46240 -0.00300
H 	H 	0.94140 0.36430 0.43470 0.11200
C 	C 	0.87280 0.34280 0.21850 -0.14400
C 	C 	0.85430 0.29360 0.25920 0.36300
C 	C 	0.88380 0.30100 0.17260 0.08100
C 	C 	0.85390 0.20390 0.25430 -0.31100
C 	C 	0.86600 0.16180 0.20660 0.14600
C 	C 	0.88400 0.21100 0.16770 -0.19000
H 	H 	0.89180 0.33480 0.14310 0.00700
H 	H 	0.89510 0.18410 0.13780 0.08900
H 	H 	0.86280 0.10030 0.20180 -0.04000
H 	H 	0.84520 0.16940 0.28320 0.13600
H 	H 	0.88970 0.47380 0.20320 0.04800
H 	H 	0.83290 0.31740 0.33610 0.25100
C 	C 	0.93180 0.92920 0.05780 0.37800
O 	O 	0.91980 0.84910 0.04720 -0.31900
O 	O 	0.91760 0.96020 0.09940 -0.14600
C 	C 	0.77420 0.87890 0.19520 0.39000
O 	O 	0.72990 0.84700 0.14850 -0.33200
O 	O 	0.82350 0.91700 0.19290 -0.33200
O 	O 	0.23170 0.34340 0.07220 -0.35000
H 	H 	0.17600 0.37780 0.09540 -0.02200
C 	C 	0.31440 0.38080 0.19610 -0.66300
H 	H 	0.33340 0.40840 0.23680 0.12800
H 	H 	0.33820 0.39690 0.17170 0.24400
H 	H 	0.31520 0.31730 0.20100 0.10900
C 	C 	0.23100 0.43700 0.21200 0.13800
H 	H 	0.26880 0.46190 0.24490 -0.07300
H 	H 	0.21690 0.38670 0.22770 -0.03300
H 	H 	0.19820 0.48150 0.19770 0.01100
O 	O 	0.89690 0.87540 0.01420 -0.21700
O 	O 	0.90670 0.97350 0.08690 -0.29600
O 	O 	0.83140 0.86450 0.20640 -0.24100
O 	O 	0.73930 0.82360 0.15990 -0.13900
H 	H 	0.85960 0.47830 0.24390 -0.07300
H 	H 	0.82610 0.39700 0.30860 0.56500
C 	C 	0.66100 0.51290 0.10540 0.48400
H 	H 	0.67630 0.54390 0.07700 -0.07600
C 	C 	0.62190 0.43300 0.17780 -0.56900
H 	H 	0.60620 0.40150 0.20570 0.17700
C 	C 	0.60530 0.56000 0.11070 -0.16900
C 	C 	0.58400 0.51530 0.15140 0.17500
C 	C 	0.52190 0.53900 0.15190 -0.18900
H 	H 	0.49750 0.50160 0.16540 0.09100
C 	C 	0.50510 0.62200 0.12990 0.07600
H 	H 	0.47550 0.65160 0.14120 -0.00000
C 	C 	0.52820 0.66600 0.09280 -0.14400
H 	H 	0.50840 0.71930 0.07460 0.07500
C 	C 	0.57790 0.63830 0.08020 0.07200
H 	H 	0.59240 0.66880 0.05360 0.01100
C 	C 	0.63720 0.42180 0.08250 -0.28100
C 	C 	0.61490 0.37790 0.12240 0.31800
C 	C 	0.58510 0.29720 0.10530 -0.28400
H 	H 	0.56740 0.26890 0.13010 0.12600
C 	C 	0.58230 0.25900 0.05030 0.14300
H 	H 	0.56530 0.20210 0.03940 -0.02000
C 	C 	0.60400 0.30300 0.01140 -0.20600
H 	H 	0.59600 0.28080 0.97160 0.09300
C 	C 	0.63800 0.38150 0.03080 0.15400
H 	H 	0.66060 0.40560 0.00910 -0.02600
H 	H 	0.68180 0.53030 0.13540 -0.35900
H 	H 	0.64770 0.46870 0.20660 0.40900
