data_crystal

_cell_length_a 19.55600
_cell_length_b 16.33000
_cell_length_c 25.57300
_cell_angle_alpha 90.00000
_cell_angle_beta  91.09700
_cell_angle_gamma 90.00000

_symmetry_space_group_name_	'P 1'
_symmetry_space_group_name_H-M	'P 1'

loop_
_symmetry_equiv_pos_as_xyz
  x,y,z

loop_
_atom_site_label
_atom_site_type_symbol
_atom_site_fract_x
_atom_site_fract_y
_atom_site_fract_z
_atom_site_charge
C 	C 	0.37000 0.38910 0.21910 0.40300
C 	C 	0.12320 0.93660 0.37060 0.03600
C 	C 	0.45840 0.59960 0.02590 -0.03400
H 	H 	0.42960 0.61870 0.99820 0.04400
C 	C 	0.12380 0.06470 0.23340 0.38400
C 	C 	0.27580 0.23740 0.35440 0.39900
C 	C 	0.61110 0.58500 0.26310 0.41900
C 	C 	0.47590 0.46110 0.18600 0.04800
C 	C 	0.42770 0.45000 0.22380 -0.10600
C 	C 	0.13940 0.82290 0.31220 0.03300
C 	C 	0.53500 0.37800 0.12440 0.03100
C 	C 	0.01400 0.90020 0.29860 0.04300
C 	C 	0.06850 0.00620 0.24650 -0.12100
C 	C 	0.07340 0.94150 0.28350 0.05000
C 	C 	0.58310 0.51000 0.15060 -0.10000
H 	H 	0.62660 0.54040 0.15800 0.07700
C 	C 	0.95270 0.91100 0.27230 -0.11600
C 	C 	0.31570 0.31050 0.43760 0.05500
C 	C 	0.28460 0.25680 0.52210 -0.10400
C 	C 	0.53710 0.50710 0.19820 0.05400
C 	C 	0.24970 0.19400 0.49640 -0.02200
H 	H 	0.22520 0.15510 0.51630 0.04200
C 	C 	0.06060 0.90400 0.38690 0.01900
C 	C 	0.02660 0.84600 0.34820 -0.08400
H 	H 	0.98420 0.81960 0.36160 0.05900
C 	C 	0.54870 0.38140 0.49660 -0.03300
H 	H 	0.59050 0.38260 0.51620 0.04400
C 	C 	0.13710 0.91510 0.31400 -0.10400
H 	H 	0.17970 0.94120 0.30080 0.08000
C 	C 	0.31920 0.46570 0.48500 0.01000
C 	C 	0.43700 0.48840 0.27310 -0.01800
H 	H 	0.40310 0.48350 0.29900 0.04200
C 	C 	0.59600 0.41920 0.13700 0.03000
C 	C 	0.15960 0.98850 0.40240 -0.08400
H 	H 	0.19970 0.01430 0.39010 0.05800
C 	C 	0.28190 0.24660 0.41250 -0.12400
C 	C 	0.31650 0.31500 0.49200 0.03300
C 	C 	0.48610 0.38610 0.52290 -0.06600
H 	H 	0.48510 0.38980 0.55990 0.05500
C 	C 	0.13730 0.00330 0.45320 -0.01900
H 	H 	0.16390 0.03640 0.47640 0.03100
C 	C 	0.35530 0.38120 0.41280 -0.10200
H 	H 	0.35690 0.37740 0.37380 0.07500
C 	C 	0.48200 0.50430 0.09470 0.02200
C 	C 	0.24990 0.18700 0.44280 -0.00500
H 	H 	0.22820 0.14150 0.42620 0.03600
C 	C 	0.48900 0.37880 0.41400 -0.07600
H 	H 	0.48970 0.38070 0.37690 0.05600
C 	C 	0.35340 0.39220 0.51280 -0.08200
H 	H 	0.35220 0.39680 0.55180 0.05800
C 	C 	0.28980 0.52940 0.50940 -0.06600
H 	H 	0.28880 0.53210 0.54640 0.03800
C 	C 	0.08090 0.78500 0.33140 0.01800
C 	C 	0.65910 0.38270 0.13350 -0.07100
H 	H 	0.70010 0.41260 0.14000 0.05500
C 	C 	0.51500 0.63990 0.03770 -0.01800
H 	H 	0.52580 0.68780 0.01840 0.04300
C 	C 	0.53670 0.29540 0.11090 -0.07500
H 	H 	0.49600 0.26590 0.10270 0.06200
C 	C 	0.19130 0.69370 0.29880 -0.01700
H 	H 	0.22890 0.66190 0.28730 0.03700
C 	C 	0.00600 0.01600 0.21980 -0.01000
H 	H 	0.00210 0.05470 0.19220 0.03600
C 	C 	0.54570 0.53930 0.24680 -0.11800
C 	C 	0.94940 0.96930 0.23360 -0.01000
H 	H 	0.90700 0.97810 0.21560 0.04600
C 	C 	0.28410 0.25740 0.58030 0.34100
C 	C 	0.19350 0.77470 0.29510 -0.08300
H 	H 	0.23250 0.80030 0.28070 0.05900
C 	C 	0.26520 0.58770 0.42560 -0.02000
H 	H 	0.24750 0.63100 0.40460 0.03400
C 	C 	0.03940 0.91840 0.43640 -0.06700
H 	H 	0.99900 0.89360 0.44910 0.04600
C 	C 	0.49450 0.53200 0.28310 -0.00000
H 	H 	0.50000 0.55850 0.31600 0.04100
C 	C 	0.07960 0.97160 0.46880 -0.03900
H 	H 	0.06400 0.98440 0.50280 0.04000
C 	C 	0.56050 0.61350 0.07860 -0.08600
H 	H 	0.60260 0.64070 0.08580 0.06800
C 	C 	0.43990 0.52920 0.05350 -0.06500
H 	H 	0.39970 0.49940 0.04420 0.05500
C 	C 	0.26110 0.59130 0.47850 -0.04200
H 	H 	0.23860 0.63610 0.49450 0.03800
C 	C 	0.47120 0.43110 0.12920 -0.08900
H 	H 	0.42780 0.40100 0.12090 0.07100
C 	C 	0.59990 0.25820 0.11000 -0.02400
H 	H 	0.60230 0.20140 0.10210 0.03700
C 	C 	0.07830 0.70240 0.33600 -0.06300
H 	H 	0.03930 0.67690 0.35040 0.04200
C 	C 	0.55020 0.37510 0.44310 -0.02300
H 	H 	0.59250 0.36830 0.42600 0.03500
C 	C 	0.29530 0.52040 0.40250 -0.08700
H 	H 	0.29710 0.51790 0.36540 0.06100
C 	C 	0.42770 0.37970 0.43980 0.02800
C 	C 	0.88780 0.86530 0.28190 0.40000
C 	C 	0.32240 0.45770 0.43130 0.04100
C 	C 	0.42540 0.38510 0.49270 0.02600
C 	C 	0.54100 0.54930 0.10580 0.03900
C 	C 	0.13340 0.65450 0.31960 -0.04000
H 	H 	0.13190 0.59650 0.32240 0.04100
C 	C 	0.66050 0.30060 0.12010 -0.03200
H 	H 	0.70310 0.27300 0.11790 0.04000
O 	O 	0.38540 0.32730 0.19410 -0.49700
O 	O 	0.31500 0.40430 0.24080 -0.48900
O 	O 	0.66480 0.56850 0.24210 -0.51600
O 	O 	0.26990 0.16750 0.33570 -0.51400
O 	O 	0.27340 0.30340 0.32920 -0.50700
O 	O 	0.83740 0.89080 0.25570 -0.49400
O 	O 	0.33930 0.28160 0.60280 -0.48400
O 	O 	0.24870 0.22290 0.21410 -0.97300
O 	O 	0.11240 0.12210 0.20220 -0.51100
O 	O 	0.18060 0.05490 0.25830 -0.51000
O 	O 	0.23430 0.22870 0.60380 -0.49700
O 	O 	0.60170 0.63960 0.29620 -0.51000
O 	O 	0.88810 0.80700 0.31350 -0.50200
Zn	Zn	0.33330 0.22427 0.17748 1.20700
Zn	Zn	0.25114 0.13561 0.26296 1.20800
Zn	Zn	0.17105 0.20892 0.16223 1.17400
Zn	Zn	0.24348 0.32172 0.25520 1.20600
C 	C 	0.63000 0.88910 0.28090 0.40400
C 	C 	0.87680 0.43660 0.12940 0.03800
C 	C 	0.54160 0.09960 0.47410 -0.03300
H 	H 	0.57040 0.11870 0.50180 0.04500
C 	C 	0.87620 0.56470 0.26660 0.38500
C 	C 	0.72420 0.73740 0.14560 0.40000
C 	C 	0.38890 0.08500 0.23690 0.42000
C 	C 	0.52410 0.96110 0.31400 0.04900
C 	C 	0.57230 0.95000 0.27620 -0.10500
C 	C 	0.86060 0.32290 0.18780 0.03400
C 	C 	0.46500 0.87800 0.37560 0.03100
C 	C 	0.98600 0.40020 0.20140 0.04400
C 	C 	0.93150 0.50620 0.25350 -0.12000
C 	C 	0.92660 0.44150 0.21650 0.05100
C 	C 	0.41690 0.01000 0.34940 -0.10000
H 	H 	0.37340 0.04040 0.34200 0.07700
C 	C 	0.04730 0.41100 0.22770 -0.11600
C 	C 	0.68430 0.81050 0.06240 0.05500
C 	C 	0.71540 0.75680 0.97790 -0.10500
C 	C 	0.46290 0.00710 0.30180 0.05400
C 	C 	0.75030 0.69400 0.00360 -0.02100
H 	H 	0.77480 0.65510 0.98370 0.04100
C 	C 	0.93940 0.40400 0.11310 0.01900
C 	C 	0.97340 0.34600 0.15180 -0.08300
H 	H 	0.01580 0.31960 0.13840 0.05900
C 	C 	0.45130 0.88140 0.00340 -0.03300
H 	H 	0.40950 0.88260 0.98380 0.04400
C 	C 	0.86290 0.41510 0.18600 -0.10500
H 	H 	0.82030 0.44120 0.19920 0.08000
C 	C 	0.68080 0.96570 0.01500 0.01100
C 	C 	0.56300 0.98840 0.22690 -0.01800
H 	H 	0.59690 0.98350 0.20100 0.04200
C 	C 	0.40400 0.91920 0.36300 0.03000
C 	C 	0.84040 0.48850 0.09760 -0.08600
H 	H 	0.80030 0.51430 0.10990 0.05900
C 	C 	0.71810 0.74660 0.08750 -0.12400
C 	C 	0.68350 0.81500 0.00800 0.03300
C 	C 	0.51390 0.88610 0.97710 -0.06600
H 	H 	0.51490 0.88980 0.94010 0.05500
C 	C 	0.86270 0.50330 0.04680 -0.01700
H 	H 	0.83610 0.53640 0.02360 0.03100
C 	C 	0.64470 0.88120 0.08720 -0.10100
H 	H 	0.64310 0.87740 0.12620 0.07500
C 	C 	0.51800 0.00430 0.40530 0.02200
C 	C 	0.75010 0.68700 0.05720 -0.00600
H 	H 	0.77180 0.64150 0.07380 0.03600
C 	C 	0.51100 0.87880 0.08600 -0.07600
H 	H 	0.51030 0.88070 0.12310 0.05500
C 	C 	0.64660 0.89220 0.98720 -0.08200
H 	H 	0.64780 0.89680 0.94820 0.05800
C 	C 	0.71020 0.02940 0.99060 -0.06700
H 	H 	0.71120 0.03210 0.95360 0.03800
C 	C 	0.91910 0.28500 0.16860 0.01800
C 	C 	0.34090 0.88270 0.36650 -0.07100
H 	H 	0.29990 0.91260 0.36000 0.05500
C 	C 	0.48500 0.13990 0.46230 -0.01800
H 	H 	0.47420 0.18780 0.48160 0.04300
C 	C 	0.46330 0.79540 0.38910 -0.07500
H 	H 	0.50400 0.76590 0.39730 0.06200
C 	C 	0.80870 0.19370 0.20120 -0.01700
H 	H 	0.77110 0.16190 0.21270 0.03700
C 	C 	0.99400 0.51600 0.28020 -0.01000
H 	H 	0.99790 0.55470 0.30780 0.03600
C 	C 	0.45430 0.03930 0.25320 -0.11800
C 	C 	0.05060 0.46930 0.26640 -0.01000
H 	H 	0.09300 0.47810 0.28440 0.04600
C 	C 	0.71590 0.75740 0.91970 0.34100
C 	C 	0.80650 0.27470 0.20490 -0.08300
H 	H 	0.76750 0.30030 0.21930 0.05900
C 	C 	0.73480 0.08770 0.07440 -0.02100
H 	H 	0.75250 0.13100 0.09540 0.03400
C 	C 	0.96060 0.41840 0.06360 -0.06500
H 	H 	0.00100 0.39360 0.05090 0.04600
C 	C 	0.50550 0.03200 0.21690 -0.00000
H 	H 	0.50000 0.05850 0.18400 0.04100
C 	C 	0.92040 0.47160 0.03120 -0.04000
H 	H 	0.93600 0.48440 0.99720 0.04000
C 	C 	0.43950 0.11350 0.42140 -0.08600
H 	H 	0.39740 0.14070 0.41420 0.06800
C 	C 	0.56010 0.02920 0.44650 -0.06400
H 	H 	0.60030 0.99940 0.45580 0.05500
C 	C 	0.73890 0.09130 0.02150 -0.04200
H 	H 	0.76140 0.13610 0.00550 0.03800
C 	C 	0.52880 0.93110 0.37080 -0.08900
H 	H 	0.57220 0.90100 0.37910 0.07100
C 	C 	0.40010 0.75820 0.39000 -0.02400
H 	H 	0.39770 0.70140 0.39790 0.03700
C 	C 	0.92170 0.20240 0.16400 -0.06200
H 	H 	0.96070 0.17690 0.14960 0.04200
C 	C 	0.44980 0.87510 0.05690 -0.02400
H 	H 	0.40750 0.86830 0.07400 0.03500
C 	C 	0.70470 0.02040 0.09750 -0.08700
H 	H 	0.70290 0.01790 0.13460 0.06100
C 	C 	0.57230 0.87970 0.06020 0.02700
C 	C 	0.11220 0.36530 0.21810 0.40000
C 	C 	0.67760 0.95770 0.06870 0.04100
C 	C 	0.57460 0.88510 0.00730 0.02600
C 	C 	0.45900 0.04930 0.39420 0.03900
C 	C 	0.86660 0.15450 0.18040 -0.04000
H 	H 	0.86810 0.09650 0.17760 0.04100
C 	C 	0.33950 0.80060 0.37990 -0.03200
H 	H 	0.29690 0.77300 0.38210 0.04000
O 	O 	0.61460 0.82730 0.30590 -0.49700
O 	O 	0.68500 0.90430 0.25920 -0.48900
O 	O 	0.33520 0.06850 0.25790 -0.51600
O 	O 	0.73010 0.66750 0.16430 -0.51400
O 	O 	0.72660 0.80340 0.17080 -0.50700
O 	O 	0.16260 0.39080 0.24430 -0.49400
O 	O 	0.66070 0.78160 0.89720 -0.48400
O 	O 	0.75130 0.72290 0.28590 -0.97300
O 	O 	0.88760 0.62210 0.29780 -0.51100
O 	O 	0.81940 0.55490 0.24170 -0.51000
O 	O 	0.76570 0.72870 0.89620 -0.49700
O 	O 	0.39830 0.13960 0.20380 -0.51000
O 	O 	0.11190 0.30700 0.18650 -0.50200
Zn	Zn	0.66670 0.72427 0.32252 1.20700
Zn	Zn	0.74886 0.63561 0.23704 1.20800
Zn	Zn	0.82895 0.70892 0.33777 1.17400
Zn	Zn	0.75652 0.82172 0.24480 1.20600
C 	C 	0.63000 0.61090 0.78090 0.40400
C 	C 	0.87680 0.06340 0.62940 0.03700
C 	C 	0.54160 0.40040 0.97410 -0.03300
H 	H 	0.57040 0.38130 0.00180 0.04500
C 	C 	0.87620 0.93530 0.76660 0.38500
C 	C 	0.72420 0.76260 0.64560 0.40000
C 	C 	0.38890 0.41500 0.73690 0.42000
C 	C 	0.52410 0.53890 0.81400 0.04900
C 	C 	0.57230 0.55000 0.77620 -0.10500
C 	C 	0.86060 0.17710 0.68780 0.03400
C 	C 	0.46500 0.62200 0.87560 0.03200
C 	C 	0.98600 0.09980 0.70140 0.04400
C 	C 	0.93150 0.99380 0.75350 -0.12000
C 	C 	0.92660 0.05850 0.71650 0.05100
C 	C 	0.41690 0.49000 0.84940 -0.10000
H 	H 	0.37340 0.45960 0.84200 0.07700
C 	C 	0.04730 0.08900 0.72770 -0.11600
C 	C 	0.68430 0.68950 0.56240 0.05500
C 	C 	0.71540 0.74320 0.47790 -0.10400
C 	C 	0.46290 0.49290 0.80180 0.05400
C 	C 	0.75030 0.80600 0.50360 -0.02200
H 	H 	0.77480 0.84490 0.48370 0.04200
C 	C 	0.93940 0.09600 0.61310 0.01900
C 	C 	0.97340 0.15400 0.65180 -0.08400
H 	H 	0.01580 0.18040 0.63840 0.05900
C 	C 	0.45130 0.61860 0.50340 -0.03300
H 	H 	0.40950 0.61740 0.48380 0.04400
C 	C 	0.86290 0.08490 0.68600 -0.10400
H 	H 	0.82030 0.05880 0.69920 0.08000
C 	C 	0.68080 0.53430 0.51500 0.01000
C 	C 	0.56300 0.51160 0.72690 -0.01800
H 	H 	0.59690 0.51650 0.70100 0.04200
C 	C 	0.40400 0.58080 0.86300 0.03000
C 	C 	0.84040 0.01150 0.59760 -0.08400
H 	H 	0.80030 0.98570 0.60990 0.05800
C 	C 	0.71810 0.75340 0.58750 -0.12400
C 	C 	0.68350 0.68500 0.50800 0.03300
C 	C 	0.51390 0.61390 0.47710 -0.06600
H 	H 	0.51490 0.61020 0.44010 0.05500
C 	C 	0.86270 0.99670 0.54680 -0.01900
H 	H 	0.83610 0.96360 0.52360 0.03100
C 	C 	0.64470 0.61880 0.58720 -0.10200
H 	H 	0.64310 0.62260 0.62620 0.07500
C 	C 	0.51800 0.49570 0.90530 0.02200
C 	C 	0.75010 0.81300 0.55720 -0.00500
H 	H 	0.77180 0.85850 0.57380 0.03600
C 	C 	0.51100 0.62120 0.58600 -0.07600
H 	H 	0.51030 0.61930 0.62310 0.05600
C 	C 	0.64660 0.60780 0.48720 -0.08200
H 	H 	0.64780 0.60320 0.44820 0.05800
C 	C 	0.71020 0.47060 0.49060 -0.06600
H 	H 	0.71120 0.46790 0.45360 0.03800
C 	C 	0.91910 0.21500 0.66860 0.01800
C 	C 	0.34090 0.61730 0.86650 -0.07100
H 	H 	0.29990 0.58740 0.86000 0.05500
C 	C 	0.48500 0.36010 0.96230 -0.01800
H 	H 	0.47420 0.31220 0.98160 0.04300
C 	C 	0.46330 0.70460 0.88910 -0.07500
H 	H 	0.50400 0.73410 0.89730 0.06200
C 	C 	0.80870 0.30630 0.70120 -0.01700
H 	H 	0.77110 0.33810 0.71270 0.03700
C 	C 	0.99400 0.98400 0.78020 -0.01000
H 	H 	0.99790 0.94530 0.80780 0.03600
C 	C 	0.45430 0.46070 0.75320 -0.11800
C 	C 	0.05060 0.03070 0.76640 -0.01000
H 	H 	0.09300 0.02190 0.78440 0.04600
C 	C 	0.71590 0.74260 0.41970 0.34100
C 	C 	0.80650 0.22530 0.70490 -0.08300
H 	H 	0.76750 0.19970 0.71930 0.05900
C 	C 	0.73480 0.41230 0.57440 -0.02000
H 	H 	0.75250 0.36900 0.59540 0.03400
C 	C 	0.96060 0.08160 0.56360 -0.06700
H 	H 	0.00100 0.10640 0.55090 0.04600
C 	C 	0.50550 0.46800 0.71690 -0.00000
H 	H 	0.50000 0.44150 0.68400 0.04100
C 	C 	0.92040 0.02840 0.53120 -0.03900
H 	H 	0.93600 0.01560 0.49720 0.04000
C 	C 	0.43950 0.38650 0.92140 -0.08600
H 	H 	0.39740 0.35930 0.91420 0.06800
C 	C 	0.56010 0.47080 0.94650 -0.06500
H 	H 	0.60030 0.50060 0.95580 0.05500
C 	C 	0.73890 0.40870 0.52150 -0.04200
H 	H 	0.76140 0.36390 0.50550 0.03800
C 	C 	0.52880 0.56890 0.87080 -0.08900
H 	H 	0.57220 0.59900 0.87910 0.07100
C 	C 	0.40010 0.74180 0.89000 -0.02400
H 	H 	0.39770 0.79860 0.89790 0.03700
C 	C 	0.92170 0.29760 0.66400 -0.06300
H 	H 	0.96070 0.32310 0.64960 0.04200
C 	C 	0.44980 0.62490 0.55690 -0.02300
H 	H 	0.40750 0.63170 0.57400 0.03500
C 	C 	0.70470 0.47960 0.59750 -0.08700
H 	H 	0.70290 0.48210 0.63460 0.06100
C 	C 	0.57230 0.62030 0.56020 0.02800
C 	C 	0.11220 0.13470 0.71810 0.40000
C 	C 	0.67760 0.54230 0.56870 0.04100
C 	C 	0.57460 0.61490 0.50730 0.02600
C 	C 	0.45900 0.45070 0.89420 0.03900
C 	C 	0.86660 0.34550 0.68040 -0.04000
H 	H 	0.86810 0.40350 0.67760 0.04100
C 	C 	0.33950 0.69940 0.87990 -0.03200
H 	H 	0.29690 0.72700 0.88210 0.04000
O 	O 	0.61460 0.67270 0.80590 -0.49700
O 	O 	0.68500 0.59570 0.75920 -0.48900
O 	O 	0.33520 0.43150 0.75790 -0.51600
O 	O 	0.73010 0.83250 0.66430 -0.51400
O 	O 	0.72660 0.69660 0.67080 -0.50700
O 	O 	0.16260 0.10920 0.74430 -0.49400
O 	O 	0.66070 0.71840 0.39720 -0.48400
O 	O 	0.75130 0.77710 0.78590 -0.97300
O 	O 	0.88760 0.87790 0.79780 -0.51100
O 	O 	0.81940 0.94510 0.74170 -0.51000
O 	O 	0.76570 0.77130 0.39620 -0.49700
O 	O 	0.39830 0.36040 0.70380 -0.51000
O 	O 	0.11190 0.19300 0.68650 -0.50200
Zn	Zn	0.66670 0.77573 0.82252 1.20700
Zn	Zn	0.74886 0.86439 0.73704 1.20800
Zn	Zn	0.82895 0.79108 0.83777 1.17400
Zn	Zn	0.75652 0.67828 0.74480 1.20600
C 	C 	0.37000 0.11090 0.71910 0.40400
C 	C 	0.12320 0.56340 0.87060 0.03800
C 	C 	0.45840 0.90040 0.52590 -0.03300
H 	H 	0.42960 0.88130 0.49820 0.04500
C 	C 	0.12380 0.43530 0.73340 0.38500
C 	C 	0.27580 0.26260 0.85440 0.40000
C 	C 	0.61110 0.91500 0.76310 0.42000
C 	C 	0.47590 0.03890 0.68600 0.04900
C 	C 	0.42770 0.05000 0.72380 -0.10500
C 	C 	0.13940 0.67710 0.81220 0.03400
C 	C 	0.53500 0.12200 0.62440 0.03100
C 	C 	0.01400 0.59980 0.79860 0.04400
C 	C 	0.06850 0.49380 0.74650 -0.12000
C 	C 	0.07340 0.55850 0.78350 0.05100
C 	C 	0.58310 0.99000 0.65060 -0.10000
H 	H 	0.62660 0.95960 0.65800 0.07700
C 	C 	0.95270 0.58900 0.77230 -0.11600
C 	C 	0.31570 0.18950 0.93760 0.05500
C 	C 	0.28460 0.24320 0.02210 -0.10500
C 	C 	0.53710 0.99290 0.69820 0.05400
C 	C 	0.24970 0.30600 0.99640 -0.02100
H 	H 	0.22520 0.34490 0.01630 0.04100
C 	C 	0.06060 0.59600 0.88690 0.01900
C 	C 	0.02660 0.65400 0.84820 -0.08300
H 	H 	0.98420 0.68040 0.86160 0.05900
C 	C 	0.54870 0.11860 0.99660 -0.03300
H 	H 	0.59050 0.11740 0.01620 0.04400
C 	C 	0.13710 0.58490 0.81400 -0.10500
H 	H 	0.17970 0.55880 0.80080 0.08000
C 	C 	0.31920 0.03430 0.98500 0.01100
C 	C 	0.43700 0.01160 0.77310 -0.01800
H 	H 	0.40310 0.01650 0.79900 0.04200
C 	C 	0.59600 0.08080 0.63700 0.03000
C 	C 	0.15960 0.51150 0.90240 -0.08600
H 	H 	0.19970 0.48570 0.89010 0.05900
C 	C 	0.28190 0.25340 0.91250 -0.12400
C 	C 	0.31650 0.18500 0.99200 0.03300
C 	C 	0.48610 0.11390 0.02290 -0.06600
H 	H 	0.48510 0.11020 0.05990 0.05500
C 	C 	0.13730 0.49670 0.95320 -0.01700
H 	H 	0.16390 0.46360 0.97640 0.03100
C 	C 	0.35530 0.11880 0.91280 -0.10100
H 	H 	0.35690 0.12260 0.87380 0.07500
C 	C 	0.48200 0.99570 0.59470 0.02200
C 	C 	0.24990 0.31300 0.94280 -0.00600
H 	H 	0.22820 0.35850 0.92620 0.03600
C 	C 	0.48900 0.12120 0.91400 -0.07600
H 	H 	0.48970 0.11930 0.87690 0.05500
C 	C 	0.35340 0.10780 0.01280 -0.08200
H 	H 	0.35220 0.10320 0.05180 0.05800
C 	C 	0.28980 0.97060 0.00940 -0.06700
H 	H 	0.28880 0.96790 0.04640 0.03800
C 	C 	0.08090 0.71500 0.83140 0.01800
C 	C 	0.65910 0.11730 0.63350 -0.07100
H 	H 	0.70010 0.08740 0.64000 0.05500
C 	C 	0.51500 0.86010 0.53770 -0.01800
H 	H 	0.52580 0.81220 0.51840 0.04300
C 	C 	0.53670 0.20460 0.61090 -0.07500
H 	H 	0.49600 0.23410 0.60270 0.06200
C 	C 	0.19130 0.80630 0.79880 -0.01700
H 	H 	0.22890 0.83810 0.78730 0.03700
C 	C 	0.00600 0.48400 0.71980 -0.01000
H 	H 	0.00210 0.44530 0.69220 0.03600
C 	C 	0.54570 0.96070 0.74680 -0.11800
C 	C 	0.94940 0.53070 0.73360 -0.01000
H 	H 	0.90700 0.52190 0.71560 0.04600
C 	C 	0.28410 0.24260 0.08030 0.34100
C 	C 	0.19350 0.72530 0.79510 -0.08300
H 	H 	0.23250 0.69970 0.78070 0.05900
C 	C 	0.26520 0.91230 0.92560 -0.02100
H 	H 	0.24750 0.86900 0.90460 0.03400
C 	C 	0.03940 0.58160 0.93640 -0.06500
H 	H 	0.99900 0.60640 0.94910 0.04600
C 	C 	0.49450 0.96800 0.78310 -0.00000
H 	H 	0.50000 0.94150 0.81600 0.04100
C 	C 	0.07960 0.52840 0.96880 -0.04000
H 	H 	0.06400 0.51560 0.00280 0.04000
C 	C 	0.56050 0.88650 0.57860 -0.08600
H 	H 	0.60260 0.85930 0.58580 0.06800
C 	C 	0.43990 0.97080 0.55350 -0.06400
H 	H 	0.39970 0.00060 0.54420 0.05500
C 	C 	0.26110 0.90870 0.97850 -0.04200
H 	H 	0.23860 0.86390 0.99450 0.03800
C 	C 	0.47120 0.06890 0.62920 -0.08900
H 	H 	0.42780 0.09900 0.62090 0.07100
C 	C 	0.59990 0.24180 0.61000 -0.02400
H 	H 	0.60230 0.29860 0.60210 0.03700
C 	C 	0.07830 0.79760 0.83600 -0.06200
H 	H 	0.03930 0.82310 0.85040 0.04200
C 	C 	0.55020 0.12490 0.94310 -0.02400
H 	H 	0.59250 0.13170 0.92600 0.03500
C 	C 	0.29530 0.97960 0.90250 -0.08700
H 	H 	0.29710 0.98210 0.86540 0.06100
C 	C 	0.42770 0.12030 0.93980 0.02700
C 	C 	0.88780 0.63470 0.78190 0.40000
C 	C 	0.32240 0.04230 0.93130 0.04100
C 	C 	0.42540 0.11490 0.99270 0.02600
C 	C 	0.54100 0.95070 0.60580 0.03900
C 	C 	0.13340 0.84550 0.81960 -0.04000
H 	H 	0.13190 0.90350 0.82240 0.04100
C 	C 	0.66050 0.19940 0.62010 -0.03200
H 	H 	0.70310 0.22700 0.61790 0.04000
O 	O 	0.38540 0.17270 0.69410 -0.49700
O 	O 	0.31500 0.09570 0.74080 -0.48900
O 	O 	0.66480 0.93150 0.74210 -0.51600
O 	O 	0.26990 0.33250 0.83570 -0.51400
O 	O 	0.27340 0.19660 0.82920 -0.50700
O 	O 	0.83740 0.60920 0.75570 -0.49400
O 	O 	0.33930 0.21840 0.10280 -0.48400
O 	O 	0.24870 0.27710 0.71410 -0.97300
O 	O 	0.11240 0.37790 0.70220 -0.51100
O 	O 	0.18060 0.44510 0.75830 -0.51000
O 	O 	0.23430 0.27130 0.10380 -0.49700
O 	O 	0.60170 0.86040 0.79620 -0.51000
O 	O 	0.88810 0.69300 0.81350 -0.50200
Zn	Zn	0.33330 0.27573 0.67748 1.20700
Zn	Zn	0.25114 0.36439 0.76296 1.20800
Zn	Zn	0.17105 0.29108 0.66223 1.17400
Zn	Zn	0.24348 0.17828 0.75520 1.20600
