data_crystal

_cell_length_a 11.31400
_cell_length_b 11.31400
_cell_length_c 25.24290
_cell_angle_alpha 90.00000
_cell_angle_beta  90.00000
_cell_angle_gamma 90.00000

_symmetry_space_group_name_	'P 1'
_symmetry_space_group_name_H-M	'P 1'

loop_
_symmetry_equiv_pos_as_xyz
  x,y,z

loop_
_atom_site_label
_atom_site_type_symbol
_atom_site_fract_x
_atom_site_fract_y
_atom_site_fract_z
_atom_site_charge
Co	Co	0.09629 0.90371 0.87500 1.19800
Co	Co	0.90371 0.09629 0.37500 1.19800
Co	Co	0.09629 0.09629 0.62500 1.18000
Co	Co	0.90371 0.90371 0.12500 1.21600
Co	Co	-0.00000 0.79670 -0.00000 1.16300
Co	Co	-0.00000 0.20330 0.50000 1.17600
Co	Co	0.20330 0.00000 0.75000 1.17600
Co	Co	0.79670 0.00000 0.25000 1.17700
H 	H 	0.05970 0.07600 0.03920 0.11300
H 	H 	0.74420 0.91900 0.81110 0.06100
H 	H 	0.55030 0.93370 0.78680 0.06200
H 	H 	0.44780 0.82890 0.93100 0.05200
H 	H 	0.31190 0.99990 0.94610 0.20200
H 	H 	0.64220 0.80260 0.95400 0.06400
H 	H 	0.39830 0.11330 0.01640 0.04600
H 	H 	0.32550 0.20480 0.98200 0.08400
H 	H 	0.20670 0.22300 0.05260 0.01500
H 	H 	0.25840 0.10750 0.07910 0.02000
H 	H 	0.94030 0.92400 0.53920 0.18400
H 	H 	0.25580 0.08100 0.31110 0.03900
H 	H 	0.44970 0.06630 0.28680 0.03600
H 	H 	0.55220 0.17110 0.43100 0.04400
H 	H 	0.68810 0.00010 0.44610 0.10700
H 	H 	0.35780 0.19740 0.45400 0.04800
H 	H 	0.60170 0.88670 0.51640 0.05600
H 	H 	0.67450 0.79520 0.48200 0.05200
H 	H 	0.79330 0.77700 0.55260 0.04400
H 	H 	0.74160 0.89250 0.57910 0.05800
H 	H 	0.92400 0.05970 0.78920 0.14200
H 	H 	0.08100 0.74420 0.56110 0.04100
H 	H 	0.06630 0.55030 0.53680 0.03600
H 	H 	0.17110 0.44780 0.68100 0.04300
H 	H 	0.00010 0.31190 0.69610 0.10700
H 	H 	0.19740 0.64220 0.70400 0.05100
H 	H 	0.88670 0.39830 0.76640 0.05600
H 	H 	0.79520 0.32550 0.73200 0.05200
H 	H 	0.77700 0.20670 0.80260 0.03200
H 	H 	0.89250 0.25840 0.82910 0.05600
H 	H 	0.07600 0.94030 0.28920 0.15400
H 	H 	0.91900 0.25580 0.06110 0.05600
H 	H 	0.93370 0.44970 0.03680 0.05500
H 	H 	0.82890 0.55220 0.18100 0.04800
H 	H 	0.99990 0.68810 0.19610 0.20300
H 	H 	0.80260 0.35780 0.20400 0.05500
H 	H 	0.11330 0.60170 0.26640 0.02300
H 	H 	0.20480 0.67450 0.23200 0.03700
H 	H 	0.22300 0.79330 0.30260 0.04700
H 	H 	0.10750 0.74160 0.32910 0.03700
H 	H 	0.94030 0.07600 0.96080 0.15300
H 	H 	0.25580 0.91900 0.18890 0.05800
H 	H 	0.44970 0.93370 0.21320 0.06400
H 	H 	0.55220 0.82890 0.06900 0.04500
H 	H 	0.68810 0.99990 0.05390 0.20400
H 	H 	0.35780 0.80260 0.04600 0.04600
H 	H 	0.60170 0.11330 0.98360 0.00200
H 	H 	0.67450 0.20480 0.01800 -0.00900
H 	H 	0.79330 0.22300 0.94740 0.06500
H 	H 	0.74160 0.10750 0.92090 0.05100
H 	H 	0.05970 0.92400 0.46080 0.14200
H 	H 	0.74420 0.08100 0.68890 0.04100
H 	H 	0.55030 0.06630 0.71320 0.03600
H 	H 	0.44780 0.17110 0.56900 0.04300
H 	H 	0.31190 0.00010 0.55390 0.10700
H 	H 	0.64220 0.19740 0.54600 0.05100
H 	H 	0.39830 0.88670 0.48360 0.05600
H 	H 	0.32550 0.79520 0.51800 0.05200
H 	H 	0.20670 0.77700 0.44740 0.03100
H 	H 	0.25840 0.89250 0.42090 0.05500
H 	H 	0.07600 0.05970 0.21080 0.11200
H 	H 	0.91900 0.74420 0.43890 0.06100
H 	H 	0.93370 0.55030 0.46320 0.06300
H 	H 	0.82890 0.44780 0.31900 0.04800
H 	H 	0.99990 0.31190 0.30390 0.20400
H 	H 	0.80260 0.64220 0.29600 0.05600
H 	H 	0.11330 0.39830 0.23360 0.02300
H 	H 	0.20480 0.32550 0.26800 0.03600
H 	H 	0.22300 0.20670 0.19740 0.03400
H 	H 	0.10750 0.25840 0.17090 0.03400
H 	H 	0.92400 0.94030 0.71080 0.18400
H 	H 	0.08100 0.25580 0.93890 0.04300
H 	H 	0.06630 0.44970 0.96320 0.04500
H 	H 	0.17110 0.55220 0.81900 0.04500
H 	H 	0.00010 0.68810 0.80390 0.10700
H 	H 	0.19740 0.35780 0.79600 0.04800
H 	H 	0.88670 0.60170 0.73360 0.05600
H 	H 	0.79520 0.67450 0.76800 0.05300
H 	H 	0.77700 0.79330 0.69740 0.04400
H 	H 	0.89250 0.74160 0.67090 0.05800
C 	C 	0.16340 0.00810 0.98440 0.30300
C 	C 	0.47920 0.88340 0.85550 -0.07000
C 	C 	0.84260 0.85590 0.90350 0.36100
C 	C 	0.35230 0.90290 0.83960 0.36900
C 	C 	0.68490 0.89970 0.83510 -0.02400
C 	C 	0.71400 0.86060 0.88640 -0.05200
C 	C 	0.56900 0.90910 0.82090 -0.00800
C 	C 	0.50740 0.84510 0.90670 -0.01100
C 	C 	0.62370 0.83180 0.92050 -0.02000
C 	C 	0.32080 0.13230 0.00240 -0.11900
C 	C 	0.22880 0.14130 0.04630 0.01000
C 	C 	0.83660 0.99190 0.48440 0.41000
C 	C 	0.52080 0.11660 0.35550 -0.08400
C 	C 	0.15740 0.14410 0.40350 0.36400
C 	C 	0.64770 0.09710 0.33960 0.36500
C 	C 	0.31510 0.10030 0.33510 -0.03100
C 	C 	0.28600 0.13940 0.38640 -0.08000
C 	C 	0.43100 0.09090 0.32090 -0.01800
C 	C 	0.49260 0.15490 0.40670 -0.02300
C 	C 	0.37630 0.16820 0.42050 -0.02400
C 	C 	0.67920 0.86770 0.50240 -0.04500
C 	C 	0.77120 0.85870 0.54630 -0.01500
C 	C 	0.99190 0.16340 0.73440 0.40300
C 	C 	0.11660 0.47920 0.60550 -0.08600
C 	C 	0.14410 0.84260 0.65350 0.35700
C 	C 	0.09710 0.35230 0.58960 0.36600
C 	C 	0.10030 0.68490 0.58510 -0.03400
C 	C 	0.13940 0.71400 0.63640 -0.07200
C 	C 	0.09090 0.56900 0.57090 -0.01400
C 	C 	0.15490 0.50740 0.65670 -0.01900
C 	C 	0.16820 0.62370 0.67050 -0.02900
C 	C 	0.86770 0.32080 0.75240 -0.04600
C 	C 	0.85870 0.22880 0.79630 -0.01800
C 	C 	0.00810 0.83660 0.23440 0.28600
C 	C 	0.88340 0.52080 0.10550 -0.07300
C 	C 	0.85590 0.15740 0.15350 0.37000
C 	C 	0.90290 0.64770 0.08960 0.37000
C 	C 	0.89970 0.31510 0.08510 -0.02200
C 	C 	0.86060 0.28600 0.13640 -0.06400
C 	C 	0.90910 0.43100 0.07090 -0.01100
C 	C 	0.84510 0.49260 0.15670 -0.01600
C 	C 	0.83180 0.37630 0.17050 -0.01700
C 	C 	0.13230 0.67920 0.25240 -0.01800
C 	C 	0.14130 0.77120 0.29630 -0.03100
C 	C 	0.83660 0.00810 0.01560 0.26500
C 	C 	0.52080 0.88340 0.14450 -0.06800
C 	C 	0.15740 0.85590 0.09650 0.37200
C 	C 	0.64770 0.90290 0.16040 0.36700
C 	C 	0.31510 0.89970 0.16490 -0.01700
C 	C 	0.28600 0.86060 0.11360 -0.06900
C 	C 	0.43100 0.90910 0.17910 -0.01600
C 	C 	0.49260 0.84510 0.09330 -0.02200
C 	C 	0.37630 0.83180 0.07950 -0.01300
C 	C 	0.67920 0.13230 0.99760 0.07800
C 	C 	0.77120 0.14130 0.95370 -0.07400
C 	C 	0.16340 0.99190 0.51560 0.40300
C 	C 	0.47920 0.11660 0.64450 -0.08600
C 	C 	0.84260 0.14410 0.59650 0.35700
C 	C 	0.35230 0.09710 0.66040 0.36600
C 	C 	0.68490 0.10030 0.66490 -0.03400
C 	C 	0.71400 0.13940 0.61360 -0.07200
C 	C 	0.56900 0.09090 0.67910 -0.01400
C 	C 	0.50740 0.15490 0.59330 -0.01900
C 	C 	0.62370 0.16820 0.57950 -0.02800
C 	C 	0.32080 0.86770 0.49760 -0.04600
C 	C 	0.22880 0.85870 0.45370 -0.01800
C 	C 	0.00810 0.16340 0.26560 0.28000
C 	C 	0.88340 0.47920 0.39450 -0.07000
C 	C 	0.85590 0.84260 0.34650 0.36300
C 	C 	0.90290 0.35230 0.41040 0.36900
C 	C 	0.89970 0.68490 0.41490 -0.02200
C 	C 	0.86060 0.71400 0.36360 -0.05600
C 	C 	0.90910 0.56900 0.42910 -0.01000
C 	C 	0.84510 0.50740 0.34330 -0.01500
C 	C 	0.83180 0.62370 0.32950 -0.01800
C 	C 	0.13230 0.32080 0.24760 -0.01900
C 	C 	0.14130 0.22880 0.20370 -0.03400
C 	C 	0.99190 0.83660 0.76560 0.40900
C 	C 	0.11660 0.52080 0.89450 -0.07800
C 	C 	0.14410 0.15740 0.84650 0.36500
C 	C 	0.09710 0.64770 0.91040 0.36200
C 	C 	0.10030 0.31510 0.91490 -0.02700
C 	C 	0.13940 0.28600 0.86360 -0.08200
C 	C 	0.09090 0.43100 0.92910 -0.02100
C 	C 	0.15490 0.49260 0.84330 -0.02500
C 	C 	0.16820 0.37630 0.82950 -0.02200
C 	C 	0.86770 0.67920 0.74760 -0.04500
C 	C 	0.85870 0.77120 0.70370 -0.01500
N 	N 	0.13000 0.07420 0.02630 -0.25700
N 	N 	0.27320 0.03530 0.97070 -0.26900
N 	N 	0.87000 0.92580 0.52630 -0.25800
N 	N 	0.72680 0.96470 0.47070 -0.21300
N 	N 	0.92580 0.13000 0.77630 -0.25500
N 	N 	0.96470 0.27320 0.72070 -0.21200
N 	N 	0.07420 0.87000 0.27630 -0.23900
N 	N 	0.03530 0.72680 0.22070 -0.29000
N 	N 	0.87000 0.07420 0.97370 -0.21900
N 	N 	0.72680 0.03530 0.02930 -0.30900
N 	N 	0.13000 0.92580 0.47370 -0.25500
N 	N 	0.27320 0.96470 0.52930 -0.21200
N 	N 	0.07420 0.13000 0.22370 -0.23600
N 	N 	0.03530 0.27320 0.27930 -0.28900
N 	N 	0.92580 0.87000 0.72370 -0.25800
N 	N 	0.96470 0.72680 0.77930 -0.21300
O 	O 	0.91450 0.91070 0.87500 -0.37000
O 	O 	0.27580 0.90490 0.87530 -0.42300
O 	O 	0.33370 0.91140 0.79030 -0.38500
O 	O 	0.86430 0.79850 0.94500 -0.37500
O 	O 	0.09720 0.93390 0.96130 -0.45500
O 	O 	0.08550 0.08930 0.37500 -0.45600
O 	O 	0.72420 0.09510 0.37530 -0.44600
O 	O 	0.66630 0.08860 0.29030 -0.41900
O 	O 	0.13570 0.20150 0.44500 -0.43100
O 	O 	0.90280 0.06610 0.46130 -0.52600
O 	O 	0.08930 0.91450 0.62500 -0.40500
O 	O 	0.09510 0.27580 0.62530 -0.44400
O 	O 	0.08860 0.33370 0.54030 -0.41900
O 	O 	0.20150 0.86430 0.69500 -0.39600
O 	O 	0.06610 0.09720 0.71130 -0.56100
O 	O 	0.91070 0.08550 0.12500 -0.42100
O 	O 	0.90490 0.72420 0.12530 -0.42700
O 	O 	0.91140 0.66630 0.04030 -0.39500
O 	O 	0.79850 0.13570 0.19500 -0.42200
O 	O 	0.93390 0.90280 0.21130 -0.42500
O 	O 	0.08550 0.91070 0.12500 -0.42300
O 	O 	0.72420 0.90490 0.12470 -0.42700
O 	O 	0.66630 0.91140 0.20970 -0.38600
O 	O 	0.13570 0.79850 0.05500 -0.43100
O 	O 	0.90280 0.93390 0.03870 -0.42600
O 	O 	0.91450 0.08930 0.62500 -0.40500
O 	O 	0.27580 0.09510 0.62470 -0.44400
O 	O 	0.33370 0.08860 0.70970 -0.41900
O 	O 	0.86430 0.20150 0.55500 -0.39600
O 	O 	0.09720 0.06610 0.53870 -0.56100
O 	O 	0.91070 0.91450 0.37500 -0.37100
O 	O 	0.90490 0.27580 0.37470 -0.42400
O 	O 	0.91140 0.33370 0.45970 -0.38500
O 	O 	0.79850 0.86430 0.30500 -0.38700
O 	O 	0.93390 0.09720 0.28870 -0.45900
O 	O 	0.08930 0.08550 0.87500 -0.45600
O 	O 	0.09510 0.72420 0.87470 -0.44300
O 	O 	0.08860 0.66630 0.95970 -0.40500
O 	O 	0.20150 0.13570 0.80500 -0.43100
O 	O 	0.06610 0.90280 0.78870 -0.52600
