data_crystal

_cell_length_a 21.85990
_cell_length_b 21.85990
_cell_length_c 21.35250
_cell_angle_alpha 90.00000
_cell_angle_beta  90.00000
_cell_angle_gamma 120.00000

_symmetry_space_group_name_	'P 1'
_symmetry_space_group_name_H-M	'P 1'

loop_
_symmetry_equiv_pos_as_xyz
  x,y,z

loop_
_atom_site_label
_atom_site_type_symbol
_atom_site_fract_x
_atom_site_fract_y
_atom_site_fract_z
_atom_site_charge
Cu	Cu	0.53753 0.06785 0.48923 0.89900
O 	O 	0.45710 0.05410 0.43613 -0.39300
O 	O 	0.39110 0.93930 0.45808 -0.40400
O 	O 	0.37580 0.13390 0.25007 -0.40500
O 	O 	0.26000 0.08160 0.23111 -0.41100
O 	O 	0.15790 0.80720 0.45190 -0.24000
N 	N 	0.14580 0.88160 0.38140 -0.13700
C 	C 	0.40140 0.99460 0.43220 0.34000
C 	C 	0.31280 0.08920 0.26050 0.34900
C 	C 	0.35520 0.04300 0.34880 -0.01500
H 	H 	0.40100 0.07990 0.34220 0.06600
C 	C 	0.34150 0.99160 0.39360 -0.03400
C 	C 	0.27290 0.93720 0.40410 -0.09600
H 	H 	0.26430 0.90220 0.43320 0.09500
C 	C 	0.21700 0.93500 0.37110 0.11500
C 	C 	0.23070 0.98590 0.32560 -0.08700
H 	H 	0.19370 0.98450 0.30300 0.08000
C 	C 	0.29930 0.03850 0.31400 -0.04200
C 	C 	0.12190 0.82390 0.42080 0.23500
C 	C 	0.08740 0.88200 0.34670 -0.15800
H 	H 	0.09100 0.87610 0.30210 0.09300
H 	H 	0.08650 0.92540 0.35400 0.08000
C 	C 	0.02340 0.81950 0.37420 0.13100
C 	C 	0.04400 0.78680 0.41680 -0.11900
C 	C 	0.99560 0.72590 0.44730 0.06900
H 	H 	0.01040 0.70340 0.47540 0.02500
C 	C 	0.92570 0.69970 0.43540 -0.14300
H 	H 	0.89190 0.65930 0.45590 0.09900
C 	C 	0.90490 0.73350 0.39230 0.08700
H 	H 	0.85700 0.71460 0.38420 0.01300
C 	C 	0.95230 0.79320 0.36160 -0.17600
H 	H 	0.93750 0.81550 0.33330 0.09700
Cu	Cu	0.20420 0.40118 0.82256 0.89800
O 	O 	0.12377 0.38743 0.76946 -0.39400
O 	O 	0.05777 0.27263 0.79141 -0.40500
O 	O 	0.04247 0.46723 0.58340 -0.40600
O 	O 	0.92667 0.41493 0.56444 -0.41300
O 	O 	0.82457 0.14053 0.78523 -0.24100
N 	N 	0.81247 0.21493 0.71473 -0.13800
C 	C 	0.06807 0.32793 0.76553 0.33900
C 	C 	0.97947 0.42253 0.59383 0.34800
C 	C 	0.02187 0.37633 0.68213 -0.01600
H 	H 	0.06767 0.41323 0.67553 0.06500
C 	C 	0.00817 0.32493 0.72693 -0.03500
C 	C 	0.93957 0.27053 0.73743 -0.09700
H 	H 	0.93097 0.23553 0.76653 0.09400
C 	C 	0.88367 0.26833 0.70443 0.11500
C 	C 	0.89737 0.31923 0.65893 -0.08700
H 	H 	0.86037 0.31783 0.63633 0.08000
C 	C 	0.96597 0.37183 0.64733 -0.04200
C 	C 	0.78857 0.15723 0.75413 0.23500
C 	C 	0.75407 0.21533 0.68003 -0.15900
H 	H 	0.75767 0.20943 0.63543 0.09300
H 	H 	0.75317 0.25873 0.68733 0.08000
C 	C 	0.69007 0.15283 0.70753 0.13200
C 	C 	0.71067 0.12013 0.75013 -0.12000
C 	C 	0.66227 0.05923 0.78063 0.07100
H 	H 	0.67707 0.03673 0.80873 0.02400
C 	C 	0.59237 0.03303 0.76873 -0.14400
H 	H 	0.55857 0.99263 0.78923 0.10000
C 	C 	0.57157 0.06683 0.72563 0.08800
H 	H 	0.52367 0.04793 0.71753 0.01200
C 	C 	0.61897 0.12653 0.69493 -0.17700
H 	H 	0.60417 0.14883 0.66663 0.09800
Cu	Cu	0.87086 0.73452 0.15590 0.89800
O 	O 	0.79043 0.72077 0.10280 -0.39400
O 	O 	0.72443 0.60597 0.12475 -0.40500
O 	O 	0.70913 0.80057 0.91674 -0.40600
O 	O 	0.59333 0.74827 0.89778 -0.41300
O 	O 	0.49123 0.47387 0.11857 -0.24100
N 	N 	0.47913 0.54827 0.04807 -0.13800
C 	C 	0.73473 0.66127 0.09887 0.33900
C 	C 	0.64613 0.75587 0.92717 0.34800
C 	C 	0.68853 0.70967 0.01547 -0.01600
H 	H 	0.73433 0.74657 0.00887 0.06500
C 	C 	0.67483 0.65827 0.06027 -0.03500
C 	C 	0.60623 0.60387 0.07077 -0.09600
H 	H 	0.59763 0.56887 0.09987 0.09400
C 	C 	0.55033 0.60167 0.03777 0.11500
C 	C 	0.56403 0.65257 0.99227 -0.08600
H 	H 	0.52703 0.65117 0.96967 0.08000
C 	C 	0.63263 0.70517 0.98067 -0.04200
C 	C 	0.45523 0.49057 0.08747 0.23500
C 	C 	0.42073 0.54867 0.01337 -0.15900
H 	H 	0.42433 0.54277 0.96877 0.09300
H 	H 	0.41983 0.59207 0.02067 0.08000
C 	C 	0.35673 0.48617 0.04087 0.13200
C 	C 	0.37733 0.45347 0.08347 -0.11900
C 	C 	0.32893 0.39257 0.11397 0.07000
H 	H 	0.34373 0.37007 0.14207 0.02500
C 	C 	0.25903 0.36637 0.10207 -0.14300
H 	H 	0.22523 0.32597 0.12257 0.09900
C 	C 	0.23823 0.40017 0.05897 0.08800
H 	H 	0.19033 0.38127 0.05087 0.01200
C 	C 	0.28563 0.45987 0.02827 -0.17700
H 	H 	0.27083 0.48217 0.99997 0.09800
Cu	Cu	0.93215 0.46968 0.48923 0.89800
O 	O 	0.94590 0.40300 0.43613 -0.39400
O 	O 	0.06070 0.45180 0.45808 -0.40500
O 	O 	0.86610 0.24190 0.25007 -0.40600
O 	O 	0.91840 0.17840 0.23111 -0.41200
O 	O 	0.19280 0.35070 0.45190 -0.24100
N 	N 	0.11840 0.26420 0.38140 -0.13800
C 	C 	0.00540 0.40680 0.43220 0.33900
C 	C 	0.91080 0.22360 0.26050 0.34800
C 	C 	0.95700 0.31220 0.34880 -0.01600
H 	H 	0.92010 0.32110 0.34220 0.06500
C 	C 	0.00840 0.34990 0.39360 -0.03500
C 	C 	0.06280 0.33570 0.40410 -0.09700
H 	H 	0.09780 0.36210 0.43320 0.09400
C 	C 	0.06500 0.28200 0.37110 0.11500
C 	C 	0.01410 0.24480 0.32560 -0.08700
H 	H 	0.01550 0.20920 0.30300 0.08000
C 	C 	0.96150 0.26080 0.31400 -0.04200
C 	C 	0.17610 0.29800 0.42080 0.23500
C 	C 	0.11800 0.20540 0.34670 -0.15800
H 	H 	0.12390 0.21490 0.30210 0.09300
H 	H 	0.07460 0.16110 0.35400 0.08000
C 	C 	0.18050 0.20390 0.37420 0.13200
C 	C 	0.21320 0.25720 0.41680 -0.11900
C 	C 	0.27410 0.26970 0.44730 0.06900
H 	H 	0.29660 0.30700 0.47540 0.02500
C 	C 	0.30030 0.22600 0.43540 -0.14300
H 	H 	0.34070 0.23260 0.45590 0.09900
C 	C 	0.26650 0.17140 0.39230 0.08700
H 	H 	0.28540 0.14240 0.38420 0.01300
C 	C 	0.20680 0.15910 0.36160 -0.17600
H 	H 	0.18450 0.12200 0.33330 0.09800
Cu	Cu	0.59882 0.80301 0.82256 0.89800
O 	O 	0.61257 0.73633 0.76946 -0.39400
O 	O 	0.72737 0.78513 0.79141 -0.40500
O 	O 	0.53277 0.57523 0.58340 -0.40600
O 	O 	0.58507 0.51173 0.56444 -0.41300
O 	O 	0.85947 0.68403 0.78523 -0.24100
N 	N 	0.78507 0.59753 0.71473 -0.13800
C 	C 	0.67207 0.74013 0.76553 0.33900
C 	C 	0.57747 0.55693 0.59383 0.34800
C 	C 	0.62367 0.64553 0.68213 -0.01600
H 	H 	0.58677 0.65443 0.67553 0.06500
C 	C 	0.67507 0.68323 0.72693 -0.03500
C 	C 	0.72947 0.66903 0.73743 -0.09600
H 	H 	0.76447 0.69543 0.76653 0.09400
C 	C 	0.73167 0.61533 0.70443 0.11500
C 	C 	0.68077 0.57813 0.65893 -0.08700
H 	H 	0.68217 0.54253 0.63633 0.08000
C 	C 	0.62817 0.59413 0.64733 -0.04200
C 	C 	0.84277 0.63133 0.75413 0.23500
C 	C 	0.78467 0.53873 0.68003 -0.15900
H 	H 	0.79057 0.54823 0.63543 0.09300
H 	H 	0.74127 0.49443 0.68733 0.08000
C 	C 	0.84717 0.53723 0.70753 0.13200
C 	C 	0.87987 0.59053 0.75013 -0.12000
C 	C 	0.94077 0.60303 0.78063 0.07100
H 	H 	0.96327 0.64033 0.80873 0.02400
C 	C 	0.96697 0.55933 0.76873 -0.14400
H 	H 	0.00737 0.56593 0.78923 0.10000
C 	C 	0.93317 0.50473 0.72563 0.08800
H 	H 	0.95207 0.47573 0.71753 0.01200
C 	C 	0.87347 0.49243 0.69493 -0.17700
H 	H 	0.85117 0.45533 0.66663 0.09800
Cu	Cu	0.26548 0.13635 0.15590 0.89800
O 	O 	0.27923 0.06967 0.10280 -0.39400
O 	O 	0.39403 0.11847 0.12475 -0.40500
O 	O 	0.19943 0.90857 0.91674 -0.40600
O 	O 	0.25173 0.84507 0.89778 -0.41200
O 	O 	0.52613 0.01737 0.11857 -0.24000
N 	N 	0.45173 0.93087 0.04807 -0.13800
C 	C 	0.33873 0.07347 0.09887 0.33900
C 	C 	0.24413 0.89027 0.92717 0.34800
C 	C 	0.29033 0.97887 0.01547 -0.01800
H 	H 	0.25343 0.98777 0.00887 0.06500
C 	C 	0.34173 0.01657 0.06027 -0.03400
C 	C 	0.39613 0.00237 0.07077 -0.09600
H 	H 	0.43113 0.02877 0.09987 0.09300
C 	C 	0.39833 0.94867 0.03777 0.11400
C 	C 	0.34743 0.91147 0.99227 -0.08600
H 	H 	0.34883 0.87587 0.96967 0.08000
C 	C 	0.29483 0.92747 0.98067 -0.04100
C 	C 	0.50943 0.96467 0.08747 0.23400
C 	C 	0.45133 0.87207 0.01337 -0.16000
H 	H 	0.45723 0.88157 0.96877 0.09400
H 	H 	0.40793 0.82777 0.02067 0.08000
C 	C 	0.51383 0.87057 0.04087 0.13300
C 	C 	0.54653 0.92387 0.08347 -0.12000
C 	C 	0.60743 0.93637 0.11397 0.07000
H 	H 	0.62993 0.97367 0.14207 0.02400
C 	C 	0.63363 0.89267 0.10207 -0.14400
H 	H 	0.67403 0.89927 0.12257 0.09900
C 	C 	0.59983 0.83807 0.05897 0.08800
H 	H 	0.61873 0.80907 0.05087 0.01200
C 	C 	0.54013 0.82577 0.02827 -0.17800
H 	H 	0.51783 0.78867 0.99997 0.09800
Cu	Cu	0.53032 0.46247 0.48923 0.89800
O 	O 	0.59700 0.54290 0.43613 -0.39400
O 	O 	0.54820 0.60890 0.45808 -0.40500
O 	O 	0.75810 0.62420 0.25007 -0.40600
O 	O 	0.82160 0.74000 0.23111 -0.41300
O 	O 	0.64930 0.84210 0.45190 -0.24100
N 	N 	0.73580 0.85420 0.38140 -0.13800
C 	C 	0.59320 0.59860 0.43220 0.33900
C 	C 	0.77640 0.68720 0.26050 0.34800
C 	C 	0.68780 0.64480 0.34880 -0.01600
H 	H 	0.67890 0.59900 0.34220 0.06500
C 	C 	0.65010 0.65850 0.39360 -0.03500
C 	C 	0.66430 0.72710 0.40410 -0.09700
H 	H 	0.63790 0.73570 0.43320 0.09400
C 	C 	0.71800 0.78300 0.37110 0.11500
C 	C 	0.75520 0.76930 0.32560 -0.08700
H 	H 	0.79080 0.80630 0.30300 0.08000
C 	C 	0.73920 0.70070 0.31400 -0.04200
C 	C 	0.70200 0.87810 0.42080 0.23500
C 	C 	0.79460 0.91260 0.34670 -0.15800
H 	H 	0.78510 0.90900 0.30210 0.09300
H 	H 	0.83890 0.91350 0.35400 0.08000
C 	C 	0.79610 0.97660 0.37420 0.13100
C 	C 	0.74280 0.95600 0.41680 -0.11900
C 	C 	0.73030 0.00440 0.44730 0.07000
H 	H 	0.69300 0.98960 0.47540 0.02500
C 	C 	0.77400 0.07430 0.43540 -0.14300
H 	H 	0.76740 0.10810 0.45590 0.09900
C 	C 	0.82860 0.09510 0.39230 0.08700
H 	H 	0.85760 0.14300 0.38420 0.01300
C 	C 	0.84090 0.04770 0.36160 -0.17600
H 	H 	0.87800 0.06250 0.33330 0.09700
Cu	Cu	0.19699 0.79580 0.82256 0.89800
O 	O 	0.26367 0.87623 0.76946 -0.39400
O 	O 	0.21487 0.94223 0.79141 -0.40500
O 	O 	0.42477 0.95753 0.58340 -0.40600
O 	O 	0.48827 0.07333 0.56444 -0.41300
O 	O 	0.31597 0.17543 0.78523 -0.24100
N 	N 	0.40247 0.18753 0.71473 -0.13800
C 	C 	0.25987 0.93193 0.76553 0.33900
C 	C 	0.44307 0.02053 0.59383 0.34800
C 	C 	0.35447 0.97813 0.68213 -0.01600
H 	H 	0.34557 0.93233 0.67553 0.06500
C 	C 	0.31677 0.99183 0.72693 -0.03500
C 	C 	0.33097 0.06043 0.73743 -0.09700
H 	H 	0.30457 0.06903 0.76653 0.09400
C 	C 	0.38467 0.11633 0.70443 0.11500
C 	C 	0.42187 0.10263 0.65893 -0.08700
H 	H 	0.45747 0.13963 0.63633 0.08000
C 	C 	0.40587 0.03403 0.64733 -0.04200
C 	C 	0.36867 0.21143 0.75413 0.23500
C 	C 	0.46127 0.24593 0.68003 -0.15900
H 	H 	0.45177 0.24233 0.63543 0.09300
H 	H 	0.50557 0.24683 0.68733 0.08000
C 	C 	0.46277 0.30993 0.70753 0.13200
C 	C 	0.40947 0.28933 0.75013 -0.11900
C 	C 	0.39697 0.33773 0.78063 0.06900
H 	H 	0.35967 0.32293 0.80873 0.02500
C 	C 	0.44067 0.40763 0.76873 -0.14300
H 	H 	0.43407 0.44143 0.78923 0.09900
C 	C 	0.49527 0.42843 0.72563 0.08700
H 	H 	0.52427 0.47633 0.71753 0.01300
C 	C 	0.50757 0.38103 0.69493 -0.17600
H 	H 	0.54467 0.39583 0.66663 0.09700
Cu	Cu	0.86365 0.12914 0.15590 0.89800
O 	O 	0.93033 0.20957 0.10280 -0.39300
O 	O 	0.88153 0.27557 0.12475 -0.40500
O 	O 	0.09143 0.29087 0.91674 -0.40600
O 	O 	0.15493 0.40667 0.89778 -0.41200
O 	O 	0.98263 0.50877 0.11857 -0.24000
N 	N 	0.06913 0.52087 0.04807 -0.13800
C 	C 	0.92653 0.26527 0.09887 0.33900
C 	C 	0.10973 0.35387 0.92717 0.34800
C 	C 	0.02113 0.31147 0.01547 -0.01700
H 	H 	0.01223 0.26567 0.00887 0.06500
C 	C 	0.98343 0.32517 0.06027 -0.03400
C 	C 	0.99763 0.39377 0.07077 -0.09600
H 	H 	0.97123 0.40237 0.09987 0.09300
C 	C 	0.05133 0.44967 0.03777 0.11400
C 	C 	0.08853 0.43597 0.99227 -0.08600
H 	H 	0.12413 0.47297 0.96967 0.08000
C 	C 	0.07253 0.36737 0.98067 -0.04200
C 	C 	0.03533 0.54477 0.08747 0.23500
C 	C 	0.12793 0.57927 0.01337 -0.16100
H 	H 	0.11843 0.57567 0.96877 0.09400
H 	H 	0.17223 0.58017 0.02067 0.08000
C 	C 	0.12943 0.64327 0.04087 0.13300
C 	C 	0.07613 0.62267 0.08347 -0.12000
C 	C 	0.06363 0.67107 0.11397 0.07100
H 	H 	0.02633 0.65627 0.14207 0.02400
C 	C 	0.10733 0.74097 0.10207 -0.14400
H 	H 	0.10073 0.77477 0.12257 0.10000
C 	C 	0.16193 0.76177 0.05897 0.08900
H 	H 	0.19093 0.80967 0.05087 0.01200
C 	C 	0.17423 0.71437 0.02827 -0.17900
H 	H 	0.21133 0.72917 0.99997 0.09900
Cu	Cu	0.46247 0.93215 0.51077 0.89800
O 	O 	0.54290 0.94590 0.56387 -0.39400
O 	O 	0.60890 0.06070 0.54192 -0.40500
O 	O 	0.62420 0.86610 0.74993 -0.40600
O 	O 	0.74000 0.91840 0.76889 -0.41200
O 	O 	0.84210 0.19280 0.54810 -0.24100
N 	N 	0.85420 0.11840 0.61860 -0.13800
C 	C 	0.59860 0.00540 0.56780 0.33900
C 	C 	0.68720 0.91080 0.73950 0.34800
C 	C 	0.64480 0.95700 0.65120 -0.01600
H 	H 	0.59900 0.92010 0.65780 0.06500
C 	C 	0.65850 0.00840 0.60640 -0.03500
C 	C 	0.72710 0.06280 0.59590 -0.09700
H 	H 	0.73570 0.09780 0.56680 0.09400
C 	C 	0.78300 0.06500 0.62890 0.11500
C 	C 	0.76930 0.01410 0.67440 -0.08700
H 	H 	0.80630 0.01550 0.69700 0.08000
C 	C 	0.70070 0.96150 0.68600 -0.04200
C 	C 	0.87810 0.17610 0.57920 0.23500
C 	C 	0.91260 0.11800 0.65330 -0.15800
H 	H 	0.90900 0.12390 0.69790 0.09300
H 	H 	0.91350 0.07460 0.64600 0.08000
C 	C 	0.97660 0.18050 0.62580 0.13100
C 	C 	0.95600 0.21320 0.58320 -0.11900
C 	C 	0.00440 0.27410 0.55270 0.06900
H 	H 	0.98960 0.29660 0.52460 0.02500
C 	C 	0.07430 0.30030 0.56460 -0.14300
H 	H 	0.10810 0.34070 0.54410 0.09900
C 	C 	0.09510 0.26650 0.60770 0.08700
H 	H 	0.14300 0.28540 0.61580 0.01300
C 	C 	0.04770 0.20680 0.63840 -0.17600
H 	H 	0.06250 0.18450 0.66670 0.09700
Cu	Cu	0.12914 0.26548 0.84410 0.89800
O 	O 	0.20957 0.27923 0.89720 -0.39400
O 	O 	0.27557 0.39403 0.87525 -0.40500
O 	O 	0.29087 0.19943 0.08326 -0.40600
O 	O 	0.40667 0.25173 0.10222 -0.41300
O 	O 	0.50877 0.52613 0.88143 -0.24100
N 	N 	0.52087 0.45173 0.95193 -0.13800
C 	C 	0.26527 0.33873 0.90113 0.33900
C 	C 	0.35387 0.24413 0.07283 0.34800
C 	C 	0.31147 0.29033 0.98453 -0.01600
H 	H 	0.26567 0.25343 0.99113 0.06500
C 	C 	0.32517 0.34173 0.93973 -0.03500
C 	C 	0.39377 0.39613 0.92923 -0.09600
H 	H 	0.40237 0.43113 0.90013 0.09400
C 	C 	0.44967 0.39833 0.96223 0.11500
C 	C 	0.43597 0.34743 0.00773 -0.08600
H 	H 	0.47297 0.34883 0.03033 0.08000
C 	C 	0.36737 0.29483 0.01933 -0.04200
C 	C 	0.54477 0.50943 0.91253 0.23500
C 	C 	0.57927 0.45133 0.98663 -0.15900
H 	H 	0.57567 0.45723 0.03123 0.09300
H 	H 	0.58017 0.40793 0.97933 0.08000
C 	C 	0.64327 0.51383 0.95913 0.13200
C 	C 	0.62267 0.54653 0.91653 -0.11900
C 	C 	0.67107 0.60743 0.88603 0.07000
H 	H 	0.65627 0.62993 0.85793 0.02500
C 	C 	0.74097 0.63363 0.89793 -0.14300
H 	H 	0.77477 0.67403 0.87743 0.09900
C 	C 	0.76177 0.59983 0.94103 0.08800
H 	H 	0.80967 0.61873 0.94913 0.01200
C 	C 	0.71437 0.54013 0.97173 -0.17700
H 	H 	0.72917 0.51783 0.00003 0.09800
Cu	Cu	0.79580 0.59882 0.17744 0.89800
O 	O 	0.87623 0.61257 0.23054 -0.39400
O 	O 	0.94223 0.72737 0.20859 -0.40500
O 	O 	0.95753 0.53277 0.41660 -0.40600
O 	O 	0.07333 0.58507 0.43556 -0.41300
O 	O 	0.17543 0.85947 0.21477 -0.24100
N 	N 	0.18753 0.78507 0.28527 -0.13800
C 	C 	0.93193 0.67207 0.23447 0.33900
C 	C 	0.02053 0.57747 0.40617 0.34800
C 	C 	0.97813 0.62367 0.31787 -0.01600
H 	H 	0.93233 0.58677 0.32447 0.06500
C 	C 	0.99183 0.67507 0.27307 -0.03500
C 	C 	0.06043 0.72947 0.26257 -0.09700
H 	H 	0.06903 0.76447 0.23347 0.09400
C 	C 	0.11633 0.73167 0.29557 0.11500
C 	C 	0.10263 0.68077 0.34107 -0.08700
H 	H 	0.13963 0.68217 0.36367 0.08000
C 	C 	0.03403 0.62817 0.35267 -0.04200
C 	C 	0.21143 0.84277 0.24587 0.23500
C 	C 	0.24593 0.78467 0.31997 -0.15900
H 	H 	0.24233 0.79057 0.36457 0.09300
H 	H 	0.24683 0.74127 0.31267 0.08000
C 	C 	0.30993 0.84717 0.29247 0.13200
C 	C 	0.28933 0.87987 0.24987 -0.12000
C 	C 	0.33773 0.94077 0.21937 0.07100
H 	H 	0.32293 0.96327 0.19127 0.02400
C 	C 	0.40763 0.96697 0.23127 -0.14400
H 	H 	0.44143 0.00737 0.21077 0.10000
C 	C 	0.42843 0.93317 0.27437 0.08800
H 	H 	0.47633 0.95207 0.28247 0.01200
C 	C 	0.38103 0.87347 0.30507 -0.17700
H 	H 	0.39583 0.85117 0.33337 0.09800
Cu	Cu	0.06785 0.53032 0.51077 0.89800
O 	O 	0.05410 0.59700 0.56387 -0.39400
O 	O 	0.93930 0.54820 0.54192 -0.40500
O 	O 	0.13390 0.75810 0.74993 -0.40600
O 	O 	0.08160 0.82160 0.76889 -0.41200
O 	O 	0.80720 0.64930 0.54810 -0.24100
N 	N 	0.88160 0.73580 0.61860 -0.13800
C 	C 	0.99460 0.59320 0.56780 0.33900
C 	C 	0.08920 0.77640 0.73950 0.34800
C 	C 	0.04300 0.68780 0.65120 -0.01600
H 	H 	0.07990 0.67890 0.65780 0.06500
C 	C 	0.99160 0.65010 0.60640 -0.03500
C 	C 	0.93720 0.66430 0.59590 -0.09700
H 	H 	0.90220 0.63790 0.56680 0.09400
C 	C 	0.93500 0.71800 0.62890 0.11500
C 	C 	0.98590 0.75520 0.67440 -0.08700
H 	H 	0.98450 0.79080 0.69700 0.08000
C 	C 	0.03850 0.73920 0.68600 -0.04200
C 	C 	0.82390 0.70200 0.57920 0.23500
C 	C 	0.88200 0.79460 0.65330 -0.15800
H 	H 	0.87610 0.78510 0.69790 0.09300
H 	H 	0.92540 0.83890 0.64600 0.08000
C 	C 	0.81950 0.79610 0.62580 0.13200
C 	C 	0.78680 0.74280 0.58320 -0.11900
C 	C 	0.72590 0.73030 0.55270 0.06900
H 	H 	0.70340 0.69300 0.52460 0.02500
C 	C 	0.69970 0.77400 0.56460 -0.14300
H 	H 	0.65930 0.76740 0.54410 0.09900
C 	C 	0.73350 0.82860 0.60770 0.08700
H 	H 	0.71460 0.85760 0.61580 0.01300
C 	C 	0.79320 0.84090 0.63840 -0.17600
H 	H 	0.81550 0.87800 0.66670 0.09800
Cu	Cu	0.73452 0.86365 0.84410 0.89800
O 	O 	0.72077 0.93033 0.89720 -0.39400
O 	O 	0.60597 0.88153 0.87525 -0.40500
O 	O 	0.80057 0.09143 0.08326 -0.40600
O 	O 	0.74827 0.15493 0.10222 -0.41200
O 	O 	0.47387 0.98263 0.88143 -0.24000
N 	N 	0.54827 0.06913 0.95193 -0.13800
C 	C 	0.66127 0.92653 0.90113 0.33900
C 	C 	0.75587 0.10973 0.07283 0.34800
C 	C 	0.70967 0.02113 0.98453 -0.01800
H 	H 	0.74657 0.01223 0.99113 0.06500
C 	C 	0.65827 0.98343 0.93973 -0.03400
C 	C 	0.60387 0.99763 0.92923 -0.09600
H 	H 	0.56887 0.97123 0.90013 0.09300
C 	C 	0.60167 0.05133 0.96223 0.11400
C 	C 	0.65257 0.08853 0.00773 -0.08600
H 	H 	0.65117 0.12413 0.03033 0.08000
C 	C 	0.70517 0.07253 0.01933 -0.04100
C 	C 	0.49057 0.03533 0.91253 0.23400
C 	C 	0.54867 0.12793 0.98663 -0.16000
H 	H 	0.54277 0.11843 0.03123 0.09400
H 	H 	0.59207 0.17223 0.97933 0.08000
C 	C 	0.48617 0.12943 0.95913 0.13300
C 	C 	0.45347 0.07613 0.91653 -0.12000
C 	C 	0.39257 0.06363 0.88603 0.07000
H 	H 	0.37007 0.02633 0.85793 0.02400
C 	C 	0.36637 0.10733 0.89793 -0.14400
H 	H 	0.32597 0.10073 0.87743 0.09900
C 	C 	0.40017 0.16193 0.94103 0.08800
H 	H 	0.38127 0.19093 0.94913 0.01200
C 	C 	0.45987 0.17423 0.97173 -0.17800
H 	H 	0.48217 0.21133 0.00003 0.09800
Cu	Cu	0.40118 0.19699 0.17744 0.89800
O 	O 	0.38743 0.26367 0.23054 -0.39400
O 	O 	0.27263 0.21487 0.20859 -0.40500
O 	O 	0.46723 0.42477 0.41660 -0.40600
O 	O 	0.41493 0.48827 0.43556 -0.41300
O 	O 	0.14053 0.31597 0.21477 -0.24100
N 	N 	0.21493 0.40247 0.28527 -0.13800
C 	C 	0.32793 0.25987 0.23447 0.33900
C 	C 	0.42253 0.44307 0.40617 0.34800
C 	C 	0.37633 0.35447 0.31787 -0.01600
H 	H 	0.41323 0.34557 0.32447 0.06500
C 	C 	0.32493 0.31677 0.27307 -0.03500
C 	C 	0.27053 0.33097 0.26257 -0.09600
H 	H 	0.23553 0.30457 0.23347 0.09400
C 	C 	0.26833 0.38467 0.29557 0.11500
C 	C 	0.31923 0.42187 0.34107 -0.08700
H 	H 	0.31783 0.45747 0.36367 0.08000
C 	C 	0.37183 0.40587 0.35267 -0.04200
C 	C 	0.15723 0.36867 0.24587 0.23500
C 	C 	0.21533 0.46127 0.31997 -0.15900
H 	H 	0.20943 0.45177 0.36457 0.09300
H 	H 	0.25873 0.50557 0.31267 0.08000
C 	C 	0.15283 0.46277 0.29247 0.13200
C 	C 	0.12013 0.40947 0.24987 -0.12000
C 	C 	0.05923 0.39697 0.21937 0.07100
H 	H 	0.03673 0.35967 0.19127 0.02400
C 	C 	0.03303 0.44067 0.23127 -0.14400
H 	H 	0.99263 0.43407 0.21077 0.10000
C 	C 	0.06683 0.49527 0.27437 0.08800
H 	H 	0.04793 0.52427 0.28247 0.01200
C 	C 	0.12653 0.50757 0.30507 -0.17700
H 	H 	0.14883 0.54467 0.33337 0.09800
Cu	Cu	0.46968 0.53753 0.51077 0.89800
O 	O 	0.40300 0.45710 0.56387 -0.39400
O 	O 	0.45180 0.39110 0.54192 -0.40500
O 	O 	0.24190 0.37580 0.74993 -0.40600
O 	O 	0.17840 0.26000 0.76889 -0.41300
O 	O 	0.35070 0.15790 0.54810 -0.24100
N 	N 	0.26420 0.14580 0.61860 -0.13800
C 	C 	0.40680 0.40140 0.56780 0.33900
C 	C 	0.22360 0.31280 0.73950 0.34800
C 	C 	0.31220 0.35520 0.65120 -0.01600
H 	H 	0.32110 0.40100 0.65780 0.06500
C 	C 	0.34990 0.34150 0.60640 -0.03500
C 	C 	0.33570 0.27290 0.59590 -0.09700
H 	H 	0.36210 0.26430 0.56680 0.09400
C 	C 	0.28200 0.21700 0.62890 0.11500
C 	C 	0.24480 0.23070 0.67440 -0.08700
H 	H 	0.20920 0.19370 0.69700 0.08000
C 	C 	0.26080 0.29930 0.68600 -0.04200
C 	C 	0.29800 0.12190 0.57920 0.23500
C 	C 	0.20540 0.08740 0.65330 -0.15800
H 	H 	0.21490 0.09100 0.69790 0.09300
H 	H 	0.16110 0.08650 0.64600 0.08000
C 	C 	0.20390 0.02340 0.62580 0.13100
C 	C 	0.25720 0.04400 0.58320 -0.11900
C 	C 	0.26970 0.99560 0.55270 0.07000
H 	H 	0.30700 0.01040 0.52460 0.02500
C 	C 	0.22600 0.92570 0.56460 -0.14300
H 	H 	0.23260 0.89190 0.54410 0.09900
C 	C 	0.17140 0.90490 0.60770 0.08700
H 	H 	0.14240 0.85700 0.61580 0.01300
C 	C 	0.15910 0.95230 0.63840 -0.17600
H 	H 	0.12200 0.93750 0.66670 0.09700
Cu	Cu	0.13635 0.87086 0.84410 0.89800
O 	O 	0.06967 0.79043 0.89720 -0.39300
O 	O 	0.11847 0.72443 0.87525 -0.40500
O 	O 	0.90857 0.70913 0.08326 -0.40600
O 	O 	0.84507 0.59333 0.10222 -0.41200
O 	O 	0.01737 0.49123 0.88143 -0.24000
N 	N 	0.93087 0.47913 0.95193 -0.13800
C 	C 	0.07347 0.73473 0.90113 0.33900
C 	C 	0.89027 0.64613 0.07283 0.34800
C 	C 	0.97887 0.68853 0.98453 -0.01700
H 	H 	0.98777 0.73433 0.99113 0.06500
C 	C 	0.01657 0.67483 0.93973 -0.03400
C 	C 	0.00237 0.60623 0.92923 -0.09600
H 	H 	0.02877 0.59763 0.90013 0.09300
C 	C 	0.94867 0.55033 0.96223 0.11400
C 	C 	0.91147 0.56403 0.00773 -0.08600
H 	H 	0.87587 0.52703 0.03033 0.08000
C 	C 	0.92747 0.63263 0.01933 -0.04200
C 	C 	0.96467 0.45523 0.91253 0.23500
C 	C 	0.87207 0.42073 0.98663 -0.16100
H 	H 	0.88157 0.42433 0.03123 0.09400
H 	H 	0.82777 0.41983 0.97933 0.08000
C 	C 	0.87057 0.35673 0.95913 0.13300
C 	C 	0.92387 0.37733 0.91653 -0.12000
C 	C 	0.93637 0.32893 0.88603 0.07100
H 	H 	0.97367 0.34373 0.85793 0.02400
C 	C 	0.89267 0.25903 0.89793 -0.14400
H 	H 	0.89927 0.22523 0.87743 0.10000
C 	C 	0.83807 0.23823 0.94103 0.08900
H 	H 	0.80907 0.19033 0.94913 0.01200
C 	C 	0.82577 0.28563 0.97173 -0.17900
H 	H 	0.78867 0.27083 0.00003 0.09900
Cu	Cu	0.80301 0.20420 0.17744 0.89800
O 	O 	0.73633 0.12377 0.23054 -0.39400
O 	O 	0.78513 0.05777 0.20859 -0.40500
O 	O 	0.57523 0.04247 0.41660 -0.40600
O 	O 	0.51173 0.92667 0.43556 -0.41300
O 	O 	0.68403 0.82457 0.21477 -0.24100
N 	N 	0.59753 0.81247 0.28527 -0.13800
C 	C 	0.74013 0.06807 0.23447 0.33900
C 	C 	0.55693 0.97947 0.40617 0.34800
C 	C 	0.64553 0.02187 0.31787 -0.01600
H 	H 	0.65443 0.06767 0.32447 0.06500
C 	C 	0.68323 0.00817 0.27307 -0.03500
C 	C 	0.66903 0.93957 0.26257 -0.09700
H 	H 	0.69543 0.93097 0.23347 0.09400
C 	C 	0.61533 0.88367 0.29557 0.11500
C 	C 	0.57813 0.89737 0.34107 -0.08700
H 	H 	0.54253 0.86037 0.36367 0.08000
C 	C 	0.59413 0.96597 0.35267 -0.04200
C 	C 	0.63133 0.78857 0.24587 0.23500
C 	C 	0.53873 0.75407 0.31997 -0.15900
H 	H 	0.54823 0.75767 0.36457 0.09300
H 	H 	0.49443 0.75317 0.31267 0.08000
C 	C 	0.53723 0.69007 0.29247 0.13200
C 	C 	0.59053 0.71067 0.24987 -0.11900
C 	C 	0.60303 0.66227 0.21937 0.06900
H 	H 	0.64033 0.67707 0.19127 0.02500
C 	C 	0.55933 0.59237 0.23127 -0.14300
H 	H 	0.56593 0.55857 0.21077 0.09900
C 	C 	0.50473 0.57157 0.27437 0.08700
H 	H 	0.47573 0.52367 0.28247 0.01300
C 	C 	0.49243 0.61897 0.30507 -0.17600
H 	H 	0.45533 0.60417 0.33337 0.09700
