data_crystal

_cell_length_a 21.24980
_cell_length_b 21.24980
_cell_length_c 22.01470
_cell_angle_alpha 90.00000
_cell_angle_beta  90.00000
_cell_angle_gamma 120.00000

_symmetry_space_group_name_	'P 1'
_symmetry_space_group_name_H-M	'P 1'

loop_
_symmetry_equiv_pos_as_xyz
  x,y,z

loop_
_atom_site_label
_atom_site_type_symbol
_atom_site_fract_x
_atom_site_fract_y
_atom_site_fract_z
_atom_site_charge
Cu	Cu	0.46007 0.53039 0.00980 0.89800
O 	O 	0.54193 0.59921 0.06200 -0.39800
O 	O 	0.61133 0.55070 0.04179 -0.40900
O 	O 	0.73930 0.82089 0.27028 -0.41100
O 	O 	0.62026 0.75359 0.25260 -0.40500
O 	O 	0.84570 0.65270 0.04850 -0.24900
N 	N 	0.85960 0.73910 0.12040 -0.13900
C 	C 	0.59920 0.59600 0.06683 0.34700
C 	C 	0.68480 0.77380 0.24077 0.34700
C 	C 	0.70000 0.73910 0.18790 -0.05100
C 	C 	0.64330 0.68760 0.15200 -0.00800
H 	H 	0.59580 0.67680 0.15900 0.06100
C 	C 	0.65860 0.65320 0.10610 -0.04400
C 	C 	0.72990 0.66830 0.09620 -0.09100
H 	H 	0.73940 0.64310 0.06640 0.09300
C 	C 	0.78670 0.72090 0.13090 0.11000
C 	C 	0.77120 0.75680 0.17670 -0.08000
H 	H 	0.80870 0.79260 0.19970 0.07800
C 	C 	0.88150 0.70470 0.07840 0.24300
C 	C 	0.92030 0.79560 0.15390 -0.15100
H 	H 	0.91620 0.78430 0.19690 0.09100
H 	H 	0.92330 0.84230 0.14830 0.07800
C 	C 	0.98420 0.79530 0.12680 0.12200
C 	C 	0.96210 0.74300 0.08310 -0.10900
C 	C 	0.01010 0.72800 0.05200 0.05300
H 	H 	0.99380 0.69130 0.02300 0.03200
C 	C 	0.08280 0.77000 0.06600 -0.12500
H 	H 	0.11670 0.76240 0.04540 0.09300
C 	C 	0.10590 0.82300 0.10990 0.07200
H 	H 	0.15520 0.85020 0.11870 0.01800
C 	C 	0.05820 0.83710 0.14140 -0.16200
H 	H 	0.07440 0.87300 0.17110 0.09400
Cu	Cu	0.12674 0.86372 0.34313 0.89900
O 	O 	0.20860 0.93254 0.39533 -0.39700
O 	O 	0.27800 0.88403 0.37512 -0.40900
O 	O 	0.40597 0.15422 0.60361 -0.41100
O 	O 	0.28693 0.08692 0.58593 -0.40500
O 	O 	0.51237 0.98603 0.38183 -0.25000
N 	N 	0.52627 0.07243 0.45373 -0.13900
C 	C 	0.26587 0.92933 0.40016 0.34700
C 	C 	0.35147 0.10713 0.57410 0.34700
C 	C 	0.36667 0.07243 0.52123 -0.05100
C 	C 	0.30997 0.02093 0.48533 -0.00700
H 	H 	0.26247 0.01013 0.49233 0.06100
C 	C 	0.32527 0.98653 0.43943 -0.04400
C 	C 	0.39657 0.00163 0.42953 -0.09000
H 	H 	0.40607 0.97643 0.39973 0.09200
C 	C 	0.45337 0.05423 0.46423 0.11000
C 	C 	0.43787 0.09013 0.51003 -0.08000
H 	H 	0.47537 0.12593 0.53303 0.07800
C 	C 	0.54817 0.03803 0.41173 0.24400
C 	C 	0.58697 0.12893 0.48723 -0.15200
H 	H 	0.58287 0.11763 0.53023 0.09100
H 	H 	0.58997 0.17563 0.48163 0.07800
C 	C 	0.65087 0.12863 0.46013 0.12300
C 	C 	0.62877 0.07633 0.41643 -0.11200
C 	C 	0.67677 0.06133 0.38533 0.05800
H 	H 	0.66047 0.02463 0.35633 0.03000
C 	C 	0.74947 0.10333 0.39933 -0.12900
H 	H 	0.78337 0.09573 0.37873 0.09500
C 	C 	0.77257 0.15633 0.44323 0.07400
H 	H 	0.82187 0.18353 0.45203 0.01700
C 	C 	0.72487 0.17043 0.47473 -0.16200
H 	H 	0.74107 0.20633 0.50443 0.09500
Cu	Cu	0.79340 0.19706 0.67647 0.89900
O 	O 	0.87526 0.26588 0.72867 -0.39700
O 	O 	0.94466 0.21737 0.70846 -0.40900
O 	O 	0.07263 0.48756 0.93695 -0.41000
O 	O 	0.95359 0.42026 0.91927 -0.40600
O 	O 	0.17903 0.31937 0.71517 -0.25000
N 	N 	0.19293 0.40577 0.78707 -0.13900
C 	C 	0.93253 0.26267 0.73350 0.34700
C 	C 	0.01813 0.44047 0.90744 0.34700
C 	C 	0.03333 0.40577 0.85457 -0.05000
C 	C 	0.97663 0.35427 0.81867 -0.00900
H 	H 	0.92913 0.34347 0.82567 0.06100
C 	C 	0.99193 0.31987 0.77277 -0.04400
C 	C 	0.06323 0.33497 0.76287 -0.09000
H 	H 	0.07273 0.30977 0.73307 0.09200
C 	C 	0.12003 0.38757 0.79757 0.11000
C 	C 	0.10453 0.42347 0.84337 -0.08000
H 	H 	0.14203 0.45927 0.86637 0.07800
C 	C 	0.21483 0.37137 0.74507 0.24400
C 	C 	0.25363 0.46227 0.82057 -0.15200
H 	H 	0.24953 0.45097 0.86357 0.09100
H 	H 	0.25663 0.50897 0.81497 0.07800
C 	C 	0.31753 0.46197 0.79347 0.12300
C 	C 	0.29543 0.40967 0.74977 -0.11200
C 	C 	0.34343 0.39467 0.71867 0.05800
H 	H 	0.32713 0.35797 0.68967 0.02900
C 	C 	0.41613 0.43667 0.73267 -0.12900
H 	H 	0.45003 0.42907 0.71207 0.09500
C 	C 	0.43923 0.48967 0.77657 0.07400
H 	H 	0.48853 0.51687 0.78537 0.01700
C 	C 	0.39153 0.50377 0.80807 -0.16200
H 	H 	0.40773 0.53967 0.83777 0.09500
Cu	Cu	0.46961 0.92968 0.00980 0.89900
O 	O 	0.40079 0.94272 0.06200 -0.39800
O 	O 	0.44930 0.06063 0.04179 -0.40900
O 	O 	0.17911 0.91841 0.27028 -0.41100
O 	O 	0.24641 0.86667 0.25260 -0.40500
O 	O 	0.34730 0.19300 0.04850 -0.24900
N 	N 	0.26090 0.12050 0.12040 -0.13900
C 	C 	0.40400 0.00320 0.06683 0.34800
C 	C 	0.22620 0.91100 0.24077 0.34700
C 	C 	0.26090 0.96090 0.18790 -0.05100
C 	C 	0.31240 0.95570 0.15200 -0.00900
H 	H 	0.32320 0.91900 0.15900 0.06100
C 	C 	0.34680 0.00540 0.10610 -0.04300
C 	C 	0.33170 0.06160 0.09620 -0.09100
H 	H 	0.35690 0.09630 0.06640 0.09300
C 	C 	0.27910 0.06580 0.13090 0.11000
C 	C 	0.24320 0.01440 0.17670 -0.07900
H 	H 	0.20740 0.01610 0.19970 0.07800
C 	C 	0.29530 0.17680 0.07840 0.24400
C 	C 	0.20440 0.12470 0.15390 -0.15200
H 	H 	0.21570 0.13190 0.19690 0.09100
H 	H 	0.15770 0.08100 0.14830 0.07800
C 	C 	0.20470 0.18890 0.12680 0.12300
C 	C 	0.25700 0.21910 0.08310 -0.11200
C 	C 	0.27200 0.28210 0.05200 0.05800
H 	H 	0.30870 0.30250 0.02300 0.03000
C 	C 	0.23000 0.31280 0.06600 -0.12800
H 	H 	0.23760 0.35430 0.04540 0.09400
C 	C 	0.17700 0.28290 0.10990 0.07400
H 	H 	0.14980 0.30500 0.11870 0.01700
C 	C 	0.16290 0.22110 0.14140 -0.16200
H 	H 	0.12700 0.20140 0.17110 0.09500
Cu	Cu	0.13628 0.26301 0.34313 0.89900
O 	O 	0.06746 0.27605 0.39533 -0.39700
O 	O 	0.11597 0.39396 0.37512 -0.40900
O 	O 	0.84578 0.25174 0.60361 -0.41100
O 	O 	0.91308 0.20000 0.58593 -0.40500
O 	O 	0.01397 0.52633 0.38183 -0.25000
N 	N 	0.92757 0.45383 0.45373 -0.13900
C 	C 	0.07067 0.33653 0.40016 0.34700
C 	C 	0.89287 0.24433 0.57410 0.34700
C 	C 	0.92757 0.29423 0.52123 -0.05100
C 	C 	0.97907 0.28903 0.48533 -0.00700
H 	H 	0.98987 0.25233 0.49233 0.06100
C 	C 	0.01347 0.33873 0.43943 -0.04400
C 	C 	0.99837 0.39493 0.42953 -0.09000
H 	H 	0.02357 0.42963 0.39973 0.09200
C 	C 	0.94577 0.39913 0.46423 0.11000
C 	C 	0.90987 0.34773 0.51003 -0.08000
H 	H 	0.87407 0.34943 0.53303 0.07800
C 	C 	0.96197 0.51013 0.41173 0.24400
C 	C 	0.87107 0.45803 0.48723 -0.15200
H 	H 	0.88237 0.46523 0.53023 0.09100
H 	H 	0.82437 0.41433 0.48163 0.07800
C 	C 	0.87137 0.52223 0.46013 0.12300
C 	C 	0.92367 0.55243 0.41643 -0.11200
C 	C 	0.93867 0.61543 0.38533 0.05800
H 	H 	0.97537 0.63583 0.35633 0.03000
C 	C 	0.89667 0.64613 0.39933 -0.12900
H 	H 	0.90427 0.68763 0.37873 0.09500
C 	C 	0.84367 0.61623 0.44323 0.07400
H 	H 	0.81647 0.63833 0.45203 0.01700
C 	C 	0.82957 0.55443 0.47473 -0.16200
H 	H 	0.79367 0.53473 0.50443 0.09500
Cu	Cu	0.80294 0.59635 0.67647 0.89900
O 	O 	0.73412 0.60939 0.72867 -0.39700
O 	O 	0.78263 0.72730 0.70846 -0.40900
O 	O 	0.51244 0.58508 0.93695 -0.41100
O 	O 	0.57974 0.53334 0.91927 -0.40500
O 	O 	0.68063 0.85967 0.71517 -0.25000
N 	N 	0.59423 0.78717 0.78707 -0.13900
C 	C 	0.73733 0.66987 0.73350 0.34700
C 	C 	0.55953 0.57767 0.90744 0.34700
C 	C 	0.59423 0.62757 0.85457 -0.05100
C 	C 	0.64573 0.62237 0.81867 -0.00800
H 	H 	0.65653 0.58567 0.82567 0.06100
C 	C 	0.68013 0.67207 0.77277 -0.04400
C 	C 	0.66503 0.72827 0.76287 -0.09100
H 	H 	0.69023 0.76297 0.73307 0.09300
C 	C 	0.61243 0.73247 0.79757 0.11000
C 	C 	0.57653 0.68107 0.84337 -0.08000
H 	H 	0.54073 0.68277 0.86637 0.07800
C 	C 	0.62863 0.84347 0.74507 0.24400
C 	C 	0.53773 0.79137 0.82057 -0.15200
H 	H 	0.54903 0.79857 0.86357 0.09100
H 	H 	0.49103 0.74767 0.81497 0.07800
C 	C 	0.53803 0.85557 0.79347 0.12200
C 	C 	0.59033 0.88577 0.74977 -0.11100
C 	C 	0.60533 0.94877 0.71867 0.05700
H 	H 	0.64203 0.96917 0.68967 0.03000
C 	C 	0.56333 0.97947 0.73267 -0.12700
H 	H 	0.57093 0.02097 0.71207 0.09400
C 	C 	0.51033 0.94957 0.77657 0.07300
H 	H 	0.48313 0.97167 0.78537 0.01800
C 	C 	0.49623 0.88777 0.80807 -0.16200
H 	H 	0.46033 0.86807 0.83777 0.09400
Cu	Cu	0.07032 0.53993 0.00980 0.89900
O 	O 	0.05728 0.45807 0.06200 -0.39800
O 	O 	0.93937 0.38867 0.04179 -0.40900
O 	O 	0.08159 0.26070 0.27028 -0.41100
O 	O 	0.13333 0.37974 0.25260 -0.40500
O 	O 	0.80700 0.15430 0.04850 -0.24900
N 	N 	0.87950 0.14040 0.12040 -0.13900
C 	C 	0.99680 0.40080 0.06683 0.34800
C 	C 	0.08900 0.31520 0.24077 0.34700
C 	C 	0.03910 0.30000 0.18790 -0.05100
C 	C 	0.04430 0.35670 0.15200 -0.00900
H 	H 	0.08100 0.40420 0.15900 0.06100
C 	C 	0.99460 0.34140 0.10610 -0.04300
C 	C 	0.93840 0.27010 0.09620 -0.09100
H 	H 	0.90370 0.26060 0.06640 0.09300
C 	C 	0.93420 0.21330 0.13090 0.11000
C 	C 	0.98560 0.22880 0.17670 -0.07900
H 	H 	0.98390 0.19130 0.19970 0.07800
C 	C 	0.82320 0.11850 0.07840 0.24300
C 	C 	0.87530 0.07970 0.15390 -0.15200
H 	H 	0.86810 0.08380 0.19690 0.09100
H 	H 	0.91900 0.07670 0.14830 0.07800
C 	C 	0.81110 0.01580 0.12680 0.12200
C 	C 	0.78090 0.03790 0.08310 -0.10900
C 	C 	0.71790 0.98990 0.05200 0.05300
H 	H 	0.69750 0.00620 0.02300 0.03200
C 	C 	0.68720 0.91720 0.06600 -0.12600
H 	H 	0.64570 0.88330 0.04540 0.09300
C 	C 	0.71710 0.89410 0.10990 0.07200
H 	H 	0.69500 0.84480 0.11870 0.01800
C 	C 	0.77890 0.94180 0.14140 -0.16200
H 	H 	0.79860 0.92560 0.17110 0.09400
Cu	Cu	0.73699 0.87326 0.34313 0.89900
O 	O 	0.72395 0.79140 0.39533 -0.39700
O 	O 	0.60604 0.72200 0.37512 -0.40900
O 	O 	0.74826 0.59403 0.60361 -0.41100
O 	O 	0.80000 0.71307 0.58593 -0.40500
O 	O 	0.47367 0.48763 0.38183 -0.25000
N 	N 	0.54617 0.47373 0.45373 -0.13900
C 	C 	0.66347 0.73413 0.40016 0.34700
C 	C 	0.75567 0.64853 0.57410 0.34700
C 	C 	0.70577 0.63333 0.52123 -0.05100
C 	C 	0.71097 0.69003 0.48533 -0.00800
H 	H 	0.74767 0.73753 0.49233 0.06100
C 	C 	0.66127 0.67473 0.43943 -0.04400
C 	C 	0.60507 0.60343 0.42953 -0.09100
H 	H 	0.57037 0.59393 0.39973 0.09300
C 	C 	0.60087 0.54663 0.46423 0.11000
C 	C 	0.65227 0.56213 0.51003 -0.08000
H 	H 	0.65057 0.52463 0.53303 0.07800
C 	C 	0.48987 0.45183 0.41173 0.24400
C 	C 	0.54197 0.41303 0.48723 -0.15200
H 	H 	0.53477 0.41713 0.53023 0.09100
H 	H 	0.58567 0.41003 0.48163 0.07800
C 	C 	0.47777 0.34913 0.46013 0.12300
C 	C 	0.44757 0.37123 0.41643 -0.11200
C 	C 	0.38457 0.32323 0.38533 0.05800
H 	H 	0.36417 0.33953 0.35633 0.02900
C 	C 	0.35387 0.25053 0.39933 -0.12900
H 	H 	0.31237 0.21663 0.37873 0.09500
C 	C 	0.38377 0.22743 0.44323 0.07400
H 	H 	0.36167 0.17813 0.45203 0.01800
C 	C 	0.44557 0.27513 0.47473 -0.16200
H 	H 	0.46527 0.25893 0.50443 0.09500
Cu	Cu	0.40365 0.20660 0.67647 0.89900
O 	O 	0.39061 0.12474 0.72867 -0.39700
O 	O 	0.27270 0.05534 0.70846 -0.40900
O 	O 	0.41492 0.92737 0.93695 -0.41000
O 	O 	0.46666 0.04641 0.91927 -0.40600
O 	O 	0.14033 0.82097 0.71517 -0.25000
N 	N 	0.21283 0.80707 0.78707 -0.13900
C 	C 	0.33013 0.06747 0.73350 0.34700
C 	C 	0.42233 0.98187 0.90744 0.34700
C 	C 	0.37243 0.96667 0.85457 -0.05000
C 	C 	0.37763 0.02337 0.81867 -0.00900
H 	H 	0.41433 0.07087 0.82567 0.06100
C 	C 	0.32793 0.00807 0.77277 -0.04400
C 	C 	0.27173 0.93677 0.76287 -0.09000
H 	H 	0.23703 0.92727 0.73307 0.09300
C 	C 	0.26753 0.87997 0.79757 0.11000
C 	C 	0.31893 0.89547 0.84337 -0.08000
H 	H 	0.31723 0.85797 0.86637 0.07800
C 	C 	0.15653 0.78517 0.74507 0.24400
C 	C 	0.20863 0.74637 0.82057 -0.15200
H 	H 	0.20143 0.75047 0.86357 0.09100
H 	H 	0.25233 0.74337 0.81497 0.07800
C 	C 	0.14443 0.68247 0.79347 0.12200
C 	C 	0.11423 0.70457 0.74977 -0.11100
C 	C 	0.05123 0.65657 0.71867 0.05700
H 	H 	0.03083 0.67287 0.68967 0.03000
C 	C 	0.02053 0.58387 0.73267 -0.12700
H 	H 	0.97903 0.54997 0.71207 0.09400
C 	C 	0.05043 0.56077 0.77657 0.07300
H 	H 	0.02833 0.51147 0.78537 0.01800
C 	C 	0.11223 0.60847 0.80807 -0.16200
H 	H 	0.13193 0.59227 0.83777 0.09400
Cu	Cu	0.53993 0.46961 0.99020 0.89900
O 	O 	0.45807 0.40079 0.93800 -0.39700
O 	O 	0.38867 0.44930 0.95821 -0.40900
O 	O 	0.26070 0.17911 0.72972 -0.41100
O 	O 	0.37974 0.24641 0.74740 -0.40500
O 	O 	0.15430 0.34730 0.95150 -0.24900
N 	N 	0.14040 0.26090 0.87960 -0.13900
C 	C 	0.40080 0.40400 0.93317 0.34700
C 	C 	0.31520 0.22620 0.75923 0.34700
C 	C 	0.30000 0.26090 0.81210 -0.05100
C 	C 	0.35670 0.31240 0.84800 -0.00800
H 	H 	0.40420 0.32320 0.84100 0.06100
C 	C 	0.34140 0.34680 0.89390 -0.04400
C 	C 	0.27010 0.33170 0.90380 -0.09100
H 	H 	0.26060 0.35690 0.93360 0.09300
C 	C 	0.21330 0.27910 0.86910 0.11000
C 	C 	0.22880 0.24320 0.82330 -0.08000
H 	H 	0.19130 0.20740 0.80030 0.07800
C 	C 	0.11850 0.29530 0.92160 0.24300
C 	C 	0.07970 0.20440 0.84610 -0.15100
H 	H 	0.08380 0.21570 0.80310 0.09100
H 	H 	0.07670 0.15770 0.85170 0.07800
C 	C 	0.01580 0.20470 0.87320 0.12200
C 	C 	0.03790 0.25700 0.91690 -0.10900
C 	C 	0.98990 0.27200 0.94800 0.05300
H 	H 	0.00620 0.30870 0.97700 0.03200
C 	C 	0.91720 0.23000 0.93400 -0.12500
H 	H 	0.88330 0.23760 0.95460 0.09300
C 	C 	0.89410 0.17700 0.89010 0.07200
H 	H 	0.84480 0.14980 0.88130 0.01800
C 	C 	0.94180 0.16290 0.85860 -0.16200
H 	H 	0.92560 0.12700 0.82890 0.09400
Cu	Cu	0.20660 0.80294 0.32353 0.89900
O 	O 	0.12474 0.73412 0.27133 -0.39700
O 	O 	0.05534 0.78263 0.29154 -0.40900
O 	O 	0.92737 0.51244 0.06305 -0.41000
O 	O 	0.04641 0.57974 0.08073 -0.40600
O 	O 	0.82097 0.68063 0.28483 -0.25000
N 	N 	0.80707 0.59423 0.21293 -0.13900
C 	C 	0.06747 0.73733 0.26650 0.34700
C 	C 	0.98187 0.55953 0.09256 0.34700
C 	C 	0.96667 0.59423 0.14543 -0.05000
C 	C 	0.02337 0.64573 0.18133 -0.00900
H 	H 	0.07087 0.65653 0.17433 0.06100
C 	C 	0.00807 0.68013 0.22723 -0.04400
C 	C 	0.93677 0.66503 0.23713 -0.09000
H 	H 	0.92727 0.69023 0.26693 0.09200
C 	C 	0.87997 0.61243 0.20243 0.11000
C 	C 	0.89547 0.57653 0.15663 -0.08000
H 	H 	0.85797 0.54073 0.13363 0.07800
C 	C 	0.78517 0.62863 0.25493 0.24400
C 	C 	0.74637 0.53773 0.17943 -0.15200
H 	H 	0.75047 0.54903 0.13643 0.09100
H 	H 	0.74337 0.49103 0.18503 0.07800
C 	C 	0.68247 0.53803 0.20653 0.12300
C 	C 	0.70457 0.59033 0.25023 -0.11200
C 	C 	0.65657 0.60533 0.28133 0.05800
H 	H 	0.67287 0.64203 0.31033 0.02900
C 	C 	0.58387 0.56333 0.26733 -0.12900
H 	H 	0.54997 0.57093 0.28793 0.09500
C 	C 	0.56077 0.51033 0.22343 0.07400
H 	H 	0.51147 0.48313 0.21463 0.01700
C 	C 	0.60847 0.49623 0.19193 -0.16200
H 	H 	0.59227 0.46033 0.16223 0.09500
Cu	Cu	0.87326 0.13628 0.65687 0.89900
O 	O 	0.79140 0.06746 0.60467 -0.39700
O 	O 	0.72200 0.11597 0.62488 -0.40900
O 	O 	0.59403 0.84578 0.39639 -0.41100
O 	O 	0.71307 0.91308 0.41407 -0.40500
O 	O 	0.48763 0.01397 0.61817 -0.25000
N 	N 	0.47373 0.92757 0.54627 -0.13900
C 	C 	0.73413 0.07067 0.59984 0.34700
C 	C 	0.64853 0.89287 0.42590 0.34700
C 	C 	0.63333 0.92757 0.47877 -0.05100
C 	C 	0.69003 0.97907 0.51467 -0.00700
H 	H 	0.73753 0.98987 0.50767 0.06100
C 	C 	0.67473 0.01347 0.56057 -0.04400
C 	C 	0.60343 0.99837 0.57047 -0.09000
H 	H 	0.59393 0.02357 0.60027 0.09200
C 	C 	0.54663 0.94577 0.53577 0.11000
C 	C 	0.56213 0.90987 0.48997 -0.08000
H 	H 	0.52463 0.87407 0.46697 0.07800
C 	C 	0.45183 0.96197 0.58827 0.24400
C 	C 	0.41303 0.87107 0.51277 -0.15200
H 	H 	0.41713 0.88237 0.46977 0.09100
H 	H 	0.41003 0.82437 0.51837 0.07800
C 	C 	0.34913 0.87137 0.53987 0.12300
C 	C 	0.37123 0.92367 0.58357 -0.11200
C 	C 	0.32323 0.93867 0.61467 0.05800
H 	H 	0.33953 0.97537 0.64367 0.03000
C 	C 	0.25053 0.89667 0.60067 -0.12900
H 	H 	0.21663 0.90427 0.62127 0.09500
C 	C 	0.22743 0.84367 0.55677 0.07400
H 	H 	0.17813 0.81647 0.54797 0.01700
C 	C 	0.27513 0.82957 0.52527 -0.16200
H 	H 	0.25893 0.79367 0.49557 0.09500
Cu	Cu	0.53039 0.07032 0.99020 0.89900
O 	O 	0.59921 0.05728 0.93800 -0.39800
O 	O 	0.55070 0.93937 0.95821 -0.40900
O 	O 	0.82089 0.08159 0.72972 -0.41100
O 	O 	0.75359 0.13333 0.74740 -0.40500
O 	O 	0.65270 0.80700 0.95150 -0.24900
N 	N 	0.73910 0.87950 0.87960 -0.13900
C 	C 	0.59600 0.99680 0.93317 0.34800
C 	C 	0.77380 0.08900 0.75923 0.34700
C 	C 	0.73910 0.03910 0.81210 -0.05100
C 	C 	0.68760 0.04430 0.84800 -0.00900
H 	H 	0.67680 0.08100 0.84100 0.06100
C 	C 	0.65320 0.99460 0.89390 -0.04300
C 	C 	0.66830 0.93840 0.90380 -0.09100
H 	H 	0.64310 0.90370 0.93360 0.09300
C 	C 	0.72090 0.93420 0.86910 0.11000
C 	C 	0.75680 0.98560 0.82330 -0.07900
H 	H 	0.79260 0.98390 0.80030 0.07800
C 	C 	0.70470 0.82320 0.92160 0.24400
C 	C 	0.79560 0.87530 0.84610 -0.15200
H 	H 	0.78430 0.86810 0.80310 0.09100
H 	H 	0.84230 0.91900 0.85170 0.07800
C 	C 	0.79530 0.81110 0.87320 0.12300
C 	C 	0.74300 0.78090 0.91690 -0.11200
C 	C 	0.72800 0.71790 0.94800 0.05800
H 	H 	0.69130 0.69750 0.97700 0.03000
C 	C 	0.77000 0.68720 0.93400 -0.12800
H 	H 	0.76240 0.64570 0.95460 0.09400
C 	C 	0.82300 0.71710 0.89010 0.07400
H 	H 	0.85020 0.69500 0.88130 0.01700
C 	C 	0.83710 0.77890 0.85860 -0.16200
H 	H 	0.87300 0.79860 0.82890 0.09500
Cu	Cu	0.19706 0.40365 0.32353 0.89900
O 	O 	0.26588 0.39061 0.27133 -0.39700
O 	O 	0.21737 0.27270 0.29154 -0.40900
O 	O 	0.48756 0.41492 0.06305 -0.41100
O 	O 	0.42026 0.46666 0.08073 -0.40500
O 	O 	0.31937 0.14033 0.28483 -0.25000
N 	N 	0.40577 0.21283 0.21293 -0.13900
C 	C 	0.26267 0.33013 0.26650 0.34700
C 	C 	0.44047 0.42233 0.09256 0.34700
C 	C 	0.40577 0.37243 0.14543 -0.05100
C 	C 	0.35427 0.37763 0.18133 -0.00800
H 	H 	0.34347 0.41433 0.17433 0.06100
C 	C 	0.31987 0.32793 0.22723 -0.04400
C 	C 	0.33497 0.27173 0.23713 -0.09100
H 	H 	0.30977 0.23703 0.26693 0.09300
C 	C 	0.38757 0.26753 0.20243 0.11000
C 	C 	0.42347 0.31893 0.15663 -0.08000
H 	H 	0.45927 0.31723 0.13363 0.07800
C 	C 	0.37137 0.15653 0.25493 0.24400
C 	C 	0.46227 0.20863 0.17943 -0.15200
H 	H 	0.45097 0.20143 0.13643 0.09100
H 	H 	0.50897 0.25233 0.18503 0.07800
C 	C 	0.46197 0.14443 0.20653 0.12200
C 	C 	0.40967 0.11423 0.25023 -0.11100
C 	C 	0.39467 0.05123 0.28133 0.05700
H 	H 	0.35797 0.03083 0.31033 0.03000
C 	C 	0.43667 0.02053 0.26733 -0.12700
H 	H 	0.42907 0.97903 0.28793 0.09400
C 	C 	0.48967 0.05043 0.22343 0.07300
H 	H 	0.51687 0.02833 0.21463 0.01800
C 	C 	0.50377 0.11223 0.19193 -0.16200
H 	H 	0.53967 0.13193 0.16223 0.09400
Cu	Cu	0.86372 0.73699 0.65687 0.89900
O 	O 	0.93254 0.72395 0.60467 -0.39700
O 	O 	0.88403 0.60604 0.62488 -0.40900
O 	O 	0.15422 0.74826 0.39639 -0.41100
O 	O 	0.08692 0.80000 0.41407 -0.40500
O 	O 	0.98603 0.47367 0.61817 -0.25000
N 	N 	0.07243 0.54617 0.54627 -0.13900
C 	C 	0.92933 0.66347 0.59984 0.34700
C 	C 	0.10713 0.75567 0.42590 0.34700
C 	C 	0.07243 0.70577 0.47877 -0.05100
C 	C 	0.02093 0.71097 0.51467 -0.00700
H 	H 	0.01013 0.74767 0.50767 0.06100
C 	C 	0.98653 0.66127 0.56057 -0.04400
C 	C 	0.00163 0.60507 0.57047 -0.09000
H 	H 	0.97643 0.57037 0.60027 0.09200
C 	C 	0.05423 0.60087 0.53577 0.11000
C 	C 	0.09013 0.65227 0.48997 -0.08000
H 	H 	0.12593 0.65057 0.46697 0.07800
C 	C 	0.03803 0.48987 0.58827 0.24400
C 	C 	0.12893 0.54197 0.51277 -0.15200
H 	H 	0.11763 0.53477 0.46977 0.09100
H 	H 	0.17563 0.58567 0.51837 0.07800
C 	C 	0.12863 0.47777 0.53987 0.12300
C 	C 	0.07633 0.44757 0.58357 -0.11200
C 	C 	0.06133 0.38457 0.61467 0.05800
H 	H 	0.02463 0.36417 0.64367 0.03000
C 	C 	0.10333 0.35387 0.60067 -0.12900
H 	H 	0.09573 0.31237 0.62127 0.09500
C 	C 	0.15633 0.38377 0.55677 0.07400
H 	H 	0.18353 0.36167 0.54797 0.01700
C 	C 	0.17043 0.44557 0.52527 -0.16200
H 	H 	0.20633 0.46527 0.49557 0.09500
Cu	Cu	0.92968 0.46007 0.99020 0.89900
O 	O 	0.94272 0.54193 0.93800 -0.39800
O 	O 	0.06063 0.61133 0.95821 -0.40900
O 	O 	0.91841 0.73930 0.72972 -0.41100
O 	O 	0.86667 0.62026 0.74740 -0.40500
O 	O 	0.19300 0.84570 0.95150 -0.24900
N 	N 	0.12050 0.85960 0.87960 -0.13900
C 	C 	0.00320 0.59920 0.93317 0.34800
C 	C 	0.91100 0.68480 0.75923 0.34700
C 	C 	0.96090 0.70000 0.81210 -0.05100
C 	C 	0.95570 0.64330 0.84800 -0.00900
H 	H 	0.91900 0.59580 0.84100 0.06100
C 	C 	0.00540 0.65860 0.89390 -0.04300
C 	C 	0.06160 0.72990 0.90380 -0.09100
H 	H 	0.09630 0.73940 0.93360 0.09300
C 	C 	0.06580 0.78670 0.86910 0.11000
C 	C 	0.01440 0.77120 0.82330 -0.07900
H 	H 	0.01610 0.80870 0.80030 0.07800
C 	C 	0.17680 0.88150 0.92160 0.24300
C 	C 	0.12470 0.92030 0.84610 -0.15200
H 	H 	0.13190 0.91620 0.80310 0.09100
H 	H 	0.08100 0.92330 0.85170 0.07800
C 	C 	0.18890 0.98420 0.87320 0.12200
C 	C 	0.21910 0.96210 0.91690 -0.10900
C 	C 	0.28210 0.01010 0.94800 0.05300
H 	H 	0.30250 0.99380 0.97700 0.03200
C 	C 	0.31280 0.08280 0.93400 -0.12600
H 	H 	0.35430 0.11670 0.95460 0.09300
C 	C 	0.28290 0.10590 0.89010 0.07200
H 	H 	0.30500 0.15520 0.88130 0.01800
C 	C 	0.22110 0.05820 0.85860 -0.16200
H 	H 	0.20140 0.07440 0.82890 0.09400
Cu	Cu	0.59635 0.79340 0.32353 0.89900
O 	O 	0.60939 0.87526 0.27133 -0.39700
O 	O 	0.72730 0.94466 0.29154 -0.40900
O 	O 	0.58508 0.07263 0.06305 -0.41000
O 	O 	0.53334 0.95359 0.08073 -0.40600
O 	O 	0.85967 0.17903 0.28483 -0.25000
N 	N 	0.78717 0.19293 0.21293 -0.13900
C 	C 	0.66987 0.93253 0.26650 0.34700
C 	C 	0.57767 0.01813 0.09256 0.34700
C 	C 	0.62757 0.03333 0.14543 -0.05000
C 	C 	0.62237 0.97663 0.18133 -0.00900
H 	H 	0.58567 0.92913 0.17433 0.06100
C 	C 	0.67207 0.99193 0.22723 -0.04400
C 	C 	0.72827 0.06323 0.23713 -0.09000
H 	H 	0.76297 0.07273 0.26693 0.09300
C 	C 	0.73247 0.12003 0.20243 0.11000
C 	C 	0.68107 0.10453 0.15663 -0.08000
H 	H 	0.68277 0.14203 0.13363 0.07800
C 	C 	0.84347 0.21483 0.25493 0.24400
C 	C 	0.79137 0.25363 0.17943 -0.15200
H 	H 	0.79857 0.24953 0.13643 0.09100
H 	H 	0.74767 0.25663 0.18503 0.07800
C 	C 	0.85557 0.31753 0.20653 0.12200
C 	C 	0.88577 0.29543 0.25023 -0.11100
C 	C 	0.94877 0.34343 0.28133 0.05700
H 	H 	0.96917 0.32713 0.31033 0.03000
C 	C 	0.97947 0.41613 0.26733 -0.12700
H 	H 	0.02097 0.45003 0.28793 0.09400
C 	C 	0.94957 0.43923 0.22343 0.07300
H 	H 	0.97167 0.48853 0.21463 0.01800
C 	C 	0.88777 0.39153 0.19193 -0.16200
H 	H 	0.86807 0.40773 0.16223 0.09400
Cu	Cu	0.26301 0.12674 0.65687 0.89900
O 	O 	0.27605 0.20860 0.60467 -0.39700
O 	O 	0.39396 0.27800 0.62488 -0.40900
O 	O 	0.25174 0.40597 0.39639 -0.41100
O 	O 	0.20000 0.28693 0.41407 -0.40500
O 	O 	0.52633 0.51237 0.61817 -0.25000
N 	N 	0.45383 0.52627 0.54627 -0.13900
C 	C 	0.33653 0.26587 0.59984 0.34700
C 	C 	0.24433 0.35147 0.42590 0.34700
C 	C 	0.29423 0.36667 0.47877 -0.05100
C 	C 	0.28903 0.30997 0.51467 -0.00800
H 	H 	0.25233 0.26247 0.50767 0.06100
C 	C 	0.33873 0.32527 0.56057 -0.04400
C 	C 	0.39493 0.39657 0.57047 -0.09100
H 	H 	0.42963 0.40607 0.60027 0.09300
C 	C 	0.39913 0.45337 0.53577 0.11000
C 	C 	0.34773 0.43787 0.48997 -0.08000
H 	H 	0.34943 0.47537 0.46697 0.07800
C 	C 	0.51013 0.54817 0.58827 0.24400
C 	C 	0.45803 0.58697 0.51277 -0.15200
H 	H 	0.46523 0.58287 0.46977 0.09100
H 	H 	0.41433 0.58997 0.51837 0.07800
C 	C 	0.52223 0.65087 0.53987 0.12300
C 	C 	0.55243 0.62877 0.58357 -0.11200
C 	C 	0.61543 0.67677 0.61467 0.05800
H 	H 	0.63583 0.66047 0.64367 0.02900
C 	C 	0.64613 0.74947 0.60067 -0.12900
H 	H 	0.68763 0.78337 0.62127 0.09500
C 	C 	0.61623 0.77257 0.55677 0.07400
H 	H 	0.63833 0.82187 0.54797 0.01800
C 	C 	0.55443 0.72487 0.52527 -0.16200
H 	H 	0.53473 0.74107 0.49557 0.09500
