data_crystal

_cell_length_a 20.38370
_cell_length_b 20.38370
_cell_length_c 14.00790
_cell_angle_alpha 90.00000
_cell_angle_beta  90.00000
_cell_angle_gamma 90.00000

_symmetry_space_group_name_	'P 1'
_symmetry_space_group_name_H-M	'P 1'

loop_
_symmetry_equiv_pos_as_xyz
  x,y,z

loop_
_atom_site_label
_atom_site_type_symbol
_atom_site_fract_x
_atom_site_fract_y
_atom_site_fract_z
_atom_site_charge
N 	N 	0.47580 0.34450 0.07520 -0.32400
N 	N 	0.59740 0.48160 0.19420 -0.13400
C 	C 	0.48350 0.39760 0.04880 -0.22100
C 	C 	0.56510 0.48790 0.12910 -0.21900
N 	N 	0.97580 0.84450 0.57520 -0.30900
N 	N 	0.09740 0.98160 0.69420 -0.12500
C 	C 	0.98350 0.89760 0.54880 -0.11300
C 	C 	0.06510 0.98790 0.62910 -0.17100
N 	N 	0.02420 0.15550 0.57520 -0.32600
N 	N 	0.90260 0.01840 0.69420 -0.13400
C 	C 	0.01650 0.10240 0.54880 -0.24800
C 	C 	0.93490 0.01210 0.62910 -0.20400
N 	N 	0.52420 0.65550 0.07520 -0.31600
N 	N 	0.40260 0.51840 0.19420 -0.13700
C 	C 	0.51650 0.60240 0.04880 -0.21500
C 	C 	0.43490 0.51210 0.12910 -0.22100
N 	N 	0.65550 0.97580 0.32520 -0.30900
N 	N 	0.51840 0.09740 0.44420 -0.13700
C 	C 	0.60240 0.98350 0.29880 -0.14100
C 	C 	0.51210 0.06510 0.37910 -0.23600
N 	N 	0.15550 0.47580 0.82520 -0.31500
N 	N 	0.01840 0.59740 0.94420 -0.13200
C 	C 	0.10240 0.48350 0.79880 -0.20700
C 	C 	0.01210 0.56510 0.87910 -0.24700
N 	N 	0.84450 0.52420 0.82520 -0.31000
N 	N 	0.98160 0.40260 0.94420 -0.11600
C 	C 	0.89760 0.51650 0.79880 -0.16000
C 	C 	0.98790 0.43490 0.87910 -0.14200
N 	N 	0.34450 0.02420 0.32520 -0.32800
N 	N 	0.48160 0.90260 0.44420 -0.12600
C 	C 	0.39760 0.01650 0.29880 -0.23600
C 	C 	0.48790 0.93490 0.37910 -0.16200
N 	N 	0.02420 0.34450 0.67480 -0.32500
N 	N 	0.90260 0.48160 0.55580 -0.13000
C 	C 	0.01650 0.39760 0.70120 -0.23300
C 	C 	0.93490 0.48790 0.62090 -0.16300
N 	N 	0.52420 0.84450 0.17480 -0.31900
N 	N 	0.40260 0.98160 0.05580 -0.13500
C 	C 	0.51650 0.89760 0.20120 -0.16700
C 	C 	0.43490 0.98790 0.12090 -0.15300
N 	N 	0.47580 0.15550 0.17480 -0.32300
N 	N 	0.59740 0.01840 0.05580 -0.15100
C 	C 	0.48350 0.10240 0.20120 -0.21400
C 	C 	0.56510 0.01210 0.12090 -0.25800
N 	N 	0.97580 0.65550 0.67480 -0.30600
N 	N 	0.09740 0.51840 0.55580 -0.14100
C 	C 	0.98350 0.60240 0.70120 -0.13800
C 	C 	0.06510 0.51210 0.62090 -0.23700
N 	N 	0.84450 0.97580 0.42480 -0.31100
N 	N 	0.98160 0.09740 0.30580 -0.13600
C 	C 	0.89760 0.98350 0.45120 -0.11500
C 	C 	0.98790 0.06510 0.37090 -0.17600
N 	N 	0.34450 0.47580 0.92480 -0.31600
N 	N 	0.48160 0.59740 0.80580 -0.12900
C 	C 	0.39760 0.48350 0.95120 -0.16300
C 	C 	0.48790 0.56510 0.87090 -0.18400
N 	N 	0.65550 0.52420 0.92480 -0.30900
N 	N 	0.51840 0.40260 0.80580 -0.13300
C 	C 	0.60240 0.51650 0.95120 -0.15800
C 	C 	0.51210 0.43490 0.87090 -0.18600
N 	N 	0.15550 0.02420 0.42480 -0.32800
N 	N 	0.01840 0.90260 0.30580 -0.14500
C 	C 	0.10240 0.01650 0.45120 -0.25000
C 	C 	0.01210 0.93490 0.37090 -0.21000
Nb	Nb	0.50000 0.50000 -0.00000 1.23200
Nb	Nb	0.00000 0.00000 0.50000 1.16900
Nb	Nb	0.50000 0.00000 0.25000 1.21600
Nb	Nb	0.00000 0.50000 0.75000 1.21700
Zn	Zn	0.47759 0.25000 0.12500 1.05700
Zn	Zn	0.97759 0.75000 0.62500 1.08300
Zn	Zn	0.02241 0.25000 0.62500 1.05100
Zn	Zn	0.52241 0.75000 0.12500 1.06500
Zn	Zn	0.75000 0.97759 0.37500 1.08100
Zn	Zn	0.25000 0.47759 0.87500 1.06700
Zn	Zn	0.75000 0.52241 0.87500 1.07600
Zn	Zn	0.25000 0.02241 0.37500 1.04900
