data_crystal

_cell_length_a 20.35340
_cell_length_b 20.35340
_cell_length_c 13.98240
_cell_angle_alpha 90.00000
_cell_angle_beta  90.00000
_cell_angle_gamma 90.00000

_symmetry_space_group_name_	'P 1'
_symmetry_space_group_name_H-M	'P 1'

loop_
_symmetry_equiv_pos_as_xyz
  x,y,z

loop_
_atom_site_label
_atom_site_type_symbol
_atom_site_fract_x
_atom_site_fract_y
_atom_site_fract_z
_atom_site_charge
N 	N 	0.52420 0.34450 0.07540 -0.32200
N 	N 	0.40240 0.48100 0.19370 -0.13800
C 	C 	0.51630 0.39680 0.04870 -0.21700
C 	C 	0.43460 0.48760 0.12940 -0.22300
N 	N 	0.02420 0.84450 0.57540 -0.32300
N 	N 	0.90240 0.98100 0.69370 -0.11400
C 	C 	0.01630 0.89680 0.54870 -0.19700
C 	C 	0.93460 0.98760 0.62940 -0.10300
N 	N 	0.97580 0.15550 0.57540 -0.31400
N 	N 	0.09760 0.01900 0.69370 -0.14400
C 	C 	0.98370 0.10320 0.54870 -0.15500
C 	C 	0.06540 0.01240 0.62940 -0.27900
N 	N 	0.47580 0.65550 0.07540 -0.31800
N 	N 	0.59760 0.51900 0.19370 -0.13200
C 	C 	0.48370 0.60320 0.04870 -0.21200
C 	C 	0.56540 0.51240 0.12940 -0.21900
N 	N 	0.65550 0.02420 0.32540 -0.32200
N 	N 	0.51900 0.90240 0.44370 -0.12500
C 	C 	0.60320 0.01630 0.29870 -0.22700
C 	C 	0.51240 0.93460 0.37940 -0.16400
N 	N 	0.15550 0.52420 0.82540 -0.31500
N 	N 	0.01900 0.40240 0.94370 -0.13600
C 	C 	0.10320 0.51630 0.79870 -0.20200
C 	C 	0.01240 0.43460 0.87940 -0.25000
N 	N 	0.84450 0.47580 0.82540 -0.31200
N 	N 	0.98100 0.59760 0.94370 -0.11200
C 	C 	0.89680 0.48370 0.79870 -0.15700
C 	C 	0.98760 0.56540 0.87940 -0.14100
N 	N 	0.34450 0.97580 0.32540 -0.31600
N 	N 	0.48100 0.09760 0.44370 -0.13800
C 	C 	0.39680 0.98370 0.29870 -0.14400
C 	C 	0.48760 0.06540 0.37940 -0.23800
N 	N 	0.97580 0.34450 0.67460 -0.31400
N 	N 	0.09760 0.48100 0.55630 -0.14200
C 	C 	0.98370 0.39680 0.70130 -0.14000
C 	C 	0.06540 0.48760 0.62060 -0.23900
N 	N 	0.47580 0.84450 0.17460 -0.32100
N 	N 	0.59760 0.98100 0.05630 -0.13100
C 	C 	0.48370 0.89680 0.20130 -0.16500
C 	C 	0.56540 0.98760 0.12060 -0.15200
N 	N 	0.52420 0.15550 0.17460 -0.32400
N 	N 	0.40240 0.01900 0.05630 -0.15500
C 	C 	0.51630 0.10320 0.20130 -0.21000
C 	C 	0.43460 0.01240 0.12060 -0.26100
N 	N 	0.02420 0.65550 0.67460 -0.32000
N 	N 	0.90240 0.51900 0.55630 -0.12900
C 	C 	0.01630 0.60320 0.70130 -0.22400
C 	C 	0.93460 0.51240 0.62060 -0.16500
N 	N 	0.84450 0.02420 0.42460 -0.32500
N 	N 	0.98100 0.90240 0.30630 -0.12600
C 	C 	0.89680 0.01630 0.45130 -0.19900
C 	C 	0.98760 0.93460 0.37060 -0.10900
N 	N 	0.34450 0.52420 0.92460 -0.31700
N 	N 	0.48100 0.40240 0.80630 -0.13500
C 	C 	0.39680 0.51630 0.95130 -0.16000
C 	C 	0.48760 0.43460 0.87060 -0.18800
N 	N 	0.65550 0.47580 0.92460 -0.31200
N 	N 	0.51900 0.59760 0.80630 -0.12800
C 	C 	0.60320 0.48370 0.95130 -0.15500
C 	C 	0.51240 0.56540 0.87060 -0.18400
N 	N 	0.15550 0.97580 0.42460 -0.31600
N 	N 	0.01900 0.09760 0.30630 -0.15600
C 	C 	0.10320 0.98370 0.45130 -0.15700
C 	C 	0.01240 0.06540 0.37060 -0.28500
Nb	Nb	0.50000 0.50000 -0.00000 1.22700
Nb	Nb	0.00000 0.00000 0.50000 1.17000
Nb	Nb	0.50000 0.00000 0.25000 1.21400
Nb	Nb	0.00000 0.50000 0.75000 1.21400
Zn	Zn	0.52232 0.25000 0.12500 1.05700
Zn	Zn	0.02232 0.75000 0.62500 1.05900
Zn	Zn	0.97768 0.25000 0.62500 1.07500
Zn	Zn	0.47768 0.75000 0.12500 1.06400
Zn	Zn	0.75000 0.02232 0.37500 1.05700
Zn	Zn	0.25000 0.52232 0.87500 1.06800
Zn	Zn	0.75000 0.47768 0.87500 1.07500
Zn	Zn	0.25000 0.97768 0.37500 1.07300
