data_crystal

_cell_length_a 6.90700
_cell_length_b 21.89700
_cell_length_c 23.15100
_cell_angle_alpha 90.00000
_cell_angle_beta  90.00000
_cell_angle_gamma 90.00000

_symmetry_space_group_name_	'P 1'
_symmetry_space_group_name_H-M	'P 1'

loop_
_symmetry_equiv_pos_as_xyz
  x,y,z

loop_
_atom_site_label
_atom_site_type_symbol
_atom_site_fract_x
_atom_site_fract_y
_atom_site_fract_z
_atom_site_charge
Nd	Nd	0.57830 0.26843 0.44936 2.34200
O 	O 	0.60060 0.31026 0.34950 -0.43600
O 	O 	0.56640 0.21088 0.35873 -0.40600
O 	O 	0.79820 0.35142 0.46075 -0.57300
O 	O 	0.41500 0.22452 0.05241 -0.64500
O 	O 	0.72840 0.23946 0.05149 -0.68000
O 	O 	0.04940 0.33625 0.52031 -0.53700
C 	C 	0.58240 0.25770 0.32740 0.26300
C 	C 	0.57950 0.24970 0.26340 0.06200
C 	C 	0.57070 0.19180 0.23980 -0.17700
H 	H 	0.56460 0.15760 0.26360 0.14900
C 	C 	0.58680 0.30020 0.22710 -0.15300
H 	H 	0.59280 0.33920 0.24290 0.10700
C 	C 	0.57300 0.23150 0.07850 0.54500
C 	C 	0.57650 0.23470 0.14380 -0.25400
C 	C 	0.58530 0.29310 0.16750 0.13000
H 	H 	0.59010 0.32710 0.14360 -0.03300
C 	C 	0.57100 0.18540 0.18040 0.20800
O 	O 	0.60210 0.11700 0.10500 -0.10900
O 	O 	0.53500 0.08260 0.18870 -0.08200
N 	N 	0.56830 0.12390 0.15620 -0.02300
N 	N 	0.09760 0.43080 0.59950 -0.01400
O 	O 	0.96100 0.41370 0.62970 -0.07800
O 	O 	0.26300 0.42450 0.61070 -0.08400
C 	C 	0.93130 0.36970 0.49320 0.52500
C 	C 	0.89800 0.47500 0.45340 0.04400
C 	C 	0.06280 0.46270 0.54410 0.09700
C 	C 	0.96410 0.43740 0.49800 -0.16200
Nd	Nd	0.92170 0.73157 0.94936 2.33000
O 	O 	0.89940 0.68974 0.84950 -0.43800
O 	O 	0.93360 0.78912 0.85873 -0.40900
O 	O 	0.70180 0.64858 0.96075 -0.57300
O 	O 	0.08500 0.77548 0.55241 -0.63900
O 	O 	0.77160 0.76054 0.55149 -0.68200
O 	O 	0.45060 0.66375 0.02031 -0.53300
C 	C 	0.91760 0.74230 0.82740 0.26100
C 	C 	0.92050 0.75030 0.76340 0.05800
C 	C 	0.92930 0.80820 0.73980 -0.17800
H 	H 	0.93540 0.84240 0.76360 0.14600
C 	C 	0.91320 0.69980 0.72710 -0.15500
H 	H 	0.90720 0.66080 0.74290 0.10600
C 	C 	0.92700 0.76850 0.57850 0.53800
C 	C 	0.92350 0.76530 0.64380 -0.25400
C 	C 	0.91470 0.70690 0.66750 0.12700
H 	H 	0.90990 0.67290 0.64360 -0.03300
C 	C 	0.92900 0.81460 0.68040 0.20500
O 	O 	0.89790 0.88300 0.60500 -0.11100
O 	O 	0.96500 0.91740 0.68870 -0.08300
N 	N 	0.93170 0.87610 0.65620 -0.02300
N 	N 	0.40240 0.56920 0.09950 -0.01300
O 	O 	0.53900 0.58630 0.12970 -0.08000
O 	O 	0.23700 0.57550 0.11070 -0.08300
C 	C 	0.56870 0.63030 0.99320 0.51900
C 	C 	0.60200 0.52500 0.95340 0.04400
C 	C 	0.43720 0.53730 0.04410 0.09900
C 	C 	0.53590 0.56260 0.99800 -0.16200
Nd	Nd	0.42170 0.76843 0.05064 2.34100
O 	O 	0.39940 0.81026 0.15050 -0.43700
O 	O 	0.43360 0.71088 0.14127 -0.40700
O 	O 	0.20180 0.85142 0.03925 -0.57400
O 	O 	0.58500 0.72452 0.44759 -0.64600
O 	O 	0.27160 0.73946 0.44851 -0.68200
O 	O 	0.95060 0.83625 0.97969 -0.53800
C 	C 	0.41760 0.75770 0.17260 0.26200
C 	C 	0.42050 0.74970 0.23660 0.06100
C 	C 	0.42930 0.69180 0.26020 -0.17800
H 	H 	0.43540 0.65760 0.23640 0.14700
C 	C 	0.41320 0.80020 0.27290 -0.15400
H 	H 	0.40720 0.83920 0.25710 0.10700
C 	C 	0.42700 0.73150 0.42150 0.54500
C 	C 	0.42350 0.73470 0.35620 -0.25400
C 	C 	0.41470 0.79310 0.33250 0.13000
H 	H 	0.40990 0.82710 0.35640 -0.03300
C 	C 	0.42900 0.68540 0.31960 0.20800
O 	O 	0.39790 0.61700 0.39500 -0.11000
O 	O 	0.46500 0.58260 0.31130 -0.08200
N 	N 	0.43170 0.62390 0.34380 -0.02300
N 	N 	0.90240 0.93080 0.90050 -0.01500
O 	O 	0.03900 0.91370 0.87030 -0.07600
O 	O 	0.73700 0.92450 0.88930 -0.08400
C 	C 	0.06870 0.86970 0.00680 0.52400
C 	C 	0.10200 0.97500 0.04660 0.04400
C 	C 	0.93720 0.96270 0.95590 0.09600
C 	C 	0.03590 0.93740 0.00200 -0.16100
Nd	Nd	0.07830 0.23157 0.55064 2.33000
O 	O 	0.10060 0.18974 0.65050 -0.43800
O 	O 	0.06640 0.28912 0.64127 -0.40800
O 	O 	0.29820 0.14858 0.53925 -0.57300
O 	O 	0.91500 0.27548 0.94759 -0.64000
O 	O 	0.22840 0.26054 0.94851 -0.68200
O 	O 	0.54940 0.16375 0.47969 -0.53300
C 	C 	0.08240 0.24230 0.67260 0.26100
C 	C 	0.07950 0.25030 0.73660 0.05800
C 	C 	0.07070 0.30820 0.76020 -0.17800
H 	H 	0.06460 0.34240 0.73640 0.14600
C 	C 	0.08680 0.19980 0.77290 -0.15500
H 	H 	0.09280 0.16080 0.75710 0.10600
C 	C 	0.07300 0.26850 0.92150 0.53900
C 	C 	0.07650 0.26530 0.85620 -0.25400
C 	C 	0.08530 0.20690 0.83250 0.12800
H 	H 	0.09010 0.17290 0.85640 -0.03400
C 	C 	0.07100 0.31460 0.81960 0.20600
O 	O 	0.10210 0.38300 0.89500 -0.11000
O 	O 	0.03500 0.41740 0.81130 -0.08200
N 	N 	0.06830 0.37610 0.84380 -0.02300
N 	N 	0.59760 0.06920 0.40050 -0.01300
O 	O 	0.46100 0.08630 0.37030 -0.08100
O 	O 	0.76300 0.07550 0.38930 -0.08300
C 	C 	0.43130 0.13030 0.50680 0.51800
C 	C 	0.39800 0.02500 0.54660 0.04300
C 	C 	0.56280 0.03730 0.45590 0.09900
C 	C 	0.46410 0.06260 0.50200 -0.16200
Nd	Nd	0.42170 0.73157 0.55064 2.34100
O 	O 	0.39940 0.68974 0.65050 -0.43700
O 	O 	0.43360 0.78912 0.64127 -0.40700
O 	O 	0.20180 0.64858 0.53925 -0.57400
O 	O 	0.58500 0.77548 0.94759 -0.64600
O 	O 	0.27160 0.76054 0.94851 -0.68100
O 	O 	0.95060 0.66375 0.47969 -0.53800
C 	C 	0.41760 0.74230 0.67260 0.26200
C 	C 	0.42050 0.75030 0.73660 0.06100
C 	C 	0.42930 0.80820 0.76020 -0.17800
H 	H 	0.43540 0.84240 0.73640 0.14800
C 	C 	0.41320 0.69980 0.77290 -0.15400
H 	H 	0.40720 0.66080 0.75710 0.10700
C 	C 	0.42700 0.76850 0.92150 0.54500
C 	C 	0.42350 0.76530 0.85620 -0.25400
C 	C 	0.41470 0.70690 0.83250 0.13000
H 	H 	0.40990 0.67290 0.85640 -0.03300
C 	C 	0.42900 0.81460 0.81960 0.20800
O 	O 	0.39790 0.88300 0.89500 -0.10900
O 	O 	0.46500 0.91740 0.81130 -0.08200
N 	N 	0.43170 0.87610 0.84380 -0.02300
N 	N 	0.90240 0.56920 0.40050 -0.01400
O 	O 	0.03900 0.58630 0.37030 -0.07800
O 	O 	0.73700 0.57550 0.38930 -0.08400
C 	C 	0.06870 0.63030 0.50680 0.52500
C 	C 	0.10200 0.52500 0.54660 0.04400
C 	C 	0.93720 0.53730 0.45590 0.09700
C 	C 	0.03590 0.56260 0.50200 -0.16200
Nd	Nd	0.07830 0.26843 0.05064 2.33000
O 	O 	0.10060 0.31026 0.15050 -0.43800
O 	O 	0.06640 0.21088 0.14127 -0.40900
O 	O 	0.29820 0.35142 0.03925 -0.57300
O 	O 	0.91500 0.22452 0.44759 -0.63900
O 	O 	0.22840 0.23946 0.44851 -0.68200
O 	O 	0.54940 0.33625 0.97969 -0.53300
C 	C 	0.08240 0.25770 0.17260 0.26100
C 	C 	0.07950 0.24970 0.23660 0.05800
C 	C 	0.07070 0.19180 0.26020 -0.17800
H 	H 	0.06460 0.15760 0.23640 0.14600
C 	C 	0.08680 0.30020 0.27290 -0.15500
H 	H 	0.09280 0.33920 0.25710 0.10600
C 	C 	0.07300 0.23150 0.42150 0.53800
C 	C 	0.07650 0.23470 0.35620 -0.25400
C 	C 	0.08530 0.29310 0.33250 0.12700
H 	H 	0.09010 0.32710 0.35640 -0.03300
C 	C 	0.07100 0.18540 0.31960 0.20500
O 	O 	0.10210 0.11700 0.39500 -0.11100
O 	O 	0.03500 0.08260 0.31130 -0.08300
N 	N 	0.06830 0.12390 0.34380 -0.02300
N 	N 	0.59760 0.43080 0.90050 -0.01300
O 	O 	0.46100 0.41370 0.87030 -0.08000
O 	O 	0.76300 0.42450 0.88930 -0.08300
C 	C 	0.43130 0.36970 0.00680 0.51900
C 	C 	0.39800 0.47500 0.04660 0.04400
C 	C 	0.56280 0.46270 0.95590 0.09900
C 	C 	0.46410 0.43740 0.00200 -0.16200
Nd	Nd	0.57830 0.23157 0.94936 2.34100
O 	O 	0.60060 0.18974 0.84950 -0.43700
O 	O 	0.56640 0.28912 0.85873 -0.40700
O 	O 	0.79820 0.14858 0.96075 -0.57400
O 	O 	0.41500 0.27548 0.55241 -0.64600
O 	O 	0.72840 0.26054 0.55149 -0.68200
O 	O 	0.04940 0.16375 0.02031 -0.53800
C 	C 	0.58240 0.24230 0.82740 0.26200
C 	C 	0.57950 0.25030 0.76340 0.06100
C 	C 	0.57070 0.30820 0.73980 -0.17800
H 	H 	0.56460 0.34240 0.76360 0.14700
C 	C 	0.58680 0.19980 0.72710 -0.15400
H 	H 	0.59280 0.16080 0.74290 0.10700
C 	C 	0.57300 0.26850 0.57850 0.54500
C 	C 	0.57650 0.26530 0.64380 -0.25400
C 	C 	0.58530 0.20690 0.66750 0.13000
H 	H 	0.59010 0.17290 0.64360 -0.03300
C 	C 	0.57100 0.31460 0.68040 0.20800
O 	O 	0.60210 0.38300 0.60500 -0.11000
O 	O 	0.53500 0.41740 0.68870 -0.08200
N 	N 	0.56830 0.37610 0.65620 -0.02300
N 	N 	0.09760 0.06920 0.09950 -0.01500
O 	O 	0.96100 0.08630 0.12970 -0.07600
O 	O 	0.26300 0.07550 0.11070 -0.08400
C 	C 	0.93130 0.13030 0.99320 0.52400
C 	C 	0.89800 0.02500 0.95340 0.04400
C 	C 	0.06280 0.03730 0.04410 0.09600
C 	C 	0.96410 0.06260 0.99800 -0.16100
Nd	Nd	0.92170 0.76843 0.44936 2.33000
O 	O 	0.89940 0.81026 0.34950 -0.43800
O 	O 	0.93360 0.71088 0.35873 -0.40800
O 	O 	0.70180 0.85142 0.46075 -0.57300
O 	O 	0.08500 0.72452 0.05241 -0.64000
O 	O 	0.77160 0.73946 0.05149 -0.68200
O 	O 	0.45060 0.83625 0.52031 -0.53300
C 	C 	0.91760 0.75770 0.32740 0.26100
C 	C 	0.92050 0.74970 0.26340 0.05800
C 	C 	0.92930 0.69180 0.23980 -0.17800
H 	H 	0.93540 0.65760 0.26360 0.14600
C 	C 	0.91320 0.80020 0.22710 -0.15500
H 	H 	0.90720 0.83920 0.24290 0.10600
C 	C 	0.92700 0.73150 0.07850 0.53900
C 	C 	0.92350 0.73470 0.14380 -0.25400
C 	C 	0.91470 0.79310 0.16750 0.12800
H 	H 	0.90990 0.82710 0.14360 -0.03400
C 	C 	0.92900 0.68540 0.18040 0.20600
O 	O 	0.89790 0.61700 0.10500 -0.11000
O 	O 	0.96500 0.58260 0.18870 -0.08200
N 	N 	0.93170 0.62390 0.15620 -0.02300
N 	N 	0.40240 0.93080 0.59950 -0.01300
O 	O 	0.53900 0.91370 0.62970 -0.08100
O 	O 	0.23700 0.92450 0.61070 -0.08300
C 	C 	0.56870 0.86970 0.49320 0.51800
C 	C 	0.60200 0.97500 0.45340 0.04300
C 	C 	0.43720 0.96270 0.54410 0.09900
C 	C 	0.53590 0.93740 0.49800 -0.16200
