data_crystal

_cell_length_a 10.58350
_cell_length_b 11.64860
_cell_length_c 17.60900
_cell_angle_alpha 90.00000
_cell_angle_beta  90.00000
_cell_angle_gamma 110.27200

_symmetry_space_group_name_	'P 1'
_symmetry_space_group_name_H-M	'P 1'

loop_
_symmetry_equiv_pos_as_xyz
  x,y,z

loop_
_atom_site_label
_atom_site_type_symbol
_atom_site_fract_x
_atom_site_fract_y
_atom_site_fract_z
_atom_site_charge
Co	Co	0.98317 0.21628 0.82647 1.09900
Co	Co	0.51683 0.78372 0.32647 1.10100
Co	Co	0.01683 0.78372 0.17353 1.10000
Co	Co	0.48317 0.21628 0.67353 1.10200
H 	H 	0.29880 0.63200 0.65410 0.08300
H 	H 	0.33870 0.97890 0.60440 0.04400
H 	H 	0.12460 0.81510 0.78610 0.08500
H 	H 	0.15250 0.44710 0.71260 0.01000
H 	H 	0.96620 0.45040 0.90350 -0.02400
H 	H 	0.35870 0.87290 0.46080 0.01300
H 	H 	0.63240 0.71940 0.47720 -0.02100
H 	H 	0.01940 0.96770 0.77060 0.02000
H 	H 	0.27230 0.30130 0.74630 -0.04700
H 	H 	0.20120 0.36800 0.15410 0.08400
H 	H 	0.16130 0.02110 0.10440 0.04600
H 	H 	0.37540 0.18490 0.28610 0.08600
H 	H 	0.34750 0.55290 0.21260 0.00900
H 	H 	0.53380 0.54960 0.40350 -0.02000
H 	H 	0.14130 0.12710 0.96080 0.01100
H 	H 	0.86760 0.28060 0.97720 -0.02000
H 	H 	0.48060 0.03230 0.27060 0.02300
H 	H 	0.22770 0.69870 0.24630 -0.04700
H 	H 	0.70120 0.36800 0.34590 0.08300
H 	H 	0.66130 0.02110 0.39560 0.04400
H 	H 	0.87540 0.18490 0.21390 0.08500
H 	H 	0.84750 0.55290 0.28740 0.01000
H 	H 	0.03380 0.54960 0.09650 -0.02400
H 	H 	0.64130 0.12710 0.53920 0.01300
H 	H 	0.36760 0.28060 0.52280 -0.02100
H 	H 	0.98060 0.03230 0.22940 0.02000
H 	H 	0.72770 0.69870 0.25370 -0.04700
H 	H 	0.79880 0.63200 0.84590 0.08400
H 	H 	0.83870 0.97890 0.89560 0.04600
H 	H 	0.62460 0.81510 0.71390 0.08600
H 	H 	0.65250 0.44710 0.78740 0.00900
H 	H 	0.46620 0.45040 0.59650 -0.02000
H 	H 	0.85870 0.87290 0.03920 0.01100
H 	H 	0.13240 0.71940 0.02280 -0.02000
H 	H 	0.51940 0.96770 0.72940 0.02300
H 	H 	0.77230 0.30130 0.75370 -0.04700
C 	C 	0.19900 0.70370 0.72663 0.06800
C 	C 	0.28030 0.70260 0.66508 -0.13500
C 	C 	0.33430 0.80510 0.61963 0.06500
C 	C 	0.30670 0.91130 0.63624 -0.13500
C 	C 	0.23230 0.91610 0.69970 0.03700
C 	C 	0.17690 0.81240 0.74420 -0.12400
C 	C 	0.13330 0.59220 0.77053 0.01800
C 	C 	0.11770 0.47360 0.75493 -0.00700
C 	C 	0.01590 0.47570 0.85920 0.09600
C 	C 	0.41830 0.79970 0.55411 0.01400
C 	C 	0.41490 0.83380 0.48030 -0.01200
C 	C 	0.56440 0.74960 0.48947 0.09000
C 	C 	0.20510 0.02800 0.72223 0.01800
C 	C 	0.09510 0.03440 0.75790 -0.01700
C 	C 	0.23390 0.21650 0.74440 0.08400
C 	C 	0.30100 0.29630 0.22663 0.07000
C 	C 	0.21970 0.29740 0.16508 -0.13800
C 	C 	0.16570 0.19490 0.11963 0.06900
C 	C 	0.19330 0.08870 0.13624 -0.13900
C 	C 	0.26770 0.08390 0.19970 0.04200
C 	C 	0.32310 0.18760 0.24420 -0.12700
C 	C 	0.36670 0.40780 0.27053 0.01700
C 	C 	0.38230 0.52640 0.25493 -0.00700
C 	C 	0.48410 0.52430 0.35920 0.08900
C 	C 	0.08170 0.20030 0.05411 0.00800
C 	C 	0.08510 0.16620 0.98030 -0.00300
C 	C 	0.93560 0.25040 0.98947 0.08400
C 	C 	0.29490 0.97200 0.22223 0.01500
C 	C 	0.40490 0.96560 0.25790 -0.02200
C 	C 	0.26610 0.78350 0.24440 0.08400
C 	C 	0.80100 0.29630 0.27337 0.06800
C 	C 	0.71970 0.29740 0.33492 -0.13500
C 	C 	0.66570 0.19490 0.38037 0.06500
C 	C 	0.69330 0.08870 0.36376 -0.13500
C 	C 	0.76770 0.08390 0.30030 0.03700
C 	C 	0.82310 0.18760 0.25580 -0.12400
C 	C 	0.86670 0.40780 0.22947 0.01800
C 	C 	0.88230 0.52640 0.24507 -0.00700
C 	C 	0.98410 0.52430 0.14080 0.09600
C 	C 	0.58170 0.20030 0.44589 0.01400
C 	C 	0.58510 0.16620 0.51970 -0.01200
C 	C 	0.43560 0.25040 0.51053 0.09000
C 	C 	0.79490 0.97200 0.27777 0.01800
C 	C 	0.90490 0.96560 0.24210 -0.01700
C 	C 	0.76610 0.78350 0.25560 0.08400
C 	C 	0.69900 0.70370 0.77337 0.07000
C 	C 	0.78030 0.70260 0.83492 -0.13800
C 	C 	0.83430 0.80510 0.88037 0.06900
C 	C 	0.80670 0.91130 0.86376 -0.13900
C 	C 	0.73230 0.91610 0.80030 0.04200
C 	C 	0.67690 0.81240 0.75580 -0.12700
C 	C 	0.63330 0.59220 0.72947 0.01700
C 	C 	0.61770 0.47360 0.74507 -0.00700
C 	C 	0.51590 0.47570 0.64080 0.08900
C 	C 	0.91830 0.79970 0.94589 0.00800
C 	C 	0.91490 0.83380 0.01970 -0.00300
C 	C 	0.06440 0.74960 0.01053 0.08400
C 	C 	0.70510 0.02800 0.77777 0.01500
C 	C 	0.59510 0.03440 0.74210 -0.02200
C 	C 	0.73390 0.21650 0.75560 0.08400
N 	N 	0.04280 0.39890 0.81138 -0.26700
N 	N 	0.06660 0.59180 0.83770 -0.12000
N 	N 	0.50770 0.80130 0.43922 -0.26900
N 	N 	0.51440 0.74500 0.55956 -0.12000
N 	N 	0.11210 0.15490 0.77254 -0.27000
N 	N 	0.29580 0.14590 0.71335 -0.27400
N 	N 	0.45720 0.60110 0.31138 -0.26700
N 	N 	0.43340 0.40820 0.33770 -0.11900
N 	N 	0.99230 0.19870 0.93922 -0.27200
N 	N 	0.98560 0.25500 0.05956 -0.11600
N 	N 	0.38790 0.84510 0.27254 -0.27000
N 	N 	0.20420 0.85410 0.21335 -0.27400
N 	N 	0.95720 0.60110 0.18862 -0.26700
N 	N 	0.93340 0.40820 0.16230 -0.12000
N 	N 	0.49230 0.19870 0.56078 -0.26900
N 	N 	0.48560 0.25500 0.44044 -0.12000
N 	N 	0.88790 0.84510 0.22746 -0.27000
N 	N 	0.70420 0.85410 0.28665 -0.27400
N 	N 	0.54280 0.39890 0.68862 -0.26700
N 	N 	0.56660 0.59180 0.66230 -0.11900
N 	N 	0.00770 0.80130 0.06078 -0.27200
N 	N 	0.01440 0.74500 0.94044 -0.11600
N 	N 	0.61210 0.15490 0.72746 -0.27000
N 	N 	0.79580 0.14590 0.78665 -0.27400
