data_crystal

_cell_length_a 18.51500
_cell_length_b 18.51500
_cell_length_c 20.24500
_cell_angle_alpha 90.00000
_cell_angle_beta  90.00000
_cell_angle_gamma 90.00000

_symmetry_space_group_name_	'P 1'
_symmetry_space_group_name_H-M	'P 1'

loop_
_symmetry_equiv_pos_as_xyz
  x,y,z

loop_
_atom_site_label
_atom_site_type_symbol
_atom_site_fract_x
_atom_site_fract_y
_atom_site_fract_z
_atom_site_charge
C 	C 	0.23170 0.49630 0.03960 -0.01900
H 	H 	0.19330 0.49110 0.06870 0.00200
C 	C 	0.24100 0.28690 0.10200 -0.00200
H 	H 	0.20100 0.31660 0.09610 -0.00700
N 	N 	0.30190 0.46830 0.04700 -0.28800
N 	N 	0.31380 0.31010 0.11270 -0.29700
C 	C 	0.23160 0.53230 0.98170 -0.02900
H 	H 	0.19130 0.55440 0.96310 0.00900
C 	C 	0.26600 0.28820 0.05900 -0.03100
H 	H 	0.24060 0.31830 0.03050 0.00700
C 	C 	0.73170 0.99630 0.53960 0.00000
H 	H 	0.69330 0.99110 0.56870 -0.00200
C 	C 	0.74100 0.78690 0.60200 -0.00100
H 	H 	0.70100 0.81660 0.59610 -0.00600
N 	N 	0.80190 0.96830 0.54700 -0.28800
N 	N 	0.81380 0.81010 0.61270 -0.29600
C 	C 	0.73160 0.03230 0.48170 -0.01500
H 	H 	0.69130 0.05440 0.46310 0.00500
C 	C 	0.76600 0.78820 0.55900 -0.03100
H 	H 	0.74060 0.81830 0.53050 0.00800
C 	C 	0.26830 0.50370 0.53960 -0.00100
H 	H 	0.30670 0.50890 0.56870 -0.00200
C 	C 	0.25900 0.71310 0.60200 -0.00100
H 	H 	0.29900 0.68340 0.59610 -0.00600
N 	N 	0.19810 0.53170 0.54700 -0.28900
N 	N 	0.18620 0.68990 0.61270 -0.29700
C 	C 	0.26840 0.46770 0.48170 -0.01500
H 	H 	0.30870 0.44560 0.46310 0.00500
C 	C 	0.23400 0.71180 0.55900 -0.03100
H 	H 	0.25940 0.68170 0.53050 0.00800
C 	C 	0.76830 0.00370 0.03960 -0.01800
H 	H 	0.80670 0.00890 0.06870 0.00400
C 	C 	0.75900 0.21310 0.10200 -0.00000
H 	H 	0.79900 0.18340 0.09610 -0.00600
N 	N 	0.69810 0.03170 0.04700 -0.28800
N 	N 	0.68620 0.18990 0.11270 -0.29700
C 	C 	0.76840 0.96770 0.98170 -0.02900
H 	H 	0.80870 0.94560 0.96310 0.01000
C 	C 	0.73400 0.21180 0.05900 -0.03100
H 	H 	0.75940 0.18170 0.03050 0.00800
C 	C 	0.75370 0.98170 0.28960 0.00100
H 	H 	0.75890 0.94330 0.31870 -0.00200
C 	C 	0.96310 0.99100 0.35200 0.00500
H 	H 	0.93340 0.95100 0.34610 -0.00800
N 	N 	0.78170 0.05190 0.29700 -0.28900
N 	N 	0.93990 0.06380 0.36270 -0.29500
C 	C 	0.71770 0.98160 0.23170 -0.01200
H 	H 	0.69560 0.94130 0.21310 0.00400
C 	C 	0.96180 0.01600 0.30900 -0.03100
H 	H 	0.93170 0.99060 0.28050 0.01000
C 	C 	0.25370 0.48170 0.78960 0.00100
H 	H 	0.25890 0.44330 0.81870 -0.00300
C 	C 	0.46310 0.49100 0.85200 -0.00000
H 	H 	0.43340 0.45100 0.84610 -0.00600
N 	N 	0.28170 0.55190 0.79700 -0.28900
N 	N 	0.43990 0.56380 0.86270 -0.29700
C 	C 	0.21770 0.48160 0.73170 -0.01200
H 	H 	0.19560 0.44130 0.71310 0.00400
C 	C 	0.46180 0.51600 0.80900 -0.03100
H 	H 	0.43170 0.49060 0.78050 0.00900
C 	C 	0.74630 0.01830 0.78960 -0.00600
H 	H 	0.74110 0.05670 0.81870 -0.00000
C 	C 	0.53690 0.00900 0.85200 -0.00300
H 	H 	0.56660 0.04900 0.84610 -0.00500
N 	N 	0.71830 0.94810 0.79700 -0.28800
N 	N 	0.56010 0.93620 0.86270 -0.29600
C 	C 	0.78230 0.01840 0.73170 -0.02000
H 	H 	0.80440 0.05870 0.71310 0.00700
C 	C 	0.53820 0.98400 0.80900 -0.02800
H 	H 	0.56830 0.00940 0.78050 0.00700
C 	C 	0.24630 0.51830 0.28960 -0.00600
H 	H 	0.24110 0.55670 0.31870 -0.00000
C 	C 	0.03690 0.50900 0.35200 -0.00300
H 	H 	0.06660 0.54900 0.34610 -0.00600
N 	N 	0.21830 0.44810 0.29700 -0.28900
N 	N 	0.06010 0.43620 0.36270 -0.29600
C 	C 	0.28230 0.51840 0.23170 -0.02000
H 	H 	0.30440 0.55870 0.21310 0.00600
C 	C 	0.03820 0.48400 0.30900 -0.03500
H 	H 	0.06830 0.50940 0.28050 0.00900
C 	C 	0.26830 0.49630 0.46040 -0.00100
H 	H 	0.30670 0.49110 0.43130 -0.00200
C 	C 	0.25900 0.28690 0.39800 -0.00100
H 	H 	0.29900 0.31660 0.40390 -0.00600
N 	N 	0.19810 0.46830 0.45300 -0.28900
N 	N 	0.18620 0.31010 0.38730 -0.29700
C 	C 	0.26840 0.53230 0.51830 -0.01400
H 	H 	0.30870 0.55440 0.53690 0.00500
C 	C 	0.23400 0.28820 0.44100 -0.03100
H 	H 	0.25940 0.31830 0.46950 0.00800
C 	C 	0.76830 0.99630 0.96040 0.01600
H 	H 	0.80670 0.99110 0.93130 -0.00700
C 	C 	0.75900 0.78690 0.89800 -0.00100
H 	H 	0.79900 0.81660 0.90390 -0.00600
N 	N 	0.69810 0.96830 0.95300 -0.28700
N 	N 	0.68620 0.81010 0.88730 -0.29600
C 	C 	0.76840 0.03230 0.01830 -0.00100
H 	H 	0.80870 0.05440 0.03690 0.00000
C 	C 	0.73400 0.78820 0.94100 -0.03100
H 	H 	0.75940 0.81830 0.96950 0.00900
C 	C 	0.23170 0.50370 0.96040 0.01500
H 	H 	0.19330 0.50890 0.93130 -0.00700
C 	C 	0.24100 0.71310 0.89800 -0.00100
H 	H 	0.20100 0.68340 0.90390 -0.00600
N 	N 	0.30190 0.53170 0.95300 -0.28700
N 	N 	0.31380 0.68990 0.88730 -0.29700
C 	C 	0.23160 0.46770 0.01830 -0.00000
H 	H 	0.19130 0.44560 0.03690 -0.00000
C 	C 	0.26600 0.71180 0.94100 -0.03000
H 	H 	0.24060 0.68170 0.96950 0.00900
C 	C 	0.73170 0.00370 0.46040 -0.00200
H 	H 	0.69330 0.00890 0.43130 -0.00200
C 	C 	0.74100 0.21310 0.39800 -0.00100
H 	H 	0.70100 0.18340 0.40390 -0.00600
N 	N 	0.80190 0.03170 0.45300 -0.28800
N 	N 	0.81380 0.18990 0.38730 -0.29600
C 	C 	0.73160 0.96770 0.51830 -0.01500
H 	H 	0.69130 0.94560 0.53690 0.00500
C 	C 	0.76600 0.21180 0.44100 -0.03100
H 	H 	0.74060 0.18170 0.46950 0.00800
C 	C 	0.74630 0.98170 0.21040 -0.00300
H 	H 	0.74110 0.94330 0.18130 -0.00100
C 	C 	0.53690 0.99100 0.14800 0.00300
H 	H 	0.56660 0.95100 0.15390 -0.00700
N 	N 	0.71830 0.05190 0.20300 -0.28900
N 	N 	0.56010 0.06380 0.13730 -0.29700
C 	C 	0.78230 0.98160 0.26830 -0.01600
H 	H 	0.80440 0.94130 0.28690 0.00600
C 	C 	0.53820 0.01600 0.19100 -0.03500
H 	H 	0.56830 0.99060 0.21950 0.01000
C 	C 	0.24630 0.48170 0.71040 -0.00300
H 	H 	0.24110 0.44330 0.68130 -0.00100
C 	C 	0.03690 0.49100 0.64800 -0.00300
H 	H 	0.06660 0.45100 0.65390 -0.00600
N 	N 	0.21830 0.55190 0.70300 -0.28900
N 	N 	0.06010 0.56380 0.63730 -0.29600
C 	C 	0.28230 0.48160 0.76830 -0.01700
H 	H 	0.30440 0.44130 0.78690 0.00600
C 	C 	0.03820 0.51600 0.69100 -0.03500
H 	H 	0.06830 0.49060 0.71950 0.00900
C 	C 	0.75370 0.01830 0.71040 0.00300
H 	H 	0.75890 0.05670 0.68130 -0.00300
C 	C 	0.96310 0.00900 0.64800 -0.00200
H 	H 	0.93340 0.04900 0.65390 -0.00500
N 	N 	0.78170 0.94810 0.70300 -0.28800
N 	N 	0.93990 0.93620 0.63730 -0.29400
C 	C 	0.71770 0.01840 0.76830 -0.01000
H 	H 	0.69560 0.05870 0.78690 0.00300
C 	C 	0.96180 0.98400 0.69100 -0.02300
H 	H 	0.93170 0.00940 0.71950 0.00600
C 	C 	0.25370 0.51830 0.21040 0.00400
H 	H 	0.25890 0.55670 0.18130 -0.00400
C 	C 	0.46310 0.50900 0.14800 -0.00100
H 	H 	0.43340 0.54900 0.15390 -0.00600
N 	N 	0.28170 0.44810 0.20300 -0.28900
N 	N 	0.43990 0.43620 0.13730 -0.29700
C 	C 	0.21770 0.51840 0.26830 -0.00900
H 	H 	0.19560 0.55870 0.28690 0.00300
C 	C 	0.46180 0.48400 0.19100 -0.03100
H 	H 	0.43170 0.50940 0.21950 0.00800
C 	C 	0.76830 0.50370 0.96040 0.01500
H 	H 	0.80670 0.50890 0.93130 -0.00700
C 	C 	0.75900 0.71310 0.89800 -0.00100
H 	H 	0.79900 0.68340 0.90390 -0.00600
N 	N 	0.69810 0.53170 0.95300 -0.28700
N 	N 	0.68620 0.68990 0.88730 -0.29700
C 	C 	0.76840 0.46770 0.01830 -0.00100
H 	H 	0.80870 0.44560 0.03690 0.00000
C 	C 	0.73400 0.71180 0.94100 -0.03100
H 	H 	0.75940 0.68170 0.96950 0.00900
C 	C 	0.26830 0.00370 0.46040 -0.00200
H 	H 	0.30670 0.00890 0.43130 -0.00200
C 	C 	0.25900 0.21310 0.39800 -0.00100
H 	H 	0.29900 0.18340 0.40390 -0.00600
N 	N 	0.19810 0.03170 0.45300 -0.28900
N 	N 	0.18620 0.18990 0.38730 -0.29700
C 	C 	0.26840 0.96770 0.51830 -0.01500
H 	H 	0.30870 0.94560 0.53690 0.00500
C 	C 	0.23400 0.21180 0.44100 -0.03100
H 	H 	0.25940 0.18170 0.46950 0.00800
C 	C 	0.73170 0.49630 0.46040 -0.00100
H 	H 	0.69330 0.49110 0.43130 -0.00200
C 	C 	0.74100 0.28690 0.39800 -0.00100
H 	H 	0.70100 0.31660 0.40390 -0.00600
N 	N 	0.80190 0.46830 0.45300 -0.28800
N 	N 	0.81380 0.31010 0.38730 -0.29600
C 	C 	0.73160 0.53230 0.51830 -0.01400
H 	H 	0.69130 0.55440 0.53690 0.00500
C 	C 	0.76600 0.28820 0.44100 -0.03100
H 	H 	0.74060 0.31830 0.46950 0.00800
C 	C 	0.23170 0.99630 0.96040 0.01600
H 	H 	0.19330 0.99110 0.93130 -0.00800
C 	C 	0.24100 0.78690 0.89800 -0.00100
H 	H 	0.20100 0.81660 0.90390 -0.00600
N 	N 	0.30190 0.96830 0.95300 -0.28700
N 	N 	0.31380 0.81010 0.88730 -0.29700
C 	C 	0.23160 0.03230 0.01830 -0.00100
H 	H 	0.19130 0.05440 0.03690 -0.00000
C 	C 	0.26600 0.78820 0.94100 -0.03000
H 	H 	0.24060 0.81830 0.96950 0.00900
C 	C 	0.24630 0.01830 0.71040 -0.00300
H 	H 	0.24110 0.05670 0.68130 -0.00100
C 	C 	0.03690 0.00900 0.64800 -0.00700
H 	H 	0.06660 0.04900 0.65390 -0.00500
N 	N 	0.21830 0.94810 0.70300 -0.28800
N 	N 	0.06010 0.93620 0.63730 -0.29500
C 	C 	0.28230 0.01840 0.76830 -0.01700
H 	H 	0.30440 0.05870 0.78690 0.00600
C 	C 	0.03820 0.98400 0.69100 -0.03100
H 	H 	0.06830 0.00940 0.71950 0.00700
C 	C 	0.74630 0.51830 0.21040 -0.00300
H 	H 	0.74110 0.55670 0.18130 -0.00100
C 	C 	0.53690 0.50900 0.14800 -0.00100
H 	H 	0.56660 0.54900 0.15390 -0.00600
N 	N 	0.71830 0.44810 0.20300 -0.28900
N 	N 	0.56010 0.43620 0.13730 -0.29700
C 	C 	0.78230 0.51840 0.26830 -0.01600
H 	H 	0.80440 0.55870 0.28690 0.00600
C 	C 	0.53820 0.48400 0.19100 -0.03100
H 	H 	0.56830 0.50940 0.21950 0.00800
C 	C 	0.25370 0.98170 0.21040 0.00400
H 	H 	0.25890 0.94330 0.18130 -0.00300
C 	C 	0.46310 0.99100 0.14800 0.00300
H 	H 	0.43340 0.95100 0.15390 -0.00700
N 	N 	0.28170 0.05190 0.20300 -0.28900
N 	N 	0.43990 0.06380 0.13730 -0.29700
C 	C 	0.21770 0.98160 0.26830 -0.00900
H 	H 	0.19560 0.94130 0.28690 0.00300
C 	C 	0.46180 0.01600 0.19100 -0.03500
H 	H 	0.43170 0.99060 0.21950 0.01000
C 	C 	0.75370 0.48170 0.71040 0.00400
H 	H 	0.75890 0.44330 0.68130 -0.00300
C 	C 	0.96310 0.49100 0.64800 0.00200
H 	H 	0.93340 0.45100 0.65390 -0.00600
N 	N 	0.78170 0.55190 0.70300 -0.28800
N 	N 	0.93990 0.56380 0.63730 -0.29500
C 	C 	0.71770 0.48160 0.76830 -0.00900
H 	H 	0.69560 0.44130 0.78690 0.00300
C 	C 	0.96180 0.51600 0.69100 -0.02700
H 	H 	0.93170 0.49060 0.71950 0.00800
C 	C 	0.73170 0.50370 0.53960 -0.00100
H 	H 	0.69330 0.50890 0.56870 -0.00200
C 	C 	0.74100 0.71310 0.60200 -0.00100
H 	H 	0.70100 0.68340 0.59610 -0.00600
N 	N 	0.80190 0.53170 0.54700 -0.28800
N 	N 	0.81380 0.68990 0.61270 -0.29600
C 	C 	0.73160 0.46770 0.48170 -0.01500
H 	H 	0.69130 0.44560 0.46310 0.00500
C 	C 	0.76600 0.71180 0.55900 -0.03100
H 	H 	0.74060 0.68170 0.53050 0.00800
C 	C 	0.23170 0.00370 0.03960 -0.01800
H 	H 	0.19330 0.00890 0.06870 0.00300
C 	C 	0.24100 0.21310 0.10200 -0.00100
H 	H 	0.20100 0.18340 0.09610 -0.00700
N 	N 	0.30190 0.03170 0.04700 -0.28800
N 	N 	0.31380 0.18990 0.11270 -0.29700
C 	C 	0.23160 0.96770 0.98170 -0.02900
H 	H 	0.19130 0.94560 0.96310 0.00900
C 	C 	0.26600 0.21180 0.05900 -0.03100
H 	H 	0.24060 0.18170 0.03050 0.00700
C 	C 	0.76830 0.49630 0.03960 -0.01700
H 	H 	0.80670 0.49110 0.06870 0.00400
C 	C 	0.75900 0.28690 0.10200 -0.00000
H 	H 	0.79900 0.31660 0.09610 -0.00600
N 	N 	0.69810 0.46830 0.04700 -0.28800
N 	N 	0.68620 0.31010 0.11270 -0.29700
C 	C 	0.76840 0.53230 0.98170 -0.02900
H 	H 	0.80870 0.55440 0.96310 0.01000
C 	C 	0.73400 0.28820 0.05900 -0.03200
H 	H 	0.75940 0.31830 0.03050 0.00800
C 	C 	0.26830 0.99630 0.53960 -0.00000
H 	H 	0.30670 0.99110 0.56870 -0.00200
C 	C 	0.25900 0.78690 0.60200 -0.00100
H 	H 	0.29900 0.81660 0.59610 -0.00600
N 	N 	0.19810 0.96830 0.54700 -0.28800
N 	N 	0.18620 0.81010 0.61270 -0.29700
C 	C 	0.26840 0.03230 0.48170 -0.01500
H 	H 	0.30870 0.05440 0.46310 0.00500
C 	C 	0.23400 0.78820 0.55900 -0.03100
H 	H 	0.25940 0.81830 0.53050 0.00800
C 	C 	0.25370 0.01830 0.78960 0.00000
H 	H 	0.25890 0.05670 0.81870 -0.00300
C 	C 	0.46310 0.00900 0.85200 -0.00400
H 	H 	0.43340 0.04900 0.84610 -0.00500
N 	N 	0.28170 0.94810 0.79700 -0.28800
N 	N 	0.43990 0.93620 0.86270 -0.29600
C 	C 	0.21770 0.01840 0.73170 -0.01300
H 	H 	0.19560 0.05870 0.71310 0.00400
C 	C 	0.46180 0.98400 0.80900 -0.02800
H 	H 	0.43170 0.00940 0.78050 0.00700
C 	C 	0.75370 0.51830 0.28960 0.00000
H 	H 	0.75890 0.55670 0.31870 -0.00200
C 	C 	0.96310 0.50900 0.35200 0.00200
H 	H 	0.93340 0.54900 0.34610 -0.00600
N 	N 	0.78170 0.44810 0.29700 -0.28800
N 	N 	0.93990 0.43620 0.36270 -0.29500
C 	C 	0.71770 0.51840 0.23170 -0.01300
H 	H 	0.69560 0.55870 0.21310 0.00400
C 	C 	0.96180 0.48400 0.30900 -0.02700
H 	H 	0.93170 0.50940 0.28050 0.00800
C 	C 	0.24630 0.98170 0.28960 -0.00600
H 	H 	0.24110 0.94330 0.31870 -0.00000
C 	C 	0.03690 0.99100 0.35200 0.00100
H 	H 	0.06660 0.95100 0.34610 -0.00700
N 	N 	0.21830 0.05190 0.29700 -0.28900
N 	N 	0.06010 0.06380 0.36270 -0.29600
C 	C 	0.28230 0.98160 0.23170 -0.02000
H 	H 	0.30440 0.94130 0.21310 0.00600
C 	C 	0.03820 0.01600 0.30900 -0.03900
H 	H 	0.06830 0.99060 0.28050 0.01100
C 	C 	0.74630 0.48170 0.78960 -0.00600
H 	H 	0.74110 0.44330 0.81870 -0.00000
C 	C 	0.53690 0.49100 0.85200 -0.00000
H 	H 	0.56660 0.45100 0.84610 -0.00600
N 	N 	0.71830 0.55190 0.79700 -0.28900
N 	N 	0.56010 0.56380 0.86270 -0.29700
C 	C 	0.78230 0.48160 0.73170 -0.02000
H 	H 	0.80440 0.44130 0.71310 0.00700
C 	C 	0.53820 0.51600 0.80900 -0.03200
H 	H 	0.56830 0.49060 0.78050 0.00800
C 	C 	0.34090 0.50000 -0.00000 0.09000
H 	H 	0.39110 0.50000 -0.00000 -0.05900
C 	C 	0.84090 0.00000 0.50000 0.09300
H 	H 	0.89110 0.00000 0.50000 -0.05800
C 	C 	0.15910 0.50000 0.50000 0.09400
H 	H 	0.10890 0.50000 0.50000 -0.06000
C 	C 	0.65910 0.00000 -0.00000 0.08900
H 	H 	0.60890 0.00000 -0.00000 -0.05900
C 	C 	0.75000 0.09090 0.25000 0.09400
H 	H 	0.75000 0.14110 0.25000 -0.05900
C 	C 	0.25000 0.59090 0.75000 0.09400
H 	H 	0.25000 0.64110 0.75000 -0.05900
C 	C 	0.75000 0.90910 0.75000 0.09400
H 	H 	0.75000 0.85890 0.75000 -0.05900
C 	C 	0.25000 0.40910 0.25000 0.09400
H 	H 	0.25000 0.35890 0.25000 -0.05900
C 	C 	0.65910 0.50000 -0.00000 0.09000
H 	H 	0.60890 0.50000 -0.00000 -0.05900
C 	C 	0.15910 0.00000 0.50000 0.09300
H 	H 	0.10890 0.00000 0.50000 -0.06000
C 	C 	0.84090 0.50000 0.50000 0.09400
H 	H 	0.89110 0.50000 0.50000 -0.05800
C 	C 	0.34090 0.00000 -0.00000 0.08900
H 	H 	0.39110 0.00000 -0.00000 -0.05900
C 	C 	0.25000 0.90910 0.75000 0.09400
H 	H 	0.25000 0.85890 0.75000 -0.05900
C 	C 	0.75000 0.40910 0.25000 0.09400
H 	H 	0.75000 0.35890 0.25000 -0.05900
C 	C 	0.25000 0.09090 0.25000 0.09400
H 	H 	0.25000 0.14110 0.25000 -0.05900
C 	C 	0.75000 0.59090 0.75000 0.09400
H 	H 	0.75000 0.64110 0.75000 -0.05900
C 	C 	0.34770 0.25000 0.12760 0.12000
H 	H 	0.39300 0.25000 0.14750 -0.07100
C 	C 	0.15230 0.75000 0.62760 0.12000
H 	H 	0.10700 0.75000 0.64750 -0.07100
C 	C 	0.00000 0.09770 0.37760 0.11400
H 	H 	0.00000 0.14300 0.39750 -0.07000
C 	C 	0.50000 0.59770 0.87760 0.12000
H 	H 	0.50000 0.64300 0.89750 -0.07000
C 	C 	0.50000 0.90230 0.87760 0.12000
H 	H 	0.50000 0.85700 0.89750 -0.07000
C 	C 	-0.00000 0.40230 0.37760 0.11400
H 	H 	0.00000 0.35700 0.39750 -0.07000
C 	C 	0.15230 0.25000 0.37240 0.12000
H 	H 	0.10700 0.25000 0.35250 -0.07100
C 	C 	0.34770 0.75000 0.87240 0.12000
H 	H 	0.39300 0.75000 0.85250 -0.07000
C 	C 	0.84770 0.25000 0.37240 0.12000
H 	H 	0.89300 0.25000 0.35250 -0.06900
C 	C 	0.50000 0.09770 0.12240 0.12000
H 	H 	0.50000 0.14300 0.10250 -0.07100
C 	C 	0.00000 0.59770 0.62240 0.11400
H 	H 	0.00000 0.64300 0.60250 -0.07000
C 	C 	-0.00000 0.90230 0.62240 0.11500
H 	H 	-0.00000 0.85700 0.60250 -0.07000
C 	C 	0.50000 0.40230 0.12240 0.12000
H 	H 	0.50000 0.35700 0.10250 -0.07100
C 	C 	0.65230 0.75000 0.87240 0.12000
H 	H 	0.60700 0.75000 0.85250 -0.07000
C 	C 	0.84770 0.75000 0.62760 0.12000
H 	H 	0.89300 0.75000 0.64750 -0.06900
C 	C 	0.65230 0.25000 0.12760 0.12000
H 	H 	0.60700 0.25000 0.14750 -0.07100
Zn	Zn	0.33653 0.41347 0.12500 1.17200
Zn	Zn	0.16347 0.58653 0.62500 1.17200
Zn	Zn	0.83653 0.08653 0.37500 1.17200
Zn	Zn	0.66347 0.91347 0.87500 1.17200
Zn	Zn	0.16347 0.41347 0.37500 1.17200
Zn	Zn	0.33653 0.58653 0.87500 1.17200
Zn	Zn	0.66347 0.08653 0.12500 1.17200
Zn	Zn	0.83653 0.91347 0.62500 1.17200
Zn	Zn	0.66347 0.58653 0.87500 1.17200
Zn	Zn	0.83653 0.41347 0.37500 1.17200
Zn	Zn	0.16347 0.91347 0.62500 1.17200
Zn	Zn	0.33653 0.08653 0.12500 1.17200
Zn	Zn	0.83653 0.58653 0.62500 1.17200
Zn	Zn	0.66347 0.41347 0.12500 1.17200
Zn	Zn	0.33653 0.91347 0.87500 1.17200
Zn	Zn	0.16347 0.08653 0.37500 1.17200
