data_crystal

_cell_length_a 22.18110
_cell_length_b 22.18110
_cell_length_c 41.96100
_cell_angle_alpha 90.00000
_cell_angle_beta  90.00000
_cell_angle_gamma 120.00000

_symmetry_space_group_name_	'P 1'
_symmetry_space_group_name_H-M	'P 1'

loop_
_symmetry_equiv_pos_as_xyz
  x,y,z

loop_
_atom_site_label
_atom_site_type_symbol
_atom_site_fract_x
_atom_site_fract_y
_atom_site_fract_z
_atom_site_charge
In	In	0.62278 0.22798 0.99961 1.98500
O 	O 	0.54259 0.21172 0.03441 -0.62600
O 	O 	0.33134 0.78899 0.03479 -0.60300
O 	O 	0.22841 0.68918 0.03771 -0.58700
O 	O 	0.53760 0.30843 0.03591 -0.60300
O 	O 	0.40406 0.32523 0.12930 -0.42500
O 	O 	0.30061 0.23277 0.13570 -0.40300
O 	O 	0.07523 0.67379 0.12863 -0.43600
O 	O 	0.08682 0.76943 0.14886 -0.44500
C 	C 	0.27310 0.75360 0.04497 0.46700
C 	C 	0.19880 0.85390 0.10944 -0.03000
H 	H 	0.18450 0.87630 0.12370 0.07000
C 	C 	0.25520 0.89240 0.08853 0.01200
C 	C 	0.16470 0.78050 0.10811 -0.07000
C 	C 	0.18840 0.74660 0.08718 0.03700
H 	H 	0.16580 0.69830 0.08640 0.04700
C 	C 	0.24660 0.78680 0.06747 -0.12700
C 	C 	0.27980 0.85870 0.06879 -0.00200
H 	H 	0.31910 0.88500 0.05630 0.04100
C 	C 	0.45845 0.21080 0.06620 -0.14400
C 	C 	0.51950 0.24537 0.04411 0.51800
C 	C 	0.42010 0.14010 0.06689 0.01300
H 	H 	0.43270 0.11480 0.05350 0.03500
C 	C 	0.29370 0.96950 0.08915 -0.01600
C 	C 	0.32240 0.02970 0.08855 -0.00500
C 	C 	0.36220 0.10390 0.08695 0.00400
C 	C 	0.43720 0.25060 0.08364 0.03600
H 	H 	0.46030 0.29870 0.08150 0.04500
C 	C 	0.38020 0.21650 0.10462 -0.04900
C 	C 	0.34050 0.14360 0.10513 -0.03400
H 	H 	0.30010 0.12140 0.11730 0.06900
C 	C 	0.36459 0.26120 0.12675 0.27600
C 	C 	0.10640 0.74060 0.12999 0.31300
In	In	0.28944 0.56131 0.33295 1.98400
O 	O 	0.20926 0.54505 0.36774 -0.62800
O 	O 	0.99801 0.12232 0.36812 -0.60400
O 	O 	0.89508 0.02251 0.37104 -0.58800
O 	O 	0.20427 0.64176 0.36924 -0.60400
O 	O 	0.07073 0.65856 0.46263 -0.42700
O 	O 	0.96728 0.56610 0.46903 -0.40300
O 	O 	0.74190 0.00712 0.46196 -0.43700
O 	O 	0.75349 0.10276 0.48219 -0.44500
C 	C 	0.93977 0.08693 0.37830 0.46700
C 	C 	0.86547 0.18723 0.44277 -0.03000
H 	H 	0.85117 0.20963 0.45703 0.06900
C 	C 	0.92187 0.22573 0.42186 0.00900
C 	C 	0.83137 0.11383 0.44144 -0.07200
C 	C 	0.85507 0.07993 0.42051 0.03700
H 	H 	0.83247 0.03163 0.41973 0.04600
C 	C 	0.91327 0.12013 0.40080 -0.12700
C 	C 	0.94647 0.19203 0.40212 -0.00100
H 	H 	0.98577 0.21833 0.38963 0.04100
C 	C 	0.12512 0.54413 0.39953 -0.14300
C 	C 	0.18617 0.57870 0.37744 0.51700
C 	C 	0.08677 0.47343 0.40022 0.01200
H 	H 	0.09937 0.44813 0.38683 0.03500
C 	C 	0.96037 0.30283 0.42248 -0.01200
C 	C 	0.98907 0.36303 0.42188 -0.00900
C 	C 	0.02887 0.43723 0.42028 0.00600
C 	C 	0.10387 0.58393 0.41697 0.03500
H 	H 	0.12697 0.63203 0.41483 0.04500
C 	C 	0.04687 0.54983 0.43795 -0.04900
C 	C 	0.00717 0.47693 0.43846 -0.03600
H 	H 	0.96677 0.45473 0.45063 0.06900
C 	C 	0.03126 0.59453 0.46008 0.27500
C 	C 	0.77307 0.07393 0.46332 0.31300
In	In	0.95611 0.89465 0.66628 1.98500
O 	O 	0.87592 0.87839 0.70108 -0.62700
O 	O 	0.66467 0.45566 0.70146 -0.60300
O 	O 	0.56174 0.35585 0.70438 -0.58700
O 	O 	0.87093 0.97510 0.70258 -0.60300
O 	O 	0.73739 0.99190 0.79597 -0.42600
O 	O 	0.63394 0.89944 0.80237 -0.40400
O 	O 	0.40856 0.34046 0.79530 -0.43700
O 	O 	0.42015 0.43610 0.81553 -0.44500
C 	C 	0.60643 0.42027 0.71164 0.46600
C 	C 	0.53213 0.52057 0.77611 -0.03000
H 	H 	0.51783 0.54297 0.79037 0.06900
C 	C 	0.58853 0.55907 0.75520 0.00900
C 	C 	0.49803 0.44717 0.77478 -0.07100
C 	C 	0.52173 0.41327 0.75385 0.03700
H 	H 	0.49913 0.36497 0.75307 0.04600
C 	C 	0.57993 0.45347 0.73414 -0.12700
C 	C 	0.61313 0.52537 0.73546 -0.00100
H 	H 	0.65243 0.55167 0.72297 0.04100
C 	C 	0.79178 0.87747 0.73287 -0.14300
C 	C 	0.85283 0.91204 0.71078 0.51700
C 	C 	0.75343 0.80677 0.73356 0.01200
H 	H 	0.76603 0.78147 0.72017 0.03500
C 	C 	0.62703 0.63617 0.75582 -0.01200
C 	C 	0.65573 0.69637 0.75522 -0.00900
C 	C 	0.69553 0.77057 0.75362 0.00600
C 	C 	0.77053 0.91727 0.75031 0.03500
H 	H 	0.79363 0.96537 0.74817 0.04500
C 	C 	0.71353 0.88317 0.77129 -0.04800
C 	C 	0.67383 0.81027 0.77180 -0.03600
H 	H 	0.63343 0.78807 0.78397 0.06900
C 	C 	0.69792 0.92787 0.79342 0.27500
C 	C 	0.43973 0.40727 0.79666 0.31300
In	In	0.77202 0.39480 0.99961 1.98400
O 	O 	0.78828 0.33087 0.03441 -0.62700
O 	O 	0.21101 0.54235 0.03479 -0.60400
O 	O 	0.31082 0.53923 0.03771 -0.58800
O 	O 	0.69157 0.22917 0.03591 -0.60400
O 	O 	0.67477 0.07883 0.12930 -0.42600
O 	O 	0.76723 0.06784 0.13570 -0.40300
O 	O 	0.32621 0.40144 0.12863 -0.43600
O 	O 	0.23057 0.31739 0.14886 -0.44500
C 	C 	0.24640 0.51950 0.04497 0.46700
C 	C 	0.14610 0.34490 0.10944 -0.02900
H 	H 	0.12370 0.30820 0.12370 0.06900
C 	C 	0.10760 0.36280 0.08853 0.00900
C 	C 	0.21950 0.38420 0.10811 -0.07100
C 	C 	0.25340 0.44180 0.08718 0.03700
H 	H 	0.30170 0.46750 0.08640 0.04600
C 	C 	0.21320 0.45980 0.06747 -0.12700
C 	C 	0.14130 0.42110 0.06879 -0.00100
H 	H 	0.11500 0.43410 0.05630 0.04100
C 	C 	0.78920 0.24765 0.06620 -0.14300
C 	C 	0.75463 0.27413 0.04411 0.51700
C 	C 	0.85990 0.28000 0.06689 0.01200
H 	H 	0.88520 0.31790 0.05350 0.03600
C 	C 	0.03050 0.32420 0.08915 -0.01100
C 	C 	0.97030 0.29270 0.08855 -0.01000
C 	C 	0.89610 0.25830 0.08695 0.00600
C 	C 	0.74940 0.18660 0.08364 0.03500
H 	H 	0.70130 0.16160 0.08150 0.04500
C 	C 	0.78350 0.16370 0.10462 -0.04900
C 	C 	0.85640 0.19690 0.10513 -0.03600
H 	H 	0.87860 0.17870 0.11730 0.06900
C 	C 	0.73880 0.10339 0.12675 0.27500
C 	C 	0.25940 0.36580 0.12999 0.31300
In	In	0.43869 0.72813 0.33295 1.98400
O 	O 	0.45495 0.66420 0.36774 -0.62800
O 	O 	0.87768 0.87568 0.36812 -0.60300
O 	O 	0.97749 0.87256 0.37104 -0.58700
O 	O 	0.35824 0.56250 0.36924 -0.60400
O 	O 	0.34144 0.41216 0.46263 -0.42600
O 	O 	0.43390 0.40117 0.46903 -0.40400
O 	O 	0.99288 0.73477 0.46196 -0.43600
O 	O 	0.89724 0.65072 0.48219 -0.44500
C 	C 	0.91307 0.85283 0.37830 0.46600
C 	C 	0.81277 0.67823 0.44277 -0.03000
H 	H 	0.79037 0.64153 0.45703 0.06900
C 	C 	0.77427 0.69613 0.42186 0.01000
C 	C 	0.88617 0.71753 0.44144 -0.07100
C 	C 	0.92007 0.77513 0.42051 0.03700
H 	H 	0.96837 0.80083 0.41973 0.04600
C 	C 	0.87987 0.79313 0.40080 -0.12700
C 	C 	0.80797 0.75443 0.40212 -0.00100
H 	H 	0.78167 0.76743 0.38963 0.04100
C 	C 	0.45587 0.58098 0.39953 -0.14300
C 	C 	0.42130 0.60746 0.37744 0.51700
C 	C 	0.52657 0.61333 0.40022 0.01200
H 	H 	0.55187 0.65123 0.38683 0.03500
C 	C 	0.69717 0.65753 0.42248 -0.01200
C 	C 	0.63697 0.62603 0.42188 -0.00900
C 	C 	0.56277 0.59163 0.42028 0.00600
C 	C 	0.41607 0.51993 0.41697 0.03600
H 	H 	0.36797 0.49493 0.41483 0.04500
C 	C 	0.45017 0.49703 0.43795 -0.04900
C 	C 	0.52307 0.53023 0.43846 -0.03600
H 	H 	0.54527 0.51203 0.45063 0.06900
C 	C 	0.40547 0.43672 0.46008 0.27500
C 	C 	0.92607 0.69913 0.46332 0.31300
In	In	0.10535 0.06146 0.66628 1.98500
O 	O 	0.12161 0.99754 0.70108 -0.62800
O 	O 	0.54434 0.20902 0.70146 -0.60400
O 	O 	0.64415 0.20590 0.70438 -0.58800
O 	O 	0.02490 0.89584 0.70258 -0.60400
O 	O 	0.00810 0.74550 0.79597 -0.42600
O 	O 	0.10056 0.73451 0.80237 -0.40400
O 	O 	0.65954 0.06811 0.79530 -0.43700
O 	O 	0.56390 0.98406 0.81553 -0.44400
C 	C 	0.57973 0.18617 0.71164 0.46600
C 	C 	0.47943 0.01157 0.77611 -0.03100
H 	H 	0.45703 0.97487 0.79037 0.07000
C 	C 	0.44093 0.02947 0.75520 0.01000
C 	C 	0.55283 0.05087 0.77478 -0.07100
C 	C 	0.58673 0.10847 0.75385 0.03600
H 	H 	0.63503 0.13417 0.75307 0.04600
C 	C 	0.54653 0.12647 0.73414 -0.12700
C 	C 	0.47463 0.08777 0.73546 -0.00100
H 	H 	0.44833 0.10077 0.72297 0.04100
C 	C 	0.12253 0.91432 0.73287 -0.14300
C 	C 	0.08796 0.94080 0.71078 0.51700
C 	C 	0.19323 0.94667 0.73356 0.01200
H 	H 	0.21853 0.98457 0.72017 0.03500
C 	C 	0.36383 0.99087 0.75582 -0.01100
C 	C 	0.30363 0.95937 0.75522 -0.01000
C 	C 	0.22943 0.92497 0.75362 0.00600
C 	C 	0.08273 0.85327 0.75031 0.03500
H 	H 	0.03463 0.82827 0.74817 0.04500
C 	C 	0.11683 0.83037 0.77129 -0.04900
C 	C 	0.18973 0.86357 0.77180 -0.03600
H 	H 	0.21193 0.84537 0.78397 0.06900
C 	C 	0.07213 0.77006 0.79342 0.27500
C 	C 	0.59273 0.03247 0.79666 0.31200
In	In	0.60520 0.37722 0.99961 1.98400
O 	O 	0.66913 0.45741 0.03441 -0.62700
O 	O 	0.45765 0.66866 0.03479 -0.60400
O 	O 	0.46077 0.77159 0.03771 -0.58800
O 	O 	0.77083 0.46240 0.03591 -0.60400
O 	O 	0.92117 0.59594 0.12930 -0.42600
O 	O 	0.93216 0.69939 0.13570 -0.40300
O 	O 	0.59856 0.92477 0.12863 -0.43700
O 	O 	0.68261 0.91318 0.14886 -0.44500
C 	C 	0.48050 0.72690 0.04497 0.46700
C 	C 	0.65510 0.80120 0.10944 -0.03000
H 	H 	0.69180 0.81550 0.12370 0.06900
C 	C 	0.63720 0.74480 0.08853 0.01000
C 	C 	0.61580 0.83530 0.10811 -0.07100
C 	C 	0.55820 0.81160 0.08718 0.03700
H 	H 	0.53250 0.83420 0.08640 0.04600
C 	C 	0.54020 0.75340 0.06747 -0.12700
C 	C 	0.57890 0.72020 0.06879 -0.00100
H 	H 	0.56590 0.68090 0.05630 0.04100
C 	C 	0.75235 0.54155 0.06620 -0.14300
C 	C 	0.72587 0.48050 0.04411 0.51700
C 	C 	0.72000 0.57990 0.06689 0.01200
H 	H 	0.68210 0.56730 0.05350 0.03500
C 	C 	0.67580 0.70630 0.08915 -0.01200
C 	C 	0.70730 0.67760 0.08855 -0.00900
C 	C 	0.74170 0.63780 0.08695 0.00600
C 	C 	0.81340 0.56280 0.08364 0.03500
H 	H 	0.83840 0.53970 0.08150 0.04500
C 	C 	0.83630 0.61980 0.10462 -0.04900
C 	C 	0.80310 0.65950 0.10513 -0.03600
H 	H 	0.82130 0.69990 0.11730 0.06900
C 	C 	0.89661 0.63541 0.12675 0.27500
C 	C 	0.63420 0.89360 0.12999 0.31300
In	In	0.27187 0.71056 0.33295 1.98400
O 	O 	0.33580 0.79074 0.36774 -0.62800
O 	O 	0.12432 0.00199 0.36812 -0.60300
O 	O 	0.12744 0.10492 0.37104 -0.58700
O 	O 	0.43750 0.79573 0.36924 -0.60400
O 	O 	0.58784 0.92927 0.46263 -0.42600
O 	O 	0.59883 0.03272 0.46903 -0.40400
O 	O 	0.26523 0.25810 0.46196 -0.43600
O 	O 	0.34928 0.24651 0.48219 -0.44500
C 	C 	0.14717 0.06023 0.37830 0.46600
C 	C 	0.32177 0.13453 0.44277 -0.03000
H 	H 	0.35847 0.14883 0.45703 0.06900
C 	C 	0.30387 0.07813 0.42186 0.01000
C 	C 	0.28247 0.16863 0.44144 -0.07100
C 	C 	0.22487 0.14493 0.42051 0.03600
H 	H 	0.19917 0.16753 0.41973 0.04600
C 	C 	0.20687 0.08673 0.40080 -0.12700
C 	C 	0.24557 0.05353 0.40212 -0.00100
H 	H 	0.23257 0.01423 0.38963 0.04100
C 	C 	0.41902 0.87488 0.39953 -0.14400
C 	C 	0.39254 0.81383 0.37744 0.51800
C 	C 	0.38667 0.91323 0.40022 0.01300
H 	H 	0.34877 0.90063 0.38683 0.03500
C 	C 	0.34247 0.03963 0.42248 -0.01200
C 	C 	0.37397 0.01093 0.42188 -0.00800
C 	C 	0.40837 0.97113 0.42028 0.00500
C 	C 	0.48007 0.89613 0.41697 0.03600
H 	H 	0.50507 0.87303 0.41483 0.04500
C 	C 	0.50297 0.95313 0.43795 -0.04900
C 	C 	0.46977 0.99283 0.43846 -0.03600
H 	H 	0.48797 0.03323 0.45063 0.06900
C 	C 	0.56328 0.96874 0.46008 0.27600
C 	C 	0.30087 0.22693 0.46332 0.31300
In	In	0.93854 0.04389 0.66628 1.98300
O 	O 	0.00246 0.12408 0.70108 -0.62700
O 	O 	0.79098 0.33533 0.70146 -0.60400
O 	O 	0.79410 0.43826 0.70438 -0.58700
O 	O 	0.10416 0.12907 0.70258 -0.60400
O 	O 	0.25450 0.26261 0.79597 -0.42600
O 	O 	0.26549 0.36606 0.80237 -0.40400
O 	O 	0.93189 0.59144 0.79530 -0.43600
O 	O 	0.01594 0.57985 0.81553 -0.44400
C 	C 	0.81383 0.39357 0.71164 0.46700
C 	C 	0.98843 0.46787 0.77611 -0.03200
H 	H 	0.02513 0.48217 0.79037 0.07100
C 	C 	0.97053 0.41147 0.75520 0.00800
C 	C 	0.94913 0.50197 0.77478 -0.07000
C 	C 	0.89153 0.47827 0.75385 0.03600
H 	H 	0.86583 0.50087 0.75307 0.04600
C 	C 	0.87353 0.42007 0.73414 -0.12700
C 	C 	0.91223 0.38687 0.73546 -0.00100
H 	H 	0.89923 0.34757 0.72297 0.04000
C 	C 	0.08568 0.20822 0.73287 -0.14300
C 	C 	0.05920 0.14717 0.71078 0.51700
C 	C 	0.05333 0.24657 0.73356 0.01100
H 	H 	0.01543 0.23397 0.72017 0.03600
C 	C 	0.00913 0.37297 0.75582 -0.01000
C 	C 	0.04063 0.34427 0.75522 -0.01000
C 	C 	0.07503 0.30447 0.75362 0.00700
C 	C 	0.14673 0.22947 0.75031 0.03500
H 	H 	0.17173 0.20637 0.74817 0.04500
C 	C 	0.16963 0.28647 0.77129 -0.04800
C 	C 	0.13643 0.32617 0.77180 -0.03600
H 	H 	0.15463 0.36657 0.78397 0.06900
C 	C 	0.22994 0.30208 0.79342 0.27500
C 	C 	0.96753 0.56027 0.79666 0.31200
In	In	0.22798 0.62278 0.00039 1.98400
O 	O 	0.21172 0.54259 0.96559 -0.62700
O 	O 	0.78899 0.33134 0.96521 -0.60400
O 	O 	0.68918 0.22841 0.96229 -0.58800
O 	O 	0.30843 0.53760 0.96409 -0.60400
O 	O 	0.32523 0.40406 0.87070 -0.42600
O 	O 	0.23277 0.30061 0.86430 -0.40400
O 	O 	0.67379 0.07523 0.87137 -0.43700
O 	O 	0.76943 0.08682 0.85114 -0.44600
C 	C 	0.75360 0.27310 0.95503 0.46600
C 	C 	0.85390 0.19880 0.89056 -0.03100
H 	H 	0.87630 0.18450 0.87630 0.06900
C 	C 	0.89240 0.25520 0.91147 0.01100
C 	C 	0.78050 0.16470 0.89189 -0.07100
C 	C 	0.74660 0.18840 0.91282 0.03600
H 	H 	0.69830 0.16580 0.91360 0.04600
C 	C 	0.78680 0.24660 0.93253 -0.12700
C 	C 	0.85870 0.27980 0.93121 -0.00200
H 	H 	0.88500 0.31910 0.94370 0.04100
C 	C 	0.21080 0.45845 0.93380 -0.14400
C 	C 	0.24537 0.51950 0.95589 0.51800
C 	C 	0.14010 0.42010 0.93311 0.01300
H 	H 	0.11480 0.43270 0.94650 0.03500
C 	C 	0.96950 0.29370 0.91085 -0.01600
C 	C 	0.02970 0.32240 0.91145 -0.00500
C 	C 	0.10390 0.36220 0.91305 0.00400
C 	C 	0.25060 0.43720 0.91636 0.03600
H 	H 	0.29870 0.46030 0.91850 0.04500
C 	C 	0.21650 0.38020 0.89538 -0.04900
C 	C 	0.14360 0.34050 0.89487 -0.03400
H 	H 	0.12140 0.30010 0.88270 0.06900
C 	C 	0.26120 0.36459 0.87325 0.27600
C 	C 	0.74060 0.10640 0.87001 0.31300
In	In	0.89465 0.95611 0.33372 1.98500
O 	O 	0.87839 0.87592 0.29892 -0.62700
O 	O 	0.45566 0.66467 0.29854 -0.60300
O 	O 	0.35585 0.56174 0.29562 -0.58700
O 	O 	0.97510 0.87093 0.29742 -0.60300
O 	O 	0.99190 0.73739 0.20403 -0.42600
O 	O 	0.89944 0.63394 0.19763 -0.40400
O 	O 	0.34046 0.40856 0.20470 -0.43700
O 	O 	0.43610 0.42015 0.18447 -0.44500
C 	C 	0.42027 0.60643 0.28836 0.46600
C 	C 	0.52057 0.53213 0.22389 -0.03000
H 	H 	0.54297 0.51783 0.20963 0.06900
C 	C 	0.55907 0.58853 0.24480 0.00900
C 	C 	0.44717 0.49803 0.22522 -0.07100
C 	C 	0.41327 0.52173 0.24615 0.03700
H 	H 	0.36497 0.49913 0.24693 0.04600
C 	C 	0.45347 0.57993 0.26586 -0.12700
C 	C 	0.52537 0.61313 0.26454 -0.00100
H 	H 	0.55167 0.65243 0.27703 0.04100
C 	C 	0.87747 0.79178 0.26713 -0.14300
C 	C 	0.91204 0.85283 0.28922 0.51700
C 	C 	0.80677 0.75343 0.26644 0.01200
H 	H 	0.78147 0.76603 0.27983 0.03500
C 	C 	0.63617 0.62703 0.24418 -0.01200
C 	C 	0.69637 0.65573 0.24478 -0.00900
C 	C 	0.77057 0.69553 0.24638 0.00600
C 	C 	0.91727 0.77053 0.24969 0.03500
H 	H 	0.96537 0.79363 0.25183 0.04500
C 	C 	0.88317 0.71353 0.22871 -0.04800
C 	C 	0.81027 0.67383 0.22820 -0.03600
H 	H 	0.78807 0.63343 0.21603 0.06900
C 	C 	0.92787 0.69792 0.20658 0.27500
C 	C 	0.40727 0.43973 0.20334 0.31300
In	In	0.56131 0.28944 0.66705 1.98400
O 	O 	0.54505 0.20926 0.63226 -0.62800
O 	O 	0.12232 0.99801 0.63188 -0.60400
O 	O 	0.02251 0.89508 0.62896 -0.58800
O 	O 	0.64176 0.20427 0.63076 -0.60400
O 	O 	0.65856 0.07073 0.53737 -0.42700
O 	O 	0.56610 0.96728 0.53097 -0.40300
O 	O 	0.00712 0.74190 0.53804 -0.43700
O 	O 	0.10276 0.75349 0.51781 -0.44500
C 	C 	0.08693 0.93977 0.62170 0.46700
C 	C 	0.18723 0.86547 0.55723 -0.03000
H 	H 	0.20963 0.85117 0.54297 0.06900
C 	C 	0.22573 0.92187 0.57814 0.00900
C 	C 	0.11383 0.83137 0.55856 -0.07200
C 	C 	0.07993 0.85507 0.57949 0.03700
H 	H 	0.03163 0.83247 0.58027 0.04600
C 	C 	0.12013 0.91327 0.59920 -0.12700
C 	C 	0.19203 0.94647 0.59788 -0.00100
H 	H 	0.21833 0.98577 0.61037 0.04100
C 	C 	0.54413 0.12512 0.60047 -0.14300
C 	C 	0.57870 0.18617 0.62256 0.51700
C 	C 	0.47343 0.08677 0.59978 0.01200
H 	H 	0.44813 0.09937 0.61317 0.03500
C 	C 	0.30283 0.96037 0.57752 -0.01200
C 	C 	0.36303 0.98907 0.57812 -0.00900
C 	C 	0.43723 0.02887 0.57972 0.00600
C 	C 	0.58393 0.10387 0.58303 0.03500
H 	H 	0.63203 0.12697 0.58517 0.04500
C 	C 	0.54983 0.04687 0.56205 -0.04900
C 	C 	0.47693 0.00717 0.56154 -0.03600
H 	H 	0.45473 0.96677 0.54937 0.06900
C 	C 	0.59453 0.03126 0.53992 0.27500
C 	C 	0.07393 0.77307 0.53668 0.31300
In	In	0.39480 0.77202 0.00039 1.98400
O 	O 	0.33087 0.78828 0.96559 -0.62700
O 	O 	0.54235 0.21101 0.96521 -0.60400
O 	O 	0.53923 0.31082 0.96229 -0.58800
O 	O 	0.22917 0.69157 0.96409 -0.60400
O 	O 	0.07883 0.67477 0.87070 -0.42600
O 	O 	0.06784 0.76723 0.86430 -0.40300
O 	O 	0.40144 0.32621 0.87137 -0.43600
O 	O 	0.31739 0.23057 0.85114 -0.44500
C 	C 	0.51950 0.24640 0.95503 0.46700
C 	C 	0.34490 0.14610 0.89056 -0.02900
H 	H 	0.30820 0.12370 0.87630 0.06900
C 	C 	0.36280 0.10760 0.91147 0.00900
C 	C 	0.38420 0.21950 0.89189 -0.07100
C 	C 	0.44180 0.25340 0.91282 0.03700
H 	H 	0.46750 0.30170 0.91360 0.04600
C 	C 	0.45980 0.21320 0.93253 -0.12700
C 	C 	0.42110 0.14130 0.93121 -0.00100
H 	H 	0.43410 0.11500 0.94370 0.04100
C 	C 	0.24765 0.78920 0.93380 -0.14300
C 	C 	0.27413 0.75463 0.95589 0.51700
C 	C 	0.28000 0.85990 0.93311 0.01200
H 	H 	0.31790 0.88520 0.94650 0.03600
C 	C 	0.32420 0.03050 0.91085 -0.01100
C 	C 	0.29270 0.97030 0.91145 -0.01000
C 	C 	0.25830 0.89610 0.91305 0.00600
C 	C 	0.18660 0.74940 0.91636 0.03500
H 	H 	0.16160 0.70130 0.91850 0.04500
C 	C 	0.16370 0.78350 0.89538 -0.04900
C 	C 	0.19690 0.85640 0.89487 -0.03600
H 	H 	0.17870 0.87860 0.88270 0.06900
C 	C 	0.10339 0.73880 0.87325 0.27500
C 	C 	0.36580 0.25940 0.87001 0.31300
In	In	0.06146 0.10535 0.33372 1.98500
O 	O 	0.99754 0.12161 0.29892 -0.62800
O 	O 	0.20902 0.54434 0.29854 -0.60400
O 	O 	0.20590 0.64415 0.29562 -0.58800
O 	O 	0.89584 0.02490 0.29742 -0.60400
O 	O 	0.74550 0.00810 0.20403 -0.42600
O 	O 	0.73451 0.10056 0.19763 -0.40400
O 	O 	0.06811 0.65954 0.20470 -0.43700
O 	O 	0.98406 0.56390 0.18447 -0.44400
C 	C 	0.18617 0.57973 0.28836 0.46600
C 	C 	0.01157 0.47943 0.22389 -0.03100
H 	H 	0.97487 0.45703 0.20963 0.07000
C 	C 	0.02947 0.44093 0.24480 0.01000
C 	C 	0.05087 0.55283 0.22522 -0.07100
C 	C 	0.10847 0.58673 0.24615 0.03600
H 	H 	0.13417 0.63503 0.24693 0.04600
C 	C 	0.12647 0.54653 0.26586 -0.12700
C 	C 	0.08777 0.47463 0.26454 -0.00100
H 	H 	0.10077 0.44833 0.27703 0.04100
C 	C 	0.91432 0.12253 0.26713 -0.14300
C 	C 	0.94080 0.08796 0.28922 0.51700
C 	C 	0.94667 0.19323 0.26644 0.01200
H 	H 	0.98457 0.21853 0.27983 0.03500
C 	C 	0.99087 0.36383 0.24418 -0.01100
C 	C 	0.95937 0.30363 0.24478 -0.01000
C 	C 	0.92497 0.22943 0.24638 0.00600
C 	C 	0.85327 0.08273 0.24969 0.03500
H 	H 	0.82827 0.03463 0.25183 0.04500
C 	C 	0.83037 0.11683 0.22871 -0.04900
C 	C 	0.86357 0.18973 0.22820 -0.03600
H 	H 	0.84537 0.21193 0.21603 0.06900
C 	C 	0.77006 0.07213 0.20658 0.27500
C 	C 	0.03247 0.59273 0.20334 0.31200
In	In	0.72813 0.43869 0.66705 1.98400
O 	O 	0.66420 0.45495 0.63226 -0.62800
O 	O 	0.87568 0.87768 0.63188 -0.60300
O 	O 	0.87256 0.97749 0.62896 -0.58700
O 	O 	0.56250 0.35824 0.63076 -0.60400
O 	O 	0.41216 0.34144 0.53737 -0.42600
O 	O 	0.40117 0.43390 0.53097 -0.40400
O 	O 	0.73477 0.99288 0.53804 -0.43600
O 	O 	0.65072 0.89724 0.51781 -0.44500
C 	C 	0.85283 0.91307 0.62170 0.46600
C 	C 	0.67823 0.81277 0.55723 -0.03000
H 	H 	0.64153 0.79037 0.54297 0.06900
C 	C 	0.69613 0.77427 0.57814 0.01000
C 	C 	0.71753 0.88617 0.55856 -0.07100
C 	C 	0.77513 0.92007 0.57949 0.03700
H 	H 	0.80083 0.96837 0.58027 0.04600
C 	C 	0.79313 0.87987 0.59920 -0.12700
C 	C 	0.75443 0.80797 0.59788 -0.00100
H 	H 	0.76743 0.78167 0.61037 0.04100
C 	C 	0.58098 0.45587 0.60047 -0.14300
C 	C 	0.60746 0.42130 0.62256 0.51700
C 	C 	0.61333 0.52657 0.59978 0.01200
H 	H 	0.65123 0.55187 0.61317 0.03500
C 	C 	0.65753 0.69717 0.57752 -0.01200
C 	C 	0.62603 0.63697 0.57812 -0.00900
C 	C 	0.59163 0.56277 0.57972 0.00600
C 	C 	0.51993 0.41607 0.58303 0.03600
H 	H 	0.49493 0.36797 0.58517 0.04500
C 	C 	0.49703 0.45017 0.56205 -0.04900
C 	C 	0.53023 0.52307 0.56154 -0.03600
H 	H 	0.51203 0.54527 0.54937 0.06900
C 	C 	0.43672 0.40547 0.53992 0.27500
C 	C 	0.69913 0.92607 0.53668 0.31300
In	In	0.37722 0.60520 0.00039 1.98400
O 	O 	0.45741 0.66913 0.96559 -0.62700
O 	O 	0.66866 0.45765 0.96521 -0.60400
O 	O 	0.77159 0.46077 0.96229 -0.58800
O 	O 	0.46240 0.77083 0.96409 -0.60400
O 	O 	0.59594 0.92117 0.87070 -0.42600
O 	O 	0.69939 0.93216 0.86430 -0.40300
O 	O 	0.92477 0.59856 0.87137 -0.43700
O 	O 	0.91318 0.68261 0.85114 -0.44500
C 	C 	0.72690 0.48050 0.95503 0.46700
C 	C 	0.80120 0.65510 0.89056 -0.03000
H 	H 	0.81550 0.69180 0.87630 0.06900
C 	C 	0.74480 0.63720 0.91147 0.01000
C 	C 	0.83530 0.61580 0.89189 -0.07100
C 	C 	0.81160 0.55820 0.91282 0.03700
H 	H 	0.83420 0.53250 0.91360 0.04600
C 	C 	0.75340 0.54020 0.93253 -0.12700
C 	C 	0.72020 0.57890 0.93121 -0.00100
H 	H 	0.68090 0.56590 0.94370 0.04100
C 	C 	0.54155 0.75235 0.93380 -0.14300
C 	C 	0.48050 0.72587 0.95589 0.51700
C 	C 	0.57990 0.72000 0.93311 0.01200
H 	H 	0.56730 0.68210 0.94650 0.03500
C 	C 	0.70630 0.67580 0.91085 -0.01200
C 	C 	0.67760 0.70730 0.91145 -0.00900
C 	C 	0.63780 0.74170 0.91305 0.00600
C 	C 	0.56280 0.81340 0.91636 0.03500
H 	H 	0.53970 0.83840 0.91850 0.04500
C 	C 	0.61980 0.83630 0.89538 -0.04900
C 	C 	0.65950 0.80310 0.89487 -0.03600
H 	H 	0.69990 0.82130 0.88270 0.06900
C 	C 	0.63541 0.89661 0.87325 0.27500
C 	C 	0.89360 0.63420 0.87001 0.31300
In	In	0.04389 0.93854 0.33372 1.98300
O 	O 	0.12408 0.00246 0.29892 -0.62700
O 	O 	0.33533 0.79098 0.29854 -0.60400
O 	O 	0.43826 0.79410 0.29562 -0.58700
O 	O 	0.12907 0.10416 0.29742 -0.60400
O 	O 	0.26261 0.25450 0.20403 -0.42600
O 	O 	0.36606 0.26549 0.19763 -0.40400
O 	O 	0.59144 0.93189 0.20470 -0.43600
O 	O 	0.57985 0.01594 0.18447 -0.44400
C 	C 	0.39357 0.81383 0.28836 0.46700
C 	C 	0.46787 0.98843 0.22389 -0.03200
H 	H 	0.48217 0.02513 0.20963 0.07100
C 	C 	0.41147 0.97053 0.24480 0.00800
C 	C 	0.50197 0.94913 0.22522 -0.07000
C 	C 	0.47827 0.89153 0.24615 0.03600
H 	H 	0.50087 0.86583 0.24693 0.04600
C 	C 	0.42007 0.87353 0.26586 -0.12700
C 	C 	0.38687 0.91223 0.26454 -0.00100
H 	H 	0.34757 0.89923 0.27703 0.04000
C 	C 	0.20822 0.08568 0.26713 -0.14300
C 	C 	0.14717 0.05920 0.28922 0.51700
C 	C 	0.24657 0.05333 0.26644 0.01100
H 	H 	0.23397 0.01543 0.27983 0.03600
C 	C 	0.37297 0.00913 0.24418 -0.01000
C 	C 	0.34427 0.04063 0.24478 -0.01000
C 	C 	0.30447 0.07503 0.24638 0.00700
C 	C 	0.22947 0.14673 0.24969 0.03500
H 	H 	0.20637 0.17173 0.25183 0.04500
C 	C 	0.28647 0.16963 0.22871 -0.04800
C 	C 	0.32617 0.13643 0.22820 -0.03600
H 	H 	0.36657 0.15463 0.21603 0.06900
C 	C 	0.30208 0.22994 0.20658 0.27500
C 	C 	0.56027 0.96753 0.20334 0.31200
In	In	0.71056 0.27187 0.66705 1.98400
O 	O 	0.79074 0.33580 0.63226 -0.62800
O 	O 	0.00199 0.12432 0.63188 -0.60300
O 	O 	0.10492 0.12744 0.62896 -0.58700
O 	O 	0.79573 0.43750 0.63076 -0.60400
O 	O 	0.92927 0.58784 0.53737 -0.42600
O 	O 	0.03272 0.59883 0.53097 -0.40400
O 	O 	0.25810 0.26523 0.53804 -0.43600
O 	O 	0.24651 0.34928 0.51781 -0.44500
C 	C 	0.06023 0.14717 0.62170 0.46600
C 	C 	0.13453 0.32177 0.55723 -0.03000
H 	H 	0.14883 0.35847 0.54297 0.06900
C 	C 	0.07813 0.30387 0.57814 0.01000
C 	C 	0.16863 0.28247 0.55856 -0.07100
C 	C 	0.14493 0.22487 0.57949 0.03600
H 	H 	0.16753 0.19917 0.58027 0.04600
C 	C 	0.08673 0.20687 0.59920 -0.12700
C 	C 	0.05353 0.24557 0.59788 -0.00100
H 	H 	0.01423 0.23257 0.61037 0.04100
C 	C 	0.87488 0.41902 0.60047 -0.14400
C 	C 	0.81383 0.39254 0.62256 0.51800
C 	C 	0.91323 0.38667 0.59978 0.01300
H 	H 	0.90063 0.34877 0.61317 0.03500
C 	C 	0.03963 0.34247 0.57752 -0.01200
C 	C 	0.01093 0.37397 0.57812 -0.00800
C 	C 	0.97113 0.40837 0.57972 0.00500
C 	C 	0.89613 0.48007 0.58303 0.03600
H 	H 	0.87303 0.50507 0.58517 0.04500
C 	C 	0.95313 0.50297 0.56205 -0.04900
C 	C 	0.99283 0.46977 0.56154 -0.03600
H 	H 	0.03323 0.48797 0.54937 0.06900
C 	C 	0.96874 0.56328 0.53992 0.27600
C 	C 	0.22693 0.30087 0.53668 0.31300
In	In	0.33333 0.33183 0.16667 1.99400
In	In	-0.00000 0.66516 0.50000 1.99400
In	In	0.66817 0.00150 0.16667 1.99500
In	In	0.33484 0.33484 0.50000 1.99400
In	In	0.99850 0.66667 0.16667 1.99500
In	In	0.66516 0.00000 0.50000 1.99400
In	In	0.33183 0.33333 0.83333 1.99400
In	In	0.00150 0.66817 0.83333 1.99500
In	In	0.66667 0.99850 0.83333 1.99500
O 	O 	0.66667 0.33333 0.00009 -1.04100
O 	O 	0.33333 0.66667 0.33342 -1.04100
O 	O 	0.00000 0.00000 0.66676 -1.04000
O 	O 	0.33333 0.66667 0.99991 -1.04100
O 	O 	0.00000 -0.00000 0.33324 -1.04000
O 	O 	0.66667 0.33333 0.66658 -1.04100
