data_crystal

_cell_length_a 22.62300
_cell_length_b 22.62300
_cell_length_c 22.62300
_cell_angle_alpha 90.00000
_cell_angle_beta  90.00000
_cell_angle_gamma 90.00000

_symmetry_space_group_name_	'P 1'
_symmetry_space_group_name_H-M	'P 1'

loop_
_symmetry_equiv_pos_as_xyz
  x,y,z

loop_
_atom_site_label
_atom_site_type_symbol
_atom_site_fract_x
_atom_site_fract_y
_atom_site_fract_z
_atom_site_charge
O 	O 	0.26490 0.11320 0.25490 -0.61800
O 	O 	0.30590 0.15630 0.17420 -0.58800
C 	C 	0.30850 0.05360 0.11740 0.02100
H 	H 	0.31090 0.08950 0.09750 0.02900
C 	C 	0.29560 0.05250 0.17510 -0.15400
C 	C 	0.28640 0.11120 0.20640 0.45800
O 	O 	0.73510 0.88680 0.25490 -0.61700
O 	O 	0.69410 0.84370 0.17420 -0.58800
C 	C 	0.69150 0.94640 0.11740 0.02300
H 	H 	0.68910 0.91050 0.09750 0.02900
C 	C 	0.70440 0.94750 0.17510 -0.15100
C 	C 	0.71360 0.88880 0.20640 0.45800
O 	O 	0.73510 0.11320 0.74510 -0.61800
O 	O 	0.69410 0.15630 0.82580 -0.58800
C 	C 	0.69150 0.05360 0.88260 0.02600
H 	H 	0.68910 0.08950 0.90250 0.02800
C 	C 	0.70440 0.05250 0.82490 -0.15600
C 	C 	0.71360 0.11120 0.79360 0.46000
O 	O 	0.26490 0.88680 0.74510 -0.61600
O 	O 	0.30590 0.84370 0.82580 -0.58700
C 	C 	0.30850 0.94640 0.88260 0.02900
H 	H 	0.31090 0.91050 0.90250 0.02900
C 	C 	0.29560 0.94750 0.82490 -0.15300
C 	C 	0.28640 0.88880 0.79360 0.46000
O 	O 	0.25490 0.26490 0.11320 -0.61700
O 	O 	0.17420 0.30590 0.15630 -0.58700
C 	C 	0.11740 0.30850 0.05360 0.02200
H 	H 	0.09750 0.31090 0.08950 0.03000
C 	C 	0.17510 0.29560 0.05250 -0.15300
C 	C 	0.20640 0.28640 0.11120 0.45900
O 	O 	0.25490 0.73510 0.88680 -0.61600
O 	O 	0.17420 0.69410 0.84370 -0.58700
C 	C 	0.11740 0.69150 0.94640 0.02400
H 	H 	0.09750 0.68910 0.91050 0.03000
C 	C 	0.17510 0.70440 0.94750 -0.15000
C 	C 	0.20640 0.71360 0.88880 0.45900
O 	O 	0.74510 0.73510 0.11320 -0.61700
O 	O 	0.82580 0.69410 0.15630 -0.58700
C 	C 	0.88260 0.69150 0.05360 0.02700
H 	H 	0.90250 0.68910 0.08950 0.02900
C 	C 	0.82490 0.70440 0.05250 -0.15500
C 	C 	0.79360 0.71360 0.11120 0.46000
O 	O 	0.74510 0.26490 0.88680 -0.61600
O 	O 	0.82580 0.30590 0.84370 -0.58700
C 	C 	0.88260 0.30850 0.94640 0.02900
H 	H 	0.90250 0.31090 0.91050 0.02900
C 	C 	0.82490 0.29560 0.94750 -0.15300
C 	C 	0.79360 0.28640 0.88880 0.46000
O 	O 	0.11320 0.25490 0.26490 -0.61700
O 	O 	0.15630 0.17420 0.30590 -0.58700
C 	C 	0.05360 0.11740 0.30850 0.02200
H 	H 	0.08950 0.09750 0.31090 0.03000
C 	C 	0.05250 0.17510 0.29560 -0.15300
C 	C 	0.11120 0.20640 0.28640 0.45900
O 	O 	0.88680 0.25490 0.73510 -0.61600
O 	O 	0.84370 0.17420 0.69410 -0.58700
C 	C 	0.94640 0.11740 0.69150 0.02400
H 	H 	0.91050 0.09750 0.68910 0.03000
C 	C 	0.94750 0.17510 0.70440 -0.15000
C 	C 	0.88880 0.20640 0.71360 0.45900
O 	O 	0.11320 0.74510 0.73510 -0.61700
O 	O 	0.15630 0.82580 0.69410 -0.58700
C 	C 	0.05360 0.88260 0.69150 0.02700
H 	H 	0.08950 0.90250 0.68910 0.02900
C 	C 	0.05250 0.82490 0.70440 -0.15500
C 	C 	0.11120 0.79360 0.71360 0.46000
O 	O 	0.88680 0.74510 0.26490 -0.61600
O 	O 	0.84370 0.82580 0.30590 -0.58700
C 	C 	0.94640 0.88260 0.30850 0.02900
H 	H 	0.91050 0.90250 0.31090 0.02900
C 	C 	0.94750 0.82490 0.29560 -0.15300
C 	C 	0.88880 0.79360 0.28640 0.46000
O 	O 	0.61320 0.76490 0.24510 -0.61700
O 	O 	0.65630 0.80590 0.32580 -0.58700
C 	C 	0.55360 0.80850 0.38260 0.02400
H 	H 	0.58950 0.81090 0.40250 0.03000
C 	C 	0.55250 0.79560 0.32490 -0.15400
C 	C 	0.61120 0.78640 0.29360 0.46000
O 	O 	0.38680 0.23510 0.24510 -0.61700
O 	O 	0.34370 0.19410 0.32580 -0.58700
C 	C 	0.44640 0.19150 0.38260 0.02400
H 	H 	0.41050 0.18910 0.40250 0.03000
C 	C 	0.44750 0.20440 0.32490 -0.15500
C 	C 	0.38880 0.21360 0.29360 0.46000
O 	O 	0.61320 0.23510 0.75490 -0.61700
O 	O 	0.65630 0.19410 0.67420 -0.58700
C 	C 	0.55360 0.19150 0.61740 0.02400
H 	H 	0.58950 0.18910 0.59750 0.03000
C 	C 	0.55250 0.20440 0.67510 -0.15500
C 	C 	0.61120 0.21360 0.70640 0.46000
O 	O 	0.38680 0.76490 0.75490 -0.61700
O 	O 	0.34370 0.80590 0.67420 -0.58700
C 	C 	0.44640 0.80850 0.61740 0.02400
H 	H 	0.41050 0.81090 0.59750 0.03000
C 	C 	0.44750 0.79560 0.67510 -0.15400
C 	C 	0.38880 0.78640 0.70640 0.46000
O 	O 	0.76490 0.75490 0.38680 -0.61700
O 	O 	0.80590 0.67420 0.34370 -0.58700
C 	C 	0.80850 0.61740 0.44640 0.02400
H 	H 	0.81090 0.59750 0.41050 0.03000
C 	C 	0.79560 0.67510 0.44750 -0.15400
C 	C 	0.78640 0.70640 0.38880 0.46000
O 	O 	0.23510 0.75490 0.61320 -0.61700
O 	O 	0.19410 0.67420 0.65630 -0.58700
C 	C 	0.19150 0.61740 0.55360 0.02400
H 	H 	0.18910 0.59750 0.58950 0.03000
C 	C 	0.20440 0.67510 0.55250 -0.15500
C 	C 	0.21360 0.70640 0.61120 0.46000
O 	O 	0.23510 0.24510 0.38680 -0.61700
O 	O 	0.19410 0.32580 0.34370 -0.58700
C 	C 	0.19150 0.38260 0.44640 0.02400
H 	H 	0.18910 0.40250 0.41050 0.03000
C 	C 	0.20440 0.32490 0.44750 -0.15500
C 	C 	0.21360 0.29360 0.38880 0.46000
O 	O 	0.76490 0.24510 0.61320 -0.61700
O 	O 	0.80590 0.32580 0.65630 -0.58700
C 	C 	0.80850 0.38260 0.55360 0.02400
H 	H 	0.81090 0.40250 0.58950 0.03000
C 	C 	0.79560 0.32490 0.55250 -0.15400
C 	C 	0.78640 0.29360 0.61120 0.46000
O 	O 	0.75490 0.61320 0.23510 -0.61700
O 	O 	0.67420 0.65630 0.19410 -0.58700
C 	C 	0.61740 0.55360 0.19150 0.02400
H 	H 	0.59750 0.58950 0.18910 0.03000
C 	C 	0.67510 0.55250 0.20440 -0.15500
C 	C 	0.70640 0.61120 0.21360 0.46000
O 	O 	0.75490 0.38680 0.76490 -0.61700
O 	O 	0.67420 0.34370 0.80590 -0.58700
C 	C 	0.61740 0.44640 0.80850 0.02400
H 	H 	0.59750 0.41050 0.81090 0.03000
C 	C 	0.67510 0.44750 0.79560 -0.15400
C 	C 	0.70640 0.38880 0.78640 0.46000
O 	O 	0.24510 0.61320 0.76490 -0.61700
O 	O 	0.32580 0.65630 0.80590 -0.58700
C 	C 	0.38260 0.55360 0.80850 0.02400
H 	H 	0.40250 0.58950 0.81090 0.03000
C 	C 	0.32490 0.55250 0.79560 -0.15400
C 	C 	0.29360 0.61120 0.78640 0.46000
O 	O 	0.24510 0.38680 0.23510 -0.61700
O 	O 	0.32580 0.34370 0.19410 -0.58700
C 	C 	0.38260 0.44640 0.19150 0.02400
H 	H 	0.40250 0.41050 0.18910 0.03000
C 	C 	0.32490 0.44750 0.20440 -0.15500
C 	C 	0.29360 0.38880 0.21360 0.46000
O 	O 	0.73510 0.88680 0.74510 -0.61600
O 	O 	0.69410 0.84370 0.82580 -0.58700
C 	C 	0.69150 0.94640 0.88260 0.02900
H 	H 	0.68910 0.91050 0.90250 0.02900
C 	C 	0.70440 0.94750 0.82490 -0.15300
C 	C 	0.71360 0.88880 0.79360 0.46000
O 	O 	0.26490 0.11320 0.74510 -0.61700
O 	O 	0.30590 0.15630 0.82580 -0.58700
C 	C 	0.30850 0.05360 0.88260 0.02700
H 	H 	0.31090 0.08950 0.90250 0.02900
C 	C 	0.29560 0.05250 0.82490 -0.15500
C 	C 	0.28640 0.11120 0.79360 0.46000
O 	O 	0.26490 0.88680 0.25490 -0.61600
O 	O 	0.30590 0.84370 0.17420 -0.58700
C 	C 	0.30850 0.94640 0.11740 0.02400
H 	H 	0.31090 0.91050 0.09750 0.03000
C 	C 	0.29560 0.94750 0.17510 -0.15100
C 	C 	0.28640 0.88880 0.20640 0.45900
O 	O 	0.73510 0.11320 0.25490 -0.61700
O 	O 	0.69410 0.15630 0.17420 -0.58700
C 	C 	0.69150 0.05360 0.11740 0.02200
H 	H 	0.68910 0.08950 0.09750 0.03000
C 	C 	0.70440 0.05250 0.17510 -0.15300
C 	C 	0.71360 0.11120 0.20640 0.45900
O 	O 	0.74510 0.73510 0.88680 -0.61600
O 	O 	0.82580 0.69410 0.84370 -0.58700
C 	C 	0.88260 0.69150 0.94640 0.02900
H 	H 	0.90250 0.68910 0.91050 0.02900
C 	C 	0.82490 0.70440 0.94750 -0.15300
C 	C 	0.79360 0.71360 0.88880 0.46000
O 	O 	0.74510 0.26490 0.11320 -0.61700
O 	O 	0.82580 0.30590 0.15630 -0.58700
C 	C 	0.88260 0.30850 0.05360 0.02700
H 	H 	0.90250 0.31090 0.08950 0.02900
C 	C 	0.82490 0.29560 0.05250 -0.15500
C 	C 	0.79360 0.28640 0.11120 0.46000
O 	O 	0.25490 0.26490 0.88680 -0.61600
O 	O 	0.17420 0.30590 0.84370 -0.58700
C 	C 	0.11740 0.30850 0.94640 0.02400
H 	H 	0.09750 0.31090 0.91050 0.03000
C 	C 	0.17510 0.29560 0.94750 -0.15100
C 	C 	0.20640 0.28640 0.88880 0.45900
O 	O 	0.25490 0.73510 0.11320 -0.61700
O 	O 	0.17420 0.69410 0.15630 -0.58700
C 	C 	0.11740 0.69150 0.05360 0.02200
H 	H 	0.09750 0.68910 0.08950 0.03000
C 	C 	0.17510 0.70440 0.05250 -0.15300
C 	C 	0.20640 0.71360 0.11120 0.45900
O 	O 	0.88680 0.74510 0.73510 -0.61600
O 	O 	0.84370 0.82580 0.69410 -0.58700
C 	C 	0.94640 0.88260 0.69150 0.02900
H 	H 	0.91050 0.90250 0.68910 0.02900
C 	C 	0.94750 0.82490 0.70440 -0.15300
C 	C 	0.88880 0.79360 0.71360 0.46000
O 	O 	0.11320 0.74510 0.26490 -0.61700
O 	O 	0.15630 0.82580 0.30590 -0.58700
C 	C 	0.05360 0.88260 0.30850 0.02700
H 	H 	0.08950 0.90250 0.31090 0.02900
C 	C 	0.05250 0.82490 0.29560 -0.15500
C 	C 	0.11120 0.79360 0.28640 0.46000
O 	O 	0.88680 0.25490 0.26490 -0.61600
O 	O 	0.84370 0.17420 0.30590 -0.58700
C 	C 	0.94640 0.11740 0.30850 0.02400
H 	H 	0.91050 0.09750 0.31090 0.03000
C 	C 	0.94750 0.17510 0.29560 -0.15100
C 	C 	0.88880 0.20640 0.28640 0.45900
O 	O 	0.11320 0.25490 0.73510 -0.61700
O 	O 	0.15630 0.17420 0.69410 -0.58700
C 	C 	0.05360 0.11740 0.69150 0.02200
H 	H 	0.08950 0.09750 0.68910 0.03000
C 	C 	0.05250 0.17510 0.70440 -0.15300
C 	C 	0.11120 0.20640 0.71360 0.45900
O 	O 	0.38680 0.23510 0.75490 -0.61700
O 	O 	0.34370 0.19410 0.67420 -0.58700
C 	C 	0.44640 0.19150 0.61740 0.02400
H 	H 	0.41050 0.18910 0.59750 0.03000
C 	C 	0.44750 0.20440 0.67510 -0.15500
C 	C 	0.38880 0.21360 0.70640 0.46000
O 	O 	0.61320 0.76490 0.75490 -0.61700
O 	O 	0.65630 0.80590 0.67420 -0.58700
C 	C 	0.55360 0.80850 0.61740 0.02400
H 	H 	0.58950 0.81090 0.59750 0.03000
C 	C 	0.55250 0.79560 0.67510 -0.15400
C 	C 	0.61120 0.78640 0.70640 0.46000
O 	O 	0.38680 0.76490 0.24510 -0.61700
O 	O 	0.34370 0.80590 0.32580 -0.58700
C 	C 	0.44640 0.80850 0.38260 0.02400
H 	H 	0.41050 0.81090 0.40250 0.03000
C 	C 	0.44750 0.79560 0.32490 -0.15400
C 	C 	0.38880 0.78640 0.29360 0.46000
O 	O 	0.61320 0.23510 0.24510 -0.61700
O 	O 	0.65630 0.19410 0.32580 -0.58700
C 	C 	0.55360 0.19150 0.38260 0.02400
H 	H 	0.58950 0.18910 0.40250 0.03000
C 	C 	0.55250 0.20440 0.32490 -0.15500
C 	C 	0.61120 0.21360 0.29360 0.46000
O 	O 	0.23510 0.24510 0.61320 -0.61700
O 	O 	0.19410 0.32580 0.65630 -0.58700
C 	C 	0.19150 0.38260 0.55360 0.02400
H 	H 	0.18910 0.40250 0.58950 0.03000
C 	C 	0.20440 0.32490 0.55250 -0.15500
C 	C 	0.21360 0.29360 0.61120 0.46000
O 	O 	0.76490 0.24510 0.38680 -0.61700
O 	O 	0.80590 0.32580 0.34370 -0.58700
C 	C 	0.80850 0.38260 0.44640 0.02400
H 	H 	0.81090 0.40250 0.41050 0.03000
C 	C 	0.79560 0.32490 0.44750 -0.15400
C 	C 	0.78640 0.29360 0.38880 0.46000
O 	O 	0.76490 0.75490 0.61320 -0.61700
O 	O 	0.80590 0.67420 0.65630 -0.58700
C 	C 	0.80850 0.61740 0.55360 0.02400
H 	H 	0.81090 0.59750 0.58950 0.03000
C 	C 	0.79560 0.67510 0.55250 -0.15400
C 	C 	0.78640 0.70640 0.61120 0.46000
O 	O 	0.23510 0.75490 0.38680 -0.61700
O 	O 	0.19410 0.67420 0.34370 -0.58700
C 	C 	0.19150 0.61740 0.44640 0.02400
H 	H 	0.18910 0.59750 0.41050 0.03000
C 	C 	0.20440 0.67510 0.44750 -0.15500
C 	C 	0.21360 0.70640 0.38880 0.46000
O 	O 	0.24510 0.38680 0.76490 -0.61700
O 	O 	0.32580 0.34370 0.80590 -0.58700
C 	C 	0.38260 0.44640 0.80850 0.02400
H 	H 	0.40250 0.41050 0.81090 0.03000
C 	C 	0.32490 0.44750 0.79560 -0.15400
C 	C 	0.29360 0.38880 0.78640 0.46000
O 	O 	0.24510 0.61320 0.23510 -0.61700
O 	O 	0.32580 0.65630 0.19410 -0.58700
C 	C 	0.38260 0.55360 0.19150 0.02400
H 	H 	0.40250 0.58950 0.18910 0.03000
C 	C 	0.32490 0.55250 0.20440 -0.15500
C 	C 	0.29360 0.61120 0.21360 0.46000
O 	O 	0.75490 0.38680 0.23510 -0.61700
O 	O 	0.67420 0.34370 0.19410 -0.58700
C 	C 	0.61740 0.44640 0.19150 0.02400
H 	H 	0.59750 0.41050 0.18910 0.03000
C 	C 	0.67510 0.44750 0.20440 -0.15500
C 	C 	0.70640 0.38880 0.21360 0.46000
O 	O 	0.75490 0.61320 0.76490 -0.61700
O 	O 	0.67420 0.65630 0.80590 -0.58700
C 	C 	0.61740 0.55360 0.80850 0.02400
H 	H 	0.59750 0.58950 0.81090 0.03000
C 	C 	0.67510 0.55250 0.79560 -0.15400
C 	C 	0.70640 0.61120 0.78640 0.46000
In	In	0.25000 0.18633 0.31367 1.98500
In	In	0.75000 0.81367 0.31367 1.98500
In	In	0.75000 0.18633 0.68633 1.98500
In	In	0.25000 0.81367 0.68633 1.98500
In	In	0.31367 0.25000 0.18633 1.98500
In	In	0.31367 0.75000 0.81367 1.98500
In	In	0.68633 0.75000 0.18633 1.98500
In	In	0.68633 0.25000 0.81367 1.98500
In	In	0.18633 0.31367 0.25000 1.98500
In	In	0.81367 0.31367 0.75000 1.98500
In	In	0.18633 0.68633 0.75000 1.98500
In	In	0.81367 0.68633 0.25000 1.98500
In	In	0.75000 0.81367 0.68633 1.98500
In	In	0.25000 0.18633 0.68633 1.98500
In	In	0.25000 0.81367 0.31367 1.98500
In	In	0.75000 0.18633 0.31367 1.98500
In	In	0.68633 0.75000 0.81367 1.98500
In	In	0.68633 0.25000 0.18633 1.98500
In	In	0.31367 0.25000 0.81367 1.98500
In	In	0.31367 0.75000 0.18633 1.98500
In	In	0.81367 0.68633 0.75000 1.98500
In	In	0.18633 0.68633 0.25000 1.98500
In	In	0.81367 0.31367 0.25000 1.98500
In	In	0.18633 0.31367 0.75000 1.98500
O 	O 	0.25000 0.25000 0.25000 -1.03600
O 	O 	0.75000 0.75000 0.25000 -1.03600
O 	O 	0.75000 0.25000 0.75000 -1.03600
O 	O 	0.25000 0.75000 0.75000 -1.03600
O 	O 	0.75000 0.75000 0.75000 -1.03500
O 	O 	0.25000 0.25000 0.75000 -1.03600
O 	O 	0.25000 0.75000 0.25000 -1.03600
O 	O 	0.75000 0.25000 0.25000 -1.03600
C 	C 	0.31870 0.00000 0.08670 -0.02600
C 	C 	0.28650 0.00000 0.20550 0.08000
H 	H 	0.27460 0.00000 0.24480 0.01000
C 	C 	0.33070 0.00000 0.02560 -0.02500
C 	C 	0.68130 0.00000 0.08670 -0.02600
C 	C 	0.71350 0.00000 0.20550 0.08000
H 	H 	0.72540 0.00000 0.24480 0.01000
C 	C 	0.66930 0.00000 0.02560 -0.02500
C 	C 	0.68130 -0.00000 0.91330 -0.03300
C 	C 	0.71350 0.00000 0.79450 0.08300
H 	H 	0.72540 0.00000 0.75520 0.00900
C 	C 	0.66930 0.00000 0.97440 -0.01000
C 	C 	0.31870 -0.00000 0.91330 -0.03400
C 	C 	0.28650 0.00000 0.79450 0.08300
H 	H 	0.27460 0.00000 0.75520 0.00900
C 	C 	0.33070 0.00000 0.97440 -0.01000
C 	C 	0.08670 0.31870 -0.00000 -0.02600
C 	C 	0.20550 0.28650 -0.00000 0.08000
H 	H 	0.24480 0.27460 -0.00000 0.01000
C 	C 	0.02560 0.33070 -0.00000 -0.02500
C 	C 	0.08670 0.68130 -0.00000 -0.02600
C 	C 	0.20550 0.71350 -0.00000 0.08000
H 	H 	0.24480 0.72540 -0.00000 0.01000
C 	C 	0.02560 0.66930 -0.00000 -0.02500
C 	C 	0.91330 0.68130 -0.00000 -0.03300
C 	C 	0.79450 0.71350 -0.00000 0.08300
H 	H 	0.75520 0.72540 -0.00000 0.00900
C 	C 	0.97440 0.66930 -0.00000 -0.01000
C 	C 	0.91330 0.31870 -0.00000 -0.03400
C 	C 	0.79450 0.28650 -0.00000 0.08300
H 	H 	0.75520 0.27460 -0.00000 0.00900
C 	C 	0.97440 0.33070 -0.00000 -0.01000
C 	C 	-0.00000 0.08670 0.31870 -0.02600
C 	C 	0.00000 0.20550 0.28650 0.08000
H 	H 	-0.00000 0.24480 0.27460 0.01000
C 	C 	0.00000 0.02560 0.33070 -0.02500
C 	C 	0.00000 0.08670 0.68130 -0.02600
C 	C 	-0.00000 0.20550 0.71350 0.08000
H 	H 	0.00000 0.24480 0.72540 0.01000
C 	C 	0.00000 0.02560 0.66930 -0.02500
C 	C 	0.00000 0.91330 0.68130 -0.03300
C 	C 	-0.00000 0.79450 0.71350 0.08300
H 	H 	0.00000 0.75520 0.72540 0.00900
C 	C 	0.00000 0.97440 0.66930 -0.01000
C 	C 	-0.00000 0.91330 0.31870 -0.03400
C 	C 	-0.00000 0.79450 0.28650 0.08300
H 	H 	-0.00000 0.75520 0.27460 0.00900
C 	C 	0.00000 0.97440 0.33070 -0.01000
C 	C 	0.50000 0.81870 0.41330 -0.02700
C 	C 	0.50000 0.78650 0.29450 0.08600
H 	H 	0.50000 0.77460 0.25520 0.00900
C 	C 	0.50000 0.83070 0.47440 -0.01700
C 	C 	0.50000 0.18130 0.41330 -0.02700
C 	C 	0.50000 0.21350 0.29450 0.08600
H 	H 	0.50000 0.22540 0.25520 0.00900
C 	C 	0.50000 0.16930 0.47440 -0.01700
C 	C 	0.50000 0.18130 0.58670 -0.02700
C 	C 	0.50000 0.21350 0.70550 0.08600
H 	H 	0.50000 0.22540 0.74480 0.00900
C 	C 	0.50000 0.16930 0.52560 -0.01700
C 	C 	0.50000 0.81870 0.58670 -0.02700
C 	C 	0.50000 0.78650 0.70550 0.08600
H 	H 	0.50000 0.77460 0.74480 0.00900
C 	C 	0.50000 0.83070 0.52560 -0.01700
C 	C 	0.81870 0.58670 0.50000 -0.02700
C 	C 	0.78650 0.70550 0.50000 0.08600
H 	H 	0.77460 0.74480 0.50000 0.00900
C 	C 	0.83070 0.52560 0.50000 -0.01700
C 	C 	0.18130 0.58670 0.50000 -0.02700
C 	C 	0.21350 0.70550 0.50000 0.08600
H 	H 	0.22540 0.74480 0.50000 0.00900
C 	C 	0.16930 0.52560 0.50000 -0.01700
C 	C 	0.18130 0.41330 0.50000 -0.02700
C 	C 	0.21350 0.29450 0.50000 0.08600
H 	H 	0.22540 0.25520 0.50000 0.00900
C 	C 	0.16930 0.47440 0.50000 -0.01700
C 	C 	0.81870 0.41330 0.50000 -0.02700
C 	C 	0.78650 0.29450 0.50000 0.08600
H 	H 	0.77460 0.25520 0.50000 0.00900
C 	C 	0.83070 0.47440 0.50000 -0.01700
C 	C 	0.58670 0.50000 0.18130 -0.02700
C 	C 	0.70550 0.50000 0.21350 0.08600
H 	H 	0.74480 0.50000 0.22540 0.00900
C 	C 	0.52560 0.50000 0.16930 -0.01700
C 	C 	0.58670 0.50000 0.81870 -0.02700
C 	C 	0.70550 0.50000 0.78650 0.08600
H 	H 	0.74480 0.50000 0.77460 0.00900
C 	C 	0.52560 0.50000 0.83070 -0.01700
C 	C 	0.41330 0.50000 0.81870 -0.02700
C 	C 	0.29450 0.50000 0.78650 0.08600
H 	H 	0.25520 0.50000 0.77460 0.00900
C 	C 	0.47440 0.50000 0.83070 -0.01700
C 	C 	0.41330 0.50000 0.18130 -0.02700
C 	C 	0.29450 0.50000 0.21350 0.08600
H 	H 	0.25520 0.50000 0.22540 0.00900
C 	C 	0.47440 0.50000 0.16930 -0.01700
