data_crystal

_cell_length_a 11.45000
_cell_length_b 11.46700
_cell_length_c 20.94400
_cell_angle_alpha 90.00000
_cell_angle_beta  90.00000
_cell_angle_gamma 90.00000

_symmetry_space_group_name_	'P 1'
_symmetry_space_group_name_H-M	'P 1'

loop_
_symmetry_equiv_pos_as_xyz
  x,y,z

loop_
_atom_site_label
_atom_site_type_symbol
_atom_site_fract_x
_atom_site_fract_y
_atom_site_fract_z
_atom_site_charge
C 	C 	0.03930 0.74740 0.70010 0.06000
C 	C 	0.03830 0.62750 0.69720 -0.11500
C 	C 	0.74850 0.95490 0.70270 0.11100
C 	C 	0.62830 0.95550 0.70050 -0.08800
H 	H 	0.06880 0.78810 0.66550 0.01800
H 	H 	0.06420 0.58930 0.66030 0.07800
H 	H 	0.79000 0.91920 0.66900 0.00600
H 	H 	0.59030 0.92280 0.66530 0.08100
C 	C 	0.96070 0.25260 0.70010 0.10300
C 	C 	0.96170 0.37250 0.69720 -0.08600
C 	C 	0.25150 0.04510 0.70270 0.07500
C 	C 	0.37170 0.04450 0.70050 -0.13600
H 	H 	0.93120 0.21190 0.66550 0.00500
H 	H 	0.93580 0.41070 0.66030 0.08600
H 	H 	0.21000 0.08080 0.66900 -0.01100
H 	H 	0.40970 0.07720 0.66530 0.07600
C 	C 	0.96070 0.74740 0.79990 0.09500
C 	C 	0.96170 0.62750 0.80280 -0.08000
C 	C 	0.25150 0.95490 0.79730 0.11900
C 	C 	0.37170 0.95550 0.79950 -0.09600
H 	H 	0.93120 0.78810 0.83450 0.01600
H 	H 	0.93580 0.58930 0.83970 0.08400
H 	H 	0.21000 0.91920 0.83100 -0.01000
H 	H 	0.40970 0.92280 0.83470 0.08000
C 	C 	0.03930 0.25260 0.79990 0.05900
C 	C 	0.03830 0.37250 0.80280 -0.12100
C 	C 	0.74850 0.04510 0.79730 0.07300
C 	C 	0.62830 0.04450 0.79950 -0.12800
H 	H 	0.06880 0.21190 0.83450 0.00400
H 	H 	0.06420 0.41070 0.83970 0.07800
H 	H 	0.79000 0.08080 0.83100 0.00400
H 	H 	0.59030 0.07720 0.83470 0.07400
C 	C 	0.96070 0.25260 0.29990 0.10400
C 	C 	0.96170 0.37250 0.30280 -0.08500
C 	C 	0.25150 0.04510 0.29730 0.07600
C 	C 	0.37170 0.04450 0.29950 -0.13500
H 	H 	0.93120 0.21190 0.33450 0.00500
H 	H 	0.93580 0.41070 0.33970 0.08600
H 	H 	0.21000 0.08080 0.33100 -0.01100
H 	H 	0.40970 0.07720 0.33470 0.07600
C 	C 	0.03930 0.74740 0.29990 0.05900
C 	C 	0.03830 0.62750 0.30280 -0.11500
C 	C 	0.74850 0.95490 0.29730 0.11100
C 	C 	0.62830 0.95550 0.29950 -0.08800
H 	H 	0.06880 0.78810 0.33450 0.01900
H 	H 	0.06420 0.58930 0.33970 0.07800
H 	H 	0.79000 0.91920 0.33100 0.00600
H 	H 	0.59030 0.92280 0.33470 0.08100
C 	C 	0.03930 0.25260 0.20010 0.06000
C 	C 	0.03830 0.37250 0.19720 -0.12100
C 	C 	0.74850 0.04510 0.20270 0.07300
C 	C 	0.62830 0.04450 0.20050 -0.12800
H 	H 	0.06880 0.21190 0.16550 0.00600
H 	H 	0.06420 0.41070 0.16030 0.08000
H 	H 	0.79000 0.08080 0.16900 0.00500
H 	H 	0.59030 0.07720 0.16530 0.07600
C 	C 	0.96070 0.74740 0.20010 0.09600
C 	C 	0.96170 0.62750 0.19720 -0.07900
C 	C 	0.25150 0.95490 0.20270 0.12100
C 	C 	0.37170 0.95550 0.20050 -0.09500
H 	H 	0.93120 0.78810 0.16550 0.01800
H 	H 	0.93580 0.58930 0.16030 0.08600
H 	H 	0.21000 0.91920 0.16900 -0.00800
H 	H 	0.40970 0.92280 0.16530 0.08300
Au	Au	-0.00000 0.00000 0.50000 0.35400
Au	Au	-0.00000 0.00000 -0.00000 0.35900
Br	Br	0.06060 0.79633 0.50000 -0.28200
Br	Br	0.93940 0.20367 0.50000 -0.26700
Br	Br	0.93940 0.79633 -0.00000 -0.22900
Br	Br	0.06060 0.20367 -0.00000 -0.31500
Co	Co	0.00000 0.00000 0.75000 1.10300
Co	Co	-0.00000 0.00000 0.25000 1.10300
N 	N 	0.00000 0.00000 0.64930 -0.24600
C 	C 	0.00000 0.00000 0.59450 -0.01100
N 	N 	-0.00000 0.00000 0.85070 -0.24500
C 	C 	0.00000 0.00000 0.90550 -0.01700
N 	N 	-0.00000 0.00000 0.35070 -0.24600
C 	C 	-0.00000 0.00000 0.40550 -0.01100
N 	N 	-0.00000 -0.00000 0.14930 -0.24600
C 	C 	0.00000 0.00000 0.09450 -0.01000
N 	N 	-0.00000 0.81140 0.75000 -0.24200
C 	C 	-0.00000 0.56450 0.75000 0.02000
N 	N 	0.00000 0.18860 0.75000 -0.25800
C 	C 	-0.00000 0.43550 0.75000 0.02100
N 	N 	-0.00000 0.18860 0.25000 -0.25800
C 	C 	-0.00000 0.43550 0.25000 0.02200
N 	N 	-0.00000 0.81140 0.25000 -0.24200
C 	C 	0.00000 0.56450 0.25000 0.02000
N 	N 	0.81010 0.00000 0.75000 -0.24900
C 	C 	0.56440 0.00000 0.75000 0.02200
N 	N 	0.18990 0.00000 0.75000 -0.26600
C 	C 	0.43560 0.00000 0.75000 0.02700
N 	N 	0.18990 0.00000 0.25000 -0.26600
C 	C 	0.43560 0.00000 0.25000 0.02700
N 	N 	0.81010 0.00000 0.25000 -0.24900
C 	C 	0.56440 0.00000 0.25000 0.02300
