data_crystal

_cell_length_a 34.88200
_cell_length_b 34.88200
_cell_length_c 12.08600
_cell_angle_alpha 90.00000
_cell_angle_beta  90.00000
_cell_angle_gamma 90.00000

_symmetry_space_group_name_	'P 1'
_symmetry_space_group_name_H-M	'P 1'

loop_
_symmetry_equiv_pos_as_xyz
  x,y,z

loop_
_atom_site_label
_atom_site_type_symbol
_atom_site_fract_x
_atom_site_fract_y
_atom_site_fract_z
_atom_site_charge
O 	O 	0.39455 0.53941 0.42940 -0.70100
O 	O 	0.39537 0.47880 0.36810 -0.73800
O 	O 	0.07391 0.50773 0.25990 -0.71800
O 	O 	0.09060 0.55443 0.13790 -0.65400
O 	O 	0.44070 0.48970 0.54290 -1.31900
O 	O 	0.48595 0.53520 0.64050 -1.31700
C 	C 	0.37852 0.51010 0.39020 0.71500
C 	C 	0.33588 0.51221 0.37050 -0.59600
C 	C 	0.31775 0.54699 0.39080 0.67700
H 	H 	0.33220 0.56830 0.41610 -0.09900
C 	C 	0.25734 0.51930 0.33700 0.74800
C 	C 	0.31474 0.48098 0.33340 0.85000
H 	H 	0.32710 0.45720 0.31950 -0.15200
C 	C 	0.27848 0.55054 0.37400 -0.81200
H 	H 	0.26610 0.57430 0.38790 0.82100
C 	C 	0.27547 0.48451 0.31660 -1.11100
C 	C 	0.25690 0.44760 0.27600 -1.04900
F 	F 	0.23240 0.44950 0.18970 -0.10600
F 	F 	0.27950 0.41760 0.25000 -0.03900
F 	F 	0.23420 0.43280 0.35790 -0.05100
C 	C 	0.09713 0.53319 0.21830 0.54400
C 	C 	0.13833 0.52872 0.25380 -0.19700
C 	C 	0.16734 0.54226 0.18540 0.12400
H 	H 	0.16110 0.55420 0.11700 0.02600
C 	C 	0.20547 0.53838 0.21680 -0.04800
H 	H 	0.22530 0.54760 0.16990 0.14000
C 	C 	0.21462 0.52095 0.31680 -0.00500
C 	C 	0.18561 0.50741 0.38530 -0.20100
C 	C 	0.14748 0.51130 0.35380 0.20800
H 	H 	0.12770 0.50200 0.40070 0.01600
C 	C 	0.19570 0.49010 0.48470 0.88100
F 	F 	0.16700 0.48150 0.55250 -0.45500
F 	F 	0.21000 0.45280 0.46530 -0.34100
F 	F 	0.22270 0.50340 0.55030 -0.43400
H 	H 	0.26100 0.46320 0.29130 1.35300
C 	C 	0.26220 0.58780 0.39730 -0.38000
F 	F 	0.25160 0.60960 0.31950 -0.18400
F 	F 	0.22990 0.58490 0.46070 -0.20800
F 	F 	0.28230 0.61180 0.46470 -0.16900
O 	O 	0.10545 0.96059 0.42940 -0.70200
O 	O 	0.10463 0.02120 0.36810 -0.74000
O 	O 	0.42609 0.99227 0.25990 -0.71900
O 	O 	0.40940 0.94557 0.13790 -0.65500
O 	O 	0.05930 0.01030 0.54290 -1.32100
O 	O 	0.01405 0.96480 0.64050 -1.31800
C 	C 	0.12148 0.98990 0.39020 0.71600
C 	C 	0.16412 0.98779 0.37050 -0.59500
C 	C 	0.18225 0.95301 0.39080 0.67700
H 	H 	0.16780 0.93170 0.41610 -0.09900
C 	C 	0.24266 0.98070 0.33700 0.74900
C 	C 	0.18526 0.01902 0.33340 0.84900
H 	H 	0.17290 0.04280 0.31950 -0.15200
C 	C 	0.22152 0.94946 0.37400 -0.81200
H 	H 	0.23390 0.92570 0.38790 0.82100
C 	C 	0.22453 0.01549 0.31660 -1.11100
C 	C 	0.24310 0.05240 0.27600 -1.04800
F 	F 	0.26760 0.05050 0.18970 -0.10600
F 	F 	0.22050 0.08240 0.25000 -0.03900
F 	F 	0.26580 0.06720 0.35790 -0.05100
C 	C 	0.40287 0.96681 0.21830 0.54400
C 	C 	0.36167 0.97128 0.25380 -0.19600
C 	C 	0.33266 0.95774 0.18540 0.12400
H 	H 	0.33890 0.94580 0.11700 0.02600
C 	C 	0.29453 0.96162 0.21680 -0.04700
H 	H 	0.27470 0.95240 0.16990 0.14000
C 	C 	0.28538 0.97905 0.31680 -0.00600
C 	C 	0.31439 0.99259 0.38530 -0.19800
C 	C 	0.35252 0.98870 0.35380 0.20600
H 	H 	0.37230 0.99800 0.40070 0.01700
C 	C 	0.30430 0.00990 0.48470 0.87900
F 	F 	0.33300 0.01850 0.55250 -0.45500
F 	F 	0.29000 0.04720 0.46530 -0.34100
F 	F 	0.27730 0.99660 0.55030 -0.43200
H 	H 	0.23900 0.03680 0.29130 1.35200
C 	C 	0.23780 0.91220 0.39730 -0.38000
F 	F 	0.24840 0.89040 0.31950 -0.18400
F 	F 	0.27010 0.91510 0.46070 -0.20800
F 	F 	0.21770 0.88820 0.46470 -0.16900
O 	O 	0.96059 0.39455 0.92940 -0.65100
O 	O 	0.02120 0.39537 0.86810 -0.70500
O 	O 	0.99227 0.07391 0.75990 -0.69900
O 	O 	0.94557 0.09060 0.63790 -0.62400
O 	O 	0.01030 0.44070 0.04290 -1.38000
O 	O 	0.96480 0.48595 0.14050 -1.34900
C 	C 	0.98990 0.37852 0.89020 0.71500
C 	C 	0.98779 0.33588 0.87050 -0.56000
C 	C 	0.95301 0.31775 0.89080 0.66900
H 	H 	0.93170 0.33220 0.91610 -0.07200
C 	C 	0.98070 0.25734 0.83700 0.73700
C 	C 	0.01902 0.31474 0.83340 0.84100
H 	H 	0.04280 0.32710 0.81950 -0.13400
C 	C 	0.94946 0.27848 0.87400 -0.77500
H 	H 	0.92570 0.26610 0.88790 0.81700
C 	C 	0.01549 0.27547 0.81660 -1.09100
C 	C 	0.05240 0.25690 0.77600 -1.06700
F 	F 	0.05050 0.23240 0.68970 -0.07900
F 	F 	0.08240 0.27950 0.75000 -0.01000
F 	F 	0.06720 0.23420 0.85790 -0.02800
C 	C 	0.96681 0.09713 0.71830 0.54900
C 	C 	0.97128 0.13833 0.75380 -0.19700
C 	C 	0.95774 0.16734 0.68540 0.14800
H 	H 	0.94580 0.16110 0.61700 0.05400
C 	C 	0.96162 0.20547 0.71680 -0.06200
H 	H 	0.95240 0.22530 0.66990 0.16800
C 	C 	0.97905 0.21462 0.81680 0.03500
C 	C 	0.99259 0.18561 0.88530 -0.25900
C 	C 	0.98870 0.14748 0.85380 0.25400
H 	H 	0.99800 0.12770 0.90070 0.03000
C 	C 	0.00990 0.19570 0.98470 1.07000
F 	F 	0.01850 0.16700 0.05250 -0.55700
F 	F 	0.04720 0.21000 0.96530 -0.32700
F 	F 	0.99660 0.22270 0.05030 -0.53800
H 	H 	0.03680 0.26100 0.79130 1.36100
C 	C 	0.91220 0.26220 0.89730 -0.38500
F 	F 	0.89040 0.25160 0.81950 -0.15900
F 	F 	0.91510 0.22990 0.96070 -0.17100
F 	F 	0.88820 0.28230 0.96470 -0.13000
O 	O 	0.53941 0.10545 0.92940 -0.65100
O 	O 	0.47880 0.10463 0.86810 -0.70300
O 	O 	0.50773 0.42609 0.75990 -0.70000
O 	O 	0.55443 0.40940 0.63790 -0.62500
O 	O 	0.48970 0.05930 0.04290 -1.38000
O 	O 	0.53520 0.01405 0.14050 -1.34900
C 	C 	0.51010 0.12148 0.89020 0.71300
C 	C 	0.51221 0.16412 0.87050 -0.56200
C 	C 	0.54699 0.18225 0.89080 0.66900
H 	H 	0.56830 0.16780 0.91610 -0.07200
C 	C 	0.51930 0.24266 0.83700 0.73500
C 	C 	0.48098 0.18526 0.83340 0.84300
H 	H 	0.45720 0.17290 0.81950 -0.13500
C 	C 	0.55054 0.22152 0.87400 -0.77400
H 	H 	0.57430 0.23390 0.88790 0.81700
C 	C 	0.48451 0.22453 0.81660 -1.09000
C 	C 	0.44760 0.24310 0.77600 -1.06900
F 	F 	0.44950 0.26760 0.68970 -0.07800
F 	F 	0.41760 0.22050 0.75000 -0.00900
F 	F 	0.43280 0.26580 0.85790 -0.02700
C 	C 	0.53319 0.40287 0.71830 0.55000
C 	C 	0.52872 0.36167 0.75380 -0.19900
C 	C 	0.54226 0.33266 0.68540 0.14900
H 	H 	0.55420 0.33890 0.61700 0.05300
C 	C 	0.53838 0.29453 0.71680 -0.06400
H 	H 	0.54760 0.27470 0.66990 0.16800
C 	C 	0.52095 0.28538 0.81680 0.03800
C 	C 	0.50741 0.31439 0.88530 -0.26400
C 	C 	0.51130 0.35252 0.85380 0.25600
H 	H 	0.50200 0.37230 0.90070 0.02800
C 	C 	0.49010 0.30430 0.98470 1.07600
F 	F 	0.48150 0.33300 0.05250 -0.55800
F 	F 	0.45280 0.29000 0.96530 -0.32700
F 	F 	0.50340 0.27730 0.05030 -0.54000
H 	H 	0.46320 0.23900 0.79130 1.36200
C 	C 	0.58780 0.23780 0.89730 -0.38600
F 	F 	0.60960 0.24840 0.81950 -0.15900
F 	F 	0.58490 0.27010 0.96070 -0.17100
F 	F 	0.61180 0.21770 0.96470 -0.13000
O 	O 	0.60545 0.03941 0.07060 -0.74300
O 	O 	0.60463 0.97880 0.13190 -0.76000
O 	O 	0.92609 0.00773 0.24010 -0.72700
O 	O 	0.90940 0.05443 0.36210 -0.62800
O 	O 	0.55930 0.98970 0.95710 -1.25400
O 	O 	0.51405 0.03520 0.85950 -1.30000
C 	C 	0.62148 0.01010 0.10980 0.71700
C 	C 	0.66412 0.01221 0.12950 -0.61500
C 	C 	0.68225 0.04699 0.10920 0.68300
H 	H 	0.66780 0.06830 0.08390 -0.12000
C 	C 	0.74266 0.01930 0.16300 0.76000
C 	C 	0.68526 0.98098 0.16660 0.84800
H 	H 	0.67290 0.95720 0.18050 -0.15700
C 	C 	0.72152 0.05054 0.12600 -0.83700
H 	H 	0.73390 0.07430 0.11210 0.82200
C 	C 	0.72453 0.98451 0.18340 -1.11600
C 	C 	0.74310 0.94760 0.22400 -1.02200
F 	F 	0.76760 0.94950 0.31030 -0.08800
F 	F 	0.72050 0.91760 0.25000 -0.03700
F 	F 	0.76580 0.93280 0.14210 -0.06900
C 	C 	0.90287 0.03319 0.28170 0.52600
C 	C 	0.86167 0.02872 0.24620 -0.16200
C 	C 	0.83266 0.04226 0.31460 0.09400
H 	H 	0.83890 0.05420 0.38300 0.06700
C 	C 	0.79453 0.03838 0.28320 -0.00800
H 	H 	0.77470 0.04760 0.33010 0.14800
C 	C 	0.78538 0.02095 0.18320 -0.05100
C 	C 	0.81439 0.00741 0.11470 -0.12200
C 	C 	0.85252 0.01130 0.14620 0.14700
H 	H 	0.87230 0.00200 0.09930 0.01000
C 	C 	0.80430 0.99010 0.01530 0.67100
F 	F 	0.83300 0.98150 0.94750 -0.34200
F 	F 	0.79000 0.95280 0.03470 -0.35300
F 	F 	0.77730 0.00340 0.94970 -0.32100
H 	H 	0.73900 0.96320 0.20870 1.33600
C 	C 	0.73780 0.08780 0.10270 -0.37400
F 	F 	0.74840 0.10960 0.18050 -0.18100
F 	F 	0.77010 0.08490 0.03930 -0.24500
F 	F 	0.71770 0.11180 0.03530 -0.20600
O 	O 	0.89455 0.46059 0.07060 -0.74400
O 	O 	0.89537 0.52120 0.13190 -0.76000
O 	O 	0.57391 0.49227 0.24010 -0.72800
O 	O 	0.59060 0.44557 0.36210 -0.62800
O 	O 	0.94070 0.51030 0.95710 -1.25500
O 	O 	0.98595 0.46480 0.85950 -1.29800
C 	C 	0.87852 0.48990 0.10980 0.71600
C 	C 	0.83588 0.48779 0.12950 -0.61600
C 	C 	0.81775 0.45301 0.10920 0.68300
H 	H 	0.83220 0.43170 0.08390 -0.12000
C 	C 	0.75734 0.48070 0.16300 0.76000
C 	C 	0.81474 0.51902 0.16660 0.84800
H 	H 	0.82710 0.54280 0.18050 -0.15700
C 	C 	0.77848 0.44946 0.12600 -0.83700
H 	H 	0.76610 0.42570 0.11210 0.82200
C 	C 	0.77547 0.51549 0.18340 -1.11600
C 	C 	0.75690 0.55240 0.22400 -1.02200
F 	F 	0.73240 0.55050 0.31030 -0.08800
F 	F 	0.77950 0.58240 0.25000 -0.03700
F 	F 	0.73420 0.56720 0.14210 -0.06900
C 	C 	0.59713 0.46681 0.28170 0.52600
C 	C 	0.63833 0.47128 0.24620 -0.16200
C 	C 	0.66734 0.45774 0.31460 0.09400
H 	H 	0.66110 0.44580 0.38300 0.06700
C 	C 	0.70547 0.46162 0.28320 -0.00800
H 	H 	0.72530 0.45240 0.33010 0.14900
C 	C 	0.71462 0.47905 0.18320 -0.05100
C 	C 	0.68561 0.49259 0.11470 -0.12300
C 	C 	0.64748 0.48870 0.14620 0.14700
H 	H 	0.62770 0.49800 0.09930 0.01000
C 	C 	0.69570 0.50990 0.01530 0.67200
F 	F 	0.66700 0.51850 0.94750 -0.34300
F 	F 	0.71000 0.54720 0.03470 -0.35300
F 	F 	0.72270 0.49660 0.94970 -0.32000
H 	H 	0.76100 0.53680 0.20870 1.33600
C 	C 	0.76220 0.41220 0.10270 -0.37400
F 	F 	0.75160 0.39040 0.18050 -0.18100
F 	F 	0.72990 0.41510 0.03930 -0.24500
F 	F 	0.78230 0.38820 0.03530 -0.20600
O 	O 	0.03941 0.89455 0.57060 -0.69600
O 	O 	0.97880 0.89537 0.63190 -0.72200
O 	O 	0.00773 0.57391 0.74010 -0.70700
O 	O 	0.05443 0.59060 0.86210 -0.59300
O 	O 	0.98970 0.94070 0.45710 -1.32100
O 	O 	0.03520 0.98595 0.35950 -1.33300
C 	C 	0.01010 0.87852 0.60980 0.71500
C 	C 	0.01221 0.83588 0.62950 -0.58100
C 	C 	0.04699 0.81775 0.60920 0.67500
H 	H 	0.06830 0.83220 0.58390 -0.09300
C 	C 	0.01930 0.75734 0.66300 0.74400
C 	C 	0.98098 0.81474 0.66660 0.84300
H 	H 	0.95720 0.82710 0.68050 -0.13800
C 	C 	0.05054 0.77848 0.62600 -0.79800
H 	H 	0.07430 0.76610 0.61210 0.81900
C 	C 	0.98451 0.77547 0.68340 -1.09200
C 	C 	0.94760 0.75690 0.72400 -1.04400
F 	F 	0.94950 0.73240 0.81030 -0.05800
F 	F 	0.91760 0.77950 0.75000 -0.00500
F 	F 	0.93280 0.73420 0.64210 -0.04200
C 	C 	0.03319 0.59713 0.78170 0.53100
C 	C 	0.02872 0.63833 0.74620 -0.16500
C 	C 	0.04226 0.66734 0.81460 0.12100
H 	H 	0.05420 0.66110 0.88300 0.09500
C 	C 	0.03838 0.70547 0.78320 -0.02600
H 	H 	0.04760 0.72530 0.83010 0.17700
C 	C 	0.02095 0.71462 0.68320 -0.00500
C 	C 	0.00741 0.68561 0.61470 -0.19200
C 	C 	0.01130 0.64748 0.64620 0.20000
H 	H 	0.00200 0.62770 0.59930 0.02200
C 	C 	0.99010 0.69570 0.51530 0.88000
F 	F 	0.98150 0.66700 0.44750 -0.45300
F 	F 	0.95280 0.71000 0.53470 -0.33700
F 	F 	0.00340 0.72270 0.44970 -0.43300
H 	H 	0.96320 0.76100 0.70870 1.34600
C 	C 	0.08780 0.76220 0.60270 -0.38100
F 	F 	0.10960 0.75160 0.68050 -0.15600
F 	F 	0.08490 0.72990 0.53930 -0.20700
F 	F 	0.11180 0.78230 0.53530 -0.16700
O 	O 	0.46059 0.60545 0.57060 -0.69600
O 	O 	0.52120 0.60463 0.63190 -0.72300
O 	O 	0.49227 0.92609 0.74010 -0.70700
O 	O 	0.44557 0.90940 0.86210 -0.59300
O 	O 	0.51030 0.55930 0.45710 -1.32200
O 	O 	0.46480 0.51405 0.35950 -1.33300
C 	C 	0.48990 0.62148 0.60980 0.71600
C 	C 	0.48779 0.66412 0.62950 -0.58100
C 	C 	0.45301 0.68225 0.60920 0.67500
H 	H 	0.43170 0.66780 0.58390 -0.09300
C 	C 	0.48070 0.74266 0.66300 0.74600
C 	C 	0.51902 0.68526 0.66660 0.84200
H 	H 	0.54280 0.67290 0.68050 -0.13800
C 	C 	0.44946 0.72152 0.62600 -0.79800
H 	H 	0.42570 0.73390 0.61210 0.81900
C 	C 	0.51549 0.72453 0.68340 -1.09300
C 	C 	0.55240 0.74310 0.72400 -1.04300
F 	F 	0.55050 0.76760 0.81030 -0.05800
F 	F 	0.58240 0.72050 0.75000 -0.00500
F 	F 	0.56720 0.76580 0.64210 -0.04300
C 	C 	0.46681 0.90287 0.78170 0.53100
C 	C 	0.47128 0.86167 0.74620 -0.16400
C 	C 	0.45774 0.83266 0.81460 0.12000
H 	H 	0.44580 0.83890 0.88300 0.09600
C 	C 	0.46162 0.79453 0.78320 -0.02500
H 	H 	0.45240 0.77470 0.83010 0.17700
C 	C 	0.47905 0.78538 0.68320 -0.00600
C 	C 	0.49259 0.81439 0.61470 -0.19100
C 	C 	0.48870 0.85252 0.64620 0.19900
H 	H 	0.49800 0.87230 0.59930 0.02300
C 	C 	0.50990 0.80430 0.51530 0.87800
F 	F 	0.51850 0.83300 0.44750 -0.45300
F 	F 	0.54720 0.79000 0.53470 -0.33700
F 	F 	0.49660 0.77730 0.44970 -0.43300
H 	H 	0.53680 0.73900 0.70870 1.34500
C 	C 	0.41220 0.73780 0.60270 -0.38100
F 	F 	0.39040 0.74840 0.68050 -0.15600
F 	F 	0.41510 0.77010 0.53930 -0.20700
F 	F 	0.38820 0.71770 0.53530 -0.16700
O 	O 	0.60545 0.46059 0.57060 -0.69600
O 	O 	0.60463 0.52120 0.63190 -0.72300
O 	O 	0.92609 0.49227 0.74010 -0.70700
O 	O 	0.90940 0.44557 0.86210 -0.59300
O 	O 	0.55930 0.51030 0.45710 -1.32200
O 	O 	0.51405 0.46480 0.35950 -1.33300
C 	C 	0.62148 0.48990 0.60980 0.71600
C 	C 	0.66412 0.48779 0.62950 -0.58100
C 	C 	0.68225 0.45301 0.60920 0.67500
H 	H 	0.66780 0.43170 0.58390 -0.09300
C 	C 	0.74266 0.48070 0.66300 0.74600
C 	C 	0.68526 0.51902 0.66660 0.84200
H 	H 	0.67290 0.54280 0.68050 -0.13800
C 	C 	0.72152 0.44946 0.62600 -0.79800
H 	H 	0.73390 0.42570 0.61210 0.81900
C 	C 	0.72453 0.51549 0.68340 -1.09300
C 	C 	0.74310 0.55240 0.72400 -1.04300
F 	F 	0.76760 0.55050 0.81030 -0.05800
F 	F 	0.72050 0.58240 0.75000 -0.00500
F 	F 	0.76580 0.56720 0.64210 -0.04300
C 	C 	0.90287 0.46681 0.78170 0.53100
C 	C 	0.86167 0.47128 0.74620 -0.16400
C 	C 	0.83266 0.45774 0.81460 0.12000
H 	H 	0.83890 0.44580 0.88300 0.09600
C 	C 	0.79453 0.46162 0.78320 -0.02500
H 	H 	0.77470 0.45240 0.83010 0.17700
C 	C 	0.78538 0.47905 0.68320 -0.00600
C 	C 	0.81439 0.49259 0.61470 -0.19100
C 	C 	0.85252 0.48870 0.64620 0.19900
H 	H 	0.87230 0.49800 0.59930 0.02300
C 	C 	0.80430 0.50990 0.51530 0.87800
F 	F 	0.83300 0.51850 0.44750 -0.45300
F 	F 	0.79000 0.54720 0.53470 -0.33700
F 	F 	0.77730 0.49660 0.44970 -0.43300
H 	H 	0.73900 0.53680 0.70870 1.34500
C 	C 	0.73780 0.41220 0.60270 -0.38100
F 	F 	0.74840 0.39040 0.68050 -0.15600
F 	F 	0.77010 0.41510 0.53930 -0.20700
F 	F 	0.71770 0.38820 0.53530 -0.16700
O 	O 	0.89455 0.03941 0.57060 -0.69600
O 	O 	0.89537 0.97880 0.63190 -0.72200
O 	O 	0.57391 0.00773 0.74010 -0.70700
O 	O 	0.59060 0.05443 0.86210 -0.59300
O 	O 	0.94070 0.98970 0.45710 -1.32100
O 	O 	0.98595 0.03520 0.35950 -1.33300
C 	C 	0.87852 0.01010 0.60980 0.71500
C 	C 	0.83588 0.01221 0.62950 -0.58100
C 	C 	0.81775 0.04699 0.60920 0.67500
H 	H 	0.83220 0.06830 0.58390 -0.09300
C 	C 	0.75734 0.01930 0.66300 0.74400
C 	C 	0.81474 0.98098 0.66660 0.84300
H 	H 	0.82710 0.95720 0.68050 -0.13800
C 	C 	0.77848 0.05054 0.62600 -0.79800
H 	H 	0.76610 0.07430 0.61210 0.81900
C 	C 	0.77547 0.98451 0.68340 -1.09200
C 	C 	0.75690 0.94760 0.72400 -1.04400
F 	F 	0.73240 0.94950 0.81030 -0.05800
F 	F 	0.77950 0.91760 0.75000 -0.00500
F 	F 	0.73420 0.93280 0.64210 -0.04200
C 	C 	0.59713 0.03319 0.78170 0.53100
C 	C 	0.63833 0.02872 0.74620 -0.16500
C 	C 	0.66734 0.04226 0.81460 0.12100
H 	H 	0.66110 0.05420 0.88300 0.09500
C 	C 	0.70547 0.03838 0.78320 -0.02600
H 	H 	0.72530 0.04760 0.83010 0.17700
C 	C 	0.71462 0.02095 0.68320 -0.00500
C 	C 	0.68561 0.00741 0.61470 -0.19200
C 	C 	0.64748 0.01130 0.64620 0.20000
H 	H 	0.62770 0.00200 0.59930 0.02200
C 	C 	0.69570 0.99010 0.51530 0.88000
F 	F 	0.66700 0.98150 0.44750 -0.45300
F 	F 	0.71000 0.95280 0.53470 -0.33700
F 	F 	0.72270 0.00340 0.44970 -0.43300
H 	H 	0.76100 0.96320 0.70870 1.34600
C 	C 	0.76220 0.08780 0.60270 -0.38100
F 	F 	0.75160 0.10960 0.68050 -0.15600
F 	F 	0.72990 0.08490 0.53930 -0.20700
F 	F 	0.78230 0.11180 0.53530 -0.16700
O 	O 	0.03941 0.60545 0.07060 -0.74300
O 	O 	0.97880 0.60463 0.13190 -0.76000
O 	O 	0.00773 0.92609 0.24010 -0.72700
O 	O 	0.05443 0.90940 0.36210 -0.62800
O 	O 	0.98970 0.55930 0.95710 -1.25400
O 	O 	0.03520 0.51405 0.85950 -1.30000
C 	C 	0.01010 0.62148 0.10980 0.71700
C 	C 	0.01221 0.66412 0.12950 -0.61500
C 	C 	0.04699 0.68225 0.10920 0.68300
H 	H 	0.06830 0.66780 0.08390 -0.12000
C 	C 	0.01930 0.74266 0.16300 0.76000
C 	C 	0.98098 0.68526 0.16660 0.84800
H 	H 	0.95720 0.67290 0.18050 -0.15700
C 	C 	0.05054 0.72152 0.12600 -0.83700
H 	H 	0.07430 0.73390 0.11210 0.82200
C 	C 	0.98451 0.72453 0.18340 -1.11600
C 	C 	0.94760 0.74310 0.22400 -1.02200
F 	F 	0.94950 0.76760 0.31030 -0.08800
F 	F 	0.91760 0.72050 0.25000 -0.03700
F 	F 	0.93280 0.76580 0.14210 -0.06900
C 	C 	0.03319 0.90287 0.28170 0.52600
C 	C 	0.02872 0.86167 0.24620 -0.16200
C 	C 	0.04226 0.83266 0.31460 0.09400
H 	H 	0.05420 0.83890 0.38300 0.06700
C 	C 	0.03838 0.79453 0.28320 -0.00800
H 	H 	0.04760 0.77470 0.33010 0.14800
C 	C 	0.02095 0.78538 0.18320 -0.05100
C 	C 	0.00741 0.81439 0.11470 -0.12200
C 	C 	0.01130 0.85252 0.14620 0.14700
H 	H 	0.00200 0.87230 0.09930 0.01000
C 	C 	0.99010 0.80430 0.01530 0.67100
F 	F 	0.98150 0.83300 0.94750 -0.34200
F 	F 	0.95280 0.79000 0.03470 -0.35300
F 	F 	0.00340 0.77730 0.94970 -0.32100
H 	H 	0.96320 0.73900 0.20870 1.33600
C 	C 	0.08780 0.73780 0.10270 -0.37400
F 	F 	0.10960 0.74840 0.18050 -0.18100
F 	F 	0.08490 0.77010 0.03930 -0.24500
F 	F 	0.11180 0.71770 0.03530 -0.20600
O 	O 	0.46059 0.89455 0.07060 -0.74400
O 	O 	0.52120 0.89537 0.13190 -0.76000
O 	O 	0.49227 0.57391 0.24010 -0.72800
O 	O 	0.44557 0.59060 0.36210 -0.62800
O 	O 	0.51030 0.94070 0.95710 -1.25500
O 	O 	0.46480 0.98595 0.85950 -1.29800
C 	C 	0.48990 0.87852 0.10980 0.71600
C 	C 	0.48779 0.83588 0.12950 -0.61600
C 	C 	0.45301 0.81775 0.10920 0.68300
H 	H 	0.43170 0.83220 0.08390 -0.12000
C 	C 	0.48070 0.75734 0.16300 0.76000
C 	C 	0.51902 0.81474 0.16660 0.84800
H 	H 	0.54280 0.82710 0.18050 -0.15700
C 	C 	0.44946 0.77848 0.12600 -0.83700
H 	H 	0.42570 0.76610 0.11210 0.82200
C 	C 	0.51549 0.77547 0.18340 -1.11600
C 	C 	0.55240 0.75690 0.22400 -1.02200
F 	F 	0.55050 0.73240 0.31030 -0.08800
F 	F 	0.58240 0.77950 0.25000 -0.03700
F 	F 	0.56720 0.73420 0.14210 -0.06900
C 	C 	0.46681 0.59713 0.28170 0.52600
C 	C 	0.47128 0.63833 0.24620 -0.16200
C 	C 	0.45774 0.66734 0.31460 0.09400
H 	H 	0.44580 0.66110 0.38300 0.06700
C 	C 	0.46162 0.70547 0.28320 -0.00800
H 	H 	0.45240 0.72530 0.33010 0.14900
C 	C 	0.47905 0.71462 0.18320 -0.05100
C 	C 	0.49259 0.68561 0.11470 -0.12300
C 	C 	0.48870 0.64748 0.14620 0.14700
H 	H 	0.49800 0.62770 0.09930 0.01000
C 	C 	0.50990 0.69570 0.01530 0.67200
F 	F 	0.51850 0.66700 0.94750 -0.34300
F 	F 	0.54720 0.71000 0.03470 -0.35300
F 	F 	0.49660 0.72270 0.94970 -0.32000
H 	H 	0.53680 0.76100 0.20870 1.33600
C 	C 	0.41220 0.76220 0.10270 -0.37400
F 	F 	0.39040 0.75160 0.18050 -0.18100
F 	F 	0.41510 0.72990 0.03930 -0.24500
F 	F 	0.38820 0.78230 0.03530 -0.20600
O 	O 	0.39455 0.96059 0.92940 -0.65100
O 	O 	0.39537 0.02120 0.86810 -0.70500
O 	O 	0.07391 0.99227 0.75990 -0.69900
O 	O 	0.09060 0.94557 0.63790 -0.62400
O 	O 	0.44070 0.01030 0.04290 -1.38000
O 	O 	0.48595 0.96480 0.14050 -1.34900
C 	C 	0.37852 0.98990 0.89020 0.71500
C 	C 	0.33588 0.98779 0.87050 -0.56000
C 	C 	0.31775 0.95301 0.89080 0.66900
H 	H 	0.33220 0.93170 0.91610 -0.07200
C 	C 	0.25734 0.98070 0.83700 0.73700
C 	C 	0.31474 0.01902 0.83340 0.84100
H 	H 	0.32710 0.04280 0.81950 -0.13400
C 	C 	0.27848 0.94946 0.87400 -0.77500
H 	H 	0.26610 0.92570 0.88790 0.81700
C 	C 	0.27547 0.01549 0.81660 -1.09100
C 	C 	0.25690 0.05240 0.77600 -1.06700
F 	F 	0.23240 0.05050 0.68970 -0.07900
F 	F 	0.27950 0.08240 0.75000 -0.01000
F 	F 	0.23420 0.06720 0.85790 -0.02800
C 	C 	0.09713 0.96681 0.71830 0.54900
C 	C 	0.13833 0.97128 0.75380 -0.19700
C 	C 	0.16734 0.95774 0.68540 0.14800
H 	H 	0.16110 0.94580 0.61700 0.05400
C 	C 	0.20547 0.96162 0.71680 -0.06200
H 	H 	0.22530 0.95240 0.66990 0.16800
C 	C 	0.21462 0.97905 0.81680 0.03500
C 	C 	0.18561 0.99259 0.88530 -0.25900
C 	C 	0.14748 0.98870 0.85380 0.25400
H 	H 	0.12770 0.99800 0.90070 0.03000
C 	C 	0.19570 0.00990 0.98470 1.07000
F 	F 	0.16700 0.01850 0.05250 -0.55700
F 	F 	0.21000 0.04720 0.96530 -0.32700
F 	F 	0.22270 0.99660 0.05030 -0.53800
H 	H 	0.26100 0.03680 0.79130 1.36100
C 	C 	0.26220 0.91220 0.89730 -0.38500
F 	F 	0.25160 0.89040 0.81950 -0.15900
F 	F 	0.22990 0.91510 0.96070 -0.17100
F 	F 	0.28230 0.88820 0.96470 -0.13000
O 	O 	0.10545 0.53941 0.92940 -0.65100
O 	O 	0.10463 0.47880 0.86810 -0.70300
O 	O 	0.42609 0.50773 0.75990 -0.70000
O 	O 	0.40940 0.55443 0.63790 -0.62500
O 	O 	0.05930 0.48970 0.04290 -1.38000
O 	O 	0.01405 0.53520 0.14050 -1.34900
C 	C 	0.12148 0.51010 0.89020 0.71300
C 	C 	0.16412 0.51221 0.87050 -0.56200
C 	C 	0.18225 0.54699 0.89080 0.66900
H 	H 	0.16780 0.56830 0.91610 -0.07200
C 	C 	0.24266 0.51930 0.83700 0.73500
C 	C 	0.18526 0.48098 0.83340 0.84300
H 	H 	0.17290 0.45720 0.81950 -0.13500
C 	C 	0.22152 0.55054 0.87400 -0.77400
H 	H 	0.23390 0.57430 0.88790 0.81700
C 	C 	0.22453 0.48451 0.81660 -1.09000
C 	C 	0.24310 0.44760 0.77600 -1.06900
F 	F 	0.26760 0.44950 0.68970 -0.07800
F 	F 	0.22050 0.41760 0.75000 -0.00900
F 	F 	0.26580 0.43280 0.85790 -0.02700
C 	C 	0.40287 0.53319 0.71830 0.55000
C 	C 	0.36167 0.52872 0.75380 -0.19900
C 	C 	0.33266 0.54226 0.68540 0.14900
H 	H 	0.33890 0.55420 0.61700 0.05300
C 	C 	0.29453 0.53838 0.71680 -0.06400
H 	H 	0.27470 0.54760 0.66990 0.16800
C 	C 	0.28538 0.52095 0.81680 0.03800
C 	C 	0.31439 0.50741 0.88530 -0.26400
C 	C 	0.35252 0.51130 0.85380 0.25600
H 	H 	0.37230 0.50200 0.90070 0.02800
C 	C 	0.30430 0.49010 0.98470 1.07600
F 	F 	0.33300 0.48150 0.05250 -0.55800
F 	F 	0.29000 0.45280 0.96530 -0.32700
F 	F 	0.27730 0.50340 0.05030 -0.54000
H 	H 	0.23900 0.46320 0.79130 1.36200
C 	C 	0.23780 0.58780 0.89730 -0.38600
F 	F 	0.24840 0.60960 0.81950 -0.15900
F 	F 	0.27010 0.58490 0.96070 -0.17100
F 	F 	0.21770 0.61180 0.96470 -0.13000
O 	O 	0.96059 0.10545 0.42940 -0.70200
O 	O 	0.02120 0.10463 0.36810 -0.74000
O 	O 	0.99227 0.42609 0.25990 -0.71900
O 	O 	0.94557 0.40940 0.13790 -0.65500
O 	O 	0.01030 0.05930 0.54290 -1.32100
O 	O 	0.96480 0.01405 0.64050 -1.31800
C 	C 	0.98990 0.12148 0.39020 0.71600
C 	C 	0.98779 0.16412 0.37050 -0.59500
C 	C 	0.95301 0.18225 0.39080 0.67700
H 	H 	0.93170 0.16780 0.41610 -0.09900
C 	C 	0.98070 0.24266 0.33700 0.74900
C 	C 	0.01902 0.18526 0.33340 0.84900
H 	H 	0.04280 0.17290 0.31950 -0.15200
C 	C 	0.94946 0.22152 0.37400 -0.81200
H 	H 	0.92570 0.23390 0.38790 0.82100
C 	C 	0.01549 0.22453 0.31660 -1.11100
C 	C 	0.05240 0.24310 0.27600 -1.04800
F 	F 	0.05050 0.26760 0.18970 -0.10600
F 	F 	0.08240 0.22050 0.25000 -0.03900
F 	F 	0.06720 0.26580 0.35790 -0.05100
C 	C 	0.96681 0.40287 0.21830 0.54400
C 	C 	0.97128 0.36167 0.25380 -0.19600
C 	C 	0.95774 0.33266 0.18540 0.12400
H 	H 	0.94580 0.33890 0.11700 0.02600
C 	C 	0.96162 0.29453 0.21680 -0.04700
H 	H 	0.95240 0.27470 0.16990 0.14000
C 	C 	0.97905 0.28538 0.31680 -0.00600
C 	C 	0.99259 0.31439 0.38530 -0.19800
C 	C 	0.98870 0.35252 0.35380 0.20600
H 	H 	0.99800 0.37230 0.40070 0.01700
C 	C 	0.00990 0.30430 0.48470 0.87900
F 	F 	0.01850 0.33300 0.55250 -0.45500
F 	F 	0.04720 0.29000 0.46530 -0.34100
F 	F 	0.99660 0.27730 0.55030 -0.43200
H 	H 	0.03680 0.23900 0.29130 1.35200
C 	C 	0.91220 0.23780 0.39730 -0.38000
F 	F 	0.89040 0.24840 0.31950 -0.18400
F 	F 	0.91510 0.27010 0.46070 -0.20800
F 	F 	0.88820 0.21770 0.46470 -0.16900
O 	O 	0.53941 0.39455 0.42940 -0.70200
O 	O 	0.47880 0.39537 0.36810 -0.73900
O 	O 	0.50773 0.07391 0.25990 -0.71900
O 	O 	0.55443 0.09060 0.13790 -0.65500
O 	O 	0.48970 0.44070 0.54290 -1.32000
O 	O 	0.53520 0.48595 0.64050 -1.31800
C 	C 	0.51010 0.37852 0.39020 0.71500
C 	C 	0.51221 0.33588 0.37050 -0.59600
C 	C 	0.54699 0.31775 0.39080 0.67700
H 	H 	0.56830 0.33220 0.41610 -0.09900
C 	C 	0.51930 0.25734 0.33700 0.74800
C 	C 	0.48098 0.31474 0.33340 0.85000
H 	H 	0.45720 0.32710 0.31950 -0.15200
C 	C 	0.55054 0.27848 0.37400 -0.81200
H 	H 	0.57430 0.26610 0.38790 0.82100
C 	C 	0.48451 0.27547 0.31660 -1.11100
C 	C 	0.44760 0.25690 0.27600 -1.04900
F 	F 	0.44950 0.23240 0.18970 -0.10600
F 	F 	0.41760 0.27950 0.25000 -0.03900
F 	F 	0.43280 0.23420 0.35790 -0.05100
C 	C 	0.53319 0.09713 0.21830 0.54400
C 	C 	0.52872 0.13833 0.25380 -0.19700
C 	C 	0.54226 0.16734 0.18540 0.12400
H 	H 	0.55420 0.16110 0.11700 0.02600
C 	C 	0.53838 0.20547 0.21680 -0.04800
H 	H 	0.54760 0.22530 0.16990 0.14000
C 	C 	0.52095 0.21462 0.31680 -0.00500
C 	C 	0.50741 0.18561 0.38530 -0.20100
C 	C 	0.51130 0.14748 0.35380 0.20800
H 	H 	0.50200 0.12770 0.40070 0.01600
C 	C 	0.49010 0.19570 0.48470 0.88100
F 	F 	0.48150 0.16700 0.55250 -0.45500
F 	F 	0.45280 0.21000 0.46530 -0.34100
F 	F 	0.50340 0.22270 0.55030 -0.43400
H 	H 	0.46320 0.26100 0.29130 1.35300
C 	C 	0.58780 0.26220 0.39730 -0.38000
F 	F 	0.60960 0.25160 0.31950 -0.18400
F 	F 	0.58490 0.22990 0.46070 -0.20800
F 	F 	0.61180 0.28230 0.46470 -0.16900
Zr	Zr	0.45499 0.45499 0.40580 3.18100
Zr	Zr	0.47683 0.47683 0.68375 3.17900
Zr	Zr	0.04501 0.04501 0.40580 3.18100
Zr	Zr	0.02317 0.02317 0.68375 3.17900
Zr	Zr	0.04501 0.45499 0.90580 3.19100
Zr	Zr	0.02317 0.47683 0.18375 3.17800
Zr	Zr	0.45499 0.04501 0.90580 3.19100
Zr	Zr	0.47683 0.02317 0.18375 3.17800
Zr	Zr	0.54501 0.95499 0.09420 3.17200
Zr	Zr	0.52317 0.97683 0.81625 3.17800
Zr	Zr	0.95499 0.54501 0.09420 3.17200
Zr	Zr	0.97683 0.52317 0.81625 3.17800
Zr	Zr	0.95499 0.95499 0.59420 3.18300
Zr	Zr	0.97683 0.97683 0.31625 3.17700
Zr	Zr	0.54501 0.54501 0.59420 3.18300
Zr	Zr	0.52317 0.52317 0.31625 3.17700
Zr	Zr	0.45021 0.54979 0.50000 3.21500
Zr	Zr	0.04979 0.95021 0.50000 3.21600
Zr	Zr	0.95021 0.45021 -0.00000 3.20000
Zr	Zr	0.54979 0.04979 -0.00000 3.20000
Zr	Zr	0.54979 0.45021 0.50000 3.21500
Zr	Zr	0.95021 0.04979 0.50000 3.21600
Zr	Zr	0.04979 0.54979 -0.00000 3.20000
Zr	Zr	0.45021 0.95021 -0.00000 3.20000
