data_crystal

_cell_length_a 35.05300
_cell_length_b 35.05300
_cell_length_c 12.66500
_cell_angle_alpha 90.00000
_cell_angle_beta  90.00000
_cell_angle_gamma 90.00000

_symmetry_space_group_name_	'P 1'
_symmetry_space_group_name_H-M	'P 1'

loop_
_symmetry_equiv_pos_as_xyz
  x,y,z

loop_
_atom_site_label
_atom_site_type_symbol
_atom_site_fract_x
_atom_site_fract_y
_atom_site_fract_z
_atom_site_charge
O 	O 	0.51366 0.59450 0.68150 -0.68400
O 	O 	0.45753 0.60091 0.59640 -0.64300
O 	O 	0.50549 0.91408 0.78720 -0.67000
O 	O 	0.45319 0.90332 0.88800 -0.62300
O 	O 	0.52721 0.47840 0.63380 -1.28400
O 	O 	0.43891 0.48785 0.51190 -1.27600
C 	C 	0.48487 0.61329 0.65450 0.51300
C 	C 	0.48432 0.65485 0.67820 -0.10400
C 	C 	0.51254 0.67173 0.73970 -0.03200
H 	H 	0.53270 0.65670 0.76750 0.05200
C 	C 	0.48172 0.73270 0.71980 -0.04800
C 	C 	0.45482 0.67692 0.63760 -0.03600
H 	H 	0.43550 0.66540 0.59560 0.06500
C 	C 	0.51123 0.71065 0.76050 0.04600
C 	C 	0.54270 0.72720 0.82770 0.37200
H 	H 	0.56050 0.70680 0.84780 -0.06400
H 	H 	0.53180 0.73860 0.89150 -0.02100
H 	H 	0.55640 0.74680 0.78760 -0.09200
C 	C 	0.45351 0.71583 0.65840 0.03600
H 	H 	0.43330 0.73090 0.63060 -0.22100
C 	C 	0.47719 0.89330 0.82150 0.49900
C 	C 	0.47938 0.85172 0.79260 -0.10300
C 	C 	0.50514 0.83818 0.71800 -0.05800
H 	H 	0.52210 0.85530 0.68370 0.05100
C 	C 	0.50615 0.79951 0.69370 0.09600
C 	C 	0.48139 0.77440 0.74400 0.00300
C 	C 	0.45563 0.78797 0.81850 -0.06400
H 	H 	0.43870 0.77080 0.85290 0.09400
C 	C 	0.45461 0.82663 0.84280 0.02900
H 	H 	0.43700 0.83590 0.89370 0.07200
C 	C 	0.53540 0.78530 0.60960 -0.44100
H 	H 	0.56030 0.78160 0.64350 0.14600
H 	H 	0.53800 0.80360 0.55160 0.14900
H 	H 	0.52620 0.76080 0.58190 0.15200
C 	C 	0.51050 0.70960 0.76970 0.01300
H 	H 	0.52730 0.71990 0.82110 -0.19700
C 	C 	0.45510 0.71940 0.65150 0.05100
C 	C 	0.42460 0.74260 0.59710 0.42100
H 	H 	0.42860 0.76970 0.61220 -0.08400
H 	H 	0.39950 0.73480 0.62300 -0.06000
H 	H 	0.42600 0.73840 0.52070 -0.10000
O 	O 	0.98634 0.90550 0.68150 -0.68600
O 	O 	0.04247 0.89909 0.59640 -0.64400
O 	O 	0.99451 0.58592 0.78720 -0.67200
O 	O 	0.04681 0.59668 0.88800 -0.62400
O 	O 	0.97279 0.02160 0.63380 -1.28500
O 	O 	0.06109 0.01215 0.51190 -1.27600
C 	C 	0.01513 0.88671 0.65450 0.51400
C 	C 	0.01568 0.84515 0.67820 -0.10400
C 	C 	0.98746 0.82827 0.73970 -0.03500
H 	H 	0.96730 0.84330 0.76750 0.05200
C 	C 	0.01828 0.76730 0.71980 -0.04700
C 	C 	0.04518 0.82308 0.63760 -0.03600
H 	H 	0.06450 0.83460 0.59560 0.06500
C 	C 	0.98877 0.78935 0.76050 0.04500
C 	C 	0.95730 0.77280 0.82770 0.37200
H 	H 	0.93950 0.79320 0.84780 -0.06400
H 	H 	0.96820 0.76140 0.89150 -0.02200
H 	H 	0.94360 0.75320 0.78760 -0.09200
C 	C 	0.04649 0.78417 0.65840 0.03600
H 	H 	0.06670 0.76910 0.63060 -0.22100
C 	C 	0.02281 0.60670 0.82150 0.50000
C 	C 	0.02062 0.64828 0.79260 -0.10200
C 	C 	0.99486 0.66182 0.71800 -0.05900
H 	H 	0.97790 0.64470 0.68370 0.05100
C 	C 	0.99385 0.70049 0.69370 0.09500
C 	C 	0.01861 0.72560 0.74400 0.00400
C 	C 	0.04437 0.71203 0.81850 -0.06500
H 	H 	0.06130 0.72920 0.85290 0.09400
C 	C 	0.04539 0.67337 0.84280 0.02900
H 	H 	0.06300 0.66410 0.89370 0.07200
C 	C 	0.96460 0.71470 0.60960 -0.44000
H 	H 	0.93970 0.71840 0.64350 0.14600
H 	H 	0.96200 0.69640 0.55160 0.14900
H 	H 	0.97380 0.73920 0.58190 0.15100
C 	C 	0.98950 0.79040 0.76970 0.01200
H 	H 	0.97270 0.78010 0.82110 -0.19700
C 	C 	0.04490 0.78060 0.65150 0.05100
C 	C 	0.07540 0.75740 0.59710 0.42100
H 	H 	0.07140 0.73030 0.61220 -0.08400
H 	H 	0.10050 0.76520 0.62300 -0.06000
H 	H 	0.07400 0.76160 0.52070 -0.09900
O 	O 	0.90550 0.51366 0.18150 -0.72100
O 	O 	0.89909 0.45753 0.09640 -0.69600
O 	O 	0.58592 0.50549 0.28720 -0.69100
O 	O 	0.59668 0.45319 0.38800 -0.66900
O 	O 	0.02160 0.52721 0.13380 -1.31400
O 	O 	0.01215 0.43891 0.01190 -1.34700
C 	C 	0.88671 0.48487 0.15450 0.51400
C 	C 	0.84515 0.48432 0.17820 -0.14300
C 	C 	0.82827 0.51254 0.23970 -0.02500
H 	H 	0.84330 0.53270 0.26750 0.02600
C 	C 	0.76730 0.48172 0.21980 -0.04600
C 	C 	0.82308 0.45482 0.13760 -0.02800
H 	H 	0.83460 0.43550 0.09560 0.03000
C 	C 	0.78935 0.51123 0.26050 0.02400
C 	C 	0.77280 0.54270 0.32770 0.33200
H 	H 	0.79320 0.56050 0.34780 -0.08800
H 	H 	0.76140 0.53180 0.39150 -0.05600
H 	H 	0.75320 0.55640 0.28760 -0.09700
C 	C 	0.78417 0.45351 0.15840 0.01500
H 	H 	0.76910 0.43330 0.13060 -0.18900
C 	C 	0.60670 0.47719 0.32150 0.50700
C 	C 	0.64828 0.47938 0.29260 -0.14300
C 	C 	0.66182 0.50514 0.21800 -0.03400
H 	H 	0.64470 0.52210 0.18370 0.02200
C 	C 	0.70049 0.50615 0.19370 0.04400
C 	C 	0.72560 0.48139 0.24400 0.01100
C 	C 	0.71203 0.45563 0.31850 -0.09300
H 	H 	0.72920 0.43870 0.35290 0.06700
C 	C 	0.67337 0.45461 0.34280 0.03400
H 	H 	0.66410 0.43700 0.39370 0.03200
C 	C 	0.71470 0.53540 0.10960 -0.34200
H 	H 	0.71840 0.56030 0.14350 0.09400
H 	H 	0.69640 0.53800 0.05160 0.08000
H 	H 	0.73920 0.52620 0.08190 0.09400
C 	C 	0.79040 0.51050 0.26970 -0.00000
H 	H 	0.78010 0.52730 0.32110 -0.16800
C 	C 	0.78060 0.45510 0.15150 0.03100
C 	C 	0.75740 0.42460 0.09710 0.37900
H 	H 	0.73030 0.42860 0.11220 -0.09300
H 	H 	0.76520 0.39950 0.12300 -0.07800
H 	H 	0.76160 0.42600 0.02070 -0.13200
O 	O 	0.59450 0.98634 0.18150 -0.72300
O 	O 	0.60091 0.04247 0.09640 -0.69600
O 	O 	0.91408 0.99451 0.28720 -0.69300
O 	O 	0.90332 0.04681 0.38800 -0.66900
O 	O 	0.47840 0.97279 0.13380 -1.31600
O 	O 	0.48785 0.06109 0.01190 -1.34800
C 	C 	0.61329 0.01513 0.15450 0.51600
C 	C 	0.65485 0.01568 0.17820 -0.14100
C 	C 	0.67173 0.98746 0.23970 -0.02700
H 	H 	0.65670 0.96730 0.26750 0.02700
C 	C 	0.73270 0.01828 0.21980 -0.04500
C 	C 	0.67692 0.04518 0.13760 -0.02900
H 	H 	0.66540 0.06450 0.09560 0.03100
C 	C 	0.71065 0.98877 0.26050 0.02400
C 	C 	0.72720 0.95730 0.32770 0.33200
H 	H 	0.70680 0.93950 0.34780 -0.08800
H 	H 	0.73860 0.96820 0.39150 -0.05600
H 	H 	0.74680 0.94360 0.28760 -0.09700
C 	C 	0.71583 0.04649 0.15840 0.01500
H 	H 	0.73090 0.06670 0.13060 -0.19000
C 	C 	0.89330 0.02281 0.32150 0.50800
C 	C 	0.85172 0.02062 0.29260 -0.14100
C 	C 	0.83818 0.99486 0.21800 -0.03600
H 	H 	0.85530 0.97790 0.18370 0.02200
C 	C 	0.79951 0.99385 0.19370 0.04200
C 	C 	0.77440 0.01861 0.24400 0.01300
C 	C 	0.78797 0.04437 0.31850 -0.09300
H 	H 	0.77080 0.06130 0.35290 0.06700
C 	C 	0.82663 0.04539 0.34280 0.03400
H 	H 	0.83590 0.06300 0.39370 0.03200
C 	C 	0.78530 0.96460 0.10960 -0.34100
H 	H 	0.78160 0.93970 0.14350 0.09400
H 	H 	0.80360 0.96200 0.05160 0.07900
H 	H 	0.76080 0.97380 0.08190 0.09300
C 	C 	0.70960 0.98950 0.26970 -0.00100
H 	H 	0.71990 0.97270 0.32110 -0.16800
C 	C 	0.71940 0.04490 0.15150 0.03100
C 	C 	0.74260 0.07540 0.09710 0.37900
H 	H 	0.76970 0.07140 0.11220 -0.09300
H 	H 	0.73480 0.10050 0.12300 -0.07800
H 	H 	0.73840 0.07400 0.02070 -0.13200
O 	O 	0.48634 0.09450 0.81850 -0.66400
O 	O 	0.54247 0.10091 0.90360 -0.59500
O 	O 	0.49451 0.41408 0.71280 -0.67000
O 	O 	0.54681 0.40332 0.61200 -0.66000
O 	O 	0.47279 0.97840 0.86620 -1.25600
O 	O 	0.56109 0.98785 0.98810 -1.20100
C 	C 	0.51513 0.11329 0.84550 0.50500
C 	C 	0.51568 0.15485 0.82180 -0.09100
C 	C 	0.48746 0.17173 0.76030 -0.03300
H 	H 	0.46730 0.15670 0.73250 0.04300
C 	C 	0.51828 0.23270 0.78020 -0.04800
C 	C 	0.54518 0.17692 0.86240 -0.04500
H 	H 	0.56450 0.16540 0.90440 0.09400
C 	C 	0.48877 0.21065 0.73950 0.03000
C 	C 	0.45730 0.22720 0.67230 0.33200
H 	H 	0.43950 0.20680 0.65220 -0.07800
H 	H 	0.46820 0.23860 0.60850 -0.05500
H 	H 	0.44360 0.24680 0.71240 -0.08700
C 	C 	0.54649 0.21583 0.84160 0.05200
H 	H 	0.56670 0.23090 0.86940 -0.24600
C 	C 	0.52281 0.39330 0.67850 0.50600
C 	C 	0.52062 0.35172 0.70740 -0.10200
C 	C 	0.49486 0.33818 0.78200 -0.07700
H 	H 	0.47790 0.35530 0.81630 0.06900
C 	C 	0.49385 0.29951 0.80630 0.13300
C 	C 	0.51861 0.27440 0.75600 -0.01600
C 	C 	0.54437 0.28797 0.68150 -0.06100
H 	H 	0.56130 0.27080 0.64710 0.06100
C 	C 	0.54539 0.32663 0.65720 0.01400
H 	H 	0.56300 0.33590 0.60630 0.04400
C 	C 	0.46460 0.28530 0.89040 -0.52300
H 	H 	0.43970 0.28160 0.85650 0.18000
H 	H 	0.46200 0.30360 0.94840 0.21100
H 	H 	0.47380 0.26080 0.91810 0.20500
C 	C 	0.48950 0.20960 0.73030 0.01100
H 	H 	0.47270 0.21990 0.67890 -0.17200
C 	C 	0.54490 0.21940 0.84850 0.05800
C 	C 	0.57540 0.24260 0.90290 0.45400
H 	H 	0.57140 0.26970 0.88780 -0.07600
H 	H 	0.60050 0.23480 0.87700 -0.05500
H 	H 	0.57400 0.23840 0.97930 -0.06300
O 	O 	0.01366 0.40550 0.81850 -0.66300
O 	O 	0.95753 0.39909 0.90360 -0.59400
O 	O 	0.00549 0.08592 0.71280 -0.66900
O 	O 	0.95319 0.09668 0.61200 -0.66000
O 	O 	0.02721 0.52160 0.86620 -1.25500
O 	O 	0.93891 0.51215 0.98810 -1.20000
C 	C 	0.98487 0.38671 0.84550 0.50400
C 	C 	0.98432 0.34515 0.82180 -0.09200
C 	C 	0.01254 0.32827 0.76030 -0.03200
H 	H 	0.03270 0.34330 0.73250 0.04300
C 	C 	0.98172 0.26730 0.78020 -0.04900
C 	C 	0.95482 0.32308 0.86240 -0.04500
H 	H 	0.93550 0.33460 0.90440 0.09400
C 	C 	0.01123 0.28935 0.73950 0.03000
C 	C 	0.04270 0.27280 0.67230 0.33200
H 	H 	0.06050 0.29320 0.65220 -0.07800
H 	H 	0.03180 0.26140 0.60850 -0.05500
H 	H 	0.05640 0.25320 0.71240 -0.08700
C 	C 	0.95351 0.28417 0.84160 0.05200
H 	H 	0.93330 0.26910 0.86940 -0.24600
C 	C 	0.97719 0.10670 0.67850 0.50500
C 	C 	0.97938 0.14828 0.70740 -0.10300
C 	C 	0.00514 0.16182 0.78200 -0.07600
H 	H 	0.02210 0.14470 0.81630 0.06800
C 	C 	0.00615 0.20049 0.80630 0.13300
C 	C 	0.98139 0.22560 0.75600 -0.01700
C 	C 	0.95563 0.21203 0.68150 -0.06100
H 	H 	0.93870 0.22920 0.64710 0.06100
C 	C 	0.95461 0.17337 0.65720 0.01500
H 	H 	0.93700 0.16410 0.60630 0.04400
C 	C 	0.03540 0.21470 0.89040 -0.52300
H 	H 	0.06030 0.21840 0.85650 0.18000
H 	H 	0.03800 0.19640 0.94840 0.21100
H 	H 	0.02620 0.23920 0.91810 0.20500
C 	C 	0.01050 0.29040 0.73030 0.01100
H 	H 	0.02730 0.28010 0.67890 -0.17200
C 	C 	0.95510 0.28060 0.84850 0.05800
C 	C 	0.92460 0.25740 0.90290 0.45400
H 	H 	0.92860 0.23030 0.88780 -0.07600
H 	H 	0.89950 0.26520 0.87700 -0.05500
H 	H 	0.92600 0.26160 0.97930 -0.06300
O 	O 	0.09450 0.01366 0.31850 -0.69900
O 	O 	0.10091 0.95753 0.40360 -0.65100
O 	O 	0.41408 0.00549 0.21280 -0.68700
O 	O 	0.40332 0.95319 0.11200 -0.70100
O 	O 	0.97840 0.02721 0.36620 -1.29000
O 	O 	0.98785 0.93891 0.48810 -1.27800
C 	C 	0.11329 0.98487 0.34550 0.50700
C 	C 	0.15485 0.98432 0.32180 -0.13100
C 	C 	0.17173 0.01254 0.26030 -0.02200
H 	H 	0.15670 0.03270 0.23250 0.01800
C 	C 	0.23270 0.98172 0.28020 -0.04800
C 	C 	0.17692 0.95482 0.36240 -0.03700
H 	H 	0.16540 0.93550 0.40440 0.05900
C 	C 	0.21065 0.01123 0.23950 0.00900
C 	C 	0.22720 0.04270 0.17230 0.29400
H 	H 	0.20680 0.06050 0.15220 -0.10100
H 	H 	0.23860 0.03180 0.10850 -0.08800
H 	H 	0.24680 0.05640 0.21240 -0.09100
C 	C 	0.21583 0.95351 0.34160 0.03200
H 	H 	0.23090 0.93330 0.36940 -0.21400
C 	C 	0.39330 0.97719 0.17850 0.51000
C 	C 	0.35172 0.97938 0.20740 -0.14200
C 	C 	0.33818 0.00514 0.28200 -0.05300
H 	H 	0.35530 0.02210 0.31630 0.04000
C 	C 	0.29951 0.00615 0.30630 0.08300
C 	C 	0.27440 0.98139 0.25600 -0.01000
C 	C 	0.28797 0.95563 0.18150 -0.08900
H 	H 	0.27080 0.93870 0.14710 0.03400
C 	C 	0.32663 0.95461 0.15720 0.02000
H 	H 	0.33590 0.93700 0.10630 0.00500
C 	C 	0.28530 0.03540 0.39040 -0.42700
H 	H 	0.28160 0.06030 0.35650 0.13000
H 	H 	0.30360 0.03800 0.44840 0.14400
H 	H 	0.26080 0.02620 0.41810 0.14900
C 	C 	0.20960 0.01050 0.23030 -0.00100
H 	H 	0.21990 0.02730 0.17890 -0.14400
C 	C 	0.21940 0.95510 0.34850 0.03800
C 	C 	0.24260 0.92460 0.40290 0.41200
H 	H 	0.26970 0.92860 0.38780 -0.08500
H 	H 	0.23480 0.89950 0.37700 -0.07300
H 	H 	0.23840 0.92600 0.47930 -0.09500
O 	O 	0.40550 0.48634 0.31850 -0.70100
O 	O 	0.39909 0.54247 0.40360 -0.65100
O 	O 	0.08592 0.49451 0.21280 -0.68900
O 	O 	0.09668 0.54681 0.11200 -0.70100
O 	O 	0.52160 0.47279 0.36620 -1.29000
O 	O 	0.51215 0.56109 0.48810 -1.27700
C 	C 	0.38671 0.51513 0.34550 0.50900
C 	C 	0.34515 0.51568 0.32180 -0.12900
C 	C 	0.32827 0.48746 0.26030 -0.02400
H 	H 	0.34330 0.46730 0.23250 0.01800
C 	C 	0.26730 0.51828 0.28020 -0.04700
C 	C 	0.32308 0.54518 0.36240 -0.03700
H 	H 	0.33460 0.56450 0.40440 0.05900
C 	C 	0.28935 0.48877 0.23950 0.00900
C 	C 	0.27280 0.45730 0.17230 0.29300
H 	H 	0.29320 0.43950 0.15220 -0.10100
H 	H 	0.26140 0.46820 0.10850 -0.08900
H 	H 	0.25320 0.44360 0.21240 -0.09200
C 	C 	0.28417 0.54649 0.34160 0.03200
H 	H 	0.26910 0.56670 0.36940 -0.21500
C 	C 	0.10670 0.52281 0.17850 0.51100
C 	C 	0.14828 0.52062 0.20740 -0.14000
C 	C 	0.16182 0.49486 0.28200 -0.05400
H 	H 	0.14470 0.47790 0.31630 0.04000
C 	C 	0.20049 0.49385 0.30630 0.08200
C 	C 	0.22560 0.51861 0.25600 -0.00900
C 	C 	0.21203 0.54437 0.18150 -0.08900
H 	H 	0.22920 0.56130 0.14710 0.03400
C 	C 	0.17337 0.54539 0.15720 0.01900
H 	H 	0.16410 0.56300 0.10630 0.00500
C 	C 	0.21470 0.46460 0.39040 -0.42600
H 	H 	0.21840 0.43970 0.35650 0.13000
H 	H 	0.19640 0.46200 0.44840 0.14300
H 	H 	0.23920 0.47380 0.41810 0.14800
C 	C 	0.29040 0.48950 0.23030 -0.00200
H 	H 	0.28010 0.47270 0.17890 -0.14400
C 	C 	0.28060 0.54490 0.34850 0.03900
C 	C 	0.25740 0.57540 0.40290 0.41200
H 	H 	0.23030 0.57140 0.38780 -0.08500
H 	H 	0.26520 0.60050 0.37700 -0.07300
H 	H 	0.26160 0.57400 0.47930 -0.09500
O 	O 	0.48634 0.40550 0.31850 -0.70100
O 	O 	0.54247 0.39909 0.40360 -0.65100
O 	O 	0.49451 0.08592 0.21280 -0.68900
O 	O 	0.54681 0.09668 0.11200 -0.70100
O 	O 	0.47279 0.52160 0.36620 -1.29000
O 	O 	0.56109 0.51215 0.48810 -1.27700
C 	C 	0.51513 0.38671 0.34550 0.50900
C 	C 	0.51568 0.34515 0.32180 -0.12900
C 	C 	0.48746 0.32827 0.26030 -0.02400
H 	H 	0.46730 0.34330 0.23250 0.01800
C 	C 	0.51828 0.26730 0.28020 -0.04700
C 	C 	0.54518 0.32308 0.36240 -0.03700
H 	H 	0.56450 0.33460 0.40440 0.05900
C 	C 	0.48877 0.28935 0.23950 0.00900
C 	C 	0.45730 0.27280 0.17230 0.29300
H 	H 	0.43950 0.29320 0.15220 -0.10100
H 	H 	0.46820 0.26140 0.10850 -0.08900
H 	H 	0.44360 0.25320 0.21240 -0.09200
C 	C 	0.54649 0.28417 0.34160 0.03200
H 	H 	0.56670 0.26910 0.36940 -0.21500
C 	C 	0.52281 0.10670 0.17850 0.51100
C 	C 	0.52062 0.14828 0.20740 -0.14000
C 	C 	0.49486 0.16182 0.28200 -0.05400
H 	H 	0.47790 0.14470 0.31630 0.04000
C 	C 	0.49385 0.20049 0.30630 0.08200
C 	C 	0.51861 0.22560 0.25600 -0.00900
C 	C 	0.54437 0.21203 0.18150 -0.08900
H 	H 	0.56130 0.22920 0.14710 0.03400
C 	C 	0.54539 0.17337 0.15720 0.01900
H 	H 	0.56300 0.16410 0.10630 0.00500
C 	C 	0.46460 0.21470 0.39040 -0.42600
H 	H 	0.43970 0.21840 0.35650 0.13000
H 	H 	0.46200 0.19640 0.44840 0.14300
H 	H 	0.47380 0.23920 0.41810 0.14800
C 	C 	0.48950 0.29040 0.23030 -0.00200
H 	H 	0.47270 0.28010 0.17890 -0.14400
C 	C 	0.54490 0.28060 0.34850 0.03900
C 	C 	0.57540 0.25740 0.40290 0.41200
H 	H 	0.57140 0.23030 0.38780 -0.08500
H 	H 	0.60050 0.26520 0.37700 -0.07300
H 	H 	0.57400 0.26160 0.47930 -0.09500
O 	O 	0.01366 0.09450 0.31850 -0.69900
O 	O 	0.95753 0.10091 0.40360 -0.65100
O 	O 	0.00549 0.41408 0.21280 -0.68700
O 	O 	0.95319 0.40332 0.11200 -0.70100
O 	O 	0.02721 0.97840 0.36620 -1.29000
O 	O 	0.93891 0.98785 0.48810 -1.27800
C 	C 	0.98487 0.11329 0.34550 0.50700
C 	C 	0.98432 0.15485 0.32180 -0.13100
C 	C 	0.01254 0.17173 0.26030 -0.02200
H 	H 	0.03270 0.15670 0.23250 0.01800
C 	C 	0.98172 0.23270 0.28020 -0.04800
C 	C 	0.95482 0.17692 0.36240 -0.03700
H 	H 	0.93550 0.16540 0.40440 0.05900
C 	C 	0.01123 0.21065 0.23950 0.00900
C 	C 	0.04270 0.22720 0.17230 0.29400
H 	H 	0.06050 0.20680 0.15220 -0.10100
H 	H 	0.03180 0.23860 0.10850 -0.08800
H 	H 	0.05640 0.24680 0.21240 -0.09100
C 	C 	0.95351 0.21583 0.34160 0.03200
H 	H 	0.93330 0.23090 0.36940 -0.21400
C 	C 	0.97719 0.39330 0.17850 0.51000
C 	C 	0.97938 0.35172 0.20740 -0.14200
C 	C 	0.00514 0.33818 0.28200 -0.05300
H 	H 	0.02210 0.35530 0.31630 0.04000
C 	C 	0.00615 0.29951 0.30630 0.08300
C 	C 	0.98139 0.27440 0.25600 -0.01000
C 	C 	0.95563 0.28797 0.18150 -0.08900
H 	H 	0.93870 0.27080 0.14710 0.03400
C 	C 	0.95461 0.32663 0.15720 0.02000
H 	H 	0.93700 0.33590 0.10630 0.00500
C 	C 	0.03540 0.28530 0.39040 -0.42700
H 	H 	0.06030 0.28160 0.35650 0.13000
H 	H 	0.03800 0.30360 0.44840 0.14400
H 	H 	0.02620 0.26080 0.41810 0.14900
C 	C 	0.01050 0.20960 0.23030 -0.00100
H 	H 	0.02730 0.21990 0.17890 -0.14400
C 	C 	0.95510 0.21940 0.34850 0.03800
C 	C 	0.92460 0.24260 0.40290 0.41200
H 	H 	0.92860 0.26970 0.38780 -0.08500
H 	H 	0.89950 0.23480 0.37700 -0.07300
H 	H 	0.92600 0.23840 0.47930 -0.09500
O 	O 	0.09450 0.48634 0.81850 -0.66400
O 	O 	0.10091 0.54247 0.90360 -0.59500
O 	O 	0.41408 0.49451 0.71280 -0.67000
O 	O 	0.40332 0.54681 0.61200 -0.66000
O 	O 	0.97840 0.47279 0.86620 -1.25600
O 	O 	0.98785 0.56109 0.98810 -1.20100
C 	C 	0.11329 0.51513 0.84550 0.50500
C 	C 	0.15485 0.51568 0.82180 -0.09100
C 	C 	0.17173 0.48746 0.76030 -0.03300
H 	H 	0.15670 0.46730 0.73250 0.04300
C 	C 	0.23270 0.51828 0.78020 -0.04800
C 	C 	0.17692 0.54518 0.86240 -0.04500
H 	H 	0.16540 0.56450 0.90440 0.09400
C 	C 	0.21065 0.48877 0.73950 0.03000
C 	C 	0.22720 0.45730 0.67230 0.33200
H 	H 	0.20680 0.43950 0.65220 -0.07800
H 	H 	0.23860 0.46820 0.60850 -0.05500
H 	H 	0.24680 0.44360 0.71240 -0.08700
C 	C 	0.21583 0.54649 0.84160 0.05200
H 	H 	0.23090 0.56670 0.86940 -0.24600
C 	C 	0.39330 0.52281 0.67850 0.50600
C 	C 	0.35172 0.52062 0.70740 -0.10200
C 	C 	0.33818 0.49486 0.78200 -0.07700
H 	H 	0.35530 0.47790 0.81630 0.06900
C 	C 	0.29951 0.49385 0.80630 0.13300
C 	C 	0.27440 0.51861 0.75600 -0.01600
C 	C 	0.28797 0.54437 0.68150 -0.06100
H 	H 	0.27080 0.56130 0.64710 0.06100
C 	C 	0.32663 0.54539 0.65720 0.01400
H 	H 	0.33590 0.56300 0.60630 0.04400
C 	C 	0.28530 0.46460 0.89040 -0.52300
H 	H 	0.28160 0.43970 0.85650 0.18000
H 	H 	0.30360 0.46200 0.94840 0.21100
H 	H 	0.26080 0.47380 0.91810 0.20500
C 	C 	0.20960 0.48950 0.73030 0.01100
H 	H 	0.21990 0.47270 0.67890 -0.17200
C 	C 	0.21940 0.54490 0.84850 0.05800
C 	C 	0.24260 0.57540 0.90290 0.45400
H 	H 	0.26970 0.57140 0.88780 -0.07600
H 	H 	0.23480 0.60050 0.87700 -0.05500
H 	H 	0.23840 0.57400 0.97930 -0.06300
O 	O 	0.40550 0.01366 0.81850 -0.66300
O 	O 	0.39909 0.95753 0.90360 -0.59400
O 	O 	0.08592 0.00549 0.71280 -0.66900
O 	O 	0.09668 0.95319 0.61200 -0.66000
O 	O 	0.52160 0.02721 0.86620 -1.25500
O 	O 	0.51215 0.93891 0.98810 -1.20000
C 	C 	0.38671 0.98487 0.84550 0.50400
C 	C 	0.34515 0.98432 0.82180 -0.09200
C 	C 	0.32827 0.01254 0.76030 -0.03200
H 	H 	0.34330 0.03270 0.73250 0.04300
C 	C 	0.26730 0.98172 0.78020 -0.04900
C 	C 	0.32308 0.95482 0.86240 -0.04500
H 	H 	0.33460 0.93550 0.90440 0.09400
C 	C 	0.28935 0.01123 0.73950 0.03000
C 	C 	0.27280 0.04270 0.67230 0.33200
H 	H 	0.29320 0.06050 0.65220 -0.07800
H 	H 	0.26140 0.03180 0.60850 -0.05500
H 	H 	0.25320 0.05640 0.71240 -0.08700
C 	C 	0.28417 0.95351 0.84160 0.05200
H 	H 	0.26910 0.93330 0.86940 -0.24600
C 	C 	0.10670 0.97719 0.67850 0.50500
C 	C 	0.14828 0.97938 0.70740 -0.10300
C 	C 	0.16182 0.00514 0.78200 -0.07600
H 	H 	0.14470 0.02210 0.81630 0.06800
C 	C 	0.20049 0.00615 0.80630 0.13300
C 	C 	0.22560 0.98139 0.75600 -0.01700
C 	C 	0.21203 0.95563 0.68150 -0.06100
H 	H 	0.22920 0.93870 0.64710 0.06100
C 	C 	0.17337 0.95461 0.65720 0.01500
H 	H 	0.16410 0.93700 0.60630 0.04400
C 	C 	0.21470 0.03540 0.89040 -0.52300
H 	H 	0.21840 0.06030 0.85650 0.18000
H 	H 	0.19640 0.03800 0.94840 0.21100
H 	H 	0.23920 0.02620 0.91810 0.20500
C 	C 	0.29040 0.01050 0.73030 0.01100
H 	H 	0.28010 0.02730 0.67890 -0.17200
C 	C 	0.28060 0.95510 0.84850 0.05800
C 	C 	0.25740 0.92460 0.90290 0.45400
H 	H 	0.23030 0.92860 0.88780 -0.07600
H 	H 	0.26520 0.89950 0.87700 -0.05500
H 	H 	0.26160 0.92600 0.97930 -0.06300
O 	O 	0.51366 0.90550 0.18150 -0.72100
O 	O 	0.45753 0.89909 0.09640 -0.69600
O 	O 	0.50549 0.58592 0.28720 -0.69100
O 	O 	0.45319 0.59668 0.38800 -0.66900
O 	O 	0.52721 0.02160 0.13380 -1.31400
O 	O 	0.43891 0.01215 0.01190 -1.34700
C 	C 	0.48487 0.88671 0.15450 0.51400
C 	C 	0.48432 0.84515 0.17820 -0.14300
C 	C 	0.51254 0.82827 0.23970 -0.02500
H 	H 	0.53270 0.84330 0.26750 0.02600
C 	C 	0.48172 0.76730 0.21980 -0.04600
C 	C 	0.45482 0.82308 0.13760 -0.02800
H 	H 	0.43550 0.83460 0.09560 0.03000
C 	C 	0.51123 0.78935 0.26050 0.02400
C 	C 	0.54270 0.77280 0.32770 0.33200
H 	H 	0.56050 0.79320 0.34780 -0.08800
H 	H 	0.53180 0.76140 0.39150 -0.05600
H 	H 	0.55640 0.75320 0.28760 -0.09700
C 	C 	0.45351 0.78417 0.15840 0.01500
H 	H 	0.43330 0.76910 0.13060 -0.18900
C 	C 	0.47719 0.60670 0.32150 0.50700
C 	C 	0.47938 0.64828 0.29260 -0.14300
C 	C 	0.50514 0.66182 0.21800 -0.03400
H 	H 	0.52210 0.64470 0.18370 0.02200
C 	C 	0.50615 0.70049 0.19370 0.04400
C 	C 	0.48139 0.72560 0.24400 0.01100
C 	C 	0.45563 0.71203 0.31850 -0.09300
H 	H 	0.43870 0.72920 0.35290 0.06700
C 	C 	0.45461 0.67337 0.34280 0.03400
H 	H 	0.43700 0.66410 0.39370 0.03200
C 	C 	0.53540 0.71470 0.10960 -0.34200
H 	H 	0.56030 0.71840 0.14350 0.09400
H 	H 	0.53800 0.69640 0.05160 0.08000
H 	H 	0.52620 0.73920 0.08190 0.09400
C 	C 	0.51050 0.79040 0.26970 -0.00000
H 	H 	0.52730 0.78010 0.32110 -0.16800
C 	C 	0.45510 0.78060 0.15150 0.03100
C 	C 	0.42460 0.75740 0.09710 0.37900
H 	H 	0.42860 0.73030 0.11220 -0.09300
H 	H 	0.39950 0.76520 0.12300 -0.07800
H 	H 	0.42600 0.76160 0.02070 -0.13200
O 	O 	0.98634 0.59450 0.18150 -0.72300
O 	O 	0.04247 0.60091 0.09640 -0.69600
O 	O 	0.99451 0.91408 0.28720 -0.69300
O 	O 	0.04681 0.90332 0.38800 -0.66900
O 	O 	0.97279 0.47840 0.13380 -1.31600
O 	O 	0.06109 0.48785 0.01190 -1.34800
C 	C 	0.01513 0.61329 0.15450 0.51600
C 	C 	0.01568 0.65485 0.17820 -0.14100
C 	C 	0.98746 0.67173 0.23970 -0.02700
H 	H 	0.96730 0.65670 0.26750 0.02700
C 	C 	0.01828 0.73270 0.21980 -0.04500
C 	C 	0.04518 0.67692 0.13760 -0.02900
H 	H 	0.06450 0.66540 0.09560 0.03100
C 	C 	0.98877 0.71065 0.26050 0.02400
C 	C 	0.95730 0.72720 0.32770 0.33200
H 	H 	0.93950 0.70680 0.34780 -0.08800
H 	H 	0.96820 0.73860 0.39150 -0.05600
H 	H 	0.94360 0.74680 0.28760 -0.09700
C 	C 	0.04649 0.71583 0.15840 0.01500
H 	H 	0.06670 0.73090 0.13060 -0.19000
C 	C 	0.02281 0.89330 0.32150 0.50800
C 	C 	0.02062 0.85172 0.29260 -0.14100
C 	C 	0.99486 0.83818 0.21800 -0.03600
H 	H 	0.97790 0.85530 0.18370 0.02200
C 	C 	0.99385 0.79951 0.19370 0.04200
C 	C 	0.01861 0.77440 0.24400 0.01300
C 	C 	0.04437 0.78797 0.31850 -0.09300
H 	H 	0.06130 0.77080 0.35290 0.06700
C 	C 	0.04539 0.82663 0.34280 0.03400
H 	H 	0.06300 0.83590 0.39370 0.03200
C 	C 	0.96460 0.78530 0.10960 -0.34100
H 	H 	0.93970 0.78160 0.14350 0.09400
H 	H 	0.96200 0.80360 0.05160 0.07900
H 	H 	0.97380 0.76080 0.08190 0.09300
C 	C 	0.98950 0.70960 0.26970 -0.00100
H 	H 	0.97270 0.71990 0.32110 -0.16800
C 	C 	0.04490 0.71940 0.15150 0.03100
C 	C 	0.07540 0.74260 0.09710 0.37900
H 	H 	0.07140 0.76970 0.11220 -0.09300
H 	H 	0.10050 0.73480 0.12300 -0.07800
H 	H 	0.07400 0.73840 0.02070 -0.13200
O 	O 	0.90550 0.98634 0.68150 -0.68600
O 	O 	0.89909 0.04247 0.59640 -0.64400
O 	O 	0.58592 0.99451 0.78720 -0.67200
O 	O 	0.59668 0.04681 0.88800 -0.62400
O 	O 	0.02160 0.97279 0.63380 -1.28500
O 	O 	0.01215 0.06109 0.51190 -1.27600
C 	C 	0.88671 0.01513 0.65450 0.51400
C 	C 	0.84515 0.01568 0.67820 -0.10400
C 	C 	0.82827 0.98746 0.73970 -0.03500
H 	H 	0.84330 0.96730 0.76750 0.05200
C 	C 	0.76730 0.01828 0.71980 -0.04700
C 	C 	0.82308 0.04518 0.63760 -0.03600
H 	H 	0.83460 0.06450 0.59560 0.06500
C 	C 	0.78935 0.98877 0.76050 0.04500
C 	C 	0.77280 0.95730 0.82770 0.37200
H 	H 	0.79320 0.93950 0.84780 -0.06400
H 	H 	0.76140 0.96820 0.89150 -0.02200
H 	H 	0.75320 0.94360 0.78760 -0.09200
C 	C 	0.78417 0.04649 0.65840 0.03600
H 	H 	0.76910 0.06670 0.63060 -0.22100
C 	C 	0.60670 0.02281 0.82150 0.50000
C 	C 	0.64828 0.02062 0.79260 -0.10200
C 	C 	0.66182 0.99486 0.71800 -0.05900
H 	H 	0.64470 0.97790 0.68370 0.05100
C 	C 	0.70049 0.99385 0.69370 0.09500
C 	C 	0.72560 0.01861 0.74400 0.00400
C 	C 	0.71203 0.04437 0.81850 -0.06500
H 	H 	0.72920 0.06130 0.85290 0.09400
C 	C 	0.67337 0.04539 0.84280 0.02900
H 	H 	0.66410 0.06300 0.89370 0.07200
C 	C 	0.71470 0.96460 0.60960 -0.44000
H 	H 	0.71840 0.93970 0.64350 0.14600
H 	H 	0.69640 0.96200 0.55160 0.14900
H 	H 	0.73920 0.97380 0.58190 0.15100
C 	C 	0.79040 0.98950 0.76970 0.01200
H 	H 	0.78010 0.97270 0.82110 -0.19700
C 	C 	0.78060 0.04490 0.65150 0.05100
C 	C 	0.75740 0.07540 0.59710 0.42100
H 	H 	0.73030 0.07140 0.61220 -0.08400
H 	H 	0.76520 0.10050 0.62300 -0.06000
H 	H 	0.76160 0.07400 0.52070 -0.09900
O 	O 	0.59450 0.51366 0.68150 -0.68500
O 	O 	0.60091 0.45753 0.59640 -0.64400
O 	O 	0.91408 0.50549 0.78720 -0.67100
O 	O 	0.90332 0.45319 0.88800 -0.62400
O 	O 	0.47840 0.52721 0.63380 -1.28500
O 	O 	0.48785 0.43891 0.51190 -1.27700
C 	C 	0.61329 0.48487 0.65450 0.51200
C 	C 	0.65485 0.48432 0.67820 -0.10500
C 	C 	0.67173 0.51254 0.73970 -0.03300
H 	H 	0.65670 0.53270 0.76750 0.05200
C 	C 	0.73270 0.48172 0.71980 -0.04800
C 	C 	0.67692 0.45482 0.63760 -0.03600
H 	H 	0.66540 0.43550 0.59560 0.06500
C 	C 	0.71065 0.51123 0.76050 0.04600
C 	C 	0.72720 0.54270 0.82770 0.37200
H 	H 	0.70680 0.56050 0.84780 -0.06400
H 	H 	0.73860 0.53180 0.89150 -0.02100
H 	H 	0.74680 0.55640 0.78760 -0.09200
C 	C 	0.71583 0.45351 0.65840 0.03600
H 	H 	0.73090 0.43330 0.63060 -0.22100
C 	C 	0.89330 0.47719 0.82150 0.49900
C 	C 	0.85172 0.47938 0.79260 -0.10300
C 	C 	0.83818 0.50514 0.71800 -0.05800
H 	H 	0.85530 0.52210 0.68370 0.05100
C 	C 	0.79951 0.50615 0.69370 0.09600
C 	C 	0.77440 0.48139 0.74400 0.00300
C 	C 	0.78797 0.45563 0.81850 -0.06400
H 	H 	0.77080 0.43870 0.85290 0.09400
C 	C 	0.82663 0.45461 0.84280 0.02900
H 	H 	0.83590 0.43700 0.89370 0.07200
C 	C 	0.78530 0.53540 0.60960 -0.44100
H 	H 	0.78160 0.56030 0.64350 0.14600
H 	H 	0.80360 0.53800 0.55160 0.14900
H 	H 	0.76080 0.52620 0.58190 0.15200
C 	C 	0.70960 0.51050 0.76970 0.01300
H 	H 	0.71990 0.52730 0.82110 -0.19700
C 	C 	0.71940 0.45510 0.65150 0.05100
C 	C 	0.74260 0.42460 0.59710 0.42100
H 	H 	0.76970 0.42860 0.61220 -0.08400
H 	H 	0.73480 0.39950 0.62300 -0.06000
H 	H 	0.73840 0.42600 0.52070 -0.10000
Zr	Zr	0.53803 0.53803 0.62839 3.19600
Zr	Zr	0.46786 0.46786 0.65183 3.19700
O 	O 	0.52885 0.52885 0.79910 -0.64300
O 	O 	0.48391 0.48391 0.81330 -0.63700
C 	C 	0.50731 0.50731 0.85350 0.46800
C 	C 	0.51034 0.51034 0.96690 0.13500
H 	H 	0.52810 0.52810 0.99540 0.06500
Zr	Zr	0.96197 0.96197 0.62839 3.19600
Zr	Zr	0.03214 0.03214 0.65183 3.19700
O 	O 	0.97115 0.97115 0.79910 -0.64300
O 	O 	0.01609 0.01609 0.81330 -0.63600
C 	C 	0.99269 0.99269 0.85350 0.46800
C 	C 	0.98966 0.98966 0.96690 0.12900
H 	H 	0.97190 0.97190 0.99540 0.06700
Zr	Zr	0.96197 0.53803 0.12839 3.18600
Zr	Zr	0.03214 0.46786 0.15183 3.19700
O 	O 	0.97115 0.52885 0.29910 -0.68800
O 	O 	0.01609 0.48391 0.31330 -0.68700
C 	C 	0.99269 0.50731 0.35350 0.56500
C 	C 	0.98966 0.51034 0.46690 -0.18200
H 	H 	0.97190 0.52810 0.49540 0.11600
Zr	Zr	0.53803 0.96197 0.12839 3.18600
Zr	Zr	0.46786 0.03214 0.15183 3.19700
O 	O 	0.52885 0.97115 0.29910 -0.68800
O 	O 	0.48391 0.01609 0.31330 -0.68700
C 	C 	0.50731 0.99269 0.35350 0.56500
C 	C 	0.51034 0.98966 0.46690 -0.18200
H 	H 	0.52810 0.97190 0.49540 0.11600
Zr	Zr	0.46197 0.03803 0.87161 3.20700
Zr	Zr	0.53214 0.96786 0.84817 3.19700
O 	O 	0.47115 0.02885 0.70090 -0.67900
O 	O 	0.51609 0.98391 0.68670 -0.68800
C 	C 	0.49269 0.00731 0.64650 0.56100
C 	C 	0.48966 0.01034 0.53310 -0.17300
H 	H 	0.47190 0.02810 0.50460 0.11300
Zr	Zr	0.03803 0.46197 0.87161 3.20700
Zr	Zr	0.96786 0.53214 0.84817 3.19700
O 	O 	0.02885 0.47115 0.70090 -0.67900
O 	O 	0.98391 0.51609 0.68670 -0.68800
C 	C 	0.00731 0.49269 0.64650 0.56100
C 	C 	0.01034 0.48966 0.53310 -0.17300
H 	H 	0.02810 0.47190 0.50460 0.11300
Zr	Zr	0.03803 0.03803 0.37161 3.19600
Zr	Zr	0.96786 0.96786 0.34817 3.19700
O 	O 	0.02885 0.02885 0.20090 -0.72400
O 	O 	0.98391 0.98391 0.18670 -0.74200
C 	C 	0.00731 0.00731 0.14650 0.66000
C 	C 	0.01034 0.01034 0.03310 -0.48400
H 	H 	0.02810 0.02810 0.00460 0.16300
Zr	Zr	0.46197 0.46197 0.37161 3.19600
Zr	Zr	0.53214 0.53214 0.34817 3.19700
O 	O 	0.47115 0.47115 0.20090 -0.72400
O 	O 	0.51609 0.51609 0.18670 -0.73900
C 	C 	0.49269 0.49269 0.14650 0.65800
C 	C 	0.48966 0.48966 0.03310 -0.49000
H 	H 	0.47190 0.47190 0.00460 0.16400
Zr	Zr	0.54969 0.45031 0.50000 3.21600
Zr	Zr	0.95031 0.04969 0.50000 3.21600
Zr	Zr	0.04969 0.54969 -0.00000 3.19800
Zr	Zr	0.45031 0.95031 -0.00000 3.19800
Zr	Zr	0.45031 0.54969 0.50000 3.21600
Zr	Zr	0.04969 0.95031 0.50000 3.21600
Zr	Zr	0.95031 0.45031 -0.00000 3.19800
Zr	Zr	0.54969 0.04969 -0.00000 3.19800
