data_crystal

_cell_length_a 10.00000
_cell_length_b 10.00000
_cell_length_c 10.00000
_cell_angle_alpha 90.00000
_cell_angle_beta  90.00000
_cell_angle_gamma 90.00000

_symmetry_space_group_name_	'P 1'
_symmetry_space_group_name_H-M	'P 1'

loop_
_symmetry_equiv_pos_as_xyz
  x,y,z

loop_
_atom_site_label
_atom_site_type_symbol
_atom_site_fract_x
_atom_site_fract_y
_atom_site_fract_z
_atom_site_charge
O 	O 	0.58270 0.89090 0.63260 -1.76300
O 	O 	0.65880 0.94130 0.57340 -0.47600
C 	C 	0.63210 0.90600 0.62900 -0.73900
C 	C 	0.68120 0.87070 0.66060 3.69300
C 	C 	0.74080 0.87740 0.65310 1.63300
H 	H 	0.75570 0.90700 0.62380 -2.49900
C 	C 	0.77850 0.84080 0.68860 0.25300
H 	H 	0.81920 0.84540 0.68340 1.00900
C 	C 	0.75670 0.79740 0.73160 -3.39300
C 	C 	0.69720 0.79060 0.73910 0.12400
H 	H 	0.68230 0.76100 0.76850 1.31700
C 	C 	0.65940 0.82720 0.70370 1.29700
H 	H 	0.61870 0.82250 0.70890 -1.95200
O 	O 	0.41730 0.10910 0.63260 -2.24400
O 	O 	0.34120 0.05870 0.57340 -0.03000
C 	C 	0.36790 0.09400 0.62900 -0.74600
C 	C 	0.31880 0.12930 0.66060 3.93700
C 	C 	0.25920 0.12260 0.65310 1.76100
H 	H 	0.24430 0.09300 0.62380 -2.66600
C 	C 	0.22150 0.15920 0.68860 0.30100
H 	H 	0.18080 0.15460 0.68340 1.17700
C 	C 	0.24330 0.20260 0.73160 -3.62900
C 	C 	0.30280 0.20940 0.73910 0.10200
H 	H 	0.31770 0.23900 0.76850 1.42400
C 	C 	0.34060 0.17280 0.70370 1.34800
H 	H 	0.38130 0.17750 0.70890 -2.00500
O 	O 	0.10910 0.58270 0.13260 -2.06200
O 	O 	0.05870 0.65880 0.07340 -0.07700
C 	C 	0.09400 0.63210 0.12900 -0.78700
C 	C 	0.12930 0.68120 0.16060 3.78300
C 	C 	0.12260 0.74080 0.15310 1.69000
H 	H 	0.09300 0.75570 0.12380 -2.56800
C 	C 	0.15920 0.77850 0.18860 0.28300
H 	H 	0.15460 0.81920 0.18340 1.05600
C 	C 	0.20260 0.75670 0.23160 -3.43800
C 	C 	0.20940 0.69720 0.23910 0.13300
H 	H 	0.23900 0.68230 0.26850 1.32900
C 	C 	0.17280 0.65940 0.20370 1.32100
H 	H 	0.17750 0.61870 0.20890 -1.96200
O 	O 	0.89090 0.41730 0.13260 -1.85600
O 	O 	0.94130 0.34120 0.07340 -0.41300
C 	C 	0.90600 0.36790 0.12900 -0.71000
C 	C 	0.87070 0.31880 0.16060 3.75200
C 	C 	0.87740 0.25920 0.15310 1.66600
H 	H 	0.90700 0.24430 0.12380 -2.53300
C 	C 	0.84080 0.22150 0.18860 0.26700
H 	H 	0.84540 0.18080 0.18340 1.10000
C 	C 	0.79740 0.24330 0.23160 -3.49900
C 	C 	0.79060 0.30280 0.23910 0.09200
H 	H 	0.76100 0.31770 0.26850 1.37500
C 	C 	0.82720 0.34060 0.20370 1.29400
H 	H 	0.82250 0.38130 0.20890 -1.95300
O 	O 	0.41730 0.89090 0.36740 -1.81100
O 	O 	0.34120 0.94130 0.42660 -0.47600
C 	C 	0.36790 0.90600 0.37100 -0.71800
C 	C 	0.31880 0.87070 0.33940 3.74900
C 	C 	0.25920 0.87740 0.34690 1.67000
H 	H 	0.24430 0.90700 0.37620 -2.52800
C 	C 	0.22150 0.84080 0.31140 0.27200
H 	H 	0.18080 0.84540 0.31660 1.08900
C 	C 	0.24330 0.79740 0.26840 -3.48900
C 	C 	0.30280 0.79060 0.26090 0.09700
H 	H 	0.31770 0.76100 0.23150 1.36900
C 	C 	0.34060 0.82720 0.29630 1.29600
H 	H 	0.38130 0.82250 0.29110 -1.96200
O 	O 	0.58270 0.10910 0.36740 -2.12200
O 	O 	0.65880 0.05870 0.42660 -0.00300
C 	C 	0.63210 0.09400 0.37100 -0.79300
C 	C 	0.68120 0.12930 0.33940 3.77800
C 	C 	0.74080 0.12260 0.34690 1.69300
H 	H 	0.75570 0.09300 0.37620 -2.57200
C 	C 	0.77850 0.15920 0.31140 0.28800
H 	H 	0.81920 0.15460 0.31660 1.05600
C 	C 	0.75670 0.20260 0.26840 -3.43000
C 	C 	0.69720 0.20940 0.26090 0.13800
H 	H 	0.68230 0.23900 0.23150 1.32000
C 	C 	0.65940 0.17280 0.29630 1.32300
H 	H 	0.61870 0.17750 0.29110 -1.95000
O 	O 	0.89090 0.58270 0.86740 -1.71500
O 	O 	0.94130 0.65880 0.92660 -0.54600
C 	C 	0.90600 0.63210 0.87100 -0.75000
C 	C 	0.87070 0.68120 0.83940 3.68500
C 	C 	0.87740 0.74080 0.84690 1.63900
H 	H 	0.90700 0.75570 0.87620 -2.49100
C 	C 	0.84080 0.77850 0.81140 0.26300
H 	H 	0.84540 0.81920 0.81660 0.99400
C 	C 	0.79740 0.75670 0.76840 -3.37700
C 	C 	0.79060 0.69720 0.76090 0.13200
H 	H 	0.76100 0.68230 0.73150 1.30900
C 	C 	0.82720 0.65940 0.79630 1.30100
H 	H 	0.82250 0.61870 0.79110 -1.96100
O 	O 	0.10910 0.41730 0.86740 -2.32300
O 	O 	0.05870 0.34120 0.92660 0.07000
C 	C 	0.09400 0.36790 0.87100 -0.75000
C 	C 	0.12930 0.31880 0.83940 3.93400
C 	C 	0.12260 0.25920 0.84690 1.76200
H 	H 	0.09300 0.24430 0.87620 -2.67500
C 	C 	0.15920 0.22150 0.81140 0.30300
H 	H 	0.15460 0.18080 0.81660 1.18100
C 	C 	0.20260 0.24330 0.76840 -3.62300
C 	C 	0.20940 0.30280 0.76090 0.10700
H 	H 	0.23900 0.31770 0.73150 1.41300
C 	C 	0.17280 0.34060 0.79630 1.35000
H 	H 	0.17750 0.38130 0.79110 -1.99100
O 	O 	0.41730 0.10910 0.36740 -2.21600
O 	O 	0.34120 0.05870 0.42660 -0.02100
C 	C 	0.36790 0.09400 0.37100 -0.75600
C 	C 	0.31880 0.12930 0.33940 3.89700
C 	C 	0.25920 0.12260 0.34690 1.74800
H 	H 	0.24430 0.09300 0.37620 -2.64200
C 	C 	0.22150 0.15920 0.31140 0.30300
H 	H 	0.18080 0.15460 0.31660 1.15900
C 	C 	0.24330 0.20260 0.26840 -3.58900
C 	C 	0.30280 0.20940 0.26090 0.10600
H 	H 	0.31770 0.23900 0.23150 1.40100
C 	C 	0.34060 0.17280 0.29630 1.33800
H 	H 	0.38130 0.17750 0.29110 -1.98800
O 	O 	0.58270 0.89090 0.36740 -1.71700
O 	O 	0.65880 0.94130 0.42660 -0.45800
C 	C 	0.63210 0.90600 0.37100 -0.75500
C 	C 	0.68120 0.87070 0.33940 3.63000
C 	C 	0.74080 0.87740 0.34690 1.61400
H 	H 	0.75570 0.90700 0.37620 -2.45900
C 	C 	0.77850 0.84080 0.31140 0.25700
H 	H 	0.81920 0.84540 0.31660 0.98600
C 	C 	0.75670 0.79740 0.26840 -3.33100
C 	C 	0.69720 0.79060 0.26090 0.12900
H 	H 	0.68230 0.76100 0.23150 1.28900
C 	C 	0.65940 0.82720 0.29630 1.28200
H 	H 	0.61870 0.82250 0.29110 -1.92400
O 	O 	0.89090 0.41730 0.86740 -1.81000
O 	O 	0.94130 0.34120 0.92660 -0.56300
C 	C 	0.90600 0.36790 0.87100 -0.71300
C 	C 	0.87070 0.31880 0.83940 3.80500
C 	C 	0.87740 0.25920 0.84690 1.69500
H 	H 	0.90700 0.24430 0.87620 -2.56000
C 	C 	0.84080 0.22150 0.81140 0.27900
H 	H 	0.84540 0.18080 0.81660 1.09700
C 	C 	0.79740 0.24330 0.76840 -3.53600
C 	C 	0.79060 0.30280 0.76090 0.10000
H 	H 	0.76100 0.31770 0.73150 1.39200
C 	C 	0.82720 0.34060 0.79630 1.31600
H 	H 	0.82250 0.38130 0.79110 -1.99900
O 	O 	0.10910 0.58270 0.86740 -2.22800
O 	O 	0.05870 0.65880 0.92660 0.08700
C 	C 	0.09400 0.63210 0.87100 -0.78700
C 	C 	0.12930 0.68120 0.83940 3.81500
C 	C 	0.12260 0.74080 0.84690 1.70600
H 	H 	0.09300 0.75570 0.87620 -2.60500
C 	C 	0.15920 0.77850 0.81140 0.28800
H 	H 	0.15460 0.81920 0.81660 1.07700
C 	C 	0.20260 0.75670 0.76840 -3.46400
C 	C 	0.20940 0.69720 0.76090 0.13900
H 	H 	0.23900 0.68230 0.73150 1.33000
C 	C 	0.17280 0.65940 0.79630 1.33500
H 	H 	0.17750 0.61870 0.79110 -1.95300
O 	O 	0.58270 0.10910 0.63260 -2.16700
O 	O 	0.65880 0.05870 0.57340 -0.02000
C 	C 	0.63210 0.09400 0.62900 -0.77600
C 	C 	0.68120 0.12930 0.66060 3.84200
C 	C 	0.74080 0.12260 0.65310 1.71200
H 	H 	0.75570 0.09300 0.62380 -2.61200
C 	C 	0.77850 0.15920 0.68860 0.28300
H 	H 	0.81920 0.15460 0.68340 1.08000
C 	C 	0.75670 0.20260 0.73160 -3.49300
C 	C 	0.69720 0.20940 0.73910 0.13300
H 	H 	0.68230 0.23900 0.76850 1.34900
C 	C 	0.65940 0.17280 0.70370 1.33900
H 	H 	0.61870 0.17750 0.70890 -1.97800
O 	O 	0.41730 0.89090 0.63260 -1.83900
O 	O 	0.34120 0.94130 0.57340 -0.48500
C 	C 	0.36790 0.90600 0.62900 -0.70700
C 	C 	0.31880 0.87070 0.66060 3.78900
C 	C 	0.25920 0.87740 0.65310 1.68200
H 	H 	0.24430 0.90700 0.62380 -2.55200
C 	C 	0.22150 0.84080 0.68860 0.27100
H 	H 	0.18080 0.84540 0.68340 1.10600
C 	C 	0.24330 0.79740 0.73160 -3.53000
C 	C 	0.30280 0.79060 0.73910 0.09300
H 	H 	0.31770 0.76100 0.76850 1.39300
C 	C 	0.34060 0.82720 0.70370 1.30600
H 	H 	0.38130 0.82250 0.70890 -1.97900
O 	O 	0.10910 0.41730 0.13260 -2.15700
O 	O 	0.05870 0.34120 0.07340 -0.09400
C 	C 	0.09400 0.36790 0.12900 -0.74900
C 	C 	0.12930 0.31880 0.16060 3.90300
C 	C 	0.12260 0.25920 0.15310 1.74500
H 	H 	0.09300 0.24430 0.12380 -2.63800
C 	C 	0.15920 0.22150 0.18860 0.29800
H 	H 	0.15460 0.18080 0.18340 1.15900
C 	C 	0.20260 0.24330 0.23160 -3.59700
C 	C 	0.20940 0.30280 0.23910 0.10000
H 	H 	0.23900 0.31770 0.26850 1.41200
C 	C 	0.17280 0.34060 0.20370 1.33600
H 	H 	0.17750 0.38130 0.20890 -2.00000
O 	O 	0.89090 0.58270 0.13260 -1.76100
O 	O 	0.94130 0.65880 0.07340 -0.39700
C 	C 	0.90600 0.63210 0.12900 -0.74700
C 	C 	0.87070 0.68120 0.16060 3.63300
C 	C 	0.87740 0.74080 0.15310 1.61000
H 	H 	0.90700 0.75570 0.12380 -2.46400
C 	C 	0.84080 0.77850 0.18860 0.25100
H 	H 	0.84540 0.81920 0.18340 0.99700
C 	C 	0.79740 0.75670 0.23160 -3.34000
C 	C 	0.79060 0.69720 0.23910 0.12400
H 	H 	0.76100 0.68230 0.26850 1.29200
C 	C 	0.82720 0.65940 0.20370 1.27900
H 	H 	0.82250 0.61870 0.20890 -1.91400
Zr	Zr	0.50000 0.92371 0.59281 4.03000
O 	O 	0.50000 0.95020 0.70370 0.49800
O 	O 	0.50000 0.82470 0.58140 0.13600
C 	C 	0.50000 0.05211 0.85190 -0.04100
H 	H 	0.50000 0.08780 0.82710 0.51000
C 	C 	0.50000 0.05213 0.92440 0.13700
H 	H 	0.50000 0.08780 0.94920 -0.18800
Zr	Zr	0.50000 0.07629 0.59281 4.05300
O 	O 	0.50000 0.04980 0.70370 1.39400
O 	O 	0.50000 0.17530 0.58140 0.27600
C 	C 	0.50000 0.94789 0.85190 0.26000
H 	H 	0.50000 0.91220 0.82710 0.28300
C 	C 	0.50000 0.94787 0.92440 0.45600
H 	H 	0.50000 0.91220 0.94920 -0.51200
Zr	Zr	0.07629 0.50000 0.09281 4.05400
O 	O 	0.04980 0.50000 0.20370 1.31000
O 	O 	0.17530 0.50000 0.08140 0.21800
C 	C 	0.94789 0.50000 0.35190 0.24600
H 	H 	0.91220 0.50000 0.32710 0.28200
C 	C 	0.94787 0.50000 0.42440 0.44800
H 	H 	0.91220 0.50000 0.44920 -0.50200
Zr	Zr	0.92371 0.50000 0.09281 4.03300
O 	O 	0.95020 0.50000 0.20370 0.54900
O 	O 	0.82470 0.50000 0.08140 0.13400
C 	C 	0.05211 0.50000 0.35190 -0.04600
H 	H 	0.08780 0.50000 0.32710 0.51900
C 	C 	0.05213 0.50000 0.42440 0.13000
H 	H 	0.08780 0.50000 0.44920 -0.18400
Zr	Zr	0.50000 0.92371 0.40719 4.02900
O 	O 	0.50000 0.95020 0.29630 0.50300
O 	O 	0.50000 0.82470 0.41860 0.11300
C 	C 	0.50000 0.05211 0.14810 -0.04000
H 	H 	0.50000 0.08780 0.17290 0.51200
C 	C 	0.50000 0.05213 0.07560 0.13500
H 	H 	0.50000 0.08780 0.05080 -0.22800
Zr	Zr	0.50000 0.07629 0.40719 4.05200
O 	O 	0.50000 0.04980 0.29630 1.39800
O 	O 	0.50000 0.17530 0.41860 0.25300
C 	C 	0.50000 0.94789 0.14810 0.26100
H 	H 	0.50000 0.91220 0.17290 0.28500
C 	C 	0.50000 0.94787 0.07560 0.45400
H 	H 	0.50000 0.91220 0.05080 -0.55200
Zr	Zr	0.92371 0.50000 0.90719 4.02200
O 	O 	0.95020 0.50000 0.79630 0.45000
O 	O 	0.82470 0.50000 0.91860 0.11300
C 	C 	0.05211 0.50000 0.64810 -0.01600
H 	H 	0.08780 0.50000 0.67290 0.48100
C 	C 	0.05213 0.50000 0.57560 0.16000
H 	H 	0.08780 0.50000 0.55080 -0.23700
Zr	Zr	0.07629 0.50000 0.90719 4.05400
O 	O 	0.04980 0.50000 0.79630 1.49200
O 	O 	0.17530 0.50000 0.91860 0.35100
C 	C 	0.94789 0.50000 0.64810 0.31000
H 	H 	0.91220 0.50000 0.67290 0.25000
C 	C 	0.94787 0.50000 0.57560 0.49600
H 	H 	0.91220 0.50000 0.55080 -0.58500
Zr	Zr	0.60867 0.00000 0.50000 3.91300
Zr	Zr	0.39133 0.00000 0.50000 3.91200
Zr	Zr	-0.00000 0.60867 -0.00000 3.90600
Zr	Zr	0.00000 0.39133 -0.00000 3.90500
O 	O 	0.55620 0.00000 0.59310 -2.20300
O 	O 	0.44380 0.00000 0.59310 -2.16800
O 	O 	0.00000 0.55620 0.09310 -2.23600
O 	O 	0.00000 0.44380 0.09310 -2.18800
O 	O 	0.44380 0.00000 0.40690 -2.17600
O 	O 	0.55620 0.00000 0.40690 -2.22600
O 	O 	0.00000 0.55620 0.90690 -2.17000
O 	O 	-0.00000 0.44380 0.90690 -2.12200
C 	C 	0.50000 0.00000 0.73680 -0.57800
C 	C 	0.50000 0.00000 0.81550 -1.20500
C 	C 	0.50000 0.00000 0.96080 0.18300
C 	C 	0.00000 0.50000 0.23680 -0.56400
C 	C 	-0.00000 0.50000 0.31550 -1.19400
C 	C 	0.00000 0.50000 0.46080 0.17500
C 	C 	0.50000 0.00000 0.26320 -0.59900
C 	C 	0.50000 0.00000 0.18450 -1.20800
C 	C 	0.50000 0.00000 0.03920 0.24000
C 	C 	-0.00000 0.50000 0.76320 -0.62900
C 	C 	0.00000 0.50000 0.68450 -1.21200
C 	C 	-0.00000 0.50000 0.53920 0.22300
O 	O 	0.55140 0.91830 0.50000 -1.87900
O 	O 	0.44860 0.08170 0.50000 -1.82100
O 	O 	0.08170 0.55140 -0.00000 -1.88200
O 	O 	0.91830 0.44860 -0.00000 -1.85100
O 	O 	0.44860 0.91830 0.50000 -1.86100
O 	O 	0.55140 0.08170 0.50000 -1.84000
O 	O 	0.91830 0.55140 -0.00000 -1.87000
O 	O 	0.08170 0.44860 -0.00000 -1.86300
