data_crystal

_cell_length_a 17.52380
_cell_length_b 21.48580
_cell_length_c 22.25550
_cell_angle_alpha 106.51000
_cell_angle_beta  105.25700
_cell_angle_gamma 105.87900

_symmetry_space_group_name_	'P 1'
_symmetry_space_group_name_H-M	'P 1'

loop_
_symmetry_equiv_pos_as_xyz
  x,y,z

loop_
_atom_site_label
_atom_site_type_symbol
_atom_site_fract_x
_atom_site_fract_y
_atom_site_fract_z
_atom_site_charge
U 	U 	0.97026 0.41888 0.01540 -0.00600
U 	U 	0.88931 0.39834 0.82440 -0.01000
O 	O 	0.87890 0.29179 0.98268 -0.18400
O 	O 	0.88340 0.32603 0.89988 -0.17000
O 	O 	0.86930 0.50630 0.82520 -0.19600
O 	O 	0.99080 0.59770 0.88140 -0.18400
N 	N 	0.59000 0.09040 0.65540 -0.23600
H 	H 	0.56540 0.05720 0.66840 0.16000
H 	H 	0.64150 0.09020 0.65800 0.16400
C 	C 	0.91320 0.56940 0.84310 0.25500
C 	C 	0.59910 0.15970 0.70120 -0.17100
H 	H 	0.54310 0.16250 0.69240 0.11400
H 	H 	0.63410 0.19620 0.69150 0.11500
O 	O 	0.94330 0.21910 0.78130 -0.24400
C 	C 	0.91730 0.68470 0.83600 -0.13700
H 	H 	0.97400 0.70450 0.86530 0.11400
C 	C 	0.70690 0.20090 0.91140 -0.12400
H 	H 	0.72920 0.21120 0.95740 0.09600
N 	N 	0.98660 0.38510 0.56320 -0.24200
H 	H 	0.02940 0.37530 0.55380 0.16600
H 	H 	0.00680 0.41390 0.60630 0.16600
C 	C 	0.63820 0.17260 0.77390 0.15400
N 	N 	0.93310 0.84420 0.89860 -0.23900
H 	H 	0.95830 0.82990 0.92950 0.16400
H 	H 	0.87960 0.83540 0.89640 0.16800
C 	C 	0.75810 0.23070 0.87980 0.04500
C 	C 	0.74840 0.62640 0.75250 0.06600
H 	H 	0.69130 0.60670 0.72380 0.01600
C 	C 	0.84530 0.28490 0.92230 0.23300
C 	C 	0.92660 0.28710 0.65140 -0.11700
H 	H 	0.89300 0.31240 0.66130 0.10500
C 	C 	0.94880 0.28330 0.59580 0.12000
C 	C 	0.72300 0.21540 0.81160 -0.16200
H 	H 	0.75700 0.23420 0.79040 0.12800
C 	C 	0.93150 0.80300 0.83350 -0.14100
H 	H 	0.98940 0.80930 0.83610 0.09900
H 	H 	0.90650 0.81940 0.79970 0.09900
C 	C 	0.87170 0.61410 0.81660 0.03500
C 	C 	0.62390 0.15670 0.87360 0.08500
H 	H 	0.59050 0.13580 0.89410 0.01300
C 	C 	0.78700 0.58530 0.77450 -0.10700
H 	H 	0.75590 0.53780 0.76100 0.08400
C 	C 	0.88020 0.72630 0.81270 0.13000
C 	C 	0.79380 0.69640 0.77250 -0.15500
H 	H 	0.76650 0.72440 0.75910 0.10400
C 	C 	0.91820 0.31950 0.55180 -0.13900
H 	H 	0.89720 0.28820 0.50490 0.09800
H 	H 	0.87110 0.33040 0.56070 0.09500
C 	C 	0.95370 0.25360 0.69280 0.01100
C 	C 	0.92560 0.25420 0.75040 0.28200
C 	C 	0.53760 0.07440 0.58420 -0.03100
H 	H 	0.48140 0.07390 0.58190 0.06700
H 	H 	0.56370 0.11180 0.57110 0.07000
C 	C 	0.95240 0.41980 0.51940 -0.03100
H 	H 	0.90890 0.43340 0.53230 0.06800
H 	H 	0.92550 0.38630 0.47300 0.06800
C 	C 	0.00260 0.24770 0.58350 -0.14300
H 	H 	0.02020 0.24640 0.54740 0.10300
C 	C 	0.52780 0.00700 0.53530 -0.11600
H 	H 	0.50260 0.96930 0.54850 0.08200
H 	H 	0.58360 0.00760 0.53610 0.08300
C 	C 	0.97780 0.92080 0.92140 -0.03800
H 	H 	0.95030 0.93680 0.88820 0.07200
H 	H 	0.03630 0.93070 0.92400 0.07400
C 	C 	0.58920 0.14260 0.80570 -0.17800
H 	H 	0.53240 0.11280 0.78100 0.12000
C 	C 	0.97800 0.96080 0.98900 -0.11600
H 	H 	0.00680 0.94570 0.02240 0.08300
H 	H 	0.91960 0.95010 0.98660 0.08200
C 	C 	0.02980 0.21400 0.62520 0.04400
H 	H 	0.06400 0.18910 0.61590 0.01700
C 	C 	0.00660 0.21770 0.67950 -0.09300
H 	H 	0.02600 0.19620 0.70780 0.07200
C 	C 	0.01880 0.48320 0.52300 -0.11800
H 	H 	0.06260 0.47000 0.51020 0.08300
H 	H 	0.04550 0.51710 0.56920 0.08300
O 	O 	0.94970 0.46498 0.93398 -0.06300
O 	O 	0.87900 0.28930 0.76232 -0.19400
U 	U 	0.02974 0.58112 0.98460 -0.00500
U 	U 	0.11069 0.60166 0.17560 -0.00900
O 	O 	0.12110 0.70821 0.01732 -0.18300
O 	O 	0.11660 0.67397 0.10012 -0.16900
O 	O 	0.13070 0.49370 0.17480 -0.19500
O 	O 	0.00920 0.40230 0.11860 -0.18300
N 	N 	0.41000 0.90960 0.34460 -0.23600
H 	H 	0.43460 0.94280 0.33160 0.16000
H 	H 	0.35850 0.90980 0.34200 0.16400
C 	C 	0.08680 0.43060 0.15690 0.25500
C 	C 	0.40090 0.84030 0.29880 -0.17100
H 	H 	0.45690 0.83750 0.30760 0.11400
H 	H 	0.36590 0.80380 0.30850 0.11500
O 	O 	0.05670 0.78090 0.21870 -0.24400
C 	C 	0.08270 0.31530 0.16400 -0.13700
H 	H 	0.02600 0.29550 0.13470 0.11400
C 	C 	0.29310 0.79910 0.08860 -0.12400
H 	H 	0.27080 0.78880 0.04260 0.09600
N 	N 	0.01340 0.61490 0.43680 -0.24200
H 	H 	0.97060 0.62470 0.44620 0.16600
H 	H 	0.99320 0.58610 0.39370 0.16600
C 	C 	0.36180 0.82740 0.22610 0.15400
N 	N 	0.06690 0.15580 0.10140 -0.23900
H 	H 	0.04170 0.17010 0.07050 0.16400
H 	H 	0.12040 0.16460 0.10360 0.16800
C 	C 	0.24190 0.76930 0.12020 0.04500
C 	C 	0.25160 0.37360 0.24750 0.06600
H 	H 	0.30870 0.39330 0.27620 0.01600
C 	C 	0.15470 0.71510 0.07770 0.23300
C 	C 	0.07340 0.71290 0.34860 -0.11700
H 	H 	0.10700 0.68760 0.33870 0.10500
C 	C 	0.05120 0.71670 0.40420 0.12000
C 	C 	0.27700 0.78460 0.18840 -0.16200
H 	H 	0.24300 0.76580 0.20960 0.12800
C 	C 	0.06850 0.19700 0.16650 -0.14100
H 	H 	0.01060 0.19070 0.16390 0.09900
H 	H 	0.09350 0.18060 0.20030 0.09900
C 	C 	0.12830 0.38590 0.18340 0.03500
C 	C 	0.37610 0.84330 0.12640 0.08500
H 	H 	0.40950 0.86420 0.10590 0.01300
C 	C 	0.21300 0.41470 0.22550 -0.10700
H 	H 	0.24410 0.46220 0.23900 0.08400
C 	C 	0.11980 0.27370 0.18730 0.13000
C 	C 	0.20620 0.30360 0.22750 -0.15500
H 	H 	0.23350 0.27560 0.24090 0.10400
C 	C 	0.08180 0.68050 0.44820 -0.13900
H 	H 	0.10280 0.71180 0.49510 0.09800
H 	H 	0.12890 0.66960 0.43930 0.09500
C 	C 	0.04630 0.74640 0.30720 0.01100
C 	C 	0.07440 0.74580 0.24960 0.28200
C 	C 	0.46240 0.92560 0.41580 -0.03100
H 	H 	0.51860 0.92610 0.41810 0.06700
H 	H 	0.43630 0.88820 0.42890 0.07000
C 	C 	0.04760 0.58020 0.48060 -0.03100
H 	H 	0.09110 0.56660 0.46770 0.06800
H 	H 	0.07450 0.61370 0.52700 0.06800
C 	C 	0.99740 0.75230 0.41650 -0.14300
H 	H 	0.97980 0.75360 0.45260 0.10300
C 	C 	0.47220 0.99300 0.46470 -0.11600
H 	H 	0.49740 0.03070 0.45150 0.08200
H 	H 	0.41640 0.99240 0.46390 0.08300
C 	C 	0.02220 0.07920 0.07860 -0.03800
H 	H 	0.04970 0.06320 0.11180 0.07200
H 	H 	0.96370 0.06930 0.07600 0.07400
C 	C 	0.41080 0.85740 0.19430 -0.17800
H 	H 	0.46760 0.88720 0.21900 0.12000
C 	C 	0.02200 0.03920 0.01100 -0.11600
H 	H 	0.99320 0.05430 0.97760 0.08300
H 	H 	0.08040 0.04990 0.01340 0.08200
C 	C 	0.97020 0.78600 0.37480 0.04400
H 	H 	0.93600 0.81090 0.38410 0.01700
C 	C 	0.99340 0.78230 0.32050 -0.09300
H 	H 	0.97400 0.80380 0.29220 0.07200
C 	C 	0.98120 0.51680 0.47700 -0.11800
H 	H 	0.93740 0.53000 0.48980 0.08300
H 	H 	0.95450 0.48290 0.43080 0.08300
O 	O 	0.05030 0.53502 0.06602 -0.06300
O 	O 	0.12100 0.71070 0.23768 -0.19400
O 	O 	0.49700 0.72380 0.09640 -0.21000
O 	O 	0.46910 0.48800 0.18960 -0.20500
N 	N 	0.39660 0.55930 0.17050 -0.14400
O 	O 	0.65260 0.49550 0.19540 -0.20900
O 	O 	0.30290 0.37390 0.04590 -0.20500
N 	N 	0.77150 0.59800 0.03830 -0.14200
N 	N 	0.76420 0.50420 0.07930 -0.14300
N 	N 	0.29580 0.57170 0.02630 -0.14000
O 	O 	0.68390 0.73020 0.09880 -0.21900
N 	N 	0.67970 0.61410 0.23800 -0.14900
N 	N 	0.28000 0.47770 0.06690 -0.13900
C 	C 	0.23690 0.51140 0.02890 0.05700
H 	H 	0.19310 0.52240 0.04460 0.05300
N 	N 	0.40920 0.65610 0.13210 -0.14800
C 	C 	0.80130 0.54290 0.04380 0.06400
H 	H 	0.86380 0.55980 0.06210 0.04500
N 	N 	0.54600 0.70780 0.19540 -0.14900
N 	N 	0.75130 0.57640 0.17870 -0.14600
N 	N 	0.68290 0.70450 0.19240 -0.14500
C 	C 	0.79160 0.53030 0.15160 0.03700
H 	H 	0.85300 0.55550 0.17090 0.04900
H 	H 	0.77920 0.49090 0.16530 0.05900
C 	C 	0.33010 0.64080 0.07960 0.03500
H 	H 	0.33890 0.67560 0.05970 0.05800
H 	H 	0.28800 0.64510 0.09970 0.04800
N 	N 	0.76730 0.67380 0.14100 -0.14700
C 	C 	0.41460 0.63350 0.18830 0.06000
H 	H 	0.38150 0.64970 0.21410 0.03300
N 	N 	0.53600 0.60840 0.22900 -0.14600
C 	C 	0.80610 0.66620 0.09120 0.03900
H 	H 	0.80070 0.70000 0.07090 0.05300
H 	H 	0.86660 0.67800 0.11390 0.04200
C 	C 	0.27330 0.41350 0.02710 0.27500
C 	C 	0.73110 0.67630 0.23430 0.06200
H 	H 	0.76680 0.71220 0.27940 0.02200
C 	C 	0.46720 0.54610 0.19530 0.26800
C 	C 	0.69100 0.55620 0.20280 0.27700
C 	C 	0.31250 0.50370 0.13950 0.02900
H 	H 	0.31520 0.46530 0.15350 0.05800
H 	H 	0.27310 0.52110 0.15560 0.05300
C 	C 	0.78530 0.65210 0.19710 0.05900
H 	H 	0.84610 0.67360 0.22560 0.02900
C 	C 	0.48470 0.69790 0.13710 0.27900
C 	C 	0.51230 0.66730 0.23030 0.06300
H 	H 	0.52410 0.69740 0.27670 0.03500
C 	C 	0.63460 0.74570 0.21360 0.04500
H 	H 	0.66020 0.76950 0.26230 0.03400
H 	H 	0.64050 0.78140 0.19460 0.04800
C 	C 	0.70870 0.70540 0.13930 0.26900
C 	C 	0.61720 0.61090 0.27010 0.04200
H 	H 	0.60710 0.56970 0.28130 0.04400
H 	H 	0.64080 0.65170 0.31200 0.03200
O 	O 	0.67770 0.39190 0.05710 -0.20600
C 	C 	0.71110 0.43710 0.03820 0.27600
O 	O 	0.50300 0.27620 0.90360 -0.21000
O 	O 	0.53090 0.51200 0.81040 -0.20500
N 	N 	0.60340 0.44070 0.82950 -0.14400
O 	O 	0.34740 0.50450 0.80460 -0.20900
O 	O 	0.69710 0.62610 0.95410 -0.20500
N 	N 	0.22850 0.40200 0.96170 -0.14200
N 	N 	0.23580 0.49580 0.92070 -0.14300
N 	N 	0.70420 0.42830 0.97370 -0.14000
O 	O 	0.31610 0.26980 0.90120 -0.21900
N 	N 	0.32030 0.38590 0.76200 -0.14900
N 	N 	0.72000 0.52230 0.93310 -0.13900
C 	C 	0.76310 0.48860 0.97110 0.05700
H 	H 	0.80690 0.47760 0.95540 0.05300
N 	N 	0.59080 0.34390 0.86790 -0.14800
C 	C 	0.19870 0.45710 0.95620 0.06400
H 	H 	0.13620 0.44020 0.93790 0.04500
N 	N 	0.45400 0.29220 0.80460 -0.14900
N 	N 	0.24870 0.42360 0.82130 -0.14600
N 	N 	0.31710 0.29550 0.80760 -0.14500
C 	C 	0.20840 0.46970 0.84840 0.03700
H 	H 	0.14700 0.44450 0.82910 0.04900
H 	H 	0.22080 0.50910 0.83470 0.05900
C 	C 	0.66990 0.35920 0.92040 0.03500
H 	H 	0.66110 0.32440 0.94030 0.05800
H 	H 	0.71200 0.35490 0.90030 0.04800
N 	N 	0.23270 0.32620 0.85900 -0.14700
C 	C 	0.58540 0.36650 0.81170 0.06000
H 	H 	0.61850 0.35030 0.78590 0.03300
N 	N 	0.46400 0.39160 0.77100 -0.14600
C 	C 	0.19390 0.33380 0.90880 0.03900
H 	H 	0.19930 0.30000 0.92910 0.05300
H 	H 	0.13340 0.32200 0.88610 0.04200
C 	C 	0.72670 0.58650 0.97290 0.27500
C 	C 	0.26890 0.32370 0.76570 0.06200
H 	H 	0.23320 0.28780 0.72060 0.02200
C 	C 	0.53280 0.45390 0.80470 0.26800
C 	C 	0.30900 0.44380 0.79720 0.27700
C 	C 	0.68750 0.49630 0.86050 0.02900
H 	H 	0.68480 0.53470 0.84650 0.05800
H 	H 	0.72690 0.47890 0.84440 0.05300
C 	C 	0.21470 0.34790 0.80290 0.05900
H 	H 	0.15390 0.32640 0.77440 0.02900
C 	C 	0.51530 0.30210 0.86290 0.27900
C 	C 	0.48770 0.33270 0.76970 0.06300
H 	H 	0.47590 0.30260 0.72330 0.03500
C 	C 	0.36540 0.25430 0.78640 0.04500
H 	H 	0.33980 0.23050 0.73770 0.03400
H 	H 	0.35950 0.21860 0.80540 0.04800
C 	C 	0.29130 0.29460 0.86070 0.26900
C 	C 	0.38280 0.38910 0.72990 0.04200
H 	H 	0.39290 0.43030 0.71870 0.04400
H 	H 	0.35920 0.34830 0.68800 0.03200
O 	O 	0.32230 0.60810 0.94290 -0.20600
C 	C 	0.28890 0.56290 0.96180 0.27600
O 	O 	0.97570 0.03910 0.20800 -0.22400
O 	O 	0.82400 0.91400 0.78260 -0.23700
O 	O 	0.11860 0.23010 0.02820 -0.23200
O 	O 	0.91290 0.16930 0.01600 -0.22700
O 	O 	0.75990 0.82170 0.87430 -0.23600
N 	N 	0.04430 0.17480 0.91340 -0.14400
N 	N 	0.79040 0.08450 0.93000 -0.14800
O 	O 	0.83510 0.08630 0.10160 -0.23100
N 	N 	0.85970 0.03200 0.80710 -0.14700
N 	N 	0.76630 0.96740 0.06410 -0.15000
N 	N 	0.74200 0.01790 0.99300 -0.15500
N 	N 	0.75900 0.97770 0.83630 -0.15000
N 	N 	0.86390 0.93390 0.13620 -0.14400
N 	N 	0.89660 0.13860 0.90400 -0.14300
N 	N 	0.00640 0.06650 0.81780 -0.15000
N 	N 	0.73200 0.85790 0.97040 -0.14700
N 	N 	0.82590 0.82310 0.04420 -0.14200
N 	N 	0.71030 0.91080 0.90110 -0.15300
C 	C 	0.97290 0.19450 0.91230 0.01000
H 	H 	0.95920 0.21050 0.87560 0.07400
H 	H 	0.98880 0.23370 0.95400 0.07500
C 	C 	0.81560 0.96910 0.80630 0.27100
C 	C 	0.68600 0.94750 0.95380 0.06800
H 	H 	0.62630 0.94280 0.93690 0.02200
C 	C 	0.87140 0.13490 0.95600 0.26900
C 	C 	0.73820 0.07370 0.96920 0.04100
H 	H 	0.67940 0.06270 0.94190 0.03100
H 	H 	0.75640 0.11700 0.00770 0.04800
C 	C 	0.94830 0.97550 0.17930 0.25600
C 	C 	0.85000 0.86050 0.11620 0.05300
H 	H 	0.81010 0.83680 0.13360 0.03600
C 	C 	0.79760 0.96050 0.12840 0.03200
H 	H 	0.81830 0.00620 0.16430 0.05400
H 	H 	0.75010 0.92990 0.13390 0.03900
C 	C 	0.83400 0.08780 0.83960 0.05500
H 	H 	0.81420 0.11010 0.80920 0.04700
C 	C 	0.76220 0.04850 0.85750 0.05900
H 	H 	0.70780 0.05070 0.83400 0.03600
C 	C 	0.74150 0.80280 0.99460 0.01200
H 	H 	0.69920 0.79080 0.01440 0.06700
H 	H 	0.73040 0.76120 0.95650 0.07600
C 	C 	0.70250 0.91100 0.00350 0.05200
H 	H 	0.65050 0.88960 0.01080 0.03200
C 	C 	0.11270 0.19690 0.97180 0.26600
C 	C 	0.69350 0.91950 0.83590 0.03200
H 	H 	0.68730 0.87680 0.80170 0.04900
H 	H 	0.63970 0.92590 0.82340 0.03800
C 	C 	0.06100 0.14010 0.85400 0.05500
H 	H 	0.05960 0.16560 0.82390 0.03200
C 	C 	0.78680 0.02980 0.05690 0.27400
C 	C 	0.73530 0.86030 0.91190 0.26900
C 	C 	0.91980 0.04190 0.77390 0.04400
H 	H 	0.90640 0.99780 0.73810 0.04500
H 	H 	0.91310 0.07530 0.75340 0.04400
O 	O 	0.02430 0.96090 0.79200 -0.22400
O 	O 	0.17600 0.08600 0.21740 -0.23700
O 	O 	0.88140 0.76990 0.97180 -0.23200
O 	O 	0.08710 0.83070 0.98400 -0.22700
O 	O 	0.24010 0.17830 0.12570 -0.23600
N 	N 	0.95570 0.82520 0.08660 -0.14400
N 	N 	0.20960 0.91550 0.07000 -0.14800
O 	O 	0.16490 0.91370 0.89840 -0.23100
N 	N 	0.14030 0.96800 0.19290 -0.14700
N 	N 	0.23370 0.03260 0.93590 -0.15000
N 	N 	0.25800 0.98210 0.00700 -0.15500
N 	N 	0.24100 0.02230 0.16370 -0.15000
N 	N 	0.13610 0.06610 0.86380 -0.14400
N 	N 	0.10340 0.86140 0.09600 -0.14300
N 	N 	0.99360 0.93350 0.18220 -0.15000
N 	N 	0.26800 0.14210 0.02960 -0.14700
N 	N 	0.17410 0.17690 0.95580 -0.14200
N 	N 	0.28970 0.08920 0.09890 -0.15300
C 	C 	0.02710 0.80550 0.08770 0.01000
H 	H 	0.04080 0.78950 0.12440 0.07400
H 	H 	0.01120 0.76630 0.04600 0.07500
C 	C 	0.18440 0.03090 0.19370 0.27100
C 	C 	0.31400 0.05250 0.04620 0.06800
H 	H 	0.37370 0.05720 0.06310 0.02200
C 	C 	0.12860 0.86510 0.04400 0.26900
C 	C 	0.26180 0.92630 0.03080 0.04100
H 	H 	0.32060 0.93730 0.05810 0.03100
H 	H 	0.24360 0.88300 0.99230 0.04800
C 	C 	0.05170 0.02450 0.82070 0.25600
C 	C 	0.15000 0.13950 0.88380 0.05300
H 	H 	0.18990 0.16320 0.86640 0.03600
C 	C 	0.20240 0.03950 0.87160 0.03200
H 	H 	0.18170 0.99380 0.83570 0.05400
H 	H 	0.24990 0.07010 0.86610 0.03900
C 	C 	0.16600 0.91220 0.16040 0.05500
H 	H 	0.18580 0.88990 0.19080 0.04700
C 	C 	0.23780 0.95150 0.14250 0.05900
H 	H 	0.29220 0.94930 0.16600 0.03600
C 	C 	0.25850 0.19720 0.00540 0.01200
H 	H 	0.30080 0.20920 0.98560 0.06700
H 	H 	0.26960 0.23880 0.04350 0.07600
C 	C 	0.29750 0.08900 0.99650 0.05200
H 	H 	0.34950 0.11040 0.98920 0.03200
C 	C 	0.88730 0.80310 0.02820 0.26600
C 	C 	0.30650 0.08050 0.16410 0.03200
H 	H 	0.31270 0.12320 0.19830 0.04900
H 	H 	0.36030 0.07410 0.17660 0.03800
C 	C 	0.93900 0.85990 0.14600 0.05500
H 	H 	0.94040 0.83440 0.17610 0.03200
C 	C 	0.21320 0.97020 0.94310 0.27400
C 	C 	0.26470 0.13970 0.08810 0.26900
C 	C 	0.08020 0.95810 0.22610 0.04400
H 	H 	0.09360 0.00220 0.26190 0.04500
H 	H 	0.08690 0.92470 0.24660 0.04400
O 	O 	0.25320 0.61180 0.48090 -0.23200
O 	O 	0.86740 0.63850 0.44810 -0.25200
O 	O 	0.12430 0.46470 0.69040 -0.23700
O 	O 	0.04400 0.72180 0.59370 -0.23900
O 	O 	0.24840 0.71210 0.61450 -0.23300
N 	N 	0.17090 0.58490 0.73530 -0.14900
N 	N 	0.21230 0.68050 0.69690 -0.15000
N 	N 	0.30030 0.56230 0.55530 -0.15300
N 	N 	0.30030 0.63980 0.65840 -0.15200
C 	C 	0.30200 0.49400 0.55170 0.05600
H 	H 	0.36040 0.49550 0.56790 0.02200
N 	N 	0.94100 0.66790 0.62720 -0.15300
C 	C 	0.10770 0.58630 0.76440 0.02500
H 	H 	0.13360 0.62470 0.80820 0.05200
H 	H 	0.08840 0.54310 0.77160 0.06300
N 	N 	0.07470 0.68720 0.68190 -0.15100
N 	N 	0.24230 0.53740 0.68120 -0.14600
N 	N 	0.03310 0.59440 0.72330 -0.14400
N 	N 	0.25040 0.46120 0.58320 -0.15000
C 	C 	0.25830 0.56110 0.49410 0.26000
C 	C 	0.17420 0.52300 0.70130 0.26800
C 	C 	0.27080 0.48290 0.65440 0.03600
H 	H 	0.33220 0.49940 0.67690 0.04300
H 	H 	0.24490 0.44280 0.66420 0.05200
C 	C 	0.34550 0.62420 0.61460 0.05000
H 	H 	0.36280 0.66350 0.60130 0.03900
H 	H 	0.39710 0.62060 0.64010 0.03000
C 	C 	0.02860 0.65980 0.72110 0.05500
H 	H 	0.04620 0.69500 0.76640 0.03000
C 	C 	0.23750 0.64410 0.73980 0.06100
H 	H 	0.27060 0.67670 0.78670 0.03300
N 	N 	0.81540 0.60810 0.52480 -0.15300
C 	C 	0.93500 0.64070 0.67960 0.05600
H 	H 	0.90640 0.66230 0.70670 0.02500
C 	C 	0.16440 0.72500 0.70940 0.03800
H 	H 	0.18230 0.74960 0.75760 0.03800
H 	H 	0.17770 0.75990 0.69000 0.05100
C 	C 	0.86970 0.67310 0.58200 0.03900
H 	H 	0.89100 0.70890 0.56550 0.04700
H 	H 	0.83570 0.68800 0.60680 0.03000
C 	C 	0.74600 0.55230 0.52340 0.05900
H 	H 	0.70920 0.57010 0.54390 0.02000
C 	C 	0.81600 0.60030 0.46230 0.26700
C 	C 	0.29270 0.61030 0.70770 0.06400
H 	H 	0.34870 0.62180 0.74140 0.03700
C 	C 	0.02190 0.69610 0.63170 0.27500
C 	C 	0.25220 0.68030 0.65230 0.26600
O 	O 	0.94340 0.47800 0.67480 -0.22400
N 	N 	0.89910 0.56430 0.65560 -0.14700
N 	N 	0.77550 0.50740 0.55270 -0.14600
C 	C 	0.95740 0.53960 0.68350 0.26600
C 	C 	0.80930 0.52420 0.62460 0.03400
H 	H 	0.77990 0.55030 0.64600 0.03300
H 	H 	0.79770 0.48100 0.63240 0.05500
O 	O 	0.74680 0.38820 0.51910 -0.23200
O 	O 	0.13260 0.36150 0.55190 -0.25200
O 	O 	0.87570 0.53530 0.30960 -0.23700
O 	O 	0.95600 0.27820 0.40630 -0.23900
O 	O 	0.75160 0.28790 0.38550 -0.23300
N 	N 	0.82910 0.41510 0.26470 -0.14900
N 	N 	0.78770 0.31950 0.30310 -0.15000
N 	N 	0.69970 0.43770 0.44470 -0.15300
N 	N 	0.69970 0.36020 0.34160 -0.15200
C 	C 	0.69800 0.50600 0.44830 0.05600
H 	H 	0.63960 0.50450 0.43210 0.02200
N 	N 	0.05900 0.33210 0.37280 -0.15300
C 	C 	0.89230 0.41370 0.23560 0.02500
H 	H 	0.86640 0.37530 0.19180 0.05200
H 	H 	0.91160 0.45690 0.22840 0.06300
N 	N 	0.92530 0.31280 0.31810 -0.15100
N 	N 	0.75770 0.46260 0.31880 -0.14600
N 	N 	0.96690 0.40560 0.27670 -0.14400
N 	N 	0.74960 0.53880 0.41680 -0.15000
C 	C 	0.74170 0.43890 0.50590 0.26000
C 	C 	0.82580 0.47700 0.29870 0.26800
C 	C 	0.72920 0.51710 0.34560 0.03600
H 	H 	0.66780 0.50060 0.32310 0.04300
H 	H 	0.75510 0.55720 0.33580 0.05200
C 	C 	0.65450 0.37580 0.38540 0.05000
H 	H 	0.63720 0.33650 0.39870 0.03900
H 	H 	0.60290 0.37940 0.35990 0.03000
C 	C 	0.97140 0.34020 0.27890 0.05500
H 	H 	0.95380 0.30500 0.23360 0.03000
C 	C 	0.76250 0.35590 0.26020 0.06100
H 	H 	0.72940 0.32330 0.21330 0.03300
N 	N 	0.18460 0.39190 0.47520 -0.15300
C 	C 	0.06500 0.35930 0.32040 0.05600
H 	H 	0.09360 0.33770 0.29330 0.02500
C 	C 	0.83560 0.27500 0.29060 0.03800
H 	H 	0.81770 0.25040 0.24240 0.03800
H 	H 	0.82230 0.24010 0.31000 0.05100
C 	C 	0.13030 0.32690 0.41800 0.03900
H 	H 	0.10900 0.29110 0.43450 0.04700
H 	H 	0.16430 0.31200 0.39320 0.03000
C 	C 	0.25400 0.44770 0.47660 0.05900
H 	H 	0.29080 0.42990 0.45610 0.02000
C 	C 	0.18400 0.39970 0.53770 0.26700
C 	C 	0.70730 0.38970 0.29230 0.06400
H 	H 	0.65130 0.37820 0.25860 0.03700
C 	C 	0.97810 0.30390 0.36830 0.27500
C 	C 	0.74780 0.31970 0.34770 0.26600
O 	O 	0.05660 0.52200 0.32520 -0.22400
N 	N 	0.10090 0.43570 0.34440 -0.14700
N 	N 	0.22450 0.49260 0.44730 -0.14600
C 	C 	0.04260 0.46040 0.31650 0.26600
C 	C 	0.19070 0.47580 0.37540 0.03400
H 	H 	0.22010 0.44970 0.35400 0.03300
H 	H 	0.20230 0.51900 0.36760 0.05500
O 	O 	0.26980 0.96030 0.32470 -0.23000
O 	O 	0.60170 0.96630 0.33580 -0.23500
O 	O 	0.59240 0.24370 0.58930 -0.22600
O 	O 	0.73880 0.16540 0.61680 -0.23000
O 	O 	0.44030 0.02920 0.30200 -0.24200
O 	O 	0.40940 0.17320 0.61290 -0.24700
N 	N 	0.28920 0.08130 0.53160 -0.15200
N 	N 	0.42990 0.12910 0.36830 -0.15100
N 	N 	0.36060 0.16270 0.50340 -0.15100
N 	N 	0.62000 0.21380 0.49000 -0.14200
N 	N 	0.72810 0.01420 0.43090 -0.14900
N 	N 	0.56070 0.12780 0.37670 -0.15500
N 	N 	0.22820 0.99800 0.41520 -0.14900
N 	N 	0.49050 0.21150 0.48550 -0.15100
C 	C 	0.28540 0.11890 0.44170 0.05500
H 	H 	0.25270 0.14610 0.42760 0.02500
C 	C 	0.42630 0.22510 0.50900 0.04200
H 	H 	0.39920 0.24830 0.48360 0.02900
H 	H 	0.45330 0.25710 0.55590 0.04700
N 	N 	0.73080 0.16970 0.51130 -0.14500
N 	N 	0.78330 0.09630 0.54580 -0.15200
C 	C 	0.78450 0.08250 0.47950 0.06200
H 	H 	0.84280 0.09220 0.48030 0.02300
C 	C 	0.48680 0.19820 0.41690 0.05800
H 	H 	0.47560 0.23460 0.40200 0.02200
N 	N 	0.30230 0.07730 0.38590 -0.14900
C 	C 	0.74710 0.13280 0.45560 0.06500
H 	H 	0.78800 0.16470 0.44470 0.02900
N 	N 	0.67330 0.08590 0.39670 -0.15800
C 	C 	0.57630 0.19830 0.42110 0.06000
H 	H 	0.60540 0.23370 0.40640 0.03500
C 	C 	0.35930 0.14280 0.55640 0.27600
C 	C 	0.56950 0.22470 0.52790 0.26200
C 	C 	0.70900 0.22960 0.52070 0.03100
H 	H 	0.73990 0.25920 0.50230 0.05100
H 	H 	0.72750 0.25610 0.56870 0.05700
C 	C 	0.26710 0.00800 0.37110 0.25500
C 	C 	0.47260 0.08850 0.34430 0.26100
C 	C 	0.62080 0.10990 0.35340 0.11100
H 	H 	0.62700 0.11290 0.31400 0.01400
C 	C 	0.73760 0.94960 0.42470 0.04500
H 	H 	0.79720 0.95680 0.43350 0.02700
H 	H 	0.70510 0.91680 0.37840 0.04500
C 	C 	0.23370 0.06270 0.46240 0.05900
H 	H 	0.17740 0.06410 0.45920 0.02000
C 	C 	0.66060 0.01700 0.38240 0.26200
C 	C 	0.33940 0.10440 0.34400 0.04100
H 	H 	0.31690 0.06780 0.29940 0.04900
H 	H 	0.32190 0.14250 0.33960 0.03800
C 	C 	0.82460 0.06960 0.59210 0.04000
H 	H 	0.87610 0.06690 0.58510 0.02900
H 	H 	0.84130 0.10230 0.63790 0.04900
C 	C 	0.74960 0.14470 0.56440 0.26100
O 	O 	0.73020 0.03970 0.67530 -0.23000
O 	O 	0.39830 0.03370 0.66420 -0.23500
O 	O 	0.40760 0.75630 0.41070 -0.22600
O 	O 	0.26120 0.83460 0.38320 -0.23000
O 	O 	0.55970 0.97080 0.69800 -0.24200
O 	O 	0.59060 0.82680 0.38710 -0.24700
N 	N 	0.71080 0.91870 0.46840 -0.15200
N 	N 	0.57010 0.87090 0.63170 -0.15100
N 	N 	0.63940 0.83730 0.49660 -0.15100
N 	N 	0.38000 0.78620 0.51000 -0.14200
N 	N 	0.27190 0.98580 0.56910 -0.14900
N 	N 	0.43930 0.87220 0.62330 -0.15500
N 	N 	0.77180 0.00200 0.58480 -0.14900
N 	N 	0.50950 0.78850 0.51450 -0.15100
C 	C 	0.71460 0.88110 0.55830 0.05500
H 	H 	0.74730 0.85390 0.57240 0.02500
C 	C 	0.57370 0.77490 0.49100 0.04200
H 	H 	0.60080 0.75170 0.51640 0.02900
H 	H 	0.54670 0.74290 0.44410 0.04700
N 	N 	0.26920 0.83030 0.48870 -0.14500
N 	N 	0.21670 0.90370 0.45420 -0.15200
C 	C 	0.21550 0.91750 0.52050 0.06200
H 	H 	0.15720 0.90780 0.51970 0.02300
C 	C 	0.51320 0.80180 0.58310 0.05800
H 	H 	0.52440 0.76540 0.59800 0.02200
N 	N 	0.69770 0.92270 0.61410 -0.14900
C 	C 	0.25290 0.86720 0.54440 0.06500
H 	H 	0.21200 0.83530 0.55530 0.02900
N 	N 	0.32670 0.91410 0.60330 -0.15800
C 	C 	0.42370 0.80170 0.57890 0.06000
H 	H 	0.39460 0.76630 0.59360 0.03500
C 	C 	0.64070 0.85720 0.44360 0.27600
C 	C 	0.43050 0.77530 0.47210 0.26200
C 	C 	0.29100 0.77040 0.47930 0.03100
H 	H 	0.26010 0.74080 0.49770 0.05100
H 	H 	0.27250 0.74390 0.43130 0.05700
C 	C 	0.73290 0.99200 0.62890 0.25500
C 	C 	0.52740 0.91150 0.65570 0.26100
C 	C 	0.37920 0.89010 0.64660 0.11100
H 	H 	0.37300 0.88710 0.68600 0.01400
C 	C 	0.26240 0.05040 0.57530 0.04500
H 	H 	0.20280 0.04320 0.56650 0.02700
H 	H 	0.29490 0.08320 0.62160 0.04500
C 	C 	0.76630 0.93730 0.53760 0.05900
H 	H 	0.82260 0.93590 0.54080 0.02000
C 	C 	0.33940 0.98300 0.61760 0.26200
C 	C 	0.66060 0.89560 0.65600 0.04100
H 	H 	0.68310 0.93220 0.70060 0.04900
H 	H 	0.67810 0.85750 0.66040 0.03800
C 	C 	0.17540 0.93040 0.40790 0.04000
H 	H 	0.12390 0.93310 0.41490 0.02900
H 	H 	0.15870 0.89770 0.36210 0.04900
C 	C 	0.25040 0.85530 0.43560 0.26100
