data_crystal

_cell_length_a 24.09670
_cell_length_b 18.46660
_cell_length_c 37.61400
_cell_angle_alpha 90.00000
_cell_angle_beta  94.26410
_cell_angle_gamma 90.00000

_symmetry_space_group_name_	'P 1'
_symmetry_space_group_name_H-M	'P 1'

loop_
_symmetry_equiv_pos_as_xyz
  x,y,z

loop_
_atom_site_label
_atom_site_type_symbol
_atom_site_fract_x
_atom_site_fract_y
_atom_site_fract_z
_atom_site_charge
Zn	Zn	0.60131 0.36800 0.67627 1.21600
Zn	Zn	0.59171 0.36853 0.59736 1.21800
O 	O 	0.14739 0.95090 0.60581 -0.46000
O 	O 	0.65652 0.29990 0.60734 -0.46300
O 	O 	0.53844 0.28528 0.60461 -0.45000
O 	O 	0.02976 0.93558 0.61128 -0.46900
O 	O 	0.16534 0.93270 0.66438 -0.47000
O 	O 	0.53423 0.30402 0.66362 -0.46700
O 	O 	0.04774 0.95463 0.66997 -0.45400
O 	O 	0.65247 0.28318 0.66629 -0.45600
N 	N 	0.10680 0.13054 0.22981 -0.25300
N 	N 	0.52419 0.38115 0.49320 -0.14500
N 	N 	0.57516 0.38053 0.54454 -0.24500
N 	N 	0.35271 0.32880 0.35194 -0.05200
N 	N 	0.30670 0.29850 0.33492 -0.09100
N 	N 	0.31398 0.26420 0.39240 -0.13200
C 	C 	0.93034 0.00910 0.61083 0.03700
H 	H 	0.93700 0.98000 0.59140 0.02700
C 	C 	0.22545 0.00880 0.63475 -0.12300
C 	C 	0.01933 0.96297 0.64039 0.37700
N 	N 	0.13085 0.14120 0.28694 -0.16000
C 	C 	0.96863 0.01090 0.64023 -0.12400
C 	C 	0.23572 0.04870 0.60527 0.05200
H 	H 	0.21070 0.04710 0.58520 0.02800
C 	C 	0.17531 0.96057 0.63494 0.38900
C 	C 	0.26276 0.01190 0.66476 0.04900
H 	H 	0.25560 0.98540 0.68500 0.02900
C 	C 	0.32169 0.09480 0.63449 0.04500
C 	C 	0.67298 0.27240 0.63685 0.38800
C 	C 	0.48118 0.36320 0.46638 0.13900
C 	C 	0.51763 0.27500 0.63431 0.38100
C 	C 	0.35584 0.30700 0.38631 0.11000
C 	C 	0.56602 0.43080 0.49052 0.00600
H 	H 	0.57200 0.45940 0.47080 0.03000
C 	C 	0.31031 0.05370 0.66485 -0.10800
H 	H 	0.33500 0.05490 0.68500 0.07000
C 	C 	0.59691 0.43010 0.52219 0.00500
H 	H 	0.62800 0.45880 0.52790 0.02900
C 	C 	0.15980 0.16230 0.31994 0.19700
C 	C 	0.72298 0.22330 0.63703 -0.11700
C 	C 	0.46457 0.41440 0.44085 -0.14600
H 	H 	0.48040 0.46040 0.44140 0.09300
C 	C 	0.40023 0.32900 0.41318 -0.05200
C 	C 	0.37290 0.13940 0.63470 0.04700
C 	C 	0.42378 0.39560 0.41433 0.02200
H 	H 	0.41240 0.42950 0.39700 0.03400
C 	C 	0.28332 0.09150 0.60505 -0.10800
H 	H 	0.28950 0.11850 0.58480 0.07000
C 	C 	0.88183 0.05060 0.61013 -0.10900
H 	H 	0.85630 0.04890 0.59040 0.06800
C 	C 	0.46849 0.22610 0.63441 -0.12200
C 	C 	0.74860 0.20950 0.60607 0.04700
H 	H 	0.73340 0.22840 0.58460 0.03000
C 	C 	0.28479 0.25990 0.35992 0.06700
C 	C 	0.87170 0.09470 0.63898 0.04000
C 	C 	0.44532 0.19560 0.60292 0.04700
H 	H 	0.46170 0.20430 0.58170 0.02800
C 	C 	0.82012 0.13930 0.63852 0.04700
C 	C 	0.53115 0.35280 0.52621 0.10000
H 	H 	0.50790 0.31790 0.53510 -0.00500
C 	C 	0.15990 0.15790 0.38288 0.17400
H 	H 	0.14390 0.14440 0.40360 -0.03000
C 	C 	0.44363 0.21150 0.66605 0.05000
H 	H 	0.45920 0.23030 0.68740 0.02800
C 	C 	0.39840 0.15250 0.60265 -0.11200
H 	H 	0.38360 0.13210 0.58140 0.06900
C 	C 	0.14088 0.15880 0.25431 0.13400
H 	H 	0.17010 0.18900 0.24910 -0.02000
C 	C 	0.20806 0.20130 0.32157 -0.21800
H 	H 	0.22380 0.21560 0.30080 0.11500
C 	C 	0.23300 0.21890 0.35455 0.12200
C 	C 	0.95918 0.05430 0.66917 0.03600
H 	H 	0.98490 0.05540 0.68890 0.02200
C 	C 	0.79640 0.16810 0.60650 -0.11300
H 	H 	0.81290 0.15930 0.58540 0.07100
C 	C 	0.45760 0.29570 0.46614 -0.15000
H 	H 	0.46920 0.26170 0.48330 0.08700
C 	C 	0.41640 0.27890 0.44000 0.02500
H 	H 	0.39910 0.23390 0.44020 0.02900
C 	C 	0.13630 0.14030 0.35104 -0.24500
H 	H 	0.10380 0.11290 0.34940 0.12500
C 	C 	0.91127 0.09620 0.66874 -0.11000
H 	H 	0.90510 0.12550 0.68820 0.06600
C 	C 	0.39667 0.16980 0.66598 -0.11200
H 	H 	0.38040 0.16170 0.68730 0.07200
C 	C 	0.79370 0.15230 0.66964 -0.11100
H 	H 	0.80850 0.13300 0.69110 0.06900
C 	C 	0.20670 0.19510 0.38420 -0.21200
H 	H 	0.22350 0.20640 0.40660 0.11100
C 	C 	0.74580 0.19360 0.66913 0.04300
H 	H 	0.72870 0.20170 0.69010 0.03000
C 	C 	0.08840 0.06710 0.24770 -0.03500
H 	H 	0.06830 0.02920 0.23670 0.03800
C 	C 	0.10450 0.07050 0.28290 0.01800
H 	H 	0.09990 0.03580 0.30040 0.02700
C 	C 	0.39060 0.37230 0.33187 -0.37600
H 	H 	0.37760 0.42140 0.33040 0.15800
H 	H 	0.39190 0.35280 0.30830 0.15200
H 	H 	0.42730 0.37120 0.34380 0.15000
C 	C 	0.05610 0.12540 0.24740 0.01800
H 	H 	0.02110 0.11660 0.23610 0.01400
C 	C 	0.06690 0.13530 0.28240 -0.04000
H 	H 	0.04180 0.13800 0.30000 0.05200
Zn	Zn	0.10131 0.86800 0.67627 1.21500
Zn	Zn	0.09171 0.86853 0.59736 1.21700
O 	O 	0.64739 0.45090 0.60581 -0.46000
O 	O 	0.15652 0.79990 0.60734 -0.46300
O 	O 	0.03844 0.78528 0.60461 -0.45000
O 	O 	0.52976 0.43558 0.61128 -0.46900
O 	O 	0.66534 0.43270 0.66438 -0.47000
O 	O 	0.03423 0.80402 0.66362 -0.46700
O 	O 	0.54774 0.45463 0.66997 -0.45400
O 	O 	0.15247 0.78318 0.66629 -0.45600
N 	N 	0.60680 0.63054 0.22981 -0.25300
N 	N 	0.02419 0.88115 0.49320 -0.14500
N 	N 	0.07516 0.88053 0.54454 -0.24500
N 	N 	0.85271 0.82880 0.35194 -0.05200
N 	N 	0.80670 0.79850 0.33492 -0.09100
N 	N 	0.81398 0.76420 0.39240 -0.13200
C 	C 	0.43034 0.50910 0.61083 0.03700
H 	H 	0.43700 0.48000 0.59140 0.02800
C 	C 	0.72545 0.50880 0.63475 -0.12300
C 	C 	0.51933 0.46297 0.64039 0.37700
N 	N 	0.63085 0.64120 0.28694 -0.16000
C 	C 	0.46863 0.51090 0.64023 -0.12400
C 	C 	0.73572 0.54870 0.60527 0.05200
H 	H 	0.71070 0.54710 0.58520 0.02800
C 	C 	0.67531 0.46057 0.63494 0.38900
C 	C 	0.76276 0.51190 0.66476 0.04900
H 	H 	0.75560 0.48540 0.68500 0.02900
C 	C 	0.82169 0.59480 0.63449 0.04500
C 	C 	0.17298 0.77240 0.63685 0.38800
C 	C 	0.98118 0.86320 0.46638 0.13900
C 	C 	0.01763 0.77500 0.63431 0.38100
C 	C 	0.85584 0.80700 0.38631 0.11000
C 	C 	0.06602 0.93080 0.49052 0.00600
H 	H 	0.07200 0.95940 0.47080 0.03000
C 	C 	0.81031 0.55370 0.66485 -0.10800
H 	H 	0.83500 0.55490 0.68500 0.07000
C 	C 	0.09691 0.93010 0.52219 0.00500
H 	H 	0.12800 0.95880 0.52790 0.02900
C 	C 	0.65980 0.66230 0.31994 0.19700
C 	C 	0.22298 0.72330 0.63703 -0.11700
C 	C 	0.96457 0.91440 0.44085 -0.14600
H 	H 	0.98040 0.96040 0.44140 0.09300
C 	C 	0.90023 0.82900 0.41318 -0.05200
C 	C 	0.87290 0.63940 0.63470 0.04700
C 	C 	0.92378 0.89560 0.41433 0.02200
H 	H 	0.91240 0.92950 0.39700 0.03400
C 	C 	0.78332 0.59150 0.60505 -0.10800
H 	H 	0.78950 0.61850 0.58480 0.07000
C 	C 	0.38183 0.55060 0.61013 -0.10900
H 	H 	0.35630 0.54890 0.59040 0.06800
C 	C 	0.96849 0.72610 0.63441 -0.12200
C 	C 	0.24860 0.70950 0.60607 0.04700
H 	H 	0.23340 0.72840 0.58460 0.03000
C 	C 	0.78479 0.75990 0.35992 0.06700
C 	C 	0.37170 0.59470 0.63898 0.04000
C 	C 	0.94532 0.69560 0.60292 0.04700
H 	H 	0.96170 0.70430 0.58170 0.02800
C 	C 	0.32012 0.63930 0.63852 0.04700
C 	C 	0.03115 0.85280 0.52621 0.10000
H 	H 	0.00790 0.81790 0.53510 -0.00500
C 	C 	0.65990 0.65790 0.38288 0.17400
H 	H 	0.64390 0.64440 0.40360 -0.03000
C 	C 	0.94363 0.71150 0.66605 0.05000
H 	H 	0.95920 0.73030 0.68740 0.02800
C 	C 	0.89840 0.65250 0.60265 -0.11200
H 	H 	0.88360 0.63210 0.58140 0.06900
C 	C 	0.64088 0.65880 0.25431 0.13400
H 	H 	0.67010 0.68900 0.24910 -0.02000
C 	C 	0.70806 0.70130 0.32157 -0.21800
H 	H 	0.72380 0.71560 0.30080 0.11500
C 	C 	0.73300 0.71890 0.35455 0.12200
C 	C 	0.45918 0.55430 0.66917 0.03600
H 	H 	0.48490 0.55540 0.68890 0.02200
C 	C 	0.29640 0.66810 0.60650 -0.11300
H 	H 	0.31290 0.65930 0.58540 0.07100
C 	C 	0.95760 0.79570 0.46614 -0.15000
H 	H 	0.96920 0.76170 0.48330 0.08700
C 	C 	0.91640 0.77890 0.44000 0.02500
H 	H 	0.89910 0.73390 0.44020 0.02900
C 	C 	0.63630 0.64030 0.35104 -0.24500
H 	H 	0.60380 0.61290 0.34940 0.12500
C 	C 	0.41127 0.59620 0.66874 -0.11000
H 	H 	0.40510 0.62550 0.68820 0.06600
C 	C 	0.89667 0.66980 0.66598 -0.11200
H 	H 	0.88040 0.66170 0.68730 0.07200
C 	C 	0.29370 0.65230 0.66964 -0.11100
H 	H 	0.30850 0.63300 0.69110 0.06900
C 	C 	0.70670 0.69510 0.38420 -0.21200
H 	H 	0.72350 0.70640 0.40660 0.11100
C 	C 	0.24580 0.69360 0.66913 0.04300
H 	H 	0.22870 0.70170 0.69010 0.03000
C 	C 	0.58840 0.56710 0.24770 -0.03500
H 	H 	0.56830 0.52920 0.23670 0.03800
C 	C 	0.60450 0.57050 0.28290 0.01800
H 	H 	0.59990 0.53580 0.30040 0.02700
C 	C 	0.89060 0.87230 0.33187 -0.37600
H 	H 	0.87760 0.92140 0.33040 0.15800
H 	H 	0.89190 0.85280 0.30830 0.15200
H 	H 	0.92730 0.87120 0.34380 0.15000
C 	C 	0.55610 0.62540 0.24740 0.01800
H 	H 	0.52110 0.61660 0.23610 0.01400
C 	C 	0.56690 0.63530 0.28240 -0.04000
H 	H 	0.54180 0.63800 0.30000 0.05200
Zn	Zn	0.60131 0.63200 0.17627 1.21500
Zn	Zn	0.59171 0.63147 0.09736 1.21700
O 	O 	0.14739 0.04910 0.10581 -0.46000
O 	O 	0.65652 0.70010 0.10734 -0.46300
O 	O 	0.53844 0.71472 0.10461 -0.45000
O 	O 	0.02976 0.06442 0.11128 -0.46900
O 	O 	0.16534 0.06730 0.16438 -0.47000
O 	O 	0.53423 0.69598 0.16362 -0.46700
O 	O 	0.04774 0.04537 0.16997 -0.45400
O 	O 	0.65247 0.71682 0.16629 -0.45600
N 	N 	0.10680 0.86946 0.72981 -0.25300
N 	N 	0.52419 0.61885 0.99320 -0.14500
N 	N 	0.57516 0.61947 0.04454 -0.24500
N 	N 	0.35271 0.67120 0.85194 -0.05200
N 	N 	0.30670 0.70150 0.83492 -0.09100
N 	N 	0.31398 0.73580 0.89240 -0.13200
C 	C 	0.93034 0.99090 0.11083 0.03700
H 	H 	0.93700 0.02000 0.09140 0.02700
C 	C 	0.22545 0.99120 0.13475 -0.12300
C 	C 	0.01933 0.03703 0.14039 0.37600
N 	N 	0.13085 0.85880 0.78694 -0.16000
C 	C 	0.96863 0.98910 0.14023 -0.12400
C 	C 	0.23572 0.95130 0.10527 0.05200
H 	H 	0.21070 0.95290 0.08520 0.02800
C 	C 	0.17531 0.03943 0.13494 0.38900
C 	C 	0.26276 0.98810 0.16476 0.04900
H 	H 	0.25560 0.01460 0.18500 0.02900
C 	C 	0.32169 0.90520 0.13449 0.04500
C 	C 	0.67298 0.72760 0.13685 0.38800
C 	C 	0.48118 0.63680 0.96638 0.13900
C 	C 	0.51763 0.72500 0.13431 0.38100
C 	C 	0.35584 0.69300 0.88631 0.11000
C 	C 	0.56602 0.56920 0.99052 0.00600
H 	H 	0.57200 0.54060 0.97080 0.03000
C 	C 	0.31031 0.94630 0.16485 -0.10900
H 	H 	0.33500 0.94510 0.18500 0.07000
C 	C 	0.59691 0.56990 0.02219 0.00500
H 	H 	0.62800 0.54120 0.02790 0.02900
C 	C 	0.15980 0.83770 0.81994 0.19700
C 	C 	0.72298 0.77670 0.13703 -0.11700
C 	C 	0.46457 0.58560 0.94085 -0.14600
H 	H 	0.48040 0.53960 0.94140 0.09300
C 	C 	0.40023 0.67100 0.91318 -0.05200
C 	C 	0.37290 0.86060 0.13470 0.04700
C 	C 	0.42378 0.60440 0.91433 0.02200
H 	H 	0.41240 0.57050 0.89700 0.03400
C 	C 	0.28332 0.90850 0.10505 -0.10800
H 	H 	0.28950 0.88150 0.08480 0.07000
C 	C 	0.88183 0.94940 0.11013 -0.10900
H 	H 	0.85630 0.95110 0.09040 0.06800
C 	C 	0.46849 0.77390 0.13441 -0.12200
C 	C 	0.74860 0.79050 0.10607 0.04700
H 	H 	0.73340 0.77160 0.08460 0.03000
C 	C 	0.28479 0.74010 0.85992 0.06700
C 	C 	0.87170 0.90530 0.13898 0.04000
C 	C 	0.44532 0.80440 0.10292 0.04700
H 	H 	0.46170 0.79570 0.08170 0.02800
C 	C 	0.82012 0.86070 0.13852 0.04700
C 	C 	0.53115 0.64720 0.02621 0.10000
H 	H 	0.50790 0.68210 0.03510 -0.00500
C 	C 	0.15990 0.84210 0.88288 0.17400
H 	H 	0.14390 0.85560 0.90360 -0.03000
C 	C 	0.44363 0.78850 0.16605 0.05000
H 	H 	0.45920 0.76970 0.18740 0.02800
C 	C 	0.39840 0.84750 0.10265 -0.11200
H 	H 	0.38360 0.86790 0.08140 0.06900
C 	C 	0.14088 0.84120 0.75431 0.13400
H 	H 	0.17010 0.81100 0.74910 -0.02000
C 	C 	0.20806 0.79870 0.82157 -0.21800
H 	H 	0.22380 0.78440 0.80080 0.11500
C 	C 	0.23300 0.78110 0.85455 0.12200
C 	C 	0.95918 0.94570 0.16917 0.03600
H 	H 	0.98490 0.94460 0.18890 0.02200
C 	C 	0.79640 0.83190 0.10650 -0.11300
H 	H 	0.81290 0.84070 0.08540 0.07100
C 	C 	0.45760 0.70430 0.96614 -0.15000
H 	H 	0.46920 0.73830 0.98330 0.08700
C 	C 	0.41640 0.72110 0.94000 0.02500
H 	H 	0.39910 0.76610 0.94020 0.02900
C 	C 	0.13630 0.85970 0.85104 -0.24500
H 	H 	0.10380 0.88710 0.84940 0.12500
C 	C 	0.91127 0.90380 0.16874 -0.11000
H 	H 	0.90510 0.87450 0.18820 0.06600
C 	C 	0.39667 0.83020 0.16598 -0.11200
H 	H 	0.38040 0.83830 0.18730 0.07200
C 	C 	0.79370 0.84770 0.16964 -0.11100
H 	H 	0.80850 0.86700 0.19110 0.06900
C 	C 	0.20670 0.80490 0.88420 -0.21200
H 	H 	0.22350 0.79360 0.90660 0.11100
C 	C 	0.74580 0.80640 0.16913 0.04300
H 	H 	0.72870 0.79830 0.19010 0.03000
C 	C 	0.08840 0.93290 0.74770 -0.03500
H 	H 	0.06830 0.97080 0.73670 0.03800
C 	C 	0.10450 0.92950 0.78290 0.01800
H 	H 	0.09990 0.96420 0.80040 0.02700
C 	C 	0.39060 0.62770 0.83187 -0.37600
H 	H 	0.37760 0.57860 0.83040 0.15800
H 	H 	0.39190 0.64720 0.80830 0.15200
H 	H 	0.42730 0.62880 0.84380 0.15000
C 	C 	0.05610 0.87460 0.74740 0.01800
H 	H 	0.02110 0.88340 0.73610 0.01400
C 	C 	0.06690 0.86470 0.78240 -0.04000
H 	H 	0.04180 0.86200 0.80000 0.05200
Zn	Zn	0.10131 0.13200 0.17627 1.21500
Zn	Zn	0.09171 0.13147 0.09736 1.21700
O 	O 	0.64739 0.54910 0.10581 -0.46000
O 	O 	0.15652 0.20010 0.10734 -0.46300
O 	O 	0.03844 0.21472 0.10461 -0.45000
O 	O 	0.52976 0.56442 0.11128 -0.46900
O 	O 	0.66534 0.56730 0.16438 -0.47000
O 	O 	0.03423 0.19598 0.16362 -0.46700
O 	O 	0.54774 0.54537 0.16997 -0.45400
O 	O 	0.15247 0.21682 0.16629 -0.45600
N 	N 	0.60680 0.36946 0.72981 -0.25300
N 	N 	0.02419 0.11885 0.99320 -0.14500
N 	N 	0.07516 0.11947 0.04454 -0.24500
N 	N 	0.85271 0.17120 0.85194 -0.05200
N 	N 	0.80670 0.20150 0.83492 -0.09100
N 	N 	0.81398 0.23580 0.89240 -0.13200
C 	C 	0.43034 0.49090 0.11083 0.03700
H 	H 	0.43700 0.52000 0.09140 0.02800
C 	C 	0.72545 0.49120 0.13475 -0.12300
C 	C 	0.51933 0.53703 0.14039 0.37700
N 	N 	0.63085 0.35880 0.78694 -0.16000
C 	C 	0.46863 0.48910 0.14023 -0.12400
C 	C 	0.73572 0.45130 0.10527 0.05200
H 	H 	0.71070 0.45290 0.08520 0.02800
C 	C 	0.67531 0.53943 0.13494 0.38900
C 	C 	0.76276 0.48810 0.16476 0.04900
H 	H 	0.75560 0.51460 0.18500 0.02900
C 	C 	0.82169 0.40520 0.13449 0.04500
C 	C 	0.17298 0.22760 0.13685 0.38800
C 	C 	0.98118 0.13680 0.96638 0.13900
C 	C 	0.01763 0.22500 0.13431 0.38000
C 	C 	0.85584 0.19300 0.88631 0.11000
C 	C 	0.06602 0.06920 0.99052 0.00600
H 	H 	0.07200 0.04060 0.97080 0.03000
C 	C 	0.81031 0.44630 0.16485 -0.10800
H 	H 	0.83500 0.44510 0.18500 0.07000
C 	C 	0.09691 0.06990 0.02219 0.00500
H 	H 	0.12800 0.04120 0.02790 0.02900
C 	C 	0.65980 0.33770 0.81994 0.19700
C 	C 	0.22298 0.27670 0.13703 -0.11700
C 	C 	0.96457 0.08560 0.94085 -0.14600
H 	H 	0.98040 0.03960 0.94140 0.09300
C 	C 	0.90023 0.17100 0.91318 -0.05200
C 	C 	0.87290 0.36060 0.13470 0.04700
C 	C 	0.92378 0.10440 0.91433 0.02200
H 	H 	0.91240 0.07050 0.89700 0.03400
C 	C 	0.78332 0.40850 0.10505 -0.10800
H 	H 	0.78950 0.38150 0.08480 0.07000
C 	C 	0.38183 0.44940 0.11013 -0.10900
H 	H 	0.35630 0.45110 0.09040 0.06800
C 	C 	0.96849 0.27390 0.13441 -0.12200
C 	C 	0.24860 0.29050 0.10607 0.04700
H 	H 	0.23340 0.27160 0.08460 0.03000
C 	C 	0.78479 0.24010 0.85992 0.06700
C 	C 	0.37170 0.40530 0.13898 0.04000
C 	C 	0.94532 0.30440 0.10292 0.04700
H 	H 	0.96170 0.29570 0.08170 0.02800
C 	C 	0.32012 0.36070 0.13852 0.04700
C 	C 	0.03115 0.14720 0.02621 0.10000
H 	H 	0.00790 0.18210 0.03510 -0.00500
C 	C 	0.65990 0.34210 0.88288 0.17400
H 	H 	0.64390 0.35560 0.90360 -0.03000
C 	C 	0.94363 0.28850 0.16605 0.05000
H 	H 	0.95920 0.26970 0.18740 0.02800
C 	C 	0.89840 0.34750 0.10265 -0.11200
H 	H 	0.88360 0.36790 0.08140 0.06900
C 	C 	0.64088 0.34120 0.75431 0.13400
H 	H 	0.67010 0.31100 0.74910 -0.02000
C 	C 	0.70806 0.29870 0.82157 -0.21800
H 	H 	0.72380 0.28440 0.80080 0.11500
C 	C 	0.73300 0.28110 0.85455 0.12200
C 	C 	0.45918 0.44570 0.16917 0.03600
H 	H 	0.48490 0.44460 0.18890 0.02200
C 	C 	0.29640 0.33190 0.10650 -0.11300
H 	H 	0.31290 0.34070 0.08540 0.07100
C 	C 	0.95760 0.20430 0.96614 -0.15000
H 	H 	0.96920 0.23830 0.98330 0.08700
C 	C 	0.91640 0.22110 0.94000 0.02500
H 	H 	0.89910 0.26610 0.94020 0.02900
C 	C 	0.63630 0.35970 0.85104 -0.24500
H 	H 	0.60380 0.38710 0.84940 0.12500
C 	C 	0.41127 0.40380 0.16874 -0.11000
H 	H 	0.40510 0.37450 0.18820 0.06600
C 	C 	0.89667 0.33020 0.16598 -0.11200
H 	H 	0.88040 0.33830 0.18730 0.07200
C 	C 	0.29370 0.34770 0.16964 -0.11100
H 	H 	0.30850 0.36700 0.19110 0.06900
C 	C 	0.70670 0.30490 0.88420 -0.21200
H 	H 	0.72350 0.29360 0.90660 0.11100
C 	C 	0.24580 0.30640 0.16913 0.04300
H 	H 	0.22870 0.29830 0.19010 0.03000
C 	C 	0.58840 0.43290 0.74770 -0.03500
H 	H 	0.56830 0.47080 0.73670 0.03800
C 	C 	0.60450 0.42950 0.78290 0.01800
H 	H 	0.59990 0.46420 0.80040 0.02700
C 	C 	0.89060 0.12770 0.83187 -0.37600
H 	H 	0.87760 0.07860 0.83040 0.15800
H 	H 	0.89190 0.14720 0.80830 0.15200
H 	H 	0.92730 0.12880 0.84380 0.15000
C 	C 	0.55610 0.37460 0.74740 0.01800
H 	H 	0.52110 0.38340 0.73610 0.01400
C 	C 	0.56690 0.36470 0.78240 -0.04000
H 	H 	0.54180 0.36200 0.80000 0.05200
Zn	Zn	0.39869 0.36800 0.82373 1.21500
Zn	Zn	0.40829 0.36853 0.90264 1.21700
O 	O 	0.85261 0.95090 0.89419 -0.46000
O 	O 	0.34348 0.29990 0.89266 -0.46300
O 	O 	0.46156 0.28528 0.89539 -0.45000
O 	O 	0.97024 0.93558 0.88872 -0.46900
O 	O 	0.83466 0.93270 0.83562 -0.47000
O 	O 	0.46577 0.30402 0.83638 -0.46700
O 	O 	0.95226 0.95463 0.83003 -0.45400
O 	O 	0.34753 0.28318 0.83371 -0.45600
N 	N 	0.89320 0.13054 0.27019 -0.25300
N 	N 	0.47581 0.38115 0.00680 -0.14500
N 	N 	0.42484 0.38053 0.95546 -0.24500
N 	N 	0.64729 0.32880 0.14806 -0.05200
N 	N 	0.69330 0.29850 0.16508 -0.09100
N 	N 	0.68602 0.26420 0.10760 -0.13200
C 	C 	0.06966 0.00910 0.88917 0.03700
H 	H 	0.06300 0.98000 0.90860 0.02700
C 	C 	0.77455 0.00880 0.86525 -0.12300
C 	C 	0.98067 0.96297 0.85961 0.37600
N 	N 	0.86915 0.14120 0.21306 -0.16000
C 	C 	0.03137 0.01090 0.85977 -0.12400
C 	C 	0.76428 0.04870 0.89473 0.05200
H 	H 	0.78930 0.04710 0.91480 0.02800
C 	C 	0.82469 0.96057 0.86506 0.38900
C 	C 	0.73724 0.01190 0.83524 0.04900
H 	H 	0.74440 0.98540 0.81500 0.02900
C 	C 	0.67831 0.09480 0.86551 0.04500
C 	C 	0.32702 0.27240 0.86315 0.38800
C 	C 	0.51882 0.36320 0.03362 0.13900
C 	C 	0.48237 0.27500 0.86569 0.38100
C 	C 	0.64416 0.30700 0.11369 0.11000
C 	C 	0.43398 0.43080 0.00948 0.00600
H 	H 	0.42800 0.45940 0.02920 0.03000
C 	C 	0.68969 0.05370 0.83515 -0.10900
H 	H 	0.66500 0.05490 0.81500 0.07000
C 	C 	0.40309 0.43010 0.97781 0.00500
H 	H 	0.37200 0.45880 0.97210 0.02900
C 	C 	0.84020 0.16230 0.18006 0.19700
C 	C 	0.27702 0.22330 0.86297 -0.11700
C 	C 	0.53543 0.41440 0.05915 -0.14600
H 	H 	0.51960 0.46040 0.05860 0.09300
C 	C 	0.59977 0.32900 0.08682 -0.05200
C 	C 	0.62710 0.13940 0.86530 0.04700
C 	C 	0.57622 0.39560 0.08567 0.02200
H 	H 	0.58760 0.42950 0.10300 0.03400
C 	C 	0.71668 0.09150 0.89495 -0.10800
H 	H 	0.71050 0.11850 0.91520 0.07000
C 	C 	0.11817 0.05060 0.88987 -0.10900
H 	H 	0.14370 0.04890 0.90960 0.06800
C 	C 	0.53151 0.22610 0.86559 -0.12200
C 	C 	0.25140 0.20950 0.89393 0.04700
H 	H 	0.26660 0.22840 0.91540 0.03000
C 	C 	0.71521 0.25990 0.14008 0.06700
C 	C 	0.12830 0.09470 0.86102 0.04000
C 	C 	0.55468 0.19560 0.89708 0.04700
H 	H 	0.53830 0.20430 0.91830 0.02800
C 	C 	0.17988 0.13930 0.86148 0.04700
C 	C 	0.46885 0.35280 0.97379 0.10000
H 	H 	0.49210 0.31790 0.96490 -0.00500
C 	C 	0.84010 0.15790 0.11712 0.17400
H 	H 	0.85610 0.14440 0.09640 -0.03000
C 	C 	0.55637 0.21150 0.83395 0.05000
H 	H 	0.54080 0.23030 0.81260 0.02800
C 	C 	0.60160 0.15250 0.89735 -0.11200
H 	H 	0.61640 0.13210 0.91860 0.06900
C 	C 	0.85912 0.15880 0.24569 0.13400
H 	H 	0.82990 0.18900 0.25090 -0.02000
C 	C 	0.79194 0.20130 0.17843 -0.21800
H 	H 	0.77620 0.21560 0.19920 0.11500
C 	C 	0.76700 0.21890 0.14545 0.12200
C 	C 	0.04082 0.05430 0.83083 0.03600
H 	H 	0.01510 0.05540 0.81110 0.02200
C 	C 	0.20360 0.16810 0.89350 -0.11300
H 	H 	0.18710 0.15930 0.91460 0.07100
C 	C 	0.54240 0.29570 0.03386 -0.15000
H 	H 	0.53080 0.26170 0.01670 0.08700
C 	C 	0.58360 0.27890 0.06000 0.02500
H 	H 	0.60090 0.23390 0.05980 0.02900
C 	C 	0.86370 0.14030 0.14896 -0.24500
H 	H 	0.89620 0.11290 0.15060 0.12500
C 	C 	0.08873 0.09620 0.83126 -0.11000
H 	H 	0.09490 0.12550 0.81180 0.06600
C 	C 	0.60333 0.16980 0.83402 -0.11200
H 	H 	0.61960 0.16170 0.81270 0.07200
C 	C 	0.20630 0.15230 0.83036 -0.11100
H 	H 	0.19150 0.13300 0.80890 0.06900
C 	C 	0.79330 0.19510 0.11580 -0.21200
H 	H 	0.77650 0.20640 0.09340 0.11100
C 	C 	0.25420 0.19360 0.83087 0.04300
H 	H 	0.27130 0.20170 0.80990 0.03000
C 	C 	0.91160 0.06710 0.25230 -0.03500
H 	H 	0.93170 0.02920 0.26330 0.03800
C 	C 	0.89550 0.07050 0.21710 0.01800
H 	H 	0.90010 0.03580 0.19960 0.02700
C 	C 	0.60940 0.37230 0.16813 -0.37600
H 	H 	0.62240 0.42140 0.16960 0.15800
H 	H 	0.60810 0.35280 0.19170 0.15200
H 	H 	0.57270 0.37120 0.15620 0.15000
C 	C 	0.94390 0.12540 0.25260 0.01800
H 	H 	0.97890 0.11660 0.26390 0.01400
C 	C 	0.93310 0.13530 0.21760 -0.04000
H 	H 	0.95820 0.13800 0.20000 0.05200
Zn	Zn	0.89869 0.86800 0.82373 1.21500
Zn	Zn	0.90829 0.86853 0.90264 1.21700
O 	O 	0.35261 0.45090 0.89419 -0.46000
O 	O 	0.84348 0.79990 0.89266 -0.46300
O 	O 	0.96156 0.78528 0.89539 -0.45000
O 	O 	0.47024 0.43558 0.88872 -0.46900
O 	O 	0.33466 0.43270 0.83562 -0.47000
O 	O 	0.96577 0.80402 0.83638 -0.46700
O 	O 	0.45226 0.45463 0.83003 -0.45400
O 	O 	0.84753 0.78318 0.83371 -0.45600
N 	N 	0.39320 0.63054 0.27019 -0.25300
N 	N 	0.97581 0.88115 0.00680 -0.14500
N 	N 	0.92484 0.88053 0.95546 -0.24500
N 	N 	0.14729 0.82880 0.14806 -0.05200
N 	N 	0.19330 0.79850 0.16508 -0.09100
N 	N 	0.18602 0.76420 0.10760 -0.13200
C 	C 	0.56966 0.50910 0.88917 0.03700
H 	H 	0.56300 0.48000 0.90860 0.02800
C 	C 	0.27455 0.50880 0.86525 -0.12300
C 	C 	0.48067 0.46297 0.85961 0.37700
N 	N 	0.36915 0.64120 0.21306 -0.16000
C 	C 	0.53137 0.51090 0.85977 -0.12400
C 	C 	0.26428 0.54870 0.89473 0.05200
H 	H 	0.28930 0.54710 0.91480 0.02800
C 	C 	0.32469 0.46057 0.86506 0.38900
C 	C 	0.23724 0.51190 0.83524 0.04900
H 	H 	0.24440 0.48540 0.81500 0.02900
C 	C 	0.17831 0.59480 0.86551 0.04500
C 	C 	0.82702 0.77240 0.86315 0.38800
C 	C 	0.01882 0.86320 0.03362 0.13900
C 	C 	0.98237 0.77500 0.86569 0.38000
C 	C 	0.14416 0.80700 0.11369 0.11000
C 	C 	0.93398 0.93080 0.00948 0.00600
H 	H 	0.92800 0.95940 0.02920 0.03000
C 	C 	0.18969 0.55370 0.83515 -0.10800
H 	H 	0.16500 0.55490 0.81500 0.07000
C 	C 	0.90309 0.93010 0.97781 0.00500
H 	H 	0.87200 0.95880 0.97210 0.02900
C 	C 	0.34020 0.66230 0.18006 0.19700
C 	C 	0.77702 0.72330 0.86297 -0.11700
C 	C 	0.03543 0.91440 0.05915 -0.14600
H 	H 	0.01960 0.96040 0.05860 0.09300
C 	C 	0.09977 0.82900 0.08682 -0.05200
C 	C 	0.12710 0.63940 0.86530 0.04700
C 	C 	0.07622 0.89560 0.08567 0.02200
H 	H 	0.08760 0.92950 0.10300 0.03400
C 	C 	0.21668 0.59150 0.89495 -0.10800
H 	H 	0.21050 0.61850 0.91520 0.07000
C 	C 	0.61817 0.55060 0.88987 -0.10900
H 	H 	0.64370 0.54890 0.90960 0.06800
C 	C 	0.03151 0.72610 0.86559 -0.12200
C 	C 	0.75140 0.70950 0.89393 0.04700
H 	H 	0.76660 0.72840 0.91540 0.03000
C 	C 	0.21521 0.75990 0.14008 0.06700
C 	C 	0.62830 0.59470 0.86102 0.04000
C 	C 	0.05468 0.69560 0.89708 0.04700
H 	H 	0.03830 0.70430 0.91830 0.02800
C 	C 	0.67988 0.63930 0.86148 0.04700
C 	C 	0.96885 0.85280 0.97379 0.10000
H 	H 	0.99210 0.81790 0.96490 -0.00500
C 	C 	0.34010 0.65790 0.11712 0.17400
H 	H 	0.35610 0.64440 0.09640 -0.03000
C 	C 	0.05637 0.71150 0.83395 0.05000
H 	H 	0.04080 0.73030 0.81260 0.02800
C 	C 	0.10160 0.65250 0.89735 -0.11200
H 	H 	0.11640 0.63210 0.91860 0.06900
C 	C 	0.35912 0.65880 0.24569 0.13400
H 	H 	0.32990 0.68900 0.25090 -0.02000
C 	C 	0.29194 0.70130 0.17843 -0.21800
H 	H 	0.27620 0.71560 0.19920 0.11500
C 	C 	0.26700 0.71890 0.14545 0.12200
C 	C 	0.54082 0.55430 0.83083 0.03600
H 	H 	0.51510 0.55540 0.81110 0.02200
C 	C 	0.70360 0.66810 0.89350 -0.11300
H 	H 	0.68710 0.65930 0.91460 0.07100
C 	C 	0.04240 0.79570 0.03386 -0.15000
H 	H 	0.03080 0.76170 0.01670 0.08700
C 	C 	0.08360 0.77890 0.06000 0.02500
H 	H 	0.10090 0.73390 0.05980 0.02900
C 	C 	0.36370 0.64030 0.14896 -0.24500
H 	H 	0.39620 0.61290 0.15060 0.12500
C 	C 	0.58873 0.59620 0.83126 -0.11000
H 	H 	0.59490 0.62550 0.81180 0.06600
C 	C 	0.10333 0.66980 0.83402 -0.11200
H 	H 	0.11960 0.66170 0.81270 0.07200
C 	C 	0.70630 0.65230 0.83036 -0.11100
H 	H 	0.69150 0.63300 0.80890 0.06900
C 	C 	0.29330 0.69510 0.11580 -0.21200
H 	H 	0.27650 0.70640 0.09340 0.11100
C 	C 	0.75420 0.69360 0.83087 0.04300
H 	H 	0.77130 0.70170 0.80990 0.03000
C 	C 	0.41160 0.56710 0.25230 -0.03500
H 	H 	0.43170 0.52920 0.26330 0.03800
C 	C 	0.39550 0.57050 0.21710 0.01800
H 	H 	0.40010 0.53580 0.19960 0.02700
C 	C 	0.10940 0.87230 0.16813 -0.37600
H 	H 	0.12240 0.92140 0.16960 0.15800
H 	H 	0.10810 0.85280 0.19170 0.15200
H 	H 	0.07270 0.87120 0.15620 0.15000
C 	C 	0.44390 0.62540 0.25260 0.01800
H 	H 	0.47890 0.61660 0.26390 0.01400
C 	C 	0.43310 0.63530 0.21760 -0.04000
H 	H 	0.45820 0.63800 0.20000 0.05200
Zn	Zn	0.39869 0.63200 0.32373 1.21500
Zn	Zn	0.40829 0.63147 0.40264 1.21700
O 	O 	0.85261 0.04910 0.39419 -0.46000
O 	O 	0.34348 0.70010 0.39266 -0.46300
O 	O 	0.46156 0.71472 0.39539 -0.45000
O 	O 	0.97024 0.06442 0.38872 -0.46900
O 	O 	0.83466 0.06730 0.33562 -0.47000
O 	O 	0.46577 0.69598 0.33638 -0.46700
O 	O 	0.95226 0.04537 0.33003 -0.45400
O 	O 	0.34753 0.71682 0.33371 -0.45600
N 	N 	0.89320 0.86946 0.77019 -0.25300
N 	N 	0.47581 0.61885 0.50680 -0.14500
N 	N 	0.42484 0.61947 0.45546 -0.24500
N 	N 	0.64729 0.67120 0.64806 -0.05200
N 	N 	0.69330 0.70150 0.66508 -0.09100
N 	N 	0.68602 0.73580 0.60760 -0.13200
C 	C 	0.06966 0.99090 0.38917 0.03700
H 	H 	0.06300 0.02000 0.40860 0.02700
C 	C 	0.77455 0.99120 0.36525 -0.12300
C 	C 	0.98067 0.03703 0.35961 0.37700
N 	N 	0.86915 0.85880 0.71306 -0.16000
C 	C 	0.03137 0.98910 0.35977 -0.12400
C 	C 	0.76428 0.95130 0.39473 0.05200
H 	H 	0.78930 0.95290 0.41480 0.02800
C 	C 	0.82469 0.03943 0.36506 0.38900
C 	C 	0.73724 0.98810 0.33524 0.04900
H 	H 	0.74440 0.01460 0.31500 0.02900
C 	C 	0.67831 0.90520 0.36551 0.04500
C 	C 	0.32702 0.72760 0.36315 0.38800
C 	C 	0.51882 0.63680 0.53362 0.13900
C 	C 	0.48237 0.72500 0.36569 0.38100
C 	C 	0.64416 0.69300 0.61369 0.11000
C 	C 	0.43398 0.56920 0.50948 0.00600
H 	H 	0.42800 0.54060 0.52920 0.03000
C 	C 	0.68969 0.94630 0.33515 -0.10800
H 	H 	0.66500 0.94510 0.31500 0.07000
C 	C 	0.40309 0.56990 0.47781 0.00500
H 	H 	0.37200 0.54120 0.47210 0.02900
C 	C 	0.84020 0.83770 0.68006 0.19700
C 	C 	0.27702 0.77670 0.36297 -0.11700
C 	C 	0.53543 0.58560 0.55915 -0.14600
H 	H 	0.51960 0.53960 0.55860 0.09300
C 	C 	0.59977 0.67100 0.58682 -0.05200
C 	C 	0.62710 0.86060 0.36530 0.04700
C 	C 	0.57622 0.60440 0.58567 0.02200
H 	H 	0.58760 0.57050 0.60300 0.03400
C 	C 	0.71668 0.90850 0.39495 -0.10800
H 	H 	0.71050 0.88150 0.41520 0.07000
C 	C 	0.11817 0.94940 0.38987 -0.10900
H 	H 	0.14370 0.95110 0.40960 0.06800
C 	C 	0.53151 0.77390 0.36559 -0.12200
C 	C 	0.25140 0.79050 0.39393 0.04700
H 	H 	0.26660 0.77160 0.41540 0.03000
C 	C 	0.71521 0.74010 0.64008 0.06700
C 	C 	0.12830 0.90530 0.36102 0.04000
C 	C 	0.55468 0.80440 0.39708 0.04700
H 	H 	0.53830 0.79570 0.41830 0.02800
C 	C 	0.17988 0.86070 0.36148 0.04700
C 	C 	0.46885 0.64720 0.47379 0.10000
H 	H 	0.49210 0.68210 0.46490 -0.00500
C 	C 	0.84010 0.84210 0.61712 0.17400
H 	H 	0.85610 0.85560 0.59640 -0.03000
C 	C 	0.55637 0.78850 0.33395 0.05000
H 	H 	0.54080 0.76970 0.31260 0.02800
C 	C 	0.60160 0.84750 0.39735 -0.11200
H 	H 	0.61640 0.86790 0.41860 0.06900
C 	C 	0.85912 0.84120 0.74569 0.13400
H 	H 	0.82990 0.81100 0.75090 -0.02000
C 	C 	0.79194 0.79870 0.67843 -0.21800
H 	H 	0.77620 0.78440 0.69920 0.11500
C 	C 	0.76700 0.78110 0.64545 0.12200
C 	C 	0.04082 0.94570 0.33083 0.03600
H 	H 	0.01510 0.94460 0.31110 0.02200
C 	C 	0.20360 0.83190 0.39350 -0.11300
H 	H 	0.18710 0.84070 0.41460 0.07100
C 	C 	0.54240 0.70430 0.53386 -0.15000
H 	H 	0.53080 0.73830 0.51670 0.08700
C 	C 	0.58360 0.72110 0.56000 0.02500
H 	H 	0.60090 0.76610 0.55980 0.02900
C 	C 	0.86370 0.85970 0.64896 -0.24500
H 	H 	0.89620 0.88710 0.65060 0.12500
C 	C 	0.08873 0.90380 0.33126 -0.11000
H 	H 	0.09490 0.87450 0.31180 0.06600
C 	C 	0.60333 0.83020 0.33402 -0.11200
H 	H 	0.61960 0.83830 0.31270 0.07200
C 	C 	0.20630 0.84770 0.33036 -0.11100
H 	H 	0.19150 0.86700 0.30890 0.06900
C 	C 	0.79330 0.80490 0.61580 -0.21200
H 	H 	0.77650 0.79360 0.59340 0.11100
C 	C 	0.25420 0.80640 0.33087 0.04300
H 	H 	0.27130 0.79830 0.30990 0.03000
C 	C 	0.91160 0.93290 0.75230 -0.03500
H 	H 	0.93170 0.97080 0.76330 0.03800
C 	C 	0.89550 0.92950 0.71710 0.01800
H 	H 	0.90010 0.96420 0.69960 0.02700
C 	C 	0.60940 0.62770 0.66813 -0.37600
H 	H 	0.62240 0.57860 0.66960 0.15800
H 	H 	0.60810 0.64720 0.69170 0.15200
H 	H 	0.57270 0.62880 0.65620 0.15000
C 	C 	0.94390 0.87460 0.75260 0.01800
H 	H 	0.97890 0.88340 0.76390 0.01400
C 	C 	0.93310 0.86470 0.71760 -0.04000
H 	H 	0.95820 0.86200 0.70000 0.05200
Zn	Zn	0.89869 0.13200 0.32373 1.21500
Zn	Zn	0.90829 0.13147 0.40264 1.21700
O 	O 	0.35261 0.54910 0.39419 -0.46000
O 	O 	0.84348 0.20010 0.39266 -0.46300
O 	O 	0.96156 0.21472 0.39539 -0.45000
O 	O 	0.47024 0.56442 0.38872 -0.46900
O 	O 	0.33466 0.56730 0.33562 -0.47000
O 	O 	0.96577 0.19598 0.33638 -0.46700
O 	O 	0.45226 0.54537 0.33003 -0.45400
O 	O 	0.84753 0.21682 0.33371 -0.45600
N 	N 	0.39320 0.36946 0.77019 -0.25300
N 	N 	0.97581 0.11885 0.50680 -0.14500
N 	N 	0.92484 0.11947 0.45546 -0.24500
N 	N 	0.14729 0.17120 0.64806 -0.05200
N 	N 	0.19330 0.20150 0.66508 -0.09100
N 	N 	0.18602 0.23580 0.60760 -0.13200
C 	C 	0.56966 0.49090 0.38917 0.03700
H 	H 	0.56300 0.52000 0.40860 0.02800
C 	C 	0.27455 0.49120 0.36525 -0.12300
C 	C 	0.48067 0.53703 0.35961 0.37700
N 	N 	0.36915 0.35880 0.71306 -0.16000
C 	C 	0.53137 0.48910 0.35977 -0.12400
C 	C 	0.26428 0.45130 0.39473 0.05200
H 	H 	0.28930 0.45290 0.41480 0.02800
C 	C 	0.32469 0.53943 0.36506 0.38900
C 	C 	0.23724 0.48810 0.33524 0.04900
H 	H 	0.24440 0.51460 0.31500 0.02900
C 	C 	0.17831 0.40520 0.36551 0.04500
C 	C 	0.82702 0.22760 0.36315 0.38800
C 	C 	0.01882 0.13680 0.53362 0.13900
C 	C 	0.98237 0.22500 0.36569 0.38100
C 	C 	0.14416 0.19300 0.61369 0.11000
C 	C 	0.93398 0.06920 0.50948 0.00600
H 	H 	0.92800 0.04060 0.52920 0.03000
C 	C 	0.18969 0.44630 0.33515 -0.10800
H 	H 	0.16500 0.44510 0.31500 0.07000
C 	C 	0.90309 0.06990 0.47781 0.00500
H 	H 	0.87200 0.04120 0.47210 0.02900
C 	C 	0.34020 0.33770 0.68006 0.19700
C 	C 	0.77702 0.27670 0.36297 -0.11700
C 	C 	0.03543 0.08560 0.55915 -0.14600
H 	H 	0.01960 0.03960 0.55860 0.09300
C 	C 	0.09977 0.17100 0.58682 -0.05200
C 	C 	0.12710 0.36060 0.36530 0.04700
C 	C 	0.07622 0.10440 0.58567 0.02200
H 	H 	0.08760 0.07050 0.60300 0.03400
C 	C 	0.21668 0.40850 0.39495 -0.10800
H 	H 	0.21050 0.38150 0.41520 0.07000
C 	C 	0.61817 0.44940 0.38987 -0.10900
H 	H 	0.64370 0.45110 0.40960 0.06800
C 	C 	0.03151 0.27390 0.36559 -0.12200
C 	C 	0.75140 0.29050 0.39393 0.04700
H 	H 	0.76660 0.27160 0.41540 0.03000
C 	C 	0.21521 0.24010 0.64008 0.06700
C 	C 	0.62830 0.40530 0.36102 0.04000
C 	C 	0.05468 0.30440 0.39708 0.04700
H 	H 	0.03830 0.29570 0.41830 0.02800
C 	C 	0.67988 0.36070 0.36148 0.04700
C 	C 	0.96885 0.14720 0.47379 0.10000
H 	H 	0.99210 0.18210 0.46490 -0.00500
C 	C 	0.34010 0.34210 0.61712 0.17400
H 	H 	0.35610 0.35560 0.59640 -0.03000
C 	C 	0.05637 0.28850 0.33395 0.05000
H 	H 	0.04080 0.26970 0.31260 0.02800
C 	C 	0.10160 0.34750 0.39735 -0.11200
H 	H 	0.11640 0.36790 0.41860 0.06900
C 	C 	0.35912 0.34120 0.74569 0.13400
H 	H 	0.32990 0.31100 0.75090 -0.02000
C 	C 	0.29194 0.29870 0.67843 -0.21800
H 	H 	0.27620 0.28440 0.69920 0.11500
C 	C 	0.26700 0.28110 0.64545 0.12200
C 	C 	0.54082 0.44570 0.33083 0.03600
H 	H 	0.51510 0.44460 0.31110 0.02200
C 	C 	0.70360 0.33190 0.39350 -0.11300
H 	H 	0.68710 0.34070 0.41460 0.07100
C 	C 	0.04240 0.20430 0.53386 -0.15000
H 	H 	0.03080 0.23830 0.51670 0.08700
C 	C 	0.08360 0.22110 0.56000 0.02500
H 	H 	0.10090 0.26610 0.55980 0.02900
C 	C 	0.36370 0.35970 0.64896 -0.24500
H 	H 	0.39620 0.38710 0.65060 0.12500
C 	C 	0.58873 0.40380 0.33126 -0.11000
H 	H 	0.59490 0.37450 0.31180 0.06600
C 	C 	0.10333 0.33020 0.33402 -0.11200
H 	H 	0.11960 0.33830 0.31270 0.07200
C 	C 	0.70630 0.34770 0.33036 -0.11100
H 	H 	0.69150 0.36700 0.30890 0.06900
C 	C 	0.29330 0.30490 0.61580 -0.21200
H 	H 	0.27650 0.29360 0.59340 0.11100
C 	C 	0.75420 0.30640 0.33087 0.04300
H 	H 	0.77130 0.29830 0.30990 0.03000
C 	C 	0.41160 0.43290 0.75230 -0.03500
H 	H 	0.43170 0.47080 0.76330 0.03800
C 	C 	0.39550 0.42950 0.71710 0.01800
H 	H 	0.40010 0.46420 0.69960 0.02700
C 	C 	0.10940 0.12770 0.66813 -0.37600
H 	H 	0.12240 0.07860 0.66960 0.15800
H 	H 	0.10810 0.14720 0.69170 0.15200
H 	H 	0.07270 0.12880 0.65620 0.15000
C 	C 	0.44390 0.37460 0.75260 0.01800
H 	H 	0.47890 0.38340 0.76390 0.01400
C 	C 	0.43310 0.36470 0.71760 -0.04000
H 	H 	0.45820 0.36200 0.70000 0.05200
