data_crystal

_cell_length_a 13.81470
_cell_length_b 13.81470
_cell_length_c 19.49110
_cell_angle_alpha 90.00000
_cell_angle_beta  90.00000
_cell_angle_gamma 90.00000

_symmetry_space_group_name_	'P 1'
_symmetry_space_group_name_H-M	'P 1'

loop_
_symmetry_equiv_pos_as_xyz
  x,y,z

loop_
_atom_site_label
_atom_site_type_symbol
_atom_site_fract_x
_atom_site_fract_y
_atom_site_fract_z
_atom_site_charge
Co	Co	0.17966 0.78445 0.09570 1.12500
N 	N 	0.27520 0.76350 0.18289 -0.22100
O 	O 	0.10049 0.81969 0.00813 -0.82400
O 	O 	0.30720 0.79430 0.03914 -0.45100
N 	N 	0.17910 0.63200 0.07313 -0.22800
O 	O 	0.06110 0.77000 0.16038 -0.43800
C 	C 	0.25050 0.71380 0.23680 0.03400
C 	C 	0.36750 0.79750 0.18240 0.02000
Co	Co	0.15017 0.95687 0.98836 1.11900
H 	H 	0.11350 0.78150 0.97520 0.26100
C 	C 	0.33640 0.85070 0.99240 0.34400
C 	C 	0.22360 0.59690 0.01810 0.07700
C 	C 	0.13100 0.56710 0.10880 0.06000
H 	H 	0.18500 0.69370 0.24050 0.01000
C 	C 	0.31310 0.68840 0.28890 -0.04500
C 	C 	0.43510 0.77640 0.23230 -0.04300
H 	H 	0.38670 0.83810 0.14550 0.00500
O 	O 	0.28920 0.91660 0.96476 -0.46100
O 	O 	0.12350 0.95400 0.88210 -0.46000
C 	C 	0.43940 0.83480 0.96740 -0.06500
H 	H 	0.26220 0.64060 0.99220 -0.00800
C 	C 	0.21840 0.50310 0.99520 -0.11000
C 	C 	0.12350 0.47150 0.08970 -0.08300
H 	H 	0.09980 0.58730 0.14980 0.00800
H 	H 	0.29030 0.65170 0.32680 0.03100
C 	C 	0.40940 0.71650 0.28600 -0.06700
H 	H 	0.49850 0.80280 0.22980 0.04800
H 	H 	0.25100 0.48330 0.95470 0.07400
H 	H 	0.08810 0.42790 0.11780 0.07200
C 	C 	0.48110 0.68810 0.34050 0.36300
Co	Co	0.82034 0.21555 0.09570 1.12600
N 	N 	0.72480 0.23650 0.18289 -0.22100
O 	O 	0.89951 0.18031 0.00813 -0.83300
O 	O 	0.69280 0.20570 0.03914 -0.44900
N 	N 	0.82090 0.36800 0.07313 -0.22800
O 	O 	0.93890 0.23000 0.16038 -0.46800
C 	C 	0.74950 0.28620 0.23680 0.03500
C 	C 	0.63250 0.20250 0.18240 0.02100
Co	Co	0.84983 0.04313 0.98836 1.12400
H 	H 	0.88650 0.21850 0.97520 0.25900
C 	C 	0.66360 0.14930 0.99240 0.34400
C 	C 	0.77640 0.40310 0.01810 0.07000
C 	C 	0.86900 0.43290 0.10880 0.05500
H 	H 	0.81500 0.30630 0.24050 0.00600
C 	C 	0.68690 0.31160 0.28890 -0.04600
C 	C 	0.56490 0.22360 0.23230 -0.04300
H 	H 	0.61330 0.16190 0.14550 0.00800
O 	O 	0.71080 0.08340 0.96476 -0.45400
O 	O 	0.87650 0.04600 0.88210 -0.46800
C 	C 	0.56060 0.16520 0.96740 -0.06700
H 	H 	0.73780 0.35940 0.99220 -0.00600
C 	C 	0.78160 0.49690 0.99520 -0.10400
C 	C 	0.87650 0.52850 0.08970 -0.08200
H 	H 	0.90020 0.41270 0.14980 0.00300
H 	H 	0.70970 0.34830 0.32680 0.03000
C 	C 	0.59060 0.28350 0.28600 -0.06600
H 	H 	0.50150 0.19720 0.22980 0.05000
H 	H 	0.74900 0.51670 0.95470 0.07100
H 	H 	0.91190 0.57210 0.11780 0.06500
C 	C 	0.51890 0.31190 0.34050 0.36300
Co	Co	0.78445 0.82034 0.90430 1.12400
N 	N 	0.76350 0.72480 0.81711 -0.22200
O 	O 	0.81969 0.89951 0.99187 -0.85300
O 	O 	0.79430 0.69280 0.96086 -0.46100
N 	N 	0.63200 0.82090 0.92687 -0.21300
O 	O 	0.77000 0.93890 0.83962 -0.46800
C 	C 	0.71380 0.74950 0.76320 0.03400
C 	C 	0.79750 0.63250 0.81760 0.01900
Co	Co	0.95687 0.84983 0.01164 1.12100
H 	H 	0.78150 0.88650 0.02480 0.27500
C 	C 	0.85070 0.66360 0.00760 0.34500
C 	C 	0.59690 0.77640 0.98190 0.00200
C 	C 	0.56710 0.86900 0.89120 0.03700
H 	H 	0.69370 0.81500 0.75950 0.00600
C 	C 	0.68840 0.68690 0.71110 -0.04700
C 	C 	0.77640 0.56490 0.76770 -0.04400
H 	H 	0.83810 0.61330 0.85450 0.00300
O 	O 	0.91660 0.71080 0.03524 -0.45900
O 	O 	0.95400 0.87650 0.11790 -0.46600
C 	C 	0.83480 0.56060 0.03260 -0.02100
H 	H 	0.64060 0.73780 0.00780 0.02600
C 	C 	0.50310 0.78160 0.00480 -0.02900
C 	C 	0.47150 0.87650 0.91030 -0.05200
H 	H 	0.58730 0.90020 0.85020 0.00900
H 	H 	0.65170 0.70970 0.67320 0.03000
C 	C 	0.71650 0.59060 0.71400 -0.06700
H 	H 	0.80280 0.50150 0.77020 0.04700
H 	H 	0.48330 0.74900 0.04530 0.04900
H 	H 	0.42790 0.91190 0.88220 0.05600
C 	C 	0.68810 0.51890 0.65950 0.36300
Co	Co	0.21555 0.17966 0.90430 1.12600
N 	N 	0.23650 0.27520 0.81711 -0.22000
O 	O 	0.18031 0.10049 0.99187 -0.84600
O 	O 	0.20570 0.30720 0.96086 -0.46100
N 	N 	0.36800 0.17910 0.92687 -0.21100
O 	O 	0.23000 0.06110 0.83962 -0.43500
C 	C 	0.28620 0.25050 0.76320 0.03500
C 	C 	0.20250 0.36750 0.81760 0.02100
Co	Co	0.04313 0.15017 0.01164 1.13400
H 	H 	0.21850 0.11350 0.02480 0.28000
C 	C 	0.14930 0.33640 0.00760 0.34600
C 	C 	0.40310 0.22360 0.98190 -0.00500
C 	C 	0.43290 0.13100 0.89120 0.03800
H 	H 	0.30630 0.18500 0.75950 0.01000
C 	C 	0.31160 0.31310 0.71110 -0.04500
C 	C 	0.22360 0.43510 0.76770 -0.04300
H 	H 	0.16190 0.38670 0.85450 0.00700
O 	O 	0.08340 0.28920 0.03524 -0.45000
O 	O 	0.04600 0.12350 0.11790 -0.45800
C 	C 	0.16520 0.43940 0.03260 -0.01500
H 	H 	0.35940 0.26220 0.00780 0.03000
C 	C 	0.49690 0.21840 0.00480 -0.02000
C 	C 	0.52850 0.12350 0.91030 -0.04800
H 	H 	0.41270 0.09980 0.85020 0.01500
H 	H 	0.34830 0.29030 0.67320 0.03100
C 	C 	0.28350 0.40940 0.71400 -0.06600
H 	H 	0.19720 0.49850 0.77020 0.05000
H 	H 	0.51670 0.25100 0.04530 0.04700
H 	H 	0.57210 0.08810 0.88220 0.06000
C 	C 	0.31190 0.48110 0.65950 0.36300
Co	Co	0.32034 0.28445 0.40430 1.12600
N 	N 	0.22480 0.26350 0.31711 -0.22000
O 	O 	0.39951 0.31969 0.49187 -0.83800
O 	O 	0.19280 0.29430 0.46086 -0.45100
N 	N 	0.32090 0.13200 0.42687 -0.21600
O 	O 	0.43890 0.27000 0.33962 -0.45200
C 	C 	0.24950 0.21380 0.26320 0.03500
C 	C 	0.13250 0.29750 0.31760 0.02100
Co	Co	0.34983 0.45687 0.51164 1.12700
H 	H 	0.38650 0.28150 0.52480 0.26900
C 	C 	0.16360 0.35070 0.50760 0.33400
C 	C 	0.27640 0.09690 0.48190 0.00900
C 	C 	0.36900 0.06710 0.39120 0.06200
H 	H 	0.31500 0.19370 0.25950 0.01000
C 	C 	0.18690 0.18840 0.21110 -0.04200
C 	C 	0.06490 0.27640 0.26770 -0.03900
H 	H 	0.11330 0.33810 0.35450 0.00800
O 	O 	0.21080 0.41660 0.53524 -0.45200
O 	O 	0.37650 0.45400 0.61790 -0.46100
C 	C 	0.06060 0.33480 0.53260 -0.00600
H 	H 	0.23780 0.14060 0.50780 0.02200
C 	C 	0.28160 0.00310 0.50480 0.00200
C 	C 	0.37650 0.97150 0.41030 -0.07200
H 	H 	0.40020 0.08730 0.35020 0.00700
H 	H 	0.20970 0.15170 0.17320 0.03200
C 	C 	0.09060 0.21650 0.21400 -0.06900
H 	H 	0.00150 0.30280 0.27020 0.05300
H 	H 	0.24900 0.98330 0.54530 0.02900
H 	H 	0.41190 0.92790 0.38220 0.06300
C 	C 	0.01890 0.18810 0.15950 0.38300
Co	Co	0.67966 0.71555 0.40430 1.12500
N 	N 	0.77520 0.73650 0.31711 -0.22200
O 	O 	0.60049 0.68031 0.49187 -0.83700
O 	O 	0.80720 0.70570 0.46086 -0.45900
N 	N 	0.67910 0.86800 0.42687 -0.22300
O 	O 	0.56110 0.73000 0.33962 -0.45200
C 	C 	0.75050 0.78620 0.26320 0.03400
C 	C 	0.86750 0.70250 0.31760 0.02000
Co	Co	0.65017 0.54313 0.51164 1.12700
H 	H 	0.61350 0.71850 0.52480 0.26800
C 	C 	0.83640 0.64930 0.50760 0.35400
C 	C 	0.72360 0.90310 0.48190 0.06000
C 	C 	0.63100 0.93290 0.39120 0.03300
H 	H 	0.68500 0.80630 0.25950 0.00700
C 	C 	0.81310 0.81160 0.21110 -0.04900
C 	C 	0.93510 0.72360 0.26770 -0.04700
H 	H 	0.88670 0.66190 0.35450 0.00400
O 	O 	0.78920 0.58340 0.53524 -0.45900
O 	O 	0.62350 0.54600 0.61790 -0.46100
C 	C 	0.93940 0.66520 0.53260 -0.07500
H 	H 	0.76220 0.85940 0.50780 -0.00100
C 	C 	0.71840 0.99690 0.50480 -0.12900
C 	C 	0.62350 0.02850 0.41030 -0.06000
H 	H 	0.59980 0.91270 0.35020 0.01000
H 	H 	0.79030 0.84830 0.17320 0.02900
C 	C 	0.90940 0.78350 0.21400 -0.06500
H 	H 	0.99850 0.69720 0.27020 0.04400
H 	H 	0.75100 0.01670 0.54530 0.08900
H 	H 	0.58810 0.07210 0.38220 0.06400
C 	C 	0.98110 0.81190 0.15950 0.34400
Co	Co	0.71555 0.32034 0.59570 1.12500
N 	N 	0.73650 0.22480 0.68289 -0.22000
O 	O 	0.68031 0.39951 0.50813 -0.83700
O 	O 	0.70570 0.19280 0.53914 -0.45200
N 	N 	0.86800 0.32090 0.57313 -0.22400
O 	O 	0.73000 0.43890 0.66038 -0.45200
C 	C 	0.78620 0.24950 0.73680 0.03200
C 	C 	0.70250 0.13250 0.68240 0.01900
Co	Co	0.54313 0.34983 0.48836 1.12700
H 	H 	0.71850 0.38650 0.47520 0.26800
C 	C 	0.64930 0.16360 0.49240 0.33500
C 	C 	0.90310 0.27640 0.51810 0.06400
C 	C 	0.93290 0.36900 0.60880 0.03500
H 	H 	0.80630 0.31500 0.74050 0.00800
C 	C 	0.81160 0.18690 0.78890 -0.04200
C 	C 	0.72360 0.06490 0.73230 -0.03900
H 	H 	0.66190 0.11330 0.64550 0.00800
O 	O 	0.58340 0.21080 0.46476 -0.45300
O 	O 	0.54600 0.37650 0.38210 -0.46100
C 	C 	0.66520 0.06060 0.46740 -0.01100
H 	H 	0.85940 0.23780 0.49220 -0.00000
C 	C 	0.99690 0.28160 0.49520 -0.13400
C 	C 	0.02850 0.37650 0.58970 -0.06200
H 	H 	0.91270 0.40020 0.64980 0.01000
H 	H 	0.84830 0.20970 0.82680 0.02700
C 	C 	0.78350 0.09060 0.78600 -0.07200
H 	H 	0.69720 0.00150 0.72980 0.05200
H 	H 	0.01670 0.24900 0.45470 0.09400
H 	H 	0.07210 0.41190 0.61780 0.06500
C 	C 	0.81190 0.01890 0.84050 0.38100
Co	Co	0.28445 0.67966 0.59570 1.12600
N 	N 	0.26350 0.77520 0.68289 -0.22200
O 	O 	0.31969 0.60049 0.50813 -0.83800
O 	O 	0.29430 0.80720 0.53914 -0.45900
N 	N 	0.13200 0.67910 0.57313 -0.21600
O 	O 	0.27000 0.56110 0.66038 -0.45200
C 	C 	0.21380 0.75050 0.73680 0.03600
C 	C 	0.29750 0.86750 0.68240 0.02200
Co	Co	0.45687 0.65017 0.48836 1.12700
H 	H 	0.28150 0.61350 0.47520 0.26900
C 	C 	0.35070 0.83640 0.49240 0.35500
C 	C 	0.09690 0.72360 0.51810 0.01000
C 	C 	0.06710 0.63100 0.60880 0.05900
H 	H 	0.19370 0.68500 0.74050 0.00800
C 	C 	0.18840 0.81310 0.78890 -0.04900
C 	C 	0.27640 0.93510 0.73230 -0.04700
H 	H 	0.33810 0.88670 0.64550 0.00400
O 	O 	0.41660 0.78920 0.46476 -0.45900
O 	O 	0.45400 0.62350 0.38210 -0.46100
C 	C 	0.33480 0.93940 0.46740 -0.07700
H 	H 	0.14060 0.76220 0.49220 0.02000
C 	C 	0.00310 0.71840 0.49520 -0.00500
C 	C 	0.97150 0.62350 0.58970 -0.07200
H 	H 	0.08730 0.59980 0.64980 0.00700
H 	H 	0.15170 0.79030 0.82680 0.03200
C 	C 	0.21650 0.90940 0.78600 -0.06100
H 	H 	0.30280 0.99850 0.72980 0.04500
H 	H 	0.98330 0.75100 0.45470 0.03000
H 	H 	0.92790 0.58810 0.61780 0.06200
C 	C 	0.18810 0.98110 0.84050 0.34400
O 	O 	-0.00000 0.00000 -0.00000 -0.65400
O 	O 	0.50000 0.50000 0.50000 -0.67800
