data_crystal

_cell_length_a 22.00580
_cell_length_b 22.00580
_cell_length_c 72.83100
_cell_angle_alpha 90.00000
_cell_angle_beta  90.00000
_cell_angle_gamma 90.00000

_symmetry_space_group_name_	'P 1'
_symmetry_space_group_name_H-M	'P 1'

loop_
_symmetry_equiv_pos_as_xyz
  x,y,z

loop_
_atom_site_label
_atom_site_type_symbol
_atom_site_fract_x
_atom_site_fract_y
_atom_site_fract_z
_atom_site_charge
Co	Co	0.47966 0.90163 0.50949 1.06700
Co	Co	0.40162 0.02015 0.50163 1.06600
Co	Co	0.62008 0.89051 0.53540 1.12500
Co	Co	0.39029 0.87943 0.47578 1.12000
O 	O 	0.39517 0.92908 0.50039 -0.76700
H 	H 	0.36310 0.91460 0.50910 0.15200
O 	O 	0.57229 0.89401 0.51127 -0.76000
H 	H 	0.58710 0.86170 0.50270 0.15600
O 	O 	0.46628 0.92488 0.53717 -0.52700
O 	O 	0.54598 0.89290 0.55257 -0.47800
O 	O 	0.42723 0.03632 0.47423 -0.50900
O 	O 	0.70132 0.89048 0.52077 -0.46300
O 	O 	0.39296 0.79917 0.49040 -0.47900
O 	O 	0.68580 0.95522 0.49666 -0.44800
N 	N 	0.29262 0.87890 0.47531 -0.22900
N 	N 	0.17329 0.89888 0.70081 -0.25500
N 	N 	0.37590 0.20597 0.53586 -0.22800
C 	C 	0.71830 0.91920 0.50705 0.34000
C 	C 	0.42280 0.78100 0.50438 0.41300
C 	C 	0.41350 0.71720 0.50906 -0.15800
C 	C 	0.49060 0.90730 0.55174 0.42400
C 	C 	0.41300 0.00620 0.45937 0.39100
C 	C 	0.42290 0.63560 0.53190 -0.11900
H 	H 	0.43390 0.62360 0.54400 0.06400
C 	C 	0.38640 0.33280 0.53120 0.06300
C 	C 	0.24710 0.90480 0.66893 0.08100
C 	C 	0.34920 0.29960 0.52054 -0.11800
H 	H 	0.33010 0.31840 0.51030 0.06400
C 	C 	0.42240 0.30230 0.54327 -0.13600
H 	H 	0.45100 0.32320 0.55070 0.07300
C 	C 	0.26250 0.85290 0.48997 -0.00100
H 	H 	0.28630 0.83460 0.49930 0.01300
C 	C 	0.48326 0.92843 0.58599 0.06700
H 	H 	0.52530 0.93810 0.58660 0.01000
C 	C 	0.45627 0.91560 0.56918 -0.16600
C 	C 	0.39476 0.90150 0.56834 0.05800
H 	H 	0.37630 0.89270 0.55690 0.00100
C 	C 	0.36024 0.90024 0.58432 -0.12400
H 	H 	0.31820 0.89060 0.58380 0.06400
C 	C 	0.38723 0.91307 0.60113 0.04900
C 	C 	0.44874 0.92717 0.60197 -0.12600
H 	H 	0.46720 0.93590 0.61350 0.06600
C 	C 	0.25870 0.90260 0.46226 0.04100
H 	H 	0.27770 0.91990 0.45180 0.00600
C 	C 	0.41991 0.14067 0.42564 -0.12100
H 	H 	0.42540 0.18350 0.42580 0.06400
C 	C 	0.41629 0.10853 0.44203 0.04800
H 	H 	0.41930 0.12940 0.45340 0.00200
C 	C 	0.40821 0.04589 0.44176 -0.12800
C 	C 	0.40375 0.01539 0.42510 0.04400
H 	H 	0.39820 0.97260 0.42490 0.02200
C 	C 	0.40740 0.04753 0.40871 -0.11600
H 	H 	0.40430 0.02670 0.39730 0.06400
C 	C 	0.41544 0.11017 0.40898 0.05700
C 	C 	0.20280 0.85170 0.49182 -0.02300
H 	H 	0.18500 0.83260 0.50220 0.02600
C 	C 	0.16550 0.87850 0.47845 0.06300
C 	C 	0.33710 0.23480 0.52426 0.03700
H 	H 	0.30380 0.21420 0.51880 0.01500
C 	C 	0.37820 0.61430 0.50140 -0.11300
H 	H 	0.36050 0.58720 0.49280 0.06300
C 	C 	0.40680 0.48430 0.50761 -0.03700
H 	H 	0.41790 0.50030 0.49600 0.03700
C 	C 	0.37740 0.50730 0.54005 -0.04400
H 	H 	0.37030 0.53480 0.54990 0.03900
C 	C 	0.37590 0.44290 0.54314 -0.03500
H 	H 	0.36760 0.42760 0.55510 0.03800
C 	C 	0.40660 0.42040 0.51078 -0.04700
H 	H 	0.41870 0.39200 0.50170 0.04000
C 	C 	0.19620 0.90270 0.46355 -0.08300
H 	H 	0.17330 0.92010 0.45380 0.05100
C 	C 	0.39483 0.15812 0.35961 -0.04800
H 	H 	0.38380 0.13920 0.34840 0.04000
C 	C 	0.40820 0.21984 0.36001 -0.00200
C 	C 	0.42440 0.24751 0.37645 -0.04900
H 	H 	0.43350 0.28970 0.37670 0.03900
C 	C 	0.42720 0.21350 0.39250 -0.05200
H 	H 	0.43820 0.23240 0.40370 0.03700
C 	C 	0.41380 0.15170 0.39211 -0.00400
C 	C 	0.39770 0.12406 0.37566 -0.04800
H 	H 	0.38850 0.08190 0.37540 0.04100
C 	C 	0.38590 0.67770 0.49720 0.05200
H 	H 	0.37120 0.69270 0.48580 0.01900
C 	C 	0.39820 0.59280 0.51916 0.04000
O 	O 	0.39471 0.95470 0.45821 -0.48200
C 	C 	0.41620 0.23940 0.54435 0.07800
H 	H 	0.44410 0.21860 0.55210 0.00200
C 	C 	0.41384 0.35142 0.32592 0.03300
H 	H 	0.42290 0.39360 0.32600 0.01500
C 	C 	0.41800 0.31797 0.34206 -0.10700
H 	H 	0.42990 0.33730 0.35320 0.06000
C 	C 	0.40480 0.25620 0.34197 0.05400
C 	C 	0.38740 0.22788 0.32573 -0.11400
H 	H 	0.37840 0.18570 0.32570 0.06300
C 	C 	0.38330 0.26134 0.30960 0.04400
H 	H 	0.37140 0.24200 0.29850 0.01300
N 	N 	0.39645 0.32311 0.30969 -0.22100
O 	O 	0.45575 0.81267 0.51370 -0.48500
C 	C 	0.19020 0.87580 0.66877 0.05600
H 	H 	0.17520 0.85800 0.65780 0.00300
C 	C 	0.43050 0.69520 0.52614 0.05700
H 	H 	0.44870 0.72290 0.53450 0.02000
C 	C 	0.22870 0.92200 0.70038 -0.16200
H 	H 	0.24540 0.93530 0.71170 0.06600
C 	C 	0.26430 0.92850 0.68503 0.07900
H 	H 	0.30170 0.95000 0.68590 -0.00600
C 	C 	0.15590 0.87330 0.68473 -0.12800
H 	H 	0.11820 0.85240 0.68440 0.06800
C 	C 	0.32470 0.86220 0.64802 -0.02800
H 	H 	0.32740 0.82850 0.65610 0.03100
C 	C 	0.28720 0.91110 0.65234 -0.01000
C 	C 	0.28330 0.96040 0.64048 -0.03500
H 	H 	0.25770 0.99380 0.64340 0.03800
C 	C 	0.31680 0.96090 0.62429 -0.03800
H 	H 	0.31410 0.99460 0.61620 0.03700
C 	C 	0.35420 0.91200 0.61997 0.02800
C 	C 	0.35810 0.86270 0.63184 -0.04800
H 	H 	0.38370 0.82930 0.62890 0.04300
C 	C 	0.80250 0.90434 0.48314 0.01400
H 	H 	0.77300 0.90170 0.47360 0.02800
C 	C 	0.86390 0.89870 0.47901 -0.07000
H 	H 	0.87640 0.89220 0.46670 0.04700
C 	C 	0.90690 0.90260 0.49292 0.06700
C 	C 	0.88860 0.91210 0.51096 -0.08200
H 	H 	0.91800 0.91470 0.52050 0.05100
C 	C 	0.82720 0.91770 0.51508 0.02300
H 	H 	0.81460 0.92420 0.52740 0.01900
C 	C 	0.78410 0.91380 0.50117 -0.10900
C 	C 	0.07720 0.87497 0.49989 -0.04600
H 	H 	0.10430 0.86300 0.50940 0.03900
C 	C 	0.09930 0.88570 0.48231 -0.01200
C 	C 	0.05970 0.90330 0.46840 -0.04800
H 	H 	0.07480 0.91060 0.45640 0.04000
C 	C 	0.99810 0.91000 0.47209 -0.04800
H 	H 	0.97110 0.92200 0.46260 0.04000
C 	C 	0.97610 0.89920 0.48968 -0.00800
C 	C 	0.01560 0.88170 0.50358 -0.04800
H 	H 	0.00060 0.87430 0.51560 0.03900
C 	C 	0.38860 0.52770 0.52364 0.01800
C 	C 	0.38680 0.40250 0.52859 0.00900
C 	C 	0.16240 0.93490 0.68808 0.22900
H 	H 	0.12920 0.96200 0.68970 -0.06600
C 	C 	0.22250 0.86520 0.69885 0.22300
H 	H 	0.23220 0.83760 0.70840 -0.06000
C 	C 	0.26160 0.86700 0.68355 -0.23200
H 	H 	0.29740 0.84280 0.68320 0.10100
C 	C 	0.19490 0.93900 0.67162 -0.23600
H 	H 	0.18110 0.96550 0.66220 0.10700
C 	C 	0.20110 0.93160 0.47912 -0.06700
H 	H 	0.18210 0.96930 0.48180 0.04600
C 	C 	0.20330 0.82560 0.48114 -0.10300
H 	H 	0.18760 0.79080 0.48720 0.05800
C 	C 	0.26190 0.93040 0.47611 0.01700
H 	H 	0.28300 0.96770 0.47450 0.01700
C 	C 	0.26050 0.82580 0.47504 0.04900
H 	H 	0.27860 0.78950 0.47060 0.00800
C 	C 	0.33360 0.49770 0.52627 -0.03900
H 	H 	0.29670 0.52010 0.52640 0.03900
C 	C 	0.44260 0.49500 0.52350 -0.04300
H 	H 	0.48020 0.51550 0.52170 0.03700
C 	C 	0.44180 0.43240 0.52597 -0.03200
H 	H 	0.47870 0.41010 0.52590 0.04000
C 	C 	0.33280 0.43510 0.52874 -0.04000
H 	H 	0.29520 0.41460 0.53050 0.03900
C 	C 	0.30240 0.87880 0.61901 -0.05200
H 	H 	0.28890 0.86140 0.60780 0.04200
C 	C 	0.26560 0.87030 0.63747 -0.03800
H 	H 	0.23320 0.84220 0.63890 0.03800
C 	C 	0.33300 0.94620 0.65023 -0.02200
H 	H 	0.34420 0.97260 0.66000 0.02900
C 	C 	0.36710 0.94690 0.63405 -0.05100
H 	H 	0.40090 0.97360 0.63320 0.03800
C 	C 	0.81680 0.86160 0.50865 -0.00800
H 	H 	0.79740 0.83270 0.51640 0.03700
C 	C 	0.81490 0.95730 0.49081 0.01500
H 	H 	0.79490 0.99350 0.48720 0.01800
C 	C 	0.87300 0.94780 0.48602 -0.07000
H 	H 	0.89100 0.97440 0.47730 0.05000
C 	C 	0.87630 0.85660 0.50394 -0.05500
H 	H 	0.89870 0.82210 0.50790 0.04300
Co	Co	0.97966 0.40163 0.00949 1.06600
Co	Co	0.90162 0.52015 0.00163 1.06400
Co	Co	0.12008 0.39051 0.03540 1.12400
Co	Co	0.89029 0.37943 0.97578 1.11900
O 	O 	0.89517 0.42908 0.00039 -0.76700
H 	H 	0.86310 0.41460 0.00910 0.15200
O 	O 	0.07229 0.39401 0.01127 -0.76000
H 	H 	0.08710 0.36170 0.00270 0.15600
O 	O 	0.96628 0.42488 0.03717 -0.52700
O 	O 	0.04598 0.39290 0.05257 -0.47800
O 	O 	0.92723 0.53632 0.97423 -0.50900
O 	O 	0.20132 0.39048 0.02077 -0.46300
O 	O 	0.89296 0.29917 0.99040 -0.47900
O 	O 	0.18580 0.45522 0.99666 -0.44800
N 	N 	0.79262 0.37890 0.97531 -0.22900
N 	N 	0.67329 0.39888 0.20081 -0.25500
N 	N 	0.87590 0.70597 0.03586 -0.22800
C 	C 	0.21830 0.41920 0.00705 0.34000
C 	C 	0.92280 0.28100 0.00438 0.41300
C 	C 	0.91350 0.21720 0.00906 -0.15800
C 	C 	0.99060 0.40730 0.05174 0.42400
C 	C 	0.91300 0.50620 0.95937 0.39100
C 	C 	0.92290 0.13560 0.03190 -0.11900
H 	H 	0.93390 0.12360 0.04400 0.06400
C 	C 	0.88640 0.83280 0.03120 0.06300
C 	C 	0.74710 0.40480 0.16893 0.08100
C 	C 	0.84920 0.79960 0.02054 -0.11800
H 	H 	0.83010 0.81840 0.01030 0.06400
C 	C 	0.92240 0.80230 0.04327 -0.13600
H 	H 	0.95100 0.82320 0.05070 0.07300
C 	C 	0.76250 0.35290 0.98997 -0.00100
H 	H 	0.78630 0.33460 0.99930 0.01300
C 	C 	0.98326 0.42843 0.08599 0.06700
H 	H 	0.02530 0.43810 0.08660 0.01000
C 	C 	0.95627 0.41560 0.06918 -0.16600
C 	C 	0.89476 0.40150 0.06834 0.05800
H 	H 	0.87630 0.39270 0.05690 0.00100
C 	C 	0.86024 0.40024 0.08432 -0.12400
H 	H 	0.81820 0.39060 0.08380 0.06400
C 	C 	0.88723 0.41307 0.10113 0.04900
C 	C 	0.94874 0.42717 0.10197 -0.12600
H 	H 	0.96720 0.43590 0.11350 0.06600
C 	C 	0.75870 0.40260 0.96226 0.04100
H 	H 	0.77770 0.41990 0.95180 0.00600
C 	C 	0.91991 0.64067 0.92564 -0.12100
H 	H 	0.92540 0.68350 0.92580 0.06400
C 	C 	0.91629 0.60853 0.94203 0.04800
H 	H 	0.91930 0.62940 0.95340 0.00200
C 	C 	0.90821 0.54589 0.94176 -0.12800
C 	C 	0.90375 0.51539 0.92510 0.04400
H 	H 	0.89820 0.47260 0.92490 0.02200
C 	C 	0.90740 0.54753 0.90871 -0.11600
H 	H 	0.90430 0.52670 0.89730 0.06400
C 	C 	0.91544 0.61017 0.90898 0.05700
C 	C 	0.70280 0.35170 0.99182 -0.02300
H 	H 	0.68500 0.33260 0.00220 0.02600
C 	C 	0.66550 0.37850 0.97845 0.06300
C 	C 	0.83710 0.73480 0.02426 0.03700
H 	H 	0.80380 0.71420 0.01880 0.01500
C 	C 	0.87820 0.11430 0.00140 -0.11300
H 	H 	0.86050 0.08720 0.99280 0.06300
C 	C 	0.90680 0.98430 0.00761 -0.03700
H 	H 	0.91790 0.00030 0.99600 0.03700
C 	C 	0.87740 0.00730 0.04005 -0.04500
H 	H 	0.87030 0.03480 0.04990 0.04000
C 	C 	0.87590 0.94290 0.04314 -0.03400
H 	H 	0.86760 0.92760 0.05510 0.03700
C 	C 	0.90660 0.92040 0.01078 -0.04600
H 	H 	0.91870 0.89200 0.00170 0.04000
C 	C 	0.69620 0.40270 0.96355 -0.08300
H 	H 	0.67330 0.42010 0.95380 0.05100
C 	C 	0.89483 0.65812 0.85961 -0.04800
H 	H 	0.88380 0.63920 0.84840 0.04000
C 	C 	0.90820 0.71984 0.86001 -0.00200
C 	C 	0.92440 0.74751 0.87645 -0.04900
H 	H 	0.93350 0.78970 0.87670 0.03900
C 	C 	0.92720 0.71350 0.89250 -0.05200
H 	H 	0.93820 0.73240 0.90370 0.03700
C 	C 	0.91380 0.65170 0.89211 -0.00400
C 	C 	0.89770 0.62406 0.87566 -0.04800
H 	H 	0.88850 0.58190 0.87540 0.04100
C 	C 	0.88590 0.17770 0.99720 0.05300
H 	H 	0.87120 0.19270 0.98580 0.01900
C 	C 	0.89820 0.09280 0.01916 0.04000
O 	O 	0.89471 0.45470 0.95821 -0.48200
C 	C 	0.91620 0.73940 0.04435 0.07800
H 	H 	0.94410 0.71860 0.05210 0.00200
C 	C 	0.91384 0.85142 0.82592 0.03300
H 	H 	0.92290 0.89360 0.82600 0.01500
C 	C 	0.91800 0.81797 0.84206 -0.10700
H 	H 	0.92990 0.83730 0.85320 0.06000
C 	C 	0.90480 0.75620 0.84197 0.05400
C 	C 	0.88740 0.72788 0.82573 -0.11400
H 	H 	0.87840 0.68570 0.82570 0.06300
C 	C 	0.88330 0.76134 0.80960 0.04400
H 	H 	0.87140 0.74200 0.79850 0.01300
N 	N 	0.89645 0.82311 0.80969 -0.22100
O 	O 	0.95575 0.31267 0.01370 -0.48500
C 	C 	0.69020 0.37580 0.16877 0.05600
H 	H 	0.67520 0.35800 0.15780 0.00300
C 	C 	0.93050 0.19520 0.02614 0.05700
H 	H 	0.94870 0.22290 0.03450 0.02000
C 	C 	0.72870 0.42200 0.20038 -0.16200
H 	H 	0.74540 0.43530 0.21170 0.06600
C 	C 	0.76430 0.42850 0.18503 0.07900
H 	H 	0.80170 0.45000 0.18590 -0.00600
C 	C 	0.65590 0.37330 0.18473 -0.12800
H 	H 	0.61820 0.35240 0.18440 0.06800
C 	C 	0.82470 0.36220 0.14802 -0.02800
H 	H 	0.82740 0.32850 0.15610 0.03100
C 	C 	0.78720 0.41110 0.15234 -0.01000
C 	C 	0.78330 0.46040 0.14048 -0.03500
H 	H 	0.75770 0.49380 0.14340 0.03800
C 	C 	0.81680 0.46090 0.12429 -0.03800
H 	H 	0.81410 0.49460 0.11620 0.03700
C 	C 	0.85420 0.41200 0.11997 0.02800
C 	C 	0.85810 0.36270 0.13184 -0.04800
H 	H 	0.88370 0.32930 0.12890 0.04300
C 	C 	0.30250 0.40434 0.98314 0.01300
H 	H 	0.27300 0.40170 0.97360 0.02800
C 	C 	0.36390 0.39870 0.97901 -0.07000
H 	H 	0.37640 0.39220 0.96670 0.04600
C 	C 	0.40690 0.40260 0.99292 0.06700
C 	C 	0.38860 0.41210 0.01096 -0.08200
H 	H 	0.41800 0.41470 0.02050 0.05100
C 	C 	0.32720 0.41770 0.01508 0.02300
H 	H 	0.31460 0.42420 0.02740 0.01900
C 	C 	0.28410 0.41380 0.00117 -0.10900
C 	C 	0.57720 0.37497 0.99989 -0.04600
H 	H 	0.60430 0.36300 0.00940 0.03900
C 	C 	0.59930 0.38570 0.98231 -0.01200
C 	C 	0.55970 0.40330 0.96840 -0.04800
H 	H 	0.57480 0.41060 0.95640 0.04000
C 	C 	0.49810 0.41000 0.97209 -0.04800
H 	H 	0.47110 0.42200 0.96260 0.04000
C 	C 	0.47610 0.39920 0.98968 -0.00800
C 	C 	0.51560 0.38170 0.00358 -0.04800
H 	H 	0.50060 0.37430 0.01560 0.03900
C 	C 	0.88860 0.02770 0.02364 0.01700
C 	C 	0.88680 0.90250 0.02859 0.00900
C 	C 	0.66240 0.43490 0.18808 0.22900
H 	H 	0.62920 0.46200 0.18970 -0.06600
C 	C 	0.72250 0.36520 0.19885 0.22300
H 	H 	0.73220 0.33760 0.20840 -0.06000
C 	C 	0.76160 0.36700 0.18355 -0.23300
H 	H 	0.79740 0.34280 0.18320 0.10100
C 	C 	0.69490 0.43900 0.17162 -0.23600
H 	H 	0.68110 0.46550 0.16220 0.10700
C 	C 	0.70110 0.43160 0.97912 -0.06700
H 	H 	0.68210 0.46930 0.98180 0.04600
C 	C 	0.70330 0.32560 0.98114 -0.10300
H 	H 	0.68760 0.29080 0.98720 0.05800
C 	C 	0.76190 0.43040 0.97611 0.01700
H 	H 	0.78300 0.46770 0.97450 0.01700
C 	C 	0.76050 0.32580 0.97504 0.04900
H 	H 	0.77860 0.28950 0.97060 0.00800
C 	C 	0.83360 0.99770 0.02627 -0.03800
H 	H 	0.79670 0.02010 0.02640 0.03900
C 	C 	0.94260 0.99500 0.02350 -0.04200
H 	H 	0.98020 0.01550 0.02170 0.03700
C 	C 	0.94180 0.93240 0.02597 -0.03300
H 	H 	0.97870 0.91010 0.02590 0.04000
C 	C 	0.83280 0.93510 0.02874 -0.04100
H 	H 	0.79520 0.91460 0.03050 0.04000
C 	C 	0.80240 0.37880 0.11901 -0.05200
H 	H 	0.78890 0.36140 0.10780 0.04200
C 	C 	0.76560 0.37030 0.13747 -0.03800
H 	H 	0.73320 0.34220 0.13890 0.03800
C 	C 	0.83300 0.44620 0.15023 -0.02200
H 	H 	0.84420 0.47260 0.16000 0.02900
C 	C 	0.86710 0.44690 0.13405 -0.05100
H 	H 	0.90090 0.47360 0.13320 0.03800
C 	C 	0.31680 0.36160 0.00865 -0.00800
H 	H 	0.29740 0.33270 0.01640 0.03700
C 	C 	0.31490 0.45730 0.99081 0.01500
H 	H 	0.29490 0.49350 0.98720 0.01800
C 	C 	0.37300 0.44780 0.98602 -0.07000
H 	H 	0.39100 0.47440 0.97730 0.05000
C 	C 	0.37630 0.35660 0.00394 -0.05500
H 	H 	0.39870 0.32210 0.00790 0.04300
Co	Co	0.02034 0.59837 0.00949 1.06600
Co	Co	0.09838 0.47985 0.00163 1.06400
Co	Co	0.87992 0.60949 0.03540 1.12400
Co	Co	0.10971 0.62057 0.97578 1.11900
O 	O 	0.10483 0.57092 0.00039 -0.76700
H 	H 	0.13690 0.58540 0.00910 0.15200
O 	O 	0.92771 0.60599 0.01127 -0.76000
H 	H 	0.91290 0.63830 0.00270 0.15600
O 	O 	0.03372 0.57512 0.03717 -0.52700
O 	O 	0.95402 0.60710 0.05257 -0.47800
O 	O 	0.07277 0.46368 0.97423 -0.50900
O 	O 	0.79868 0.60952 0.02077 -0.46300
O 	O 	0.10704 0.70083 0.99040 -0.47900
O 	O 	0.81420 0.54478 0.99666 -0.44800
N 	N 	0.20738 0.62110 0.97531 -0.22900
N 	N 	0.32671 0.60112 0.20081 -0.25500
N 	N 	0.12410 0.29403 0.03586 -0.22800
C 	C 	0.78170 0.58080 0.00705 0.34000
C 	C 	0.07720 0.71900 0.00438 0.41300
C 	C 	0.08650 0.78280 0.00906 -0.15800
C 	C 	0.00940 0.59270 0.05174 0.42400
C 	C 	0.08700 0.49380 0.95937 0.39100
C 	C 	0.07710 0.86440 0.03190 -0.11900
H 	H 	0.06610 0.87640 0.04400 0.06400
C 	C 	0.11360 0.16720 0.03120 0.06300
C 	C 	0.25290 0.59520 0.16893 0.08100
C 	C 	0.15080 0.20040 0.02054 -0.11800
H 	H 	0.16990 0.18160 0.01030 0.06400
C 	C 	0.07760 0.19770 0.04327 -0.13600
H 	H 	0.04900 0.17680 0.05070 0.07300
C 	C 	0.23750 0.64710 0.98997 -0.00100
H 	H 	0.21370 0.66540 0.99930 0.01300
C 	C 	0.01674 0.57157 0.08599 0.06700
H 	H 	0.97470 0.56190 0.08660 0.01000
C 	C 	0.04373 0.58440 0.06918 -0.16600
C 	C 	0.10524 0.59850 0.06834 0.05800
H 	H 	0.12370 0.60730 0.05690 0.00100
C 	C 	0.13976 0.59976 0.08432 -0.12400
H 	H 	0.18180 0.60940 0.08380 0.06400
C 	C 	0.11277 0.58693 0.10113 0.04900
C 	C 	0.05126 0.57283 0.10197 -0.12600
H 	H 	0.03280 0.56410 0.11350 0.06600
C 	C 	0.24130 0.59740 0.96226 0.04100
H 	H 	0.22230 0.58010 0.95180 0.00600
C 	C 	0.08009 0.35933 0.92564 -0.12100
H 	H 	0.07460 0.31650 0.92580 0.06400
C 	C 	0.08371 0.39147 0.94203 0.04800
H 	H 	0.08070 0.37060 0.95340 0.00200
C 	C 	0.09179 0.45411 0.94176 -0.12800
C 	C 	0.09625 0.48461 0.92510 0.04400
H 	H 	0.10180 0.52740 0.92490 0.02200
C 	C 	0.09260 0.45247 0.90871 -0.11600
H 	H 	0.09570 0.47330 0.89730 0.06400
C 	C 	0.08456 0.38983 0.90898 0.05700
C 	C 	0.29720 0.64830 0.99182 -0.02300
H 	H 	0.31500 0.66740 0.00220 0.02600
C 	C 	0.33450 0.62150 0.97845 0.06300
C 	C 	0.16290 0.26520 0.02426 0.03700
H 	H 	0.19620 0.28580 0.01880 0.01500
C 	C 	0.12180 0.88570 0.00140 -0.11300
H 	H 	0.13950 0.91280 0.99280 0.06300
C 	C 	0.09320 0.01570 0.00761 -0.03700
H 	H 	0.08210 0.99970 0.99600 0.03700
C 	C 	0.12260 0.99270 0.04005 -0.04500
H 	H 	0.12970 0.96520 0.04990 0.04000
C 	C 	0.12410 0.05710 0.04314 -0.03400
H 	H 	0.13240 0.07240 0.05510 0.03700
C 	C 	0.09340 0.07960 0.01078 -0.04600
H 	H 	0.08130 0.10800 0.00170 0.04000
C 	C 	0.30380 0.59730 0.96355 -0.08300
H 	H 	0.32670 0.57990 0.95380 0.05100
C 	C 	0.10517 0.34188 0.85961 -0.04800
H 	H 	0.11620 0.36080 0.84840 0.04000
C 	C 	0.09180 0.28016 0.86001 -0.00200
C 	C 	0.07560 0.25249 0.87645 -0.04900
H 	H 	0.06650 0.21030 0.87670 0.03900
C 	C 	0.07280 0.28650 0.89250 -0.05200
H 	H 	0.06180 0.26760 0.90370 0.03700
C 	C 	0.08620 0.34830 0.89211 -0.00400
C 	C 	0.10230 0.37594 0.87566 -0.04800
H 	H 	0.11150 0.41810 0.87540 0.04100
C 	C 	0.11410 0.82230 0.99720 0.05300
H 	H 	0.12880 0.80730 0.98580 0.01900
C 	C 	0.10180 0.90720 0.01916 0.04000
O 	O 	0.10529 0.54530 0.95821 -0.48200
C 	C 	0.08380 0.26060 0.04435 0.07800
H 	H 	0.05590 0.28140 0.05210 0.00200
C 	C 	0.08616 0.14858 0.82592 0.03300
H 	H 	0.07710 0.10640 0.82600 0.01500
C 	C 	0.08200 0.18203 0.84206 -0.10700
H 	H 	0.07010 0.16270 0.85320 0.06000
C 	C 	0.09520 0.24380 0.84197 0.05400
C 	C 	0.11260 0.27212 0.82573 -0.11400
H 	H 	0.12160 0.31430 0.82570 0.06300
C 	C 	0.11670 0.23866 0.80960 0.04400
H 	H 	0.12860 0.25800 0.79850 0.01300
N 	N 	0.10355 0.17689 0.80969 -0.22100
O 	O 	0.04425 0.68733 0.01370 -0.48500
C 	C 	0.30980 0.62420 0.16877 0.05600
H 	H 	0.32480 0.64200 0.15780 0.00300
C 	C 	0.06950 0.80480 0.02614 0.05700
H 	H 	0.05130 0.77710 0.03450 0.02000
C 	C 	0.27130 0.57800 0.20038 -0.16200
H 	H 	0.25460 0.56470 0.21170 0.06600
C 	C 	0.23570 0.57150 0.18503 0.07900
H 	H 	0.19830 0.55000 0.18590 -0.00600
C 	C 	0.34410 0.62670 0.18473 -0.12800
H 	H 	0.38180 0.64760 0.18440 0.06800
C 	C 	0.17530 0.63780 0.14802 -0.02800
H 	H 	0.17260 0.67150 0.15610 0.03100
C 	C 	0.21280 0.58890 0.15234 -0.01000
C 	C 	0.21670 0.53960 0.14048 -0.03500
H 	H 	0.24230 0.50620 0.14340 0.03800
C 	C 	0.18320 0.53910 0.12429 -0.03800
H 	H 	0.18590 0.50540 0.11620 0.03700
C 	C 	0.14580 0.58800 0.11997 0.02800
C 	C 	0.14190 0.63730 0.13184 -0.04800
H 	H 	0.11630 0.67070 0.12890 0.04300
C 	C 	0.69750 0.59566 0.98314 0.01300
H 	H 	0.72700 0.59830 0.97360 0.02800
C 	C 	0.63610 0.60130 0.97901 -0.07000
H 	H 	0.62360 0.60780 0.96670 0.04600
C 	C 	0.59310 0.59740 0.99292 0.06700
C 	C 	0.61140 0.58790 0.01096 -0.08200
H 	H 	0.58200 0.58530 0.02050 0.05100
C 	C 	0.67280 0.58230 0.01508 0.02300
H 	H 	0.68540 0.57580 0.02740 0.01900
C 	C 	0.71590 0.58620 0.00117 -0.10900
C 	C 	0.42280 0.62503 0.99989 -0.04600
H 	H 	0.39570 0.63700 0.00940 0.03900
C 	C 	0.40070 0.61430 0.98231 -0.01200
C 	C 	0.44030 0.59670 0.96840 -0.04800
H 	H 	0.42520 0.58940 0.95640 0.04000
C 	C 	0.50190 0.59000 0.97209 -0.04800
H 	H 	0.52890 0.57800 0.96260 0.04000
C 	C 	0.52390 0.60080 0.98968 -0.00800
C 	C 	0.48440 0.61830 0.00358 -0.04800
H 	H 	0.49940 0.62570 0.01560 0.03900
C 	C 	0.11140 0.97230 0.02364 0.01700
C 	C 	0.11320 0.09750 0.02859 0.00900
C 	C 	0.33760 0.56510 0.18808 0.22900
H 	H 	0.37080 0.53800 0.18970 -0.06600
C 	C 	0.27750 0.63480 0.19885 0.22300
H 	H 	0.26780 0.66240 0.20840 -0.06000
C 	C 	0.23840 0.63300 0.18355 -0.23300
H 	H 	0.20260 0.65720 0.18320 0.10100
C 	C 	0.30510 0.56100 0.17162 -0.23600
H 	H 	0.31890 0.53450 0.16220 0.10700
C 	C 	0.29890 0.56840 0.97912 -0.06700
H 	H 	0.31790 0.53070 0.98180 0.04600
C 	C 	0.29670 0.67440 0.98114 -0.10300
H 	H 	0.31240 0.70920 0.98720 0.05800
C 	C 	0.23810 0.56960 0.97611 0.01700
H 	H 	0.21700 0.53230 0.97450 0.01700
C 	C 	0.23950 0.67420 0.97504 0.04900
H 	H 	0.22140 0.71050 0.97060 0.00800
C 	C 	0.16640 0.00230 0.02627 -0.03800
H 	H 	0.20330 0.97990 0.02640 0.03900
C 	C 	0.05740 0.00500 0.02350 -0.04200
H 	H 	0.01980 0.98450 0.02170 0.03700
C 	C 	0.05820 0.06760 0.02597 -0.03300
H 	H 	0.02130 0.08990 0.02590 0.04000
C 	C 	0.16720 0.06490 0.02874 -0.04100
H 	H 	0.20480 0.08540 0.03050 0.04000
C 	C 	0.19760 0.62120 0.11901 -0.05200
H 	H 	0.21110 0.63860 0.10780 0.04200
C 	C 	0.23440 0.62970 0.13747 -0.03800
H 	H 	0.26680 0.65780 0.13890 0.03800
C 	C 	0.16700 0.55380 0.15023 -0.02200
H 	H 	0.15580 0.52740 0.16000 0.02900
C 	C 	0.13290 0.55310 0.13405 -0.05100
H 	H 	0.09910 0.52640 0.13320 0.03800
C 	C 	0.68320 0.63840 0.00865 -0.00800
H 	H 	0.70260 0.66730 0.01640 0.03700
C 	C 	0.68510 0.54270 0.99081 0.01500
H 	H 	0.70510 0.50650 0.98720 0.01800
C 	C 	0.62700 0.55220 0.98602 -0.07000
H 	H 	0.60900 0.52560 0.97730 0.05000
C 	C 	0.62370 0.64340 0.00394 -0.05500
H 	H 	0.60130 0.67790 0.00790 0.04300
Co	Co	0.52034 0.09837 0.50949 1.06600
Co	Co	0.59838 0.97985 0.50163 1.06500
Co	Co	0.37992 0.10949 0.53540 1.12400
Co	Co	0.60971 0.12057 0.47578 1.11900
O 	O 	0.60483 0.07092 0.50039 -0.76700
H 	H 	0.63690 0.08540 0.50910 0.15200
O 	O 	0.42771 0.10599 0.51127 -0.76000
H 	H 	0.41290 0.13830 0.50270 0.15600
O 	O 	0.53372 0.07512 0.53717 -0.52700
O 	O 	0.45402 0.10710 0.55257 -0.47800
O 	O 	0.57277 0.96368 0.47423 -0.50900
O 	O 	0.29868 0.10952 0.52077 -0.46300
O 	O 	0.60704 0.20083 0.49040 -0.47900
O 	O 	0.31420 0.04478 0.49666 -0.44800
N 	N 	0.70738 0.12110 0.47531 -0.22900
N 	N 	0.82671 0.10112 0.70081 -0.25500
N 	N 	0.62410 0.79403 0.53586 -0.22800
C 	C 	0.28170 0.08080 0.50705 0.34000
C 	C 	0.57720 0.21900 0.50438 0.41300
C 	C 	0.58650 0.28280 0.50906 -0.15800
C 	C 	0.50940 0.09270 0.55174 0.42400
C 	C 	0.58700 0.99380 0.45937 0.39100
C 	C 	0.57710 0.36440 0.53190 -0.11900
H 	H 	0.56610 0.37640 0.54400 0.06400
C 	C 	0.61360 0.66720 0.53120 0.06300
C 	C 	0.75290 0.09520 0.66893 0.08100
C 	C 	0.65080 0.70040 0.52054 -0.11800
H 	H 	0.66990 0.68160 0.51030 0.06400
C 	C 	0.57760 0.69770 0.54327 -0.13600
H 	H 	0.54900 0.67680 0.55070 0.07300
C 	C 	0.73750 0.14710 0.48997 -0.00100
H 	H 	0.71370 0.16540 0.49930 0.01300
C 	C 	0.51674 0.07157 0.58599 0.06700
H 	H 	0.47470 0.06190 0.58660 0.01000
C 	C 	0.54373 0.08440 0.56918 -0.16600
C 	C 	0.60524 0.09850 0.56834 0.05800
H 	H 	0.62370 0.10730 0.55690 0.00100
C 	C 	0.63976 0.09976 0.58432 -0.12400
H 	H 	0.68180 0.10940 0.58380 0.06400
C 	C 	0.61277 0.08693 0.60113 0.04900
C 	C 	0.55126 0.07283 0.60197 -0.12600
H 	H 	0.53280 0.06410 0.61350 0.06600
C 	C 	0.74130 0.09740 0.46226 0.04100
H 	H 	0.72230 0.08010 0.45180 0.00600
C 	C 	0.58009 0.85933 0.42564 -0.12100
H 	H 	0.57460 0.81650 0.42580 0.06400
C 	C 	0.58371 0.89147 0.44203 0.04800
H 	H 	0.58070 0.87060 0.45340 0.00200
C 	C 	0.59179 0.95411 0.44176 -0.12800
C 	C 	0.59625 0.98461 0.42510 0.04400
H 	H 	0.60180 0.02740 0.42490 0.02200
C 	C 	0.59260 0.95247 0.40871 -0.11600
H 	H 	0.59570 0.97330 0.39730 0.06400
C 	C 	0.58456 0.88983 0.40898 0.05700
C 	C 	0.79720 0.14830 0.49182 -0.02300
H 	H 	0.81500 0.16740 0.50220 0.02600
C 	C 	0.83450 0.12150 0.47845 0.06300
C 	C 	0.66290 0.76520 0.52426 0.03700
H 	H 	0.69620 0.78580 0.51880 0.01500
C 	C 	0.62180 0.38570 0.50140 -0.11300
H 	H 	0.63950 0.41280 0.49280 0.06300
C 	C 	0.59320 0.51570 0.50761 -0.03700
H 	H 	0.58210 0.49970 0.49600 0.03700
C 	C 	0.62260 0.49270 0.54005 -0.04400
H 	H 	0.62970 0.46520 0.54990 0.03900
C 	C 	0.62410 0.55710 0.54314 -0.03500
H 	H 	0.63240 0.57240 0.55510 0.03800
C 	C 	0.59340 0.57960 0.51078 -0.04700
H 	H 	0.58130 0.60800 0.50170 0.04000
C 	C 	0.80380 0.09730 0.46355 -0.08300
H 	H 	0.82670 0.07990 0.45380 0.05100
C 	C 	0.60517 0.84188 0.35961 -0.04800
H 	H 	0.61620 0.86080 0.34840 0.04000
C 	C 	0.59180 0.78016 0.36001 -0.00200
C 	C 	0.57560 0.75249 0.37645 -0.04900
H 	H 	0.56650 0.71030 0.37670 0.03900
C 	C 	0.57280 0.78650 0.39250 -0.05200
H 	H 	0.56180 0.76760 0.40370 0.03700
C 	C 	0.58620 0.84830 0.39211 -0.00400
C 	C 	0.60230 0.87594 0.37566 -0.04800
H 	H 	0.61150 0.91810 0.37540 0.04100
C 	C 	0.61410 0.32230 0.49720 0.05200
H 	H 	0.62880 0.30730 0.48580 0.01900
C 	C 	0.60180 0.40720 0.51916 0.04000
O 	O 	0.60529 0.04530 0.45821 -0.48200
C 	C 	0.58380 0.76060 0.54435 0.07800
H 	H 	0.55590 0.78140 0.55210 0.00200
C 	C 	0.58616 0.64858 0.32592 0.03300
H 	H 	0.57710 0.60640 0.32600 0.01500
C 	C 	0.58200 0.68203 0.34206 -0.10700
H 	H 	0.57010 0.66270 0.35320 0.06000
C 	C 	0.59520 0.74380 0.34197 0.05400
C 	C 	0.61260 0.77212 0.32573 -0.11400
H 	H 	0.62160 0.81430 0.32570 0.06300
C 	C 	0.61670 0.73866 0.30960 0.04400
H 	H 	0.62860 0.75800 0.29850 0.01300
N 	N 	0.60355 0.67689 0.30969 -0.22100
O 	O 	0.54425 0.18733 0.51370 -0.48500
C 	C 	0.80980 0.12420 0.66877 0.05600
H 	H 	0.82480 0.14200 0.65780 0.00300
C 	C 	0.56950 0.30480 0.52614 0.05700
H 	H 	0.55130 0.27710 0.53450 0.02000
C 	C 	0.77130 0.07800 0.70038 -0.16200
H 	H 	0.75460 0.06470 0.71170 0.06600
C 	C 	0.73570 0.07150 0.68503 0.07900
H 	H 	0.69830 0.05000 0.68590 -0.00600
C 	C 	0.84410 0.12670 0.68473 -0.12800
H 	H 	0.88180 0.14760 0.68440 0.06800
C 	C 	0.67530 0.13780 0.64802 -0.02800
H 	H 	0.67260 0.17150 0.65610 0.03100
C 	C 	0.71280 0.08890 0.65234 -0.01000
C 	C 	0.71670 0.03960 0.64048 -0.03500
H 	H 	0.74230 0.00620 0.64340 0.03800
C 	C 	0.68320 0.03910 0.62429 -0.03800
H 	H 	0.68590 0.00540 0.61620 0.03700
C 	C 	0.64580 0.08800 0.61997 0.02800
C 	C 	0.64190 0.13730 0.63184 -0.04800
H 	H 	0.61630 0.17070 0.62890 0.04300
C 	C 	0.19750 0.09566 0.48314 0.01400
H 	H 	0.22700 0.09830 0.47360 0.02800
C 	C 	0.13610 0.10130 0.47901 -0.07000
H 	H 	0.12360 0.10780 0.46670 0.04700
C 	C 	0.09310 0.09740 0.49292 0.06700
C 	C 	0.11140 0.08790 0.51096 -0.08200
H 	H 	0.08200 0.08530 0.52050 0.05100
C 	C 	0.17280 0.08230 0.51508 0.02300
H 	H 	0.18540 0.07580 0.52740 0.01900
C 	C 	0.21590 0.08620 0.50117 -0.10900
C 	C 	0.92280 0.12503 0.49989 -0.04600
H 	H 	0.89570 0.13700 0.50940 0.03900
C 	C 	0.90070 0.11430 0.48231 -0.01200
C 	C 	0.94030 0.09670 0.46840 -0.04800
H 	H 	0.92520 0.08940 0.45640 0.04000
C 	C 	0.00190 0.09000 0.47209 -0.04800
H 	H 	0.02890 0.07800 0.46260 0.04000
C 	C 	0.02390 0.10080 0.48968 -0.00800
C 	C 	0.98440 0.11830 0.50358 -0.04800
H 	H 	0.99940 0.12570 0.51560 0.03900
C 	C 	0.61140 0.47230 0.52364 0.01800
C 	C 	0.61320 0.59750 0.52859 0.00900
C 	C 	0.83760 0.06510 0.68808 0.22900
H 	H 	0.87080 0.03800 0.68970 -0.06600
C 	C 	0.77750 0.13480 0.69885 0.22300
H 	H 	0.76780 0.16240 0.70840 -0.06000
C 	C 	0.73840 0.13300 0.68355 -0.23200
H 	H 	0.70260 0.15720 0.68320 0.10100
C 	C 	0.80510 0.06100 0.67162 -0.23600
H 	H 	0.81890 0.03450 0.66220 0.10700
C 	C 	0.79890 0.06840 0.47912 -0.06700
H 	H 	0.81790 0.03070 0.48180 0.04600
C 	C 	0.79670 0.17440 0.48114 -0.10300
H 	H 	0.81240 0.20920 0.48720 0.05800
C 	C 	0.73810 0.06960 0.47611 0.01700
H 	H 	0.71700 0.03230 0.47450 0.01700
C 	C 	0.73950 0.17420 0.47504 0.04900
H 	H 	0.72140 0.21050 0.47060 0.00800
C 	C 	0.66640 0.50230 0.52627 -0.03900
H 	H 	0.70330 0.47990 0.52640 0.03900
C 	C 	0.55740 0.50500 0.52350 -0.04300
H 	H 	0.51980 0.48450 0.52170 0.03700
C 	C 	0.55820 0.56760 0.52597 -0.03200
H 	H 	0.52130 0.58990 0.52590 0.04000
C 	C 	0.66720 0.56490 0.52874 -0.04000
H 	H 	0.70480 0.58540 0.53050 0.03900
C 	C 	0.69760 0.12120 0.61901 -0.05200
H 	H 	0.71110 0.13860 0.60780 0.04200
C 	C 	0.73440 0.12970 0.63747 -0.03800
H 	H 	0.76680 0.15780 0.63890 0.03800
C 	C 	0.66700 0.05380 0.65023 -0.02200
H 	H 	0.65580 0.02740 0.66000 0.02900
C 	C 	0.63290 0.05310 0.63405 -0.05100
H 	H 	0.59910 0.02640 0.63320 0.03800
C 	C 	0.18320 0.13840 0.50865 -0.00800
H 	H 	0.20260 0.16730 0.51640 0.03700
C 	C 	0.18510 0.04270 0.49081 0.01500
H 	H 	0.20510 0.00650 0.48720 0.01800
C 	C 	0.12700 0.05220 0.48602 -0.07000
H 	H 	0.10900 0.02560 0.47730 0.05000
C 	C 	0.12370 0.14340 0.50394 -0.05500
H 	H 	0.10130 0.17790 0.50790 0.04300
Co	Co	0.09837 0.97966 0.75949 1.06600
Co	Co	0.97985 0.90162 0.75163 1.06500
Co	Co	0.10949 0.12008 0.78540 1.12400
Co	Co	0.12057 0.89029 0.72578 1.11900
O 	O 	0.07092 0.89517 0.75039 -0.76700
H 	H 	0.08540 0.86310 0.75910 0.15200
O 	O 	0.10599 0.07229 0.76127 -0.76000
H 	H 	0.13830 0.08710 0.75270 0.15600
O 	O 	0.07512 0.96628 0.78717 -0.52700
O 	O 	0.10710 0.04598 0.80257 -0.47800
O 	O 	0.96368 0.92723 0.72423 -0.50900
O 	O 	0.10952 0.20132 0.77077 -0.46300
O 	O 	0.20083 0.89296 0.74040 -0.47900
O 	O 	0.04478 0.18580 0.74666 -0.44800
N 	N 	0.12110 0.79262 0.72531 -0.22900
N 	N 	0.10112 0.67329 0.95081 -0.25500
N 	N 	0.79403 0.87590 0.78586 -0.22800
C 	C 	0.08080 0.21830 0.75705 0.34000
C 	C 	0.21900 0.92280 0.75438 0.41300
C 	C 	0.28280 0.91350 0.75906 -0.15800
C 	C 	0.09270 0.99060 0.80174 0.42400
C 	C 	0.99380 0.91300 0.70937 0.39100
C 	C 	0.36440 0.92290 0.78190 -0.11900
H 	H 	0.37640 0.93390 0.79400 0.06400
C 	C 	0.66720 0.88640 0.78120 0.06300
C 	C 	0.09520 0.74710 0.91893 0.08100
C 	C 	0.70040 0.84920 0.77054 -0.11800
H 	H 	0.68160 0.83010 0.76030 0.06400
C 	C 	0.69770 0.92240 0.79327 -0.13600
H 	H 	0.67680 0.95100 0.80070 0.07300
C 	C 	0.14710 0.76250 0.73997 -0.00100
H 	H 	0.16540 0.78630 0.74930 0.01300
C 	C 	0.07157 0.98326 0.83599 0.06700
H 	H 	0.06190 0.02530 0.83660 0.01000
C 	C 	0.08440 0.95627 0.81918 -0.16600
C 	C 	0.09850 0.89476 0.81834 0.05800
H 	H 	0.10730 0.87630 0.80690 0.00100
C 	C 	0.09976 0.86024 0.83432 -0.12400
H 	H 	0.10940 0.81820 0.83380 0.06400
C 	C 	0.08693 0.88723 0.85113 0.04900
C 	C 	0.07283 0.94874 0.85197 -0.12500
H 	H 	0.06410 0.96720 0.86350 0.06600
C 	C 	0.09740 0.75870 0.71226 0.04100
H 	H 	0.08010 0.77770 0.70180 0.00600
C 	C 	0.85933 0.91991 0.67564 -0.12100
H 	H 	0.81650 0.92540 0.67580 0.06400
C 	C 	0.89147 0.91629 0.69203 0.04800
H 	H 	0.87060 0.91930 0.70340 0.00200
C 	C 	0.95411 0.90821 0.69176 -0.12800
C 	C 	0.98461 0.90375 0.67510 0.04400
H 	H 	0.02740 0.89820 0.67490 0.02200
C 	C 	0.95247 0.90740 0.65871 -0.11600
H 	H 	0.97330 0.90430 0.64730 0.06400
C 	C 	0.88983 0.91544 0.65898 0.05700
C 	C 	0.14830 0.70280 0.74182 -0.02300
H 	H 	0.16740 0.68500 0.75220 0.02600
C 	C 	0.12150 0.66550 0.72845 0.06300
C 	C 	0.76520 0.83710 0.77426 0.03700
H 	H 	0.78580 0.80380 0.76880 0.01500
C 	C 	0.38570 0.87820 0.75140 -0.11300
H 	H 	0.41280 0.86050 0.74280 0.06300
C 	C 	0.51570 0.90680 0.75761 -0.03700
H 	H 	0.49970 0.91790 0.74600 0.03700
C 	C 	0.49270 0.87740 0.79005 -0.04400
H 	H 	0.46520 0.87030 0.79990 0.03900
C 	C 	0.55710 0.87590 0.79314 -0.03500
H 	H 	0.57240 0.86760 0.80510 0.03800
C 	C 	0.57960 0.90660 0.76078 -0.04700
H 	H 	0.60800 0.91870 0.75170 0.04000
C 	C 	0.09730 0.69620 0.71355 -0.08300
H 	H 	0.07990 0.67330 0.70380 0.05100
C 	C 	0.84188 0.89483 0.60961 -0.04800
H 	H 	0.86080 0.88380 0.59840 0.04100
C 	C 	0.78016 0.90820 0.61001 -0.00200
C 	C 	0.75249 0.92440 0.62645 -0.04900
H 	H 	0.71030 0.93350 0.62670 0.03900
C 	C 	0.78650 0.92720 0.64250 -0.05200
H 	H 	0.76760 0.93820 0.65370 0.03700
C 	C 	0.84830 0.91380 0.64211 -0.00400
C 	C 	0.87594 0.89770 0.62566 -0.04800
H 	H 	0.91810 0.88850 0.62540 0.04100
C 	C 	0.32230 0.88590 0.74720 0.05200
H 	H 	0.30730 0.87120 0.73580 0.01900
C 	C 	0.40720 0.89820 0.76916 0.04000
O 	O 	0.04530 0.89471 0.70821 -0.48200
C 	C 	0.76060 0.91620 0.79435 0.07800
H 	H 	0.78140 0.94410 0.80210 0.00200
C 	C 	0.64858 0.91384 0.57592 0.03300
H 	H 	0.60640 0.92290 0.57600 0.01500
C 	C 	0.68203 0.91800 0.59206 -0.10700
H 	H 	0.66270 0.92990 0.60320 0.06000
C 	C 	0.74380 0.90480 0.59197 0.05400
C 	C 	0.77212 0.88740 0.57573 -0.11400
H 	H 	0.81430 0.87840 0.57570 0.06300
C 	C 	0.73866 0.88330 0.55960 0.04400
H 	H 	0.75800 0.87140 0.54850 0.01300
N 	N 	0.67689 0.89645 0.55969 -0.22100
O 	O 	0.18733 0.95575 0.76370 -0.48500
C 	C 	0.12420 0.69020 0.91877 0.05600
H 	H 	0.14200 0.67520 0.90780 0.00300
C 	C 	0.30480 0.93050 0.77614 0.05700
H 	H 	0.27710 0.94870 0.78450 0.02000
C 	C 	0.07800 0.72870 0.95038 -0.16200
H 	H 	0.06470 0.74540 0.96170 0.06600
C 	C 	0.07150 0.76430 0.93503 0.07900
H 	H 	0.05000 0.80170 0.93590 -0.00600
C 	C 	0.12670 0.65590 0.93473 -0.12700
H 	H 	0.14760 0.61820 0.93440 0.06800
C 	C 	0.13780 0.82470 0.89802 -0.02800
H 	H 	0.17150 0.82740 0.90610 0.03100
C 	C 	0.08890 0.78720 0.90234 -0.01000
C 	C 	0.03960 0.78330 0.89048 -0.03500
H 	H 	0.00620 0.75770 0.89340 0.03800
C 	C 	0.03910 0.81680 0.87429 -0.03800
H 	H 	0.00540 0.81410 0.86620 0.03700
C 	C 	0.08800 0.85420 0.86997 0.02900
C 	C 	0.13730 0.85810 0.88184 -0.04800
H 	H 	0.17070 0.88370 0.87890 0.04300
C 	C 	0.09566 0.30250 0.73314 0.01400
H 	H 	0.09830 0.27300 0.72360 0.02800
C 	C 	0.10130 0.36390 0.72901 -0.07000
H 	H 	0.10780 0.37640 0.71670 0.04700
C 	C 	0.09740 0.40690 0.74292 0.06700
C 	C 	0.08790 0.38860 0.76096 -0.08200
H 	H 	0.08530 0.41800 0.77050 0.05100
C 	C 	0.08230 0.32720 0.76508 0.02300
H 	H 	0.07580 0.31460 0.77740 0.01900
C 	C 	0.08620 0.28410 0.75117 -0.10900
C 	C 	0.12503 0.57720 0.74989 -0.04600
H 	H 	0.13700 0.60430 0.75940 0.03900
C 	C 	0.11430 0.59930 0.73231 -0.01200
C 	C 	0.09670 0.55970 0.71840 -0.04800
H 	H 	0.08940 0.57480 0.70640 0.04000
C 	C 	0.09000 0.49810 0.72209 -0.04800
H 	H 	0.07800 0.47110 0.71260 0.04000
C 	C 	0.10080 0.47610 0.73968 -0.00800
C 	C 	0.11830 0.51560 0.75358 -0.04800
H 	H 	0.12570 0.50060 0.76560 0.03900
C 	C 	0.47230 0.88860 0.77364 0.01800
C 	C 	0.59750 0.88680 0.77859 0.00900
C 	C 	0.06510 0.66240 0.93808 0.22900
H 	H 	0.03800 0.62920 0.93970 -0.06600
C 	C 	0.13480 0.72250 0.94885 0.22300
H 	H 	0.16240 0.73220 0.95840 -0.06000
C 	C 	0.13300 0.76160 0.93355 -0.23200
H 	H 	0.15720 0.79740 0.93320 0.10100
C 	C 	0.06100 0.69490 0.92162 -0.23600
H 	H 	0.03450 0.68110 0.91220 0.10700
C 	C 	0.06840 0.70110 0.72912 -0.06700
H 	H 	0.03070 0.68210 0.73180 0.04600
C 	C 	0.17440 0.70330 0.73114 -0.10300
H 	H 	0.20920 0.68760 0.73720 0.05800
C 	C 	0.06960 0.76190 0.72611 0.01700
H 	H 	0.03230 0.78300 0.72450 0.01700
C 	C 	0.17420 0.76050 0.72504 0.04900
H 	H 	0.21050 0.77860 0.72060 0.00800
C 	C 	0.50230 0.83360 0.77627 -0.03900
H 	H 	0.47990 0.79670 0.77640 0.03900
C 	C 	0.50500 0.94260 0.77350 -0.04300
H 	H 	0.48450 0.98020 0.77170 0.03700
C 	C 	0.56760 0.94180 0.77597 -0.03200
H 	H 	0.58990 0.97870 0.77590 0.04000
C 	C 	0.56490 0.83280 0.77874 -0.04000
H 	H 	0.58540 0.79520 0.78050 0.03900
C 	C 	0.12120 0.80240 0.86901 -0.05200
H 	H 	0.13860 0.78890 0.85780 0.04200
C 	C 	0.12970 0.76560 0.88747 -0.03800
H 	H 	0.15780 0.73320 0.88890 0.03800
C 	C 	0.05380 0.83300 0.90023 -0.02200
H 	H 	0.02740 0.84420 0.91000 0.02900
C 	C 	0.05310 0.86710 0.88405 -0.05100
H 	H 	0.02640 0.90090 0.88320 0.03800
C 	C 	0.13840 0.31680 0.75865 -0.00800
H 	H 	0.16730 0.29740 0.76640 0.03700
C 	C 	0.04270 0.31490 0.74081 0.01500
H 	H 	0.00650 0.29490 0.73720 0.01800
C 	C 	0.05220 0.37300 0.73602 -0.07000
H 	H 	0.02560 0.39100 0.72730 0.05000
C 	C 	0.14340 0.37630 0.75394 -0.05500
H 	H 	0.17790 0.39870 0.75790 0.04300
Co	Co	0.59837 0.47966 0.25949 1.06600
Co	Co	0.47985 0.40162 0.25163 1.06400
Co	Co	0.60949 0.62008 0.28540 1.12400
Co	Co	0.62057 0.39029 0.22578 1.11900
O 	O 	0.57092 0.39517 0.25039 -0.76700
H 	H 	0.58540 0.36310 0.25910 0.15200
O 	O 	0.60599 0.57229 0.26127 -0.76000
H 	H 	0.63830 0.58710 0.25270 0.15600
O 	O 	0.57512 0.46628 0.28717 -0.52700
O 	O 	0.60710 0.54598 0.30257 -0.47800
O 	O 	0.46368 0.42723 0.22423 -0.50900
O 	O 	0.60952 0.70132 0.27077 -0.46300
O 	O 	0.70083 0.39296 0.24040 -0.47900
O 	O 	0.54478 0.68580 0.24666 -0.44800
N 	N 	0.62110 0.29262 0.22531 -0.22900
N 	N 	0.60112 0.17329 0.45081 -0.25500
N 	N 	0.29403 0.37590 0.28586 -0.22800
C 	C 	0.58080 0.71830 0.25705 0.34000
C 	C 	0.71900 0.42280 0.25438 0.41300
C 	C 	0.78280 0.41350 0.25906 -0.15800
C 	C 	0.59270 0.49060 0.30174 0.42400
C 	C 	0.49380 0.41300 0.20937 0.39100
C 	C 	0.86440 0.42290 0.28190 -0.11900
H 	H 	0.87640 0.43390 0.29400 0.06400
C 	C 	0.16720 0.38640 0.28120 0.06300
C 	C 	0.59520 0.24710 0.41893 0.08100
C 	C 	0.20040 0.34920 0.27054 -0.11800
H 	H 	0.18160 0.33010 0.26030 0.06400
C 	C 	0.19770 0.42240 0.29327 -0.13600
H 	H 	0.17680 0.45100 0.30070 0.07300
C 	C 	0.64710 0.26250 0.23997 -0.00100
H 	H 	0.66540 0.28630 0.24930 0.01300
C 	C 	0.57157 0.48326 0.33599 0.06700
H 	H 	0.56190 0.52530 0.33660 0.01000
C 	C 	0.58440 0.45627 0.31918 -0.16600
C 	C 	0.59850 0.39476 0.31834 0.05800
H 	H 	0.60730 0.37630 0.30690 0.00100
C 	C 	0.59976 0.36024 0.33432 -0.12400
H 	H 	0.60940 0.31820 0.33380 0.06400
C 	C 	0.58693 0.38723 0.35113 0.04900
C 	C 	0.57283 0.44874 0.35197 -0.12600
H 	H 	0.56410 0.46720 0.36350 0.06600
C 	C 	0.59740 0.25870 0.21226 0.04100
H 	H 	0.58010 0.27770 0.20180 0.00600
C 	C 	0.35933 0.41991 0.17564 -0.12100
H 	H 	0.31650 0.42540 0.17580 0.06400
C 	C 	0.39147 0.41629 0.19203 0.04800
H 	H 	0.37060 0.41930 0.20340 0.00200
C 	C 	0.45411 0.40821 0.19176 -0.12800
C 	C 	0.48461 0.40375 0.17510 0.04400
H 	H 	0.52740 0.39820 0.17490 0.02200
C 	C 	0.45247 0.40740 0.15871 -0.11600
H 	H 	0.47330 0.40430 0.14730 0.06400
C 	C 	0.38983 0.41544 0.15898 0.05600
C 	C 	0.64830 0.20280 0.24182 -0.02300
H 	H 	0.66740 0.18500 0.25220 0.02600
C 	C 	0.62150 0.16550 0.22845 0.06300
C 	C 	0.26520 0.33710 0.27426 0.03700
H 	H 	0.28580 0.30380 0.26880 0.01500
C 	C 	0.88570 0.37820 0.25140 -0.11300
H 	H 	0.91280 0.36050 0.24280 0.06300
C 	C 	0.01570 0.40680 0.25761 -0.03700
H 	H 	0.99970 0.41790 0.24600 0.03700
C 	C 	0.99270 0.37740 0.29005 -0.04400
H 	H 	0.96520 0.37030 0.29990 0.04000
C 	C 	0.05710 0.37590 0.29314 -0.03400
H 	H 	0.07240 0.36760 0.30510 0.03800
C 	C 	0.07960 0.40660 0.26078 -0.04700
H 	H 	0.10800 0.41870 0.25170 0.04000
C 	C 	0.59730 0.19620 0.21355 -0.08300
H 	H 	0.57990 0.17330 0.20380 0.05100
C 	C 	0.34188 0.39483 0.10961 -0.04800
H 	H 	0.36080 0.38380 0.09840 0.04000
C 	C 	0.28016 0.40820 0.11001 -0.00200
C 	C 	0.25249 0.42440 0.12645 -0.04900
H 	H 	0.21030 0.43350 0.12670 0.03900
C 	C 	0.28650 0.42720 0.14250 -0.05200
H 	H 	0.26760 0.43820 0.15370 0.03700
C 	C 	0.34830 0.41380 0.14211 -0.00400
C 	C 	0.37594 0.39770 0.12566 -0.04800
H 	H 	0.41810 0.38850 0.12540 0.04100
C 	C 	0.82230 0.38590 0.24720 0.05200
H 	H 	0.80730 0.37120 0.23580 0.01900
C 	C 	0.90720 0.39820 0.26916 0.04000
O 	O 	0.54530 0.39471 0.20821 -0.48200
C 	C 	0.26060 0.41620 0.29435 0.07800
H 	H 	0.28140 0.44410 0.30210 0.00200
C 	C 	0.14858 0.41384 0.07592 0.03300
H 	H 	0.10640 0.42290 0.07600 0.01500
C 	C 	0.18203 0.41800 0.09206 -0.10700
H 	H 	0.16270 0.42990 0.10320 0.06000
C 	C 	0.24380 0.40480 0.09197 0.05400
C 	C 	0.27212 0.38740 0.07573 -0.11400
H 	H 	0.31430 0.37840 0.07570 0.06300
C 	C 	0.23866 0.38330 0.05960 0.04400
H 	H 	0.25800 0.37140 0.04850 0.01300
N 	N 	0.17689 0.39645 0.05969 -0.22100
O 	O 	0.68733 0.45575 0.26370 -0.48500
C 	C 	0.62420 0.19020 0.41877 0.05600
H 	H 	0.64200 0.17520 0.40780 0.00300
C 	C 	0.80480 0.43050 0.27614 0.05700
H 	H 	0.77710 0.44870 0.28450 0.02000
C 	C 	0.57800 0.22870 0.45038 -0.16200
H 	H 	0.56470 0.24540 0.46170 0.06600
C 	C 	0.57150 0.26430 0.43503 0.07900
H 	H 	0.55000 0.30170 0.43590 -0.00700
C 	C 	0.62670 0.15590 0.43473 -0.12800
H 	H 	0.64760 0.11820 0.43440 0.06800
C 	C 	0.63780 0.32470 0.39802 -0.02800
H 	H 	0.67150 0.32740 0.40610 0.03100
C 	C 	0.58890 0.28720 0.40234 -0.01000
C 	C 	0.53960 0.28330 0.39048 -0.03500
H 	H 	0.50620 0.25770 0.39340 0.03800
C 	C 	0.53910 0.31680 0.37429 -0.03800
H 	H 	0.50540 0.31410 0.36620 0.03700
C 	C 	0.58800 0.35420 0.36997 0.02800
C 	C 	0.63730 0.35810 0.38184 -0.04800
H 	H 	0.67070 0.38370 0.37890 0.04300
C 	C 	0.59566 0.80250 0.23314 0.01300
H 	H 	0.59830 0.77300 0.22360 0.02800
C 	C 	0.60130 0.86390 0.22901 -0.07000
H 	H 	0.60780 0.87640 0.21670 0.04600
C 	C 	0.59740 0.90690 0.24292 0.06700
C 	C 	0.58790 0.88860 0.26096 -0.08200
H 	H 	0.58530 0.91800 0.27050 0.05100
C 	C 	0.58230 0.82720 0.26508 0.02300
H 	H 	0.57580 0.81460 0.27740 0.01900
C 	C 	0.58620 0.78410 0.25117 -0.10900
C 	C 	0.62503 0.07720 0.24989 -0.04600
H 	H 	0.63700 0.10430 0.25940 0.03900
C 	C 	0.61430 0.09930 0.23231 -0.01200
C 	C 	0.59670 0.05970 0.21840 -0.04800
H 	H 	0.58940 0.07480 0.20640 0.04000
C 	C 	0.59000 0.99810 0.22209 -0.04800
H 	H 	0.57800 0.97110 0.21260 0.04000
C 	C 	0.60080 0.97610 0.23968 -0.00800
C 	C 	0.61830 0.01560 0.25358 -0.04800
H 	H 	0.62570 0.00060 0.26560 0.03900
C 	C 	0.97230 0.38860 0.27364 0.01800
C 	C 	0.09750 0.38680 0.27859 0.00900
C 	C 	0.56510 0.16240 0.43808 0.22900
H 	H 	0.53800 0.12920 0.43970 -0.06600
C 	C 	0.63480 0.22250 0.44885 0.22300
H 	H 	0.66240 0.23220 0.45840 -0.06000
C 	C 	0.63300 0.26160 0.43355 -0.23300
H 	H 	0.65720 0.29740 0.43320 0.10100
C 	C 	0.56100 0.19490 0.42162 -0.23600
H 	H 	0.53450 0.18110 0.41220 0.10700
C 	C 	0.56840 0.20110 0.22912 -0.06700
H 	H 	0.53070 0.18210 0.23180 0.04600
C 	C 	0.67440 0.20330 0.23114 -0.10300
H 	H 	0.70920 0.18760 0.23720 0.05800
C 	C 	0.56960 0.26190 0.22611 0.01700
H 	H 	0.53230 0.28300 0.22450 0.01700
C 	C 	0.67420 0.26050 0.22504 0.04900
H 	H 	0.71050 0.27860 0.22060 0.00800
C 	C 	0.00230 0.33360 0.27627 -0.03900
H 	H 	0.97990 0.29670 0.27640 0.03900
C 	C 	0.00500 0.44260 0.27350 -0.04200
H 	H 	0.98450 0.48020 0.27170 0.03700
C 	C 	0.06760 0.44180 0.27597 -0.03200
H 	H 	0.08990 0.47870 0.27590 0.04000
C 	C 	0.06490 0.33280 0.27874 -0.04100
H 	H 	0.08540 0.29520 0.28050 0.03900
C 	C 	0.62120 0.30240 0.36901 -0.05200
H 	H 	0.63860 0.28890 0.35780 0.04200
C 	C 	0.62970 0.26560 0.38747 -0.03800
H 	H 	0.65780 0.23320 0.38890 0.03800
C 	C 	0.55380 0.33300 0.40023 -0.02200
H 	H 	0.52740 0.34420 0.41000 0.02900
C 	C 	0.55310 0.36710 0.38405 -0.05100
H 	H 	0.52640 0.40090 0.38320 0.03800
C 	C 	0.63840 0.81680 0.25865 -0.00800
H 	H 	0.66730 0.79740 0.26640 0.03700
C 	C 	0.54270 0.81490 0.24081 0.01500
H 	H 	0.50650 0.79490 0.23720 0.01800
C 	C 	0.55220 0.87300 0.23602 -0.07000
H 	H 	0.52560 0.89100 0.22730 0.05000
C 	C 	0.64340 0.87630 0.25394 -0.05500
H 	H 	0.67790 0.89870 0.25790 0.04300
Co	Co	0.40163 0.52034 0.25949 1.06600
Co	Co	0.52015 0.59838 0.25163 1.06400
Co	Co	0.39051 0.37992 0.28540 1.12400
Co	Co	0.37943 0.60971 0.22578 1.11900
O 	O 	0.42908 0.60483 0.25039 -0.76700
H 	H 	0.41460 0.63690 0.25910 0.15200
O 	O 	0.39401 0.42771 0.26127 -0.76000
H 	H 	0.36170 0.41290 0.25270 0.15600
O 	O 	0.42488 0.53372 0.28717 -0.52700
O 	O 	0.39290 0.45402 0.30257 -0.47800
O 	O 	0.53632 0.57277 0.22423 -0.50900
O 	O 	0.39048 0.29868 0.27077 -0.46300
O 	O 	0.29917 0.60704 0.24040 -0.47900
O 	O 	0.45522 0.31420 0.24666 -0.44800
N 	N 	0.37890 0.70738 0.22531 -0.22900
N 	N 	0.39888 0.82671 0.45081 -0.25500
N 	N 	0.70597 0.62410 0.28586 -0.22800
C 	C 	0.41920 0.28170 0.25705 0.34000
C 	C 	0.28100 0.57720 0.25438 0.41300
C 	C 	0.21720 0.58650 0.25906 -0.15800
C 	C 	0.40730 0.50940 0.30174 0.42400
C 	C 	0.50620 0.58700 0.20937 0.39100
C 	C 	0.13560 0.57710 0.28190 -0.11900
H 	H 	0.12360 0.56610 0.29400 0.06400
C 	C 	0.83280 0.61360 0.28120 0.06300
C 	C 	0.40480 0.75290 0.41893 0.08100
C 	C 	0.79960 0.65080 0.27054 -0.11800
H 	H 	0.81840 0.66990 0.26030 0.06400
C 	C 	0.80230 0.57760 0.29327 -0.13600
H 	H 	0.82320 0.54900 0.30070 0.07300
C 	C 	0.35290 0.73750 0.23997 -0.00100
H 	H 	0.33460 0.71370 0.24930 0.01300
C 	C 	0.42843 0.51674 0.33599 0.06700
H 	H 	0.43810 0.47470 0.33660 0.01000
C 	C 	0.41560 0.54373 0.31918 -0.16600
C 	C 	0.40150 0.60524 0.31834 0.05800
H 	H 	0.39270 0.62370 0.30690 0.00100
C 	C 	0.40024 0.63976 0.33432 -0.12400
H 	H 	0.39060 0.68180 0.33380 0.06400
C 	C 	0.41307 0.61277 0.35113 0.04900
C 	C 	0.42717 0.55126 0.35197 -0.12600
H 	H 	0.43590 0.53280 0.36350 0.06600
C 	C 	0.40260 0.74130 0.21226 0.04100
H 	H 	0.41990 0.72230 0.20180 0.00600
C 	C 	0.64067 0.58009 0.17564 -0.12100
H 	H 	0.68350 0.57460 0.17580 0.06400
C 	C 	0.60853 0.58371 0.19203 0.04800
H 	H 	0.62940 0.58070 0.20340 0.00200
C 	C 	0.54589 0.59179 0.19176 -0.12800
C 	C 	0.51539 0.59625 0.17510 0.04400
H 	H 	0.47260 0.60180 0.17490 0.02200
C 	C 	0.54753 0.59260 0.15871 -0.11600
H 	H 	0.52670 0.59570 0.14730 0.06400
C 	C 	0.61017 0.58456 0.15898 0.05600
C 	C 	0.35170 0.79720 0.24182 -0.02300
H 	H 	0.33260 0.81500 0.25220 0.02600
C 	C 	0.37850 0.83450 0.22845 0.06300
C 	C 	0.73480 0.66290 0.27426 0.03700
H 	H 	0.71420 0.69620 0.26880 0.01500
C 	C 	0.11430 0.62180 0.25140 -0.11300
H 	H 	0.08720 0.63950 0.24280 0.06300
C 	C 	0.98430 0.59320 0.25761 -0.03700
H 	H 	0.00030 0.58210 0.24600 0.03700
C 	C 	0.00730 0.62260 0.29005 -0.04400
H 	H 	0.03480 0.62970 0.29990 0.04000
C 	C 	0.94290 0.62410 0.29314 -0.03400
H 	H 	0.92760 0.63240 0.30510 0.03800
C 	C 	0.92040 0.59340 0.26078 -0.04700
H 	H 	0.89200 0.58130 0.25170 0.04000
C 	C 	0.40270 0.80380 0.21355 -0.08300
H 	H 	0.42010 0.82670 0.20380 0.05100
C 	C 	0.65812 0.60517 0.10961 -0.04800
H 	H 	0.63920 0.61620 0.09840 0.04000
C 	C 	0.71984 0.59180 0.11001 -0.00200
C 	C 	0.74751 0.57560 0.12645 -0.04900
H 	H 	0.78970 0.56650 0.12670 0.03900
C 	C 	0.71350 0.57280 0.14250 -0.05200
H 	H 	0.73240 0.56180 0.15370 0.03700
C 	C 	0.65170 0.58620 0.14211 -0.00400
C 	C 	0.62406 0.60230 0.12566 -0.04800
H 	H 	0.58190 0.61150 0.12540 0.04100
C 	C 	0.17770 0.61410 0.24720 0.05200
H 	H 	0.19270 0.62880 0.23580 0.01900
C 	C 	0.09280 0.60180 0.26916 0.04000
O 	O 	0.45470 0.60529 0.20821 -0.48200
C 	C 	0.73940 0.58380 0.29435 0.07800
H 	H 	0.71860 0.55590 0.30210 0.00200
C 	C 	0.85142 0.58616 0.07592 0.03300
H 	H 	0.89360 0.57710 0.07600 0.01500
C 	C 	0.81797 0.58200 0.09206 -0.10700
H 	H 	0.83730 0.57010 0.10320 0.06000
C 	C 	0.75620 0.59520 0.09197 0.05400
C 	C 	0.72788 0.61260 0.07573 -0.11400
H 	H 	0.68570 0.62160 0.07570 0.06300
C 	C 	0.76134 0.61670 0.05960 0.04400
H 	H 	0.74200 0.62860 0.04850 0.01300
N 	N 	0.82311 0.60355 0.05969 -0.22100
O 	O 	0.31267 0.54425 0.26370 -0.48500
C 	C 	0.37580 0.80980 0.41877 0.05600
H 	H 	0.35800 0.82480 0.40780 0.00300
C 	C 	0.19520 0.56950 0.27614 0.05700
H 	H 	0.22290 0.55130 0.28450 0.02000
C 	C 	0.42200 0.77130 0.45038 -0.16200
H 	H 	0.43530 0.75460 0.46170 0.06600
C 	C 	0.42850 0.73570 0.43503 0.07900
H 	H 	0.45000 0.69830 0.43590 -0.00700
C 	C 	0.37330 0.84410 0.43473 -0.12800
H 	H 	0.35240 0.88180 0.43440 0.06800
C 	C 	0.36220 0.67530 0.39802 -0.02800
H 	H 	0.32850 0.67260 0.40610 0.03100
C 	C 	0.41110 0.71280 0.40234 -0.01000
C 	C 	0.46040 0.71670 0.39048 -0.03500
H 	H 	0.49380 0.74230 0.39340 0.03800
C 	C 	0.46090 0.68320 0.37429 -0.03800
H 	H 	0.49460 0.68590 0.36620 0.03700
C 	C 	0.41200 0.64580 0.36997 0.02800
C 	C 	0.36270 0.64190 0.38184 -0.04800
H 	H 	0.32930 0.61630 0.37890 0.04300
C 	C 	0.40434 0.19750 0.23314 0.01300
H 	H 	0.40170 0.22700 0.22360 0.02800
C 	C 	0.39870 0.13610 0.22901 -0.07000
H 	H 	0.39220 0.12360 0.21670 0.04600
C 	C 	0.40260 0.09310 0.24292 0.06700
C 	C 	0.41210 0.11140 0.26096 -0.08200
H 	H 	0.41470 0.08200 0.27050 0.05100
C 	C 	0.41770 0.17280 0.26508 0.02300
H 	H 	0.42420 0.18540 0.27740 0.01900
C 	C 	0.41380 0.21590 0.25117 -0.10900
C 	C 	0.37497 0.92280 0.24989 -0.04600
H 	H 	0.36300 0.89570 0.25940 0.03900
C 	C 	0.38570 0.90070 0.23231 -0.01200
C 	C 	0.40330 0.94030 0.21840 -0.04800
H 	H 	0.41060 0.92520 0.20640 0.04000
C 	C 	0.41000 0.00190 0.22209 -0.04800
H 	H 	0.42200 0.02890 0.21260 0.04000
C 	C 	0.39920 0.02390 0.23968 -0.00800
C 	C 	0.38170 0.98440 0.25358 -0.04800
H 	H 	0.37430 0.99940 0.26560 0.03900
C 	C 	0.02770 0.61140 0.27364 0.01800
C 	C 	0.90250 0.61320 0.27859 0.00900
C 	C 	0.43490 0.83760 0.43808 0.22900
H 	H 	0.46200 0.87080 0.43970 -0.06600
C 	C 	0.36520 0.77750 0.44885 0.22300
H 	H 	0.33760 0.76780 0.45840 -0.06000
C 	C 	0.36700 0.73840 0.43355 -0.23300
H 	H 	0.34280 0.70260 0.43320 0.10100
C 	C 	0.43900 0.80510 0.42162 -0.23600
H 	H 	0.46550 0.81890 0.41220 0.10700
C 	C 	0.43160 0.79890 0.22912 -0.06700
H 	H 	0.46930 0.81790 0.23180 0.04600
C 	C 	0.32560 0.79670 0.23114 -0.10300
H 	H 	0.29080 0.81240 0.23720 0.05800
C 	C 	0.43040 0.73810 0.22611 0.01700
H 	H 	0.46770 0.71700 0.22450 0.01700
C 	C 	0.32580 0.73950 0.22504 0.04900
H 	H 	0.28950 0.72140 0.22060 0.00800
C 	C 	0.99770 0.66640 0.27627 -0.03900
H 	H 	0.02010 0.70330 0.27640 0.03900
C 	C 	0.99500 0.55740 0.27350 -0.04200
H 	H 	0.01550 0.51980 0.27170 0.03700
C 	C 	0.93240 0.55820 0.27597 -0.03200
H 	H 	0.91010 0.52130 0.27590 0.04000
C 	C 	0.93510 0.66720 0.27874 -0.04100
H 	H 	0.91460 0.70480 0.28050 0.03900
C 	C 	0.37880 0.69760 0.36901 -0.05200
H 	H 	0.36140 0.71110 0.35780 0.04200
C 	C 	0.37030 0.73440 0.38747 -0.03800
H 	H 	0.34220 0.76680 0.38890 0.03800
C 	C 	0.44620 0.66700 0.40023 -0.02200
H 	H 	0.47260 0.65580 0.41000 0.02900
C 	C 	0.44690 0.63290 0.38405 -0.05100
H 	H 	0.47360 0.59910 0.38320 0.03800
C 	C 	0.36160 0.18320 0.25865 -0.00800
H 	H 	0.33270 0.20260 0.26640 0.03700
C 	C 	0.45730 0.18510 0.24081 0.01500
H 	H 	0.49350 0.20510 0.23720 0.01800
C 	C 	0.44780 0.12700 0.23602 -0.07000
H 	H 	0.47440 0.10900 0.22730 0.05000
C 	C 	0.35660 0.12370 0.25394 -0.05500
H 	H 	0.32210 0.10130 0.25790 0.04300
Co	Co	0.90163 0.02034 0.75949 1.06600
Co	Co	0.02015 0.09838 0.75163 1.06500
Co	Co	0.89051 0.87992 0.78540 1.12400
Co	Co	0.87943 0.10971 0.72578 1.11900
O 	O 	0.92908 0.10483 0.75039 -0.76700
H 	H 	0.91460 0.13690 0.75910 0.15200
O 	O 	0.89401 0.92771 0.76127 -0.76000
H 	H 	0.86170 0.91290 0.75270 0.15600
O 	O 	0.92488 0.03372 0.78717 -0.52700
O 	O 	0.89290 0.95402 0.80257 -0.47800
O 	O 	0.03632 0.07277 0.72423 -0.50900
O 	O 	0.89048 0.79868 0.77077 -0.46300
O 	O 	0.79917 0.10704 0.74040 -0.47900
O 	O 	0.95522 0.81420 0.74666 -0.44800
N 	N 	0.87890 0.20738 0.72531 -0.22900
N 	N 	0.89888 0.32671 0.95081 -0.25500
N 	N 	0.20597 0.12410 0.78586 -0.22800
C 	C 	0.91920 0.78170 0.75705 0.34000
C 	C 	0.78100 0.07720 0.75438 0.41300
C 	C 	0.71720 0.08650 0.75906 -0.15800
C 	C 	0.90730 0.00940 0.80174 0.42400
C 	C 	0.00620 0.08700 0.70937 0.39100
C 	C 	0.63560 0.07710 0.78190 -0.11900
H 	H 	0.62360 0.06610 0.79400 0.06400
C 	C 	0.33280 0.11360 0.78120 0.06300
C 	C 	0.90480 0.25290 0.91893 0.08100
C 	C 	0.29960 0.15080 0.77054 -0.11800
H 	H 	0.31840 0.16990 0.76030 0.06400
C 	C 	0.30230 0.07760 0.79327 -0.13600
H 	H 	0.32320 0.04900 0.80070 0.07300
C 	C 	0.85290 0.23750 0.73997 -0.00100
H 	H 	0.83460 0.21370 0.74930 0.01300
C 	C 	0.92843 0.01674 0.83599 0.06700
H 	H 	0.93810 0.97470 0.83660 0.01000
C 	C 	0.91560 0.04373 0.81918 -0.16600
C 	C 	0.90150 0.10524 0.81834 0.05800
H 	H 	0.89270 0.12370 0.80690 0.00100
C 	C 	0.90024 0.13976 0.83432 -0.12400
H 	H 	0.89060 0.18180 0.83380 0.06400
C 	C 	0.91307 0.11277 0.85113 0.04900
C 	C 	0.92717 0.05126 0.85197 -0.12500
H 	H 	0.93590 0.03280 0.86350 0.06600
C 	C 	0.90260 0.24130 0.71226 0.04100
H 	H 	0.91990 0.22230 0.70180 0.00600
C 	C 	0.14067 0.08009 0.67564 -0.12100
H 	H 	0.18350 0.07460 0.67580 0.06400
C 	C 	0.10853 0.08371 0.69203 0.04800
H 	H 	0.12940 0.08070 0.70340 0.00200
C 	C 	0.04589 0.09179 0.69176 -0.12800
C 	C 	0.01539 0.09625 0.67510 0.04400
H 	H 	0.97260 0.10180 0.67490 0.02200
C 	C 	0.04753 0.09260 0.65871 -0.11600
H 	H 	0.02670 0.09570 0.64730 0.06400
C 	C 	0.11017 0.08456 0.65898 0.05700
C 	C 	0.85170 0.29720 0.74182 -0.02300
H 	H 	0.83260 0.31500 0.75220 0.02600
C 	C 	0.87850 0.33450 0.72845 0.06300
C 	C 	0.23480 0.16290 0.77426 0.03700
H 	H 	0.21420 0.19620 0.76880 0.01500
C 	C 	0.61430 0.12180 0.75140 -0.11300
H 	H 	0.58720 0.13950 0.74280 0.06300
C 	C 	0.48430 0.09320 0.75761 -0.03700
H 	H 	0.50030 0.08210 0.74600 0.03700
C 	C 	0.50730 0.12260 0.79005 -0.04400
H 	H 	0.53480 0.12970 0.79990 0.03900
C 	C 	0.44290 0.12410 0.79314 -0.03500
H 	H 	0.42760 0.13240 0.80510 0.03800
C 	C 	0.42040 0.09340 0.76078 -0.04700
H 	H 	0.39200 0.08130 0.75170 0.04000
C 	C 	0.90270 0.30380 0.71355 -0.08300
H 	H 	0.92010 0.32670 0.70380 0.05100
C 	C 	0.15812 0.10517 0.60961 -0.04800
H 	H 	0.13920 0.11620 0.59840 0.04100
C 	C 	0.21984 0.09180 0.61001 -0.00200
C 	C 	0.24751 0.07560 0.62645 -0.04900
H 	H 	0.28970 0.06650 0.62670 0.03900
C 	C 	0.21350 0.07280 0.64250 -0.05200
H 	H 	0.23240 0.06180 0.65370 0.03700
C 	C 	0.15170 0.08620 0.64211 -0.00400
C 	C 	0.12406 0.10230 0.62566 -0.04800
H 	H 	0.08190 0.11150 0.62540 0.04100
C 	C 	0.67770 0.11410 0.74720 0.05200
H 	H 	0.69270 0.12880 0.73580 0.01900
C 	C 	0.59280 0.10180 0.76916 0.04000
O 	O 	0.95470 0.10529 0.70821 -0.48200
C 	C 	0.23940 0.08380 0.79435 0.07800
H 	H 	0.21860 0.05590 0.80210 0.00200
C 	C 	0.35142 0.08616 0.57592 0.03300
H 	H 	0.39360 0.07710 0.57600 0.01500
C 	C 	0.31797 0.08200 0.59206 -0.10700
H 	H 	0.33730 0.07010 0.60320 0.06000
C 	C 	0.25620 0.09520 0.59197 0.05400
C 	C 	0.22788 0.11260 0.57573 -0.11400
H 	H 	0.18570 0.12160 0.57570 0.06300
C 	C 	0.26134 0.11670 0.55960 0.04400
H 	H 	0.24200 0.12860 0.54850 0.01300
N 	N 	0.32311 0.10355 0.55969 -0.22100
O 	O 	0.81267 0.04425 0.76370 -0.48500
C 	C 	0.87580 0.30980 0.91877 0.05600
H 	H 	0.85800 0.32480 0.90780 0.00300
C 	C 	0.69520 0.06950 0.77614 0.05700
H 	H 	0.72290 0.05130 0.78450 0.02000
C 	C 	0.92200 0.27130 0.95038 -0.16200
H 	H 	0.93530 0.25460 0.96170 0.06600
C 	C 	0.92850 0.23570 0.93503 0.07900
H 	H 	0.95000 0.19830 0.93590 -0.00600
C 	C 	0.87330 0.34410 0.93473 -0.12700
H 	H 	0.85240 0.38180 0.93440 0.06800
C 	C 	0.86220 0.17530 0.89802 -0.02800
H 	H 	0.82850 0.17260 0.90610 0.03100
C 	C 	0.91110 0.21280 0.90234 -0.01000
C 	C 	0.96040 0.21670 0.89048 -0.03500
H 	H 	0.99380 0.24230 0.89340 0.03800
C 	C 	0.96090 0.18320 0.87429 -0.03800
H 	H 	0.99460 0.18590 0.86620 0.03700
C 	C 	0.91200 0.14580 0.86997 0.02900
C 	C 	0.86270 0.14190 0.88184 -0.04800
H 	H 	0.82930 0.11630 0.87890 0.04300
C 	C 	0.90434 0.69750 0.73314 0.01400
H 	H 	0.90170 0.72700 0.72360 0.02800
C 	C 	0.89870 0.63610 0.72901 -0.07000
H 	H 	0.89220 0.62360 0.71670 0.04700
C 	C 	0.90260 0.59310 0.74292 0.06700
C 	C 	0.91210 0.61140 0.76096 -0.08200
H 	H 	0.91470 0.58200 0.77050 0.05100
C 	C 	0.91770 0.67280 0.76508 0.02300
H 	H 	0.92420 0.68540 0.77740 0.01900
C 	C 	0.91380 0.71590 0.75117 -0.10900
C 	C 	0.87497 0.42280 0.74989 -0.04600
H 	H 	0.86300 0.39570 0.75940 0.03900
C 	C 	0.88570 0.40070 0.73231 -0.01200
C 	C 	0.90330 0.44030 0.71840 -0.04800
H 	H 	0.91060 0.42520 0.70640 0.04000
C 	C 	0.91000 0.50190 0.72209 -0.04800
H 	H 	0.92200 0.52890 0.71260 0.04000
C 	C 	0.89920 0.52390 0.73968 -0.00800
C 	C 	0.88170 0.48440 0.75358 -0.04800
H 	H 	0.87430 0.49940 0.76560 0.03900
C 	C 	0.52770 0.11140 0.77364 0.01800
C 	C 	0.40250 0.11320 0.77859 0.00900
C 	C 	0.93490 0.33760 0.93808 0.22900
H 	H 	0.96200 0.37080 0.93970 -0.06600
C 	C 	0.86520 0.27750 0.94885 0.22300
H 	H 	0.83760 0.26780 0.95840 -0.06000
C 	C 	0.86700 0.23840 0.93355 -0.23200
H 	H 	0.84280 0.20260 0.93320 0.10100
C 	C 	0.93900 0.30510 0.92162 -0.23600
H 	H 	0.96550 0.31890 0.91220 0.10700
C 	C 	0.93160 0.29890 0.72912 -0.06700
H 	H 	0.96930 0.31790 0.73180 0.04600
C 	C 	0.82560 0.29670 0.73114 -0.10300
H 	H 	0.79080 0.31240 0.73720 0.05800
C 	C 	0.93040 0.23810 0.72611 0.01700
H 	H 	0.96770 0.21700 0.72450 0.01700
C 	C 	0.82580 0.23950 0.72504 0.04900
H 	H 	0.78950 0.22140 0.72060 0.00800
C 	C 	0.49770 0.16640 0.77627 -0.03900
H 	H 	0.52010 0.20330 0.77640 0.03900
C 	C 	0.49500 0.05740 0.77350 -0.04300
H 	H 	0.51550 0.01980 0.77170 0.03700
C 	C 	0.43240 0.05820 0.77597 -0.03200
H 	H 	0.41010 0.02130 0.77590 0.04000
C 	C 	0.43510 0.16720 0.77874 -0.04000
H 	H 	0.41460 0.20480 0.78050 0.03900
C 	C 	0.87880 0.19760 0.86901 -0.05200
H 	H 	0.86140 0.21110 0.85780 0.04200
C 	C 	0.87030 0.23440 0.88747 -0.03800
H 	H 	0.84220 0.26680 0.88890 0.03800
C 	C 	0.94620 0.16700 0.90023 -0.02200
H 	H 	0.97260 0.15580 0.91000 0.02900
C 	C 	0.94690 0.13290 0.88405 -0.05100
H 	H 	0.97360 0.09910 0.88320 0.03800
C 	C 	0.86160 0.68320 0.75865 -0.00800
H 	H 	0.83270 0.70260 0.76640 0.03700
C 	C 	0.95730 0.68510 0.74081 0.01500
H 	H 	0.99350 0.70510 0.73720 0.01800
C 	C 	0.94780 0.62700 0.73602 -0.07000
H 	H 	0.97440 0.60900 0.72730 0.05000
C 	C 	0.85660 0.62370 0.75394 -0.05500
H 	H 	0.82210 0.60130 0.75790 0.04300
