data_crystal

_cell_length_a 17.46750
_cell_length_b 17.46750
_cell_length_c 57.83600
_cell_angle_alpha 90.00000
_cell_angle_beta  90.00000
_cell_angle_gamma 90.00000

_symmetry_space_group_name_	'P 1'
_symmetry_space_group_name_H-M	'P 1'

loop_
_symmetry_equiv_pos_as_xyz
  x,y,z

loop_
_atom_site_label
_atom_site_type_symbol
_atom_site_fract_x
_atom_site_fract_y
_atom_site_fract_z
_atom_site_charge
Co	Co	0.13414 0.40394 0.58759 1.13100
Co	Co	0.12284 0.22682 0.61999 1.13400
N 	N 	0.74357 0.09011 0.58769 -0.23300
N 	N 	0.12489 0.47190 0.55707 -0.24600
O 	O 	0.25473 0.12098 0.64390 -0.46800
O 	O 	0.23212 0.19559 0.61286 -0.46100
O 	O 	0.13312 0.81063 0.43436 -0.46000
O 	O 	0.09050 0.70890 0.41454 -0.46200
O 	O 	0.13101 0.34225 0.61809 -0.83200
H 	H 	0.17130 0.35430 0.62550 0.26600
C 	C 	0.70030 0.14260 0.57785 0.07300
H 	H 	0.72410 0.17800 0.56770 0.00300
C 	C 	0.62284 0.14910 0.58143 -0.13000
H 	H 	0.59510 0.18830 0.57370 0.07100
C 	C 	0.58518 0.10048 0.59583 0.05700
C 	C 	0.62974 0.04070 0.60449 -0.12800
H 	H 	0.60620 0.00140 0.61330 0.06800
C 	C 	0.70596 0.03796 0.60044 0.05700
H 	H 	0.73440 0.99700 0.60700 0.00600
C 	C 	0.50427 0.11024 0.60231 0.03100
C 	C 	0.45096 0.14210 0.58744 -0.10100
H 	H 	0.46560 0.15520 0.57210 0.05900
C 	C 	0.37677 0.15490 0.59464 0.03800
H 	H 	0.34100 0.17690 0.58420 0.02600
C 	C 	0.35346 0.13643 0.61686 -0.12500
C 	C 	0.40551 0.10190 0.63115 0.04100
H 	H 	0.39050 0.08780 0.64630 0.02200
C 	C 	0.47887 0.08740 0.62398 -0.10400
H 	H 	0.51300 0.06120 0.63400 0.05900
C 	C 	0.27358 0.15230 0.62512 0.37000
C 	C 	0.08010 0.45290 0.53974 -0.01400
H 	H 	0.05010 0.40770 0.54120 0.02200
C 	C 	0.07390 0.49490 0.51925 -0.04900
H 	H 	0.04010 0.47870 0.50730 0.04400
C 	C 	0.11756 0.56058 0.51652 0.09200
C 	C 	0.15940 0.58570 0.53633 -0.00900
H 	H 	0.18560 0.63330 0.53610 0.02800
C 	C 	0.16140 0.54050 0.55557 -0.06500
H 	H 	0.18980 0.55780 0.56860 0.04600
C 	C 	0.11523 0.60714 0.49511 0.01300
C 	C 	0.12080 0.57200 0.47336 -0.09900
H 	H 	0.12600 0.51800 0.47230 0.05700
C 	C 	0.11875 0.61610 0.45357 0.04000
H 	H 	0.12160 0.59190 0.43890 0.00800
C 	C 	0.11259 0.69515 0.45473 -0.13400
C 	C 	0.10960 0.72973 0.47608 0.04200
H 	H 	0.10730 0.78400 0.47710 0.02300
C 	C 	0.10980 0.68635 0.49615 -0.09600
H 	H 	0.10610 0.71110 0.51070 0.05600
C 	C 	0.11254 0.74238 0.43303 0.38900
C 	C 	0.16710 0.45000 0.53750 0.07200
H 	H 	0.19710 0.40470 0.53820 0.00200
C 	C 	0.16660 0.49140 0.51757 -0.12300
H 	H 	0.19690 0.47640 0.50470 0.06700
C 	C 	0.07930 0.57740 0.53537 -0.17900
H 	H 	0.04640 0.62070 0.53560 0.08400
C 	C 	0.08700 0.53190 0.55494 0.16300
H 	H 	0.06020 0.54850 0.56830 -0.04500
Co	Co	0.63414 0.90394 0.08759 1.12900
Co	Co	0.62284 0.72682 0.11999 1.13200
N 	N 	0.24357 0.59011 0.08769 -0.23300
N 	N 	0.62489 0.97190 0.05707 -0.24800
O 	O 	0.75473 0.62098 0.14390 -0.47100
O 	O 	0.73212 0.69559 0.11286 -0.46400
O 	O 	0.63312 0.31063 0.93436 -0.46200
O 	O 	0.59050 0.20890 0.91454 -0.46500
O 	O 	0.63101 0.84225 0.11809 -0.83300
H 	H 	0.67130 0.85430 0.12550 0.26500
C 	C 	0.20030 0.64260 0.07785 0.06700
H 	H 	0.22410 0.67800 0.06770 0.00400
C 	C 	0.12284 0.64910 0.08143 -0.11900
H 	H 	0.09510 0.68830 0.07370 0.06800
C 	C 	0.08518 0.60048 0.09583 0.04100
C 	C 	0.12974 0.54070 0.10449 -0.11900
H 	H 	0.10620 0.50140 0.11330 0.06600
C 	C 	0.20596 0.53796 0.10044 0.05500
H 	H 	0.23440 0.49700 0.10700 0.00600
C 	C 	0.00427 0.61024 0.10231 0.07000
C 	C 	0.95096 0.64210 0.08744 -0.13500
H 	H 	0.96560 0.65520 0.07210 0.06800
C 	C 	0.87677 0.65490 0.09464 0.06200
H 	H 	0.84100 0.67690 0.08420 0.01800
C 	C 	0.85346 0.63643 0.11686 -0.14500
C 	C 	0.90551 0.60190 0.13115 0.07200
H 	H 	0.89050 0.58780 0.14630 0.01100
C 	C 	0.97887 0.58740 0.12398 -0.15100
H 	H 	0.01300 0.56120 0.13400 0.08000
C 	C 	0.77358 0.65230 0.12512 0.37700
C 	C 	0.58010 0.95290 0.03974 -0.01500
H 	H 	0.55010 0.90770 0.04120 0.02000
C 	C 	0.57390 0.99490 0.01925 -0.05000
H 	H 	0.54010 0.97870 0.00730 0.04100
C 	C 	0.61756 0.06058 0.01652 0.09200
C 	C 	0.65940 0.08570 0.03633 -0.00900
H 	H 	0.68560 0.13330 0.03610 0.02700
C 	C 	0.66140 0.04050 0.05557 -0.06600
H 	H 	0.68980 0.05780 0.06860 0.04600
C 	C 	0.61523 0.10714 0.99511 0.01200
C 	C 	0.62080 0.07200 0.97336 -0.10000
H 	H 	0.62600 0.01800 0.97230 0.05500
C 	C 	0.61875 0.11610 0.95357 0.03900
H 	H 	0.62160 0.09190 0.93890 0.00700
C 	C 	0.61259 0.19515 0.95473 -0.13500
C 	C 	0.60960 0.22973 0.97608 0.04100
H 	H 	0.60730 0.28400 0.97710 0.02200
C 	C 	0.60980 0.18635 0.99615 -0.09700
H 	H 	0.60610 0.21110 0.01070 0.05500
C 	C 	0.61254 0.24238 0.93303 0.38900
C 	C 	0.66710 0.95000 0.03750 0.07200
H 	H 	0.69710 0.90470 0.03820 0.00100
C 	C 	0.66660 0.99140 0.01757 -0.12400
H 	H 	0.69690 0.97640 0.00470 0.06700
C 	C 	0.57930 0.07740 0.03537 -0.18000
H 	H 	0.54640 0.12070 0.03560 0.08200
C 	C 	0.58700 0.03190 0.05494 0.16400
H 	H 	0.56020 0.04850 0.06830 -0.04700
Co	Co	0.36586 0.59606 0.08759 1.13000
Co	Co	0.37716 0.77318 0.11999 1.13200
N 	N 	0.75643 0.90989 0.08769 -0.23700
N 	N 	0.37511 0.52810 0.05707 -0.24700
O 	O 	0.24527 0.87902 0.14390 -0.46800
O 	O 	0.26788 0.80441 0.11286 -0.46100
O 	O 	0.36688 0.18937 0.93436 -0.46200
O 	O 	0.40950 0.29110 0.91454 -0.46500
O 	O 	0.36899 0.65775 0.11809 -0.83400
H 	H 	0.32870 0.64570 0.12550 0.26600
C 	C 	0.79970 0.85740 0.07785 0.07800
H 	H 	0.77590 0.82200 0.06770 0.00100
C 	C 	0.87716 0.85090 0.08143 -0.14200
H 	H 	0.90490 0.81170 0.07370 0.07400
C 	C 	0.91482 0.89952 0.09583 0.07400
C 	C 	0.87026 0.95930 0.10449 -0.13900
H 	H 	0.89380 0.99860 0.11330 0.07100
C 	C 	0.79404 0.96204 0.10044 0.06200
H 	H 	0.76560 0.00300 0.10700 0.00400
C 	C 	0.99573 0.88976 0.10231 -0.00700
C 	C 	0.04904 0.85790 0.08744 -0.06900
H 	H 	0.03440 0.84480 0.07210 0.05100
C 	C 	0.12323 0.84510 0.09464 0.01500
H 	H 	0.15900 0.82310 0.08420 0.03400
C 	C 	0.14654 0.86357 0.11686 -0.10500
C 	C 	0.09449 0.89810 0.13115 0.01200
H 	H 	0.10950 0.91220 0.14630 0.03300
C 	C 	0.02113 0.91260 0.12398 -0.05800
H 	H 	0.98700 0.93880 0.13400 0.04000
C 	C 	0.22642 0.84770 0.12512 0.36300
C 	C 	0.41990 0.54710 0.03974 -0.01500
H 	H 	0.44990 0.59230 0.04120 0.02000
C 	C 	0.42610 0.50510 0.01925 -0.04900
H 	H 	0.45990 0.52130 0.00730 0.04100
C 	C 	0.38244 0.43942 0.01652 0.09100
C 	C 	0.34060 0.41430 0.03633 -0.00800
H 	H 	0.31440 0.36670 0.03610 0.02800
C 	C 	0.33860 0.45950 0.05557 -0.06600
H 	H 	0.31020 0.44220 0.06860 0.04600
C 	C 	0.38477 0.39286 0.99511 0.01200
C 	C 	0.37920 0.42800 0.97336 -0.10000
H 	H 	0.37400 0.48200 0.97230 0.05600
C 	C 	0.38125 0.38390 0.95357 0.03900
H 	H 	0.37840 0.40810 0.93890 0.00700
C 	C 	0.38741 0.30485 0.95473 -0.13500
C 	C 	0.39040 0.27027 0.97608 0.04100
H 	H 	0.39270 0.21600 0.97710 0.02200
C 	C 	0.39020 0.31365 0.99615 -0.09700
H 	H 	0.39390 0.28890 0.01070 0.05500
C 	C 	0.38746 0.25762 0.93303 0.38900
C 	C 	0.33290 0.55000 0.03750 0.07200
H 	H 	0.30290 0.59530 0.03820 0.00200
C 	C 	0.33340 0.50860 0.01757 -0.12300
H 	H 	0.30310 0.52360 0.00470 0.06800
C 	C 	0.42070 0.42260 0.03537 -0.17900
H 	H 	0.45360 0.37930 0.03560 0.08200
C 	C 	0.41300 0.46810 0.05494 0.16300
H 	H 	0.43980 0.45150 0.06830 -0.04700
Co	Co	0.86586 0.09606 0.58759 1.12900
Co	Co	0.87716 0.27318 0.61999 1.13100
N 	N 	0.25643 0.40989 0.58769 -0.23500
N 	N 	0.87511 0.02810 0.55707 -0.24800
O 	O 	0.74527 0.37902 0.64390 -0.46900
O 	O 	0.76788 0.30441 0.61286 -0.46200
O 	O 	0.86688 0.68937 0.43436 -0.46300
O 	O 	0.90950 0.79110 0.41454 -0.46800
O 	O 	0.86899 0.15775 0.61809 -0.83500
H 	H 	0.82870 0.14570 0.62550 0.26600
C 	C 	0.29970 0.35740 0.57785 0.07300
H 	H 	0.27590 0.32200 0.56770 0.00200
C 	C 	0.37716 0.35090 0.58143 -0.13100
H 	H 	0.40490 0.31170 0.57370 0.07200
C 	C 	0.41482 0.39952 0.59583 0.05800
C 	C 	0.37026 0.45930 0.60449 -0.13000
H 	H 	0.39380 0.49860 0.61330 0.06900
C 	C 	0.29404 0.46204 0.60044 0.06000
H 	H 	0.26560 0.50300 0.60700 0.00400
C 	C 	0.49573 0.38976 0.60231 0.03100
C 	C 	0.54904 0.35790 0.58744 -0.10100
H 	H 	0.53440 0.34480 0.57210 0.05900
C 	C 	0.62323 0.34510 0.59464 0.03800
H 	H 	0.65900 0.32310 0.58420 0.02600
C 	C 	0.64654 0.36357 0.61686 -0.12500
C 	C 	0.59449 0.39810 0.63115 0.04100
H 	H 	0.60950 0.41220 0.64630 0.02300
C 	C 	0.52113 0.41260 0.62398 -0.10400
H 	H 	0.48700 0.43880 0.63400 0.05900
C 	C 	0.72642 0.34770 0.62512 0.36900
C 	C 	0.91990 0.04710 0.53974 -0.01600
H 	H 	0.94990 0.09230 0.54120 0.01800
C 	C 	0.92610 0.00510 0.51925 -0.05000
H 	H 	0.95990 0.02130 0.50730 0.03800
C 	C 	0.88244 0.93942 0.51652 0.09200
C 	C 	0.84060 0.91430 0.53633 -0.00800
H 	H 	0.81440 0.86670 0.53610 0.02700
C 	C 	0.83860 0.95950 0.55557 -0.06600
H 	H 	0.81020 0.94220 0.56860 0.04600
C 	C 	0.88477 0.89286 0.49511 0.01100
C 	C 	0.87920 0.92800 0.47336 -0.10100
H 	H 	0.87400 0.98200 0.47230 0.05400
C 	C 	0.88125 0.88390 0.45357 0.03800
H 	H 	0.87840 0.90810 0.43890 0.00600
C 	C 	0.88741 0.80485 0.45473 -0.13600
C 	C 	0.89040 0.77027 0.47608 0.04000
H 	H 	0.89270 0.71600 0.47710 0.02100
C 	C 	0.89020 0.81365 0.49615 -0.09800
H 	H 	0.89390 0.78890 0.51070 0.05400
C 	C 	0.88746 0.75762 0.43303 0.38800
C 	C 	0.83290 0.05000 0.53750 0.07300
H 	H 	0.80290 0.09530 0.53820 0.00100
C 	C 	0.83340 0.00860 0.51757 -0.12400
H 	H 	0.80310 0.02360 0.50470 0.06700
C 	C 	0.92070 0.92260 0.53537 -0.18100
H 	H 	0.95360 0.87930 0.53560 0.08000
C 	C 	0.91300 0.96810 0.55494 0.16400
H 	H 	0.93980 0.95150 0.56830 -0.04900
Co	Co	0.34606 0.38414 0.83759 1.13000
Co	Co	0.52318 0.37284 0.86999 1.13200
N 	N 	0.65989 0.99357 0.83769 -0.23400
N 	N 	0.27810 0.37489 0.80707 -0.24700
O 	O 	0.62902 0.50473 0.89390 -0.46900
O 	O 	0.55441 0.48212 0.86286 -0.46200
O 	O 	0.93937 0.38312 0.68436 -0.47200
O 	O 	0.04110 0.34050 0.66454 -0.46700
O 	O 	0.40775 0.38101 0.86809 -0.83300
H 	H 	0.39570 0.42130 0.87550 0.26600
C 	C 	0.60740 0.95030 0.82785 0.07300
H 	H 	0.57200 0.97410 0.81770 0.00300
C 	C 	0.60090 0.87284 0.83143 -0.13100
H 	H 	0.56170 0.84510 0.82370 0.07200
C 	C 	0.64952 0.83518 0.84583 0.05800
C 	C 	0.70930 0.87974 0.85449 -0.13000
H 	H 	0.74860 0.85620 0.86330 0.06900
C 	C 	0.71204 0.95596 0.85044 0.06000
H 	H 	0.75300 0.98440 0.85700 0.00500
C 	C 	0.63976 0.75427 0.85231 0.03100
C 	C 	0.60790 0.70096 0.83744 -0.10100
H 	H 	0.59480 0.71560 0.82210 0.05900
C 	C 	0.59510 0.62677 0.84464 0.03800
H 	H 	0.57310 0.59100 0.83420 0.02600
C 	C 	0.61357 0.60346 0.86686 -0.12500
C 	C 	0.64810 0.65551 0.88115 0.04100
H 	H 	0.66220 0.64050 0.89630 0.02300
C 	C 	0.66260 0.72887 0.87398 -0.10400
H 	H 	0.68880 0.76300 0.88400 0.05900
C 	C 	0.59770 0.52358 0.87512 0.37000
C 	C 	0.29710 0.33010 0.78974 -0.01500
H 	H 	0.34230 0.30010 0.79120 0.02000
C 	C 	0.25510 0.32390 0.76925 -0.04800
H 	H 	0.27130 0.29010 0.75730 0.04000
C 	C 	0.18942 0.36756 0.76652 0.08600
C 	C 	0.16430 0.40940 0.78633 -0.00800
H 	H 	0.11670 0.43560 0.78610 0.02800
C 	C 	0.20950 0.41140 0.80557 -0.06500
H 	H 	0.19220 0.43980 0.81860 0.04600
C 	C 	0.14286 0.36523 0.74511 0.02300
C 	C 	0.17800 0.37080 0.72336 -0.11000
H 	H 	0.23200 0.37600 0.72230 0.05900
C 	C 	0.13390 0.36875 0.70357 0.05100
H 	H 	0.15810 0.37160 0.68890 0.00300
C 	C 	0.05485 0.36259 0.70473 -0.15000
C 	C 	0.02027 0.35960 0.72608 0.07000
H 	H 	0.96600 0.35730 0.72710 0.00800
C 	C 	0.06365 0.35980 0.74615 -0.11400
H 	H 	0.03890 0.35610 0.76070 0.06300
C 	C 	0.00762 0.36254 0.68303 0.40500
C 	C 	0.30000 0.41710 0.78750 0.07100
H 	H 	0.34530 0.44710 0.78820 0.00200
C 	C 	0.25860 0.41660 0.76757 -0.12100
H 	H 	0.27360 0.44690 0.75470 0.06700
C 	C 	0.17260 0.32930 0.78537 -0.17700
H 	H 	0.12930 0.29640 0.78560 0.08200
C 	C 	0.21810 0.33700 0.80494 0.16100
H 	H 	0.20150 0.31020 0.81830 -0.04600
Co	Co	0.84606 0.88414 0.33759 1.12900
Co	Co	0.02318 0.87284 0.36999 1.13500
N 	N 	0.15989 0.49357 0.33769 -0.23500
N 	N 	0.77810 0.87489 0.30707 -0.24700
O 	O 	0.12902 0.00473 0.39390 -0.46900
O 	O 	0.05441 0.98212 0.36286 -0.46200
O 	O 	0.43937 0.88312 0.18436 -0.46200
O 	O 	0.54110 0.84050 0.16454 -0.46500
O 	O 	0.90775 0.88101 0.36809 -0.83700
H 	H 	0.89570 0.92130 0.37550 0.26500
C 	C 	0.10740 0.45030 0.32785 0.07400
H 	H 	0.07200 0.47410 0.31770 0.00400
C 	C 	0.10090 0.37284 0.33143 -0.13000
H 	H 	0.06170 0.34510 0.32370 0.07400
C 	C 	0.14952 0.33518 0.34583 0.05900
C 	C 	0.20930 0.37974 0.35449 -0.13000
H 	H 	0.24860 0.35620 0.36330 0.06900
C 	C 	0.21204 0.45596 0.35044 0.06100
H 	H 	0.25300 0.48440 0.35700 0.00400
C 	C 	0.13976 0.25427 0.35231 0.03200
C 	C 	0.10790 0.20096 0.33744 -0.10000
H 	H 	0.09480 0.21560 0.32210 0.06100
C 	C 	0.09510 0.12677 0.34464 0.03900
H 	H 	0.07310 0.09100 0.33420 0.02800
C 	C 	0.11357 0.10346 0.36686 -0.12400
C 	C 	0.14810 0.15551 0.38115 0.04200
H 	H 	0.16220 0.14050 0.39630 0.02300
C 	C 	0.16260 0.22887 0.37398 -0.10300
H 	H 	0.18880 0.26300 0.38400 0.06000
C 	C 	0.09770 0.02358 0.37512 0.37200
C 	C 	0.79710 0.83010 0.28974 -0.01500
H 	H 	0.84230 0.80010 0.29120 0.02000
C 	C 	0.75510 0.82390 0.26925 -0.04900
H 	H 	0.77130 0.79010 0.25730 0.04100
C 	C 	0.68942 0.86756 0.26652 0.09100
C 	C 	0.66430 0.90940 0.28633 -0.00900
H 	H 	0.61670 0.93560 0.28610 0.02700
C 	C 	0.70950 0.91140 0.30557 -0.06600
H 	H 	0.69220 0.93980 0.31860 0.04600
C 	C 	0.64286 0.86523 0.24511 0.01200
C 	C 	0.67800 0.87080 0.22336 -0.10000
H 	H 	0.73200 0.87600 0.22230 0.05500
C 	C 	0.63390 0.86875 0.20357 0.03900
H 	H 	0.65810 0.87160 0.18890 0.00700
C 	C 	0.55485 0.86259 0.20473 -0.13500
C 	C 	0.52027 0.85960 0.22608 0.04100
H 	H 	0.46600 0.85730 0.22710 0.02200
C 	C 	0.56365 0.85980 0.24615 -0.09700
H 	H 	0.53890 0.85610 0.26070 0.05500
C 	C 	0.50762 0.86254 0.18303 0.38900
C 	C 	0.80000 0.91710 0.28750 0.07200
H 	H 	0.84530 0.94710 0.28820 0.00100
C 	C 	0.75860 0.91660 0.26757 -0.12300
H 	H 	0.77360 0.94690 0.25470 0.06600
C 	C 	0.67260 0.82930 0.28537 -0.17900
H 	H 	0.62930 0.79640 0.28560 0.08200
C 	C 	0.71810 0.83700 0.30494 0.16300
H 	H 	0.70150 0.81020 0.31830 -0.04700
Co	Co	0.15394 0.61586 0.33759 1.13000
Co	Co	0.97682 0.62716 0.36999 1.12900
N 	N 	0.84011 0.00643 0.33769 -0.23400
N 	N 	0.22190 0.62511 0.30707 -0.24700
O 	O 	0.87098 0.49527 0.39390 -0.47000
O 	O 	0.94559 0.51788 0.36286 -0.46500
O 	O 	0.56063 0.61688 0.18436 -0.46200
O 	O 	0.45890 0.65950 0.16454 -0.46500
O 	O 	0.09225 0.61899 0.36809 -0.83100
H 	H 	0.10430 0.57870 0.37550 0.26600
C 	C 	0.89260 0.04970 0.32785 0.07200
H 	H 	0.92800 0.02590 0.31770 0.00200
C 	C 	0.89910 0.12716 0.33143 -0.13100
H 	H 	0.93830 0.15490 0.32370 0.06900
C 	C 	0.85048 0.16482 0.34583 0.05700
C 	C 	0.79070 0.12026 0.35449 -0.13000
H 	H 	0.75140 0.14380 0.36330 0.06900
C 	C 	0.78796 0.04404 0.35044 0.06000
H 	H 	0.74700 0.01560 0.35700 0.00500
C 	C 	0.86024 0.24573 0.35231 0.03100
C 	C 	0.89210 0.29904 0.33744 -0.10200
H 	H 	0.90520 0.28440 0.32210 0.05800
C 	C 	0.90490 0.37323 0.34464 0.03800
H 	H 	0.92690 0.40900 0.33420 0.02400
C 	C 	0.88643 0.39654 0.36686 -0.12600
C 	C 	0.85190 0.34449 0.38115 0.04100
H 	H 	0.83780 0.35950 0.39630 0.02200
C 	C 	0.83740 0.27113 0.37398 -0.10500
H 	H 	0.81120 0.23700 0.38400 0.05900
C 	C 	0.90230 0.47642 0.37512 0.36900
C 	C 	0.20290 0.66990 0.28974 -0.01500
H 	H 	0.15770 0.69990 0.29120 0.02000
C 	C 	0.24490 0.67610 0.26925 -0.04900
H 	H 	0.22870 0.70990 0.25730 0.04100
C 	C 	0.31058 0.63244 0.26652 0.09100
C 	C 	0.33570 0.59060 0.28633 -0.00800
H 	H 	0.38330 0.56440 0.28610 0.02800
C 	C 	0.29050 0.58860 0.30557 -0.06600
H 	H 	0.30780 0.56020 0.31860 0.04600
C 	C 	0.35714 0.63477 0.24511 0.01300
C 	C 	0.32200 0.62920 0.22336 -0.10000
H 	H 	0.26800 0.62400 0.22230 0.05600
C 	C 	0.36610 0.63125 0.20357 0.03900
H 	H 	0.34190 0.62840 0.18890 0.00700
C 	C 	0.44515 0.63741 0.20473 -0.13500
C 	C 	0.47973 0.64040 0.22608 0.04100
H 	H 	0.53400 0.64270 0.22710 0.02200
C 	C 	0.43635 0.64020 0.24615 -0.09700
H 	H 	0.46110 0.64390 0.26070 0.05500
C 	C 	0.49238 0.63746 0.18303 0.38900
C 	C 	0.20000 0.58290 0.28750 0.07200
H 	H 	0.15470 0.55290 0.28820 0.00200
C 	C 	0.24140 0.58340 0.26757 -0.12300
H 	H 	0.22640 0.55310 0.25470 0.06800
C 	C 	0.32740 0.67070 0.28537 -0.17900
H 	H 	0.37070 0.70360 0.28560 0.08200
C 	C 	0.28190 0.66300 0.30494 0.16300
H 	H 	0.29850 0.68980 0.31830 -0.04700
Co	Co	0.65394 0.11586 0.83759 1.12900
Co	Co	0.47682 0.12716 0.86999 1.13200
N 	N 	0.34011 0.50643 0.83769 -0.23500
N 	N 	0.72190 0.12511 0.80707 -0.24800
O 	O 	0.37098 0.99527 0.89390 -0.46900
O 	O 	0.44559 0.01788 0.86286 -0.46400
O 	O 	0.06063 0.11688 0.68436 -0.45300
O 	O 	0.95890 0.15950 0.66454 -0.46400
O 	O 	0.59225 0.11899 0.86809 -0.83300
H 	H 	0.60430 0.07870 0.87550 0.26500
C 	C 	0.39260 0.54970 0.82785 0.07300
H 	H 	0.42800 0.52590 0.81770 0.00200
C 	C 	0.39910 0.62716 0.83143 -0.13100
H 	H 	0.43830 0.65490 0.82370 0.07200
C 	C 	0.35048 0.66482 0.84583 0.05900
C 	C 	0.29070 0.62026 0.85449 -0.13000
H 	H 	0.25140 0.64380 0.86330 0.07000
C 	C 	0.28796 0.54404 0.85044 0.06100
H 	H 	0.24700 0.51560 0.85700 0.00400
C 	C 	0.36024 0.74573 0.85231 0.03100
C 	C 	0.39210 0.79904 0.83744 -0.10100
H 	H 	0.40520 0.78440 0.82210 0.05900
C 	C 	0.40490 0.87323 0.84464 0.03800
H 	H 	0.42690 0.90900 0.83420 0.02600
C 	C 	0.38643 0.89654 0.86686 -0.12500
C 	C 	0.35190 0.84449 0.88115 0.04200
H 	H 	0.33780 0.85950 0.89630 0.02300
C 	C 	0.33740 0.77113 0.87398 -0.10400
H 	H 	0.31120 0.73700 0.88400 0.06000
C 	C 	0.40230 0.97642 0.87512 0.37200
C 	C 	0.70290 0.16990 0.78974 -0.01500
H 	H 	0.65770 0.19990 0.79120 0.02000
C 	C 	0.74490 0.17610 0.76925 -0.05000
H 	H 	0.72870 0.20990 0.75730 0.04100
C 	C 	0.81058 0.13244 0.76652 0.09600
C 	C 	0.83570 0.09060 0.78633 -0.00900
H 	H 	0.88330 0.06440 0.78610 0.02700
C 	C 	0.79050 0.08860 0.80557 -0.06600
H 	H 	0.80780 0.06020 0.81860 0.04600
C 	C 	0.85714 0.13477 0.74511 0.00200
C 	C 	0.82200 0.12920 0.72336 -0.09000
H 	H 	0.76800 0.12400 0.72230 0.05200
C 	C 	0.86610 0.13125 0.70357 0.02700
H 	H 	0.84190 0.12840 0.68890 0.01100
C 	C 	0.94515 0.13741 0.70473 -0.12100
C 	C 	0.97973 0.14040 0.72608 0.01300
H 	H 	0.03400 0.14270 0.72710 0.03700
C 	C 	0.93635 0.14020 0.74615 -0.08100
H 	H 	0.96110 0.14390 0.76070 0.04800
C 	C 	0.99238 0.13746 0.68303 0.37200
C 	C 	0.70000 0.08290 0.78750 0.07300
H 	H 	0.65470 0.05290 0.78820 0.00100
C 	C 	0.74140 0.08340 0.76757 -0.12500
H 	H 	0.72640 0.05310 0.75470 0.06800
C 	C 	0.82740 0.17070 0.78537 -0.18200
H 	H 	0.87070 0.20360 0.78560 0.08200
C 	C 	0.78190 0.16300 0.80494 0.16500
H 	H 	0.79850 0.18980 0.81830 -0.04800
Co	Co	0.86586 0.59606 0.41241 1.12900
Co	Co	0.87716 0.77318 0.38001 1.13100
N 	N 	0.25643 0.90989 0.41231 -0.23400
N 	N 	0.87511 0.52810 0.44293 -0.24800
O 	O 	0.74527 0.87902 0.35610 -0.47000
O 	O 	0.76788 0.80441 0.38714 -0.46300
O 	O 	0.86688 0.18937 0.56564 -0.46300
O 	O 	0.90950 0.29110 0.58546 -0.46800
O 	O 	0.86899 0.65775 0.38191 -0.83500
H 	H 	0.82870 0.64570 0.37450 0.26600
C 	C 	0.29970 0.85740 0.42215 0.07300
H 	H 	0.27590 0.82200 0.43230 0.00300
C 	C 	0.37716 0.85090 0.41857 -0.13000
H 	H 	0.40490 0.81170 0.42630 0.07100
C 	C 	0.41482 0.89952 0.40417 0.05700
C 	C 	0.37026 0.95930 0.39551 -0.12800
H 	H 	0.39380 0.99860 0.38670 0.06800
C 	C 	0.29404 0.96204 0.39956 0.05700
H 	H 	0.26560 0.00300 0.39300 0.00600
C 	C 	0.49573 0.88976 0.39769 0.03100
C 	C 	0.54904 0.85790 0.41256 -0.10100
H 	H 	0.53440 0.84480 0.42790 0.05900
C 	C 	0.62323 0.84510 0.40536 0.03800
H 	H 	0.65900 0.82310 0.41580 0.02600
C 	C 	0.64654 0.86357 0.38314 -0.12500
C 	C 	0.59449 0.89810 0.36885 0.04100
H 	H 	0.60950 0.91220 0.35370 0.02200
C 	C 	0.52113 0.91260 0.37602 -0.10400
H 	H 	0.48700 0.93880 0.36600 0.05900
C 	C 	0.72642 0.84770 0.37488 0.36900
C 	C 	0.91990 0.54710 0.46026 -0.01600
H 	H 	0.94990 0.59230 0.45880 0.01800
C 	C 	0.92610 0.50510 0.48075 -0.04900
H 	H 	0.95990 0.52130 0.49270 0.03700
C 	C 	0.88244 0.43942 0.48348 0.09000
C 	C 	0.84060 0.41430 0.46367 -0.00800
H 	H 	0.81440 0.36670 0.46390 0.02700
C 	C 	0.83860 0.45950 0.44443 -0.06600
H 	H 	0.81020 0.44220 0.43140 0.04600
C 	C 	0.88477 0.39286 0.50489 0.01100
C 	C 	0.87920 0.42800 0.52664 -0.10100
H 	H 	0.87400 0.48200 0.52770 0.05500
C 	C 	0.88125 0.38390 0.54643 0.03900
H 	H 	0.87840 0.40810 0.56110 0.00600
C 	C 	0.88741 0.30485 0.54527 -0.13600
C 	C 	0.89040 0.27027 0.52392 0.04000
H 	H 	0.89270 0.21600 0.52290 0.02100
C 	C 	0.89020 0.31365 0.50385 -0.09800
H 	H 	0.89390 0.28890 0.48930 0.05400
C 	C 	0.88746 0.25762 0.56697 0.38800
C 	C 	0.83290 0.55000 0.46250 0.07200
H 	H 	0.80290 0.59530 0.46180 0.00200
C 	C 	0.83340 0.50860 0.48243 -0.12300
H 	H 	0.80310 0.52360 0.49530 0.06700
C 	C 	0.92070 0.42260 0.46463 -0.18000
H 	H 	0.95360 0.37930 0.46440 0.08000
C 	C 	0.91300 0.46810 0.44506 0.16300
H 	H 	0.93980 0.45150 0.43170 -0.04800
Co	Co	0.36586 0.09606 0.91241 1.12900
Co	Co	0.37716 0.27318 0.88001 1.13200
N 	N 	0.75643 0.40989 0.91231 -0.23700
N 	N 	0.37511 0.02810 0.94293 -0.24800
O 	O 	0.24527 0.37902 0.85610 -0.46700
O 	O 	0.26788 0.30441 0.88714 -0.46100
O 	O 	0.36688 0.68937 0.06564 -0.46200
O 	O 	0.40950 0.79110 0.08546 -0.46500
O 	O 	0.36899 0.15775 0.88191 -0.83400
H 	H 	0.32870 0.14570 0.87450 0.26600
C 	C 	0.79970 0.35740 0.92215 0.07900
H 	H 	0.77590 0.32200 0.93230 0.00000
C 	C 	0.87716 0.35090 0.91857 -0.14300
H 	H 	0.90490 0.31170 0.92630 0.07500
C 	C 	0.91482 0.39952 0.90417 0.07600
C 	C 	0.87026 0.45930 0.89551 -0.14200
H 	H 	0.89380 0.49860 0.88670 0.07200
C 	C 	0.79404 0.46204 0.89956 0.06600
H 	H 	0.76560 0.50300 0.89300 0.00200
C 	C 	0.99573 0.38976 0.89769 -0.00900
C 	C 	0.04904 0.35790 0.91256 -0.06700
H 	H 	0.03440 0.34480 0.92790 0.05000
C 	C 	0.12323 0.34510 0.90536 0.01400
H 	H 	0.15900 0.32310 0.91580 0.03400
C 	C 	0.14654 0.36357 0.88314 -0.10400
C 	C 	0.09449 0.39810 0.86885 0.01100
H 	H 	0.10950 0.41220 0.85370 0.03400
C 	C 	0.02113 0.41260 0.87602 -0.05600
H 	H 	0.98700 0.43880 0.86600 0.03900
C 	C 	0.22642 0.34770 0.87488 0.36200
C 	C 	0.41990 0.04710 0.96026 -0.01500
H 	H 	0.44990 0.09230 0.95880 0.02000
C 	C 	0.42610 0.00510 0.98075 -0.04900
H 	H 	0.45990 0.02130 0.99270 0.04100
C 	C 	0.38244 0.93942 0.98348 0.09200
C 	C 	0.34060 0.91430 0.96367 -0.00800
H 	H 	0.31440 0.86670 0.96390 0.02800
C 	C 	0.33860 0.95950 0.94443 -0.06600
H 	H 	0.31020 0.94220 0.93140 0.04700
C 	C 	0.38477 0.89286 0.00489 0.01200
C 	C 	0.37920 0.92800 0.02664 -0.10000
H 	H 	0.37400 0.98200 0.02770 0.05500
C 	C 	0.38125 0.88390 0.04643 0.03900
H 	H 	0.37840 0.90810 0.06110 0.00700
C 	C 	0.38741 0.80485 0.04527 -0.13500
C 	C 	0.39040 0.77027 0.02392 0.04100
H 	H 	0.39270 0.71600 0.02290 0.02200
C 	C 	0.39020 0.81365 0.00385 -0.09700
H 	H 	0.39390 0.78890 0.98930 0.05500
C 	C 	0.38746 0.75762 0.06697 0.38900
C 	C 	0.33290 0.05000 0.96250 0.07300
H 	H 	0.30290 0.09530 0.96180 0.00200
C 	C 	0.33340 0.00860 0.98243 -0.12400
H 	H 	0.30310 0.02360 0.99530 0.06800
C 	C 	0.42070 0.92260 0.96463 -0.18000
H 	H 	0.45360 0.87930 0.96440 0.08200
C 	C 	0.41300 0.96810 0.94506 0.16400
H 	H 	0.43980 0.95150 0.93170 -0.04700
Co	Co	0.63414 0.40394 0.91241 1.13000
Co	Co	0.62284 0.22682 0.88001 1.13200
N 	N 	0.24357 0.09011 0.91231 -0.23200
N 	N 	0.62489 0.47190 0.94293 -0.24700
O 	O 	0.75473 0.12098 0.85610 -0.47100
O 	O 	0.73212 0.19559 0.88714 -0.46400
O 	O 	0.63312 0.81063 0.06564 -0.46200
O 	O 	0.59050 0.70890 0.08546 -0.46500
O 	O 	0.63101 0.34225 0.88191 -0.83300
H 	H 	0.67130 0.35430 0.87450 0.26500
C 	C 	0.20030 0.14260 0.92215 0.06700
H 	H 	0.22410 0.17800 0.93230 0.00500
C 	C 	0.12284 0.14910 0.91857 -0.11800
H 	H 	0.09510 0.18830 0.92630 0.06800
C 	C 	0.08518 0.10048 0.90417 0.04000
C 	C 	0.12974 0.04070 0.89551 -0.11700
H 	H 	0.10620 0.00140 0.88670 0.06500
C 	C 	0.20596 0.03796 0.89956 0.05200
H 	H 	0.23440 0.99700 0.89300 0.00800
C 	C 	0.00427 0.11024 0.89769 0.07100
C 	C 	0.95096 0.14210 0.91256 -0.13500
H 	H 	0.96560 0.15520 0.92790 0.06800
C 	C 	0.87677 0.15490 0.90536 0.06200
H 	H 	0.84100 0.17690 0.91580 0.01800
C 	C 	0.85346 0.13643 0.88314 -0.14600
C 	C 	0.90551 0.10190 0.86885 0.07200
H 	H 	0.89050 0.08780 0.85370 0.01100
C 	C 	0.97887 0.08740 0.87602 -0.15200
H 	H 	0.01300 0.06120 0.86600 0.08000
C 	C 	0.77358 0.15230 0.87488 0.37700
C 	C 	0.58010 0.45290 0.96026 -0.01500
H 	H 	0.55010 0.40770 0.95880 0.02000
C 	C 	0.57390 0.49490 0.98075 -0.04900
H 	H 	0.54010 0.47870 0.99270 0.04100
C 	C 	0.61756 0.56058 0.98348 0.09100
C 	C 	0.65940 0.58570 0.96367 -0.00900
H 	H 	0.68560 0.63330 0.96390 0.02700
C 	C 	0.66140 0.54050 0.94443 -0.06600
H 	H 	0.68980 0.55780 0.93140 0.04600
C 	C 	0.61523 0.60714 0.00489 0.01200
C 	C 	0.62080 0.57200 0.02664 -0.10000
H 	H 	0.62600 0.51800 0.02770 0.05500
C 	C 	0.61875 0.61610 0.04643 0.03900
H 	H 	0.62160 0.59190 0.06110 0.00700
C 	C 	0.61259 0.69515 0.04527 -0.13500
C 	C 	0.60960 0.72973 0.02392 0.04100
H 	H 	0.60730 0.78400 0.02290 0.02200
C 	C 	0.60980 0.68635 0.00385 -0.09700
H 	H 	0.60610 0.71110 0.98930 0.05500
C 	C 	0.61254 0.74238 0.06697 0.38900
C 	C 	0.66710 0.45000 0.96250 0.07200
H 	H 	0.69710 0.40470 0.96180 0.00100
C 	C 	0.66660 0.49140 0.98243 -0.12300
H 	H 	0.69690 0.47640 0.99530 0.06700
C 	C 	0.57930 0.57740 0.96463 -0.17900
H 	H 	0.54640 0.62070 0.96440 0.08200
C 	C 	0.58700 0.53190 0.94506 0.16300
H 	H 	0.56020 0.54850 0.93170 -0.04700
Co	Co	0.13414 0.90394 0.41241 1.13000
Co	Co	0.12284 0.72682 0.38001 1.13300
N 	N 	0.74357 0.59011 0.41231 -0.23500
N 	N 	0.12489 0.97190 0.44293 -0.24800
O 	O 	0.25473 0.62098 0.35610 -0.46900
O 	O 	0.23212 0.69559 0.38714 -0.46200
O 	O 	0.13312 0.31063 0.56564 -0.46100
O 	O 	0.09050 0.20890 0.58546 -0.46300
O 	O 	0.13101 0.84225 0.38191 -0.83300
H 	H 	0.17130 0.85430 0.37450 0.26500
C 	C 	0.70030 0.64260 0.42215 0.07300
H 	H 	0.72410 0.67800 0.43230 0.00300
C 	C 	0.62284 0.64910 0.41857 -0.13100
H 	H 	0.59510 0.68830 0.42630 0.07200
C 	C 	0.58518 0.60048 0.40417 0.05800
C 	C 	0.62974 0.54070 0.39551 -0.13000
H 	H 	0.60620 0.50140 0.38670 0.06900
C 	C 	0.70596 0.53796 0.39956 0.06000
H 	H 	0.73440 0.49700 0.39300 0.00400
C 	C 	0.50427 0.61024 0.39769 0.03100
C 	C 	0.45096 0.64210 0.41256 -0.10100
H 	H 	0.46560 0.65520 0.42790 0.05900
C 	C 	0.37677 0.65490 0.40536 0.03800
H 	H 	0.34100 0.67690 0.41580 0.02600
C 	C 	0.35346 0.63643 0.38314 -0.12500
C 	C 	0.40551 0.60190 0.36885 0.04100
H 	H 	0.39050 0.58780 0.35370 0.02300
C 	C 	0.47887 0.58740 0.37602 -0.10400
H 	H 	0.51300 0.56120 0.36600 0.05900
C 	C 	0.27358 0.65230 0.37488 0.37000
C 	C 	0.08010 0.95290 0.46026 -0.01400
H 	H 	0.05010 0.90770 0.45880 0.02200
C 	C 	0.07390 0.99490 0.48075 -0.05000
H 	H 	0.04010 0.97870 0.49270 0.04400
C 	C 	0.11756 0.06058 0.48348 0.09300
C 	C 	0.15940 0.08570 0.46367 -0.00900
H 	H 	0.18560 0.13330 0.46390 0.02800
C 	C 	0.16140 0.04050 0.44443 -0.06500
H 	H 	0.18980 0.05780 0.43140 0.04700
C 	C 	0.11523 0.10714 0.50489 0.01300
C 	C 	0.12080 0.07200 0.52664 -0.09800
H 	H 	0.12600 0.01800 0.52770 0.05600
C 	C 	0.11875 0.11610 0.54643 0.04000
H 	H 	0.12160 0.09190 0.56110 0.00800
C 	C 	0.11259 0.19515 0.54527 -0.13400
C 	C 	0.10960 0.22973 0.52392 0.04200
H 	H 	0.10730 0.28400 0.52290 0.02300
C 	C 	0.10980 0.18635 0.50385 -0.09600
H 	H 	0.10610 0.21110 0.48930 0.05600
C 	C 	0.11254 0.24238 0.56697 0.38900
C 	C 	0.16710 0.95000 0.46250 0.07300
H 	H 	0.19710 0.90470 0.46180 0.00200
C 	C 	0.16660 0.99140 0.48243 -0.12400
H 	H 	0.19690 0.97640 0.49530 0.06800
C 	C 	0.07930 0.07740 0.46463 -0.18000
H 	H 	0.04640 0.12070 0.46440 0.08500
C 	C 	0.08700 0.03190 0.44506 0.16500
H 	H 	0.06020 0.04850 0.43170 -0.04500
Co	Co	0.65394 0.61586 0.16241 1.13000
Co	Co	0.47682 0.62716 0.13001 1.13200
N 	N 	0.34011 0.00643 0.16231 -0.23400
N 	N 	0.72190 0.62511 0.19293 -0.24800
O 	O 	0.37098 0.49527 0.10610 -0.46900
O 	O 	0.44559 0.51788 0.13714 -0.46200
O 	O 	0.06063 0.61688 0.31564 -0.45300
O 	O 	0.95890 0.65950 0.33546 -0.46400
O 	O 	0.59225 0.61899 0.13191 -0.83300
H 	H 	0.60430 0.57870 0.12450 0.26500
C 	C 	0.39260 0.04970 0.17215 0.07300
H 	H 	0.42800 0.02590 0.18230 0.00300
C 	C 	0.39910 0.12716 0.16857 -0.13100
H 	H 	0.43830 0.15490 0.17630 0.07200
C 	C 	0.35048 0.16482 0.15417 0.05900
C 	C 	0.29070 0.12026 0.14551 -0.13000
H 	H 	0.25140 0.14380 0.13670 0.07000
C 	C 	0.28796 0.04404 0.14956 0.06100
H 	H 	0.24700 0.01560 0.14300 0.00500
C 	C 	0.36024 0.24573 0.14769 0.03100
C 	C 	0.39210 0.29904 0.16256 -0.10100
H 	H 	0.40520 0.28440 0.17790 0.05900
C 	C 	0.40490 0.37323 0.15536 0.03800
H 	H 	0.42690 0.40900 0.16580 0.02600
C 	C 	0.38643 0.39654 0.13314 -0.12500
C 	C 	0.35190 0.34449 0.11885 0.04100
H 	H 	0.33780 0.35950 0.10370 0.02300
C 	C 	0.33740 0.27113 0.12602 -0.10400
H 	H 	0.31120 0.23700 0.11600 0.06000
C 	C 	0.40230 0.47642 0.12488 0.37000
C 	C 	0.70290 0.66990 0.21026 -0.01500
H 	H 	0.65770 0.69990 0.20880 0.02000
C 	C 	0.74490 0.67610 0.23075 -0.05000
H 	H 	0.72870 0.70990 0.24270 0.04100
C 	C 	0.81058 0.63244 0.23348 0.09600
C 	C 	0.83570 0.59060 0.21367 -0.00900
H 	H 	0.88330 0.56440 0.21390 0.02700
C 	C 	0.79050 0.58860 0.19443 -0.06600
H 	H 	0.80780 0.56020 0.18140 0.04600
C 	C 	0.85714 0.63477 0.25489 0.00200
C 	C 	0.82200 0.62920 0.27664 -0.09000
H 	H 	0.76800 0.62400 0.27770 0.05200
C 	C 	0.86610 0.63125 0.29643 0.02800
H 	H 	0.84190 0.62840 0.31110 0.01100
C 	C 	0.94515 0.63741 0.29527 -0.12100
C 	C 	0.97973 0.64040 0.27392 0.01300
H 	H 	0.03400 0.64270 0.27290 0.03700
C 	C 	0.93635 0.64020 0.25385 -0.08100
H 	H 	0.96110 0.64390 0.23930 0.04800
C 	C 	0.99238 0.63746 0.31697 0.37300
C 	C 	0.70000 0.58290 0.21250 0.07300
H 	H 	0.65470 0.55290 0.21180 0.00100
C 	C 	0.74140 0.58340 0.23243 -0.12500
H 	H 	0.72640 0.55310 0.24530 0.06800
C 	C 	0.82740 0.67070 0.21463 -0.18200
H 	H 	0.87070 0.70360 0.21440 0.08200
C 	C 	0.78190 0.66300 0.19506 0.16500
H 	H 	0.79850 0.68980 0.18170 -0.04800
Co	Co	0.15394 0.11586 0.66241 1.13000
Co	Co	0.97682 0.12716 0.63001 1.12900
N 	N 	0.84011 0.50643 0.66231 -0.23500
N 	N 	0.22190 0.12511 0.69293 -0.24800
O 	O 	0.87098 0.99527 0.60610 -0.47000
O 	O 	0.94559 0.01788 0.63714 -0.46700
O 	O 	0.56063 0.11688 0.81564 -0.46200
O 	O 	0.45890 0.15950 0.83546 -0.46500
O 	O 	0.09225 0.11899 0.63191 -0.83100
H 	H 	0.10430 0.07870 0.62450 0.26600
C 	C 	0.89260 0.54970 0.67215 0.07200
H 	H 	0.92800 0.52590 0.68230 0.00100
C 	C 	0.89910 0.62716 0.66857 -0.13100
H 	H 	0.93830 0.65490 0.67630 0.06900
C 	C 	0.85048 0.66482 0.65417 0.05700
C 	C 	0.79070 0.62026 0.64551 -0.13000
H 	H 	0.75140 0.64380 0.63670 0.06900
C 	C 	0.78796 0.54404 0.64956 0.06000
H 	H 	0.74700 0.51560 0.64300 0.00400
C 	C 	0.86024 0.74573 0.64769 0.03100
C 	C 	0.89210 0.79904 0.66256 -0.10200
H 	H 	0.90520 0.78440 0.67790 0.05800
C 	C 	0.90490 0.87323 0.65536 0.03800
H 	H 	0.92690 0.90900 0.66580 0.02500
C 	C 	0.88643 0.89654 0.63314 -0.12600
C 	C 	0.85190 0.84449 0.61885 0.04200
H 	H 	0.83780 0.85950 0.60370 0.02200
C 	C 	0.83740 0.77113 0.62602 -0.10500
H 	H 	0.81120 0.73700 0.61600 0.05900
C 	C 	0.90230 0.97642 0.62488 0.37200
C 	C 	0.20290 0.16990 0.71026 -0.01500
H 	H 	0.15770 0.19990 0.70880 0.02000
C 	C 	0.24490 0.17610 0.73075 -0.04900
H 	H 	0.22870 0.20990 0.74270 0.04100
C 	C 	0.31058 0.13244 0.73348 0.09100
C 	C 	0.33570 0.09060 0.71367 -0.00800
H 	H 	0.38330 0.06440 0.71390 0.02700
C 	C 	0.29050 0.08860 0.69443 -0.06600
H 	H 	0.30780 0.06020 0.68140 0.04600
C 	C 	0.35714 0.13477 0.75489 0.01200
C 	C 	0.32200 0.12920 0.77664 -0.10000
H 	H 	0.26800 0.12400 0.77770 0.05600
C 	C 	0.36610 0.13125 0.79643 0.03900
H 	H 	0.34190 0.12840 0.81110 0.00700
C 	C 	0.44515 0.13741 0.79527 -0.13500
C 	C 	0.47973 0.14040 0.77392 0.04100
H 	H 	0.53400 0.14270 0.77290 0.02200
C 	C 	0.43635 0.14020 0.75385 -0.09700
H 	H 	0.46110 0.14390 0.73930 0.05500
C 	C 	0.49238 0.13746 0.81697 0.38900
C 	C 	0.20000 0.08290 0.71250 0.07200
H 	H 	0.15470 0.05290 0.71180 0.00200
C 	C 	0.24140 0.08340 0.73243 -0.12300
H 	H 	0.22640 0.05310 0.74530 0.06700
C 	C 	0.32740 0.17070 0.71463 -0.17900
H 	H 	0.37070 0.20360 0.71440 0.08200
C 	C 	0.28190 0.16300 0.69506 0.16300
H 	H 	0.29850 0.18980 0.68170 -0.04700
Co	Co	0.84606 0.38414 0.66241 1.13000
Co	Co	0.02318 0.37284 0.63001 1.13500
N 	N 	0.15989 0.99357 0.66231 -0.23400
N 	N 	0.77810 0.37489 0.69293 -0.24700
O 	O 	0.12902 0.50473 0.60610 -0.46900
O 	O 	0.05441 0.48212 0.63714 -0.46000
O 	O 	0.43937 0.38312 0.81564 -0.46200
O 	O 	0.54110 0.34050 0.83546 -0.46500
O 	O 	0.90775 0.38101 0.63191 -0.83700
H 	H 	0.89570 0.42130 0.62450 0.26500
C 	C 	0.10740 0.95030 0.67215 0.07400
H 	H 	0.07200 0.97410 0.68230 0.00500
C 	C 	0.10090 0.87284 0.66857 -0.13000
H 	H 	0.06170 0.84510 0.67630 0.07400
C 	C 	0.14952 0.83518 0.65417 0.05900
C 	C 	0.20930 0.87974 0.64551 -0.13000
H 	H 	0.24860 0.85620 0.63670 0.06900
C 	C 	0.21204 0.95596 0.64956 0.06100
H 	H 	0.25300 0.98440 0.64300 0.00500
C 	C 	0.13976 0.75427 0.64769 0.03100
C 	C 	0.10790 0.70096 0.66256 -0.10000
H 	H 	0.09480 0.71560 0.67790 0.06000
C 	C 	0.09510 0.62677 0.65536 0.03800
H 	H 	0.07310 0.59100 0.66580 0.02800
C 	C 	0.11357 0.60346 0.63314 -0.12300
C 	C 	0.14810 0.65551 0.61885 0.04100
H 	H 	0.16220 0.64050 0.60370 0.02300
C 	C 	0.16260 0.72887 0.62602 -0.10300
H 	H 	0.18880 0.76300 0.61600 0.06000
C 	C 	0.09770 0.52358 0.62488 0.37000
C 	C 	0.79710 0.33010 0.71026 -0.01500
H 	H 	0.84230 0.30010 0.70880 0.02000
C 	C 	0.75510 0.32390 0.73075 -0.04900
H 	H 	0.77130 0.29010 0.74270 0.04100
C 	C 	0.68942 0.36756 0.73348 0.09100
C 	C 	0.66430 0.40940 0.71367 -0.00900
H 	H 	0.61670 0.43560 0.71390 0.02800
C 	C 	0.70950 0.41140 0.69443 -0.06600
H 	H 	0.69220 0.43980 0.68140 0.04600
C 	C 	0.64286 0.36523 0.75489 0.01200
C 	C 	0.67800 0.37080 0.77664 -0.10000
H 	H 	0.73200 0.37600 0.77770 0.05500
C 	C 	0.63390 0.36875 0.79643 0.03900
H 	H 	0.65810 0.37160 0.81110 0.00700
C 	C 	0.55485 0.36259 0.79527 -0.13500
C 	C 	0.52027 0.35960 0.77392 0.04100
H 	H 	0.46600 0.35730 0.77290 0.02200
C 	C 	0.56365 0.35980 0.75385 -0.09700
H 	H 	0.53890 0.35610 0.73930 0.05500
C 	C 	0.50762 0.36254 0.81697 0.38900
C 	C 	0.80000 0.41710 0.71250 0.07200
H 	H 	0.84530 0.44710 0.71180 0.00100
C 	C 	0.75860 0.41660 0.73243 -0.12300
H 	H 	0.77360 0.44690 0.74530 0.06700
C 	C 	0.67260 0.32930 0.71463 -0.17900
H 	H 	0.62930 0.29640 0.71440 0.08200
C 	C 	0.71810 0.33700 0.69506 0.16300
H 	H 	0.70150 0.31020 0.68170 -0.04700
Co	Co	0.34606 0.88414 0.16241 1.12900
Co	Co	0.52318 0.87284 0.13001 1.13200
N 	N 	0.65989 0.49357 0.16231 -0.23500
N 	N 	0.27810 0.87489 0.19293 -0.24700
O 	O 	0.62902 0.00473 0.10610 -0.46900
O 	O 	0.55441 0.98212 0.13714 -0.46400
O 	O 	0.93937 0.88312 0.31564 -0.47200
O 	O 	0.04110 0.84050 0.33546 -0.46700
O 	O 	0.40775 0.88101 0.13191 -0.83300
H 	H 	0.39570 0.92130 0.12450 0.26500
C 	C 	0.60740 0.45030 0.17215 0.07300
H 	H 	0.57200 0.47410 0.18230 0.00300
C 	C 	0.60090 0.37284 0.16857 -0.13100
H 	H 	0.56170 0.34510 0.17630 0.07200
C 	C 	0.64952 0.33518 0.15417 0.05800
C 	C 	0.70930 0.37974 0.14551 -0.13000
H 	H 	0.74860 0.35620 0.13670 0.06800
C 	C 	0.71204 0.45596 0.14956 0.06000
H 	H 	0.75300 0.48440 0.14300 0.00400
C 	C 	0.63976 0.25427 0.14769 0.03100
C 	C 	0.60790 0.20096 0.16256 -0.10100
H 	H 	0.59480 0.21560 0.17790 0.05900
C 	C 	0.59510 0.12677 0.15536 0.03800
H 	H 	0.57310 0.09100 0.16580 0.02600
C 	C 	0.61357 0.10346 0.13314 -0.12500
C 	C 	0.64810 0.15551 0.11885 0.04200
H 	H 	0.66220 0.14050 0.10370 0.02200
C 	C 	0.66260 0.22887 0.12602 -0.10400
H 	H 	0.68880 0.26300 0.11600 0.05900
C 	C 	0.59770 0.02358 0.12488 0.37200
C 	C 	0.29710 0.83010 0.21026 -0.01500
H 	H 	0.34230 0.80010 0.20880 0.02000
C 	C 	0.25510 0.82390 0.23075 -0.04800
H 	H 	0.27130 0.79010 0.24270 0.04000
C 	C 	0.18942 0.86756 0.23348 0.08600
C 	C 	0.16430 0.90940 0.21367 -0.00800
H 	H 	0.11670 0.93560 0.21390 0.02800
C 	C 	0.20950 0.91140 0.19443 -0.06500
H 	H 	0.19220 0.93980 0.18140 0.04600
C 	C 	0.14286 0.86523 0.25489 0.02200
C 	C 	0.17800 0.87080 0.27664 -0.11000
H 	H 	0.23200 0.87600 0.27770 0.05900
C 	C 	0.13390 0.86875 0.29643 0.05100
H 	H 	0.15810 0.87160 0.31110 0.00300
C 	C 	0.05485 0.86259 0.29527 -0.15000
C 	C 	0.02027 0.85960 0.27392 0.06900
H 	H 	0.96600 0.85730 0.27290 0.00800
C 	C 	0.06365 0.85980 0.25385 -0.11300
H 	H 	0.03890 0.85610 0.23930 0.06300
C 	C 	0.00762 0.86254 0.31697 0.40500
C 	C 	0.30000 0.91710 0.21250 0.07100
H 	H 	0.34530 0.94710 0.21180 0.00200
C 	C 	0.25860 0.91660 0.23243 -0.12100
H 	H 	0.27360 0.94690 0.24530 0.06600
C 	C 	0.17260 0.82930 0.21463 -0.17700
H 	H 	0.12930 0.79640 0.21440 0.08200
C 	C 	0.21810 0.83700 0.19506 0.16100
H 	H 	0.20150 0.81020 0.18170 -0.04600
O 	O 	0.00000 0.25000 0.62500 -0.64200
O 	O 	0.50000 0.75000 0.12500 -0.64800
O 	O 	0.50000 0.25000 0.87500 -0.64800
O 	O 	-0.00000 0.75000 0.37500 -0.64200
