data_crystal

_cell_length_a 21.64920
_cell_length_b 9.95280
_cell_length_c 8.41460
_cell_angle_alpha 90.00000
_cell_angle_beta  105.59700
_cell_angle_gamma 90.00000

_symmetry_space_group_name_	'P 1'
_symmetry_space_group_name_H-M	'P 1'

loop_
_symmetry_equiv_pos_as_xyz
  x,y,z

loop_
_atom_site_label
_atom_site_type_symbol
_atom_site_fract_x
_atom_site_fract_y
_atom_site_fract_z
_atom_site_charge
H 	H 	0.57050 0.16300 0.83100 0.07900
C 	C 	0.61871 0.32820 0.62500 0.14400
C 	C 	0.64279 0.27730 0.79720 -0.24000
H 	H 	0.67000 0.34460 0.86500 0.11900
H 	H 	0.66830 0.19700 0.79790 0.11800
C 	C 	0.66168 0.13030 0.10650 0.14800
C 	C 	0.61081 0.23670 0.04900 -0.24800
H 	H 	0.57460 0.21640 0.09240 0.05900
H 	H 	0.62800 0.32300 0.09310 0.06700
N 	N 	0.56326 0.39210 0.57080 -0.22900
N 	N 	0.56148 0.43270 0.41680 -0.17300
N 	N 	0.61359 0.39400 0.38030 -0.09300
N 	N 	0.65041 0.32650 0.50890 -0.21400
N 	N 	0.66227 0.01650 0.02390 -0.14200
N 	N 	0.71588 0.95250 0.10960 -0.16300
N 	N 	0.74545 0.02290 0.23820 -0.08600
N 	N 	0.71189 0.13780 0.23880 -0.20800
N 	N 	0.58815 0.24590 0.86680 -0.16000
H 	H 	0.07050 0.66300 0.83100 0.06000
C 	C 	0.11871 0.82820 0.62500 0.13900
C 	C 	0.14279 0.77730 0.79720 -0.24200
H 	H 	0.17000 0.84460 0.86500 0.12000
H 	H 	0.16830 0.69700 0.79790 0.11800
C 	C 	0.16168 0.63030 0.10650 0.14100
C 	C 	0.11081 0.73670 0.04900 -0.23800
H 	H 	0.07460 0.71640 0.09240 0.03600
H 	H 	0.12800 0.82300 0.09310 0.06000
N 	N 	0.06326 0.89210 0.57080 -0.24700
N 	N 	0.06148 0.93270 0.41680 -0.19200
N 	N 	0.11359 0.89400 0.38030 -0.09700
N 	N 	0.15041 0.82650 0.50890 -0.21500
N 	N 	0.16227 0.51650 0.02390 -0.14500
N 	N 	0.21588 0.45250 0.10960 -0.16400
N 	N 	0.24545 0.52290 0.23820 -0.08700
N 	N 	0.21189 0.63780 0.23880 -0.20800
N 	N 	0.08815 0.74590 0.86680 -0.16700
H 	H 	0.42950 0.16300 0.66900 0.07300
C 	C 	0.38129 0.32820 0.87500 0.14900
C 	C 	0.35721 0.27730 0.70280 -0.22400
H 	H 	0.33000 0.34460 0.63500 0.09600
H 	H 	0.33170 0.19700 0.70210 0.10200
C 	C 	0.33832 0.13030 0.39350 0.14300
C 	C 	0.38919 0.23670 0.45100 -0.16800
H 	H 	0.42540 0.21640 0.40760 0.04900
H 	H 	0.37200 0.32300 0.40690 0.05900
N 	N 	0.43674 0.39210 0.92920 -0.19300
N 	N 	0.43852 0.43270 0.08320 -0.20800
N 	N 	0.38641 0.39400 0.11970 -0.12300
N 	N 	0.34959 0.32650 0.99110 -0.16800
N 	N 	0.33773 0.01650 0.47610 -0.11600
N 	N 	0.28412 0.95250 0.39040 -0.15500
N 	N 	0.25455 0.02290 0.26180 -0.09200
N 	N 	0.28811 0.13780 0.26120 -0.21200
N 	N 	0.41185 0.24590 0.63320 -0.19700
H 	H 	0.92950 0.66300 0.66900 0.09400
C 	C 	0.88129 0.82820 0.87500 0.15400
C 	C 	0.85721 0.77730 0.70280 -0.21700
H 	H 	0.83000 0.84460 0.63500 0.09400
H 	H 	0.83170 0.69700 0.70210 0.10100
C 	C 	0.83832 0.63030 0.39350 0.15000
C 	C 	0.88919 0.73670 0.45100 -0.17700
H 	H 	0.92540 0.71640 0.40760 0.07500
H 	H 	0.87200 0.82300 0.40690 0.06700
N 	N 	0.93674 0.89210 0.92920 -0.17000
N 	N 	0.93852 0.93270 0.08320 -0.17900
N 	N 	0.88641 0.89400 0.11970 -0.11600
N 	N 	0.84959 0.82650 0.99110 -0.16900
N 	N 	0.83773 0.51650 0.47610 -0.11200
N 	N 	0.78412 0.45250 0.39040 -0.15200
N 	N 	0.75455 0.52290 0.26180 -0.09300
N 	N 	0.78811 0.63780 0.26120 -0.21300
N 	N 	0.91185 0.74590 0.63320 -0.18600
H 	H 	0.42950 0.83700 0.16900 0.05500
C 	C 	0.38129 0.67180 0.37500 0.13400
C 	C 	0.35721 0.72270 0.20280 -0.21200
H 	H 	0.33000 0.65540 0.13500 0.07200
H 	H 	0.33170 0.80300 0.20210 0.08000
C 	C 	0.33832 0.86970 0.89350 0.15000
C 	C 	0.38919 0.76330 0.95100 -0.09800
H 	H 	0.42540 0.78360 0.90760 0.05100
H 	H 	0.37200 0.67700 0.90690 0.06000
N 	N 	0.43674 0.60790 0.42920 -0.22800
N 	N 	0.43852 0.56730 0.58320 -0.16900
N 	N 	0.38641 0.60600 0.61970 -0.08700
N 	N 	0.34959 0.67350 0.49110 -0.21200
N 	N 	0.33773 0.98350 0.97610 -0.09400
N 	N 	0.28412 0.04750 0.89040 -0.13400
N 	N 	0.25455 0.97710 0.76180 -0.08200
N 	N 	0.28811 0.86220 0.76120 -0.20100
N 	N 	0.41185 0.75410 0.13320 -0.23100
H 	H 	0.92950 0.33700 0.16900 0.07700
C 	C 	0.88129 0.17180 0.37500 0.14100
C 	C 	0.85721 0.22270 0.20280 -0.20600
H 	H 	0.83000 0.15540 0.13500 0.07100
H 	H 	0.83170 0.30300 0.20210 0.08000
C 	C 	0.83832 0.36970 0.89350 0.15800
C 	C 	0.88919 0.26330 0.95100 -0.10800
H 	H 	0.92540 0.28360 0.90760 0.07800
H 	H 	0.87200 0.17700 0.90690 0.06900
N 	N 	0.93674 0.10790 0.42920 -0.20200
N 	N 	0.93852 0.06730 0.58320 -0.14100
N 	N 	0.88641 0.10600 0.61970 -0.08100
N 	N 	0.84959 0.17350 0.49110 -0.21100
N 	N 	0.83773 0.48350 0.97610 -0.08800
N 	N 	0.78412 0.54750 0.89040 -0.13500
N 	N 	0.75455 0.47710 0.76180 -0.08000
N 	N 	0.78811 0.36220 0.76120 -0.20100
N 	N 	0.91185 0.25410 0.13320 -0.22000
H 	H 	0.57050 0.83700 0.33100 0.06200
C 	C 	0.61871 0.67180 0.12500 0.13000
C 	C 	0.64279 0.72270 0.29720 -0.22700
H 	H 	0.67000 0.65540 0.36500 0.09500
H 	H 	0.66830 0.80300 0.29790 0.09700
C 	C 	0.66168 0.86970 0.60650 0.15600
C 	C 	0.61081 0.76330 0.54900 -0.17700
H 	H 	0.57460 0.78360 0.59240 0.06100
H 	H 	0.62800 0.67700 0.59310 0.06800
N 	N 	0.56326 0.60790 0.07080 -0.26400
N 	N 	0.56148 0.56730 0.91680 -0.13500
N 	N 	0.61359 0.60600 0.88030 -0.05700
N 	N 	0.65041 0.67350 0.00890 -0.25200
N 	N 	0.66227 0.98350 0.52390 -0.12000
N 	N 	0.71588 0.04750 0.60960 -0.14900
N 	N 	0.74545 0.97710 0.73820 -0.07500
N 	N 	0.71189 0.86220 0.73880 -0.19200
N 	N 	0.58815 0.75410 0.36680 -0.19600
H 	H 	0.07050 0.33700 0.33100 0.04300
C 	C 	0.11871 0.17180 0.12500 0.12600
C 	C 	0.14279 0.22270 0.29720 -0.23100
H 	H 	0.17000 0.15540 0.36500 0.09700
H 	H 	0.16830 0.30300 0.29790 0.09700
C 	C 	0.16168 0.36970 0.60650 0.14900
C 	C 	0.11081 0.26330 0.54900 -0.17000
H 	H 	0.07460 0.28360 0.59240 0.03900
H 	H 	0.12800 0.17700 0.59310 0.06200
N 	N 	0.06326 0.10790 0.07080 -0.28000
N 	N 	0.06148 0.06730 0.91680 -0.15400
N 	N 	0.11359 0.10600 0.88030 -0.06100
N 	N 	0.15041 0.17350 0.00890 -0.25300
N 	N 	0.16227 0.48350 0.52390 -0.12200
N 	N 	0.21588 0.54750 0.60960 -0.15100
N 	N 	0.24545 0.47710 0.73820 -0.07300
N 	N 	0.21189 0.36220 0.73880 -0.19100
N 	N 	0.08815 0.25410 0.36680 -0.20000
Cd	Cd	0.75000 0.75000 -0.00000 1.16800
Cd	Cd	0.25000 0.75000 0.50000 1.19200
Cd	Cd	0.25000 0.25000 -0.00000 1.16700
Cd	Cd	0.75000 0.25000 0.50000 1.19300
Cd	Cd	0.50000 0.40325 0.75000 1.18600
Cd	Cd	0.00000 0.90325 0.75000 1.15100
Cd	Cd	0.50000 0.59675 0.25000 1.17700
Cd	Cd	0.00000 0.09675 0.25000 1.14300
