data_crystal

_cell_length_a 27.14800
_cell_length_b 27.14800
_cell_length_c 9.95700
_cell_angle_alpha 90.00000
_cell_angle_beta  90.00000
_cell_angle_gamma 120.00000

_symmetry_space_group_name_	'P 1'
_symmetry_space_group_name_H-M	'P 1'

loop_
_symmetry_equiv_pos_as_xyz
  x,y,z

loop_
_atom_site_label
_atom_site_type_symbol
_atom_site_fract_x
_atom_site_fract_y
_atom_site_fract_z
_atom_site_charge
C 	C 	0.94928 0.55590 0.72730 0.16200
C 	C 	0.92454 0.50656 0.81930 -0.24800
H 	H 	0.90450 0.47160 0.76820 0.11200
H 	H 	0.95450 0.50560 0.87010 0.09600
C 	C 	0.87010 0.47292 0.02580 -0.21600
H 	H 	0.86720 0.43740 0.99690 0.09900
H 	H 	0.83360 0.46460 0.06240 0.11400
C 	C 	0.91483 0.50008 0.12970 0.16000
Cd	Cd	0.92990 0.61188 0.99263 1.19400
Cl	Cl	0.83016 0.57144 0.10575 -0.63900
H 	H 	0.84610 0.49900 0.86900 0.07100
N 	N 	0.95216 0.60445 0.75800 -0.20700
N 	N 	0.88491 0.51177 0.91130 -0.16000
N 	N 	0.94913 0.55582 0.13960 -0.20600
N 	N 	0.98102 0.56379 0.24710 -0.16100
N 	N 	0.98018 0.63907 0.65460 -0.16000
N 	N 	0.99349 0.61221 0.56680 -0.11700
N 	N 	0.97437 0.55917 0.61030 -0.20300
N 	N 	0.96634 0.51411 0.29900 -0.15200
N 	N 	0.92490 0.47314 0.22750 -0.10400
C 	C 	0.61595 0.88923 0.06063 0.15900
C 	C 	0.59121 0.83989 0.15263 -0.24300
H 	H 	0.57117 0.80493 0.10153 0.11000
H 	H 	0.62117 0.83893 0.20343 0.09200
C 	C 	0.53677 0.80625 0.35913 -0.22200
H 	H 	0.53387 0.77073 0.33023 0.10200
H 	H 	0.50027 0.79793 0.39573 0.11700
C 	C 	0.58150 0.83341 0.46303 0.16100
Cd	Cd	0.59656 0.94521 0.32596 1.19800
Cl	Cl	0.49683 0.90477 0.43908 -0.63200
H 	H 	0.51277 0.83233 0.20233 0.07100
N 	N 	0.61883 0.93778 0.09133 -0.20500
N 	N 	0.55158 0.84510 0.24463 -0.15800
N 	N 	0.61580 0.88915 0.47293 -0.20600
N 	N 	0.64769 0.89712 0.58043 -0.16400
N 	N 	0.64685 0.97240 0.98793 -0.15600
N 	N 	0.66016 0.94554 0.90013 -0.11800
N 	N 	0.64104 0.89250 0.94363 -0.20600
N 	N 	0.63301 0.84744 0.63233 -0.15800
N 	N 	0.59157 0.80647 0.56083 -0.10700
C 	C 	0.28261 0.22257 0.39397 0.15800
C 	C 	0.25787 0.17323 0.48597 -0.24300
H 	H 	0.23783 0.13827 0.43487 0.10800
H 	H 	0.28783 0.17227 0.53677 0.09000
C 	C 	0.20343 0.13959 0.69247 -0.21800
H 	H 	0.20053 0.10407 0.66357 0.09600
H 	H 	0.16693 0.13127 0.72907 0.11100
C 	C 	0.24816 0.16675 0.79637 0.15800
Cd	Cd	0.26323 0.27855 0.65930 1.19200
Cl	Cl	0.16349 0.23811 0.77242 -0.64400
H 	H 	0.17943 0.16567 0.53567 0.06900
N 	N 	0.28549 0.27112 0.42467 -0.20900
N 	N 	0.21824 0.17844 0.57797 -0.15900
N 	N 	0.28246 0.22249 0.80627 -0.20900
N 	N 	0.31435 0.23046 0.91377 -0.16800
N 	N 	0.31351 0.30574 0.32127 -0.16500
N 	N 	0.32682 0.27888 0.23347 -0.12200
N 	N 	0.30770 0.22584 0.27697 -0.20700
N 	N 	0.29967 0.18078 0.96567 -0.15900
N 	N 	0.25823 0.13981 0.89417 -0.10900
C 	C 	0.44410 0.39338 0.72730 0.15900
C 	C 	0.49344 0.41798 0.81930 -0.24400
H 	H 	0.52840 0.43290 0.76820 0.11100
H 	H 	0.49440 0.44890 0.87010 0.09100
C 	C 	0.52708 0.39718 0.02580 -0.21800
H 	H 	0.56260 0.42980 0.99690 0.10000
H 	H 	0.53540 0.36900 0.06240 0.11600
C 	C 	0.49992 0.41475 0.12970 0.16000
Cd	Cd	0.38812 0.31802 0.99263 1.19200
Cl	Cl	0.42856 0.25872 0.10575 -0.64000
H 	H 	0.50100 0.34710 0.86900 0.07100
N 	N 	0.39555 0.34771 0.75800 -0.20900
N 	N 	0.48823 0.37314 0.91130 -0.16000
N 	N 	0.44418 0.39331 0.13960 -0.20900
N 	N 	0.43621 0.41723 0.24710 -0.16800
N 	N 	0.36093 0.34111 0.65460 -0.16500
N 	N 	0.38779 0.38128 0.56680 -0.12200
N 	N 	0.44083 0.41520 0.61030 -0.20700
N 	N 	0.48589 0.45223 0.29900 -0.15800
N 	N 	0.52686 0.45176 0.22750 -0.10600
C 	C 	0.11077 0.72671 0.06063 0.15400
C 	C 	0.16011 0.75131 0.15263 -0.24300
H 	H 	0.19507 0.76623 0.10153 0.11000
H 	H 	0.16107 0.78223 0.20343 0.09000
C 	C 	0.19375 0.73051 0.35913 -0.22300
H 	H 	0.22927 0.76313 0.33023 0.10300
H 	H 	0.20207 0.70233 0.39573 0.11700
C 	C 	0.16659 0.74808 0.46303 0.16000
Cd	Cd	0.05479 0.65135 0.32596 1.18700
Cl	Cl	0.09523 0.59205 0.43908 -0.64800
H 	H 	0.16767 0.68043 0.20233 0.07000
N 	N 	0.06222 0.68104 0.09133 -0.21300
N 	N 	0.15490 0.70647 0.24463 -0.15900
N 	N 	0.11085 0.72664 0.47293 -0.21200
N 	N 	0.10288 0.75056 0.58043 -0.17100
N 	N 	0.02760 0.67444 0.98793 -0.17000
N 	N 	0.05446 0.71461 0.90013 -0.12600
N 	N 	0.10750 0.74853 0.94363 -0.20600
N 	N 	0.15256 0.78556 0.63233 -0.15800
N 	N 	0.19353 0.78509 0.56083 -0.10700
C 	C 	0.77743 0.06005 0.39397 0.15800
C 	C 	0.82677 0.08465 0.48597 -0.24600
H 	H 	0.86173 0.09957 0.43487 0.11200
H 	H 	0.82773 0.11557 0.53677 0.09200
C 	C 	0.86041 0.06385 0.69247 -0.22400
H 	H 	0.89593 0.09647 0.66357 0.10600
H 	H 	0.86873 0.03567 0.72907 0.11400
C 	C 	0.83325 0.08142 0.79637 0.15900
Cd	Cd	0.72145 0.98468 0.65930 1.20000
Cl	Cl	0.76189 0.92539 0.77242 -0.62800
H 	H 	0.83433 0.01377 0.53567 0.06700
N 	N 	0.72888 0.01438 0.42467 -0.21300
N 	N 	0.82156 0.03981 0.57797 -0.16000
N 	N 	0.77751 0.05998 0.80627 -0.21400
N 	N 	0.76954 0.08390 0.91377 -0.17000
N 	N 	0.69426 0.00778 0.32127 -0.17000
N 	N 	0.72112 0.04795 0.23347 -0.12400
N 	N 	0.77416 0.08187 0.27697 -0.20800
N 	N 	0.81922 0.11890 0.96567 -0.15900
N 	N 	0.86019 0.11843 0.89417 -0.10600
C 	C 	0.60662 0.05072 0.72730 0.15500
C 	C 	0.58202 0.07546 0.81930 -0.24000
H 	H 	0.56710 0.09550 0.76820 0.10800
H 	H 	0.55110 0.04550 0.87010 0.08400
C 	C 	0.60282 0.12990 0.02580 -0.21300
H 	H 	0.57020 0.13280 0.99690 0.09700
H 	H 	0.63100 0.16640 0.06240 0.11500
C 	C 	0.58525 0.08517 0.12970 0.15700
Cd	Cd	0.68199 0.07010 0.99263 1.18900
Cl	Cl	0.74128 0.16984 0.10575 -0.63900
H 	H 	0.65290 0.15390 0.86900 0.07100
N 	N 	0.65229 0.04784 0.75800 -0.21100
N 	N 	0.62686 0.11509 0.91130 -0.16200
N 	N 	0.60669 0.05087 0.13960 -0.21100
N 	N 	0.58277 0.01898 0.24710 -0.17300
N 	N 	0.65889 0.01982 0.65460 -0.16900
N 	N 	0.61872 0.00651 0.56680 -0.12700
N 	N 	0.58480 0.02563 0.61030 -0.21000
N 	N 	0.54777 0.03366 0.29900 -0.16200
N 	N 	0.54824 0.07510 0.22750 -0.10800
C 	C 	0.27329 0.38405 0.06063 0.15800
C 	C 	0.24869 0.40879 0.15263 -0.24400
H 	H 	0.23377 0.42883 0.10153 0.11000
H 	H 	0.21777 0.37883 0.20343 0.09100
C 	C 	0.26949 0.46323 0.35913 -0.22300
H 	H 	0.23687 0.46613 0.33023 0.10200
H 	H 	0.29767 0.49973 0.39573 0.11700
C 	C 	0.25192 0.41850 0.46303 0.16100
Cd	Cd	0.34865 0.40344 0.32596 1.19200
Cl	Cl	0.40795 0.50317 0.43908 -0.64100
H 	H 	0.31957 0.48723 0.20233 0.07100
N 	N 	0.31896 0.38117 0.09133 -0.20900
N 	N 	0.29353 0.44842 0.24463 -0.15900
N 	N 	0.27336 0.38420 0.47293 -0.20900
N 	N 	0.24944 0.35231 0.58043 -0.16800
N 	N 	0.32556 0.35315 0.98793 -0.16400
N 	N 	0.28539 0.33984 0.90013 -0.12200
N 	N 	0.25147 0.35896 0.94363 -0.20700
N 	N 	0.21444 0.36699 0.63233 -0.15800
N 	N 	0.21491 0.40843 0.56083 -0.10700
C 	C 	0.93995 0.71739 0.39397 0.16100
C 	C 	0.91535 0.74213 0.48597 -0.24400
H 	H 	0.90043 0.76217 0.43487 0.11200
H 	H 	0.88443 0.71217 0.53677 0.09100
C 	C 	0.93615 0.79657 0.69247 -0.22600
H 	H 	0.90353 0.79947 0.66357 0.10600
H 	H 	0.96433 0.83307 0.72907 0.12500
C 	C 	0.91858 0.75184 0.79637 0.16500
Cd	Cd	0.01532 0.73677 0.65930 1.18500
Cl	Cl	0.07461 0.83651 0.77242 -0.64800
H 	H 	0.98623 0.82057 0.53567 0.07800
N 	N 	0.98562 0.71451 0.42467 -0.20400
N 	N 	0.96019 0.78176 0.57797 -0.15600
N 	N 	0.94002 0.71754 0.80627 -0.20600
N 	N 	0.91610 0.68565 0.91377 -0.16600
N 	N 	0.99222 0.68649 0.32127 -0.15800
N 	N 	0.95205 0.67318 0.23347 -0.11900
N 	N 	0.91813 0.69230 0.27697 -0.20600
N 	N 	0.88110 0.70033 0.96567 -0.15800
N 	N 	0.88157 0.74177 0.89417 -0.10600
C 	C 	0.05072 0.44410 0.27270 0.15500
C 	C 	0.07546 0.49344 0.18070 -0.24000
H 	H 	0.09550 0.52840 0.23180 0.10800
H 	H 	0.04550 0.49440 0.12990 0.08400
C 	C 	0.12990 0.52708 0.97420 -0.21400
H 	H 	0.13280 0.56260 0.00310 0.09700
H 	H 	0.16640 0.53540 0.93760 0.11500
C 	C 	0.08517 0.49992 0.87030 0.15700
Cd	Cd	0.07010 0.38812 0.00737 1.18900
Cl	Cl	0.16984 0.42856 0.89425 -0.64000
H 	H 	0.15390 0.50100 0.13100 0.07100
N 	N 	0.04784 0.39555 0.24200 -0.21100
N 	N 	0.11509 0.48823 0.08870 -0.16200
N 	N 	0.05087 0.44418 0.86040 -0.21100
N 	N 	0.01898 0.43621 0.75290 -0.17300
N 	N 	0.01982 0.36093 0.34540 -0.16900
N 	N 	0.00651 0.38779 0.43320 -0.12700
N 	N 	0.02563 0.44083 0.38970 -0.21000
N 	N 	0.03366 0.48589 0.70100 -0.16200
N 	N 	0.07510 0.52686 0.77250 -0.10800
C 	C 	0.71739 0.77743 0.60603 0.16000
C 	C 	0.74213 0.82677 0.51403 -0.24600
H 	H 	0.76217 0.86173 0.56513 0.11400
H 	H 	0.71217 0.82773 0.46323 0.09200
C 	C 	0.79657 0.86041 0.30753 -0.22700
H 	H 	0.79947 0.89593 0.33643 0.10900
H 	H 	0.83307 0.86873 0.27093 0.12200
C 	C 	0.75184 0.83325 0.20363 0.16400
Cd	Cd	0.73677 0.72145 0.34070 1.19200
Cl	Cl	0.83651 0.76189 0.22758 -0.63700
H 	H 	0.82057 0.83433 0.46433 0.07300
N 	N 	0.71451 0.72888 0.57533 -0.20900
N 	N 	0.78176 0.82156 0.42203 -0.15800
N 	N 	0.71754 0.77751 0.19373 -0.21000
N 	N 	0.68565 0.76954 0.08623 -0.16800
N 	N 	0.68649 0.69426 0.67873 -0.16400
N 	N 	0.67318 0.72112 0.76653 -0.12200
N 	N 	0.69230 0.77416 0.72303 -0.20700
N 	N 	0.70033 0.81922 0.03433 -0.15800
N 	N 	0.74177 0.86019 0.10583 -0.10500
C 	C 	0.38405 0.11077 0.93937 0.15600
C 	C 	0.40879 0.16011 0.84737 -0.24300
H 	H 	0.42883 0.19507 0.89847 0.11000
H 	H 	0.37883 0.16107 0.79657 0.09000
C 	C 	0.46323 0.19375 0.64087 -0.22300
H 	H 	0.46613 0.22927 0.66977 0.10300
H 	H 	0.49973 0.20207 0.60427 0.11700
C 	C 	0.41850 0.16659 0.53697 0.16000
Cd	Cd	0.40344 0.05479 0.67404 1.18700
Cl	Cl	0.50317 0.09523 0.56092 -0.64800
H 	H 	0.48723 0.16767 0.79767 0.07000
N 	N 	0.38117 0.06222 0.90867 -0.21300
N 	N 	0.44842 0.15490 0.75537 -0.15900
N 	N 	0.38420 0.11085 0.52707 -0.21200
N 	N 	0.35231 0.10288 0.41957 -0.17100
N 	N 	0.35315 0.02760 0.01207 -0.17100
N 	N 	0.33984 0.05446 0.09987 -0.12600
N 	N 	0.35896 0.10750 0.05637 -0.20700
N 	N 	0.36699 0.15256 0.36767 -0.15800
N 	N 	0.40843 0.19353 0.43917 -0.10700
C 	C 	0.55590 0.60662 0.27270 0.15900
C 	C 	0.50656 0.58202 0.18070 -0.24400
H 	H 	0.47160 0.56710 0.23180 0.11100
H 	H 	0.50560 0.55110 0.12990 0.09100
C 	C 	0.47292 0.60282 0.97420 -0.21800
H 	H 	0.43740 0.57020 0.00310 0.10000
H 	H 	0.46460 0.63100 0.93760 0.11600
C 	C 	0.50008 0.58525 0.87030 0.16000
Cd	Cd	0.61188 0.68199 0.00737 1.19200
Cl	Cl	0.57144 0.74128 0.89425 -0.64000
H 	H 	0.49900 0.65290 0.13100 0.07100
N 	N 	0.60445 0.65229 0.24200 -0.20900
N 	N 	0.51177 0.62686 0.08870 -0.16000
N 	N 	0.55582 0.60669 0.86040 -0.20900
N 	N 	0.56379 0.58277 0.75290 -0.16800
N 	N 	0.63907 0.65889 0.34540 -0.16500
N 	N 	0.61221 0.61872 0.43320 -0.12200
N 	N 	0.55917 0.58480 0.38970 -0.20700
N 	N 	0.51411 0.54777 0.70100 -0.15800
N 	N 	0.47314 0.54824 0.77250 -0.10600
C 	C 	0.22257 0.93995 0.60603 0.16100
C 	C 	0.17323 0.91535 0.51403 -0.24200
H 	H 	0.13827 0.90043 0.56513 0.11000
H 	H 	0.17227 0.88443 0.46323 0.09000
C 	C 	0.13959 0.93615 0.30753 -0.22100
H 	H 	0.10407 0.90353 0.33643 0.09900
H 	H 	0.13127 0.96433 0.27093 0.11900
C 	C 	0.16675 0.91858 0.20363 0.16200
Cd	Cd	0.27855 0.01532 0.34070 1.18500
Cl	Cl	0.23811 0.07461 0.22758 -0.65200
H 	H 	0.16567 0.98623 0.46433 0.07600
N 	N 	0.27112 0.98562 0.57533 -0.20400
N 	N 	0.17844 0.96019 0.42203 -0.15700
N 	N 	0.22249 0.94002 0.19373 -0.20600
N 	N 	0.23046 0.91610 0.08623 -0.16600
N 	N 	0.30574 0.99222 0.67873 -0.15800
N 	N 	0.27888 0.95205 0.76653 -0.11900
N 	N 	0.22584 0.91813 0.72303 -0.20600
N 	N 	0.18078 0.88110 0.03433 -0.15900
N 	N 	0.13981 0.88157 0.10583 -0.10800
C 	C 	0.88923 0.27329 0.93937 0.15700
C 	C 	0.83989 0.24869 0.84737 -0.24200
H 	H 	0.80493 0.23377 0.89847 0.11000
H 	H 	0.83893 0.21777 0.79657 0.09100
C 	C 	0.80625 0.26949 0.64087 -0.22200
H 	H 	0.77073 0.23687 0.66977 0.10200
H 	H 	0.79793 0.29767 0.60427 0.11700
C 	C 	0.83341 0.25192 0.53697 0.16100
Cd	Cd	0.94521 0.34865 0.67404 1.19800
Cl	Cl	0.90477 0.40795 0.56092 -0.63200
H 	H 	0.83233 0.31957 0.79767 0.07100
N 	N 	0.93778 0.31896 0.90867 -0.20500
N 	N 	0.84510 0.29353 0.75537 -0.15800
N 	N 	0.88915 0.27336 0.52707 -0.20600
N 	N 	0.89712 0.24944 0.41957 -0.16400
N 	N 	0.97240 0.32556 0.01207 -0.15500
N 	N 	0.94554 0.28539 0.09987 -0.11800
N 	N 	0.89250 0.25147 0.05637 -0.20500
N 	N 	0.84744 0.21444 0.36767 -0.15800
N 	N 	0.80647 0.21491 0.43917 -0.10700
C 	C 	0.39338 0.94928 0.27270 0.16300
C 	C 	0.41798 0.92454 0.18070 -0.24700
H 	H 	0.43290 0.90450 0.23180 0.11300
H 	H 	0.44890 0.95450 0.12990 0.09700
C 	C 	0.39718 0.87010 0.97420 -0.21400
H 	H 	0.42980 0.86720 0.00310 0.09900
H 	H 	0.36900 0.83360 0.93760 0.11500
C 	C 	0.41475 0.91483 0.87030 0.16100
Cd	Cd	0.31802 0.92990 0.00737 1.19400
Cl	Cl	0.25872 0.83016 0.89425 -0.63800
H 	H 	0.34710 0.84610 0.13100 0.07000
N 	N 	0.34771 0.95216 0.24200 -0.20700
N 	N 	0.37314 0.88491 0.08870 -0.16000
N 	N 	0.39331 0.94913 0.86040 -0.20600
N 	N 	0.41723 0.98102 0.75290 -0.16100
N 	N 	0.34111 0.98018 0.34540 -0.16000
N 	N 	0.38128 0.99349 0.43320 -0.11700
N 	N 	0.41520 0.97437 0.38970 -0.20300
N 	N 	0.45223 0.96634 0.70100 -0.15200
N 	N 	0.45176 0.92490 0.77250 -0.10400
C 	C 	0.06005 0.28261 0.60603 0.15700
C 	C 	0.08465 0.25787 0.51403 -0.24500
H 	H 	0.09957 0.23783 0.56513 0.11000
H 	H 	0.11557 0.28783 0.46323 0.09100
C 	C 	0.06385 0.20343 0.30753 -0.22000
H 	H 	0.09647 0.20053 0.33643 0.10000
H 	H 	0.03567 0.16693 0.27093 0.10900
C 	C 	0.08142 0.24816 0.20363 0.15600
Cd	Cd	0.98468 0.26323 0.34070 1.20000
Cl	Cl	0.92539 0.16349 0.22758 -0.63100
H 	H 	0.01377 0.17943 0.46433 0.06400
N 	N 	0.01438 0.28549 0.57533 -0.21300
N 	N 	0.03981 0.21824 0.42203 -0.16100
N 	N 	0.05998 0.28246 0.19373 -0.21300
N 	N 	0.08390 0.31435 0.08623 -0.17000
N 	N 	0.00778 0.31351 0.67873 -0.17000
N 	N 	0.04795 0.32682 0.76653 -0.12500
N 	N 	0.08187 0.30770 0.72303 -0.20800
N 	N 	0.11890 0.29967 0.03433 -0.15900
N 	N 	0.11843 0.25823 0.10583 -0.10800
C 	C 	0.72671 0.61595 0.93937 0.15800
C 	C 	0.75131 0.59121 0.84737 -0.24400
H 	H 	0.76623 0.57117 0.89847 0.11000
H 	H 	0.78223 0.62117 0.79657 0.09100
C 	C 	0.73051 0.53677 0.64087 -0.22300
H 	H 	0.76313 0.53387 0.66977 0.10200
H 	H 	0.70233 0.50027 0.60427 0.11700
C 	C 	0.74808 0.58150 0.53697 0.16100
Cd	Cd	0.65135 0.59656 0.67404 1.19200
Cl	Cl	0.59205 0.49683 0.56092 -0.64100
H 	H 	0.68043 0.51277 0.79767 0.07100
N 	N 	0.68104 0.61883 0.90867 -0.20900
N 	N 	0.70647 0.55158 0.75537 -0.15900
N 	N 	0.72664 0.61580 0.52707 -0.20900
N 	N 	0.75056 0.64769 0.41957 -0.16800
N 	N 	0.67444 0.64685 0.01207 -0.16400
N 	N 	0.71461 0.66016 0.09987 -0.12200
N 	N 	0.74853 0.64104 0.05637 -0.20700
N 	N 	0.78556 0.63301 0.36767 -0.15800
N 	N 	0.78509 0.59157 0.43917 -0.10700
Cd	Cd	0.83333 0.66667 0.16667 1.21400
Cd	Cd	0.50000 -0.00000 0.50000 1.20600
Cd	Cd	0.33333 0.16667 0.16667 1.21300
Cd	Cd	-0.00000 0.50000 0.50000 1.20600
Cd	Cd	0.83333 0.16667 0.16667 1.21400
Cd	Cd	0.50000 0.50000 0.50000 1.21300
Cd	Cd	0.16667 0.33333 0.83333 1.21300
Cd	Cd	0.66667 0.83333 0.83333 1.21400
Cd	Cd	0.16667 0.83333 0.83333 1.21400
