data_crystal

_cell_length_a 16.98470
_cell_length_b 24.23430
_cell_length_c 36.28600
_cell_angle_alpha 90.00000
_cell_angle_beta  90.00000
_cell_angle_gamma 90.00000

_symmetry_space_group_name_	'P 1'
_symmetry_space_group_name_H-M	'P 1'

loop_
_symmetry_equiv_pos_as_xyz
  x,y,z

loop_
_atom_site_label
_atom_site_type_symbol
_atom_site_fract_x
_atom_site_fract_y
_atom_site_fract_z
_atom_site_charge
Ce	Ce	0.43198 0.06074 0.02082 2.10700
Ce	Ce	0.60937 0.20105 0.14065 2.03700
Ce	Ce	0.89170 0.09575 0.23973 2.21700
O 	O 	0.34010 0.09600 0.97330 -0.46400
O 	O 	0.27950 0.16260 0.94220 -0.30600
O 	O 	0.52200 0.11860 0.05770 -0.53700
O 	O 	0.56700 0.19930 0.07770 -0.58000
O 	O 	0.41890 0.33400 0.99540 -0.43200
H 	H 	0.39430 0.34190 0.97600 0.19400
O 	O 	0.44460 0.98880 0.97490 -0.60600
O 	O 	0.73440 0.21400 0.17340 -0.57600
O 	O 	0.78190 0.14310 0.20490 -0.23000
O 	O 	0.98850 0.14660 0.27800 -0.49300
O 	O 	0.03540 0.22310 0.30400 -0.54500
O 	O 	0.89170 0.37250 0.23110 -0.43500
H 	H 	0.93500 0.38420 0.23910 0.19900
O 	O 	0.91290 0.04620 0.30320 -0.83400
H 	H 	0.96220 0.03720 0.30550 0.24400
H 	H 	0.88400 0.01650 0.30400 0.83900
O 	O 	0.74920 0.06890 0.23270 -0.77800
H 	H 	0.74000 0.03970 0.24610 0.37900
H 	H 	0.73950 0.06150 0.20970 0.25400
O 	O 	0.88440 0.05150 0.17740 -1.29100
H 	H 	0.83720 0.05560 0.16850 0.46900
H 	H 	0.89480 0.01650 0.17960 0.55000
N 	N 	0.42950 0.16520 0.00950 -0.23200
N 	N 	0.88950 0.20280 0.23720 -0.21000
C 	C 	0.32870 0.14650 0.96450 0.31500
C 	C 	0.37940 0.18780 0.98530 0.03200
C 	C 	0.37320 0.24400 0.97910 -0.17300
H 	H 	0.33730 0.25820 0.96140 0.05200
C 	C 	0.42120 0.27890 0.99950 0.26300
C 	C 	0.47290 0.25580 0.02560 -0.14700
H 	H 	0.50590 0.27840 0.04040 0.09000
C 	C 	0.47330 0.19900 0.02880 -0.00400
C 	C 	0.52570 0.17130 0.05680 0.36300
C 	C 	0.78620 0.19410 0.19410 0.36400
C 	C 	0.83950 0.22960 0.21530 -0.00900
C 	C 	0.83790 0.28640 0.21200 -0.15300
H 	H 	0.80320 0.30430 0.19520 0.06600
C 	C 	0.88920 0.31610 0.23430 0.25000
C 	C 	0.93860 0.28890 0.25840 -0.16200
H 	H 	0.97280 0.30860 0.27440 0.07600
C 	C 	0.93630 0.23220 0.25840 0.01600
C 	C 	0.99130 0.20000 0.28200 0.36600
W 	W 	0.56758 0.13550 0.93302 1.46900
W 	W 	0.67805 0.24659 0.97267 1.18800
W 	W 	0.77972 0.13533 0.92791 1.18900
W 	W 	0.56222 0.12074 0.84033 1.12700
W 	W 	0.46315 0.22469 0.88089 1.18500
W 	W 	0.56870 0.33651 0.92323 1.19000
W 	W 	0.76830 0.34072 0.91867 1.51400
W 	W 	0.87443 0.23004 0.87578 1.52500
W 	W 	0.77397 0.12584 0.83508 1.17300
W 	W 	0.65699 0.21997 0.78160 1.15400
W 	W 	0.56259 0.32429 0.82485 1.50300
W 	W 	0.76119 0.32324 0.82038 1.52800
O 	O 	0.52880 0.09070 0.96440 -0.61200
O 	O 	0.82820 0.39210 0.93430 -0.63800
O 	O 	0.97310 0.24010 0.87270 -0.60300
O 	O 	0.50060 0.37070 0.80350 -0.57300
O 	O 	0.81550 0.37020 0.79590 -0.55300
O 	O 	0.59830 0.19500 0.96200 -0.48600
O 	O 	0.67310 0.11300 0.93110 -0.50400
O 	O 	0.54950 0.09150 0.88910 -0.50000
O 	O 	0.47080 0.17370 0.92070 -0.47900
O 	O 	0.59680 0.30360 0.96840 -0.46100
O 	O 	0.75220 0.30550 0.96570 -0.48600
O 	O 	0.75270 0.19460 0.95950 -0.46400
O 	O 	0.87140 0.17680 0.91430 -0.48800
O 	O 	0.79120 0.09410 0.88410 -0.47600
O 	O 	0.46640 0.16280 0.84830 -0.45700
O 	O 	0.58510 0.16930 0.80140 -0.46900
O 	O 	0.66790 0.10090 0.84110 -0.47600
O 	O 	0.49200 0.27090 0.84190 -0.48800
O 	O 	0.49560 0.28170 0.91350 -0.47000
O 	O 	0.66920 0.37580 0.92500 -0.49000
O 	O 	0.57050 0.35290 0.87170 -0.48300
O 	O 	0.84250 0.28460 0.90830 -0.52300
O 	O 	0.76250 0.35480 0.86780 -0.51200
O 	O 	0.86610 0.16830 0.84150 -0.48500
O 	O 	0.83770 0.27290 0.83600 -0.51600
O 	O 	0.73880 0.17150 0.79740 -0.45900
O 	O 	0.58100 0.27780 0.78220 -0.48200
O 	O 	0.73620 0.27760 0.77920 -0.48200
O 	O 	0.66110 0.35870 0.81280 -0.50000
B 	B 	0.66940 0.22990 0.87780 3.20900
O 	O 	0.59710 0.19260 0.88150 -0.75100
O 	O 	0.67010 0.27200 0.90940 -0.75100
O 	O 	0.74410 0.19430 0.87850 -0.75500
O 	O 	0.66520 0.26230 0.84130 -0.76500
O 	O 	0.81310 0.14310 0.18930 -0.26600
O 	O 	0.85710 0.01440 0.28390 -1.40400
H 	H 	0.85860 0.98340 0.27180 0.46200
H 	H 	0.81020 0.01930 0.29290 0.49500
O 	O 	0.78210 0.02690 0.24610 -0.79100
H 	H 	0.79110 0.99900 0.23160 0.26000
H 	H 	0.73800 0.04260 0.23980 0.26900
O 	O 	0.88300 0.03010 0.18650 0.45800
H 	H 	0.83510 0.01750 0.18470 -0.22000
H 	H 	0.91520 0.00290 0.19020 -0.45500
O 	O 	0.59500 0.26480 0.87650 -0.68200
O 	O 	0.67400 0.19910 0.91480 -0.67600
O 	O 	0.74300 0.26840 0.87380 -0.68200
O 	O 	0.67000 0.18850 0.84570 -0.66300
Ce	Ce	0.06802 0.93926 0.52082 2.10800
Ce	Ce	0.89063 0.79895 0.64065 2.03800
Ce	Ce	0.60830 0.90425 0.73973 2.21800
O 	O 	0.15990 0.90400 0.47330 -0.46300
O 	O 	0.22050 0.83740 0.44220 -0.30500
O 	O 	0.97800 0.88140 0.55770 -0.53700
O 	O 	0.93300 0.80070 0.57770 -0.58000
O 	O 	0.08110 0.66600 0.49540 -0.43100
H 	H 	0.10570 0.65810 0.47600 0.19500
O 	O 	0.05540 0.01120 0.47490 -0.60500
O 	O 	0.76560 0.78600 0.67340 -0.57500
O 	O 	0.71810 0.85690 0.70490 -0.22900
O 	O 	0.51150 0.85340 0.77800 -0.49100
O 	O 	0.46460 0.77690 0.80400 -0.54300
O 	O 	0.60830 0.62750 0.73110 -0.43400
H 	H 	0.56500 0.61580 0.73910 0.20000
O 	O 	0.58710 0.95380 0.80320 -0.83300
H 	H 	0.53780 0.96280 0.80550 0.24500
H 	H 	0.61600 0.98350 0.80400 0.84000
O 	O 	0.75080 0.93110 0.73270 -0.77700
H 	H 	0.76000 0.96030 0.74610 0.38000
H 	H 	0.76050 0.93850 0.70970 0.25500
O 	O 	0.61560 0.94850 0.67740 -1.29000
H 	H 	0.66280 0.94440 0.66850 0.47000
H 	H 	0.60520 0.98350 0.67960 0.55100
N 	N 	0.07050 0.83480 0.50950 -0.23100
N 	N 	0.61050 0.79720 0.73720 -0.20900
C 	C 	0.17130 0.85350 0.46450 0.31600
C 	C 	0.12060 0.81220 0.48530 0.03300
C 	C 	0.12680 0.75600 0.47910 -0.17200
H 	H 	0.16270 0.74180 0.46140 0.05300
C 	C 	0.07880 0.72110 0.49950 0.26400
C 	C 	0.02710 0.74420 0.52560 -0.14500
H 	H 	0.99410 0.72160 0.54040 0.09000
C 	C 	0.02670 0.80100 0.52880 -0.00300
C 	C 	0.97430 0.82870 0.55680 0.36400
C 	C 	0.71380 0.80590 0.69410 0.36400
C 	C 	0.66050 0.77040 0.71530 -0.00900
C 	C 	0.66210 0.71360 0.71200 -0.15300
H 	H 	0.69680 0.69570 0.69520 0.06600
C 	C 	0.61080 0.68390 0.73430 0.25000
C 	C 	0.56140 0.71110 0.75840 -0.16200
H 	H 	0.52720 0.69140 0.77440 0.07600
C 	C 	0.56370 0.76780 0.75840 0.01600
C 	C 	0.50870 0.80000 0.78200 0.36600
W 	W 	0.93242 0.86450 0.43302 1.46900
W 	W 	0.82195 0.75341 0.47267 1.18800
W 	W 	0.72028 0.86467 0.42791 1.18900
W 	W 	0.93778 0.87926 0.34033 1.12700
W 	W 	0.03685 0.77531 0.38089 1.18500
W 	W 	0.93130 0.66349 0.42323 1.19000
W 	W 	0.73170 0.65928 0.41867 1.51400
W 	W 	0.62557 0.76996 0.37578 1.52500
W 	W 	0.72603 0.87416 0.33508 1.17300
W 	W 	0.84301 0.78003 0.28160 1.15400
W 	W 	0.93741 0.67571 0.32485 1.50300
W 	W 	0.73881 0.67676 0.32038 1.52800
O 	O 	0.97120 0.90930 0.46440 -0.61200
O 	O 	0.67180 0.60790 0.43430 -0.63800
O 	O 	0.52690 0.75990 0.37270 -0.60200
O 	O 	0.99940 0.62930 0.30350 -0.57300
O 	O 	0.68450 0.62980 0.29590 -0.55300
O 	O 	0.90170 0.80500 0.46200 -0.48600
O 	O 	0.82690 0.88700 0.43110 -0.50400
O 	O 	0.95050 0.90850 0.38910 -0.50000
O 	O 	0.02920 0.82630 0.42070 -0.47900
O 	O 	0.90320 0.69640 0.46840 -0.46100
O 	O 	0.74780 0.69450 0.46570 -0.48600
O 	O 	0.74730 0.80540 0.45950 -0.46300
O 	O 	0.62860 0.82320 0.41430 -0.48800
O 	O 	0.70880 0.90590 0.38410 -0.47600
O 	O 	0.03360 0.83720 0.34830 -0.45700
O 	O 	0.91490 0.83070 0.30140 -0.46900
O 	O 	0.83210 0.89910 0.34110 -0.47600
O 	O 	0.00800 0.72910 0.34190 -0.48800
O 	O 	0.00440 0.71830 0.41350 -0.47000
O 	O 	0.83080 0.62420 0.42500 -0.49000
O 	O 	0.92950 0.64710 0.37170 -0.48300
O 	O 	0.65750 0.71540 0.40830 -0.52300
O 	O 	0.73750 0.64520 0.36780 -0.51200
O 	O 	0.63390 0.83170 0.34150 -0.48500
O 	O 	0.66230 0.72710 0.33600 -0.51600
O 	O 	0.76120 0.82850 0.29740 -0.45900
O 	O 	0.91900 0.72220 0.28220 -0.48200
O 	O 	0.76380 0.72240 0.27920 -0.48200
O 	O 	0.83890 0.64130 0.31280 -0.50000
B 	B 	0.83060 0.77010 0.37780 3.20900
O 	O 	0.90290 0.80740 0.38150 -0.75100
O 	O 	0.82990 0.72800 0.40940 -0.75100
O 	O 	0.75590 0.80570 0.37850 -0.75500
O 	O 	0.83480 0.73770 0.34130 -0.76500
O 	O 	0.68690 0.85690 0.68930 -0.26600
O 	O 	0.64290 0.98560 0.78390 -1.40500
H 	H 	0.64140 0.01660 0.77180 0.46200
H 	H 	0.68980 0.98070 0.79290 0.49500
O 	O 	0.71790 0.97310 0.74610 -0.79100
H 	H 	0.70890 0.00100 0.73160 0.26000
H 	H 	0.76200 0.95740 0.73980 0.27000
O 	O 	0.61700 0.96990 0.68650 0.45800
H 	H 	0.66490 0.98250 0.68470 -0.22000
H 	H 	0.58480 0.99710 0.69020 -0.45500
O 	O 	0.90500 0.73520 0.37650 -0.68200
O 	O 	0.82600 0.80090 0.41480 -0.67600
O 	O 	0.75700 0.73160 0.37380 -0.68200
O 	O 	0.83000 0.81150 0.34570 -0.66300
Ce	Ce	0.56802 0.56074 0.47918 2.10800
Ce	Ce	0.39063 0.70105 0.35935 2.03800
Ce	Ce	0.10830 0.59575 0.26027 2.21800
O 	O 	0.65990 0.59600 0.52670 -0.46300
O 	O 	0.72050 0.66260 0.55780 -0.30500
O 	O 	0.47800 0.61860 0.44230 -0.53600
O 	O 	0.43300 0.69930 0.42230 -0.58000
O 	O 	0.58110 0.83400 0.50460 -0.43100
H 	H 	0.60570 0.84190 0.52400 0.19500
O 	O 	0.55540 0.48880 0.52510 -0.60500
O 	O 	0.26560 0.71400 0.32660 -0.57500
O 	O 	0.21810 0.64310 0.29510 -0.22900
O 	O 	0.01150 0.64660 0.22200 -0.49200
O 	O 	0.96460 0.72310 0.19600 -0.54300
O 	O 	0.10830 0.87250 0.26890 -0.43400
H 	H 	0.06500 0.88420 0.26090 0.19900
O 	O 	0.08710 0.54620 0.19680 -0.83300
H 	H 	0.03780 0.53720 0.19450 0.24500
H 	H 	0.11600 0.51650 0.19600 0.84000
O 	O 	0.25080 0.56890 0.26730 -0.77700
H 	H 	0.26000 0.53970 0.25390 0.38000
H 	H 	0.26050 0.56150 0.29030 0.25500
O 	O 	0.11560 0.55150 0.32260 -1.29000
H 	H 	0.16280 0.55560 0.33150 0.47000
H 	H 	0.10520 0.51650 0.32040 0.55200
N 	N 	0.57050 0.66520 0.49050 -0.23100
N 	N 	0.11050 0.70280 0.26280 -0.20900
C 	C 	0.67130 0.64650 0.53550 0.31600
C 	C 	0.62060 0.68780 0.51470 0.03300
C 	C 	0.62680 0.74400 0.52090 -0.17200
H 	H 	0.66270 0.75820 0.53860 0.05300
C 	C 	0.57880 0.77890 0.50050 0.26400
C 	C 	0.52710 0.75580 0.47440 -0.14600
H 	H 	0.49410 0.77840 0.45960 0.09100
C 	C 	0.52670 0.69900 0.47120 -0.00300
C 	C 	0.47430 0.67130 0.44320 0.36400
C 	C 	0.21380 0.69410 0.30590 0.36400
C 	C 	0.16050 0.72960 0.28470 -0.00900
C 	C 	0.16210 0.78640 0.28800 -0.15300
H 	H 	0.19680 0.80430 0.30480 0.06600
C 	C 	0.11080 0.81610 0.26570 0.25000
C 	C 	0.06140 0.78890 0.24160 -0.16200
H 	H 	0.02720 0.80860 0.22560 0.07600
C 	C 	0.06370 0.73220 0.24160 0.01600
C 	C 	0.00870 0.70000 0.21800 0.36500
W 	W 	0.43242 0.63550 0.56698 1.46900
W 	W 	0.32195 0.74659 0.52733 1.18800
W 	W 	0.22028 0.63533 0.57209 1.18900
W 	W 	0.43778 0.62074 0.65967 1.12700
W 	W 	0.53685 0.72469 0.61911 1.18500
W 	W 	0.43130 0.83651 0.57677 1.19000
W 	W 	0.23170 0.84072 0.58133 1.51400
W 	W 	0.12557 0.73004 0.62422 1.52500
W 	W 	0.22603 0.62584 0.66492 1.17300
W 	W 	0.34301 0.71997 0.71840 1.15400
W 	W 	0.43741 0.82429 0.67515 1.50300
W 	W 	0.23881 0.82324 0.67962 1.52800
O 	O 	0.47120 0.59070 0.53560 -0.61200
O 	O 	0.17180 0.89210 0.56570 -0.63800
O 	O 	0.02690 0.74010 0.62730 -0.60200
O 	O 	0.49940 0.87070 0.69650 -0.57300
O 	O 	0.18450 0.87020 0.70410 -0.55300
O 	O 	0.40170 0.69500 0.53800 -0.48600
O 	O 	0.32690 0.61300 0.56890 -0.50400
O 	O 	0.45050 0.59150 0.61090 -0.50000
O 	O 	0.52920 0.67370 0.57930 -0.47900
O 	O 	0.40320 0.80360 0.53160 -0.46100
O 	O 	0.24780 0.80550 0.53430 -0.48600
O 	O 	0.24730 0.69460 0.54050 -0.46300
O 	O 	0.12860 0.67680 0.58570 -0.48800
O 	O 	0.20880 0.59410 0.61590 -0.47600
O 	O 	0.53360 0.66280 0.65170 -0.45700
O 	O 	0.41490 0.66930 0.69860 -0.46900
O 	O 	0.33210 0.60090 0.65890 -0.47600
O 	O 	0.50800 0.77090 0.65810 -0.48800
O 	O 	0.50440 0.78170 0.58650 -0.47000
O 	O 	0.33080 0.87580 0.57500 -0.49000
O 	O 	0.42950 0.85290 0.62830 -0.48300
O 	O 	0.15750 0.78460 0.59170 -0.52300
O 	O 	0.23750 0.85480 0.63220 -0.51200
O 	O 	0.13390 0.66830 0.65850 -0.48500
O 	O 	0.16230 0.77290 0.66400 -0.51600
O 	O 	0.26120 0.67150 0.70260 -0.45900
O 	O 	0.41900 0.77780 0.71780 -0.48200
O 	O 	0.26380 0.77760 0.72080 -0.48200
O 	O 	0.33890 0.85870 0.68720 -0.50000
B 	B 	0.33060 0.72990 0.62220 3.20900
O 	O 	0.40290 0.69260 0.61850 -0.75100
O 	O 	0.32990 0.77200 0.59060 -0.75100
O 	O 	0.25590 0.69430 0.62150 -0.75500
O 	O 	0.33480 0.76230 0.65870 -0.76500
O 	O 	0.18690 0.64310 0.31070 -0.26600
O 	O 	0.14290 0.51440 0.21610 -1.40500
H 	H 	0.14140 0.48340 0.22820 0.46200
H 	H 	0.18980 0.51930 0.20710 0.49500
O 	O 	0.21790 0.52690 0.25390 -0.79100
H 	H 	0.20890 0.49900 0.26840 0.26000
H 	H 	0.26200 0.54260 0.26020 0.27000
O 	O 	0.11700 0.53010 0.31350 0.45800
H 	H 	0.16490 0.51750 0.31530 -0.22000
H 	H 	0.08480 0.50290 0.30980 -0.45500
O 	O 	0.40500 0.76480 0.62350 -0.68200
O 	O 	0.32600 0.69910 0.58520 -0.67600
O 	O 	0.25700 0.76840 0.62620 -0.68200
O 	O 	0.33000 0.68850 0.65430 -0.66300
Ce	Ce	0.93198 0.43926 0.97918 2.10700
Ce	Ce	0.10937 0.29895 0.85935 2.03800
Ce	Ce	0.39170 0.40425 0.76027 2.21800
O 	O 	0.84010 0.40400 0.02670 -0.46300
O 	O 	0.77950 0.33740 0.05780 -0.30500
O 	O 	0.02200 0.38140 0.94230 -0.53600
O 	O 	0.06700 0.30070 0.92230 -0.57900
O 	O 	0.91890 0.16600 0.00460 -0.43100
H 	H 	0.89430 0.15810 0.02400 0.19500
O 	O 	0.94460 0.51120 0.02510 -0.60500
O 	O 	0.23440 0.28600 0.82660 -0.57500
O 	O 	0.28190 0.35690 0.79510 -0.22900
O 	O 	0.48850 0.35340 0.72200 -0.49100
O 	O 	0.53540 0.27690 0.69600 -0.54300
O 	O 	0.39170 0.12750 0.76890 -0.43400
H 	H 	0.43500 0.11580 0.76090 0.20000
O 	O 	0.41290 0.45380 0.69680 -0.83300
H 	H 	0.46220 0.46280 0.69450 0.24500
H 	H 	0.38400 0.48350 0.69600 0.84000
O 	O 	0.24920 0.43110 0.76730 -0.77700
H 	H 	0.24000 0.46030 0.75390 0.38000
H 	H 	0.23950 0.43850 0.79030 0.25500
O 	O 	0.38440 0.44850 0.82260 -1.29000
H 	H 	0.33720 0.44440 0.83150 0.47000
H 	H 	0.39480 0.48350 0.82040 0.55100
N 	N 	0.92950 0.33480 0.99050 -0.23100
N 	N 	0.38950 0.29720 0.76280 -0.20900
C 	C 	0.82870 0.35350 0.03550 0.31600
C 	C 	0.87940 0.31220 0.01470 0.03400
C 	C 	0.87320 0.25600 0.02090 -0.17300
H 	H 	0.83730 0.24180 0.03860 0.05400
C 	C 	0.92120 0.22110 0.00050 0.26600
C 	C 	0.97290 0.24420 0.97440 -0.14800
H 	H 	0.00590 0.22160 0.95960 0.09200
C 	C 	0.97330 0.30100 0.97120 -0.00300
C 	C 	0.02570 0.32870 0.94320 0.36400
C 	C 	0.28620 0.30590 0.80590 0.36400
C 	C 	0.33950 0.27040 0.78470 -0.00900
C 	C 	0.33790 0.21360 0.78800 -0.15300
H 	H 	0.30320 0.19570 0.80480 0.06600
C 	C 	0.38920 0.18390 0.76570 0.25000
C 	C 	0.43860 0.21110 0.74160 -0.16200
H 	H 	0.47280 0.19140 0.72560 0.07600
C 	C 	0.43630 0.26780 0.74160 0.01600
C 	C 	0.49130 0.30000 0.71800 0.36600
W 	W 	0.06758 0.36450 0.06698 1.46800
W 	W 	0.17805 0.25341 0.02733 1.18800
W 	W 	0.27972 0.36467 0.07209 1.18900
W 	W 	0.06222 0.37926 0.15967 1.12600
W 	W 	0.96315 0.27531 0.11911 1.18500
W 	W 	0.06870 0.16349 0.07677 1.18900
W 	W 	0.26830 0.15928 0.08133 1.51400
W 	W 	0.37443 0.26996 0.12422 1.52500
W 	W 	0.27397 0.37416 0.16492 1.17300
W 	W 	0.15699 0.28003 0.21840 1.15300
W 	W 	0.06259 0.17571 0.17515 1.50300
W 	W 	0.26119 0.17676 0.17962 1.52800
O 	O 	0.02880 0.40930 0.03560 -0.61200
O 	O 	0.32820 0.10790 0.06570 -0.63800
O 	O 	0.47310 0.25990 0.12730 -0.60200
O 	O 	0.00060 0.12930 0.19650 -0.57400
O 	O 	0.31550 0.12980 0.20410 -0.55300
O 	O 	0.09830 0.30500 0.03800 -0.48600
O 	O 	0.17310 0.38700 0.06890 -0.50400
O 	O 	0.04950 0.40850 0.11090 -0.50000
O 	O 	0.97080 0.32630 0.07930 -0.47900
O 	O 	0.09680 0.19640 0.03160 -0.46100
O 	O 	0.25220 0.19450 0.03430 -0.48600
O 	O 	0.25270 0.30540 0.04050 -0.46300
O 	O 	0.37140 0.32320 0.08570 -0.48800
O 	O 	0.29120 0.40590 0.11590 -0.47600
O 	O 	0.96640 0.33720 0.15170 -0.45700
O 	O 	0.08510 0.33070 0.19860 -0.46900
O 	O 	0.16790 0.39910 0.15890 -0.47600
O 	O 	0.99200 0.22910 0.15810 -0.48700
O 	O 	0.99560 0.21830 0.08650 -0.46900
O 	O 	0.16920 0.12420 0.07500 -0.49000
O 	O 	0.07050 0.14710 0.12830 -0.48300
O 	O 	0.34250 0.21540 0.09170 -0.52300
O 	O 	0.26250 0.14520 0.13220 -0.51200
O 	O 	0.36610 0.33170 0.15850 -0.48500
O 	O 	0.33770 0.22710 0.16400 -0.51600
O 	O 	0.23880 0.32850 0.20260 -0.45900
O 	O 	0.08100 0.22220 0.21780 -0.48200
O 	O 	0.23620 0.22240 0.22080 -0.48200
O 	O 	0.16110 0.14130 0.18720 -0.50000
B 	B 	0.16940 0.27010 0.12220 3.20900
O 	O 	0.09710 0.30740 0.11850 -0.75100
O 	O 	0.17010 0.22800 0.09060 -0.75100
O 	O 	0.24410 0.30570 0.12150 -0.75500
O 	O 	0.16520 0.23770 0.15870 -0.76500
O 	O 	0.31310 0.35690 0.81070 -0.26600
O 	O 	0.35710 0.48560 0.71610 -1.40500
H 	H 	0.35860 0.51660 0.72820 0.46200
H 	H 	0.31020 0.48070 0.70710 0.49600
O 	O 	0.28210 0.47310 0.75390 -0.79100
H 	H 	0.29110 0.50100 0.76840 0.26000
H 	H 	0.23800 0.45740 0.76020 0.27000
O 	O 	0.38300 0.46990 0.81350 0.45800
H 	H 	0.33510 0.48250 0.81530 -0.22000
H 	H 	0.41520 0.49710 0.80980 -0.45500
O 	O 	0.09500 0.23520 0.12350 -0.68200
O 	O 	0.17400 0.30090 0.08520 -0.67600
O 	O 	0.24300 0.23160 0.12620 -0.68200
O 	O 	0.17000 0.31150 0.15430 -0.66300
Ce	Ce	0.56802 0.93926 0.97918 2.10800
Ce	Ce	0.39063 0.79895 0.85935 2.03800
Ce	Ce	0.10830 0.90425 0.76027 2.21800
O 	O 	0.65990 0.90400 0.02670 -0.46300
O 	O 	0.72050 0.83740 0.05780 -0.30500
O 	O 	0.47800 0.88140 0.94230 -0.53600
O 	O 	0.43300 0.80070 0.92230 -0.57900
O 	O 	0.58110 0.66600 0.00460 -0.43100
H 	H 	0.60570 0.65810 0.02400 0.19500
O 	O 	0.55540 0.01120 0.02510 -0.60500
O 	O 	0.26560 0.78600 0.82660 -0.57500
O 	O 	0.21810 0.85690 0.79510 -0.22900
O 	O 	0.01150 0.85340 0.72200 -0.49200
O 	O 	0.96460 0.77690 0.69600 -0.54400
O 	O 	0.10830 0.62750 0.76890 -0.43400
H 	H 	0.06500 0.61580 0.76090 0.20000
O 	O 	0.08710 0.95380 0.69680 -0.83300
H 	H 	0.03780 0.96280 0.69450 0.24500
H 	H 	0.11600 0.98350 0.69600 0.84000
O 	O 	0.25080 0.93110 0.76730 -0.77700
H 	H 	0.26000 0.96030 0.75390 0.38000
H 	H 	0.26050 0.93850 0.79030 0.25500
O 	O 	0.11560 0.94850 0.82260 -1.29000
H 	H 	0.16280 0.94440 0.83150 0.47000
H 	H 	0.10520 0.98350 0.82040 0.55100
N 	N 	0.57050 0.83480 0.99050 -0.23100
N 	N 	0.11050 0.79720 0.76280 -0.20900
C 	C 	0.67130 0.85350 0.03550 0.31600
C 	C 	0.62060 0.81220 0.01470 0.03300
C 	C 	0.62680 0.75600 0.02090 -0.17200
H 	H 	0.66270 0.74180 0.03860 0.05300
C 	C 	0.57880 0.72110 0.00050 0.26400
C 	C 	0.52710 0.74420 0.97440 -0.14600
H 	H 	0.49410 0.72160 0.95960 0.09100
C 	C 	0.52670 0.80100 0.97120 -0.00300
C 	C 	0.47430 0.82870 0.94320 0.36400
C 	C 	0.21380 0.80590 0.80590 0.36400
C 	C 	0.16050 0.77040 0.78470 -0.00900
C 	C 	0.16210 0.71360 0.78800 -0.15300
H 	H 	0.19680 0.69570 0.80480 0.06600
C 	C 	0.11080 0.68390 0.76570 0.25000
C 	C 	0.06140 0.71110 0.74160 -0.16200
H 	H 	0.02720 0.69140 0.72560 0.07600
C 	C 	0.06370 0.76780 0.74160 0.01600
C 	C 	0.00870 0.80000 0.71800 0.36600
W 	W 	0.43242 0.86450 0.06698 1.46900
W 	W 	0.32195 0.75341 0.02733 1.18800
W 	W 	0.22028 0.86467 0.07209 1.18900
W 	W 	0.43778 0.87926 0.15967 1.12700
W 	W 	0.53685 0.77531 0.11911 1.18500
W 	W 	0.43130 0.66349 0.07677 1.19000
W 	W 	0.23170 0.65928 0.08133 1.51400
W 	W 	0.12557 0.76996 0.12422 1.52500
W 	W 	0.22603 0.87416 0.16492 1.17300
W 	W 	0.34301 0.78003 0.21840 1.15400
W 	W 	0.43741 0.67571 0.17515 1.50300
W 	W 	0.23881 0.67676 0.17962 1.52800
O 	O 	0.47120 0.90930 0.03560 -0.61200
O 	O 	0.17180 0.60790 0.06570 -0.63800
O 	O 	0.02690 0.75990 0.12730 -0.60300
O 	O 	0.49940 0.62930 0.19650 -0.57300
O 	O 	0.18450 0.62980 0.20410 -0.55300
O 	O 	0.40170 0.80500 0.03800 -0.48600
O 	O 	0.32690 0.88700 0.06890 -0.50400
O 	O 	0.45050 0.90850 0.11090 -0.50000
O 	O 	0.52920 0.82630 0.07930 -0.47900
O 	O 	0.40320 0.69640 0.03160 -0.46100
O 	O 	0.24780 0.69450 0.03430 -0.48600
O 	O 	0.24730 0.80540 0.04050 -0.46400
O 	O 	0.12860 0.82320 0.08570 -0.48800
O 	O 	0.20880 0.90590 0.11590 -0.47600
O 	O 	0.53360 0.83720 0.15170 -0.45700
O 	O 	0.41490 0.83070 0.19860 -0.46900
O 	O 	0.33210 0.89910 0.15890 -0.47600
O 	O 	0.50800 0.72910 0.15810 -0.48800
O 	O 	0.50440 0.71830 0.08650 -0.47000
O 	O 	0.33080 0.62420 0.07500 -0.49000
O 	O 	0.42950 0.64710 0.12830 -0.48300
O 	O 	0.15750 0.71540 0.09170 -0.52300
O 	O 	0.23750 0.64520 0.13220 -0.51200
O 	O 	0.13390 0.83170 0.15850 -0.48500
O 	O 	0.16230 0.72710 0.16400 -0.51600
O 	O 	0.26120 0.82850 0.20260 -0.45900
O 	O 	0.41900 0.72220 0.21780 -0.48200
O 	O 	0.26380 0.72240 0.22080 -0.48200
O 	O 	0.33890 0.64130 0.18720 -0.50000
B 	B 	0.33060 0.77010 0.12220 3.20900
O 	O 	0.40290 0.80740 0.11850 -0.75100
O 	O 	0.32990 0.72800 0.09060 -0.75100
O 	O 	0.25590 0.80570 0.12150 -0.75500
O 	O 	0.33480 0.73770 0.15870 -0.76500
O 	O 	0.18690 0.85690 0.81070 -0.26600
O 	O 	0.14290 0.98560 0.71610 -1.40400
H 	H 	0.14140 0.01660 0.72820 0.46200
H 	H 	0.18980 0.98070 0.70710 0.49500
O 	O 	0.21790 0.97310 0.75390 -0.79100
H 	H 	0.20890 0.00100 0.76840 0.26000
H 	H 	0.26200 0.95740 0.76020 0.26900
O 	O 	0.11700 0.96990 0.81350 0.45800
H 	H 	0.16490 0.98250 0.81530 -0.22000
H 	H 	0.08480 0.99710 0.80980 -0.45500
O 	O 	0.40500 0.73520 0.12350 -0.68200
O 	O 	0.32600 0.80090 0.08520 -0.67600
O 	O 	0.25700 0.73160 0.12620 -0.68200
O 	O 	0.33000 0.81150 0.15430 -0.66300
Ce	Ce	0.93198 0.06074 0.47918 2.10800
Ce	Ce	0.10937 0.20105 0.35935 2.03800
Ce	Ce	0.39170 0.09575 0.26027 2.21800
O 	O 	0.84010 0.09600 0.52670 -0.46300
O 	O 	0.77950 0.16260 0.55780 -0.30500
O 	O 	0.02200 0.11860 0.44230 -0.53700
O 	O 	0.06700 0.19930 0.42230 -0.58000
O 	O 	0.91890 0.33400 0.50460 -0.43100
H 	H 	0.89430 0.34190 0.52400 0.19500
O 	O 	0.94460 0.98880 0.52510 -0.60500
O 	O 	0.23440 0.21400 0.32660 -0.57500
O 	O 	0.28190 0.14310 0.29510 -0.22900
O 	O 	0.48850 0.14660 0.22200 -0.49100
O 	O 	0.53540 0.22310 0.19600 -0.54300
O 	O 	0.39170 0.37250 0.26890 -0.43400
H 	H 	0.43500 0.38420 0.26090 0.20000
O 	O 	0.41290 0.04620 0.19680 -0.83300
H 	H 	0.46220 0.03720 0.19450 0.24500
H 	H 	0.38400 0.01650 0.19600 0.84000
O 	O 	0.24920 0.06890 0.26730 -0.77700
H 	H 	0.24000 0.03970 0.25390 0.38000
H 	H 	0.23950 0.06150 0.29030 0.25500
O 	O 	0.38440 0.05150 0.32260 -1.29000
H 	H 	0.33720 0.05560 0.33150 0.47000
H 	H 	0.39480 0.01650 0.32040 0.55100
N 	N 	0.92950 0.16520 0.49050 -0.23100
N 	N 	0.38950 0.20280 0.26280 -0.20900
C 	C 	0.82870 0.14650 0.53550 0.31600
C 	C 	0.87940 0.18780 0.51470 0.03300
C 	C 	0.87320 0.24400 0.52090 -0.17200
H 	H 	0.83730 0.25820 0.53860 0.05300
C 	C 	0.92120 0.27890 0.50050 0.26400
C 	C 	0.97290 0.25580 0.47440 -0.14500
H 	H 	0.00590 0.27840 0.45960 0.09000
C 	C 	0.97330 0.19900 0.47120 -0.00300
C 	C 	0.02570 0.17130 0.44320 0.36400
C 	C 	0.28620 0.19410 0.30590 0.36400
C 	C 	0.33950 0.22960 0.28470 -0.00900
C 	C 	0.33790 0.28640 0.28800 -0.15300
H 	H 	0.30320 0.30430 0.30480 0.06600
C 	C 	0.38920 0.31610 0.26570 0.25000
C 	C 	0.43860 0.28890 0.24160 -0.16200
H 	H 	0.47280 0.30860 0.22560 0.07600
C 	C 	0.43630 0.23220 0.24160 0.01600
C 	C 	0.49130 0.20000 0.21800 0.36600
W 	W 	0.06758 0.13550 0.56698 1.46900
W 	W 	0.17805 0.24659 0.52733 1.18800
W 	W 	0.27972 0.13533 0.57209 1.18900
W 	W 	0.06222 0.12074 0.65967 1.12700
W 	W 	0.96315 0.22469 0.61911 1.18500
W 	W 	0.06870 0.33651 0.57677 1.19000
W 	W 	0.26830 0.34072 0.58133 1.51400
W 	W 	0.37443 0.23004 0.62422 1.52500
W 	W 	0.27397 0.12584 0.66492 1.17300
W 	W 	0.15699 0.21997 0.71840 1.15400
W 	W 	0.06259 0.32429 0.67515 1.50300
W 	W 	0.26119 0.32324 0.67962 1.52800
O 	O 	0.02880 0.09070 0.53560 -0.61200
O 	O 	0.32820 0.39210 0.56570 -0.63800
O 	O 	0.47310 0.24010 0.62730 -0.60200
O 	O 	0.00060 0.37070 0.69650 -0.57300
O 	O 	0.31550 0.37020 0.70410 -0.55300
O 	O 	0.09830 0.19500 0.53800 -0.48600
O 	O 	0.17310 0.11300 0.56890 -0.50400
O 	O 	0.04950 0.09150 0.61090 -0.50000
O 	O 	0.97080 0.17370 0.57930 -0.47900
O 	O 	0.09680 0.30360 0.53160 -0.46100
O 	O 	0.25220 0.30550 0.53430 -0.48600
O 	O 	0.25270 0.19460 0.54050 -0.46300
O 	O 	0.37140 0.17680 0.58570 -0.48800
O 	O 	0.29120 0.09410 0.61590 -0.47600
O 	O 	0.96640 0.16280 0.65170 -0.45700
O 	O 	0.08510 0.16930 0.69860 -0.46900
O 	O 	0.16790 0.10090 0.65890 -0.47600
O 	O 	0.99200 0.27090 0.65810 -0.48800
O 	O 	0.99560 0.28170 0.58650 -0.47000
O 	O 	0.16920 0.37580 0.57500 -0.49000
O 	O 	0.07050 0.35290 0.62830 -0.48300
O 	O 	0.34250 0.28460 0.59170 -0.52300
O 	O 	0.26250 0.35480 0.63220 -0.51200
O 	O 	0.36610 0.16830 0.65850 -0.48500
O 	O 	0.33770 0.27290 0.66400 -0.51600
O 	O 	0.23880 0.17150 0.70260 -0.45900
O 	O 	0.08100 0.27780 0.71780 -0.48200
O 	O 	0.23620 0.27760 0.72080 -0.48200
O 	O 	0.16110 0.35870 0.68720 -0.50000
B 	B 	0.16940 0.22990 0.62220 3.20900
O 	O 	0.09710 0.19260 0.61850 -0.75100
O 	O 	0.17010 0.27200 0.59060 -0.75100
O 	O 	0.24410 0.19430 0.62150 -0.75500
O 	O 	0.16520 0.26230 0.65870 -0.76500
O 	O 	0.31310 0.14310 0.31070 -0.26600
O 	O 	0.35710 0.01440 0.21610 -1.40500
H 	H 	0.35860 0.98340 0.22820 0.46200
H 	H 	0.31020 0.01930 0.20710 0.49500
O 	O 	0.28210 0.02690 0.25390 -0.79100
H 	H 	0.29110 0.99900 0.26840 0.26000
H 	H 	0.23800 0.04260 0.26020 0.27000
O 	O 	0.38300 0.03010 0.31350 0.45800
H 	H 	0.33510 0.01750 0.31530 -0.22000
H 	H 	0.41520 0.00290 0.30980 -0.45500
O 	O 	0.09500 0.26480 0.62350 -0.68200
O 	O 	0.17400 0.19910 0.58520 -0.67600
O 	O 	0.24300 0.26840 0.62620 -0.68200
O 	O 	0.17000 0.18850 0.65430 -0.66300
Ce	Ce	0.43198 0.43926 0.52082 2.10800
Ce	Ce	0.60937 0.29895 0.64065 2.03800
Ce	Ce	0.89170 0.40425 0.73973 2.21800
O 	O 	0.34010 0.40400 0.47330 -0.46300
O 	O 	0.27950 0.33740 0.44220 -0.30500
O 	O 	0.52200 0.38140 0.55770 -0.53600
O 	O 	0.56700 0.30070 0.57770 -0.58000
O 	O 	0.41890 0.16600 0.49540 -0.43100
H 	H 	0.39430 0.15810 0.47600 0.19500
O 	O 	0.44460 0.51120 0.47490 -0.60500
O 	O 	0.73440 0.28600 0.67340 -0.57500
O 	O 	0.78190 0.35690 0.70490 -0.22900
O 	O 	0.98850 0.35340 0.77800 -0.49200
O 	O 	0.03540 0.27690 0.80400 -0.54300
O 	O 	0.89170 0.12750 0.73110 -0.43400
H 	H 	0.93500 0.11580 0.73910 0.19900
O 	O 	0.91290 0.45380 0.80320 -0.83300
H 	H 	0.96220 0.46280 0.80550 0.24500
H 	H 	0.88400 0.48350 0.80400 0.84000
O 	O 	0.74920 0.43110 0.73270 -0.77700
H 	H 	0.74000 0.46030 0.74610 0.38000
H 	H 	0.73950 0.43850 0.70970 0.25500
O 	O 	0.88440 0.44850 0.67740 -1.29000
H 	H 	0.83720 0.44440 0.66850 0.47000
H 	H 	0.89480 0.48350 0.67960 0.55200
N 	N 	0.42950 0.33480 0.50950 -0.23100
N 	N 	0.88950 0.29720 0.73720 -0.20900
C 	C 	0.32870 0.35350 0.46450 0.31600
C 	C 	0.37940 0.31220 0.48530 0.03300
C 	C 	0.37320 0.25600 0.47910 -0.17200
H 	H 	0.33730 0.24180 0.46140 0.05300
C 	C 	0.42120 0.22110 0.49950 0.26400
C 	C 	0.47290 0.24420 0.52560 -0.14600
H 	H 	0.50590 0.22160 0.54040 0.09100
C 	C 	0.47330 0.30100 0.52880 -0.00300
C 	C 	0.52570 0.32870 0.55680 0.36400
C 	C 	0.78620 0.30590 0.69410 0.36400
C 	C 	0.83950 0.27040 0.71530 -0.00900
C 	C 	0.83790 0.21360 0.71200 -0.15300
H 	H 	0.80320 0.19570 0.69520 0.06600
C 	C 	0.88920 0.18390 0.73430 0.25000
C 	C 	0.93860 0.21110 0.75840 -0.16200
H 	H 	0.97280 0.19140 0.77440 0.07600
C 	C 	0.93630 0.26780 0.75840 0.01600
C 	C 	0.99130 0.30000 0.78200 0.36500
W 	W 	0.56758 0.36450 0.43302 1.46900
W 	W 	0.67805 0.25341 0.47267 1.18800
W 	W 	0.77972 0.36467 0.42791 1.18900
W 	W 	0.56222 0.37926 0.34033 1.12700
W 	W 	0.46315 0.27531 0.38089 1.18500
W 	W 	0.56870 0.16349 0.42323 1.19000
W 	W 	0.76830 0.15928 0.41867 1.51400
W 	W 	0.87443 0.26996 0.37578 1.52500
W 	W 	0.77397 0.37416 0.33508 1.17300
W 	W 	0.65699 0.28003 0.28160 1.15400
W 	W 	0.56259 0.17571 0.32485 1.50300
W 	W 	0.76119 0.17676 0.32038 1.52800
O 	O 	0.52880 0.40930 0.46440 -0.61200
O 	O 	0.82820 0.10790 0.43430 -0.63800
O 	O 	0.97310 0.25990 0.37270 -0.60200
O 	O 	0.50060 0.12930 0.30350 -0.57300
O 	O 	0.81550 0.12980 0.29590 -0.55300
O 	O 	0.59830 0.30500 0.46200 -0.48600
O 	O 	0.67310 0.38700 0.43110 -0.50400
O 	O 	0.54950 0.40850 0.38910 -0.50000
O 	O 	0.47080 0.32630 0.42070 -0.47900
O 	O 	0.59680 0.19640 0.46840 -0.46100
O 	O 	0.75220 0.19450 0.46570 -0.48600
O 	O 	0.75270 0.30540 0.45950 -0.46300
O 	O 	0.87140 0.32320 0.41430 -0.48800
O 	O 	0.79120 0.40590 0.38410 -0.47600
O 	O 	0.46640 0.33720 0.34830 -0.45700
O 	O 	0.58510 0.33070 0.30140 -0.46900
O 	O 	0.66790 0.39910 0.34110 -0.47600
O 	O 	0.49200 0.22910 0.34190 -0.48800
O 	O 	0.49560 0.21830 0.41350 -0.47000
O 	O 	0.66920 0.12420 0.42500 -0.49000
O 	O 	0.57050 0.14710 0.37170 -0.48300
O 	O 	0.84250 0.21540 0.40830 -0.52300
O 	O 	0.76250 0.14520 0.36780 -0.51200
O 	O 	0.86610 0.33170 0.34150 -0.48500
O 	O 	0.83770 0.22710 0.33600 -0.51600
O 	O 	0.73880 0.32850 0.29740 -0.45900
O 	O 	0.58100 0.22220 0.28220 -0.48200
O 	O 	0.73620 0.22240 0.27920 -0.48200
O 	O 	0.66110 0.14130 0.31280 -0.50000
B 	B 	0.66940 0.27010 0.37780 3.20900
O 	O 	0.59710 0.30740 0.38150 -0.75100
O 	O 	0.67010 0.22800 0.40940 -0.75100
O 	O 	0.74410 0.30570 0.37850 -0.75500
O 	O 	0.66520 0.23770 0.34130 -0.76500
O 	O 	0.81310 0.35690 0.68930 -0.26600
O 	O 	0.85710 0.48560 0.78390 -1.40500
H 	H 	0.85860 0.51660 0.77180 0.46200
H 	H 	0.81020 0.48070 0.79290 0.49500
O 	O 	0.78210 0.47310 0.74610 -0.79100
H 	H 	0.79110 0.50100 0.73160 0.26000
H 	H 	0.73800 0.45740 0.73980 0.27000
O 	O 	0.88300 0.46990 0.68650 0.45800
H 	H 	0.83510 0.48250 0.68470 -0.22000
H 	H 	0.91520 0.49710 0.69020 -0.45500
O 	O 	0.59500 0.23520 0.37650 -0.68200
O 	O 	0.67400 0.30090 0.41480 -0.67600
O 	O 	0.74300 0.23160 0.37380 -0.68200
O 	O 	0.67000 0.31150 0.34570 -0.66300
Ce	Ce	0.06802 0.56074 0.02082 2.10700
Ce	Ce	0.89063 0.70105 0.14065 2.03800
Ce	Ce	0.60830 0.59575 0.23973 2.21800
O 	O 	0.15990 0.59600 0.97330 -0.46300
O 	O 	0.22050 0.66260 0.94220 -0.30500
O 	O 	0.97800 0.61860 0.05770 -0.53600
O 	O 	0.93300 0.69930 0.07770 -0.57900
O 	O 	0.08110 0.83400 0.99540 -0.43100
H 	H 	0.10570 0.84190 0.97600 0.19500
O 	O 	0.05540 0.48880 0.97490 -0.60500
O 	O 	0.76560 0.71400 0.17340 -0.57500
O 	O 	0.71810 0.64310 0.20490 -0.22900
O 	O 	0.51150 0.64660 0.27800 -0.49100
O 	O 	0.46460 0.72310 0.30400 -0.54300
O 	O 	0.60830 0.87250 0.23110 -0.43400
H 	H 	0.56500 0.88420 0.23910 0.20000
O 	O 	0.58710 0.54620 0.30320 -0.83300
H 	H 	0.53780 0.53720 0.30550 0.24500
H 	H 	0.61600 0.51650 0.30400 0.84000
O 	O 	0.75080 0.56890 0.23270 -0.77700
H 	H 	0.76000 0.53970 0.24610 0.38000
H 	H 	0.76050 0.56150 0.20970 0.25500
O 	O 	0.61560 0.55150 0.17740 -1.29000
H 	H 	0.66280 0.55560 0.16850 0.47000
H 	H 	0.60520 0.51650 0.17960 0.55100
N 	N 	0.07050 0.66520 0.00950 -0.23100
N 	N 	0.61050 0.70280 0.23720 -0.20900
C 	C 	0.17130 0.64650 0.96450 0.31600
C 	C 	0.12060 0.68780 0.98530 0.03400
C 	C 	0.12680 0.74400 0.97910 -0.17300
H 	H 	0.16270 0.75820 0.96140 0.05400
C 	C 	0.07880 0.77890 0.99950 0.26600
C 	C 	0.02710 0.75580 0.02560 -0.14800
H 	H 	0.99410 0.77840 0.04040 0.09200
C 	C 	0.02670 0.69900 0.02880 -0.00300
C 	C 	0.97430 0.67130 0.05680 0.36400
C 	C 	0.71380 0.69410 0.19410 0.36400
C 	C 	0.66050 0.72960 0.21530 -0.00900
C 	C 	0.66210 0.78640 0.21200 -0.15300
H 	H 	0.69680 0.80430 0.19520 0.06600
C 	C 	0.61080 0.81610 0.23430 0.25000
C 	C 	0.56140 0.78890 0.25840 -0.16200
H 	H 	0.52720 0.80860 0.27440 0.07600
C 	C 	0.56370 0.73220 0.25840 0.01600
C 	C 	0.50870 0.70000 0.28200 0.36600
W 	W 	0.93242 0.63550 0.93302 1.46800
W 	W 	0.82195 0.74659 0.97267 1.18800
W 	W 	0.72028 0.63533 0.92791 1.18900
W 	W 	0.93778 0.62074 0.84033 1.12600
W 	W 	0.03685 0.72469 0.88089 1.18500
W 	W 	0.93130 0.83651 0.92323 1.18900
W 	W 	0.73170 0.84072 0.91867 1.51400
W 	W 	0.62557 0.73004 0.87578 1.52500
W 	W 	0.72603 0.62584 0.83508 1.17300
W 	W 	0.84301 0.71997 0.78160 1.15300
W 	W 	0.93741 0.82429 0.82485 1.50300
W 	W 	0.73881 0.82324 0.82038 1.52800
O 	O 	0.97120 0.59070 0.96440 -0.61200
O 	O 	0.67180 0.89210 0.93430 -0.63800
O 	O 	0.52690 0.74010 0.87270 -0.60200
O 	O 	0.99940 0.87070 0.80350 -0.57400
O 	O 	0.68450 0.87020 0.79590 -0.55300
O 	O 	0.90170 0.69500 0.96200 -0.48600
O 	O 	0.82690 0.61300 0.93110 -0.50400
O 	O 	0.95050 0.59150 0.88910 -0.50000
O 	O 	0.02920 0.67370 0.92070 -0.47900
O 	O 	0.90320 0.80360 0.96840 -0.46100
O 	O 	0.74780 0.80550 0.96570 -0.48600
O 	O 	0.74730 0.69460 0.95950 -0.46300
O 	O 	0.62860 0.67680 0.91430 -0.48800
O 	O 	0.70880 0.59410 0.88410 -0.47600
O 	O 	0.03360 0.66280 0.84830 -0.45700
O 	O 	0.91490 0.66930 0.80140 -0.46900
O 	O 	0.83210 0.60090 0.84110 -0.47600
O 	O 	0.00800 0.77090 0.84190 -0.48700
O 	O 	0.00440 0.78170 0.91350 -0.46900
O 	O 	0.83080 0.87580 0.92500 -0.49000
O 	O 	0.92950 0.85290 0.87170 -0.48300
O 	O 	0.65750 0.78460 0.90830 -0.52300
O 	O 	0.73750 0.85480 0.86780 -0.51200
O 	O 	0.63390 0.66830 0.84150 -0.48500
O 	O 	0.66230 0.77290 0.83600 -0.51600
O 	O 	0.76120 0.67150 0.79740 -0.45900
O 	O 	0.91900 0.77780 0.78220 -0.48200
O 	O 	0.76380 0.77760 0.77920 -0.48200
O 	O 	0.83890 0.85870 0.81280 -0.50000
B 	B 	0.83060 0.72990 0.87780 3.20900
O 	O 	0.90290 0.69260 0.88150 -0.75100
O 	O 	0.82990 0.77200 0.90940 -0.75100
O 	O 	0.75590 0.69430 0.87850 -0.75500
O 	O 	0.83480 0.76230 0.84130 -0.76500
O 	O 	0.68690 0.64310 0.18930 -0.26600
O 	O 	0.64290 0.51440 0.28390 -1.40500
H 	H 	0.64140 0.48340 0.27180 0.46200
H 	H 	0.68980 0.51930 0.29290 0.49600
O 	O 	0.71790 0.52690 0.24610 -0.79100
H 	H 	0.70890 0.49900 0.23160 0.26000
H 	H 	0.76200 0.54260 0.23980 0.27000
O 	O 	0.61700 0.53010 0.18650 0.45800
H 	H 	0.66490 0.51750 0.18470 -0.22000
H 	H 	0.58480 0.50290 0.19020 -0.45500
O 	O 	0.90500 0.76480 0.87650 -0.68200
O 	O 	0.82600 0.69910 0.91480 -0.67600
O 	O 	0.75700 0.76840 0.87380 -0.68200
O 	O 	0.83000 0.68850 0.84570 -0.66300
