data_crystal

_cell_length_a 27.58100
_cell_length_b 9.11140
_cell_length_c 9.97910
_cell_angle_alpha 90.00000
_cell_angle_beta  92.21300
_cell_angle_gamma 90.00000

_symmetry_space_group_name_	'P 1'
_symmetry_space_group_name_H-M	'P 1'

loop_
_symmetry_equiv_pos_as_xyz
  x,y,z

loop_
_atom_site_label
_atom_site_type_symbol
_atom_site_fract_x
_atom_site_fract_y
_atom_site_fract_z
_atom_site_charge
Zn	Zn	0.95052 0.17781 0.40378 1.24700
Zn	Zn	0.54840 0.17815 0.41193 1.24500
P 	P 	0.97344 0.08033 0.69538 0.56800
P 	P 	0.52339 0.07746 0.69892 0.56600
O 	O 	0.96743 0.20310 0.59380 -0.44400
O 	O 	0.97827 0.14310 0.83870 -0.40900
O 	O 	0.01629 0.98480 0.67150 -0.43400
O 	O 	0.92634 0.98090 0.68740 -0.41900
O 	O 	0.53279 0.19740 0.59760 -0.45800
O 	O 	0.47579 0.99810 0.67340 -0.42900
O 	O 	0.52322 0.13790 0.84090 -0.40400
O 	O 	0.56482 0.95960 0.68890 -0.42500
O 	O 	0.88170 0.13250 0.38040 -0.44600
O 	O 	0.61808 0.16570 0.38400 -0.44200
O 	O 	0.85689 0.30540 0.23610 -0.30900
O 	O 	0.64349 0.04080 0.56590 -0.30300
C 	C 	0.84967 0.20440 0.31580 0.36300
C 	C 	0.79806 0.16450 0.34660 -0.08200
C 	C 	0.76002 0.23200 0.27210 0.00700
C 	C 	0.71243 0.20880 0.30530 -0.00200
C 	C 	0.70202 0.11910 0.41410 -0.06600
C 	C 	0.73958 0.04560 0.48220 -0.02600
C 	C 	0.78742 0.07000 0.44980 0.01800
C 	C 	0.65042 0.10560 0.45980 0.34800
H 	H 	0.76620 0.31040 0.18460 0.04700
H 	H 	0.67110 0.25760 0.28000 0.06500
H 	H 	0.90130 0.03490 0.70120 0.25300
H 	H 	0.73030 0.98360 0.56240 0.06200
H 	H 	0.82060 0.02400 0.51740 0.05500
H 	H 	0.58870 0.99760 0.64720 0.25500
Zn	Zn	0.04948 0.67781 0.09622 1.24600
Zn	Zn	0.45160 0.67815 0.08807 1.24400
P 	P 	0.02656 0.58033 0.80462 0.57200
P 	P 	0.47661 0.57746 0.80108 0.56800
O 	O 	0.03257 0.70310 0.90620 -0.44300
O 	O 	0.02173 0.64310 0.66130 -0.40800
O 	O 	0.98371 0.48480 0.82850 -0.43500
O 	O 	0.07366 0.48090 0.81260 -0.42400
O 	O 	0.46721 0.69740 0.90240 -0.45700
O 	O 	0.52421 0.49810 0.82660 -0.43000
O 	O 	0.47678 0.63790 0.65910 -0.40300
O 	O 	0.43518 0.45960 0.81110 -0.42700
O 	O 	0.11830 0.63250 0.11960 -0.44600
O 	O 	0.38192 0.66570 0.11600 -0.44200
O 	O 	0.14311 0.80540 0.26390 -0.31000
O 	O 	0.35651 0.54080 0.93410 -0.30000
C 	C 	0.15033 0.70440 0.18420 0.36200
C 	C 	0.20194 0.66450 0.15340 -0.08100
C 	C 	0.23998 0.73200 0.22790 0.00600
C 	C 	0.28757 0.70880 0.19470 -0.00200
C 	C 	0.29798 0.61910 0.08590 -0.06700
C 	C 	0.26042 0.54560 0.01780 -0.02500
C 	C 	0.21258 0.57000 0.05020 0.01600
C 	C 	0.34958 0.60560 0.04020 0.34500
H 	H 	0.23380 0.81040 0.31540 0.04600
H 	H 	0.32890 0.75760 0.22000 0.06400
H 	H 	0.09870 0.53490 0.79880 0.25700
H 	H 	0.26970 0.48360 0.93760 0.06200
H 	H 	0.17940 0.52400 0.98260 0.05700
H 	H 	0.41130 0.49760 0.85280 0.25500
Zn	Zn	0.04948 0.82219 0.59622 1.24600
Zn	Zn	0.45160 0.82185 0.58807 1.24400
P 	P 	0.02656 0.91967 0.30462 0.56800
P 	P 	0.47661 0.92254 0.30108 0.56600
O 	O 	0.03257 0.79690 0.40620 -0.44400
O 	O 	0.02173 0.85690 0.16130 -0.40900
O 	O 	0.98371 0.01520 0.32850 -0.43400
O 	O 	0.07366 0.01910 0.31260 -0.41900
O 	O 	0.46721 0.80260 0.40240 -0.45800
O 	O 	0.52421 0.00190 0.32660 -0.42900
O 	O 	0.47678 0.86210 0.15910 -0.40400
O 	O 	0.43518 0.04040 0.31110 -0.42500
O 	O 	0.11830 0.86750 0.61960 -0.44600
O 	O 	0.38192 0.83430 0.61600 -0.44200
O 	O 	0.14311 0.69460 0.76390 -0.30900
O 	O 	0.35651 0.95920 0.43410 -0.30300
C 	C 	0.15033 0.79560 0.68420 0.36300
C 	C 	0.20194 0.83550 0.65340 -0.08200
C 	C 	0.23998 0.76800 0.72790 0.00700
C 	C 	0.28757 0.79120 0.69470 -0.00200
C 	C 	0.29798 0.88090 0.58590 -0.06600
C 	C 	0.26042 0.95440 0.51780 -0.02600
C 	C 	0.21258 0.93000 0.55020 0.01800
C 	C 	0.34958 0.89440 0.54020 0.34800
H 	H 	0.23380 0.68960 0.81540 0.04700
H 	H 	0.32890 0.74240 0.72000 0.06500
H 	H 	0.09870 0.96510 0.29880 0.25300
H 	H 	0.26970 0.01640 0.43760 0.06200
H 	H 	0.17940 0.97600 0.48260 0.05500
H 	H 	0.41130 0.00240 0.35280 0.25500
Zn	Zn	0.95052 0.32219 0.90378 1.24600
Zn	Zn	0.54840 0.32185 0.91193 1.24400
P 	P 	0.97344 0.41967 0.19538 0.57200
P 	P 	0.52339 0.42254 0.19892 0.56800
O 	O 	0.96743 0.29690 0.09380 -0.44300
O 	O 	0.97827 0.35690 0.33870 -0.40800
O 	O 	0.01629 0.51520 0.17150 -0.43500
O 	O 	0.92634 0.51910 0.18740 -0.42400
O 	O 	0.53279 0.30260 0.09760 -0.45700
O 	O 	0.47579 0.50190 0.17340 -0.43000
O 	O 	0.52322 0.36210 0.34090 -0.40300
O 	O 	0.56482 0.54040 0.18890 -0.42700
O 	O 	0.88170 0.36750 0.88040 -0.44600
O 	O 	0.61808 0.33430 0.88400 -0.44200
O 	O 	0.85689 0.19460 0.73610 -0.31000
O 	O 	0.64349 0.45920 0.06590 -0.30000
C 	C 	0.84967 0.29560 0.81580 0.36200
C 	C 	0.79806 0.33550 0.84660 -0.08100
C 	C 	0.76002 0.26800 0.77210 0.00600
C 	C 	0.71243 0.29120 0.80530 -0.00200
C 	C 	0.70202 0.38090 0.91410 -0.06700
C 	C 	0.73958 0.45440 0.98220 -0.02500
C 	C 	0.78742 0.43000 0.94980 0.01600
C 	C 	0.65042 0.39440 0.95980 0.34500
H 	H 	0.76620 0.18960 0.68460 0.04600
H 	H 	0.67110 0.24240 0.78000 0.06400
H 	H 	0.90130 0.46510 0.20120 0.25700
H 	H 	0.73030 0.51640 0.06240 0.06200
H 	H 	0.82060 0.47600 0.01740 0.05700
H 	H 	0.58870 0.50240 0.14720 0.25500
