data_crystal

_cell_length_a 29.53600
_cell_length_b 29.53600
_cell_length_c 41.76000
_cell_angle_alpha 90.00000
_cell_angle_beta  90.00000
_cell_angle_gamma 120.00000

_symmetry_space_group_name_	'P 1'
_symmetry_space_group_name_H-M	'P 1'

loop_
_symmetry_equiv_pos_as_xyz
  x,y,z

loop_
_atom_site_label
_atom_site_type_symbol
_atom_site_fract_x
_atom_site_fract_y
_atom_site_fract_z
_atom_site_charge
Zn	Zn	0.02208 0.72961 0.97558 1.21700
Zn	Zn	0.03425 0.63000 0.97482 1.21300
Zn	Zn	0.98225 0.65119 0.03474 1.19400
Zn	Zn	0.92211 0.61651 0.96831 1.20800
Zn	Zn	0.70753 0.97792 0.64225 1.21700
Zn	Zn	0.59575 0.96575 0.64149 1.21300
Zn	Zn	0.66894 0.01775 0.70141 1.19300
Zn	Zn	0.69440 0.07789 0.63498 1.20700
Zn	Zn	0.27039 0.29247 0.30891 1.21800
Zn	Zn	0.37000 0.40425 0.30815 1.21300
Zn	Zn	0.34881 0.33106 0.36807 1.19200
Zn	Zn	0.38349 0.30560 0.30164 1.20700
H 	H 	0.12020 0.86950 0.03070 0.02800
H 	H 	0.16190 0.93630 0.06840 0.08500
H 	H 	0.08350 0.83350 0.13970 0.07800
H 	H 	0.04180 0.76660 0.10190 0.01800
H 	H 	0.29890 0.12150 0.19540 0.08500
H 	H 	0.33070 0.19540 0.22820 0.01700
H 	H 	0.18940 0.13380 0.27160 0.01700
H 	H 	0.15760 0.05990 0.23880 0.08500
H 	H 	0.18720 0.71190 0.93520 0.01600
H 	H 	0.25840 0.75110 0.90000 0.08500
H 	H 	0.20450 0.84330 0.86500 0.08500
H 	H 	0.13330 0.80410 0.90010 0.02200
H 	H 	0.48380 0.88390 0.80180 0.08200
H 	H 	0.55140 0.91700 0.76410 0.01500
H 	H 	0.45080 0.91150 0.69610 0.02600
H 	H 	0.38320 0.87840 0.73390 0.08600
H 	H 	0.89190 0.54140 0.88080 0.00600
H 	H 	0.87390 0.48820 0.83570 0.08800
H 	H 	0.99310 0.46360 0.85900 0.08800
H 	H 	0.01120 0.51690 0.90420 0.00500
H 	H 	0.82740 0.30640 0.70120 0.08000
H 	H 	0.78190 0.22830 0.67230 0.01400
H 	H 	0.77520 0.14610 0.75170 0.00800
H 	H 	0.82070 0.22420 0.78060 0.08200
H 	H 	0.74930 0.87980 0.69737 0.02800
H 	H 	0.77440 0.83810 0.73507 0.08800
H 	H 	0.75000 0.91650 0.80637 0.08000
H 	H 	0.72480 0.95820 0.76857 0.01800
H 	H 	0.82260 0.70110 0.86207 0.08400
H 	H 	0.86470 0.66930 0.89487 0.01800
H 	H 	0.94440 0.81060 0.93827 0.01900
H 	H 	0.90230 0.84240 0.90547 0.08400
H 	H 	0.52470 0.81280 0.60187 0.01600
H 	H 	0.49270 0.74160 0.56667 0.08500
H 	H 	0.63880 0.79550 0.53167 0.08500
H 	H 	0.67080 0.86670 0.56677 0.02200
H 	H 	0.40010 0.51620 0.46847 0.08300
H 	H 	0.36560 0.44860 0.43077 0.01600
H 	H 	0.46070 0.54920 0.36277 0.02600
H 	H 	0.49520 0.61680 0.40057 0.08600
H 	H 	0.64950 0.10810 0.54747 0.00600
H 	H 	0.61430 0.12610 0.50237 0.08800
H 	H 	0.47050 0.00690 0.52567 0.08800
H 	H 	0.50570 0.98880 0.57087 0.00500
H 	H 	0.47900 0.17260 0.36787 0.08000
H 	H 	0.44640 0.21810 0.33897 0.01400
H 	H 	0.37090 0.22480 0.41837 0.00700
H 	H 	0.40350 0.17930 0.44727 0.08100
H 	H 	0.13050 0.25070 0.36403 0.02900
H 	H 	0.06370 0.22560 0.40173 0.08500
H 	H 	0.16650 0.25000 0.47303 0.07900
H 	H 	0.23340 0.27520 0.43523 0.01900
H 	H 	0.87850 0.17740 0.52873 0.08500
H 	H 	0.80460 0.13530 0.56153 0.01700
H 	H 	0.86620 0.05560 0.60493 0.01900
H 	H 	0.94010 0.09770 0.57213 0.08700
H 	H 	0.28810 0.47530 0.26853 0.01600
H 	H 	0.24890 0.50730 0.23333 0.08500
H 	H 	0.15670 0.36120 0.19833 0.08500
H 	H 	0.19590 0.32920 0.23343 0.02300
H 	H 	0.11610 0.59990 0.13513 0.08200
H 	H 	0.08300 0.63440 0.09743 0.01500
H 	H 	0.08850 0.53930 0.02943 0.02600
H 	H 	0.12160 0.50480 0.06723 0.08600
H 	H 	0.45860 0.35050 0.21413 0.00800
H 	H 	0.51180 0.38570 0.16903 0.08500
H 	H 	0.53640 0.52950 0.19233 0.08200
H 	H 	0.48310 0.49430 0.23753 0.01500
H 	H 	0.69360 0.52100 0.03453 0.08000
H 	H 	0.77170 0.55360 0.00563 0.01400
H 	H 	0.85390 0.62910 0.08503 0.00800
H 	H 	0.77580 0.59650 0.11393 0.08100
C 	C 	0.05130 0.76880 0.03930 0.39100
C 	C 	0.07710 0.81180 0.06274 -0.14200
C 	C 	0.11270 0.86210 0.05279 0.06600
C 	C 	0.13750 0.90190 0.07520 -0.13800
C 	C 	0.12660 0.89120 0.10763 0.09400
C 	C 	0.09090 0.84070 0.11758 -0.14100
C 	C 	0.06620 0.80110 0.09514 0.06700
C 	C 	0.15000 0.93370 0.13060 -0.04400
C 	C 	0.16740 0.96610 0.15080 -0.00500
C 	C 	0.18610 0.00370 0.17400 0.01900
C 	C 	0.20370 0.04030 0.19200 -0.05600
C 	C 	0.22530 0.08380 0.21400 0.10700
C 	C 	0.27670 0.12410 0.21084 -0.15000
C 	C 	0.29560 0.16790 0.23040 0.08100
C 	C 	0.26300 0.17150 0.25300 -0.16100
C 	C 	0.21160 0.13130 0.25613 0.08200
C 	C 	0.19270 0.08740 0.23660 -0.14900
C 	C 	0.28420 0.21840 0.27420 0.43500
C 	C 	0.10730 0.72780 0.94200 0.42600
C 	C 	0.15350 0.75430 0.92095 -0.16200
C 	C 	0.19070 0.73860 0.92092 0.08200
C 	C 	0.23300 0.76180 0.90010 -0.14600
C 	C 	0.23810 0.80080 0.87924 0.10500
C 	C 	0.20100 0.81660 0.87926 -0.14400
C 	C 	0.15870 0.79340 0.90012 0.07900
C 	C 	0.28200 0.82290 0.85730 -0.04400
C 	C 	0.31470 0.83440 0.83720 0.01100
C 	C 	0.35450 0.85180 0.81610 0.00900
C 	C 	0.38730 0.86550 0.79590 -0.05000
C 	C 	0.42720 0.87810 0.77141 0.09900
C 	C 	0.47710 0.88950 0.78037 -0.14700
C 	C 	0.51730 0.90920 0.75794 0.07100
C 	C 	0.50750 0.91740 0.72654 -0.15500
C 	C 	0.45750 0.90590 0.71758 0.06900
C 	C 	0.41740 0.88630 0.74002 -0.14100
C 	C 	0.55110 0.94310 0.70340 0.40300
C 	C 	0.97110 0.57370 0.92240 0.49400
C 	C 	0.95320 0.53410 0.89680 -0.20300
C 	C 	0.91250 0.52560 0.87640 0.10400
C 	C 	0.90180 0.49400 0.84960 -0.16800
C 	C 	0.93180 0.47090 0.84310 0.11500
C 	C 	0.97260 0.47940 0.86350 -0.17100
C 	C 	0.98330 0.51100 0.89030 0.10800
C 	C 	0.91360 0.43290 0.81780 -0.06500
C 	C 	0.89590 0.39280 0.80340 0.00800
C 	C 	0.86100 0.35070 0.78480 -0.00200
C 	C 	0.85220 0.31940 0.76280 -0.05300
C 	C 	0.82830 0.27260 0.74360 0.10000
C 	C 	0.81680 0.27390 0.71140 -0.15000
C 	C 	0.78980 0.22750 0.69430 0.07800
C 	C 	0.77430 0.17990 0.70930 -0.17200
C 	C 	0.78580 0.17870 0.74140 0.08100
C 	C 	0.81280 0.22500 0.75860 -0.15100
C 	C 	0.75070 0.13150 0.68830 0.45300
C 	C 	0.71750 0.94870 0.70597 0.39200
C 	C 	0.73470 0.92290 0.72941 -0.14300
C 	C 	0.74940 0.88730 0.71946 0.06800
C 	C 	0.76440 0.86250 0.74187 -0.14000
C 	C 	0.76460 0.87340 0.77430 0.09900
C 	C 	0.74980 0.90910 0.78425 -0.14400
C 	C 	0.73490 0.93380 0.76181 0.06900
C 	C 	0.78370 0.85000 0.79727 -0.04900
C 	C 	0.79870 0.83260 0.81747 0.00800
C 	C 	0.81760 0.81390 0.84067 0.00800
C 	C 	0.83660 0.79630 0.85867 -0.05000
C 	C 	0.85850 0.77470 0.88067 0.10300
C 	C 	0.84740 0.72330 0.87751 -0.14700
C 	C 	0.87230 0.70440 0.89707 0.07900
C 	C 	0.90850 0.73700 0.91967 -0.15800
C 	C 	0.91970 0.78840 0.92280 0.08000
C 	C 	0.89470 0.80730 0.90327 -0.14600
C 	C 	0.93420 0.71580 0.94087 0.43400
C 	C 	0.62050 0.89270 0.60867 0.42600
C 	C 	0.60080 0.84650 0.58762 -0.16200
C 	C 	0.54790 0.80930 0.58759 0.08200
C 	C 	0.52880 0.76700 0.56677 -0.14600
C 	C 	0.56270 0.76190 0.54591 0.10500
C 	C 	0.61560 0.79900 0.54593 -0.14400
C 	C 	0.63470 0.84130 0.56679 0.07900
C 	C 	0.54090 0.71800 0.52397 -0.04400
C 	C 	0.51970 0.68530 0.50387 0.01200
C 	C 	0.49730 0.64550 0.48277 0.00900
C 	C 	0.47820 0.61270 0.46257 -0.04900
C 	C 	0.45090 0.57280 0.43808 0.09900
C 	C 	0.41240 0.52290 0.44704 -0.14700
C 	C 	0.39190 0.48270 0.42461 0.07100
C 	C 	0.40990 0.49250 0.39321 -0.15400
C 	C 	0.44840 0.54250 0.38425 0.06900
C 	C 	0.46890 0.58260 0.40669 -0.14100
C 	C 	0.39200 0.44890 0.37007 0.40300
C 	C 	0.60260 0.02890 0.58907 0.49500
C 	C 	0.58090 0.04680 0.56347 -0.20300
C 	C 	0.61310 0.08750 0.54307 0.10400
C 	C 	0.59220 0.09820 0.51627 -0.16800
C 	C 	0.53910 0.06820 0.50977 0.11500
C 	C 	0.50680 0.02740 0.53017 -0.17100
C 	C 	0.52770 0.01670 0.55697 0.10800
C 	C 	0.51930 0.08640 0.48447 -0.06500
C 	C 	0.49690 0.10410 0.47007 0.00800
C 	C 	0.48970 0.13900 0.45147 -0.00300
C 	C 	0.46720 0.14780 0.42947 -0.05300
C 	C 	0.44430 0.17170 0.41027 0.10000
C 	C 	0.45710 0.18320 0.37807 -0.15000
C 	C 	0.43770 0.21020 0.36097 0.07800
C 	C 	0.40560 0.22570 0.37597 -0.17300
C 	C 	0.39290 0.21420 0.40807 0.08100
C 	C 	0.41220 0.18720 0.42527 -0.15100
C 	C 	0.38080 0.24930 0.35497 0.45300
C 	C 	0.23120 0.28250 0.37263 0.39100
C 	C 	0.18820 0.26530 0.39607 -0.14100
C 	C 	0.13790 0.25060 0.38612 0.06600
C 	C 	0.09810 0.23560 0.40853 -0.13700
C 	C 	0.10880 0.23540 0.44096 0.09400
C 	C 	0.15930 0.25020 0.45091 -0.14100
C 	C 	0.19890 0.26510 0.42847 0.06700
C 	C 	0.06630 0.21630 0.46393 -0.04400
C 	C 	0.03390 0.20130 0.48413 -0.00500
C 	C 	0.99630 0.18240 0.50733 0.02000
C 	C 	0.95970 0.16340 0.52533 -0.05500
C 	C 	0.91620 0.14150 0.54733 0.10800
C 	C 	0.87590 0.15260 0.54417 -0.14900
C 	C 	0.83210 0.12770 0.56373 0.08100
C 	C 	0.82850 0.09150 0.58633 -0.15900
C 	C 	0.86870 0.08030 0.58946 0.08200
C 	C 	0.91260 0.10530 0.56993 -0.14800
C 	C 	0.78160 0.06580 0.60753 0.43400
C 	C 	0.27220 0.37950 0.27533 0.42600
C 	C 	0.24570 0.39920 0.25428 -0.16200
C 	C 	0.26140 0.45210 0.25425 0.08100
C 	C 	0.23820 0.47120 0.23343 -0.14500
C 	C 	0.19920 0.43730 0.21257 0.10400
C 	C 	0.18340 0.38440 0.21259 -0.14400
C 	C 	0.20660 0.36530 0.23345 0.07900
C 	C 	0.17710 0.45910 0.19063 -0.04400
C 	C 	0.16560 0.48030 0.17053 0.01100
C 	C 	0.14820 0.50270 0.14943 0.00900
C 	C 	0.13450 0.52180 0.12923 -0.05000
C 	C 	0.12190 0.54910 0.10474 0.09900
C 	C 	0.11050 0.58760 0.11370 -0.14700
C 	C 	0.09080 0.60810 0.09127 0.07100
C 	C 	0.08260 0.59010 0.05987 -0.15500
C 	C 	0.09410 0.55160 0.05091 0.06900
C 	C 	0.11370 0.53110 0.07335 -0.14100
C 	C 	0.05690 0.60800 0.03673 0.40300
C 	C 	0.42630 0.39740 0.25573 0.48200
C 	C 	0.46590 0.41910 0.23013 -0.19200
C 	C 	0.47440 0.38690 0.20973 0.09600
C 	C 	0.50600 0.40780 0.18293 -0.16100
C 	C 	0.52910 0.46090 0.17643 0.10800
C 	C 	0.52060 0.49320 0.19683 -0.16000
C 	C 	0.48900 0.47230 0.22363 0.08800
C 	C 	0.56710 0.48070 0.15113 -0.06300
C 	C 	0.60720 0.50310 0.13673 0.00600
C 	C 	0.64930 0.51030 0.11813 -0.00200
C 	C 	0.68060 0.53280 0.09613 -0.05400
C 	C 	0.72740 0.55570 0.07693 0.10000
C 	C 	0.72610 0.54290 0.04473 -0.15000
C 	C 	0.77250 0.56230 0.02763 0.07800
C 	C 	0.82010 0.59440 0.04263 -0.17300
C 	C 	0.82130 0.60710 0.07473 0.08100
C 	C 	0.77500 0.58780 0.09193 -0.15100
C 	C 	0.86850 0.61920 0.02163 0.45300
O 	O 	0.99170 0.65790 0.98757 -0.95600
O 	O 	0.05800 0.78100 0.01018 -0.48400
O 	O 	0.01890 0.72350 0.05062 -0.49500
O 	O 	0.33180 0.24950 0.27300 -0.50200
O 	O 	0.25220 0.22580 0.28940 -0.50900
O 	O 	0.07660 0.74560 0.94338 -0.50300
O 	O 	0.09940 0.68740 0.95612 -0.50700
O 	O 	0.54110 0.94140 0.67460 -0.50600
O 	O 	0.59740 0.96270 0.71490 -0.52400
O 	O 	0.00580 0.58020 0.94000 -0.55700
O 	O 	0.93610 0.58300 0.93130 -0.53700
O 	O 	0.73710 0.13580 0.66160 -0.55600
O 	O 	0.73610 0.08970 0.70270 -0.53000
O 	O 	0.66620 0.00830 0.65424 -0.95600
O 	O 	0.72300 0.94200 0.67685 -0.48400
O 	O 	0.70460 0.98110 0.71729 -0.49500
O 	O 	0.91770 0.66820 0.93967 -0.50100
O 	O 	0.97360 0.74780 0.95607 -0.50600
O 	O 	0.66900 0.92340 0.61005 -0.50400
O 	O 	0.58800 0.90060 0.62279 -0.50700
O 	O 	0.40030 0.45890 0.34127 -0.50600
O 	O 	0.36530 0.40260 0.38157 -0.52200
O 	O 	0.57440 0.99420 0.60667 -0.55700
O 	O 	0.64690 0.06390 0.59797 -0.53700
O 	O 	0.39870 0.26290 0.32827 -0.55700
O 	O 	0.35360 0.26390 0.36937 -0.53100
O 	O 	0.34210 0.33380 0.32090 -0.96000
O 	O 	0.21900 0.27700 0.34351 -0.48300
O 	O 	0.27650 0.29540 0.38395 -0.49300
O 	O 	0.75050 0.08230 0.60633 -0.50100
O 	O 	0.77420 0.02640 0.62273 -0.50500
O 	O 	0.25440 0.33100 0.27671 -0.50200
O 	O 	0.31260 0.41200 0.28945 -0.50700
O 	O 	0.05860 0.59970 0.00793 -0.50600
O 	O 	0.03730 0.63470 0.04823 -0.52400
O 	O 	0.41980 0.42560 0.27333 -0.55000
O 	O 	0.41700 0.35310 0.26463 -0.53500
O 	O 	0.86420 0.60130 0.99493 -0.55600
O 	O 	0.91030 0.64640 0.03603 -0.53000
Zn	Zn	0.70753 0.72961 0.35775 1.21800
Zn	Zn	0.59575 0.63000 0.35851 1.21300
Zn	Zn	0.66894 0.65119 0.29859 1.19200
Zn	Zn	0.69440 0.61651 0.36502 1.20700
Zn	Zn	0.27039 0.97792 0.69109 1.21600
Zn	Zn	0.37000 0.96575 0.69185 1.21200
Zn	Zn	0.34881 0.01775 0.63193 1.19300
Zn	Zn	0.38349 0.07789 0.69836 1.20700
Zn	Zn	0.02208 0.29247 0.02442 1.21600
Zn	Zn	0.03425 0.40425 0.02518 1.21200
Zn	Zn	0.98225 0.33106 0.96526 1.19300
Zn	Zn	0.92211 0.30560 0.03169 1.20700
H 	H 	0.74930 0.86950 0.30263 0.02900
H 	H 	0.77440 0.93630 0.26493 0.08500
H 	H 	0.75000 0.83350 0.19363 0.07900
H 	H 	0.72480 0.76660 0.23143 0.01900
H 	H 	0.82260 0.12150 0.13793 0.08500
H 	H 	0.86470 0.19540 0.10513 0.01700
H 	H 	0.94440 0.13380 0.06173 0.01900
H 	H 	0.90230 0.05990 0.09453 0.08700
H 	H 	0.52470 0.71190 0.39813 0.01600
H 	H 	0.49270 0.75110 0.43333 0.08500
H 	H 	0.63880 0.84330 0.46833 0.08500
H 	H 	0.67080 0.80410 0.43323 0.02300
H 	H 	0.40010 0.88390 0.53153 0.08200
H 	H 	0.36560 0.91700 0.56923 0.01500
H 	H 	0.46070 0.91150 0.63723 0.02600
H 	H 	0.49520 0.87840 0.59943 0.08600
H 	H 	0.64950 0.54140 0.45253 0.00800
H 	H 	0.61430 0.48820 0.49763 0.08500
H 	H 	0.47050 0.46360 0.47433 0.08200
H 	H 	0.50570 0.51690 0.42913 0.01500
H 	H 	0.47900 0.30640 0.63213 0.08000
H 	H 	0.44640 0.22830 0.66103 0.01400
H 	H 	0.37090 0.14610 0.58163 0.00800
H 	H 	0.40350 0.22420 0.55273 0.08100
H 	H 	0.13050 0.87980 0.63597 0.02800
H 	H 	0.06370 0.83810 0.59827 0.08500
H 	H 	0.16650 0.91650 0.52697 0.07800
H 	H 	0.23340 0.95820 0.56477 0.01800
H 	H 	0.87850 0.70110 0.47127 0.08500
H 	H 	0.80460 0.66930 0.43847 0.01700
H 	H 	0.86620 0.81060 0.39507 0.01700
H 	H 	0.94010 0.84240 0.42787 0.08500
H 	H 	0.28810 0.81280 0.73147 0.01600
H 	H 	0.24890 0.74160 0.76667 0.08500
H 	H 	0.15670 0.79550 0.80167 0.08500
H 	H 	0.19590 0.86670 0.76657 0.02200
H 	H 	0.11610 0.51620 0.86487 0.08200
H 	H 	0.08300 0.44860 0.90257 0.01500
H 	H 	0.08850 0.54920 0.97057 0.02600
H 	H 	0.12160 0.61680 0.93277 0.08600
H 	H 	0.45860 0.10810 0.78587 0.00600
H 	H 	0.51180 0.12610 0.83097 0.08800
H 	H 	0.53640 0.00690 0.80767 0.08800
H 	H 	0.48310 0.98880 0.76247 0.00500
H 	H 	0.69360 0.17260 0.96547 0.08000
H 	H 	0.77170 0.21810 0.99437 0.01400
H 	H 	0.85390 0.22480 0.91497 0.00800
H 	H 	0.77580 0.17930 0.88607 0.08200
H 	H 	0.12020 0.25070 0.96930 0.02800
H 	H 	0.16190 0.22560 0.93160 0.08800
H 	H 	0.08350 0.25000 0.86030 0.08000
H 	H 	0.04180 0.27520 0.89810 0.01800
H 	H 	0.29890 0.17740 0.80460 0.08400
H 	H 	0.33070 0.13530 0.77180 0.01800
H 	H 	0.18940 0.05560 0.72840 0.01900
H 	H 	0.15760 0.09770 0.76120 0.08400
H 	H 	0.18720 0.47530 0.06480 0.01600
H 	H 	0.25840 0.50730 0.10000 0.08500
H 	H 	0.20450 0.36120 0.13500 0.08500
H 	H 	0.13330 0.32920 0.09990 0.02200
H 	H 	0.48380 0.59990 0.19820 0.08300
H 	H 	0.55140 0.63440 0.23590 0.01600
H 	H 	0.45080 0.53930 0.30390 0.02600
H 	H 	0.38320 0.50480 0.26610 0.08600
H 	H 	0.89190 0.35050 0.11920 0.00600
H 	H 	0.87390 0.38570 0.16430 0.08800
H 	H 	0.99310 0.52950 0.14100 0.08800
H 	H 	0.01120 0.49430 0.09580 0.00500
H 	H 	0.82740 0.52100 0.29880 0.08000
H 	H 	0.78190 0.55360 0.32770 0.01400
H 	H 	0.77520 0.62910 0.24830 0.00700
H 	H 	0.82070 0.59650 0.21940 0.08100
C 	C 	0.71750 0.76880 0.29403 0.39100
C 	C 	0.73470 0.81180 0.27059 -0.14100
C 	C 	0.74940 0.86210 0.28054 0.06600
C 	C 	0.76440 0.90190 0.25813 -0.13700
C 	C 	0.76460 0.89120 0.22570 0.09400
C 	C 	0.74980 0.84070 0.21575 -0.14100
C 	C 	0.73490 0.80110 0.23819 0.06700
C 	C 	0.78370 0.93370 0.20273 -0.04400
C 	C 	0.79870 0.96610 0.18253 -0.00500
C 	C 	0.81760 0.00370 0.15933 0.02000
C 	C 	0.83660 0.04030 0.14133 -0.05500
C 	C 	0.85850 0.08380 0.11933 0.10800
C 	C 	0.84740 0.12410 0.12249 -0.14900
C 	C 	0.87230 0.16790 0.10293 0.08100
C 	C 	0.90850 0.17150 0.08033 -0.15900
C 	C 	0.91970 0.13130 0.07720 0.08200
C 	C 	0.89470 0.08740 0.09673 -0.14800
C 	C 	0.93420 0.21840 0.05913 0.43400
C 	C 	0.62050 0.72780 0.39133 0.42600
C 	C 	0.60080 0.75430 0.41238 -0.16200
C 	C 	0.54790 0.73860 0.41241 0.08100
C 	C 	0.52880 0.76180 0.43323 -0.14500
C 	C 	0.56270 0.80080 0.45409 0.10400
C 	C 	0.61560 0.81660 0.45407 -0.14400
C 	C 	0.63470 0.79340 0.43321 0.07900
C 	C 	0.54090 0.82290 0.47603 -0.04400
C 	C 	0.51970 0.83440 0.49613 0.01100
C 	C 	0.49730 0.85180 0.51723 0.00900
C 	C 	0.47820 0.86550 0.53743 -0.05000
C 	C 	0.45090 0.87810 0.56192 0.09900
C 	C 	0.41240 0.88950 0.55296 -0.14700
C 	C 	0.39190 0.90920 0.57539 0.07100
C 	C 	0.40990 0.91740 0.60679 -0.15500
C 	C 	0.44840 0.90590 0.61575 0.06900
C 	C 	0.46890 0.88630 0.59331 -0.14100
C 	C 	0.39200 0.94310 0.62993 0.40300
C 	C 	0.60260 0.57370 0.41093 0.48200
C 	C 	0.58090 0.53410 0.43653 -0.19200
C 	C 	0.61310 0.52560 0.45693 0.09600
C 	C 	0.59220 0.49400 0.48373 -0.16100
C 	C 	0.53910 0.47090 0.49023 0.10800
C 	C 	0.50680 0.47940 0.46983 -0.16000
C 	C 	0.52770 0.51100 0.44303 0.08800
C 	C 	0.51930 0.43290 0.51553 -0.06300
C 	C 	0.49690 0.39280 0.52993 0.00600
C 	C 	0.48970 0.35070 0.54853 -0.00200
C 	C 	0.46720 0.31940 0.57053 -0.05400
C 	C 	0.44430 0.27260 0.58973 0.10000
C 	C 	0.45710 0.27390 0.62193 -0.15000
C 	C 	0.43770 0.22750 0.63903 0.07800
C 	C 	0.40560 0.17990 0.62403 -0.17300
C 	C 	0.39290 0.17870 0.59193 0.08100
C 	C 	0.41220 0.22500 0.57473 -0.15100
C 	C 	0.38080 0.13150 0.64503 0.45300
C 	C 	0.23120 0.94870 0.62737 0.39100
C 	C 	0.18820 0.92290 0.60393 -0.14200
C 	C 	0.13790 0.88730 0.61388 0.06600
C 	C 	0.09810 0.86250 0.59147 -0.13800
C 	C 	0.10880 0.87340 0.55904 0.09400
C 	C 	0.15930 0.90910 0.54909 -0.14100
C 	C 	0.19890 0.93380 0.57153 0.06700
C 	C 	0.06630 0.85000 0.53607 -0.04400
C 	C 	0.03390 0.83260 0.51587 -0.00500
C 	C 	0.99630 0.81390 0.49267 0.01900
C 	C 	0.95970 0.79630 0.47467 -0.05600
C 	C 	0.91620 0.77470 0.45267 0.10700
C 	C 	0.87590 0.72330 0.45583 -0.15000
C 	C 	0.83210 0.70440 0.43627 0.08100
C 	C 	0.82850 0.73700 0.41367 -0.16100
C 	C 	0.86870 0.78840 0.41054 0.08200
C 	C 	0.91260 0.80730 0.43007 -0.14900
C 	C 	0.78160 0.71580 0.39247 0.43500
C 	C 	0.27220 0.89270 0.72467 0.42600
C 	C 	0.24570 0.84650 0.74572 -0.16200
C 	C 	0.26140 0.80930 0.74575 0.08200
C 	C 	0.23820 0.76700 0.76657 -0.14600
C 	C 	0.19920 0.76190 0.78743 0.10500
C 	C 	0.18340 0.79900 0.78741 -0.14400
C 	C 	0.20660 0.84130 0.76655 0.07900
C 	C 	0.17710 0.71800 0.80937 -0.04400
C 	C 	0.16560 0.68530 0.82947 0.01100
C 	C 	0.14820 0.64550 0.85057 0.00900
C 	C 	0.13450 0.61270 0.87077 -0.05000
C 	C 	0.12190 0.57280 0.89526 0.09900
C 	C 	0.11050 0.52290 0.88630 -0.14700
C 	C 	0.09080 0.48270 0.90873 0.07100
C 	C 	0.08260 0.49250 0.94013 -0.15500
C 	C 	0.09410 0.54250 0.94909 0.06900
C 	C 	0.11370 0.58260 0.92665 -0.14100
C 	C 	0.05690 0.44890 0.96327 0.40300
C 	C 	0.42630 0.02890 0.74427 0.49500
C 	C 	0.46590 0.04680 0.76987 -0.20300
C 	C 	0.47440 0.08750 0.79027 0.10400
C 	C 	0.50600 0.09820 0.81707 -0.16800
C 	C 	0.52910 0.06820 0.82357 0.11500
C 	C 	0.52060 0.02740 0.80317 -0.17100
C 	C 	0.48900 0.01670 0.77637 0.10800
C 	C 	0.56710 0.08640 0.84887 -0.06500
C 	C 	0.60720 0.10410 0.86327 0.00800
C 	C 	0.64930 0.13900 0.88187 -0.00200
C 	C 	0.68060 0.14780 0.90387 -0.05300
C 	C 	0.72740 0.17170 0.92307 0.10000
C 	C 	0.72610 0.18320 0.95527 -0.15000
C 	C 	0.77250 0.21020 0.97237 0.07800
C 	C 	0.82010 0.22570 0.95737 -0.17200
C 	C 	0.82130 0.21420 0.92527 0.08100
C 	C 	0.77500 0.18720 0.90807 -0.15100
C 	C 	0.86850 0.24930 0.97837 0.45300
C 	C 	0.05130 0.28250 0.96070 0.39200
C 	C 	0.07710 0.26530 0.93726 -0.14300
C 	C 	0.11270 0.25060 0.94721 0.06800
C 	C 	0.13750 0.23560 0.92480 -0.14000
C 	C 	0.12660 0.23540 0.89237 0.09900
C 	C 	0.09090 0.25020 0.88242 -0.14400
C 	C 	0.06620 0.26510 0.90486 0.06900
C 	C 	0.15000 0.21630 0.86940 -0.04900
C 	C 	0.16740 0.20130 0.84920 0.00800
C 	C 	0.18610 0.18240 0.82600 0.00800
C 	C 	0.20370 0.16340 0.80800 -0.05000
C 	C 	0.22530 0.14150 0.78600 0.10300
C 	C 	0.27670 0.15260 0.78916 -0.14700
C 	C 	0.29560 0.12770 0.76960 0.07900
C 	C 	0.26300 0.09150 0.74700 -0.15800
C 	C 	0.21160 0.08030 0.74387 0.08000
C 	C 	0.19270 0.10530 0.76340 -0.14600
C 	C 	0.28420 0.06580 0.72580 0.43400
C 	C 	0.10730 0.37950 0.05800 0.42600
C 	C 	0.15350 0.39920 0.07905 -0.16200
C 	C 	0.19070 0.45210 0.07908 0.08200
C 	C 	0.23300 0.47120 0.09990 -0.14600
C 	C 	0.23810 0.43730 0.12076 0.10500
C 	C 	0.20100 0.38440 0.12074 -0.14400
C 	C 	0.15870 0.36530 0.09988 0.07900
C 	C 	0.28200 0.45910 0.14270 -0.04400
C 	C 	0.31470 0.48030 0.16280 0.01200
C 	C 	0.35450 0.50270 0.18390 0.00900
C 	C 	0.38730 0.52180 0.20410 -0.04900
C 	C 	0.42720 0.54910 0.22859 0.09900
C 	C 	0.47710 0.58760 0.21963 -0.14700
C 	C 	0.51730 0.60810 0.24206 0.07100
C 	C 	0.50750 0.59010 0.27346 -0.15400
C 	C 	0.45750 0.55160 0.28242 0.06900
C 	C 	0.41740 0.53110 0.25998 -0.14100
C 	C 	0.55110 0.60800 0.29660 0.40300
C 	C 	0.97110 0.39740 0.07760 0.49500
C 	C 	0.95320 0.41910 0.10320 -0.20300
C 	C 	0.91250 0.38690 0.12360 0.10400
C 	C 	0.90180 0.40780 0.15040 -0.16800
C 	C 	0.93180 0.46090 0.15690 0.11500
C 	C 	0.97260 0.49320 0.13650 -0.17100
C 	C 	0.98330 0.47230 0.10970 0.10700
C 	C 	0.91360 0.48070 0.18220 -0.06500
C 	C 	0.89590 0.50310 0.19660 0.00800
C 	C 	0.86100 0.51030 0.21520 -0.00300
C 	C 	0.85220 0.53280 0.23720 -0.05300
C 	C 	0.82830 0.55570 0.25640 0.10000
C 	C 	0.81680 0.54290 0.28860 -0.15000
C 	C 	0.78980 0.56230 0.30570 0.07800
C 	C 	0.77430 0.59440 0.29070 -0.17300
C 	C 	0.78580 0.60710 0.25860 0.08100
C 	C 	0.81280 0.58780 0.24140 -0.15100
C 	C 	0.75070 0.61920 0.31170 0.45300
O 	O 	0.66620 0.65790 0.34576 -0.96000
O 	O 	0.72300 0.78100 0.32315 -0.48300
O 	O 	0.70460 0.72350 0.28271 -0.49300
O 	O 	0.91770 0.24950 0.06033 -0.50100
O 	O 	0.97360 0.22580 0.04393 -0.50500
O 	O 	0.66900 0.74560 0.38995 -0.50200
O 	O 	0.58800 0.68740 0.37721 -0.50700
O 	O 	0.40030 0.94140 0.65873 -0.50600
O 	O 	0.36530 0.96270 0.61843 -0.52400
O 	O 	0.57440 0.58020 0.39333 -0.55000
O 	O 	0.64690 0.58300 0.40203 -0.53500
O 	O 	0.39870 0.13580 0.67173 -0.55600
O 	O 	0.35360 0.08970 0.63063 -0.53000
O 	O 	0.34210 0.00830 0.67910 -0.95600
O 	O 	0.21900 0.94200 0.65649 -0.48400
O 	O 	0.27650 0.98110 0.61605 -0.49500
O 	O 	0.75050 0.66820 0.39367 -0.50200
O 	O 	0.77420 0.74780 0.37727 -0.50900
O 	O 	0.25440 0.92340 0.72329 -0.50300
O 	O 	0.31260 0.90060 0.71055 -0.50700
O 	O 	0.05860 0.45890 0.99207 -0.50600
O 	O 	0.03730 0.40260 0.95177 -0.52400
O 	O 	0.41980 0.99420 0.72667 -0.55700
O 	O 	0.41700 0.06390 0.73537 -0.53700
O 	O 	0.86420 0.26290 0.00507 -0.55600
O 	O 	0.91030 0.26390 0.96397 -0.53000
O 	O 	0.99170 0.33380 0.01243 -0.95600
O 	O 	0.05800 0.27700 0.98982 -0.48400
O 	O 	0.01890 0.29540 0.94938 -0.49500
O 	O 	0.33180 0.08230 0.72700 -0.50100
O 	O 	0.25220 0.02640 0.71060 -0.50600
O 	O 	0.07660 0.33100 0.05662 -0.50300
O 	O 	0.09940 0.41200 0.04388 -0.50700
O 	O 	0.54110 0.59970 0.32540 -0.50600
O 	O 	0.59740 0.63470 0.28510 -0.52200
O 	O 	0.00580 0.42560 0.06000 -0.55700
O 	O 	0.93610 0.35310 0.06870 -0.53700
O 	O 	0.73710 0.60130 0.33840 -0.55700
O 	O 	0.73610 0.64640 0.29730 -0.53100
Zn	Zn	0.37527 0.31007 0.98149 1.21300
Zn	Zn	0.37062 0.41599 0.98890 1.17900
Zn	Zn	0.26520 0.30169 0.97914 1.21500
Zn	Zn	0.32869 0.33011 0.04285 1.20700
Zn	Zn	0.93480 0.62473 0.64816 1.21400
Zn	Zn	0.04537 0.62938 0.65557 1.17900
Zn	Zn	0.03649 0.73480 0.64581 1.21500
Zn	Zn	0.00142 0.67131 0.70952 1.20600
Zn	Zn	0.68993 0.06520 0.31482 1.21400
Zn	Zn	0.58401 0.95463 0.32223 1.17900
Zn	Zn	0.69831 0.96351 0.31247 1.21500
Zn	Zn	0.66989 0.99858 0.37618 1.20600
H 	H 	0.46000 0.47030 0.90270 0.01500
H 	H 	0.52960 0.51380 0.86680 0.07900
H 	H 	0.59670 0.43330 0.90190 0.07900
H 	H 	0.52710 0.38980 0.93780 0.01800
H 	H 	0.71330 0.54100 0.73050 0.08800
H 	H 	0.78520 0.57010 0.69610 0.02700
H 	H 	0.87990 0.59660 0.77250 0.02300
H 	H 	0.80800 0.56750 0.80690 0.07800
H 	H 	0.18890 0.15640 0.92890 0.02000
H 	H 	0.15970 0.08820 0.89170 0.08500
H 	H 	0.30990 0.13070 0.87100 0.08400
H 	H 	0.33910 0.19880 0.90830 0.02700
H 	H 	0.07420 0.86350 0.80170 0.08300
H 	H 	0.03300 0.79340 0.76610 0.02400
H 	H 	0.13080 0.88300 0.69530 0.02600
H 	H 	0.17200 0.95310 0.73100 0.08600
H 	H 	0.04100 0.59010 0.77600 0.02000
H 	H 	0.07740 0.54700 0.80350 0.07800
H 	H 	0.20450 0.61520 0.74570 0.07500
H 	H 	0.16820 0.65830 0.71820 0.01900
H 	H 	0.16850 0.38370 0.86780 0.08100
H 	H 	0.19580 0.34620 0.90720 0.02600
H 	H 	0.32440 0.48720 0.92360 0.01100
H 	H 	0.29700 0.52480 0.88430 0.08100
H 	H 	0.01030 0.54000 0.56937 0.00500
H 	H 	0.98420 0.47040 0.53347 0.08400
H 	H 	0.83660 0.40330 0.56857 0.08100
H 	H 	0.86270 0.47290 0.60447 0.01500
H 	H 	0.82770 0.28670 0.39717 0.08800
H 	H 	0.78490 0.21480 0.36277 0.02700
H 	H 	0.71670 0.12010 0.43917 0.02300
H 	H 	0.75950 0.19200 0.47357 0.07800
H 	H 	0.96750 0.81110 0.59557 0.02100
H 	H 	0.92850 0.84030 0.55837 0.08400
H 	H 	0.82080 0.69010 0.53767 0.08200
H 	H 	0.85970 0.66090 0.57497 0.02800
H 	H 	0.78930 0.92580 0.46837 0.08400
H 	H 	0.76040 0.96700 0.43277 0.02300
H 	H 	0.75220 0.86920 0.36197 0.02500
H 	H 	0.78110 0.82800 0.39767 0.08800
H 	H 	0.54910 0.95900 0.44267 0.02000
H 	H 	0.46960 0.92260 0.47017 0.07800
H 	H 	0.41070 0.79550 0.41237 0.07500
H 	H 	0.49010 0.83180 0.38487 0.01900
H 	H 	0.21520 0.83150 0.53447 0.08100
H 	H 	0.15040 0.80420 0.57387 0.02600
H 	H 	0.16280 0.67560 0.59027 0.01000
H 	H 	0.22780 0.70300 0.55097 0.08100
H 	H 	0.52970 0.98970 0.23603 0.00500
H 	H 	0.48620 0.01580 0.20013 0.08400
H 	H 	0.56670 0.16340 0.23523 0.08100
H 	H 	0.61020 0.13730 0.27113 0.01500
H 	H 	0.45900 0.17230 0.06383 0.08800
H 	H 	0.42990 0.21510 0.02943 0.02700
H 	H 	0.40340 0.28330 0.10583 0.02200
H 	H 	0.43250 0.24050 0.14023 0.07800
H 	H 	0.84360 0.03250 0.26223 0.02100
H 	H 	0.91180 0.07150 0.22503 0.08600
H 	H 	0.86930 0.17920 0.20433 0.08400
H 	H 	0.80120 0.14030 0.24163 0.02700
H 	H 	0.13650 0.21070 0.13503 0.08300
H 	H 	0.20660 0.23960 0.09943 0.02500
H 	H 	0.11700 0.24780 0.02863 0.02600
H 	H 	0.04690 0.21890 0.06433 0.08600
H 	H 	0.40990 0.45090 0.10933 0.02100
H 	H 	0.45300 0.53040 0.13683 0.07900
H 	H 	0.38480 0.58930 0.07903 0.07500
H 	H 	0.34170 0.50990 0.05153 0.01900
H 	H 	0.61630 0.78480 0.20113 0.08100
H 	H 	0.65380 0.84960 0.24053 0.02600
H 	H 	0.51280 0.83720 0.25693 0.01000
H 	H 	0.47520 0.77220 0.21763 0.08100
C 	C 	0.44180 0.39640 0.94640 0.40600
C 	C 	0.48710 0.42610 0.92360 -0.15100
C 	C 	0.48780 0.46280 0.90260 0.06600
C 	C 	0.52910 0.48860 0.88120 -0.14100
C 	C 	0.56970 0.47760 0.88100 0.09500
C 	C 	0.56890 0.44070 0.90200 -0.14100
C 	C 	0.52760 0.41500 0.92340 0.06700
C 	C 	0.60750 0.49830 0.85540 -0.04800
C 	C 	0.64240 0.51070 0.83710 0.00500
C 	C 	0.67580 0.52470 0.81130 0.01000
C 	C 	0.70990 0.53800 0.79230 -0.05200
C 	C 	0.75390 0.55160 0.77191 0.09800
C 	C 	0.74710 0.55230 0.73901 -0.14200
C 	C 	0.78980 0.56960 0.71861 0.06400
C 	C 	0.83930 0.58610 0.73110 -0.14000
C 	C 	0.84610 0.58540 0.76400 0.06300
C 	C 	0.80340 0.56810 0.78440 -0.14200
C 	C 	0.88570 0.60890 0.70940 0.39200
C 	C 	0.28530 0.22870 0.94440 0.40700
C 	C 	0.26670 0.18400 0.92208 -0.15100
C 	C 	0.21350 0.15120 0.91720 0.07500
C 	C 	0.19610 0.11060 0.89500 -0.14300
C 	C 	0.23210 0.10310 0.87786 0.10400
C 	C 	0.28530 0.13580 0.88280 -0.14200
C 	C 	0.30270 0.17640 0.90490 0.07200
C 	C 	0.21440 0.06070 0.85510 -0.05400
C 	C 	0.19570 0.02710 0.83550 0.02000
C 	C 	0.17490 0.99010 0.81290 -0.00800
C 	C 	0.15600 0.95590 0.79290 -0.04500
C 	C 	0.12700 0.91490 0.76974 0.09700
C 	C 	0.08570 0.86750 0.78014 -0.14400
C 	C 	0.06120 0.82580 0.75895 0.07200
C 	C 	0.07800 0.83160 0.72734 -0.15200
C 	C 	0.11930 0.87900 0.71694 0.07300
C 	C 	0.14380 0.92070 0.73814 -0.14200
C 	C 	0.05170 0.78540 0.70630 0.41500
C 	C 	0.07860 0.65570 0.72570 0.35800
C 	C 	0.10120 0.62830 0.74450 -0.14200
C 	C 	0.07420 0.59520 0.76980 0.05600
C 	C 	0.09580 0.56960 0.78620 -0.13600
C 	C 	0.14440 0.57700 0.77720 0.09000
C 	C 	0.17130 0.61010 0.75190 -0.13700
C 	C 	0.14970 0.63570 0.73545 0.05100
C 	C 	0.16280 0.54870 0.79600 -0.05200
C 	C 	0.18230 0.52780 0.81070 0.00100
C 	C 	0.19960 0.49950 0.82690 0.00200
C 	C 	0.21420 0.48160 0.84790 -0.05200
C 	C 	0.23020 0.45780 0.87240 0.09900
C 	C 	0.20010 0.40470 0.87920 -0.14200
C 	C 	0.21640 0.38240 0.90250 0.07400
C 	C 	0.26270 0.41320 0.91904 -0.15600
C 	C 	0.29270 0.46620 0.91230 0.07900
C 	C 	0.27650 0.48850 0.88890 -0.14700
C 	C 	0.27720 0.38880 0.94520 0.42800
C 	C 	0.95460 0.55820 0.61307 0.41600
C 	C 	0.93900 0.51290 0.59027 -0.16000
C 	C 	0.97500 0.51220 0.56927 0.08500
C 	C 	0.95950 0.47090 0.54787 -0.15100
C 	C 	0.90790 0.43030 0.54767 0.10200
C 	C 	0.87180 0.43110 0.56867 -0.14700
C 	C 	0.88740 0.47240 0.59007 0.07400
C 	C 	0.89080 0.39250 0.52207 -0.05000
C 	C 	0.86830 0.35760 0.50377 0.00700
C 	C 	0.84890 0.32420 0.47797 0.00900
C 	C 	0.82810 0.29010 0.45897 -0.05100
C 	C 	0.79770 0.24610 0.43858 0.09800
C 	C 	0.80520 0.25290 0.40568 -0.14200
C 	C 	0.77980 0.21020 0.38528 0.06400
C 	C 	0.74680 0.16070 0.39777 -0.14000
C 	C 	0.73930 0.15390 0.43067 0.06300
C 	C 	0.76470 0.19660 0.45107 -0.14200
C 	C 	0.72320 0.11430 0.37607 0.39200
C 	C 	0.94340 0.71470 0.61107 0.40600
C 	C 	0.91730 0.73330 0.58875 -0.14800
C 	C 	0.93770 0.78650 0.58387 0.07300
C 	C 	0.91450 0.80390 0.56167 -0.14000
C 	C 	0.87100 0.76790 0.54453 0.09900
C 	C 	0.85050 0.71470 0.54947 -0.13900
C 	C 	0.87370 0.69730 0.57157 0.06900
C 	C 	0.84630 0.78560 0.52177 -0.04800
C 	C 	0.83140 0.80430 0.50217 0.00700
C 	C 	0.81520 0.82510 0.47957 0.00500
C 	C 	0.79990 0.84400 0.45957 -0.05000
C 	C 	0.78790 0.87300 0.43641 0.10200
C 	C 	0.78180 0.91430 0.44681 -0.14700
C 	C 	0.76460 0.93880 0.42562 0.07400
C 	C 	0.75360 0.92200 0.39401 -0.15300
C 	C 	0.75970 0.88070 0.38361 0.07600
C 	C 	0.77690 0.85620 0.40481 -0.14500
C 	C 	0.73370 0.94830 0.37297 0.41600
C 	C 	0.57710 0.92140 0.39237 0.35800
C 	C 	0.52710 0.89880 0.41117 -0.14200
C 	C 	0.52100 0.92580 0.43647 0.05600
C 	C 	0.47380 0.90420 0.45287 -0.13600
C 	C 	0.43260 0.85560 0.44387 0.09000
C 	C 	0.43880 0.82870 0.41857 -0.13700
C 	C 	0.48600 0.85030 0.40212 0.05100
C 	C 	0.38590 0.83720 0.46267 -0.05300
C 	C 	0.34550 0.81770 0.47737 0.00100
C 	C 	0.29990 0.80040 0.49357 0.00200
C 	C 	0.26740 0.78580 0.51457 -0.05200
C 	C 	0.22760 0.76980 0.53907 0.09900
C 	C 	0.20460 0.79990 0.54587 -0.14200
C 	C 	0.16600 0.78360 0.56917 0.07300
C 	C 	0.15050 0.73730 0.58571 -0.15600
C 	C 	0.17350 0.70730 0.57897 0.07900
C 	C 	0.21200 0.72350 0.55557 -0.14700
C 	C 	0.11160 0.72280 0.61187 0.42800
C 	C 	0.60360 0.04540 0.27973 0.41600
C 	C 	0.57390 0.06100 0.25693 -0.16000
C 	C 	0.53720 0.02500 0.23593 0.08500
C 	C 	0.51140 0.04050 0.21453 -0.15100
C 	C 	0.52240 0.09210 0.21433 0.10200
C 	C 	0.55930 0.12820 0.23533 -0.14700
C 	C 	0.58500 0.11260 0.25673 0.07400
C 	C 	0.50170 0.10920 0.18873 -0.05000
C 	C 	0.48930 0.13170 0.17043 0.00700
C 	C 	0.47530 0.15110 0.14463 0.00900
C 	C 	0.46200 0.17190 0.12563 -0.05100
C 	C 	0.44840 0.20230 0.10524 0.09800
C 	C 	0.44770 0.19480 0.07234 -0.14200
C 	C 	0.43040 0.22020 0.05194 0.06500
C 	C 	0.41390 0.25320 0.06443 -0.14000
C 	C 	0.41460 0.26070 0.09733 0.06300
C 	C 	0.43190 0.23530 0.11773 -0.14200
C 	C 	0.39110 0.27680 0.04273 0.39300
C 	C 	0.77130 0.05660 0.27773 0.40700
C 	C 	0.81600 0.08270 0.25541 -0.15000
C 	C 	0.84880 0.06230 0.25053 0.07500
C 	C 	0.88940 0.08550 0.22833 -0.14300
C 	C 	0.89690 0.12900 0.21119 0.10400
C 	C 	0.86420 0.14950 0.21613 -0.14100
C 	C 	0.82360 0.12630 0.23823 0.07100
C 	C 	0.93930 0.15370 0.18843 -0.05400
C 	C 	0.97290 0.16860 0.16883 0.02000
C 	C 	0.00990 0.18480 0.14623 -0.00800
C 	C 	0.04410 0.20010 0.12623 -0.04400
C 	C 	0.08510 0.21210 0.10307 0.09700
C 	C 	0.13250 0.21820 0.11347 -0.14300
C 	C 	0.17420 0.23540 0.09228 0.07100
C 	C 	0.16840 0.24640 0.06067 -0.15100
C 	C 	0.12100 0.24030 0.05027 0.07300
C 	C 	0.07930 0.22310 0.07147 -0.14200
C 	C 	0.21460 0.26630 0.03963 0.41500
C 	C 	0.34430 0.42290 0.05903 0.35800
C 	C 	0.37170 0.47290 0.07783 -0.14100
C 	C 	0.40480 0.47900 0.10313 0.05600
C 	C 	0.43040 0.52620 0.11953 -0.13500
C 	C 	0.42300 0.56740 0.11053 0.09000
C 	C 	0.38990 0.56120 0.08523 -0.13700
C 	C 	0.36430 0.51400 0.06878 0.05100
C 	C 	0.45130 0.61410 0.12933 -0.05200
C 	C 	0.47220 0.65450 0.14403 0.00100
C 	C 	0.50050 0.70010 0.16023 0.00300
C 	C 	0.51840 0.73260 0.18123 -0.05200
C 	C 	0.54220 0.77240 0.20573 0.09900
C 	C 	0.59530 0.79540 0.21253 -0.14300
C 	C 	0.61760 0.83400 0.23583 0.07400
C 	C 	0.58680 0.84950 0.25237 -0.15700
C 	C 	0.53380 0.82650 0.24563 0.07900
C 	C 	0.51150 0.78800 0.22223 -0.14700
C 	C 	0.61120 0.88840 0.27853 0.42800
O 	O 	0.33550 0.33980 0.99686 -0.95900
O 	O 	0.43890 0.35780 0.95974 -0.51900
O 	O 	0.41100 0.41370 0.95040 -0.52500
O 	O 	0.92940 0.63040 0.72386 -0.51000
O 	O 	0.87870 0.60430 0.67968 -0.49900
O 	O 	0.33360 0.25480 0.94966 -0.49600
O 	O 	0.25170 0.23800 0.95668 -0.49700
O 	O 	0.06720 0.79160 0.67748 -0.49400
O 	O 	0.01850 0.74430 0.71867 -0.51100
O 	O 	0.09510 0.67110 0.69910 -0.48700
O 	O 	0.04080 0.65700 0.73970 -0.48900
O 	O 	0.31560 0.41920 0.96190 -0.50300
O 	O 	0.25270 0.34010 0.94619 -0.50100
O 	O 	0.00430 0.66450 0.66353 -0.96200
O 	O 	0.91890 0.56110 0.62641 -0.52100
O 	O 	0.00270 0.58900 0.61707 -0.53200
O 	O 	0.70100 0.07060 0.39053 -0.51000
O 	O 	0.72560 0.12130 0.34635 -0.49900
O 	O 	0.92120 0.66640 0.61633 -0.49500
O 	O 	0.98630 0.74830 0.62335 -0.49400
O 	O 	0.72440 0.93280 0.34415 -0.49400
O 	O 	0.72580 0.98150 0.38534 -0.51100
O 	O 	0.57600 0.90490 0.36577 -0.48700
O 	O 	0.61620 0.95920 0.40637 -0.48900
O 	O 	0.10360 0.68440 0.62857 -0.50400
O 	O 	0.08740 0.74730 0.61286 -0.50200
O 	O 	0.66020 0.99570 0.33019 -0.96200
O 	O 	0.64220 0.08110 0.29307 -0.52100
O 	O 	0.58630 0.99730 0.28373 -0.53200
O 	O 	0.36960 0.29900 0.05719 -0.51200
O 	O 	0.39570 0.27440 0.01301 -0.50000
O 	O 	0.74520 0.07880 0.28299 -0.49500
O 	O 	0.76200 0.01370 0.29001 -0.49400
O 	O 	0.20840 0.27560 0.01081 -0.49300
O 	O 	0.25570 0.27420 0.05200 -0.50900
O 	O 	0.32890 0.42400 0.03243 -0.48700
O 	O 	0.34300 0.38380 0.07303 -0.48800
O 	O 	0.58080 0.89640 0.29523 -0.50400
O 	O 	0.65990 0.91260 0.27952 -0.50200
Zn	Zn	0.93480 0.31007 0.35184 1.21400
Zn	Zn	0.04537 0.41599 0.34443 1.17900
Zn	Zn	0.03649 0.30169 0.35419 1.21500
Zn	Zn	0.00142 0.33011 0.29048 1.20600
Zn	Zn	0.68993 0.62473 0.68518 1.21300
Zn	Zn	0.58401 0.62938 0.67777 1.17900
Zn	Zn	0.69831 0.73480 0.68753 1.21500
Zn	Zn	0.66989 0.67131 0.62382 1.20700
Zn	Zn	0.37527 0.06520 0.01851 1.21400
Zn	Zn	0.37062 0.95463 0.01110 1.17900
Zn	Zn	0.26520 0.96351 0.02086 1.21500
Zn	Zn	0.32869 0.99858 0.95715 1.20600
H 	H 	0.01030 0.47030 0.43063 0.00500
H 	H 	0.98420 0.51380 0.46653 0.08400
H 	H 	0.83660 0.43330 0.43143 0.08100
H 	H 	0.86270 0.38980 0.39553 0.01500
H 	H 	0.82770 0.54100 0.60283 0.08800
H 	H 	0.78490 0.57010 0.63723 0.02700
H 	H 	0.71670 0.59660 0.56083 0.02200
H 	H 	0.75950 0.56750 0.52643 0.07800
H 	H 	0.96750 0.15640 0.40443 0.02100
H 	H 	0.92850 0.08820 0.44163 0.08600
H 	H 	0.82080 0.13070 0.46233 0.08400
H 	H 	0.85970 0.19880 0.42503 0.02700
H 	H 	0.78930 0.86350 0.53163 0.08300
H 	H 	0.76040 0.79340 0.56723 0.02500
H 	H 	0.75220 0.88300 0.63803 0.02600
H 	H 	0.78110 0.95310 0.60233 0.08600
H 	H 	0.54910 0.59010 0.55733 0.02100
H 	H 	0.46960 0.54700 0.52983 0.07900
H 	H 	0.41070 0.61520 0.58763 0.07500
H 	H 	0.49010 0.65830 0.61513 0.01900
H 	H 	0.21520 0.38370 0.46553 0.08100
H 	H 	0.15040 0.34620 0.42613 0.02600
H 	H 	0.16280 0.48720 0.40973 0.01000
H 	H 	0.22780 0.52480 0.44903 0.08100
H 	H 	0.52970 0.54000 0.76397 0.01500
H 	H 	0.48620 0.47040 0.79987 0.07900
H 	H 	0.56670 0.40330 0.76477 0.07900
H 	H 	0.61020 0.47290 0.72887 0.01800
H 	H 	0.45900 0.28670 0.93617 0.08800
H 	H 	0.42990 0.21480 0.97057 0.02700
H 	H 	0.40340 0.12010 0.89417 0.02300
H 	H 	0.43250 0.19200 0.85977 0.07800
H 	H 	0.84360 0.81110 0.73777 0.01900
H 	H 	0.91180 0.84030 0.77497 0.08500
H 	H 	0.86930 0.69010 0.79567 0.08400
H 	H 	0.80120 0.66090 0.75837 0.02700
H 	H 	0.13650 0.92580 0.86497 0.08300
H 	H 	0.20660 0.96700 0.90057 0.02400
H 	H 	0.11700 0.86920 0.97137 0.02600
H 	H 	0.04690 0.82800 0.93567 0.08600
H 	H 	0.40990 0.95900 0.89067 0.02000
H 	H 	0.45300 0.92260 0.86317 0.07800
H 	H 	0.38480 0.79550 0.92097 0.07500
H 	H 	0.34170 0.83180 0.94847 0.01900
H 	H 	0.61630 0.83150 0.79887 0.08100
H 	H 	0.65380 0.80420 0.75947 0.02600
H 	H 	0.51280 0.67560 0.74307 0.01100
H 	H 	0.47520 0.70300 0.78237 0.08100
H 	H 	0.46000 0.98970 0.09730 0.00500
H 	H 	0.52960 0.01580 0.13320 0.08400
H 	H 	0.59670 0.16340 0.09810 0.08100
H 	H 	0.52710 0.13730 0.06220 0.01500
H 	H 	0.71330 0.17230 0.26950 0.08800
H 	H 	0.78520 0.21510 0.30390 0.02700
H 	H 	0.87990 0.28330 0.22750 0.02300
H 	H 	0.80800 0.24050 0.19310 0.07800
H 	H 	0.18890 0.03250 0.07110 0.02100
H 	H 	0.15970 0.07150 0.10830 0.08400
H 	H 	0.30990 0.17920 0.12900 0.08200
H 	H 	0.33910 0.14030 0.09170 0.02800
H 	H 	0.07420 0.21070 0.19830 0.08400
H 	H 	0.03300 0.23960 0.23390 0.02300
H 	H 	0.13080 0.24780 0.30470 0.02500
H 	H 	0.17200 0.21890 0.26900 0.08800
H 	H 	0.04100 0.45090 0.22400 0.02000
H 	H 	0.07740 0.53040 0.19650 0.07800
H 	H 	0.20450 0.58930 0.25430 0.07500
H 	H 	0.16820 0.50990 0.28180 0.01900
H 	H 	0.16850 0.78480 0.13220 0.08100
H 	H 	0.19580 0.84960 0.09280 0.02600
H 	H 	0.32440 0.83720 0.07640 0.01000
H 	H 	0.29700 0.77220 0.11570 0.08100
C 	C 	0.95460 0.39640 0.38693 0.41600
C 	C 	0.93900 0.42610 0.40973 -0.16000
C 	C 	0.97500 0.46280 0.43073 0.08500
C 	C 	0.95950 0.48860 0.45213 -0.15100
C 	C 	0.90790 0.47760 0.45233 0.10200
C 	C 	0.87180 0.44070 0.43133 -0.14700
C 	C 	0.88740 0.41500 0.40993 0.07400
C 	C 	0.89080 0.49830 0.47793 -0.05000
C 	C 	0.86830 0.51070 0.49623 0.00700
C 	C 	0.84890 0.52470 0.52203 0.00900
C 	C 	0.82810 0.53800 0.54103 -0.05100
C 	C 	0.79770 0.55160 0.56142 0.09800
C 	C 	0.80520 0.55230 0.59432 -0.14200
C 	C 	0.77980 0.56960 0.61472 0.06500
C 	C 	0.74680 0.58610 0.60223 -0.14000
C 	C 	0.73930 0.58540 0.56933 0.06300
C 	C 	0.76470 0.56810 0.54893 -0.14200
C 	C 	0.72320 0.60890 0.62393 0.39300
C 	C 	0.94340 0.22870 0.38893 0.40700
C 	C 	0.91730 0.18400 0.41125 -0.15000
C 	C 	0.93770 0.15120 0.41613 0.07500
C 	C 	0.91450 0.11060 0.43833 -0.14300
C 	C 	0.87100 0.10310 0.45547 0.10400
C 	C 	0.85050 0.13580 0.45053 -0.14100
C 	C 	0.87370 0.17640 0.42843 0.07100
C 	C 	0.84630 0.06070 0.47823 -0.05400
C 	C 	0.83140 0.02710 0.49783 0.02000
C 	C 	0.81520 0.99010 0.52043 -0.00800
C 	C 	0.79990 0.95590 0.54043 -0.04400
C 	C 	0.78790 0.91490 0.56359 0.09700
C 	C 	0.78180 0.86750 0.55319 -0.14300
C 	C 	0.76460 0.82580 0.57438 0.07100
C 	C 	0.75360 0.83160 0.60599 -0.15100
C 	C 	0.75970 0.87900 0.61639 0.07300
C 	C 	0.77690 0.92070 0.59519 -0.14200
C 	C 	0.73370 0.78540 0.62703 0.41500
C 	C 	0.57710 0.65570 0.60763 0.35800
C 	C 	0.52710 0.62830 0.58883 -0.14100
C 	C 	0.52100 0.59520 0.56353 0.05600
C 	C 	0.47380 0.56960 0.54713 -0.13500
C 	C 	0.43260 0.57700 0.55613 0.09000
C 	C 	0.43880 0.61010 0.58143 -0.13700
C 	C 	0.48600 0.63570 0.59788 0.05100
C 	C 	0.38590 0.54870 0.53733 -0.05200
C 	C 	0.34550 0.52780 0.52263 0.00100
C 	C 	0.29990 0.49950 0.50643 0.00300
C 	C 	0.26740 0.48160 0.48543 -0.05200
C 	C 	0.22760 0.45780 0.46093 0.09900
C 	C 	0.20460 0.40470 0.45413 -0.14300
C 	C 	0.16600 0.38240 0.43083 0.07400
C 	C 	0.15050 0.41320 0.41429 -0.15700
C 	C 	0.17350 0.46620 0.42103 0.07900
C 	C 	0.21200 0.48850 0.44443 -0.14700
C 	C 	0.11160 0.38880 0.38813 0.42800
C 	C 	0.60360 0.55820 0.72027 0.40600
C 	C 	0.57390 0.51290 0.74307 -0.15100
C 	C 	0.53720 0.51220 0.76407 0.06600
C 	C 	0.51140 0.47090 0.78547 -0.14100
C 	C 	0.52240 0.43030 0.78567 0.09500
C 	C 	0.55930 0.43110 0.76467 -0.14100
C 	C 	0.58500 0.47240 0.74327 0.06700
C 	C 	0.50170 0.39250 0.81127 -0.04800
C 	C 	0.48930 0.35760 0.82957 0.00500
C 	C 	0.47530 0.32420 0.85537 0.01000
C 	C 	0.46200 0.29010 0.87437 -0.05200
C 	C 	0.44840 0.24610 0.89476 0.09800
C 	C 	0.44770 0.25290 0.92766 -0.14200
C 	C 	0.43040 0.21020 0.94806 0.06400
C 	C 	0.41390 0.16070 0.93557 -0.14000
C 	C 	0.41460 0.15390 0.90267 0.06300
C 	C 	0.43190 0.19660 0.88227 -0.14200
C 	C 	0.39110 0.11430 0.95727 0.39200
C 	C 	0.77130 0.71470 0.72227 0.40700
C 	C 	0.81600 0.73330 0.74459 -0.15100
C 	C 	0.84880 0.78650 0.74947 0.07500
C 	C 	0.88940 0.80390 0.77167 -0.14300
C 	C 	0.89690 0.76790 0.78881 0.10400
C 	C 	0.86420 0.71470 0.78387 -0.14200
C 	C 	0.82360 0.69730 0.76177 0.07200
C 	C 	0.93930 0.78560 0.81157 -0.05400
C 	C 	0.97290 0.80430 0.83117 0.02000
C 	C 	0.00990 0.82510 0.85377 -0.00800
C 	C 	0.04410 0.84400 0.87377 -0.04500
C 	C 	0.08510 0.87300 0.89693 0.09700
C 	C 	0.13250 0.91430 0.88653 -0.14400
C 	C 	0.17420 0.93880 0.90772 0.07200
C 	C 	0.16840 0.92200 0.93933 -0.15200
C 	C 	0.12100 0.88070 0.94973 0.07300
C 	C 	0.07930 0.85620 0.92853 -0.14200
C 	C 	0.21460 0.94830 0.96037 0.41500
C 	C 	0.34430 0.92140 0.94097 0.35800
C 	C 	0.37170 0.89880 0.92217 -0.14200
C 	C 	0.40480 0.92580 0.89687 0.05600
C 	C 	0.43040 0.90420 0.88047 -0.13600
C 	C 	0.42300 0.85560 0.88947 0.09000
C 	C 	0.38990 0.82870 0.91477 -0.13700
C 	C 	0.36430 0.85030 0.93122 0.05100
C 	C 	0.45130 0.83720 0.87067 -0.05200
C 	C 	0.47220 0.81770 0.85597 0.00100
C 	C 	0.50050 0.80040 0.83977 0.00200
C 	C 	0.51840 0.78580 0.81877 -0.05200
C 	C 	0.54220 0.76980 0.79427 0.09900
C 	C 	0.59530 0.79990 0.78747 -0.14200
C 	C 	0.61760 0.78360 0.76417 0.07400
C 	C 	0.58680 0.73730 0.74763 -0.15600
C 	C 	0.53380 0.70730 0.75437 0.07900
C 	C 	0.51150 0.72350 0.77777 -0.14700
C 	C 	0.61120 0.72280 0.72147 0.42800
C 	C 	0.44180 0.04540 0.05360 0.41600
C 	C 	0.48710 0.06100 0.07640 -0.16000
C 	C 	0.48780 0.02500 0.09740 0.08400
C 	C 	0.52910 0.04050 0.11880 -0.15100
C 	C 	0.56970 0.09210 0.11900 0.10200
C 	C 	0.56890 0.12820 0.09800 -0.14700
C 	C 	0.52760 0.11260 0.07660 0.07400
C 	C 	0.60750 0.10920 0.14460 -0.05000
C 	C 	0.64240 0.13170 0.16290 0.00700
C 	C 	0.67580 0.15110 0.18870 0.00900
C 	C 	0.70990 0.17190 0.20770 -0.05100
C 	C 	0.75390 0.20230 0.22809 0.09800
C 	C 	0.74710 0.19480 0.26099 -0.14200
C 	C 	0.78980 0.22020 0.28139 0.06400
C 	C 	0.83930 0.25320 0.26890 -0.14000
C 	C 	0.84610 0.26070 0.23600 0.06300
C 	C 	0.80340 0.23530 0.21560 -0.14200
C 	C 	0.88570 0.27680 0.29060 0.39200
C 	C 	0.28530 0.05660 0.05560 0.40600
C 	C 	0.26670 0.08270 0.07792 -0.14800
C 	C 	0.21350 0.06230 0.08280 0.07300
C 	C 	0.19610 0.08550 0.10500 -0.14000
C 	C 	0.23210 0.12900 0.12214 0.09900
C 	C 	0.28530 0.14950 0.11720 -0.13900
C 	C 	0.30270 0.12630 0.09510 0.06900
C 	C 	0.21440 0.15370 0.14490 -0.04800
C 	C 	0.19570 0.16860 0.16450 0.00700
C 	C 	0.17490 0.18480 0.18710 0.00500
C 	C 	0.15600 0.20010 0.20710 -0.05000
C 	C 	0.12700 0.21210 0.23026 0.10200
C 	C 	0.08570 0.21820 0.21986 -0.14700
C 	C 	0.06120 0.23540 0.24105 0.07400
C 	C 	0.07800 0.24640 0.27266 -0.15300
C 	C 	0.11930 0.24030 0.28306 0.07600
C 	C 	0.14380 0.22310 0.26186 -0.14500
C 	C 	0.05170 0.26630 0.29370 0.41600
C 	C 	0.07860 0.42290 0.27430 0.35800
C 	C 	0.10120 0.47290 0.25550 -0.14200
C 	C 	0.07420 0.47900 0.23020 0.05600
C 	C 	0.09580 0.52620 0.21380 -0.13600
C 	C 	0.14440 0.56740 0.22280 0.09000
C 	C 	0.17130 0.56120 0.24810 -0.13700
C 	C 	0.14970 0.51400 0.26455 0.05100
C 	C 	0.16280 0.61410 0.20400 -0.05300
C 	C 	0.18230 0.65450 0.18930 0.00100
C 	C 	0.19960 0.70010 0.17310 0.00200
C 	C 	0.21420 0.73260 0.15210 -0.05200
C 	C 	0.23020 0.77240 0.12760 0.09900
C 	C 	0.20010 0.79540 0.12080 -0.14200
C 	C 	0.21640 0.83400 0.09750 0.07300
C 	C 	0.26270 0.84950 0.08096 -0.15600
C 	C 	0.29270 0.82650 0.08770 0.07900
C 	C 	0.27650 0.78800 0.11110 -0.14700
C 	C 	0.27720 0.88840 0.05480 0.42800
O 	O 	0.00430 0.33980 0.33647 -0.96200
O 	O 	0.91890 0.35780 0.37359 -0.52100
O 	O 	0.00270 0.41370 0.38293 -0.53200
O 	O 	0.70100 0.63040 0.60947 -0.51200
O 	O 	0.72560 0.60430 0.65365 -0.50000
O 	O 	0.92120 0.25480 0.38367 -0.49500
O 	O 	0.98630 0.23800 0.37665 -0.49400
O 	O 	0.72440 0.79160 0.65585 -0.49300
O 	O 	0.72580 0.74430 0.61466 -0.50900
O 	O 	0.57600 0.67110 0.63423 -0.48700
O 	O 	0.61620 0.65700 0.59363 -0.48700
O 	O 	0.10360 0.41920 0.37143 -0.50400
O 	O 	0.08740 0.34010 0.38714 -0.50200
O 	O 	0.66020 0.66450 0.66981 -0.95900
O 	O 	0.64220 0.56110 0.70693 -0.51900
O 	O 	0.58630 0.58900 0.71627 -0.52500
O 	O 	0.36960 0.07060 0.94281 -0.51000
O 	O 	0.39570 0.12130 0.98699 -0.49900
O 	O 	0.74520 0.66640 0.71701 -0.49600
O 	O 	0.76200 0.74830 0.70999 -0.49700
O 	O 	0.20840 0.93280 0.98919 -0.49400
O 	O 	0.25570 0.98150 0.94800 -0.51100
O 	O 	0.32890 0.90490 0.96757 -0.48700
O 	O 	0.34300 0.95920 0.92697 -0.48900
O 	O 	0.58080 0.68440 0.70477 -0.50300
O 	O 	0.65990 0.74730 0.72048 -0.50200
O 	O 	0.33550 0.99570 0.00314 -0.96100
O 	O 	0.43890 0.08110 0.04026 -0.52100
O 	O 	0.41100 0.99730 0.04960 -0.53200
O 	O 	0.92940 0.29900 0.27614 -0.51000
O 	O 	0.87870 0.27440 0.32032 -0.49900
O 	O 	0.33360 0.07880 0.05034 -0.49500
O 	O 	0.25170 0.01370 0.04332 -0.49400
O 	O 	0.06720 0.27560 0.32252 -0.49400
O 	O 	0.01850 0.27420 0.28133 -0.51100
O 	O 	0.09510 0.42400 0.30090 -0.48700
O 	O 	0.04080 0.38380 0.26030 -0.48900
O 	O 	0.31560 0.89640 0.03810 -0.50400
O 	O 	0.25270 0.91260 0.05381 -0.50200
