data_crystal

_cell_length_a 14.34700
_cell_length_b 14.34700
_cell_length_c 20.40800
_cell_angle_alpha 90.00000
_cell_angle_beta  90.00000
_cell_angle_gamma 120.00000

_symmetry_space_group_name_	'P 1'
_symmetry_space_group_name_H-M	'P 1'

loop_
_symmetry_equiv_pos_as_xyz
  x,y,z

loop_
_atom_site_label
_atom_site_type_symbol
_atom_site_fract_x
_atom_site_fract_y
_atom_site_fract_z
_atom_site_charge
Zn	Zn	0.77367 0.27918 0.99420 1.19000
Zn	Zn	0.50551 0.22633 0.99420 1.18900
Zn	Zn	0.72082 0.49449 0.99420 1.19000
Zn	Zn	0.49449 0.72082 0.50580 1.19000
Zn	Zn	0.27918 0.77367 0.50580 1.19100
Zn	Zn	0.22633 0.50551 0.50580 1.19000
Zn	Zn	0.22633 0.72082 0.00580 1.18900
Zn	Zn	0.49449 0.77367 0.00580 1.19000
Zn	Zn	0.27918 0.50551 0.00580 1.19000
Zn	Zn	0.50551 0.27918 0.49420 1.19000
Zn	Zn	0.72082 0.22633 0.49420 1.18900
Zn	Zn	0.77367 0.49449 0.49420 1.19000
Zn	Zn	0.63750 0.00000 0.75000 1.18400
Zn	Zn	0.36250 0.36250 0.75000 1.19300
Zn	Zn	-0.00000 0.63750 0.75000 1.19700
Zn	Zn	0.36250 0.00000 0.25000 1.18600
Zn	Zn	0.63750 0.63750 0.25000 1.19500
Zn	Zn	1.00000 0.36250 0.25000 1.19300
H 	H 	0.60050 0.98280 0.12210 0.25300
H 	H 	0.69310 0.10260 0.11510 0.21700
H 	H 	0.76220 0.99840 0.16230 -0.16300
H 	H 	0.72330 0.92120 0.10160 -0.17500
H 	H 	0.85230 0.06950 0.03590 0.29900
H 	H 	0.90660 0.03360 0.08920 0.28400
H 	H 	0.89670 0.13640 0.10060 0.29200
H 	H 	0.38230 0.39950 0.12210 0.18000
H 	H 	0.40950 0.30690 0.11510 0.16700
H 	H 	0.23620 0.23780 0.16230 -0.10700
H 	H 	0.19790 0.27670 0.10160 -0.11300
H 	H 	0.21720 0.14770 0.03590 0.22600
H 	H 	0.12700 0.09340 0.08920 0.21000
H 	H 	0.23970 0.10330 0.10060 0.21600
H 	H 	0.01720 0.61770 0.12210 0.18000
H 	H 	0.89740 0.59050 0.11510 0.16800
H 	H 	0.00160 0.76380 0.16230 -0.10600
H 	H 	0.07880 0.80210 0.10160 -0.11200
H 	H 	0.93050 0.78280 0.03590 0.24100
H 	H 	0.96640 0.87300 0.08920 0.23300
H 	H 	0.86360 0.76030 0.10060 0.23100
H 	H 	0.61770 0.01720 0.37790 0.10500
H 	H 	0.59050 0.89740 0.38490 0.11900
H 	H 	0.76380 0.00160 0.33770 -0.05000
H 	H 	0.80210 0.07880 0.39840 -0.05400
H 	H 	0.78280 0.93050 0.46410 0.17100
H 	H 	0.87300 0.96640 0.41080 0.16200
H 	H 	0.76030 0.86360 0.39940 0.16100
H 	H 	0.98280 0.60050 0.37790 0.18400
H 	H 	0.10260 0.69310 0.38490 0.17200
H 	H 	0.99840 0.76220 0.33770 -0.11100
H 	H 	0.92120 0.72330 0.39840 -0.12000
H 	H 	0.06950 0.85230 0.46410 0.25000
H 	H 	0.03360 0.90660 0.41080 0.24300
H 	H 	0.13640 0.89670 0.39940 0.24300
H 	H 	0.39950 0.38230 0.37790 0.18100
H 	H 	0.30690 0.40950 0.38490 0.16900
H 	H 	0.23780 0.23620 0.33770 -0.11000
H 	H 	0.27670 0.19790 0.39840 -0.11900
H 	H 	0.14770 0.21720 0.46410 0.23200
H 	H 	0.09340 0.12700 0.41080 0.21600
H 	H 	0.10330 0.23970 0.39940 0.22400
H 	H 	0.39950 0.01720 0.87790 0.09700
H 	H 	0.30690 0.89740 0.88490 0.11400
H 	H 	0.23780 0.00160 0.83770 -0.04500
H 	H 	0.27670 0.07880 0.89840 -0.04800
H 	H 	0.14770 0.93050 0.96410 0.16800
H 	H 	0.09340 0.96640 0.91080 0.15900
H 	H 	0.10330 0.86360 0.89940 0.15700
H 	H 	0.61770 0.60050 0.87790 0.18600
H 	H 	0.59050 0.69310 0.88490 0.17400
H 	H 	0.76380 0.76220 0.83770 -0.11400
H 	H 	0.80210 0.72330 0.89840 -0.12200
H 	H 	0.78280 0.85230 0.96410 0.25400
H 	H 	0.87300 0.90660 0.91080 0.24700
H 	H 	0.76030 0.89670 0.89940 0.24800
H 	H 	0.98280 0.38230 0.87790 0.16700
H 	H 	0.10260 0.40950 0.88490 0.16000
H 	H 	0.99840 0.23620 0.83770 -0.09900
H 	H 	0.92120 0.19790 0.89840 -0.10800
H 	H 	0.06950 0.21720 0.96410 0.21800
H 	H 	0.03360 0.12700 0.91080 0.20200
H 	H 	0.13640 0.23970 0.89940 0.21000
H 	H 	0.38230 0.98280 0.62210 0.26300
H 	H 	0.40950 0.10260 0.61510 0.22200
H 	H 	0.23620 0.99840 0.66230 -0.17000
H 	H 	0.19790 0.92120 0.60160 -0.18200
H 	H 	0.21720 0.06950 0.53590 0.30600
H 	H 	0.12700 0.03360 0.58920 0.29200
H 	H 	0.23970 0.13640 0.60060 0.30000
H 	H 	0.01720 0.39950 0.62210 0.18700
H 	H 	0.89740 0.30690 0.61510 0.17200
H 	H 	0.00160 0.23780 0.66230 -0.11200
H 	H 	0.07880 0.27670 0.60160 -0.11900
H 	H 	0.93050 0.14770 0.53590 0.23000
H 	H 	0.96640 0.09340 0.58920 0.21300
H 	H 	0.86360 0.10330 0.60060 0.22000
H 	H 	0.60050 0.61770 0.62210 0.18300
H 	H 	0.69310 0.59050 0.61510 0.17100
H 	H 	0.76220 0.76380 0.66230 -0.10800
H 	H 	0.72330 0.80210 0.60160 -0.11400
H 	H 	0.85230 0.78280 0.53590 0.24400
H 	H 	0.90660 0.87300 0.58920 0.23600
H 	H 	0.89670 0.76030 0.60060 0.23500
C 	C 	0.52150 0.88250 0.87690 0.27600
C 	C 	0.69740 0.16060 0.86940 0.29900
C 	C 	0.64390 0.02640 0.02710 0.22600
C 	C 	0.58800 0.96630 0.92680 -0.03600
C 	C 	0.65780 0.07970 0.92330 -0.11800
C 	C 	0.66690 0.03000 0.09920 -0.67100
C 	C 	0.75200 0.99500 0.11520 0.58800
C 	C 	0.86230 0.06530 0.08210 -1.01500
C 	C 	0.36100 0.47850 0.87690 0.28500
C 	C 	0.46320 0.30260 0.86940 0.28700
C 	C 	0.38250 0.35610 0.02710 0.20500
C 	C 	0.37830 0.41200 0.92680 -0.07700
C 	C 	0.42190 0.34220 0.92330 -0.07900
C 	C 	0.36310 0.33310 0.09920 -0.48800
C 	C 	0.24300 0.24800 0.11520 0.36200
C 	C 	0.20300 0.13770 0.08210 -0.76200
C 	C 	0.11750 0.63900 0.87690 0.28600
C 	C 	0.83940 0.53680 0.86940 0.29100
C 	C 	0.97360 0.61750 0.02710 0.20600
C 	C 	0.03370 0.62170 0.92680 -0.07000
C 	C 	0.92030 0.57810 0.92330 -0.08100
C 	C 	0.97000 0.63690 0.09920 -0.49000
C 	C 	0.00500 0.75700 0.11520 0.37200
C 	C 	0.93470 0.79700 0.08210 -0.79200
C 	C 	0.63900 0.11750 0.62310 0.29200
C 	C 	0.53680 0.83940 0.63060 0.27900
C 	C 	0.61750 0.97360 0.47290 0.18800
C 	C 	0.62170 0.03370 0.57320 -0.11600
C 	C 	0.57810 0.92030 0.57670 -0.04000
C 	C 	0.63690 0.97000 0.40080 -0.30500
C 	C 	0.75700 0.00500 0.38480 0.14800
C 	C 	0.79700 0.93470 0.41790 -0.54800
C 	C 	0.88250 0.52150 0.62310 0.28600
C 	C 	0.16060 0.69740 0.63060 0.29000
C 	C 	0.02640 0.64390 0.47290 0.21000
C 	C 	0.96630 0.58800 0.57320 -0.08000
C 	C 	0.07970 0.65780 0.57670 -0.07300
C 	C 	0.03000 0.66690 0.40080 -0.50200
C 	C 	0.99500 0.75200 0.38480 0.39300
C 	C 	0.06530 0.86230 0.41790 -0.82100
C 	C 	0.47850 0.36100 0.62310 0.28300
C 	C 	0.30260 0.46320 0.63060 0.28900
C 	C 	0.35610 0.38250 0.47290 0.20500
C 	C 	0.41200 0.37830 0.57320 -0.08000
C 	C 	0.34220 0.42190 0.57670 -0.07800
C 	C 	0.33310 0.36310 0.40080 -0.49300
C 	C 	0.24800 0.24300 0.38480 0.37300
C 	C 	0.13770 0.20300 0.41790 -0.78000
C 	C 	0.47850 0.11750 0.12310 0.29100
C 	C 	0.30260 0.83940 0.13060 0.28100
C 	C 	0.35610 0.97360 0.97290 0.18900
C 	C 	0.41200 0.03370 0.07320 -0.10900
C 	C 	0.34220 0.92030 0.07670 -0.04700
C 	C 	0.33310 0.97000 0.90080 -0.28800
C 	C 	0.24800 0.00500 0.88480 0.12900
C 	C 	0.13770 0.93470 0.91790 -0.53100
C 	C 	0.63900 0.52150 0.12310 0.28500
C 	C 	0.53680 0.69740 0.13060 0.29100
C 	C 	0.61750 0.64390 0.97290 0.21100
C 	C 	0.62170 0.58800 0.07320 -0.07800
C 	C 	0.57810 0.65780 0.07670 -0.07500
C 	C 	0.63690 0.66690 0.90080 -0.50800
C 	C 	0.75700 0.75200 0.88480 0.40100
C 	C 	0.79700 0.86230 0.91790 -0.83200
C 	C 	0.88250 0.36100 0.12310 0.28300
C 	C 	0.16060 0.46320 0.13060 0.28900
C 	C 	0.02640 0.38250 0.97290 0.20100
C 	C 	0.96630 0.37830 0.07320 -0.07900
C 	C 	0.07970 0.42190 0.07670 -0.07800
C 	C 	0.03000 0.36310 0.90080 -0.45900
C 	C 	0.99500 0.24300 0.88480 0.33000
C 	C 	0.06530 0.20300 0.91790 -0.73200
C 	C 	0.36100 0.88250 0.37690 0.27700
C 	C 	0.46320 0.16060 0.36940 0.29800
C 	C 	0.38250 0.02640 0.52710 0.22700
C 	C 	0.37830 0.96630 0.42680 -0.04200
C 	C 	0.42190 0.07970 0.42330 -0.11100
C 	C 	0.36310 0.03000 0.59920 -0.69300
C 	C 	0.24300 0.99500 0.61520 0.61400
C 	C 	0.20300 0.06530 0.58210 -1.04200
C 	C 	0.11750 0.47850 0.37690 0.28400
C 	C 	0.83940 0.30260 0.36940 0.28800
C 	C 	0.97360 0.35610 0.52710 0.20600
C 	C 	0.03370 0.41200 0.42680 -0.07600
C 	C 	0.92030 0.34220 0.42330 -0.08100
C 	C 	0.97000 0.33310 0.59920 -0.50600
C 	C 	0.00500 0.24800 0.61520 0.38300
C 	C 	0.93470 0.13770 0.58210 -0.78200
C 	C 	0.52150 0.63900 0.37690 0.28700
C 	C 	0.69740 0.53680 0.36940 0.29000
C 	C 	0.64390 0.61750 0.52710 0.20800
C 	C 	0.58800 0.62170 0.42680 -0.07500
C 	C 	0.65780 0.57810 0.42330 -0.07600
C 	C 	0.66690 0.63690 0.59920 -0.49900
C 	C 	0.75200 0.75700 0.61520 0.38400
C 	C 	0.86230 0.79700 0.58210 -0.80500
N 	N 	0.68910 0.11520 0.98740 -0.28600
N 	N 	0.58080 0.93520 0.99220 -0.27400
N 	N 	0.42610 0.31090 0.98740 -0.28200
N 	N 	0.35440 0.41920 0.99220 -0.27700
N 	N 	0.88480 0.57390 0.98740 -0.28100
N 	N 	0.06480 0.64560 0.99220 -0.27400
N 	N 	0.57390 0.88480 0.51260 -0.27800
N 	N 	0.64560 0.06480 0.50780 -0.28000
N 	N 	0.11520 0.68910 0.51260 -0.28100
N 	N 	0.93520 0.58080 0.50780 -0.27800
N 	N 	0.31090 0.42610 0.51260 -0.28100
N 	N 	0.41920 0.35440 0.50780 -0.27800
N 	N 	0.31090 0.88480 0.01260 -0.28000
N 	N 	0.41920 0.06480 0.00780 -0.27900
N 	N 	0.57390 0.68910 0.01260 -0.28200
N 	N 	0.64560 0.58080 0.00780 -0.27800
N 	N 	0.11520 0.42610 0.01260 -0.28100
N 	N 	0.93520 0.35440 0.00780 -0.27600
N 	N 	0.42610 0.11520 0.48740 -0.28500
N 	N 	0.35440 0.93520 0.49220 -0.27500
N 	N 	0.88480 0.31090 0.48740 -0.28200
N 	N 	0.06480 0.41920 0.49220 -0.27700
N 	N 	0.68910 0.57390 0.48740 -0.28100
N 	N 	0.58080 0.64560 0.49220 -0.27700
O 	O 	0.45590 0.78750 0.90100 -0.37000
O 	O 	0.52660 0.90280 0.81670 -0.39600
O 	O 	0.76020 0.26060 0.88780 -0.37400
O 	O 	0.67480 0.13440 0.81000 -0.40100
O 	O 	0.33160 0.54410 0.90100 -0.37400
O 	O 	0.37620 0.47340 0.81670 -0.41300
O 	O 	0.50040 0.23980 0.88780 -0.37300
O 	O 	0.45960 0.32520 0.81000 -0.39300
O 	O 	0.21250 0.66840 0.90100 -0.37100
O 	O 	0.09720 0.62380 0.81670 -0.40900
O 	O 	0.73940 0.49960 0.88780 -0.37100
O 	O 	0.86560 0.54040 0.81000 -0.39100
O 	O 	0.66840 0.21250 0.59900 -0.37800
O 	O 	0.62380 0.09720 0.68330 -0.42500
O 	O 	0.49960 0.73940 0.61220 -0.36800
O 	O 	0.54040 0.86560 0.69000 -0.37800
O 	O 	0.78750 0.45590 0.59900 -0.37500
O 	O 	0.90280 0.52660 0.68330 -0.41400
O 	O 	0.26060 0.76020 0.61220 -0.36800
O 	O 	0.13440 0.67480 0.69000 -0.38800
O 	O 	0.54410 0.33160 0.59900 -0.37700
O 	O 	0.47340 0.37620 0.68330 -0.41500
O 	O 	0.23980 0.50040 0.61220 -0.37000
O 	O 	0.32520 0.45960 0.69000 -0.39100
O 	O 	0.54410 0.21250 0.09900 -0.37700
O 	O 	0.47340 0.09720 0.18330 -0.42300
O 	O 	0.23980 0.73940 0.11220 -0.36800
O 	O 	0.32520 0.86560 0.19000 -0.38000
O 	O 	0.66840 0.45590 0.09900 -0.37400
O 	O 	0.62380 0.52660 0.18330 -0.41300
O 	O 	0.49960 0.76020 0.11220 -0.36900
O 	O 	0.54040 0.67480 0.19000 -0.38900
O 	O 	0.78750 0.33160 0.09900 -0.37600
O 	O 	0.90280 0.37620 0.18330 -0.41400
O 	O 	0.26060 0.50040 0.11220 -0.37100
O 	O 	0.13440 0.45960 0.19000 -0.39100
O 	O 	0.33160 0.78750 0.40100 -0.37200
O 	O 	0.37620 0.90280 0.31670 -0.39900
O 	O 	0.50040 0.26060 0.38780 -0.37300
O 	O 	0.45960 0.13440 0.31000 -0.39900
O 	O 	0.21250 0.54410 0.40100 -0.37500
O 	O 	0.09720 0.47340 0.31670 -0.41300
O 	O 	0.73940 0.23980 0.38780 -0.37300
O 	O 	0.86560 0.32520 0.31000 -0.39300
O 	O 	0.45590 0.66840 0.40100 -0.37300
O 	O 	0.52660 0.62380 0.31670 -0.41100
O 	O 	0.76020 0.49960 0.38780 -0.37000
O 	O 	0.67480 0.54040 0.31000 -0.39000
O 	O 	0.66667 0.33334 0.97910 -0.64600
O 	O 	0.33333 0.66666 0.52090 -0.64600
O 	O 	0.33333 0.66666 0.02090 -0.64600
O 	O 	0.66667 0.33334 0.47910 -0.64600
