data_crystal

_cell_length_a 26.07670
_cell_length_b 26.07670
_cell_length_c 8.94670
_cell_angle_alpha 90.00000
_cell_angle_beta  90.00000
_cell_angle_gamma 90.00000

_symmetry_space_group_name_	'P 1'
_symmetry_space_group_name_H-M	'P 1'

loop_
_symmetry_equiv_pos_as_xyz
  x,y,z

loop_
_atom_site_label
_atom_site_type_symbol
_atom_site_fract_x
_atom_site_fract_y
_atom_site_fract_z
_atom_site_charge
In	In	0.27433 0.14260 0.68362 1.96800
O 	O 	0.20388 0.10474 0.73860 -0.46100
O 	O 	0.14221 0.05547 0.64630 -0.42500
O 	O 	0.24115 0.11843 0.46100 -0.42600
O 	O 	0.18260 0.06349 0.37340 -0.43700
O 	O 	0.27566 0.20258 0.86390 -0.44400
O 	O 	0.26735 0.28655 0.90380 -0.44400
C 	C 	0.18122 0.08208 0.63230 0.22800
C 	C 	0.20363 0.08871 0.47390 0.23100
C 	C 	0.26249 0.24698 0.82660 0.20700
In	In	0.77433 0.64260 0.18362 1.96900
O 	O 	0.70388 0.60474 0.23860 -0.46000
O 	O 	0.64221 0.55547 0.14630 -0.42500
O 	O 	0.74115 0.61843 0.96100 -0.42600
O 	O 	0.68260 0.56349 0.87340 -0.43600
O 	O 	0.77566 0.70258 0.36390 -0.44400
O 	O 	0.76735 0.78655 0.40380 -0.44500
C 	C 	0.68122 0.58208 0.13230 0.22800
C 	C 	0.70363 0.58871 0.97390 0.23000
C 	C 	0.76249 0.74698 0.32660 0.20700
In	In	0.22567 0.85740 0.18362 1.96900
O 	O 	0.29612 0.89526 0.23860 -0.46000
O 	O 	0.35779 0.94453 0.14630 -0.42500
O 	O 	0.25885 0.88157 0.96100 -0.42600
O 	O 	0.31740 0.93651 0.87340 -0.43700
O 	O 	0.22434 0.79742 0.36390 -0.44400
O 	O 	0.23265 0.71345 0.40380 -0.44400
C 	C 	0.31878 0.91792 0.13230 0.23000
C 	C 	0.29637 0.91129 0.97390 0.22900
C 	C 	0.23751 0.75302 0.32660 0.20700
In	In	0.72567 0.35740 0.68362 1.96900
O 	O 	0.79612 0.39526 0.73860 -0.46000
O 	O 	0.85779 0.44453 0.64630 -0.42500
O 	O 	0.75885 0.38157 0.46100 -0.42600
O 	O 	0.81740 0.43651 0.37340 -0.43700
O 	O 	0.72434 0.29742 0.86390 -0.44400
O 	O 	0.73265 0.21345 0.90380 -0.44400
C 	C 	0.81878 0.41792 0.63230 0.22800
C 	C 	0.79637 0.41129 0.47390 0.23100
C 	C 	0.73751 0.25302 0.82660 0.20700
In	In	0.60740 0.52433 0.93362 1.96900
O 	O 	0.64526 0.45388 0.98860 -0.45900
O 	O 	0.69453 0.39221 0.89630 -0.42500
O 	O 	0.63157 0.49115 0.71100 -0.42600
O 	O 	0.68651 0.43260 0.62340 -0.43600
O 	O 	0.54742 0.52566 0.11390 -0.44400
O 	O 	0.46345 0.51735 0.15380 -0.44400
C 	C 	0.66792 0.43122 0.88230 0.22800
C 	C 	0.66129 0.45363 0.72390 0.23100
C 	C 	0.50302 0.51249 0.07660 0.20700
In	In	0.10740 0.02433 0.43362 1.96900
O 	O 	0.14526 0.95388 0.48860 -0.45900
O 	O 	0.19453 0.89221 0.39630 -0.42500
O 	O 	0.13157 0.99115 0.21100 -0.42400
O 	O 	0.18651 0.93260 0.12340 -0.43600
O 	O 	0.04742 0.02566 0.61390 -0.44400
O 	O 	0.96345 0.01735 0.65380 -0.44200
C 	C 	0.16792 0.93122 0.38230 0.22800
C 	C 	0.16129 0.95363 0.22390 0.23100
C 	C 	0.00302 0.01249 0.57660 0.20500
In	In	0.89260 0.47567 0.43362 1.96900
O 	O 	0.85474 0.54612 0.48860 -0.46000
O 	O 	0.80547 0.60779 0.39630 -0.42500
O 	O 	0.86843 0.50885 0.21100 -0.42600
O 	O 	0.81349 0.56740 0.12340 -0.43600
O 	O 	0.95258 0.47434 0.61390 -0.44400
O 	O 	0.03655 0.48265 0.65380 -0.44400
C 	C 	0.83208 0.56878 0.38230 0.22800
C 	C 	0.83871 0.54637 0.22390 0.23100
C 	C 	0.99698 0.48751 0.57660 0.20700
In	In	0.39260 0.97567 0.93362 1.96900
O 	O 	0.35474 0.04612 0.98860 -0.45900
O 	O 	0.30547 0.10779 0.89630 -0.42500
O 	O 	0.36843 0.00885 0.71100 -0.42500
O 	O 	0.31349 0.06740 0.62340 -0.43700
O 	O 	0.45258 0.97434 0.11390 -0.44400
O 	O 	0.53655 0.98265 0.15380 -0.44400
C 	C 	0.33208 0.06878 0.88230 0.22800
C 	C 	0.33871 0.04637 0.72390 0.23100
C 	C 	0.49698 0.98751 0.07660 0.20800
In	In	0.72567 0.85740 0.31638 1.96900
O 	O 	0.79612 0.89526 0.26140 -0.46000
O 	O 	0.85779 0.94453 0.35370 -0.42500
O 	O 	0.75885 0.88157 0.53900 -0.42600
O 	O 	0.81740 0.93651 0.62660 -0.43700
O 	O 	0.72434 0.79742 0.13610 -0.44400
O 	O 	0.73265 0.71345 0.09620 -0.44400
C 	C 	0.81878 0.91792 0.36770 0.22800
C 	C 	0.79637 0.91129 0.52610 0.23100
C 	C 	0.73751 0.75302 0.17340 0.20700
In	In	0.22567 0.35740 0.81638 1.96900
O 	O 	0.29612 0.39526 0.76140 -0.46000
O 	O 	0.35779 0.44453 0.85370 -0.42500
O 	O 	0.25885 0.38157 0.03900 -0.42600
O 	O 	0.31740 0.43651 0.12660 -0.43600
O 	O 	0.22434 0.29742 0.63610 -0.44400
O 	O 	0.23265 0.21345 0.59620 -0.44500
C 	C 	0.31878 0.41792 0.86770 0.22800
C 	C 	0.29637 0.41129 0.02610 0.23000
C 	C 	0.23751 0.25302 0.67340 0.20700
In	In	0.77433 0.14260 0.81638 1.96900
O 	O 	0.70388 0.10474 0.76140 -0.46000
O 	O 	0.64221 0.05547 0.85370 -0.42500
O 	O 	0.74115 0.11843 0.03900 -0.42600
O 	O 	0.68260 0.06349 0.12660 -0.43700
O 	O 	0.77566 0.20258 0.63610 -0.44400
O 	O 	0.76735 0.28655 0.59620 -0.44400
C 	C 	0.68122 0.08208 0.86770 0.23000
C 	C 	0.70363 0.08871 0.02610 0.22900
C 	C 	0.76249 0.24698 0.67340 0.20700
In	In	0.27433 0.64260 0.31638 1.96900
O 	O 	0.20388 0.60474 0.26140 -0.46000
O 	O 	0.14221 0.55547 0.35370 -0.42500
O 	O 	0.24115 0.61843 0.53900 -0.42600
O 	O 	0.18260 0.56349 0.62660 -0.43700
O 	O 	0.27566 0.70258 0.13610 -0.44400
O 	O 	0.26735 0.78655 0.09620 -0.44400
C 	C 	0.18122 0.58208 0.36770 0.22800
C 	C 	0.20363 0.58871 0.52610 0.23100
C 	C 	0.26249 0.74698 0.17340 0.20700
In	In	0.39260 0.47567 0.06638 1.96900
O 	O 	0.35474 0.54612 0.01140 -0.45900
O 	O 	0.30547 0.60779 0.10370 -0.42500
O 	O 	0.36843 0.50885 0.28900 -0.42600
O 	O 	0.31349 0.56740 0.37660 -0.43600
O 	O 	0.45258 0.47434 0.88610 -0.44400
O 	O 	0.53655 0.48265 0.84620 -0.44400
C 	C 	0.33208 0.56878 0.11770 0.22800
C 	C 	0.33871 0.54637 0.27610 0.23100
C 	C 	0.49698 0.48751 0.92340 0.20700
In	In	0.89260 0.97567 0.56638 1.96900
O 	O 	0.85474 0.04612 0.51140 -0.45900
O 	O 	0.80547 0.10779 0.60370 -0.42500
O 	O 	0.86843 0.00885 0.78900 -0.42400
O 	O 	0.81349 0.06740 0.87660 -0.43600
O 	O 	0.95258 0.97434 0.38610 -0.44400
O 	O 	0.03655 0.98265 0.34620 -0.44200
C 	C 	0.83208 0.06878 0.61770 0.22800
C 	C 	0.83871 0.04637 0.77610 0.23100
C 	C 	0.99698 0.98751 0.42340 0.20500
In	In	0.10740 0.52433 0.56638 1.96900
O 	O 	0.14526 0.45388 0.51140 -0.46000
O 	O 	0.19453 0.39221 0.60370 -0.42500
O 	O 	0.13157 0.49115 0.78900 -0.42600
O 	O 	0.18651 0.43260 0.87660 -0.43600
O 	O 	0.04742 0.52566 0.38610 -0.44400
O 	O 	0.96345 0.51735 0.34620 -0.44400
C 	C 	0.16792 0.43122 0.61770 0.22800
C 	C 	0.16129 0.45363 0.77610 0.23100
C 	C 	0.00302 0.51249 0.42340 0.20700
In	In	0.60740 0.02433 0.06638 1.96900
O 	O 	0.64526 0.95388 0.01140 -0.45900
O 	O 	0.69453 0.89221 0.10370 -0.42500
O 	O 	0.63157 0.99115 0.28900 -0.42500
O 	O 	0.68651 0.93260 0.37660 -0.43700
O 	O 	0.54742 0.02566 0.88610 -0.44400
O 	O 	0.46345 0.01735 0.84620 -0.44400
C 	C 	0.66792 0.93122 0.11770 0.22800
C 	C 	0.66129 0.95363 0.27610 0.23100
C 	C 	0.50302 0.01249 0.92340 0.20800
