data_crystal

_cell_length_a 10.51520
_cell_length_b 11.10580
_cell_length_c 12.73960
_cell_angle_alpha 103.89100
_cell_angle_beta  109.70900
_cell_angle_gamma 96.68400

_symmetry_space_group_name_	'P 1'
_symmetry_space_group_name_H-M	'P 1'

loop_
_symmetry_equiv_pos_as_xyz
  x,y,z

loop_
_atom_site_label
_atom_site_type_symbol
_atom_site_fract_x
_atom_site_fract_y
_atom_site_fract_z
_atom_site_charge
Sm	Sm	0.89793 0.45223 0.31845 1.89600
Sm	Sm	0.10207 0.54777 0.68155 1.89600
H 	H 	0.05970 0.87640 0.70500 0.28400
H 	H 	0.74750 0.60610 0.74320 0.28500
H 	H 	0.81540 0.08090 0.04570 0.28500
H 	H 	0.99580 0.85140 0.33740 0.07900
H 	H 	0.59160 0.44000 0.35930 0.06500
H 	H 	0.44010 0.16280 0.11330 0.11200
H 	H 	0.94030 0.12360 0.29500 0.28300
H 	H 	0.25250 0.39390 0.25680 0.28400
H 	H 	0.18460 0.91910 0.95430 0.28500
H 	H 	0.00420 0.14860 0.66260 0.07900
H 	H 	0.40840 0.56000 0.64070 0.06500
H 	H 	0.55990 0.83720 0.88670 0.11200
C 	C 	0.02420 0.97070 0.60540 0.24700
C 	C 	0.02180 0.87970 0.50650 -0.18000
C 	C 	0.99750 0.91170 0.40290 -0.09500
C 	C 	0.03970 0.74810 0.50770 0.47800
C 	C 	0.58660 0.55150 0.61760 0.24300
C 	C 	0.64320 0.51560 0.53230 -0.19100
C 	C 	0.55460 0.46430 0.41600 -0.07900
C 	C 	0.79420 0.53220 0.56440 0.46700
C 	C 	0.63600 0.01120 0.00480 0.24000
C 	C 	0.60000 0.10900 0.07340 -0.12800
C 	C 	0.46390 0.09730 0.06790 -0.11000
C 	C 	0.70430 0.22780 0.15220 0.34200
C 	C 	0.97580 0.02930 0.39460 0.24700
C 	C 	0.97820 0.12030 0.49350 -0.18000
C 	C 	0.00250 0.08830 0.59710 -0.09500
C 	C 	0.96030 0.25190 0.49230 0.47800
C 	C 	0.41340 0.44850 0.38240 0.24300
C 	C 	0.35680 0.48440 0.46770 -0.19100
C 	C 	0.44540 0.53570 0.58400 -0.07900
C 	C 	0.20580 0.46780 0.43560 0.46700
C 	C 	0.36400 0.98880 0.99520 0.24000
C 	C 	0.40000 0.89100 0.92660 -0.12800
C 	C 	0.53610 0.90270 0.93210 -0.11000
C 	C 	0.29570 0.77220 0.84780 0.34200
O 	O 	0.01710 0.66790 0.41220 -0.52800
O 	O 	0.07410 0.72670 0.60550 -0.49000
O 	O 	0.04780 0.94890 0.71000 -0.42900
O 	O 	0.84350 0.50740 0.48720 -0.56600
O 	O 	0.87230 0.57150 0.67190 -0.49800
O 	O 	0.66570 0.60260 0.73310 -0.43800
O 	O 	0.82410 0.24430 0.15060 -0.42600
O 	O 	0.66950 0.31020 0.21740 -0.44300
O 	O 	0.76380 0.01270 0.00290 -0.42100
O 	O 	0.98290 0.33210 0.58780 -0.52800
O 	O 	0.92590 0.27330 0.39450 -0.49000
O 	O 	0.95220 0.05110 0.29000 -0.42900
O 	O 	0.15650 0.49260 0.51280 -0.56600
O 	O 	0.12770 0.42850 0.32810 -0.49800
O 	O 	0.33430 0.39740 0.26690 -0.43800
O 	O 	0.17590 0.75570 0.84940 -0.42600
O 	O 	0.33050 0.68980 0.78260 -0.44300
O 	O 	0.23620 0.98730 0.99710 -0.42100
