data_crystal

_cell_length_a 10.52300
_cell_length_b 11.18400
_cell_length_c 12.70000
_cell_angle_alpha 102.98000
_cell_angle_beta  109.32900
_cell_angle_gamma 97.76600

_symmetry_space_group_name_	'P 1'
_symmetry_space_group_name_H-M	'P 1'

loop_
_symmetry_equiv_pos_as_xyz
  x,y,z

loop_
_atom_site_label
_atom_site_type_symbol
_atom_site_fract_x
_atom_site_fract_y
_atom_site_fract_z
_atom_site_charge
Nd	Nd	0.10233 0.54633 0.68132 2.02700
O 	O 	0.98300 0.32780 0.58820 -0.54700
O 	O 	0.92300 0.27130 0.39490 -0.50400
O 	O 	0.94720 0.05200 0.28910 -0.42400
H 	H 	0.93550 0.12370 0.29380 0.28100
O 	O 	0.15320 0.49320 0.50740 -0.59400
O 	O 	0.12970 0.43000 0.32430 -0.50600
O 	O 	0.33820 0.39840 0.26700 -0.43700
H 	H 	0.25630 0.39450 0.25600 0.28800
O 	O 	0.17850 0.75200 0.84920 -0.44600
O 	O 	0.33550 0.69180 0.78370 -0.47500
O 	O 	0.23420 0.98460 0.99160 -0.37000
H 	H 	0.18190 0.91690 0.94950 0.27100
O 	O 	0.40160 0.18190 0.11200 -0.37100
H 	H 	0.46000 0.23040 0.17250 0.27200
C 	C 	0.97270 0.03000 0.39450 0.24200
C 	C 	0.97800 0.11890 0.49400 -0.18200
C 	C 	0.00400 0.08700 0.59690 -0.08800
H 	H 	0.00590 0.14590 0.66230 0.07600
C 	C 	0.95990 0.24980 0.49320 0.48400
C 	C 	0.41550 0.44910 0.38260 0.23800
C 	C 	0.35720 0.48440 0.46590 -0.19400
C 	C 	0.44280 0.53590 0.58190 -0.07300
H 	H 	0.40420 0.56080 0.63710 0.05100
C 	C 	0.20570 0.46860 0.43200 0.46400
C 	C 	0.36200 0.98540 0.99090 0.17800
C 	C 	0.40260 0.89010 0.92640 -0.21400
C 	C 	0.53990 0.90450 0.93560 0.17500
C 	C 	0.29910 0.77090 0.84810 0.37600
Nd	Nd	0.89767 0.45367 0.31868 2.02800
O 	O 	0.01700 0.67220 0.41180 -0.54600
O 	O 	0.07700 0.72870 0.60510 -0.50300
O 	O 	0.05280 0.94800 0.71090 -0.42300
H 	H 	0.06450 0.87630 0.70620 0.28100
O 	O 	0.84680 0.50680 0.49260 -0.59400
O 	O 	0.87030 0.57000 0.67570 -0.50600
O 	O 	0.66180 0.60160 0.73300 -0.43700
H 	H 	0.74370 0.60550 0.74400 0.28800
O 	O 	0.82150 0.24800 0.15080 -0.44600
O 	O 	0.66450 0.30820 0.21630 -0.47500
O 	O 	0.76580 0.01540 0.00840 -0.37000
H 	H 	0.81810 0.08310 0.05050 0.27100
O 	O 	0.59840 0.81810 0.88800 -0.37100
H 	H 	0.54000 0.76960 0.82750 0.27200
C 	C 	0.02730 0.97000 0.60550 0.24200
C 	C 	0.02200 0.88110 0.50600 -0.18200
C 	C 	0.99600 0.91300 0.40310 -0.08800
H 	H 	0.99410 0.85410 0.33770 0.07600
C 	C 	0.04010 0.75020 0.50680 0.48400
C 	C 	0.58450 0.55090 0.61740 0.23800
C 	C 	0.64280 0.51560 0.53410 -0.19400
C 	C 	0.55720 0.46410 0.41810 -0.07300
H 	H 	0.59580 0.43920 0.36290 0.05100
C 	C 	0.79430 0.53140 0.56800 0.46400
C 	C 	0.63800 0.01460 0.00910 0.17800
C 	C 	0.59740 0.10990 0.07360 -0.21400
C 	C 	0.46010 0.09550 0.06440 0.17500
C 	C 	0.70090 0.22910 0.15190 0.37600
