data_crystal

_cell_length_a 10.53400
_cell_length_b 11.30000
_cell_length_c 12.66100
_cell_angle_alpha 101.90100
_cell_angle_beta  108.73000
_cell_angle_gamma 99.04400

_symmetry_space_group_name_	'P 1'
_symmetry_space_group_name_H-M	'P 1'

loop_
_symmetry_equiv_pos_as_xyz
  x,y,z

loop_
_atom_site_label
_atom_site_type_symbol
_atom_site_fract_x
_atom_site_fract_y
_atom_site_fract_z
_atom_site_charge
La	La	0.89680 0.45560 0.31768 1.60300
La	La	0.10320 0.54440 0.68232 1.60300
H 	H 	0.07390 0.87750 0.70660 0.28000
H 	H 	0.73810 0.60580 0.74480 0.28600
H 	H 	0.81410 0.08670 0.05730 0.28600
H 	H 	0.98580 0.85650 0.33670 0.08800
H 	H 	0.59970 0.43770 0.36770 0.06900
H 	H 	0.92610 0.12250 0.29340 0.27900
H 	H 	0.26190 0.39420 0.25520 0.28500
H 	H 	0.18590 0.91330 0.94270 0.28500
H 	H 	0.01420 0.14350 0.66330 0.08700
H 	H 	0.40030 0.56230 0.63230 0.06900
C 	C 	0.03190 0.97010 0.60630 0.24400
C 	C 	0.02290 0.88270 0.50580 -0.15400
C 	C 	0.99150 0.91470 0.40280 -0.09800
C 	C 	0.04140 0.75370 0.50710 0.40900
C 	C 	0.58200 0.55110 0.61770 0.24700
C 	C 	0.64330 0.51440 0.53710 -0.17300
C 	C 	0.55930 0.46320 0.42110 -0.08700
C 	C 	0.79380 0.53110 0.57300 0.39800
C 	C 	0.63750 0.01800 0.01250 0.22800
C 	C 	0.59300 0.11060 0.07320 -0.16900
C 	C 	0.45410 0.09220 0.05930 0.02500
C 	C 	0.69550 0.22890 0.14970 0.34900
C 	C 	0.96810 0.02990 0.39370 0.24400
C 	C 	0.97710 0.11730 0.49420 -0.15400
C 	C 	0.00850 0.08530 0.59720 -0.09800
C 	C 	0.95860 0.24630 0.49290 0.40900
C 	C 	0.41800 0.44890 0.38230 0.24700
C 	C 	0.35670 0.48560 0.46290 -0.17300
C 	C 	0.44070 0.53680 0.57890 -0.08700
C 	C 	0.20620 0.46890 0.42700 0.39800
C 	C 	0.36250 0.98200 0.98750 0.22800
C 	C 	0.40700 0.88940 0.92680 -0.16900
C 	C 	0.54590 0.90780 0.94070 0.02500
C 	C 	0.30450 0.77110 0.85030 0.34900
O 	O 	0.01600 0.67720 0.41250 -0.45100
O 	O 	0.08130 0.73120 0.60500 -0.42000
O 	O 	0.06240 0.94830 0.71150 -0.42200
O 	O 	0.84930 0.50650 0.49890 -0.48600
O 	O 	0.86700 0.56870 0.67970 -0.42600
O 	O 	0.65590 0.60120 0.73240 -0.42900
O 	O 	0.81440 0.25150 0.14890 -0.40200
O 	O 	0.65550 0.30590 0.21350 -0.37600
O 	O 	0.76230 0.01960 0.01550 -0.41700
O 	O 	0.98400 0.32280 0.58750 -0.45100
O 	O 	0.91870 0.26880 0.39500 -0.42000
O 	O 	0.93760 0.05170 0.28850 -0.42200
O 	O 	0.15070 0.49350 0.50110 -0.48600
O 	O 	0.13300 0.43130 0.32030 -0.42600
O 	O 	0.34410 0.39880 0.26760 -0.42900
O 	O 	0.18560 0.74850 0.85110 -0.40200
O 	O 	0.34450 0.69410 0.78650 -0.37600
O 	O 	0.23770 0.98040 0.98450 -0.41700
