data_crystal

_cell_length_a 10.52260
_cell_length_b 11.05450
_cell_length_c 12.77110
_cell_angle_alpha 103.82600
_cell_angle_beta  110.02400
_cell_angle_gamma 96.60200

_symmetry_space_group_name_	'P 1'
_symmetry_space_group_name_H-M	'P 1'

loop_
_symmetry_equiv_pos_as_xyz
  x,y,z

loop_
_atom_site_label
_atom_site_type_symbol
_atom_site_fract_x
_atom_site_fract_y
_atom_site_fract_z
_atom_site_charge
Gd	Gd	0.89696 0.45217 0.31832 1.49300
Gd	Gd	0.10304 0.54783 0.68168 1.49300
H 	H 	0.05690 0.87430 0.70320 0.28700
H 	H 	0.75170 0.60460 0.74220 0.28600
H 	H 	0.81600 0.08350 0.04670 0.28700
H 	H 	0.99820 0.85130 0.33930 0.09100
H 	H 	0.58820 0.44070 0.35760 0.08100
H 	H 	0.44100 0.16280 0.11380 0.11400
H 	H 	0.94310 0.12570 0.29680 0.28600
H 	H 	0.24830 0.39540 0.25780 0.28500
H 	H 	0.18400 0.91650 0.95330 0.28600
H 	H 	0.00180 0.14870 0.66070 0.09000
H 	H 	0.41180 0.55930 0.64240 0.08100
H 	H 	0.55900 0.83720 0.88620 0.11400
C 	C 	0.02350 0.97010 0.60520 0.25000
C 	C 	0.02180 0.87880 0.50660 -0.16300
C 	C 	0.99870 0.91160 0.40420 -0.09800
C 	C 	0.03860 0.74640 0.50720 0.43800
C 	C 	0.58900 0.55080 0.61750 0.24300
C 	C 	0.64270 0.51540 0.53070 -0.17000
C 	C 	0.55250 0.46480 0.41490 -0.08600
C 	C 	0.79370 0.53130 0.56110 0.42700
C 	C 	0.63590 0.01160 0.00490 0.23800
C 	C 	0.59990 0.10910 0.07360 -0.12200
C 	C 	0.46450 0.09720 0.06810 -0.10700
C 	C 	0.70470 0.22840 0.15330 0.33600
C 	C 	0.97650 0.02990 0.39480 0.25000
C 	C 	0.97820 0.12120 0.49340 -0.16300
C 	C 	0.00130 0.08840 0.59580 -0.09800
C 	C 	0.96140 0.25360 0.49280 0.43800
C 	C 	0.41100 0.44920 0.38250 0.24300
C 	C 	0.35730 0.48460 0.46930 -0.17000
C 	C 	0.44750 0.53520 0.58510 -0.08600
C 	C 	0.20630 0.46870 0.43890 0.42700
C 	C 	0.36410 0.98840 0.99510 0.23800
C 	C 	0.40010 0.89090 0.92640 -0.12200
C 	C 	0.53550 0.90280 0.93190 -0.10700
C 	C 	0.29530 0.77160 0.84670 0.33600
O 	O 	0.01660 0.66630 0.41240 -0.45400
O 	O 	0.07310 0.72550 0.60570 -0.42500
O 	O 	0.04500 0.94720 0.70830 -0.42600
O 	O 	0.84100 0.50630 0.48240 -0.47400
O 	O 	0.87440 0.57000 0.66830 -0.43300
O 	O 	0.67020 0.60150 0.73300 -0.42800
O 	O 	0.82450 0.24560 0.15160 -0.38000
O 	O 	0.67070 0.31010 0.21930 -0.39000
O 	O 	0.76490 0.01480 0.00360 -0.41300
O 	O 	0.98340 0.33370 0.58760 -0.45400
O 	O 	0.92690 0.27450 0.39430 -0.42500
O 	O 	0.95500 0.05280 0.29170 -0.42600
O 	O 	0.15900 0.49370 0.51760 -0.47400
O 	O 	0.12560 0.43000 0.33170 -0.43300
O 	O 	0.32980 0.39850 0.26700 -0.42800
O 	O 	0.17550 0.75440 0.84840 -0.38000
O 	O 	0.32930 0.68990 0.78070 -0.39000
O 	O 	0.23510 0.98520 0.99640 -0.41300
