data_crystal

_cell_length_a 10.18450
_cell_length_b 20.87470
_cell_length_c 10.70700
_cell_angle_alpha 90.00000
_cell_angle_beta  101.87600
_cell_angle_gamma 90.00000

_symmetry_space_group_name_	'P 1'
_symmetry_space_group_name_H-M	'P 1'

loop_
_symmetry_equiv_pos_as_xyz
  x,y,z

loop_
_atom_site_label
_atom_site_type_symbol
_atom_site_fract_x
_atom_site_fract_y
_atom_site_fract_z
_atom_site_charge
Co	Co	0.91462 0.44935 0.55978 1.14000
Co	Co	0.07706 0.38594 0.36418 1.17400
O 	O 	0.94709 0.35448 0.61310 -0.44500
O 	O 	0.10913 0.31866 0.51490 -0.40700
O 	O 	0.68345 0.16720 0.74830 -0.37700
O 	O 	0.80539 0.09967 0.87760 -0.36800
O 	O 	0.29205 0.07902 0.88230 -0.45100
O 	O 	0.39639 0.15909 0.80500 -0.42000
O 	O 	0.09379 0.45603 0.49290 -0.79300
H 	H 	0.16100 0.45380 0.55800 0.25900
N 	N 	0.01060 0.48016 0.74540 -0.21800
N 	N 	0.99880 0.54360 0.77970 -0.20600
N 	N 	0.13390 0.49484 0.93550 -0.12200
C 	C 	0.37420 0.49194 0.02900 0.05800
C 	C 	0.42690 0.55221 0.02370 -0.06400
H 	H 	0.37730 0.58810 0.04000 0.05900
C 	C 	0.44810 0.43930 0.00540 -0.06700
H 	H 	0.41340 0.39780 0.00910 0.06200
C 	C 	0.23490 0.48340 0.05390 -0.10700
H 	H 	0.22480 0.43990 0.08470 0.06600
H 	H 	0.22070 0.51360 0.12000 0.05800
C 	C 	0.09150 0.45251 0.84040 0.09700
H 	H 	0.11680 0.40920 0.84230 -0.00100
C 	C 	0.07440 0.55083 0.89360 0.10300
H 	H 	0.08570 0.58950 0.93950 0.00100
C 	C 	0.03260 0.25089 0.66110 -0.12400
C 	C 	0.91650 0.22638 0.69310 0.05700
H 	H 	0.83460 0.24820 0.66770 0.03700
C 	C 	0.92150 0.17001 0.76230 -0.11400
C 	C 	0.04270 0.13911 0.80310 0.05800
H 	H 	0.04630 0.10170 0.85260 0.03000
C 	C 	0.16020 0.16287 0.77180 -0.12900
C 	C 	0.15330 0.21792 0.69860 0.06400
H 	H 	0.23090 0.23320 0.67380 0.03900
C 	C 	0.02950 0.31279 0.58960 0.37200
C 	C 	0.79640 0.14396 0.79820 0.31800
C 	C 	0.29220 0.13113 0.82330 0.37300
Co	Co	0.58538 0.94935 0.94022 1.13700
Co	Co	0.42294 0.88594 0.13582 1.17300
O 	O 	0.55291 0.85448 0.88690 -0.44800
O 	O 	0.39087 0.81866 0.98510 -0.40900
O 	O 	0.81655 0.66720 0.75170 -0.37900
O 	O 	0.69461 0.59967 0.62240 -0.37000
O 	O 	0.20795 0.57902 0.61770 -0.45400
O 	O 	0.10361 0.65909 0.69500 -0.42100
O 	O 	0.40621 0.95603 0.00710 -0.78700
H 	H 	0.33900 0.95380 0.94200 0.25500
N 	N 	0.48940 0.98016 0.75460 -0.21900
N 	N 	0.50120 0.04360 0.72030 -0.20500
N 	N 	0.36610 0.99484 0.56450 -0.12300
C 	C 	0.12580 0.99194 0.47100 0.05800
C 	C 	0.07310 0.05221 0.47630 -0.06600
H 	H 	0.12270 0.08810 0.46000 0.05900
C 	C 	0.05190 0.93930 0.49460 -0.06600
H 	H 	0.08660 0.89780 0.49090 0.06100
C 	C 	0.26510 0.98340 0.44610 -0.10400
H 	H 	0.27520 0.93990 0.41530 0.06600
H 	H 	0.27930 0.01360 0.38000 0.05600
C 	C 	0.40850 0.95251 0.65960 0.09700
H 	H 	0.38320 0.90920 0.65770 -0.00100
C 	C 	0.42560 0.05083 0.60640 0.10300
H 	H 	0.41430 0.08950 0.56050 0.00100
C 	C 	0.46740 0.75089 0.83890 -0.12500
C 	C 	0.58350 0.72638 0.80690 0.05700
H 	H 	0.66540 0.74820 0.83230 0.03700
C 	C 	0.57850 0.67001 0.73770 -0.11400
C 	C 	0.45730 0.63911 0.69690 0.05800
H 	H 	0.45370 0.60170 0.64740 0.03000
C 	C 	0.33980 0.66287 0.72820 -0.13000
C 	C 	0.34670 0.71792 0.80140 0.06400
H 	H 	0.26910 0.73320 0.82620 0.03800
C 	C 	0.47050 0.81279 0.91040 0.37200
C 	C 	0.70360 0.64396 0.70180 0.31800
C 	C 	0.20780 0.63113 0.67670 0.37300
Co	Co	0.08538 0.55065 0.44022 1.13900
Co	Co	0.92294 0.61406 0.63582 1.17300
O 	O 	0.05291 0.64552 0.38690 -0.44600
O 	O 	0.89087 0.68134 0.48510 -0.40800
O 	O 	0.31655 0.83280 0.25170 -0.37800
O 	O 	0.19461 0.90033 0.12240 -0.36900
O 	O 	0.70795 0.92098 0.11770 -0.45200
O 	O 	0.60361 0.84091 0.19500 -0.42100
O 	O 	0.90621 0.54397 0.50710 -0.79300
H 	H 	0.83900 0.54620 0.44200 0.25900
N 	N 	0.98940 0.51984 0.25460 -0.21800
N 	N 	0.00120 0.45640 0.22030 -0.20600
N 	N 	0.86610 0.50516 0.06450 -0.12200
C 	C 	0.62580 0.50806 0.97100 0.05800
C 	C 	0.57310 0.44779 0.97630 -0.06400
H 	H 	0.62270 0.41190 0.96000 0.05900
C 	C 	0.55190 0.56070 0.99460 -0.06700
H 	H 	0.58660 0.60220 0.99090 0.06200
C 	C 	0.76510 0.51660 0.94610 -0.10700
H 	H 	0.77520 0.56010 0.91530 0.06600
H 	H 	0.77930 0.48640 0.88000 0.05800
C 	C 	0.90850 0.54749 0.15960 0.09700
H 	H 	0.88320 0.59080 0.15770 -0.00100
C 	C 	0.92560 0.44917 0.10640 0.10300
H 	H 	0.91430 0.41050 0.06050 0.00100
C 	C 	0.96740 0.74911 0.33890 -0.12400
C 	C 	0.08350 0.77362 0.30690 0.05700
H 	H 	0.16540 0.75180 0.33230 0.03700
C 	C 	0.07850 0.82999 0.23770 -0.11400
C 	C 	0.95730 0.86089 0.19690 0.05800
H 	H 	0.95370 0.89830 0.14740 0.03000
C 	C 	0.83980 0.83713 0.22820 -0.12900
C 	C 	0.84670 0.78208 0.30140 0.06400
H 	H 	0.76910 0.76680 0.32620 0.03900
C 	C 	0.97050 0.68721 0.41040 0.37200
C 	C 	0.20360 0.85604 0.20180 0.31800
C 	C 	0.70780 0.86887 0.17670 0.37300
Co	Co	0.41462 0.05065 0.05978 1.13700
Co	Co	0.57706 0.11406 0.86418 1.17300
O 	O 	0.44709 0.14552 0.11310 -0.44800
O 	O 	0.60913 0.18134 0.01490 -0.40900
O 	O 	0.18345 0.33280 0.24830 -0.37900
O 	O 	0.30539 0.40033 0.37760 -0.37000
O 	O 	0.79205 0.42098 0.38230 -0.45400
O 	O 	0.89639 0.34091 0.30500 -0.42100
O 	O 	0.59379 0.04397 0.99290 -0.78700
H 	H 	0.66100 0.04620 0.05800 0.25500
N 	N 	0.51060 0.01984 0.24540 -0.21900
N 	N 	0.49880 0.95640 0.27970 -0.20500
N 	N 	0.63390 0.00516 0.43550 -0.12300
C 	C 	0.87420 0.00806 0.52900 0.05800
C 	C 	0.92690 0.94779 0.52370 -0.06600
H 	H 	0.87730 0.91190 0.54000 0.05900
C 	C 	0.94810 0.06070 0.50540 -0.06600
H 	H 	0.91340 0.10220 0.50910 0.06100
C 	C 	0.73490 0.01660 0.55390 -0.10400
H 	H 	0.72480 0.06010 0.58470 0.06600
H 	H 	0.72070 0.98640 0.62000 0.05600
C 	C 	0.59150 0.04749 0.34040 0.09700
H 	H 	0.61680 0.09080 0.34230 -0.00100
C 	C 	0.57440 0.94917 0.39360 0.10300
H 	H 	0.58570 0.91050 0.43950 0.00100
C 	C 	0.53260 0.24911 0.16110 -0.12500
C 	C 	0.41650 0.27362 0.19310 0.05700
H 	H 	0.33460 0.25180 0.16770 0.03700
C 	C 	0.42150 0.32999 0.26230 -0.11400
C 	C 	0.54270 0.36089 0.30310 0.05800
H 	H 	0.54630 0.39830 0.35260 0.03000
C 	C 	0.66020 0.33713 0.27180 -0.13000
C 	C 	0.65330 0.28208 0.19860 0.06400
H 	H 	0.73090 0.26680 0.17380 0.03800
C 	C 	0.52950 0.18721 0.08960 0.37200
C 	C 	0.29640 0.35604 0.29820 0.31800
C 	C 	0.79220 0.36887 0.32330 0.37300
