data_crystal

_cell_length_a 27.99400
_cell_length_b 27.99400
_cell_length_c 19.39100
_cell_angle_alpha 90.00000
_cell_angle_beta  90.00000
_cell_angle_gamma 90.00000

_symmetry_space_group_name_	'P 1'
_symmetry_space_group_name_H-M	'P 1'

loop_
_symmetry_equiv_pos_as_xyz
  x,y,z

loop_
_atom_site_label
_atom_site_type_symbol
_atom_site_fract_x
_atom_site_fract_y
_atom_site_fract_z
_atom_site_charge
O 	O 	0.99070 0.97010 0.99410 -0.14100
Rb	Rb	0.93829 0.03498 0.88724 0.69900
C 	C 	0.05719 0.08778 0.80860 0.28700
C 	C 	0.09031 0.16073 0.78060 0.05300
H 	H 	0.07100 0.19020 0.77580 0.04500
C 	C 	0.08733 0.13078 0.71630 0.06500
H 	H 	0.06630 0.14540 0.68110 0.02300
C 	C 	0.16730 0.15521 0.73280 0.27200
C 	C 	0.04892 0.05064 0.69640 0.04200
H 	H 	0.03130 0.06690 0.65960 0.03400
H 	H 	0.02610 0.03130 0.72270 0.04300
C 	C 	0.14880 0.11265 0.62440 0.05200
H 	H 	0.12430 0.12390 0.59210 0.02600
H 	H 	0.17930 0.12710 0.61090 0.04300
C 	C 	0.08810 0.97156 0.68000 0.26800
C 	C 	0.11118 0.03220 0.60640 0.06500
H 	H 	0.09010 0.04610 0.57060 0.01900
C 	C 	0.13361 0.98450 0.58130 0.06000
H 	H 	0.12060 0.97470 0.53600 0.02000
C 	C 	0.19369 0.04120 0.59830 0.25700
C 	C 	0.12834 0.90130 0.63130 0.04200
H 	H 	0.12080 0.89020 0.58460 0.02900
H 	H 	0.10690 0.88480 0.66340 0.04800
C 	C 	0.21861 0.96540 0.53990 0.04700
H 	H 	0.20260 0.95060 0.50030 0.02800
H 	H 	0.24420 0.98580 0.52210 0.04600
C 	C 	0.18801 0.86551 0.70700 0.26600
C 	C 	0.21480 0.88401 0.59630 0.05900
H 	H 	0.20380 0.86720 0.55430 0.02300
C 	C 	0.25391 0.85566 0.63620 0.06600
H 	H 	0.26160 0.82530 0.61250 0.03300
C 	C 	0.28538 0.92949 0.60270 0.27700
C 	C 	0.25170 0.81380 0.74950 0.04500
H 	H 	0.26520 0.78680 0.72400 0.04700
H 	H 	0.22490 0.80160 0.77690 0.04500
C 	C 	0.34171 0.87470 0.65760 0.05300
H 	H 	0.36530 0.89540 0.63530 0.02500
H 	H 	0.34790 0.84190 0.64240 0.05200
C 	C 	0.28100 0.83380 0.86530 0.29200
C 	C 	0.33760 0.83740 0.77410 0.06300
H 	H 	0.35050 0.80730 0.75490 0.05200
C 	C 	0.36160 0.85060 0.84210 0.05600
H 	H 	0.38960 0.83010 0.85180 0.04500
C 	C 	0.37180 0.91310 0.76490 0.26600
C 	C 	0.33370 0.84040 0.96620 0.02900
H 	H 	0.36410 0.82370 0.97310 0.04000
H 	H 	0.30840 0.82160 0.98840 0.05500
C 	C 	0.40912 0.92580 0.87780 0.03000
H 	H 	0.43440 0.90370 0.89200 0.04700
H 	H 	0.42410 0.95210 0.85230 0.06600
C 	C 	0.29890 0.90870 0.04130 0.26400
C 	C 	0.37650 0.92090 0.99970 0.10800
H 	H 	0.40510 0.90280 0.01430 -0.00100
C 	C 	0.36460 0.95730 0.05400 0.02800
H 	H 	0.38580 0.95550 0.09490 0.02800
C 	C 	0.38398 0.99090 0.94620 0.25500
C 	C 	0.29030 0.96960 0.12620 0.04000
H 	H 	0.26420 0.94930 0.14250 0.04600
H 	H 	0.31290 0.97350 0.16440 0.02900
C 	C 	0.37450 0.05240 0.04100 0.02800
H 	H 	0.39360 0.05200 0.08340 0.03200
H 	H 	0.39150 0.07200 0.00710 0.05300
C 	C 	0.22200 0.02550 0.09470 0.30200
C 	C 	0.29630 0.06430 0.11150 0.05400
H 	H 	0.31380 0.06630 0.15580 0.02400
C 	C 	0.25930 0.10310 0.10990 0.04600
H 	H 	0.25520 0.11930 0.15490 0.03300
C 	C 	0.32070 0.11750 0.02890 0.24400
C 	C 	0.16910 0.09760 0.09090 0.01100
H 	H 	0.14460 0.07330 0.09950 0.07000
H 	H 	0.16860 0.11960 0.13020 0.06700
C 	C 	0.25730 0.18040 0.04100 0.02400
H 	H 	0.28180 0.20070 0.01970 0.05200
H 	H 	0.24830 0.19500 0.08500 0.05800
C 	C 	0.11610 0.11260 0.98980 0.28700
C 	C 	0.16740 0.17480 0.01690 0.02900
H 	H 	0.16000 0.19530 0.05700 0.05800
C 	C 	0.13700 0.18630 0.95660 0.07500
H 	H 	0.11930 0.21650 0.96350 0.05000
C 	C 	0.21780 0.19300 0.93040 0.29300
C 	C 	0.06227 0.14530 0.90500 0.02700
H 	H 	0.04820 0.17730 0.90480 0.06800
H 	H 	0.03910 0.12350 0.92590 0.06800
C 	C 	0.16010 0.20960 0.83430 0.02600
H 	H 	0.13630 0.23510 0.83880 0.05700
H 	H 	0.18910 0.22350 0.81410 0.05600
N 	N 	0.07115 0.13038 0.83360 -0.14600
N 	N 	0.06908 0.08519 0.74040 -0.15400
N 	N 	0.14171 0.17249 0.78870 -0.13800
N 	N 	0.13653 0.12868 0.69370 -0.15000
N 	N 	0.08470 0.01891 0.66530 -0.15400
N 	N 	0.11972 0.95180 0.63530 -0.15100
N 	N 	0.15263 0.06314 0.61910 -0.14900
N 	N 	0.18395 0.99528 0.57710 -0.14500
N 	N 	0.17738 0.88868 0.64750 -0.14800
N 	N 	0.23384 0.84715 0.70170 -0.14700
N 	N 	0.23900 0.92914 0.58070 -0.14900
N 	N 	0.29506 0.88853 0.63500 -0.14800
N 	N 	0.28778 0.83204 0.79610 -0.14800
N 	N 	0.32390 0.84410 0.89320 -0.14600
N 	N 	0.34814 0.87730 0.73090 -0.15200
N 	N 	0.37521 0.90080 0.83240 -0.14100
N 	N 	0.33610 0.88950 0.99930 -0.13600
N 	N 	0.31460 0.94530 0.06940 -0.15900
N 	N 	0.38631 0.94420 0.93700 -0.15300
N 	N 	0.37090 0.00190 0.01380 -0.13900
N 	N 	0.27110 0.01630 0.10790 -0.14400
N 	N 	0.21740 0.07270 0.09040 -0.14800
N 	N 	0.32980 0.07400 0.05540 -0.14400
N 	N 	0.27720 0.13580 0.05400 -0.13600
N 	N 	0.15491 0.12430 0.02970 -0.14100
N 	N 	0.10453 0.14590 0.94600 -0.15200
N 	N 	0.21550 0.17940 0.99610 -0.13100
N 	N 	0.17127 0.19040 0.90250 -0.13700
O 	O 	0.03548 0.05645 0.84100 -0.32100
O 	O 	0.06593 0.95073 0.72643 -0.27000
O 	O 	0.16235 0.86263 0.75820 -0.23400
O 	O 	0.24539 0.82620 0.89800 -0.24400
O 	O 	0.26123 0.88600 0.05580 -0.23100
O 	O 	0.19150 0.99800 0.09440 -0.25700
O 	O 	0.09732 0.07210 0.99470 -0.21400
O 	O 	0.20884 0.16362 0.72090 -0.23600
O 	O 	0.23441 0.05982 0.59700 -0.22700
O 	O 	0.31421 0.96246 0.59260 -0.22800
O 	O 	0.38627 0.94978 0.73700 -0.25600
O 	O 	0.39164 0.02550 0.90300 -0.18900
O 	O 	0.34468 0.13920 0.98640 -0.20900
O 	O 	0.25319 0.20219 0.89900 -0.23900
O 	O 	0.49070 0.47010 0.49410 -0.14600
Rb	Rb	0.43829 0.53498 0.38724 0.69700
C 	C 	0.55719 0.58778 0.30860 0.28600
C 	C 	0.59031 0.66073 0.28060 0.05100
H 	H 	0.57100 0.69020 0.27580 0.04400
C 	C 	0.58733 0.63078 0.21630 0.06400
H 	H 	0.56630 0.64540 0.18110 0.02000
C 	C 	0.66730 0.65521 0.23280 0.27100
C 	C 	0.54892 0.55064 0.19640 0.04100
H 	H 	0.53130 0.56690 0.15960 0.03200
H 	H 	0.52610 0.53130 0.22270 0.04100
C 	C 	0.64880 0.61265 0.12440 0.05200
H 	H 	0.62430 0.62390 0.09210 0.02200
H 	H 	0.67930 0.62710 0.11090 0.04000
C 	C 	0.58810 0.47156 0.18000 0.26700
C 	C 	0.61118 0.53220 0.10640 0.06400
H 	H 	0.59010 0.54610 0.07060 0.01500
C 	C 	0.63361 0.48450 0.08130 0.06000
H 	H 	0.62060 0.47470 0.03600 0.01600
C 	C 	0.69369 0.54120 0.09830 0.25500
C 	C 	0.62834 0.40130 0.13130 0.04200
H 	H 	0.62080 0.39020 0.08460 0.02500
H 	H 	0.60690 0.38480 0.16340 0.04600
C 	C 	0.71861 0.46540 0.03990 0.04800
H 	H 	0.70260 0.45060 0.00030 0.02300
H 	H 	0.74420 0.48580 0.02210 0.04200
C 	C 	0.68801 0.36551 0.20700 0.26500
C 	C 	0.71480 0.38401 0.09630 0.05800
H 	H 	0.70380 0.36720 0.05430 0.01900
C 	C 	0.75391 0.35566 0.13620 0.06500
H 	H 	0.76160 0.32530 0.11250 0.03100
C 	C 	0.78538 0.42949 0.10270 0.27500
C 	C 	0.75170 0.31380 0.24950 0.04400
H 	H 	0.76520 0.28680 0.22400 0.04500
H 	H 	0.72490 0.30160 0.27690 0.04400
C 	C 	0.84171 0.37470 0.15760 0.05300
H 	H 	0.86530 0.39540 0.13530 0.02300
H 	H 	0.84790 0.34190 0.14240 0.05100
C 	C 	0.78100 0.33380 0.36530 0.29100
C 	C 	0.83760 0.33740 0.27410 0.06200
H 	H 	0.85050 0.30730 0.25490 0.05200
C 	C 	0.86160 0.35060 0.34210 0.05500
H 	H 	0.88960 0.33010 0.35180 0.04400
C 	C 	0.87180 0.41310 0.26490 0.26600
C 	C 	0.83370 0.34040 0.46620 0.03000
H 	H 	0.86410 0.32370 0.47310 0.03600
H 	H 	0.80840 0.32160 0.48840 0.05000
C 	C 	0.90912 0.42580 0.37780 0.02700
H 	H 	0.93440 0.40370 0.39200 0.04600
H 	H 	0.92410 0.45210 0.35230 0.06600
C 	C 	0.79890 0.40870 0.54130 0.27700
C 	C 	0.87650 0.42090 0.49970 0.06900
H 	H 	0.90510 0.40280 0.51430 0.02200
C 	C 	0.86460 0.45730 0.55400 0.05000
H 	H 	0.88580 0.45550 0.59490 0.02300
C 	C 	0.88398 0.49090 0.44620 0.24200
C 	C 	0.79030 0.46960 0.62620 0.04200
H 	H 	0.76420 0.44930 0.64250 0.04700
H 	H 	0.81290 0.47350 0.66440 0.02900
C 	C 	0.87450 0.55240 0.54100 0.02800
H 	H 	0.89360 0.55200 0.58340 0.03300
H 	H 	0.89150 0.57200 0.50710 0.05900
C 	C 	0.72200 0.52550 0.59470 0.30300
C 	C 	0.79630 0.56430 0.61150 0.05400
H 	H 	0.81380 0.56630 0.65580 0.02400
C 	C 	0.75930 0.60310 0.60990 0.04700
H 	H 	0.75520 0.61930 0.65490 0.03300
C 	C 	0.82070 0.61750 0.52890 0.26400
C 	C 	0.66910 0.59760 0.59090 0.01200
H 	H 	0.64460 0.57330 0.59950 0.07300
H 	H 	0.66860 0.61960 0.63020 0.06700
C 	C 	0.75730 0.68040 0.54100 0.04000
H 	H 	0.78180 0.70070 0.51970 0.05300
H 	H 	0.74830 0.69500 0.58500 0.05500
C 	C 	0.61610 0.61260 0.48980 0.27400
C 	C 	0.66740 0.67480 0.51690 0.05700
H 	H 	0.66000 0.69530 0.55700 0.05300
C 	C 	0.63700 0.68630 0.45660 0.05600
H 	H 	0.61930 0.71650 0.46350 0.05300
C 	C 	0.71780 0.69300 0.43040 0.29200
C 	C 	0.56227 0.64530 0.40500 0.02600
H 	H 	0.54820 0.67730 0.40480 0.06700
H 	H 	0.53910 0.62350 0.42590 0.06800
C 	C 	0.66010 0.70960 0.33430 0.02500
H 	H 	0.63630 0.73510 0.33880 0.05700
H 	H 	0.68910 0.72350 0.31410 0.05600
N 	N 	0.57115 0.63038 0.33360 -0.14600
N 	N 	0.56908 0.58519 0.24040 -0.15500
N 	N 	0.64171 0.67249 0.28870 -0.13800
N 	N 	0.63653 0.62868 0.19370 -0.15000
N 	N 	0.58470 0.51891 0.16530 -0.15500
N 	N 	0.61972 0.45180 0.13530 -0.15100
N 	N 	0.65263 0.56314 0.11910 -0.15000
N 	N 	0.68395 0.49528 0.07710 -0.14600
N 	N 	0.67738 0.38868 0.14750 -0.14800
N 	N 	0.73384 0.34715 0.20170 -0.14800
N 	N 	0.73900 0.42914 0.08070 -0.15000
N 	N 	0.79506 0.38853 0.13500 -0.14900
N 	N 	0.78778 0.33204 0.29610 -0.14900
N 	N 	0.82390 0.34410 0.39320 -0.14700
N 	N 	0.84814 0.37730 0.23090 -0.15200
N 	N 	0.87521 0.40080 0.33240 -0.14100
N 	N 	0.83610 0.38950 0.49930 -0.14000
N 	N 	0.81460 0.44530 0.56940 -0.16200
N 	N 	0.88631 0.44420 0.43700 -0.14700
N 	N 	0.87090 0.50190 0.51380 -0.13400
N 	N 	0.77110 0.51630 0.60790 -0.14400
N 	N 	0.71740 0.57270 0.59040 -0.14700
N 	N 	0.82980 0.57400 0.55540 -0.14600
N 	N 	0.77720 0.63580 0.55400 -0.13900
N 	N 	0.65491 0.62430 0.52970 -0.13600
N 	N 	0.60453 0.64590 0.44600 -0.14900
N 	N 	0.71550 0.67940 0.49610 -0.14800
N 	N 	0.67127 0.69040 0.40250 -0.13500
O 	O 	0.53548 0.55645 0.34100 -0.32100
O 	O 	0.56593 0.45073 0.22643 -0.27100
O 	O 	0.66235 0.36263 0.25820 -0.23400
O 	O 	0.74539 0.32620 0.39800 -0.24800
O 	O 	0.76123 0.38600 0.55580 -0.23000
O 	O 	0.69150 0.49800 0.59440 -0.25400
O 	O 	0.59732 0.57210 0.49470 -0.21700
O 	O 	0.70884 0.66362 0.22090 -0.23600
O 	O 	0.73441 0.55982 0.09700 -0.22800
O 	O 	0.81421 0.46246 0.09260 -0.23000
O 	O 	0.88627 0.44978 0.23700 -0.25600
O 	O 	0.89164 0.52550 0.40300 -0.19000
O 	O 	0.84468 0.63920 0.48640 -0.22800
O 	O 	0.75319 0.70219 0.39900 -0.24200
O 	O 	0.50930 0.52990 0.49410 -0.14600
Rb	Rb	0.56171 0.46502 0.38724 0.69700
C 	C 	0.44281 0.41222 0.30860 0.28600
C 	C 	0.40969 0.33927 0.28060 0.05100
H 	H 	0.42900 0.30980 0.27580 0.04400
C 	C 	0.41267 0.36922 0.21630 0.06400
H 	H 	0.43370 0.35460 0.18110 0.02000
C 	C 	0.33270 0.34479 0.23280 0.27100
C 	C 	0.45108 0.44936 0.19640 0.04100
H 	H 	0.46870 0.43310 0.15960 0.03200
H 	H 	0.47390 0.46870 0.22270 0.04100
C 	C 	0.35120 0.38735 0.12440 0.05200
H 	H 	0.37570 0.37610 0.09210 0.02200
H 	H 	0.32070 0.37290 0.11090 0.04000
C 	C 	0.41190 0.52844 0.18000 0.26700
C 	C 	0.38882 0.46780 0.10640 0.06400
H 	H 	0.40990 0.45390 0.07060 0.01500
C 	C 	0.36639 0.51550 0.08130 0.06000
H 	H 	0.37940 0.52530 0.03600 0.01600
C 	C 	0.30631 0.45880 0.09830 0.25500
C 	C 	0.37166 0.59870 0.13130 0.04200
H 	H 	0.37920 0.60980 0.08460 0.02500
H 	H 	0.39310 0.61520 0.16340 0.04600
C 	C 	0.28139 0.53460 0.03990 0.04800
H 	H 	0.29740 0.54940 0.00030 0.02300
H 	H 	0.25580 0.51420 0.02210 0.04200
C 	C 	0.31199 0.63449 0.20700 0.26500
C 	C 	0.28520 0.61599 0.09630 0.05800
H 	H 	0.29620 0.63280 0.05430 0.01900
C 	C 	0.24609 0.64434 0.13620 0.06500
H 	H 	0.23840 0.67470 0.11250 0.03100
C 	C 	0.21462 0.57051 0.10270 0.27500
C 	C 	0.24830 0.68620 0.24950 0.04400
H 	H 	0.23480 0.71320 0.22400 0.04500
H 	H 	0.27510 0.69840 0.27690 0.04400
C 	C 	0.15829 0.62530 0.15760 0.05300
H 	H 	0.13470 0.60460 0.13530 0.02300
H 	H 	0.15210 0.65810 0.14240 0.05100
C 	C 	0.21900 0.66620 0.36530 0.29100
C 	C 	0.16240 0.66260 0.27410 0.06200
H 	H 	0.14950 0.69270 0.25490 0.05200
C 	C 	0.13840 0.64940 0.34210 0.05500
H 	H 	0.11040 0.66990 0.35180 0.04400
C 	C 	0.12820 0.58690 0.26490 0.26600
C 	C 	0.16630 0.65960 0.46620 0.03000
H 	H 	0.13590 0.67630 0.47310 0.03600
H 	H 	0.19160 0.67840 0.48840 0.05000
C 	C 	0.09088 0.57420 0.37780 0.02700
H 	H 	0.06560 0.59630 0.39200 0.04600
H 	H 	0.07590 0.54790 0.35230 0.06600
C 	C 	0.20110 0.59130 0.54130 0.27700
C 	C 	0.12350 0.57910 0.49970 0.06900
H 	H 	0.09490 0.59720 0.51430 0.02200
C 	C 	0.13540 0.54270 0.55400 0.05000
H 	H 	0.11420 0.54450 0.59490 0.02300
C 	C 	0.11602 0.50910 0.44620 0.24200
C 	C 	0.20970 0.53040 0.62620 0.04200
H 	H 	0.23580 0.55070 0.64250 0.04700
H 	H 	0.18710 0.52650 0.66440 0.02900
C 	C 	0.12550 0.44760 0.54100 0.02800
H 	H 	0.10640 0.44800 0.58340 0.03300
H 	H 	0.10850 0.42800 0.50710 0.05900
C 	C 	0.27800 0.47450 0.59470 0.30300
C 	C 	0.20370 0.43570 0.61150 0.05400
H 	H 	0.18620 0.43370 0.65580 0.02400
C 	C 	0.24070 0.39690 0.60990 0.04700
H 	H 	0.24480 0.38070 0.65490 0.03300
C 	C 	0.17930 0.38250 0.52890 0.26400
C 	C 	0.33090 0.40240 0.59090 0.01200
H 	H 	0.35540 0.42670 0.59950 0.07300
H 	H 	0.33140 0.38040 0.63020 0.06700
C 	C 	0.24270 0.31960 0.54100 0.04000
H 	H 	0.21820 0.29930 0.51970 0.05300
H 	H 	0.25170 0.30500 0.58500 0.05500
C 	C 	0.38390 0.38740 0.48980 0.27400
C 	C 	0.33260 0.32520 0.51690 0.05700
H 	H 	0.34000 0.30470 0.55700 0.05300
C 	C 	0.36300 0.31370 0.45660 0.05600
H 	H 	0.38070 0.28350 0.46350 0.05300
C 	C 	0.28220 0.30700 0.43040 0.29200
C 	C 	0.43773 0.35470 0.40500 0.02600
H 	H 	0.45180 0.32270 0.40480 0.06700
H 	H 	0.46090 0.37650 0.42590 0.06800
C 	C 	0.33990 0.29040 0.33430 0.02500
H 	H 	0.36370 0.26490 0.33880 0.05700
H 	H 	0.31090 0.27650 0.31410 0.05600
N 	N 	0.42885 0.36962 0.33360 -0.14600
N 	N 	0.43092 0.41481 0.24040 -0.15500
N 	N 	0.35829 0.32751 0.28870 -0.13800
N 	N 	0.36347 0.37132 0.19370 -0.15000
N 	N 	0.41530 0.48109 0.16530 -0.15500
N 	N 	0.38028 0.54820 0.13530 -0.15100
N 	N 	0.34737 0.43686 0.11910 -0.15000
N 	N 	0.31605 0.50472 0.07710 -0.14600
N 	N 	0.32262 0.61132 0.14750 -0.14800
N 	N 	0.26616 0.65285 0.20170 -0.14800
N 	N 	0.26100 0.57086 0.08070 -0.15000
N 	N 	0.20494 0.61147 0.13500 -0.14900
N 	N 	0.21222 0.66796 0.29610 -0.14900
N 	N 	0.17610 0.65590 0.39320 -0.14700
N 	N 	0.15186 0.62270 0.23090 -0.15200
N 	N 	0.12479 0.59920 0.33240 -0.14100
N 	N 	0.16390 0.61050 0.49930 -0.14000
N 	N 	0.18540 0.55470 0.56940 -0.16200
N 	N 	0.11369 0.55580 0.43700 -0.14700
N 	N 	0.12910 0.49810 0.51380 -0.13400
N 	N 	0.22890 0.48370 0.60790 -0.14400
N 	N 	0.28260 0.42730 0.59040 -0.14700
N 	N 	0.17020 0.42600 0.55540 -0.14600
N 	N 	0.22280 0.36420 0.55400 -0.13900
N 	N 	0.34509 0.37570 0.52970 -0.13600
N 	N 	0.39547 0.35410 0.44600 -0.14900
N 	N 	0.28450 0.32060 0.49610 -0.14800
N 	N 	0.32873 0.30960 0.40250 -0.13500
O 	O 	0.46452 0.44355 0.34100 -0.32100
O 	O 	0.43407 0.54927 0.22643 -0.27100
O 	O 	0.33765 0.63737 0.25820 -0.23400
O 	O 	0.25461 0.67380 0.39800 -0.24800
O 	O 	0.23877 0.61400 0.55580 -0.23000
O 	O 	0.30850 0.50200 0.59440 -0.25400
O 	O 	0.40268 0.42790 0.49470 -0.21700
O 	O 	0.29116 0.33638 0.22090 -0.23600
O 	O 	0.26559 0.44018 0.09700 -0.22800
O 	O 	0.18579 0.53754 0.09260 -0.23000
O 	O 	0.11373 0.55022 0.23700 -0.25600
O 	O 	0.10836 0.47450 0.40300 -0.19000
O 	O 	0.15532 0.36080 0.48640 -0.22800
O 	O 	0.24681 0.29781 0.39900 -0.24200
O 	O 	0.00930 0.02990 0.99410 -0.14200
Rb	Rb	0.06171 0.96502 0.88724 0.69800
C 	C 	0.94281 0.91222 0.80860 0.28600
C 	C 	0.90969 0.83927 0.78060 0.05200
H 	H 	0.92900 0.80980 0.77580 0.04400
C 	C 	0.91267 0.86922 0.71630 0.06400
H 	H 	0.93370 0.85460 0.68110 0.02200
C 	C 	0.83270 0.84479 0.73280 0.27100
C 	C 	0.95108 0.94936 0.69640 0.04100
H 	H 	0.96870 0.93310 0.65960 0.03300
H 	H 	0.97390 0.96870 0.72270 0.04200
C 	C 	0.85120 0.88735 0.62440 0.05100
H 	H 	0.87570 0.87610 0.59210 0.02500
H 	H 	0.82070 0.87290 0.61090 0.04200
C 	C 	0.91190 0.02844 0.68000 0.26700
C 	C 	0.88882 0.96780 0.60640 0.06400
H 	H 	0.90990 0.95390 0.57060 0.01800
C 	C 	0.86639 0.01550 0.58130 0.05900
H 	H 	0.87940 0.02530 0.53600 0.01900
C 	C 	0.80631 0.95880 0.59830 0.25600
C 	C 	0.87166 0.09870 0.63130 0.04100
H 	H 	0.87920 0.10980 0.58460 0.02800
H 	H 	0.89310 0.11520 0.66340 0.04700
C 	C 	0.78139 0.03460 0.53990 0.04600
H 	H 	0.79740 0.04940 0.50030 0.02700
H 	H 	0.75580 0.01420 0.52210 0.04500
C 	C 	0.81199 0.13449 0.70700 0.26500
C 	C 	0.78520 0.11599 0.59630 0.05800
H 	H 	0.79620 0.13280 0.55430 0.02200
C 	C 	0.74609 0.14434 0.63620 0.06500
H 	H 	0.73840 0.17470 0.61250 0.03200
C 	C 	0.71462 0.07051 0.60270 0.27600
C 	C 	0.74830 0.18620 0.74950 0.04400
H 	H 	0.73480 0.21320 0.72400 0.04600
H 	H 	0.77510 0.19840 0.77690 0.04400
C 	C 	0.65829 0.12530 0.65760 0.05200
H 	H 	0.63470 0.10460 0.63530 0.02400
H 	H 	0.65210 0.15810 0.64240 0.05100
C 	C 	0.71900 0.16620 0.86530 0.29100
C 	C 	0.66240 0.16260 0.77410 0.06200
H 	H 	0.64950 0.19270 0.75490 0.05200
C 	C 	0.63840 0.14940 0.84210 0.05600
H 	H 	0.61040 0.16990 0.85180 0.04500
C 	C 	0.62820 0.08690 0.76490 0.26600
C 	C 	0.66630 0.15960 0.96620 0.02900
H 	H 	0.63590 0.17630 0.97310 0.04000
H 	H 	0.69160 0.17840 0.98840 0.05500
C 	C 	0.59088 0.07420 0.87780 0.03000
H 	H 	0.56560 0.09630 0.89200 0.04700
H 	H 	0.57590 0.04790 0.85230 0.06600
C 	C 	0.70110 0.09130 0.04130 0.26400
C 	C 	0.62350 0.07910 0.99970 0.10800
H 	H 	0.59490 0.09720 0.01430 -0.00100
C 	C 	0.63540 0.04270 0.05400 0.02800
H 	H 	0.61420 0.04450 0.09490 0.02800
C 	C 	0.61602 0.00910 0.94620 0.25500
C 	C 	0.70970 0.03040 0.12620 0.04000
H 	H 	0.73580 0.05070 0.14250 0.04600
H 	H 	0.68710 0.02650 0.16440 0.02900
C 	C 	0.62550 0.94760 0.04100 0.02800
H 	H 	0.60640 0.94800 0.08340 0.03200
H 	H 	0.60850 0.92800 0.00710 0.05300
C 	C 	0.77800 0.97450 0.09470 0.30200
C 	C 	0.70370 0.93570 0.11150 0.05400
H 	H 	0.68620 0.93370 0.15580 0.02400
C 	C 	0.74070 0.89690 0.10990 0.04600
H 	H 	0.74480 0.88070 0.15490 0.03300
C 	C 	0.67930 0.88250 0.02890 0.24400
C 	C 	0.83090 0.90240 0.09090 0.01100
H 	H 	0.85540 0.92670 0.09950 0.07000
H 	H 	0.83140 0.88040 0.13020 0.06700
C 	C 	0.74270 0.81960 0.04100 0.02400
H 	H 	0.71820 0.79930 0.01970 0.05200
H 	H 	0.75170 0.80500 0.08500 0.05800
C 	C 	0.88390 0.88740 0.98980 0.28700
C 	C 	0.83260 0.82520 0.01690 0.02900
H 	H 	0.84000 0.80470 0.05700 0.05800
C 	C 	0.86300 0.81370 0.95660 0.07500
H 	H 	0.88070 0.78350 0.96350 0.05000
C 	C 	0.78220 0.80700 0.93040 0.29300
C 	C 	0.93773 0.85470 0.90500 0.02700
H 	H 	0.95180 0.82270 0.90480 0.06800
H 	H 	0.96090 0.87650 0.92590 0.06800
C 	C 	0.83990 0.79040 0.83430 0.02600
H 	H 	0.86370 0.76490 0.83880 0.05700
H 	H 	0.81090 0.77650 0.81410 0.05600
N 	N 	0.92885 0.86962 0.83360 -0.14600
N 	N 	0.93092 0.91481 0.74040 -0.15400
N 	N 	0.85829 0.82751 0.78870 -0.13800
N 	N 	0.86347 0.87132 0.69370 -0.15000
N 	N 	0.91530 0.98109 0.66530 -0.15400
N 	N 	0.88028 0.04820 0.63530 -0.15100
N 	N 	0.84737 0.93686 0.61910 -0.14900
N 	N 	0.81605 0.00472 0.57710 -0.14500
N 	N 	0.82262 0.11132 0.64750 -0.14800
N 	N 	0.76616 0.15285 0.70170 -0.14700
N 	N 	0.76100 0.07086 0.58070 -0.14900
N 	N 	0.70494 0.11147 0.63500 -0.14800
N 	N 	0.71222 0.16796 0.79610 -0.14800
N 	N 	0.67610 0.15590 0.89320 -0.14600
N 	N 	0.65186 0.12270 0.73090 -0.15200
N 	N 	0.62479 0.09920 0.83240 -0.14100
N 	N 	0.66390 0.11050 0.99930 -0.13600
N 	N 	0.68540 0.05470 0.06940 -0.15900
N 	N 	0.61369 0.05580 0.93700 -0.15300
N 	N 	0.62910 0.99810 0.01380 -0.13900
N 	N 	0.72890 0.98370 0.10790 -0.14400
N 	N 	0.78260 0.92730 0.09040 -0.14800
N 	N 	0.67020 0.92600 0.05540 -0.14400
N 	N 	0.72280 0.86420 0.05400 -0.13600
N 	N 	0.84509 0.87570 0.02970 -0.14100
N 	N 	0.89547 0.85410 0.94600 -0.15200
N 	N 	0.78450 0.82060 0.99610 -0.13100
N 	N 	0.82873 0.80960 0.90250 -0.13700
O 	O 	0.96452 0.94355 0.84100 -0.32100
O 	O 	0.93407 0.04927 0.72643 -0.27000
O 	O 	0.83765 0.13737 0.75820 -0.23400
O 	O 	0.75461 0.17380 0.89800 -0.24400
O 	O 	0.73877 0.11400 0.05580 -0.23100
O 	O 	0.80850 0.00200 0.09440 -0.25700
O 	O 	0.90268 0.92790 0.99470 -0.21400
O 	O 	0.79116 0.83638 0.72090 -0.23600
O 	O 	0.76559 0.94018 0.59700 -0.22700
O 	O 	0.68579 0.03754 0.59260 -0.22800
O 	O 	0.61373 0.05022 0.73700 -0.25600
O 	O 	0.60836 0.97450 0.90300 -0.18900
O 	O 	0.65532 0.86080 0.98640 -0.20900
O 	O 	0.74681 0.79781 0.89900 -0.23900
O 	O 	0.02990 0.49070 0.24410 -0.14700
Rb	Rb	0.96502 0.43829 0.13724 0.69600
C 	C 	0.91222 0.55719 0.05860 0.27300
C 	C 	0.83927 0.59031 0.03060 0.03700
H 	H 	0.80980 0.57100 0.02580 0.04600
C 	C 	0.86922 0.58733 0.96630 0.07800
H 	H 	0.85460 0.56630 0.93110 0.02000
C 	C 	0.84479 0.66730 0.98280 0.28400
C 	C 	0.94936 0.54892 0.94640 0.04000
H 	H 	0.93310 0.53130 0.90960 0.03400
H 	H 	0.96870 0.52610 0.97270 0.04500
C 	C 	0.88735 0.64880 0.87440 0.05200
H 	H 	0.87610 0.62430 0.84210 0.02500
H 	H 	0.87290 0.67930 0.86090 0.04200
C 	C 	0.02844 0.58810 0.93000 0.26700
C 	C 	0.96780 0.61118 0.85640 0.06400
H 	H 	0.95390 0.59010 0.82060 0.01800
C 	C 	0.01550 0.63361 0.83130 0.06000
H 	H 	0.02530 0.62060 0.78600 0.01900
C 	C 	0.95880 0.69369 0.84830 0.25700
C 	C 	0.09870 0.62834 0.88130 0.04100
H 	H 	0.10980 0.62080 0.83460 0.02800
H 	H 	0.11520 0.60690 0.91340 0.05000
C 	C 	0.03460 0.71861 0.78990 0.04600
H 	H 	0.04940 0.70260 0.75030 0.02700
H 	H 	0.01420 0.74420 0.77210 0.04500
C 	C 	0.13449 0.68801 0.95700 0.28600
C 	C 	0.11599 0.71480 0.84630 0.05800
H 	H 	0.13280 0.70380 0.80430 0.02200
C 	C 	0.14434 0.75391 0.88620 0.06800
H 	H 	0.17470 0.76160 0.86250 0.03100
C 	C 	0.07051 0.78538 0.85270 0.27600
C 	C 	0.18620 0.75170 0.99950 0.08800
H 	H 	0.21320 0.76520 0.97400 0.03700
H 	H 	0.19840 0.72490 0.02690 0.02200
C 	C 	0.12530 0.84171 0.90760 0.04900
H 	H 	0.10460 0.86530 0.88530 0.02600
H 	H 	0.15810 0.84790 0.89240 0.05400
C 	C 	0.16620 0.78100 0.11530 0.29200
C 	C 	0.16260 0.83760 0.02410 0.05100
H 	H 	0.19270 0.85050 0.00490 0.05000
C 	C 	0.14940 0.86160 0.09210 0.05700
H 	H 	0.16990 0.88960 0.10180 0.04300
C 	C 	0.08690 0.87180 0.01490 0.23600
C 	C 	0.15960 0.83370 0.21620 0.03000
H 	H 	0.17630 0.86410 0.22310 0.03600
H 	H 	0.17840 0.80840 0.23840 0.05000
C 	C 	0.07420 0.90912 0.12780 0.02700
H 	H 	0.09630 0.93440 0.14200 0.04500
H 	H 	0.04790 0.92410 0.10230 0.06300
C 	C 	0.09130 0.79890 0.29130 0.27600
C 	C 	0.07910 0.87650 0.24970 0.06900
H 	H 	0.09720 0.90510 0.26430 0.02200
C 	C 	0.04270 0.86460 0.30400 0.05000
H 	H 	0.04450 0.88580 0.34490 0.02300
C 	C 	0.00910 0.88398 0.19620 0.24200
C 	C 	0.03040 0.79030 0.37620 0.04200
H 	H 	0.05070 0.76420 0.39250 0.04600
H 	H 	0.02650 0.81290 0.41440 0.02800
C 	C 	0.94760 0.87450 0.29100 0.02800
H 	H 	0.94800 0.89360 0.33340 0.03300
H 	H 	0.92800 0.89150 0.25710 0.05900
C 	C 	0.97450 0.72200 0.34470 0.30300
C 	C 	0.93570 0.79630 0.36150 0.05400
H 	H 	0.93370 0.81380 0.40580 0.02400
C 	C 	0.89690 0.75930 0.35990 0.04700
H 	H 	0.88070 0.75520 0.40490 0.03200
C 	C 	0.88250 0.82070 0.27890 0.26400
C 	C 	0.90240 0.66910 0.34090 0.01200
H 	H 	0.92670 0.64460 0.34950 0.07300
H 	H 	0.88040 0.66860 0.38020 0.06700
C 	C 	0.81960 0.75730 0.29100 0.04000
H 	H 	0.79930 0.78180 0.26970 0.05300
H 	H 	0.80500 0.74830 0.33500 0.05500
C 	C 	0.88740 0.61610 0.23980 0.27300
C 	C 	0.82520 0.66740 0.26690 0.05700
H 	H 	0.80470 0.66000 0.30700 0.05300
C 	C 	0.81370 0.63700 0.20660 0.05600
H 	H 	0.78350 0.61930 0.21350 0.05300
C 	C 	0.80700 0.71780 0.18040 0.29100
C 	C 	0.85470 0.56227 0.15500 0.02500
H 	H 	0.82270 0.54820 0.15480 0.06800
H 	H 	0.87650 0.53910 0.17590 0.06900
C 	C 	0.79040 0.66010 0.08430 0.02600
H 	H 	0.76490 0.63630 0.08880 0.05600
H 	H 	0.77650 0.68910 0.06410 0.05200
N 	N 	0.86962 0.57115 0.08360 -0.14300
N 	N 	0.91481 0.56908 0.99040 -0.14800
N 	N 	0.82751 0.64171 0.03870 -0.14500
N 	N 	0.87132 0.63653 0.94370 -0.15200
N 	N 	0.98109 0.58470 0.91530 -0.15400
N 	N 	0.04820 0.61972 0.88530 -0.15000
N 	N 	0.93686 0.65263 0.86910 -0.14900
N 	N 	0.00472 0.68395 0.82710 -0.14500
N 	N 	0.11132 0.67738 0.89750 -0.15000
N 	N 	0.15285 0.73384 0.95170 -0.15500
N 	N 	0.07086 0.73900 0.83070 -0.14900
N 	N 	0.11147 0.79506 0.88500 -0.14800
N 	N 	0.16796 0.78778 0.04610 -0.15900
N 	N 	0.15590 0.82390 0.14320 -0.14700
N 	N 	0.12270 0.84814 0.98090 -0.13600
N 	N 	0.09920 0.87521 0.08240 -0.13800
N 	N 	0.11050 0.83610 0.24930 -0.14000
N 	N 	0.05470 0.81460 0.31940 -0.16300
N 	N 	0.05580 0.88631 0.18700 -0.14700
N 	N 	0.99810 0.87090 0.26380 -0.13300
N 	N 	0.98370 0.77110 0.35790 -0.14400
N 	N 	0.92730 0.71740 0.34040 -0.14700
N 	N 	0.92600 0.82980 0.30540 -0.14600
N 	N 	0.86420 0.77720 0.30400 -0.13900
N 	N 	0.87570 0.65491 0.27970 -0.13600
N 	N 	0.85410 0.60453 0.19600 -0.14900
N 	N 	0.82060 0.71550 0.24610 -0.14800
N 	N 	0.80960 0.67127 0.15250 -0.13600
O 	O 	0.94355 0.53548 0.09100 -0.32300
O 	O 	0.04927 0.56593 0.97643 -0.26500
O 	O 	0.13737 0.66235 0.00820 -0.25200
O 	O 	0.17380 0.74539 0.14800 -0.24900
O 	O 	0.11400 0.76123 0.30580 -0.23000
O 	O 	0.00200 0.69150 0.34440 -0.25500
O 	O 	0.92790 0.59732 0.24470 -0.21700
O 	O 	0.83638 0.70884 0.97090 -0.23400
O 	O 	0.94018 0.73441 0.84700 -0.22600
O 	O 	0.03754 0.81421 0.84260 -0.22800
O 	O 	0.05022 0.88627 0.98700 -0.23700
O 	O 	0.97450 0.89164 0.15300 -0.19300
O 	O 	0.86080 0.84468 0.23640 -0.22900
O 	O 	0.79781 0.75319 0.14900 -0.24400
O 	O 	0.52990 0.99070 0.74410 -0.14600
Rb	Rb	0.46502 0.93829 0.63724 0.69700
C 	C 	0.41222 0.05719 0.55860 0.28600
C 	C 	0.33927 0.09031 0.53060 0.05200
H 	H 	0.30980 0.07100 0.52580 0.04400
C 	C 	0.36922 0.08733 0.46630 0.06400
H 	H 	0.35460 0.06630 0.43110 0.02200
C 	C 	0.34479 0.16730 0.48280 0.27100
C 	C 	0.44936 0.04892 0.44640 0.04100
H 	H 	0.43310 0.03130 0.40960 0.03300
H 	H 	0.46870 0.02610 0.47270 0.04100
C 	C 	0.38735 0.14880 0.37440 0.05100
H 	H 	0.37610 0.12430 0.34210 0.02400
H 	H 	0.37290 0.17930 0.36090 0.04200
C 	C 	0.52844 0.08810 0.43000 0.26700
C 	C 	0.46780 0.11118 0.35640 0.06400
H 	H 	0.45390 0.09010 0.32060 0.01700
C 	C 	0.51550 0.13361 0.33130 0.06000
H 	H 	0.52530 0.12060 0.28600 0.01800
C 	C 	0.45880 0.19369 0.34830 0.25600
C 	C 	0.59870 0.12834 0.38130 0.04100
H 	H 	0.60980 0.12080 0.33460 0.02700
H 	H 	0.61520 0.10690 0.41340 0.04700
C 	C 	0.53460 0.21861 0.28990 0.04700
H 	H 	0.54940 0.20260 0.25030 0.02600
H 	H 	0.51420 0.24420 0.27210 0.04400
C 	C 	0.63449 0.18801 0.45700 0.26500
C 	C 	0.61599 0.21480 0.34630 0.05800
H 	H 	0.63280 0.20380 0.30430 0.02100
C 	C 	0.64434 0.25391 0.38620 0.06500
H 	H 	0.67470 0.26160 0.36250 0.03200
C 	C 	0.57051 0.28538 0.35270 0.27500
C 	C 	0.68620 0.25170 0.49950 0.04400
H 	H 	0.71320 0.26520 0.47400 0.04600
H 	H 	0.69840 0.22490 0.52690 0.04400
C 	C 	0.62530 0.34171 0.40760 0.05200
H 	H 	0.60460 0.36530 0.38530 0.02400
H 	H 	0.65810 0.34790 0.39240 0.05100
C 	C 	0.66620 0.28100 0.61530 0.29100
C 	C 	0.66260 0.33760 0.52410 0.06200
H 	H 	0.69270 0.35050 0.50490 0.05200
C 	C 	0.64940 0.36160 0.59210 0.05600
H 	H 	0.66990 0.38960 0.60180 0.04400
C 	C 	0.58690 0.37180 0.51490 0.26600
C 	C 	0.65960 0.33370 0.71620 0.02900
H 	H 	0.67630 0.36410 0.72310 0.03700
H 	H 	0.67840 0.30840 0.73840 0.05100
C 	C 	0.57420 0.40912 0.62780 0.02700
H 	H 	0.59630 0.43440 0.64200 0.04700
H 	H 	0.54790 0.42410 0.60230 0.06700
C 	C 	0.59130 0.29890 0.79130 0.27700
C 	C 	0.57910 0.37650 0.74970 0.06900
H 	H 	0.59720 0.40510 0.76430 0.02300
C 	C 	0.54270 0.36460 0.80400 0.05000
H 	H 	0.54450 0.38580 0.84490 0.02500
C 	C 	0.50910 0.38398 0.69620 0.24300
C 	C 	0.53040 0.29030 0.87620 0.04100
H 	H 	0.55070 0.26420 0.89250 0.04800
H 	H 	0.52650 0.31290 0.91440 0.03200
C 	C 	0.44760 0.37450 0.79100 0.02700
H 	H 	0.44800 0.39360 0.83340 0.03600
H 	H 	0.42800 0.39150 0.75710 0.06000
C 	C 	0.47450 0.22200 0.84470 0.30300
C 	C 	0.43570 0.29630 0.86150 0.05400
H 	H 	0.43370 0.31380 0.90580 0.02600
C 	C 	0.39690 0.25930 0.85990 0.04700
H 	H 	0.38070 0.25520 0.90490 0.03500
C 	C 	0.38250 0.32070 0.77890 0.26500
C 	C 	0.40240 0.16910 0.84090 0.01100
H 	H 	0.42670 0.14460 0.84950 0.07400
H 	H 	0.38040 0.16860 0.88020 0.06800
C 	C 	0.31960 0.25730 0.79100 0.04000
H 	H 	0.29930 0.28180 0.76970 0.05400
H 	H 	0.30500 0.24830 0.83500 0.05600
C 	C 	0.38740 0.11610 0.73980 0.27400
C 	C 	0.32520 0.16740 0.76690 0.05700
H 	H 	0.30470 0.16000 0.80700 0.05400
C 	C 	0.31370 0.13700 0.70660 0.05700
H 	H 	0.28350 0.11930 0.71350 0.05300
C 	C 	0.30700 0.21780 0.68040 0.29200
C 	C 	0.35470 0.06227 0.65500 0.02600
H 	H 	0.32270 0.04820 0.65480 0.06800
H 	H 	0.37650 0.03910 0.67590 0.06800
C 	C 	0.29040 0.16010 0.58430 0.02500
H 	H 	0.26490 0.13630 0.58880 0.05800
H 	H 	0.27650 0.18910 0.56410 0.05600
N 	N 	0.36962 0.07115 0.58360 -0.14600
N 	N 	0.41481 0.06908 0.49040 -0.15500
N 	N 	0.32751 0.14171 0.53870 -0.13800
N 	N 	0.37132 0.13653 0.44370 -0.15000
N 	N 	0.48109 0.08470 0.41530 -0.15500
N 	N 	0.54820 0.11972 0.38530 -0.15100
N 	N 	0.43686 0.15263 0.36910 -0.14900
N 	N 	0.50472 0.18395 0.32710 -0.14500
N 	N 	0.61132 0.17738 0.39750 -0.14800
N 	N 	0.65285 0.23384 0.45170 -0.14800
N 	N 	0.57086 0.23900 0.33070 -0.14900
N 	N 	0.61147 0.29506 0.38500 -0.14900
N 	N 	0.66796 0.28778 0.54610 -0.14900
N 	N 	0.65590 0.32390 0.64320 -0.14700
N 	N 	0.62270 0.34814 0.48090 -0.15200
N 	N 	0.59920 0.37521 0.58240 -0.14100
N 	N 	0.61050 0.33610 0.74930 -0.14000
N 	N 	0.55470 0.31460 0.81940 -0.16200
N 	N 	0.55580 0.38631 0.68700 -0.14700
N 	N 	0.49810 0.37090 0.76380 -0.13300
N 	N 	0.48370 0.27110 0.85790 -0.14300
N 	N 	0.42730 0.21740 0.84040 -0.14700
N 	N 	0.42600 0.32980 0.80540 -0.14600
N 	N 	0.36420 0.27720 0.80400 -0.13800
N 	N 	0.37570 0.15491 0.77970 -0.13500
N 	N 	0.35410 0.10453 0.69600 -0.14900
N 	N 	0.32060 0.21550 0.74610 -0.14800
N 	N 	0.30960 0.17127 0.65250 -0.13500
O 	O 	0.44355 0.03548 0.59100 -0.32100
O 	O 	0.54927 0.06593 0.47643 -0.27000
O 	O 	0.63737 0.16235 0.50820 -0.23400
O 	O 	0.67380 0.24539 0.64800 -0.24800
O 	O 	0.61400 0.26123 0.80580 -0.22900
O 	O 	0.50200 0.19150 0.84440 -0.25300
O 	O 	0.42790 0.09732 0.74470 -0.21600
O 	O 	0.33638 0.20884 0.47090 -0.23600
O 	O 	0.44018 0.23441 0.34700 -0.22700
O 	O 	0.53754 0.31421 0.34260 -0.22800
O 	O 	0.55022 0.38627 0.48700 -0.25600
O 	O 	0.47450 0.39164 0.65300 -0.19000
O 	O 	0.36080 0.34468 0.73640 -0.22700
O 	O 	0.29781 0.25319 0.64900 -0.24200
O 	O 	0.47010 0.00930 0.74410 -0.14600
Rb	Rb	0.53498 0.06171 0.63724 0.69700
C 	C 	0.58778 0.94281 0.55860 0.28600
C 	C 	0.66073 0.90969 0.53060 0.05200
H 	H 	0.69020 0.92900 0.52580 0.04400
C 	C 	0.63078 0.91267 0.46630 0.06400
H 	H 	0.64540 0.93370 0.43110 0.02200
C 	C 	0.65521 0.83270 0.48280 0.27100
C 	C 	0.55064 0.95108 0.44640 0.04100
H 	H 	0.56690 0.96870 0.40960 0.03300
H 	H 	0.53130 0.97390 0.47270 0.04100
C 	C 	0.61265 0.85120 0.37440 0.05100
H 	H 	0.62390 0.87570 0.34210 0.02400
H 	H 	0.62710 0.82070 0.36090 0.04200
C 	C 	0.47156 0.91190 0.43000 0.26700
C 	C 	0.53220 0.88882 0.35640 0.06400
H 	H 	0.54610 0.90990 0.32060 0.01700
C 	C 	0.48450 0.86639 0.33130 0.06000
H 	H 	0.47470 0.87940 0.28600 0.01800
C 	C 	0.54120 0.80631 0.34830 0.25600
C 	C 	0.40130 0.87166 0.38130 0.04100
H 	H 	0.39020 0.87920 0.33460 0.02700
H 	H 	0.38480 0.89310 0.41340 0.04700
C 	C 	0.46540 0.78139 0.28990 0.04700
H 	H 	0.45060 0.79740 0.25030 0.02600
H 	H 	0.48580 0.75580 0.27210 0.04400
C 	C 	0.36551 0.81199 0.45700 0.26500
C 	C 	0.38401 0.78520 0.34630 0.05800
H 	H 	0.36720 0.79620 0.30430 0.02100
C 	C 	0.35566 0.74609 0.38620 0.06500
H 	H 	0.32530 0.73840 0.36250 0.03200
C 	C 	0.42949 0.71462 0.35270 0.27500
C 	C 	0.31380 0.74830 0.49950 0.04400
H 	H 	0.28680 0.73480 0.47400 0.04600
H 	H 	0.30160 0.77510 0.52690 0.04400
C 	C 	0.37470 0.65829 0.40760 0.05200
H 	H 	0.39540 0.63470 0.38530 0.02400
H 	H 	0.34190 0.65210 0.39240 0.05100
C 	C 	0.33380 0.71900 0.61530 0.29100
C 	C 	0.33740 0.66240 0.52410 0.06200
H 	H 	0.30730 0.64950 0.50490 0.05200
C 	C 	0.35060 0.63840 0.59210 0.05600
H 	H 	0.33010 0.61040 0.60180 0.04400
C 	C 	0.41310 0.62820 0.51490 0.26600
C 	C 	0.34040 0.66630 0.71620 0.02900
H 	H 	0.32370 0.63590 0.72310 0.03700
H 	H 	0.32160 0.69160 0.73840 0.05100
C 	C 	0.42580 0.59088 0.62780 0.02700
H 	H 	0.40370 0.56560 0.64200 0.04700
H 	H 	0.45210 0.57590 0.60230 0.06700
C 	C 	0.40870 0.70110 0.79130 0.27700
C 	C 	0.42090 0.62350 0.74970 0.06900
H 	H 	0.40280 0.59490 0.76430 0.02300
C 	C 	0.45730 0.63540 0.80400 0.05000
H 	H 	0.45550 0.61420 0.84490 0.02500
C 	C 	0.49090 0.61602 0.69620 0.24300
C 	C 	0.46960 0.70970 0.87620 0.04100
H 	H 	0.44930 0.73580 0.89250 0.04800
H 	H 	0.47350 0.68710 0.91440 0.03200
C 	C 	0.55240 0.62550 0.79100 0.02700
H 	H 	0.55200 0.60640 0.83340 0.03600
H 	H 	0.57200 0.60850 0.75710 0.06000
C 	C 	0.52550 0.77800 0.84470 0.30300
C 	C 	0.56430 0.70370 0.86150 0.05400
H 	H 	0.56630 0.68620 0.90580 0.02600
C 	C 	0.60310 0.74070 0.85990 0.04700
H 	H 	0.61930 0.74480 0.90490 0.03500
C 	C 	0.61750 0.67930 0.77890 0.26500
C 	C 	0.59760 0.83090 0.84090 0.01100
H 	H 	0.57330 0.85540 0.84950 0.07400
H 	H 	0.61960 0.83140 0.88020 0.06800
C 	C 	0.68040 0.74270 0.79100 0.04000
H 	H 	0.70070 0.71820 0.76970 0.05400
H 	H 	0.69500 0.75170 0.83500 0.05600
C 	C 	0.61260 0.88390 0.73980 0.27400
C 	C 	0.67480 0.83260 0.76690 0.05700
H 	H 	0.69530 0.84000 0.80700 0.05400
C 	C 	0.68630 0.86300 0.70660 0.05700
H 	H 	0.71650 0.88070 0.71350 0.05300
C 	C 	0.69300 0.78220 0.68040 0.29200
C 	C 	0.64530 0.93773 0.65500 0.02600
H 	H 	0.67730 0.95180 0.65480 0.06800
H 	H 	0.62350 0.96090 0.67590 0.06800
C 	C 	0.70960 0.83990 0.58430 0.02500
H 	H 	0.73510 0.86370 0.58880 0.05800
H 	H 	0.72350 0.81090 0.56410 0.05600
N 	N 	0.63038 0.92885 0.58360 -0.14600
N 	N 	0.58519 0.93092 0.49040 -0.15500
N 	N 	0.67249 0.85829 0.53870 -0.13800
N 	N 	0.62868 0.86347 0.44370 -0.15000
N 	N 	0.51891 0.91530 0.41530 -0.15500
N 	N 	0.45180 0.88028 0.38530 -0.15100
N 	N 	0.56314 0.84737 0.36910 -0.14900
N 	N 	0.49528 0.81605 0.32710 -0.14500
N 	N 	0.38868 0.82262 0.39750 -0.14800
N 	N 	0.34715 0.76616 0.45170 -0.14800
N 	N 	0.42914 0.76100 0.33070 -0.14900
N 	N 	0.38853 0.70494 0.38500 -0.14900
N 	N 	0.33204 0.71222 0.54610 -0.14900
N 	N 	0.34410 0.67610 0.64320 -0.14700
N 	N 	0.37730 0.65186 0.48090 -0.15200
N 	N 	0.40080 0.62479 0.58240 -0.14100
N 	N 	0.38950 0.66390 0.74930 -0.14000
N 	N 	0.44530 0.68540 0.81940 -0.16200
N 	N 	0.44420 0.61369 0.68700 -0.14700
N 	N 	0.50190 0.62910 0.76380 -0.13300
N 	N 	0.51630 0.72890 0.85790 -0.14300
N 	N 	0.57270 0.78260 0.84040 -0.14700
N 	N 	0.57400 0.67020 0.80540 -0.14600
N 	N 	0.63580 0.72280 0.80400 -0.13800
N 	N 	0.62430 0.84509 0.77970 -0.13500
N 	N 	0.64590 0.89547 0.69600 -0.14900
N 	N 	0.67940 0.78450 0.74610 -0.14800
N 	N 	0.69040 0.82873 0.65250 -0.13500
O 	O 	0.55645 0.96452 0.59100 -0.32100
O 	O 	0.45073 0.93407 0.47643 -0.27000
O 	O 	0.36263 0.83765 0.50820 -0.23400
O 	O 	0.32620 0.75461 0.64800 -0.24800
O 	O 	0.38600 0.73877 0.80580 -0.22900
O 	O 	0.49800 0.80850 0.84440 -0.25300
O 	O 	0.57210 0.90268 0.74470 -0.21600
O 	O 	0.66362 0.79116 0.47090 -0.23600
O 	O 	0.55982 0.76559 0.34700 -0.22700
O 	O 	0.46246 0.68579 0.34260 -0.22800
O 	O 	0.44978 0.61373 0.48700 -0.25600
O 	O 	0.52550 0.60836 0.65300 -0.19000
O 	O 	0.63920 0.65532 0.73640 -0.22700
O 	O 	0.70219 0.74681 0.64900 -0.24200
O 	O 	0.97010 0.50930 0.24410 -0.14700
Rb	Rb	0.03498 0.56171 0.13724 0.69600
C 	C 	0.08778 0.44281 0.05860 0.27300
C 	C 	0.16073 0.40969 0.03060 0.03700
H 	H 	0.19020 0.42900 0.02580 0.04600
C 	C 	0.13078 0.41267 0.96630 0.07800
H 	H 	0.14540 0.43370 0.93110 0.02000
C 	C 	0.15521 0.33270 0.98280 0.28400
C 	C 	0.05064 0.45108 0.94640 0.04000
H 	H 	0.06690 0.46870 0.90960 0.03400
H 	H 	0.03130 0.47390 0.97270 0.04500
C 	C 	0.11265 0.35120 0.87440 0.05200
H 	H 	0.12390 0.37570 0.84210 0.02500
H 	H 	0.12710 0.32070 0.86090 0.04200
C 	C 	0.97156 0.41190 0.93000 0.26700
C 	C 	0.03220 0.38882 0.85640 0.06400
H 	H 	0.04610 0.40990 0.82060 0.01800
C 	C 	0.98450 0.36639 0.83130 0.06000
H 	H 	0.97470 0.37940 0.78600 0.01900
C 	C 	0.04120 0.30631 0.84830 0.25700
C 	C 	0.90130 0.37166 0.88130 0.04100
H 	H 	0.89020 0.37920 0.83460 0.02800
H 	H 	0.88480 0.39310 0.91340 0.05000
C 	C 	0.96540 0.28139 0.78990 0.04600
H 	H 	0.95060 0.29740 0.75030 0.02700
H 	H 	0.98580 0.25580 0.77210 0.04500
C 	C 	0.86551 0.31199 0.95700 0.28600
C 	C 	0.88401 0.28520 0.84630 0.05800
H 	H 	0.86720 0.29620 0.80430 0.02200
C 	C 	0.85566 0.24609 0.88620 0.06800
H 	H 	0.82530 0.23840 0.86250 0.03100
C 	C 	0.92949 0.21462 0.85270 0.27600
C 	C 	0.81380 0.24830 0.99950 0.08800
H 	H 	0.78680 0.23480 0.97400 0.03700
H 	H 	0.80160 0.27510 0.02690 0.02200
C 	C 	0.87470 0.15829 0.90760 0.04900
H 	H 	0.89540 0.13470 0.88530 0.02600
H 	H 	0.84190 0.15210 0.89240 0.05400
C 	C 	0.83380 0.21900 0.11530 0.29200
C 	C 	0.83740 0.16240 0.02410 0.05100
H 	H 	0.80730 0.14950 0.00490 0.05000
C 	C 	0.85060 0.13840 0.09210 0.05700
H 	H 	0.83010 0.11040 0.10180 0.04300
C 	C 	0.91310 0.12820 0.01490 0.23600
C 	C 	0.84040 0.16630 0.21620 0.03000
H 	H 	0.82370 0.13590 0.22310 0.03600
H 	H 	0.82160 0.19160 0.23840 0.05000
C 	C 	0.92580 0.09088 0.12780 0.02700
H 	H 	0.90370 0.06560 0.14200 0.04500
H 	H 	0.95210 0.07590 0.10230 0.06300
C 	C 	0.90870 0.20110 0.29130 0.27600
C 	C 	0.92090 0.12350 0.24970 0.06900
H 	H 	0.90280 0.09490 0.26430 0.02200
C 	C 	0.95730 0.13540 0.30400 0.05000
H 	H 	0.95550 0.11420 0.34490 0.02300
C 	C 	0.99090 0.11602 0.19620 0.24200
C 	C 	0.96960 0.20970 0.37620 0.04200
H 	H 	0.94930 0.23580 0.39250 0.04600
H 	H 	0.97350 0.18710 0.41440 0.02800
C 	C 	0.05240 0.12550 0.29100 0.02800
H 	H 	0.05200 0.10640 0.33340 0.03300
H 	H 	0.07200 0.10850 0.25710 0.05900
C 	C 	0.02550 0.27800 0.34470 0.30300
C 	C 	0.06430 0.20370 0.36150 0.05400
H 	H 	0.06630 0.18620 0.40580 0.02400
C 	C 	0.10310 0.24070 0.35990 0.04700
H 	H 	0.11930 0.24480 0.40490 0.03200
C 	C 	0.11750 0.17930 0.27890 0.26400
C 	C 	0.09760 0.33090 0.34090 0.01200
H 	H 	0.07330 0.35540 0.34950 0.07300
H 	H 	0.11960 0.33140 0.38020 0.06700
C 	C 	0.18040 0.24270 0.29100 0.04000
H 	H 	0.20070 0.21820 0.26970 0.05300
H 	H 	0.19500 0.25170 0.33500 0.05500
C 	C 	0.11260 0.38390 0.23980 0.27300
C 	C 	0.17480 0.33260 0.26690 0.05700
H 	H 	0.19530 0.34000 0.30700 0.05300
C 	C 	0.18630 0.36300 0.20660 0.05600
H 	H 	0.21650 0.38070 0.21350 0.05300
C 	C 	0.19300 0.28220 0.18040 0.29100
C 	C 	0.14530 0.43773 0.15500 0.02500
H 	H 	0.17730 0.45180 0.15480 0.06800
H 	H 	0.12350 0.46090 0.17590 0.06900
C 	C 	0.20960 0.33990 0.08430 0.02600
H 	H 	0.23510 0.36370 0.08880 0.05600
H 	H 	0.22350 0.31090 0.06410 0.05200
N 	N 	0.13038 0.42885 0.08360 -0.14300
N 	N 	0.08519 0.43092 0.99040 -0.14800
N 	N 	0.17249 0.35829 0.03870 -0.14500
N 	N 	0.12868 0.36347 0.94370 -0.15200
N 	N 	0.01891 0.41530 0.91530 -0.15400
N 	N 	0.95180 0.38028 0.88530 -0.15000
N 	N 	0.06314 0.34737 0.86910 -0.14900
N 	N 	0.99528 0.31605 0.82710 -0.14500
N 	N 	0.88868 0.32262 0.89750 -0.15000
N 	N 	0.84715 0.26616 0.95170 -0.15500
N 	N 	0.92914 0.26100 0.83070 -0.14900
N 	N 	0.88853 0.20494 0.88500 -0.14800
N 	N 	0.83204 0.21222 0.04610 -0.15900
N 	N 	0.84410 0.17610 0.14320 -0.14700
N 	N 	0.87730 0.15186 0.98090 -0.13600
N 	N 	0.90080 0.12479 0.08240 -0.13800
N 	N 	0.88950 0.16390 0.24930 -0.14000
N 	N 	0.94530 0.18540 0.31940 -0.16300
N 	N 	0.94420 0.11369 0.18700 -0.14700
N 	N 	0.00190 0.12910 0.26380 -0.13300
N 	N 	0.01630 0.22890 0.35790 -0.14400
N 	N 	0.07270 0.28260 0.34040 -0.14700
N 	N 	0.07400 0.17020 0.30540 -0.14600
N 	N 	0.13580 0.22280 0.30400 -0.13900
N 	N 	0.12430 0.34509 0.27970 -0.13600
N 	N 	0.14590 0.39547 0.19600 -0.14900
N 	N 	0.17940 0.28450 0.24610 -0.14800
N 	N 	0.19040 0.32873 0.15250 -0.13600
O 	O 	0.05645 0.46452 0.09100 -0.32300
O 	O 	0.95073 0.43407 0.97643 -0.26500
O 	O 	0.86263 0.33765 0.00820 -0.25200
O 	O 	0.82620 0.25461 0.14800 -0.24900
O 	O 	0.88600 0.23877 0.30580 -0.23000
O 	O 	0.99800 0.30850 0.34440 -0.25500
O 	O 	0.07210 0.40268 0.24470 -0.21700
O 	O 	0.16362 0.29116 0.97090 -0.23400
O 	O 	0.05982 0.26559 0.84700 -0.22600
O 	O 	0.96246 0.18579 0.84260 -0.22800
O 	O 	0.94978 0.11373 0.98700 -0.23700
O 	O 	0.02550 0.10836 0.15300 -0.19300
O 	O 	0.13920 0.15532 0.23640 -0.22900
O 	O 	0.20219 0.24681 0.14900 -0.24400
