data_crystal

_cell_length_a 11.96770
_cell_length_b 12.20120
_cell_length_c 14.73860
_cell_angle_alpha 67.61300
_cell_angle_beta  74.52700
_cell_angle_gamma 63.72400

_symmetry_space_group_name_	'P 1'
_symmetry_space_group_name_H-M	'P 1'

loop_
_symmetry_equiv_pos_as_xyz
  x,y,z

loop_
_atom_site_label
_atom_site_type_symbol
_atom_site_fract_x
_atom_site_fract_y
_atom_site_fract_z
_atom_site_charge
Mo	Mo	0.27920 0.29688 0.32419 1.07900
Mo	Mo	0.74730 0.80512 0.33591 1.08900
Mo	Mo	0.52953 0.81078 0.33217 1.08900
Mo	Mo	0.57448 0.29207 0.32656 1.08300
Mo	Mo	0.77406 0.08370 0.32996 1.07100
Mo	Mo	0.26363 0.09394 0.32171 1.06900
Mn	Mn	0.26165 0.83702 0.00873 1.30500
P 	P 	0.55176 0.10838 0.21232 0.52100
P 	P 	0.38521 0.51308 0.15815 0.54500
P 	P 	0.30616 0.90377 0.19454 0.55600
P 	P 	0.93402 0.92838 0.16496 0.58500
O 	O 	0.61400 0.11580 0.41760 -0.63800
O 	O 	0.58680 0.85860 0.42030 -0.60900
O 	O 	0.33860 0.11890 0.41310 -0.63600
O 	O 	0.81400 0.88550 0.40530 -0.43800
O 	O 	0.38670 0.33230 0.39560 -0.46900
O 	O 	0.67540 0.02180 0.26110 -0.47700
O 	O 	0.24800 0.25630 0.22080 -0.47300
O 	O 	0.34760 0.89630 0.39640 -0.45000
O 	O 	0.48370 0.22460 0.25470 -0.42500
O 	O 	0.67550 0.80150 0.23420 -0.46000
O 	O 	0.71690 0.24750 0.22850 -0.50800
O 	O 	0.46850 0.02860 0.25060 -0.42900
O 	O 	0.08070 0.86630 0.13740 -0.30200
O 	O 	0.87180 0.99200 0.07260 -0.38200
O 	O 	0.57660 0.15500 0.10130 -0.37200
O 	O 	0.89830 0.81390 0.23370 -0.38800
O 	O 	0.25290 0.03570 0.21240 -0.40900
O 	O 	0.91310 0.01810 0.22400 -0.44000
O 	O 	0.30940 0.92570 0.08560 -0.33600
O 	O 	0.49440 0.46050 0.21880 -0.38500
O 	O 	0.44170 0.82820 0.22280 -0.36400
O 	O 	0.27950 0.46960 0.22160 -0.39100
O 	O 	0.43350 0.44640 0.07390 -0.20500
O 	O 	0.22280 0.82860 0.25840 -0.25600
O 	O 	0.34730 0.65360 0.11250 -0.39400
Mo	Mo	0.72080 0.70312 0.67581 1.08100
Mo	Mo	0.25270 0.19488 0.66409 1.07500
Mo	Mo	0.47047 0.18922 0.66783 1.07600
Mo	Mo	0.42552 0.70793 0.67344 1.08400
Mo	Mo	0.22594 0.91630 0.67004 1.09400
Mo	Mo	0.73637 0.90606 0.67829 1.09500
Mn	Mn	0.73835 0.16298 0.99127 1.29600
P 	P 	0.44824 0.89162 0.78768 0.52100
P 	P 	0.61479 0.48692 0.84185 0.54500
P 	P 	0.69384 0.09623 0.80546 0.48200
P 	P 	0.06598 0.07162 0.83504 0.50000
O 	O 	0.38600 0.88420 0.58240 -0.60700
O 	O 	0.41320 0.14140 0.57970 -0.64400
O 	O 	0.66140 0.88110 0.58690 -0.60300
O 	O 	0.18600 0.11450 0.59470 -0.49400
O 	O 	0.61330 0.66770 0.60440 -0.46900
O 	O 	0.32460 0.97820 0.73890 -0.41900
O 	O 	0.75200 0.74370 0.77920 -0.46600
O 	O 	0.65240 0.10370 0.60360 -0.50200
O 	O 	0.51630 0.77540 0.74530 -0.42300
O 	O 	0.32450 0.19850 0.76580 -0.48500
O 	O 	0.28310 0.75250 0.77150 -0.50100
O 	O 	0.53150 0.97140 0.74940 -0.37600
O 	O 	0.91930 0.13370 0.86260 -0.30800
O 	O 	0.12820 0.00800 0.92740 -0.43400
O 	O 	0.42340 0.84500 0.89870 -0.34400
O 	O 	0.10170 0.18610 0.76630 -0.39500
O 	O 	0.74710 0.96430 0.78760 -0.32300
O 	O 	0.08690 0.98190 0.77600 -0.35200
O 	O 	0.69060 0.07430 0.91440 -0.35900
O 	O 	0.50560 0.53950 0.78120 -0.38300
O 	O 	0.55830 0.17180 0.77720 -0.37400
O 	O 	0.72050 0.53040 0.77840 -0.38900
O 	O 	0.56650 0.55360 0.92610 -0.19700
O 	O 	0.77720 0.17140 0.74160 -0.26600
O 	O 	0.65270 0.34640 0.88750 -0.39100
Mn	Mn	0.50000 0.00000 0.50000 1.29900
