data_crystal

_cell_length_a 15.63900
_cell_length_b 21.42600
_cell_length_c 15.99810
_cell_angle_alpha 90.00000
_cell_angle_beta  94.58870
_cell_angle_gamma 90.00000

_symmetry_space_group_name_	'P 1'
_symmetry_space_group_name_H-M	'P 1'

loop_
_symmetry_equiv_pos_as_xyz
  x,y,z

loop_
_atom_site_label
_atom_site_type_symbol
_atom_site_fract_x
_atom_site_fract_y
_atom_site_fract_z
_atom_site_charge
Zn	Zn	0.80710 0.76332 0.94616 1.21700
Zn	Zn	0.32564 0.25657 0.43224 1.21500
O 	O 	0.72282 0.71338 0.87196 -0.46200
O 	O 	0.63603 0.69417 0.97352 -0.46600
O 	O 	0.38087 0.32679 0.50054 -0.46500
O 	O 	0.26803 0.34162 0.57603 -0.46500
O 	O 	0.24294 0.19222 0.38202 -0.46600
O 	O 	0.16137 0.18214 0.49029 -0.46100
O 	O 	0.86871 0.81049 0.04220 -0.46600
O 	O 	0.75877 0.82513 0.12102 -0.45000
N 	N 	0.89871 0.77527 0.86520 -0.26100
N 	N 	0.58213 0.74895 0.15004 -0.25800
C 	C 	0.97260 0.80366 0.88832 0.09400
H 	H 	0.98100 0.81970 0.94370 -0.00200
C 	C 	0.03746 0.81092 0.83565 -0.16300
H 	H 	0.08930 0.83150 0.85430 0.09200
C 	C 	0.02520 0.78759 0.75503 0.12600
C 	C 	0.94791 0.75929 0.73036 -0.16600
H 	H 	0.93710 0.74390 0.67480 0.09900
C 	C 	0.88666 0.75361 0.78728 0.09500
H 	H 	0.83400 0.73350 0.77020 0.00300
C 	C 	0.09119 0.78875 0.69789 -0.07200
C 	C 	0.14207 0.78514 0.64656 0.02400
C 	C 	0.20058 0.77962 0.58075 -0.03300
C 	C 	0.23224 0.71287 0.56900 0.01600
C 	C 	0.21380 0.66175 0.61690 -0.06900
H 	H 	0.17470 0.66540 0.65910 0.05300
C 	C 	0.25280 0.60500 0.60280 -0.02900
H 	H 	0.24130 0.56990 0.63640 0.03700
C 	C 	0.30860 0.59910 0.54000 -0.03400
H 	H 	0.33530 0.56010 0.53090 0.04400
C 	C 	0.32550 0.65034 0.49030 -0.06400
H 	H 	0.36250 0.64620 0.44640 0.05500
C 	C 	0.28789 0.70719 0.50530 0.01400
C 	C 	0.30429 0.76906 0.46101 -0.03300
C 	C 	0.21546 0.79546 0.43130 0.01600
C 	C 	0.16039 0.80074 0.49495 0.01800
C 	C 	0.07887 0.82435 0.47910 -0.06700
H 	H 	0.04090 0.82660 0.52250 0.06000
C 	C 	0.05300 0.84496 0.39860 -0.02700
H 	H 	0.99760 0.86270 0.38700 0.04300
C 	C 	0.10760 0.83970 0.33550 -0.02800
H 	H 	0.08920 0.85330 0.28050 0.04200
C 	C 	0.18950 0.81477 0.35130 -0.06300
H 	H 	0.22680 0.81120 0.30750 0.05500
C 	C 	0.28331 0.81843 0.59652 0.01400
C 	C 	0.30520 0.85541 0.66550 -0.06000
H 	H 	0.26720 0.85970 0.70850 0.05400
C 	C 	0.38300 0.88607 0.67110 -0.03100
H 	H 	0.39830 0.91220 0.71790 0.04400
C 	C 	0.43860 0.87914 0.60930 -0.02100
H 	H 	0.49230 0.90010 0.61410 0.03900
C 	C 	0.41680 0.84158 0.53960 -0.07000
H 	H 	0.45560 0.83630 0.49750 0.06200
C 	C 	0.33864 0.81242 0.53285 0.02100
C 	C 	0.36135 0.76342 0.39370 0.02300
C 	C 	0.40623 0.75932 0.33710 -0.06900
C 	C 	0.46401 0.75493 0.27143 0.12300
C 	C 	0.53841 0.72021 0.28428 -0.16300
H 	H 	0.55020 0.69740 0.33480 0.09600
C 	C 	0.59550 0.71908 0.22265 0.09900
H 	H 	0.64690 0.69570 0.23270 -0.00100
C 	C 	0.50836 0.78147 0.13749 0.08800
H 	H 	0.49730 0.80280 0.08570 0.00200
C 	C 	0.44775 0.78556 0.19605 -0.15800
H 	H 	0.39650 0.80880 0.18450 0.09200
C 	C 	0.66146 0.68536 0.90192 0.39000
C 	C 	0.61507 0.63752 0.84668 -0.11800
C 	C 	0.63563 0.62890 0.76463 0.03900
H 	H 	0.68050 0.65270 0.74380 0.03700
C 	C 	0.59137 0.58593 0.71285 -0.10300
H 	H 	0.60650 0.58050 0.65700 0.06900
C 	C 	0.52501 0.55055 0.74168 0.03900
C 	C 	0.50583 0.55901 0.82458 -0.10400
H 	H 	0.46130 0.53500 0.84580 0.06400
C 	C 	0.55003 0.60147 0.87632 0.04300
H 	H 	0.53600 0.60610 0.93270 0.02600
C 	C 	0.47574 0.50444 0.68797 0.03900
C 	C 	0.51168 0.47446 0.62176 -0.10700
H 	H 	0.56740 0.48600 0.60770 0.06500
C 	C 	0.46723 0.42824 0.57641 0.03900
H 	H 	0.49270 0.40840 0.53150 0.02800
C 	C 	0.38541 0.41046 0.59586 -0.12700
C 	C 	0.34792 0.44210 0.65887 0.04200
H 	H 	0.29130 0.43170 0.67130 0.02700
C 	C 	0.39185 0.48874 0.70401 -0.10800
H 	H 	0.36470 0.51040 0.74640 0.06500
C 	C 	0.34071 0.35569 0.55361 0.38800
C 	C 	0.18368 0.16713 0.41947 0.38900
C 	C 	0.13534 0.11526 0.37442 -0.12200
C 	C 	0.07437 0.08177 0.41342 0.04300
H 	H 	0.06510 0.09030 0.47030 0.02600
C 	C 	0.02658 0.03587 0.37030 -0.10400
H 	H 	0.98570 0.01270 0.39830 0.06400
C 	C 	0.03778 0.02334 0.28650 0.03800
C 	C 	0.09994 0.05671 0.24768 -0.10200
H 	H 	0.10900 0.04850 0.19070 0.06500
C 	C 	0.14868 0.10173 0.29129 0.04300
H 	H 	0.19160 0.12360 0.26430 0.03100
C 	C 	0.98481 0.97587 0.23890 0.04600
C 	C 	0.90130 0.96300 0.25740 -0.11000
H 	H 	0.87740 0.98550 0.30110 0.06800
C 	C 	0.85220 0.91830 0.21360 0.04700
H 	H 	0.79530 0.91030 0.22770 0.02800
C 	C 	0.88501 0.88511 0.14966 -0.12700
C 	C 	0.96843 0.89755 0.13018 0.04600
H 	H 	0.99210 0.87510 0.08630 0.02800
C 	C 	0.01715 0.94224 0.17423 -0.11400
H 	H 	0.07400 0.95010 0.16000 0.06500
C 	C 	0.83268 0.83679 0.10066 0.38700
Zn	Zn	0.19290 0.26332 0.55384 1.21600
Zn	Zn	0.67436 0.75657 0.06776 1.21400
O 	O 	0.27718 0.21338 0.62804 -0.46200
O 	O 	0.36397 0.19417 0.52648 -0.46600
O 	O 	0.61913 0.82679 0.99946 -0.46500
O 	O 	0.73197 0.84162 0.92397 -0.46500
O 	O 	0.75706 0.69222 0.11798 -0.46600
O 	O 	0.83863 0.68214 0.00971 -0.46100
O 	O 	0.13129 0.31049 0.45780 -0.46600
O 	O 	0.24123 0.32513 0.37898 -0.44900
N 	N 	0.10129 0.27527 0.63480 -0.26100
N 	N 	0.41787 0.24895 0.34996 -0.25800
C 	C 	0.02740 0.30366 0.61168 0.09700
H 	H 	0.01900 0.31970 0.55630 -0.00200
C 	C 	0.96254 0.31092 0.66435 -0.16500
H 	H 	0.91070 0.33150 0.64570 0.09200
C 	C 	0.97480 0.28759 0.74497 0.12400
C 	C 	0.05209 0.25929 0.76964 -0.16300
H 	H 	0.06290 0.24390 0.82520 0.09900
C 	C 	0.11334 0.25361 0.71272 0.09500
H 	H 	0.16600 0.23350 0.72980 0.00300
C 	C 	0.90881 0.28875 0.80211 -0.07300
C 	C 	0.85793 0.28514 0.85344 0.02400
C 	C 	0.79942 0.27962 0.91925 -0.03600
C 	C 	0.76776 0.21287 0.93100 0.01900
C 	C 	0.78620 0.16175 0.88310 -0.07300
H 	H 	0.82530 0.16540 0.84090 0.05400
C 	C 	0.74720 0.10500 0.89720 -0.02500
H 	H 	0.75870 0.06990 0.86360 0.03500
C 	C 	0.69140 0.09910 0.96000 -0.04000
H 	H 	0.66470 0.06010 0.96910 0.04500
C 	C 	0.67450 0.15034 0.00970 -0.05700
H 	H 	0.63750 0.14620 0.05360 0.05300
C 	C 	0.71211 0.20719 0.99470 0.00900
C 	C 	0.69571 0.26906 0.03899 -0.02900
C 	C 	0.78454 0.29546 0.06870 0.01400
C 	C 	0.83961 0.30074 0.00505 0.02100
C 	C 	0.92113 0.32435 0.02090 -0.06600
H 	H 	0.95910 0.32660 0.97750 0.05900
C 	C 	0.94700 0.34496 0.10140 -0.02100
H 	H 	0.00240 0.36270 0.11300 0.04000
C 	C 	0.89240 0.33970 0.16450 -0.03100
H 	H 	0.91080 0.35330 0.21950 0.04400
C 	C 	0.81050 0.31477 0.14870 -0.06100
H 	H 	0.77320 0.31120 0.19250 0.05400
C 	C 	0.71669 0.31843 0.90348 0.01600
C 	C 	0.69480 0.35541 0.83450 -0.06100
H 	H 	0.73280 0.35970 0.79150 0.05500
C 	C 	0.61700 0.38607 0.82890 -0.03100
H 	H 	0.60170 0.41220 0.78210 0.04400
C 	C 	0.56140 0.37914 0.89070 -0.02200
H 	H 	0.50770 0.40010 0.88590 0.03900
C 	C 	0.58320 0.34158 0.96040 -0.07000
H 	H 	0.54440 0.33630 0.00250 0.06200
C 	C 	0.66136 0.31242 0.96715 0.01800
C 	C 	0.63865 0.26342 0.10630 0.02200
C 	C 	0.59377 0.25932 0.16290 -0.06800
C 	C 	0.53599 0.25493 0.22857 0.12300
C 	C 	0.46159 0.22021 0.21572 -0.16300
H 	H 	0.44980 0.19740 0.16520 0.09600
C 	C 	0.40450 0.21908 0.27735 0.09900
H 	H 	0.35310 0.19570 0.26730 -0.00100
C 	C 	0.49164 0.28147 0.36251 0.08800
H 	H 	0.50270 0.30280 0.41430 0.00200
C 	C 	0.55225 0.28556 0.30395 -0.15800
H 	H 	0.60350 0.30880 0.31550 0.09200
C 	C 	0.33854 0.18536 0.59808 0.39000
C 	C 	0.38493 0.13752 0.65332 -0.11800
C 	C 	0.36437 0.12890 0.73537 0.04000
H 	H 	0.31950 0.15270 0.75620 0.03700
C 	C 	0.40863 0.08593 0.78715 -0.10300
H 	H 	0.39350 0.08050 0.84300 0.07000
C 	C 	0.47499 0.05055 0.75832 0.04000
C 	C 	0.49417 0.05901 0.67542 -0.10500
H 	H 	0.53870 0.03500 0.65420 0.06400
C 	C 	0.44997 0.10147 0.62368 0.04400
H 	H 	0.46400 0.10610 0.56730 0.02600
C 	C 	0.52426 0.00444 0.81203 0.03700
C 	C 	0.48832 0.97446 0.87824 -0.10600
H 	H 	0.43260 0.98600 0.89230 0.06400
C 	C 	0.53277 0.92824 0.92359 0.03800
H 	H 	0.50730 0.90840 0.96850 0.02800
C 	C 	0.61459 0.91046 0.90414 -0.12600
C 	C 	0.65208 0.94210 0.84113 0.04100
H 	H 	0.70870 0.93170 0.82870 0.02700
C 	C 	0.60815 0.98874 0.79599 -0.10600
H 	H 	0.63530 0.01040 0.75360 0.06400
C 	C 	0.65929 0.85569 0.94639 0.38700
C 	C 	0.81632 0.66713 0.08053 0.38900
C 	C 	0.86466 0.61526 0.12558 -0.12100
C 	C 	0.92563 0.58177 0.08658 0.04200
H 	H 	0.93490 0.59030 0.02970 0.02700
C 	C 	0.97342 0.53587 0.12970 -0.10200
H 	H 	0.01430 0.51270 0.10170 0.06200
C 	C 	0.96222 0.52334 0.21350 0.04200
C 	C 	0.90006 0.55671 0.25232 -0.10400
H 	H 	0.89100 0.54850 0.30930 0.06600
C 	C 	0.85132 0.60173 0.20871 0.04400
H 	H 	0.80840 0.62360 0.23570 0.03100
C 	C 	0.01519 0.47587 0.26110 0.03600
C 	C 	0.09870 0.46300 0.24260 -0.10400
H 	H 	0.12260 0.48550 0.19890 0.06600
C 	C 	0.14780 0.41830 0.28640 0.04200
H 	H 	0.20470 0.41030 0.27230 0.03000
C 	C 	0.11499 0.38511 0.35034 -0.12200
C 	C 	0.03157 0.39755 0.36982 0.03600
H 	H 	0.00790 0.37510 0.41370 0.03100
C 	C 	0.98285 0.44224 0.32577 -0.10100
H 	H 	0.92600 0.45010 0.34000 0.06100
C 	C 	0.16732 0.33679 0.39934 0.38500
Zn	Zn	0.19290 0.23668 0.05384 1.21600
Zn	Zn	0.67436 0.74343 0.56776 1.21400
O 	O 	0.27718 0.28662 0.12804 -0.46200
O 	O 	0.36397 0.30583 0.02648 -0.46600
O 	O 	0.61913 0.67321 0.49946 -0.46500
O 	O 	0.73197 0.65838 0.42397 -0.46500
O 	O 	0.75706 0.80778 0.61798 -0.46600
O 	O 	0.83863 0.81786 0.50971 -0.46100
O 	O 	0.13129 0.18951 0.95780 -0.46600
O 	O 	0.24123 0.17487 0.87898 -0.45000
N 	N 	0.10129 0.22473 0.13480 -0.26100
N 	N 	0.41787 0.25105 0.84996 -0.25800
C 	C 	0.02740 0.19634 0.11168 0.09400
H 	H 	0.01900 0.18030 0.05630 -0.00200
C 	C 	0.96254 0.18908 0.16435 -0.16300
H 	H 	0.91070 0.16850 0.14570 0.09200
C 	C 	0.97480 0.21241 0.24497 0.12600
C 	C 	0.05209 0.24071 0.26964 -0.16600
H 	H 	0.06290 0.25610 0.32520 0.09900
C 	C 	0.11334 0.24639 0.21272 0.09500
H 	H 	0.16600 0.26650 0.22980 0.00300
C 	C 	0.90881 0.21125 0.30211 -0.07200
C 	C 	0.85793 0.21486 0.35344 0.02400
C 	C 	0.79942 0.22038 0.41925 -0.03300
C 	C 	0.76776 0.28713 0.43100 0.01600
C 	C 	0.78620 0.33825 0.38310 -0.06900
H 	H 	0.82530 0.33460 0.34090 0.05300
C 	C 	0.74720 0.39500 0.39720 -0.02900
H 	H 	0.75870 0.43010 0.36360 0.03700
C 	C 	0.69140 0.40090 0.46000 -0.03400
H 	H 	0.66470 0.43990 0.46910 0.04400
C 	C 	0.67450 0.34966 0.50970 -0.06400
H 	H 	0.63750 0.35380 0.55360 0.05500
C 	C 	0.71211 0.29281 0.49470 0.01400
C 	C 	0.69571 0.23094 0.53899 -0.03300
C 	C 	0.78454 0.20454 0.56870 0.01600
C 	C 	0.83961 0.19926 0.50505 0.01800
C 	C 	0.92113 0.17565 0.52090 -0.06700
H 	H 	0.95910 0.17340 0.47750 0.06000
C 	C 	0.94700 0.15504 0.60140 -0.02700
H 	H 	0.00240 0.13730 0.61300 0.04300
C 	C 	0.89240 0.16030 0.66450 -0.02800
H 	H 	0.91080 0.14670 0.71950 0.04200
C 	C 	0.81050 0.18523 0.64870 -0.06300
H 	H 	0.77320 0.18880 0.69250 0.05500
C 	C 	0.71669 0.18157 0.40348 0.01400
C 	C 	0.69480 0.14459 0.33450 -0.06000
H 	H 	0.73280 0.14030 0.29150 0.05400
C 	C 	0.61700 0.11393 0.32890 -0.03100
H 	H 	0.60170 0.08780 0.28210 0.04400
C 	C 	0.56140 0.12086 0.39070 -0.02100
H 	H 	0.50770 0.09990 0.38590 0.03900
C 	C 	0.58320 0.15842 0.46040 -0.07000
H 	H 	0.54440 0.16370 0.50250 0.06200
C 	C 	0.66136 0.18758 0.46715 0.02100
C 	C 	0.63865 0.23658 0.60630 0.02300
C 	C 	0.59377 0.24068 0.66290 -0.06900
C 	C 	0.53599 0.24507 0.72857 0.12300
C 	C 	0.46159 0.27979 0.71572 -0.16300
H 	H 	0.44980 0.30260 0.66520 0.09600
C 	C 	0.40450 0.28092 0.77735 0.09900
H 	H 	0.35310 0.30430 0.76730 -0.00100
C 	C 	0.49164 0.21853 0.86251 0.08800
H 	H 	0.50270 0.19720 0.91430 0.00200
C 	C 	0.55225 0.21444 0.80395 -0.15800
H 	H 	0.60350 0.19120 0.81550 0.09200
C 	C 	0.33854 0.31464 0.09808 0.39000
C 	C 	0.38493 0.36248 0.15332 -0.11800
C 	C 	0.36437 0.37110 0.23537 0.03900
H 	H 	0.31950 0.34730 0.25620 0.03700
C 	C 	0.40863 0.41407 0.28715 -0.10300
H 	H 	0.39350 0.41950 0.34300 0.06900
C 	C 	0.47499 0.44945 0.25832 0.03900
C 	C 	0.49417 0.44099 0.17542 -0.10400
H 	H 	0.53870 0.46500 0.15420 0.06400
C 	C 	0.44997 0.39853 0.12368 0.04300
H 	H 	0.46400 0.39390 0.06730 0.02600
C 	C 	0.52426 0.49556 0.31203 0.03900
C 	C 	0.48832 0.52554 0.37824 -0.10700
H 	H 	0.43260 0.51400 0.39230 0.06500
C 	C 	0.53277 0.57176 0.42359 0.03900
H 	H 	0.50730 0.59160 0.46850 0.02800
C 	C 	0.61459 0.58954 0.40414 -0.12700
C 	C 	0.65208 0.55790 0.34113 0.04200
H 	H 	0.70870 0.56830 0.32870 0.02700
C 	C 	0.60815 0.51126 0.29599 -0.10800
H 	H 	0.63530 0.48960 0.25360 0.06500
C 	C 	0.65929 0.64431 0.44639 0.38800
C 	C 	0.81632 0.83287 0.58053 0.38900
C 	C 	0.86466 0.88474 0.62558 -0.12200
C 	C 	0.92563 0.91823 0.58658 0.04300
H 	H 	0.93490 0.90970 0.52970 0.02600
C 	C 	0.97342 0.96413 0.62970 -0.10400
H 	H 	0.01430 0.98730 0.60170 0.06400
C 	C 	0.96222 0.97666 0.71350 0.03800
C 	C 	0.90006 0.94329 0.75232 -0.10200
H 	H 	0.89100 0.95150 0.80930 0.06500
C 	C 	0.85132 0.89827 0.70871 0.04300
H 	H 	0.80840 0.87640 0.73570 0.03100
C 	C 	0.01519 0.02413 0.76110 0.04600
C 	C 	0.09870 0.03700 0.74260 -0.11000
H 	H 	0.12260 0.01450 0.69890 0.06800
C 	C 	0.14780 0.08170 0.78640 0.04700
H 	H 	0.20470 0.08970 0.77230 0.02800
C 	C 	0.11499 0.11489 0.85034 -0.12700
C 	C 	0.03157 0.10245 0.86982 0.04600
H 	H 	0.00790 0.12490 0.91370 0.02800
C 	C 	0.98285 0.05776 0.82577 -0.11400
H 	H 	0.92600 0.04990 0.84000 0.06500
C 	C 	0.16732 0.16321 0.89934 0.38700
Zn	Zn	0.80710 0.73668 0.44616 1.21600
Zn	Zn	0.32564 0.24343 0.93224 1.21400
O 	O 	0.72282 0.78662 0.37196 -0.46200
O 	O 	0.63603 0.80583 0.47352 -0.46600
O 	O 	0.38087 0.17321 0.00054 -0.46500
O 	O 	0.26803 0.15838 0.07603 -0.46500
O 	O 	0.24294 0.30778 0.88202 -0.46600
O 	O 	0.16137 0.31786 0.99029 -0.46100
O 	O 	0.86871 0.68951 0.54220 -0.46600
O 	O 	0.75877 0.67487 0.62102 -0.44900
N 	N 	0.89871 0.72473 0.36520 -0.26100
N 	N 	0.58213 0.75105 0.65004 -0.25800
C 	C 	0.97260 0.69634 0.38832 0.09700
H 	H 	0.98100 0.68030 0.44370 -0.00200
C 	C 	0.03746 0.68908 0.33565 -0.16500
H 	H 	0.08930 0.66850 0.35430 0.09200
C 	C 	0.02520 0.71241 0.25503 0.12400
C 	C 	0.94791 0.74071 0.23036 -0.16300
H 	H 	0.93710 0.75610 0.17480 0.09900
C 	C 	0.88666 0.74639 0.28728 0.09500
H 	H 	0.83400 0.76650 0.27020 0.00300
C 	C 	0.09119 0.71125 0.19789 -0.07300
C 	C 	0.14207 0.71486 0.14656 0.02400
C 	C 	0.20058 0.72038 0.08075 -0.03600
C 	C 	0.23224 0.78713 0.06900 0.01900
C 	C 	0.21380 0.83825 0.11690 -0.07300
H 	H 	0.17470 0.83460 0.15910 0.05400
C 	C 	0.25280 0.89500 0.10280 -0.02500
H 	H 	0.24130 0.93010 0.13640 0.03500
C 	C 	0.30860 0.90090 0.04000 -0.04000
H 	H 	0.33530 0.93990 0.03090 0.04500
C 	C 	0.32550 0.84966 0.99030 -0.05700
H 	H 	0.36250 0.85380 0.94640 0.05300
C 	C 	0.28789 0.79281 0.00530 0.00900
C 	C 	0.30429 0.73094 0.96101 -0.02900
C 	C 	0.21546 0.70454 0.93130 0.01400
C 	C 	0.16039 0.69926 0.99495 0.02100
C 	C 	0.07887 0.67565 0.97910 -0.06600
H 	H 	0.04090 0.67340 0.02250 0.05900
C 	C 	0.05300 0.65504 0.89860 -0.02100
H 	H 	0.99760 0.63730 0.88700 0.04000
C 	C 	0.10760 0.66030 0.83550 -0.03100
H 	H 	0.08920 0.64670 0.78050 0.04400
C 	C 	0.18950 0.68523 0.85130 -0.06100
H 	H 	0.22680 0.68880 0.80750 0.05400
C 	C 	0.28331 0.68157 0.09652 0.01600
C 	C 	0.30520 0.64459 0.16550 -0.06100
H 	H 	0.26720 0.64030 0.20850 0.05500
C 	C 	0.38300 0.61393 0.17110 -0.03100
H 	H 	0.39830 0.58780 0.21790 0.04400
C 	C 	0.43860 0.62086 0.10930 -0.02200
H 	H 	0.49230 0.59990 0.11410 0.03900
C 	C 	0.41680 0.65842 0.03960 -0.07000
H 	H 	0.45560 0.66370 0.99750 0.06200
C 	C 	0.33864 0.68758 0.03285 0.01800
C 	C 	0.36135 0.73658 0.89370 0.02200
C 	C 	0.40623 0.74068 0.83710 -0.06800
C 	C 	0.46401 0.74507 0.77143 0.12300
C 	C 	0.53841 0.77979 0.78428 -0.16300
H 	H 	0.55020 0.80260 0.83480 0.09600
C 	C 	0.59550 0.78092 0.72265 0.09900
H 	H 	0.64690 0.80430 0.73270 -0.00100
C 	C 	0.50836 0.71853 0.63749 0.08800
H 	H 	0.49730 0.69720 0.58570 0.00200
C 	C 	0.44775 0.71444 0.69605 -0.15800
H 	H 	0.39650 0.69120 0.68450 0.09200
C 	C 	0.66146 0.81464 0.40192 0.39000
C 	C 	0.61507 0.86248 0.34668 -0.11800
C 	C 	0.63563 0.87110 0.26463 0.04000
H 	H 	0.68050 0.84730 0.24380 0.03700
C 	C 	0.59137 0.91407 0.21285 -0.10300
H 	H 	0.60650 0.91950 0.15700 0.07000
C 	C 	0.52501 0.94945 0.24168 0.04000
C 	C 	0.50583 0.94099 0.32458 -0.10500
H 	H 	0.46130 0.96500 0.34580 0.06400
C 	C 	0.55003 0.89853 0.37632 0.04400
H 	H 	0.53600 0.89390 0.43270 0.02600
C 	C 	0.47574 0.99556 0.18797 0.03700
C 	C 	0.51168 0.02554 0.12176 -0.10600
H 	H 	0.56740 0.01400 0.10770 0.06400
C 	C 	0.46723 0.07176 0.07641 0.03800
H 	H 	0.49270 0.09160 0.03150 0.02800
C 	C 	0.38541 0.08954 0.09586 -0.12600
C 	C 	0.34792 0.05790 0.15887 0.04100
H 	H 	0.29130 0.06830 0.17130 0.02700
C 	C 	0.39185 0.01126 0.20401 -0.10600
H 	H 	0.36470 0.98960 0.24640 0.06400
C 	C 	0.34071 0.14431 0.05361 0.38700
C 	C 	0.18368 0.33287 0.91947 0.38900
C 	C 	0.13534 0.38474 0.87442 -0.12100
C 	C 	0.07437 0.41823 0.91342 0.04200
H 	H 	0.06510 0.40970 0.97030 0.02700
C 	C 	0.02658 0.46413 0.87030 -0.10200
H 	H 	0.98570 0.48730 0.89830 0.06200
C 	C 	0.03778 0.47666 0.78650 0.04200
C 	C 	0.09994 0.44329 0.74768 -0.10400
H 	H 	0.10900 0.45150 0.69070 0.06600
C 	C 	0.14868 0.39827 0.79129 0.04400
H 	H 	0.19160 0.37640 0.76430 0.03100
C 	C 	0.98481 0.52413 0.73890 0.03600
C 	C 	0.90130 0.53700 0.75740 -0.10400
H 	H 	0.87740 0.51450 0.80110 0.06600
C 	C 	0.85220 0.58170 0.71360 0.04200
H 	H 	0.79530 0.58970 0.72770 0.03000
C 	C 	0.88501 0.61489 0.64966 -0.12200
C 	C 	0.96843 0.60245 0.63018 0.03600
H 	H 	0.99210 0.62490 0.58630 0.03100
C 	C 	0.01715 0.55776 0.67423 -0.10100
H 	H 	0.07400 0.54990 0.66000 0.06100
C 	C 	0.83268 0.66321 0.60066 0.38500
