data_crystal

_cell_length_a 15.82500
_cell_length_b 23.26100
_cell_length_c 23.88300
_cell_angle_alpha 90.00000
_cell_angle_beta  91.14200
_cell_angle_gamma 90.00000

_symmetry_space_group_name_	'P 1'
_symmetry_space_group_name_H-M	'P 1'

loop_
_symmetry_equiv_pos_as_xyz
  x,y,z

loop_
_atom_site_label
_atom_site_type_symbol
_atom_site_fract_x
_atom_site_fract_y
_atom_site_fract_z
_atom_site_charge
Yb	Yb	0.24839 0.78724 0.98956 1.53100
O 	O 	0.13130 0.81570 0.03630 -0.67000
O 	O 	0.15700 0.70750 0.00570 -0.68000
O 	O 	0.26100 0.75610 0.08110 -0.65300
O 	O 	0.23250 0.76620 0.89600 -0.64400
O 	O 	0.36260 0.82240 0.94300 -0.67800
O 	O 	0.34030 0.71270 0.96320 -0.66500
O 	O 	0.18330 0.87390 0.95300 -0.41100
O 	O 	0.31530 0.86670 0.03640 -0.42400
Yb	Yb	0.15837 0.81523 0.13308 1.49200
Yb	Yb	0.02627 0.74910 0.02218 1.46700
H 	H 	0.11270 0.85380 0.02380 0.19100
Yb	Yb	0.19897 0.66708 0.09086 1.52800
H 	H 	0.15550 0.67970 0.97480 0.18100
H 	H 	0.31880 0.75810 0.09640 0.18200
Yb	Yb	0.33102 0.83276 0.84953 1.48700
Yb	Yb	0.30024 0.67874 0.87509 1.51200
H 	H 	0.17410 0.76870 0.88180 0.18500
Yb	Yb	0.46979 0.75718 0.94809 1.51300
H 	H 	0.38080 0.85920 0.95920 0.18900
H 	H 	0.34430 0.68200 0.99120 0.19300
C 	C 	0.19780 0.91140 0.91540 0.35700
C 	C 	0.29720 0.89960 0.07470 0.36600
O 	O 	0.09100 0.73120 0.10850 -0.70600
O 	O 	0.04220 0.87040 0.12210 -0.47800
O 	O 	0.23470 0.76940 0.19780 -0.50400
O 	O 	0.24430 0.88790 0.11350 -0.45500
O 	O 	0.96240 0.83050 0.05590 -0.46100
O 	O 	0.03870 0.77580 0.92650 -0.42600
O 	O 	0.91230 0.76210 0.95890 -0.41400
O 	O 	0.26680 0.67930 0.17610 -0.43700
O 	O 	0.09960 0.59780 0.05970 -0.41600
O 	O 	0.10190 0.61620 0.14850 -0.39100
O 	O 	0.31340 0.62520 0.04370 -0.44500
O 	O 	0.26710 0.57780 0.11310 -0.35400
O 	O 	0.40260 0.74830 0.86190 -0.71000
O 	O 	0.24770 0.79410 0.78140 -0.47500
O 	O 	0.44700 0.89040 0.86840 -0.45900
O 	O 	0.24360 0.90230 0.87390 -0.46000
O 	O 	0.21890 0.70220 0.79810 -0.47000
O 	O 	0.18230 0.63380 0.91360 -0.42900
O 	O 	0.23930 0.58860 0.84510 -0.38800
O 	O 	0.40210 0.61690 0.90390 -0.46600
O 	O 	0.53240 0.84470 0.92980 -0.45600
O 	O 	0.49960 0.66270 0.95170 -0.47400
O 	O 	0.58110 0.75560 0.01550 -0.39400
O 	O 	0.45490 0.76860 0.04650 -0.41400
C 	C 	0.15710 0.96930 0.91800 -0.03400
C 	C 	0.33930 0.95800 0.08020 -0.03700
H 	H 	0.05180 0.71760 0.13680 0.14000
C 	C 	0.27270 0.72330 0.20610 0.40100
C 	C 	0.07580 0.58600 0.10830 0.31200
C 	C 	0.31880 0.58300 0.07170 0.34600
H 	H 	0.44110 0.73940 0.83140 0.12000
C 	C 	0.20940 0.74520 0.77100 0.38700
C 	C 	0.07130 0.97210 0.90440 -0.01800
C 	C 	0.20160 0.01930 0.93060 0.00800
C 	C 	0.42580 0.95720 0.07090 -0.01100
C 	C 	0.29980 0.00900 0.09470 0.00800
C 	C 	0.32950 0.72280 0.25780 -0.11900
C 	C 	0.01200 0.53760 0.11570 -0.09500
C 	C 	0.37440 0.53280 0.06440 -0.09800
C 	C 	0.15310 0.74540 0.71740 -0.11300
C 	C 	0.03010 0.02480 0.90350 -0.02200
H 	H 	0.04150 0.93860 0.89600 0.02300
C 	C 	0.16040 0.07210 0.92970 0.01800
C 	C 	0.28730 0.01660 0.94420 -0.04200
C 	C 	0.47260 0.00750 0.07620 -0.01500
H 	H 	0.45230 0.92300 0.06120 0.02700
C 	C 	0.21330 0.00980 0.10400 -0.05400
C 	C 	0.34660 0.05940 0.09990 0.01300
C 	C 	0.30320 0.75630 0.30220 -0.00100
C 	C 	0.40520 0.68900 0.26420 0.05600
C 	C 	0.97230 0.51640 0.06860 -0.02300
C 	C 	0.99380 0.51370 0.16750 0.04200
C 	C 	0.36730 0.49610 0.01770 0.03700
C 	C 	0.43240 0.52300 0.10550 -0.01600
C 	C 	0.18650 0.77200 0.67190 -0.00500
C 	C 	0.07710 0.71560 0.71290 0.05600
H 	H 	0.97280 0.02670 0.89440 0.03100
C 	C 	0.07470 0.07490 0.91610 -0.04900
C 	C 	0.20490 0.12210 0.94230 -0.03600
C 	C 	0.33190 0.06660 0.95680 -0.04200
H 	H 	0.31490 0.98120 0.94480 0.03000
H 	H 	0.53050 0.00700 0.07000 0.01300
C 	C 	0.43300 0.05860 0.09070 -0.04300
C 	C 	0.17370 0.06090 0.11850 -0.01000
H 	H 	0.18200 0.97610 0.10040 0.04500
C 	C 	0.30700 0.11040 0.11440 -0.03800
C 	C 	0.34760 0.75600 0.35360 -0.03500
H 	H 	0.25550 0.77920 0.29780 0.02400
C 	C 	0.45130 0.69170 0.31580 0.03100
C 	C 	0.43770 0.65620 0.21840 -0.08300
C 	C 	0.91430 0.47270 0.07160 -0.01900
H 	H 	0.98490 0.53190 0.03390 0.04200
C 	C 	0.92650 0.47250 0.17170 0.03800
C 	C 	0.03410 0.53000 0.21940 -0.08900
C 	C 	0.41990 0.44540 0.01750 0.06400
C 	C 	0.30900 0.50500 0.97320 -0.06100
C 	C 	0.48760 0.47420 0.10360 0.00200
H 	H 	0.43660 0.54830 0.13560 0.04100
H 	H 	0.23720 0.79210 0.67510 0.02100
C 	C 	0.14250 0.76830 0.62020 -0.02900
C 	C 	0.03460 0.71210 0.66030 0.03200
C 	C 	0.03850 0.69030 0.76140 -0.08500
C 	C 	0.01880 0.12810 0.91310 0.37400
H 	H 	0.17730 0.15740 0.94170 0.05100
C 	C 	0.29060 0.11930 0.95590 0.00000
H 	H 	0.38920 0.06470 0.96590 0.04400
C 	C 	0.48880 0.11260 0.09800 0.35600
C 	C 	0.22060 0.11120 0.12370 -0.03900
H 	H 	0.11590 0.06140 0.12470 0.02900
H 	H 	0.33840 0.14410 0.11800 0.02600
C 	C 	0.41940 0.72480 0.36150 -0.08900
H 	H 	0.32730 0.77780 0.38310 0.04600
C 	C 	0.52750 0.65730 0.32130 -0.07900
H 	H 	0.40880 0.65460 0.18410 0.07500
C 	C 	0.51280 0.62720 0.22670 -0.02100
C 	C 	0.88860 0.45140 0.11970 -0.09700
H 	H 	0.89230 0.45740 0.03840 0.04700
C 	C 	0.90480 0.44960 0.22500 -0.08500
H 	H 	0.07810 0.55650 0.21860 0.08200
C 	C 	0.01030 0.50810 0.27050 -0.03200
C 	C 	0.47940 0.43700 0.06120 -0.12600
C 	C 	0.41260 0.40850 0.96870 -0.09400
C 	C 	0.30300 0.46870 0.92850 -0.04300
H 	H 	0.27340 0.53680 0.97430 0.06000
H 	H 	0.52860 0.46860 0.13160 0.03700
H 	H 	0.16510 0.78650 0.58920 0.04600
C 	C 	0.07120 0.74030 0.61410 -0.09000
C 	C 	0.95650 0.68060 0.65800 -0.07900
C 	C 	0.96440 0.66290 0.75680 -0.01400
H 	H 	0.06550 0.69320 0.79630 0.07200
H 	H 	0.32040 0.15280 0.96430 0.03800
H 	H 	0.19410 0.14530 0.13340 0.04700
C 	C 	0.46090 0.72760 0.41850 0.31300
C 	C 	0.55400 0.62790 0.27770 -0.02500
H 	H 	0.55740 0.65580 0.35520 0.06700
H 	H 	0.53590 0.60680 0.19720 0.03600
C 	C 	0.81730 0.40800 0.12060 0.33300
C 	C 	0.94720 0.46800 0.27310 -0.02300
H 	H 	0.86220 0.42220 0.22750 0.08000
H 	H 	0.03730 0.52060 0.30330 0.04700
C 	C 	0.53080 0.38260 0.06710 0.41100
C 	C 	0.35560 0.42100 0.92640 -0.01100
H 	H 	0.44680 0.37610 0.96600 0.08000
H 	H 	0.26410 0.47570 0.89970 0.05000
C 	C 	0.03260 0.73850 0.55570 0.32200
H 	H 	0.92830 0.67690 0.62360 0.06800
C 	C 	0.92200 0.65600 0.70390 -0.03000
H 	H 	0.93990 0.64790 0.78870 0.03900
H 	H 	0.60330 0.60650 0.28190 0.03900
H 	H 	0.93250 0.45290 0.30760 0.03900
H 	H 	0.35210 0.39680 0.89550 0.03000
H 	H 	0.87200 0.63510 0.70080 0.03900
C 	C 	0.06880 0.07400 0.92190 -0.04200
C 	C 	0.02590 0.02210 0.92650 -0.00300
H 	H 	0.96740 0.02190 0.92950 0.01500
C 	C 	0.07040 0.97060 0.92670 -0.01200
H 	H 	0.04170 0.93590 0.92980 0.02400
C 	C 	0.15790 0.97100 0.92220 -0.04700
C 	C 	0.20080 0.02280 0.91760 0.02100
C 	C 	0.15620 0.07440 0.91740 0.01500
C 	C 	0.19910 0.12620 0.91280 -0.02600
H 	H 	0.16930 0.16070 0.91270 0.01400
C 	C 	0.28650 0.12660 0.90830 -0.05800
H 	H 	0.31520 0.16130 0.90520 0.05100
C 	C 	0.33110 0.07510 0.90840 -0.01100
H 	H 	0.38960 0.07530 0.90550 0.02700
C 	C 	0.28820 0.02320 0.91310 -0.01800
H 	H 	0.31800 0.98880 0.91320 0.03000
C 	C 	0.43160 0.06070 0.08690 -0.03800
C 	C 	0.47430 0.00840 0.08880 -0.01200
H 	H 	0.53270 0.00780 0.09380 0.02500
C 	C 	0.42970 0.95720 0.08300 -0.01000
H 	H 	0.45820 0.92230 0.08420 0.01400
C 	C 	0.34240 0.95820 0.07540 -0.04600
C 	C 	0.29970 0.01050 0.07360 0.02600
C 	C 	0.34430 0.06170 0.07940 0.01600
C 	C 	0.30160 0.11390 0.07750 -0.02400
H 	H 	0.33150 0.14810 0.08140 0.04100
C 	C 	0.21430 0.11490 0.06990 -0.02800
H 	H 	0.18570 0.14980 0.06870 0.04800
C 	C 	0.16970 0.06370 0.06420 -0.03300
H 	H 	0.11130 0.06440 0.05910 0.03800
C 	C 	0.21240 0.01150 0.06600 -0.02000
H 	H 	0.18250 0.97720 0.06220 0.02700
Yb	Yb	0.25161 0.28724 0.51044 1.53000
O 	O 	0.36870 0.31570 0.46370 -0.67100
O 	O 	0.34300 0.20750 0.49430 -0.68100
O 	O 	0.23900 0.25610 0.41890 -0.65300
O 	O 	0.26750 0.26620 0.60400 -0.64400
O 	O 	0.13740 0.32240 0.55700 -0.67800
O 	O 	0.15970 0.21270 0.53680 -0.66500
O 	O 	0.31670 0.37390 0.54700 -0.41100
O 	O 	0.18470 0.36670 0.46360 -0.42500
Yb	Yb	0.34163 0.31523 0.36692 1.49200
Yb	Yb	0.47373 0.24910 0.47782 1.46600
H 	H 	0.38730 0.35380 0.47620 0.19000
Yb	Yb	0.30103 0.16708 0.40914 1.52800
H 	H 	0.34450 0.17970 0.52520 0.18200
H 	H 	0.18120 0.25810 0.40360 0.18200
Yb	Yb	0.16898 0.33276 0.65047 1.48700
Yb	Yb	0.19976 0.17874 0.62491 1.51200
H 	H 	0.32590 0.26870 0.61820 0.18500
Yb	Yb	0.03021 0.25718 0.55191 1.51300
H 	H 	0.11920 0.35920 0.54080 0.18900
H 	H 	0.15570 0.18200 0.50880 0.19300
C 	C 	0.30220 0.41140 0.58460 0.35700
C 	C 	0.20280 0.39960 0.42530 0.36600
O 	O 	0.40900 0.23120 0.39150 -0.70600
O 	O 	0.45780 0.37040 0.37790 -0.47800
O 	O 	0.26530 0.26940 0.30220 -0.50400
O 	O 	0.25570 0.38790 0.38650 -0.45600
O 	O 	0.53760 0.33050 0.44410 -0.46100
O 	O 	0.46130 0.27580 0.57350 -0.42500
O 	O 	0.58770 0.26210 0.54110 -0.41400
O 	O 	0.23320 0.17930 0.32390 -0.43700
O 	O 	0.40040 0.09780 0.44030 -0.41600
O 	O 	0.39810 0.11620 0.35150 -0.39100
O 	O 	0.18660 0.12520 0.45630 -0.44600
O 	O 	0.23290 0.07780 0.38690 -0.35400
O 	O 	0.09740 0.24830 0.63810 -0.71000
O 	O 	0.25230 0.29410 0.71860 -0.47500
O 	O 	0.05300 0.39040 0.63160 -0.45800
O 	O 	0.25640 0.40230 0.62610 -0.46000
O 	O 	0.28110 0.20220 0.70190 -0.47000
O 	O 	0.31770 0.13380 0.58640 -0.43000
O 	O 	0.26070 0.08860 0.65490 -0.38800
O 	O 	0.09790 0.11690 0.59610 -0.46600
O 	O 	0.96760 0.34470 0.57020 -0.45500
O 	O 	0.00040 0.16270 0.54830 -0.47300
O 	O 	0.91890 0.25560 0.48450 -0.39400
O 	O 	0.04510 0.26860 0.45350 -0.41400
C 	C 	0.34290 0.46930 0.58200 -0.03400
C 	C 	0.16070 0.45800 0.41980 -0.03700
H 	H 	0.44820 0.21760 0.36320 0.14000
C 	C 	0.22730 0.22330 0.29390 0.40100
C 	C 	0.42420 0.08600 0.39170 0.31100
C 	C 	0.18120 0.08300 0.42830 0.34600
H 	H 	0.05890 0.23940 0.66860 0.12000
C 	C 	0.29060 0.24520 0.72900 0.38700
C 	C 	0.42870 0.47210 0.59560 -0.01800
C 	C 	0.29840 0.51930 0.56940 0.00800
C 	C 	0.07420 0.45720 0.42910 -0.01200
C 	C 	0.20020 0.50900 0.40530 0.00800
C 	C 	0.17050 0.22280 0.24220 -0.11800
C 	C 	0.48800 0.03760 0.38430 -0.09500
C 	C 	0.12560 0.03280 0.43560 -0.09700
C 	C 	0.34690 0.24540 0.78260 -0.11300
C 	C 	0.46990 0.52480 0.59650 -0.02300
H 	H 	0.45850 0.43860 0.60400 0.02300
C 	C 	0.33960 0.57210 0.57030 0.01800
C 	C 	0.21270 0.51660 0.55580 -0.04200
C 	C 	0.02740 0.50750 0.42380 -0.01400
H 	H 	0.04770 0.42300 0.43880 0.02600
C 	C 	0.28670 0.50980 0.39600 -0.05300
C 	C 	0.15340 0.55940 0.40010 0.01200
C 	C 	0.19680 0.25630 0.19780 -0.00100
C 	C 	0.09480 0.18900 0.23580 0.05600
C 	C 	0.52770 0.01640 0.43140 -0.02500
C 	C 	0.50620 0.01370 0.33250 0.04000
C 	C 	0.13270 0.99610 0.48230 0.03500
C 	C 	0.06760 0.02300 0.39450 -0.01600
C 	C 	0.31350 0.27200 0.82810 -0.00500
C 	C 	0.42290 0.21560 0.78710 0.05500
H 	H 	0.52720 0.52670 0.60560 0.03200
C 	C 	0.42530 0.57490 0.58390 -0.04800
C 	C 	0.29510 0.62210 0.55770 -0.03500
C 	C 	0.16810 0.56660 0.54320 -0.04200
H 	H 	0.18510 0.48120 0.55520 0.03100
H 	H 	0.96950 0.50700 0.43000 0.01300
C 	C 	0.06700 0.55860 0.40930 -0.04300
C 	C 	0.32630 0.56090 0.38150 -0.01000
H 	H 	0.31800 0.47610 0.39960 0.04500
C 	C 	0.19300 0.61040 0.38560 -0.03900
C 	C 	0.15240 0.25600 0.14640 -0.03500
H 	H 	0.24450 0.27920 0.20220 0.02400
C 	C 	0.04870 0.19170 0.18420 0.03100
C 	C 	0.06230 0.15620 0.28160 -0.08200
C 	C 	0.58570 0.97270 0.42840 -0.01800
H 	H 	0.51510 0.03190 0.46610 0.04300
C 	C 	0.57350 0.97250 0.32830 0.04000
C 	C 	0.46590 0.03000 0.28060 -0.08700
C 	C 	0.08010 0.94540 0.48250 0.06500
C 	C 	0.19100 0.00500 0.52680 -0.06000
C 	C 	0.01240 0.97420 0.39640 0.00200
H 	H 	0.06340 0.04830 0.36440 0.04100
H 	H 	0.26280 0.29210 0.82490 0.02100
C 	C 	0.35750 0.26830 0.87980 -0.02900
C 	C 	0.46540 0.21210 0.83970 0.03200
C 	C 	0.46150 0.19030 0.73860 -0.08400
C 	C 	0.48120 0.62810 0.58690 0.37300
H 	H 	0.32270 0.65740 0.55830 0.05000
C 	C 	0.20940 0.61930 0.54410 -0.00000
H 	H 	0.11080 0.56470 0.53410 0.04300
C 	C 	0.01120 0.61260 0.40200 0.35600
C 	C 	0.27940 0.61120 0.37630 -0.03800
H 	H 	0.38410 0.56140 0.37530 0.02900
H 	H 	0.16160 0.64410 0.38200 0.02700
C 	C 	0.08060 0.22480 0.13850 -0.08900
H 	H 	0.17270 0.27780 0.11690 0.04600
C 	C 	0.97250 0.15730 0.17870 -0.08000
H 	H 	0.09120 0.15460 0.31590 0.07400
C 	C 	0.98720 0.12720 0.27330 -0.02200
C 	C 	0.61140 0.95140 0.38030 -0.09800
H 	H 	0.60770 0.95740 0.46160 0.04600
C 	C 	0.59520 0.94960 0.27500 -0.08800
H 	H 	0.42190 0.05650 0.28140 0.08200
C 	C 	0.48970 0.00810 0.22950 -0.03600
C 	C 	0.02060 0.93700 0.43880 -0.12600
C 	C 	0.08740 0.90850 0.53130 -0.09500
C 	C 	0.19700 0.96870 0.57150 -0.04500
H 	H 	0.22660 0.03680 0.52570 0.05900
H 	H 	0.97140 0.96860 0.36840 0.03700
H 	H 	0.33490 0.28650 0.91080 0.04600
C 	C 	0.42880 0.24030 0.88590 -0.09100
C 	C 	0.54350 0.18060 0.84200 -0.07900
C 	C 	0.53560 0.16290 0.74320 -0.01500
H 	H 	0.43450 0.19320 0.70370 0.07200
H 	H 	0.17960 0.65280 0.53570 0.03800
H 	H 	0.30590 0.64530 0.36660 0.04600
C 	C 	0.03910 0.22760 0.08150 0.31400
C 	C 	0.94600 0.12790 0.22230 -0.02400
H 	H 	0.94260 0.15580 0.14480 0.06800
H 	H 	0.96410 0.10680 0.30280 0.03600
C 	C 	0.68270 0.90800 0.37940 0.33300
C 	C 	0.55280 0.96800 0.22690 -0.02000
H 	H 	0.63780 0.92220 0.27250 0.08100
H 	H 	0.46270 0.02060 0.19670 0.04800
C 	C 	0.96920 0.88260 0.43290 0.41100
C 	C 	0.14440 0.92100 0.57360 -0.01000
H 	H 	0.05320 0.87610 0.53400 0.08000
H 	H 	0.23590 0.97570 0.60030 0.05100
C 	C 	0.46740 0.23850 0.94430 0.32200
H 	H 	0.57170 0.17690 0.87640 0.06800
C 	C 	0.57800 0.15600 0.79610 -0.02900
H 	H 	0.56010 0.14790 0.71130 0.03900
H 	H 	0.89670 0.10650 0.21810 0.03800
H 	H 	0.56750 0.95290 0.19240 0.03800
H 	H 	0.14790 0.89680 0.60450 0.02900
H 	H 	0.62800 0.13510 0.79920 0.03900
C 	C 	0.43120 0.57400 0.57810 -0.04100
C 	C 	0.47410 0.52210 0.57350 -0.00400
H 	H 	0.53260 0.52190 0.57050 0.01500
C 	C 	0.42960 0.47060 0.57330 -0.01100
H 	H 	0.45830 0.43590 0.57020 0.02400
C 	C 	0.34210 0.47100 0.57780 -0.04600
C 	C 	0.29920 0.52280 0.58240 0.02100
C 	C 	0.34380 0.57440 0.58260 0.01400
C 	C 	0.30090 0.62620 0.58720 -0.02600
H 	H 	0.33070 0.66070 0.58730 0.01400
C 	C 	0.21350 0.62660 0.59170 -0.05900
H 	H 	0.18480 0.66130 0.59480 0.05100
C 	C 	0.16890 0.57510 0.59160 -0.01000
H 	H 	0.11040 0.57530 0.59450 0.02700
C 	C 	0.21180 0.52320 0.58690 -0.02000
H 	H 	0.18200 0.48880 0.58680 0.03100
C 	C 	0.06840 0.56070 0.41310 -0.03800
C 	C 	0.02570 0.50840 0.41120 -0.01100
H 	H 	0.96730 0.50780 0.40620 0.02500
C 	C 	0.07030 0.45720 0.41700 -0.01100
H 	H 	0.04180 0.42230 0.41580 0.01500
C 	C 	0.15760 0.45820 0.42460 -0.04600
C 	C 	0.20030 0.51050 0.42640 0.02700
C 	C 	0.15570 0.56170 0.42060 0.01700
C 	C 	0.19840 0.61390 0.42250 -0.02300
H 	H 	0.16850 0.64810 0.41860 0.04100
C 	C 	0.28570 0.61490 0.43010 -0.02800
H 	H 	0.31430 0.64980 0.43130 0.04900
C 	C 	0.33030 0.56370 0.43580 -0.03400
H 	H 	0.38870 0.56440 0.44090 0.03900
C 	C 	0.28760 0.51150 0.43400 -0.01800
H 	H 	0.31750 0.47720 0.43780 0.02600
Yb	Yb	0.75161 0.21276 0.01044 1.53000
O 	O 	0.86870 0.18430 0.96370 -0.67100
O 	O 	0.84300 0.29250 0.99430 -0.68000
O 	O 	0.73900 0.24390 0.91890 -0.65300
O 	O 	0.76750 0.23380 0.10400 -0.64400
O 	O 	0.63740 0.17760 0.05700 -0.67800
O 	O 	0.65970 0.28730 0.03680 -0.66500
O 	O 	0.81670 0.12610 0.04700 -0.41100
O 	O 	0.68470 0.13330 0.96360 -0.42400
Yb	Yb	0.84163 0.18477 0.86692 1.49200
Yb	Yb	0.97373 0.25090 0.97782 1.46700
H 	H 	0.88730 0.14620 0.97620 0.19100
Yb	Yb	0.80103 0.33292 0.90914 1.52800
H 	H 	0.84450 0.32030 0.02520 0.18100
H 	H 	0.68120 0.24190 0.90360 0.18200
Yb	Yb	0.66898 0.16724 0.15047 1.48700
Yb	Yb	0.69976 0.32126 0.12491 1.51200
H 	H 	0.82590 0.23130 0.11820 0.18500
Yb	Yb	0.53021 0.24282 0.05191 1.51300
H 	H 	0.61920 0.14080 0.04080 0.18900
H 	H 	0.65570 0.31800 0.00880 0.19300
C 	C 	0.80220 0.08860 0.08460 0.35700
C 	C 	0.70280 0.10040 0.92530 0.36600
O 	O 	0.90900 0.26880 0.89150 -0.70600
O 	O 	0.95780 0.12960 0.87790 -0.47800
O 	O 	0.76530 0.23060 0.80220 -0.50400
O 	O 	0.75570 0.11210 0.88650 -0.45500
O 	O 	0.03760 0.16950 0.94410 -0.46100
O 	O 	0.96130 0.22420 0.07350 -0.42600
O 	O 	0.08770 0.23790 0.04110 -0.41400
O 	O 	0.73320 0.32070 0.82390 -0.43700
O 	O 	0.90040 0.40220 0.94030 -0.41600
O 	O 	0.89810 0.38380 0.85150 -0.39100
O 	O 	0.68660 0.37480 0.95630 -0.44500
O 	O 	0.73290 0.42220 0.88690 -0.35400
O 	O 	0.59740 0.25170 0.13810 -0.71000
O 	O 	0.75230 0.20590 0.21860 -0.47500
O 	O 	0.55300 0.10960 0.13160 -0.45900
O 	O 	0.75640 0.09770 0.12610 -0.46000
O 	O 	0.78110 0.29780 0.20190 -0.47000
O 	O 	0.81770 0.36620 0.08640 -0.42900
O 	O 	0.76070 0.41140 0.15490 -0.38800
O 	O 	0.59790 0.38310 0.09610 -0.46600
O 	O 	0.46760 0.15530 0.07020 -0.45600
O 	O 	0.50040 0.33730 0.04830 -0.47400
O 	O 	0.41890 0.24440 0.98450 -0.39400
O 	O 	0.54510 0.23140 0.95350 -0.41400
C 	C 	0.84290 0.03070 0.08200 -0.03400
C 	C 	0.66070 0.04200 0.91980 -0.03700
H 	H 	0.94820 0.28240 0.86320 0.14000
C 	C 	0.72730 0.27670 0.79390 0.40100
C 	C 	0.92420 0.41400 0.89170 0.31200
C 	C 	0.68120 0.41700 0.92830 0.34600
H 	H 	0.55890 0.26060 0.16860 0.12000
C 	C 	0.79060 0.25480 0.22900 0.38700
C 	C 	0.92870 0.02790 0.09560 -0.01800
C 	C 	0.79840 0.98070 0.06940 0.00800
C 	C 	0.57420 0.04280 0.92910 -0.01100
C 	C 	0.70020 0.99100 0.90530 0.00800
C 	C 	0.67050 0.27720 0.74220 -0.11900
C 	C 	0.98800 0.46240 0.88430 -0.09500
C 	C 	0.62560 0.46720 0.93560 -0.09800
C 	C 	0.84690 0.25460 0.28260 -0.11300
C 	C 	0.96990 0.97520 0.09650 -0.02200
H 	H 	0.95850 0.06140 0.10400 0.02300
C 	C 	0.83960 0.92790 0.07030 0.01800
C 	C 	0.71270 0.98340 0.05580 -0.04200
C 	C 	0.52740 0.99250 0.92380 -0.01500
H 	H 	0.54770 0.07700 0.93880 0.02700
C 	C 	0.78670 0.99020 0.89600 -0.05400
C 	C 	0.65340 0.94060 0.90010 0.01300
C 	C 	0.69680 0.24370 0.69780 -0.00100
C 	C 	0.59480 0.31100 0.73580 0.05600
C 	C 	0.02770 0.48360 0.93140 -0.02300
C 	C 	0.00620 0.48630 0.83250 0.04200
C 	C 	0.63270 0.50390 0.98230 0.03700
C 	C 	0.56760 0.47700 0.89450 -0.01600
C 	C 	0.81350 0.22800 0.32810 -0.00500
C 	C 	0.92290 0.28440 0.28710 0.05600
H 	H 	0.02720 0.97330 0.10560 0.03100
C 	C 	0.92530 0.92510 0.08390 -0.04900
C 	C 	0.79510 0.87790 0.05770 -0.03600
C 	C 	0.66810 0.93340 0.04320 -0.04200
H 	H 	0.68510 0.01880 0.05520 0.03000
H 	H 	0.46950 0.99300 0.93000 0.01300
C 	C 	0.56700 0.94140 0.90930 -0.04300
C 	C 	0.82630 0.93910 0.88150 -0.01000
H 	H 	0.81800 0.02390 0.89960 0.04500
C 	C 	0.69300 0.88960 0.88560 -0.03800
C 	C 	0.65240 0.24400 0.64640 -0.03500
H 	H 	0.74450 0.22080 0.70220 0.02400
C 	C 	0.54870 0.30830 0.68420 0.03100
C 	C 	0.56230 0.34380 0.78160 -0.08300
C 	C 	0.08570 0.52730 0.92840 -0.01900
H 	H 	0.01510 0.46810 0.96610 0.04200
C 	C 	0.07350 0.52750 0.82830 0.03800
C 	C 	0.96590 0.47000 0.78060 -0.08900
C 	C 	0.58010 0.55460 0.98250 0.06400
C 	C 	0.69100 0.49500 0.02680 -0.06100
C 	C 	0.51240 0.52580 0.89640 0.00200
H 	H 	0.56340 0.45170 0.86440 0.04100
H 	H 	0.76280 0.20790 0.32490 0.02100
C 	C 	0.85750 0.23170 0.37980 -0.02900
C 	C 	0.96540 0.28790 0.33970 0.03200
C 	C 	0.96150 0.30970 0.23860 -0.08500
C 	C 	0.98120 0.87190 0.08690 0.37400
H 	H 	0.82270 0.84260 0.05830 0.05100
C 	C 	0.70940 0.88070 0.04410 0.00000
H 	H 	0.61080 0.93530 0.03410 0.04400
C 	C 	0.51120 0.88740 0.90200 0.35600
C 	C 	0.77940 0.88880 0.87630 -0.03900
H 	H 	0.88410 0.93860 0.87530 0.02900
H 	H 	0.66160 0.85590 0.88200 0.02600
C 	C 	0.58060 0.27520 0.63850 -0.08900
H 	H 	0.67270 0.22220 0.61690 0.04600
C 	C 	0.47250 0.34270 0.67870 -0.07900
H 	H 	0.59120 0.34540 0.81590 0.07500
C 	C 	0.48720 0.37280 0.77330 -0.02100
C 	C 	0.11140 0.54860 0.88030 -0.09700
H 	H 	0.10770 0.54260 0.96160 0.04700
C 	C 	0.09520 0.55040 0.77500 -0.08500
H 	H 	0.92190 0.44350 0.78140 0.08200
C 	C 	0.98970 0.49190 0.72950 -0.03200
C 	C 	0.52060 0.56300 0.93880 -0.12600
C 	C 	0.58740 0.59150 0.03130 -0.09400
C 	C 	0.69700 0.53130 0.07150 -0.04300
H 	H 	0.72660 0.46320 0.02570 0.06000
H 	H 	0.47140 0.53140 0.86840 0.03700
H 	H 	0.83490 0.21350 0.41080 0.04600
C 	C 	0.92880 0.25970 0.38590 -0.09000
C 	C 	0.04350 0.31940 0.34200 -0.07900
C 	C 	0.03560 0.33710 0.24320 -0.01400
H 	H 	0.93450 0.30680 0.20370 0.07200
H 	H 	0.67960 0.84720 0.03570 0.03800
H 	H 	0.80590 0.85470 0.86660 0.04700
C 	C 	0.53910 0.27240 0.58150 0.31300
C 	C 	0.44600 0.37210 0.72230 -0.02500
H 	H 	0.44260 0.34420 0.64480 0.06700
H 	H 	0.46410 0.39320 0.80280 0.03600
C 	C 	0.18270 0.59200 0.87940 0.33300
C 	C 	0.05280 0.53200 0.72690 -0.02300
H 	H 	0.13780 0.57780 0.77250 0.08000
H 	H 	0.96270 0.47940 0.69670 0.04700
C 	C 	0.46920 0.61740 0.93290 0.41100
C 	C 	0.64440 0.57900 0.07360 -0.01100
H 	H 	0.55320 0.62390 0.03400 0.08000
H 	H 	0.73590 0.52430 0.10030 0.05000
C 	C 	0.96740 0.26150 0.44430 0.32200
H 	H 	0.07170 0.32310 0.37640 0.06800
C 	C 	0.07800 0.34400 0.29610 -0.03000
H 	H 	0.06010 0.35210 0.21130 0.03900
H 	H 	0.39670 0.39350 0.71810 0.03900
H 	H 	0.06750 0.54710 0.69240 0.03900
H 	H 	0.64790 0.60320 0.10450 0.03000
H 	H 	0.12800 0.36490 0.29920 0.03900
C 	C 	0.93120 0.92600 0.07810 -0.04200
C 	C 	0.97410 0.97790 0.07350 -0.00300
H 	H 	0.03260 0.97810 0.07050 0.01500
C 	C 	0.92960 0.02940 0.07330 -0.01200
H 	H 	0.95830 0.06410 0.07020 0.02400
C 	C 	0.84210 0.02900 0.07780 -0.04700
C 	C 	0.79920 0.97720 0.08240 0.02100
C 	C 	0.84380 0.92560 0.08260 0.01500
C 	C 	0.80090 0.87380 0.08720 -0.02600
H 	H 	0.83070 0.83930 0.08730 0.01400
C 	C 	0.71350 0.87340 0.09170 -0.05800
H 	H 	0.68480 0.83870 0.09480 0.05100
C 	C 	0.66890 0.92490 0.09160 -0.01100
H 	H 	0.61040 0.92470 0.09450 0.02700
C 	C 	0.71180 0.97680 0.08690 -0.01800
H 	H 	0.68200 0.01120 0.08680 0.03000
C 	C 	0.56840 0.93930 0.91310 -0.03800
C 	C 	0.52570 0.99160 0.91120 -0.01200
H 	H 	0.46730 0.99220 0.90620 0.02500
C 	C 	0.57030 0.04280 0.91700 -0.01000
H 	H 	0.54180 0.07770 0.91580 0.01400
C 	C 	0.65760 0.04180 0.92460 -0.04600
C 	C 	0.70030 0.98950 0.92640 0.02600
C 	C 	0.65570 0.93830 0.92060 0.01600
C 	C 	0.69840 0.88610 0.92250 -0.02400
H 	H 	0.66850 0.85190 0.91860 0.04100
C 	C 	0.78570 0.88510 0.93010 -0.02800
H 	H 	0.81430 0.85020 0.93130 0.04800
C 	C 	0.83030 0.93630 0.93580 -0.03300
H 	H 	0.88870 0.93560 0.94090 0.03800
C 	C 	0.78760 0.98850 0.93400 -0.02000
H 	H 	0.81750 0.02280 0.93780 0.02700
Yb	Yb	0.74839 0.71276 0.48956 1.53000
O 	O 	0.63130 0.68430 0.53630 -0.67100
O 	O 	0.65700 0.79250 0.50570 -0.68100
O 	O 	0.76100 0.74390 0.58110 -0.65300
O 	O 	0.73250 0.73380 0.39600 -0.64400
O 	O 	0.86260 0.67760 0.44300 -0.67800
O 	O 	0.84030 0.78730 0.46320 -0.66500
O 	O 	0.68330 0.62610 0.45300 -0.41100
O 	O 	0.81530 0.63330 0.53640 -0.42500
Yb	Yb	0.65837 0.68477 0.63308 1.49200
Yb	Yb	0.52627 0.75090 0.52218 1.46600
H 	H 	0.61270 0.64620 0.52380 0.19000
Yb	Yb	0.69897 0.83292 0.59086 1.52800
H 	H 	0.65550 0.82030 0.47480 0.18200
H 	H 	0.81880 0.74190 0.59640 0.18200
Yb	Yb	0.83102 0.66724 0.34953 1.48700
Yb	Yb	0.80024 0.82126 0.37509 1.51200
H 	H 	0.67410 0.73130 0.38180 0.18500
Yb	Yb	0.96979 0.74282 0.44809 1.51300
H 	H 	0.88080 0.64080 0.45920 0.18900
H 	H 	0.84430 0.81800 0.49120 0.19300
C 	C 	0.69780 0.58860 0.41540 0.35700
C 	C 	0.79720 0.60040 0.57470 0.36600
O 	O 	0.59100 0.76880 0.60850 -0.70600
O 	O 	0.54220 0.62960 0.62210 -0.47800
O 	O 	0.73470 0.73060 0.69780 -0.50400
O 	O 	0.74430 0.61210 0.61350 -0.45600
O 	O 	0.46240 0.66950 0.55590 -0.46100
O 	O 	0.53870 0.72420 0.42650 -0.42500
O 	O 	0.41230 0.73790 0.45890 -0.41400
O 	O 	0.76680 0.82070 0.67610 -0.43700
O 	O 	0.59960 0.90220 0.55970 -0.41600
O 	O 	0.60190 0.88380 0.64850 -0.39100
O 	O 	0.81340 0.87480 0.54370 -0.44600
O 	O 	0.76710 0.92220 0.61310 -0.35400
O 	O 	0.90260 0.75170 0.36190 -0.71000
O 	O 	0.74770 0.70590 0.28140 -0.47500
O 	O 	0.94700 0.60960 0.36840 -0.45800
O 	O 	0.74360 0.59770 0.37390 -0.46000
O 	O 	0.71890 0.79780 0.29810 -0.47000
O 	O 	0.68230 0.86620 0.41360 -0.43000
O 	O 	0.73930 0.91140 0.34510 -0.38800
O 	O 	0.90210 0.88310 0.40390 -0.46600
O 	O 	0.03240 0.65530 0.42980 -0.45500
O 	O 	0.99960 0.83730 0.45170 -0.47300
O 	O 	0.08110 0.74440 0.51550 -0.39400
O 	O 	0.95490 0.73140 0.54650 -0.41400
C 	C 	0.65710 0.53070 0.41800 -0.03400
C 	C 	0.83930 0.54200 0.58020 -0.03700
H 	H 	0.55180 0.78240 0.63680 0.14000
C 	C 	0.77270 0.77670 0.70610 0.40100
C 	C 	0.57580 0.91400 0.60830 0.31100
C 	C 	0.81880 0.91700 0.57170 0.34600
H 	H 	0.94110 0.76060 0.33140 0.12000
C 	C 	0.70940 0.75480 0.27100 0.38700
C 	C 	0.57130 0.52790 0.40440 -0.01800
C 	C 	0.70160 0.48070 0.43060 0.00800
C 	C 	0.92580 0.54280 0.57090 -0.01200
C 	C 	0.79980 0.49100 0.59470 0.00800
C 	C 	0.82950 0.77720 0.75780 -0.11800
C 	C 	0.51200 0.96240 0.61570 -0.09500
C 	C 	0.87440 0.96720 0.56440 -0.09700
C 	C 	0.65310 0.75460 0.21740 -0.11300
C 	C 	0.53010 0.47520 0.40350 -0.02300
H 	H 	0.54150 0.56140 0.39600 0.02300
C 	C 	0.66040 0.42790 0.42970 0.01800
C 	C 	0.78730 0.48340 0.44420 -0.04200
C 	C 	0.97260 0.49250 0.57620 -0.01400
H 	H 	0.95230 0.57700 0.56120 0.02600
C 	C 	0.71330 0.49020 0.60400 -0.05300
C 	C 	0.84660 0.44060 0.59990 0.01200
C 	C 	0.80320 0.74370 0.80220 -0.00100
C 	C 	0.90520 0.81100 0.76420 0.05600
C 	C 	0.47230 0.98360 0.56860 -0.02500
C 	C 	0.49380 0.98630 0.66750 0.04000
C 	C 	0.86730 0.00390 0.51770 0.03500
C 	C 	0.93240 0.97700 0.60550 -0.01600
C 	C 	0.68650 0.72800 0.17190 -0.00500
C 	C 	0.57710 0.78440 0.21290 0.05500
H 	H 	0.47280 0.47330 0.39440 0.03200
C 	C 	0.57470 0.42510 0.41610 -0.04800
C 	C 	0.70490 0.37790 0.44230 -0.03500
C 	C 	0.83190 0.43340 0.45680 -0.04200
H 	H 	0.81490 0.51880 0.44480 0.03100
H 	H 	0.03050 0.49300 0.57000 0.01300
C 	C 	0.93300 0.44140 0.59070 -0.04300
C 	C 	0.67370 0.43910 0.61850 -0.01000
H 	H 	0.68200 0.52390 0.60040 0.04500
C 	C 	0.80700 0.38960 0.61440 -0.03900
C 	C 	0.84760 0.74400 0.85360 -0.03500
H 	H 	0.75550 0.72080 0.79780 0.02400
C 	C 	0.95130 0.80830 0.81580 0.03100
C 	C 	0.93770 0.84380 0.71840 -0.08200
C 	C 	0.41430 0.02730 0.57160 -0.01800
H 	H 	0.48490 0.96810 0.53390 0.04300
C 	C 	0.42650 0.02750 0.67170 0.04000
C 	C 	0.53410 0.97000 0.71940 -0.08700
C 	C 	0.91990 0.05460 0.51750 0.06500
C 	C 	0.80900 0.99500 0.47320 -0.06000
C 	C 	0.98760 0.02580 0.60360 0.00200
H 	H 	0.93660 0.95170 0.63560 0.04100
H 	H 	0.73720 0.70790 0.17510 0.02100
C 	C 	0.64250 0.73170 0.12020 -0.02900
C 	C 	0.53460 0.78790 0.16030 0.03200
C 	C 	0.53850 0.80970 0.26140 -0.08400
C 	C 	0.51880 0.37190 0.41310 0.37300
H 	H 	0.67730 0.34260 0.44170 0.05000
C 	C 	0.79060 0.38070 0.45590 -0.00000
H 	H 	0.88920 0.43530 0.46590 0.04300
C 	C 	0.98880 0.38740 0.59800 0.35600
C 	C 	0.72060 0.38880 0.62370 -0.03800
H 	H 	0.61590 0.43860 0.62470 0.02900
H 	H 	0.83840 0.35590 0.61800 0.02700
C 	C 	0.91940 0.77520 0.86150 -0.08900
H 	H 	0.82730 0.72220 0.88310 0.04600
C 	C 	0.02750 0.84270 0.82130 -0.08000
H 	H 	0.90880 0.84540 0.68410 0.07400
C 	C 	0.01280 0.87280 0.72670 -0.02200
C 	C 	0.38860 0.04860 0.61970 -0.09800
H 	H 	0.39230 0.04260 0.53840 0.04600
C 	C 	0.40480 0.05040 0.72500 -0.08800
H 	H 	0.57810 0.94350 0.71860 0.08200
C 	C 	0.51030 0.99190 0.77050 -0.03600
C 	C 	0.97940 0.06300 0.56120 -0.12600
C 	C 	0.91260 0.09150 0.46870 -0.09500
C 	C 	0.80300 0.03130 0.42850 -0.04500
H 	H 	0.77340 0.96320 0.47430 0.05900
H 	H 	0.02860 0.03140 0.63160 0.03700
H 	H 	0.66510 0.71350 0.08920 0.04600
C 	C 	0.57120 0.75970 0.11410 -0.09100
C 	C 	0.45650 0.81940 0.15800 -0.07900
C 	C 	0.46440 0.83710 0.25680 -0.01500
H 	H 	0.56550 0.80680 0.29630 0.07200
H 	H 	0.82040 0.34720 0.46430 0.03800
H 	H 	0.69410 0.35470 0.63340 0.04600
C 	C 	0.96090 0.77240 0.91850 0.31400
C 	C 	0.05400 0.87210 0.77770 -0.02400
H 	H 	0.05740 0.84420 0.85520 0.06800
H 	H 	0.03590 0.89320 0.69720 0.03600
C 	C 	0.31730 0.09200 0.62060 0.33300
C 	C 	0.44720 0.03200 0.77310 -0.02000
H 	H 	0.36220 0.07780 0.72750 0.08100
H 	H 	0.53730 0.97940 0.80330 0.04800
C 	C 	0.03080 0.11740 0.56710 0.41100
C 	C 	0.85560 0.07900 0.42640 -0.01000
H 	H 	0.94680 0.12390 0.46600 0.08000
H 	H 	0.76410 0.02430 0.39970 0.05100
C 	C 	0.53260 0.76150 0.05570 0.32200
H 	H 	0.42830 0.82310 0.12360 0.06800
C 	C 	0.42200 0.84400 0.20390 -0.02900
H 	H 	0.43990 0.85210 0.28870 0.03900
H 	H 	0.10330 0.89350 0.78190 0.03800
H 	H 	0.43250 0.04710 0.80760 0.03800
H 	H 	0.85210 0.10320 0.39550 0.02900
H 	H 	0.37200 0.86490 0.20080 0.03900
C 	C 	0.56880 0.42600 0.42190 -0.04100
C 	C 	0.52590 0.47790 0.42650 -0.00400
H 	H 	0.46740 0.47810 0.42950 0.01500
C 	C 	0.57040 0.52940 0.42670 -0.01100
H 	H 	0.54170 0.56410 0.42980 0.02400
C 	C 	0.65790 0.52900 0.42220 -0.04600
C 	C 	0.70080 0.47720 0.41760 0.02100
C 	C 	0.65620 0.42560 0.41740 0.01400
C 	C 	0.69910 0.37380 0.41280 -0.02600
H 	H 	0.66930 0.33930 0.41270 0.01400
C 	C 	0.78650 0.37340 0.40830 -0.05900
H 	H 	0.81520 0.33870 0.40520 0.05100
C 	C 	0.83110 0.42490 0.40840 -0.01000
H 	H 	0.88960 0.42470 0.40550 0.02700
C 	C 	0.78820 0.47680 0.41310 -0.02000
H 	H 	0.81800 0.51120 0.41320 0.03100
C 	C 	0.93160 0.43930 0.58690 -0.03800
C 	C 	0.97430 0.49160 0.58880 -0.01100
H 	H 	0.03270 0.49220 0.59380 0.02500
C 	C 	0.92970 0.54280 0.58300 -0.01100
H 	H 	0.95820 0.57770 0.58420 0.01500
C 	C 	0.84240 0.54180 0.57540 -0.04600
C 	C 	0.79970 0.48950 0.57360 0.02700
C 	C 	0.84430 0.43830 0.57940 0.01700
C 	C 	0.80160 0.38610 0.57750 -0.02300
H 	H 	0.83150 0.35190 0.58140 0.04100
C 	C 	0.71430 0.38510 0.56990 -0.02800
H 	H 	0.68570 0.35020 0.56870 0.04900
C 	C 	0.66970 0.43630 0.56420 -0.03400
H 	H 	0.61130 0.43560 0.55910 0.03900
C 	C 	0.71240 0.48850 0.56600 -0.01800
H 	H 	0.68250 0.52280 0.56220 0.02600
