data_crystal

_cell_length_a 13.66050
_cell_length_b 15.01030
_cell_length_c 18.53450
_cell_angle_alpha 69.05100
_cell_angle_beta  71.14500
_cell_angle_gamma 65.01400

_symmetry_space_group_name_	'P 1'
_symmetry_space_group_name_H-M	'P 1'

loop_
_symmetry_equiv_pos_as_xyz
  x,y,z

loop_
_atom_site_label
_atom_site_type_symbol
_atom_site_fract_x
_atom_site_fract_y
_atom_site_fract_z
_atom_site_charge
Dy	Dy	0.84786 0.49709 0.13764 1.94900
Dy	Dy	0.62999 0.50384 0.36986 1.84300
O 	O 	0.40660 0.61360 0.51440 -0.56200
O 	O 	0.51730 0.65960 0.40180 -0.51700
O 	O 	0.64740 0.36580 0.32470 -0.49300
O 	O 	0.01140 0.37240 0.10310 -0.53800
O 	O 	0.92280 0.42950 0.24920 -0.50100
O 	O 	0.77100 0.37920 0.21260 -0.57500
O 	O 	0.09110 0.39720 0.97650 -0.55400
O 	O 	0.82280 0.63790 0.17700 -0.50300
O 	O 	0.67010 0.60560 0.12050 -0.52100
O 	O 	0.58750 0.58280 0.24600 -0.54000
O 	O 	0.73320 0.60880 0.30120 -0.52200
O 	O 	0.81430 0.39130 0.36610 -0.49600
N 	N 	0.42940 0.88450 0.05760 -0.13800
N 	N 	0.18730 0.06420 0.14630 -0.14400
N 	N 	0.81210 0.09550 0.19840 -0.13600
N 	N 	0.70470 0.88720 0.31880 -0.13300
N 	N 	0.32360 0.96080 0.36820 -0.14300
N 	N 	0.06460 0.12960 0.44780 -0.13600
C 	C 	0.07570 0.34230 0.04420 0.53000
C 	C 	0.59410 0.63270 0.17610 0.50700
C 	C 	0.35150 0.92450 0.11520 0.08000
C 	C 	0.50310 0.79080 0.07770 0.11300
H 	H 	0.55520 0.76230 0.03780 0.00800
C 	C 	0.50480 0.73450 0.15570 -0.20300
C 	C 	0.42250 0.77540 0.21600 0.10600
H 	H 	0.41980 0.73860 0.26850 -0.00900
C 	C 	0.34590 0.87120 0.19540 -0.15400
H 	H 	0.29120 0.90030 0.23400 0.09600
C 	C 	0.27560 0.03040 0.09100 0.09200
C 	C 	0.12400 0.16280 0.12800 0.13200
H 	H 	0.06230 0.18660 0.16550 -0.00100
C 	C 	0.14450 0.22990 0.05780 -0.22600
C 	C 	0.23250 0.19360 0.00040 0.12600
H 	H 	0.24690 0.23710 0.95110 -0.00300
C 	C 	0.29960 0.09160 0.01690 -0.16900
H 	H 	0.35890 0.06550 0.97900 0.10300
C 	C 	0.71400 0.33400 0.26750 0.52700
C 	C 	0.75500 0.03970 0.26010 0.08300
C 	C 	0.79760 0.19170 0.20120 0.12000
H 	H 	0.83420 0.23090 0.15960 -0.00900
C 	C 	0.72960 0.23010 0.26470 -0.21300
C 	C 	0.67720 0.16910 0.32760 0.11200
H 	H 	0.63380 0.19320 0.37160 0.00300
C 	C 	0.68850 0.07440 0.32590 -0.15900
H 	H 	0.65260 0.03480 0.36760 0.09900
C 	C 	0.76280 0.94170 0.25620 0.08000
C 	C 	0.71020 0.79620 0.31290 0.10700
H 	H 	0.67260 0.75790 0.35440 0.00900
C 	C 	0.77050 0.76020 0.24640 -0.19500
C 	C 	0.82840 0.81830 0.18440 0.09900
H 	H 	0.86910 0.79540 0.13950 0.00800
C 	C 	0.82530 0.90880 0.18960 -0.15100
H 	H 	0.86440 0.94670 0.14910 0.09500
C 	C 	0.77580 0.66060 0.24120 0.51300
C 	C 	0.90390 0.37510 0.31820 0.48500
C 	C 	0.15210 0.09340 0.39280 0.08000
C 	C 	0.99060 0.22200 0.42280 0.10400
H 	H 	0.93060 0.24900 0.46000 0.00700
C 	C 	0.99880 0.27920 0.34440 -0.18600
C 	C 	0.09020 0.24300 0.28930 0.09600
H 	H 	0.10010 0.28070 0.23700 0.01000
C 	C 	0.16680 0.14820 0.31470 -0.14700
H 	H 	0.22900 0.12120 0.27880 0.09500
C 	C 	0.22820 0.98820 0.41850 0.09300
C 	C 	0.38810 0.86360 0.38400 0.11800
H 	H 	0.45570 0.84460 0.34970 0.01000
C 	C 	0.36180 0.78950 0.44750 -0.20500
C 	C 	0.26520 0.82000 0.50180 0.11200
H 	H 	0.24650 0.77370 0.54800 0.00200
C 	C 	0.19770 0.92080 0.48590 -0.16600
H 	H 	0.13170 0.94280 0.52080 0.10100
C 	C 	0.43530 0.67830 0.45600 0.49300
Dy	Dy	0.15214 0.50291 0.86236 1.95000
Dy	Dy	0.37001 0.49616 0.63014 1.84400
O 	O 	0.59340 0.38640 0.48560 -0.56100
O 	O 	0.48270 0.34040 0.59820 -0.51600
O 	O 	0.35260 0.63420 0.67530 -0.49300
O 	O 	0.98860 0.62760 0.89690 -0.53800
O 	O 	0.07720 0.57050 0.75080 -0.50100
O 	O 	0.22900 0.62080 0.78740 -0.57500
O 	O 	0.90890 0.60280 0.02350 -0.55400
O 	O 	0.17720 0.36210 0.82300 -0.50300
O 	O 	0.32990 0.39440 0.87950 -0.52100
O 	O 	0.41250 0.41720 0.75400 -0.54000
O 	O 	0.26680 0.39120 0.69880 -0.52200
O 	O 	0.18570 0.60870 0.63390 -0.49600
N 	N 	0.57060 0.11550 0.94240 -0.13800
N 	N 	0.81270 0.93580 0.85370 -0.14400
N 	N 	0.18790 0.90450 0.80160 -0.13600
N 	N 	0.29530 0.11280 0.68120 -0.13300
N 	N 	0.67640 0.03920 0.63180 -0.14300
N 	N 	0.93540 0.87040 0.55220 -0.13600
C 	C 	0.92430 0.65770 0.95580 0.53000
C 	C 	0.40590 0.36730 0.82390 0.50700
C 	C 	0.64850 0.07550 0.88480 0.08000
C 	C 	0.49690 0.20920 0.92230 0.11300
H 	H 	0.44480 0.23770 0.96220 0.00800
C 	C 	0.49520 0.26550 0.84430 -0.20300
C 	C 	0.57750 0.22460 0.78400 0.10600
H 	H 	0.58020 0.26140 0.73150 -0.00900
C 	C 	0.65410 0.12880 0.80460 -0.15400
H 	H 	0.70880 0.09970 0.76600 0.09600
C 	C 	0.72440 0.96960 0.90900 0.09200
C 	C 	0.87600 0.83720 0.87200 0.13200
H 	H 	0.93770 0.81340 0.83450 -0.00100
C 	C 	0.85550 0.77010 0.94220 -0.22600
C 	C 	0.76750 0.80640 0.99960 0.12600
H 	H 	0.75310 0.76290 0.04890 -0.00300
C 	C 	0.70040 0.90840 0.98310 -0.16900
H 	H 	0.64110 0.93450 0.02100 0.10300
C 	C 	0.28600 0.66600 0.73250 0.52700
C 	C 	0.24500 0.96030 0.73990 0.08300
C 	C 	0.20240 0.80830 0.79880 0.12000
H 	H 	0.16580 0.76910 0.84040 -0.00900
C 	C 	0.27040 0.76990 0.73530 -0.21300
C 	C 	0.32280 0.83090 0.67240 0.11200
H 	H 	0.36620 0.80680 0.62840 0.00300
C 	C 	0.31150 0.92560 0.67410 -0.15900
H 	H 	0.34740 0.96520 0.63240 0.09900
C 	C 	0.23720 0.05830 0.74380 0.08000
C 	C 	0.28980 0.20380 0.68710 0.10700
H 	H 	0.32740 0.24210 0.64560 0.00900
C 	C 	0.22950 0.23980 0.75360 -0.19500
C 	C 	0.17160 0.18170 0.81560 0.09900
H 	H 	0.13090 0.20460 0.86050 0.00800
C 	C 	0.17470 0.09120 0.81040 -0.15100
H 	H 	0.13560 0.05330 0.85090 0.09500
C 	C 	0.22420 0.33940 0.75880 0.51300
C 	C 	0.09610 0.62490 0.68180 0.48500
C 	C 	0.84790 0.90660 0.60720 0.08000
C 	C 	0.00940 0.77800 0.57720 0.10400
H 	H 	0.06940 0.75100 0.54000 0.00700
C 	C 	0.00120 0.72080 0.65560 -0.18600
C 	C 	0.90980 0.75700 0.71070 0.09600
H 	H 	0.89990 0.71930 0.76300 0.01000
C 	C 	0.83320 0.85180 0.68530 -0.14700
H 	H 	0.77100 0.87880 0.72120 0.09500
C 	C 	0.77180 0.01180 0.58150 0.09300
C 	C 	0.61190 0.13640 0.61600 0.11800
H 	H 	0.54430 0.15540 0.65030 0.01000
C 	C 	0.63820 0.21050 0.55250 -0.20500
C 	C 	0.73480 0.18000 0.49820 0.11200
H 	H 	0.75350 0.22630 0.45200 0.00200
C 	C 	0.80230 0.07920 0.51410 -0.16600
H 	H 	0.86830 0.05720 0.47920 0.10100
C 	C 	0.56470 0.32170 0.54400 0.49300
