data_crystal

_cell_length_a 23.70350
_cell_length_b 23.70350
_cell_length_c 23.70350
_cell_angle_alpha 90.00000
_cell_angle_beta  90.00000
_cell_angle_gamma 90.00000

_symmetry_space_group_name_	'P 1'
_symmetry_space_group_name_H-M	'P 1'

loop_
_symmetry_equiv_pos_as_xyz
  x,y,z

loop_
_atom_site_label
_atom_site_type_symbol
_atom_site_fract_x
_atom_site_fract_y
_atom_site_fract_z
_atom_site_charge
N 	N 	0.80030 0.46350 0.05880 -0.22100
N 	N 	0.78890 0.40630 0.06870 -0.14200
C 	C 	0.81740 0.38030 0.10830 0.15400
C 	C 	0.83910 0.49040 0.08680 0.13700
C 	C 	0.85030 0.55090 0.07440 -0.32700
H 	H 	0.81610 0.56890 0.06230 0.10100
H 	H 	0.87740 0.55400 0.04450 0.11300
C 	C 	0.80390 0.31920 0.12120 -0.35500
H 	H 	0.79490 0.29990 0.08680 0.12800
H 	H 	0.77100 0.31810 0.14490 0.12900
N 	N 	0.30030 0.96350 0.55880 -0.21900
N 	N 	0.28890 0.90630 0.56870 -0.12900
C 	C 	0.31740 0.88030 0.60830 0.14700
C 	C 	0.33910 0.99040 0.58680 0.22700
C 	C 	0.35030 0.05090 0.57440 -0.46900
H 	H 	0.31610 0.06890 0.56230 0.14500
H 	H 	0.37740 0.05400 0.54450 0.15400
C 	C 	0.30390 0.81920 0.62120 -0.34500
H 	H 	0.29490 0.79990 0.58680 0.13100
H 	H 	0.27100 0.81810 0.64490 0.12800
N 	N 	0.19970 0.53650 0.05880 -0.21900
N 	N 	0.21110 0.59370 0.06870 -0.14200
C 	C 	0.18260 0.61970 0.10830 0.15500
C 	C 	0.16090 0.50960 0.08680 0.12600
C 	C 	0.14970 0.44910 0.07440 -0.30700
H 	H 	0.18390 0.43110 0.06230 0.09300
H 	H 	0.12260 0.44600 0.04450 0.09900
C 	C 	0.19610 0.68080 0.12120 -0.35800
H 	H 	0.20510 0.70010 0.08680 0.12800
H 	H 	0.22900 0.68190 0.14490 0.13100
N 	N 	0.69970 0.03650 0.55880 -0.20600
N 	N 	0.71110 0.09370 0.56870 -0.13900
C 	C 	0.68260 0.11970 0.60830 0.16800
C 	C 	0.66090 0.00960 0.58680 0.05800
C 	C 	0.64970 0.94910 0.57440 -0.19800
H 	H 	0.68390 0.93110 0.56230 0.07300
H 	H 	0.62260 0.94600 0.54450 0.08900
C 	C 	0.69610 0.18080 0.62120 -0.36900
H 	H 	0.70510 0.20010 0.58680 0.13800
H 	H 	0.72900 0.18190 0.64490 0.13400
N 	N 	0.19970 0.46350 0.94120 -0.20500
N 	N 	0.21110 0.40630 0.93130 -0.12700
C 	C 	0.18260 0.38030 0.89170 0.15900
C 	C 	0.16090 0.49040 0.91320 0.14800
C 	C 	0.14970 0.55090 0.92560 -0.34000
H 	H 	0.18390 0.56890 0.93770 0.11800
H 	H 	0.12260 0.55400 0.95550 0.13000
C 	C 	0.19610 0.31920 0.87880 -0.35800
H 	H 	0.20510 0.29990 0.91320 0.13800
H 	H 	0.22900 0.31810 0.85510 0.13100
N 	N 	0.69970 0.96350 0.44120 -0.21900
N 	N 	0.71110 0.90630 0.43130 -0.12900
C 	C 	0.68260 0.88030 0.39170 0.14800
C 	C 	0.66090 0.99040 0.41320 0.22700
C 	C 	0.64970 0.05090 0.42560 -0.46900
H 	H 	0.68390 0.06890 0.43770 0.14500
H 	H 	0.62260 0.05400 0.45550 0.15400
C 	C 	0.69610 0.81920 0.37880 -0.34600
H 	H 	0.70510 0.79990 0.41320 0.13100
H 	H 	0.72900 0.81810 0.35510 0.12900
N 	N 	0.80030 0.53650 0.94120 -0.20700
N 	N 	0.78890 0.59370 0.93130 -0.12500
C 	C 	0.81740 0.61970 0.89170 0.15900
C 	C 	0.83910 0.50960 0.91320 0.15900
C 	C 	0.85030 0.44910 0.92560 -0.36100
H 	H 	0.81610 0.43110 0.93770 0.12500
H 	H 	0.87740 0.44600 0.95550 0.14400
C 	C 	0.80390 0.68080 0.87880 -0.35100
H 	H 	0.79490 0.70010 0.91320 0.14000
H 	H 	0.77100 0.68190 0.85510 0.12900
N 	N 	0.30030 0.03650 0.44120 -0.20600
N 	N 	0.28890 0.09370 0.43130 -0.13900
C 	C 	0.31740 0.11970 0.39170 0.16400
C 	C 	0.33910 0.00960 0.41320 0.05900
C 	C 	0.35030 0.94910 0.42560 -0.19900
H 	H 	0.31610 0.93110 0.43770 0.07300
H 	H 	0.37740 0.94600 0.45550 0.08900
C 	C 	0.30390 0.18080 0.37880 -0.36200
H 	H 	0.29490 0.20010 0.41320 0.13500
H 	H 	0.27100 0.18190 0.35510 0.12900
N 	N 	0.05880 0.80030 0.46350 -0.22000
N 	N 	0.06870 0.78890 0.40630 -0.14100
C 	C 	0.10830 0.81740 0.38030 0.15500
C 	C 	0.08680 0.83910 0.49040 0.13700
C 	C 	0.07440 0.85030 0.55090 -0.32700
H 	H 	0.06230 0.81610 0.56890 0.10100
H 	H 	0.04450 0.87740 0.55400 0.11300
C 	C 	0.12120 0.80390 0.31920 -0.35500
H 	H 	0.08680 0.79490 0.29990 0.12800
H 	H 	0.14490 0.77100 0.31810 0.12900
N 	N 	0.55880 0.30030 0.96350 -0.21900
N 	N 	0.56870 0.28890 0.90630 -0.12900
C 	C 	0.60830 0.31740 0.88030 0.14700
C 	C 	0.58680 0.33910 0.99040 0.22700
C 	C 	0.57440 0.35030 0.05090 -0.46900
H 	H 	0.56230 0.31610 0.06890 0.14500
H 	H 	0.54450 0.37740 0.05400 0.15400
C 	C 	0.62120 0.30390 0.81920 -0.34500
H 	H 	0.58680 0.29490 0.79990 0.13100
H 	H 	0.64490 0.27100 0.81810 0.12800
N 	N 	0.05880 0.19970 0.53650 -0.21900
N 	N 	0.06870 0.21110 0.59370 -0.14200
C 	C 	0.10830 0.18260 0.61970 0.15500
C 	C 	0.08680 0.16090 0.50960 0.12600
C 	C 	0.07440 0.14970 0.44910 -0.30700
H 	H 	0.06230 0.18390 0.43110 0.09300
H 	H 	0.04450 0.12260 0.44600 0.09900
C 	C 	0.12120 0.19610 0.68080 -0.35800
H 	H 	0.08680 0.20510 0.70010 0.12800
H 	H 	0.14490 0.22900 0.68190 0.13100
N 	N 	0.55880 0.69970 0.03650 -0.20600
N 	N 	0.56870 0.71110 0.09370 -0.13900
C 	C 	0.60830 0.68260 0.11970 0.16800
C 	C 	0.58680 0.66090 0.00960 0.05800
C 	C 	0.57440 0.64970 0.94910 -0.19800
H 	H 	0.56230 0.68390 0.93110 0.07300
H 	H 	0.54450 0.62260 0.94600 0.08900
C 	C 	0.62120 0.69610 0.18080 -0.36900
H 	H 	0.58680 0.70510 0.20010 0.13800
H 	H 	0.64490 0.72900 0.18190 0.13400
N 	N 	0.94120 0.19970 0.46350 -0.20500
N 	N 	0.93130 0.21110 0.40630 -0.12700
C 	C 	0.89170 0.18260 0.38030 0.15900
C 	C 	0.91320 0.16090 0.49040 0.14800
C 	C 	0.92560 0.14970 0.55090 -0.34000
H 	H 	0.93770 0.18390 0.56890 0.11800
H 	H 	0.95550 0.12260 0.55400 0.13000
C 	C 	0.87880 0.19610 0.31920 -0.35800
H 	H 	0.91320 0.20510 0.29990 0.13800
H 	H 	0.85510 0.22900 0.31810 0.13100
N 	N 	0.44120 0.69970 0.96350 -0.21900
N 	N 	0.43130 0.71110 0.90630 -0.12900
C 	C 	0.39170 0.68260 0.88030 0.14800
C 	C 	0.41320 0.66090 0.99040 0.22700
C 	C 	0.42560 0.64970 0.05090 -0.46900
H 	H 	0.43770 0.68390 0.06890 0.14500
H 	H 	0.45550 0.62260 0.05400 0.15400
C 	C 	0.37880 0.69610 0.81920 -0.34600
H 	H 	0.41320 0.70510 0.79990 0.13100
H 	H 	0.35510 0.72900 0.81810 0.12900
N 	N 	0.94120 0.80030 0.53650 -0.20700
N 	N 	0.93130 0.78890 0.59370 -0.12500
C 	C 	0.89170 0.81740 0.61970 0.15900
C 	C 	0.91320 0.83910 0.50960 0.15900
C 	C 	0.92560 0.85030 0.44910 -0.36100
H 	H 	0.93770 0.81610 0.43110 0.12500
H 	H 	0.95550 0.87740 0.44600 0.14400
C 	C 	0.87880 0.80390 0.68080 -0.35100
H 	H 	0.91320 0.79490 0.70010 0.14000
H 	H 	0.85510 0.77100 0.68190 0.12900
N 	N 	0.44120 0.30030 0.03650 -0.20600
N 	N 	0.43130 0.28890 0.09370 -0.13900
C 	C 	0.39170 0.31740 0.11970 0.16400
C 	C 	0.41320 0.33910 0.00960 0.05900
C 	C 	0.42560 0.35030 0.94910 -0.19900
H 	H 	0.43770 0.31610 0.93110 0.07300
H 	H 	0.45550 0.37740 0.94600 0.08900
C 	C 	0.37880 0.30390 0.18080 -0.36200
H 	H 	0.41320 0.29490 0.20010 0.13500
H 	H 	0.35510 0.27100 0.18190 0.12900
N 	N 	0.46350 0.05880 0.80030 -0.22000
N 	N 	0.40630 0.06870 0.78890 -0.14100
C 	C 	0.38030 0.10830 0.81740 0.15500
C 	C 	0.49040 0.08680 0.83910 0.13700
C 	C 	0.55090 0.07440 0.85030 -0.32700
H 	H 	0.56890 0.06230 0.81610 0.10100
H 	H 	0.55400 0.04450 0.87740 0.11300
C 	C 	0.31920 0.12120 0.80390 -0.35500
H 	H 	0.29990 0.08680 0.79490 0.12800
H 	H 	0.31810 0.14490 0.77100 0.12900
N 	N 	0.96350 0.55880 0.30030 -0.21900
N 	N 	0.90630 0.56870 0.28890 -0.12900
C 	C 	0.88030 0.60830 0.31740 0.14700
C 	C 	0.99040 0.58680 0.33910 0.22700
C 	C 	0.05090 0.57440 0.35030 -0.46900
H 	H 	0.06890 0.56230 0.31610 0.14500
H 	H 	0.05400 0.54450 0.37740 0.15400
C 	C 	0.81920 0.62120 0.30390 -0.34500
H 	H 	0.79990 0.58680 0.29490 0.13100
H 	H 	0.81810 0.64490 0.27100 0.12800
N 	N 	0.53650 0.05880 0.19970 -0.21900
N 	N 	0.59370 0.06870 0.21110 -0.14200
C 	C 	0.61970 0.10830 0.18260 0.15500
C 	C 	0.50960 0.08680 0.16090 0.12600
C 	C 	0.44910 0.07440 0.14970 -0.30700
H 	H 	0.43110 0.06230 0.18390 0.09300
H 	H 	0.44600 0.04450 0.12260 0.09900
C 	C 	0.68080 0.12120 0.19610 -0.35800
H 	H 	0.70010 0.08680 0.20510 0.12800
H 	H 	0.68190 0.14490 0.22900 0.13100
N 	N 	0.03650 0.55880 0.69970 -0.20600
N 	N 	0.09370 0.56870 0.71110 -0.13900
C 	C 	0.11970 0.60830 0.68260 0.16800
C 	C 	0.00960 0.58680 0.66090 0.05800
C 	C 	0.94910 0.57440 0.64970 -0.19800
H 	H 	0.93110 0.56230 0.68390 0.07300
H 	H 	0.94600 0.54450 0.62260 0.08900
C 	C 	0.18080 0.62120 0.69610 -0.36900
H 	H 	0.20010 0.58680 0.70510 0.13800
H 	H 	0.18190 0.64490 0.72900 0.13400
N 	N 	0.46350 0.94120 0.19970 -0.20500
N 	N 	0.40630 0.93130 0.21110 -0.12700
C 	C 	0.38030 0.89170 0.18260 0.15900
C 	C 	0.49040 0.91320 0.16090 0.14800
C 	C 	0.55090 0.92560 0.14970 -0.34000
H 	H 	0.56890 0.93770 0.18390 0.11800
H 	H 	0.55400 0.95550 0.12260 0.13000
C 	C 	0.31920 0.87880 0.19610 -0.35800
H 	H 	0.29990 0.91320 0.20510 0.13800
H 	H 	0.31810 0.85510 0.22900 0.13100
N 	N 	0.96350 0.44120 0.69970 -0.21900
N 	N 	0.90630 0.43130 0.71110 -0.12900
C 	C 	0.88030 0.39170 0.68260 0.14800
C 	C 	0.99040 0.41320 0.66090 0.22700
C 	C 	0.05090 0.42560 0.64970 -0.46900
H 	H 	0.06890 0.43770 0.68390 0.14500
H 	H 	0.05400 0.45550 0.62260 0.15400
C 	C 	0.81920 0.37880 0.69610 -0.34600
H 	H 	0.79990 0.41320 0.70510 0.13100
H 	H 	0.81810 0.35510 0.72900 0.12900
N 	N 	0.53650 0.94120 0.80030 -0.20700
N 	N 	0.59370 0.93130 0.78890 -0.12500
C 	C 	0.61970 0.89170 0.81740 0.15900
C 	C 	0.50960 0.91320 0.83910 0.15900
C 	C 	0.44910 0.92560 0.85030 -0.36100
H 	H 	0.43110 0.93770 0.81610 0.12500
H 	H 	0.44600 0.95550 0.87740 0.14400
C 	C 	0.68080 0.87880 0.80390 -0.35100
H 	H 	0.70010 0.91320 0.79490 0.14000
H 	H 	0.68190 0.85510 0.77100 0.12900
N 	N 	0.03650 0.44120 0.30030 -0.20600
N 	N 	0.09370 0.43130 0.28890 -0.13900
C 	C 	0.11970 0.39170 0.31740 0.16400
C 	C 	0.00960 0.41320 0.33910 0.05900
C 	C 	0.94910 0.42560 0.35030 -0.19900
H 	H 	0.93110 0.43770 0.31610 0.07300
H 	H 	0.94600 0.45550 0.37740 0.08900
C 	C 	0.18080 0.37880 0.30390 -0.36200
H 	H 	0.20010 0.41320 0.29490 0.13500
H 	H 	0.18190 0.35510 0.27100 0.12900
N 	N 	0.46350 0.80030 0.05880 -0.22000
N 	N 	0.40630 0.78890 0.06870 -0.14100
C 	C 	0.38030 0.81740 0.10830 0.15500
C 	C 	0.49040 0.83910 0.08680 0.13700
C 	C 	0.55090 0.85030 0.07440 -0.32700
H 	H 	0.56890 0.81610 0.06230 0.10100
H 	H 	0.55400 0.87740 0.04450 0.11300
C 	C 	0.31920 0.80390 0.12120 -0.35500
H 	H 	0.29990 0.79490 0.08680 0.12800
H 	H 	0.31810 0.77100 0.14490 0.12900
N 	N 	0.96350 0.30030 0.55880 -0.21900
N 	N 	0.90630 0.28890 0.56870 -0.12900
C 	C 	0.88030 0.31740 0.60830 0.14700
C 	C 	0.99040 0.33910 0.58680 0.22700
C 	C 	0.05090 0.35030 0.57440 -0.46900
H 	H 	0.06890 0.31610 0.56230 0.14500
H 	H 	0.05400 0.37740 0.54450 0.15400
C 	C 	0.81920 0.30390 0.62120 -0.34500
H 	H 	0.79990 0.29490 0.58680 0.13100
H 	H 	0.81810 0.27100 0.64490 0.12800
N 	N 	0.53650 0.19970 0.05880 -0.21900
N 	N 	0.59370 0.21110 0.06870 -0.14200
C 	C 	0.61970 0.18260 0.10830 0.15500
C 	C 	0.50960 0.16090 0.08680 0.12600
C 	C 	0.44910 0.14970 0.07440 -0.30700
H 	H 	0.43110 0.18390 0.06230 0.09300
H 	H 	0.44600 0.12260 0.04450 0.09900
C 	C 	0.68080 0.19610 0.12120 -0.35800
H 	H 	0.70010 0.20510 0.08680 0.12800
H 	H 	0.68190 0.22900 0.14490 0.13100
N 	N 	0.03650 0.69970 0.55880 -0.20600
N 	N 	0.09370 0.71110 0.56870 -0.13900
C 	C 	0.11970 0.68260 0.60830 0.16800
C 	C 	0.00960 0.66090 0.58680 0.05800
C 	C 	0.94910 0.64970 0.57440 -0.19800
H 	H 	0.93110 0.68390 0.56230 0.07300
H 	H 	0.94600 0.62260 0.54450 0.08900
C 	C 	0.18080 0.69610 0.62120 -0.36900
H 	H 	0.20010 0.70510 0.58680 0.13800
H 	H 	0.18190 0.72900 0.64490 0.13400
N 	N 	0.46350 0.19970 0.94120 -0.20500
N 	N 	0.40630 0.21110 0.93130 -0.12700
C 	C 	0.38030 0.18260 0.89170 0.15900
C 	C 	0.49040 0.16090 0.91320 0.14800
C 	C 	0.55090 0.14970 0.92560 -0.34000
H 	H 	0.56890 0.18390 0.93770 0.11800
H 	H 	0.55400 0.12260 0.95550 0.13000
C 	C 	0.31920 0.19610 0.87880 -0.35800
H 	H 	0.29990 0.20510 0.91320 0.13800
H 	H 	0.31810 0.22900 0.85510 0.13100
N 	N 	0.96350 0.69970 0.44120 -0.21900
N 	N 	0.90630 0.71110 0.43130 -0.12900
C 	C 	0.88030 0.68260 0.39170 0.14800
C 	C 	0.99040 0.66090 0.41320 0.22700
C 	C 	0.05090 0.64970 0.42560 -0.46900
H 	H 	0.06890 0.68390 0.43770 0.14500
H 	H 	0.05400 0.62260 0.45550 0.15400
C 	C 	0.81920 0.69610 0.37880 -0.34600
H 	H 	0.79990 0.70510 0.41320 0.13100
H 	H 	0.81810 0.72900 0.35510 0.12900
N 	N 	0.53650 0.80030 0.94120 -0.20700
N 	N 	0.59370 0.78890 0.93130 -0.12500
C 	C 	0.61970 0.81740 0.89170 0.15900
C 	C 	0.50960 0.83910 0.91320 0.15900
C 	C 	0.44910 0.85030 0.92560 -0.36100
H 	H 	0.43110 0.81610 0.93770 0.12500
H 	H 	0.44600 0.87740 0.95550 0.14400
C 	C 	0.68080 0.80390 0.87880 -0.35100
H 	H 	0.70010 0.79490 0.91320 0.14000
H 	H 	0.68190 0.77100 0.85510 0.12900
N 	N 	0.03650 0.30030 0.44120 -0.20600
N 	N 	0.09370 0.28890 0.43130 -0.13900
C 	C 	0.11970 0.31740 0.39170 0.16400
C 	C 	0.00960 0.33910 0.41320 0.05900
C 	C 	0.94910 0.35030 0.42560 -0.19900
H 	H 	0.93110 0.31610 0.43770 0.07300
H 	H 	0.94600 0.37740 0.45550 0.08900
C 	C 	0.18080 0.30390 0.37880 -0.36200
H 	H 	0.20010 0.29490 0.41320 0.13500
H 	H 	0.18190 0.27100 0.35510 0.12900
N 	N 	0.80030 0.05880 0.46350 -0.22000
N 	N 	0.78890 0.06870 0.40630 -0.14100
C 	C 	0.81740 0.10830 0.38030 0.15500
C 	C 	0.83910 0.08680 0.49040 0.13700
C 	C 	0.85030 0.07440 0.55090 -0.32700
H 	H 	0.81610 0.06230 0.56890 0.10100
H 	H 	0.87740 0.04450 0.55400 0.11300
C 	C 	0.80390 0.12120 0.31920 -0.35500
H 	H 	0.79490 0.08680 0.29990 0.12800
H 	H 	0.77100 0.14490 0.31810 0.12900
N 	N 	0.30030 0.55880 0.96350 -0.21900
N 	N 	0.28890 0.56870 0.90630 -0.12900
C 	C 	0.31740 0.60830 0.88030 0.14700
C 	C 	0.33910 0.58680 0.99040 0.22700
C 	C 	0.35030 0.57440 0.05090 -0.46900
H 	H 	0.31610 0.56230 0.06890 0.14500
H 	H 	0.37740 0.54450 0.05400 0.15400
C 	C 	0.30390 0.62120 0.81920 -0.34500
H 	H 	0.29490 0.58680 0.79990 0.13100
H 	H 	0.27100 0.64490 0.81810 0.12800
N 	N 	0.19970 0.05880 0.53650 -0.21900
N 	N 	0.21110 0.06870 0.59370 -0.14200
C 	C 	0.18260 0.10830 0.61970 0.15500
C 	C 	0.16090 0.08680 0.50960 0.12600
C 	C 	0.14970 0.07440 0.44910 -0.30700
H 	H 	0.18390 0.06230 0.43110 0.09300
H 	H 	0.12260 0.04450 0.44600 0.09900
C 	C 	0.19610 0.12120 0.68080 -0.35800
H 	H 	0.20510 0.08680 0.70010 0.12800
H 	H 	0.22900 0.14490 0.68190 0.13100
N 	N 	0.69970 0.55880 0.03650 -0.20600
N 	N 	0.71110 0.56870 0.09370 -0.13900
C 	C 	0.68260 0.60830 0.11970 0.16800
C 	C 	0.66090 0.58680 0.00960 0.05800
C 	C 	0.64970 0.57440 0.94910 -0.19800
H 	H 	0.68390 0.56230 0.93110 0.07300
H 	H 	0.62260 0.54450 0.94600 0.08900
C 	C 	0.69610 0.62120 0.18080 -0.36900
H 	H 	0.70510 0.58680 0.20010 0.13800
H 	H 	0.72900 0.64490 0.18190 0.13400
N 	N 	0.19970 0.94120 0.46350 -0.20500
N 	N 	0.21110 0.93130 0.40630 -0.12700
C 	C 	0.18260 0.89170 0.38030 0.15900
C 	C 	0.16090 0.91320 0.49040 0.14800
C 	C 	0.14970 0.92560 0.55090 -0.34000
H 	H 	0.18390 0.93770 0.56890 0.11800
H 	H 	0.12260 0.95550 0.55400 0.13000
C 	C 	0.19610 0.87880 0.31920 -0.35800
H 	H 	0.20510 0.91320 0.29990 0.13800
H 	H 	0.22900 0.85510 0.31810 0.13100
N 	N 	0.69970 0.44120 0.96350 -0.21900
N 	N 	0.71110 0.43130 0.90630 -0.12900
C 	C 	0.68260 0.39170 0.88030 0.14800
C 	C 	0.66090 0.41320 0.99040 0.22700
C 	C 	0.64970 0.42560 0.05090 -0.46900
H 	H 	0.68390 0.43770 0.06890 0.14500
H 	H 	0.62260 0.45550 0.05400 0.15400
C 	C 	0.69610 0.37880 0.81920 -0.34600
H 	H 	0.70510 0.41320 0.79990 0.13100
H 	H 	0.72900 0.35510 0.81810 0.12900
N 	N 	0.80030 0.94120 0.53650 -0.20700
N 	N 	0.78890 0.93130 0.59370 -0.12500
C 	C 	0.81740 0.89170 0.61970 0.15900
C 	C 	0.83910 0.91320 0.50960 0.15900
C 	C 	0.85030 0.92560 0.44910 -0.36100
H 	H 	0.81610 0.93770 0.43110 0.12500
H 	H 	0.87740 0.95550 0.44600 0.14400
C 	C 	0.80390 0.87880 0.68080 -0.35100
H 	H 	0.79490 0.91320 0.70010 0.14000
H 	H 	0.77100 0.85510 0.68190 0.12900
N 	N 	0.30030 0.44120 0.03650 -0.20600
N 	N 	0.28890 0.43130 0.09370 -0.13900
C 	C 	0.31740 0.39170 0.11970 0.16400
C 	C 	0.33910 0.41320 0.00960 0.05900
C 	C 	0.35030 0.42560 0.94910 -0.19900
H 	H 	0.31610 0.43770 0.93110 0.07300
H 	H 	0.37740 0.45550 0.94600 0.08900
C 	C 	0.30390 0.37880 0.18080 -0.36200
H 	H 	0.29490 0.41320 0.20010 0.13500
H 	H 	0.27100 0.35510 0.18190 0.12900
N 	N 	0.05880 0.46350 0.80030 -0.22000
N 	N 	0.06870 0.40630 0.78890 -0.14100
C 	C 	0.10830 0.38030 0.81740 0.15500
C 	C 	0.08680 0.49040 0.83910 0.13700
C 	C 	0.07440 0.55090 0.85030 -0.32700
H 	H 	0.06230 0.56890 0.81610 0.10100
H 	H 	0.04450 0.55400 0.87740 0.11300
C 	C 	0.12120 0.31920 0.80390 -0.35500
H 	H 	0.08680 0.29990 0.79490 0.12800
H 	H 	0.14490 0.31810 0.77100 0.12900
N 	N 	0.55880 0.96350 0.30030 -0.21900
N 	N 	0.56870 0.90630 0.28890 -0.12900
C 	C 	0.60830 0.88030 0.31740 0.14700
C 	C 	0.58680 0.99040 0.33910 0.22700
C 	C 	0.57440 0.05090 0.35030 -0.46900
H 	H 	0.56230 0.06890 0.31610 0.14500
H 	H 	0.54450 0.05400 0.37740 0.15400
C 	C 	0.62120 0.81920 0.30390 -0.34500
H 	H 	0.58680 0.79990 0.29490 0.13100
H 	H 	0.64490 0.81810 0.27100 0.12800
N 	N 	0.05880 0.53650 0.19970 -0.21900
N 	N 	0.06870 0.59370 0.21110 -0.14200
C 	C 	0.10830 0.61970 0.18260 0.15500
C 	C 	0.08680 0.50960 0.16090 0.12600
C 	C 	0.07440 0.44910 0.14970 -0.30700
H 	H 	0.06230 0.43110 0.18390 0.09300
H 	H 	0.04450 0.44600 0.12260 0.09900
C 	C 	0.12120 0.68080 0.19610 -0.35800
H 	H 	0.08680 0.70010 0.20510 0.12800
H 	H 	0.14490 0.68190 0.22900 0.13100
N 	N 	0.55880 0.03650 0.69970 -0.20600
N 	N 	0.56870 0.09370 0.71110 -0.13900
C 	C 	0.60830 0.11970 0.68260 0.16800
C 	C 	0.58680 0.00960 0.66090 0.05800
C 	C 	0.57440 0.94910 0.64970 -0.19800
H 	H 	0.56230 0.93110 0.68390 0.07300
H 	H 	0.54450 0.94600 0.62260 0.08900
C 	C 	0.62120 0.18080 0.69610 -0.36900
H 	H 	0.58680 0.20010 0.70510 0.13800
H 	H 	0.64490 0.18190 0.72900 0.13400
N 	N 	0.94120 0.46350 0.19970 -0.20500
N 	N 	0.93130 0.40630 0.21110 -0.12700
C 	C 	0.89170 0.38030 0.18260 0.15900
C 	C 	0.91320 0.49040 0.16090 0.14800
C 	C 	0.92560 0.55090 0.14970 -0.34000
H 	H 	0.93770 0.56890 0.18390 0.11800
H 	H 	0.95550 0.55400 0.12260 0.13000
C 	C 	0.87880 0.31920 0.19610 -0.35800
H 	H 	0.91320 0.29990 0.20510 0.13800
H 	H 	0.85510 0.31810 0.22900 0.13100
N 	N 	0.44120 0.96350 0.69970 -0.21900
N 	N 	0.43130 0.90630 0.71110 -0.12900
C 	C 	0.39170 0.88030 0.68260 0.14800
C 	C 	0.41320 0.99040 0.66090 0.22700
C 	C 	0.42560 0.05090 0.64970 -0.46900
H 	H 	0.43770 0.06890 0.68390 0.14500
H 	H 	0.45550 0.05400 0.62260 0.15400
C 	C 	0.37880 0.81920 0.69610 -0.34600
H 	H 	0.41320 0.79990 0.70510 0.13100
H 	H 	0.35510 0.81810 0.72900 0.12900
N 	N 	0.94120 0.53650 0.80030 -0.20700
N 	N 	0.93130 0.59370 0.78890 -0.12500
C 	C 	0.89170 0.61970 0.81740 0.15900
C 	C 	0.91320 0.50960 0.83910 0.15900
C 	C 	0.92560 0.44910 0.85030 -0.36100
H 	H 	0.93770 0.43110 0.81610 0.12500
H 	H 	0.95550 0.44600 0.87740 0.14400
C 	C 	0.87880 0.68080 0.80390 -0.35100
H 	H 	0.91320 0.70010 0.79490 0.14000
H 	H 	0.85510 0.68190 0.77100 0.12900
N 	N 	0.44120 0.03650 0.30030 -0.20600
N 	N 	0.43130 0.09370 0.28890 -0.13900
C 	C 	0.39170 0.11970 0.31740 0.16400
C 	C 	0.41320 0.00960 0.33910 0.05900
C 	C 	0.42560 0.94910 0.35030 -0.19900
H 	H 	0.43770 0.93110 0.31610 0.07300
H 	H 	0.45550 0.94600 0.37740 0.08900
C 	C 	0.37880 0.18080 0.30390 -0.36200
H 	H 	0.41320 0.20010 0.29490 0.13500
H 	H 	0.35510 0.18190 0.27100 0.12900
Cu	Cu	0.75000 0.50000 -0.00000 0.84600
Cu	Cu	0.25000 0.00000 0.50000 0.84600
Cu	Cu	0.25000 0.50000 -0.00000 0.84600
Cu	Cu	0.00000 0.75000 0.50000 0.84600
Cu	Cu	0.50000 0.25000 -0.00000 0.84600
Cu	Cu	0.00000 0.25000 0.50000 0.84600
Cu	Cu	0.50000 -0.00000 0.75000 0.84600
Cu	Cu	0.00000 0.50000 0.25000 0.84600
Cu	Cu	0.50000 0.00000 0.25000 0.84600
Cu	Cu	0.50000 0.75000 -0.00000 0.84600
Cu	Cu	0.75000 0.00000 0.50000 0.84600
Cu	Cu	0.00000 0.50000 0.75000 0.84600
C 	C 	0.85940 0.40710 0.14060 -0.08100
C 	C 	0.87100 0.46290 0.12900 -0.07100
C 	C 	0.87360 0.58100 0.12640 0.14100
H 	H 	0.84500 0.58080 0.15500 -0.01700
H 	H 	0.88235 0.61950 0.11765 -0.02400
C 	C 	0.85030 0.28820 0.14970 0.19300
H 	H 	0.87815 0.27860 0.12185 -0.03600
H 	H 	0.83560 0.25350 0.16440 -0.04500
C 	C 	0.35940 0.90710 0.64060 -0.05600
C 	C 	0.37100 0.96290 0.62900 -0.11900
C 	C 	0.37360 0.08100 0.62640 0.26100
H 	H 	0.34500 0.08080 0.65500 -0.05900
H 	H 	0.38235 0.11950 0.61765 -0.06300
C 	C 	0.35030 0.78820 0.64970 0.18000
H 	H 	0.37815 0.77860 0.62185 -0.03100
H 	H 	0.33560 0.75350 0.66440 -0.04000
C 	C 	0.14060 0.59290 0.14060 -0.08600
C 	C 	0.12900 0.53710 0.12900 -0.06500
C 	C 	0.12640 0.41900 0.12640 0.11500
H 	H 	0.15500 0.41920 0.15500 -0.01100
H 	H 	0.11765 0.38050 0.11765 -0.02600
C 	C 	0.14970 0.71180 0.14970 0.19500
H 	H 	0.12185 0.72140 0.12185 -0.04300
H 	H 	0.16440 0.74650 0.16440 -0.04700
C 	C 	0.64060 0.09290 0.64060 -0.10600
C 	C 	0.62900 0.03710 0.62900 -0.02200
C 	C 	0.62640 0.91900 0.62640 0.02100
H 	H 	0.65500 0.91920 0.65500 0.02600
H 	H 	0.61765 0.88050 0.61765 0.01300
C 	C 	0.64970 0.21180 0.64970 0.20600
H 	H 	0.62185 0.22140 0.62185 -0.03900
H 	H 	0.66440 0.24650 0.66440 -0.04800
C 	C 	0.14060 0.40710 0.85940 -0.08100
C 	C 	0.12900 0.46290 0.87100 -0.07100
C 	C 	0.12640 0.58100 0.87360 0.14100
H 	H 	0.15500 0.58080 0.84500 -0.01700
H 	H 	0.11765 0.61950 0.88235 -0.02400
C 	C 	0.14970 0.28820 0.85030 0.19300
H 	H 	0.12185 0.27860 0.87815 -0.03600
H 	H 	0.16440 0.25350 0.83560 -0.04500
C 	C 	0.64060 0.90710 0.35940 -0.05600
C 	C 	0.62900 0.96290 0.37100 -0.11900
C 	C 	0.62640 0.08100 0.37360 0.26100
H 	H 	0.65500 0.08080 0.34500 -0.05900
H 	H 	0.61765 0.11950 0.38235 -0.06300
C 	C 	0.64970 0.78820 0.35030 0.18000
H 	H 	0.62185 0.77860 0.37815 -0.03100
H 	H 	0.66440 0.75350 0.33560 -0.04000
C 	C 	0.85940 0.59290 0.85940 -0.07400
C 	C 	0.87100 0.53710 0.87100 -0.07700
C 	C 	0.87360 0.41900 0.87360 0.16900
H 	H 	0.84500 0.41920 0.84500 -0.02400
H 	H 	0.88235 0.38050 0.88235 -0.02600
C 	C 	0.85030 0.71180 0.85030 0.18200
H 	H 	0.87815 0.72140 0.87815 -0.02000
H 	H 	0.83560 0.74650 0.83560 -0.03700
C 	C 	0.35940 0.09290 0.35940 -0.10400
C 	C 	0.37100 0.03710 0.37100 -0.02400
C 	C 	0.37360 0.91900 0.37360 0.02300
H 	H 	0.34500 0.91920 0.34500 0.02500
H 	H 	0.38235 0.88050 0.38235 0.01200
C 	C 	0.35030 0.21180 0.35030 0.19700
H 	H 	0.37815 0.22140 0.37815 -0.03600
H 	H 	0.33560 0.24650 0.33560 -0.04600
C 	C 	0.14060 0.85940 0.40710 -0.08100
C 	C 	0.12900 0.87100 0.46290 -0.07100
C 	C 	0.12640 0.87360 0.58100 0.14100
H 	H 	0.15500 0.84500 0.58080 -0.01700
H 	H 	0.11765 0.88235 0.61950 -0.02400
C 	C 	0.14970 0.85030 0.28820 0.19300
H 	H 	0.12185 0.87815 0.27860 -0.03600
H 	H 	0.16440 0.83560 0.25350 -0.04500
C 	C 	0.64060 0.35940 0.90710 -0.05600
C 	C 	0.62900 0.37100 0.96290 -0.11900
C 	C 	0.62640 0.37360 0.08100 0.26100
H 	H 	0.65500 0.34500 0.08080 -0.05900
H 	H 	0.61765 0.38235 0.11950 -0.06300
C 	C 	0.64970 0.35030 0.78820 0.18000
H 	H 	0.62185 0.37815 0.77860 -0.03100
H 	H 	0.66440 0.33560 0.75350 -0.04000
C 	C 	0.14060 0.14060 0.59290 -0.08600
C 	C 	0.12900 0.12900 0.53710 -0.06500
C 	C 	0.12640 0.12640 0.41900 0.11500
H 	H 	0.15500 0.15500 0.41920 -0.01100
H 	H 	0.11765 0.11765 0.38050 -0.02600
C 	C 	0.14970 0.14970 0.71180 0.19500
H 	H 	0.12185 0.12185 0.72140 -0.04300
H 	H 	0.16440 0.16440 0.74650 -0.04700
C 	C 	0.64060 0.64060 0.09290 -0.10600
C 	C 	0.62900 0.62900 0.03710 -0.02200
C 	C 	0.62640 0.62640 0.91900 0.02100
H 	H 	0.65500 0.65500 0.91920 0.02600
H 	H 	0.61765 0.61765 0.88050 0.01300
C 	C 	0.64970 0.64970 0.21180 0.20600
H 	H 	0.62185 0.62185 0.22140 -0.03900
H 	H 	0.66440 0.66440 0.24650 -0.04800
C 	C 	0.85940 0.14060 0.40710 -0.08100
C 	C 	0.87100 0.12900 0.46290 -0.07100
C 	C 	0.87360 0.12640 0.58100 0.14100
H 	H 	0.84500 0.15500 0.58080 -0.01700
H 	H 	0.88235 0.11765 0.61950 -0.02400
C 	C 	0.85030 0.14970 0.28820 0.19300
H 	H 	0.87815 0.12185 0.27860 -0.03600
H 	H 	0.83560 0.16440 0.25350 -0.04500
C 	C 	0.35940 0.64060 0.90710 -0.05600
C 	C 	0.37100 0.62900 0.96290 -0.11900
C 	C 	0.37360 0.62640 0.08100 0.26100
H 	H 	0.34500 0.65500 0.08080 -0.05900
H 	H 	0.38235 0.61765 0.11950 -0.06300
C 	C 	0.35030 0.64970 0.78820 0.18000
H 	H 	0.37815 0.62185 0.77860 -0.03100
H 	H 	0.33560 0.66440 0.75350 -0.04000
C 	C 	0.85940 0.85940 0.59290 -0.07400
C 	C 	0.87100 0.87100 0.53710 -0.07700
C 	C 	0.87360 0.87360 0.41900 0.16900
H 	H 	0.84500 0.84500 0.41920 -0.02400
H 	H 	0.88235 0.88235 0.38050 -0.02600
C 	C 	0.85030 0.85030 0.71180 0.18200
H 	H 	0.87815 0.87815 0.72140 -0.02000
H 	H 	0.83560 0.83560 0.74650 -0.03700
C 	C 	0.35940 0.35940 0.09290 -0.10400
C 	C 	0.37100 0.37100 0.03710 -0.02400
C 	C 	0.37360 0.37360 0.91900 0.02300
H 	H 	0.34500 0.34500 0.91920 0.02500
H 	H 	0.38235 0.38235 0.88050 0.01200
C 	C 	0.35030 0.35030 0.21180 0.19700
H 	H 	0.37815 0.37815 0.22140 -0.03600
H 	H 	0.33560 0.33560 0.24650 -0.04600
C 	C 	0.40710 0.14060 0.85940 -0.08100
C 	C 	0.46290 0.12900 0.87100 -0.07100
C 	C 	0.58100 0.12640 0.87360 0.14100
H 	H 	0.58080 0.15500 0.84500 -0.01700
H 	H 	0.61950 0.11765 0.88235 -0.02400
C 	C 	0.28820 0.14970 0.85030 0.19300
H 	H 	0.27860 0.12185 0.87815 -0.03600
H 	H 	0.25350 0.16440 0.83560 -0.04500
C 	C 	0.90710 0.64060 0.35940 -0.05600
C 	C 	0.96290 0.62900 0.37100 -0.11900
C 	C 	0.08100 0.62640 0.37360 0.26100
H 	H 	0.08080 0.65500 0.34500 -0.05900
H 	H 	0.11950 0.61765 0.38235 -0.06300
C 	C 	0.78820 0.64970 0.35030 0.18000
H 	H 	0.77860 0.62185 0.37815 -0.03100
H 	H 	0.75350 0.66440 0.33560 -0.04000
C 	C 	0.59290 0.14060 0.14060 -0.08600
C 	C 	0.53710 0.12900 0.12900 -0.06500
C 	C 	0.41900 0.12640 0.12640 0.11500
H 	H 	0.41920 0.15500 0.15500 -0.01100
H 	H 	0.38050 0.11765 0.11765 -0.02600
C 	C 	0.71180 0.14970 0.14970 0.19500
H 	H 	0.72140 0.12185 0.12185 -0.04300
H 	H 	0.74650 0.16440 0.16440 -0.04700
C 	C 	0.09290 0.64060 0.64060 -0.10600
C 	C 	0.03710 0.62900 0.62900 -0.02200
C 	C 	0.91900 0.62640 0.62640 0.02100
H 	H 	0.91920 0.65500 0.65500 0.02600
H 	H 	0.88050 0.61765 0.61765 0.01300
C 	C 	0.21180 0.64970 0.64970 0.20600
H 	H 	0.22140 0.62185 0.62185 -0.03900
H 	H 	0.24650 0.66440 0.66440 -0.04800
C 	C 	0.40710 0.85940 0.14060 -0.08100
C 	C 	0.46290 0.87100 0.12900 -0.07100
C 	C 	0.58100 0.87360 0.12640 0.14100
H 	H 	0.58080 0.84500 0.15500 -0.01700
H 	H 	0.61950 0.88235 0.11765 -0.02400
C 	C 	0.28820 0.85030 0.14970 0.19300
H 	H 	0.27860 0.87815 0.12185 -0.03600
H 	H 	0.25350 0.83560 0.16440 -0.04500
C 	C 	0.90710 0.35940 0.64060 -0.05600
C 	C 	0.96290 0.37100 0.62900 -0.11900
C 	C 	0.08100 0.37360 0.62640 0.26100
H 	H 	0.08080 0.34500 0.65500 -0.05900
H 	H 	0.11950 0.38235 0.61765 -0.06300
C 	C 	0.78820 0.35030 0.64970 0.18000
H 	H 	0.77860 0.37815 0.62185 -0.03100
H 	H 	0.75350 0.33560 0.66440 -0.04000
C 	C 	0.59290 0.85940 0.85940 -0.07400
C 	C 	0.53710 0.87100 0.87100 -0.07700
C 	C 	0.41900 0.87360 0.87360 0.16900
H 	H 	0.41920 0.84500 0.84500 -0.02400
H 	H 	0.38050 0.88235 0.88235 -0.02600
C 	C 	0.71180 0.85030 0.85030 0.18200
H 	H 	0.72140 0.87815 0.87815 -0.02000
H 	H 	0.74650 0.83560 0.83560 -0.03700
C 	C 	0.09290 0.35940 0.35940 -0.10400
C 	C 	0.03710 0.37100 0.37100 -0.02400
C 	C 	0.91900 0.37360 0.37360 0.02300
H 	H 	0.91920 0.34500 0.34500 0.02500
H 	H 	0.88050 0.38235 0.38235 0.01200
C 	C 	0.21180 0.35030 0.35030 0.19700
H 	H 	0.22140 0.37815 0.37815 -0.03600
H 	H 	0.24650 0.33560 0.33560 -0.04600
