data_crystal

_cell_length_a 23.04000
_cell_length_b 23.04000
_cell_length_c 25.13980
_cell_angle_alpha 90.00000
_cell_angle_beta  90.00000
_cell_angle_gamma 120.00000

_symmetry_space_group_name_	'P 1'
_symmetry_space_group_name_H-M	'P 1'

loop_
_symmetry_equiv_pos_as_xyz
  x,y,z

loop_
_atom_site_label
_atom_site_type_symbol
_atom_site_fract_x
_atom_site_fract_y
_atom_site_fract_z
_atom_site_charge
N 	N 	0.63237 0.86874 0.68060 -0.23400
C 	C 	0.69519 0.90023 0.70560 0.06400
H 	H 	0.71651 0.94658 0.71408 0.02200
N 	N 	0.84822 0.04669 0.45370 -0.23300
C 	C 	0.86553 0.02958 0.40519 0.01500
H 	H 	0.83565 0.98811 0.38861 0.05800
N 	N 	0.67236 0.94757 0.52248 -0.22200
C 	C 	0.55052 0.85721 0.57070 0.06400
H 	H 	0.50918 0.82655 0.58707 0.00300
C 	C 	0.62123 0.89653 0.49235 0.06500
H 	H 	0.62786 0.89254 0.45552 0.02100
C 	C 	0.66257 0.95343 0.57672 0.23900
C 	C 	0.56031 0.85135 0.51646 -0.11500
H 	H 	0.52560 0.81670 0.49600 0.06800
N 	N 	0.60165 0.90825 0.60083 -0.26800
O 	O 	0.70824 0.99902 0.60365 -0.26100
N 	N 	0.29904 0.20207 0.01393 -0.23700
C 	C 	0.36186 0.23356 0.03893 0.04900
H 	H 	0.38318 0.27991 0.04741 0.00500
N 	N 	0.51489 0.38002 0.78703 -0.23700
C 	C 	0.53220 0.36291 0.73852 0.07200
H 	H 	0.50232 0.32144 0.72194 0.01000
N 	N 	0.33903 0.28090 0.85581 -0.23200
C 	C 	0.21719 0.19054 0.90403 0.06300
H 	H 	0.17585 0.15988 0.92040 0.00400
C 	C 	0.28790 0.22986 0.82568 0.06300
H 	H 	0.29453 0.22587 0.78885 0.01500
C 	C 	0.32924 0.28676 0.91005 0.23800
C 	C 	0.22698 0.18468 0.84979 -0.11600
H 	H 	0.19227 0.15003 0.82933 0.06300
N 	N 	0.26832 0.24158 0.93416 -0.25300
O 	O 	0.37491 0.33235 0.93698 -0.26000
N 	N 	0.96570 0.53541 0.34727 -0.21500
C 	C 	0.02852 0.56690 0.37227 0.01600
H 	H 	0.04984 0.61325 0.38075 0.02000
N 	N 	0.18155 0.71336 0.12037 -0.23900
C 	C 	0.19886 0.69625 0.07186 0.06700
H 	H 	0.16898 0.65478 0.05528 0.00100
N 	N 	0.00569 0.61424 0.18915 -0.27000
C 	C 	0.88385 0.52388 0.23737 0.07400
H 	H 	0.84251 0.49322 0.25374 -0.00300
C 	C 	0.95456 0.56320 0.15902 0.10200
H 	H 	0.96119 0.55921 0.12219 0.00800
C 	C 	0.99590 0.62010 0.24339 0.29900
C 	C 	0.89364 0.51802 0.18313 -0.13600
H 	H 	0.85893 0.48337 0.16267 0.07000
N 	N 	0.93498 0.57492 0.26750 -0.27800
O 	O 	0.04157 0.66569 0.27032 -0.31800
N 	N 	0.13126 0.76363 0.68060 -0.23600
C 	C 	0.09977 0.79496 0.70560 0.06300
H 	H 	0.05342 0.76993 0.71408 0.00400
N 	N 	0.95331 0.80153 0.45370 -0.23900
C 	C 	0.97042 0.83595 0.40519 0.14600
H 	H 	0.01189 0.84754 0.38861 -0.03400
N 	N 	0.05243 0.72479 0.52248 -0.23800
C 	C 	0.14279 0.69331 0.57070 0.05900
H 	H 	0.17345 0.68263 0.58707 0.00200
C 	C 	0.10347 0.72470 0.49235 0.05900
H 	H 	0.10746 0.73532 0.45552 0.01200
C 	C 	0.04657 0.70914 0.57672 0.23400
C 	C 	0.14865 0.70896 0.51646 -0.11700
H 	H 	0.18330 0.70890 0.49600 0.06700
N 	N 	0.09175 0.69340 0.60083 -0.27200
O 	O 	0.00098 0.70922 0.60365 -0.29500
N 	N 	0.79793 0.09696 0.01393 -0.24000
C 	C 	0.76644 0.12829 0.03893 0.04800
H 	H 	0.72009 0.10326 0.04741 -0.00000
N 	N 	0.61998 0.13486 0.78703 -0.23900
C 	C 	0.63709 0.16928 0.73852 0.07000
H 	H 	0.67856 0.18087 0.72194 0.01000
N 	N 	0.71910 0.05812 0.85581 -0.23400
C 	C 	0.80946 0.02664 0.90403 0.05800
H 	H 	0.84012 0.01596 0.92040 0.00500
C 	C 	0.77014 0.05803 0.82568 0.05900
H 	H 	0.77413 0.06865 0.78885 0.01300
C 	C 	0.71324 0.04247 0.91005 0.23400
C 	C 	0.81532 0.04229 0.84979 -0.11800
H 	H 	0.84997 0.04223 0.82933 0.06500
N 	N 	0.75842 0.02673 0.93416 -0.25700
O 	O 	0.66765 0.04255 0.93698 -0.27000
N 	N 	0.46459 0.43030 0.34727 -0.23600
C 	C 	0.43310 0.46163 0.37227 0.06300
H 	H 	0.38675 0.43660 0.38075 0.01200
N 	N 	0.28664 0.46820 0.12037 -0.23900
C 	C 	0.30375 0.50262 0.07186 0.06700
H 	H 	0.34522 0.51421 0.05528 0.00200
N 	N 	0.38576 0.39146 0.18915 -0.23300
C 	C 	0.47612 0.35998 0.23737 0.06100
H 	H 	0.50678 0.34930 0.25374 0.00100
C 	C 	0.43680 0.39137 0.15902 0.06200
H 	H 	0.44079 0.40199 0.12219 0.01100
C 	C 	0.37990 0.37581 0.24339 0.23600
C 	C 	0.48198 0.37563 0.18313 -0.11700
H 	H 	0.51663 0.37557 0.16267 0.06300
N 	N 	0.42508 0.36007 0.26750 -0.27000
O 	O 	0.33431 0.37589 0.27032 -0.28000
N 	N 	0.23637 0.36763 0.68060 -0.23600
C 	C 	0.20504 0.30481 0.70560 0.06200
H 	H 	0.23007 0.28349 0.71408 0.01100
N 	N 	0.19847 0.15178 0.45370 -0.23400
C 	C 	0.16405 0.13447 0.40519 0.05000
H 	H 	0.15246 0.16435 0.38861 0.01400
N 	N 	0.27521 0.32764 0.52248 -0.23300
C 	C 	0.30669 0.44948 0.57070 0.06100
H 	H 	0.31737 0.49082 0.58707 0.00200
C 	C 	0.27530 0.37877 0.49235 0.06300
H 	H 	0.26468 0.37214 0.45552 0.01500
C 	C 	0.29086 0.33743 0.57672 0.23700
C 	C 	0.29104 0.43969 0.51646 -0.11600
H 	H 	0.29110 0.47440 0.49600 0.06700
N 	N 	0.30660 0.39835 0.60083 -0.27000
O 	O 	0.29078 0.29176 0.60365 -0.28000
N 	N 	0.90304 0.70096 0.01393 -0.22900
C 	C 	0.87171 0.63814 0.03893 0.05200
H 	H 	0.89674 0.61682 0.04741 0.01100
N 	N 	0.86514 0.48511 0.78703 -0.23600
C 	C 	0.83072 0.46780 0.73852 0.07400
H 	H 	0.81913 0.49768 0.72194 0.01000
N 	N 	0.94188 0.66097 0.85581 -0.23000
C 	C 	0.97336 0.78281 0.90403 0.06800
H 	H 	0.98404 0.82415 0.92040 0.02000
C 	C 	0.94197 0.71210 0.82568 0.06900
H 	H 	0.93135 0.70547 0.78885 0.01900
C 	C 	0.95753 0.67076 0.91005 0.24300
C 	C 	0.95771 0.77302 0.84979 -0.11200
H 	H 	0.95777 0.80773 0.82933 0.07600
N 	N 	0.97327 0.73168 0.93416 -0.24500
O 	O 	0.95745 0.62509 0.93698 -0.24900
N 	N 	0.56970 0.03430 0.34727 -0.25800
C 	C 	0.53837 0.97148 0.37227 0.11400
H 	H 	0.56340 0.95016 0.38075 0.00400
N 	N 	0.53180 0.81845 0.12037 -0.23800
C 	C 	0.49738 0.80114 0.07186 0.06700
H 	H 	0.48579 0.83102 0.05528 0.00500
N 	N 	0.60854 0.99431 0.18915 -0.19100
C 	C 	0.64002 0.11615 0.23737 0.04600
H 	H 	0.65070 0.15749 0.25374 0.00600
C 	C 	0.60863 0.04544 0.15902 0.01800
H 	H 	0.59801 0.03881 0.12219 0.01400
C 	C 	0.62419 0.00410 0.24339 0.16600
C 	C 	0.62437 0.10636 0.18313 -0.09500
H 	H 	0.62443 0.14107 0.16267 0.05500
N 	N 	0.63993 0.06502 0.26750 -0.26100
O 	O 	0.62411 0.95843 0.27032 -0.23500
N 	N 	0.86874 0.63237 0.31940 -0.23500
C 	C 	0.90023 0.69519 0.29440 0.06300
H 	H 	0.94658 0.71651 0.28592 0.02100
N 	N 	0.04669 0.84822 0.54630 -0.23500
C 	C 	0.02958 0.86553 0.59481 0.02000
H 	H 	0.98811 0.83565 0.61139 0.05300
N 	N 	0.94757 0.67236 0.47752 -0.22300
C 	C 	0.85721 0.55052 0.42930 0.06300
H 	H 	0.82655 0.50918 0.41293 0.00200
C 	C 	0.89653 0.62123 0.50765 0.06500
H 	H 	0.89254 0.62786 0.54448 0.02100
C 	C 	0.95343 0.66257 0.42328 0.23900
C 	C 	0.85135 0.56031 0.48354 -0.11500
H 	H 	0.81670 0.52560 0.50400 0.06800
N 	N 	0.90825 0.60165 0.39917 -0.26800
O 	O 	0.99902 0.70824 0.39635 -0.26100
N 	N 	0.53541 0.96570 0.65273 -0.21400
C 	C 	0.56690 0.02852 0.62773 0.01300
H 	H 	0.61325 0.04984 0.61925 0.02000
N 	N 	0.71336 0.18155 0.87963 -0.23700
C 	C 	0.69625 0.19886 0.92814 0.07800
H 	H 	0.65478 0.16898 0.94472 0.01600
N 	N 	0.61424 0.00569 0.81085 -0.27100
C 	C 	0.52388 0.88385 0.76263 0.07500
H 	H 	0.49322 0.84251 0.74626 -0.00200
C 	C 	0.56320 0.95456 0.84098 0.10300
H 	H 	0.55921 0.96119 0.87781 0.01800
C 	C 	0.62010 0.99590 0.75661 0.30100
C 	C 	0.51802 0.89364 0.81687 -0.13500
H 	H 	0.48337 0.85893 0.83733 0.07900
N 	N 	0.57492 0.93498 0.73250 -0.27800
O 	O 	0.66569 0.04157 0.72968 -0.31900
N 	N 	0.20207 0.29904 0.98607 -0.22900
C 	C 	0.23356 0.36186 0.96107 0.07500
H 	H 	0.27991 0.38318 0.95259 0.02000
N 	N 	0.38002 0.51489 0.21297 -0.23800
C 	C 	0.36291 0.53220 0.26148 0.07300
H 	H 	0.32144 0.50232 0.27806 0.01000
N 	N 	0.28090 0.33903 0.14419 -0.23300
C 	C 	0.19054 0.21719 0.09597 0.05900
H 	H 	0.15988 0.17585 0.07960 -0.00900
C 	C 	0.22986 0.28790 0.17432 0.06100
H 	H 	0.22587 0.29453 0.21115 0.01500
C 	C 	0.28676 0.32924 0.08995 0.23400
C 	C 	0.18468 0.22698 0.15021 -0.11800
H 	H 	0.15003 0.19227 0.17067 0.06100
N 	N 	0.24158 0.26832 0.06584 -0.27700
O 	O 	0.33235 0.37491 0.06302 -0.29600
N 	N 	0.76363 0.13126 0.31940 -0.23700
C 	C 	0.79496 0.09977 0.29440 0.06300
H 	H 	0.76993 0.05342 0.28592 0.00300
N 	N 	0.80153 0.95331 0.54630 -0.23900
C 	C 	0.83595 0.97042 0.59481 0.14900
H 	H 	0.84754 0.01189 0.61139 -0.03700
N 	N 	0.72479 0.05243 0.47752 -0.23900
C 	C 	0.69331 0.14279 0.42930 0.05900
H 	H 	0.68263 0.17345 0.41293 0.00200
C 	C 	0.72470 0.10347 0.50765 0.05900
H 	H 	0.73532 0.10746 0.54448 0.01200
C 	C 	0.70914 0.04657 0.42328 0.23400
C 	C 	0.70896 0.14865 0.48354 -0.11700
H 	H 	0.70890 0.18330 0.50400 0.06700
N 	N 	0.69340 0.09175 0.39917 -0.27200
O 	O 	0.70922 0.00098 0.39635 -0.29600
N 	N 	0.43030 0.46459 0.65273 -0.23600
C 	C 	0.46163 0.43310 0.62773 0.06300
H 	H 	0.43660 0.38675 0.61925 0.01200
N 	N 	0.46820 0.28664 0.87963 -0.23600
C 	C 	0.50262 0.30375 0.92814 0.07800
H 	H 	0.51421 0.34522 0.94472 0.01800
N 	N 	0.39146 0.38576 0.81085 -0.23300
C 	C 	0.35998 0.47612 0.76263 0.06100
H 	H 	0.34930 0.50678 0.74626 0.00300
C 	C 	0.39137 0.43680 0.84098 0.06200
H 	H 	0.40199 0.44079 0.87781 0.02100
C 	C 	0.37581 0.37990 0.75661 0.23600
C 	C 	0.37563 0.48198 0.81687 -0.11600
H 	H 	0.37557 0.51663 0.83733 0.07100
N 	N 	0.36007 0.42508 0.73250 -0.27000
O 	O 	0.37589 0.33431 0.72968 -0.28000
N 	N 	0.09696 0.79793 0.98607 -0.23200
C 	C 	0.12829 0.76644 0.96107 0.07400
H 	H 	0.10326 0.72009 0.95259 0.01400
N 	N 	0.13486 0.61998 0.21297 -0.23900
C 	C 	0.16928 0.63709 0.26148 0.07100
H 	H 	0.18087 0.67856 0.27806 0.01000
N 	N 	0.05812 0.71910 0.14419 -0.23500
C 	C 	0.02664 0.80946 0.09597 0.05500
H 	H 	0.01596 0.84012 0.07960 -0.00700
C 	C 	0.05803 0.77014 0.17432 0.05700
H 	H 	0.06865 0.77413 0.21115 0.01400
C 	C 	0.04247 0.71324 0.08995 0.23000
C 	C 	0.04229 0.81532 0.15021 -0.11900
H 	H 	0.04223 0.84997 0.17067 0.06400
N 	N 	0.02673 0.75842 0.06584 -0.28000
O 	O 	0.04255 0.66765 0.06302 -0.30500
N 	N 	0.36763 0.23637 0.31940 -0.23600
C 	C 	0.30481 0.20504 0.29440 0.06200
H 	H 	0.28349 0.23007 0.28592 0.01100
N 	N 	0.15178 0.19847 0.54630 -0.23500
C 	C 	0.13447 0.16405 0.59481 0.05100
H 	H 	0.16435 0.15246 0.61139 0.01300
N 	N 	0.32764 0.27521 0.47752 -0.23300
C 	C 	0.44948 0.30669 0.42930 0.06100
H 	H 	0.49082 0.31737 0.41293 0.00200
C 	C 	0.37877 0.27530 0.50765 0.06300
H 	H 	0.37214 0.26468 0.54448 0.01500
C 	C 	0.33743 0.29086 0.42328 0.23700
C 	C 	0.43969 0.29104 0.48354 -0.11600
H 	H 	0.47440 0.29110 0.50400 0.06700
N 	N 	0.39835 0.30660 0.39917 -0.27000
O 	O 	0.29176 0.29078 0.39635 -0.28000
N 	N 	0.03430 0.56970 0.65273 -0.25700
C 	C 	0.97148 0.53837 0.62773 0.11000
H 	H 	0.95016 0.56340 0.61925 0.00400
N 	N 	0.81845 0.53180 0.87963 -0.23600
C 	C 	0.80114 0.49738 0.92814 0.07800
H 	H 	0.83102 0.48579 0.94472 0.02000
N 	N 	0.99431 0.60854 0.81085 -0.19400
C 	C 	0.11615 0.64002 0.76263 0.04800
H 	H 	0.15749 0.65070 0.74626 0.00700
C 	C 	0.04544 0.60863 0.84098 0.02200
H 	H 	0.03881 0.59801 0.87781 0.02400
C 	C 	0.00410 0.62419 0.75661 0.17200
C 	C 	0.10636 0.62437 0.81687 -0.09500
H 	H 	0.14107 0.62443 0.83733 0.06400
N 	N 	0.06502 0.63993 0.73250 -0.26100
O 	O 	0.95843 0.62411 0.72968 -0.23900
N 	N 	0.70096 0.90304 0.98607 -0.22100
C 	C 	0.63814 0.87171 0.96107 0.07700
H 	H 	0.61682 0.89674 0.95259 0.02500
N 	N 	0.48511 0.86514 0.21297 -0.23600
C 	C 	0.46780 0.83072 0.26148 0.07500
H 	H 	0.49768 0.81913 0.27806 0.01000
N 	N 	0.66097 0.94188 0.14419 -0.23100
C 	C 	0.78281 0.97336 0.09597 0.06600
H 	H 	0.82415 0.98404 0.07960 0.00800
C 	C 	0.71210 0.94197 0.17432 0.06700
H 	H 	0.70547 0.93135 0.21115 0.02000
C 	C 	0.67076 0.95753 0.08995 0.23900
C 	C 	0.77302 0.95771 0.15021 -0.11400
H 	H 	0.80773 0.95777 0.17067 0.07500
N 	N 	0.73168 0.97327 0.06584 -0.26700
O 	O 	0.62509 0.95745 0.06302 -0.28300
N 	N 	0.36763 0.13126 0.31940 -0.23700
C 	C 	0.30481 0.09977 0.29440 0.06200
H 	H 	0.28349 0.05342 0.28592 0.00200
N 	N 	0.15178 0.95331 0.54630 -0.23600
C 	C 	0.13447 0.97042 0.59481 0.12900
H 	H 	0.16435 0.01189 0.61139 -0.03400
N 	N 	0.32764 0.05243 0.47752 -0.23900
C 	C 	0.44948 0.14279 0.42930 0.05900
H 	H 	0.49082 0.17345 0.41293 0.00200
C 	C 	0.37877 0.10347 0.50765 0.05900
H 	H 	0.37214 0.10746 0.54448 0.01100
C 	C 	0.33743 0.04657 0.42328 0.23400
C 	C 	0.43969 0.14865 0.48354 -0.11700
H 	H 	0.47440 0.18330 0.50400 0.06700
N 	N 	0.39835 0.09175 0.39917 -0.27200
O 	O 	0.29176 0.00098 0.39635 -0.29700
N 	N 	0.03430 0.46459 0.65273 -0.25700
C 	C 	0.97148 0.43310 0.62773 0.11000
H 	H 	0.95016 0.38675 0.61925 0.00400
N 	N 	0.81845 0.28664 0.87963 -0.23600
C 	C 	0.80114 0.30375 0.92814 0.07800
H 	H 	0.83102 0.34522 0.94472 0.02000
N 	N 	0.99431 0.38576 0.81085 -0.19400
C 	C 	0.11615 0.47612 0.76263 0.04800
H 	H 	0.15749 0.50678 0.74626 0.00700
C 	C 	0.04544 0.43680 0.84098 0.02200
H 	H 	0.03881 0.44079 0.87781 0.02400
C 	C 	0.00410 0.37990 0.75661 0.17200
C 	C 	0.10636 0.48198 0.81687 -0.09600
H 	H 	0.14107 0.51663 0.83733 0.06400
N 	N 	0.06502 0.42508 0.73250 -0.26100
O 	O 	0.95843 0.33431 0.72968 -0.23900
N 	N 	0.70096 0.79793 0.98607 -0.22800
C 	C 	0.63814 0.76644 0.96107 0.07600
H 	H 	0.61682 0.72009 0.95259 0.02000
N 	N 	0.48511 0.61998 0.21297 -0.23800
C 	C 	0.46780 0.63709 0.26148 0.07200
H 	H 	0.49768 0.67856 0.27806 0.01000
N 	N 	0.66097 0.71910 0.14419 -0.23300
C 	C 	0.78281 0.80946 0.09597 0.06000
H 	H 	0.82415 0.84012 0.07960 0.00200
C 	C 	0.71210 0.77014 0.17432 0.06200
H 	H 	0.70547 0.77413 0.21115 0.01700
C 	C 	0.67076 0.71324 0.08995 0.23400
C 	C 	0.77302 0.81532 0.15021 -0.11600
H 	H 	0.80773 0.84997 0.17067 0.07200
N 	N 	0.73168 0.75842 0.06584 -0.27700
O 	O 	0.62509 0.66765 0.06302 -0.29600
N 	N 	0.86874 0.23637 0.31940 -0.23500
C 	C 	0.90023 0.20504 0.29440 0.06200
H 	H 	0.94658 0.23007 0.28592 0.02000
N 	N 	0.04669 0.19847 0.54630 -0.23200
C 	C 	0.02958 0.16405 0.59481 -0.00200
H 	H 	0.98811 0.15246 0.61139 0.05600
N 	N 	0.94757 0.27521 0.47752 -0.22300
C 	C 	0.85721 0.30669 0.42930 0.06300
H 	H 	0.82655 0.31737 0.41293 0.00200
C 	C 	0.89653 0.27530 0.50765 0.06600
H 	H 	0.89254 0.26468 0.54448 0.02000
C 	C 	0.95343 0.29086 0.42328 0.23900
C 	C 	0.85135 0.29104 0.48354 -0.11500
H 	H 	0.81670 0.29110 0.50400 0.06800
N 	N 	0.90825 0.30660 0.39917 -0.26800
O 	O 	0.99902 0.29078 0.39635 -0.26200
N 	N 	0.53541 0.56970 0.65273 -0.23600
C 	C 	0.56690 0.53837 0.62773 0.06300
H 	H 	0.61325 0.56340 0.61925 0.01200
N 	N 	0.71336 0.53180 0.87963 -0.23600
C 	C 	0.69625 0.49738 0.92814 0.07800
H 	H 	0.65478 0.48579 0.94472 0.01800
N 	N 	0.61424 0.60854 0.81085 -0.23200
C 	C 	0.52388 0.64002 0.76263 0.06200
H 	H 	0.49322 0.65070 0.74626 0.00300
C 	C 	0.56320 0.60863 0.84098 0.06200
H 	H 	0.55921 0.59801 0.87781 0.02100
C 	C 	0.62010 0.62419 0.75661 0.23600
C 	C 	0.51802 0.62437 0.81687 -0.11500
H 	H 	0.48337 0.62443 0.83733 0.07200
N 	N 	0.57492 0.63993 0.73250 -0.27000
O 	O 	0.66569 0.62411 0.72968 -0.27900
N 	N 	0.20207 0.90304 0.98607 -0.22200
C 	C 	0.23356 0.87171 0.96107 0.07600
H 	H 	0.27991 0.89674 0.95259 0.02500
N 	N 	0.38002 0.86514 0.21297 -0.23600
C 	C 	0.36291 0.83072 0.26148 0.07500
H 	H 	0.32144 0.81913 0.27806 0.01000
N 	N 	0.28090 0.94188 0.14419 -0.23100
C 	C 	0.19054 0.97336 0.09597 0.06500
H 	H 	0.15988 0.98404 0.07960 0.00400
C 	C 	0.22986 0.94197 0.17432 0.06700
H 	H 	0.22587 0.93135 0.21115 0.01900
C 	C 	0.28676 0.95753 0.08995 0.23900
C 	C 	0.18468 0.95771 0.15021 -0.11400
H 	H 	0.15003 0.95777 0.17067 0.07100
N 	N 	0.24158 0.97327 0.06584 -0.26700
O 	O 	0.33235 0.95745 0.06302 -0.28200
N 	N 	0.76363 0.63237 0.31940 -0.23600
C 	C 	0.79496 0.69519 0.29440 0.06300
H 	H 	0.76993 0.71651 0.28592 0.01300
N 	N 	0.80153 0.84822 0.54630 -0.24100
C 	C 	0.83595 0.86553 0.59481 0.09400
H 	H 	0.84754 0.83565 0.61139 0.00700
N 	N 	0.72479 0.67236 0.47752 -0.23300
C 	C 	0.69331 0.55052 0.42930 0.06100
H 	H 	0.68263 0.50918 0.41293 0.00200
C 	C 	0.72470 0.62123 0.50765 0.06200
H 	H 	0.73532 0.62786 0.54448 0.01600
C 	C 	0.70914 0.66257 0.42328 0.23600
C 	C 	0.70896 0.56031 0.48354 -0.11600
H 	H 	0.70890 0.52560 0.50400 0.06700
N 	N 	0.69340 0.60165 0.39917 -0.27000
O 	O 	0.70922 0.70824 0.39635 -0.27800
N 	N 	0.43030 0.96570 0.65273 -0.21400
C 	C 	0.46163 0.02852 0.62773 0.01300
H 	H 	0.43660 0.04984 0.61925 0.02000
N 	N 	0.46820 0.18155 0.87963 -0.23700
C 	C 	0.50262 0.19886 0.92814 0.07900
H 	H 	0.51421 0.16898 0.94472 0.01600
N 	N 	0.39146 0.00569 0.81085 -0.27100
C 	C 	0.35998 0.88385 0.76263 0.07500
H 	H 	0.34930 0.84251 0.74626 -0.00200
C 	C 	0.39137 0.95456 0.84098 0.10300
H 	H 	0.40199 0.96119 0.87781 0.01800
C 	C 	0.37581 0.99590 0.75661 0.30100
C 	C 	0.37563 0.89364 0.81687 -0.13600
H 	H 	0.37557 0.85893 0.83733 0.07900
N 	N 	0.36007 0.93498 0.73250 -0.27800
O 	O 	0.37589 0.04157 0.72968 -0.32000
N 	N 	0.09696 0.29904 0.98607 -0.23200
C 	C 	0.12829 0.36186 0.96107 0.07400
H 	H 	0.10326 0.38318 0.95259 0.01500
N 	N 	0.13486 0.51489 0.21297 -0.23900
C 	C 	0.16928 0.53220 0.26148 0.07100
H 	H 	0.18087 0.50232 0.27806 0.01000
N 	N 	0.05812 0.33903 0.14419 -0.23500
C 	C 	0.02664 0.21719 0.09597 0.05500
H 	H 	0.01596 0.17585 0.07960 -0.01300
C 	C 	0.05803 0.28790 0.17432 0.05600
H 	H 	0.06865 0.29453 0.21115 0.01300
C 	C 	0.04247 0.32924 0.08995 0.23000
C 	C 	0.04229 0.22698 0.15021 -0.12000
H 	H 	0.04223 0.19227 0.17067 0.05800
N 	N 	0.02673 0.26832 0.06584 -0.28100
O 	O 	0.04255 0.37491 0.06302 -0.30500
N 	N 	0.13126 0.36763 0.68060 -0.23700
C 	C 	0.09977 0.30481 0.70560 0.06300
H 	H 	0.05342 0.28349 0.71408 0.00300
N 	N 	0.95331 0.15178 0.45370 -0.23600
C 	C 	0.97042 0.13447 0.40519 0.12400
H 	H 	0.01189 0.16435 0.38861 -0.03200
N 	N 	0.05243 0.32764 0.52248 -0.23800
C 	C 	0.14279 0.44948 0.57070 0.05900
H 	H 	0.17345 0.49082 0.58707 0.00200
C 	C 	0.10347 0.37877 0.49235 0.06000
H 	H 	0.10746 0.37214 0.45552 0.01100
C 	C 	0.04657 0.33743 0.57672 0.23400
C 	C 	0.14865 0.43969 0.51646 -0.11700
H 	H 	0.18330 0.47440 0.49600 0.06700
N 	N 	0.09175 0.39835 0.60083 -0.27200
O 	O 	0.00098 0.29176 0.60365 -0.29500
N 	N 	0.79793 0.70096 0.01393 -0.23600
C 	C 	0.76644 0.63814 0.03893 0.05100
H 	H 	0.72009 0.61682 0.04741 0.00500
N 	N 	0.61998 0.48511 0.78703 -0.23700
C 	C 	0.63709 0.46780 0.73852 0.07200
H 	H 	0.67856 0.49768 0.72194 0.01000
N 	N 	0.71910 0.66097 0.85581 -0.23200
C 	C 	0.80946 0.78281 0.90403 0.06400
H 	H 	0.84012 0.82415 0.92040 0.01400
C 	C 	0.77014 0.71210 0.82568 0.06400
H 	H 	0.77413 0.70547 0.78885 0.01700
C 	C 	0.71324 0.67076 0.91005 0.23900
C 	C 	0.81532 0.77302 0.84979 -0.11500
H 	H 	0.84997 0.80773 0.82933 0.07300
N 	N 	0.75842 0.73168 0.93416 -0.25300
O 	O 	0.66765 0.62509 0.93698 -0.26000
N 	N 	0.46459 0.03430 0.34727 -0.25800
C 	C 	0.43310 0.97148 0.37227 0.11400
H 	H 	0.38675 0.95016 0.38075 0.00300
N 	N 	0.28664 0.81845 0.12037 -0.23800
C 	C 	0.30375 0.80114 0.07186 0.06700
H 	H 	0.34522 0.83102 0.05528 0.00500
N 	N 	0.38576 0.99431 0.18915 -0.19100
C 	C 	0.47612 0.11615 0.23737 0.04600
H 	H 	0.50678 0.15749 0.25374 0.00600
C 	C 	0.43680 0.04544 0.15902 0.01800
H 	H 	0.44079 0.03881 0.12219 0.01400
C 	C 	0.37990 0.00410 0.24339 0.16600
C 	C 	0.48198 0.10636 0.18313 -0.09500
H 	H 	0.51663 0.14107 0.16267 0.05500
N 	N 	0.42508 0.06502 0.26750 -0.26100
O 	O 	0.33431 0.95843 0.27032 -0.23600
N 	N 	0.23637 0.86874 0.68060 -0.23500
C 	C 	0.20504 0.90023 0.70560 0.06300
H 	H 	0.23007 0.94658 0.71408 0.02000
N 	N 	0.19847 0.04669 0.45370 -0.23100
C 	C 	0.16405 0.02958 0.40519 -0.00700
H 	H 	0.15246 0.98811 0.38861 0.06000
N 	N 	0.27521 0.94757 0.52248 -0.22300
C 	C 	0.30669 0.85721 0.57070 0.06300
H 	H 	0.31737 0.82655 0.58707 0.00200
C 	C 	0.27530 0.89653 0.49235 0.06600
H 	H 	0.26468 0.89254 0.45552 0.02100
C 	C 	0.29086 0.95343 0.57672 0.23900
C 	C 	0.29104 0.85135 0.51646 -0.11500
H 	H 	0.29110 0.81670 0.49600 0.06800
N 	N 	0.30660 0.90825 0.60083 -0.26800
O 	O 	0.29078 0.99902 0.60365 -0.26100
N 	N 	0.90304 0.20207 0.01393 -0.22900
C 	C 	0.87171 0.23356 0.03893 0.05100
H 	H 	0.89674 0.27991 0.04741 0.01100
N 	N 	0.86514 0.38002 0.78703 -0.23600
C 	C 	0.83072 0.36291 0.73852 0.07400
H 	H 	0.81913 0.32144 0.72194 0.01000
N 	N 	0.94188 0.28090 0.85581 -0.23000
C 	C 	0.97336 0.19054 0.90403 0.06800
H 	H 	0.98404 0.15988 0.92040 0.01500
C 	C 	0.94197 0.22986 0.82568 0.06800
H 	H 	0.93135 0.22587 0.78885 0.01800
C 	C 	0.95753 0.28676 0.91005 0.24300
C 	C 	0.95771 0.18468 0.84979 -0.11300
H 	H 	0.95777 0.15003 0.82933 0.07100
N 	N 	0.97327 0.24158 0.93416 -0.24500
O 	O 	0.95745 0.33235 0.93698 -0.24900
N 	N 	0.56970 0.53541 0.34727 -0.23600
C 	C 	0.53837 0.56690 0.37227 0.06300
H 	H 	0.56340 0.61325 0.38075 0.01200
N 	N 	0.53180 0.71336 0.12037 -0.23800
C 	C 	0.49738 0.69625 0.07186 0.06700
H 	H 	0.48579 0.65478 0.05528 0.00200
N 	N 	0.60854 0.61424 0.18915 -0.23300
C 	C 	0.64002 0.52388 0.23737 0.06100
H 	H 	0.65070 0.49322 0.25374 0.00100
C 	C 	0.60863 0.56320 0.15902 0.06300
H 	H 	0.59801 0.55921 0.12219 0.01100
C 	C 	0.62419 0.62010 0.24339 0.23600
C 	C 	0.62437 0.51802 0.18313 -0.11600
H 	H 	0.62443 0.48337 0.16267 0.06300
N 	N 	0.63993 0.57492 0.26750 -0.27000
O 	O 	0.62411 0.66569 0.27032 -0.27900
N 	N 	0.63237 0.76363 0.68060 -0.23600
C 	C 	0.69519 0.79496 0.70560 0.06300
H 	H 	0.71651 0.76993 0.71408 0.01300
N 	N 	0.84822 0.80153 0.45370 -0.24000
C 	C 	0.86553 0.83595 0.40519 0.09300
H 	H 	0.83565 0.84754 0.38861 0.00700
N 	N 	0.67236 0.72479 0.52248 -0.23300
C 	C 	0.55052 0.69331 0.57070 0.06100
H 	H 	0.50918 0.68263 0.58707 0.00200
C 	C 	0.62123 0.72470 0.49235 0.06200
H 	H 	0.62786 0.73532 0.45552 0.01600
C 	C 	0.66257 0.70914 0.57672 0.23600
C 	C 	0.56031 0.70896 0.51646 -0.11600
H 	H 	0.52560 0.70890 0.49600 0.06700
N 	N 	0.60165 0.69340 0.60083 -0.27000
O 	O 	0.70824 0.70922 0.60365 -0.27800
N 	N 	0.29904 0.09696 0.01393 -0.24000
C 	C 	0.36186 0.12829 0.03893 0.04800
H 	H 	0.38318 0.10326 0.04741 -0.00000
N 	N 	0.51489 0.13486 0.78703 -0.23900
C 	C 	0.53220 0.16928 0.73852 0.07000
H 	H 	0.50232 0.18087 0.72194 0.01000
N 	N 	0.33903 0.05812 0.85581 -0.23400
C 	C 	0.21719 0.02664 0.90403 0.05800
H 	H 	0.17585 0.01596 0.92040 -0.00000
C 	C 	0.28790 0.05803 0.82568 0.05800
H 	H 	0.29453 0.06865 0.78885 0.01200
C 	C 	0.32924 0.04247 0.91005 0.23400
C 	C 	0.22698 0.04229 0.84979 -0.11800
H 	H 	0.19227 0.04223 0.82933 0.06000
N 	N 	0.26832 0.02673 0.93416 -0.25700
O 	O 	0.37491 0.04255 0.93698 -0.27000
N 	N 	0.96570 0.43030 0.34727 -0.21500
C 	C 	0.02852 0.46163 0.37227 0.01600
H 	H 	0.04984 0.43660 0.38075 0.01900
N 	N 	0.18155 0.46820 0.12037 -0.23900
C 	C 	0.19886 0.50262 0.07186 0.06700
H 	H 	0.16898 0.51421 0.05528 0.00100
N 	N 	0.00569 0.39146 0.18915 -0.27100
C 	C 	0.88385 0.35998 0.23737 0.07400
H 	H 	0.84251 0.34930 0.25374 -0.00300
C 	C 	0.95456 0.39137 0.15902 0.10200
H 	H 	0.96119 0.40199 0.12219 0.00800
C 	C 	0.99590 0.37581 0.24339 0.29900
C 	C 	0.89364 0.37563 0.18313 -0.13600
H 	H 	0.85893 0.37557 0.16267 0.07000
N 	N 	0.93498 0.36007 0.26750 -0.27800
O 	O 	0.04157 0.37589 0.27032 -0.31900
Cu	Cu	0.76747 0.00000 0.50000 0.87800
Cu	Cu	0.43414 0.33333 0.83333 0.89300
Cu	Cu	0.10080 0.66667 0.16667 0.89100
Cu	Cu	0.00000 0.76747 0.50000 0.87900
Cu	Cu	0.66667 0.10080 0.83333 0.89200
Cu	Cu	0.33333 0.43414 0.16667 0.89200
Cu	Cu	0.23253 0.23253 0.50000 0.89200
Cu	Cu	0.89920 0.56586 0.83333 0.89500
Cu	Cu	0.56586 0.89920 0.16667 0.89400
Cu	Cu	0.23253 0.00000 0.50000 0.87700
Cu	Cu	0.89920 0.33333 0.83333 0.89500
Cu	Cu	0.56586 0.66667 0.16667 0.89200
Cu	Cu	-0.00000 0.23253 0.50000 0.87800
Cu	Cu	0.66667 0.56586 0.83333 0.89300
Cu	Cu	0.33333 0.89920 0.16667 0.89400
Cu	Cu	0.76747 0.76747 0.50000 0.89300
Cu	Cu	0.43414 0.10080 0.83333 0.89200
Cu	Cu	0.10080 0.43414 0.16667 0.89100
Cu	Cu	0.57987 0.91321 0.66667 0.91100
Cu	Cu	0.24654 0.24654 -0.00000 0.88100
Cu	Cu	0.08679 0.66667 0.66667 0.90600
Cu	Cu	0.75346 0.00000 -0.00000 0.86600
Cu	Cu	0.33333 0.42013 0.66667 0.90800
Cu	Cu	-0.00000 0.75346 -0.00000 0.86900
Cu	Cu	0.91321 0.57987 0.33333 0.91100
Cu	Cu	0.66667 0.08679 0.33333 0.90600
Cu	Cu	0.42013 0.33333 0.33333 0.90800
Cu	Cu	0.42013 0.08679 0.33333 0.90600
Cu	Cu	0.91321 0.33333 0.33333 0.91100
Cu	Cu	0.66667 0.57987 0.33333 0.90800
Cu	Cu	0.08679 0.42013 0.66667 0.90600
Cu	Cu	0.75346 0.75346 -0.00000 0.88300
Cu	Cu	0.33333 0.91321 0.66667 0.91100
Cu	Cu	-0.00000 0.24654 -0.00000 0.86800
Cu	Cu	0.57987 0.66667 0.66667 0.90800
Cu	Cu	0.24654 0.00000 -0.00000 0.86600
C 	C 	0.60112 0.80056 0.66808 0.23200
C 	C 	0.72644 0.86322 0.71812 -0.11800
H 	H 	0.76899 0.88450 0.73510 0.07500
O 	O 	0.54513 0.77257 0.64573 -0.29100
C 	C 	0.26779 0.13389 0.00141 0.15500
C 	C 	0.39311 0.19655 0.05145 -0.12000
H 	H 	0.43566 0.21783 0.06843 0.05800
O 	O 	0.21180 0.10590 0.97906 -0.22900
C 	C 	0.93445 0.46723 0.33475 0.23500
C 	C 	0.05977 0.52989 0.38479 -0.09000
H 	H 	0.10232 0.55116 0.40177 0.05700
O 	O 	0.87846 0.43923 0.31240 -0.29100
C 	C 	0.19944 0.80056 0.66808 0.23200
C 	C 	0.13678 0.86322 0.71812 -0.11900
H 	H 	0.11550 0.88450 0.73510 0.06900
O 	O 	0.22744 0.77257 0.64573 -0.29100
C 	C 	0.86611 0.13389 0.00141 0.15600
C 	C 	0.80345 0.19655 0.05145 -0.11900
H 	H 	0.78217 0.21783 0.06843 0.05800
O 	O 	0.89410 0.10590 0.97906 -0.22100
C 	C 	0.53277 0.46723 0.33475 0.23200
C 	C 	0.47011 0.52989 0.38479 -0.11900
H 	H 	0.44884 0.55116 0.40177 0.06900
O 	O 	0.56077 0.43923 0.31240 -0.29200
C 	C 	0.19944 0.39888 0.66808 0.23200
C 	C 	0.13678 0.27356 0.71812 -0.12100
H 	H 	0.11550 0.23101 0.73510 0.06300
O 	O 	0.22743 0.45487 0.64573 -0.29100
C 	C 	0.86611 0.73221 0.00141 0.16000
C 	C 	0.80345 0.60689 0.05145 -0.11800
H 	H 	0.78217 0.56434 0.06843 0.05900
O 	O 	0.89410 0.78820 0.97906 -0.21700
C 	C 	0.53277 0.06555 0.33475 0.22900
C 	C 	0.47011 0.94023 0.38479 -0.15000
H 	H 	0.44884 0.89768 0.40177 0.08100
O 	O 	0.56077 0.12154 0.31240 -0.29200
C 	C 	0.80056 0.60112 0.33192 0.23200
C 	C 	0.86322 0.72644 0.28188 -0.11700
H 	H 	0.88450 0.76899 0.26490 0.07400
O 	O 	0.77257 0.54513 0.35427 -0.29200
C 	C 	0.46723 0.93445 0.66525 0.23500
C 	C 	0.52989 0.05977 0.61521 -0.08900
H 	H 	0.55116 0.10232 0.59823 0.05600
O 	O 	0.43923 0.87846 0.68760 -0.29100
C 	C 	0.13389 0.26779 0.99859 0.30800
C 	C 	0.19655 0.39311 0.94855 -0.12000
H 	H 	0.21783 0.43566 0.93157 0.07800
O 	O 	0.10590 0.21180 0.02094 -0.36200
C 	C 	0.80056 0.19944 0.33192 0.23200
C 	C 	0.86322 0.13678 0.28188 -0.11900
H 	H 	0.88450 0.11550 0.26490 0.06800
O 	O 	0.77257 0.22744 0.35427 -0.29200
C 	C 	0.46723 0.53277 0.66525 0.23200
C 	C 	0.52989 0.47011 0.61521 -0.11900
H 	H 	0.55116 0.44884 0.59823 0.06800
O 	O 	0.43923 0.56077 0.68760 -0.29100
C 	C 	0.13389 0.86611 0.99859 0.30400
C 	C 	0.19655 0.80345 0.94855 -0.11800
H 	H 	0.21783 0.78217 0.93157 0.07800
O 	O 	0.10590 0.89410 0.02094 -0.34900
C 	C 	0.39888 0.19944 0.33192 0.23200
C 	C 	0.27356 0.13678 0.28188 -0.12100
H 	H 	0.23101 0.11550 0.26490 0.06200
O 	O 	0.45487 0.22743 0.35427 -0.29200
C 	C 	0.06555 0.53277 0.66525 0.22900
C 	C 	0.94023 0.47011 0.61521 -0.14800
H 	H 	0.89768 0.44884 0.59823 0.08000
O 	O 	0.12154 0.56077 0.68760 -0.29200
C 	C 	0.73221 0.86611 0.99859 0.30600
C 	C 	0.60689 0.80345 0.94855 -0.11800
H 	H 	0.56434 0.78217 0.93157 0.07900
O 	O 	0.78820 0.89410 0.02094 -0.34400
C 	C 	0.89223 0.10777 0.47809 0.21700
C 	C 	0.92665 0.07335 0.38107 -0.12600
H 	H 	0.93834 0.06166 0.34814 0.06900
O 	O 	0.87686 0.12314 0.52143 -0.31000
C 	C 	0.55890 0.44110 0.81142 0.21600
C 	C 	0.59332 0.40668 0.71440 -0.12900
H 	H 	0.60500 0.39500 0.68147 0.07100
O 	O 	0.54353 0.45647 0.85476 -0.30800
C 	C 	0.22556 0.77444 0.14476 0.21400
C 	C 	0.25998 0.74002 0.04774 -0.13300
H 	H 	0.27167 0.72833 0.01481 0.05700
O 	O 	0.21019 0.78981 0.18810 -0.31200
C 	C 	0.89223 0.78446 0.47809 0.22200
C 	C 	0.92665 0.85330 0.38107 -0.16300
H 	H 	0.93834 0.87667 0.34814 0.09500
O 	O 	0.87686 0.75372 0.52143 -0.30700
C 	C 	0.55890 0.11779 0.81142 0.21300
C 	C 	0.59332 0.18663 0.71440 -0.12900
H 	H 	0.60500 0.21000 0.68147 0.07000
O 	O 	0.54353 0.08705 0.85476 -0.31700
C 	C 	0.22556 0.45113 0.14476 0.21400
C 	C 	0.25998 0.51997 0.04774 -0.13400
H 	H 	0.27167 0.54334 0.01481 0.05600
O 	O 	0.21019 0.42039 0.18810 -0.31200
C 	C 	0.21554 0.10777 0.47809 0.21200
C 	C 	0.14670 0.07335 0.38107 -0.09100
H 	H 	0.12333 0.06166 0.34814 0.04400
O 	O 	0.24628 0.12314 0.52143 -0.31500
C 	C 	0.88221 0.44110 0.81142 0.21800
C 	C 	0.81337 0.40668 0.71440 -0.12900
H 	H 	0.79000 0.39500 0.68147 0.07100
O 	O 	0.91295 0.45647 0.85476 -0.30000
C 	C 	0.54887 0.77444 0.14476 0.21400
C 	C 	0.48003 0.74002 0.04774 -0.13300
H 	H 	0.45666 0.72833 0.01481 0.05700
O 	O 	0.57961 0.78981 0.18810 -0.31200
C 	C 	0.10777 0.89223 0.52191 0.21800
C 	C 	0.07335 0.92665 0.61893 -0.13000
H 	H 	0.06166 0.93834 0.65186 0.07100
O 	O 	0.12314 0.87686 0.47857 -0.31000
C 	C 	0.77444 0.22556 0.85524 0.22000
C 	C 	0.74002 0.25998 0.95226 -0.12400
H 	H 	0.72833 0.27167 0.98519 0.08500
O 	O 	0.78981 0.21019 0.81190 -0.31200
C 	C 	0.44110 0.55890 0.18858 0.21700
C 	C 	0.40668 0.59332 0.28560 -0.12900
H 	H 	0.39500 0.60500 0.31853 0.07100
O 	O 	0.45647 0.54353 0.14524 -0.31600
C 	C 	0.78446 0.89223 0.52191 0.22200
C 	C 	0.85330 0.92665 0.61893 -0.16500
H 	H 	0.87667 0.93834 0.65186 0.09600
O 	O 	0.75372 0.87686 0.47857 -0.30700
C 	C 	0.45113 0.22556 0.85524 0.22000
C 	C 	0.51997 0.25998 0.95226 -0.12400
H 	H 	0.54334 0.27167 0.98519 0.08500
O 	O 	0.42039 0.21019 0.81190 -0.31200
C 	C 	0.11779 0.55890 0.18858 0.21500
C 	C 	0.18663 0.59332 0.28560 -0.12900
H 	H 	0.21000 0.60500 0.31853 0.07000
O 	O 	0.08705 0.54353 0.14524 -0.32400
C 	C 	0.10777 0.21554 0.52191 0.21200
C 	C 	0.07335 0.14670 0.61893 -0.09400
H 	H 	0.06166 0.12333 0.65186 0.04600
O 	O 	0.12314 0.24628 0.47857 -0.31500
C 	C 	0.77444 0.54887 0.85524 0.21900
C 	C 	0.74002 0.48003 0.95226 -0.12400
H 	H 	0.72833 0.45666 0.98519 0.08500
O 	O 	0.78981 0.57961 0.81190 -0.31200
C 	C 	0.44110 0.88221 0.18858 0.22000
C 	C 	0.40668 0.81337 0.28560 -0.12900
H 	H 	0.39500 0.79000 0.31853 0.07100
O 	O 	0.45647 0.91295 0.14524 -0.30600
