data_crystal

_cell_length_a 31.27680
_cell_length_b 31.27680
_cell_length_c 31.27680
_cell_angle_alpha 116.48350
_cell_angle_beta  116.48350
_cell_angle_gamma 116.48350

_symmetry_space_group_name_	'P 1'
_symmetry_space_group_name_H-M	'P 1'

loop_
_symmetry_equiv_pos_as_xyz
  x,y,z

loop_
_atom_site_label
_atom_site_type_symbol
_atom_site_fract_x
_atom_site_fract_y
_atom_site_fract_z
_atom_site_charge
Zn	Zn	0.49284 0.16650 0.49133 1.23200
Zn	Zn	0.26281 0.91234 0.20272 1.24600
H 	H 	0.17300 0.74970 0.09400 0.00700
H 	H 	0.17400 0.67640 0.09670 0.06800
H 	H 	0.36820 0.94710 0.32870 0.00700
H 	H 	0.37230 0.87990 0.33900 0.07900
H 	H 	0.59860 0.32630 0.46190 0.06000
H 	H 	0.68850 0.28690 0.58390 0.07100
H 	H 	0.45320 0.18050 0.33760 0.06100
H 	H 	0.41290 0.91540 0.48130 0.03700
H 	H 	0.36210 0.16750 0.53710 0.09900
H 	H 	0.46190 0.21000 0.56910 -0.01800
H 	H 	0.22060 0.02450 0.31280 0.08800
H 	H 	0.32310 0.06150 0.34670 0.00400
C 	C 	0.65174 0.33966 0.62940 0.38900
C 	C 	0.21387 0.77620 0.14453 0.07900
C 	C 	0.27622 0.77218 0.22030 0.05300
C 	C 	0.42304 0.08687 0.34589 0.43300
C 	C 	0.42133 0.08350 0.29607 -0.21500
C 	C 	0.65063 0.32654 0.57703 -0.14100
C 	C 	0.28267 0.09881 0.42332 0.06200
C 	C 	0.21433 0.73195 0.14542 -0.11600
C 	C 	0.32693 0.89092 0.28095 0.08900
C 	C 	0.33081 0.85138 0.28721 -0.12700
C 	C 	0.49520 0.08790 0.50130 0.57900
C 	C 	0.63760 0.29080 0.46770 -0.24400
C 	C 	0.61860 0.31900 0.48700 -0.01000
C 	C 	0.62740 0.33810 0.54190 0.14500
C 	C 	0.67170 0.29710 0.56110 -0.08800
C 	C 	0.62530 0.27370 0.40350 0.91900
C 	C 	0.66560 0.28410 0.50850 0.19700
C 	C 	0.42520 0.12950 0.29510 -0.05000
C 	C 	0.41260 0.03350 0.24770 0.34400
C 	C 	0.50560 0.04840 0.50370 -0.23700
C 	C 	0.45940 0.00580 0.49770 0.14600
C 	C 	0.44960 0.94970 0.49010 0.02900
C 	C 	0.35390 0.14810 0.49690 -0.16700
C 	C 	0.41130 0.16970 0.51450 0.13400
C 	C 	0.27130 0.06430 0.36720 -0.13100
C 	C 	0.33230 0.08590 0.38750 0.07900
N 	N 	0.26813 0.85361 0.21116 -0.24600
N 	N 	0.40518 0.14098 0.46384 -0.26600
O 	O 	0.68160 0.24350 0.49020 -0.25200
O 	O 	0.41760 0.00660 0.50540 -0.23700
O 	O 	0.36976 0.02322 0.31612 -0.47700
O 	O 	0.71468 0.40857 0.70335 -0.42400
O 	O 	0.59250 0.28211 0.60099 -0.50800
O 	O 	0.47967 0.15628 0.41845 -0.46700
O 	O 	0.47368 0.10662 0.51190 -0.48000
O 	O 	0.59568 0.27535 0.37417 -0.75400
O 	O 	0.64520 0.25570 0.39380 -0.69200
O 	O 	0.40907 0.98993 0.25280 -0.88200
O 	O 	0.52247 0.11700 0.49293 -0.47400
O 	O 	0.59380 0.35510 0.55010 -0.23300
C 	C 	0.45829 0.69471 0.47427 0.09100
H 	H 	0.44292 0.67198 0.42298 0.03800
C 	C 	0.51283 0.71729 0.51984 0.08900
H 	H 	0.47261 0.74603 0.50501 -0.01500
O 	O 	0.51149 0.67918 0.48711 -0.25700
H 	H 	0.51127 0.71246 0.55329 0.04200
H 	H 	0.57026 0.78280 0.56468 -0.00000
C 	C 	0.55800 0.71445 0.49817 0.11400
H 	H 	0.52969 0.67728 0.43837 0.02200
H 	H 	0.60833 0.73002 0.53828 0.02600
H 	H 	0.58372 0.77226 0.52921 -0.00000
C 	C 	0.36169 0.81274 0.53511 0.08800
H 	H 	0.34778 0.79713 0.48647 0.02900
H 	H 	0.42554 0.85125 0.58746 0.01600
C 	C 	0.35620 0.84760 0.55739 0.09000
H 	H 	0.36703 0.86048 0.60376 0.03600
O 	O 	0.29328 0.81034 0.50447 -0.25400
H 	H 	0.40280 0.90683 0.58621 0.00600
C 	C 	0.29572 0.85114 0.51670 0.11000
H 	H 	0.31236 0.88489 0.56948 0.01700
H 	H 	0.23436 0.81428 0.46106 0.02500
H 	H 	0.34293 0.89614 0.53213 0.01100
C 	C 	0.55223 0.43605 0.01716 0.04100
H 	H 	0.52262 0.39165 0.95691 0.03400
C 	C 	0.58523 0.43659 0.05399 0.14000
H 	H 	0.59694 0.49887 0.05142 0.03200
H 	H 	0.54558 0.37215 0.01369 0.02600
H 	H 	0.59943 0.46635 0.10526 0.03200
O 	O 	0.64367 0.47180 0.07985 -0.30700
C 	C 	0.68113 0.53377 0.11697 0.15200
H 	H 	0.70991 0.57063 0.17697 0.00700
H 	H 	0.64169 0.53121 0.08383 -0.02700
H 	H 	0.73026 0.56312 0.12821 0.01200
Zn	Zn	0.49133 0.49284 0.16650 1.23300
Zn	Zn	0.20272 0.26281 0.91234 1.24100
H 	H 	0.09400 0.17300 0.74970 0.00900
H 	H 	0.09670 0.17400 0.67640 0.07100
H 	H 	0.32870 0.36820 0.94710 0.00100
H 	H 	0.33900 0.37230 0.87990 0.07800
H 	H 	0.46190 0.59860 0.32630 0.06400
H 	H 	0.58390 0.68850 0.28690 0.07300
H 	H 	0.33760 0.45320 0.18050 0.18500
H 	H 	0.48130 0.41290 0.91540 0.03800
H 	H 	0.53710 0.36210 0.16750 0.09700
H 	H 	0.56910 0.46190 0.21000 -0.01700
H 	H 	0.31280 0.22060 0.02450 0.08500
H 	H 	0.34670 0.32310 0.06150 0.00600
C 	C 	0.62940 0.65174 0.33966 0.39000
C 	C 	0.14453 0.21387 0.77620 0.07700
C 	C 	0.22030 0.27622 0.77218 0.05200
C 	C 	0.34589 0.42304 0.08687 0.34700
C 	C 	0.29607 0.42133 0.08350 -0.01200
C 	C 	0.57703 0.65063 0.32654 -0.14400
C 	C 	0.42332 0.28267 0.09881 0.05400
C 	C 	0.14542 0.21433 0.73195 -0.11600
C 	C 	0.28095 0.32693 0.89092 0.08300
C 	C 	0.28721 0.33081 0.85138 -0.12900
C 	C 	0.50130 0.49520 0.08790 0.58100
C 	C 	0.46770 0.63760 0.29080 -0.22300
C 	C 	0.48700 0.61860 0.31900 -0.02400
C 	C 	0.54190 0.62740 0.33810 0.15100
C 	C 	0.56110 0.67170 0.29710 -0.08900
C 	C 	0.40350 0.62530 0.27370 0.89700
C 	C 	0.50850 0.66560 0.28410 0.20000
C 	C 	0.29510 0.42520 0.12950 -0.39000
C 	C 	0.24770 0.41260 0.03350 0.03300
C 	C 	0.50370 0.50560 0.04840 -0.24100
C 	C 	0.49770 0.45940 0.00580 0.14500
C 	C 	0.49010 0.44960 0.94970 0.02900
C 	C 	0.49690 0.35390 0.14810 -0.16200
C 	C 	0.51450 0.41130 0.16970 0.13000
C 	C 	0.36720 0.27130 0.06430 -0.12600
C 	C 	0.38750 0.33230 0.08590 0.07600
N 	N 	0.21116 0.26813 0.85361 -0.25100
N 	N 	0.46384 0.40518 0.14098 -0.26400
O 	O 	0.49020 0.68160 0.24350 -0.27200
O 	O 	0.50540 0.41760 0.00660 -0.23700
O 	O 	0.31612 0.36976 0.02322 -0.47500
O 	O 	0.70335 0.71468 0.40857 -0.42600
O 	O 	0.60099 0.59250 0.28211 -0.50800
O 	O 	0.41845 0.47967 0.15628 -0.44400
O 	O 	0.51190 0.47368 0.10662 -0.48100
O 	O 	0.37417 0.59568 0.27535 -0.73300
O 	O 	0.39380 0.64520 0.25570 -0.61800
O 	O 	0.25280 0.40907 0.98993 -0.22500
O 	O 	0.49293 0.52247 0.11700 -0.48100
O 	O 	0.55010 0.59380 0.35510 -0.23600
C 	C 	0.47427 0.45829 0.69471 0.09000
H 	H 	0.42298 0.44292 0.67198 0.03800
C 	C 	0.51984 0.51283 0.71729 0.09000
H 	H 	0.50501 0.47261 0.74603 -0.01400
O 	O 	0.48711 0.51149 0.67918 -0.25900
H 	H 	0.55329 0.51127 0.71246 0.04200
H 	H 	0.56468 0.57026 0.78280 0.00100
C 	C 	0.49817 0.55800 0.71445 0.11500
H 	H 	0.43837 0.52969 0.67728 0.02200
H 	H 	0.53828 0.60833 0.73002 0.02400
H 	H 	0.52921 0.58372 0.77226 -0.00000
C 	C 	0.53511 0.36169 0.81274 0.08600
H 	H 	0.48647 0.34778 0.79713 0.02900
H 	H 	0.58746 0.42554 0.85125 0.01800
C 	C 	0.55739 0.35620 0.84760 0.09200
H 	H 	0.60376 0.36703 0.86048 0.03600
O 	O 	0.50447 0.29328 0.81034 -0.25500
H 	H 	0.58621 0.40280 0.90683 0.00600
C 	C 	0.51670 0.29572 0.85114 0.11100
H 	H 	0.56948 0.31236 0.88489 0.01700
H 	H 	0.46106 0.23436 0.81428 0.02500
H 	H 	0.53213 0.34293 0.89614 0.01000
C 	C 	0.01716 0.55223 0.43605 0.08500
H 	H 	0.95691 0.52262 0.39165 0.02200
C 	C 	0.05399 0.58523 0.43659 0.10100
H 	H 	0.05142 0.59694 0.49887 0.01800
H 	H 	0.01369 0.54558 0.37215 0.03500
H 	H 	0.10526 0.59943 0.46635 0.04000
O 	O 	0.07985 0.64367 0.47180 -0.28800
C 	C 	0.11697 0.68113 0.53377 0.13600
H 	H 	0.17697 0.70991 0.57063 0.00900
H 	H 	0.08383 0.64169 0.53121 -0.01700
H 	H 	0.12821 0.73026 0.56312 0.01500
Zn	Zn	0.16650 0.49133 0.49284 1.23300
Zn	Zn	0.91234 0.20272 0.26281 1.24000
H 	H 	0.74970 0.09400 0.17300 0.00800
H 	H 	0.67640 0.09670 0.17400 0.07000
H 	H 	0.94710 0.32870 0.36820 -0.00300
H 	H 	0.87990 0.33900 0.37230 0.07900
H 	H 	0.32630 0.46190 0.59860 0.06400
H 	H 	0.28690 0.58390 0.68850 0.07000
H 	H 	0.18050 0.33760 0.45320 0.12900
H 	H 	0.91540 0.48130 0.41290 0.04400
H 	H 	0.16750 0.53710 0.36210 0.10000
H 	H 	0.21000 0.56910 0.46190 -0.01900
H 	H 	0.02450 0.31280 0.22060 0.08700
H 	H 	0.06150 0.34670 0.32310 0.00500
C 	C 	0.33966 0.62940 0.65174 0.39000
C 	C 	0.77620 0.14453 0.21387 0.08000
C 	C 	0.77218 0.22030 0.27622 0.05500
C 	C 	0.08687 0.34589 0.42304 0.36200
C 	C 	0.08350 0.29607 0.42133 -0.06900
C 	C 	0.32654 0.57703 0.65063 -0.14600
C 	C 	0.09881 0.42332 0.28267 0.06600
C 	C 	0.73195 0.14542 0.21433 -0.11800
C 	C 	0.89092 0.28095 0.32693 0.08600
C 	C 	0.85138 0.28721 0.33081 -0.13100
C 	C 	0.08790 0.50130 0.49520 0.58900
C 	C 	0.29080 0.46770 0.63760 -0.22200
C 	C 	0.31900 0.48700 0.61860 -0.02400
C 	C 	0.33810 0.54190 0.62740 0.15100
C 	C 	0.29710 0.56110 0.67170 -0.08400
C 	C 	0.27370 0.40350 0.62530 0.89600
C 	C 	0.28410 0.50850 0.66560 0.19100
C 	C 	0.12950 0.29510 0.42520 -0.25100
C 	C 	0.03350 0.24770 0.41260 0.07000
C 	C 	0.04840 0.50370 0.50560 -0.25500
C 	C 	0.00580 0.49770 0.45940 0.16300
C 	C 	0.94970 0.49010 0.44960 0.01100
C 	C 	0.14810 0.49690 0.35390 -0.16900
C 	C 	0.16970 0.51450 0.41130 0.13500
C 	C 	0.06430 0.36720 0.27130 -0.13200
C 	C 	0.08590 0.38750 0.33230 0.07900
N 	N 	0.85361 0.21116 0.26813 -0.25200
N 	N 	0.14098 0.46384 0.40518 -0.26600
O 	O 	0.24350 0.49020 0.68160 -0.23200
O 	O 	0.00660 0.50540 0.41760 -0.25300
O 	O 	0.02322 0.31612 0.36976 -0.48100
O 	O 	0.40857 0.70335 0.71468 -0.42300
O 	O 	0.28211 0.60099 0.59250 -0.50800
O 	O 	0.15628 0.41845 0.47967 -0.45100
O 	O 	0.10662 0.51190 0.47368 -0.48300
O 	O 	0.27535 0.37417 0.59568 -0.73300
O 	O 	0.25570 0.39380 0.64520 -0.62000
O 	O 	0.98993 0.25280 0.40907 -0.23000
O 	O 	0.11700 0.49293 0.52247 -0.48500
O 	O 	0.35510 0.55010 0.59380 -0.23500
C 	C 	0.69471 0.47427 0.45829 0.10700
H 	H 	0.67198 0.42298 0.44292 0.03400
C 	C 	0.71729 0.51984 0.51283 0.07000
H 	H 	0.74603 0.50501 0.47261 -0.01400
O 	O 	0.67918 0.48711 0.51149 -0.24900
H 	H 	0.71246 0.55329 0.51127 0.06100
H 	H 	0.78280 0.56468 0.57026 0.00700
C 	C 	0.71445 0.49817 0.55800 0.11000
H 	H 	0.67728 0.43837 0.52969 0.02300
H 	H 	0.73002 0.53828 0.60833 0.02700
H 	H 	0.77226 0.52921 0.58372 0.00100
C 	C 	0.81274 0.53511 0.36169 0.08900
H 	H 	0.79713 0.48647 0.34778 0.02800
H 	H 	0.85125 0.58746 0.42554 0.02200
C 	C 	0.84760 0.55739 0.35620 0.08700
H 	H 	0.86048 0.60376 0.36703 0.04600
O 	O 	0.81034 0.50447 0.29328 -0.25300
H 	H 	0.90683 0.58621 0.40280 0.00800
C 	C 	0.85114 0.51670 0.29572 0.11000
H 	H 	0.88489 0.56948 0.31236 0.01700
H 	H 	0.81428 0.46106 0.23436 0.02500
H 	H 	0.89614 0.53213 0.34293 0.01000
C 	C 	0.43605 0.01716 0.55223 0.04300
H 	H 	0.39165 0.95691 0.52262 0.03300
C 	C 	0.43659 0.05399 0.58523 0.13900
H 	H 	0.49887 0.05142 0.59694 0.03100
H 	H 	0.37215 0.01369 0.54558 0.02600
H 	H 	0.46635 0.10526 0.59943 0.03200
O 	O 	0.47180 0.07985 0.64367 -0.30600
C 	C 	0.53377 0.11697 0.68113 0.15200
H 	H 	0.57063 0.17697 0.70991 0.00600
H 	H 	0.53121 0.08383 0.64169 -0.02700
H 	H 	0.56312 0.12821 0.73026 0.01100
Zn	Zn	0.33350 0.00716 0.00867 1.22800
Zn	Zn	0.58766 0.23719 0.29728 1.22600
H 	H 	0.75030 0.32700 0.40600 0.01100
H 	H 	0.82360 0.32600 0.40330 0.07000
H 	H 	0.55290 0.13180 0.17130 -0.00600
H 	H 	0.62010 0.12770 0.16100 0.07400
H 	H 	0.17370 0.90140 0.03810 0.06900
H 	H 	0.21310 0.81150 0.91610 0.07500
O 	O 	0.31950 0.04680 0.16240 -0.11900
H 	H 	0.58460 0.08710 0.01870 0.03300
H 	H 	0.33250 0.13790 0.96290 0.12700
H 	H 	0.29000 0.03810 0.93090 -0.03800
H 	H 	0.47550 0.27940 0.18720 0.10000
H 	H 	0.43850 0.17690 0.15330 -0.00400
C 	C 	0.16034 0.84826 0.87060 0.38000
C 	C 	0.72380 0.28613 0.35547 0.06400
C 	C 	0.72782 0.22378 0.27970 0.04300
C 	C 	0.41313 0.07696 0.15411 0.37000
C 	C 	0.41650 0.07867 0.20393 -0.20300
C 	C 	0.17346 0.84937 0.92297 -0.11900
C 	C 	0.40119 0.21733 0.07668 0.11100
C 	C 	0.76805 0.28567 0.35458 -0.11300
C 	C 	0.60908 0.17307 0.21905 0.05600
C 	C 	0.64862 0.16919 0.21279 -0.12300
C 	C 	0.41210 0.00480 0.99870 0.58000
C 	C 	0.20920 0.86240 0.03230 -0.22900
C 	C 	0.18100 0.88140 0.01300 0.00300
C 	C 	0.16190 0.87260 0.95810 0.09900
C 	C 	0.20290 0.82830 0.93890 -0.10000
C 	C 	0.22630 0.87470 0.09650 0.88500
C 	C 	0.21590 0.83440 0.99150 0.20500
C 	C 	0.37050 0.07480 0.20490 0.27900
C 	C 	0.46650 0.08740 0.25230 -0.23200
C 	C 	0.45160 0.99440 0.99630 -0.22600
C 	C 	0.49420 0.04060 0.00230 0.13400
C 	C 	0.55030 0.05040 0.00990 0.03800
C 	C 	0.35190 0.14610 0.00310 -0.23800
C 	C 	0.33030 0.08870 0.98550 0.19000
C 	C 	0.43570 0.22870 0.13280 -0.16700
C 	C 	0.41410 0.16770 0.11250 0.10400
N 	N 	0.64639 0.23187 0.28884 -0.26400
N 	N 	0.35902 0.09482 0.03616 -0.28300
O 	O 	0.25650 0.81840 0.00980 -0.21500
O 	O 	0.49340 0.08240 0.99460 -0.24700
O 	O 	0.47678 0.13024 0.18388 -0.52500
O 	O 	0.09143 0.78532 0.79665 -0.42200
O 	O 	0.21789 0.90750 0.89901 -0.50700
O 	O 	0.34372 0.02033 0.08155 -0.46100
O 	O 	0.39338 0.02632 0.98810 -0.47700
O 	O 	0.22465 0.90432 0.12583 -0.71500
O 	O 	0.24430 0.85480 0.10620 -0.58700
H 	H 	0.51007 0.09093 0.24720 1.63700
O 	O 	0.38300 0.97753 0.00707 -0.48300
O 	O 	0.14490 0.90620 0.94990 0.01400
C 	C 	0.80529 0.04171 0.02573 0.23000
H 	H 	0.82802 0.05708 0.07702 0.00400
C 	C 	0.78271 0.98717 0.98016 -0.00100
H 	H 	0.75397 0.02739 0.99499 -0.02700
O 	O 	0.82082 0.98851 0.01289 -0.22700
H 	H 	0.78754 0.98873 0.94671 0.06300
H 	H 	0.71720 0.92974 0.93532 0.03500
C 	C 	0.78555 0.94200 0.00183 0.10600
H 	H 	0.82272 0.97031 0.06163 0.02300
H 	H 	0.76998 0.89167 0.96172 0.02500
H 	H 	0.72774 0.91628 0.97079 0.00000
C 	C 	0.68726 0.13831 0.96489 0.04600
H 	H 	0.70287 0.15222 0.01353 0.03900
H 	H 	0.64875 0.07446 0.91254 0.03100
C 	C 	0.65240 0.14380 0.94261 0.12300
H 	H 	0.63952 0.13297 0.89624 0.02900
O 	O 	0.68966 0.20672 0.99553 -0.26800
H 	H 	0.59317 0.09720 0.91379 -0.00000
C 	C 	0.64886 0.20428 0.98330 0.12200
H 	H 	0.61511 0.18764 0.93052 0.01400
H 	H 	0.68572 0.26564 0.03894 0.02100
H 	H 	0.60386 0.15707 0.96787 0.00900
C 	C 	0.06395 0.94777 0.48284 0.11400
H 	H 	0.10835 0.97738 0.54309 0.01300
C 	C 	0.06341 0.91477 0.44601 0.07100
H 	H 	0.00113 0.90306 0.44858 -0.00000
H 	H 	0.12785 0.95442 0.48631 0.04200
H 	H 	0.03365 0.90057 0.39474 0.04700
O 	O 	0.02820 0.85633 0.42015 -0.27000
C 	C 	0.96623 0.81887 0.38303 0.10900
H 	H 	0.92937 0.79009 0.32303 0.01400
H 	H 	0.93688 0.76974 0.37179 0.01700
Zn	Zn	0.00716 0.00867 0.33350 1.23200
Zn	Zn	0.23719 0.29728 0.58766 1.23900
H 	H 	0.32700 0.40600 0.75030 0.00900
H 	H 	0.32600 0.40330 0.82360 0.07100
H 	H 	0.13180 0.17130 0.55290 0.00000
H 	H 	0.12770 0.16100 0.62010 0.07800
H 	H 	0.90140 0.03810 0.17370 0.07600
H 	H 	0.81150 0.91610 0.21310 0.06800
O 	O 	0.04680 0.16240 0.31950 -0.77800
H 	H 	0.08710 0.01870 0.58460 0.01600
H 	H 	0.13790 0.96290 0.33250 0.12000
H 	H 	0.03810 0.93090 0.29000 -0.03100
H 	H 	0.27940 0.18720 0.47550 0.09800
H 	H 	0.17690 0.15330 0.43850 0.00100
C 	C 	0.84826 0.87060 0.16034 0.39300
C 	C 	0.28613 0.35547 0.72380 0.07600
C 	C 	0.22378 0.27970 0.72782 0.05100
C 	C 	0.07696 0.15411 0.41313 0.47600
C 	C 	0.07867 0.20393 0.41650 -0.38200
C 	C 	0.84937 0.92297 0.17346 -0.15100
C 	C 	0.21733 0.07668 0.40119 0.09900
C 	C 	0.28567 0.35458 0.76805 -0.11500
C 	C 	0.17307 0.21905 0.60908 0.08100
C 	C 	0.16919 0.21279 0.64862 -0.12700
C 	C 	0.00480 0.99870 0.41210 0.59400
C 	C 	0.86240 0.03230 0.20920 -0.21100
C 	C 	0.88140 0.01300 0.18100 -0.01300
C 	C 	0.87260 0.95810 0.16190 0.16900
C 	C 	0.82830 0.93890 0.20290 -0.07800
C 	C 	0.87470 0.09650 0.22630 0.89100
C 	C 	0.83440 0.99150 0.21590 0.19300
C 	C 	0.07480 0.20490 0.37050 0.73300
C 	C 	0.08740 0.25230 0.46650 0.06800
C 	C 	0.99440 0.99630 0.45160 -0.24600
C 	C 	0.04060 0.00230 0.49420 0.15100
C 	C 	0.05040 0.00990 0.55030 0.02100
C 	C 	0.14610 0.00310 0.35190 -0.21800
C 	C 	0.08870 0.98550 0.33030 0.17500
C 	C 	0.22870 0.13280 0.43570 -0.15600
C 	C 	0.16770 0.11250 0.41410 0.09400
N 	N 	0.23187 0.28884 0.64639 -0.25300
N 	N 	0.09482 0.03616 0.35902 -0.27800
O 	O 	0.81840 0.00980 0.25650 -0.21300
O 	O 	0.08240 0.99460 0.49340 -0.25700
O 	O 	0.13024 0.18388 0.47678 -0.51400
O 	O 	0.78532 0.79665 0.09143 -0.42800
O 	O 	0.90750 0.89901 0.21789 -0.50700
O 	O 	0.02033 0.08155 0.34372 -0.46500
O 	O 	0.02632 0.98810 0.39338 -0.48100
O 	O 	0.90432 0.12583 0.22465 -0.72500
O 	O 	0.85480 0.10620 0.24430 -0.60000
H 	H 	0.09093 0.24720 0.51007 0.01300
O 	O 	0.97753 0.00707 0.38300 -0.48600
O 	O 	0.90620 0.94990 0.14490 -0.25400
C 	C 	0.04171 0.02573 0.80529 0.08000
H 	H 	0.05708 0.07702 0.82802 0.04000
C 	C 	0.98717 0.98016 0.78271 0.09700
H 	H 	0.02739 0.99499 0.75397 -0.00700
O 	O 	0.98851 0.01289 0.82082 -0.26000
H 	H 	0.98873 0.94671 0.78754 0.04100
H 	H 	0.92974 0.93532 0.71720 -0.00100
C 	C 	0.94200 0.00183 0.78555 0.11200
H 	H 	0.97031 0.06163 0.82272 0.02300
H 	H 	0.89167 0.96172 0.76998 0.02700
H 	H 	0.91628 0.97079 0.72774 0.00100
C 	C 	0.13831 0.96489 0.68726 0.07600
H 	H 	0.15222 0.01353 0.70287 0.02800
H 	H 	0.07446 0.91254 0.64875 0.02600
C 	C 	0.14380 0.94261 0.65240 0.10300
H 	H 	0.13297 0.89624 0.63952 0.03600
O 	O 	0.20672 0.99553 0.68966 -0.26000
H 	H 	0.09720 0.91379 0.59317 -0.00400
C 	C 	0.20428 0.98330 0.64886 0.11800
H 	H 	0.18764 0.93052 0.61511 0.01600
H 	H 	0.26564 0.03894 0.68572 0.02100
H 	H 	0.15707 0.96787 0.60386 0.00700
C 	C 	0.94777 0.48284 0.06395 0.10200
H 	H 	0.97738 0.54309 0.10835 0.01900
C 	C 	0.91477 0.44601 0.06341 0.08400
H 	H 	0.90306 0.44858 0.00113 0.00500
H 	H 	0.95442 0.48631 0.12785 0.03800
H 	H 	0.90057 0.39474 0.03365 0.04300
O 	O 	0.85633 0.42015 0.02820 -0.27800
C 	C 	0.81887 0.38303 0.96623 0.11700
H 	H 	0.79009 0.32303 0.92937 0.01300
H 	H 	0.76974 0.37179 0.93688 0.01800
Zn	Zn	0.00867 0.33350 0.00716 1.23100
Zn	Zn	0.29728 0.58766 0.23719 1.24100
H 	H 	0.40600 0.75030 0.32700 0.00900
H 	H 	0.40330 0.82360 0.32600 0.07100
H 	H 	0.17130 0.55290 0.13180 0.00000
H 	H 	0.16100 0.62010 0.12770 0.07700
H 	H 	0.03810 0.17370 0.90140 0.25700
H 	H 	0.91610 0.21310 0.81150 0.02900
O 	O 	0.16240 0.31950 0.04680 -1.41200
H 	H 	0.01870 0.58460 0.08710 0.03600
H 	H 	0.96290 0.33250 0.13790 0.11300
H 	H 	0.93090 0.29000 0.03810 -0.03200
H 	H 	0.18720 0.47550 0.27940 0.09600
H 	H 	0.15330 0.43850 0.17690 0.00100
C 	C 	0.87060 0.16034 0.84826 0.45400
C 	C 	0.35547 0.72380 0.28613 0.07500
C 	C 	0.27970 0.72782 0.22378 0.05100
C 	C 	0.15411 0.41313 0.07696 0.59200
C 	C 	0.20393 0.41650 0.07867 -0.61300
C 	C 	0.92297 0.17346 0.84937 -0.32300
C 	C 	0.07668 0.40119 0.21733 0.09200
C 	C 	0.35458 0.76805 0.28567 -0.11500
C 	C 	0.21905 0.60908 0.17307 0.08100
C 	C 	0.21279 0.64862 0.16919 -0.12700
C 	C 	0.99870 0.41210 0.00480 0.57400
C 	C 	0.03230 0.20920 0.86240 -0.08000
C 	C 	0.01300 0.18100 0.88140 -0.41600
C 	C 	0.95810 0.16190 0.87260 0.46400
C 	C 	0.93890 0.20290 0.82830 0.03800
C 	C 	0.09650 0.22630 0.87470 0.81300
C 	C 	0.99150 0.21590 0.83440 0.08600
C 	C 	0.20490 0.37050 0.07480 1.18300
C 	C 	0.25230 0.46650 0.08740 0.14800
C 	C 	0.99630 0.45160 0.99440 -0.23600
C 	C 	0.00230 0.49420 0.04060 0.14600
C 	C 	0.00990 0.55030 0.05040 0.03200
C 	C 	0.00310 0.35190 0.14610 -0.20400
C 	C 	0.98550 0.33030 0.08870 0.16200
C 	C 	0.13280 0.43570 0.22870 -0.15200
C 	C 	0.11250 0.41410 0.16770 0.09000
N 	N 	0.28884 0.64639 0.23187 -0.25200
N 	N 	0.03616 0.35902 0.09482 -0.27700
O 	O 	0.00980 0.25650 0.81840 -0.19000
O 	O 	0.99460 0.49340 0.08240 -0.25300
O 	O 	0.18388 0.47678 0.13024 -0.54500
O 	O 	0.79665 0.09143 0.78532 -0.45000
O 	O 	0.89901 0.21789 0.90750 -0.53000
O 	O 	0.08155 0.34372 0.02033 -0.48400
O 	O 	0.98810 0.39338 0.02632 -0.47700
O 	O 	0.12583 0.22465 0.90432 -0.70100
O 	O 	0.10620 0.24430 0.85480 -0.57500
H 	H 	0.24720 0.51007 0.09093 -0.00100
O 	O 	0.00707 0.38300 0.97753 -0.46900
O 	O 	0.94990 0.14490 0.90620 -0.39100
C 	C 	0.02573 0.80529 0.04171 0.10500
H 	H 	0.07702 0.82802 0.05708 0.03400
C 	C 	0.98016 0.78271 0.98717 0.07300
H 	H 	0.99499 0.75397 0.02739 -0.00400
O 	O 	0.01289 0.82082 0.98851 -0.25000
H 	H 	0.94671 0.78754 0.98873 0.04100
H 	H 	0.93532 0.71720 0.92974 0.01100
C 	C 	0.00183 0.78555 0.94200 0.12800
H 	H 	0.06163 0.82272 0.97031 0.02400
H 	H 	0.96172 0.76998 0.89167 0.01900
H 	H 	0.97079 0.72774 0.91628 -0.00700
C 	C 	0.96489 0.68726 0.13831 0.08700
H 	H 	0.01353 0.70287 0.15222 0.02800
H 	H 	0.91254 0.64875 0.07446 0.02200
C 	C 	0.94261 0.65240 0.14380 0.09100
H 	H 	0.89624 0.63952 0.13297 0.03700
O 	O 	0.99553 0.68966 0.20672 -0.25400
H 	H 	0.91379 0.59317 0.09720 0.00600
C 	C 	0.98330 0.64886 0.20428 0.11200
H 	H 	0.93052 0.61511 0.18764 0.01600
H 	H 	0.03894 0.68572 0.26564 0.02400
H 	H 	0.96787 0.60386 0.15707 0.01000
C 	C 	0.48284 0.06395 0.94777 0.09500
H 	H 	0.54309 0.10835 0.97738 0.02200
C 	C 	0.44601 0.06341 0.91477 0.08900
H 	H 	0.44858 0.00113 0.90306 0.00700
H 	H 	0.48631 0.12785 0.95442 0.03800
H 	H 	0.39474 0.03365 0.90057 0.04300
O 	O 	0.42015 0.02820 0.85633 -0.28000
C 	C 	0.38303 0.96623 0.81887 0.12000
H 	H 	0.32303 0.92937 0.79009 0.01300
H 	H 	0.37179 0.93688 0.76974 0.01800
Zn	Zn	0.50716 0.83350 0.50867 1.23300
Zn	Zn	0.73719 0.08766 0.79728 1.23500
H 	H 	0.82700 0.25030 0.90600 0.00800
H 	H 	0.82600 0.32360 0.90330 0.07000
H 	H 	0.63180 0.05290 0.67130 -0.00100
H 	H 	0.62770 0.12010 0.66100 0.07800
H 	H 	0.40140 0.67370 0.53810 0.06600
H 	H 	0.31150 0.71310 0.41610 0.06800
H 	H 	0.54680 0.81950 0.66240 0.22400
H 	H 	0.58710 0.08460 0.51870 0.04800
H 	H 	0.63790 0.83250 0.46290 0.10400
H 	H 	0.53810 0.79000 0.43090 -0.02000
H 	H 	0.77940 0.97550 0.68720 0.09200
H 	H 	0.67690 0.93850 0.65330 0.00200
C 	C 	0.34826 0.66034 0.37060 0.39100
C 	C 	0.78613 0.22380 0.85547 0.07600
C 	C 	0.72378 0.22782 0.77970 0.05100
C 	C 	0.57696 0.91313 0.65411 0.30800
C 	C 	0.57867 0.91650 0.70393 0.05400
C 	C 	0.34937 0.67346 0.42297 -0.14900
C 	C 	0.71733 0.90119 0.57668 0.08000
C 	C 	0.78567 0.26805 0.85458 -0.11600
C 	C 	0.67307 0.10908 0.71905 0.08100
C 	C 	0.66919 0.14862 0.71279 -0.12700
C 	C 	0.50480 0.91210 0.49870 0.59100
C 	C 	0.36240 0.70920 0.53230 -0.21600
C 	C 	0.38140 0.68100 0.51300 -0.02900
C 	C 	0.37260 0.66190 0.45810 0.15400
C 	C 	0.32830 0.70290 0.43890 -0.08000
C 	C 	0.37470 0.72630 0.59650 0.89000
C 	C 	0.33440 0.71590 0.49150 0.18700
C 	C 	0.57480 0.87050 0.70490 -0.49700
C 	C 	0.58740 0.96650 0.75230 -0.10000
C 	C 	0.49440 0.95160 0.49630 -0.25800
C 	C 	0.54060 0.99420 0.50230 0.16900
C 	C 	0.55040 0.05030 0.50990 0.00400
C 	C 	0.64610 0.85190 0.50310 -0.17900
C 	C 	0.58870 0.83030 0.48550 0.14100
C 	C 	0.72870 0.93570 0.63280 -0.14200
C 	C 	0.66770 0.91410 0.61250 0.08500
N 	N 	0.73187 0.14639 0.78884 -0.25400
N 	N 	0.59482 0.85902 0.53616 -0.26800
O 	O 	0.31840 0.75650 0.50980 -0.21700
O 	O 	0.58240 0.99340 0.49460 -0.26000
O 	O 	0.63024 0.97678 0.68388 -0.47200
O 	O 	0.28532 0.59143 0.29665 -0.42500
O 	O 	0.40750 0.71789 0.39901 -0.50900
O 	O 	0.52033 0.84372 0.58155 -0.43500
O 	O 	0.52632 0.89338 0.48810 -0.48300
O 	O 	0.40432 0.72465 0.62583 -0.72700
O 	O 	0.35480 0.74430 0.60620 -0.61600
H 	H 	0.59093 0.01007 0.74720 0.03000
O 	O 	0.47753 0.88300 0.50707 -0.48200
O 	O 	0.40620 0.64490 0.44990 -0.23900
C 	C 	0.54171 0.30529 0.52573 0.08200
H 	H 	0.55708 0.32802 0.57702 0.04000
C 	C 	0.48717 0.28271 0.48016 0.09700
H 	H 	0.52739 0.25397 0.49499 -0.01000
O 	O 	0.48851 0.32082 0.51289 -0.26200
H 	H 	0.48873 0.28754 0.44671 0.04000
H 	H 	0.42974 0.21720 0.43532 -0.00100
C 	C 	0.44200 0.28555 0.50183 0.11700
H 	H 	0.47031 0.32272 0.56163 0.02100
H 	H 	0.39167 0.26998 0.46172 0.02300
H 	H 	0.41628 0.22774 0.47079 -0.00000
C 	C 	0.63831 0.18726 0.46489 0.17100
H 	H 	0.65222 0.20287 0.51353 0.01500
H 	H 	0.57446 0.14875 0.41254 -0.01200
C 	C 	0.64380 0.15240 0.44261 -0.00800
H 	H 	0.63297 0.13952 0.39624 0.01900
O 	O 	0.70672 0.18966 0.49553 -0.21400
H 	H 	0.59720 0.09317 0.41379 0.01500
C 	C 	0.70428 0.14886 0.48330 0.08900
H 	H 	0.68764 0.11511 0.43052 0.01100
H 	H 	0.76564 0.18572 0.53894 0.02700
H 	H 	0.65707 0.10386 0.46787 0.01400
C 	C 	0.44777 0.56395 0.98284 0.13300
H 	H 	0.47738 0.60835 0.04309 0.00200
C 	C 	0.41477 0.56341 0.94601 0.05700
H 	H 	0.40306 0.50113 0.94858 -0.00100
H 	H 	0.45442 0.62785 0.98631 0.04500
H 	H 	0.40057 0.53365 0.89474 0.05000
O 	O 	0.35633 0.52820 0.92015 -0.26700
C 	C 	0.31887 0.46623 0.88303 0.11600
H 	H 	0.29009 0.42937 0.82303 0.01300
H 	H 	0.35831 0.46879 0.91617 -0.00800
H 	H 	0.26974 0.43688 0.87179 0.02100
Zn	Zn	0.50867 0.50716 0.83350 1.23300
Zn	Zn	0.79728 0.73719 0.08766 1.23600
H 	H 	0.90600 0.82700 0.25030 0.00900
H 	H 	0.90330 0.82600 0.32360 0.07000
H 	H 	0.67130 0.63180 0.05290 -0.00100
H 	H 	0.66100 0.62770 0.12010 0.07800
H 	H 	0.53810 0.40140 0.67370 0.06600
H 	H 	0.41610 0.31150 0.71310 0.06800
H 	H 	0.66240 0.54680 0.81950 0.15300
H 	H 	0.51870 0.58710 0.08460 0.04200
H 	H 	0.46290 0.63790 0.83250 0.10300
H 	H 	0.43090 0.53810 0.79000 -0.02000
H 	H 	0.68720 0.77940 0.97550 0.09200
H 	H 	0.65330 0.67690 0.93850 0.00400
C 	C 	0.37060 0.34826 0.66034 0.39100
C 	C 	0.85547 0.78613 0.22380 0.07600
C 	C 	0.77970 0.72378 0.22782 0.05100
C 	C 	0.65411 0.57696 0.91313 0.33300
C 	C 	0.70393 0.57867 0.91650 -0.01500
C 	C 	0.42297 0.34937 0.67346 -0.14800
C 	C 	0.57668 0.71733 0.90119 0.07700
C 	C 	0.85458 0.78567 0.26805 -0.11600
C 	C 	0.71905 0.67307 0.10908 0.08100
C 	C 	0.71279 0.66919 0.14862 -0.12700
C 	C 	0.49870 0.50480 0.91210 0.59100
C 	C 	0.53230 0.36240 0.70920 -0.21600
C 	C 	0.51300 0.38140 0.68100 -0.02800
C 	C 	0.45810 0.37260 0.66190 0.15400
C 	C 	0.43890 0.32830 0.70290 -0.08000
C 	C 	0.59650 0.37470 0.72630 0.89200
C 	C 	0.49150 0.33440 0.71590 0.18700
C 	C 	0.70490 0.57480 0.87050 -0.30600
C 	C 	0.75230 0.58740 0.96650 -0.06500
C 	C 	0.49630 0.49440 0.95160 -0.25900
C 	C 	0.50230 0.54060 0.99420 0.17100
C 	C 	0.50990 0.55040 0.05030 0.00400
C 	C 	0.50310 0.64610 0.85190 -0.17600
C 	C 	0.48550 0.58870 0.83030 0.14000
C 	C 	0.63280 0.72870 0.93570 -0.14000
C 	C 	0.61250 0.66770 0.91410 0.08400
N 	N 	0.78884 0.73187 0.14639 -0.25400
N 	N 	0.53616 0.59482 0.85902 -0.26700
O 	O 	0.50980 0.31840 0.75650 -0.21500
O 	O 	0.49460 0.58240 0.99340 -0.26900
O 	O 	0.68388 0.63024 0.97678 -0.47900
O 	O 	0.29665 0.28532 0.59143 -0.42600
O 	O 	0.39901 0.40750 0.71789 -0.50900
O 	O 	0.58155 0.52033 0.84372 -0.44200
O 	O 	0.48810 0.52632 0.89338 -0.48300
O 	O 	0.62583 0.40432 0.72465 -0.72900
O 	O 	0.60620 0.35480 0.74430 -0.61600
H 	H 	0.74720 0.59093 0.01007 0.02600
O 	O 	0.50707 0.47753 0.88300 -0.48200
O 	O 	0.44990 0.40620 0.64490 -0.23800
C 	C 	0.52573 0.54171 0.30529 0.08700
H 	H 	0.57702 0.55708 0.32802 0.03700
C 	C 	0.48016 0.48717 0.28271 0.09300
H 	H 	0.49499 0.52739 0.25397 -0.01300
O 	O 	0.51289 0.48851 0.32082 -0.26100
H 	H 	0.44671 0.48873 0.28754 0.04100
H 	H 	0.43532 0.42974 0.21720 0.00100
C 	C 	0.50183 0.44200 0.28555 0.11700
H 	H 	0.56163 0.47031 0.32272 0.01800
H 	H 	0.46172 0.39167 0.26998 0.02300
H 	H 	0.47079 0.41628 0.22774 -0.00100
C 	C 	0.46489 0.63831 0.18726 0.25100
H 	H 	0.51353 0.65222 0.20287 -0.00900
H 	H 	0.41254 0.57446 0.14875 -0.01500
C 	C 	0.44261 0.64380 0.15240 -0.10400
H 	H 	0.39624 0.63297 0.13952 0.08300
O 	O 	0.49553 0.70672 0.18966 -0.18200
H 	H 	0.41379 0.59720 0.09317 0.13600
C 	C 	0.48330 0.70428 0.14886 0.07600
H 	H 	0.43052 0.68764 0.11511 0.02700
H 	H 	0.53894 0.76564 0.18572 0.02800
H 	H 	0.46787 0.65707 0.10386 0.00900
C 	C 	0.98284 0.44777 0.56395 0.05400
H 	H 	0.04309 0.47738 0.60835 0.03000
C 	C 	0.94601 0.41477 0.56341 0.12900
H 	H 	0.94858 0.40306 0.50113 0.02700
H 	H 	0.98631 0.45442 0.62785 0.02800
H 	H 	0.89474 0.40057 0.53365 0.03400
O 	O 	0.92015 0.35633 0.52820 -0.30100
C 	C 	0.88303 0.31887 0.46623 0.14800
H 	H 	0.82303 0.29009 0.42937 0.00300
H 	H 	0.91617 0.35831 0.46879 -0.02500
H 	H 	0.87179 0.26974 0.43688 0.01400
Zn	Zn	0.83350 0.50867 0.50716 1.23300
Zn	Zn	0.08766 0.79728 0.73719 1.23900
H 	H 	0.25030 0.90600 0.82700 0.01000
H 	H 	0.32360 0.90330 0.82600 0.07000
H 	H 	0.05290 0.67130 0.63180 0.00100
H 	H 	0.12010 0.66100 0.62770 0.07800
H 	H 	0.67370 0.53810 0.40140 0.05300
H 	H 	0.71310 0.41610 0.31150 0.06900
O 	O 	0.81950 0.66240 0.54680 -0.05400
H 	H 	0.08460 0.51870 0.58710 0.03900
H 	H 	0.83250 0.46290 0.63790 0.09900
H 	H 	0.79000 0.43090 0.53810 -0.01700
H 	H 	0.97550 0.68720 0.77940 0.08600
H 	H 	0.93850 0.65330 0.67690 0.00600
C 	C 	0.66034 0.37060 0.34826 0.39100
C 	C 	0.22380 0.85547 0.78613 0.07600
C 	C 	0.22782 0.77970 0.72378 0.05100
C 	C 	0.91313 0.65411 0.57696 0.40600
C 	C 	0.91650 0.70393 0.57867 -0.20200
C 	C 	0.67346 0.42297 0.34937 -0.14600
C 	C 	0.90119 0.57668 0.71733 0.05900
C 	C 	0.26805 0.85458 0.78567 -0.11500
C 	C 	0.10908 0.71905 0.67307 0.08100
C 	C 	0.14862 0.71279 0.66919 -0.12600
C 	C 	0.91210 0.49870 0.50480 0.58300
C 	C 	0.70920 0.53230 0.36240 -0.21800
C 	C 	0.68100 0.51300 0.38140 -0.01200
C 	C 	0.66190 0.45810 0.37260 0.15100
C 	C 	0.70290 0.43890 0.32830 -0.08200
C 	C 	0.72630 0.59650 0.37470 0.89000
C 	C 	0.71590 0.49150 0.33440 0.19000
C 	C 	0.87050 0.70490 0.57480 0.21900
C 	C 	0.96650 0.75230 0.58740 0.00200
C 	C 	0.95160 0.49630 0.49440 -0.24400
C 	C 	0.99420 0.50230 0.54060 0.15100
C 	C 	0.05030 0.50990 0.55040 0.02300
C 	C 	0.85190 0.50310 0.64610 -0.16400
C 	C 	0.83030 0.48550 0.58870 0.13200
C 	C 	0.93570 0.63280 0.72870 -0.12800
C 	C 	0.91410 0.61250 0.66770 0.07700
N 	N 	0.14639 0.78884 0.73187 -0.25300
N 	N 	0.85902 0.53616 0.59482 -0.26500
O 	O 	0.75650 0.50980 0.31840 -0.21400
O 	O 	0.99340 0.49460 0.58240 -0.24200
O 	O 	0.97678 0.68388 0.63024 -0.49700
O 	O 	0.59143 0.29665 0.28532 -0.42700
O 	O 	0.71789 0.39901 0.40750 -0.50800
O 	O 	0.84372 0.58155 0.52033 -0.45800
O 	O 	0.89338 0.48810 0.52632 -0.48100
O 	O 	0.72465 0.62583 0.40432 -0.73100
O 	O 	0.74430 0.60620 0.35480 -0.59500
H 	H 	0.01007 0.74720 0.59093 0.02500
O 	O 	0.88300 0.50707 0.47753 -0.48000
O 	O 	0.64490 0.44990 0.40620 -0.24300
C 	C 	0.30529 0.52573 0.54171 0.08300
H 	H 	0.32802 0.57702 0.55708 0.04000
C 	C 	0.28271 0.48016 0.48717 0.09600
H 	H 	0.25397 0.49499 0.52739 -0.01200
O 	O 	0.32082 0.51289 0.48851 -0.26200
H 	H 	0.28754 0.44671 0.48873 0.03800
H 	H 	0.21720 0.43532 0.42974 -0.00300
C 	C 	0.28555 0.50183 0.44200 0.11700
H 	H 	0.32272 0.56163 0.47031 0.02200
H 	H 	0.26998 0.46172 0.39167 0.02100
H 	H 	0.22774 0.47079 0.41628 -0.00100
C 	C 	0.18726 0.46489 0.63831 0.12600
H 	H 	0.20287 0.51353 0.65222 0.01900
H 	H 	0.14875 0.41254 0.57446 -0.01100
C 	C 	0.15240 0.44261 0.64380 0.06900
H 	H 	0.13952 0.39624 0.63297 0.05200
O 	O 	0.18966 0.49553 0.70672 -0.24700
H 	H 	0.09317 0.41379 0.59720 0.03200
C 	C 	0.14886 0.48330 0.70428 0.10800
H 	H 	0.11511 0.43052 0.68764 0.02100
H 	H 	0.18572 0.53894 0.76564 0.02600
H 	H 	0.10386 0.46787 0.65707 0.01100
C 	C 	0.56395 0.98284 0.44777 0.10700
H 	H 	0.60835 0.04309 0.47738 0.01700
C 	C 	0.56341 0.94601 0.41477 0.08300
H 	H 	0.50113 0.94858 0.40306 0.01100
H 	H 	0.62785 0.98631 0.45442 0.03900
H 	H 	0.53365 0.89474 0.40057 0.04400
O 	O 	0.52820 0.92015 0.35633 -0.28100
C 	C 	0.46623 0.88303 0.31887 0.13000
H 	H 	0.42937 0.82303 0.29009 0.01000
H 	H 	0.46879 0.91617 0.35831 -0.00900
H 	H 	0.43688 0.87179 0.26974 0.01900
Zn	Zn	0.66650 0.99284 0.99133 1.23600
Zn	Zn	0.41234 0.76281 0.70272 1.24100
H 	H 	0.24970 0.67300 0.59400 0.00900
H 	H 	0.17640 0.67400 0.59670 0.07100
H 	H 	0.44710 0.86820 0.82870 0.00200
H 	H 	0.37990 0.87230 0.83900 0.07900
H 	H 	0.82630 0.09860 0.96190 0.53000
H 	H 	0.78690 0.18850 0.08390 0.00500
O 	O 	0.68050 0.95320 0.83760 -1.76700
H 	H 	0.41540 0.91290 0.98130 0.04800
H 	H 	0.66750 0.86210 0.03710 0.10300
H 	H 	0.71000 0.96190 0.06910 -0.01900
H 	H 	0.52450 0.72060 0.81280 0.09400
H 	H 	0.56150 0.82310 0.84670 0.00700
C 	C 	0.83966 0.15174 0.12940 0.47500
C 	C 	0.27620 0.71387 0.64453 0.07600
C 	C 	0.27218 0.77622 0.72030 0.05100
C 	C 	0.58687 0.92304 0.84589 0.58400
C 	C 	0.58350 0.92133 0.79607 -0.67600
C 	C 	0.82654 0.15063 0.07703 -0.37800
C 	C 	0.59881 0.78267 0.92332 0.07700
C 	C 	0.23195 0.71433 0.64542 -0.11500
C 	C 	0.39092 0.82693 0.78095 0.08200
C 	C 	0.35138 0.83081 0.78721 -0.12700
C 	C 	0.58790 0.99520 0.00130 0.60500
C 	C 	0.79080 0.13760 0.96770 0.12000
C 	C 	0.81900 0.11860 0.98700 -0.76900
C 	C 	0.83810 0.12740 0.04190 0.57400
C 	C 	0.79710 0.17170 0.06110 0.11100
C 	C 	0.77370 0.12530 0.90350 0.80400
C 	C 	0.78410 0.16560 0.00850 0.02100
C 	C 	0.62950 0.92520 0.79510 1.43000
C 	C 	0.53350 0.91260 0.74770 0.19500
C 	C 	0.54840 0.00560 0.00370 -0.28000
C 	C 	0.50580 0.95940 0.99770 0.18300
C 	C 	0.44970 0.94960 0.99010 -0.00400
C 	C 	0.64810 0.85390 0.99690 -0.17800
C 	C 	0.66970 0.91130 0.01450 0.14100
C 	C 	0.56430 0.77130 0.86720 -0.14000
C 	C 	0.58590 0.83230 0.88750 0.08500
N 	N 	0.35361 0.76813 0.71116 -0.25200
N 	N 	0.64098 0.90518 0.96384 -0.26700
O 	O 	0.74350 0.18160 0.99020 -0.17700
O 	O 	0.50660 0.91760 0.00540 -0.27000
O 	O 	0.52322 0.86976 0.81612 -0.54100
O 	O 	0.90857 0.21468 0.20335 -0.45000
O 	O 	0.78211 0.09250 0.10099 -0.53200
O 	O 	0.65628 0.97967 0.91845 -0.49100
O 	O 	0.60662 0.97368 0.01190 -0.48600
O 	O 	0.77535 0.09568 0.87417 -0.69300
O 	O 	0.75570 0.14520 0.89380 -0.58500
H 	H 	0.48993 0.90907 0.75280 -0.00400
O 	O 	0.61700 0.02247 0.99293 -0.48300
O 	O 	0.85510 0.09380 0.05010 -0.38600
C 	C 	0.19471 0.95829 0.97427 -0.58600
H 	H 	0.17198 0.94292 0.92298 0.18000
C 	C 	0.21729 0.01283 0.01984 0.99600
H 	H 	0.24603 0.97261 0.00501 0.14600
O 	O 	0.17918 0.01149 0.98711 -0.59400
H 	H 	0.21246 0.01127 0.05329 -0.29000
H 	H 	0.28280 0.07026 0.06468 -0.17800
C 	C 	0.21445 0.05800 0.99817 0.33100
H 	H 	0.17728 0.02969 0.93837 -0.01700
H 	H 	0.23002 0.10833 0.03828 -0.01600
H 	H 	0.27226 0.08372 0.02921 -0.04900
C 	C 	0.31274 0.86169 0.03511 0.08100
H 	H 	0.29713 0.84778 0.98647 0.03200
H 	H 	0.35125 0.92554 0.08746 0.02100
C 	C 	0.34760 0.85620 0.05739 0.08400
H 	H 	0.36048 0.86703 0.10376 0.03600
O 	O 	0.31034 0.79328 0.00447 -0.25100
H 	H 	0.40683 0.90280 0.08621 -0.01100
C 	C 	0.35114 0.79572 0.01670 0.10400
H 	H 	0.38489 0.81236 0.06948 0.01100
H 	H 	0.31428 0.73436 0.96106 0.02800
H 	H 	0.39614 0.84293 0.03213 0.00800
C 	C 	0.93605 0.05223 0.51716 0.11500
H 	H 	0.89165 0.02262 0.45691 0.01500
C 	C 	0.93659 0.08523 0.55399 0.07300
H 	H 	0.99887 0.09694 0.55142 0.00000
H 	H 	0.87215 0.04558 0.51369 0.04000
H 	H 	0.96635 0.09943 0.60526 0.04600
O 	O 	0.97180 0.14367 0.57985 -0.27500
C 	C 	0.03377 0.18113 0.61697 0.11800
H 	H 	0.07063 0.20991 0.67697 0.01300
H 	H 	0.06312 0.23026 0.62821 0.01900
Zn	Zn	0.99284 0.99133 0.66650 1.23300
Zn	Zn	0.76281 0.70272 0.41234 1.24400
H 	H 	0.67300 0.59400 0.24970 0.01100
H 	H 	0.67400 0.59670 0.17640 0.07100
H 	H 	0.86820 0.82870 0.44710 0.01700
H 	H 	0.87230 0.83900 0.37990 0.07800
H 	H 	0.09860 0.96190 0.82630 0.07200
H 	H 	0.18850 0.08390 0.78690 0.06700
H 	H 	0.95320 0.83760 0.68050 0.06500
H 	H 	0.91290 0.98130 0.41540 0.04500
H 	H 	0.86210 0.03710 0.66750 0.10000
H 	H 	0.96190 0.06910 0.71000 -0.01900
H 	H 	0.72060 0.81280 0.52450 0.09200
H 	H 	0.82310 0.84670 0.56150 0.00400
C 	C 	0.15174 0.12940 0.83966 0.39100
C 	C 	0.71387 0.64453 0.27620 0.07700
C 	C 	0.77622 0.72030 0.27218 0.05100
C 	C 	0.92304 0.84589 0.58687 0.41700
C 	C 	0.92133 0.79607 0.58350 -0.17100
C 	C 	0.15063 0.07703 0.82654 -0.14800
C 	C 	0.78267 0.92332 0.59881 0.07300
C 	C 	0.71433 0.64542 0.23195 -0.11400
C 	C 	0.82693 0.78095 0.39092 0.08400
C 	C 	0.83081 0.78721 0.35138 -0.12700
C 	C 	0.99520 0.00130 0.58790 0.58000
C 	C 	0.13760 0.96770 0.79080 -0.21100
C 	C 	0.11860 0.98700 0.81900 -0.02600
C 	C 	0.12740 0.04190 0.83810 0.15400
C 	C 	0.17170 0.06110 0.79710 -0.07700
C 	C 	0.12530 0.90350 0.77370 0.89200
C 	C 	0.16560 0.00850 0.78410 0.18200
C 	C 	0.92520 0.79510 0.62950 -0.04000
C 	C 	0.91260 0.74770 0.53350 0.17200
C 	C 	0.00560 0.00370 0.54840 -0.26200
C 	C 	0.95940 0.99770 0.50580 0.17000
C 	C 	0.94960 0.99010 0.44970 0.01100
C 	C 	0.85390 0.99690 0.64810 -0.16700
C 	C 	0.91130 0.01450 0.66970 0.13300
C 	C 	0.77130 0.86720 0.56430 -0.13700
C 	C 	0.83230 0.88750 0.58590 0.08400
N 	N 	0.76813 0.71116 0.35361 -0.23900
N 	N 	0.90518 0.96384 0.64098 -0.26600
O 	O 	0.18160 0.99020 0.74350 -0.20900
O 	O 	0.91760 0.00540 0.50660 -0.26500
O 	O 	0.86976 0.81612 0.52322 -0.48500
O 	O 	0.21468 0.20335 0.90857 -0.42400
O 	O 	0.09250 0.10099 0.78211 -0.50900
O 	O 	0.97967 0.91845 0.65628 -0.46200
O 	O 	0.97368 0.01190 0.60662 -0.48000
O 	O 	0.09568 0.87417 0.77535 -0.72900
O 	O 	0.14520 0.89380 0.75570 -0.61400
O 	O 	0.90907 0.75280 0.48993 -0.36300
O 	O 	0.02247 0.99293 0.61700 -0.47100
O 	O 	0.09380 0.05010 0.85510 -0.23100
C 	C 	0.95829 0.97427 0.19471 0.14500
H 	H 	0.94292 0.92298 0.17198 0.02600
C 	C 	0.01283 0.01984 0.21729 0.04000
H 	H 	0.97261 0.00501 0.24603 -0.01500
O 	O 	0.01149 0.98711 0.17918 -0.26900
H 	H 	0.01127 0.05329 0.21246 0.08500
H 	H 	0.07026 0.06468 0.28280 0.01700
C 	C 	0.05800 0.99817 0.21445 0.13600
H 	H 	0.02969 0.93837 0.17728 0.00900
H 	H 	0.10833 0.03828 0.23002 0.01000
H 	H 	0.08372 0.02921 0.27226 -0.00800
C 	C 	0.86169 0.03511 0.31274 0.07700
H 	H 	0.84778 0.98647 0.29713 0.03300
H 	H 	0.92554 0.08746 0.35125 0.02800
C 	C 	0.85620 0.05739 0.34760 0.09600
H 	H 	0.86703 0.10376 0.36048 0.04600
O 	O 	0.79328 0.00447 0.31034 -0.25600
H 	H 	0.90280 0.08621 0.40683 0.00700
C 	C 	0.79572 0.01670 0.35114 0.10700
H 	H 	0.81236 0.06948 0.38489 0.01800
H 	H 	0.73436 0.96106 0.31428 0.02600
H 	H 	0.84293 0.03213 0.39614 0.01100
C 	C 	0.05223 0.51716 0.93605 0.12400
H 	H 	0.02262 0.45691 0.89165 0.01600
C 	C 	0.08523 0.55399 0.93659 0.05900
H 	H 	0.09694 0.55142 0.99887 0.00500
H 	H 	0.04558 0.51369 0.87215 0.04500
H 	H 	0.09943 0.60526 0.96635 0.05200
O 	O 	0.14367 0.57985 0.97180 -0.25700
C 	C 	0.18113 0.61697 0.03377 0.09700
H 	H 	0.20991 0.67697 0.07063 0.01600
H 	H 	0.23026 0.62821 0.06312 0.02000
Zn	Zn	0.99133 0.66650 0.99284 1.23200
Zn	Zn	0.70272 0.41234 0.76281 1.24000
H 	H 	0.59400 0.24970 0.67300 0.00900
H 	H 	0.59670 0.17640 0.67400 0.07100
H 	H 	0.82870 0.44710 0.86820 0.00000
H 	H 	0.83900 0.37990 0.87230 0.07800
H 	H 	0.96190 0.82630 0.09860 0.04100
H 	H 	0.08390 0.78690 0.18850 0.06900
O 	O 	0.83760 0.68050 0.95320 -0.89300
H 	H 	0.98130 0.41540 0.91290 0.04400
H 	H 	0.03710 0.66750 0.86210 0.12300
H 	H 	0.06910 0.71000 0.96190 -0.03100
H 	H 	0.81280 0.52450 0.72060 0.10000
H 	H 	0.84670 0.56150 0.82310 0.00200
C 	C 	0.12940 0.83966 0.15174 0.38900
C 	C 	0.64453 0.27620 0.71387 0.07600
C 	C 	0.72030 0.27218 0.77622 0.05100
C 	C 	0.84589 0.58687 0.92304 0.49500
C 	C 	0.79607 0.58350 0.92133 -0.42200
C 	C 	0.07703 0.82654 0.15063 -0.14200
C 	C 	0.92332 0.59881 0.78267 0.10400
C 	C 	0.64542 0.23195 0.71433 -0.11500
C 	C 	0.78095 0.39092 0.82693 0.08100
C 	C 	0.78721 0.35138 0.83081 -0.12800
C 	C 	0.00130 0.58790 0.99520 0.61200
C 	C 	0.96770 0.79080 0.13760 -0.21300
C 	C 	0.98700 0.81900 0.11860 -0.01900
C 	C 	0.04190 0.83810 0.12740 0.14700
C 	C 	0.06110 0.79710 0.17170 -0.08100
C 	C 	0.90350 0.77370 0.12530 0.89700
C 	C 	0.00850 0.78410 0.16560 0.18700
C 	C 	0.79510 0.62950 0.92520 0.81800
C 	C 	0.74770 0.53350 0.91260 0.11200
C 	C 	0.00370 0.54840 0.00560 -0.27400
C 	C 	0.99770 0.50580 0.95940 0.16800
C 	C 	0.99010 0.44970 0.94960 0.00400
C 	C 	0.99690 0.64810 0.85390 -0.22500
C 	C 	0.01450 0.66970 0.91130 0.18100
C 	C 	0.86720 0.56430 0.77130 -0.15900
C 	C 	0.88750 0.58590 0.83230 0.09600
N 	N 	0.71116 0.35361 0.76813 -0.25300
N 	N 	0.96384 0.64098 0.90518 -0.28000
O 	O 	0.99020 0.74350 0.18160 -0.21500
O 	O 	0.00540 0.50660 0.91760 -0.26200
O 	O 	0.81612 0.52322 0.86976 -0.51800
O 	O 	0.20335 0.90857 0.21468 -0.42300
O 	O 	0.10099 0.78211 0.09250 -0.50900
O 	O 	0.91845 0.65628 0.97967 -0.46800
O 	O 	0.01190 0.60662 0.97368 -0.48600
O 	O 	0.87417 0.77535 0.09568 -0.73700
O 	O 	0.89380 0.75570 0.14520 -0.61900
H 	H 	0.75280 0.48993 0.90907 0.00600
O 	O 	0.99293 0.61700 0.02247 -0.48900
O 	O 	0.05010 0.85510 0.09380 -0.24900
C 	C 	0.97427 0.19471 0.95829 0.34400
H 	H 	0.92298 0.17198 0.94292 -0.04900
C 	C 	0.01984 0.21729 0.01283 -0.07800
H 	H 	0.00501 0.24603 0.97261 0.02000
O 	O 	0.98711 0.17918 0.01149 -0.22400
H 	H 	0.05329 0.21246 0.01127 0.07200
H 	H 	0.06468 0.28280 0.07026 0.03400
C 	C 	0.99817 0.21445 0.05800 0.11200
H 	H 	0.93837 0.17728 0.02969 -0.02000
H 	H 	0.03828 0.23002 0.10833 0.01700
H 	H 	0.02921 0.27226 0.08372 -0.00600
C 	C 	0.03511 0.31274 0.86169 0.06500
H 	H 	0.98647 0.29713 0.84778 0.03200
H 	H 	0.08746 0.35125 0.92554 0.02600
C 	C 	0.05739 0.34760 0.85620 0.10900
H 	H 	0.10376 0.36048 0.86703 0.03300
O 	O 	0.00447 0.31034 0.79328 -0.26200
H 	H 	0.08621 0.40683 0.90280 0.00400
C 	C 	0.01670 0.35114 0.79572 0.11900
H 	H 	0.06948 0.38489 0.81236 0.01600
H 	H 	0.96106 0.31428 0.73436 0.02100
H 	H 	0.03213 0.39614 0.84293 0.01000
C 	C 	0.51716 0.93605 0.05223 0.12600
H 	H 	0.45691 0.89165 0.02262 0.01100
C 	C 	0.55399 0.93659 0.08523 0.06300
H 	H 	0.55142 0.99887 0.09694 -0.00300
H 	H 	0.51369 0.87215 0.04558 0.04200
H 	H 	0.60526 0.96635 0.09943 0.05100
O 	O 	0.57985 0.97180 0.14367 -0.26800
C 	C 	0.61697 0.03377 0.18113 0.10300
H 	H 	0.67697 0.07063 0.20991 0.01500
H 	H 	0.62821 0.06312 0.23026 -0.00100
C 	C 	0.91105 0.79140 0.49531 0.38400
H 	H 	0.93040 0.83250 0.54874 -0.05400
H 	H 	0.84878 0.75183 0.43785 -0.12100
C 	C 	0.95602 0.82949 0.50487 -0.14400
H 	H 	0.92625 0.79222 0.44437 0.07500
O 	O 	0.97640 0.88445 0.53390 -0.19200
C 	C 	0.79202 0.67323 0.55266 -0.79700
C 	C 	0.79513 0.67466 0.59108 0.92500
H 	H 	0.72645 0.62283 0.49042 0.22600
H 	H 	0.82625 0.73333 0.58251 0.52500
H 	H 	0.84400 0.68786 0.62914 -0.14600
H 	H 	0.73461 0.61385 0.55032 -0.14200
O 	O 	0.80988 0.72368 0.63222 -0.70200
C 	C 	0.86192 0.78040 0.66285 0.61100
H 	H 	0.85278 0.76693 0.61706 -0.45300
H 	H 	0.91947 0.80811 0.71167 -0.08100
H 	H 	0.86695 0.82439 0.69128 -0.06600
C 	C 	0.84536 0.72563 0.98241 0.75300
H 	H 	0.78716 0.69823 0.93588 -0.11500
H 	H 	0.88222 0.76157 0.95894 0.13800
H 	H 	0.75313 0.99471 0.83956 0.50000
C 	C 	0.12052 0.30505 0.04330 1.50700
H 	H 	0.12710 0.29586 0.07602 -0.27300
H 	H 	0.13544 0.35681 0.07277 -0.30300
C 	C 	0.07389 0.17567 0.30597 0.57100
C 	C 	0.02489 0.12339 0.23803 -0.16300
H 	H 	0.12097 0.18429 0.33490 -0.07700
H 	H 	0.10365 0.23298 0.33110 -0.10500
O 	O 	0.05365 0.13304 0.22435 -0.17500
C 	C 	0.08769 0.18992 0.24953 0.04200
H 	H 	0.12369 0.23898 0.31275 0.02400
H 	H 	0.04382 0.18020 0.20947 0.03500
H 	H 	0.13052 0.20902 0.25221 0.03600
C 	C 	0.31477 0.08077 0.16496 -0.70500
H 	H 	0.32866 0.11654 0.21521 0.20000
C 	C 	0.25115 0.03685 0.10501 1.10800
H 	H 	0.35964 0.12381 0.17729 0.19100
H 	H 	0.24312 0.01377 0.05814 -0.27700
O 	O 	0.24097 0.06886 0.11263 -0.61200
C 	C 	0.28492 0.12006 0.13239 0.35200
H 	H 	0.26552 0.09629 0.07896 -0.07900
H 	H 	0.34703 0.15413 0.18134 -0.06500
H 	H 	0.28733 0.16233 0.15718 -0.00900
C 	C 	0.27529 0.45600 0.99965 0.00100
H 	H 	0.22208 0.43309 0.95117 0.05000
C 	C 	0.31328 0.47031 0.99633 0.23800
H 	H 	0.27206 0.42121 0.93064 -0.00900
H 	H 	0.35770 0.50101 0.96464 0.00500
H 	H 	0.95767 0.28475 0.38726 -0.00200
H 	H 	0.98893 0.33174 0.47865 0.02200
C 	C 	0.44218 0.98374 0.25553 1.90100
H 	H 	0.40101 0.92652 0.19202 -0.40600
H 	H 	0.46246 0.98029 0.29302 -0.35300
H 	H 	0.01073 0.90847 0.10978 0.03900
H 	H 	0.86059 0.74433 0.03261 -0.05300
C 	C 	0.89630 0.78067 0.00873 -0.39900
H 	H 	0.95499 0.80950 0.05702 0.14100
O 	O 	0.90265 0.82597 0.03656 -0.09700
C 	C 	0.95172 0.87921 0.06149 0.03200
H 	H 	0.93695 0.85946 0.01120 0.04100
H 	H 	0.95789 0.92439 0.08907 0.08000
H 	H 	0.31363 0.51279 0.06143 0.04000
H 	H 	0.35330 0.47326 0.02929 -0.01000
O 	O 	0.35245 0.53075 0.02574 -0.40900
C 	C 	0.39405 0.54776 0.02835 0.15400
H 	H 	0.43246 0.55051 0.06335 -0.00300
C 	C 	0.73534 0.01988 0.88980 2.38500
H 	H 	0.75935 0.04620 0.94581 -0.37600
H 	H 	0.71982 0.04281 0.87713 -0.49800
C 	C 	0.78318 0.03910 0.90008 -1.91000
H 	H 	0.81691 0.03998 0.93683 0.42500
O 	O 	0.82732 0.10184 0.93413 0.19000
C 	C 	0.86898 0.11728 0.93706 0.01600
H 	H 	0.83277 0.07003 0.87347 0.05700
H 	H 	0.90562 0.11879 0.97205 0.05700
H 	H 	0.91134 0.17886 0.96868 0.02900
C 	C 	0.49709 0.03806 0.28435 -2.15000
O 	O 	0.48544 0.01969 0.23595 1.77200
H 	H 	0.55173 0.06122 0.33084 0.47000
H 	H 	0.50902 0.08759 0.31507 0.51600
C 	C 	0.51327 0.06981 0.25008 -3.46000
H 	H 	0.55320 0.12609 0.31327 0.56500
H 	H 	0.55120 0.08238 0.24682 0.64400
H 	H 	0.01037 0.84992 0.54590 0.07400
C 	C 	0.02568 0.92536 0.55019 0.09200
H 	H 	0.00237 0.89322 0.49334 0.00800
H 	H 	0.07746 0.94337 0.59239 0.00900
H 	H 	0.04783 0.98153 0.58158 0.05800
C 	C 	0.01064 0.30586 0.43316 0.09000
C 	C 	0.03633 0.34507 0.49155 0.10000
H 	H 	0.05921 0.34226 0.44541 -0.01000
O 	O 	0.05415 0.33146 0.51818 -0.28100
H 	H 	0.09159 0.41123 0.53619 0.01100
C 	C 	0.09994 0.34397 0.53027 0.14000
H 	H 	0.07050 0.29666 0.47080 0.01900
H 	H 	0.12641 0.34192 0.56750 0.02300
H 	H 	0.98246 0.12009 0.21001 0.10400
H 	H 	0.20574 0.98402 0.08431 -0.14200
C 	C 	0.05601 0.24766 0.97753 -0.98400
O 	O 	0.03098 0.19314 0.95638 0.26600
H 	H 	0.05511 0.24432 0.93927 0.36200
C 	C 	0.05870 0.18425 0.94856 -0.33400
H 	H 	0.08275 0.17766 0.98137 0.14000
H 	H 	0.11029 0.23842 0.97453 0.25800
