data_crystal

_cell_length_a 13.48010
_cell_length_b 13.48010
_cell_length_c 24.58200
_cell_angle_alpha 90.00000
_cell_angle_beta  90.00000
_cell_angle_gamma 90.00000

_symmetry_space_group_name_	'P 1'
_symmetry_space_group_name_H-M	'P 1'

loop_
_symmetry_equiv_pos_as_xyz
  x,y,z

loop_
_atom_site_label
_atom_site_type_symbol
_atom_site_fract_x
_atom_site_fract_y
_atom_site_fract_z
_atom_site_charge
O 	O 	0.16130 0.03880 0.05893 -0.52600
O 	O 	0.20650 0.19450 0.06833 -0.44700
C 	C 	0.21190 0.10560 0.08212 0.37000
C 	C 	0.28070 0.07780 0.12790 -0.16800
C 	C 	0.29840 0.97970 0.14100 0.07200
H 	H 	0.26460 0.92900 0.12240 -0.00300
C 	C 	0.36630 0.95580 0.18170 -0.18200
H 	H 	0.37880 0.88880 0.18980 0.09000
C 	C 	0.41610 0.02970 0.21054 0.13600
C 	C 	0.39680 0.12710 0.19700 -0.18600
H 	H 	0.42990 0.17820 0.21560 0.09200
C 	C 	0.32960 0.15100 0.15640 0.09200
H 	H 	0.31710 0.21790 0.14820 0.00300
O 	O 	0.66130 0.53880 0.55893 -0.50200
O 	O 	0.70650 0.69450 0.56833 -0.41900
C 	C 	0.71190 0.60560 0.58212 0.36800
C 	C 	0.78070 0.57780 0.62790 -0.16100
C 	C 	0.79840 0.47970 0.64100 0.07500
H 	H 	0.76460 0.42900 0.62240 0.00300
C 	C 	0.86630 0.45580 0.68170 -0.16400
H 	H 	0.87880 0.38880 0.68980 0.08700
C 	C 	0.91610 0.52970 0.71054 0.11700
C 	C 	0.89680 0.62710 0.69700 -0.17300
H 	H 	0.92990 0.67820 0.71560 0.08800
C 	C 	0.82960 0.65100 0.65640 0.08600
H 	H 	0.81710 0.71790 0.64820 0.01100
O 	O 	0.83870 0.96120 0.05893 -0.53500
O 	O 	0.79350 0.80550 0.06833 -0.45100
C 	C 	0.78810 0.89440 0.08212 0.37400
C 	C 	0.71930 0.92220 0.12790 -0.18400
C 	C 	0.70160 0.02030 0.14100 0.08700
H 	H 	0.73540 0.07100 0.12240 -0.00500
C 	C 	0.63370 0.04420 0.18170 -0.16600
H 	H 	0.62120 0.11120 0.18980 0.08600
C 	C 	0.58390 0.97030 0.21054 0.11500
C 	C 	0.60320 0.87290 0.19700 -0.18100
H 	H 	0.57010 0.82180 0.21560 0.09000
C 	C 	0.67040 0.84900 0.15640 0.09300
H 	H 	0.68290 0.78210 0.14820 0.00200
O 	O 	0.33870 0.46120 0.55893 -0.50200
O 	O 	0.29350 0.30550 0.56833 -0.41700
C 	C 	0.28810 0.39440 0.58212 0.36900
C 	C 	0.21930 0.42220 0.62790 -0.16200
C 	C 	0.20160 0.52030 0.64100 0.07900
H 	H 	0.23540 0.57100 0.62240 0.00200
C 	C 	0.13370 0.54420 0.68170 -0.16700
H 	H 	0.12120 0.61120 0.68980 0.09000
C 	C 	0.08390 0.47030 0.71054 0.12600
C 	C 	0.10320 0.37290 0.69700 -0.17500
H 	H 	0.07010 0.32180 0.71560 0.09400
C 	C 	0.17040 0.34900 0.65640 0.09000
H 	H 	0.18290 0.28210 0.64820 0.01300
O 	O 	0.96120 0.16130 0.05893 -0.53200
O 	O 	0.80550 0.20650 0.06833 -0.44900
C 	C 	0.89440 0.21190 0.08212 0.37400
C 	C 	0.92220 0.28070 0.12790 -0.18400
C 	C 	0.02030 0.29840 0.14100 0.08700
H 	H 	0.07100 0.26460 0.12240 -0.00500
C 	C 	0.04420 0.36630 0.18170 -0.16600
H 	H 	0.11120 0.37880 0.18980 0.08600
C 	C 	0.97030 0.41610 0.21054 0.11500
C 	C 	0.87290 0.39680 0.19700 -0.18100
H 	H 	0.82180 0.42990 0.21560 0.09000
C 	C 	0.84900 0.32960 0.15640 0.09300
H 	H 	0.78210 0.31710 0.14820 0.00200
O 	O 	0.46120 0.66130 0.55893 -0.50200
O 	O 	0.30550 0.70650 0.56833 -0.41800
C 	C 	0.39440 0.71190 0.58212 0.36700
C 	C 	0.42220 0.78070 0.62790 -0.16100
C 	C 	0.52030 0.79840 0.64100 0.07500
H 	H 	0.57100 0.76460 0.62240 0.00300
C 	C 	0.54420 0.86630 0.68170 -0.16300
H 	H 	0.61120 0.87880 0.68980 0.08700
C 	C 	0.47030 0.91610 0.71054 0.11700
C 	C 	0.37290 0.89680 0.69700 -0.17200
H 	H 	0.32180 0.92990 0.71560 0.08900
C 	C 	0.34900 0.82960 0.65640 0.08600
H 	H 	0.28210 0.81710 0.64820 0.01300
O 	O 	0.03880 0.83870 0.05893 -0.52700
O 	O 	0.19450 0.79350 0.06833 -0.44900
C 	C 	0.10560 0.78810 0.08212 0.37000
C 	C 	0.07780 0.71930 0.12790 -0.16900
C 	C 	0.97970 0.70160 0.14100 0.07200
H 	H 	0.92900 0.73540 0.12240 -0.00400
C 	C 	0.95580 0.63370 0.18170 -0.18200
H 	H 	0.88880 0.62120 0.18980 0.09000
C 	C 	0.02970 0.58390 0.21054 0.13600
C 	C 	0.12710 0.60320 0.19700 -0.18600
H 	H 	0.17820 0.57010 0.21560 0.09200
C 	C 	0.15100 0.67040 0.15640 0.09200
H 	H 	0.21790 0.68290 0.14820 0.00300
O 	O 	0.53880 0.33870 0.55893 -0.50200
O 	O 	0.69450 0.29350 0.56833 -0.41800
C 	C 	0.60560 0.28810 0.58212 0.36900
C 	C 	0.57780 0.21930 0.62790 -0.16300
C 	C 	0.47970 0.20160 0.64100 0.08000
H 	H 	0.42900 0.23540 0.62240 0.00200
C 	C 	0.45580 0.13370 0.68170 -0.16800
H 	H 	0.38880 0.12120 0.68980 0.09100
C 	C 	0.52970 0.08390 0.71054 0.12600
C 	C 	0.62710 0.10320 0.69700 -0.17600
H 	H 	0.67820 0.07010 0.71560 0.09300
C 	C 	0.65100 0.17040 0.65640 0.09000
H 	H 	0.71790 0.18290 0.64820 0.01100
O 	O 	0.83870 0.96120 0.94107 -0.45600
O 	O 	0.79350 0.80550 0.93167 -0.37300
C 	C 	0.78810 0.89440 0.91788 0.36100
C 	C 	0.71930 0.92220 0.87210 -0.15200
C 	C 	0.70160 0.02030 0.85900 0.08000
H 	H 	0.73540 0.07100 0.87760 0.01100
C 	C 	0.63370 0.04420 0.81830 -0.15000
H 	H 	0.62120 0.11120 0.81020 0.08800
C 	C 	0.58390 0.97030 0.78946 0.10800
C 	C 	0.60320 0.87290 0.80300 -0.16300
H 	H 	0.57010 0.82180 0.78440 0.09100
C 	C 	0.67040 0.84900 0.84360 0.08200
H 	H 	0.68290 0.78210 0.85180 0.02200
O 	O 	0.33870 0.46120 0.44107 -0.50200
O 	O 	0.29350 0.30550 0.43167 -0.41700
C 	C 	0.28810 0.39440 0.41788 0.36900
C 	C 	0.21930 0.42220 0.37210 -0.16400
C 	C 	0.20160 0.52030 0.35900 0.08000
H 	H 	0.23540 0.57100 0.37760 0.00100
C 	C 	0.13370 0.54420 0.31830 -0.17000
H 	H 	0.12120 0.61120 0.31020 0.09200
C 	C 	0.08390 0.47030 0.28946 0.12800
C 	C 	0.10320 0.37290 0.30300 -0.17900
H 	H 	0.07010 0.32180 0.28440 0.09500
C 	C 	0.17040 0.34900 0.34360 0.09100
H 	H 	0.18290 0.28210 0.35180 0.01200
O 	O 	0.16130 0.03880 0.94107 -0.44600
O 	O 	0.20650 0.19450 0.93167 -0.36900
C 	C 	0.21190 0.10560 0.91788 0.35700
C 	C 	0.28070 0.07780 0.87210 -0.13500
C 	C 	0.29840 0.97970 0.85900 0.06600
H 	H 	0.26460 0.92900 0.87760 0.01300
C 	C 	0.36630 0.95580 0.81830 -0.16500
H 	H 	0.37880 0.88880 0.81020 0.09300
C 	C 	0.41610 0.02970 0.78946 0.12900
C 	C 	0.39680 0.12710 0.80300 -0.16700
H 	H 	0.42990 0.17820 0.78440 0.09300
C 	C 	0.32960 0.15100 0.84360 0.08100
H 	H 	0.31710 0.21790 0.85180 0.02400
O 	O 	0.66130 0.53880 0.44107 -0.50300
O 	O 	0.70650 0.69450 0.43167 -0.41900
C 	C 	0.71190 0.60560 0.41788 0.36800
C 	C 	0.78070 0.57780 0.37210 -0.16300
C 	C 	0.79840 0.47970 0.35900 0.07600
H 	H 	0.76460 0.42900 0.37760 0.00200
C 	C 	0.86630 0.45580 0.31830 -0.16700
H 	H 	0.87880 0.38880 0.31020 0.08800
C 	C 	0.91610 0.52970 0.28946 0.12000
C 	C 	0.89680 0.62710 0.30300 -0.17600
H 	H 	0.92990 0.67820 0.28440 0.09000
C 	C 	0.82960 0.65100 0.34360 0.08800
H 	H 	0.81710 0.71790 0.35180 0.01100
O 	O 	0.03880 0.83870 0.94107 -0.44800
O 	O 	0.19450 0.79350 0.93167 -0.37100
C 	C 	0.10560 0.78810 0.91788 0.35700
C 	C 	0.07780 0.71930 0.87210 -0.13600
C 	C 	0.97970 0.70160 0.85900 0.06600
H 	H 	0.92900 0.73540 0.87760 0.01300
C 	C 	0.95580 0.63370 0.81830 -0.16600
H 	H 	0.88880 0.62120 0.81020 0.09300
C 	C 	0.02970 0.58390 0.78946 0.12900
C 	C 	0.12710 0.60320 0.80300 -0.16800
H 	H 	0.17820 0.57010 0.78440 0.09300
C 	C 	0.15100 0.67040 0.84360 0.08100
H 	H 	0.21790 0.68290 0.85180 0.02300
O 	O 	0.53880 0.33870 0.44107 -0.50200
O 	O 	0.69450 0.29350 0.43167 -0.41800
C 	C 	0.60560 0.28810 0.41788 0.36900
C 	C 	0.57780 0.21930 0.37210 -0.16500
C 	C 	0.47970 0.20160 0.35900 0.08100
H 	H 	0.42900 0.23540 0.37760 0.00100
C 	C 	0.45580 0.13370 0.31830 -0.17100
H 	H 	0.38880 0.12120 0.31020 0.09200
C 	C 	0.52970 0.08390 0.28946 0.12900
C 	C 	0.62710 0.10320 0.30300 -0.17900
H 	H 	0.67820 0.07010 0.28440 0.09500
C 	C 	0.65100 0.17040 0.34360 0.09200
H 	H 	0.71790 0.18290 0.35180 0.01100
O 	O 	0.96120 0.16130 0.94107 -0.45300
O 	O 	0.80550 0.20650 0.93167 -0.37100
C 	C 	0.89440 0.21190 0.91788 0.36100
C 	C 	0.92220 0.28070 0.87210 -0.15100
C 	C 	0.02030 0.29840 0.85900 0.08000
H 	H 	0.07100 0.26460 0.87760 0.01100
C 	C 	0.04420 0.36630 0.81830 -0.14900
H 	H 	0.11120 0.37880 0.81020 0.08900
C 	C 	0.97030 0.41610 0.78946 0.10800
C 	C 	0.87290 0.39680 0.80300 -0.16200
H 	H 	0.82180 0.42990 0.78440 0.09100
C 	C 	0.84900 0.32960 0.84360 0.08200
H 	H 	0.78210 0.31710 0.85180 0.02300
O 	O 	0.46120 0.66130 0.44107 -0.50200
O 	O 	0.30550 0.70650 0.43167 -0.41800
C 	C 	0.39440 0.71190 0.41788 0.36800
C 	C 	0.42220 0.78070 0.37210 -0.16300
C 	C 	0.52030 0.79840 0.35900 0.07600
H 	H 	0.57100 0.76460 0.37760 0.00200
C 	C 	0.54420 0.86630 0.31830 -0.16700
H 	H 	0.61120 0.87880 0.31020 0.08800
C 	C 	0.47030 0.91610 0.28946 0.12000
C 	C 	0.37290 0.89680 0.30300 -0.17500
H 	H 	0.32180 0.92990 0.28440 0.09000
C 	C 	0.34900 0.82960 0.34360 0.08700
H 	H 	0.28210 0.81710 0.35180 0.01200
Cd	Cd	0.09122 0.17813 -0.00000 1.17700
Cd	Cd	0.59122 0.67813 0.50000 1.21600
Cd	Cd	0.90878 0.82187 -0.00000 1.17300
Cd	Cd	0.40878 0.32187 0.50000 1.21600
Cd	Cd	0.82187 0.09122 -0.00000 1.17700
Cd	Cd	0.32187 0.59122 0.50000 1.21600
Cd	Cd	0.17813 0.90878 -0.00000 1.17300
Cd	Cd	0.67813 0.40878 0.50000 1.21600
C 	C 	0.50000 0.00000 0.25000 -0.14400
C 	C 	-0.00000 0.50000 0.25000 -0.14400
C 	C 	0.50000 -0.00000 0.75000 -0.13800
C 	C 	-0.00000 0.50000 0.75000 -0.13800
