data_crystal

_cell_length_a 9.84380
_cell_length_b 13.20670
_cell_length_c 16.49190
_cell_angle_alpha 81.12080
_cell_angle_beta  72.63580
_cell_angle_gamma 68.11880

_symmetry_space_group_name_	'P 1'
_symmetry_space_group_name_H-M	'P 1'

loop_
_symmetry_equiv_pos_as_xyz
  x,y,z

loop_
_atom_site_label
_atom_site_type_symbol
_atom_site_fract_x
_atom_site_fract_y
_atom_site_fract_z
_atom_site_charge
Eu	Eu	0.58145 0.61809 0.42715 1.93100
Eu	Eu	0.62669 0.88191 0.07285 1.91400
Eu	Eu	0.41855 0.38191 0.57285 1.93000
Eu	Eu	0.37331 0.11809 0.92715 1.91300
Zn	Zn	0.32462 0.11040 0.31778 1.20100
Zn	Zn	0.11411 0.16050 0.54572 1.16000
Zn	Zn	0.75280 0.38960 0.18222 1.19900
Zn	Zn	0.82033 0.33950 0.95428 1.15900
Zn	Zn	0.67538 0.88960 0.68222 1.19900
Zn	Zn	0.88589 0.83950 0.45428 1.16000
Zn	Zn	0.24720 0.61040 0.81778 1.19900
Zn	Zn	0.17967 0.66050 0.04572 1.15900
C 	C 	0.42730 0.89740 0.40860 0.35600
C 	C 	0.26870 0.91720 0.41180 -0.07700
C 	C 	0.17430 0.85670 0.43990 -0.06700
C 	C 	0.19130 0.74570 0.48030 0.36300
C 	C 	0.05150 0.01360 0.38740 0.06500
C 	C 	0.55190 0.42420 0.35740 0.36000
C 	C 	0.52985 0.33240 0.32810 -0.06500
C 	C 	0.43324 0.27282 0.35830 -0.07000
C 	C 	0.31450 0.27030 0.43770 0.40000
C 	C 	0.56950 0.22130 0.23310 0.08300
C 	C 	0.73330 0.60260 0.09140 0.35600
C 	C 	0.59770 0.58280 0.08820 -0.07800
C 	C 	0.47090 0.64330 0.06010 -0.06500
C 	C 	0.41730 0.75430 0.01970 0.35500
C 	C 	0.45250 0.48640 0.11260 0.07300
C 	C 	0.33350 0.07580 0.14260 0.35900
C 	C 	0.19035 0.16760 0.17190 -0.06400
C 	C 	0.06436 0.22718 0.14170 -0.07200
C 	C 	0.02250 0.22970 0.06230 0.39400
C 	C 	0.02390 0.27870 0.26690 0.07500
C 	C 	0.57270 0.10260 0.59140 0.35600
C 	C 	0.73130 0.08280 0.58820 -0.07700
C 	C 	0.82570 0.14330 0.56010 -0.06600
C 	C 	0.80870 0.25430 0.51970 0.36300
C 	C 	0.94850 0.98640 0.61260 0.05000
C 	C 	0.44810 0.57580 0.64260 0.36000
C 	C 	0.47015 0.66760 0.67190 -0.06600
C 	C 	0.56676 0.72718 0.64170 -0.07000
C 	C 	0.68550 0.72970 0.56230 0.40000
C 	C 	0.43050 0.77870 0.76690 0.08300
C 	C 	0.26670 0.39740 0.90860 0.35600
C 	C 	0.40230 0.41720 0.91180 -0.07800
C 	C 	0.52910 0.35670 0.93990 -0.06500
C 	C 	0.58270 0.24570 0.98030 0.35500
C 	C 	0.54750 0.51360 0.88740 0.07300
C 	C 	0.66650 0.92420 0.85740 0.35900
C 	C 	0.80965 0.83240 0.82810 -0.06500
C 	C 	0.93564 0.77282 0.85830 -0.07100
C 	C 	0.97750 0.77030 0.93770 0.39600
C 	C 	0.97610 0.72130 0.73310 0.07800
C 	C 	0.68530 0.75000 0.25000 0.26700
C 	C 	0.52710 0.75000 0.25000 0.26400
C 	C 	0.31470 0.25000 0.75000 0.26700
C 	C 	0.47290 0.25000 0.75000 0.26400
N 	N 	0.19043 0.01594 0.37880 -0.24800
N 	N 	0.03654 0.91832 0.42420 -0.26900
N 	N 	0.61730 0.29770 0.24850 -0.24100
N 	N 	0.45964 0.20352 0.29740 -0.24000
N 	N 	0.58517 0.48406 0.12120 -0.24900
N 	N 	0.37906 0.58168 0.07580 -0.27200
N 	N 	0.16350 0.20230 0.25150 -0.24100
N 	N 	0.96056 0.29648 0.20260 -0.23600
N 	N 	0.80957 0.98406 0.62120 -0.24600
N 	N 	0.96346 0.08168 0.57580 -0.26600
N 	N 	0.38270 0.70230 0.75150 -0.24100
N 	N 	0.54036 0.79648 0.70260 -0.24000
N 	N 	0.41483 0.51594 0.87880 -0.24900
N 	N 	0.62094 0.41832 0.92420 -0.27200
N 	N 	0.83650 0.79770 0.74850 -0.24100
N 	N 	0.03944 0.70352 0.79740 -0.23800
O 	O 	0.47806 0.97228 0.37200 -0.45000
O 	O 	0.50565 0.81040 0.43950 -0.46300
O 	O 	0.31586 0.68178 0.49130 -0.47100
O 	O 	0.07269 0.72112 0.50190 -0.44800
O 	O 	0.64692 0.46344 0.30852 -0.50900
O 	O 	0.47528 0.46482 0.42962 -0.55800
O 	O 	0.27794 0.33388 0.49524 -0.50400
O 	O 	0.25351 0.19910 0.44128 -0.60900
O 	O 	0.74499 0.68894 0.30548 -0.44500
O 	O 	0.46778 0.69593 0.30891 -0.41400
O 	O 	0.82234 0.52772 0.12800 -0.44800
O 	O 	0.75555 0.68960 0.06050 -0.46200
O 	O 	0.48894 0.81822 0.00870 -0.47000
O 	O 	0.29571 0.77888 0.99810 -0.44000
O 	O 	0.41888 0.03656 0.19148 -0.50500
O 	O 	0.36972 0.03518 0.07038 -0.55100
O 	O 	0.10706 0.16612 0.00476 -0.49900
O 	O 	0.89389 0.30090 0.05872 -0.60300
O 	O 	0.73941 0.81106 0.19452 -0.44500
O 	O 	0.47262 0.80407 0.19109 -0.41300
O 	O 	0.52194 0.02772 0.62800 -0.45000
O 	O 	0.49435 0.18960 0.56050 -0.46300
O 	O 	0.68414 0.31822 0.50870 -0.47000
O 	O 	0.92731 0.27888 0.49810 -0.44700
O 	O 	0.35308 0.53656 0.69148 -0.51000
O 	O 	0.52472 0.53518 0.57038 -0.55800
O 	O 	0.72206 0.66612 0.50476 -0.50300
O 	O 	0.74649 0.80090 0.55872 -0.60900
O 	O 	0.25501 0.31106 0.69452 -0.44500
O 	O 	0.53222 0.30407 0.69109 -0.41400
O 	O 	0.17766 0.47228 0.87200 -0.44800
O 	O 	0.24445 0.31040 0.93950 -0.46200
O 	O 	0.51106 0.18178 0.99130 -0.47000
O 	O 	0.70429 0.22112 0.00190 -0.44000
O 	O 	0.58112 0.96344 0.80852 -0.50600
O 	O 	0.63028 0.96482 0.92962 -0.55100
O 	O 	0.89294 0.83388 0.99524 -0.49900
O 	O 	0.10611 0.69910 0.94128 -0.60500
O 	O 	0.26059 0.18894 0.80548 -0.44500
O 	O 	0.52738 0.19593 0.80891 -0.41300
H 	H 	0.96276 0.08716 0.36456 -0.01900
H 	H 	0.62273 0.17938 0.17002 -0.01700
H 	H 	0.41448 0.41284 0.13544 -0.02500
H 	H 	0.97212 0.32062 0.32998 -0.01500
H 	H 	0.37727 0.82062 0.82998 -0.01700
H 	H 	0.58552 0.58716 0.86456 -0.02400
H 	H 	0.02788 0.67938 0.67002 -0.01700
