data_crystal

_cell_length_a 9.52110
_cell_length_b 9.98350
_cell_length_c 11.48430
_cell_angle_alpha 96.34200
_cell_angle_beta  97.06300
_cell_angle_gamma 111.76300

_symmetry_space_group_name_	'P 1'
_symmetry_space_group_name_H-M	'P 1'

loop_
_symmetry_equiv_pos_as_xyz
  x,y,z

loop_
_atom_site_label
_atom_site_type_symbol
_atom_site_fract_x
_atom_site_fract_y
_atom_site_fract_z
_atom_site_charge
Nd	Nd	0.71371 0.95488 0.00921 2.05100
Nd	Nd	0.28629 0.04512 0.99079 2.05100
H 	H 	0.31910 0.49610 0.02870 0.01900
H 	H 	0.19430 0.79330 0.21340 0.02900
H 	H 	0.92040 0.36220 0.15710 0.06900
H 	H 	0.17120 0.59130 0.41950 0.08100
H 	H 	0.25690 0.70690 0.61860 0.02100
H 	H 	0.94670 0.89490 0.58620 0.05300
H 	H 	0.83220 0.84730 0.31850 0.13300
H 	H 	0.73790 0.69620 0.31540 0.12700
H 	H 	0.68090 0.50390 0.97130 0.01900
H 	H 	0.80570 0.20670 0.78660 0.02900
H 	H 	0.07960 0.63780 0.84290 0.06900
H 	H 	0.82880 0.40870 0.58050 0.08100
H 	H 	0.74310 0.29310 0.38140 0.02100
H 	H 	0.05330 0.10510 0.41380 0.05300
H 	H 	0.16780 0.15270 0.68150 0.13300
H 	H 	0.26210 0.30380 0.68460 0.12700
C 	C 	0.07760 0.25240 0.02530 0.48700
C 	C 	0.11170 0.40720 0.08170 -0.13400
C 	C 	0.24760 0.51840 0.06980 0.05000
C 	C 	0.27820 0.66300 0.11850 -0.12100
C 	C 	0.42240 0.78270 0.10120 0.39200
C 	C 	0.17620 0.69500 0.18240 -0.05500
C 	C 	0.04840 0.58100 0.19990 0.12700
C 	C 	0.01240 0.43820 0.14770 -0.06800
C 	C 	0.00740 0.67590 0.38550 0.12700
C 	C 	0.12590 0.65300 0.45340 -0.14300
C 	C 	0.17650 0.72200 0.57140 0.03300
C 	C 	0.11110 0.81270 0.62110 -0.07700
C 	C 	0.17180 0.89420 0.74460 0.31000
C 	C 	0.99180 0.83320 0.55220 -0.06000
C 	C 	0.93830 0.76420 0.43430 0.03300
C 	C 	0.92240 0.74760 0.97470 0.48700
C 	C 	0.88830 0.59280 0.91830 -0.13400
C 	C 	0.75240 0.48160 0.93020 0.05000
C 	C 	0.72180 0.33700 0.88150 -0.12100
C 	C 	0.57760 0.21730 0.89880 0.39200
C 	C 	0.82380 0.30500 0.81760 -0.05500
C 	C 	0.95160 0.41900 0.80010 0.12700
C 	C 	0.98760 0.56180 0.85230 -0.06800
C 	C 	0.99260 0.32410 0.61450 0.12700
C 	C 	0.87410 0.34700 0.54660 -0.14300
C 	C 	0.82350 0.27800 0.42860 0.03300
C 	C 	0.88890 0.18730 0.37890 -0.07700
C 	C 	0.82820 0.10580 0.25540 0.31000
C 	C 	0.00820 0.16680 0.44780 -0.06000
C 	C 	0.06170 0.23580 0.56570 0.03300
N 	N 	0.81170 0.77600 0.36470 -0.24300
N 	N 	0.18830 0.22400 0.63530 -0.24300
O 	O 	0.54460 0.76090 0.11040 -0.46200
O 	O 	0.11960 0.98730 0.78500 -0.40100
O 	O 	0.18520 0.22770 0.98770 -0.56000
O 	O 	0.94560 0.15880 0.01880 -0.54900
O 	O 	0.41650 0.90230 0.07680 -0.59900
O 	O 	0.94670 0.60970 0.26790 -0.23800
O 	O 	0.27740 0.87370 0.80970 -0.43200
O 	O 	0.45540 0.23910 0.88960 -0.46200
O 	O 	0.88040 0.01270 0.21500 -0.40100
O 	O 	0.81480 0.77230 0.01230 -0.56000
O 	O 	0.05440 0.84120 0.98120 -0.54900
O 	O 	0.58350 0.09770 0.92320 -0.59900
O 	O 	0.05330 0.39030 0.73210 -0.23800
O 	O 	0.72260 0.12630 0.19030 -0.43200
