data_crystal

_cell_length_a 15.11230
_cell_length_b 19.90690
_cell_length_c 31.25910
_cell_angle_alpha 90.00000
_cell_angle_beta  90.00000
_cell_angle_gamma 90.00000

_symmetry_space_group_name_	'P 1'
_symmetry_space_group_name_H-M	'P 1'

loop_
_symmetry_equiv_pos_as_xyz
  x,y,z

loop_
_atom_site_label
_atom_site_type_symbol
_atom_site_fract_x
_atom_site_fract_y
_atom_site_fract_z
_atom_site_charge
Zn	Zn	0.10911 0.19556 0.14187 1.22100
N 	N 	0.09940 0.19330 0.21284 -0.22300
C 	C 	0.13350 0.24120 0.23728 0.06400
H 	H 	0.16100 0.27730 0.22380 0.01100
C 	C 	0.13070 0.24090 0.28154 -0.10700
H 	H 	0.15590 0.27590 0.29710 0.08200
C 	C 	0.09020 0.18840 0.30225 0.01600
C 	C 	0.05590 0.13770 0.27717 -0.10300
H 	H 	0.02900 0.10080 0.28990 0.07900
C 	C 	0.06160 0.14160 0.23321 0.06400
H 	H 	0.03800 0.10670 0.21700 0.00700
C 	C 	0.08100 0.18240 0.35020 0.21200
O 	O 	0.04860 0.13260 0.36638 -0.22600
N 	N 	0.11050 0.23550 0.37256 -0.19200
N 	N 	0.10830 0.23260 0.41670 -0.04500
C 	C 	0.12200 0.28790 0.43576 -0.07000
H 	H 	0.13260 0.32670 0.42000 0.07500
C 	C 	0.12120 0.29090 0.48236 0.15500
C 	C 	0.11570 0.35050 0.50430 -0.19900
H 	H 	0.11370 0.39070 0.48920 0.10600
C 	C 	0.11310 0.35150 0.54880 0.12300
H 	H 	0.10640 0.39260 0.56250 -0.01000
N 	N 	0.11970 0.29760 0.57186 -0.24700
C 	C 	0.12750 0.23970 0.55080 0.11800
H 	H 	0.13230 0.20040 0.56680 -0.01000
C 	C 	0.12870 0.23460 0.50690 -0.19500
H 	H 	0.13470 0.19270 0.49400 0.11300
C 	C 	0.36330 0.90830 0.14042 -0.12600
C 	C 	0.27160 0.91440 0.13870 0.02700
H 	H 	0.23660 0.87600 0.13710 0.04700
C 	C 	0.23220 0.97680 0.13930 -0.06100
H 	H 	0.17090 0.98050 0.13790 0.07900
C 	C 	0.28420 0.03390 0.14194 -0.02700
C 	C 	0.37530 0.02820 0.14184 -0.06900
H 	H 	0.41030 0.06660 0.14240 0.08000
C 	C 	0.41460 0.96510 0.14093 0.03200
H 	H 	0.47590 0.96140 0.14070 0.03700
C 	C 	0.24050 0.10190 0.14458 0.30400
O 	O 	0.15670 0.10236 0.14123 -0.42400
O 	O 	0.28540 0.15330 0.14983 -0.32300
C 	C 	0.40280 0.83950 0.14146 0.42700
O 	O 	0.48310 0.83420 0.13677 -0.51100
O 	O 	0.35010 0.79043 0.14664 -0.47500
H 	H 	0.12900 0.27500 0.36420 0.15300
Zn	Zn	0.60911 0.69556 0.64187 1.22200
N 	N 	0.59940 0.69330 0.71284 -0.22200
C 	C 	0.63350 0.74120 0.73728 0.06500
H 	H 	0.66100 0.77730 0.72380 0.01200
C 	C 	0.63070 0.74090 0.78154 -0.10600
H 	H 	0.65590 0.77590 0.79710 0.08300
C 	C 	0.59020 0.68840 0.80225 0.01700
C 	C 	0.55590 0.63770 0.77717 -0.10200
H 	H 	0.52900 0.60080 0.78990 0.08000
C 	C 	0.56160 0.64160 0.73321 0.06600
H 	H 	0.53800 0.60670 0.71700 0.00700
C 	C 	0.58100 0.68240 0.85020 0.21200
O 	O 	0.54860 0.63260 0.86638 -0.22600
N 	N 	0.61050 0.73550 0.87256 -0.19200
N 	N 	0.60830 0.73260 0.91670 -0.04500
C 	C 	0.62200 0.78790 0.93576 -0.07000
H 	H 	0.63260 0.82670 0.92000 0.07500
C 	C 	0.62120 0.79090 0.98236 0.15600
C 	C 	0.61570 0.85050 0.00430 -0.19900
H 	H 	0.61370 0.89070 0.98920 0.10600
C 	C 	0.61310 0.85150 0.04880 0.12300
H 	H 	0.60640 0.89260 0.06250 -0.01000
N 	N 	0.61970 0.79760 0.07186 -0.24700
C 	C 	0.62750 0.73970 0.05080 0.11800
H 	H 	0.63230 0.70040 0.06680 -0.01000
C 	C 	0.62870 0.73460 0.00690 -0.19500
H 	H 	0.63470 0.69270 0.99400 0.11400
C 	C 	0.86330 0.40830 0.64042 -0.12600
C 	C 	0.77160 0.41440 0.63870 0.02700
H 	H 	0.73660 0.37600 0.63710 0.04700
C 	C 	0.73220 0.47680 0.63930 -0.06100
H 	H 	0.67090 0.48050 0.63790 0.07900
C 	C 	0.78420 0.53390 0.64194 -0.02700
C 	C 	0.87530 0.52820 0.64184 -0.06900
H 	H 	0.91030 0.56660 0.64240 0.08000
C 	C 	0.91460 0.46510 0.64093 0.03200
H 	H 	0.97590 0.46140 0.64070 0.03700
C 	C 	0.74050 0.60190 0.64458 0.30400
O 	O 	0.65670 0.60236 0.64123 -0.42400
O 	O 	0.78540 0.65330 0.64983 -0.32300
C 	C 	0.90280 0.33950 0.64146 0.42700
O 	O 	0.98310 0.33420 0.63677 -0.51100
O 	O 	0.85010 0.29043 0.64664 -0.47500
H 	H 	0.62900 0.77500 0.86420 0.15300
Zn	Zn	0.39089 0.80444 0.64187 1.22200
N 	N 	0.40060 0.80670 0.71284 -0.22200
C 	C 	0.36650 0.75880 0.73728 0.06500
H 	H 	0.33900 0.72270 0.72380 0.01200
C 	C 	0.36930 0.75910 0.78154 -0.10600
H 	H 	0.34410 0.72410 0.79710 0.08300
C 	C 	0.40980 0.81160 0.80225 0.01700
C 	C 	0.44410 0.86230 0.77717 -0.10200
H 	H 	0.47100 0.89920 0.78990 0.08000
C 	C 	0.43840 0.85840 0.73321 0.06600
H 	H 	0.46200 0.89330 0.71700 0.00700
C 	C 	0.41900 0.81760 0.85020 0.21200
O 	O 	0.45140 0.86740 0.86638 -0.22600
N 	N 	0.38950 0.76450 0.87256 -0.19200
N 	N 	0.39170 0.76740 0.91670 -0.04500
C 	C 	0.37800 0.71210 0.93576 -0.07000
H 	H 	0.36740 0.67330 0.92000 0.07500
C 	C 	0.37880 0.70910 0.98236 0.15600
C 	C 	0.38430 0.64950 0.00430 -0.19900
H 	H 	0.38630 0.60930 0.98920 0.10600
C 	C 	0.38690 0.64850 0.04880 0.12300
H 	H 	0.39360 0.60740 0.06250 -0.01000
N 	N 	0.38030 0.70240 0.07186 -0.24700
C 	C 	0.37250 0.76030 0.05080 0.11800
H 	H 	0.36770 0.79960 0.06680 -0.01000
C 	C 	0.37130 0.76540 0.00690 -0.19500
H 	H 	0.36530 0.80730 0.99400 0.11300
C 	C 	0.13670 0.09170 0.64042 -0.12600
C 	C 	0.22840 0.08560 0.63870 0.02700
H 	H 	0.26340 0.12400 0.63710 0.04700
C 	C 	0.26780 0.02320 0.63930 -0.06100
H 	H 	0.32910 0.01950 0.63790 0.07900
C 	C 	0.21580 0.96610 0.64194 -0.02700
C 	C 	0.12470 0.97180 0.64184 -0.06900
H 	H 	0.08970 0.93340 0.64240 0.08000
C 	C 	0.08540 0.03490 0.64093 0.03200
H 	H 	0.02410 0.03860 0.64070 0.03700
C 	C 	0.25950 0.89810 0.64458 0.30400
O 	O 	0.34330 0.89764 0.64123 -0.42400
O 	O 	0.21460 0.84670 0.64983 -0.32300
C 	C 	0.09720 0.16050 0.64146 0.42700
O 	O 	0.01690 0.16580 0.63677 -0.51100
O 	O 	0.14990 0.20957 0.64664 -0.47500
H 	H 	0.37100 0.72500 0.86420 0.15300
Zn	Zn	0.89089 0.30444 0.14187 1.22200
N 	N 	0.90060 0.30670 0.21284 -0.22200
C 	C 	0.86650 0.25880 0.23728 0.06500
H 	H 	0.83900 0.22270 0.22380 0.01200
C 	C 	0.86930 0.25910 0.28154 -0.10600
H 	H 	0.84410 0.22410 0.29710 0.08300
C 	C 	0.90980 0.31160 0.30225 0.01700
C 	C 	0.94410 0.36230 0.27717 -0.10200
H 	H 	0.97100 0.39920 0.28990 0.08000
C 	C 	0.93840 0.35840 0.23321 0.06500
H 	H 	0.96200 0.39330 0.21700 0.00700
C 	C 	0.91900 0.31760 0.35020 0.21200
O 	O 	0.95140 0.36740 0.36638 -0.22600
N 	N 	0.88950 0.26450 0.37256 -0.19200
N 	N 	0.89170 0.26740 0.41670 -0.04500
C 	C 	0.87800 0.21210 0.43576 -0.07000
H 	H 	0.86740 0.17330 0.42000 0.07500
C 	C 	0.87880 0.20910 0.48236 0.15500
C 	C 	0.88430 0.14950 0.50430 -0.19900
H 	H 	0.88630 0.10930 0.48920 0.10600
C 	C 	0.88690 0.14850 0.54880 0.12300
H 	H 	0.89360 0.10740 0.56250 -0.01000
N 	N 	0.88030 0.20240 0.57186 -0.24700
C 	C 	0.87250 0.26030 0.55080 0.11800
H 	H 	0.86770 0.29960 0.56680 -0.01000
C 	C 	0.87130 0.26540 0.50690 -0.19500
H 	H 	0.86530 0.30730 0.49400 0.11300
C 	C 	0.63670 0.59170 0.14042 -0.12600
C 	C 	0.72840 0.58560 0.13870 0.02700
H 	H 	0.76340 0.62400 0.13710 0.04700
C 	C 	0.76780 0.52320 0.13930 -0.06100
H 	H 	0.82910 0.51950 0.13790 0.07900
C 	C 	0.71580 0.46610 0.14194 -0.02700
C 	C 	0.62470 0.47180 0.14184 -0.06900
H 	H 	0.58970 0.43340 0.14240 0.08000
C 	C 	0.58540 0.53490 0.14093 0.03200
H 	H 	0.52410 0.53860 0.14070 0.03700
C 	C 	0.75950 0.39810 0.14458 0.30400
O 	O 	0.84330 0.39764 0.14123 -0.42400
O 	O 	0.71460 0.34670 0.14983 -0.32300
C 	C 	0.59720 0.66050 0.14146 0.42700
O 	O 	0.51690 0.66580 0.13677 -0.51100
O 	O 	0.64990 0.70957 0.14664 -0.47500
H 	H 	0.87100 0.22500 0.36420 0.15300
Zn	Zn	0.10911 0.30444 0.64187 1.22200
N 	N 	0.09940 0.30670 0.71284 -0.22200
C 	C 	0.13350 0.25880 0.73728 0.06500
H 	H 	0.16100 0.22270 0.72380 0.01200
C 	C 	0.13070 0.25910 0.78154 -0.10600
H 	H 	0.15590 0.22410 0.79710 0.08300
C 	C 	0.09020 0.31160 0.80225 0.01700
C 	C 	0.05590 0.36230 0.77717 -0.10200
H 	H 	0.02900 0.39920 0.78990 0.08000
C 	C 	0.06160 0.35840 0.73321 0.06500
H 	H 	0.03800 0.39330 0.71700 0.00700
C 	C 	0.08100 0.31760 0.85020 0.21200
O 	O 	0.04860 0.36740 0.86638 -0.22600
N 	N 	0.11050 0.26450 0.87256 -0.19200
N 	N 	0.10830 0.26740 0.91670 -0.04500
C 	C 	0.12200 0.21210 0.93576 -0.07000
H 	H 	0.13260 0.17330 0.92000 0.07500
C 	C 	0.12120 0.20910 0.98236 0.15600
C 	C 	0.11570 0.14950 0.00430 -0.19900
H 	H 	0.11370 0.10930 0.98920 0.10600
C 	C 	0.11310 0.14850 0.04880 0.12300
H 	H 	0.10640 0.10740 0.06250 -0.01000
N 	N 	0.11970 0.20240 0.07186 -0.24700
C 	C 	0.12750 0.26030 0.05080 0.11800
H 	H 	0.13230 0.29960 0.06680 -0.01000
C 	C 	0.12870 0.26540 0.00690 -0.19500
H 	H 	0.13470 0.30730 0.99400 0.11300
C 	C 	0.36330 0.59170 0.64042 -0.12600
C 	C 	0.27160 0.58560 0.63870 0.02700
H 	H 	0.23660 0.62400 0.63710 0.04700
C 	C 	0.23220 0.52320 0.63930 -0.06100
H 	H 	0.17090 0.51950 0.63790 0.07900
C 	C 	0.28420 0.46610 0.64194 -0.02700
C 	C 	0.37530 0.47180 0.64184 -0.06900
H 	H 	0.41030 0.43340 0.64240 0.08000
C 	C 	0.41460 0.53490 0.64093 0.03200
H 	H 	0.47590 0.53860 0.64070 0.03700
C 	C 	0.24050 0.39810 0.64458 0.30400
O 	O 	0.15670 0.39764 0.64123 -0.42400
O 	O 	0.28540 0.34670 0.64983 -0.32300
C 	C 	0.40280 0.66050 0.64146 0.42700
O 	O 	0.48310 0.66580 0.63677 -0.51100
O 	O 	0.35010 0.70957 0.64664 -0.47500
H 	H 	0.12900 0.22500 0.86420 0.15300
Zn	Zn	0.60911 0.80444 0.14187 1.22200
N 	N 	0.59940 0.80670 0.21284 -0.22200
C 	C 	0.63350 0.75880 0.23728 0.06500
H 	H 	0.66100 0.72270 0.22380 0.01200
C 	C 	0.63070 0.75910 0.28154 -0.10600
H 	H 	0.65590 0.72410 0.29710 0.08300
C 	C 	0.59020 0.81160 0.30225 0.01700
C 	C 	0.55590 0.86230 0.27717 -0.10200
H 	H 	0.52900 0.89920 0.28990 0.08000
C 	C 	0.56160 0.85840 0.23321 0.06600
H 	H 	0.53800 0.89330 0.21700 0.00700
C 	C 	0.58100 0.81760 0.35020 0.21200
O 	O 	0.54860 0.86740 0.36638 -0.22600
N 	N 	0.61050 0.76450 0.37256 -0.19200
N 	N 	0.60830 0.76740 0.41670 -0.04500
C 	C 	0.62200 0.71210 0.43576 -0.07000
H 	H 	0.63260 0.67330 0.42000 0.07500
C 	C 	0.62120 0.70910 0.48236 0.15600
C 	C 	0.61570 0.64950 0.50430 -0.19900
H 	H 	0.61370 0.60930 0.48920 0.10600
C 	C 	0.61310 0.64850 0.54880 0.12300
H 	H 	0.60640 0.60740 0.56250 -0.01000
N 	N 	0.61970 0.70240 0.57186 -0.24700
C 	C 	0.62750 0.76030 0.55080 0.11800
H 	H 	0.63230 0.79960 0.56680 -0.01000
C 	C 	0.62870 0.76540 0.50690 -0.19500
H 	H 	0.63470 0.80730 0.49400 0.11400
C 	C 	0.86330 0.09170 0.14042 -0.12600
C 	C 	0.77160 0.08560 0.13870 0.02700
H 	H 	0.73660 0.12400 0.13710 0.04700
C 	C 	0.73220 0.02320 0.13930 -0.06100
H 	H 	0.67090 0.01950 0.13790 0.07900
C 	C 	0.78420 0.96610 0.14194 -0.02700
C 	C 	0.87530 0.97180 0.14184 -0.06900
H 	H 	0.91030 0.93340 0.14240 0.08000
C 	C 	0.91460 0.03490 0.14093 0.03200
H 	H 	0.97590 0.03860 0.14070 0.03700
C 	C 	0.74050 0.89810 0.14458 0.30400
O 	O 	0.65670 0.89764 0.14123 -0.42400
O 	O 	0.78540 0.84670 0.14983 -0.32300
C 	C 	0.90280 0.16050 0.14146 0.42700
O 	O 	0.98310 0.16580 0.13677 -0.51100
O 	O 	0.85010 0.20957 0.14664 -0.47500
H 	H 	0.62900 0.72500 0.36420 0.15300
Zn	Zn	0.39089 0.69556 0.14187 1.22200
N 	N 	0.40060 0.69330 0.21284 -0.22200
C 	C 	0.36650 0.74120 0.23728 0.06500
H 	H 	0.33900 0.77730 0.22380 0.01200
C 	C 	0.36930 0.74090 0.28154 -0.10600
H 	H 	0.34410 0.77590 0.29710 0.08300
C 	C 	0.40980 0.68840 0.30225 0.01700
C 	C 	0.44410 0.63770 0.27717 -0.10200
H 	H 	0.47100 0.60080 0.28990 0.08000
C 	C 	0.43840 0.64160 0.23321 0.06600
H 	H 	0.46200 0.60670 0.21700 0.00700
C 	C 	0.41900 0.68240 0.35020 0.21200
O 	O 	0.45140 0.63260 0.36638 -0.22600
N 	N 	0.38950 0.73550 0.37256 -0.19200
N 	N 	0.39170 0.73260 0.41670 -0.04500
C 	C 	0.37800 0.78790 0.43576 -0.07000
H 	H 	0.36740 0.82670 0.42000 0.07500
C 	C 	0.37880 0.79090 0.48236 0.15600
C 	C 	0.38430 0.85050 0.50430 -0.19900
H 	H 	0.38630 0.89070 0.48920 0.10600
C 	C 	0.38690 0.85150 0.54880 0.12300
H 	H 	0.39360 0.89260 0.56250 -0.01000
N 	N 	0.38030 0.79760 0.57186 -0.24700
C 	C 	0.37250 0.73970 0.55080 0.11800
H 	H 	0.36770 0.70040 0.56680 -0.01000
C 	C 	0.37130 0.73460 0.50690 -0.19500
H 	H 	0.36530 0.69270 0.49400 0.11400
C 	C 	0.13670 0.40830 0.14042 -0.12600
C 	C 	0.22840 0.41440 0.13870 0.02700
H 	H 	0.26340 0.37600 0.13710 0.04700
C 	C 	0.26780 0.47680 0.13930 -0.06100
H 	H 	0.32910 0.48050 0.13790 0.07900
C 	C 	0.21580 0.53390 0.14194 -0.02700
C 	C 	0.12470 0.52820 0.14184 -0.06900
H 	H 	0.08970 0.56660 0.14240 0.08000
C 	C 	0.08540 0.46510 0.14093 0.03200
H 	H 	0.02410 0.46140 0.14070 0.03700
C 	C 	0.25950 0.60190 0.14458 0.30400
O 	O 	0.34330 0.60236 0.14123 -0.42400
O 	O 	0.21460 0.65330 0.14983 -0.32300
C 	C 	0.09720 0.33950 0.14146 0.42700
O 	O 	0.01690 0.33420 0.13677 -0.51100
O 	O 	0.14990 0.29043 0.14664 -0.47500
H 	H 	0.37100 0.77500 0.36420 0.15300
Zn	Zn	0.89089 0.19556 0.64187 1.22200
N 	N 	0.90060 0.19330 0.71284 -0.22200
C 	C 	0.86650 0.24120 0.73728 0.06500
H 	H 	0.83900 0.27730 0.72380 0.01200
C 	C 	0.86930 0.24090 0.78154 -0.10600
H 	H 	0.84410 0.27590 0.79710 0.08300
C 	C 	0.90980 0.18840 0.80225 0.01700
C 	C 	0.94410 0.13770 0.77717 -0.10200
H 	H 	0.97100 0.10080 0.78990 0.08000
C 	C 	0.93840 0.14160 0.73321 0.06500
H 	H 	0.96200 0.10670 0.71700 0.00700
C 	C 	0.91900 0.18240 0.85020 0.21200
O 	O 	0.95140 0.13260 0.86638 -0.22600
N 	N 	0.88950 0.23550 0.87256 -0.19200
N 	N 	0.89170 0.23260 0.91670 -0.04500
C 	C 	0.87800 0.28790 0.93576 -0.07000
H 	H 	0.86740 0.32670 0.92000 0.07500
C 	C 	0.87880 0.29090 0.98236 0.15600
C 	C 	0.88430 0.35050 0.00430 -0.19900
H 	H 	0.88630 0.39070 0.98920 0.10600
C 	C 	0.88690 0.35150 0.04880 0.12300
H 	H 	0.89360 0.39260 0.06250 -0.01000
N 	N 	0.88030 0.29760 0.07186 -0.24700
C 	C 	0.87250 0.23970 0.05080 0.11800
H 	H 	0.86770 0.20040 0.06680 -0.01000
C 	C 	0.87130 0.23460 0.00690 -0.19500
H 	H 	0.86530 0.19270 0.99400 0.11300
C 	C 	0.63670 0.90830 0.64042 -0.12600
C 	C 	0.72840 0.91440 0.63870 0.02700
H 	H 	0.76340 0.87600 0.63710 0.04700
C 	C 	0.76780 0.97680 0.63930 -0.06100
H 	H 	0.82910 0.98050 0.63790 0.07900
C 	C 	0.71580 0.03390 0.64194 -0.02700
C 	C 	0.62470 0.02820 0.64184 -0.06900
H 	H 	0.58970 0.06660 0.64240 0.08000
C 	C 	0.58540 0.96510 0.64093 0.03200
H 	H 	0.52410 0.96140 0.64070 0.03700
C 	C 	0.75950 0.10190 0.64458 0.30400
O 	O 	0.84330 0.10236 0.64123 -0.42400
O 	O 	0.71460 0.15330 0.64983 -0.32300
C 	C 	0.59720 0.83950 0.64146 0.42700
O 	O 	0.51690 0.83420 0.63677 -0.51100
O 	O 	0.64990 0.79043 0.64664 -0.47500
H 	H 	0.87100 0.27500 0.86420 0.15300
Zn	Zn	0.89089 0.69556 0.35813 1.22200
N 	N 	0.90060 0.69330 0.28716 -0.22200
C 	C 	0.86650 0.74120 0.26272 0.06500
H 	H 	0.83900 0.77730 0.27620 0.01200
C 	C 	0.86930 0.74090 0.21846 -0.10600
H 	H 	0.84410 0.77590 0.20290 0.08300
C 	C 	0.90980 0.68840 0.19775 0.01700
C 	C 	0.94410 0.63770 0.22283 -0.10200
H 	H 	0.97100 0.60080 0.21010 0.08000
C 	C 	0.93840 0.64160 0.26679 0.06500
H 	H 	0.96200 0.60670 0.28300 0.00700
C 	C 	0.91900 0.68240 0.14980 0.21200
O 	O 	0.95140 0.63260 0.13362 -0.22600
N 	N 	0.88950 0.73550 0.12744 -0.19200
N 	N 	0.89170 0.73260 0.08330 -0.04500
C 	C 	0.87800 0.78790 0.06424 -0.07000
H 	H 	0.86740 0.82670 0.08000 0.07500
C 	C 	0.87880 0.79090 0.01764 0.15600
C 	C 	0.88430 0.85050 0.99570 -0.19900
H 	H 	0.88630 0.89070 0.01080 0.10600
C 	C 	0.88690 0.85150 0.95120 0.12300
H 	H 	0.89360 0.89260 0.93750 -0.01000
N 	N 	0.88030 0.79760 0.92814 -0.24700
C 	C 	0.87250 0.73970 0.94920 0.11800
H 	H 	0.86770 0.70040 0.93320 -0.01000
C 	C 	0.87130 0.73460 0.99310 -0.19500
H 	H 	0.86530 0.69270 0.00600 0.11300
C 	C 	0.63670 0.40830 0.35958 -0.12600
C 	C 	0.72840 0.41440 0.36130 0.02700
H 	H 	0.76340 0.37600 0.36290 0.04700
C 	C 	0.76780 0.47680 0.36070 -0.06100
H 	H 	0.82910 0.48050 0.36210 0.07900
C 	C 	0.71580 0.53390 0.35806 -0.02700
C 	C 	0.62470 0.52820 0.35816 -0.06900
H 	H 	0.58970 0.56660 0.35760 0.08000
C 	C 	0.58540 0.46510 0.35907 0.03200
H 	H 	0.52410 0.46140 0.35930 0.03700
C 	C 	0.75950 0.60190 0.35542 0.30400
O 	O 	0.84330 0.60236 0.35877 -0.42400
O 	O 	0.71460 0.65330 0.35017 -0.32300
C 	C 	0.59720 0.33950 0.35854 0.42700
O 	O 	0.51690 0.33420 0.36323 -0.51100
O 	O 	0.64990 0.29043 0.35336 -0.47500
H 	H 	0.87100 0.77500 0.13580 0.15300
Zn	Zn	0.39089 0.19556 0.85813 1.22200
N 	N 	0.40060 0.19330 0.78716 -0.22200
C 	C 	0.36650 0.24120 0.76272 0.06500
H 	H 	0.33900 0.27730 0.77620 0.01200
C 	C 	0.36930 0.24090 0.71846 -0.10600
H 	H 	0.34410 0.27590 0.70290 0.08300
C 	C 	0.40980 0.18840 0.69775 0.01700
C 	C 	0.44410 0.13770 0.72283 -0.10200
H 	H 	0.47100 0.10080 0.71010 0.08000
C 	C 	0.43840 0.14160 0.76679 0.06600
H 	H 	0.46200 0.10670 0.78300 0.00700
C 	C 	0.41900 0.18240 0.64980 0.21200
O 	O 	0.45140 0.13260 0.63362 -0.22600
N 	N 	0.38950 0.23550 0.62744 -0.19200
N 	N 	0.39170 0.23260 0.58330 -0.04500
C 	C 	0.37800 0.28790 0.56424 -0.07000
H 	H 	0.36740 0.32670 0.58000 0.07500
C 	C 	0.37880 0.29090 0.51764 0.15600
C 	C 	0.38430 0.35050 0.49570 -0.19900
H 	H 	0.38630 0.39070 0.51080 0.10600
C 	C 	0.38690 0.35150 0.45120 0.12300
H 	H 	0.39360 0.39260 0.43750 -0.01000
N 	N 	0.38030 0.29760 0.42814 -0.24700
C 	C 	0.37250 0.23970 0.44920 0.11800
H 	H 	0.36770 0.20040 0.43320 -0.01000
C 	C 	0.37130 0.23460 0.49310 -0.19500
H 	H 	0.36530 0.19270 0.50600 0.11400
C 	C 	0.13670 0.90830 0.85958 -0.12600
C 	C 	0.22840 0.91440 0.86130 0.02700
H 	H 	0.26340 0.87600 0.86290 0.04700
C 	C 	0.26780 0.97680 0.86070 -0.06100
H 	H 	0.32910 0.98050 0.86210 0.07900
C 	C 	0.21580 0.03390 0.85806 -0.02700
C 	C 	0.12470 0.02820 0.85816 -0.06900
H 	H 	0.08970 0.06660 0.85760 0.08000
C 	C 	0.08540 0.96510 0.85907 0.03200
H 	H 	0.02410 0.96140 0.85930 0.03700
C 	C 	0.25950 0.10190 0.85542 0.30400
O 	O 	0.34330 0.10236 0.85877 -0.42400
O 	O 	0.21460 0.15330 0.85017 -0.32300
C 	C 	0.09720 0.83950 0.85854 0.42700
O 	O 	0.01690 0.83420 0.86323 -0.51100
O 	O 	0.14990 0.79043 0.85336 -0.47500
H 	H 	0.37100 0.27500 0.63580 0.15300
Zn	Zn	0.60911 0.30444 0.85813 1.22200
N 	N 	0.59940 0.30670 0.78716 -0.22200
C 	C 	0.63350 0.25880 0.76272 0.06500
H 	H 	0.66100 0.22270 0.77620 0.01200
C 	C 	0.63070 0.25910 0.71846 -0.10600
H 	H 	0.65590 0.22410 0.70290 0.08300
C 	C 	0.59020 0.31160 0.69775 0.01700
C 	C 	0.55590 0.36230 0.72283 -0.10200
H 	H 	0.52900 0.39920 0.71010 0.08000
C 	C 	0.56160 0.35840 0.76679 0.06600
H 	H 	0.53800 0.39330 0.78300 0.00700
C 	C 	0.58100 0.31760 0.64980 0.21200
O 	O 	0.54860 0.36740 0.63362 -0.22600
N 	N 	0.61050 0.26450 0.62744 -0.19200
N 	N 	0.60830 0.26740 0.58330 -0.04500
C 	C 	0.62200 0.21210 0.56424 -0.07000
H 	H 	0.63260 0.17330 0.58000 0.07500
C 	C 	0.62120 0.20910 0.51764 0.15600
C 	C 	0.61570 0.14950 0.49570 -0.19900
H 	H 	0.61370 0.10930 0.51080 0.10600
C 	C 	0.61310 0.14850 0.45120 0.12300
H 	H 	0.60640 0.10740 0.43750 -0.01000
N 	N 	0.61970 0.20240 0.42814 -0.24700
C 	C 	0.62750 0.26030 0.44920 0.11800
H 	H 	0.63230 0.29960 0.43320 -0.01000
C 	C 	0.62870 0.26540 0.49310 -0.19500
H 	H 	0.63470 0.30730 0.50600 0.11400
C 	C 	0.86330 0.59170 0.85958 -0.12600
C 	C 	0.77160 0.58560 0.86130 0.02700
H 	H 	0.73660 0.62400 0.86290 0.04700
C 	C 	0.73220 0.52320 0.86070 -0.06100
H 	H 	0.67090 0.51950 0.86210 0.07900
C 	C 	0.78420 0.46610 0.85806 -0.02700
C 	C 	0.87530 0.47180 0.85816 -0.06900
H 	H 	0.91030 0.43340 0.85760 0.08000
C 	C 	0.91460 0.53490 0.85907 0.03200
H 	H 	0.97590 0.53860 0.85930 0.03700
C 	C 	0.74050 0.39810 0.85542 0.30400
O 	O 	0.65670 0.39764 0.85877 -0.42400
O 	O 	0.78540 0.34670 0.85017 -0.32300
C 	C 	0.90280 0.66050 0.85854 0.42700
O 	O 	0.98310 0.66580 0.86323 -0.51100
O 	O 	0.85010 0.70957 0.85336 -0.47500
H 	H 	0.62900 0.22500 0.63580 0.15300
Zn	Zn	0.10911 0.80444 0.35813 1.22200
N 	N 	0.09940 0.80670 0.28716 -0.22200
C 	C 	0.13350 0.75880 0.26272 0.06500
H 	H 	0.16100 0.72270 0.27620 0.01200
C 	C 	0.13070 0.75910 0.21846 -0.10600
H 	H 	0.15590 0.72410 0.20290 0.08300
C 	C 	0.09020 0.81160 0.19775 0.01700
C 	C 	0.05590 0.86230 0.22283 -0.10200
H 	H 	0.02900 0.89920 0.21010 0.08000
C 	C 	0.06160 0.85840 0.26679 0.06500
H 	H 	0.03800 0.89330 0.28300 0.00700
C 	C 	0.08100 0.81760 0.14980 0.21200
O 	O 	0.04860 0.86740 0.13362 -0.22600
N 	N 	0.11050 0.76450 0.12744 -0.19200
N 	N 	0.10830 0.76740 0.08330 -0.04500
C 	C 	0.12200 0.71210 0.06424 -0.07000
H 	H 	0.13260 0.67330 0.08000 0.07500
C 	C 	0.12120 0.70910 0.01764 0.15600
C 	C 	0.11570 0.64950 0.99570 -0.19900
H 	H 	0.11370 0.60930 0.01080 0.10600
C 	C 	0.11310 0.64850 0.95120 0.12300
H 	H 	0.10640 0.60740 0.93750 -0.01000
N 	N 	0.11970 0.70240 0.92814 -0.24700
C 	C 	0.12750 0.76030 0.94920 0.11800
H 	H 	0.13230 0.79960 0.93320 -0.01000
C 	C 	0.12870 0.76540 0.99310 -0.19500
H 	H 	0.13470 0.80730 0.00600 0.11300
C 	C 	0.36330 0.09170 0.35958 -0.12600
C 	C 	0.27160 0.08560 0.36130 0.02700
H 	H 	0.23660 0.12400 0.36290 0.04700
C 	C 	0.23220 0.02320 0.36070 -0.06100
H 	H 	0.17090 0.01950 0.36210 0.07900
C 	C 	0.28420 0.96610 0.35806 -0.02700
C 	C 	0.37530 0.97180 0.35816 -0.06900
H 	H 	0.41030 0.93340 0.35760 0.08000
C 	C 	0.41460 0.03490 0.35907 0.03200
H 	H 	0.47590 0.03860 0.35930 0.03700
C 	C 	0.24050 0.89810 0.35542 0.30400
O 	O 	0.15670 0.89764 0.35877 -0.42400
O 	O 	0.28540 0.84670 0.35017 -0.32300
C 	C 	0.40280 0.16050 0.35854 0.42700
O 	O 	0.48310 0.16580 0.36323 -0.51100
O 	O 	0.35010 0.20957 0.35336 -0.47500
H 	H 	0.12900 0.72500 0.13580 0.15300
Zn	Zn	0.89089 0.80444 0.85813 1.22200
N 	N 	0.90060 0.80670 0.78716 -0.22200
C 	C 	0.86650 0.75880 0.76272 0.06500
H 	H 	0.83900 0.72270 0.77620 0.01200
C 	C 	0.86930 0.75910 0.71846 -0.10600
H 	H 	0.84410 0.72410 0.70290 0.08300
C 	C 	0.90980 0.81160 0.69775 0.01700
C 	C 	0.94410 0.86230 0.72283 -0.10200
H 	H 	0.97100 0.89920 0.71010 0.08000
C 	C 	0.93840 0.85840 0.76679 0.06500
H 	H 	0.96200 0.89330 0.78300 0.00700
C 	C 	0.91900 0.81760 0.64980 0.21200
O 	O 	0.95140 0.86740 0.63362 -0.22600
N 	N 	0.88950 0.76450 0.62744 -0.19200
N 	N 	0.89170 0.76740 0.58330 -0.04500
C 	C 	0.87800 0.71210 0.56424 -0.07000
H 	H 	0.86740 0.67330 0.58000 0.07500
C 	C 	0.87880 0.70910 0.51764 0.15500
C 	C 	0.88430 0.64950 0.49570 -0.19900
H 	H 	0.88630 0.60930 0.51080 0.10600
C 	C 	0.88690 0.64850 0.45120 0.12300
H 	H 	0.89360 0.60740 0.43750 -0.01000
N 	N 	0.88030 0.70240 0.42814 -0.24700
C 	C 	0.87250 0.76030 0.44920 0.11800
H 	H 	0.86770 0.79960 0.43320 -0.01000
C 	C 	0.87130 0.76540 0.49310 -0.19500
H 	H 	0.86530 0.80730 0.50600 0.11300
C 	C 	0.63670 0.09170 0.85958 -0.12600
C 	C 	0.72840 0.08560 0.86130 0.02700
H 	H 	0.76340 0.12400 0.86290 0.04700
C 	C 	0.76780 0.02320 0.86070 -0.06100
H 	H 	0.82910 0.01950 0.86210 0.07900
C 	C 	0.71580 0.96610 0.85806 -0.02700
C 	C 	0.62470 0.97180 0.85816 -0.06900
H 	H 	0.58970 0.93340 0.85760 0.08000
C 	C 	0.58540 0.03490 0.85907 0.03200
H 	H 	0.52410 0.03860 0.85930 0.03700
C 	C 	0.75950 0.89810 0.85542 0.30400
O 	O 	0.84330 0.89764 0.85877 -0.42400
O 	O 	0.71460 0.84670 0.85017 -0.32300
C 	C 	0.59720 0.16050 0.85854 0.42700
O 	O 	0.51690 0.16580 0.86323 -0.51100
O 	O 	0.64990 0.20957 0.85336 -0.47500
H 	H 	0.87100 0.72500 0.63580 0.15300
Zn	Zn	0.39089 0.30444 0.35813 1.22200
N 	N 	0.40060 0.30670 0.28716 -0.22200
C 	C 	0.36650 0.25880 0.26272 0.06500
H 	H 	0.33900 0.22270 0.27620 0.01200
C 	C 	0.36930 0.25910 0.21846 -0.10600
H 	H 	0.34410 0.22410 0.20290 0.08300
C 	C 	0.40980 0.31160 0.19775 0.01700
C 	C 	0.44410 0.36230 0.22283 -0.10200
H 	H 	0.47100 0.39920 0.21010 0.08000
C 	C 	0.43840 0.35840 0.26679 0.06600
H 	H 	0.46200 0.39330 0.28300 0.00700
C 	C 	0.41900 0.31760 0.14980 0.21200
O 	O 	0.45140 0.36740 0.13362 -0.22600
N 	N 	0.38950 0.26450 0.12744 -0.19200
N 	N 	0.39170 0.26740 0.08330 -0.04500
C 	C 	0.37800 0.21210 0.06424 -0.07000
H 	H 	0.36740 0.17330 0.08000 0.07500
C 	C 	0.37880 0.20910 0.01764 0.15600
C 	C 	0.38430 0.14950 0.99570 -0.19900
H 	H 	0.38630 0.10930 0.01080 0.10600
C 	C 	0.38690 0.14850 0.95120 0.12300
H 	H 	0.39360 0.10740 0.93750 -0.01000
N 	N 	0.38030 0.20240 0.92814 -0.24700
C 	C 	0.37250 0.26030 0.94920 0.11800
H 	H 	0.36770 0.29960 0.93320 -0.01000
C 	C 	0.37130 0.26540 0.99310 -0.19500
H 	H 	0.36530 0.30730 0.00600 0.11400
C 	C 	0.13670 0.59170 0.35958 -0.12600
C 	C 	0.22840 0.58560 0.36130 0.02700
H 	H 	0.26340 0.62400 0.36290 0.04700
C 	C 	0.26780 0.52320 0.36070 -0.06100
H 	H 	0.32910 0.51950 0.36210 0.07900
C 	C 	0.21580 0.46610 0.35806 -0.02700
C 	C 	0.12470 0.47180 0.35816 -0.06900
H 	H 	0.08970 0.43340 0.35760 0.08000
C 	C 	0.08540 0.53490 0.35907 0.03200
H 	H 	0.02410 0.53860 0.35930 0.03700
C 	C 	0.25950 0.39810 0.35542 0.30400
O 	O 	0.34330 0.39764 0.35877 -0.42400
O 	O 	0.21460 0.34670 0.35017 -0.32300
C 	C 	0.09720 0.66050 0.35854 0.42700
O 	O 	0.01690 0.66580 0.36323 -0.51100
O 	O 	0.14990 0.70957 0.35336 -0.47500
H 	H 	0.37100 0.22500 0.13580 0.15300
Zn	Zn	0.60911 0.19556 0.35813 1.22200
N 	N 	0.59940 0.19330 0.28716 -0.22200
C 	C 	0.63350 0.24120 0.26272 0.06500
H 	H 	0.66100 0.27730 0.27620 0.01200
C 	C 	0.63070 0.24090 0.21846 -0.10600
H 	H 	0.65590 0.27590 0.20290 0.08300
C 	C 	0.59020 0.18840 0.19775 0.01700
C 	C 	0.55590 0.13770 0.22283 -0.10200
H 	H 	0.52900 0.10080 0.21010 0.08000
C 	C 	0.56160 0.14160 0.26679 0.06600
H 	H 	0.53800 0.10670 0.28300 0.00700
C 	C 	0.58100 0.18240 0.14980 0.21200
O 	O 	0.54860 0.13260 0.13362 -0.22600
N 	N 	0.61050 0.23550 0.12744 -0.19200
N 	N 	0.60830 0.23260 0.08330 -0.04500
C 	C 	0.62200 0.28790 0.06424 -0.07000
H 	H 	0.63260 0.32670 0.08000 0.07500
C 	C 	0.62120 0.29090 0.01764 0.15600
C 	C 	0.61570 0.35050 0.99570 -0.19900
H 	H 	0.61370 0.39070 0.01080 0.10600
C 	C 	0.61310 0.35150 0.95120 0.12300
H 	H 	0.60640 0.39260 0.93750 -0.01000
N 	N 	0.61970 0.29760 0.92814 -0.24700
C 	C 	0.62750 0.23970 0.94920 0.11800
H 	H 	0.63230 0.20040 0.93320 -0.01000
C 	C 	0.62870 0.23460 0.99310 -0.19500
H 	H 	0.63470 0.19270 0.00600 0.11300
C 	C 	0.86330 0.90830 0.35958 -0.12600
C 	C 	0.77160 0.91440 0.36130 0.02700
H 	H 	0.73660 0.87600 0.36290 0.04700
C 	C 	0.73220 0.97680 0.36070 -0.06100
H 	H 	0.67090 0.98050 0.36210 0.07900
C 	C 	0.78420 0.03390 0.35806 -0.02700
C 	C 	0.87530 0.02820 0.35816 -0.06900
H 	H 	0.91030 0.06660 0.35760 0.08000
C 	C 	0.91460 0.96510 0.35907 0.03200
H 	H 	0.97590 0.96140 0.35930 0.03700
C 	C 	0.74050 0.10190 0.35542 0.30400
O 	O 	0.65670 0.10236 0.35877 -0.42400
O 	O 	0.78540 0.15330 0.35017 -0.32300
C 	C 	0.90280 0.83950 0.35854 0.42700
O 	O 	0.98310 0.83420 0.36323 -0.51100
O 	O 	0.85010 0.79043 0.35336 -0.47500
H 	H 	0.62900 0.27500 0.13580 0.15300
Zn	Zn	0.10911 0.69556 0.85813 1.22200
N 	N 	0.09940 0.69330 0.78716 -0.22200
C 	C 	0.13350 0.74120 0.76272 0.06500
H 	H 	0.16100 0.77730 0.77620 0.01200
C 	C 	0.13070 0.74090 0.71846 -0.10600
H 	H 	0.15590 0.77590 0.70290 0.08300
C 	C 	0.09020 0.68840 0.69775 0.01700
C 	C 	0.05590 0.63770 0.72283 -0.10200
H 	H 	0.02900 0.60080 0.71010 0.08000
C 	C 	0.06160 0.64160 0.76679 0.06500
H 	H 	0.03800 0.60670 0.78300 0.00700
C 	C 	0.08100 0.68240 0.64980 0.21200
O 	O 	0.04860 0.63260 0.63362 -0.22600
N 	N 	0.11050 0.73550 0.62744 -0.19200
N 	N 	0.10830 0.73260 0.58330 -0.04500
C 	C 	0.12200 0.78790 0.56424 -0.07000
H 	H 	0.13260 0.82670 0.58000 0.07500
C 	C 	0.12120 0.79090 0.51764 0.15500
C 	C 	0.11570 0.85050 0.49570 -0.19900
H 	H 	0.11370 0.89070 0.51080 0.10600
C 	C 	0.11310 0.85150 0.45120 0.12300
H 	H 	0.10640 0.89260 0.43750 -0.01000
N 	N 	0.11970 0.79760 0.42814 -0.24700
C 	C 	0.12750 0.73970 0.44920 0.11800
H 	H 	0.13230 0.70040 0.43320 -0.01000
C 	C 	0.12870 0.73460 0.49310 -0.19500
H 	H 	0.13470 0.69270 0.50600 0.11300
C 	C 	0.36330 0.40830 0.85958 -0.12600
C 	C 	0.27160 0.41440 0.86130 0.02700
H 	H 	0.23660 0.37600 0.86290 0.04700
C 	C 	0.23220 0.47680 0.86070 -0.06100
H 	H 	0.17090 0.48050 0.86210 0.07900
C 	C 	0.28420 0.53390 0.85806 -0.02700
C 	C 	0.37530 0.52820 0.85816 -0.06900
H 	H 	0.41030 0.56660 0.85760 0.08000
C 	C 	0.41460 0.46510 0.85907 0.03200
H 	H 	0.47590 0.46140 0.85930 0.03700
C 	C 	0.24050 0.60190 0.85542 0.30400
O 	O 	0.15670 0.60236 0.85877 -0.42400
O 	O 	0.28540 0.65330 0.85017 -0.32300
C 	C 	0.40280 0.33950 0.85854 0.42700
O 	O 	0.48310 0.33420 0.86323 -0.51100
O 	O 	0.35010 0.29043 0.85336 -0.47500
H 	H 	0.12900 0.77500 0.63580 0.15300
