data_crystal

_cell_length_a 20.78200
_cell_length_b 20.78200
_cell_length_c 20.78200
_cell_angle_alpha 90.00000
_cell_angle_beta  90.00000
_cell_angle_gamma 90.00000

_symmetry_space_group_name_	'P 1'
_symmetry_space_group_name_H-M	'P 1'

loop_
_symmetry_equiv_pos_as_xyz
  x,y,z

loop_
_atom_site_label
_atom_site_type_symbol
_atom_site_fract_x
_atom_site_fract_y
_atom_site_fract_z
_atom_site_charge
Zr	Zr	0.12048 0.00000 -0.00000 3.12800
Zr	Zr	0.12048 0.50000 0.50000 3.19700
Zr	Zr	0.62048 0.00000 0.50000 3.16300
Zr	Zr	0.62048 0.50000 -0.00000 3.16300
Zr	Zr	0.87952 0.00000 -0.00000 3.12900
Zr	Zr	0.87952 0.50000 0.50000 3.19700
Zr	Zr	0.37952 0.00000 0.50000 3.16300
Zr	Zr	0.37952 0.50000 -0.00000 3.16300
Zr	Zr	0.00000 0.12048 -0.00000 3.12800
Zr	Zr	-0.00000 0.62048 0.50000 3.16300
Zr	Zr	0.50000 0.12048 0.50000 3.19700
Zr	Zr	0.50000 0.62048 -0.00000 3.16300
Zr	Zr	0.00000 0.87952 -0.00000 3.12900
Zr	Zr	0.00000 0.37952 0.50000 3.16300
Zr	Zr	0.50000 0.87952 0.50000 3.19700
Zr	Zr	0.50000 0.37952 -0.00000 3.16300
Zr	Zr	0.00000 0.00000 0.12048 3.12800
Zr	Zr	-0.00000 0.50000 0.62048 3.16400
Zr	Zr	0.50000 0.00000 0.62048 3.16400
Zr	Zr	0.50000 0.50000 0.12048 3.19800
Zr	Zr	0.00000 0.00000 0.87952 3.13000
Zr	Zr	0.00000 0.50000 0.37952 3.16400
Zr	Zr	0.50000 0.00000 0.37952 3.16400
Zr	Zr	0.50000 0.50000 0.87952 3.19800
O 	O 	0.18050 0.00000 0.08480 -0.64300
C 	C 	0.26750 0.00000 0.18440 0.05400
N 	N 	0.28428 0.00000 0.12171 -0.12600
O 	O 	0.18050 0.50000 0.58480 -0.50700
C 	C 	0.26750 0.50000 0.68440 0.09900
N 	N 	0.28428 0.50000 0.62171 -0.04400
O 	O 	0.68050 0.00000 0.58480 -0.61300
C 	C 	0.76750 0.00000 0.68440 0.08300
N 	N 	0.78428 0.00000 0.62171 -0.06900
O 	O 	0.68050 0.50000 0.08480 -0.52200
C 	C 	0.76750 0.50000 0.18440 0.11300
N 	N 	0.78428 0.50000 0.12171 -0.02700
O 	O 	0.81950 0.00000 0.08480 -0.63300
C 	C 	0.73250 0.00000 0.18440 0.05800
N 	N 	0.71572 0.00000 0.12171 -0.12100
O 	O 	0.81950 0.50000 0.58480 -0.49800
C 	C 	0.73250 0.50000 0.68440 0.10300
N 	N 	0.71572 0.50000 0.62171 -0.03900
O 	O 	0.31950 0.00000 0.58480 -0.62400
C 	C 	0.23250 0.00000 0.68440 0.05700
N 	N 	0.21572 0.00000 0.62171 -0.11500
O 	O 	0.31950 0.50000 0.08480 -0.53200
C 	C 	0.23250 0.50000 0.18440 0.08600
N 	N 	0.21572 0.50000 0.12171 -0.07300
O 	O 	0.81950 0.00000 0.91520 -0.43700
C 	C 	0.73250 -0.00000 0.81560 0.08200
N 	N 	0.71572 0.00000 0.87829 -0.00300
O 	O 	0.81950 0.50000 0.41520 -0.50000
C 	C 	0.73250 0.50000 0.31560 0.09300
N 	N 	0.71572 0.50000 0.37829 -0.04000
O 	O 	0.31950 0.00000 0.41520 -0.62500
C 	C 	0.23250 -0.00000 0.31560 0.04800
N 	N 	0.21572 -0.00000 0.37829 -0.11700
O 	O 	0.31950 0.50000 0.91520 -0.33200
C 	C 	0.23250 0.50000 0.81560 0.11100
N 	N 	0.21572 0.50000 0.87829 0.04700
O 	O 	0.18050 0.00000 0.91520 -0.44300
C 	C 	0.26750 -0.00000 0.81560 0.07900
N 	N 	0.28428 0.00000 0.87829 -0.00700
O 	O 	0.18050 0.50000 0.41520 -0.50800
C 	C 	0.26750 0.50000 0.31560 0.08900
N 	N 	0.28428 0.50000 0.37829 -0.04600
O 	O 	0.68050 0.00000 0.41520 -0.61500
C 	C 	0.76750 -0.00000 0.31560 0.07400
N 	N 	0.78428 -0.00000 0.37829 -0.07100
O 	O 	0.68050 0.50000 0.91520 -0.32400
C 	C 	0.76750 0.50000 0.81560 0.13700
N 	N 	0.78428 0.50000 0.87829 0.09100
O 	O 	0.08480 0.18050 -0.00000 -0.64300
C 	C 	0.18440 0.26750 -0.00000 0.05400
N 	N 	0.12171 0.28428 -0.00000 -0.12600
O 	O 	0.08480 0.68050 0.50000 -0.52200
C 	C 	0.18440 0.76750 0.50000 0.11300
N 	N 	0.12171 0.78428 0.50000 -0.02700
O 	O 	0.58480 0.18050 0.50000 -0.50700
C 	C 	0.68440 0.26750 0.50000 0.09900
N 	N 	0.62171 0.28428 0.50000 -0.04400
O 	O 	0.58480 0.68050 -0.00000 -0.61300
C 	C 	0.68440 0.76750 -0.00000 0.08300
N 	N 	0.62171 0.78428 -0.00000 -0.06900
O 	O 	0.08480 0.81950 -0.00000 -0.63300
C 	C 	0.18440 0.73250 -0.00000 0.05800
N 	N 	0.12171 0.71572 -0.00000 -0.12100
O 	O 	0.08480 0.31950 0.50000 -0.53200
C 	C 	0.18440 0.23250 0.50000 0.08600
N 	N 	0.12171 0.21572 0.50000 -0.07300
O 	O 	0.58480 0.81950 0.50000 -0.49800
C 	C 	0.68440 0.73250 0.50000 0.10300
N 	N 	0.62171 0.71572 0.50000 -0.03900
O 	O 	0.58480 0.31950 -0.00000 -0.62400
C 	C 	0.68440 0.23250 -0.00000 0.05700
N 	N 	0.62171 0.21572 -0.00000 -0.11500
O 	O 	0.91520 0.81950 -0.00000 -0.43700
C 	C 	0.81560 0.73250 -0.00000 0.08200
N 	N 	0.87829 0.71572 -0.00000 -0.00300
O 	O 	0.91520 0.31950 0.50000 -0.33200
C 	C 	0.81560 0.23250 0.50000 0.11100
N 	N 	0.87829 0.21572 0.50000 0.04700
O 	O 	0.41520 0.81950 0.50000 -0.50000
C 	C 	0.31560 0.73250 0.50000 0.09300
N 	N 	0.37829 0.71572 0.50000 -0.04000
O 	O 	0.41520 0.31950 -0.00000 -0.62500
C 	C 	0.31560 0.23250 -0.00000 0.04800
N 	N 	0.37829 0.21572 -0.00000 -0.11700
O 	O 	0.91520 0.18050 -0.00000 -0.44300
C 	C 	0.81560 0.26750 -0.00000 0.07900
N 	N 	0.87829 0.28428 -0.00000 -0.00700
O 	O 	0.91520 0.68050 0.50000 -0.32400
C 	C 	0.81560 0.76750 0.50000 0.13700
N 	N 	0.87829 0.78428 0.50000 0.09100
O 	O 	0.41520 0.18050 0.50000 -0.50800
C 	C 	0.31560 0.26750 0.50000 0.08900
N 	N 	0.37829 0.28428 0.50000 -0.04600
O 	O 	0.41520 0.68050 -0.00000 -0.61500
C 	C 	0.31560 0.76750 -0.00000 0.07400
N 	N 	0.37829 0.78428 -0.00000 -0.07100
O 	O 	0.00000 0.08480 0.18050 -0.64300
C 	C 	-0.00000 0.18440 0.26750 0.05400
N 	N 	0.00000 0.12171 0.28428 -0.12600
O 	O 	0.00000 0.58480 0.68050 -0.61300
C 	C 	-0.00000 0.68440 0.76750 0.08300
N 	N 	0.00000 0.62171 0.78428 -0.06900
O 	O 	0.50000 0.08480 0.68050 -0.52200
C 	C 	0.50000 0.18440 0.76750 0.11300
N 	N 	0.50000 0.12171 0.78428 -0.02700
O 	O 	0.50000 0.58480 0.18050 -0.50700
C 	C 	0.50000 0.68440 0.26750 0.09900
N 	N 	0.50000 0.62171 0.28428 -0.04400
O 	O 	-0.00000 0.08480 0.81950 -0.63300
C 	C 	-0.00000 0.18440 0.73250 0.05800
N 	N 	-0.00000 0.12171 0.71572 -0.12100
O 	O 	-0.00000 0.58480 0.31950 -0.62400
C 	C 	-0.00000 0.68440 0.23250 0.05700
N 	N 	0.00000 0.62171 0.21572 -0.11500
O 	O 	0.50000 0.08480 0.31950 -0.53200
C 	C 	0.50000 0.18440 0.23250 0.08600
N 	N 	0.50000 0.12171 0.21572 -0.07300
O 	O 	0.50000 0.58480 0.81950 -0.49800
C 	C 	0.50000 0.68440 0.73250 0.10300
N 	N 	0.50000 0.62171 0.71572 -0.03900
O 	O 	-0.00000 0.91520 0.81950 -0.43700
C 	C 	-0.00000 0.81560 0.73250 0.08200
N 	N 	0.00000 0.87829 0.71572 -0.00300
O 	O 	0.00000 0.41520 0.31950 -0.62500
C 	C 	0.00000 0.31560 0.23250 0.04800
N 	N 	0.00000 0.37829 0.21572 -0.11700
O 	O 	0.50000 0.91520 0.31950 -0.33200
C 	C 	0.50000 0.81560 0.23250 0.11100
N 	N 	0.50000 0.87829 0.21572 0.04700
O 	O 	0.50000 0.41520 0.81950 -0.50000
C 	C 	0.50000 0.31560 0.73250 0.09300
N 	N 	0.50000 0.37829 0.71572 -0.04000
O 	O 	0.00000 0.91520 0.18050 -0.44300
C 	C 	0.00000 0.81560 0.26750 0.07900
N 	N 	0.00000 0.87829 0.28428 -0.00700
O 	O 	0.00000 0.41520 0.68050 -0.61500
C 	C 	0.00000 0.31560 0.76750 0.07400
N 	N 	0.00000 0.37829 0.78428 -0.07100
O 	O 	0.50000 0.91520 0.68050 -0.32400
C 	C 	0.50000 0.81560 0.76750 0.13700
N 	N 	0.50000 0.87829 0.78428 0.09100
O 	O 	0.50000 0.41520 0.18050 -0.50800
C 	C 	0.50000 0.31560 0.26750 0.08900
N 	N 	0.50000 0.37829 0.28428 -0.04600
O 	O 	0.00000 0.18050 0.91520 -0.44300
C 	C 	0.00000 0.26750 0.81560 0.07900
N 	N 	0.00000 0.28428 0.87829 -0.00700
O 	O 	0.00000 0.68050 0.41520 -0.61500
C 	C 	0.00000 0.76750 0.31560 0.07400
N 	N 	0.00000 0.78428 0.37829 -0.07100
O 	O 	0.50000 0.18050 0.41520 -0.50800
C 	C 	0.50000 0.26750 0.31560 0.08900
N 	N 	0.50000 0.28428 0.37829 -0.04600
O 	O 	0.50000 0.68050 0.91520 -0.32400
C 	C 	0.50000 0.76750 0.81560 0.13700
N 	N 	0.50000 0.78428 0.87829 0.09100
O 	O 	0.00000 0.81950 0.91520 -0.43700
C 	C 	-0.00000 0.73250 0.81560 0.08200
N 	N 	0.00000 0.71572 0.87829 -0.00300
O 	O 	0.00000 0.31950 0.41520 -0.62500
C 	C 	0.00000 0.23250 0.31560 0.04800
N 	N 	0.00000 0.21572 0.37829 -0.11700
O 	O 	0.50000 0.81950 0.41520 -0.50000
C 	C 	0.50000 0.73250 0.31560 0.09300
N 	N 	0.50000 0.71572 0.37829 -0.04000
O 	O 	0.50000 0.31950 0.91520 -0.33200
C 	C 	0.50000 0.23250 0.81560 0.11100
N 	N 	0.50000 0.21572 0.87829 0.04700
O 	O 	-0.00000 0.81950 0.08480 -0.63300
C 	C 	-0.00000 0.73250 0.18440 0.05800
N 	N 	-0.00000 0.71572 0.12171 -0.12100
O 	O 	-0.00000 0.31950 0.58480 -0.62400
C 	C 	-0.00000 0.23250 0.68440 0.05700
N 	N 	0.00000 0.21572 0.62171 -0.11500
O 	O 	0.50000 0.81950 0.58480 -0.49800
C 	C 	0.50000 0.73250 0.68440 0.10300
N 	N 	0.50000 0.71572 0.62171 -0.03900
O 	O 	0.50000 0.31950 0.08480 -0.53200
C 	C 	0.50000 0.23250 0.18440 0.08600
N 	N 	0.50000 0.21572 0.12171 -0.07300
O 	O 	0.00000 0.18050 0.08480 -0.64300
C 	C 	-0.00000 0.26750 0.18440 0.05400
N 	N 	0.00000 0.28428 0.12171 -0.12600
O 	O 	0.00000 0.68050 0.58480 -0.61300
C 	C 	0.00000 0.76750 0.68440 0.08300
N 	N 	0.00000 0.78428 0.62171 -0.06900
O 	O 	0.50000 0.18050 0.58480 -0.50700
C 	C 	0.50000 0.26750 0.68440 0.09900
N 	N 	0.50000 0.28428 0.62171 -0.04400
O 	O 	0.50000 0.68050 0.08480 -0.52200
C 	C 	0.50000 0.76750 0.18440 0.11300
N 	N 	0.50000 0.78428 0.12171 -0.02700
O 	O 	0.18050 0.08480 -0.00000 -0.64300
C 	C 	0.26750 0.18440 -0.00000 0.05400
N 	N 	0.28428 0.12171 -0.00000 -0.12600
O 	O 	0.18050 0.58480 0.50000 -0.50700
C 	C 	0.26750 0.68440 0.50000 0.09900
N 	N 	0.28428 0.62171 0.50000 -0.04400
O 	O 	0.68050 0.08480 0.50000 -0.52200
C 	C 	0.76750 0.18440 0.50000 0.11300
N 	N 	0.78428 0.12171 0.50000 -0.02700
O 	O 	0.68050 0.58480 -0.00000 -0.61300
C 	C 	0.76750 0.68440 -0.00000 0.08300
N 	N 	0.78428 0.62171 -0.00000 -0.06900
O 	O 	0.81950 0.08480 -0.00000 -0.63300
C 	C 	0.73250 0.18440 -0.00000 0.05800
N 	N 	0.71572 0.12171 -0.00000 -0.12100
O 	O 	0.81950 0.58480 0.50000 -0.49800
C 	C 	0.73250 0.68440 0.50000 0.10300
N 	N 	0.71572 0.62171 0.50000 -0.03900
O 	O 	0.31950 0.08480 0.50000 -0.53200
C 	C 	0.23250 0.18440 0.50000 0.08600
N 	N 	0.21572 0.12171 0.50000 -0.07300
O 	O 	0.31950 0.58480 -0.00000 -0.62400
C 	C 	0.23250 0.68440 -0.00000 0.05700
N 	N 	0.21572 0.62171 -0.00000 -0.11500
O 	O 	0.81950 0.91520 -0.00000 -0.43700
C 	C 	0.73250 0.81560 -0.00000 0.08200
N 	N 	0.71572 0.87829 -0.00000 -0.00300
O 	O 	0.81950 0.41520 0.50000 -0.50000
C 	C 	0.73250 0.31560 0.50000 0.09300
N 	N 	0.71572 0.37829 0.50000 -0.04000
O 	O 	0.31950 0.91520 0.50000 -0.33200
C 	C 	0.23250 0.81560 0.50000 0.11100
N 	N 	0.21572 0.87829 0.50000 0.04700
O 	O 	0.31950 0.41520 -0.00000 -0.62500
C 	C 	0.23250 0.31560 -0.00000 0.04800
N 	N 	0.21572 0.37829 -0.00000 -0.11700
O 	O 	0.18050 0.91520 -0.00000 -0.44300
C 	C 	0.26750 0.81560 -0.00000 0.07900
N 	N 	0.28428 0.87829 -0.00000 -0.00700
O 	O 	0.18050 0.41520 0.50000 -0.50800
C 	C 	0.26750 0.31560 0.50000 0.08900
N 	N 	0.28428 0.37829 0.50000 -0.04600
O 	O 	0.68050 0.91520 0.50000 -0.32400
C 	C 	0.76750 0.81560 0.50000 0.13700
N 	N 	0.78428 0.87829 0.50000 0.09100
O 	O 	0.68050 0.41520 -0.00000 -0.61500
C 	C 	0.76750 0.31560 -0.00000 0.07400
N 	N 	0.78428 0.37829 -0.00000 -0.07100
O 	O 	0.08480 0.00000 0.81950 -0.63300
C 	C 	0.18440 0.00000 0.73250 0.05800
N 	N 	0.12171 0.00000 0.71572 -0.12100
O 	O 	0.08480 0.50000 0.31950 -0.53200
C 	C 	0.18440 0.50000 0.23250 0.08600
N 	N 	0.12171 0.50000 0.21572 -0.07300
O 	O 	0.58480 0.00000 0.31950 -0.62400
C 	C 	0.68440 0.00000 0.23250 0.05700
N 	N 	0.62171 0.00000 0.21572 -0.11500
O 	O 	0.58480 0.50000 0.81950 -0.49800
C 	C 	0.68440 0.50000 0.73250 0.10300
N 	N 	0.62171 0.50000 0.71572 -0.03900
O 	O 	0.08480 0.00000 0.18050 -0.64300
C 	C 	0.18440 -0.00000 0.26750 0.05400
N 	N 	0.12171 0.00000 0.28428 -0.12600
O 	O 	0.08480 0.50000 0.68050 -0.52200
C 	C 	0.18440 0.50000 0.76750 0.11300
N 	N 	0.12171 0.50000 0.78428 -0.02700
O 	O 	0.58480 0.00000 0.68050 -0.61300
C 	C 	0.68440 0.00000 0.76750 0.08300
N 	N 	0.62171 0.00000 0.78428 -0.06900
O 	O 	0.58480 0.50000 0.18050 -0.50700
C 	C 	0.68440 0.50000 0.26750 0.09900
N 	N 	0.62171 0.50000 0.28428 -0.04400
O 	O 	0.91520 0.00000 0.18050 -0.44300
C 	C 	0.81560 -0.00000 0.26750 0.07900
N 	N 	0.87829 0.00000 0.28428 -0.00700
O 	O 	0.91520 0.50000 0.68050 -0.32400
C 	C 	0.81560 0.50000 0.76750 0.13700
N 	N 	0.87829 0.50000 0.78428 0.09100
O 	O 	0.41520 0.00000 0.68050 -0.61500
C 	C 	0.31560 0.00000 0.76750 0.07400
N 	N 	0.37829 0.00000 0.78428 -0.07100
O 	O 	0.41520 0.50000 0.18050 -0.50800
C 	C 	0.31560 0.50000 0.26750 0.08900
N 	N 	0.37829 0.50000 0.28428 -0.04600
O 	O 	0.91520 0.00000 0.81950 -0.43700
C 	C 	0.81560 0.00000 0.73250 0.08200
N 	N 	0.87829 0.00000 0.71572 -0.00300
O 	O 	0.91520 0.50000 0.31950 -0.33200
C 	C 	0.81560 0.50000 0.23250 0.11100
N 	N 	0.87829 0.50000 0.21572 0.04700
O 	O 	0.41520 0.00000 0.31950 -0.62500
C 	C 	0.31560 0.00000 0.23250 0.04800
N 	N 	0.37829 0.00000 0.21572 -0.11700
O 	O 	0.41520 0.50000 0.81950 -0.50000
C 	C 	0.31560 0.50000 0.73250 0.09300
N 	N 	0.37829 0.50000 0.71572 -0.04000
O 	O 	0.06280 0.06280 0.06280 -1.43500
O 	O 	0.06280 0.56280 0.56280 -1.30400
O 	O 	0.56280 0.06280 0.56280 -1.30400
O 	O 	0.56280 0.56280 0.06280 -1.30400
O 	O 	0.93720 0.93720 0.06280 -0.96100
O 	O 	0.93720 0.43720 0.56280 -1.06400
O 	O 	0.43720 0.93720 0.56280 -1.06400
O 	O 	0.43720 0.43720 0.06280 -1.30600
O 	O 	0.93720 0.06280 0.93720 -0.96100
O 	O 	0.93720 0.56280 0.43720 -1.06400
O 	O 	0.43720 0.06280 0.43720 -1.30600
O 	O 	0.43720 0.56280 0.93720 -1.06400
O 	O 	0.06280 0.93720 0.93720 -0.96100
O 	O 	0.06280 0.43720 0.43720 -1.30600
O 	O 	0.56280 0.93720 0.43720 -1.06400
O 	O 	0.56280 0.43720 0.93720 -1.06400
O 	O 	0.06280 0.06280 0.93720 -1.19300
O 	O 	0.06280 0.56280 0.43720 -1.30500
O 	O 	0.56280 0.06280 0.43720 -1.30500
O 	O 	0.56280 0.56280 0.93720 -1.06400
O 	O 	0.93720 0.93720 0.93720 -0.73800
O 	O 	0.93720 0.43720 0.43720 -1.06500
O 	O 	0.43720 0.93720 0.43720 -1.06500
O 	O 	0.43720 0.43720 0.93720 -1.06500
O 	O 	0.06280 0.93720 0.06280 -1.19300
O 	O 	0.06280 0.43720 0.56280 -1.30500
O 	O 	0.56280 0.93720 0.56280 -1.06400
O 	O 	0.56280 0.43720 0.06280 -1.30500
O 	O 	0.93720 0.06280 0.06280 -1.19300
O 	O 	0.93720 0.56280 0.56280 -1.06400
O 	O 	0.43720 0.06280 0.56280 -1.30500
O 	O 	0.43720 0.56280 0.06280 -1.30500
C 	C 	0.15360 0.00000 0.15360 0.18300
C 	C 	0.20500 0.00000 0.20500 -0.08200
C 	C 	0.15360 0.50000 0.65360 0.23800
C 	C 	0.20500 0.50000 0.70500 -0.05400
C 	C 	0.65360 0.00000 0.65360 0.18100
C 	C 	0.70500 0.00000 0.70500 -0.07200
C 	C 	0.65360 0.50000 0.15360 0.23800
C 	C 	0.70500 0.50000 0.20500 -0.05400
C 	C 	0.84640 0.00000 0.15360 0.19500
C 	C 	0.79500 0.00000 0.20500 -0.05600
C 	C 	0.84640 0.50000 0.65360 0.24900
C 	C 	0.79500 0.50000 0.70500 -0.02900
C 	C 	0.34640 0.00000 0.65360 0.17600
C 	C 	0.29500 0.00000 0.70500 -0.07400
C 	C 	0.34640 0.50000 0.15360 0.23300
C 	C 	0.29500 0.50000 0.20500 -0.05600
C 	C 	0.84640 0.00000 0.84640 0.20600
C 	C 	0.79500 0.00000 0.79500 -0.03200
C 	C 	0.84640 0.50000 0.34640 0.24400
C 	C 	0.79500 0.50000 0.29500 -0.03000
C 	C 	0.34640 -0.00000 0.34640 0.17000
C 	C 	0.29500 0.00000 0.29500 -0.07600
C 	C 	0.34640 0.50000 0.84640 0.24400
C 	C 	0.29500 0.50000 0.79500 -0.03000
C 	C 	0.15360 0.00000 0.84640 0.19500
C 	C 	0.20500 0.00000 0.79500 -0.05600
C 	C 	0.15360 0.50000 0.34640 0.23300
C 	C 	0.20500 0.50000 0.29500 -0.05600
C 	C 	0.65360 -0.00000 0.34640 0.17600
C 	C 	0.70500 0.00000 0.29500 -0.07400
C 	C 	0.65360 0.50000 0.84640 0.24900
C 	C 	0.70500 0.50000 0.79500 -0.02900
C 	C 	0.15360 0.15360 -0.00000 0.18300
C 	C 	0.20500 0.20500 -0.00000 -0.08200
C 	C 	0.15360 0.65360 0.50000 0.23800
C 	C 	0.20500 0.70500 0.50000 -0.05400
C 	C 	0.65360 0.15360 0.50000 0.23800
C 	C 	0.70500 0.20500 0.50000 -0.05400
C 	C 	0.65360 0.65360 -0.00000 0.18100
C 	C 	0.70500 0.70500 -0.00000 -0.07200
C 	C 	0.15360 0.84640 -0.00000 0.19500
C 	C 	0.20500 0.79500 -0.00000 -0.05600
C 	C 	0.15360 0.34640 0.50000 0.23300
C 	C 	0.20500 0.29500 0.50000 -0.05600
C 	C 	0.65360 0.84640 0.50000 0.24900
C 	C 	0.70500 0.79500 0.50000 -0.02900
C 	C 	0.65360 0.34640 -0.00000 0.17600
C 	C 	0.70500 0.29500 -0.00000 -0.07400
C 	C 	0.84640 0.84640 -0.00000 0.20600
C 	C 	0.79500 0.79500 -0.00000 -0.03200
C 	C 	0.84640 0.34640 0.50000 0.24400
C 	C 	0.79500 0.29500 0.50000 -0.03000
C 	C 	0.34640 0.84640 0.50000 0.24400
C 	C 	0.29500 0.79500 0.50000 -0.03000
C 	C 	0.34640 0.34640 -0.00000 0.17000
C 	C 	0.29500 0.29500 -0.00000 -0.07600
C 	C 	0.84640 0.15360 -0.00000 0.19500
C 	C 	0.79500 0.20500 -0.00000 -0.05600
C 	C 	0.84640 0.65360 0.50000 0.24900
C 	C 	0.79500 0.70500 0.50000 -0.02900
C 	C 	0.34640 0.15360 0.50000 0.23300
C 	C 	0.29500 0.20500 0.50000 -0.05600
C 	C 	0.34640 0.65360 -0.00000 0.17600
C 	C 	0.29500 0.70500 -0.00000 -0.07400
C 	C 	0.00000 0.15360 0.15360 0.18300
C 	C 	0.00000 0.20500 0.20500 -0.08200
C 	C 	0.00000 0.65360 0.65360 0.18100
C 	C 	-0.00000 0.70500 0.70500 -0.07200
C 	C 	0.50000 0.15360 0.65360 0.23800
C 	C 	0.50000 0.20500 0.70500 -0.05400
C 	C 	0.50000 0.65360 0.15360 0.23800
C 	C 	0.50000 0.70500 0.20500 -0.05400
C 	C 	0.00000 0.15360 0.84640 0.19500
C 	C 	0.00000 0.20500 0.79500 -0.05600
C 	C 	-0.00000 0.65360 0.34640 0.17600
C 	C 	0.00000 0.70500 0.29500 -0.07400
C 	C 	0.50000 0.15360 0.34640 0.23300
C 	C 	0.50000 0.20500 0.29500 -0.05600
C 	C 	0.50000 0.65360 0.84640 0.24900
C 	C 	0.50000 0.70500 0.79500 -0.02900
C 	C 	0.00000 0.84640 0.84640 0.20600
C 	C 	0.00000 0.79500 0.79500 -0.03200
C 	C 	-0.00000 0.34640 0.34640 0.17000
C 	C 	0.00000 0.29500 0.29500 -0.07600
C 	C 	0.50000 0.84640 0.34640 0.24400
C 	C 	0.50000 0.79500 0.29500 -0.03000
C 	C 	0.50000 0.34640 0.84640 0.24400
C 	C 	0.50000 0.29500 0.79500 -0.03000
C 	C 	0.00000 0.84640 0.15360 0.19500
C 	C 	0.00000 0.79500 0.20500 -0.05600
C 	C 	-0.00000 0.34640 0.65360 0.17600
C 	C 	0.00000 0.29500 0.70500 -0.07400
C 	C 	0.50000 0.84640 0.65360 0.24900
C 	C 	0.50000 0.79500 0.70500 -0.02900
C 	C 	0.50000 0.34640 0.15360 0.23300
C 	C 	0.50000 0.29500 0.20500 -0.05600
