data_crystal

_cell_length_a 11.35040
_cell_length_b 12.19230
_cell_length_c 16.18270
_cell_angle_alpha 90.00000
_cell_angle_beta  130.49100
_cell_angle_gamma 90.00000

_symmetry_space_group_name_	'P 1'
_symmetry_space_group_name_H-M	'P 1'

loop_
_symmetry_equiv_pos_as_xyz
  x,y,z

loop_
_atom_site_label
_atom_site_type_symbol
_atom_site_fract_x
_atom_site_fract_y
_atom_site_fract_z
_atom_site_charge
C 	C 	0.35730 0.88480 0.73190 -0.09800
C 	C 	0.20490 0.91830 0.67216 0.05300
H 	H 	0.16700 0.97740 0.62460 0.05600
C 	C 	0.10950 0.86350 0.68357 -0.09200
C 	C 	0.94590 0.90040 0.62210 0.34100
C 	C 	0.16620 0.77447 0.75328 0.06500
H 	H 	0.10180 0.73710 0.76050 0.05400
C 	C 	0.31880 0.74081 0.81243 -0.11900
C 	C 	0.41510 0.79687 0.80191 0.07400
H 	H 	0.51760 0.77520 0.84180 0.05100
C 	C 	0.38060 0.64504 0.88781 0.42200
O 	O 	0.42500 0.92375 0.61079 -0.41600
O 	O 	0.44520 0.07275 0.71610 -0.27400
O 	O 	0.63290 0.92590 0.80352 -0.22900
O 	O 	0.89570 0.98010 0.55870 -0.38200
O 	O 	0.86240 0.85462 0.63410 -0.35000
O 	O 	0.52377 0.63850 0.96179 -0.47300
O 	O 	0.28290 0.57827 0.87185 -0.45200
S 	S 	0.47655 0.95931 0.71644 0.52700
Zn	Zn	0.32070 0.02369 0.48117 1.24000
C 	C 	0.64270 0.38480 0.76810 -0.09700
C 	C 	0.79510 0.41830 0.82784 0.05300
H 	H 	0.83300 0.47740 0.87540 0.05600
C 	C 	0.89050 0.36350 0.81643 -0.09100
C 	C 	0.05410 0.40040 0.87790 0.34000
C 	C 	0.83380 0.27447 0.74672 0.06500
H 	H 	0.89820 0.23710 0.73950 0.05500
C 	C 	0.68120 0.24081 0.68757 -0.11800
C 	C 	0.58490 0.29687 0.69809 0.07400
H 	H 	0.48240 0.27520 0.65820 0.05100
C 	C 	0.61940 0.14504 0.61219 0.42200
O 	O 	0.57500 0.42375 0.88921 -0.41500
O 	O 	0.55480 0.57275 0.78390 -0.27400
O 	O 	0.36710 0.42590 0.69648 -0.23000
O 	O 	0.10430 0.48010 0.94130 -0.38200
O 	O 	0.13760 0.35462 0.86590 -0.35000
O 	O 	0.47623 0.13850 0.53821 -0.47400
O 	O 	0.71710 0.07827 0.62815 -0.45100
S 	S 	0.52345 0.45931 0.78356 0.52700
Zn	Zn	0.67930 0.52369 0.01883 1.24000
C 	C 	0.64270 0.11520 0.26810 -0.09700
C 	C 	0.79510 0.08170 0.32784 0.05400
H 	H 	0.83300 0.02260 0.37540 0.05600
C 	C 	0.89050 0.13650 0.31643 -0.09200
C 	C 	0.05410 0.09960 0.37790 0.34100
C 	C 	0.83380 0.22553 0.24672 0.06500
H 	H 	0.89820 0.26290 0.23950 0.05400
C 	C 	0.68120 0.25919 0.18757 -0.11900
C 	C 	0.58490 0.20313 0.19809 0.07400
H 	H 	0.48240 0.22480 0.15820 0.05100
C 	C 	0.61940 0.35496 0.11219 0.42200
O 	O 	0.57500 0.07625 0.38921 -0.41600
O 	O 	0.55480 0.92725 0.28390 -0.27400
O 	O 	0.36710 0.07410 0.19648 -0.22900
O 	O 	0.10430 0.01990 0.44130 -0.38200
O 	O 	0.13760 0.14538 0.36590 -0.35000
O 	O 	0.47623 0.36150 0.03821 -0.47300
O 	O 	0.71710 0.42173 0.12815 -0.45200
S 	S 	0.52345 0.04069 0.28356 0.52700
Zn	Zn	0.67930 0.97631 0.51883 1.24000
C 	C 	0.35730 0.61520 0.23190 -0.09700
C 	C 	0.20490 0.58170 0.17216 0.05300
H 	H 	0.16700 0.52260 0.12460 0.05600
C 	C 	0.10950 0.63650 0.18357 -0.09100
C 	C 	0.94590 0.59960 0.12210 0.34000
C 	C 	0.16620 0.72553 0.25328 0.06500
H 	H 	0.10180 0.76290 0.26050 0.05500
C 	C 	0.31880 0.75919 0.31243 -0.11800
C 	C 	0.41510 0.70313 0.30191 0.07400
H 	H 	0.51760 0.72480 0.34180 0.05100
C 	C 	0.38060 0.85496 0.38781 0.42200
O 	O 	0.42500 0.57625 0.11079 -0.41500
O 	O 	0.44520 0.42725 0.21610 -0.27400
O 	O 	0.63290 0.57410 0.30352 -0.23000
O 	O 	0.89570 0.51990 0.05870 -0.38200
O 	O 	0.86240 0.64538 0.13410 -0.35000
O 	O 	0.52377 0.86150 0.46179 -0.47400
O 	O 	0.28290 0.92173 0.37185 -0.45100
S 	S 	0.47655 0.54069 0.21644 0.52700
Zn	Zn	0.32070 0.47631 0.98117 1.24000
