data_crystal

_cell_length_a 9.70970
_cell_length_b 20.90600
_cell_length_c 24.73940
_cell_angle_alpha 104.60300
_cell_angle_beta  90.00000
_cell_angle_gamma 103.42800

_symmetry_space_group_name_	'P 1'
_symmetry_space_group_name_H-M	'P 1'

loop_
_symmetry_equiv_pos_as_xyz
  x,y,z

loop_
_atom_site_label
_atom_site_type_symbol
_atom_site_fract_x
_atom_site_fract_y
_atom_site_fract_z
_atom_site_charge
Cu	Cu	0.64551 0.70924 0.46101 0.82900
Cu	Cu	0.03787 0.78468 0.50972 0.82700
Cu	Cu	0.76526 0.73872 0.60871 0.82500
Cu	Cu	0.93627 0.29076 0.03899 0.82800
Cu	Cu	0.25319 0.21532 0.99028 0.82700
Cu	Cu	0.02654 0.26128 0.89129 0.82400
Cu	Cu	0.35449 0.29076 0.53899 0.82900
Cu	Cu	0.96213 0.21532 0.49028 0.82700
Cu	Cu	0.23474 0.26128 0.39129 0.82500
Cu	Cu	0.06373 0.70924 0.96101 0.82800
Cu	Cu	0.74681 0.78468 0.00972 0.82700
Cu	Cu	0.97346 0.73872 0.10871 0.82400
H 	H 	0.26030 0.82000 0.91560 -0.01300
H 	H 	0.42600 0.83060 0.84920 0.06800
H 	H 	0.40970 0.63240 0.82370 0.07000
H 	H 	0.24350 0.62700 0.88870 -0.00700
H 	H 	0.76460 0.83160 0.72700 -0.02600
H 	H 	0.63710 0.83040 0.80460 0.08100
H 	H 	0.45880 0.63640 0.73820 0.08300
H 	H 	0.58670 0.64320 0.66140 -0.01800
H 	H 	0.12020 0.89660 0.45160 -0.01700
H 	H 	0.29970 0.98900 0.45060 0.06400
H 	H 	0.53880 0.92400 0.54310 0.06500
H 	H 	0.35260 0.83560 0.54270 -0.01900
H 	H 	0.25870 0.71440 0.53880 -0.01500
H 	H 	0.30410 0.60780 0.51830 0.07400
H 	H 	0.97890 0.54580 0.40290 0.07700
H 	H 	0.94320 0.65320 0.42840 -0.03500
H 	H 	0.60280 0.59400 0.55100 -0.02500
H 	H 	0.62590 0.48540 0.52960 0.07100
H 	H 	0.96650 0.44320 0.41420 0.07500
H 	H 	0.99580 0.66400 0.60710 -0.02200
H 	H 	0.44030 0.18000 0.58440 -0.01100
H 	H 	0.59540 0.16940 0.65080 0.06900
H 	H 	0.77730 0.36760 0.67630 0.07100
H 	H 	0.61650 0.37300 0.61130 -0.00600
H 	H 	0.93300 0.16840 0.77300 -0.02600
H 	H 	0.80670 0.16960 0.69540 0.08000
H 	H 	0.82240 0.36360 0.76180 0.08300
H 	H 	0.94350 0.35680 0.83860 -0.01700
H 	H 	0.22360 0.10340 0.04840 -0.01700
H 	H 	0.31070 0.01100 0.04940 0.06500
H 	H 	0.61480 0.07600 0.95690 0.06500
H 	H 	0.51700 0.16440 0.95730 -0.01900
H 	H 	0.54430 0.28560 0.96120 -0.01500
H 	H 	0.69630 0.39220 0.98170 0.07600
H 	H 	0.43310 0.45420 0.09710 0.07800
H 	H 	0.29000 0.34680 0.07160 -0.03500
H 	H 	0.00880 0.40600 0.94900 -0.02600
H 	H 	0.14050 0.51460 0.97040 0.07100
H 	H 	0.52330 0.55680 0.08580 0.07700
H 	H 	0.33180 0.33600 0.89290 -0.02300
H 	H 	0.73970 0.18000 0.08440 -0.01200
H 	H 	0.57400 0.16940 0.15080 0.06900
H 	H 	0.59030 0.36760 0.17630 0.07000
H 	H 	0.75650 0.37300 0.11130 -0.00700
H 	H 	0.23540 0.16840 0.27300 -0.02600
H 	H 	0.36290 0.16960 0.19540 0.08100
H 	H 	0.54120 0.36360 0.26180 0.08300
H 	H 	0.41330 0.35680 0.33860 -0.01800
H 	H 	0.87980 0.10340 0.54840 -0.01700
H 	H 	0.70030 0.01100 0.54940 0.06400
H 	H 	0.46120 0.07600 0.45690 0.06500
H 	H 	0.64740 0.16440 0.45730 -0.01900
H 	H 	0.74130 0.28560 0.46120 -0.01500
H 	H 	0.69590 0.39220 0.48170 0.07400
H 	H 	0.02110 0.45420 0.59710 0.07700
H 	H 	0.05680 0.34680 0.57160 -0.03500
H 	H 	0.39720 0.40600 0.44900 -0.02500
H 	H 	0.37410 0.51460 0.47040 0.07100
H 	H 	0.03350 0.55680 0.58580 0.07500
H 	H 	0.00420 0.33600 0.39290 -0.02200
H 	H 	0.55970 0.82000 0.41560 -0.01100
H 	H 	0.40460 0.83060 0.34920 0.06900
H 	H 	0.22270 0.63240 0.32370 0.07100
H 	H 	0.38350 0.62700 0.38870 -0.00600
H 	H 	0.06700 0.83160 0.22700 -0.02600
H 	H 	0.19330 0.83040 0.30460 0.08000
H 	H 	0.17760 0.63640 0.23820 0.08300
H 	H 	0.05650 0.64320 0.16140 -0.01700
H 	H 	0.77640 0.89660 0.95160 -0.01700
H 	H 	0.68930 0.98900 0.95060 0.06500
H 	H 	0.38520 0.92400 0.04310 0.06500
H 	H 	0.48300 0.83560 0.04270 -0.01900
H 	H 	0.45570 0.71440 0.03880 -0.01500
H 	H 	0.30370 0.60780 0.01830 0.07600
H 	H 	0.56690 0.54580 0.90290 0.07800
H 	H 	0.71000 0.65320 0.92840 -0.03500
H 	H 	0.99120 0.59400 0.05100 -0.02600
H 	H 	0.85950 0.48540 0.02960 0.07100
H 	H 	0.47670 0.44320 0.91420 0.07700
H 	H 	0.66820 0.66400 0.10710 -0.02300
W 	W 	0.79265 0.82018 0.53907 0.25300
W 	W 	0.97247 0.17982 0.96093 0.25400
W 	W 	0.20735 0.17982 0.46093 0.25300
W 	W 	0.02753 0.82018 0.03907 0.25400
C 	C 	0.28917 0.78154 0.89630 0.06600
C 	C 	0.38939 0.78838 0.85600 -0.12500
C 	C 	0.43345 0.73150 0.82640 0.03700
C 	C 	0.37921 0.67122 0.84080 -0.12600
C 	C 	0.27994 0.66848 0.88060 0.06600
C 	C 	0.69994 0.79148 0.72820 0.09600
C 	C 	0.62280 0.79120 0.77530 -0.16300
C 	C 	0.52655 0.73410 0.77890 0.07900
C 	C 	0.51760 0.67780 0.73650 -0.15800
C 	C 	0.59700 0.68240 0.69060 0.08700
C 	C 	0.20470 0.90320 0.47220 0.07300
C 	C 	0.31340 0.95900 0.47100 -0.14100
C 	C 	0.44039 0.96998 0.49960 0.05600
C 	C 	0.45263 0.92126 0.52510 -0.14800
C 	C 	0.33916 0.86792 0.52460 0.08600
C 	C 	0.19991 0.67962 0.51180 0.07800
C 	C 	0.22923 0.61546 0.49940 -0.14700
C 	C 	0.14420 0.56320 0.45820 0.06000
C 	C 	0.03684 0.57888 0.43140 -0.14200
C 	C 	0.01603 0.64386 0.44710 0.07500
C 	C 	0.69020 0.58620 0.55880 0.07300
C 	C 	0.70344 0.52088 0.54550 -0.13500
C 	C 	0.16580 0.49320 0.44410 0.04900
C 	C 	0.05621 0.43722 0.42120 -0.13100
C 	C 	0.92022 0.62724 0.59140 0.06800
C 	C 	0.64340 0.55620 0.41450 0.09500
C 	C 	0.50763 0.21846 0.60370 0.06600
C 	C 	0.60101 0.21162 0.64400 -0.12400
C 	C 	0.70195 0.26850 0.67360 0.03700
C 	C 	0.70799 0.32878 0.65920 -0.12600
C 	C 	0.61146 0.33152 0.61940 0.06600
C 	C 	0.90846 0.20852 0.77180 0.09600
C 	C 	0.83160 0.20880 0.72470 -0.16300
C 	C 	0.79245 0.26590 0.72110 0.07900
C 	C 	0.83980 0.32220 0.76350 -0.15800
C 	C 	0.91460 0.31760 0.80940 0.08700
C 	C 	0.30150 0.09680 0.02780 0.07400
C 	C 	0.35440 0.04100 0.02900 -0.14200
C 	C 	0.47041 0.03002 0.00040 0.05600
C 	C 	0.53137 0.07874 0.97490 -0.14800
C 	C 	0.47124 0.13208 0.97540 0.08700
C 	C 	0.52029 0.32038 0.98820 0.08000
C 	C 	0.61377 0.38454 0.00060 -0.14900
C 	C 	0.58100 0.43680 0.04180 0.06200
C 	C 	0.45796 0.42112 0.06860 -0.14400
C 	C 	0.37217 0.35614 0.05290 0.07600
C 	C 	0.10400 0.41380 0.94120 0.07300
C 	C 	0.18256 0.47912 0.95450 -0.13600
C 	C 	0.67260 0.50680 0.05590 0.04900
C 	C 	0.61899 0.56278 0.07880 -0.13300
C 	C 	0.29298 0.37276 0.90860 0.06900
C 	C 	0.08720 0.44380 0.08550 0.09600
C 	C 	0.71083 0.21846 0.10370 0.06600
C 	C 	0.61061 0.21162 0.14400 -0.12500
C 	C 	0.56655 0.26850 0.17360 0.03700
C 	C 	0.62079 0.32878 0.15920 -0.12600
C 	C 	0.72006 0.33152 0.11940 0.06600
C 	C 	0.30006 0.20852 0.27180 0.09600
C 	C 	0.37720 0.20880 0.22470 -0.16300
C 	C 	0.47345 0.26590 0.22110 0.07900
C 	C 	0.48240 0.32220 0.26350 -0.15800
C 	C 	0.40300 0.31760 0.30940 0.08700
C 	C 	0.79530 0.09680 0.52780 0.07300
C 	C 	0.68660 0.04100 0.52900 -0.14100
C 	C 	0.55961 0.03002 0.50040 0.05600
C 	C 	0.54737 0.07874 0.47490 -0.14800
C 	C 	0.66084 0.13208 0.47540 0.08600
C 	C 	0.80009 0.32038 0.48820 0.07800
C 	C 	0.77077 0.38454 0.50060 -0.14700
C 	C 	0.85580 0.43680 0.54180 0.06000
C 	C 	0.96316 0.42112 0.56860 -0.14200
C 	C 	0.98397 0.35614 0.55290 0.07500
C 	C 	0.30980 0.41380 0.44120 0.07300
C 	C 	0.29656 0.47912 0.45450 -0.13500
C 	C 	0.83420 0.50680 0.55590 0.04900
C 	C 	0.94379 0.56278 0.57880 -0.13100
C 	C 	0.07978 0.37276 0.40860 0.06800
C 	C 	0.35660 0.44380 0.58550 0.09500
C 	C 	0.49237 0.78154 0.39630 0.06600
C 	C 	0.39899 0.78838 0.35600 -0.12400
C 	C 	0.29805 0.73150 0.32640 0.03700
C 	C 	0.29201 0.67122 0.34080 -0.12600
C 	C 	0.38854 0.66848 0.38060 0.06600
C 	C 	0.09154 0.79148 0.22820 0.09600
C 	C 	0.16840 0.79120 0.27530 -0.16300
C 	C 	0.20755 0.73410 0.27890 0.07900
C 	C 	0.16020 0.67780 0.23650 -0.15800
C 	C 	0.08540 0.68240 0.19060 0.08700
C 	C 	0.69850 0.90320 0.97220 0.07400
C 	C 	0.64560 0.95900 0.97100 -0.14200
C 	C 	0.52959 0.96998 0.99960 0.05600
C 	C 	0.46863 0.92126 0.02510 -0.14800
C 	C 	0.52876 0.86792 0.02460 0.08700
C 	C 	0.47971 0.67962 0.01180 0.08000
C 	C 	0.38623 0.61546 0.99940 -0.14900
C 	C 	0.41900 0.56320 0.95820 0.06200
C 	C 	0.54204 0.57888 0.93140 -0.14400
C 	C 	0.62783 0.64386 0.94710 0.07600
C 	C 	0.89600 0.58620 0.05880 0.07300
C 	C 	0.81744 0.52088 0.04550 -0.13600
C 	C 	0.32740 0.49320 0.94410 0.04900
C 	C 	0.38101 0.43722 0.92120 -0.13300
C 	C 	0.70702 0.62724 0.09140 0.06900
C 	C 	0.91280 0.55620 0.91450 0.09600
S 	S 	0.85401 0.78442 0.45057 -0.47300
S 	S 	0.96540 0.81672 0.59911 -0.48500
S 	S 	0.58906 0.74862 0.55141 -0.47900
S 	S 	0.65932 0.47764 0.38981 -0.08300
S 	S 	0.06959 0.21558 0.04943 -0.47000
S 	S 	0.14868 0.18328 0.90089 -0.48800
S 	S 	0.84044 0.25138 0.94859 -0.47800
S 	S 	0.18168 0.52236 0.11019 -0.08100
S 	S 	0.14599 0.21558 0.54943 -0.47300
S 	S 	0.03460 0.18328 0.40089 -0.48500
S 	S 	0.41094 0.25138 0.44859 -0.47900
S 	S 	0.34068 0.52236 0.61019 -0.08300
S 	S 	0.93041 0.78442 0.95057 -0.47000
S 	S 	0.85132 0.81672 0.09911 -0.48800
S 	S 	0.15956 0.74862 0.05141 -0.47800
S 	S 	0.81832 0.47764 0.88981 -0.08100
N 	N 	0.63336 0.61092 0.43120 -0.26700
N 	N 	0.51090 0.27740 0.59170 -0.22600
N 	N 	0.68654 0.73848 0.68550 -0.24700
N 	N 	0.21381 0.85902 0.50090 -0.24000
N 	N 	0.09389 0.69398 0.48760 -0.25100
N 	N 	0.79486 0.63992 0.58240 -0.24900
N 	N 	0.02244 0.38908 0.06880 -0.26500
N 	N 	0.23350 0.72260 0.90830 -0.22600
N 	N 	0.94806 0.26152 0.81450 -0.24700
N 	N 	0.35479 0.14098 0.99910 -0.24100
N 	N 	0.39991 0.30602 0.01240 -0.25100
N 	N 	0.15494 0.36008 0.91760 -0.25000
N 	N 	0.36664 0.38908 0.56880 -0.26700
N 	N 	0.48910 0.72260 0.40830 -0.22600
N 	N 	0.31346 0.26152 0.31450 -0.24700
N 	N 	0.78619 0.14098 0.49910 -0.24000
N 	N 	0.90611 0.30602 0.51240 -0.25100
N 	N 	0.20514 0.36008 0.41760 -0.24900
N 	N 	0.97756 0.61092 0.93120 -0.26500
N 	N 	0.76650 0.27740 0.09170 -0.22600
N 	N 	0.05194 0.73848 0.18550 -0.24700
N 	N 	0.64521 0.85902 0.00090 -0.24100
N 	N 	0.60009 0.69398 0.98760 -0.25100
N 	N 	0.84506 0.63992 0.08240 -0.25000
