data_crystal

_cell_length_a 13.00240
_cell_length_b 13.47650
_cell_length_c 19.01070
_cell_angle_alpha 76.29400
_cell_angle_beta  85.28400
_cell_angle_gamma 74.76800

_symmetry_space_group_name_	'P 1'
_symmetry_space_group_name_H-M	'P 1'

loop_
_symmetry_equiv_pos_as_xyz
  x,y,z

loop_
_atom_site_label
_atom_site_type_symbol
_atom_site_fract_x
_atom_site_fract_y
_atom_site_fract_z
_atom_site_charge
Ni	Ni	0.65211 0.76605 0.85385 1.02800
Mo	Mo	0.79623 0.18128 0.88729 1.18300
Mo	Mo	0.76880 0.14109 0.07872 1.17600
Mo	Mo	0.01807 0.02419 0.80972 1.15300
Mo	Mo	0.82182 0.86267 0.10589 1.19200
Mo	Mo	0.82894 0.90455 0.91497 1.29000
Mo	Mo	0.04440 0.72251 0.01585 1.16200
O 	O 	0.92100 0.99730 0.06260 -0.28500
O 	O 	0.95000 0.91000 0.00920 -0.29800
O 	O 	0.91880 0.10480 0.99520 -0.29000
O 	O 	0.93460 0.01860 0.92970 -0.32000
O 	O 	0.89590 0.14350 0.81940 -0.48000
O 	O 	0.75990 0.04650 0.89410 -0.47600
O 	O 	0.86550 0.08300 0.15990 -0.50400
O 	O 	0.74280 0.00950 0.09540 -0.52300
O 	O 	0.92560 0.93770 0.83620 -0.43400
O 	O 	0.93940 0.77990 0.94460 -0.44300
O 	O 	0.84900 0.24500 0.05060 -0.49900
O 	O 	0.10270 0.12010 0.82210 -0.50300
O 	O 	0.77350 0.88540 0.00650 -0.47200
O 	O 	0.75520 0.85280 0.87400 -0.52300
O 	O 	0.86420 0.27360 0.90990 -0.48200
O 	O 	0.92940 0.75010 0.08560 -0.47000
O 	O 	0.72620 0.17280 0.98450 -0.47900
N 	N 	0.60590 0.94890 0.64310 -0.04500
N 	N 	0.70560 0.95070 0.64810 -0.10600
N 	N 	0.65220 0.85270 0.74880 -0.25300
N 	N 	0.86010 0.52090 0.78010 -0.10900
N 	N 	0.93560 0.53410 0.82220 -0.10300
N 	N 	0.77840 0.65050 0.82830 -0.25700
N 	N 	0.65160 0.69220 0.96310 -0.24500
N 	N 	0.58780 0.63450 0.07380 -0.10300
N 	N 	0.68940 0.61390 0.07550 -0.10200
N 	N 	0.92890 0.22770 0.30430 -0.08600
N 	N 	0.01190 0.26190 0.32290 -0.10900
N 	N 	0.97860 0.12450 0.40740 -0.23800
N 	N 	0.06450 0.09040 0.55150 -0.26500
N 	N 	0.18190 0.14780 0.60080 -0.11700
N 	N 	0.08300 0.20890 0.60390 -0.07000
C 	C 	0.05800 0.28060 0.65920 -0.23500
H 	H 	0.12450 0.29280 0.67140 0.09100
H 	H 	0.02830 0.24480 0.70320 0.08100
C 	C 	0.91030 0.14730 0.35380 0.07700
H 	H 	0.85810 0.11230 0.35180 -0.03100
C 	C 	0.98900 0.37570 0.63270 0.15300
H 	H 	0.01680 0.40940 0.58700 -0.04100
H 	H 	0.92130 0.36370 0.62340 -0.01400
C 	C 	0.55000 0.96960 0.53030 0.24300
H 	H 	0.61770 0.98010 0.50920 -0.03300
H 	H 	0.55500 0.89440 0.54460 -0.03400
C 	C 	0.52380 0.01390 0.58780 -0.32800
H 	H 	0.52730 0.08700 0.57530 0.11600
H 	H 	0.45250 0.01060 0.60590 0.11000
C 	C 	0.96980 0.44980 0.68530 -0.19600
H 	H 	0.95030 0.52220 0.65770 0.10100
H 	H 	0.03600 0.43980 0.70920 0.06600
C 	C 	0.82200 0.39380 0.23040 -0.13800
H 	H 	0.76960 0.40140 0.26940 0.06500
H 	H 	0.87560 0.42950 0.23600 0.08700
C 	C 	0.87980 0.61070 0.85110 0.09800
H 	H 	0.90770 0.63590 0.88490 -0.00600
C 	C 	0.88780 0.43410 0.73990 0.01500
H 	H 	0.82470 0.43190 0.71710 0.01400
H 	H 	0.91260 0.36700 0.77370 0.03600
C 	C 	0.16630 0.07800 0.56810 0.08400
H 	H 	0.22150 0.02380 0.55710 -0.04300
C 	C 	0.72460 0.65080 0.01120 0.08200
H 	H 	0.79630 0.64780 0.00070 -0.02400
C 	C 	0.87310 0.27990 0.23560 -0.03000
H 	H 	0.92380 0.27260 0.19560 0.06300
H 	H 	0.81890 0.24440 0.23100 0.02500
C 	C 	0.77210 0.59000 0.78480 0.09700
H 	H 	0.71090 0.59640 0.76020 -0.03700
C 	C 	0.73250 0.89100 0.71170 0.09700
H 	H 	0.80040 0.87590 0.73010 0.00700
C 	C 	0.76770 0.44550 0.15790 -0.06600
H 	H 	0.70160 0.42490 0.15810 0.03100
H 	H 	0.81350 0.42070 0.11940 0.03700
C 	C 	0.56840 0.89420 0.70540 0.05800
H 	H 	0.49910 0.88720 0.71560 -0.02400
C 	C 	0.74500 0.56160 0.14360 -0.07000
H 	H 	0.81150 0.58190 0.14200 0.04100
H 	H 	0.70160 0.58580 0.18320 0.04200
C 	C 	0.01360 0.17270 0.57660 -0.00200
H 	H 	0.94020 0.20120 0.57550 0.02300
C 	C 	0.56500 0.68900 0.00480 0.01600
H 	H 	0.49600 0.72040 0.98840 -0.01200
C 	C 	0.03560 0.19620 0.38500 0.04700
H 	H 	0.09010 0.19890 0.41270 0.00000
Ni	Ni	0.34789 0.23395 0.14615 1.02300
Mo	Mo	0.20377 0.81872 0.11271 1.18400
Mo	Mo	0.23120 0.85891 0.92128 1.19400
Mo	Mo	0.98193 0.97581 0.19028 1.21800
Mo	Mo	0.17818 0.13733 0.89411 1.17700
Mo	Mo	0.17106 0.09545 0.08503 1.26200
Mo	Mo	0.95560 0.27749 0.98415 1.21000
O 	O 	0.07900 0.00270 0.93740 -0.33600
O 	O 	0.05000 0.09000 0.99080 -0.32400
O 	O 	0.08120 0.89520 0.00480 -0.31400
O 	O 	0.06540 0.98140 0.07030 -0.31700
O 	O 	0.10410 0.85650 0.18060 -0.49500
O 	O 	0.24010 0.95350 0.10590 -0.44200
O 	O 	0.13450 0.91700 0.84010 -0.47700
O 	O 	0.25720 0.99050 0.90460 -0.46700
O 	O 	0.07440 0.06230 0.16380 -0.50200
O 	O 	0.06060 0.22010 0.05540 -0.49300
O 	O 	0.15100 0.75500 0.94940 -0.48400
O 	O 	0.89730 0.87990 0.17790 -0.47100
O 	O 	0.22650 0.11460 0.99350 -0.47100
O 	O 	0.24480 0.14720 0.12600 -0.54300
O 	O 	0.13580 0.72640 0.09010 -0.50000
O 	O 	0.07060 0.24990 0.91440 -0.49200
O 	O 	0.27380 0.82720 0.01550 -0.49700
N 	N 	0.39410 0.05110 0.35690 -0.14400
N 	N 	0.29440 0.04930 0.35190 -0.11800
N 	N 	0.34780 0.14730 0.25120 -0.25900
N 	N 	0.13990 0.47910 0.21990 -0.10300
N 	N 	0.06440 0.46590 0.17780 -0.12200
N 	N 	0.22160 0.34950 0.17170 -0.25900
N 	N 	0.34840 0.30780 0.03690 -0.30500
N 	N 	0.41220 0.36550 0.92620 -0.11800
N 	N 	0.31060 0.38610 0.92450 -0.11200
N 	N 	0.07110 0.77230 0.69570 -0.10700
N 	N 	0.98810 0.73810 0.67710 -0.09100
N 	N 	0.02140 0.87550 0.59260 -0.26800
N 	N 	0.93550 0.90960 0.44850 -0.26200
N 	N 	0.81810 0.85220 0.39920 -0.10200
N 	N 	0.91700 0.79110 0.39610 -0.12300
C 	C 	0.94200 0.71940 0.34080 0.08800
H 	H 	0.87550 0.70720 0.32860 0.00800
H 	H 	0.97170 0.75520 0.29680 0.00600
C 	C 	0.08970 0.85270 0.64620 0.07200
H 	H 	0.14190 0.88770 0.64820 -0.01400
C 	C 	0.01100 0.62430 0.36730 -0.28300
H 	H 	0.98320 0.59060 0.41300 0.13300
H 	H 	0.07870 0.63630 0.37660 0.10000
C 	C 	0.45000 0.03040 0.46970 -0.49100
H 	H 	0.38230 0.01990 0.49080 0.16400
H 	H 	0.44500 0.10560 0.45540 0.16600
C 	C 	0.47620 0.98610 0.41220 0.28400
H 	H 	0.47270 0.91300 0.42470 -0.04900
H 	H 	0.54750 0.98940 0.39410 -0.04800
C 	C 	0.03020 0.55020 0.31470 -0.07900
H 	H 	0.04970 0.47780 0.34230 0.05000
H 	H 	0.96400 0.56020 0.29080 0.07600
C 	C 	0.17800 0.60620 0.76960 -0.12300
H 	H 	0.23040 0.59860 0.73060 0.05700
H 	H 	0.12440 0.57050 0.76400 0.06800
C 	C 	0.12020 0.38930 0.14890 0.09100
H 	H 	0.09230 0.36410 0.11510 -0.02200
C 	C 	0.11220 0.56590 0.26010 -0.06100
H 	H 	0.17530 0.56810 0.28290 0.03500
H 	H 	0.08740 0.63300 0.22630 0.04800
C 	C 	0.83370 0.92200 0.43190 0.09200
H 	H 	0.77850 0.97620 0.44290 -0.01100
C 	C 	0.27540 0.34920 0.98880 0.12500
H 	H 	0.20370 0.35220 0.99930 -0.02900
C 	C 	0.12690 0.72010 0.76440 -0.03700
H 	H 	0.07620 0.72740 0.80440 0.04900
H 	H 	0.18110 0.75560 0.76900 0.03000
C 	C 	0.22790 0.41000 0.21520 0.09000
H 	H 	0.28910 0.40360 0.23980 -0.03800
C 	C 	0.26750 0.10900 0.28830 0.09000
H 	H 	0.19960 0.12410 0.26990 -0.00400
C 	C 	0.23230 0.55450 0.84210 -0.08700
H 	H 	0.29840 0.57510 0.84190 0.04000
H 	H 	0.18650 0.57930 0.88060 0.04100
C 	C 	0.43160 0.10580 0.29460 0.06200
H 	H 	0.50090 0.11280 0.28440 -0.04500
C 	C 	0.25500 0.43840 0.85640 -0.04900
H 	H 	0.18850 0.41810 0.85800 0.02800
H 	H 	0.29840 0.41420 0.81680 0.03200
C 	C 	0.98640 0.82730 0.42340 0.13700
H 	H 	0.05980 0.79880 0.42450 -0.06300
C 	C 	0.43500 0.31100 0.99520 0.13200
H 	H 	0.50400 0.27960 0.01160 -0.08600
C 	C 	0.96440 0.80380 0.61500 0.12100
H 	H 	0.90990 0.80110 0.58730 -0.01300
Ni	Ni	-0.00000 0.00000 0.50000 0.98200
P 	P 	-0.00000 0.00000 -0.00000 0.75100
