data_crystal

_cell_length_a 11.20100
_cell_length_b 14.94300
_cell_length_c 21.48300
_cell_angle_alpha 90.00000
_cell_angle_beta  92.09600
_cell_angle_gamma 90.00000

_symmetry_space_group_name_	'P 1'
_symmetry_space_group_name_H-M	'P 1'

loop_
_symmetry_equiv_pos_as_xyz
  x,y,z

loop_
_atom_site_label
_atom_site_type_symbol
_atom_site_fract_x
_atom_site_fract_y
_atom_site_fract_z
_atom_site_charge
Ni	Ni	0.90170 0.23740 0.69967 1.03100
N 	N 	0.07550 0.15490 0.54710 -0.08900
N 	N 	0.01800 0.21370 0.63260 -0.26300
N 	N 	0.77300 0.25750 0.76120 -0.27500
N 	N 	0.64300 0.07780 0.61490 -0.10300
N 	N 	0.61940 0.22660 0.81760 -0.10000
N 	N 	0.48750 0.82580 0.76120 -0.27300
N 	N 	0.79140 0.14930 0.65820 -0.27700
N 	N 	0.40800 0.92700 0.69390 -0.09600
N 	N 	0.38100 0.94920 0.75290 -0.09200
N 	N 	0.63100 0.32020 0.81580 -0.10000
N 	N 	0.71700 0.01240 0.63580 -0.09600
N 	N 	0.16200 0.14010 0.58790 -0.09800
C 	C 	0.98900 0.19830 0.57210 0.07800
H 	H 	0.91850 0.21590 0.55150 -0.01800
C 	C 	0.70850 0.19520 0.78630 0.10100
H 	H 	0.72450 0.13440 0.78240 -0.02700
C 	C 	0.42800 0.88500 0.79180 0.08300
H 	H 	0.41820 0.88320 0.83460 -0.02100
C 	C 	0.48700 0.10000 0.83210 -0.08900
H 	H 	0.45090 0.06740 0.86540 0.04600
H 	H 	0.55230 0.06420 0.81720 0.05500
C 	C 	0.53800 0.18600 0.85850 -0.04900
H 	H 	0.47380 0.22750 0.86600 0.04900
H 	H 	0.57950 0.17380 0.89810 0.04100
C 	C 	0.80500 0.05930 0.66230 0.08400
H 	H 	0.87100 0.03280 0.68220 -0.02200
C 	C 	0.68700 0.15330 0.62780 0.11400
H 	H 	0.64900 0.20690 0.61690 -0.02800
C 	C 	0.53300 0.05500 0.57770 -0.05100
H 	H 	0.48300 0.10740 0.57370 0.04800
H 	H 	0.48910 0.00960 0.60000 0.06100
C 	C 	0.07800 0.11800 0.48290 -0.06100
H 	H 	0.15530 0.13090 0.46530 0.05800
H 	H 	0.01680 0.14650 0.45660 0.05100
C 	C 	0.47300 0.85400 0.69870 0.07500
H 	H 	0.50490 0.82430 0.66510 -0.00800
C 	C 	0.05700 0.01400 0.48580 -0.08700
H 	H 	0.05780 0.99000 0.44380 0.06100
H 	H 	0.12300 0.98670 0.50940 0.06200
C 	C 	0.72500 0.33400 0.78040 0.09000
H 	H 	0.75360 0.39080 0.77040 -0.01400
C 	C 	0.55700 0.01980 0.51360 -0.10300
H 	H 	0.61940 0.97450 0.51610 0.06800
H 	H 	0.58420 0.06820 0.48740 0.06000
C 	C 	0.39600 0.11240 0.77960 -0.10900
H 	H 	0.43570 0.12310 0.74100 0.07200
H 	H 	0.34630 0.16410 0.78790 0.05700
C 	C 	0.13100 0.17380 0.63900 0.08200
H 	H 	0.17640 0.17210 0.67590 -0.01500
C 	C 	0.31500 0.02760 0.77260 -0.04400
H 	H 	0.28010 0.01500 0.81230 0.03700
H 	H 	0.25090 0.03970 0.74240 0.04300
Ni	Ni	0.59830 0.73740 0.80033 1.03200
N 	N 	0.42450 0.65490 0.95290 -0.09100
N 	N 	0.48200 0.71370 0.86740 -0.26500
N 	N 	0.72700 0.75750 0.73880 -0.27500
N 	N 	0.85700 0.57780 0.88510 -0.10300
N 	N 	0.88060 0.72660 0.68240 -0.10000
N 	N 	0.01250 0.32580 0.73880 -0.27300
N 	N 	0.70860 0.64930 0.84180 -0.27700
N 	N 	0.09200 0.42700 0.80610 -0.09600
N 	N 	0.11900 0.44920 0.74710 -0.09200
N 	N 	0.86900 0.82020 0.68420 -0.10000
N 	N 	0.78300 0.51240 0.86420 -0.09600
N 	N 	0.33800 0.64010 0.91210 -0.09800
C 	C 	0.51100 0.69830 0.92790 0.08200
H 	H 	0.58150 0.71590 0.94850 -0.01900
C 	C 	0.79150 0.69520 0.71370 0.10200
H 	H 	0.77550 0.63440 0.71760 -0.02700
C 	C 	0.07200 0.38500 0.70820 0.08300
H 	H 	0.08180 0.38320 0.66540 -0.02100
C 	C 	0.01300 0.60000 0.66790 -0.09300
H 	H 	0.04910 0.56740 0.63460 0.04700
H 	H 	0.94770 0.56420 0.68280 0.05600
C 	C 	0.96200 0.68600 0.64150 -0.04500
H 	H 	0.02620 0.72750 0.63400 0.04700
H 	H 	0.92050 0.67380 0.60190 0.04000
C 	C 	0.69500 0.55930 0.83770 0.08400
H 	H 	0.62900 0.53280 0.81780 -0.02100
C 	C 	0.81300 0.65330 0.87220 0.11400
H 	H 	0.85100 0.70690 0.88310 -0.02800
C 	C 	0.96700 0.55500 0.92230 -0.05100
H 	H 	0.01700 0.60740 0.92630 0.04800
H 	H 	0.01090 0.50960 0.90000 0.06100
C 	C 	0.42200 0.61800 0.01710 -0.05800
H 	H 	0.34470 0.63090 0.03470 0.05700
H 	H 	0.48320 0.64650 0.04340 0.04900
C 	C 	0.02700 0.35400 0.80130 0.07800
H 	H 	0.99510 0.32430 0.83490 -0.01000
C 	C 	0.44300 0.51400 0.01420 -0.09400
H 	H 	0.44220 0.49000 0.05620 0.06500
H 	H 	0.37700 0.48670 0.99060 0.06600
C 	C 	0.77500 0.83400 0.71960 0.09000
H 	H 	0.74640 0.89080 0.72960 -0.01300
C 	C 	0.94300 0.51980 0.98640 -0.10200
H 	H 	0.88060 0.47450 0.98390 0.06700
H 	H 	0.91580 0.56820 0.01260 0.06000
C 	C 	0.10400 0.61240 0.72040 -0.10600
H 	H 	0.06430 0.62310 0.75900 0.07100
H 	H 	0.15370 0.66410 0.71210 0.05600
C 	C 	0.36900 0.67380 0.86100 0.08100
H 	H 	0.32360 0.67210 0.82410 -0.01500
C 	C 	0.18500 0.52760 0.72740 -0.04600
H 	H 	0.21990 0.51500 0.68770 0.03700
H 	H 	0.24910 0.53970 0.75760 0.04300
Ni	Ni	0.09830 0.76260 0.30033 1.03100
N 	N 	0.92450 0.84510 0.45290 -0.08900
N 	N 	0.98200 0.78630 0.36740 -0.26300
N 	N 	0.22700 0.74250 0.23880 -0.27500
N 	N 	0.35700 0.92220 0.38510 -0.10300
N 	N 	0.38060 0.77340 0.18240 -0.10000
N 	N 	0.51250 0.17420 0.23880 -0.27300
N 	N 	0.20860 0.85070 0.34180 -0.27700
N 	N 	0.59200 0.07300 0.30610 -0.09600
N 	N 	0.61900 0.05080 0.24710 -0.09200
N 	N 	0.36900 0.67980 0.18420 -0.10000
N 	N 	0.28300 0.98760 0.36420 -0.09600
N 	N 	0.83800 0.85990 0.41210 -0.09800
C 	C 	0.01100 0.80170 0.42790 0.07800
H 	H 	0.08150 0.78410 0.44850 -0.01800
C 	C 	0.29150 0.80480 0.21370 0.10100
H 	H 	0.27550 0.86560 0.21760 -0.02700
C 	C 	0.57200 0.11500 0.20820 0.08300
H 	H 	0.58180 0.11680 0.16540 -0.02100
C 	C 	0.51300 0.90000 0.16790 -0.08900
H 	H 	0.54910 0.93260 0.13460 0.04600
H 	H 	0.44770 0.93580 0.18280 0.05500
C 	C 	0.46200 0.81400 0.14150 -0.04900
H 	H 	0.52620 0.77250 0.13400 0.04900
H 	H 	0.42050 0.82620 0.10190 0.04100
C 	C 	0.19500 0.94070 0.33770 0.08400
H 	H 	0.12900 0.96720 0.31780 -0.02200
C 	C 	0.31300 0.84670 0.37220 0.11400
H 	H 	0.35100 0.79310 0.38310 -0.02800
C 	C 	0.46700 0.94500 0.42230 -0.05100
H 	H 	0.51700 0.89260 0.42630 0.04800
H 	H 	0.51090 0.99040 0.40000 0.06100
C 	C 	0.92200 0.88200 0.51710 -0.06100
H 	H 	0.84470 0.86910 0.53470 0.05800
H 	H 	0.98320 0.85350 0.54340 0.05100
C 	C 	0.52700 0.14600 0.30130 0.07500
H 	H 	0.49510 0.17570 0.33490 -0.00800
C 	C 	0.94300 0.98600 0.51420 -0.08700
H 	H 	0.94220 0.01000 0.55620 0.06100
H 	H 	0.87700 0.01330 0.49060 0.06200
C 	C 	0.27500 0.66600 0.21960 0.09000
H 	H 	0.24640 0.60920 0.22960 -0.01400
C 	C 	0.44300 0.98020 0.48640 -0.10300
H 	H 	0.38060 0.02550 0.48390 0.06800
H 	H 	0.41580 0.93180 0.51260 0.06000
C 	C 	0.60400 0.88760 0.22040 -0.10900
H 	H 	0.56430 0.87690 0.25900 0.07200
H 	H 	0.65370 0.83590 0.21210 0.05700
C 	C 	0.86900 0.82620 0.36100 0.08200
H 	H 	0.82360 0.82790 0.32410 -0.01500
C 	C 	0.68500 0.97240 0.22740 -0.04400
H 	H 	0.71990 0.98500 0.18770 0.03700
H 	H 	0.74910 0.96030 0.25760 0.04300
Ni	Ni	0.40170 0.26260 0.19967 1.03200
N 	N 	0.57550 0.34510 0.04710 -0.09100
N 	N 	0.51800 0.28630 0.13260 -0.26500
N 	N 	0.27300 0.24250 0.26120 -0.27500
N 	N 	0.14300 0.42220 0.11490 -0.10300
N 	N 	0.11940 0.27340 0.31760 -0.10000
N 	N 	0.98750 0.67420 0.26120 -0.27300
N 	N 	0.29140 0.35070 0.15820 -0.27700
N 	N 	0.90800 0.57300 0.19390 -0.09600
N 	N 	0.88100 0.55080 0.25290 -0.09200
N 	N 	0.13100 0.17980 0.31580 -0.10000
N 	N 	0.21700 0.48760 0.13580 -0.09600
N 	N 	0.66200 0.35990 0.08790 -0.09800
C 	C 	0.48900 0.30170 0.07210 0.08200
H 	H 	0.41850 0.28410 0.05150 -0.01900
C 	C 	0.20850 0.30480 0.28630 0.10200
H 	H 	0.22450 0.36560 0.28240 -0.02700
C 	C 	0.92800 0.61500 0.29180 0.08300
H 	H 	0.91820 0.61680 0.33460 -0.02100
C 	C 	0.98700 0.40000 0.33210 -0.09300
H 	H 	0.95090 0.43260 0.36540 0.04700
H 	H 	0.05230 0.43580 0.31720 0.05600
C 	C 	0.03800 0.31400 0.35850 -0.04500
H 	H 	0.97380 0.27250 0.36600 0.04700
H 	H 	0.07950 0.32620 0.39810 0.04000
C 	C 	0.30500 0.44070 0.16230 0.08400
H 	H 	0.37100 0.46720 0.18220 -0.02100
C 	C 	0.18700 0.34670 0.12780 0.11400
H 	H 	0.14900 0.29310 0.11690 -0.02800
C 	C 	0.03300 0.44500 0.07770 -0.05100
H 	H 	0.98300 0.39260 0.07370 0.04800
H 	H 	0.98910 0.49040 0.10000 0.06100
C 	C 	0.57800 0.38200 0.98290 -0.05800
H 	H 	0.65530 0.36910 0.96530 0.05700
H 	H 	0.51680 0.35350 0.95660 0.04900
C 	C 	0.97300 0.64600 0.19870 0.07800
H 	H 	0.00490 0.67570 0.16510 -0.01000
C 	C 	0.55700 0.48600 0.98580 -0.09400
H 	H 	0.55780 0.51000 0.94380 0.06500
H 	H 	0.62300 0.51330 0.00940 0.06600
C 	C 	0.22500 0.16600 0.28040 0.09000
H 	H 	0.25360 0.10920 0.27040 -0.01300
C 	C 	0.05700 0.48020 0.01360 -0.10200
H 	H 	0.11940 0.52550 0.01610 0.06700
H 	H 	0.08420 0.43180 0.98740 0.06000
C 	C 	0.89600 0.38760 0.27960 -0.10600
H 	H 	0.93570 0.37690 0.24100 0.07100
H 	H 	0.84630 0.33590 0.28790 0.05600
C 	C 	0.63100 0.32620 0.13900 0.08100
H 	H 	0.67640 0.32790 0.17590 -0.01500
C 	C 	0.81500 0.47240 0.27260 -0.04600
H 	H 	0.78010 0.48500 0.31230 0.03700
H 	H 	0.75090 0.46030 0.24240 0.04300
