data_crystal

_cell_length_a 19.15010
_cell_length_b 19.15010
_cell_length_c 11.11900
_cell_angle_alpha 90.00000
_cell_angle_beta  90.00000
_cell_angle_gamma 90.00000

_symmetry_space_group_name_	'P 1'
_symmetry_space_group_name_H-M	'P 1'

loop_
_symmetry_equiv_pos_as_xyz
  x,y,z

loop_
_atom_site_label
_atom_site_type_symbol
_atom_site_fract_x
_atom_site_fract_y
_atom_site_fract_z
_atom_site_charge
C 	C 	0.57920 0.30920 0.24230 0.09000
H 	H 	0.59410 0.35110 0.27590 0.00700
C 	C 	0.53430 0.31190 0.14580 -0.13800
C 	C 	0.51590 0.38160 0.09210 0.38100
O 	O 	0.48380 0.38150 0.99430 -0.40300
O 	O 	0.53640 0.43400 0.14980 -0.41100
C 	C 	0.92080 0.19080 0.24230 0.09100
H 	H 	0.90590 0.14890 0.27590 0.00600
C 	C 	0.96570 0.18810 0.14580 -0.13900
C 	C 	0.98410 0.11840 0.09210 0.38300
O 	O 	0.01620 0.11850 0.99430 -0.40400
O 	O 	0.96360 0.06600 0.14980 -0.41100
C 	C 	0.19080 0.57920 0.24230 0.09000
H 	H 	0.14890 0.59410 0.27590 0.00700
C 	C 	0.18810 0.53430 0.14580 -0.13800
C 	C 	0.11840 0.51590 0.09210 0.38100
O 	O 	0.11850 0.48380 0.99430 -0.40300
O 	O 	0.06600 0.53640 0.14980 -0.41100
C 	C 	0.30920 0.92080 0.24230 0.09100
H 	H 	0.35110 0.90590 0.27590 0.00600
C 	C 	0.31190 0.96570 0.14580 -0.13900
C 	C 	0.38160 0.98410 0.09210 0.38200
O 	O 	0.38150 0.01620 0.99430 -0.40400
O 	O 	0.43400 0.96360 0.14980 -0.41100
C 	C 	0.42080 0.80920 0.75770 0.09000
H 	H 	0.40590 0.85110 0.72410 0.00700
C 	C 	0.46570 0.81190 0.85420 -0.13800
C 	C 	0.48410 0.88160 0.90790 0.38100
O 	O 	0.51620 0.88150 0.00570 -0.40300
O 	O 	0.46360 0.93400 0.85020 -0.41100
C 	C 	0.07920 0.69080 0.75770 0.09100
H 	H 	0.09410 0.64890 0.72410 0.00600
C 	C 	0.03430 0.68810 0.85420 -0.13900
C 	C 	0.01590 0.61840 0.90790 0.38200
O 	O 	0.98380 0.61850 0.00570 -0.40400
O 	O 	0.03640 0.56600 0.85020 -0.41100
C 	C 	0.80920 0.07920 0.75770 0.09100
H 	H 	0.85110 0.09410 0.72410 0.00600
C 	C 	0.81190 0.03430 0.85420 -0.13900
C 	C 	0.88160 0.01590 0.90790 0.38300
O 	O 	0.88150 0.98380 0.00570 -0.40400
O 	O 	0.93400 0.03640 0.85020 -0.41100
C 	C 	0.69080 0.42080 0.75770 0.09000
H 	H 	0.64890 0.40590 0.72410 0.00700
C 	C 	0.68810 0.46570 0.85420 -0.13800
C 	C 	0.61840 0.48410 0.90790 0.38100
O 	O 	0.61850 0.51620 0.00570 -0.40300
O 	O 	0.56600 0.46360 0.85020 -0.41100
C 	C 	0.42080 0.69080 0.75770 0.09000
H 	H 	0.40590 0.64890 0.72410 0.00700
C 	C 	0.46570 0.68810 0.85420 -0.13800
C 	C 	0.48410 0.61840 0.90790 0.38100
O 	O 	0.51620 0.61850 0.00570 -0.40300
O 	O 	0.46360 0.56600 0.85020 -0.41100
C 	C 	0.07920 0.80920 0.75770 0.09100
H 	H 	0.09410 0.85110 0.72410 0.00600
C 	C 	0.03430 0.81190 0.85420 -0.13900
C 	C 	0.01590 0.88160 0.90790 0.38300
O 	O 	0.98380 0.88150 0.00570 -0.40400
O 	O 	0.03640 0.93400 0.85020 -0.41100
C 	C 	0.80920 0.42080 0.75770 0.09000
H 	H 	0.85110 0.40590 0.72410 0.00700
C 	C 	0.81190 0.46570 0.85420 -0.13800
C 	C 	0.88160 0.48410 0.90790 0.38100
O 	O 	0.88150 0.51620 0.00570 -0.40300
O 	O 	0.93400 0.46360 0.85020 -0.41100
C 	C 	0.69080 0.07920 0.75770 0.09100
H 	H 	0.64890 0.09410 0.72410 0.00600
C 	C 	0.68810 0.03430 0.85420 -0.13900
C 	C 	0.61840 0.01590 0.90790 0.38200
O 	O 	0.61850 0.98380 0.00570 -0.40400
O 	O 	0.56600 0.03640 0.85020 -0.41100
C 	C 	0.57920 0.19080 0.24230 0.09000
H 	H 	0.59410 0.14890 0.27590 0.00700
C 	C 	0.53430 0.18810 0.14580 -0.13800
C 	C 	0.51590 0.11840 0.09210 0.38100
O 	O 	0.48380 0.11850 0.99430 -0.40300
O 	O 	0.53640 0.06600 0.14980 -0.41100
C 	C 	0.92080 0.30920 0.24230 0.09100
H 	H 	0.90590 0.35110 0.27590 0.00600
C 	C 	0.96570 0.31190 0.14580 -0.13900
C 	C 	0.98410 0.38160 0.09210 0.38200
O 	O 	0.01620 0.38150 0.99430 -0.40400
O 	O 	0.96360 0.43400 0.14980 -0.41100
C 	C 	0.19080 0.92080 0.24230 0.09100
H 	H 	0.14890 0.90590 0.27590 0.00600
C 	C 	0.18810 0.96570 0.14580 -0.13900
C 	C 	0.11840 0.98410 0.09210 0.38300
O 	O 	0.11850 0.01620 0.99430 -0.40400
O 	O 	0.06600 0.96360 0.14980 -0.41100
C 	C 	0.30920 0.57920 0.24230 0.09000
H 	H 	0.35110 0.59410 0.27590 0.00700
C 	C 	0.31190 0.53430 0.14580 -0.13800
C 	C 	0.38160 0.51590 0.09210 0.38100
O 	O 	0.38150 0.48380 0.99430 -0.40300
O 	O 	0.43400 0.53640 0.14980 -0.41100
C 	C 	0.51170 0.25000 0.09580 0.08500
H 	H 	0.48190 0.25000 0.02970 0.03700
Cu	Cu	0.68080 0.25000 0.41440 0.72000
I 	I 	0.62920 0.25000 0.63430 -0.56100
N 	N 	0.60240 0.25000 0.29030 -0.24200
C 	C 	0.98830 0.25000 0.09580 0.08800
H 	H 	0.01810 0.25000 0.02970 0.03600
Cu	Cu	0.81920 0.25000 0.41440 0.72000
I 	I 	0.87080 0.25000 0.63430 -0.56100
N 	N 	0.89760 0.25000 0.29030 -0.24200
C 	C 	0.25000 0.51170 0.09580 0.08500
H 	H 	0.25000 0.48190 0.02970 0.03700
Cu	Cu	0.25000 0.68080 0.41440 0.72000
I 	I 	0.25000 0.62920 0.63430 -0.56100
N 	N 	0.25000 0.60240 0.29030 -0.24200
C 	C 	0.25000 0.98830 0.09580 0.08800
H 	H 	0.25000 0.01810 0.02970 0.03600
Cu	Cu	0.25000 0.81920 0.41440 0.72000
I 	I 	0.25000 0.87080 0.63430 -0.56100
N 	N 	0.25000 0.89760 0.29030 -0.24200
C 	C 	0.48830 0.75000 0.90420 0.08500
H 	H 	0.51810 0.75000 0.97030 0.03700
Cu	Cu	0.31920 0.75000 0.58560 0.72000
I 	I 	0.37080 0.75000 0.36570 -0.56100
N 	N 	0.39760 0.75000 0.70970 -0.24200
C 	C 	0.01170 0.75000 0.90420 0.08800
H 	H 	0.98190 0.75000 0.97030 0.03600
Cu	Cu	0.18080 0.75000 0.58560 0.72000
I 	I 	0.12920 0.75000 0.36570 -0.56100
N 	N 	0.10240 0.75000 0.70970 -0.24200
C 	C 	0.75000 0.01170 0.90420 0.08800
H 	H 	0.75000 0.98190 0.97030 0.03600
Cu	Cu	0.75000 0.18080 0.58560 0.72000
I 	I 	0.75000 0.12920 0.36570 -0.56100
N 	N 	0.75000 0.10240 0.70970 -0.24200
C 	C 	0.75000 0.48830 0.90420 0.08500
H 	H 	0.75000 0.51810 0.97030 0.03700
Cu	Cu	0.75000 0.31920 0.58560 0.72000
I 	I 	0.75000 0.37080 0.36570 -0.56100
N 	N 	0.75000 0.39760 0.70970 -0.24200
Cu	Cu	0.53090 0.53090 0.09340 0.90800
Cu	Cu	0.96910 0.96910 0.09340 0.90800
Cu	Cu	0.96910 0.53090 0.09340 0.90900
Cu	Cu	0.53090 0.96910 0.09340 0.90900
Cu	Cu	0.46910 0.03090 0.90660 0.90900
Cu	Cu	0.03090 0.46910 0.90660 0.90900
Cu	Cu	0.03090 0.03090 0.90660 0.90800
Cu	Cu	0.46910 0.46910 0.90660 0.90800
