data_crystal

_cell_length_a 18.83170
_cell_length_b 18.83170
_cell_length_c 38.56980
_cell_angle_alpha 90.00000
_cell_angle_beta  90.00000
_cell_angle_gamma 120.00000

_symmetry_space_group_name_	'P 1'
_symmetry_space_group_name_H-M	'P 1'

loop_
_symmetry_equiv_pos_as_xyz
  x,y,z

loop_
_atom_site_label
_atom_site_type_symbol
_atom_site_fract_x
_atom_site_fract_y
_atom_site_fract_z
_atom_site_charge
O 	O 	0.55552 0.70306 0.33002 -0.46000
O 	O 	0.63282 0.74215 0.37719 -0.47000
C 	C 	0.57150 0.69340 0.36081 0.41100
C 	C 	0.52830 0.59870 0.41126 -0.00300
H 	H 	0.57630 0.63640 0.42240 0.04900
C 	C 	0.51390 0.61360 0.37744 -0.11200
C 	C 	0.45410 0.44210 0.47940 -0.10900
C 	C 	0.53760 0.71090 0.23750 0.25700
C 	C 	0.51170 0.69820 0.20380 -0.46000
H 	H 	0.54850 0.67250 0.24760 -0.05800
H 	H 	0.50510 0.65280 0.19140 0.19400
H 	H 	0.36200 0.45900 0.50300 0.01700
H 	H 	0.44320 0.39110 0.46800 0.05500
C 	C 	0.41910 0.48280 0.48990 0.02200
O 	O 	0.22219 0.03639 0.66335 -0.46000
O 	O 	0.29949 0.07548 0.71052 -0.47000
C 	C 	0.23817 0.02673 0.69414 0.41100
C 	C 	0.19497 0.93203 0.74459 -0.00300
H 	H 	0.24297 0.96973 0.75573 0.04900
C 	C 	0.18057 0.94693 0.71077 -0.11200
C 	C 	0.12077 0.77543 0.81273 -0.10900
C 	C 	0.20427 0.04423 0.57083 0.25700
C 	C 	0.17837 0.03153 0.53713 -0.46000
H 	H 	0.21517 0.00583 0.58093 -0.05800
H 	H 	0.17177 0.98613 0.52473 0.19400
H 	H 	0.02867 0.79233 0.83633 0.01700
H 	H 	0.10987 0.72443 0.80133 0.05500
C 	C 	0.08577 0.81613 0.82323 0.02200
O 	O 	0.88885 0.36973 0.99669 -0.46000
O 	O 	0.96615 0.40882 0.04386 -0.47000
C 	C 	0.90483 0.36007 0.02748 0.41100
C 	C 	0.86163 0.26537 0.07793 -0.00300
H 	H 	0.90963 0.30307 0.08907 0.04900
C 	C 	0.84723 0.28027 0.04411 -0.11300
C 	C 	0.78743 0.10877 0.14607 -0.10900
C 	C 	0.87093 0.37757 0.90417 0.25700
C 	C 	0.84503 0.36487 0.87047 -0.46000
H 	H 	0.88183 0.33917 0.91427 -0.05800
H 	H 	0.83843 0.31947 0.85807 0.19400
H 	H 	0.69533 0.12567 0.16967 0.01700
H 	H 	0.77653 0.05777 0.13467 0.05500
C 	C 	0.75243 0.14947 0.15657 0.02200
O 	O 	0.29694 0.85246 0.33002 -0.46000
O 	O 	0.25785 0.89067 0.37719 -0.47000
C 	C 	0.30660 0.87810 0.36081 0.41000
C 	C 	0.40130 0.92960 0.41126 -0.00400
H 	H 	0.36360 0.93990 0.42240 0.04800
C 	C 	0.38640 0.90030 0.37744 -0.11400
C 	C 	0.55790 0.01200 0.47940 -0.11000
C 	C 	0.28910 0.82670 0.23750 0.25600
C 	C 	0.30180 0.81350 0.20380 -0.46100
H 	H 	0.32750 0.87600 0.24760 -0.05900
H 	H 	0.34720 0.85230 0.19140 0.19300
H 	H 	0.54100 0.90300 0.50300 0.01600
H 	H 	0.60890 0.05210 0.46800 0.05400
C 	C 	0.51720 0.93630 0.48990 0.02100
O 	O 	0.96361 0.18579 0.66335 -0.46100
O 	O 	0.92452 0.22400 0.71052 -0.47100
C 	C 	0.97327 0.21143 0.69414 0.41000
C 	C 	0.06797 0.26293 0.74459 -0.00400
H 	H 	0.03027 0.27323 0.75573 0.04800
C 	C 	0.05307 0.23363 0.71077 -0.11300
C 	C 	0.22457 0.34533 0.81273 -0.11000
C 	C 	0.95577 0.16003 0.57083 0.25700
C 	C 	0.96847 0.14683 0.53713 -0.46200
H 	H 	0.99417 0.20933 0.58093 -0.05900
H 	H 	0.01387 0.18563 0.52473 0.19300
H 	H 	0.20767 0.23633 0.83633 0.01600
H 	H 	0.27557 0.38543 0.80133 0.05400
C 	C 	0.18387 0.26963 0.82323 0.02100
O 	O 	0.63027 0.51913 0.99669 -0.46100
O 	O 	0.59118 0.55734 0.04386 -0.47100
C 	C 	0.63993 0.54477 0.02748 0.41000
C 	C 	0.73463 0.59627 0.07793 -0.00400
H 	H 	0.69693 0.60657 0.08907 0.04800
C 	C 	0.71973 0.56697 0.04411 -0.11400
C 	C 	0.89123 0.67867 0.14607 -0.11000
C 	C 	0.62243 0.49337 0.90417 0.25600
C 	C 	0.63513 0.48017 0.87047 -0.46100
H 	H 	0.66083 0.54267 0.91427 -0.05900
H 	H 	0.68053 0.51897 0.85807 0.19300
H 	H 	0.87433 0.56967 0.16967 0.01600
H 	H 	0.94223 0.71877 0.13467 0.05400
C 	C 	0.85053 0.60297 0.15657 0.02100
O 	O 	0.14754 0.44448 0.33002 -0.46100
O 	O 	0.10933 0.36718 0.37719 -0.47100
C 	C 	0.12190 0.42850 0.36081 0.41000
C 	C 	0.07040 0.47170 0.41126 -0.00400
H 	H 	0.06010 0.42370 0.42240 0.04800
C 	C 	0.09970 0.48610 0.37744 -0.11400
C 	C 	0.98800 0.54590 0.47940 -0.11000
C 	C 	0.17330 0.46240 0.23750 0.25600
C 	C 	0.18650 0.48830 0.20380 -0.46100
H 	H 	0.12400 0.45150 0.24760 -0.05900
H 	H 	0.14770 0.49490 0.19140 0.19300
H 	H 	0.09700 0.63800 0.50300 0.01600
H 	H 	0.94790 0.55680 0.46800 0.05400
C 	C 	0.06370 0.58090 0.48990 0.02100
O 	O 	0.81421 0.77781 0.66335 -0.46100
O 	O 	0.77600 0.70051 0.71052 -0.47100
C 	C 	0.78857 0.76183 0.69414 0.41000
C 	C 	0.73707 0.80503 0.74459 -0.00400
H 	H 	0.72677 0.75703 0.75573 0.04800
C 	C 	0.76637 0.81943 0.71077 -0.11300
C 	C 	0.65467 0.87923 0.81273 -0.11000
C 	C 	0.83997 0.79573 0.57083 0.25600
C 	C 	0.85317 0.82163 0.53713 -0.46100
H 	H 	0.79067 0.78483 0.58093 -0.05900
H 	H 	0.81437 0.82823 0.52473 0.19300
H 	H 	0.76367 0.97133 0.83633 0.01600
H 	H 	0.61457 0.89013 0.80133 0.05400
C 	C 	0.73037 0.91423 0.82323 0.02100
O 	O 	0.48087 0.11115 0.99669 -0.46100
O 	O 	0.44266 0.03385 0.04386 -0.47100
C 	C 	0.45523 0.09517 0.02748 0.41000
C 	C 	0.40373 0.13837 0.07793 -0.00400
H 	H 	0.39343 0.09037 0.08907 0.04800
C 	C 	0.43303 0.15277 0.04411 -0.11400
C 	C 	0.32133 0.21257 0.14607 -0.11000
C 	C 	0.50663 0.12907 0.90417 0.25600
C 	C 	0.51983 0.15497 0.87047 -0.46100
H 	H 	0.45733 0.11817 0.91427 -0.05900
H 	H 	0.48103 0.16157 0.85807 0.19300
H 	H 	0.43033 0.30467 0.16967 0.01600
H 	H 	0.28123 0.22347 0.13467 0.05400
C 	C 	0.39703 0.24757 0.15657 0.02100
O 	O 	0.70306 0.55552 0.66998 -0.46100
O 	O 	0.74215 0.63282 0.62281 -0.47100
C 	C 	0.69340 0.57150 0.63919 0.41000
C 	C 	0.59870 0.52830 0.58874 -0.00400
H 	H 	0.63640 0.57630 0.57760 0.04800
C 	C 	0.61360 0.51390 0.62256 -0.11300
C 	C 	0.44210 0.45410 0.52060 -0.11000
C 	C 	0.71090 0.53760 0.76250 0.25600
C 	C 	0.69820 0.51170 0.79620 -0.46100
H 	H 	0.67250 0.54850 0.75240 -0.05900
H 	H 	0.65280 0.50510 0.80860 0.19300
H 	H 	0.45900 0.36200 0.49700 0.01600
H 	H 	0.39110 0.44320 0.53200 0.05400
C 	C 	0.48280 0.41910 0.51010 0.02100
O 	O 	0.36973 0.88885 0.00331 -0.46100
O 	O 	0.40882 0.96615 0.95614 -0.47100
C 	C 	0.36007 0.90483 0.97252 0.41000
C 	C 	0.26537 0.86163 0.92207 -0.00400
H 	H 	0.30307 0.90963 0.91093 0.04800
C 	C 	0.28027 0.84723 0.95589 -0.11400
C 	C 	0.10877 0.78743 0.85393 -0.11000
C 	C 	0.37757 0.87093 0.09583 0.25600
C 	C 	0.36487 0.84503 0.12953 -0.46100
H 	H 	0.33917 0.88183 0.08573 -0.05900
H 	H 	0.31947 0.83843 0.14193 0.19300
H 	H 	0.12567 0.69533 0.83033 0.01600
H 	H 	0.05777 0.77653 0.86533 0.05400
C 	C 	0.14947 0.75243 0.84343 0.02100
O 	O 	0.03639 0.22219 0.33665 -0.46100
O 	O 	0.07548 0.29949 0.28948 -0.47100
C 	C 	0.02673 0.23817 0.30586 0.41000
C 	C 	0.93203 0.19497 0.25541 -0.00400
H 	H 	0.96973 0.24297 0.24427 0.04800
C 	C 	0.94693 0.18057 0.28923 -0.11300
C 	C 	0.77543 0.12077 0.18727 -0.11000
C 	C 	0.04423 0.20427 0.42917 0.25600
C 	C 	0.03153 0.17837 0.46287 -0.46100
H 	H 	0.00583 0.21517 0.41907 -0.05900
H 	H 	0.98613 0.17177 0.47527 0.19300
H 	H 	0.79233 0.02867 0.16367 0.01600
H 	H 	0.72443 0.10987 0.19867 0.05400
C 	C 	0.81613 0.08577 0.17677 0.02100
O 	O 	0.85246 0.29694 0.66998 -0.46100
O 	O 	0.89067 0.25785 0.62281 -0.47100
C 	C 	0.87810 0.30660 0.63919 0.41000
C 	C 	0.92960 0.40130 0.58874 -0.00400
H 	H 	0.93990 0.36360 0.57760 0.04800
C 	C 	0.90030 0.38640 0.62256 -0.11400
C 	C 	0.01200 0.55790 0.52060 -0.11000
C 	C 	0.82670 0.28910 0.76250 0.25600
C 	C 	0.81350 0.30180 0.79620 -0.46100
H 	H 	0.87600 0.32750 0.75240 -0.05900
H 	H 	0.85230 0.34720 0.80860 0.19300
H 	H 	0.90300 0.54100 0.49700 0.01600
H 	H 	0.05210 0.60890 0.53200 0.05400
C 	C 	0.93630 0.51720 0.51010 0.02100
O 	O 	0.51913 0.63027 0.00331 -0.46100
O 	O 	0.55734 0.59118 0.95614 -0.47100
C 	C 	0.54477 0.63993 0.97252 0.41000
C 	C 	0.59627 0.73463 0.92207 -0.00400
H 	H 	0.60657 0.69693 0.91093 0.04800
C 	C 	0.56697 0.71973 0.95589 -0.11400
C 	C 	0.67867 0.89123 0.85393 -0.11000
C 	C 	0.49337 0.62243 0.09583 0.25600
C 	C 	0.48017 0.63513 0.12953 -0.46100
H 	H 	0.54267 0.66083 0.08573 -0.05900
H 	H 	0.51897 0.68053 0.14193 0.19300
H 	H 	0.56967 0.87433 0.83033 0.01600
H 	H 	0.71877 0.94223 0.86533 0.05400
C 	C 	0.60297 0.85053 0.84343 0.02100
O 	O 	0.18579 0.96361 0.33665 -0.46100
O 	O 	0.22400 0.92452 0.28948 -0.47100
C 	C 	0.21143 0.97327 0.30586 0.41000
C 	C 	0.26293 0.06797 0.25541 -0.00400
H 	H 	0.27323 0.03027 0.24427 0.04800
C 	C 	0.23363 0.05307 0.28923 -0.11300
C 	C 	0.34533 0.22457 0.18727 -0.11000
C 	C 	0.16003 0.95577 0.42917 0.25700
C 	C 	0.14683 0.96847 0.46287 -0.46200
H 	H 	0.20933 0.99417 0.41907 -0.05900
H 	H 	0.18563 0.01387 0.47527 0.19300
H 	H 	0.23633 0.20767 0.16367 0.01600
H 	H 	0.38543 0.27557 0.19867 0.05400
C 	C 	0.26963 0.18387 0.17677 0.02100
O 	O 	0.44448 0.14754 0.66998 -0.46100
O 	O 	0.36718 0.10933 0.62281 -0.47100
C 	C 	0.42850 0.12190 0.63919 0.41000
C 	C 	0.47170 0.07040 0.58874 -0.00400
H 	H 	0.42370 0.06010 0.57760 0.04800
C 	C 	0.48610 0.09970 0.62256 -0.11400
C 	C 	0.54590 0.98800 0.52060 -0.11000
C 	C 	0.46240 0.17330 0.76250 0.25600
C 	C 	0.48830 0.18650 0.79620 -0.46100
H 	H 	0.45150 0.12400 0.75240 -0.05900
H 	H 	0.49490 0.14770 0.80860 0.19300
H 	H 	0.63800 0.09700 0.49700 0.01600
H 	H 	0.55680 0.94790 0.53200 0.05400
C 	C 	0.58090 0.06370 0.51010 0.02100
O 	O 	0.11115 0.48087 0.00331 -0.46100
O 	O 	0.03385 0.44266 0.95614 -0.47100
C 	C 	0.09517 0.45523 0.97252 0.41000
C 	C 	0.13837 0.40373 0.92207 -0.00400
H 	H 	0.09037 0.39343 0.91093 0.04800
C 	C 	0.15277 0.43303 0.95589 -0.11400
C 	C 	0.21257 0.32133 0.85393 -0.11000
C 	C 	0.12907 0.50663 0.09583 0.25600
C 	C 	0.15497 0.51983 0.12953 -0.46100
H 	H 	0.11817 0.45733 0.08573 -0.05900
H 	H 	0.16157 0.48103 0.14193 0.19300
H 	H 	0.30467 0.43033 0.83033 0.01600
H 	H 	0.22347 0.28123 0.86533 0.05400
C 	C 	0.24757 0.39703 0.84343 0.02100
O 	O 	0.77781 0.81421 0.33665 -0.46100
O 	O 	0.70051 0.77600 0.28948 -0.47100
C 	C 	0.76183 0.78857 0.30586 0.41000
C 	C 	0.80503 0.73707 0.25541 -0.00400
H 	H 	0.75703 0.72677 0.24427 0.04800
C 	C 	0.81943 0.76637 0.28923 -0.11300
C 	C 	0.87923 0.65467 0.18727 -0.11000
C 	C 	0.79573 0.83997 0.42917 0.25600
C 	C 	0.82163 0.85317 0.46287 -0.46100
H 	H 	0.78483 0.79067 0.41907 -0.05900
H 	H 	0.82823 0.81437 0.47527 0.19300
H 	H 	0.97133 0.76367 0.16367 0.01600
H 	H 	0.89013 0.61457 0.19867 0.05400
C 	C 	0.91423 0.73037 0.17677 0.02100
O 	O 	0.44448 0.29694 0.66998 -0.46100
O 	O 	0.36718 0.25785 0.62281 -0.47100
C 	C 	0.42850 0.30660 0.63919 0.41000
C 	C 	0.47170 0.40130 0.58874 -0.00400
H 	H 	0.42370 0.36360 0.57760 0.04800
C 	C 	0.48610 0.38640 0.62256 -0.11300
C 	C 	0.54590 0.55790 0.52060 -0.11000
C 	C 	0.46240 0.28910 0.76250 0.25600
C 	C 	0.48830 0.30180 0.79620 -0.46100
H 	H 	0.45150 0.32750 0.75240 -0.05900
H 	H 	0.49490 0.34720 0.80860 0.19300
H 	H 	0.63800 0.54100 0.49700 0.01600
H 	H 	0.55680 0.60890 0.53200 0.05400
C 	C 	0.58090 0.51720 0.51010 0.02100
O 	O 	0.11115 0.63027 0.00331 -0.46100
O 	O 	0.03385 0.59118 0.95614 -0.47100
C 	C 	0.09517 0.63993 0.97252 0.41000
C 	C 	0.13837 0.73463 0.92207 -0.00400
H 	H 	0.09037 0.69693 0.91093 0.04800
C 	C 	0.15277 0.71973 0.95589 -0.11400
C 	C 	0.21257 0.89123 0.85393 -0.11000
C 	C 	0.12907 0.62243 0.09583 0.25600
C 	C 	0.15497 0.63513 0.12953 -0.46100
H 	H 	0.11817 0.66083 0.08573 -0.05900
H 	H 	0.16157 0.68053 0.14193 0.19300
H 	H 	0.30467 0.87433 0.83033 0.01600
H 	H 	0.22347 0.94223 0.86533 0.05400
C 	C 	0.24757 0.85053 0.84343 0.02100
O 	O 	0.77781 0.96361 0.33665 -0.46100
O 	O 	0.70051 0.92452 0.28948 -0.47100
C 	C 	0.76183 0.97327 0.30586 0.41000
C 	C 	0.80503 0.06797 0.25541 -0.00400
H 	H 	0.75703 0.03027 0.24427 0.04800
C 	C 	0.81943 0.05307 0.28923 -0.11300
C 	C 	0.87923 0.22457 0.18727 -0.11000
C 	C 	0.79573 0.95577 0.42917 0.25600
C 	C 	0.82163 0.96847 0.46287 -0.46100
H 	H 	0.78483 0.99417 0.41907 -0.05900
H 	H 	0.82823 0.01387 0.47527 0.19300
H 	H 	0.97133 0.20767 0.16367 0.01600
H 	H 	0.89013 0.27557 0.19867 0.05400
C 	C 	0.91423 0.18387 0.17677 0.02100
O 	O 	0.70306 0.14754 0.66998 -0.46100
O 	O 	0.74215 0.10933 0.62281 -0.47100
C 	C 	0.69340 0.12190 0.63919 0.41000
C 	C 	0.59870 0.07040 0.58874 -0.00400
H 	H 	0.63640 0.06010 0.57760 0.04800
C 	C 	0.61360 0.09970 0.62256 -0.11400
C 	C 	0.44210 0.98800 0.52060 -0.11000
C 	C 	0.71090 0.17330 0.76250 0.25600
C 	C 	0.69820 0.18650 0.79620 -0.46100
H 	H 	0.67250 0.12400 0.75240 -0.05900
H 	H 	0.65280 0.14770 0.80860 0.19300
H 	H 	0.45900 0.09700 0.49700 0.01600
H 	H 	0.39110 0.94790 0.53200 0.05400
C 	C 	0.48280 0.06370 0.51010 0.02100
O 	O 	0.36973 0.48087 0.00331 -0.46100
O 	O 	0.40882 0.44266 0.95614 -0.47100
C 	C 	0.36007 0.45523 0.97252 0.41000
C 	C 	0.26537 0.40373 0.92207 -0.00400
H 	H 	0.30307 0.39343 0.91093 0.04800
C 	C 	0.28027 0.43303 0.95589 -0.11400
C 	C 	0.10877 0.32133 0.85393 -0.11000
C 	C 	0.37757 0.50663 0.09583 0.25600
C 	C 	0.36487 0.51983 0.12953 -0.46100
H 	H 	0.33917 0.45733 0.08573 -0.05900
H 	H 	0.31947 0.48103 0.14193 0.19300
H 	H 	0.12567 0.43033 0.83033 0.01600
H 	H 	0.05777 0.28123 0.86533 0.05400
C 	C 	0.14947 0.39703 0.84343 0.02100
O 	O 	0.03639 0.81421 0.33665 -0.46100
O 	O 	0.07548 0.77600 0.28948 -0.47100
C 	C 	0.02673 0.78857 0.30586 0.41000
C 	C 	0.93203 0.73707 0.25541 -0.00400
H 	H 	0.96973 0.72677 0.24427 0.04800
C 	C 	0.94693 0.76637 0.28923 -0.11300
C 	C 	0.77543 0.65467 0.18727 -0.11000
C 	C 	0.04423 0.83997 0.42917 0.25700
C 	C 	0.03153 0.85317 0.46287 -0.46200
H 	H 	0.00583 0.79067 0.41907 -0.05900
H 	H 	0.98613 0.81437 0.47527 0.19300
H 	H 	0.79233 0.76367 0.16367 0.01600
H 	H 	0.72443 0.61457 0.19867 0.05400
C 	C 	0.81613 0.73037 0.17677 0.02100
O 	O 	0.85246 0.55552 0.66998 -0.46100
O 	O 	0.89067 0.63282 0.62281 -0.47100
C 	C 	0.87810 0.57150 0.63919 0.41000
C 	C 	0.92960 0.52830 0.58874 -0.00400
H 	H 	0.93990 0.57630 0.57760 0.04800
C 	C 	0.90030 0.51390 0.62256 -0.11400
C 	C 	0.01200 0.45410 0.52060 -0.11000
C 	C 	0.82670 0.53760 0.76250 0.25600
C 	C 	0.81350 0.51170 0.79620 -0.46100
H 	H 	0.87600 0.54850 0.75240 -0.05900
H 	H 	0.85230 0.50510 0.80860 0.19300
H 	H 	0.90300 0.36200 0.49700 0.01600
H 	H 	0.05210 0.44320 0.53200 0.05400
C 	C 	0.93630 0.41910 0.51010 0.02100
O 	O 	0.51913 0.88885 0.00331 -0.46100
O 	O 	0.55734 0.96615 0.95614 -0.47100
C 	C 	0.54477 0.90483 0.97252 0.41000
C 	C 	0.59627 0.86163 0.92207 -0.00400
H 	H 	0.60657 0.90963 0.91093 0.04800
C 	C 	0.56697 0.84723 0.95589 -0.11400
C 	C 	0.67867 0.78743 0.85393 -0.11000
C 	C 	0.49337 0.87093 0.09583 0.25600
C 	C 	0.48017 0.84503 0.12953 -0.46100
H 	H 	0.54267 0.88183 0.08573 -0.05900
H 	H 	0.51897 0.83843 0.14193 0.19300
H 	H 	0.56967 0.69533 0.83033 0.01600
H 	H 	0.71877 0.77653 0.86533 0.05400
C 	C 	0.60297 0.75243 0.84343 0.02100
O 	O 	0.18579 0.22219 0.33665 -0.46100
O 	O 	0.22400 0.29949 0.28948 -0.47100
C 	C 	0.21143 0.23817 0.30586 0.41000
C 	C 	0.26293 0.19497 0.25541 -0.00400
H 	H 	0.27323 0.24297 0.24427 0.04800
C 	C 	0.23363 0.18057 0.28923 -0.11300
C 	C 	0.34533 0.12077 0.18727 -0.11000
C 	C 	0.16003 0.20427 0.42917 0.25600
C 	C 	0.14683 0.17837 0.46287 -0.46100
H 	H 	0.20933 0.21517 0.41907 -0.05900
H 	H 	0.18563 0.17177 0.47527 0.19300
H 	H 	0.23633 0.02867 0.16367 0.01600
H 	H 	0.38543 0.10987 0.19867 0.05400
C 	C 	0.26963 0.08577 0.17677 0.02100
O 	O 	0.29694 0.44448 0.33002 -0.46100
O 	O 	0.25785 0.36718 0.37719 -0.47100
C 	C 	0.30660 0.42850 0.36081 0.41000
C 	C 	0.40130 0.47170 0.41126 -0.00400
H 	H 	0.36360 0.42370 0.42240 0.04800
C 	C 	0.38640 0.48610 0.37744 -0.11300
C 	C 	0.55790 0.54590 0.47940 -0.11000
C 	C 	0.28910 0.46240 0.23750 0.25600
C 	C 	0.30180 0.48830 0.20380 -0.46100
H 	H 	0.32750 0.45150 0.24760 -0.05900
H 	H 	0.34720 0.49490 0.19140 0.19300
H 	H 	0.54100 0.63800 0.50300 0.01600
H 	H 	0.60890 0.55680 0.46800 0.05400
C 	C 	0.51720 0.58090 0.48990 0.02100
O 	O 	0.96361 0.77781 0.66335 -0.46100
O 	O 	0.92452 0.70051 0.71052 -0.47100
C 	C 	0.97327 0.76183 0.69414 0.41000
C 	C 	0.06797 0.80503 0.74459 -0.00400
H 	H 	0.03027 0.75703 0.75573 0.04800
C 	C 	0.05307 0.81943 0.71077 -0.11300
C 	C 	0.22457 0.87923 0.81273 -0.11000
C 	C 	0.95577 0.79573 0.57083 0.25600
C 	C 	0.96847 0.82163 0.53713 -0.46100
H 	H 	0.99417 0.78483 0.58093 -0.05900
H 	H 	0.01387 0.82823 0.52473 0.19300
H 	H 	0.20767 0.97133 0.83633 0.01600
H 	H 	0.27557 0.89013 0.80133 0.05400
C 	C 	0.18387 0.91423 0.82323 0.02100
O 	O 	0.63027 0.11115 0.99669 -0.46100
O 	O 	0.59118 0.03385 0.04386 -0.47100
C 	C 	0.63993 0.09517 0.02748 0.41000
C 	C 	0.73463 0.13837 0.07793 -0.00400
H 	H 	0.69693 0.09037 0.08907 0.04800
C 	C 	0.71973 0.15277 0.04411 -0.11400
C 	C 	0.89123 0.21257 0.14607 -0.11000
C 	C 	0.62243 0.12907 0.90417 0.25600
C 	C 	0.63513 0.15497 0.87047 -0.46100
H 	H 	0.66083 0.11817 0.91427 -0.05900
H 	H 	0.68053 0.16157 0.85807 0.19300
H 	H 	0.87433 0.30467 0.16967 0.01600
H 	H 	0.94223 0.22347 0.13467 0.05400
C 	C 	0.85053 0.24757 0.15657 0.02100
O 	O 	0.14754 0.70306 0.33002 -0.46100
O 	O 	0.10933 0.74215 0.37719 -0.47100
C 	C 	0.12190 0.69340 0.36081 0.41000
C 	C 	0.07040 0.59870 0.41126 -0.00400
H 	H 	0.06010 0.63640 0.42240 0.04800
C 	C 	0.09970 0.61360 0.37744 -0.11400
C 	C 	0.98800 0.44210 0.47940 -0.11000
C 	C 	0.17330 0.71090 0.23750 0.25600
C 	C 	0.18650 0.69820 0.20380 -0.46100
H 	H 	0.12400 0.67250 0.24760 -0.05900
H 	H 	0.14770 0.65280 0.19140 0.19300
H 	H 	0.09700 0.45900 0.50300 0.01600
H 	H 	0.94790 0.39110 0.46800 0.05400
C 	C 	0.06370 0.48280 0.48990 0.02100
O 	O 	0.81421 0.03639 0.66335 -0.46100
O 	O 	0.77600 0.07548 0.71052 -0.47100
C 	C 	0.78857 0.02673 0.69414 0.41000
C 	C 	0.73707 0.93203 0.74459 -0.00400
H 	H 	0.72677 0.96973 0.75573 0.04800
C 	C 	0.76637 0.94693 0.71077 -0.11300
C 	C 	0.65467 0.77543 0.81273 -0.11000
C 	C 	0.83997 0.04423 0.57083 0.25700
C 	C 	0.85317 0.03153 0.53713 -0.46200
H 	H 	0.79067 0.00583 0.58093 -0.05900
H 	H 	0.81437 0.98613 0.52473 0.19300
H 	H 	0.76367 0.79233 0.83633 0.01600
H 	H 	0.61457 0.72443 0.80133 0.05400
C 	C 	0.73037 0.81613 0.82323 0.02100
O 	O 	0.48087 0.36973 0.99669 -0.46100
O 	O 	0.44266 0.40882 0.04386 -0.47100
C 	C 	0.45523 0.36007 0.02748 0.41000
C 	C 	0.40373 0.26537 0.07793 -0.00400
H 	H 	0.39343 0.30307 0.08907 0.04800
C 	C 	0.43303 0.28027 0.04411 -0.11400
C 	C 	0.32133 0.10877 0.14607 -0.11000
C 	C 	0.50663 0.37757 0.90417 0.25600
C 	C 	0.51983 0.36487 0.87047 -0.46100
H 	H 	0.45733 0.33917 0.91427 -0.05900
H 	H 	0.48103 0.31947 0.85807 0.19300
H 	H 	0.43033 0.12567 0.16967 0.01600
H 	H 	0.28123 0.05777 0.13467 0.05400
C 	C 	0.39703 0.14947 0.15657 0.02100
O 	O 	0.55552 0.85246 0.33002 -0.46100
O 	O 	0.63282 0.89067 0.37719 -0.47100
C 	C 	0.57150 0.87810 0.36081 0.41000
C 	C 	0.52830 0.92960 0.41126 -0.00400
H 	H 	0.57630 0.93990 0.42240 0.04800
C 	C 	0.51390 0.90030 0.37744 -0.11400
C 	C 	0.45410 0.01200 0.47940 -0.11000
C 	C 	0.53760 0.82670 0.23750 0.25600
C 	C 	0.51170 0.81350 0.20380 -0.46100
H 	H 	0.54850 0.87600 0.24760 -0.05900
H 	H 	0.50510 0.85230 0.19140 0.19300
H 	H 	0.36200 0.90300 0.50300 0.01600
H 	H 	0.44320 0.05210 0.46800 0.05400
C 	C 	0.41910 0.93630 0.48990 0.02100
O 	O 	0.22219 0.18579 0.66335 -0.46100
O 	O 	0.29949 0.22400 0.71052 -0.47100
C 	C 	0.23817 0.21143 0.69414 0.41000
C 	C 	0.19497 0.26293 0.74459 -0.00400
H 	H 	0.24297 0.27323 0.75573 0.04800
C 	C 	0.18057 0.23363 0.71077 -0.11300
C 	C 	0.12077 0.34533 0.81273 -0.11000
C 	C 	0.20427 0.16003 0.57083 0.25600
C 	C 	0.17837 0.14683 0.53713 -0.46100
H 	H 	0.21517 0.20933 0.58093 -0.05900
H 	H 	0.17177 0.18563 0.52473 0.19300
H 	H 	0.02867 0.23633 0.83633 0.01600
H 	H 	0.10987 0.38543 0.80133 0.05400
C 	C 	0.08577 0.26963 0.82323 0.02100
O 	O 	0.88885 0.51913 0.99669 -0.46100
O 	O 	0.96615 0.55734 0.04386 -0.47100
C 	C 	0.90483 0.54477 0.02748 0.41000
C 	C 	0.86163 0.59627 0.07793 -0.00400
H 	H 	0.90963 0.60657 0.08907 0.04800
C 	C 	0.84723 0.56697 0.04411 -0.11400
C 	C 	0.78743 0.67867 0.14607 -0.11000
C 	C 	0.87093 0.49337 0.90417 0.25600
C 	C 	0.84503 0.48017 0.87047 -0.46100
H 	H 	0.88183 0.54267 0.91427 -0.05900
H 	H 	0.83843 0.51897 0.85807 0.19300
H 	H 	0.69533 0.56967 0.16967 0.01600
H 	H 	0.77653 0.71877 0.13467 0.05400
C 	C 	0.75243 0.60297 0.15657 0.02100
Zn	Zn	0.61407 0.80703 0.30146 1.22100
N 	N 	0.54860 0.77430 0.25713 -0.31700
C 	C 	0.49760 0.74880 0.19040 0.43600
N 	N 	0.45100 0.72550 0.15620 -0.14000
Zn	Zn	0.28074 0.14037 0.63479 1.22100
N 	N 	0.21527 0.10763 0.59046 -0.31600
C 	C 	0.16427 0.08213 0.52373 0.43600
N 	N 	0.11767 0.05883 0.48953 -0.14000
Zn	Zn	0.94740 0.47370 0.96813 1.22100
N 	N 	0.88193 0.44097 0.92380 -0.31700
C 	C 	0.83093 0.41547 0.85707 0.43600
N 	N 	0.78433 0.39217 0.82287 -0.14000
Zn	Zn	0.19297 0.80703 0.30146 1.22100
N 	N 	0.22570 0.77430 0.25713 -0.31700
C 	C 	0.25120 0.74880 0.19040 0.43600
N 	N 	0.27450 0.72550 0.15620 -0.14000
Zn	Zn	0.85963 0.14037 0.63479 1.22100
N 	N 	0.89237 0.10763 0.59046 -0.31700
C 	C 	0.91787 0.08213 0.52373 0.43700
N 	N 	0.94117 0.05883 0.48953 -0.14000
Zn	Zn	0.52630 0.47370 0.96813 1.22100
N 	N 	0.55903 0.44097 0.92380 -0.31700
C 	C 	0.58453 0.41547 0.85707 0.43600
N 	N 	0.60783 0.39217 0.82287 -0.14000
Zn	Zn	0.19297 0.38593 0.30146 1.22100
N 	N 	0.22570 0.45140 0.25713 -0.31700
C 	C 	0.25120 0.50240 0.19040 0.43600
N 	N 	0.27450 0.54900 0.15620 -0.14000
Zn	Zn	0.85963 0.71926 0.63479 1.22100
N 	N 	0.89237 0.78473 0.59046 -0.31600
C 	C 	0.91787 0.83573 0.52373 0.43600
N 	N 	0.94117 0.88233 0.48953 -0.14000
Zn	Zn	0.52630 0.05260 0.96813 1.22100
N 	N 	0.55903 0.11807 0.92380 -0.31700
C 	C 	0.58453 0.16907 0.85707 0.43600
N 	N 	0.60783 0.21567 0.82287 -0.14000
Zn	Zn	0.80703 0.61407 0.69854 1.22100
N 	N 	0.77430 0.54860 0.74287 -0.31700
C 	C 	0.74880 0.49760 0.80960 0.43600
N 	N 	0.72550 0.45100 0.84380 -0.14000
Zn	Zn	0.47370 0.94740 0.03187 1.22100
N 	N 	0.44097 0.88193 0.07620 -0.31700
C 	C 	0.41547 0.83093 0.14293 0.43600
N 	N 	0.39217 0.78433 0.17713 -0.14000
Zn	Zn	0.14037 0.28074 0.36521 1.22100
N 	N 	0.10763 0.21527 0.40954 -0.31600
C 	C 	0.08213 0.16427 0.47627 0.43600
N 	N 	0.05883 0.11767 0.51047 -0.14000
Zn	Zn	0.80703 0.19297 0.69854 1.22100
N 	N 	0.77430 0.22570 0.74287 -0.31700
C 	C 	0.74880 0.25120 0.80960 0.43600
N 	N 	0.72550 0.27450 0.84380 -0.14000
Zn	Zn	0.47370 0.52630 0.03187 1.22100
N 	N 	0.44097 0.55903 0.07620 -0.31700
C 	C 	0.41547 0.58453 0.14293 0.43600
N 	N 	0.39217 0.60783 0.17713 -0.14000
Zn	Zn	0.14037 0.85963 0.36521 1.22100
N 	N 	0.10763 0.89237 0.40954 -0.31700
C 	C 	0.08213 0.91787 0.47627 0.43700
N 	N 	0.05883 0.94117 0.51047 -0.14000
Zn	Zn	0.38593 0.19297 0.69854 1.22100
N 	N 	0.45140 0.22570 0.74287 -0.31700
C 	C 	0.50240 0.25120 0.80960 0.43600
N 	N 	0.54900 0.27450 0.84380 -0.14000
Zn	Zn	0.05260 0.52630 0.03187 1.22100
N 	N 	0.11807 0.55903 0.07620 -0.31700
C 	C 	0.16907 0.58453 0.14293 0.43600
N 	N 	0.21567 0.60783 0.17713 -0.14000
Zn	Zn	0.71926 0.85963 0.36521 1.22100
N 	N 	0.78473 0.89237 0.40954 -0.31600
C 	C 	0.83573 0.91787 0.47627 0.43600
N 	N 	0.88233 0.94117 0.51047 -0.14000
C 	C 	0.44344 0.55656 0.36090 0.05600
H 	H 	0.43420 0.56580 0.33810 0.04400
C 	C 	0.47170 0.52830 0.42862 -0.01200
C 	C 	0.48650 0.51350 0.46546 -0.01000
H 	H 	0.51650 0.48350 0.46690 0.08200
C 	C 	0.11011 0.88989 0.69423 0.05600
H 	H 	0.10087 0.89913 0.67143 0.04400
C 	C 	0.13837 0.86163 0.76195 -0.01200
C 	C 	0.15317 0.84683 0.79879 -0.01000
H 	H 	0.18317 0.81683 0.80023 0.08200
C 	C 	0.77677 0.22323 0.02757 0.05600
H 	H 	0.76753 0.23247 0.00477 0.04400
C 	C 	0.80503 0.19497 0.09529 -0.01200
C 	C 	0.81983 0.18017 0.13213 -0.00900
H 	H 	0.84983 0.15017 0.13357 0.08200
C 	C 	0.44344 0.88688 0.36090 0.05600
H 	H 	0.43420 0.86840 0.33810 0.04400
C 	C 	0.47170 0.94340 0.42862 -0.01200
C 	C 	0.48650 0.97300 0.46546 -0.01000
H 	H 	0.51650 0.03300 0.46690 0.08200
C 	C 	0.11011 0.22021 0.69423 0.05600
H 	H 	0.10087 0.20173 0.67143 0.04400
C 	C 	0.13837 0.27673 0.76195 -0.01200
C 	C 	0.15317 0.30633 0.79879 -0.01000
H 	H 	0.18317 0.36633 0.80023 0.08200
C 	C 	0.77677 0.55355 0.02757 0.05600
H 	H 	0.76753 0.53507 0.00477 0.04400
C 	C 	0.80503 0.61007 0.09529 -0.01200
C 	C 	0.81983 0.63967 0.13213 -0.00900
H 	H 	0.84983 0.69967 0.13357 0.08200
C 	C 	0.11312 0.55656 0.36090 0.05600
H 	H 	0.13160 0.56580 0.33810 0.04400
C 	C 	0.05660 0.52830 0.42862 -0.01200
C 	C 	0.02700 0.51350 0.46546 -0.01000
H 	H 	0.96700 0.48350 0.46690 0.08200
C 	C 	0.77979 0.88989 0.69423 0.05600
H 	H 	0.79827 0.89913 0.67143 0.04400
C 	C 	0.72327 0.86163 0.76195 -0.01200
C 	C 	0.69367 0.84683 0.79879 -0.01000
H 	H 	0.63367 0.81683 0.80023 0.08200
C 	C 	0.44645 0.22323 0.02757 0.05600
H 	H 	0.46493 0.23247 0.00477 0.04400
C 	C 	0.38993 0.19497 0.09529 -0.01200
C 	C 	0.36033 0.18017 0.13213 -0.00900
H 	H 	0.30033 0.15017 0.13357 0.08200
C 	C 	0.55656 0.44344 0.63910 0.05600
H 	H 	0.56580 0.43420 0.66190 0.04400
C 	C 	0.52830 0.47170 0.57138 -0.01200
C 	C 	0.51350 0.48650 0.53454 -0.01000
H 	H 	0.48350 0.51650 0.53310 0.08200
C 	C 	0.22323 0.77677 0.97243 0.05600
H 	H 	0.23247 0.76753 0.99523 0.04400
C 	C 	0.19497 0.80503 0.90471 -0.01200
C 	C 	0.18017 0.81983 0.86787 -0.00900
H 	H 	0.15017 0.84983 0.86643 0.08200
C 	C 	0.88989 0.11011 0.30577 0.05600
H 	H 	0.89913 0.10087 0.32857 0.04400
C 	C 	0.86163 0.13837 0.23805 -0.01200
C 	C 	0.84683 0.15317 0.20121 -0.01000
H 	H 	0.81683 0.18317 0.19977 0.08200
C 	C 	0.88688 0.44344 0.63910 0.05600
H 	H 	0.86840 0.43420 0.66190 0.04400
C 	C 	0.94340 0.47170 0.57138 -0.01200
C 	C 	0.97300 0.48650 0.53454 -0.01000
H 	H 	0.03300 0.51650 0.53310 0.08200
C 	C 	0.55355 0.77677 0.97243 0.05600
H 	H 	0.53507 0.76753 0.99523 0.04400
C 	C 	0.61007 0.80503 0.90471 -0.01200
C 	C 	0.63967 0.81983 0.86787 -0.00900
H 	H 	0.69967 0.84983 0.86643 0.08200
C 	C 	0.22021 0.11011 0.30577 0.05600
H 	H 	0.20173 0.10087 0.32857 0.04400
C 	C 	0.27673 0.13837 0.23805 -0.01200
C 	C 	0.30633 0.15317 0.20121 -0.01000
H 	H 	0.36633 0.18317 0.19977 0.08200
C 	C 	0.55656 0.11312 0.63910 0.05600
H 	H 	0.56580 0.13160 0.66190 0.04400
C 	C 	0.52830 0.05660 0.57138 -0.01200
C 	C 	0.51350 0.02700 0.53454 -0.01000
H 	H 	0.48350 0.96700 0.53310 0.08200
C 	C 	0.22323 0.44645 0.97243 0.05600
H 	H 	0.23247 0.46493 0.99523 0.04400
C 	C 	0.19497 0.38993 0.90471 -0.01200
C 	C 	0.18017 0.36033 0.86787 -0.00900
H 	H 	0.15017 0.30033 0.86643 0.08200
C 	C 	0.88989 0.77979 0.30577 0.05600
H 	H 	0.89913 0.79827 0.32857 0.04400
C 	C 	0.86163 0.72327 0.23805 -0.01200
C 	C 	0.84683 0.69367 0.20121 -0.01000
H 	H 	0.81683 0.63367 0.19977 0.08200
