data_crystal

_cell_length_a 12.38450
_cell_length_b 12.49440
_cell_length_c 12.49440
_cell_angle_alpha 75.78130
_cell_angle_beta  60.29050
_cell_angle_gamma 60.29040

_symmetry_space_group_name_	'P 1'
_symmetry_space_group_name_H-M	'P 1'

loop_
_symmetry_equiv_pos_as_xyz
  x,y,z

loop_
_atom_site_label
_atom_site_type_symbol
_atom_site_fract_x
_atom_site_fract_y
_atom_site_fract_z
_atom_site_charge
Sc	Sc	0.18722 0.00000 0.62556 2.31800
Sc	Sc	0.81278 0.00000 0.37444 2.32000
Sc	Sc	0.06278 0.87444 0.50000 2.34000
Sc	Sc	0.43722 0.12556 0.50000 2.34100
H 	H 	0.88880 0.32290 0.55730 0.00300
H 	H 	0.76900 0.67710 0.44270 0.03300
H 	H 	0.69610 0.94270 0.82290 0.04200
H 	H 	0.46170 0.05730 0.17710 0.00200
H 	H 	0.48100 0.05730 0.82290 -0.00100
H 	H 	0.36120 0.94270 0.17710 0.02800
H 	H 	0.78830 0.32290 0.44270 0.01500
H 	H 	0.55390 0.67710 0.55730 0.04100
H 	H 	0.11360 0.50000 0.50000 0.03600
H 	H 	0.86360 0.00000 1.00000 0.07600
H 	H 	0.13640 0.00000 -0.00000 0.05600
H 	H 	0.38640 0.50000 0.50000 0.03400
C 	C 	0.12334 0.27774 0.55598 0.50200
C 	C 	0.90341 0.39476 0.53308 0.07000
C 	C 	0.01821 0.39337 0.53113 -0.19800
C 	C 	0.95706 0.72226 0.44402 0.50700
C 	C 	0.83125 0.60524 0.46692 0.03600
C 	C 	0.94271 0.60663 0.46887 -0.13700
C 	C 	0.92932 0.94402 0.77774 0.46300
C 	C 	0.68649 0.96692 0.89476 0.17300
C 	C 	0.79934 0.96887 0.89337 0.06000
C 	C 	0.65108 0.05598 0.22226 0.44800
C 	C 	0.54817 0.03308 0.10524 -0.00600
C 	C 	0.66158 0.03113 0.10663 -0.09400
C 	C 	0.29294 0.05598 0.77774 0.46600
C 	C 	0.41875 0.03308 0.89476 0.00500
C 	C 	0.30729 0.03113 0.89337 -0.15100
C 	C 	0.12666 0.94402 0.22226 0.44900
C 	C 	0.34659 0.96692 0.10524 0.21200
C 	C 	0.23179 0.96887 0.10663 0.02900
C 	C 	0.59892 0.27774 0.44402 0.49600
C 	C 	0.70183 0.39476 0.46692 0.03000
C 	C 	0.58842 0.39337 0.46887 -0.16700
C 	C 	0.32068 0.72226 0.55598 0.47900
C 	C 	0.56351 0.60524 0.53308 0.02500
C 	C 	0.45066 0.60663 0.53113 -0.14900
C 	C 	0.81100 0.50000 0.50000 -0.03300
C 	C 	0.03690 0.50000 0.50000 0.08300
C 	C 	0.56100 0.00000 -0.00000 -0.15100
C 	C 	0.78690 0.00000 1.00000 -0.20300
C 	C 	0.43900 0.00000 -0.00000 -0.17400
C 	C 	0.21310 0.00000 -0.00000 -0.13500
C 	C 	0.68900 0.50000 0.50000 -0.01600
C 	C 	0.46310 0.50000 0.50000 0.09900
O 	O 	0.08736 0.19402 0.61604 -0.67400
O 	O 	0.24300 0.27026 0.51588 -0.61500
O 	O 	0.89742 0.80598 0.38396 -0.57800
O 	O 	0.02914 0.72974 0.48412 -0.62300
O 	O 	0.95340 0.88396 0.69402 -0.58300
O 	O 	0.00888 0.98412 0.77026 -0.51600
O 	O 	0.53138 0.11604 0.30598 -0.63700
O 	O 	0.76326 0.01588 0.22974 -0.65900
O 	O 	0.35258 0.11604 0.69402 -0.63800
O 	O 	0.22086 0.01588 0.77026 -0.67600
O 	O 	0.16264 0.88396 0.30598 -0.59500
O 	O 	0.00700 0.98412 0.22974 -0.50600
O 	O 	0.71862 0.19402 0.38396 -0.65600
O 	O 	0.48674 0.27026 0.48412 -0.60800
O 	O 	0.29660 0.80598 0.61604 -0.57300
O 	O 	0.24112 0.72974 0.51588 -0.60000
O 	O 	0.37296 0.00204 0.50204 -1.00100
O 	O 	0.87704 0.99796 0.49796 -0.69300
O 	O 	0.12500 0.99796 0.50204 -0.72400
O 	O 	0.62500 0.00204 0.49796 -1.11600
H 	H 	0.12500 0.08053 0.44174 0.00700
H 	H 	0.87704 0.08053 0.47768 -0.01000
H 	H 	0.47672 0.91984 0.43124 0.21900
H 	H 	0.62500 0.91947 0.51824 0.35300
