data_crystal

_cell_length_a 16.27200
_cell_length_b 16.27200
_cell_length_c 29.93600
_cell_angle_alpha 90.00000
_cell_angle_beta  90.00000
_cell_angle_gamma 90.00000

_symmetry_space_group_name_	'P 1'
_symmetry_space_group_name_H-M	'P 1'

loop_
_symmetry_equiv_pos_as_xyz
  x,y,z

loop_
_atom_site_label
_atom_site_type_symbol
_atom_site_fract_x
_atom_site_fract_y
_atom_site_fract_z
_atom_site_charge
O 	O 	0.66026 0.19584 0.10176 -0.22400
O 	O 	0.75592 0.34514 0.11925 -0.25000
O 	O 	0.72390 0.45134 0.07592 -0.40700
C 	C 	0.74363 0.32436 0.04069 -0.02600
O 	O 	0.77859 0.13025 0.08884 -0.39900
C 	C 	0.74044 0.37576 0.08271 0.33000
C 	C 	0.74192 0.23826 0.04072 -0.03100
C 	C 	0.72460 0.18559 0.08144 0.33700
O 	O 	0.16026 0.69584 0.60176 -0.22400
O 	O 	0.25592 0.84514 0.61925 -0.24800
O 	O 	0.22390 0.95134 0.57592 -0.40300
C 	C 	0.24363 0.82436 0.54069 -0.02600
O 	O 	0.27859 0.63025 0.58884 -0.39700
C 	C 	0.24044 0.87576 0.58271 0.33100
C 	C 	0.24192 0.73826 0.54072 -0.03200
C 	C 	0.22460 0.68559 0.58144 0.33800
O 	O 	0.83974 0.80416 0.60176 -0.22300
O 	O 	0.74408 0.65486 0.61925 -0.24900
O 	O 	0.77610 0.54866 0.57592 -0.40600
C 	C 	0.75637 0.67564 0.54069 -0.02800
O 	O 	0.72141 0.86975 0.58884 -0.39600
C 	C 	0.75956 0.62424 0.58271 0.33100
C 	C 	0.75808 0.76174 0.54072 -0.03100
C 	C 	0.77540 0.81441 0.58144 0.33800
O 	O 	0.33974 0.30416 0.10176 -0.22500
O 	O 	0.24408 0.15486 0.11925 -0.25100
O 	O 	0.27610 0.04866 0.07592 -0.40900
C 	C 	0.25637 0.17564 0.04069 -0.02700
O 	O 	0.22141 0.36975 0.08884 -0.39800
C 	C 	0.25956 0.12424 0.08271 0.33100
C 	C 	0.25808 0.26174 0.04072 -0.03000
C 	C 	0.27540 0.31441 0.08144 0.33700
O 	O 	0.05416 0.41026 0.35176 -0.22500
O 	O 	0.90486 0.50592 0.36925 -0.25000
O 	O 	0.79866 0.47390 0.32592 -0.40600
C 	C 	0.92564 0.49363 0.29069 -0.02700
O 	O 	0.11975 0.52859 0.33884 -0.39700
C 	C 	0.87424 0.49044 0.33271 0.33100
C 	C 	0.01174 0.49192 0.29072 -0.03200
C 	C 	0.06441 0.47460 0.33144 0.33800
O 	O 	0.55416 0.91026 0.85176 -0.22400
O 	O 	0.40486 0.00592 0.86925 -0.25600
O 	O 	0.29866 0.97390 0.82592 -0.40500
C 	C 	0.42564 0.99363 0.79069 -0.02300
O 	O 	0.61975 0.02859 0.83884 -0.40200
C 	C 	0.37424 0.99044 0.83271 0.33800
C 	C 	0.51174 0.99192 0.79072 -0.02600
C 	C 	0.56441 0.97460 0.83144 0.34400
O 	O 	0.44584 0.58974 0.85176 -0.22400
O 	O 	0.59514 0.49408 0.86925 -0.24900
O 	O 	0.70134 0.52610 0.82592 -0.40600
C 	C 	0.57436 0.50637 0.79069 -0.02700
O 	O 	0.38025 0.47141 0.83884 -0.39700
C 	C 	0.62576 0.50956 0.83271 0.33100
C 	C 	0.48826 0.50808 0.79072 -0.03100
C 	C 	0.43559 0.52540 0.83144 0.33800
O 	O 	0.94584 0.08974 0.35176 -0.22400
O 	O 	0.09514 0.99408 0.36925 -0.24200
O 	O 	0.20134 0.02610 0.32592 -0.40500
C 	C 	0.07436 0.00637 0.29069 -0.02500
O 	O 	0.88025 0.97141 0.33884 -0.39100
C 	C 	0.12576 0.00956 0.33271 0.32300
C 	C 	0.98826 0.00808 0.29072 -0.03000
C 	C 	0.93559 0.02540 0.33144 0.33100
O 	O 	0.83974 0.19584 0.89824 -0.22400
O 	O 	0.74408 0.34514 0.88075 -0.24900
O 	O 	0.77610 0.45134 0.92408 -0.40400
C 	C 	0.75637 0.32436 0.95931 -0.02100
O 	O 	0.72141 0.13025 0.91116 -0.39700
C 	C 	0.75956 0.37576 0.91729 0.33000
C 	C 	0.75808 0.23826 0.95928 -0.02600
C 	C 	0.77540 0.18559 0.91856 0.33700
O 	O 	0.33974 0.69584 0.39824 -0.22400
O 	O 	0.24408 0.84514 0.38075 -0.24800
O 	O 	0.27610 0.95134 0.42408 -0.40300
C 	C 	0.25637 0.82436 0.45931 -0.02600
O 	O 	0.22141 0.63025 0.41116 -0.39700
C 	C 	0.25956 0.87576 0.41729 0.33100
C 	C 	0.25808 0.73826 0.45928 -0.03200
C 	C 	0.27540 0.68559 0.41856 0.33800
O 	O 	0.66026 0.80416 0.39824 -0.22300
O 	O 	0.75592 0.65486 0.38075 -0.24900
O 	O 	0.72390 0.54866 0.42408 -0.40600
C 	C 	0.74363 0.67564 0.45931 -0.02800
O 	O 	0.77859 0.86975 0.41116 -0.39600
C 	C 	0.74044 0.62424 0.41729 0.33100
C 	C 	0.74192 0.76174 0.45928 -0.03100
C 	C 	0.72460 0.81441 0.41856 0.33800
O 	O 	0.16026 0.30416 0.89824 -0.22400
O 	O 	0.25592 0.15486 0.88075 -0.25000
O 	O 	0.22390 0.04866 0.92408 -0.40700
C 	C 	0.24363 0.17564 0.95931 -0.02200
O 	O 	0.27859 0.36975 0.91116 -0.39600
C 	C 	0.24044 0.12424 0.91729 0.33100
C 	C 	0.24192 0.26174 0.95928 -0.02500
C 	C 	0.22460 0.31441 0.91856 0.33700
O 	O 	0.44584 0.41026 0.64824 -0.22400
O 	O 	0.59514 0.50592 0.63075 -0.24900
O 	O 	0.70134 0.47390 0.67408 -0.40600
C 	C 	0.57436 0.49363 0.70931 -0.02700
O 	O 	0.38025 0.52859 0.66116 -0.39700
C 	C 	0.62576 0.49044 0.66729 0.33100
C 	C 	0.48826 0.49192 0.70928 -0.03100
C 	C 	0.43559 0.47460 0.66856 0.33800
O 	O 	0.94584 0.91026 0.14824 -0.22500
O 	O 	0.09514 0.00592 0.13075 -0.25700
O 	O 	0.20134 0.97390 0.17408 -0.40500
C 	C 	0.07436 0.99363 0.20931 -0.02300
O 	O 	0.88025 0.02859 0.16116 -0.40300
C 	C 	0.12576 0.99044 0.16729 0.33800
C 	C 	0.98826 0.99192 0.20928 -0.02600
C 	C 	0.93559 0.97460 0.16856 0.34400
O 	O 	0.05416 0.58974 0.14824 -0.22400
O 	O 	0.90486 0.49408 0.13075 -0.25000
O 	O 	0.79866 0.52610 0.17408 -0.40600
C 	C 	0.92564 0.50637 0.20931 -0.02700
O 	O 	0.11975 0.47141 0.16116 -0.39800
C 	C 	0.87424 0.50956 0.16729 0.33100
C 	C 	0.01174 0.50808 0.20928 -0.03200
C 	C 	0.06441 0.52540 0.16856 0.33800
O 	O 	0.55416 0.08974 0.64824 -0.22400
O 	O 	0.40486 0.99408 0.63075 -0.24100
O 	O 	0.29866 0.02610 0.67408 -0.40500
C 	C 	0.42564 0.00637 0.70931 -0.02500
O 	O 	0.61975 0.97141 0.66116 -0.39100
C 	C 	0.37424 0.00956 0.66729 0.32300
C 	C 	0.51174 0.00808 0.70928 -0.03000
C 	C 	0.56441 0.02540 0.66856 0.33000
O 	O 	0.33974 0.80416 0.89824 -0.22200
O 	O 	0.24408 0.65486 0.88075 -0.24900
O 	O 	0.27610 0.54866 0.92408 -0.40400
C 	C 	0.25637 0.67564 0.95931 -0.02200
O 	O 	0.22141 0.86975 0.91116 -0.39500
C 	C 	0.25956 0.62424 0.91729 0.33000
C 	C 	0.25808 0.76174 0.95928 -0.02500
C 	C 	0.27540 0.81441 0.91856 0.33700
O 	O 	0.83974 0.30416 0.39824 -0.22400
O 	O 	0.74408 0.15486 0.38075 -0.25100
O 	O 	0.77610 0.04866 0.42408 -0.40900
C 	C 	0.75637 0.17564 0.45931 -0.02800
O 	O 	0.72141 0.36975 0.41116 -0.39800
C 	C 	0.75956 0.12424 0.41729 0.33200
C 	C 	0.75808 0.26174 0.45928 -0.03100
C 	C 	0.77540 0.31441 0.41856 0.33800
O 	O 	0.16026 0.19584 0.39824 -0.22500
O 	O 	0.25592 0.34514 0.38075 -0.25000
O 	O 	0.22390 0.45134 0.42408 -0.40600
C 	C 	0.24363 0.32436 0.45931 -0.02700
O 	O 	0.27859 0.13025 0.41116 -0.39900
C 	C 	0.24044 0.37576 0.41729 0.33100
C 	C 	0.24192 0.23826 0.45928 -0.03200
C 	C 	0.22460 0.18559 0.41856 0.33800
O 	O 	0.66026 0.69584 0.89824 -0.22300
O 	O 	0.75592 0.84514 0.88075 -0.24700
O 	O 	0.72390 0.95134 0.92408 -0.40100
C 	C 	0.74363 0.82436 0.95931 -0.02000
O 	O 	0.77859 0.63025 0.91116 -0.39600
C 	C 	0.74044 0.87576 0.91729 0.32900
C 	C 	0.74192 0.73826 0.95928 -0.02600
C 	C 	0.72460 0.68559 0.91856 0.33700
O 	O 	0.94584 0.58974 0.64824 -0.22400
O 	O 	0.09514 0.49408 0.63075 -0.25000
O 	O 	0.20134 0.52610 0.67408 -0.40600
C 	C 	0.07436 0.50637 0.70931 -0.02700
O 	O 	0.88025 0.47141 0.66116 -0.39800
C 	C 	0.12576 0.50956 0.66729 0.33100
C 	C 	0.98826 0.50808 0.70928 -0.03200
C 	C 	0.93559 0.52540 0.66856 0.33800
O 	O 	0.44584 0.08974 0.14824 -0.22400
O 	O 	0.59514 0.99408 0.13075 -0.24200
O 	O 	0.70134 0.02610 0.17408 -0.40500
C 	C 	0.57436 0.00637 0.20931 -0.02500
O 	O 	0.38025 0.97141 0.16116 -0.39100
C 	C 	0.62576 0.00956 0.16729 0.32300
C 	C 	0.48826 0.00808 0.20928 -0.03000
C 	C 	0.43559 0.02540 0.16856 0.33000
O 	O 	0.55416 0.41026 0.14824 -0.22500
O 	O 	0.40486 0.50592 0.13075 -0.25000
O 	O 	0.29866 0.47390 0.17408 -0.40600
C 	C 	0.42564 0.49363 0.20931 -0.02800
O 	O 	0.61975 0.52859 0.16116 -0.39800
C 	C 	0.37424 0.49044 0.16729 0.33100
C 	C 	0.51174 0.49192 0.20928 -0.03100
C 	C 	0.56441 0.47460 0.16856 0.33800
O 	O 	0.05416 0.91026 0.64824 -0.22400
O 	O 	0.90486 0.00592 0.63075 -0.25700
O 	O 	0.79866 0.97390 0.67408 -0.40500
C 	C 	0.92564 0.99363 0.70931 -0.02300
O 	O 	0.11975 0.02859 0.66116 -0.40300
C 	C 	0.87424 0.99044 0.66729 0.33800
C 	C 	0.01174 0.99192 0.70928 -0.02600
C 	C 	0.06441 0.97460 0.66856 0.34400
O 	O 	0.16026 0.80416 0.10176 -0.22400
O 	O 	0.25592 0.65486 0.11925 -0.24900
O 	O 	0.22390 0.54866 0.07592 -0.40700
C 	C 	0.24363 0.67564 0.04069 -0.02700
O 	O 	0.27859 0.86975 0.08884 -0.39600
C 	C 	0.24044 0.62424 0.08271 0.33100
C 	C 	0.24192 0.76174 0.04072 -0.03000
C 	C 	0.22460 0.81441 0.08144 0.33700
O 	O 	0.66026 0.30416 0.60176 -0.22400
O 	O 	0.75592 0.15486 0.61925 -0.25100
O 	O 	0.72390 0.04866 0.57592 -0.40900
C 	C 	0.74363 0.17564 0.54069 -0.02800
O 	O 	0.77859 0.36975 0.58884 -0.39800
C 	C 	0.74044 0.12424 0.58271 0.33200
C 	C 	0.74192 0.26174 0.54072 -0.03100
C 	C 	0.72460 0.31441 0.58144 0.33800
O 	O 	0.33974 0.19584 0.60176 -0.22500
O 	O 	0.24408 0.34514 0.61925 -0.25000
O 	O 	0.27610 0.45134 0.57592 -0.40600
C 	C 	0.25637 0.32436 0.54069 -0.02700
O 	O 	0.22141 0.13025 0.58884 -0.39900
C 	C 	0.25956 0.37576 0.58271 0.33100
C 	C 	0.25808 0.23826 0.54072 -0.03200
C 	C 	0.27540 0.18559 0.58144 0.33800
O 	O 	0.83974 0.69584 0.10176 -0.22400
O 	O 	0.74408 0.84514 0.11925 -0.24800
O 	O 	0.77610 0.95134 0.07592 -0.40300
C 	C 	0.75637 0.82436 0.04069 -0.02500
O 	O 	0.72141 0.63025 0.08884 -0.39800
C 	C 	0.75956 0.87576 0.08271 0.33000
C 	C 	0.75808 0.73826 0.04072 -0.03100
C 	C 	0.77540 0.68559 0.08144 0.33700
O 	O 	0.55416 0.58974 0.35176 -0.22400
O 	O 	0.40486 0.49408 0.36925 -0.25000
O 	O 	0.29866 0.52610 0.32592 -0.40600
C 	C 	0.42564 0.50637 0.29069 -0.02700
O 	O 	0.61975 0.47141 0.33884 -0.39800
C 	C 	0.37424 0.50956 0.33271 0.33100
C 	C 	0.51174 0.50808 0.29072 -0.03100
C 	C 	0.56441 0.52540 0.33144 0.33800
O 	O 	0.05416 0.08974 0.85176 -0.22300
O 	O 	0.90486 0.99408 0.86925 -0.24100
O 	O 	0.79866 0.02610 0.82592 -0.40500
C 	C 	0.92564 0.00637 0.79069 -0.02500
O 	O 	0.11975 0.97141 0.83884 -0.39100
C 	C 	0.87424 0.00956 0.83271 0.32300
C 	C 	0.01174 0.00808 0.79072 -0.03000
C 	C 	0.06441 0.02540 0.83144 0.33100
O 	O 	0.94584 0.41026 0.85176 -0.22400
O 	O 	0.09514 0.50592 0.86925 -0.24900
O 	O 	0.20134 0.47390 0.82592 -0.40600
C 	C 	0.07436 0.49363 0.79069 -0.02700
O 	O 	0.88025 0.52859 0.83884 -0.39700
C 	C 	0.12576 0.49044 0.83271 0.33100
C 	C 	0.98826 0.49192 0.79072 -0.03200
C 	C 	0.93559 0.47460 0.83144 0.33800
O 	O 	0.44584 0.91026 0.35176 -0.22400
O 	O 	0.59514 0.00592 0.36925 -0.25700
O 	O 	0.70134 0.97390 0.32592 -0.40500
C 	C 	0.57436 0.99363 0.29069 -0.02300
O 	O 	0.38025 0.02859 0.33884 -0.40300
C 	C 	0.62576 0.99044 0.33271 0.33800
C 	C 	0.48826 0.99192 0.29072 -0.02600
C 	C 	0.43559 0.97460 0.33144 0.34400
Co	Co	0.72069 0.52931 0.12500 1.20300
Co	Co	0.22069 0.02931 0.62500 1.20100
Co	Co	0.77931 0.47069 0.62500 1.20300
Co	Co	0.27931 0.97069 0.12500 1.20500
Co	Co	0.72069 0.47069 0.37500 1.20300
Co	Co	0.22069 0.97069 0.87500 1.20500
Co	Co	0.77931 0.52931 0.87500 1.20300
Co	Co	0.27931 0.02931 0.37500 1.20100
Co	Co	0.27931 0.47069 0.87500 1.20300
Co	Co	0.77931 0.97069 0.37500 1.20500
Co	Co	0.22069 0.52931 0.37500 1.20300
Co	Co	0.72069 0.02931 0.87500 1.20100
Co	Co	0.27931 0.52931 0.62500 1.20300
Co	Co	0.77931 0.02931 0.12500 1.20100
Co	Co	0.22069 0.47069 0.12500 1.20300
Co	Co	0.72069 0.97069 0.62500 1.20500
C 	C 	0.75000 0.19800 -0.00000 -0.01000
H 	H 	0.75000 0.14080 -0.00000 0.06100
C 	C 	0.75000 0.36490 -0.00000 -0.01700
H 	H 	0.75000 0.42200 -0.00000 0.08000
C 	C 	0.25000 0.69800 0.50000 -0.00200
H 	H 	0.25000 0.64080 0.50000 0.06100
C 	C 	0.25000 0.86490 0.50000 -0.00900
H 	H 	0.25000 0.92200 0.50000 0.08100
C 	C 	0.75000 0.80200 0.50000 -0.00300
H 	H 	0.75000 0.85920 0.50000 0.06300
C 	C 	0.75000 0.63510 0.50000 -0.00800
H 	H 	0.75000 0.57800 0.50000 0.07900
C 	C 	0.25000 0.30200 -0.00000 -0.01100
H 	H 	0.25000 0.35920 -0.00000 0.06300
C 	C 	0.25000 0.13510 -0.00000 -0.01600
H 	H 	0.25000 0.07800 -0.00000 0.07900
C 	C 	0.05200 0.50000 0.25000 -0.00200
H 	H 	0.10920 0.50000 0.25000 0.06100
C 	C 	0.88510 0.50000 0.25000 -0.00800
H 	H 	0.82800 0.50000 0.25000 0.07900
C 	C 	0.55200 0.00000 0.75000 -0.01000
H 	H 	0.60920 0.00000 0.75000 0.06300
C 	C 	0.38510 0.00000 0.75000 -0.01700
H 	H 	0.32800 0.00000 0.75000 0.08100
C 	C 	0.44800 0.50000 0.75000 -0.00200
H 	H 	0.39080 0.50000 0.75000 0.06200
C 	C 	0.61490 0.50000 0.75000 -0.00800
H 	H 	0.67200 0.50000 0.75000 0.07900
C 	C 	0.94800 -0.00000 0.25000 -0.01000
H 	H 	0.89080 -0.00000 0.25000 0.06200
C 	C 	0.11490 -0.00000 0.25000 -0.01600
H 	H 	0.17200 -0.00000 0.25000 0.08000
C 	C 	0.25000 0.80200 -0.00000 -0.01100
H 	H 	0.25000 0.85920 -0.00000 0.06400
C 	C 	0.25000 0.63510 -0.00000 -0.01600
H 	H 	0.25000 0.57800 -0.00000 0.08000
C 	C 	0.75000 0.30200 0.50000 -0.00300
H 	H 	0.75000 0.35920 0.50000 0.06200
C 	C 	0.75000 0.13510 0.50000 -0.00800
H 	H 	0.75000 0.07800 0.50000 0.07800
C 	C 	0.25000 0.19800 0.50000 -0.00200
H 	H 	0.25000 0.14080 0.50000 0.06000
C 	C 	0.25000 0.36490 0.50000 -0.00900
H 	H 	0.25000 0.42200 0.50000 0.07900
C 	C 	0.75000 0.69800 -0.00000 -0.01000
H 	H 	0.75000 0.64080 -0.00000 0.06200
C 	C 	0.75000 0.86490 -0.00000 -0.01700
H 	H 	0.75000 0.92200 -0.00000 0.08200
C 	C 	0.94800 0.50000 0.75000 -0.00200
H 	H 	0.89080 0.50000 0.75000 0.06100
C 	C 	0.11490 0.50000 0.75000 -0.00800
H 	H 	0.17200 0.50000 0.75000 0.07900
C 	C 	0.44800 -0.00000 0.25000 -0.01000
H 	H 	0.39080 -0.00000 0.25000 0.06300
C 	C 	0.61490 -0.00000 0.25000 -0.01600
H 	H 	0.67200 -0.00000 0.25000 0.08000
C 	C 	0.55200 0.50000 0.25000 -0.00200
H 	H 	0.60920 0.50000 0.25000 0.06200
C 	C 	0.38510 0.50000 0.25000 -0.00800
H 	H 	0.32800 0.50000 0.25000 0.07900
C 	C 	0.05200 0.00000 0.75000 -0.01000
H 	H 	0.10920 0.00000 0.75000 0.06200
C 	C 	0.88510 0.00000 0.75000 -0.01700
H 	H 	0.82800 0.00000 0.75000 0.08100
