data_crystal

_cell_length_a 18.61100
_cell_length_b 18.61100
_cell_length_c 52.08000
_cell_angle_alpha 90.00000
_cell_angle_beta  90.00000
_cell_angle_gamma 120.00000

_symmetry_space_group_name_	'P 1'
_symmetry_space_group_name_H-M	'P 1'

loop_
_symmetry_equiv_pos_as_xyz
  x,y,z

loop_
_atom_site_label
_atom_site_type_symbol
_atom_site_fract_x
_atom_site_fract_y
_atom_site_fract_z
_atom_site_charge
Cu	Cu	0.28710 0.13350 0.04930 -0.17800
O 	O 	0.56310 0.84800 0.73290 0.02700
Cu	Cu	0.38100 0.17920 0.09115 0.55100
O 	O 	0.21170 0.09110 0.01690 0.33200
O 	O 	0.36200 0.09520 0.03770 0.28200
O 	O 	0.74850 0.10480 0.03840 0.36000
O 	O 	0.30840 0.86280 0.73310 -0.35500
C 	C 	0.58220 0.88180 0.75500 0.05700
O 	O 	0.64030 0.88430 0.76930 -0.07200
O 	O 	0.45100 0.21600 0.12700 -0.09900
O 	O 	0.44070 0.13540 0.07190 0.05600
O 	O 	0.69970 0.13260 0.07300 -0.02700
O 	O 	0.26990 0.90240 0.76810 -0.27200
C 	C 	0.42750 0.11570 0.04960 0.42900
C 	C 	0.69490 0.11690 0.05020 0.30200
C 	C 	0.32060 0.89230 0.75580 0.18200
C 	C 	0.49300 0.10740 0.03520 -0.02200
C 	C 	0.48770 0.09500 0.00880 -0.04200
C 	C 	0.56050 0.11390 0.04865 -0.11600
C 	C 	0.54990 0.08910 0.99584 -0.04000
H 	H 	0.44160 0.09060 0.99960 0.02800
C 	C 	0.62270 0.10800 0.03570 0.04300
H 	H 	0.56410 0.12240 0.06670 -0.21500
C 	C 	0.54310 0.07180 0.96629 -0.03000
C 	C 	0.61730 0.09560 0.00930 -0.10200
C 	C 	0.47680 0.06690 0.95255 -0.11800
C 	C 	0.60640 0.06750 0.95350 0.00000
H 	H 	0.65990 0.09160 0.00050 -0.14800
C 	C 	0.47380 0.05780 0.92602 -0.09800
H 	H 	0.43350 0.06980 0.96130 0.08800
H 	H 	0.65170 0.07080 0.96290 -0.01900
C 	C 	0.60340 0.05840 0.92697 -0.00200
H 	H 	0.42850 0.05450 0.91660 0.07000
C 	C 	0.53700 0.05350 0.91323 -0.01000
H 	H 	0.64670 0.05550 0.91820 -0.02600
C 	C 	0.52200 0.03270 0.88522 -0.00200
C 	C 	0.55470 0.98610 0.87501 -0.02900
C 	C 	0.47790 0.05760 0.86960 -0.03200
C 	C 	0.54320 0.96440 0.84918 -0.04400
H 	H 	0.58490 0.96910 0.88570 0.05000
C 	C 	0.46640 0.03590 0.84380 -0.03500
H 	H 	0.45550 0.08940 0.87660 0.03700
C 	C 	0.49910 0.98930 0.83356 0.01000
H 	H 	0.56560 0.93260 0.84220 0.05700
H 	H 	0.43620 0.05290 0.83310 0.03600
C 	C 	0.49380 0.95810 0.80521 0.00900
C 	C 	0.54790 0.94030 0.79200 0.04500
C 	C 	0.42060 0.94420 0.79360 -0.06500
C 	C 	0.52900 0.90880 0.76720 0.05000
H 	H 	0.59790 0.94980 0.79990 0.03100
C 	C 	0.40170 0.91270 0.76880 -0.09500
H 	H 	0.38360 0.95640 0.80260 0.01800
C 	C 	0.45580 0.89490 0.75560 0.02600
H 	H 	0.44290 0.87340 0.73860 0.02400
Cu	Cu	0.79800 0.17870 0.09044 0.37600
Cu	Cu	0.84530 0.13220 0.04890 1.08600
O 	O 	0.75700 0.21300 0.12550 -0.11500
O 	O 	0.87680 0.09410 0.01520 -0.52400
O 	O 	0.87490 0.24260 0.03580 -0.55500
O 	O 	0.83450 0.28200 0.07070 -0.39100
C 	C 	0.85770 0.28850 0.04870 -0.21400
C 	C 	0.86570 0.36360 0.03470 -0.03300
C 	C 	0.86140 0.42660 0.04771 0.09900
H 	H 	0.85340 0.42310 0.06580 0.28300
C 	C 	0.86910 0.49460 0.03430 -0.00700
C 	C 	0.88090 0.49960 0.00790 0.00800
H 	H 	0.88610 0.54610 0.99870 0.25700
C 	C 	0.88510 0.43670 0.99485 0.05600
C 	C 	0.87750 0.36860 0.00830 0.01100
H 	H 	0.88040 0.32560 0.99940 0.03900
C 	C 	0.85990 0.56220 0.04750 -0.02600
O 	O 	0.84250 0.54860 0.07030 -0.31700
O 	O 	0.87340 0.62330 0.03320 -0.71100
C 	C 	0.89930 0.44280 0.96492 0.07200
C 	C 	0.90680 0.51020 0.95116 -0.05900
H 	H 	0.90360 0.55340 0.95980 0.07400
C 	C 	0.91900 0.51430 0.92476 -0.05500
H 	H 	0.92420 0.56040 0.91540 0.07600
C 	C 	0.92380 0.45110 0.91210 0.04200
C 	C 	0.91630 0.38370 0.92586 0.04300
H 	H 	0.91960 0.34040 0.91720 -0.02900
C 	C 	0.90410 0.37950 0.95227 0.04600
H 	H 	0.89900 0.33340 0.96170 -0.03400
C 	C 	0.94870 0.46780 0.88413 0.01900
C 	C 	0.91770 0.50340 0.86720 -0.04900
H 	H 	0.87870 0.51850 0.87310 0.04400
C 	C 	0.94360 0.51670 0.84177 -0.03700
H 	H 	0.92240 0.54110 0.83020 0.03700
C 	C 	0.00060 0.49460 0.83323 0.01100
C 	C 	0.03170 0.45900 0.85010 -0.03400
H 	H 	0.07060 0.44380 0.84430 0.05500
C 	C 	0.00570 0.44560 0.87559 -0.03400
H 	H 	0.02700 0.42120 0.88720 0.05200
C 	C 	0.03720 0.50470 0.80537 0.01600
C 	C 	0.05830 0.45190 0.79280 0.04300
H 	H 	0.04830 0.40190 0.80090 0.02100
C 	C 	0.09410 0.47230 0.76860 0.04300
C 	C 	0.10870 0.54550 0.75680 0.02200
H 	H 	0.13320 0.55940 0.74030 0.03500
C 	C 	0.08760 0.59830 0.76940 -0.12600
C 	C 	0.05180 0.57790 0.79360 -0.04900
H 	H 	0.03740 0.61400 0.80220 0.00600
C 	C 	0.12280 0.41820 0.75570 0.07800
O 	O 	0.11490 0.36020 0.76960 -0.09400
O 	O 	0.15680 0.43880 0.73410 0.03200
C 	C 	0.10620 0.67530 0.75650 0.20300
O 	O 	0.13530 0.69160 0.73350 -0.41000
O 	O 	0.09960 0.73150 0.76930 -0.28200
Cu	Cu	0.95377 0.46683 0.38263 -0.18000
O 	O 	0.22977 0.18133 0.06623 0.02500
Cu	Cu	0.04767 0.51253 0.42448 0.55000
O 	O 	0.87837 0.42443 0.35023 0.33300
O 	O 	0.02867 0.42853 0.37103 0.28000
O 	O 	0.41517 0.43813 0.37173 0.35900
O 	O 	0.97507 0.19613 0.06643 -0.35600
C 	C 	0.24887 0.21513 0.08833 0.05700
O 	O 	0.30697 0.21763 0.10263 -0.07200
O 	O 	0.11767 0.54933 0.46033 -0.09900
O 	O 	0.10737 0.46873 0.40523 0.05500
O 	O 	0.36637 0.46593 0.40633 -0.02700
O 	O 	0.93657 0.23573 0.10143 -0.27200
C 	C 	0.09417 0.44903 0.38293 0.42800
C 	C 	0.36157 0.45023 0.38353 0.30200
C 	C 	0.98727 0.22563 0.08913 0.18100
C 	C 	0.15967 0.44073 0.36853 -0.02200
C 	C 	0.15437 0.42833 0.34213 -0.04200
C 	C 	0.22717 0.44723 0.38198 -0.11500
C 	C 	0.21657 0.42243 0.32917 -0.04000
H 	H 	0.10827 0.42393 0.33293 0.02800
C 	C 	0.28937 0.44133 0.36903 0.04200
H 	H 	0.23077 0.45573 0.40003 -0.21500
C 	C 	0.20977 0.40513 0.29962 -0.03100
C 	C 	0.28397 0.42893 0.34263 -0.10300
C 	C 	0.14347 0.40023 0.28588 -0.11900
C 	C 	0.27307 0.40083 0.28683 0.00000
H 	H 	0.32657 0.42493 0.33383 -0.14900
C 	C 	0.14047 0.39113 0.25935 -0.09800
H 	H 	0.10017 0.40313 0.29463 0.08800
H 	H 	0.31837 0.40413 0.29623 -0.01800
C 	C 	0.27007 0.39173 0.26030 -0.00200
H 	H 	0.09517 0.38783 0.24993 0.07000
C 	C 	0.20367 0.38683 0.24656 -0.01100
H 	H 	0.31337 0.38883 0.25153 -0.02600
C 	C 	0.18867 0.36603 0.21855 -0.00200
C 	C 	0.22137 0.31943 0.20834 -0.02900
C 	C 	0.14457 0.39093 0.20293 -0.03000
C 	C 	0.20987 0.29773 0.18251 -0.04500
H 	H 	0.25157 0.30243 0.21903 0.05000
C 	C 	0.13307 0.36923 0.17713 -0.03500
H 	H 	0.12217 0.42273 0.20993 0.03700
C 	C 	0.16577 0.32263 0.16689 0.00900
H 	H 	0.23227 0.26593 0.17553 0.05700
H 	H 	0.10287 0.38623 0.16643 0.03600
C 	C 	0.16047 0.29143 0.13854 0.00900
C 	C 	0.21457 0.27363 0.12533 0.04500
C 	C 	0.08727 0.27753 0.12693 -0.06600
C 	C 	0.19567 0.24213 0.10053 0.05000
H 	H 	0.26457 0.28313 0.13323 0.03100
C 	C 	0.06837 0.24603 0.10213 -0.09500
H 	H 	0.05027 0.28973 0.13593 0.02000
C 	C 	0.12247 0.22823 0.08893 0.02600
H 	H 	0.10957 0.20673 0.07193 0.02400
Cu	Cu	0.46467 0.51203 0.42377 0.37600
Cu	Cu	0.51197 0.46553 0.38223 1.08600
O 	O 	0.42367 0.54633 0.45883 -0.11500
O 	O 	0.54347 0.42743 0.34853 -0.52400
O 	O 	0.54157 0.57593 0.36913 -0.55500
O 	O 	0.50117 0.61533 0.40403 -0.39100
C 	C 	0.52437 0.62183 0.38203 -0.21400
C 	C 	0.53237 0.69693 0.36803 -0.03300
C 	C 	0.52807 0.75993 0.38104 0.09900
H 	H 	0.52007 0.75643 0.39913 0.28300
C 	C 	0.53577 0.82793 0.36763 -0.00700
C 	C 	0.54757 0.83293 0.34123 0.00800
H 	H 	0.55277 0.87943 0.33203 0.25700
C 	C 	0.55177 0.77003 0.32818 0.05600
C 	C 	0.54417 0.70193 0.34163 0.01100
H 	H 	0.54707 0.65893 0.33273 0.03900
C 	C 	0.52657 0.89553 0.38083 -0.02700
O 	O 	0.50917 0.88193 0.40363 -0.31800
O 	O 	0.54007 0.95663 0.36653 -0.71200
C 	C 	0.56597 0.77613 0.29825 0.07300
C 	C 	0.57347 0.84353 0.28449 -0.05800
H 	H 	0.57027 0.88673 0.29313 0.07300
C 	C 	0.58567 0.84763 0.25809 -0.05400
H 	H 	0.59087 0.89373 0.24873 0.07600
C 	C 	0.59047 0.78443 0.24543 0.04200
C 	C 	0.58297 0.71703 0.25919 0.04300
H 	H 	0.58627 0.67373 0.25053 -0.02900
C 	C 	0.57077 0.71283 0.28560 0.04700
H 	H 	0.56567 0.66673 0.29503 -0.03400
C 	C 	0.61537 0.80113 0.21746 0.02100
C 	C 	0.58437 0.83673 0.20053 -0.05000
H 	H 	0.54537 0.85183 0.20643 0.04500
C 	C 	0.61027 0.85003 0.17510 -0.03500
H 	H 	0.58907 0.87443 0.16353 0.03700
C 	C 	0.66727 0.82793 0.16656 0.01100
C 	C 	0.69837 0.79233 0.18343 -0.03300
H 	H 	0.73727 0.77713 0.17763 0.05400
C 	C 	0.67237 0.77893 0.20892 -0.03700
H 	H 	0.69367 0.75453 0.22053 0.05300
C 	C 	0.70387 0.83803 0.13870 0.01600
C 	C 	0.72497 0.78523 0.12613 0.04300
H 	H 	0.71497 0.73523 0.13423 0.02100
C 	C 	0.76077 0.80563 0.10193 0.04300
C 	C 	0.77537 0.87883 0.09013 0.02200
H 	H 	0.79987 0.89273 0.07363 0.03500
C 	C 	0.75427 0.93163 0.10273 -0.12700
C 	C 	0.71847 0.91123 0.12693 -0.04900
H 	H 	0.70407 0.94733 0.13553 0.00600
C 	C 	0.78947 0.75153 0.08903 0.07800
O 	O 	0.78157 0.69353 0.10293 -0.09500
O 	O 	0.82347 0.77213 0.06743 0.03200
C 	C 	0.77287 0.00863 0.08983 0.20300
O 	O 	0.80197 0.02493 0.06683 -0.41000
O 	O 	0.76627 0.06483 0.10263 -0.28200
Cu	Cu	0.62043 0.80017 0.71597 -0.17900
O 	O 	0.89643 0.51467 0.39957 0.02500
Cu	Cu	0.71433 0.84587 0.75782 0.55000
O 	O 	0.54503 0.75777 0.68357 0.33100
O 	O 	0.69533 0.76187 0.70437 0.28000
O 	O 	0.08183 0.77147 0.70507 0.36100
O 	O 	0.64173 0.52947 0.39977 -0.35600
C 	C 	0.91553 0.54847 0.42167 0.05700
O 	O 	0.97363 0.55097 0.43597 -0.07200
O 	O 	0.78433 0.88267 0.79367 -0.09900
O 	O 	0.77403 0.80207 0.73857 0.05500
O 	O 	0.03303 0.79927 0.73967 -0.02600
O 	O 	0.60323 0.56907 0.43477 -0.27200
C 	C 	0.76083 0.78237 0.71627 0.42800
C 	C 	0.02823 0.78357 0.71687 0.30400
C 	C 	0.65393 0.55897 0.42247 0.18200
C 	C 	0.82633 0.77407 0.70187 -0.02200
C 	C 	0.82103 0.76167 0.67547 -0.04200
C 	C 	0.89383 0.78057 0.71532 -0.11600
C 	C 	0.88323 0.75577 0.66251 -0.04000
H 	H 	0.77493 0.75727 0.66627 0.02800
C 	C 	0.95603 0.77467 0.70237 0.04200
H 	H 	0.89743 0.78907 0.73337 -0.21600
C 	C 	0.87643 0.73847 0.63296 -0.03100
C 	C 	0.95063 0.76227 0.67597 -0.10300
C 	C 	0.81013 0.73357 0.61922 -0.11900
C 	C 	0.93973 0.73417 0.62017 0.00000
H 	H 	0.99323 0.75827 0.66717 -0.15000
C 	C 	0.80713 0.72447 0.59269 -0.09800
H 	H 	0.76683 0.73647 0.62797 0.08800
H 	H 	0.98503 0.73747 0.62957 -0.01800
C 	C 	0.93673 0.72507 0.59364 -0.00200
H 	H 	0.76183 0.72117 0.58327 0.07000
C 	C 	0.87033 0.72017 0.57990 -0.01100
H 	H 	0.98003 0.72217 0.58487 -0.02600
C 	C 	0.85533 0.69937 0.55189 -0.00200
C 	C 	0.88803 0.65277 0.54168 -0.03000
C 	C 	0.81123 0.72427 0.53627 -0.03000
C 	C 	0.87653 0.63107 0.51585 -0.04400
H 	H 	0.91823 0.63577 0.55237 0.05000
C 	C 	0.79973 0.70257 0.51047 -0.03400
H 	H 	0.78883 0.75607 0.54327 0.03700
C 	C 	0.83243 0.65597 0.50023 0.00900
H 	H 	0.89893 0.59927 0.50887 0.05700
H 	H 	0.76953 0.71957 0.49977 0.03600
C 	C 	0.82713 0.62477 0.47188 0.00900
C 	C 	0.88123 0.60697 0.45867 0.04500
C 	C 	0.75393 0.61087 0.46027 -0.06500
C 	C 	0.86233 0.57547 0.43387 0.05000
H 	H 	0.93123 0.61647 0.46657 0.03100
C 	C 	0.73503 0.57937 0.43547 -0.09500
H 	H 	0.71693 0.62307 0.46927 0.01900
C 	C 	0.78913 0.56157 0.42227 0.02600
H 	H 	0.77623 0.54007 0.40527 0.02400
Cu	Cu	0.13133 0.84537 0.75711 0.37500
Cu	Cu	0.17863 0.79887 0.71557 1.09100
O 	O 	0.09033 0.87967 0.79217 -0.11500
O 	O 	0.21013 0.76077 0.68187 -0.52600
O 	O 	0.20823 0.90927 0.70247 -0.55700
O 	O 	0.16783 0.94867 0.73737 -0.39300
C 	C 	0.19103 0.95517 0.71537 -0.21500
C 	C 	0.19903 0.03027 0.70137 -0.03200
C 	C 	0.19473 0.09327 0.71438 0.10000
H 	H 	0.18673 0.08977 0.73247 0.28300
C 	C 	0.20243 0.16127 0.70097 -0.00700
C 	C 	0.21423 0.16627 0.67457 0.00800
H 	H 	0.21943 0.21277 0.66537 0.25700
C 	C 	0.21843 0.10337 0.66152 0.05700
C 	C 	0.21083 0.03527 0.67497 0.01400
H 	H 	0.21373 0.99227 0.66607 0.04200
C 	C 	0.19323 0.22887 0.71417 -0.02800
O 	O 	0.17583 0.21527 0.73697 -0.31900
O 	O 	0.20673 0.28997 0.69987 -0.71300
C 	C 	0.23263 0.10947 0.63159 0.07300
C 	C 	0.24013 0.17687 0.61783 -0.05800
H 	H 	0.23693 0.22007 0.62647 0.07300
C 	C 	0.25233 0.18097 0.59143 -0.05400
H 	H 	0.25753 0.22707 0.58207 0.07600
C 	C 	0.25713 0.11777 0.57877 0.04200
C 	C 	0.24963 0.05037 0.59253 0.04300
H 	H 	0.25293 0.00707 0.58387 -0.02900
C 	C 	0.23743 0.04617 0.61894 0.04700
H 	H 	0.23233 0.00007 0.62837 -0.03500
C 	C 	0.28203 0.13447 0.55080 0.02100
C 	C 	0.25103 0.17007 0.53387 -0.05000
H 	H 	0.21203 0.18517 0.53977 0.04500
C 	C 	0.27693 0.18337 0.50844 -0.03500
H 	H 	0.25573 0.20777 0.49687 0.03700
C 	C 	0.33393 0.16127 0.49990 0.01100
C 	C 	0.36503 0.12567 0.51677 -0.03300
H 	H 	0.40393 0.11047 0.51097 0.05400
C 	C 	0.33903 0.11227 0.54226 -0.03700
H 	H 	0.36033 0.08787 0.55387 0.05300
C 	C 	0.37053 0.17137 0.47204 0.01600
C 	C 	0.39163 0.11857 0.45947 0.04300
H 	H 	0.38163 0.06857 0.46757 0.02100
C 	C 	0.42743 0.13897 0.43527 0.04300
C 	C 	0.44203 0.21217 0.42347 0.02200
H 	H 	0.46653 0.22607 0.40697 0.03500
C 	C 	0.42093 0.26497 0.43607 -0.12600
C 	C 	0.38513 0.24457 0.46027 -0.04900
H 	H 	0.37073 0.28067 0.46887 0.00600
C 	C 	0.45613 0.08487 0.42237 0.07800
O 	O 	0.44823 0.02687 0.43627 -0.09500
O 	O 	0.49013 0.10547 0.40077 0.03200
C 	C 	0.43953 0.34197 0.42317 0.20300
O 	O 	0.46863 0.35827 0.40017 -0.41000
O 	O 	0.43293 0.39817 0.43597 -0.28200
Cu	Cu	0.86650 0.15360 0.04930 -0.17800
O 	O 	0.15200 0.71510 0.73290 0.02600
Cu	Cu	0.82080 0.20180 0.09115 0.55000
O 	O 	0.90890 0.12060 0.01690 0.33100
O 	O 	0.90480 0.26680 0.03770 0.28100
O 	O 	0.89520 0.64370 0.03840 0.35800
O 	O 	0.13720 0.44560 0.73310 -0.35600
C 	C 	0.11820 0.70040 0.75500 0.05700
O 	O 	0.11570 0.75600 0.76930 -0.07200
O 	O 	0.78400 0.23500 0.12700 -0.09900
O 	O 	0.86460 0.30530 0.07190 0.05600
O 	O 	0.86740 0.56710 0.07300 -0.02800
O 	O 	0.09760 0.36750 0.76810 -0.27200
C 	C 	0.88430 0.31180 0.04960 0.42900
C 	C 	0.88310 0.57800 0.05020 0.30200
C 	C 	0.10770 0.42830 0.75580 0.18200
C 	C 	0.89260 0.38560 0.03520 -0.02200
C 	C 	0.90500 0.39270 0.00880 -0.04200
C 	C 	0.88610 0.44660 0.04865 -0.11500
C 	C 	0.91090 0.46080 0.99584 -0.04000
H 	H 	0.90940 0.35100 0.99960 0.02800
C 	C 	0.89200 0.51470 0.03570 0.04200
H 	H 	0.87760 0.44170 0.06670 -0.21500
C 	C 	0.92820 0.47130 0.96629 -0.03000
C 	C 	0.90440 0.52170 0.00930 -0.10200
C 	C 	0.93310 0.40990 0.95255 -0.11800
C 	C 	0.93250 0.53890 0.95350 0.00000
H 	H 	0.90840 0.56830 0.00050 -0.14800
C 	C 	0.94220 0.41600 0.92602 -0.09800
H 	H 	0.93020 0.36370 0.96130 0.08800
H 	H 	0.92920 0.58090 0.96290 -0.01900
C 	C 	0.94160 0.54500 0.92697 -0.00200
H 	H 	0.94550 0.37400 0.91660 0.07000
C 	C 	0.94650 0.48350 0.91323 -0.01000
H 	H 	0.94450 0.59120 0.91820 -0.02600
C 	C 	0.96730 0.48930 0.88522 -0.00200
C 	C 	0.01390 0.56860 0.87501 -0.02900
C 	C 	0.94240 0.42030 0.86960 -0.03200
C 	C 	0.03560 0.57880 0.84918 -0.04400
H 	H 	0.03090 0.61580 0.88570 0.05000
C 	C 	0.96410 0.43050 0.84380 -0.03500
H 	H 	0.91060 0.36610 0.87660 0.03700
C 	C 	0.01070 0.50980 0.83356 0.01000
H 	H 	0.06740 0.63300 0.84220 0.05700
H 	H 	0.94710 0.38330 0.83310 0.03600
C 	C 	0.04190 0.53570 0.80521 0.00900
C 	C 	0.05970 0.60760 0.79200 0.04500
C 	C 	0.05580 0.47640 0.79360 -0.06500
C 	C 	0.09120 0.62020 0.76720 0.05000
H 	H 	0.05020 0.64810 0.79990 0.03100
C 	C 	0.08730 0.48900 0.76880 -0.09500
H 	H 	0.04360 0.42720 0.80260 0.01800
C 	C 	0.10510 0.56090 0.75560 0.02600
H 	H 	0.12660 0.56950 0.73860 0.02400
Cu	Cu	0.82130 0.61930 0.09044 0.37600
Cu	Cu	0.86780 0.71310 0.04890 1.08600
O 	O 	0.78700 0.54400 0.12550 -0.11500
O 	O 	0.90590 0.78270 0.01520 -0.52400
O 	O 	0.75740 0.63230 0.03580 -0.55500
O 	O 	0.71800 0.55250 0.07070 -0.39100
C 	C 	0.71150 0.56920 0.04870 -0.21400
C 	C 	0.63640 0.50210 0.03470 -0.03300
C 	C 	0.57340 0.43480 0.04771 0.09900
H 	H 	0.57690 0.43030 0.06580 0.28300
C 	C 	0.50540 0.37450 0.03430 -0.00600
C 	C 	0.50040 0.38130 0.00790 0.00800
H 	H 	0.45390 0.34000 0.99870 0.25800
C 	C 	0.56330 0.44840 0.99485 0.05600
C 	C 	0.63140 0.50890 0.00830 0.01100
H 	H 	0.67440 0.55480 0.99940 0.03900
C 	C 	0.43780 0.29770 0.04750 -0.02700
O 	O 	0.45140 0.29390 0.07030 -0.31700
O 	O 	0.37670 0.25010 0.03320 -0.71100
C 	C 	0.55720 0.45650 0.96492 0.07200
C 	C 	0.48980 0.39660 0.95116 -0.05800
H 	H 	0.44660 0.35020 0.95980 0.07300
C 	C 	0.48570 0.40470 0.92476 -0.05400
H 	H 	0.43960 0.36380 0.91540 0.07600
C 	C 	0.54890 0.47270 0.91210 0.04200
C 	C 	0.61630 0.53260 0.92586 0.04300
H 	H 	0.65960 0.57920 0.91720 -0.02900
C 	C 	0.62050 0.52460 0.95227 0.04700
H 	H 	0.66660 0.56560 0.96170 -0.03400
C 	C 	0.53220 0.48090 0.88413 0.02100
C 	C 	0.49660 0.41430 0.86720 -0.05000
H 	H 	0.48150 0.36020 0.87310 0.04500
C 	C 	0.48330 0.42690 0.84177 -0.03500
H 	H 	0.45890 0.38130 0.83020 0.03700
C 	C 	0.50540 0.50600 0.83323 0.01100
C 	C 	0.54100 0.57270 0.85010 -0.03300
H 	H 	0.55620 0.62680 0.84430 0.05400
C 	C 	0.55440 0.56010 0.87559 -0.03700
H 	H 	0.57880 0.60580 0.88720 0.05300
C 	C 	0.49530 0.53250 0.80537 0.01600
C 	C 	0.54810 0.60640 0.79280 0.04300
H 	H 	0.59810 0.64640 0.80090 0.02000
C 	C 	0.52770 0.62180 0.76860 0.04300
C 	C 	0.45450 0.56320 0.75680 0.02100
H 	H 	0.44060 0.57380 0.74030 0.03500
C 	C 	0.40170 0.48930 0.76940 -0.12600
C 	C 	0.42210 0.47390 0.79360 -0.04900
H 	H 	0.38600 0.42340 0.80220 0.00600
C 	C 	0.58180 0.70460 0.75570 0.07800
O 	O 	0.63980 0.75470 0.76960 -0.09500
O 	O 	0.56120 0.71800 0.73410 0.03200
C 	C 	0.32470 0.43090 0.75650 0.20300
O 	O 	0.30840 0.44370 0.73350 -0.41000
O 	O 	0.26850 0.36810 0.76930 -0.28200
Cu	Cu	0.53317 0.48693 0.38263 -0.17800
O 	O 	0.81867 0.04843 0.06623 0.02500
Cu	Cu	0.48747 0.53513 0.42448 0.55000
O 	O 	0.57557 0.45393 0.35023 0.33200
O 	O 	0.57147 0.60013 0.37103 0.28100
O 	O 	0.56187 0.97703 0.37173 0.35900
O 	O 	0.80387 0.77893 0.06643 -0.35600
C 	C 	0.78487 0.03373 0.08833 0.05800
O 	O 	0.78237 0.08933 0.10263 -0.07200
O 	O 	0.45067 0.56833 0.46033 -0.09900
O 	O 	0.53127 0.63863 0.40523 0.05600
O 	O 	0.53407 0.90043 0.40633 -0.02700
O 	O 	0.76427 0.70083 0.10143 -0.27200
C 	C 	0.55097 0.64513 0.38293 0.42800
C 	C 	0.54977 0.91133 0.38353 0.30200
C 	C 	0.77437 0.76163 0.08913 0.18200
C 	C 	0.55927 0.71893 0.36853 -0.02200
C 	C 	0.57167 0.72603 0.34213 -0.04200
C 	C 	0.55277 0.77993 0.38198 -0.11600
C 	C 	0.57757 0.79413 0.32917 -0.04000
H 	H 	0.57607 0.68433 0.33293 0.02800
C 	C 	0.55867 0.84803 0.36903 0.04300
H 	H 	0.54427 0.77503 0.40003 -0.21500
C 	C 	0.59487 0.80463 0.29962 -0.03100
C 	C 	0.57107 0.85503 0.34263 -0.10200
C 	C 	0.59977 0.74323 0.28588 -0.11900
C 	C 	0.59917 0.87223 0.28683 0.00000
H 	H 	0.57507 0.90163 0.33383 -0.14800
C 	C 	0.60887 0.74933 0.25935 -0.09800
H 	H 	0.59687 0.69703 0.29463 0.08800
H 	H 	0.59587 0.91423 0.29623 -0.01800
C 	C 	0.60827 0.87833 0.26030 -0.00200
H 	H 	0.61217 0.70733 0.24993 0.07000
C 	C 	0.61317 0.81683 0.24656 -0.01100
H 	H 	0.61117 0.92453 0.25153 -0.02600
C 	C 	0.63397 0.82263 0.21855 -0.00200
C 	C 	0.68057 0.90193 0.20834 -0.03000
C 	C 	0.60907 0.75363 0.20293 -0.03000
C 	C 	0.70227 0.91213 0.18251 -0.04500
H 	H 	0.69757 0.94913 0.21903 0.04900
C 	C 	0.63077 0.76383 0.17713 -0.03400
H 	H 	0.57727 0.69943 0.20993 0.03700
C 	C 	0.67737 0.84313 0.16689 0.00900
H 	H 	0.73407 0.96633 0.17553 0.05600
H 	H 	0.61377 0.71663 0.16643 0.03600
C 	C 	0.70857 0.86903 0.13854 0.00900
C 	C 	0.72637 0.94093 0.12533 0.04500
C 	C 	0.72247 0.80973 0.12693 -0.06500
C 	C 	0.75787 0.95353 0.10053 0.05100
H 	H 	0.71687 0.98143 0.13323 0.03100
C 	C 	0.75397 0.82233 0.10213 -0.09500
H 	H 	0.71027 0.76053 0.13593 0.01900
C 	C 	0.77177 0.89423 0.08893 0.02600
H 	H 	0.79327 0.90283 0.07193 0.02400
Cu	Cu	0.48797 0.95263 0.42377 0.37600
Cu	Cu	0.53447 0.04643 0.38223 1.08800
O 	O 	0.45367 0.87733 0.45883 -0.11500
O 	O 	0.57257 0.11603 0.34853 -0.52400
O 	O 	0.42407 0.96563 0.36913 -0.55400
O 	O 	0.38467 0.88583 0.40403 -0.39000
C 	C 	0.37817 0.90253 0.38203 -0.21300
C 	C 	0.30307 0.83543 0.36803 -0.03300
C 	C 	0.24007 0.76813 0.38104 0.09900
H 	H 	0.24357 0.76363 0.39913 0.28300
C 	C 	0.17207 0.70783 0.36763 -0.00700
C 	C 	0.16707 0.71463 0.34123 0.00800
H 	H 	0.12057 0.67333 0.33203 0.25800
C 	C 	0.22997 0.78173 0.32818 0.05600
C 	C 	0.29807 0.84223 0.34163 0.01100
H 	H 	0.34107 0.88813 0.33273 0.03900
C 	C 	0.10447 0.63103 0.38083 -0.02700
O 	O 	0.11807 0.62723 0.40363 -0.31800
O 	O 	0.04337 0.58343 0.36653 -0.71200
C 	C 	0.22387 0.78983 0.29825 0.07200
C 	C 	0.15647 0.72993 0.28449 -0.05800
H 	H 	0.11327 0.68353 0.29313 0.07300
C 	C 	0.15237 0.73803 0.25809 -0.05400
H 	H 	0.10627 0.69713 0.24873 0.07700
C 	C 	0.21557 0.80603 0.24543 0.04200
C 	C 	0.28297 0.86593 0.25919 0.04300
H 	H 	0.32627 0.91253 0.25053 -0.03000
C 	C 	0.28717 0.85793 0.28560 0.04700
H 	H 	0.33327 0.89893 0.29503 -0.03400
C 	C 	0.19887 0.81423 0.21746 0.02100
C 	C 	0.16327 0.74763 0.20053 -0.05000
H 	H 	0.14817 0.69353 0.20643 0.04500
C 	C 	0.14997 0.76023 0.17510 -0.03500
H 	H 	0.12557 0.71463 0.16353 0.03700
C 	C 	0.17207 0.83933 0.16656 0.01100
C 	C 	0.20767 0.90603 0.18343 -0.03300
H 	H 	0.22287 0.96013 0.17763 0.05400
C 	C 	0.22107 0.89343 0.20892 -0.03700
H 	H 	0.24547 0.93913 0.22053 0.05300
C 	C 	0.16197 0.86583 0.13870 0.01600
C 	C 	0.21477 0.93973 0.12613 0.04300
H 	H 	0.26477 0.97973 0.13423 0.02000
C 	C 	0.19437 0.95513 0.10193 0.04300
C 	C 	0.12117 0.89653 0.09013 0.02200
H 	H 	0.10727 0.90713 0.07363 0.03500
C 	C 	0.06837 0.82263 0.10273 -0.12700
C 	C 	0.08877 0.80723 0.12693 -0.04900
H 	H 	0.05267 0.75673 0.13553 0.00600
C 	C 	0.24847 0.03793 0.08903 0.07900
O 	O 	0.30647 0.08803 0.10293 -0.09500
O 	O 	0.22787 0.05133 0.06743 0.03300
C 	C 	0.99137 0.76423 0.08983 0.20300
O 	O 	0.97507 0.77703 0.06683 -0.41000
O 	O 	0.93517 0.70143 0.10263 -0.28200
Cu	Cu	0.19983 0.82027 0.71597 -0.18400
O 	O 	0.48533 0.38177 0.39957 0.02500
Cu	Cu	0.15413 0.86847 0.75782 0.55100
O 	O 	0.24223 0.78727 0.68357 0.33300
O 	O 	0.23813 0.93347 0.70437 0.28400
O 	O 	0.22853 0.31037 0.70507 0.36100
O 	O 	0.47053 0.11227 0.39977 -0.35600
C 	C 	0.45153 0.36707 0.42167 0.05700
O 	O 	0.44903 0.42267 0.43597 -0.07200
O 	O 	0.11733 0.90167 0.79367 -0.09900
O 	O 	0.19793 0.97197 0.73857 0.05800
O 	O 	0.20073 0.23377 0.73967 -0.02600
O 	O 	0.43093 0.03417 0.43477 -0.27200
C 	C 	0.21763 0.97847 0.71627 0.43000
C 	C 	0.21643 0.24467 0.71687 0.30300
C 	C 	0.44103 0.09497 0.42247 0.18100
C 	C 	0.22593 0.05227 0.70187 -0.02300
C 	C 	0.23833 0.05937 0.67547 -0.04400
C 	C 	0.21943 0.11327 0.71532 -0.11500
C 	C 	0.24423 0.12747 0.66251 -0.04100
H 	H 	0.24273 0.01767 0.66627 0.02500
C 	C 	0.22533 0.18137 0.70237 0.04300
H 	H 	0.21093 0.10837 0.73337 -0.21500
C 	C 	0.26153 0.13797 0.63296 -0.03100
C 	C 	0.23773 0.18837 0.67597 -0.10200
C 	C 	0.26643 0.07657 0.61922 -0.11900
C 	C 	0.26583 0.20557 0.62017 0.00000
H 	H 	0.24173 0.23497 0.66717 -0.14800
C 	C 	0.27553 0.08267 0.59269 -0.09800
H 	H 	0.26353 0.03037 0.62797 0.08800
H 	H 	0.26253 0.24757 0.62957 -0.01800
C 	C 	0.27493 0.21167 0.59364 -0.00200
H 	H 	0.27883 0.04067 0.58327 0.07000
C 	C 	0.27983 0.15017 0.57990 -0.01100
H 	H 	0.27783 0.25787 0.58487 -0.02600
C 	C 	0.30063 0.15597 0.55189 -0.00200
C 	C 	0.34723 0.23527 0.54168 -0.03000
C 	C 	0.27573 0.08697 0.53627 -0.03000
C 	C 	0.36893 0.24547 0.51585 -0.04400
H 	H 	0.36423 0.28247 0.55237 0.05000
C 	C 	0.29743 0.09717 0.51047 -0.03400
H 	H 	0.24393 0.03277 0.54327 0.03700
C 	C 	0.34403 0.17647 0.50023 0.00900
H 	H 	0.40073 0.29967 0.50887 0.05700
H 	H 	0.28043 0.04997 0.49977 0.03600
C 	C 	0.37523 0.20237 0.47188 0.00900
C 	C 	0.39303 0.27427 0.45867 0.04500
C 	C 	0.38913 0.14307 0.46027 -0.06500
C 	C 	0.42453 0.28687 0.43387 0.05000
H 	H 	0.38353 0.31477 0.46657 0.03100
C 	C 	0.42063 0.15567 0.43547 -0.09500
H 	H 	0.37693 0.09387 0.46927 0.01900
C 	C 	0.43843 0.22757 0.42227 0.02600
H 	H 	0.45993 0.23617 0.40527 0.02400
Cu	Cu	0.15463 0.28597 0.75711 0.37500
Cu	Cu	0.20113 0.37977 0.71557 1.09100
O 	O 	0.12033 0.21067 0.79217 -0.11400
O 	O 	0.23923 0.44937 0.68187 -0.52700
O 	O 	0.09073 0.29897 0.70247 -0.55700
O 	O 	0.05133 0.21917 0.73737 -0.39300
C 	C 	0.04483 0.23587 0.71537 -0.21500
C 	C 	0.96973 0.16877 0.70137 -0.03300
C 	C 	0.90673 0.10147 0.71438 0.09900
H 	H 	0.91023 0.09697 0.73247 0.28100
C 	C 	0.83873 0.04117 0.70097 -0.00800
C 	C 	0.83373 0.04797 0.67457 0.00700
H 	H 	0.78723 0.00667 0.66537 0.25500
C 	C 	0.89663 0.11507 0.66152 0.05700
C 	C 	0.96473 0.17557 0.67497 0.01400
H 	H 	0.00773 0.22147 0.66607 0.04100
C 	C 	0.77113 0.96437 0.71417 -0.02600
O 	O 	0.78473 0.96057 0.73697 -0.31700
O 	O 	0.71003 0.91677 0.69987 -0.71100
C 	C 	0.89053 0.12317 0.63159 0.07300
C 	C 	0.82313 0.06327 0.61783 -0.05800
H 	H 	0.77993 0.01687 0.62647 0.07300
C 	C 	0.81903 0.07137 0.59143 -0.05400
H 	H 	0.77293 0.03047 0.58207 0.07600
C 	C 	0.88223 0.13937 0.57877 0.04200
C 	C 	0.94963 0.19927 0.59253 0.04300
H 	H 	0.99293 0.24587 0.58387 -0.03000
C 	C 	0.95383 0.19127 0.61894 0.04700
H 	H 	0.99993 0.23227 0.62837 -0.03500
C 	C 	0.86553 0.14757 0.55080 0.02100
C 	C 	0.82993 0.08097 0.53387 -0.05000
H 	H 	0.81483 0.02687 0.53977 0.04500
C 	C 	0.81663 0.09357 0.50844 -0.03500
H 	H 	0.79223 0.04797 0.49687 0.03700
C 	C 	0.83873 0.17267 0.49990 0.01100
C 	C 	0.87433 0.23937 0.51677 -0.03300
H 	H 	0.88953 0.29347 0.51097 0.05400
C 	C 	0.88773 0.22677 0.54226 -0.03700
H 	H 	0.91213 0.27247 0.55387 0.05300
C 	C 	0.82863 0.19917 0.47204 0.01600
C 	C 	0.88143 0.27307 0.45947 0.04300
H 	H 	0.93143 0.31307 0.46757 0.02100
C 	C 	0.86103 0.28847 0.43527 0.04300
C 	C 	0.78783 0.22987 0.42347 0.02200
H 	H 	0.77393 0.24047 0.40697 0.03500
C 	C 	0.73503 0.15597 0.43607 -0.12600
C 	C 	0.75543 0.14057 0.46027 -0.04900
H 	H 	0.71933 0.09007 0.46887 0.00600
C 	C 	0.91513 0.37127 0.42237 0.07800
O 	O 	0.97313 0.42137 0.43627 -0.09500
O 	O 	0.89453 0.38467 0.40077 0.03200
C 	C 	0.65803 0.09757 0.42317 0.20300
O 	O 	0.64173 0.11037 0.40017 -0.41000
O 	O 	0.60183 0.03477 0.43597 -0.28200
Cu	Cu	0.84640 0.71290 0.04930 -0.17900
O 	O 	0.28490 0.43690 0.73290 0.02600
Cu	Cu	0.79820 0.61900 0.09115 0.55000
O 	O 	0.87940 0.78830 0.01690 0.33100
O 	O 	0.73320 0.63800 0.03770 0.28100
O 	O 	0.35630 0.25150 0.03840 0.35900
O 	O 	0.55440 0.69160 0.73310 -0.35600
C 	C 	0.29960 0.41780 0.75500 0.05700
O 	O 	0.24400 0.35970 0.76930 -0.07200
O 	O 	0.76500 0.54900 0.12700 -0.09900
O 	O 	0.69470 0.55930 0.07190 0.05600
O 	O 	0.43290 0.30030 0.07300 -0.02700
O 	O 	0.63250 0.73010 0.76810 -0.27200
C 	C 	0.68820 0.57250 0.04960 0.42800
C 	C 	0.42200 0.30510 0.05020 0.30200
C 	C 	0.57170 0.67940 0.75580 0.18200
C 	C 	0.61440 0.50700 0.03520 -0.02200
C 	C 	0.60730 0.51230 0.00880 -0.04200
C 	C 	0.55340 0.43950 0.04865 -0.11600
C 	C 	0.53920 0.45010 0.99584 -0.04000
H 	H 	0.64900 0.55840 0.99960 0.02800
C 	C 	0.48530 0.37730 0.03570 0.04300
H 	H 	0.55830 0.43590 0.06670 -0.21500
C 	C 	0.52870 0.45690 0.96629 -0.03100
C 	C 	0.47830 0.38270 0.00930 -0.10300
C 	C 	0.59010 0.52320 0.95255 -0.11900
C 	C 	0.46110 0.39360 0.95350 0.00000
H 	H 	0.43170 0.34010 0.00050 -0.14900
C 	C 	0.58400 0.52620 0.92602 -0.09800
H 	H 	0.63630 0.56650 0.96130 0.08800
H 	H 	0.41910 0.34830 0.96290 -0.01800
C 	C 	0.45500 0.39660 0.92697 -0.00200
H 	H 	0.62600 0.57150 0.91660 0.07000
C 	C 	0.51650 0.46300 0.91323 -0.01100
H 	H 	0.40880 0.35330 0.91820 -0.02600
C 	C 	0.51070 0.47800 0.88522 -0.00200
C 	C 	0.43140 0.44530 0.87501 -0.03000
C 	C 	0.57970 0.52210 0.86960 -0.03000
C 	C 	0.42120 0.45680 0.84918 -0.04400
H 	H 	0.38420 0.41510 0.88570 0.05000
C 	C 	0.56950 0.53360 0.84380 -0.03400
H 	H 	0.63390 0.54450 0.87660 0.03700
C 	C 	0.49020 0.50090 0.83356 0.00900
H 	H 	0.36700 0.43440 0.84220 0.05700
H 	H 	0.61670 0.56380 0.83310 0.03600
C 	C 	0.46430 0.50620 0.80521 0.00900
C 	C 	0.39240 0.45210 0.79200 0.04500
C 	C 	0.52360 0.57940 0.79360 -0.06500
C 	C 	0.37980 0.47100 0.76720 0.05000
H 	H 	0.35190 0.40210 0.79990 0.03100
C 	C 	0.51100 0.59830 0.76880 -0.09500
H 	H 	0.57280 0.61640 0.80260 0.01900
C 	C 	0.43910 0.54420 0.75560 0.02600
H 	H 	0.43050 0.55710 0.73860 0.02400
Cu	Cu	0.38070 0.20200 0.09044 0.37600
Cu	Cu	0.28690 0.15470 0.04890 1.08600
O 	O 	0.45600 0.24300 0.12550 -0.11500
O 	O 	0.21730 0.12320 0.01520 -0.52400
O 	O 	0.36770 0.12510 0.03580 -0.55500
O 	O 	0.44750 0.16550 0.07070 -0.39100
C 	C 	0.43080 0.14230 0.04870 -0.21400
C 	C 	0.49790 0.13430 0.03470 -0.03300
C 	C 	0.56520 0.13860 0.04771 0.09900
H 	H 	0.56970 0.14660 0.06580 0.28300
C 	C 	0.62550 0.13090 0.03430 -0.00700
C 	C 	0.61870 0.11910 0.00790 0.00700
H 	H 	0.66000 0.11390 0.99870 0.25700
C 	C 	0.55160 0.11490 0.99485 0.05600
C 	C 	0.49110 0.12250 0.00830 0.01100
H 	H 	0.44520 0.11960 0.99940 0.03900
C 	C 	0.70230 0.14010 0.04750 -0.02700
O 	O 	0.70610 0.15750 0.07030 -0.31700
O 	O 	0.74990 0.12660 0.03320 -0.71100
C 	C 	0.54350 0.10070 0.96492 0.07200
C 	C 	0.60340 0.09320 0.95116 -0.05900
H 	H 	0.64980 0.09640 0.95980 0.07400
C 	C 	0.59530 0.08100 0.92476 -0.05500
H 	H 	0.63620 0.07580 0.91540 0.07600
C 	C 	0.52730 0.07620 0.91210 0.04200
C 	C 	0.46740 0.08370 0.92586 0.04300
H 	H 	0.42080 0.08040 0.91720 -0.02900
C 	C 	0.47540 0.09590 0.95227 0.04600
H 	H 	0.43440 0.10100 0.96170 -0.03400
C 	C 	0.51910 0.05130 0.88413 0.01900
C 	C 	0.58570 0.08230 0.86720 -0.04900
H 	H 	0.63980 0.12130 0.87310 0.04400
C 	C 	0.57310 0.05640 0.84177 -0.03700
H 	H 	0.61870 0.07760 0.83020 0.03700
C 	C 	0.49400 0.99940 0.83323 0.01100
C 	C 	0.42730 0.96830 0.85010 -0.03400
H 	H 	0.37320 0.92940 0.84430 0.05500
C 	C 	0.43990 0.99430 0.87559 -0.03400
H 	H 	0.39420 0.97300 0.88720 0.05200
C 	C 	0.46750 0.96280 0.80537 0.01600
C 	C 	0.39360 0.94170 0.79280 0.04300
H 	H 	0.35360 0.95170 0.80090 0.02100
C 	C 	0.37820 0.90590 0.76860 0.04300
C 	C 	0.43680 0.89130 0.75680 0.02200
H 	H 	0.42620 0.86680 0.74030 0.03500
C 	C 	0.51070 0.91240 0.76940 -0.12600
C 	C 	0.52610 0.94820 0.79360 -0.04900
H 	H 	0.57660 0.96260 0.80220 0.00600
C 	C 	0.29540 0.87720 0.75570 0.07800
O 	O 	0.24530 0.88510 0.76960 -0.09400
O 	O 	0.28200 0.84320 0.73410 0.03200
C 	C 	0.56910 0.89380 0.75650 0.20300
O 	O 	0.55630 0.86470 0.73350 -0.41000
O 	O 	0.63190 0.90040 0.76930 -0.28200
Cu	Cu	0.51307 0.04623 0.38263 -0.18000
O 	O 	0.95157 0.77023 0.06623 0.02500
Cu	Cu	0.46487 0.95233 0.42448 0.55000
O 	O 	0.54607 0.12163 0.35023 0.33200
O 	O 	0.39987 0.97133 0.37103 0.28000
O 	O 	0.02297 0.58483 0.37173 0.35900
O 	O 	0.22107 0.02493 0.06643 -0.35600
C 	C 	0.96627 0.75113 0.08833 0.05800
O 	O 	0.91067 0.69303 0.10263 -0.07200
O 	O 	0.43167 0.88233 0.46033 -0.09900
O 	O 	0.36137 0.89263 0.40523 0.05500
O 	O 	0.09957 0.63363 0.40633 -0.02700
O 	O 	0.29917 0.06343 0.10143 -0.27200
C 	C 	0.35487 0.90583 0.38293 0.42800
C 	C 	0.08867 0.63843 0.38353 0.30200
C 	C 	0.23837 0.01273 0.08913 0.18100
C 	C 	0.28107 0.84033 0.36853 -0.02200
C 	C 	0.27397 0.84563 0.34213 -0.04200
C 	C 	0.22007 0.77283 0.38198 -0.11500
C 	C 	0.20587 0.78343 0.32917 -0.04000
H 	H 	0.31567 0.89173 0.33293 0.02800
C 	C 	0.15197 0.71063 0.36903 0.04300
H 	H 	0.22497 0.76923 0.40003 -0.21500
C 	C 	0.19537 0.79023 0.29962 -0.03100
C 	C 	0.14497 0.71603 0.34263 -0.10300
C 	C 	0.25677 0.85653 0.28588 -0.11800
C 	C 	0.12777 0.72693 0.28683 0.00000
H 	H 	0.09837 0.67343 0.33383 -0.14900
C 	C 	0.25067 0.85953 0.25935 -0.09800
H 	H 	0.30297 0.89983 0.29463 0.08800
H 	H 	0.08577 0.68163 0.29623 -0.01900
C 	C 	0.12167 0.72993 0.26030 -0.00200
H 	H 	0.29267 0.90483 0.24993 0.07000
C 	C 	0.18317 0.79633 0.24656 -0.01100
H 	H 	0.07547 0.68663 0.25153 -0.02700
C 	C 	0.17737 0.81133 0.21855 -0.00200
C 	C 	0.09807 0.77863 0.20834 -0.03000
C 	C 	0.24637 0.85543 0.20293 -0.03000
C 	C 	0.08787 0.79013 0.18251 -0.04500
H 	H 	0.05087 0.74843 0.21903 0.04900
C 	C 	0.23617 0.86693 0.17713 -0.03400
H 	H 	0.30057 0.87783 0.20993 0.03700
C 	C 	0.15687 0.83423 0.16689 0.00900
H 	H 	0.03367 0.76773 0.17553 0.05600
H 	H 	0.28337 0.89713 0.16643 0.03600
C 	C 	0.13097 0.83953 0.13854 0.00900
C 	C 	0.05907 0.78543 0.12533 0.04500
C 	C 	0.19027 0.91273 0.12693 -0.06600
C 	C 	0.04647 0.80433 0.10053 0.05100
H 	H 	0.01857 0.73543 0.13323 0.03100
C 	C 	0.17767 0.93163 0.10213 -0.09500
H 	H 	0.23947 0.94973 0.13593 0.02000
C 	C 	0.10577 0.87753 0.08893 0.02600
H 	H 	0.09717 0.89043 0.07193 0.02400
Cu	Cu	0.04737 0.53533 0.42377 0.37500
Cu	Cu	0.95357 0.48803 0.38223 1.08700
O 	O 	0.12267 0.57633 0.45883 -0.11500
O 	O 	0.88397 0.45653 0.34853 -0.52500
O 	O 	0.03437 0.45843 0.36913 -0.55400
O 	O 	0.11417 0.49883 0.40403 -0.39100
C 	C 	0.09747 0.47563 0.38203 -0.21300
C 	C 	0.16457 0.46763 0.36803 -0.03300
C 	C 	0.23187 0.47193 0.38104 0.09900
H 	H 	0.23637 0.47993 0.39913 0.28300
C 	C 	0.29217 0.46423 0.36763 -0.00600
C 	C 	0.28537 0.45243 0.34123 0.00800
H 	H 	0.32667 0.44723 0.33203 0.25800
C 	C 	0.21827 0.44823 0.32818 0.05600
C 	C 	0.15777 0.45583 0.34163 0.01100
H 	H 	0.11187 0.45293 0.33273 0.03900
C 	C 	0.36897 0.47343 0.38083 -0.02700
O 	O 	0.37277 0.49083 0.40363 -0.31700
O 	O 	0.41657 0.45993 0.36653 -0.71100
C 	C 	0.21017 0.43403 0.29825 0.07200
C 	C 	0.27007 0.42653 0.28449 -0.05800
H 	H 	0.31647 0.42973 0.29313 0.07300
C 	C 	0.26197 0.41433 0.25809 -0.05400
H 	H 	0.30287 0.40913 0.24873 0.07600
C 	C 	0.19397 0.40953 0.24543 0.04200
C 	C 	0.13407 0.41703 0.25919 0.04300
H 	H 	0.08747 0.41373 0.25053 -0.03000
C 	C 	0.14207 0.42923 0.28560 0.04700
H 	H 	0.10107 0.43433 0.29503 -0.03400
C 	C 	0.18577 0.38463 0.21746 0.02100
C 	C 	0.25237 0.41563 0.20053 -0.05000
H 	H 	0.30647 0.45463 0.20643 0.04500
C 	C 	0.23977 0.38973 0.17510 -0.03500
H 	H 	0.28537 0.41093 0.16353 0.03700
C 	C 	0.16067 0.33273 0.16656 0.01100
C 	C 	0.09397 0.30163 0.18343 -0.03300
H 	H 	0.03987 0.26273 0.17763 0.05400
C 	C 	0.10657 0.32763 0.20892 -0.03700
H 	H 	0.06087 0.30633 0.22053 0.05300
C 	C 	0.13417 0.29613 0.13870 0.01600
C 	C 	0.06027 0.27503 0.12613 0.04300
H 	H 	0.02027 0.28503 0.13423 0.02000
C 	C 	0.04487 0.23923 0.10193 0.04300
C 	C 	0.10347 0.22463 0.09013 0.02200
H 	H 	0.09287 0.20013 0.07363 0.03500
C 	C 	0.17737 0.24573 0.10273 -0.12600
C 	C 	0.19277 0.28153 0.12693 -0.04900
H 	H 	0.24327 0.29593 0.13553 0.00600
C 	C 	0.96207 0.21053 0.08903 0.07900
O 	O 	0.91197 0.21843 0.10293 -0.09500
O 	O 	0.94867 0.17653 0.06743 0.03300
C 	C 	0.23577 0.22713 0.08983 0.20300
O 	O 	0.22297 0.19803 0.06683 -0.41000
O 	O 	0.29857 0.23373 0.10263 -0.28200
Cu	Cu	0.17973 0.37957 0.71597 -0.18300
O 	O 	0.61823 0.10357 0.39957 0.02500
Cu	Cu	0.13153 0.28567 0.75782 0.55100
O 	O 	0.21273 0.45497 0.68357 0.33400
O 	O 	0.06653 0.30467 0.70437 0.28400
O 	O 	0.68963 0.91817 0.70507 0.35900
O 	O 	0.88773 0.35827 0.39977 -0.35600
C 	C 	0.63293 0.08447 0.42167 0.05700
O 	O 	0.57733 0.02637 0.43597 -0.07200
O 	O 	0.09833 0.21567 0.79367 -0.10000
O 	O 	0.02803 0.22597 0.73857 0.05800
O 	O 	0.76623 0.96697 0.73967 -0.02700
O 	O 	0.96583 0.39677 0.43477 -0.27200
C 	C 	0.02153 0.23917 0.71627 0.43000
C 	C 	0.75533 0.97177 0.71687 0.30300
C 	C 	0.90503 0.34607 0.42247 0.18100
C 	C 	0.94773 0.17367 0.70187 -0.02300
C 	C 	0.94063 0.17897 0.67547 -0.04400
C 	C 	0.88673 0.10617 0.71532 -0.11400
C 	C 	0.87253 0.11677 0.66251 -0.04100
H 	H 	0.98233 0.22507 0.66627 0.02600
C 	C 	0.81863 0.04397 0.70237 0.04200
H 	H 	0.89163 0.10257 0.73337 -0.21400
C 	C 	0.86203 0.12357 0.63296 -0.03200
C 	C 	0.81163 0.04937 0.67597 -0.10100
C 	C 	0.92343 0.18987 0.61922 -0.11900
C 	C 	0.79443 0.06027 0.62017 -0.00000
H 	H 	0.76503 0.00677 0.66717 -0.14700
C 	C 	0.91733 0.19287 0.59269 -0.09800
H 	H 	0.96963 0.23317 0.62797 0.08900
H 	H 	0.75243 0.01497 0.62957 -0.01800
C 	C 	0.78833 0.06327 0.59364 -0.00200
H 	H 	0.95933 0.23817 0.58327 0.07000
C 	C 	0.84983 0.12967 0.57990 -0.01100
H 	H 	0.74213 0.01997 0.58487 -0.02600
C 	C 	0.84403 0.14467 0.55189 -0.00200
C 	C 	0.76473 0.11197 0.54168 -0.02900
C 	C 	0.91303 0.18877 0.53627 -0.03000
C 	C 	0.75453 0.12347 0.51585 -0.04500
H 	H 	0.71753 0.08177 0.55237 0.05000
C 	C 	0.90283 0.20027 0.51047 -0.03500
H 	H 	0.96723 0.21117 0.54327 0.03700
C 	C 	0.82353 0.16757 0.50023 0.00900
H 	H 	0.70033 0.10107 0.50887 0.05700
H 	H 	0.95003 0.23047 0.49977 0.03600
C 	C 	0.79763 0.17287 0.47188 0.00900
C 	C 	0.72573 0.11877 0.45867 0.04500
C 	C 	0.85693 0.24607 0.46027 -0.06500
C 	C 	0.71313 0.13767 0.43387 0.05000
H 	H 	0.68523 0.06877 0.46657 0.03100
C 	C 	0.84433 0.26497 0.43547 -0.09500
H 	H 	0.90613 0.28307 0.46927 0.01900
C 	C 	0.77243 0.21087 0.42227 0.02600
H 	H 	0.76383 0.22377 0.40527 0.02400
Cu	Cu	0.71403 0.86867 0.75711 0.37600
Cu	Cu	0.62023 0.82137 0.71557 1.08700
O 	O 	0.78933 0.90967 0.79217 -0.11500
O 	O 	0.55063 0.78987 0.68187 -0.52400
O 	O 	0.70103 0.79177 0.70247 -0.55400
O 	O 	0.78083 0.83217 0.73737 -0.39100
C 	C 	0.76413 0.80897 0.71537 -0.21300
C 	C 	0.83123 0.80097 0.70137 -0.03300
C 	C 	0.89853 0.80527 0.71438 0.10000
H 	H 	0.90303 0.81327 0.73247 0.28400
C 	C 	0.95883 0.79757 0.70097 -0.00700
C 	C 	0.95203 0.78577 0.67457 0.00800
H 	H 	0.99333 0.78057 0.66537 0.25900
C 	C 	0.88493 0.78157 0.66152 0.05700
C 	C 	0.82443 0.78917 0.67497 0.01100
H 	H 	0.77853 0.78627 0.66607 0.03900
C 	C 	0.03563 0.80677 0.71417 -0.02700
O 	O 	0.03943 0.82417 0.73697 -0.31800
O 	O 	0.08323 0.79327 0.69987 -0.71300
C 	C 	0.87683 0.76737 0.63159 0.07300
C 	C 	0.93673 0.75987 0.61783 -0.05800
H 	H 	0.98313 0.76307 0.62647 0.07300
C 	C 	0.92863 0.74767 0.59143 -0.05400
H 	H 	0.96953 0.74247 0.58207 0.07600
C 	C 	0.86063 0.74287 0.57877 0.04200
C 	C 	0.80073 0.75037 0.59253 0.04300
H 	H 	0.75413 0.74707 0.58387 -0.02900
C 	C 	0.80873 0.76257 0.61894 0.04700
H 	H 	0.76773 0.76767 0.62837 -0.03400
C 	C 	0.85243 0.71797 0.55080 0.02100
C 	C 	0.91903 0.74897 0.53387 -0.05000
H 	H 	0.97313 0.78797 0.53977 0.04500
C 	C 	0.90643 0.72307 0.50844 -0.03500
H 	H 	0.95203 0.74427 0.49687 0.03700
C 	C 	0.82733 0.66607 0.49990 0.01100
C 	C 	0.76063 0.63497 0.51677 -0.03300
H 	H 	0.70653 0.59607 0.51097 0.05400
C 	C 	0.77323 0.66097 0.54226 -0.03700
H 	H 	0.72753 0.63967 0.55387 0.05300
C 	C 	0.80083 0.62947 0.47204 0.01600
C 	C 	0.72693 0.60837 0.45947 0.04300
H 	H 	0.68693 0.61837 0.46757 0.02000
C 	C 	0.71153 0.57257 0.43527 0.04300
C 	C 	0.77013 0.55797 0.42347 0.02100
H 	H 	0.75953 0.53347 0.40697 0.03500
C 	C 	0.84403 0.57907 0.43607 -0.12600
C 	C 	0.85943 0.61487 0.46027 -0.04900
H 	H 	0.90993 0.62927 0.46887 0.00600
C 	C 	0.62873 0.54387 0.42237 0.07800
O 	O 	0.57863 0.55177 0.43627 -0.09500
O 	O 	0.61533 0.50987 0.40077 0.03200
C 	C 	0.90243 0.56047 0.42317 0.20300
O 	O 	0.88963 0.53137 0.40017 -0.41000
O 	O 	0.96523 0.56707 0.43597 -0.28200
Cu	Cu	0.71290 0.86650 0.95070 -0.17900
O 	O 	0.43690 0.15200 0.26710 0.02600
Cu	Cu	0.61900 0.82080 0.90885 0.55000
O 	O 	0.78830 0.90890 0.98310 0.33100
O 	O 	0.63800 0.90480 0.96230 0.28100
O 	O 	0.25150 0.89520 0.96160 0.35900
O 	O 	0.69160 0.13720 0.26690 -0.35500
C 	C 	0.41780 0.11820 0.24500 0.05700
O 	O 	0.35970 0.11570 0.23070 -0.07200
O 	O 	0.54900 0.78400 0.87300 -0.09900
O 	O 	0.55930 0.86460 0.92810 0.05600
O 	O 	0.30030 0.86740 0.92700 -0.02700
O 	O 	0.73010 0.09760 0.23190 -0.27200
C 	C 	0.57250 0.88430 0.95040 0.42900
C 	C 	0.30510 0.88310 0.94980 0.30200
C 	C 	0.67940 0.10770 0.24420 0.18200
C 	C 	0.50700 0.89260 0.96480 -0.02200
C 	C 	0.51230 0.90500 0.99120 -0.04200
C 	C 	0.43950 0.88610 0.95135 -0.11600
C 	C 	0.45010 0.91090 0.00416 -0.04000
H 	H 	0.55840 0.90940 0.00040 0.02800
C 	C 	0.37730 0.89200 0.96430 0.04300
H 	H 	0.43590 0.87760 0.93330 -0.21500
C 	C 	0.45690 0.92820 0.03371 -0.03000
C 	C 	0.38270 0.90440 0.99070 -0.10200
C 	C 	0.52320 0.93310 0.04745 -0.11800
C 	C 	0.39360 0.93250 0.04650 0.00000
H 	H 	0.34010 0.90840 0.99950 -0.14800
C 	C 	0.52620 0.94220 0.07398 -0.09800
H 	H 	0.56650 0.93020 0.03870 0.08800
H 	H 	0.34830 0.92920 0.03710 -0.01900
C 	C 	0.39660 0.94160 0.07303 -0.00200
H 	H 	0.57150 0.94550 0.08340 0.07000
C 	C 	0.46300 0.94650 0.08677 -0.01000
H 	H 	0.35330 0.94450 0.08180 -0.02600
C 	C 	0.47800 0.96730 0.11478 -0.00200
C 	C 	0.44530 0.01390 0.12499 -0.02900
C 	C 	0.52210 0.94240 0.13040 -0.03200
C 	C 	0.45680 0.03560 0.15082 -0.04400
H 	H 	0.41510 0.03090 0.11430 0.05000
C 	C 	0.53360 0.96410 0.15620 -0.03500
H 	H 	0.54450 0.91060 0.12340 0.03700
C 	C 	0.50090 0.01070 0.16644 0.01000
H 	H 	0.43440 0.06740 0.15780 0.05700
H 	H 	0.56380 0.94710 0.16690 0.03600
C 	C 	0.50620 0.04190 0.19479 0.00900
C 	C 	0.45210 0.05970 0.20800 0.04500
C 	C 	0.57940 0.05580 0.20640 -0.06500
C 	C 	0.47100 0.09120 0.23280 0.05000
H 	H 	0.40210 0.05020 0.20010 0.03100
C 	C 	0.59830 0.08730 0.23120 -0.09500
H 	H 	0.61640 0.04360 0.19740 0.01800
C 	C 	0.54420 0.10510 0.24440 0.02600
H 	H 	0.55710 0.12660 0.26140 0.02400
Cu	Cu	0.20200 0.82130 0.90956 0.37600
Cu	Cu	0.15470 0.86780 0.95110 1.08600
O 	O 	0.24300 0.78700 0.87450 -0.11500
O 	O 	0.12320 0.90590 0.98480 -0.52400
O 	O 	0.12510 0.75740 0.96420 -0.55500
O 	O 	0.16550 0.71800 0.92930 -0.39100
C 	C 	0.14230 0.71150 0.95130 -0.21400
C 	C 	0.13430 0.63640 0.96530 -0.03300
C 	C 	0.13860 0.57340 0.95229 0.09900
H 	H 	0.14660 0.57690 0.93420 0.28300
C 	C 	0.13090 0.50540 0.96570 -0.00700
C 	C 	0.11910 0.50040 0.99210 0.00800
H 	H 	0.11390 0.45390 0.00130 0.25700
C 	C 	0.11490 0.56330 0.00515 0.05600
C 	C 	0.12250 0.63140 0.99170 0.01100
H 	H 	0.11960 0.67440 0.00060 0.03900
C 	C 	0.14010 0.43780 0.95250 -0.02600
O 	O 	0.15750 0.45140 0.92970 -0.31700
O 	O 	0.12660 0.37670 0.96680 -0.71100
C 	C 	0.10070 0.55720 0.03508 0.07200
C 	C 	0.09320 0.48980 0.04884 -0.05900
H 	H 	0.09640 0.44660 0.04020 0.07400
C 	C 	0.08100 0.48570 0.07524 -0.05500
H 	H 	0.07580 0.43960 0.08460 0.07600
C 	C 	0.07620 0.54890 0.08790 0.04200
C 	C 	0.08370 0.61630 0.07414 0.04300
H 	H 	0.08040 0.65960 0.08280 -0.02900
C 	C 	0.09590 0.62050 0.04773 0.04600
H 	H 	0.10100 0.66660 0.03830 -0.03400
C 	C 	0.05130 0.53220 0.11587 0.01900
C 	C 	0.08230 0.49660 0.13280 -0.04900
H 	H 	0.12130 0.48150 0.12690 0.04400
C 	C 	0.05640 0.48330 0.15823 -0.03700
H 	H 	0.07760 0.45890 0.16980 0.03700
C 	C 	0.99940 0.50540 0.16677 0.01100
C 	C 	0.96830 0.54100 0.14990 -0.03400
H 	H 	0.92940 0.55620 0.15570 0.05500
C 	C 	0.99430 0.55440 0.12441 -0.03400
H 	H 	0.97300 0.57880 0.11280 0.05200
C 	C 	0.96280 0.49530 0.19463 0.01600
C 	C 	0.94170 0.54810 0.20720 0.04300
H 	H 	0.95170 0.59810 0.19910 0.02100
C 	C 	0.90590 0.52770 0.23140 0.04300
C 	C 	0.89130 0.45450 0.24320 0.02200
H 	H 	0.86680 0.44060 0.25970 0.03500
C 	C 	0.91240 0.40170 0.23060 -0.12600
C 	C 	0.94820 0.42210 0.20640 -0.04900
H 	H 	0.96260 0.38600 0.19780 0.00600
C 	C 	0.87720 0.58180 0.24430 0.07800
O 	O 	0.88510 0.63980 0.23040 -0.09400
O 	O 	0.84320 0.56120 0.26590 0.03200
C 	C 	0.89380 0.32470 0.24350 0.20300
O 	O 	0.86470 0.30840 0.26650 -0.41000
O 	O 	0.90040 0.26850 0.23070 -0.28200
Cu	Cu	0.37957 0.19983 0.28403 -0.17900
O 	O 	0.10357 0.48533 0.60043 0.02500
Cu	Cu	0.28567 0.15413 0.24218 0.55000
O 	O 	0.45497 0.24223 0.31643 0.33100
O 	O 	0.30467 0.23813 0.29563 0.28000
O 	O 	0.91817 0.22853 0.29493 0.36100
O 	O 	0.35827 0.47053 0.60023 -0.35600
C 	C 	0.08447 0.45153 0.57833 0.05700
O 	O 	0.02637 0.44903 0.56403 -0.07200
O 	O 	0.21567 0.11733 0.20633 -0.09900
O 	O 	0.22597 0.19793 0.26143 0.05500
O 	O 	0.96697 0.20073 0.26033 -0.02600
O 	O 	0.39677 0.43093 0.56523 -0.27200
C 	C 	0.23917 0.21763 0.28373 0.42800
C 	C 	0.97177 0.21643 0.28313 0.30400
C 	C 	0.34607 0.44103 0.57753 0.18200
C 	C 	0.17367 0.22593 0.29813 -0.02200
C 	C 	0.17897 0.23833 0.32453 -0.04200
C 	C 	0.10617 0.21943 0.28468 -0.11600
C 	C 	0.11677 0.24423 0.33749 -0.04000
H 	H 	0.22507 0.24273 0.33373 0.02800
C 	C 	0.04397 0.22533 0.29763 0.04200
H 	H 	0.10257 0.21093 0.26663 -0.21600
C 	C 	0.12357 0.26153 0.36704 -0.03100
C 	C 	0.04937 0.23773 0.32403 -0.10300
C 	C 	0.18987 0.26643 0.38078 -0.11900
C 	C 	0.06027 0.26583 0.37983 0.00000
H 	H 	0.00677 0.24173 0.33283 -0.15000
C 	C 	0.19287 0.27553 0.40731 -0.09800
H 	H 	0.23317 0.26353 0.37203 0.08800
H 	H 	0.01497 0.26253 0.37043 -0.01800
C 	C 	0.06327 0.27493 0.40636 -0.00200
H 	H 	0.23817 0.27883 0.41673 0.07000
C 	C 	0.12967 0.27983 0.42010 -0.01100
H 	H 	0.01997 0.27783 0.41513 -0.02600
C 	C 	0.14467 0.30063 0.44811 -0.00200
C 	C 	0.11197 0.34723 0.45832 -0.03000
C 	C 	0.18877 0.27573 0.46373 -0.03000
C 	C 	0.12347 0.36893 0.48415 -0.04400
H 	H 	0.08177 0.36423 0.44763 0.05000
C 	C 	0.20027 0.29743 0.48953 -0.03400
H 	H 	0.21117 0.24393 0.45673 0.03700
C 	C 	0.16757 0.34403 0.49977 0.00900
H 	H 	0.10107 0.40073 0.49113 0.05700
H 	H 	0.23047 0.28043 0.50023 0.03600
C 	C 	0.17287 0.37523 0.52812 0.00900
C 	C 	0.11877 0.39303 0.54133 0.04500
C 	C 	0.24607 0.38913 0.53973 -0.06500
C 	C 	0.13767 0.42453 0.56613 0.05000
H 	H 	0.06877 0.38353 0.53343 0.03100
C 	C 	0.26497 0.42063 0.56453 -0.09500
H 	H 	0.28307 0.37693 0.53073 0.01900
C 	C 	0.21087 0.43843 0.57773 0.02600
H 	H 	0.22377 0.45993 0.59473 0.02400
Cu	Cu	0.86867 0.15463 0.24289 0.37500
Cu	Cu	0.82137 0.20113 0.28443 1.09100
O 	O 	0.90967 0.12033 0.20783 -0.11500
O 	O 	0.78987 0.23923 0.31813 -0.52600
O 	O 	0.79177 0.09073 0.29753 -0.55700
O 	O 	0.83217 0.05133 0.26263 -0.39300
C 	C 	0.80897 0.04483 0.28463 -0.21500
C 	C 	0.80097 0.96973 0.29863 -0.03200
C 	C 	0.80527 0.90673 0.28562 0.10000
H 	H 	0.81327 0.91023 0.26753 0.28300
C 	C 	0.79757 0.83873 0.29903 -0.00700
C 	C 	0.78577 0.83373 0.32543 0.00800
H 	H 	0.78057 0.78723 0.33463 0.25700
C 	C 	0.78157 0.89663 0.33848 0.05700
C 	C 	0.78917 0.96473 0.32503 0.01400
H 	H 	0.78627 0.00773 0.33393 0.04200
C 	C 	0.80677 0.77113 0.28583 -0.02800
O 	O 	0.82417 0.78473 0.26303 -0.31900
O 	O 	0.79327 0.71003 0.30013 -0.71300
C 	C 	0.76737 0.89053 0.36841 0.07300
C 	C 	0.75987 0.82313 0.38217 -0.05800
H 	H 	0.76307 0.77993 0.37353 0.07300
C 	C 	0.74767 0.81903 0.40857 -0.05400
H 	H 	0.74247 0.77293 0.41793 0.07600
C 	C 	0.74287 0.88223 0.42123 0.04200
C 	C 	0.75037 0.94963 0.40747 0.04300
H 	H 	0.74707 0.99293 0.41613 -0.02900
C 	C 	0.76257 0.95383 0.38106 0.04700
H 	H 	0.76767 0.99993 0.37163 -0.03500
C 	C 	0.71797 0.86553 0.44920 0.02100
C 	C 	0.74897 0.82993 0.46613 -0.05000
H 	H 	0.78797 0.81483 0.46023 0.04500
C 	C 	0.72307 0.81663 0.49156 -0.03500
H 	H 	0.74427 0.79223 0.50313 0.03700
C 	C 	0.66607 0.83873 0.50010 0.01100
C 	C 	0.63497 0.87433 0.48323 -0.03300
H 	H 	0.59607 0.88953 0.48903 0.05400
C 	C 	0.66097 0.88773 0.45774 -0.03700
H 	H 	0.63967 0.91213 0.44613 0.05300
C 	C 	0.62947 0.82863 0.52796 0.01600
C 	C 	0.60837 0.88143 0.54053 0.04300
H 	H 	0.61837 0.93143 0.53243 0.02100
C 	C 	0.57257 0.86103 0.56473 0.04300
C 	C 	0.55797 0.78783 0.57653 0.02200
H 	H 	0.53347 0.77393 0.59303 0.03500
C 	C 	0.57907 0.73503 0.56393 -0.12600
C 	C 	0.61487 0.75543 0.53973 -0.04900
H 	H 	0.62927 0.71933 0.53113 0.00600
C 	C 	0.54387 0.91513 0.57763 0.07800
O 	O 	0.55177 0.97313 0.56373 -0.09500
O 	O 	0.50987 0.89453 0.59923 0.03200
C 	C 	0.56047 0.65803 0.57683 0.20300
O 	O 	0.53137 0.64173 0.59983 -0.41000
O 	O 	0.56707 0.60183 0.56403 -0.28200
Cu	Cu	0.04623 0.53317 0.61737 -0.18000
O 	O 	0.77023 0.81867 0.93377 0.02500
Cu	Cu	0.95233 0.48747 0.57552 0.55000
O 	O 	0.12163 0.57557 0.64977 0.33300
O 	O 	0.97133 0.57147 0.62897 0.28000
O 	O 	0.58483 0.56187 0.62827 0.35900
O 	O 	0.02493 0.80387 0.93357 -0.35600
C 	C 	0.75113 0.78487 0.91167 0.05700
O 	O 	0.69303 0.78237 0.89737 -0.07200
O 	O 	0.88233 0.45067 0.53967 -0.09900
O 	O 	0.89263 0.53127 0.59477 0.05500
O 	O 	0.63363 0.53407 0.59367 -0.02700
O 	O 	0.06343 0.76427 0.89857 -0.27200
C 	C 	0.90583 0.55097 0.61707 0.42800
C 	C 	0.63843 0.54977 0.61647 0.30200
C 	C 	0.01273 0.77437 0.91087 0.18100
C 	C 	0.84033 0.55927 0.63147 -0.02200
C 	C 	0.84563 0.57167 0.65787 -0.04200
C 	C 	0.77283 0.55277 0.61802 -0.11500
C 	C 	0.78343 0.57757 0.67083 -0.04000
H 	H 	0.89173 0.57607 0.66707 0.02800
C 	C 	0.71063 0.55867 0.63097 0.04200
H 	H 	0.76923 0.54427 0.59997 -0.21500
C 	C 	0.79023 0.59487 0.70038 -0.03100
C 	C 	0.71603 0.57107 0.65737 -0.10300
C 	C 	0.85653 0.59977 0.71412 -0.11900
C 	C 	0.72693 0.59917 0.71317 0.00000
H 	H 	0.67343 0.57507 0.66617 -0.14900
C 	C 	0.85953 0.60887 0.74065 -0.09800
H 	H 	0.89983 0.59687 0.70537 0.08800
H 	H 	0.68163 0.59587 0.70377 -0.01800
C 	C 	0.72993 0.60827 0.73970 -0.00200
H 	H 	0.90483 0.61217 0.75007 0.07000
C 	C 	0.79633 0.61317 0.75344 -0.01100
H 	H 	0.68663 0.61117 0.74847 -0.02600
C 	C 	0.81133 0.63397 0.78145 -0.00200
C 	C 	0.77863 0.68057 0.79166 -0.02900
C 	C 	0.85543 0.60907 0.79707 -0.03000
C 	C 	0.79013 0.70227 0.81749 -0.04500
H 	H 	0.74843 0.69757 0.78097 0.05000
C 	C 	0.86693 0.63077 0.82287 -0.03500
H 	H 	0.87783 0.57727 0.79007 0.03700
C 	C 	0.83423 0.67737 0.83311 0.00900
H 	H 	0.76773 0.73407 0.82447 0.05700
H 	H 	0.89713 0.61377 0.83357 0.03600
C 	C 	0.83953 0.70857 0.86146 0.00900
C 	C 	0.78543 0.72637 0.87467 0.04500
C 	C 	0.91273 0.72247 0.87307 -0.06600
C 	C 	0.80433 0.75787 0.89947 0.05000
H 	H 	0.73543 0.71687 0.86677 0.03100
C 	C 	0.93163 0.75397 0.89787 -0.09500
H 	H 	0.94973 0.71027 0.86407 0.02000
C 	C 	0.87753 0.77177 0.91107 0.02600
H 	H 	0.89043 0.79327 0.92807 0.02400
Cu	Cu	0.53533 0.48797 0.57623 0.37600
Cu	Cu	0.48803 0.53447 0.61777 1.08600
O 	O 	0.57633 0.45367 0.54117 -0.11500
O 	O 	0.45653 0.57257 0.65147 -0.52400
O 	O 	0.45843 0.42407 0.63087 -0.55500
O 	O 	0.49883 0.38467 0.59597 -0.39100
C 	C 	0.47563 0.37817 0.61797 -0.21400
C 	C 	0.46763 0.30307 0.63197 -0.03300
C 	C 	0.47193 0.24007 0.61896 0.09900
H 	H 	0.47993 0.24357 0.60087 0.28300
C 	C 	0.46423 0.17207 0.63237 -0.00700
C 	C 	0.45243 0.16707 0.65877 0.00800
H 	H 	0.44723 0.12057 0.66797 0.25700
C 	C 	0.44823 0.22997 0.67182 0.05600
C 	C 	0.45583 0.29807 0.65837 0.01100
H 	H 	0.45293 0.34107 0.66727 0.03900
C 	C 	0.47343 0.10447 0.61917 -0.02700
O 	O 	0.49083 0.11807 0.59637 -0.31800
O 	O 	0.45993 0.04337 0.63347 -0.71200
C 	C 	0.43403 0.22387 0.70175 0.07300
C 	C 	0.42653 0.15647 0.71551 -0.05800
H 	H 	0.42973 0.11327 0.70687 0.07300
C 	C 	0.41433 0.15237 0.74191 -0.05400
H 	H 	0.40913 0.10627 0.75127 0.07600
C 	C 	0.40953 0.21557 0.75457 0.04200
C 	C 	0.41703 0.28297 0.74081 0.04300
H 	H 	0.41373 0.32627 0.74947 -0.02900
C 	C 	0.42923 0.28717 0.71440 0.04700
H 	H 	0.43433 0.33327 0.70497 -0.03400
C 	C 	0.38463 0.19887 0.78254 0.02100
C 	C 	0.41563 0.16327 0.79947 -0.05000
H 	H 	0.45463 0.14817 0.79357 0.04500
C 	C 	0.38973 0.14997 0.82490 -0.03500
H 	H 	0.41093 0.12557 0.83647 0.03700
C 	C 	0.33273 0.17207 0.83344 0.01100
C 	C 	0.30163 0.20767 0.81657 -0.03300
H 	H 	0.26273 0.22287 0.82237 0.05400
C 	C 	0.32763 0.22107 0.79108 -0.03700
H 	H 	0.30633 0.24547 0.77947 0.05300
C 	C 	0.29613 0.16197 0.86130 0.01600
C 	C 	0.27503 0.21477 0.87387 0.04300
H 	H 	0.28503 0.26477 0.86577 0.02100
C 	C 	0.23923 0.19437 0.89807 0.04300
C 	C 	0.22463 0.12117 0.90987 0.02200
H 	H 	0.20013 0.10727 0.92637 0.03500
C 	C 	0.24573 0.06837 0.89727 -0.12700
C 	C 	0.28153 0.08877 0.87307 -0.04900
H 	H 	0.29593 0.05267 0.86447 0.00600
C 	C 	0.21053 0.24847 0.91097 0.07800
O 	O 	0.21843 0.30647 0.89707 -0.09500
O 	O 	0.17653 0.22787 0.93257 0.03200
C 	C 	0.22713 0.99137 0.91017 0.20300
O 	O 	0.19803 0.97507 0.93317 -0.41000
O 	O 	0.23373 0.93517 0.89737 -0.28200
Cu	Cu	0.13350 0.84640 0.95070 -0.17800
O 	O 	0.84800 0.28490 0.26710 0.02600
Cu	Cu	0.17920 0.79820 0.90885 0.55000
O 	O 	0.09110 0.87940 0.98310 0.33100
O 	O 	0.09520 0.73320 0.96230 0.28100
O 	O 	0.10480 0.35630 0.96160 0.35800
O 	O 	0.86280 0.55440 0.26690 -0.35600
C 	C 	0.88180 0.29960 0.24500 0.05700
O 	O 	0.88430 0.24400 0.23070 -0.07200
O 	O 	0.21600 0.76500 0.87300 -0.09900
O 	O 	0.13540 0.69470 0.92810 0.05600
O 	O 	0.13260 0.43290 0.92700 -0.02800
O 	O 	0.90240 0.63250 0.23190 -0.27200
C 	C 	0.11570 0.68820 0.95040 0.42900
C 	C 	0.11690 0.42200 0.94980 0.30200
C 	C 	0.89230 0.57170 0.24420 0.18200
C 	C 	0.10740 0.61440 0.96480 -0.02200
C 	C 	0.09500 0.60730 0.99120 -0.04200
C 	C 	0.11390 0.55340 0.95135 -0.11500
C 	C 	0.08910 0.53920 0.00416 -0.04000
H 	H 	0.09060 0.64900 0.00040 0.02800
C 	C 	0.10800 0.48530 0.96430 0.04200
H 	H 	0.12240 0.55830 0.93330 -0.21500
C 	C 	0.07180 0.52870 0.03371 -0.03000
C 	C 	0.09560 0.47830 0.99070 -0.10200
C 	C 	0.06690 0.59010 0.04745 -0.11800
C 	C 	0.06750 0.46110 0.04650 0.00000
H 	H 	0.09160 0.43170 0.99950 -0.14800
C 	C 	0.05780 0.58400 0.07398 -0.09800
H 	H 	0.06980 0.63630 0.03870 0.08800
H 	H 	0.07080 0.41910 0.03710 -0.01900
C 	C 	0.05840 0.45500 0.07303 -0.00200
H 	H 	0.05450 0.62600 0.08340 0.07000
C 	C 	0.05350 0.51650 0.08677 -0.01000
H 	H 	0.05550 0.40880 0.08180 -0.02600
C 	C 	0.03270 0.51070 0.11478 -0.00200
C 	C 	0.98610 0.43140 0.12499 -0.02900
C 	C 	0.05760 0.57970 0.13040 -0.03200
C 	C 	0.96440 0.42120 0.15082 -0.04400
H 	H 	0.96910 0.38420 0.11430 0.05000
C 	C 	0.03590 0.56950 0.15620 -0.03500
H 	H 	0.08940 0.63390 0.12340 0.03700
C 	C 	0.98930 0.49020 0.16644 0.01000
H 	H 	0.93260 0.36700 0.15780 0.05700
H 	H 	0.05290 0.61670 0.16690 0.03600
C 	C 	0.95810 0.46430 0.19479 0.00900
C 	C 	0.94030 0.39240 0.20800 0.04500
C 	C 	0.94420 0.52360 0.20640 -0.06500
C 	C 	0.90880 0.37980 0.23280 0.05000
H 	H 	0.94980 0.35190 0.20010 0.03100
C 	C 	0.91270 0.51100 0.23120 -0.09500
H 	H 	0.95640 0.57280 0.19740 0.01800
C 	C 	0.89490 0.43910 0.24440 0.02600
H 	H 	0.87340 0.43050 0.26140 0.02400
Cu	Cu	0.17870 0.38070 0.90956 0.37600
Cu	Cu	0.13220 0.28690 0.95110 1.08600
O 	O 	0.21300 0.45600 0.87450 -0.11500
O 	O 	0.09410 0.21730 0.98480 -0.52400
O 	O 	0.24260 0.36770 0.96420 -0.55500
O 	O 	0.28200 0.44750 0.92930 -0.39100
C 	C 	0.28850 0.43080 0.95130 -0.21400
C 	C 	0.36360 0.49790 0.96530 -0.03300
C 	C 	0.42660 0.56520 0.95229 0.09900
H 	H 	0.42310 0.56970 0.93420 0.28300
C 	C 	0.49460 0.62550 0.96570 -0.00600
C 	C 	0.49960 0.61870 0.99210 0.00800
H 	H 	0.54610 0.66000 0.00130 0.25800
C 	C 	0.43670 0.55160 0.00515 0.05600
C 	C 	0.36860 0.49110 0.99170 0.01100
H 	H 	0.32560 0.44520 0.00060 0.03900
C 	C 	0.56220 0.70230 0.95250 -0.02700
O 	O 	0.54860 0.70610 0.92970 -0.31700
O 	O 	0.62330 0.74990 0.96680 -0.71100
C 	C 	0.44280 0.54350 0.03508 0.07200
C 	C 	0.51020 0.60340 0.04884 -0.05800
H 	H 	0.55340 0.64980 0.04020 0.07300
C 	C 	0.51430 0.59530 0.07524 -0.05400
H 	H 	0.56040 0.63620 0.08460 0.07600
C 	C 	0.45110 0.52730 0.08790 0.04200
C 	C 	0.38370 0.46740 0.07414 0.04300
H 	H 	0.34040 0.42080 0.08280 -0.02900
C 	C 	0.37950 0.47540 0.04773 0.04700
H 	H 	0.33340 0.43440 0.03830 -0.03400
C 	C 	0.46780 0.51910 0.11587 0.02100
C 	C 	0.50340 0.58570 0.13280 -0.05000
H 	H 	0.51850 0.63980 0.12690 0.04500
C 	C 	0.51670 0.57310 0.15823 -0.03500
H 	H 	0.54110 0.61870 0.16980 0.03700
C 	C 	0.49460 0.49400 0.16677 0.01100
C 	C 	0.45900 0.42730 0.14990 -0.03300
H 	H 	0.44380 0.37320 0.15570 0.05400
C 	C 	0.44560 0.43990 0.12441 -0.03700
H 	H 	0.42120 0.39420 0.11280 0.05300
C 	C 	0.50470 0.46750 0.19463 0.01600
C 	C 	0.45190 0.39360 0.20720 0.04300
H 	H 	0.40190 0.35360 0.19910 0.02000
C 	C 	0.47230 0.37820 0.23140 0.04300
C 	C 	0.54550 0.43680 0.24320 0.02100
H 	H 	0.55940 0.42620 0.25970 0.03500
C 	C 	0.59830 0.51070 0.23060 -0.12600
C 	C 	0.57790 0.52610 0.20640 -0.04900
H 	H 	0.61400 0.57660 0.19780 0.00600
C 	C 	0.41820 0.29540 0.24430 0.07800
O 	O 	0.36020 0.24530 0.23040 -0.09500
O 	O 	0.43880 0.28200 0.26590 0.03200
C 	C 	0.67530 0.56910 0.24350 0.20300
O 	O 	0.69160 0.55630 0.26650 -0.41000
O 	O 	0.73150 0.63190 0.23070 -0.28200
Cu	Cu	0.80017 0.17973 0.28403 -0.18400
O 	O 	0.51467 0.61823 0.60043 0.02500
Cu	Cu	0.84587 0.13153 0.24218 0.55100
O 	O 	0.75777 0.21273 0.31643 0.33300
O 	O 	0.76187 0.06653 0.29563 0.28400
O 	O 	0.77147 0.68963 0.29493 0.36100
O 	O 	0.52947 0.88773 0.60023 -0.35600
C 	C 	0.54847 0.63293 0.57833 0.05700
O 	O 	0.55097 0.57733 0.56403 -0.07200
O 	O 	0.88267 0.09833 0.20633 -0.09900
O 	O 	0.80207 0.02803 0.26143 0.05800
O 	O 	0.79927 0.76623 0.26033 -0.02600
O 	O 	0.56907 0.96583 0.56523 -0.27200
C 	C 	0.78237 0.02153 0.28373 0.43000
C 	C 	0.78357 0.75533 0.28313 0.30300
C 	C 	0.55897 0.90503 0.57753 0.18100
C 	C 	0.77407 0.94773 0.29813 -0.02300
C 	C 	0.76167 0.94063 0.32453 -0.04400
C 	C 	0.78057 0.88673 0.28468 -0.11500
C 	C 	0.75577 0.87253 0.33749 -0.04100
H 	H 	0.75727 0.98233 0.33373 0.02500
C 	C 	0.77467 0.81863 0.29763 0.04300
H 	H 	0.78907 0.89163 0.26663 -0.21500
C 	C 	0.73847 0.86203 0.36704 -0.03100
C 	C 	0.76227 0.81163 0.32403 -0.10200
C 	C 	0.73357 0.92343 0.38078 -0.11900
C 	C 	0.73417 0.79443 0.37983 0.00000
H 	H 	0.75827 0.76503 0.33283 -0.14800
C 	C 	0.72447 0.91733 0.40731 -0.09800
H 	H 	0.73647 0.96963 0.37203 0.08800
H 	H 	0.73747 0.75243 0.37043 -0.01800
C 	C 	0.72507 0.78833 0.40636 -0.00200
H 	H 	0.72117 0.95933 0.41673 0.07000
C 	C 	0.72017 0.84983 0.42010 -0.01100
H 	H 	0.72217 0.74213 0.41513 -0.02600
C 	C 	0.69937 0.84403 0.44811 -0.00200
C 	C 	0.65277 0.76473 0.45832 -0.03000
C 	C 	0.72427 0.91303 0.46373 -0.03000
C 	C 	0.63107 0.75453 0.48415 -0.04400
H 	H 	0.63577 0.71753 0.44763 0.05000
C 	C 	0.70257 0.90283 0.48953 -0.03400
H 	H 	0.75607 0.96723 0.45673 0.03700
C 	C 	0.65597 0.82353 0.49977 0.00900
H 	H 	0.59927 0.70033 0.49113 0.05700
H 	H 	0.71957 0.95003 0.50023 0.03600
C 	C 	0.62477 0.79763 0.52812 0.00900
C 	C 	0.60697 0.72573 0.54133 0.04500
C 	C 	0.61087 0.85693 0.53973 -0.06500
C 	C 	0.57547 0.71313 0.56613 0.05000
H 	H 	0.61647 0.68523 0.53343 0.03100
C 	C 	0.57937 0.84433 0.56453 -0.09500
H 	H 	0.62307 0.90613 0.53073 0.01900
C 	C 	0.56157 0.77243 0.57773 0.02600
H 	H 	0.54007 0.76383 0.59473 0.02400
Cu	Cu	0.84537 0.71403 0.24289 0.37500
Cu	Cu	0.79887 0.62023 0.28443 1.09100
O 	O 	0.87967 0.78933 0.20783 -0.11400
O 	O 	0.76077 0.55063 0.31813 -0.52700
O 	O 	0.90927 0.70103 0.29753 -0.55700
O 	O 	0.94867 0.78083 0.26263 -0.39300
C 	C 	0.95517 0.76413 0.28463 -0.21500
C 	C 	0.03027 0.83123 0.29863 -0.03300
C 	C 	0.09327 0.89853 0.28562 0.09900
H 	H 	0.08977 0.90303 0.26753 0.28100
C 	C 	0.16127 0.95883 0.29903 -0.00800
C 	C 	0.16627 0.95203 0.32543 0.00700
H 	H 	0.21277 0.99333 0.33463 0.25500
C 	C 	0.10337 0.88493 0.33848 0.05700
C 	C 	0.03527 0.82443 0.32503 0.01400
H 	H 	0.99227 0.77853 0.33393 0.04100
C 	C 	0.22887 0.03563 0.28583 -0.02600
O 	O 	0.21527 0.03943 0.26303 -0.31700
O 	O 	0.28997 0.08323 0.30013 -0.71100
C 	C 	0.10947 0.87683 0.36841 0.07300
C 	C 	0.17687 0.93673 0.38217 -0.05800
H 	H 	0.22007 0.98313 0.37353 0.07300
C 	C 	0.18097 0.92863 0.40857 -0.05400
H 	H 	0.22707 0.96953 0.41793 0.07600
C 	C 	0.11777 0.86063 0.42123 0.04200
C 	C 	0.05037 0.80073 0.40747 0.04300
H 	H 	0.00707 0.75413 0.41613 -0.03000
C 	C 	0.04617 0.80873 0.38106 0.04700
H 	H 	0.00007 0.76773 0.37163 -0.03500
C 	C 	0.13447 0.85243 0.44920 0.02100
C 	C 	0.17007 0.91903 0.46613 -0.05000
H 	H 	0.18517 0.97313 0.46023 0.04500
C 	C 	0.18337 0.90643 0.49156 -0.03500
H 	H 	0.20777 0.95203 0.50313 0.03700
C 	C 	0.16127 0.82733 0.50010 0.01100
C 	C 	0.12567 0.76063 0.48323 -0.03300
H 	H 	0.11047 0.70653 0.48903 0.05400
C 	C 	0.11227 0.77323 0.45774 -0.03700
H 	H 	0.08787 0.72753 0.44613 0.05300
C 	C 	0.17137 0.80083 0.52796 0.01600
C 	C 	0.11857 0.72693 0.54053 0.04300
H 	H 	0.06857 0.68693 0.53243 0.02100
C 	C 	0.13897 0.71153 0.56473 0.04300
C 	C 	0.21217 0.77013 0.57653 0.02200
H 	H 	0.22607 0.75953 0.59303 0.03500
C 	C 	0.26497 0.84403 0.56393 -0.12600
C 	C 	0.24457 0.85943 0.53973 -0.04900
H 	H 	0.28067 0.90993 0.53113 0.00600
C 	C 	0.08487 0.62873 0.57763 0.07800
O 	O 	0.02687 0.57863 0.56373 -0.09500
O 	O 	0.10547 0.61533 0.59923 0.03200
C 	C 	0.34197 0.90243 0.57683 0.20300
O 	O 	0.35827 0.88963 0.59983 -0.41000
O 	O 	0.39817 0.96523 0.56403 -0.28200
Cu	Cu	0.46683 0.51307 0.61737 -0.17800
O 	O 	0.18133 0.95157 0.93377 0.02500
Cu	Cu	0.51253 0.46487 0.57552 0.55000
O 	O 	0.42443 0.54607 0.64977 0.33200
O 	O 	0.42853 0.39987 0.62897 0.28100
O 	O 	0.43813 0.02297 0.62827 0.35900
O 	O 	0.19613 0.22107 0.93357 -0.35600
C 	C 	0.21513 0.96627 0.91167 0.05800
O 	O 	0.21763 0.91067 0.89737 -0.07200
O 	O 	0.54933 0.43167 0.53967 -0.09900
O 	O 	0.46873 0.36137 0.59477 0.05600
O 	O 	0.46593 0.09957 0.59367 -0.02700
O 	O 	0.23573 0.29917 0.89857 -0.27200
C 	C 	0.44903 0.35487 0.61707 0.42800
C 	C 	0.45023 0.08867 0.61647 0.30200
C 	C 	0.22563 0.23837 0.91087 0.18200
C 	C 	0.44073 0.28107 0.63147 -0.02200
C 	C 	0.42833 0.27397 0.65787 -0.04200
C 	C 	0.44723 0.22007 0.61802 -0.11600
C 	C 	0.42243 0.20587 0.67083 -0.04000
H 	H 	0.42393 0.31567 0.66707 0.02800
C 	C 	0.44133 0.15197 0.63097 0.04300
H 	H 	0.45573 0.22497 0.59997 -0.21500
C 	C 	0.40513 0.19537 0.70038 -0.03100
C 	C 	0.42893 0.14497 0.65737 -0.10200
C 	C 	0.40023 0.25677 0.71412 -0.11900
C 	C 	0.40083 0.12777 0.71317 0.00000
H 	H 	0.42493 0.09837 0.66617 -0.14800
C 	C 	0.39113 0.25067 0.74065 -0.09800
H 	H 	0.40313 0.30297 0.70537 0.08800
H 	H 	0.40413 0.08577 0.70377 -0.01800
C 	C 	0.39173 0.12167 0.73970 -0.00200
H 	H 	0.38783 0.29267 0.75007 0.07000
C 	C 	0.38683 0.18317 0.75344 -0.01100
H 	H 	0.38883 0.07547 0.74847 -0.02600
C 	C 	0.36603 0.17737 0.78145 -0.00200
C 	C 	0.31943 0.09807 0.79166 -0.03000
C 	C 	0.39093 0.24637 0.79707 -0.03000
C 	C 	0.29773 0.08787 0.81749 -0.04500
H 	H 	0.30243 0.05087 0.78097 0.04900
C 	C 	0.36923 0.23617 0.82287 -0.03400
H 	H 	0.42273 0.30057 0.79007 0.03700
C 	C 	0.32263 0.15687 0.83311 0.00900
H 	H 	0.26593 0.03367 0.82447 0.05600
H 	H 	0.38623 0.28337 0.83357 0.03600
C 	C 	0.29143 0.13097 0.86146 0.00900
C 	C 	0.27363 0.05907 0.87467 0.04500
C 	C 	0.27753 0.19027 0.87307 -0.06500
C 	C 	0.24213 0.04647 0.89947 0.05100
H 	H 	0.28313 0.01857 0.86677 0.03100
C 	C 	0.24603 0.17767 0.89787 -0.09500
H 	H 	0.28973 0.23947 0.86407 0.01900
C 	C 	0.22823 0.10577 0.91107 0.02600
H 	H 	0.20673 0.09717 0.92807 0.02400
Cu	Cu	0.51203 0.04737 0.57623 0.37600
Cu	Cu	0.46553 0.95357 0.61777 1.08800
O 	O 	0.54633 0.12267 0.54117 -0.11500
O 	O 	0.42743 0.88397 0.65147 -0.52400
O 	O 	0.57593 0.03437 0.63087 -0.55400
O 	O 	0.61533 0.11417 0.59597 -0.39000
C 	C 	0.62183 0.09747 0.61797 -0.21300
C 	C 	0.69693 0.16457 0.63197 -0.03300
C 	C 	0.75993 0.23187 0.61896 0.09900
H 	H 	0.75643 0.23637 0.60087 0.28300
C 	C 	0.82793 0.29217 0.63237 -0.00700
C 	C 	0.83293 0.28537 0.65877 0.00800
H 	H 	0.87943 0.32667 0.66797 0.25800
C 	C 	0.77003 0.21827 0.67182 0.05600
C 	C 	0.70193 0.15777 0.65837 0.01100
H 	H 	0.65893 0.11187 0.66727 0.03900
C 	C 	0.89553 0.36897 0.61917 -0.02700
O 	O 	0.88193 0.37277 0.59637 -0.31800
O 	O 	0.95663 0.41657 0.63347 -0.71200
C 	C 	0.77613 0.21017 0.70175 0.07200
C 	C 	0.84353 0.27007 0.71551 -0.05800
H 	H 	0.88673 0.31647 0.70687 0.07300
C 	C 	0.84763 0.26197 0.74191 -0.05400
H 	H 	0.89373 0.30287 0.75127 0.07700
C 	C 	0.78443 0.19397 0.75457 0.04200
C 	C 	0.71703 0.13407 0.74081 0.04300
H 	H 	0.67373 0.08747 0.74947 -0.03000
C 	C 	0.71283 0.14207 0.71440 0.04700
H 	H 	0.66673 0.10107 0.70497 -0.03400
C 	C 	0.80113 0.18577 0.78254 0.02100
C 	C 	0.83673 0.25237 0.79947 -0.05000
H 	H 	0.85183 0.30647 0.79357 0.04500
C 	C 	0.85003 0.23977 0.82490 -0.03500
H 	H 	0.87443 0.28537 0.83647 0.03700
C 	C 	0.82793 0.16067 0.83344 0.01100
C 	C 	0.79233 0.09397 0.81657 -0.03300
H 	H 	0.77713 0.03987 0.82237 0.05400
C 	C 	0.77893 0.10657 0.79108 -0.03700
H 	H 	0.75453 0.06087 0.77947 0.05300
C 	C 	0.83803 0.13417 0.86130 0.01600
C 	C 	0.78523 0.06027 0.87387 0.04300
H 	H 	0.73523 0.02027 0.86577 0.02000
C 	C 	0.80563 0.04487 0.89807 0.04300
C 	C 	0.87883 0.10347 0.90987 0.02200
H 	H 	0.89273 0.09287 0.92637 0.03500
C 	C 	0.93163 0.17737 0.89727 -0.12700
C 	C 	0.91123 0.19277 0.87307 -0.04900
H 	H 	0.94733 0.24327 0.86447 0.00600
C 	C 	0.75153 0.96207 0.91097 0.07900
O 	O 	0.69353 0.91197 0.89707 -0.09500
O 	O 	0.77213 0.94867 0.93257 0.03300
C 	C 	0.00863 0.23577 0.91017 0.20300
O 	O 	0.02493 0.22297 0.93317 -0.41000
O 	O 	0.06483 0.29857 0.89737 -0.28200
Cu	Cu	0.15360 0.28710 0.95070 -0.17900
O 	O 	0.71510 0.56310 0.26710 0.02600
Cu	Cu	0.20180 0.38100 0.90885 0.55000
O 	O 	0.12060 0.21170 0.98310 0.33100
O 	O 	0.26680 0.36200 0.96230 0.28100
O 	O 	0.64370 0.74850 0.96160 0.35900
O 	O 	0.44560 0.30840 0.26690 -0.35600
C 	C 	0.70040 0.58220 0.24500 0.05700
O 	O 	0.75600 0.64030 0.23070 -0.07200
O 	O 	0.23500 0.45100 0.87300 -0.09900
O 	O 	0.30530 0.44070 0.92810 0.05600
O 	O 	0.56710 0.69970 0.92700 -0.02700
O 	O 	0.36750 0.26990 0.23190 -0.27200
C 	C 	0.31180 0.42750 0.95040 0.42800
C 	C 	0.57800 0.69490 0.94980 0.30200
C 	C 	0.42830 0.32060 0.24420 0.18200
C 	C 	0.38560 0.49300 0.96480 -0.02200
C 	C 	0.39270 0.48770 0.99120 -0.04200
C 	C 	0.44660 0.56050 0.95135 -0.11600
C 	C 	0.46080 0.54990 0.00416 -0.04000
H 	H 	0.35100 0.44160 0.00040 0.02800
C 	C 	0.51470 0.62270 0.96430 0.04300
H 	H 	0.44170 0.56410 0.93330 -0.21500
C 	C 	0.47130 0.54310 0.03371 -0.03100
C 	C 	0.52170 0.61730 0.99070 -0.10300
C 	C 	0.40990 0.47680 0.04745 -0.11900
C 	C 	0.53890 0.60640 0.04650 0.00000
H 	H 	0.56830 0.65990 0.99950 -0.14900
C 	C 	0.41600 0.47380 0.07398 -0.09800
H 	H 	0.36370 0.43350 0.03870 0.08800
H 	H 	0.58090 0.65170 0.03710 -0.01800
C 	C 	0.54500 0.60340 0.07303 -0.00200
H 	H 	0.37400 0.42850 0.08340 0.07000
C 	C 	0.48350 0.53700 0.08677 -0.01100
H 	H 	0.59120 0.64670 0.08180 -0.02600
C 	C 	0.48930 0.52200 0.11478 -0.00200
C 	C 	0.56860 0.55470 0.12499 -0.03000
C 	C 	0.42030 0.47790 0.13040 -0.03000
C 	C 	0.57880 0.54320 0.15082 -0.04400
H 	H 	0.61580 0.58490 0.11430 0.05000
C 	C 	0.43050 0.46640 0.15620 -0.03400
H 	H 	0.36610 0.45550 0.12340 0.03700
C 	C 	0.50980 0.49910 0.16644 0.00900
H 	H 	0.63300 0.56560 0.15780 0.05700
H 	H 	0.38330 0.43620 0.16690 0.03600
C 	C 	0.53570 0.49380 0.19479 0.00900
C 	C 	0.60760 0.54790 0.20800 0.04500
C 	C 	0.47640 0.42060 0.20640 -0.06500
C 	C 	0.62020 0.52900 0.23280 0.05000
H 	H 	0.64810 0.59790 0.20010 0.03100
C 	C 	0.48900 0.40170 0.23120 -0.09500
H 	H 	0.42720 0.38360 0.19740 0.01900
C 	C 	0.56090 0.45580 0.24440 0.02600
H 	H 	0.56950 0.44290 0.26140 0.02400
Cu	Cu	0.61930 0.79800 0.90956 0.37600
Cu	Cu	0.71310 0.84530 0.95110 1.08600
O 	O 	0.54400 0.75700 0.87450 -0.11500
O 	O 	0.78270 0.87680 0.98480 -0.52400
O 	O 	0.63230 0.87490 0.96420 -0.55500
O 	O 	0.55250 0.83450 0.92930 -0.39100
C 	C 	0.56920 0.85770 0.95130 -0.21400
C 	C 	0.50210 0.86570 0.96530 -0.03300
C 	C 	0.43480 0.86140 0.95229 0.09900
H 	H 	0.43030 0.85340 0.93420 0.28300
C 	C 	0.37450 0.86910 0.96570 -0.00700
C 	C 	0.38130 0.88090 0.99210 0.00700
H 	H 	0.34000 0.88610 0.00130 0.25700
C 	C 	0.44840 0.88510 0.00515 0.05600
C 	C 	0.50890 0.87750 0.99170 0.01100
H 	H 	0.55480 0.88040 0.00060 0.03900
C 	C 	0.29770 0.85990 0.95250 -0.02700
O 	O 	0.29390 0.84250 0.92970 -0.31700
O 	O 	0.25010 0.87340 0.96680 -0.71100
C 	C 	0.45650 0.89930 0.03508 0.07200
C 	C 	0.39660 0.90680 0.04884 -0.05900
H 	H 	0.35020 0.90360 0.04020 0.07400
C 	C 	0.40470 0.91900 0.07524 -0.05500
H 	H 	0.36380 0.92420 0.08460 0.07600
C 	C 	0.47270 0.92380 0.08790 0.04200
C 	C 	0.53260 0.91630 0.07414 0.04300
H 	H 	0.57920 0.91960 0.08280 -0.02900
C 	C 	0.52460 0.90410 0.04773 0.04600
H 	H 	0.56560 0.89900 0.03830 -0.03400
C 	C 	0.48090 0.94870 0.11587 0.01900
C 	C 	0.41430 0.91770 0.13280 -0.04900
H 	H 	0.36020 0.87870 0.12690 0.04400
C 	C 	0.42690 0.94360 0.15823 -0.03700
H 	H 	0.38130 0.92240 0.16980 0.03700
C 	C 	0.50600 0.00060 0.16677 0.01100
C 	C 	0.57270 0.03170 0.14990 -0.03400
H 	H 	0.62680 0.07060 0.15570 0.05500
C 	C 	0.56010 0.00570 0.12441 -0.03400
H 	H 	0.60580 0.02700 0.11280 0.05200
C 	C 	0.53250 0.03720 0.19463 0.01600
C 	C 	0.60640 0.05830 0.20720 0.04300
H 	H 	0.64640 0.04830 0.19910 0.02100
C 	C 	0.62180 0.09410 0.23140 0.04300
C 	C 	0.56320 0.10870 0.24320 0.02200
H 	H 	0.57380 0.13320 0.25970 0.03500
C 	C 	0.48930 0.08760 0.23060 -0.12600
C 	C 	0.47390 0.05180 0.20640 -0.04900
H 	H 	0.42340 0.03740 0.19780 0.00600
C 	C 	0.70460 0.12280 0.24430 0.07800
O 	O 	0.75470 0.11490 0.23040 -0.09400
O 	O 	0.71800 0.15680 0.26590 0.03200
C 	C 	0.43090 0.10620 0.24350 0.20300
O 	O 	0.44370 0.13530 0.26650 -0.41000
O 	O 	0.36810 0.09960 0.23070 -0.28200
Cu	Cu	0.82027 0.62043 0.28403 -0.18300
O 	O 	0.38177 0.89643 0.60043 0.02500
Cu	Cu	0.86847 0.71433 0.24218 0.55100
O 	O 	0.78727 0.54503 0.31643 0.33400
O 	O 	0.93347 0.69533 0.29563 0.28400
O 	O 	0.31037 0.08183 0.29493 0.35900
O 	O 	0.11227 0.64173 0.60023 -0.35600
C 	C 	0.36707 0.91553 0.57833 0.05700
O 	O 	0.42267 0.97363 0.56403 -0.07200
O 	O 	0.90167 0.78433 0.20633 -0.10000
O 	O 	0.97197 0.77403 0.26143 0.05800
O 	O 	0.23377 0.03303 0.26033 -0.02700
O 	O 	0.03417 0.60323 0.56523 -0.27200
C 	C 	0.97847 0.76083 0.28373 0.43000
C 	C 	0.24467 0.02823 0.28313 0.30300
C 	C 	0.09497 0.65393 0.57753 0.18100
C 	C 	0.05227 0.82633 0.29813 -0.02300
C 	C 	0.05937 0.82103 0.32453 -0.04400
C 	C 	0.11327 0.89383 0.28468 -0.11400
C 	C 	0.12747 0.88323 0.33749 -0.04100
H 	H 	0.01767 0.77493 0.33373 0.02600
C 	C 	0.18137 0.95603 0.29763 0.04200
H 	H 	0.10837 0.89743 0.26663 -0.21400
C 	C 	0.13797 0.87643 0.36704 -0.03200
C 	C 	0.18837 0.95063 0.32403 -0.10100
C 	C 	0.07657 0.81013 0.38078 -0.11900
C 	C 	0.20557 0.93973 0.37983 -0.00000
H 	H 	0.23497 0.99323 0.33283 -0.14700
C 	C 	0.08267 0.80713 0.40731 -0.09800
H 	H 	0.03037 0.76683 0.37203 0.08900
H 	H 	0.24757 0.98503 0.37043 -0.01800
C 	C 	0.21167 0.93673 0.40636 -0.00200
H 	H 	0.04067 0.76183 0.41673 0.07000
C 	C 	0.15017 0.87033 0.42010 -0.01100
H 	H 	0.25787 0.98003 0.41513 -0.02600
C 	C 	0.15597 0.85533 0.44811 -0.00200
C 	C 	0.23527 0.88803 0.45832 -0.02900
C 	C 	0.08697 0.81123 0.46373 -0.03000
C 	C 	0.24547 0.87653 0.48415 -0.04500
H 	H 	0.28247 0.91823 0.44763 0.05000
C 	C 	0.09717 0.79973 0.48953 -0.03500
H 	H 	0.03277 0.78883 0.45673 0.03700
C 	C 	0.17647 0.83243 0.49977 0.00900
H 	H 	0.29967 0.89893 0.49113 0.05700
H 	H 	0.04997 0.76953 0.50023 0.03600
C 	C 	0.20237 0.82713 0.52812 0.00900
C 	C 	0.27427 0.88123 0.54133 0.04500
C 	C 	0.14307 0.75393 0.53973 -0.06500
C 	C 	0.28687 0.86233 0.56613 0.05000
H 	H 	0.31477 0.93123 0.53343 0.03100
C 	C 	0.15567 0.73503 0.56453 -0.09500
H 	H 	0.09387 0.71693 0.53073 0.01900
C 	C 	0.22757 0.78913 0.57773 0.02600
H 	H 	0.23617 0.77623 0.59473 0.02400
Cu	Cu	0.28597 0.13133 0.24289 0.37600
Cu	Cu	0.37977 0.17863 0.28443 1.08700
O 	O 	0.21067 0.09033 0.20783 -0.11500
O 	O 	0.44937 0.21013 0.31813 -0.52400
O 	O 	0.29897 0.20823 0.29753 -0.55400
O 	O 	0.21917 0.16783 0.26263 -0.39100
C 	C 	0.23587 0.19103 0.28463 -0.21300
C 	C 	0.16877 0.19903 0.29863 -0.03300
C 	C 	0.10147 0.19473 0.28562 0.10000
H 	H 	0.09697 0.18673 0.26753 0.28400
C 	C 	0.04117 0.20243 0.29903 -0.00700
C 	C 	0.04797 0.21423 0.32543 0.00800
H 	H 	0.00667 0.21943 0.33463 0.25900
C 	C 	0.11507 0.21843 0.33848 0.05700
C 	C 	0.17557 0.21083 0.32503 0.01100
H 	H 	0.22147 0.21373 0.33393 0.03900
C 	C 	0.96437 0.19323 0.28583 -0.02700
O 	O 	0.96057 0.17583 0.26303 -0.31800
O 	O 	0.91677 0.20673 0.30013 -0.71300
C 	C 	0.12317 0.23263 0.36841 0.07300
C 	C 	0.06327 0.24013 0.38217 -0.05800
H 	H 	0.01687 0.23693 0.37353 0.07300
C 	C 	0.07137 0.25233 0.40857 -0.05400
H 	H 	0.03047 0.25753 0.41793 0.07600
C 	C 	0.13937 0.25713 0.42123 0.04200
C 	C 	0.19927 0.24963 0.40747 0.04300
H 	H 	0.24587 0.25293 0.41613 -0.02900
C 	C 	0.19127 0.23743 0.38106 0.04700
H 	H 	0.23227 0.23233 0.37163 -0.03400
C 	C 	0.14757 0.28203 0.44920 0.02100
C 	C 	0.08097 0.25103 0.46613 -0.05000
H 	H 	0.02687 0.21203 0.46023 0.04500
C 	C 	0.09357 0.27693 0.49156 -0.03500
H 	H 	0.04797 0.25573 0.50313 0.03700
C 	C 	0.17267 0.33393 0.50010 0.01100
C 	C 	0.23937 0.36503 0.48323 -0.03300
H 	H 	0.29347 0.40393 0.48903 0.05400
C 	C 	0.22677 0.33903 0.45774 -0.03700
H 	H 	0.27247 0.36033 0.44613 0.05300
C 	C 	0.19917 0.37053 0.52796 0.01600
C 	C 	0.27307 0.39163 0.54053 0.04300
H 	H 	0.31307 0.38163 0.53243 0.02000
C 	C 	0.28847 0.42743 0.56473 0.04300
C 	C 	0.22987 0.44203 0.57653 0.02100
H 	H 	0.24047 0.46653 0.59303 0.03500
C 	C 	0.15597 0.42093 0.56393 -0.12600
C 	C 	0.14057 0.38513 0.53973 -0.04900
H 	H 	0.09007 0.37073 0.53113 0.00600
C 	C 	0.37127 0.45613 0.57763 0.07800
O 	O 	0.42137 0.44823 0.56373 -0.09500
O 	O 	0.38467 0.49013 0.59923 0.03200
C 	C 	0.09757 0.43953 0.57683 0.20300
O 	O 	0.11037 0.46863 0.59983 -0.41000
O 	O 	0.03477 0.43293 0.56403 -0.28200
Cu	Cu	0.48693 0.95377 0.61737 -0.18000
O 	O 	0.04843 0.22977 0.93377 0.02500
Cu	Cu	0.53513 0.04767 0.57552 0.55000
O 	O 	0.45393 0.87837 0.64977 0.33200
O 	O 	0.60013 0.02867 0.62897 0.28000
O 	O 	0.97703 0.41517 0.62827 0.35900
O 	O 	0.77893 0.97507 0.93357 -0.35600
C 	C 	0.03373 0.24887 0.91167 0.05800
O 	O 	0.08933 0.30697 0.89737 -0.07200
O 	O 	0.56833 0.11767 0.53967 -0.09900
O 	O 	0.63863 0.10737 0.59477 0.05500
O 	O 	0.90043 0.36637 0.59367 -0.02700
O 	O 	0.70083 0.93657 0.89857 -0.27200
C 	C 	0.64513 0.09417 0.61707 0.42800
C 	C 	0.91133 0.36157 0.61647 0.30200
C 	C 	0.76163 0.98727 0.91087 0.18100
C 	C 	0.71893 0.15967 0.63147 -0.02200
C 	C 	0.72603 0.15437 0.65787 -0.04200
C 	C 	0.77993 0.22717 0.61802 -0.11500
C 	C 	0.79413 0.21657 0.67083 -0.04000
H 	H 	0.68433 0.10827 0.66707 0.02800
C 	C 	0.84803 0.28937 0.63097 0.04300
H 	H 	0.77503 0.23077 0.59997 -0.21500
C 	C 	0.80463 0.20977 0.70038 -0.03100
C 	C 	0.85503 0.28397 0.65737 -0.10300
C 	C 	0.74323 0.14347 0.71412 -0.11800
C 	C 	0.87223 0.27307 0.71317 0.00000
H 	H 	0.90163 0.32657 0.66617 -0.14900
C 	C 	0.74933 0.14047 0.74065 -0.09800
H 	H 	0.69703 0.10017 0.70537 0.08800
H 	H 	0.91423 0.31837 0.70377 -0.01900
C 	C 	0.87833 0.27007 0.73970 -0.00200
H 	H 	0.70733 0.09517 0.75007 0.07000
C 	C 	0.81683 0.20367 0.75344 -0.01100
H 	H 	0.92453 0.31337 0.74847 -0.02700
C 	C 	0.82263 0.18867 0.78145 -0.00200
C 	C 	0.90193 0.22137 0.79166 -0.03000
C 	C 	0.75363 0.14457 0.79707 -0.03000
C 	C 	0.91213 0.20987 0.81749 -0.04500
H 	H 	0.94913 0.25157 0.78097 0.04900
C 	C 	0.76383 0.13307 0.82287 -0.03400
H 	H 	0.69943 0.12217 0.79007 0.03700
C 	C 	0.84313 0.16577 0.83311 0.00900
H 	H 	0.96633 0.23227 0.82447 0.05600
H 	H 	0.71663 0.10287 0.83357 0.03600
C 	C 	0.86903 0.16047 0.86146 0.00900
C 	C 	0.94093 0.21457 0.87467 0.04500
C 	C 	0.80973 0.08727 0.87307 -0.06600
C 	C 	0.95353 0.19567 0.89947 0.05100
H 	H 	0.98143 0.26457 0.86677 0.03100
C 	C 	0.82233 0.06837 0.89787 -0.09500
H 	H 	0.76053 0.05027 0.86407 0.02000
C 	C 	0.89423 0.12247 0.91107 0.02600
H 	H 	0.90283 0.10957 0.92807 0.02400
Cu	Cu	0.95263 0.46467 0.57623 0.37500
Cu	Cu	0.04643 0.51197 0.61777 1.08700
O 	O 	0.87733 0.42367 0.54117 -0.11500
O 	O 	0.11603 0.54347 0.65147 -0.52500
O 	O 	0.96563 0.54157 0.63087 -0.55400
O 	O 	0.88583 0.50117 0.59597 -0.39100
C 	C 	0.90253 0.52437 0.61797 -0.21300
C 	C 	0.83543 0.53237 0.63197 -0.03300
C 	C 	0.76813 0.52807 0.61896 0.09900
H 	H 	0.76363 0.52007 0.60087 0.28300
C 	C 	0.70783 0.53577 0.63237 -0.00600
C 	C 	0.71463 0.54757 0.65877 0.00800
H 	H 	0.67333 0.55277 0.66797 0.25800
C 	C 	0.78173 0.55177 0.67182 0.05600
C 	C 	0.84223 0.54417 0.65837 0.01100
H 	H 	0.88813 0.54707 0.66727 0.03900
C 	C 	0.63103 0.52657 0.61917 -0.02700
O 	O 	0.62723 0.50917 0.59637 -0.31700
O 	O 	0.58343 0.54007 0.63347 -0.71100
C 	C 	0.78983 0.56597 0.70175 0.07200
C 	C 	0.72993 0.57347 0.71551 -0.05800
H 	H 	0.68353 0.57027 0.70687 0.07300
C 	C 	0.73803 0.58567 0.74191 -0.05400
H 	H 	0.69713 0.59087 0.75127 0.07600
C 	C 	0.80603 0.59047 0.75457 0.04200
C 	C 	0.86593 0.58297 0.74081 0.04300
H 	H 	0.91253 0.58627 0.74947 -0.03000
C 	C 	0.85793 0.57077 0.71440 0.04700
H 	H 	0.89893 0.56567 0.70497 -0.03400
C 	C 	0.81423 0.61537 0.78254 0.02100
C 	C 	0.74763 0.58437 0.79947 -0.05000
H 	H 	0.69353 0.54537 0.79357 0.04500
C 	C 	0.76023 0.61027 0.82490 -0.03500
H 	H 	0.71463 0.58907 0.83647 0.03700
C 	C 	0.83933 0.66727 0.83344 0.01100
C 	C 	0.90603 0.69837 0.81657 -0.03300
H 	H 	0.96013 0.73727 0.82237 0.05400
C 	C 	0.89343 0.67237 0.79108 -0.03700
H 	H 	0.93913 0.69367 0.77947 0.05300
C 	C 	0.86583 0.70387 0.86130 0.01600
C 	C 	0.93973 0.72497 0.87387 0.04300
H 	H 	0.97973 0.71497 0.86577 0.02000
C 	C 	0.95513 0.76077 0.89807 0.04300
C 	C 	0.89653 0.77537 0.90987 0.02200
H 	H 	0.90713 0.79987 0.92637 0.03500
C 	C 	0.82263 0.75427 0.89727 -0.12600
C 	C 	0.80723 0.71847 0.87307 -0.04900
H 	H 	0.75673 0.70407 0.86447 0.00600
C 	C 	0.03793 0.78947 0.91097 0.07900
O 	O 	0.08803 0.78157 0.89707 -0.09500
O 	O 	0.05133 0.82347 0.93257 0.03300
C 	C 	0.76423 0.77287 0.91017 0.20300
O 	O 	0.77703 0.80197 0.93317 -0.41000
O 	O 	0.70143 0.76627 0.89737 -0.28200
