data_crystal

_cell_length_a 30.23800
_cell_length_b 30.23800
_cell_length_c 30.23800
_cell_angle_alpha 60.00000
_cell_angle_beta  60.00000
_cell_angle_gamma 60.00000

_symmetry_space_group_name_	'P 1'
_symmetry_space_group_name_H-M	'P 1'

loop_
_symmetry_equiv_pos_as_xyz
  x,y,z

loop_
_atom_site_label
_atom_site_type_symbol
_atom_site_fract_x
_atom_site_fract_y
_atom_site_fract_z
_atom_site_charge
Ni	Ni	0.89110 0.15535 0.39421 1.00400
Ni	Ni	0.15535 0.89110 0.55934 1.00400
Ni	Ni	0.39421 0.55934 0.89110 1.00400
Ni	Ni	0.55934 0.39421 0.15535 1.00400
Ni	Ni	0.89110 0.39421 0.55934 1.00400
Ni	Ni	0.15535 0.55934 0.39421 1.00400
Ni	Ni	0.39421 0.89110 0.15535 1.00400
Ni	Ni	0.55934 0.15535 0.89110 1.00400
Ni	Ni	0.89110 0.55934 0.15535 1.00400
Ni	Ni	0.15535 0.39421 0.89110 1.00400
Ni	Ni	0.39421 0.15535 0.55934 1.00400
Ni	Ni	0.55934 0.89110 0.39421 1.00400
Ni	Ni	0.39110 0.65535 0.05934 1.00400
Ni	Ni	0.65535 0.39110 0.89421 1.00400
Ni	Ni	0.89421 0.05934 0.65535 1.00400
Ni	Ni	0.05934 0.89421 0.39110 1.00400
Ni	Ni	0.39110 0.89421 0.65535 1.00400
Ni	Ni	0.65535 0.05934 0.39110 1.00400
Ni	Ni	0.89421 0.39110 0.05934 1.00400
Ni	Ni	0.05934 0.65535 0.89421 1.00400
Ni	Ni	0.39110 0.05934 0.89421 1.00400
Ni	Ni	0.65535 0.89421 0.05934 1.00400
Ni	Ni	0.89421 0.65535 0.39110 1.00400
Ni	Ni	0.05934 0.39110 0.65535 1.00400
H 	H 	0.88320 0.96060 0.52520 0.00800
H 	H 	0.01030 0.09010 0.36950 0.00500
H 	H 	0.09190 0.08870 0.29770 0.08700
H 	H 	0.01510 0.23090 0.21130 0.08800
H 	H 	0.93570 0.22430 0.27870 -0.05300
H 	H 	0.78260 0.16160 0.41080 -0.05200
H 	H 	0.69770 0.16370 0.47570 0.07700
H 	H 	0.74970 0.15790 0.57650 0.08000
H 	H 	0.83170 0.15370 0.51130 -0.01900
H 	H 	0.96060 0.88320 0.63100 0.00800
H 	H 	0.09010 0.01030 0.53010 0.00500
H 	H 	0.08870 0.09190 0.52170 0.08700
H 	H 	0.23090 0.01510 0.54270 0.08800
H 	H 	0.22430 0.93570 0.56130 -0.05300
H 	H 	0.16160 0.78260 0.64500 -0.05200
H 	H 	0.16370 0.69770 0.66290 0.07700
H 	H 	0.15790 0.74970 0.51590 0.08000
H 	H 	0.15370 0.83170 0.50330 -0.01900
H 	H 	0.52520 0.63100 0.88320 0.00800
H 	H 	0.36950 0.53010 0.01030 0.00500
H 	H 	0.29770 0.52170 0.09190 0.08700
H 	H 	0.21130 0.54270 0.01510 0.08800
H 	H 	0.27870 0.56130 0.93570 -0.05300
H 	H 	0.41080 0.64500 0.78260 -0.05200
H 	H 	0.47570 0.66290 0.69770 0.07700
H 	H 	0.57650 0.51590 0.74970 0.08000
H 	H 	0.51130 0.50330 0.83170 -0.01900
H 	H 	0.63100 0.52520 0.96060 0.00800
H 	H 	0.53010 0.36950 0.09010 0.00500
H 	H 	0.52170 0.29770 0.08870 0.08700
H 	H 	0.54270 0.21130 0.23090 0.08800
H 	H 	0.56130 0.27870 0.22430 -0.05300
H 	H 	0.64500 0.41080 0.16160 -0.05200
H 	H 	0.66290 0.47570 0.16370 0.07700
H 	H 	0.51590 0.57650 0.15790 0.08000
H 	H 	0.50330 0.51130 0.15370 -0.01900
H 	H 	0.88320 0.52520 0.63100 0.00800
H 	H 	0.01030 0.36950 0.53010 0.00500
H 	H 	0.09190 0.29770 0.52170 0.08700
H 	H 	0.01510 0.21130 0.54270 0.08800
H 	H 	0.93570 0.27870 0.56130 -0.05300
H 	H 	0.78260 0.41080 0.64500 -0.05200
H 	H 	0.69770 0.47570 0.66290 0.07700
H 	H 	0.74970 0.57650 0.51590 0.08000
H 	H 	0.83170 0.51130 0.50330 -0.01900
H 	H 	0.96060 0.63100 0.52520 0.00800
H 	H 	0.09010 0.53010 0.36950 0.00500
H 	H 	0.08870 0.52170 0.29770 0.08700
H 	H 	0.23090 0.54270 0.21130 0.08800
H 	H 	0.22430 0.56130 0.27870 -0.05300
H 	H 	0.16160 0.64500 0.41080 -0.05200
H 	H 	0.16370 0.66290 0.47570 0.07700
H 	H 	0.15790 0.51590 0.57650 0.08000
H 	H 	0.15370 0.50330 0.51130 -0.01900
H 	H 	0.52520 0.88320 0.96060 0.00800
H 	H 	0.36950 0.01030 0.09010 0.00500
H 	H 	0.29770 0.09190 0.08870 0.08700
H 	H 	0.21130 0.01510 0.23090 0.08800
H 	H 	0.27870 0.93570 0.22430 -0.05300
H 	H 	0.41080 0.78260 0.16160 -0.05200
H 	H 	0.47570 0.69770 0.16370 0.07700
H 	H 	0.57650 0.74970 0.15790 0.08000
H 	H 	0.51130 0.83170 0.15370 -0.01900
H 	H 	0.63100 0.96060 0.88320 0.00800
H 	H 	0.53010 0.09010 0.01030 0.00500
H 	H 	0.52170 0.08870 0.09190 0.08700
H 	H 	0.54270 0.23090 0.01510 0.08800
H 	H 	0.56130 0.22430 0.93570 -0.05300
H 	H 	0.64500 0.16160 0.78260 -0.05200
H 	H 	0.66290 0.16370 0.69770 0.07700
H 	H 	0.51590 0.15790 0.74970 0.08000
H 	H 	0.50330 0.15370 0.83170 -0.01900
H 	H 	0.88320 0.63100 0.96060 0.00800
H 	H 	0.01030 0.53010 0.09010 0.00500
H 	H 	0.09190 0.52170 0.08870 0.08700
H 	H 	0.01510 0.54270 0.23090 0.08800
H 	H 	0.93570 0.56130 0.22430 -0.05300
H 	H 	0.78260 0.64500 0.16160 -0.05200
H 	H 	0.69770 0.66290 0.16370 0.07700
H 	H 	0.74970 0.51590 0.15790 0.08000
H 	H 	0.83170 0.50330 0.15370 -0.01900
H 	H 	0.96060 0.52520 0.88320 0.00800
H 	H 	0.09010 0.36950 0.01030 0.00500
H 	H 	0.08870 0.29770 0.09190 0.08700
H 	H 	0.23090 0.21130 0.01510 0.08800
H 	H 	0.22430 0.27870 0.93570 -0.05300
H 	H 	0.16160 0.41080 0.78260 -0.05200
H 	H 	0.16370 0.47570 0.69770 0.07700
H 	H 	0.15790 0.57650 0.74970 0.08000
H 	H 	0.15370 0.51130 0.83170 -0.01900
H 	H 	0.52520 0.96060 0.63100 0.00800
H 	H 	0.36950 0.09010 0.53010 0.00500
H 	H 	0.29770 0.08870 0.52170 0.08700
H 	H 	0.21130 0.23090 0.54270 0.08800
H 	H 	0.27870 0.22430 0.56130 -0.05300
H 	H 	0.41080 0.16160 0.64500 -0.05200
H 	H 	0.47570 0.16370 0.66290 0.07700
H 	H 	0.57650 0.15790 0.51590 0.08000
H 	H 	0.51130 0.15370 0.50330 -0.01900
H 	H 	0.63100 0.88320 0.52520 0.00800
H 	H 	0.53010 0.01030 0.36950 0.00500
H 	H 	0.52170 0.09190 0.29770 0.08700
H 	H 	0.54270 0.01510 0.21130 0.08800
H 	H 	0.56130 0.93570 0.27870 -0.05300
H 	H 	0.64500 0.78260 0.41080 -0.05200
H 	H 	0.66290 0.69770 0.47570 0.07700
H 	H 	0.51590 0.74970 0.57650 0.08000
H 	H 	0.50330 0.83170 0.51130 -0.01900
H 	H 	0.38320 0.46060 0.13100 0.00800
H 	H 	0.51030 0.59010 0.03010 0.00500
H 	H 	0.59190 0.58870 0.02170 0.08700
H 	H 	0.51510 0.73090 0.04270 0.08800
H 	H 	0.43570 0.72430 0.06130 -0.05300
H 	H 	0.28260 0.66160 0.14500 -0.05200
H 	H 	0.19770 0.66370 0.16290 0.07700
H 	H 	0.24970 0.65790 0.01590 0.08000
H 	H 	0.33170 0.65370 0.00330 -0.01900
H 	H 	0.46060 0.38320 0.02520 0.00800
H 	H 	0.59010 0.51030 0.86950 0.00500
H 	H 	0.58870 0.59190 0.79770 0.08700
H 	H 	0.73090 0.51510 0.71130 0.08800
H 	H 	0.72430 0.43570 0.77870 -0.05300
H 	H 	0.66160 0.28260 0.91080 -0.05200
H 	H 	0.66370 0.19770 0.97570 0.07700
H 	H 	0.65790 0.24970 0.07650 0.08000
H 	H 	0.65370 0.33170 0.01130 -0.01900
H 	H 	0.02520 0.13100 0.46060 0.00800
H 	H 	0.86950 0.03010 0.59010 0.00500
H 	H 	0.79770 0.02170 0.58870 0.08700
H 	H 	0.71130 0.04270 0.73090 0.08800
H 	H 	0.77870 0.06130 0.72430 -0.05300
H 	H 	0.91080 0.14500 0.66160 -0.05200
H 	H 	0.97570 0.16290 0.66370 0.07700
H 	H 	0.07650 0.01590 0.65790 0.08000
H 	H 	0.01130 0.00330 0.65370 -0.01900
H 	H 	0.13100 0.02520 0.38320 0.00800
H 	H 	0.03010 0.86950 0.51030 0.00500
H 	H 	0.02170 0.79770 0.59190 0.08700
H 	H 	0.04270 0.71130 0.51510 0.08800
H 	H 	0.06130 0.77870 0.43570 -0.05300
H 	H 	0.14500 0.91080 0.28260 -0.05200
H 	H 	0.16290 0.97570 0.19770 0.07700
H 	H 	0.01590 0.07650 0.24970 0.08100
H 	H 	0.00330 0.01130 0.33170 -0.01900
H 	H 	0.38320 0.02520 0.46060 0.00800
H 	H 	0.51030 0.86950 0.59010 0.00500
H 	H 	0.59190 0.79770 0.58870 0.08700
H 	H 	0.51510 0.71130 0.73090 0.08800
H 	H 	0.43570 0.77870 0.72430 -0.05300
H 	H 	0.28260 0.91080 0.66160 -0.05200
H 	H 	0.19770 0.97570 0.66370 0.07700
H 	H 	0.24970 0.07650 0.65790 0.08000
H 	H 	0.33170 0.01130 0.65370 -0.01900
H 	H 	0.46060 0.13100 0.38320 0.00800
H 	H 	0.59010 0.03010 0.51030 0.00500
H 	H 	0.58870 0.02170 0.59190 0.08700
H 	H 	0.73090 0.04270 0.51510 0.08800
H 	H 	0.72430 0.06130 0.43570 -0.05300
H 	H 	0.66160 0.14500 0.28260 -0.05200
H 	H 	0.66370 0.16290 0.19770 0.07700
H 	H 	0.65790 0.01590 0.24970 0.08000
H 	H 	0.65370 0.00330 0.33170 -0.01900
H 	H 	0.02520 0.38320 0.13100 0.00800
H 	H 	0.86950 0.51030 0.03010 0.00500
H 	H 	0.79770 0.59190 0.02170 0.08700
H 	H 	0.71130 0.51510 0.04270 0.08800
H 	H 	0.77870 0.43570 0.06130 -0.05300
H 	H 	0.91080 0.28260 0.14500 -0.05200
H 	H 	0.97570 0.19770 0.16290 0.07700
H 	H 	0.07650 0.24970 0.01590 0.08100
H 	H 	0.01130 0.33170 0.00330 -0.01900
H 	H 	0.13100 0.46060 0.02520 0.00800
H 	H 	0.03010 0.59010 0.86950 0.00500
H 	H 	0.02170 0.58870 0.79770 0.08700
H 	H 	0.04270 0.73090 0.71130 0.08800
H 	H 	0.06130 0.72430 0.77870 -0.05300
H 	H 	0.14500 0.66160 0.91080 -0.05200
H 	H 	0.16290 0.66370 0.97570 0.07700
H 	H 	0.01590 0.65790 0.07650 0.08000
H 	H 	0.00330 0.65370 0.01130 -0.01900
H 	H 	0.38320 0.13100 0.02520 0.00800
H 	H 	0.51030 0.03010 0.86950 0.00500
H 	H 	0.59190 0.02170 0.79770 0.08700
H 	H 	0.51510 0.04270 0.71130 0.08800
H 	H 	0.43570 0.06130 0.77870 -0.05300
H 	H 	0.28260 0.14500 0.91080 -0.05200
H 	H 	0.19770 0.16290 0.97570 0.07700
H 	H 	0.24970 0.01590 0.07650 0.08100
H 	H 	0.33170 0.00330 0.01130 -0.01900
H 	H 	0.46060 0.02520 0.13100 0.00800
H 	H 	0.59010 0.86950 0.03010 0.00500
H 	H 	0.58870 0.79770 0.02170 0.08700
H 	H 	0.73090 0.71130 0.04270 0.08800
H 	H 	0.72430 0.77870 0.06130 -0.05300
H 	H 	0.66160 0.91080 0.14500 -0.05200
H 	H 	0.66370 0.97570 0.16290 0.07700
H 	H 	0.65790 0.07650 0.01590 0.08000
H 	H 	0.65370 0.01130 0.00330 -0.01900
H 	H 	0.02520 0.46060 0.38320 0.00800
H 	H 	0.86950 0.59010 0.51030 0.00500
H 	H 	0.79770 0.58870 0.59190 0.08700
H 	H 	0.71130 0.73090 0.51510 0.08800
H 	H 	0.77870 0.72430 0.43570 -0.05300
H 	H 	0.91080 0.66160 0.28260 -0.05200
H 	H 	0.97570 0.66370 0.19770 0.07700
H 	H 	0.07650 0.65790 0.24970 0.08000
H 	H 	0.01130 0.65370 0.33170 -0.01900
H 	H 	0.13100 0.38320 0.46060 0.00800
H 	H 	0.03010 0.51030 0.59010 0.00500
H 	H 	0.02170 0.59190 0.58870 0.08700
H 	H 	0.04270 0.51510 0.73090 0.08800
H 	H 	0.06130 0.43570 0.72430 -0.05300
H 	H 	0.14500 0.28260 0.66160 -0.05200
H 	H 	0.16290 0.19770 0.66370 0.07700
H 	H 	0.01590 0.24970 0.65790 0.08000
H 	H 	0.00330 0.33170 0.65370 -0.01900
H 	H 	0.89580 0.89580 0.60420 0.07300
H 	H 	0.60420 0.60420 0.89580 0.07300
H 	H 	0.89580 0.60420 0.60420 0.07300
H 	H 	0.60420 0.89580 0.89580 0.07300
H 	H 	0.89580 0.60420 0.89580 0.07300
H 	H 	0.60420 0.89580 0.60420 0.07300
H 	H 	0.39580 0.39580 0.10420 0.07300
H 	H 	0.10420 0.10420 0.39580 0.07300
H 	H 	0.39580 0.10420 0.39580 0.07300
H 	H 	0.10420 0.39580 0.10420 0.07300
H 	H 	0.39580 0.10420 0.10420 0.07300
H 	H 	0.10420 0.39580 0.39580 0.07300
C 	C 	0.92897 0.03421 0.45335 0.36100
C 	C 	0.94169 0.99019 0.50245 -0.13500
C 	C 	0.90980 0.95634 0.53554 0.05700
C 	C 	0.01079 0.11835 0.33655 0.07000
C 	C 	0.06061 0.11781 0.29329 -0.14100
C 	C 	0.06315 0.15837 0.24657 0.07300
C 	C 	0.01503 0.20059 0.24237 -0.15500
C 	C 	0.96770 0.19740 0.28392 0.08200
C 	C 	0.11313 0.15899 0.19943 0.09400
C 	C 	0.77593 0.16007 0.44503 0.07300
C 	C 	0.72426 0.16258 0.48372 -0.14800
C 	C 	0.71273 0.16331 0.53311 0.06700
C 	C 	0.75500 0.15886 0.54298 -0.15100
C 	C 	0.80419 0.15585 0.50385 0.08600
C 	C 	0.65818 0.16628 0.57400 0.09100
C 	C 	0.03421 0.92897 0.58347 0.36100
C 	C 	0.99019 0.94169 0.56567 -0.13500
C 	C 	0.95634 0.90980 0.59832 0.05700
C 	C 	0.11835 0.01079 0.53431 0.07000
C 	C 	0.11781 0.06061 0.52829 -0.14100
C 	C 	0.15837 0.06315 0.53191 0.07300
C 	C 	0.20059 0.01503 0.54201 -0.15600
C 	C 	0.19740 0.96770 0.55098 0.08200
C 	C 	0.15899 0.11313 0.52845 0.09400
C 	C 	0.16007 0.77593 0.61897 0.07300
C 	C 	0.16258 0.72426 0.62944 -0.14800
C 	C 	0.16331 0.71273 0.59085 0.06700
C 	C 	0.15886 0.75500 0.54316 -0.15100
C 	C 	0.15585 0.80419 0.53611 0.08600
C 	C 	0.16628 0.65818 0.60154 0.09100
C 	C 	0.45335 0.58347 0.92897 0.36100
C 	C 	0.50245 0.56567 0.94169 -0.13400
C 	C 	0.53554 0.59832 0.90980 0.05700
C 	C 	0.33655 0.53431 0.01079 0.07000
C 	C 	0.29329 0.52829 0.06061 -0.14100
C 	C 	0.24657 0.53191 0.06315 0.07300
C 	C 	0.24237 0.54201 0.01503 -0.15600
C 	C 	0.28392 0.55098 0.96770 0.08200
C 	C 	0.19943 0.52845 0.11313 0.09400
C 	C 	0.44503 0.61897 0.77593 0.07300
C 	C 	0.48372 0.62944 0.72426 -0.14800
C 	C 	0.53311 0.59085 0.71273 0.06700
C 	C 	0.54298 0.54316 0.75500 -0.15100
C 	C 	0.50385 0.53611 0.80419 0.08600
C 	C 	0.57400 0.60154 0.65818 0.09100
C 	C 	0.58347 0.45335 0.03421 0.36200
C 	C 	0.56567 0.50245 0.99019 -0.13500
C 	C 	0.59832 0.53554 0.95634 0.05700
C 	C 	0.53431 0.33655 0.11835 0.07000
C 	C 	0.52829 0.29329 0.11781 -0.14100
C 	C 	0.53191 0.24657 0.15837 0.07300
C 	C 	0.54201 0.24237 0.20059 -0.15600
C 	C 	0.55098 0.28392 0.19740 0.08300
C 	C 	0.52845 0.19943 0.15899 0.09400
C 	C 	0.61897 0.44503 0.16007 0.07300
C 	C 	0.62944 0.48372 0.16258 -0.14800
C 	C 	0.59085 0.53311 0.16331 0.06700
C 	C 	0.54316 0.54298 0.15886 -0.15100
C 	C 	0.53611 0.50385 0.15585 0.08600
C 	C 	0.60154 0.57400 0.16628 0.09100
C 	C 	0.92897 0.45335 0.58347 0.36100
C 	C 	0.94169 0.50245 0.56567 -0.13400
C 	C 	0.90980 0.53554 0.59832 0.05700
C 	C 	0.01079 0.33655 0.53431 0.07000
C 	C 	0.06061 0.29329 0.52829 -0.14100
C 	C 	0.06315 0.24657 0.53191 0.07300
C 	C 	0.01503 0.24237 0.54201 -0.15600
C 	C 	0.96770 0.28392 0.55098 0.08200
C 	C 	0.11313 0.19943 0.52845 0.09400
C 	C 	0.77593 0.44503 0.61897 0.07300
C 	C 	0.72426 0.48372 0.62944 -0.14800
C 	C 	0.71273 0.53311 0.59085 0.06700
C 	C 	0.75500 0.54298 0.54316 -0.15100
C 	C 	0.80419 0.50385 0.53611 0.08600
C 	C 	0.65818 0.57400 0.60154 0.09100
C 	C 	0.03421 0.58347 0.45335 0.36200
C 	C 	0.99019 0.56567 0.50245 -0.13500
C 	C 	0.95634 0.59832 0.53554 0.05700
C 	C 	0.11835 0.53431 0.33655 0.07000
C 	C 	0.11781 0.52829 0.29329 -0.14100
C 	C 	0.15837 0.53191 0.24657 0.07300
C 	C 	0.20059 0.54201 0.24237 -0.15600
C 	C 	0.19740 0.55098 0.28392 0.08300
C 	C 	0.15899 0.52845 0.19943 0.09400
C 	C 	0.16007 0.61897 0.44503 0.07300
C 	C 	0.16258 0.62944 0.48372 -0.14800
C 	C 	0.16331 0.59085 0.53311 0.06700
C 	C 	0.15886 0.54316 0.54298 -0.15100
C 	C 	0.15585 0.53611 0.50385 0.08600
C 	C 	0.16628 0.60154 0.57400 0.09100
C 	C 	0.45335 0.92897 0.03421 0.36100
C 	C 	0.50245 0.94169 0.99019 -0.13500
C 	C 	0.53554 0.90980 0.95634 0.05700
C 	C 	0.33655 0.01079 0.11835 0.07000
C 	C 	0.29329 0.06061 0.11781 -0.14100
C 	C 	0.24657 0.06315 0.15837 0.07300
C 	C 	0.24237 0.01503 0.20059 -0.15500
C 	C 	0.28392 0.96770 0.19740 0.08200
C 	C 	0.19943 0.11313 0.15899 0.09400
C 	C 	0.44503 0.77593 0.16007 0.07300
C 	C 	0.48372 0.72426 0.16258 -0.14800
C 	C 	0.53311 0.71273 0.16331 0.06700
C 	C 	0.54298 0.75500 0.15886 -0.15100
C 	C 	0.50385 0.80419 0.15585 0.08600
C 	C 	0.57400 0.65818 0.16628 0.09100
C 	C 	0.58347 0.03421 0.92897 0.36100
C 	C 	0.56567 0.99019 0.94169 -0.13500
C 	C 	0.59832 0.95634 0.90980 0.05700
C 	C 	0.53431 0.11835 0.01079 0.07000
C 	C 	0.52829 0.11781 0.06061 -0.14100
C 	C 	0.53191 0.15837 0.06315 0.07300
C 	C 	0.54201 0.20059 0.01503 -0.15600
C 	C 	0.55098 0.19740 0.96770 0.08200
C 	C 	0.52845 0.15899 0.11313 0.09400
C 	C 	0.61897 0.16007 0.77593 0.07300
C 	C 	0.62944 0.16258 0.72426 -0.14800
C 	C 	0.59085 0.16331 0.71273 0.06700
C 	C 	0.54316 0.15886 0.75500 -0.15100
C 	C 	0.53611 0.15585 0.80419 0.08600
C 	C 	0.60154 0.16628 0.65818 0.09100
C 	C 	0.92897 0.58347 0.03421 0.36100
C 	C 	0.94169 0.56567 0.99019 -0.13500
C 	C 	0.90980 0.59832 0.95634 0.05700
C 	C 	0.01079 0.53431 0.11835 0.07000
C 	C 	0.06061 0.52829 0.11781 -0.14100
C 	C 	0.06315 0.53191 0.15837 0.07300
C 	C 	0.01503 0.54201 0.20059 -0.15600
C 	C 	0.96770 0.55098 0.19740 0.08200
C 	C 	0.11313 0.52845 0.15899 0.09400
C 	C 	0.77593 0.61897 0.16007 0.07300
C 	C 	0.72426 0.62944 0.16258 -0.14800
C 	C 	0.71273 0.59085 0.16331 0.06700
C 	C 	0.75500 0.54316 0.15886 -0.15100
C 	C 	0.80419 0.53611 0.15585 0.08600
C 	C 	0.65818 0.60154 0.16628 0.09100
C 	C 	0.03421 0.45335 0.92897 0.36100
C 	C 	0.99019 0.50245 0.94169 -0.13500
C 	C 	0.95634 0.53554 0.90980 0.05700
C 	C 	0.11835 0.33655 0.01079 0.07000
C 	C 	0.11781 0.29329 0.06061 -0.14100
C 	C 	0.15837 0.24657 0.06315 0.07300
C 	C 	0.20059 0.24237 0.01503 -0.15500
C 	C 	0.19740 0.28392 0.96770 0.08200
C 	C 	0.15899 0.19943 0.11313 0.09400
C 	C 	0.16007 0.44503 0.77593 0.07300
C 	C 	0.16258 0.48372 0.72426 -0.14800
C 	C 	0.16331 0.53311 0.71273 0.06700
C 	C 	0.15886 0.54298 0.75500 -0.15100
C 	C 	0.15585 0.50385 0.80419 0.08600
C 	C 	0.16628 0.57400 0.65818 0.09100
C 	C 	0.45335 0.03421 0.58347 0.36200
C 	C 	0.50245 0.99019 0.56567 -0.13500
C 	C 	0.53554 0.95634 0.59832 0.05700
C 	C 	0.33655 0.11835 0.53431 0.07000
C 	C 	0.29329 0.11781 0.52829 -0.14100
C 	C 	0.24657 0.15837 0.53191 0.07300
C 	C 	0.24237 0.20059 0.54201 -0.15600
C 	C 	0.28392 0.19740 0.55098 0.08300
C 	C 	0.19943 0.15899 0.52845 0.09400
C 	C 	0.44503 0.16007 0.61897 0.07300
C 	C 	0.48372 0.16258 0.62944 -0.14800
C 	C 	0.53311 0.16331 0.59085 0.06700
C 	C 	0.54298 0.15886 0.54316 -0.15100
C 	C 	0.50385 0.15585 0.53611 0.08600
C 	C 	0.57400 0.16628 0.60154 0.09100
C 	C 	0.58347 0.92897 0.45335 0.36100
C 	C 	0.56567 0.94169 0.50245 -0.13400
C 	C 	0.59832 0.90980 0.53554 0.05700
C 	C 	0.53431 0.01079 0.33655 0.07000
C 	C 	0.52829 0.06061 0.29329 -0.14100
C 	C 	0.53191 0.06315 0.24657 0.07300
C 	C 	0.54201 0.01503 0.24237 -0.15600
C 	C 	0.55098 0.96770 0.28392 0.08200
C 	C 	0.52845 0.11313 0.19943 0.09400
C 	C 	0.61897 0.77593 0.44503 0.07300
C 	C 	0.62944 0.72426 0.48372 -0.14800
C 	C 	0.59085 0.71273 0.53311 0.06700
C 	C 	0.54316 0.75500 0.54298 -0.15100
C 	C 	0.53611 0.80419 0.50385 0.08600
C 	C 	0.60154 0.65818 0.57400 0.09100
C 	C 	0.42897 0.53421 0.08347 0.36100
C 	C 	0.44169 0.49019 0.06567 -0.13400
C 	C 	0.40980 0.45634 0.09832 0.05700
C 	C 	0.51079 0.61835 0.03431 0.07000
C 	C 	0.56061 0.61781 0.02829 -0.14100
C 	C 	0.56315 0.65837 0.03191 0.07300
C 	C 	0.51503 0.70059 0.04201 -0.15600
C 	C 	0.46770 0.69740 0.05098 0.08300
C 	C 	0.61313 0.65899 0.02845 0.09300
C 	C 	0.27593 0.66007 0.11897 0.07300
C 	C 	0.22426 0.66258 0.12944 -0.14800
C 	C 	0.21273 0.66331 0.09085 0.06600
C 	C 	0.25500 0.65886 0.04316 -0.15100
C 	C 	0.30419 0.65585 0.03611 0.08600
C 	C 	0.15818 0.66628 0.10154 0.09100
C 	C 	0.53421 0.42897 0.95335 0.36100
C 	C 	0.49019 0.44169 0.00245 -0.13400
C 	C 	0.45634 0.40980 0.03554 0.05700
C 	C 	0.61835 0.51079 0.83655 0.07000
C 	C 	0.61781 0.56061 0.79329 -0.14100
C 	C 	0.65837 0.56315 0.74657 0.07300
C 	C 	0.70059 0.51503 0.74237 -0.15600
C 	C 	0.69740 0.46770 0.78392 0.08300
C 	C 	0.65899 0.61313 0.69943 0.09400
C 	C 	0.66007 0.27593 0.94503 0.07300
C 	C 	0.66258 0.22426 0.98372 -0.14900
C 	C 	0.66331 0.21273 0.03311 0.06700
C 	C 	0.65886 0.25500 0.04298 -0.15100
C 	C 	0.65585 0.30419 0.00385 0.08600
C 	C 	0.66628 0.15818 0.07400 0.09100
C 	C 	0.95335 0.08347 0.53421 0.36100
C 	C 	0.00245 0.06567 0.49019 -0.13400
C 	C 	0.03554 0.09832 0.45634 0.05700
C 	C 	0.83655 0.03431 0.61835 0.07000
C 	C 	0.79329 0.02829 0.61781 -0.14100
C 	C 	0.74657 0.03191 0.65837 0.07300
C 	C 	0.74237 0.04201 0.70059 -0.15600
C 	C 	0.78392 0.05098 0.69740 0.08300
C 	C 	0.69943 0.02845 0.65899 0.09300
C 	C 	0.94503 0.11897 0.66007 0.07300
C 	C 	0.98372 0.12944 0.66258 -0.14900
C 	C 	0.03311 0.09085 0.66331 0.06700
C 	C 	0.04298 0.04316 0.65886 -0.15200
C 	C 	0.00385 0.03611 0.65585 0.08600
C 	C 	0.07400 0.10154 0.66628 0.09100
C 	C 	0.08347 0.95335 0.42897 0.36100
C 	C 	0.06567 0.00245 0.44169 -0.13400
C 	C 	0.09832 0.03554 0.40980 0.05700
C 	C 	0.03431 0.83655 0.51079 0.07000
C 	C 	0.02829 0.79329 0.56061 -0.14100
C 	C 	0.03191 0.74657 0.56315 0.07300
C 	C 	0.04201 0.74237 0.51503 -0.15600
C 	C 	0.05098 0.78392 0.46770 0.08300
C 	C 	0.02845 0.69943 0.61313 0.09300
C 	C 	0.11897 0.94503 0.27593 0.07300
C 	C 	0.12944 0.98372 0.22426 -0.14900
C 	C 	0.09085 0.03311 0.21273 0.06700
C 	C 	0.04316 0.04298 0.25500 -0.15200
C 	C 	0.03611 0.00385 0.30419 0.08600
C 	C 	0.10154 0.07400 0.15818 0.09100
C 	C 	0.42897 0.95335 0.53421 0.36100
C 	C 	0.44169 0.00245 0.49019 -0.13400
C 	C 	0.40980 0.03554 0.45634 0.05700
C 	C 	0.51079 0.83655 0.61835 0.07000
C 	C 	0.56061 0.79329 0.61781 -0.14100
C 	C 	0.56315 0.74657 0.65837 0.07300
C 	C 	0.51503 0.74237 0.70059 -0.15600
C 	C 	0.46770 0.78392 0.69740 0.08300
C 	C 	0.61313 0.69943 0.65899 0.09400
C 	C 	0.27593 0.94503 0.66007 0.07300
C 	C 	0.22426 0.98372 0.66258 -0.14900
C 	C 	0.21273 0.03311 0.66331 0.06700
C 	C 	0.25500 0.04298 0.65886 -0.15100
C 	C 	0.30419 0.00385 0.65585 0.08600
C 	C 	0.15818 0.07400 0.66628 0.09100
C 	C 	0.53421 0.08347 0.42897 0.36100
C 	C 	0.49019 0.06567 0.44169 -0.13400
C 	C 	0.45634 0.09832 0.40980 0.05700
C 	C 	0.61835 0.03431 0.51079 0.07000
C 	C 	0.61781 0.02829 0.56061 -0.14100
C 	C 	0.65837 0.03191 0.56315 0.07300
C 	C 	0.70059 0.04201 0.51503 -0.15600
C 	C 	0.69740 0.05098 0.46770 0.08300
C 	C 	0.65899 0.02845 0.61313 0.09300
C 	C 	0.66007 0.11897 0.27593 0.07300
C 	C 	0.66258 0.12944 0.22426 -0.14800
C 	C 	0.66331 0.09085 0.21273 0.06600
C 	C 	0.65886 0.04316 0.25500 -0.15100
C 	C 	0.65585 0.03611 0.30419 0.08600
C 	C 	0.66628 0.10154 0.15818 0.09100
C 	C 	0.95335 0.42897 0.08347 0.36100
C 	C 	0.00245 0.44169 0.06567 -0.13400
C 	C 	0.03554 0.40980 0.09832 0.05700
C 	C 	0.83655 0.51079 0.03431 0.07000
C 	C 	0.79329 0.56061 0.02829 -0.14100
C 	C 	0.74657 0.56315 0.03191 0.07300
C 	C 	0.74237 0.51503 0.04201 -0.15600
C 	C 	0.78392 0.46770 0.05098 0.08300
C 	C 	0.69943 0.61313 0.02845 0.09300
C 	C 	0.94503 0.27593 0.11897 0.07300
C 	C 	0.98372 0.22426 0.12944 -0.14900
C 	C 	0.03311 0.21273 0.09085 0.06700
C 	C 	0.04298 0.25500 0.04316 -0.15200
C 	C 	0.00385 0.30419 0.03611 0.08600
C 	C 	0.07400 0.15818 0.10154 0.09100
C 	C 	0.08347 0.53421 0.95335 0.36100
C 	C 	0.06567 0.49019 0.00245 -0.13400
C 	C 	0.09832 0.45634 0.03554 0.05700
C 	C 	0.03431 0.61835 0.83655 0.07000
C 	C 	0.02829 0.61781 0.79329 -0.14100
C 	C 	0.03191 0.65837 0.74657 0.07300
C 	C 	0.04201 0.70059 0.74237 -0.15600
C 	C 	0.05098 0.69740 0.78392 0.08300
C 	C 	0.02845 0.65899 0.69943 0.09300
C 	C 	0.11897 0.66007 0.94503 0.07300
C 	C 	0.12944 0.66258 0.98372 -0.14900
C 	C 	0.09085 0.66331 0.03311 0.06700
C 	C 	0.04316 0.65886 0.04298 -0.15200
C 	C 	0.03611 0.65585 0.00385 0.08600
C 	C 	0.10154 0.66628 0.07400 0.09100
C 	C 	0.42897 0.08347 0.95335 0.36100
C 	C 	0.44169 0.06567 0.00245 -0.13400
C 	C 	0.40980 0.09832 0.03554 0.05700
C 	C 	0.51079 0.03431 0.83655 0.07000
C 	C 	0.56061 0.02829 0.79329 -0.14100
C 	C 	0.56315 0.03191 0.74657 0.07300
C 	C 	0.51503 0.04201 0.74237 -0.15600
C 	C 	0.46770 0.05098 0.78392 0.08300
C 	C 	0.61313 0.02845 0.69943 0.09300
C 	C 	0.27593 0.11897 0.94503 0.07300
C 	C 	0.22426 0.12944 0.98372 -0.14900
C 	C 	0.21273 0.09085 0.03311 0.06700
C 	C 	0.25500 0.04316 0.04298 -0.15200
C 	C 	0.30419 0.03611 0.00385 0.08600
C 	C 	0.15818 0.10154 0.07400 0.09100
C 	C 	0.53421 0.95335 0.08347 0.36100
C 	C 	0.49019 0.00245 0.06567 -0.13400
C 	C 	0.45634 0.03554 0.09832 0.05700
C 	C 	0.61835 0.83655 0.03431 0.07000
C 	C 	0.61781 0.79329 0.02829 -0.14100
C 	C 	0.65837 0.74657 0.03191 0.07300
C 	C 	0.70059 0.74237 0.04201 -0.15600
C 	C 	0.69740 0.78392 0.05098 0.08300
C 	C 	0.65899 0.69943 0.02845 0.09300
C 	C 	0.66007 0.94503 0.11897 0.07300
C 	C 	0.66258 0.98372 0.12944 -0.14900
C 	C 	0.66331 0.03311 0.09085 0.06700
C 	C 	0.65886 0.04298 0.04316 -0.15200
C 	C 	0.65585 0.00385 0.03611 0.08600
C 	C 	0.66628 0.07400 0.10154 0.09100
C 	C 	0.95335 0.53421 0.42897 0.36100
C 	C 	0.00245 0.49019 0.44169 -0.13400
C 	C 	0.03554 0.45634 0.40980 0.05700
C 	C 	0.83655 0.61835 0.51079 0.07000
C 	C 	0.79329 0.61781 0.56061 -0.14100
C 	C 	0.74657 0.65837 0.56315 0.07300
C 	C 	0.74237 0.70059 0.51503 -0.15600
C 	C 	0.78392 0.69740 0.46770 0.08300
C 	C 	0.69943 0.65899 0.61313 0.09400
C 	C 	0.94503 0.66007 0.27593 0.07300
C 	C 	0.98372 0.66258 0.22426 -0.14900
C 	C 	0.03311 0.66331 0.21273 0.06700
C 	C 	0.04298 0.65886 0.25500 -0.15100
C 	C 	0.00385 0.65585 0.30419 0.08600
C 	C 	0.07400 0.66628 0.15818 0.09100
C 	C 	0.08347 0.42897 0.53421 0.36100
C 	C 	0.06567 0.44169 0.49019 -0.13400
C 	C 	0.09832 0.40980 0.45634 0.05700
C 	C 	0.03431 0.51079 0.61835 0.07000
C 	C 	0.02829 0.56061 0.61781 -0.14100
C 	C 	0.03191 0.56315 0.65837 0.07300
C 	C 	0.04201 0.51503 0.70059 -0.15600
C 	C 	0.05098 0.46770 0.69740 0.08300
C 	C 	0.02845 0.61313 0.65899 0.09300
C 	C 	0.11897 0.27593 0.66007 0.07300
C 	C 	0.12944 0.22426 0.66258 -0.14800
C 	C 	0.09085 0.21273 0.66331 0.06600
C 	C 	0.04316 0.25500 0.65886 -0.15100
C 	C 	0.03611 0.30419 0.65585 0.08600
C 	C 	0.10154 0.15818 0.66628 0.09100
C 	C 	0.98249 0.98249 0.51751 0.08700
C 	C 	0.91752 0.91752 0.58248 -0.13700
C 	C 	0.51751 0.51751 0.98249 0.08700
C 	C 	0.58248 0.58248 0.91752 -0.13700
C 	C 	0.98249 0.51751 0.51751 0.08700
C 	C 	0.91752 0.58248 0.58248 -0.13700
C 	C 	0.51751 0.98249 0.98249 0.08700
C 	C 	0.58248 0.91752 0.91752 -0.13700
C 	C 	0.98249 0.51751 0.98249 0.08700
C 	C 	0.91752 0.58248 0.91752 -0.13700
C 	C 	0.51751 0.98249 0.51751 0.08700
C 	C 	0.58248 0.91752 0.58248 -0.13700
C 	C 	0.48249 0.48249 0.01751 0.08700
C 	C 	0.41752 0.41752 0.08248 -0.13700
C 	C 	0.01751 0.01751 0.48249 0.08700
C 	C 	0.08248 0.08248 0.41752 -0.13700
C 	C 	0.48249 0.01751 0.48249 0.08700
C 	C 	0.41752 0.08248 0.41752 -0.13700
C 	C 	0.01751 0.48249 0.01751 0.08700
C 	C 	0.08248 0.41752 0.08248 -0.13700
C 	C 	0.48249 0.01751 0.01751 0.08700
C 	C 	0.41752 0.08248 0.08248 -0.13700
C 	C 	0.01751 0.48249 0.48249 0.08700
C 	C 	0.08248 0.41752 0.41752 -0.13700
N 	N 	0.96489 0.15795 0.33141 -0.27000
N 	N 	0.11255 0.20315 0.15609 -0.13800
N 	N 	0.81543 0.15573 0.45591 -0.26600
N 	N 	0.62233 0.16533 0.56183 -0.14100
N 	N 	0.15795 0.96489 0.54575 -0.27000
N 	N 	0.20315 0.11255 0.52821 -0.13800
N 	N 	0.15573 0.81543 0.57293 -0.26600
N 	N 	0.16533 0.62233 0.65051 -0.14100
N 	N 	0.33141 0.54575 0.96489 -0.27000
N 	N 	0.15609 0.52821 0.11255 -0.13800
N 	N 	0.45591 0.57293 0.81543 -0.26600
N 	N 	0.56183 0.65051 0.62233 -0.14100
N 	N 	0.54575 0.33141 0.15795 -0.27000
N 	N 	0.52821 0.15609 0.20315 -0.13800
N 	N 	0.57293 0.45591 0.15573 -0.26600
N 	N 	0.65051 0.56183 0.16533 -0.14100
N 	N 	0.96489 0.33141 0.54575 -0.27000
N 	N 	0.11255 0.15609 0.52821 -0.13800
N 	N 	0.81543 0.45591 0.57293 -0.26600
N 	N 	0.62233 0.56183 0.65051 -0.14100
N 	N 	0.15795 0.54575 0.33141 -0.27000
N 	N 	0.20315 0.52821 0.15609 -0.13800
N 	N 	0.15573 0.57293 0.45591 -0.26600
N 	N 	0.16533 0.65051 0.56183 -0.14100
N 	N 	0.33141 0.96489 0.15795 -0.27000
N 	N 	0.15609 0.11255 0.20315 -0.13800
N 	N 	0.45591 0.81543 0.15573 -0.26600
N 	N 	0.56183 0.62233 0.16533 -0.14100
N 	N 	0.54575 0.15795 0.96489 -0.27000
N 	N 	0.52821 0.20315 0.11255 -0.13800
N 	N 	0.57293 0.15573 0.81543 -0.26600
N 	N 	0.65051 0.16533 0.62233 -0.14100
N 	N 	0.96489 0.54575 0.15795 -0.27000
N 	N 	0.11255 0.52821 0.20315 -0.13800
N 	N 	0.81543 0.57293 0.15573 -0.26600
N 	N 	0.62233 0.65051 0.16533 -0.14100
N 	N 	0.15795 0.33141 0.96489 -0.27000
N 	N 	0.20315 0.15609 0.11255 -0.13800
N 	N 	0.15573 0.45591 0.81543 -0.26600
N 	N 	0.16533 0.56183 0.62233 -0.14100
N 	N 	0.33141 0.15795 0.54575 -0.27000
N 	N 	0.15609 0.20315 0.52821 -0.13800
N 	N 	0.45591 0.15573 0.57293 -0.26600
N 	N 	0.56183 0.16533 0.65051 -0.14100
N 	N 	0.54575 0.96489 0.33141 -0.27000
N 	N 	0.52821 0.11255 0.15609 -0.13800
N 	N 	0.57293 0.81543 0.45591 -0.26600
N 	N 	0.65051 0.62233 0.56183 -0.14100
N 	N 	0.46489 0.65795 0.04575 -0.27000
N 	N 	0.61255 0.70315 0.02821 -0.13800
N 	N 	0.31543 0.65573 0.07293 -0.26600
N 	N 	0.12233 0.66533 0.15051 -0.14100
N 	N 	0.65795 0.46489 0.83141 -0.27000
N 	N 	0.70315 0.61255 0.65609 -0.13800
N 	N 	0.65573 0.31543 0.95591 -0.26600
N 	N 	0.66533 0.12233 0.06183 -0.14100
N 	N 	0.83141 0.04575 0.65795 -0.27000
N 	N 	0.65609 0.02821 0.70315 -0.13800
N 	N 	0.95591 0.07293 0.65573 -0.26600
N 	N 	0.06183 0.15051 0.66533 -0.14100
N 	N 	0.04575 0.83141 0.46489 -0.27000
N 	N 	0.02821 0.65609 0.61255 -0.13800
N 	N 	0.07293 0.95591 0.31543 -0.26600
N 	N 	0.15051 0.06183 0.12233 -0.14100
N 	N 	0.46489 0.83141 0.65795 -0.27000
N 	N 	0.61255 0.65609 0.70315 -0.13800
N 	N 	0.31543 0.95591 0.65573 -0.26600
N 	N 	0.12233 0.06183 0.66533 -0.14100
N 	N 	0.65795 0.04575 0.46489 -0.27000
N 	N 	0.70315 0.02821 0.61255 -0.13800
N 	N 	0.65573 0.07293 0.31543 -0.26600
N 	N 	0.66533 0.15051 0.12233 -0.14100
N 	N 	0.83141 0.46489 0.04575 -0.27000
N 	N 	0.65609 0.61255 0.02821 -0.13800
N 	N 	0.95591 0.31543 0.07293 -0.26600
N 	N 	0.06183 0.12233 0.15051 -0.14100
N 	N 	0.04575 0.65795 0.83141 -0.27000
N 	N 	0.02821 0.70315 0.65609 -0.13800
N 	N 	0.07293 0.65573 0.95591 -0.26600
N 	N 	0.15051 0.66533 0.06183 -0.14100
N 	N 	0.46489 0.04575 0.83141 -0.27000
N 	N 	0.61255 0.02821 0.65609 -0.13800
N 	N 	0.31543 0.07293 0.95591 -0.26600
N 	N 	0.12233 0.15051 0.06183 -0.14100
N 	N 	0.65795 0.83141 0.04575 -0.27000
N 	N 	0.70315 0.65609 0.02821 -0.13800
N 	N 	0.65573 0.95591 0.07293 -0.26600
N 	N 	0.66533 0.06183 0.15051 -0.14100
N 	N 	0.83141 0.65795 0.46489 -0.27000
N 	N 	0.65609 0.70315 0.61255 -0.13800
N 	N 	0.95591 0.65573 0.31543 -0.26600
N 	N 	0.06183 0.66533 0.12233 -0.14100
N 	N 	0.04575 0.46489 0.65795 -0.27000
N 	N 	0.02821 0.61255 0.70315 -0.13800
N 	N 	0.07293 0.31543 0.65573 -0.26600
N 	N 	0.15051 0.12233 0.66533 -0.14100
O 	O 	0.92486 0.08108 0.44490 -0.42600
O 	O 	0.92199 0.02323 0.42279 -0.31900
O 	O 	0.08108 0.92486 0.54916 -0.42600
O 	O 	0.02323 0.92199 0.63199 -0.31900
O 	O 	0.44490 0.54916 0.92486 -0.42600
O 	O 	0.42279 0.63199 0.92199 -0.31900
O 	O 	0.54916 0.44490 0.08108 -0.42600
O 	O 	0.63199 0.42279 0.02323 -0.31900
O 	O 	0.92486 0.44490 0.54916 -0.42600
O 	O 	0.92199 0.42279 0.63199 -0.31900
O 	O 	0.08108 0.54916 0.44490 -0.42600
O 	O 	0.02323 0.63199 0.42279 -0.31900
O 	O 	0.44490 0.92486 0.08108 -0.42600
O 	O 	0.42279 0.92199 0.02323 -0.31900
O 	O 	0.54916 0.08108 0.92486 -0.42600
O 	O 	0.63199 0.02323 0.92199 -0.31900
O 	O 	0.92486 0.54916 0.08108 -0.42600
O 	O 	0.92199 0.63199 0.02323 -0.31900
O 	O 	0.08108 0.44490 0.92486 -0.42600
O 	O 	0.02323 0.42279 0.92199 -0.31900
O 	O 	0.44490 0.08108 0.54916 -0.42600
O 	O 	0.42279 0.02323 0.63199 -0.31900
O 	O 	0.54916 0.92486 0.44490 -0.42600
O 	O 	0.63199 0.92199 0.42279 -0.31900
O 	O 	0.42486 0.58108 0.04916 -0.42600
O 	O 	0.42199 0.52323 0.13199 -0.31900
O 	O 	0.58108 0.42486 0.94490 -0.42600
O 	O 	0.52323 0.42199 0.92279 -0.31900
O 	O 	0.94490 0.04916 0.58108 -0.42600
O 	O 	0.92279 0.13199 0.52323 -0.31900
O 	O 	0.04916 0.94490 0.42486 -0.42600
O 	O 	0.13199 0.92279 0.42199 -0.31900
O 	O 	0.42486 0.94490 0.58108 -0.42600
O 	O 	0.42199 0.92279 0.52323 -0.31900
O 	O 	0.58108 0.04916 0.42486 -0.42600
O 	O 	0.52323 0.13199 0.42199 -0.31900
O 	O 	0.94490 0.42486 0.04916 -0.42600
O 	O 	0.92279 0.42199 0.13199 -0.31900
O 	O 	0.04916 0.58108 0.94490 -0.42600
O 	O 	0.13199 0.52323 0.92279 -0.31900
O 	O 	0.42486 0.04916 0.94490 -0.42600
O 	O 	0.42199 0.13199 0.92279 -0.31900
O 	O 	0.58108 0.94490 0.04916 -0.42600
O 	O 	0.52323 0.92279 0.13199 -0.31900
O 	O 	0.94490 0.58108 0.42486 -0.42600
O 	O 	0.92279 0.52323 0.42199 -0.31900
O 	O 	0.04916 0.42486 0.58108 -0.42600
O 	O 	0.13199 0.42199 0.52323 -0.31900
