data_crystal

_cell_length_a 29.85410
_cell_length_b 20.94590
_cell_length_c 19.37890
_cell_angle_alpha 90.00000
_cell_angle_beta  94.07100
_cell_angle_gamma 90.00000

_symmetry_space_group_name_	'P 1'
_symmetry_space_group_name_H-M	'P 1'

loop_
_symmetry_equiv_pos_as_xyz
  x,y,z

loop_
_atom_site_label
_atom_site_type_symbol
_atom_site_fract_x
_atom_site_fract_y
_atom_site_fract_z
_atom_site_charge
Yb	Yb	0.27693 0.17580 0.05712 1.52500
Yb	Yb	0.18218 0.82912 0.96305 1.50400
O 	O 	0.33990 0.10480 0.07040 -0.37700
O 	O 	0.27740 0.07070 0.01940 -0.39100
O 	O 	0.25700 0.83990 0.96670 -0.46000
O 	O 	0.30830 0.77140 0.00340 -0.49300
O 	O 	0.62908 0.72390 0.38190 -0.37800
O 	O 	0.69716 0.70860 0.35290 -0.37700
O 	O 	0.68946 0.80810 0.04460 -0.41800
O 	O 	0.73191 0.74330 0.11130 -0.46200
O 	O 	0.19120 0.94310 0.97490 -0.40800
O 	O 	0.14890 0.90770 0.89190 -0.40300
O 	O 	0.21660 0.18440 0.98150 -0.48500
O 	O 	0.17325 0.24340 0.91240 -0.43200
C 	C 	0.31670 0.06010 0.04470 0.30800
C 	C 	0.33400 0.99370 0.04680 -0.07600
C 	C 	0.37680 0.98050 0.07660 -0.03100
H 	H 	0.39490 0.01360 0.09430 0.06100
C 	C 	0.39280 0.91740 0.08030 0.01300
C 	C 	0.36510 0.86820 0.05400 -0.01200
H 	H 	0.37540 0.82630 0.05660 0.04700
C 	C 	0.32260 0.88110 0.02390 -0.12600
C 	C 	0.30690 0.94330 0.01910 0.03000
H 	H 	0.27870 0.95180 0.99770 0.04900
C 	C 	0.29410 0.82630 0.99550 0.44400
C 	C 	0.43680 0.90350 0.11130 -0.01600
C 	C 	0.47320 0.88660 0.13410 -0.00200
C 	C 	0.51490 0.86440 0.15780 -0.00000
C 	C 	0.55120 0.84370 0.17710 -0.01500
C 	C 	0.59290 0.81600 0.19200 0.01500
C 	C 	0.60550 0.78830 0.25700 -0.02800
H 	H 	0.58570 0.79060 0.29190 0.06100
C 	C 	0.64590 0.75820 0.27010 -0.07900
C 	C 	0.67630 0.75570 0.21980 0.03000
H 	H 	0.70390 0.73590 0.22940 0.03900
C 	C 	0.66610 0.78260 0.15420 -0.10800
C 	C 	0.62500 0.81230 0.14130 -0.01600
H 	H 	0.61810 0.83040 0.09800 0.05900
C 	C 	0.65820 0.72820 0.33870 0.32400
C 	C 	0.69840 0.77850 0.09930 0.41000
C 	C 	0.16390 0.95380 0.92630 0.34600
C 	C 	0.14870 0.01910 0.90760 -0.09600
C 	C 	0.17290 0.07230 0.93230 0.03400
H 	H 	0.19880 0.06700 0.96110 0.04200
C 	C 	0.15820 0.13270 0.91380 -0.10900
C 	C 	0.11930 0.14150 0.87250 -0.01700
H 	H 	0.10960 0.18240 0.86040 0.05400
C 	C 	0.09460 0.08870 0.84890 0.00900
C 	C 	0.11050 0.02640 0.86580 -0.02200
H 	H 	0.09490 0.99080 0.84840 0.05500
C 	C 	0.18470 0.19160 0.93800 0.41900
C 	C 	0.05410 0.09560 0.80510 -0.02000
C 	C 	0.02020 0.09760 0.77090 -0.00700
Yb	Yb	0.77693 0.67580 0.05712 1.52400
Yb	Yb	0.68218 0.32912 0.96305 1.50400
O 	O 	0.83990 0.60480 0.07040 -0.37800
O 	O 	0.77740 0.57070 0.01940 -0.39200
O 	O 	0.75700 0.33990 0.96670 -0.46200
O 	O 	0.80830 0.27140 0.00340 -0.49500
O 	O 	0.12908 0.22390 0.38190 -0.37900
O 	O 	0.19716 0.20860 0.35290 -0.37800
O 	O 	0.18946 0.30810 0.04460 -0.41900
O 	O 	0.23191 0.24330 0.11130 -0.46300
O 	O 	0.69120 0.44310 0.97490 -0.40800
O 	O 	0.64890 0.40770 0.89190 -0.40400
O 	O 	0.71660 0.68440 0.98150 -0.48700
O 	O 	0.67325 0.74340 0.91240 -0.43400
C 	C 	0.81670 0.56010 0.04470 0.30900
C 	C 	0.83400 0.49370 0.04680 -0.07500
C 	C 	0.87680 0.48050 0.07660 -0.03300
H 	H 	0.89490 0.51360 0.09430 0.06200
C 	C 	0.89280 0.41740 0.08030 0.01400
C 	C 	0.86510 0.36820 0.05400 -0.01200
H 	H 	0.87540 0.32630 0.05660 0.04700
C 	C 	0.82260 0.38110 0.02390 -0.12600
C 	C 	0.80690 0.44330 0.01910 0.02800
H 	H 	0.77870 0.45180 0.99770 0.05100
C 	C 	0.79410 0.32630 0.99550 0.44700
C 	C 	0.93680 0.40350 0.11130 -0.01600
C 	C 	0.97320 0.38660 0.13410 -0.00200
C 	C 	0.01490 0.36440 0.15780 -0.00100
C 	C 	0.05120 0.34370 0.17710 -0.01500
C 	C 	0.09290 0.31600 0.19200 0.01400
C 	C 	0.10550 0.28830 0.25700 -0.02800
H 	H 	0.08570 0.29060 0.29190 0.06100
C 	C 	0.14590 0.25820 0.27010 -0.07900
C 	C 	0.17630 0.25570 0.21980 0.03000
H 	H 	0.20390 0.23590 0.22940 0.03800
C 	C 	0.16610 0.28260 0.15420 -0.10900
C 	C 	0.12500 0.31230 0.14130 -0.01600
H 	H 	0.11810 0.33040 0.09800 0.05900
C 	C 	0.15820 0.22820 0.33870 0.32400
C 	C 	0.19840 0.27850 0.09930 0.41000
C 	C 	0.66390 0.45380 0.92630 0.34700
C 	C 	0.64870 0.51910 0.90760 -0.09600
C 	C 	0.67290 0.57230 0.93230 0.03500
H 	H 	0.69880 0.56700 0.96110 0.04200
C 	C 	0.65820 0.63270 0.91380 -0.10900
C 	C 	0.61930 0.64150 0.87250 -0.01700
H 	H 	0.60960 0.68240 0.86040 0.05400
C 	C 	0.59460 0.58870 0.84890 0.00900
C 	C 	0.61050 0.52640 0.86580 -0.02400
H 	H 	0.59490 0.49080 0.84840 0.05600
C 	C 	0.68470 0.69160 0.93800 0.41900
C 	C 	0.55410 0.59560 0.80510 -0.02100
C 	C 	0.52020 0.59760 0.77090 -0.00700
Yb	Yb	0.72307 0.17580 0.44288 1.52400
Yb	Yb	0.81782 0.82912 0.53695 1.50300
O 	O 	0.66010 0.10480 0.42960 -0.37800
O 	O 	0.72260 0.07070 0.48060 -0.39200
O 	O 	0.74300 0.83990 0.53330 -0.46200
O 	O 	0.69170 0.77140 0.49660 -0.49500
O 	O 	0.37092 0.72390 0.11810 -0.37900
O 	O 	0.30284 0.70860 0.14710 -0.37800
O 	O 	0.31054 0.80810 0.45540 -0.41900
O 	O 	0.26809 0.74330 0.38870 -0.46300
O 	O 	0.80880 0.94310 0.52510 -0.40900
O 	O 	0.85110 0.90770 0.60810 -0.40400
O 	O 	0.78340 0.18440 0.51850 -0.48700
O 	O 	0.82675 0.24340 0.58760 -0.43300
C 	C 	0.68330 0.06010 0.45530 0.30800
C 	C 	0.66600 0.99370 0.45320 -0.07600
C 	C 	0.62320 0.98050 0.42340 -0.03300
H 	H 	0.60510 0.01360 0.40570 0.06200
C 	C 	0.60720 0.91740 0.41970 0.01400
C 	C 	0.63490 0.86820 0.44600 -0.01200
H 	H 	0.62460 0.82630 0.44340 0.04700
C 	C 	0.67740 0.88110 0.47610 -0.12600
C 	C 	0.69310 0.94330 0.48090 0.02800
H 	H 	0.72130 0.95180 0.50230 0.05000
C 	C 	0.70590 0.82630 0.50450 0.44600
C 	C 	0.56320 0.90350 0.38870 -0.01600
C 	C 	0.52680 0.88660 0.36590 -0.00200
C 	C 	0.48510 0.86440 0.34220 -0.00100
C 	C 	0.44880 0.84370 0.32290 -0.01500
C 	C 	0.40710 0.81600 0.30800 0.01500
C 	C 	0.39450 0.78830 0.24300 -0.02800
H 	H 	0.41430 0.79060 0.20810 0.06100
C 	C 	0.35410 0.75820 0.22990 -0.07900
C 	C 	0.32370 0.75570 0.28020 0.03000
H 	H 	0.29610 0.73590 0.27060 0.03900
C 	C 	0.33390 0.78260 0.34580 -0.10900
C 	C 	0.37500 0.81230 0.35870 -0.01600
H 	H 	0.38190 0.83040 0.40200 0.05900
C 	C 	0.34180 0.72820 0.16130 0.32400
C 	C 	0.30160 0.77850 0.40070 0.41000
C 	C 	0.83610 0.95380 0.57370 0.34700
C 	C 	0.85130 0.01910 0.59240 -0.09700
C 	C 	0.82710 0.07230 0.56770 0.03500
H 	H 	0.80120 0.06700 0.53890 0.04200
C 	C 	0.84180 0.13270 0.58620 -0.10900
C 	C 	0.88070 0.14150 0.62750 -0.01700
H 	H 	0.89040 0.18240 0.63960 0.05400
C 	C 	0.90540 0.08870 0.65110 0.00900
C 	C 	0.88950 0.02640 0.63420 -0.02300
H 	H 	0.90510 0.99080 0.65160 0.05500
C 	C 	0.81530 0.19160 0.56200 0.41900
C 	C 	0.94590 0.09560 0.69490 -0.02000
C 	C 	0.97980 0.09760 0.72910 -0.00700
Yb	Yb	0.22307 0.67580 0.44288 1.52400
Yb	Yb	0.31782 0.32912 0.53695 1.50300
O 	O 	0.16010 0.60480 0.42960 -0.37800
O 	O 	0.22260 0.57070 0.48060 -0.39200
O 	O 	0.24300 0.33990 0.53330 -0.46100
O 	O 	0.19170 0.27140 0.49660 -0.49500
O 	O 	0.87092 0.22390 0.11810 -0.37900
O 	O 	0.80284 0.20860 0.14710 -0.37800
O 	O 	0.81054 0.30810 0.45540 -0.41900
O 	O 	0.76809 0.24330 0.38870 -0.46300
O 	O 	0.30880 0.44310 0.52510 -0.40900
O 	O 	0.35110 0.40770 0.60810 -0.40400
O 	O 	0.28340 0.68440 0.51850 -0.48700
O 	O 	0.32675 0.74340 0.58760 -0.43300
C 	C 	0.18330 0.56010 0.45530 0.30900
C 	C 	0.16600 0.49370 0.45320 -0.07500
C 	C 	0.12320 0.48050 0.42340 -0.03300
H 	H 	0.10510 0.51360 0.40570 0.06200
C 	C 	0.10720 0.41740 0.41970 0.01400
C 	C 	0.13490 0.36820 0.44600 -0.01200
H 	H 	0.12460 0.32630 0.44340 0.04700
C 	C 	0.17740 0.38110 0.47610 -0.12600
C 	C 	0.19310 0.44330 0.48090 0.02800
H 	H 	0.22130 0.45180 0.50230 0.05100
C 	C 	0.20590 0.32630 0.50450 0.44600
C 	C 	0.06320 0.40350 0.38870 -0.01600
C 	C 	0.02680 0.38660 0.36590 -0.00200
C 	C 	0.98510 0.36440 0.34220 -0.00100
C 	C 	0.94880 0.34370 0.32290 -0.01500
C 	C 	0.90710 0.31600 0.30800 0.01400
C 	C 	0.89450 0.28830 0.24300 -0.02800
H 	H 	0.91430 0.29060 0.20810 0.06100
C 	C 	0.85410 0.25820 0.22990 -0.07900
C 	C 	0.82370 0.25570 0.28020 0.03000
H 	H 	0.79610 0.23590 0.27060 0.03800
C 	C 	0.83390 0.28260 0.34580 -0.10900
C 	C 	0.87500 0.31230 0.35870 -0.01600
H 	H 	0.88190 0.33040 0.40200 0.05900
C 	C 	0.84180 0.22820 0.16130 0.32400
C 	C 	0.80160 0.27850 0.40070 0.41000
C 	C 	0.33610 0.45380 0.57370 0.34700
C 	C 	0.35130 0.51910 0.59240 -0.09600
C 	C 	0.32710 0.57230 0.56770 0.03500
H 	H 	0.30120 0.56700 0.53890 0.04200
C 	C 	0.34180 0.63270 0.58620 -0.10900
C 	C 	0.38070 0.64150 0.62750 -0.01700
H 	H 	0.39040 0.68240 0.63960 0.05400
C 	C 	0.40540 0.58870 0.65110 0.00900
C 	C 	0.38950 0.52640 0.63420 -0.02400
H 	H 	0.40510 0.49080 0.65160 0.05600
C 	C 	0.31530 0.69160 0.56200 0.41900
C 	C 	0.44590 0.59560 0.69490 -0.02100
C 	C 	0.47980 0.59760 0.72910 -0.00700
Yb	Yb	0.72307 0.82420 0.94288 1.52400
Yb	Yb	0.81782 0.17088 0.03695 1.50300
O 	O 	0.66010 0.89520 0.92960 -0.37800
O 	O 	0.72260 0.92930 0.98060 -0.39200
O 	O 	0.74300 0.16010 0.03330 -0.46100
O 	O 	0.69170 0.22860 0.99660 -0.49400
O 	O 	0.37092 0.27610 0.61810 -0.37900
O 	O 	0.30284 0.29140 0.64710 -0.37800
O 	O 	0.31054 0.19190 0.95540 -0.41900
O 	O 	0.26809 0.25670 0.88870 -0.46300
O 	O 	0.80880 0.05690 0.02510 -0.40900
O 	O 	0.85110 0.09230 0.10810 -0.40400
O 	O 	0.78340 0.81560 0.01850 -0.48600
O 	O 	0.82675 0.75660 0.08760 -0.43300
C 	C 	0.68330 0.93990 0.95530 0.30800
C 	C 	0.66600 0.00630 0.95320 -0.07600
C 	C 	0.62320 0.01950 0.92340 -0.03100
H 	H 	0.60510 0.98640 0.90570 0.06100
C 	C 	0.60720 0.08260 0.91970 0.01300
C 	C 	0.63490 0.13180 0.94600 -0.01200
H 	H 	0.62460 0.17370 0.94340 0.04700
C 	C 	0.67740 0.11890 0.97610 -0.12600
C 	C 	0.69310 0.05670 0.98090 0.03000
H 	H 	0.72130 0.04820 0.00230 0.04900
C 	C 	0.70590 0.17370 0.00450 0.44400
C 	C 	0.56320 0.09650 0.88870 -0.01600
C 	C 	0.52680 0.11340 0.86590 -0.00200
C 	C 	0.48510 0.13560 0.84220 -0.00000
C 	C 	0.44880 0.15630 0.82290 -0.01500
C 	C 	0.40710 0.18400 0.80800 0.01500
C 	C 	0.39450 0.21170 0.74300 -0.02800
H 	H 	0.41430 0.20940 0.70810 0.06100
C 	C 	0.35410 0.24180 0.72990 -0.07900
C 	C 	0.32370 0.24430 0.78020 0.03000
H 	H 	0.29610 0.26410 0.77060 0.03900
C 	C 	0.33390 0.21740 0.84580 -0.10800
C 	C 	0.37500 0.18770 0.85870 -0.01600
H 	H 	0.38190 0.16960 0.90200 0.05900
C 	C 	0.34180 0.27180 0.66130 0.32400
C 	C 	0.30160 0.22150 0.90070 0.41000
C 	C 	0.83610 0.04620 0.07370 0.34600
C 	C 	0.85130 0.98090 0.09240 -0.09600
C 	C 	0.82710 0.92770 0.06770 0.03400
H 	H 	0.80120 0.93300 0.03890 0.04200
C 	C 	0.84180 0.86730 0.08620 -0.10900
C 	C 	0.88070 0.85850 0.12750 -0.01700
H 	H 	0.89040 0.81760 0.13960 0.05400
C 	C 	0.90540 0.91130 0.15110 0.00900
C 	C 	0.88950 0.97360 0.13420 -0.02200
H 	H 	0.90510 0.00920 0.15160 0.05500
C 	C 	0.81530 0.80840 0.06200 0.41900
C 	C 	0.94590 0.90440 0.19490 -0.02000
C 	C 	0.97980 0.90240 0.22910 -0.00700
Yb	Yb	0.22307 0.32420 0.94288 1.52400
Yb	Yb	0.31782 0.67088 0.03695 1.50400
O 	O 	0.16010 0.39520 0.92960 -0.37800
O 	O 	0.22260 0.42930 0.98060 -0.39200
O 	O 	0.24300 0.66010 0.03330 -0.46200
O 	O 	0.19170 0.72860 0.99660 -0.49500
O 	O 	0.87092 0.77610 0.61810 -0.37900
O 	O 	0.80284 0.79140 0.64710 -0.37800
O 	O 	0.81054 0.69190 0.95540 -0.41900
O 	O 	0.76809 0.75670 0.88870 -0.46300
O 	O 	0.30880 0.55690 0.02510 -0.40800
O 	O 	0.35110 0.59230 0.10810 -0.40400
O 	O 	0.28340 0.31560 0.01850 -0.48700
O 	O 	0.32675 0.25660 0.08760 -0.43400
C 	C 	0.18330 0.43990 0.95530 0.30900
C 	C 	0.16600 0.50630 0.95320 -0.07500
C 	C 	0.12320 0.51950 0.92340 -0.03300
H 	H 	0.10510 0.48640 0.90570 0.06200
C 	C 	0.10720 0.58260 0.91970 0.01400
C 	C 	0.13490 0.63180 0.94600 -0.01200
H 	H 	0.12460 0.67370 0.94340 0.04700
C 	C 	0.17740 0.61890 0.97610 -0.12600
C 	C 	0.19310 0.55670 0.98090 0.02800
H 	H 	0.22130 0.54820 0.00230 0.05100
C 	C 	0.20590 0.67370 0.00450 0.44700
C 	C 	0.06320 0.59650 0.88870 -0.01600
C 	C 	0.02680 0.61340 0.86590 -0.00200
C 	C 	0.98510 0.63560 0.84220 -0.00100
C 	C 	0.94880 0.65630 0.82290 -0.01500
C 	C 	0.90710 0.68400 0.80800 0.01400
C 	C 	0.89450 0.71170 0.74300 -0.02800
H 	H 	0.91430 0.70940 0.70810 0.06100
C 	C 	0.85410 0.74180 0.72990 -0.07900
C 	C 	0.82370 0.74430 0.78020 0.03000
H 	H 	0.79610 0.76410 0.77060 0.03800
C 	C 	0.83390 0.71740 0.84580 -0.10900
C 	C 	0.87500 0.68770 0.85870 -0.01600
H 	H 	0.88190 0.66960 0.90200 0.05900
C 	C 	0.84180 0.77180 0.66130 0.32400
C 	C 	0.80160 0.72150 0.90070 0.41000
C 	C 	0.33610 0.54620 0.07370 0.34700
C 	C 	0.35130 0.48090 0.09240 -0.09600
C 	C 	0.32710 0.42770 0.06770 0.03500
H 	H 	0.30120 0.43300 0.03890 0.04200
C 	C 	0.34180 0.36730 0.08620 -0.10900
C 	C 	0.38070 0.35850 0.12750 -0.01700
H 	H 	0.39040 0.31760 0.13960 0.05400
C 	C 	0.40540 0.41130 0.15110 0.00900
C 	C 	0.38950 0.47360 0.13420 -0.02400
H 	H 	0.40510 0.50920 0.15160 0.05600
C 	C 	0.31530 0.30840 0.06200 0.41900
C 	C 	0.44590 0.40440 0.19490 -0.02100
C 	C 	0.47980 0.40240 0.22910 -0.00700
Yb	Yb	0.27693 0.82420 0.55712 1.52400
Yb	Yb	0.18218 0.17088 0.46305 1.50300
O 	O 	0.33990 0.89520 0.57040 -0.37800
O 	O 	0.27740 0.92930 0.51940 -0.39200
O 	O 	0.25700 0.16010 0.46670 -0.46200
O 	O 	0.30830 0.22860 0.50340 -0.49500
O 	O 	0.62908 0.27610 0.88190 -0.37900
O 	O 	0.69716 0.29140 0.85290 -0.37800
O 	O 	0.68946 0.19190 0.54460 -0.41900
O 	O 	0.73191 0.25670 0.61130 -0.46300
O 	O 	0.19120 0.05690 0.47490 -0.40900
O 	O 	0.14890 0.09230 0.39190 -0.40400
O 	O 	0.21660 0.81560 0.48150 -0.48700
O 	O 	0.17325 0.75660 0.41240 -0.43300
C 	C 	0.31670 0.93990 0.54470 0.30800
C 	C 	0.33400 0.00630 0.54680 -0.07600
C 	C 	0.37680 0.01950 0.57660 -0.03300
H 	H 	0.39490 0.98640 0.59430 0.06200
C 	C 	0.39280 0.08260 0.58030 0.01400
C 	C 	0.36510 0.13180 0.55400 -0.01200
H 	H 	0.37540 0.17370 0.55660 0.04700
C 	C 	0.32260 0.11890 0.52390 -0.12600
C 	C 	0.30690 0.05670 0.51910 0.02800
H 	H 	0.27870 0.04820 0.49770 0.05000
C 	C 	0.29410 0.17370 0.49550 0.44600
C 	C 	0.43680 0.09650 0.61130 -0.01600
C 	C 	0.47320 0.11340 0.63410 -0.00200
C 	C 	0.51490 0.13560 0.65780 -0.00100
C 	C 	0.55120 0.15630 0.67710 -0.01500
C 	C 	0.59290 0.18400 0.69200 0.01500
C 	C 	0.60550 0.21170 0.75700 -0.02800
H 	H 	0.58570 0.20940 0.79190 0.06100
C 	C 	0.64590 0.24180 0.77010 -0.07900
C 	C 	0.67630 0.24430 0.71980 0.03000
H 	H 	0.70390 0.26410 0.72940 0.03900
C 	C 	0.66610 0.21740 0.65420 -0.10900
C 	C 	0.62500 0.18770 0.64130 -0.01600
H 	H 	0.61810 0.16960 0.59800 0.05900
C 	C 	0.65820 0.27180 0.83870 0.32400
C 	C 	0.69840 0.22150 0.59930 0.41000
C 	C 	0.16390 0.04620 0.42630 0.34700
C 	C 	0.14870 0.98090 0.40760 -0.09700
C 	C 	0.17290 0.92770 0.43230 0.03500
H 	H 	0.19880 0.93300 0.46110 0.04200
C 	C 	0.15820 0.86730 0.41380 -0.10900
C 	C 	0.11930 0.85850 0.37250 -0.01700
H 	H 	0.10960 0.81760 0.36040 0.05400
C 	C 	0.09460 0.91130 0.34890 0.00900
C 	C 	0.11050 0.97360 0.36580 -0.02300
H 	H 	0.09490 0.00920 0.34840 0.05500
C 	C 	0.18470 0.80840 0.43800 0.41900
C 	C 	0.05410 0.90440 0.30510 -0.02000
C 	C 	0.02020 0.90240 0.27090 -0.00700
Yb	Yb	0.77693 0.32420 0.55712 1.52400
Yb	Yb	0.68218 0.67088 0.46305 1.50300
O 	O 	0.83990 0.39520 0.57040 -0.37800
O 	O 	0.77740 0.42930 0.51940 -0.39200
O 	O 	0.75700 0.66010 0.46670 -0.46100
O 	O 	0.80830 0.72860 0.50340 -0.49500
O 	O 	0.12908 0.77610 0.88190 -0.37900
O 	O 	0.19716 0.79140 0.85290 -0.37800
O 	O 	0.18946 0.69190 0.54460 -0.41900
O 	O 	0.23191 0.75670 0.61130 -0.46300
O 	O 	0.69120 0.55690 0.47490 -0.40900
O 	O 	0.64890 0.59230 0.39190 -0.40400
O 	O 	0.71660 0.31560 0.48150 -0.48700
O 	O 	0.67325 0.25660 0.41240 -0.43300
C 	C 	0.81670 0.43990 0.54470 0.30900
C 	C 	0.83400 0.50630 0.54680 -0.07500
C 	C 	0.87680 0.51950 0.57660 -0.03300
H 	H 	0.89490 0.48640 0.59430 0.06200
C 	C 	0.89280 0.58260 0.58030 0.01400
C 	C 	0.86510 0.63180 0.55400 -0.01200
H 	H 	0.87540 0.67370 0.55660 0.04700
C 	C 	0.82260 0.61890 0.52390 -0.12600
C 	C 	0.80690 0.55670 0.51910 0.02800
H 	H 	0.77870 0.54820 0.49770 0.05100
C 	C 	0.79410 0.67370 0.49550 0.44600
C 	C 	0.93680 0.59650 0.61130 -0.01600
C 	C 	0.97320 0.61340 0.63410 -0.00200
C 	C 	0.01490 0.63560 0.65780 -0.00100
C 	C 	0.05120 0.65630 0.67710 -0.01500
C 	C 	0.09290 0.68400 0.69200 0.01400
C 	C 	0.10550 0.71170 0.75700 -0.02800
H 	H 	0.08570 0.70940 0.79190 0.06100
C 	C 	0.14590 0.74180 0.77010 -0.07900
C 	C 	0.17630 0.74430 0.71980 0.03000
H 	H 	0.20390 0.76410 0.72940 0.03800
C 	C 	0.16610 0.71740 0.65420 -0.10900
C 	C 	0.12500 0.68770 0.64130 -0.01600
H 	H 	0.11810 0.66960 0.59800 0.05900
C 	C 	0.15820 0.77180 0.83870 0.32400
C 	C 	0.19840 0.72150 0.59930 0.41000
C 	C 	0.66390 0.54620 0.42630 0.34700
C 	C 	0.64870 0.48090 0.40760 -0.09600
C 	C 	0.67290 0.42770 0.43230 0.03500
H 	H 	0.69880 0.43300 0.46110 0.04200
C 	C 	0.65820 0.36730 0.41380 -0.10900
C 	C 	0.61930 0.35850 0.37250 -0.01700
H 	H 	0.60960 0.31760 0.36040 0.05400
C 	C 	0.59460 0.41130 0.34890 0.00900
C 	C 	0.61050 0.47360 0.36580 -0.02400
H 	H 	0.59490 0.50920 0.34840 0.05600
C 	C 	0.68470 0.30840 0.43800 0.41900
C 	C 	0.55410 0.40440 0.30510 -0.02100
C 	C 	0.52020 0.40240 0.27090 -0.00700
