data_crystal

_cell_length_a 7.66300
_cell_length_b 10.10400
_cell_length_c 17.42600
_cell_angle_alpha 90.00000
_cell_angle_beta  90.00000
_cell_angle_gamma 90.00000

_symmetry_space_group_name_	'P 1'
_symmetry_space_group_name_H-M	'P 1'

loop_
_symmetry_equiv_pos_as_xyz
  x,y,z

loop_
_atom_site_label
_atom_site_type_symbol
_atom_site_fract_x
_atom_site_fract_y
_atom_site_fract_z
_atom_site_charge
N 	N 	0.15000 0.40290 0.79243 -0.23500
N 	N 	0.32580 0.40170 0.80764 -0.23800
N 	N 	0.21230 0.58360 0.85905 -0.32900
C 	C 	0.08940 0.51170 0.82387 0.07900
H 	H 	0.97250 0.53640 0.82190 -0.07300
C 	C 	0.35760 0.51110 0.84677 0.09500
H 	H 	0.46790 0.53550 0.86400 -0.06500
N 	N 	0.35000 0.59710 0.29243 -0.23500
N 	N 	0.17420 0.59830 0.30764 -0.23900
N 	N 	0.28770 0.41640 0.35905 -0.32900
C 	C 	0.41060 0.48830 0.32387 0.07900
H 	H 	0.52750 0.46360 0.32190 -0.07300
C 	C 	0.14240 0.48890 0.34677 0.09500
H 	H 	0.03210 0.46450 0.36400 -0.06500
N 	N 	0.85000 0.90290 0.20757 -0.23000
N 	N 	0.67420 0.90170 0.19236 -0.23600
N 	N 	0.78770 0.08360 0.14095 -0.32700
C 	C 	0.91060 0.01170 0.17613 0.06400
H 	H 	0.02750 0.03640 0.17810 -0.06500
C 	C 	0.64240 0.01110 0.15323 0.09000
H 	H 	0.53210 0.03550 0.13600 -0.06400
N 	N 	0.65000 0.09710 0.70757 -0.23500
N 	N 	0.82580 0.09830 0.69236 -0.24000
N 	N 	0.71230 0.91640 0.64095 -0.32900
C 	C 	0.58940 0.98830 0.67613 0.07800
H 	H 	0.47250 0.96360 0.67810 -0.07400
C 	C 	0.85760 0.98890 0.65323 0.09600
H 	H 	0.96790 0.96450 0.63600 -0.06400
N 	N 	0.85000 0.59710 0.20757 -0.23500
N 	N 	0.67420 0.59830 0.19236 -0.23800
N 	N 	0.78770 0.41640 0.14095 -0.32900
C 	C 	0.91060 0.48830 0.17613 0.07900
H 	H 	0.02750 0.46360 0.17810 -0.07300
C 	C 	0.64240 0.48890 0.15323 0.09500
H 	H 	0.53210 0.46450 0.13600 -0.06500
N 	N 	0.65000 0.40290 0.70757 -0.23500
N 	N 	0.82580 0.40170 0.69236 -0.23900
N 	N 	0.71230 0.58360 0.64095 -0.32900
C 	C 	0.58940 0.51170 0.67613 0.07900
H 	H 	0.47250 0.53640 0.67810 -0.07300
C 	C 	0.85760 0.51110 0.65323 0.09500
H 	H 	0.96790 0.53550 0.63600 -0.06500
N 	N 	0.15000 0.09710 0.79243 -0.23000
N 	N 	0.32580 0.09830 0.80764 -0.23600
N 	N 	0.21230 0.91640 0.85905 -0.32700
C 	C 	0.08940 0.98830 0.82387 0.06400
H 	H 	0.97250 0.96360 0.82190 -0.06500
C 	C 	0.35760 0.98890 0.84677 0.09000
H 	H 	0.46790 0.96450 0.86400 -0.06400
N 	N 	0.35000 0.90290 0.29243 -0.23500
N 	N 	0.17420 0.90170 0.30764 -0.24000
N 	N 	0.28770 0.08360 0.35905 -0.32900
C 	C 	0.41060 0.01170 0.32387 0.07800
H 	H 	0.52750 0.03640 0.32190 -0.07400
C 	C 	0.14240 0.01110 0.34677 0.09600
H 	H 	0.03210 0.03550 0.36400 -0.06400
Zn	Zn	0.15692 0.75000 0.91555 1.13300
Zn	Zn	0.00750 0.75000 0.26119 1.16400
N 	N 	0.33900 0.75000 0.14161 -0.24300
N 	N 	0.16210 0.75000 0.15229 -0.22600
N 	N 	0.21300 0.75000 0.02704 -0.33000
C 	C 	0.36330 0.75000 0.06680 0.09900
H 	H 	0.47290 0.75000 0.04390 -0.06800
C 	C 	0.09310 0.75000 0.08320 0.07000
H 	H 	0.97340 0.75000 0.07420 -0.06500
Zn	Zn	0.34308 0.25000 0.41555 1.13300
Zn	Zn	0.49250 0.25000 0.76119 1.16500
N 	N 	0.16100 0.25000 0.64161 -0.24200
N 	N 	0.33790 0.25000 0.65229 -0.22600
N 	N 	0.28700 0.25000 0.52704 -0.33100
C 	C 	0.13670 0.25000 0.56680 0.09900
H 	H 	0.02710 0.25000 0.54390 -0.06800
C 	C 	0.40690 0.25000 0.58320 0.07500
H 	H 	0.52660 0.25000 0.57420 -0.07000
Zn	Zn	0.84308 0.25000 0.08445 1.13300
Zn	Zn	0.99250 0.25000 0.73881 1.16400
N 	N 	0.66100 0.25000 0.85839 -0.24300
N 	N 	0.83790 0.25000 0.84771 -0.22600
N 	N 	0.78700 0.25000 0.97296 -0.33000
C 	C 	0.63670 0.25000 0.93320 0.09900
H 	H 	0.52710 0.25000 0.95610 -0.06800
C 	C 	0.90690 0.25000 0.91680 0.07000
H 	H 	0.02660 0.25000 0.92580 -0.06500
Zn	Zn	0.65692 0.75000 0.58445 1.13300
Zn	Zn	0.50750 0.75000 0.23881 1.16500
N 	N 	0.83900 0.75000 0.35839 -0.24200
N 	N 	0.66210 0.75000 0.34771 -0.22600
N 	N 	0.71300 0.75000 0.47296 -0.33100
C 	C 	0.86330 0.75000 0.43320 0.09900
H 	H 	0.97290 0.75000 0.45610 -0.06800
C 	C 	0.59310 0.75000 0.41680 0.07500
H 	H 	0.47340 0.75000 0.42580 -0.07000
