data_crystal

_cell_length_a 16.75130
_cell_length_b 18.19230
_cell_length_c 12.02580
_cell_angle_alpha 90.00000
_cell_angle_beta  123.87000
_cell_angle_gamma 90.00000

_symmetry_space_group_name_	'P 1'
_symmetry_space_group_name_H-M	'P 1'

loop_
_symmetry_equiv_pos_as_xyz
  x,y,z

loop_
_atom_site_label
_atom_site_type_symbol
_atom_site_fract_x
_atom_site_fract_y
_atom_site_fract_z
_atom_site_charge
O 	O 	0.09866 0.22254 0.39026 -0.46600
O 	O 	0.08245 0.29668 0.17330 -0.48800
O 	O 	0.08488 0.61931 0.88010 -0.53900
O 	O 	0.22311 0.65451 0.06649 -0.51300
O 	O 	0.23549 0.31127 0.34432 -0.44900
N 	N 	0.07141 0.16102 0.42130 0.00300
C 	C 	0.06610 0.03208 0.42370 0.08800
C 	C 	0.09410 0.09610 0.39440 -0.09300
C 	C 	0.15690 0.60840 0.99620 0.51200
C 	C 	0.01520 0.03412 0.48340 -0.25700
C 	C 	0.16360 0.53428 0.05570 -0.24900
C 	C 	0.16190 0.32974 0.23300 0.34700
C 	C 	0.16670 0.39864 0.16740 0.02000
C 	C 	0.99450 0.10312 0.51070 0.21000
C 	C 	0.23650 0.45059 0.24200 -0.10500
C 	C 	0.02330 0.16578 0.48010 -0.15100
C 	C 	0.23450 0.51783 0.18730 0.09700
C 	C 	0.09530 0.48121 0.98010 0.18700
C 	C 	0.09640 0.41426 0.03560 -0.24500
H 	H 	0.08500 0.98670 0.40500 -0.01100
H 	H 	0.12900 0.09840 0.35500 0.08100
H 	H 	0.96300 0.10800 0.55900 -0.01900
H 	H 	0.05000 0.38100 0.99100 0.14100
H 	H 	0.27900 0.55500 0.24300 0.01200
H 	H 	0.28500 0.44100 0.34000 0.07800
H 	H 	0.04200 0.49600 0.88600 -0.02000
H 	H 	0.00900 0.21800 0.49400 0.08200
O 	O 	0.59866 0.72254 0.39026 -0.44800
O 	O 	0.58245 0.79668 0.17330 -0.46600
O 	O 	0.58488 0.11931 0.88010 -0.52000
O 	O 	0.72311 0.15451 0.06649 -0.51000
O 	O 	0.73549 0.81127 0.34432 -0.44600
N 	N 	0.57141 0.66102 0.42130 -0.04300
C 	C 	0.56610 0.53208 0.42370 -0.08000
C 	C 	0.59410 0.59610 0.39440 0.01700
C 	C 	0.65690 0.10840 0.99620 0.51400
C 	C 	0.51520 0.53412 0.48340 0.02900
C 	C 	0.66360 0.03428 0.05570 -0.24900
C 	C 	0.66190 0.82974 0.23300 0.34100
C 	C 	0.66670 0.89864 0.16740 0.03600
C 	C 	0.49450 0.60312 0.51070 -0.07300
C 	C 	0.73650 0.95059 0.24200 -0.11300
C 	C 	0.52330 0.66578 0.48010 0.02400
C 	C 	0.73450 0.01783 0.18730 0.10900
C 	C 	0.59530 0.98121 0.98010 0.20300
C 	C 	0.59640 0.91426 0.03560 -0.26100
H 	H 	0.58500 0.48670 0.40500 0.05800
H 	H 	0.62900 0.59840 0.35500 0.04800
H 	H 	0.46300 0.60800 0.55900 0.05700
H 	H 	0.55000 0.88100 0.99100 0.16300
H 	H 	0.77900 0.05500 0.24300 0.01400
H 	H 	0.78500 0.94100 0.34000 0.08200
H 	H 	0.54200 0.99600 0.88600 -0.00800
H 	H 	0.50900 0.71800 0.49400 0.05000
O 	O 	0.90134 0.22254 0.10974 -0.43800
O 	O 	0.91755 0.29668 0.32670 -0.44700
O 	O 	0.91512 0.61931 0.61990 -0.48000
O 	O 	0.77689 0.65451 0.43351 -0.47000
O 	O 	0.76451 0.31127 0.15568 -0.46100
N 	N 	0.92859 0.16102 0.07870 -0.06600
C 	C 	0.93390 0.03208 0.07630 -0.16000
C 	C 	0.90590 0.09610 0.10560 0.06900
C 	C 	0.84310 0.60840 0.50380 0.41800
C 	C 	0.98480 0.03412 0.01660 0.18000
C 	C 	0.83640 0.53428 0.44430 -0.09800
C 	C 	0.83810 0.32974 0.26700 0.37900
C 	C 	0.83330 0.39864 0.33260 -0.06700
C 	C 	0.00550 0.10312 0.98930 -0.22500
C 	C 	0.76350 0.45059 0.25800 -0.01500
C 	C 	0.97670 0.16578 0.01990 0.11700
C 	C 	0.76550 0.51783 0.31270 -0.00300
C 	C 	0.90470 0.48121 0.51990 0.02000
C 	C 	0.90360 0.41426 0.46440 -0.03900
H 	H 	0.91500 0.98670 0.09500 0.08900
H 	H 	0.87100 0.09840 0.14500 0.03700
H 	H 	0.03700 0.10800 0.94100 0.09600
H 	H 	0.95000 0.38100 0.50900 0.07800
H 	H 	0.72100 0.55500 0.25700 0.04500
H 	H 	0.71500 0.44100 0.16000 0.04700
H 	H 	0.95800 0.49600 0.61400 0.06300
H 	H 	0.99100 0.21800 0.00600 0.03200
O 	O 	0.40134 0.72254 0.10974 -0.45600
O 	O 	0.41755 0.79668 0.32670 -0.47000
O 	O 	0.41512 0.11931 0.61990 -0.49900
O 	O 	0.27689 0.15451 0.43351 -0.47500
O 	O 	0.26451 0.81127 0.15568 -0.46300
N 	N 	0.42859 0.66102 0.07870 -0.02100
C 	C 	0.43390 0.53208 0.07630 -0.00300
C 	C 	0.40590 0.59610 0.10560 -0.03700
C 	C 	0.34310 0.10840 0.50380 0.42000
C 	C 	0.48480 0.53412 0.01660 -0.10700
C 	C 	0.33640 0.03428 0.44430 -0.10500
C 	C 	0.33810 0.82974 0.26700 0.38100
C 	C 	0.33330 0.89864 0.33260 -0.07300
C 	C 	0.50550 0.60312 0.98930 0.06000
C 	C 	0.26350 0.95059 0.25800 -0.02300
C 	C 	0.47670 0.66578 0.01990 -0.06000
C 	C 	0.26550 0.01783 0.31270 0.00000
C 	C 	0.40470 0.98121 0.51990 0.01200
C 	C 	0.40360 0.91426 0.46440 -0.04300
H 	H 	0.41500 0.48670 0.09500 0.02700
H 	H 	0.37100 0.59840 0.14500 0.06700
H 	H 	0.53700 0.60800 0.94100 0.02000
H 	H 	0.45000 0.88100 0.50900 0.06400
H 	H 	0.22100 0.05500 0.25700 0.03900
H 	H 	0.21500 0.94100 0.16000 0.04600
H 	H 	0.45800 0.99600 0.61400 0.04700
H 	H 	0.49100 0.71800 0.00600 0.06500
O 	O 	0.90134 0.77746 0.60974 -0.43100
O 	O 	0.91755 0.70332 0.82670 -0.45100
O 	O 	0.91512 0.38069 0.11990 -0.46200
O 	O 	0.77689 0.34549 0.93351 -0.42800
O 	O 	0.76451 0.68873 0.65568 -0.46100
N 	N 	0.92859 0.83898 0.57870 -0.08900
C 	C 	0.93390 0.96792 0.57630 -0.24900
C 	C 	0.90590 0.90390 0.60560 0.12400
C 	C 	0.84310 0.39160 0.00380 0.32300
C 	C 	0.98480 0.96588 0.51660 0.31200
C 	C 	0.83640 0.46572 0.94430 0.04800
C 	C 	0.83810 0.67026 0.76700 0.41800
C 	C 	0.83330 0.60136 0.83260 -0.16900
C 	C 	0.00550 0.89688 0.48930 -0.35500
C 	C 	0.76350 0.54941 0.75800 0.07800
C 	C 	0.97670 0.83422 0.51990 0.19700
C 	C 	0.76550 0.48217 0.81270 -0.10800
C 	C 	0.90470 0.51879 0.01990 -0.17000
C 	C 	0.90360 0.58574 0.96440 0.17700
H 	H 	0.91500 0.01330 0.59500 0.12800
H 	H 	0.87100 0.90160 0.64500 0.01800
H 	H 	0.03700 0.89200 0.44100 0.13100
H 	H 	0.95000 0.61900 0.00900 -0.02100
H 	H 	0.72100 0.44500 0.75700 0.08400
H 	H 	0.71500 0.55900 0.66000 0.02700
H 	H 	0.95800 0.50400 0.11400 0.11300
H 	H 	0.99100 0.78200 0.50600 0.01700
O 	O 	0.40134 0.27746 0.60974 -0.44900
O 	O 	0.41755 0.20332 0.82670 -0.47400
O 	O 	0.41512 0.88069 0.11990 -0.48300
O 	O 	0.27689 0.84549 0.93351 -0.43400
O 	O 	0.26451 0.18873 0.65568 -0.46300
N 	N 	0.42859 0.33898 0.57870 -0.04300
C 	C 	0.43390 0.46792 0.57630 -0.08100
C 	C 	0.40590 0.40390 0.60560 0.01400
C 	C 	0.34310 0.89160 0.00380 0.32800
C 	C 	0.48480 0.46588 0.51660 0.02700
C 	C 	0.33640 0.96572 0.94430 0.03300
C 	C 	0.33810 0.17026 0.76700 0.41900
C 	C 	0.33330 0.10136 0.83260 -0.17100
C 	C 	0.50550 0.39688 0.48930 -0.07400
C 	C 	0.26350 0.04941 0.75800 0.07200
C 	C 	0.47670 0.33422 0.51990 0.02200
C 	C 	0.26550 0.98217 0.81270 -0.10700
C 	C 	0.40470 0.01879 0.01990 -0.16300
C 	C 	0.40360 0.08574 0.96440 0.16100
H 	H 	0.41500 0.51330 0.59500 0.05900
H 	H 	0.37100 0.40160 0.64500 0.05000
H 	H 	0.53700 0.39200 0.44100 0.05600
H 	H 	0.45000 0.11900 0.00900 -0.02900
H 	H 	0.22100 0.94500 0.75700 0.07800
H 	H 	0.21500 0.05900 0.66000 0.02600
H 	H 	0.45800 0.00400 0.11400 0.09500
H 	H 	0.49100 0.28200 0.50600 0.04900
O 	O 	0.09866 0.77746 0.89026 -0.45800
O 	O 	0.08245 0.70332 0.67330 -0.49000
O 	O 	0.08488 0.38069 0.38010 -0.52100
O 	O 	0.22311 0.34549 0.56649 -0.47400
O 	O 	0.23549 0.68873 0.84432 -0.44800
N 	N 	0.07141 0.83898 0.92130 -0.02000
C 	C 	0.06610 0.96792 0.92370 0.00100
C 	C 	0.09410 0.90390 0.89440 -0.03900
C 	C 	0.15690 0.39160 0.49620 0.42200
C 	C 	0.01520 0.96588 0.98340 -0.12200
C 	C 	0.16360 0.46572 0.55570 -0.11300
C 	C 	0.16190 0.67026 0.73300 0.38200
C 	C 	0.16670 0.60136 0.66740 -0.07400
C 	C 	0.99450 0.89688 0.01070 0.07300
C 	C 	0.23650 0.54941 0.74200 -0.01900
C 	C 	0.02330 0.83422 0.98010 -0.06800
C 	C 	0.23450 0.48217 0.68730 -0.00000
C 	C 	0.09530 0.51879 0.48010 0.01200
C 	C 	0.09640 0.58574 0.53560 -0.04800
H 	H 	0.08500 0.01330 0.90500 0.02600
H 	H 	0.12900 0.90160 0.85500 0.06200
H 	H 	0.96300 0.89200 0.05900 0.01700
H 	H 	0.05000 0.61900 0.49100 0.05000
H 	H 	0.27900 0.44500 0.74300 0.04900
H 	H 	0.28500 0.55900 0.84000 0.06000
H 	H 	0.04200 0.50400 0.38600 0.02700
H 	H 	0.00900 0.78200 0.99400 0.06500
O 	O 	0.59866 0.27746 0.89026 -0.44100
O 	O 	0.58245 0.20332 0.67330 -0.46900
O 	O 	0.58488 0.88069 0.38010 -0.50400
O 	O 	0.72311 0.84549 0.56649 -0.46900
O 	O 	0.73549 0.18873 0.84432 -0.44600
N 	N 	0.57141 0.33898 0.92130 -0.06500
C 	C 	0.56610 0.46792 0.92370 -0.15900
C 	C 	0.59410 0.40390 0.89440 0.06700
C 	C 	0.65690 0.89160 0.49620 0.42100
C 	C 	0.51520 0.46588 0.98340 0.16300
C 	C 	0.66360 0.96572 0.55570 -0.10700
C 	C 	0.66190 0.17026 0.73300 0.38000
C 	C 	0.66670 0.10136 0.66740 -0.06800
C 	C 	0.49450 0.39688 0.01070 -0.20600
C 	C 	0.73650 0.04941 0.74200 -0.01200
C 	C 	0.52330 0.33422 0.98010 0.10500
C 	C 	0.73450 0.98217 0.68730 -0.00300
C 	C 	0.59530 0.01879 0.48010 0.01900
C 	C 	0.59640 0.08574 0.53560 -0.04400
H 	H 	0.58500 0.51330 0.90500 0.09000
H 	H 	0.62900 0.40160 0.85500 0.03200
H 	H 	0.46300 0.39200 0.05900 0.09200
H 	H 	0.55000 0.11900 0.49100 0.06400
H 	H 	0.77900 0.94500 0.74300 0.05500
H 	H 	0.78500 0.05900 0.84000 0.06000
H 	H 	0.54200 0.00400 0.38600 0.04200
H 	H 	0.50900 0.28200 0.99400 0.03300
Mg	Mg	0.00000 0.30208 0.25000 1.47300
Mg	Mg	0.50000 0.80208 0.25000 1.47800
Mg	Mg	0.00000 0.69792 0.75000 1.47400
Mg	Mg	0.50000 0.19792 0.75000 1.47900
Mg	Mg	0.25000 0.25000 0.50000 1.47600
Mg	Mg	0.75000 0.25000 -0.00000 1.47400
Mg	Mg	0.75000 0.75000 0.50000 1.47600
Mg	Mg	0.25000 0.75000 -0.00000 1.47400
