data_crystal

_cell_length_a 18.66700
_cell_length_b 18.66700
_cell_length_c 36.39800
_cell_angle_alpha 90.00000
_cell_angle_beta  90.00000
_cell_angle_gamma 120.00000

_symmetry_space_group_name_	'P 1'
_symmetry_space_group_name_H-M	'P 1'

loop_
_symmetry_equiv_pos_as_xyz
  x,y,z

loop_
_atom_site_label
_atom_site_type_symbol
_atom_site_fract_x
_atom_site_fract_y
_atom_site_fract_z
_atom_site_charge
O 	O 	0.48125 0.36993 0.00175 -0.46100
O 	O 	0.40910 0.43900 0.04819 -0.45200
N 	N 	0.54170 0.42090 0.07926 -0.12700
C 	C 	0.54350 0.34960 0.07889 -0.01800
H 	H 	0.54720 0.32740 0.05590 0.03500
C 	C 	0.54000 0.30660 0.11123 0.01400
C 	C 	0.53620 0.34100 0.14420 -0.06500
H 	H 	0.53590 0.31460 0.16650 0.05300
C 	C 	0.53280 0.41300 0.14512 0.00600
C 	C 	0.41600 0.45560 0.25438 -0.02000
H 	H 	0.37990 0.40370 0.24330 0.05800
C 	C 	0.39180 0.47960 0.28660 -0.08900
C 	C 	0.44960 0.35810 0.97010 0.37900
O 	O 	0.14792 0.70326 0.33508 -0.46100
O 	O 	0.07577 0.77233 0.38152 -0.45200
N 	N 	0.20837 0.75423 0.41259 -0.12700
C 	C 	0.21017 0.68293 0.41222 -0.01800
H 	H 	0.21387 0.66073 0.38923 0.03500
C 	C 	0.20667 0.63993 0.44456 0.01500
C 	C 	0.20287 0.67433 0.47753 -0.06400
H 	H 	0.20257 0.64793 0.49983 0.05400
C 	C 	0.19947 0.74633 0.47845 0.00700
C 	C 	0.08267 0.78893 0.58771 -0.01900
H 	H 	0.04657 0.73703 0.57663 0.05900
C 	C 	0.05847 0.81293 0.61993 -0.08900
C 	C 	0.11627 0.69143 0.30343 0.38000
O 	O 	0.81458 0.03660 0.66842 -0.46000
O 	O 	0.74243 0.10567 0.71486 -0.45000
N 	N 	0.87503 0.08757 0.74593 -0.12600
C 	C 	0.87683 0.01627 0.74556 -0.01500
H 	H 	0.88053 0.99407 0.72257 0.03500
C 	C 	0.87333 0.97327 0.77790 0.01300
C 	C 	0.86953 0.00767 0.81087 -0.06200
H 	H 	0.86923 0.98127 0.83317 0.05400
C 	C 	0.86613 0.07967 0.81179 0.00600
C 	C 	0.74933 0.12227 0.92105 -0.01900
H 	H 	0.71323 0.07037 0.90997 0.05900
C 	C 	0.72513 0.14627 0.95327 -0.08800
C 	C 	0.78293 0.02477 0.63677 0.38000
O 	O 	0.63007 0.11132 0.00175 -0.46000
O 	O 	0.56100 0.97010 0.04819 -0.45000
N 	N 	0.57910 0.12080 0.07926 -0.12600
C 	C 	0.65040 0.19390 0.07889 -0.01700
H 	H 	0.67260 0.21980 0.05590 0.03600
C 	C 	0.69340 0.23340 0.11123 0.01500
C 	C 	0.65900 0.19520 0.14420 -0.06400
H 	H 	0.68540 0.22130 0.16650 0.05400
C 	C 	0.58700 0.11980 0.14512 0.00700
C 	C 	0.54440 0.96040 0.25438 -0.02000
H 	H 	0.59630 0.97620 0.24330 0.05900
C 	C 	0.52040 0.91220 0.28660 -0.08800
C 	C 	0.64190 0.09150 0.97010 0.38000
O 	O 	0.29674 0.44465 0.33508 -0.46000
O 	O 	0.22767 0.30343 0.38152 -0.45100
N 	N 	0.24577 0.45413 0.41259 -0.12600
C 	C 	0.31707 0.52723 0.41222 -0.01700
H 	H 	0.33927 0.55313 0.38923 0.03600
C 	C 	0.36007 0.56673 0.44456 0.01500
C 	C 	0.32567 0.52853 0.47753 -0.06400
H 	H 	0.35207 0.55463 0.49983 0.05500
C 	C 	0.25367 0.45313 0.47845 0.00700
C 	C 	0.21107 0.29373 0.58771 -0.01900
H 	H 	0.26297 0.30953 0.57663 0.05900
C 	C 	0.18707 0.24553 0.61993 -0.08800
C 	C 	0.30857 0.42483 0.30343 0.38000
O 	O 	0.96340 0.77799 0.66842 -0.46000
O 	O 	0.89433 0.63677 0.71486 -0.45000
N 	N 	0.91243 0.78747 0.74593 -0.12600
C 	C 	0.98373 0.86057 0.74556 -0.01500
H 	H 	0.00593 0.88647 0.72257 0.03500
C 	C 	0.02673 0.90007 0.77790 0.01300
C 	C 	0.99233 0.86187 0.81087 -0.06200
H 	H 	0.01873 0.88797 0.83317 0.05300
C 	C 	0.92033 0.78647 0.81179 0.00500
C 	C 	0.87773 0.62707 0.92105 -0.01900
H 	H 	0.92963 0.64287 0.90997 0.05900
C 	C 	0.85373 0.57887 0.95327 -0.08800
C 	C 	0.97523 0.75817 0.63677 0.38000
O 	O 	0.88868 0.51875 0.00175 -0.46000
O 	O 	0.02990 0.59090 0.04819 -0.45000
N 	N 	0.87920 0.45830 0.07926 -0.12600
C 	C 	0.80610 0.45650 0.07889 -0.01700
H 	H 	0.78020 0.45280 0.05590 0.03600
C 	C 	0.76660 0.46000 0.11123 0.01500
C 	C 	0.80480 0.46380 0.14420 -0.06400
H 	H 	0.77870 0.46410 0.16650 0.05400
C 	C 	0.88020 0.46720 0.14512 0.00700
C 	C 	0.03960 0.58400 0.25438 -0.02000
H 	H 	0.02380 0.62010 0.24330 0.05900
C 	C 	0.08780 0.60820 0.28660 -0.08800
C 	C 	0.90850 0.55040 0.97010 0.38000
O 	O 	0.55535 0.85208 0.33508 -0.46000
O 	O 	0.69657 0.92423 0.38152 -0.45100
N 	N 	0.54587 0.79163 0.41259 -0.12600
C 	C 	0.47277 0.78983 0.41222 -0.01700
H 	H 	0.44687 0.78613 0.38923 0.03600
C 	C 	0.43327 0.79333 0.44456 0.01500
C 	C 	0.47147 0.79713 0.47753 -0.06400
H 	H 	0.44537 0.79743 0.49983 0.05400
C 	C 	0.54687 0.80053 0.47845 0.00700
C 	C 	0.70627 0.91733 0.58771 -0.01900
H 	H 	0.69047 0.95343 0.57663 0.05900
C 	C 	0.75447 0.94153 0.61993 -0.08900
C 	C 	0.57517 0.88373 0.30343 0.38000
O 	O 	0.22201 0.18542 0.66842 -0.46000
O 	O 	0.36323 0.25757 0.71486 -0.45000
N 	N 	0.21253 0.12497 0.74593 -0.12500
C 	C 	0.13943 0.12317 0.74556 -0.01800
H 	H 	0.11353 0.11947 0.72257 0.03600
C 	C 	0.09993 0.12667 0.77790 0.01600
C 	C 	0.13813 0.13047 0.81087 -0.06600
H 	H 	0.11203 0.13077 0.83317 0.05500
C 	C 	0.21353 0.13387 0.81179 0.00800
C 	C 	0.37293 0.25067 0.92105 -0.01900
H 	H 	0.35713 0.28677 0.90997 0.05900
C 	C 	0.42113 0.27487 0.95327 -0.08800
C 	C 	0.24183 0.21707 0.63677 0.38000
O 	O 	0.36993 0.48125 0.99825 -0.46000
O 	O 	0.43900 0.40910 0.95181 -0.45100
N 	N 	0.42090 0.54170 0.92074 -0.12600
C 	C 	0.34960 0.54350 0.92111 -0.01700
H 	H 	0.32740 0.54720 0.94410 0.03600
C 	C 	0.30660 0.54000 0.88877 0.01500
C 	C 	0.34100 0.53620 0.85580 -0.06400
H 	H 	0.31460 0.53590 0.83350 0.05400
C 	C 	0.41300 0.53280 0.85488 0.00700
C 	C 	0.45560 0.41600 0.74562 -0.01900
H 	H 	0.40370 0.37990 0.75670 0.05900
C 	C 	0.47960 0.39180 0.71340 -0.08800
C 	C 	0.35810 0.44960 0.02990 0.38000
O 	O 	0.03660 0.81458 0.33158 -0.46000
O 	O 	0.10567 0.74243 0.28514 -0.45000
N 	N 	0.08757 0.87503 0.25407 -0.12600
C 	C 	0.01627 0.87683 0.25444 -0.01500
H 	H 	0.99407 0.88053 0.27743 0.03500
C 	C 	0.97327 0.87333 0.22210 0.01300
C 	C 	0.00767 0.86953 0.18913 -0.06200
H 	H 	0.98127 0.86923 0.16683 0.05400
C 	C 	0.07967 0.86613 0.18821 0.00600
C 	C 	0.12227 0.74933 0.07895 -0.01900
H 	H 	0.07037 0.71323 0.09003 0.05900
C 	C 	0.14627 0.72513 0.04673 -0.08800
C 	C 	0.02477 0.78293 0.36323 0.38000
O 	O 	0.70326 0.14792 0.66492 -0.46000
O 	O 	0.77233 0.07577 0.61848 -0.45100
N 	N 	0.75423 0.20837 0.58741 -0.12600
C 	C 	0.68293 0.21017 0.58778 -0.01700
H 	H 	0.66073 0.21387 0.61077 0.03600
C 	C 	0.63993 0.20667 0.55544 0.01500
C 	C 	0.67433 0.20287 0.52247 -0.06400
H 	H 	0.64793 0.20257 0.50017 0.05400
C 	C 	0.74633 0.19947 0.52155 0.00700
C 	C 	0.78893 0.08267 0.41229 -0.01900
H 	H 	0.73703 0.04657 0.42337 0.05900
C 	C 	0.81293 0.05847 0.38007 -0.08900
C 	C 	0.69143 0.11627 0.69657 0.38000
O 	O 	0.11132 0.63007 0.99825 -0.46000
O 	O 	0.97010 0.56100 0.95181 -0.45000
N 	N 	0.12080 0.57910 0.92074 -0.12600
C 	C 	0.19390 0.65040 0.92111 -0.01700
H 	H 	0.21980 0.67260 0.94410 0.03600
C 	C 	0.23340 0.69340 0.88877 0.01500
C 	C 	0.19520 0.65900 0.85580 -0.06400
H 	H 	0.22130 0.68540 0.83350 0.05400
C 	C 	0.11980 0.58700 0.85488 0.00700
C 	C 	0.96040 0.54440 0.74562 -0.02000
H 	H 	0.97620 0.59630 0.75670 0.05900
C 	C 	0.91220 0.52040 0.71340 -0.08800
C 	C 	0.09150 0.64190 0.02990 0.38000
O 	O 	0.77799 0.96340 0.33158 -0.46000
O 	O 	0.63677 0.89433 0.28514 -0.45000
N 	N 	0.78747 0.91243 0.25407 -0.12600
C 	C 	0.86057 0.98373 0.25444 -0.01500
H 	H 	0.88647 0.00593 0.27743 0.03500
C 	C 	0.90007 0.02673 0.22210 0.01300
C 	C 	0.86187 0.99233 0.18913 -0.06200
H 	H 	0.88797 0.01873 0.16683 0.05300
C 	C 	0.78647 0.92033 0.18821 0.00500
C 	C 	0.62707 0.87773 0.07895 -0.01900
H 	H 	0.64287 0.92963 0.09003 0.05900
C 	C 	0.57887 0.85373 0.04673 -0.08800
C 	C 	0.75817 0.97523 0.36323 0.38000
O 	O 	0.44465 0.29674 0.66492 -0.46000
O 	O 	0.30343 0.22767 0.61848 -0.45100
N 	N 	0.45413 0.24577 0.58741 -0.12600
C 	C 	0.52723 0.31707 0.58778 -0.01700
H 	H 	0.55313 0.33927 0.61077 0.03600
C 	C 	0.56673 0.36007 0.55544 0.01500
C 	C 	0.52853 0.32567 0.52247 -0.06400
H 	H 	0.55463 0.35207 0.50017 0.05500
C 	C 	0.45313 0.25367 0.52155 0.00700
C 	C 	0.29373 0.21107 0.41229 -0.01900
H 	H 	0.30953 0.26297 0.42337 0.05900
C 	C 	0.24553 0.18707 0.38007 -0.08800
C 	C 	0.42483 0.30857 0.69657 0.38000
O 	O 	0.51875 0.88868 0.99825 -0.46000
O 	O 	0.59090 0.02990 0.95181 -0.45000
N 	N 	0.45830 0.87920 0.92074 -0.12600
C 	C 	0.45650 0.80610 0.92111 -0.01700
H 	H 	0.45280 0.78020 0.94410 0.03600
C 	C 	0.46000 0.76660 0.88877 0.01500
C 	C 	0.46380 0.80480 0.85580 -0.06400
H 	H 	0.46410 0.77870 0.83350 0.05400
C 	C 	0.46720 0.88020 0.85488 0.00700
C 	C 	0.58400 0.03960 0.74562 -0.02000
H 	H 	0.62010 0.02380 0.75670 0.05900
C 	C 	0.60820 0.08780 0.71340 -0.08800
C 	C 	0.55040 0.90850 0.02990 0.38000
O 	O 	0.18542 0.22201 0.33158 -0.46000
O 	O 	0.25757 0.36323 0.28514 -0.45000
N 	N 	0.12497 0.21253 0.25407 -0.12500
C 	C 	0.12317 0.13943 0.25444 -0.01800
H 	H 	0.11947 0.11353 0.27743 0.03600
C 	C 	0.12667 0.09993 0.22210 0.01600
C 	C 	0.13047 0.13813 0.18913 -0.06600
H 	H 	0.13077 0.11203 0.16683 0.05500
C 	C 	0.13387 0.21353 0.18821 0.00800
C 	C 	0.25067 0.37293 0.07895 -0.01900
H 	H 	0.28677 0.35713 0.09003 0.05900
C 	C 	0.27487 0.42113 0.04673 -0.08800
C 	C 	0.21707 0.24183 0.36323 0.38000
O 	O 	0.85208 0.55535 0.66492 -0.46000
O 	O 	0.92423 0.69657 0.61848 -0.45100
N 	N 	0.79163 0.54587 0.58741 -0.12600
C 	C 	0.78983 0.47277 0.58778 -0.01700
H 	H 	0.78613 0.44687 0.61077 0.03600
C 	C 	0.79333 0.43327 0.55544 0.01500
C 	C 	0.79713 0.47147 0.52247 -0.06400
H 	H 	0.79743 0.44537 0.50017 0.05400
C 	C 	0.80053 0.54687 0.52155 0.00700
C 	C 	0.91733 0.70627 0.41229 -0.01900
H 	H 	0.95343 0.69047 0.42337 0.05900
C 	C 	0.94153 0.75447 0.38007 -0.08900
C 	C 	0.88373 0.57517 0.69657 0.38000
O 	O 	0.51875 0.63007 0.99825 -0.46000
O 	O 	0.59090 0.56100 0.95181 -0.45100
N 	N 	0.45830 0.57910 0.92074 -0.12600
C 	C 	0.45650 0.65040 0.92111 -0.01700
H 	H 	0.45280 0.67260 0.94410 0.03600
C 	C 	0.46000 0.69340 0.88877 0.01500
C 	C 	0.46380 0.65900 0.85580 -0.06400
H 	H 	0.46410 0.68540 0.83350 0.05400
C 	C 	0.46720 0.58700 0.85488 0.00700
C 	C 	0.58400 0.54440 0.74562 -0.01900
H 	H 	0.62010 0.59630 0.75670 0.05900
C 	C 	0.60820 0.52040 0.71340 -0.08800
C 	C 	0.55040 0.64190 0.02990 0.38000
O 	O 	0.18542 0.96340 0.33158 -0.46000
O 	O 	0.25757 0.89433 0.28514 -0.45000
N 	N 	0.12497 0.91243 0.25407 -0.12600
C 	C 	0.12317 0.98373 0.25444 -0.01500
H 	H 	0.11947 0.00593 0.27743 0.03500
C 	C 	0.12667 0.02673 0.22210 0.01300
C 	C 	0.13047 0.99233 0.18913 -0.06200
H 	H 	0.13077 0.01873 0.16683 0.05400
C 	C 	0.13387 0.92033 0.18821 0.00600
C 	C 	0.25067 0.87773 0.07895 -0.01900
H 	H 	0.28677 0.92963 0.09003 0.05900
C 	C 	0.27487 0.85373 0.04673 -0.08800
C 	C 	0.21707 0.97523 0.36323 0.38000
O 	O 	0.85208 0.29674 0.66492 -0.46000
O 	O 	0.92423 0.22767 0.61848 -0.45100
N 	N 	0.79163 0.24577 0.58741 -0.12600
C 	C 	0.78983 0.31707 0.58778 -0.01700
H 	H 	0.78613 0.33927 0.61077 0.03600
C 	C 	0.79333 0.36007 0.55544 0.01500
C 	C 	0.79713 0.32567 0.52247 -0.06400
H 	H 	0.79743 0.35207 0.50017 0.05400
C 	C 	0.80053 0.25367 0.52155 0.00700
C 	C 	0.91733 0.21107 0.41229 -0.01900
H 	H 	0.95343 0.26297 0.42337 0.05900
C 	C 	0.94153 0.18707 0.38007 -0.08900
C 	C 	0.88373 0.30857 0.69657 0.38000
O 	O 	0.36993 0.88868 0.99825 -0.46000
O 	O 	0.43900 0.02990 0.95181 -0.45000
N 	N 	0.42090 0.87920 0.92074 -0.12600
C 	C 	0.34960 0.80610 0.92111 -0.01700
H 	H 	0.32740 0.78020 0.94410 0.03600
C 	C 	0.30660 0.76660 0.88877 0.01500
C 	C 	0.34100 0.80480 0.85580 -0.06400
H 	H 	0.31460 0.77870 0.83350 0.05400
C 	C 	0.41300 0.88020 0.85488 0.00700
C 	C 	0.45560 0.03960 0.74562 -0.02000
H 	H 	0.40370 0.02380 0.75670 0.05900
C 	C 	0.47960 0.08780 0.71340 -0.08800
C 	C 	0.35810 0.90850 0.02990 0.38000
O 	O 	0.03660 0.22201 0.33158 -0.46000
O 	O 	0.10567 0.36323 0.28514 -0.45000
N 	N 	0.08757 0.21253 0.25407 -0.12600
C 	C 	0.01627 0.13943 0.25444 -0.01500
H 	H 	0.99407 0.11353 0.27743 0.03500
C 	C 	0.97327 0.09993 0.22210 0.01300
C 	C 	0.00767 0.13813 0.18913 -0.06200
H 	H 	0.98127 0.11203 0.16683 0.05300
C 	C 	0.07967 0.21353 0.18821 0.00500
C 	C 	0.12227 0.37293 0.07895 -0.01900
H 	H 	0.07037 0.35713 0.09003 0.05900
C 	C 	0.14627 0.42113 0.04673 -0.08800
C 	C 	0.02477 0.24183 0.36323 0.38000
O 	O 	0.70326 0.55535 0.66492 -0.46000
O 	O 	0.77233 0.69657 0.61848 -0.45100
N 	N 	0.75423 0.54587 0.58741 -0.12600
C 	C 	0.68293 0.47277 0.58778 -0.01700
H 	H 	0.66073 0.44687 0.61077 0.03600
C 	C 	0.63993 0.43327 0.55544 0.01500
C 	C 	0.67433 0.47147 0.52247 -0.06400
H 	H 	0.64793 0.44537 0.50017 0.05500
C 	C 	0.74633 0.54687 0.52155 0.00700
C 	C 	0.78893 0.70627 0.41229 -0.01900
H 	H 	0.73703 0.69047 0.42337 0.05900
C 	C 	0.81293 0.75447 0.38007 -0.08800
C 	C 	0.69143 0.57517 0.69657 0.38000
O 	O 	0.11132 0.48125 0.99825 -0.46000
O 	O 	0.97010 0.40910 0.95181 -0.45000
N 	N 	0.12080 0.54170 0.92074 -0.12600
C 	C 	0.19390 0.54350 0.92111 -0.01700
H 	H 	0.21980 0.54720 0.94410 0.03600
C 	C 	0.23340 0.54000 0.88877 0.01500
C 	C 	0.19520 0.53620 0.85580 -0.06400
H 	H 	0.22130 0.53590 0.83350 0.05400
C 	C 	0.11980 0.53280 0.85488 0.00700
C 	C 	0.96040 0.41600 0.74562 -0.02000
H 	H 	0.97620 0.37990 0.75670 0.05900
C 	C 	0.91220 0.39180 0.71340 -0.08800
C 	C 	0.09150 0.44960 0.02990 0.38000
O 	O 	0.77799 0.81458 0.33158 -0.46000
O 	O 	0.63677 0.74243 0.28514 -0.45000
N 	N 	0.78747 0.87503 0.25407 -0.12500
C 	C 	0.86057 0.87683 0.25444 -0.01800
H 	H 	0.88647 0.88053 0.27743 0.03600
C 	C 	0.90007 0.87333 0.22210 0.01600
C 	C 	0.86187 0.86953 0.18913 -0.06600
H 	H 	0.88797 0.86923 0.16683 0.05500
C 	C 	0.78647 0.86613 0.18821 0.00800
C 	C 	0.62707 0.74933 0.07895 -0.01900
H 	H 	0.64287 0.71323 0.09003 0.05900
C 	C 	0.57887 0.72513 0.04673 -0.08800
C 	C 	0.75817 0.78293 0.36323 0.38000
O 	O 	0.44465 0.14792 0.66492 -0.46000
O 	O 	0.30343 0.07577 0.61848 -0.45100
N 	N 	0.45413 0.20837 0.58741 -0.12600
C 	C 	0.52723 0.21017 0.58778 -0.01700
H 	H 	0.55313 0.21387 0.61077 0.03600
C 	C 	0.56673 0.20667 0.55544 0.01500
C 	C 	0.52853 0.20287 0.52247 -0.06400
H 	H 	0.55463 0.20257 0.50017 0.05400
C 	C 	0.45313 0.19947 0.52155 0.00700
C 	C 	0.29373 0.08267 0.41229 -0.01900
H 	H 	0.30953 0.04657 0.42337 0.05900
C 	C 	0.24553 0.05847 0.38007 -0.08900
C 	C 	0.42483 0.11627 0.69657 0.38000
O 	O 	0.63007 0.51875 0.00175 -0.46000
O 	O 	0.56100 0.59090 0.04819 -0.45100
N 	N 	0.57910 0.45830 0.07926 -0.12600
C 	C 	0.65040 0.45650 0.07889 -0.01700
H 	H 	0.67260 0.45280 0.05590 0.03600
C 	C 	0.69340 0.46000 0.11123 0.01500
C 	C 	0.65900 0.46380 0.14420 -0.06400
H 	H 	0.68540 0.46410 0.16650 0.05400
C 	C 	0.58700 0.46720 0.14512 0.00700
C 	C 	0.54440 0.58400 0.25438 -0.01900
H 	H 	0.59630 0.62010 0.24330 0.05900
C 	C 	0.52040 0.60820 0.28660 -0.08800
C 	C 	0.64190 0.55040 0.97010 0.38000
O 	O 	0.29674 0.85208 0.33508 -0.46000
O 	O 	0.22767 0.92423 0.38152 -0.45100
N 	N 	0.24577 0.79163 0.41259 -0.12600
C 	C 	0.31707 0.78983 0.41222 -0.01700
H 	H 	0.33927 0.78613 0.38923 0.03600
C 	C 	0.36007 0.79333 0.44456 0.01500
C 	C 	0.32567 0.79713 0.47753 -0.06400
H 	H 	0.35207 0.79743 0.49983 0.05400
C 	C 	0.25367 0.80053 0.47845 0.00700
C 	C 	0.21107 0.91733 0.58771 -0.01900
H 	H 	0.26297 0.95343 0.57663 0.05900
C 	C 	0.18707 0.94153 0.61993 -0.08900
C 	C 	0.30857 0.88373 0.30343 0.38000
O 	O 	0.96340 0.18542 0.66842 -0.46000
O 	O 	0.89433 0.25757 0.71486 -0.45000
N 	N 	0.91243 0.12497 0.74593 -0.12600
C 	C 	0.98373 0.12317 0.74556 -0.01500
H 	H 	0.00593 0.11947 0.72257 0.03500
C 	C 	0.02673 0.12667 0.77790 0.01300
C 	C 	0.99233 0.13047 0.81087 -0.06200
H 	H 	0.01873 0.13077 0.83317 0.05400
C 	C 	0.92033 0.13387 0.81179 0.00600
C 	C 	0.87773 0.25067 0.92105 -0.01900
H 	H 	0.92963 0.28677 0.90997 0.05900
C 	C 	0.85373 0.27487 0.95327 -0.08800
C 	C 	0.97523 0.21707 0.63677 0.38000
O 	O 	0.88868 0.36993 0.00175 -0.46000
O 	O 	0.02990 0.43900 0.04819 -0.45000
N 	N 	0.87920 0.42090 0.07926 -0.12600
C 	C 	0.80610 0.34960 0.07889 -0.01700
H 	H 	0.78020 0.32740 0.05590 0.03600
C 	C 	0.76660 0.30660 0.11123 0.01500
C 	C 	0.80480 0.34100 0.14420 -0.06400
H 	H 	0.77870 0.31460 0.16650 0.05400
C 	C 	0.88020 0.41300 0.14512 0.00700
C 	C 	0.03960 0.45560 0.25438 -0.02000
H 	H 	0.02380 0.40370 0.24330 0.05900
C 	C 	0.08780 0.47960 0.28660 -0.08800
C 	C 	0.90850 0.35810 0.97010 0.38000
O 	O 	0.55535 0.70326 0.33508 -0.46000
O 	O 	0.69657 0.77233 0.38152 -0.45100
N 	N 	0.54587 0.75423 0.41259 -0.12600
C 	C 	0.47277 0.68293 0.41222 -0.01700
H 	H 	0.44687 0.66073 0.38923 0.03600
C 	C 	0.43327 0.63993 0.44456 0.01500
C 	C 	0.47147 0.67433 0.47753 -0.06400
H 	H 	0.44537 0.64793 0.49983 0.05500
C 	C 	0.54687 0.74633 0.47845 0.00700
C 	C 	0.70627 0.78893 0.58771 -0.01900
H 	H 	0.69047 0.73703 0.57663 0.05900
C 	C 	0.75447 0.81293 0.61993 -0.08800
C 	C 	0.57517 0.69143 0.30343 0.38000
O 	O 	0.22201 0.03660 0.66842 -0.46000
O 	O 	0.36323 0.10567 0.71486 -0.45000
N 	N 	0.21253 0.08757 0.74593 -0.12600
C 	C 	0.13943 0.01627 0.74556 -0.01500
H 	H 	0.11353 0.99407 0.72257 0.03500
C 	C 	0.09993 0.97327 0.77790 0.01300
C 	C 	0.13813 0.00767 0.81087 -0.06200
H 	H 	0.11203 0.98127 0.83317 0.05300
C 	C 	0.21353 0.07967 0.81179 0.00500
C 	C 	0.37293 0.12227 0.92105 -0.01900
H 	H 	0.35713 0.07037 0.90997 0.05900
C 	C 	0.42113 0.14627 0.95327 -0.08800
C 	C 	0.24183 0.02477 0.63677 0.38000
O 	O 	0.48125 0.11132 0.00175 -0.46000
O 	O 	0.40910 0.97010 0.04819 -0.45000
N 	N 	0.54170 0.12080 0.07926 -0.12600
C 	C 	0.54350 0.19390 0.07889 -0.01700
H 	H 	0.54720 0.21980 0.05590 0.03600
C 	C 	0.54000 0.23340 0.11123 0.01500
C 	C 	0.53620 0.19520 0.14420 -0.06400
H 	H 	0.53590 0.22130 0.16650 0.05400
C 	C 	0.53280 0.11980 0.14512 0.00700
C 	C 	0.41600 0.96040 0.25438 -0.02000
H 	H 	0.37990 0.97620 0.24330 0.05900
C 	C 	0.39180 0.91220 0.28660 -0.08800
C 	C 	0.44960 0.09150 0.97010 0.38000
O 	O 	0.14792 0.44465 0.33508 -0.46000
O 	O 	0.07577 0.30343 0.38152 -0.45100
N 	N 	0.20837 0.45413 0.41259 -0.12600
C 	C 	0.21017 0.52723 0.41222 -0.01700
H 	H 	0.21387 0.55313 0.38923 0.03600
C 	C 	0.20667 0.56673 0.44456 0.01500
C 	C 	0.20287 0.52853 0.47753 -0.06400
H 	H 	0.20257 0.55463 0.49983 0.05400
C 	C 	0.19947 0.45313 0.47845 0.00700
C 	C 	0.08267 0.29373 0.58771 -0.01900
H 	H 	0.04657 0.30953 0.57663 0.05900
C 	C 	0.05847 0.24553 0.61993 -0.08900
C 	C 	0.11627 0.42483 0.30343 0.38000
O 	O 	0.81458 0.77799 0.66842 -0.46000
O 	O 	0.74243 0.63677 0.71486 -0.45000
N 	N 	0.87503 0.78747 0.74593 -0.12500
C 	C 	0.87683 0.86057 0.74556 -0.01800
H 	H 	0.88053 0.88647 0.72257 0.03600
C 	C 	0.87333 0.90007 0.77790 0.01600
C 	C 	0.86953 0.86187 0.81087 -0.06600
H 	H 	0.86923 0.88797 0.83317 0.05500
C 	C 	0.86613 0.78647 0.81179 0.00800
C 	C 	0.74933 0.62707 0.92105 -0.01900
H 	H 	0.71323 0.64287 0.90997 0.05900
C 	C 	0.72513 0.57887 0.95327 -0.08800
C 	C 	0.78293 0.75817 0.63677 0.38000
Zn	Zn	0.52675 0.47325 0.03258 1.21900
C 	C 	0.54209 0.45791 0.11183 0.05300
C 	C 	0.53680 0.46320 0.17889 -0.00900
C 	C 	0.51685 0.48315 0.20592 -0.01200
C 	C 	0.49230 0.50770 0.23899 0.01400
C 	C 	0.44520 0.55480 0.30252 0.03600
H 	H 	0.42990 0.57010 0.32480 0.04800
Zn	Zn	0.19342 0.80658 0.36591 1.21900
C 	C 	0.20876 0.79124 0.44516 0.05300
C 	C 	0.20347 0.79653 0.51222 -0.00900
C 	C 	0.18352 0.81648 0.53925 -0.01200
C 	C 	0.15897 0.84103 0.57232 0.01400
C 	C 	0.11186 0.88814 0.63585 0.03600
H 	H 	0.09657 0.90343 0.65813 0.04800
Zn	Zn	0.86008 0.13992 0.69924 1.21900
C 	C 	0.87542 0.12458 0.77850 0.05300
C 	C 	0.87013 0.12987 0.84556 -0.00900
C 	C 	0.85018 0.14982 0.87259 -0.01200
C 	C 	0.82563 0.17437 0.90566 0.01400
C 	C 	0.77853 0.22147 0.96919 0.03600
H 	H 	0.76323 0.23677 0.99147 0.04800
Zn	Zn	0.52675 0.05350 0.03258 1.21900
C 	C 	0.54209 0.08418 0.11183 0.05300
C 	C 	0.53680 0.07360 0.17889 -0.00900
C 	C 	0.51685 0.03370 0.20592 -0.01300
C 	C 	0.49230 0.98460 0.23899 0.01500
C 	C 	0.44520 0.89039 0.30252 0.03500
H 	H 	0.42990 0.85980 0.32480 0.04800
Zn	Zn	0.19342 0.38683 0.36591 1.21900
C 	C 	0.20876 0.41751 0.44516 0.05300
C 	C 	0.20347 0.40693 0.51222 -0.00900
C 	C 	0.18352 0.36703 0.53925 -0.01200
C 	C 	0.15897 0.31793 0.57232 0.01400
C 	C 	0.11186 0.22372 0.63585 0.03600
H 	H 	0.09657 0.19313 0.65813 0.04800
Zn	Zn	0.86008 0.72017 0.69924 1.21900
C 	C 	0.87542 0.75085 0.77850 0.05300
C 	C 	0.87013 0.74027 0.84556 -0.00900
C 	C 	0.85018 0.70037 0.87259 -0.01200
C 	C 	0.82563 0.65127 0.90566 0.01400
C 	C 	0.77853 0.55706 0.96919 0.03600
H 	H 	0.76323 0.52647 0.99147 0.04800
Zn	Zn	0.94650 0.47325 0.03258 1.21900
C 	C 	0.91582 0.45791 0.11183 0.05300
C 	C 	0.92640 0.46320 0.17889 -0.00900
C 	C 	0.96630 0.48315 0.20592 -0.01300
C 	C 	0.01540 0.50770 0.23899 0.01500
C 	C 	0.10961 0.55480 0.30252 0.03500
H 	H 	0.14020 0.57010 0.32480 0.04800
Zn	Zn	0.61317 0.80658 0.36591 1.21900
C 	C 	0.58249 0.79124 0.44516 0.05300
C 	C 	0.59307 0.79653 0.51222 -0.00900
C 	C 	0.63297 0.81648 0.53925 -0.01200
C 	C 	0.68207 0.84103 0.57232 0.01400
C 	C 	0.77628 0.88814 0.63585 0.03600
H 	H 	0.80687 0.90343 0.65813 0.04800
Zn	Zn	0.27983 0.13992 0.69924 1.21900
C 	C 	0.24915 0.12458 0.77850 0.05300
C 	C 	0.25973 0.12987 0.84556 -0.00900
C 	C 	0.29963 0.14982 0.87259 -0.01200
C 	C 	0.34873 0.17437 0.90566 0.01400
C 	C 	0.44294 0.22147 0.96919 0.03600
H 	H 	0.47353 0.23677 0.99147 0.04800
Zn	Zn	0.47325 0.52675 0.96742 1.21900
C 	C 	0.45791 0.54209 0.88817 0.05300
C 	C 	0.46320 0.53680 0.82111 -0.00900
C 	C 	0.48315 0.51685 0.79408 -0.01200
C 	C 	0.50770 0.49230 0.76101 0.01400
C 	C 	0.55480 0.44520 0.69748 0.03600
H 	H 	0.57010 0.42990 0.67520 0.04800
Zn	Zn	0.13992 0.86008 0.30076 1.21900
C 	C 	0.12458 0.87542 0.22150 0.05300
C 	C 	0.12987 0.87013 0.15444 -0.00900
C 	C 	0.14982 0.85018 0.12741 -0.01200
C 	C 	0.17437 0.82563 0.09434 0.01400
C 	C 	0.22147 0.77853 0.03081 0.03600
H 	H 	0.23677 0.76323 0.00853 0.04800
Zn	Zn	0.80658 0.19342 0.63409 1.21900
C 	C 	0.79124 0.20876 0.55484 0.05300
C 	C 	0.79653 0.20347 0.48778 -0.00900
C 	C 	0.81648 0.18352 0.46075 -0.01200
C 	C 	0.84103 0.15897 0.42768 0.01400
C 	C 	0.88814 0.11186 0.36415 0.03600
H 	H 	0.90343 0.09657 0.34187 0.04800
Zn	Zn	0.05350 0.52675 0.96742 1.21900
C 	C 	0.08418 0.54209 0.88817 0.05300
C 	C 	0.07360 0.53680 0.82111 -0.00900
C 	C 	0.03370 0.51685 0.79408 -0.01300
C 	C 	0.98460 0.49230 0.76101 0.01500
C 	C 	0.89039 0.44520 0.69748 0.03500
H 	H 	0.85980 0.42990 0.67520 0.04800
Zn	Zn	0.72017 0.86008 0.30076 1.21900
C 	C 	0.75085 0.87542 0.22150 0.05300
C 	C 	0.74027 0.87013 0.15444 -0.00900
C 	C 	0.70037 0.85018 0.12741 -0.01200
C 	C 	0.65127 0.82563 0.09434 0.01400
C 	C 	0.55706 0.77853 0.03081 0.03600
H 	H 	0.52647 0.76323 0.00853 0.04800
Zn	Zn	0.38683 0.19342 0.63409 1.21900
C 	C 	0.41751 0.20876 0.55484 0.05300
C 	C 	0.40693 0.20347 0.48778 -0.00900
C 	C 	0.36703 0.18352 0.46075 -0.01200
C 	C 	0.31793 0.15897 0.42768 0.01400
C 	C 	0.22372 0.11186 0.36415 0.03600
H 	H 	0.19313 0.09657 0.34187 0.04800
Zn	Zn	0.47325 0.94650 0.96742 1.21900
C 	C 	0.45791 0.91582 0.88817 0.05300
C 	C 	0.46320 0.92640 0.82111 -0.00900
C 	C 	0.48315 0.96630 0.79408 -0.01300
C 	C 	0.50770 0.01540 0.76101 0.01500
C 	C 	0.55480 0.10961 0.69748 0.03500
H 	H 	0.57010 0.14020 0.67520 0.04800
Zn	Zn	0.13992 0.27983 0.30076 1.21900
C 	C 	0.12458 0.24915 0.22150 0.05300
C 	C 	0.12987 0.25973 0.15444 -0.00900
C 	C 	0.14982 0.29963 0.12741 -0.01200
C 	C 	0.17437 0.34873 0.09434 0.01400
C 	C 	0.22147 0.44294 0.03081 0.03600
H 	H 	0.23677 0.47353 0.00853 0.04800
Zn	Zn	0.80658 0.61317 0.63409 1.21900
C 	C 	0.79124 0.58249 0.55484 0.05300
C 	C 	0.79653 0.59307 0.48778 -0.00900
C 	C 	0.81648 0.63297 0.46075 -0.01200
C 	C 	0.84103 0.68207 0.42768 0.01400
C 	C 	0.88814 0.77628 0.36415 0.03600
H 	H 	0.90343 0.80687 0.34187 0.04800
