data_crystal

_cell_length_a 18.62800
_cell_length_b 18.62800
_cell_length_c 36.43500
_cell_angle_alpha 90.00000
_cell_angle_beta  90.00000
_cell_angle_gamma 120.00000

_symmetry_space_group_name_	'P 1'
_symmetry_space_group_name_H-M	'P 1'

loop_
_symmetry_equiv_pos_as_xyz
  x,y,z

loop_
_atom_site_label
_atom_site_type_symbol
_atom_site_fract_x
_atom_site_fract_y
_atom_site_fract_z
_atom_site_charge
O 	O 	0.48093 0.36975 0.00151 -0.45900
O 	O 	0.40920 0.43850 0.04817 -0.45400
N 	N 	0.54140 0.42070 0.07952 -0.12600
C 	C 	0.54680 0.35120 0.07944 -0.01400
H 	H 	0.55140 0.32960 0.05650 0.03500
C 	C 	0.54610 0.31020 0.11090 0.01400
C 	C 	0.54070 0.34350 0.14390 -0.06000
H 	H 	0.54140 0.31770 0.16630 0.05400
C 	C 	0.53420 0.41540 0.14448 0.00600
C 	C 	0.41430 0.45630 0.25401 -0.01200
H 	H 	0.37780 0.40450 0.24280 0.05700
C 	C 	0.39090 0.47960 0.28616 -0.09500
C 	C 	0.44850 0.35810 0.96991 0.38700
O 	O 	0.14760 0.70308 0.33484 -0.46000
O 	O 	0.07587 0.77183 0.38150 -0.45500
N 	N 	0.20807 0.75403 0.41285 -0.12700
C 	C 	0.21347 0.68453 0.41277 -0.01500
H 	H 	0.21807 0.66293 0.38983 0.03400
C 	C 	0.21277 0.64353 0.44423 0.01300
C 	C 	0.20737 0.67683 0.47723 -0.06100
H 	H 	0.20807 0.65103 0.49963 0.05300
C 	C 	0.20087 0.74873 0.47781 0.00500
C 	C 	0.08097 0.78963 0.58734 -0.01300
H 	H 	0.04447 0.73783 0.57613 0.05700
C 	C 	0.05757 0.81293 0.61949 -0.09500
C 	C 	0.11517 0.69143 0.30324 0.38700
O 	O 	0.81426 0.03642 0.66818 -0.46000
O 	O 	0.74253 0.10517 0.71484 -0.45500
N 	N 	0.87473 0.08737 0.74619 -0.12700
C 	C 	0.88013 0.01787 0.74611 -0.01300
H 	H 	0.88473 0.99627 0.72317 0.03300
C 	C 	0.87943 0.97687 0.77757 0.01100
C 	C 	0.87403 0.01017 0.81057 -0.05900
H 	H 	0.87473 0.98437 0.83297 0.05200
C 	C 	0.86753 0.08207 0.81115 0.00500
C 	C 	0.74763 0.12297 0.92068 -0.01300
H 	H 	0.71113 0.07117 0.90947 0.05700
C 	C 	0.72423 0.14627 0.95283 -0.09500
C 	C 	0.78183 0.02477 0.63658 0.38700
O 	O 	0.63025 0.11118 0.00151 -0.46000
O 	O 	0.56150 0.97070 0.04817 -0.45500
N 	N 	0.57930 0.12070 0.07952 -0.12700
C 	C 	0.64880 0.19560 0.07944 -0.01500
H 	H 	0.67040 0.22180 0.05650 0.03400
C 	C 	0.68980 0.23590 0.11090 0.01300
C 	C 	0.65650 0.19720 0.14390 -0.06100
H 	H 	0.68230 0.22370 0.16630 0.05300
C 	C 	0.58460 0.11880 0.14448 0.00500
C 	C 	0.54370 0.95800 0.25401 -0.01400
H 	H 	0.59550 0.97330 0.24280 0.05700
C 	C 	0.52040 0.91130 0.28616 -0.09400
C 	C 	0.64190 0.09040 0.96991 0.38700
O 	O 	0.29692 0.44451 0.33484 -0.46000
O 	O 	0.22817 0.30403 0.38150 -0.45500
N 	N 	0.24597 0.45403 0.41285 -0.12700
C 	C 	0.31547 0.52893 0.41277 -0.01500
H 	H 	0.33707 0.55513 0.38983 0.03400
C 	C 	0.35647 0.56923 0.44423 0.01300
C 	C 	0.32317 0.53053 0.47723 -0.06100
H 	H 	0.34897 0.55703 0.49963 0.05300
C 	C 	0.25127 0.45213 0.47781 0.00500
C 	C 	0.21037 0.29133 0.58734 -0.01300
H 	H 	0.26217 0.30663 0.57613 0.05700
C 	C 	0.18707 0.24463 0.61949 -0.09500
C 	C 	0.30857 0.42373 0.30324 0.38700
O 	O 	0.96358 0.77785 0.66818 -0.46000
O 	O 	0.89483 0.63737 0.71484 -0.45500
N 	N 	0.91263 0.78737 0.74619 -0.12800
C 	C 	0.98213 0.86227 0.74611 -0.01200
H 	H 	0.00373 0.88847 0.72317 0.03300
C 	C 	0.02313 0.90257 0.77757 0.01200
C 	C 	0.98983 0.86387 0.81057 -0.05800
H 	H 	0.01563 0.89037 0.83297 0.05200
C 	C 	0.91793 0.78547 0.81115 0.00300
C 	C 	0.87703 0.62467 0.92068 -0.01300
H 	H 	0.92883 0.63997 0.90947 0.05700
C 	C 	0.85373 0.57797 0.95283 -0.09500
C 	C 	0.97523 0.75707 0.63658 0.38700
O 	O 	0.88882 0.51907 0.00151 -0.46000
O 	O 	0.02930 0.59080 0.04817 -0.45500
N 	N 	0.87930 0.45860 0.07952 -0.12700
C 	C 	0.80440 0.45320 0.07944 -0.01500
H 	H 	0.77820 0.44860 0.05650 0.03400
C 	C 	0.76410 0.45390 0.11090 0.01300
C 	C 	0.80280 0.45930 0.14390 -0.06100
H 	H 	0.77630 0.45860 0.16630 0.05300
C 	C 	0.88120 0.46580 0.14448 0.00500
C 	C 	0.04200 0.58570 0.25401 -0.01400
H 	H 	0.02670 0.62220 0.24280 0.05700
C 	C 	0.08870 0.60910 0.28616 -0.09400
C 	C 	0.90960 0.55150 0.96991 0.38700
O 	O 	0.55549 0.85240 0.33484 -0.46000
O 	O 	0.69597 0.92413 0.38150 -0.45500
N 	N 	0.54597 0.79193 0.41285 -0.12700
C 	C 	0.47107 0.78653 0.41277 -0.01400
H 	H 	0.44487 0.78193 0.38983 0.03400
C 	C 	0.43077 0.78723 0.44423 0.01300
C 	C 	0.46947 0.79263 0.47723 -0.06100
H 	H 	0.44297 0.79193 0.49963 0.05300
C 	C 	0.54787 0.79913 0.47781 0.00500
C 	C 	0.70867 0.91903 0.58734 -0.01300
H 	H 	0.69337 0.95553 0.57613 0.05700
C 	C 	0.75537 0.94243 0.61949 -0.09500
C 	C 	0.57627 0.88483 0.30324 0.38700
O 	O 	0.22215 0.18574 0.66818 -0.46000
O 	O 	0.36263 0.25747 0.71484 -0.45500
N 	N 	0.21263 0.12527 0.74619 -0.12700
C 	C 	0.13773 0.11987 0.74611 -0.01600
H 	H 	0.11153 0.11527 0.72317 0.03400
C 	C 	0.09743 0.12057 0.77757 0.01500
C 	C 	0.13613 0.12597 0.81057 -0.06200
H 	H 	0.10963 0.12527 0.83297 0.05300
C 	C 	0.21453 0.13247 0.81115 0.00700
C 	C 	0.37533 0.25237 0.92068 -0.01300
H 	H 	0.36003 0.28887 0.90947 0.05700
C 	C 	0.42203 0.27577 0.95283 -0.09500
C 	C 	0.24293 0.21817 0.63658 0.38700
O 	O 	0.36975 0.48093 0.99849 -0.46000
O 	O 	0.43850 0.40920 0.95183 -0.45500
N 	N 	0.42070 0.54140 0.92048 -0.12700
C 	C 	0.35120 0.54680 0.92056 -0.01500
H 	H 	0.32960 0.55140 0.94350 0.03400
C 	C 	0.31020 0.54610 0.88910 0.01300
C 	C 	0.34350 0.54070 0.85610 -0.06100
H 	H 	0.31770 0.54140 0.83370 0.05300
C 	C 	0.41540 0.53420 0.85552 0.00500
C 	C 	0.45630 0.41430 0.74599 -0.01300
H 	H 	0.40450 0.37780 0.75720 0.05700
C 	C 	0.47960 0.39090 0.71384 -0.09500
C 	C 	0.35810 0.44850 0.03009 0.38700
O 	O 	0.03642 0.81426 0.33182 -0.46000
O 	O 	0.10517 0.74253 0.28516 -0.45500
N 	N 	0.08737 0.87473 0.25381 -0.12700
C 	C 	0.01787 0.88013 0.25389 -0.01300
H 	H 	0.99627 0.88473 0.27683 0.03300
C 	C 	0.97687 0.87943 0.22243 0.01100
C 	C 	0.01017 0.87403 0.18943 -0.05900
H 	H 	0.98437 0.87473 0.16703 0.05200
C 	C 	0.08207 0.86753 0.18885 0.00500
C 	C 	0.12297 0.74763 0.07932 -0.01300
H 	H 	0.07117 0.71113 0.09053 0.05700
C 	C 	0.14627 0.72423 0.04717 -0.09500
C 	C 	0.02477 0.78183 0.36342 0.38700
O 	O 	0.70308 0.14760 0.66516 -0.46000
O 	O 	0.77183 0.07587 0.61850 -0.45500
N 	N 	0.75403 0.20807 0.58715 -0.12700
C 	C 	0.68453 0.21347 0.58723 -0.01500
H 	H 	0.66293 0.21807 0.61017 0.03400
C 	C 	0.64353 0.21277 0.55577 0.01300
C 	C 	0.67683 0.20737 0.52277 -0.06100
H 	H 	0.65103 0.20807 0.50037 0.05300
C 	C 	0.74873 0.20087 0.52219 0.00500
C 	C 	0.78963 0.08097 0.41266 -0.01300
H 	H 	0.73783 0.04447 0.42387 0.05700
C 	C 	0.81293 0.05757 0.38051 -0.09500
C 	C 	0.69143 0.11517 0.69676 0.38700
O 	O 	0.11118 0.63025 0.99849 -0.46000
O 	O 	0.97070 0.56150 0.95183 -0.45500
N 	N 	0.12070 0.57930 0.92048 -0.12700
C 	C 	0.19560 0.64880 0.92056 -0.01500
H 	H 	0.22180 0.67040 0.94350 0.03400
C 	C 	0.23590 0.68980 0.88910 0.01300
C 	C 	0.19720 0.65650 0.85610 -0.06100
H 	H 	0.22370 0.68230 0.83370 0.05300
C 	C 	0.11880 0.58460 0.85552 0.00500
C 	C 	0.95800 0.54370 0.74599 -0.01400
H 	H 	0.97330 0.59550 0.75720 0.05700
C 	C 	0.91130 0.52040 0.71384 -0.09400
C 	C 	0.09040 0.64190 0.03009 0.38700
O 	O 	0.77785 0.96358 0.33182 -0.46000
O 	O 	0.63737 0.89483 0.28516 -0.45500
N 	N 	0.78737 0.91263 0.25381 -0.12800
C 	C 	0.86227 0.98213 0.25389 -0.01200
H 	H 	0.88847 0.00373 0.27683 0.03300
C 	C 	0.90257 0.02313 0.22243 0.01200
C 	C 	0.86387 0.98983 0.18943 -0.05800
H 	H 	0.89037 0.01563 0.16703 0.05200
C 	C 	0.78547 0.91793 0.18885 0.00300
C 	C 	0.62467 0.87703 0.07932 -0.01300
H 	H 	0.63997 0.92883 0.09053 0.05700
C 	C 	0.57797 0.85373 0.04717 -0.09500
C 	C 	0.75707 0.97523 0.36342 0.38700
O 	O 	0.44451 0.29692 0.66516 -0.46000
O 	O 	0.30403 0.22817 0.61850 -0.45500
N 	N 	0.45403 0.24597 0.58715 -0.12700
C 	C 	0.52893 0.31547 0.58723 -0.01500
H 	H 	0.55513 0.33707 0.61017 0.03400
C 	C 	0.56923 0.35647 0.55577 0.01300
C 	C 	0.53053 0.32317 0.52277 -0.06100
H 	H 	0.55703 0.34897 0.50037 0.05300
C 	C 	0.45213 0.25127 0.52219 0.00500
C 	C 	0.29133 0.21037 0.41266 -0.01300
H 	H 	0.30663 0.26217 0.42387 0.05700
C 	C 	0.24463 0.18707 0.38051 -0.09500
C 	C 	0.42373 0.30857 0.69676 0.38700
O 	O 	0.51907 0.88882 0.99849 -0.46000
O 	O 	0.59080 0.02930 0.95183 -0.45500
N 	N 	0.45860 0.87930 0.92048 -0.12700
C 	C 	0.45320 0.80440 0.92056 -0.01500
H 	H 	0.44860 0.77820 0.94350 0.03400
C 	C 	0.45390 0.76410 0.88910 0.01300
C 	C 	0.45930 0.80280 0.85610 -0.06100
H 	H 	0.45860 0.77630 0.83370 0.05300
C 	C 	0.46580 0.88120 0.85552 0.00500
C 	C 	0.58570 0.04200 0.74599 -0.01400
H 	H 	0.62220 0.02670 0.75720 0.05700
C 	C 	0.60910 0.08870 0.71384 -0.09400
C 	C 	0.55150 0.90960 0.03009 0.38700
O 	O 	0.18574 0.22215 0.33182 -0.46000
O 	O 	0.25747 0.36263 0.28516 -0.45500
N 	N 	0.12527 0.21263 0.25381 -0.12700
C 	C 	0.11987 0.13773 0.25389 -0.01600
H 	H 	0.11527 0.11153 0.27683 0.03400
C 	C 	0.12057 0.09743 0.22243 0.01500
C 	C 	0.12597 0.13613 0.18943 -0.06200
H 	H 	0.12527 0.10963 0.16703 0.05300
C 	C 	0.13247 0.21453 0.18885 0.00700
C 	C 	0.25237 0.37533 0.07932 -0.01300
H 	H 	0.28887 0.36003 0.09053 0.05700
C 	C 	0.27577 0.42203 0.04717 -0.09500
C 	C 	0.21817 0.24293 0.36342 0.38700
O 	O 	0.85240 0.55549 0.66516 -0.46000
O 	O 	0.92413 0.69597 0.61850 -0.45500
N 	N 	0.79193 0.54597 0.58715 -0.12700
C 	C 	0.78653 0.47107 0.58723 -0.01400
H 	H 	0.78193 0.44487 0.61017 0.03400
C 	C 	0.78723 0.43077 0.55577 0.01300
C 	C 	0.79263 0.46947 0.52277 -0.06100
H 	H 	0.79193 0.44297 0.50037 0.05300
C 	C 	0.79913 0.54787 0.52219 0.00500
C 	C 	0.91903 0.70867 0.41266 -0.01300
H 	H 	0.95553 0.69337 0.42387 0.05700
C 	C 	0.94243 0.75537 0.38051 -0.09500
C 	C 	0.88483 0.57627 0.69676 0.38700
O 	O 	0.51907 0.63025 0.99849 -0.46000
O 	O 	0.59080 0.56150 0.95183 -0.45500
N 	N 	0.45860 0.57930 0.92048 -0.12700
C 	C 	0.45320 0.64880 0.92056 -0.01500
H 	H 	0.44860 0.67040 0.94350 0.03400
C 	C 	0.45390 0.68980 0.88910 0.01300
C 	C 	0.45930 0.65650 0.85610 -0.06100
H 	H 	0.45860 0.68230 0.83370 0.05300
C 	C 	0.46580 0.58460 0.85552 0.00500
C 	C 	0.58570 0.54370 0.74599 -0.01300
H 	H 	0.62220 0.59550 0.75720 0.05700
C 	C 	0.60910 0.52040 0.71384 -0.09500
C 	C 	0.55150 0.64190 0.03009 0.38700
O 	O 	0.18574 0.96358 0.33182 -0.46000
O 	O 	0.25747 0.89483 0.28516 -0.45500
N 	N 	0.12527 0.91263 0.25381 -0.12700
C 	C 	0.11987 0.98213 0.25389 -0.01300
H 	H 	0.11527 0.00373 0.27683 0.03300
C 	C 	0.12057 0.02313 0.22243 0.01100
C 	C 	0.12597 0.98983 0.18943 -0.05900
H 	H 	0.12527 0.01563 0.16703 0.05200
C 	C 	0.13247 0.91793 0.18885 0.00500
C 	C 	0.25237 0.87703 0.07932 -0.01300
H 	H 	0.28887 0.92883 0.09053 0.05700
C 	C 	0.27577 0.85373 0.04717 -0.09500
C 	C 	0.21817 0.97523 0.36342 0.38700
O 	O 	0.85240 0.29692 0.66516 -0.46000
O 	O 	0.92413 0.22817 0.61850 -0.45500
N 	N 	0.79193 0.24597 0.58715 -0.12700
C 	C 	0.78653 0.31547 0.58723 -0.01500
H 	H 	0.78193 0.33707 0.61017 0.03400
C 	C 	0.78723 0.35647 0.55577 0.01300
C 	C 	0.79263 0.32317 0.52277 -0.06100
H 	H 	0.79193 0.34897 0.50037 0.05300
C 	C 	0.79913 0.25127 0.52219 0.00500
C 	C 	0.91903 0.21037 0.41266 -0.01300
H 	H 	0.95553 0.26217 0.42387 0.05700
C 	C 	0.94243 0.18707 0.38051 -0.09500
C 	C 	0.88483 0.30857 0.69676 0.38700
O 	O 	0.36975 0.88882 0.99849 -0.46000
O 	O 	0.43850 0.02930 0.95183 -0.45500
N 	N 	0.42070 0.87930 0.92048 -0.12700
C 	C 	0.35120 0.80440 0.92056 -0.01500
H 	H 	0.32960 0.77820 0.94350 0.03400
C 	C 	0.31020 0.76410 0.88910 0.01300
C 	C 	0.34350 0.80280 0.85610 -0.06100
H 	H 	0.31770 0.77630 0.83370 0.05300
C 	C 	0.41540 0.88120 0.85552 0.00500
C 	C 	0.45630 0.04200 0.74599 -0.01400
H 	H 	0.40450 0.02670 0.75720 0.05700
C 	C 	0.47960 0.08870 0.71384 -0.09400
C 	C 	0.35810 0.90960 0.03009 0.38700
O 	O 	0.03642 0.22215 0.33182 -0.46000
O 	O 	0.10517 0.36263 0.28516 -0.45500
N 	N 	0.08737 0.21263 0.25381 -0.12800
C 	C 	0.01787 0.13773 0.25389 -0.01200
H 	H 	0.99627 0.11153 0.27683 0.03300
C 	C 	0.97687 0.09743 0.22243 0.01200
C 	C 	0.01017 0.13613 0.18943 -0.05800
H 	H 	0.98437 0.10963 0.16703 0.05200
C 	C 	0.08207 0.21453 0.18885 0.00300
C 	C 	0.12297 0.37533 0.07932 -0.01300
H 	H 	0.07117 0.36003 0.09053 0.05700
C 	C 	0.14627 0.42203 0.04717 -0.09500
C 	C 	0.02477 0.24293 0.36342 0.38700
O 	O 	0.70308 0.55549 0.66516 -0.46000
O 	O 	0.77183 0.69597 0.61850 -0.45500
N 	N 	0.75403 0.54597 0.58715 -0.12700
C 	C 	0.68453 0.47107 0.58723 -0.01500
H 	H 	0.66293 0.44487 0.61017 0.03400
C 	C 	0.64353 0.43077 0.55577 0.01300
C 	C 	0.67683 0.46947 0.52277 -0.06100
H 	H 	0.65103 0.44297 0.50037 0.05300
C 	C 	0.74873 0.54787 0.52219 0.00500
C 	C 	0.78963 0.70867 0.41266 -0.01300
H 	H 	0.73783 0.69337 0.42387 0.05700
C 	C 	0.81293 0.75537 0.38051 -0.09500
C 	C 	0.69143 0.57627 0.69676 0.38700
O 	O 	0.11118 0.48093 0.99849 -0.46000
O 	O 	0.97070 0.40920 0.95183 -0.45500
N 	N 	0.12070 0.54140 0.92048 -0.12700
C 	C 	0.19560 0.54680 0.92056 -0.01500
H 	H 	0.22180 0.55140 0.94350 0.03400
C 	C 	0.23590 0.54610 0.88910 0.01300
C 	C 	0.19720 0.54070 0.85610 -0.06100
H 	H 	0.22370 0.54140 0.83370 0.05300
C 	C 	0.11880 0.53420 0.85552 0.00500
C 	C 	0.95800 0.41430 0.74599 -0.01400
H 	H 	0.97330 0.37780 0.75720 0.05700
C 	C 	0.91130 0.39090 0.71384 -0.09400
C 	C 	0.09040 0.44850 0.03009 0.38700
O 	O 	0.77785 0.81426 0.33182 -0.46000
O 	O 	0.63737 0.74253 0.28516 -0.45500
N 	N 	0.78737 0.87473 0.25381 -0.12700
C 	C 	0.86227 0.88013 0.25389 -0.01600
H 	H 	0.88847 0.88473 0.27683 0.03400
C 	C 	0.90257 0.87943 0.22243 0.01500
C 	C 	0.86387 0.87403 0.18943 -0.06200
H 	H 	0.89037 0.87473 0.16703 0.05300
C 	C 	0.78547 0.86753 0.18885 0.00700
C 	C 	0.62467 0.74763 0.07932 -0.01300
H 	H 	0.63997 0.71113 0.09053 0.05700
C 	C 	0.57797 0.72423 0.04717 -0.09500
C 	C 	0.75707 0.78183 0.36342 0.38700
O 	O 	0.44451 0.14760 0.66516 -0.46000
O 	O 	0.30403 0.07587 0.61850 -0.45500
N 	N 	0.45403 0.20807 0.58715 -0.12700
C 	C 	0.52893 0.21347 0.58723 -0.01400
H 	H 	0.55513 0.21807 0.61017 0.03400
C 	C 	0.56923 0.21277 0.55577 0.01300
C 	C 	0.53053 0.20737 0.52277 -0.06100
H 	H 	0.55703 0.20807 0.50037 0.05300
C 	C 	0.45213 0.20087 0.52219 0.00500
C 	C 	0.29133 0.08097 0.41266 -0.01300
H 	H 	0.30663 0.04447 0.42387 0.05700
C 	C 	0.24463 0.05757 0.38051 -0.09500
C 	C 	0.42373 0.11517 0.69676 0.38700
O 	O 	0.63025 0.51907 0.00151 -0.46000
O 	O 	0.56150 0.59080 0.04817 -0.45500
N 	N 	0.57930 0.45860 0.07952 -0.12700
C 	C 	0.64880 0.45320 0.07944 -0.01500
H 	H 	0.67040 0.44860 0.05650 0.03400
C 	C 	0.68980 0.45390 0.11090 0.01300
C 	C 	0.65650 0.45930 0.14390 -0.06100
H 	H 	0.68230 0.45860 0.16630 0.05300
C 	C 	0.58460 0.46580 0.14448 0.00500
C 	C 	0.54370 0.58570 0.25401 -0.01300
H 	H 	0.59550 0.62220 0.24280 0.05700
C 	C 	0.52040 0.60910 0.28616 -0.09500
C 	C 	0.64190 0.55150 0.96991 0.38700
O 	O 	0.29692 0.85240 0.33484 -0.46000
O 	O 	0.22817 0.92413 0.38150 -0.45500
N 	N 	0.24597 0.79193 0.41285 -0.12700
C 	C 	0.31547 0.78653 0.41277 -0.01500
H 	H 	0.33707 0.78193 0.38983 0.03400
C 	C 	0.35647 0.78723 0.44423 0.01300
C 	C 	0.32317 0.79263 0.47723 -0.06100
H 	H 	0.34897 0.79193 0.49963 0.05300
C 	C 	0.25127 0.79913 0.47781 0.00500
C 	C 	0.21037 0.91903 0.58734 -0.01300
H 	H 	0.26217 0.95553 0.57613 0.05700
C 	C 	0.18707 0.94243 0.61949 -0.09500
C 	C 	0.30857 0.88483 0.30324 0.38700
O 	O 	0.96358 0.18574 0.66818 -0.46000
O 	O 	0.89483 0.25747 0.71484 -0.45500
N 	N 	0.91263 0.12527 0.74619 -0.12700
C 	C 	0.98213 0.11987 0.74611 -0.01300
H 	H 	0.00373 0.11527 0.72317 0.03300
C 	C 	0.02313 0.12057 0.77757 0.01100
C 	C 	0.98983 0.12597 0.81057 -0.05900
H 	H 	0.01563 0.12527 0.83297 0.05200
C 	C 	0.91793 0.13247 0.81115 0.00500
C 	C 	0.87703 0.25237 0.92068 -0.01300
H 	H 	0.92883 0.28887 0.90947 0.05700
C 	C 	0.85373 0.27577 0.95283 -0.09500
C 	C 	0.97523 0.21817 0.63658 0.38700
O 	O 	0.88882 0.36975 0.00151 -0.46000
O 	O 	0.02930 0.43850 0.04817 -0.45500
N 	N 	0.87930 0.42070 0.07952 -0.12700
C 	C 	0.80440 0.35120 0.07944 -0.01500
H 	H 	0.77820 0.32960 0.05650 0.03400
C 	C 	0.76410 0.31020 0.11090 0.01300
C 	C 	0.80280 0.34350 0.14390 -0.06100
H 	H 	0.77630 0.31770 0.16630 0.05300
C 	C 	0.88120 0.41540 0.14448 0.00500
C 	C 	0.04200 0.45630 0.25401 -0.01400
H 	H 	0.02670 0.40450 0.24280 0.05700
C 	C 	0.08870 0.47960 0.28616 -0.09400
C 	C 	0.90960 0.35810 0.96991 0.38700
O 	O 	0.55549 0.70308 0.33484 -0.46000
O 	O 	0.69597 0.77183 0.38150 -0.45500
N 	N 	0.54597 0.75403 0.41285 -0.12700
C 	C 	0.47107 0.68453 0.41277 -0.01500
H 	H 	0.44487 0.66293 0.38983 0.03400
C 	C 	0.43077 0.64353 0.44423 0.01300
C 	C 	0.46947 0.67683 0.47723 -0.06100
H 	H 	0.44297 0.65103 0.49963 0.05300
C 	C 	0.54787 0.74873 0.47781 0.00500
C 	C 	0.70867 0.78963 0.58734 -0.01300
H 	H 	0.69337 0.73783 0.57613 0.05700
C 	C 	0.75537 0.81293 0.61949 -0.09500
C 	C 	0.57627 0.69143 0.30324 0.38700
O 	O 	0.22215 0.03642 0.66818 -0.46000
O 	O 	0.36263 0.10517 0.71484 -0.45500
N 	N 	0.21263 0.08737 0.74619 -0.12800
C 	C 	0.13773 0.01787 0.74611 -0.01200
H 	H 	0.11153 0.99627 0.72317 0.03300
C 	C 	0.09743 0.97687 0.77757 0.01200
C 	C 	0.13613 0.01017 0.81057 -0.05800
H 	H 	0.10963 0.98437 0.83297 0.05200
C 	C 	0.21453 0.08207 0.81115 0.00300
C 	C 	0.37533 0.12297 0.92068 -0.01300
H 	H 	0.36003 0.07117 0.90947 0.05700
C 	C 	0.42203 0.14627 0.95283 -0.09500
C 	C 	0.24293 0.02477 0.63658 0.38700
O 	O 	0.48093 0.11118 0.00151 -0.46000
O 	O 	0.40920 0.97070 0.04817 -0.45500
N 	N 	0.54140 0.12070 0.07952 -0.12700
C 	C 	0.54680 0.19560 0.07944 -0.01500
H 	H 	0.55140 0.22180 0.05650 0.03400
C 	C 	0.54610 0.23590 0.11090 0.01300
C 	C 	0.54070 0.19720 0.14390 -0.06100
H 	H 	0.54140 0.22370 0.16630 0.05300
C 	C 	0.53420 0.11880 0.14448 0.00500
C 	C 	0.41430 0.95800 0.25401 -0.01400
H 	H 	0.37780 0.97330 0.24280 0.05700
C 	C 	0.39090 0.91130 0.28616 -0.09400
C 	C 	0.44850 0.09040 0.96991 0.38700
O 	O 	0.14760 0.44451 0.33484 -0.46000
O 	O 	0.07587 0.30403 0.38150 -0.45500
N 	N 	0.20807 0.45403 0.41285 -0.12700
C 	C 	0.21347 0.52893 0.41277 -0.01400
H 	H 	0.21807 0.55513 0.38983 0.03400
C 	C 	0.21277 0.56923 0.44423 0.01300
C 	C 	0.20737 0.53053 0.47723 -0.06100
H 	H 	0.20807 0.55703 0.49963 0.05300
C 	C 	0.20087 0.45213 0.47781 0.00500
C 	C 	0.08097 0.29133 0.58734 -0.01300
H 	H 	0.04447 0.30663 0.57613 0.05700
C 	C 	0.05757 0.24463 0.61949 -0.09500
C 	C 	0.11517 0.42373 0.30324 0.38700
O 	O 	0.81426 0.77785 0.66818 -0.46000
O 	O 	0.74253 0.63737 0.71484 -0.45500
N 	N 	0.87473 0.78737 0.74619 -0.12700
C 	C 	0.88013 0.86227 0.74611 -0.01600
H 	H 	0.88473 0.88847 0.72317 0.03400
C 	C 	0.87943 0.90257 0.77757 0.01500
C 	C 	0.87403 0.86387 0.81057 -0.06200
H 	H 	0.87473 0.89037 0.83297 0.05300
C 	C 	0.86753 0.78547 0.81115 0.00700
C 	C 	0.74763 0.62467 0.92068 -0.01300
H 	H 	0.71113 0.63997 0.90947 0.05700
C 	C 	0.72423 0.57797 0.95283 -0.09500
C 	C 	0.78183 0.75707 0.63658 0.38700
Zn	Zn	0.52704 0.47296 0.03266 1.22000
C 	C 	0.54138 0.45862 0.11148 0.05500
C 	C 	0.53625 0.46375 0.17826 -0.00900
C 	C 	0.51610 0.48390 0.20545 -0.01100
C 	C 	0.49110 0.50890 0.23814 0.01000
C 	C 	0.44509 0.55491 0.30231 0.04100
H 	H 	0.43030 0.56970 0.32480 0.04700
Zn	Zn	0.19371 0.80629 0.36599 1.22000
C 	C 	0.20805 0.79195 0.44481 0.05500
C 	C 	0.20292 0.79708 0.51159 -0.00900
C 	C 	0.18277 0.81723 0.53878 -0.01100
C 	C 	0.15777 0.84223 0.57147 0.00900
C 	C 	0.11176 0.88824 0.63564 0.04100
H 	H 	0.09697 0.90303 0.65813 0.04700
Zn	Zn	0.86037 0.13963 0.69932 1.22000
C 	C 	0.87472 0.12528 0.77815 0.05500
C 	C 	0.86958 0.13042 0.84493 -0.00800
C 	C 	0.84943 0.15057 0.87212 -0.01100
C 	C 	0.82443 0.17557 0.90481 0.01000
C 	C 	0.77842 0.22158 0.96898 0.04100
H 	H 	0.76363 0.23637 0.99147 0.04700
Zn	Zn	0.52704 0.05408 0.03266 1.22000
C 	C 	0.54138 0.08277 0.11148 0.05500
C 	C 	0.53625 0.07250 0.17826 -0.00900
C 	C 	0.51610 0.03220 0.20545 -0.01200
C 	C 	0.49110 0.98220 0.23814 0.01000
C 	C 	0.44509 0.89018 0.30231 0.04100
H 	H 	0.43030 0.86060 0.32480 0.04700
Zn	Zn	0.19371 0.38741 0.36599 1.22000
C 	C 	0.20805 0.41610 0.44481 0.05500
C 	C 	0.20292 0.40583 0.51159 -0.00900
C 	C 	0.18277 0.36553 0.53878 -0.01100
C 	C 	0.15777 0.31553 0.57147 0.01000
C 	C 	0.11176 0.22351 0.63564 0.04100
H 	H 	0.09697 0.19393 0.65813 0.04700
Zn	Zn	0.86037 0.72075 0.69932 1.22000
C 	C 	0.87472 0.74944 0.77815 0.05500
C 	C 	0.86958 0.73917 0.84493 -0.00900
C 	C 	0.84943 0.69887 0.87212 -0.01100
C 	C 	0.82443 0.64887 0.90481 0.01000
C 	C 	0.77842 0.55685 0.96898 0.04100
H 	H 	0.76363 0.52727 0.99147 0.04700
Zn	Zn	0.94592 0.47296 0.03266 1.22000
C 	C 	0.91723 0.45862 0.11148 0.05500
C 	C 	0.92750 0.46375 0.17826 -0.00900
C 	C 	0.96780 0.48390 0.20545 -0.01200
C 	C 	0.01780 0.50890 0.23814 0.01000
C 	C 	0.10982 0.55491 0.30231 0.04100
H 	H 	0.13940 0.56970 0.32480 0.04700
Zn	Zn	0.61259 0.80629 0.36599 1.22000
C 	C 	0.58390 0.79195 0.44481 0.05500
C 	C 	0.59417 0.79708 0.51159 -0.00900
C 	C 	0.63447 0.81723 0.53878 -0.01100
C 	C 	0.68447 0.84223 0.57147 0.01000
C 	C 	0.77649 0.88824 0.63564 0.04100
H 	H 	0.80607 0.90303 0.65813 0.04700
Zn	Zn	0.27925 0.13963 0.69932 1.22000
C 	C 	0.25056 0.12528 0.77815 0.05500
C 	C 	0.26083 0.13042 0.84493 -0.00900
C 	C 	0.30113 0.15057 0.87212 -0.01100
C 	C 	0.35113 0.17557 0.90481 0.01000
C 	C 	0.44315 0.22158 0.96898 0.04100
H 	H 	0.47273 0.23637 0.99147 0.04700
Zn	Zn	0.47296 0.52704 0.96734 1.22000
C 	C 	0.45862 0.54138 0.88852 0.05500
C 	C 	0.46375 0.53625 0.82174 -0.00900
C 	C 	0.48390 0.51610 0.79455 -0.01100
C 	C 	0.50890 0.49110 0.76186 0.01000
C 	C 	0.55491 0.44509 0.69769 0.04100
H 	H 	0.56970 0.43030 0.67520 0.04700
Zn	Zn	0.13963 0.86037 0.30068 1.22000
C 	C 	0.12528 0.87472 0.22185 0.05500
C 	C 	0.13042 0.86958 0.15507 -0.00800
C 	C 	0.15057 0.84943 0.12788 -0.01100
C 	C 	0.17557 0.82443 0.09519 0.01000
C 	C 	0.22158 0.77842 0.03102 0.04100
H 	H 	0.23637 0.76363 0.00853 0.04700
Zn	Zn	0.80629 0.19371 0.63401 1.22000
C 	C 	0.79195 0.20805 0.55519 0.05500
C 	C 	0.79708 0.20292 0.48841 -0.00900
C 	C 	0.81723 0.18277 0.46122 -0.01100
C 	C 	0.84223 0.15777 0.42853 0.00900
C 	C 	0.88824 0.11176 0.36436 0.04100
H 	H 	0.90303 0.09697 0.34187 0.04700
Zn	Zn	0.05408 0.52704 0.96734 1.22000
C 	C 	0.08277 0.54138 0.88852 0.05500
C 	C 	0.07250 0.53625 0.82174 -0.00900
C 	C 	0.03220 0.51610 0.79455 -0.01200
C 	C 	0.98220 0.49110 0.76186 0.01000
C 	C 	0.89018 0.44509 0.69769 0.04100
H 	H 	0.86060 0.43030 0.67520 0.04700
Zn	Zn	0.72075 0.86037 0.30068 1.22000
C 	C 	0.74944 0.87472 0.22185 0.05500
C 	C 	0.73917 0.86958 0.15507 -0.00900
C 	C 	0.69887 0.84943 0.12788 -0.01100
C 	C 	0.64887 0.82443 0.09519 0.01000
C 	C 	0.55685 0.77842 0.03102 0.04100
H 	H 	0.52727 0.76363 0.00853 0.04700
Zn	Zn	0.38741 0.19371 0.63401 1.22000
C 	C 	0.41610 0.20805 0.55519 0.05500
C 	C 	0.40583 0.20292 0.48841 -0.00900
C 	C 	0.36553 0.18277 0.46122 -0.01100
C 	C 	0.31553 0.15777 0.42853 0.01000
C 	C 	0.22351 0.11176 0.36436 0.04100
H 	H 	0.19393 0.09697 0.34187 0.04700
Zn	Zn	0.47296 0.94592 0.96734 1.22000
C 	C 	0.45862 0.91723 0.88852 0.05500
C 	C 	0.46375 0.92750 0.82174 -0.00900
C 	C 	0.48390 0.96780 0.79455 -0.01200
C 	C 	0.50890 0.01780 0.76186 0.01000
C 	C 	0.55491 0.10982 0.69769 0.04100
H 	H 	0.56970 0.13940 0.67520 0.04700
Zn	Zn	0.13963 0.27925 0.30068 1.22000
C 	C 	0.12528 0.25056 0.22185 0.05500
C 	C 	0.13042 0.26083 0.15507 -0.00900
C 	C 	0.15057 0.30113 0.12788 -0.01100
C 	C 	0.17557 0.35113 0.09519 0.01000
C 	C 	0.22158 0.44315 0.03102 0.04100
H 	H 	0.23637 0.47273 0.00853 0.04700
Zn	Zn	0.80629 0.61259 0.63401 1.22000
C 	C 	0.79195 0.58390 0.55519 0.05500
C 	C 	0.79708 0.59417 0.48841 -0.00900
C 	C 	0.81723 0.63447 0.46122 -0.01100
C 	C 	0.84223 0.68447 0.42853 0.01000
C 	C 	0.88824 0.77649 0.36436 0.04100
H 	H 	0.90303 0.80607 0.34187 0.04700
