data_crystal

_cell_length_a 21.71300
_cell_length_b 21.71300
_cell_length_c 21.71300
_cell_angle_alpha 90.00000
_cell_angle_beta  90.00000
_cell_angle_gamma 90.00000

_symmetry_space_group_name_	'P 1'
_symmetry_space_group_name_H-M	'P 1'

loop_
_symmetry_equiv_pos_as_xyz
  x,y,z

loop_
_atom_site_label
_atom_site_type_symbol
_atom_site_fract_x
_atom_site_fract_y
_atom_site_fract_z
_atom_site_charge
Eu	Eu	0.00000 0.00000 0.12945 1.61900
Eu	Eu	0.00000 0.50000 0.62945 1.99900
Eu	Eu	0.50000 0.00000 0.62945 1.99900
Eu	Eu	0.50000 0.50000 0.12945 2.32500
Eu	Eu	0.00000 0.00000 0.87055 1.63900
Eu	Eu	-0.00000 0.50000 0.37055 1.98700
Eu	Eu	0.50000 0.00000 0.37055 1.98600
Eu	Eu	0.50000 0.50000 0.87055 2.33700
Eu	Eu	0.12945 0.00000 -0.00000 1.61800
Eu	Eu	0.12945 0.50000 0.50000 2.32400
Eu	Eu	0.62945 0.00000 0.50000 1.99800
Eu	Eu	0.62945 0.50000 -0.00000 1.99800
Eu	Eu	0.87055 0.00000 -0.00000 1.63800
Eu	Eu	0.87055 0.50000 0.50000 2.33700
Eu	Eu	0.37055 0.00000 0.50000 1.98600
Eu	Eu	0.37055 0.50000 -0.00000 1.98600
Eu	Eu	0.00000 0.12945 -0.00000 1.61800
Eu	Eu	0.00000 0.62945 0.50000 1.99800
Eu	Eu	0.50000 0.12945 0.50000 2.32400
Eu	Eu	0.50000 0.62945 -0.00000 1.99800
Eu	Eu	-0.00000 0.87055 -0.00000 1.63800
Eu	Eu	-0.00000 0.37055 0.50000 1.98600
Eu	Eu	0.50000 0.87055 0.50000 2.33700
Eu	Eu	0.50000 0.37055 -0.00000 1.98600
O 	O 	0.05889 0.05889 0.05889 -0.65600
O 	O 	0.05889 0.55889 0.55889 -0.72900
O 	O 	0.55889 0.05889 0.55889 -0.72900
O 	O 	0.55889 0.55889 0.05889 -0.72900
O 	O 	0.94111 0.94111 0.05889 -0.40900
O 	O 	0.94111 0.44111 0.55889 -0.60200
O 	O 	0.44111 0.94111 0.55889 -0.60200
O 	O 	0.44111 0.44111 0.05889 -0.72800
O 	O 	0.94111 0.05889 0.94111 -0.40900
O 	O 	0.94111 0.55889 0.44111 -0.60200
O 	O 	0.44111 0.05889 0.44111 -0.72800
O 	O 	0.44111 0.55889 0.94111 -0.60200
O 	O 	0.05889 0.94111 0.94111 -0.40900
O 	O 	0.05889 0.44111 0.44111 -0.72800
O 	O 	0.55889 0.94111 0.44111 -0.60200
O 	O 	0.55889 0.44111 0.94111 -0.60200
O 	O 	0.05889 0.05889 0.94111 -0.53000
O 	O 	0.05889 0.55889 0.44111 -0.72800
O 	O 	0.55889 0.05889 0.44111 -0.72800
O 	O 	0.55889 0.55889 0.94111 -0.60300
O 	O 	0.94111 0.94111 0.94111 -0.29200
O 	O 	0.94111 0.44111 0.44111 -0.60100
O 	O 	0.44111 0.94111 0.44111 -0.60100
O 	O 	0.44111 0.44111 0.94111 -0.60100
O 	O 	0.05889 0.94111 0.05889 -0.53000
O 	O 	0.05889 0.44111 0.55889 -0.72800
O 	O 	0.55889 0.94111 0.55889 -0.60300
O 	O 	0.55889 0.44111 0.05889 -0.72800
O 	O 	0.94111 0.05889 0.05889 -0.53000
O 	O 	0.94111 0.55889 0.55889 -0.60300
O 	O 	0.44111 0.05889 0.55889 -0.72800
O 	O 	0.44111 0.55889 0.05889 -0.72800
O 	O 	-0.00000 0.90081 0.17422 -0.37300
N 	N 	-0.00000 0.87260 0.26250 -0.05500
C 	C 	0.00000 0.81020 0.26530 0.07700
O 	O 	-0.00000 0.40081 0.67422 -0.49800
N 	N 	0.00000 0.37260 0.76250 -0.09000
C 	C 	0.00000 0.31020 0.76530 0.08900
O 	O 	0.50000 0.90081 0.67422 -0.37800
N 	N 	0.50000 0.87260 0.76250 -0.01500
C 	C 	0.50000 0.81020 0.76530 0.11800
O 	O 	0.50000 0.40081 0.17422 -0.49100
N 	N 	0.50000 0.37260 0.26250 -0.08000
C 	C 	0.50000 0.31020 0.26530 0.08900
O 	O 	0.00000 0.09919 0.17422 -0.45700
N 	N 	0.00000 0.12740 0.26250 -0.11000
C 	C 	0.00000 0.18980 0.26530 0.06300
O 	O 	-0.00000 0.59919 0.67422 -0.49700
N 	N 	0.00000 0.62740 0.76250 -0.08900
C 	C 	0.00000 0.68980 0.76530 0.09500
O 	O 	0.50000 0.09919 0.67422 -0.46300
N 	N 	0.50000 0.12740 0.76250 -0.07000
C 	C 	0.50000 0.18980 0.76530 0.10500
O 	O 	0.50000 0.59919 0.17422 -0.49000
N 	N 	0.50000 0.62740 0.26250 -0.07900
C 	C 	0.50000 0.68980 0.26530 0.09600
O 	O 	0.00000 0.90081 0.82578 -0.36500
N 	N 	0.00000 0.87260 0.73750 -0.05200
C 	C 	0.00000 0.81020 0.73470 0.07700
O 	O 	0.00000 0.40081 0.32578 -0.50200
N 	N 	0.00000 0.37260 0.23750 -0.10900
C 	C 	0.00000 0.31020 0.23470 0.06900
O 	O 	0.50000 0.90081 0.32578 -0.38100
N 	N 	0.50000 0.87260 0.23750 -0.03400
C 	C 	0.50000 0.81020 0.23470 0.09800
O 	O 	0.50000 0.40081 0.82578 -0.48200
N 	N 	0.50000 0.37260 0.73750 -0.07600
C 	C 	0.50000 0.31020 0.73470 0.08900
O 	O 	0.00000 0.09919 0.82578 -0.44900
N 	N 	0.00000 0.12740 0.73750 -0.10600
C 	C 	-0.00000 0.18980 0.73470 0.06400
O 	O 	0.00000 0.59919 0.32578 -0.50200
N 	N 	0.00000 0.62740 0.23750 -0.10800
C 	C 	-0.00000 0.68980 0.23470 0.07600
O 	O 	0.50000 0.09919 0.32578 -0.46700
N 	N 	0.50000 0.12740 0.23750 -0.08900
C 	C 	0.50000 0.18980 0.23470 0.08500
O 	O 	0.50000 0.59919 0.82578 -0.48100
N 	N 	0.50000 0.62740 0.73750 -0.07500
C 	C 	0.50000 0.68980 0.73470 0.09600
O 	O 	0.17422 0.00000 0.90081 -0.37300
N 	N 	0.26250 0.00000 0.87260 -0.05500
C 	C 	0.26530 -0.00000 0.81020 0.07700
O 	O 	0.17422 0.50000 0.40081 -0.49100
N 	N 	0.26250 0.50000 0.37260 -0.08000
C 	C 	0.26530 0.50000 0.31020 0.08900
O 	O 	0.67422 0.00000 0.40081 -0.49800
N 	N 	0.76250 -0.00000 0.37260 -0.09000
C 	C 	0.76530 0.00000 0.31020 0.08900
O 	O 	0.67422 0.50000 0.90081 -0.37800
N 	N 	0.76250 0.50000 0.87260 -0.01500
C 	C 	0.76530 0.50000 0.81020 0.11800
O 	O 	0.17422 0.00000 0.09919 -0.45700
N 	N 	0.26250 0.00000 0.12740 -0.11000
C 	C 	0.26530 0.00000 0.18980 0.06300
O 	O 	0.17422 0.50000 0.59919 -0.49000
N 	N 	0.26250 0.50000 0.62740 -0.07900
C 	C 	0.26530 0.50000 0.68980 0.09600
O 	O 	0.67422 0.00000 0.59919 -0.49700
N 	N 	0.76250 0.00000 0.62740 -0.08900
C 	C 	0.76530 0.00000 0.68980 0.09500
O 	O 	0.67422 0.50000 0.09919 -0.46300
N 	N 	0.76250 0.50000 0.12740 -0.07000
C 	C 	0.76530 0.50000 0.18980 0.10500
O 	O 	0.82578 0.00000 0.90081 -0.36500
N 	N 	0.73750 0.00000 0.87260 -0.05200
C 	C 	0.73470 -0.00000 0.81020 0.07700
O 	O 	0.82578 0.50000 0.40081 -0.48200
N 	N 	0.73750 0.50000 0.37260 -0.07600
C 	C 	0.73470 0.50000 0.31020 0.08900
O 	O 	0.32578 0.00000 0.40081 -0.50200
N 	N 	0.23750 -0.00000 0.37260 -0.10900
C 	C 	0.23470 0.00000 0.31020 0.06900
O 	O 	0.32578 0.50000 0.90081 -0.38100
N 	N 	0.23750 0.50000 0.87260 -0.03400
C 	C 	0.23470 0.50000 0.81020 0.09800
O 	O 	0.82578 0.00000 0.09919 -0.44900
N 	N 	0.73750 0.00000 0.12740 -0.10600
C 	C 	0.73470 0.00000 0.18980 0.06400
O 	O 	0.82578 0.50000 0.59919 -0.48100
N 	N 	0.73750 0.50000 0.62740 -0.07500
C 	C 	0.73470 0.50000 0.68980 0.09600
O 	O 	0.32578 0.00000 0.59919 -0.50200
N 	N 	0.23750 0.00000 0.62740 -0.10800
C 	C 	0.23470 0.00000 0.68980 0.07600
O 	O 	0.32578 0.50000 0.09919 -0.46700
N 	N 	0.23750 0.50000 0.12740 -0.08900
C 	C 	0.23470 0.50000 0.18980 0.08500
O 	O 	0.90081 0.17422 -0.00000 -0.37300
N 	N 	0.87260 0.26250 -0.00000 -0.05500
C 	C 	0.81020 0.26530 -0.00000 0.07700
O 	O 	0.90081 0.67422 0.50000 -0.37800
N 	N 	0.87260 0.76250 0.50000 -0.01500
C 	C 	0.81020 0.76530 0.50000 0.11800
O 	O 	0.40081 0.17422 0.50000 -0.49100
N 	N 	0.37260 0.26250 0.50000 -0.08000
C 	C 	0.31020 0.26530 0.50000 0.08900
O 	O 	0.40081 0.67422 -0.00000 -0.49800
N 	N 	0.37260 0.76250 -0.00000 -0.09000
C 	C 	0.31020 0.76530 -0.00000 0.08900
O 	O 	0.09919 0.17422 -0.00000 -0.45700
N 	N 	0.12740 0.26250 -0.00000 -0.11000
C 	C 	0.18980 0.26530 -0.00000 0.06300
O 	O 	0.09919 0.67422 0.50000 -0.46300
N 	N 	0.12740 0.76250 0.50000 -0.07000
C 	C 	0.18980 0.76530 0.50000 0.10500
O 	O 	0.59919 0.17422 0.50000 -0.49000
N 	N 	0.62740 0.26250 0.50000 -0.07900
C 	C 	0.68980 0.26530 0.50000 0.09600
O 	O 	0.59919 0.67422 -0.00000 -0.49700
N 	N 	0.62740 0.76250 -0.00000 -0.08900
C 	C 	0.68980 0.76530 -0.00000 0.09500
O 	O 	0.90081 0.82578 -0.00000 -0.36500
N 	N 	0.87260 0.73750 -0.00000 -0.05200
C 	C 	0.81020 0.73470 -0.00000 0.07700
O 	O 	0.90081 0.32578 0.50000 -0.38100
N 	N 	0.87260 0.23750 0.50000 -0.03400
C 	C 	0.81020 0.23470 0.50000 0.09800
O 	O 	0.40081 0.82578 0.50000 -0.48200
N 	N 	0.37260 0.73750 0.50000 -0.07600
C 	C 	0.31020 0.73470 0.50000 0.08900
O 	O 	0.40081 0.32578 -0.00000 -0.50200
N 	N 	0.37260 0.23750 -0.00000 -0.10900
C 	C 	0.31020 0.23470 -0.00000 0.06900
O 	O 	0.09919 0.82578 -0.00000 -0.44900
N 	N 	0.12740 0.73750 -0.00000 -0.10600
C 	C 	0.18980 0.73470 -0.00000 0.06400
O 	O 	0.09919 0.32578 0.50000 -0.46700
N 	N 	0.12740 0.23750 0.50000 -0.08900
C 	C 	0.18980 0.23470 0.50000 0.08500
O 	O 	0.59919 0.82578 0.50000 -0.48100
N 	N 	0.62740 0.73750 0.50000 -0.07500
C 	C 	0.68980 0.73470 0.50000 0.09600
O 	O 	0.59919 0.32578 -0.00000 -0.50200
N 	N 	0.62740 0.23750 -0.00000 -0.10800
C 	C 	0.68980 0.23470 -0.00000 0.07600
O 	O 	0.90081 0.00000 0.82578 -0.36500
N 	N 	0.87260 0.00000 0.73750 -0.05200
C 	C 	0.81020 0.00000 0.73470 0.07700
O 	O 	0.90081 0.50000 0.32578 -0.38100
N 	N 	0.87260 0.50000 0.23750 -0.03400
C 	C 	0.81020 0.50000 0.23470 0.09800
O 	O 	0.40081 0.00000 0.32578 -0.50200
N 	N 	0.37260 0.00000 0.23750 -0.10900
C 	C 	0.31020 0.00000 0.23470 0.06900
O 	O 	0.40081 0.50000 0.82578 -0.48200
N 	N 	0.37260 0.50000 0.73750 -0.07600
C 	C 	0.31020 0.50000 0.73470 0.08900
O 	O 	0.09919 0.00000 0.82578 -0.44900
N 	N 	0.12740 0.00000 0.73750 -0.10600
C 	C 	0.18980 0.00000 0.73470 0.06400
O 	O 	0.09919 0.50000 0.32578 -0.46700
N 	N 	0.12740 0.50000 0.23750 -0.08900
C 	C 	0.18980 0.50000 0.23470 0.08500
O 	O 	0.59919 0.00000 0.32578 -0.50200
N 	N 	0.62740 0.00000 0.23750 -0.10800
C 	C 	0.68980 0.00000 0.23470 0.07600
O 	O 	0.59919 0.50000 0.82578 -0.48100
N 	N 	0.62740 0.50000 0.73750 -0.07500
C 	C 	0.68980 0.50000 0.73470 0.09600
O 	O 	0.90081 0.00000 0.17422 -0.37300
N 	N 	0.87260 0.00000 0.26250 -0.05500
C 	C 	0.81020 0.00000 0.26530 0.07700
O 	O 	0.90081 0.50000 0.67422 -0.37800
N 	N 	0.87260 0.50000 0.76250 -0.01500
C 	C 	0.81020 0.50000 0.76530 0.11800
O 	O 	0.40081 0.00000 0.67422 -0.49800
N 	N 	0.37260 0.00000 0.76250 -0.09000
C 	C 	0.31020 0.00000 0.76530 0.08900
O 	O 	0.40081 0.50000 0.17422 -0.49100
N 	N 	0.37260 0.50000 0.26250 -0.08000
C 	C 	0.31020 0.50000 0.26530 0.08900
O 	O 	0.09919 0.00000 0.17422 -0.45700
N 	N 	0.12740 0.00000 0.26250 -0.11000
C 	C 	0.18980 0.00000 0.26530 0.06300
O 	O 	0.09919 0.50000 0.67422 -0.46300
N 	N 	0.12740 0.50000 0.76250 -0.07000
C 	C 	0.18980 0.50000 0.76530 0.10500
O 	O 	0.59919 0.00000 0.67422 -0.49700
N 	N 	0.62740 0.00000 0.76250 -0.08900
C 	C 	0.68980 0.00000 0.76530 0.09500
O 	O 	0.59919 0.50000 0.17422 -0.49000
N 	N 	0.62740 0.50000 0.26250 -0.07900
C 	C 	0.68980 0.50000 0.26530 0.09600
O 	O 	0.00000 0.17422 0.09919 -0.45700
N 	N 	0.00000 0.26250 0.12740 -0.11000
C 	C 	0.00000 0.26530 0.18980 0.06300
O 	O 	0.00000 0.67422 0.59919 -0.49700
N 	N 	0.00000 0.76250 0.62740 -0.08900
C 	C 	0.00000 0.76530 0.68980 0.09500
O 	O 	0.50000 0.17422 0.59919 -0.49000
N 	N 	0.50000 0.26250 0.62740 -0.07900
C 	C 	0.50000 0.26530 0.68980 0.09600
O 	O 	0.50000 0.67422 0.09919 -0.46300
N 	N 	0.50000 0.76250 0.12740 -0.07000
C 	C 	0.50000 0.76530 0.18980 0.10500
O 	O 	-0.00000 0.17422 0.90081 -0.37300
N 	N 	-0.00000 0.26250 0.87260 -0.05500
C 	C 	0.00000 0.26530 0.81020 0.07700
O 	O 	0.00000 0.67422 0.40081 -0.49800
N 	N 	0.00000 0.76250 0.37260 -0.09000
C 	C 	0.00000 0.76530 0.31020 0.08900
O 	O 	0.50000 0.17422 0.40081 -0.49100
N 	N 	0.50000 0.26250 0.37260 -0.08000
C 	C 	0.50000 0.26530 0.31020 0.08900
O 	O 	0.50000 0.67422 0.90081 -0.37800
N 	N 	0.50000 0.76250 0.87260 -0.01500
C 	C 	0.50000 0.76530 0.81020 0.11800
O 	O 	0.00000 0.82578 0.09919 -0.44900
N 	N 	0.00000 0.73750 0.12740 -0.10600
C 	C 	-0.00000 0.73470 0.18980 0.06400
O 	O 	0.00000 0.32578 0.59919 -0.50200
N 	N 	0.00000 0.23750 0.62740 -0.10800
C 	C 	-0.00000 0.23470 0.68980 0.07600
O 	O 	0.50000 0.82578 0.59919 -0.48100
N 	N 	0.50000 0.73750 0.62740 -0.07500
C 	C 	0.50000 0.73470 0.68980 0.09600
O 	O 	0.50000 0.32578 0.09919 -0.46700
N 	N 	0.50000 0.23750 0.12740 -0.08900
C 	C 	0.50000 0.23470 0.18980 0.08500
O 	O 	0.00000 0.82578 0.90081 -0.36500
N 	N 	0.00000 0.73750 0.87260 -0.05200
C 	C 	0.00000 0.73470 0.81020 0.07700
O 	O 	0.00000 0.32578 0.40081 -0.50200
N 	N 	0.00000 0.23750 0.37260 -0.10900
C 	C 	0.00000 0.23470 0.31020 0.06900
O 	O 	0.50000 0.82578 0.40081 -0.48200
N 	N 	0.50000 0.73750 0.37260 -0.07600
C 	C 	0.50000 0.73470 0.31020 0.08900
O 	O 	0.50000 0.32578 0.90081 -0.38100
N 	N 	0.50000 0.23750 0.87260 -0.03400
C 	C 	0.50000 0.23470 0.81020 0.09800
O 	O 	0.17422 0.90081 -0.00000 -0.37300
N 	N 	0.26250 0.87260 -0.00000 -0.05500
C 	C 	0.26530 0.81020 -0.00000 0.07700
O 	O 	0.17422 0.40081 0.50000 -0.49100
N 	N 	0.26250 0.37260 0.50000 -0.08000
C 	C 	0.26530 0.31020 0.50000 0.08900
O 	O 	0.67422 0.90081 0.50000 -0.37800
N 	N 	0.76250 0.87260 0.50000 -0.01500
C 	C 	0.76530 0.81020 0.50000 0.11800
O 	O 	0.67422 0.40081 -0.00000 -0.49800
N 	N 	0.76250 0.37260 -0.00000 -0.09000
C 	C 	0.76530 0.31020 -0.00000 0.08900
O 	O 	0.17422 0.09919 -0.00000 -0.45700
N 	N 	0.26250 0.12740 -0.00000 -0.11000
C 	C 	0.26530 0.18980 -0.00000 0.06300
O 	O 	0.17422 0.59919 0.50000 -0.49000
N 	N 	0.26250 0.62740 0.50000 -0.07900
C 	C 	0.26530 0.68980 0.50000 0.09600
O 	O 	0.67422 0.09919 0.50000 -0.46300
N 	N 	0.76250 0.12740 0.50000 -0.07000
C 	C 	0.76530 0.18980 0.50000 0.10500
O 	O 	0.67422 0.59919 -0.00000 -0.49700
N 	N 	0.76250 0.62740 -0.00000 -0.08900
C 	C 	0.76530 0.68980 -0.00000 0.09500
O 	O 	0.82578 0.90081 -0.00000 -0.36500
N 	N 	0.73750 0.87260 -0.00000 -0.05200
C 	C 	0.73470 0.81020 -0.00000 0.07700
O 	O 	0.82578 0.40081 0.50000 -0.48200
N 	N 	0.73750 0.37260 0.50000 -0.07600
C 	C 	0.73470 0.31020 0.50000 0.08900
O 	O 	0.32578 0.90081 0.50000 -0.38100
N 	N 	0.23750 0.87260 0.50000 -0.03400
C 	C 	0.23470 0.81020 0.50000 0.09800
O 	O 	0.32578 0.40081 -0.00000 -0.50200
N 	N 	0.23750 0.37260 -0.00000 -0.10900
C 	C 	0.23470 0.31020 -0.00000 0.06900
O 	O 	0.82578 0.09919 -0.00000 -0.44900
N 	N 	0.73750 0.12740 -0.00000 -0.10600
C 	C 	0.73470 0.18980 -0.00000 0.06400
O 	O 	0.82578 0.59919 0.50000 -0.48100
N 	N 	0.73750 0.62740 0.50000 -0.07500
C 	C 	0.73470 0.68980 0.50000 0.09600
O 	O 	0.32578 0.09919 0.50000 -0.46700
N 	N 	0.23750 0.12740 0.50000 -0.08900
C 	C 	0.23470 0.18980 0.50000 0.08500
O 	O 	0.32578 0.59919 -0.00000 -0.50200
N 	N 	0.23750 0.62740 -0.00000 -0.10800
C 	C 	0.23470 0.68980 -0.00000 0.07600
C 	C 	0.00000 0.84490 0.15510 0.41100
C 	C 	0.00000 0.79580 0.20420 -0.12300
C 	C 	0.00000 0.34490 0.65510 0.44400
C 	C 	0.00000 0.29580 0.70420 -0.15300
C 	C 	0.50000 0.84490 0.65510 0.46100
C 	C 	0.50000 0.79580 0.70420 -0.12700
C 	C 	0.50000 0.34490 0.15510 0.46400
C 	C 	0.50000 0.29580 0.20420 -0.14100
C 	C 	0.00000 0.15510 0.15510 0.41700
C 	C 	0.00000 0.20420 0.20420 -0.13900
C 	C 	0.00000 0.65510 0.65510 0.44800
C 	C 	-0.00000 0.70420 0.70420 -0.15500
C 	C 	0.50000 0.15510 0.65510 0.46800
C 	C 	0.50000 0.20420 0.70420 -0.14300
C 	C 	0.50000 0.65510 0.15510 0.46800
C 	C 	0.50000 0.70420 0.20420 -0.14300
C 	C 	0.00000 0.84490 0.84490 0.40400
C 	C 	0.00000 0.79580 0.79580 -0.10700
C 	C 	-0.00000 0.34490 0.34490 0.44000
C 	C 	0.00000 0.29580 0.29580 -0.15100
C 	C 	0.50000 0.84490 0.34490 0.45700
C 	C 	0.50000 0.79580 0.29580 -0.12500
C 	C 	0.50000 0.34490 0.84490 0.45700
C 	C 	0.50000 0.29580 0.79580 -0.12500
C 	C 	0.00000 0.15510 0.84490 0.41100
C 	C 	0.00000 0.20420 0.79580 -0.12300
C 	C 	0.00000 0.65510 0.34490 0.44400
C 	C 	0.00000 0.70420 0.29580 -0.15300
C 	C 	0.50000 0.15510 0.34490 0.46400
C 	C 	0.50000 0.20420 0.29580 -0.14100
C 	C 	0.50000 0.65510 0.84490 0.46100
C 	C 	0.50000 0.70420 0.79580 -0.12700
C 	C 	0.15510 0.00000 0.84490 0.41100
C 	C 	0.20420 0.00000 0.79580 -0.12300
C 	C 	0.15510 0.50000 0.34490 0.46400
C 	C 	0.20420 0.50000 0.29580 -0.14100
C 	C 	0.65510 0.00000 0.34490 0.44400
C 	C 	0.70420 0.00000 0.29580 -0.15300
C 	C 	0.65510 0.50000 0.84490 0.46100
C 	C 	0.70420 0.50000 0.79580 -0.12700
C 	C 	0.15510 0.00000 0.15510 0.41700
C 	C 	0.20420 0.00000 0.20420 -0.13900
C 	C 	0.15510 0.50000 0.65510 0.46800
C 	C 	0.20420 0.50000 0.70420 -0.14300
C 	C 	0.65510 0.00000 0.65510 0.44800
C 	C 	0.70420 0.00000 0.70420 -0.15500
C 	C 	0.65510 0.50000 0.15510 0.46800
C 	C 	0.70420 0.50000 0.20420 -0.14300
C 	C 	0.84490 0.00000 0.84490 0.40400
C 	C 	0.79580 0.00000 0.79580 -0.10700
C 	C 	0.84490 0.50000 0.34490 0.45700
C 	C 	0.79580 0.50000 0.29580 -0.12500
C 	C 	0.34490 0.00000 0.34490 0.44000
C 	C 	0.29580 0.00000 0.29580 -0.15100
C 	C 	0.34490 0.50000 0.84490 0.45700
C 	C 	0.29580 0.50000 0.79580 -0.12500
C 	C 	0.84490 0.00000 0.15510 0.41100
C 	C 	0.79580 0.00000 0.20420 -0.12300
C 	C 	0.84490 0.50000 0.65510 0.46100
C 	C 	0.79580 0.50000 0.70420 -0.12700
C 	C 	0.34490 0.00000 0.65510 0.44400
C 	C 	0.29580 0.00000 0.70420 -0.15300
C 	C 	0.34490 0.50000 0.15510 0.46400
C 	C 	0.29580 0.50000 0.20420 -0.14100
C 	C 	0.84490 0.15510 -0.00000 0.41100
C 	C 	0.79580 0.20420 -0.00000 -0.12300
C 	C 	0.84490 0.65510 0.50000 0.46100
C 	C 	0.79580 0.70420 0.50000 -0.12700
C 	C 	0.34490 0.15510 0.50000 0.46400
C 	C 	0.29580 0.20420 0.50000 -0.14100
C 	C 	0.34490 0.65510 -0.00000 0.44400
C 	C 	0.29580 0.70420 -0.00000 -0.15300
C 	C 	0.15510 0.15510 -0.00000 0.41700
C 	C 	0.20420 0.20420 -0.00000 -0.13900
C 	C 	0.15510 0.65510 0.50000 0.46800
C 	C 	0.20420 0.70420 0.50000 -0.14300
C 	C 	0.65510 0.15510 0.50000 0.46800
C 	C 	0.70420 0.20420 0.50000 -0.14300
C 	C 	0.65510 0.65510 -0.00000 0.44800
C 	C 	0.70420 0.70420 -0.00000 -0.15500
C 	C 	0.84490 0.84490 -0.00000 0.40400
C 	C 	0.79580 0.79580 -0.00000 -0.10700
C 	C 	0.84490 0.34490 0.50000 0.45700
C 	C 	0.79580 0.29580 0.50000 -0.12500
C 	C 	0.34490 0.84490 0.50000 0.45700
C 	C 	0.29580 0.79580 0.50000 -0.12500
C 	C 	0.34490 0.34490 -0.00000 0.44000
C 	C 	0.29580 0.29580 -0.00000 -0.15100
C 	C 	0.15510 0.84490 -0.00000 0.41100
C 	C 	0.20420 0.79580 -0.00000 -0.12300
C 	C 	0.15510 0.34490 0.50000 0.46400
C 	C 	0.20420 0.29580 0.50000 -0.14100
C 	C 	0.65510 0.84490 0.50000 0.46100
C 	C 	0.70420 0.79580 0.50000 -0.12700
C 	C 	0.65510 0.34490 -0.00000 0.44400
C 	C 	0.70420 0.29580 -0.00000 -0.15300
