data_crystal

_cell_length_a 61.14920
_cell_length_b 15.50840
_cell_length_c 17.77000
_cell_angle_alpha 90.00000
_cell_angle_beta  95.66660
_cell_angle_gamma 90.00000

_symmetry_space_group_name_	'P 1'
_symmetry_space_group_name_H-M	'P 1'

loop_
_symmetry_equiv_pos_as_xyz
  x,y,z

loop_
_atom_site_label
_atom_site_type_symbol
_atom_site_fract_x
_atom_site_fract_y
_atom_site_fract_z
_atom_site_charge
Cu	Cu	0.15451 0.05627 0.52131 0.94400
Cu	Cu	0.29270 0.19371 0.63561 0.89200
O 	O 	0.13848 0.09700 0.42010 -0.19600
O 	O 	0.29820 0.13890 0.54008 -0.26800
O 	O 	0.17086 0.01790 0.62100 -0.14200
O 	O 	0.15147 0.18200 0.57570 -0.20300
O 	O 	0.16038 0.92630 0.47860 -0.23700
O 	O 	0.12716 0.01560 0.55620 -0.57100
O 	O 	0.28512 0.25790 0.72620 -0.24100
O 	O 	0.32721 0.19380 0.69190 -0.24100
O 	O 	0.01348 0.11130 0.47030 -0.21600
O 	O 	0.97427 0.01640 0.40820 -0.18900
O 	O 	0.02457 0.74550 0.19050 -0.22800
O 	O 	0.98638 0.64020 0.18070 -0.15200
N 	N 	0.01845 0.93450 0.42820 -0.19300
N 	N 	0.01829 0.83890 0.32520 -0.17700
N 	N 	0.11733 0.09990 0.40690 -0.20300
N 	N 	0.20347 0.19220 0.41690 -0.20500
N 	N 	0.18273 0.09230 0.47980 -0.19500
N 	N 	0.29994 0.05600 0.53220 -0.20500
C 	C 	0.04004 0.94800 0.42580 0.08900
H 	H 	0.04750 0.98570 0.46190 0.04200
C 	C 	0.00845 0.87970 0.37870 0.13600
H 	H 	0.99330 0.86880 0.38160 0.03000
C 	C 	0.03972 0.85370 0.32240 0.09100
H 	H 	0.04700 0.82540 0.28460 0.07300
C 	C 	0.05185 0.90910 0.37300 -0.04500
C 	C 	0.07549 0.92630 0.36600 0.20100
C 	C 	0.08492 0.00430 0.39020 -0.21100
H 	H 	0.07630 0.04620 0.41300 0.11600
C 	C 	0.10686 0.02140 0.38150 0.20800
C 	C 	0.11941 0.96050 0.34740 -0.17300
H 	H 	0.13430 0.97220 0.34070 0.18200
C 	C 	0.11011 0.88380 0.32340 0.15000
H 	H 	0.11870 0.84230 0.30020 0.10400
C 	C 	0.08837 0.86580 0.33270 -0.15500
H 	H 	0.08220 0.81190 0.31640 0.18700
C 	C 	0.10604 0.18530 0.41330 1.00000
C 	C 	0.08997 0.19880 0.34320 -1.40300
H 	H 	0.07870 0.15360 0.34050 0.51200
H 	H 	0.09790 0.19630 0.29790 0.49000
H 	H 	0.08290 0.25540 0.34590 0.53800
C 	C 	0.09511 0.18800 0.48740 -1.43700
H 	H 	0.08380 0.14330 0.48650 0.51400
H 	H 	0.08840 0.24470 0.49290 0.56400
H 	H 	0.10620 0.17780 0.53010 0.51900
C 	C 	0.12379 0.25520 0.41650 -1.34900
H 	H 	0.13100 0.25410 0.36960 0.48900
H 	H 	0.13470 0.24440 0.45960 0.44900
H 	H 	0.11700 0.31180 0.42230 0.47600
C 	C 	0.22100 0.14070 0.42730 0.09100
H 	H 	0.23410 0.15700 0.40650 0.02700
C 	C 	0.18479 0.16630 0.44350 0.17200
H 	H 	0.17230 0.20300 0.43610 -0.02900
C 	C 	0.20061 0.04170 0.49300 0.07100
H 	H 	0.19950 0.98940 0.52020 0.09000
C 	C 	0.22068 0.06380 0.46770 -0.04200
C 	C 	0.24091 0.01280 0.48570 0.15700
C 	C 	0.26094 0.05480 0.49850 -0.17700
H 	H 	0.26150 0.11580 0.49350 0.10300
C 	C 	0.28025 0.00890 0.51850 0.17200
C 	C 	0.27919 0.91920 0.52630 -0.16800
H 	H 	0.29210 0.88690 0.54100 0.12200
C 	C 	0.25933 0.87850 0.51250 0.16600
H 	H 	0.25880 0.81750 0.51700 0.08400
C 	C 	0.24016 0.92290 0.49240 -0.13800
H 	H 	0.22660 0.89300 0.48320 0.17800
C 	C 	0.32295 0.01870 0.53550 0.99600
C 	C 	0.32454 0.96530 0.46410 -1.46400
H 	H 	0.31450 0.91620 0.46390 0.53200
H 	H 	0.32060 0.00120 0.41950 0.52400
H 	H 	0.33960 0.94420 0.46320 0.58700
C 	C 	0.33894 0.09440 0.53510 -1.35200
H 	H 	0.33590 0.12720 0.48810 0.48100
H 	H 	0.33720 0.13210 0.57840 0.44100
H 	H 	0.35400 0.07260 0.53850 0.48000
C 	C 	0.32821 0.96870 0.60910 -1.39700
H 	H 	0.31790 0.92040 0.61090 0.50600
H 	H 	0.34330 0.94640 0.61150 0.54800
H 	H 	0.32680 0.00700 0.65220 0.49000
C 	C 	0.17870 0.99630 0.75010 1.19600
C 	C 	0.16951 0.05130 0.68520 -0.19200
C 	C 	0.16065 0.13130 0.70170 0.13300
H 	H 	0.15980 0.14610 0.75320 0.10100
C 	C 	0.15306 0.19020 0.64640 -0.13000
C 	C 	0.14626 0.27890 0.67280 1.17800
C 	C 	0.15498 0.78030 0.45660 0.92000
C 	C 	0.14826 0.86480 0.49140 0.29100
C 	C 	0.12988 0.86470 0.53280 -0.75500
H 	H 	0.12310 0.81100 0.54180 0.65100
C 	C 	0.12124 0.93790 0.56100 1.21800
C 	C 	0.10109 0.93010 0.60420 -1.88200
C 	C 	0.28161 0.29120 0.85130 0.54700
C 	C 	0.29529 0.25520 0.79160 0.19200
C 	C 	0.31625 0.22620 0.81310 -0.08000
H 	H 	0.32120 0.22510 0.86550 0.19500
C 	C 	0.33052 0.19860 0.76230 0.03600
C 	C 	0.35381 0.17270 0.79330 0.94800
C 	C 	0.02225 0.23180 0.40320 0.85200
C 	C 	0.00763 0.15470 0.41190 -0.00000
C 	C 	0.99018 0.14060 0.35730 0.05000
H 	H 	0.98840 0.17910 0.31550 0.13400
C 	C 	0.97515 0.07350 0.35970 -0.10000
C 	C 	0.95706 0.07050 0.29360 1.08500
C 	C 	0.05365 0.70190 0.12550 1.04500
C 	C 	0.03075 0.68450 0.14960 -0.01700
C 	C 	0.01960 0.61110 0.12650 0.03000
H 	H 	0.02660 0.57020 0.09720 0.19900
C 	C 	0.99832 0.59410 0.14450 0.05300
C 	C 	0.98740 0.50180 0.11010 1.26000
F 	F 	0.20163 0.99190 0.75150 -0.26600
F 	F 	0.17453 0.02000 0.81610 -0.76600
F 	F 	0.17290 0.92060 0.75380 -1.24000
F 	F 	0.19708 0.96040 0.73830 -0.18300
F 	F 	0.18145 0.04250 0.82040 0.22100
F 	F 	0.16460 0.92330 0.74950 0.72800
F 	F 	0.14270 0.27690 0.74300 -0.05100
F 	F 	0.13320 0.32270 0.62090 -0.06800
F 	F 	0.16500 0.32850 0.69640 -0.48000
F 	F 	0.14550 0.29330 0.74220 -0.07900
F 	F 	0.12130 0.26910 0.67850 -0.15100
F 	F 	0.15550 0.34200 0.64770 -0.59200
F 	F 	0.15640 0.29920 0.74330 -0.15800
F 	F 	0.16620 0.33150 0.66190 0.40300
F 	F 	0.12670 0.29890 0.63220 -0.27800
F 	F 	0.13330 0.28040 0.72840 -0.24900
F 	F 	0.14250 0.33870 0.62760 -0.07900
F 	F 	0.15969 0.79170 0.38560 -0.38300
F 	F 	0.16900 0.73850 0.49680 0.09100
F 	F 	0.14009 0.71480 0.46330 0.18500
F 	F 	0.15100 0.71170 0.49450 -0.49500
F 	F 	0.15050 0.77500 0.38630 -0.02500
F 	F 	0.17590 0.75440 0.48990 -0.47200
F 	F 	0.13840 0.73680 0.42340 -0.45800
F 	F 	0.17810 0.77260 0.46470 0.01400
F 	F 	0.10500 0.92230 0.67170 0.16300
F 	F 	0.08850 0.86180 0.58680 4.73400
F 	F 	0.08600 0.00070 0.58630 0.94500
F 	F 	0.08405 0.97350 0.57040 -1.38000
F 	F 	0.10650 0.95340 0.67760 -1.91700
F 	F 	0.09550 0.83740 0.60750 -9.43400
F 	F 	0.09780 0.85640 0.63490 6.46700
F 	F 	0.08350 0.94010 0.56410 0.13900
F 	F 	0.10250 0.98250 0.66710 1.44700
F 	F 	0.25975 0.26290 0.84110 -0.93200
F 	F 	0.28770 0.26420 0.92150 0.22700
F 	F 	0.28010 0.37450 0.85220 1.24700
F 	F 	0.20330 0.14570 0.10690 -0.42100
F 	F 	0.22820 0.13220 0.16980 -2.14700
F 	F 	0.22120 0.26830 0.09940 -0.62800
F 	F 	0.23420 0.16970 0.17230 1.13000
F 	F 	0.23520 0.26890 0.13730 0.50000
F 	F 	0.20780 0.19360 0.08050 -0.30500
F 	F 	0.35620 0.16740 0.86950 -0.39800
F 	F 	0.36630 0.14710 0.75300 -0.20600
F 	F 	0.36697 0.25360 0.78460 -0.18100
F 	F 	0.14080 0.30700 0.13480 0.07500
F 	F 	0.14180 0.40720 0.22770 0.16100
F 	F 	0.13080 0.28740 0.22760 -0.27600
F 	F 	0.14850 0.43070 0.20210 -0.35900
F 	F 	0.14290 0.36860 0.14460 -0.07800
F 	F 	0.13740 0.38820 0.25210 -0.28100
F 	F 	0.01800 0.29510 0.44600 -0.09300
F 	F 	0.02070 0.26340 0.33010 0.26700
F 	F 	0.04356 0.21660 0.42390 -0.56700
F 	F 	0.04293 0.20430 0.40080 0.10400
F 	F 	0.02100 0.28620 0.46540 -0.24200
F 	F 	0.01625 0.28080 0.34460 -0.65000
F 	F 	0.96317 0.08270 0.22710 -0.40900
F 	F 	0.94629 0.98470 0.29600 0.13300
F 	F 	0.94112 0.12330 0.30310 -0.50300
F 	F 	0.96781 0.05100 0.23060 -0.16500
F 	F 	0.94229 0.02050 0.29430 -0.72900
F 	F 	0.94670 0.15490 0.28620 -0.10000
F 	F 	0.05849 0.65100 0.06770 -0.23300
F 	F 	0.05742 0.77420 0.10580 -0.76600
F 	F 	0.06754 0.68610 0.19290 -0.11200
F 	F 	0.06200 0.63260 0.09380 -0.21800
F 	F 	0.05157 0.78120 0.08030 0.25800
F 	F 	0.06845 0.72040 0.17940 -0.31800
F 	F 	0.00430 0.44350 0.11580 -0.18300
F 	F 	0.97500 0.47600 0.16210 -0.24000
F 	F 	0.97600 0.51860 0.04860 -0.32000
F 	F 	0.98850 0.45510 0.18440 -0.17700
F 	F 	0.99870 0.46460 0.06990 -0.39200
F 	F 	0.96810 0.51020 0.10370 -0.35500
Cu	Cu	0.65451 0.55627 0.52131 0.94700
Cu	Cu	0.79270 0.69371 0.63561 0.89300
O 	O 	0.63848 0.59700 0.42010 -0.19300
O 	O 	0.79820 0.63890 0.54008 -0.26700
O 	O 	0.67086 0.51790 0.62100 -0.14100
O 	O 	0.65147 0.68200 0.57570 -0.20300
O 	O 	0.66038 0.42630 0.47860 -0.23800
O 	O 	0.62716 0.51560 0.55620 -0.55800
O 	O 	0.78512 0.75790 0.72620 -0.23900
O 	O 	0.82721 0.69380 0.69190 -0.24000
O 	O 	0.51348 0.61130 0.47030 -0.21300
O 	O 	0.47427 0.51640 0.40820 -0.18400
O 	O 	0.52457 0.24550 0.19050 -0.22700
O 	O 	0.48638 0.14020 0.18070 -0.15100
N 	N 	0.51845 0.43450 0.42820 -0.19400
N 	N 	0.51829 0.33890 0.32520 -0.17600
N 	N 	0.61733 0.59990 0.40690 -0.20300
N 	N 	0.70347 0.69220 0.41690 -0.20500
N 	N 	0.68273 0.59230 0.47980 -0.19700
N 	N 	0.79994 0.55600 0.53220 -0.21000
C 	C 	0.54004 0.44800 0.42580 0.08600
H 	H 	0.54750 0.48570 0.46190 0.04000
C 	C 	0.50845 0.37970 0.37870 0.13500
H 	H 	0.49330 0.36880 0.38160 0.02800
C 	C 	0.53972 0.35370 0.32240 0.08900
H 	H 	0.54700 0.32540 0.28460 0.07300
C 	C 	0.55185 0.40910 0.37300 -0.04300
C 	C 	0.57549 0.42630 0.36600 0.18900
C 	C 	0.58492 0.50430 0.39020 -0.20000
H 	H 	0.57630 0.54620 0.41300 0.11500
C 	C 	0.60686 0.52140 0.38150 0.21600
C 	C 	0.61941 0.46050 0.34740 -0.18600
H 	H 	0.63430 0.47220 0.34070 0.18400
C 	C 	0.61011 0.38380 0.32340 0.15200
H 	H 	0.61870 0.34230 0.30020 0.10300
C 	C 	0.58837 0.36580 0.33270 -0.15400
H 	H 	0.58220 0.31190 0.31640 0.18600
C 	C 	0.60604 0.68530 0.41330 1.00100
C 	C 	0.58997 0.69880 0.34320 -1.40300
H 	H 	0.57870 0.65360 0.34050 0.51200
H 	H 	0.59790 0.69630 0.29790 0.49000
H 	H 	0.58290 0.75540 0.34590 0.53800
C 	C 	0.59511 0.68800 0.48740 -1.43900
H 	H 	0.58380 0.64330 0.48650 0.51600
H 	H 	0.58840 0.74470 0.49290 0.56500
H 	H 	0.60620 0.67780 0.53010 0.52000
C 	C 	0.62379 0.75520 0.41650 -1.35000
H 	H 	0.63100 0.75410 0.36960 0.49000
H 	H 	0.63470 0.74440 0.45960 0.44900
H 	H 	0.61700 0.81180 0.42230 0.47600
C 	C 	0.72100 0.64070 0.42730 0.09700
H 	H 	0.73410 0.65700 0.40650 0.02500
C 	C 	0.68479 0.66630 0.44350 0.17400
H 	H 	0.67230 0.70300 0.43610 -0.02900
C 	C 	0.70061 0.54170 0.49300 0.09100
H 	H 	0.69950 0.48940 0.52020 0.07800
C 	C 	0.72068 0.56380 0.46770 -0.05400
C 	C 	0.74091 0.51280 0.48570 0.17900
C 	C 	0.76094 0.55480 0.49850 -0.19200
H 	H 	0.76150 0.61580 0.49350 0.10800
C 	C 	0.78025 0.50890 0.51850 0.18900
C 	C 	0.77919 0.41920 0.52630 -0.19000
H 	H 	0.79210 0.38690 0.54100 0.12800
C 	C 	0.75933 0.37850 0.51250 0.18500
H 	H 	0.75880 0.31750 0.51700 0.07700
C 	C 	0.74016 0.42290 0.49240 -0.16200
H 	H 	0.72660 0.39300 0.48320 0.18600
C 	C 	0.82295 0.51870 0.53550 1.02700
C 	C 	0.82454 0.46530 0.46410 -1.51200
H 	H 	0.81450 0.41620 0.46390 0.54400
H 	H 	0.82060 0.50120 0.41950 0.54100
H 	H 	0.83960 0.44420 0.46320 0.59900
C 	C 	0.83894 0.59440 0.53510 -1.37800
H 	H 	0.83590 0.62720 0.48810 0.48900
H 	H 	0.83720 0.63210 0.57840 0.44900
H 	H 	0.85400 0.57260 0.53850 0.48800
C 	C 	0.82821 0.46870 0.60910 -1.44200
H 	H 	0.81790 0.42040 0.61090 0.51800
H 	H 	0.84330 0.44640 0.61150 0.56000
H 	H 	0.82680 0.50700 0.65220 0.50600
C 	C 	0.67870 0.49630 0.75010 1.17100
C 	C 	0.66951 0.55130 0.68520 -0.17600
C 	C 	0.66065 0.63130 0.70170 0.12600
H 	H 	0.65980 0.64610 0.75320 0.10400
C 	C 	0.65306 0.69020 0.64640 -0.12600
C 	C 	0.64626 0.77890 0.67280 1.17600
C 	C 	0.65498 0.28030 0.45660 0.92200
C 	C 	0.64826 0.36480 0.49140 0.28600
C 	C 	0.62988 0.36470 0.53280 -0.74400
H 	H 	0.62310 0.31100 0.54180 0.64500
C 	C 	0.62124 0.43790 0.56100 1.19600
C 	C 	0.60109 0.43010 0.60420 -1.85900
C 	C 	0.78161 0.79120 0.85130 0.54600
C 	C 	0.79529 0.75520 0.79160 0.19300
C 	C 	0.81625 0.72620 0.81310 -0.08000
H 	H 	0.82120 0.72510 0.86550 0.19500
C 	C 	0.83052 0.69860 0.76230 0.03700
C 	C 	0.85381 0.67270 0.79330 0.94700
C 	C 	0.52225 0.73180 0.40320 0.85200
C 	C 	0.50763 0.65470 0.41190 0.00000
C 	C 	0.49018 0.64060 0.35730 0.04900
H 	H 	0.48840 0.67910 0.31550 0.13500
C 	C 	0.47515 0.57350 0.35970 -0.09600
C 	C 	0.45706 0.57050 0.29360 1.07700
C 	C 	0.55365 0.20190 0.12550 1.04500
C 	C 	0.53075 0.18450 0.14960 -0.01700
C 	C 	0.51960 0.11110 0.12650 0.03000
H 	H 	0.52660 0.07020 0.09720 0.19800
C 	C 	0.49832 0.09410 0.14450 0.05300
C 	C 	0.48740 0.00180 0.11010 1.25400
F 	F 	0.70163 0.49190 0.75150 -0.26800
F 	F 	0.67453 0.52000 0.81610 -0.74800
F 	F 	0.67290 0.42060 0.75380 -1.20700
F 	F 	0.69708 0.46040 0.73830 -0.18100
F 	F 	0.68145 0.54250 0.82040 0.21300
F 	F 	0.66460 0.42330 0.74950 0.69800
F 	F 	0.64270 0.77690 0.74300 -0.05100
F 	F 	0.63320 0.82270 0.62090 -0.06900
F 	F 	0.66500 0.82850 0.69640 -0.47700
F 	F 	0.64550 0.79330 0.74220 -0.07900
F 	F 	0.62130 0.76910 0.67850 -0.15000
F 	F 	0.65550 0.84200 0.64770 -0.59100
F 	F 	0.65640 0.79920 0.74330 -0.15800
F 	F 	0.66620 0.83150 0.66190 0.40000
F 	F 	0.62670 0.79890 0.63220 -0.27700
F 	F 	0.63330 0.78040 0.72840 -0.24900
F 	F 	0.64250 0.83870 0.62760 -0.07900
F 	F 	0.65969 0.29170 0.38560 -0.38400
F 	F 	0.66900 0.23850 0.49680 0.09100
F 	F 	0.64009 0.21480 0.46330 0.18500
F 	F 	0.65100 0.21170 0.49450 -0.49700
F 	F 	0.65050 0.27500 0.38630 -0.02400
F 	F 	0.67590 0.25440 0.48990 -0.47300
F 	F 	0.63840 0.23680 0.42340 -0.45900
F 	F 	0.67810 0.27260 0.46470 0.01400
F 	F 	0.60500 0.42230 0.67170 0.16500
F 	F 	0.58850 0.36180 0.58680 4.70500
F 	F 	0.58600 0.50070 0.58630 0.93200
F 	F 	0.58405 0.47350 0.57040 -1.34800
F 	F 	0.60650 0.45340 0.67760 -1.91200
F 	F 	0.59550 0.33740 0.60750 -9.37200
F 	F 	0.59780 0.35640 0.63490 6.42000
F 	F 	0.58350 0.44010 0.56410 0.11200
F 	F 	0.60250 0.48250 0.66710 1.43500
F 	F 	0.75975 0.76290 0.84110 -0.93200
F 	F 	0.78770 0.76420 0.92150 0.22800
F 	F 	0.78010 0.87450 0.85220 1.24800
F 	F 	0.70330 0.64570 0.10690 -0.42100
F 	F 	0.72820 0.63220 0.16980 -2.14700
F 	F 	0.72120 0.76830 0.09940 -0.62800
F 	F 	0.73420 0.66970 0.17230 1.13000
F 	F 	0.73520 0.76890 0.13730 0.50100
F 	F 	0.70780 0.69360 0.08050 -0.30500
F 	F 	0.85620 0.66740 0.86950 -0.39700
F 	F 	0.86630 0.64710 0.75300 -0.20500
F 	F 	0.86697 0.75360 0.78460 -0.18100
F 	F 	0.64080 0.80700 0.13480 0.07500
F 	F 	0.64180 0.90720 0.22770 0.16100
F 	F 	0.63080 0.78740 0.22760 -0.27600
F 	F 	0.64850 0.93070 0.20210 -0.35800
F 	F 	0.64290 0.86860 0.14460 -0.07700
F 	F 	0.63740 0.88820 0.25210 -0.28200
F 	F 	0.51800 0.79510 0.44600 -0.09400
F 	F 	0.52070 0.76340 0.33010 0.27200
F 	F 	0.54356 0.71660 0.42390 -0.56600
F 	F 	0.54293 0.70430 0.40080 0.10400
F 	F 	0.52100 0.78620 0.46540 -0.24100
F 	F 	0.51625 0.78080 0.34460 -0.65400
F 	F 	0.46317 0.58270 0.22710 -0.41300
F 	F 	0.44629 0.48470 0.29600 0.09200
F 	F 	0.44112 0.62330 0.30310 -0.50900
F 	F 	0.46781 0.55100 0.23060 -0.15600
F 	F 	0.44229 0.52050 0.29430 -0.68800
F 	F 	0.44670 0.65490 0.28620 -0.09600
F 	F 	0.55849 0.15100 0.06770 -0.23200
F 	F 	0.55742 0.27420 0.10580 -0.76600
F 	F 	0.56754 0.18610 0.19290 -0.11300
F 	F 	0.56200 0.13260 0.09380 -0.21900
F 	F 	0.55157 0.28120 0.08030 0.25700
F 	F 	0.56845 0.22040 0.17940 -0.31800
F 	F 	0.50430 0.94350 0.11580 -0.18200
F 	F 	0.47500 0.97600 0.16210 -0.23700
F 	F 	0.47600 0.01860 0.04860 -0.32000
F 	F 	0.48850 0.95510 0.18440 -0.17700
F 	F 	0.49870 0.96460 0.06990 -0.39000
F 	F 	0.46810 0.01020 0.10370 -0.35500
Cu	Cu	0.84549 0.05627 0.97869 0.94900
Cu	Cu	0.70730 0.19371 0.86439 0.89300
O 	O 	0.86152 0.09700 0.07990 -0.19800
O 	O 	0.70180 0.13890 0.95992 -0.26300
O 	O 	0.82914 0.01790 0.87900 -0.13900
O 	O 	0.84853 0.18200 0.92430 -0.19800
O 	O 	0.83962 0.92630 0.02140 -0.23700
O 	O 	0.87284 0.01560 0.94380 -0.56700
O 	O 	0.71488 0.25790 0.77380 -0.23900
O 	O 	0.67279 0.19380 0.80810 -0.23900
O 	O 	0.98652 0.11130 0.02970 -0.21900
O 	O 	0.02573 0.01640 0.09180 -0.19000
O 	O 	0.97543 0.74550 0.30950 -0.22600
O 	O 	0.01362 0.64020 0.31930 -0.15000
N 	N 	0.98155 0.93450 0.07180 -0.19400
N 	N 	0.98171 0.83890 0.17480 -0.17700
N 	N 	0.88267 0.09990 0.09310 -0.20400
N 	N 	0.79653 0.19220 0.08310 -0.20400
N 	N 	0.81727 0.09230 0.02020 -0.19400
N 	N 	0.70006 0.05600 0.96780 -0.20600
C 	C 	0.95996 0.94800 0.07420 0.08900
H 	H 	0.95250 0.98570 0.03810 0.04000
C 	C 	0.99155 0.87970 0.12130 0.13600
H 	H 	0.00670 0.86880 0.11840 0.02800
C 	C 	0.96028 0.85370 0.17760 0.09000
H 	H 	0.95300 0.82540 0.21540 0.07300
C 	C 	0.94815 0.90910 0.12700 -0.04600
C 	C 	0.92451 0.92630 0.13400 0.19900
C 	C 	0.91508 0.00430 0.10980 -0.21100
H 	H 	0.92370 0.04620 0.08700 0.11500
C 	C 	0.89314 0.02140 0.11850 0.20700
C 	C 	0.88059 0.96050 0.15260 -0.17300
H 	H 	0.86570 0.97220 0.15930 0.18200
C 	C 	0.88989 0.88380 0.17660 0.14900
H 	H 	0.88130 0.84230 0.19980 0.10400
C 	C 	0.91163 0.86580 0.16730 -0.15600
H 	H 	0.91780 0.81190 0.18360 0.18600
C 	C 	0.89396 0.18530 0.08670 1.01000
C 	C 	0.91003 0.19880 0.15680 -1.41100
H 	H 	0.92130 0.15360 0.15950 0.51400
H 	H 	0.90210 0.19630 0.20210 0.49300
H 	H 	0.91710 0.25540 0.15410 0.54000
C 	C 	0.90489 0.18800 0.01260 -1.47100
H 	H 	0.91620 0.14330 0.01350 0.52100
H 	H 	0.91160 0.24470 0.00710 0.57000
H 	H 	0.89380 0.17780 0.96990 0.53600
C 	C 	0.87621 0.25520 0.08350 -1.35400
H 	H 	0.86900 0.25410 0.13040 0.49100
H 	H 	0.86530 0.24440 0.04040 0.44700
H 	H 	0.88300 0.31180 0.07770 0.47600
C 	C 	0.77900 0.14070 0.07270 0.09100
H 	H 	0.76590 0.15700 0.09350 0.02500
C 	C 	0.81521 0.16630 0.05650 0.17100
H 	H 	0.82770 0.20300 0.06390 -0.03000
C 	C 	0.79939 0.04170 0.00700 0.05500
H 	H 	0.80050 0.98940 0.97980 0.10300
C 	C 	0.77932 0.06380 0.03230 -0.04400
C 	C 	0.75909 0.01280 0.01430 0.17400
C 	C 	0.73906 0.05480 0.00150 -0.20700
H 	H 	0.73850 0.11580 0.00650 0.10900
C 	C 	0.71975 0.00890 0.98150 0.19800
C 	C 	0.72081 0.91920 0.97370 -0.19300
H 	H 	0.70790 0.88690 0.95900 0.13300
C 	C 	0.74067 0.87850 0.98750 0.20400
H 	H 	0.74120 0.81750 0.98300 0.07400
C 	C 	0.75984 0.92290 0.00760 -0.17300
H 	H 	0.77340 0.89300 0.01680 0.18700
C 	C 	0.67705 0.01870 0.96450 0.99800
C 	C 	0.67546 0.96530 0.03590 -1.47400
H 	H 	0.68550 0.91620 0.03610 0.53000
H 	H 	0.67940 0.00120 0.08050 0.52500
H 	H 	0.66040 0.94420 0.03680 0.58600
C 	C 	0.66106 0.09440 0.96490 -1.32000
H 	H 	0.66410 0.12720 0.01190 0.46400
H 	H 	0.66280 0.13210 0.92160 0.43300
H 	H 	0.64600 0.07260 0.96150 0.47300
C 	C 	0.67179 0.96870 0.89090 -1.39800
H 	H 	0.68210 0.92040 0.88910 0.50700
H 	H 	0.65670 0.94640 0.88850 0.54900
H 	H 	0.67320 0.00700 0.84780 0.49000
C 	C 	0.82130 0.99630 0.74990 1.19600
C 	C 	0.83049 0.05130 0.81480 -0.19300
C 	C 	0.83935 0.13130 0.79830 0.13500
H 	H 	0.84020 0.14610 0.74680 0.10000
C 	C 	0.84694 0.19020 0.85360 -0.13100
C 	C 	0.85374 0.27890 0.82720 1.17800
C 	C 	0.84502 0.78030 0.04340 0.92500
C 	C 	0.85174 0.86480 0.00860 0.27500
C 	C 	0.87012 0.86470 0.96720 -0.73800
H 	H 	0.87690 0.81100 0.95820 0.64900
C 	C 	0.87876 0.93790 0.93900 1.21500
C 	C 	0.89891 0.93010 0.89580 -1.88600
C 	C 	0.71839 0.29120 0.64870 0.54700
C 	C 	0.70471 0.25520 0.70840 0.19100
C 	C 	0.68375 0.22620 0.68690 -0.07800
H 	H 	0.67880 0.22510 0.63450 0.19200
C 	C 	0.66948 0.19860 0.73770 0.03500
C 	C 	0.64619 0.17270 0.70670 0.94900
C 	C 	0.97775 0.23180 0.09680 0.85300
C 	C 	0.99237 0.15470 0.08810 -0.00000
C 	C 	0.00982 0.14060 0.14270 0.04800
H 	H 	0.01160 0.17910 0.18450 0.13500
C 	C 	0.02485 0.07350 0.14030 -0.09900
C 	C 	0.04294 0.07050 0.20640 1.08500
C 	C 	0.94635 0.70190 0.37450 1.04600
C 	C 	0.96925 0.68450 0.35040 -0.01600
C 	C 	0.98040 0.61110 0.37350 0.03100
H 	H 	0.97340 0.57020 0.40280 0.20000
C 	C 	0.00168 0.59410 0.35550 0.05400
C 	C 	0.01260 0.50180 0.38990 1.25900
F 	F 	0.79837 0.99190 0.74850 -0.26600
F 	F 	0.82547 0.02000 0.68390 -0.76600
F 	F 	0.82710 0.92060 0.74620 -1.24000
F 	F 	0.80292 0.96040 0.76170 -0.18300
F 	F 	0.81855 0.04250 0.67960 0.22100
F 	F 	0.83540 0.92330 0.75050 0.72800
F 	F 	0.85730 0.27690 0.75700 -0.05200
F 	F 	0.86680 0.32270 0.87910 -0.06600
F 	F 	0.83500 0.32850 0.80360 -0.48200
F 	F 	0.85450 0.29330 0.75780 -0.07900
F 	F 	0.87870 0.26910 0.82150 -0.15000
F 	F 	0.84450 0.34200 0.85230 -0.59400
F 	F 	0.84360 0.29920 0.75670 -0.15700
F 	F 	0.83380 0.33150 0.83810 0.40700
F 	F 	0.87330 0.29890 0.86780 -0.27900
F 	F 	0.86670 0.28040 0.77160 -0.24900
F 	F 	0.85750 0.33870 0.87240 -0.07800
F 	F 	0.84031 0.79170 0.11440 -0.38400
F 	F 	0.83100 0.73850 0.00320 0.08900
F 	F 	0.85991 0.71480 0.03670 0.18500
F 	F 	0.84900 0.71170 0.00550 -0.50000
F 	F 	0.84950 0.77500 0.11370 -0.02500
F 	F 	0.82410 0.75440 0.01010 -0.47400
F 	F 	0.86160 0.73680 0.07660 -0.46000
F 	F 	0.82190 0.77260 0.03530 0.01300
F 	F 	0.89500 0.92230 0.82830 0.16300
F 	F 	0.91150 0.86180 0.91320 4.74600
F 	F 	0.91400 0.00070 0.91370 0.94700
F 	F 	0.91595 0.97350 0.92960 -1.38100
F 	F 	0.89350 0.95340 0.82240 -1.92000
F 	F 	0.90450 0.83740 0.89250 -9.45300
F 	F 	0.90220 0.85640 0.86510 6.48000
F 	F 	0.91650 0.94010 0.93590 0.14000
F 	F 	0.89750 0.98250 0.83290 1.45000
F 	F 	0.74025 0.26290 0.65890 -0.93300
F 	F 	0.71230 0.26420 0.57850 0.22500
F 	F 	0.71990 0.37450 0.64780 1.25000
F 	F 	0.79670 0.14570 0.39310 -0.41900
F 	F 	0.77180 0.13220 0.33020 -2.14300
F 	F 	0.77880 0.26830 0.40060 -0.62700
F 	F 	0.76580 0.16970 0.32770 1.12700
F 	F 	0.76480 0.26890 0.36270 0.50000
F 	F 	0.79220 0.19360 0.41950 -0.30400
F 	F 	0.64380 0.16740 0.63050 -0.39900
F 	F 	0.63370 0.14710 0.74700 -0.20600
F 	F 	0.63303 0.25360 0.71540 -0.18100
F 	F 	0.85920 0.30700 0.36520 0.07600
F 	F 	0.85820 0.40720 0.27230 0.16100
F 	F 	0.86920 0.28740 0.27240 -0.27600
F 	F 	0.85150 0.43070 0.29790 -0.35800
F 	F 	0.85710 0.36860 0.35540 -0.07700
F 	F 	0.86260 0.38820 0.24790 -0.28100
F 	F 	0.98200 0.29510 0.05400 -0.10300
F 	F 	0.97930 0.26340 0.16990 0.28000
F 	F 	0.95644 0.21660 0.07610 -0.55500
F 	F 	0.95707 0.20430 0.09920 0.08900
F 	F 	0.97900 0.28620 0.03460 -0.23500
F 	F 	0.98375 0.28080 0.15540 -0.66300
F 	F 	0.03683 0.08270 0.27290 -0.40800
F 	F 	0.05371 0.98470 0.20400 0.13200
F 	F 	0.05888 0.12330 0.19690 -0.50300
F 	F 	0.03219 0.05100 0.26940 -0.16500
F 	F 	0.05771 0.02050 0.20570 -0.72800
F 	F 	0.05330 0.15490 0.21380 -0.10100
F 	F 	0.94151 0.65100 0.43230 -0.22800
F 	F 	0.94258 0.77420 0.39420 -0.77000
F 	F 	0.93246 0.68610 0.30710 -0.11300
F 	F 	0.93800 0.63260 0.40620 -0.22000
F 	F 	0.94843 0.78120 0.41970 0.26400
F 	F 	0.93155 0.72040 0.32060 -0.31600
F 	F 	0.99570 0.44350 0.38420 -0.18300
F 	F 	0.02500 0.47600 0.33790 -0.23900
F 	F 	0.02400 0.51860 0.45140 -0.31600
F 	F 	0.01150 0.45510 0.31560 -0.17800
F 	F 	0.00130 0.46460 0.43010 -0.39000
F 	F 	0.03190 0.51020 0.39630 -0.35400
Cu	Cu	0.34549 0.55627 0.97869 0.95100
Cu	Cu	0.20730 0.69371 0.86439 0.89300
O 	O 	0.36152 0.59700 0.07990 -0.19600
O 	O 	0.20180 0.63890 0.95992 -0.26300
O 	O 	0.32914 0.51790 0.87900 -0.13900
O 	O 	0.34853 0.68200 0.92430 -0.19900
O 	O 	0.33962 0.42630 0.02140 -0.23900
O 	O 	0.37284 0.51560 0.94380 -0.55400
O 	O 	0.21488 0.75790 0.77380 -0.23900
O 	O 	0.17279 0.69380 0.80810 -0.23900
O 	O 	0.48652 0.61130 0.02970 -0.21700
O 	O 	0.52573 0.51640 0.09180 -0.18700
O 	O 	0.47543 0.24550 0.30950 -0.22700
O 	O 	0.51362 0.14020 0.31930 -0.15100
N 	N 	0.48155 0.43450 0.07180 -0.19600
N 	N 	0.48171 0.33890 0.17480 -0.17600
N 	N 	0.38267 0.59990 0.09310 -0.20500
N 	N 	0.29653 0.69220 0.08310 -0.20600
N 	N 	0.31727 0.59230 0.02020 -0.19700
N 	N 	0.20006 0.55600 0.96780 -0.21200
C 	C 	0.45996 0.44800 0.07420 0.08600
H 	H 	0.45250 0.48570 0.03810 0.03700
C 	C 	0.49155 0.37970 0.12130 0.13400
H 	H 	0.50670 0.36880 0.11840 0.02700
C 	C 	0.46028 0.35370 0.17760 0.08800
H 	H 	0.45300 0.32540 0.21540 0.07300
C 	C 	0.44815 0.40910 0.12700 -0.04400
C 	C 	0.42451 0.42630 0.13400 0.18800
C 	C 	0.41508 0.50430 0.10980 -0.20000
H 	H 	0.42370 0.54620 0.08700 0.11300
C 	C 	0.39314 0.52140 0.11850 0.21500
C 	C 	0.38059 0.46050 0.15260 -0.18700
H 	H 	0.36570 0.47220 0.15930 0.18400
C 	C 	0.38989 0.38380 0.17660 0.15200
H 	H 	0.38130 0.34230 0.19980 0.10300
C 	C 	0.41163 0.36580 0.16730 -0.15400
H 	H 	0.41780 0.31190 0.18360 0.18600
C 	C 	0.39396 0.68530 0.08670 1.01100
C 	C 	0.41003 0.69880 0.15680 -1.41200
H 	H 	0.42130 0.65360 0.15950 0.51400
H 	H 	0.40210 0.69630 0.20210 0.49200
H 	H 	0.41710 0.75540 0.15410 0.54000
C 	C 	0.40489 0.68800 0.01260 -1.47400
H 	H 	0.41620 0.64330 0.01350 0.52300
H 	H 	0.41160 0.74470 0.00710 0.57100
H 	H 	0.39380 0.67780 0.96990 0.53700
C 	C 	0.37621 0.75520 0.08350 -1.35600
H 	H 	0.36900 0.75410 0.13040 0.49100
H 	H 	0.36530 0.74440 0.04040 0.44800
H 	H 	0.38300 0.81180 0.07770 0.47600
C 	C 	0.27900 0.64070 0.07270 0.09700
H 	H 	0.26590 0.65700 0.09350 0.02300
C 	C 	0.31521 0.66630 0.05650 0.17300
H 	H 	0.32770 0.70300 0.06390 -0.03000
C 	C 	0.29939 0.54170 0.00700 0.07400
H 	H 	0.30050 0.48940 0.97980 0.09200
C 	C 	0.27932 0.56380 0.03230 -0.05600
C 	C 	0.25909 0.51280 0.01430 0.19500
C 	C 	0.23906 0.55480 0.00150 -0.22200
H 	H 	0.23850 0.61580 0.00650 0.11400
C 	C 	0.21975 0.50890 0.98150 0.21500
C 	C 	0.22081 0.41920 0.97370 -0.21500
H 	H 	0.20790 0.38690 0.95900 0.13800
C 	C 	0.24067 0.37850 0.98750 0.22300
H 	H 	0.24120 0.31750 0.98300 0.06800
C 	C 	0.25984 0.42290 0.00760 -0.19700
H 	H 	0.27340 0.39300 0.01680 0.19400
C 	C 	0.17705 0.51870 0.96450 1.02900
C 	C 	0.17546 0.46530 0.03590 -1.52200
H 	H 	0.18550 0.41620 0.03610 0.54200
H 	H 	0.17940 0.50120 0.08050 0.54200
H 	H 	0.16040 0.44420 0.03680 0.59900
C 	C 	0.16106 0.59440 0.96490 -1.34700
H 	H 	0.16410 0.62720 0.01190 0.47200
H 	H 	0.16280 0.63210 0.92160 0.44000
H 	H 	0.14600 0.57260 0.96150 0.48200
C 	C 	0.17179 0.46870 0.89090 -1.44200
H 	H 	0.18210 0.42040 0.88910 0.51800
H 	H 	0.15670 0.44640 0.88850 0.56100
H 	H 	0.17320 0.50700 0.84780 0.50500
C 	C 	0.32130 0.49630 0.74990 1.17100
C 	C 	0.33049 0.55130 0.81480 -0.17700
C 	C 	0.33935 0.63130 0.79830 0.12800
H 	H 	0.34020 0.64610 0.74680 0.10400
C 	C 	0.34694 0.69020 0.85360 -0.12700
C 	C 	0.35374 0.77890 0.82720 1.17700
C 	C 	0.34502 0.28030 0.04340 0.92700
C 	C 	0.35174 0.36480 0.00860 0.27000
C 	C 	0.37012 0.36470 0.96720 -0.72600
H 	H 	0.37690 0.31100 0.95820 0.64300
C 	C 	0.37876 0.43790 0.93900 1.19300
C 	C 	0.39891 0.43010 0.89580 -1.86300
C 	C 	0.21839 0.79120 0.64870 0.54600
C 	C 	0.20471 0.75520 0.70840 0.19200
C 	C 	0.18375 0.72620 0.68690 -0.07800
H 	H 	0.17880 0.72510 0.63450 0.19300
C 	C 	0.16948 0.69860 0.73770 0.03600
C 	C 	0.14619 0.67270 0.70670 0.94800
C 	C 	0.47775 0.73180 0.09680 0.85400
C 	C 	0.49237 0.65470 0.08810 0.00000
C 	C 	0.50982 0.64060 0.14270 0.04800
H 	H 	0.51160 0.67910 0.18450 0.13500
C 	C 	0.52485 0.57350 0.14030 -0.09600
C 	C 	0.54294 0.57050 0.20640 1.07700
C 	C 	0.44635 0.20190 0.37450 1.04600
C 	C 	0.46925 0.18450 0.35040 -0.01600
C 	C 	0.48040 0.11110 0.37350 0.03000
H 	H 	0.47340 0.07020 0.40280 0.20000
C 	C 	0.50168 0.09410 0.35550 0.05500
C 	C 	0.51260 0.00180 0.38990 1.25300
F 	F 	0.29837 0.49190 0.74850 -0.26800
F 	F 	0.32547 0.52000 0.68390 -0.74800
F 	F 	0.32710 0.42060 0.74620 -1.20800
F 	F 	0.30292 0.46040 0.76170 -0.18100
F 	F 	0.31855 0.54250 0.67960 0.21300
F 	F 	0.33540 0.42330 0.75050 0.69800
F 	F 	0.35730 0.77690 0.75700 -0.05100
F 	F 	0.36680 0.82270 0.87910 -0.06700
F 	F 	0.33500 0.82850 0.80360 -0.48000
F 	F 	0.35450 0.79330 0.75780 -0.07900
F 	F 	0.37870 0.76910 0.82150 -0.15000
F 	F 	0.34450 0.84200 0.85230 -0.59200
F 	F 	0.34360 0.79920 0.75670 -0.15700
F 	F 	0.33380 0.83150 0.83810 0.40400
F 	F 	0.37330 0.79890 0.86780 -0.27800
F 	F 	0.36670 0.78040 0.77160 -0.24800
F 	F 	0.35750 0.83870 0.87240 -0.07800
F 	F 	0.34031 0.29170 0.11440 -0.38500
F 	F 	0.33100 0.23850 0.00320 0.08900
F 	F 	0.35991 0.21480 0.03670 0.18500
F 	F 	0.34900 0.21170 0.00550 -0.50100
F 	F 	0.34950 0.27500 0.11370 -0.02500
F 	F 	0.32410 0.25440 0.01010 -0.47500
F 	F 	0.36160 0.23680 0.07660 -0.46100
F 	F 	0.32190 0.27260 0.03530 0.01300
F 	F 	0.39500 0.42230 0.82830 0.16500
F 	F 	0.41150 0.36180 0.91320 4.71600
F 	F 	0.41400 0.50070 0.91370 0.93300
F 	F 	0.41595 0.47350 0.92960 -1.34800
F 	F 	0.39350 0.45340 0.82240 -1.91400
F 	F 	0.40450 0.33740 0.89250 -9.38900
F 	F 	0.40220 0.35640 0.86510 6.43200
F 	F 	0.41650 0.44010 0.93590 0.11300
F 	F 	0.39750 0.48250 0.83290 1.43800
F 	F 	0.24025 0.76290 0.65890 -0.93300
F 	F 	0.21230 0.76420 0.57850 0.22600
F 	F 	0.21990 0.87450 0.64780 1.25000
F 	F 	0.29670 0.64570 0.39310 -0.41900
F 	F 	0.27180 0.63220 0.33020 -2.14200
F 	F 	0.27880 0.76830 0.40060 -0.62600
F 	F 	0.26580 0.66970 0.32770 1.12800
F 	F 	0.26480 0.76890 0.36270 0.50100
F 	F 	0.29220 0.69360 0.41950 -0.30400
F 	F 	0.14380 0.66740 0.63050 -0.39800
F 	F 	0.13370 0.64710 0.74700 -0.20500
F 	F 	0.13303 0.75360 0.71540 -0.18100
F 	F 	0.35920 0.80700 0.36520 0.07500
F 	F 	0.35820 0.90720 0.27230 0.16100
F 	F 	0.36920 0.78740 0.27240 -0.27600
F 	F 	0.35150 0.93070 0.29790 -0.35700
F 	F 	0.35710 0.86860 0.35540 -0.07700
F 	F 	0.36260 0.88820 0.24790 -0.28200
F 	F 	0.48200 0.79510 0.05400 -0.10400
F 	F 	0.47930 0.76340 0.16990 0.28600
F 	F 	0.45644 0.71660 0.07610 -0.55400
F 	F 	0.45707 0.70430 0.09920 0.08900
F 	F 	0.47900 0.78620 0.03460 -0.23500
F 	F 	0.48375 0.78080 0.15540 -0.66800
F 	F 	0.53683 0.58270 0.27290 -0.41300
F 	F 	0.55371 0.48470 0.20400 0.09100
F 	F 	0.55888 0.62330 0.19690 -0.50900
F 	F 	0.53219 0.55100 0.26940 -0.15600
F 	F 	0.55771 0.52050 0.20570 -0.68800
F 	F 	0.55330 0.65490 0.21380 -0.09700
F 	F 	0.44151 0.15100 0.43230 -0.22800
F 	F 	0.44258 0.27420 0.39420 -0.77000
F 	F 	0.43246 0.18610 0.30710 -0.11300
F 	F 	0.43800 0.13260 0.40620 -0.22100
F 	F 	0.44843 0.28120 0.41970 0.26300
F 	F 	0.43155 0.22040 0.32060 -0.31600
F 	F 	0.49570 0.94350 0.38420 -0.18200
F 	F 	0.52500 0.97600 0.33790 -0.23600
F 	F 	0.52400 0.01860 0.45140 -0.31600
F 	F 	0.51150 0.95510 0.31560 -0.17700
F 	F 	0.50130 0.96460 0.43010 -0.38700
F 	F 	0.53190 0.01020 0.39630 -0.35400
Cu	Cu	0.84549 0.94373 0.47869 0.94800
Cu	Cu	0.70730 0.80629 0.36439 0.89300
O 	O 	0.86152 0.90300 0.57990 -0.19100
O 	O 	0.70180 0.86110 0.45992 -0.26700
O 	O 	0.82914 0.98210 0.37900 -0.14000
O 	O 	0.84853 0.81800 0.42430 -0.20400
O 	O 	0.83962 0.07370 0.52140 -0.24000
O 	O 	0.87284 0.98440 0.44380 -0.54600
O 	O 	0.71488 0.74210 0.27380 -0.23900
O 	O 	0.67279 0.80620 0.30810 -0.24100
O 	O 	0.98652 0.88870 0.52970 -0.20900
O 	O 	0.02573 0.98360 0.59180 -0.17900
O 	O 	0.97543 0.25450 0.80950 -0.22600
O 	O 	0.01362 0.35980 0.81930 -0.15000
N 	N 	0.98155 0.06550 0.57180 -0.19500
N 	N 	0.98171 0.16110 0.67480 -0.17600
N 	N 	0.88267 0.90010 0.59310 -0.20400
N 	N 	0.79653 0.80780 0.58310 -0.20700
N 	N 	0.81727 0.90770 0.52020 -0.19900
N 	N 	0.70006 0.94400 0.46780 -0.21500
C 	C 	0.95996 0.05200 0.57420 0.08300
H 	H 	0.95250 0.01430 0.53810 0.03800
C 	C 	0.99155 0.12030 0.62130 0.13400
H 	H 	0.00670 0.13120 0.61840 0.02800
C 	C 	0.96028 0.14630 0.67760 0.08600
H 	H 	0.95300 0.17460 0.71540 0.07500
C 	C 	0.94815 0.09090 0.62700 -0.04000
C 	C 	0.92451 0.07370 0.63400 0.17800
C 	C 	0.91508 0.99570 0.60980 -0.18700
H 	H 	0.92370 0.95380 0.58700 0.11300
C 	C 	0.89314 0.97860 0.61850 0.22400
C 	C 	0.88059 0.03950 0.65260 -0.20000
H 	H 	0.86570 0.02780 0.65930 0.18500
C 	C 	0.88989 0.11620 0.67660 0.15500
H 	H 	0.88130 0.15770 0.69980 0.10200
C 	C 	0.91163 0.13420 0.66730 -0.15200
H 	H 	0.91780 0.18810 0.68360 0.18600
C 	C 	0.89396 0.81470 0.58670 1.00200
C 	C 	0.91003 0.80120 0.65680 -1.40300
H 	H 	0.92130 0.84640 0.65950 0.51200
H 	H 	0.90210 0.80370 0.70210 0.48900
H 	H 	0.91710 0.74460 0.65410 0.53800
C 	C 	0.90489 0.81200 0.51260 -1.44000
H 	H 	0.91620 0.85670 0.51350 0.51700
H 	H 	0.91160 0.75530 0.50710 0.56500
H 	H 	0.89380 0.82220 0.46990 0.52100
C 	C 	0.87621 0.74480 0.58350 -1.35000
H 	H 	0.86900 0.74590 0.63040 0.49000
H 	H 	0.86530 0.75560 0.54040 0.45000
H 	H 	0.88300 0.68820 0.57770 0.47700
C 	C 	0.77900 0.85930 0.57270 0.10400
H 	H 	0.76590 0.84300 0.59350 0.02300
C 	C 	0.81521 0.83370 0.55650 0.17600
H 	H 	0.82770 0.79700 0.56390 -0.02900
C 	C 	0.79939 0.95830 0.50700 0.11100
H 	H 	0.80050 0.01060 0.47980 0.06600
C 	C 	0.77932 0.93620 0.53230 -0.06700
C 	C 	0.75909 0.98720 0.51430 0.20200
C 	C 	0.73906 0.94520 0.50150 -0.20800
H 	H 	0.73850 0.88420 0.50650 0.11300
C 	C 	0.71975 0.99110 0.48150 0.20600
C 	C 	0.72081 0.08080 0.47370 -0.21400
H 	H 	0.70790 0.11310 0.45900 0.13400
C 	C 	0.74067 0.12150 0.48750 0.20500
H 	H 	0.74120 0.18250 0.48300 0.07000
C 	C 	0.75984 0.07710 0.50760 -0.18700
H 	H 	0.77340 0.10700 0.51680 0.19300
C 	C 	0.67705 0.98130 0.46450 1.05900
C 	C 	0.67546 0.03470 0.53590 -1.56000
H 	H 	0.68550 0.08380 0.53610 0.55700
H 	H 	0.67940 0.99880 0.58050 0.55800
H 	H 	0.66040 0.05580 0.53680 0.61200
C 	C 	0.66106 0.90560 0.46490 -1.40500
H 	H 	0.66410 0.87280 0.51190 0.49600
H 	H 	0.66280 0.86790 0.42160 0.45600
H 	H 	0.64600 0.92740 0.46150 0.49600
C 	C 	0.67179 0.03130 0.39090 -1.48700
H 	H 	0.68210 0.07960 0.38910 0.52900
H 	H 	0.65670 0.05360 0.38850 0.57100
H 	H 	0.67320 0.99300 0.34780 0.52100
C 	C 	0.82130 0.00370 0.24990 1.14700
C 	C 	0.83049 0.94870 0.31480 -0.16100
C 	C 	0.83935 0.86870 0.29830 0.12000
H 	H 	0.84020 0.85390 0.24680 0.10700
C 	C 	0.84694 0.80980 0.35360 -0.12300
C 	C 	0.85374 0.72110 0.32720 1.17500
C 	C 	0.84502 0.21970 0.54340 0.92300
C 	C 	0.85174 0.13520 0.50860 0.28200
C 	C 	0.87012 0.13530 0.46720 -0.73400
H 	H 	0.87690 0.18900 0.45820 0.64100
C 	C 	0.87876 0.06210 0.43900 1.17500
C 	C 	0.89891 0.06990 0.39580 -1.83700
C 	C 	0.71839 0.70880 0.14870 0.54800
C 	C 	0.70471 0.74480 0.20840 0.19000
C 	C 	0.68375 0.77380 0.18690 -0.07800
H 	H 	0.67880 0.77490 0.13450 0.19100
C 	C 	0.66948 0.80140 0.23770 0.03500
C 	C 	0.64619 0.82730 0.20670 0.94800
C 	C 	0.97775 0.76820 0.59680 0.85300
C 	C 	0.99237 0.84530 0.58810 0.00000
C 	C 	0.00982 0.85940 0.64270 0.04800
H 	H 	0.01160 0.82090 0.68450 0.13500
C 	C 	0.02485 0.92650 0.64030 -0.09300
C 	C 	0.04294 0.92950 0.70640 1.07000
C 	C 	0.94635 0.29810 0.87450 1.04700
C 	C 	0.96925 0.31550 0.85040 -0.01500
C 	C 	0.98040 0.38890 0.87350 0.03100
H 	H 	0.97340 0.42980 0.90280 0.20300
C 	C 	0.00168 0.40590 0.85550 0.05600
C 	C 	0.01260 0.49820 0.88990 1.25600
F 	F 	0.79837 0.00810 0.24850 -0.26900
F 	F 	0.82547 0.98000 0.18390 -0.72800
F 	F 	0.82710 0.07940 0.24620 -1.17600
F 	F 	0.80292 0.03960 0.26170 -0.18000
F 	F 	0.81855 0.95750 0.17960 0.20300
F 	F 	0.83540 0.07670 0.25050 0.66900
F 	F 	0.85730 0.72310 0.25700 -0.05100
F 	F 	0.86680 0.67730 0.37910 -0.06900
F 	F 	0.83500 0.67150 0.30360 -0.47900
F 	F 	0.85450 0.70670 0.25780 -0.07900
F 	F 	0.87870 0.73090 0.32150 -0.15000
F 	F 	0.84450 0.65800 0.35230 -0.59100
F 	F 	0.84360 0.70080 0.25670 -0.15800
F 	F 	0.83380 0.66850 0.33810 0.40200
F 	F 	0.87330 0.70110 0.36780 -0.27700
F 	F 	0.86670 0.71960 0.27160 -0.24900
F 	F 	0.85750 0.66130 0.37240 -0.07900
F 	F 	0.84031 0.20830 0.61440 -0.38400
F 	F 	0.83100 0.26150 0.50320 0.09100
F 	F 	0.85991 0.28520 0.53670 0.18600
F 	F 	0.84900 0.28830 0.50550 -0.49600
F 	F 	0.84950 0.22500 0.61370 -0.02400
F 	F 	0.82410 0.24560 0.51010 -0.47300
F 	F 	0.86160 0.26320 0.57660 -0.45900
F 	F 	0.82190 0.22740 0.53530 0.01400
F 	F 	0.89500 0.07770 0.32830 0.16700
F 	F 	0.91150 0.13820 0.41320 4.67800
F 	F 	0.91400 0.99930 0.41370 0.91900
F 	F 	0.91595 0.02650 0.42960 -1.31600
F 	F 	0.89350 0.04660 0.32240 -1.90600
F 	F 	0.90450 0.16260 0.39250 -9.31100
F 	F 	0.90220 0.14360 0.36510 6.37400
F 	F 	0.91650 0.05990 0.43590 0.08600
F 	F 	0.89750 0.01750 0.33290 1.42400
F 	F 	0.74025 0.73710 0.15890 -0.93500
F 	F 	0.71230 0.73580 0.07850 0.22400
F 	F 	0.71990 0.62550 0.14780 1.25100
F 	F 	0.79670 0.85430 0.89310 -0.41600
F 	F 	0.77180 0.86780 0.83020 -2.13900
F 	F 	0.77880 0.73170 0.90060 -0.62500
F 	F 	0.76580 0.83030 0.82770 1.12700
F 	F 	0.76480 0.73110 0.86270 0.50100
F 	F 	0.79220 0.80640 0.91950 -0.30300
F 	F 	0.64380 0.83260 0.13050 -0.40000
F 	F 	0.63370 0.85290 0.24700 -0.20500
F 	F 	0.63303 0.74640 0.21540 -0.18100
F 	F 	0.85920 0.69300 0.86520 0.07600
F 	F 	0.85820 0.59280 0.77230 0.16100
F 	F 	0.86920 0.71260 0.77240 -0.27500
F 	F 	0.85150 0.56930 0.79790 -0.35700
F 	F 	0.85710 0.63140 0.85540 -0.07800
F 	F 	0.86260 0.61180 0.74790 -0.28200
F 	F 	0.98200 0.70490 0.55400 -0.09500
F 	F 	0.97930 0.73660 0.66990 0.28200
F 	F 	0.95644 0.78340 0.57610 -0.56600
F 	F 	0.95707 0.79570 0.59920 0.10400
F 	F 	0.97900 0.71380 0.53460 -0.24000
F 	F 	0.98375 0.71920 0.65540 -0.66400
F 	F 	0.03683 0.91730 0.77290 -0.41900
F 	F 	0.05371 0.01530 0.70400 0.05000
F 	F 	0.05888 0.87670 0.69690 -0.51400
F 	F 	0.03219 0.94900 0.76940 -0.14500
F 	F 	0.05771 0.97950 0.70570 -0.64600
F 	F 	0.05330 0.84510 0.71380 -0.09200
F 	F 	0.94151 0.34900 0.93230 -0.22400
F 	F 	0.94258 0.22580 0.89420 -0.77400
F 	F 	0.93246 0.31390 0.80710 -0.11200
F 	F 	0.93800 0.36740 0.90620 -0.22100
F 	F 	0.94843 0.21880 0.91970 0.26800
F 	F 	0.93155 0.27960 0.82060 -0.31700
F 	F 	0.99570 0.55650 0.88420 -0.18300
F 	F 	0.02500 0.52400 0.83790 -0.23800
F 	F 	0.02400 0.48140 0.95140 -0.31300
F 	F 	0.01150 0.54490 0.81560 -0.17700
F 	F 	0.00130 0.53540 0.93010 -0.38700
F 	F 	0.03190 0.48980 0.89630 -0.35200
Cu	Cu	0.34549 0.44373 0.47869 0.94700
Cu	Cu	0.20730 0.30629 0.36439 0.89300
O 	O 	0.36152 0.40300 0.57990 -0.19300
O 	O 	0.20180 0.36110 0.45992 -0.26700
O 	O 	0.32914 0.48210 0.37900 -0.14100
O 	O 	0.34853 0.31800 0.42430 -0.20300
O 	O 	0.33962 0.57370 0.52140 -0.23800
O 	O 	0.37284 0.48440 0.44380 -0.55800
O 	O 	0.21488 0.24210 0.27380 -0.24000
O 	O 	0.17279 0.30620 0.30810 -0.24000
O 	O 	0.48652 0.38870 0.52970 -0.21300
O 	O 	0.52573 0.48360 0.59180 -0.18400
O 	O 	0.47543 0.75450 0.80950 -0.22600
O 	O 	0.51362 0.85980 0.81930 -0.15000
N 	N 	0.48155 0.56550 0.57180 -0.19400
N 	N 	0.48171 0.66110 0.67480 -0.17600
N 	N 	0.38267 0.40010 0.59310 -0.20300
N 	N 	0.29653 0.30780 0.58310 -0.20500
N 	N 	0.31727 0.40770 0.52020 -0.19700
N 	N 	0.20006 0.44400 0.46780 -0.21000
C 	C 	0.45996 0.55200 0.57420 0.08600
H 	H 	0.45250 0.51430 0.53810 0.04000
C 	C 	0.49155 0.62030 0.62130 0.13500
H 	H 	0.50670 0.63120 0.61840 0.02800
C 	C 	0.46028 0.64630 0.67760 0.08900
H 	H 	0.45300 0.67460 0.71540 0.07400
C 	C 	0.44815 0.59090 0.62700 -0.04300
C 	C 	0.42451 0.57370 0.63400 0.19000
C 	C 	0.41508 0.49570 0.60980 -0.20000
H 	H 	0.42370 0.45380 0.58700 0.11500
C 	C 	0.39314 0.47860 0.61850 0.21600
C 	C 	0.38059 0.53950 0.65260 -0.18600
H 	H 	0.36570 0.52780 0.65930 0.18400
C 	C 	0.38989 0.61620 0.67660 0.15300
H 	H 	0.38130 0.65770 0.69980 0.10300
C 	C 	0.41163 0.63420 0.66730 -0.15400
H 	H 	0.41780 0.68810 0.68360 0.18700
C 	C 	0.39396 0.31470 0.58670 1.00100
C 	C 	0.41003 0.30120 0.65680 -1.40200
H 	H 	0.42130 0.34640 0.65950 0.51100
H 	H 	0.40210 0.30370 0.70210 0.49000
H 	H 	0.41710 0.24460 0.65410 0.53800
C 	C 	0.40489 0.31200 0.51260 -1.43800
H 	H 	0.41620 0.35670 0.51350 0.51600
H 	H 	0.41160 0.25530 0.50710 0.56400
H 	H 	0.39380 0.32220 0.46990 0.52000
C 	C 	0.37621 0.24480 0.58350 -1.34900
H 	H 	0.36900 0.24590 0.63040 0.49000
H 	H 	0.36530 0.25560 0.54040 0.44900
H 	H 	0.38300 0.18820 0.57770 0.47600
C 	C 	0.27900 0.35930 0.57270 0.09800
H 	H 	0.26590 0.34300 0.59350 0.02500
C 	C 	0.31521 0.33370 0.55650 0.17400
H 	H 	0.32770 0.29700 0.56390 -0.02900
C 	C 	0.29939 0.45830 0.50700 0.09100
H 	H 	0.30050 0.51060 0.47980 0.07800
C 	C 	0.27932 0.43620 0.53230 -0.05400
C 	C 	0.25909 0.48720 0.51430 0.17900
C 	C 	0.23906 0.44520 0.50150 -0.19200
H 	H 	0.23850 0.38420 0.50650 0.10800
C 	C 	0.21975 0.49110 0.48150 0.18900
C 	C 	0.22081 0.58080 0.47370 -0.19100
H 	H 	0.20790 0.61310 0.45900 0.12800
C 	C 	0.24067 0.62150 0.48750 0.18600
H 	H 	0.24120 0.68250 0.48300 0.07700
C 	C 	0.25984 0.57710 0.50760 -0.16200
H 	H 	0.27340 0.60700 0.51680 0.18600
C 	C 	0.17705 0.48130 0.46450 1.02700
C 	C 	0.17546 0.53470 0.53590 -1.51200
H 	H 	0.18550 0.58380 0.53610 0.54400
H 	H 	0.17940 0.49880 0.58050 0.54100
H 	H 	0.16040 0.55580 0.53680 0.59900
C 	C 	0.16106 0.40560 0.46490 -1.37800
H 	H 	0.16410 0.37280 0.51190 0.48900
H 	H 	0.16280 0.36790 0.42160 0.44900
H 	H 	0.14600 0.42740 0.46150 0.48800
C 	C 	0.17179 0.53130 0.39090 -1.44200
H 	H 	0.18210 0.57960 0.38910 0.51800
H 	H 	0.15670 0.55360 0.38850 0.55900
H 	H 	0.17320 0.49300 0.34780 0.50500
C 	C 	0.32130 0.50370 0.24990 1.17000
C 	C 	0.33049 0.44870 0.31480 -0.17600
C 	C 	0.33935 0.36870 0.29830 0.12700
H 	H 	0.34020 0.35390 0.24680 0.10400
C 	C 	0.34694 0.30980 0.35360 -0.12600
C 	C 	0.35374 0.22110 0.32720 1.17700
C 	C 	0.34502 0.71970 0.54340 0.92100
C 	C 	0.35174 0.63520 0.50860 0.28700
C 	C 	0.37012 0.63530 0.46720 -0.74500
H 	H 	0.37690 0.68900 0.45820 0.64600
C 	C 	0.37876 0.56210 0.43900 1.19700
C 	C 	0.39891 0.56990 0.39580 -1.86100
C 	C 	0.21839 0.20880 0.14870 0.54800
C 	C 	0.20471 0.24480 0.20840 0.18900
C 	C 	0.18375 0.27380 0.18690 -0.07800
H 	H 	0.17880 0.27490 0.13450 0.19100
C 	C 	0.16948 0.30140 0.23770 0.03500
C 	C 	0.14619 0.32730 0.20670 0.94900
C 	C 	0.47775 0.26820 0.59680 0.85200
C 	C 	0.49237 0.34530 0.58810 0.00000
C 	C 	0.50982 0.35940 0.64270 0.04900
H 	H 	0.51160 0.32090 0.68450 0.13500
C 	C 	0.52485 0.42650 0.64030 -0.09600
C 	C 	0.54294 0.42950 0.70640 1.07700
C 	C 	0.44635 0.79810 0.87450 1.04800
C 	C 	0.46925 0.81550 0.85040 -0.01500
C 	C 	0.48040 0.88890 0.87350 0.03100
H 	H 	0.47340 0.92980 0.90280 0.20300
C 	C 	0.50168 0.90590 0.85550 0.05600
C 	C 	0.51260 0.99820 0.88990 1.26100
F 	F 	0.29837 0.50810 0.24850 -0.26800
F 	F 	0.32547 0.48000 0.18390 -0.74600
F 	F 	0.32710 0.57940 0.24620 -1.20700
F 	F 	0.30292 0.53960 0.26170 -0.18100
F 	F 	0.31855 0.45750 0.17960 0.21100
F 	F 	0.33540 0.57670 0.25050 0.69700
F 	F 	0.35730 0.22310 0.25700 -0.05100
F 	F 	0.36680 0.17730 0.37910 -0.06800
F 	F 	0.33500 0.17150 0.30360 -0.48100
F 	F 	0.35450 0.20670 0.25780 -0.07900
F 	F 	0.37870 0.23090 0.32150 -0.15000
F 	F 	0.34450 0.15800 0.35230 -0.59300
F 	F 	0.34360 0.20080 0.25670 -0.15800
F 	F 	0.33380 0.16850 0.33810 0.40500
F 	F 	0.37330 0.20110 0.36780 -0.27800
F 	F 	0.36670 0.21960 0.27160 -0.25000
F 	F 	0.35750 0.16130 0.37240 -0.07900
F 	F 	0.34031 0.70830 0.61440 -0.38300
F 	F 	0.33100 0.76150 0.50320 0.09100
F 	F 	0.35991 0.78520 0.53670 0.18500
F 	F 	0.34900 0.78830 0.50550 -0.49500
F 	F 	0.34950 0.72500 0.61370 -0.02400
F 	F 	0.32410 0.74560 0.51010 -0.47200
F 	F 	0.36160 0.76320 0.57660 -0.45800
F 	F 	0.32190 0.72740 0.53530 0.01400
F 	F 	0.39500 0.57770 0.32830 0.16500
F 	F 	0.41150 0.63820 0.41320 4.70800
F 	F 	0.41400 0.49930 0.41370 0.93200
F 	F 	0.41595 0.52650 0.42960 -1.34800
F 	F 	0.39350 0.54660 0.32240 -1.91200
F 	F 	0.40450 0.66260 0.39250 -9.37600
F 	F 	0.40220 0.64360 0.36510 6.42300
F 	F 	0.41650 0.55990 0.43590 0.11200
F 	F 	0.39750 0.51750 0.33290 1.43600
F 	F 	0.24025 0.23710 0.15890 -0.93500
F 	F 	0.21230 0.23580 0.07850 0.22400
F 	F 	0.21990 0.12550 0.14780 1.25000
F 	F 	0.29670 0.35430 0.89310 -0.41700
F 	F 	0.27180 0.36780 0.83020 -2.13900
F 	F 	0.27880 0.23170 0.90060 -0.62500
F 	F 	0.26580 0.33030 0.82770 1.12600
F 	F 	0.26480 0.23110 0.86270 0.50000
F 	F 	0.29220 0.30640 0.91950 -0.30300
F 	F 	0.14380 0.33260 0.13050 -0.40100
F 	F 	0.13370 0.35290 0.24700 -0.20600
F 	F 	0.13303 0.24640 0.21540 -0.18100
F 	F 	0.35920 0.19300 0.86520 0.07600
F 	F 	0.35820 0.09280 0.77230 0.16100
F 	F 	0.36920 0.21260 0.77240 -0.27500
F 	F 	0.35150 0.06930 0.79790 -0.35800
F 	F 	0.35710 0.13140 0.85540 -0.07800
F 	F 	0.36260 0.11180 0.74790 -0.28100
F 	F 	0.48200 0.20490 0.55400 -0.09400
F 	F 	0.47930 0.23660 0.66990 0.27600
F 	F 	0.45644 0.28340 0.57610 -0.56700
F 	F 	0.45707 0.29570 0.59920 0.10400
F 	F 	0.47900 0.21380 0.53460 -0.24100
F 	F 	0.48375 0.21920 0.65540 -0.65800
F 	F 	0.53683 0.41730 0.77290 -0.41300
F 	F 	0.55371 0.51530 0.70400 0.09200
F 	F 	0.55888 0.37670 0.69690 -0.50900
F 	F 	0.53219 0.44900 0.76940 -0.15600
F 	F 	0.55771 0.47950 0.70570 -0.68800
F 	F 	0.55330 0.34510 0.71380 -0.09600
F 	F 	0.44151 0.84900 0.93230 -0.22400
F 	F 	0.44258 0.72580 0.89420 -0.77400
F 	F 	0.43246 0.81390 0.80710 -0.11200
F 	F 	0.43800 0.86740 0.90620 -0.22100
F 	F 	0.44843 0.71880 0.91970 0.26900
F 	F 	0.43155 0.77960 0.82060 -0.31700
F 	F 	0.49570 0.05650 0.88420 -0.18400
F 	F 	0.52500 0.02400 0.83790 -0.24100
F 	F 	0.52400 0.98140 0.95140 -0.31300
F 	F 	0.51150 0.04490 0.81560 -0.17800
F 	F 	0.50130 0.03540 0.93010 -0.38900
F 	F 	0.53190 0.98980 0.89630 -0.35200
Cu	Cu	0.15451 0.94373 0.02131 0.94400
Cu	Cu	0.29270 0.80629 0.13561 0.89200
O 	O 	0.13848 0.90300 0.92010 -0.18800
O 	O 	0.29820 0.86110 0.04008 -0.27000
O 	O 	0.17086 0.98210 0.12100 -0.14300
O 	O 	0.15147 0.81800 0.07570 -0.20700
O 	O 	0.16038 0.07370 0.97860 -0.23900
O 	O 	0.12716 0.98440 0.05620 -0.55000
O 	O 	0.28512 0.74210 0.22620 -0.24000
O 	O 	0.32721 0.80620 0.19190 -0.24100
O 	O 	0.01348 0.88870 0.97030 -0.20300
O 	O 	0.97427 0.98360 0.90820 -0.17400
O 	O 	0.02457 0.25450 0.69050 -0.22600
O 	O 	0.98638 0.35980 0.68070 -0.15000
N 	N 	0.01845 0.06550 0.92820 -0.19300
N 	N 	0.01829 0.16110 0.82520 -0.17600
N 	N 	0.11733 0.90010 0.90690 -0.20200
N 	N 	0.20347 0.80780 0.91690 -0.20600
N 	N 	0.18273 0.90770 0.97980 -0.19900
N 	N 	0.29994 0.94400 0.03220 -0.21300
C 	C 	0.04004 0.05200 0.92580 0.08400
H 	H 	0.04750 0.01430 0.96190 0.04100
C 	C 	0.00845 0.12030 0.87870 0.13400
H 	H 	0.99330 0.13120 0.88160 0.02900
C 	C 	0.03972 0.14630 0.82240 0.08700
H 	H 	0.04700 0.17460 0.78460 0.07500
C 	C 	0.05185 0.09090 0.87300 -0.03900
C 	C 	0.07549 0.07370 0.86600 0.17800
C 	C 	0.08492 0.99570 0.89020 -0.18600
H 	H 	0.07630 0.95380 0.91300 0.11400
C 	C 	0.10686 0.97860 0.88150 0.22600
C 	C 	0.11941 0.03950 0.84740 -0.20000
H 	H 	0.13430 0.02780 0.84070 0.18500
C 	C 	0.11011 0.11620 0.82340 0.15500
H 	H 	0.11870 0.15770 0.80020 0.10200
C 	C 	0.08837 0.13420 0.83270 -0.15200
H 	H 	0.08220 0.18810 0.81640 0.18600
C 	C 	0.10604 0.81470 0.91330 0.99200
C 	C 	0.08997 0.80120 0.84320 -1.39400
H 	H 	0.07870 0.84640 0.84050 0.50900
H 	H 	0.09790 0.80370 0.79790 0.48700
H 	H 	0.08290 0.74460 0.84590 0.53600
C 	C 	0.09511 0.81200 0.98740 -1.40300
H 	H 	0.08380 0.85670 0.98650 0.51000
H 	H 	0.08840 0.75530 0.99290 0.55800
H 	H 	0.10620 0.82220 0.03010 0.50300
C 	C 	0.12379 0.74480 0.91650 -1.34500
H 	H 	0.13100 0.74590 0.86960 0.48900
H 	H 	0.13470 0.75560 0.95960 0.45100
H 	H 	0.11700 0.68820 0.92230 0.47700
C 	C 	0.22100 0.85930 0.92730 0.10400
H 	H 	0.23410 0.84300 0.90650 0.02400
C 	C 	0.18479 0.83370 0.94350 0.17700
H 	H 	0.17230 0.79700 0.93610 -0.02800
C 	C 	0.20061 0.95830 0.99300 0.12800
H 	H 	0.19950 0.01060 0.02020 0.05300
C 	C 	0.22068 0.93620 0.96770 -0.06500
C 	C 	0.24091 0.98720 0.98570 0.18600
C 	C 	0.26094 0.94520 0.99850 -0.17900
H 	H 	0.26150 0.88420 0.99350 0.10800
C 	C 	0.28025 0.99110 0.01850 0.18000
C 	C 	0.27919 0.08080 0.02630 -0.18900
H 	H 	0.29210 0.11310 0.04100 0.12400
C 	C 	0.25933 0.12150 0.01250 0.16800
H 	H 	0.25880 0.18250 0.01700 0.07900
C 	C 	0.24016 0.07710 0.99240 -0.15300
H 	H 	0.22660 0.10700 0.98320 0.18500
C 	C 	0.32295 0.98130 0.03550 1.05700
C 	C 	0.32454 0.03470 0.96410 -1.54900
H 	H 	0.31450 0.08380 0.96390 0.55800
H 	H 	0.32060 0.99880 0.91950 0.55600
H 	H 	0.33960 0.05580 0.96320 0.61300
C 	C 	0.33894 0.90560 0.03510 -1.43500
H 	H 	0.33590 0.87280 0.98810 0.51300
H 	H 	0.33720 0.86790 0.07840 0.46400
H 	H 	0.35400 0.92740 0.03850 0.50200
C 	C 	0.32821 0.03130 0.10910 -1.48600
H 	H 	0.31790 0.07960 0.11090 0.52900
H 	H 	0.34330 0.05360 0.11150 0.57000
H 	H 	0.32680 0.99300 0.15220 0.52100
C 	C 	0.17870 0.00370 0.25010 1.14700
C 	C 	0.16951 0.94870 0.18520 -0.16000
C 	C 	0.16065 0.86870 0.20170 0.11800
H 	H 	0.15980 0.85390 0.25320 0.10800
C 	C 	0.15306 0.80980 0.14640 -0.12200
C 	C 	0.14626 0.72110 0.17280 1.17500
C 	C 	0.15498 0.21970 0.95660 0.91700
C 	C 	0.14826 0.13520 0.99140 0.29700
C 	C 	0.12988 0.13530 0.03280 -0.75100
H 	H 	0.12310 0.18900 0.04180 0.64300
C 	C 	0.12124 0.06210 0.06100 1.17800
C 	C 	0.10109 0.06990 0.10420 -1.83400
C 	C 	0.28161 0.70880 0.35130 0.54700
C 	C 	0.29529 0.74480 0.29160 0.19100
C 	C 	0.31625 0.77380 0.31310 -0.07900
H 	H 	0.32120 0.77490 0.36550 0.19300
C 	C 	0.33052 0.80140 0.26230 0.03600
C 	C 	0.35381 0.82730 0.29330 0.94800
C 	C 	0.02225 0.76820 0.90320 0.85200
C 	C 	0.00763 0.84530 0.91190 -0.00000
C 	C 	0.99018 0.85940 0.85730 0.05100
H 	H 	0.98840 0.82090 0.81550 0.13500
C 	C 	0.97515 0.92650 0.85970 -0.09400
C 	C 	0.95706 0.92950 0.79360 1.07000
C 	C 	0.05365 0.29810 0.62550 1.04600
C 	C 	0.03075 0.31550 0.64960 -0.01600
C 	C 	0.01960 0.38890 0.62650 0.03000
H 	H 	0.02660 0.42980 0.59720 0.20100
C 	C 	0.99832 0.40590 0.64450 0.05500
C 	C 	0.98740 0.49820 0.61010 1.25800
F 	F 	0.20163 0.00810 0.25150 -0.27000
F 	F 	0.17453 0.98000 0.31610 -0.72800
F 	F 	0.17290 0.07940 0.25380 -1.17600
F 	F 	0.19708 0.03960 0.23830 -0.18000
F 	F 	0.18145 0.95750 0.32040 0.20300
F 	F 	0.16460 0.07670 0.24950 0.66900
F 	F 	0.14270 0.72310 0.24300 -0.05000
F 	F 	0.13320 0.67730 0.12090 -0.07000
F 	F 	0.16500 0.67150 0.19640 -0.47600
F 	F 	0.14550 0.70670 0.24220 -0.07900
F 	F 	0.12130 0.73090 0.17850 -0.15100
F 	F 	0.15550 0.65800 0.14770 -0.58900
F 	F 	0.15640 0.70080 0.24330 -0.15900
F 	F 	0.16620 0.66850 0.16190 0.39800
F 	F 	0.12670 0.70110 0.13220 -0.27600
F 	F 	0.13330 0.71960 0.22840 -0.25000
F 	F 	0.14250 0.66130 0.12760 -0.07900
F 	F 	0.15969 0.20830 0.88560 -0.38300
F 	F 	0.16900 0.26150 0.99680 0.09300
F 	F 	0.14009 0.28520 0.96330 0.18600
F 	F 	0.15100 0.28830 0.99450 -0.49200
F 	F 	0.15050 0.22500 0.88630 -0.02400
F 	F 	0.17590 0.24560 0.98990 -0.47100
F 	F 	0.13840 0.26320 0.92340 -0.45700
F 	F 	0.17810 0.22740 0.96470 0.01400
F 	F 	0.10500 0.07770 0.17170 0.16700
F 	F 	0.08850 0.13820 0.08680 4.66800
F 	F 	0.08600 0.99930 0.08630 0.91800
F 	F 	0.08405 0.02650 0.07040 -1.31700
F 	F 	0.10650 0.04660 0.17760 -1.90400
F 	F 	0.09550 0.16260 0.10750 -9.29700
F 	F 	0.09780 0.14360 0.13490 6.36400
F 	F 	0.08350 0.05990 0.06410 0.08600
F 	F 	0.10250 0.01750 0.16710 1.42200
F 	F 	0.25975 0.73710 0.34110 -0.93300
F 	F 	0.28770 0.73580 0.42150 0.22600
F 	F 	0.28010 0.62550 0.35220 1.24900
F 	F 	0.20330 0.85430 0.60690 -0.41800
F 	F 	0.22820 0.86780 0.66980 -2.14300
F 	F 	0.22120 0.73170 0.59940 -0.62700
F 	F 	0.23420 0.83030 0.67230 1.12900
F 	F 	0.23520 0.73110 0.63730 0.50100
F 	F 	0.20780 0.80640 0.58050 -0.30400
F 	F 	0.35620 0.83260 0.36950 -0.39800
F 	F 	0.36630 0.85290 0.25300 -0.20500
F 	F 	0.36697 0.74640 0.28460 -0.18100
F 	F 	0.14080 0.69300 0.63480 0.07500
F 	F 	0.14180 0.59280 0.72770 0.16100
F 	F 	0.13080 0.71260 0.72760 -0.27500
F 	F 	0.14850 0.56930 0.70210 -0.35800
F 	F 	0.14290 0.63140 0.64460 -0.07800
F 	F 	0.13740 0.61180 0.75210 -0.28200
F 	F 	0.01800 0.70490 0.94600 -0.08400
F 	F 	0.02070 0.73660 0.83010 0.26800
F 	F 	0.04356 0.78340 0.92390 -0.57900
F 	F 	0.04293 0.79570 0.90080 0.12000
F 	F 	0.02100 0.71380 0.96540 -0.24700
F 	F 	0.01625 0.71920 0.84460 -0.65000
F 	F 	0.96317 0.91730 0.72710 -0.41900
F 	F 	0.94629 0.01530 0.79600 0.05100
F 	F 	0.94112 0.87670 0.80310 -0.51400
F 	F 	0.96781 0.94900 0.73060 -0.14500
F 	F 	0.94229 0.97950 0.79430 -0.64600
F 	F 	0.94670 0.84510 0.78620 -0.09200
F 	F 	0.05849 0.34900 0.56770 -0.22800
F 	F 	0.05742 0.22580 0.60580 -0.76900
F 	F 	0.06754 0.31390 0.69290 -0.11100
F 	F 	0.06200 0.36740 0.59380 -0.21900
F 	F 	0.05157 0.21880 0.58030 0.26200
F 	F 	0.06845 0.27960 0.67940 -0.31800
F 	F 	0.00430 0.55650 0.61580 -0.18300
F 	F 	0.97500 0.52400 0.66210 -0.23900
F 	F 	0.97600 0.48140 0.54860 -0.31600
F 	F 	0.98850 0.54490 0.68440 -0.17700
F 	F 	0.99870 0.53540 0.56990 -0.39000
F 	F 	0.96810 0.48980 0.60370 -0.35300
Cu	Cu	0.65451 0.44373 0.02131 0.94200
Cu	Cu	0.79270 0.30629 0.13561 0.89200
O 	O 	0.63848 0.40300 0.92010 -0.19000
O 	O 	0.79820 0.36110 0.04008 -0.27100
O 	O 	0.67086 0.48210 0.12100 -0.14300
O 	O 	0.65147 0.31800 0.07570 -0.20600
O 	O 	0.66038 0.57370 0.97860 -0.23700
O 	O 	0.62716 0.48440 0.05620 -0.56200
O 	O 	0.78512 0.24210 0.22620 -0.24000
O 	O 	0.82721 0.30620 0.19190 -0.24100
O 	O 	0.51348 0.38870 0.97030 -0.20700
O 	O 	0.47427 0.48360 0.90820 -0.18000
O 	O 	0.52457 0.75450 0.69050 -0.22600
O 	O 	0.48638 0.85980 0.68070 -0.15000
N 	N 	0.51845 0.56550 0.92820 -0.19200
N 	N 	0.51829 0.66110 0.82520 -0.17600
N 	N 	0.61733 0.40010 0.90690 -0.20100
N 	N 	0.70347 0.30780 0.91690 -0.20500
N 	N 	0.68273 0.40770 0.97980 -0.19700
N 	N 	0.79994 0.44400 0.03220 -0.20700
C 	C 	0.54004 0.55200 0.92580 0.08700
H 	H 	0.54750 0.51430 0.96190 0.04300
C 	C 	0.50845 0.62030 0.87870 0.13600
H 	H 	0.49330 0.63120 0.88160 0.03000
C 	C 	0.53972 0.64630 0.82240 0.08900
H 	H 	0.54700 0.67460 0.78460 0.07400
C 	C 	0.55185 0.59090 0.87300 -0.04200
C 	C 	0.57549 0.57370 0.86600 0.19100
C 	C 	0.58492 0.49570 0.89020 -0.19900
H 	H 	0.57630 0.45380 0.91300 0.11600
C 	C 	0.60686 0.47860 0.88150 0.21800
C 	C 	0.61941 0.53950 0.84740 -0.18600
H 	H 	0.63430 0.52780 0.84070 0.18400
C 	C 	0.61011 0.61620 0.82340 0.15300
H 	H 	0.61870 0.65770 0.80020 0.10300
C 	C 	0.58837 0.63420 0.83270 -0.15400
H 	H 	0.58220 0.68810 0.81640 0.18700
C 	C 	0.60604 0.31470 0.91330 0.99100
C 	C 	0.58997 0.30120 0.84320 -1.39300
H 	H 	0.57870 0.34640 0.84050 0.50900
H 	H 	0.59790 0.30370 0.79790 0.48700
H 	H 	0.58290 0.24460 0.84590 0.53600
C 	C 	0.59511 0.31200 0.98740 -1.40100
H 	H 	0.58380 0.35670 0.98650 0.50800
H 	H 	0.58840 0.25530 0.99290 0.55800
H 	H 	0.60620 0.32220 0.03010 0.50200
C 	C 	0.62379 0.24480 0.91650 -1.34400
H 	H 	0.63100 0.24590 0.86960 0.48800
H 	H 	0.63470 0.25560 0.95960 0.45100
H 	H 	0.61700 0.18820 0.92230 0.47700
C 	C 	0.72100 0.35930 0.92730 0.09800
H 	H 	0.73410 0.34300 0.90650 0.02600
C 	C 	0.68479 0.33370 0.94350 0.17500
H 	H 	0.67230 0.29700 0.93610 -0.02700
C 	C 	0.70061 0.45830 0.99300 0.10900
H 	H 	0.69950 0.51060 0.02020 0.06400
C 	C 	0.72068 0.43620 0.96770 -0.05300
C 	C 	0.74091 0.48720 0.98570 0.16300
C 	C 	0.76094 0.44520 0.99850 -0.16300
H 	H 	0.76150 0.38420 0.99350 0.10200
C 	C 	0.78025 0.49110 0.01850 0.16200
C 	C 	0.77919 0.58080 0.02630 -0.16600
H 	H 	0.79210 0.61310 0.04100 0.11800
C 	C 	0.75933 0.62150 0.01250 0.14800
H 	H 	0.75880 0.68250 0.01700 0.08600
C 	C 	0.74016 0.57710 0.99240 -0.12700
H 	H 	0.72660 0.60700 0.98320 0.17800
C 	C 	0.82295 0.48130 0.03550 1.02500
C 	C 	0.82454 0.53470 0.96410 -1.50200
H 	H 	0.81450 0.58380 0.96390 0.54600
H 	H 	0.82060 0.49880 0.91950 0.54000
H 	H 	0.83960 0.55580 0.96320 0.60000
C 	C 	0.83894 0.40560 0.03510 -1.40900
H 	H 	0.83590 0.37280 0.98810 0.50500
H 	H 	0.83720 0.36790 0.07840 0.45700
H 	H 	0.85400 0.42740 0.03850 0.49400
C 	C 	0.82821 0.53130 0.10910 -1.44100
H 	H 	0.81790 0.57960 0.11090 0.51700
H 	H 	0.84330 0.55360 0.11150 0.55800
H 	H 	0.82680 0.49300 0.15220 0.50600
C 	C 	0.67870 0.50370 0.25010 1.17000
C 	C 	0.66951 0.44870 0.18520 -0.17600
C 	C 	0.66065 0.36870 0.20170 0.12500
H 	H 	0.65980 0.35390 0.25320 0.10400
C 	C 	0.65306 0.30980 0.14640 -0.12500
C 	C 	0.64626 0.22110 0.17280 1.17600
C 	C 	0.65498 0.71970 0.95660 0.91500
C 	C 	0.64826 0.63520 0.99140 0.30300
C 	C 	0.62988 0.63530 0.03280 -0.76300
H 	H 	0.62310 0.68900 0.04180 0.64800
C 	C 	0.62124 0.56210 0.06100 1.20000
C 	C 	0.60109 0.56990 0.10420 -1.85700
C 	C 	0.78161 0.20880 0.35130 0.54800
C 	C 	0.79529 0.24480 0.29160 0.19000
C 	C 	0.81625 0.27380 0.31310 -0.07900
H 	H 	0.82120 0.27490 0.36550 0.19300
C 	C 	0.83052 0.30140 0.26230 0.03600
C 	C 	0.85381 0.32730 0.29330 0.94800
C 	C 	0.52225 0.26820 0.90320 0.85100
C 	C 	0.50763 0.34530 0.91190 0.00000
C 	C 	0.49018 0.35940 0.85730 0.05100
H 	H 	0.48840 0.32090 0.81550 0.13400
C 	C 	0.47515 0.42650 0.85970 -0.09700
C 	C 	0.45706 0.42950 0.79360 1.07800
C 	C 	0.55365 0.79810 0.62550 1.04600
C 	C 	0.53075 0.81550 0.64960 -0.01600
C 	C 	0.51960 0.88890 0.62650 0.03100
H 	H 	0.52660 0.92980 0.59720 0.20100
C 	C 	0.49832 0.90590 0.64450 0.05400
C 	C 	0.48740 0.99820 0.61010 1.26400
F 	F 	0.70163 0.50810 0.25150 -0.26900
F 	F 	0.67453 0.48000 0.31610 -0.74600
F 	F 	0.67290 0.57940 0.25380 -1.20700
F 	F 	0.69708 0.53960 0.23830 -0.18100
F 	F 	0.68145 0.45750 0.32040 0.21100
F 	F 	0.66460 0.57670 0.24950 0.69700
F 	F 	0.64270 0.22310 0.24300 -0.05100
F 	F 	0.63320 0.17730 0.12090 -0.07000
F 	F 	0.66500 0.17150 0.19640 -0.47900
F 	F 	0.64550 0.20670 0.24220 -0.07900
F 	F 	0.62130 0.23090 0.17850 -0.15100
F 	F 	0.65550 0.15800 0.14770 -0.59100
F 	F 	0.65640 0.20080 0.24330 -0.15900
F 	F 	0.66620 0.16850 0.16190 0.40100
F 	F 	0.62670 0.20110 0.13220 -0.27800
F 	F 	0.63330 0.21960 0.22840 -0.25000
F 	F 	0.64250 0.16130 0.12760 -0.07900
F 	F 	0.65969 0.70830 0.88560 -0.38200
F 	F 	0.66900 0.76150 0.99680 0.09200
F 	F 	0.64009 0.78520 0.96330 0.18600
F 	F 	0.65100 0.78830 0.99450 -0.49100
F 	F 	0.65050 0.72500 0.88630 -0.02400
F 	F 	0.67590 0.74560 0.98990 -0.47000
F 	F 	0.63840 0.76320 0.92340 -0.45600
F 	F 	0.67810 0.72740 0.96470 0.01500
F 	F 	0.60500 0.57770 0.17170 0.16500
F 	F 	0.58850 0.63820 0.08680 4.69700
F 	F 	0.58600 0.49930 0.08630 0.93000
F 	F 	0.58405 0.52650 0.07040 -1.34800
F 	F 	0.60650 0.54660 0.17760 -1.90900
F 	F 	0.59550 0.66260 0.10750 -9.35900
F 	F 	0.59780 0.64360 0.13490 6.41100
F 	F 	0.58350 0.55990 0.06410 0.11100
F 	F 	0.60250 0.51750 0.16710 1.43300
F 	F 	0.75975 0.23710 0.34110 -0.93400
F 	F 	0.78770 0.23580 0.42150 0.22500
F 	F 	0.78010 0.12550 0.35220 1.24800
F 	F 	0.70330 0.35430 0.60690 -0.41900
F 	F 	0.72820 0.36780 0.66980 -2.14400
F 	F 	0.72120 0.23170 0.59940 -0.62700
F 	F 	0.73420 0.33030 0.67230 1.12900
F 	F 	0.73520 0.23110 0.63730 0.50000
F 	F 	0.70780 0.30640 0.58050 -0.30400
F 	F 	0.85620 0.33260 0.36950 -0.39900
F 	F 	0.86630 0.35290 0.25300 -0.20600
F 	F 	0.86697 0.24640 0.28460 -0.18100
F 	F 	0.64080 0.19300 0.63480 0.07600
F 	F 	0.64180 0.09280 0.72770 0.16100
F 	F 	0.63080 0.21260 0.72760 -0.27500
F 	F 	0.64850 0.06930 0.70210 -0.35900
F 	F 	0.64290 0.13140 0.64460 -0.07800
F 	F 	0.63740 0.11180 0.75210 -0.28100
F 	F 	0.51800 0.20490 0.94600 -0.08300
F 	F 	0.52070 0.23660 0.83010 0.26000
F 	F 	0.54356 0.28340 0.92390 -0.58000
F 	F 	0.54293 0.29570 0.90080 0.12000
F 	F 	0.52100 0.21380 0.96540 -0.24800
F 	F 	0.51625 0.21920 0.84460 -0.64300
F 	F 	0.46317 0.41730 0.72710 -0.41300
F 	F 	0.44629 0.51530 0.79600 0.09300
F 	F 	0.44112 0.37670 0.80310 -0.50900
F 	F 	0.46781 0.44900 0.73060 -0.15600
F 	F 	0.44229 0.47950 0.79430 -0.68900
F 	F 	0.44670 0.34510 0.78620 -0.09600
F 	F 	0.55849 0.84900 0.56770 -0.22900
F 	F 	0.55742 0.72580 0.60580 -0.77000
F 	F 	0.56754 0.81390 0.69290 -0.11100
F 	F 	0.56200 0.86740 0.59380 -0.21900
F 	F 	0.55157 0.71880 0.58030 0.26300
F 	F 	0.56845 0.77960 0.67940 -0.31800
F 	F 	0.50430 0.05650 0.61580 -0.18400
F 	F 	0.47500 0.02400 0.66210 -0.24100
F 	F 	0.47600 0.98140 0.54860 -0.31600
F 	F 	0.48850 0.04490 0.68440 -0.17800
F 	F 	0.49870 0.03540 0.56990 -0.39200
F 	F 	0.46810 0.98980 0.60370 -0.35300
Cu	Cu	0.00000 0.00000 0.50000 0.92300
Cu	Cu	0.50000 0.50000 0.50000 0.92800
Cu	Cu	-0.00000 0.00000 -0.00000 0.91900
Cu	Cu	0.50000 0.50000 -0.00000 0.92300
Cu	Cu	0.00000 0.74328 0.25000 0.93400
Cu	Cu	0.50000 0.24328 0.25000 0.93400
Cu	Cu	0.00000 0.25672 0.75000 0.93400
Cu	Cu	0.50000 0.75672 0.75000 0.93500
