data_crystal

_cell_length_a 15.14960
_cell_length_b 15.14960
_cell_length_c 18.65970
_cell_angle_alpha 90.00000
_cell_angle_beta  90.00000
_cell_angle_gamma 90.00000

_symmetry_space_group_name_	'P 1'
_symmetry_space_group_name_H-M	'P 1'

loop_
_symmetry_equiv_pos_as_xyz
  x,y,z

loop_
_atom_site_label
_atom_site_type_symbol
_atom_site_fract_x
_atom_site_fract_y
_atom_site_fract_z
_atom_site_charge
O 	O 	0.61070 0.56700 0.06370 -0.39900
C 	C 	0.74810 0.68530 0.06450 0.04000
C 	C 	0.53120 0.41390 0.21080 -0.01200
C 	C 	0.58280 0.45370 0.20390 0.04100
O 	O 	0.11070 0.06700 0.56370 -0.43000
C 	C 	0.24810 0.18530 0.56450 0.02200
C 	C 	0.03120 0.91390 0.71080 -0.17000
C 	C 	0.08280 0.95370 0.70390 0.32200
O 	O 	0.38930 0.43300 0.06370 -0.40300
C 	C 	0.25190 0.31470 0.06450 0.02800
C 	C 	0.46880 0.58610 0.21080 -0.00700
C 	C 	0.41720 0.54630 0.20390 0.03200
O 	O 	0.88930 0.93300 0.56370 -0.35900
C 	C 	0.75190 0.81470 0.56450 0.04500
C 	C 	0.96880 0.08610 0.71080 0.19800
C 	C 	0.91720 0.04630 0.70390 -0.23500
O 	O 	0.43300 0.61070 0.06370 -0.40000
C 	C 	0.31470 0.74810 0.06450 0.03600
C 	C 	0.58610 0.53120 0.21080 -0.01300
C 	C 	0.54630 0.58280 0.20390 0.04300
O 	O 	0.93300 0.11070 0.56370 -0.38400
C 	C 	0.81470 0.24810 0.56450 0.03700
C 	C 	0.08610 0.03120 0.71080 -0.28300
C 	C 	0.04630 0.08280 0.70390 0.11200
O 	O 	0.56700 0.38930 0.06370 -0.40100
C 	C 	0.68530 0.25190 0.06450 0.03300
C 	C 	0.41390 0.46880 0.21080 -0.00500
C 	C 	0.45370 0.41720 0.20390 0.03000
O 	O 	0.06700 0.88930 0.56370 -0.39500
C 	C 	0.18530 0.75190 0.56450 0.03200
C 	C 	0.91390 0.96880 0.71080 0.29300
C 	C 	0.95370 0.91720 0.70390 -0.03600
O 	O 	0.38930 0.56700 0.43630 -0.40600
C 	C 	0.25190 0.68530 0.43550 0.03300
C 	C 	0.46880 0.41390 0.28920 -0.00200
C 	C 	0.41720 0.45370 0.29610 0.02900
O 	O 	0.88930 0.06700 0.93630 -0.36100
C 	C 	0.75190 0.18530 0.93550 0.06600
C 	C 	0.96880 0.91390 0.78920 0.29500
C 	C 	0.91720 0.95370 0.79610 -0.03900
O 	O 	0.61070 0.43300 0.43630 -0.40500
C 	C 	0.74810 0.31470 0.43550 0.03600
C 	C 	0.53120 0.58610 0.28920 -0.01100
C 	C 	0.58280 0.54630 0.29610 0.04200
O 	O 	0.11070 0.93300 0.93630 -0.35000
C 	C 	0.24810 0.81470 0.93550 0.07100
C 	C 	0.03120 0.08610 0.78920 -0.28000
C 	C 	0.08280 0.04630 0.79610 0.11200
O 	O 	0.56700 0.61070 0.43630 -0.40300
C 	C 	0.68530 0.74810 0.43550 0.04100
C 	C 	0.41390 0.53120 0.28920 -0.00800
C 	C 	0.45370 0.58280 0.29610 0.04000
O 	O 	0.06700 0.11070 0.93630 -0.39400
C 	C 	0.18530 0.24810 0.93550 0.05700
C 	C 	0.91390 0.03120 0.78920 -0.16400
C 	C 	0.95370 0.08280 0.79610 0.31900
O 	O 	0.43300 0.38930 0.43630 -0.40800
C 	C 	0.31470 0.25190 0.43550 0.02700
C 	C 	0.58610 0.46880 0.28920 -0.00400
C 	C 	0.54630 0.41720 0.29610 0.03000
O 	O 	0.93300 0.88930 0.93630 -0.32500
C 	C 	0.81470 0.75190 0.93550 0.07900
C 	C 	0.08610 0.96880 0.78920 0.19800
C 	C 	0.04630 0.91720 0.79610 -0.23400
O 	O 	0.38930 0.43300 0.93630 -0.37200
C 	C 	0.25190 0.31470 0.93550 0.06300
C 	C 	0.46880 0.58610 0.78920 -0.00200
C 	C 	0.41720 0.54630 0.79610 0.02900
O 	O 	0.88930 0.93300 0.43630 -0.36000
C 	C 	0.75190 0.81470 0.43550 0.04400
C 	C 	0.96880 0.08610 0.28920 0.19800
C 	C 	0.91720 0.04630 0.29610 -0.23600
O 	O 	0.61070 0.56700 0.93630 -0.36700
C 	C 	0.74810 0.68530 0.93550 0.07600
C 	C 	0.53120 0.41390 0.78920 -0.00600
C 	C 	0.58280 0.45370 0.79610 0.04000
O 	O 	0.11070 0.06700 0.43630 -0.42900
C 	C 	0.24810 0.18530 0.43550 0.02100
C 	C 	0.03120 0.91390 0.28920 -0.16900
C 	C 	0.08280 0.95370 0.29610 0.32200
O 	O 	0.56700 0.38930 0.93630 -0.37000
C 	C 	0.68530 0.25190 0.93550 0.06800
C 	C 	0.41390 0.46880 0.78920 0.00000
C 	C 	0.45370 0.41720 0.79610 0.02800
O 	O 	0.06700 0.88930 0.43630 -0.39600
C 	C 	0.18530 0.75190 0.43550 0.03100
C 	C 	0.91390 0.96880 0.28920 0.29300
C 	C 	0.95370 0.91720 0.29610 -0.03600
O 	O 	0.43300 0.61070 0.93630 -0.36900
C 	C 	0.31470 0.74810 0.93550 0.07100
C 	C 	0.58610 0.53120 0.78920 -0.00800
C 	C 	0.54630 0.58280 0.79610 0.04100
O 	O 	0.93300 0.11070 0.43630 -0.38500
C 	C 	0.81470 0.24810 0.43550 0.03600
C 	C 	0.08610 0.03120 0.28920 -0.28300
C 	C 	0.04630 0.08280 0.29610 0.11100
O 	O 	0.61070 0.43300 0.56370 -0.40400
C 	C 	0.74810 0.31470 0.56450 0.03700
C 	C 	0.53120 0.58610 0.71080 -0.01000
C 	C 	0.58280 0.54630 0.70390 0.04300
O 	O 	0.11070 0.93300 0.06370 -0.38000
C 	C 	0.24810 0.81470 0.06450 0.03600
C 	C 	0.03120 0.08610 0.21080 -0.28500
C 	C 	0.08280 0.04630 0.20390 0.11400
O 	O 	0.38930 0.56700 0.56370 -0.40600
C 	C 	0.25190 0.68530 0.56450 0.03400
C 	C 	0.46880 0.41390 0.71080 -0.00200
C 	C 	0.41720 0.45370 0.70390 0.03000
O 	O 	0.88930 0.06700 0.06370 -0.39100
C 	C 	0.75190 0.18530 0.06450 0.03200
C 	C 	0.96880 0.91390 0.21080 0.28900
C 	C 	0.91720 0.95370 0.20390 -0.03700
O 	O 	0.43300 0.38930 0.56370 -0.40700
C 	C 	0.31470 0.25190 0.56450 0.02800
C 	C 	0.58610 0.46880 0.71080 -0.00400
C 	C 	0.54630 0.41720 0.70390 0.03100
O 	O 	0.93300 0.88930 0.06370 -0.35500
C 	C 	0.81470 0.75190 0.06450 0.04500
C 	C 	0.08610 0.96880 0.21080 0.19300
C 	C 	0.04630 0.91720 0.20390 -0.23200
O 	O 	0.56700 0.61070 0.56370 -0.40300
C 	C 	0.68530 0.74810 0.56450 0.04200
C 	C 	0.41390 0.53120 0.71080 -0.00800
C 	C 	0.45370 0.58280 0.70390 0.04100
O 	O 	0.06700 0.11070 0.06370 -0.42400
C 	C 	0.18530 0.24810 0.06450 0.02200
C 	C 	0.91390 0.03120 0.21080 -0.16900
C 	C 	0.95370 0.08280 0.20390 0.32100
Ni	Ni	0.50000 0.50000 0.07190 1.08300
N 	N 	0.50000 0.50000 0.18190 -0.19700
Ni	Ni	0.00000 0.00000 0.57190 1.04200
N 	N 	-0.00000 0.00000 0.68190 -0.27300
Ni	Ni	0.50000 0.50000 0.42810 1.08800
N 	N 	0.50000 0.50000 0.31810 -0.19600
Ni	Ni	0.00000 0.00000 0.92810 1.04600
N 	N 	-0.00000 -0.00000 0.81810 -0.27400
Ni	Ni	0.50000 0.50000 0.92810 1.09300
N 	N 	0.50000 0.50000 0.81810 -0.19800
Ni	Ni	0.00000 0.00000 0.42810 1.04200
N 	N 	0.00000 0.00000 0.31810 -0.27200
Ni	Ni	0.50000 0.50000 0.57190 1.08900
N 	N 	0.50000 0.50000 0.68190 -0.19700
Ni	Ni	0.00000 0.00000 0.07190 1.03700
N 	N 	-0.00000 -0.00000 0.18190 -0.27200
C 	C 	0.63470 0.58970 -0.00000 0.26200
C 	C 	0.71460 0.65290 -0.00000 -0.09800
C 	C 	0.13470 0.08970 0.50000 0.29000
C 	C 	0.21460 0.15290 0.50000 -0.06800
C 	C 	0.36530 0.41030 -0.00000 0.25700
C 	C 	0.28540 0.34710 -0.00000 -0.10100
C 	C 	0.86530 0.91030 0.50000 0.30400
C 	C 	0.78540 0.84710 0.50000 -0.05800
C 	C 	0.41030 0.63470 -0.00000 0.25900
C 	C 	0.34710 0.71460 -0.00000 -0.09900
C 	C 	0.91030 0.13470 0.50000 0.29500
C 	C 	0.84710 0.21460 0.50000 -0.06100
C 	C 	0.58970 0.36530 -0.00000 0.25900
C 	C 	0.65290 0.28540 -0.00000 -0.10000
C 	C 	0.08970 0.86530 0.50000 0.30000
C 	C 	0.15290 0.78540 0.50000 -0.06400
C 	C 	0.36530 0.58970 0.50000 0.30000
C 	C 	0.28540 0.65290 0.50000 -0.06400
C 	C 	0.86530 0.08970 -0.00000 0.26000
C 	C 	0.78540 0.15290 -0.00000 -0.10000
C 	C 	0.63470 0.41030 0.50000 0.30000
C 	C 	0.71460 0.34710 0.50000 -0.06300
C 	C 	0.13470 0.91030 -0.00000 0.25600
C 	C 	0.21460 0.84710 -0.00000 -0.09600
C 	C 	0.58970 0.63470 0.50000 0.30200
C 	C 	0.65290 0.71460 0.50000 -0.06200
C 	C 	0.08970 0.13470 -0.00000 0.25100
C 	C 	0.15290 0.21460 -0.00000 -0.10300
C 	C 	0.41030 0.36530 0.50000 0.29800
C 	C 	0.34710 0.28540 0.50000 -0.06600
C 	C 	0.91030 0.86530 -0.00000 0.26400
C 	C 	0.84710 0.78540 -0.00000 -0.09300
