data_crystal

_cell_length_a 26.81600
_cell_length_b 26.81600
_cell_length_c 26.81600
_cell_angle_alpha 90.00000
_cell_angle_beta  90.00000
_cell_angle_gamma 90.00000

_symmetry_space_group_name_	'P 1'
_symmetry_space_group_name_H-M	'P 1'

loop_
_symmetry_equiv_pos_as_xyz
  x,y,z

loop_
_atom_site_label
_atom_site_type_symbol
_atom_site_fract_x
_atom_site_fract_y
_atom_site_fract_z
_atom_site_charge
H 	H 	0.59340 0.02920 0.30450 0.76500
O 	O 	0.55418 0.05256 0.12751 -0.48100
O 	O 	0.55100 0.05080 0.21040 -0.48500
C 	C 	0.57000 0.06400 0.17020 0.40500
C 	C 	0.75080 0.17770 0.19750 0.01500
C 	C 	0.76240 0.21890 0.16720 -0.08500
H 	H 	0.74260 0.22580 0.13950 0.05500
C 	C 	0.61550 0.09490 0.17490 -0.18000
C 	C 	0.64210 0.11280 0.13380 0.07600
H 	H 	0.63070 0.10630 0.10170 -0.00300
C 	C 	0.68520 0.14000 0.14090 -0.15300
H 	H 	0.70180 0.15300 0.11330 0.07400
C 	C 	0.70440 0.14860 0.18840 0.07400
C 	C 	0.67700 0.13160 0.22880 -0.16300
H 	H 	0.68850 0.13800 0.26090 0.08300
C 	C 	0.63270 0.10540 0.22250 0.09100
H 	H 	0.61470 0.09480 0.25020 -0.02600
H 	H 	0.40660 0.97080 0.30450 0.77900
O 	O 	0.44582 0.94744 0.12751 -0.47000
O 	O 	0.44900 0.94920 0.21040 -0.47400
C 	C 	0.43000 0.93600 0.17020 0.40400
C 	C 	0.24920 0.82230 0.19750 0.01600
C 	C 	0.23760 0.78110 0.16720 -0.08500
H 	H 	0.25740 0.77420 0.13950 0.05500
C 	C 	0.38450 0.90510 0.17490 -0.17500
C 	C 	0.35790 0.88720 0.13380 0.07500
H 	H 	0.36930 0.89370 0.10170 0.00000
C 	C 	0.31480 0.86000 0.14090 -0.15000
H 	H 	0.29820 0.84700 0.11330 0.07400
C 	C 	0.29560 0.85140 0.18840 0.07400
C 	C 	0.32300 0.86840 0.22880 -0.16000
H 	H 	0.31150 0.86200 0.26090 0.08400
C 	C 	0.36730 0.89460 0.22250 0.09000
H 	H 	0.38530 0.90520 0.25020 -0.02300
H 	H 	0.40660 0.02920 0.69550 0.76500
O 	O 	0.44582 0.05256 0.87249 -0.47900
O 	O 	0.44900 0.05080 0.78960 -0.48400
C 	C 	0.43000 0.06400 0.82980 0.40400
C 	C 	0.24920 0.17770 0.80250 0.01500
C 	C 	0.23760 0.21890 0.83280 -0.08500
H 	H 	0.25740 0.22580 0.86050 0.05700
C 	C 	0.38450 0.09490 0.82510 -0.17900
C 	C 	0.35790 0.11280 0.86620 0.07500
H 	H 	0.36930 0.10630 0.89830 0.00100
C 	C 	0.31480 0.14000 0.85910 -0.15200
H 	H 	0.29820 0.15300 0.88670 0.07700
C 	C 	0.29560 0.14860 0.81160 0.07400
C 	C 	0.32300 0.13160 0.77120 -0.16300
H 	H 	0.31150 0.13800 0.73910 0.08300
C 	C 	0.36730 0.10540 0.77750 0.09000
H 	H 	0.38530 0.09480 0.74980 -0.02500
H 	H 	0.59340 0.97080 0.69550 0.78000
O 	O 	0.55418 0.94744 0.87249 -0.46700
O 	O 	0.55100 0.94920 0.78960 -0.47400
C 	C 	0.57000 0.93600 0.82980 0.40300
C 	C 	0.75080 0.82230 0.80250 0.01900
C 	C 	0.76240 0.78110 0.83280 -0.08700
H 	H 	0.74260 0.77420 0.86050 0.05900
C 	C 	0.61550 0.90510 0.82510 -0.17300
C 	C 	0.64210 0.88720 0.86620 0.07400
H 	H 	0.63070 0.89370 0.89830 0.00500
C 	C 	0.68520 0.86000 0.85910 -0.14800
H 	H 	0.70180 0.84700 0.88670 0.07900
C 	C 	0.70440 0.85140 0.81160 0.07400
C 	C 	0.67700 0.86840 0.77120 -0.15900
H 	H 	0.68850 0.86200 0.73910 0.08300
C 	C 	0.63270 0.89460 0.77750 0.09000
H 	H 	0.61470 0.90520 0.74980 -0.02300
H 	H 	0.30450 0.59340 0.02920 0.76500
O 	O 	0.12751 0.55418 0.05256 -0.48100
O 	O 	0.21040 0.55100 0.05080 -0.48500
C 	C 	0.17020 0.57000 0.06400 0.40500
C 	C 	0.19750 0.75080 0.17770 0.01500
C 	C 	0.16720 0.76240 0.21890 -0.08500
H 	H 	0.13950 0.74260 0.22580 0.05500
C 	C 	0.17490 0.61550 0.09490 -0.18000
C 	C 	0.13380 0.64210 0.11280 0.07600
H 	H 	0.10170 0.63070 0.10630 -0.00300
C 	C 	0.14090 0.68520 0.14000 -0.15300
H 	H 	0.11330 0.70180 0.15300 0.07400
C 	C 	0.18840 0.70440 0.14860 0.07400
C 	C 	0.22880 0.67700 0.13160 -0.16300
H 	H 	0.26090 0.68850 0.13800 0.08300
C 	C 	0.22250 0.63270 0.10540 0.09100
H 	H 	0.25020 0.61470 0.09480 -0.02600
H 	H 	0.30450 0.40660 0.97080 0.77900
O 	O 	0.12751 0.44582 0.94744 -0.47000
O 	O 	0.21040 0.44900 0.94920 -0.47400
C 	C 	0.17020 0.43000 0.93600 0.40400
C 	C 	0.19750 0.24920 0.82230 0.01600
C 	C 	0.16720 0.23760 0.78110 -0.08500
H 	H 	0.13950 0.25740 0.77420 0.05500
C 	C 	0.17490 0.38450 0.90510 -0.17500
C 	C 	0.13380 0.35790 0.88720 0.07500
H 	H 	0.10170 0.36930 0.89370 0.00000
C 	C 	0.14090 0.31480 0.86000 -0.15000
H 	H 	0.11330 0.29820 0.84700 0.07400
C 	C 	0.18840 0.29560 0.85140 0.07400
C 	C 	0.22880 0.32300 0.86840 -0.16000
H 	H 	0.26090 0.31150 0.86200 0.08400
C 	C 	0.22250 0.36730 0.89460 0.09000
H 	H 	0.25020 0.38530 0.90520 -0.02300
H 	H 	0.69550 0.40660 0.02920 0.76500
O 	O 	0.87249 0.44582 0.05256 -0.47900
O 	O 	0.78960 0.44900 0.05080 -0.48400
C 	C 	0.82980 0.43000 0.06400 0.40400
C 	C 	0.80250 0.24920 0.17770 0.01500
C 	C 	0.83280 0.23760 0.21890 -0.08500
H 	H 	0.86050 0.25740 0.22580 0.05700
C 	C 	0.82510 0.38450 0.09490 -0.17900
C 	C 	0.86620 0.35790 0.11280 0.07500
H 	H 	0.89830 0.36930 0.10630 0.00100
C 	C 	0.85910 0.31480 0.14000 -0.15200
H 	H 	0.88670 0.29820 0.15300 0.07700
C 	C 	0.81160 0.29560 0.14860 0.07400
C 	C 	0.77120 0.32300 0.13160 -0.16300
H 	H 	0.73910 0.31150 0.13800 0.08300
C 	C 	0.77750 0.36730 0.10540 0.09000
H 	H 	0.74980 0.38530 0.09480 -0.02500
H 	H 	0.69550 0.59340 0.97080 0.78000
O 	O 	0.87249 0.55418 0.94744 -0.46700
O 	O 	0.78960 0.55100 0.94920 -0.47400
C 	C 	0.82980 0.57000 0.93600 0.40300
C 	C 	0.80250 0.75080 0.82230 0.01900
C 	C 	0.83280 0.76240 0.78110 -0.08700
H 	H 	0.86050 0.74260 0.77420 0.05900
C 	C 	0.82510 0.61550 0.90510 -0.17300
C 	C 	0.86620 0.64210 0.88720 0.07400
H 	H 	0.89830 0.63070 0.89370 0.00500
C 	C 	0.85910 0.68520 0.86000 -0.14800
H 	H 	0.88670 0.70180 0.84700 0.07900
C 	C 	0.81160 0.70440 0.85140 0.07400
C 	C 	0.77120 0.67700 0.86840 -0.15900
H 	H 	0.73910 0.68850 0.86200 0.08300
C 	C 	0.77750 0.63270 0.89460 0.09000
H 	H 	0.74980 0.61470 0.90520 -0.02300
H 	H 	0.02920 0.30450 0.59340 0.76500
O 	O 	0.05256 0.12751 0.55418 -0.48100
O 	O 	0.05080 0.21040 0.55100 -0.48500
C 	C 	0.06400 0.17020 0.57000 0.40500
C 	C 	0.17770 0.19750 0.75080 0.01500
C 	C 	0.21890 0.16720 0.76240 -0.08500
H 	H 	0.22580 0.13950 0.74260 0.05500
C 	C 	0.09490 0.17490 0.61550 -0.18000
C 	C 	0.11280 0.13380 0.64210 0.07600
H 	H 	0.10630 0.10170 0.63070 -0.00300
C 	C 	0.14000 0.14090 0.68520 -0.15300
H 	H 	0.15300 0.11330 0.70180 0.07400
C 	C 	0.14860 0.18840 0.70440 0.07400
C 	C 	0.13160 0.22880 0.67700 -0.16300
H 	H 	0.13800 0.26090 0.68850 0.08300
C 	C 	0.10540 0.22250 0.63270 0.09100
H 	H 	0.09480 0.25020 0.61470 -0.02600
H 	H 	0.97080 0.30450 0.40660 0.77900
O 	O 	0.94744 0.12751 0.44582 -0.47000
O 	O 	0.94920 0.21040 0.44900 -0.47400
C 	C 	0.93600 0.17020 0.43000 0.40400
C 	C 	0.82230 0.19750 0.24920 0.01600
C 	C 	0.78110 0.16720 0.23760 -0.08500
H 	H 	0.77420 0.13950 0.25740 0.05500
C 	C 	0.90510 0.17490 0.38450 -0.17500
C 	C 	0.88720 0.13380 0.35790 0.07500
H 	H 	0.89370 0.10170 0.36930 0.00000
C 	C 	0.86000 0.14090 0.31480 -0.15000
H 	H 	0.84700 0.11330 0.29820 0.07400
C 	C 	0.85140 0.18840 0.29560 0.07400
C 	C 	0.86840 0.22880 0.32300 -0.16000
H 	H 	0.86200 0.26090 0.31150 0.08400
C 	C 	0.89460 0.22250 0.36730 0.09000
H 	H 	0.90520 0.25020 0.38530 -0.02300
H 	H 	0.02920 0.69550 0.40660 0.76500
O 	O 	0.05256 0.87249 0.44582 -0.47900
O 	O 	0.05080 0.78960 0.44900 -0.48400
C 	C 	0.06400 0.82980 0.43000 0.40400
C 	C 	0.17770 0.80250 0.24920 0.01500
C 	C 	0.21890 0.83280 0.23760 -0.08500
H 	H 	0.22580 0.86050 0.25740 0.05700
C 	C 	0.09490 0.82510 0.38450 -0.17900
C 	C 	0.11280 0.86620 0.35790 0.07500
H 	H 	0.10630 0.89830 0.36930 0.00100
C 	C 	0.14000 0.85910 0.31480 -0.15200
H 	H 	0.15300 0.88670 0.29820 0.07700
C 	C 	0.14860 0.81160 0.29560 0.07400
C 	C 	0.13160 0.77120 0.32300 -0.16300
H 	H 	0.13800 0.73910 0.31150 0.08300
C 	C 	0.10540 0.77750 0.36730 0.09000
H 	H 	0.09480 0.74980 0.38530 -0.02500
H 	H 	0.97080 0.69550 0.59340 0.78000
O 	O 	0.94744 0.87249 0.55418 -0.46700
O 	O 	0.94920 0.78960 0.55100 -0.47400
C 	C 	0.93600 0.82980 0.57000 0.40300
C 	C 	0.82230 0.80250 0.75080 0.01900
C 	C 	0.78110 0.83280 0.76240 -0.08700
H 	H 	0.77420 0.86050 0.74260 0.05900
C 	C 	0.90510 0.82510 0.61550 -0.17300
C 	C 	0.88720 0.86620 0.64210 0.07400
H 	H 	0.89370 0.89830 0.63070 0.00500
C 	C 	0.86000 0.85910 0.68520 -0.14800
H 	H 	0.84700 0.88670 0.70180 0.07900
C 	C 	0.85140 0.81160 0.70440 0.07400
C 	C 	0.86840 0.77120 0.67700 -0.15900
H 	H 	0.86200 0.73910 0.68850 0.08300
C 	C 	0.89460 0.77750 0.63270 0.09000
H 	H 	0.90520 0.74980 0.61470 -0.02300
H 	H 	0.40660 0.97080 0.69550 0.78000
O 	O 	0.44582 0.94744 0.87249 -0.46700
O 	O 	0.44900 0.94920 0.78960 -0.47400
C 	C 	0.43000 0.93600 0.82980 0.40300
C 	C 	0.24920 0.82230 0.80250 0.01800
C 	C 	0.23760 0.78110 0.83280 -0.08600
H 	H 	0.25740 0.77420 0.86050 0.05800
C 	C 	0.38450 0.90510 0.82510 -0.17400
C 	C 	0.35790 0.88720 0.86620 0.07400
H 	H 	0.36930 0.89370 0.89830 0.00500
C 	C 	0.31480 0.86000 0.85910 -0.14800
H 	H 	0.29820 0.84700 0.88670 0.07800
C 	C 	0.29560 0.85140 0.81160 0.07400
C 	C 	0.32300 0.86840 0.77120 -0.16000
H 	H 	0.31150 0.86200 0.73910 0.08300
C 	C 	0.36730 0.89460 0.77750 0.09000
H 	H 	0.38530 0.90520 0.74980 -0.02300
H 	H 	0.59340 0.02920 0.69550 0.76500
O 	O 	0.55418 0.05256 0.87249 -0.47800
O 	O 	0.55100 0.05080 0.78960 -0.48400
C 	C 	0.57000 0.06400 0.82980 0.40400
C 	C 	0.75080 0.17770 0.80250 0.01700
C 	C 	0.76240 0.21890 0.83280 -0.08600
H 	H 	0.74260 0.22580 0.86050 0.05800
C 	C 	0.61550 0.09490 0.82510 -0.17900
C 	C 	0.64210 0.11280 0.86620 0.07500
H 	H 	0.63070 0.10630 0.89830 0.00100
C 	C 	0.68520 0.14000 0.85910 -0.15100
H 	H 	0.70180 0.15300 0.88670 0.07800
C 	C 	0.70440 0.14860 0.81160 0.07400
C 	C 	0.67700 0.13160 0.77120 -0.16300
H 	H 	0.68850 0.13800 0.73910 0.08300
C 	C 	0.63270 0.10540 0.77750 0.09000
H 	H 	0.61470 0.09480 0.74980 -0.02500
H 	H 	0.59340 0.97080 0.30450 0.78000
O 	O 	0.55418 0.94744 0.12751 -0.47000
O 	O 	0.55100 0.94920 0.21040 -0.47400
C 	C 	0.57000 0.93600 0.17020 0.40400
C 	C 	0.75080 0.82230 0.19750 0.01700
C 	C 	0.76240 0.78110 0.16720 -0.08600
H 	H 	0.74260 0.77420 0.13950 0.05600
C 	C 	0.61550 0.90510 0.17490 -0.17500
C 	C 	0.64210 0.88720 0.13380 0.07500
H 	H 	0.63070 0.89370 0.10170 0.00000
C 	C 	0.68520 0.86000 0.14090 -0.14900
H 	H 	0.70180 0.84700 0.11330 0.07500
C 	C 	0.70440 0.85140 0.18840 0.07400
C 	C 	0.67700 0.86840 0.22880 -0.16000
H 	H 	0.68850 0.86200 0.26090 0.08400
C 	C 	0.63270 0.89460 0.22250 0.09000
H 	H 	0.61470 0.90520 0.25020 -0.02300
H 	H 	0.40660 0.02920 0.30450 0.76500
O 	O 	0.44582 0.05256 0.12751 -0.48100
O 	O 	0.44900 0.05080 0.21040 -0.48500
C 	C 	0.43000 0.06400 0.17020 0.40500
C 	C 	0.24920 0.17770 0.19750 0.01300
C 	C 	0.23760 0.21890 0.16720 -0.08400
H 	H 	0.25740 0.22580 0.13950 0.05400
C 	C 	0.38450 0.09490 0.17490 -0.18000
C 	C 	0.35790 0.11280 0.13380 0.07500
H 	H 	0.36930 0.10630 0.10170 -0.00400
C 	C 	0.31480 0.14000 0.14090 -0.15300
H 	H 	0.29820 0.15300 0.11330 0.07300
C 	C 	0.29560 0.14860 0.18840 0.07400
C 	C 	0.32300 0.13160 0.22880 -0.16400
H 	H 	0.31150 0.13800 0.26090 0.08300
C 	C 	0.36730 0.10540 0.22250 0.09100
H 	H 	0.38530 0.09480 0.25020 -0.02600
H 	H 	0.69550 0.40660 0.97080 0.78000
O 	O 	0.87249 0.44582 0.94744 -0.46700
O 	O 	0.78960 0.44900 0.94920 -0.47400
C 	C 	0.82980 0.43000 0.93600 0.40300
C 	C 	0.80250 0.24920 0.82230 0.01800
C 	C 	0.83280 0.23760 0.78110 -0.08600
H 	H 	0.86050 0.25740 0.77420 0.05800
C 	C 	0.82510 0.38450 0.90510 -0.17400
C 	C 	0.86620 0.35790 0.88720 0.07400
H 	H 	0.89830 0.36930 0.89370 0.00500
C 	C 	0.85910 0.31480 0.86000 -0.14800
H 	H 	0.88670 0.29820 0.84700 0.07800
C 	C 	0.81160 0.29560 0.85140 0.07400
C 	C 	0.77120 0.32300 0.86840 -0.16000
H 	H 	0.73910 0.31150 0.86200 0.08300
C 	C 	0.77750 0.36730 0.89460 0.09000
H 	H 	0.74980 0.38530 0.90520 -0.02300
H 	H 	0.69550 0.59340 0.02920 0.76500
O 	O 	0.87249 0.55418 0.05256 -0.47800
O 	O 	0.78960 0.55100 0.05080 -0.48400
C 	C 	0.82980 0.57000 0.06400 0.40400
C 	C 	0.80250 0.75080 0.17770 0.01700
C 	C 	0.83280 0.76240 0.21890 -0.08600
H 	H 	0.86050 0.74260 0.22580 0.05800
C 	C 	0.82510 0.61550 0.09490 -0.17900
C 	C 	0.86620 0.64210 0.11280 0.07500
H 	H 	0.89830 0.63070 0.10630 0.00100
C 	C 	0.85910 0.68520 0.14000 -0.15100
H 	H 	0.88670 0.70180 0.15300 0.07800
C 	C 	0.81160 0.70440 0.14860 0.07400
C 	C 	0.77120 0.67700 0.13160 -0.16300
H 	H 	0.73910 0.68850 0.13800 0.08300
C 	C 	0.77750 0.63270 0.10540 0.09000
H 	H 	0.74980 0.61470 0.09480 -0.02500
H 	H 	0.30450 0.59340 0.97080 0.78000
O 	O 	0.12751 0.55418 0.94744 -0.47000
O 	O 	0.21040 0.55100 0.94920 -0.47400
C 	C 	0.17020 0.57000 0.93600 0.40400
C 	C 	0.19750 0.75080 0.82230 0.01700
C 	C 	0.16720 0.76240 0.78110 -0.08600
H 	H 	0.13950 0.74260 0.77420 0.05600
C 	C 	0.17490 0.61550 0.90510 -0.17500
C 	C 	0.13380 0.64210 0.88720 0.07500
H 	H 	0.10170 0.63070 0.89370 0.00000
C 	C 	0.14090 0.68520 0.86000 -0.14900
H 	H 	0.11330 0.70180 0.84700 0.07500
C 	C 	0.18840 0.70440 0.85140 0.07400
C 	C 	0.22880 0.67700 0.86840 -0.16000
H 	H 	0.26090 0.68850 0.86200 0.08400
C 	C 	0.22250 0.63270 0.89460 0.09000
H 	H 	0.25020 0.61470 0.90520 -0.02300
H 	H 	0.30450 0.40660 0.02920 0.76500
O 	O 	0.12751 0.44582 0.05256 -0.48100
O 	O 	0.21040 0.44900 0.05080 -0.48500
C 	C 	0.17020 0.43000 0.06400 0.40500
C 	C 	0.19750 0.24920 0.17770 0.01300
C 	C 	0.16720 0.23760 0.21890 -0.08400
H 	H 	0.13950 0.25740 0.22580 0.05400
C 	C 	0.17490 0.38450 0.09490 -0.18000
C 	C 	0.13380 0.35790 0.11280 0.07500
H 	H 	0.10170 0.36930 0.10630 -0.00400
C 	C 	0.14090 0.31480 0.14000 -0.15300
H 	H 	0.11330 0.29820 0.15300 0.07300
C 	C 	0.18840 0.29560 0.14860 0.07400
C 	C 	0.22880 0.32300 0.13160 -0.16400
H 	H 	0.26090 0.31150 0.13800 0.08300
C 	C 	0.22250 0.36730 0.10540 0.09100
H 	H 	0.25020 0.38530 0.09480 -0.02600
H 	H 	0.97080 0.69550 0.40660 0.78000
O 	O 	0.94744 0.87249 0.44582 -0.46700
O 	O 	0.94920 0.78960 0.44900 -0.47400
C 	C 	0.93600 0.82980 0.43000 0.40300
C 	C 	0.82230 0.80250 0.24920 0.01800
C 	C 	0.78110 0.83280 0.23760 -0.08600
H 	H 	0.77420 0.86050 0.25740 0.05800
C 	C 	0.90510 0.82510 0.38450 -0.17400
C 	C 	0.88720 0.86620 0.35790 0.07400
H 	H 	0.89370 0.89830 0.36930 0.00500
C 	C 	0.86000 0.85910 0.31480 -0.14800
H 	H 	0.84700 0.88670 0.29820 0.07800
C 	C 	0.85140 0.81160 0.29560 0.07400
C 	C 	0.86840 0.77120 0.32300 -0.16000
H 	H 	0.86200 0.73910 0.31150 0.08300
C 	C 	0.89460 0.77750 0.36730 0.09000
H 	H 	0.90520 0.74980 0.38530 -0.02300
H 	H 	0.02920 0.69550 0.59340 0.76500
O 	O 	0.05256 0.87249 0.55418 -0.47800
O 	O 	0.05080 0.78960 0.55100 -0.48400
C 	C 	0.06400 0.82980 0.57000 0.40400
C 	C 	0.17770 0.80250 0.75080 0.01700
C 	C 	0.21890 0.83280 0.76240 -0.08600
H 	H 	0.22580 0.86050 0.74260 0.05800
C 	C 	0.09490 0.82510 0.61550 -0.17900
C 	C 	0.11280 0.86620 0.64210 0.07500
H 	H 	0.10630 0.89830 0.63070 0.00100
C 	C 	0.14000 0.85910 0.68520 -0.15100
H 	H 	0.15300 0.88670 0.70180 0.07800
C 	C 	0.14860 0.81160 0.70440 0.07400
C 	C 	0.13160 0.77120 0.67700 -0.16300
H 	H 	0.13800 0.73910 0.68850 0.08300
C 	C 	0.10540 0.77750 0.63270 0.09000
H 	H 	0.09480 0.74980 0.61470 -0.02500
H 	H 	0.97080 0.30450 0.59340 0.78000
O 	O 	0.94744 0.12751 0.55418 -0.47000
O 	O 	0.94920 0.21040 0.55100 -0.47400
C 	C 	0.93600 0.17020 0.57000 0.40400
C 	C 	0.82230 0.19750 0.75080 0.01700
C 	C 	0.78110 0.16720 0.76240 -0.08600
H 	H 	0.77420 0.13950 0.74260 0.05600
C 	C 	0.90510 0.17490 0.61550 -0.17500
C 	C 	0.88720 0.13380 0.64210 0.07500
H 	H 	0.89370 0.10170 0.63070 0.00000
C 	C 	0.86000 0.14090 0.68520 -0.14900
H 	H 	0.84700 0.11330 0.70180 0.07500
C 	C 	0.85140 0.18840 0.70440 0.07400
C 	C 	0.86840 0.22880 0.67700 -0.16000
H 	H 	0.86200 0.26090 0.68850 0.08400
C 	C 	0.89460 0.22250 0.63270 0.09000
H 	H 	0.90520 0.25020 0.61470 -0.02300
H 	H 	0.02920 0.30450 0.40660 0.76500
O 	O 	0.05256 0.12751 0.44582 -0.48100
O 	O 	0.05080 0.21040 0.44900 -0.48500
C 	C 	0.06400 0.17020 0.43000 0.40500
C 	C 	0.17770 0.19750 0.24920 0.01300
C 	C 	0.21890 0.16720 0.23760 -0.08400
H 	H 	0.22580 0.13950 0.25740 0.05400
C 	C 	0.09490 0.17490 0.38450 -0.18000
C 	C 	0.11280 0.13380 0.35790 0.07500
H 	H 	0.10630 0.10170 0.36930 -0.00400
C 	C 	0.14000 0.14090 0.31480 -0.15300
H 	H 	0.15300 0.11330 0.29820 0.07300
C 	C 	0.14860 0.18840 0.29560 0.07400
C 	C 	0.13160 0.22880 0.32300 -0.16400
H 	H 	0.13800 0.26090 0.31150 0.08300
C 	C 	0.10540 0.22250 0.36730 0.09100
H 	H 	0.09480 0.25020 0.38530 -0.02600
Ni	Ni	0.50000 0.00000 0.22163 1.11300
Ni	Ni	0.50000 0.00000 0.11549 1.04700
N 	N 	0.50000 0.00000 0.29620 -0.73800
Ni	Ni	0.50000 0.00000 0.77837 1.11300
Ni	Ni	0.50000 0.00000 0.88451 1.04800
N 	N 	0.50000 0.00000 0.70380 -0.73800
Ni	Ni	0.22163 0.50000 -0.00000 1.11300
Ni	Ni	0.11549 0.50000 -0.00000 1.04700
N 	N 	0.29620 0.50000 -0.00000 -0.73800
Ni	Ni	0.77837 0.50000 -0.00000 1.11300
Ni	Ni	0.88451 0.50000 -0.00000 1.04800
N 	N 	0.70380 0.50000 -0.00000 -0.73800
Ni	Ni	0.00000 0.22163 0.50000 1.11300
Ni	Ni	0.00000 0.11549 0.50000 1.04700
N 	N 	0.00000 0.29620 0.50000 -0.73800
Ni	Ni	0.00000 0.77837 0.50000 1.11300
Ni	Ni	0.00000 0.88451 0.50000 1.04800
N 	N 	0.00000 0.70380 0.50000 -0.73800
C 	C 	0.53520 0.00000 0.32690 1.12000
N 	N 	0.52370 0.00000 0.37250 -0.41800
H 	H 	0.54340 0.00000 0.39780 0.14500
C 	C 	0.58310 0.00000 0.32240 -2.51300
H 	H 	0.59810 0.00000 0.35490 0.76400
C 	C 	0.46480 0.00000 0.32690 1.11900
N 	N 	0.47630 0.00000 0.37250 -0.41800
H 	H 	0.45660 0.00000 0.39780 0.14500
C 	C 	0.41690 0.00000 0.32240 -2.51200
H 	H 	0.40190 0.00000 0.35490 0.76300
C 	C 	0.46480 0.00000 0.67310 1.11900
N 	N 	0.47630 0.00000 0.62750 -0.41800
H 	H 	0.45660 0.00000 0.60220 0.14500
C 	C 	0.41690 0.00000 0.67760 -2.51200
H 	H 	0.40190 0.00000 0.64510 0.76400
C 	C 	0.53520 0.00000 0.67310 1.12000
N 	N 	0.52370 0.00000 0.62750 -0.41800
H 	H 	0.54340 0.00000 0.60220 0.14500
C 	C 	0.58310 0.00000 0.67760 -2.51300
H 	H 	0.59810 0.00000 0.64510 0.76400
C 	C 	0.32690 0.53520 -0.00000 1.12000
N 	N 	0.37250 0.52370 -0.00000 -0.41800
H 	H 	0.39780 0.54340 -0.00000 0.14500
C 	C 	0.32240 0.58310 -0.00000 -2.51300
H 	H 	0.35490 0.59810 -0.00000 0.76400
C 	C 	0.32690 0.46480 -0.00000 1.11900
N 	N 	0.37250 0.47630 -0.00000 -0.41800
H 	H 	0.39780 0.45660 -0.00000 0.14500
C 	C 	0.32240 0.41690 -0.00000 -2.51200
H 	H 	0.35490 0.40190 -0.00000 0.76300
C 	C 	0.67310 0.46480 -0.00000 1.11900
N 	N 	0.62750 0.47630 -0.00000 -0.41800
H 	H 	0.60220 0.45660 -0.00000 0.14500
C 	C 	0.67760 0.41690 -0.00000 -2.51200
H 	H 	0.64510 0.40190 -0.00000 0.76400
C 	C 	0.67310 0.53520 -0.00000 1.12000
N 	N 	0.62750 0.52370 -0.00000 -0.41800
H 	H 	0.60220 0.54340 -0.00000 0.14500
C 	C 	0.67760 0.58310 -0.00000 -2.51300
H 	H 	0.64510 0.59810 -0.00000 0.76400
C 	C 	0.00000 0.32690 0.53520 1.12000
N 	N 	-0.00000 0.37250 0.52370 -0.41800
H 	H 	-0.00000 0.39780 0.54340 0.14500
C 	C 	0.00000 0.32240 0.58310 -2.51300
H 	H 	-0.00000 0.35490 0.59810 0.76400
C 	C 	0.00000 0.32690 0.46480 1.11900
N 	N 	0.00000 0.37250 0.47630 -0.41800
H 	H 	0.00000 0.39780 0.45660 0.14500
C 	C 	0.00000 0.32240 0.41690 -2.51200
H 	H 	0.00000 0.35490 0.40190 0.76300
C 	C 	0.00000 0.67310 0.46480 1.11900
N 	N 	0.00000 0.62750 0.47630 -0.41800
H 	H 	0.00000 0.60220 0.45660 0.14500
C 	C 	0.00000 0.67760 0.41690 -2.51200
H 	H 	-0.00000 0.64510 0.40190 0.76400
C 	C 	0.00000 0.67310 0.53520 1.12000
N 	N 	0.00000 0.62750 0.52370 -0.41800
H 	H 	0.00000 0.60220 0.54340 0.14500
C 	C 	0.00000 0.67760 0.58310 -2.51300
H 	H 	0.00000 0.64510 0.59810 0.76400
H 	H 	0.09340 0.52920 0.80450 0.71000
O 	O 	0.05418 0.55256 0.62751 -0.48000
O 	O 	0.05100 0.55080 0.71040 -0.48300
C 	C 	0.07000 0.56400 0.67020 0.40400
C 	C 	0.25080 0.67770 0.69750 0.01700
C 	C 	0.26240 0.71890 0.66720 -0.08600
H 	H 	0.24260 0.72580 0.63950 0.05700
C 	C 	0.11550 0.59490 0.67490 -0.17700
C 	C 	0.14210 0.61280 0.63380 0.07400
H 	H 	0.13070 0.60630 0.60170 0.00000
C 	C 	0.18520 0.64000 0.64090 -0.15000
H 	H 	0.20180 0.65300 0.61330 0.07600
C 	C 	0.20440 0.64860 0.68840 0.07300
C 	C 	0.17700 0.63160 0.72880 -0.16100
H 	H 	0.18850 0.63800 0.76090 0.08300
C 	C 	0.13270 0.60540 0.72250 0.08900
H 	H 	0.11470 0.59480 0.75020 -0.02200
H 	H 	0.90660 0.47080 0.80450 0.74400
O 	O 	0.94582 0.44744 0.62751 -0.46800
O 	O 	0.94900 0.44920 0.71040 -0.47300
C 	C 	0.93000 0.43600 0.67020 0.40200
C 	C 	0.74920 0.32230 0.69750 0.01700
C 	C 	0.73760 0.28110 0.66720 -0.08600
H 	H 	0.75740 0.27420 0.63950 0.05700
C 	C 	0.88450 0.40510 0.67490 -0.17400
C 	C 	0.85790 0.38720 0.63380 0.07200
H 	H 	0.86930 0.39370 0.60170 0.00300
C 	C 	0.81480 0.36000 0.64090 -0.14800
H 	H 	0.79820 0.34700 0.61330 0.07600
C 	C 	0.79560 0.35140 0.68840 0.07200
C 	C 	0.82300 0.36840 0.72880 -0.15900
H 	H 	0.81150 0.36200 0.76090 0.08300
C 	C 	0.86730 0.39460 0.72250 0.08800
H 	H 	0.88530 0.40520 0.75020 -0.02200
H 	H 	0.90660 0.52920 0.19550 0.74300
O 	O 	0.94582 0.55256 0.37249 -0.46800
O 	O 	0.94900 0.55080 0.28960 -0.47300
C 	C 	0.93000 0.56400 0.32980 0.40200
C 	C 	0.74920 0.67770 0.30250 0.01700
C 	C 	0.73760 0.71890 0.33280 -0.08700
H 	H 	0.75740 0.72580 0.36050 0.05700
C 	C 	0.88450 0.59490 0.32510 -0.17400
C 	C 	0.85790 0.61280 0.36620 0.07200
H 	H 	0.86930 0.60630 0.39830 0.00300
C 	C 	0.81480 0.64000 0.35910 -0.14800
H 	H 	0.79820 0.65300 0.38670 0.07600
C 	C 	0.79560 0.64860 0.31160 0.07200
C 	C 	0.82300 0.63160 0.27120 -0.15900
H 	H 	0.81150 0.63800 0.23910 0.08300
C 	C 	0.86730 0.60540 0.27750 0.08800
H 	H 	0.88530 0.59480 0.24980 -0.02200
H 	H 	0.09340 0.47080 0.19550 0.70900
O 	O 	0.05418 0.44744 0.37249 -0.48000
O 	O 	0.05100 0.44920 0.28960 -0.48400
C 	C 	0.07000 0.43600 0.32980 0.40400
C 	C 	0.25080 0.32230 0.30250 0.01700
C 	C 	0.26240 0.28110 0.33280 -0.08600
H 	H 	0.24260 0.27420 0.36050 0.05700
C 	C 	0.11550 0.40510 0.32510 -0.17800
C 	C 	0.14210 0.38720 0.36620 0.07500
H 	H 	0.13070 0.39370 0.39830 -0.00000
C 	C 	0.18520 0.36000 0.35910 -0.15100
H 	H 	0.20180 0.34700 0.38670 0.07600
C 	C 	0.20440 0.35140 0.31160 0.07400
C 	C 	0.17700 0.36840 0.27120 -0.16100
H 	H 	0.18850 0.36200 0.23910 0.08300
C 	C 	0.13270 0.39460 0.27750 0.08900
H 	H 	0.11470 0.40520 0.24980 -0.02300
H 	H 	0.80450 0.09340 0.52920 0.71000
O 	O 	0.62751 0.05418 0.55256 -0.48000
O 	O 	0.71040 0.05100 0.55080 -0.48300
C 	C 	0.67020 0.07000 0.56400 0.40400
C 	C 	0.69750 0.25080 0.67770 0.01700
C 	C 	0.66720 0.26240 0.71890 -0.08600
H 	H 	0.63950 0.24260 0.72580 0.05700
C 	C 	0.67490 0.11550 0.59490 -0.17700
C 	C 	0.63380 0.14210 0.61280 0.07400
H 	H 	0.60170 0.13070 0.60630 0.00000
C 	C 	0.64090 0.18520 0.64000 -0.15000
H 	H 	0.61330 0.20180 0.65300 0.07600
C 	C 	0.68840 0.20440 0.64860 0.07300
C 	C 	0.72880 0.17700 0.63160 -0.16100
H 	H 	0.76090 0.18850 0.63800 0.08300
C 	C 	0.72250 0.13270 0.60540 0.08900
H 	H 	0.75020 0.11470 0.59480 -0.02200
H 	H 	0.80450 0.90660 0.47080 0.74400
O 	O 	0.62751 0.94582 0.44744 -0.46800
O 	O 	0.71040 0.94900 0.44920 -0.47300
C 	C 	0.67020 0.93000 0.43600 0.40200
C 	C 	0.69750 0.74920 0.32230 0.01700
C 	C 	0.66720 0.73760 0.28110 -0.08600
H 	H 	0.63950 0.75740 0.27420 0.05700
C 	C 	0.67490 0.88450 0.40510 -0.17400
C 	C 	0.63380 0.85790 0.38720 0.07200
H 	H 	0.60170 0.86930 0.39370 0.00300
C 	C 	0.64090 0.81480 0.36000 -0.14800
H 	H 	0.61330 0.79820 0.34700 0.07600
C 	C 	0.68840 0.79560 0.35140 0.07200
C 	C 	0.72880 0.82300 0.36840 -0.15900
H 	H 	0.76090 0.81150 0.36200 0.08300
C 	C 	0.72250 0.86730 0.39460 0.08800
H 	H 	0.75020 0.88530 0.40520 -0.02200
H 	H 	0.19550 0.90660 0.52920 0.74300
O 	O 	0.37249 0.94582 0.55256 -0.46800
O 	O 	0.28960 0.94900 0.55080 -0.47300
C 	C 	0.32980 0.93000 0.56400 0.40200
C 	C 	0.30250 0.74920 0.67770 0.01700
C 	C 	0.33280 0.73760 0.71890 -0.08700
H 	H 	0.36050 0.75740 0.72580 0.05700
C 	C 	0.32510 0.88450 0.59490 -0.17400
C 	C 	0.36620 0.85790 0.61280 0.07200
H 	H 	0.39830 0.86930 0.60630 0.00300
C 	C 	0.35910 0.81480 0.64000 -0.14800
H 	H 	0.38670 0.79820 0.65300 0.07600
C 	C 	0.31160 0.79560 0.64860 0.07200
C 	C 	0.27120 0.82300 0.63160 -0.15900
H 	H 	0.23910 0.81150 0.63800 0.08300
C 	C 	0.27750 0.86730 0.60540 0.08800
H 	H 	0.24980 0.88530 0.59480 -0.02200
H 	H 	0.19550 0.09340 0.47080 0.70900
O 	O 	0.37249 0.05418 0.44744 -0.48000
O 	O 	0.28960 0.05100 0.44920 -0.48400
C 	C 	0.32980 0.07000 0.43600 0.40400
C 	C 	0.30250 0.25080 0.32230 0.01700
C 	C 	0.33280 0.26240 0.28110 -0.08600
H 	H 	0.36050 0.24260 0.27420 0.05700
C 	C 	0.32510 0.11550 0.40510 -0.17800
C 	C 	0.36620 0.14210 0.38720 0.07500
H 	H 	0.39830 0.13070 0.39370 -0.00000
C 	C 	0.35910 0.18520 0.36000 -0.15100
H 	H 	0.38670 0.20180 0.34700 0.07600
C 	C 	0.31160 0.20440 0.35140 0.07400
C 	C 	0.27120 0.17700 0.36840 -0.16100
H 	H 	0.23910 0.18850 0.36200 0.08300
C 	C 	0.27750 0.13270 0.39460 0.08900
H 	H 	0.24980 0.11470 0.40520 -0.02300
H 	H 	0.52920 0.80450 0.09340 0.71000
O 	O 	0.55256 0.62751 0.05418 -0.48000
O 	O 	0.55080 0.71040 0.05100 -0.48300
C 	C 	0.56400 0.67020 0.07000 0.40400
C 	C 	0.67770 0.69750 0.25080 0.01700
C 	C 	0.71890 0.66720 0.26240 -0.08600
H 	H 	0.72580 0.63950 0.24260 0.05700
C 	C 	0.59490 0.67490 0.11550 -0.17700
C 	C 	0.61280 0.63380 0.14210 0.07400
H 	H 	0.60630 0.60170 0.13070 0.00000
C 	C 	0.64000 0.64090 0.18520 -0.15000
H 	H 	0.65300 0.61330 0.20180 0.07600
C 	C 	0.64860 0.68840 0.20440 0.07300
C 	C 	0.63160 0.72880 0.17700 -0.16100
H 	H 	0.63800 0.76090 0.18850 0.08300
C 	C 	0.60540 0.72250 0.13270 0.08900
H 	H 	0.59480 0.75020 0.11470 -0.02200
H 	H 	0.47080 0.80450 0.90660 0.74400
O 	O 	0.44744 0.62751 0.94582 -0.46800
O 	O 	0.44920 0.71040 0.94900 -0.47300
C 	C 	0.43600 0.67020 0.93000 0.40200
C 	C 	0.32230 0.69750 0.74920 0.01700
C 	C 	0.28110 0.66720 0.73760 -0.08600
H 	H 	0.27420 0.63950 0.75740 0.05700
C 	C 	0.40510 0.67490 0.88450 -0.17400
C 	C 	0.38720 0.63380 0.85790 0.07200
H 	H 	0.39370 0.60170 0.86930 0.00300
C 	C 	0.36000 0.64090 0.81480 -0.14800
H 	H 	0.34700 0.61330 0.79820 0.07600
C 	C 	0.35140 0.68840 0.79560 0.07200
C 	C 	0.36840 0.72880 0.82300 -0.15900
H 	H 	0.36200 0.76090 0.81150 0.08300
C 	C 	0.39460 0.72250 0.86730 0.08800
H 	H 	0.40520 0.75020 0.88530 -0.02200
H 	H 	0.52920 0.19550 0.90660 0.74300
O 	O 	0.55256 0.37249 0.94582 -0.46800
O 	O 	0.55080 0.28960 0.94900 -0.47300
C 	C 	0.56400 0.32980 0.93000 0.40200
C 	C 	0.67770 0.30250 0.74920 0.01700
C 	C 	0.71890 0.33280 0.73760 -0.08700
H 	H 	0.72580 0.36050 0.75740 0.05700
C 	C 	0.59490 0.32510 0.88450 -0.17400
C 	C 	0.61280 0.36620 0.85790 0.07200
H 	H 	0.60630 0.39830 0.86930 0.00300
C 	C 	0.64000 0.35910 0.81480 -0.14800
H 	H 	0.65300 0.38670 0.79820 0.07600
C 	C 	0.64860 0.31160 0.79560 0.07200
C 	C 	0.63160 0.27120 0.82300 -0.15900
H 	H 	0.63800 0.23910 0.81150 0.08300
C 	C 	0.60540 0.27750 0.86730 0.08800
H 	H 	0.59480 0.24980 0.88530 -0.02200
H 	H 	0.47080 0.19550 0.09340 0.70900
O 	O 	0.44744 0.37249 0.05418 -0.48000
O 	O 	0.44920 0.28960 0.05100 -0.48400
C 	C 	0.43600 0.32980 0.07000 0.40400
C 	C 	0.32230 0.30250 0.25080 0.01700
C 	C 	0.28110 0.33280 0.26240 -0.08600
H 	H 	0.27420 0.36050 0.24260 0.05700
C 	C 	0.40510 0.32510 0.11550 -0.17800
C 	C 	0.38720 0.36620 0.14210 0.07500
H 	H 	0.39370 0.39830 0.13070 -0.00000
C 	C 	0.36000 0.35910 0.18520 -0.15100
H 	H 	0.34700 0.38670 0.20180 0.07600
C 	C 	0.35140 0.31160 0.20440 0.07400
C 	C 	0.36840 0.27120 0.17700 -0.16100
H 	H 	0.36200 0.23910 0.18850 0.08300
C 	C 	0.39460 0.27750 0.13270 0.08900
H 	H 	0.40520 0.24980 0.11470 -0.02300
H 	H 	0.90660 0.47080 0.19550 0.74300
O 	O 	0.94582 0.44744 0.37249 -0.46800
O 	O 	0.94900 0.44920 0.28960 -0.47300
C 	C 	0.93000 0.43600 0.32980 0.40200
C 	C 	0.74920 0.32230 0.30250 0.01700
C 	C 	0.73760 0.28110 0.33280 -0.08600
H 	H 	0.75740 0.27420 0.36050 0.05700
C 	C 	0.88450 0.40510 0.32510 -0.17400
C 	C 	0.85790 0.38720 0.36620 0.07300
H 	H 	0.86930 0.39370 0.39830 0.00300
C 	C 	0.81480 0.36000 0.35910 -0.14800
H 	H 	0.79820 0.34700 0.38670 0.07600
C 	C 	0.79560 0.35140 0.31160 0.07200
C 	C 	0.82300 0.36840 0.27120 -0.15900
H 	H 	0.81150 0.36200 0.23910 0.08300
C 	C 	0.86730 0.39460 0.27750 0.08800
H 	H 	0.88530 0.40520 0.24980 -0.02200
H 	H 	0.09340 0.52920 0.19550 0.70900
O 	O 	0.05418 0.55256 0.37249 -0.48000
O 	O 	0.05100 0.55080 0.28960 -0.48400
C 	C 	0.07000 0.56400 0.32980 0.40400
C 	C 	0.25080 0.67770 0.30250 0.01700
C 	C 	0.26240 0.71890 0.33280 -0.08600
H 	H 	0.24260 0.72580 0.36050 0.05700
C 	C 	0.11550 0.59490 0.32510 -0.17800
C 	C 	0.14210 0.61280 0.36620 0.07400
H 	H 	0.13070 0.60630 0.39830 -0.00000
C 	C 	0.18520 0.64000 0.35910 -0.15000
H 	H 	0.20180 0.65300 0.38670 0.07600
C 	C 	0.20440 0.64860 0.31160 0.07300
C 	C 	0.17700 0.63160 0.27120 -0.16100
H 	H 	0.18850 0.63800 0.23910 0.08300
C 	C 	0.13270 0.60540 0.27750 0.08900
H 	H 	0.11470 0.59480 0.24980 -0.02200
H 	H 	0.09340 0.47080 0.80450 0.71000
O 	O 	0.05418 0.44744 0.62751 -0.48000
O 	O 	0.05100 0.44920 0.71040 -0.48400
C 	C 	0.07000 0.43600 0.67020 0.40400
C 	C 	0.25080 0.32230 0.69750 0.01700
C 	C 	0.26240 0.28110 0.66720 -0.08600
H 	H 	0.24260 0.27420 0.63950 0.05700
C 	C 	0.11550 0.40510 0.67490 -0.17800
C 	C 	0.14210 0.38720 0.63380 0.07400
H 	H 	0.13070 0.39370 0.60170 0.00000
C 	C 	0.18520 0.36000 0.64090 -0.15000
H 	H 	0.20180 0.34700 0.61330 0.07600
C 	C 	0.20440 0.35140 0.68840 0.07300
C 	C 	0.17700 0.36840 0.72880 -0.16100
H 	H 	0.18850 0.36200 0.76090 0.08300
C 	C 	0.13270 0.39460 0.72250 0.08900
H 	H 	0.11470 0.40520 0.75020 -0.02200
H 	H 	0.90660 0.52920 0.80450 0.74400
O 	O 	0.94582 0.55256 0.62751 -0.46800
O 	O 	0.94900 0.55080 0.71040 -0.47300
C 	C 	0.93000 0.56400 0.67020 0.40200
C 	C 	0.74920 0.67770 0.69750 0.01800
C 	C 	0.73760 0.71890 0.66720 -0.08700
H 	H 	0.75740 0.72580 0.63950 0.05700
C 	C 	0.88450 0.59490 0.67490 -0.17300
C 	C 	0.85790 0.61280 0.63380 0.07200
H 	H 	0.86930 0.60630 0.60170 0.00300
C 	C 	0.81480 0.64000 0.64090 -0.14800
H 	H 	0.79820 0.65300 0.61330 0.07500
C 	C 	0.79560 0.64860 0.68840 0.07200
C 	C 	0.82300 0.63160 0.72880 -0.15900
H 	H 	0.81150 0.63800 0.76090 0.08200
C 	C 	0.86730 0.60540 0.72250 0.08800
H 	H 	0.88530 0.59480 0.75020 -0.02100
H 	H 	0.19550 0.90660 0.47080 0.74300
O 	O 	0.37249 0.94582 0.44744 -0.46800
O 	O 	0.28960 0.94900 0.44920 -0.47300
C 	C 	0.32980 0.93000 0.43600 0.40200
C 	C 	0.30250 0.74920 0.32230 0.01700
C 	C 	0.33280 0.73760 0.28110 -0.08600
H 	H 	0.36050 0.75740 0.27420 0.05700
C 	C 	0.32510 0.88450 0.40510 -0.17400
C 	C 	0.36620 0.85790 0.38720 0.07300
H 	H 	0.39830 0.86930 0.39370 0.00300
C 	C 	0.35910 0.81480 0.36000 -0.14800
H 	H 	0.38670 0.79820 0.34700 0.07600
C 	C 	0.31160 0.79560 0.35140 0.07200
C 	C 	0.27120 0.82300 0.36840 -0.15900
H 	H 	0.23910 0.81150 0.36200 0.08300
C 	C 	0.27750 0.86730 0.39460 0.08800
H 	H 	0.24980 0.88530 0.40520 -0.02200
H 	H 	0.19550 0.09340 0.52920 0.70900
O 	O 	0.37249 0.05418 0.55256 -0.48000
O 	O 	0.28960 0.05100 0.55080 -0.48400
C 	C 	0.32980 0.07000 0.56400 0.40400
C 	C 	0.30250 0.25080 0.67770 0.01700
C 	C 	0.33280 0.26240 0.71890 -0.08600
H 	H 	0.36050 0.24260 0.72580 0.05700
C 	C 	0.32510 0.11550 0.59490 -0.17800
C 	C 	0.36620 0.14210 0.61280 0.07400
H 	H 	0.39830 0.13070 0.60630 -0.00000
C 	C 	0.35910 0.18520 0.64000 -0.15000
H 	H 	0.38670 0.20180 0.65300 0.07600
C 	C 	0.31160 0.20440 0.64860 0.07300
C 	C 	0.27120 0.17700 0.63160 -0.16100
H 	H 	0.23910 0.18850 0.63800 0.08300
C 	C 	0.27750 0.13270 0.60540 0.08900
H 	H 	0.24980 0.11470 0.59480 -0.02200
H 	H 	0.80450 0.09340 0.47080 0.71000
O 	O 	0.62751 0.05418 0.44744 -0.48000
O 	O 	0.71040 0.05100 0.44920 -0.48400
C 	C 	0.67020 0.07000 0.43600 0.40400
C 	C 	0.69750 0.25080 0.32230 0.01700
C 	C 	0.66720 0.26240 0.28110 -0.08600
H 	H 	0.63950 0.24260 0.27420 0.05700
C 	C 	0.67490 0.11550 0.40510 -0.17800
C 	C 	0.63380 0.14210 0.38720 0.07400
H 	H 	0.60170 0.13070 0.39370 0.00000
C 	C 	0.64090 0.18520 0.36000 -0.15000
H 	H 	0.61330 0.20180 0.34700 0.07600
C 	C 	0.68840 0.20440 0.35140 0.07300
C 	C 	0.72880 0.17700 0.36840 -0.16100
H 	H 	0.76090 0.18850 0.36200 0.08300
C 	C 	0.72250 0.13270 0.39460 0.08900
H 	H 	0.75020 0.11470 0.40520 -0.02200
H 	H 	0.80450 0.90660 0.52920 0.74400
O 	O 	0.62751 0.94582 0.55256 -0.46800
O 	O 	0.71040 0.94900 0.55080 -0.47300
C 	C 	0.67020 0.93000 0.56400 0.40200
C 	C 	0.69750 0.74920 0.67770 0.01800
C 	C 	0.66720 0.73760 0.71890 -0.08700
H 	H 	0.63950 0.75740 0.72580 0.05700
C 	C 	0.67490 0.88450 0.59490 -0.17300
C 	C 	0.63380 0.85790 0.61280 0.07200
H 	H 	0.60170 0.86930 0.60630 0.00300
C 	C 	0.64090 0.81480 0.64000 -0.14800
H 	H 	0.61330 0.79820 0.65300 0.07500
C 	C 	0.68840 0.79560 0.64860 0.07200
C 	C 	0.72880 0.82300 0.63160 -0.15900
H 	H 	0.76090 0.81150 0.63800 0.08200
C 	C 	0.72250 0.86730 0.60540 0.08800
H 	H 	0.75020 0.88530 0.59480 -0.02100
H 	H 	0.47080 0.19550 0.90660 0.74300
O 	O 	0.44744 0.37249 0.94582 -0.46800
O 	O 	0.44920 0.28960 0.94900 -0.47300
C 	C 	0.43600 0.32980 0.93000 0.40200
C 	C 	0.32230 0.30250 0.74920 0.01700
C 	C 	0.28110 0.33280 0.73760 -0.08600
H 	H 	0.27420 0.36050 0.75740 0.05700
C 	C 	0.40510 0.32510 0.88450 -0.17400
C 	C 	0.38720 0.36620 0.85790 0.07300
H 	H 	0.39370 0.39830 0.86930 0.00300
C 	C 	0.36000 0.35910 0.81480 -0.14800
H 	H 	0.34700 0.38670 0.79820 0.07600
C 	C 	0.35140 0.31160 0.79560 0.07200
C 	C 	0.36840 0.27120 0.82300 -0.15900
H 	H 	0.36200 0.23910 0.81150 0.08300
C 	C 	0.39460 0.27750 0.86730 0.08800
H 	H 	0.40520 0.24980 0.88530 -0.02200
H 	H 	0.52920 0.19550 0.09340 0.70900
O 	O 	0.55256 0.37249 0.05418 -0.48000
O 	O 	0.55080 0.28960 0.05100 -0.48400
C 	C 	0.56400 0.32980 0.07000 0.40400
C 	C 	0.67770 0.30250 0.25080 0.01700
C 	C 	0.71890 0.33280 0.26240 -0.08600
H 	H 	0.72580 0.36050 0.24260 0.05700
C 	C 	0.59490 0.32510 0.11550 -0.17800
C 	C 	0.61280 0.36620 0.14210 0.07400
H 	H 	0.60630 0.39830 0.13070 -0.00000
C 	C 	0.64000 0.35910 0.18520 -0.15000
H 	H 	0.65300 0.38670 0.20180 0.07600
C 	C 	0.64860 0.31160 0.20440 0.07300
C 	C 	0.63160 0.27120 0.17700 -0.16100
H 	H 	0.63800 0.23910 0.18850 0.08300
C 	C 	0.60540 0.27750 0.13270 0.08900
H 	H 	0.59480 0.24980 0.11470 -0.02200
H 	H 	0.47080 0.80450 0.09340 0.71000
O 	O 	0.44744 0.62751 0.05418 -0.48000
O 	O 	0.44920 0.71040 0.05100 -0.48400
C 	C 	0.43600 0.67020 0.07000 0.40400
C 	C 	0.32230 0.69750 0.25080 0.01700
C 	C 	0.28110 0.66720 0.26240 -0.08600
H 	H 	0.27420 0.63950 0.24260 0.05700
C 	C 	0.40510 0.67490 0.11550 -0.17800
C 	C 	0.38720 0.63380 0.14210 0.07400
H 	H 	0.39370 0.60170 0.13070 0.00000
C 	C 	0.36000 0.64090 0.18520 -0.15000
H 	H 	0.34700 0.61330 0.20180 0.07600
C 	C 	0.35140 0.68840 0.20440 0.07300
C 	C 	0.36840 0.72880 0.17700 -0.16100
H 	H 	0.36200 0.76090 0.18850 0.08300
C 	C 	0.39460 0.72250 0.13270 0.08900
H 	H 	0.40520 0.75020 0.11470 -0.02200
H 	H 	0.52920 0.80450 0.90660 0.74400
O 	O 	0.55256 0.62751 0.94582 -0.46800
O 	O 	0.55080 0.71040 0.94900 -0.47300
C 	C 	0.56400 0.67020 0.93000 0.40200
C 	C 	0.67770 0.69750 0.74920 0.01800
C 	C 	0.71890 0.66720 0.73760 -0.08700
H 	H 	0.72580 0.63950 0.75740 0.05700
C 	C 	0.59490 0.67490 0.88450 -0.17300
C 	C 	0.61280 0.63380 0.85790 0.07200
H 	H 	0.60630 0.60170 0.86930 0.00300
C 	C 	0.64000 0.64090 0.81480 -0.14800
H 	H 	0.65300 0.61330 0.79820 0.07500
C 	C 	0.64860 0.68840 0.79560 0.07200
C 	C 	0.63160 0.72880 0.82300 -0.15900
H 	H 	0.63800 0.76090 0.81150 0.08200
C 	C 	0.60540 0.72250 0.86730 0.08800
H 	H 	0.59480 0.75020 0.88530 -0.02100
Ni	Ni	-0.00000 0.50000 0.72163 1.11300
Ni	Ni	0.00000 0.50000 0.61549 1.04800
N 	N 	0.00000 0.50000 0.79620 -0.72300
Ni	Ni	0.00000 0.50000 0.27837 1.11300
Ni	Ni	-0.00000 0.50000 0.38451 1.04800
N 	N 	0.00000 0.50000 0.20380 -0.72200
Ni	Ni	0.72163 0.00000 0.50000 1.11300
Ni	Ni	0.61549 0.00000 0.50000 1.04800
N 	N 	0.79620 0.00000 0.50000 -0.72300
Ni	Ni	0.27837 0.00000 0.50000 1.11300
Ni	Ni	0.38451 0.00000 0.50000 1.04800
N 	N 	0.20380 0.00000 0.50000 -0.72200
Ni	Ni	0.50000 0.72163 -0.00000 1.11300
Ni	Ni	0.50000 0.61549 -0.00000 1.04800
N 	N 	0.50000 0.79620 -0.00000 -0.72300
Ni	Ni	0.50000 0.27837 -0.00000 1.11300
Ni	Ni	0.50000 0.38451 -0.00000 1.04800
N 	N 	0.50000 0.20380 -0.00000 -0.72200
C 	C 	0.03520 0.50000 0.82690 1.04500
N 	N 	0.02370 0.50000 0.87250 -0.40600
H 	H 	0.04340 0.50000 0.89780 0.14500
C 	C 	0.08310 0.50000 0.82240 -2.31800
H 	H 	0.09810 0.50000 0.85490 0.71100
C 	C 	0.96480 0.50000 0.82690 1.11300
N 	N 	0.97630 0.50000 0.87250 -0.40700
H 	H 	0.95660 0.50000 0.89780 0.15200
C 	C 	0.91690 0.50000 0.82240 -2.43000
H 	H 	0.90190 0.50000 0.85490 0.74500
C 	C 	0.96480 0.50000 0.17310 1.11100
N 	N 	0.97630 0.50000 0.12750 -0.40600
H 	H 	0.95660 0.50000 0.10220 0.14900
C 	C 	0.91690 0.50000 0.17760 -2.42700
H 	H 	0.90190 0.50000 0.14510 0.74400
C 	C 	0.03520 0.50000 0.17310 1.04300
N 	N 	0.02370 0.50000 0.12750 -0.40500
H 	H 	0.04340 0.50000 0.10220 0.14200
C 	C 	0.08310 0.50000 0.17760 -2.31500
H 	H 	0.09810 0.50000 0.14510 0.71000
C 	C 	0.82690 0.03520 0.50000 1.04500
N 	N 	0.87250 0.02370 0.50000 -0.40600
H 	H 	0.89780 0.04340 0.50000 0.14500
C 	C 	0.82240 0.08310 0.50000 -2.31800
H 	H 	0.85490 0.09810 0.50000 0.71100
C 	C 	0.82690 0.96480 0.50000 1.11300
N 	N 	0.87250 0.97630 0.50000 -0.40700
H 	H 	0.89780 0.95660 0.50000 0.15200
C 	C 	0.82240 0.91690 0.50000 -2.43000
H 	H 	0.85490 0.90190 0.50000 0.74500
C 	C 	0.17310 0.96480 0.50000 1.11100
N 	N 	0.12750 0.97630 0.50000 -0.40600
H 	H 	0.10220 0.95660 0.50000 0.14900
C 	C 	0.17760 0.91690 0.50000 -2.42700
H 	H 	0.14510 0.90190 0.50000 0.74400
C 	C 	0.17310 0.03520 0.50000 1.04300
N 	N 	0.12750 0.02370 0.50000 -0.40500
H 	H 	0.10220 0.04340 0.50000 0.14200
C 	C 	0.17760 0.08310 0.50000 -2.31500
H 	H 	0.14510 0.09810 0.50000 0.71000
C 	C 	0.50000 0.82690 0.03520 1.04500
N 	N 	0.50000 0.87250 0.02370 -0.40600
H 	H 	0.50000 0.89780 0.04340 0.14500
C 	C 	0.50000 0.82240 0.08310 -2.31800
H 	H 	0.50000 0.85490 0.09810 0.71100
C 	C 	0.50000 0.82690 0.96480 1.11300
N 	N 	0.50000 0.87250 0.97630 -0.40700
H 	H 	0.50000 0.89780 0.95660 0.15200
C 	C 	0.50000 0.82240 0.91690 -2.43000
H 	H 	0.50000 0.85490 0.90190 0.74500
C 	C 	0.50000 0.17310 0.96480 1.11100
N 	N 	0.50000 0.12750 0.97630 -0.40600
H 	H 	0.50000 0.10220 0.95660 0.14900
C 	C 	0.50000 0.17760 0.91690 -2.42700
H 	H 	0.50000 0.14510 0.90190 0.74400
C 	C 	0.50000 0.17310 0.03520 1.04300
N 	N 	0.50000 0.12750 0.02370 -0.40500
H 	H 	0.50000 0.10220 0.04340 0.14200
C 	C 	0.50000 0.17760 0.08310 -2.31500
H 	H 	0.50000 0.14510 0.09810 0.71000
