data_crystal

_cell_length_a 18.80490
_cell_length_b 18.80490
_cell_length_c 18.80490
_cell_angle_alpha 60.00000
_cell_angle_beta  60.00000
_cell_angle_gamma 60.00000

_symmetry_space_group_name_	'P 1'
_symmetry_space_group_name_H-M	'P 1'

loop_
_symmetry_equiv_pos_as_xyz
  x,y,z

loop_
_atom_site_label
_atom_site_type_symbol
_atom_site_fract_x
_atom_site_fract_y
_atom_site_fract_z
_atom_site_charge
Ni	Ni	0.92786 0.50000 0.07214 1.09400
Ni	Ni	0.50000 0.92786 0.50000 1.09400
Ni	Ni	0.07214 0.50000 0.92786 1.09400
Ni	Ni	0.50000 0.07214 0.50000 1.09400
Ni	Ni	0.92786 0.07214 0.50000 1.09400
Ni	Ni	0.50000 0.50000 0.07214 1.09400
Ni	Ni	0.07214 0.92786 0.50000 1.09400
Ni	Ni	0.50000 0.50000 0.92786 1.09400
Ni	Ni	0.92786 0.50000 0.50000 1.09400
Ni	Ni	0.50000 0.07214 0.92786 1.09400
Ni	Ni	0.07214 0.50000 0.50000 1.09400
Ni	Ni	0.50000 0.92786 0.07214 1.09400
H 	H 	0.73880 0.52420 0.12980 0.22000
H 	H 	0.52420 0.73880 0.60720 0.21900
H 	H 	0.12980 0.60720 0.73880 0.22000
H 	H 	0.60720 0.12980 0.52420 0.21900
H 	H 	0.73880 0.12980 0.60720 0.22000
H 	H 	0.52420 0.60720 0.12980 0.21900
H 	H 	0.12980 0.73880 0.52420 0.22000
H 	H 	0.60720 0.52420 0.73880 0.21900
H 	H 	0.73880 0.60720 0.52420 0.21900
H 	H 	0.52420 0.12980 0.73880 0.22000
H 	H 	0.12980 0.52420 0.60720 0.21900
H 	H 	0.60720 0.73880 0.12980 0.22000
H 	H 	0.47580 0.26120 0.87020 0.22000
H 	H 	0.26120 0.47580 0.39280 0.21900
H 	H 	0.39280 0.87020 0.26120 0.22000
H 	H 	0.87020 0.39280 0.47580 0.21900
H 	H 	0.87020 0.26120 0.39280 0.22000
H 	H 	0.39280 0.47580 0.87020 0.21900
H 	H 	0.26120 0.87020 0.47580 0.22100
H 	H 	0.47580 0.39280 0.26120 0.22000
H 	H 	0.39280 0.26120 0.47580 0.22000
H 	H 	0.87020 0.47580 0.26120 0.22100
H 	H 	0.47580 0.87020 0.39280 0.22000
H 	H 	0.26120 0.39280 0.87020 0.22100
H 	H 	0.26120 0.47580 0.87020 0.22100
H 	H 	0.47580 0.26120 0.39280 0.22000
H 	H 	0.87020 0.39280 0.26120 0.22100
H 	H 	0.39280 0.87020 0.47580 0.22000
H 	H 	0.26120 0.87020 0.39280 0.22100
H 	H 	0.47580 0.39280 0.87020 0.22000
H 	H 	0.87020 0.26120 0.47580 0.22100
H 	H 	0.39280 0.47580 0.26120 0.22000
H 	H 	0.26120 0.39280 0.47580 0.22000
H 	H 	0.47580 0.87020 0.26120 0.22100
H 	H 	0.87020 0.47580 0.39280 0.22000
H 	H 	0.39280 0.26120 0.87020 0.22100
H 	H 	0.52420 0.73880 0.12980 0.22100
H 	H 	0.73880 0.52420 0.60720 0.22000
H 	H 	0.60720 0.12980 0.73880 0.22100
H 	H 	0.12980 0.60720 0.52420 0.22000
H 	H 	0.12980 0.73880 0.60720 0.22100
H 	H 	0.60720 0.52420 0.12980 0.22000
H 	H 	0.73880 0.12980 0.52420 0.22100
H 	H 	0.52420 0.60720 0.73880 0.22000
H 	H 	0.60720 0.73880 0.52420 0.22000
H 	H 	0.12980 0.52420 0.73880 0.22100
H 	H 	0.52420 0.12980 0.60720 0.22000
H 	H 	0.73880 0.60720 0.12980 0.22100
H 	H 	0.77600 0.50000 0.22400 0.25800
H 	H 	0.50000 0.77600 0.50000 0.25700
H 	H 	0.22400 0.50000 0.77600 0.25800
H 	H 	0.50000 0.22400 0.50000 0.25700
H 	H 	0.77600 0.22400 0.50000 0.25800
H 	H 	0.50000 0.50000 0.22400 0.25700
H 	H 	0.22400 0.77600 0.50000 0.25800
H 	H 	0.50000 0.50000 0.77600 0.25700
H 	H 	0.77600 0.50000 0.50000 0.25700
H 	H 	0.50000 0.22400 0.77600 0.25800
H 	H 	0.22400 0.50000 0.50000 0.25700
H 	H 	0.50000 0.77600 0.22400 0.25800
H 	H 	0.01420 0.22680 0.22680 0.01800
H 	H 	0.22680 0.01420 0.53220 0.01800
H 	H 	0.22680 0.53220 0.01420 0.01800
H 	H 	0.53220 0.22680 0.22680 0.01900
H 	H 	0.01420 0.22680 0.53220 0.01800
H 	H 	0.22680 0.53220 0.22680 0.01900
H 	H 	0.22680 0.01420 0.22680 0.01800
H 	H 	0.53220 0.22680 0.01420 0.01800
H 	H 	0.01420 0.53220 0.22680 0.01800
H 	H 	0.22680 0.22680 0.01420 0.01800
H 	H 	0.22680 0.22680 0.53220 0.01900
H 	H 	0.53220 0.01420 0.22680 0.01800
H 	H 	0.77320 0.98580 0.77320 0.01800
H 	H 	0.98580 0.77320 0.46780 0.01800
H 	H 	0.46780 0.77320 0.98580 0.01800
H 	H 	0.77320 0.46780 0.77320 0.01900
H 	H 	0.77320 0.98580 0.46780 0.01800
H 	H 	0.46780 0.77320 0.77320 0.01900
H 	H 	0.98580 0.77320 0.77320 0.01800
H 	H 	0.77320 0.46780 0.98580 0.01800
H 	H 	0.46780 0.98580 0.77320 0.01800
H 	H 	0.77320 0.77320 0.98580 0.01800
H 	H 	0.77320 0.77320 0.46780 0.01900
H 	H 	0.98580 0.46780 0.77320 0.01800
H 	H 	0.69630 0.54300 0.21770 0.16800
H 	H 	0.54300 0.69630 0.54300 0.16700
H 	H 	0.21770 0.54300 0.69630 0.16800
H 	H 	0.54300 0.21770 0.54300 0.16800
H 	H 	0.69630 0.21770 0.54300 0.16800
H 	H 	0.54300 0.54300 0.21770 0.16800
H 	H 	0.21770 0.69630 0.54300 0.16800
H 	H 	0.54300 0.54300 0.69630 0.16700
H 	H 	0.69630 0.54300 0.54300 0.16700
H 	H 	0.54300 0.21770 0.69630 0.16800
H 	H 	0.21770 0.54300 0.54300 0.16800
H 	H 	0.54300 0.69630 0.21770 0.16800
H 	H 	0.45700 0.30370 0.78230 0.16800
H 	H 	0.30370 0.45700 0.45700 0.16700
H 	H 	0.45700 0.78230 0.30370 0.16800
H 	H 	0.78230 0.45700 0.45700 0.16800
H 	H 	0.78230 0.30370 0.45700 0.16800
H 	H 	0.45700 0.45700 0.78230 0.16800
H 	H 	0.30370 0.78230 0.45700 0.16800
H 	H 	0.45700 0.45700 0.30370 0.16700
H 	H 	0.45700 0.30370 0.45700 0.16700
H 	H 	0.78230 0.45700 0.30370 0.16800
H 	H 	0.45700 0.78230 0.45700 0.16800
H 	H 	0.30370 0.45700 0.78230 0.16800
C 	C 	0.06940 0.33476 0.06940 0.36800
C 	C 	0.11360 0.24194 0.11360 -0.14800
C 	C 	0.33476 0.06940 0.52644 0.38900
C 	C 	0.24194 0.11360 0.53086 -0.15600
C 	C 	0.06940 0.52644 0.06940 0.37700
C 	C 	0.11360 0.53086 0.11360 -0.15400
C 	C 	0.52644 0.06940 0.33476 0.38900
C 	C 	0.53086 0.11360 0.24194 -0.15600
C 	C 	0.06940 0.06940 0.52644 0.37700
C 	C 	0.11360 0.11360 0.53086 -0.15400
C 	C 	0.33476 0.52644 0.06940 0.38900
C 	C 	0.24194 0.53086 0.11360 -0.15600
C 	C 	0.06940 0.06940 0.33476 0.36800
C 	C 	0.11360 0.11360 0.24194 -0.14800
C 	C 	0.52644 0.33476 0.06940 0.38900
C 	C 	0.53086 0.24194 0.11360 -0.15600
C 	C 	0.06940 0.52644 0.33476 0.38900
C 	C 	0.11360 0.53086 0.24194 -0.15600
C 	C 	0.33476 0.06940 0.06940 0.36800
C 	C 	0.24194 0.11360 0.11360 -0.14800
C 	C 	0.06940 0.33476 0.52644 0.38900
C 	C 	0.11360 0.24194 0.53086 -0.15600
C 	C 	0.52644 0.06940 0.06940 0.37700
C 	C 	0.53086 0.11360 0.11360 -0.15400
C 	C 	0.66524 0.93060 0.93060 0.36800
C 	C 	0.75806 0.88640 0.88640 -0.14800
C 	C 	0.93060 0.66524 0.47356 0.38900
C 	C 	0.88640 0.75806 0.46914 -0.15600
C 	C 	0.47356 0.93060 0.93060 0.37700
C 	C 	0.46914 0.88640 0.88640 -0.15400
C 	C 	0.93060 0.47356 0.66524 0.38900
C 	C 	0.88640 0.46914 0.75806 -0.15600
C 	C 	0.93060 0.93060 0.47356 0.37700
C 	C 	0.88640 0.88640 0.46914 -0.15400
C 	C 	0.47356 0.66524 0.93060 0.38900
C 	C 	0.46914 0.75806 0.88640 -0.15600
C 	C 	0.93060 0.93060 0.66524 0.36800
C 	C 	0.88640 0.88640 0.75806 -0.14800
C 	C 	0.66524 0.47356 0.93060 0.38900
C 	C 	0.75806 0.46914 0.88640 -0.15600
C 	C 	0.47356 0.93060 0.66524 0.38900
C 	C 	0.46914 0.88640 0.75806 -0.15600
C 	C 	0.93060 0.66524 0.93060 0.36800
C 	C 	0.88640 0.75806 0.88640 -0.14800
C 	C 	0.66524 0.93060 0.47356 0.38900
C 	C 	0.75806 0.88640 0.46914 -0.15600
C 	C 	0.93060 0.47356 0.93060 0.37700
C 	C 	0.88640 0.46914 0.88640 -0.15400
C 	C 	0.07154 0.19850 0.19850 0.08600
C 	C 	0.19850 0.07154 0.53146 0.09500
C 	C 	0.19850 0.53146 0.07154 0.09500
C 	C 	0.53146 0.19850 0.19850 0.09600
C 	C 	0.07154 0.19850 0.53146 0.09500
C 	C 	0.19850 0.53146 0.19850 0.09600
C 	C 	0.19850 0.07154 0.19850 0.08600
C 	C 	0.53146 0.19850 0.07154 0.09500
C 	C 	0.07154 0.53146 0.19850 0.09500
C 	C 	0.19850 0.19850 0.07154 0.08600
C 	C 	0.19850 0.19850 0.53146 0.09600
C 	C 	0.53146 0.07154 0.19850 0.09500
C 	C 	0.80150 0.92846 0.80150 0.08600
C 	C 	0.92846 0.80150 0.46854 0.09500
C 	C 	0.46854 0.80150 0.92846 0.09500
C 	C 	0.80150 0.46854 0.80150 0.09600
C 	C 	0.80150 0.92846 0.46854 0.09500
C 	C 	0.46854 0.80150 0.80150 0.09600
C 	C 	0.92846 0.80150 0.80150 0.08600
C 	C 	0.80150 0.46854 0.92846 0.09500
C 	C 	0.46854 0.92846 0.80150 0.09500
C 	C 	0.80150 0.80150 0.92846 0.08600
C 	C 	0.80150 0.80150 0.46854 0.09600
C 	C 	0.92846 0.46854 0.80150 0.09500
C 	C 	0.74300 0.54700 0.16300 -0.66700
C 	C 	0.54700 0.74300 0.54700 -0.66600
C 	C 	0.16300 0.54700 0.74300 -0.66700
C 	C 	0.54700 0.16300 0.54700 -0.66700
C 	C 	0.74300 0.16300 0.54700 -0.66700
C 	C 	0.54700 0.54700 0.16300 -0.66700
C 	C 	0.16300 0.74300 0.54700 -0.66700
C 	C 	0.54700 0.54700 0.74300 -0.66600
C 	C 	0.74300 0.54700 0.54700 -0.66600
C 	C 	0.54700 0.16300 0.74300 -0.66700
C 	C 	0.16300 0.54700 0.54700 -0.66700
C 	C 	0.54700 0.74300 0.16300 -0.66700
C 	C 	0.45300 0.25700 0.83700 -0.66700
C 	C 	0.25700 0.45300 0.45300 -0.66600
C 	C 	0.45300 0.83700 0.25700 -0.66700
C 	C 	0.83700 0.45300 0.45300 -0.66700
C 	C 	0.83700 0.25700 0.45300 -0.66700
C 	C 	0.45300 0.45300 0.83700 -0.66700
C 	C 	0.25700 0.83700 0.45300 -0.66700
C 	C 	0.45300 0.45300 0.25700 -0.66600
C 	C 	0.45300 0.25700 0.45300 -0.66600
C 	C 	0.83700 0.45300 0.25700 -0.66700
C 	C 	0.45300 0.83700 0.45300 -0.66700
C 	C 	0.25700 0.45300 0.83700 -0.66700
N 	N 	0.82300 0.50000 0.17700 -0.16200
N 	N 	0.50000 0.82300 0.50000 -0.16200
N 	N 	0.17700 0.50000 0.82300 -0.16200
N 	N 	0.50000 0.17700 0.50000 -0.16200
N 	N 	0.82300 0.17700 0.50000 -0.16200
N 	N 	0.50000 0.50000 0.17700 -0.16200
N 	N 	0.17700 0.82300 0.50000 -0.16200
N 	N 	0.50000 0.50000 0.82300 -0.16200
N 	N 	0.82300 0.50000 0.50000 -0.16200
N 	N 	0.50000 0.17700 0.82300 -0.16200
N 	N 	0.17700 0.50000 0.50000 -0.16200
N 	N 	0.50000 0.82300 0.17700 -0.16200
O 	O 	0.99401 0.37205 0.11249 -0.43100
O 	O 	0.37205 0.99401 0.52145 -0.44100
O 	O 	0.11249 0.52145 0.99401 -0.43500
O 	O 	0.52145 0.11249 0.37205 -0.44200
O 	O 	0.99401 0.11249 0.52145 -0.43500
O 	O 	0.37205 0.52145 0.11249 -0.44200
O 	O 	0.11249 0.99401 0.37205 -0.43100
O 	O 	0.52145 0.37205 0.99401 -0.44100
O 	O 	0.99401 0.52145 0.37205 -0.44100
O 	O 	0.37205 0.11249 0.99401 -0.43100
O 	O 	0.11249 0.37205 0.52145 -0.44200
O 	O 	0.52145 0.99401 0.11249 -0.43500
O 	O 	0.62795 0.00599 0.88751 -0.43100
O 	O 	0.00599 0.62795 0.47855 -0.44100
O 	O 	0.47855 0.88751 0.00599 -0.43500
O 	O 	0.88751 0.47855 0.62795 -0.44200
O 	O 	0.88751 0.00599 0.47855 -0.43500
O 	O 	0.47855 0.62795 0.88751 -0.44200
O 	O 	0.00599 0.88751 0.62795 -0.43100
O 	O 	0.62795 0.47855 0.00599 -0.44100
O 	O 	0.47855 0.00599 0.62795 -0.44100
O 	O 	0.88751 0.62795 0.00599 -0.43100
O 	O 	0.62795 0.88751 0.47855 -0.44200
O 	O 	0.00599 0.47855 0.88751 -0.43500
O 	O 	0.00599 0.62795 0.88751 -0.43100
O 	O 	0.62795 0.00599 0.47855 -0.44100
O 	O 	0.88751 0.47855 0.00599 -0.43500
O 	O 	0.47855 0.88751 0.62795 -0.44200
O 	O 	0.00599 0.88751 0.47855 -0.43500
O 	O 	0.62795 0.47855 0.88751 -0.44200
O 	O 	0.88751 0.00599 0.62795 -0.43100
O 	O 	0.47855 0.62795 0.00599 -0.44100
O 	O 	0.00599 0.47855 0.62795 -0.44100
O 	O 	0.62795 0.88751 0.00599 -0.43100
O 	O 	0.88751 0.62795 0.47855 -0.44200
O 	O 	0.47855 0.00599 0.88751 -0.43500
O 	O 	0.37205 0.99401 0.11249 -0.43100
O 	O 	0.99401 0.37205 0.52145 -0.44100
O 	O 	0.52145 0.11249 0.99401 -0.43500
O 	O 	0.11249 0.52145 0.37205 -0.44200
O 	O 	0.11249 0.99401 0.52145 -0.43500
O 	O 	0.52145 0.37205 0.11249 -0.44200
O 	O 	0.99401 0.11249 0.37205 -0.43100
O 	O 	0.37205 0.52145 0.99401 -0.44100
O 	O 	0.52145 0.99401 0.37205 -0.44100
O 	O 	0.11249 0.37205 0.99401 -0.43100
O 	O 	0.37205 0.11249 0.52145 -0.44200
O 	O 	0.99401 0.52145 0.11249 -0.43500
