data_crystal

_cell_length_a 31.15400
_cell_length_b 18.38500
_cell_length_c 26.03400
_cell_angle_alpha 90.00000
_cell_angle_beta  114.27400
_cell_angle_gamma 90.00000

_symmetry_space_group_name_	'P 1'
_symmetry_space_group_name_H-M	'P 1'

loop_
_symmetry_equiv_pos_as_xyz
  x,y,z

loop_
_atom_site_label
_atom_site_type_symbol
_atom_site_fract_x
_atom_site_fract_y
_atom_site_fract_z
_atom_site_charge
Cu	Cu	0.49998 0.01811 0.49999 0.82000
Cu	Cu	0.56289 0.13566 0.56568 0.84000
Cu	Cu	0.71437 0.26266 0.08896 0.81600
Cu	Cu	0.65317 0.38685 0.02745 0.83000
Cu	Cu	0.48788 0.49250 0.00127 0.80100
Cu	Cu	0.54581 0.37333 0.06919 0.82700
Cu	Cu	0.72088 0.23442 0.58870 0.81900
Cu	Cu	0.66356 0.11891 0.51417 0.82600
Cl	Cl	0.57634 0.04813 0.49772 -0.66300
Cl	Cl	0.63662 0.29848 0.08829 -0.66500
Cl	Cl	0.56878 0.45322 0.00643 -0.68700
Cl	Cl	0.64343 0.19994 0.58669 -0.67000
N 	N 	0.45417 0.06940 0.43654 -0.27600
N 	N 	0.19599 0.96098 0.07655 -0.26900
N 	N 	0.51534 0.94323 0.55635 -0.27400
N 	N 	0.64004 0.83091 0.94209 -0.26200
N 	N 	0.57888 0.08716 0.63870 -0.26900
N 	N 	0.69662 0.18955 0.03050 -0.25100
N 	N 	0.75981 0.31334 0.15350 -0.27800
N 	N 	0.00460 0.20029 0.51996 -0.27200
N 	N 	0.63581 0.34186 0.95327 -0.25600
N 	N 	0.50678 0.43260 0.55749 -0.27600
N 	N 	0.44479 0.43924 0.93748 -0.26500
N 	N 	0.20507 0.54784 0.56569 -0.27900
N 	N 	0.57001 0.42081 0.14241 -0.27400
N 	N 	0.70457 0.31021 0.53273 -0.27900
N 	N 	0.76494 0.18228 0.65304 -0.27500
N 	N 	0.02052 0.29161 0.01478 -0.25600
C 	C 	0.46683 0.10572 0.40027 0.09600
H 	H 	0.49950 0.11080 0.40930 -0.01500
C 	C 	0.43541 0.13617 0.35073 -0.20100
H 	H 	0.44640 0.16170 0.32680 0.08700
C 	C 	0.38755 0.12917 0.33625 0.16700
C 	C 	0.37435 0.09380 0.37447 -0.20800
H 	H 	0.34190 0.08950 0.36690 0.08800
C 	C 	0.40766 0.06494 0.42306 0.09900
H 	H 	0.39750 0.04070 0.44830 -0.04600
C 	C 	0.24151 0.96290 0.08618 0.09900
H 	H 	0.25300 0.92780 0.06820 -0.06400
C 	C 	0.27277 0.01350 0.12101 -0.19600
H 	H 	0.30490 0.01220 0.12680 0.08300
C 	C 	0.25719 0.06609 0.14745 0.15000
C 	C 	0.20997 0.06395 0.13747 -0.19800
H 	H 	0.19750 0.09890 0.15450 0.08300
C 	C 	0.18074 0.01077 0.10254 0.10100
H 	H 	0.14860 0.00980 0.09690 -0.01100
C 	C 	0.35141 0.15674 0.28019 -0.26800
H 	H 	0.36760 0.18470 0.26090 0.09800
H 	H 	0.32920 0.18980 0.28690 0.10000
C 	C 	0.32379 0.09355 0.24211 0.05200
H 	H 	0.30570 0.06740 0.26000 0.00700
H 	H 	0.34590 0.05880 0.23700 0.00700
C 	C 	0.28981 0.12383 0.18438 -0.24900
H 	H 	0.27080 0.16350 0.19030 0.07200
H 	H 	0.30840 0.14470 0.16490 0.07500
C 	C 	0.55978 0.91656 0.58084 0.09300
H 	H 	0.58350 0.93770 0.57150 -0.01100
C 	C 	0.57174 0.85962 0.61893 -0.19700
H 	H 	0.60340 0.84330 0.63600 0.10100
C 	C 	0.53808 0.82650 0.63236 0.16800
C 	C 	0.49290 0.85460 0.60784 -0.20400
H 	H 	0.46870 0.83430 0.61670 0.08500
C 	C 	0.48284 0.91240 0.57022 0.10400
H 	H 	0.45160 0.93070 0.55380 -0.04600
C 	C 	0.66872 0.79920 0.92167 0.10200
H 	H 	0.70170 0.80010 0.94390 -0.04200
C 	C 	0.65196 0.76517 0.86937 -0.20400
H 	H 	0.67340 0.74380 0.85630 0.09100
C 	C 	0.60385 0.76240 0.83618 0.17600
C 	C 	0.57464 0.79470 0.85771 -0.20600
H 	H 	0.54150 0.79420 0.83660 0.09100
C 	C 	0.59379 0.82770 0.91007 0.10200
H 	H 	0.57300 0.84920 0.92400 -0.00900
C 	C 	0.55077 0.76468 0.67386 -0.27200
H 	H 	0.57420 0.73300 0.66840 0.09100
H 	H 	0.52240 0.73510 0.66700 0.08400
C 	C 	0.57106 0.79313 0.73456 0.07100
H 	H 	0.54750 0.82470 0.73990 0.00200
H 	H 	0.59930 0.82300 0.74120 0.00500
C 	C 	0.58455 0.73101 0.77779 -0.28300
H 	H 	0.55650 0.70090 0.77160 0.10200
H 	H 	0.60850 0.69950 0.77320 0.10700
C 	C 	0.62424 0.07560 0.67332 0.09800
H 	H 	0.64780 0.09070 0.66120 -0.01000
C 	C 	0.63847 0.04290 0.72546 -0.20100
H 	H 	0.67100 0.03610 0.74830 0.08900
C 	C 	0.60505 0.01988 0.74450 0.16900
C 	C 	0.55836 0.03160 0.70831 -0.20800
H 	H 	0.53410 0.01640 0.71900 0.08900
C 	C 	0.54681 0.06510 0.65680 0.10400
H 	H 	0.51450 0.07280 0.63320 -0.05700
C 	C 	0.72658 0.16210 0.01085 0.01800
H 	H 	0.75760 0.18130 0.02490 -0.02800
C 	C 	0.71476 0.10700 0.97107 -0.10300
H 	H 	0.73720 0.08990 0.95790 0.06100
C 	C 	0.67035 0.07727 0.95077 0.10400
C 	C 	0.63898 0.10530 0.97180 -0.09600
H 	H 	0.60810 0.08590 0.95950 0.07600
C 	C 	0.65331 0.16090 0.01037 0.01000
H 	H 	0.63130 0.18000 0.02350 0.00800
C 	C 	0.61985 0.98764 0.80232 -0.26800
H 	H 	0.64530 0.95170 0.80910 0.09900
H 	H 	0.59280 0.96210 0.80490 0.10100
C 	C 	0.63747 0.04792 0.84756 0.04700
H 	H 	0.66350 0.07480 0.84360 0.00900
H 	H 	0.61150 0.08270 0.84130 0.01100
C 	C 	0.65482 0.01720 0.90733 -0.23500
H 	H 	0.62920 0.98900 0.91110 0.08700
H 	H 	0.68150 0.98380 0.91420 0.07900
C 	C 	0.74659 0.34900 0.18919 0.10000
H 	H 	0.71390 0.35340 0.17990 -0.01800
C 	C 	0.77775 0.37980 0.23870 -0.20500
H 	H 	0.76640 0.40490 0.26260 0.08900
C 	C 	0.82577 0.37398 0.25348 0.17600
C 	C 	0.83915 0.33958 0.21528 -0.21300
H 	H 	0.87160 0.33620 0.22290 0.08500
C 	C 	0.80616 0.31004 0.16620 0.09900
H 	H 	0.81650 0.28670 0.14070 -0.05100
C 	C 	0.95945 0.20854 0.50964 0.09400
H 	H 	0.94630 0.17660 0.52810 -0.05900
C 	C 	0.93026 0.26049 0.47382 -0.21800
H 	H 	0.89810 0.26310 0.46790 0.09100
C 	C 	0.94807 0.30872 0.44659 0.19700
C 	C 	0.99536 0.30082 0.45739 -0.30700
H 	H 	0.00940 0.33260 0.44000 0.13600
C 	C 	0.02209 0.24676 0.49348 0.17500
H 	H 	0.05430 0.24230 0.49980 -0.03400
C 	C 	0.86131 0.40179 0.30891 -0.28300
H 	H 	0.84540 0.43360 0.32630 0.10200
H 	H 	0.88520 0.43130 0.30240 0.10000
C 	C 	0.88608 0.33892 0.34972 0.07200
H 	H 	0.86210 0.30660 0.35340 0.00100
H 	H 	0.90470 0.30990 0.33410 -0.00100
C 	C 	0.91865 0.36803 0.40790 -0.28400
H 	H 	0.93980 0.40530 0.40340 0.07800
H 	H 	0.89940 0.39170 0.42530 0.09000
C 	C 	0.66720 0.31582 0.93527 0.10300
H 	H 	0.69970 0.32050 0.95920 -0.04500
C 	C 	0.65472 0.28216 0.88326 -0.20200
H 	H 	0.67840 0.26380 0.87260 0.09000
C 	C 	0.60736 0.27545 0.84675 0.17300
C 	C 	0.57500 0.30374 0.86477 -0.20100
H 	H 	0.54230 0.30180 0.84090 0.09000
C 	C 	0.59007 0.33498 0.91773 0.09700
H 	H 	0.56690 0.35250 0.92960 -0.00000
C 	C 	0.55000 0.40193 0.57492 0.09800
H 	H 	0.57080 0.41850 0.55900 -0.00800
C 	C 	0.56481 0.34790 0.61464 -0.20500
H 	H 	0.59560 0.32830 0.62590 0.10100
C 	C 	0.53594 0.32160 0.63853 0.16700
C 	C 	0.49115 0.35207 0.62060 -0.20100
H 	H 	0.46990 0.33600 0.63600 0.08400
C 	C 	0.47794 0.40651 0.57976 0.09700
H 	H 	0.44710 0.42610 0.56710 -0.04700
C 	C 	0.55226 0.26396 0.68343 -0.27300
H 	H 	0.57660 0.23350 0.67880 0.09300
H 	H 	0.52540 0.23220 0.67950 0.09100
C 	C 	0.57278 0.29907 0.74275 0.06800
H 	H 	0.59850 0.33290 0.74580 0.00600
H 	H 	0.54790 0.32760 0.74790 0.00200
C 	C 	0.59187 0.24179 0.78915 -0.28000
H 	H 	0.56710 0.20510 0.78380 0.10300
H 	H 	0.61890 0.21660 0.78640 0.10500
C 	C 	0.46033 0.40201 0.90405 0.09100
H 	H 	0.49340 0.39670 0.91600 -0.00600
C 	C 	0.43091 0.37092 0.85319 -0.19400
H 	H 	0.44370 0.34490 0.83120 0.08600
C 	C 	0.38253 0.37830 0.83474 0.16600
C 	C 	0.36651 0.41487 0.86991 -0.20400
H 	H 	0.33360 0.41970 0.85940 0.08800
C 	C 	0.39774 0.44439 0.91998 0.09700
H 	H 	0.38560 0.46940 0.94310 -0.03700
C 	C 	0.24933 0.53670 0.57297 0.10200
H 	H 	0.26170 0.56590 0.55210 -0.05600
C 	C 	0.27882 0.48440 0.60980 -0.20300
H 	H 	0.31030 0.47890 0.61370 0.08600
C 	C 	0.26169 0.44120 0.64011 0.16200
C 	C 	0.21619 0.45330 0.63312 -0.20900
H 	H 	0.20310 0.42560 0.65390 0.08700
C 	C 	0.18913 0.50660 0.59526 0.11300
H 	H 	0.15750 0.51330 0.59070 -0.02000
C 	C 	0.29104 0.38250 0.67953 -0.25800
H 	H 	0.31060 0.35850 0.66260 0.08100
H 	H 	0.26990 0.34530 0.68400 0.07200
C 	C 	0.32326 0.41230 0.73778 0.05800
H 	H 	0.30420 0.43990 0.75370 0.00600
H 	H 	0.34660 0.44600 0.73400 0.00600
C 	C 	0.34904 0.34982 0.77781 -0.27000
H 	H 	0.32570 0.31730 0.78270 0.10100
H 	H 	0.36690 0.32100 0.76100 0.09800
C 	C 	0.61652 0.42479 0.17384 0.10200
H 	H 	0.63720 0.40540 0.15870 -0.01200
C 	C 	0.63606 0.45544 0.22691 -0.20800
H 	H 	0.66930 0.45640 0.24750 0.09200
C 	C 	0.60694 0.48478 0.24993 0.17900
C 	C 	0.55899 0.48135 0.21724 -0.21400
H 	H 	0.53760 0.50130 0.23100 0.09200
C 	C 	0.54202 0.44928 0.16490 0.10800
H 	H 	0.50890 0.44720 0.14370 -0.05900
C 	C 	0.73670 0.34330 0.51929 0.10900
H 	H 	0.76850 0.32750 0.53700 -0.04900
C 	C 	0.72563 0.39920 0.48086 -0.21200
H 	H 	0.74950 0.42070 0.47200 0.08700
C 	C 	0.68009 0.42409 0.45531 0.16800
C 	C 	0.64665 0.39050 0.46967 -0.20100
H 	H 	0.61480 0.40610 0.45310 0.09900
C 	C 	0.66022 0.33445 0.50816 0.09900
H 	H 	0.63700 0.31190 0.51770 -0.01300
C 	C 	0.62642 0.51582 0.30859 -0.28400
H 	H 	0.60170 0.54430 0.31410 0.10700
H 	H 	0.65290 0.54900 0.31360 0.10400
C 	C 	0.64381 0.45451 0.35281 0.07000
H 	H 	0.61700 0.42250 0.34870 0.00500
H 	H 	0.66750 0.42480 0.34620 0.00200
C 	C 	0.66559 0.48533 0.41268 -0.27100
H 	H 	0.69350 0.51520 0.41760 0.09000
H 	H 	0.64240 0.51700 0.41890 0.09100
C 	C 	0.81174 0.18740 0.66883 0.09500
H 	H 	0.82330 0.21110 0.64470 -0.04700
C 	C 	0.84349 0.15890 0.71965 -0.20900
H 	H 	0.87630 0.16370 0.72960 0.08500
C 	C 	0.82850 0.12402 0.75569 0.17200
C 	C 	0.78033 0.11701 0.73846 -0.20300
H 	H 	0.76800 0.09150 0.76120 0.08800
C 	C 	0.75032 0.14750 0.68784 0.09800
H 	H 	0.71740 0.14350 0.67730 -0.01300
C 	C 	0.03409 0.24940 0.98198 0.11900
H 	H 	0.06490 0.25560 0.98370 -0.00800
C 	C 	0.00506 0.19728 0.94563 -0.13500
H 	H 	0.01590 0.16920 0.92270 0.07700
C 	C 	0.96037 0.18645 0.94292 0.07900
C 	C 	0.94625 0.23031 0.97637 -0.08600
H 	H 	0.91560 0.22510 0.97550 0.05800
C 	C 	0.97678 0.28160 0.01096 -0.01700
H 	H 	0.96620 0.31140 0.03320 -0.03200
C 	C 	0.86294 0.09702 0.81226 -0.27000
H 	H 	0.88370 0.06010 0.80670 0.09900
H 	H 	0.84540 0.07330 0.83190 0.09900
C 	C 	0.89310 0.15831 0.84911 0.04300
H 	H 	0.87250 0.19470 0.85580 0.01200
H 	H 	0.91030 0.18280 0.82940 0.00700
C 	C 	0.92837 0.12840 0.90559 -0.21300
H 	H 	0.91090 0.10530 0.92560 0.06500
H 	H 	0.94780 0.09040 0.89850 0.05900
Cu	Cu	0.99998 0.51811 0.49999 0.81000
Cu	Cu	0.06289 0.63566 0.56568 0.84300
Cu	Cu	0.21437 0.76266 0.08896 0.81700
Cu	Cu	0.15317 0.88685 0.02745 0.83100
Cu	Cu	0.98788 0.99250 0.00127 0.79200
Cu	Cu	0.04581 0.87333 0.06919 0.83100
Cu	Cu	0.22088 0.73442 0.58870 0.82000
Cu	Cu	0.16356 0.61891 0.51417 0.82700
Cl	Cl	0.07634 0.54813 0.49772 -0.65200
Cl	Cl	0.13662 0.79848 0.08829 -0.66500
Cl	Cl	0.06878 0.95322 0.00643 -0.67800
Cl	Cl	0.14343 0.69994 0.58669 -0.67100
N 	N 	0.95417 0.56940 0.43654 -0.27900
N 	N 	0.69599 0.46098 0.07655 -0.26900
N 	N 	0.01534 0.44323 0.55635 -0.26000
N 	N 	0.14004 0.33091 0.94209 -0.26300
N 	N 	0.07888 0.58716 0.63870 -0.26800
N 	N 	0.19662 0.68955 0.03050 -0.25000
N 	N 	0.25981 0.81334 0.15350 -0.27800
N 	N 	0.50460 0.70029 0.51996 -0.27300
N 	N 	0.13581 0.84186 0.95327 -0.25600
N 	N 	0.00678 0.93260 0.55749 -0.26200
N 	N 	0.94479 0.93924 0.93748 -0.26800
N 	N 	0.70507 0.04784 0.56569 -0.27800
N 	N 	0.07001 0.92081 0.14241 -0.27200
N 	N 	0.20457 0.81021 0.53273 -0.27900
N 	N 	0.26494 0.68228 0.65304 -0.27600
N 	N 	0.52052 0.79161 0.01478 -0.28000
C 	C 	0.96683 0.60572 0.40027 0.09400
H 	H 	0.99950 0.61080 0.40930 -0.02500
C 	C 	0.93541 0.63617 0.35073 -0.20200
H 	H 	0.94640 0.66170 0.32680 0.08200
C 	C 	0.88755 0.62917 0.33625 0.16600
C 	C 	0.87435 0.59380 0.37447 -0.20800
H 	H 	0.84190 0.58950 0.36690 0.08700
C 	C 	0.90766 0.56494 0.42306 0.09800
H 	H 	0.89750 0.54070 0.44830 -0.04700
C 	C 	0.74151 0.46290 0.08618 0.09800
H 	H 	0.75300 0.42780 0.06820 -0.06400
C 	C 	0.77277 0.51350 0.12101 -0.19600
H 	H 	0.80490 0.51220 0.12680 0.08200
C 	C 	0.75719 0.56609 0.14745 0.14900
C 	C 	0.70997 0.56395 0.13747 -0.19800
H 	H 	0.69750 0.59890 0.15450 0.08300
C 	C 	0.68074 0.51077 0.10254 0.10000
H 	H 	0.64860 0.50980 0.09690 -0.01200
C 	C 	0.85141 0.65674 0.28019 -0.26800
H 	H 	0.86760 0.68470 0.26090 0.09600
H 	H 	0.82920 0.68980 0.28690 0.10000
C 	C 	0.82379 0.59355 0.24211 0.05200
H 	H 	0.80570 0.56740 0.26000 0.00700
H 	H 	0.84590 0.55880 0.23700 0.00500
C 	C 	0.78981 0.62383 0.18438 -0.24900
H 	H 	0.77080 0.66350 0.19030 0.07200
H 	H 	0.80840 0.64470 0.16490 0.07400
C 	C 	0.05978 0.41656 0.58084 0.10600
H 	H 	0.08350 0.43770 0.57150 -0.01400
C 	C 	0.07174 0.35962 0.61893 -0.21600
H 	H 	0.10340 0.34330 0.63600 0.10700
C 	C 	0.03808 0.32650 0.63236 0.21000
C 	C 	0.99290 0.35460 0.60784 -0.24400
H 	H 	0.96870 0.33430 0.61670 0.09100
C 	C 	0.98284 0.41240 0.57022 0.09300
H 	H 	0.95160 0.43070 0.55380 -0.04600
C 	C 	0.16872 0.29920 0.92167 0.10300
H 	H 	0.20170 0.30010 0.94390 -0.04300
C 	C 	0.15196 0.26517 0.86937 -0.20700
H 	H 	0.17340 0.24380 0.85630 0.09200
C 	C 	0.10385 0.26240 0.83618 0.18100
C 	C 	0.07464 0.29470 0.85771 -0.20800
H 	H 	0.04150 0.29420 0.83660 0.09700
C 	C 	0.09379 0.32770 0.91007 0.10300
H 	H 	0.07300 0.34920 0.92400 -0.00600
C 	C 	0.05077 0.26468 0.67386 -0.29800
H 	H 	0.07420 0.23300 0.66840 0.09800
H 	H 	0.02240 0.23510 0.66700 0.09700
C 	C 	0.07106 0.29313 0.73456 0.08500
H 	H 	0.04750 0.32470 0.73990 0.00100
H 	H 	0.09930 0.32300 0.74120 0.00100
C 	C 	0.08455 0.23101 0.77779 -0.29300
H 	H 	0.05650 0.20090 0.77160 0.10800
H 	H 	0.10850 0.19950 0.77320 0.11000
C 	C 	0.12424 0.57560 0.67332 0.09800
H 	H 	0.14780 0.59070 0.66120 -0.01000
C 	C 	0.13847 0.54290 0.72546 -0.20200
H 	H 	0.17100 0.53610 0.74830 0.09000
C 	C 	0.10505 0.51988 0.74450 0.17200
C 	C 	0.05836 0.53160 0.70831 -0.20800
H 	H 	0.03410 0.51640 0.71900 0.09500
C 	C 	0.04681 0.56510 0.65680 0.10600
H 	H 	0.01450 0.57280 0.63320 -0.05000
C 	C 	0.22658 0.66210 0.01085 0.01500
H 	H 	0.25760 0.68130 0.02490 -0.02700
C 	C 	0.21476 0.60700 0.97107 -0.09900
H 	H 	0.23720 0.58990 0.95790 0.06000
C 	C 	0.17035 0.57727 0.95077 0.10100
C 	C 	0.13898 0.60530 0.97180 -0.09100
H 	H 	0.10810 0.58590 0.95950 0.07700
C 	C 	0.15331 0.66090 0.01037 0.00700
H 	H 	0.13130 0.68000 0.02350 0.00900
C 	C 	0.11985 0.48764 0.80232 -0.27000
H 	H 	0.14530 0.45170 0.80910 0.10000
H 	H 	0.09280 0.46210 0.80490 0.10400
C 	C 	0.13747 0.54792 0.84756 0.04700
H 	H 	0.16350 0.57480 0.84360 0.00900
H 	H 	0.11150 0.58270 0.84130 0.01300
C 	C 	0.15482 0.51720 0.90733 -0.22900
H 	H 	0.12920 0.48900 0.91110 0.08500
H 	H 	0.18150 0.48380 0.91420 0.07600
C 	C 	0.24659 0.84900 0.18919 0.09900
H 	H 	0.21390 0.85340 0.17990 -0.01800
C 	C 	0.27775 0.87980 0.23870 -0.20400
H 	H 	0.26640 0.90490 0.26260 0.08800
C 	C 	0.32577 0.87398 0.25348 0.17400
C 	C 	0.33915 0.83958 0.21528 -0.21200
H 	H 	0.37160 0.83620 0.22290 0.08800
C 	C 	0.30616 0.81004 0.16620 0.09900
H 	H 	0.31650 0.78670 0.14070 -0.05000
C 	C 	0.45945 0.70854 0.50964 0.10600
H 	H 	0.44630 0.67660 0.52810 -0.05700
C 	C 	0.43026 0.76049 0.47382 -0.19800
H 	H 	0.39810 0.76310 0.46790 0.08600
C 	C 	0.44807 0.80872 0.44659 0.15400
C 	C 	0.49536 0.80082 0.45739 -0.19400
H 	H 	0.50940 0.83260 0.44000 0.08100
C 	C 	0.52209 0.74676 0.49348 0.09800
H 	H 	0.55430 0.74230 0.49980 -0.01000
C 	C 	0.36131 0.90179 0.30891 -0.27600
H 	H 	0.34540 0.93360 0.32630 0.10100
H 	H 	0.38520 0.93130 0.30240 0.10000
C 	C 	0.38608 0.83892 0.34972 0.05800
H 	H 	0.36210 0.80660 0.35340 0.00600
H 	H 	0.40470 0.80990 0.33410 0.00600
C 	C 	0.41865 0.86803 0.40790 -0.25500
H 	H 	0.43980 0.90530 0.40340 0.07400
H 	H 	0.39940 0.89170 0.42530 0.08300
C 	C 	0.16720 0.81582 0.93527 0.10500
H 	H 	0.19970 0.82050 0.95920 -0.04500
C 	C 	0.15472 0.78216 0.88326 -0.20500
H 	H 	0.17840 0.76380 0.87260 0.09100
C 	C 	0.10736 0.77545 0.84675 0.17700
C 	C 	0.07500 0.80374 0.86477 -0.20400
H 	H 	0.04230 0.80180 0.84090 0.09600
C 	C 	0.09007 0.83498 0.91773 0.09900
H 	H 	0.06690 0.85250 0.92960 0.00400
C 	C 	0.05000 0.90193 0.57492 0.11200
H 	H 	0.07080 0.91850 0.55900 -0.01100
C 	C 	0.06481 0.84790 0.61464 -0.22300
H 	H 	0.09560 0.82830 0.62590 0.10700
C 	C 	0.03594 0.82160 0.63853 0.20700
C 	C 	0.99115 0.85207 0.62060 -0.24000
H 	H 	0.96990 0.83600 0.63600 0.09000
C 	C 	0.97794 0.90651 0.57976 0.08600
H 	H 	0.94710 0.92610 0.56710 -0.04600
C 	C 	0.05226 0.76396 0.68343 -0.29600
H 	H 	0.07660 0.73350 0.67880 0.10100
H 	H 	0.02540 0.73220 0.67950 0.10400
C 	C 	0.07278 0.79907 0.74275 0.08100
H 	H 	0.09850 0.83290 0.74580 0.00200
H 	H 	0.04790 0.82760 0.74790 0.00200
C 	C 	0.09187 0.74179 0.78915 -0.28800
H 	H 	0.06710 0.70510 0.78380 0.10700
H 	H 	0.11890 0.71660 0.78640 0.10700
C 	C 	0.96033 0.90201 0.90405 0.09100
H 	H 	0.99340 0.89670 0.91600 -0.01600
C 	C 	0.93091 0.87092 0.85319 -0.19600
H 	H 	0.94370 0.84490 0.83120 0.08100
C 	C 	0.88253 0.87830 0.83474 0.16500
C 	C 	0.86651 0.91487 0.86991 -0.20400
H 	H 	0.83360 0.91970 0.85940 0.08800
C 	C 	0.89774 0.94439 0.91998 0.09700
H 	H 	0.88560 0.96940 0.94310 -0.03800
C 	C 	0.74933 0.03670 0.57297 0.10000
H 	H 	0.76170 0.06590 0.55210 -0.05600
C 	C 	0.77882 0.98440 0.60980 -0.20000
H 	H 	0.81030 0.97890 0.61370 0.08400
C 	C 	0.76169 0.94120 0.64011 0.16100
C 	C 	0.71619 0.95330 0.63312 -0.20700
H 	H 	0.70310 0.92560 0.65390 0.08700
C 	C 	0.68913 0.00660 0.59526 0.11100
H 	H 	0.65750 0.01330 0.59070 -0.01900
C 	C 	0.79104 0.88250 0.67953 -0.25700
H 	H 	0.81060 0.85850 0.66260 0.08000
H 	H 	0.76990 0.84530 0.68400 0.07200
C 	C 	0.82326 0.91230 0.73778 0.05700
H 	H 	0.80420 0.93990 0.75370 0.00700
H 	H 	0.84660 0.94600 0.73400 0.00500
C 	C 	0.84904 0.84982 0.77781 -0.27000
H 	H 	0.82570 0.81730 0.78270 0.10100
H 	H 	0.86690 0.82100 0.76100 0.09700
C 	C 	0.11652 0.92479 0.17384 0.10200
H 	H 	0.13720 0.90540 0.15870 -0.01200
C 	C 	0.13606 0.95544 0.22691 -0.20900
H 	H 	0.16930 0.95640 0.24750 0.09200
C 	C 	0.10694 0.98478 0.24993 0.18000
C 	C 	0.05899 0.98135 0.21724 -0.21300
H 	H 	0.03760 0.00130 0.23100 0.09600
C 	C 	0.04202 0.94928 0.16490 0.10900
H 	H 	0.00890 0.94720 0.14370 -0.05200
C 	C 	0.23670 0.84330 0.51929 0.10900
H 	H 	0.26850 0.82750 0.53700 -0.04900
C 	C 	0.22563 0.89920 0.48086 -0.21200
H 	H 	0.24950 0.92070 0.47200 0.08700
C 	C 	0.18009 0.92409 0.45531 0.16900
C 	C 	0.14665 0.89050 0.46967 -0.20200
H 	H 	0.11480 0.90610 0.45310 0.10000
C 	C 	0.16022 0.83445 0.50816 0.10000
H 	H 	0.13700 0.81190 0.51770 -0.01300
C 	C 	0.12642 0.01582 0.30859 -0.28400
H 	H 	0.10170 0.04430 0.31410 0.10800
H 	H 	0.15290 0.04900 0.31360 0.10400
C 	C 	0.14381 0.95451 0.35281 0.07000
H 	H 	0.11700 0.92250 0.34870 0.00600
H 	H 	0.16750 0.92480 0.34620 0.00200
C 	C 	0.16559 0.98533 0.41268 -0.27000
H 	H 	0.19350 0.01520 0.41760 0.09000
H 	H 	0.14240 0.01700 0.41890 0.09100
C 	C 	0.31174 0.68740 0.66883 0.09800
H 	H 	0.32330 0.71110 0.64470 -0.04700
C 	C 	0.34349 0.65890 0.71965 -0.21400
H 	H 	0.37630 0.66370 0.72960 0.09000
C 	C 	0.32850 0.62402 0.75569 0.17900
C 	C 	0.28033 0.61701 0.73846 -0.20700
H 	H 	0.26800 0.59150 0.76120 0.09000
C 	C 	0.25032 0.64750 0.68784 0.10000
H 	H 	0.21740 0.64350 0.67730 -0.01400
C 	C 	0.53409 0.74940 0.98198 0.14300
H 	H 	0.56490 0.75560 0.98370 -0.01700
C 	C 	0.50506 0.69728 0.94563 -0.19800
H 	H 	0.51590 0.66920 0.92270 0.09100
C 	C 	0.46037 0.68645 0.94292 0.13900
C 	C 	0.44625 0.73031 0.97637 -0.12500
H 	H 	0.41560 0.72510 0.97550 0.07200
C 	C 	0.47678 0.78160 0.01096 0.02900
H 	H 	0.46620 0.81140 0.03320 -0.04100
C 	C 	0.36294 0.59702 0.81226 -0.28300
H 	H 	0.38370 0.56010 0.80670 0.10500
H 	H 	0.34540 0.57330 0.83190 0.10300
C 	C 	0.39310 0.65831 0.84911 0.06400
H 	H 	0.37250 0.69470 0.85580 0.00600
H 	H 	0.41030 0.68280 0.82940 0.00400
C 	C 	0.42837 0.62840 0.90559 -0.24900
H 	H 	0.41090 0.60530 0.92560 0.07600
H 	H 	0.44780 0.59040 0.89850 0.07500
Cu	Cu	0.49998 0.98189 0.99999 0.83600
Cu	Cu	0.56289 0.86434 0.06568 0.83200
Cu	Cu	0.71437 0.73734 0.58896 0.82000
Cu	Cu	0.65317 0.61315 0.52745 0.84200
Cu	Cu	0.48788 0.50750 0.50127 0.81600
Cu	Cu	0.54581 0.62667 0.56919 0.83100
Cu	Cu	0.72088 0.76558 0.08870 0.81700
Cu	Cu	0.66356 0.88109 0.01417 0.81200
Cl	Cl	0.57634 0.95187 0.99772 -0.62900
Cl	Cl	0.63662 0.70152 0.58829 -0.65500
Cl	Cl	0.56878 0.54678 0.50643 -0.66200
Cl	Cl	0.64343 0.80006 0.08669 -0.68200
N 	N 	0.45417 0.93060 0.93654 -0.27200
N 	N 	0.19599 0.03902 0.57655 -0.26600
N 	N 	0.51534 0.05677 0.05635 -0.28500
N 	N 	0.64004 0.16909 0.44209 -0.27200
N 	N 	0.57888 0.91284 0.13870 -0.27100
N 	N 	0.69662 0.81045 0.53050 -0.27600
N 	N 	0.75981 0.68666 0.65350 -0.27700
N 	N 	0.00460 0.79971 0.01996 -0.28300
N 	N 	0.63581 0.65814 0.45327 -0.26800
N 	N 	0.50678 0.56740 0.05749 -0.28000
N 	N 	0.44479 0.56076 0.43748 -0.27700
N 	N 	0.20507 0.45216 0.06569 -0.28400
N 	N 	0.57001 0.57919 0.64241 -0.27300
N 	N 	0.70457 0.68979 0.03273 -0.25300
N 	N 	0.76494 0.81772 0.15304 -0.27600
N 	N 	0.02052 0.70839 0.51478 -0.24300
C 	C 	0.46683 0.89428 0.90027 0.10000
H 	H 	0.49950 0.88920 0.90930 -0.01400
C 	C 	0.43541 0.86383 0.85073 -0.20100
H 	H 	0.44640 0.83830 0.82680 0.08800
C 	C 	0.38755 0.87083 0.83625 0.16900
C 	C 	0.37435 0.90620 0.87447 -0.20700
H 	H 	0.34190 0.91050 0.86690 0.09000
C 	C 	0.40766 0.93506 0.92306 0.10100
H 	H 	0.39750 0.95930 0.94830 -0.03800
C 	C 	0.24151 0.03710 0.58618 0.10100
H 	H 	0.25300 0.07220 0.56820 -0.05700
C 	C 	0.27277 0.98650 0.62101 -0.19400
H 	H 	0.30490 0.98780 0.62680 0.08600
C 	C 	0.25719 0.93391 0.64745 0.15100
C 	C 	0.20997 0.93605 0.63747 -0.19800
H 	H 	0.19750 0.90110 0.65450 0.08400
C 	C 	0.18074 0.98923 0.60254 0.10400
H 	H 	0.14860 0.99020 0.59690 -0.01100
C 	C 	0.35141 0.84326 0.78019 -0.26900
H 	H 	0.36760 0.81530 0.76090 0.09900
H 	H 	0.32920 0.81020 0.78690 0.10100
C 	C 	0.32379 0.90645 0.74211 0.05300
H 	H 	0.30570 0.93260 0.76000 0.00800
H 	H 	0.34590 0.94120 0.73700 0.00700
C 	C 	0.28981 0.87617 0.68438 -0.25000
H 	H 	0.27080 0.83650 0.69030 0.07200
H 	H 	0.30840 0.85530 0.66490 0.07700
C 	C 	0.55978 0.08344 0.08084 0.09000
H 	H 	0.58350 0.06230 0.07150 -0.01900
C 	C 	0.57174 0.14038 0.11893 -0.20000
H 	H 	0.60340 0.15670 0.13600 0.10000
C 	C 	0.53808 0.17350 0.13236 0.16700
C 	C 	0.49290 0.14540 0.10784 -0.20700
H 	H 	0.46870 0.16570 0.11670 0.08200
C 	C 	0.48284 0.08760 0.07022 0.10100
H 	H 	0.45160 0.06930 0.05380 -0.05500
C 	C 	0.66872 0.20080 0.42167 0.09900
H 	H 	0.70170 0.19990 0.44390 -0.05300
C 	C 	0.65196 0.23483 0.36937 -0.20600
H 	H 	0.67340 0.25620 0.35630 0.09000
C 	C 	0.60385 0.23760 0.33618 0.17500
C 	C 	0.57464 0.20530 0.35771 -0.20600
H 	H 	0.54150 0.20580 0.33660 0.09000
C 	C 	0.59379 0.17230 0.41007 0.09900
H 	H 	0.57300 0.15080 0.42400 -0.01100
C 	C 	0.55077 0.23532 0.17386 -0.27200
H 	H 	0.57420 0.26700 0.16840 0.09000
H 	H 	0.52240 0.26490 0.16700 0.08300
C 	C 	0.57106 0.20687 0.23456 0.07000
H 	H 	0.54750 0.17530 0.23990 0.00200
H 	H 	0.59930 0.17700 0.24120 0.00500
C 	C 	0.58455 0.26899 0.27779 -0.28300
H 	H 	0.55650 0.29910 0.27160 0.10200
H 	H 	0.60850 0.30050 0.27320 0.10700
C 	C 	0.62424 0.92440 0.17332 0.09900
H 	H 	0.64780 0.90930 0.16120 -0.01100
C 	C 	0.63847 0.95710 0.22546 -0.20500
H 	H 	0.67100 0.96390 0.24830 0.09000
C 	C 	0.60505 0.98012 0.24450 0.17500
C 	C 	0.55836 0.96840 0.20831 -0.21200
H 	H 	0.53410 0.98360 0.21900 0.09000
C 	C 	0.54681 0.93490 0.15680 0.10600
H 	H 	0.51450 0.92720 0.13320 -0.06100
C 	C 	0.72658 0.83790 0.51085 0.10800
H 	H 	0.75760 0.81870 0.52490 -0.04700
C 	C 	0.71476 0.89300 0.47107 -0.21000
H 	H 	0.73720 0.91010 0.45790 0.08700
C 	C 	0.67035 0.92273 0.45077 0.16800
C 	C 	0.63898 0.89470 0.47180 -0.20300
H 	H 	0.60810 0.91410 0.45950 0.10500
C 	C 	0.65331 0.83910 0.51037 0.10200
H 	H 	0.63130 0.82000 0.52350 -0.01200
C 	C 	0.61985 0.01236 0.30232 -0.28100
H 	H 	0.64530 0.04830 0.30910 0.10200
H 	H 	0.59280 0.03790 0.30490 0.10500
C 	C 	0.63747 0.95208 0.34756 0.06900
H 	H 	0.66350 0.92520 0.34360 0.00200
H 	H 	0.61150 0.91730 0.34130 0.00500
C 	C 	0.65482 0.98280 0.40733 -0.27200
H 	H 	0.62920 0.01100 0.41110 0.09300
H 	H 	0.68150 0.01620 0.41420 0.08300
C 	C 	0.74659 0.65100 0.68919 0.10000
H 	H 	0.71390 0.64660 0.67990 -0.01800
C 	C 	0.77775 0.62020 0.73870 -0.20500
H 	H 	0.76640 0.59510 0.76260 0.08900
C 	C 	0.82577 0.62602 0.75348 0.17500
C 	C 	0.83915 0.66042 0.71528 -0.21200
H 	H 	0.87160 0.66380 0.72290 0.08600
C 	C 	0.80616 0.68996 0.66620 0.09800
H 	H 	0.81650 0.71330 0.64070 -0.04800
C 	C 	0.95945 0.79146 0.00964 0.02300
H 	H 	0.94630 0.82340 0.02810 -0.04600
C 	C 	0.93026 0.73951 0.97382 -0.14600
H 	H 	0.89810 0.73690 0.96790 0.07700
C 	C 	0.94807 0.69128 0.94659 0.18000
C 	C 	0.99536 0.69918 0.95739 -0.30000
H 	H 	0.00940 0.66740 0.94000 0.13800
C 	C 	0.02209 0.75324 0.99348 0.21000
H 	H 	0.05430 0.75770 0.99980 -0.03000
C 	C 	0.86131 0.59821 0.80891 -0.28000
H 	H 	0.84540 0.56640 0.82630 0.10200
H 	H 	0.88520 0.56870 0.80240 0.10000
C 	C 	0.88608 0.66108 0.84972 0.06700
H 	H 	0.86210 0.69340 0.85340 0.00400
H 	H 	0.90470 0.69010 0.83410 0.00100
C 	C 	0.91865 0.63197 0.90790 -0.27300
H 	H 	0.93980 0.59470 0.90340 0.07700
H 	H 	0.89940 0.60830 0.92530 0.09200
C 	C 	0.66720 0.68418 0.43527 0.10100
H 	H 	0.69970 0.67950 0.45920 -0.05700
C 	C 	0.65472 0.71784 0.38326 -0.20500
H 	H 	0.67840 0.73620 0.37260 0.08900
C 	C 	0.60736 0.72455 0.34675 0.17300
C 	C 	0.57500 0.69626 0.36477 -0.20300
H 	H 	0.54230 0.69820 0.34090 0.08900
C 	C 	0.59007 0.66502 0.41773 0.09500
H 	H 	0.56690 0.64750 0.42960 -0.00800
C 	C 	0.55000 0.59807 0.07492 0.09400
H 	H 	0.57080 0.58150 0.05900 -0.01200
C 	C 	0.56481 0.65210 0.11464 -0.20700
H 	H 	0.59560 0.67170 0.12590 0.10000
C 	C 	0.53594 0.67840 0.13853 0.16500
C 	C 	0.49115 0.64793 0.12060 -0.20200
H 	H 	0.46990 0.66400 0.13600 0.08200
C 	C 	0.47794 0.59349 0.07976 0.09400
H 	H 	0.44710 0.57390 0.06710 -0.05300
C 	C 	0.55226 0.73604 0.18343 -0.27200
H 	H 	0.57660 0.76650 0.17880 0.09300
H 	H 	0.52540 0.76780 0.17950 0.09000
C 	C 	0.57278 0.70093 0.24275 0.06800
H 	H 	0.59850 0.66710 0.24580 0.00600
H 	H 	0.54790 0.67240 0.24790 0.00200
C 	C 	0.59187 0.75821 0.28915 -0.28000
H 	H 	0.56710 0.79490 0.28380 0.10300
H 	H 	0.61890 0.78340 0.28640 0.10500
C 	C 	0.46033 0.59799 0.40405 0.08900
H 	H 	0.49340 0.60330 0.41600 -0.01400
C 	C 	0.43091 0.62908 0.35319 -0.19500
H 	H 	0.44370 0.65510 0.33120 0.08600
C 	C 	0.38253 0.62170 0.33474 0.16600
C 	C 	0.36651 0.58513 0.36991 -0.20600
H 	H 	0.33360 0.58030 0.35940 0.08600
C 	C 	0.39774 0.55561 0.41998 0.09500
H 	H 	0.38560 0.53060 0.44310 -0.04600
C 	C 	0.24933 0.46330 0.07297 0.09800
H 	H 	0.26170 0.43410 0.05210 -0.06400
C 	C 	0.27882 0.51560 0.10980 -0.20500
H 	H 	0.31030 0.52110 0.11370 0.08300
C 	C 	0.26169 0.55880 0.14011 0.16200
C 	C 	0.21619 0.54670 0.13312 -0.20900
H 	H 	0.20310 0.57440 0.15390 0.08700
C 	C 	0.18913 0.49340 0.09526 0.11100
H 	H 	0.15750 0.48670 0.09070 -0.02500
C 	C 	0.29104 0.61750 0.17953 -0.25700
H 	H 	0.31060 0.64150 0.16260 0.07900
H 	H 	0.26990 0.65470 0.18400 0.07200
C 	C 	0.32326 0.58770 0.23778 0.05800
H 	H 	0.30420 0.56010 0.25370 0.00600
H 	H 	0.34660 0.55400 0.23400 0.00600
C 	C 	0.34904 0.65018 0.27781 -0.27000
H 	H 	0.32570 0.68270 0.28270 0.10000
H 	H 	0.36690 0.67900 0.26100 0.09800
C 	C 	0.61652 0.57521 0.67384 0.10100
H 	H 	0.63720 0.59460 0.65870 -0.01200
C 	C 	0.63606 0.54456 0.72691 -0.20600
H 	H 	0.66930 0.54360 0.74750 0.09200
C 	C 	0.60694 0.51522 0.74993 0.17400
C 	C 	0.55899 0.51865 0.71724 -0.21100
H 	H 	0.53760 0.49870 0.73100 0.09100
C 	C 	0.54202 0.55072 0.66490 0.10600
H 	H 	0.50890 0.55280 0.64370 -0.05700
C 	C 	0.73670 0.65670 0.01929 0.01300
H 	H 	0.76850 0.67250 0.03700 -0.02700
C 	C 	0.72563 0.60080 0.98086 -0.09700
H 	H 	0.74950 0.57930 0.97200 0.06000
C 	C 	0.68009 0.57591 0.95531 0.09900
C 	C 	0.64665 0.60950 0.96967 -0.08900
H 	H 	0.61480 0.59390 0.95310 0.07100
C 	C 	0.66022 0.66555 0.00816 0.00400
H 	H 	0.63700 0.68810 0.01770 0.00700
C 	C 	0.62642 0.48418 0.80859 -0.27200
H 	H 	0.60170 0.45570 0.81410 0.10400
H 	H 	0.65290 0.45100 0.81360 0.10100
C 	C 	0.64381 0.54549 0.85281 0.04700
H 	H 	0.61700 0.57750 0.84870 0.01300
H 	H 	0.66750 0.57520 0.84620 0.00900
C 	C 	0.66559 0.51467 0.91268 -0.22600
H 	H 	0.69350 0.48480 0.91760 0.08200
H 	H 	0.64240 0.48300 0.91890 0.08300
C 	C 	0.81174 0.81260 0.16883 0.09500
H 	H 	0.82330 0.78890 0.14470 -0.05000
C 	C 	0.84349 0.84110 0.21965 -0.21000
H 	H 	0.87630 0.83630 0.22960 0.08500
C 	C 	0.82850 0.87598 0.25569 0.17300
C 	C 	0.78033 0.88299 0.23846 -0.20300
H 	H 	0.76800 0.90850 0.26120 0.08800
C 	C 	0.75032 0.85250 0.18784 0.09800
H 	H 	0.71740 0.85650 0.17730 -0.01300
C 	C 	0.03409 0.75060 0.48198 0.08300
H 	H 	0.06490 0.74440 0.48370 -0.00800
C 	C 	0.00506 0.80272 0.44563 -0.13800
H 	H 	0.01590 0.83080 0.42270 0.07300
C 	C 	0.96037 0.81355 0.44292 0.09300
C 	C 	0.94625 0.76969 0.47637 -0.15500
H 	H 	0.91560 0.77490 0.47550 0.07000
C 	C 	0.97678 0.71840 0.51096 0.05200
H 	H 	0.96620 0.68860 0.53320 -0.04500
C 	C 	0.86294 0.90298 0.31226 -0.27200
H 	H 	0.88370 0.93990 0.30670 0.10000
H 	H 	0.84540 0.92670 0.33190 0.09800
C 	C 	0.89310 0.84169 0.34911 0.04700
H 	H 	0.87250 0.80530 0.35580 0.01000
H 	H 	0.91030 0.81720 0.32940 0.00600
C 	C 	0.92837 0.87160 0.40559 -0.22100
H 	H 	0.91090 0.89470 0.42560 0.06200
H 	H 	0.94780 0.90960 0.39850 0.05800
Cu	Cu	0.99998 0.48189 0.99999 0.82400
Cu	Cu	0.06289 0.36434 0.06568 0.83400
Cu	Cu	0.21437 0.23734 0.58896 0.82000
Cu	Cu	0.15317 0.11315 0.52745 0.84200
Cu	Cu	0.98788 0.00750 0.50127 0.80500
Cu	Cu	0.04581 0.12667 0.56919 0.83400
Cu	Cu	0.22088 0.26558 0.08870 0.81700
Cu	Cu	0.16356 0.38109 0.01417 0.81200
Cl	Cl	0.07634 0.45187 0.99772 -0.62000
Cl	Cl	0.13662 0.20152 0.58829 -0.65500
Cl	Cl	0.06878 0.04678 0.50643 -0.65300
Cl	Cl	0.14343 0.30006 0.08669 -0.68200
N 	N 	0.95417 0.43060 0.93654 -0.27500
N 	N 	0.69599 0.53902 0.57655 -0.26600
N 	N 	0.01534 0.55677 0.05635 -0.27200
N 	N 	0.14004 0.66909 0.44209 -0.27300
N 	N 	0.07888 0.41284 0.13870 -0.27000
N 	N 	0.19662 0.31045 0.53050 -0.27600
N 	N 	0.25981 0.18666 0.65350 -0.27700
N 	N 	0.50460 0.29971 0.01996 -0.28400
N 	N 	0.13581 0.15814 0.45327 -0.26800
N 	N 	0.00678 0.06740 0.05749 -0.26600
N 	N 	0.94479 0.06076 0.43748 -0.28000
N 	N 	0.70507 0.95216 0.06569 -0.28300
N 	N 	0.07001 0.07919 0.64241 -0.27200
N 	N 	0.20457 0.18979 0.03273 -0.25400
N 	N 	0.26494 0.31772 0.15304 -0.27700
N 	N 	0.52052 0.20839 0.51478 -0.26700
C 	C 	0.96683 0.39428 0.90027 0.09800
H 	H 	0.99950 0.38920 0.90930 -0.02400
C 	C 	0.93541 0.36383 0.85073 -0.20300
H 	H 	0.94640 0.33830 0.82680 0.08300
C 	C 	0.88755 0.37083 0.83625 0.16800
C 	C 	0.87435 0.40620 0.87447 -0.20700
H 	H 	0.84190 0.41050 0.86690 0.09000
C 	C 	0.90766 0.43506 0.92306 0.10000
H 	H 	0.89750 0.45930 0.94830 -0.04000
C 	C 	0.74151 0.53710 0.58618 0.10200
H 	H 	0.75300 0.57220 0.56820 -0.05700
C 	C 	0.77277 0.48650 0.62101 -0.19500
H 	H 	0.80490 0.48780 0.62680 0.08500
C 	C 	0.75719 0.43391 0.64745 0.15100
C 	C 	0.70997 0.43605 0.63747 -0.19800
H 	H 	0.69750 0.40110 0.65450 0.08300
C 	C 	0.68074 0.48923 0.60254 0.10300
H 	H 	0.64860 0.49020 0.59690 -0.01100
C 	C 	0.85141 0.34326 0.78019 -0.26900
H 	H 	0.86760 0.31530 0.76090 0.09700
H 	H 	0.82920 0.31020 0.78690 0.10100
C 	C 	0.82379 0.40645 0.74211 0.05300
H 	H 	0.80570 0.43260 0.76000 0.00700
H 	H 	0.84590 0.44120 0.73700 0.00500
C 	C 	0.78981 0.37617 0.68438 -0.25000
H 	H 	0.77080 0.33650 0.69030 0.07200
H 	H 	0.80840 0.35530 0.66490 0.07600
C 	C 	0.05978 0.58344 0.08084 0.10300
H 	H 	0.08350 0.56230 0.07150 -0.02300
C 	C 	0.07174 0.64038 0.11893 -0.21900
H 	H 	0.10340 0.65670 0.13600 0.10700
C 	C 	0.03808 0.67350 0.13236 0.20800
C 	C 	0.99290 0.64540 0.10784 -0.24700
H 	H 	0.96870 0.66570 0.11670 0.08800
C 	C 	0.98284 0.58760 0.07022 0.08900
H 	H 	0.95160 0.56930 0.05380 -0.05600
C 	C 	0.16872 0.70080 0.42167 0.10100
H 	H 	0.20170 0.69990 0.44390 -0.05400
C 	C 	0.15196 0.73483 0.36937 -0.20900
H 	H 	0.17340 0.75620 0.35630 0.09100
C 	C 	0.10385 0.73760 0.33618 0.18000
C 	C 	0.07464 0.70530 0.35771 -0.20900
H 	H 	0.04150 0.70580 0.33660 0.09700
C 	C 	0.09379 0.67230 0.41007 0.10100
H 	H 	0.07300 0.65080 0.42400 -0.00800
C 	C 	0.05077 0.73532 0.17386 -0.29700
H 	H 	0.07420 0.76700 0.16840 0.09700
H 	H 	0.02240 0.76490 0.16700 0.09600
C 	C 	0.07106 0.70687 0.23456 0.08500
H 	H 	0.04750 0.67530 0.23990 0.00100
H 	H 	0.09930 0.67700 0.24120 0.00100
C 	C 	0.08455 0.76899 0.27779 -0.29200
H 	H 	0.05650 0.79910 0.27160 0.10700
H 	H 	0.10850 0.80050 0.27320 0.10900
C 	C 	0.12424 0.42440 0.17332 0.09900
H 	H 	0.14780 0.40930 0.16120 -0.01100
C 	C 	0.13847 0.45710 0.22546 -0.20500
H 	H 	0.17100 0.46390 0.24830 0.09000
C 	C 	0.10505 0.48012 0.24450 0.17700
C 	C 	0.05836 0.46840 0.20831 -0.21200
H 	H 	0.03410 0.48360 0.21900 0.09500
C 	C 	0.04681 0.43490 0.15680 0.10700
H 	H 	0.01450 0.42720 0.13320 -0.05500
C 	C 	0.22658 0.33790 0.51085 0.10900
H 	H 	0.25760 0.31870 0.52490 -0.04700
C 	C 	0.21476 0.39300 0.47107 -0.21000
H 	H 	0.23720 0.41010 0.45790 0.08700
C 	C 	0.17035 0.42273 0.45077 0.16900
C 	C 	0.13898 0.39470 0.47180 -0.20300
H 	H 	0.10810 0.41410 0.45950 0.10700
C 	C 	0.15331 0.33910 0.51037 0.10300
H 	H 	0.13130 0.32000 0.52350 -0.01100
C 	C 	0.11985 0.51236 0.30232 -0.28200
H 	H 	0.14530 0.54830 0.30910 0.10300
H 	H 	0.09280 0.53790 0.30490 0.10700
C 	C 	0.13747 0.45208 0.34756 0.07000
H 	H 	0.16350 0.42520 0.34360 0.00100
H 	H 	0.11150 0.41730 0.34130 0.00500
C 	C 	0.15482 0.48280 0.40733 -0.27400
H 	H 	0.12920 0.51100 0.41110 0.09500
H 	H 	0.18150 0.51620 0.41420 0.08400
C 	C 	0.24659 0.15100 0.68919 0.09900
H 	H 	0.21390 0.14660 0.67990 -0.01800
C 	C 	0.27775 0.12020 0.73870 -0.20300
H 	H 	0.26640 0.09510 0.76260 0.08900
C 	C 	0.32577 0.12602 0.75348 0.17300
C 	C 	0.33915 0.16042 0.71528 -0.21100
H 	H 	0.37160 0.16380 0.72290 0.08800
C 	C 	0.30616 0.18996 0.66620 0.09800
H 	H 	0.31650 0.21330 0.64070 -0.04700
C 	C 	0.45945 0.29146 0.00964 0.03600
H 	H 	0.44630 0.32340 0.02810 -0.04400
C 	C 	0.43026 0.23951 0.97382 -0.12800
H 	H 	0.39810 0.23690 0.96790 0.07200
C 	C 	0.44807 0.19128 0.94659 0.13800
C 	C 	0.49536 0.19918 0.95739 -0.18900
H 	H 	0.50940 0.16740 0.94000 0.08400
C 	C 	0.52209 0.25324 0.99348 0.13300
H 	H 	0.55430 0.25770 0.99980 -0.00700
C 	C 	0.36131 0.09821 0.80891 -0.27300
H 	H 	0.34540 0.06640 0.82630 0.10000
H 	H 	0.38520 0.06870 0.80240 0.10000
C 	C 	0.38608 0.16108 0.84972 0.05200
H 	H 	0.36210 0.19340 0.85340 0.00900
H 	H 	0.40470 0.19010 0.83410 0.00800
C 	C 	0.41865 0.13197 0.90790 -0.24400
H 	H 	0.43980 0.09470 0.90340 0.07300
H 	H 	0.39940 0.10830 0.92530 0.08400
C 	C 	0.16720 0.18418 0.43527 0.10200
H 	H 	0.19970 0.17950 0.45920 -0.05700
C 	C 	0.15472 0.21784 0.38326 -0.20800
H 	H 	0.17840 0.23620 0.37260 0.09000
C 	C 	0.10736 0.22455 0.34675 0.17700
C 	C 	0.07500 0.19626 0.36477 -0.20600
H 	H 	0.04230 0.19820 0.34090 0.09600
C 	C 	0.09007 0.16502 0.41773 0.09700
H 	H 	0.06690 0.14750 0.42960 -0.00400
C 	C 	0.05000 0.09807 0.07492 0.10800
H 	H 	0.07080 0.08150 0.05900 -0.01500
C 	C 	0.06481 0.15210 0.11464 -0.22500
H 	H 	0.09560 0.17170 0.12590 0.10600
C 	C 	0.03594 0.17840 0.13853 0.20600
C 	C 	0.99115 0.14793 0.12060 -0.24100
H 	H 	0.96990 0.16400 0.13600 0.08700
C 	C 	0.97794 0.09349 0.07976 0.08200
H 	H 	0.94710 0.07390 0.06710 -0.05300
C 	C 	0.05226 0.23604 0.18343 -0.29500
H 	H 	0.07660 0.26650 0.17880 0.10000
H 	H 	0.02540 0.26780 0.17950 0.10200
C 	C 	0.07278 0.20093 0.24275 0.08100
H 	H 	0.09850 0.16710 0.24580 0.00200
H 	H 	0.04790 0.17240 0.24790 0.00200
C 	C 	0.09187 0.25821 0.28915 -0.28800
H 	H 	0.06710 0.29490 0.28380 0.10700
H 	H 	0.11890 0.28340 0.28640 0.10700
C 	C 	0.96033 0.09799 0.40405 0.08800
H 	H 	0.99340 0.10330 0.41600 -0.02400
C 	C 	0.93091 0.12908 0.35319 -0.19700
H 	H 	0.94370 0.15510 0.33120 0.08100
C 	C 	0.88253 0.12170 0.33474 0.16500
C 	C 	0.86651 0.08513 0.36991 -0.20600
H 	H 	0.83360 0.08030 0.35940 0.08600
C 	C 	0.89774 0.05561 0.41998 0.09500
H 	H 	0.88560 0.03060 0.44310 -0.04700
C 	C 	0.74933 0.96330 0.07297 0.09700
H 	H 	0.76170 0.93410 0.05210 -0.06400
C 	C 	0.77882 0.01560 0.10980 -0.20300
H 	H 	0.81030 0.02110 0.11370 0.08100
C 	C 	0.76169 0.05880 0.14011 0.16000
C 	C 	0.71619 0.04670 0.13312 -0.20800
H 	H 	0.70310 0.07440 0.15390 0.08700
C 	C 	0.68913 0.99340 0.09526 0.11000
H 	H 	0.65750 0.98670 0.09070 -0.02500
C 	C 	0.79104 0.11750 0.17953 -0.25600
H 	H 	0.81060 0.14150 0.16260 0.07800
H 	H 	0.76990 0.15470 0.18400 0.07100
C 	C 	0.82326 0.08770 0.23778 0.05700
H 	H 	0.80420 0.06010 0.25370 0.00600
H 	H 	0.84660 0.05400 0.23400 0.00500
C 	C 	0.84904 0.15018 0.27781 -0.26900
H 	H 	0.82570 0.18270 0.28270 0.10000
H 	H 	0.86690 0.17900 0.26100 0.09600
C 	C 	0.11652 0.07521 0.67384 0.10100
H 	H 	0.13720 0.09460 0.65870 -0.01200
C 	C 	0.13606 0.04456 0.72691 -0.20600
H 	H 	0.16930 0.04360 0.74750 0.09100
C 	C 	0.10694 0.01522 0.74993 0.17500
C 	C 	0.05899 0.01865 0.71724 -0.21200
H 	H 	0.03760 0.99870 0.73100 0.09700
C 	C 	0.04202 0.05072 0.66490 0.10700
H 	H 	0.00890 0.05280 0.64370 -0.05000
C 	C 	0.23670 0.15670 0.01929 0.01700
H 	H 	0.26850 0.17250 0.03700 -0.02800
C 	C 	0.22563 0.10080 0.98086 -0.10300
H 	H 	0.24950 0.07930 0.97200 0.06100
C 	C 	0.18009 0.07591 0.95531 0.10500
C 	C 	0.14665 0.10950 0.96967 -0.09500
H 	H 	0.11480 0.09390 0.95310 0.07400
C 	C 	0.16022 0.16555 0.00816 0.00900
H 	H 	0.13700 0.18810 0.01770 0.00500
C 	C 	0.12642 0.98418 0.80859 -0.27200
H 	H 	0.10170 0.95570 0.81410 0.10600
H 	H 	0.15290 0.95100 0.81360 0.10100
C 	C 	0.14381 0.04549 0.85281 0.04900
H 	H 	0.11700 0.07750 0.84870 0.01300
H 	H 	0.16750 0.07520 0.84620 0.00800
C 	C 	0.16559 0.01467 0.91268 -0.23500
H 	H 	0.19350 0.98480 0.91760 0.08500
H 	H 	0.14240 0.98300 0.91890 0.08700
C 	C 	0.31174 0.31260 0.16883 0.09800
H 	H 	0.32330 0.28890 0.14470 -0.05000
C 	C 	0.34349 0.34110 0.21965 -0.21500
H 	H 	0.37630 0.33630 0.22960 0.08900
C 	C 	0.32850 0.37598 0.25569 0.17900
C 	C 	0.28033 0.38299 0.23846 -0.20700
H 	H 	0.26800 0.40850 0.26120 0.08900
C 	C 	0.25032 0.35250 0.18784 0.10000
H 	H 	0.21740 0.35650 0.17730 -0.01400
C 	C 	0.53409 0.25060 0.48198 0.10600
H 	H 	0.56490 0.24440 0.48370 -0.01700
C 	C 	0.50506 0.30272 0.44563 -0.20200
H 	H 	0.51590 0.33080 0.42270 0.08700
C 	C 	0.46037 0.31355 0.44292 0.15400
C 	C 	0.44625 0.26969 0.47637 -0.19700
H 	H 	0.41560 0.27490 0.47550 0.08400
C 	C 	0.47678 0.21840 0.51096 0.10100
H 	H 	0.46620 0.18860 0.53320 -0.05400
C 	C 	0.36294 0.40298 0.31226 -0.28400
H 	H 	0.38370 0.43990 0.30670 0.10500
H 	H 	0.34540 0.42670 0.33190 0.10200
C 	C 	0.39310 0.34169 0.34911 0.06800
H 	H 	0.37250 0.30530 0.35580 0.00300
H 	H 	0.41030 0.31720 0.32940 0.00200
C 	C 	0.42837 0.37160 0.40559 -0.25800
H 	H 	0.41090 0.39470 0.42560 0.07300
H 	H 	0.44780 0.40960 0.39850 0.07300
