data_crystal

_cell_length_a 15.40000
_cell_length_b 6.72870
_cell_length_c 14.25200
_cell_angle_alpha 90.00000
_cell_angle_beta  90.00000
_cell_angle_gamma 90.00000

_symmetry_space_group_name_	'P 1'
_symmetry_space_group_name_H-M	'P 1'

loop_
_symmetry_equiv_pos_as_xyz
  x,y,z

loop_
_atom_site_label
_atom_site_type_symbol
_atom_site_fract_x
_atom_site_fract_y
_atom_site_fract_z
_atom_site_charge
O 	O 	0.71000 0.40830 0.25100 -0.47500
O 	O 	0.64810 0.41370 0.86110 -0.51000
O 	O 	0.79000 0.59170 0.75100 -0.47500
O 	O 	0.85190 0.58630 0.36110 -0.51000
O 	O 	0.29000 0.90830 0.74900 -0.47500
O 	O 	0.35190 0.91370 0.13890 -0.50900
O 	O 	0.21000 0.09170 0.24900 -0.47400
O 	O 	0.14810 0.08630 0.63890 -0.50800
O 	O 	0.29000 0.59170 0.74900 -0.47400
O 	O 	0.35190 0.58630 0.13890 -0.50900
O 	O 	0.21000 0.40830 0.24900 -0.47400
O 	O 	0.14810 0.41370 0.63890 -0.50900
O 	O 	0.71000 0.09170 0.25100 -0.47500
O 	O 	0.64810 0.08630 0.86110 -0.50900
O 	O 	0.79000 0.90830 0.75100 -0.47400
O 	O 	0.85190 0.91370 0.36110 -0.50800
Eu	Eu	0.80335 0.25000 0.37641 1.74800
K 	K 	0.73280 0.25000 0.69050 0.64600
O 	O 	0.34920 0.25000 0.96350 -0.50100
O 	O 	0.45080 0.25000 0.85010 -0.28700
O 	O 	0.39520 0.25000 0.26150 -0.42300
O 	O 	0.52400 0.25000 0.33310 -0.30500
N 	N 	0.46660 0.25000 0.09480 -0.17600
N 	N 	0.64210 0.25000 0.06350 -0.11400
C 	C 	0.49670 0.25000 0.00740 -0.00900
C 	C 	0.52010 0.25000 0.16740 -0.00600
C 	C 	0.60960 0.25000 0.15080 -0.03200
C 	C 	0.58670 0.25000 0.99240 -0.06600
C 	C 	0.42770 0.25000 0.93170 0.34300
C 	C 	0.47730 0.25000 0.26230 0.33500
C 	C 	0.67670 0.25000 0.22720 0.36900
C 	C 	0.62840 0.25000 0.89590 0.44500
Eu	Eu	0.69665 0.75000 0.87641 1.74800
K 	K 	0.76720 0.75000 0.19050 0.64700
O 	O 	0.15080 0.75000 0.46350 -0.50200
O 	O 	0.04920 0.75000 0.35010 -0.28700
O 	O 	0.10480 0.75000 0.76150 -0.42300
O 	O 	0.97600 0.75000 0.83310 -0.30400
N 	N 	0.03340 0.75000 0.59480 -0.17700
N 	N 	0.85790 0.75000 0.56350 -0.11300
C 	C 	0.00330 0.75000 0.50740 -0.00800
C 	C 	0.97990 0.75000 0.66740 -0.00500
C 	C 	0.89040 0.75000 0.65080 -0.03200
C 	C 	0.91330 0.75000 0.49240 -0.06700
C 	C 	0.07230 0.75000 0.43170 0.34200
C 	C 	0.02270 0.75000 0.76230 0.33300
C 	C 	0.82330 0.75000 0.72720 0.37000
C 	C 	0.87160 0.75000 0.39590 0.44500
Eu	Eu	0.19665 0.75000 0.62359 1.74800
K 	K 	0.26720 0.75000 0.30950 0.64600
O 	O 	0.65080 0.75000 0.03650 -0.50100
O 	O 	0.54920 0.75000 0.14990 -0.28700
O 	O 	0.60480 0.75000 0.73850 -0.42300
O 	O 	0.47600 0.75000 0.66690 -0.30500
N 	N 	0.53340 0.75000 0.90520 -0.17600
N 	N 	0.35790 0.75000 0.93650 -0.11400
C 	C 	0.50330 0.75000 0.99260 -0.00900
C 	C 	0.47990 0.75000 0.83260 -0.00600
C 	C 	0.39040 0.75000 0.84920 -0.03200
C 	C 	0.41330 0.75000 0.00760 -0.06600
C 	C 	0.57230 0.75000 0.06830 0.34300
C 	C 	0.52270 0.75000 0.73770 0.33500
C 	C 	0.32330 0.75000 0.77280 0.36900
C 	C 	0.37160 0.75000 0.10410 0.44500
Eu	Eu	0.30335 0.25000 0.12359 1.74800
K 	K 	0.23280 0.25000 0.80950 0.64700
O 	O 	0.84920 0.25000 0.53650 -0.50200
O 	O 	0.95080 0.25000 0.64990 -0.28700
O 	O 	0.89520 0.25000 0.23850 -0.42300
O 	O 	0.02400 0.25000 0.16690 -0.30400
N 	N 	0.96660 0.25000 0.40520 -0.17700
N 	N 	0.14210 0.25000 0.43650 -0.11300
C 	C 	0.99670 0.25000 0.49260 -0.00800
C 	C 	0.02010 0.25000 0.33260 -0.00500
C 	C 	0.10960 0.25000 0.34920 -0.03200
C 	C 	0.08670 0.25000 0.50760 -0.06700
C 	C 	0.92770 0.25000 0.56830 0.34200
C 	C 	0.97730 0.25000 0.23770 0.33300
C 	C 	0.17670 0.25000 0.27280 0.37000
C 	C 	0.12840 0.25000 0.60410 0.44500
