data_crystal

_cell_length_a 24.25380
_cell_length_b 24.25380
_cell_length_c 13.68090
_cell_angle_alpha 90.00000
_cell_angle_beta  90.00000
_cell_angle_gamma 90.00000

_symmetry_space_group_name_	'P 1'
_symmetry_space_group_name_H-M	'P 1'

loop_
_symmetry_equiv_pos_as_xyz
  x,y,z

loop_
_atom_site_label
_atom_site_type_symbol
_atom_site_fract_x
_atom_site_fract_y
_atom_site_fract_z
_atom_site_charge
S 	S 	0.16197 0.02224 0.49709 -0.09900
C 	C 	0.11400 0.06810 0.55080 -0.00100
C 	C 	0.06780 0.08910 0.50220 -0.01100
C 	C 	0.03510 0.12710 0.55300 -0.00300
C 	C 	0.05100 0.14640 0.64510 0.00700
H 	H 	0.02810 0.17220 0.67810 0.00100
C 	C 	0.09910 0.12920 0.68930 -0.17900
C 	C 	0.12970 0.08810 0.64330 0.00200
H 	H 	0.16150 0.07350 0.67450 0.01200
S 	S 	0.05290 0.06894 0.38121 0.01200
C 	C 	0.06820 0.13390 0.32110 -0.13900
H 	H 	0.05070 0.13400 0.25570 0.06000
H 	H 	0.05170 0.16430 0.35950 0.06000
C 	C 	0.12950 0.14500 0.30920 -0.01500
H 	H 	0.13510 0.18450 0.29390 0.00800
H 	H 	0.14840 0.13700 0.37170 0.01000
N 	N 	0.15430 0.11130 0.23120 -0.10100
N 	N 	0.20180 0.08290 0.24310 -0.16300
C 	C 	0.21290 0.06120 0.15660 0.04500
H 	H 	0.24400 0.03870 0.14300 -0.01100
C 	C 	0.17300 0.07580 0.08820 -0.13800
H 	H 	0.17110 0.06550 0.02120 0.04600
C 	C 	0.13720 0.10830 0.13930 0.05100
H 	H 	0.10540 0.12590 0.11330 -0.01100
C 	C 	0.11570 0.15290 0.78890 0.55500
C 	C 	0.10640 0.21510 0.78970 -0.83600
H 	H 	0.12880 0.23220 0.73840 0.25000
H 	H 	0.11710 0.23000 0.85350 0.25000
H 	H 	0.06740 0.22290 0.77760 0.25700
C 	C 	0.07830 0.12650 0.86820 -0.82700
H 	H 	0.03960 0.13120 0.84980 0.26200
H 	H 	0.08510 0.14450 0.93120 0.25000
H 	H 	0.08680 0.08710 0.87350 0.25200
C 	C 	0.17640 0.14210 0.81200 -0.82800
H 	H 	0.18190 0.10260 0.82360 0.24800
H 	H 	0.18690 0.16280 0.87060 0.24300
H 	H 	0.19920 0.15400 0.75670 0.24600
S 	S 	0.66197 0.52224 0.99709 -0.10000
C 	C 	0.61400 0.56810 0.05080 -0.00200
C 	C 	0.56780 0.58910 0.00220 -0.01200
C 	C 	0.53510 0.62710 0.05300 -0.00400
C 	C 	0.55100 0.64640 0.14510 0.00600
H 	H 	0.52810 0.67220 0.17810 0.00000
C 	C 	0.59910 0.62920 0.18930 -0.18000
C 	C 	0.62970 0.58810 0.14330 0.00100
H 	H 	0.66150 0.57350 0.17450 0.01100
S 	S 	0.55290 0.56894 0.88121 0.01100
C 	C 	0.56820 0.63390 0.82110 -0.14000
H 	H 	0.55070 0.63400 0.75570 0.05900
H 	H 	0.55170 0.66430 0.85950 0.05900
C 	C 	0.62950 0.64500 0.80920 -0.01600
H 	H 	0.63510 0.68450 0.79390 0.00700
H 	H 	0.64840 0.63700 0.87170 0.00900
N 	N 	0.65430 0.61130 0.73120 -0.10200
N 	N 	0.70180 0.58290 0.74310 -0.16400
C 	C 	0.71290 0.56120 0.65660 0.04400
H 	H 	0.74400 0.53870 0.64300 -0.01200
C 	C 	0.67300 0.57580 0.58820 -0.13900
H 	H 	0.67110 0.56550 0.52120 0.04500
C 	C 	0.63720 0.60830 0.63930 0.05000
H 	H 	0.60540 0.62590 0.61330 -0.01200
C 	C 	0.61570 0.65290 0.28890 0.55500
C 	C 	0.60640 0.71510 0.28970 -0.83600
H 	H 	0.62880 0.73220 0.23840 0.25000
H 	H 	0.61710 0.73000 0.35350 0.25000
H 	H 	0.56740 0.72290 0.27760 0.25700
C 	C 	0.57830 0.62650 0.36820 -0.82700
H 	H 	0.53960 0.63120 0.34980 0.26200
H 	H 	0.58510 0.64450 0.43120 0.25000
H 	H 	0.58680 0.58710 0.37350 0.25200
C 	C 	0.67640 0.64210 0.31200 -0.82800
H 	H 	0.68190 0.60260 0.32360 0.24800
H 	H 	0.68690 0.66280 0.37060 0.24300
H 	H 	0.69920 0.65400 0.25670 0.24600
S 	S 	0.83803 0.97776 0.49709 -0.10000
C 	C 	0.88600 0.93190 0.55080 -0.00200
C 	C 	0.93220 0.91090 0.50220 -0.01200
C 	C 	0.96490 0.87290 0.55300 -0.00400
C 	C 	0.94900 0.85360 0.64510 0.00600
H 	H 	0.97190 0.82780 0.67810 0.00000
C 	C 	0.90090 0.87080 0.68930 -0.18000
C 	C 	0.87030 0.91190 0.64330 0.00100
H 	H 	0.83850 0.92650 0.67450 0.01100
S 	S 	0.94710 0.93106 0.38121 0.01100
C 	C 	0.93180 0.86610 0.32110 -0.14000
H 	H 	0.94930 0.86600 0.25570 0.05900
H 	H 	0.94830 0.83570 0.35950 0.05900
C 	C 	0.87050 0.85500 0.30920 -0.01600
H 	H 	0.86490 0.81550 0.29390 0.00700
H 	H 	0.85160 0.86300 0.37170 0.00900
N 	N 	0.84570 0.88870 0.23120 -0.10200
N 	N 	0.79820 0.91710 0.24310 -0.16400
C 	C 	0.78710 0.93880 0.15660 0.04400
H 	H 	0.75600 0.96130 0.14300 -0.01200
C 	C 	0.82700 0.92420 0.08820 -0.13900
H 	H 	0.82890 0.93450 0.02120 0.04500
C 	C 	0.86280 0.89170 0.13930 0.05000
H 	H 	0.89460 0.87410 0.11330 -0.01200
C 	C 	0.88430 0.84710 0.78890 0.55500
C 	C 	0.89360 0.78490 0.78970 -0.83600
H 	H 	0.87120 0.76780 0.73840 0.25000
H 	H 	0.88290 0.77000 0.85350 0.25000
H 	H 	0.93260 0.77710 0.77760 0.25700
C 	C 	0.92170 0.87350 0.86820 -0.82700
H 	H 	0.96040 0.86880 0.84980 0.26200
H 	H 	0.91490 0.85550 0.93120 0.25000
H 	H 	0.91320 0.91290 0.87350 0.25200
C 	C 	0.82360 0.85790 0.81200 -0.82800
H 	H 	0.81810 0.89740 0.82360 0.24800
H 	H 	0.81310 0.83720 0.87060 0.24300
H 	H 	0.80080 0.84600 0.75670 0.24600
S 	S 	0.33803 0.47776 0.99709 -0.10000
C 	C 	0.38600 0.43190 0.05080 -0.00200
C 	C 	0.43220 0.41090 0.00220 -0.01200
C 	C 	0.46490 0.37290 0.05300 -0.00400
C 	C 	0.44900 0.35360 0.14510 0.00600
H 	H 	0.47190 0.32780 0.17810 0.00000
C 	C 	0.40090 0.37080 0.18930 -0.18000
C 	C 	0.37030 0.41190 0.14330 0.00100
H 	H 	0.33850 0.42650 0.17450 0.01100
S 	S 	0.44710 0.43106 0.88121 0.01100
C 	C 	0.43180 0.36610 0.82110 -0.14000
H 	H 	0.44930 0.36600 0.75570 0.05900
H 	H 	0.44830 0.33570 0.85950 0.05900
C 	C 	0.37050 0.35500 0.80920 -0.01600
H 	H 	0.36490 0.31550 0.79390 0.00700
H 	H 	0.35160 0.36300 0.87170 0.00900
N 	N 	0.34570 0.38870 0.73120 -0.10200
N 	N 	0.29820 0.41710 0.74310 -0.16400
C 	C 	0.28710 0.43880 0.65660 0.04400
H 	H 	0.25600 0.46130 0.64300 -0.01200
C 	C 	0.32700 0.42420 0.58820 -0.13900
H 	H 	0.32890 0.43450 0.52120 0.04500
C 	C 	0.36280 0.39170 0.63930 0.05000
H 	H 	0.39460 0.37410 0.61330 -0.01200
C 	C 	0.38430 0.34710 0.28890 0.55500
C 	C 	0.39360 0.28490 0.28970 -0.83600
H 	H 	0.37120 0.26780 0.23840 0.25000
H 	H 	0.38290 0.27000 0.35350 0.25000
H 	H 	0.43260 0.27710 0.27760 0.25700
C 	C 	0.42170 0.37350 0.36820 -0.82700
H 	H 	0.46040 0.36880 0.34980 0.26200
H 	H 	0.41490 0.35550 0.43120 0.25000
H 	H 	0.41320 0.41290 0.37350 0.25200
C 	C 	0.32360 0.35790 0.31200 -0.82800
H 	H 	0.31810 0.39740 0.32360 0.24800
H 	H 	0.31310 0.33720 0.37060 0.24300
H 	H 	0.30080 0.34600 0.25670 0.24600
S 	S 	0.02224 0.83803 0.50291 -0.10000
C 	C 	0.06810 0.88600 0.44920 -0.00200
C 	C 	0.08910 0.93220 0.49780 -0.01200
C 	C 	0.12710 0.96490 0.44700 -0.00400
C 	C 	0.14640 0.94900 0.35490 0.00600
H 	H 	0.17220 0.97190 0.32190 0.00000
C 	C 	0.12920 0.90090 0.31070 -0.18000
C 	C 	0.08810 0.87030 0.35670 0.00100
H 	H 	0.07350 0.83850 0.32550 0.01100
S 	S 	0.06894 0.94710 0.61879 0.01100
C 	C 	0.13390 0.93180 0.67890 -0.14000
H 	H 	0.13400 0.94930 0.74430 0.05900
H 	H 	0.16430 0.94830 0.64050 0.05900
C 	C 	0.14500 0.87050 0.69080 -0.01600
H 	H 	0.18450 0.86490 0.70610 0.00700
H 	H 	0.13700 0.85160 0.62830 0.00900
N 	N 	0.11130 0.84570 0.76880 -0.10200
N 	N 	0.08290 0.79820 0.75690 -0.16400
C 	C 	0.06120 0.78710 0.84340 0.04400
H 	H 	0.03870 0.75600 0.85700 -0.01200
C 	C 	0.07580 0.82700 0.91180 -0.13900
H 	H 	0.06550 0.82890 0.97880 0.04500
C 	C 	0.10830 0.86280 0.86070 0.05000
H 	H 	0.12590 0.89460 0.88670 -0.01200
C 	C 	0.15290 0.88430 0.21110 0.55500
C 	C 	0.21510 0.89360 0.21030 -0.83600
H 	H 	0.23220 0.87120 0.26160 0.25000
H 	H 	0.23000 0.88290 0.14650 0.25000
H 	H 	0.22290 0.93260 0.22240 0.25700
C 	C 	0.12650 0.92170 0.13180 -0.82700
H 	H 	0.13120 0.96040 0.15020 0.26200
H 	H 	0.14450 0.91490 0.06880 0.25000
H 	H 	0.08710 0.91320 0.12650 0.25200
C 	C 	0.14210 0.82360 0.18800 -0.82800
H 	H 	0.10260 0.81810 0.17640 0.24800
H 	H 	0.16280 0.81310 0.12940 0.24300
H 	H 	0.15400 0.80080 0.24330 0.24600
S 	S 	0.52224 0.33803 0.00291 -0.10000
C 	C 	0.56810 0.38600 0.94920 -0.00200
C 	C 	0.58910 0.43220 0.99780 -0.01200
C 	C 	0.62710 0.46490 0.94700 -0.00400
C 	C 	0.64640 0.44900 0.85490 0.00600
H 	H 	0.67220 0.47190 0.82190 0.00000
C 	C 	0.62920 0.40090 0.81070 -0.18000
C 	C 	0.58810 0.37030 0.85670 0.00100
H 	H 	0.57350 0.33850 0.82550 0.01100
S 	S 	0.56894 0.44710 0.11879 0.01100
C 	C 	0.63390 0.43180 0.17890 -0.14000
H 	H 	0.63400 0.44930 0.24430 0.05900
H 	H 	0.66430 0.44830 0.14050 0.05900
C 	C 	0.64500 0.37050 0.19080 -0.01600
H 	H 	0.68450 0.36490 0.20610 0.00700
H 	H 	0.63700 0.35160 0.12830 0.00900
N 	N 	0.61130 0.34570 0.26880 -0.10200
N 	N 	0.58290 0.29820 0.25690 -0.16400
C 	C 	0.56120 0.28710 0.34340 0.04400
H 	H 	0.53870 0.25600 0.35700 -0.01200
C 	C 	0.57580 0.32700 0.41180 -0.13900
H 	H 	0.56550 0.32890 0.47880 0.04500
C 	C 	0.60830 0.36280 0.36070 0.05000
H 	H 	0.62590 0.39460 0.38670 -0.01200
C 	C 	0.65290 0.38430 0.71110 0.55500
C 	C 	0.71510 0.39360 0.71030 -0.83600
H 	H 	0.73220 0.37120 0.76160 0.25000
H 	H 	0.73000 0.38290 0.64650 0.25000
H 	H 	0.72290 0.43260 0.72240 0.25700
C 	C 	0.62650 0.42170 0.63180 -0.82700
H 	H 	0.63120 0.46040 0.65020 0.26200
H 	H 	0.64450 0.41490 0.56880 0.25000
H 	H 	0.58710 0.41320 0.62650 0.25200
C 	C 	0.64210 0.32360 0.68800 -0.82800
H 	H 	0.60260 0.31810 0.67640 0.24800
H 	H 	0.66280 0.31310 0.62940 0.24300
H 	H 	0.65400 0.30080 0.74330 0.24600
S 	S 	0.97776 0.16197 0.50291 -0.10000
C 	C 	0.93190 0.11400 0.44920 -0.00200
C 	C 	0.91090 0.06780 0.49780 -0.01200
C 	C 	0.87290 0.03510 0.44700 -0.00400
C 	C 	0.85360 0.05100 0.35490 0.00600
H 	H 	0.82780 0.02810 0.32190 0.00000
C 	C 	0.87080 0.09910 0.31070 -0.18000
C 	C 	0.91190 0.12970 0.35670 0.00100
H 	H 	0.92650 0.16150 0.32550 0.01100
S 	S 	0.93106 0.05290 0.61879 0.01100
C 	C 	0.86610 0.06820 0.67890 -0.14000
H 	H 	0.86600 0.05070 0.74430 0.05900
H 	H 	0.83570 0.05170 0.64050 0.05900
C 	C 	0.85500 0.12950 0.69080 -0.01600
H 	H 	0.81550 0.13510 0.70610 0.00700
H 	H 	0.86300 0.14840 0.62830 0.00900
N 	N 	0.88870 0.15430 0.76880 -0.10200
N 	N 	0.91710 0.20180 0.75690 -0.16400
C 	C 	0.93880 0.21290 0.84340 0.04400
H 	H 	0.96130 0.24400 0.85700 -0.01200
C 	C 	0.92420 0.17300 0.91180 -0.13900
H 	H 	0.93450 0.17110 0.97880 0.04500
C 	C 	0.89170 0.13720 0.86070 0.05000
H 	H 	0.87410 0.10540 0.88670 -0.01200
C 	C 	0.84710 0.11570 0.21110 0.55500
C 	C 	0.78490 0.10640 0.21030 -0.83600
H 	H 	0.76780 0.12880 0.26160 0.25000
H 	H 	0.77000 0.11710 0.14650 0.25000
H 	H 	0.77710 0.06740 0.22240 0.25700
C 	C 	0.87350 0.07830 0.13180 -0.82700
H 	H 	0.86880 0.03960 0.15020 0.26200
H 	H 	0.85550 0.08510 0.06880 0.25000
H 	H 	0.91290 0.08680 0.12650 0.25200
C 	C 	0.85790 0.17640 0.18800 -0.82800
H 	H 	0.89740 0.18190 0.17640 0.24800
H 	H 	0.83720 0.18690 0.12940 0.24300
H 	H 	0.84600 0.19920 0.24330 0.24600
S 	S 	0.47776 0.66197 0.00291 -0.10000
C 	C 	0.43190 0.61400 0.94920 -0.00200
C 	C 	0.41090 0.56780 0.99780 -0.01200
C 	C 	0.37290 0.53510 0.94700 -0.00400
C 	C 	0.35360 0.55100 0.85490 0.00600
H 	H 	0.32780 0.52810 0.82190 0.00000
C 	C 	0.37080 0.59910 0.81070 -0.18000
C 	C 	0.41190 0.62970 0.85670 0.00100
H 	H 	0.42650 0.66150 0.82550 0.01100
S 	S 	0.43106 0.55290 0.11879 0.01100
C 	C 	0.36610 0.56820 0.17890 -0.14000
H 	H 	0.36600 0.55070 0.24430 0.05900
H 	H 	0.33570 0.55170 0.14050 0.05900
C 	C 	0.35500 0.62950 0.19080 -0.01600
H 	H 	0.31550 0.63510 0.20610 0.00700
H 	H 	0.36300 0.64840 0.12830 0.00900
N 	N 	0.38870 0.65430 0.26880 -0.10200
N 	N 	0.41710 0.70180 0.25690 -0.16400
C 	C 	0.43880 0.71290 0.34340 0.04400
H 	H 	0.46130 0.74400 0.35700 -0.01200
C 	C 	0.42420 0.67300 0.41180 -0.13900
H 	H 	0.43450 0.67110 0.47880 0.04500
C 	C 	0.39170 0.63720 0.36070 0.05000
H 	H 	0.37410 0.60540 0.38670 -0.01200
C 	C 	0.34710 0.61570 0.71110 0.55500
C 	C 	0.28490 0.60640 0.71030 -0.83600
H 	H 	0.26780 0.62880 0.76160 0.25000
H 	H 	0.27000 0.61710 0.64650 0.25000
H 	H 	0.27710 0.56740 0.72240 0.25700
C 	C 	0.37350 0.57830 0.63180 -0.82700
H 	H 	0.36880 0.53960 0.65020 0.26200
H 	H 	0.35550 0.58510 0.56880 0.25000
H 	H 	0.41290 0.58680 0.62650 0.25200
C 	C 	0.35790 0.67640 0.68800 -0.82800
H 	H 	0.39740 0.68190 0.67640 0.24800
H 	H 	0.33720 0.68690 0.62940 0.24300
H 	H 	0.34600 0.69920 0.74330 0.24600
S 	S 	0.33803 0.02224 0.25291 -0.10000
C 	C 	0.38600 0.06810 0.19920 -0.00200
C 	C 	0.43220 0.08910 0.24780 -0.01200
C 	C 	0.46490 0.12710 0.19700 -0.00400
C 	C 	0.44900 0.14640 0.10490 0.00600
H 	H 	0.47190 0.17220 0.07190 0.00000
C 	C 	0.40090 0.12920 0.06070 -0.18000
C 	C 	0.37030 0.08810 0.10670 0.00100
H 	H 	0.33850 0.07350 0.07550 0.01100
S 	S 	0.44710 0.06894 0.36879 0.01100
C 	C 	0.43180 0.13390 0.42890 -0.14000
H 	H 	0.44930 0.13400 0.49430 0.05900
H 	H 	0.44830 0.16430 0.39050 0.05900
C 	C 	0.37050 0.14500 0.44080 -0.01600
H 	H 	0.36490 0.18450 0.45610 0.00700
H 	H 	0.35160 0.13700 0.37830 0.00900
N 	N 	0.34570 0.11130 0.51880 -0.10200
N 	N 	0.29820 0.08290 0.50690 -0.16400
C 	C 	0.28710 0.06120 0.59340 0.04400
H 	H 	0.25600 0.03870 0.60700 -0.01200
C 	C 	0.32700 0.07580 0.66180 -0.13900
H 	H 	0.32890 0.06550 0.72880 0.04500
C 	C 	0.36280 0.10830 0.61070 0.05000
H 	H 	0.39460 0.12590 0.63670 -0.01200
C 	C 	0.38430 0.15290 0.96110 0.55500
C 	C 	0.39360 0.21510 0.96030 -0.83600
H 	H 	0.37120 0.23220 0.01160 0.25000
H 	H 	0.38290 0.23000 0.89650 0.25000
H 	H 	0.43260 0.22290 0.97240 0.25700
C 	C 	0.42170 0.12650 0.88180 -0.82700
H 	H 	0.46040 0.13120 0.90020 0.26200
H 	H 	0.41490 0.14450 0.81880 0.25000
H 	H 	0.41320 0.08710 0.87650 0.25200
C 	C 	0.32360 0.14210 0.93800 -0.82800
H 	H 	0.31810 0.10260 0.92640 0.24800
H 	H 	0.31310 0.16280 0.87940 0.24300
H 	H 	0.30080 0.15400 0.99330 0.24600
S 	S 	0.83803 0.52224 0.75291 -0.10000
C 	C 	0.88600 0.56810 0.69920 -0.00200
C 	C 	0.93220 0.58910 0.74780 -0.01200
C 	C 	0.96490 0.62710 0.69700 -0.00400
C 	C 	0.94900 0.64640 0.60490 0.00600
H 	H 	0.97190 0.67220 0.57190 0.00000
C 	C 	0.90090 0.62920 0.56070 -0.18000
C 	C 	0.87030 0.58810 0.60670 0.00100
H 	H 	0.83850 0.57350 0.57550 0.01100
S 	S 	0.94710 0.56894 0.86879 0.01100
C 	C 	0.93180 0.63390 0.92890 -0.14000
H 	H 	0.94930 0.63400 0.99430 0.05900
H 	H 	0.94830 0.66430 0.89050 0.05900
C 	C 	0.87050 0.64500 0.94080 -0.01600
H 	H 	0.86490 0.68450 0.95610 0.00700
H 	H 	0.85160 0.63700 0.87830 0.00900
N 	N 	0.84570 0.61130 0.01880 -0.10200
N 	N 	0.79820 0.58290 0.00690 -0.16400
C 	C 	0.78710 0.56120 0.09340 0.04400
H 	H 	0.75600 0.53870 0.10700 -0.01200
C 	C 	0.82700 0.57580 0.16180 -0.13900
H 	H 	0.82890 0.56550 0.22880 0.04500
C 	C 	0.86280 0.60830 0.11070 0.05000
H 	H 	0.89460 0.62590 0.13670 -0.01200
C 	C 	0.88430 0.65290 0.46110 0.55500
C 	C 	0.89360 0.71510 0.46030 -0.83600
H 	H 	0.87120 0.73220 0.51160 0.25000
H 	H 	0.88290 0.73000 0.39650 0.25000
H 	H 	0.93260 0.72290 0.47240 0.25700
C 	C 	0.92170 0.62650 0.38180 -0.82700
H 	H 	0.96040 0.63120 0.40020 0.26200
H 	H 	0.91490 0.64450 0.31880 0.25000
H 	H 	0.91320 0.58710 0.37650 0.25200
C 	C 	0.82360 0.64210 0.43800 -0.82800
H 	H 	0.81810 0.60260 0.42640 0.24800
H 	H 	0.81310 0.66280 0.37940 0.24300
H 	H 	0.80080 0.65400 0.49330 0.24600
S 	S 	0.66197 0.97776 0.25291 -0.10000
C 	C 	0.61400 0.93190 0.19920 -0.00200
C 	C 	0.56780 0.91090 0.24780 -0.01200
C 	C 	0.53510 0.87290 0.19700 -0.00400
C 	C 	0.55100 0.85360 0.10490 0.00600
H 	H 	0.52810 0.82780 0.07190 0.00000
C 	C 	0.59910 0.87080 0.06070 -0.18000
C 	C 	0.62970 0.91190 0.10670 0.00100
H 	H 	0.66150 0.92650 0.07550 0.01100
S 	S 	0.55290 0.93106 0.36879 0.01100
C 	C 	0.56820 0.86610 0.42890 -0.14000
H 	H 	0.55070 0.86600 0.49430 0.05900
H 	H 	0.55170 0.83570 0.39050 0.05900
C 	C 	0.62950 0.85500 0.44080 -0.01600
H 	H 	0.63510 0.81550 0.45610 0.00700
H 	H 	0.64840 0.86300 0.37830 0.00900
N 	N 	0.65430 0.88870 0.51880 -0.10200
N 	N 	0.70180 0.91710 0.50690 -0.16400
C 	C 	0.71290 0.93880 0.59340 0.04400
H 	H 	0.74400 0.96130 0.60700 -0.01200
C 	C 	0.67300 0.92420 0.66180 -0.13900
H 	H 	0.67110 0.93450 0.72880 0.04500
C 	C 	0.63720 0.89170 0.61070 0.05000
H 	H 	0.60540 0.87410 0.63670 -0.01200
C 	C 	0.61570 0.84710 0.96110 0.55500
C 	C 	0.60640 0.78490 0.96030 -0.83600
H 	H 	0.62880 0.76780 0.01160 0.25000
H 	H 	0.61710 0.77000 0.89650 0.25000
H 	H 	0.56740 0.77710 0.97240 0.25700
C 	C 	0.57830 0.87350 0.88180 -0.82700
H 	H 	0.53960 0.86880 0.90020 0.26200
H 	H 	0.58510 0.85550 0.81880 0.25000
H 	H 	0.58680 0.91290 0.87650 0.25200
C 	C 	0.67640 0.85790 0.93800 -0.82800
H 	H 	0.68190 0.89740 0.92640 0.24800
H 	H 	0.68690 0.83720 0.87940 0.24300
H 	H 	0.69920 0.84600 0.99330 0.24600
S 	S 	0.16197 0.47776 0.75291 -0.10000
C 	C 	0.11400 0.43190 0.69920 -0.00200
C 	C 	0.06780 0.41090 0.74780 -0.01200
C 	C 	0.03510 0.37290 0.69700 -0.00400
C 	C 	0.05100 0.35360 0.60490 0.00600
H 	H 	0.02810 0.32780 0.57190 0.00000
C 	C 	0.09910 0.37080 0.56070 -0.18000
C 	C 	0.12970 0.41190 0.60670 0.00100
H 	H 	0.16150 0.42650 0.57550 0.01100
S 	S 	0.05290 0.43106 0.86879 0.01100
C 	C 	0.06820 0.36610 0.92890 -0.14000
H 	H 	0.05070 0.36600 0.99430 0.05900
H 	H 	0.05170 0.33570 0.89050 0.05900
C 	C 	0.12950 0.35500 0.94080 -0.01600
H 	H 	0.13510 0.31550 0.95610 0.00700
H 	H 	0.14840 0.36300 0.87830 0.00900
N 	N 	0.15430 0.38870 0.01880 -0.10200
N 	N 	0.20180 0.41710 0.00690 -0.16400
C 	C 	0.21290 0.43880 0.09340 0.04400
H 	H 	0.24400 0.46130 0.10700 -0.01200
C 	C 	0.17300 0.42420 0.16180 -0.13900
H 	H 	0.17110 0.43450 0.22880 0.04500
C 	C 	0.13720 0.39170 0.11070 0.05000
H 	H 	0.10540 0.37410 0.13670 -0.01200
C 	C 	0.11570 0.34710 0.46110 0.55500
C 	C 	0.10640 0.28490 0.46030 -0.83600
H 	H 	0.12880 0.26780 0.51160 0.25000
H 	H 	0.11710 0.27000 0.39650 0.25000
H 	H 	0.06740 0.27710 0.47240 0.25700
C 	C 	0.07830 0.37350 0.38180 -0.82700
H 	H 	0.03960 0.36880 0.40020 0.26200
H 	H 	0.08510 0.35550 0.31880 0.25000
H 	H 	0.08680 0.41290 0.37650 0.25200
C 	C 	0.17640 0.35790 0.43800 -0.82800
H 	H 	0.18190 0.39740 0.42640 0.24800
H 	H 	0.18690 0.33720 0.37940 0.24300
H 	H 	0.19920 0.34600 0.49330 0.24600
S 	S 	0.47776 0.83803 0.24709 -0.10000
C 	C 	0.43190 0.88600 0.30080 -0.00200
C 	C 	0.41090 0.93220 0.25220 -0.01200
C 	C 	0.37290 0.96490 0.30300 -0.00400
C 	C 	0.35360 0.94900 0.39510 0.00600
H 	H 	0.32780 0.97190 0.42810 0.00000
C 	C 	0.37080 0.90090 0.43930 -0.18000
C 	C 	0.41190 0.87030 0.39330 0.00100
H 	H 	0.42650 0.83850 0.42450 0.01100
S 	S 	0.43106 0.94710 0.13121 0.01100
C 	C 	0.36610 0.93180 0.07110 -0.14000
H 	H 	0.36600 0.94930 0.00570 0.05900
H 	H 	0.33570 0.94830 0.10950 0.05900
C 	C 	0.35500 0.87050 0.05920 -0.01600
H 	H 	0.31550 0.86490 0.04390 0.00700
H 	H 	0.36300 0.85160 0.12170 0.00900
N 	N 	0.38870 0.84570 0.98120 -0.10200
N 	N 	0.41710 0.79820 0.99310 -0.16400
C 	C 	0.43880 0.78710 0.90660 0.04400
H 	H 	0.46130 0.75600 0.89300 -0.01200
C 	C 	0.42420 0.82700 0.83820 -0.13900
H 	H 	0.43450 0.82890 0.77120 0.04500
C 	C 	0.39170 0.86280 0.88930 0.05000
H 	H 	0.37410 0.89460 0.86330 -0.01200
C 	C 	0.34710 0.88430 0.53890 0.55500
C 	C 	0.28490 0.89360 0.53970 -0.83600
H 	H 	0.26780 0.87120 0.48840 0.25000
H 	H 	0.27000 0.88290 0.60350 0.25000
H 	H 	0.27710 0.93260 0.52760 0.25700
C 	C 	0.37350 0.92170 0.61820 -0.82700
H 	H 	0.36880 0.96040 0.59980 0.26200
H 	H 	0.35550 0.91490 0.68120 0.25000
H 	H 	0.41290 0.91320 0.62350 0.25200
C 	C 	0.35790 0.82360 0.56200 -0.82800
H 	H 	0.39740 0.81810 0.57360 0.24800
H 	H 	0.33720 0.81310 0.62060 0.24300
H 	H 	0.34600 0.80080 0.50670 0.24600
S 	S 	0.97776 0.33803 0.74709 -0.10000
C 	C 	0.93190 0.38600 0.80080 -0.00200
C 	C 	0.91090 0.43220 0.75220 -0.01200
C 	C 	0.87290 0.46490 0.80300 -0.00400
C 	C 	0.85360 0.44900 0.89510 0.00600
H 	H 	0.82780 0.47190 0.92810 0.00000
C 	C 	0.87080 0.40090 0.93930 -0.18000
C 	C 	0.91190 0.37030 0.89330 0.00100
H 	H 	0.92650 0.33850 0.92450 0.01100
S 	S 	0.93106 0.44710 0.63121 0.01100
C 	C 	0.86610 0.43180 0.57110 -0.14000
H 	H 	0.86600 0.44930 0.50570 0.05900
H 	H 	0.83570 0.44830 0.60950 0.05900
C 	C 	0.85500 0.37050 0.55920 -0.01600
H 	H 	0.81550 0.36490 0.54390 0.00700
H 	H 	0.86300 0.35160 0.62170 0.00900
N 	N 	0.88870 0.34570 0.48120 -0.10200
N 	N 	0.91710 0.29820 0.49310 -0.16400
C 	C 	0.93880 0.28710 0.40660 0.04400
H 	H 	0.96130 0.25600 0.39300 -0.01200
C 	C 	0.92420 0.32700 0.33820 -0.13900
H 	H 	0.93450 0.32890 0.27120 0.04500
C 	C 	0.89170 0.36280 0.38930 0.05000
H 	H 	0.87410 0.39460 0.36330 -0.01200
C 	C 	0.84710 0.38430 0.03890 0.55500
C 	C 	0.78490 0.39360 0.03970 -0.83600
H 	H 	0.76780 0.37120 0.98840 0.25000
H 	H 	0.77000 0.38290 0.10350 0.25000
H 	H 	0.77710 0.43260 0.02760 0.25700
C 	C 	0.87350 0.42170 0.11820 -0.82700
H 	H 	0.86880 0.46040 0.09980 0.26200
H 	H 	0.85550 0.41490 0.18120 0.25000
H 	H 	0.91290 0.41320 0.12350 0.25200
C 	C 	0.85790 0.32360 0.06200 -0.82800
H 	H 	0.89740 0.31810 0.07360 0.24800
H 	H 	0.83720 0.31310 0.12060 0.24300
H 	H 	0.84600 0.30080 0.00670 0.24600
S 	S 	0.52224 0.16197 0.24709 -0.10000
C 	C 	0.56810 0.11400 0.30080 -0.00200
C 	C 	0.58910 0.06780 0.25220 -0.01200
C 	C 	0.62710 0.03510 0.30300 -0.00400
C 	C 	0.64640 0.05100 0.39510 0.00600
H 	H 	0.67220 0.02810 0.42810 0.00000
C 	C 	0.62920 0.09910 0.43930 -0.18000
C 	C 	0.58810 0.12970 0.39330 0.00100
H 	H 	0.57350 0.16150 0.42450 0.01100
S 	S 	0.56894 0.05290 0.13121 0.01100
C 	C 	0.63390 0.06820 0.07110 -0.14000
H 	H 	0.63400 0.05070 0.00570 0.05900
H 	H 	0.66430 0.05170 0.10950 0.05900
C 	C 	0.64500 0.12950 0.05920 -0.01600
H 	H 	0.68450 0.13510 0.04390 0.00700
H 	H 	0.63700 0.14840 0.12170 0.00900
N 	N 	0.61130 0.15430 0.98120 -0.10200
N 	N 	0.58290 0.20180 0.99310 -0.16400
C 	C 	0.56120 0.21290 0.90660 0.04400
H 	H 	0.53870 0.24400 0.89300 -0.01200
C 	C 	0.57580 0.17300 0.83820 -0.13900
H 	H 	0.56550 0.17110 0.77120 0.04500
C 	C 	0.60830 0.13720 0.88930 0.05000
H 	H 	0.62590 0.10540 0.86330 -0.01200
C 	C 	0.65290 0.11570 0.53890 0.55500
C 	C 	0.71510 0.10640 0.53970 -0.83600
H 	H 	0.73220 0.12880 0.48840 0.25000
H 	H 	0.73000 0.11710 0.60350 0.25000
H 	H 	0.72290 0.06740 0.52760 0.25700
C 	C 	0.62650 0.07830 0.61820 -0.82700
H 	H 	0.63120 0.03960 0.59980 0.26200
H 	H 	0.64450 0.08510 0.68120 0.25000
H 	H 	0.58710 0.08680 0.62350 0.25200
C 	C 	0.64210 0.17640 0.56200 -0.82800
H 	H 	0.60260 0.18190 0.57360 0.24800
H 	H 	0.66280 0.18690 0.62060 0.24300
H 	H 	0.65400 0.19920 0.50670 0.24600
S 	S 	0.02224 0.66197 0.74709 -0.10000
C 	C 	0.06810 0.61400 0.80080 -0.00200
C 	C 	0.08910 0.56780 0.75220 -0.01200
C 	C 	0.12710 0.53510 0.80300 -0.00400
C 	C 	0.14640 0.55100 0.89510 0.00600
H 	H 	0.17220 0.52810 0.92810 0.00000
C 	C 	0.12920 0.59910 0.93930 -0.18000
C 	C 	0.08810 0.62970 0.89330 0.00100
H 	H 	0.07350 0.66150 0.92450 0.01100
S 	S 	0.06894 0.55290 0.63121 0.01100
C 	C 	0.13390 0.56820 0.57110 -0.14000
H 	H 	0.13400 0.55070 0.50570 0.05900
H 	H 	0.16430 0.55170 0.60950 0.05900
C 	C 	0.14500 0.62950 0.55920 -0.01600
H 	H 	0.18450 0.63510 0.54390 0.00700
H 	H 	0.13700 0.64840 0.62170 0.00900
N 	N 	0.11130 0.65430 0.48120 -0.10200
N 	N 	0.08290 0.70180 0.49310 -0.16400
C 	C 	0.06120 0.71290 0.40660 0.04400
H 	H 	0.03870 0.74400 0.39300 -0.01200
C 	C 	0.07580 0.67300 0.33820 -0.13900
H 	H 	0.06550 0.67110 0.27120 0.04500
C 	C 	0.10830 0.63720 0.38930 0.05000
H 	H 	0.12590 0.60540 0.36330 -0.01200
C 	C 	0.15290 0.61570 0.03890 0.55500
C 	C 	0.21510 0.60640 0.03970 -0.83600
H 	H 	0.23220 0.62880 0.98840 0.25000
H 	H 	0.23000 0.61710 0.10350 0.25000
H 	H 	0.22290 0.56740 0.02760 0.25700
C 	C 	0.12650 0.57830 0.11820 -0.82700
H 	H 	0.13120 0.53960 0.09980 0.26200
H 	H 	0.14450 0.58510 0.18120 0.25000
H 	H 	0.08710 0.58680 0.12350 0.25200
C 	C 	0.14210 0.67640 0.06200 -0.82800
H 	H 	0.10260 0.68190 0.07360 0.24800
H 	H 	0.16280 0.68690 0.12060 0.24300
H 	H 	0.15400 0.69920 0.00670 0.24600
Ag	Ag	0.25000 0.07766 0.37500 0.51500
Ag	Ag	0.75000 0.57766 0.87500 0.51500
Ag	Ag	0.75000 0.92234 0.37500 0.51500
Ag	Ag	0.25000 0.42234 0.87500 0.51500
Ag	Ag	0.07766 0.75000 0.62500 0.51500
Ag	Ag	0.92234 0.25000 0.62500 0.51500
Ag	Ag	0.42234 0.75000 0.12500 0.51500
Ag	Ag	0.57766 0.25000 0.12500 0.51500
