data_crystal

_cell_length_a 24.41650
_cell_length_b 24.41650
_cell_length_c 13.74570
_cell_angle_alpha 90.00000
_cell_angle_beta  90.00000
_cell_angle_gamma 90.00000

_symmetry_space_group_name_	'P 1'
_symmetry_space_group_name_H-M	'P 1'

loop_
_symmetry_equiv_pos_as_xyz
  x,y,z

loop_
_atom_site_label
_atom_site_type_symbol
_atom_site_fract_x
_atom_site_fract_y
_atom_site_fract_z
_atom_site_charge
N 	N 	0.20160 0.08280 0.24500 -0.16200
N 	N 	0.34560 0.11080 0.51610 -0.10000
C 	C 	0.28710 0.06150 0.59240 0.04000
C 	C 	0.37000 0.14350 0.43780 -0.00900
C 	C 	0.36420 0.10550 0.60860 0.04400
C 	C 	0.32730 0.07490 0.65990 -0.13500
H 	H 	0.25570 0.03990 0.60640 -0.01100
C 	C 	0.42980 0.13380 0.42650 -0.14100
H 	H 	0.35140 0.13460 0.37570 0.00900
H 	H 	0.36370 0.18280 0.45140 0.00600
H 	H 	0.39720 0.12060 0.63350 -0.00900
H 	H 	0.32890 0.06500 0.72660 0.04500
S 	S 	0.44739 0.06878 0.36831 0.00900
H 	H 	0.44560 0.16400 0.38760 0.05900
H 	H 	0.44710 0.13490 0.49160 0.05900
C 	C 	0.43280 0.08880 0.24700 -0.00800
C 	C 	0.46530 0.12660 0.19800 -0.00900
C 	C 	0.38730 0.06810 0.19860 -0.00800
S 	S 	0.52250 0.16107 0.24769 -0.09600
C 	C 	0.45010 0.14590 0.10590 0.01500
C 	C 	0.37180 0.08750 0.10700 0.01300
C 	C 	0.40190 0.12900 0.06020 -0.20200
H 	H 	0.47330 0.17130 0.07350 -0.00200
H 	H 	0.34040 0.07250 0.07590 0.00400
C 	C 	0.38500 0.15270 0.96270 0.59700
C 	C 	0.32550 0.14200 0.93750 -0.86900
C 	C 	0.42060 0.12540 0.88380 -0.86300
C 	C 	0.39480 0.21450 0.96180 -0.87100
H 	H 	0.30180 0.16270 0.98180 0.25600
H 	H 	0.31850 0.15360 0.87040 0.25400
H 	H 	0.31770 0.10280 0.94390 0.26100
H 	H 	0.41450 0.08580 0.88450 0.26500
H 	H 	0.41060 0.14010 0.81980 0.25900
H 	H 	0.45930 0.13310 0.89670 0.27000
H 	H 	0.38170 0.22980 0.90020 0.26000
H 	H 	0.37490 0.23140 0.01590 0.25900
H 	H 	0.43400 0.22190 0.96880 0.26600
N 	N 	0.70160 0.58280 0.74500 -0.16300
N 	N 	0.84560 0.61080 0.01610 -0.10100
C 	C 	0.78710 0.56150 0.09240 0.03900
C 	C 	0.87000 0.64350 0.93780 -0.01000
C 	C 	0.86420 0.60550 0.10860 0.04300
C 	C 	0.82730 0.57490 0.15990 -0.13600
H 	H 	0.75570 0.53990 0.10640 -0.01200
C 	C 	0.92980 0.63380 0.92650 -0.14200
H 	H 	0.85140 0.63460 0.87570 0.00800
H 	H 	0.86370 0.68280 0.95140 0.00500
H 	H 	0.89720 0.62060 0.13350 -0.01000
H 	H 	0.82890 0.56500 0.22660 0.04400
S 	S 	0.94739 0.56878 0.86831 0.00900
H 	H 	0.94560 0.66400 0.88760 0.05900
H 	H 	0.94710 0.63490 0.99160 0.05900
C 	C 	0.93280 0.58880 0.74700 -0.00800
C 	C 	0.96530 0.62660 0.69800 -0.00900
C 	C 	0.88730 0.56810 0.69860 -0.00800
S 	S 	0.02250 0.66107 0.74769 -0.09600
C 	C 	0.95010 0.64590 0.60590 0.01500
C 	C 	0.87180 0.58750 0.60700 0.01300
C 	C 	0.90190 0.62900 0.56020 -0.20100
H 	H 	0.97330 0.67130 0.57350 -0.00200
H 	H 	0.84040 0.57250 0.57590 0.00400
C 	C 	0.88500 0.65270 0.46270 0.59600
C 	C 	0.82550 0.64200 0.43750 -0.86900
C 	C 	0.92060 0.62540 0.38380 -0.86300
C 	C 	0.89480 0.71450 0.46180 -0.87100
H 	H 	0.80180 0.66270 0.48180 0.25500
H 	H 	0.81850 0.65360 0.37040 0.25400
H 	H 	0.81770 0.60280 0.44390 0.26100
H 	H 	0.91450 0.58580 0.38450 0.26500
H 	H 	0.91060 0.64010 0.31980 0.25900
H 	H 	0.95930 0.63310 0.39670 0.27000
H 	H 	0.88170 0.72980 0.40020 0.26000
H 	H 	0.87490 0.73140 0.51590 0.25900
H 	H 	0.93400 0.72190 0.46880 0.26600
N 	N 	0.79840 0.91720 0.24500 -0.16300
N 	N 	0.65440 0.88920 0.51610 -0.10100
C 	C 	0.71290 0.93850 0.59240 0.03900
C 	C 	0.63000 0.85650 0.43780 -0.01000
C 	C 	0.63580 0.89450 0.60860 0.04300
C 	C 	0.67270 0.92510 0.65990 -0.13600
H 	H 	0.74430 0.96010 0.60640 -0.01200
C 	C 	0.57020 0.86620 0.42650 -0.14200
H 	H 	0.64860 0.86540 0.37570 0.00800
H 	H 	0.63630 0.81720 0.45140 0.00500
H 	H 	0.60280 0.87940 0.63350 -0.01000
H 	H 	0.67110 0.93500 0.72660 0.04400
S 	S 	0.55261 0.93122 0.36831 0.00900
H 	H 	0.55440 0.83600 0.38760 0.05900
H 	H 	0.55290 0.86510 0.49160 0.05900
C 	C 	0.56720 0.91120 0.24700 -0.00800
C 	C 	0.53470 0.87340 0.19800 -0.00900
C 	C 	0.61270 0.93190 0.19860 -0.00800
S 	S 	0.47750 0.83893 0.24769 -0.09600
C 	C 	0.54990 0.85410 0.10590 0.01500
C 	C 	0.62820 0.91250 0.10700 0.01300
C 	C 	0.59810 0.87100 0.06020 -0.20200
H 	H 	0.52670 0.82870 0.07350 -0.00200
H 	H 	0.65960 0.92750 0.07590 0.00400
C 	C 	0.61500 0.84730 0.96270 0.59700
C 	C 	0.67450 0.85800 0.93750 -0.86900
C 	C 	0.57940 0.87460 0.88380 -0.86300
C 	C 	0.60520 0.78550 0.96180 -0.87100
H 	H 	0.69820 0.83730 0.98180 0.25600
H 	H 	0.68150 0.84640 0.87040 0.25400
H 	H 	0.68230 0.89720 0.94390 0.26100
H 	H 	0.58550 0.91420 0.88450 0.26500
H 	H 	0.58940 0.85990 0.81980 0.25900
H 	H 	0.54070 0.86690 0.89670 0.27000
H 	H 	0.61830 0.77020 0.90020 0.26000
H 	H 	0.62510 0.76860 0.01590 0.25900
H 	H 	0.56600 0.77810 0.96880 0.26600
N 	N 	0.29840 0.41720 0.74500 -0.16300
N 	N 	0.15440 0.38920 0.01610 -0.10100
C 	C 	0.21290 0.43850 0.09240 0.03900
C 	C 	0.13000 0.35650 0.93780 -0.01000
C 	C 	0.13580 0.39450 0.10860 0.04300
C 	C 	0.17270 0.42510 0.15990 -0.13600
H 	H 	0.24430 0.46010 0.10640 -0.01200
C 	C 	0.07020 0.36620 0.92650 -0.14200
H 	H 	0.14860 0.36540 0.87570 0.00800
H 	H 	0.13630 0.31720 0.95140 0.00500
H 	H 	0.10280 0.37940 0.13350 -0.01000
H 	H 	0.17110 0.43500 0.22660 0.04400
S 	S 	0.05261 0.43122 0.86831 0.00900
H 	H 	0.05440 0.33600 0.88760 0.05900
H 	H 	0.05290 0.36510 0.99160 0.05900
C 	C 	0.06720 0.41120 0.74700 -0.00800
C 	C 	0.03470 0.37340 0.69800 -0.00900
C 	C 	0.11270 0.43190 0.69860 -0.00800
S 	S 	0.97750 0.33893 0.74769 -0.09600
C 	C 	0.04990 0.35410 0.60590 0.01500
C 	C 	0.12820 0.41250 0.60700 0.01300
C 	C 	0.09810 0.37100 0.56020 -0.20100
H 	H 	0.02670 0.32870 0.57350 -0.00200
H 	H 	0.15960 0.42750 0.57590 0.00400
C 	C 	0.11500 0.34730 0.46270 0.59600
C 	C 	0.17450 0.35800 0.43750 -0.86900
C 	C 	0.07940 0.37460 0.38380 -0.86300
C 	C 	0.10520 0.28550 0.46180 -0.87100
H 	H 	0.19820 0.33730 0.48180 0.25500
H 	H 	0.18150 0.34640 0.37040 0.25400
H 	H 	0.18230 0.39720 0.44390 0.26100
H 	H 	0.08550 0.41420 0.38450 0.26500
H 	H 	0.08940 0.35990 0.31980 0.25900
H 	H 	0.04070 0.36690 0.39670 0.27000
H 	H 	0.11830 0.27020 0.40020 0.26000
H 	H 	0.12510 0.26860 0.51590 0.25900
H 	H 	0.06600 0.27810 0.46880 0.26600
N 	N 	0.08280 0.79840 0.75500 -0.16300
N 	N 	0.11080 0.65440 0.48390 -0.10100
C 	C 	0.06150 0.71290 0.40760 0.03900
C 	C 	0.14350 0.63000 0.56220 -0.01000
C 	C 	0.10550 0.63580 0.39140 0.04300
C 	C 	0.07490 0.67270 0.34010 -0.13600
H 	H 	0.03990 0.74430 0.39360 -0.01200
C 	C 	0.13380 0.57020 0.57350 -0.14200
H 	H 	0.13460 0.64860 0.62430 0.00800
H 	H 	0.18280 0.63630 0.54860 0.00500
H 	H 	0.12060 0.60280 0.36650 -0.01000
H 	H 	0.06500 0.67110 0.27340 0.04400
S 	S 	0.06878 0.55261 0.63169 0.00900
H 	H 	0.16400 0.55440 0.61240 0.05900
H 	H 	0.13490 0.55290 0.50840 0.05900
C 	C 	0.08880 0.56720 0.75300 -0.00800
C 	C 	0.12660 0.53470 0.80200 -0.00900
C 	C 	0.06810 0.61270 0.80140 -0.00800
S 	S 	0.16107 0.47750 0.75231 -0.09600
C 	C 	0.14590 0.54990 0.89410 0.01500
C 	C 	0.08750 0.62820 0.89300 0.01300
C 	C 	0.12900 0.59810 0.93980 -0.20200
H 	H 	0.17130 0.52670 0.92650 -0.00200
H 	H 	0.07250 0.65960 0.92410 0.00400
C 	C 	0.15270 0.61500 0.03730 0.59700
C 	C 	0.14200 0.67450 0.06250 -0.86900
C 	C 	0.12540 0.57940 0.11620 -0.86300
C 	C 	0.21450 0.60520 0.03820 -0.87100
H 	H 	0.16270 0.69820 0.01820 0.25600
H 	H 	0.15360 0.68150 0.12960 0.25400
H 	H 	0.10280 0.68230 0.05610 0.26100
H 	H 	0.08580 0.58550 0.11550 0.26500
H 	H 	0.14010 0.58940 0.18020 0.25900
H 	H 	0.13310 0.54070 0.10330 0.27000
H 	H 	0.22980 0.61830 0.09980 0.26000
H 	H 	0.23140 0.62510 0.98410 0.25900
H 	H 	0.22190 0.56600 0.03120 0.26600
N 	N 	0.58280 0.29840 0.25500 -0.16300
N 	N 	0.61080 0.15440 0.98390 -0.10100
C 	C 	0.56150 0.21290 0.90760 0.03900
C 	C 	0.64350 0.13000 0.06220 -0.01000
C 	C 	0.60550 0.13580 0.89140 0.04300
C 	C 	0.57490 0.17270 0.84010 -0.13600
H 	H 	0.53990 0.24430 0.89360 -0.01200
C 	C 	0.63380 0.07020 0.07350 -0.14200
H 	H 	0.63460 0.14860 0.12430 0.00800
H 	H 	0.68280 0.13630 0.04860 0.00500
H 	H 	0.62060 0.10280 0.86650 -0.01000
H 	H 	0.56500 0.17110 0.77340 0.04400
S 	S 	0.56878 0.05261 0.13169 0.00900
H 	H 	0.66400 0.05440 0.11240 0.05900
H 	H 	0.63490 0.05290 0.00840 0.05900
C 	C 	0.58880 0.06720 0.25300 -0.00800
C 	C 	0.62660 0.03470 0.30200 -0.00900
C 	C 	0.56810 0.11270 0.30140 -0.00800
S 	S 	0.66107 0.97750 0.25231 -0.09600
C 	C 	0.64590 0.04990 0.39410 0.01500
C 	C 	0.58750 0.12820 0.39300 0.01300
C 	C 	0.62900 0.09810 0.43980 -0.20100
H 	H 	0.67130 0.02670 0.42650 -0.00200
H 	H 	0.57250 0.15960 0.42410 0.00400
C 	C 	0.65270 0.11500 0.53730 0.59600
C 	C 	0.64200 0.17450 0.56250 -0.86900
C 	C 	0.62540 0.07940 0.61620 -0.86300
C 	C 	0.71450 0.10520 0.53820 -0.87100
H 	H 	0.66270 0.19820 0.51820 0.25500
H 	H 	0.65360 0.18150 0.62960 0.25400
H 	H 	0.60280 0.18230 0.55610 0.26100
H 	H 	0.58580 0.08550 0.61550 0.26500
H 	H 	0.64010 0.08940 0.68020 0.25900
H 	H 	0.63310 0.04070 0.60330 0.27000
H 	H 	0.72980 0.11830 0.59980 0.26000
H 	H 	0.73140 0.12510 0.48410 0.25900
H 	H 	0.72190 0.06600 0.53120 0.26600
N 	N 	0.91720 0.20160 0.75500 -0.16300
N 	N 	0.88920 0.34560 0.48390 -0.10100
C 	C 	0.93850 0.28710 0.40760 0.03900
C 	C 	0.85650 0.37000 0.56220 -0.01000
C 	C 	0.89450 0.36420 0.39140 0.04300
C 	C 	0.92510 0.32730 0.34010 -0.13600
H 	H 	0.96010 0.25570 0.39360 -0.01200
C 	C 	0.86620 0.42980 0.57350 -0.14200
H 	H 	0.86540 0.35140 0.62430 0.00800
H 	H 	0.81720 0.36370 0.54860 0.00500
H 	H 	0.87940 0.39720 0.36650 -0.01000
H 	H 	0.93500 0.32890 0.27340 0.04400
S 	S 	0.93122 0.44739 0.63169 0.00900
H 	H 	0.83600 0.44560 0.61240 0.05900
H 	H 	0.86510 0.44710 0.50840 0.05900
C 	C 	0.91120 0.43280 0.75300 -0.00800
C 	C 	0.87340 0.46530 0.80200 -0.00900
C 	C 	0.93190 0.38730 0.80140 -0.00800
S 	S 	0.83893 0.52250 0.75231 -0.09600
C 	C 	0.85410 0.45010 0.89410 0.01500
C 	C 	0.91250 0.37180 0.89300 0.01300
C 	C 	0.87100 0.40190 0.93980 -0.20200
H 	H 	0.82870 0.47330 0.92650 -0.00200
H 	H 	0.92750 0.34040 0.92410 0.00400
C 	C 	0.84730 0.38500 0.03730 0.59700
C 	C 	0.85800 0.32550 0.06250 -0.86900
C 	C 	0.87460 0.42060 0.11620 -0.86300
C 	C 	0.78550 0.39480 0.03820 -0.87100
H 	H 	0.83730 0.30180 0.01820 0.25600
H 	H 	0.84640 0.31850 0.12960 0.25400
H 	H 	0.89720 0.31770 0.05610 0.26100
H 	H 	0.91420 0.41450 0.11550 0.26500
H 	H 	0.85990 0.41060 0.18020 0.25900
H 	H 	0.86690 0.45930 0.10330 0.27000
H 	H 	0.77020 0.38170 0.09980 0.26000
H 	H 	0.76860 0.37490 0.98410 0.25900
H 	H 	0.77810 0.43400 0.03120 0.26600
N 	N 	0.41720 0.70160 0.25500 -0.16300
N 	N 	0.38920 0.84560 0.98390 -0.10100
C 	C 	0.43850 0.78710 0.90760 0.03900
C 	C 	0.35650 0.87000 0.06220 -0.01000
C 	C 	0.39450 0.86420 0.89140 0.04300
C 	C 	0.42510 0.82730 0.84010 -0.13600
H 	H 	0.46010 0.75570 0.89360 -0.01200
C 	C 	0.36620 0.92980 0.07350 -0.14200
H 	H 	0.36540 0.85140 0.12430 0.00800
H 	H 	0.31720 0.86370 0.04860 0.00500
H 	H 	0.37940 0.89720 0.86650 -0.01000
H 	H 	0.43500 0.82890 0.77340 0.04400
S 	S 	0.43122 0.94739 0.13169 0.00900
H 	H 	0.33600 0.94560 0.11240 0.05900
H 	H 	0.36510 0.94710 0.00840 0.05900
C 	C 	0.41120 0.93280 0.25300 -0.00800
C 	C 	0.37340 0.96530 0.30200 -0.00900
C 	C 	0.43190 0.88730 0.30140 -0.00800
S 	S 	0.33893 0.02250 0.25231 -0.09600
C 	C 	0.35410 0.95010 0.39410 0.01500
C 	C 	0.41250 0.87180 0.39300 0.01300
C 	C 	0.37100 0.90190 0.43980 -0.20100
H 	H 	0.32870 0.97330 0.42650 -0.00200
H 	H 	0.42750 0.84040 0.42410 0.00400
C 	C 	0.34730 0.88500 0.53730 0.59600
C 	C 	0.35800 0.82550 0.56250 -0.86900
C 	C 	0.37460 0.92060 0.61620 -0.86300
C 	C 	0.28550 0.89480 0.53820 -0.87100
H 	H 	0.33730 0.80180 0.51820 0.25500
H 	H 	0.34640 0.81850 0.62960 0.25400
H 	H 	0.39720 0.81770 0.55610 0.26100
H 	H 	0.41420 0.91450 0.61550 0.26500
H 	H 	0.35990 0.91060 0.68020 0.25900
H 	H 	0.36690 0.95930 0.60330 0.27000
H 	H 	0.27020 0.88170 0.59980 0.26000
H 	H 	0.26860 0.87490 0.48410 0.25900
H 	H 	0.27810 0.93400 0.53120 0.26600
N 	N 	0.29840 0.08280 0.50500 -0.16300
N 	N 	0.15440 0.11080 0.23390 -0.10100
C 	C 	0.21290 0.06150 0.15760 0.03900
C 	C 	0.13000 0.14350 0.31220 -0.01000
C 	C 	0.13580 0.10550 0.14140 0.04300
C 	C 	0.17270 0.07490 0.09010 -0.13600
H 	H 	0.24430 0.03990 0.14360 -0.01200
C 	C 	0.07020 0.13380 0.32350 -0.14200
H 	H 	0.14860 0.13460 0.37430 0.00800
H 	H 	0.13630 0.18280 0.29860 0.00500
H 	H 	0.10280 0.12060 0.11650 -0.01000
H 	H 	0.17110 0.06500 0.02340 0.04400
S 	S 	0.05261 0.06878 0.38169 0.00900
H 	H 	0.05440 0.16400 0.36240 0.05900
H 	H 	0.05290 0.13490 0.25840 0.05900
C 	C 	0.06720 0.08880 0.50300 -0.00800
C 	C 	0.03470 0.12660 0.55200 -0.00900
C 	C 	0.11270 0.06810 0.55140 -0.00800
S 	S 	0.97750 0.16107 0.50231 -0.09600
C 	C 	0.04990 0.14590 0.64410 0.01500
C 	C 	0.12820 0.08750 0.64300 0.01300
C 	C 	0.09810 0.12900 0.68980 -0.20100
H 	H 	0.02670 0.17130 0.67650 -0.00200
H 	H 	0.15960 0.07250 0.67410 0.00400
C 	C 	0.11500 0.15270 0.78730 0.59600
C 	C 	0.17450 0.14200 0.81250 -0.86900
C 	C 	0.07940 0.12540 0.86620 -0.86300
C 	C 	0.10520 0.21450 0.78820 -0.87100
H 	H 	0.19820 0.16270 0.76820 0.25500
H 	H 	0.18150 0.15360 0.87960 0.25400
H 	H 	0.18230 0.10280 0.80610 0.26100
H 	H 	0.08550 0.08580 0.86550 0.26500
H 	H 	0.08940 0.14010 0.93020 0.25900
H 	H 	0.04070 0.13310 0.85330 0.27000
H 	H 	0.11830 0.22980 0.84980 0.26000
H 	H 	0.12510 0.23140 0.73410 0.25900
H 	H 	0.06600 0.22190 0.78120 0.26600
N 	N 	0.79840 0.58280 0.00500 -0.16300
N 	N 	0.65440 0.61080 0.73390 -0.10100
C 	C 	0.71290 0.56150 0.65760 0.03900
C 	C 	0.63000 0.64350 0.81220 -0.01000
C 	C 	0.63580 0.60550 0.64140 0.04300
C 	C 	0.67270 0.57490 0.59010 -0.13600
H 	H 	0.74430 0.53990 0.64360 -0.01200
C 	C 	0.57020 0.63380 0.82350 -0.14200
H 	H 	0.64860 0.63460 0.87430 0.00800
H 	H 	0.63630 0.68280 0.79860 0.00500
H 	H 	0.60280 0.62060 0.61650 -0.01000
H 	H 	0.67110 0.56500 0.52340 0.04400
S 	S 	0.55261 0.56878 0.88169 0.00900
H 	H 	0.55440 0.66400 0.86240 0.05900
H 	H 	0.55290 0.63490 0.75840 0.05900
C 	C 	0.56720 0.58880 0.00300 -0.00800
C 	C 	0.53470 0.62660 0.05200 -0.00900
C 	C 	0.61270 0.56810 0.05140 -0.00700
S 	S 	0.47750 0.66107 0.00231 -0.09600
C 	C 	0.54990 0.64590 0.14410 0.01500
C 	C 	0.62820 0.58750 0.14300 0.01200
C 	C 	0.59810 0.62900 0.18980 -0.20100
H 	H 	0.52670 0.67130 0.17650 -0.00200
H 	H 	0.65960 0.57250 0.17410 0.00400
C 	C 	0.61500 0.65270 0.28730 0.59600
C 	C 	0.67450 0.64200 0.31250 -0.86900
C 	C 	0.57940 0.62540 0.36620 -0.86300
C 	C 	0.60520 0.71450 0.28820 -0.87100
H 	H 	0.69820 0.66270 0.26820 0.25500
H 	H 	0.68150 0.65360 0.37960 0.25400
H 	H 	0.68230 0.60280 0.30610 0.26100
H 	H 	0.58550 0.58580 0.36550 0.26500
H 	H 	0.58940 0.64010 0.43020 0.25900
H 	H 	0.54070 0.63310 0.35330 0.27000
H 	H 	0.61830 0.72980 0.34980 0.26000
H 	H 	0.62510 0.73140 0.23410 0.25900
H 	H 	0.56600 0.72190 0.28120 0.26600
N 	N 	0.70160 0.91720 0.50500 -0.16300
N 	N 	0.84560 0.88920 0.23390 -0.10100
C 	C 	0.78710 0.93850 0.15760 0.03900
C 	C 	0.87000 0.85650 0.31220 -0.01000
C 	C 	0.86420 0.89450 0.14140 0.04300
C 	C 	0.82730 0.92510 0.09010 -0.13600
H 	H 	0.75570 0.96010 0.14360 -0.01200
C 	C 	0.92980 0.86620 0.32350 -0.14200
H 	H 	0.85140 0.86540 0.37430 0.00800
H 	H 	0.86370 0.81720 0.29860 0.00500
H 	H 	0.89720 0.87940 0.11650 -0.01000
H 	H 	0.82890 0.93500 0.02340 0.04400
S 	S 	0.94739 0.93122 0.38169 0.00900
H 	H 	0.94560 0.83600 0.36240 0.05900
H 	H 	0.94710 0.86510 0.25840 0.05900
C 	C 	0.93280 0.91120 0.50300 -0.00800
C 	C 	0.96530 0.87340 0.55200 -0.00900
C 	C 	0.88730 0.93190 0.55140 -0.00800
S 	S 	0.02250 0.83893 0.50231 -0.09600
C 	C 	0.95010 0.85410 0.64410 0.01500
C 	C 	0.87180 0.91250 0.64300 0.01300
C 	C 	0.90190 0.87100 0.68980 -0.20100
H 	H 	0.97330 0.82870 0.67650 -0.00200
H 	H 	0.84040 0.92750 0.67410 0.00400
C 	C 	0.88500 0.84730 0.78730 0.59600
C 	C 	0.82550 0.85800 0.81250 -0.86900
C 	C 	0.92060 0.87460 0.86620 -0.86300
C 	C 	0.89480 0.78550 0.78820 -0.87100
H 	H 	0.80180 0.83730 0.76820 0.25500
H 	H 	0.81850 0.84640 0.87960 0.25400
H 	H 	0.81770 0.89720 0.80610 0.26100
H 	H 	0.91450 0.91420 0.86550 0.26500
H 	H 	0.91060 0.85990 0.93020 0.25900
H 	H 	0.95930 0.86690 0.85330 0.27000
H 	H 	0.88170 0.77020 0.84980 0.26000
H 	H 	0.87490 0.76860 0.73410 0.25900
H 	H 	0.93400 0.77810 0.78120 0.26600
N 	N 	0.20160 0.41720 0.00500 -0.16300
N 	N 	0.34560 0.38920 0.73390 -0.10100
C 	C 	0.28710 0.43850 0.65760 0.03900
C 	C 	0.37000 0.35650 0.81220 -0.01000
C 	C 	0.36420 0.39450 0.64140 0.04300
C 	C 	0.32730 0.42510 0.59010 -0.13600
H 	H 	0.25570 0.46010 0.64360 -0.01200
C 	C 	0.42980 0.36620 0.82350 -0.14200
H 	H 	0.35140 0.36540 0.87430 0.00800
H 	H 	0.36370 0.31720 0.79860 0.00500
H 	H 	0.39720 0.37940 0.61650 -0.01000
H 	H 	0.32890 0.43500 0.52340 0.04400
S 	S 	0.44739 0.43122 0.88169 0.00900
H 	H 	0.44560 0.33600 0.86240 0.05900
H 	H 	0.44710 0.36510 0.75840 0.05900
C 	C 	0.43280 0.41120 0.00300 -0.00800
C 	C 	0.46530 0.37340 0.05200 -0.00900
C 	C 	0.38730 0.43190 0.05140 -0.00700
S 	S 	0.52250 0.33893 0.00231 -0.09600
C 	C 	0.45010 0.35410 0.14410 0.01500
C 	C 	0.37180 0.41250 0.14300 0.01200
C 	C 	0.40190 0.37100 0.18980 -0.20100
H 	H 	0.47330 0.32870 0.17650 -0.00200
H 	H 	0.34040 0.42750 0.17410 0.00400
C 	C 	0.38500 0.34730 0.28730 0.59600
C 	C 	0.32550 0.35800 0.31250 -0.86900
C 	C 	0.42060 0.37460 0.36620 -0.86300
C 	C 	0.39480 0.28550 0.28820 -0.87100
H 	H 	0.30180 0.33730 0.26820 0.25500
H 	H 	0.31850 0.34640 0.37960 0.25400
H 	H 	0.31770 0.39720 0.30610 0.26100
H 	H 	0.41450 0.41420 0.36550 0.26500
H 	H 	0.41060 0.35990 0.43020 0.25900
H 	H 	0.45930 0.36690 0.35330 0.27000
H 	H 	0.38170 0.27020 0.34980 0.26000
H 	H 	0.37490 0.26860 0.23410 0.25900
H 	H 	0.43400 0.27810 0.28120 0.26600
N 	N 	0.41720 0.79840 0.99500 -0.16300
N 	N 	0.38920 0.65440 0.26610 -0.10100
C 	C 	0.43850 0.71290 0.34240 0.03900
C 	C 	0.35650 0.63000 0.18780 -0.01000
C 	C 	0.39450 0.63580 0.35860 0.04300
C 	C 	0.42510 0.67270 0.40990 -0.13600
H 	H 	0.46010 0.74430 0.35640 -0.01200
C 	C 	0.36620 0.57020 0.17650 -0.14200
H 	H 	0.36540 0.64860 0.12570 0.00800
H 	H 	0.31720 0.63630 0.20140 0.00500
H 	H 	0.37940 0.60280 0.38350 -0.01000
H 	H 	0.43500 0.67110 0.47660 0.04400
S 	S 	0.43122 0.55261 0.11831 0.00900
H 	H 	0.33600 0.55440 0.13760 0.05900
H 	H 	0.36510 0.55290 0.24160 0.05900
C 	C 	0.41120 0.56720 0.99700 -0.00800
C 	C 	0.37340 0.53470 0.94800 -0.00900
C 	C 	0.43190 0.61270 0.94860 -0.00700
S 	S 	0.33893 0.47750 0.99769 -0.09600
C 	C 	0.35410 0.54990 0.85590 0.01500
C 	C 	0.41250 0.62820 0.85700 0.01200
C 	C 	0.37100 0.59810 0.81020 -0.20100
H 	H 	0.32870 0.52670 0.82350 -0.00200
H 	H 	0.42750 0.65960 0.82590 0.00400
C 	C 	0.34730 0.61500 0.71270 0.59600
C 	C 	0.35800 0.67450 0.68750 -0.86900
C 	C 	0.37460 0.57940 0.63380 -0.86300
C 	C 	0.28550 0.60520 0.71180 -0.87100
H 	H 	0.33730 0.69820 0.73180 0.25500
H 	H 	0.34640 0.68150 0.62040 0.25400
H 	H 	0.39720 0.68230 0.69390 0.26100
H 	H 	0.41420 0.58550 0.63450 0.26500
H 	H 	0.35990 0.58940 0.56980 0.25900
H 	H 	0.36690 0.54070 0.64670 0.27000
H 	H 	0.27020 0.61830 0.65020 0.26000
H 	H 	0.26860 0.62510 0.76590 0.25900
H 	H 	0.27810 0.56600 0.71880 0.26600
N 	N 	0.91720 0.29840 0.49500 -0.16300
N 	N 	0.88920 0.15440 0.76610 -0.10100
C 	C 	0.93850 0.21290 0.84240 0.03900
C 	C 	0.85650 0.13000 0.68780 -0.01000
C 	C 	0.89450 0.13580 0.85860 0.04300
C 	C 	0.92510 0.17270 0.90990 -0.13600
H 	H 	0.96010 0.24430 0.85640 -0.01200
C 	C 	0.86620 0.07020 0.67650 -0.14200
H 	H 	0.86540 0.14860 0.62570 0.00800
H 	H 	0.81720 0.13630 0.70140 0.00500
H 	H 	0.87940 0.10280 0.88350 -0.01000
H 	H 	0.93500 0.17110 0.97660 0.04400
S 	S 	0.93122 0.05261 0.61831 0.00900
H 	H 	0.83600 0.05440 0.63760 0.05900
H 	H 	0.86510 0.05290 0.74160 0.05900
C 	C 	0.91120 0.06720 0.49700 -0.00800
C 	C 	0.87340 0.03470 0.44800 -0.00900
C 	C 	0.93190 0.11270 0.44860 -0.00800
S 	S 	0.83893 0.97750 0.49769 -0.09600
C 	C 	0.85410 0.04990 0.35590 0.01500
C 	C 	0.91250 0.12820 0.35700 0.01300
C 	C 	0.87100 0.09810 0.31020 -0.20100
H 	H 	0.82870 0.02670 0.32350 -0.00200
H 	H 	0.92750 0.15960 0.32590 0.00400
C 	C 	0.84730 0.11500 0.21270 0.59600
C 	C 	0.85800 0.17450 0.18750 -0.86900
C 	C 	0.87460 0.07940 0.13380 -0.86300
C 	C 	0.78550 0.10520 0.21180 -0.87100
H 	H 	0.83730 0.19820 0.23180 0.25500
H 	H 	0.84640 0.18150 0.12040 0.25400
H 	H 	0.89720 0.18230 0.19390 0.26100
H 	H 	0.91420 0.08550 0.13450 0.26500
H 	H 	0.85990 0.08940 0.06980 0.25900
H 	H 	0.86690 0.04070 0.14670 0.27000
H 	H 	0.77020 0.11830 0.15020 0.26000
H 	H 	0.76860 0.12510 0.26590 0.25900
H 	H 	0.77810 0.06600 0.21880 0.26600
N 	N 	0.58280 0.20160 0.99500 -0.16300
N 	N 	0.61080 0.34560 0.26610 -0.10100
C 	C 	0.56150 0.28710 0.34240 0.03900
C 	C 	0.64350 0.37000 0.18780 -0.01000
C 	C 	0.60550 0.36420 0.35860 0.04300
C 	C 	0.57490 0.32730 0.40990 -0.13600
H 	H 	0.53990 0.25570 0.35640 -0.01200
C 	C 	0.63380 0.42980 0.17650 -0.14200
H 	H 	0.63460 0.35140 0.12570 0.00800
H 	H 	0.68280 0.36370 0.20140 0.00500
H 	H 	0.62060 0.39720 0.38350 -0.01000
H 	H 	0.56500 0.32890 0.47660 0.04400
S 	S 	0.56878 0.44739 0.11831 0.00900
H 	H 	0.66400 0.44560 0.13760 0.05900
H 	H 	0.63490 0.44710 0.24160 0.05900
C 	C 	0.58880 0.43280 0.99700 -0.00800
C 	C 	0.62660 0.46530 0.94800 -0.00900
C 	C 	0.56810 0.38730 0.94860 -0.00700
S 	S 	0.66107 0.52250 0.99769 -0.09600
C 	C 	0.64590 0.45010 0.85590 0.01500
C 	C 	0.58750 0.37180 0.85700 0.01200
C 	C 	0.62900 0.40190 0.81020 -0.20100
H 	H 	0.67130 0.47330 0.82350 -0.00200
H 	H 	0.57250 0.34040 0.82590 0.00400
C 	C 	0.65270 0.38500 0.71270 0.59600
C 	C 	0.64200 0.32550 0.68750 -0.86900
C 	C 	0.62540 0.42060 0.63380 -0.86300
C 	C 	0.71450 0.39480 0.71180 -0.87100
H 	H 	0.66270 0.30180 0.73180 0.25500
H 	H 	0.65360 0.31850 0.62040 0.25400
H 	H 	0.60280 0.31770 0.69390 0.26100
H 	H 	0.58580 0.41450 0.63450 0.26500
H 	H 	0.64010 0.41060 0.56980 0.25900
H 	H 	0.63310 0.45930 0.64670 0.27000
H 	H 	0.72980 0.38170 0.65020 0.26000
H 	H 	0.73140 0.37490 0.76590 0.25900
H 	H 	0.72190 0.43400 0.71880 0.26600
N 	N 	0.08280 0.70160 0.49500 -0.16300
N 	N 	0.11080 0.84560 0.76610 -0.10100
C 	C 	0.06150 0.78710 0.84240 0.03900
C 	C 	0.14350 0.87000 0.68780 -0.01000
C 	C 	0.10550 0.86420 0.85860 0.04300
C 	C 	0.07490 0.82730 0.90990 -0.13600
H 	H 	0.03990 0.75570 0.85640 -0.01200
C 	C 	0.13380 0.92980 0.67650 -0.14200
H 	H 	0.13460 0.85140 0.62570 0.00800
H 	H 	0.18280 0.86370 0.70140 0.00500
H 	H 	0.12060 0.89720 0.88350 -0.01000
H 	H 	0.06500 0.82890 0.97660 0.04400
S 	S 	0.06878 0.94739 0.61831 0.00900
H 	H 	0.16400 0.94560 0.63760 0.05900
H 	H 	0.13490 0.94710 0.74160 0.05900
C 	C 	0.08880 0.93280 0.49700 -0.00800
C 	C 	0.12660 0.96530 0.44800 -0.00900
C 	C 	0.06810 0.88730 0.44860 -0.00800
S 	S 	0.16107 0.02250 0.49769 -0.09600
C 	C 	0.14590 0.95010 0.35590 0.01500
C 	C 	0.08750 0.87180 0.35700 0.01300
C 	C 	0.12900 0.90190 0.31020 -0.20100
H 	H 	0.17130 0.97330 0.32350 -0.00200
H 	H 	0.07250 0.84040 0.32590 0.00400
C 	C 	0.15270 0.88500 0.21270 0.59600
C 	C 	0.14200 0.82550 0.18750 -0.86900
C 	C 	0.12540 0.92060 0.13380 -0.86300
C 	C 	0.21450 0.89480 0.21180 -0.87100
H 	H 	0.16270 0.80180 0.23180 0.25500
H 	H 	0.15360 0.81850 0.12040 0.25400
H 	H 	0.10280 0.81770 0.19390 0.26100
H 	H 	0.08580 0.91450 0.13450 0.26500
H 	H 	0.14010 0.91060 0.06980 0.25900
H 	H 	0.13310 0.95930 0.14670 0.27000
H 	H 	0.22980 0.88170 0.15020 0.26000
H 	H 	0.23140 0.87490 0.26590 0.25900
H 	H 	0.22190 0.93400 0.21880 0.26600
Ag	Ag	0.25000 0.07813 0.37500 0.51400
Ag	Ag	0.75000 0.57813 0.87500 0.51400
Ag	Ag	0.75000 0.92187 0.37500 0.51400
Ag	Ag	0.25000 0.42187 0.87500 0.51400
Ag	Ag	0.07813 0.75000 0.62500 0.51400
Ag	Ag	0.92187 0.25000 0.62500 0.51400
Ag	Ag	0.42187 0.75000 0.12500 0.51400
Ag	Ag	0.57813 0.25000 0.12500 0.51400
