data_crystal

_cell_length_a 24.95800
_cell_length_b 24.95800
_cell_length_c 13.84960
_cell_angle_alpha 90.00000
_cell_angle_beta  90.00000
_cell_angle_gamma 90.00000

_symmetry_space_group_name_	'P 1'
_symmetry_space_group_name_H-M	'P 1'

loop_
_symmetry_equiv_pos_as_xyz
  x,y,z

loop_
_atom_site_label
_atom_site_type_symbol
_atom_site_fract_x
_atom_site_fract_y
_atom_site_fract_z
_atom_site_charge
S 	S 	0.34270 0.46965 0.49270 -0.10100
C 	C 	0.39370 0.42760 0.44720 0.00500
C 	C 	0.43760 0.40820 0.49800 -0.01800
C 	C 	0.47280 0.37250 0.45400 0.00000
C 	C 	0.46410 0.35630 0.35930 -0.00800
H 	H 	0.48810 0.33200 0.32930 0.01800
C 	C 	0.42010 0.37580 0.30850 -0.15800
C 	C 	0.38490 0.41140 0.35250 -0.01500
H 	H 	0.35490 0.42470 0.31770 0.01600
S 	S 	0.45034 0.42611 0.62300 0.00200
C 	C 	0.39280 0.39840 0.68540 -0.14500
H 	H 	0.38750 0.41800 0.74680 0.05700
H 	H 	0.36050 0.40360 0.64520 0.06300
C 	C 	0.39920 0.34110 0.70630 -0.00500
H 	H 	0.36450 0.32710 0.72970 0.01400
H 	H 	0.40760 0.32240 0.64500 0.00700
N 	N 	0.44000 0.32730 0.77610 -0.10600
N 	N 	0.47770 0.29010 0.76200 -0.16200
C 	C 	0.50540 0.28570 0.84050 0.06000
H 	H 	0.53570 0.26320 0.84920 -0.02000
C 	C 	0.48370 0.31940 0.91000 -0.15200
H 	H 	0.49540 0.32440 0.97470 0.04200
C 	C 	0.44160 0.34390 0.86450 0.06000
H 	H 	0.41760 0.36880 0.89300 -0.01500
C 	C 	0.41300 0.36350 0.19820 0.53600
C 	C 	0.42900 0.41160 0.13900 -0.84900
H 	H 	0.45580 0.40090 0.09110 0.25500
H 	H 	0.44420 0.43910 0.18150 0.26500
H 	H 	0.39740 0.42600 0.10600 0.25700
C 	C 	0.35300 0.34810 0.17990 -0.78000
H 	H 	0.35130 0.31830 0.13400 0.23000
H 	H 	0.33390 0.37910 0.15340 0.23300
H 	H 	0.33640 0.33740 0.24100 0.23700
C 	C 	0.44690 0.31540 0.16570 -0.80400
H 	H 	0.44180 0.28560 0.21090 0.24100
H 	H 	0.48480 0.32560 0.16450 0.24100
H 	H 	0.43570 0.30420 0.10090 0.23500
S 	S 	0.84270 0.96965 0.99270 -0.10000
C 	C 	0.89370 0.92760 0.94720 0.00600
C 	C 	0.93760 0.90820 0.99800 -0.01700
C 	C 	0.97280 0.87250 0.95400 0.00100
C 	C 	0.96410 0.85630 0.85930 -0.00800
H 	H 	0.98810 0.83200 0.82930 0.01800
C 	C 	0.92010 0.87580 0.80850 -0.15800
C 	C 	0.88490 0.91140 0.85250 -0.01500
H 	H 	0.85490 0.92470 0.81770 0.01600
S 	S 	0.95034 0.92611 0.12300 0.00200
C 	C 	0.89280 0.89840 0.18540 -0.14500
H 	H 	0.88750 0.91800 0.24680 0.05700
H 	H 	0.86050 0.90360 0.14520 0.06300
C 	C 	0.89920 0.84110 0.20630 -0.00500
H 	H 	0.86450 0.82710 0.22970 0.01400
H 	H 	0.90760 0.82240 0.14500 0.00700
N 	N 	0.94000 0.82730 0.27610 -0.10600
N 	N 	0.97770 0.79010 0.26200 -0.16200
C 	C 	0.00540 0.78570 0.34050 0.06000
H 	H 	0.03570 0.76320 0.34920 -0.02000
C 	C 	0.98370 0.81940 0.41000 -0.15200
H 	H 	0.99540 0.82440 0.47470 0.04200
C 	C 	0.94160 0.84390 0.36450 0.06000
H 	H 	0.91760 0.86880 0.39300 -0.01500
C 	C 	0.91300 0.86350 0.69820 0.53600
C 	C 	0.92900 0.91160 0.63900 -0.84900
H 	H 	0.95580 0.90090 0.59110 0.25500
H 	H 	0.94420 0.93910 0.68150 0.26500
H 	H 	0.89740 0.92600 0.60600 0.25700
C 	C 	0.85300 0.84810 0.67990 -0.78000
H 	H 	0.85130 0.81830 0.63400 0.23000
H 	H 	0.83390 0.87910 0.65340 0.23300
H 	H 	0.83640 0.83740 0.74100 0.23700
C 	C 	0.94690 0.81540 0.66570 -0.80400
H 	H 	0.94180 0.78560 0.71090 0.24100
H 	H 	0.98480 0.82560 0.66450 0.24100
H 	H 	0.93570 0.80420 0.60090 0.23500
S 	S 	0.65730 0.53035 0.49270 -0.10000
C 	C 	0.60630 0.57240 0.44720 0.00600
C 	C 	0.56240 0.59180 0.49800 -0.01700
C 	C 	0.52720 0.62750 0.45400 0.00100
C 	C 	0.53590 0.64370 0.35930 -0.00800
H 	H 	0.51190 0.66800 0.32930 0.01800
C 	C 	0.57990 0.62420 0.30850 -0.15800
C 	C 	0.61510 0.58860 0.35250 -0.01500
H 	H 	0.64510 0.57530 0.31770 0.01600
S 	S 	0.54966 0.57389 0.62300 0.00200
C 	C 	0.60720 0.60160 0.68540 -0.14500
H 	H 	0.61250 0.58200 0.74680 0.05700
H 	H 	0.63950 0.59640 0.64520 0.06300
C 	C 	0.60080 0.65890 0.70630 -0.00500
H 	H 	0.63550 0.67290 0.72970 0.01400
H 	H 	0.59240 0.67760 0.64500 0.00700
N 	N 	0.56000 0.67270 0.77610 -0.10600
N 	N 	0.52230 0.70990 0.76200 -0.16200
C 	C 	0.49460 0.71430 0.84050 0.06000
H 	H 	0.46430 0.73680 0.84920 -0.02000
C 	C 	0.51630 0.68060 0.91000 -0.15200
H 	H 	0.50460 0.67560 0.97470 0.04200
C 	C 	0.55840 0.65610 0.86450 0.06000
H 	H 	0.58240 0.63120 0.89300 -0.01500
C 	C 	0.58700 0.63650 0.19820 0.53600
C 	C 	0.57100 0.58840 0.13900 -0.84900
H 	H 	0.54420 0.59910 0.09110 0.25500
H 	H 	0.55580 0.56090 0.18150 0.26500
H 	H 	0.60260 0.57400 0.10600 0.25700
C 	C 	0.64700 0.65190 0.17990 -0.78000
H 	H 	0.64870 0.68170 0.13400 0.23000
H 	H 	0.66610 0.62090 0.15340 0.23300
H 	H 	0.66360 0.66260 0.24100 0.23700
C 	C 	0.55310 0.68460 0.16570 -0.80400
H 	H 	0.55820 0.71440 0.21090 0.24100
H 	H 	0.51520 0.67440 0.16450 0.24100
H 	H 	0.56430 0.69580 0.10090 0.23500
S 	S 	0.15730 0.03035 0.99270 -0.10000
C 	C 	0.10630 0.07240 0.94720 0.00600
C 	C 	0.06240 0.09180 0.99800 -0.01700
C 	C 	0.02720 0.12750 0.95400 0.00100
C 	C 	0.03590 0.14370 0.85930 -0.00800
H 	H 	0.01190 0.16800 0.82930 0.01800
C 	C 	0.07990 0.12420 0.80850 -0.15800
C 	C 	0.11510 0.08860 0.85250 -0.01500
H 	H 	0.14510 0.07530 0.81770 0.01600
S 	S 	0.04966 0.07389 0.12300 0.00200
C 	C 	0.10720 0.10160 0.18540 -0.14500
H 	H 	0.11250 0.08200 0.24680 0.05700
H 	H 	0.13950 0.09640 0.14520 0.06300
C 	C 	0.10080 0.15890 0.20630 -0.00500
H 	H 	0.13550 0.17290 0.22970 0.01400
H 	H 	0.09240 0.17760 0.14500 0.00700
N 	N 	0.06000 0.17270 0.27610 -0.10600
N 	N 	0.02230 0.20990 0.26200 -0.16200
C 	C 	0.99460 0.21430 0.34050 0.06000
H 	H 	0.96430 0.23680 0.34920 -0.02000
C 	C 	0.01630 0.18060 0.41000 -0.15200
H 	H 	0.00460 0.17560 0.47470 0.04200
C 	C 	0.05840 0.15610 0.36450 0.06000
H 	H 	0.08240 0.13120 0.39300 -0.01500
C 	C 	0.08700 0.13650 0.69820 0.53600
C 	C 	0.07100 0.08840 0.63900 -0.84900
H 	H 	0.04420 0.09910 0.59110 0.25500
H 	H 	0.05580 0.06090 0.68150 0.26500
H 	H 	0.10260 0.07400 0.60600 0.25700
C 	C 	0.14700 0.15190 0.67990 -0.78000
H 	H 	0.14870 0.18170 0.63400 0.23000
H 	H 	0.16610 0.12090 0.65340 0.23300
H 	H 	0.16360 0.16260 0.74100 0.23700
C 	C 	0.05310 0.18460 0.66570 -0.80400
H 	H 	0.05820 0.21440 0.71090 0.24100
H 	H 	0.01520 0.17440 0.66450 0.24100
H 	H 	0.06430 0.19580 0.60090 0.23500
S 	S 	0.46965 0.65730 0.50730 -0.10000
C 	C 	0.42760 0.60630 0.55280 0.00600
C 	C 	0.40820 0.56240 0.50200 -0.01700
C 	C 	0.37250 0.52720 0.54600 0.00100
C 	C 	0.35630 0.53590 0.64070 -0.00800
H 	H 	0.33200 0.51190 0.67070 0.01800
C 	C 	0.37580 0.57990 0.69150 -0.15800
C 	C 	0.41140 0.61510 0.64750 -0.01500
H 	H 	0.42470 0.64510 0.68230 0.01600
S 	S 	0.42611 0.54966 0.37700 0.00200
C 	C 	0.39840 0.60720 0.31460 -0.14500
H 	H 	0.41800 0.61250 0.25320 0.05700
H 	H 	0.40360 0.63950 0.35480 0.06300
C 	C 	0.34110 0.60080 0.29370 -0.00500
H 	H 	0.32710 0.63550 0.27030 0.01400
H 	H 	0.32240 0.59240 0.35500 0.00700
N 	N 	0.32730 0.56000 0.22390 -0.10600
N 	N 	0.29010 0.52230 0.23800 -0.16200
C 	C 	0.28570 0.49460 0.15950 0.06000
H 	H 	0.26320 0.46430 0.15080 -0.02000
C 	C 	0.31940 0.51630 0.09000 -0.15200
H 	H 	0.32440 0.50460 0.02530 0.04200
C 	C 	0.34390 0.55840 0.13550 0.06000
H 	H 	0.36880 0.58240 0.10700 -0.01500
C 	C 	0.36350 0.58700 0.80180 0.53600
C 	C 	0.41160 0.57100 0.86100 -0.84900
H 	H 	0.40090 0.54420 0.90890 0.25500
H 	H 	0.43910 0.55580 0.81850 0.26500
H 	H 	0.42600 0.60260 0.89400 0.25700
C 	C 	0.34810 0.64700 0.82010 -0.78000
H 	H 	0.31830 0.64870 0.86600 0.23000
H 	H 	0.37910 0.66610 0.84660 0.23300
H 	H 	0.33740 0.66360 0.75900 0.23700
C 	C 	0.31540 0.55310 0.83430 -0.80400
H 	H 	0.28560 0.55820 0.78910 0.24100
H 	H 	0.32560 0.51520 0.83550 0.24100
H 	H 	0.30420 0.56430 0.89910 0.23500
S 	S 	0.96965 0.15730 0.00730 -0.10000
C 	C 	0.92760 0.10630 0.05280 0.00600
C 	C 	0.90820 0.06240 0.00200 -0.01700
C 	C 	0.87250 0.02720 0.04600 0.00100
C 	C 	0.85630 0.03590 0.14070 -0.00800
H 	H 	0.83200 0.01190 0.17070 0.01800
C 	C 	0.87580 0.07990 0.19150 -0.15800
C 	C 	0.91140 0.11510 0.14750 -0.01500
H 	H 	0.92470 0.14510 0.18230 0.01600
S 	S 	0.92611 0.04966 0.87700 0.00200
C 	C 	0.89840 0.10720 0.81460 -0.14500
H 	H 	0.91800 0.11250 0.75320 0.05700
H 	H 	0.90360 0.13950 0.85480 0.06300
C 	C 	0.84110 0.10080 0.79370 -0.00500
H 	H 	0.82710 0.13550 0.77030 0.01400
H 	H 	0.82240 0.09240 0.85500 0.00700
N 	N 	0.82730 0.06000 0.72390 -0.10600
N 	N 	0.79010 0.02230 0.73800 -0.16200
C 	C 	0.78570 0.99460 0.65950 0.06000
H 	H 	0.76320 0.96430 0.65080 -0.02000
C 	C 	0.81940 0.01630 0.59000 -0.15200
H 	H 	0.82440 0.00460 0.52530 0.04200
C 	C 	0.84390 0.05840 0.63550 0.06000
H 	H 	0.86880 0.08240 0.60700 -0.01500
C 	C 	0.86350 0.08700 0.30180 0.53600
C 	C 	0.91160 0.07100 0.36100 -0.84900
H 	H 	0.90090 0.04420 0.40890 0.25500
H 	H 	0.93910 0.05580 0.31850 0.26500
H 	H 	0.92600 0.10260 0.39400 0.25700
C 	C 	0.84810 0.14700 0.32010 -0.78000
H 	H 	0.81830 0.14870 0.36600 0.23000
H 	H 	0.87910 0.16610 0.34660 0.23300
H 	H 	0.83740 0.16360 0.25900 0.23700
C 	C 	0.81540 0.05310 0.33430 -0.80400
H 	H 	0.78560 0.05820 0.28910 0.24100
H 	H 	0.82560 0.01520 0.33550 0.24100
H 	H 	0.80420 0.06430 0.39910 0.23500
S 	S 	0.53035 0.34270 0.50730 -0.10000
C 	C 	0.57240 0.39370 0.55280 0.00600
C 	C 	0.59180 0.43760 0.50200 -0.01700
C 	C 	0.62750 0.47280 0.54600 0.00100
C 	C 	0.64370 0.46410 0.64070 -0.00800
H 	H 	0.66800 0.48810 0.67070 0.01800
C 	C 	0.62420 0.42010 0.69150 -0.15800
C 	C 	0.58860 0.38490 0.64750 -0.01500
H 	H 	0.57530 0.35490 0.68230 0.01600
S 	S 	0.57389 0.45034 0.37700 0.00200
C 	C 	0.60160 0.39280 0.31460 -0.14500
H 	H 	0.58200 0.38750 0.25320 0.05700
H 	H 	0.59640 0.36050 0.35480 0.06300
C 	C 	0.65890 0.39920 0.29370 -0.00500
H 	H 	0.67290 0.36450 0.27030 0.01400
H 	H 	0.67760 0.40760 0.35500 0.00700
N 	N 	0.67270 0.44000 0.22390 -0.10600
N 	N 	0.70990 0.47770 0.23800 -0.16200
C 	C 	0.71430 0.50540 0.15950 0.06000
H 	H 	0.73680 0.53570 0.15080 -0.02000
C 	C 	0.68060 0.48370 0.09000 -0.15200
H 	H 	0.67560 0.49540 0.02530 0.04200
C 	C 	0.65610 0.44160 0.13550 0.06000
H 	H 	0.63120 0.41760 0.10700 -0.01500
C 	C 	0.63650 0.41300 0.80180 0.53600
C 	C 	0.58840 0.42900 0.86100 -0.84900
H 	H 	0.59910 0.45580 0.90890 0.25500
H 	H 	0.56090 0.44420 0.81850 0.26500
H 	H 	0.57400 0.39740 0.89400 0.25700
C 	C 	0.65190 0.35300 0.82010 -0.78000
H 	H 	0.68170 0.35130 0.86600 0.23000
H 	H 	0.62090 0.33390 0.84660 0.23300
H 	H 	0.66260 0.33640 0.75900 0.23700
C 	C 	0.68460 0.44690 0.83430 -0.80400
H 	H 	0.71440 0.44180 0.78910 0.24100
H 	H 	0.67440 0.48480 0.83550 0.24100
H 	H 	0.69580 0.43570 0.89910 0.23500
S 	S 	0.03035 0.84270 0.00730 -0.10000
C 	C 	0.07240 0.89370 0.05280 0.00600
C 	C 	0.09180 0.93760 0.00200 -0.01700
C 	C 	0.12750 0.97280 0.04600 0.00100
C 	C 	0.14370 0.96410 0.14070 -0.00800
H 	H 	0.16800 0.98810 0.17070 0.01800
C 	C 	0.12420 0.92010 0.19150 -0.15800
C 	C 	0.08860 0.88490 0.14750 -0.01500
H 	H 	0.07530 0.85490 0.18230 0.01600
S 	S 	0.07389 0.95034 0.87700 0.00200
C 	C 	0.10160 0.89280 0.81460 -0.14500
H 	H 	0.08200 0.88750 0.75320 0.05700
H 	H 	0.09640 0.86050 0.85480 0.06300
C 	C 	0.15890 0.89920 0.79370 -0.00500
H 	H 	0.17290 0.86450 0.77030 0.01400
H 	H 	0.17760 0.90760 0.85500 0.00700
N 	N 	0.17270 0.94000 0.72390 -0.10600
N 	N 	0.20990 0.97770 0.73800 -0.16200
C 	C 	0.21430 0.00540 0.65950 0.06000
H 	H 	0.23680 0.03570 0.65080 -0.02000
C 	C 	0.18060 0.98370 0.59000 -0.15200
H 	H 	0.17560 0.99540 0.52530 0.04200
C 	C 	0.15610 0.94160 0.63550 0.06000
H 	H 	0.13120 0.91760 0.60700 -0.01500
C 	C 	0.13650 0.91300 0.30180 0.53600
C 	C 	0.08840 0.92900 0.36100 -0.84900
H 	H 	0.09910 0.95580 0.40890 0.25500
H 	H 	0.06090 0.94420 0.31850 0.26500
H 	H 	0.07400 0.89740 0.39400 0.25700
C 	C 	0.15190 0.85300 0.32010 -0.78000
H 	H 	0.18170 0.85130 0.36600 0.23000
H 	H 	0.12090 0.83390 0.34660 0.23300
H 	H 	0.16260 0.83640 0.25900 0.23700
C 	C 	0.18460 0.94690 0.33430 -0.80400
H 	H 	0.21440 0.94180 0.28910 0.24100
H 	H 	0.17440 0.98480 0.33550 0.24100
H 	H 	0.19580 0.93570 0.39910 0.23500
S 	S 	0.15730 0.46965 0.25730 -0.10000
C 	C 	0.10630 0.42760 0.30280 0.00600
C 	C 	0.06240 0.40820 0.25200 -0.01700
C 	C 	0.02720 0.37250 0.29600 0.00100
C 	C 	0.03590 0.35630 0.39070 -0.00800
H 	H 	0.01190 0.33200 0.42070 0.01800
C 	C 	0.07990 0.37580 0.44150 -0.15800
C 	C 	0.11510 0.41140 0.39750 -0.01500
H 	H 	0.14510 0.42470 0.43230 0.01600
S 	S 	0.04966 0.42611 0.12700 0.00200
C 	C 	0.10720 0.39840 0.06460 -0.14500
H 	H 	0.11250 0.41800 0.00320 0.05700
H 	H 	0.13950 0.40360 0.10480 0.06300
C 	C 	0.10080 0.34110 0.04370 -0.00500
H 	H 	0.13550 0.32710 0.02030 0.01400
H 	H 	0.09240 0.32240 0.10500 0.00700
N 	N 	0.06000 0.32730 0.97390 -0.10600
N 	N 	0.02230 0.29010 0.98800 -0.16200
C 	C 	0.99460 0.28570 0.90950 0.06000
H 	H 	0.96430 0.26320 0.90080 -0.02000
C 	C 	0.01630 0.31940 0.84000 -0.15200
H 	H 	0.00460 0.32440 0.77530 0.04200
C 	C 	0.05840 0.34390 0.88550 0.06000
H 	H 	0.08240 0.36880 0.85700 -0.01500
C 	C 	0.08700 0.36350 0.55180 0.53600
C 	C 	0.07100 0.41160 0.61100 -0.84900
H 	H 	0.04420 0.40090 0.65890 0.25500
H 	H 	0.05580 0.43910 0.56850 0.26500
H 	H 	0.10260 0.42600 0.64400 0.25700
C 	C 	0.14700 0.34810 0.57010 -0.78000
H 	H 	0.14870 0.31830 0.61600 0.23000
H 	H 	0.16610 0.37910 0.59660 0.23300
H 	H 	0.16360 0.33740 0.50900 0.23700
C 	C 	0.05310 0.31540 0.58430 -0.80400
H 	H 	0.05820 0.28560 0.53910 0.24100
H 	H 	0.01520 0.32560 0.58550 0.24100
H 	H 	0.06430 0.30420 0.64910 0.23500
S 	S 	0.65730 0.96965 0.75730 -0.10000
C 	C 	0.60630 0.92760 0.80280 0.00600
C 	C 	0.56240 0.90820 0.75200 -0.01700
C 	C 	0.52720 0.87250 0.79600 0.00100
C 	C 	0.53590 0.85630 0.89070 -0.00800
H 	H 	0.51190 0.83200 0.92070 0.01800
C 	C 	0.57990 0.87580 0.94150 -0.15800
C 	C 	0.61510 0.91140 0.89750 -0.01500
H 	H 	0.64510 0.92470 0.93230 0.01600
S 	S 	0.54966 0.92611 0.62700 0.00200
C 	C 	0.60720 0.89840 0.56460 -0.14500
H 	H 	0.61250 0.91800 0.50320 0.05700
H 	H 	0.63950 0.90360 0.60480 0.06300
C 	C 	0.60080 0.84110 0.54370 -0.00500
H 	H 	0.63550 0.82710 0.52030 0.01400
H 	H 	0.59240 0.82240 0.60500 0.00700
N 	N 	0.56000 0.82730 0.47390 -0.10600
N 	N 	0.52230 0.79010 0.48800 -0.16200
C 	C 	0.49460 0.78570 0.40950 0.06000
H 	H 	0.46430 0.76320 0.40080 -0.02000
C 	C 	0.51630 0.81940 0.34000 -0.15200
H 	H 	0.50460 0.82440 0.27530 0.04200
C 	C 	0.55840 0.84390 0.38550 0.06000
H 	H 	0.58240 0.86880 0.35700 -0.01500
C 	C 	0.58700 0.86350 0.05180 0.53500
C 	C 	0.57100 0.91160 0.11100 -0.84900
H 	H 	0.54420 0.90090 0.15890 0.25500
H 	H 	0.55580 0.93910 0.06850 0.26500
H 	H 	0.60260 0.92600 0.14400 0.25700
C 	C 	0.64700 0.84810 0.07010 -0.78000
H 	H 	0.64870 0.81830 0.11600 0.23000
H 	H 	0.66610 0.87910 0.09660 0.23300
H 	H 	0.66360 0.83740 0.00900 0.23700
C 	C 	0.55310 0.81540 0.08430 -0.80400
H 	H 	0.55820 0.78560 0.03910 0.24100
H 	H 	0.51520 0.82560 0.08550 0.24100
H 	H 	0.56430 0.80420 0.14910 0.23500
S 	S 	0.84270 0.53035 0.25730 -0.10000
C 	C 	0.89370 0.57240 0.30280 0.00600
C 	C 	0.93760 0.59180 0.25200 -0.01700
C 	C 	0.97280 0.62750 0.29600 0.00100
C 	C 	0.96410 0.64370 0.39070 -0.00800
H 	H 	0.98810 0.66800 0.42070 0.01800
C 	C 	0.92010 0.62420 0.44150 -0.15800
C 	C 	0.88490 0.58860 0.39750 -0.01500
H 	H 	0.85490 0.57530 0.43230 0.01600
S 	S 	0.95034 0.57389 0.12700 0.00200
C 	C 	0.89280 0.60160 0.06460 -0.14500
H 	H 	0.88750 0.58200 0.00320 0.05700
H 	H 	0.86050 0.59640 0.10480 0.06300
C 	C 	0.89920 0.65890 0.04370 -0.00500
H 	H 	0.86450 0.67290 0.02030 0.01400
H 	H 	0.90760 0.67760 0.10500 0.00700
N 	N 	0.94000 0.67270 0.97390 -0.10600
N 	N 	0.97770 0.70990 0.98800 -0.16200
C 	C 	0.00540 0.71430 0.90950 0.06000
H 	H 	0.03570 0.73680 0.90080 -0.02000
C 	C 	0.98370 0.68060 0.84000 -0.15200
H 	H 	0.99540 0.67560 0.77530 0.04200
C 	C 	0.94160 0.65610 0.88550 0.06000
H 	H 	0.91760 0.63120 0.85700 -0.01500
C 	C 	0.91300 0.63650 0.55180 0.53600
C 	C 	0.92900 0.58840 0.61100 -0.84900
H 	H 	0.95580 0.59910 0.65890 0.25500
H 	H 	0.94420 0.56090 0.56850 0.26500
H 	H 	0.89740 0.57400 0.64400 0.25700
C 	C 	0.85300 0.65190 0.57010 -0.78000
H 	H 	0.85130 0.68170 0.61600 0.23000
H 	H 	0.83390 0.62090 0.59660 0.23300
H 	H 	0.83640 0.66260 0.50900 0.23700
C 	C 	0.94690 0.68460 0.58430 -0.80400
H 	H 	0.94180 0.71440 0.53910 0.24100
H 	H 	0.98480 0.67440 0.58550 0.24100
H 	H 	0.93570 0.69580 0.64910 0.23500
S 	S 	0.34270 0.03035 0.75730 -0.10000
C 	C 	0.39370 0.07240 0.80280 0.00600
C 	C 	0.43760 0.09180 0.75200 -0.01700
C 	C 	0.47280 0.12750 0.79600 0.00100
C 	C 	0.46410 0.14370 0.89070 -0.00800
H 	H 	0.48810 0.16800 0.92070 0.01800
C 	C 	0.42010 0.12420 0.94150 -0.15800
C 	C 	0.38490 0.08860 0.89750 -0.01500
H 	H 	0.35490 0.07530 0.93230 0.01600
S 	S 	0.45034 0.07389 0.62700 0.00200
C 	C 	0.39280 0.10160 0.56460 -0.14500
H 	H 	0.38750 0.08200 0.50320 0.05700
H 	H 	0.36050 0.09640 0.60480 0.06300
C 	C 	0.39920 0.15890 0.54370 -0.00500
H 	H 	0.36450 0.17290 0.52030 0.01400
H 	H 	0.40760 0.17760 0.60500 0.00700
N 	N 	0.44000 0.17270 0.47390 -0.10600
N 	N 	0.47770 0.20990 0.48800 -0.16200
C 	C 	0.50540 0.21430 0.40950 0.06000
H 	H 	0.53570 0.23680 0.40080 -0.02000
C 	C 	0.48370 0.18060 0.34000 -0.15200
H 	H 	0.49540 0.17560 0.27530 0.04200
C 	C 	0.44160 0.15610 0.38550 0.06000
H 	H 	0.41760 0.13120 0.35700 -0.01500
C 	C 	0.41300 0.13650 0.05180 0.53500
C 	C 	0.42900 0.08840 0.11100 -0.84900
H 	H 	0.45580 0.09910 0.15890 0.25500
H 	H 	0.44420 0.06090 0.06850 0.26500
H 	H 	0.39740 0.07400 0.14400 0.25700
C 	C 	0.35300 0.15190 0.07010 -0.78000
H 	H 	0.35130 0.18170 0.11600 0.23000
H 	H 	0.33390 0.12090 0.09660 0.23300
H 	H 	0.33640 0.16260 0.00900 0.23700
C 	C 	0.44690 0.18460 0.08430 -0.80400
H 	H 	0.44180 0.21440 0.03910 0.24100
H 	H 	0.48480 0.17440 0.08550 0.24100
H 	H 	0.43570 0.19580 0.14910 0.23500
S 	S 	0.03035 0.65730 0.24270 -0.10000
C 	C 	0.07240 0.60630 0.19720 0.00600
C 	C 	0.09180 0.56240 0.24800 -0.01700
C 	C 	0.12750 0.52720 0.20400 0.00100
C 	C 	0.14370 0.53590 0.10930 -0.00800
H 	H 	0.16800 0.51190 0.07930 0.01800
C 	C 	0.12420 0.57990 0.05850 -0.15800
C 	C 	0.08860 0.61510 0.10250 -0.01500
H 	H 	0.07530 0.64510 0.06770 0.01600
S 	S 	0.07389 0.54966 0.37300 0.00200
C 	C 	0.10160 0.60720 0.43540 -0.14500
H 	H 	0.08200 0.61250 0.49680 0.05700
H 	H 	0.09640 0.63950 0.39520 0.06300
C 	C 	0.15890 0.60080 0.45630 -0.00500
H 	H 	0.17290 0.63550 0.47970 0.01400
H 	H 	0.17760 0.59240 0.39500 0.00700
N 	N 	0.17270 0.56000 0.52610 -0.10600
N 	N 	0.20990 0.52230 0.51200 -0.16200
C 	C 	0.21430 0.49460 0.59050 0.06000
H 	H 	0.23680 0.46430 0.59920 -0.02000
C 	C 	0.18060 0.51630 0.66000 -0.15200
H 	H 	0.17560 0.50460 0.72470 0.04200
C 	C 	0.15610 0.55840 0.61450 0.06000
H 	H 	0.13120 0.58240 0.64300 -0.01500
C 	C 	0.13650 0.58700 0.94820 0.53500
C 	C 	0.08840 0.57100 0.88900 -0.84900
H 	H 	0.09910 0.54420 0.84110 0.25500
H 	H 	0.06090 0.55580 0.93150 0.26500
H 	H 	0.07400 0.60260 0.85600 0.25700
C 	C 	0.15190 0.64700 0.92990 -0.78000
H 	H 	0.18170 0.64870 0.88400 0.23000
H 	H 	0.12090 0.66610 0.90340 0.23300
H 	H 	0.16260 0.66360 0.99100 0.23700
C 	C 	0.18460 0.55310 0.91570 -0.80400
H 	H 	0.21440 0.55820 0.96090 0.24100
H 	H 	0.17440 0.51520 0.91450 0.24100
H 	H 	0.19580 0.56430 0.85090 0.23500
S 	S 	0.53035 0.15730 0.74270 -0.10000
C 	C 	0.57240 0.10630 0.69720 0.00600
C 	C 	0.59180 0.06240 0.74800 -0.01700
C 	C 	0.62750 0.02720 0.70400 0.00100
C 	C 	0.64370 0.03590 0.60930 -0.00800
H 	H 	0.66800 0.01190 0.57930 0.01800
C 	C 	0.62420 0.07990 0.55850 -0.15800
C 	C 	0.58860 0.11510 0.60250 -0.01500
H 	H 	0.57530 0.14510 0.56770 0.01600
S 	S 	0.57389 0.04966 0.87300 0.00200
C 	C 	0.60160 0.10720 0.93540 -0.14500
H 	H 	0.58200 0.11250 0.99680 0.05700
H 	H 	0.59640 0.13950 0.89520 0.06300
C 	C 	0.65890 0.10080 0.95630 -0.00500
H 	H 	0.67290 0.13550 0.97970 0.01400
H 	H 	0.67760 0.09240 0.89500 0.00700
N 	N 	0.67270 0.06000 0.02610 -0.10600
N 	N 	0.70990 0.02230 0.01200 -0.16200
C 	C 	0.71430 0.99460 0.09050 0.06000
H 	H 	0.73680 0.96430 0.09920 -0.02000
C 	C 	0.68060 0.01630 0.16000 -0.15200
H 	H 	0.67560 0.00460 0.22470 0.04200
C 	C 	0.65610 0.05840 0.11450 0.06000
H 	H 	0.63120 0.08240 0.14300 -0.01500
C 	C 	0.63650 0.08700 0.44820 0.53600
C 	C 	0.58840 0.07100 0.38900 -0.84900
H 	H 	0.59910 0.04420 0.34110 0.25500
H 	H 	0.56090 0.05580 0.43150 0.26500
H 	H 	0.57400 0.10260 0.35600 0.25700
C 	C 	0.65190 0.14700 0.42990 -0.78000
H 	H 	0.68170 0.14870 0.38400 0.23000
H 	H 	0.62090 0.16610 0.40340 0.23300
H 	H 	0.66260 0.16360 0.49100 0.23700
C 	C 	0.68460 0.05310 0.41570 -0.80400
H 	H 	0.71440 0.05820 0.46090 0.24100
H 	H 	0.67440 0.01520 0.41450 0.24100
H 	H 	0.69580 0.06430 0.35090 0.23500
S 	S 	0.96965 0.34270 0.24270 -0.10000
C 	C 	0.92760 0.39370 0.19720 0.00600
C 	C 	0.90820 0.43760 0.24800 -0.01700
C 	C 	0.87250 0.47280 0.20400 0.00100
C 	C 	0.85630 0.46410 0.10930 -0.00800
H 	H 	0.83200 0.48810 0.07930 0.01800
C 	C 	0.87580 0.42010 0.05850 -0.15800
C 	C 	0.91140 0.38490 0.10250 -0.01500
H 	H 	0.92470 0.35490 0.06770 0.01600
S 	S 	0.92611 0.45034 0.37300 0.00200
C 	C 	0.89840 0.39280 0.43540 -0.14500
H 	H 	0.91800 0.38750 0.49680 0.05700
H 	H 	0.90360 0.36050 0.39520 0.06300
C 	C 	0.84110 0.39920 0.45630 -0.00500
H 	H 	0.82710 0.36450 0.47970 0.01400
H 	H 	0.82240 0.40760 0.39500 0.00700
N 	N 	0.82730 0.44000 0.52610 -0.10600
N 	N 	0.79010 0.47770 0.51200 -0.16200
C 	C 	0.78570 0.50540 0.59050 0.06000
H 	H 	0.76320 0.53570 0.59920 -0.02000
C 	C 	0.81940 0.48370 0.66000 -0.15200
H 	H 	0.82440 0.49540 0.72470 0.04200
C 	C 	0.84390 0.44160 0.61450 0.06000
H 	H 	0.86880 0.41760 0.64300 -0.01500
C 	C 	0.86350 0.41300 0.94820 0.53500
C 	C 	0.91160 0.42900 0.88900 -0.84900
H 	H 	0.90090 0.45580 0.84110 0.25500
H 	H 	0.93910 0.44420 0.93150 0.26500
H 	H 	0.92600 0.39740 0.85600 0.25700
C 	C 	0.84810 0.35300 0.92990 -0.78000
H 	H 	0.81830 0.35130 0.88400 0.23000
H 	H 	0.87910 0.33390 0.90340 0.23300
H 	H 	0.83740 0.33640 0.99100 0.23700
C 	C 	0.81540 0.44690 0.91570 -0.80400
H 	H 	0.78560 0.44180 0.96090 0.24100
H 	H 	0.82560 0.48480 0.91450 0.24100
H 	H 	0.80420 0.43570 0.85090 0.23500
S 	S 	0.46965 0.84270 0.74270 -0.10000
C 	C 	0.42760 0.89370 0.69720 0.00600
C 	C 	0.40820 0.93760 0.74800 -0.01700
C 	C 	0.37250 0.97280 0.70400 0.00100
C 	C 	0.35630 0.96410 0.60930 -0.00800
H 	H 	0.33200 0.98810 0.57930 0.01800
C 	C 	0.37580 0.92010 0.55850 -0.15800
C 	C 	0.41140 0.88490 0.60250 -0.01500
H 	H 	0.42470 0.85490 0.56770 0.01600
S 	S 	0.42611 0.95034 0.87300 0.00200
C 	C 	0.39840 0.89280 0.93540 -0.14500
H 	H 	0.41800 0.88750 0.99680 0.05700
H 	H 	0.40360 0.86050 0.89520 0.06300
C 	C 	0.34110 0.89920 0.95630 -0.00500
H 	H 	0.32710 0.86450 0.97970 0.01400
H 	H 	0.32240 0.90760 0.89500 0.00700
N 	N 	0.32730 0.94000 0.02610 -0.10600
N 	N 	0.29010 0.97770 0.01200 -0.16200
C 	C 	0.28570 0.00540 0.09050 0.06000
H 	H 	0.26320 0.03570 0.09920 -0.02000
C 	C 	0.31940 0.98370 0.16000 -0.15200
H 	H 	0.32440 0.99540 0.22470 0.04200
C 	C 	0.34390 0.94160 0.11450 0.06000
H 	H 	0.36880 0.91760 0.14300 -0.01500
C 	C 	0.36350 0.91300 0.44820 0.53600
C 	C 	0.41160 0.92900 0.38900 -0.84900
H 	H 	0.40090 0.95580 0.34110 0.25500
H 	H 	0.43910 0.94420 0.43150 0.26500
H 	H 	0.42600 0.89740 0.35600 0.25700
C 	C 	0.34810 0.85300 0.42990 -0.78000
H 	H 	0.31830 0.85130 0.38400 0.23000
H 	H 	0.37910 0.83390 0.40340 0.23300
H 	H 	0.33740 0.83640 0.49100 0.23700
C 	C 	0.31540 0.94690 0.41570 -0.80400
H 	H 	0.28560 0.94180 0.46090 0.24100
H 	H 	0.32560 0.98480 0.41450 0.24100
H 	H 	0.30420 0.93570 0.35090 0.23500
Ag	Ag	0.48877 0.25000 0.62500 0.52100
Ag	Ag	0.51123 0.75000 0.62500 0.52100
Ag	Ag	0.25000 0.51123 0.37500 0.52100
Ag	Ag	0.75000 0.01123 0.87500 0.52100
Ag	Ag	0.75000 0.48877 0.37500 0.52100
Ag	Ag	0.25000 0.98877 0.87500 0.52100
Ag	Ag	0.01123 0.25000 0.12500 0.52100
Ag	Ag	0.98877 0.75000 0.12500 0.52100
