data_crystal

_cell_length_a 18.46500
_cell_length_b 9.36700
_cell_length_c 10.05900
_cell_angle_alpha 90.00000
_cell_angle_beta  90.00000
_cell_angle_gamma 90.00000

_symmetry_space_group_name_	'P 1'
_symmetry_space_group_name_H-M	'P 1'

loop_
_symmetry_equiv_pos_as_xyz
  x,y,z

loop_
_atom_site_label
_atom_site_type_symbol
_atom_site_fract_x
_atom_site_fract_y
_atom_site_fract_z
_atom_site_charge
Ru	Ru	0.48476 0.05878 0.59411 0.94300
C 	C 	0.52890 0.76710 0.64320 0.48800
C 	C 	0.63720 0.08190 0.52860 0.52900
O 	O 	0.53590 0.76460 0.51570 -0.54200
O 	O 	0.50510 0.88070 0.70350 -0.51500
O 	O 	0.54630 0.65770 0.70850 -0.47700
O 	O 	0.61920 0.00200 0.43010 -0.50600
O 	O 	0.58840 0.11840 0.61710 -0.56000
O 	O 	0.70220 0.12140 0.54280 -0.68300
K 	K 	0.42920 0.50250 0.55480 0.60300
Ru	Ru	0.01524 0.44122 0.59411 0.94400
C 	C 	0.97110 0.73290 0.64320 0.48900
C 	C 	0.86280 0.41810 0.52860 0.52900
O 	O 	0.96410 0.73540 0.51570 -0.54100
O 	O 	0.99490 0.61930 0.70350 -0.51500
O 	O 	0.95370 0.84230 0.70850 -0.47900
O 	O 	0.88080 0.49800 0.43010 -0.50600
O 	O 	0.91160 0.38160 0.61710 -0.56100
O 	O 	0.79780 0.37860 0.54280 -0.68300
K 	K 	0.07080 0.99750 0.55480 0.60300
Ru	Ru	0.51524 0.55878 0.90589 0.94300
C 	C 	0.47110 0.26710 0.85680 0.48800
C 	C 	0.36280 0.58190 0.97140 0.53100
O 	O 	0.46410 0.26460 0.98430 -0.54000
O 	O 	0.49490 0.38070 0.79650 -0.51300
O 	O 	0.45370 0.15770 0.79150 -0.47600
O 	O 	0.38080 0.50200 0.06990 -0.50800
O 	O 	0.41160 0.61840 0.88290 -0.56100
O 	O 	0.29780 0.62140 0.95720 -0.68300
K 	K 	0.57080 0.00250 0.94520 0.60400
Ru	Ru	0.98476 0.94122 0.90589 0.93700
C 	C 	0.02890 0.23290 0.85680 0.48800
C 	C 	0.13720 0.91810 0.97140 0.52900
O 	O 	0.03590 0.23540 0.98430 -0.53600
O 	O 	0.00510 0.11930 0.79650 -0.50900
O 	O 	0.04630 0.34230 0.79150 -0.47600
O 	O 	0.11920 0.99800 0.06990 -0.50600
O 	O 	0.08840 0.88160 0.88290 -0.55900
O 	O 	0.20220 0.87860 0.95720 -0.68300
K 	K 	0.92920 0.49750 0.94520 0.60200
Ru	Ru	0.51524 0.94122 0.40589 0.94400
C 	C 	0.47110 0.23290 0.35680 0.48900
C 	C 	0.36280 0.91810 0.47140 0.53000
O 	O 	0.46410 0.23540 0.48430 -0.54100
O 	O 	0.49490 0.11930 0.29650 -0.51500
O 	O 	0.45370 0.34230 0.29150 -0.47700
O 	O 	0.38080 0.99800 0.56990 -0.50600
O 	O 	0.41160 0.88160 0.38290 -0.56000
O 	O 	0.29780 0.87860 0.45720 -0.68300
K 	K 	0.57080 0.49750 0.44520 0.60300
Ru	Ru	0.98476 0.55878 0.40589 0.94400
C 	C 	0.02890 0.26710 0.35680 0.48900
C 	C 	0.13720 0.58190 0.47140 0.52900
O 	O 	0.03590 0.26460 0.48430 -0.54100
O 	O 	0.00510 0.38070 0.29650 -0.51500
O 	O 	0.04630 0.15770 0.29150 -0.47900
O 	O 	0.11920 0.50200 0.56990 -0.50600
O 	O 	0.08840 0.61840 0.38290 -0.56100
O 	O 	0.20220 0.62140 0.45720 -0.68300
K 	K 	0.92920 0.00250 0.44520 0.60300
Ru	Ru	0.48476 0.44122 0.09411 0.94300
C 	C 	0.52890 0.73290 0.14320 0.48800
C 	C 	0.63720 0.41810 0.02860 0.53100
O 	O 	0.53590 0.73540 0.01570 -0.54000
O 	O 	0.50510 0.61930 0.20350 -0.51300
O 	O 	0.54630 0.84230 0.20850 -0.47600
O 	O 	0.61920 0.49800 0.93010 -0.50800
O 	O 	0.58840 0.38160 0.11710 -0.56100
O 	O 	0.70220 0.37860 0.04280 -0.68300
K 	K 	0.42920 0.99750 0.05480 0.60400
Ru	Ru	0.01524 0.05878 0.09411 0.93700
C 	C 	0.97110 0.76710 0.14320 0.48800
C 	C 	0.86280 0.08190 0.02860 0.52900
O 	O 	0.96410 0.76460 0.01570 -0.53600
O 	O 	0.99490 0.88070 0.20350 -0.50900
O 	O 	0.95370 0.65770 0.20850 -0.47600
O 	O 	0.88080 0.00200 0.93010 -0.50600
O 	O 	0.91160 0.11840 0.11710 -0.55900
O 	O 	0.79780 0.12140 0.04280 -0.68300
K 	K 	0.07080 0.50250 0.05480 0.60200
Mg	Mg	0.75000 0.25000 0.68520 1.43300
Mg	Mg	0.25000 0.75000 0.81480 1.43300
Mg	Mg	0.25000 0.75000 0.31480 1.43300
Mg	Mg	0.75000 0.25000 0.18520 1.43300
