data_crystal

_cell_length_a 16.71530
_cell_length_b 8.45580
_cell_length_c 35.49430
_cell_angle_alpha 90.00000
_cell_angle_beta  90.00000
_cell_angle_gamma 90.00000

_symmetry_space_group_name_	'P 1'
_symmetry_space_group_name_H-M	'P 1'

loop_
_symmetry_equiv_pos_as_xyz
  x,y,z

loop_
_atom_site_label
_atom_site_type_symbol
_atom_site_fract_x
_atom_site_fract_y
_atom_site_fract_z
_atom_site_charge
Zn	Zn	0.47803 0.61268 0.94979 1.24100
O 	O 	0.51691 0.39760 0.96473 -0.45200
O 	O 	0.59506 0.31330 0.01118 -0.44000
O 	O 	0.92988 0.23140 0.93130 -0.43100
O 	O 	0.57822 0.53130 0.59456 -0.41300
O 	O 	0.87501 0.18300 0.98703 -0.29100
O 	O 	0.62617 0.77250 0.60239 -0.28400
C 	C 	0.72626 0.28810 0.96352 0.02400
C 	C 	0.79134 0.28390 0.93921 -0.06500
C 	C 	0.78100 0.32640 0.90157 -0.02500
C 	C 	0.70611 0.37070 0.88782 -0.00000
C 	C 	0.64159 0.37320 0.91243 -0.01800
C 	C 	0.65145 0.33450 0.95036 -0.09300
C 	C 	0.69555 0.41450 0.84745 0.02200
C 	C 	0.75412 0.49710 0.82788 -0.04900
C 	C 	0.74445 0.53510 0.79003 -0.04200
C 	C 	0.67584 0.48900 0.77046 -0.00500
C 	C 	0.61651 0.40830 0.79039 -0.04000
C 	C 	0.62594 0.37160 0.82815 -0.06000
C 	C 	0.66476 0.52590 0.72989 0.04800
C 	C 	0.68990 0.66770 0.71413 -0.09500
C 	C 	0.67610 0.70130 0.67634 0.01900
C 	C 	0.63667 0.59270 0.65344 -0.07900
C 	C 	0.61323 0.44920 0.66852 0.01700
C 	C 	0.62724 0.41640 0.70638 -0.10000
C 	C 	0.87049 0.23000 0.95431 0.31900
C 	C 	0.58320 0.35060 0.97718 0.38100
C 	C 	0.61372 0.63930 0.61383 0.32800
H 	H 	0.73300 0.26300 0.98890 0.06500
H 	H 	0.82580 0.31190 0.88560 0.05900
H 	H 	0.59110 0.40070 0.90480 0.04100
H 	H 	0.80420 0.53820 0.84040 0.05100
H 	H 	0.78800 0.58340 0.77650 0.04600
H 	H 	0.56840 0.37560 0.77890 0.04400
H 	H 	0.58450 0.32330 0.84300 0.05400
H 	H 	0.71500 0.74820 0.72880 0.06600
H 	H 	0.69030 0.80170 0.66680 0.04600
H 	H 	0.59050 0.37500 0.65480 0.04600
H 	H 	0.61190 0.31990 0.71690 0.06400
Zn	Zn	0.02197 0.88732 0.44979 1.24100
O 	O 	0.98309 0.10240 0.46473 -0.45100
O 	O 	0.90494 0.18670 0.51118 -0.44000
O 	O 	0.57012 0.26860 0.43130 -0.43000
O 	O 	0.92178 0.96870 0.09456 -0.41400
O 	O 	0.62499 0.31700 0.48703 -0.29100
O 	O 	0.87383 0.72750 0.10239 -0.28400
C 	C 	0.77374 0.21190 0.46352 0.02300
C 	C 	0.70866 0.21610 0.43921 -0.06400
C 	C 	0.71900 0.17360 0.40157 -0.02700
C 	C 	0.79389 0.12930 0.38782 0.00400
C 	C 	0.85841 0.12680 0.41243 -0.02000
C 	C 	0.84855 0.16550 0.45036 -0.09200
C 	C 	0.80445 0.08550 0.34745 0.01600
C 	C 	0.74588 0.00290 0.32788 -0.03700
C 	C 	0.75555 0.96490 0.29003 -0.05600
C 	C 	0.82416 0.01100 0.27046 0.00700
C 	C 	0.88349 0.09170 0.29039 -0.04900
C 	C 	0.87406 0.12840 0.32815 -0.05300
C 	C 	0.83524 0.97410 0.22989 0.03800
C 	C 	0.81010 0.83230 0.21413 -0.08900
C 	C 	0.82390 0.79870 0.17634 0.01600
C 	C 	0.86333 0.90730 0.15344 -0.07900
C 	C 	0.88677 0.05080 0.16852 0.01500
C 	C 	0.87276 0.08360 0.20638 -0.09200
C 	C 	0.62951 0.27000 0.45431 0.31900
C 	C 	0.91680 0.14940 0.47718 0.38000
C 	C 	0.88628 0.86070 0.11383 0.32800
H 	H 	0.76700 0.23700 0.48890 0.06500
H 	H 	0.67420 0.18810 0.38560 0.06000
H 	H 	0.90890 0.09930 0.40480 0.04200
H 	H 	0.69580 0.96180 0.34040 0.04600
H 	H 	0.71200 0.91660 0.27650 0.05000
H 	H 	0.93160 0.12440 0.27890 0.04700
H 	H 	0.91550 0.17670 0.34300 0.05200
H 	H 	0.78500 0.75180 0.22880 0.06400
H 	H 	0.80970 0.69830 0.16680 0.04700
H 	H 	0.90950 0.12500 0.15480 0.04700
H 	H 	0.88810 0.18010 0.21690 0.06200
Zn	Zn	0.52197 0.61268 0.55021 1.24100
O 	O 	0.48309 0.39760 0.53527 -0.45200
O 	O 	0.40494 0.31330 0.48882 -0.44000
O 	O 	0.07012 0.23140 0.56870 -0.43100
O 	O 	0.42178 0.53130 0.90544 -0.41300
O 	O 	0.12499 0.18300 0.51297 -0.29100
O 	O 	0.37383 0.77250 0.89761 -0.28400
C 	C 	0.27374 0.28810 0.53648 0.02400
C 	C 	0.20866 0.28390 0.56079 -0.06500
C 	C 	0.21900 0.32640 0.59843 -0.02500
C 	C 	0.29389 0.37070 0.61218 -0.00000
C 	C 	0.35841 0.37320 0.58757 -0.01800
C 	C 	0.34855 0.33450 0.54964 -0.09300
C 	C 	0.30445 0.41450 0.65255 0.02200
C 	C 	0.24588 0.49710 0.67212 -0.04900
C 	C 	0.25555 0.53510 0.70997 -0.04200
C 	C 	0.32416 0.48900 0.72954 -0.00500
C 	C 	0.38349 0.40830 0.70961 -0.04000
C 	C 	0.37406 0.37160 0.67185 -0.06000
C 	C 	0.33524 0.52590 0.77011 0.04800
C 	C 	0.31010 0.66770 0.78587 -0.09500
C 	C 	0.32390 0.70130 0.82366 0.01900
C 	C 	0.36333 0.59270 0.84656 -0.07900
C 	C 	0.38677 0.44920 0.83148 0.01700
C 	C 	0.37276 0.41640 0.79362 -0.10000
C 	C 	0.12951 0.23000 0.54569 0.31900
C 	C 	0.41680 0.35060 0.52282 0.38100
C 	C 	0.38628 0.63930 0.88617 0.32800
H 	H 	0.26700 0.26300 0.51110 0.06500
H 	H 	0.17420 0.31190 0.61440 0.05900
H 	H 	0.40890 0.40070 0.59520 0.04100
H 	H 	0.19580 0.53820 0.65960 0.05100
H 	H 	0.21200 0.58340 0.72350 0.04600
H 	H 	0.43160 0.37560 0.72110 0.04400
H 	H 	0.41550 0.32330 0.65700 0.05400
H 	H 	0.28500 0.74820 0.77120 0.06600
H 	H 	0.30970 0.80170 0.83320 0.04600
H 	H 	0.40950 0.37500 0.84520 0.04600
H 	H 	0.38810 0.31990 0.78310 0.06400
Zn	Zn	0.97803 0.88732 0.05022 1.24100
O 	O 	0.01691 0.10240 0.03527 -0.45100
O 	O 	0.09506 0.18670 0.98882 -0.44100
O 	O 	0.42988 0.26860 0.06870 -0.43000
O 	O 	0.07822 0.96870 0.40544 -0.41400
O 	O 	0.37501 0.31700 0.01297 -0.29100
O 	O 	0.12617 0.72750 0.39761 -0.28400
C 	C 	0.22626 0.21190 0.03648 0.02300
C 	C 	0.29134 0.21610 0.06079 -0.06400
C 	C 	0.28100 0.17360 0.09843 -0.02700
C 	C 	0.20611 0.12930 0.11218 0.00400
C 	C 	0.14159 0.12680 0.08757 -0.02000
C 	C 	0.15145 0.16550 0.04964 -0.09200
C 	C 	0.19555 0.08550 0.15255 0.01500
C 	C 	0.25412 0.00290 0.17212 -0.03700
C 	C 	0.24445 0.96490 0.20997 -0.05600
C 	C 	0.17584 0.01100 0.22954 0.00700
C 	C 	0.11651 0.09170 0.20961 -0.04900
C 	C 	0.12594 0.12840 0.17185 -0.05300
C 	C 	0.16476 0.97410 0.27011 0.03800
C 	C 	0.18990 0.83230 0.28587 -0.08900
C 	C 	0.17610 0.79870 0.32366 0.01600
C 	C 	0.13667 0.90730 0.34656 -0.07800
C 	C 	0.11323 0.05080 0.33148 0.01500
C 	C 	0.12724 0.08360 0.29362 -0.09200
C 	C 	0.37049 0.27000 0.04569 0.31900
C 	C 	0.08320 0.14940 0.02282 0.38100
C 	C 	0.11372 0.86070 0.38617 0.32800
H 	H 	0.23300 0.23700 0.01110 0.06500
H 	H 	0.32580 0.18810 0.11440 0.06000
H 	H 	0.09110 0.09930 0.09520 0.04200
H 	H 	0.30420 0.96180 0.15960 0.04600
H 	H 	0.28800 0.91660 0.22350 0.05000
H 	H 	0.06840 0.12440 0.22110 0.04700
H 	H 	0.08450 0.17670 0.15700 0.05200
H 	H 	0.21500 0.75180 0.27120 0.06400
H 	H 	0.19030 0.69830 0.33320 0.04700
H 	H 	0.09050 0.12500 0.34520 0.04700
H 	H 	0.11190 0.18010 0.28310 0.06200
Zn	Zn	0.52197 0.38732 0.05022 1.24100
O 	O 	0.48309 0.60240 0.03527 -0.45200
O 	O 	0.40494 0.68670 0.98882 -0.44000
O 	O 	0.07012 0.76860 0.06870 -0.43100
O 	O 	0.42178 0.46870 0.40544 -0.41300
O 	O 	0.12499 0.81700 0.01297 -0.29100
O 	O 	0.37383 0.22750 0.39761 -0.28400
C 	C 	0.27374 0.71190 0.03648 0.02400
C 	C 	0.20866 0.71610 0.06079 -0.06500
C 	C 	0.21900 0.67360 0.09843 -0.02500
C 	C 	0.29389 0.62930 0.11218 -0.00000
C 	C 	0.35841 0.62680 0.08757 -0.01800
C 	C 	0.34855 0.66550 0.04964 -0.09300
C 	C 	0.30445 0.58550 0.15255 0.02200
C 	C 	0.24588 0.50290 0.17212 -0.04900
C 	C 	0.25555 0.46490 0.20997 -0.04200
C 	C 	0.32416 0.51100 0.22954 -0.00500
C 	C 	0.38349 0.59170 0.20961 -0.04000
C 	C 	0.37406 0.62840 0.17185 -0.06000
C 	C 	0.33524 0.47410 0.27011 0.04800
C 	C 	0.31010 0.33230 0.28587 -0.09500
C 	C 	0.32390 0.29870 0.32366 0.01900
C 	C 	0.36333 0.40730 0.34656 -0.07900
C 	C 	0.38677 0.55080 0.33148 0.01700
C 	C 	0.37276 0.58360 0.29362 -0.10000
C 	C 	0.12951 0.77000 0.04569 0.31900
C 	C 	0.41680 0.64940 0.02282 0.38100
C 	C 	0.38628 0.36070 0.38617 0.32800
H 	H 	0.26700 0.73700 0.01110 0.06500
H 	H 	0.17420 0.68810 0.11440 0.05900
H 	H 	0.40890 0.59930 0.09520 0.04100
H 	H 	0.19580 0.46180 0.15960 0.05100
H 	H 	0.21200 0.41660 0.22350 0.04600
H 	H 	0.43160 0.62440 0.22110 0.04400
H 	H 	0.41550 0.67670 0.15700 0.05400
H 	H 	0.28500 0.25180 0.27120 0.06600
H 	H 	0.30970 0.19830 0.33320 0.04600
H 	H 	0.40950 0.62500 0.34520 0.04600
H 	H 	0.38810 0.68010 0.28310 0.06400
Zn	Zn	0.97803 0.11268 0.55021 1.24100
O 	O 	0.01691 0.89760 0.53527 -0.45100
O 	O 	0.09506 0.81330 0.48882 -0.44000
O 	O 	0.42988 0.73140 0.56870 -0.43000
O 	O 	0.07822 0.03130 0.90544 -0.41400
O 	O 	0.37501 0.68300 0.51297 -0.29100
O 	O 	0.12617 0.27250 0.89761 -0.28400
C 	C 	0.22626 0.78810 0.53648 0.02300
C 	C 	0.29134 0.78390 0.56079 -0.06400
C 	C 	0.28100 0.82640 0.59843 -0.02700
C 	C 	0.20611 0.87070 0.61218 0.00400
C 	C 	0.14159 0.87320 0.58757 -0.02000
C 	C 	0.15145 0.83450 0.54964 -0.09200
C 	C 	0.19555 0.91450 0.65255 0.01600
C 	C 	0.25412 0.99710 0.67212 -0.03700
C 	C 	0.24445 0.03510 0.70997 -0.05600
C 	C 	0.17584 0.98900 0.72954 0.00700
C 	C 	0.11651 0.90830 0.70961 -0.04900
C 	C 	0.12594 0.87160 0.67185 -0.05300
C 	C 	0.16476 0.02590 0.77011 0.03800
C 	C 	0.18990 0.16770 0.78587 -0.08900
C 	C 	0.17610 0.20130 0.82366 0.01600
C 	C 	0.13667 0.09270 0.84656 -0.07900
C 	C 	0.11323 0.94920 0.83148 0.01500
C 	C 	0.12724 0.91640 0.79362 -0.09200
C 	C 	0.37049 0.73000 0.54569 0.31900
C 	C 	0.08320 0.85060 0.52282 0.38000
C 	C 	0.11372 0.13930 0.88617 0.32800
H 	H 	0.23300 0.76300 0.51110 0.06500
H 	H 	0.32580 0.81190 0.61440 0.06000
H 	H 	0.09110 0.90070 0.59520 0.04200
H 	H 	0.30420 0.03820 0.65960 0.04600
H 	H 	0.28800 0.08340 0.72350 0.05000
H 	H 	0.06840 0.87560 0.72110 0.04700
H 	H 	0.08450 0.82330 0.65700 0.05200
H 	H 	0.21500 0.24820 0.77120 0.06400
H 	H 	0.19030 0.30170 0.83320 0.04700
H 	H 	0.09050 0.87500 0.84520 0.04700
H 	H 	0.11190 0.81990 0.78310 0.06200
Zn	Zn	0.47803 0.38732 0.44979 1.24100
O 	O 	0.51691 0.60240 0.46473 -0.45200
O 	O 	0.59506 0.68670 0.51118 -0.44000
O 	O 	0.92988 0.76860 0.43130 -0.43100
O 	O 	0.57822 0.46870 0.09456 -0.41300
O 	O 	0.87501 0.81700 0.48703 -0.29100
O 	O 	0.62617 0.22750 0.10239 -0.28400
C 	C 	0.72626 0.71190 0.46352 0.02400
C 	C 	0.79134 0.71610 0.43921 -0.06500
C 	C 	0.78100 0.67360 0.40157 -0.02500
C 	C 	0.70611 0.62930 0.38782 -0.00000
C 	C 	0.64159 0.62680 0.41243 -0.01800
C 	C 	0.65145 0.66550 0.45036 -0.09300
C 	C 	0.69555 0.58550 0.34745 0.02200
C 	C 	0.75412 0.50290 0.32788 -0.04900
C 	C 	0.74445 0.46490 0.29003 -0.04200
C 	C 	0.67584 0.51100 0.27046 -0.00500
C 	C 	0.61651 0.59170 0.29039 -0.04000
C 	C 	0.62594 0.62840 0.32815 -0.06000
C 	C 	0.66476 0.47410 0.22989 0.04800
C 	C 	0.68990 0.33230 0.21413 -0.09500
C 	C 	0.67610 0.29870 0.17634 0.01900
C 	C 	0.63667 0.40730 0.15344 -0.07900
C 	C 	0.61323 0.55080 0.16852 0.01700
C 	C 	0.62724 0.58360 0.20638 -0.10000
C 	C 	0.87049 0.77000 0.45431 0.31900
C 	C 	0.58320 0.64940 0.47718 0.38100
C 	C 	0.61372 0.36070 0.11383 0.32800
H 	H 	0.73300 0.73700 0.48890 0.06500
H 	H 	0.82580 0.68810 0.38560 0.05900
H 	H 	0.59110 0.59930 0.40480 0.04100
H 	H 	0.80420 0.46180 0.34040 0.05100
H 	H 	0.78800 0.41660 0.27650 0.04600
H 	H 	0.56840 0.62440 0.27890 0.04400
H 	H 	0.58450 0.67670 0.34300 0.05400
H 	H 	0.71500 0.25180 0.22880 0.06600
H 	H 	0.69030 0.19830 0.16680 0.04600
H 	H 	0.59050 0.62500 0.15480 0.04600
H 	H 	0.61190 0.68010 0.21690 0.06400
Zn	Zn	0.02197 0.11268 0.94979 1.24100
O 	O 	0.98309 0.89760 0.96473 -0.45100
O 	O 	0.90494 0.81330 0.01118 -0.44100
O 	O 	0.57012 0.73140 0.93130 -0.43000
O 	O 	0.92178 0.03130 0.59456 -0.41400
O 	O 	0.62499 0.68300 0.98703 -0.29100
O 	O 	0.87383 0.27250 0.60239 -0.28400
C 	C 	0.77374 0.78810 0.96352 0.02300
C 	C 	0.70866 0.78390 0.93921 -0.06400
C 	C 	0.71900 0.82640 0.90157 -0.02700
C 	C 	0.79389 0.87070 0.88782 0.00400
C 	C 	0.85841 0.87320 0.91243 -0.02000
C 	C 	0.84855 0.83450 0.95036 -0.09200
C 	C 	0.80445 0.91450 0.84745 0.01500
C 	C 	0.74588 0.99710 0.82788 -0.03700
C 	C 	0.75555 0.03510 0.79003 -0.05600
C 	C 	0.82416 0.98900 0.77046 0.00700
C 	C 	0.88349 0.90830 0.79039 -0.04900
C 	C 	0.87406 0.87160 0.82815 -0.05300
C 	C 	0.83524 0.02590 0.72989 0.03800
C 	C 	0.81010 0.16770 0.71413 -0.08900
C 	C 	0.82390 0.20130 0.67634 0.01600
C 	C 	0.86333 0.09270 0.65344 -0.07800
C 	C 	0.88677 0.94920 0.66852 0.01500
C 	C 	0.87276 0.91640 0.70638 -0.09200
C 	C 	0.62951 0.73000 0.95431 0.31900
C 	C 	0.91680 0.85060 0.97718 0.38100
C 	C 	0.88628 0.13930 0.61383 0.32800
H 	H 	0.76700 0.76300 0.98890 0.06500
H 	H 	0.67420 0.81190 0.88560 0.06000
H 	H 	0.90890 0.90070 0.90480 0.04200
H 	H 	0.69580 0.03820 0.84040 0.04600
H 	H 	0.71200 0.08340 0.77650 0.05000
H 	H 	0.93160 0.87560 0.77890 0.04700
H 	H 	0.91550 0.82330 0.84300 0.05200
H 	H 	0.78500 0.24820 0.72880 0.06400
H 	H 	0.80970 0.30170 0.66680 0.04700
H 	H 	0.90950 0.87500 0.65480 0.04700
H 	H 	0.88810 0.81990 0.71690 0.06200
