data_crystal

_cell_length_a 28.47840
_cell_length_b 28.47840
_cell_length_c 13.63340
_cell_angle_alpha 90.00000
_cell_angle_beta  90.00000
_cell_angle_gamma 90.00000

_symmetry_space_group_name_	'P 1'
_symmetry_space_group_name_H-M	'P 1'

loop_
_symmetry_equiv_pos_as_xyz
  x,y,z

loop_
_atom_site_label
_atom_site_type_symbol
_atom_site_fract_x
_atom_site_fract_y
_atom_site_fract_z
_atom_site_charge
Sr	Sr	0.19060 0.50219 0.62309 1.52200
O 	O 	0.25970 0.45390 0.67710 -0.53200
O 	O 	0.13220 0.55450 0.52640 -0.35500
O 	O 	0.29800 0.49010 0.31760 -0.52600
O 	O 	0.32930 0.42930 0.23890 -0.40300
O 	O 	0.31070 0.41120 0.75550 -0.43500
C 	C 	0.29500 0.42880 0.67960 0.39400
C 	C 	0.13030 0.59140 0.46600 0.09000
C 	C 	0.32060 0.41800 0.58440 -0.09100
N 	N 	0.08950 0.60690 0.50400 -0.06100
C 	C 	0.30870 0.43960 0.49830 0.03400
C 	C 	0.35500 0.38370 0.58650 -0.06600
C 	C 	0.07300 0.57700 0.59500 -0.31200
C 	C 	0.31810 0.45020 0.31560 0.34300
H 	H 	0.28570 0.46280 0.49810 0.00300
C 	C 	0.33020 0.42730 0.41280 -0.07600
C 	C 	0.37590 0.37120 0.49880 0.11400
H 	H 	0.36380 0.36950 0.64510 0.07800
H 	H 	0.03900 0.57780 0.59950 0.13500
H 	H 	0.08590 0.58970 0.65430 0.13800
H 	H 	0.08280 0.54500 0.58770 0.13300
C 	C 	0.36420 0.39250 0.41180 -0.06700
C 	C 	0.41160 0.33550 0.49960 -0.16400
H 	H 	0.37870 0.38380 0.35350 0.07500
C 	C 	0.45810 0.35270 0.50380 0.20300
C 	C 	0.39750 0.28930 0.50130 0.22300
C 	C 	0.49600 0.31440 0.50460 -0.03500
O 	O 	0.46860 0.39360 0.50650 -0.21100
C 	C 	0.43440 0.25330 0.50360 -0.06600
O 	O 	0.35640 0.27940 0.50050 -0.24100
C 	C 	0.48190 0.26700 0.50370 0.02900
C 	C 	0.54210 0.32780 0.50470 -0.04300
C 	C 	0.42430 0.20780 0.50250 -0.00300
H 	H 	0.55070 0.35930 0.50620 0.07200
H 	H 	0.39280 0.19920 0.50000 0.04400
H 	H 	0.16400 0.55600 0.48700 0.00300
C 	C 	0.12240 0.55840 0.43000 0.06600
O 	O 	0.00890 0.58000 0.26400 -0.24000
N 	N 	0.08760 0.53530 0.39110 -0.01200
C 	C 	0.05590 0.50130 0.41800 -0.30000
C 	C 	0.06800 0.53560 0.28400 -0.60900
H 	H 	0.06560 0.48750 0.47940 0.11500
H 	H 	0.05460 0.47740 0.36870 0.12700
H 	H 	0.02540 0.51510 0.42610 0.12600
H 	H 	0.04370 0.55860 0.27880 0.32400
H 	H 	0.05600 0.50520 0.26830 0.23100
H 	H 	0.09320 0.54340 0.23950 0.23400
Sr	Sr	0.69060 0.00219 0.12309 1.52100
O 	O 	0.75970 0.95390 0.17710 -0.53200
O 	O 	0.63220 0.05450 0.02640 -0.35900
O 	O 	0.79800 0.99010 0.81760 -0.52700
O 	O 	0.82930 0.92930 0.73890 -0.40400
O 	O 	0.81070 0.91120 0.25550 -0.43600
C 	C 	0.79500 0.92880 0.17960 0.39300
C 	C 	0.63030 0.09140 0.96600 0.09100
C 	C 	0.82060 0.91800 0.08440 -0.09200
N 	N 	0.58950 0.10690 0.00400 -0.06300
C 	C 	0.80870 0.93960 0.99830 0.03400
C 	C 	0.85500 0.88370 0.08650 -0.06700
C 	C 	0.57300 0.07700 0.09500 -0.31200
C 	C 	0.81810 0.95020 0.81560 0.34300
H 	H 	0.78570 0.96280 0.99810 0.00300
C 	C 	0.83020 0.92730 0.91280 -0.07600
C 	C 	0.87590 0.87120 0.99880 0.11400
H 	H 	0.86380 0.86950 0.14510 0.07800
H 	H 	0.53900 0.07780 0.09950 0.13500
H 	H 	0.58590 0.08970 0.15430 0.13800
H 	H 	0.58280 0.04500 0.08770 0.13300
C 	C 	0.86420 0.89250 0.91180 -0.06700
C 	C 	0.91160 0.83550 0.99960 -0.16300
H 	H 	0.87870 0.88380 0.85350 0.07500
C 	C 	0.95810 0.85270 0.00380 0.20200
C 	C 	0.89750 0.78930 0.00130 0.22200
C 	C 	0.99600 0.81440 0.00460 -0.03500
O 	O 	0.96860 0.89360 0.00650 -0.21100
C 	C 	0.93440 0.75330 0.00360 -0.06600
O 	O 	0.85640 0.77940 0.00050 -0.24100
C 	C 	0.98190 0.76700 0.00370 0.02900
C 	C 	0.04210 0.82780 0.00470 -0.04300
C 	C 	0.92430 0.70780 0.00250 -0.00300
H 	H 	0.05070 0.85930 0.00620 0.07100
H 	H 	0.89280 0.69920 -0.00000 0.04400
H 	H 	0.66400 0.05600 0.98700 0.00400
C 	C 	0.62240 0.05840 0.93000 0.06600
O 	O 	0.50890 0.08000 0.76400 -0.23900
N 	N 	0.58760 0.03530 0.89110 -0.01200
C 	C 	0.55590 0.00130 0.91800 -0.29300
C 	C 	0.56800 0.03560 0.78400 -0.61000
H 	H 	0.56560 0.98750 0.97940 0.11300
H 	H 	0.55460 0.97740 0.86870 0.12400
H 	H 	0.52540 0.01510 0.92610 0.12500
H 	H 	0.54370 0.05860 0.77880 0.32500
H 	H 	0.55600 0.00520 0.76830 0.23200
H 	H 	0.59320 0.04340 0.73950 0.23400
Sr	Sr	0.30940 0.49781 0.12309 1.52100
O 	O 	0.24030 0.54610 0.17710 -0.53300
O 	O 	0.36780 0.44550 0.02640 -0.35800
O 	O 	0.20200 0.50990 0.81760 -0.52700
O 	O 	0.17070 0.57070 0.73890 -0.40400
O 	O 	0.18930 0.58880 0.25550 -0.43600
C 	C 	0.20500 0.57120 0.17960 0.39400
C 	C 	0.36970 0.40860 0.96600 0.09100
C 	C 	0.17940 0.58200 0.08440 -0.09300
N 	N 	0.41050 0.39310 0.00400 -0.06300
C 	C 	0.19130 0.56040 0.99830 0.03500
C 	C 	0.14500 0.61630 0.08650 -0.06700
C 	C 	0.42700 0.42300 0.09500 -0.31200
C 	C 	0.18190 0.54980 0.81560 0.34400
H 	H 	0.21430 0.53720 0.99810 0.00300
C 	C 	0.16980 0.57270 0.91280 -0.07700
C 	C 	0.12410 0.62880 0.99880 0.11400
H 	H 	0.13620 0.63050 0.14510 0.07800
H 	H 	0.46100 0.42220 0.09950 0.13500
H 	H 	0.41410 0.41030 0.15430 0.13800
H 	H 	0.41720 0.45500 0.08770 0.13300
C 	C 	0.13580 0.60750 0.91180 -0.06700
C 	C 	0.08840 0.66450 0.99960 -0.16200
H 	H 	0.12130 0.61620 0.85350 0.07500
C 	C 	0.04190 0.64730 0.00380 0.20200
C 	C 	0.10250 0.71070 0.00130 0.22100
C 	C 	0.00400 0.68560 0.00460 -0.03500
O 	O 	0.03140 0.60640 0.00650 -0.21100
C 	C 	0.06560 0.74670 0.00360 -0.06600
O 	O 	0.14360 0.72060 0.00050 -0.24100
C 	C 	0.01810 0.73300 0.00370 0.02900
C 	C 	0.95790 0.67220 0.00470 -0.04300
C 	C 	0.07570 0.79220 0.00250 -0.00300
H 	H 	0.94930 0.64070 0.00620 0.07100
H 	H 	0.10720 0.80080 -0.00000 0.04400
H 	H 	0.33600 0.44400 0.98700 0.00400
C 	C 	0.37760 0.44160 0.93000 0.06500
O 	O 	0.49110 0.42000 0.76400 -0.24000
N 	N 	0.41240 0.46470 0.89110 -0.01100
C 	C 	0.44410 0.49870 0.91800 -0.30000
C 	C 	0.43200 0.46440 0.78400 -0.60900
H 	H 	0.43440 0.51250 0.97940 0.11600
H 	H 	0.44540 0.52260 0.86870 0.12700
H 	H 	0.47460 0.48490 0.92610 0.12700
H 	H 	0.45630 0.44140 0.77880 0.32400
H 	H 	0.44400 0.49480 0.76830 0.23200
H 	H 	0.40680 0.45660 0.73950 0.23400
Sr	Sr	0.80940 0.99781 0.62309 1.52200
O 	O 	0.74030 0.04610 0.67710 -0.53200
O 	O 	0.86780 0.94550 0.52640 -0.35600
O 	O 	0.70200 0.00990 0.31760 -0.52700
O 	O 	0.67070 0.07070 0.23890 -0.40400
O 	O 	0.68930 0.08880 0.75550 -0.43600
C 	C 	0.70500 0.07120 0.67960 0.39300
C 	C 	0.86970 0.90860 0.46600 0.08900
C 	C 	0.67940 0.08200 0.58440 -0.09100
N 	N 	0.91050 0.89310 0.50400 -0.06200
C 	C 	0.69130 0.06040 0.49830 0.03300
C 	C 	0.64500 0.11630 0.58650 -0.06700
C 	C 	0.92700 0.92300 0.59500 -0.31200
C 	C 	0.68190 0.04980 0.31560 0.34300
H 	H 	0.71430 0.03720 0.49810 0.00300
C 	C 	0.66980 0.07270 0.41280 -0.07600
C 	C 	0.62410 0.12880 0.49880 0.11400
H 	H 	0.63620 0.13050 0.64510 0.07900
H 	H 	0.96100 0.92220 0.59950 0.13500
H 	H 	0.91410 0.91030 0.65430 0.13800
H 	H 	0.91720 0.95500 0.58770 0.13300
C 	C 	0.63580 0.10750 0.41180 -0.06700
C 	C 	0.58840 0.16450 0.49960 -0.16400
H 	H 	0.62130 0.11620 0.35350 0.07500
C 	C 	0.54190 0.14730 0.50380 0.20300
C 	C 	0.60250 0.21070 0.50130 0.22300
C 	C 	0.50400 0.18560 0.50460 -0.03500
O 	O 	0.53140 0.10640 0.50650 -0.21100
C 	C 	0.56560 0.24670 0.50360 -0.06600
O 	O 	0.64360 0.22060 0.50050 -0.24100
C 	C 	0.51810 0.23300 0.50370 0.02900
C 	C 	0.45790 0.17220 0.50470 -0.04300
C 	C 	0.57570 0.29220 0.50250 -0.00300
H 	H 	0.44930 0.14070 0.50620 0.07200
H 	H 	0.60720 0.30080 0.50000 0.04400
H 	H 	0.83600 0.94400 0.48700 0.00300
C 	C 	0.87760 0.94160 0.43000 0.06600
O 	O 	0.99110 0.92000 0.26400 -0.24000
N 	N 	0.91240 0.96470 0.39110 -0.01200
C 	C 	0.94410 0.99870 0.41800 -0.29800
C 	C 	0.93200 0.96440 0.28400 -0.61000
H 	H 	0.93440 0.01250 0.47940 0.11500
H 	H 	0.94540 0.02260 0.36870 0.12600
H 	H 	0.97460 0.98490 0.42610 0.12600
H 	H 	0.95630 0.94140 0.27880 0.32400
H 	H 	0.94400 0.99480 0.26830 0.23200
H 	H 	0.90680 0.95660 0.23950 0.23400
Sr	Sr	0.24781 0.44060 0.87309 1.52200
O 	O 	0.29610 0.50970 0.92710 -0.53300
O 	O 	0.19550 0.38220 0.77640 -0.35600
O 	O 	0.25990 0.54800 0.56760 -0.52700
O 	O 	0.32070 0.57930 0.48890 -0.40400
O 	O 	0.33880 0.56070 0.00550 -0.43700
C 	C 	0.32120 0.54500 0.92960 0.39500
C 	C 	0.15860 0.38030 0.71600 0.08900
C 	C 	0.33200 0.57060 0.83440 -0.09200
N 	N 	0.14310 0.33950 0.75400 -0.06200
C 	C 	0.31040 0.55870 0.74830 0.03300
C 	C 	0.36630 0.60500 0.83650 -0.06700
C 	C 	0.17300 0.32300 0.84500 -0.31300
C 	C 	0.29980 0.56810 0.56560 0.34300
H 	H 	0.28720 0.53570 0.74810 0.00300
C 	C 	0.32270 0.58020 0.66280 -0.07600
C 	C 	0.37880 0.62590 0.74880 0.11300
H 	H 	0.38050 0.61380 0.89510 0.07900
H 	H 	0.17220 0.28900 0.84950 0.13500
H 	H 	0.16030 0.33590 0.90430 0.13800
H 	H 	0.20500 0.33280 0.83770 0.13400
C 	C 	0.35750 0.61420 0.66180 -0.06700
C 	C 	0.41450 0.66160 0.74960 -0.16400
H 	H 	0.36620 0.62870 0.60350 0.07500
C 	C 	0.39730 0.70810 0.75380 0.20300
C 	C 	0.46070 0.64750 0.75130 0.22300
C 	C 	0.43560 0.74600 0.75460 -0.03500
O 	O 	0.35640 0.71860 0.75650 -0.21100
C 	C 	0.49670 0.68440 0.75360 -0.06600
O 	O 	0.47060 0.60640 0.75050 -0.24100
C 	C 	0.48300 0.73190 0.75370 0.02900
C 	C 	0.42220 0.79210 0.75470 -0.04300
C 	C 	0.54220 0.67430 0.75250 -0.00300
H 	H 	0.39070 0.80070 0.75620 0.07200
H 	H 	0.55080 0.64280 0.75000 0.04400
H 	H 	0.19400 0.41400 0.73700 0.00300
C 	C 	0.19160 0.37240 0.68000 0.06600
O 	O 	0.17000 0.25890 0.51400 -0.24000
N 	N 	0.21470 0.33760 0.64110 -0.01200
C 	C 	0.24870 0.30590 0.66800 -0.30000
C 	C 	0.21440 0.31800 0.53400 -0.60900
H 	H 	0.26250 0.31560 0.72940 0.11500
H 	H 	0.27260 0.30460 0.61870 0.12700
H 	H 	0.23490 0.27540 0.67610 0.12700
H 	H 	0.19140 0.29370 0.52880 0.32400
H 	H 	0.24480 0.30600 0.51830 0.23200
H 	H 	0.20660 0.34320 0.48950 0.23400
Sr	Sr	0.74781 0.94060 0.37309 1.52200
O 	O 	0.79610 0.00970 0.42710 -0.53200
O 	O 	0.69550 0.88220 0.27640 -0.35600
O 	O 	0.75990 0.04800 0.06760 -0.52700
O 	O 	0.82070 0.07930 0.98890 -0.40200
O 	O 	0.83880 0.06070 0.50550 -0.43600
C 	C 	0.82120 0.04500 0.42960 0.39300
C 	C 	0.65860 0.88030 0.21600 0.08900
C 	C 	0.83200 0.07060 0.33440 -0.09100
N 	N 	0.64310 0.83950 0.25400 -0.06200
C 	C 	0.81040 0.05870 0.24830 0.03200
C 	C 	0.86630 0.10500 0.33650 -0.06700
C 	C 	0.67300 0.82300 0.34500 -0.31200
C 	C 	0.79980 0.06810 0.06560 0.34100
H 	H 	0.78720 0.03570 0.24810 0.00300
C 	C 	0.82270 0.08020 0.16280 -0.07600
C 	C 	0.87880 0.12590 0.24880 0.11400
H 	H 	0.88050 0.11380 0.39510 0.07900
H 	H 	0.67220 0.78900 0.34950 0.13500
H 	H 	0.66030 0.83590 0.40430 0.13800
H 	H 	0.70500 0.83280 0.33770 0.13300
C 	C 	0.85750 0.11420 0.16180 -0.06800
C 	C 	0.91450 0.16160 0.24960 -0.16400
H 	H 	0.86620 0.12870 0.10350 0.07500
C 	C 	0.89730 0.20810 0.25380 0.20300
C 	C 	0.96070 0.14750 0.25130 0.22300
C 	C 	0.93560 0.24600 0.25460 -0.03500
O 	O 	0.85640 0.21860 0.25650 -0.21100
C 	C 	0.99670 0.18440 0.25360 -0.06700
O 	O 	0.97060 0.10640 0.25050 -0.24100
C 	C 	0.98300 0.23190 0.25370 0.02900
C 	C 	0.92220 0.29210 0.25470 -0.04300
C 	C 	0.04220 0.17430 0.25250 -0.00300
H 	H 	0.89070 0.30070 0.25620 0.07100
H 	H 	0.05080 0.14280 0.25000 0.04400
H 	H 	0.69400 0.91400 0.23700 0.00300
C 	C 	0.69160 0.87240 0.18000 0.06500
O 	O 	0.67000 0.75890 0.01400 -0.24000
N 	N 	0.71470 0.83760 0.14110 -0.01100
C 	C 	0.74870 0.80590 0.16800 -0.29900
C 	C 	0.71440 0.81800 0.03400 -0.61100
H 	H 	0.76250 0.81560 0.22940 0.11500
H 	H 	0.77260 0.80460 0.11870 0.12700
H 	H 	0.73490 0.77540 0.17610 0.12700
H 	H 	0.69140 0.79370 0.02880 0.32500
H 	H 	0.74480 0.80600 0.01830 0.23200
H 	H 	0.70660 0.84320 0.98950 0.23500
Sr	Sr	0.25219 0.55940 0.37309 1.52100
O 	O 	0.20390 0.49030 0.42710 -0.53300
O 	O 	0.30450 0.61780 0.27640 -0.35600
O 	O 	0.24010 0.45200 0.06760 -0.52700
O 	O 	0.17930 0.42070 0.98890 -0.40200
O 	O 	0.16120 0.43930 0.50550 -0.43600
C 	C 	0.17880 0.45500 0.42960 0.39300
C 	C 	0.34140 0.61970 0.21600 0.08900
C 	C 	0.16800 0.42940 0.33440 -0.09100
N 	N 	0.35690 0.66050 0.25400 -0.06200
C 	C 	0.18960 0.44130 0.24830 0.03300
C 	C 	0.13370 0.39500 0.33650 -0.06700
C 	C 	0.32700 0.67700 0.34500 -0.31200
C 	C 	0.20020 0.43190 0.06560 0.34200
H 	H 	0.21280 0.46430 0.24810 0.00300
C 	C 	0.17730 0.41980 0.16280 -0.07600
C 	C 	0.12120 0.37410 0.24880 0.11400
H 	H 	0.11950 0.38620 0.39510 0.07900
H 	H 	0.32780 0.71100 0.34950 0.13500
H 	H 	0.33970 0.66410 0.40430 0.13800
H 	H 	0.29500 0.66720 0.33770 0.13300
C 	C 	0.14250 0.38580 0.16180 -0.06800
C 	C 	0.08550 0.33840 0.24960 -0.16400
H 	H 	0.13380 0.37130 0.10350 0.07500
C 	C 	0.10270 0.29190 0.25380 0.20300
C 	C 	0.03930 0.35250 0.25130 0.22300
C 	C 	0.06440 0.25400 0.25460 -0.03500
O 	O 	0.14360 0.28140 0.25650 -0.21100
C 	C 	0.00330 0.31560 0.25360 -0.06700
O 	O 	0.02940 0.39360 0.25050 -0.24100
C 	C 	0.01700 0.26810 0.25370 0.02900
C 	C 	0.07780 0.20790 0.25470 -0.04300
C 	C 	0.95780 0.32570 0.25250 -0.00300
H 	H 	0.10930 0.19930 0.25620 0.07100
H 	H 	0.94920 0.35720 0.25000 0.04400
H 	H 	0.30600 0.58600 0.23700 0.00300
C 	C 	0.30840 0.62760 0.18000 0.06500
O 	O 	0.33000 0.74110 0.01400 -0.24000
N 	N 	0.28530 0.66240 0.14110 -0.01100
C 	C 	0.25130 0.69410 0.16800 -0.29900
C 	C 	0.28560 0.68200 0.03400 -0.61200
H 	H 	0.23750 0.68440 0.22940 0.11500
H 	H 	0.22740 0.69540 0.11870 0.12600
H 	H 	0.26510 0.72460 0.17610 0.12600
H 	H 	0.30860 0.70630 0.02880 0.32500
H 	H 	0.25520 0.69400 0.01830 0.23200
H 	H 	0.29340 0.65680 0.98950 0.23500
Sr	Sr	0.75219 0.05940 0.87309 1.52200
O 	O 	0.70390 0.99030 0.92710 -0.53300
O 	O 	0.80450 0.11780 0.77640 -0.35600
O 	O 	0.74010 0.95200 0.56760 -0.52700
O 	O 	0.67930 0.92070 0.48890 -0.40400
O 	O 	0.66120 0.93930 0.00550 -0.43600
C 	C 	0.67880 0.95500 0.92960 0.39400
C 	C 	0.84140 0.11970 0.71600 0.08900
C 	C 	0.66800 0.92940 0.83440 -0.09200
N 	N 	0.85690 0.16050 0.75400 -0.06200
C 	C 	0.68960 0.94130 0.74830 0.03300
C 	C 	0.63370 0.89500 0.83650 -0.06700
C 	C 	0.82700 0.17700 0.84500 -0.31300
C 	C 	0.70020 0.93190 0.56560 0.34300
H 	H 	0.71280 0.96430 0.74810 0.00300
C 	C 	0.67730 0.91980 0.66280 -0.07600
C 	C 	0.62120 0.87410 0.74880 0.11400
H 	H 	0.61950 0.88620 0.89510 0.07900
H 	H 	0.82780 0.21100 0.84950 0.13600
H 	H 	0.83970 0.16410 0.90430 0.13900
H 	H 	0.79500 0.16720 0.83770 0.13400
C 	C 	0.64250 0.88580 0.66180 -0.06700
C 	C 	0.58550 0.83840 0.74960 -0.16400
H 	H 	0.63380 0.87130 0.60350 0.07500
C 	C 	0.60270 0.79190 0.75380 0.20300
C 	C 	0.53930 0.85250 0.75130 0.22300
C 	C 	0.56440 0.75400 0.75460 -0.03500
O 	O 	0.64360 0.78140 0.75650 -0.21100
C 	C 	0.50330 0.81560 0.75360 -0.06600
O 	O 	0.52940 0.89360 0.75050 -0.24100
C 	C 	0.51700 0.76810 0.75370 0.02900
C 	C 	0.57780 0.70790 0.75470 -0.04300
C 	C 	0.45780 0.82570 0.75250 -0.00300
H 	H 	0.60930 0.69930 0.75620 0.07200
H 	H 	0.44920 0.85720 0.75000 0.04400
H 	H 	0.80600 0.08600 0.73700 0.00300
C 	C 	0.80840 0.12760 0.68000 0.06500
O 	O 	0.83000 0.24110 0.51400 -0.24000
N 	N 	0.78530 0.16240 0.64110 -0.01200
C 	C 	0.75130 0.19410 0.66800 -0.30000
C 	C 	0.78560 0.18200 0.53400 -0.60900
H 	H 	0.73750 0.18440 0.72940 0.11500
H 	H 	0.72740 0.19540 0.61870 0.12700
H 	H 	0.76510 0.22460 0.67610 0.12700
H 	H 	0.80860 0.20630 0.52880 0.32400
H 	H 	0.75520 0.19400 0.51830 0.23200
H 	H 	0.79340 0.15680 0.48950 0.23400
Sr	Sr	0.80940 0.49781 0.37691 1.52100
O 	O 	0.74030 0.54610 0.32290 -0.53300
O 	O 	0.86780 0.44550 0.47360 -0.35600
O 	O 	0.70200 0.50990 0.68240 -0.52700
O 	O 	0.67070 0.57070 0.76110 -0.40400
O 	O 	0.68930 0.58880 0.24450 -0.43600
C 	C 	0.70500 0.57120 0.32040 0.39300
C 	C 	0.86970 0.40860 0.53400 0.08900
C 	C 	0.67940 0.58200 0.41560 -0.09200
N 	N 	0.91050 0.39310 0.49600 -0.06200
C 	C 	0.69130 0.56040 0.50170 0.03300
C 	C 	0.64500 0.61630 0.41350 -0.06700
C 	C 	0.92700 0.42300 0.40500 -0.31200
C 	C 	0.68190 0.54980 0.68440 0.34300
H 	H 	0.71430 0.53720 0.50190 0.00300
C 	C 	0.66980 0.57270 0.58720 -0.07600
C 	C 	0.62410 0.62880 0.50120 0.11400
H 	H 	0.63620 0.63050 0.35490 0.07800
H 	H 	0.96100 0.42220 0.40050 0.13500
H 	H 	0.91410 0.41030 0.34570 0.13800
H 	H 	0.91720 0.45500 0.41230 0.13300
C 	C 	0.63580 0.60750 0.58820 -0.06700
C 	C 	0.58840 0.66450 0.50040 -0.16400
H 	H 	0.62130 0.61620 0.64650 0.07500
C 	C 	0.54190 0.64730 0.49620 0.20300
C 	C 	0.60250 0.71070 0.49870 0.22300
C 	C 	0.50400 0.68560 0.49540 -0.03500
O 	O 	0.53140 0.60640 0.49350 -0.21100
C 	C 	0.56560 0.74670 0.49640 -0.06600
O 	O 	0.64360 0.72060 0.49950 -0.24100
C 	C 	0.51810 0.73300 0.49630 0.02900
C 	C 	0.45790 0.67220 0.49530 -0.04300
C 	C 	0.57570 0.79220 0.49750 -0.00300
H 	H 	0.44930 0.64070 0.49380 0.07200
H 	H 	0.60720 0.80080 0.50000 0.04400
H 	H 	0.83600 0.44400 0.51300 0.00300
C 	C 	0.87760 0.44160 0.57000 0.06600
O 	O 	0.99110 0.42000 0.73600 -0.24000
N 	N 	0.91240 0.46470 0.60890 -0.01200
C 	C 	0.94410 0.49870 0.58200 -0.30000
C 	C 	0.93200 0.46440 0.71600 -0.60900
H 	H 	0.93440 0.51250 0.52060 0.11500
H 	H 	0.94540 0.52260 0.63130 0.12700
H 	H 	0.97460 0.48490 0.57390 0.12600
H 	H 	0.95630 0.44140 0.72120 0.32400
H 	H 	0.94400 0.49480 0.73170 0.23200
H 	H 	0.90680 0.45660 0.76050 0.23400
Sr	Sr	0.30940 0.99781 0.87691 1.52200
O 	O 	0.24030 0.04610 0.82290 -0.53200
O 	O 	0.36780 0.94550 0.97360 -0.35500
O 	O 	0.20200 0.00990 0.18240 -0.52700
O 	O 	0.17070 0.07070 0.26110 -0.40400
O 	O 	0.18930 0.08880 0.74450 -0.43600
C 	C 	0.20500 0.07120 0.82040 0.39200
C 	C 	0.36970 0.90860 0.03400 0.08800
C 	C 	0.17940 0.08200 0.91560 -0.08900
N 	N 	0.41050 0.89310 0.99600 -0.06200
C 	C 	0.19130 0.06040 0.00170 0.02900
C 	C 	0.14500 0.11630 0.91350 -0.06600
C 	C 	0.42700 0.92300 0.90500 -0.31200
C 	C 	0.18190 0.04980 0.18440 0.34300
H 	H 	0.21430 0.03720 0.00190 0.00400
C 	C 	0.16980 0.07270 0.08720 -0.07500
C 	C 	0.12410 0.12880 0.00120 0.11300
H 	H 	0.13620 0.13050 0.85490 0.07900
H 	H 	0.46100 0.92220 0.90050 0.13500
H 	H 	0.41410 0.91030 0.84570 0.13800
H 	H 	0.41720 0.95500 0.91230 0.13400
C 	C 	0.13580 0.10750 0.08820 -0.06900
C 	C 	0.08840 0.16450 0.00040 -0.16900
H 	H 	0.12130 0.11620 0.14650 0.07500
C 	C 	0.04190 0.14730 0.99620 0.20600
C 	C 	0.10250 0.21070 0.99870 0.22700
C 	C 	0.00400 0.18560 0.99540 -0.03500
O 	O 	0.03140 0.10640 0.99350 -0.21100
C 	C 	0.06560 0.24670 0.99640 -0.06900
O 	O 	0.14360 0.22060 0.99950 -0.24100
C 	C 	0.01810 0.23300 0.99630 0.03000
C 	C 	0.95790 0.17220 0.99530 -0.04500
C 	C 	0.07570 0.29220 0.99750 0.00300
H 	H 	0.94930 0.14070 0.99380 0.07300
H 	H 	0.10720 0.30080 -0.00000 0.04100
H 	H 	0.33600 0.94400 0.01300 0.00300
C 	C 	0.37760 0.94160 0.07000 0.06600
O 	O 	0.49110 0.92000 0.23600 -0.24000
N 	N 	0.41240 0.96470 0.10890 -0.01300
C 	C 	0.44410 0.99870 0.08200 -0.29200
C 	C 	0.43200 0.96440 0.21600 -0.61000
H 	H 	0.43440 0.01250 0.02060 0.11200
H 	H 	0.44540 0.02260 0.13130 0.12400
H 	H 	0.47460 0.98490 0.07390 0.12400
H 	H 	0.45630 0.94140 0.22120 0.32500
H 	H 	0.44400 0.99480 0.23170 0.23200
H 	H 	0.40680 0.95660 0.26050 0.23400
Sr	Sr	0.69060 0.50219 0.87691 1.52200
O 	O 	0.75970 0.45390 0.82290 -0.53200
O 	O 	0.63220 0.55450 0.97360 -0.35400
O 	O 	0.79800 0.49010 0.18240 -0.52700
O 	O 	0.82930 0.42930 0.26110 -0.40400
O 	O 	0.81070 0.41120 0.74450 -0.43600
C 	C 	0.79500 0.42880 0.82040 0.39300
C 	C 	0.63030 0.59140 0.03400 0.08700
C 	C 	0.82060 0.41800 0.91560 -0.09000
N 	N 	0.58950 0.60690 0.99600 -0.06100
C 	C 	0.80870 0.43960 0.00170 0.03000
C 	C 	0.85500 0.38370 0.91350 -0.06600
C 	C 	0.57300 0.57700 0.90500 -0.31200
C 	C 	0.81810 0.45020 0.18440 0.34300
H 	H 	0.78570 0.46280 0.00190 0.00400
C 	C 	0.83020 0.42730 0.08720 -0.07500
C 	C 	0.87590 0.37120 0.00120 0.11400
H 	H 	0.86380 0.36950 0.85490 0.07800
H 	H 	0.53900 0.57780 0.90050 0.13500
H 	H 	0.58590 0.58970 0.84570 0.13800
H 	H 	0.58280 0.54500 0.91230 0.13400
C 	C 	0.86420 0.39250 0.08820 -0.06800
C 	C 	0.91160 0.33550 0.00040 -0.16800
H 	H 	0.87870 0.38380 0.14650 0.07500
C 	C 	0.95810 0.35270 0.99620 0.20600
C 	C 	0.89750 0.28930 0.99870 0.22700
C 	C 	0.99600 0.31440 0.99540 -0.03500
O 	O 	0.96860 0.39360 0.99350 -0.21100
C 	C 	0.93440 0.25330 0.99640 -0.06900
O 	O 	0.85640 0.27940 0.99950 -0.24100
C 	C 	0.98190 0.26700 0.99630 0.03000
C 	C 	0.04210 0.32780 0.99530 -0.04500
C 	C 	0.92430 0.20780 0.99750 0.00300
H 	H 	0.05070 0.35930 0.99380 0.07300
H 	H 	0.89280 0.19920 -0.00000 0.04100
H 	H 	0.66400 0.55600 0.01300 0.00200
C 	C 	0.62240 0.55840 0.07000 0.06600
O 	O 	0.50890 0.58000 0.23600 -0.24000
N 	N 	0.58760 0.53530 0.10890 -0.01200
C 	C 	0.55590 0.50130 0.08200 -0.29900
C 	C 	0.56800 0.53560 0.21600 -0.60900
H 	H 	0.56560 0.48750 0.02060 0.11400
H 	H 	0.55460 0.47740 0.13130 0.12600
H 	H 	0.52540 0.51510 0.07390 0.12600
H 	H 	0.54370 0.55860 0.22120 0.32400
H 	H 	0.55600 0.50520 0.23170 0.23200
H 	H 	0.59320 0.54340 0.26050 0.23400
Sr	Sr	0.19060 0.00219 0.37691 1.52200
O 	O 	0.25970 0.95390 0.32290 -0.53200
O 	O 	0.13220 0.05450 0.47360 -0.35600
O 	O 	0.29800 0.99010 0.68240 -0.52700
O 	O 	0.32930 0.92930 0.76110 -0.40400
O 	O 	0.31070 0.91120 0.24450 -0.43600
C 	C 	0.29500 0.92880 0.32040 0.39300
C 	C 	0.13030 0.09140 0.53400 0.08900
C 	C 	0.32060 0.91800 0.41560 -0.09100
N 	N 	0.08950 0.10690 0.49600 -0.06200
C 	C 	0.30870 0.93960 0.50170 0.03300
C 	C 	0.35500 0.88370 0.41350 -0.06700
C 	C 	0.07300 0.07700 0.40500 -0.31200
C 	C 	0.31810 0.95020 0.68440 0.34300
H 	H 	0.28570 0.96280 0.50190 0.00300
C 	C 	0.33020 0.92730 0.58720 -0.07600
C 	C 	0.37590 0.87120 0.50120 0.11400
H 	H 	0.36380 0.86950 0.35490 0.07800
H 	H 	0.03900 0.07780 0.40050 0.13500
H 	H 	0.08590 0.08970 0.34570 0.13800
H 	H 	0.08280 0.04500 0.41230 0.13300
C 	C 	0.36420 0.89250 0.58820 -0.06700
C 	C 	0.41160 0.83550 0.50040 -0.16400
H 	H 	0.37870 0.88380 0.64650 0.07500
C 	C 	0.45810 0.85270 0.49620 0.20300
C 	C 	0.39750 0.78930 0.49870 0.22300
C 	C 	0.49600 0.81440 0.49540 -0.03500
O 	O 	0.46860 0.89360 0.49350 -0.21100
C 	C 	0.43440 0.75330 0.49640 -0.06600
O 	O 	0.35640 0.77940 0.49950 -0.24100
C 	C 	0.48190 0.76700 0.49630 0.02900
C 	C 	0.54210 0.82780 0.49530 -0.04300
C 	C 	0.42430 0.70780 0.49750 -0.00300
H 	H 	0.55070 0.85930 0.49380 0.07200
H 	H 	0.39280 0.69920 0.50000 0.04400
H 	H 	0.16400 0.05600 0.51300 0.00300
C 	C 	0.12240 0.05840 0.57000 0.06600
O 	O 	0.00890 0.08000 0.73600 -0.24000
N 	N 	0.08760 0.03530 0.60890 -0.01200
C 	C 	0.05590 0.00130 0.58200 -0.29700
C 	C 	0.06800 0.03560 0.71600 -0.61000
H 	H 	0.06560 0.98750 0.52060 0.11500
H 	H 	0.05460 0.97740 0.63130 0.12600
H 	H 	0.02540 0.01510 0.57390 0.12600
H 	H 	0.04370 0.05860 0.72120 0.32500
H 	H 	0.05600 0.00520 0.73170 0.23200
H 	H 	0.09320 0.04340 0.76050 0.23400
Sr	Sr	0.75219 0.55940 0.12691 1.52100
O 	O 	0.70390 0.49030 0.07290 -0.53300
O 	O 	0.80450 0.61780 0.22360 -0.35600
O 	O 	0.74010 0.45200 0.43240 -0.52700
O 	O 	0.67930 0.42070 0.51110 -0.40400
O 	O 	0.66120 0.43930 0.99450 -0.43400
C 	C 	0.67880 0.45500 0.07040 0.39100
C 	C 	0.84140 0.61970 0.28400 0.08900
C 	C 	0.66800 0.42940 0.16560 -0.09100
N 	N 	0.85690 0.66050 0.24600 -0.06200
C 	C 	0.68960 0.44130 0.25170 0.03300
C 	C 	0.63370 0.39500 0.16350 -0.06700
C 	C 	0.82700 0.67700 0.15500 -0.31200
C 	C 	0.70020 0.43190 0.43440 0.34300
H 	H 	0.71280 0.46430 0.25190 0.00300
C 	C 	0.67730 0.41980 0.33720 -0.07600
C 	C 	0.62120 0.37410 0.25120 0.11400
H 	H 	0.61950 0.38620 0.10490 0.07800
H 	H 	0.82780 0.71100 0.15050 0.13500
H 	H 	0.83970 0.66410 0.09570 0.13800
H 	H 	0.79500 0.66720 0.16230 0.13300
C 	C 	0.64250 0.38580 0.33820 -0.06800
C 	C 	0.58550 0.33840 0.25040 -0.16400
H 	H 	0.63380 0.37130 0.39650 0.07500
C 	C 	0.60270 0.29190 0.24620 0.20300
C 	C 	0.53930 0.35250 0.24870 0.22300
C 	C 	0.56440 0.25400 0.24540 -0.03500
O 	O 	0.64360 0.28140 0.24350 -0.21100
C 	C 	0.50330 0.31560 0.24640 -0.06600
O 	O 	0.52940 0.39360 0.24950 -0.24100
C 	C 	0.51700 0.26810 0.24630 0.02900
C 	C 	0.57780 0.20790 0.24530 -0.04300
C 	C 	0.45780 0.32570 0.24750 -0.00300
H 	H 	0.60930 0.19930 0.24380 0.07100
H 	H 	0.44920 0.35720 0.25000 0.04400
H 	H 	0.80600 0.58600 0.26300 0.00300
C 	C 	0.80840 0.62760 0.32000 0.06600
O 	O 	0.83000 0.74110 0.48600 -0.24000
N 	N 	0.78530 0.66240 0.35890 -0.01200
C 	C 	0.75130 0.69410 0.33200 -0.30000
C 	C 	0.78560 0.68200 0.46600 -0.60900
H 	H 	0.73750 0.68440 0.27060 0.11500
H 	H 	0.72740 0.69540 0.38130 0.12700
H 	H 	0.76510 0.72460 0.32390 0.12700
H 	H 	0.80860 0.70630 0.47120 0.32400
H 	H 	0.75520 0.69400 0.48170 0.23200
H 	H 	0.79340 0.65680 0.51050 0.23400
Sr	Sr	0.25219 0.05940 0.62691 1.52200
O 	O 	0.20390 0.99030 0.57290 -0.53200
O 	O 	0.30450 0.11780 0.72360 -0.35600
O 	O 	0.24010 0.95200 0.93240 -0.52700
O 	O 	0.17930 0.92070 0.01110 -0.40400
O 	O 	0.16120 0.93930 0.49450 -0.43600
C 	C 	0.17880 0.95500 0.57040 0.39300
C 	C 	0.34140 0.11970 0.78400 0.08900
C 	C 	0.16800 0.92940 0.66560 -0.09200
N 	N 	0.35690 0.16050 0.74600 -0.06200
C 	C 	0.18960 0.94130 0.75170 0.03300
C 	C 	0.13370 0.89500 0.66350 -0.06700
C 	C 	0.32700 0.17700 0.65500 -0.31200
C 	C 	0.20020 0.93190 0.93440 0.34400
H 	H 	0.21280 0.96430 0.75190 0.00300
C 	C 	0.17730 0.91980 0.83720 -0.07600
C 	C 	0.12120 0.87410 0.75120 0.11400
H 	H 	0.11950 0.88620 0.60490 0.07800
H 	H 	0.32780 0.21100 0.65050 0.13500
H 	H 	0.33970 0.16410 0.59570 0.13800
H 	H 	0.29500 0.16720 0.66230 0.13300
C 	C 	0.14250 0.88580 0.83820 -0.06700
C 	C 	0.08550 0.83840 0.75040 -0.16400
H 	H 	0.13380 0.87130 0.89650 0.07500
C 	C 	0.10270 0.79190 0.74620 0.20300
C 	C 	0.03930 0.85250 0.74870 0.22300
C 	C 	0.06440 0.75400 0.74540 -0.03500
O 	O 	0.14360 0.78140 0.74350 -0.21100
C 	C 	0.00330 0.81560 0.74640 -0.06700
O 	O 	0.02940 0.89360 0.74950 -0.24100
C 	C 	0.01700 0.76810 0.74630 0.02900
C 	C 	0.07780 0.70790 0.74530 -0.04300
C 	C 	0.95780 0.82570 0.74750 -0.00300
H 	H 	0.10930 0.69930 0.74380 0.07200
H 	H 	0.94920 0.85720 0.75000 0.04400
H 	H 	0.30600 0.08600 0.76300 0.00300
C 	C 	0.30840 0.12760 0.82000 0.06600
O 	O 	0.33000 0.24110 0.98600 -0.23800
N 	N 	0.28530 0.16240 0.85890 -0.01200
C 	C 	0.25130 0.19410 0.83200 -0.30100
C 	C 	0.28560 0.18200 0.96600 -0.60100
H 	H 	0.23750 0.18440 0.77060 0.11500
H 	H 	0.22740 0.19540 0.88130 0.12700
H 	H 	0.26510 0.22460 0.82390 0.12700
H 	H 	0.30860 0.20630 0.97120 0.32200
H 	H 	0.25520 0.19400 0.98170 0.23000
H 	H 	0.29340 0.15680 0.01050 0.23000
Sr	Sr	0.74781 0.44060 0.62691 1.52100
O 	O 	0.79610 0.50970 0.57290 -0.53300
O 	O 	0.69550 0.38220 0.72360 -0.35600
O 	O 	0.75990 0.54800 0.93240 -0.52700
O 	O 	0.82070 0.57930 0.01110 -0.40500
O 	O 	0.83880 0.56070 0.49450 -0.43600
C 	C 	0.82120 0.54500 0.57040 0.39300
C 	C 	0.65860 0.38030 0.78400 0.08900
C 	C 	0.83200 0.57060 0.66560 -0.09200
N 	N 	0.64310 0.33950 0.74600 -0.06200
C 	C 	0.81040 0.55870 0.75170 0.03300
C 	C 	0.86630 0.60500 0.66350 -0.06700
C 	C 	0.67300 0.32300 0.65500 -0.31200
C 	C 	0.79980 0.56810 0.93440 0.34500
H 	H 	0.78720 0.53570 0.75190 0.00300
C 	C 	0.82270 0.58020 0.83720 -0.07700
C 	C 	0.87880 0.62590 0.75120 0.11400
H 	H 	0.88050 0.61380 0.60490 0.07800
H 	H 	0.67220 0.28900 0.65050 0.13500
H 	H 	0.66030 0.33590 0.59570 0.13800
H 	H 	0.70500 0.33280 0.66230 0.13300
C 	C 	0.85750 0.61420 0.83820 -0.06700
C 	C 	0.91450 0.66160 0.75040 -0.16400
H 	H 	0.86620 0.62870 0.89650 0.07500
C 	C 	0.89730 0.70810 0.74620 0.20300
C 	C 	0.96070 0.64750 0.74870 0.22300
C 	C 	0.93560 0.74600 0.74540 -0.03500
O 	O 	0.85640 0.71860 0.74350 -0.21100
C 	C 	0.99670 0.68440 0.74640 -0.06600
O 	O 	0.97060 0.60640 0.74950 -0.24100
C 	C 	0.98300 0.73190 0.74630 0.02900
C 	C 	0.92220 0.79210 0.74530 -0.04300
C 	C 	0.04220 0.67430 0.74750 -0.00300
H 	H 	0.89070 0.80070 0.74380 0.07200
H 	H 	0.05080 0.64280 0.75000 0.04400
H 	H 	0.69400 0.41400 0.76300 0.00300
C 	C 	0.69160 0.37240 0.82000 0.06600
O 	O 	0.67000 0.25890 0.98600 -0.23900
N 	N 	0.71470 0.33760 0.85890 -0.01200
C 	C 	0.74870 0.30590 0.83200 -0.30000
C 	C 	0.71440 0.31800 0.96600 -0.60200
H 	H 	0.76250 0.31560 0.77060 0.11500
H 	H 	0.77260 0.30460 0.88130 0.12700
H 	H 	0.73490 0.27540 0.82390 0.12700
H 	H 	0.69140 0.29370 0.97120 0.32200
H 	H 	0.74480 0.30600 0.98170 0.23000
H 	H 	0.70660 0.34320 0.01050 0.23000
Sr	Sr	0.24781 0.94060 0.12691 1.52200
O 	O 	0.29610 0.00970 0.07290 -0.53200
O 	O 	0.19550 0.88220 0.22360 -0.35600
O 	O 	0.25990 0.04800 0.43240 -0.52700
O 	O 	0.32070 0.07930 0.51110 -0.40400
O 	O 	0.33880 0.06070 0.99450 -0.43300
C 	C 	0.32120 0.04500 0.07040 0.39100
C 	C 	0.15860 0.88030 0.28400 0.08900
C 	C 	0.33200 0.07060 0.16560 -0.09100
N 	N 	0.14310 0.83950 0.24600 -0.06200
C 	C 	0.31040 0.05870 0.25170 0.03200
C 	C 	0.36630 0.10500 0.16350 -0.06700
C 	C 	0.17300 0.82300 0.15500 -0.31200
C 	C 	0.29980 0.06810 0.43440 0.34300
H 	H 	0.28720 0.03570 0.25190 0.00300
C 	C 	0.32270 0.08020 0.33720 -0.07600
C 	C 	0.37880 0.12590 0.25120 0.11400
H 	H 	0.38050 0.11380 0.10490 0.07800
H 	H 	0.17220 0.78900 0.15050 0.13500
H 	H 	0.16030 0.83590 0.09570 0.13800
H 	H 	0.20500 0.83280 0.16230 0.13300
C 	C 	0.35750 0.11420 0.33820 -0.06800
C 	C 	0.41450 0.16160 0.25040 -0.16400
H 	H 	0.36620 0.12870 0.39650 0.07500
C 	C 	0.39730 0.20810 0.24620 0.20300
C 	C 	0.46070 0.14750 0.24870 0.22300
C 	C 	0.43560 0.24600 0.24540 -0.03500
O 	O 	0.35640 0.21860 0.24350 -0.21100
C 	C 	0.49670 0.18440 0.24640 -0.06600
O 	O 	0.47060 0.10640 0.24950 -0.24100
C 	C 	0.48300 0.23190 0.24630 0.02900
C 	C 	0.42220 0.29210 0.24530 -0.04300
C 	C 	0.54220 0.17430 0.24750 -0.00300
H 	H 	0.39070 0.30070 0.24380 0.07100
H 	H 	0.55080 0.14280 0.25000 0.04400
H 	H 	0.19400 0.91400 0.26300 0.00300
C 	C 	0.19160 0.87240 0.32000 0.06600
O 	O 	0.17000 0.75890 0.48600 -0.24000
N 	N 	0.21470 0.83760 0.35890 -0.01200
C 	C 	0.24870 0.80590 0.33200 -0.30000
C 	C 	0.21440 0.81800 0.46600 -0.60900
H 	H 	0.26250 0.81560 0.27060 0.11500
H 	H 	0.27260 0.80460 0.38130 0.12700
H 	H 	0.23490 0.77540 0.32390 0.12700
H 	H 	0.19140 0.79370 0.47120 0.32400
H 	H 	0.24480 0.80600 0.48170 0.23200
H 	H 	0.20660 0.84320 0.51050 0.23400
