data_crystal

_cell_length_a 16.71860
_cell_length_b 16.71860
_cell_length_c 16.71860
_cell_angle_alpha 109.47100
_cell_angle_beta  109.47100
_cell_angle_gamma 109.47100

_symmetry_space_group_name_	'P 1'
_symmetry_space_group_name_H-M	'P 1'

loop_
_symmetry_equiv_pos_as_xyz
  x,y,z

loop_
_atom_site_label
_atom_site_type_symbol
_atom_site_fract_x
_atom_site_fract_y
_atom_site_fract_z
_atom_site_charge
Be	Be	0.62500 0.37500 0.25000 1.48100
Be	Be	0.87500 0.12500 0.75000 1.48100
Be	Be	0.25000 0.87500 0.62500 1.48100
Be	Be	0.75000 0.62500 0.87500 1.48200
Be	Be	0.37500 0.75000 0.12500 1.48200
Be	Be	0.12500 0.25000 0.37500 1.48200
H 	H 	0.66220 0.51350 0.01710 0.06100
H 	H 	0.99640 0.64510 0.48290 0.06100
H 	H 	0.50360 0.98650 0.64870 0.06100
H 	H 	0.83780 0.85490 0.85130 0.06000
H 	H 	0.14870 0.50360 0.48650 0.06100
H 	H 	0.35130 0.83780 0.35490 0.06100
H 	H 	0.51710 0.66220 0.01350 0.06100
H 	H 	0.98290 0.99640 0.14510 0.06000
H 	H 	0.64510 0.98290 0.49640 0.06100
H 	H 	0.51350 0.51710 0.16220 0.06100
H 	H 	0.85490 0.35130 0.33780 0.06100
H 	H 	0.98650 0.14870 0.00360 0.06100
H 	H 	0.14510 0.49640 0.98290 0.06100
H 	H 	0.01350 0.16220 0.51710 0.06100
H 	H 	0.35490 0.33780 0.35130 0.06100
H 	H 	0.48650 0.00360 0.14870 0.06100
H 	H 	0.16220 0.01710 0.51350 0.06100
H 	H 	0.49640 0.48290 0.64510 0.06100
H 	H 	0.00360 0.64870 0.98650 0.06100
H 	H 	0.33780 0.85130 0.85490 0.06100
H 	H 	0.64870 0.48650 0.50360 0.06100
H 	H 	0.85130 0.35490 0.83780 0.06100
H 	H 	0.01710 0.01350 0.66220 0.06200
H 	H 	0.48290 0.14510 0.99640 0.06100
C 	C 	0.62319 0.53418 0.03629 0.07200
C 	C 	0.59299 0.50583 0.09542 -0.11000
C 	C 	0.62700 0.44490 0.13170 0.42900
C 	C 	0.99789 0.58690 0.46371 0.07300
C 	C 	0.91041 0.49757 0.40458 -0.11100
C 	C 	0.81320 0.49530 0.36830 0.43000
C 	C 	0.50211 0.96582 0.58901 0.07200
C 	C 	0.58959 0.99417 0.58716 -0.11000
C 	C 	0.68680 0.05510 0.68210 0.42900
C 	C 	0.87681 0.91310 0.91099 0.07400
C 	C 	0.90701 0.00243 0.91284 -0.11300
C 	C 	0.87300 0.00470 0.81790 0.43000
C 	C 	0.08901 0.50211 0.46582 0.07200
C 	C 	0.08716 0.58959 0.49417 -0.11200
C 	C 	0.18210 0.68680 0.55510 0.43000
C 	C 	0.41099 0.87681 0.41310 0.07200
C 	C 	0.41284 0.90701 0.50243 -0.11000
C 	C 	0.31790 0.87300 0.50470 0.42900
C 	C 	0.53629 0.62319 0.03418 0.07200
C 	C 	0.59542 0.59299 0.00583 -0.11000
C 	C 	0.63170 0.62700 0.94490 0.42900
C 	C 	0.96371 0.99789 0.08690 0.07500
C 	C 	0.90458 0.91041 0.99757 -0.11200
C 	C 	0.86830 0.81320 0.99530 0.42900
C 	C 	0.58690 0.96371 0.49789 0.07200
C 	C 	0.49757 0.90458 0.41041 -0.11000
C 	C 	0.49530 0.86830 0.31320 0.42900
C 	C 	0.53418 0.53629 0.12319 0.07200
C 	C 	0.50583 0.59542 0.09299 -0.11000
C 	C 	0.44490 0.63170 0.12700 0.42900
C 	C 	0.91310 0.41099 0.37681 0.07300
C 	C 	0.00243 0.41284 0.40701 -0.11100
C 	C 	0.00470 0.31790 0.37300 0.42900
C 	C 	0.96582 0.08901 0.00211 0.07400
C 	C 	0.99417 0.08716 0.08959 -0.11200
C 	C 	0.05510 0.18210 0.18680 0.42900
C 	C 	0.08690 0.49789 0.96371 0.07300
C 	C 	0.99757 0.41041 0.90458 -0.11100
C 	C 	0.99530 0.31320 0.86830 0.42800
C 	C 	0.03418 0.12319 0.53629 0.07100
C 	C 	0.00583 0.09299 0.59542 -0.10900
C 	C 	0.94490 0.12700 0.63170 0.42900
C 	C 	0.41310 0.37681 0.41099 0.07200
C 	C 	0.50243 0.40701 0.41284 -0.11000
C 	C 	0.50470 0.37300 0.31790 0.42900
C 	C 	0.46582 0.00211 0.08901 0.07300
C 	C 	0.49417 0.08959 0.08716 -0.11200
C 	C 	0.55510 0.18680 0.18210 0.43000
C 	C 	0.12319 0.03629 0.53418 0.07100
C 	C 	0.09299 0.09542 0.50583 -0.11000
C 	C 	0.12700 0.13170 0.44490 0.42900
C 	C 	0.49789 0.46371 0.58690 0.07200
C 	C 	0.41041 0.40458 0.49757 -0.11000
C 	C 	0.31320 0.36830 0.49530 0.42900
C 	C 	0.00211 0.58901 0.96582 0.07300
C 	C 	0.08959 0.58716 0.99417 -0.11000
C 	C 	0.18680 0.68210 0.05510 0.42800
C 	C 	0.37681 0.91099 0.91310 0.07300
C 	C 	0.40701 0.91284 0.00243 -0.11200
C 	C 	0.37300 0.81790 0.00470 0.42900
C 	C 	0.58901 0.46582 0.50211 0.07200
C 	C 	0.58716 0.49417 0.58959 -0.11000
C 	C 	0.68210 0.55510 0.68680 0.42900
C 	C 	0.91099 0.41310 0.87681 0.07200
C 	C 	0.91284 0.50243 0.90701 -0.11200
C 	C 	0.81790 0.50470 0.87300 0.43000
C 	C 	0.03629 0.03418 0.62319 0.07100
C 	C 	0.09542 0.00583 0.59299 -0.10900
C 	C 	0.13170 0.94490 0.62700 0.42800
C 	C 	0.46371 0.08690 0.99789 0.07300
C 	C 	0.40458 0.99757 0.91041 -0.11100
C 	C 	0.36830 0.99530 0.81320 0.42900
O 	O 	0.60125 0.43072 0.19045 -0.56100
O 	O 	0.67120 0.41090 0.09810 -0.26100
O 	O 	0.74027 0.41080 0.30955 -0.56100
O 	O 	0.81280 0.57310 0.40190 -0.26100
O 	O 	0.75973 0.06928 0.67053 -0.56100
O 	O 	0.68720 0.08910 0.76030 -0.26100
O 	O 	0.89875 0.08920 0.82947 -0.56100
O 	O 	0.82880 0.92690 0.73970 -0.26100
O 	O 	0.17053 0.75973 0.56928 -0.56100
O 	O 	0.26030 0.68720 0.58910 -0.26100
O 	O 	0.32947 0.89875 0.58920 -0.56100
O 	O 	0.23970 0.82880 0.42690 -0.26200
O 	O 	0.69045 0.60125 0.93072 -0.56100
O 	O 	0.59810 0.67120 0.91090 -0.26100
O 	O 	0.80955 0.74027 0.91080 -0.56100
O 	O 	0.90190 0.81280 0.07310 -0.26100
O 	O 	0.41080 0.80955 0.24027 -0.56100
O 	O 	0.57310 0.90190 0.31280 -0.26100
O 	O 	0.43072 0.69045 0.10125 -0.56100
O 	O 	0.41090 0.59810 0.17120 -0.26200
O 	O 	0.08920 0.32947 0.39875 -0.56100
O 	O 	0.92690 0.23970 0.32880 -0.26100
O 	O 	0.06928 0.17053 0.25973 -0.56100
O 	O 	0.08910 0.26030 0.18720 -0.26200
O 	O 	0.91080 0.24027 0.80955 -0.56100
O 	O 	0.07310 0.31280 0.90190 -0.26000
O 	O 	0.93072 0.10125 0.69045 -0.56100
O 	O 	0.91090 0.17120 0.59810 -0.26100
O 	O 	0.58920 0.39875 0.32947 -0.56100
O 	O 	0.42690 0.32880 0.23970 -0.26200
O 	O 	0.56928 0.25973 0.17053 -0.56100
O 	O 	0.58910 0.18720 0.26030 -0.26100
O 	O 	0.10125 0.19045 0.43072 -0.56100
O 	O 	0.17120 0.09810 0.41090 -0.26100
O 	O 	0.24027 0.30955 0.41080 -0.56100
O 	O 	0.31280 0.40190 0.57310 -0.26100
O 	O 	0.25973 0.67053 0.06928 -0.56100
O 	O 	0.18720 0.76030 0.08910 -0.26200
O 	O 	0.39875 0.82947 0.08920 -0.56100
O 	O 	0.32880 0.73970 0.92690 -0.26100
O 	O 	0.67053 0.56928 0.75973 -0.56100
O 	O 	0.76030 0.58910 0.68720 -0.26100
O 	O 	0.82947 0.58920 0.89875 -0.56100
O 	O 	0.73970 0.42690 0.82880 -0.26100
O 	O 	0.19045 0.93072 0.60125 -0.56100
O 	O 	0.09810 0.91090 0.67120 -0.26100
O 	O 	0.30955 0.91080 0.74027 -0.56100
O 	O 	0.40190 0.07310 0.81280 -0.26100
