data_crystal

_cell_length_a 23.12900
_cell_length_b 39.47000
_cell_length_c 40.61000
_cell_angle_alpha 90.00000
_cell_angle_beta  90.00000
_cell_angle_gamma 90.00000

_symmetry_space_group_name_	'P 1'
_symmetry_space_group_name_H-M	'P 1'

loop_
_symmetry_equiv_pos_as_xyz
  x,y,z

loop_
_atom_site_label
_atom_site_type_symbol
_atom_site_fract_x
_atom_site_fract_y
_atom_site_fract_z
_atom_site_charge
O 	O 	0.62403 0.66489 0.34804 -0.46000
O 	O 	0.70849 0.64771 0.36414 -0.42700
O 	O 	0.89711 0.83597 0.18099 -0.41900
O 	O 	0.81132 0.84323 0.16256 -0.45700
C 	C 	0.67120 0.71319 0.30564 0.03800
H 	H 	0.63140 0.71380 0.30910 0.04200
C 	C 	0.69640 0.73519 0.28359 -0.10600
H 	H 	0.67320 0.75070 0.27260 0.07500
C 	C 	0.75510 0.73491 0.27726 0.05200
C 	C 	0.78810 0.71128 0.29398 -0.11100
H 	H 	0.82760 0.70970 0.29000 0.07500
C 	C 	0.76270 0.69034 0.31635 0.04200
H 	H 	0.78610 0.67530 0.32800 0.04100
C 	C 	0.70490 0.69021 0.32261 -0.10000
C 	C 	0.85910 0.79221 0.23157 0.02600
H 	H 	0.89730 0.79920 0.23310 0.04300
C 	C 	0.83530 0.76993 0.25446 -0.09200
H 	H 	0.85850 0.76220 0.27160 0.06700
C 	C 	0.77900 0.75881 0.25296 0.03500
C 	C 	0.74530 0.77049 0.22680 -0.09000
H 	H 	0.70740 0.76300 0.22460 0.07100
C 	C 	0.76770 0.79327 0.20394 0.02800
H 	H 	0.74430 0.80140 0.18710 0.06000
C 	C 	0.82320 0.80367 0.20610 -0.09300
C 	C 	0.67860 0.66596 0.34654 0.32800
C 	C 	0.84650 0.82872 0.18262 0.34500
O 	O 	0.62403 0.16489 0.84804 -0.46100
O 	O 	0.70849 0.14771 0.86414 -0.42800
O 	O 	0.89711 0.33597 0.68099 -0.42000
O 	O 	0.81132 0.34323 0.66256 -0.45800
C 	C 	0.67120 0.21319 0.80564 0.03700
H 	H 	0.63140 0.21380 0.80910 0.04100
C 	C 	0.69640 0.23519 0.78359 -0.10700
H 	H 	0.67320 0.25070 0.77260 0.07400
C 	C 	0.75510 0.23491 0.77726 0.05200
C 	C 	0.78810 0.21128 0.79398 -0.11100
H 	H 	0.82760 0.20970 0.79000 0.07500
C 	C 	0.76270 0.19034 0.81635 0.04200
H 	H 	0.78610 0.17530 0.82800 0.04100
C 	C 	0.70490 0.19021 0.82261 -0.10000
C 	C 	0.85910 0.29221 0.73157 0.02600
H 	H 	0.89730 0.29920 0.73310 0.04300
C 	C 	0.83530 0.26993 0.75446 -0.09200
H 	H 	0.85850 0.26220 0.77160 0.06700
C 	C 	0.77900 0.25881 0.75296 0.03500
C 	C 	0.74530 0.27049 0.72680 -0.09000
H 	H 	0.70740 0.26300 0.72460 0.07100
C 	C 	0.76770 0.29327 0.70394 0.02800
H 	H 	0.74430 0.30140 0.68710 0.06000
C 	C 	0.82320 0.30367 0.70610 -0.09300
C 	C 	0.67860 0.16596 0.84654 0.32800
C 	C 	0.84650 0.32872 0.68262 0.34500
O 	O 	0.12403 0.66489 0.84804 -0.46100
O 	O 	0.20849 0.64771 0.86414 -0.42800
O 	O 	0.39711 0.83597 0.68099 -0.42000
O 	O 	0.31132 0.84323 0.66256 -0.45800
C 	C 	0.17120 0.71319 0.80564 0.03700
H 	H 	0.13140 0.71380 0.80910 0.04100
C 	C 	0.19640 0.73519 0.78359 -0.10700
H 	H 	0.17320 0.75070 0.77260 0.07400
C 	C 	0.25510 0.73491 0.77726 0.05200
C 	C 	0.28810 0.71128 0.79398 -0.11100
H 	H 	0.32760 0.70970 0.79000 0.07500
C 	C 	0.26270 0.69034 0.81635 0.04200
H 	H 	0.28610 0.67530 0.82800 0.04100
C 	C 	0.20490 0.69021 0.82261 -0.10000
C 	C 	0.35910 0.79221 0.73157 0.02600
H 	H 	0.39730 0.79920 0.73310 0.04300
C 	C 	0.33530 0.76993 0.75446 -0.09200
H 	H 	0.35850 0.76220 0.77160 0.06700
C 	C 	0.27900 0.75881 0.75296 0.03500
C 	C 	0.24530 0.77049 0.72680 -0.09000
H 	H 	0.20740 0.76300 0.72460 0.07100
C 	C 	0.26770 0.79327 0.70394 0.02800
H 	H 	0.24430 0.80140 0.68710 0.06000
C 	C 	0.32320 0.80367 0.70610 -0.09300
C 	C 	0.17860 0.66596 0.84654 0.32800
C 	C 	0.34650 0.82872 0.68262 0.34500
O 	O 	0.12403 0.16489 0.34804 -0.46100
O 	O 	0.20849 0.14771 0.36414 -0.42800
O 	O 	0.39711 0.33597 0.18099 -0.42000
O 	O 	0.31132 0.34323 0.16256 -0.45800
C 	C 	0.17120 0.21319 0.30564 0.03700
H 	H 	0.13140 0.21380 0.30910 0.04100
C 	C 	0.19640 0.23519 0.28359 -0.10700
H 	H 	0.17320 0.25070 0.27260 0.07400
C 	C 	0.25510 0.23491 0.27726 0.05200
C 	C 	0.28810 0.21128 0.29398 -0.11100
H 	H 	0.32760 0.20970 0.29000 0.07500
C 	C 	0.26270 0.19034 0.31635 0.04200
H 	H 	0.28610 0.17530 0.32800 0.04100
C 	C 	0.20490 0.19021 0.32261 -0.10000
C 	C 	0.35910 0.29221 0.23157 0.02600
H 	H 	0.39730 0.29920 0.23310 0.04300
C 	C 	0.33530 0.26993 0.25446 -0.09200
H 	H 	0.35850 0.26220 0.27160 0.06700
C 	C 	0.27900 0.25881 0.25296 0.03500
C 	C 	0.24530 0.27049 0.22680 -0.09000
H 	H 	0.20740 0.26300 0.22460 0.07100
C 	C 	0.26770 0.29327 0.20394 0.02800
H 	H 	0.24430 0.30140 0.18710 0.06000
C 	C 	0.32320 0.30367 0.20610 -0.09300
C 	C 	0.17860 0.16596 0.34654 0.32800
C 	C 	0.34650 0.32872 0.18262 0.34500
O 	O 	0.12597 0.08511 0.34804 -0.46100
O 	O 	0.04151 0.10229 0.36414 -0.42800
O 	O 	0.85289 0.91403 0.18099 -0.42000
O 	O 	0.93868 0.90677 0.16256 -0.45800
C 	C 	0.07880 0.03681 0.30564 0.03500
H 	H 	0.11860 0.03620 0.30910 0.04200
C 	C 	0.05360 0.01481 0.28359 -0.10500
H 	H 	0.07680 0.99930 0.27260 0.07300
C 	C 	0.99490 0.01509 0.27726 0.05000
C 	C 	0.96190 0.03872 0.29398 -0.10900
H 	H 	0.92240 0.04030 0.29000 0.07400
C 	C 	0.98730 0.05966 0.31635 0.04000
H 	H 	0.96390 0.07470 0.32800 0.04200
C 	C 	0.04510 0.05979 0.32261 -0.09900
C 	C 	0.89090 0.95779 0.23157 0.02700
H 	H 	0.85270 0.95080 0.23310 0.04200
C 	C 	0.91470 0.98007 0.25446 -0.09300
H 	H 	0.89150 0.98780 0.27160 0.06800
C 	C 	0.97100 0.99119 0.25296 0.03700
C 	C 	0.00470 0.97951 0.22680 -0.09200
H 	H 	0.04260 0.98700 0.22460 0.07200
C 	C 	0.98230 0.95673 0.20394 0.02900
H 	H 	0.00570 0.94860 0.18710 0.06000
C 	C 	0.92680 0.94633 0.20610 -0.09400
C 	C 	0.07140 0.08404 0.34654 0.32700
C 	C 	0.90350 0.92128 0.18262 0.34500
O 	O 	0.12597 0.58511 0.84804 -0.46100
O 	O 	0.04151 0.60229 0.86414 -0.42800
O 	O 	0.85289 0.41403 0.68099 -0.42000
O 	O 	0.93868 0.40677 0.66256 -0.45800
C 	C 	0.07880 0.53681 0.80564 0.03700
H 	H 	0.11860 0.53620 0.80910 0.04100
C 	C 	0.05360 0.51481 0.78359 -0.10700
H 	H 	0.07680 0.49930 0.77260 0.07400
C 	C 	0.99490 0.51509 0.77726 0.05200
C 	C 	0.96190 0.53872 0.79398 -0.11000
H 	H 	0.92240 0.54030 0.79000 0.07500
C 	C 	0.98730 0.55966 0.81635 0.04200
H 	H 	0.96390 0.57470 0.82800 0.04100
C 	C 	0.04510 0.55979 0.82261 -0.10000
C 	C 	0.89090 0.45779 0.73157 0.02600
H 	H 	0.85270 0.45080 0.73310 0.04300
C 	C 	0.91470 0.48007 0.75446 -0.09200
H 	H 	0.89150 0.48780 0.77160 0.06800
C 	C 	0.97100 0.49119 0.75296 0.03500
C 	C 	0.00470 0.47951 0.72680 -0.09000
H 	H 	0.04260 0.48700 0.72460 0.07100
C 	C 	0.98230 0.45673 0.70394 0.02800
H 	H 	0.00570 0.44860 0.68710 0.06000
C 	C 	0.92680 0.44633 0.70610 -0.09300
C 	C 	0.07140 0.58404 0.84654 0.32800
C 	C 	0.90350 0.42128 0.68262 0.34500
O 	O 	0.62597 0.08511 0.84804 -0.46100
O 	O 	0.54151 0.10229 0.86414 -0.42800
O 	O 	0.35289 0.91403 0.68099 -0.42000
O 	O 	0.43868 0.90677 0.66256 -0.45800
C 	C 	0.57880 0.03681 0.80564 0.03700
H 	H 	0.61860 0.03620 0.80910 0.04100
C 	C 	0.55360 0.01481 0.78359 -0.10700
H 	H 	0.57680 0.99930 0.77260 0.07400
C 	C 	0.49490 0.01509 0.77726 0.05200
C 	C 	0.46190 0.03872 0.79398 -0.11100
H 	H 	0.42240 0.04030 0.79000 0.07500
C 	C 	0.48730 0.05966 0.81635 0.04200
H 	H 	0.46390 0.07470 0.82800 0.04100
C 	C 	0.54510 0.05979 0.82261 -0.10000
C 	C 	0.39090 0.95779 0.73157 0.02600
H 	H 	0.35270 0.95080 0.73310 0.04300
C 	C 	0.41470 0.98007 0.75446 -0.09200
H 	H 	0.39150 0.98780 0.77160 0.06800
C 	C 	0.47100 0.99119 0.75296 0.03500
C 	C 	0.50470 0.97951 0.72680 -0.09000
H 	H 	0.54260 0.98700 0.72460 0.07100
C 	C 	0.48230 0.95673 0.70394 0.02800
H 	H 	0.50570 0.94860 0.68710 0.06000
C 	C 	0.42680 0.94633 0.70610 -0.09300
C 	C 	0.57140 0.08404 0.84654 0.32800
C 	C 	0.40350 0.92128 0.68262 0.34500
O 	O 	0.62597 0.58511 0.34804 -0.46100
O 	O 	0.54151 0.60229 0.36414 -0.42800
O 	O 	0.35289 0.41403 0.18099 -0.42000
O 	O 	0.43868 0.40677 0.16256 -0.45800
C 	C 	0.57880 0.53681 0.30564 0.03700
H 	H 	0.61860 0.53620 0.30910 0.04100
C 	C 	0.55360 0.51481 0.28359 -0.10700
H 	H 	0.57680 0.49930 0.27260 0.07400
C 	C 	0.49490 0.51509 0.27726 0.05200
C 	C 	0.46190 0.53872 0.29398 -0.11100
H 	H 	0.42240 0.54030 0.29000 0.07500
C 	C 	0.48730 0.55966 0.31635 0.04200
H 	H 	0.46390 0.57470 0.32800 0.04100
C 	C 	0.54510 0.55979 0.32261 -0.10000
C 	C 	0.39090 0.45779 0.23157 0.02600
H 	H 	0.35270 0.45080 0.23310 0.04300
C 	C 	0.41470 0.48007 0.25446 -0.09200
H 	H 	0.39150 0.48780 0.27160 0.06700
C 	C 	0.47100 0.49119 0.25296 0.03500
C 	C 	0.50470 0.47951 0.22680 -0.09000
H 	H 	0.54260 0.48700 0.22460 0.07100
C 	C 	0.48230 0.45673 0.20394 0.02800
H 	H 	0.50570 0.44860 0.18710 0.06000
C 	C 	0.42680 0.44633 0.20610 -0.09300
C 	C 	0.57140 0.58404 0.34654 0.32800
C 	C 	0.40350 0.42128 0.18262 0.34500
O 	O 	0.87403 0.33511 0.59804 -0.46100
O 	O 	0.95849 0.35229 0.61414 -0.42800
O 	O 	0.14711 0.16403 0.43099 -0.42000
O 	O 	0.06132 0.15677 0.41256 -0.45800
C 	C 	0.92120 0.28681 0.55564 0.03700
H 	H 	0.88140 0.28620 0.55910 0.04100
C 	C 	0.94640 0.26481 0.53359 -0.10700
H 	H 	0.92320 0.24930 0.52260 0.07400
C 	C 	0.00510 0.26509 0.52726 0.05200
C 	C 	0.03810 0.28872 0.54398 -0.11000
H 	H 	0.07760 0.29030 0.54000 0.07500
C 	C 	0.01270 0.30966 0.56635 0.04200
H 	H 	0.03610 0.32470 0.57800 0.04100
C 	C 	0.95490 0.30979 0.57261 -0.10000
C 	C 	0.10910 0.20779 0.48157 0.02600
H 	H 	0.14730 0.20080 0.48310 0.04300
C 	C 	0.08530 0.23007 0.50446 -0.09200
H 	H 	0.10850 0.23780 0.52160 0.06800
C 	C 	0.02900 0.24119 0.50296 0.03600
C 	C 	0.99530 0.22951 0.47680 -0.09000
H 	H 	0.95740 0.23700 0.47460 0.07200
C 	C 	0.01770 0.20673 0.45394 0.02800
H 	H 	0.99430 0.19860 0.43710 0.06000
C 	C 	0.07320 0.19633 0.45610 -0.09400
C 	C 	0.92860 0.33404 0.59654 0.32800
C 	C 	0.09650 0.17128 0.43262 0.34500
O 	O 	0.87403 0.83511 0.09804 -0.46100
O 	O 	0.95849 0.85229 0.11414 -0.42800
O 	O 	0.14711 0.66403 0.93099 -0.42000
O 	O 	0.06132 0.65677 0.91256 -0.45800
C 	C 	0.92120 0.78681 0.05564 0.03700
H 	H 	0.88140 0.78620 0.05910 0.04100
C 	C 	0.94640 0.76481 0.03359 -0.10700
H 	H 	0.92320 0.74930 0.02260 0.07400
C 	C 	0.00510 0.76509 0.02726 0.05200
C 	C 	0.03810 0.78872 0.04398 -0.11000
H 	H 	0.07760 0.79030 0.04000 0.07500
C 	C 	0.01270 0.80966 0.06635 0.04100
H 	H 	0.03610 0.82470 0.07800 0.04100
C 	C 	0.95490 0.80979 0.07261 -0.10000
C 	C 	0.10910 0.70779 0.98157 0.02500
H 	H 	0.14730 0.70080 0.98310 0.04300
C 	C 	0.08530 0.73007 0.00446 -0.09200
H 	H 	0.10850 0.73780 0.02160 0.06700
C 	C 	0.02900 0.74119 0.00296 0.03500
C 	C 	0.99530 0.72951 0.97680 -0.08900
H 	H 	0.95740 0.73700 0.97460 0.07100
C 	C 	0.01770 0.70673 0.95394 0.02700
H 	H 	0.99430 0.69860 0.93710 0.06000
C 	C 	0.07320 0.69633 0.95610 -0.09300
C 	C 	0.92860 0.83404 0.09654 0.32800
C 	C 	0.09650 0.67128 0.93262 0.34400
O 	O 	0.37403 0.33511 0.09804 -0.46100
O 	O 	0.45849 0.35229 0.11414 -0.42800
O 	O 	0.64711 0.16403 0.93099 -0.42000
O 	O 	0.56132 0.15677 0.91256 -0.45800
C 	C 	0.42120 0.28681 0.05564 0.03700
H 	H 	0.38140 0.28620 0.05910 0.04100
C 	C 	0.44640 0.26481 0.03359 -0.10700
H 	H 	0.42320 0.24930 0.02260 0.07400
C 	C 	0.50510 0.26509 0.02726 0.05200
C 	C 	0.53810 0.28872 0.04398 -0.11100
H 	H 	0.57760 0.29030 0.04000 0.07500
C 	C 	0.51270 0.30966 0.06635 0.04200
H 	H 	0.53610 0.32470 0.07800 0.04100
C 	C 	0.45490 0.30979 0.07261 -0.10000
C 	C 	0.60910 0.20779 0.98157 0.02600
H 	H 	0.64730 0.20080 0.98310 0.04300
C 	C 	0.58530 0.23007 0.00446 -0.09200
H 	H 	0.60850 0.23780 0.02160 0.06700
C 	C 	0.52900 0.24119 0.00296 0.03500
C 	C 	0.49530 0.22951 0.97680 -0.09000
H 	H 	0.45740 0.23700 0.97460 0.07100
C 	C 	0.51770 0.20673 0.95394 0.02800
H 	H 	0.49430 0.19860 0.93710 0.06000
C 	C 	0.57320 0.19633 0.95610 -0.09300
C 	C 	0.42860 0.33404 0.09654 0.32800
C 	C 	0.59650 0.17128 0.93262 0.34500
O 	O 	0.37403 0.83511 0.59804 -0.46100
O 	O 	0.45849 0.85229 0.61414 -0.42800
O 	O 	0.64711 0.66403 0.43099 -0.42000
O 	O 	0.56132 0.65677 0.41256 -0.45800
C 	C 	0.42120 0.78681 0.55564 0.03700
H 	H 	0.38140 0.78620 0.55910 0.04100
C 	C 	0.44640 0.76481 0.53359 -0.10700
H 	H 	0.42320 0.74930 0.52260 0.07400
C 	C 	0.50510 0.76509 0.52726 0.05200
C 	C 	0.53810 0.78872 0.54398 -0.11100
H 	H 	0.57760 0.79030 0.54000 0.07500
C 	C 	0.51270 0.80966 0.56635 0.04200
H 	H 	0.53610 0.82470 0.57800 0.04100
C 	C 	0.45490 0.80979 0.57261 -0.10000
C 	C 	0.60910 0.70779 0.48157 0.02600
H 	H 	0.64730 0.70080 0.48310 0.04300
C 	C 	0.58530 0.73007 0.50446 -0.09200
H 	H 	0.60850 0.73780 0.52160 0.06700
C 	C 	0.52900 0.74119 0.50296 0.03500
C 	C 	0.49530 0.72951 0.47680 -0.09000
H 	H 	0.45740 0.73700 0.47460 0.07100
C 	C 	0.51770 0.70673 0.45394 0.02800
H 	H 	0.49430 0.69860 0.43710 0.06000
C 	C 	0.57320 0.69633 0.45610 -0.09300
C 	C 	0.42860 0.83404 0.59654 0.32800
C 	C 	0.59650 0.67128 0.43262 0.34500
O 	O 	0.37597 0.91489 0.59804 -0.46100
O 	O 	0.29151 0.89771 0.61414 -0.42800
O 	O 	0.10289 0.08597 0.43099 -0.42000
O 	O 	0.18868 0.09323 0.41256 -0.45800
C 	C 	0.32880 0.96319 0.55564 0.03700
H 	H 	0.36860 0.96380 0.55910 0.04100
C 	C 	0.30360 0.98519 0.53359 -0.10700
H 	H 	0.32680 0.00070 0.52260 0.07400
C 	C 	0.24490 0.98491 0.52726 0.05200
C 	C 	0.21190 0.96128 0.54398 -0.11100
H 	H 	0.17240 0.95970 0.54000 0.07500
C 	C 	0.23730 0.94034 0.56635 0.04200
H 	H 	0.21390 0.92530 0.57800 0.04100
C 	C 	0.29510 0.94021 0.57261 -0.10000
C 	C 	0.14090 0.04221 0.48157 0.02600
H 	H 	0.10270 0.04920 0.48310 0.04300
C 	C 	0.16470 0.01993 0.50446 -0.09200
H 	H 	0.14150 0.01220 0.52160 0.06800
C 	C 	0.22100 0.00881 0.50296 0.03500
C 	C 	0.25470 0.02049 0.47680 -0.09000
H 	H 	0.29260 0.01300 0.47460 0.07100
C 	C 	0.23230 0.04327 0.45394 0.02800
H 	H 	0.25570 0.05140 0.43710 0.06000
C 	C 	0.17680 0.05367 0.45610 -0.09300
C 	C 	0.32140 0.91596 0.59654 0.32800
C 	C 	0.15350 0.07872 0.43262 0.34500
O 	O 	0.37597 0.41489 0.09804 -0.46100
O 	O 	0.29151 0.39771 0.11414 -0.42800
O 	O 	0.10289 0.58597 0.93099 -0.42000
O 	O 	0.18868 0.59323 0.91256 -0.45800
C 	C 	0.32880 0.46319 0.05564 0.03700
H 	H 	0.36860 0.46380 0.05910 0.04100
C 	C 	0.30360 0.48519 0.03359 -0.10700
H 	H 	0.32680 0.50070 0.02260 0.07400
C 	C 	0.24490 0.48491 0.02726 0.05200
C 	C 	0.21190 0.46128 0.04398 -0.11100
H 	H 	0.17240 0.45970 0.04000 0.07500
C 	C 	0.23730 0.44034 0.06635 0.04200
H 	H 	0.21390 0.42530 0.07800 0.04100
C 	C 	0.29510 0.44021 0.07261 -0.10000
C 	C 	0.14090 0.54221 0.98157 0.02600
H 	H 	0.10270 0.54920 0.98310 0.04300
C 	C 	0.16470 0.51993 0.00446 -0.09200
H 	H 	0.14150 0.51220 0.02160 0.06700
C 	C 	0.22100 0.50881 0.00296 0.03500
C 	C 	0.25470 0.52049 0.97680 -0.09000
H 	H 	0.29260 0.51300 0.97460 0.07100
C 	C 	0.23230 0.54327 0.95394 0.02800
H 	H 	0.25570 0.55140 0.93710 0.06000
C 	C 	0.17680 0.55367 0.95610 -0.09300
C 	C 	0.32140 0.41596 0.09654 0.32800
C 	C 	0.15350 0.57872 0.93262 0.34500
O 	O 	0.87597 0.91489 0.09804 -0.46100
O 	O 	0.79151 0.89771 0.11414 -0.42800
O 	O 	0.60289 0.08597 0.93099 -0.42000
O 	O 	0.68868 0.09323 0.91256 -0.45800
C 	C 	0.82880 0.96319 0.05564 0.03700
H 	H 	0.86860 0.96380 0.05910 0.04100
C 	C 	0.80360 0.98519 0.03359 -0.10700
H 	H 	0.82680 0.00070 0.02260 0.07400
C 	C 	0.74490 0.98491 0.02726 0.05200
C 	C 	0.71190 0.96128 0.04398 -0.11100
H 	H 	0.67240 0.95970 0.04000 0.07500
C 	C 	0.73730 0.94034 0.06635 0.04200
H 	H 	0.71390 0.92530 0.07800 0.04100
C 	C 	0.79510 0.94021 0.07261 -0.10000
C 	C 	0.64090 0.04221 0.98157 0.02600
H 	H 	0.60270 0.04920 0.98310 0.04300
C 	C 	0.66470 0.01993 0.00446 -0.09200
H 	H 	0.64150 0.01220 0.02160 0.06800
C 	C 	0.72100 0.00881 0.00296 0.03500
C 	C 	0.75470 0.02049 0.97680 -0.09000
H 	H 	0.79260 0.01300 0.97460 0.07100
C 	C 	0.73230 0.04327 0.95394 0.02800
H 	H 	0.75570 0.05140 0.93710 0.06000
C 	C 	0.67680 0.05367 0.95610 -0.09300
C 	C 	0.82140 0.91596 0.09654 0.32800
C 	C 	0.65350 0.07872 0.93262 0.34500
O 	O 	0.87597 0.41489 0.59804 -0.46100
O 	O 	0.79151 0.39771 0.61414 -0.42800
O 	O 	0.60289 0.58597 0.43099 -0.42000
O 	O 	0.68868 0.59323 0.41256 -0.45800
C 	C 	0.82880 0.46319 0.55564 0.03700
H 	H 	0.86860 0.46380 0.55910 0.04100
C 	C 	0.80360 0.48519 0.53359 -0.10700
H 	H 	0.82680 0.50070 0.52260 0.07400
C 	C 	0.74490 0.48491 0.52726 0.05200
C 	C 	0.71190 0.46128 0.54398 -0.11100
H 	H 	0.67240 0.45970 0.54000 0.07500
C 	C 	0.73730 0.44034 0.56635 0.04200
H 	H 	0.71390 0.42530 0.57800 0.04100
C 	C 	0.79510 0.44021 0.57261 -0.10000
C 	C 	0.64090 0.54221 0.48157 0.02600
H 	H 	0.60270 0.54920 0.48310 0.04300
C 	C 	0.66470 0.51993 0.50446 -0.09200
H 	H 	0.64150 0.51220 0.52160 0.06700
C 	C 	0.72100 0.50881 0.50296 0.03500
C 	C 	0.75470 0.52049 0.47680 -0.09000
H 	H 	0.79260 0.51300 0.47460 0.07100
C 	C 	0.73230 0.54327 0.45394 0.02800
H 	H 	0.75570 0.55140 0.43710 0.06000
C 	C 	0.67680 0.55367 0.45610 -0.09300
C 	C 	0.82140 0.41596 0.59654 0.32800
C 	C 	0.65350 0.57872 0.43262 0.34500
In	In	0.62500 0.62500 0.38727 1.99700
In	In	0.62500 0.12500 0.88727 1.99700
In	In	0.12500 0.12500 0.38727 1.99700
In	In	0.12500 0.62500 0.88727 1.99700
In	In	0.87500 0.37500 0.63727 1.99700
In	In	0.87500 0.87500 0.13727 1.99700
In	In	0.37500 0.37500 0.13727 1.99700
In	In	0.37500 0.87500 0.63727 1.99700
O 	O 	0.94754 0.27871 0.39685 -0.48100
O 	O 	0.86686 0.28670 0.41831 -0.46400
O 	O 	0.13825 0.45873 0.58373 -0.43400
O 	O 	0.05225 0.47103 0.60078 -0.45300
C 	C 	0.00170 0.32227 0.44189 0.08300
H 	H 	0.02540 0.31240 0.42610 0.02600
C 	C 	0.02430 0.34400 0.46505 -0.13900
H 	H 	0.06420 0.34710 0.46490 0.08200
C 	C 	0.99350 0.36133 0.48809 0.08100
C 	C 	0.93750 0.35117 0.48942 -0.13800
H 	H 	0.91400 0.36020 0.50580 0.07800
C 	C 	0.91370 0.32807 0.46772 0.08600
H 	H 	0.87560 0.32110 0.47080 0.02300
C 	C 	0.94400 0.31548 0.44236 -0.15600
C 	C 	0.09390 0.41897 0.53203 0.01700
H 	H 	0.13230 0.42580 0.53010 0.04500
C 	C 	0.07100 0.39655 0.50912 -0.07900
H 	H 	0.09390 0.38900 0.49180 0.06200
C 	C 	0.01520 0.38545 0.51183 0.01700
C 	C 	0.98290 0.39745 0.53715 -0.06900
H 	H 	0.94510 0.38970 0.53950 0.05900
C 	C 	0.00440 0.42116 0.56013 0.01200
H 	H 	0.98060 0.42970 0.57660 0.06300
C 	C 	0.06040 0.43134 0.55774 -0.07700
C 	C 	0.91790 0.29217 0.41779 0.41600
C 	C 	0.08440 0.45553 0.58232 0.33600
O 	O 	0.94754 0.77871 0.89685 -0.48100
O 	O 	0.86686 0.78670 0.91831 -0.46500
O 	O 	0.13825 0.95873 0.08373 -0.43400
O 	O 	0.05225 0.97103 0.10078 -0.45300
C 	C 	0.00170 0.82227 0.94189 0.08400
H 	H 	0.02540 0.81240 0.92610 0.02600
C 	C 	0.02430 0.84400 0.96505 -0.14000
H 	H 	0.06420 0.84710 0.96490 0.08300
C 	C 	0.99350 0.86133 0.98809 0.08300
C 	C 	0.93750 0.85117 0.98942 -0.13900
H 	H 	0.91400 0.86020 0.00580 0.07800
C 	C 	0.91370 0.82807 0.96772 0.08600
H 	H 	0.87560 0.82110 0.97080 0.02200
C 	C 	0.94400 0.81548 0.94236 -0.15600
C 	C 	0.09390 0.91897 0.03203 0.01700
H 	H 	0.13230 0.92580 0.03010 0.04500
C 	C 	0.07100 0.89655 0.00912 -0.07800
H 	H 	0.09390 0.88900 0.99180 0.06100
C 	C 	0.01520 0.88545 0.01183 0.01600
C 	C 	0.98290 0.89745 0.03715 -0.06800
H 	H 	0.94510 0.88970 0.03950 0.05900
C 	C 	0.00440 0.92116 0.06013 0.01000
H 	H 	0.98060 0.92970 0.07660 0.06400
C 	C 	0.06040 0.93134 0.05774 -0.07600
C 	C 	0.91790 0.79217 0.91779 0.41600
C 	C 	0.08440 0.95553 0.08232 0.33600
O 	O 	0.44754 0.27871 0.89685 -0.48100
O 	O 	0.36686 0.28670 0.91831 -0.46500
O 	O 	0.63825 0.45873 0.08373 -0.43400
O 	O 	0.55225 0.47103 0.10078 -0.45300
C 	C 	0.50170 0.32227 0.94189 0.08400
H 	H 	0.52540 0.31240 0.92610 0.02600
C 	C 	0.52430 0.34400 0.96505 -0.13900
H 	H 	0.56420 0.34710 0.96490 0.08200
C 	C 	0.49350 0.36133 0.98809 0.08200
C 	C 	0.43750 0.35117 0.98942 -0.13900
H 	H 	0.41400 0.36020 0.00580 0.07800
C 	C 	0.41370 0.32807 0.96772 0.08600
H 	H 	0.37560 0.32110 0.97080 0.02300
C 	C 	0.44400 0.31548 0.94236 -0.15600
C 	C 	0.59390 0.41897 0.03203 0.01700
H 	H 	0.63230 0.42580 0.03010 0.04500
C 	C 	0.57100 0.39655 0.00912 -0.07900
H 	H 	0.59390 0.38900 0.99180 0.06200
C 	C 	0.51520 0.38545 0.01183 0.01700
C 	C 	0.48290 0.39745 0.03715 -0.06900
H 	H 	0.44510 0.38970 0.03950 0.05900
C 	C 	0.50440 0.42116 0.06013 0.01100
H 	H 	0.48060 0.42970 0.07660 0.06300
C 	C 	0.56040 0.43134 0.05774 -0.07700
C 	C 	0.41790 0.29217 0.91779 0.41600
C 	C 	0.58440 0.45553 0.08232 0.33600
O 	O 	0.44754 0.77871 0.39685 -0.48100
O 	O 	0.36686 0.78670 0.41831 -0.46500
O 	O 	0.63825 0.95873 0.58373 -0.43400
O 	O 	0.55225 0.97103 0.60078 -0.45300
C 	C 	0.50170 0.82227 0.44189 0.08400
H 	H 	0.52540 0.81240 0.42610 0.02600
C 	C 	0.52430 0.84400 0.46505 -0.13900
H 	H 	0.56420 0.84710 0.46490 0.08200
C 	C 	0.49350 0.86133 0.48809 0.08200
C 	C 	0.43750 0.85117 0.48942 -0.13900
H 	H 	0.41400 0.86020 0.50580 0.07800
C 	C 	0.41370 0.82807 0.46772 0.08600
H 	H 	0.37560 0.82110 0.47080 0.02300
C 	C 	0.44400 0.81548 0.44236 -0.15600
C 	C 	0.59390 0.91897 0.53203 0.01700
H 	H 	0.63230 0.92580 0.53010 0.04500
C 	C 	0.57100 0.89655 0.50912 -0.07900
H 	H 	0.59390 0.88900 0.49180 0.06200
C 	C 	0.51520 0.88545 0.51183 0.01700
C 	C 	0.48290 0.89745 0.53715 -0.06900
H 	H 	0.44510 0.88970 0.53950 0.05900
C 	C 	0.50440 0.92116 0.56013 0.01100
H 	H 	0.48060 0.92970 0.57660 0.06300
C 	C 	0.56040 0.93134 0.55774 -0.07700
C 	C 	0.41790 0.79217 0.41779 0.41600
C 	C 	0.58440 0.95553 0.58232 0.33600
O 	O 	0.80246 0.27871 0.35315 -0.48100
O 	O 	0.88314 0.28670 0.33169 -0.46500
O 	O 	0.61175 0.45873 0.16627 -0.43400
O 	O 	0.69775 0.47103 0.14922 -0.45300
C 	C 	0.74830 0.32227 0.30811 0.08400
H 	H 	0.72460 0.31240 0.32390 0.02600
C 	C 	0.72570 0.34400 0.28495 -0.13900
H 	H 	0.68580 0.34710 0.28510 0.08200
C 	C 	0.75650 0.36133 0.26191 0.08200
C 	C 	0.81250 0.35117 0.26058 -0.13900
H 	H 	0.83600 0.36020 0.24420 0.07800
C 	C 	0.83630 0.32807 0.28228 0.08600
H 	H 	0.87440 0.32110 0.27920 0.02200
C 	C 	0.80600 0.31548 0.30764 -0.15600
C 	C 	0.65610 0.41897 0.21797 0.01700
H 	H 	0.61770 0.42580 0.21990 0.04500
C 	C 	0.67900 0.39655 0.24088 -0.07900
H 	H 	0.65610 0.38900 0.25820 0.06200
C 	C 	0.73480 0.38545 0.23817 0.01700
C 	C 	0.76710 0.39745 0.21285 -0.06900
H 	H 	0.80490 0.38970 0.21050 0.05900
C 	C 	0.74560 0.42116 0.18987 0.01100
H 	H 	0.76940 0.42970 0.17340 0.06300
C 	C 	0.68960 0.43134 0.19226 -0.07700
C 	C 	0.83210 0.29217 0.33221 0.41600
C 	C 	0.66560 0.45553 0.16768 0.33600
O 	O 	0.80246 0.77871 0.85315 -0.48100
O 	O 	0.88314 0.78670 0.83169 -0.46500
O 	O 	0.61175 0.95873 0.66627 -0.43400
O 	O 	0.69775 0.97103 0.64922 -0.45300
C 	C 	0.74830 0.82227 0.80811 0.08400
H 	H 	0.72460 0.81240 0.82390 0.02600
C 	C 	0.72570 0.84400 0.78495 -0.13900
H 	H 	0.68580 0.84710 0.78510 0.08200
C 	C 	0.75650 0.86133 0.76191 0.08200
C 	C 	0.81250 0.85117 0.76058 -0.13900
H 	H 	0.83600 0.86020 0.74420 0.07800
C 	C 	0.83630 0.82807 0.78228 0.08600
H 	H 	0.87440 0.82110 0.77920 0.02300
C 	C 	0.80600 0.81548 0.80764 -0.15600
C 	C 	0.65610 0.91897 0.71797 0.01700
H 	H 	0.61770 0.92580 0.71990 0.04500
C 	C 	0.67900 0.89655 0.74088 -0.07900
H 	H 	0.65610 0.88900 0.75820 0.06200
C 	C 	0.73480 0.88545 0.73817 0.01700
C 	C 	0.76710 0.89745 0.71285 -0.06900
H 	H 	0.80490 0.88970 0.71050 0.05900
C 	C 	0.74560 0.92116 0.68987 0.01100
H 	H 	0.76940 0.92970 0.67340 0.06300
C 	C 	0.68960 0.93134 0.69226 -0.07700
C 	C 	0.83210 0.79217 0.83221 0.41600
C 	C 	0.66560 0.95553 0.66768 0.33600
O 	O 	0.30246 0.27871 0.85315 -0.48100
O 	O 	0.38314 0.28670 0.83169 -0.46400
O 	O 	0.11175 0.45873 0.66627 -0.43400
O 	O 	0.19775 0.47103 0.64922 -0.45300
C 	C 	0.24830 0.32227 0.80811 0.08400
H 	H 	0.22460 0.31240 0.82390 0.02600
C 	C 	0.22570 0.34400 0.78495 -0.13900
H 	H 	0.18580 0.34710 0.78510 0.08200
C 	C 	0.25650 0.36133 0.76191 0.08200
C 	C 	0.31250 0.35117 0.76058 -0.13900
H 	H 	0.33600 0.36020 0.74420 0.07800
C 	C 	0.33630 0.32807 0.78228 0.08600
H 	H 	0.37440 0.32110 0.77920 0.02300
C 	C 	0.30600 0.31548 0.80764 -0.15600
C 	C 	0.15610 0.41897 0.71797 0.01700
H 	H 	0.11770 0.42580 0.71990 0.04500
C 	C 	0.17900 0.39655 0.74088 -0.07900
H 	H 	0.15610 0.38900 0.75820 0.06200
C 	C 	0.23480 0.38545 0.73817 0.01700
C 	C 	0.26710 0.39745 0.71285 -0.06900
H 	H 	0.30490 0.38970 0.71050 0.05900
C 	C 	0.24560 0.42116 0.68987 0.01200
H 	H 	0.26940 0.42970 0.67340 0.06300
C 	C 	0.18960 0.43134 0.69226 -0.07700
C 	C 	0.33210 0.29217 0.83221 0.41600
C 	C 	0.16560 0.45553 0.66768 0.33600
O 	O 	0.30246 0.77871 0.35315 -0.48100
O 	O 	0.38314 0.78670 0.33169 -0.46400
O 	O 	0.11175 0.95873 0.16627 -0.43400
O 	O 	0.19775 0.97103 0.14922 -0.45300
C 	C 	0.24830 0.82227 0.30811 0.08400
H 	H 	0.22460 0.81240 0.32390 0.02600
C 	C 	0.22570 0.84400 0.28495 -0.13900
H 	H 	0.18580 0.84710 0.28510 0.08200
C 	C 	0.25650 0.86133 0.26191 0.08200
C 	C 	0.31250 0.85117 0.26058 -0.13900
H 	H 	0.33600 0.86020 0.24420 0.07800
C 	C 	0.33630 0.82807 0.28228 0.08600
H 	H 	0.37440 0.82110 0.27920 0.02300
C 	C 	0.30600 0.81548 0.30764 -0.15600
C 	C 	0.15610 0.91897 0.21797 0.01700
H 	H 	0.11770 0.92580 0.21990 0.04500
C 	C 	0.17900 0.89655 0.24088 -0.07900
H 	H 	0.15610 0.88900 0.25820 0.06200
C 	C 	0.23480 0.88545 0.23817 0.01700
C 	C 	0.26710 0.89745 0.21285 -0.06900
H 	H 	0.30490 0.88970 0.21050 0.05900
C 	C 	0.24560 0.92116 0.18987 0.01100
H 	H 	0.26940 0.92970 0.17340 0.06300
C 	C 	0.18960 0.93134 0.19226 -0.07700
C 	C 	0.33210 0.79217 0.33221 0.41600
C 	C 	0.16560 0.95553 0.16768 0.33600
O 	O 	0.19754 0.52871 0.60315 -0.48100
O 	O 	0.11686 0.53670 0.58169 -0.46500
O 	O 	0.38825 0.70873 0.41627 -0.43400
O 	O 	0.30225 0.72103 0.39922 -0.45300
C 	C 	0.25170 0.57227 0.55811 0.08400
H 	H 	0.27540 0.56240 0.57390 0.02600
C 	C 	0.27430 0.59400 0.53495 -0.13900
H 	H 	0.31420 0.59710 0.53510 0.08200
C 	C 	0.24350 0.61133 0.51191 0.08200
C 	C 	0.18750 0.60117 0.51058 -0.13900
H 	H 	0.16400 0.61020 0.49420 0.07800
C 	C 	0.16370 0.57807 0.53228 0.08600
H 	H 	0.12560 0.57110 0.52920 0.02300
C 	C 	0.19400 0.56548 0.55764 -0.15600
C 	C 	0.34390 0.66897 0.46797 0.01700
H 	H 	0.38230 0.67580 0.46990 0.04500
C 	C 	0.32100 0.64655 0.49088 -0.07900
H 	H 	0.34390 0.63900 0.50820 0.06200
C 	C 	0.26520 0.63545 0.48817 0.01700
C 	C 	0.23290 0.64745 0.46285 -0.06900
H 	H 	0.19510 0.63970 0.46050 0.05900
C 	C 	0.25440 0.67116 0.43987 0.01100
H 	H 	0.23060 0.67970 0.42340 0.06300
C 	C 	0.31040 0.68134 0.44226 -0.07700
C 	C 	0.16790 0.54217 0.58221 0.41600
C 	C 	0.33440 0.70553 0.41768 0.33600
O 	O 	0.19754 0.02871 0.10315 -0.48100
O 	O 	0.11686 0.03670 0.08169 -0.46400
O 	O 	0.38825 0.20873 0.91627 -0.43400
O 	O 	0.30225 0.22103 0.89922 -0.45300
C 	C 	0.25170 0.07227 0.05811 0.08400
H 	H 	0.27540 0.06240 0.07390 0.02600
C 	C 	0.27430 0.09400 0.03495 -0.13900
H 	H 	0.31420 0.09710 0.03510 0.08200
C 	C 	0.24350 0.11133 0.01191 0.08200
C 	C 	0.18750 0.10117 0.01058 -0.13900
H 	H 	0.16400 0.11020 0.99420 0.07800
C 	C 	0.16370 0.07807 0.03228 0.08600
H 	H 	0.12560 0.07110 0.02920 0.02300
C 	C 	0.19400 0.06548 0.05764 -0.15600
C 	C 	0.34390 0.16897 0.96797 0.01700
H 	H 	0.38230 0.17580 0.96990 0.04500
C 	C 	0.32100 0.14655 0.99088 -0.07900
H 	H 	0.34390 0.13900 0.00820 0.06200
C 	C 	0.26520 0.13545 0.98817 0.01700
C 	C 	0.23290 0.14745 0.96285 -0.06900
H 	H 	0.19510 0.13970 0.96050 0.05900
C 	C 	0.25440 0.17116 0.93987 0.01200
H 	H 	0.23060 0.17970 0.92340 0.06300
C 	C 	0.31040 0.18134 0.94226 -0.07700
C 	C 	0.16790 0.04217 0.08221 0.41600
C 	C 	0.33440 0.20553 0.91768 0.33600
O 	O 	0.69754 0.52871 0.10315 -0.48100
O 	O 	0.61686 0.53670 0.08169 -0.46500
O 	O 	0.88825 0.70873 0.91627 -0.43400
O 	O 	0.80225 0.72103 0.89922 -0.45300
C 	C 	0.75170 0.57227 0.05811 0.08400
H 	H 	0.77540 0.56240 0.07390 0.02600
C 	C 	0.77430 0.59400 0.03495 -0.13900
H 	H 	0.81420 0.59710 0.03510 0.08200
C 	C 	0.74350 0.61133 0.01191 0.08200
C 	C 	0.68750 0.60117 0.01058 -0.13900
H 	H 	0.66400 0.61020 0.99420 0.07800
C 	C 	0.66370 0.57807 0.03228 0.08600
H 	H 	0.62560 0.57110 0.02920 0.02300
C 	C 	0.69400 0.56548 0.05764 -0.15600
C 	C 	0.84390 0.66897 0.96797 0.01700
H 	H 	0.88230 0.67580 0.96990 0.04500
C 	C 	0.82100 0.64655 0.99088 -0.07900
H 	H 	0.84390 0.63900 0.00820 0.06200
C 	C 	0.76520 0.63545 0.98817 0.01700
C 	C 	0.73290 0.64745 0.96285 -0.06900
H 	H 	0.69510 0.63970 0.96050 0.05900
C 	C 	0.75440 0.67116 0.93987 0.01100
H 	H 	0.73060 0.67970 0.92340 0.06300
C 	C 	0.81040 0.68134 0.94226 -0.07700
C 	C 	0.66790 0.54217 0.08221 0.41600
C 	C 	0.83440 0.70553 0.91768 0.33600
O 	O 	0.69754 0.02871 0.60315 -0.48100
O 	O 	0.61686 0.03670 0.58169 -0.46400
O 	O 	0.88825 0.20873 0.41627 -0.43400
O 	O 	0.80225 0.22103 0.39922 -0.45300
C 	C 	0.75170 0.07227 0.55811 0.08400
H 	H 	0.77540 0.06240 0.57390 0.02600
C 	C 	0.77430 0.09400 0.53495 -0.13900
H 	H 	0.81420 0.09710 0.53510 0.08200
C 	C 	0.74350 0.11133 0.51191 0.08200
C 	C 	0.68750 0.10117 0.51058 -0.13900
H 	H 	0.66400 0.11020 0.49420 0.07800
C 	C 	0.66370 0.07807 0.53228 0.08600
H 	H 	0.62560 0.07110 0.52920 0.02300
C 	C 	0.69400 0.06548 0.55764 -0.15600
C 	C 	0.84390 0.16897 0.46797 0.01700
H 	H 	0.88230 0.17580 0.46990 0.04500
C 	C 	0.82100 0.14655 0.49088 -0.07900
H 	H 	0.84390 0.13900 0.50820 0.06200
C 	C 	0.76520 0.13545 0.48817 0.01700
C 	C 	0.73290 0.14745 0.46285 -0.06900
H 	H 	0.69510 0.13970 0.46050 0.05900
C 	C 	0.75440 0.17116 0.43987 0.01200
H 	H 	0.73060 0.17970 0.42340 0.06300
C 	C 	0.81040 0.18134 0.44226 -0.07700
C 	C 	0.66790 0.04217 0.58221 0.41600
C 	C 	0.83440 0.20553 0.41768 0.33600
O 	O 	0.05246 0.52871 0.64685 -0.48100
O 	O 	0.13314 0.53670 0.66831 -0.46400
O 	O 	0.86175 0.70873 0.83373 -0.43400
O 	O 	0.94775 0.72103 0.85078 -0.45300
C 	C 	0.99830 0.57227 0.69189 0.08300
H 	H 	0.97460 0.56240 0.67610 0.02600
C 	C 	0.97570 0.59400 0.71505 -0.13900
H 	H 	0.93580 0.59710 0.71490 0.08200
C 	C 	0.00650 0.61133 0.73809 0.08100
C 	C 	0.06250 0.60117 0.73942 -0.13800
H 	H 	0.08600 0.61020 0.75580 0.07800
C 	C 	0.08630 0.57807 0.71772 0.08600
H 	H 	0.12440 0.57110 0.72080 0.02300
C 	C 	0.05600 0.56548 0.69236 -0.15600
C 	C 	0.90610 0.66897 0.78203 0.01800
H 	H 	0.86770 0.67580 0.78010 0.04500
C 	C 	0.92900 0.64655 0.75912 -0.07900
H 	H 	0.90610 0.63900 0.74180 0.06200
C 	C 	0.98480 0.63545 0.76183 0.01800
C 	C 	0.01710 0.64745 0.78715 -0.07000
H 	H 	0.05490 0.63970 0.78950 0.05900
C 	C 	0.99560 0.67116 0.81013 0.01200
H 	H 	0.01940 0.67970 0.82660 0.06300
C 	C 	0.93960 0.68134 0.80774 -0.07700
C 	C 	0.08210 0.54217 0.66779 0.41600
C 	C 	0.91560 0.70553 0.83232 0.33600
O 	O 	0.05246 0.02871 0.14685 -0.48100
O 	O 	0.13314 0.03670 0.16831 -0.46400
O 	O 	0.86175 0.20873 0.33373 -0.43400
O 	O 	0.94775 0.22103 0.35078 -0.45300
C 	C 	0.99830 0.07227 0.19189 0.08400
H 	H 	0.97460 0.06240 0.17610 0.02600
C 	C 	0.97570 0.09400 0.21505 -0.14000
H 	H 	0.93580 0.09710 0.21490 0.08300
C 	C 	0.00650 0.11133 0.23809 0.08300
C 	C 	0.06250 0.10117 0.23942 -0.13900
H 	H 	0.08600 0.11020 0.25580 0.07800
C 	C 	0.08630 0.07807 0.21772 0.08600
H 	H 	0.12440 0.07110 0.22080 0.02200
C 	C 	0.05600 0.06548 0.19236 -0.15600
C 	C 	0.90610 0.16897 0.28203 0.01700
H 	H 	0.86770 0.17580 0.28010 0.04500
C 	C 	0.92900 0.14655 0.25912 -0.07800
H 	H 	0.90610 0.13900 0.24180 0.06100
C 	C 	0.98480 0.13545 0.26183 0.01600
C 	C 	0.01710 0.14745 0.28715 -0.06800
H 	H 	0.05490 0.13970 0.28950 0.05900
C 	C 	0.99560 0.17116 0.31013 0.01000
H 	H 	0.01940 0.17970 0.32660 0.06400
C 	C 	0.93960 0.18134 0.30774 -0.07600
C 	C 	0.08210 0.04217 0.16779 0.41600
C 	C 	0.91560 0.20553 0.33232 0.33600
O 	O 	0.55246 0.52871 0.14685 -0.48100
O 	O 	0.63314 0.53670 0.16831 -0.46500
O 	O 	0.36175 0.70873 0.33373 -0.43400
O 	O 	0.44775 0.72103 0.35078 -0.45300
C 	C 	0.49830 0.57227 0.19189 0.08400
H 	H 	0.47460 0.56240 0.17610 0.02600
C 	C 	0.47570 0.59400 0.21505 -0.13900
H 	H 	0.43580 0.59710 0.21490 0.08200
C 	C 	0.50650 0.61133 0.23809 0.08200
C 	C 	0.56250 0.60117 0.23942 -0.13900
H 	H 	0.58600 0.61020 0.25580 0.07800
C 	C 	0.58630 0.57807 0.21772 0.08600
H 	H 	0.62440 0.57110 0.22080 0.02300
C 	C 	0.55600 0.56548 0.19236 -0.15600
C 	C 	0.40610 0.66897 0.28203 0.01700
H 	H 	0.36770 0.67580 0.28010 0.04500
C 	C 	0.42900 0.64655 0.25912 -0.07900
H 	H 	0.40610 0.63900 0.24180 0.06200
C 	C 	0.48480 0.63545 0.26183 0.01700
C 	C 	0.51710 0.64745 0.28715 -0.06900
H 	H 	0.55490 0.63970 0.28950 0.05900
C 	C 	0.49560 0.67116 0.31013 0.01200
H 	H 	0.51940 0.67970 0.32660 0.06300
C 	C 	0.43960 0.68134 0.30774 -0.07700
C 	C 	0.58210 0.54217 0.16779 0.41600
C 	C 	0.41560 0.70553 0.33232 0.33600
O 	O 	0.55246 0.02871 0.64685 -0.48100
O 	O 	0.63314 0.03670 0.66831 -0.46400
O 	O 	0.36175 0.20873 0.83373 -0.43400
O 	O 	0.44775 0.22103 0.85078 -0.45300
C 	C 	0.49830 0.07227 0.69189 0.08400
H 	H 	0.47460 0.06240 0.67610 0.02600
C 	C 	0.47570 0.09400 0.71505 -0.13900
H 	H 	0.43580 0.09710 0.71490 0.08200
C 	C 	0.50650 0.11133 0.73809 0.08200
C 	C 	0.56250 0.10117 0.73942 -0.13900
H 	H 	0.58600 0.11020 0.75580 0.07800
C 	C 	0.58630 0.07807 0.71772 0.08600
H 	H 	0.62440 0.07110 0.72080 0.02300
C 	C 	0.55600 0.06548 0.69236 -0.15600
C 	C 	0.40610 0.16897 0.78203 0.01700
H 	H 	0.36770 0.17580 0.78010 0.04500
C 	C 	0.42900 0.14655 0.75912 -0.07900
H 	H 	0.40610 0.13900 0.74180 0.06200
C 	C 	0.48480 0.13545 0.76183 0.01700
C 	C 	0.51710 0.14745 0.78715 -0.06900
H 	H 	0.55490 0.13970 0.78950 0.05900
C 	C 	0.49560 0.17116 0.81013 0.01200
H 	H 	0.51940 0.17970 0.82660 0.06300
C 	C 	0.43960 0.18134 0.80774 -0.07700
C 	C 	0.58210 0.04217 0.66779 0.41600
C 	C 	0.41560 0.20553 0.83232 0.33600
In	In	0.87500 0.24866 0.37500 2.00000
In	In	0.87500 0.74866 0.87500 2.00000
In	In	0.37500 0.24866 0.87500 2.00000
In	In	0.37500 0.74866 0.37500 2.00000
In	In	0.12500 0.49866 0.62500 2.00000
In	In	0.12500 0.99866 0.12500 2.00000
In	In	0.62500 0.49866 0.12500 2.00000
In	In	0.62500 0.99866 0.62500 2.00000
O 	O 	0.80246 0.47129 0.39685 -0.48100
O 	O 	0.88314 0.46330 0.41831 -0.46500
O 	O 	0.61175 0.29127 0.58373 -0.43400
O 	O 	0.69775 0.27897 0.60078 -0.45300
C 	C 	0.74830 0.42773 0.44189 0.08400
H 	H 	0.72460 0.43760 0.42610 0.02600
C 	C 	0.72570 0.40600 0.46505 -0.13900
H 	H 	0.68580 0.40290 0.46490 0.08200
C 	C 	0.75650 0.38867 0.48809 0.08200
C 	C 	0.81250 0.39883 0.48942 -0.13900
H 	H 	0.83600 0.38980 0.50580 0.07800
C 	C 	0.83630 0.42193 0.46772 0.08600
H 	H 	0.87440 0.42890 0.47080 0.02300
C 	C 	0.80600 0.43452 0.44236 -0.15600
C 	C 	0.65610 0.33103 0.53203 0.01700
H 	H 	0.61770 0.32420 0.53010 0.04500
C 	C 	0.67900 0.35345 0.50912 -0.07900
H 	H 	0.65610 0.36100 0.49180 0.06200
C 	C 	0.73480 0.36455 0.51183 0.01700
C 	C 	0.76710 0.35255 0.53715 -0.06900
H 	H 	0.80490 0.36030 0.53950 0.05900
C 	C 	0.74560 0.32884 0.56013 0.01100
H 	H 	0.76940 0.32030 0.57660 0.06300
C 	C 	0.68960 0.31866 0.55774 -0.07700
C 	C 	0.83210 0.45783 0.41779 0.41600
C 	C 	0.66560 0.29447 0.58232 0.33600
O 	O 	0.80246 0.97129 0.89685 -0.48100
O 	O 	0.88314 0.96330 0.91831 -0.46400
O 	O 	0.61175 0.79127 0.08373 -0.43400
O 	O 	0.69775 0.77897 0.10078 -0.45300
C 	C 	0.74830 0.92773 0.94189 0.08400
H 	H 	0.72460 0.93760 0.92610 0.02600
C 	C 	0.72570 0.90600 0.96505 -0.13900
H 	H 	0.68580 0.90290 0.96490 0.08200
C 	C 	0.75650 0.88867 0.98809 0.08200
C 	C 	0.81250 0.89883 0.98942 -0.13900
H 	H 	0.83600 0.88980 0.00580 0.07800
C 	C 	0.83630 0.92193 0.96772 0.08600
H 	H 	0.87440 0.92890 0.97080 0.02300
C 	C 	0.80600 0.93452 0.94236 -0.15600
C 	C 	0.65610 0.83103 0.03203 0.01700
H 	H 	0.61770 0.82420 0.03010 0.04500
C 	C 	0.67900 0.85345 0.00912 -0.07900
H 	H 	0.65610 0.86100 0.99180 0.06200
C 	C 	0.73480 0.86455 0.01183 0.01700
C 	C 	0.76710 0.85255 0.03715 -0.06900
H 	H 	0.80490 0.86030 0.03950 0.05900
C 	C 	0.74560 0.82884 0.06013 0.01200
H 	H 	0.76940 0.82030 0.07660 0.06300
C 	C 	0.68960 0.81866 0.05774 -0.07700
C 	C 	0.83210 0.95783 0.91779 0.41600
C 	C 	0.66560 0.79447 0.08232 0.33600
O 	O 	0.30246 0.47129 0.89685 -0.48100
O 	O 	0.38314 0.46330 0.91831 -0.46500
O 	O 	0.11175 0.29127 0.08373 -0.43400
O 	O 	0.19775 0.27897 0.10078 -0.45300
C 	C 	0.24830 0.42773 0.94189 0.08400
H 	H 	0.22460 0.43760 0.92610 0.02600
C 	C 	0.22570 0.40600 0.96505 -0.13900
H 	H 	0.18580 0.40290 0.96490 0.08200
C 	C 	0.25650 0.38867 0.98809 0.08200
C 	C 	0.31250 0.39883 0.98942 -0.13900
H 	H 	0.33600 0.38980 0.00580 0.07800
C 	C 	0.33630 0.42193 0.96772 0.08600
H 	H 	0.37440 0.42890 0.97080 0.02300
C 	C 	0.30600 0.43452 0.94236 -0.15600
C 	C 	0.15610 0.33103 0.03203 0.01700
H 	H 	0.11770 0.32420 0.03010 0.04500
C 	C 	0.17900 0.35345 0.00912 -0.07900
H 	H 	0.15610 0.36100 0.99180 0.06200
C 	C 	0.23480 0.36455 0.01183 0.01700
C 	C 	0.26710 0.35255 0.03715 -0.06900
H 	H 	0.30490 0.36030 0.03950 0.05900
C 	C 	0.24560 0.32884 0.06013 0.01100
H 	H 	0.26940 0.32030 0.07660 0.06300
C 	C 	0.18960 0.31866 0.05774 -0.07700
C 	C 	0.33210 0.45783 0.91779 0.41600
C 	C 	0.16560 0.29447 0.08232 0.33600
O 	O 	0.30246 0.97129 0.39685 -0.48100
O 	O 	0.38314 0.96330 0.41831 -0.46400
O 	O 	0.11175 0.79127 0.58373 -0.43400
O 	O 	0.19775 0.77897 0.60078 -0.45300
C 	C 	0.24830 0.92773 0.44189 0.08400
H 	H 	0.22460 0.93760 0.42610 0.02600
C 	C 	0.22570 0.90600 0.46505 -0.13900
H 	H 	0.18580 0.90290 0.46490 0.08200
C 	C 	0.25650 0.88867 0.48809 0.08200
C 	C 	0.31250 0.89883 0.48942 -0.13900
H 	H 	0.33600 0.88980 0.50580 0.07800
C 	C 	0.33630 0.92193 0.46772 0.08600
H 	H 	0.37440 0.92890 0.47080 0.02300
C 	C 	0.30600 0.93452 0.44236 -0.15600
C 	C 	0.15610 0.83103 0.53203 0.01700
H 	H 	0.11770 0.82420 0.53010 0.04500
C 	C 	0.17900 0.85345 0.50912 -0.07900
H 	H 	0.15610 0.86100 0.49180 0.06200
C 	C 	0.23480 0.86455 0.51183 0.01700
C 	C 	0.26710 0.85255 0.53715 -0.06900
H 	H 	0.30490 0.86030 0.53950 0.05900
C 	C 	0.24560 0.82884 0.56013 0.01200
H 	H 	0.26940 0.82030 0.57660 0.06300
C 	C 	0.18960 0.81866 0.55774 -0.07700
C 	C 	0.33210 0.95783 0.41779 0.41600
C 	C 	0.16560 0.79447 0.58232 0.33600
O 	O 	0.94754 0.47129 0.35315 -0.48100
O 	O 	0.86686 0.46330 0.33169 -0.46400
O 	O 	0.13825 0.29127 0.16627 -0.43400
O 	O 	0.05225 0.27897 0.14922 -0.45300
C 	C 	0.00170 0.42773 0.30811 0.08300
H 	H 	0.02540 0.43760 0.32390 0.02600
C 	C 	0.02430 0.40600 0.28495 -0.13900
H 	H 	0.06420 0.40290 0.28510 0.08200
C 	C 	0.99350 0.38867 0.26191 0.08100
C 	C 	0.93750 0.39883 0.26058 -0.13800
H 	H 	0.91400 0.38980 0.24420 0.07800
C 	C 	0.91370 0.42193 0.28228 0.08600
H 	H 	0.87560 0.42890 0.27920 0.02300
C 	C 	0.94400 0.43452 0.30764 -0.15600
C 	C 	0.09390 0.33103 0.21797 0.01800
H 	H 	0.13230 0.32420 0.21990 0.04500
C 	C 	0.07100 0.35345 0.24088 -0.07900
H 	H 	0.09390 0.36100 0.25820 0.06200
C 	C 	0.01520 0.36455 0.23817 0.01800
C 	C 	0.98290 0.35255 0.21285 -0.07000
H 	H 	0.94510 0.36030 0.21050 0.05900
C 	C 	0.00440 0.32884 0.18987 0.01200
H 	H 	0.98060 0.32030 0.17340 0.06300
C 	C 	0.06040 0.31866 0.19226 -0.07700
C 	C 	0.91790 0.45783 0.33221 0.41600
C 	C 	0.08440 0.29447 0.16768 0.33600
O 	O 	0.94754 0.97129 0.85315 -0.48100
O 	O 	0.86686 0.96330 0.83169 -0.46400
O 	O 	0.13825 0.79127 0.66627 -0.43400
O 	O 	0.05225 0.77897 0.64922 -0.45300
C 	C 	0.00170 0.92773 0.80811 0.08400
H 	H 	0.02540 0.93760 0.82390 0.02600
C 	C 	0.02430 0.90600 0.78495 -0.14000
H 	H 	0.06420 0.90290 0.78510 0.08300
C 	C 	0.99350 0.88867 0.76191 0.08300
C 	C 	0.93750 0.89883 0.76058 -0.13900
H 	H 	0.91400 0.88980 0.74420 0.07800
C 	C 	0.91370 0.92193 0.78228 0.08600
H 	H 	0.87560 0.92890 0.77920 0.02200
C 	C 	0.94400 0.93452 0.80764 -0.15600
C 	C 	0.09390 0.83103 0.71797 0.01700
H 	H 	0.13230 0.82420 0.71990 0.04500
C 	C 	0.07100 0.85345 0.74088 -0.07800
H 	H 	0.09390 0.86100 0.75820 0.06100
C 	C 	0.01520 0.86455 0.73817 0.01600
C 	C 	0.98290 0.85255 0.71285 -0.06800
H 	H 	0.94510 0.86030 0.71050 0.05900
C 	C 	0.00440 0.82884 0.68987 0.01000
H 	H 	0.98060 0.82030 0.67340 0.06400
C 	C 	0.06040 0.81866 0.69226 -0.07600
C 	C 	0.91790 0.95783 0.83221 0.41600
C 	C 	0.08440 0.79447 0.66768 0.33600
O 	O 	0.44754 0.47129 0.85315 -0.48100
O 	O 	0.36686 0.46330 0.83169 -0.46500
O 	O 	0.63825 0.29127 0.66627 -0.43400
O 	O 	0.55225 0.27897 0.64922 -0.45300
C 	C 	0.50170 0.42773 0.80811 0.08400
H 	H 	0.52540 0.43760 0.82390 0.02600
C 	C 	0.52430 0.40600 0.78495 -0.13900
H 	H 	0.56420 0.40290 0.78510 0.08200
C 	C 	0.49350 0.38867 0.76191 0.08200
C 	C 	0.43750 0.39883 0.76058 -0.13900
H 	H 	0.41400 0.38980 0.74420 0.07800
C 	C 	0.41370 0.42193 0.78228 0.08600
H 	H 	0.37560 0.42890 0.77920 0.02300
C 	C 	0.44400 0.43452 0.80764 -0.15600
C 	C 	0.59390 0.33103 0.71797 0.01700
H 	H 	0.63230 0.32420 0.71990 0.04500
C 	C 	0.57100 0.35345 0.74088 -0.07900
H 	H 	0.59390 0.36100 0.75820 0.06200
C 	C 	0.51520 0.36455 0.73817 0.01700
C 	C 	0.48290 0.35255 0.71285 -0.06900
H 	H 	0.44510 0.36030 0.71050 0.05900
C 	C 	0.50440 0.32884 0.68987 0.01200
H 	H 	0.48060 0.32030 0.67340 0.06300
C 	C 	0.56040 0.31866 0.69226 -0.07700
C 	C 	0.41790 0.45783 0.83221 0.41600
C 	C 	0.58440 0.29447 0.66768 0.33600
O 	O 	0.44754 0.97129 0.35315 -0.48100
O 	O 	0.36686 0.96330 0.33169 -0.46400
O 	O 	0.63825 0.79127 0.16627 -0.43400
O 	O 	0.55225 0.77897 0.14922 -0.45300
C 	C 	0.50170 0.92773 0.30811 0.08400
H 	H 	0.52540 0.93760 0.32390 0.02600
C 	C 	0.52430 0.90600 0.28495 -0.13900
H 	H 	0.56420 0.90290 0.28510 0.08200
C 	C 	0.49350 0.88867 0.26191 0.08200
C 	C 	0.43750 0.89883 0.26058 -0.13900
H 	H 	0.41400 0.88980 0.24420 0.07800
C 	C 	0.41370 0.92193 0.28228 0.08600
H 	H 	0.37560 0.92890 0.27920 0.02300
C 	C 	0.44400 0.93452 0.30764 -0.15600
C 	C 	0.59390 0.83103 0.21797 0.01700
H 	H 	0.63230 0.82420 0.21990 0.04500
C 	C 	0.57100 0.85345 0.24088 -0.07900
H 	H 	0.59390 0.86100 0.25820 0.06200
C 	C 	0.51520 0.86455 0.23817 0.01700
C 	C 	0.48290 0.85255 0.21285 -0.06900
H 	H 	0.44510 0.86030 0.21050 0.05900
C 	C 	0.50440 0.82884 0.18987 0.01200
H 	H 	0.48060 0.82030 0.17340 0.06300
C 	C 	0.56040 0.81866 0.19226 -0.07700
C 	C 	0.41790 0.95783 0.33221 0.41600
C 	C 	0.58440 0.79447 0.16768 0.33600
O 	O 	0.05246 0.72129 0.60315 -0.48100
O 	O 	0.13314 0.71330 0.58169 -0.46400
O 	O 	0.86175 0.54127 0.41627 -0.43400
O 	O 	0.94775 0.52897 0.39922 -0.45300
C 	C 	0.99830 0.67773 0.55811 0.08300
H 	H 	0.97460 0.68760 0.57390 0.02600
C 	C 	0.97570 0.65600 0.53495 -0.13900
H 	H 	0.93580 0.65290 0.53510 0.08200
C 	C 	0.00650 0.63867 0.51191 0.08100
C 	C 	0.06250 0.64883 0.51058 -0.13800
H 	H 	0.08600 0.63980 0.49420 0.07800
C 	C 	0.08630 0.67193 0.53228 0.08600
H 	H 	0.12440 0.67890 0.52920 0.02300
C 	C 	0.05600 0.68452 0.55764 -0.15600
C 	C 	0.90610 0.58103 0.46797 0.01700
H 	H 	0.86770 0.57420 0.46990 0.04500
C 	C 	0.92900 0.60345 0.49088 -0.07900
H 	H 	0.90610 0.61100 0.50820 0.06200
C 	C 	0.98480 0.61455 0.48817 0.01700
C 	C 	0.01710 0.60255 0.46285 -0.06900
H 	H 	0.05490 0.61030 0.46050 0.05900
C 	C 	0.99560 0.57884 0.43987 0.01200
H 	H 	0.01940 0.57030 0.42340 0.06300
C 	C 	0.93960 0.56866 0.44226 -0.07700
C 	C 	0.08210 0.70783 0.58221 0.41600
C 	C 	0.91560 0.54447 0.41768 0.33600
O 	O 	0.05246 0.22129 0.10315 -0.48100
O 	O 	0.13314 0.21330 0.08169 -0.46500
O 	O 	0.86175 0.04127 0.91627 -0.43400
O 	O 	0.94775 0.02897 0.89922 -0.45300
C 	C 	0.99830 0.17773 0.05811 0.08400
H 	H 	0.97460 0.18760 0.07390 0.02600
C 	C 	0.97570 0.15600 0.03495 -0.14000
H 	H 	0.93580 0.15290 0.03510 0.08300
C 	C 	0.00650 0.13867 0.01191 0.08300
C 	C 	0.06250 0.14883 0.01058 -0.13900
H 	H 	0.08600 0.13980 0.99420 0.07800
C 	C 	0.08630 0.17193 0.03228 0.08600
H 	H 	0.12440 0.17890 0.02920 0.02200
C 	C 	0.05600 0.18452 0.05764 -0.15600
C 	C 	0.90610 0.08103 0.96797 0.01700
H 	H 	0.86770 0.07420 0.96990 0.04500
C 	C 	0.92900 0.10345 0.99088 -0.07800
H 	H 	0.90610 0.11100 0.00820 0.06100
C 	C 	0.98480 0.11455 0.98817 0.01600
C 	C 	0.01710 0.10255 0.96285 -0.06800
H 	H 	0.05490 0.11030 0.96050 0.05900
C 	C 	0.99560 0.07884 0.93987 0.01000
H 	H 	0.01940 0.07030 0.92340 0.06400
C 	C 	0.93960 0.06866 0.94226 -0.07600
C 	C 	0.08210 0.20783 0.08221 0.41600
C 	C 	0.91560 0.04447 0.91768 0.33600
O 	O 	0.55246 0.72129 0.10315 -0.48100
O 	O 	0.63314 0.71330 0.08169 -0.46500
O 	O 	0.36175 0.54127 0.91627 -0.43400
O 	O 	0.44775 0.52897 0.89922 -0.45300
C 	C 	0.49830 0.67773 0.05811 0.08400
H 	H 	0.47460 0.68760 0.07390 0.02600
C 	C 	0.47570 0.65600 0.03495 -0.13900
H 	H 	0.43580 0.65290 0.03510 0.08200
C 	C 	0.50650 0.63867 0.01191 0.08200
C 	C 	0.56250 0.64883 0.01058 -0.13900
H 	H 	0.58600 0.63980 0.99420 0.07800
C 	C 	0.58630 0.67193 0.03228 0.08600
H 	H 	0.62440 0.67890 0.02920 0.02300
C 	C 	0.55600 0.68452 0.05764 -0.15600
C 	C 	0.40610 0.58103 0.96797 0.01700
H 	H 	0.36770 0.57420 0.96990 0.04500
C 	C 	0.42900 0.60345 0.99088 -0.07900
H 	H 	0.40610 0.61100 0.00820 0.06200
C 	C 	0.48480 0.61455 0.98817 0.01700
C 	C 	0.51710 0.60255 0.96285 -0.06900
H 	H 	0.55490 0.61030 0.96050 0.05900
C 	C 	0.49560 0.57884 0.93987 0.01100
H 	H 	0.51940 0.57030 0.92340 0.06300
C 	C 	0.43960 0.56866 0.94226 -0.07700
C 	C 	0.58210 0.70783 0.08221 0.41600
C 	C 	0.41560 0.54447 0.91768 0.33600
O 	O 	0.55246 0.22129 0.60315 -0.48100
O 	O 	0.63314 0.21330 0.58169 -0.46500
O 	O 	0.36175 0.04127 0.41627 -0.43400
O 	O 	0.44775 0.02897 0.39922 -0.45300
C 	C 	0.49830 0.17773 0.55811 0.08400
H 	H 	0.47460 0.18760 0.57390 0.02600
C 	C 	0.47570 0.15600 0.53495 -0.13900
H 	H 	0.43580 0.15290 0.53510 0.08200
C 	C 	0.50650 0.13867 0.51191 0.08200
C 	C 	0.56250 0.14883 0.51058 -0.13900
H 	H 	0.58600 0.13980 0.49420 0.07800
C 	C 	0.58630 0.17193 0.53228 0.08600
H 	H 	0.62440 0.17890 0.52920 0.02300
C 	C 	0.55600 0.18452 0.55764 -0.15600
C 	C 	0.40610 0.08103 0.46797 0.01700
H 	H 	0.36770 0.07420 0.46990 0.04500
C 	C 	0.42900 0.10345 0.49088 -0.07900
H 	H 	0.40610 0.11100 0.50820 0.06200
C 	C 	0.48480 0.11455 0.48817 0.01700
C 	C 	0.51710 0.10255 0.46285 -0.06900
H 	H 	0.55490 0.11030 0.46050 0.05900
C 	C 	0.49560 0.07884 0.43987 0.01100
H 	H 	0.51940 0.07030 0.42340 0.06300
C 	C 	0.43960 0.06866 0.44226 -0.07700
C 	C 	0.58210 0.20783 0.58221 0.41600
C 	C 	0.41560 0.04447 0.41768 0.33600
O 	O 	0.19754 0.72129 0.64685 -0.48100
O 	O 	0.11686 0.71330 0.66831 -0.46500
O 	O 	0.38825 0.54127 0.83373 -0.43400
O 	O 	0.30225 0.52897 0.85078 -0.45300
C 	C 	0.25170 0.67773 0.69189 0.08400
H 	H 	0.27540 0.68760 0.67610 0.02600
C 	C 	0.27430 0.65600 0.71505 -0.13900
H 	H 	0.31420 0.65290 0.71490 0.08200
C 	C 	0.24350 0.63867 0.73809 0.08200
C 	C 	0.18750 0.64883 0.73942 -0.13900
H 	H 	0.16400 0.63980 0.75580 0.07800
C 	C 	0.16370 0.67193 0.71772 0.08600
H 	H 	0.12560 0.67890 0.72080 0.02200
C 	C 	0.19400 0.68452 0.69236 -0.15600
C 	C 	0.34390 0.58103 0.78203 0.01700
H 	H 	0.38230 0.57420 0.78010 0.04500
C 	C 	0.32100 0.60345 0.75912 -0.07900
H 	H 	0.34390 0.61100 0.74180 0.06200
C 	C 	0.26520 0.61455 0.76183 0.01700
C 	C 	0.23290 0.60255 0.78715 -0.06900
H 	H 	0.19510 0.61030 0.78950 0.05900
C 	C 	0.25440 0.57884 0.81013 0.01100
H 	H 	0.23060 0.57030 0.82660 0.06300
C 	C 	0.31040 0.56866 0.80774 -0.07700
C 	C 	0.16790 0.70783 0.66779 0.41600
C 	C 	0.33440 0.54447 0.83232 0.33600
O 	O 	0.19754 0.22129 0.14685 -0.48100
O 	O 	0.11686 0.21330 0.16831 -0.46500
O 	O 	0.38825 0.04127 0.33373 -0.43400
O 	O 	0.30225 0.02897 0.35078 -0.45300
C 	C 	0.25170 0.17773 0.19189 0.08400
H 	H 	0.27540 0.18760 0.17610 0.02600
C 	C 	0.27430 0.15600 0.21505 -0.13900
H 	H 	0.31420 0.15290 0.21490 0.08200
C 	C 	0.24350 0.13867 0.23809 0.08200
C 	C 	0.18750 0.14883 0.23942 -0.13900
H 	H 	0.16400 0.13980 0.25580 0.07800
C 	C 	0.16370 0.17193 0.21772 0.08600
H 	H 	0.12560 0.17890 0.22080 0.02300
C 	C 	0.19400 0.18452 0.19236 -0.15600
C 	C 	0.34390 0.08103 0.28203 0.01700
H 	H 	0.38230 0.07420 0.28010 0.04500
C 	C 	0.32100 0.10345 0.25912 -0.07900
H 	H 	0.34390 0.11100 0.24180 0.06200
C 	C 	0.26520 0.11455 0.26183 0.01700
C 	C 	0.23290 0.10255 0.28715 -0.06900
H 	H 	0.19510 0.11030 0.28950 0.05900
C 	C 	0.25440 0.07884 0.31013 0.01100
H 	H 	0.23060 0.07030 0.32660 0.06300
C 	C 	0.31040 0.06866 0.30774 -0.07700
C 	C 	0.16790 0.20783 0.16779 0.41600
C 	C 	0.33440 0.04447 0.33232 0.33600
O 	O 	0.69754 0.72129 0.14685 -0.48100
O 	O 	0.61686 0.71330 0.16831 -0.46400
O 	O 	0.88825 0.54127 0.33373 -0.43400
O 	O 	0.80225 0.52897 0.35078 -0.45300
C 	C 	0.75170 0.67773 0.19189 0.08400
H 	H 	0.77540 0.68760 0.17610 0.02600
C 	C 	0.77430 0.65600 0.21505 -0.13900
H 	H 	0.81420 0.65290 0.21490 0.08200
C 	C 	0.74350 0.63867 0.23809 0.08200
C 	C 	0.68750 0.64883 0.23942 -0.13900
H 	H 	0.66400 0.63980 0.25580 0.07800
C 	C 	0.66370 0.67193 0.21772 0.08600
H 	H 	0.62560 0.67890 0.22080 0.02300
C 	C 	0.69400 0.68452 0.19236 -0.15600
C 	C 	0.84390 0.58103 0.28203 0.01700
H 	H 	0.88230 0.57420 0.28010 0.04500
C 	C 	0.82100 0.60345 0.25912 -0.07900
H 	H 	0.84390 0.61100 0.24180 0.06200
C 	C 	0.76520 0.61455 0.26183 0.01700
C 	C 	0.73290 0.60255 0.28715 -0.06900
H 	H 	0.69510 0.61030 0.28950 0.05900
C 	C 	0.75440 0.57884 0.31013 0.01200
H 	H 	0.73060 0.57030 0.32660 0.06300
C 	C 	0.81040 0.56866 0.30774 -0.07700
C 	C 	0.66790 0.70783 0.16779 0.41600
C 	C 	0.83440 0.54447 0.33232 0.33600
O 	O 	0.69754 0.22129 0.64685 -0.48100
O 	O 	0.61686 0.21330 0.66831 -0.46400
O 	O 	0.88825 0.04127 0.83373 -0.43400
O 	O 	0.80225 0.02897 0.85078 -0.45300
C 	C 	0.75170 0.17773 0.69189 0.08400
H 	H 	0.77540 0.18760 0.67610 0.02600
C 	C 	0.77430 0.15600 0.71505 -0.13900
H 	H 	0.81420 0.15290 0.71490 0.08200
C 	C 	0.74350 0.13867 0.73809 0.08200
C 	C 	0.68750 0.14883 0.73942 -0.13900
H 	H 	0.66400 0.13980 0.75580 0.07800
C 	C 	0.66370 0.17193 0.71772 0.08600
H 	H 	0.62560 0.17890 0.72080 0.02300
C 	C 	0.69400 0.18452 0.69236 -0.15600
C 	C 	0.84390 0.08103 0.78203 0.01700
H 	H 	0.88230 0.07420 0.78010 0.04500
C 	C 	0.82100 0.10345 0.75912 -0.07900
H 	H 	0.84390 0.11100 0.74180 0.06200
C 	C 	0.76520 0.11455 0.76183 0.01700
C 	C 	0.73290 0.10255 0.78715 -0.06900
H 	H 	0.69510 0.11030 0.78950 0.05900
C 	C 	0.75440 0.07884 0.81013 0.01100
H 	H 	0.73060 0.07030 0.82660 0.06300
C 	C 	0.81040 0.06866 0.80774 -0.07700
C 	C 	0.66790 0.20783 0.66779 0.41600
C 	C 	0.83440 0.04447 0.83232 0.33600
In	In	0.87500 0.50134 0.37500 2.00000
In	In	0.87500 0.00134 0.87500 2.00000
In	In	0.37500 0.50134 0.87500 2.00000
In	In	0.37500 0.00134 0.37500 2.00000
In	In	0.12500 0.75134 0.62500 2.00000
In	In	0.12500 0.25134 0.12500 2.00000
In	In	0.62500 0.75134 0.12500 2.00000
In	In	0.62500 0.25134 0.62500 2.00000
O 	O 	0.12597 0.66489 0.40196 -0.46100
O 	O 	0.04151 0.64771 0.38586 -0.42800
O 	O 	0.85289 0.83597 0.56901 -0.42000
O 	O 	0.93868 0.84323 0.58744 -0.45800
C 	C 	0.07880 0.71319 0.44436 0.03700
H 	H 	0.11860 0.71380 0.44090 0.04100
C 	C 	0.05360 0.73519 0.46641 -0.10700
H 	H 	0.07680 0.75070 0.47740 0.07400
C 	C 	0.99490 0.73491 0.47274 0.05200
C 	C 	0.96190 0.71128 0.45602 -0.11000
H 	H 	0.92240 0.70970 0.46000 0.07500
C 	C 	0.98730 0.69034 0.43365 0.04200
H 	H 	0.96390 0.67530 0.42200 0.04100
C 	C 	0.04510 0.69021 0.42739 -0.10000
C 	C 	0.89090 0.79221 0.51843 0.02600
H 	H 	0.85270 0.79920 0.51690 0.04300
C 	C 	0.91470 0.76993 0.49554 -0.09200
H 	H 	0.89150 0.76220 0.47840 0.06800
C 	C 	0.97100 0.75881 0.49704 0.03600
C 	C 	0.00470 0.77049 0.52320 -0.09000
H 	H 	0.04260 0.76300 0.52540 0.07200
C 	C 	0.98230 0.79327 0.54606 0.02800
H 	H 	0.00570 0.80140 0.56290 0.06000
C 	C 	0.92680 0.80367 0.54390 -0.09400
C 	C 	0.07140 0.66596 0.40346 0.32800
C 	C 	0.90350 0.82872 0.56738 0.34500
O 	O 	0.12597 0.16489 0.90196 -0.46100
O 	O 	0.04151 0.14771 0.88586 -0.42800
O 	O 	0.85289 0.33597 0.06901 -0.42000
O 	O 	0.93868 0.34323 0.08744 -0.45800
C 	C 	0.07880 0.21319 0.94436 0.03700
H 	H 	0.11860 0.21380 0.94090 0.04100
C 	C 	0.05360 0.23519 0.96641 -0.10700
H 	H 	0.07680 0.25070 0.97740 0.07400
C 	C 	0.99490 0.23491 0.97274 0.05200
C 	C 	0.96190 0.21128 0.95602 -0.11000
H 	H 	0.92240 0.20970 0.96000 0.07500
C 	C 	0.98730 0.19034 0.93365 0.04100
H 	H 	0.96390 0.17530 0.92200 0.04100
C 	C 	0.04510 0.19021 0.92739 -0.10000
C 	C 	0.89090 0.29221 0.01843 0.02500
H 	H 	0.85270 0.29920 0.01690 0.04300
C 	C 	0.91470 0.26993 0.99554 -0.09200
H 	H 	0.89150 0.26220 0.97840 0.06700
C 	C 	0.97100 0.25881 0.99704 0.03500
C 	C 	0.00470 0.27049 0.02320 -0.08900
H 	H 	0.04260 0.26300 0.02540 0.07100
C 	C 	0.98230 0.29327 0.04606 0.02700
H 	H 	0.00570 0.30140 0.06290 0.06000
C 	C 	0.92680 0.30367 0.04390 -0.09300
C 	C 	0.07140 0.16596 0.90346 0.32800
C 	C 	0.90350 0.32872 0.06738 0.34400
O 	O 	0.62597 0.66489 0.90196 -0.46100
O 	O 	0.54151 0.64771 0.88586 -0.42800
O 	O 	0.35289 0.83597 0.06901 -0.42000
O 	O 	0.43868 0.84323 0.08744 -0.45800
C 	C 	0.57880 0.71319 0.94436 0.03700
H 	H 	0.61860 0.71380 0.94090 0.04100
C 	C 	0.55360 0.73519 0.96641 -0.10700
H 	H 	0.57680 0.75070 0.97740 0.07400
C 	C 	0.49490 0.73491 0.97274 0.05200
C 	C 	0.46190 0.71128 0.95602 -0.11100
H 	H 	0.42240 0.70970 0.96000 0.07500
C 	C 	0.48730 0.69034 0.93365 0.04200
H 	H 	0.46390 0.67530 0.92200 0.04100
C 	C 	0.54510 0.69021 0.92739 -0.10000
C 	C 	0.39090 0.79221 0.01843 0.02600
H 	H 	0.35270 0.79920 0.01690 0.04300
C 	C 	0.41470 0.76993 0.99554 -0.09200
H 	H 	0.39150 0.76220 0.97840 0.06700
C 	C 	0.47100 0.75881 0.99704 0.03500
C 	C 	0.50470 0.77049 0.02320 -0.09000
H 	H 	0.54260 0.76300 0.02540 0.07100
C 	C 	0.48230 0.79327 0.04606 0.02800
H 	H 	0.50570 0.80140 0.06290 0.06000
C 	C 	0.42680 0.80367 0.04390 -0.09300
C 	C 	0.57140 0.66596 0.90346 0.32800
C 	C 	0.40350 0.82872 0.06738 0.34500
O 	O 	0.62597 0.16489 0.40196 -0.46100
O 	O 	0.54151 0.14771 0.38586 -0.42800
O 	O 	0.35289 0.33597 0.56901 -0.42000
O 	O 	0.43868 0.34323 0.58744 -0.45800
C 	C 	0.57880 0.21319 0.44436 0.03700
H 	H 	0.61860 0.21380 0.44090 0.04100
C 	C 	0.55360 0.23519 0.46641 -0.10700
H 	H 	0.57680 0.25070 0.47740 0.07400
C 	C 	0.49490 0.23491 0.47274 0.05200
C 	C 	0.46190 0.21128 0.45602 -0.11100
H 	H 	0.42240 0.20970 0.46000 0.07500
C 	C 	0.48730 0.19034 0.43365 0.04200
H 	H 	0.46390 0.17530 0.42200 0.04100
C 	C 	0.54510 0.19021 0.42739 -0.10000
C 	C 	0.39090 0.29221 0.51843 0.02600
H 	H 	0.35270 0.29920 0.51690 0.04300
C 	C 	0.41470 0.26993 0.49554 -0.09200
H 	H 	0.39150 0.26220 0.47840 0.06700
C 	C 	0.47100 0.25881 0.49704 0.03500
C 	C 	0.50470 0.27049 0.52320 -0.09000
H 	H 	0.54260 0.26300 0.52540 0.07100
C 	C 	0.48230 0.29327 0.54606 0.02800
H 	H 	0.50570 0.30140 0.56290 0.06000
C 	C 	0.42680 0.30367 0.54390 -0.09300
C 	C 	0.57140 0.16596 0.40346 0.32800
C 	C 	0.40350 0.32872 0.56738 0.34500
O 	O 	0.62403 0.08511 0.40196 -0.46100
O 	O 	0.70849 0.10229 0.38586 -0.42800
O 	O 	0.89711 0.91403 0.56901 -0.42000
O 	O 	0.81132 0.90677 0.58744 -0.45800
C 	C 	0.67120 0.03681 0.44436 0.03700
H 	H 	0.63140 0.03620 0.44090 0.04100
C 	C 	0.69640 0.01481 0.46641 -0.10700
H 	H 	0.67320 0.99930 0.47740 0.07400
C 	C 	0.75510 0.01509 0.47274 0.05200
C 	C 	0.78810 0.03872 0.45602 -0.11100
H 	H 	0.82760 0.04030 0.46000 0.07500
C 	C 	0.76270 0.05966 0.43365 0.04200
H 	H 	0.78610 0.07470 0.42200 0.04100
C 	C 	0.70490 0.05979 0.42739 -0.10000
C 	C 	0.85910 0.95779 0.51843 0.02600
H 	H 	0.89730 0.95080 0.51690 0.04300
C 	C 	0.83530 0.98007 0.49554 -0.09200
H 	H 	0.85850 0.98780 0.47840 0.06800
C 	C 	0.77900 0.99119 0.49704 0.03500
C 	C 	0.74530 0.97951 0.52320 -0.09000
H 	H 	0.70740 0.98700 0.52540 0.07100
C 	C 	0.76770 0.95673 0.54606 0.02800
H 	H 	0.74430 0.94860 0.56290 0.06000
C 	C 	0.82320 0.94633 0.54390 -0.09300
C 	C 	0.67860 0.08404 0.40346 0.32800
C 	C 	0.84650 0.92128 0.56738 0.34500
O 	O 	0.62403 0.58511 0.90196 -0.46100
O 	O 	0.70849 0.60229 0.88586 -0.42800
O 	O 	0.89711 0.41403 0.06901 -0.42000
O 	O 	0.81132 0.40677 0.08744 -0.45800
C 	C 	0.67120 0.53681 0.94436 0.03700
H 	H 	0.63140 0.53620 0.94090 0.04100
C 	C 	0.69640 0.51481 0.96641 -0.10700
H 	H 	0.67320 0.49930 0.97740 0.07400
C 	C 	0.75510 0.51509 0.97274 0.05200
C 	C 	0.78810 0.53872 0.95602 -0.11100
H 	H 	0.82760 0.54030 0.96000 0.07500
C 	C 	0.76270 0.55966 0.93365 0.04200
H 	H 	0.78610 0.57470 0.92200 0.04100
C 	C 	0.70490 0.55979 0.92739 -0.10000
C 	C 	0.85910 0.45779 0.01843 0.02600
H 	H 	0.89730 0.45080 0.01690 0.04300
C 	C 	0.83530 0.48007 0.99554 -0.09200
H 	H 	0.85850 0.48780 0.97840 0.06700
C 	C 	0.77900 0.49119 0.99704 0.03500
C 	C 	0.74530 0.47951 0.02320 -0.09000
H 	H 	0.70740 0.48700 0.02540 0.07100
C 	C 	0.76770 0.45673 0.04606 0.02800
H 	H 	0.74430 0.44860 0.06290 0.06000
C 	C 	0.82320 0.44633 0.04390 -0.09300
C 	C 	0.67860 0.58404 0.90346 0.32800
C 	C 	0.84650 0.42128 0.06738 0.34500
O 	O 	0.12403 0.08511 0.90196 -0.46100
O 	O 	0.20849 0.10229 0.88586 -0.42800
O 	O 	0.39711 0.91403 0.06901 -0.42000
O 	O 	0.31132 0.90677 0.08744 -0.45800
C 	C 	0.17120 0.03681 0.94436 0.03700
H 	H 	0.13140 0.03620 0.94090 0.04100
C 	C 	0.19640 0.01481 0.96641 -0.10700
H 	H 	0.17320 0.99930 0.97740 0.07400
C 	C 	0.25510 0.01509 0.97274 0.05200
C 	C 	0.28810 0.03872 0.95602 -0.11100
H 	H 	0.32760 0.04030 0.96000 0.07500
C 	C 	0.26270 0.05966 0.93365 0.04200
H 	H 	0.28610 0.07470 0.92200 0.04100
C 	C 	0.20490 0.05979 0.92739 -0.10000
C 	C 	0.35910 0.95779 0.01843 0.02600
H 	H 	0.39730 0.95080 0.01690 0.04300
C 	C 	0.33530 0.98007 0.99554 -0.09200
H 	H 	0.35850 0.98780 0.97840 0.06800
C 	C 	0.27900 0.99119 0.99704 0.03500
C 	C 	0.24530 0.97951 0.02320 -0.09000
H 	H 	0.20740 0.98700 0.02540 0.07100
C 	C 	0.26770 0.95673 0.04606 0.02800
H 	H 	0.24430 0.94860 0.06290 0.06000
C 	C 	0.32320 0.94633 0.04390 -0.09300
C 	C 	0.17860 0.08404 0.90346 0.32800
C 	C 	0.34650 0.92128 0.06738 0.34500
O 	O 	0.12403 0.58511 0.40196 -0.46100
O 	O 	0.20849 0.60229 0.38586 -0.42800
O 	O 	0.39711 0.41403 0.56901 -0.42000
O 	O 	0.31132 0.40677 0.58744 -0.45800
C 	C 	0.17120 0.53681 0.44436 0.03700
H 	H 	0.13140 0.53620 0.44090 0.04100
C 	C 	0.19640 0.51481 0.46641 -0.10700
H 	H 	0.17320 0.49930 0.47740 0.07400
C 	C 	0.25510 0.51509 0.47274 0.05200
C 	C 	0.28810 0.53872 0.45602 -0.11100
H 	H 	0.32760 0.54030 0.46000 0.07500
C 	C 	0.26270 0.55966 0.43365 0.04200
H 	H 	0.28610 0.57470 0.42200 0.04100
C 	C 	0.20490 0.55979 0.42739 -0.10000
C 	C 	0.35910 0.45779 0.51843 0.02600
H 	H 	0.39730 0.45080 0.51690 0.04300
C 	C 	0.33530 0.48007 0.49554 -0.09200
H 	H 	0.35850 0.48780 0.47840 0.06700
C 	C 	0.27900 0.49119 0.49704 0.03500
C 	C 	0.24530 0.47951 0.52320 -0.09000
H 	H 	0.20740 0.48700 0.52540 0.07100
C 	C 	0.26770 0.45673 0.54606 0.02800
H 	H 	0.24430 0.44860 0.56290 0.06000
C 	C 	0.32320 0.44633 0.54390 -0.09300
C 	C 	0.17860 0.58404 0.40346 0.32800
C 	C 	0.34650 0.42128 0.56738 0.34500
O 	O 	0.37597 0.33511 0.65196 -0.46100
O 	O 	0.29151 0.35229 0.63586 -0.42800
O 	O 	0.10289 0.16403 0.81901 -0.42000
O 	O 	0.18868 0.15677 0.83744 -0.45800
C 	C 	0.32880 0.28681 0.69436 0.03700
H 	H 	0.36860 0.28620 0.69090 0.04100
C 	C 	0.30360 0.26481 0.71641 -0.10700
H 	H 	0.32680 0.24930 0.72740 0.07400
C 	C 	0.24490 0.26509 0.72274 0.05200
C 	C 	0.21190 0.28872 0.70602 -0.11100
H 	H 	0.17240 0.29030 0.71000 0.07500
C 	C 	0.23730 0.30966 0.68365 0.04200
H 	H 	0.21390 0.32470 0.67200 0.04100
C 	C 	0.29510 0.30979 0.67739 -0.10000
C 	C 	0.14090 0.20779 0.76843 0.02600
H 	H 	0.10270 0.20080 0.76690 0.04300
C 	C 	0.16470 0.23007 0.74554 -0.09200
H 	H 	0.14150 0.23780 0.72840 0.06700
C 	C 	0.22100 0.24119 0.74704 0.03500
C 	C 	0.25470 0.22951 0.77320 -0.09000
H 	H 	0.29260 0.23700 0.77540 0.07100
C 	C 	0.23230 0.20673 0.79606 0.02800
H 	H 	0.25570 0.19860 0.81290 0.06000
C 	C 	0.17680 0.19633 0.79390 -0.09300
C 	C 	0.32140 0.33404 0.65346 0.32800
C 	C 	0.15350 0.17128 0.81738 0.34500
O 	O 	0.37597 0.83511 0.15196 -0.46100
O 	O 	0.29151 0.85229 0.13586 -0.42800
O 	O 	0.10289 0.66403 0.31901 -0.42000
O 	O 	0.18868 0.65677 0.33744 -0.45800
C 	C 	0.32880 0.78681 0.19436 0.03700
H 	H 	0.36860 0.78620 0.19090 0.04100
C 	C 	0.30360 0.76481 0.21641 -0.10700
H 	H 	0.32680 0.74930 0.22740 0.07400
C 	C 	0.24490 0.76509 0.22274 0.05200
C 	C 	0.21190 0.78872 0.20602 -0.11100
H 	H 	0.17240 0.79030 0.21000 0.07500
C 	C 	0.23730 0.80966 0.18365 0.04200
H 	H 	0.21390 0.82470 0.17200 0.04100
C 	C 	0.29510 0.80979 0.17739 -0.10000
C 	C 	0.14090 0.70779 0.26843 0.02600
H 	H 	0.10270 0.70080 0.26690 0.04300
C 	C 	0.16470 0.73007 0.24554 -0.09200
H 	H 	0.14150 0.73780 0.22840 0.06700
C 	C 	0.22100 0.74119 0.24704 0.03500
C 	C 	0.25470 0.72951 0.27320 -0.09000
H 	H 	0.29260 0.73700 0.27540 0.07100
C 	C 	0.23230 0.70673 0.29606 0.02800
H 	H 	0.25570 0.69860 0.31290 0.06000
C 	C 	0.17680 0.69633 0.29390 -0.09300
C 	C 	0.32140 0.83404 0.15346 0.32800
C 	C 	0.15350 0.67128 0.31738 0.34500
O 	O 	0.87597 0.33511 0.15196 -0.46100
O 	O 	0.79151 0.35229 0.13586 -0.42800
O 	O 	0.60289 0.16403 0.31901 -0.42000
O 	O 	0.68868 0.15677 0.33744 -0.45800
C 	C 	0.82880 0.28681 0.19436 0.03700
H 	H 	0.86860 0.28620 0.19090 0.04100
C 	C 	0.80360 0.26481 0.21641 -0.10700
H 	H 	0.82680 0.24930 0.22740 0.07400
C 	C 	0.74490 0.26509 0.22274 0.05200
C 	C 	0.71190 0.28872 0.20602 -0.11100
H 	H 	0.67240 0.29030 0.21000 0.07500
C 	C 	0.73730 0.30966 0.18365 0.04200
H 	H 	0.71390 0.32470 0.17200 0.04100
C 	C 	0.79510 0.30979 0.17739 -0.10000
C 	C 	0.64090 0.20779 0.26843 0.02600
H 	H 	0.60270 0.20080 0.26690 0.04300
C 	C 	0.66470 0.23007 0.24554 -0.09200
H 	H 	0.64150 0.23780 0.22840 0.06700
C 	C 	0.72100 0.24119 0.24704 0.03500
C 	C 	0.75470 0.22951 0.27320 -0.09000
H 	H 	0.79260 0.23700 0.27540 0.07100
C 	C 	0.73230 0.20673 0.29606 0.02800
H 	H 	0.75570 0.19860 0.31290 0.06000
C 	C 	0.67680 0.19633 0.29390 -0.09300
C 	C 	0.82140 0.33404 0.15346 0.32800
C 	C 	0.65350 0.17128 0.31738 0.34500
O 	O 	0.87597 0.83511 0.65196 -0.46100
O 	O 	0.79151 0.85229 0.63586 -0.42800
O 	O 	0.60289 0.66403 0.81901 -0.42000
O 	O 	0.68868 0.65677 0.83744 -0.45800
C 	C 	0.82880 0.78681 0.69436 0.03700
H 	H 	0.86860 0.78620 0.69090 0.04100
C 	C 	0.80360 0.76481 0.71641 -0.10700
H 	H 	0.82680 0.74930 0.72740 0.07400
C 	C 	0.74490 0.76509 0.72274 0.05200
C 	C 	0.71190 0.78872 0.70602 -0.11100
H 	H 	0.67240 0.79030 0.71000 0.07500
C 	C 	0.73730 0.80966 0.68365 0.04200
H 	H 	0.71390 0.82470 0.67200 0.04100
C 	C 	0.79510 0.80979 0.67739 -0.10000
C 	C 	0.64090 0.70779 0.76843 0.02600
H 	H 	0.60270 0.70080 0.76690 0.04300
C 	C 	0.66470 0.73007 0.74554 -0.09200
H 	H 	0.64150 0.73780 0.72840 0.06700
C 	C 	0.72100 0.74119 0.74704 0.03500
C 	C 	0.75470 0.72951 0.77320 -0.09000
H 	H 	0.79260 0.73700 0.77540 0.07100
C 	C 	0.73230 0.70673 0.79606 0.02800
H 	H 	0.75570 0.69860 0.81290 0.06000
C 	C 	0.67680 0.69633 0.79390 -0.09300
C 	C 	0.82140 0.83404 0.65346 0.32800
C 	C 	0.65350 0.67128 0.81738 0.34500
O 	O 	0.87403 0.91489 0.65196 -0.46100
O 	O 	0.95849 0.89771 0.63586 -0.42800
O 	O 	0.14711 0.08597 0.81901 -0.42000
O 	O 	0.06132 0.09323 0.83744 -0.45800
C 	C 	0.92120 0.96319 0.69436 0.03500
H 	H 	0.88140 0.96380 0.69090 0.04200
C 	C 	0.94640 0.98519 0.71641 -0.10500
H 	H 	0.92320 0.00070 0.72740 0.07300
C 	C 	0.00510 0.98491 0.72274 0.05000
C 	C 	0.03810 0.96128 0.70602 -0.10900
H 	H 	0.07760 0.95970 0.71000 0.07400
C 	C 	0.01270 0.94034 0.68365 0.04000
H 	H 	0.03610 0.92530 0.67200 0.04200
C 	C 	0.95490 0.94021 0.67739 -0.09900
C 	C 	0.10910 0.04221 0.76843 0.02700
H 	H 	0.14730 0.04920 0.76690 0.04200
C 	C 	0.08530 0.01993 0.74554 -0.09300
H 	H 	0.10850 0.01220 0.72840 0.06800
C 	C 	0.02900 0.00881 0.74704 0.03700
C 	C 	0.99530 0.02049 0.77320 -0.09200
H 	H 	0.95740 0.01300 0.77540 0.07200
C 	C 	0.01770 0.04327 0.79606 0.02900
H 	H 	0.99430 0.05140 0.81290 0.06000
C 	C 	0.07320 0.05367 0.79390 -0.09400
C 	C 	0.92860 0.91596 0.65346 0.32700
C 	C 	0.09650 0.07872 0.81738 0.34500
O 	O 	0.87403 0.41489 0.15196 -0.46100
O 	O 	0.95849 0.39771 0.13586 -0.42800
O 	O 	0.14711 0.58597 0.31901 -0.42000
O 	O 	0.06132 0.59323 0.33744 -0.45800
C 	C 	0.92120 0.46319 0.19436 0.03700
H 	H 	0.88140 0.46380 0.19090 0.04100
C 	C 	0.94640 0.48519 0.21641 -0.10700
H 	H 	0.92320 0.50070 0.22740 0.07400
C 	C 	0.00510 0.48491 0.22274 0.05200
C 	C 	0.03810 0.46128 0.20602 -0.11000
H 	H 	0.07760 0.45970 0.21000 0.07500
C 	C 	0.01270 0.44034 0.18365 0.04200
H 	H 	0.03610 0.42530 0.17200 0.04100
C 	C 	0.95490 0.44021 0.17739 -0.10000
C 	C 	0.10910 0.54221 0.26843 0.02600
H 	H 	0.14730 0.54920 0.26690 0.04300
C 	C 	0.08530 0.51993 0.24554 -0.09200
H 	H 	0.10850 0.51220 0.22840 0.06800
C 	C 	0.02900 0.50881 0.24704 0.03500
C 	C 	0.99530 0.52049 0.27320 -0.09000
H 	H 	0.95740 0.51300 0.27540 0.07100
C 	C 	0.01770 0.54327 0.29606 0.02800
H 	H 	0.99430 0.55140 0.31290 0.06000
C 	C 	0.07320 0.55367 0.29390 -0.09300
C 	C 	0.92860 0.41596 0.15346 0.32800
C 	C 	0.09650 0.57872 0.31738 0.34500
O 	O 	0.37403 0.91489 0.15196 -0.46100
O 	O 	0.45849 0.89771 0.13586 -0.42800
O 	O 	0.64711 0.08597 0.31901 -0.42000
O 	O 	0.56132 0.09323 0.33744 -0.45800
C 	C 	0.42120 0.96319 0.19436 0.03700
H 	H 	0.38140 0.96380 0.19090 0.04100
C 	C 	0.44640 0.98519 0.21641 -0.10700
H 	H 	0.42320 0.00070 0.22740 0.07400
C 	C 	0.50510 0.98491 0.22274 0.05200
C 	C 	0.53810 0.96128 0.20602 -0.11100
H 	H 	0.57760 0.95970 0.21000 0.07500
C 	C 	0.51270 0.94034 0.18365 0.04200
H 	H 	0.53610 0.92530 0.17200 0.04100
C 	C 	0.45490 0.94021 0.17739 -0.10000
C 	C 	0.60910 0.04221 0.26843 0.02600
H 	H 	0.64730 0.04920 0.26690 0.04300
C 	C 	0.58530 0.01993 0.24554 -0.09200
H 	H 	0.60850 0.01220 0.22840 0.06800
C 	C 	0.52900 0.00881 0.24704 0.03500
C 	C 	0.49530 0.02049 0.27320 -0.09000
H 	H 	0.45740 0.01300 0.27540 0.07100
C 	C 	0.51770 0.04327 0.29606 0.02800
H 	H 	0.49430 0.05140 0.31290 0.06000
C 	C 	0.57320 0.05367 0.29390 -0.09300
C 	C 	0.42860 0.91596 0.15346 0.32800
C 	C 	0.59650 0.07872 0.31738 0.34500
O 	O 	0.37403 0.41489 0.65196 -0.46100
O 	O 	0.45849 0.39771 0.63586 -0.42800
O 	O 	0.64711 0.58597 0.81901 -0.42000
O 	O 	0.56132 0.59323 0.83744 -0.45800
C 	C 	0.42120 0.46319 0.69436 0.03700
H 	H 	0.38140 0.46380 0.69090 0.04100
C 	C 	0.44640 0.48519 0.71641 -0.10700
H 	H 	0.42320 0.50070 0.72740 0.07400
C 	C 	0.50510 0.48491 0.72274 0.05200
C 	C 	0.53810 0.46128 0.70602 -0.11100
H 	H 	0.57760 0.45970 0.71000 0.07500
C 	C 	0.51270 0.44034 0.68365 0.04200
H 	H 	0.53610 0.42530 0.67200 0.04100
C 	C 	0.45490 0.44021 0.67739 -0.10000
C 	C 	0.60910 0.54221 0.76843 0.02600
H 	H 	0.64730 0.54920 0.76690 0.04300
C 	C 	0.58530 0.51993 0.74554 -0.09200
H 	H 	0.60850 0.51220 0.72840 0.06700
C 	C 	0.52900 0.50881 0.74704 0.03500
C 	C 	0.49530 0.52049 0.77320 -0.09000
H 	H 	0.45740 0.51300 0.77540 0.07100
C 	C 	0.51770 0.54327 0.79606 0.02800
H 	H 	0.49430 0.55140 0.81290 0.06000
C 	C 	0.57320 0.55367 0.79390 -0.09300
C 	C 	0.42860 0.41596 0.65346 0.32800
C 	C 	0.59650 0.57872 0.81738 0.34500
In	In	0.12500 0.62500 0.36273 1.99700
In	In	0.12500 0.12500 0.86273 1.99700
In	In	0.62500 0.12500 0.36273 1.99700
In	In	0.62500 0.62500 0.86273 1.99700
In	In	0.37500 0.37500 0.61273 1.99700
In	In	0.37500 0.87500 0.11273 1.99700
In	In	0.87500 0.87500 0.61273 1.99700
In	In	0.87500 0.37500 0.11273 1.99700
