data_crystal

_cell_length_a 13.34640
_cell_length_b 13.89450
_cell_length_c 14.56500
_cell_angle_alpha 90.00000
_cell_angle_beta  114.55300
_cell_angle_gamma 90.00000

_symmetry_space_group_name_	'P 1'
_symmetry_space_group_name_H-M	'P 1'

loop_
_symmetry_equiv_pos_as_xyz
  x,y,z

loop_
_atom_site_label
_atom_site_type_symbol
_atom_site_fract_x
_atom_site_fract_y
_atom_site_fract_z
_atom_site_charge
Ni	Ni	0.47670 0.59877 0.23692 1.12300
Ni	Ni	0.65827 0.73417 0.42509 1.04100
Ni	Ni	0.02330 0.09877 0.26308 1.12200
Ni	Ni	0.84173 0.23417 0.07491 1.04100
H 	H 	0.06700 0.17060 0.81940 0.04400
H 	H 	0.96280 0.23370 0.80260 0.04800
H 	H 	0.96450 0.23390 0.49840 0.08600
H 	H 	0.75960 0.39960 0.27070 0.05300
H 	H 	0.80290 0.45200 0.55610 0.09200
H 	H 	0.04230 0.21210 0.97420 0.06900
H 	H 	0.24320 0.42150 0.95930 0.09900
H 	H 	0.24900 0.34570 0.22770 0.05600
H 	H 	0.97410 0.18400 0.64800 0.04500
H 	H 	0.07540 0.25390 0.67690 0.04900
H 	H 	0.43300 0.67060 0.68060 0.04400
H 	H 	0.53720 0.73370 0.69740 0.04400
H 	H 	0.53550 0.73390 0.00160 0.08500
H 	H 	0.74040 0.89960 0.22930 0.05200
H 	H 	0.69710 0.95200 0.94390 0.09100
H 	H 	0.45770 0.71210 0.52580 0.07300
H 	H 	0.25680 0.92150 0.54070 0.09900
H 	H 	0.25100 0.84570 0.27230 0.05700
H 	H 	0.52590 0.68400 0.85200 0.04200
H 	H 	0.42460 0.75390 0.82310 0.04800
C 	C 	0.69440 0.52568 0.37260 0.36100
C 	C 	0.77090 0.44040 0.40830 -0.04500
C 	C 	0.25920 0.39502 0.10154 -0.01900
C 	C 	0.89060 0.33930 0.54321 0.17300
C 	C 	0.03100 0.23170 0.79380 0.00500
C 	C 	0.86650 0.30930 0.37307 -0.05100
C 	C 	0.91570 0.28540 0.47590 -0.11100
C 	C 	0.79350 0.38530 0.33920 -0.00700
C 	C 	0.81900 0.41620 0.51010 -0.11000
C 	C 	0.09680 0.25770 0.00610 -0.12600
C 	C 	0.21730 0.38320 0.99720 -0.13500
C 	C 	0.13700 0.31460 0.95020 0.17600
C 	C 	0.22050 0.33820 0.15797 -0.02800
C 	C 	0.34530 0.46970 0.15285 0.27400
C 	C 	0.00760 0.24230 0.68450 -0.00100
C 	C 	0.13910 0.26998 0.11051 -0.05200
C 	C 	0.89520 0.25353 0.29950 0.37600
C 	C 	0.09740 0.21073 0.17200 0.30600
C 	C 	0.80560 0.02568 0.12740 0.36200
C 	C 	0.72910 0.94040 0.09170 -0.04800
C 	C 	0.24080 0.89502 0.39846 -0.02000
C 	C 	0.60940 0.83930 0.95679 0.17200
C 	C 	0.46900 0.73170 0.70620 0.00900
C 	C 	0.63350 0.80930 0.12693 -0.05200
C 	C 	0.58430 0.78540 0.02410 -0.11100
C 	C 	0.70650 0.88530 0.16080 -0.00500
C 	C 	0.68100 0.91620 0.98990 -0.10800
C 	C 	0.40320 0.75770 0.49390 -0.13300
C 	C 	0.28270 0.88320 0.50280 -0.13600
C 	C 	0.36300 0.81460 0.54980 0.18000
C 	C 	0.27950 0.83820 0.34203 -0.03000
C 	C 	0.15470 0.96970 0.34715 0.27700
C 	C 	0.49240 0.74230 0.81550 0.00500
C 	C 	0.36090 0.76998 0.38949 -0.04900
C 	C 	0.60480 0.75353 0.20050 0.37600
C 	C 	0.40260 0.71073 0.32800 0.30500
O 	O 	0.10117 0.30962 0.84720 -0.21000
O 	O 	0.93391 0.32208 0.64569 -0.20200
O 	O 	0.37774 0.48406 0.24595 -0.35900
O 	O 	0.61359 0.51794 0.28784 -0.41700
O 	O 	0.38592 0.51922 0.10450 -0.36300
O 	O 	0.71731 0.59766 0.42940 -0.44300
O 	O 	0.97383 0.19365 0.33554 -0.43500
O 	O 	0.84266 0.27096 0.20790 -0.46800
O 	O 	0.00069 0.17322 0.13210 -0.52000
O 	O 	0.15567 0.19417 0.26324 -0.37300
O 	O 	0.39883 0.80962 0.65280 -0.21100
O 	O 	0.56609 0.82208 0.85431 -0.20400
O 	O 	0.12226 0.98406 0.25405 -0.35800
O 	O 	0.88641 0.01794 0.21216 -0.41600
O 	O 	0.11408 0.01922 0.39550 -0.36700
O 	O 	0.78269 0.09766 0.07060 -0.44300
O 	O 	0.52617 0.69365 0.16446 -0.43500
O 	O 	0.65734 0.77096 0.29210 -0.46900
O 	O 	0.49931 0.67322 0.36790 -0.52000
O 	O 	0.34433 0.69417 0.23676 -0.37200
Ni	Ni	0.52330 0.40123 0.76308 1.12400
Ni	Ni	0.34173 0.26583 0.57491 1.04200
Ni	Ni	0.97670 0.90123 0.73692 1.12300
Ni	Ni	0.15827 0.76583 0.92509 1.04200
H 	H 	0.93300 0.82940 0.18060 0.04400
H 	H 	0.03720 0.76630 0.19740 0.04800
H 	H 	0.03550 0.76610 0.50160 0.08600
H 	H 	0.24040 0.60040 0.72930 0.05300
H 	H 	0.19710 0.54800 0.44390 0.09200
H 	H 	0.95770 0.78790 0.02580 0.06900
H 	H 	0.75680 0.57850 0.04070 0.09900
H 	H 	0.75100 0.65430 0.77230 0.05600
H 	H 	0.02590 0.81600 0.35200 0.04500
H 	H 	0.92460 0.74610 0.32310 0.04900
H 	H 	0.56700 0.32940 0.31940 0.04400
H 	H 	0.46280 0.26630 0.30260 0.04400
H 	H 	0.46450 0.26610 0.99840 0.08500
H 	H 	0.25960 0.10040 0.77070 0.05200
H 	H 	0.30290 0.04800 0.05610 0.09100
H 	H 	0.54230 0.28790 0.47420 0.07300
H 	H 	0.74320 0.07850 0.45930 0.09900
H 	H 	0.74900 0.15430 0.72770 0.05700
H 	H 	0.47410 0.31600 0.14800 0.04200
H 	H 	0.57540 0.24610 0.17690 0.04800
C 	C 	0.30560 0.47432 0.62740 0.36100
C 	C 	0.22910 0.55960 0.59170 -0.04500
C 	C 	0.74080 0.60498 0.89846 -0.01900
C 	C 	0.10940 0.66070 0.45679 0.17300
C 	C 	0.96900 0.76830 0.20620 0.00500
C 	C 	0.13350 0.69070 0.62693 -0.05100
C 	C 	0.08430 0.71460 0.52410 -0.11100
C 	C 	0.20650 0.61470 0.66080 -0.00700
C 	C 	0.18100 0.58380 0.48990 -0.11000
C 	C 	0.90320 0.74230 0.99390 -0.12600
C 	C 	0.78270 0.61680 0.00280 -0.13500
C 	C 	0.86300 0.68540 0.04980 0.17600
C 	C 	0.77950 0.66180 0.84203 -0.02800
C 	C 	0.65470 0.53030 0.84715 0.27400
C 	C 	0.99240 0.75770 0.31550 -0.00100
C 	C 	0.86090 0.73002 0.88949 -0.05200
C 	C 	0.10480 0.74647 0.70050 0.37600
C 	C 	0.90260 0.78927 0.82800 0.30600
C 	C 	0.19440 0.97432 0.87260 0.36200
C 	C 	0.27090 0.05960 0.90830 -0.04800
C 	C 	0.75920 0.10498 0.60154 -0.02000
C 	C 	0.39060 0.16070 0.04321 0.17200
C 	C 	0.53100 0.26830 0.29380 0.00900
C 	C 	0.36650 0.19070 0.87307 -0.05200
C 	C 	0.41570 0.21460 0.97590 -0.11100
C 	C 	0.29350 0.11470 0.83920 -0.00500
C 	C 	0.31900 0.08380 0.01010 -0.10800
C 	C 	0.59680 0.24230 0.50610 -0.13300
C 	C 	0.71730 0.11680 0.49720 -0.13600
C 	C 	0.63700 0.18540 0.45020 0.18000
C 	C 	0.72050 0.16180 0.65797 -0.03000
C 	C 	0.84530 0.03030 0.65285 0.27700
C 	C 	0.50760 0.25770 0.18450 0.00500
C 	C 	0.63910 0.23002 0.61051 -0.04900
C 	C 	0.39520 0.24647 0.79950 0.37600
C 	C 	0.59740 0.28927 0.67200 0.30500
O 	O 	0.89883 0.69038 0.15280 -0.21000
O 	O 	0.06609 0.67792 0.35431 -0.20200
O 	O 	0.62226 0.51594 0.75405 -0.35900
O 	O 	0.38641 0.48206 0.71216 -0.41700
O 	O 	0.61408 0.48078 0.89550 -0.36300
O 	O 	0.28269 0.40234 0.57060 -0.44300
O 	O 	0.02617 0.80635 0.66446 -0.43500
O 	O 	0.15734 0.72904 0.79210 -0.46800
O 	O 	0.99931 0.82678 0.86790 -0.52000
O 	O 	0.84433 0.80583 0.73676 -0.37300
O 	O 	0.60117 0.19038 0.34720 -0.21100
O 	O 	0.43391 0.17792 0.14569 -0.20400
O 	O 	0.87774 0.01594 0.74595 -0.35800
O 	O 	0.11359 0.98206 0.78784 -0.41600
O 	O 	0.88592 0.98078 0.60450 -0.36700
O 	O 	0.21731 0.90234 0.92940 -0.44300
O 	O 	0.47383 0.30635 0.83554 -0.43500
O 	O 	0.34266 0.22904 0.70790 -0.46900
O 	O 	0.50069 0.32678 0.63210 -0.52000
O 	O 	0.65567 0.30583 0.76324 -0.37200
