data_crystal

_cell_length_a 53.02740
_cell_length_b 53.02740
_cell_length_c 53.02740
_cell_angle_alpha 60.00000
_cell_angle_beta  60.00000
_cell_angle_gamma 60.00000

_symmetry_space_group_name_	'P 1'
_symmetry_space_group_name_H-M	'P 1'

loop_
_symmetry_equiv_pos_as_xyz
  x,y,z

loop_
_atom_site_label
_atom_site_type_symbol
_atom_site_fract_x
_atom_site_fract_y
_atom_site_fract_z
_atom_site_charge
S 	S 	0.05055 0.50397 0.64325 -0.05300
C 	C 	0.03193 0.49549 0.68069 0.09200
N 	N 	0.01911 0.48957 0.70679 -0.25900
N 	N 	0.02447 0.43657 0.76421 -0.23900
C 	C 	0.01646 0.42476 0.75338 0.07200
H 	H 	0.01010 0.43790 0.73570 -0.00600
C 	C 	0.01677 0.39481 0.76625 -0.12500
H 	H 	0.01100 0.38740 0.75760 0.07900
C 	C 	0.02580 0.37556 0.79218 0.05400
C 	C 	0.03606 0.38672 0.80242 -0.12200
H 	H 	0.04330 0.37390 0.81950 0.07900
C 	C 	0.03577 0.41695 0.78753 0.06700
H 	H 	0.04390 0.42410 0.79410 -0.00500
C 	C 	0.02150 0.34510 0.81028 0.10000
N 	N 	0.01759 0.33233 0.79677 -0.14000
C 	C 	0.01258 0.30524 0.81490 0.09600
N 	N 	0.01094 0.29106 0.84478 -0.13800
C 	C 	0.01566 0.30604 0.85540 0.10000
N 	N 	0.02150 0.33254 0.83914 -0.14100
N 	N 	0.99650 0.26564 0.77348 -0.23700
C 	C 	0.00571 0.29029 0.75737 0.07100
H 	H 	0.00850 0.29930 0.73590 -0.00700
C 	C 	0.01145 0.30355 0.76967 -0.12400
H 	H 	0.01790 0.32110 0.75710 0.08000
C 	C 	0.00767 0.29061 0.80099 0.05600
C 	C 	0.99914 0.26446 0.81782 -0.12300
H 	H 	0.99710 0.25450 0.83910 0.08000
C 	C 	0.99371 0.25297 0.80335 0.07300
H 	H 	0.98770 0.23510 0.81530 -0.00400
N 	N 	0.00713 0.26839 0.95067 -0.23700
C 	C 	0.01674 0.25040 0.93450 0.07200
H 	H 	0.02170 0.22870 0.94490 -0.00500
C 	C 	0.01995 0.26121 0.90407 -0.12100
H 	H 	0.02660 0.24740 0.89380 0.07800
C 	C 	0.01342 0.29280 0.88826 0.05200
C 	C 	0.00373 0.31211 0.90395 -0.11500
H 	H 	0.99930 0.33370 0.89370 0.07900
C 	C 	0.00056 0.29908 0.93528 0.06300
H 	H 	0.99350 0.31230 0.94630 -0.00200
N 	N 	0.99661 0.21099 0.00255 -0.26400
C 	C 	0.99396 0.18838 0.01008 0.10600
S 	S 	0.98547 0.15577 0.02707 -0.05300
N 	N 	0.99199 0.23153 0.04881 -0.24100
C 	C 	0.98275 0.24709 0.06635 0.09400
H 	H 	0.97820 0.26880 0.05720 -0.01300
C 	C 	0.97908 0.23410 0.09706 -0.13800
H 	H 	0.97260 0.24680 0.10840 0.08400
C 	C 	0.98468 0.20290 0.11162 0.06200
C 	C 	0.99464 0.18586 0.09374 -0.12400
H 	H 	0.99830 0.16430 0.10270 0.08100
C 	C 	0.99926 0.20058 0.06230 0.06700
H 	H 	0.00780 0.18840 0.04980 -0.00600
C 	C 	0.98307 0.18701 0.14389 0.09700
N 	N 	0.98246 0.20232 0.15830 -0.13800
S 	S 	0.50397 0.05055 0.30223 -0.05200
C 	C 	0.49549 0.03193 0.29189 0.09300
N 	N 	0.48957 0.01911 0.28453 -0.25800
N 	N 	0.43657 0.02447 0.27475 -0.23800
C 	C 	0.42476 0.01646 0.30540 0.07300
H 	H 	0.43790 0.01010 0.31630 -0.00500
C 	C 	0.39481 0.01677 0.32217 -0.12400
H 	H 	0.38740 0.01100 0.34400 0.08000
C 	C 	0.37556 0.02580 0.30646 0.05500
C 	C 	0.38672 0.03606 0.27480 -0.12100
H 	H 	0.37390 0.04330 0.26330 0.08000
C 	C 	0.41695 0.03577 0.25975 0.06800
H 	H 	0.42410 0.04390 0.23790 -0.00400
C 	C 	0.34510 0.02150 0.32312 0.10100
N 	N 	0.33233 0.01759 0.35331 -0.13900
C 	C 	0.30524 0.01258 0.36728 0.09700
N 	N 	0.29106 0.01094 0.35322 -0.13700
C 	C 	0.30604 0.01566 0.32290 0.10100
N 	N 	0.33254 0.02150 0.30682 -0.14000
N 	N 	0.26564 0.99650 0.46438 -0.23600
C 	C 	0.29029 0.00571 0.44663 0.07200
H 	H 	0.29930 0.00850 0.45630 -0.00600
C 	C 	0.30355 0.01145 0.41533 -0.12300
H 	H 	0.32110 0.01790 0.40390 0.08100
C 	C 	0.29061 0.00767 0.40073 0.05600
C 	C 	0.26446 0.99914 0.41858 -0.12300
H 	H 	0.25450 0.99710 0.40930 0.08000
C 	C 	0.25297 0.99371 0.44997 0.07300
H 	H 	0.23510 0.98770 0.46190 -0.00400
N 	N 	0.26839 0.00713 0.27381 -0.23700
C 	C 	0.25040 0.01674 0.29836 0.07200
H 	H 	0.22870 0.02170 0.30470 -0.00500
C 	C 	0.26121 0.01995 0.31477 -0.12100
H 	H 	0.24740 0.02660 0.33220 0.07800
C 	C 	0.29280 0.01342 0.30552 0.05200
C 	C 	0.31211 0.00373 0.28021 -0.11500
H 	H 	0.33370 0.99930 0.27330 0.07900
C 	C 	0.29908 0.00056 0.26508 0.06300
H 	H 	0.31230 0.99350 0.24790 -0.00200
N 	N 	0.21099 0.99661 0.28985 -0.26400
C 	C 	0.18838 0.99396 0.30758 0.10600
S 	S 	0.15577 0.98547 0.33169 -0.05300
N 	N 	0.23153 0.99199 0.22767 -0.24100
C 	C 	0.24709 0.98275 0.20381 0.09400
H 	H 	0.26880 0.97820 0.19580 -0.01300
C 	C 	0.23410 0.97908 0.18976 -0.13800
H 	H 	0.24680 0.97260 0.17220 0.08400
C 	C 	0.20290 0.98468 0.20080 0.06200
C 	C 	0.18586 0.99464 0.22576 -0.12400
H 	H 	0.16430 0.99830 0.23470 0.08100
C 	C 	0.20058 0.99926 0.23786 0.06700
H 	H 	0.18840 0.00780 0.25400 -0.00600
C 	C 	0.18701 0.98307 0.18603 0.09700
N 	N 	0.20232 0.98246 0.15692 -0.13800
S 	S 	0.64325 0.30223 0.05055 -0.05200
C 	C 	0.68069 0.29189 0.03193 0.09300
N 	N 	0.70679 0.28453 0.01911 -0.25800
N 	N 	0.76421 0.27475 0.02447 -0.23800
C 	C 	0.75338 0.30540 0.01646 0.07300
H 	H 	0.73570 0.31630 0.01010 -0.00500
C 	C 	0.76625 0.32217 0.01677 -0.12400
H 	H 	0.75760 0.34400 0.01100 0.08000
C 	C 	0.79218 0.30646 0.02580 0.05500
C 	C 	0.80242 0.27480 0.03606 -0.12100
H 	H 	0.81950 0.26330 0.04330 0.08000
C 	C 	0.78753 0.25975 0.03577 0.06800
H 	H 	0.79410 0.23790 0.04390 -0.00400
C 	C 	0.81028 0.32312 0.02150 0.10100
N 	N 	0.79677 0.35331 0.01759 -0.13900
C 	C 	0.81490 0.36728 0.01258 0.09700
N 	N 	0.84478 0.35322 0.01094 -0.13700
C 	C 	0.85540 0.32290 0.01566 0.10100
N 	N 	0.83914 0.30682 0.02150 -0.14000
N 	N 	0.77348 0.46438 0.99650 -0.23600
C 	C 	0.75737 0.44663 0.00571 0.07200
H 	H 	0.73590 0.45630 0.00850 -0.00600
C 	C 	0.76967 0.41533 0.01145 -0.12300
H 	H 	0.75710 0.40390 0.01790 0.08100
C 	C 	0.80099 0.40073 0.00767 0.05600
C 	C 	0.81782 0.41858 0.99914 -0.12300
H 	H 	0.83910 0.40930 0.99710 0.08000
C 	C 	0.80335 0.44997 0.99371 0.07300
H 	H 	0.81530 0.46190 0.98770 -0.00400
N 	N 	0.95067 0.27381 0.00713 -0.23700
C 	C 	0.93450 0.29836 0.01674 0.07200
H 	H 	0.94490 0.30470 0.02170 -0.00500
C 	C 	0.90407 0.31477 0.01995 -0.12100
H 	H 	0.89380 0.33220 0.02660 0.07800
C 	C 	0.88826 0.30552 0.01342 0.05200
C 	C 	0.90395 0.28021 0.00373 -0.11500
H 	H 	0.89370 0.27330 0.99930 0.07900
C 	C 	0.93528 0.26508 0.00056 0.06300
H 	H 	0.94630 0.24790 0.99350 -0.00200
N 	N 	0.00255 0.28985 0.99661 -0.26400
C 	C 	0.01008 0.30758 0.99396 0.10600
S 	S 	0.02707 0.33169 0.98547 -0.05300
N 	N 	0.04881 0.22767 0.99199 -0.24100
C 	C 	0.06635 0.20381 0.98275 0.09400
H 	H 	0.05720 0.19580 0.97820 -0.01300
C 	C 	0.09706 0.18976 0.97908 -0.13800
H 	H 	0.10840 0.17220 0.97260 0.08400
C 	C 	0.11162 0.20080 0.98468 0.06200
C 	C 	0.09374 0.22576 0.99464 -0.12400
H 	H 	0.10270 0.23470 0.99830 0.08100
C 	C 	0.06230 0.23786 0.99926 0.06700
H 	H 	0.04980 0.25400 0.00780 -0.00600
C 	C 	0.14389 0.18603 0.98307 0.09700
N 	N 	0.15830 0.15692 0.98246 -0.13800
S 	S 	0.30223 0.64325 0.50397 -0.05200
C 	C 	0.29189 0.68069 0.49549 0.09300
N 	N 	0.28453 0.70679 0.48957 -0.25800
N 	N 	0.27475 0.76421 0.43657 -0.23800
C 	C 	0.30540 0.75338 0.42476 0.07300
H 	H 	0.31630 0.73570 0.43790 -0.00500
C 	C 	0.32217 0.76625 0.39481 -0.12400
H 	H 	0.34400 0.75760 0.38740 0.08000
C 	C 	0.30646 0.79218 0.37556 0.05500
C 	C 	0.27480 0.80242 0.38672 -0.12100
H 	H 	0.26330 0.81950 0.37390 0.08000
C 	C 	0.25975 0.78753 0.41695 0.06800
H 	H 	0.23790 0.79410 0.42410 -0.00400
C 	C 	0.32312 0.81028 0.34510 0.10100
N 	N 	0.35331 0.79677 0.33233 -0.13900
C 	C 	0.36728 0.81490 0.30524 0.09700
N 	N 	0.35322 0.84478 0.29106 -0.13700
C 	C 	0.32290 0.85540 0.30604 0.10100
N 	N 	0.30682 0.83914 0.33254 -0.14000
N 	N 	0.46438 0.77348 0.26564 -0.23600
C 	C 	0.44663 0.75737 0.29029 0.07200
H 	H 	0.45630 0.73590 0.29930 -0.00600
C 	C 	0.41533 0.76967 0.30355 -0.12300
H 	H 	0.40390 0.75710 0.32110 0.08100
C 	C 	0.40073 0.80099 0.29061 0.05600
C 	C 	0.41858 0.81782 0.26446 -0.12300
H 	H 	0.40930 0.83910 0.25450 0.08000
C 	C 	0.44997 0.80335 0.25297 0.07300
H 	H 	0.46190 0.81530 0.23510 -0.00400
N 	N 	0.27381 0.95067 0.26839 -0.23700
C 	C 	0.29836 0.93450 0.25040 0.07200
H 	H 	0.30470 0.94490 0.22870 -0.00500
C 	C 	0.31477 0.90407 0.26121 -0.12100
H 	H 	0.33220 0.89380 0.24740 0.07800
C 	C 	0.30552 0.88826 0.29280 0.05200
C 	C 	0.28021 0.90395 0.31211 -0.11500
H 	H 	0.27330 0.89370 0.33370 0.07900
C 	C 	0.26508 0.93528 0.29908 0.06300
H 	H 	0.24790 0.94630 0.31230 -0.00200
N 	N 	0.28985 0.00255 0.21099 -0.26400
C 	C 	0.30758 0.01008 0.18838 0.10600
S 	S 	0.33169 0.02707 0.15577 -0.05300
N 	N 	0.22767 0.04881 0.23153 -0.24100
C 	C 	0.20381 0.06635 0.24709 0.09400
H 	H 	0.19580 0.05720 0.26880 -0.01300
C 	C 	0.18976 0.09706 0.23410 -0.13800
H 	H 	0.17220 0.10840 0.24680 0.08400
C 	C 	0.20080 0.11162 0.20290 0.06200
C 	C 	0.22576 0.09374 0.18586 -0.12400
H 	H 	0.23470 0.10270 0.16430 0.08100
C 	C 	0.23786 0.06230 0.20058 0.06700
H 	H 	0.25400 0.04980 0.18840 -0.00600
C 	C 	0.18603 0.14389 0.18701 0.09700
N 	N 	0.15692 0.15830 0.20232 -0.13800
S 	S 	0.64325 0.05055 0.50397 -0.05200
C 	C 	0.68069 0.03193 0.49549 0.09300
N 	N 	0.70679 0.01911 0.48957 -0.25800
N 	N 	0.76421 0.02447 0.43657 -0.23800
C 	C 	0.75338 0.01646 0.42476 0.07300
H 	H 	0.73570 0.01010 0.43790 -0.00500
C 	C 	0.76625 0.01677 0.39481 -0.12400
H 	H 	0.75760 0.01100 0.38740 0.08000
C 	C 	0.79218 0.02580 0.37556 0.05500
C 	C 	0.80242 0.03606 0.38672 -0.12100
H 	H 	0.81950 0.04330 0.37390 0.08000
C 	C 	0.78753 0.03577 0.41695 0.06800
H 	H 	0.79410 0.04390 0.42410 -0.00400
C 	C 	0.81028 0.02150 0.34510 0.10100
N 	N 	0.79677 0.01759 0.33233 -0.13900
C 	C 	0.81490 0.01258 0.30524 0.09700
N 	N 	0.84478 0.01094 0.29106 -0.13700
C 	C 	0.85540 0.01566 0.30604 0.10100
N 	N 	0.83914 0.02150 0.33254 -0.14000
N 	N 	0.77348 0.99650 0.26564 -0.23600
C 	C 	0.75737 0.00571 0.29029 0.07200
H 	H 	0.73590 0.00850 0.29930 -0.00600
C 	C 	0.76967 0.01145 0.30355 -0.12300
H 	H 	0.75710 0.01790 0.32110 0.08100
C 	C 	0.80099 0.00767 0.29061 0.05600
C 	C 	0.81782 0.99914 0.26446 -0.12300
H 	H 	0.83910 0.99710 0.25450 0.08000
C 	C 	0.80335 0.99371 0.25297 0.07300
H 	H 	0.81530 0.98770 0.23510 -0.00400
N 	N 	0.95067 0.00713 0.26839 -0.23700
C 	C 	0.93450 0.01674 0.25040 0.07200
H 	H 	0.94490 0.02170 0.22870 -0.00500
C 	C 	0.90407 0.01995 0.26121 -0.12100
H 	H 	0.89380 0.02660 0.24740 0.07800
C 	C 	0.88826 0.01342 0.29280 0.05200
C 	C 	0.90395 0.00373 0.31211 -0.11500
H 	H 	0.89370 0.99930 0.33370 0.07900
C 	C 	0.93528 0.00056 0.29908 0.06300
H 	H 	0.94630 0.99350 0.31230 -0.00200
N 	N 	0.00255 0.99661 0.21099 -0.26400
C 	C 	0.01008 0.99396 0.18838 0.10600
S 	S 	0.02707 0.98547 0.15577 -0.05300
N 	N 	0.04881 0.99199 0.23153 -0.24100
C 	C 	0.06635 0.98275 0.24709 0.09400
H 	H 	0.05720 0.97820 0.26880 -0.01300
C 	C 	0.09706 0.97908 0.23410 -0.13800
H 	H 	0.10840 0.97260 0.24680 0.08400
C 	C 	0.11162 0.98468 0.20290 0.06200
C 	C 	0.09374 0.99464 0.18586 -0.12400
H 	H 	0.10270 0.99830 0.16430 0.08100
C 	C 	0.06230 0.99926 0.20058 0.06700
H 	H 	0.04980 0.00780 0.18840 -0.00600
C 	C 	0.14389 0.98307 0.18701 0.09700
N 	N 	0.15830 0.98246 0.20232 -0.13800
S 	S 	0.30223 0.50397 0.05055 -0.05200
C 	C 	0.29189 0.49549 0.03193 0.09300
N 	N 	0.28453 0.48957 0.01911 -0.25800
N 	N 	0.27475 0.43657 0.02447 -0.23800
C 	C 	0.30540 0.42476 0.01646 0.07300
H 	H 	0.31630 0.43790 0.01010 -0.00500
C 	C 	0.32217 0.39481 0.01677 -0.12400
H 	H 	0.34400 0.38740 0.01100 0.08000
C 	C 	0.30646 0.37556 0.02580 0.05500
C 	C 	0.27480 0.38672 0.03606 -0.12100
H 	H 	0.26330 0.37390 0.04330 0.08000
C 	C 	0.25975 0.41695 0.03577 0.06800
H 	H 	0.23790 0.42410 0.04390 -0.00400
C 	C 	0.32312 0.34510 0.02150 0.10100
N 	N 	0.35331 0.33233 0.01759 -0.13900
C 	C 	0.36728 0.30524 0.01258 0.09700
N 	N 	0.35322 0.29106 0.01094 -0.13700
C 	C 	0.32290 0.30604 0.01566 0.10100
N 	N 	0.30682 0.33254 0.02150 -0.14000
N 	N 	0.46438 0.26564 0.99650 -0.23600
C 	C 	0.44663 0.29029 0.00571 0.07200
H 	H 	0.45630 0.29930 0.00850 -0.00600
C 	C 	0.41533 0.30355 0.01145 -0.12300
H 	H 	0.40390 0.32110 0.01790 0.08100
C 	C 	0.40073 0.29061 0.00767 0.05600
C 	C 	0.41858 0.26446 0.99914 -0.12300
H 	H 	0.40930 0.25450 0.99710 0.08000
C 	C 	0.44997 0.25297 0.99371 0.07300
H 	H 	0.46190 0.23510 0.98770 -0.00400
N 	N 	0.27381 0.26839 0.00713 -0.23700
C 	C 	0.29836 0.25040 0.01674 0.07200
H 	H 	0.30470 0.22870 0.02170 -0.00500
C 	C 	0.31477 0.26121 0.01995 -0.12100
H 	H 	0.33220 0.24740 0.02660 0.07800
C 	C 	0.30552 0.29280 0.01342 0.05200
C 	C 	0.28021 0.31211 0.00373 -0.11500
H 	H 	0.27330 0.33370 0.99930 0.07900
C 	C 	0.26508 0.29908 0.00056 0.06300
H 	H 	0.24790 0.31230 0.99350 -0.00200
N 	N 	0.28985 0.21099 0.99661 -0.26400
C 	C 	0.30758 0.18838 0.99396 0.10600
S 	S 	0.33169 0.15577 0.98547 -0.05300
N 	N 	0.22767 0.23153 0.99199 -0.24100
C 	C 	0.20381 0.24709 0.98275 0.09400
H 	H 	0.19580 0.26880 0.97820 -0.01300
C 	C 	0.18976 0.23410 0.97908 -0.13800
H 	H 	0.17220 0.24680 0.97260 0.08400
C 	C 	0.20080 0.20290 0.98468 0.06200
C 	C 	0.22576 0.18586 0.99464 -0.12400
H 	H 	0.23470 0.16430 0.99830 0.08100
C 	C 	0.23786 0.20058 0.99926 0.06700
H 	H 	0.25400 0.18840 0.00780 -0.00600
C 	C 	0.18603 0.18701 0.98307 0.09700
N 	N 	0.15692 0.20232 0.98246 -0.13800
S 	S 	0.05055 0.64325 0.30223 -0.05200
C 	C 	0.03193 0.68069 0.29189 0.09300
N 	N 	0.01911 0.70679 0.28453 -0.25800
N 	N 	0.02447 0.76421 0.27475 -0.23800
C 	C 	0.01646 0.75338 0.30540 0.07300
H 	H 	0.01010 0.73570 0.31630 -0.00500
C 	C 	0.01677 0.76625 0.32217 -0.12400
H 	H 	0.01100 0.75760 0.34400 0.08000
C 	C 	0.02580 0.79218 0.30646 0.05500
C 	C 	0.03606 0.80242 0.27480 -0.12100
H 	H 	0.04330 0.81950 0.26330 0.08000
C 	C 	0.03577 0.78753 0.25975 0.06800
H 	H 	0.04390 0.79410 0.23790 -0.00400
C 	C 	0.02150 0.81028 0.32312 0.10100
N 	N 	0.01759 0.79677 0.35331 -0.13900
C 	C 	0.01258 0.81490 0.36728 0.09700
N 	N 	0.01094 0.84478 0.35322 -0.13700
C 	C 	0.01566 0.85540 0.32290 0.10100
N 	N 	0.02150 0.83914 0.30682 -0.14000
N 	N 	0.99650 0.77348 0.46438 -0.23600
C 	C 	0.00571 0.75737 0.44663 0.07200
H 	H 	0.00850 0.73590 0.45630 -0.00600
C 	C 	0.01145 0.76967 0.41533 -0.12300
H 	H 	0.01790 0.75710 0.40390 0.08100
C 	C 	0.00767 0.80099 0.40073 0.05600
C 	C 	0.99914 0.81782 0.41858 -0.12300
H 	H 	0.99710 0.83910 0.40930 0.08000
C 	C 	0.99371 0.80335 0.44997 0.07300
H 	H 	0.98770 0.81530 0.46190 -0.00400
N 	N 	0.00713 0.95067 0.27381 -0.23700
C 	C 	0.01674 0.93450 0.29836 0.07200
H 	H 	0.02170 0.94490 0.30470 -0.00500
C 	C 	0.01995 0.90407 0.31477 -0.12100
H 	H 	0.02660 0.89380 0.33220 0.07800
C 	C 	0.01342 0.88826 0.30552 0.05200
C 	C 	0.00373 0.90395 0.28021 -0.11500
H 	H 	0.99930 0.89370 0.27330 0.07900
C 	C 	0.00056 0.93528 0.26508 0.06300
H 	H 	0.99350 0.94630 0.24790 -0.00200
N 	N 	0.99661 0.00255 0.28985 -0.26400
C 	C 	0.99396 0.01008 0.30758 0.10600
S 	S 	0.98547 0.02707 0.33169 -0.05300
N 	N 	0.99199 0.04881 0.22767 -0.24100
C 	C 	0.98275 0.06635 0.20381 0.09400
H 	H 	0.97820 0.05720 0.19580 -0.01300
C 	C 	0.97908 0.09706 0.18976 -0.13800
H 	H 	0.97260 0.10840 0.17220 0.08400
C 	C 	0.98468 0.11162 0.20080 0.06200
C 	C 	0.99464 0.09374 0.22576 -0.12400
H 	H 	0.99830 0.10270 0.23470 0.08100
C 	C 	0.99926 0.06230 0.23786 0.06700
H 	H 	0.00780 0.04980 0.25400 -0.00600
C 	C 	0.98307 0.14389 0.18603 0.09700
N 	N 	0.98246 0.15830 0.15692 -0.13800
S 	S 	0.50397 0.30223 0.64325 -0.05200
C 	C 	0.49549 0.29189 0.68069 0.09300
N 	N 	0.48957 0.28453 0.70679 -0.25800
N 	N 	0.43657 0.27475 0.76421 -0.23800
C 	C 	0.42476 0.30540 0.75338 0.07300
H 	H 	0.43790 0.31630 0.73570 -0.00500
C 	C 	0.39481 0.32217 0.76625 -0.12400
H 	H 	0.38740 0.34400 0.75760 0.08000
C 	C 	0.37556 0.30646 0.79218 0.05500
C 	C 	0.38672 0.27480 0.80242 -0.12100
H 	H 	0.37390 0.26330 0.81950 0.08000
C 	C 	0.41695 0.25975 0.78753 0.06800
H 	H 	0.42410 0.23790 0.79410 -0.00400
C 	C 	0.34510 0.32312 0.81028 0.10100
N 	N 	0.33233 0.35331 0.79677 -0.13900
C 	C 	0.30524 0.36728 0.81490 0.09700
N 	N 	0.29106 0.35322 0.84478 -0.13700
C 	C 	0.30604 0.32290 0.85540 0.10100
N 	N 	0.33254 0.30682 0.83914 -0.14000
N 	N 	0.26564 0.46438 0.77348 -0.23600
C 	C 	0.29029 0.44663 0.75737 0.07200
H 	H 	0.29930 0.45630 0.73590 -0.00600
C 	C 	0.30355 0.41533 0.76967 -0.12300
H 	H 	0.32110 0.40390 0.75710 0.08100
C 	C 	0.29061 0.40073 0.80099 0.05600
C 	C 	0.26446 0.41858 0.81782 -0.12300
H 	H 	0.25450 0.40930 0.83910 0.08000
C 	C 	0.25297 0.44997 0.80335 0.07300
H 	H 	0.23510 0.46190 0.81530 -0.00400
N 	N 	0.26839 0.27381 0.95067 -0.23700
C 	C 	0.25040 0.29836 0.93450 0.07200
H 	H 	0.22870 0.30470 0.94490 -0.00500
C 	C 	0.26121 0.31477 0.90407 -0.12100
H 	H 	0.24740 0.33220 0.89380 0.07800
C 	C 	0.29280 0.30552 0.88826 0.05200
C 	C 	0.31211 0.28021 0.90395 -0.11500
H 	H 	0.33370 0.27330 0.89370 0.07900
C 	C 	0.29908 0.26508 0.93528 0.06300
H 	H 	0.31230 0.24790 0.94630 -0.00200
N 	N 	0.21099 0.28985 0.00255 -0.26400
C 	C 	0.18838 0.30758 0.01008 0.10600
S 	S 	0.15577 0.33169 0.02707 -0.05300
N 	N 	0.23153 0.22767 0.04881 -0.24100
C 	C 	0.24709 0.20381 0.06635 0.09400
H 	H 	0.26880 0.19580 0.05720 -0.01300
C 	C 	0.23410 0.18976 0.09706 -0.13800
H 	H 	0.24680 0.17220 0.10840 0.08400
C 	C 	0.20290 0.20080 0.11162 0.06200
C 	C 	0.18586 0.22576 0.09374 -0.12400
H 	H 	0.16430 0.23470 0.10270 0.08100
C 	C 	0.20058 0.23786 0.06230 0.06700
H 	H 	0.18840 0.25400 0.04980 -0.00600
C 	C 	0.18701 0.18603 0.14389 0.09700
N 	N 	0.20232 0.15692 0.15830 -0.13800
S 	S 	0.50397 0.64325 0.05055 -0.05200
C 	C 	0.49549 0.68069 0.03193 0.09300
N 	N 	0.48957 0.70679 0.01911 -0.25800
N 	N 	0.43657 0.76421 0.02447 -0.23800
C 	C 	0.42476 0.75338 0.01646 0.07300
H 	H 	0.43790 0.73570 0.01010 -0.00500
C 	C 	0.39481 0.76625 0.01677 -0.12400
H 	H 	0.38740 0.75760 0.01100 0.08000
C 	C 	0.37556 0.79218 0.02580 0.05500
C 	C 	0.38672 0.80242 0.03606 -0.12100
H 	H 	0.37390 0.81950 0.04330 0.08000
C 	C 	0.41695 0.78753 0.03577 0.06800
H 	H 	0.42410 0.79410 0.04390 -0.00400
C 	C 	0.34510 0.81028 0.02150 0.10100
N 	N 	0.33233 0.79677 0.01759 -0.13900
C 	C 	0.30524 0.81490 0.01258 0.09700
N 	N 	0.29106 0.84478 0.01094 -0.13700
C 	C 	0.30604 0.85540 0.01566 0.10100
N 	N 	0.33254 0.83914 0.02150 -0.14000
N 	N 	0.26564 0.77348 0.99650 -0.23600
C 	C 	0.29029 0.75737 0.00571 0.07200
H 	H 	0.29930 0.73590 0.00850 -0.00600
C 	C 	0.30355 0.76967 0.01145 -0.12300
H 	H 	0.32110 0.75710 0.01790 0.08100
C 	C 	0.29061 0.80099 0.00767 0.05600
C 	C 	0.26446 0.81782 0.99914 -0.12300
H 	H 	0.25450 0.83910 0.99710 0.08000
C 	C 	0.25297 0.80335 0.99371 0.07300
H 	H 	0.23510 0.81530 0.98770 -0.00400
N 	N 	0.26839 0.95067 0.00713 -0.23700
C 	C 	0.25040 0.93450 0.01674 0.07200
H 	H 	0.22870 0.94490 0.02170 -0.00500
C 	C 	0.26121 0.90407 0.01995 -0.12100
H 	H 	0.24740 0.89380 0.02660 0.07800
C 	C 	0.29280 0.88826 0.01342 0.05200
C 	C 	0.31211 0.90395 0.00373 -0.11500
H 	H 	0.33370 0.89370 0.99930 0.07900
C 	C 	0.29908 0.93528 0.00056 0.06300
H 	H 	0.31230 0.94630 0.99350 -0.00200
N 	N 	0.21099 0.00255 0.99661 -0.26400
C 	C 	0.18838 0.01008 0.99396 0.10600
S 	S 	0.15577 0.02707 0.98547 -0.05300
N 	N 	0.23153 0.04881 0.99199 -0.24100
C 	C 	0.24709 0.06635 0.98275 0.09400
H 	H 	0.26880 0.05720 0.97820 -0.01300
C 	C 	0.23410 0.09706 0.97908 -0.13800
H 	H 	0.24680 0.10840 0.97260 0.08400
C 	C 	0.20290 0.11162 0.98468 0.06200
C 	C 	0.18586 0.09374 0.99464 -0.12400
H 	H 	0.16430 0.10270 0.99830 0.08100
C 	C 	0.20058 0.06230 0.99926 0.06700
H 	H 	0.18840 0.04980 0.00780 -0.00600
C 	C 	0.18701 0.14389 0.98307 0.09700
N 	N 	0.20232 0.15830 0.98246 -0.13800
S 	S 	0.05055 0.30223 0.50397 -0.05200
C 	C 	0.03193 0.29189 0.49549 0.09300
N 	N 	0.01911 0.28453 0.48957 -0.25800
N 	N 	0.02447 0.27475 0.43657 -0.23800
C 	C 	0.01646 0.30540 0.42476 0.07300
H 	H 	0.01010 0.31630 0.43790 -0.00500
C 	C 	0.01677 0.32217 0.39481 -0.12400
H 	H 	0.01100 0.34400 0.38740 0.08000
C 	C 	0.02580 0.30646 0.37556 0.05500
C 	C 	0.03606 0.27480 0.38672 -0.12100
H 	H 	0.04330 0.26330 0.37390 0.08000
C 	C 	0.03577 0.25975 0.41695 0.06800
H 	H 	0.04390 0.23790 0.42410 -0.00400
C 	C 	0.02150 0.32312 0.34510 0.10100
N 	N 	0.01759 0.35331 0.33233 -0.13900
C 	C 	0.01258 0.36728 0.30524 0.09700
N 	N 	0.01094 0.35322 0.29106 -0.13700
C 	C 	0.01566 0.32290 0.30604 0.10100
N 	N 	0.02150 0.30682 0.33254 -0.14000
N 	N 	0.99650 0.46438 0.26564 -0.23600
C 	C 	0.00571 0.44663 0.29029 0.07200
H 	H 	0.00850 0.45630 0.29930 -0.00600
C 	C 	0.01145 0.41533 0.30355 -0.12300
H 	H 	0.01790 0.40390 0.32110 0.08100
C 	C 	0.00767 0.40073 0.29061 0.05600
C 	C 	0.99914 0.41858 0.26446 -0.12300
H 	H 	0.99710 0.40930 0.25450 0.08000
C 	C 	0.99371 0.44997 0.25297 0.07300
H 	H 	0.98770 0.46190 0.23510 -0.00400
N 	N 	0.00713 0.27381 0.26839 -0.23700
C 	C 	0.01674 0.29836 0.25040 0.07200
H 	H 	0.02170 0.30470 0.22870 -0.00500
C 	C 	0.01995 0.31477 0.26121 -0.12100
H 	H 	0.02660 0.33220 0.24740 0.07800
C 	C 	0.01342 0.30552 0.29280 0.05200
C 	C 	0.00373 0.28021 0.31211 -0.11500
H 	H 	0.99930 0.27330 0.33370 0.07900
C 	C 	0.00056 0.26508 0.29908 0.06300
H 	H 	0.99350 0.24790 0.31230 -0.00200
N 	N 	0.99661 0.28985 0.21099 -0.26400
C 	C 	0.99396 0.30758 0.18838 0.10600
S 	S 	0.98547 0.33169 0.15577 -0.05300
N 	N 	0.99199 0.22767 0.23153 -0.24100
C 	C 	0.98275 0.20381 0.24709 0.09400
H 	H 	0.97820 0.19580 0.26880 -0.01300
C 	C 	0.97908 0.18976 0.23410 -0.13800
H 	H 	0.97260 0.17220 0.24680 0.08400
C 	C 	0.98468 0.20080 0.20290 0.06200
C 	C 	0.99464 0.22576 0.18586 -0.12400
H 	H 	0.99830 0.23470 0.16430 0.08100
C 	C 	0.99926 0.23786 0.20058 0.06700
H 	H 	0.00780 0.25400 0.18840 -0.00600
C 	C 	0.98307 0.18603 0.18701 0.09700
N 	N 	0.98246 0.15692 0.20232 -0.13800
S 	S 	0.30223 0.05055 0.64325 -0.05200
C 	C 	0.29189 0.03193 0.68069 0.09300
N 	N 	0.28453 0.01911 0.70679 -0.25800
N 	N 	0.27475 0.02447 0.76421 -0.23800
C 	C 	0.30540 0.01646 0.75338 0.07300
H 	H 	0.31630 0.01010 0.73570 -0.00500
C 	C 	0.32217 0.01677 0.76625 -0.12400
H 	H 	0.34400 0.01100 0.75760 0.08000
C 	C 	0.30646 0.02580 0.79218 0.05500
C 	C 	0.27480 0.03606 0.80242 -0.12100
H 	H 	0.26330 0.04330 0.81950 0.08000
C 	C 	0.25975 0.03577 0.78753 0.06800
H 	H 	0.23790 0.04390 0.79410 -0.00400
C 	C 	0.32312 0.02150 0.81028 0.10100
N 	N 	0.35331 0.01759 0.79677 -0.13900
C 	C 	0.36728 0.01258 0.81490 0.09700
N 	N 	0.35322 0.01094 0.84478 -0.13700
C 	C 	0.32290 0.01566 0.85540 0.10100
N 	N 	0.30682 0.02150 0.83914 -0.14000
N 	N 	0.46438 0.99650 0.77348 -0.23600
C 	C 	0.44663 0.00571 0.75737 0.07200
H 	H 	0.45630 0.00850 0.73590 -0.00600
C 	C 	0.41533 0.01145 0.76967 -0.12300
H 	H 	0.40390 0.01790 0.75710 0.08100
C 	C 	0.40073 0.00767 0.80099 0.05600
C 	C 	0.41858 0.99914 0.81782 -0.12300
H 	H 	0.40930 0.99710 0.83910 0.08000
C 	C 	0.44997 0.99371 0.80335 0.07300
H 	H 	0.46190 0.98770 0.81530 -0.00400
N 	N 	0.27381 0.00713 0.95067 -0.23700
C 	C 	0.29836 0.01674 0.93450 0.07200
H 	H 	0.30470 0.02170 0.94490 -0.00500
C 	C 	0.31477 0.01995 0.90407 -0.12100
H 	H 	0.33220 0.02660 0.89380 0.07800
C 	C 	0.30552 0.01342 0.88826 0.05200
C 	C 	0.28021 0.00373 0.90395 -0.11500
H 	H 	0.27330 0.99930 0.89370 0.07900
C 	C 	0.26508 0.00056 0.93528 0.06300
H 	H 	0.24790 0.99350 0.94630 -0.00200
N 	N 	0.28985 0.99661 0.00255 -0.26400
C 	C 	0.30758 0.99396 0.01008 0.10600
S 	S 	0.33169 0.98547 0.02707 -0.05300
N 	N 	0.22767 0.99199 0.04881 -0.24100
C 	C 	0.20381 0.98275 0.06635 0.09400
H 	H 	0.19580 0.97820 0.05720 -0.01300
C 	C 	0.18976 0.97908 0.09706 -0.13800
H 	H 	0.17220 0.97260 0.10840 0.08400
C 	C 	0.20080 0.98468 0.11162 0.06200
C 	C 	0.22576 0.99464 0.09374 -0.12400
H 	H 	0.23470 0.99830 0.10270 0.08100
C 	C 	0.23786 0.99926 0.06230 0.06700
H 	H 	0.25400 0.00780 0.04980 -0.00600
C 	C 	0.18603 0.98307 0.14389 0.09700
N 	N 	0.15692 0.98246 0.15830 -0.13800
S 	S 	0.64325 0.50397 0.30223 -0.05200
C 	C 	0.68069 0.49549 0.29189 0.09300
N 	N 	0.70679 0.48957 0.28453 -0.25800
N 	N 	0.76421 0.43657 0.27475 -0.23800
C 	C 	0.75338 0.42476 0.30540 0.07300
H 	H 	0.73570 0.43790 0.31630 -0.00500
C 	C 	0.76625 0.39481 0.32217 -0.12400
H 	H 	0.75760 0.38740 0.34400 0.08000
C 	C 	0.79218 0.37556 0.30646 0.05500
C 	C 	0.80242 0.38672 0.27480 -0.12100
H 	H 	0.81950 0.37390 0.26330 0.08000
C 	C 	0.78753 0.41695 0.25975 0.06800
H 	H 	0.79410 0.42410 0.23790 -0.00400
C 	C 	0.81028 0.34510 0.32312 0.10100
N 	N 	0.79677 0.33233 0.35331 -0.13900
C 	C 	0.81490 0.30524 0.36728 0.09700
N 	N 	0.84478 0.29106 0.35322 -0.13700
C 	C 	0.85540 0.30604 0.32290 0.10100
N 	N 	0.83914 0.33254 0.30682 -0.14000
N 	N 	0.77348 0.26564 0.46438 -0.23600
C 	C 	0.75737 0.29029 0.44663 0.07200
H 	H 	0.73590 0.29930 0.45630 -0.00600
C 	C 	0.76967 0.30355 0.41533 -0.12300
H 	H 	0.75710 0.32110 0.40390 0.08100
C 	C 	0.80099 0.29061 0.40073 0.05600
C 	C 	0.81782 0.26446 0.41858 -0.12300
H 	H 	0.83910 0.25450 0.40930 0.08000
C 	C 	0.80335 0.25297 0.44997 0.07300
H 	H 	0.81530 0.23510 0.46190 -0.00400
N 	N 	0.95067 0.26839 0.27381 -0.23700
C 	C 	0.93450 0.25040 0.29836 0.07200
H 	H 	0.94490 0.22870 0.30470 -0.00500
C 	C 	0.90407 0.26121 0.31477 -0.12100
H 	H 	0.89380 0.24740 0.33220 0.07800
C 	C 	0.88826 0.29280 0.30552 0.05200
C 	C 	0.90395 0.31211 0.28021 -0.11500
H 	H 	0.89370 0.33370 0.27330 0.07900
C 	C 	0.93528 0.29908 0.26508 0.06300
H 	H 	0.94630 0.31230 0.24790 -0.00200
N 	N 	0.00255 0.21099 0.28985 -0.26400
C 	C 	0.01008 0.18838 0.30758 0.10600
S 	S 	0.02707 0.15577 0.33169 -0.05300
N 	N 	0.04881 0.23153 0.22767 -0.24100
C 	C 	0.06635 0.24709 0.20381 0.09400
H 	H 	0.05720 0.26880 0.19580 -0.01300
C 	C 	0.09706 0.23410 0.18976 -0.13800
H 	H 	0.10840 0.24680 0.17220 0.08400
C 	C 	0.11162 0.20290 0.20080 0.06200
C 	C 	0.09374 0.18586 0.22576 -0.12400
H 	H 	0.10270 0.16430 0.23470 0.08100
C 	C 	0.06230 0.20058 0.23786 0.06700
H 	H 	0.04980 0.18840 0.25400 -0.00600
C 	C 	0.14389 0.18701 0.18603 0.09700
N 	N 	0.15830 0.20232 0.15692 -0.13800
S 	S 	0.44945 0.99603 0.19777 -0.05200
C 	C 	0.46807 0.00451 0.20811 0.09300
N 	N 	0.48089 0.01043 0.21547 -0.25800
N 	N 	0.47553 0.06343 0.22525 -0.23800
C 	C 	0.48354 0.07524 0.19460 0.07300
H 	H 	0.48990 0.06210 0.18370 -0.00500
C 	C 	0.48323 0.10519 0.17783 -0.12400
H 	H 	0.48900 0.11260 0.15600 0.08000
C 	C 	0.47420 0.12444 0.19354 0.05500
C 	C 	0.46394 0.11328 0.22520 -0.12100
H 	H 	0.45670 0.12610 0.23670 0.08000
C 	C 	0.46423 0.08305 0.24025 0.06800
H 	H 	0.45610 0.07590 0.26210 -0.00400
C 	C 	0.47850 0.15490 0.17688 0.10100
N 	N 	0.48241 0.16767 0.14669 -0.13900
C 	C 	0.48742 0.19476 0.13272 0.09700
N 	N 	0.48906 0.20894 0.14678 -0.13700
C 	C 	0.48434 0.19396 0.17710 0.10100
N 	N 	0.47850 0.16746 0.19318 -0.14000
N 	N 	0.50350 0.23436 0.03562 -0.23600
C 	C 	0.49429 0.20971 0.05337 0.07200
H 	H 	0.49150 0.20070 0.04370 -0.00600
C 	C 	0.48855 0.19645 0.08467 -0.12300
H 	H 	0.48210 0.17890 0.09610 0.08100
C 	C 	0.49233 0.20939 0.09927 0.05600
C 	C 	0.50086 0.23554 0.08142 -0.12300
H 	H 	0.50290 0.24550 0.09070 0.08000
C 	C 	0.50629 0.24703 0.05003 0.07300
H 	H 	0.51230 0.26490 0.03810 -0.00400
N 	N 	0.49287 0.23161 0.22619 -0.23700
C 	C 	0.48326 0.24960 0.20164 0.07200
H 	H 	0.47830 0.27130 0.19530 -0.00500
C 	C 	0.48005 0.23879 0.18523 -0.12100
H 	H 	0.47340 0.25260 0.16780 0.07800
C 	C 	0.48658 0.20720 0.19448 0.05200
C 	C 	0.49627 0.18789 0.21979 -0.11500
H 	H 	0.50070 0.16630 0.22670 0.07900
C 	C 	0.49944 0.20092 0.23492 0.06300
H 	H 	0.50650 0.18770 0.25210 -0.00200
N 	N 	0.50339 0.28901 0.21015 -0.26400
C 	C 	0.50604 0.31162 0.19242 0.10600
S 	S 	0.51453 0.34423 0.16831 -0.05300
N 	N 	0.50801 0.26847 0.27233 -0.24100
C 	C 	0.51725 0.25291 0.29619 0.09400
H 	H 	0.52180 0.23120 0.30420 -0.01300
C 	C 	0.52092 0.26590 0.31024 -0.13800
H 	H 	0.52740 0.25320 0.32780 0.08400
C 	C 	0.51532 0.29710 0.29920 0.06200
C 	C 	0.50536 0.31414 0.27424 -0.12400
H 	H 	0.50170 0.33570 0.26530 0.08100
C 	C 	0.50074 0.29942 0.26214 0.06700
H 	H 	0.49220 0.31160 0.24600 -0.00600
C 	C 	0.51693 0.31299 0.31397 0.09700
N 	N 	0.51754 0.29768 0.34308 -0.13800
S 	S 	0.99603 0.44945 0.85675 -0.05200
C 	C 	0.00451 0.46807 0.81931 0.09300
N 	N 	0.01043 0.48089 0.79321 -0.25800
N 	N 	0.06343 0.47553 0.73579 -0.23800
C 	C 	0.07524 0.48354 0.74662 0.07300
H 	H 	0.06210 0.48990 0.76430 -0.00500
C 	C 	0.10519 0.48323 0.73375 -0.12400
H 	H 	0.11260 0.48900 0.74240 0.08000
C 	C 	0.12444 0.47420 0.70782 0.05500
C 	C 	0.11328 0.46394 0.69758 -0.12100
H 	H 	0.12610 0.45670 0.68050 0.08000
C 	C 	0.08305 0.46423 0.71247 0.06800
H 	H 	0.07590 0.45610 0.70590 -0.00400
C 	C 	0.15490 0.47850 0.68972 0.10100
N 	N 	0.16767 0.48241 0.70323 -0.13900
C 	C 	0.19476 0.48742 0.68510 0.09700
N 	N 	0.20894 0.48906 0.65522 -0.13700
C 	C 	0.19396 0.48434 0.64460 0.10100
N 	N 	0.16746 0.47850 0.66086 -0.14000
N 	N 	0.23436 0.50350 0.72652 -0.23600
C 	C 	0.20971 0.49429 0.74263 0.07200
H 	H 	0.20070 0.49150 0.76410 -0.00600
C 	C 	0.19645 0.48855 0.73033 -0.12300
H 	H 	0.17890 0.48210 0.74290 0.08100
C 	C 	0.20939 0.49233 0.69901 0.05600
C 	C 	0.23554 0.50086 0.68218 -0.12300
H 	H 	0.24550 0.50290 0.66090 0.08000
C 	C 	0.24703 0.50629 0.69665 0.07300
H 	H 	0.26490 0.51230 0.68470 -0.00400
N 	N 	0.23161 0.49287 0.54933 -0.23700
C 	C 	0.24960 0.48326 0.56550 0.07200
H 	H 	0.27130 0.47830 0.55510 -0.00500
C 	C 	0.23879 0.48005 0.59593 -0.12100
H 	H 	0.25260 0.47340 0.60620 0.07800
C 	C 	0.20720 0.48658 0.61174 0.05200
C 	C 	0.18789 0.49627 0.59605 -0.11500
H 	H 	0.16630 0.50070 0.60630 0.07900
C 	C 	0.20092 0.49944 0.56472 0.06300
H 	H 	0.18770 0.50650 0.55370 -0.00200
N 	N 	0.28901 0.50339 0.49745 -0.26400
C 	C 	0.31162 0.50604 0.48992 0.10600
S 	S 	0.34423 0.51453 0.47293 -0.05300
N 	N 	0.26847 0.50801 0.45119 -0.24100
C 	C 	0.25291 0.51725 0.43365 0.09400
H 	H 	0.23120 0.52180 0.44280 -0.01300
C 	C 	0.26590 0.52092 0.40294 -0.13800
H 	H 	0.25320 0.52740 0.39160 0.08400
C 	C 	0.29710 0.51532 0.38838 0.06200
C 	C 	0.31414 0.50536 0.40626 -0.12400
H 	H 	0.33570 0.50170 0.39730 0.08100
C 	C 	0.29942 0.50074 0.43770 0.06700
H 	H 	0.31160 0.49220 0.45020 -0.00600
C 	C 	0.31299 0.51693 0.35611 0.09700
N 	N 	0.29768 0.51754 0.34170 -0.13800
S 	S 	0.85675 0.19777 0.99603 -0.05200
C 	C 	0.81931 0.20811 0.00451 0.09300
N 	N 	0.79321 0.21547 0.01043 -0.25800
N 	N 	0.73579 0.22525 0.06343 -0.23800
C 	C 	0.74662 0.19460 0.07524 0.07300
H 	H 	0.76430 0.18370 0.06210 -0.00500
C 	C 	0.73375 0.17783 0.10519 -0.12400
H 	H 	0.74240 0.15600 0.11260 0.08000
C 	C 	0.70782 0.19354 0.12444 0.05500
C 	C 	0.69758 0.22520 0.11328 -0.12100
H 	H 	0.68050 0.23670 0.12610 0.08000
C 	C 	0.71247 0.24025 0.08305 0.06800
H 	H 	0.70590 0.26210 0.07590 -0.00400
C 	C 	0.68972 0.17688 0.15490 0.10100
N 	N 	0.70323 0.14669 0.16767 -0.13900
C 	C 	0.68510 0.13272 0.19476 0.09700
N 	N 	0.65522 0.14678 0.20894 -0.13700
C 	C 	0.64460 0.17710 0.19396 0.10100
N 	N 	0.66086 0.19318 0.16746 -0.14000
N 	N 	0.72652 0.03562 0.23436 -0.23600
C 	C 	0.74263 0.05337 0.20971 0.07200
H 	H 	0.76410 0.04370 0.20070 -0.00600
C 	C 	0.73033 0.08467 0.19645 -0.12300
H 	H 	0.74290 0.09610 0.17890 0.08100
C 	C 	0.69901 0.09927 0.20939 0.05600
C 	C 	0.68218 0.08142 0.23554 -0.12300
H 	H 	0.66090 0.09070 0.24550 0.08000
C 	C 	0.69665 0.05003 0.24703 0.07300
H 	H 	0.68470 0.03810 0.26490 -0.00400
N 	N 	0.54933 0.22619 0.23161 -0.23700
C 	C 	0.56550 0.20164 0.24960 0.07200
H 	H 	0.55510 0.19530 0.27130 -0.00500
C 	C 	0.59593 0.18523 0.23879 -0.12100
H 	H 	0.60620 0.16780 0.25260 0.07800
C 	C 	0.61174 0.19448 0.20720 0.05200
C 	C 	0.59605 0.21979 0.18789 -0.11500
H 	H 	0.60630 0.22670 0.16630 0.07900
C 	C 	0.56472 0.23492 0.20092 0.06300
H 	H 	0.55370 0.25210 0.18770 -0.00200
N 	N 	0.49745 0.21015 0.28901 -0.26400
C 	C 	0.48992 0.19242 0.31162 0.10600
S 	S 	0.47293 0.16831 0.34423 -0.05300
N 	N 	0.45119 0.27233 0.26847 -0.24100
C 	C 	0.43365 0.29619 0.25291 0.09400
H 	H 	0.44280 0.30420 0.23120 -0.01300
C 	C 	0.40294 0.31024 0.26590 -0.13800
H 	H 	0.39160 0.32780 0.25320 0.08400
C 	C 	0.38838 0.29920 0.29710 0.06200
C 	C 	0.40626 0.27424 0.31414 -0.12400
H 	H 	0.39730 0.26530 0.33570 0.08100
C 	C 	0.43770 0.26214 0.29942 0.06700
H 	H 	0.45020 0.24600 0.31160 -0.00600
C 	C 	0.35611 0.31397 0.31299 0.09700
N 	N 	0.34170 0.34308 0.29768 -0.13800
S 	S 	0.19777 0.85675 0.44945 -0.05200
C 	C 	0.20811 0.81931 0.46807 0.09300
N 	N 	0.21547 0.79321 0.48089 -0.25800
N 	N 	0.22525 0.73579 0.47553 -0.23800
C 	C 	0.19460 0.74662 0.48354 0.07300
H 	H 	0.18370 0.76430 0.48990 -0.00500
C 	C 	0.17783 0.73375 0.48323 -0.12400
H 	H 	0.15600 0.74240 0.48900 0.08000
C 	C 	0.19354 0.70782 0.47420 0.05500
C 	C 	0.22520 0.69758 0.46394 -0.12100
H 	H 	0.23670 0.68050 0.45670 0.08000
C 	C 	0.24025 0.71247 0.46423 0.06800
H 	H 	0.26210 0.70590 0.45610 -0.00400
C 	C 	0.17688 0.68972 0.47850 0.10100
N 	N 	0.14669 0.70323 0.48241 -0.13900
C 	C 	0.13272 0.68510 0.48742 0.09700
N 	N 	0.14678 0.65522 0.48906 -0.13700
C 	C 	0.17710 0.64460 0.48434 0.10100
N 	N 	0.19318 0.66086 0.47850 -0.14000
N 	N 	0.03562 0.72652 0.50350 -0.23600
C 	C 	0.05337 0.74263 0.49429 0.07200
H 	H 	0.04370 0.76410 0.49150 -0.00600
C 	C 	0.08467 0.73033 0.48855 -0.12300
H 	H 	0.09610 0.74290 0.48210 0.08100
C 	C 	0.09927 0.69901 0.49233 0.05600
C 	C 	0.08142 0.68218 0.50086 -0.12300
H 	H 	0.09070 0.66090 0.50290 0.08000
C 	C 	0.05003 0.69665 0.50629 0.07300
H 	H 	0.03810 0.68470 0.51230 -0.00400
N 	N 	0.22619 0.54933 0.49287 -0.23700
C 	C 	0.20164 0.56550 0.48326 0.07200
H 	H 	0.19530 0.55510 0.47830 -0.00500
C 	C 	0.18523 0.59593 0.48005 -0.12100
H 	H 	0.16780 0.60620 0.47340 0.07800
C 	C 	0.19448 0.61174 0.48658 0.05200
C 	C 	0.21979 0.59605 0.49627 -0.11500
H 	H 	0.22670 0.60630 0.50070 0.07900
C 	C 	0.23492 0.56472 0.49944 0.06300
H 	H 	0.25210 0.55370 0.50650 -0.00200
N 	N 	0.21015 0.49745 0.50339 -0.26400
C 	C 	0.19242 0.48992 0.50604 0.10600
S 	S 	0.16831 0.47293 0.51453 -0.05300
N 	N 	0.27233 0.45119 0.50801 -0.24100
C 	C 	0.29619 0.43365 0.51725 0.09400
H 	H 	0.30420 0.44280 0.52180 -0.01300
C 	C 	0.31024 0.40294 0.52092 -0.13800
H 	H 	0.32780 0.39160 0.52740 0.08400
C 	C 	0.29920 0.38838 0.51532 0.06200
C 	C 	0.27424 0.40626 0.50536 -0.12400
H 	H 	0.26530 0.39730 0.50170 0.08100
C 	C 	0.26214 0.43770 0.50074 0.06700
H 	H 	0.24600 0.45020 0.49220 -0.00600
C 	C 	0.31397 0.35611 0.51693 0.09700
N 	N 	0.34308 0.34170 0.51754 -0.13800
S 	S 	0.85675 0.44945 0.19777 -0.05200
C 	C 	0.81931 0.46807 0.20811 0.09300
N 	N 	0.79321 0.48089 0.21547 -0.25800
N 	N 	0.73579 0.47553 0.22525 -0.23800
C 	C 	0.74662 0.48354 0.19460 0.07300
H 	H 	0.76430 0.48990 0.18370 -0.00500
C 	C 	0.73375 0.48323 0.17783 -0.12400
H 	H 	0.74240 0.48900 0.15600 0.08000
C 	C 	0.70782 0.47420 0.19354 0.05500
C 	C 	0.69758 0.46394 0.22520 -0.12100
H 	H 	0.68050 0.45670 0.23670 0.08000
C 	C 	0.71247 0.46423 0.24025 0.06800
H 	H 	0.70590 0.45610 0.26210 -0.00400
C 	C 	0.68972 0.47850 0.17688 0.10100
N 	N 	0.70323 0.48241 0.14669 -0.13900
C 	C 	0.68510 0.48742 0.13272 0.09700
N 	N 	0.65522 0.48906 0.14678 -0.13700
C 	C 	0.64460 0.48434 0.17710 0.10100
N 	N 	0.66086 0.47850 0.19318 -0.14000
N 	N 	0.72652 0.50350 0.03562 -0.23600
C 	C 	0.74263 0.49429 0.05337 0.07200
H 	H 	0.76410 0.49150 0.04370 -0.00600
C 	C 	0.73033 0.48855 0.08467 -0.12300
H 	H 	0.74290 0.48210 0.09610 0.08100
C 	C 	0.69901 0.49233 0.09927 0.05600
C 	C 	0.68218 0.50086 0.08142 -0.12300
H 	H 	0.66090 0.50290 0.09070 0.08000
C 	C 	0.69665 0.50629 0.05003 0.07300
H 	H 	0.68470 0.51230 0.03810 -0.00400
N 	N 	0.54933 0.49287 0.22619 -0.23700
C 	C 	0.56550 0.48326 0.20164 0.07200
H 	H 	0.55510 0.47830 0.19530 -0.00500
C 	C 	0.59593 0.48005 0.18523 -0.12100
H 	H 	0.60620 0.47340 0.16780 0.07800
C 	C 	0.61174 0.48658 0.19448 0.05200
C 	C 	0.59605 0.49627 0.21979 -0.11500
H 	H 	0.60630 0.50070 0.22670 0.07900
C 	C 	0.56472 0.49944 0.23492 0.06300
H 	H 	0.55370 0.50650 0.25210 -0.00200
N 	N 	0.49745 0.50339 0.21015 -0.26400
C 	C 	0.48992 0.50604 0.19242 0.10600
S 	S 	0.47293 0.51453 0.16831 -0.05300
N 	N 	0.45119 0.50801 0.27233 -0.24100
C 	C 	0.43365 0.51725 0.29619 0.09400
H 	H 	0.44280 0.52180 0.30420 -0.01300
C 	C 	0.40294 0.52092 0.31024 -0.13800
H 	H 	0.39160 0.52740 0.32780 0.08400
C 	C 	0.38838 0.51532 0.29920 0.06200
C 	C 	0.40626 0.50536 0.27424 -0.12400
H 	H 	0.39730 0.50170 0.26530 0.08100
C 	C 	0.43770 0.50074 0.26214 0.06700
H 	H 	0.45020 0.49220 0.24600 -0.00600
C 	C 	0.35611 0.51693 0.31397 0.09700
N 	N 	0.34170 0.51754 0.34308 -0.13800
S 	S 	0.19777 0.99603 0.85675 -0.05200
C 	C 	0.20811 0.00451 0.81931 0.09300
N 	N 	0.21547 0.01043 0.79321 -0.25800
N 	N 	0.22525 0.06343 0.73579 -0.23800
C 	C 	0.19460 0.07524 0.74662 0.07300
H 	H 	0.18370 0.06210 0.76430 -0.00500
C 	C 	0.17783 0.10519 0.73375 -0.12400
H 	H 	0.15600 0.11260 0.74240 0.08000
C 	C 	0.19354 0.12444 0.70782 0.05500
C 	C 	0.22520 0.11328 0.69758 -0.12100
H 	H 	0.23670 0.12610 0.68050 0.08000
C 	C 	0.24025 0.08305 0.71247 0.06800
H 	H 	0.26210 0.07590 0.70590 -0.00400
C 	C 	0.17688 0.15490 0.68972 0.10100
N 	N 	0.14669 0.16767 0.70323 -0.13900
C 	C 	0.13272 0.19476 0.68510 0.09700
N 	N 	0.14678 0.20894 0.65522 -0.13700
C 	C 	0.17710 0.19396 0.64460 0.10100
N 	N 	0.19318 0.16746 0.66086 -0.14000
N 	N 	0.03562 0.23436 0.72652 -0.23600
C 	C 	0.05337 0.20971 0.74263 0.07200
H 	H 	0.04370 0.20070 0.76410 -0.00600
C 	C 	0.08467 0.19645 0.73033 -0.12300
H 	H 	0.09610 0.17890 0.74290 0.08100
C 	C 	0.09927 0.20939 0.69901 0.05600
C 	C 	0.08142 0.23554 0.68218 -0.12300
H 	H 	0.09070 0.24550 0.66090 0.08000
C 	C 	0.05003 0.24703 0.69665 0.07300
H 	H 	0.03810 0.26490 0.68470 -0.00400
N 	N 	0.22619 0.23161 0.54933 -0.23700
C 	C 	0.20164 0.24960 0.56550 0.07200
H 	H 	0.19530 0.27130 0.55510 -0.00500
C 	C 	0.18523 0.23879 0.59593 -0.12100
H 	H 	0.16780 0.25260 0.60620 0.07800
C 	C 	0.19448 0.20720 0.61174 0.05200
C 	C 	0.21979 0.18789 0.59605 -0.11500
H 	H 	0.22670 0.16630 0.60630 0.07900
C 	C 	0.23492 0.20092 0.56472 0.06300
H 	H 	0.25210 0.18770 0.55370 -0.00200
N 	N 	0.21015 0.28901 0.49745 -0.26400
C 	C 	0.19242 0.31162 0.48992 0.10600
S 	S 	0.16831 0.34423 0.47293 -0.05300
N 	N 	0.27233 0.26847 0.45119 -0.24100
C 	C 	0.29619 0.25291 0.43365 0.09400
H 	H 	0.30420 0.23120 0.44280 -0.01300
C 	C 	0.31024 0.26590 0.40294 -0.13800
H 	H 	0.32780 0.25320 0.39160 0.08400
C 	C 	0.29920 0.29710 0.38838 0.06200
C 	C 	0.27424 0.31414 0.40626 -0.12400
H 	H 	0.26530 0.33570 0.39730 0.08100
C 	C 	0.26214 0.29942 0.43770 0.06700
H 	H 	0.24600 0.31160 0.45020 -0.00600
C 	C 	0.31397 0.31299 0.35611 0.09700
N 	N 	0.34308 0.29768 0.34170 -0.13800
S 	S 	0.44945 0.85675 0.99603 -0.05200
C 	C 	0.46807 0.81931 0.00451 0.09300
N 	N 	0.48089 0.79321 0.01043 -0.25800
N 	N 	0.47553 0.73579 0.06343 -0.23800
C 	C 	0.48354 0.74662 0.07524 0.07300
H 	H 	0.48990 0.76430 0.06210 -0.00500
C 	C 	0.48323 0.73375 0.10519 -0.12400
H 	H 	0.48900 0.74240 0.11260 0.08000
C 	C 	0.47420 0.70782 0.12444 0.05500
C 	C 	0.46394 0.69758 0.11328 -0.12100
H 	H 	0.45670 0.68050 0.12610 0.08000
C 	C 	0.46423 0.71247 0.08305 0.06800
H 	H 	0.45610 0.70590 0.07590 -0.00400
C 	C 	0.47850 0.68972 0.15490 0.10100
N 	N 	0.48241 0.70323 0.16767 -0.13900
C 	C 	0.48742 0.68510 0.19476 0.09700
N 	N 	0.48906 0.65522 0.20894 -0.13700
C 	C 	0.48434 0.64460 0.19396 0.10100
N 	N 	0.47850 0.66086 0.16746 -0.14000
N 	N 	0.50350 0.72652 0.23436 -0.23600
C 	C 	0.49429 0.74263 0.20971 0.07200
H 	H 	0.49150 0.76410 0.20070 -0.00600
C 	C 	0.48855 0.73033 0.19645 -0.12300
H 	H 	0.48210 0.74290 0.17890 0.08100
C 	C 	0.49233 0.69901 0.20939 0.05600
C 	C 	0.50086 0.68218 0.23554 -0.12300
H 	H 	0.50290 0.66090 0.24550 0.08000
C 	C 	0.50629 0.69665 0.24703 0.07300
H 	H 	0.51230 0.68470 0.26490 -0.00400
N 	N 	0.49287 0.54933 0.23161 -0.23700
C 	C 	0.48326 0.56550 0.24960 0.07200
H 	H 	0.47830 0.55510 0.27130 -0.00500
C 	C 	0.48005 0.59593 0.23879 -0.12100
H 	H 	0.47340 0.60620 0.25260 0.07800
C 	C 	0.48658 0.61174 0.20720 0.05200
C 	C 	0.49627 0.59605 0.18789 -0.11500
H 	H 	0.50070 0.60630 0.16630 0.07900
C 	C 	0.49944 0.56472 0.20092 0.06300
H 	H 	0.50650 0.55370 0.18770 -0.00200
N 	N 	0.50339 0.49745 0.28901 -0.26400
C 	C 	0.50604 0.48992 0.31162 0.10600
S 	S 	0.51453 0.47293 0.34423 -0.05300
N 	N 	0.50801 0.45119 0.26847 -0.24100
C 	C 	0.51725 0.43365 0.25291 0.09400
H 	H 	0.52180 0.44280 0.23120 -0.01300
C 	C 	0.52092 0.40294 0.26590 -0.13800
H 	H 	0.52740 0.39160 0.25320 0.08400
C 	C 	0.51532 0.38838 0.29710 0.06200
C 	C 	0.50536 0.40626 0.31414 -0.12400
H 	H 	0.50170 0.39730 0.33570 0.08100
C 	C 	0.50074 0.43770 0.29942 0.06700
H 	H 	0.49220 0.45020 0.31160 -0.00600
C 	C 	0.51693 0.35611 0.31299 0.09700
N 	N 	0.51754 0.34170 0.29768 -0.13800
S 	S 	0.99603 0.19777 0.44945 -0.05200
C 	C 	0.00451 0.20811 0.46807 0.09300
N 	N 	0.01043 0.21547 0.48089 -0.25800
N 	N 	0.06343 0.22525 0.47553 -0.23800
C 	C 	0.07524 0.19460 0.48354 0.07300
H 	H 	0.06210 0.18370 0.48990 -0.00500
C 	C 	0.10519 0.17783 0.48323 -0.12400
H 	H 	0.11260 0.15600 0.48900 0.08000
C 	C 	0.12444 0.19354 0.47420 0.05500
C 	C 	0.11328 0.22520 0.46394 -0.12100
H 	H 	0.12610 0.23670 0.45670 0.08000
C 	C 	0.08305 0.24025 0.46423 0.06800
H 	H 	0.07590 0.26210 0.45610 -0.00400
C 	C 	0.15490 0.17688 0.47850 0.10100
N 	N 	0.16767 0.14669 0.48241 -0.13900
C 	C 	0.19476 0.13272 0.48742 0.09700
N 	N 	0.20894 0.14678 0.48906 -0.13700
C 	C 	0.19396 0.17710 0.48434 0.10100
N 	N 	0.16746 0.19318 0.47850 -0.14000
N 	N 	0.23436 0.03562 0.50350 -0.23600
C 	C 	0.20971 0.05337 0.49429 0.07200
H 	H 	0.20070 0.04370 0.49150 -0.00600
C 	C 	0.19645 0.08467 0.48855 -0.12300
H 	H 	0.17890 0.09610 0.48210 0.08100
C 	C 	0.20939 0.09927 0.49233 0.05600
C 	C 	0.23554 0.08142 0.50086 -0.12300
H 	H 	0.24550 0.09070 0.50290 0.08000
C 	C 	0.24703 0.05003 0.50629 0.07300
H 	H 	0.26490 0.03810 0.51230 -0.00400
N 	N 	0.23161 0.22619 0.49287 -0.23700
C 	C 	0.24960 0.20164 0.48326 0.07200
H 	H 	0.27130 0.19530 0.47830 -0.00500
C 	C 	0.23879 0.18523 0.48005 -0.12100
H 	H 	0.25260 0.16780 0.47340 0.07800
C 	C 	0.20720 0.19448 0.48658 0.05200
C 	C 	0.18789 0.21979 0.49627 -0.11500
H 	H 	0.16630 0.22670 0.50070 0.07900
C 	C 	0.20092 0.23492 0.49944 0.06300
H 	H 	0.18770 0.25210 0.50650 -0.00200
N 	N 	0.28901 0.21015 0.50339 -0.26400
C 	C 	0.31162 0.19242 0.50604 0.10600
S 	S 	0.34423 0.16831 0.51453 -0.05300
N 	N 	0.26847 0.27233 0.50801 -0.24100
C 	C 	0.25291 0.29619 0.51725 0.09400
H 	H 	0.23120 0.30420 0.52180 -0.01300
C 	C 	0.26590 0.31024 0.52092 -0.13800
H 	H 	0.25320 0.32780 0.52740 0.08400
C 	C 	0.29710 0.29920 0.51532 0.06200
C 	C 	0.31414 0.27424 0.50536 -0.12400
H 	H 	0.33570 0.26530 0.50170 0.08100
C 	C 	0.29942 0.26214 0.50074 0.06700
H 	H 	0.31160 0.24600 0.49220 -0.00600
C 	C 	0.31299 0.31397 0.51693 0.09700
N 	N 	0.29768 0.34308 0.51754 -0.13800
S 	S 	0.99603 0.85675 0.19777 -0.05200
C 	C 	0.00451 0.81931 0.20811 0.09300
N 	N 	0.01043 0.79321 0.21547 -0.25800
N 	N 	0.06343 0.73579 0.22525 -0.23800
C 	C 	0.07524 0.74662 0.19460 0.07300
H 	H 	0.06210 0.76430 0.18370 -0.00500
C 	C 	0.10519 0.73375 0.17783 -0.12400
H 	H 	0.11260 0.74240 0.15600 0.08000
C 	C 	0.12444 0.70782 0.19354 0.05500
C 	C 	0.11328 0.69758 0.22520 -0.12100
H 	H 	0.12610 0.68050 0.23670 0.08000
C 	C 	0.08305 0.71247 0.24025 0.06800
H 	H 	0.07590 0.70590 0.26210 -0.00400
C 	C 	0.15490 0.68972 0.17688 0.10100
N 	N 	0.16767 0.70323 0.14669 -0.13900
C 	C 	0.19476 0.68510 0.13272 0.09700
N 	N 	0.20894 0.65522 0.14678 -0.13700
C 	C 	0.19396 0.64460 0.17710 0.10100
N 	N 	0.16746 0.66086 0.19318 -0.14000
N 	N 	0.23436 0.72652 0.03562 -0.23600
C 	C 	0.20971 0.74263 0.05337 0.07200
H 	H 	0.20070 0.76410 0.04370 -0.00600
C 	C 	0.19645 0.73033 0.08467 -0.12300
H 	H 	0.17890 0.74290 0.09610 0.08100
C 	C 	0.20939 0.69901 0.09927 0.05600
C 	C 	0.23554 0.68218 0.08142 -0.12300
H 	H 	0.24550 0.66090 0.09070 0.08000
C 	C 	0.24703 0.69665 0.05003 0.07300
H 	H 	0.26490 0.68470 0.03810 -0.00400
N 	N 	0.23161 0.54933 0.22619 -0.23700
C 	C 	0.24960 0.56550 0.20164 0.07200
H 	H 	0.27130 0.55510 0.19530 -0.00500
C 	C 	0.23879 0.59593 0.18523 -0.12100
H 	H 	0.25260 0.60620 0.16780 0.07800
C 	C 	0.20720 0.61174 0.19448 0.05200
C 	C 	0.18789 0.59605 0.21979 -0.11500
H 	H 	0.16630 0.60630 0.22670 0.07900
C 	C 	0.20092 0.56472 0.23492 0.06300
H 	H 	0.18770 0.55370 0.25210 -0.00200
N 	N 	0.28901 0.49745 0.21015 -0.26400
C 	C 	0.31162 0.48992 0.19242 0.10600
S 	S 	0.34423 0.47293 0.16831 -0.05300
N 	N 	0.26847 0.45119 0.27233 -0.24100
C 	C 	0.25291 0.43365 0.29619 0.09400
H 	H 	0.23120 0.44280 0.30420 -0.01300
C 	C 	0.26590 0.40294 0.31024 -0.13800
H 	H 	0.25320 0.39160 0.32780 0.08400
C 	C 	0.29710 0.38838 0.29920 0.06200
C 	C 	0.31414 0.40626 0.27424 -0.12400
H 	H 	0.33570 0.39730 0.26530 0.08100
C 	C 	0.29942 0.43770 0.26214 0.06700
H 	H 	0.31160 0.45020 0.24600 -0.00600
C 	C 	0.31299 0.35611 0.31397 0.09700
N 	N 	0.29768 0.34170 0.34308 -0.13800
S 	S 	0.44945 0.19777 0.85675 -0.05200
C 	C 	0.46807 0.20811 0.81931 0.09300
N 	N 	0.48089 0.21547 0.79321 -0.25800
N 	N 	0.47553 0.22525 0.73579 -0.23800
C 	C 	0.48354 0.19460 0.74662 0.07300
H 	H 	0.48990 0.18370 0.76430 -0.00500
C 	C 	0.48323 0.17783 0.73375 -0.12400
H 	H 	0.48900 0.15600 0.74240 0.08000
C 	C 	0.47420 0.19354 0.70782 0.05500
C 	C 	0.46394 0.22520 0.69758 -0.12100
H 	H 	0.45670 0.23670 0.68050 0.08000
C 	C 	0.46423 0.24025 0.71247 0.06800
H 	H 	0.45610 0.26210 0.70590 -0.00400
C 	C 	0.47850 0.17688 0.68972 0.10100
N 	N 	0.48241 0.14669 0.70323 -0.13900
C 	C 	0.48742 0.13272 0.68510 0.09700
N 	N 	0.48906 0.14678 0.65522 -0.13700
C 	C 	0.48434 0.17710 0.64460 0.10100
N 	N 	0.47850 0.19318 0.66086 -0.14000
N 	N 	0.50350 0.03562 0.72652 -0.23600
C 	C 	0.49429 0.05337 0.74263 0.07200
H 	H 	0.49150 0.04370 0.76410 -0.00600
C 	C 	0.48855 0.08467 0.73033 -0.12300
H 	H 	0.48210 0.09610 0.74290 0.08100
C 	C 	0.49233 0.09927 0.69901 0.05600
C 	C 	0.50086 0.08142 0.68218 -0.12300
H 	H 	0.50290 0.09070 0.66090 0.08000
C 	C 	0.50629 0.05003 0.69665 0.07300
H 	H 	0.51230 0.03810 0.68470 -0.00400
N 	N 	0.49287 0.22619 0.54933 -0.23700
C 	C 	0.48326 0.20164 0.56550 0.07200
H 	H 	0.47830 0.19530 0.55510 -0.00500
C 	C 	0.48005 0.18523 0.59593 -0.12100
H 	H 	0.47340 0.16780 0.60620 0.07800
C 	C 	0.48658 0.19448 0.61174 0.05200
C 	C 	0.49627 0.21979 0.59605 -0.11500
H 	H 	0.50070 0.22670 0.60630 0.07900
C 	C 	0.49944 0.23492 0.56472 0.06300
H 	H 	0.50650 0.25210 0.55370 -0.00200
N 	N 	0.50339 0.21015 0.49745 -0.26400
C 	C 	0.50604 0.19242 0.48992 0.10600
S 	S 	0.51453 0.16831 0.47293 -0.05300
N 	N 	0.50801 0.27233 0.45119 -0.24100
C 	C 	0.51725 0.29619 0.43365 0.09400
H 	H 	0.52180 0.30420 0.44280 -0.01300
C 	C 	0.52092 0.31024 0.40294 -0.13800
H 	H 	0.52740 0.32780 0.39160 0.08400
C 	C 	0.51532 0.29920 0.38838 0.06200
C 	C 	0.50536 0.27424 0.40626 -0.12400
H 	H 	0.50170 0.26530 0.39730 0.08100
C 	C 	0.50074 0.26214 0.43770 0.06700
H 	H 	0.49220 0.24600 0.45020 -0.00600
C 	C 	0.51693 0.31397 0.35611 0.09700
N 	N 	0.51754 0.34308 0.34170 -0.13800
S 	S 	0.19777 0.44945 0.99603 -0.05200
C 	C 	0.20811 0.46807 0.00451 0.09300
N 	N 	0.21547 0.48089 0.01043 -0.25800
N 	N 	0.22525 0.47553 0.06343 -0.23800
C 	C 	0.19460 0.48354 0.07524 0.07300
H 	H 	0.18370 0.48990 0.06210 -0.00500
C 	C 	0.17783 0.48323 0.10519 -0.12400
H 	H 	0.15600 0.48900 0.11260 0.08000
C 	C 	0.19354 0.47420 0.12444 0.05500
C 	C 	0.22520 0.46394 0.11328 -0.12100
H 	H 	0.23670 0.45670 0.12610 0.08000
C 	C 	0.24025 0.46423 0.08305 0.06800
H 	H 	0.26210 0.45610 0.07590 -0.00400
C 	C 	0.17688 0.47850 0.15490 0.10100
N 	N 	0.14669 0.48241 0.16767 -0.13900
C 	C 	0.13272 0.48742 0.19476 0.09700
N 	N 	0.14678 0.48906 0.20894 -0.13700
C 	C 	0.17710 0.48434 0.19396 0.10100
N 	N 	0.19318 0.47850 0.16746 -0.14000
N 	N 	0.03562 0.50350 0.23436 -0.23600
C 	C 	0.05337 0.49429 0.20971 0.07200
H 	H 	0.04370 0.49150 0.20070 -0.00600
C 	C 	0.08467 0.48855 0.19645 -0.12300
H 	H 	0.09610 0.48210 0.17890 0.08100
C 	C 	0.09927 0.49233 0.20939 0.05600
C 	C 	0.08142 0.50086 0.23554 -0.12300
H 	H 	0.09070 0.50290 0.24550 0.08000
C 	C 	0.05003 0.50629 0.24703 0.07300
H 	H 	0.03810 0.51230 0.26490 -0.00400
N 	N 	0.22619 0.49287 0.23161 -0.23700
C 	C 	0.20164 0.48326 0.24960 0.07200
H 	H 	0.19530 0.47830 0.27130 -0.00500
C 	C 	0.18523 0.48005 0.23879 -0.12100
H 	H 	0.16780 0.47340 0.25260 0.07800
C 	C 	0.19448 0.48658 0.20720 0.05200
C 	C 	0.21979 0.49627 0.18789 -0.11500
H 	H 	0.22670 0.50070 0.16630 0.07900
C 	C 	0.23492 0.49944 0.20092 0.06300
H 	H 	0.25210 0.50650 0.18770 -0.00200
N 	N 	0.21015 0.50339 0.28901 -0.26400
C 	C 	0.19242 0.50604 0.31162 0.10600
S 	S 	0.16831 0.51453 0.34423 -0.05300
N 	N 	0.27233 0.50801 0.26847 -0.24100
C 	C 	0.29619 0.51725 0.25291 0.09400
H 	H 	0.30420 0.52180 0.23120 -0.01300
C 	C 	0.31024 0.52092 0.26590 -0.13800
H 	H 	0.32780 0.52740 0.25320 0.08400
C 	C 	0.29920 0.51532 0.29710 0.06200
C 	C 	0.27424 0.50536 0.31414 -0.12400
H 	H 	0.26530 0.50170 0.33570 0.08100
C 	C 	0.26214 0.50074 0.29942 0.06700
H 	H 	0.24600 0.49220 0.31160 -0.00600
C 	C 	0.31397 0.51693 0.31299 0.09700
N 	N 	0.34308 0.51754 0.29768 -0.13800
S 	S 	0.85675 0.99603 0.44945 -0.05200
C 	C 	0.81931 0.00451 0.46807 0.09300
N 	N 	0.79321 0.01043 0.48089 -0.25800
N 	N 	0.73579 0.06343 0.47553 -0.23800
C 	C 	0.74662 0.07524 0.48354 0.07300
H 	H 	0.76430 0.06210 0.48990 -0.00500
C 	C 	0.73375 0.10519 0.48323 -0.12400
H 	H 	0.74240 0.11260 0.48900 0.08000
C 	C 	0.70782 0.12444 0.47420 0.05500
C 	C 	0.69758 0.11328 0.46394 -0.12100
H 	H 	0.68050 0.12610 0.45670 0.08000
C 	C 	0.71247 0.08305 0.46423 0.06800
H 	H 	0.70590 0.07590 0.45610 -0.00400
C 	C 	0.68972 0.15490 0.47850 0.10100
N 	N 	0.70323 0.16767 0.48241 -0.13900
C 	C 	0.68510 0.19476 0.48742 0.09700
N 	N 	0.65522 0.20894 0.48906 -0.13700
C 	C 	0.64460 0.19396 0.48434 0.10100
N 	N 	0.66086 0.16746 0.47850 -0.14000
N 	N 	0.72652 0.23436 0.50350 -0.23600
C 	C 	0.74263 0.20971 0.49429 0.07200
H 	H 	0.76410 0.20070 0.49150 -0.00600
C 	C 	0.73033 0.19645 0.48855 -0.12300
H 	H 	0.74290 0.17890 0.48210 0.08100
C 	C 	0.69901 0.20939 0.49233 0.05600
C 	C 	0.68218 0.23554 0.50086 -0.12300
H 	H 	0.66090 0.24550 0.50290 0.08000
C 	C 	0.69665 0.24703 0.50629 0.07300
H 	H 	0.68470 0.26490 0.51230 -0.00400
N 	N 	0.54933 0.23161 0.49287 -0.23700
C 	C 	0.56550 0.24960 0.48326 0.07200
H 	H 	0.55510 0.27130 0.47830 -0.00500
C 	C 	0.59593 0.23879 0.48005 -0.12100
H 	H 	0.60620 0.25260 0.47340 0.07800
C 	C 	0.61174 0.20720 0.48658 0.05200
C 	C 	0.59605 0.18789 0.49627 -0.11500
H 	H 	0.60630 0.16630 0.50070 0.07900
C 	C 	0.56472 0.20092 0.49944 0.06300
H 	H 	0.55370 0.18770 0.50650 -0.00200
N 	N 	0.49745 0.28901 0.50339 -0.26400
C 	C 	0.48992 0.31162 0.50604 0.10600
S 	S 	0.47293 0.34423 0.51453 -0.05300
N 	N 	0.45119 0.26847 0.50801 -0.24100
C 	C 	0.43365 0.25291 0.51725 0.09400
H 	H 	0.44280 0.23120 0.52180 -0.01300
C 	C 	0.40294 0.26590 0.52092 -0.13800
H 	H 	0.39160 0.25320 0.52740 0.08400
C 	C 	0.38838 0.29710 0.51532 0.06200
C 	C 	0.40626 0.31414 0.50536 -0.12400
H 	H 	0.39730 0.33570 0.50170 0.08100
C 	C 	0.43770 0.29942 0.50074 0.06700
H 	H 	0.45020 0.31160 0.49220 -0.00600
C 	C 	0.35611 0.31299 0.51693 0.09700
N 	N 	0.34170 0.29768 0.51754 -0.13800
S 	S 	0.94945 0.49603 0.35675 -0.05200
C 	C 	0.96807 0.50451 0.31931 0.09300
N 	N 	0.98089 0.51043 0.29321 -0.25800
N 	N 	0.97553 0.56343 0.23579 -0.23800
C 	C 	0.98354 0.57524 0.24662 0.07300
H 	H 	0.98990 0.56210 0.26430 -0.00500
C 	C 	0.98323 0.60519 0.23375 -0.12400
H 	H 	0.98900 0.61260 0.24240 0.08000
C 	C 	0.97420 0.62444 0.20782 0.05500
C 	C 	0.96394 0.61328 0.19758 -0.12100
H 	H 	0.95670 0.62610 0.18050 0.08000
C 	C 	0.96423 0.58305 0.21247 0.06800
H 	H 	0.95610 0.57590 0.20590 -0.00400
C 	C 	0.97850 0.65490 0.18972 0.10100
N 	N 	0.98241 0.66767 0.20323 -0.13900
C 	C 	0.98742 0.69476 0.18510 0.09700
N 	N 	0.98906 0.70894 0.15522 -0.13700
C 	C 	0.98434 0.69396 0.14460 0.10100
N 	N 	0.97850 0.66746 0.16086 -0.14000
N 	N 	0.00350 0.73436 0.22652 -0.23600
C 	C 	0.99429 0.70971 0.24263 0.07200
H 	H 	0.99150 0.70070 0.26410 -0.00600
C 	C 	0.98855 0.69645 0.23033 -0.12300
H 	H 	0.98210 0.67890 0.24290 0.08100
C 	C 	0.99233 0.70939 0.19901 0.05600
C 	C 	0.00086 0.73554 0.18218 -0.12300
H 	H 	0.00290 0.74550 0.16090 0.08000
C 	C 	0.00629 0.74703 0.19665 0.07300
H 	H 	0.01230 0.76490 0.18470 -0.00400
N 	N 	0.99287 0.73161 0.04933 -0.23700
C 	C 	0.98326 0.74960 0.06550 0.07200
H 	H 	0.97830 0.77130 0.05510 -0.00500
C 	C 	0.98005 0.73879 0.09593 -0.12100
H 	H 	0.97340 0.75260 0.10620 0.07800
C 	C 	0.98658 0.70720 0.11174 0.05200
C 	C 	0.99627 0.68789 0.09605 -0.11500
H 	H 	0.00070 0.66630 0.10630 0.07900
C 	C 	0.99944 0.70092 0.06472 0.06300
H 	H 	0.00650 0.68770 0.05370 -0.00200
N 	N 	0.00339 0.78901 0.99745 -0.26400
C 	C 	0.00604 0.81162 0.98992 0.10600
S 	S 	0.01453 0.84423 0.97293 -0.05300
N 	N 	0.00801 0.76847 0.95119 -0.24100
C 	C 	0.01725 0.75291 0.93365 0.09400
H 	H 	0.02180 0.73120 0.94280 -0.01300
C 	C 	0.02092 0.76590 0.90294 -0.13800
H 	H 	0.02740 0.75320 0.89160 0.08400
C 	C 	0.01532 0.79710 0.88838 0.06200
C 	C 	0.00536 0.81414 0.90626 -0.12400
H 	H 	0.00170 0.83570 0.89730 0.08100
C 	C 	0.00074 0.79942 0.93770 0.06700
H 	H 	0.99220 0.81160 0.95020 -0.00600
C 	C 	0.01693 0.81299 0.85611 0.09700
N 	N 	0.01754 0.79768 0.84170 -0.13800
S 	S 	0.49603 0.94945 0.69777 -0.05200
C 	C 	0.50451 0.96807 0.70811 0.09300
N 	N 	0.51043 0.98089 0.71547 -0.25800
N 	N 	0.56343 0.97553 0.72525 -0.23800
C 	C 	0.57524 0.98354 0.69460 0.07300
H 	H 	0.56210 0.98990 0.68370 -0.00500
C 	C 	0.60519 0.98323 0.67783 -0.12400
H 	H 	0.61260 0.98900 0.65600 0.08000
C 	C 	0.62444 0.97420 0.69354 0.05500
C 	C 	0.61328 0.96394 0.72520 -0.12100
H 	H 	0.62610 0.95670 0.73670 0.08000
C 	C 	0.58305 0.96423 0.74025 0.06800
H 	H 	0.57590 0.95610 0.76210 -0.00400
C 	C 	0.65490 0.97850 0.67688 0.10100
N 	N 	0.66767 0.98241 0.64669 -0.13900
C 	C 	0.69476 0.98742 0.63272 0.09700
N 	N 	0.70894 0.98906 0.64678 -0.13700
C 	C 	0.69396 0.98434 0.67710 0.10100
N 	N 	0.66746 0.97850 0.69318 -0.14000
N 	N 	0.73436 0.00350 0.53562 -0.23600
C 	C 	0.70971 0.99429 0.55337 0.07200
H 	H 	0.70070 0.99150 0.54370 -0.00600
C 	C 	0.69645 0.98855 0.58467 -0.12300
H 	H 	0.67890 0.98210 0.59610 0.08100
C 	C 	0.70939 0.99233 0.59927 0.05600
C 	C 	0.73554 0.00086 0.58142 -0.12300
H 	H 	0.74550 0.00290 0.59070 0.08000
C 	C 	0.74703 0.00629 0.55003 0.07300
H 	H 	0.76490 0.01230 0.53810 -0.00400
N 	N 	0.73161 0.99287 0.72619 -0.23700
C 	C 	0.74960 0.98326 0.70164 0.07200
H 	H 	0.77130 0.97830 0.69530 -0.00500
C 	C 	0.73879 0.98005 0.68523 -0.12100
H 	H 	0.75260 0.97340 0.66780 0.07800
C 	C 	0.70720 0.98658 0.69448 0.05200
C 	C 	0.68789 0.99627 0.71979 -0.11500
H 	H 	0.66630 0.00070 0.72670 0.07900
C 	C 	0.70092 0.99944 0.73492 0.06300
H 	H 	0.68770 0.00650 0.75210 -0.00200
N 	N 	0.78901 0.00339 0.71015 -0.26400
C 	C 	0.81162 0.00604 0.69242 0.10600
S 	S 	0.84423 0.01453 0.66831 -0.05300
N 	N 	0.76847 0.00801 0.77233 -0.24100
C 	C 	0.75291 0.01725 0.79619 0.09400
H 	H 	0.73120 0.02180 0.80420 -0.01300
C 	C 	0.76590 0.02092 0.81024 -0.13800
H 	H 	0.75320 0.02740 0.82780 0.08400
C 	C 	0.79710 0.01532 0.79920 0.06200
C 	C 	0.81414 0.00536 0.77424 -0.12400
H 	H 	0.83570 0.00170 0.76530 0.08100
C 	C 	0.79942 0.00074 0.76214 0.06700
H 	H 	0.81160 0.99220 0.74600 -0.00600
C 	C 	0.81299 0.01693 0.81397 0.09700
N 	N 	0.79768 0.01754 0.84308 -0.13800
S 	S 	0.35675 0.69777 0.94945 -0.05200
C 	C 	0.31931 0.70811 0.96807 0.09300
N 	N 	0.29321 0.71547 0.98089 -0.25800
N 	N 	0.23579 0.72525 0.97553 -0.23800
C 	C 	0.24662 0.69460 0.98354 0.07300
H 	H 	0.26430 0.68370 0.98990 -0.00500
C 	C 	0.23375 0.67783 0.98323 -0.12400
H 	H 	0.24240 0.65600 0.98900 0.08000
C 	C 	0.20782 0.69354 0.97420 0.05500
C 	C 	0.19758 0.72520 0.96394 -0.12100
H 	H 	0.18050 0.73670 0.95670 0.08000
C 	C 	0.21247 0.74025 0.96423 0.06800
H 	H 	0.20590 0.76210 0.95610 -0.00400
C 	C 	0.18972 0.67688 0.97850 0.10100
N 	N 	0.20323 0.64669 0.98241 -0.13900
C 	C 	0.18510 0.63272 0.98742 0.09700
N 	N 	0.15522 0.64678 0.98906 -0.13700
C 	C 	0.14460 0.67710 0.98434 0.10100
N 	N 	0.16086 0.69318 0.97850 -0.14000
N 	N 	0.22652 0.53562 0.00350 -0.23600
C 	C 	0.24263 0.55337 0.99429 0.07200
H 	H 	0.26410 0.54370 0.99150 -0.00600
C 	C 	0.23033 0.58467 0.98855 -0.12300
H 	H 	0.24290 0.59610 0.98210 0.08100
C 	C 	0.19901 0.59927 0.99233 0.05600
C 	C 	0.18218 0.58142 0.00086 -0.12300
H 	H 	0.16090 0.59070 0.00290 0.08000
C 	C 	0.19665 0.55003 0.00629 0.07300
H 	H 	0.18470 0.53810 0.01230 -0.00400
N 	N 	0.04933 0.72619 0.99287 -0.23700
C 	C 	0.06550 0.70164 0.98326 0.07200
H 	H 	0.05510 0.69530 0.97830 -0.00500
C 	C 	0.09593 0.68523 0.98005 -0.12100
H 	H 	0.10620 0.66780 0.97340 0.07800
C 	C 	0.11174 0.69448 0.98658 0.05200
C 	C 	0.09605 0.71979 0.99627 -0.11500
H 	H 	0.10630 0.72670 0.00070 0.07900
C 	C 	0.06472 0.73492 0.99944 0.06300
H 	H 	0.05370 0.75210 0.00650 -0.00200
N 	N 	0.99745 0.71015 0.00339 -0.26400
C 	C 	0.98992 0.69242 0.00604 0.10600
S 	S 	0.97293 0.66831 0.01453 -0.05300
N 	N 	0.95119 0.77233 0.00801 -0.24100
C 	C 	0.93365 0.79619 0.01725 0.09400
H 	H 	0.94280 0.80420 0.02180 -0.01300
C 	C 	0.90294 0.81024 0.02092 -0.13800
H 	H 	0.89160 0.82780 0.02740 0.08400
C 	C 	0.88838 0.79920 0.01532 0.06200
C 	C 	0.90626 0.77424 0.00536 -0.12400
H 	H 	0.89730 0.76530 0.00170 0.08100
C 	C 	0.93770 0.76214 0.00074 0.06700
H 	H 	0.95020 0.74600 0.99220 -0.00600
C 	C 	0.85611 0.81397 0.01693 0.09700
N 	N 	0.84170 0.84308 0.01754 -0.13800
S 	S 	0.69777 0.35675 0.49603 -0.05200
C 	C 	0.70811 0.31931 0.50451 0.09300
N 	N 	0.71547 0.29321 0.51043 -0.25800
N 	N 	0.72525 0.23579 0.56343 -0.23800
C 	C 	0.69460 0.24662 0.57524 0.07300
H 	H 	0.68370 0.26430 0.56210 -0.00500
C 	C 	0.67783 0.23375 0.60519 -0.12400
H 	H 	0.65600 0.24240 0.61260 0.08000
C 	C 	0.69354 0.20782 0.62444 0.05500
C 	C 	0.72520 0.19758 0.61328 -0.12100
H 	H 	0.73670 0.18050 0.62610 0.08000
C 	C 	0.74025 0.21247 0.58305 0.06800
H 	H 	0.76210 0.20590 0.57590 -0.00400
C 	C 	0.67688 0.18972 0.65490 0.10100
N 	N 	0.64669 0.20323 0.66767 -0.13900
C 	C 	0.63272 0.18510 0.69476 0.09700
N 	N 	0.64678 0.15522 0.70894 -0.13700
C 	C 	0.67710 0.14460 0.69396 0.10100
N 	N 	0.69318 0.16086 0.66746 -0.14000
N 	N 	0.53562 0.22652 0.73436 -0.23600
C 	C 	0.55337 0.24263 0.70971 0.07200
H 	H 	0.54370 0.26410 0.70070 -0.00600
C 	C 	0.58467 0.23033 0.69645 -0.12300
H 	H 	0.59610 0.24290 0.67890 0.08100
C 	C 	0.59927 0.19901 0.70939 0.05600
C 	C 	0.58142 0.18218 0.73554 -0.12300
H 	H 	0.59070 0.16090 0.74550 0.08000
C 	C 	0.55003 0.19665 0.74703 0.07300
H 	H 	0.53810 0.18470 0.76490 -0.00400
N 	N 	0.72619 0.04933 0.73161 -0.23700
C 	C 	0.70164 0.06550 0.74960 0.07200
H 	H 	0.69530 0.05510 0.77130 -0.00500
C 	C 	0.68523 0.09593 0.73879 -0.12100
H 	H 	0.66780 0.10620 0.75260 0.07800
C 	C 	0.69448 0.11174 0.70720 0.05200
C 	C 	0.71979 0.09605 0.68789 -0.11500
H 	H 	0.72670 0.10630 0.66630 0.07900
C 	C 	0.73492 0.06472 0.70092 0.06300
H 	H 	0.75210 0.05370 0.68770 -0.00200
N 	N 	0.71015 0.99745 0.78901 -0.26400
C 	C 	0.69242 0.98992 0.81162 0.10600
S 	S 	0.66831 0.97293 0.84423 -0.05300
N 	N 	0.77233 0.95119 0.76847 -0.24100
C 	C 	0.79619 0.93365 0.75291 0.09400
H 	H 	0.80420 0.94280 0.73120 -0.01300
C 	C 	0.81024 0.90294 0.76590 -0.13800
H 	H 	0.82780 0.89160 0.75320 0.08400
C 	C 	0.79920 0.88838 0.79710 0.06200
C 	C 	0.77424 0.90626 0.81414 -0.12400
H 	H 	0.76530 0.89730 0.83570 0.08100
C 	C 	0.76214 0.93770 0.79942 0.06700
H 	H 	0.74600 0.95020 0.81160 -0.00600
C 	C 	0.81397 0.85611 0.81299 0.09700
N 	N 	0.84308 0.84170 0.79768 -0.13800
S 	S 	0.35675 0.94945 0.49603 -0.05200
C 	C 	0.31931 0.96807 0.50451 0.09300
N 	N 	0.29321 0.98089 0.51043 -0.25800
N 	N 	0.23579 0.97553 0.56343 -0.23800
C 	C 	0.24662 0.98354 0.57524 0.07300
H 	H 	0.26430 0.98990 0.56210 -0.00500
C 	C 	0.23375 0.98323 0.60519 -0.12400
H 	H 	0.24240 0.98900 0.61260 0.08000
C 	C 	0.20782 0.97420 0.62444 0.05500
C 	C 	0.19758 0.96394 0.61328 -0.12100
H 	H 	0.18050 0.95670 0.62610 0.08000
C 	C 	0.21247 0.96423 0.58305 0.06800
H 	H 	0.20590 0.95610 0.57590 -0.00400
C 	C 	0.18972 0.97850 0.65490 0.10100
N 	N 	0.20323 0.98241 0.66767 -0.13900
C 	C 	0.18510 0.98742 0.69476 0.09700
N 	N 	0.15522 0.98906 0.70894 -0.13700
C 	C 	0.14460 0.98434 0.69396 0.10100
N 	N 	0.16086 0.97850 0.66746 -0.14000
N 	N 	0.22652 0.00350 0.73436 -0.23600
C 	C 	0.24263 0.99429 0.70971 0.07200
H 	H 	0.26410 0.99150 0.70070 -0.00600
C 	C 	0.23033 0.98855 0.69645 -0.12300
H 	H 	0.24290 0.98210 0.67890 0.08100
C 	C 	0.19901 0.99233 0.70939 0.05600
C 	C 	0.18218 0.00086 0.73554 -0.12300
H 	H 	0.16090 0.00290 0.74550 0.08000
C 	C 	0.19665 0.00629 0.74703 0.07300
H 	H 	0.18470 0.01230 0.76490 -0.00400
N 	N 	0.04933 0.99287 0.73161 -0.23700
C 	C 	0.06550 0.98326 0.74960 0.07200
H 	H 	0.05510 0.97830 0.77130 -0.00500
C 	C 	0.09593 0.98005 0.73879 -0.12100
H 	H 	0.10620 0.97340 0.75260 0.07800
C 	C 	0.11174 0.98658 0.70720 0.05200
C 	C 	0.09605 0.99627 0.68789 -0.11500
H 	H 	0.10630 0.00070 0.66630 0.07900
C 	C 	0.06472 0.99944 0.70092 0.06300
H 	H 	0.05370 0.00650 0.68770 -0.00200
N 	N 	0.99745 0.00339 0.78901 -0.26400
C 	C 	0.98992 0.00604 0.81162 0.10600
S 	S 	0.97293 0.01453 0.84423 -0.05300
N 	N 	0.95119 0.00801 0.76847 -0.24100
C 	C 	0.93365 0.01725 0.75291 0.09400
H 	H 	0.94280 0.02180 0.73120 -0.01300
C 	C 	0.90294 0.02092 0.76590 -0.13800
H 	H 	0.89160 0.02740 0.75320 0.08400
C 	C 	0.88838 0.01532 0.79710 0.06200
C 	C 	0.90626 0.00536 0.81414 -0.12400
H 	H 	0.89730 0.00170 0.83570 0.08100
C 	C 	0.93770 0.00074 0.79942 0.06700
H 	H 	0.95020 0.99220 0.81160 -0.00600
C 	C 	0.85611 0.01693 0.81299 0.09700
N 	N 	0.84170 0.01754 0.79768 -0.13800
S 	S 	0.69777 0.49603 0.94945 -0.05200
C 	C 	0.70811 0.50451 0.96807 0.09300
N 	N 	0.71547 0.51043 0.98089 -0.25800
N 	N 	0.72525 0.56343 0.97553 -0.23800
C 	C 	0.69460 0.57524 0.98354 0.07300
H 	H 	0.68370 0.56210 0.98990 -0.00500
C 	C 	0.67783 0.60519 0.98323 -0.12400
H 	H 	0.65600 0.61260 0.98900 0.08000
C 	C 	0.69354 0.62444 0.97420 0.05500
C 	C 	0.72520 0.61328 0.96394 -0.12100
H 	H 	0.73670 0.62610 0.95670 0.08000
C 	C 	0.74025 0.58305 0.96423 0.06800
H 	H 	0.76210 0.57590 0.95610 -0.00400
C 	C 	0.67688 0.65490 0.97850 0.10100
N 	N 	0.64669 0.66767 0.98241 -0.13900
C 	C 	0.63272 0.69476 0.98742 0.09700
N 	N 	0.64678 0.70894 0.98906 -0.13700
C 	C 	0.67710 0.69396 0.98434 0.10100
N 	N 	0.69318 0.66746 0.97850 -0.14000
N 	N 	0.53562 0.73436 0.00350 -0.23600
C 	C 	0.55337 0.70971 0.99429 0.07200
H 	H 	0.54370 0.70070 0.99150 -0.00600
C 	C 	0.58467 0.69645 0.98855 -0.12300
H 	H 	0.59610 0.67890 0.98210 0.08100
C 	C 	0.59927 0.70939 0.99233 0.05600
C 	C 	0.58142 0.73554 0.00086 -0.12300
H 	H 	0.59070 0.74550 0.00290 0.08000
C 	C 	0.55003 0.74703 0.00629 0.07300
H 	H 	0.53810 0.76490 0.01230 -0.00400
N 	N 	0.72619 0.73161 0.99287 -0.23700
C 	C 	0.70164 0.74960 0.98326 0.07200
H 	H 	0.69530 0.77130 0.97830 -0.00500
C 	C 	0.68523 0.73879 0.98005 -0.12100
H 	H 	0.66780 0.75260 0.97340 0.07800
C 	C 	0.69448 0.70720 0.98658 0.05200
C 	C 	0.71979 0.68789 0.99627 -0.11500
H 	H 	0.72670 0.66630 0.00070 0.07900
C 	C 	0.73492 0.70092 0.99944 0.06300
H 	H 	0.75210 0.68770 0.00650 -0.00200
N 	N 	0.71015 0.78901 0.00339 -0.26400
C 	C 	0.69242 0.81162 0.00604 0.10600
S 	S 	0.66831 0.84423 0.01453 -0.05300
N 	N 	0.77233 0.76847 0.00801 -0.24100
C 	C 	0.79619 0.75291 0.01725 0.09400
H 	H 	0.80420 0.73120 0.02180 -0.01300
C 	C 	0.81024 0.76590 0.02092 -0.13800
H 	H 	0.82780 0.75320 0.02740 0.08400
C 	C 	0.79920 0.79710 0.01532 0.06200
C 	C 	0.77424 0.81414 0.00536 -0.12400
H 	H 	0.76530 0.83570 0.00170 0.08100
C 	C 	0.76214 0.79942 0.00074 0.06700
H 	H 	0.74600 0.81160 0.99220 -0.00600
C 	C 	0.81397 0.81299 0.01693 0.09700
N 	N 	0.84308 0.79768 0.01754 -0.13800
S 	S 	0.94945 0.35675 0.69777 -0.05200
C 	C 	0.96807 0.31931 0.70811 0.09300
N 	N 	0.98089 0.29321 0.71547 -0.25800
N 	N 	0.97553 0.23579 0.72525 -0.23800
C 	C 	0.98354 0.24662 0.69460 0.07300
H 	H 	0.98990 0.26430 0.68370 -0.00500
C 	C 	0.98323 0.23375 0.67783 -0.12400
H 	H 	0.98900 0.24240 0.65600 0.08000
C 	C 	0.97420 0.20782 0.69354 0.05500
C 	C 	0.96394 0.19758 0.72520 -0.12100
H 	H 	0.95670 0.18050 0.73670 0.08000
C 	C 	0.96423 0.21247 0.74025 0.06800
H 	H 	0.95610 0.20590 0.76210 -0.00400
C 	C 	0.97850 0.18972 0.67688 0.10100
N 	N 	0.98241 0.20323 0.64669 -0.13900
C 	C 	0.98742 0.18510 0.63272 0.09700
N 	N 	0.98906 0.15522 0.64678 -0.13700
C 	C 	0.98434 0.14460 0.67710 0.10100
N 	N 	0.97850 0.16086 0.69318 -0.14000
N 	N 	0.00350 0.22652 0.53562 -0.23600
C 	C 	0.99429 0.24263 0.55337 0.07200
H 	H 	0.99150 0.26410 0.54370 -0.00600
C 	C 	0.98855 0.23033 0.58467 -0.12300
H 	H 	0.98210 0.24290 0.59610 0.08100
C 	C 	0.99233 0.19901 0.59927 0.05600
C 	C 	0.00086 0.18218 0.58142 -0.12300
H 	H 	0.00290 0.16090 0.59070 0.08000
C 	C 	0.00629 0.19665 0.55003 0.07300
H 	H 	0.01230 0.18470 0.53810 -0.00400
N 	N 	0.99287 0.04933 0.72619 -0.23700
C 	C 	0.98326 0.06550 0.70164 0.07200
H 	H 	0.97830 0.05510 0.69530 -0.00500
C 	C 	0.98005 0.09593 0.68523 -0.12100
H 	H 	0.97340 0.10620 0.66780 0.07800
C 	C 	0.98658 0.11174 0.69448 0.05200
C 	C 	0.99627 0.09605 0.71979 -0.11500
H 	H 	0.00070 0.10630 0.72670 0.07900
C 	C 	0.99944 0.06472 0.73492 0.06300
H 	H 	0.00650 0.05370 0.75210 -0.00200
N 	N 	0.00339 0.99745 0.71015 -0.26400
C 	C 	0.00604 0.98992 0.69242 0.10600
S 	S 	0.01453 0.97293 0.66831 -0.05300
N 	N 	0.00801 0.95119 0.77233 -0.24100
C 	C 	0.01725 0.93365 0.79619 0.09400
H 	H 	0.02180 0.94280 0.80420 -0.01300
C 	C 	0.02092 0.90294 0.81024 -0.13800
H 	H 	0.02740 0.89160 0.82780 0.08400
C 	C 	0.01532 0.88838 0.79920 0.06200
C 	C 	0.00536 0.90626 0.77424 -0.12400
H 	H 	0.00170 0.89730 0.76530 0.08100
C 	C 	0.00074 0.93770 0.76214 0.06700
H 	H 	0.99220 0.95020 0.74600 -0.00600
C 	C 	0.01693 0.85611 0.81397 0.09700
N 	N 	0.01754 0.84170 0.84308 -0.13800
S 	S 	0.49603 0.69777 0.35675 -0.05200
C 	C 	0.50451 0.70811 0.31931 0.09300
N 	N 	0.51043 0.71547 0.29321 -0.25800
N 	N 	0.56343 0.72525 0.23579 -0.23800
C 	C 	0.57524 0.69460 0.24662 0.07300
H 	H 	0.56210 0.68370 0.26430 -0.00500
C 	C 	0.60519 0.67783 0.23375 -0.12400
H 	H 	0.61260 0.65600 0.24240 0.08000
C 	C 	0.62444 0.69354 0.20782 0.05500
C 	C 	0.61328 0.72520 0.19758 -0.12100
H 	H 	0.62610 0.73670 0.18050 0.08000
C 	C 	0.58305 0.74025 0.21247 0.06800
H 	H 	0.57590 0.76210 0.20590 -0.00400
C 	C 	0.65490 0.67688 0.18972 0.10100
N 	N 	0.66767 0.64669 0.20323 -0.13900
C 	C 	0.69476 0.63272 0.18510 0.09700
N 	N 	0.70894 0.64678 0.15522 -0.13700
C 	C 	0.69396 0.67710 0.14460 0.10100
N 	N 	0.66746 0.69318 0.16086 -0.14000
N 	N 	0.73436 0.53562 0.22652 -0.23600
C 	C 	0.70971 0.55337 0.24263 0.07200
H 	H 	0.70070 0.54370 0.26410 -0.00600
C 	C 	0.69645 0.58467 0.23033 -0.12300
H 	H 	0.67890 0.59610 0.24290 0.08100
C 	C 	0.70939 0.59927 0.19901 0.05600
C 	C 	0.73554 0.58142 0.18218 -0.12300
H 	H 	0.74550 0.59070 0.16090 0.08000
C 	C 	0.74703 0.55003 0.19665 0.07300
H 	H 	0.76490 0.53810 0.18470 -0.00400
N 	N 	0.73161 0.72619 0.04933 -0.23700
C 	C 	0.74960 0.70164 0.06550 0.07200
H 	H 	0.77130 0.69530 0.05510 -0.00500
C 	C 	0.73879 0.68523 0.09593 -0.12100
H 	H 	0.75260 0.66780 0.10620 0.07800
C 	C 	0.70720 0.69448 0.11174 0.05200
C 	C 	0.68789 0.71979 0.09605 -0.11500
H 	H 	0.66630 0.72670 0.10630 0.07900
C 	C 	0.70092 0.73492 0.06472 0.06300
H 	H 	0.68770 0.75210 0.05370 -0.00200
N 	N 	0.78901 0.71015 0.99745 -0.26400
C 	C 	0.81162 0.69242 0.98992 0.10600
S 	S 	0.84423 0.66831 0.97293 -0.05300
N 	N 	0.76847 0.77233 0.95119 -0.24100
C 	C 	0.75291 0.79619 0.93365 0.09400
H 	H 	0.73120 0.80420 0.94280 -0.01300
C 	C 	0.76590 0.81024 0.90294 -0.13800
H 	H 	0.75320 0.82780 0.89160 0.08400
C 	C 	0.79710 0.79920 0.88838 0.06200
C 	C 	0.81414 0.77424 0.90626 -0.12400
H 	H 	0.83570 0.76530 0.89730 0.08100
C 	C 	0.79942 0.76214 0.93770 0.06700
H 	H 	0.81160 0.74600 0.95020 -0.00600
C 	C 	0.81299 0.81397 0.85611 0.09700
N 	N 	0.79768 0.84308 0.84170 -0.13800
S 	S 	0.49603 0.35675 0.94945 -0.05200
C 	C 	0.50451 0.31931 0.96807 0.09300
N 	N 	0.51043 0.29321 0.98089 -0.25800
N 	N 	0.56343 0.23579 0.97553 -0.23800
C 	C 	0.57524 0.24662 0.98354 0.07300
H 	H 	0.56210 0.26430 0.98990 -0.00500
C 	C 	0.60519 0.23375 0.98323 -0.12400
H 	H 	0.61260 0.24240 0.98900 0.08000
C 	C 	0.62444 0.20782 0.97420 0.05500
C 	C 	0.61328 0.19758 0.96394 -0.12100
H 	H 	0.62610 0.18050 0.95670 0.08000
C 	C 	0.58305 0.21247 0.96423 0.06800
H 	H 	0.57590 0.20590 0.95610 -0.00400
C 	C 	0.65490 0.18972 0.97850 0.10100
N 	N 	0.66767 0.20323 0.98241 -0.13900
C 	C 	0.69476 0.18510 0.98742 0.09700
N 	N 	0.70894 0.15522 0.98906 -0.13700
C 	C 	0.69396 0.14460 0.98434 0.10100
N 	N 	0.66746 0.16086 0.97850 -0.14000
N 	N 	0.73436 0.22652 0.00350 -0.23600
C 	C 	0.70971 0.24263 0.99429 0.07200
H 	H 	0.70070 0.26410 0.99150 -0.00600
C 	C 	0.69645 0.23033 0.98855 -0.12300
H 	H 	0.67890 0.24290 0.98210 0.08100
C 	C 	0.70939 0.19901 0.99233 0.05600
C 	C 	0.73554 0.18218 0.00086 -0.12300
H 	H 	0.74550 0.16090 0.00290 0.08000
C 	C 	0.74703 0.19665 0.00629 0.07300
H 	H 	0.76490 0.18470 0.01230 -0.00400
N 	N 	0.73161 0.04933 0.99287 -0.23700
C 	C 	0.74960 0.06550 0.98326 0.07200
H 	H 	0.77130 0.05510 0.97830 -0.00500
C 	C 	0.73879 0.09593 0.98005 -0.12100
H 	H 	0.75260 0.10620 0.97340 0.07800
C 	C 	0.70720 0.11174 0.98658 0.05200
C 	C 	0.68789 0.09605 0.99627 -0.11500
H 	H 	0.66630 0.10630 0.00070 0.07900
C 	C 	0.70092 0.06472 0.99944 0.06300
H 	H 	0.68770 0.05370 0.00650 -0.00200
N 	N 	0.78901 0.99745 0.00339 -0.26400
C 	C 	0.81162 0.98992 0.00604 0.10600
S 	S 	0.84423 0.97293 0.01453 -0.05300
N 	N 	0.76847 0.95119 0.00801 -0.24100
C 	C 	0.75291 0.93365 0.01725 0.09400
H 	H 	0.73120 0.94280 0.02180 -0.01300
C 	C 	0.76590 0.90294 0.02092 -0.13800
H 	H 	0.75320 0.89160 0.02740 0.08400
C 	C 	0.79710 0.88838 0.01532 0.06200
C 	C 	0.81414 0.90626 0.00536 -0.12400
H 	H 	0.83570 0.89730 0.00170 0.08100
C 	C 	0.79942 0.93770 0.00074 0.06700
H 	H 	0.81160 0.95020 0.99220 -0.00600
C 	C 	0.81299 0.85611 0.01693 0.09700
N 	N 	0.79768 0.84170 0.01754 -0.13800
S 	S 	0.94945 0.69777 0.49603 -0.05200
C 	C 	0.96807 0.70811 0.50451 0.09300
N 	N 	0.98089 0.71547 0.51043 -0.25800
N 	N 	0.97553 0.72525 0.56343 -0.23800
C 	C 	0.98354 0.69460 0.57524 0.07300
H 	H 	0.98990 0.68370 0.56210 -0.00500
C 	C 	0.98323 0.67783 0.60519 -0.12400
H 	H 	0.98900 0.65600 0.61260 0.08000
C 	C 	0.97420 0.69354 0.62444 0.05500
C 	C 	0.96394 0.72520 0.61328 -0.12100
H 	H 	0.95670 0.73670 0.62610 0.08000
C 	C 	0.96423 0.74025 0.58305 0.06800
H 	H 	0.95610 0.76210 0.57590 -0.00400
C 	C 	0.97850 0.67688 0.65490 0.10100
N 	N 	0.98241 0.64669 0.66767 -0.13900
C 	C 	0.98742 0.63272 0.69476 0.09700
N 	N 	0.98906 0.64678 0.70894 -0.13700
C 	C 	0.98434 0.67710 0.69396 0.10100
N 	N 	0.97850 0.69318 0.66746 -0.14000
N 	N 	0.00350 0.53562 0.73436 -0.23600
C 	C 	0.99429 0.55337 0.70971 0.07200
H 	H 	0.99150 0.54370 0.70070 -0.00600
C 	C 	0.98855 0.58467 0.69645 -0.12300
H 	H 	0.98210 0.59610 0.67890 0.08100
C 	C 	0.99233 0.59927 0.70939 0.05600
C 	C 	0.00086 0.58142 0.73554 -0.12300
H 	H 	0.00290 0.59070 0.74550 0.08000
C 	C 	0.00629 0.55003 0.74703 0.07300
H 	H 	0.01230 0.53810 0.76490 -0.00400
N 	N 	0.99287 0.72619 0.73161 -0.23700
C 	C 	0.98326 0.70164 0.74960 0.07200
H 	H 	0.97830 0.69530 0.77130 -0.00500
C 	C 	0.98005 0.68523 0.73879 -0.12100
H 	H 	0.97340 0.66780 0.75260 0.07800
C 	C 	0.98658 0.69448 0.70720 0.05200
C 	C 	0.99627 0.71979 0.68789 -0.11500
H 	H 	0.00070 0.72670 0.66630 0.07900
C 	C 	0.99944 0.73492 0.70092 0.06300
H 	H 	0.00650 0.75210 0.68770 -0.00200
N 	N 	0.00339 0.71015 0.78901 -0.26400
C 	C 	0.00604 0.69242 0.81162 0.10600
S 	S 	0.01453 0.66831 0.84423 -0.05300
N 	N 	0.00801 0.77233 0.76847 -0.24100
C 	C 	0.01725 0.79619 0.75291 0.09400
H 	H 	0.02180 0.80420 0.73120 -0.01300
C 	C 	0.02092 0.81024 0.76590 -0.13800
H 	H 	0.02740 0.82780 0.75320 0.08400
C 	C 	0.01532 0.79920 0.79710 0.06200
C 	C 	0.00536 0.77424 0.81414 -0.12400
H 	H 	0.00170 0.76530 0.83570 0.08100
C 	C 	0.00074 0.76214 0.79942 0.06700
H 	H 	0.99220 0.74600 0.81160 -0.00600
C 	C 	0.01693 0.81397 0.81299 0.09700
N 	N 	0.01754 0.84308 0.79768 -0.13800
S 	S 	0.69777 0.94945 0.35675 -0.05200
C 	C 	0.70811 0.96807 0.31931 0.09300
N 	N 	0.71547 0.98089 0.29321 -0.25800
N 	N 	0.72525 0.97553 0.23579 -0.23800
C 	C 	0.69460 0.98354 0.24662 0.07300
H 	H 	0.68370 0.98990 0.26430 -0.00500
C 	C 	0.67783 0.98323 0.23375 -0.12400
H 	H 	0.65600 0.98900 0.24240 0.08000
C 	C 	0.69354 0.97420 0.20782 0.05500
C 	C 	0.72520 0.96394 0.19758 -0.12100
H 	H 	0.73670 0.95670 0.18050 0.08000
C 	C 	0.74025 0.96423 0.21247 0.06800
H 	H 	0.76210 0.95610 0.20590 -0.00400
C 	C 	0.67688 0.97850 0.18972 0.10100
N 	N 	0.64669 0.98241 0.20323 -0.13900
C 	C 	0.63272 0.98742 0.18510 0.09700
N 	N 	0.64678 0.98906 0.15522 -0.13700
C 	C 	0.67710 0.98434 0.14460 0.10100
N 	N 	0.69318 0.97850 0.16086 -0.14000
N 	N 	0.53562 0.00350 0.22652 -0.23600
C 	C 	0.55337 0.99429 0.24263 0.07200
H 	H 	0.54370 0.99150 0.26410 -0.00600
C 	C 	0.58467 0.98855 0.23033 -0.12300
H 	H 	0.59610 0.98210 0.24290 0.08100
C 	C 	0.59927 0.99233 0.19901 0.05600
C 	C 	0.58142 0.00086 0.18218 -0.12300
H 	H 	0.59070 0.00290 0.16090 0.08000
C 	C 	0.55003 0.00629 0.19665 0.07300
H 	H 	0.53810 0.01230 0.18470 -0.00400
N 	N 	0.72619 0.99287 0.04933 -0.23700
C 	C 	0.70164 0.98326 0.06550 0.07200
H 	H 	0.69530 0.97830 0.05510 -0.00500
C 	C 	0.68523 0.98005 0.09593 -0.12100
H 	H 	0.66780 0.97340 0.10620 0.07800
C 	C 	0.69448 0.98658 0.11174 0.05200
C 	C 	0.71979 0.99627 0.09605 -0.11500
H 	H 	0.72670 0.00070 0.10630 0.07900
C 	C 	0.73492 0.99944 0.06472 0.06300
H 	H 	0.75210 0.00650 0.05370 -0.00200
N 	N 	0.71015 0.00339 0.99745 -0.26400
C 	C 	0.69242 0.00604 0.98992 0.10600
S 	S 	0.66831 0.01453 0.97293 -0.05300
N 	N 	0.77233 0.00801 0.95119 -0.24100
C 	C 	0.79619 0.01725 0.93365 0.09400
H 	H 	0.80420 0.02180 0.94280 -0.01300
C 	C 	0.81024 0.02092 0.90294 -0.13800
H 	H 	0.82780 0.02740 0.89160 0.08400
C 	C 	0.79920 0.01532 0.88838 0.06200
C 	C 	0.77424 0.00536 0.90626 -0.12400
H 	H 	0.76530 0.00170 0.89730 0.08100
C 	C 	0.76214 0.00074 0.93770 0.06700
H 	H 	0.74600 0.99220 0.95020 -0.00600
C 	C 	0.81397 0.01693 0.85611 0.09700
N 	N 	0.84308 0.01754 0.84170 -0.13800
S 	S 	0.35675 0.49603 0.69777 -0.05200
C 	C 	0.31931 0.50451 0.70811 0.09300
N 	N 	0.29321 0.51043 0.71547 -0.25800
N 	N 	0.23579 0.56343 0.72525 -0.23800
C 	C 	0.24662 0.57524 0.69460 0.07300
H 	H 	0.26430 0.56210 0.68370 -0.00500
C 	C 	0.23375 0.60519 0.67783 -0.12400
H 	H 	0.24240 0.61260 0.65600 0.08000
C 	C 	0.20782 0.62444 0.69354 0.05500
C 	C 	0.19758 0.61328 0.72520 -0.12100
H 	H 	0.18050 0.62610 0.73670 0.08000
C 	C 	0.21247 0.58305 0.74025 0.06800
H 	H 	0.20590 0.57590 0.76210 -0.00400
C 	C 	0.18972 0.65490 0.67688 0.10100
N 	N 	0.20323 0.66767 0.64669 -0.13900
C 	C 	0.18510 0.69476 0.63272 0.09700
N 	N 	0.15522 0.70894 0.64678 -0.13700
C 	C 	0.14460 0.69396 0.67710 0.10100
N 	N 	0.16086 0.66746 0.69318 -0.14000
N 	N 	0.22652 0.73436 0.53562 -0.23600
C 	C 	0.24263 0.70971 0.55337 0.07200
H 	H 	0.26410 0.70070 0.54370 -0.00600
C 	C 	0.23033 0.69645 0.58467 -0.12300
H 	H 	0.24290 0.67890 0.59610 0.08100
C 	C 	0.19901 0.70939 0.59927 0.05600
C 	C 	0.18218 0.73554 0.58142 -0.12300
H 	H 	0.16090 0.74550 0.59070 0.08000
C 	C 	0.19665 0.74703 0.55003 0.07300
H 	H 	0.18470 0.76490 0.53810 -0.00400
N 	N 	0.04933 0.73161 0.72619 -0.23700
C 	C 	0.06550 0.74960 0.70164 0.07200
H 	H 	0.05510 0.77130 0.69530 -0.00500
C 	C 	0.09593 0.73879 0.68523 -0.12100
H 	H 	0.10620 0.75260 0.66780 0.07800
C 	C 	0.11174 0.70720 0.69448 0.05200
C 	C 	0.09605 0.68789 0.71979 -0.11500
H 	H 	0.10630 0.66630 0.72670 0.07900
C 	C 	0.06472 0.70092 0.73492 0.06300
H 	H 	0.05370 0.68770 0.75210 -0.00200
N 	N 	0.99745 0.78901 0.71015 -0.26400
C 	C 	0.98992 0.81162 0.69242 0.10600
S 	S 	0.97293 0.84423 0.66831 -0.05300
N 	N 	0.95119 0.76847 0.77233 -0.24100
C 	C 	0.93365 0.75291 0.79619 0.09400
H 	H 	0.94280 0.73120 0.80420 -0.01300
C 	C 	0.90294 0.76590 0.81024 -0.13800
H 	H 	0.89160 0.75320 0.82780 0.08400
C 	C 	0.88838 0.79710 0.79920 0.06200
C 	C 	0.90626 0.81414 0.77424 -0.12400
H 	H 	0.89730 0.83570 0.76530 0.08100
C 	C 	0.93770 0.79942 0.76214 0.06700
H 	H 	0.95020 0.81160 0.74600 -0.00600
C 	C 	0.85611 0.81299 0.81397 0.09700
N 	N 	0.84170 0.79768 0.84308 -0.13800
S 	S 	0.55055 0.00397 0.80223 -0.05200
C 	C 	0.53193 0.99549 0.79189 0.09300
N 	N 	0.51911 0.98957 0.78453 -0.25800
N 	N 	0.52447 0.93657 0.77475 -0.23800
C 	C 	0.51646 0.92476 0.80540 0.07300
H 	H 	0.51010 0.93790 0.81630 -0.00500
C 	C 	0.51677 0.89481 0.82217 -0.12400
H 	H 	0.51100 0.88740 0.84400 0.08000
C 	C 	0.52580 0.87556 0.80646 0.05500
C 	C 	0.53606 0.88672 0.77480 -0.12100
H 	H 	0.54330 0.87390 0.76330 0.08000
C 	C 	0.53577 0.91695 0.75975 0.06800
H 	H 	0.54390 0.92410 0.73790 -0.00400
C 	C 	0.52150 0.84510 0.82312 0.10100
N 	N 	0.51759 0.83233 0.85331 -0.13900
C 	C 	0.51258 0.80524 0.86728 0.09700
N 	N 	0.51094 0.79106 0.85322 -0.13700
C 	C 	0.51566 0.80604 0.82290 0.10100
N 	N 	0.52150 0.83254 0.80682 -0.14000
N 	N 	0.49650 0.76564 0.96438 -0.23600
C 	C 	0.50571 0.79029 0.94663 0.07200
H 	H 	0.50850 0.79930 0.95630 -0.00600
C 	C 	0.51145 0.80355 0.91533 -0.12300
H 	H 	0.51790 0.82110 0.90390 0.08100
C 	C 	0.50767 0.79061 0.90073 0.05600
C 	C 	0.49914 0.76446 0.91858 -0.12300
H 	H 	0.49710 0.75450 0.90930 0.08000
C 	C 	0.49371 0.75297 0.94997 0.07300
H 	H 	0.48770 0.73510 0.96190 -0.00400
N 	N 	0.50713 0.76839 0.77381 -0.23700
C 	C 	0.51674 0.75040 0.79836 0.07200
H 	H 	0.52170 0.72870 0.80470 -0.00500
C 	C 	0.51995 0.76121 0.81477 -0.12100
H 	H 	0.52660 0.74740 0.83220 0.07800
C 	C 	0.51342 0.79280 0.80552 0.05200
C 	C 	0.50373 0.81211 0.78021 -0.11500
H 	H 	0.49930 0.83370 0.77330 0.07900
C 	C 	0.50056 0.79908 0.76508 0.06300
H 	H 	0.49350 0.81230 0.74790 -0.00200
N 	N 	0.49661 0.71099 0.78985 -0.26400
C 	C 	0.49396 0.68838 0.80758 0.10600
S 	S 	0.48547 0.65577 0.83169 -0.05300
N 	N 	0.49199 0.73153 0.72767 -0.24100
C 	C 	0.48275 0.74709 0.70381 0.09400
H 	H 	0.47820 0.76880 0.69580 -0.01300
C 	C 	0.47908 0.73410 0.68976 -0.13800
H 	H 	0.47260 0.74680 0.67220 0.08400
C 	C 	0.48468 0.70290 0.70080 0.06200
C 	C 	0.49464 0.68586 0.72576 -0.12400
H 	H 	0.49830 0.66430 0.73470 0.08100
C 	C 	0.49926 0.70058 0.73786 0.06700
H 	H 	0.50780 0.68840 0.75400 -0.00600
C 	C 	0.48307 0.68701 0.68603 0.09700
N 	N 	0.48246 0.70232 0.65692 -0.13800
S 	S 	0.00397 0.55055 0.14325 -0.05200
C 	C 	0.99549 0.53193 0.18069 0.09300
N 	N 	0.98957 0.51911 0.20679 -0.25800
N 	N 	0.93657 0.52447 0.26421 -0.23800
C 	C 	0.92476 0.51646 0.25338 0.07300
H 	H 	0.93790 0.51010 0.23570 -0.00500
C 	C 	0.89481 0.51677 0.26625 -0.12400
H 	H 	0.88740 0.51100 0.25760 0.08000
C 	C 	0.87556 0.52580 0.29218 0.05500
C 	C 	0.88672 0.53606 0.30242 -0.12100
H 	H 	0.87390 0.54330 0.31950 0.08000
C 	C 	0.91695 0.53577 0.28753 0.06800
H 	H 	0.92410 0.54390 0.29410 -0.00400
C 	C 	0.84510 0.52150 0.31028 0.10100
N 	N 	0.83233 0.51759 0.29677 -0.13900
C 	C 	0.80524 0.51258 0.31490 0.09700
N 	N 	0.79106 0.51094 0.34478 -0.13700
C 	C 	0.80604 0.51566 0.35540 0.10100
N 	N 	0.83254 0.52150 0.33914 -0.14000
N 	N 	0.76564 0.49650 0.27348 -0.23600
C 	C 	0.79029 0.50571 0.25737 0.07200
H 	H 	0.79930 0.50850 0.23590 -0.00600
C 	C 	0.80355 0.51145 0.26967 -0.12300
H 	H 	0.82110 0.51790 0.25710 0.08100
C 	C 	0.79061 0.50767 0.30099 0.05600
C 	C 	0.76446 0.49914 0.31782 -0.12300
H 	H 	0.75450 0.49710 0.33910 0.08000
C 	C 	0.75297 0.49371 0.30335 0.07300
H 	H 	0.73510 0.48770 0.31530 -0.00400
N 	N 	0.76839 0.50713 0.45067 -0.23700
C 	C 	0.75040 0.51674 0.43450 0.07200
H 	H 	0.72870 0.52170 0.44490 -0.00500
C 	C 	0.76121 0.51995 0.40407 -0.12100
H 	H 	0.74740 0.52660 0.39380 0.07800
C 	C 	0.79280 0.51342 0.38826 0.05200
C 	C 	0.81211 0.50373 0.40395 -0.11500
H 	H 	0.83370 0.49930 0.39370 0.07900
C 	C 	0.79908 0.50056 0.43528 0.06300
H 	H 	0.81230 0.49350 0.44630 -0.00200
N 	N 	0.71099 0.49661 0.50255 -0.26400
C 	C 	0.68838 0.49396 0.51008 0.10600
S 	S 	0.65577 0.48547 0.52707 -0.05300
N 	N 	0.73153 0.49199 0.54881 -0.24100
C 	C 	0.74709 0.48275 0.56635 0.09400
H 	H 	0.76880 0.47820 0.55720 -0.01300
C 	C 	0.73410 0.47908 0.59706 -0.13800
H 	H 	0.74680 0.47260 0.60840 0.08400
C 	C 	0.70290 0.48468 0.61162 0.06200
C 	C 	0.68586 0.49464 0.59374 -0.12400
H 	H 	0.66430 0.49830 0.60270 0.08100
C 	C 	0.70058 0.49926 0.56230 0.06700
H 	H 	0.68840 0.50780 0.54980 -0.00600
C 	C 	0.68701 0.48307 0.64389 0.09700
N 	N 	0.70232 0.48246 0.65830 -0.13800
S 	S 	0.14325 0.80223 0.00397 -0.05200
C 	C 	0.18069 0.79189 0.99549 0.09300
N 	N 	0.20679 0.78453 0.98957 -0.25800
N 	N 	0.26421 0.77475 0.93657 -0.23800
C 	C 	0.25338 0.80540 0.92476 0.07300
H 	H 	0.23570 0.81630 0.93790 -0.00500
C 	C 	0.26625 0.82217 0.89481 -0.12400
H 	H 	0.25760 0.84400 0.88740 0.08000
C 	C 	0.29218 0.80646 0.87556 0.05500
C 	C 	0.30242 0.77480 0.88672 -0.12100
H 	H 	0.31950 0.76330 0.87390 0.08000
C 	C 	0.28753 0.75975 0.91695 0.06800
H 	H 	0.29410 0.73790 0.92410 -0.00400
C 	C 	0.31028 0.82312 0.84510 0.10100
N 	N 	0.29677 0.85331 0.83233 -0.13900
C 	C 	0.31490 0.86728 0.80524 0.09700
N 	N 	0.34478 0.85322 0.79106 -0.13700
C 	C 	0.35540 0.82290 0.80604 0.10100
N 	N 	0.33914 0.80682 0.83254 -0.14000
N 	N 	0.27348 0.96438 0.76564 -0.23600
C 	C 	0.25737 0.94663 0.79029 0.07200
H 	H 	0.23590 0.95630 0.79930 -0.00600
C 	C 	0.26967 0.91533 0.80355 -0.12300
H 	H 	0.25710 0.90390 0.82110 0.08100
C 	C 	0.30099 0.90073 0.79061 0.05600
C 	C 	0.31782 0.91858 0.76446 -0.12300
H 	H 	0.33910 0.90930 0.75450 0.08000
C 	C 	0.30335 0.94997 0.75297 0.07300
H 	H 	0.31530 0.96190 0.73510 -0.00400
N 	N 	0.45067 0.77381 0.76839 -0.23700
C 	C 	0.43450 0.79836 0.75040 0.07200
H 	H 	0.44490 0.80470 0.72870 -0.00500
C 	C 	0.40407 0.81477 0.76121 -0.12100
H 	H 	0.39380 0.83220 0.74740 0.07800
C 	C 	0.38826 0.80552 0.79280 0.05200
C 	C 	0.40395 0.78021 0.81211 -0.11500
H 	H 	0.39370 0.77330 0.83370 0.07900
C 	C 	0.43528 0.76508 0.79908 0.06300
H 	H 	0.44630 0.74790 0.81230 -0.00200
N 	N 	0.50255 0.78985 0.71099 -0.26400
C 	C 	0.51008 0.80758 0.68838 0.10600
S 	S 	0.52707 0.83169 0.65577 -0.05300
N 	N 	0.54881 0.72767 0.73153 -0.24100
C 	C 	0.56635 0.70381 0.74709 0.09400
H 	H 	0.55720 0.69580 0.76880 -0.01300
C 	C 	0.59706 0.68976 0.73410 -0.13800
H 	H 	0.60840 0.67220 0.74680 0.08400
C 	C 	0.61162 0.70080 0.70290 0.06200
C 	C 	0.59374 0.72576 0.68586 -0.12400
H 	H 	0.60270 0.73470 0.66430 0.08100
C 	C 	0.56230 0.73786 0.70058 0.06700
H 	H 	0.54980 0.75400 0.68840 -0.00600
C 	C 	0.64389 0.68603 0.68701 0.09700
N 	N 	0.65830 0.65692 0.70232 -0.13800
S 	S 	0.80223 0.14325 0.55055 -0.05200
C 	C 	0.79189 0.18069 0.53193 0.09300
N 	N 	0.78453 0.20679 0.51911 -0.25800
N 	N 	0.77475 0.26421 0.52447 -0.23800
C 	C 	0.80540 0.25338 0.51646 0.07300
H 	H 	0.81630 0.23570 0.51010 -0.00500
C 	C 	0.82217 0.26625 0.51677 -0.12400
H 	H 	0.84400 0.25760 0.51100 0.08000
C 	C 	0.80646 0.29218 0.52580 0.05500
C 	C 	0.77480 0.30242 0.53606 -0.12100
H 	H 	0.76330 0.31950 0.54330 0.08000
C 	C 	0.75975 0.28753 0.53577 0.06800
H 	H 	0.73790 0.29410 0.54390 -0.00400
C 	C 	0.82312 0.31028 0.52150 0.10100
N 	N 	0.85331 0.29677 0.51759 -0.13900
C 	C 	0.86728 0.31490 0.51258 0.09700
N 	N 	0.85322 0.34478 0.51094 -0.13700
C 	C 	0.82290 0.35540 0.51566 0.10100
N 	N 	0.80682 0.33914 0.52150 -0.14000
N 	N 	0.96438 0.27348 0.49650 -0.23600
C 	C 	0.94663 0.25737 0.50571 0.07200
H 	H 	0.95630 0.23590 0.50850 -0.00600
C 	C 	0.91533 0.26967 0.51145 -0.12300
H 	H 	0.90390 0.25710 0.51790 0.08100
C 	C 	0.90073 0.30099 0.50767 0.05600
C 	C 	0.91858 0.31782 0.49914 -0.12300
H 	H 	0.90930 0.33910 0.49710 0.08000
C 	C 	0.94997 0.30335 0.49371 0.07300
H 	H 	0.96190 0.31530 0.48770 -0.00400
N 	N 	0.77381 0.45067 0.50713 -0.23700
C 	C 	0.79836 0.43450 0.51674 0.07200
H 	H 	0.80470 0.44490 0.52170 -0.00500
C 	C 	0.81477 0.40407 0.51995 -0.12100
H 	H 	0.83220 0.39380 0.52660 0.07800
C 	C 	0.80552 0.38826 0.51342 0.05200
C 	C 	0.78021 0.40395 0.50373 -0.11500
H 	H 	0.77330 0.39370 0.49930 0.07900
C 	C 	0.76508 0.43528 0.50056 0.06300
H 	H 	0.74790 0.44630 0.49350 -0.00200
N 	N 	0.78985 0.50255 0.49661 -0.26400
C 	C 	0.80758 0.51008 0.49396 0.10600
S 	S 	0.83169 0.52707 0.48547 -0.05300
N 	N 	0.72767 0.54881 0.49199 -0.24100
C 	C 	0.70381 0.56635 0.48275 0.09400
H 	H 	0.69580 0.55720 0.47820 -0.01300
C 	C 	0.68976 0.59706 0.47908 -0.13800
H 	H 	0.67220 0.60840 0.47260 0.08400
C 	C 	0.70080 0.61162 0.48468 0.06200
C 	C 	0.72576 0.59374 0.49464 -0.12400
H 	H 	0.73470 0.60270 0.49830 0.08100
C 	C 	0.73786 0.56230 0.49926 0.06700
H 	H 	0.75400 0.54980 0.50780 -0.00600
C 	C 	0.68603 0.64389 0.48307 0.09700
N 	N 	0.65692 0.65830 0.48246 -0.13800
S 	S 	0.14325 0.55055 0.80223 -0.05200
C 	C 	0.18069 0.53193 0.79189 0.09300
N 	N 	0.20679 0.51911 0.78453 -0.25800
N 	N 	0.26421 0.52447 0.77475 -0.23800
C 	C 	0.25338 0.51646 0.80540 0.07300
H 	H 	0.23570 0.51010 0.81630 -0.00500
C 	C 	0.26625 0.51677 0.82217 -0.12400
H 	H 	0.25760 0.51100 0.84400 0.08000
C 	C 	0.29218 0.52580 0.80646 0.05500
C 	C 	0.30242 0.53606 0.77480 -0.12100
H 	H 	0.31950 0.54330 0.76330 0.08000
C 	C 	0.28753 0.53577 0.75975 0.06800
H 	H 	0.29410 0.54390 0.73790 -0.00400
C 	C 	0.31028 0.52150 0.82312 0.10100
N 	N 	0.29677 0.51759 0.85331 -0.13900
C 	C 	0.31490 0.51258 0.86728 0.09700
N 	N 	0.34478 0.51094 0.85322 -0.13700
C 	C 	0.35540 0.51566 0.82290 0.10100
N 	N 	0.33914 0.52150 0.80682 -0.14000
N 	N 	0.27348 0.49650 0.96438 -0.23600
C 	C 	0.25737 0.50571 0.94663 0.07200
H 	H 	0.23590 0.50850 0.95630 -0.00600
C 	C 	0.26967 0.51145 0.91533 -0.12300
H 	H 	0.25710 0.51790 0.90390 0.08100
C 	C 	0.30099 0.50767 0.90073 0.05600
C 	C 	0.31782 0.49914 0.91858 -0.12300
H 	H 	0.33910 0.49710 0.90930 0.08000
C 	C 	0.30335 0.49371 0.94997 0.07300
H 	H 	0.31530 0.48770 0.96190 -0.00400
N 	N 	0.45067 0.50713 0.77381 -0.23700
C 	C 	0.43450 0.51674 0.79836 0.07200
H 	H 	0.44490 0.52170 0.80470 -0.00500
C 	C 	0.40407 0.51995 0.81477 -0.12100
H 	H 	0.39380 0.52660 0.83220 0.07800
C 	C 	0.38826 0.51342 0.80552 0.05200
C 	C 	0.40395 0.50373 0.78021 -0.11500
H 	H 	0.39370 0.49930 0.77330 0.07900
C 	C 	0.43528 0.50056 0.76508 0.06300
H 	H 	0.44630 0.49350 0.74790 -0.00200
N 	N 	0.50255 0.49661 0.78985 -0.26400
C 	C 	0.51008 0.49396 0.80758 0.10600
S 	S 	0.52707 0.48547 0.83169 -0.05300
N 	N 	0.54881 0.49199 0.72767 -0.24100
C 	C 	0.56635 0.48275 0.70381 0.09400
H 	H 	0.55720 0.47820 0.69580 -0.01300
C 	C 	0.59706 0.47908 0.68976 -0.13800
H 	H 	0.60840 0.47260 0.67220 0.08400
C 	C 	0.61162 0.48468 0.70080 0.06200
C 	C 	0.59374 0.49464 0.72576 -0.12400
H 	H 	0.60270 0.49830 0.73470 0.08100
C 	C 	0.56230 0.49926 0.73786 0.06700
H 	H 	0.54980 0.50780 0.75400 -0.00600
C 	C 	0.64389 0.48307 0.68603 0.09700
N 	N 	0.65830 0.48246 0.65692 -0.13800
S 	S 	0.80223 0.00397 0.14325 -0.05200
C 	C 	0.79189 0.99549 0.18069 0.09300
N 	N 	0.78453 0.98957 0.20679 -0.25800
N 	N 	0.77475 0.93657 0.26421 -0.23800
C 	C 	0.80540 0.92476 0.25338 0.07300
H 	H 	0.81630 0.93790 0.23570 -0.00500
C 	C 	0.82217 0.89481 0.26625 -0.12400
H 	H 	0.84400 0.88740 0.25760 0.08000
C 	C 	0.80646 0.87556 0.29218 0.05500
C 	C 	0.77480 0.88672 0.30242 -0.12100
H 	H 	0.76330 0.87390 0.31950 0.08000
C 	C 	0.75975 0.91695 0.28753 0.06800
H 	H 	0.73790 0.92410 0.29410 -0.00400
C 	C 	0.82312 0.84510 0.31028 0.10100
N 	N 	0.85331 0.83233 0.29677 -0.13900
C 	C 	0.86728 0.80524 0.31490 0.09700
N 	N 	0.85322 0.79106 0.34478 -0.13700
C 	C 	0.82290 0.80604 0.35540 0.10100
N 	N 	0.80682 0.83254 0.33914 -0.14000
N 	N 	0.96438 0.76564 0.27348 -0.23600
C 	C 	0.94663 0.79029 0.25737 0.07200
H 	H 	0.95630 0.79930 0.23590 -0.00600
C 	C 	0.91533 0.80355 0.26967 -0.12300
H 	H 	0.90390 0.82110 0.25710 0.08100
C 	C 	0.90073 0.79061 0.30099 0.05600
C 	C 	0.91858 0.76446 0.31782 -0.12300
H 	H 	0.90930 0.75450 0.33910 0.08000
C 	C 	0.94997 0.75297 0.30335 0.07300
H 	H 	0.96190 0.73510 0.31530 -0.00400
N 	N 	0.77381 0.76839 0.45067 -0.23700
C 	C 	0.79836 0.75040 0.43450 0.07200
H 	H 	0.80470 0.72870 0.44490 -0.00500
C 	C 	0.81477 0.76121 0.40407 -0.12100
H 	H 	0.83220 0.74740 0.39380 0.07800
C 	C 	0.80552 0.79280 0.38826 0.05200
C 	C 	0.78021 0.81211 0.40395 -0.11500
H 	H 	0.77330 0.83370 0.39370 0.07900
C 	C 	0.76508 0.79908 0.43528 0.06300
H 	H 	0.74790 0.81230 0.44630 -0.00200
N 	N 	0.78985 0.71099 0.50255 -0.26400
C 	C 	0.80758 0.68838 0.51008 0.10600
S 	S 	0.83169 0.65577 0.52707 -0.05300
N 	N 	0.72767 0.73153 0.54881 -0.24100
C 	C 	0.70381 0.74709 0.56635 0.09400
H 	H 	0.69580 0.76880 0.55720 -0.01300
C 	C 	0.68976 0.73410 0.59706 -0.13800
H 	H 	0.67220 0.74680 0.60840 0.08400
C 	C 	0.70080 0.70290 0.61162 0.06200
C 	C 	0.72576 0.68586 0.59374 -0.12400
H 	H 	0.73470 0.66430 0.60270 0.08100
C 	C 	0.73786 0.70058 0.56230 0.06700
H 	H 	0.75400 0.68840 0.54980 -0.00600
C 	C 	0.68603 0.68701 0.64389 0.09700
N 	N 	0.65692 0.70232 0.65830 -0.13800
S 	S 	0.55055 0.14325 0.00397 -0.05200
C 	C 	0.53193 0.18069 0.99549 0.09300
N 	N 	0.51911 0.20679 0.98957 -0.25800
N 	N 	0.52447 0.26421 0.93657 -0.23800
C 	C 	0.51646 0.25338 0.92476 0.07300
H 	H 	0.51010 0.23570 0.93790 -0.00500
C 	C 	0.51677 0.26625 0.89481 -0.12400
H 	H 	0.51100 0.25760 0.88740 0.08000
C 	C 	0.52580 0.29218 0.87556 0.05500
C 	C 	0.53606 0.30242 0.88672 -0.12100
H 	H 	0.54330 0.31950 0.87390 0.08000
C 	C 	0.53577 0.28753 0.91695 0.06800
H 	H 	0.54390 0.29410 0.92410 -0.00400
C 	C 	0.52150 0.31028 0.84510 0.10100
N 	N 	0.51759 0.29677 0.83233 -0.13900
C 	C 	0.51258 0.31490 0.80524 0.09700
N 	N 	0.51094 0.34478 0.79106 -0.13700
C 	C 	0.51566 0.35540 0.80604 0.10100
N 	N 	0.52150 0.33914 0.83254 -0.14000
N 	N 	0.49650 0.27348 0.76564 -0.23600
C 	C 	0.50571 0.25737 0.79029 0.07200
H 	H 	0.50850 0.23590 0.79930 -0.00600
C 	C 	0.51145 0.26967 0.80355 -0.12300
H 	H 	0.51790 0.25710 0.82110 0.08100
C 	C 	0.50767 0.30099 0.79061 0.05600
C 	C 	0.49914 0.31782 0.76446 -0.12300
H 	H 	0.49710 0.33910 0.75450 0.08000
C 	C 	0.49371 0.30335 0.75297 0.07300
H 	H 	0.48770 0.31530 0.73510 -0.00400
N 	N 	0.50713 0.45067 0.76839 -0.23700
C 	C 	0.51674 0.43450 0.75040 0.07200
H 	H 	0.52170 0.44490 0.72870 -0.00500
C 	C 	0.51995 0.40407 0.76121 -0.12100
H 	H 	0.52660 0.39380 0.74740 0.07800
C 	C 	0.51342 0.38826 0.79280 0.05200
C 	C 	0.50373 0.40395 0.81211 -0.11500
H 	H 	0.49930 0.39370 0.83370 0.07900
C 	C 	0.50056 0.43528 0.79908 0.06300
H 	H 	0.49350 0.44630 0.81230 -0.00200
N 	N 	0.49661 0.50255 0.71099 -0.26400
C 	C 	0.49396 0.51008 0.68838 0.10600
S 	S 	0.48547 0.52707 0.65577 -0.05300
N 	N 	0.49199 0.54881 0.73153 -0.24100
C 	C 	0.48275 0.56635 0.74709 0.09400
H 	H 	0.47820 0.55720 0.76880 -0.01300
C 	C 	0.47908 0.59706 0.73410 -0.13800
H 	H 	0.47260 0.60840 0.74680 0.08400
C 	C 	0.48468 0.61162 0.70290 0.06200
C 	C 	0.49464 0.59374 0.68586 -0.12400
H 	H 	0.49830 0.60270 0.66430 0.08100
C 	C 	0.49926 0.56230 0.70058 0.06700
H 	H 	0.50780 0.54980 0.68840 -0.00600
C 	C 	0.48307 0.64389 0.68701 0.09700
N 	N 	0.48246 0.65830 0.70232 -0.13800
S 	S 	0.00397 0.80223 0.55055 -0.05200
C 	C 	0.99549 0.79189 0.53193 0.09300
N 	N 	0.98957 0.78453 0.51911 -0.25800
N 	N 	0.93657 0.77475 0.52447 -0.23800
C 	C 	0.92476 0.80540 0.51646 0.07300
H 	H 	0.93790 0.81630 0.51010 -0.00500
C 	C 	0.89481 0.82217 0.51677 -0.12400
H 	H 	0.88740 0.84400 0.51100 0.08000
C 	C 	0.87556 0.80646 0.52580 0.05500
C 	C 	0.88672 0.77480 0.53606 -0.12100
H 	H 	0.87390 0.76330 0.54330 0.08000
C 	C 	0.91695 0.75975 0.53577 0.06800
H 	H 	0.92410 0.73790 0.54390 -0.00400
C 	C 	0.84510 0.82312 0.52150 0.10100
N 	N 	0.83233 0.85331 0.51759 -0.13900
C 	C 	0.80524 0.86728 0.51258 0.09700
N 	N 	0.79106 0.85322 0.51094 -0.13700
C 	C 	0.80604 0.82290 0.51566 0.10100
N 	N 	0.83254 0.80682 0.52150 -0.14000
N 	N 	0.76564 0.96438 0.49650 -0.23600
C 	C 	0.79029 0.94663 0.50571 0.07200
H 	H 	0.79930 0.95630 0.50850 -0.00600
C 	C 	0.80355 0.91533 0.51145 -0.12300
H 	H 	0.82110 0.90390 0.51790 0.08100
C 	C 	0.79061 0.90073 0.50767 0.05600
C 	C 	0.76446 0.91858 0.49914 -0.12300
H 	H 	0.75450 0.90930 0.49710 0.08000
C 	C 	0.75297 0.94997 0.49371 0.07300
H 	H 	0.73510 0.96190 0.48770 -0.00400
N 	N 	0.76839 0.77381 0.50713 -0.23700
C 	C 	0.75040 0.79836 0.51674 0.07200
H 	H 	0.72870 0.80470 0.52170 -0.00500
C 	C 	0.76121 0.81477 0.51995 -0.12100
H 	H 	0.74740 0.83220 0.52660 0.07800
C 	C 	0.79280 0.80552 0.51342 0.05200
C 	C 	0.81211 0.78021 0.50373 -0.11500
H 	H 	0.83370 0.77330 0.49930 0.07900
C 	C 	0.79908 0.76508 0.50056 0.06300
H 	H 	0.81230 0.74790 0.49350 -0.00200
N 	N 	0.71099 0.78985 0.49661 -0.26400
C 	C 	0.68838 0.80758 0.49396 0.10600
S 	S 	0.65577 0.83169 0.48547 -0.05300
N 	N 	0.73153 0.72767 0.49199 -0.24100
C 	C 	0.74709 0.70381 0.48275 0.09400
H 	H 	0.76880 0.69580 0.47820 -0.01300
C 	C 	0.73410 0.68976 0.47908 -0.13800
H 	H 	0.74680 0.67220 0.47260 0.08400
C 	C 	0.70290 0.70080 0.48468 0.06200
C 	C 	0.68586 0.72576 0.49464 -0.12400
H 	H 	0.66430 0.73470 0.49830 0.08100
C 	C 	0.70058 0.73786 0.49926 0.06700
H 	H 	0.68840 0.75400 0.50780 -0.00600
C 	C 	0.68701 0.68603 0.48307 0.09700
N 	N 	0.70232 0.65692 0.48246 -0.13800
S 	S 	0.00397 0.14325 0.80223 -0.05200
C 	C 	0.99549 0.18069 0.79189 0.09300
N 	N 	0.98957 0.20679 0.78453 -0.25800
N 	N 	0.93657 0.26421 0.77475 -0.23800
C 	C 	0.92476 0.25338 0.80540 0.07300
H 	H 	0.93790 0.23570 0.81630 -0.00500
C 	C 	0.89481 0.26625 0.82217 -0.12400
H 	H 	0.88740 0.25760 0.84400 0.08000
C 	C 	0.87556 0.29218 0.80646 0.05500
C 	C 	0.88672 0.30242 0.77480 -0.12100
H 	H 	0.87390 0.31950 0.76330 0.08000
C 	C 	0.91695 0.28753 0.75975 0.06800
H 	H 	0.92410 0.29410 0.73790 -0.00400
C 	C 	0.84510 0.31028 0.82312 0.10100
N 	N 	0.83233 0.29677 0.85331 -0.13900
C 	C 	0.80524 0.31490 0.86728 0.09700
N 	N 	0.79106 0.34478 0.85322 -0.13700
C 	C 	0.80604 0.35540 0.82290 0.10100
N 	N 	0.83254 0.33914 0.80682 -0.14000
N 	N 	0.76564 0.27348 0.96438 -0.23600
C 	C 	0.79029 0.25737 0.94663 0.07200
H 	H 	0.79930 0.23590 0.95630 -0.00600
C 	C 	0.80355 0.26967 0.91533 -0.12300
H 	H 	0.82110 0.25710 0.90390 0.08100
C 	C 	0.79061 0.30099 0.90073 0.05600
C 	C 	0.76446 0.31782 0.91858 -0.12300
H 	H 	0.75450 0.33910 0.90930 0.08000
C 	C 	0.75297 0.30335 0.94997 0.07300
H 	H 	0.73510 0.31530 0.96190 -0.00400
N 	N 	0.76839 0.45067 0.77381 -0.23700
C 	C 	0.75040 0.43450 0.79836 0.07200
H 	H 	0.72870 0.44490 0.80470 -0.00500
C 	C 	0.76121 0.40407 0.81477 -0.12100
H 	H 	0.74740 0.39380 0.83220 0.07800
C 	C 	0.79280 0.38826 0.80552 0.05200
C 	C 	0.81211 0.40395 0.78021 -0.11500
H 	H 	0.83370 0.39370 0.77330 0.07900
C 	C 	0.79908 0.43528 0.76508 0.06300
H 	H 	0.81230 0.44630 0.74790 -0.00200
N 	N 	0.71099 0.50255 0.78985 -0.26400
C 	C 	0.68838 0.51008 0.80758 0.10600
S 	S 	0.65577 0.52707 0.83169 -0.05300
N 	N 	0.73153 0.54881 0.72767 -0.24100
C 	C 	0.74709 0.56635 0.70381 0.09400
H 	H 	0.76880 0.55720 0.69580 -0.01300
C 	C 	0.73410 0.59706 0.68976 -0.13800
H 	H 	0.74680 0.60840 0.67220 0.08400
C 	C 	0.70290 0.61162 0.70080 0.06200
C 	C 	0.68586 0.59374 0.72576 -0.12400
H 	H 	0.66430 0.60270 0.73470 0.08100
C 	C 	0.70058 0.56230 0.73786 0.06700
H 	H 	0.68840 0.54980 0.75400 -0.00600
C 	C 	0.68701 0.64389 0.68603 0.09700
N 	N 	0.70232 0.65830 0.65692 -0.13800
S 	S 	0.55055 0.80223 0.14325 -0.05200
C 	C 	0.53193 0.79189 0.18069 0.09300
N 	N 	0.51911 0.78453 0.20679 -0.25800
N 	N 	0.52447 0.77475 0.26421 -0.23800
C 	C 	0.51646 0.80540 0.25338 0.07300
H 	H 	0.51010 0.81630 0.23570 -0.00500
C 	C 	0.51677 0.82217 0.26625 -0.12400
H 	H 	0.51100 0.84400 0.25760 0.08000
C 	C 	0.52580 0.80646 0.29218 0.05500
C 	C 	0.53606 0.77480 0.30242 -0.12100
H 	H 	0.54330 0.76330 0.31950 0.08000
C 	C 	0.53577 0.75975 0.28753 0.06800
H 	H 	0.54390 0.73790 0.29410 -0.00400
C 	C 	0.52150 0.82312 0.31028 0.10100
N 	N 	0.51759 0.85331 0.29677 -0.13900
C 	C 	0.51258 0.86728 0.31490 0.09700
N 	N 	0.51094 0.85322 0.34478 -0.13700
C 	C 	0.51566 0.82290 0.35540 0.10100
N 	N 	0.52150 0.80682 0.33914 -0.14000
N 	N 	0.49650 0.96438 0.27348 -0.23600
C 	C 	0.50571 0.94663 0.25737 0.07200
H 	H 	0.50850 0.95630 0.23590 -0.00600
C 	C 	0.51145 0.91533 0.26967 -0.12300
H 	H 	0.51790 0.90390 0.25710 0.08100
C 	C 	0.50767 0.90073 0.30099 0.05600
C 	C 	0.49914 0.91858 0.31782 -0.12300
H 	H 	0.49710 0.90930 0.33910 0.08000
C 	C 	0.49371 0.94997 0.30335 0.07300
H 	H 	0.48770 0.96190 0.31530 -0.00400
N 	N 	0.50713 0.77381 0.45067 -0.23700
C 	C 	0.51674 0.79836 0.43450 0.07200
H 	H 	0.52170 0.80470 0.44490 -0.00500
C 	C 	0.51995 0.81477 0.40407 -0.12100
H 	H 	0.52660 0.83220 0.39380 0.07800
C 	C 	0.51342 0.80552 0.38826 0.05200
C 	C 	0.50373 0.78021 0.40395 -0.11500
H 	H 	0.49930 0.77330 0.39370 0.07900
C 	C 	0.50056 0.76508 0.43528 0.06300
H 	H 	0.49350 0.74790 0.44630 -0.00200
N 	N 	0.49661 0.78985 0.50255 -0.26400
C 	C 	0.49396 0.80758 0.51008 0.10600
S 	S 	0.48547 0.83169 0.52707 -0.05300
N 	N 	0.49199 0.72767 0.54881 -0.24100
C 	C 	0.48275 0.70381 0.56635 0.09400
H 	H 	0.47820 0.69580 0.55720 -0.01300
C 	C 	0.47908 0.68976 0.59706 -0.13800
H 	H 	0.47260 0.67220 0.60840 0.08400
C 	C 	0.48468 0.70080 0.61162 0.06200
C 	C 	0.49464 0.72576 0.59374 -0.12400
H 	H 	0.49830 0.73470 0.60270 0.08100
C 	C 	0.49926 0.73786 0.56230 0.06700
H 	H 	0.50780 0.75400 0.54980 -0.00600
C 	C 	0.48307 0.68603 0.64389 0.09700
N 	N 	0.48246 0.65692 0.65830 -0.13800
S 	S 	0.80223 0.55055 0.00397 -0.05200
C 	C 	0.79189 0.53193 0.99549 0.09300
N 	N 	0.78453 0.51911 0.98957 -0.25800
N 	N 	0.77475 0.52447 0.93657 -0.23800
C 	C 	0.80540 0.51646 0.92476 0.07300
H 	H 	0.81630 0.51010 0.93790 -0.00500
C 	C 	0.82217 0.51677 0.89481 -0.12400
H 	H 	0.84400 0.51100 0.88740 0.08000
C 	C 	0.80646 0.52580 0.87556 0.05500
C 	C 	0.77480 0.53606 0.88672 -0.12100
H 	H 	0.76330 0.54330 0.87390 0.08000
C 	C 	0.75975 0.53577 0.91695 0.06800
H 	H 	0.73790 0.54390 0.92410 -0.00400
C 	C 	0.82312 0.52150 0.84510 0.10100
N 	N 	0.85331 0.51759 0.83233 -0.13900
C 	C 	0.86728 0.51258 0.80524 0.09700
N 	N 	0.85322 0.51094 0.79106 -0.13700
C 	C 	0.82290 0.51566 0.80604 0.10100
N 	N 	0.80682 0.52150 0.83254 -0.14000
N 	N 	0.96438 0.49650 0.76564 -0.23600
C 	C 	0.94663 0.50571 0.79029 0.07200
H 	H 	0.95630 0.50850 0.79930 -0.00600
C 	C 	0.91533 0.51145 0.80355 -0.12300
H 	H 	0.90390 0.51790 0.82110 0.08100
C 	C 	0.90073 0.50767 0.79061 0.05600
C 	C 	0.91858 0.49914 0.76446 -0.12300
H 	H 	0.90930 0.49710 0.75450 0.08000
C 	C 	0.94997 0.49371 0.75297 0.07300
H 	H 	0.96190 0.48770 0.73510 -0.00400
N 	N 	0.77381 0.50713 0.76839 -0.23700
C 	C 	0.79836 0.51674 0.75040 0.07200
H 	H 	0.80470 0.52170 0.72870 -0.00500
C 	C 	0.81477 0.51995 0.76121 -0.12100
H 	H 	0.83220 0.52660 0.74740 0.07800
C 	C 	0.80552 0.51342 0.79280 0.05200
C 	C 	0.78021 0.50373 0.81211 -0.11500
H 	H 	0.77330 0.49930 0.83370 0.07900
C 	C 	0.76508 0.50056 0.79908 0.06300
H 	H 	0.74790 0.49350 0.81230 -0.00200
N 	N 	0.78985 0.49661 0.71099 -0.26400
C 	C 	0.80758 0.49396 0.68838 0.10600
S 	S 	0.83169 0.48547 0.65577 -0.05300
N 	N 	0.72767 0.49199 0.73153 -0.24100
C 	C 	0.70381 0.48275 0.74709 0.09400
H 	H 	0.69580 0.47820 0.76880 -0.01300
C 	C 	0.68976 0.47908 0.73410 -0.13800
H 	H 	0.67220 0.47260 0.74680 0.08400
C 	C 	0.70080 0.48468 0.70290 0.06200
C 	C 	0.72576 0.49464 0.68586 -0.12400
H 	H 	0.73470 0.49830 0.66430 0.08100
C 	C 	0.73786 0.49926 0.70058 0.06700
H 	H 	0.75400 0.50780 0.68840 -0.00600
C 	C 	0.68603 0.48307 0.68701 0.09700
N 	N 	0.65692 0.48246 0.70232 -0.13800
S 	S 	0.14325 0.00397 0.55055 -0.05200
C 	C 	0.18069 0.99549 0.53193 0.09300
N 	N 	0.20679 0.98957 0.51911 -0.25800
N 	N 	0.26421 0.93657 0.52447 -0.23800
C 	C 	0.25338 0.92476 0.51646 0.07300
H 	H 	0.23570 0.93790 0.51010 -0.00500
C 	C 	0.26625 0.89481 0.51677 -0.12400
H 	H 	0.25760 0.88740 0.51100 0.08000
C 	C 	0.29218 0.87556 0.52580 0.05500
C 	C 	0.30242 0.88672 0.53606 -0.12100
H 	H 	0.31950 0.87390 0.54330 0.08000
C 	C 	0.28753 0.91695 0.53577 0.06800
H 	H 	0.29410 0.92410 0.54390 -0.00400
C 	C 	0.31028 0.84510 0.52150 0.10100
N 	N 	0.29677 0.83233 0.51759 -0.13900
C 	C 	0.31490 0.80524 0.51258 0.09700
N 	N 	0.34478 0.79106 0.51094 -0.13700
C 	C 	0.35540 0.80604 0.51566 0.10100
N 	N 	0.33914 0.83254 0.52150 -0.14000
N 	N 	0.27348 0.76564 0.49650 -0.23600
C 	C 	0.25737 0.79029 0.50571 0.07200
H 	H 	0.23590 0.79930 0.50850 -0.00600
C 	C 	0.26967 0.80355 0.51145 -0.12300
H 	H 	0.25710 0.82110 0.51790 0.08100
C 	C 	0.30099 0.79061 0.50767 0.05600
C 	C 	0.31782 0.76446 0.49914 -0.12300
H 	H 	0.33910 0.75450 0.49710 0.08000
C 	C 	0.30335 0.75297 0.49371 0.07300
H 	H 	0.31530 0.73510 0.48770 -0.00400
N 	N 	0.45067 0.76839 0.50713 -0.23700
C 	C 	0.43450 0.75040 0.51674 0.07200
H 	H 	0.44490 0.72870 0.52170 -0.00500
C 	C 	0.40407 0.76121 0.51995 -0.12100
H 	H 	0.39380 0.74740 0.52660 0.07800
C 	C 	0.38826 0.79280 0.51342 0.05200
C 	C 	0.40395 0.81211 0.50373 -0.11500
H 	H 	0.39370 0.83370 0.49930 0.07900
C 	C 	0.43528 0.79908 0.50056 0.06300
H 	H 	0.44630 0.81230 0.49350 -0.00200
N 	N 	0.50255 0.71099 0.49661 -0.26400
C 	C 	0.51008 0.68838 0.49396 0.10600
S 	S 	0.52707 0.65577 0.48547 -0.05300
N 	N 	0.54881 0.73153 0.49199 -0.24100
C 	C 	0.56635 0.74709 0.48275 0.09400
H 	H 	0.55720 0.76880 0.47820 -0.01300
C 	C 	0.59706 0.73410 0.47908 -0.13800
H 	H 	0.60840 0.74680 0.47260 0.08400
C 	C 	0.61162 0.70290 0.48468 0.06200
C 	C 	0.59374 0.68586 0.49464 -0.12400
H 	H 	0.60270 0.66430 0.49830 0.08100
C 	C 	0.56230 0.70058 0.49926 0.06700
H 	H 	0.54980 0.68840 0.50780 -0.00600
C 	C 	0.64389 0.68701 0.48307 0.09700
N 	N 	0.65830 0.70232 0.48246 -0.13800
Co	Co	0.01436 0.48564 0.75000 1.12200
Co	Co	0.48564 0.01436 0.25000 1.12200
Co	Co	0.75000 0.25000 0.01436 1.12200
Co	Co	0.25000 0.75000 0.48564 1.12200
Co	Co	0.75000 0.01436 0.48564 1.12200
Co	Co	0.25000 0.48564 0.01436 1.12200
Co	Co	0.01436 0.75000 0.25000 1.12200
Co	Co	0.48564 0.25000 0.75000 1.12200
Co	Co	0.48564 0.75000 0.01436 1.12200
Co	Co	0.01436 0.25000 0.48564 1.12200
Co	Co	0.25000 0.01436 0.75000 1.12200
Co	Co	0.75000 0.48564 0.25000 1.12200
Co	Co	0.98564 0.51436 0.25000 1.12200
Co	Co	0.51436 0.98564 0.75000 1.12200
Co	Co	0.25000 0.75000 0.98564 1.12200
Co	Co	0.75000 0.25000 0.51436 1.12200
Co	Co	0.25000 0.98564 0.51436 1.12200
Co	Co	0.75000 0.51436 0.98564 1.12200
Co	Co	0.98564 0.25000 0.75000 1.12200
Co	Co	0.51436 0.75000 0.25000 1.12200
Co	Co	0.51436 0.25000 0.98564 1.12200
Co	Co	0.98564 0.75000 0.51436 1.12200
Co	Co	0.75000 0.98564 0.25000 1.12200
Co	Co	0.25000 0.51436 0.75000 1.12200
Co	Co	0.99948 0.25052 0.99948 1.12300
Co	Co	0.25052 0.99948 0.25052 1.12300
Co	Co	0.99948 0.99948 0.25052 1.12300
Co	Co	0.25052 0.25052 0.99948 1.12300
Co	Co	0.25052 0.99948 0.99948 1.12300
Co	Co	0.99948 0.25052 0.25052 1.12300
Co	Co	0.50052 0.24948 0.24948 1.12300
Co	Co	0.24948 0.50052 0.50052 1.12300
Co	Co	0.50052 0.50052 0.24948 1.12300
Co	Co	0.24948 0.24948 0.50052 1.12300
Co	Co	0.24948 0.50052 0.24948 1.12300
Co	Co	0.50052 0.24948 0.50052 1.12300
Co	Co	0.00052 0.74948 0.00052 1.12300
Co	Co	0.74948 0.00052 0.74948 1.12300
Co	Co	0.00052 0.00052 0.74948 1.12300
Co	Co	0.74948 0.74948 0.00052 1.12300
Co	Co	0.74948 0.00052 0.00052 1.12300
Co	Co	0.00052 0.74948 0.74948 1.12300
Co	Co	0.49948 0.75052 0.75052 1.12300
Co	Co	0.75052 0.49948 0.49948 1.12300
Co	Co	0.49948 0.49948 0.75052 1.12300
Co	Co	0.75052 0.75052 0.49948 1.12300
Co	Co	0.75052 0.49948 0.75052 1.12300
Co	Co	0.49948 0.75052 0.49948 1.12300
