data_crystal

_cell_length_a 16.74440
_cell_length_b 16.74440
_cell_length_c 16.74440
_cell_angle_alpha 90.00000
_cell_angle_beta  90.00000
_cell_angle_gamma 90.00000

_symmetry_space_group_name_	'P 1'
_symmetry_space_group_name_H-M	'P 1'

loop_
_symmetry_equiv_pos_as_xyz
  x,y,z

loop_
_atom_site_label
_atom_site_type_symbol
_atom_site_fract_x
_atom_site_fract_y
_atom_site_fract_z
_atom_site_charge
O 	O 	0.09180 0.52261 0.80557 -0.38600
O 	O 	0.59180 0.02261 0.30557 -0.45400
O 	O 	0.90820 0.47739 0.80557 -0.18600
O 	O 	0.40820 0.97739 0.30557 -0.17200
O 	O 	0.90820 0.52261 0.19443 -0.21700
O 	O 	0.40820 0.02261 0.69443 -0.44500
O 	O 	0.09180 0.47739 0.19443 -0.42100
O 	O 	0.59180 0.97739 0.69443 -0.13900
O 	O 	0.80557 0.09180 0.52261 -0.38600
O 	O 	0.30557 0.59180 0.02261 -0.45300
O 	O 	0.80557 0.90820 0.47739 -0.18500
O 	O 	0.30557 0.40820 0.97739 -0.17100
O 	O 	0.19443 0.90820 0.52261 -0.21600
O 	O 	0.69443 0.40820 0.02261 -0.44400
O 	O 	0.19443 0.09180 0.47739 -0.42000
O 	O 	0.69443 0.59180 0.97739 -0.13800
O 	O 	0.52261 0.80557 0.09180 -0.38500
O 	O 	0.02261 0.30557 0.59180 -0.45300
O 	O 	0.47739 0.80557 0.90820 -0.18500
O 	O 	0.97739 0.30557 0.40820 -0.17100
O 	O 	0.52261 0.19443 0.90820 -0.21600
O 	O 	0.02261 0.69443 0.40820 -0.44400
O 	O 	0.47739 0.19443 0.09180 -0.42000
O 	O 	0.97739 0.69443 0.59180 -0.13800
O 	O 	0.52261 0.09180 0.80557 -0.38500
O 	O 	0.02261 0.59180 0.30557 -0.45300
O 	O 	0.47739 0.90820 0.80557 -0.18500
O 	O 	0.97739 0.40820 0.30557 -0.17100
O 	O 	0.52261 0.90820 0.19443 -0.21600
O 	O 	0.02261 0.40820 0.69443 -0.44400
O 	O 	0.47739 0.09180 0.19443 -0.42000
O 	O 	0.97739 0.59180 0.69443 -0.13800
O 	O 	0.09180 0.80557 0.52261 -0.38500
O 	O 	0.59180 0.30557 0.02261 -0.45300
O 	O 	0.90820 0.80557 0.47739 -0.18500
O 	O 	0.40820 0.30557 0.97739 -0.17100
O 	O 	0.90820 0.19443 0.52261 -0.21600
O 	O 	0.40820 0.69443 0.02261 -0.44400
O 	O 	0.09180 0.19443 0.47739 -0.42000
O 	O 	0.59180 0.69443 0.97739 -0.13800
O 	O 	0.80557 0.52261 0.09180 -0.38500
O 	O 	0.30557 0.02261 0.59180 -0.45300
O 	O 	0.80557 0.47739 0.90820 -0.18500
O 	O 	0.30557 0.97739 0.40820 -0.17100
O 	O 	0.19443 0.52261 0.90820 -0.21600
O 	O 	0.69443 0.02261 0.40820 -0.44400
O 	O 	0.19443 0.47739 0.09180 -0.42000
O 	O 	0.69443 0.97739 0.59180 -0.13800
Al	Al	-0.00000 0.50000 -0.00000 2.35900
Al	Al	0.50000 0.00000 0.50000 2.37900
Al	Al	0.00000 0.00000 0.50000 2.35900
Al	Al	0.50000 0.50000 -0.00000 2.37900
Al	Al	0.50000 0.00000 -0.00000 2.35900
Al	Al	0.00000 0.50000 0.50000 2.37900
Na	Na	-0.00000 0.50000 0.75000 0.57900
Na	Na	-0.00000 0.50000 0.25000 0.57600
Na	Na	0.75000 0.00000 0.50000 0.57900
Na	Na	0.25000 0.00000 0.50000 0.57600
Na	Na	0.50000 0.75000 -0.00000 0.57900
Na	Na	0.50000 0.25000 -0.00000 0.57600
Na	Na	0.50000 0.00000 0.75000 0.57900
Na	Na	0.50000 0.00000 0.25000 0.57600
Na	Na	-0.00000 0.75000 0.50000 0.57900
Na	Na	-0.00000 0.25000 0.50000 0.57600
Na	Na	0.75000 0.50000 -0.00000 0.57900
Na	Na	0.25000 0.50000 -0.00000 0.57600
P 	P 	0.12169 0.56872 0.87831 0.60400
O 	O 	0.13925 0.65520 0.86075 -0.14800
O 	O 	0.05728 0.56330 0.94272 -0.69800
P 	P 	0.62169 0.06872 0.37831 0.61400
O 	O 	0.63925 0.15520 0.36075 -0.20200
O 	O 	0.55728 0.06330 0.44272 -0.83100
P 	P 	0.87831 0.43128 0.87831 0.60000
O 	O 	0.86075 0.34480 0.86075 -0.05900
O 	O 	0.94272 0.43670 0.94272 -0.44900
P 	P 	0.37831 0.93128 0.37831 0.59500
O 	O 	0.36075 0.84480 0.36075 -0.16400
O 	O 	0.44272 0.93670 0.44272 -0.59600
P 	P 	0.87831 0.56872 0.12169 0.60400
O 	O 	0.86075 0.65520 0.13925 -0.14800
O 	O 	0.94272 0.56330 0.05728 -0.69800
P 	P 	0.37831 0.06872 0.62169 0.61400
O 	O 	0.36075 0.15520 0.63925 -0.20200
O 	O 	0.44272 0.06330 0.55728 -0.83100
P 	P 	0.12169 0.43128 0.12169 0.61000
O 	O 	0.13925 0.34480 0.13925 -0.33100
O 	O 	0.05728 0.43670 0.05728 -0.98800
P 	P 	0.62169 0.93128 0.62169 0.59800
O 	O 	0.63925 0.84480 0.63925 -0.11900
O 	O 	0.55728 0.93670 0.55728 -0.59600
P 	P 	0.87831 0.12169 0.56872 0.60400
O 	O 	0.86075 0.13925 0.65520 -0.14800
O 	O 	0.94272 0.05728 0.56330 -0.69800
P 	P 	0.37831 0.62169 0.06872 0.61400
O 	O 	0.36075 0.63925 0.15520 -0.20200
O 	O 	0.44272 0.55728 0.06330 -0.83100
P 	P 	0.87831 0.87831 0.43128 0.60000
O 	O 	0.86075 0.86075 0.34480 -0.05900
O 	O 	0.94272 0.94272 0.43670 -0.44900
P 	P 	0.37831 0.37831 0.93128 0.59500
O 	O 	0.36075 0.36075 0.84480 -0.16400
O 	O 	0.44272 0.44272 0.93670 -0.59600
P 	P 	0.12169 0.87831 0.56872 0.60400
O 	O 	0.13925 0.86075 0.65520 -0.14800
O 	O 	0.05728 0.94272 0.56330 -0.69800
P 	P 	0.62169 0.37831 0.06872 0.61400
O 	O 	0.63925 0.36075 0.15520 -0.20200
O 	O 	0.55728 0.44272 0.06330 -0.83100
P 	P 	0.12169 0.12169 0.43128 0.61000
O 	O 	0.13925 0.13925 0.34480 -0.33100
O 	O 	0.05728 0.05728 0.43670 -0.98800
P 	P 	0.62169 0.62169 0.93128 0.59800
O 	O 	0.63925 0.63925 0.84480 -0.11900
O 	O 	0.55728 0.55728 0.93670 -0.59600
P 	P 	0.56872 0.87831 0.12169 0.60400
O 	O 	0.65520 0.86075 0.13925 -0.14800
O 	O 	0.56330 0.94272 0.05728 -0.69800
P 	P 	0.06872 0.37831 0.62169 0.61400
O 	O 	0.15520 0.36075 0.63925 -0.20200
O 	O 	0.06330 0.44272 0.55728 -0.83100
P 	P 	0.43128 0.87831 0.87831 0.60000
O 	O 	0.34480 0.86075 0.86075 -0.05900
O 	O 	0.43670 0.94272 0.94272 -0.44900
P 	P 	0.93128 0.37831 0.37831 0.59500
O 	O 	0.84480 0.36075 0.36075 -0.16400
O 	O 	0.93670 0.44272 0.44272 -0.59600
P 	P 	0.56872 0.12169 0.87831 0.60400
O 	O 	0.65520 0.13925 0.86075 -0.14800
O 	O 	0.56330 0.05728 0.94272 -0.69800
P 	P 	0.06872 0.62169 0.37831 0.61400
O 	O 	0.15520 0.63925 0.36075 -0.20200
O 	O 	0.06330 0.55728 0.44272 -0.83100
P 	P 	0.43128 0.12169 0.12169 0.61000
O 	O 	0.34480 0.13925 0.13925 -0.33100
O 	O 	0.43670 0.05728 0.05728 -0.98800
P 	P 	0.93128 0.62169 0.62169 0.59800
O 	O 	0.84480 0.63925 0.63925 -0.11900
O 	O 	0.93670 0.55728 0.55728 -0.59600
