data_crystal

_cell_length_a 12.26400
_cell_length_b 12.26400
_cell_length_c 5.25350
_cell_angle_alpha 90.00000
_cell_angle_beta  90.00000
_cell_angle_gamma 90.00000

_symmetry_space_group_name_	'P 1'
_symmetry_space_group_name_H-M	'P 1'

loop_
_symmetry_equiv_pos_as_xyz
  x,y,z

loop_
_atom_site_label
_atom_site_type_symbol
_atom_site_fract_x
_atom_site_fract_y
_atom_site_fract_z
_atom_site_charge
Co	Co	0.17871 0.51530 0.21753 1.16400
S 	S 	0.06093 0.19272 0.15290 0.03400
N 	N 	0.11590 0.37360 0.40190 -0.27200
H 	H 	0.09090 0.39570 0.52670 0.15100
C 	C 	0.02440 0.33020 0.25290 -0.14100
H 	H 	0.95850 0.32790 0.35850 0.08600
C 	C 	0.00300 0.39620 0.01640 0.36300
C 	C 	0.20350 0.29360 0.43500 -0.09600
H 	H 	0.23410 0.30240 0.60610 0.05000
C 	C 	0.29310 0.31390 0.24280 0.33500
C 	C 	0.15450 0.18120 0.41560 -0.12200
H 	H 	0.11660 0.16170 0.57110 0.07400
H 	H 	0.21020 0.12700 0.38110 0.07800
O 	O 	0.91820 0.37210 0.89740 -0.43500
O 	O 	0.06980 0.46770 0.94600 -0.44300
O 	O 	0.29270 0.39880 0.11400 -0.41700
O 	O 	0.36740 0.24340 0.22080 -0.40700
Co	Co	0.82129 0.48470 0.71753 1.16400
S 	S 	0.93907 0.80728 0.65290 0.03500
N 	N 	0.88410 0.62640 0.90190 -0.27400
H 	H 	0.90910 0.60430 0.02670 0.15400
C 	C 	0.97560 0.66980 0.75290 -0.14100
H 	H 	0.04150 0.67210 0.85850 0.08500
C 	C 	0.99700 0.60380 0.51640 0.36300
C 	C 	0.79650 0.70640 0.93500 -0.10000
H 	H 	0.76590 0.69760 0.10610 0.05400
C 	C 	0.70690 0.68610 0.74280 0.33600
C 	C 	0.84550 0.81880 0.91560 -0.13000
H 	H 	0.88340 0.83830 0.07110 0.08000
H 	H 	0.78980 0.87300 0.88110 0.07800
O 	O 	0.08180 0.62790 0.39740 -0.43400
O 	O 	0.93020 0.53230 0.44600 -0.44300
O 	O 	0.70730 0.60120 0.61400 -0.41800
O 	O 	0.63260 0.75660 0.72080 -0.40800
Co	Co	0.48470 0.17871 0.46753 1.16400
S 	S 	0.80728 0.06093 0.40290 0.03400
N 	N 	0.62640 0.11590 0.65190 -0.27200
H 	H 	0.60430 0.09090 0.77670 0.15000
C 	C 	0.66980 0.02440 0.50290 -0.13900
H 	H 	0.67210 0.95850 0.60850 0.08400
C 	C 	0.60380 0.00300 0.26640 0.36000
C 	C 	0.70640 0.20350 0.68500 -0.09600
H 	H 	0.69760 0.23410 0.85610 0.04900
C 	C 	0.68610 0.29310 0.49280 0.33500
C 	C 	0.81880 0.15450 0.66560 -0.12200
H 	H 	0.83830 0.11660 0.82110 0.07300
H 	H 	0.87300 0.21020 0.63110 0.07700
O 	O 	0.62790 0.91820 0.14740 -0.42900
O 	O 	0.53230 0.06980 0.19600 -0.44200
O 	O 	0.60120 0.29270 0.36400 -0.41700
O 	O 	0.75660 0.36740 0.47080 -0.40700
Co	Co	0.51530 0.82129 0.96753 1.16100
S 	S 	0.19272 0.93907 0.90290 0.02400
N 	N 	0.37360 0.88410 0.15190 -0.27200
H 	H 	0.39570 0.90910 0.27670 0.15200
C 	C 	0.33020 0.97560 0.00290 -0.12500
H 	H 	0.32790 0.04150 0.10850 0.08000
C 	C 	0.39620 0.99700 0.76640 0.35300
C 	C 	0.29360 0.79650 0.18500 -0.09200
H 	H 	0.30240 0.76590 0.35610 0.04900
C 	C 	0.31390 0.70690 0.99280 0.33100
C 	C 	0.18120 0.84550 0.16560 -0.11800
H 	H 	0.16170 0.88340 0.32110 0.07300
H 	H 	0.12700 0.78980 0.13110 0.07700
O 	O 	0.37210 0.08180 0.64740 -0.43100
O 	O 	0.46770 0.93020 0.69600 -0.44200
O 	O 	0.39880 0.70730 0.86400 -0.41800
O 	O 	0.24340 0.63260 0.97080 -0.40700
