data_crystal

_cell_length_a 18.68410
_cell_length_b 18.68410
_cell_length_c 34.67960
_cell_angle_alpha 90.00000
_cell_angle_beta  90.00000
_cell_angle_gamma 90.00000

_symmetry_space_group_name_	'P 1'
_symmetry_space_group_name_H-M	'P 1'

loop_
_symmetry_equiv_pos_as_xyz
  x,y,z

loop_
_atom_site_label
_atom_site_type_symbol
_atom_site_fract_x
_atom_site_fract_y
_atom_site_fract_z
_atom_site_charge
Cu	Cu	0.73801 0.30469 0.22116 0.90900
O 	O 	0.83700 0.31280 0.20199 -0.39800
O 	O 	0.21240 0.26720 0.19641 -0.39300
O 	O 	0.15380 0.22250 0.24758 -0.39100
O 	O 	0.89063 0.24930 0.24900 -0.39700
C 	C 	0.88940 0.28270 0.21685 0.33400
C 	C 	0.15560 0.25070 0.21443 0.33100
C 	C 	0.08760 0.26710 0.19459 -0.02300
C 	C 	0.96010 0.28690 0.19583 -0.01600
C 	C 	0.02300 0.26410 0.21442 -0.03000
H 	H 	0.02140 0.24730 0.23960 0.07400
C 	C 	0.08910 0.29120 0.15650 -0.11100
H 	H 	0.13240 0.29340 0.14330 0.11000
C 	C 	0.02620 0.31180 0.13840 0.15300
C 	C 	0.96200 0.30940 0.15841 -0.11800
H 	H 	0.91980 0.32320 0.14620 0.09100
C 	C 	0.02840 0.42530 0.03432 -0.05500
H 	H 	0.01980 0.44800 0.05770 0.04800
C 	C 	0.05570 0.35750 0.03445 -0.03300
O 	O 	0.12210 0.28080 0.07506 -0.21800
C 	C 	0.07040 0.32090 0.07152 0.22300
N 	N 	0.02400 0.33510 0.09972 -0.24700
H 	H 	0.98830 0.36170 0.09350 0.13600
Cu	Cu	0.26199 0.69531 0.22116 0.90800
O 	O 	0.16300 0.68720 0.20199 -0.39900
O 	O 	0.78760 0.73280 0.19641 -0.39400
O 	O 	0.84620 0.77750 0.24758 -0.39200
O 	O 	0.10937 0.75070 0.24900 -0.39800
C 	C 	0.11060 0.71730 0.21685 0.33300
C 	C 	0.84440 0.74930 0.21443 0.33000
C 	C 	0.91240 0.73290 0.19459 -0.02400
C 	C 	0.03990 0.71310 0.19583 -0.01700
C 	C 	0.97700 0.73590 0.21442 -0.03100
H 	H 	0.97860 0.75270 0.23960 0.07300
C 	C 	0.91090 0.70880 0.15650 -0.11200
H 	H 	0.86760 0.70660 0.14330 0.11000
C 	C 	0.97380 0.68820 0.13840 0.15300
C 	C 	0.03800 0.69060 0.15841 -0.11800
H 	H 	0.08020 0.67680 0.14620 0.09100
C 	C 	0.97160 0.57470 0.03432 -0.05500
H 	H 	0.98020 0.55200 0.05770 0.04800
C 	C 	0.94430 0.64250 0.03445 -0.03300
O 	O 	0.87790 0.71920 0.07506 -0.21800
C 	C 	0.92960 0.67910 0.07152 0.22300
N 	N 	0.97600 0.66490 0.09972 -0.24700
H 	H 	0.01170 0.63830 0.09350 0.13600
Cu	Cu	0.69531 0.73801 0.22116 0.90800
O 	O 	0.68720 0.83700 0.20199 -0.39900
O 	O 	0.73280 0.21240 0.19641 -0.39400
O 	O 	0.77750 0.15380 0.24758 -0.39200
O 	O 	0.75070 0.89063 0.24900 -0.39800
C 	C 	0.71730 0.88940 0.21685 0.33300
C 	C 	0.74930 0.15560 0.21443 0.33000
C 	C 	0.73290 0.08760 0.19459 -0.02400
C 	C 	0.71310 0.96010 0.19583 -0.01700
C 	C 	0.73590 0.02300 0.21442 -0.03100
H 	H 	0.75270 0.02140 0.23960 0.07300
C 	C 	0.70880 0.08910 0.15650 -0.11200
H 	H 	0.70660 0.13240 0.14330 0.11000
C 	C 	0.68820 0.02620 0.13840 0.15300
C 	C 	0.69060 0.96200 0.15841 -0.11800
H 	H 	0.67680 0.91980 0.14620 0.09100
C 	C 	0.57470 0.02840 0.03432 -0.05500
H 	H 	0.55200 0.01980 0.05770 0.04800
C 	C 	0.64250 0.05570 0.03445 -0.03300
O 	O 	0.71920 0.12210 0.07506 -0.21800
C 	C 	0.67910 0.07040 0.07152 0.22300
N 	N 	0.66490 0.02400 0.09972 -0.24700
H 	H 	0.63830 0.98830 0.09350 0.13600
Cu	Cu	0.30469 0.26199 0.22116 0.90800
O 	O 	0.31280 0.16300 0.20199 -0.39900
O 	O 	0.26720 0.78760 0.19641 -0.39400
O 	O 	0.22250 0.84620 0.24758 -0.39200
O 	O 	0.24930 0.10937 0.24900 -0.39800
C 	C 	0.28270 0.11060 0.21685 0.33300
C 	C 	0.25070 0.84440 0.21443 0.33000
C 	C 	0.26710 0.91240 0.19459 -0.02400
C 	C 	0.28690 0.03990 0.19583 -0.01700
C 	C 	0.26410 0.97700 0.21442 -0.03100
H 	H 	0.24730 0.97860 0.23960 0.07300
C 	C 	0.29120 0.91090 0.15650 -0.11200
H 	H 	0.29340 0.86760 0.14330 0.11000
C 	C 	0.31180 0.97380 0.13840 0.15300
C 	C 	0.30940 0.03800 0.15841 -0.11800
H 	H 	0.32320 0.08020 0.14620 0.09100
C 	C 	0.42530 0.97160 0.03432 -0.05500
H 	H 	0.44800 0.98020 0.05770 0.04800
C 	C 	0.35750 0.94430 0.03445 -0.03300
O 	O 	0.28080 0.87790 0.07506 -0.21800
C 	C 	0.32090 0.92960 0.07152 0.22300
N 	N 	0.33510 0.97600 0.09972 -0.24700
H 	H 	0.36170 0.01170 0.09350 0.13600
Cu	Cu	0.76199 0.80469 0.27884 0.90800
O 	O 	0.66300 0.81280 0.29801 -0.39900
O 	O 	0.28760 0.76720 0.30359 -0.39400
O 	O 	0.34620 0.72250 0.25242 -0.39200
O 	O 	0.60937 0.74930 0.25100 -0.39800
C 	C 	0.61060 0.78270 0.28315 0.33300
C 	C 	0.34440 0.75070 0.28557 0.33000
C 	C 	0.41240 0.76710 0.30541 -0.02400
C 	C 	0.53990 0.78690 0.30417 -0.01700
C 	C 	0.47700 0.76410 0.28558 -0.03100
H 	H 	0.47860 0.74730 0.26040 0.07300
C 	C 	0.41090 0.79120 0.34350 -0.11200
H 	H 	0.36760 0.79340 0.35670 0.11000
C 	C 	0.47380 0.81180 0.36160 0.15300
C 	C 	0.53800 0.80940 0.34159 -0.11800
H 	H 	0.58020 0.82320 0.35380 0.09100
C 	C 	0.47160 0.92530 0.46568 -0.05500
H 	H 	0.48020 0.94800 0.44230 0.04800
C 	C 	0.44430 0.85750 0.46555 -0.03400
O 	O 	0.37790 0.78080 0.42494 -0.21800
C 	C 	0.42960 0.82090 0.42848 0.22400
N 	N 	0.47600 0.83510 0.40028 -0.24700
H 	H 	0.51170 0.86170 0.40650 0.13600
Cu	Cu	0.23801 0.19531 0.27884 0.90800
O 	O 	0.33700 0.18720 0.29801 -0.39900
O 	O 	0.71240 0.23280 0.30359 -0.39400
O 	O 	0.65380 0.27750 0.25242 -0.39200
O 	O 	0.39063 0.25070 0.25100 -0.39800
C 	C 	0.38940 0.21730 0.28315 0.33300
C 	C 	0.65560 0.24930 0.28557 0.33000
C 	C 	0.58760 0.23290 0.30541 -0.02400
C 	C 	0.46010 0.21310 0.30417 -0.01700
C 	C 	0.52300 0.23590 0.28558 -0.03100
H 	H 	0.52140 0.25270 0.26040 0.07300
C 	C 	0.58910 0.20880 0.34350 -0.11200
H 	H 	0.63240 0.20660 0.35670 0.11000
C 	C 	0.52620 0.18820 0.36160 0.15300
C 	C 	0.46200 0.19060 0.34159 -0.11800
H 	H 	0.41980 0.17680 0.35380 0.09100
C 	C 	0.52840 0.07470 0.46568 -0.05500
H 	H 	0.51980 0.05200 0.44230 0.04800
C 	C 	0.55570 0.14250 0.46555 -0.03400
O 	O 	0.62210 0.21920 0.42494 -0.21800
C 	C 	0.57040 0.17910 0.42848 0.22400
N 	N 	0.52400 0.16490 0.40028 -0.24700
H 	H 	0.48830 0.13830 0.40650 0.13600
Cu	Cu	0.80469 0.23801 0.27884 0.90800
O 	O 	0.81280 0.33700 0.29801 -0.39900
O 	O 	0.76720 0.71240 0.30359 -0.39400
O 	O 	0.72250 0.65380 0.25242 -0.39200
O 	O 	0.74930 0.39063 0.25100 -0.39800
C 	C 	0.78270 0.38940 0.28315 0.33300
C 	C 	0.75070 0.65560 0.28557 0.33000
C 	C 	0.76710 0.58760 0.30541 -0.02400
C 	C 	0.78690 0.46010 0.30417 -0.01700
C 	C 	0.76410 0.52300 0.28558 -0.03100
H 	H 	0.74730 0.52140 0.26040 0.07300
C 	C 	0.79120 0.58910 0.34350 -0.11200
H 	H 	0.79340 0.63240 0.35670 0.11000
C 	C 	0.81180 0.52620 0.36160 0.15300
C 	C 	0.80940 0.46200 0.34159 -0.11800
H 	H 	0.82320 0.41980 0.35380 0.09100
C 	C 	0.92530 0.52840 0.46568 -0.05500
H 	H 	0.94800 0.51980 0.44230 0.04800
C 	C 	0.85750 0.55570 0.46555 -0.03400
O 	O 	0.78080 0.62210 0.42494 -0.21800
C 	C 	0.82090 0.57040 0.42848 0.22400
N 	N 	0.83510 0.52400 0.40028 -0.24700
H 	H 	0.86170 0.48830 0.40650 0.13600
Cu	Cu	0.19531 0.76199 0.27884 0.90800
O 	O 	0.18720 0.66300 0.29801 -0.39900
O 	O 	0.23280 0.28760 0.30359 -0.39400
O 	O 	0.27750 0.34620 0.25242 -0.39200
O 	O 	0.25070 0.60937 0.25100 -0.39800
C 	C 	0.21730 0.61060 0.28315 0.33300
C 	C 	0.24930 0.34440 0.28557 0.33000
C 	C 	0.23290 0.41240 0.30541 -0.02400
C 	C 	0.21310 0.53990 0.30417 -0.01700
C 	C 	0.23590 0.47700 0.28558 -0.03100
H 	H 	0.25270 0.47860 0.26040 0.07300
C 	C 	0.20880 0.41090 0.34350 -0.11200
H 	H 	0.20660 0.36760 0.35670 0.11000
C 	C 	0.18820 0.47380 0.36160 0.15300
C 	C 	0.19060 0.53800 0.34159 -0.11800
H 	H 	0.17680 0.58020 0.35380 0.09100
C 	C 	0.07470 0.47160 0.46568 -0.05500
H 	H 	0.05200 0.48020 0.44230 0.04800
C 	C 	0.14250 0.44430 0.46555 -0.03400
O 	O 	0.21920 0.37790 0.42494 -0.21800
C 	C 	0.17910 0.42960 0.42848 0.22400
N 	N 	0.16490 0.47600 0.40028 -0.24700
H 	H 	0.13830 0.51170 0.40650 0.13600
Cu	Cu	0.26199 0.69531 0.77884 0.90800
O 	O 	0.16300 0.68720 0.79801 -0.39900
O 	O 	0.78760 0.73280 0.80359 -0.39300
O 	O 	0.84620 0.77750 0.75242 -0.39200
O 	O 	0.10937 0.75070 0.75100 -0.39800
C 	C 	0.11060 0.71730 0.78315 0.33300
C 	C 	0.84440 0.74930 0.78557 0.33000
C 	C 	0.91240 0.73290 0.80541 -0.02400
C 	C 	0.03990 0.71310 0.80417 -0.01700
C 	C 	0.97700 0.73590 0.78558 -0.03100
H 	H 	0.97860 0.75270 0.76040 0.07300
C 	C 	0.91090 0.70880 0.84350 -0.11200
H 	H 	0.86760 0.70660 0.85670 0.11000
C 	C 	0.97380 0.68820 0.86160 0.15300
C 	C 	0.03800 0.69060 0.84159 -0.11800
H 	H 	0.08020 0.67680 0.85380 0.09100
C 	C 	0.97160 0.57470 0.96568 -0.05300
H 	H 	0.98020 0.55200 0.94230 0.04700
C 	C 	0.94430 0.64250 0.96555 -0.03200
O 	O 	0.87790 0.71920 0.92494 -0.21800
C 	C 	0.92960 0.67910 0.92848 0.22300
N 	N 	0.97600 0.66490 0.90028 -0.24700
H 	H 	0.01170 0.63830 0.90650 0.13600
Cu	Cu	0.73801 0.30469 0.77884 0.90800
O 	O 	0.83700 0.31280 0.79801 -0.39900
O 	O 	0.21240 0.26720 0.80359 -0.39300
O 	O 	0.15380 0.22250 0.75242 -0.39200
O 	O 	0.89063 0.24930 0.75100 -0.39800
C 	C 	0.88940 0.28270 0.78315 0.33300
C 	C 	0.15560 0.25070 0.78557 0.33000
C 	C 	0.08760 0.26710 0.80541 -0.02400
C 	C 	0.96010 0.28690 0.80417 -0.01700
C 	C 	0.02300 0.26410 0.78558 -0.03100
H 	H 	0.02140 0.24730 0.76040 0.07300
C 	C 	0.08910 0.29120 0.84350 -0.11200
H 	H 	0.13240 0.29340 0.85670 0.11000
C 	C 	0.02620 0.31180 0.86160 0.15300
C 	C 	0.96200 0.30940 0.84159 -0.11800
H 	H 	0.91980 0.32320 0.85380 0.09100
C 	C 	0.02840 0.42530 0.96568 -0.05300
H 	H 	0.01980 0.44800 0.94230 0.04700
C 	C 	0.05570 0.35750 0.96555 -0.03200
O 	O 	0.12210 0.28080 0.92494 -0.21800
C 	C 	0.07040 0.32090 0.92848 0.22300
N 	N 	0.02400 0.33510 0.90028 -0.24700
H 	H 	0.98830 0.36170 0.90650 0.13600
Cu	Cu	0.30469 0.26199 0.77884 0.90800
O 	O 	0.31280 0.16300 0.79801 -0.39900
O 	O 	0.26720 0.78760 0.80359 -0.39300
O 	O 	0.22250 0.84620 0.75242 -0.39200
O 	O 	0.24930 0.10937 0.75100 -0.39800
C 	C 	0.28270 0.11060 0.78315 0.33300
C 	C 	0.25070 0.84440 0.78557 0.33000
C 	C 	0.26710 0.91240 0.80541 -0.02400
C 	C 	0.28690 0.03990 0.80417 -0.01700
C 	C 	0.26410 0.97700 0.78558 -0.03100
H 	H 	0.24730 0.97860 0.76040 0.07300
C 	C 	0.29120 0.91090 0.84350 -0.11200
H 	H 	0.29340 0.86760 0.85670 0.11000
C 	C 	0.31180 0.97380 0.86160 0.15300
C 	C 	0.30940 0.03800 0.84159 -0.11800
H 	H 	0.32320 0.08020 0.85380 0.09100
C 	C 	0.42530 0.97160 0.96568 -0.05300
H 	H 	0.44800 0.98020 0.94230 0.04700
C 	C 	0.35750 0.94430 0.96555 -0.03200
O 	O 	0.28080 0.87790 0.92494 -0.21800
C 	C 	0.32090 0.92960 0.92848 0.22300
N 	N 	0.33510 0.97600 0.90028 -0.24700
H 	H 	0.36170 0.01170 0.90650 0.13600
Cu	Cu	0.69531 0.73801 0.77884 0.90800
O 	O 	0.68720 0.83700 0.79801 -0.39900
O 	O 	0.73280 0.21240 0.80359 -0.39300
O 	O 	0.77750 0.15380 0.75242 -0.39200
O 	O 	0.75070 0.89063 0.75100 -0.39800
C 	C 	0.71730 0.88940 0.78315 0.33300
C 	C 	0.74930 0.15560 0.78557 0.33000
C 	C 	0.73290 0.08760 0.80541 -0.02400
C 	C 	0.71310 0.96010 0.80417 -0.01700
C 	C 	0.73590 0.02300 0.78558 -0.03100
H 	H 	0.75270 0.02140 0.76040 0.07300
C 	C 	0.70880 0.08910 0.84350 -0.11200
H 	H 	0.70660 0.13240 0.85670 0.11000
C 	C 	0.68820 0.02620 0.86160 0.15300
C 	C 	0.69060 0.96200 0.84159 -0.11800
H 	H 	0.67680 0.91980 0.85380 0.09100
C 	C 	0.57470 0.02840 0.96568 -0.05300
H 	H 	0.55200 0.01980 0.94230 0.04700
C 	C 	0.64250 0.05570 0.96555 -0.03200
O 	O 	0.71920 0.12210 0.92494 -0.21800
C 	C 	0.67910 0.07040 0.92848 0.22300
N 	N 	0.66490 0.02400 0.90028 -0.24700
H 	H 	0.63830 0.98830 0.90650 0.13600
Cu	Cu	0.23801 0.19531 0.72116 0.90800
O 	O 	0.33700 0.18720 0.70199 -0.39900
O 	O 	0.71240 0.23280 0.69641 -0.39400
O 	O 	0.65380 0.27750 0.74758 -0.39200
O 	O 	0.39063 0.25070 0.74900 -0.39800
C 	C 	0.38940 0.21730 0.71685 0.33300
C 	C 	0.65560 0.24930 0.71443 0.33000
C 	C 	0.58760 0.23290 0.69459 -0.02400
C 	C 	0.46010 0.21310 0.69583 -0.01700
C 	C 	0.52300 0.23590 0.71442 -0.03100
H 	H 	0.52140 0.25270 0.73960 0.07300
C 	C 	0.58910 0.20880 0.65650 -0.11200
H 	H 	0.63240 0.20660 0.64330 0.11000
C 	C 	0.52620 0.18820 0.63840 0.15300
C 	C 	0.46200 0.19060 0.65841 -0.11800
H 	H 	0.41980 0.17680 0.64620 0.09100
C 	C 	0.52840 0.07470 0.53432 -0.05500
H 	H 	0.51980 0.05200 0.55770 0.04800
C 	C 	0.55570 0.14250 0.53445 -0.03400
O 	O 	0.62210 0.21920 0.57506 -0.21800
C 	C 	0.57040 0.17910 0.57152 0.22400
N 	N 	0.52400 0.16490 0.59972 -0.24700
H 	H 	0.48830 0.13830 0.59350 0.13600
Cu	Cu	0.76199 0.80469 0.72116 0.90800
O 	O 	0.66300 0.81280 0.70199 -0.39900
O 	O 	0.28760 0.76720 0.69641 -0.39400
O 	O 	0.34620 0.72250 0.74758 -0.39200
O 	O 	0.60937 0.74930 0.74900 -0.39800
C 	C 	0.61060 0.78270 0.71685 0.33300
C 	C 	0.34440 0.75070 0.71443 0.33000
C 	C 	0.41240 0.76710 0.69459 -0.02400
C 	C 	0.53990 0.78690 0.69583 -0.01700
C 	C 	0.47700 0.76410 0.71442 -0.03100
H 	H 	0.47860 0.74730 0.73960 0.07300
C 	C 	0.41090 0.79120 0.65650 -0.11200
H 	H 	0.36760 0.79340 0.64330 0.11000
C 	C 	0.47380 0.81180 0.63840 0.15300
C 	C 	0.53800 0.80940 0.65841 -0.11800
H 	H 	0.58020 0.82320 0.64620 0.09100
C 	C 	0.47160 0.92530 0.53432 -0.05500
H 	H 	0.48020 0.94800 0.55770 0.04800
C 	C 	0.44430 0.85750 0.53445 -0.03400
O 	O 	0.37790 0.78080 0.57506 -0.21800
C 	C 	0.42960 0.82090 0.57152 0.22400
N 	N 	0.47600 0.83510 0.59972 -0.24700
H 	H 	0.51170 0.86170 0.59350 0.13600
Cu	Cu	0.19531 0.76199 0.72116 0.90800
O 	O 	0.18720 0.66300 0.70199 -0.39900
O 	O 	0.23280 0.28760 0.69641 -0.39400
O 	O 	0.27750 0.34620 0.74758 -0.39200
O 	O 	0.25070 0.60937 0.74900 -0.39800
C 	C 	0.21730 0.61060 0.71685 0.33300
C 	C 	0.24930 0.34440 0.71443 0.33000
C 	C 	0.23290 0.41240 0.69459 -0.02400
C 	C 	0.21310 0.53990 0.69583 -0.01700
C 	C 	0.23590 0.47700 0.71442 -0.03100
H 	H 	0.25270 0.47860 0.73960 0.07300
C 	C 	0.20880 0.41090 0.65650 -0.11200
H 	H 	0.20660 0.36760 0.64330 0.11000
C 	C 	0.18820 0.47380 0.63840 0.15300
C 	C 	0.19060 0.53800 0.65841 -0.11800
H 	H 	0.17680 0.58020 0.64620 0.09100
C 	C 	0.07470 0.47160 0.53432 -0.05500
H 	H 	0.05200 0.48020 0.55770 0.04800
C 	C 	0.14250 0.44430 0.53445 -0.03400
O 	O 	0.21920 0.37790 0.57506 -0.21800
C 	C 	0.17910 0.42960 0.57152 0.22400
N 	N 	0.16490 0.47600 0.59972 -0.24700
H 	H 	0.13830 0.51170 0.59350 0.13600
Cu	Cu	0.80469 0.23801 0.72116 0.90800
O 	O 	0.81280 0.33700 0.70199 -0.39900
O 	O 	0.76720 0.71240 0.69641 -0.39400
O 	O 	0.72250 0.65380 0.74758 -0.39200
O 	O 	0.74930 0.39063 0.74900 -0.39800
C 	C 	0.78270 0.38940 0.71685 0.33300
C 	C 	0.75070 0.65560 0.71443 0.33000
C 	C 	0.76710 0.58760 0.69459 -0.02400
C 	C 	0.78690 0.46010 0.69583 -0.01700
C 	C 	0.76410 0.52300 0.71442 -0.03100
H 	H 	0.74730 0.52140 0.73960 0.07300
C 	C 	0.79120 0.58910 0.65650 -0.11200
H 	H 	0.79340 0.63240 0.64330 0.11000
C 	C 	0.81180 0.52620 0.63840 0.15300
C 	C 	0.80940 0.46200 0.65841 -0.11800
H 	H 	0.82320 0.41980 0.64620 0.09100
C 	C 	0.92530 0.52840 0.53432 -0.05500
H 	H 	0.94800 0.51980 0.55770 0.04800
C 	C 	0.85750 0.55570 0.53445 -0.03400
O 	O 	0.78080 0.62210 0.57506 -0.21800
C 	C 	0.82090 0.57040 0.57152 0.22400
N 	N 	0.83510 0.52400 0.59972 -0.24700
H 	H 	0.86170 0.48830 0.59350 0.13600
C 	C 	0.01280 0.46190 -0.00000 0.01700
C 	C 	0.07260 0.32460 -0.00000 -0.02600
H 	H 	0.09540 0.28040 -0.00000 0.07000
C 	C 	0.98720 0.53810 -0.00000 0.01700
C 	C 	0.92740 0.67540 -0.00000 -0.02600
H 	H 	0.90460 0.71960 -0.00000 0.07000
C 	C 	0.53810 0.01280 -0.00000 0.01700
C 	C 	0.67540 0.07260 -0.00000 -0.02600
H 	H 	0.71960 0.09540 -0.00000 0.07000
C 	C 	0.46190 0.98720 -0.00000 0.01700
C 	C 	0.32460 0.92740 -0.00000 -0.02600
H 	H 	0.28040 0.90460 -0.00000 0.07000
C 	C 	0.48720 0.96190 0.50000 0.01800
C 	C 	0.42740 0.82460 0.50000 -0.02300
H 	H 	0.40460 0.78040 0.50000 0.07000
C 	C 	0.51280 0.03810 0.50000 0.01800
C 	C 	0.57260 0.17540 0.50000 -0.02300
H 	H 	0.59540 0.21960 0.50000 0.07000
C 	C 	0.96190 0.51280 0.50000 0.01800
C 	C 	0.82460 0.57260 0.50000 -0.02300
H 	H 	0.78040 0.59540 0.50000 0.07000
C 	C 	0.03810 0.48720 0.50000 0.01800
C 	C 	0.17540 0.42740 0.50000 -0.02300
H 	H 	0.21960 0.40460 0.50000 0.07000
