data_crystal

_cell_length_a 15.16060
_cell_length_b 15.16060
_cell_length_c 12.04740
_cell_angle_alpha 90.00000
_cell_angle_beta  90.00000
_cell_angle_gamma 90.00000

_symmetry_space_group_name_	'P 1'
_symmetry_space_group_name_H-M	'P 1'

loop_
_symmetry_equiv_pos_as_xyz
  x,y,z

loop_
_atom_site_label
_atom_site_type_symbol
_atom_site_fract_x
_atom_site_fract_y
_atom_site_fract_z
_atom_site_charge
O 	O 	0.61900 0.38130 0.60780 -0.52300
O 	O 	0.59680 0.28830 0.74700 -0.50900
C 	C 	0.58820 0.36320 0.70240 0.44100
C 	C 	0.54092 0.43124 0.76250 -0.12600
C 	C 	0.54092 0.43124 0.87880 -0.01000
H 	H 	0.57130 0.38020 0.92190 0.06200
O 	O 	0.11900 0.88130 0.10780 -0.54600
O 	O 	0.09680 0.78830 0.24700 -0.51900
C 	C 	0.08820 0.86320 0.20240 0.45000
C 	C 	0.04092 0.93124 0.26250 -0.14300
C 	C 	0.04092 0.93124 0.37880 0.05600
H 	H 	0.07130 0.88020 0.42190 0.02200
O 	O 	0.88100 0.11870 0.10780 -0.55000
O 	O 	0.90320 0.21170 0.24700 -0.51900
C 	C 	0.91180 0.13680 0.20240 0.45100
C 	C 	0.95908 0.06876 0.26250 -0.15300
C 	C 	0.95908 0.06876 0.37880 0.04600
H 	H 	0.92870 0.11980 0.42190 0.02300
O 	O 	0.38100 0.61870 0.60780 -0.52300
O 	O 	0.40320 0.71170 0.74700 -0.50500
C 	C 	0.41180 0.63680 0.70240 0.44200
C 	C 	0.45908 0.56876 0.76250 -0.12500
C 	C 	0.45908 0.56876 0.87880 -0.00900
H 	H 	0.42870 0.61980 0.92190 0.06400
O 	O 	0.61870 0.11900 0.85780 -0.55600
O 	O 	0.71170 0.09680 0.99700 -0.50700
C 	C 	0.63680 0.08820 0.95240 0.60700
C 	C 	0.56876 0.04092 0.01250 -0.44500
C 	C 	0.56876 0.04092 0.12880 0.17100
H 	H 	0.61980 0.07130 0.17190 -0.02500
O 	O 	0.11870 0.61900 0.35780 -0.53200
O 	O 	0.21170 0.59680 0.49700 -0.51800
C 	C 	0.13680 0.58820 0.45240 0.45400
C 	C 	0.06876 0.54092 0.51250 -0.16500
C 	C 	0.06876 0.54092 0.62880 0.05500
H 	H 	0.11980 0.57130 0.67190 0.02100
O 	O 	0.88130 0.38100 0.35780 -0.52900
O 	O 	0.78830 0.40320 0.49700 -0.51600
C 	C 	0.86320 0.41180 0.45240 0.45300
C 	C 	0.93124 0.45908 0.51250 -0.15700
C 	C 	0.93124 0.45908 0.62880 0.06400
H 	H 	0.88020 0.42870 0.67190 0.02100
O 	O 	0.38130 0.88100 0.85780 -0.54900
O 	O 	0.28830 0.90320 0.99700 -0.50200
C 	C 	0.36320 0.91180 0.95240 0.60800
C 	C 	0.43124 0.95908 0.01250 -0.43000
C 	C 	0.43124 0.95908 0.12880 0.19000
H 	H 	0.38020 0.92870 0.17190 -0.02600
O 	O 	0.88100 0.38130 0.14220 -0.49200
O 	O 	0.90320 0.28830 0.00300 -0.51400
C 	C 	0.91180 0.36320 0.04760 0.28500
C 	C 	0.95908 0.43124 0.98750 0.15500
C 	C 	0.95908 0.43124 0.87120 -0.10000
H 	H 	0.92870 0.38020 0.82810 0.07600
O 	O 	0.38100 0.88130 0.64220 -0.51400
O 	O 	0.40320 0.78830 0.50300 -0.51200
C 	C 	0.41180 0.86320 0.54760 0.44100
C 	C 	0.45908 0.93124 0.48750 -0.12000
C 	C 	0.45908 0.93124 0.37120 0.02900
H 	H 	0.42870 0.88020 0.32810 0.02900
O 	O 	0.61900 0.11870 0.64220 -0.52200
O 	O 	0.59680 0.21170 0.50300 -0.51500
C 	C 	0.58820 0.13680 0.54760 0.44300
C 	C 	0.54092 0.06876 0.48750 -0.13900
C 	C 	0.54092 0.06876 0.37120 0.01000
H 	H 	0.57130 0.11980 0.32810 0.03000
O 	O 	0.11900 0.61870 0.14220 -0.49600
O 	O 	0.09680 0.71170 0.00300 -0.51500
C 	C 	0.08820 0.63680 0.04760 0.28600
C 	C 	0.04092 0.56876 0.98750 0.14600
C 	C 	0.04092 0.56876 0.87120 -0.10800
H 	H 	0.07130 0.61980 0.82810 0.07700
O 	O 	0.88130 0.11900 0.89220 -0.48700
O 	O 	0.78830 0.09680 0.75300 -0.51000
C 	C 	0.86320 0.08820 0.79760 0.43700
C 	C 	0.93124 0.04092 0.73750 -0.12700
C 	C 	0.93124 0.04092 0.62120 0.03500
H 	H 	0.88020 0.07130 0.57810 0.02600
O 	O 	0.38130 0.61900 0.39220 -0.53000
O 	O 	0.28830 0.59680 0.25300 -0.52600
C 	C 	0.36320 0.58820 0.29760 0.46000
C 	C 	0.43124 0.54092 0.23750 -0.18500
C 	C 	0.43124 0.54092 0.12120 0.07500
H 	H 	0.38020 0.57130 0.07810 -0.01100
O 	O 	0.61870 0.38100 0.39220 -0.53000
O 	O 	0.71170 0.40320 0.25300 -0.52500
C 	C 	0.63680 0.41180 0.29760 0.46000
C 	C 	0.56876 0.45908 0.23750 -0.18500
C 	C 	0.56876 0.45908 0.12120 0.07500
H 	H 	0.61980 0.42870 0.07810 -0.01000
O 	O 	0.11870 0.88100 0.89220 -0.48300
O 	O 	0.21170 0.90320 0.75300 -0.50500
C 	C 	0.13680 0.91180 0.79760 0.43600
C 	C 	0.06876 0.95908 0.73750 -0.11500
C 	C 	0.06876 0.95908 0.62120 0.04600
H 	H 	0.11980 0.92870 0.57810 0.02600
V 	V 	0.68671 0.31329 0.50000 1.78900
V 	V 	0.18671 0.81329 -0.00000 1.75800
V 	V 	0.81329 0.18671 -0.00000 1.75800
V 	V 	0.31329 0.68671 0.50000 1.78900
V 	V 	0.68671 0.18671 0.75000 1.79000
V 	V 	0.18671 0.68671 0.25000 1.78800
V 	V 	0.81329 0.31329 0.25000 1.78800
V 	V 	0.31329 0.81329 0.75000 1.79100
O 	O 	0.75140 0.25000 0.62500 -0.67600
H 	H 	0.82260 0.25000 0.62500 0.14900
O 	O 	0.25140 0.75000 0.12500 -0.68700
H 	H 	0.32260 0.75000 0.12500 0.13500
O 	O 	0.74860 0.25000 0.12500 -0.68700
H 	H 	0.67740 0.25000 0.12500 0.13400
O 	O 	0.24860 0.75000 0.62500 -0.67500
H 	H 	0.17740 0.75000 0.62500 0.14900
O 	O 	0.75000 0.25140 0.87500 -0.65400
H 	H 	0.75000 0.32260 0.87500 0.16200
O 	O 	0.25000 0.75140 0.37500 -0.67600
H 	H 	0.25000 0.82260 0.37500 0.14900
O 	O 	0.75000 0.24860 0.37500 -0.67600
H 	H 	0.75000 0.17740 0.37500 0.14700
O 	O 	0.25000 0.74860 0.87500 -0.65400
H 	H 	0.25000 0.67740 0.87500 0.16200
C 	C 	0.50000 0.50000 0.70440 0.07700
C 	C 	0.50000 0.50000 0.93690 0.09800
H 	H 	0.50000 0.50000 0.61810 0.04700
C 	C 	0.00000 0.00000 0.20440 0.06100
C 	C 	0.00000 0.00000 0.43690 -0.05400
H 	H 	0.00000 0.00000 0.11810 0.02300
C 	C 	0.50000 0.00000 0.95440 0.40900
C 	C 	0.50000 0.00000 0.18690 -0.15100
H 	H 	0.50000 0.00000 0.86810 -0.04200
C 	C 	0.00000 0.50000 0.45440 0.09400
C 	C 	-0.00000 0.50000 0.68690 -0.06900
H 	H 	-0.00000 0.50000 0.36810 0.03300
C 	C 	-0.00000 0.50000 0.04560 -0.26000
C 	C 	-0.00000 0.50000 0.81310 0.08400
H 	H 	0.00000 0.50000 0.13190 0.12400
C 	C 	0.50000 0.00000 0.54560 0.05700
C 	C 	0.50000 0.00000 0.31310 -0.00100
H 	H 	0.50000 0.00000 0.63190 0.04900
C 	C 	-0.00000 0.00000 0.79560 0.04700
C 	C 	0.00000 0.00000 0.56310 -0.04300
H 	H 	0.00000 0.00000 0.88190 0.06200
C 	C 	0.50000 0.50000 0.29560 0.11700
C 	C 	0.50000 0.50000 0.06310 -0.14000
H 	H 	0.50000 0.50000 0.38190 0.03400
