data_crystal

_cell_length_a 15.16580
_cell_length_b 15.16580
_cell_length_c 12.05680
_cell_angle_alpha 90.00000
_cell_angle_beta  90.00000
_cell_angle_gamma 90.00000

_symmetry_space_group_name_	'P 1'
_symmetry_space_group_name_H-M	'P 1'

loop_
_symmetry_equiv_pos_as_xyz
  x,y,z

loop_
_atom_site_label
_atom_site_type_symbol
_atom_site_fract_x
_atom_site_fract_y
_atom_site_fract_z
_atom_site_charge
O 	O 	0.61950 0.38140 0.60820 -0.45500
O 	O 	0.59690 0.28850 0.74690 -0.49500
C 	C 	0.58870 0.36310 0.70240 0.41200
C 	C 	0.54138 0.43165 0.76280 -0.10900
C 	C 	0.54138 0.43165 0.87890 -0.01600
H 	H 	0.57240 0.38040 0.92240 0.06200
O 	O 	0.11950 0.88140 0.10820 -0.48000
O 	O 	0.09690 0.78850 0.24690 -0.50700
C 	C 	0.08870 0.86310 0.20240 0.42100
C 	C 	0.04138 0.93165 0.26280 -0.12600
C 	C 	0.04138 0.93165 0.37890 0.04900
H 	H 	0.07240 0.88040 0.42240 0.02100
O 	O 	0.88050 0.11860 0.10820 -0.48500
O 	O 	0.90310 0.21150 0.24690 -0.50700
C 	C 	0.91130 0.13690 0.20240 0.42200
C 	C 	0.95862 0.06835 0.26280 -0.13600
C 	C 	0.95862 0.06835 0.37890 0.03800
H 	H 	0.92760 0.11960 0.42240 0.02200
O 	O 	0.38050 0.61860 0.60820 -0.45600
O 	O 	0.40310 0.71150 0.74690 -0.49300
C 	C 	0.41130 0.63690 0.70240 0.41200
C 	C 	0.45862 0.56835 0.76280 -0.10800
C 	C 	0.45862 0.56835 0.87890 -0.01600
H 	H 	0.42760 0.61960 0.92240 0.06300
O 	O 	0.61860 0.11950 0.85820 -0.48900
O 	O 	0.71150 0.09690 0.99690 -0.49400
C 	C 	0.63690 0.08870 0.95240 0.57500
C 	C 	0.56835 0.04138 0.01280 -0.42600
C 	C 	0.56835 0.04138 0.12890 0.16100
H 	H 	0.61960 0.07240 0.17240 -0.02400
O 	O 	0.11860 0.61950 0.35820 -0.46500
O 	O 	0.21150 0.59690 0.49690 -0.50500
C 	C 	0.13690 0.58870 0.45240 0.42400
C 	C 	0.06835 0.54138 0.51280 -0.14800
C 	C 	0.06835 0.54138 0.62890 0.04700
H 	H 	0.11960 0.57240 0.67240 0.02000
O 	O 	0.88140 0.38050 0.35820 -0.46300
O 	O 	0.78850 0.40310 0.49690 -0.50300
C 	C 	0.86310 0.41130 0.45240 0.42400
C 	C 	0.93165 0.45862 0.51280 -0.14000
C 	C 	0.93165 0.45862 0.62890 0.05600
H 	H 	0.88040 0.42760 0.67240 0.02000
O 	O 	0.38140 0.88050 0.85820 -0.48200
O 	O 	0.28850 0.90310 0.99690 -0.48900
C 	C 	0.36310 0.91130 0.95240 0.57600
C 	C 	0.43165 0.95862 0.01280 -0.41100
C 	C 	0.43165 0.95862 0.12890 0.18000
H 	H 	0.38040 0.92760 0.17240 -0.02500
O 	O 	0.88050 0.38140 0.14180 -0.42600
O 	O 	0.90310 0.28850 0.00310 -0.50200
C 	C 	0.91130 0.36310 0.04760 0.25700
C 	C 	0.95862 0.43165 0.98720 0.16900
C 	C 	0.95862 0.43165 0.87110 -0.10500
H 	H 	0.92760 0.38040 0.82760 0.07400
O 	O 	0.38050 0.88140 0.64180 -0.44800
O 	O 	0.40310 0.78850 0.50310 -0.50000
C 	C 	0.41130 0.86310 0.54760 0.41200
C 	C 	0.45862 0.93165 0.48720 -0.10400
C 	C 	0.45862 0.93165 0.37110 0.02200
H 	H 	0.42760 0.88040 0.32760 0.02800
O 	O 	0.61950 0.11860 0.64180 -0.45600
O 	O 	0.59690 0.21150 0.50310 -0.50300
C 	C 	0.58870 0.13690 0.54760 0.41400
C 	C 	0.54138 0.06835 0.48720 -0.12200
C 	C 	0.54138 0.06835 0.37110 0.00300
H 	H 	0.57240 0.11960 0.32760 0.02900
O 	O 	0.11950 0.61860 0.14180 -0.43000
O 	O 	0.09690 0.71150 0.00310 -0.50300
C 	C 	0.08870 0.63690 0.04760 0.25900
C 	C 	0.04138 0.56835 0.98720 0.16100
C 	C 	0.04138 0.56835 0.87110 -0.11300
H 	H 	0.07240 0.61960 0.82760 0.07500
O 	O 	0.88140 0.11950 0.89180 -0.42200
O 	O 	0.78850 0.09690 0.75310 -0.49700
C 	C 	0.86310 0.08870 0.79760 0.40800
C 	C 	0.93165 0.04138 0.73720 -0.11000
C 	C 	0.93165 0.04138 0.62110 0.02700
H 	H 	0.88040 0.07240 0.57760 0.02500
O 	O 	0.38140 0.61950 0.39180 -0.46300
O 	O 	0.28850 0.59690 0.25310 -0.51400
C 	C 	0.36310 0.58870 0.29760 0.43000
C 	C 	0.43165 0.54138 0.23720 -0.16700
C 	C 	0.43165 0.54138 0.12110 0.06700
H 	H 	0.38040 0.57240 0.07760 -0.01200
O 	O 	0.61860 0.38050 0.39180 -0.46400
O 	O 	0.71150 0.40310 0.25310 -0.51200
C 	C 	0.63690 0.41130 0.29760 0.43000
C 	C 	0.56835 0.45862 0.23720 -0.16700
C 	C 	0.56835 0.45862 0.12110 0.06700
H 	H 	0.61960 0.42760 0.07760 -0.01100
O 	O 	0.11860 0.88050 0.89180 -0.41800
O 	O 	0.21150 0.90310 0.75310 -0.49300
C 	C 	0.13690 0.91130 0.79760 0.40700
C 	C 	0.06835 0.95862 0.73720 -0.09900
C 	C 	0.06835 0.95862 0.62110 0.03900
H 	H 	0.11960 0.92760 0.57760 0.02500
V 	V 	0.69800 0.30200 0.50000 1.79000
V 	V 	0.19800 0.80200 -0.00000 1.75800
V 	V 	0.80200 0.19800 -0.00000 1.75800
V 	V 	0.30200 0.69800 0.50000 1.79000
V 	V 	0.69800 0.19800 0.75000 1.79100
V 	V 	0.19800 0.69800 0.25000 1.78900
V 	V 	0.80200 0.30200 0.25000 1.78900
V 	V 	0.30200 0.80200 0.75000 1.79100
O 	O 	0.75090 0.25000 0.62500 -0.78800
H 	H 	0.82180 0.25000 0.62500 0.14600
O 	O 	0.25090 0.75000 0.12500 -0.79800
H 	H 	0.32180 0.75000 0.12500 0.13100
O 	O 	0.74910 0.25000 0.12500 -0.79800
H 	H 	0.67820 0.25000 0.12500 0.13100
O 	O 	0.24910 0.75000 0.62500 -0.78700
H 	H 	0.17820 0.75000 0.62500 0.14600
O 	O 	0.75000 0.25090 0.87500 -0.76500
H 	H 	0.75000 0.32180 0.87500 0.15900
O 	O 	0.25000 0.75090 0.37500 -0.78800
H 	H 	0.25000 0.82180 0.37500 0.14500
O 	O 	0.75000 0.24910 0.37500 -0.78800
H 	H 	0.75000 0.17820 0.37500 0.14300
O 	O 	0.25000 0.74910 0.87500 -0.76500
H 	H 	0.25000 0.67820 0.87500 0.15800
C 	C 	0.50000 0.50000 0.70480 0.06500
C 	C 	0.50000 0.50000 0.93690 0.10200
H 	H 	0.50000 0.50000 0.61770 0.05300
C 	C 	-0.00000 0.00000 0.20480 0.04900
C 	C 	0.00000 0.00000 0.43690 -0.05000
H 	H 	0.00000 0.00000 0.11770 0.02900
C 	C 	0.50000 0.00000 0.95480 0.39400
C 	C 	0.50000 0.00000 0.18690 -0.14600
H 	H 	0.50000 0.00000 0.86770 -0.03200
C 	C 	-0.00000 0.50000 0.45480 0.08200
C 	C 	0.00000 0.50000 0.68690 -0.06400
H 	H 	0.00000 0.50000 0.36770 0.04000
C 	C 	-0.00000 0.50000 0.04520 -0.26900
C 	C 	0.00000 0.50000 0.81310 0.08600
H 	H 	-0.00000 0.50000 0.13230 0.12800
C 	C 	0.50000 0.00000 0.54520 0.04600
C 	C 	0.50000 0.00000 0.31310 0.00200
H 	H 	0.50000 0.00000 0.63230 0.05500
C 	C 	0.00000 0.00000 0.79520 0.03600
C 	C 	0.00000 0.00000 0.56310 -0.03900
H 	H 	0.00000 0.00000 0.88230 0.06800
C 	C 	0.50000 0.50000 0.29520 0.10300
C 	C 	0.50000 0.50000 0.06310 -0.13600
H 	H 	0.50000 0.50000 0.38230 0.04100
