data_crystal

_cell_length_a 14.82090
_cell_length_b 19.15080
_cell_length_c 31.35400
_cell_angle_alpha 101.86500
_cell_angle_beta  90.00000
_cell_angle_gamma 112.76500

_symmetry_space_group_name_	'P 1'
_symmetry_space_group_name_H-M	'P 1'

loop_
_symmetry_equiv_pos_as_xyz
  x,y,z

loop_
_atom_site_label
_atom_site_type_symbol
_atom_site_fract_x
_atom_site_fract_y
_atom_site_fract_z
_atom_site_charge
Zn	Zn	0.71704 0.24552 0.56034 1.16500
Zn	Zn	0.18737 0.65844 0.73121 1.16400
Zn	Zn	0.03653 0.82820 0.91020 1.16400
Zn	Zn	0.52848 0.24552 0.06034 1.16400
Zn	Zn	0.47107 0.65844 0.23121 1.16300
Zn	Zn	0.79167 0.82820 0.41020 1.16400
H 	H 	0.61080 0.14160 0.61740 -0.01800
H 	H 	0.47880 0.03240 0.61750 0.08800
H 	H 	0.38320 0.04280 0.50000 0.08200
H 	H 	0.53040 0.14800 0.50110 -0.01200
H 	H 	0.57290 0.31780 0.57600 0.00100
H 	H 	0.54620 0.41820 0.62320 0.08500
H 	H 	0.79740 0.46200 0.69410 0.09400
H 	H 	0.81730 0.36220 0.64430 -0.00700
H 	H 	0.39630 0.51120 0.67210 0.08100
H 	H 	0.25490 0.53520 0.67990 -0.01200
H 	H 	0.39040 0.72460 0.76910 -0.01700
H 	H 	0.53680 0.70520 0.76580 0.08200
H 	H 	0.08060 0.65140 0.64630 -0.00900
H 	H 	0.09680 0.72780 0.59540 0.08800
H 	H 	0.34370 0.88780 0.66390 0.08800
H 	H 	0.32120 0.80600 0.71280 -0.02600
H 	H 	0.72420 0.73180 0.81600 0.09300
H 	H 	0.84190 0.80260 0.87460 -0.00300
H 	H 	0.99610 0.67760 0.83930 -0.00900
H 	H 	0.88190 0.60120 0.78080 0.08100
H 	H 	0.84890 0.75940 0.47610 -0.01100
H 	H 	0.98180 0.77620 0.52310 0.08100
H 	H 	0.13410 0.97580 0.48490 0.07200
H 	H 	0.99580 0.95440 0.44080 -0.01200
H 	H 	0.53080 0.14160 0.11740 -0.01800
H 	H 	0.55360 0.03240 0.11750 0.08700
H 	H 	0.65960 0.04280 -0.00000 0.08000
H 	H 	0.61760 0.14800 0.00110 -0.01300
H 	H 	0.74490 0.31780 0.07600 0.00100
H 	H 	0.87200 0.41820 0.12320 0.08500
H 	H 	0.66460 0.46200 0.19410 0.09400
H 	H 	0.54490 0.36220 0.14430 -0.00700
H 	H 	0.11490 0.51120 0.17210 0.08100
H 	H 	0.28030 0.53520 0.17990 -0.01200
H 	H 	0.33420 0.72460 0.26910 -0.01700
H 	H 	0.16840 0.70520 0.26580 0.08200
H 	H 	0.57080 0.65140 0.14630 -0.00900
H 	H 	0.63100 0.72780 0.09540 0.08800
H 	H 	0.54410 0.88780 0.16390 0.08800
H 	H 	0.48480 0.80600 0.21280 -0.02600
H 	H 	0.00760 0.73180 0.31600 0.09200
H 	H 	0.96070 0.80260 0.37460 -0.00300
H 	H 	0.68150 0.67760 0.33930 -0.00900
H 	H 	0.71930 0.60120 0.28080 0.08100
H 	H 	0.91050 0.75940 0.97610 -0.01100
H 	H 	0.79440 0.77620 0.02310 0.08100
H 	H 	0.84170 0.97580 0.98490 0.07200
H 	H 	0.95860 0.95440 0.94080 -0.01100
C 	C 	0.56550 0.11840 0.59210 0.08500
C 	C 	0.48610 0.05580 0.59310 -0.13200
C 	C 	0.41260 0.02420 0.55820 0.06000
C 	C 	0.43080 0.06060 0.52440 -0.13700
C 	C 	0.51920 0.12400 0.52540 0.09400
C 	C 	0.61910 0.34800 0.60040 0.06800
C 	C 	0.60230 0.40760 0.62840 -0.11500
C 	C 	0.66970 0.45080 0.66400 0.05000
C 	C 	0.75010 0.43320 0.66980 -0.12900
C 	C 	0.76130 0.37340 0.64010 0.07900
C 	C 	0.65710 0.51440 0.69580 0.08800
C 	C 	0.57120 0.58700 0.71980 0.10500
C 	C 	0.71710 0.61360 0.75470 0.10200
C 	C 	0.48130 0.60260 0.71860 0.05800
C 	C 	0.39750 0.55520 0.69300 -0.12400
C 	C 	0.31360 0.57080 0.69720 0.07700
C 	C 	0.39190 0.68040 0.74910 0.06900
C 	C 	0.47960 0.66900 0.74760 -0.11600
C 	C 	0.13530 0.69980 0.64990 0.07100
C 	C 	0.14440 0.74560 0.61970 -0.12500
C 	C 	0.28900 0.83940 0.65950 -0.13200
C 	C 	0.27440 0.78940 0.68830 0.09400
C 	C 	0.79180 0.65820 0.79200 0.05900
C 	C 	0.77910 0.71920 0.82020 -0.11800
C 	C 	0.85040 0.76120 0.85490 0.07300
C 	C 	0.94010 0.68860 0.83470 0.06800
C 	C 	0.87240 0.64300 0.79960 -0.12700
C 	C 	0.90800 0.80440 0.47840 0.06500
C 	C 	0.98660 0.81320 0.50640 -0.11600
C 	C 	0.07100 0.87780 0.50860 0.05400
C 	C 	0.07560 0.93100 0.48380 -0.12300
C 	C 	0.99310 0.91760 0.45750 0.08000
C 	C 	0.16040 0.89040 0.53780 0.09900
C 	C 	0.22990 0.86380 0.59210 0.11000
C 	C 	0.31970 0.95780 0.55990 0.09200
C 	C 	0.21900 0.81400 0.62440 0.07400
C 	C 	0.55290 0.11840 0.09210 0.08400
C 	C 	0.56970 0.05580 0.09310 -0.13100
C 	C 	0.61160 0.02420 0.05820 0.05800
C 	C 	0.62980 0.06060 0.02440 -0.13600
C 	C 	0.60480 0.12400 0.02540 0.09400
C 	C 	0.72890 0.34800 0.10040 0.06700
C 	C 	0.80530 0.40760 0.12840 -0.11500
C 	C 	0.78110 0.45080 0.16400 0.05000
C 	C 	0.68310 0.43320 0.16980 -0.12900
C 	C 	0.61210 0.37340 0.14010 0.07900
C 	C 	0.85730 0.51440 0.19580 0.08800
C 	C 	0.01580 0.58700 0.21980 0.10500
C 	C 	0.89650 0.61360 0.25470 0.10200
C 	C 	0.12130 0.60260 0.21860 0.05800
C 	C 	0.15770 0.55520 0.19300 -0.12400
C 	C 	0.25720 0.57080 0.19720 0.07700
C 	C 	0.28850 0.68040 0.24910 0.06900
C 	C 	0.18940 0.66900 0.24760 -0.11600
C 	C 	0.56450 0.69980 0.14990 0.07100
C 	C 	0.60120 0.74560 0.11970 -0.12500
C 	C 	0.55040 0.83940 0.15950 -0.13200
C 	C 	0.51500 0.78940 0.18830 0.09400
C 	C 	0.86640 0.65820 0.29200 0.05800
C 	C 	0.94010 0.71920 0.32020 -0.11700
C 	C 	0.91080 0.76120 0.35490 0.07200
C 	C 	0.74850 0.68860 0.33470 0.06800
C 	C 	0.77060 0.64300 0.29960 -0.12700
C 	C 	0.89640 0.80440 0.97840 0.06800
C 	C 	0.82660 0.81320 0.00640 -0.12000
C 	C 	0.80680 0.87780 0.00860 0.05400
C 	C 	0.85540 0.93100 0.98380 -0.11900
C 	C 	0.92450 0.91760 0.95750 0.07800
C 	C 	0.73000 0.89040 0.03780 0.10000
C 	C 	0.63390 0.86380 0.09210 0.11000
C 	C 	0.63810 0.95780 0.05990 0.09400
C 	C 	0.59500 0.81400 0.12440 0.07400
I 	I 	0.72689 0.28530 0.48782 -0.36800
I 	I 	0.84611 0.21324 0.59572 -0.38200
I 	I 	0.21059 0.74662 0.80674 -0.40300
I 	I 	0.03304 0.53604 0.70634 -0.38000
I 	I 	0.11799 0.94444 0.87479 -0.34800
I 	I 	0.11395 0.75674 0.94626 -0.38500
I 	I 	0.55841 0.28530 0.98782 -0.36600
I 	I 	0.36713 0.21324 0.09572 -0.38200
I 	I 	0.53603 0.74662 0.30674 -0.40300
I 	I 	0.50300 0.53604 0.20634 -0.38000
I 	I 	0.82645 0.94444 0.37479 -0.34600
I 	I 	0.64279 0.75674 0.44626 -0.38500
N 	N 	0.58620 0.15140 0.55750 -0.28200
N 	N 	0.69730 0.33180 0.60640 -0.27300
N 	N 	0.72760 0.55360 0.72820 -0.14100
N 	N 	0.64160 0.63420 0.75120 -0.13500
N 	N 	0.57500 0.52740 0.68990 -0.13800
N 	N 	0.92970 0.74800 0.86260 -0.27100
N 	N 	0.31170 0.63320 0.72420 -0.27400
N 	N 	0.20250 0.72280 0.68400 -0.27900
N 	N 	0.91130 0.85600 0.45450 -0.27200
N 	N 	0.14810 0.84680 0.56560 -0.13800
N 	N 	0.31340 0.91880 0.59090 -0.13700
N 	N 	0.24540 0.94580 0.53120 -0.14800
N 	N 	0.56520 0.15140 0.05750 -0.28200
N 	N 	0.63450 0.33180 0.10640 -0.27300
N 	N 	0.82600 0.55360 0.22820 -0.14100
N 	N 	0.99260 0.63420 0.25120 -0.13500
N 	N 	0.95240 0.52740 0.18990 -0.13800
N 	N 	0.81830 0.74800 0.36260 -0.27100
N 	N 	0.32150 0.63320 0.22420 -0.27400
N 	N 	0.52030 0.72280 0.18400 -0.27900
N 	N 	0.94470 0.85600 0.95450 -0.27200
N 	N 	0.69870 0.84680 0.06560 -0.13800
N 	N 	0.60540 0.91880 0.09090 -0.13800
N 	N 	0.70040 0.94580 0.03120 -0.14800
Zn	Zn	0.47152 0.75448 0.93966 1.16500
Zn	Zn	0.52893 0.34156 0.76879 1.16300
Zn	Zn	0.20833 0.17180 0.58980 1.16400
Zn	Zn	0.28296 0.75448 0.43966 1.16400
Zn	Zn	0.81263 0.34156 0.26879 1.16300
Zn	Zn	0.96347 0.17180 0.08980 1.16400
H 	H 	0.46920 0.85840 0.88260 -0.01800
H 	H 	0.44640 0.96760 0.88250 0.08700
H 	H 	0.34040 0.95720 -0.00000 0.07900
H 	H 	0.38240 0.85200 0.99890 -0.01100
H 	H 	0.25510 0.68220 0.92400 0.00100
H 	H 	0.12800 0.58180 0.87680 0.08500
H 	H 	0.33540 0.53800 0.80590 0.09400
H 	H 	0.45510 0.63780 0.85570 -0.00700
H 	H 	0.88510 0.48880 0.82790 0.08100
H 	H 	0.71970 0.46480 0.82010 -0.01200
H 	H 	0.66580 0.27540 0.73090 -0.01700
H 	H 	0.83160 0.29480 0.73420 0.08200
H 	H 	0.42920 0.34860 0.85370 -0.00900
H 	H 	0.36900 0.27220 0.90460 0.08800
H 	H 	0.45590 0.11220 0.83610 0.08800
H 	H 	0.51520 0.19400 0.78720 -0.02600
H 	H 	0.99240 0.26820 0.68400 0.09200
H 	H 	0.03930 0.19740 0.62540 -0.00300
H 	H 	0.31850 0.32240 0.66070 -0.00900
H 	H 	0.28070 0.39880 0.71920 0.08100
H 	H 	0.08950 0.24060 0.02390 -0.01000
H 	H 	0.20560 0.22380 0.97690 0.08100
H 	H 	0.15830 0.02420 0.01510 0.07300
H 	H 	0.04140 0.04560 0.05920 -0.01100
H 	H 	0.38920 0.85840 0.38260 -0.01800
H 	H 	0.52120 0.96760 0.38250 0.08700
H 	H 	0.61680 0.95720 0.50000 0.08200
H 	H 	0.46960 0.85200 0.49890 -0.01200
H 	H 	0.42710 0.68220 0.42400 0.00100
H 	H 	0.45380 0.58180 0.37680 0.08500
H 	H 	0.20260 0.53800 0.30590 0.09400
H 	H 	0.18270 0.63780 0.35570 -0.00700
H 	H 	0.60370 0.48880 0.32790 0.08100
H 	H 	0.74510 0.46480 0.32010 -0.01200
H 	H 	0.60960 0.27540 0.23090 -0.01700
H 	H 	0.46320 0.29480 0.23420 0.08200
H 	H 	0.91940 0.34860 0.35370 -0.00900
H 	H 	0.90320 0.27220 0.40460 0.08800
H 	H 	0.65630 0.11220 0.33610 0.08800
H 	H 	0.67880 0.19400 0.28720 -0.02600
H 	H 	0.27580 0.26820 0.18400 0.09300
H 	H 	0.15810 0.19740 0.12540 -0.00300
H 	H 	0.00390 0.32240 0.16070 -0.00800
H 	H 	0.11810 0.39880 0.21920 0.08100
H 	H 	0.15110 0.24060 0.52390 -0.01100
H 	H 	0.01820 0.22380 0.47690 0.08100
H 	H 	0.86590 0.02420 0.51510 0.07200
H 	H 	0.00420 0.04560 0.55920 -0.01200
C 	C 	0.44710 0.88160 0.90790 0.08400
C 	C 	0.43030 0.94420 0.90690 -0.13000
C 	C 	0.38840 0.97580 0.94180 0.05600
C 	C 	0.37020 0.93940 0.97560 -0.13200
C 	C 	0.39520 0.87600 0.97460 0.09200
C 	C 	0.27110 0.65200 0.89960 0.06800
C 	C 	0.19470 0.59240 0.87160 -0.11500
C 	C 	0.21890 0.54920 0.83600 0.05000
C 	C 	0.31690 0.56680 0.83020 -0.12900
C 	C 	0.38790 0.62660 0.85990 0.07900
C 	C 	0.14270 0.48560 0.80420 0.08800
C 	C 	0.98420 0.41300 0.78020 0.10500
C 	C 	0.10350 0.38640 0.74530 0.10200
C 	C 	0.87870 0.39740 0.78140 0.05900
C 	C 	0.84230 0.44480 0.80700 -0.12400
C 	C 	0.74280 0.42920 0.80280 0.07700
C 	C 	0.71150 0.31960 0.75090 0.06900
C 	C 	0.81060 0.33100 0.75240 -0.11600
C 	C 	0.43550 0.30020 0.85010 0.07200
C 	C 	0.39880 0.25440 0.88030 -0.12500
C 	C 	0.44960 0.16060 0.84050 -0.13200
C 	C 	0.48500 0.21060 0.81170 0.09400
C 	C 	0.13360 0.34180 0.70800 0.05800
C 	C 	0.05990 0.28080 0.67980 -0.11700
C 	C 	0.08920 0.23880 0.64510 0.07200
C 	C 	0.25150 0.31140 0.66530 0.06800
C 	C 	0.22940 0.35700 0.70040 -0.12700
C 	C 	0.10360 0.19560 0.02160 0.06300
C 	C 	0.17340 0.18680 0.99360 -0.11600
C 	C 	0.19320 0.12220 0.99140 0.05700
C 	C 	0.14460 0.06900 0.01620 -0.12300
C 	C 	0.07550 0.08240 0.04250 0.07900
C 	C 	0.27000 0.10960 0.96220 0.10000
C 	C 	0.36610 0.13620 0.90790 0.11000
C 	C 	0.36190 0.04220 0.94010 0.09500
C 	C 	0.40500 0.18600 0.87560 0.07400
C 	C 	0.43450 0.88160 0.40790 0.08500
C 	C 	0.51390 0.94420 0.40690 -0.13200
C 	C 	0.58740 0.97580 0.44180 0.06000
C 	C 	0.56920 0.93940 0.47560 -0.13700
C 	C 	0.48080 0.87600 0.47460 0.09400
C 	C 	0.38090 0.65200 0.39960 0.06800
C 	C 	0.39770 0.59240 0.37160 -0.11500
C 	C 	0.33030 0.54920 0.33600 0.05000
C 	C 	0.24990 0.56680 0.33020 -0.12900
C 	C 	0.23870 0.62660 0.35990 0.07900
C 	C 	0.34290 0.48560 0.30420 0.08800
C 	C 	0.42880 0.41300 0.28020 0.10500
C 	C 	0.28290 0.38640 0.24530 0.10200
C 	C 	0.51870 0.39740 0.28140 0.05800
C 	C 	0.60250 0.44480 0.30700 -0.12400
C 	C 	0.68640 0.42920 0.30280 0.07700
C 	C 	0.60810 0.31960 0.25090 0.06900
C 	C 	0.52040 0.33100 0.25240 -0.11600
C 	C 	0.86470 0.30020 0.35010 0.07100
C 	C 	0.85560 0.25440 0.38030 -0.12500
C 	C 	0.71100 0.16060 0.34050 -0.13200
C 	C 	0.72560 0.21060 0.31170 0.09400
C 	C 	0.20820 0.34180 0.20800 0.05900
C 	C 	0.22090 0.28080 0.17980 -0.11800
C 	C 	0.14960 0.23880 0.14510 0.07300
C 	C 	0.05990 0.31140 0.16530 0.06800
C 	C 	0.12760 0.35700 0.20040 -0.12700
C 	C 	0.09200 0.19560 0.52160 0.06500
C 	C 	0.01340 0.18680 0.49360 -0.11600
C 	C 	0.92900 0.12220 0.49140 0.05400
C 	C 	0.92440 0.06900 0.51620 -0.12300
C 	C 	0.00690 0.08240 0.54250 0.08000
C 	C 	0.83960 0.10960 0.46220 0.09900
C 	C 	0.77010 0.13620 0.40790 0.11000
C 	C 	0.68030 0.04220 0.44010 0.09300
C 	C 	0.78100 0.18600 0.37560 0.07400
I 	I 	0.44159 0.71470 0.01218 -0.36900
I 	I 	0.63287 0.78676 0.90428 -0.38100
I 	I 	0.46397 0.25338 0.69326 -0.40300
I 	I 	0.49700 0.46396 0.79366 -0.38000
I 	I 	0.17355 0.05556 0.62521 -0.34500
I 	I 	0.35721 0.24326 0.55374 -0.38500
I 	I 	0.27311 0.71470 0.51218 -0.36800
I 	I 	0.15389 0.78676 0.40428 -0.38200
I 	I 	0.78941 0.25338 0.19326 -0.40300
I 	I 	0.96696 0.46396 0.29366 -0.38000
I 	I 	0.88201 0.05556 0.12521 -0.34800
I 	I 	0.88605 0.24326 0.05374 -0.38600
N 	N 	0.43480 0.84860 0.94250 -0.28100
N 	N 	0.36550 0.66820 0.89360 -0.27300
N 	N 	0.17400 0.44640 0.77180 -0.14100
N 	N 	0.00740 0.36580 0.74880 -0.13500
N 	N 	0.04760 0.47260 0.81010 -0.13800
N 	N 	0.18170 0.25200 0.63740 -0.27100
N 	N 	0.67850 0.36680 0.77580 -0.27400
N 	N 	0.47970 0.27720 0.81600 -0.27900
N 	N 	0.05530 0.14400 0.04550 -0.27100
N 	N 	0.30130 0.15320 0.93440 -0.13800
N 	N 	0.39460 0.08120 0.90910 -0.13800
N 	N 	0.29960 0.05420 0.96880 -0.14700
N 	N 	0.41380 0.84860 0.44250 -0.28200
N 	N 	0.30270 0.66820 0.39360 -0.27300
N 	N 	0.27240 0.44640 0.27180 -0.14100
N 	N 	0.35840 0.36580 0.24880 -0.13500
N 	N 	0.42500 0.47260 0.31010 -0.13800
N 	N 	0.07030 0.25200 0.13740 -0.27100
N 	N 	0.68830 0.36680 0.27580 -0.27400
N 	N 	0.79750 0.27720 0.31600 -0.27900
N 	N 	0.08870 0.14400 0.54550 -0.27200
N 	N 	0.85190 0.15320 0.43440 -0.13800
N 	N 	0.68660 0.08120 0.40910 -0.13700
N 	N 	0.75460 0.05420 0.46880 -0.14800
