data_crystal

_cell_length_a 15.10100
_cell_length_b 18.65280
_cell_length_c 30.23970
_cell_angle_alpha 100.15500
_cell_angle_beta  90.00000
_cell_angle_gamma 113.87800

_symmetry_space_group_name_	'P 1'
_symmetry_space_group_name_H-M	'P 1'

loop_
_symmetry_equiv_pos_as_xyz
  x,y,z

loop_
_atom_site_label
_atom_site_type_symbol
_atom_site_fract_x
_atom_site_fract_y
_atom_site_fract_z
_atom_site_charge
Zn	Zn	0.26907 0.73940 0.44800 1.16600
Zn	Zn	0.19823 0.15088 0.59948 1.16600
Zn	Zn	0.82368 0.35946 0.28192 1.16500
Zn	Zn	0.47033 0.73940 0.94800 1.16600
Zn	Zn	0.95265 0.15088 0.09948 1.16400
Zn	Zn	0.53578 0.35946 0.78192 1.16400
H 	H 	0.99080 0.02000 0.57370 -0.00600
H 	H 	0.85200 0.00060 0.53110 0.07200
H 	H 	0.01810 0.18780 0.47390 0.08100
H 	H 	0.15060 0.20360 0.52000 -0.01200
H 	H 	0.51980 0.96700 0.39160 0.08000
H 	H 	0.91210 0.27240 0.41770 0.07900
H 	H 	0.92410 0.36040 0.36870 -0.00800
H 	H 	0.66370 0.11560 0.34620 0.08300
H 	H 	0.01240 0.31000 0.16210 -0.00600
H 	H 	0.12680 0.39240 0.21970 0.07500
H 	H 	0.27290 0.25200 0.18920 0.09200
H 	H 	0.15320 0.17460 0.13280 -0.00500
H 	H 	0.20470 0.53180 0.30700 0.08700
H 	H 	0.18030 0.62780 0.35900 0.00000
H 	H 	0.42540 0.68040 0.42920 0.00400
H 	H 	0.45700 0.58660 0.37920 0.08600
H 	H 	0.60340 0.49600 0.33460 0.07800
H 	H 	0.74320 0.47280 0.33570 -0.00500
H 	H 	0.62510 0.28580 0.23710 -0.01300
H 	H 	0.48090 0.30000 0.23550 0.08300
H 	H 	0.45200 0.83760 0.51400 -0.00100
H 	H 	0.60530 0.94020 0.51120 0.07900
H 	H 	0.37160 0.85900 0.39390 -0.01400
H 	H 	0.68690 0.20340 0.29730 -0.02100
H 	H 	0.02920 0.02000 0.07370 -0.00500
H 	H 	0.14860 0.00060 0.03110 0.07400
H 	H 	0.16970 0.18780 0.97390 0.08200
H 	H 	0.05300 0.20360 0.02000 -0.01200
H 	H 	0.44720 0.96700 0.89160 0.07900
H 	H 	0.36030 0.27240 0.91770 0.07900
H 	H 	0.43630 0.36040 0.86870 -0.00800
H 	H 	0.45190 0.11560 0.84620 0.08300
H 	H 	0.29760 0.31000 0.66210 -0.00600
H 	H 	0.26560 0.39240 0.71970 0.07500
H 	H 	0.97910 0.25200 0.68920 0.09000
H 	H 	0.02140 0.17460 0.63280 -0.00500
H 	H 	0.32710 0.53180 0.80700 0.08700
H 	H 	0.44750 0.62780 0.85900 0.00000
H 	H 	0.25500 0.68040 0.92920 0.00400
H 	H 	0.12960 0.58660 0.87920 0.08600
H 	H 	0.89260 0.49600 0.83460 0.07800
H 	H 	0.72960 0.47280 0.83570 -0.00500
H 	H 	0.66070 0.28580 0.73710 -0.01300
H 	H 	0.81910 0.30000 0.73550 0.08200
H 	H 	0.38560 0.83760 0.01400 -0.00100
H 	H 	0.33490 0.94020 0.01120 0.07900
H 	H 	0.48740 0.85900 0.89390 -0.01400
H 	H 	0.51650 0.20340 0.79730 -0.02100
C 	C 	0.99510 0.05540 0.55390 0.06400
C 	C 	0.91260 0.04300 0.52870 -0.11300
C 	C 	0.92140 0.09560 0.49920 0.04900
C 	C 	0.01040 0.15400 0.49500 -0.11300
C 	C 	0.08900 0.16240 0.52240 0.06700
C 	C 	0.83430 0.08820 0.47160 0.08800
C 	C 	0.67490 0.02580 0.44960 0.08900
C 	C 	0.77220 0.12940 0.41880 0.10000
C 	C 	0.57740 0.96320 0.45280 0.05200
C 	C 	0.50750 0.94040 0.41640 -0.11300
C 	C 	0.78360 0.18280 0.38690 0.06100
C 	C 	0.86400 0.25740 0.39360 -0.10900
C 	C 	0.87150 0.30920 0.36390 0.07100
C 	C 	0.71920 0.16520 0.35150 -0.11800
C 	C 	0.06540 0.29740 0.16860 0.06300
C 	C 	0.13340 0.34720 0.20260 -0.11700
C 	C 	0.21380 0.33020 0.21180 0.05500
C 	C 	0.21930 0.26500 0.18490 -0.12000
C 	C 	0.14680 0.21860 0.15150 0.08400
C 	C 	0.28900 0.38000 0.24810 0.10200
C 	C 	0.34850 0.48460 0.30650 0.08600
C 	C 	0.43550 0.41260 0.28400 0.10500
C 	C 	0.33250 0.54780 0.33790 0.04700
C 	C 	0.25080 0.56140 0.33200 -0.12000
C 	C 	0.23720 0.61900 0.36310 0.06900
C 	C 	0.38030 0.64980 0.40400 0.06600
C 	C 	0.39920 0.59400 0.37470 -0.11000
C 	C 	0.52530 0.39920 0.28620 0.05200
C 	C 	0.60590 0.45140 0.31480 -0.11400
C 	C 	0.69000 0.43880 0.31440 0.06100
C 	C 	0.62030 0.32920 0.25710 0.06700
C 	C 	0.53370 0.33640 0.25610 -0.11700
C 	C 	0.46600 0.86280 0.48860 0.06800
C 	C 	0.55700 0.92500 0.48710 -0.11400
C 	C 	0.41940 0.87680 0.41850 0.06300
C 	C 	0.73240 0.21800 0.32250 0.07800
C 	C 	0.06030 0.05540 0.05390 0.06700
C 	C 	0.13040 0.04300 0.02870 -0.11500
C 	C 	0.17420 0.09560 0.99920 0.05200
C 	C 	0.14360 0.15400 0.99500 -0.11700
C 	C 	0.07340 0.16240 0.02240 0.06900
C 	C 	0.25390 0.08820 0.97160 0.08700
C 	C 	0.35090 0.02580 0.94960 0.09100
C 	C 	0.35720 0.12940 0.91880 0.10000
C 	C 	0.38580 0.96320 0.95280 0.05000
C 	C 	0.43290 0.94040 0.91640 -0.11200
C 	C 	0.39920 0.18280 0.88690 0.06100
C 	C 	0.39340 0.25740 0.89360 -0.10900
C 	C 	0.43770 0.30920 0.86390 0.07100
C 	C 	0.44600 0.16520 0.85150 -0.11800
C 	C 	0.23200 0.29740 0.66860 0.06300
C 	C 	0.21380 0.34720 0.70260 -0.11600
C 	C 	0.11640 0.33020 0.71180 0.05400
C 	C 	0.04570 0.26500 0.68490 -0.11900
C 	C 	0.07180 0.21860 0.65150 0.08300
C 	C 	0.09100 0.38000 0.74810 0.10300
C 	C 	0.13610 0.48460 0.80650 0.08600
C 	C 	0.97710 0.41260 0.78400 0.10500
C 	C 	0.21530 0.54780 0.83790 0.04700
C 	C 	0.31060 0.56140 0.83200 -0.12000
C 	C 	0.38180 0.61900 0.86310 0.06900
C 	C 	0.26950 0.64980 0.90400 0.06600
C 	C 	0.19480 0.59400 0.87470 -0.11000
C 	C 	0.87390 0.39920 0.78620 0.05200
C 	C 	0.84550 0.45140 0.81480 -0.11400
C 	C 	0.74880 0.43880 0.81440 0.06100
C 	C 	0.70890 0.32920 0.75710 0.06700
C 	C 	0.80270 0.33640 0.75610 -0.11700
C 	C 	0.39680 0.86280 0.98860 0.06700
C 	C 	0.36800 0.92500 0.98710 -0.11400
C 	C 	0.45740 0.87680 0.91850 0.06200
C 	C 	0.48560 0.21800 0.82250 0.07900
I 	I 	0.17087 0.03810 0.64123 -0.35100
I 	I 	0.35047 0.22858 0.56314 -0.37100
I 	I 	0.81205 0.27092 0.20509 -0.39200
I 	I 	0.96910 0.48868 0.31223 -0.37900
I 	I 	0.13961 0.77136 0.41354 -0.37700
I 	I 	0.26114 0.68230 0.51793 -0.37600
I 	I 	0.86723 0.03810 0.14123 -0.35500
I 	I 	0.87811 0.22858 0.06314 -0.37300
I 	I 	0.45887 0.27092 0.70509 -0.39200
I 	I 	0.51958 0.48868 0.81223 -0.37800
I 	I 	0.63175 0.77136 0.91354 -0.37700
I 	I 	0.42116 0.68230 0.01793 -0.37600
N 	N 	0.08230 0.11580 0.55180 -0.26800
N 	N 	0.74800 0.03140 0.47670 -0.14900
N 	N 	0.68340 0.07220 0.42010 -0.13900
N 	N 	0.84920 0.13920 0.44370 -0.14000
N 	N 	0.06910 0.23140 0.14380 -0.27000
N 	N 	0.36620 0.36280 0.25240 -0.13400
N 	N 	0.43030 0.47380 0.31240 -0.14000
N 	N 	0.27840 0.44140 0.27330 -0.14300
N 	N 	0.29960 0.66280 0.39840 -0.26900
N 	N 	0.69850 0.37900 0.28440 -0.27100
N 	N 	0.80680 0.28800 0.32930 -0.27400
N 	N 	0.39910 0.83960 0.45390 -0.26700
N 	N 	0.03350 0.11580 0.05180 -0.26900
N 	N 	0.28340 0.03140 0.97670 -0.14900
N 	N 	0.38880 0.07220 0.92010 -0.13900
N 	N 	0.29000 0.13920 0.94370 -0.14000
N 	N 	0.16230 0.23140 0.64380 -0.27000
N 	N 	0.99660 0.36280 0.75240 -0.13400
N 	N 	0.04350 0.47380 0.81240 -0.14000
N 	N 	0.16300 0.44140 0.77330 -0.14300
N 	N 	0.36320 0.66280 0.89840 -0.26900
N 	N 	0.68050 0.37900 0.78440 -0.27100
N 	N 	0.48120 0.28800 0.82930 -0.27400
N 	N 	0.44050 0.83960 0.95390 -0.26600
Zn	Zn	0.52967 0.26060 0.05200 1.16500
Zn	Zn	0.04735 0.84912 0.90052 1.16400
Zn	Zn	0.46422 0.64054 0.21808 1.16400
Zn	Zn	0.73093 0.26060 0.55200 1.16500
Zn	Zn	0.80177 0.84912 0.40052 1.16500
Zn	Zn	0.17632 0.64054 0.71808 1.16400
H 	H 	0.97080 0.98000 0.92630 -0.00500
H 	H 	0.85140 0.99940 0.96890 0.07400
H 	H 	0.83030 0.81220 0.02610 0.08200
H 	H 	0.94700 0.79640 0.98000 -0.01200
H 	H 	0.55280 0.03300 0.10840 0.07900
H 	H 	0.63970 0.72760 0.08230 0.07900
H 	H 	0.56370 0.63960 0.13130 -0.00800
H 	H 	0.54810 0.88440 0.15380 0.08300
H 	H 	0.70240 0.69000 0.33790 -0.00600
H 	H 	0.73440 0.60760 0.28030 0.07500
H 	H 	0.02090 0.74800 0.31080 0.09000
H 	H 	0.97860 0.82540 0.36720 -0.00500
H 	H 	0.67290 0.46820 0.19300 0.08700
H 	H 	0.55250 0.37220 0.14100 0.00000
H 	H 	0.74500 0.31960 0.07080 0.00400
H 	H 	0.87040 0.41340 0.12080 0.08600
H 	H 	0.10740 0.50400 0.16540 0.07800
H 	H 	0.27040 0.52720 0.16430 -0.00500
H 	H 	0.33930 0.71420 0.26290 -0.01300
H 	H 	0.18090 0.70000 0.26450 0.08200
H 	H 	0.61440 0.16240 0.98600 -0.00100
H 	H 	0.66510 0.05980 0.98880 0.07900
H 	H 	0.51260 0.14100 0.10610 -0.01400
H 	H 	0.48350 0.79660 0.20270 -0.02100
H 	H 	0.00920 0.98000 0.42630 -0.00600
H 	H 	0.14800 0.99940 0.46890 0.07200
H 	H 	0.98190 0.81220 0.52610 0.08100
H 	H 	0.84940 0.79640 0.48000 -0.01200
H 	H 	0.48020 0.03300 0.60840 0.08000
H 	H 	0.08790 0.72760 0.58230 0.07900
H 	H 	0.07590 0.63960 0.63130 -0.00800
H 	H 	0.33630 0.88440 0.65380 0.08300
H 	H 	0.98760 0.69000 0.83790 -0.00600
H 	H 	0.87320 0.60760 0.78030 0.07500
H 	H 	0.72710 0.74800 0.81080 0.09200
H 	H 	0.84680 0.82540 0.86720 -0.00500
H 	H 	0.79530 0.46820 0.69300 0.08700
H 	H 	0.81970 0.37220 0.64100 0.00000
H 	H 	0.57460 0.31960 0.57080 0.00400
H 	H 	0.54300 0.41340 0.62080 0.08600
H 	H 	0.39660 0.50400 0.66540 0.07800
H 	H 	0.25680 0.52720 0.66430 -0.00500
H 	H 	0.37490 0.71420 0.76290 -0.01300
H 	H 	0.51910 0.70000 0.76450 0.08300
H 	H 	0.54800 0.16240 0.48600 -0.00100
H 	H 	0.39470 0.05980 0.48880 0.07900
H 	H 	0.62840 0.14100 0.60610 -0.01400
H 	H 	0.31310 0.79660 0.70270 -0.02100
C 	C 	0.93970 0.94460 0.94610 0.06700
C 	C 	0.86960 0.95700 0.97130 -0.11500
C 	C 	0.82580 0.90440 0.00080 0.05200
C 	C 	0.85640 0.84600 0.00500 -0.11700
C 	C 	0.92660 0.83760 0.97760 0.06900
C 	C 	0.74610 0.91180 0.02840 0.08700
C 	C 	0.64910 0.97420 0.05040 0.09100
C 	C 	0.64280 0.87060 0.08120 0.10000
C 	C 	0.61420 0.03680 0.04720 0.05000
C 	C 	0.56710 0.05960 0.08360 -0.11200
C 	C 	0.60080 0.81720 0.11310 0.06100
C 	C 	0.60660 0.74260 0.10640 -0.10900
C 	C 	0.56230 0.69080 0.13610 0.07100
C 	C 	0.55400 0.83480 0.14850 -0.11800
C 	C 	0.76800 0.70260 0.33140 0.06300
C 	C 	0.78620 0.65280 0.29740 -0.11600
C 	C 	0.88360 0.66980 0.28820 0.05400
C 	C 	0.95430 0.73500 0.31510 -0.11900
C 	C 	0.92820 0.78140 0.34850 0.08300
C 	C 	0.90900 0.62000 0.25190 0.10300
C 	C 	0.86390 0.51540 0.19350 0.08600
C 	C 	0.02290 0.58740 0.21600 0.10500
C 	C 	0.78470 0.45220 0.16210 0.04700
C 	C 	0.68940 0.43860 0.16800 -0.12000
C 	C 	0.61820 0.38100 0.13690 0.06900
C 	C 	0.73050 0.35020 0.09600 0.06600
C 	C 	0.80520 0.40600 0.12530 -0.11000
C 	C 	0.12610 0.60080 0.21380 0.05200
C 	C 	0.15450 0.54860 0.18520 -0.11400
C 	C 	0.25120 0.56120 0.18560 0.06100
C 	C 	0.29110 0.67080 0.24290 0.06700
C 	C 	0.19730 0.66360 0.24390 -0.11700
C 	C 	0.60320 0.13720 0.01140 0.06700
C 	C 	0.63200 0.07500 0.01290 -0.11400
C 	C 	0.54260 0.12320 0.08150 0.06200
C 	C 	0.51440 0.78200 0.17750 0.07900
C 	C 	0.00490 0.94460 0.44610 0.06400
C 	C 	0.08740 0.95700 0.47130 -0.11300
C 	C 	0.07860 0.90440 0.50080 0.04900
C 	C 	0.98960 0.84600 0.50500 -0.11300
C 	C 	0.91100 0.83760 0.47760 0.06700
C 	C 	0.16570 0.91180 0.52840 0.08800
C 	C 	0.32510 0.97420 0.55040 0.08900
C 	C 	0.22780 0.87060 0.58120 0.10000
C 	C 	0.42260 0.03680 0.54720 0.05200
C 	C 	0.49250 0.05960 0.58360 -0.11300
C 	C 	0.21640 0.81720 0.61310 0.06100
C 	C 	0.13600 0.74260 0.60640 -0.10900
C 	C 	0.12850 0.69080 0.63610 0.07100
C 	C 	0.28080 0.83480 0.64850 -0.11800
C 	C 	0.93460 0.70260 0.83140 0.06300
C 	C 	0.86660 0.65280 0.79740 -0.11700
C 	C 	0.78620 0.66980 0.78820 0.05500
C 	C 	0.78070 0.73500 0.81510 -0.12000
C 	C 	0.85320 0.78140 0.84850 0.08400
C 	C 	0.71100 0.62000 0.75190 0.10200
C 	C 	0.65150 0.51540 0.69350 0.08600
C 	C 	0.56450 0.58740 0.71600 0.10500
C 	C 	0.66750 0.45220 0.66210 0.04700
C 	C 	0.74920 0.43860 0.66800 -0.12000
C 	C 	0.76280 0.38100 0.63690 0.06900
C 	C 	0.61970 0.35020 0.59600 0.06600
C 	C 	0.60080 0.40600 0.62530 -0.11000
C 	C 	0.47470 0.60080 0.71380 0.05200
C 	C 	0.39410 0.54860 0.68520 -0.11400
C 	C 	0.31000 0.56120 0.68560 0.06100
C 	C 	0.37970 0.67080 0.74290 0.06700
C 	C 	0.46630 0.66360 0.74390 -0.11700
C 	C 	0.53400 0.13720 0.51140 0.06800
C 	C 	0.44300 0.07500 0.51290 -0.11400
C 	C 	0.58060 0.12320 0.58150 0.06300
C 	C 	0.26760 0.78200 0.67750 0.07800
I 	I 	0.13277 0.96190 0.85877 -0.35500
I 	I 	0.12189 0.77142 0.93686 -0.37300
I 	I 	0.54113 0.72908 0.29491 -0.39200
I 	I 	0.48042 0.51132 0.18777 -0.37800
I 	I 	0.36825 0.22864 0.08646 -0.37700
I 	I 	0.57884 0.31770 0.98207 -0.37600
I 	I 	0.82913 0.96190 0.35877 -0.35100
I 	I 	0.64953 0.77142 0.43686 -0.37100
I 	I 	0.18795 0.72908 0.79491 -0.39200
I 	I 	0.03090 0.51132 0.68777 -0.37900
I 	I 	0.86039 0.22864 0.58646 -0.37700
I 	I 	0.73886 0.31770 0.48207 -0.37600
N 	N 	0.96650 0.88420 0.94820 -0.26900
N 	N 	0.71660 0.96860 0.02330 -0.14900
N 	N 	0.61120 0.92780 0.07990 -0.13900
N 	N 	0.71000 0.86080 0.05630 -0.14000
N 	N 	0.83770 0.76860 0.35620 -0.27000
N 	N 	0.00340 0.63720 0.24760 -0.13400
N 	N 	0.95650 0.52620 0.18760 -0.14000
N 	N 	0.83700 0.55860 0.22670 -0.14300
N 	N 	0.63680 0.33720 0.10160 -0.26900
N 	N 	0.31950 0.62100 0.21560 -0.27100
N 	N 	0.51880 0.71200 0.17070 -0.27400
N 	N 	0.55950 0.16040 0.04610 -0.26600
N 	N 	0.91770 0.88420 0.44820 -0.26800
N 	N 	0.25200 0.96860 0.52330 -0.14900
N 	N 	0.31660 0.92780 0.57990 -0.13900
N 	N 	0.15080 0.86080 0.55630 -0.14000
N 	N 	0.93090 0.76860 0.85620 -0.27000
N 	N 	0.63380 0.63720 0.74760 -0.13400
N 	N 	0.56970 0.52620 0.68760 -0.14000
N 	N 	0.72160 0.55860 0.72670 -0.14300
N 	N 	0.70040 0.33720 0.60160 -0.26900
N 	N 	0.30150 0.62100 0.71560 -0.27100
N 	N 	0.19320 0.71200 0.67070 -0.27400
N 	N 	0.60090 0.16040 0.54610 -0.26700
