data_crystal

_cell_length_a 13.51070
_cell_length_b 23.38000
_cell_length_c 5.87270
_cell_angle_alpha 90.00000
_cell_angle_beta  90.00000
_cell_angle_gamma 90.00000

_symmetry_space_group_name_	'P 1'
_symmetry_space_group_name_H-M	'P 1'

loop_
_symmetry_equiv_pos_as_xyz
  x,y,z

loop_
_atom_site_label
_atom_site_type_symbol
_atom_site_fract_x
_atom_site_fract_y
_atom_site_fract_z
_atom_site_charge
O 	O 	0.62800 0.67910 0.40900 -0.36800
O 	O 	0.61890 0.65920 0.77480 -0.38800
C 	C 	0.59350 0.65260 0.57660 0.34400
C 	C 	0.51060 0.61110 0.52780 -0.09000
C 	C 	0.47810 0.57340 0.69160 0.01700
H 	H 	0.50960 0.57210 0.83230 0.03400
C 	C 	0.39860 0.53720 0.64880 -0.06800
H 	H 	0.37650 0.51230 0.76100 0.06400
C 	C 	0.35350 0.53850 0.44200 -0.01100
C 	C 	0.38490 0.57560 0.26910 -0.06500
H 	H 	0.35300 0.57650 0.12880 0.06100
C 	C 	0.46500 0.61080 0.31380 0.00400
H 	H 	0.48890 0.63470 0.19980 0.04200
O 	O 	0.87200 0.82090 0.40900 -0.36900
O 	O 	0.88110 0.84080 0.77480 -0.38900
C 	C 	0.90650 0.84740 0.57660 0.34200
C 	C 	0.98940 0.88890 0.52780 -0.08900
C 	C 	0.02190 0.92660 0.69160 0.01200
H 	H 	0.99040 0.92790 0.83230 0.03500
C 	C 	0.10140 0.96280 0.64880 -0.06500
H 	H 	0.12350 0.98770 0.76100 0.06300
C 	C 	0.14650 0.96150 0.44200 -0.01200
C 	C 	0.11510 0.92440 0.26910 -0.06300
H 	H 	0.14700 0.92350 0.12880 0.06100
C 	C 	0.03500 0.88920 0.31380 0.00200
H 	H 	0.01110 0.86530 0.19980 0.04200
O 	O 	0.37200 0.17910 0.59100 -0.36900
O 	O 	0.38110 0.15920 0.22520 -0.38900
C 	C 	0.40650 0.15260 0.42340 0.34300
C 	C 	0.48940 0.11110 0.47220 -0.09100
C 	C 	0.52190 0.07340 0.30840 0.01600
H 	H 	0.49040 0.07210 0.16770 0.03300
C 	C 	0.60140 0.03720 0.35120 -0.06700
H 	H 	0.62350 0.01230 0.23900 0.06400
C 	C 	0.64650 0.03850 0.55800 -0.01100
C 	C 	0.61510 0.07560 0.73090 -0.06400
H 	H 	0.64700 0.07650 0.87120 0.06100
C 	C 	0.53500 0.11080 0.68620 0.00400
H 	H 	0.51110 0.13470 0.80020 0.04200
O 	O 	0.12800 0.32090 0.59100 -0.36900
O 	O 	0.11890 0.34080 0.22520 -0.38900
C 	C 	0.09350 0.34740 0.42340 0.34300
C 	C 	0.01060 0.38890 0.47220 -0.09000
C 	C 	0.97810 0.42660 0.30840 0.01400
H 	H 	0.00960 0.42790 0.16770 0.03500
C 	C 	0.89860 0.46280 0.35120 -0.06600
H 	H 	0.87650 0.48770 0.23900 0.06300
C 	C 	0.85350 0.46150 0.55800 -0.01100
C 	C 	0.88490 0.42440 0.73090 -0.06400
H 	H 	0.85300 0.42350 0.87120 0.06100
C 	C 	0.96500 0.38920 0.68620 0.00300
H 	H 	0.98890 0.36530 0.80020 0.04200
O 	O 	0.37200 0.32090 0.59100 -0.36900
O 	O 	0.38110 0.34080 0.22520 -0.38900
C 	C 	0.40650 0.34740 0.42340 0.34300
C 	C 	0.48940 0.38890 0.47220 -0.09100
C 	C 	0.52190 0.42660 0.30840 0.01600
H 	H 	0.49040 0.42790 0.16770 0.03300
C 	C 	0.60140 0.46280 0.35120 -0.06800
H 	H 	0.62350 0.48770 0.23900 0.06400
C 	C 	0.64650 0.46150 0.55800 -0.01100
C 	C 	0.61510 0.42440 0.73090 -0.06500
H 	H 	0.64700 0.42350 0.87120 0.06100
C 	C 	0.53500 0.38920 0.68620 0.00400
H 	H 	0.51110 0.36530 0.80020 0.04200
O 	O 	0.12800 0.17910 0.59100 -0.36900
O 	O 	0.11890 0.15920 0.22520 -0.38900
C 	C 	0.09350 0.15260 0.42340 0.34200
C 	C 	0.01060 0.11110 0.47220 -0.08900
C 	C 	0.97810 0.07340 0.30840 0.01200
H 	H 	0.00960 0.07210 0.16770 0.03500
C 	C 	0.89860 0.03720 0.35120 -0.06500
H 	H 	0.87650 0.01230 0.23900 0.06300
C 	C 	0.85350 0.03850 0.55800 -0.01200
C 	C 	0.88490 0.07560 0.73090 -0.06300
H 	H 	0.85300 0.07650 0.87120 0.06100
C 	C 	0.96500 0.11080 0.68620 0.00200
H 	H 	0.98890 0.13470 0.80020 0.04200
O 	O 	0.62800 0.82090 0.40900 -0.36900
O 	O 	0.61890 0.84080 0.77480 -0.38900
C 	C 	0.59350 0.84740 0.57660 0.34300
C 	C 	0.51060 0.88890 0.52780 -0.09100
C 	C 	0.47810 0.92660 0.69160 0.01600
H 	H 	0.50960 0.92790 0.83230 0.03300
C 	C 	0.39860 0.96280 0.64880 -0.06700
H 	H 	0.37650 0.98770 0.76100 0.06400
C 	C 	0.35350 0.96150 0.44200 -0.01100
C 	C 	0.38490 0.92440 0.26910 -0.06400
H 	H 	0.35300 0.92350 0.12880 0.06100
C 	C 	0.46500 0.88920 0.31380 0.00400
H 	H 	0.48890 0.86530 0.19980 0.04200
O 	O 	0.87200 0.67910 0.40900 -0.36900
O 	O 	0.88110 0.65920 0.77480 -0.38900
C 	C 	0.90650 0.65260 0.57660 0.34300
C 	C 	0.98940 0.61110 0.52780 -0.09000
C 	C 	0.02190 0.57340 0.69160 0.01400
H 	H 	0.99040 0.57210 0.83230 0.03500
C 	C 	0.10140 0.53720 0.64880 -0.06600
H 	H 	0.12350 0.51230 0.76100 0.06300
C 	C 	0.14650 0.53850 0.44200 -0.01100
C 	C 	0.11510 0.57560 0.26910 -0.06400
H 	H 	0.14700 0.57650 0.12880 0.06100
C 	C 	0.03500 0.61080 0.31380 0.00300
H 	H 	0.01110 0.63470 0.19980 0.04200
Pb	Pb	0.75000 0.75000 0.66987 1.25200
O 	O 	0.75000 0.75000 0.09070 -0.34700
Pb	Pb	0.25000 0.25000 0.33013 1.25200
O 	O 	0.25000 0.25000 0.90930 -0.34700
K 	K 	0.25000 0.37312 0.90820 0.66400
S 	S 	0.25000 0.49411 0.38730 0.29600
O 	O 	0.25000 0.48070 0.14640 -0.27200
O 	O 	0.25000 0.44910 0.55370 -0.28400
K 	K 	0.25000 0.12688 0.90820 0.66400
S 	S 	0.25000 0.00589 0.38730 0.29600
O 	O 	0.25000 0.01930 0.14640 -0.27200
O 	O 	0.25000 0.05090 0.55370 -0.28400
K 	K 	0.75000 0.87312 0.09180 0.66400
S 	S 	0.75000 0.99411 0.61270 0.29600
O 	O 	0.75000 0.98070 0.85360 -0.27200
O 	O 	0.75000 0.94910 0.44630 -0.28400
K 	K 	0.75000 0.62688 0.09180 0.66400
S 	S 	0.75000 0.50589 0.61270 0.29600
O 	O 	0.75000 0.51930 0.85360 -0.27200
O 	O 	0.75000 0.55090 0.44630 -0.28400
