data_crystal

_cell_length_a 20.34500
_cell_length_b 30.59170
_cell_length_c 30.59170
_cell_angle_alpha 64.76800
_cell_angle_beta  77.19210
_cell_angle_gamma 102.80800

_symmetry_space_group_name_	'P 1'
_symmetry_space_group_name_H-M	'P 1'

loop_
_symmetry_equiv_pos_as_xyz
  x,y,z

loop_
_atom_site_label
_atom_site_type_symbol
_atom_site_fract_x
_atom_site_fract_y
_atom_site_fract_z
_atom_site_charge
Mn	Mn	0.61101 0.55557 0.82247 1.33100
Mn	Mn	0.60968 0.39175 0.95190 1.31800
Mn	Mn	0.42612 0.61637 0.88153 1.33300
Mn	Mn	0.43348 0.82247 0.62196 1.33100
Mn	Mn	0.56158 0.95190 0.65635 1.31800
Mn	Mn	0.30765 0.88153 0.50210 1.33300
Mn	Mn	0.05544 0.62196 0.55557 1.33100
Mn	Mn	0.21793 0.65635 0.39175 1.31800
Mn	Mn	0.80975 0.50210 0.61637 1.33400
Mn	Mn	0.38899 0.44443 0.17753 1.33200
Mn	Mn	0.39032 0.60825 0.04810 1.31900
Mn	Mn	0.57388 0.38363 0.11847 1.33400
Mn	Mn	0.56652 0.17753 0.37804 1.33200
Mn	Mn	0.43842 0.04810 0.34365 1.31900
Mn	Mn	0.69235 0.11847 0.49790 1.33400
Mn	Mn	0.94456 0.37804 0.44443 1.33200
Mn	Mn	0.78207 0.34365 0.60825 1.31900
Mn	Mn	0.19025 0.49790 0.38363 1.33400
H 	H 	0.51130 0.51670 0.72630 0.11800
H 	H 	0.49070 0.44650 0.71370 -0.04400
H 	H 	0.51030 0.37210 0.77010 0.07900
H 	H 	0.55620 0.37400 0.83200 -0.00600
H 	H 	0.64540 0.52780 0.96930 0.19700
H 	H 	0.68050 0.48610 0.96870 0.17700
H 	H 	0.73810 0.58970 0.91720 -0.07300
H 	H 	0.75700 0.55000 0.96090 -0.09200
H 	H 	0.80460 0.57160 0.86370 0.14400
H 	H 	0.83000 0.54220 0.90960 0.13400
H 	H 	0.86800 0.65280 0.85340 0.02000
H 	H 	0.92200 0.62240 0.84970 0.01500
H 	H 	0.85620 0.62620 0.94440 0.02900
H 	H 	0.90520 0.59190 0.94370 0.02000
H 	H 	0.96270 0.70390 0.87900 0.13700
H 	H 	0.00990 0.66780 0.88580 0.13500
H 	H 	0.94180 0.68730 0.96680 -0.16700
H 	H 	0.98570 0.64860 0.97580 -0.16300
H 	H 	0.09040 0.71920 0.90990 0.44700
H 	H 	0.04550 0.75700 0.90600 0.45300
H 	H 	0.03090 0.74130 0.98390 -0.48200
H 	H 	0.05760 0.69270 0.99710 -0.47100
H 	H 	0.13550 0.79410 0.92030 0.44700
H 	H 	0.16210 0.74640 0.92840 0.44000
H 	H 	0.20350 0.76180 0.98460 -0.17900
H 	H 	0.12140 0.73030 0.02330 -0.17200
H 	H 	0.15090 0.79220 0.99130 -0.17700
H 	H 	0.75060 0.63220 0.80280 -0.01200
H 	H 	0.87000 0.67820 0.75160 0.08700
H 	H 	0.83940 0.61660 0.66390 0.10100
H 	H 	0.72280 0.56790 0.72230 -0.02200
H 	H 	0.97890 0.66080 0.67300 0.08000
H 	H 	0.95330 0.69670 0.62940 0.07400
H 	H 	0.82710 0.39350 0.89710 0.13900
H 	H 	0.91390 0.38770 0.93480 -0.01900
H 	H 	0.88900 0.37650 0.01810 0.10300
H 	H 	0.78070 0.37970 0.05880 -0.01700
H 	H 	0.40530 0.39080 0.03810 0.12100
H 	H 	0.43500 0.39330 0.08170 0.10900
H 	H 	0.37670 0.29950 0.07910 0.01600
H 	H 	0.41170 0.30070 0.12080 0.01100
H 	H 	0.28440 0.32380 0.11300 0.08200
H 	H 	0.32040 0.32810 0.15330 0.09000
H 	H 	0.25580 0.23270 0.15570 0.03500
H 	H 	0.29710 0.23590 0.19370 0.03900
H 	H 	0.20980 0.26340 0.23020 0.06600
H 	H 	0.16810 0.25900 0.19280 0.06100
H 	H 	0.14230 0.16910 0.23400 0.03900
H 	H 	0.18460 0.17340 0.27100 0.03600
H 	H 	0.06040 0.19980 0.27070 0.06500
H 	H 	0.09920 0.19430 0.31170 0.06600
H 	H 	0.01600 0.10950 0.30610 0.02600
H 	H 	0.05980 0.10260 0.34450 0.02300
H 	H 	0.93980 0.13580 0.34890 0.10900
H 	H 	0.98750 0.13780 0.38360 0.10600
H 	H 	0.90110 0.04510 0.39110 -0.04900
H 	H 	0.95490 0.04460 0.42180 -0.05200
H 	H 	0.88280 0.06940 0.47030 0.21600
H 	H 	0.84190 0.01450 0.47720 0.21700
H 	H 	0.82730 0.06470 0.44130 0.22200
H 	H 	0.50610 0.78370 0.78180 0.12800
H 	H 	0.60580 0.83850 0.70580 -0.00100
H 	H 	0.69170 0.80720 0.67840 0.08300
H 	H 	0.67650 0.71940 0.72800 0.00200
H 	H 	0.43960 0.46010 0.96310 0.11300
H 	H 	0.46910 0.46160 0.90940 0.10500
H 	H 	0.35180 0.39760 0.96660 -0.00000
H 	H 	0.32200 0.44440 0.95550 0.00700
H 	H 	0.36040 0.47270 0.86800 0.08600
H 	H 	0.40010 0.43180 0.87510 0.08400
H 	H 	0.24780 0.40490 0.91540 0.02900
H 	H 	0.28640 0.36360 0.92450 0.02900
H 	H 	0.28450 0.43000 0.82650 0.06300
H 	H 	0.31590 0.38400 0.83930 0.05900
H 	H 	0.15140 0.83450 0.51580 -0.04500
H 	H 	0.04830 0.76180 0.56970 0.13200
H 	H 	0.10620 0.75350 0.68620 0.07800
H 	H 	0.22170 0.81000 0.62480 -0.00900
H 	H 	0.94800 0.74690 0.67120 0.06600
H 	H 	0.98670 0.71460 0.70640 0.06500
H 	H 	0.23760 0.72630 0.75700 0.11800
H 	H 	0.20440 0.71370 0.83980 -0.04300
H 	H 	0.28040 0.77010 0.85780 0.07900
H 	H 	0.38820 0.83200 0.79400 -0.00600
H 	H 	0.61470 0.96930 0.50290 0.19600
H 	H 	0.64920 0.96870 0.54520 0.17600
H 	H 	0.65530 0.91720 0.49310 -0.07200
H 	H 	0.71790 0.96090 0.48910 -0.09100
H 	H 	0.66830 0.86370 0.56470 0.14300
H 	H 	0.73960 0.90960 0.54820 0.13300
H 	H 	0.72140 0.85340 0.49380 0.02100
H 	H 	0.77170 0.84970 0.52790 0.01700
H 	H 	0.80060 0.94440 0.42940 0.02700
H 	H 	0.84890 0.94370 0.46440 0.01800
H 	H 	0.84170 0.87900 0.41710 0.14200
H 	H 	0.89570 0.88580 0.44640 0.14000
H 	H 	0.90860 0.96680 0.34590 -0.17800
H 	H 	0.96150 0.97580 0.37560 -0.17400
H 	H 	0.00030 0.90990 0.37090 0.46800
H 	H 	0.95150 0.90600 0.33700 0.47600
H 	H 	0.01480 0.98390 0.27480 -0.51300
H 	H 	0.05470 0.99710 0.31020 -0.50100
H 	H 	0.05580 0.92030 0.28560 0.47200
H 	H 	0.09050 0.92840 0.32520 0.46500
H 	H 	0.18810 0.98460 0.25360 -0.19600
H 	H 	0.14470 0.02330 0.24640 -0.18700
H 	H 	0.14220 0.99130 0.21650 -0.19400
H 	H 	0.55340 0.80280 0.56500 -0.01200
H 	H 	0.62160 0.75160 0.57020 0.08700
H 	H 	0.50330 0.66390 0.71950 0.10100
H 	H 	0.44510 0.72230 0.70980 -0.02200
H 	H 	0.65190 0.67300 0.66620 0.08000
H 	H 	0.58270 0.62940 0.67390 0.07400
H 	H 	0.72420 0.89710 0.70940 0.14100
H 	H 	0.84870 0.93480 0.67750 -0.01900
H 	H 	0.90710 0.01810 0.60540 0.10500
H 	H 	0.83950 0.05880 0.56150 -0.01800
H 	H 	0.44340 0.03810 0.57110 0.12200
H 	H 	0.51670 0.08170 0.52500 0.10900
H 	H 	0.45580 0.07910 0.62140 0.01600
H 	H 	0.53250 0.12080 0.57850 0.01100
H 	H 	0.39740 0.11300 0.56320 0.08200
H 	H 	0.47370 0.15330 0.51860 0.09000
H 	H 	0.41150 0.15570 0.61160 0.03500
H 	H 	0.49080 0.19370 0.57040 0.03900
H 	H 	0.44000 0.23020 0.50640 0.06700
H 	H 	0.36090 0.19280 0.54820 0.06100
H 	H 	0.37630 0.23400 0.59690 0.03900
H 	H 	0.45560 0.27100 0.55560 0.03500
H 	H 	0.33110 0.27070 0.52950 0.06500
H 	H 	0.41090 0.31170 0.49400 0.06500
H 	H 	0.32210 0.30610 0.58440 0.02500
H 	H 	0.40430 0.34450 0.55290 0.02300
H 	H 	0.28870 0.34890 0.51530 0.10900
H 	H 	0.37110 0.38360 0.47860 0.10700
H 	H 	0.29220 0.39110 0.56380 -0.04900
H 	H 	0.37670 0.42180 0.53360 -0.05200
H 	H 	0.35310 0.47030 0.46030 0.21600
H 	H 	0.31910 0.47720 0.50830 0.21700
H 	H 	0.26860 0.44130 0.49400 0.22200
H 	H 	0.28790 0.78180 0.43450 0.12800
H 	H 	0.31160 0.70580 0.45570 -0.00100
H 	H 	0.37010 0.67840 0.51440 0.08300
H 	H 	0.40450 0.72800 0.55260 0.00200
H 	H 	0.40270 0.96310 0.57680 0.11300
H 	H 	0.37850 0.90940 0.62900 0.10500
H 	H 	0.31840 0.96660 0.63580 -0.00100
H 	H 	0.27750 0.95550 0.60010 0.00700
H 	H 	0.22840 0.86800 0.65930 0.08600
H 	H 	0.27520 0.87510 0.69310 0.08400
H 	H 	0.16320 0.91540 0.67970 0.02900
H 	H 	0.21090 0.92450 0.71190 0.02900
H 	H 	0.11100 0.82650 0.74350 0.06300
H 	H 	0.15520 0.83930 0.77670 0.05900
H 	H 	0.66720 0.51580 0.64970 -0.04500
H 	H 	0.61800 0.56970 0.66850 0.13300
H 	H 	0.79240 0.68620 0.56030 0.07800
H 	H 	0.84650 0.62480 0.56520 -0.00900
H 	H 	0.61920 0.67120 0.58190 0.06600
H 	H 	0.69310 0.70640 0.57900 0.06500
H 	H 	0.99460 0.75700 0.51670 0.11900
H 	H 	0.04420 0.83980 0.44650 -0.04500
H 	H 	0.13820 0.85780 0.37210 0.07900
H 	H 	0.18220 0.79400 0.37400 -0.00700
H 	H 	0.11760 0.50290 0.52780 0.19700
H 	H 	0.19440 0.54520 0.48610 0.17700
H 	H 	0.14840 0.49310 0.58970 -0.07300
H 	H 	0.20700 0.48910 0.55000 -0.09200
H 	H 	0.23300 0.56470 0.57160 0.14400
H 	H 	0.28780 0.54820 0.54220 0.13400
H 	H 	0.21520 0.49380 0.65280 0.02000
H 	H 	0.29960 0.52790 0.62240 0.01500
H 	H 	0.23000 0.42940 0.62620 0.02900
H 	H 	0.31330 0.46440 0.59190 0.02000
H 	H 	0.25880 0.41710 0.70390 0.13700
H 	H 	0.34210 0.44640 0.66780 0.13500
H 	H 	0.25450 0.34590 0.68730 -0.16800
H 	H 	0.33710 0.37560 0.64860 -0.16400
H 	H 	0.37120 0.37090 0.71920 0.45000
H 	H 	0.28850 0.33700 0.75700 0.45600
H 	H 	0.28960 0.27480 0.74130 -0.48500
H 	H 	0.36490 0.31020 0.69270 -0.47500
H 	H 	0.34140 0.28560 0.79410 0.45000
H 	H 	0.41570 0.32520 0.74640 0.44300
H 	H 	0.44170 0.25360 0.76180 -0.18100
H 	H 	0.39110 0.24640 0.73030 -0.17300
H 	H 	0.35870 0.21650 0.79220 -0.17900
H 	H 	0.11840 0.56500 0.63220 -0.01200
H 	H 	0.19180 0.57020 0.67820 0.08700
H 	H 	0.22280 0.71950 0.61660 0.10100
H 	H 	0.15490 0.70980 0.56790 -0.02200
H 	H 	0.31810 0.66620 0.66080 0.08000
H 	H 	0.25660 0.67390 0.69670 0.07300
H 	H 	0.43360 0.70940 0.39350 0.14000
H 	H 	0.52620 0.67750 0.38770 -0.01900
H 	H 	0.51250 0.60540 0.37650 0.10400
H 	H 	0.40100 0.56150 0.37970 -0.01700
H 	H 	0.01450 0.57110 0.39080 0.12100
H 	H 	0.04170 0.52500 0.39330 0.10900
H 	H 	0.07720 0.62140 0.29950 0.01500
H 	H 	0.11100 0.57850 0.30070 0.01100
H 	H 	0.96060 0.56320 0.32380 0.08300
H 	H 	0.99230 0.51860 0.32810 0.09000
H 	H 	0.02310 0.61160 0.23270 0.03400
H 	H 	0.06120 0.57040 0.23590 0.03900
H 	H 	0.94640 0.50640 0.26340 0.06700
H 	H 	0.90910 0.54820 0.25900 0.06200
H 	H 	0.97320 0.59690 0.16910 0.03900
H 	H 	0.01120 0.55560 0.17340 0.03500
H 	H 	0.86060 0.52950 0.19980 0.06500
H 	H 	0.90490 0.49400 0.19430 0.06600
H 	H 	0.90650 0.58440 0.10950 0.02500
H 	H 	0.95720 0.55290 0.10260 0.02200
H 	H 	0.80400 0.51530 0.13580 0.10900
H 	H 	0.84970 0.47860 0.13780 0.10700
H 	H 	0.85600 0.56380 0.04510 -0.04900
H 	H 	0.91030 0.53360 0.04460 -0.05200
H 	H 	0.81340 0.46030 0.06940 0.21600
H 	H 	0.82740 0.50830 0.01450 0.21700
H 	H 	0.76260 0.49400 0.06470 0.22300
H 	H 	0.72240 0.43450 0.78370 0.12800
H 	H 	0.76730 0.45570 0.83850 -0.00100
H 	H 	0.88450 0.51440 0.80720 0.08300
H 	H 	0.95710 0.55260 0.71940 0.00200
H 	H 	0.97950 0.57680 0.46010 0.11300
H 	H 	0.00750 0.62900 0.46160 0.10400
H 	H 	0.95420 0.63580 0.39760 -0.00000
H 	H 	0.87760 0.60010 0.44440 0.00700
H 	H 	0.88770 0.65930 0.47270 0.08600
H 	H 	0.96830 0.69310 0.43180 0.08500
H 	H 	0.84290 0.67970 0.40490 0.02900
H 	H 	0.92280 0.71190 0.36360 0.02900
H 	H 	0.85450 0.74350 0.43000 0.06300
H 	H 	0.93190 0.77670 0.38400 0.05900
H 	H 	0.31690 0.64970 0.83450 -0.04500
H 	H 	0.28650 0.66850 0.76180 0.13300
H 	H 	0.35270 0.56030 0.75350 0.07800
H 	H 	0.41170 0.56520 0.81000 -0.00900
H 	H 	0.20110 0.58190 0.74690 0.06600
H 	H 	0.27210 0.57900 0.71460 0.06500
H 	H 	0.48870 0.48330 0.27370 0.11800
H 	H 	0.50930 0.55350 0.28630 -0.04400
H 	H 	0.48970 0.62790 0.22990 0.07900
H 	H 	0.44380 0.62600 0.16800 -0.00600
H 	H 	0.35460 0.47220 0.03070 0.19700
H 	H 	0.31950 0.51390 0.03130 0.17700
H 	H 	0.26190 0.41030 0.08280 -0.07300
H 	H 	0.24300 0.45000 0.03910 -0.09200
H 	H 	0.19540 0.42840 0.13630 0.14400
H 	H 	0.17000 0.45780 0.09040 0.13400
H 	H 	0.13200 0.34720 0.14660 0.02000
H 	H 	0.07800 0.37760 0.15030 0.01500
H 	H 	0.14380 0.37380 0.05560 0.02900
H 	H 	0.09480 0.40810 0.05630 0.02000
H 	H 	0.03730 0.29610 0.12100 0.13700
H 	H 	0.99010 0.33220 0.11420 0.13500
H 	H 	0.05820 0.31270 0.03320 -0.16700
H 	H 	0.01430 0.35140 0.02420 -0.16300
H 	H 	0.90960 0.28080 0.09010 0.44700
H 	H 	0.95450 0.24300 0.09400 0.45300
H 	H 	0.96910 0.25870 0.01610 -0.48200
H 	H 	0.94240 0.30730 0.00290 -0.47100
H 	H 	0.86450 0.20590 0.07970 0.44700
H 	H 	0.83790 0.25360 0.07160 0.44000
H 	H 	0.79650 0.23820 0.01540 -0.17900
H 	H 	0.87860 0.26970 0.97670 -0.17200
H 	H 	0.84910 0.20780 0.00870 -0.17700
H 	H 	0.24940 0.36780 0.19720 -0.01200
H 	H 	0.13000 0.32180 0.24840 0.08700
H 	H 	0.16060 0.38340 0.33610 0.10100
H 	H 	0.27720 0.43210 0.27770 -0.02200
H 	H 	0.02110 0.33920 0.32700 0.08000
H 	H 	0.04670 0.30330 0.37060 0.07400
H 	H 	0.17290 0.60650 0.10290 0.13900
H 	H 	0.08610 0.61230 0.06520 -0.01900
H 	H 	0.11100 0.62350 0.98190 0.10300
H 	H 	0.21930 0.62030 0.94120 -0.01700
H 	H 	0.59470 0.60920 0.96190 0.12100
H 	H 	0.56500 0.60670 0.91830 0.10900
H 	H 	0.62330 0.70050 0.92090 0.01600
H 	H 	0.58830 0.69930 0.87920 0.01100
H 	H 	0.71560 0.67620 0.88700 0.08200
H 	H 	0.67960 0.67190 0.84670 0.09000
H 	H 	0.74420 0.76730 0.84430 0.03500
H 	H 	0.70290 0.76410 0.80630 0.03900
H 	H 	0.79020 0.73660 0.76980 0.06600
H 	H 	0.83190 0.74100 0.80720 0.06100
H 	H 	0.85770 0.83090 0.76600 0.03900
H 	H 	0.81540 0.82660 0.72900 0.03600
H 	H 	0.93960 0.80020 0.72930 0.06500
H 	H 	0.90080 0.80570 0.68830 0.06600
H 	H 	0.98400 0.89050 0.69390 0.02600
H 	H 	0.94020 0.89740 0.65550 0.02300
H 	H 	0.06020 0.86420 0.65110 0.10900
H 	H 	0.01250 0.86220 0.61640 0.10600
H 	H 	0.09890 0.95490 0.60890 -0.04900
H 	H 	0.04510 0.95540 0.57820 -0.05200
H 	H 	0.11720 0.93060 0.52970 0.21600
H 	H 	0.15810 0.98550 0.52280 0.21700
H 	H 	0.17270 0.93530 0.55870 0.22200
H 	H 	0.49390 0.21630 0.21820 0.12800
H 	H 	0.39420 0.16150 0.29420 -0.00100
H 	H 	0.30830 0.19280 0.32160 0.08300
H 	H 	0.32350 0.28060 0.27200 0.00200
H 	H 	0.56040 0.53990 0.03690 0.11300
H 	H 	0.53090 0.53840 0.09060 0.10500
H 	H 	0.64820 0.60240 0.03340 -0.00000
H 	H 	0.67800 0.55560 0.04450 0.00700
H 	H 	0.63960 0.52730 0.13200 0.08600
H 	H 	0.59990 0.56820 0.12490 0.08400
H 	H 	0.75220 0.59510 0.08460 0.02900
H 	H 	0.71360 0.63640 0.07550 0.02900
H 	H 	0.71550 0.57000 0.17350 0.06300
H 	H 	0.68410 0.61600 0.16070 0.05900
H 	H 	0.84860 0.16550 0.48420 -0.04500
H 	H 	0.95170 0.23820 0.43030 0.13200
H 	H 	0.89380 0.24650 0.31380 0.07800
H 	H 	0.77830 0.19000 0.37520 -0.00900
H 	H 	0.05200 0.25310 0.32880 0.06600
H 	H 	0.01330 0.28540 0.29360 0.06500
H 	H 	0.76240 0.27370 0.24300 0.11800
H 	H 	0.79560 0.28630 0.16020 -0.04300
H 	H 	0.71960 0.22990 0.14220 0.07900
H 	H 	0.61180 0.16800 0.20600 -0.00600
H 	H 	0.38530 0.03070 0.49710 0.19600
H 	H 	0.35080 0.03130 0.45480 0.17600
H 	H 	0.34470 0.08280 0.50690 -0.07200
H 	H 	0.28210 0.03910 0.51090 -0.09100
H 	H 	0.33170 0.13630 0.43530 0.14300
H 	H 	0.26040 0.09040 0.45180 0.13300
H 	H 	0.27860 0.14660 0.50620 0.02100
H 	H 	0.22830 0.15030 0.47210 0.01700
H 	H 	0.19940 0.05560 0.57060 0.02700
H 	H 	0.15110 0.05630 0.53560 0.01800
H 	H 	0.15830 0.12100 0.58290 0.14200
H 	H 	0.10430 0.11420 0.55360 0.14000
H 	H 	0.09140 0.03320 0.65410 -0.17800
H 	H 	0.03850 0.02420 0.62440 -0.17400
H 	H 	0.99970 0.09010 0.62910 0.46800
H 	H 	0.04850 0.09400 0.66300 0.47600
H 	H 	0.98520 0.01610 0.72520 -0.51300
H 	H 	0.94530 0.00290 0.68980 -0.50100
H 	H 	0.94420 0.07970 0.71440 0.47200
H 	H 	0.90950 0.07160 0.67480 0.46500
H 	H 	0.81190 0.01540 0.74640 -0.19600
H 	H 	0.85530 0.97670 0.75360 -0.18700
H 	H 	0.85780 0.00870 0.78350 -0.19400
H 	H 	0.44660 0.19720 0.43500 -0.01200
H 	H 	0.37840 0.24840 0.42980 0.08700
H 	H 	0.49670 0.33610 0.28050 0.10100
H 	H 	0.55490 0.27770 0.29020 -0.02200
H 	H 	0.34810 0.32700 0.33380 0.08000
H 	H 	0.41730 0.37060 0.32610 0.07400
H 	H 	0.27580 0.10290 0.29060 0.14100
H 	H 	0.15130 0.06520 0.32250 -0.01900
H 	H 	0.09290 0.98190 0.39460 0.10500
H 	H 	0.16050 0.94120 0.43850 -0.01800
H 	H 	0.55660 0.96190 0.42890 0.12200
H 	H 	0.48330 0.91830 0.47500 0.10900
H 	H 	0.54420 0.92090 0.37860 0.01600
H 	H 	0.46750 0.87920 0.42150 0.01100
H 	H 	0.60260 0.88700 0.43680 0.08200
H 	H 	0.52630 0.84670 0.48140 0.09000
H 	H 	0.58850 0.84430 0.38840 0.03500
H 	H 	0.50920 0.80630 0.42960 0.03900
H 	H 	0.56000 0.76980 0.49360 0.06700
H 	H 	0.63910 0.80720 0.45180 0.06100
H 	H 	0.62370 0.76600 0.40310 0.03900
H 	H 	0.54440 0.72900 0.44440 0.03500
H 	H 	0.66890 0.72930 0.47050 0.06500
H 	H 	0.58910 0.68830 0.50600 0.06500
H 	H 	0.67790 0.69390 0.41560 0.02500
H 	H 	0.59570 0.65550 0.44710 0.02300
H 	H 	0.71130 0.65110 0.48470 0.10900
H 	H 	0.62890 0.61640 0.52140 0.10700
H 	H 	0.70780 0.60890 0.43620 -0.04900
H 	H 	0.62330 0.57820 0.46640 -0.05200
H 	H 	0.64690 0.52970 0.53970 0.21600
H 	H 	0.68090 0.52280 0.49170 0.21700
H 	H 	0.73140 0.55870 0.50600 0.22200
H 	H 	0.71210 0.21820 0.56550 0.12800
H 	H 	0.68840 0.29420 0.54430 -0.00100
H 	H 	0.62990 0.32160 0.48560 0.08300
H 	H 	0.59550 0.27200 0.44740 0.00200
H 	H 	0.59730 0.03690 0.42320 0.11300
H 	H 	0.62150 0.09060 0.37100 0.10500
H 	H 	0.68160 0.03340 0.36420 -0.00100
H 	H 	0.72250 0.04450 0.39990 0.00700
H 	H 	0.77160 0.13200 0.34070 0.08600
H 	H 	0.72480 0.12490 0.30690 0.08400
H 	H 	0.83680 0.08460 0.32030 0.02900
H 	H 	0.78910 0.07550 0.28810 0.02900
H 	H 	0.88900 0.17350 0.25650 0.06300
H 	H 	0.84480 0.16070 0.22330 0.05900
H 	H 	0.33280 0.48420 0.35030 -0.04500
H 	H 	0.38200 0.43030 0.33150 0.13300
H 	H 	0.20760 0.31380 0.43970 0.07800
H 	H 	0.15350 0.37520 0.43480 -0.00900
H 	H 	0.38080 0.32880 0.41810 0.06600
H 	H 	0.30690 0.29360 0.42100 0.06500
H 	H 	0.00540 0.24300 0.48330 0.11900
H 	H 	0.95580 0.16020 0.55350 -0.04500
H 	H 	0.86180 0.14220 0.62790 0.07900
H 	H 	0.81780 0.20600 0.62600 -0.00700
H 	H 	0.88240 0.49710 0.47220 0.19700
H 	H 	0.80560 0.45480 0.51390 0.17700
H 	H 	0.85160 0.50690 0.41030 -0.07300
H 	H 	0.79300 0.51090 0.45000 -0.09200
H 	H 	0.76700 0.43530 0.42840 0.14400
H 	H 	0.71220 0.45180 0.45780 0.13400
H 	H 	0.78480 0.50620 0.34720 0.02000
H 	H 	0.70040 0.47210 0.37760 0.01500
H 	H 	0.77000 0.57060 0.37380 0.02900
H 	H 	0.68670 0.53560 0.40810 0.02000
H 	H 	0.74120 0.58290 0.29610 0.13700
H 	H 	0.65790 0.55360 0.33220 0.13500
H 	H 	0.74550 0.65410 0.31270 -0.16800
H 	H 	0.66290 0.62440 0.35140 -0.16400
H 	H 	0.62880 0.62910 0.28080 0.45000
H 	H 	0.71150 0.66300 0.24300 0.45600
H 	H 	0.71040 0.72520 0.25870 -0.48500
H 	H 	0.63510 0.68980 0.30730 -0.47500
H 	H 	0.65860 0.71440 0.20590 0.45000
H 	H 	0.58430 0.67480 0.25360 0.44300
H 	H 	0.55830 0.74640 0.23820 -0.18100
H 	H 	0.60890 0.75360 0.26970 -0.17300
H 	H 	0.64130 0.78350 0.20780 -0.17900
H 	H 	0.88160 0.43500 0.36780 -0.01200
H 	H 	0.80820 0.42980 0.32180 0.08700
H 	H 	0.77720 0.28050 0.38340 0.10100
H 	H 	0.84510 0.29020 0.43210 -0.02200
H 	H 	0.68190 0.33380 0.33920 0.08000
H 	H 	0.74340 0.32610 0.30330 0.07300
H 	H 	0.56640 0.29060 0.60650 0.14000
H 	H 	0.47380 0.32250 0.61230 -0.01900
H 	H 	0.48750 0.39460 0.62350 0.10400
H 	H 	0.59900 0.43850 0.62030 -0.01700
H 	H 	0.98550 0.42890 0.60920 0.12100
H 	H 	0.95830 0.47500 0.60670 0.10900
H 	H 	0.92280 0.37860 0.70050 0.01500
H 	H 	0.88900 0.42150 0.69930 0.01100
H 	H 	0.03940 0.43680 0.67620 0.08300
H 	H 	0.00770 0.48140 0.67190 0.09000
H 	H 	0.97690 0.38840 0.76730 0.03400
H 	H 	0.93880 0.42960 0.76410 0.03900
H 	H 	0.05360 0.49360 0.73660 0.06700
H 	H 	0.09090 0.45180 0.74100 0.06200
H 	H 	0.02680 0.40310 0.83090 0.03900
H 	H 	0.98880 0.44440 0.82660 0.03500
H 	H 	0.13940 0.47050 0.80020 0.06500
H 	H 	0.09510 0.50600 0.80570 0.06600
H 	H 	0.09350 0.41560 0.89050 0.02500
H 	H 	0.04280 0.44710 0.89740 0.02200
H 	H 	0.19600 0.48470 0.86420 0.10900
H 	H 	0.15030 0.52140 0.86220 0.10700
H 	H 	0.14400 0.43620 0.95490 -0.04900
H 	H 	0.08970 0.46640 0.95540 -0.05200
H 	H 	0.18660 0.53970 0.93060 0.21600
H 	H 	0.17260 0.49170 0.98550 0.21700
H 	H 	0.23740 0.50600 0.93530 0.22300
H 	H 	0.27760 0.56550 0.21630 0.12800
H 	H 	0.23270 0.54430 0.16150 -0.00100
H 	H 	0.11550 0.48560 0.19280 0.08300
H 	H 	0.04290 0.44740 0.28060 0.00200
H 	H 	0.02050 0.42320 0.53990 0.11300
H 	H 	0.99250 0.37100 0.53840 0.10400
H 	H 	0.04580 0.36420 0.60240 -0.00000
H 	H 	0.12240 0.39990 0.55560 0.00700
H 	H 	0.11230 0.34070 0.52730 0.08600
H 	H 	0.03170 0.30690 0.56820 0.08500
H 	H 	0.15710 0.32030 0.59510 0.02900
H 	H 	0.07720 0.28810 0.63640 0.02900
H 	H 	0.14550 0.25650 0.57000 0.06300
H 	H 	0.06810 0.22330 0.61600 0.05900
H 	H 	0.68310 0.35030 0.16550 -0.04500
H 	H 	0.71350 0.33150 0.23820 0.13300
H 	H 	0.64730 0.43970 0.24650 0.07800
H 	H 	0.58830 0.43480 0.19000 -0.00900
H 	H 	0.79890 0.41810 0.25310 0.06600
H 	H 	0.72790 0.42100 0.28540 0.06500
C 	C 	0.55504 0.49193 0.78121 0.29700
C 	C 	0.52330 0.48820 0.74670 -0.27500
C 	C 	0.50860 0.44610 0.74000 0.13800
C 	C 	0.52110 0.40240 0.77310 -0.20700
C 	C 	0.54863 0.40379 0.80950 0.14100
C 	C 	0.56610 0.44738 0.81448 -0.24900
C 	C 	0.59237 0.44403 0.85652 0.27600
C 	C 	0.65208 0.51944 0.90640 0.33700
C 	C 	0.67964 0.52081 0.94689 -0.57600
C 	C 	0.74730 0.55690 0.92880 0.40600
C 	C 	0.81290 0.57120 0.89450 -0.41400
C 	C 	0.87940 0.62200 0.87330 0.00400
C 	C 	0.89790 0.62430 0.92240 0.00100
C 	C 	0.96740 0.67210 0.90420 -0.41600
C 	C 	0.98250 0.68060 0.94960 0.68000
C 	C 	0.05010 0.72440 0.92950 -1.53400
C 	C 	0.06290 0.72700 0.96930 1.76300
C 	C 	0.13140 0.75930 0.94610 -1.48600
C 	C 	0.15380 0.76100 0.99040 0.70800
C 	C 	0.77040 0.62710 0.77490 0.11600
C 	C 	0.84120 0.65540 0.74380 -0.20300
C 	C 	0.87115 0.65180 0.70195 0.15500
C 	C 	0.82400 0.61960 0.69390 -0.21000
C 	C 	0.75350 0.59070 0.72890 0.14600
C 	C 	0.95020 0.68360 0.66580 -0.16100
C 	C 	0.75148 0.39023 0.95509 0.31700
C 	C 	0.81720 0.39040 0.93030 -0.29900
C 	C 	0.86840 0.38640 0.95300 0.17000
C 	C 	0.85450 0.38080 0.00170 -0.23000
C 	C 	0.78930 0.38150 0.02610 0.15100
C 	C 	0.73633 0.38457 0.00508 -0.26800
C 	C 	0.66878 0.38419 0.03455 0.27600
C 	C 	0.50291 0.38272 0.03059 0.25500
C 	C 	0.43040 0.37529 0.06159 -0.31300
C 	C 	0.38478 0.31696 0.09932 0.04500
C 	C 	0.31240 0.30920 0.13440 -0.18000
C 	C 	0.26760 0.25130 0.17430 -0.03200
C 	C 	0.19790 0.24420 0.21220 -0.14000
C 	C 	0.15440 0.18830 0.25200 -0.03400
C 	C 	0.08630 0.17970 0.29020 -0.16100
C 	C 	0.03360 0.12360 0.32680 0.02900
C 	C 	0.96990 0.11900 0.36660 -0.29800
C 	C 	0.92250 0.06210 0.40840 0.26700
C 	C 	0.86380 0.05180 0.45300 -0.66200
C 	C 	0.52749 0.71638 0.79821 0.28500
C 	C 	0.53954 0.77038 0.76986 -0.23900
C 	C 	0.59950 0.80310 0.72530 0.11200
C 	C 	0.65040 0.78460 0.70890 -0.17900
C 	C 	0.64030 0.73170 0.73820 0.11700
C 	C 	0.57846 0.69782 0.78124 -0.24100
C 	C 	0.56956 0.64276 0.80568 0.27700
C 	C 	0.44588 0.52570 0.90126 0.26200
C 	C 	0.43228 0.46866 0.93002 -0.31700
C 	C 	0.36000 0.43380 0.94100 0.08800
C 	C 	0.35760 0.43750 0.89160 -0.20600
C 	C 	0.28940 0.39830 0.89920 -0.00400
C 	C 	0.27900 0.39540 0.85370 -0.16500
C 	C 	0.14550 0.81570 0.55130 0.22800
C 	C 	0.07710 0.77720 0.58360 -0.30200
C 	C 	0.05500 0.76370 0.62920 0.18200
C 	C 	0.11480 0.77080 0.65010 -0.18200
C 	C 	0.18250 0.80380 0.61350 0.07900
C 	C 	0.98110 0.72750 0.67220 -0.16800
C 	C 	0.33625 0.78121 0.72686 0.29700
C 	C 	0.27000 0.74670 0.76510 -0.27500
C 	C 	0.24860 0.74000 0.81390 0.13800
C 	C 	0.29420 0.77310 0.82450 -0.20700
C 	C 	0.35813 0.80950 0.78671 0.14100
C 	C 	0.38058 0.81448 0.73814 -0.24900
C 	C 	0.44889 0.85652 0.69945 0.27600
C 	C 	0.55848 0.90640 0.57416 0.33600
C 	C 	0.62653 0.94689 0.53230 -0.57300
C 	C 	0.67610 0.92880 0.51430 0.40100
C 	C 	0.70740 0.89450 0.53430 -0.41000
C 	C 	0.75270 0.87330 0.50470 -0.00100
C 	C 	0.82030 0.92240 0.45330 0.01000
C 	C 	0.87160 0.90420 0.42370 -0.43500
C 	C 	0.93210 0.94960 0.36980 0.72200
C 	C 	0.97960 0.92950 0.34610 -1.61300
C 	C 	0.03220 0.96930 0.30370 1.86800
C 	C 	0.07750 0.94610 0.29460 -1.57200
C 	C 	0.14420 0.99040 0.24860 0.76700
C 	C 	0.54530 0.77490 0.59800 0.11600
C 	C 	0.58500 0.74380 0.60080 -0.20200
C 	C 	0.57310 0.70195 0.64625 0.15500
C 	C 	0.51790 0.69390 0.68650 -0.21000
C 	C 	0.48240 0.72890 0.68040 0.14600
C 	C 	0.61600 0.66580 0.65060 -0.16000
C 	C 	0.70657 0.95509 0.65468 0.32100
C 	C 	0.74750 0.93030 0.67930 -0.30200
C 	C 	0.82140 0.95300 0.66060 0.17600
C 	C 	0.85620 0.00170 0.61750 -0.23500
C 	C 	0.81540 0.02610 0.59240 0.15400
C 	C 	0.74141 0.00508 0.61035 -0.27100
C 	C 	0.70333 0.03455 0.58126 0.27700
C 	C 	0.53350 0.03059 0.58669 0.25500
C 	C 	0.49199 0.06159 0.56312 -0.31300
C 	C 	0.48410 0.09932 0.58372 0.04500
C 	C 	0.44680 0.13440 0.55640 -0.18000
C 	C 	0.44190 0.17430 0.57440 -0.03200
C 	C 	0.41010 0.21220 0.54360 -0.14000
C 	C 	0.40640 0.25200 0.55970 -0.03400
C 	C 	0.37650 0.29020 0.53010 -0.16200
C 	C 	0.36040 0.32680 0.54960 0.02900
C 	C 	0.33650 0.36660 0.51440 -0.29700
C 	C 	0.33090 0.40840 0.52950 0.26700
C 	C 	0.31680 0.45300 0.49520 -0.66200
C 	C 	0.32570 0.79821 0.48541 0.28500
C 	C 	0.30940 0.76986 0.45976 -0.23900
C 	C 	0.32480 0.72530 0.47160 0.11200
C 	C 	0.35930 0.70890 0.50650 -0.17900
C 	C 	0.37850 0.73820 0.53010 0.11700
C 	C 	0.35970 0.78124 0.52094 -0.24100
C 	C 	0.37524 0.80568 0.55156 0.27700
C 	C 	0.34714 0.90126 0.57304 0.26200
C 	C 	0.36230 0.93002 0.60132 -0.31700
C 	C 	0.30100 0.94100 0.62520 0.08800
C 	C 	0.24920 0.89160 0.67090 -0.20600
C 	C 	0.18860 0.89920 0.70250 -0.00400
C 	C 	0.13270 0.85370 0.75090 -0.16500
C 	C 	0.69680 0.55130 0.63300 0.22800
C 	C 	0.66070 0.58360 0.63920 -0.30300
C 	C 	0.68420 0.62920 0.60710 0.18300
C 	C 	0.76490 0.65010 0.57910 -0.18200
C 	C 	0.79600 0.61350 0.58270 0.07900
C 	C 	0.65330 0.67220 0.60030 -0.16900
C 	C 	0.06311 0.72686 0.49193 0.29800
C 	C 	0.03510 0.76510 0.48820 -0.27700
C 	C 	0.06250 0.81390 0.44610 0.13900
C 	C 	0.11870 0.82450 0.40240 -0.20800
C 	C 	0.14484 0.78671 0.40379 0.14200
C 	C 	0.11872 0.73814 0.44738 -0.24900
C 	C 	0.14834 0.69945 0.44403 0.27600
C 	C 	0.13264 0.57416 0.51944 0.33700
C 	C 	0.15883 0.53230 0.52081 -0.57600
C 	C 	0.19040 0.51430 0.55690 0.40600
C 	C 	0.24170 0.53430 0.57120 -0.41400
C 	C 	0.25740 0.50470 0.62200 0.00400
C 	C 	0.27360 0.45330 0.62430 0.00200
C 	C 	0.29530 0.42370 0.67210 -0.41800
C 	C 	0.30190 0.36980 0.68060 0.68500
C 	C 	0.32570 0.34610 0.72440 -1.54300
C 	C 	0.33590 0.30370 0.72700 1.77400
C 	C 	0.37210 0.29460 0.75930 -1.49400
C 	C 	0.39280 0.24860 0.76100 0.71300
C 	C 	0.14330 0.59800 0.62710 0.11600
C 	C 	0.18580 0.60080 0.65540 -0.20200
C 	C 	0.21935 0.64625 0.65180 0.15500
C 	C 	0.20440 0.68650 0.61960 -0.21000
C 	C 	0.16280 0.68040 0.59070 0.14600
C 	C 	0.26660 0.65060 0.68360 -0.16000
C 	C 	0.36125 0.65468 0.39023 0.31800
C 	C 	0.42680 0.67930 0.39040 -0.30000
C 	C 	0.48200 0.66060 0.38640 0.17200
C 	C 	0.47370 0.61750 0.38080 -0.23200
C 	C 	0.40780 0.59240 0.38150 0.15200
C 	C 	0.35176 0.61035 0.38457 -0.26900
C 	C 	0.28459 0.58126 0.38419 0.27600
C 	C 	0.12019 0.58669 0.38272 0.25500
C 	C 	0.05511 0.56312 0.37529 -0.31300
C 	C 	0.06782 0.58372 0.31696 0.04600
C 	C 	0.00320 0.55640 0.30920 -0.18200
C 	C 	0.01630 0.57440 0.25130 -0.03100
C 	C 	0.95370 0.54360 0.24420 -0.14100
C 	C 	0.96610 0.55970 0.18830 -0.03200
C 	C 	0.90660 0.53010 0.17970 -0.16300
C 	C 	0.91000 0.54960 0.12360 0.03000
C 	C 	0.85090 0.51440 0.11900 -0.29700
C 	C 	0.86040 0.52950 0.06210 0.26700
C 	C 	0.81200 0.49520 0.05180 -0.66200
C 	C 	0.81111 0.48541 0.71638 0.28500
C 	C 	0.76916 0.45976 0.77038 -0.23900
C 	C 	0.79640 0.47160 0.80310 0.11200
C 	C 	0.86580 0.50650 0.78460 -0.17900
C 	C 	0.90860 0.53010 0.73170 0.11700
C 	C 	0.88064 0.52094 0.69782 -0.24100
C 	C 	0.92680 0.55156 0.64276 0.27700
C 	C 	0.92018 0.57304 0.52570 0.26200
C 	C 	0.96362 0.60132 0.46866 -0.31600
C 	C 	0.92620 0.62520 0.43380 0.08700
C 	C 	0.92010 0.67090 0.43750 -0.20600
C 	C 	0.89110 0.70250 0.39830 -0.00400
C 	C 	0.88360 0.75090 0.39540 -0.16500
C 	C 	0.32980 0.63300 0.81570 0.22800
C 	C 	0.29990 0.63920 0.77720 -0.30300
C 	C 	0.29130 0.60710 0.76370 0.18300
C 	C 	0.34400 0.57910 0.77080 -0.18200
C 	C 	0.37870 0.58270 0.80380 0.07900
C 	C 	0.25360 0.60030 0.72750 -0.16900
C 	C 	0.44496 0.50807 0.21879 0.29700
C 	C 	0.47670 0.51180 0.25330 -0.27500
C 	C 	0.49140 0.55390 0.26000 0.13800
C 	C 	0.47890 0.59760 0.22690 -0.20700
C 	C 	0.45137 0.59621 0.19050 0.14100
C 	C 	0.43390 0.55262 0.18552 -0.24900
C 	C 	0.40763 0.55597 0.14348 0.27600
C 	C 	0.34792 0.48056 0.09360 0.33700
C 	C 	0.32036 0.47919 0.05311 -0.57600
C 	C 	0.25270 0.44310 0.07120 0.40600
C 	C 	0.18710 0.42880 0.10550 -0.41400
C 	C 	0.12060 0.37800 0.12670 0.00400
C 	C 	0.10210 0.37570 0.07760 0.00100
C 	C 	0.03260 0.32790 0.09580 -0.41600
C 	C 	0.01750 0.31940 0.05040 0.68000
C 	C 	0.94990 0.27560 0.07050 -1.53400
C 	C 	0.93710 0.27300 0.03070 1.76300
C 	C 	0.86860 0.24070 0.05390 -1.48600
C 	C 	0.84620 0.23900 0.00960 0.70800
C 	C 	0.22960 0.37290 0.22510 0.11600
C 	C 	0.15880 0.34460 0.25620 -0.20300
C 	C 	0.12885 0.34820 0.29805 0.15500
C 	C 	0.17600 0.38040 0.30610 -0.21000
C 	C 	0.24650 0.40930 0.27110 0.14600
C 	C 	0.04980 0.31640 0.33420 -0.16100
C 	C 	0.24852 0.60977 0.04491 0.31700
C 	C 	0.18280 0.60960 0.06970 -0.29900
C 	C 	0.13160 0.61360 0.04700 0.17000
C 	C 	0.14550 0.61920 0.99830 -0.23000
C 	C 	0.21070 0.61850 0.97390 0.15100
C 	C 	0.26367 0.61543 0.99492 -0.26800
C 	C 	0.33122 0.61581 0.96545 0.27600
C 	C 	0.49709 0.61728 0.96941 0.25500
C 	C 	0.56960 0.62471 0.93841 -0.31300
C 	C 	0.61522 0.68304 0.90068 0.04500
C 	C 	0.68760 0.69080 0.86560 -0.18000
C 	C 	0.73240 0.74870 0.82570 -0.03200
C 	C 	0.80210 0.75580 0.78780 -0.14000
C 	C 	0.84560 0.81170 0.74800 -0.03400
C 	C 	0.91370 0.82030 0.70980 -0.16100
C 	C 	0.96640 0.87640 0.67320 0.02900
C 	C 	0.03010 0.88100 0.63340 -0.29800
C 	C 	0.07750 0.93790 0.59160 0.26700
C 	C 	0.13620 0.94820 0.54700 -0.66200
C 	C 	0.47251 0.28362 0.20179 0.28500
C 	C 	0.46046 0.22962 0.23014 -0.23900
C 	C 	0.40050 0.19690 0.27470 0.11200
C 	C 	0.34960 0.21540 0.29110 -0.17900
C 	C 	0.35970 0.26830 0.26180 0.11700
C 	C 	0.42154 0.30218 0.21876 -0.24100
C 	C 	0.43044 0.35724 0.19432 0.27700
C 	C 	0.55412 0.47430 0.09874 0.26200
C 	C 	0.56772 0.53134 0.06998 -0.31700
C 	C 	0.64000 0.56620 0.05900 0.08800
C 	C 	0.64240 0.56250 0.10840 -0.20600
C 	C 	0.71060 0.60170 0.10080 -0.00400
C 	C 	0.72100 0.60460 0.14630 -0.16500
C 	C 	0.85450 0.18430 0.44870 0.22800
C 	C 	0.92290 0.22280 0.41640 -0.30200
C 	C 	0.94500 0.23630 0.37080 0.18200
C 	C 	0.88520 0.22920 0.34990 -0.18200
C 	C 	0.81750 0.19620 0.38650 0.07900
C 	C 	0.01890 0.27250 0.32780 -0.16800
C 	C 	0.66375 0.21879 0.27314 0.29700
C 	C 	0.73000 0.25330 0.23490 -0.27500
C 	C 	0.75140 0.26000 0.18610 0.13800
C 	C 	0.70580 0.22690 0.17550 -0.20700
C 	C 	0.64187 0.19050 0.21329 0.14100
C 	C 	0.61942 0.18552 0.26186 -0.24900
C 	C 	0.55111 0.14348 0.30055 0.27600
C 	C 	0.44152 0.09360 0.42584 0.33600
C 	C 	0.37347 0.05311 0.46770 -0.57300
C 	C 	0.32390 0.07120 0.48570 0.40100
C 	C 	0.29260 0.10550 0.46570 -0.41000
C 	C 	0.24730 0.12670 0.49530 -0.00100
C 	C 	0.17970 0.07760 0.54670 0.01000
C 	C 	0.12840 0.09580 0.57630 -0.43500
C 	C 	0.06790 0.05040 0.63020 0.72200
C 	C 	0.02040 0.07050 0.65390 -1.61300
C 	C 	0.96780 0.03070 0.69630 1.86800
C 	C 	0.92250 0.05390 0.70540 -1.57200
C 	C 	0.85580 0.00960 0.75140 0.76700
C 	C 	0.45470 0.22510 0.40200 0.11600
C 	C 	0.41500 0.25620 0.39920 -0.20200
C 	C 	0.42690 0.29805 0.35375 0.15500
C 	C 	0.48210 0.30610 0.31350 -0.21000
C 	C 	0.51760 0.27110 0.31960 0.14600
C 	C 	0.38400 0.33420 0.34940 -0.16000
C 	C 	0.29343 0.04491 0.34532 0.32100
C 	C 	0.25250 0.06970 0.32070 -0.30200
C 	C 	0.17860 0.04700 0.33940 0.17600
C 	C 	0.14380 0.99830 0.38250 -0.23500
C 	C 	0.18460 0.97390 0.40760 0.15400
C 	C 	0.25859 0.99492 0.38965 -0.27100
C 	C 	0.29667 0.96545 0.41874 0.27700
C 	C 	0.46650 0.96941 0.41331 0.25500
C 	C 	0.50801 0.93841 0.43688 -0.31300
C 	C 	0.51590 0.90068 0.41628 0.04500
C 	C 	0.55320 0.86560 0.44360 -0.18000
C 	C 	0.55810 0.82570 0.42560 -0.03200
C 	C 	0.58990 0.78780 0.45640 -0.14000
C 	C 	0.59360 0.74800 0.44030 -0.03400
C 	C 	0.62350 0.70980 0.46990 -0.16200
C 	C 	0.63960 0.67320 0.45040 0.02900
C 	C 	0.66350 0.63340 0.48560 -0.29700
C 	C 	0.66910 0.59160 0.47050 0.26700
C 	C 	0.68320 0.54700 0.50480 -0.66200
C 	C 	0.67430 0.20179 0.51459 0.28500
C 	C 	0.69060 0.23014 0.54024 -0.23900
C 	C 	0.67520 0.27470 0.52840 0.11200
C 	C 	0.64070 0.29110 0.49350 -0.17900
C 	C 	0.62150 0.26180 0.46990 0.11700
C 	C 	0.64030 0.21876 0.47906 -0.24100
C 	C 	0.62476 0.19432 0.44844 0.27700
C 	C 	0.65286 0.09874 0.42696 0.26200
C 	C 	0.63770 0.06998 0.39868 -0.31700
C 	C 	0.69900 0.05900 0.37480 0.08800
C 	C 	0.75080 0.10840 0.32910 -0.20600
C 	C 	0.81140 0.10080 0.29750 -0.00400
C 	C 	0.86730 0.14630 0.24910 -0.16500
C 	C 	0.30320 0.44870 0.36700 0.22800
C 	C 	0.33930 0.41640 0.36080 -0.30300
C 	C 	0.31580 0.37080 0.39290 0.18300
C 	C 	0.23510 0.34990 0.42090 -0.18200
C 	C 	0.20400 0.38650 0.41730 0.07900
C 	C 	0.34670 0.32780 0.39970 -0.16900
C 	C 	0.93689 0.27314 0.50807 0.29800
C 	C 	0.96490 0.23490 0.51180 -0.27700
C 	C 	0.93750 0.18610 0.55390 0.13900
C 	C 	0.88130 0.17550 0.59760 -0.20800
C 	C 	0.85516 0.21329 0.59621 0.14200
C 	C 	0.88128 0.26186 0.55262 -0.24900
C 	C 	0.85166 0.30055 0.55597 0.27600
C 	C 	0.86736 0.42584 0.48056 0.33700
C 	C 	0.84117 0.46770 0.47919 -0.57600
C 	C 	0.80960 0.48570 0.44310 0.40600
C 	C 	0.75830 0.46570 0.42880 -0.41400
C 	C 	0.74260 0.49530 0.37800 0.00400
C 	C 	0.72640 0.54670 0.37570 0.00200
C 	C 	0.70470 0.57630 0.32790 -0.41800
C 	C 	0.69810 0.63020 0.31940 0.68500
C 	C 	0.67430 0.65390 0.27560 -1.54300
C 	C 	0.66410 0.69630 0.27300 1.77400
C 	C 	0.62790 0.70540 0.24070 -1.49400
C 	C 	0.60720 0.75140 0.23900 0.71300
C 	C 	0.85670 0.40200 0.37290 0.11600
C 	C 	0.81420 0.39920 0.34460 -0.20200
C 	C 	0.78065 0.35375 0.34820 0.15500
C 	C 	0.79560 0.31350 0.38040 -0.21000
C 	C 	0.83720 0.31960 0.40930 0.14600
C 	C 	0.73340 0.34940 0.31640 -0.16000
C 	C 	0.63875 0.34532 0.60977 0.31800
C 	C 	0.57320 0.32070 0.60960 -0.30000
C 	C 	0.51800 0.33940 0.61360 0.17200
C 	C 	0.52630 0.38250 0.61920 -0.23200
C 	C 	0.59220 0.40760 0.61850 0.15200
C 	C 	0.64824 0.38965 0.61543 -0.26900
C 	C 	0.71541 0.41874 0.61581 0.27600
C 	C 	0.87981 0.41331 0.61728 0.25500
C 	C 	0.94489 0.43688 0.62471 -0.31300
C 	C 	0.93218 0.41628 0.68304 0.04600
C 	C 	0.99680 0.44360 0.69080 -0.18200
C 	C 	0.98370 0.42560 0.74870 -0.03100
C 	C 	0.04630 0.45640 0.75580 -0.14100
C 	C 	0.03390 0.44030 0.81170 -0.03200
C 	C 	0.09340 0.46990 0.82030 -0.16300
C 	C 	0.09000 0.45040 0.87640 0.03000
C 	C 	0.14910 0.48560 0.88100 -0.29700
C 	C 	0.13960 0.47050 0.93790 0.26700
C 	C 	0.18800 0.50480 0.94820 -0.66200
C 	C 	0.18889 0.51459 0.28362 0.28500
C 	C 	0.23084 0.54024 0.22962 -0.23900
C 	C 	0.20360 0.52840 0.19690 0.11200
C 	C 	0.13420 0.49350 0.21540 -0.17900
C 	C 	0.09140 0.46990 0.26830 0.11700
C 	C 	0.11936 0.47906 0.30218 -0.24100
C 	C 	0.07320 0.44844 0.35724 0.27700
C 	C 	0.07982 0.42696 0.47430 0.26200
C 	C 	0.03638 0.39868 0.53134 -0.31600
C 	C 	0.07380 0.37480 0.56620 0.08700
C 	C 	0.07990 0.32910 0.56250 -0.20600
C 	C 	0.10890 0.29750 0.60170 -0.00400
C 	C 	0.11640 0.24910 0.60460 -0.16500
C 	C 	0.67020 0.36700 0.18430 0.22800
C 	C 	0.70010 0.36080 0.22280 -0.30300
C 	C 	0.70870 0.39290 0.23630 0.18300
C 	C 	0.65600 0.42090 0.22920 -0.18200
C 	C 	0.62130 0.41730 0.19620 0.07900
C 	C 	0.74640 0.39970 0.27250 -0.16900
N 	N 	0.61128 0.48576 0.86162 -0.28400
N 	N 	0.63542 0.47729 0.90343 -0.25200
N 	N 	0.72863 0.59323 0.76824 -0.24700
N 	N 	0.61660 0.38636 0.01626 -0.29700
N 	N 	0.55356 0.38368 0.04940 -0.24000
N 	N 	0.50982 0.60864 0.84548 -0.28900
N 	N 	0.50599 0.55637 0.86410 -0.24200
N 	N 	0.19493 0.82830 0.56051 -0.27400
N 	N 	0.47290 0.86162 0.65262 -0.28400
N 	N 	0.53885 0.90343 0.61928 -0.25200
N 	N 	0.49687 0.76824 0.63853 -0.24700
N 	N 	0.63286 0.01626 0.59738 -0.29700
N 	N 	0.60296 0.04940 0.56692 -0.24000
N 	N 	0.35530 0.84548 0.54588 -0.28900
N 	N 	0.37009 0.86410 0.57953 -0.24200
N 	N 	0.75544 0.56051 0.61119 -0.27400
N 	N 	0.12552 0.65262 0.48576 -0.28500
N 	N 	0.15813 0.61928 0.47729 -0.25200
N 	N 	0.13540 0.63853 0.59323 -0.24700
N 	N 	0.23024 0.59738 0.38636 -0.29700
N 	N 	0.16988 0.56692 0.38368 -0.24000
N 	N 	0.90118 0.54588 0.60864 -0.28900
N 	N 	0.94962 0.57953 0.55637 -0.24200
N 	N 	0.36663 0.61119 0.82830 -0.27400
N 	N 	0.38872 0.51424 0.13838 -0.28400
N 	N 	0.36458 0.52271 0.09657 -0.25200
N 	N 	0.27137 0.40677 0.23176 -0.24700
N 	N 	0.38340 0.61364 0.98374 -0.29700
N 	N 	0.44644 0.61632 0.95060 -0.24000
N 	N 	0.49018 0.39136 0.15452 -0.28900
N 	N 	0.49401 0.44363 0.13590 -0.24200
N 	N 	0.80507 0.17170 0.43949 -0.27400
N 	N 	0.52710 0.13838 0.34738 -0.28400
N 	N 	0.46115 0.09657 0.38072 -0.25200
N 	N 	0.50313 0.23176 0.36147 -0.24700
N 	N 	0.36714 0.98374 0.40262 -0.29700
N 	N 	0.39704 0.95060 0.43308 -0.24000
N 	N 	0.64470 0.15452 0.45412 -0.28900
N 	N 	0.62991 0.13590 0.42047 -0.24200
N 	N 	0.24456 0.43949 0.38881 -0.27400
N 	N 	0.87448 0.34738 0.51424 -0.28500
N 	N 	0.84187 0.38072 0.52271 -0.25200
N 	N 	0.86460 0.36147 0.40677 -0.24700
N 	N 	0.76976 0.40262 0.61364 -0.29700
N 	N 	0.83012 0.43308 0.61632 -0.24000
N 	N 	0.09882 0.45412 0.39136 -0.28900
N 	N 	0.05038 0.42047 0.44363 -0.24200
N 	N 	0.63337 0.38881 0.17170 -0.27400
O 	O 	0.57473 0.53756 0.77947 -0.47300
O 	O 	0.59450 0.40090 0.88800 -0.43400
O 	O 	0.64528 0.56150 0.87436 -0.45800
O 	O 	0.70400 0.39370 0.93120 -0.48400
O 	O 	0.66270 0.38195 0.07845 -0.42000
O 	O 	0.51256 0.38563 0.98505 -0.44100
O 	O 	0.46641 0.68750 0.83947 -0.46100
O 	O 	0.61768 0.62880 0.78686 -0.41700
O 	O 	0.39579 0.54103 0.91776 -0.43800
O 	O 	0.35420 0.77947 0.68297 -0.47300
O 	O 	0.48250 0.88800 0.71110 -0.43400
O 	O 	0.51964 0.87436 0.56414 -0.45800
O 	O 	0.63520 0.93120 0.67510 -0.48400
O 	O 	0.74115 0.07845 0.53960 -0.42000
O 	O 	0.49761 0.98505 0.62932 -0.44000
O 	O 	0.30588 0.83947 0.47303 -0.46100
O 	O 	0.40454 0.78686 0.58434 -0.41700
O 	O 	0.31355 0.91776 0.54121 -0.43800
O 	O 	0.03717 0.68297 0.53756 -0.47400
O 	O 	0.19360 0.71110 0.40090 -0.43400
O 	O 	0.08378 0.56414 0.56150 -0.45800
O 	O 	0.31030 0.67510 0.39370 -0.48400
O 	O 	0.28075 0.53960 0.38195 -0.42000
O 	O 	0.12693 0.62932 0.38563 -0.44100
O 	O 	0.77891 0.47303 0.68750 -0.46100
O 	O 	0.98888 0.58434 0.62880 -0.41700
O 	O 	0.85476 0.54121 0.54103 -0.43800
O 	O 	0.42527 0.46244 0.22053 -0.47300
O 	O 	0.40550 0.59910 0.11200 -0.43400
O 	O 	0.35472 0.43850 0.12564 -0.45800
O 	O 	0.29600 0.60630 0.06880 -0.48400
O 	O 	0.33730 0.61805 0.92155 -0.42000
O 	O 	0.48744 0.61437 0.01495 -0.44100
O 	O 	0.53359 0.31250 0.16053 -0.46100
O 	O 	0.38232 0.37120 0.21314 -0.41700
O 	O 	0.60421 0.45897 0.08224 -0.43800
O 	O 	0.64580 0.22053 0.31703 -0.47300
O 	O 	0.51750 0.11200 0.28890 -0.43400
O 	O 	0.48036 0.12564 0.43586 -0.45800
O 	O 	0.36480 0.06880 0.32490 -0.48400
O 	O 	0.25885 0.92155 0.46040 -0.42000
O 	O 	0.50239 0.01495 0.37068 -0.44000
O 	O 	0.69412 0.16053 0.52697 -0.46100
O 	O 	0.59546 0.21314 0.41566 -0.41700
O 	O 	0.68645 0.08224 0.45879 -0.43800
O 	O 	0.96283 0.31703 0.46244 -0.47400
O 	O 	0.80640 0.28890 0.59910 -0.43400
O 	O 	0.91622 0.43586 0.43850 -0.45800
O 	O 	0.68970 0.32490 0.60630 -0.48400
O 	O 	0.71925 0.46040 0.61805 -0.42000
O 	O 	0.87307 0.37068 0.61437 -0.44100
O 	O 	0.22109 0.52697 0.31250 -0.46100
O 	O 	0.01112 0.41566 0.37120 -0.41700
O 	O 	0.14524 0.45879 0.45897 -0.43800
