data_crystal

_cell_length_a 31.23600
_cell_length_b 31.23600
_cell_length_c 28.19400
_cell_angle_alpha 90.00000
_cell_angle_beta  90.00000
_cell_angle_gamma 90.00000

_symmetry_space_group_name_	'P 1'
_symmetry_space_group_name_H-M	'P 1'

loop_
_symmetry_equiv_pos_as_xyz
  x,y,z

loop_
_atom_site_label
_atom_site_type_symbol
_atom_site_fract_x
_atom_site_fract_y
_atom_site_fract_z
_atom_site_charge
C 	C 	0.90230 0.20030 0.43560 0.38100
C 	C 	0.92610 0.22082 0.39600 -0.12500
C 	C 	0.91290 0.25990 0.37810 0.06900
H 	H 	0.88920 0.27330 0.39130 0.03500
C 	C 	0.93430 0.27940 0.34090 -0.13200
H 	H 	0.92500 0.30570 0.32930 0.10600
C 	C 	0.98340 0.22170 0.33890 -0.10200
H 	H 	0.00730 0.20820 0.32620 0.06000
C 	C 	0.96130 0.20260 0.37690 0.05400
H 	H 	0.97110 0.17680 0.38910 0.03400
C 	C 	0.97020 0.25930 0.32070 0.08200
C 	C 	0.99630 0.32420 0.27790 0.04400
H 	H 	0.98360 0.34070 0.30160 0.04700
C 	C 	0.99270 0.27969 0.28040 -0.00600
C 	C 	0.01220 0.25560 0.24460 -0.05300
H 	H 	0.01070 0.22590 0.24550 0.04700
C 	C 	0.03420 0.27600 0.20740 -0.03500
C 	C 	0.03500 0.32044 0.20830 0.02300
H 	H 	0.04870 0.33470 0.18370 0.04400
C 	C 	0.05670 0.25171 0.17020 0.11700
C 	C 	0.04070 0.21380 0.15530 -0.16200
H 	H 	0.01590 0.20320 0.16920 0.08700
C 	C 	0.06100 0.18980 0.11890 0.08200
H 	H 	0.04920 0.16420 0.10840 0.01400
C 	C 	0.09900 0.20520 0.09930 -0.15700
C 	C 	0.11400 0.24320 0.11500 0.10100
H 	H 	0.13890 0.25440 0.10170 0.01600
C 	C 	0.09330 0.26590 0.15050 -0.17200
H 	H 	0.10500 0.29150 0.16110 0.10100
C 	C 	0.12180 0.18020 0.06320 0.38500
O 	O 	0.15695 0.19510 0.04884 -0.41600
O 	O 	0.10478 0.14601 0.04909 -0.42200
Cu	Cu	0.02158 0.40859 0.24561 0.91100
N 	N 	0.01703 0.34408 0.24286 -0.19200
O 	O 	0.86918 0.21796 0.45075 -0.40800
O 	O 	0.91733 0.16539 0.45027 -0.41000
O 	O 	0.03438 0.40016 0.31434 -0.43600
O 	O 	0.02586 0.46813 0.35192 -0.39800
O 	O 	0.09350 0.44760 0.31931 -0.42900
O 	O 	0.06743 0.41386 0.38886 -0.25800
O 	O 	0.95894 0.41900 0.22080 -0.41300
O 	O 	0.91860 0.38253 0.28180 -0.27500
S 	S 	0.05600 0.43211 0.34416 0.72900
C 	C 	0.09770 0.79970 0.43560 0.39900
C 	C 	0.07390 0.77918 0.39600 -0.17600
C 	C 	0.08710 0.74010 0.37810 0.12000
H 	H 	0.11080 0.72670 0.39130 0.01600
C 	C 	0.06570 0.72060 0.34090 -0.19200
H 	H 	0.07500 0.69430 0.32930 0.12500
C 	C 	0.01660 0.77830 0.33890 -0.23000
H 	H 	0.99270 0.79180 0.32620 0.12900
C 	C 	0.03870 0.79740 0.37690 0.13400
H 	H 	0.02890 0.82320 0.38910 0.00200
C 	C 	0.02980 0.74070 0.32070 0.15600
C 	C 	0.00370 0.67580 0.27790 0.04000
H 	H 	0.01640 0.65930 0.30160 0.04000
C 	C 	0.00730 0.72031 0.28040 -0.07500
C 	C 	0.98780 0.74440 0.24460 0.01500
H 	H 	0.98930 0.77410 0.24550 0.03100
C 	C 	0.96580 0.72400 0.20740 -0.05900
C 	C 	0.96500 0.67956 0.20830 0.04300
H 	H 	0.95130 0.66530 0.18370 0.04000
C 	C 	0.94330 0.74829 0.17020 0.13600
C 	C 	0.95930 0.78620 0.15530 -0.17200
H 	H 	0.98410 0.79680 0.16920 0.09800
C 	C 	0.93900 0.81020 0.11890 0.09200
H 	H 	0.95080 0.83580 0.10840 0.01700
C 	C 	0.90100 0.79480 0.09930 -0.16100
C 	C 	0.88600 0.75680 0.11500 0.11100
H 	H 	0.86110 0.74560 0.10170 0.01400
C 	C 	0.90670 0.73410 0.15050 -0.18400
H 	H 	0.89500 0.70850 0.16110 0.10600
C 	C 	0.87820 0.81980 0.06320 0.38700
O 	O 	0.84305 0.80490 0.04884 -0.41600
O 	O 	0.89522 0.85399 0.04909 -0.41800
Cu	Cu	0.97842 0.59141 0.24561 0.91700
N 	N 	0.98297 0.65592 0.24286 -0.18100
O 	O 	0.13082 0.78204 0.45075 -0.41300
O 	O 	0.08267 0.83461 0.45027 -0.41500
O 	O 	0.96562 0.59984 0.31434 -0.42500
O 	O 	0.97414 0.53187 0.35192 -0.38400
O 	O 	0.90650 0.55240 0.31931 -0.42700
O 	O 	0.93257 0.58614 0.38886 -0.24900
O 	O 	0.04106 0.58100 0.22080 -0.42900
O 	O 	0.08140 0.61747 0.28180 -0.28100
S 	S 	0.94400 0.56789 0.34416 0.72500
C 	C 	0.79970 0.90230 0.93560 0.37600
C 	C 	0.77918 0.92610 0.89600 -0.11300
C 	C 	0.74010 0.91290 0.87810 0.06400
H 	H 	0.72670 0.88920 0.89130 0.04200
C 	C 	0.72060 0.93430 0.84090 -0.12400
H 	H 	0.69430 0.92500 0.82930 0.10500
C 	C 	0.77830 0.98340 0.83890 -0.09300
H 	H 	0.79180 0.00730 0.82620 0.06200
C 	C 	0.79740 0.96130 0.87690 0.04900
H 	H 	0.82320 0.97110 0.88910 0.04300
C 	C 	0.74070 0.97020 0.82070 0.07900
C 	C 	0.67580 0.99630 0.77790 0.04400
H 	H 	0.65930 0.98360 0.80160 0.04900
C 	C 	0.72031 0.99270 0.78040 -0.00100
C 	C 	0.74440 0.01220 0.74460 -0.05600
H 	H 	0.77410 0.01070 0.74550 0.05100
C 	C 	0.72400 0.03420 0.70740 -0.03000
C 	C 	0.67956 0.03500 0.70830 0.02300
H 	H 	0.66530 0.04870 0.68370 0.04600
C 	C 	0.74829 0.05670 0.67020 0.11400
C 	C 	0.78620 0.04070 0.65530 -0.15400
H 	H 	0.79680 0.01590 0.66920 0.08900
C 	C 	0.81020 0.06100 0.61890 0.07900
H 	H 	0.83580 0.04920 0.60840 0.02200
C 	C 	0.79480 0.09900 0.59930 -0.14800
C 	C 	0.75680 0.11400 0.61500 0.09700
H 	H 	0.74560 0.13890 0.60170 0.02300
C 	C 	0.73410 0.09330 0.65050 -0.16500
H 	H 	0.70850 0.10500 0.66110 0.10100
C 	C 	0.81980 0.12180 0.56320 0.38300
O 	O 	0.80490 0.15695 0.54884 -0.40500
O 	O 	0.85399 0.10478 0.54909 -0.40900
Cu	Cu	0.59141 0.02158 0.74561 0.91100
N 	N 	0.65592 0.01703 0.74286 -0.19000
O 	O 	0.78204 0.86918 0.95075 -0.38700
O 	O 	0.83461 0.91733 0.95027 -0.38700
O 	O 	0.59984 0.03438 0.81434 -0.43400
O 	O 	0.53187 0.02586 0.85192 -0.39300
O 	O 	0.55240 0.09350 0.81931 -0.42600
O 	O 	0.58614 0.06743 0.88886 -0.24700
O 	O 	0.58100 0.95894 0.72080 -0.41100
O 	O 	0.61747 0.91860 0.78180 -0.27100
S 	S 	0.56789 0.05600 0.84416 0.72700
C 	C 	0.20030 0.09770 0.93560 0.39500
C 	C 	0.22082 0.07390 0.89600 -0.16700
C 	C 	0.25990 0.08710 0.87810 0.11600
H 	H 	0.27330 0.11080 0.89130 0.02300
C 	C 	0.27940 0.06570 0.84090 -0.18500
H 	H 	0.30570 0.07500 0.82930 0.12500
C 	C 	0.22170 0.01660 0.83890 -0.22400
H 	H 	0.20820 0.99270 0.82620 0.12800
C 	C 	0.20260 0.03870 0.87690 0.12900
H 	H 	0.17680 0.02890 0.88910 0.00700
C 	C 	0.25930 0.02980 0.82070 0.15300
C 	C 	0.32420 0.00370 0.77790 0.03900
H 	H 	0.34070 0.01640 0.80160 0.04200
C 	C 	0.27969 0.00730 0.78040 -0.07200
C 	C 	0.25560 0.98780 0.74460 0.01400
H 	H 	0.22590 0.98930 0.74550 0.03200
C 	C 	0.27600 0.96580 0.70740 -0.05600
C 	C 	0.32044 0.96500 0.70830 0.04200
H 	H 	0.33470 0.95130 0.68370 0.04200
C 	C 	0.25171 0.94330 0.67020 0.13400
C 	C 	0.21380 0.95930 0.65530 -0.16700
H 	H 	0.20320 0.98410 0.66920 0.09800
C 	C 	0.18980 0.93900 0.61890 0.09000
H 	H 	0.16420 0.95080 0.60840 0.02000
C 	C 	0.20520 0.90100 0.59930 -0.15500
C 	C 	0.24320 0.88600 0.61500 0.10800
H 	H 	0.25440 0.86110 0.60170 0.02000
C 	C 	0.26590 0.90670 0.65050 -0.17900
H 	H 	0.29150 0.89500 0.66110 0.10700
C 	C 	0.18020 0.87820 0.56320 0.38600
O 	O 	0.19510 0.84305 0.54884 -0.40500
O 	O 	0.14601 0.89522 0.54909 -0.40900
Cu	Cu	0.40859 0.97842 0.74561 0.91800
N 	N 	0.34408 0.98297 0.74286 -0.18000
O 	O 	0.21796 0.13082 0.95075 -0.39300
O 	O 	0.16539 0.08267 0.95027 -0.39700
O 	O 	0.40016 0.96562 0.81434 -0.42300
O 	O 	0.46813 0.97414 0.85192 -0.38000
O 	O 	0.44760 0.90650 0.81931 -0.42400
O 	O 	0.41386 0.93257 0.88886 -0.23900
O 	O 	0.41900 0.04106 0.72080 -0.42700
O 	O 	0.38253 0.08140 0.78180 -0.27800
S 	S 	0.43211 0.94400 0.84416 0.72300
C 	C 	0.59770 0.70030 0.56440 0.39000
C 	C 	0.57390 0.72082 0.60400 -0.14900
C 	C 	0.58710 0.75990 0.62190 0.09400
H 	H 	0.61080 0.77330 0.60870 0.02700
C 	C 	0.56570 0.77940 0.65910 -0.16000
H 	H 	0.57500 0.80570 0.67070 0.11600
C 	C 	0.51660 0.72170 0.66110 -0.16400
H 	H 	0.49270 0.70820 0.67380 0.09500
C 	C 	0.53870 0.70260 0.62310 0.09400
H 	H 	0.52890 0.67680 0.61090 0.01900
C 	C 	0.52980 0.75930 0.67930 0.11900
C 	C 	0.50370 0.82420 0.72210 0.04200
H 	H 	0.51640 0.84070 0.69840 0.04400
C 	C 	0.50730 0.77969 0.71960 -0.03800
C 	C 	0.48780 0.75560 0.75540 -0.02100
H 	H 	0.48930 0.72590 0.75450 0.04100
C 	C 	0.46580 0.77600 0.79260 -0.04000
C 	C 	0.46500 0.82044 0.79170 0.03200
H 	H 	0.45130 0.83470 0.81630 0.04700
C 	C 	0.44330 0.75171 0.82980 0.12100
C 	C 	0.45930 0.71380 0.84470 -0.15400
H 	H 	0.48410 0.70320 0.83080 0.09400
C 	C 	0.43900 0.68980 0.88110 0.08000
H 	H 	0.45080 0.66420 0.89160 0.02700
C 	C 	0.40100 0.70520 0.90070 -0.14100
C 	C 	0.38600 0.74320 0.88500 0.09700
H 	H 	0.36110 0.75440 0.89830 0.02800
C 	C 	0.40670 0.76590 0.84950 -0.16400
H 	H 	0.39500 0.79150 0.83890 0.10300
C 	C 	0.37820 0.68020 0.93680 0.38000
O 	O 	0.34305 0.69510 0.95116 -0.38500
O 	O 	0.39522 0.64601 0.95091 -0.38900
Cu	Cu	0.47842 0.90859 0.75439 0.91400
N 	N 	0.48297 0.84408 0.75714 -0.18500
O 	O 	0.63082 0.71796 0.54925 -0.41000
O 	O 	0.58267 0.66539 0.54973 -0.41200
O 	O 	0.46562 0.90016 0.68566 -0.43000
O 	O 	0.47414 0.96813 0.64808 -0.38500
O 	O 	0.40650 0.94760 0.68069 -0.42500
O 	O 	0.43257 0.91386 0.61114 -0.25100
O 	O 	0.54106 0.91900 0.77920 -0.41500
O 	O 	0.58140 0.88253 0.71820 -0.27400
S 	S 	0.44400 0.93211 0.65584 0.72500
C 	C 	0.40230 0.29970 0.56440 0.39100
C 	C 	0.42610 0.27918 0.60400 -0.15000
C 	C 	0.41290 0.24010 0.62190 0.09500
H 	H 	0.38920 0.22670 0.60870 0.02500
C 	C 	0.43430 0.22060 0.65910 -0.16100
H 	H 	0.42500 0.19430 0.67070 0.11500
C 	C 	0.48340 0.27830 0.66110 -0.16500
H 	H 	0.50730 0.29180 0.67380 0.09500
C 	C 	0.46130 0.29740 0.62310 0.09400
H 	H 	0.47110 0.32320 0.61090 0.01900
C 	C 	0.47020 0.24070 0.67930 0.11900
C 	C 	0.49630 0.17580 0.72210 0.04200
H 	H 	0.48360 0.15930 0.69840 0.04300
C 	C 	0.49270 0.22031 0.71960 -0.03800
C 	C 	0.51220 0.24440 0.75540 -0.02100
H 	H 	0.51070 0.27410 0.75450 0.04100
C 	C 	0.53420 0.22400 0.79260 -0.04100
C 	C 	0.53500 0.17956 0.79170 0.03200
H 	H 	0.54870 0.16530 0.81630 0.04600
C 	C 	0.55670 0.24829 0.82980 0.12100
C 	C 	0.54070 0.28620 0.84470 -0.15400
H 	H 	0.51590 0.29680 0.83080 0.09400
C 	C 	0.56100 0.31020 0.88110 0.08000
H 	H 	0.54920 0.33580 0.89160 0.02700
C 	C 	0.59900 0.29480 0.90070 -0.14100
C 	C 	0.61400 0.25680 0.88500 0.09700
H 	H 	0.63890 0.24560 0.89830 0.02800
C 	C 	0.59330 0.23410 0.84950 -0.16500
H 	H 	0.60500 0.20850 0.83890 0.10300
C 	C 	0.62180 0.31980 0.93680 0.38000
O 	O 	0.65695 0.30490 0.95116 -0.38500
O 	O 	0.60478 0.35399 0.95091 -0.38900
Cu	Cu	0.52158 0.09141 0.75439 0.91400
N 	N 	0.51703 0.15592 0.75714 -0.18500
O 	O 	0.36918 0.28204 0.54925 -0.41100
O 	O 	0.41733 0.33461 0.54973 -0.41200
O 	O 	0.53438 0.09984 0.68566 -0.43100
O 	O 	0.52586 0.03187 0.64808 -0.39800
O 	O 	0.59350 0.05240 0.68069 -0.43000
O 	O 	0.56743 0.08614 0.61114 -0.25600
O 	O 	0.45894 0.08100 0.77920 -0.42000
O 	O 	0.41860 0.11747 0.71820 -0.27800
S 	S 	0.55600 0.06789 0.65584 0.72800
C 	C 	0.70030 0.40230 0.06440 0.39200
C 	C 	0.72082 0.42610 0.10400 -0.15700
C 	C 	0.75990 0.41290 0.12190 0.09700
H 	H 	0.77330 0.38920 0.10870 0.02100
C 	C 	0.77940 0.43430 0.15910 -0.16600
H 	H 	0.80570 0.42500 0.17070 0.11600
C 	C 	0.72170 0.48340 0.16110 -0.17000
H 	H 	0.70820 0.50730 0.17380 0.09400
C 	C 	0.70260 0.46130 0.12310 0.09700
H 	H 	0.67680 0.47110 0.11090 0.01300
C 	C 	0.75930 0.47020 0.17930 0.12100
C 	C 	0.82420 0.49630 0.22210 0.04200
H 	H 	0.84070 0.48360 0.19840 0.04200
C 	C 	0.77969 0.49270 0.21960 -0.04100
C 	C 	0.75560 0.51220 0.25540 -0.01900
H 	H 	0.72590 0.51070 0.25450 0.03900
C 	C 	0.77600 0.53420 0.29260 -0.04500
C 	C 	0.82044 0.53500 0.29170 0.03300
H 	H 	0.83470 0.54870 0.31630 0.04400
C 	C 	0.75171 0.55670 0.32980 0.12400
C 	C 	0.71380 0.54070 0.34470 -0.16100
H 	H 	0.70320 0.51590 0.33080 0.09300
C 	C 	0.68980 0.56100 0.38110 0.08400
H 	H 	0.66420 0.54920 0.39160 0.02100
C 	C 	0.70520 0.59900 0.40070 -0.15100
C 	C 	0.74320 0.61400 0.38500 0.10200
H 	H 	0.75440 0.63890 0.39830 0.02200
C 	C 	0.76590 0.59330 0.34950 -0.17200
H 	H 	0.79150 0.60500 0.33890 0.10400
C 	C 	0.68020 0.62180 0.43680 0.38500
O 	O 	0.69510 0.65695 0.45116 -0.40400
O 	O 	0.64601 0.60478 0.45091 -0.41000
Cu	Cu	0.90859 0.52158 0.25439 0.91400
N 	N 	0.84408 0.51703 0.25714 -0.18600
O 	O 	0.71796 0.36918 0.04925 -0.42100
O 	O 	0.66539 0.41733 0.04973 -0.42300
O 	O 	0.90016 0.53438 0.18566 -0.43200
O 	O 	0.96813 0.52586 0.14808 -0.39000
O 	O 	0.94760 0.59350 0.18069 -0.42700
O 	O 	0.91386 0.56743 0.11114 -0.26100
O 	O 	0.91900 0.45894 0.27920 -0.41700
O 	O 	0.88253 0.41860 0.21820 -0.27800
S 	S 	0.93211 0.55600 0.15584 0.72700
C 	C 	0.29970 0.59770 0.06440 0.39200
C 	C 	0.27918 0.57390 0.10400 -0.15800
C 	C 	0.24010 0.58710 0.12190 0.09700
H 	H 	0.22670 0.61080 0.10870 0.02000
C 	C 	0.22060 0.56570 0.15910 -0.16700
H 	H 	0.19430 0.57500 0.17070 0.11500
C 	C 	0.27830 0.51660 0.16110 -0.17100
H 	H 	0.29180 0.49270 0.17380 0.09400
C 	C 	0.29740 0.53870 0.12310 0.09700
H 	H 	0.32320 0.52890 0.11090 0.01300
C 	C 	0.24070 0.52980 0.17930 0.12100
C 	C 	0.17580 0.50370 0.22210 0.04300
H 	H 	0.15930 0.51640 0.19840 0.04200
C 	C 	0.22031 0.50730 0.21960 -0.04200
C 	C 	0.24440 0.48780 0.25540 -0.01900
H 	H 	0.27410 0.48930 0.25450 0.03900
C 	C 	0.22400 0.46580 0.29260 -0.04500
C 	C 	0.17956 0.46500 0.29170 0.03300
H 	H 	0.16530 0.45130 0.31630 0.04400
C 	C 	0.24829 0.44330 0.32980 0.12400
C 	C 	0.28620 0.45930 0.34470 -0.16200
H 	H 	0.29680 0.48410 0.33080 0.09300
C 	C 	0.31020 0.43900 0.38110 0.08500
H 	H 	0.33580 0.45080 0.39160 0.02000
C 	C 	0.29480 0.40100 0.40070 -0.15200
C 	C 	0.25680 0.38600 0.38500 0.10300
H 	H 	0.24560 0.36110 0.39830 0.02000
C 	C 	0.23410 0.40670 0.34950 -0.17300
H 	H 	0.20850 0.39500 0.33890 0.10300
C 	C 	0.31980 0.37820 0.43680 0.38500
O 	O 	0.30490 0.34305 0.45116 -0.40600
O 	O 	0.35399 0.39522 0.45091 -0.41000
Cu	Cu	0.09141 0.47842 0.25439 0.91400
N 	N 	0.15592 0.48297 0.25714 -0.18600
O 	O 	0.28204 0.63082 0.04925 -0.42200
O 	O 	0.33461 0.58267 0.04973 -0.42300
O 	O 	0.09984 0.46562 0.18566 -0.43400
O 	O 	0.03187 0.47414 0.14808 -0.40300
O 	O 	0.05240 0.40650 0.18069 -0.43200
O 	O 	0.08614 0.43257 0.11114 -0.26600
O 	O 	0.08100 0.54106 0.27920 -0.42200
O 	O 	0.11747 0.58140 0.21820 -0.28100
S 	S 	0.06789 0.44400 0.15584 0.73000
C 	C 	0.09770 0.79970 0.56440 0.40000
C 	C 	0.07390 0.77918 0.60400 -0.17500
C 	C 	0.08710 0.74010 0.62190 0.12000
H 	H 	0.11080 0.72670 0.60870 0.01700
C 	C 	0.06570 0.72060 0.65910 -0.19100
H 	H 	0.07500 0.69430 0.67070 0.12600
C 	C 	0.01660 0.77830 0.66110 -0.22900
H 	H 	0.99270 0.79180 0.67380 0.12900
C 	C 	0.03870 0.79740 0.62310 0.13400
H 	H 	0.02890 0.82320 0.61090 0.00300
C 	C 	0.02980 0.74070 0.67930 0.15600
C 	C 	0.00370 0.67580 0.72210 0.04000
H 	H 	0.01640 0.65930 0.69840 0.04000
C 	C 	0.00730 0.72031 0.71960 -0.07200
C 	C 	0.98780 0.74440 0.75540 0.01300
H 	H 	0.98930 0.77410 0.75450 0.03300
C 	C 	0.96580 0.72400 0.79260 -0.05300
C 	C 	0.96500 0.67956 0.79170 0.04200
H 	H 	0.95130 0.66530 0.81630 0.04400
C 	C 	0.94330 0.74829 0.82980 0.13100
C 	C 	0.95930 0.78620 0.84470 -0.16000
H 	H 	0.98410 0.79680 0.83080 0.09900
C 	C 	0.93900 0.81020 0.88110 0.08500
H 	H 	0.95080 0.83580 0.89160 0.02900
C 	C 	0.90100 0.79480 0.90070 -0.14300
C 	C 	0.88600 0.75680 0.88500 0.10200
H 	H 	0.86110 0.74560 0.89830 0.02700
C 	C 	0.90670 0.73410 0.84950 -0.17000
H 	H 	0.89500 0.70850 0.83890 0.10600
C 	C 	0.87820 0.81980 0.93680 0.38100
O 	O 	0.84305 0.80490 0.95116 -0.38500
O 	O 	0.89522 0.85399 0.95091 -0.38700
Cu	Cu	0.97842 0.59141 0.75439 0.91800
N 	N 	0.98297 0.65592 0.75714 -0.18000
O 	O 	0.13082 0.78204 0.54925 -0.41300
O 	O 	0.08267 0.83461 0.54973 -0.41500
O 	O 	0.96562 0.59984 0.68566 -0.42500
O 	O 	0.97414 0.53187 0.64808 -0.38400
O 	O 	0.90650 0.55240 0.68069 -0.42600
O 	O 	0.93257 0.58614 0.61114 -0.24900
O 	O 	0.04106 0.58100 0.77920 -0.42500
O 	O 	0.08140 0.61747 0.71820 -0.27900
S 	S 	0.94400 0.56789 0.65584 0.72500
C 	C 	0.90230 0.20030 0.56440 0.38200
C 	C 	0.92610 0.22082 0.60400 -0.12400
C 	C 	0.91290 0.25990 0.62190 0.06900
H 	H 	0.88920 0.27330 0.60870 0.03500
C 	C 	0.93430 0.27940 0.65910 -0.13100
H 	H 	0.92500 0.30570 0.67070 0.10600
C 	C 	0.98340 0.22170 0.66110 -0.10100
H 	H 	0.00730 0.20820 0.67380 0.06100
C 	C 	0.96130 0.20260 0.62310 0.05400
H 	H 	0.97110 0.17680 0.61090 0.03500
C 	C 	0.97020 0.25930 0.67930 0.08200
C 	C 	0.99630 0.32420 0.72210 0.04400
H 	H 	0.98360 0.34070 0.69840 0.04700
C 	C 	0.99270 0.27969 0.71960 -0.00400
C 	C 	0.01220 0.25560 0.75540 -0.05500
H 	H 	0.01070 0.22590 0.75450 0.04900
C 	C 	0.03420 0.27600 0.79260 -0.02800
C 	C 	0.03500 0.32044 0.79170 0.02200
H 	H 	0.04870 0.33470 0.81630 0.04800
C 	C 	0.05670 0.25171 0.82980 0.11100
C 	C 	0.04070 0.21380 0.84470 -0.14900
H 	H 	0.01590 0.20320 0.83080 0.08800
C 	C 	0.06100 0.18980 0.88110 0.07500
H 	H 	0.04920 0.16420 0.89160 0.02600
C 	C 	0.09900 0.20520 0.90070 -0.13900
C 	C 	0.11400 0.24320 0.88500 0.09200
H 	H 	0.13890 0.25440 0.89830 0.02900
C 	C 	0.09330 0.26590 0.84950 -0.15900
H 	H 	0.10500 0.29150 0.83890 0.10000
C 	C 	0.12180 0.18020 0.93680 0.37900
O 	O 	0.15695 0.19510 0.95116 -0.38500
O 	O 	0.10478 0.14601 0.95091 -0.39100
Cu	Cu	0.02158 0.40859 0.75439 0.91100
N 	N 	0.01703 0.34408 0.75714 -0.19000
O 	O 	0.86918 0.21796 0.54925 -0.40800
O 	O 	0.91733 0.16539 0.54973 -0.40900
O 	O 	0.03438 0.40016 0.68566 -0.43600
O 	O 	0.02586 0.46813 0.64808 -0.39900
O 	O 	0.09350 0.44760 0.68069 -0.42800
O 	O 	0.06743 0.41386 0.61114 -0.25800
O 	O 	0.95894 0.41900 0.77920 -0.40900
O 	O 	0.91860 0.38253 0.71820 -0.27300
S 	S 	0.05600 0.43211 0.65584 0.72900
C 	C 	0.20030 0.09770 0.06440 0.40100
C 	C 	0.22082 0.07390 0.10400 -0.18400
C 	C 	0.25990 0.08710 0.12190 0.12300
H 	H 	0.27330 0.11080 0.10870 0.01100
C 	C 	0.27940 0.06570 0.15910 -0.19700
H 	H 	0.30570 0.07500 0.17070 0.12500
C 	C 	0.22170 0.01660 0.16110 -0.23600
H 	H 	0.20820 0.99270 0.17380 0.12700
C 	C 	0.20260 0.03870 0.12310 0.13700
H 	H 	0.17680 0.02890 0.11090 -0.00500
C 	C 	0.25930 0.02980 0.17930 0.15800
C 	C 	0.32420 0.00370 0.22210 0.04000
H 	H 	0.34070 0.01640 0.19840 0.03800
C 	C 	0.27969 0.00730 0.21960 -0.07700
C 	C 	0.25560 0.98780 0.25540 0.01500
H 	H 	0.22590 0.98930 0.25450 0.03000
C 	C 	0.27600 0.96580 0.29260 -0.05800
C 	C 	0.32044 0.96500 0.29170 0.04200
H 	H 	0.33470 0.95130 0.31630 0.04200
C 	C 	0.25171 0.94330 0.32980 0.13400
C 	C 	0.21380 0.95930 0.34470 -0.16800
H 	H 	0.20320 0.98410 0.33080 0.09700
C 	C 	0.18980 0.93900 0.38110 0.09000
H 	H 	0.16420 0.95080 0.39160 0.02000
C 	C 	0.20520 0.90100 0.40070 -0.15500
C 	C 	0.24320 0.88600 0.38500 0.10800
H 	H 	0.25440 0.86110 0.39830 0.01900
C 	C 	0.26590 0.90670 0.34950 -0.18000
H 	H 	0.29150 0.89500 0.33890 0.10600
C 	C 	0.18020 0.87820 0.43680 0.38600
O 	O 	0.19510 0.84305 0.45116 -0.40500
O 	O 	0.14601 0.89522 0.45091 -0.41000
Cu	Cu	0.40859 0.97842 0.25439 0.91700
N 	N 	0.34408 0.98297 0.25714 -0.18100
O 	O 	0.21796 0.13082 0.04925 -0.42400
O 	O 	0.16539 0.08267 0.04973 -0.42800
O 	O 	0.40016 0.96562 0.18566 -0.42800
O 	O 	0.46813 0.97414 0.14808 -0.38900
O 	O 	0.44760 0.90650 0.18069 -0.42900
O 	O 	0.41386 0.93257 0.11114 -0.26000
O 	O 	0.41900 0.04106 0.27920 -0.42700
O 	O 	0.38253 0.08140 0.21820 -0.28200
S 	S 	0.43211 0.94400 0.15584 0.72600
C 	C 	0.79970 0.90230 0.06440 0.38200
C 	C 	0.77918 0.92610 0.10400 -0.13100
C 	C 	0.74010 0.91290 0.12190 0.07100
H 	H 	0.72670 0.88920 0.10870 0.03000
C 	C 	0.72060 0.93430 0.15910 -0.13500
H 	H 	0.69430 0.92500 0.17070 0.10600
C 	C 	0.77830 0.98340 0.16110 -0.10500
H 	H 	0.79180 0.00730 0.17380 0.06100
C 	C 	0.79740 0.96130 0.12310 0.05700
H 	H 	0.82320 0.97110 0.11090 0.03200
C 	C 	0.74070 0.97020 0.17930 0.08400
C 	C 	0.67580 0.99630 0.22210 0.04500
H 	H 	0.65930 0.98360 0.19840 0.04600
C 	C 	0.72031 0.99270 0.21960 -0.00600
C 	C 	0.74440 0.01220 0.25540 -0.05400
H 	H 	0.77410 0.01070 0.25450 0.04800
C 	C 	0.72400 0.03420 0.29260 -0.03200
C 	C 	0.67956 0.03500 0.29170 0.02300
H 	H 	0.66530 0.04870 0.31630 0.04600
C 	C 	0.74829 0.05670 0.32980 0.11400
C 	C 	0.78620 0.04070 0.34470 -0.15500
H 	H 	0.79680 0.01590 0.33080 0.08900
C 	C 	0.81020 0.06100 0.38110 0.07900
H 	H 	0.83580 0.04920 0.39160 0.02100
C 	C 	0.79480 0.09900 0.40070 -0.14800
C 	C 	0.75680 0.11400 0.38500 0.09700
H 	H 	0.74560 0.13890 0.39830 0.02200
C 	C 	0.73410 0.09330 0.34950 -0.16600
H 	H 	0.70850 0.10500 0.33890 0.10000
C 	C 	0.81980 0.12180 0.43680 0.38300
O 	O 	0.80490 0.15695 0.45116 -0.40500
O 	O 	0.85399 0.10478 0.45091 -0.41000
Cu	Cu	0.59141 0.02158 0.25439 0.91100
N 	N 	0.65592 0.01703 0.25714 -0.19100
O 	O 	0.78204 0.86918 0.04925 -0.41900
O 	O 	0.83461 0.91733 0.04973 -0.41800
O 	O 	0.59984 0.03438 0.18566 -0.43800
O 	O 	0.53187 0.02586 0.14808 -0.40300
O 	O 	0.55240 0.09350 0.18069 -0.43100
O 	O 	0.58614 0.06743 0.11114 -0.26700
O 	O 	0.58100 0.95894 0.27920 -0.41100
O 	O 	0.61747 0.91860 0.21820 -0.27600
S 	S 	0.56789 0.05600 0.15584 0.73000
C 	C 	0.40230 0.29970 0.43560 0.39100
C 	C 	0.42610 0.27918 0.39600 -0.15100
C 	C 	0.41290 0.24010 0.37810 0.09500
H 	H 	0.38920 0.22670 0.39130 0.02400
C 	C 	0.43430 0.22060 0.34090 -0.16200
H 	H 	0.42500 0.19430 0.32930 0.11500
C 	C 	0.48340 0.27830 0.33890 -0.16600
H 	H 	0.50730 0.29180 0.32620 0.09500
C 	C 	0.46130 0.29740 0.37690 0.09400
H 	H 	0.47110 0.32320 0.38910 0.01800
C 	C 	0.47020 0.24070 0.32070 0.11900
C 	C 	0.49630 0.17580 0.27790 0.04200
H 	H 	0.48360 0.15930 0.30160 0.04300
C 	C 	0.49270 0.22031 0.28040 -0.04100
C 	C 	0.51220 0.24440 0.24460 -0.01900
H 	H 	0.51070 0.27410 0.24550 0.03900
C 	C 	0.53420 0.22400 0.20740 -0.04700
C 	C 	0.53500 0.17956 0.20830 0.03300
H 	H 	0.54870 0.16530 0.18370 0.04200
C 	C 	0.55670 0.24829 0.17020 0.12600
C 	C 	0.54070 0.28620 0.15530 -0.16700
H 	H 	0.51590 0.29680 0.16920 0.09200
C 	C 	0.56100 0.31020 0.11890 0.08700
H 	H 	0.54920 0.33580 0.10840 0.01500
C 	C 	0.59900 0.29480 0.09930 -0.15900
C 	C 	0.61400 0.25680 0.11500 0.10600
H 	H 	0.63890 0.24560 0.10170 0.01500
C 	C 	0.59330 0.23410 0.15050 -0.17800
H 	H 	0.60500 0.20850 0.16110 0.10300
C 	C 	0.62180 0.31980 0.06320 0.38600
O 	O 	0.65695 0.30490 0.04884 -0.41600
O 	O 	0.60478 0.35399 0.04909 -0.42000
Cu	Cu	0.52158 0.09141 0.24561 0.91400
N 	N 	0.51703 0.15592 0.24286 -0.18700
O 	O 	0.36918 0.28204 0.45075 -0.41200
O 	O 	0.41733 0.33461 0.45027 -0.41300
O 	O 	0.53438 0.09984 0.31434 -0.43100
O 	O 	0.52586 0.03187 0.35192 -0.39800
O 	O 	0.59350 0.05240 0.31931 -0.43000
O 	O 	0.56743 0.08614 0.38886 -0.25600
O 	O 	0.45894 0.08100 0.22080 -0.42300
O 	O 	0.41860 0.11747 0.28180 -0.27900
S 	S 	0.55600 0.06789 0.34416 0.72800
C 	C 	0.59770 0.70030 0.43560 0.39000
C 	C 	0.57390 0.72082 0.39600 -0.15000
C 	C 	0.58710 0.75990 0.37810 0.09400
H 	H 	0.61080 0.77330 0.39130 0.02600
C 	C 	0.56570 0.77940 0.34090 -0.16100
H 	H 	0.57500 0.80570 0.32930 0.11600
C 	C 	0.51660 0.72170 0.33890 -0.16500
H 	H 	0.49270 0.70820 0.32620 0.09400
C 	C 	0.53870 0.70260 0.37690 0.09400
H 	H 	0.52890 0.67680 0.38910 0.01800
C 	C 	0.52980 0.75930 0.32070 0.11900
C 	C 	0.50370 0.82420 0.27790 0.04200
H 	H 	0.51640 0.84070 0.30160 0.04400
C 	C 	0.50730 0.77969 0.28040 -0.04000
C 	C 	0.48780 0.75560 0.24460 -0.01900
H 	H 	0.48930 0.72590 0.24550 0.03900
C 	C 	0.46580 0.77600 0.20740 -0.04700
C 	C 	0.46500 0.82044 0.20830 0.03300
H 	H 	0.45130 0.83470 0.18370 0.04200
C 	C 	0.44330 0.75171 0.17020 0.12600
C 	C 	0.45930 0.71380 0.15530 -0.16700
H 	H 	0.48410 0.70320 0.16920 0.09300
C 	C 	0.43900 0.68980 0.11890 0.08700
H 	H 	0.45080 0.66420 0.10840 0.01500
C 	C 	0.40100 0.70520 0.09930 -0.15900
C 	C 	0.38600 0.74320 0.11500 0.10600
H 	H 	0.36110 0.75440 0.10170 0.01500
C 	C 	0.40670 0.76590 0.15050 -0.17800
H 	H 	0.39500 0.79150 0.16110 0.10400
C 	C 	0.37820 0.68020 0.06320 0.38600
O 	O 	0.34305 0.69510 0.04884 -0.41600
O 	O 	0.39522 0.64601 0.04909 -0.42000
Cu	Cu	0.47842 0.90859 0.24561 0.91400
N 	N 	0.48297 0.84408 0.24286 -0.18600
O 	O 	0.63082 0.71796 0.45075 -0.41000
O 	O 	0.58267 0.66539 0.45027 -0.41200
O 	O 	0.46562 0.90016 0.31434 -0.43000
O 	O 	0.47414 0.96813 0.35192 -0.38500
O 	O 	0.40650 0.94760 0.31931 -0.42500
O 	O 	0.43257 0.91386 0.38886 -0.25100
O 	O 	0.54106 0.91900 0.22080 -0.41800
O 	O 	0.58140 0.88253 0.28180 -0.27600
S 	S 	0.44400 0.93211 0.34416 0.72500
C 	C 	0.29970 0.59770 0.93560 0.38600
C 	C 	0.27918 0.57390 0.89600 -0.14000
C 	C 	0.24010 0.58710 0.87810 0.09000
H 	H 	0.22670 0.61080 0.89130 0.03200
C 	C 	0.22060 0.56570 0.84090 -0.15500
H 	H 	0.19430 0.57500 0.82930 0.11500
C 	C 	0.27830 0.51660 0.83890 -0.15900
H 	H 	0.29180 0.49270 0.82620 0.09500
C 	C 	0.29740 0.53870 0.87690 0.08900
H 	H 	0.32320 0.52890 0.88910 0.02500
C 	C 	0.24070 0.52980 0.82070 0.11600
C 	C 	0.17580 0.50370 0.77790 0.04100
H 	H 	0.15930 0.51640 0.80160 0.04500
C 	C 	0.22031 0.50730 0.78040 -0.03700
C 	C 	0.24440 0.48780 0.74460 -0.02100
H 	H 	0.27410 0.48930 0.74550 0.04100
C 	C 	0.22400 0.46580 0.70740 -0.04300
C 	C 	0.17956 0.46500 0.70830 0.03300
H 	H 	0.16530 0.45130 0.68370 0.04400
C 	C 	0.24829 0.44330 0.67020 0.12400
C 	C 	0.28620 0.45930 0.65530 -0.16100
H 	H 	0.29680 0.48410 0.66920 0.09400
C 	C 	0.31020 0.43900 0.61890 0.08500
H 	H 	0.33580 0.45080 0.60840 0.02100
C 	C 	0.29480 0.40100 0.59930 -0.15200
C 	C 	0.25680 0.38600 0.61500 0.10300
H 	H 	0.24560 0.36110 0.60170 0.02000
C 	C 	0.23410 0.40670 0.65050 -0.17200
H 	H 	0.20850 0.39500 0.66110 0.10300
C 	C 	0.31980 0.37820 0.56320 0.38500
O 	O 	0.30490 0.34305 0.54884 -0.40600
O 	O 	0.35399 0.39522 0.54909 -0.40900
Cu	Cu	0.09141 0.47842 0.74561 0.91400
N 	N 	0.15592 0.48297 0.74286 -0.18600
O 	O 	0.28204 0.63082 0.95075 -0.39000
O 	O 	0.33461 0.58267 0.95027 -0.39200
O 	O 	0.09984 0.46562 0.81434 -0.42900
O 	O 	0.03187 0.47414 0.85192 -0.39300
O 	O 	0.05240 0.40650 0.81931 -0.42700
O 	O 	0.08614 0.43257 0.88886 -0.24600
O 	O 	0.08100 0.54106 0.72080 -0.42100
O 	O 	0.11747 0.58140 0.78180 -0.27600
S 	S 	0.06789 0.44400 0.84416 0.72600
C 	C 	0.70030 0.40230 0.93560 0.38500
C 	C 	0.72082 0.42610 0.89600 -0.14000
C 	C 	0.75990 0.41290 0.87810 0.09000
H 	H 	0.77330 0.38920 0.89130 0.03300
C 	C 	0.77940 0.43430 0.84090 -0.15400
H 	H 	0.80570 0.42500 0.82930 0.11600
C 	C 	0.72170 0.48340 0.83890 -0.15800
H 	H 	0.70820 0.50730 0.82620 0.09500
C 	C 	0.70260 0.46130 0.87690 0.08900
H 	H 	0.67680 0.47110 0.88910 0.02500
C 	C 	0.75930 0.47020 0.82070 0.11600
C 	C 	0.82420 0.49630 0.77790 0.04100
H 	H 	0.84070 0.48360 0.80160 0.04600
C 	C 	0.77969 0.49270 0.78040 -0.03600
C 	C 	0.75560 0.51220 0.74460 -0.02100
H 	H 	0.72590 0.51070 0.74550 0.04100
C 	C 	0.77600 0.53420 0.70740 -0.04300
C 	C 	0.82044 0.53500 0.70830 0.03300
H 	H 	0.83470 0.54870 0.68370 0.04400
C 	C 	0.75171 0.55670 0.67020 0.12400
C 	C 	0.71380 0.54070 0.65530 -0.16100
H 	H 	0.70320 0.51590 0.66920 0.09300
C 	C 	0.68980 0.56100 0.61890 0.08500
H 	H 	0.66420 0.54920 0.60840 0.02100
C 	C 	0.70520 0.59900 0.59930 -0.15100
C 	C 	0.74320 0.61400 0.61500 0.10200
H 	H 	0.75440 0.63890 0.60170 0.02200
C 	C 	0.76590 0.59330 0.65050 -0.17100
H 	H 	0.79150 0.60500 0.66110 0.10400
C 	C 	0.68020 0.62180 0.56320 0.38500
O 	O 	0.69510 0.65695 0.54884 -0.40400
O 	O 	0.64601 0.60478 0.54909 -0.40900
Cu	Cu	0.90859 0.52158 0.74561 0.91400
N 	N 	0.84408 0.51703 0.74286 -0.18500
O 	O 	0.71796 0.36918 0.95075 -0.39000
O 	O 	0.66539 0.41733 0.95027 -0.39200
O 	O 	0.90016 0.53438 0.81434 -0.42800
O 	O 	0.96813 0.52586 0.85192 -0.38000
O 	O 	0.94760 0.59350 0.81931 -0.42200
O 	O 	0.91386 0.56743 0.88886 -0.24100
O 	O 	0.91900 0.45894 0.72080 -0.41700
O 	O 	0.88253 0.41860 0.78180 -0.27300
S 	S 	0.93211 0.55600 0.84416 0.72400
Cu	Cu	0.83302 0.19247 0.50000 0.90600
Cu	Cu	0.89026 0.13060 0.50000 0.90500
Cu	Cu	0.16698 0.80753 0.50000 0.90600
Cu	Cu	0.10974 0.86940 0.50000 0.90500
Cu	Cu	0.80753 0.83302 -0.00000 0.88700
Cu	Cu	0.86940 0.89026 -0.00000 0.88700
Cu	Cu	0.19247 0.16698 -0.00000 0.88800
Cu	Cu	0.13060 0.10974 -0.00000 0.88500
Cu	Cu	0.66698 0.69247 0.50000 0.90600
Cu	Cu	0.60974 0.63060 0.50000 0.90500
Cu	Cu	0.33302 0.30753 0.50000 0.90600
Cu	Cu	0.39026 0.36940 0.50000 0.90500
Cu	Cu	0.69247 0.33302 -0.00000 0.88800
Cu	Cu	0.63060 0.39026 -0.00000 0.88600
Cu	Cu	0.30753 0.66698 -0.00000 0.88700
Cu	Cu	0.36940 0.60974 -0.00000 0.88600
Cu	Cu	-0.00000 0.50000 0.29964 0.90600
Cu	Cu	0.50000 0.00000 0.79964 0.90700
Cu	Cu	0.50000 0.00000 0.70036 0.90600
Cu	Cu	0.00000 0.50000 0.20036 0.90600
Cu	Cu	-0.00000 0.50000 0.70036 0.90600
Cu	Cu	0.50000 -0.00000 0.20036 0.90600
Cu	Cu	0.50000 -0.00000 0.29964 0.90600
Cu	Cu	-0.00000 0.50000 0.79964 0.90700
O 	O 	0.02991 0.47009 0.25000 -0.67500
O 	O 	0.97009 0.52991 0.25000 -0.66400
O 	O 	0.52991 0.02991 0.75000 -0.67500
O 	O 	0.47009 0.97009 0.75000 -0.66400
O 	O 	0.97009 0.52991 0.75000 -0.66400
O 	O 	0.02991 0.47009 0.75000 -0.67500
O 	O 	0.47009 0.97009 0.25000 -0.66400
O 	O 	0.52991 0.02991 0.25000 -0.67500
S 	S 	0.91945 0.41945 0.25000 0.66500
S 	S 	0.08055 0.58055 0.25000 0.66700
S 	S 	0.58055 0.91945 0.75000 0.66400
S 	S 	0.41945 0.08055 0.75000 0.66600
S 	S 	0.08055 0.58055 0.75000 0.66600
S 	S 	0.91945 0.41945 0.75000 0.66400
S 	S 	0.41945 0.08055 0.25000 0.66700
S 	S 	0.58055 0.91945 0.25000 0.66500
