data_crystal

_cell_length_a 35.14300
_cell_length_b 15.03900
_cell_length_c 30.68000
_cell_angle_alpha 90.00000
_cell_angle_beta  101.54900
_cell_angle_gamma 90.00000

_symmetry_space_group_name_	'P 1'
_symmetry_space_group_name_H-M	'P 1'

loop_
_symmetry_equiv_pos_as_xyz
  x,y,z

loop_
_atom_site_label
_atom_site_type_symbol
_atom_site_fract_x
_atom_site_fract_y
_atom_site_fract_z
_atom_site_charge
Zn	Zn	0.86870 0.16047 0.06403 1.16500
I 	I 	0.88296 0.16684 0.98658 -0.38400
I 	I 	0.85130 0.01742 0.10034 -0.40100
Zn	Zn	0.55860 0.38770 0.22390 0.76200
I 	I 	0.49640 0.46020 0.18240 0.88100
Zn	Zn	0.66335 0.86518 0.90814 1.00700
I 	I 	0.63253 0.99123 0.94378 -14.93200
Zn	Zn	0.38309 0.84030 0.54490 1.25300
I 	I 	0.36700 0.98465 0.58114 -0.89100
Zn	Zn	0.16037 0.12657 0.41782 1.16100
I 	I 	0.12957 0.01110 0.46016 -0.38000
I 	I 	0.21269 0.10088 0.37222 -0.35500
Zn	Zn	0.08618 0.87078 0.23244 1.16300
I 	I 	0.13165 0.89321 0.30757 -0.40200
I 	I 	0.02622 0.96916 0.20957 -0.38500
N 	N 	0.60140 0.41300 0.18770 -0.59200
C 	C 	0.60180 0.48800 0.16650 0.18000
H 	H 	0.58440 0.53350 0.17170 -0.02700
C 	C 	0.62520 0.50600 0.13760 -0.20900
H 	H 	0.62180 0.55960 0.12120 0.11900
C 	C 	0.65380 0.44760 0.13130 0.08200
C 	C 	0.65520 0.37110 0.15550 -0.14100
H 	H 	0.67480 0.32840 0.15380 0.08800
C 	C 	0.62890 0.35390 0.18230 0.05400
H 	H 	0.63020 0.29850 0.19740 -0.07900
C 	C 	0.67810 0.46610 0.10090 0.09900
N 	N 	0.67180 0.53600 0.07430 -0.13500
C 	C 	0.69290 0.54030 0.04540 0.12300
N 	N 	0.72190 0.48390 0.03870 -0.13400
C 	C 	0.72750 0.41680 0.06980 0.11500
N 	N 	0.70670 0.40330 0.09900 -0.12900
C 	C 	0.76110 0.35650 0.06510 0.06800
C 	C 	0.77830 0.35800 0.03210 -0.13000
H 	H 	0.76930 0.39700 0.00790 0.08000
C 	C 	0.81090 0.30180 0.03130 0.06600
H 	H 	0.82360 0.30420 0.00670 0.00100
N 	N 	0.82370 0.24630 0.06470 -0.27400
C 	C 	0.80480 0.24600 0.09940 0.06300
H 	H 	0.81370 0.20820 0.12410 -0.01300
C 	C 	0.77330 0.29920 0.09930 -0.12600
H 	H 	0.75980 0.29610 0.12320 0.08100
C 	C 	0.68900 0.62050 0.01310 0.07600
C 	C 	0.65500 0.67140 0.00880 -0.17000
H 	H 	0.63590 0.65850 0.02590 0.08200
C 	C 	0.65040 0.73930 0.97960 0.08500
H 	H 	0.62730 0.77350 0.97690 -0.14700
N 	N 	0.67500 0.76220 0.95460 -0.33100
C 	C 	0.70760 0.71610 0.95870 0.07900
H 	H 	0.72590 0.73060 0.94080 -0.00800
C 	C 	0.71540 0.64510 0.98980 -0.12800
H 	H 	0.73970 0.61500 0.99400 0.06900
N 	N 	0.62450 0.79740 0.86000 -0.15300
C 	C 	0.60160 0.84300 0.82970 0.01400
H 	H 	0.59950 0.90520 0.83330 0.24000
C 	C 	0.57910 0.79990 0.79030 -0.05500
H 	H 	0.56230 0.83370 0.76830 0.07600
C 	C 	0.58260 0.71040 0.78560 0.02900
C 	C 	0.60380 0.66910 0.82150 -0.08100
H 	H 	0.60450 0.60600 0.82140 0.07400
C 	C 	0.62460 0.71310 0.85870 0.06500
H 	H 	0.63870 0.68010 0.88300 0.01900
C 	C 	0.56180 0.66000 0.74650 0.11100
N 	N 	0.53620 0.70690 0.71640 -0.13300
C 	C 	0.51650 0.65370 0.68250 0.08600
N 	N 	0.52140 0.56810 0.67840 -0.13000
C 	C 	0.54730 0.53240 0.71140 0.11500
N 	N 	0.56910 0.57600 0.74460 -0.14200
C 	C 	0.48890 0.69890 0.64990 0.09300
C 	C 	0.47720 0.78600 0.65380 -0.13000
H 	H 	0.49030 0.81820 0.67890 0.09900
C 	C 	0.44830 0.82950 0.62470 0.04400
H 	H 	0.44210 0.88990 0.62920 -0.03000
N 	N 	0.42830 0.78020 0.58810 -0.34800
C 	C 	0.43880 0.70050 0.58320 0.29400
H 	H 	0.42410 0.66820 0.55890 -0.26200
C 	C 	0.46900 0.65700 0.60940 -0.18600
H 	H 	0.47680 0.59970 0.60110 0.07800
C 	C 	0.55210 0.43500 0.71110 0.04600
C 	C 	0.52850 0.37600 0.68290 -0.12000
H 	H 	0.50960 0.39990 0.65930 0.08600
C 	C 	0.53070 0.28500 0.68670 0.07100
H 	H 	0.51380 0.24890 0.66620 -0.05400
N 	N 	0.55700 0.24830 0.71980 -0.35100
C 	C 	0.57900 0.30000 0.75040 0.03500
H 	H 	0.59640 0.27300 0.77430 -0.03000
C 	C 	0.57720 0.39300 0.74830 -0.09100
H 	H 	0.59240 0.42850 0.77100 0.07600
N 	N 	0.33620 0.75520 0.54530 -0.31700
C 	C 	0.32690 0.75000 0.58520 0.08100
H 	H 	0.34230 0.77930 0.61000 -0.09600
C 	C 	0.29220 0.69700 0.59060 0.04200
H 	H 	0.28360 0.69440 0.61800 0.10400
C 	C 	0.27320 0.65220 0.55250 0.14500
C 	C 	0.28530 0.65760 0.51380 -0.10000
H 	H 	0.27330 0.62300 0.48890 -0.00100
C 	C 	0.31600 0.71560 0.51090 0.05300
H 	H 	0.32230 0.72610 0.48260 -0.05000
C 	C 	0.23940 0.59210 0.55690 0.15800
N 	N 	0.22060 0.60880 0.58990 -0.13600
C 	C 	0.19260 0.55640 0.59320 0.12200
N 	N 	0.18290 0.48360 0.56800 -0.14400
C 	C 	0.20440 0.46920 0.53710 0.10000
N 	N 	0.23180 0.52370 0.52770 -0.12300
C 	C 	0.16820 0.57540 0.62430 0.04600
C 	C 	0.17820 0.63350 0.66150 -0.10500
H 	H 	0.20250 0.66320 0.66580 0.08600
C 	C 	0.15580 0.64850 0.69000 0.05600
H 	H 	0.16490 0.68670 0.71450 -0.00700
N 	N 	0.11870 0.61030 0.68580 -0.27600
C 	C 	0.10920 0.55490 0.65010 0.06700
H 	H 	0.08460 0.52650 0.64550 -0.00700
C 	C 	0.13180 0.53780 0.62110 -0.10900
H 	H 	0.12270 0.49810 0.59720 0.08100
C 	C 	0.19630 0.38700 0.50900 0.04700
C 	C 	0.16870 0.32500 0.51770 -0.13200
H 	H 	0.15580 0.33510 0.54160 0.08000
C 	C 	0.16060 0.25220 0.49250 0.08400
H 	H 	0.14090 0.21290 0.49800 -0.02200
N 	N 	0.17890 0.23360 0.46090 -0.27200
C 	C 	0.20660 0.28690 0.45270 0.04700
H 	H 	0.22020 0.27130 0.42990 -0.02100
C 	C 	0.21670 0.36820 0.47740 -0.10100
H 	H 	0.23660 0.40640 0.47170 0.03600
N 	N 	0.11640 0.18720 0.37160 -0.27000
C 	C 	0.09510 0.14530 0.33810 0.08800
H 	H 	0.09440 0.08210 0.33910 -0.01700
C 	C 	0.07380 0.18680 0.30190 -0.13400
H 	H 	0.05920 0.15270 0.27820 0.08600
C 	C 	0.07340 0.27870 0.29950 0.05800
C 	C 	0.09320 0.32220 0.33670 -0.11400
H 	H 	0.09100 0.38500 0.33840 0.09000
C 	C 	0.11600 0.27770 0.37120 0.05400
H 	H 	0.13160 0.30990 0.39490 0.00100
C 	C 	0.05230 0.32800 0.25910 0.10700
N 	N 	0.02710 0.28890 0.23060 -0.14500
C 	C 	0.00990 0.33790 0.19600 0.09100
N 	N 	0.01720 0.42450 0.19060 -0.13900
C 	C 	0.04540 0.45730 0.22170 0.10500
N 	N 	0.06500 0.41450 0.25690 -0.13400
C 	C 	0.05480 0.55820 0.22230 0.07100
C 	C 	0.03200 0.61510 0.19480 -0.13300
H 	H 	0.01090 0.59300 0.17330 0.08400
C 	C 	0.03940 0.70720 0.19790 0.08700
H 	H 	0.02250 0.74760 0.17970 -0.01600
N 	N 	0.06950 0.73660 0.22580 -0.27300
C 	C 	0.09210 0.67900 0.25300 0.06600
H 	H 	0.11250 0.70260 0.27490 -0.01900
C 	C 	0.08760 0.58760 0.25120 -0.12800
H 	H 	0.10570 0.54820 0.26840 0.08600
C 	C 	0.97580 0.29490 0.16440 0.05900
C 	C 	0.97070 0.20900 0.16630 -0.12800
H 	H 	0.98870 0.17380 0.18630 0.09500
C 	C 	0.93830 0.16840 0.13880 0.05900
H 	H 	0.93250 0.10760 0.14270 -0.00200
N 	N 	0.91560 0.21790 0.10680 -0.27100
C 	C 	0.92150 0.30220 0.10430 0.07900
H 	H 	0.90420 0.33630 0.08280 -0.00600
C 	C 	0.95320 0.34570 0.13280 -0.12800
H 	H 	0.95820 0.40730 0.12980 0.08400
I 	I 	0.39787 0.83200 0.46670 1.59500
I 	I 	0.72176 0.88893 0.87236 0.08100
I 	I 	0.58770 0.41500 0.30480 0.50300
C 	C 	0.68650 0.52170 0.75800 0.04700
H 	H 	0.67840 0.49320 0.73010 0.02700
C 	C 	0.69170 0.61330 0.76000 0.13300
H 	H 	0.68700 0.64750 0.73340 -0.01300
C 	C 	0.70360 0.65500 0.80090 -0.02400
H 	H 	0.70720 0.71770 0.80230 0.22100
C 	C 	0.71050 0.60500 0.83980 0.13900
H 	H 	0.71860 0.63360 0.86780 0.01500
C 	C 	0.70530 0.51300 0.83780 -0.14400
H 	H 	0.71000 0.47930 0.86440 0.07400
C 	C 	0.69340 0.47170 0.79690 0.15800
N 	N 	0.68840 0.37670 0.79420 -0.02300
O 	O 	0.69750 0.33600 0.82870 -0.14000
O 	O 	0.68100 0.34400 0.75720 -0.14200
Zn	Zn	0.57030 0.38500 0.23570 0.30700
I 	I 	0.50990 0.47930 0.20770 -0.76700
Zn	Zn	0.59000 0.38250 0.22090 0.95800
I 	I 	0.53010 0.48080 0.19590 -0.67500
Zn	Zn	0.65330 0.88100 0.92870 1.47700
I 	I 	0.62610 0.00200 0.97090 14.13800
Zn	Zn	0.36480 0.84630 0.57370 1.02000
I 	I 	0.34880 0.99070 0.60890 0.34500
I 	I 	0.38010 0.84130 0.49610 -2.47300
I 	I 	0.39150 0.70100 0.42480 -0.74500
I 	I 	0.38250 0.56700 0.36250 0.17000
I 	I 	0.63110 0.40550 0.29810 0.26600
I 	I 	0.69390 0.72200 0.82790 -0.41600
I 	I 	0.67290 0.56500 0.78300 -0.33300
I 	I 	0.60670 0.40120 0.31530 -0.72600
I 	I 	0.70310 0.91400 0.88170 -0.13300
C 	C 	0.42700 0.38600 0.41900 0.38000
H 	H 	0.44030 0.34330 0.43940 -0.17500
C 	C 	0.43100 0.47600 0.42800 -0.15600
H 	H 	0.44770 0.49520 0.45540 -0.21000
C 	C 	0.41200 0.53800 0.39900 0.33600
H 	H 	0.41510 0.60000 0.40500 0.04200
C 	C 	0.38800 0.51000 0.35900 -0.06500
H 	H 	0.37510 0.55300 0.33870 0.01400
C 	C 	0.38400 0.42000 0.35000 0.08800
H 	H 	0.36770 0.40110 0.32270 0.08900
C 	C 	0.40300 0.35800 0.37950 -0.59400
N 	N 	0.40190 0.26500 0.36820 0.00400
O 	O 	0.37800 0.24500 0.33480 -0.09700
O 	O 	0.41400 0.21300 0.39800 -0.10000
C 	C 	0.39700 0.46200 0.41000 -0.29100
H 	H 	0.40910 0.43310 0.43680 -0.24100
C 	C 	0.39300 0.55400 0.40900 -0.38200
H 	H 	0.40210 0.58780 0.43510 -0.14000
C 	C 	0.37600 0.59600 0.37000 -0.28200
H 	H 	0.37290 0.65890 0.36900 0.16500
C 	C 	0.36300 0.54600 0.33100 0.08500
H 	H 	0.35070 0.57520 0.30460 0.00800
C 	C 	0.36700 0.45400 0.33200 -0.42300
H 	H 	0.35770 0.42040 0.30640 0.12700
C 	C 	0.38400 0.41200 0.37200 0.32900
N 	N 	0.39300 0.31900 0.37100 0.27900
O 	O 	0.39600 0.28800 0.33500 -0.08900
O 	O 	0.40700 0.28400 0.40700 -0.14300
Zn	Zn	0.86870 0.33953 0.56403 1.16400
I 	I 	0.88296 0.33316 0.48658 -0.37300
I 	I 	0.85130 0.48258 0.60034 -0.40600
Zn	Zn	0.55860 0.11230 0.72390 0.76300
I 	I 	0.49640 0.03980 0.68240 0.89000
Zn	Zn	0.66335 0.63482 0.40814 1.06700
I 	I 	0.63253 0.50877 0.44378 -17.58900
Zn	Zn	0.38309 0.65970 0.04490 1.25200
I 	I 	0.36700 0.51535 0.08114 -0.88900
Zn	Zn	0.16037 0.37343 0.91782 1.16100
I 	I 	0.12957 0.48890 0.96016 -0.38400
I 	I 	0.21269 0.39912 0.87222 -0.36400
Zn	Zn	0.08618 0.62922 0.73244 1.16300
I 	I 	0.13165 0.60679 0.80757 -0.39600
I 	I 	0.02622 0.53084 0.70957 -0.37800
N 	N 	0.60140 0.08700 0.68770 -0.57900
C 	C 	0.60180 0.01200 0.66650 0.12400
H 	H 	0.58440 0.96650 0.67170 -0.00200
C 	C 	0.62520 0.99400 0.63760 -0.14800
H 	H 	0.62180 0.94040 0.62120 0.10000
C 	C 	0.65380 0.05240 0.63130 0.04700
C 	C 	0.65520 0.12890 0.65550 -0.11900
H 	H 	0.67480 0.17160 0.65380 0.08000
C 	C 	0.62890 0.14610 0.68230 0.03900
H 	H 	0.63020 0.20150 0.69740 -0.07400
C 	C 	0.67810 0.03390 0.60090 0.10200
N 	N 	0.67180 0.96400 0.57430 -0.13400
C 	C 	0.69290 0.95970 0.54540 0.12900
N 	N 	0.72190 0.01610 0.53870 -0.13900
C 	C 	0.72750 0.08320 0.56980 0.11200
N 	N 	0.70670 0.09670 0.59900 -0.13000
C 	C 	0.76110 0.14350 0.56510 0.06600
C 	C 	0.77830 0.14200 0.53210 -0.13100
H 	H 	0.76930 0.10300 0.50790 0.07800
C 	C 	0.81090 0.19820 0.53130 0.06400
H 	H 	0.82360 0.19580 0.50670 -0.00200
N 	N 	0.82370 0.25370 0.56470 -0.27500
C 	C 	0.80480 0.25400 0.59940 0.06100
H 	H 	0.81370 0.29180 0.62410 -0.01400
C 	C 	0.77330 0.20080 0.59930 -0.12800
H 	H 	0.75980 0.20390 0.62320 0.08000
C 	C 	0.68900 0.87950 0.51310 0.07800
C 	C 	0.65500 0.82860 0.50880 -0.16600
H 	H 	0.63590 0.84150 0.52590 0.07700
C 	C 	0.65040 0.76070 0.47960 0.07300
H 	H 	0.62730 0.72650 0.47690 -0.16000
N 	N 	0.67500 0.73780 0.45460 -0.32500
C 	C 	0.70760 0.78390 0.45870 0.08300
H 	H 	0.72590 0.76940 0.44080 -0.01600
C 	C 	0.71540 0.85490 0.48980 -0.13600
H 	H 	0.73970 0.88500 0.49400 0.07100
N 	N 	0.62450 0.70260 0.36000 -0.12000
C 	C 	0.60160 0.65700 0.32970 0.00300
H 	H 	0.59950 0.59480 0.33330 0.29100
C 	C 	0.57910 0.70010 0.29030 -0.04000
H 	H 	0.56230 0.66630 0.26830 0.07100
C 	C 	0.58260 0.78960 0.28560 0.02000
C 	C 	0.60380 0.83090 0.32150 -0.06900
H 	H 	0.60450 0.89400 0.32140 0.07000
C 	C 	0.62460 0.78690 0.35870 0.05500
H 	H 	0.63870 0.81990 0.38300 0.02600
C 	C 	0.56180 0.84000 0.24650 0.11400
N 	N 	0.53620 0.79310 0.21640 -0.13400
C 	C 	0.51650 0.84630 0.18250 0.08800
N 	N 	0.52140 0.93190 0.17840 -0.13200
C 	C 	0.54730 0.96760 0.21140 0.10700
N 	N 	0.56910 0.92400 0.24460 -0.14200
C 	C 	0.48890 0.80110 0.14990 0.08400
C 	C 	0.47720 0.71400 0.15380 -0.12400
H 	H 	0.49030 0.68180 0.17890 0.09700
C 	C 	0.44830 0.67050 0.12470 0.03800
H 	H 	0.44210 0.61010 0.12920 -0.02800
N 	N 	0.42830 0.71980 0.08810 -0.34200
C 	C 	0.43880 0.79950 0.08320 0.26100
H 	H 	0.42410 0.83180 0.05890 -0.22300
C 	C 	0.46900 0.84300 0.10940 -0.17400
H 	H 	0.47680 0.90030 0.10110 0.07500
C 	C 	0.55210 0.06500 0.21110 0.05500
C 	C 	0.52850 0.12400 0.18290 -0.12300
H 	H 	0.50960 0.10010 0.15930 0.08800
C 	C 	0.53070 0.21500 0.18670 0.07300
H 	H 	0.51380 0.25110 0.16620 -0.05400
N 	N 	0.55700 0.25170 0.21980 -0.35300
C 	C 	0.57900 0.20000 0.25040 0.03800
H 	H 	0.59640 0.22700 0.27430 -0.03000
C 	C 	0.57720 0.10700 0.24830 -0.09400
H 	H 	0.59240 0.07150 0.27100 0.07800
N 	N 	0.33620 0.74480 0.04530 -0.31800
C 	C 	0.32690 0.75000 0.08520 0.06500
H 	H 	0.34230 0.72070 0.11000 -0.09900
C 	C 	0.29220 0.80300 0.09060 0.01700
H 	H 	0.28360 0.80560 0.11800 0.10000
C 	C 	0.27320 0.84780 0.05250 0.13200
C 	C 	0.28530 0.84240 0.01380 -0.12600
H 	H 	0.27330 0.87700 0.98890 0.02500
C 	C 	0.31600 0.78440 0.01090 0.05800
H 	H 	0.32230 0.77390 0.98260 -0.02700
C 	C 	0.23940 0.90790 0.05690 0.13700
N 	N 	0.22060 0.89120 0.08990 -0.13200
C 	C 	0.19260 0.94360 0.09320 0.09900
N 	N 	0.18290 0.01640 0.06800 -0.12700
C 	C 	0.20440 0.03080 0.03710 0.12100
N 	N 	0.23180 0.97630 0.02770 -0.14400
C 	C 	0.16820 0.92460 0.12430 0.07500
C 	C 	0.17820 0.86650 0.16150 -0.12100
H 	H 	0.20250 0.83680 0.16580 0.09100
C 	C 	0.15580 0.85150 0.19000 0.06700
H 	H 	0.16490 0.81330 0.21450 -0.01000
N 	N 	0.11870 0.88970 0.18580 -0.28200
C 	C 	0.10920 0.94510 0.15010 0.09500
H 	H 	0.08460 0.97350 0.14550 -0.01900
C 	C 	0.13180 0.96220 0.12110 -0.16400
H 	H 	0.12270 0.00190 0.09720 0.11400
C 	C 	0.19630 0.11300 0.00900 0.05700
C 	C 	0.16870 0.17500 0.01770 -0.11700
H 	H 	0.15580 0.16490 0.04160 0.08200
C 	C 	0.16060 0.24780 0.99250 0.07100
H 	H 	0.14090 0.28710 0.99800 -0.01800
N 	N 	0.17890 0.26640 0.96090 -0.27100
C 	C 	0.20660 0.21310 0.95270 0.05200
H 	H 	0.22020 0.22870 0.92990 -0.02100
C 	C 	0.21670 0.13180 0.97740 -0.11700
H 	H 	0.23660 0.09360 0.97170 0.04200
N 	N 	0.11640 0.31280 0.87160 -0.27100
C 	C 	0.09510 0.35470 0.83810 0.08700
H 	H 	0.09440 0.41790 0.83910 -0.02000
C 	C 	0.07380 0.31320 0.80190 -0.13400
H 	H 	0.05920 0.34730 0.77820 0.08400
C 	C 	0.07340 0.22130 0.79950 0.05700
C 	C 	0.09320 0.17780 0.83670 -0.11400
H 	H 	0.09100 0.11500 0.83840 0.08900
C 	C 	0.11600 0.22230 0.87120 0.05300
H 	H 	0.13160 0.19010 0.89490 0.00000
C 	C 	0.05230 0.17200 0.75910 0.10700
N 	N 	0.02710 0.21110 0.73060 -0.14600
C 	C 	0.00990 0.16210 0.69600 0.09100
N 	N 	0.01720 0.07550 0.69060 -0.13900
C 	C 	0.04540 0.04270 0.72170 0.10300
N 	N 	0.06500 0.08550 0.75690 -0.13400
C 	C 	0.05480 0.94180 0.72230 0.07400
C 	C 	0.03200 0.88490 0.69480 -0.13500
H 	H 	0.01090 0.90700 0.67330 0.08500
C 	C 	0.03940 0.79280 0.69790 0.08700
H 	H 	0.02250 0.75240 0.67970 -0.01600
N 	N 	0.06950 0.76340 0.72580 -0.27300
C 	C 	0.09210 0.82100 0.75300 0.06600
H 	H 	0.11250 0.79740 0.77490 -0.01900
C 	C 	0.08760 0.91240 0.75120 -0.12900
H 	H 	0.10570 0.95180 0.76840 0.08600
C 	C 	0.97580 0.20510 0.66440 0.05600
C 	C 	0.97070 0.29100 0.66630 -0.12700
H 	H 	0.98870 0.32620 0.68630 0.09200
C 	C 	0.93830 0.33160 0.63880 0.05700
H 	H 	0.93250 0.39240 0.64270 -0.00300
N 	N 	0.91560 0.28210 0.60680 -0.27100
C 	C 	0.92150 0.19780 0.60430 0.07800
H 	H 	0.90420 0.16370 0.58280 -0.00800
C 	C 	0.95320 0.15430 0.63280 -0.12800
H 	H 	0.95820 0.09270 0.62980 0.08200
I 	I 	0.39787 0.66800 0.96670 1.59100
I 	I 	0.72176 0.61107 0.37236 0.78800
I 	I 	0.58770 0.08500 0.80480 0.45200
C 	C 	0.68650 0.97830 0.25800 0.05300
H 	H 	0.67840 0.00680 0.23010 0.02600
C 	C 	0.69170 0.88670 0.26000 0.11500
H 	H 	0.68700 0.85250 0.23340 -0.00800
C 	C 	0.70360 0.84500 0.30090 -0.00500
H 	H 	0.70720 0.78230 0.30230 0.22500
C 	C 	0.71050 0.89500 0.33980 0.13400
H 	H 	0.71860 0.86640 0.36780 0.01500
C 	C 	0.70530 0.98700 0.33780 -0.13500
H 	H 	0.71000 0.02070 0.36440 0.06900
C 	C 	0.69340 0.02830 0.29690 0.14900
N 	N 	0.68840 0.12330 0.29420 -0.02100
O 	O 	0.69750 0.16400 0.32870 -0.13800
O 	O 	0.68100 0.15600 0.25720 -0.14000
Zn	Zn	0.57030 0.11500 0.73570 0.30900
I 	I 	0.50990 0.02070 0.70770 -0.77200
Zn	Zn	0.59000 0.11750 0.72090 0.95800
I 	I 	0.53010 0.01920 0.69590 -0.68700
Zn	Zn	0.65330 0.61900 0.42870 1.59700
I 	I 	0.62610 0.49800 0.47090 16.76900
Zn	Zn	0.36480 0.65370 0.07370 1.01900
I 	I 	0.34880 0.50930 0.10890 0.34500
I 	I 	0.38010 0.65870 0.99610 -2.44400
I 	I 	0.39150 0.79900 0.92480 -0.69500
I 	I 	0.38250 0.93300 0.86250 0.17300
I 	I 	0.63110 0.09450 0.79810 0.21300
I 	I 	0.69390 0.77800 0.32790 -0.47700
I 	I 	0.67290 0.93500 0.28300 -0.32600
I 	I 	0.60670 0.09880 0.81530 -0.72300
I 	I 	0.70310 0.58600 0.38170 -0.79300
C 	C 	0.42700 0.11400 0.91900 0.37800
H 	H 	0.44030 0.15670 0.93940 -0.16000
C 	C 	0.43100 0.02400 0.92800 -0.17300
H 	H 	0.44770 0.00480 0.95540 -0.16400
C 	C 	0.41200 0.96200 0.89900 0.29400
H 	H 	0.41510 0.90000 0.90500 0.03900
C 	C 	0.38800 0.99000 0.85900 -0.05100
H 	H 	0.37510 0.94700 0.83870 0.03000
C 	C 	0.38400 0.08000 0.85000 0.11200
H 	H 	0.36770 0.09890 0.82270 0.08100
C 	C 	0.40300 0.14200 0.87950 -0.61100
N 	N 	0.40190 0.23500 0.86820 -0.00100
O 	O 	0.37800 0.25500 0.83480 -0.09600
O 	O 	0.41400 0.28700 0.89800 -0.09900
C 	C 	0.39700 0.03800 0.91000 -0.28100
H 	H 	0.40910 0.06690 0.93680 -0.18800
C 	C 	0.39300 0.94600 0.90900 -0.30300
H 	H 	0.40210 0.91220 0.93510 -0.10800
C 	C 	0.37600 0.90400 0.87000 -0.30100
H 	H 	0.37290 0.84110 0.86900 0.17100
C 	C 	0.36300 0.95400 0.83100 0.06800
H 	H 	0.35070 0.92480 0.80460 0.01500
C 	C 	0.36700 0.04600 0.83200 -0.44200
H 	H 	0.35770 0.07960 0.80640 0.13800
C 	C 	0.38400 0.08800 0.87200 0.32900
N 	N 	0.39300 0.18100 0.87100 0.29100
O 	O 	0.39600 0.21200 0.83500 -0.08900
O 	O 	0.40700 0.21600 0.90700 -0.13100
Zn	Zn	0.13130 0.66047 0.43597 1.16400
I 	I 	0.11704 0.66684 0.51342 -0.37300
I 	I 	0.14870 0.51742 0.39966 -0.40600
Zn	Zn	0.44140 0.88770 0.27610 0.76300
I 	I 	0.50360 0.96020 0.31760 0.89000
Zn	Zn	0.33665 0.36518 0.59186 1.06700
I 	I 	0.36747 0.49123 0.55622 -17.58900
Zn	Zn	0.61691 0.34030 0.95510 1.25200
I 	I 	0.63300 0.48465 0.91886 -0.88900
Zn	Zn	0.83963 0.62657 0.08218 1.16100
I 	I 	0.87043 0.51110 0.03984 -0.38400
I 	I 	0.78731 0.60088 0.12778 -0.36400
Zn	Zn	0.91382 0.37078 0.26756 1.16300
I 	I 	0.86835 0.39321 0.19243 -0.39600
I 	I 	0.97378 0.46916 0.29043 -0.37800
N 	N 	0.39860 0.91300 0.31230 -0.57900
C 	C 	0.39820 0.98800 0.33350 0.12400
H 	H 	0.41560 0.03350 0.32830 -0.00200
C 	C 	0.37480 0.00600 0.36240 -0.14800
H 	H 	0.37820 0.05960 0.37880 0.10000
C 	C 	0.34620 0.94760 0.36870 0.04700
C 	C 	0.34480 0.87110 0.34450 -0.11900
H 	H 	0.32520 0.82840 0.34620 0.08000
C 	C 	0.37110 0.85390 0.31770 0.03900
H 	H 	0.36980 0.79850 0.30260 -0.07400
C 	C 	0.32190 0.96610 0.39910 0.10200
N 	N 	0.32820 0.03600 0.42570 -0.13400
C 	C 	0.30710 0.04030 0.45460 0.12900
N 	N 	0.27810 0.98390 0.46130 -0.13900
C 	C 	0.27250 0.91680 0.43020 0.11200
N 	N 	0.29330 0.90330 0.40100 -0.13000
C 	C 	0.23890 0.85650 0.43490 0.06600
C 	C 	0.22170 0.85800 0.46790 -0.13100
H 	H 	0.23070 0.89700 0.49210 0.07800
C 	C 	0.18910 0.80180 0.46870 0.06400
H 	H 	0.17640 0.80420 0.49330 -0.00200
N 	N 	0.17630 0.74630 0.43530 -0.27500
C 	C 	0.19520 0.74600 0.40060 0.06100
H 	H 	0.18630 0.70820 0.37590 -0.01400
C 	C 	0.22670 0.79920 0.40070 -0.12800
H 	H 	0.24020 0.79610 0.37680 0.08000
C 	C 	0.31100 0.12050 0.48690 0.07800
C 	C 	0.34500 0.17140 0.49120 -0.16600
H 	H 	0.36410 0.15850 0.47410 0.07700
C 	C 	0.34960 0.23930 0.52040 0.07300
H 	H 	0.37270 0.27350 0.52310 -0.16000
N 	N 	0.32500 0.26220 0.54540 -0.32500
C 	C 	0.29240 0.21610 0.54130 0.08300
H 	H 	0.27410 0.23060 0.55920 -0.01600
C 	C 	0.28460 0.14510 0.51020 -0.13600
H 	H 	0.26030 0.11500 0.50600 0.07100
N 	N 	0.37550 0.29740 0.64000 -0.12000
C 	C 	0.39840 0.34300 0.67030 0.00300
H 	H 	0.40050 0.40520 0.66670 0.29100
C 	C 	0.42090 0.29990 0.70970 -0.04000
H 	H 	0.43770 0.33370 0.73170 0.07100
C 	C 	0.41740 0.21040 0.71440 0.02000
C 	C 	0.39620 0.16910 0.67850 -0.06900
H 	H 	0.39550 0.10600 0.67860 0.07000
C 	C 	0.37540 0.21310 0.64130 0.05500
H 	H 	0.36130 0.18010 0.61700 0.02600
C 	C 	0.43820 0.16000 0.75350 0.11400
N 	N 	0.46380 0.20690 0.78360 -0.13400
C 	C 	0.48350 0.15370 0.81750 0.08800
N 	N 	0.47860 0.06810 0.82160 -0.13200
C 	C 	0.45270 0.03240 0.78860 0.10700
N 	N 	0.43090 0.07600 0.75540 -0.14200
C 	C 	0.51110 0.19890 0.85010 0.08400
C 	C 	0.52280 0.28600 0.84620 -0.12400
H 	H 	0.50970 0.31820 0.82110 0.09700
C 	C 	0.55170 0.32950 0.87530 0.03800
H 	H 	0.55790 0.38990 0.87080 -0.02800
N 	N 	0.57170 0.28020 0.91190 -0.34200
C 	C 	0.56120 0.20050 0.91680 0.26100
H 	H 	0.57590 0.16820 0.94110 -0.22300
C 	C 	0.53100 0.15700 0.89060 -0.17400
H 	H 	0.52320 0.09970 0.89890 0.07500
C 	C 	0.44790 0.93500 0.78890 0.05500
C 	C 	0.47150 0.87600 0.81710 -0.12300
H 	H 	0.49040 0.89990 0.84070 0.08800
C 	C 	0.46930 0.78500 0.81330 0.07300
H 	H 	0.48620 0.74890 0.83380 -0.05400
N 	N 	0.44300 0.74830 0.78020 -0.35300
C 	C 	0.42100 0.80000 0.74960 0.03800
H 	H 	0.40360 0.77300 0.72570 -0.03000
C 	C 	0.42280 0.89300 0.75170 -0.09400
H 	H 	0.40760 0.92850 0.72900 0.07800
N 	N 	0.66380 0.25520 0.95470 -0.31800
C 	C 	0.67310 0.25000 0.91480 0.06500
H 	H 	0.65770 0.27930 0.89000 -0.09900
C 	C 	0.70780 0.19700 0.90940 0.01700
H 	H 	0.71640 0.19440 0.88200 0.10000
C 	C 	0.72680 0.15220 0.94750 0.13200
C 	C 	0.71470 0.15760 0.98620 -0.12600
H 	H 	0.72670 0.12300 0.01110 0.02500
C 	C 	0.68400 0.21560 0.98910 0.05800
H 	H 	0.67770 0.22610 0.01740 -0.02700
C 	C 	0.76060 0.09210 0.94310 0.13700
N 	N 	0.77940 0.10880 0.91010 -0.13200
C 	C 	0.80740 0.05640 0.90680 0.09900
N 	N 	0.81710 0.98360 0.93200 -0.12700
C 	C 	0.79560 0.96920 0.96290 0.12100
N 	N 	0.76820 0.02370 0.97230 -0.14400
C 	C 	0.83180 0.07540 0.87570 0.07500
C 	C 	0.82180 0.13350 0.83850 -0.12100
H 	H 	0.79750 0.16320 0.83420 0.09100
C 	C 	0.84420 0.14850 0.81000 0.06700
H 	H 	0.83510 0.18670 0.78550 -0.01000
N 	N 	0.88130 0.11030 0.81420 -0.28200
C 	C 	0.89080 0.05490 0.84990 0.09500
H 	H 	0.91540 0.02650 0.85450 -0.01900
C 	C 	0.86820 0.03780 0.87890 -0.16400
H 	H 	0.87730 0.99810 0.90280 0.11400
C 	C 	0.80370 0.88700 0.99100 0.05700
C 	C 	0.83130 0.82500 0.98230 -0.11700
H 	H 	0.84420 0.83510 0.95840 0.08200
C 	C 	0.83940 0.75220 0.00750 0.07100
H 	H 	0.85910 0.71290 0.00200 -0.01800
N 	N 	0.82110 0.73360 0.03910 -0.27100
C 	C 	0.79340 0.78690 0.04730 0.05200
H 	H 	0.77980 0.77130 0.07010 -0.02100
C 	C 	0.78330 0.86820 0.02260 -0.11700
H 	H 	0.76340 0.90640 0.02830 0.04200
N 	N 	0.88360 0.68720 0.12840 -0.27100
C 	C 	0.90490 0.64530 0.16190 0.08700
H 	H 	0.90560 0.58210 0.16090 -0.02000
C 	C 	0.92620 0.68680 0.19810 -0.13400
H 	H 	0.94080 0.65270 0.22180 0.08400
C 	C 	0.92660 0.77870 0.20050 0.05700
C 	C 	0.90680 0.82220 0.16330 -0.11400
H 	H 	0.90900 0.88500 0.16160 0.08900
C 	C 	0.88400 0.77770 0.12880 0.05300
H 	H 	0.86840 0.80990 0.10510 0.00000
C 	C 	0.94770 0.82800 0.24090 0.10700
N 	N 	0.97290 0.78890 0.26940 -0.14600
C 	C 	0.99010 0.83790 0.30400 0.09100
N 	N 	0.98280 0.92450 0.30940 -0.13900
C 	C 	0.95460 0.95730 0.27830 0.10300
N 	N 	0.93500 0.91450 0.24310 -0.13400
C 	C 	0.94520 0.05820 0.27770 0.07400
C 	C 	0.96800 0.11510 0.30520 -0.13500
H 	H 	0.98910 0.09300 0.32670 0.08500
C 	C 	0.96060 0.20720 0.30210 0.08700
H 	H 	0.97750 0.24760 0.32030 -0.01600
N 	N 	0.93050 0.23660 0.27420 -0.27300
C 	C 	0.90790 0.17900 0.24700 0.06600
H 	H 	0.88750 0.20260 0.22510 -0.01900
C 	C 	0.91240 0.08760 0.24880 -0.12900
H 	H 	0.89430 0.04820 0.23160 0.08600
C 	C 	0.02420 0.79490 0.33560 0.05600
C 	C 	0.02930 0.70900 0.33370 -0.12700
H 	H 	0.01130 0.67380 0.31370 0.09200
C 	C 	0.06170 0.66840 0.36120 0.05700
H 	H 	0.06750 0.60760 0.35730 -0.00300
N 	N 	0.08440 0.71790 0.39320 -0.27100
C 	C 	0.07850 0.80220 0.39570 0.07800
H 	H 	0.09580 0.83630 0.41720 -0.00800
C 	C 	0.04680 0.84570 0.36720 -0.12800
H 	H 	0.04180 0.90730 0.37020 0.08200
I 	I 	0.60213 0.33200 0.03330 1.59100
I 	I 	0.27824 0.38893 0.62764 0.78800
I 	I 	0.41230 0.91500 0.19520 0.45200
C 	C 	0.31350 0.02170 0.74200 0.05300
H 	H 	0.32160 0.99320 0.76990 0.02600
C 	C 	0.30830 0.11330 0.74000 0.11500
H 	H 	0.31300 0.14750 0.76660 -0.00800
C 	C 	0.29640 0.15500 0.69910 -0.00500
H 	H 	0.29280 0.21770 0.69770 0.22500
C 	C 	0.28950 0.10500 0.66020 0.13400
H 	H 	0.28140 0.13360 0.63220 0.01500
C 	C 	0.29470 0.01300 0.66220 -0.13500
H 	H 	0.29000 0.97930 0.63560 0.06900
C 	C 	0.30660 0.97170 0.70310 0.14900
N 	N 	0.31160 0.87670 0.70580 -0.02100
O 	O 	0.30250 0.83600 0.67130 -0.13800
O 	O 	0.31900 0.84400 0.74280 -0.14000
Zn	Zn	0.42970 0.88500 0.26430 0.30900
I 	I 	0.49010 0.97930 0.29230 -0.77200
Zn	Zn	0.41000 0.88250 0.27910 0.95800
I 	I 	0.46990 0.98080 0.30410 -0.68700
Zn	Zn	0.34670 0.38100 0.57130 1.59700
I 	I 	0.37390 0.50200 0.52910 16.76900
Zn	Zn	0.63520 0.34630 0.92630 1.01900
I 	I 	0.65120 0.49070 0.89110 0.34500
I 	I 	0.61990 0.34130 0.00390 -2.44400
I 	I 	0.60850 0.20100 0.07520 -0.69500
I 	I 	0.61750 0.06700 0.13750 0.17300
I 	I 	0.36890 0.90550 0.20190 0.21300
I 	I 	0.30610 0.22200 0.67210 -0.47700
I 	I 	0.32710 0.06500 0.71700 -0.32600
I 	I 	0.39330 0.90120 0.18470 -0.72300
I 	I 	0.29690 0.41400 0.61830 -0.79300
C 	C 	0.57300 0.88600 0.08100 0.37800
H 	H 	0.55970 0.84330 0.06060 -0.16000
C 	C 	0.56900 0.97600 0.07200 -0.17300
H 	H 	0.55230 0.99520 0.04460 -0.16400
C 	C 	0.58800 0.03800 0.10100 0.29400
H 	H 	0.58490 0.10000 0.09500 0.03900
C 	C 	0.61200 0.01000 0.14100 -0.05100
H 	H 	0.62490 0.05300 0.16130 0.03000
C 	C 	0.61600 0.92000 0.15000 0.11200
H 	H 	0.63230 0.90110 0.17730 0.08100
C 	C 	0.59700 0.85800 0.12050 -0.61100
N 	N 	0.59810 0.76500 0.13180 -0.00100
O 	O 	0.62200 0.74500 0.16520 -0.09600
O 	O 	0.58600 0.71300 0.10200 -0.09900
C 	C 	0.60300 0.96200 0.09000 -0.28100
H 	H 	0.59090 0.93310 0.06320 -0.18800
C 	C 	0.60700 0.05400 0.09100 -0.30300
H 	H 	0.59790 0.08780 0.06490 -0.10800
C 	C 	0.62400 0.09600 0.13000 -0.30100
H 	H 	0.62710 0.15890 0.13100 0.17100
C 	C 	0.63700 0.04600 0.16900 0.06800
H 	H 	0.64930 0.07520 0.19540 0.01500
C 	C 	0.63300 0.95400 0.16800 -0.44200
H 	H 	0.64230 0.92040 0.19360 0.13800
C 	C 	0.61600 0.91200 0.12800 0.32900
N 	N 	0.60700 0.81900 0.12900 0.29100
O 	O 	0.60400 0.78800 0.16500 -0.08900
O 	O 	0.59300 0.78400 0.09300 -0.13100
Zn	Zn	0.13130 0.83953 0.93597 1.16600
I 	I 	0.11704 0.83316 0.01342 -0.38300
I 	I 	0.14870 0.98258 0.89966 -0.40000
Zn	Zn	0.44140 0.61230 0.77610 0.76300
I 	I 	0.50360 0.53980 0.81760 0.88200
Zn	Zn	0.33665 0.13482 0.09186 1.00800
I 	I 	0.36747 0.00877 0.05622 -14.93100
Zn	Zn	0.61691 0.15970 0.45510 1.25400
I 	I 	0.63300 0.01535 0.41886 -0.89100
Zn	Zn	0.83963 0.87343 0.58218 1.16100
I 	I 	0.87043 0.98890 0.53984 -0.38000
I 	I 	0.78731 0.89912 0.62778 -0.35500
Zn	Zn	0.91382 0.12922 0.76756 1.16300
I 	I 	0.86835 0.10679 0.69243 -0.40200
I 	I 	0.97378 0.03084 0.79043 -0.38500
N 	N 	0.39860 0.58700 0.81230 -0.59200
C 	C 	0.39820 0.51200 0.83350 0.18000
H 	H 	0.41560 0.46650 0.82830 -0.02700
C 	C 	0.37480 0.49400 0.86240 -0.20900
H 	H 	0.37820 0.44040 0.87880 0.11900
C 	C 	0.34620 0.55240 0.86870 0.08200
C 	C 	0.34480 0.62890 0.84450 -0.14100
H 	H 	0.32520 0.67160 0.84620 0.08800
C 	C 	0.37110 0.64610 0.81770 0.05400
H 	H 	0.36980 0.70150 0.80260 -0.07900
C 	C 	0.32190 0.53390 0.89910 0.09900
N 	N 	0.32820 0.46400 0.92570 -0.13500
C 	C 	0.30710 0.45970 0.95460 0.12300
N 	N 	0.27810 0.51610 0.96130 -0.13400
C 	C 	0.27250 0.58320 0.93020 0.11500
N 	N 	0.29330 0.59670 0.90100 -0.12900
C 	C 	0.23890 0.64350 0.93490 0.06800
C 	C 	0.22170 0.64200 0.96790 -0.13000
H 	H 	0.23070 0.60300 0.99210 0.08000
C 	C 	0.18910 0.69820 0.96870 0.06600
H 	H 	0.17640 0.69580 0.99330 0.00100
N 	N 	0.17630 0.75370 0.93530 -0.27400
C 	C 	0.19520 0.75400 0.90060 0.06300
H 	H 	0.18630 0.79180 0.87590 -0.01300
C 	C 	0.22670 0.70080 0.90070 -0.12600
H 	H 	0.24020 0.70390 0.87680 0.08100
C 	C 	0.31100 0.37950 0.98690 0.07600
C 	C 	0.34500 0.32860 0.99120 -0.17000
H 	H 	0.36410 0.34150 0.97410 0.08200
C 	C 	0.34960 0.26070 0.02040 0.08500
H 	H 	0.37270 0.22650 0.02310 -0.14700
N 	N 	0.32500 0.23780 0.04540 -0.33100
C 	C 	0.29240 0.28390 0.04130 0.07900
H 	H 	0.27410 0.26940 0.05920 -0.00800
C 	C 	0.28460 0.35490 0.01020 -0.12800
H 	H 	0.26030 0.38500 0.00600 0.06900
N 	N 	0.37550 0.20260 0.14000 -0.15300
C 	C 	0.39840 0.15700 0.17030 0.01400
H 	H 	0.40050 0.09480 0.16670 0.24000
C 	C 	0.42090 0.20010 0.20970 -0.05500
H 	H 	0.43770 0.16630 0.23170 0.07600
C 	C 	0.41740 0.28960 0.21440 0.02900
C 	C 	0.39620 0.33090 0.17850 -0.08100
H 	H 	0.39550 0.39400 0.17860 0.07400
C 	C 	0.37540 0.28690 0.14130 0.06500
H 	H 	0.36130 0.31990 0.11700 0.01900
C 	C 	0.43820 0.34000 0.25350 0.11100
N 	N 	0.46380 0.29310 0.28360 -0.13300
C 	C 	0.48350 0.34630 0.31750 0.08600
N 	N 	0.47860 0.43190 0.32160 -0.13000
C 	C 	0.45270 0.46760 0.28860 0.11500
N 	N 	0.43090 0.42400 0.25540 -0.14200
C 	C 	0.51110 0.30110 0.35010 0.09300
C 	C 	0.52280 0.21400 0.34620 -0.13000
H 	H 	0.50970 0.18180 0.32110 0.09900
C 	C 	0.55170 0.17050 0.37530 0.04400
H 	H 	0.55790 0.11010 0.37080 -0.03000
N 	N 	0.57170 0.21980 0.41190 -0.34800
C 	C 	0.56120 0.29950 0.41680 0.29400
H 	H 	0.57590 0.33180 0.44110 -0.26200
C 	C 	0.53100 0.34300 0.39060 -0.18600
H 	H 	0.52320 0.40030 0.39890 0.07800
C 	C 	0.44790 0.56500 0.28890 0.04600
C 	C 	0.47150 0.62400 0.31710 -0.12000
H 	H 	0.49040 0.60010 0.34070 0.08600
C 	C 	0.46930 0.71500 0.31330 0.07100
H 	H 	0.48620 0.75110 0.33380 -0.05400
N 	N 	0.44300 0.75170 0.28020 -0.35100
C 	C 	0.42100 0.70000 0.24960 0.03500
H 	H 	0.40360 0.72700 0.22570 -0.03000
C 	C 	0.42280 0.60700 0.25170 -0.09100
H 	H 	0.40760 0.57150 0.22900 0.07600
N 	N 	0.66380 0.24480 0.45470 -0.31700
C 	C 	0.67310 0.25000 0.41480 0.08100
H 	H 	0.65770 0.22070 0.39000 -0.09600
C 	C 	0.70780 0.30300 0.40940 0.04200
H 	H 	0.71640 0.30560 0.38200 0.10400
C 	C 	0.72680 0.34780 0.44750 0.14500
C 	C 	0.71470 0.34240 0.48620 -0.10000
H 	H 	0.72670 0.37700 0.51110 -0.00100
C 	C 	0.68400 0.28440 0.48910 0.05300
H 	H 	0.67770 0.27390 0.51740 -0.05000
C 	C 	0.76060 0.40790 0.44310 0.15800
N 	N 	0.77940 0.39120 0.41010 -0.13600
C 	C 	0.80740 0.44360 0.40680 0.12200
N 	N 	0.81710 0.51640 0.43200 -0.14400
C 	C 	0.79560 0.53080 0.46290 0.10000
N 	N 	0.76820 0.47630 0.47230 -0.12300
C 	C 	0.83180 0.42460 0.37570 0.04600
C 	C 	0.82180 0.36650 0.33850 -0.10500
H 	H 	0.79750 0.33680 0.33420 0.08600
C 	C 	0.84420 0.35150 0.31000 0.05600
H 	H 	0.83510 0.31330 0.28550 -0.00700
N 	N 	0.88130 0.38970 0.31420 -0.27600
C 	C 	0.89080 0.44510 0.34990 0.06700
H 	H 	0.91540 0.47350 0.35450 -0.00700
C 	C 	0.86820 0.46220 0.37890 -0.10900
H 	H 	0.87730 0.50190 0.40280 0.08100
C 	C 	0.80370 0.61300 0.49100 0.04700
C 	C 	0.83130 0.67500 0.48230 -0.13200
H 	H 	0.84420 0.66490 0.45840 0.08000
C 	C 	0.83940 0.74780 0.50750 0.08400
H 	H 	0.85910 0.78710 0.50200 -0.02200
N 	N 	0.82110 0.76640 0.53910 -0.27200
C 	C 	0.79340 0.71310 0.54730 0.04700
H 	H 	0.77980 0.72870 0.57010 -0.02100
C 	C 	0.78330 0.63180 0.52260 -0.10100
H 	H 	0.76340 0.59360 0.52830 0.03600
N 	N 	0.88360 0.81280 0.62840 -0.27000
C 	C 	0.90490 0.85470 0.66190 0.08800
H 	H 	0.90560 0.91790 0.66090 -0.01700
C 	C 	0.92620 0.81320 0.69810 -0.13400
H 	H 	0.94080 0.84730 0.72180 0.08600
C 	C 	0.92660 0.72130 0.70050 0.05800
C 	C 	0.90680 0.67780 0.66330 -0.11400
H 	H 	0.90900 0.61500 0.66160 0.09000
C 	C 	0.88400 0.72230 0.62880 0.05400
H 	H 	0.86840 0.69010 0.60510 0.00100
C 	C 	0.94770 0.67200 0.74090 0.10700
N 	N 	0.97290 0.71110 0.76940 -0.14500
C 	C 	0.99010 0.66210 0.80400 0.09100
N 	N 	0.98280 0.57550 0.80940 -0.13900
C 	C 	0.95460 0.54270 0.77830 0.10500
N 	N 	0.93500 0.58550 0.74310 -0.13400
C 	C 	0.94520 0.44180 0.77770 0.07100
C 	C 	0.96800 0.38490 0.80520 -0.13300
H 	H 	0.98910 0.40700 0.82670 0.08400
C 	C 	0.96060 0.29280 0.80210 0.08700
H 	H 	0.97750 0.25240 0.82030 -0.01600
N 	N 	0.93050 0.26340 0.77420 -0.27300
C 	C 	0.90790 0.32100 0.74700 0.06600
H 	H 	0.88750 0.29740 0.72510 -0.01900
C 	C 	0.91240 0.41240 0.74880 -0.12800
H 	H 	0.89430 0.45180 0.73160 0.08600
C 	C 	0.02420 0.70510 0.83560 0.05900
C 	C 	0.02930 0.79100 0.83370 -0.12800
H 	H 	0.01130 0.82620 0.81370 0.09500
C 	C 	0.06170 0.83160 0.86120 0.05900
H 	H 	0.06750 0.89240 0.85730 -0.00200
N 	N 	0.08440 0.78210 0.89320 -0.27100
C 	C 	0.07850 0.69780 0.89570 0.07900
H 	H 	0.09580 0.66370 0.91720 -0.00600
C 	C 	0.04680 0.65430 0.86720 -0.12800
H 	H 	0.04180 0.59270 0.87020 0.08400
I 	I 	0.60213 0.16800 0.53330 1.59500
I 	I 	0.27824 0.11107 0.12764 0.08100
I 	I 	0.41230 0.58500 0.69520 0.50300
C 	C 	0.31350 0.47830 0.24200 0.04700
H 	H 	0.32160 0.50680 0.26990 0.02700
C 	C 	0.30830 0.38670 0.24000 0.13300
H 	H 	0.31300 0.35250 0.26660 -0.01300
C 	C 	0.29640 0.34500 0.19910 -0.02400
H 	H 	0.29280 0.28230 0.19770 0.22100
C 	C 	0.28950 0.39500 0.16020 0.13900
H 	H 	0.28140 0.36640 0.13220 0.01500
C 	C 	0.29470 0.48700 0.16220 -0.14400
H 	H 	0.29000 0.52070 0.13560 0.07400
C 	C 	0.30660 0.52830 0.20310 0.15800
N 	N 	0.31160 0.62330 0.20580 -0.02300
O 	O 	0.30250 0.66400 0.17130 -0.14000
O 	O 	0.31900 0.65600 0.24280 -0.14200
Zn	Zn	0.42970 0.61500 0.76430 0.30700
I 	I 	0.49010 0.52070 0.79230 -0.76700
Zn	Zn	0.41000 0.61750 0.77910 0.95800
I 	I 	0.46990 0.51920 0.80410 -0.67500
Zn	Zn	0.34670 0.11900 0.07130 1.47700
I 	I 	0.37390 0.99800 0.02910 14.13800
Zn	Zn	0.63520 0.15370 0.42630 1.02000
I 	I 	0.65120 0.00930 0.39110 0.34500
I 	I 	0.61990 0.15870 0.50390 -2.47300
I 	I 	0.60850 0.29900 0.57520 -0.74500
I 	I 	0.61750 0.43300 0.63750 0.17000
I 	I 	0.36890 0.59450 0.70190 0.26600
I 	I 	0.30610 0.27800 0.17210 -0.41600
I 	I 	0.32710 0.43500 0.21700 -0.33300
I 	I 	0.39330 0.59880 0.68470 -0.72600
I 	I 	0.29690 0.08600 0.11830 -0.13300
C 	C 	0.57300 0.61400 0.58100 0.38000
H 	H 	0.55970 0.65670 0.56060 -0.17500
C 	C 	0.56900 0.52400 0.57200 -0.15600
H 	H 	0.55230 0.50480 0.54460 -0.21000
C 	C 	0.58800 0.46200 0.60100 0.33600
H 	H 	0.58490 0.40000 0.59500 0.04200
C 	C 	0.61200 0.49000 0.64100 -0.06500
H 	H 	0.62490 0.44700 0.66130 0.01400
C 	C 	0.61600 0.58000 0.65000 0.08800
H 	H 	0.63230 0.59890 0.67730 0.08900
C 	C 	0.59700 0.64200 0.62050 -0.59400
N 	N 	0.59810 0.73500 0.63180 0.00400
O 	O 	0.62200 0.75500 0.66520 -0.09700
O 	O 	0.58600 0.78700 0.60200 -0.10000
C 	C 	0.60300 0.53800 0.59000 -0.29100
H 	H 	0.59090 0.56690 0.56320 -0.24100
C 	C 	0.60700 0.44600 0.59100 -0.38200
H 	H 	0.59790 0.41220 0.56490 -0.14000
C 	C 	0.62400 0.40400 0.63000 -0.28200
H 	H 	0.62710 0.34110 0.63100 0.16500
C 	C 	0.63700 0.45400 0.66900 0.08500
H 	H 	0.64930 0.42480 0.69540 0.00800
C 	C 	0.63300 0.54600 0.66800 -0.42300
H 	H 	0.64230 0.57960 0.69360 0.12700
C 	C 	0.61600 0.58800 0.62800 0.32900
N 	N 	0.60700 0.68100 0.62900 0.27900
O 	O 	0.60400 0.71200 0.66500 -0.08900
O 	O 	0.59300 0.71600 0.59300 -0.14300
