data_crystal

_cell_length_a 35.04700
_cell_length_b 15.00480
_cell_length_c 30.56540
_cell_angle_alpha 90.00000
_cell_angle_beta  101.46400
_cell_angle_gamma 90.00000

_symmetry_space_group_name_	'P 1'
_symmetry_space_group_name_H-M	'P 1'

loop_
_symmetry_equiv_pos_as_xyz
  x,y,z

loop_
_atom_site_label
_atom_site_type_symbol
_atom_site_fract_x
_atom_site_fract_y
_atom_site_fract_z
_atom_site_charge
Zn	Zn	0.66119 0.12555 0.41741 0.86500
I 	I 	0.71371 0.09969 0.37181 1.02000
I 	I 	0.63042 0.01004 0.46007 -0.80900
Zn	Zn	0.58634 0.86904 0.23223 1.16400
I 	I 	0.63238 0.89168 0.30700 -0.42900
I 	I 	0.52655 0.96784 0.20981 -0.38000
Zn	Zn	0.36901 0.15880 0.06404 1.16400
I 	I 	0.35108 0.01677 0.10115 -0.38800
Zn	Zn	0.06400 0.38670 0.23040 0.20200
N 	N 	0.52720 0.28540 0.22950 -0.14000
N 	N 	0.51650 0.42160 0.19100 -0.13700
N 	N 	0.56500 0.41300 0.25680 -0.13400
N 	N 	0.61890 0.18870 0.37150 -0.32800
N 	N 	0.41570 0.21630 0.10600 -0.27700
N 	N 	0.57090 0.73570 0.22630 -0.28300
N 	N 	0.73180 0.52450 0.52770 -0.14700
N 	N 	0.68270 0.48240 0.56700 -0.13200
N 	N 	0.72060 0.61290 0.58740 -0.13800
N 	N 	0.83740 0.75960 0.54610 -0.31000
N 	N 	0.67920 0.23310 0.46040 -0.31400
N 	N 	0.61900 0.61330 0.68430 -0.27300
N 	N 	0.17280 0.53600 0.07180 -0.15100
N 	N 	0.22320 0.48670 0.03640 -0.16100
N 	N 	0.20670 0.40500 0.09610 -0.11500
N 	N 	0.10230 0.41010 0.18700 -0.47700
N 	N 	0.32280 0.24550 0.06380 -0.27400
N 	N 	0.17670 0.76650 0.95390 -0.29000
C 	C 	0.55430 0.32870 0.25890 0.09800
C 	C 	0.50910 0.33730 0.19630 0.09200
C 	C 	0.54460 0.45830 0.22230 0.09900
C 	C 	0.57430 0.27650 0.29960 0.07300
C 	C 	0.59390 0.32150 0.33440 -0.13000
H 	H 	0.59270 0.38480 0.33450 0.09500
C 	C 	0.61710 0.27570 0.37200 0.06100
H 	H 	0.63090 0.30830 0.39680 -0.01300
C 	C 	0.59690 0.14590 0.33730 0.07500
H 	H 	0.59700 0.08260 0.33800 -0.04600
C 	C 	0.57480 0.18590 0.30190 -0.14800
H 	H 	0.55960 0.15140 0.27870 0.08800
C 	C 	0.47690 0.29440 0.16300 0.06100
C 	C 	0.47140 0.20580 0.16560 -0.13300
H 	H 	0.48880 0.17030 0.18630 0.09600
C 	C 	0.43990 0.16800 0.13720 0.06900
H 	H 	0.43510 0.10610 0.13970 -0.00800
C 	C 	0.42160 0.30240 0.10430 0.08100
H 	H 	0.40440 0.33750 0.08320 -0.01100
C 	C 	0.45250 0.34340 0.13250 -0.13600
H 	H 	0.45640 0.40570 0.13030 0.08700
C 	C 	0.55420 0.55670 0.22320 0.08300
C 	C 	0.53130 0.61480 0.19420 -0.14100
H 	H 	0.51000 0.59390 0.17240 0.08900
C 	C 	0.54050 0.70390 0.19790 0.09200
H 	H 	0.52410 0.74480 0.17920 -0.01600
C 	C 	0.59300 0.67840 0.25150 0.08700
H 	H 	0.61580 0.69950 0.27080 -0.02400
C 	C 	0.58470 0.58710 0.25150 -0.14500
H 	H 	0.60080 0.54780 0.27160 0.09300
C 	C 	0.73980 0.59430 0.55530 0.09500
C 	C 	0.70370 0.46940 0.53590 0.09100
C 	C 	0.69180 0.55750 0.59170 0.10800
C 	C 	0.77280 0.65320 0.55080 0.03500
C 	C 	0.79480 0.69210 0.58980 -0.09500
H 	H 	0.78880 0.68130 0.61830 0.05300
C 	C 	0.82600 0.74760 0.58470 0.05100
H 	H 	0.83970 0.77820 0.61030 -0.01600
C 	C 	0.81690 0.71620 0.51040 0.06300
H 	H 	0.82400 0.72450 0.48220 0.02000
C 	C 	0.78620 0.66030 0.51280 -0.10800
H 	H 	0.77440 0.62660 0.48730 0.07400
C 	C 	0.69650 0.38570 0.50950 0.06000
C 	C 	0.71550 0.36620 0.47740 -0.11800
H 	H 	0.73460 0.40630 0.47110 0.07600
C 	C 	0.70780 0.28610 0.45220 0.04800
H 	H 	0.72250 0.27070 0.43030 -0.05500
C 	C 	0.66190 0.24930 0.49320 0.08900
H 	H 	0.64330 0.20770 0.49960 -0.01500
C 	C 	0.66940 0.32480 0.51890 -0.13200
H 	H 	0.65620 0.33510 0.54280 0.08800
C 	C 	0.66810 0.57520 0.62370 0.04900
C 	C 	0.63210 0.53710 0.62100 -0.10600
H 	H 	0.62310 0.49570 0.59770 0.08400
C 	C 	0.60870 0.55660 0.65080 0.07000
H 	H 	0.58400 0.52820 0.64730 -0.00900
C 	C 	0.65460 0.65140 0.68910 0.06100
H 	H 	0.66300 0.68920 0.71410 -0.01000
C 	C 	0.67950 0.63850 0.65960 -0.09900
H 	H 	0.70340 0.67030 0.66280 0.07100
C 	C 	0.17930 0.46630 0.09770 0.11500
C 	C 	0.19420 0.54170 0.04310 0.08800
C 	C 	0.22830 0.41890 0.06580 0.09500
C 	C 	0.15330 0.44620 0.13000 0.11700
C 	C 	0.12500 0.50730 0.13610 -0.15400
H 	H 	0.12250 0.56230 0.12040 0.08800
C 	C 	0.10140 0.48800 0.16420 0.07600
H 	H 	0.08290 0.53200 0.16850 -0.05400
C 	C 	0.12880 0.35820 0.17960 0.16100
H 	H 	0.13040 0.30300 0.19510 -0.09000
C 	C 	0.15540 0.36900 0.15280 -0.18000
H 	H 	0.17430 0.32480 0.15040 0.11900
C 	C 	0.26160 0.35730 0.06410 0.05200
C 	C 	0.27360 0.30100 0.09960 -0.12600
H 	H 	0.26100 0.29990 0.12440 0.09600
C 	C 	0.30520 0.24550 0.09740 0.07800
H 	H 	0.31420 0.20610 0.12160 -0.01600
C 	C 	0.31030 0.29740 0.02880 0.05800
H 	H 	0.32280 0.29570 0.00390 0.00100
C 	C 	0.27800 0.35600 0.02850 -0.13800
H 	H 	0.26850 0.39290 0.00340 0.07400
C 	C 	0.18950 0.62300 0.01150 0.02400
C 	C 	0.21640 0.64760 0.98870 -0.09300
H 	H 	0.24070 0.61730 0.99370 0.04000
C 	C 	0.20990 0.71540 0.95840 0.05000
H 	H 	0.22840 0.72750 0.94030 0.00100
C 	C 	0.14930 0.73880 0.97790 0.04800
H 	H 	0.12500 0.76910 0.97370 -0.00300
C 	C 	0.15570 0.67190 0.00640 -0.10700
H 	H 	0.13670 0.65730 0.02350 0.05900
I 	I 	0.38402 0.16251 0.98687 -0.36300
N 	N 	0.06820 0.92600 0.24580 -0.13100
N 	N 	0.02080 0.93570 0.18050 -0.13100
N 	N 	0.03330 0.79750 0.21770 -0.14100
N 	N 	0.12470 0.70180 0.35990 -0.28200
N 	N 	0.05670 0.25340 0.21770 -0.33300
N 	N 	0.92790 0.71890 0.09120 -0.30800
C 	C 	0.06030 0.84090 0.24720 0.09600
C 	C 	0.04540 0.97270 0.21240 0.11300
C 	C 	0.01560 0.85120 0.18390 0.10700
C 	C 	0.08340 0.79030 0.28480 0.06100
C 	C 	0.07790 0.70250 0.29100 -0.13000
H 	H 	0.06030 0.66960 0.26930 0.06400
C 	C 	0.09810 0.65980 0.32960 0.05000
H 	H 	0.09270 0.59900 0.33440 -0.01400
C 	C 	0.12610 0.78930 0.35610 0.08700
H 	H 	0.14280 0.82240 0.37860 0.01100
C 	C 	0.10490 0.83260 0.32150 -0.13200
H 	H 	0.10470 0.89580 0.32220 0.11400
C 	C 	0.04980 0.06840 0.21270 0.06900
C 	C 	0.07640 0.10850 0.24730 -0.11500
H 	H 	0.09280 0.07390 0.26940 0.09400
C 	C 	0.07770 0.20150 0.24810 0.07200
H 	H 	0.09480 0.22920 0.27220 -0.01400
C 	C 	0.03190 0.21800 0.18600 0.10100
H 	H 	0.01610 0.25550 0.16470 -0.03700
C 	C 	0.02760 0.12560 0.18190 -0.12900
H 	H 	0.00930 0.10150 0.15780 0.10100
C 	C 	0.98630 0.80350 0.15100 0.09300
C 	C 	0.96720 0.84610 0.11220 -0.10400
H 	H 	0.97420 0.90500 0.10550 0.11300
C 	C 	0.93910 0.80270 0.08450 0.11100
H 	H 	0.92610 0.83290 0.05850 0.00600
C 	C 	0.94710 0.67290 0.12430 0.08500
H 	H 	0.94150 0.61150 0.12750 -0.04400
C 	C 	0.97690 0.71640 0.15600 -0.12000
H 	H 	0.99040 0.68380 0.18090 0.09900
Zn	Zn	0.16388 0.86700 0.90670 0.50200
Zn	Zn	0.88445 0.83930 0.54356 0.62400
I 	I 	0.13197 0.99310 0.94223 -0.08100
I 	I 	0.09735 0.40660 0.31040 -2.75400
I 	I 	0.00230 0.46930 0.19360 -0.59000
I 	I 	0.22209 0.89270 0.87123 -0.30700
I 	I 	0.89984 0.82910 0.46640 -2.47000
I 	I 	0.86862 0.98606 0.57936 0.63900
I 	I 	0.98149 0.71110 0.45861 -0.00300
I 	I 	0.04575 0.61648 0.44668 -0.05300
Zn	Zn	0.87670 0.85150 0.55570 0.67500
I 	I 	0.90270 0.87310 0.48490 1.98700
Zn	Zn	0.68070 0.10800 0.40240 0.79200
I 	I 	0.72760 0.07800 0.36270 -1.59600
I 	I 	0.64240 0.98700 0.44460 0.33400
Zn	Zn	0.15990 0.85410 0.91300 0.67800
I 	I 	0.21680 0.90300 0.87930 -0.05400
I 	I 	0.11740 0.53210 0.44250 -0.21800
Zn	Zn	0.05410 0.39650 0.21210 0.85100
I 	I 	0.01030 0.95450 0.33130 0.54800
Zn	Zn	0.08090 0.38810 0.22930 0.79800
I 	I 	0.05970 0.90650 0.41160 -0.28000
I 	I 	0.99330 0.82140 0.41700 -0.09900
I 	I 	0.90230 0.68340 0.42770 0.30100
I 	I 	0.90070 0.52710 0.38100 -0.10600
I 	I 	0.03030 0.51370 0.48040 -0.02400
I 	I 	0.85710 0.98770 0.59810 -1.08000
I 	I 	0.08360 0.45710 0.28740 0.93000
I 	I 	0.12500 0.41120 0.30430 1.54800
I 	I 	0.02130 0.48680 0.20870 -0.51500
Zn	Zn	0.33881 0.62555 0.08259 0.86600
I 	I 	0.28629 0.59969 0.12819 1.02000
I 	I 	0.36958 0.51004 0.03993 -0.80300
Zn	Zn	0.41366 0.36904 0.26777 1.16500
I 	I 	0.36762 0.39168 0.19300 -0.42800
I 	I 	0.47345 0.46784 0.29019 -0.37900
Zn	Zn	0.63099 0.65880 0.43596 1.16400
I 	I 	0.64892 0.51677 0.39885 -0.38700
Zn	Zn	0.93600 0.88670 0.26960 0.20200
N 	N 	0.47280 0.78540 0.27050 -0.14000
N 	N 	0.48350 0.92160 0.30900 -0.13700
N 	N 	0.43500 0.91300 0.24320 -0.13400
N 	N 	0.38110 0.68870 0.12850 -0.32800
N 	N 	0.58430 0.71630 0.39400 -0.27700
N 	N 	0.42910 0.23570 0.27370 -0.28300
N 	N 	0.26820 0.02450 0.97230 -0.14700
N 	N 	0.31730 0.98240 0.93300 -0.13200
N 	N 	0.27940 0.11290 0.91260 -0.13800
N 	N 	0.16260 0.25960 0.95390 -0.31000
N 	N 	0.32080 0.73310 0.03960 -0.31400
N 	N 	0.38100 0.11330 0.81570 -0.27300
N 	N 	0.82720 0.03600 0.42820 -0.15100
N 	N 	0.77680 0.98670 0.46360 -0.16100
N 	N 	0.79330 0.90500 0.40390 -0.11500
N 	N 	0.89770 0.91010 0.31300 -0.47700
N 	N 	0.67720 0.74550 0.43620 -0.27400
N 	N 	0.82330 0.26650 0.54610 -0.29000
C 	C 	0.44570 0.82870 0.24110 0.09800
C 	C 	0.49090 0.83730 0.30370 0.09200
C 	C 	0.45540 0.95830 0.27770 0.09900
C 	C 	0.42570 0.77650 0.20040 0.07200
C 	C 	0.40610 0.82150 0.16560 -0.13000
H 	H 	0.40730 0.88480 0.16550 0.09500
C 	C 	0.38290 0.77570 0.12800 0.06100
H 	H 	0.36910 0.80830 0.10320 -0.01300
C 	C 	0.40310 0.64590 0.16270 0.07500
H 	H 	0.40300 0.58260 0.16200 -0.04600
C 	C 	0.42520 0.68590 0.19810 -0.14800
H 	H 	0.44040 0.65140 0.22130 0.08800
C 	C 	0.52310 0.79440 0.33700 0.06100
C 	C 	0.52860 0.70580 0.33440 -0.13300
H 	H 	0.51120 0.67030 0.31370 0.09600
C 	C 	0.56010 0.66800 0.36280 0.06900
H 	H 	0.56490 0.60610 0.36030 -0.00800
C 	C 	0.57840 0.80240 0.39570 0.08100
H 	H 	0.59560 0.83750 0.41680 -0.01100
C 	C 	0.54750 0.84340 0.36750 -0.13600
H 	H 	0.54360 0.90570 0.36970 0.08700
C 	C 	0.44580 0.05670 0.27680 0.08300
C 	C 	0.46870 0.11480 0.30580 -0.14100
H 	H 	0.49000 0.09390 0.32760 0.08900
C 	C 	0.45950 0.20390 0.30210 0.09200
H 	H 	0.47590 0.24480 0.32080 -0.01600
C 	C 	0.40700 0.17840 0.24850 0.08600
H 	H 	0.38420 0.19950 0.22920 -0.02400
C 	C 	0.41530 0.08710 0.24850 -0.14400
H 	H 	0.39920 0.04780 0.22840 0.09300
C 	C 	0.26020 0.09430 0.94470 0.09500
C 	C 	0.29630 0.96940 0.96410 0.09100
C 	C 	0.30820 0.05750 0.90830 0.10800
C 	C 	0.22720 0.15320 0.94920 0.03500
C 	C 	0.20520 0.19210 0.91020 -0.09500
H 	H 	0.21120 0.18130 0.88170 0.05300
C 	C 	0.17400 0.24760 0.91530 0.05100
H 	H 	0.16030 0.27820 0.88970 -0.01600
C 	C 	0.18310 0.21620 0.98960 0.06300
H 	H 	0.17600 0.22450 0.01780 0.02000
C 	C 	0.21380 0.16030 0.98720 -0.10800
H 	H 	0.22560 0.12660 0.01270 0.07400
C 	C 	0.30350 0.88570 0.99050 0.06000
C 	C 	0.28450 0.86620 0.02260 -0.11800
H 	H 	0.26540 0.90630 0.02890 0.07600
C 	C 	0.29220 0.78610 0.04780 0.04800
H 	H 	0.27750 0.77070 0.06970 -0.05500
C 	C 	0.33810 0.74930 0.00680 0.09000
H 	H 	0.35670 0.70770 0.00040 -0.01500
C 	C 	0.33060 0.82480 0.98110 -0.13200
H 	H 	0.34380 0.83510 0.95720 0.08800
C 	C 	0.33190 0.07520 0.87630 0.05000
C 	C 	0.36790 0.03710 0.87900 -0.10700
H 	H 	0.37690 0.99570 0.90230 0.08400
C 	C 	0.39130 0.05660 0.84920 0.07000
H 	H 	0.41600 0.02820 0.85270 -0.00900
C 	C 	0.34540 0.15140 0.81090 0.06100
H 	H 	0.33700 0.18920 0.78590 -0.01000
C 	C 	0.32050 0.13850 0.84040 -0.09900
H 	H 	0.29660 0.17030 0.83720 0.07100
C 	C 	0.82070 0.96630 0.40230 0.11500
C 	C 	0.80580 0.04170 0.45690 0.08900
C 	C 	0.77170 0.91890 0.43420 0.09500
C 	C 	0.84670 0.94620 0.37000 0.11600
C 	C 	0.87500 0.00730 0.36390 -0.15200
H 	H 	0.87750 0.06230 0.37960 0.08700
C 	C 	0.89860 0.98800 0.33580 0.07400
H 	H 	0.91710 0.03200 0.33150 -0.05300
C 	C 	0.87120 0.85820 0.32040 0.16000
H 	H 	0.86960 0.80300 0.30490 -0.09000
C 	C 	0.84460 0.86900 0.34720 -0.17900
H 	H 	0.82570 0.82480 0.34960 0.11900
C 	C 	0.73840 0.85730 0.43590 0.05100
C 	C 	0.72640 0.80100 0.40040 -0.12600
H 	H 	0.73900 0.79990 0.37560 0.09600
C 	C 	0.69480 0.74550 0.40260 0.07800
H 	H 	0.68580 0.70610 0.37840 -0.01500
C 	C 	0.68970 0.79740 0.47120 0.05800
H 	H 	0.67720 0.79570 0.49610 0.00100
C 	C 	0.72200 0.85600 0.47150 -0.13800
H 	H 	0.73150 0.89290 0.49660 0.07300
C 	C 	0.81050 0.12300 0.48850 0.02400
C 	C 	0.78360 0.14760 0.51130 -0.09200
H 	H 	0.75930 0.11730 0.50630 0.04000
C 	C 	0.79010 0.21540 0.54160 0.05000
H 	H 	0.77160 0.22750 0.55970 0.00100
C 	C 	0.85070 0.23880 0.52210 0.04800
H 	H 	0.87500 0.26910 0.52630 -0.00300
C 	C 	0.84430 0.17190 0.49360 -0.10700
H 	H 	0.86330 0.15730 0.47650 0.05900
I 	I 	0.61598 0.66251 0.51313 -0.36300
N 	N 	0.93180 0.42600 0.25420 -0.13100
N 	N 	0.97920 0.43570 0.31950 -0.13100
N 	N 	0.96670 0.29750 0.28230 -0.14100
N 	N 	0.87530 0.20180 0.14010 -0.28200
N 	N 	0.94330 0.75340 0.28230 -0.33300
N 	N 	0.07210 0.21890 0.40880 -0.30800
C 	C 	0.93970 0.34090 0.25280 0.09600
C 	C 	0.95460 0.47270 0.28760 0.11300
C 	C 	0.98440 0.35120 0.31610 0.10700
C 	C 	0.91660 0.29030 0.21520 0.06100
C 	C 	0.92210 0.20250 0.20900 -0.13000
H 	H 	0.93970 0.16960 0.23070 0.06400
C 	C 	0.90190 0.15980 0.17040 0.05000
H 	H 	0.90730 0.09900 0.16560 -0.01400
C 	C 	0.87390 0.28930 0.14390 0.08700
H 	H 	0.85720 0.32240 0.12140 0.01100
C 	C 	0.89510 0.33260 0.17850 -0.13200
H 	H 	0.89530 0.39580 0.17780 0.11400
C 	C 	0.95020 0.56840 0.28730 0.06900
C 	C 	0.92360 0.60850 0.25270 -0.11500
H 	H 	0.90720 0.57390 0.23060 0.09400
C 	C 	0.92230 0.70150 0.25190 0.07200
H 	H 	0.90520 0.72920 0.22780 -0.01400
C 	C 	0.96810 0.71800 0.31400 0.10100
H 	H 	0.98390 0.75550 0.33530 -0.03700
C 	C 	0.97240 0.62560 0.31810 -0.12900
H 	H 	0.99070 0.60150 0.34220 0.10100
C 	C 	0.01370 0.30350 0.34900 0.09300
C 	C 	0.03280 0.34610 0.38780 -0.10400
H 	H 	0.02580 0.40500 0.39450 0.11300
C 	C 	0.06090 0.30270 0.41550 0.11100
H 	H 	0.07390 0.33290 0.44150 0.00600
C 	C 	0.05290 0.17290 0.37570 0.08500
H 	H 	0.05850 0.11150 0.37250 -0.04400
C 	C 	0.02310 0.21640 0.34400 -0.12100
H 	H 	0.00960 0.18380 0.31910 0.10000
Zn	Zn	0.83612 0.36700 0.59330 0.50200
Zn	Zn	0.11555 0.33930 0.95644 0.62500
I 	I 	0.86803 0.49310 0.55777 -0.08100
I 	I 	0.90265 0.90660 0.18960 -2.75600
I 	I 	0.99770 0.96930 0.30640 -0.59000
I 	I 	0.77791 0.39270 0.62877 -0.30700
I 	I 	0.10016 0.32910 0.03360 -2.46800
I 	I 	0.13138 0.48606 0.92064 0.63900
I 	I 	0.01851 0.21110 0.04139 -0.00300
I 	I 	0.95425 0.11648 0.05332 -0.05300
Zn	Zn	0.12330 0.35150 0.94430 0.67500
I 	I 	0.09730 0.37310 0.01510 1.98500
Zn	Zn	0.31930 0.60800 0.09760 0.79300
I 	I 	0.27240 0.57800 0.13730 -1.59600
I 	I 	0.35760 0.48700 0.05540 0.32900
Zn	Zn	0.84010 0.35410 0.58700 0.67800
I 	I 	0.78320 0.40300 0.62070 -0.05400
I 	I 	0.88260 0.03210 0.05750 -0.21800
Zn	Zn	0.94590 0.89650 0.28790 0.85100
I 	I 	0.98970 0.45450 0.16870 0.54800
Zn	Zn	0.91910 0.88810 0.27070 0.79800
I 	I 	0.94030 0.40650 0.08840 -0.28000
I 	I 	0.00670 0.32140 0.08300 -0.09900
I 	I 	0.09770 0.18340 0.07230 0.30100
I 	I 	0.09930 0.02710 0.11900 -0.10600
I 	I 	0.96970 0.01370 0.01960 -0.02400
I 	I 	0.14290 0.48770 0.90190 -1.07900
I 	I 	0.91640 0.95710 0.21260 0.93200
I 	I 	0.87500 0.91120 0.19570 1.54900
I 	I 	0.97870 0.98680 0.29130 -0.51600
Zn	Zn	0.33881 0.87445 0.58259 0.86600
I 	I 	0.28629 0.90031 0.62819 1.02100
I 	I 	0.36958 0.98996 0.53993 -0.80800
Zn	Zn	0.41366 0.13096 0.76777 1.16500
I 	I 	0.36762 0.10832 0.69300 -0.42800
I 	I 	0.47345 0.03216 0.79019 -0.37900
Zn	Zn	0.63099 0.84120 0.93596 1.16400
I 	I 	0.64892 0.98323 0.89885 -0.38800
Zn	Zn	0.93600 0.61330 0.76960 0.20200
N 	N 	0.47280 0.71460 0.77050 -0.14000
N 	N 	0.48350 0.57840 0.80900 -0.13700
N 	N 	0.43500 0.58700 0.74320 -0.13400
N 	N 	0.38110 0.81130 0.62850 -0.32800
N 	N 	0.58430 0.78370 0.89400 -0.27700
N 	N 	0.42910 0.26430 0.77370 -0.28300
N 	N 	0.26820 0.47550 0.47230 -0.14700
N 	N 	0.31730 0.51760 0.43300 -0.13200
N 	N 	0.27940 0.38710 0.41260 -0.13800
N 	N 	0.16260 0.24040 0.45390 -0.31000
N 	N 	0.32080 0.76690 0.53960 -0.31400
N 	N 	0.38100 0.38670 0.31570 -0.27300
N 	N 	0.82720 0.46400 0.92820 -0.15100
N 	N 	0.77680 0.51330 0.96360 -0.16100
N 	N 	0.79330 0.59500 0.90390 -0.11500
N 	N 	0.89770 0.58990 0.81300 -0.47700
N 	N 	0.67720 0.75450 0.93620 -0.27400
N 	N 	0.82330 0.23350 0.04610 -0.29000
C 	C 	0.44570 0.67130 0.74110 0.09800
C 	C 	0.49090 0.66270 0.80370 0.09200
C 	C 	0.45540 0.54170 0.77770 0.09900
C 	C 	0.42570 0.72350 0.70040 0.07300
C 	C 	0.40610 0.67850 0.66560 -0.13000
H 	H 	0.40730 0.61520 0.66550 0.09500
C 	C 	0.38290 0.72430 0.62800 0.06100
H 	H 	0.36910 0.69170 0.60320 -0.01300
C 	C 	0.40310 0.85410 0.66270 0.07500
H 	H 	0.40300 0.91740 0.66200 -0.04600
C 	C 	0.42520 0.81410 0.69810 -0.14800
H 	H 	0.44040 0.84860 0.72130 0.08800
C 	C 	0.52310 0.70560 0.83700 0.06100
C 	C 	0.52860 0.79420 0.83440 -0.13300
H 	H 	0.51120 0.82970 0.81370 0.09600
C 	C 	0.56010 0.83200 0.86280 0.06900
H 	H 	0.56490 0.89390 0.86030 -0.00800
C 	C 	0.57840 0.69760 0.89570 0.08100
H 	H 	0.59560 0.66250 0.91680 -0.01100
C 	C 	0.54750 0.65660 0.86750 -0.13600
H 	H 	0.54360 0.59430 0.86970 0.08700
C 	C 	0.44580 0.44330 0.77680 0.08300
C 	C 	0.46870 0.38520 0.80580 -0.14100
H 	H 	0.49000 0.40610 0.82760 0.08900
C 	C 	0.45950 0.29610 0.80210 0.09200
H 	H 	0.47590 0.25520 0.82080 -0.01600
C 	C 	0.40700 0.32160 0.74850 0.08700
H 	H 	0.38420 0.30050 0.72920 -0.02400
C 	C 	0.41530 0.41290 0.74850 -0.14500
H 	H 	0.39920 0.45220 0.72840 0.09300
C 	C 	0.26020 0.40570 0.44470 0.09500
C 	C 	0.29630 0.53060 0.46410 0.09100
C 	C 	0.30820 0.44250 0.40830 0.10800
C 	C 	0.22720 0.34680 0.44920 0.03500
C 	C 	0.20520 0.30790 0.41020 -0.09500
H 	H 	0.21120 0.31870 0.38170 0.05300
C 	C 	0.17400 0.25240 0.41530 0.05100
H 	H 	0.16030 0.22180 0.38970 -0.01600
C 	C 	0.18310 0.28380 0.48960 0.06300
H 	H 	0.17600 0.27550 0.51780 0.02000
C 	C 	0.21380 0.33970 0.48720 -0.10800
H 	H 	0.22560 0.37340 0.51270 0.07400
C 	C 	0.30350 0.61430 0.49050 0.06000
C 	C 	0.28450 0.63380 0.52260 -0.11800
H 	H 	0.26540 0.59370 0.52890 0.07600
C 	C 	0.29220 0.71390 0.54780 0.04800
H 	H 	0.27750 0.72930 0.56970 -0.05500
C 	C 	0.33810 0.75070 0.50680 0.08900
H 	H 	0.35670 0.79230 0.50040 -0.01500
C 	C 	0.33060 0.67520 0.48110 -0.13200
H 	H 	0.34380 0.66490 0.45720 0.08800
C 	C 	0.33190 0.42480 0.37630 0.04900
C 	C 	0.36790 0.46290 0.37900 -0.10600
H 	H 	0.37690 0.50430 0.40230 0.08400
C 	C 	0.39130 0.44340 0.34920 0.07000
H 	H 	0.41600 0.47180 0.35270 -0.00900
C 	C 	0.34540 0.34860 0.31090 0.06100
H 	H 	0.33700 0.31080 0.28590 -0.01000
C 	C 	0.32050 0.36150 0.34040 -0.09900
H 	H 	0.29660 0.32970 0.33720 0.07100
C 	C 	0.82070 0.53370 0.90230 0.11500
C 	C 	0.80580 0.45830 0.95690 0.08800
C 	C 	0.77170 0.58110 0.93420 0.09500
C 	C 	0.84670 0.55380 0.87000 0.11700
C 	C 	0.87500 0.49270 0.86390 -0.15400
H 	H 	0.87750 0.43770 0.87960 0.08800
C 	C 	0.89860 0.51200 0.83580 0.07600
H 	H 	0.91710 0.46800 0.83150 -0.05400
C 	C 	0.87120 0.64180 0.82040 0.16100
H 	H 	0.86960 0.69700 0.80490 -0.09000
C 	C 	0.84460 0.63100 0.84720 -0.18000
H 	H 	0.82570 0.67520 0.84960 0.11900
C 	C 	0.73840 0.64270 0.93590 0.05200
C 	C 	0.72640 0.69900 0.90040 -0.12600
H 	H 	0.73900 0.70010 0.87560 0.09600
C 	C 	0.69480 0.75450 0.90260 0.07800
H 	H 	0.68580 0.79390 0.87840 -0.01600
C 	C 	0.68970 0.70260 0.97120 0.05800
H 	H 	0.67720 0.70430 0.99610 0.00100
C 	C 	0.72200 0.64400 0.97150 -0.13800
H 	H 	0.73150 0.60710 0.99660 0.07400
C 	C 	0.81050 0.37700 0.98850 0.02400
C 	C 	0.78360 0.35240 0.01130 -0.09300
H 	H 	0.75930 0.38270 0.00630 0.04000
C 	C 	0.79010 0.28460 0.04160 0.05000
H 	H 	0.77160 0.27250 0.05970 0.00100
C 	C 	0.85070 0.26120 0.02210 0.04800
H 	H 	0.87500 0.23090 0.02630 -0.00300
C 	C 	0.84430 0.32810 0.99360 -0.10700
H 	H 	0.86330 0.34270 0.97650 0.05900
I 	I 	0.61598 0.83749 0.01313 -0.36300
N 	N 	0.93180 0.07400 0.75420 -0.13100
N 	N 	0.97920 0.06430 0.81950 -0.13100
N 	N 	0.96670 0.20250 0.78230 -0.14100
N 	N 	0.87530 0.29820 0.64010 -0.28200
N 	N 	0.94330 0.74660 0.78230 -0.33300
N 	N 	0.07210 0.28110 0.90880 -0.30800
C 	C 	0.93970 0.15910 0.75280 0.09600
C 	C 	0.95460 0.02730 0.78760 0.11300
C 	C 	0.98440 0.14880 0.81610 0.10700
C 	C 	0.91660 0.20970 0.71520 0.06100
C 	C 	0.92210 0.29750 0.70900 -0.13000
H 	H 	0.93970 0.33040 0.73070 0.06400
C 	C 	0.90190 0.34020 0.67040 0.05000
H 	H 	0.90730 0.40100 0.66560 -0.01400
C 	C 	0.87390 0.21070 0.64390 0.08700
H 	H 	0.85720 0.17760 0.62140 0.01100
C 	C 	0.89510 0.16740 0.67850 -0.13200
H 	H 	0.89530 0.10420 0.67780 0.11400
C 	C 	0.95020 0.93160 0.78730 0.06900
C 	C 	0.92360 0.89150 0.75270 -0.11500
H 	H 	0.90720 0.92610 0.73060 0.09400
C 	C 	0.92230 0.79850 0.75190 0.07200
H 	H 	0.90520 0.77080 0.72780 -0.01400
C 	C 	0.96810 0.78200 0.81400 0.10100
H 	H 	0.98390 0.74450 0.83530 -0.03700
C 	C 	0.97240 0.87440 0.81810 -0.12900
H 	H 	0.99070 0.89850 0.84220 0.10100
C 	C 	0.01370 0.19650 0.84900 0.09300
C 	C 	0.03280 0.15390 0.88780 -0.10400
H 	H 	0.02580 0.09500 0.89450 0.11300
C 	C 	0.06090 0.19730 0.91550 0.11100
H 	H 	0.07390 0.16710 0.94150 0.00600
C 	C 	0.05290 0.32710 0.87570 0.08500
H 	H 	0.05850 0.38850 0.87250 -0.04400
C 	C 	0.02310 0.28360 0.84400 -0.12000
H 	H 	0.00960 0.31620 0.81910 0.09900
Zn	Zn	0.83612 0.13300 0.09330 0.50200
Zn	Zn	0.11555 0.16070 0.45644 0.62400
I 	I 	0.86803 0.00690 0.05777 -0.08100
I 	I 	0.90265 0.59340 0.68960 -2.75400
I 	I 	0.99770 0.53070 0.80640 -0.59000
I 	I 	0.77791 0.10730 0.12877 -0.30700
I 	I 	0.10016 0.17090 0.53360 -2.47000
I 	I 	0.13138 0.01394 0.42064 0.63900
I 	I 	0.01851 0.28890 0.54139 -0.00300
I 	I 	0.95425 0.38352 0.55332 -0.05300
Zn	Zn	0.12330 0.14850 0.44430 0.67500
I 	I 	0.09730 0.12690 0.51510 1.98700
Zn	Zn	0.31930 0.89200 0.59760 0.79200
I 	I 	0.27240 0.92200 0.63730 -1.59600
I 	I 	0.35760 0.01300 0.55540 0.33400
Zn	Zn	0.84010 0.14590 0.08700 0.67800
I 	I 	0.78320 0.09700 0.12070 -0.05400
I 	I 	0.88260 0.46790 0.55750 -0.21800
Zn	Zn	0.94590 0.60350 0.78790 0.85100
I 	I 	0.98970 0.04550 0.66870 0.54800
Zn	Zn	0.91910 0.61190 0.77070 0.79800
I 	I 	0.94030 0.09350 0.58840 -0.28000
I 	I 	0.00670 0.17860 0.58300 -0.09900
I 	I 	0.09770 0.31660 0.57230 0.30100
I 	I 	0.09930 0.47290 0.61900 -0.10600
I 	I 	0.96970 0.48630 0.51960 -0.02400
I 	I 	0.14290 0.01230 0.40190 -1.08000
I 	I 	0.91640 0.54290 0.71260 0.93000
I 	I 	0.87500 0.58880 0.69570 1.54800
I 	I 	0.97870 0.51320 0.79130 -0.51500
Zn	Zn	0.66119 0.37445 0.91741 0.86600
I 	I 	0.71371 0.40031 0.87181 1.02000
I 	I 	0.63042 0.48996 0.96007 -0.80300
Zn	Zn	0.58634 0.63096 0.73223 1.16500
I 	I 	0.63238 0.60832 0.80700 -0.42800
I 	I 	0.52655 0.53216 0.70981 -0.37900
Zn	Zn	0.36901 0.34120 0.56404 1.16400
I 	I 	0.35108 0.48323 0.60115 -0.38700
Zn	Zn	0.06400 0.11330 0.73040 0.20200
N 	N 	0.52720 0.21460 0.72950 -0.14000
N 	N 	0.51650 0.07840 0.69100 -0.13700
N 	N 	0.56500 0.08700 0.75680 -0.13400
N 	N 	0.61890 0.31130 0.87150 -0.32800
N 	N 	0.41570 0.28370 0.60600 -0.27700
N 	N 	0.57090 0.76430 0.72630 -0.28300
N 	N 	0.73180 0.97550 0.02770 -0.14700
N 	N 	0.68270 0.01760 0.06700 -0.13200
N 	N 	0.72060 0.88710 0.08740 -0.13800
N 	N 	0.83740 0.74040 0.04610 -0.31000
N 	N 	0.67920 0.26690 0.96040 -0.31400
N 	N 	0.61900 0.88670 0.18430 -0.27300
N 	N 	0.17280 0.96400 0.57180 -0.15100
N 	N 	0.22320 0.01330 0.53640 -0.16100
N 	N 	0.20670 0.09500 0.59610 -0.11500
N 	N 	0.10230 0.08990 0.68700 -0.47700
N 	N 	0.32280 0.25450 0.56380 -0.27400
N 	N 	0.17670 0.73350 0.45390 -0.29000
C 	C 	0.55430 0.17130 0.75890 0.09800
C 	C 	0.50910 0.16270 0.69630 0.09200
C 	C 	0.54460 0.04170 0.72230 0.09900
C 	C 	0.57430 0.22350 0.79960 0.07200
C 	C 	0.59390 0.17850 0.83440 -0.13000
H 	H 	0.59270 0.11520 0.83450 0.09500
C 	C 	0.61710 0.22430 0.87200 0.06100
H 	H 	0.63090 0.19170 0.89680 -0.01300
C 	C 	0.59690 0.35410 0.83730 0.07500
H 	H 	0.59700 0.41740 0.83800 -0.04600
C 	C 	0.57480 0.31410 0.80190 -0.14800
H 	H 	0.55960 0.34860 0.77870 0.08800
C 	C 	0.47690 0.20560 0.66300 0.06100
C 	C 	0.47140 0.29420 0.66560 -0.13300
H 	H 	0.48880 0.32970 0.68630 0.09600
C 	C 	0.43990 0.33200 0.63720 0.06900
H 	H 	0.43510 0.39390 0.63970 -0.00800
C 	C 	0.42160 0.19760 0.60430 0.08100
H 	H 	0.40440 0.16250 0.58320 -0.01100
C 	C 	0.45250 0.15660 0.63250 -0.13600
H 	H 	0.45640 0.09430 0.63030 0.08700
C 	C 	0.55420 0.94330 0.72320 0.08300
C 	C 	0.53130 0.88520 0.69420 -0.14100
H 	H 	0.51000 0.90610 0.67240 0.08900
C 	C 	0.54050 0.79610 0.69790 0.09200
H 	H 	0.52410 0.75520 0.67920 -0.01600
C 	C 	0.59300 0.82160 0.75150 0.08600
H 	H 	0.61580 0.80050 0.77080 -0.02400
C 	C 	0.58470 0.91290 0.75150 -0.14400
H 	H 	0.60080 0.95220 0.77160 0.09300
C 	C 	0.73980 0.90570 0.05530 0.09500
C 	C 	0.70370 0.03060 0.03590 0.09100
C 	C 	0.69180 0.94250 0.09170 0.10800
C 	C 	0.77280 0.84680 0.05080 0.03500
C 	C 	0.79480 0.80790 0.08980 -0.09500
H 	H 	0.78880 0.81870 0.11830 0.05300
C 	C 	0.82600 0.75240 0.08470 0.05100
H 	H 	0.83970 0.72180 0.11030 -0.01600
C 	C 	0.81690 0.78380 0.01040 0.06300
H 	H 	0.82400 0.77550 0.98220 0.02000
C 	C 	0.78620 0.83970 0.01280 -0.10800
H 	H 	0.77440 0.87340 0.98730 0.07400
C 	C 	0.69650 0.11430 0.00950 0.06000
C 	C 	0.71550 0.13380 0.97740 -0.11800
H 	H 	0.73460 0.09370 0.97110 0.07600
C 	C 	0.70780 0.21390 0.95220 0.04800
H 	H 	0.72250 0.22930 0.93030 -0.05500
C 	C 	0.66190 0.25070 0.99320 0.09000
H 	H 	0.64330 0.29230 0.99960 -0.01500
C 	C 	0.66940 0.17520 0.01890 -0.13200
H 	H 	0.65620 0.16490 0.04280 0.08800
C 	C 	0.66810 0.92480 0.12370 0.05000
C 	C 	0.63210 0.96290 0.12100 -0.10700
H 	H 	0.62310 0.00430 0.09770 0.08400
C 	C 	0.60870 0.94340 0.15080 0.07000
H 	H 	0.58400 0.97180 0.14730 -0.00900
C 	C 	0.65460 0.84860 0.18910 0.06100
H 	H 	0.66300 0.81080 0.21410 -0.01000
C 	C 	0.67950 0.86150 0.15960 -0.09900
H 	H 	0.70340 0.82970 0.16280 0.07100
C 	C 	0.17930 0.03370 0.59770 0.11500
C 	C 	0.19420 0.95830 0.54310 0.08900
C 	C 	0.22830 0.08110 0.56580 0.09500
C 	C 	0.15330 0.05380 0.63000 0.11600
C 	C 	0.12500 0.99270 0.63610 -0.15200
H 	H 	0.12250 0.93770 0.62040 0.08700
C 	C 	0.10140 0.01200 0.66420 0.07400
H 	H 	0.08290 0.96800 0.66850 -0.05300
C 	C 	0.12880 0.14180 0.67960 0.16000
H 	H 	0.13040 0.19700 0.69510 -0.09000
C 	C 	0.15540 0.13100 0.65280 -0.17900
H 	H 	0.17430 0.17520 0.65040 0.11900
C 	C 	0.26160 0.14270 0.56410 0.05100
C 	C 	0.27360 0.19900 0.59960 -0.12600
H 	H 	0.26100 0.20010 0.62440 0.09600
C 	C 	0.30520 0.25450 0.59740 0.07800
H 	H 	0.31420 0.29390 0.62160 -0.01500
C 	C 	0.31030 0.20260 0.52880 0.05800
H 	H 	0.32280 0.20430 0.50390 0.00100
C 	C 	0.27800 0.14400 0.52850 -0.13800
H 	H 	0.26850 0.10710 0.50340 0.07300
C 	C 	0.18950 0.87700 0.51150 0.02400
C 	C 	0.21640 0.85240 0.48870 -0.09200
H 	H 	0.24070 0.88270 0.49370 0.04000
C 	C 	0.20990 0.78460 0.45840 0.05000
H 	H 	0.22840 0.77250 0.44030 0.00100
C 	C 	0.14930 0.76120 0.47790 0.04800
H 	H 	0.12500 0.73090 0.47370 -0.00300
C 	C 	0.15570 0.82810 0.50640 -0.10700
H 	H 	0.13670 0.84270 0.52350 0.05900
I 	I 	0.38402 0.33749 0.48687 -0.36300
N 	N 	0.06820 0.57400 0.74580 -0.13100
N 	N 	0.02080 0.56430 0.68050 -0.13100
N 	N 	0.03330 0.70250 0.71770 -0.14100
N 	N 	0.12470 0.79820 0.85990 -0.28200
N 	N 	0.05670 0.24660 0.71770 -0.33300
N 	N 	0.92790 0.78110 0.59120 -0.30800
C 	C 	0.06030 0.65910 0.74720 0.09600
C 	C 	0.04540 0.52730 0.71240 0.11300
C 	C 	0.01560 0.64880 0.68390 0.10700
C 	C 	0.08340 0.70970 0.78480 0.06100
C 	C 	0.07790 0.79750 0.79100 -0.13000
H 	H 	0.06030 0.83040 0.76930 0.06400
C 	C 	0.09810 0.84020 0.82960 0.05000
H 	H 	0.09270 0.90100 0.83440 -0.01400
C 	C 	0.12610 0.71070 0.85610 0.08700
H 	H 	0.14280 0.67760 0.87860 0.01100
C 	C 	0.10490 0.66740 0.82150 -0.13200
H 	H 	0.10470 0.60420 0.82220 0.11400
C 	C 	0.04980 0.43160 0.71270 0.06900
C 	C 	0.07640 0.39150 0.74730 -0.11500
H 	H 	0.09280 0.42610 0.76940 0.09400
C 	C 	0.07770 0.29850 0.74810 0.07200
H 	H 	0.09480 0.27080 0.77220 -0.01400
C 	C 	0.03190 0.28200 0.68600 0.10100
H 	H 	0.01610 0.24450 0.66470 -0.03700
C 	C 	0.02760 0.37440 0.68190 -0.12900
H 	H 	0.00930 0.39850 0.65780 0.10100
C 	C 	0.98630 0.69650 0.65100 0.09300
C 	C 	0.96720 0.65390 0.61220 -0.10400
H 	H 	0.97420 0.59500 0.60550 0.11300
C 	C 	0.93910 0.69730 0.58450 0.11100
H 	H 	0.92610 0.66710 0.55850 0.00600
C 	C 	0.94710 0.82710 0.62430 0.08500
H 	H 	0.94150 0.88850 0.62750 -0.04400
C 	C 	0.97690 0.78360 0.65600 -0.12100
H 	H 	0.99040 0.81620 0.68090 0.10000
Zn	Zn	0.16388 0.63300 0.40670 0.50200
Zn	Zn	0.88445 0.66070 0.04356 0.62500
I 	I 	0.13197 0.50690 0.44223 -0.08100
I 	I 	0.09735 0.09340 0.81040 -2.75600
I 	I 	0.00230 0.03070 0.69360 -0.59000
I 	I 	0.22209 0.60730 0.37123 -0.30700
I 	I 	0.89984 0.67090 0.96640 -2.46800
I 	I 	0.86862 0.51394 0.07936 0.63900
I 	I 	0.98149 0.78890 0.95861 -0.00300
I 	I 	0.04575 0.88352 0.94668 -0.05300
Zn	Zn	0.87670 0.64850 0.05570 0.67500
I 	I 	0.90270 0.62690 0.98490 1.98500
Zn	Zn	0.68070 0.39200 0.90240 0.79300
I 	I 	0.72760 0.42200 0.86270 -1.59600
I 	I 	0.64240 0.51300 0.94460 0.32900
Zn	Zn	0.15990 0.64590 0.41300 0.67800
I 	I 	0.21680 0.59700 0.37930 -0.05400
I 	I 	0.11740 0.96790 0.94250 -0.21800
Zn	Zn	0.05410 0.10350 0.71210 0.85100
I 	I 	0.01030 0.54550 0.83130 0.54800
Zn	Zn	0.08090 0.11190 0.72930 0.79800
I 	I 	0.05970 0.59350 0.91160 -0.28000
I 	I 	0.99330 0.67860 0.91700 -0.09900
I 	I 	0.90230 0.81660 0.92770 0.30100
I 	I 	0.90070 0.97290 0.88100 -0.10600
I 	I 	0.03030 0.98630 0.98040 -0.02400
I 	I 	0.85710 0.51230 0.09810 -1.07900
I 	I 	0.08360 0.04290 0.78740 0.93200
I 	I 	0.12500 0.08880 0.80430 1.54900
I 	I 	0.02130 0.01320 0.70870 -0.51600
