data_crystal

_cell_length_a 30.83900
_cell_length_b 14.91280
_cell_length_c 34.34400
_cell_angle_alpha 90.00000
_cell_angle_beta  99.92900
_cell_angle_gamma 90.00000

_symmetry_space_group_name_	'P 1'
_symmetry_space_group_name_H-M	'P 1'

loop_
_symmetry_equiv_pos_as_xyz
  x,y,z

loop_
_atom_site_label
_atom_site_type_symbol
_atom_site_fract_x
_atom_site_fract_y
_atom_site_fract_z
_atom_site_charge
Zn	Zn	0.24031 0.88320 0.58481 0.87900
I 	I 	0.31496 0.90310 0.63004 -2.36400
I 	I 	0.22117 0.98100 0.52407 -9.04600
Zn	Zn	0.90133 0.35530 0.66051 1.16200
I 	I 	0.86686 0.39100 0.72088 -0.29900
N 	N 	0.08440 0.88530 0.71260 -0.11500
N 	N 	0.06170 0.01400 0.67360 -0.14700
N 	N 	0.02160 0.96700 0.72520 -0.15000
N 	N 	0.18950 0.89900 0.61680 -0.47100
N 	N 	0.94730 0.25100 0.67490 -0.26000
N 	N 	0.04500 0.73800 0.83150 -0.54300
C 	C 	0.08680 0.94200 0.68230 0.11600
C 	C 	0.02880 0.02200 0.69680 0.03100
C 	C 	0.05230 0.90100 0.73240 0.07900
C 	C 	0.12290 0.92600 0.65910 0.19500
C 	C 	0.14630 0.85200 0.66130 -0.19400
H 	H 	0.13910 0.80440 0.67750 0.15800
C 	C 	0.18010 0.84100 0.64160 0.18100
H 	H 	0.19770 0.78850 0.64620 -0.07900
C 	C 	0.16500 0.97200 0.61050 0.07700
H 	H 	0.16980 0.01210 0.59020 -0.14000
C 	C 	0.13110 0.99200 0.63350 -0.15500
H 	H 	0.11560 0.04770 0.63100 0.07800
C 	C 	0.00090 0.10200 0.68820 -0.00800
C 	C 	0.99910 0.15200 0.65370 -0.14200
H 	H 	0.01720 0.13610 0.63500 0.00400
C 	C 	0.97240 0.22200 0.64680 0.02400
H 	H 	0.97020 0.25370 0.62240 -0.04800
C 	C 	0.94690 0.20500 0.70810 0.04900
H 	H 	0.92990 0.22390 0.72720 0.01100
C 	C 	0.97330 0.12600 0.71370 -0.09200
H 	H 	0.97170 0.08880 0.73590 0.07500
C 	C 	0.04860 0.84300 0.76790 0.09500
C 	C 	0.00760 0.82400 0.77880 -0.14700
H 	H 	0.98110 0.84660 0.76370 0.08800
C 	C 	0.00690 0.77200 0.81220 0.01500
H 	H 	0.98000 0.76120 0.82130 -0.18900
C 	C 	0.08110 0.75700 0.82110 0.19200
H 	H 	0.10720 0.73610 0.83750 -0.09100
C 	C 	0.08590 0.80500 0.78740 -0.18600
H 	H 	0.11340 0.81100 0.77880 0.14700
N 	N 	0.73730 0.06400 0.56630 -0.13000
N 	N 	0.71500 0.19500 0.53040 -0.11100
N 	N 	0.67270 0.05600 0.51510 -0.05300
N 	N 	0.85290 0.29100 0.62300 -0.28500
N 	N 	0.58810 0.27500 0.42470 -0.42000
N 	N 	0.71400 0.73700 0.56180 -0.38100
C 	C 	0.74360 0.15100 0.56030 0.09100
C 	C 	0.68210 0.14600 0.51270 0.18000
C 	C 	0.70480 0.02200 0.54480 0.21600
C 	C 	0.78130 0.20000 0.58350 0.05100
C 	C 	0.80460 0.16500 0.61580 -0.14600
H 	H 	0.79760 0.10650 0.62350 0.12900
C 	C 	0.83880 0.21100 0.63890 0.04300
H 	H 	0.85210 0.18930 0.66420 0.03500
C 	C 	0.82740 0.32100 0.58970 0.09000
H 	H 	0.83460 0.37660 0.57910 -0.00300
C 	C 	0.79400 0.27800 0.57160 -0.19100
H 	H 	0.77760 0.30380 0.54840 0.10600
C 	C 	0.65060 0.19100 0.48150 0.10100
C 	C 	0.65470 0.27900 0.47120 -0.11100
H 	H 	0.67860 0.31280 0.48480 0.10700
C 	C 	0.62440 0.32000 0.44090 0.04700
H 	H 	0.62960 0.37870 0.43220 -0.07400
C 	C 	0.58140 0.19000 0.43270 0.17200
H 	H 	0.55640 0.15990 0.41880 -0.08400
C 	C 	0.61170 0.14300 0.46260 -0.10800
H 	H 	0.60640 0.08240 0.46950 0.11200
C 	C 	0.70580 0.92200 0.55050 0.19200
C 	C 	0.67320 0.86700 0.53160 -0.09700
H 	H 	0.64720 0.88860 0.51520 0.14500
C 	C 	0.68250 0.77700 0.53890 0.22000
H 	H 	0.66160 0.73700 0.52440 -0.00500
C 	C 	0.73890 0.79100 0.58060 0.26100
H 	H 	0.76100 0.76590 0.60020 -0.07400
C 	C 	0.74010 0.87900 0.57810 -0.19500
H 	H 	0.76260 0.91310 0.59390 0.14100
I 	I 	0.93363 0.47800 0.62302 -0.41500
Zn	Zn	0.40916 0.11670 0.67295 1.17800
I 	I 	0.45063 0.99760 0.64109 -0.42900
I 	I 	0.37005 0.08420 0.73023 -0.31300
N 	N 	0.58570 0.59420 0.71900 -0.16000
N 	N 	0.56280 0.46500 0.68410 -0.31600
N 	N 	0.52900 0.50500 0.73840 -0.14900
N 	N 	0.67530 0.58300 0.60850 -0.31400
N 	N 	0.45610 0.21800 0.68860 -0.27000
N 	N 	0.55990 0.75000 0.84000 -0.33800
C 	C 	0.58750 0.53300 0.68970 -0.19400
C 	C 	0.53200 0.45500 0.70810 -0.09300
C 	C 	0.56010 0.57600 0.74240 0.00200
C 	C 	0.61960 0.55500 0.66110 0.04700
C 	C 	0.64870 0.62500 0.66470 -0.03500
H 	H 	0.64950 0.66720 0.68540 0.16800
C 	C 	0.67570 0.63200 0.63900 0.28500
H 	H 	0.69750 0.67750 0.64370 -0.01400
C 	C 	0.63860 0.52100 0.60050 0.21500
H 	H 	0.63110 0.49520 0.57500 -0.04100
C 	C 	0.61460 0.50000 0.62950 -0.23400
H 	H 	0.59560 0.44920 0.62730 -0.10600
C 	C 	0.50540 0.37000 0.70280 0.03500
C 	C 	0.50680 0.31600 0.66830 -0.13500
H 	H 	0.52440 0.33160 0.64920 -0.00600
C 	C 	0.48060 0.24000 0.66500 0.10400
H 	H 	0.48150 0.20180 0.64310 -0.02600
C 	C 	0.45050 0.26900 0.72050 0.03700
H 	H 	0.43030 0.25190 0.73720 -0.00200
C 	C 	0.47690 0.34800 0.72760 -0.11700
H 	H 	0.47450 0.38620 0.74940 0.07800
C 	C 	0.55640 0.63700 0.77510 0.04400
C 	C 	0.51790 0.64700 0.79370 -0.10300
H 	H 	0.49210 0.61240 0.78530 0.07900
C 	C 	0.52050 0.70800 0.82400 0.01200
H 	H 	0.49460 0.72150 0.83440 0.01000
C 	C 	0.59390 0.73300 0.82430 0.10500
H 	H 	0.62090 0.75830 0.83710 0.00700
C 	C 	0.59540 0.68200 0.79070 -0.12700
H 	H 	0.62120 0.67840 0.77900 0.10700
N 	N 	0.26110 0.42200 0.57350 -0.14800
N 	N 	0.23590 0.29500 0.53510 -0.11500
N 	N 	0.19910 0.43500 0.52270 -0.12800
N 	N 	0.36690 0.18400 0.63060 -0.28300
N 	N 	0.10960 0.22000 0.42810 -0.39400
N 	N 	0.23640 0.74800 0.57200 -0.33600
C 	C 	0.26030 0.33800 0.56220 0.08900
C 	C 	0.20250 0.34800 0.51460 0.06500
C 	C 	0.22900 0.46600 0.54980 0.11600
C 	C 	0.29930 0.28300 0.58560 0.15600
C 	C 	0.32280 0.31800 0.61520 -0.16500
H 	H 	0.31580 0.37750 0.62210 0.04000
C 	C 	0.36010 0.27400 0.63960 0.06100
H 	H 	0.37870 0.30410 0.66030 -0.05300
C 	C 	0.33720 0.15400 0.60040 0.20600
H 	H 	0.34070 0.09310 0.59400 0.04700
C 	C 	0.30510 0.19300 0.57870 -0.28300
H 	H 	0.28600 0.16160 0.55870 0.30800
C 	C 	0.16990 0.30200 0.48620 0.10400
C 	C 	0.17390 0.20900 0.47440 -0.31200
H 	H 	0.19890 0.17500 0.48570 0.16600
C 	C 	0.14350 0.17400 0.44840 0.16400
H 	H 	0.14520 0.11110 0.44330 -0.23300
C 	C 	0.10400 0.30500 0.43770 0.08000
H 	H 	0.07810 0.33540 0.42580 -0.06900
C 	C 	0.13360 0.34800 0.46360 -0.17500
H 	H 	0.13060 0.41110 0.46700 0.10200
C 	C 	0.23120 0.56800 0.55680 0.08500
C 	C 	0.19920 0.62700 0.53500 -0.16000
H 	H 	0.17520 0.60500 0.51630 0.07900
C 	C 	0.20480 0.71800 0.54240 0.12600
H 	H 	0.18630 0.76040 0.52660 -0.22800
C 	C 	0.26270 0.68900 0.59520 0.08300
H 	H 	0.28330 0.70980 0.61710 -0.01900
C 	C 	0.25910 0.60400 0.58700 -0.13300
H 	H 	0.27780 0.56350 0.60370 0.05000
Zn	Zn	0.53920 0.33170 0.38420 -0.31000
Zn	Zn	0.72660 0.60470 0.58010 0.98300
I 	I 	0.56680 0.49030 0.37380 -4.90700
I 	I 	0.46530 0.31210 0.40520 -30.31800
I 	I 	0.70070 0.51310 0.51910 -0.77000
I 	I 	0.80300 0.58480 0.62220 0.11900
I 	I 	0.49421 0.86840 0.90943 3.82600
Zn	Zn	0.56550 0.84220 0.88415 0.71400
I 	I 	0.60644 0.97550 0.85930 -3.01200
I 	I 	0.54600 0.89990 0.44304 0.17500
I 	I 	0.53760 0.80720 0.50968 0.54800
Zn	Zn	0.21310 0.88400 0.57690 0.87900
I 	I 	0.28810 0.91200 0.62040 2.11400
I 	I 	0.19280 0.97000 0.51280 8.41200
Zn	Zn	0.55590 0.35070 0.37590 0.71400
I 	I 	0.51860 0.63900 0.60380 28.05100
Zn	Zn	0.70190 0.59960 0.55570 0.99400
I 	I 	0.66230 0.53640 0.49100 0.14800
I 	I 	0.77950 0.54640 0.58550 -0.72900
Zn	Zn	0.54290 0.83400 0.88700 0.54800
I 	I 	0.74430 0.40400 0.64210 -0.09200
I 	I 	0.71650 0.28780 0.69330 -0.00300
I 	I 	0.68560 0.26110 0.64010 -0.02500
I 	I 	0.76170 0.32800 0.68160 0.00400
I 	I 	0.50810 0.99480 0.47680 -0.23200
I 	I 	0.54880 0.83800 0.46610 -0.40300
I 	I 	0.57940 0.56800 0.44390 0.01400
I 	I 	0.56100 0.59360 0.51760 1.21000
I 	I 	0.58100 0.59300 0.43860 -0.03700
I 	I 	0.54060 0.50800 0.49250 -1.09700
I 	I 	0.60020 0.86900 0.61660 -3.44700
I 	I 	0.66190 0.99700 0.63900 0.49300
I 	I 	0.55210 0.82330 0.59720 9.11300
I 	I 	0.57850 0.99590 0.59150 -0.11000
I 	I 	0.56140 0.24800 0.55920 0.11100
I 	I 	0.63480 0.24380 0.61570 -0.02200
I 	I 	0.58690 0.19700 0.57380 -0.14200
I 	I 	0.56980 0.36420 0.54410 -0.25500
I 	I 	0.46790 0.85000 0.90590 -4.53300
I 	I 	0.43010 0.70270 0.89830 -0.89300
I 	I 	0.36290 0.58360 0.88080 -0.03000
I 	I 	0.43480 0.67070 0.91290 1.17400
I 	I 	0.38920 0.51540 0.91500 -0.23000
I 	I 	0.59400 0.49160 0.35600 3.41700
I 	I 	0.61940 0.40310 0.21620 0.01100
I 	I 	0.59850 0.45160 0.28670 -0.77700
I 	I 	0.58110 0.97500 0.86460 2.36100
Zn	Zn	0.25969 0.88320 0.91519 0.87900
I 	I 	0.18504 0.90310 0.86996 -2.36600
I 	I 	0.27883 0.98100 0.97593 -9.02500
Zn	Zn	0.59867 0.35530 0.83949 1.16300
I 	I 	0.63314 0.39100 0.77912 -0.29800
N 	N 	0.41560 0.88530 0.78740 -0.11300
N 	N 	0.43830 0.01400 0.82640 -0.14600
N 	N 	0.47840 0.96700 0.77480 -0.15200
N 	N 	0.31050 0.89900 0.88320 -0.47100
N 	N 	0.55270 0.25100 0.82510 -0.26000
N 	N 	0.45500 0.73800 0.66850 -0.54300
C 	C 	0.41320 0.94200 0.81770 0.11500
C 	C 	0.47120 0.02200 0.80320 0.03100
C 	C 	0.44770 0.90100 0.76760 0.07800
C 	C 	0.37710 0.92600 0.84090 0.19600
C 	C 	0.35370 0.85200 0.83870 -0.19500
H 	H 	0.36090 0.80440 0.82250 0.15800
C 	C 	0.31990 0.84100 0.85840 0.18200
H 	H 	0.30230 0.78850 0.85380 -0.07900
C 	C 	0.33500 0.97200 0.88950 0.07800
H 	H 	0.33020 0.01210 0.90980 -0.14000
C 	C 	0.36890 0.99200 0.86650 -0.15600
H 	H 	0.38440 0.04770 0.86900 0.07800
C 	C 	0.49910 0.10200 0.81180 -0.00800
C 	C 	0.50090 0.15200 0.84630 -0.14400
H 	H 	0.48280 0.13610 0.86500 0.00400
C 	C 	0.52760 0.22200 0.85320 0.02500
H 	H 	0.52980 0.25370 0.87760 -0.04900
C 	C 	0.55310 0.20500 0.79190 0.05000
H 	H 	0.57010 0.22390 0.77280 0.01100
C 	C 	0.52670 0.12600 0.78630 -0.09200
H 	H 	0.52830 0.08880 0.76410 0.07500
C 	C 	0.45140 0.84300 0.73210 0.09600
C 	C 	0.49240 0.82400 0.72120 -0.15100
H 	H 	0.51890 0.84660 0.73630 0.09000
C 	C 	0.49310 0.77200 0.68780 0.01200
H 	H 	0.52000 0.76120 0.67870 -0.18600
C 	C 	0.41890 0.75700 0.67890 0.19200
H 	H 	0.39280 0.73610 0.66250 -0.09100
C 	C 	0.41410 0.80500 0.71260 -0.18600
H 	H 	0.38660 0.81100 0.72120 0.14700
N 	N 	0.76270 0.06400 0.93370 -0.13000
N 	N 	0.78500 0.19500 0.96960 -0.11100
N 	N 	0.82730 0.05600 0.98490 -0.05300
N 	N 	0.64710 0.29100 0.87700 -0.28500
N 	N 	0.91190 0.27500 0.07530 -0.42000
N 	N 	0.78600 0.73700 0.93820 -0.38100
C 	C 	0.75640 0.15100 0.93970 0.09100
C 	C 	0.81790 0.14600 0.98730 0.17800
C 	C 	0.79520 0.02200 0.95520 0.21600
C 	C 	0.71870 0.20000 0.91650 0.05100
C 	C 	0.69540 0.16500 0.88420 -0.14600
H 	H 	0.70240 0.10650 0.87650 0.12900
C 	C 	0.66120 0.21100 0.86110 0.04300
H 	H 	0.64790 0.18930 0.83580 0.03500
C 	C 	0.67260 0.32100 0.91030 0.09000
H 	H 	0.66540 0.37660 0.92090 -0.00300
C 	C 	0.70600 0.27800 0.92840 -0.19100
H 	H 	0.72240 0.30380 0.95160 0.10600
C 	C 	0.84940 0.19100 0.01850 0.10300
C 	C 	0.84530 0.27900 0.02880 -0.11200
H 	H 	0.82140 0.31280 0.01520 0.10800
C 	C 	0.87560 0.32000 0.05910 0.04800
H 	H 	0.87040 0.37870 0.06780 -0.07500
C 	C 	0.91860 0.19000 0.06730 0.17300
H 	H 	0.94360 0.15990 0.08120 -0.08300
C 	C 	0.88830 0.14300 0.03740 -0.10900
H 	H 	0.89360 0.08240 0.03050 0.11300
C 	C 	0.79420 0.92200 0.94950 0.19200
C 	C 	0.82680 0.86700 0.96840 -0.09600
H 	H 	0.85280 0.88860 0.98480 0.14400
C 	C 	0.81750 0.77700 0.96110 0.22000
H 	H 	0.83840 0.73700 0.97560 -0.00500
C 	C 	0.76110 0.79100 0.91940 0.26100
H 	H 	0.73900 0.76590 0.89980 -0.07300
C 	C 	0.75990 0.87900 0.92190 -0.19500
H 	H 	0.73740 0.91310 0.90610 0.14100
I 	I 	0.56637 0.47800 0.87698 -0.41500
Zn	Zn	0.09084 0.11670 0.82705 1.17800
I 	I 	0.04937 0.99760 0.85891 -0.42600
I 	I 	0.12995 0.08420 0.76977 -0.31300
N 	N 	0.91430 0.59420 0.78100 -0.16000
N 	N 	0.93720 0.46500 0.81590 -0.31600
N 	N 	0.97100 0.50500 0.76160 -0.14900
N 	N 	0.82470 0.58300 0.89150 -0.31400
N 	N 	0.04390 0.21800 0.81140 -0.27000
N 	N 	0.94010 0.75000 0.66000 -0.33800
C 	C 	0.91250 0.53300 0.81030 -0.19500
C 	C 	0.96800 0.45500 0.79190 -0.09300
C 	C 	0.93990 0.57600 0.75760 0.00200
C 	C 	0.88040 0.55500 0.83890 0.04700
C 	C 	0.85130 0.62500 0.83530 -0.03500
H 	H 	0.85050 0.66720 0.81460 0.16800
C 	C 	0.82430 0.63200 0.86100 0.28500
H 	H 	0.80250 0.67750 0.85630 -0.01400
C 	C 	0.86140 0.52100 0.89950 0.21600
H 	H 	0.86890 0.49520 0.92500 -0.04100
C 	C 	0.88540 0.50000 0.87050 -0.23500
H 	H 	0.90440 0.44920 0.87270 -0.10600
C 	C 	0.99460 0.37000 0.79720 0.03400
C 	C 	0.99320 0.31600 0.83170 -0.13500
H 	H 	0.97560 0.33160 0.85080 -0.00600
C 	C 	0.01940 0.24000 0.83500 0.10500
H 	H 	0.01850 0.20180 0.85690 -0.02600
C 	C 	0.04950 0.26900 0.77950 0.03700
H 	H 	0.06970 0.25190 0.76280 -0.00200
C 	C 	0.02310 0.34800 0.77240 -0.11600
H 	H 	0.02550 0.38620 0.75060 0.07800
C 	C 	0.94360 0.63700 0.72490 0.04400
C 	C 	0.98210 0.64700 0.70630 -0.10400
H 	H 	0.00790 0.61240 0.71470 0.08100
C 	C 	0.97950 0.70800 0.67600 0.01100
H 	H 	0.00540 0.72150 0.66560 0.01100
C 	C 	0.90610 0.73300 0.67570 0.10500
H 	H 	0.87910 0.75830 0.66290 0.00700
C 	C 	0.90460 0.68200 0.70930 -0.12700
H 	H 	0.87880 0.67840 0.72100 0.10700
N 	N 	0.23890 0.42200 0.92650 -0.14800
N 	N 	0.26410 0.29500 0.96490 -0.11500
N 	N 	0.30090 0.43500 0.97730 -0.12800
N 	N 	0.13310 0.18400 0.86940 -0.28300
N 	N 	0.39040 0.22000 0.07190 -0.39400
N 	N 	0.26360 0.74800 0.92800 -0.33600
C 	C 	0.23970 0.33800 0.93780 0.08900
C 	C 	0.29750 0.34800 0.98540 0.06600
C 	C 	0.27100 0.46600 0.95020 0.11700
C 	C 	0.20070 0.28300 0.91440 0.15600
C 	C 	0.17720 0.31800 0.88480 -0.16500
H 	H 	0.18420 0.37750 0.87790 0.04000
C 	C 	0.13990 0.27400 0.86040 0.06100
H 	H 	0.12130 0.30410 0.83970 -0.05300
C 	C 	0.16280 0.15400 0.89960 0.20600
H 	H 	0.15930 0.09310 0.90600 0.04700
C 	C 	0.19490 0.19300 0.92130 -0.28300
H 	H 	0.21400 0.16160 0.94130 0.30700
C 	C 	0.33010 0.30200 0.01380 0.10300
C 	C 	0.32610 0.20900 0.02560 -0.31100
H 	H 	0.30110 0.17500 0.01430 0.16500
C 	C 	0.35650 0.17400 0.05160 0.16300
H 	H 	0.35480 0.11110 0.05670 -0.23300
C 	C 	0.39600 0.30500 0.06230 0.08000
H 	H 	0.42190 0.33540 0.07420 -0.06900
C 	C 	0.36640 0.34800 0.03640 -0.17400
H 	H 	0.36940 0.41110 0.03300 0.10100
C 	C 	0.26880 0.56800 0.94320 0.08600
C 	C 	0.30080 0.62700 0.96500 -0.16000
H 	H 	0.32480 0.60500 0.98370 0.07900
C 	C 	0.29520 0.71800 0.95760 0.12600
H 	H 	0.31370 0.76040 0.97340 -0.22700
C 	C 	0.23730 0.68900 0.90480 0.08300
H 	H 	0.21670 0.70980 0.88290 -0.01900
C 	C 	0.24090 0.60400 0.91300 -0.13300
H 	H 	0.22220 0.56350 0.89630 0.05000
Zn	Zn	0.96080 0.33170 0.11580 -0.31200
Zn	Zn	0.77340 0.60470 0.91990 0.98300
I 	I 	0.93320 0.49030 0.12620 -4.91300
I 	I 	0.03470 0.31210 0.09480 -30.38800
I 	I 	0.79930 0.51310 0.98090 -0.77500
I 	I 	0.69700 0.58480 0.87780 0.11900
I 	I 	0.00579 0.86840 0.59057 3.80800
Zn	Zn	0.93450 0.84220 0.61585 0.71400
I 	I 	0.89356 0.97550 0.64070 -3.00900
I 	I 	0.95400 0.89990 0.05696 0.16600
I 	I 	0.96240 0.80720 0.99032 0.54100
Zn	Zn	0.28690 0.88400 0.92310 0.87900
I 	I 	0.21190 0.91200 0.87960 2.11600
I 	I 	0.30720 0.97000 0.98720 8.39200
Zn	Zn	0.94410 0.35070 0.12410 0.71400
I 	I 	0.98140 0.63900 0.89620 28.11600
Zn	Zn	0.79810 0.59960 0.94430 0.99400
I 	I 	0.83770 0.53640 0.00900 0.15300
I 	I 	0.72050 0.54640 0.91450 -0.72800
Zn	Zn	0.95710 0.83400 0.61300 0.54900
I 	I 	0.75570 0.40400 0.85790 -0.09200
I 	I 	0.78350 0.28780 0.80670 -0.00300
I 	I 	0.81440 0.26110 0.85990 -0.02500
I 	I 	0.73830 0.32800 0.81840 0.00400
I 	I 	0.99190 0.99480 0.02320 -0.22900
I 	I 	0.95120 0.83800 0.03390 -0.38900
I 	I 	0.92060 0.56800 0.05610 0.01500
I 	I 	0.93900 0.59360 0.98240 1.20800
I 	I 	0.91900 0.59300 0.06140 -0.03700
I 	I 	0.95940 0.50800 0.00750 -1.09300
I 	I 	0.89980 0.86900 0.88340 -3.45500
I 	I 	0.83810 0.99700 0.86100 0.49400
I 	I 	0.94790 0.82330 0.90280 9.13400
I 	I 	0.92150 0.99590 0.90850 -0.11200
I 	I 	0.93860 0.24800 0.94080 0.11300
I 	I 	0.86520 0.24380 0.88430 -0.02100
I 	I 	0.91310 0.19700 0.92620 -0.14400
I 	I 	0.93020 0.36420 0.95590 -0.25800
I 	I 	0.03210 0.85000 0.59410 -4.51100
I 	I 	0.06990 0.70270 0.60170 -0.88800
I 	I 	0.13710 0.58360 0.61920 -0.03000
I 	I 	0.06520 0.67070 0.58710 1.16700
I 	I 	0.11080 0.51540 0.58500 -0.22900
I 	I 	0.90600 0.49160 0.14400 3.42100
I 	I 	0.88060 0.40310 0.28380 0.01100
I 	I 	0.90150 0.45160 0.21330 -0.77700
I 	I 	0.91890 0.97500 0.63540 2.35800
Zn	Zn	0.75969 0.11680 0.41519 0.88000
I 	I 	0.68504 0.09690 0.36996 -2.36300
I 	I 	0.77883 0.01900 0.47593 -9.04500
Zn	Zn	0.09867 0.64470 0.33949 1.16300
I 	I 	0.13314 0.60900 0.27912 -0.29800
N 	N 	0.91560 0.11470 0.28740 -0.11400
N 	N 	0.93830 0.98600 0.32640 -0.14700
N 	N 	0.97840 0.03300 0.27480 -0.15000
N 	N 	0.81050 0.10100 0.38320 -0.47100
N 	N 	0.05270 0.74900 0.32510 -0.26000
N 	N 	0.95500 0.26200 0.16850 -0.54300
C 	C 	0.91320 0.05800 0.31770 0.11600
C 	C 	0.97120 0.97800 0.30320 0.03100
C 	C 	0.94770 0.09900 0.26760 0.07900
C 	C 	0.87710 0.07400 0.34090 0.19500
C 	C 	0.85370 0.14800 0.33870 -0.19400
H 	H 	0.86090 0.19560 0.32250 0.15800
C 	C 	0.81990 0.15900 0.35840 0.18100
H 	H 	0.80230 0.21150 0.35380 -0.07900
C 	C 	0.83500 0.02800 0.38950 0.07700
H 	H 	0.83020 0.98790 0.40980 -0.14000
C 	C 	0.86890 0.00800 0.36650 -0.15500
H 	H 	0.88440 0.95230 0.36900 0.07800
C 	C 	0.99910 0.89800 0.31180 -0.00800
C 	C 	0.00090 0.84800 0.34630 -0.14200
H 	H 	0.98280 0.86390 0.36500 0.00400
C 	C 	0.02760 0.77800 0.35320 0.02400
H 	H 	0.02980 0.74630 0.37760 -0.04800
C 	C 	0.05310 0.79500 0.29190 0.04900
H 	H 	0.07010 0.77610 0.27280 0.01100
C 	C 	0.02670 0.87400 0.28630 -0.09200
H 	H 	0.02830 0.91120 0.26410 0.07500
C 	C 	0.95140 0.15700 0.23210 0.09500
C 	C 	0.99240 0.17600 0.22120 -0.14700
H 	H 	0.01890 0.15340 0.23630 0.08800
C 	C 	0.99310 0.22800 0.18780 0.01500
H 	H 	0.02000 0.23880 0.17870 -0.18900
C 	C 	0.91890 0.24300 0.17890 0.19200
H 	H 	0.89280 0.26390 0.16250 -0.09100
C 	C 	0.91410 0.19500 0.21260 -0.18600
H 	H 	0.88660 0.18900 0.22120 0.14700
N 	N 	0.26270 0.93600 0.43370 -0.13000
N 	N 	0.28500 0.80500 0.46960 -0.11100
N 	N 	0.32730 0.94400 0.48490 -0.05300
N 	N 	0.14710 0.70900 0.37700 -0.28500
N 	N 	0.41190 0.72500 0.57530 -0.42000
N 	N 	0.28600 0.26300 0.43820 -0.38100
C 	C 	0.25640 0.84900 0.43970 0.09100
C 	C 	0.31790 0.85400 0.48730 0.18000
C 	C 	0.29520 0.97800 0.45520 0.21600
C 	C 	0.21870 0.80000 0.41650 0.05100
C 	C 	0.19540 0.83500 0.38420 -0.14600
H 	H 	0.20240 0.89350 0.37650 0.12900
C 	C 	0.16120 0.78900 0.36110 0.04300
H 	H 	0.14790 0.81070 0.33580 0.03500
C 	C 	0.17260 0.67900 0.41030 0.09000
H 	H 	0.16540 0.62340 0.42090 -0.00300
C 	C 	0.20600 0.72200 0.42840 -0.19100
H 	H 	0.22240 0.69620 0.45160 0.10600
C 	C 	0.34940 0.80900 0.51850 0.10100
C 	C 	0.34530 0.72100 0.52880 -0.11100
H 	H 	0.32140 0.68720 0.51520 0.10700
C 	C 	0.37560 0.68000 0.55910 0.04700
H 	H 	0.37040 0.62130 0.56780 -0.07400
C 	C 	0.41860 0.81000 0.56730 0.17200
H 	H 	0.44360 0.84010 0.58120 -0.08400
C 	C 	0.38830 0.85700 0.53740 -0.10800
H 	H 	0.39360 0.91760 0.53050 0.11200
C 	C 	0.29420 0.07800 0.44950 0.19200
C 	C 	0.32680 0.13300 0.46840 -0.09700
H 	H 	0.35280 0.11140 0.48480 0.14500
C 	C 	0.31750 0.22300 0.46110 0.22000
H 	H 	0.33840 0.26300 0.47560 -0.00500
C 	C 	0.26110 0.20900 0.41940 0.26100
H 	H 	0.23900 0.23410 0.39980 -0.07400
C 	C 	0.25990 0.12100 0.42190 -0.19500
H 	H 	0.23740 0.08690 0.40610 0.14100
I 	I 	0.06637 0.52200 0.37698 -0.41500
Zn	Zn	0.59084 0.88330 0.32705 1.17800
I 	I 	0.54937 0.00240 0.35891 -0.42900
I 	I 	0.62995 0.91580 0.26977 -0.31300
N 	N 	0.41430 0.40580 0.28100 -0.16000
N 	N 	0.43720 0.53500 0.31590 -0.31600
N 	N 	0.47100 0.49500 0.26160 -0.14900
N 	N 	0.32470 0.41700 0.39150 -0.31400
N 	N 	0.54390 0.78200 0.31140 -0.27000
N 	N 	0.44010 0.25000 0.16000 -0.33800
C 	C 	0.41250 0.46700 0.31030 -0.19400
C 	C 	0.46800 0.54500 0.29190 -0.09300
C 	C 	0.43990 0.42400 0.25760 0.00200
C 	C 	0.38040 0.44500 0.33890 0.04700
C 	C 	0.35130 0.37500 0.33530 -0.03500
H 	H 	0.35050 0.33280 0.31460 0.16800
C 	C 	0.32430 0.36800 0.36100 0.28500
H 	H 	0.30250 0.32250 0.35630 -0.01400
C 	C 	0.36140 0.47900 0.39950 0.21500
H 	H 	0.36890 0.50480 0.42500 -0.04100
C 	C 	0.38540 0.50000 0.37050 -0.23400
H 	H 	0.40440 0.55080 0.37270 -0.10600
C 	C 	0.49460 0.63000 0.29720 0.03500
C 	C 	0.49320 0.68400 0.33170 -0.13500
H 	H 	0.47560 0.66840 0.35080 -0.00600
C 	C 	0.51940 0.76000 0.33500 0.10400
H 	H 	0.51850 0.79820 0.35690 -0.02600
C 	C 	0.54950 0.73100 0.27950 0.03700
H 	H 	0.56970 0.74810 0.26280 -0.00200
C 	C 	0.52310 0.65200 0.27240 -0.11700
H 	H 	0.52550 0.61380 0.25060 0.07800
C 	C 	0.44360 0.36300 0.22490 0.04400
C 	C 	0.48210 0.35300 0.20630 -0.10300
H 	H 	0.50790 0.38760 0.21470 0.07900
C 	C 	0.47950 0.29200 0.17600 0.01200
H 	H 	0.50540 0.27850 0.16560 0.01000
C 	C 	0.40610 0.26700 0.17570 0.10500
H 	H 	0.37910 0.24170 0.16290 0.00700
C 	C 	0.40460 0.31800 0.20930 -0.12700
H 	H 	0.37880 0.32160 0.22100 0.10700
N 	N 	0.73890 0.57800 0.42650 -0.14800
N 	N 	0.76410 0.70500 0.46490 -0.11500
N 	N 	0.80090 0.56500 0.47730 -0.12800
N 	N 	0.63310 0.81600 0.36940 -0.28300
N 	N 	0.89040 0.78000 0.57190 -0.39400
N 	N 	0.76360 0.25200 0.42800 -0.33600
C 	C 	0.73970 0.66200 0.43780 0.08900
C 	C 	0.79750 0.65200 0.48540 0.06500
C 	C 	0.77100 0.53400 0.45020 0.11600
C 	C 	0.70070 0.71700 0.41440 0.15600
C 	C 	0.67720 0.68200 0.38480 -0.16500
H 	H 	0.68420 0.62250 0.37790 0.04000
C 	C 	0.63990 0.72600 0.36040 0.06100
H 	H 	0.62130 0.69590 0.33970 -0.05300
C 	C 	0.66280 0.84600 0.39960 0.20600
H 	H 	0.65930 0.90690 0.40600 0.04700
C 	C 	0.69490 0.80700 0.42130 -0.28300
H 	H 	0.71400 0.83840 0.44130 0.30800
C 	C 	0.83010 0.69800 0.51380 0.10400
C 	C 	0.82610 0.79100 0.52560 -0.31200
H 	H 	0.80110 0.82500 0.51430 0.16600
C 	C 	0.85650 0.82600 0.55160 0.16400
H 	H 	0.85480 0.88890 0.55670 -0.23300
C 	C 	0.89600 0.69500 0.56230 0.08000
H 	H 	0.92190 0.66460 0.57420 -0.06900
C 	C 	0.86640 0.65200 0.53640 -0.17500
H 	H 	0.86940 0.58890 0.53300 0.10200
C 	C 	0.76880 0.43200 0.44320 0.08500
C 	C 	0.80080 0.37300 0.46500 -0.16000
H 	H 	0.82480 0.39500 0.48370 0.07900
C 	C 	0.79520 0.28200 0.45760 0.12600
H 	H 	0.81370 0.23960 0.47340 -0.22800
C 	C 	0.73730 0.31100 0.40480 0.08300
H 	H 	0.71670 0.29020 0.38290 -0.01900
C 	C 	0.74090 0.39600 0.41300 -0.13300
H 	H 	0.72220 0.43650 0.39630 0.05000
Zn	Zn	0.46080 0.66830 0.61580 -0.31000
Zn	Zn	0.27340 0.39530 0.41990 0.98300
I 	I 	0.43320 0.50970 0.62620 -4.90700
I 	I 	0.53470 0.68790 0.59480 -30.31800
I 	I 	0.29930 0.48690 0.48090 -0.77000
I 	I 	0.19700 0.41520 0.37780 0.11900
I 	I 	0.50579 0.13160 0.09057 3.82600
Zn	Zn	0.43450 0.15780 0.11585 0.71400
I 	I 	0.39356 0.02450 0.14070 -3.01200
I 	I 	0.45400 0.10010 0.55696 0.17500
I 	I 	0.46240 0.19280 0.49032 0.54800
Zn	Zn	0.78690 0.11600 0.42310 0.87900
I 	I 	0.71190 0.08800 0.37960 2.11400
I 	I 	0.80720 0.03000 0.48720 8.41200
Zn	Zn	0.44410 0.64930 0.62410 0.71400
I 	I 	0.48140 0.36100 0.39620 28.05100
Zn	Zn	0.29810 0.40040 0.44430 0.99400
I 	I 	0.33770 0.46360 0.50900 0.14800
I 	I 	0.22050 0.45360 0.41450 -0.72900
Zn	Zn	0.45710 0.16600 0.11300 0.54800
I 	I 	0.25570 0.59600 0.35790 -0.09200
I 	I 	0.28350 0.71220 0.30670 -0.00300
I 	I 	0.31440 0.73890 0.35990 -0.02500
I 	I 	0.23830 0.67200 0.31840 0.00400
I 	I 	0.49190 0.00520 0.52320 -0.23200
I 	I 	0.45120 0.16200 0.53390 -0.40300
I 	I 	0.42060 0.43200 0.55610 0.01400
I 	I 	0.43900 0.40640 0.48240 1.21000
I 	I 	0.41900 0.40700 0.56140 -0.03700
I 	I 	0.45940 0.49200 0.50750 -1.09700
I 	I 	0.39980 0.13100 0.38340 -3.44700
I 	I 	0.33810 0.00300 0.36100 0.49300
I 	I 	0.44790 0.17670 0.40280 9.11300
I 	I 	0.42150 0.00410 0.40850 -0.11000
I 	I 	0.43860 0.75200 0.44080 0.11100
I 	I 	0.36520 0.75620 0.38430 -0.02200
I 	I 	0.41310 0.80300 0.42620 -0.14200
I 	I 	0.43020 0.63580 0.45590 -0.25500
I 	I 	0.53210 0.15000 0.09410 -4.53300
I 	I 	0.56990 0.29730 0.10170 -0.89300
I 	I 	0.63710 0.41640 0.11920 -0.03000
I 	I 	0.56520 0.32930 0.08710 1.17400
I 	I 	0.61080 0.48460 0.08500 -0.23000
I 	I 	0.40600 0.50840 0.64400 3.41700
I 	I 	0.38060 0.59690 0.78380 0.01100
I 	I 	0.40150 0.54840 0.71330 -0.77700
I 	I 	0.41890 0.02500 0.13540 2.36100
Zn	Zn	0.74031 0.11680 0.08481 0.87900
I 	I 	0.81496 0.09690 0.13004 -2.36600
I 	I 	0.72117 0.01900 0.02407 -9.02500
Zn	Zn	0.40133 0.64470 0.16051 1.16300
I 	I 	0.36686 0.60900 0.22088 -0.29800
N 	N 	0.58440 0.11470 0.21260 -0.11300
N 	N 	0.56170 0.98600 0.17360 -0.14600
N 	N 	0.52160 0.03300 0.22520 -0.15200
N 	N 	0.68950 0.10100 0.11680 -0.47100
N 	N 	0.44730 0.74900 0.17490 -0.26000
N 	N 	0.54500 0.26200 0.33150 -0.54300
C 	C 	0.58680 0.05800 0.18230 0.11500
C 	C 	0.52880 0.97800 0.19680 0.03100
C 	C 	0.55230 0.09900 0.23240 0.07800
C 	C 	0.62290 0.07400 0.15910 0.19600
C 	C 	0.64630 0.14800 0.16130 -0.19500
H 	H 	0.63910 0.19560 0.17750 0.15800
C 	C 	0.68010 0.15900 0.14160 0.18200
H 	H 	0.69770 0.21150 0.14620 -0.07900
C 	C 	0.66500 0.02800 0.11050 0.07800
H 	H 	0.66980 0.98790 0.09020 -0.14000
C 	C 	0.63110 0.00800 0.13350 -0.15600
H 	H 	0.61560 0.95230 0.13100 0.07800
C 	C 	0.50090 0.89800 0.18820 -0.00800
C 	C 	0.49910 0.84800 0.15370 -0.14400
H 	H 	0.51720 0.86390 0.13500 0.00400
C 	C 	0.47240 0.77800 0.14680 0.02500
H 	H 	0.47020 0.74630 0.12240 -0.04900
C 	C 	0.44690 0.79500 0.20810 0.05000
H 	H 	0.42990 0.77610 0.22720 0.01100
C 	C 	0.47330 0.87400 0.21370 -0.09200
H 	H 	0.47170 0.91120 0.23590 0.07500
C 	C 	0.54860 0.15700 0.26790 0.09600
C 	C 	0.50760 0.17600 0.27880 -0.15100
H 	H 	0.48110 0.15340 0.26370 0.09000
C 	C 	0.50690 0.22800 0.31220 0.01200
H 	H 	0.48000 0.23880 0.32130 -0.18600
C 	C 	0.58110 0.24300 0.32110 0.19200
H 	H 	0.60720 0.26390 0.33750 -0.09100
C 	C 	0.58590 0.19500 0.28740 -0.18600
H 	H 	0.61340 0.18900 0.27880 0.14700
N 	N 	0.23730 0.93600 0.06630 -0.13000
N 	N 	0.21500 0.80500 0.03040 -0.11100
N 	N 	0.17270 0.94400 0.01510 -0.05300
N 	N 	0.35290 0.70900 0.12300 -0.28500
N 	N 	0.08810 0.72500 0.92470 -0.42000
N 	N 	0.21400 0.26300 0.06180 -0.38100
C 	C 	0.24360 0.84900 0.06030 0.09100
C 	C 	0.18210 0.85400 0.01270 0.17800
C 	C 	0.20480 0.97800 0.04480 0.21600
C 	C 	0.28130 0.80000 0.08350 0.05100
C 	C 	0.30460 0.83500 0.11580 -0.14600
H 	H 	0.29760 0.89350 0.12350 0.12900
C 	C 	0.33880 0.78900 0.13890 0.04300
H 	H 	0.35210 0.81070 0.16420 0.03500
C 	C 	0.32740 0.67900 0.08970 0.09000
H 	H 	0.33460 0.62340 0.07910 -0.00300
C 	C 	0.29400 0.72200 0.07160 -0.19100
H 	H 	0.27760 0.69620 0.04840 0.10600
C 	C 	0.15060 0.80900 0.98150 0.10300
C 	C 	0.15470 0.72100 0.97120 -0.11200
H 	H 	0.17860 0.68720 0.98480 0.10800
C 	C 	0.12440 0.68000 0.94090 0.04800
H 	H 	0.12960 0.62130 0.93220 -0.07500
C 	C 	0.08140 0.81000 0.93270 0.17300
H 	H 	0.05640 0.84010 0.91880 -0.08300
C 	C 	0.11170 0.85700 0.96260 -0.10900
H 	H 	0.10640 0.91760 0.96950 0.11300
C 	C 	0.20580 0.07800 0.05050 0.19200
C 	C 	0.17320 0.13300 0.03160 -0.09600
H 	H 	0.14720 0.11140 0.01520 0.14400
C 	C 	0.18250 0.22300 0.03890 0.22000
H 	H 	0.16160 0.26300 0.02440 -0.00500
C 	C 	0.23890 0.20900 0.08060 0.26100
H 	H 	0.26100 0.23410 0.10020 -0.07300
C 	C 	0.24010 0.12100 0.07810 -0.19500
H 	H 	0.26260 0.08690 0.09390 0.14100
I 	I 	0.43363 0.52200 0.12302 -0.41500
Zn	Zn	0.90916 0.88330 0.17295 1.17800
I 	I 	0.95063 0.00240 0.14109 -0.42600
I 	I 	0.87005 0.91580 0.23023 -0.31300
N 	N 	0.08570 0.40580 0.21900 -0.16000
N 	N 	0.06280 0.53500 0.18410 -0.31600
N 	N 	0.02900 0.49500 0.23840 -0.14900
N 	N 	0.17530 0.41700 0.10850 -0.31400
N 	N 	0.95610 0.78200 0.18860 -0.27000
N 	N 	0.05990 0.25000 0.34000 -0.33800
C 	C 	0.08750 0.46700 0.18970 -0.19500
C 	C 	0.03200 0.54500 0.20810 -0.09300
C 	C 	0.06010 0.42400 0.24240 0.00200
C 	C 	0.11960 0.44500 0.16110 0.04700
C 	C 	0.14870 0.37500 0.16470 -0.03500
H 	H 	0.14950 0.33280 0.18540 0.16800
C 	C 	0.17570 0.36800 0.13900 0.28500
H 	H 	0.19750 0.32250 0.14370 -0.01400
C 	C 	0.13860 0.47900 0.10050 0.21600
H 	H 	0.13110 0.50480 0.07500 -0.04100
C 	C 	0.11460 0.50000 0.12950 -0.23500
H 	H 	0.09560 0.55080 0.12730 -0.10600
C 	C 	0.00540 0.63000 0.20280 0.03400
C 	C 	0.00680 0.68400 0.16830 -0.13500
H 	H 	0.02440 0.66840 0.14920 -0.00600
C 	C 	0.98060 0.76000 0.16500 0.10500
H 	H 	0.98150 0.79820 0.14310 -0.02600
C 	C 	0.95050 0.73100 0.22050 0.03700
H 	H 	0.93030 0.74810 0.23720 -0.00200
C 	C 	0.97690 0.65200 0.22760 -0.11600
H 	H 	0.97450 0.61380 0.24940 0.07800
C 	C 	0.05640 0.36300 0.27510 0.04400
C 	C 	0.01790 0.35300 0.29370 -0.10400
H 	H 	0.99210 0.38760 0.28530 0.08100
C 	C 	0.02050 0.29200 0.32400 0.01100
H 	H 	0.99460 0.27850 0.33440 0.01100
C 	C 	0.09390 0.26700 0.32430 0.10500
H 	H 	0.12090 0.24170 0.33710 0.00700
C 	C 	0.09540 0.31800 0.29070 -0.12700
H 	H 	0.12120 0.32160 0.27900 0.10700
N 	N 	0.76110 0.57800 0.07350 -0.14800
N 	N 	0.73590 0.70500 0.03510 -0.11500
N 	N 	0.69910 0.56500 0.02270 -0.12800
N 	N 	0.86690 0.81600 0.13060 -0.28300
N 	N 	0.60960 0.78000 0.92810 -0.39400
N 	N 	0.73640 0.25200 0.07200 -0.33600
C 	C 	0.76030 0.66200 0.06220 0.08900
C 	C 	0.70250 0.65200 0.01460 0.06600
C 	C 	0.72900 0.53400 0.04980 0.11700
C 	C 	0.79930 0.71700 0.08560 0.15600
C 	C 	0.82280 0.68200 0.11520 -0.16500
H 	H 	0.81580 0.62250 0.12210 0.04000
C 	C 	0.86010 0.72600 0.13960 0.06100
H 	H 	0.87870 0.69590 0.16030 -0.05300
C 	C 	0.83720 0.84600 0.10040 0.20600
H 	H 	0.84070 0.90690 0.09400 0.04700
C 	C 	0.80510 0.80700 0.07870 -0.28300
H 	H 	0.78600 0.83840 0.05870 0.30700
C 	C 	0.66990 0.69800 0.98620 0.10300
C 	C 	0.67390 0.79100 0.97440 -0.31100
H 	H 	0.69890 0.82500 0.98570 0.16500
C 	C 	0.64350 0.82600 0.94840 0.16300
H 	H 	0.64520 0.88890 0.94330 -0.23300
C 	C 	0.60400 0.69500 0.93770 0.08000
H 	H 	0.57810 0.66460 0.92580 -0.06900
C 	C 	0.63360 0.65200 0.96360 -0.17400
H 	H 	0.63060 0.58890 0.96700 0.10100
C 	C 	0.73120 0.43200 0.05680 0.08600
C 	C 	0.69920 0.37300 0.03500 -0.16000
H 	H 	0.67520 0.39500 0.01630 0.07900
C 	C 	0.70480 0.28200 0.04240 0.12600
H 	H 	0.68630 0.23960 0.02660 -0.22700
C 	C 	0.76270 0.31100 0.09520 0.08300
H 	H 	0.78330 0.29020 0.11710 -0.01900
C 	C 	0.75910 0.39600 0.08700 -0.13300
H 	H 	0.77780 0.43650 0.10370 0.05000
Zn	Zn	0.03920 0.66830 0.88420 -0.31200
Zn	Zn	0.22660 0.39530 0.08010 0.98300
I 	I 	0.06680 0.50970 0.87380 -4.91300
I 	I 	0.96530 0.68790 0.90520 -30.38800
I 	I 	0.20070 0.48690 0.01910 -0.77500
I 	I 	0.30300 0.41520 0.12220 0.11900
I 	I 	0.99421 0.13160 0.40943 3.80800
Zn	Zn	0.06550 0.15780 0.38415 0.71400
I 	I 	0.10644 0.02450 0.35930 -3.00900
I 	I 	0.04600 0.10010 0.94304 0.16600
I 	I 	0.03760 0.19280 0.00968 0.54100
Zn	Zn	0.71310 0.11600 0.07690 0.87900
I 	I 	0.78810 0.08800 0.12040 2.11600
I 	I 	0.69280 0.03000 0.01280 8.39200
Zn	Zn	0.05590 0.64930 0.87590 0.71400
I 	I 	0.01860 0.36100 0.10380 28.11600
Zn	Zn	0.20190 0.40040 0.05570 0.99400
I 	I 	0.16230 0.46360 0.99100 0.15300
I 	I 	0.27950 0.45360 0.08550 -0.72800
Zn	Zn	0.04290 0.16600 0.38700 0.54900
I 	I 	0.24430 0.59600 0.14210 -0.09200
I 	I 	0.21650 0.71220 0.19330 -0.00300
I 	I 	0.18560 0.73890 0.14010 -0.02500
I 	I 	0.26170 0.67200 0.18160 0.00400
I 	I 	0.00810 0.00520 0.97680 -0.22900
I 	I 	0.04880 0.16200 0.96610 -0.38900
I 	I 	0.07940 0.43200 0.94390 0.01500
I 	I 	0.06100 0.40640 0.01760 1.20800
I 	I 	0.08100 0.40700 0.93860 -0.03700
I 	I 	0.04060 0.49200 0.99250 -1.09300
I 	I 	0.10020 0.13100 0.11660 -3.45500
I 	I 	0.16190 0.00300 0.13900 0.49400
I 	I 	0.05210 0.17670 0.09720 9.13400
I 	I 	0.07850 0.00410 0.09150 -0.11200
I 	I 	0.06140 0.75200 0.05920 0.11300
I 	I 	0.13480 0.75620 0.11570 -0.02100
I 	I 	0.08690 0.80300 0.07380 -0.14400
I 	I 	0.06980 0.63580 0.04410 -0.25800
I 	I 	0.96790 0.15000 0.40590 -4.51100
I 	I 	0.93010 0.29730 0.39830 -0.88800
I 	I 	0.86290 0.41640 0.38080 -0.03000
I 	I 	0.93480 0.32930 0.41290 1.16700
I 	I 	0.88920 0.48460 0.41500 -0.22900
I 	I 	0.09400 0.50840 0.85600 3.42100
I 	I 	0.11940 0.59690 0.71620 0.01100
I 	I 	0.09850 0.54840 0.78670 -0.77700
I 	I 	0.08110 0.02500 0.36460 2.35800
