data_crystal

_cell_length_a 30.41330
_cell_length_b 34.58800
_cell_length_c 27.59210
_cell_angle_alpha 90.00000
_cell_angle_beta  90.00000
_cell_angle_gamma 90.00000

_symmetry_space_group_name_	'P 1'
_symmetry_space_group_name_H-M	'P 1'

loop_
_symmetry_equiv_pos_as_xyz
  x,y,z

loop_
_atom_site_label
_atom_site_type_symbol
_atom_site_fract_x
_atom_site_fract_y
_atom_site_fract_z
_atom_site_charge
Cd	Cd	0.74706 0.39372 0.36871 1.24400
Cd	Cd	0.83911 0.49782 0.55317 1.24300
K 	K 	0.78907 0.44495 0.46299 0.72300
O 	O 	0.60288 0.29291 0.73880 -0.42800
O 	O 	0.72600 0.43260 0.43440 -0.42100
O 	O 	0.93920 0.19732 0.64270 -0.39100
O 	O 	0.77910 0.50286 0.45780 -0.35900
O 	O 	0.79400 0.35241 0.39890 -0.40200
O 	O 	0.76530 0.44428 0.53260 -0.37800
O 	O 	0.79110 0.46824 0.60190 -0.40000
O 	O 	0.64100 0.30640 0.80380 -0.35000
O 	O 	0.80010 0.38713 0.46770 -0.36200
O 	O 	0.53450 0.61300 0.55450 -0.36400
O 	O 	0.95830 0.17730 0.56890 -0.37300
O 	O 	0.79030 0.53976 0.52360 -0.39500
O 	O 	0.56320 0.59750 0.62520 -0.33500
O 	O 	0.69400 0.44710 0.36500 -0.34000
O 	O 	0.64900 0.70540 0.28940 -0.35700
C 	C 	0.65200 0.34580 0.68310 -0.05700
H 	H 	0.63260 0.32960 0.66680 0.07500
O 	O 	0.62240 0.71680 0.36160 -0.36600
C 	C 	0.65590 0.34370 0.73340 -0.05200
C 	C 	0.93720 0.20010 0.59840 0.32600
C 	C 	0.67770 0.37260 0.65760 0.04100
C 	C 	0.63220 0.31330 0.76130 0.31600
C 	C 	0.67760 0.37360 0.60590 -0.09200
H 	H 	0.65940 0.35650 0.58940 0.07200
C 	C 	0.73410 0.42240 0.60600 -0.06700
C 	C 	0.91240 0.23200 0.57620 -0.06800
C 	C 	0.90780 0.23480 0.52630 -0.04400
H 	H 	0.92090 0.21640 0.50640 0.06800
C 	C 	0.64640 0.51280 0.50780 0.03100
C 	C 	0.70200 0.39750 0.58050 0.01100
H 	H 	0.69910 0.39870 0.54700 0.04600
C 	C 	0.85390 0.29770 0.43490 0.00000
H 	H 	0.84910 0.29870 0.40170 0.04900
C 	C 	0.73330 0.42280 0.65390 -0.03900
H 	H 	0.75110 0.44050 0.67010 0.06500
C 	C 	0.67280 0.48390 0.43500 -0.04800
C 	C 	0.83520 0.32580 0.46460 -0.05200
C 	C 	0.67300 0.48510 0.48320 -0.05200
H 	H 	0.69040 0.46800 0.50080 0.07300
C 	C 	0.76610 0.44730 0.57740 0.34600
C 	C 	0.80780 0.35840 0.44240 0.33100
C 	C 	0.70660 0.39740 0.68190 0.02100
C 	C 	0.86320 0.29290 0.53550 0.03200
C 	C 	0.83830 0.32370 0.51220 -0.04900
H 	H 	0.82440 0.34230 0.53120 0.06800
C 	C 	0.59390 0.56470 0.50630 -0.05800
H 	H 	0.57600 0.58110 0.48830 0.07300
C 	C 	0.62140 0.53900 0.48150 0.03400
C 	C 	0.87900 0.26860 0.45360 -0.07800
H 	H 	0.89300 0.25120 0.43300 0.06300
C 	C 	0.59230 0.56660 0.55510 -0.04100
C 	C 	0.69930 0.45280 0.40950 0.30500
C 	C 	0.70840 0.39540 0.73310 -0.07300
H 	H 	0.72620 0.41290 0.74960 0.06000
C 	C 	0.74900 0.56600 0.46090 -0.08100
C 	C 	0.89090 0.26100 0.60670 0.00900
H 	H 	0.89320 0.25940 0.64020 0.04800
C 	C 	0.61940 0.54180 0.58240 -0.00500
H 	H 	0.61880 0.54270 0.61610 0.04900
C 	C 	0.56180 0.59480 0.57920 0.28700
C 	C 	0.88370 0.26510 0.50530 0.02600
C 	C 	0.77450 0.53360 0.48130 0.34100
C 	C 	0.64840 0.50940 0.40780 0.00300
H 	H 	0.64930 0.50820 0.37410 0.04900
C 	C 	0.64670 0.51640 0.55900 -0.07900
H 	H 	0.66580 0.50120 0.57710 0.06500
C 	C 	0.68560 0.36970 0.75890 -0.00200
H 	H 	0.68870 0.36830 0.79240 0.05000
C 	C 	0.70320 0.62880 0.42580 0.06900
C 	C 	0.86830 0.28950 0.58670 -0.08900
H 	H 	0.85520 0.30780 0.60660 0.07000
C 	C 	0.64710 0.69880 0.33090 0.30100
C 	C 	0.62340 0.53590 0.42990 -0.08300
H 	H 	0.60680 0.55280 0.41110 0.06800
C 	C 	0.72670 0.59280 0.49210 0.03000
H 	H 	0.72630 0.58890 0.52540 0.03900
C 	C 	0.74420 0.56850 0.41190 -0.02300
H 	H 	0.75610 0.55010 0.39120 0.05600
C 	C 	0.71990 0.60140 0.39380 0.00200
C 	C 	0.70530 0.62540 0.47170 -0.12100
H 	H 	0.69280 0.64410 0.49160 0.08200
C 	C 	0.67630 0.66590 0.35640 -0.00700
C 	C 	0.69270 0.63930 0.32440 -0.04300
H 	H 	0.68810 0.64130 0.29110 0.06500
C 	C 	0.71830 0.60690 0.34570 -0.05000
H 	H 	0.73350 0.59010 0.32540 0.05200
C 	C 	0.67760 0.66240 0.40320 -0.08400
H 	H 	0.66310 0.68020 0.42290 0.08300
Cd	Cd	0.74706 0.89372 0.86871 1.24400
Cd	Cd	0.83911 0.99782 0.05317 1.24300
K 	K 	0.78907 0.94495 0.96299 0.72300
O 	O 	0.60288 0.79291 0.23880 -0.42800
O 	O 	0.72600 0.93260 0.93440 -0.42100
O 	O 	0.93920 0.69732 0.14270 -0.39100
O 	O 	0.77910 0.00286 0.95780 -0.36000
O 	O 	0.79400 0.85241 0.89890 -0.40100
O 	O 	0.76530 0.94428 0.03260 -0.37900
O 	O 	0.79110 0.96824 0.10190 -0.40100
O 	O 	0.64100 0.80640 0.30380 -0.35000
O 	O 	0.80010 0.88713 0.96770 -0.36000
O 	O 	0.53450 0.11300 0.05450 -0.36300
O 	O 	0.95830 0.67730 0.06890 -0.37400
O 	O 	0.79030 0.03976 0.02360 -0.39800
O 	O 	0.56320 0.09750 0.12520 -0.33400
O 	O 	0.69400 0.94710 0.86500 -0.34200
O 	O 	0.64900 0.20540 0.78940 -0.35700
C 	C 	0.65200 0.84580 0.18310 -0.05700
H 	H 	0.63260 0.82960 0.16680 0.07500
O 	O 	0.62240 0.21680 0.86160 -0.36600
C 	C 	0.65590 0.84370 0.23340 -0.05100
C 	C 	0.93720 0.70010 0.09840 0.32700
C 	C 	0.67770 0.87260 0.15760 0.04100
C 	C 	0.63220 0.81330 0.26130 0.31600
C 	C 	0.67760 0.87360 0.10590 -0.09300
H 	H 	0.65940 0.85650 0.08940 0.07200
C 	C 	0.73410 0.92240 0.10600 -0.06700
C 	C 	0.91240 0.73200 0.07620 -0.07200
C 	C 	0.90780 0.73480 0.02630 -0.03800
H 	H 	0.92090 0.71640 0.00640 0.06500
C 	C 	0.64640 0.01280 0.00780 0.00300
C 	C 	0.70200 0.89750 0.08050 0.01100
H 	H 	0.69910 0.89870 0.04700 0.04500
C 	C 	0.85390 0.79770 0.93490 -0.00900
H 	H 	0.84910 0.79870 0.90170 0.05300
C 	C 	0.73330 0.92280 0.15390 -0.03900
H 	H 	0.75110 0.94050 0.17010 0.06500
C 	C 	0.67280 0.98390 0.93500 -0.06600
C 	C 	0.83520 0.82580 0.96460 -0.04200
C 	C 	0.67300 0.98510 0.98320 -0.02400
H 	H 	0.69040 0.96800 0.00080 0.06200
C 	C 	0.76610 0.94730 0.07740 0.34700
C 	C 	0.80780 0.85840 0.94240 0.32800
C 	C 	0.70660 0.89740 0.18190 0.02100
C 	C 	0.86320 0.79290 0.03550 0.03900
C 	C 	0.83830 0.82370 0.01220 -0.06000
H 	H 	0.82440 0.84230 0.03120 0.07100
C 	C 	0.59390 0.06470 0.00630 -0.08700
H 	H 	0.57600 0.08110 0.98830 0.08500
C 	C 	0.62140 0.03900 0.98150 0.06200
C 	C 	0.87900 0.76860 0.95360 -0.06700
H 	H 	0.89300 0.75120 0.93300 0.05900
C 	C 	0.59230 0.06660 0.05510 -0.02600
C 	C 	0.69930 0.95280 0.90950 0.31100
C 	C 	0.70840 0.89540 0.23310 -0.07300
H 	H 	0.72620 0.91290 0.24960 0.06000
C 	C 	0.74900 0.06600 0.96090 -0.08600
C 	C 	0.89090 0.76100 0.10670 0.01400
H 	H 	0.89320 0.75940 0.14020 0.04700
C 	C 	0.61940 0.04180 0.08240 -0.02300
H 	H 	0.61880 0.04270 0.11610 0.05500
C 	C 	0.56180 0.09480 0.07920 0.28100
C 	C 	0.88370 0.76510 0.00530 0.01700
C 	C 	0.77450 0.03360 0.98130 0.34600
C 	C 	0.64840 0.00940 0.90780 0.02400
H 	H 	0.64930 0.00820 0.87410 0.04200
C 	C 	0.64670 0.01640 0.05900 -0.05900
H 	H 	0.66580 0.00120 0.07710 0.05700
C 	C 	0.68560 0.86970 0.25890 -0.00300
H 	H 	0.68870 0.86830 0.29240 0.05000
C 	C 	0.70320 0.12880 0.92580 0.07400
C 	C 	0.86830 0.78950 0.08670 -0.09500
H 	H 	0.85520 0.80780 0.10660 0.07200
C 	C 	0.64710 0.19880 0.83090 0.30000
C 	C 	0.62340 0.03590 0.92990 -0.10500
H 	H 	0.60680 0.05280 0.91110 0.07500
C 	C 	0.72670 0.09280 0.99210 0.04100
H 	H 	0.72630 0.08890 0.02540 0.03400
C 	C 	0.74420 0.06850 0.91190 -0.01900
H 	H 	0.75610 0.05010 0.89120 0.05400
C 	C 	0.71990 0.10140 0.89380 -0.00200
C 	C 	0.70530 0.12540 0.97170 -0.12800
H 	H 	0.69280 0.14410 0.99160 0.08500
C 	C 	0.67630 0.16590 0.85640 -0.00500
C 	C 	0.69270 0.13930 0.82440 -0.04500
H 	H 	0.68810 0.14130 0.79110 0.06600
C 	C 	0.71830 0.10690 0.84570 -0.04800
H 	H 	0.73350 0.09010 0.82540 0.05100
C 	C 	0.67760 0.16240 0.90320 -0.08700
H 	H 	0.66310 0.18020 0.92290 0.08400
Cd	Cd	0.24706 0.39372 0.86871 1.24400
Cd	Cd	0.33911 0.49782 0.05317 1.24300
K 	K 	0.28907 0.44495 0.96299 0.72300
O 	O 	0.10288 0.29291 0.23880 -0.42800
O 	O 	0.22600 0.43260 0.93440 -0.42100
O 	O 	0.43920 0.19732 0.14270 -0.39100
O 	O 	0.27910 0.50286 0.95780 -0.36000
O 	O 	0.29400 0.35241 0.89890 -0.40100
O 	O 	0.26530 0.44428 0.03260 -0.37900
O 	O 	0.29110 0.46824 0.10190 -0.40100
O 	O 	0.14100 0.30640 0.30380 -0.35000
O 	O 	0.30010 0.38713 0.96770 -0.36000
O 	O 	0.03450 0.61300 0.05450 -0.36300
O 	O 	0.45830 0.17730 0.06890 -0.37400
O 	O 	0.29030 0.53976 0.02360 -0.39900
O 	O 	0.06320 0.59750 0.12520 -0.33400
O 	O 	0.19400 0.44710 0.86500 -0.34200
O 	O 	0.14900 0.70540 0.78940 -0.35700
C 	C 	0.15200 0.34580 0.18310 -0.05700
H 	H 	0.13260 0.32960 0.16680 0.07500
O 	O 	0.12240 0.71680 0.86160 -0.36600
C 	C 	0.15590 0.34370 0.23340 -0.05100
C 	C 	0.43720 0.20010 0.09840 0.32700
C 	C 	0.17770 0.37260 0.15760 0.04100
C 	C 	0.13220 0.31330 0.26130 0.31600
C 	C 	0.17760 0.37360 0.10590 -0.09300
H 	H 	0.15940 0.35650 0.08940 0.07200
C 	C 	0.23410 0.42240 0.10600 -0.06700
C 	C 	0.41240 0.23200 0.07620 -0.07200
C 	C 	0.40780 0.23480 0.02630 -0.03800
H 	H 	0.42090 0.21640 0.00640 0.06500
C 	C 	0.14640 0.51280 0.00780 0.00300
C 	C 	0.20200 0.39750 0.08050 0.01100
H 	H 	0.19910 0.39870 0.04700 0.04500
C 	C 	0.35390 0.29770 0.93490 -0.00900
H 	H 	0.34910 0.29870 0.90170 0.05300
C 	C 	0.23330 0.42280 0.15390 -0.03900
H 	H 	0.25110 0.44050 0.17010 0.06500
C 	C 	0.17280 0.48390 0.93500 -0.06600
C 	C 	0.33520 0.32580 0.96460 -0.04200
C 	C 	0.17300 0.48510 0.98320 -0.02400
H 	H 	0.19040 0.46800 0.00080 0.06200
C 	C 	0.26610 0.44730 0.07740 0.34700
C 	C 	0.30780 0.35840 0.94240 0.32800
C 	C 	0.20660 0.39740 0.18190 0.02100
C 	C 	0.36320 0.29290 0.03550 0.03900
C 	C 	0.33830 0.32370 0.01220 -0.06000
H 	H 	0.32440 0.34230 0.03120 0.07100
C 	C 	0.09390 0.56470 0.00630 -0.08700
H 	H 	0.07600 0.58110 0.98830 0.08500
C 	C 	0.12140 0.53900 0.98150 0.06300
C 	C 	0.37900 0.26860 0.95360 -0.06600
H 	H 	0.39300 0.25120 0.93300 0.05900
C 	C 	0.09230 0.56660 0.05510 -0.02500
C 	C 	0.19930 0.45280 0.90950 0.31100
C 	C 	0.20840 0.39540 0.23310 -0.07300
H 	H 	0.22620 0.41290 0.24960 0.06000
C 	C 	0.24900 0.56600 0.96090 -0.08700
C 	C 	0.39090 0.26100 0.10670 0.01400
H 	H 	0.39320 0.25940 0.14020 0.04700
C 	C 	0.11940 0.54180 0.08240 -0.02300
H 	H 	0.11880 0.54270 0.11610 0.05500
C 	C 	0.06180 0.59480 0.07920 0.28100
C 	C 	0.38370 0.26510 0.00530 0.01700
C 	C 	0.27450 0.53360 0.98130 0.34700
C 	C 	0.14840 0.50940 0.90780 0.02400
H 	H 	0.14930 0.50820 0.87410 0.04200
C 	C 	0.14670 0.51640 0.05900 -0.05900
H 	H 	0.16580 0.50120 0.07710 0.05700
C 	C 	0.18560 0.36970 0.25890 -0.00300
H 	H 	0.18870 0.36830 0.29240 0.05000
C 	C 	0.20320 0.62880 0.92580 0.07400
C 	C 	0.36830 0.28950 0.08670 -0.09500
H 	H 	0.35520 0.30780 0.10660 0.07200
C 	C 	0.14710 0.69880 0.83090 0.30000
C 	C 	0.12340 0.53590 0.92990 -0.10500
H 	H 	0.10680 0.55280 0.91110 0.07500
C 	C 	0.22670 0.59280 0.99210 0.04100
H 	H 	0.22630 0.58890 0.02540 0.03400
C 	C 	0.24420 0.56850 0.91190 -0.01900
H 	H 	0.25610 0.55010 0.89120 0.05400
C 	C 	0.21990 0.60140 0.89380 -0.00200
C 	C 	0.20530 0.62540 0.97170 -0.12800
H 	H 	0.19280 0.64410 0.99160 0.08500
C 	C 	0.17630 0.66590 0.85640 -0.00400
C 	C 	0.19270 0.63930 0.82440 -0.04500
H 	H 	0.18810 0.64130 0.79110 0.06600
C 	C 	0.21830 0.60690 0.84570 -0.04700
H 	H 	0.23350 0.59010 0.82540 0.05100
C 	C 	0.17760 0.66240 0.90320 -0.08700
H 	H 	0.16310 0.68020 0.92290 0.08400
Cd	Cd	0.24706 0.89372 0.36871 1.24400
Cd	Cd	0.33911 0.99782 0.55317 1.24300
K 	K 	0.28907 0.94495 0.46299 0.72300
O 	O 	0.10288 0.79291 0.73880 -0.42800
O 	O 	0.22600 0.93260 0.43440 -0.42100
O 	O 	0.43920 0.69732 0.64270 -0.39100
O 	O 	0.27910 0.00286 0.45780 -0.35900
O 	O 	0.29400 0.85241 0.39890 -0.40200
O 	O 	0.26530 0.94428 0.53260 -0.37800
O 	O 	0.29110 0.96824 0.60190 -0.40000
O 	O 	0.14100 0.80640 0.80380 -0.35000
O 	O 	0.30010 0.88713 0.46770 -0.36200
O 	O 	0.03450 0.11300 0.55450 -0.36400
O 	O 	0.45830 0.67730 0.56890 -0.37300
O 	O 	0.29030 0.03976 0.52360 -0.39500
O 	O 	0.06320 0.09750 0.62520 -0.33500
O 	O 	0.19400 0.94710 0.36500 -0.34000
O 	O 	0.14900 0.20540 0.28940 -0.35700
C 	C 	0.15200 0.84580 0.68310 -0.05700
H 	H 	0.13260 0.82960 0.66680 0.07500
O 	O 	0.12240 0.21680 0.36160 -0.36600
C 	C 	0.15590 0.84370 0.73340 -0.05200
C 	C 	0.43720 0.70010 0.59840 0.32600
C 	C 	0.17770 0.87260 0.65760 0.04100
C 	C 	0.13220 0.81330 0.76130 0.31600
C 	C 	0.17760 0.87360 0.60590 -0.09200
H 	H 	0.15940 0.85650 0.58940 0.07200
C 	C 	0.23410 0.92240 0.60600 -0.06700
C 	C 	0.41240 0.73200 0.57620 -0.06800
C 	C 	0.40780 0.73480 0.52630 -0.04400
H 	H 	0.42090 0.71640 0.50640 0.06800
C 	C 	0.14640 0.01280 0.50780 0.03100
C 	C 	0.20200 0.89750 0.58050 0.01100
H 	H 	0.19910 0.89870 0.54700 0.04600
C 	C 	0.35390 0.79770 0.43490 0.00000
H 	H 	0.34910 0.79870 0.40170 0.04900
C 	C 	0.23330 0.92280 0.65390 -0.03900
H 	H 	0.25110 0.94050 0.67010 0.06500
C 	C 	0.17280 0.98390 0.43500 -0.04800
C 	C 	0.33520 0.82580 0.46460 -0.05200
C 	C 	0.17300 0.98510 0.48320 -0.05200
H 	H 	0.19040 0.96800 0.50080 0.07300
C 	C 	0.26610 0.94730 0.57740 0.34600
C 	C 	0.30780 0.85840 0.44240 0.33100
C 	C 	0.20660 0.89740 0.68190 0.02100
C 	C 	0.36320 0.79290 0.53550 0.03200
C 	C 	0.33830 0.82370 0.51220 -0.04900
H 	H 	0.32440 0.84230 0.53120 0.06800
C 	C 	0.09390 0.06470 0.50630 -0.05800
H 	H 	0.07600 0.08110 0.48830 0.07300
C 	C 	0.12140 0.03900 0.48150 0.03400
C 	C 	0.37900 0.76860 0.45360 -0.07800
H 	H 	0.39300 0.75120 0.43300 0.06300
C 	C 	0.09230 0.06660 0.55510 -0.04100
C 	C 	0.19930 0.95280 0.40950 0.30500
C 	C 	0.20840 0.89540 0.73310 -0.07300
H 	H 	0.22620 0.91290 0.74960 0.06000
C 	C 	0.24900 0.06600 0.46090 -0.08100
C 	C 	0.39090 0.76100 0.60670 0.00900
H 	H 	0.39320 0.75940 0.64020 0.04800
C 	C 	0.11940 0.04180 0.58240 -0.00500
H 	H 	0.11880 0.04270 0.61610 0.04900
C 	C 	0.06180 0.09480 0.57920 0.28700
C 	C 	0.38370 0.76510 0.50530 0.02600
C 	C 	0.27450 0.03360 0.48130 0.34100
C 	C 	0.14840 0.00940 0.40780 0.00300
H 	H 	0.14930 0.00820 0.37410 0.04900
C 	C 	0.14670 0.01640 0.55900 -0.07900
H 	H 	0.16580 0.00120 0.57710 0.06400
C 	C 	0.18560 0.86970 0.75890 -0.00200
H 	H 	0.18870 0.86830 0.79240 0.05000
C 	C 	0.20320 0.12880 0.42580 0.06900
C 	C 	0.36830 0.78950 0.58670 -0.08900
H 	H 	0.35520 0.80780 0.60660 0.07000
C 	C 	0.14710 0.19880 0.33090 0.30100
C 	C 	0.12340 0.03590 0.42990 -0.08300
H 	H 	0.10680 0.05280 0.41110 0.06800
C 	C 	0.22670 0.09280 0.49210 0.03000
H 	H 	0.22630 0.08890 0.52540 0.03900
C 	C 	0.24420 0.06850 0.41190 -0.02300
H 	H 	0.25610 0.05010 0.39120 0.05600
C 	C 	0.21990 0.10140 0.39380 0.00200
C 	C 	0.20530 0.12540 0.47170 -0.12100
H 	H 	0.19280 0.14410 0.49160 0.08200
C 	C 	0.17630 0.16590 0.35640 -0.00700
C 	C 	0.19270 0.13930 0.32440 -0.04300
H 	H 	0.18810 0.14130 0.29110 0.06500
C 	C 	0.21830 0.10690 0.34570 -0.05000
H 	H 	0.23350 0.09010 0.32540 0.05200
C 	C 	0.17760 0.16240 0.40320 -0.08400
H 	H 	0.16310 0.18020 0.42290 0.08300
Cd	Cd	0.25294 0.60628 0.36871 1.24400
Cd	Cd	0.16089 0.50218 0.55317 1.24300
K 	K 	0.21093 0.55505 0.46299 0.72300
O 	O 	0.39712 0.70709 0.73880 -0.42800
O 	O 	0.27400 0.56740 0.43440 -0.42100
O 	O 	0.06080 0.80268 0.64270 -0.39100
O 	O 	0.22090 0.49714 0.45780 -0.35900
O 	O 	0.20600 0.64759 0.39890 -0.40200
O 	O 	0.23470 0.55572 0.53260 -0.37800
O 	O 	0.20890 0.53176 0.60190 -0.40000
O 	O 	0.35900 0.69360 0.80380 -0.35000
O 	O 	0.19990 0.61287 0.46770 -0.36200
O 	O 	0.46550 0.38700 0.55450 -0.36400
O 	O 	0.04170 0.82270 0.56890 -0.37300
O 	O 	0.20970 0.46024 0.52360 -0.39500
O 	O 	0.43680 0.40250 0.62520 -0.33500
O 	O 	0.30600 0.55290 0.36500 -0.34000
O 	O 	0.35100 0.29460 0.28940 -0.35700
C 	C 	0.34800 0.65420 0.68310 -0.05700
H 	H 	0.36740 0.67040 0.66680 0.07500
O 	O 	0.37760 0.28320 0.36160 -0.36600
C 	C 	0.34410 0.65630 0.73340 -0.05200
C 	C 	0.06280 0.79990 0.59840 0.32600
C 	C 	0.32230 0.62740 0.65760 0.04100
C 	C 	0.36780 0.68670 0.76130 0.31600
C 	C 	0.32240 0.62640 0.60590 -0.09200
H 	H 	0.34060 0.64350 0.58940 0.07200
C 	C 	0.26590 0.57760 0.60600 -0.06700
C 	C 	0.08760 0.76800 0.57620 -0.06800
C 	C 	0.09220 0.76520 0.52630 -0.04400
H 	H 	0.07910 0.78360 0.50640 0.06800
C 	C 	0.35360 0.48720 0.50780 0.03100
C 	C 	0.29800 0.60250 0.58050 0.01100
H 	H 	0.30090 0.60130 0.54700 0.04600
C 	C 	0.14610 0.70230 0.43490 0.00000
H 	H 	0.15090 0.70130 0.40170 0.04900
C 	C 	0.26670 0.57720 0.65390 -0.03900
H 	H 	0.24890 0.55950 0.67010 0.06500
C 	C 	0.32720 0.51610 0.43500 -0.04800
C 	C 	0.16480 0.67420 0.46460 -0.05200
C 	C 	0.32700 0.51490 0.48320 -0.05200
H 	H 	0.30960 0.53200 0.50080 0.07300
C 	C 	0.23390 0.55270 0.57740 0.34600
C 	C 	0.19220 0.64160 0.44240 0.33100
C 	C 	0.29340 0.60260 0.68190 0.02100
C 	C 	0.13680 0.70710 0.53550 0.03200
C 	C 	0.16170 0.67630 0.51220 -0.04900
H 	H 	0.17560 0.65770 0.53120 0.06800
C 	C 	0.40610 0.43530 0.50630 -0.05800
H 	H 	0.42400 0.41890 0.48830 0.07300
C 	C 	0.37860 0.46100 0.48150 0.03400
C 	C 	0.12100 0.73140 0.45360 -0.07800
H 	H 	0.10700 0.74880 0.43300 0.06300
C 	C 	0.40770 0.43340 0.55510 -0.04100
C 	C 	0.30070 0.54720 0.40950 0.30500
C 	C 	0.29160 0.60460 0.73310 -0.07300
H 	H 	0.27380 0.58710 0.74960 0.06000
C 	C 	0.25100 0.43400 0.46090 -0.08100
C 	C 	0.10910 0.73900 0.60670 0.00900
H 	H 	0.10680 0.74060 0.64020 0.04800
C 	C 	0.38060 0.45820 0.58240 -0.00500
H 	H 	0.38120 0.45730 0.61610 0.04900
C 	C 	0.43820 0.40520 0.57920 0.28700
C 	C 	0.11630 0.73490 0.50530 0.02600
C 	C 	0.22550 0.46640 0.48130 0.34100
C 	C 	0.35160 0.49060 0.40780 0.00300
H 	H 	0.35070 0.49180 0.37410 0.04900
C 	C 	0.35330 0.48360 0.55900 -0.07900
H 	H 	0.33420 0.49880 0.57710 0.06500
C 	C 	0.31440 0.63030 0.75890 -0.00200
H 	H 	0.31130 0.63170 0.79240 0.05000
C 	C 	0.29680 0.37120 0.42580 0.06900
C 	C 	0.13170 0.71050 0.58670 -0.08900
H 	H 	0.14480 0.69220 0.60660 0.07000
C 	C 	0.35290 0.30120 0.33090 0.30100
C 	C 	0.37660 0.46410 0.42990 -0.08300
H 	H 	0.39320 0.44720 0.41110 0.06800
C 	C 	0.27330 0.40720 0.49210 0.03000
H 	H 	0.27370 0.41110 0.52540 0.03900
C 	C 	0.25580 0.43150 0.41190 -0.02300
H 	H 	0.24390 0.44990 0.39120 0.05600
C 	C 	0.28010 0.39860 0.39380 0.00200
C 	C 	0.29470 0.37460 0.47170 -0.12100
H 	H 	0.30720 0.35590 0.49160 0.08200
C 	C 	0.32370 0.33410 0.35640 -0.00700
C 	C 	0.30730 0.36070 0.32440 -0.04300
H 	H 	0.31190 0.35870 0.29110 0.06500
C 	C 	0.28170 0.39310 0.34570 -0.05000
H 	H 	0.26650 0.40990 0.32540 0.05200
C 	C 	0.32240 0.33760 0.40320 -0.08400
H 	H 	0.33690 0.31980 0.42290 0.08300
Cd	Cd	0.25294 0.10628 0.86871 1.24400
Cd	Cd	0.16089 0.00218 0.05317 1.24300
K 	K 	0.21093 0.05505 0.96299 0.72300
O 	O 	0.39712 0.20709 0.23880 -0.42800
O 	O 	0.27400 0.06740 0.93440 -0.42100
O 	O 	0.06080 0.30268 0.14270 -0.39100
O 	O 	0.22090 0.99714 0.95780 -0.36000
O 	O 	0.20600 0.14759 0.89890 -0.40100
O 	O 	0.23470 0.05572 0.03260 -0.37900
O 	O 	0.20890 0.03176 0.10190 -0.40100
O 	O 	0.35900 0.19360 0.30380 -0.35000
O 	O 	0.19990 0.11287 0.96770 -0.36000
O 	O 	0.46550 0.88700 0.05450 -0.36300
O 	O 	0.04170 0.32270 0.06890 -0.37400
O 	O 	0.20970 0.96024 0.02360 -0.39800
O 	O 	0.43680 0.90250 0.12520 -0.33400
O 	O 	0.30600 0.05290 0.86500 -0.34200
O 	O 	0.35100 0.79460 0.78940 -0.35700
C 	C 	0.34800 0.15420 0.18310 -0.05700
H 	H 	0.36740 0.17040 0.16680 0.07500
O 	O 	0.37760 0.78320 0.86160 -0.36600
C 	C 	0.34410 0.15630 0.23340 -0.05100
C 	C 	0.06280 0.29990 0.09840 0.32700
C 	C 	0.32230 0.12740 0.15760 0.04100
C 	C 	0.36780 0.18670 0.26130 0.31600
C 	C 	0.32240 0.12640 0.10590 -0.09300
H 	H 	0.34060 0.14350 0.08940 0.07200
C 	C 	0.26590 0.07760 0.10600 -0.06700
C 	C 	0.08760 0.26800 0.07620 -0.07200
C 	C 	0.09220 0.26520 0.02630 -0.03800
H 	H 	0.07910 0.28360 0.00640 0.06500
C 	C 	0.35360 0.98720 0.00780 0.00300
C 	C 	0.29800 0.10250 0.08050 0.01100
H 	H 	0.30090 0.10130 0.04700 0.04500
C 	C 	0.14610 0.20230 0.93490 -0.00900
H 	H 	0.15090 0.20130 0.90170 0.05300
C 	C 	0.26670 0.07720 0.15390 -0.03900
H 	H 	0.24890 0.05950 0.17010 0.06500
C 	C 	0.32720 0.01610 0.93500 -0.06600
C 	C 	0.16480 0.17420 0.96460 -0.04200
C 	C 	0.32700 0.01490 0.98320 -0.02400
H 	H 	0.30960 0.03200 0.00080 0.06200
C 	C 	0.23390 0.05270 0.07740 0.34700
C 	C 	0.19220 0.14160 0.94240 0.32800
C 	C 	0.29340 0.10260 0.18190 0.02100
C 	C 	0.13680 0.20710 0.03550 0.03900
C 	C 	0.16170 0.17630 0.01220 -0.06000
H 	H 	0.17560 0.15770 0.03120 0.07100
C 	C 	0.40610 0.93530 0.00630 -0.08700
H 	H 	0.42400 0.91890 0.98830 0.08500
C 	C 	0.37860 0.96100 0.98150 0.06200
C 	C 	0.12100 0.23140 0.95360 -0.06700
H 	H 	0.10700 0.24880 0.93300 0.05900
C 	C 	0.40770 0.93340 0.05510 -0.02600
C 	C 	0.30070 0.04720 0.90950 0.31100
C 	C 	0.29160 0.10460 0.23310 -0.07300
H 	H 	0.27380 0.08710 0.24960 0.06000
C 	C 	0.25100 0.93400 0.96090 -0.08600
C 	C 	0.10910 0.23900 0.10670 0.01400
H 	H 	0.10680 0.24060 0.14020 0.04700
C 	C 	0.38060 0.95820 0.08240 -0.02300
H 	H 	0.38120 0.95730 0.11610 0.05500
C 	C 	0.43820 0.90520 0.07920 0.28100
C 	C 	0.11630 0.23490 0.00530 0.01700
C 	C 	0.22550 0.96640 0.98130 0.34600
C 	C 	0.35160 0.99060 0.90780 0.02400
H 	H 	0.35070 0.99180 0.87410 0.04200
C 	C 	0.35330 0.98360 0.05900 -0.05900
H 	H 	0.33420 0.99880 0.07710 0.05700
C 	C 	0.31440 0.13030 0.25890 -0.00300
H 	H 	0.31130 0.13170 0.29240 0.05000
C 	C 	0.29680 0.87120 0.92580 0.07400
C 	C 	0.13170 0.21050 0.08670 -0.09500
H 	H 	0.14480 0.19220 0.10660 0.07200
C 	C 	0.35290 0.80120 0.83090 0.30000
C 	C 	0.37660 0.96410 0.92990 -0.10500
H 	H 	0.39320 0.94720 0.91110 0.07500
C 	C 	0.27330 0.90720 0.99210 0.04100
H 	H 	0.27370 0.91110 0.02540 0.03400
C 	C 	0.25580 0.93150 0.91190 -0.01900
H 	H 	0.24390 0.94990 0.89120 0.05400
C 	C 	0.28010 0.89860 0.89380 -0.00200
C 	C 	0.29470 0.87460 0.97170 -0.12800
H 	H 	0.30720 0.85590 0.99160 0.08500
C 	C 	0.32370 0.83410 0.85640 -0.00500
C 	C 	0.30730 0.86070 0.82440 -0.04500
H 	H 	0.31190 0.85870 0.79110 0.06600
C 	C 	0.28170 0.89310 0.84570 -0.04800
H 	H 	0.26650 0.90990 0.82540 0.05100
C 	C 	0.32240 0.83760 0.90320 -0.08700
H 	H 	0.33690 0.81980 0.92290 0.08400
Cd	Cd	0.75294 0.60628 0.86871 1.24400
Cd	Cd	0.66089 0.50218 0.05317 1.24300
K 	K 	0.71093 0.55505 0.96299 0.72300
O 	O 	0.89712 0.70709 0.23880 -0.42800
O 	O 	0.77400 0.56740 0.93440 -0.42100
O 	O 	0.56080 0.80268 0.14270 -0.39100
O 	O 	0.72090 0.49714 0.95780 -0.36000
O 	O 	0.70600 0.64759 0.89890 -0.40100
O 	O 	0.73470 0.55572 0.03260 -0.37900
O 	O 	0.70890 0.53176 0.10190 -0.40100
O 	O 	0.85900 0.69360 0.30380 -0.35000
O 	O 	0.69990 0.61287 0.96770 -0.36000
O 	O 	0.96550 0.38700 0.05450 -0.36300
O 	O 	0.54170 0.82270 0.06890 -0.37400
O 	O 	0.70970 0.46024 0.02360 -0.39900
O 	O 	0.93680 0.40250 0.12520 -0.33400
O 	O 	0.80600 0.55290 0.86500 -0.34200
O 	O 	0.85100 0.29460 0.78940 -0.35700
C 	C 	0.84800 0.65420 0.18310 -0.05700
H 	H 	0.86740 0.67040 0.16680 0.07500
O 	O 	0.87760 0.28320 0.86160 -0.36600
C 	C 	0.84410 0.65630 0.23340 -0.05100
C 	C 	0.56280 0.79990 0.09840 0.32700
C 	C 	0.82230 0.62740 0.15760 0.04100
C 	C 	0.86780 0.68670 0.26130 0.31600
C 	C 	0.82240 0.62640 0.10590 -0.09300
H 	H 	0.84060 0.64350 0.08940 0.07200
C 	C 	0.76590 0.57760 0.10600 -0.06700
C 	C 	0.58760 0.76800 0.07620 -0.07200
C 	C 	0.59220 0.76520 0.02630 -0.03800
H 	H 	0.57910 0.78360 0.00640 0.06500
C 	C 	0.85360 0.48720 0.00780 0.00300
C 	C 	0.79800 0.60250 0.08050 0.01100
H 	H 	0.80090 0.60130 0.04700 0.04500
C 	C 	0.64610 0.70230 0.93490 -0.00900
H 	H 	0.65090 0.70130 0.90170 0.05300
C 	C 	0.76670 0.57720 0.15390 -0.03900
H 	H 	0.74890 0.55950 0.17010 0.06500
C 	C 	0.82720 0.51610 0.93500 -0.06600
C 	C 	0.66480 0.67420 0.96460 -0.04200
C 	C 	0.82700 0.51490 0.98320 -0.02400
H 	H 	0.80960 0.53200 0.00080 0.06200
C 	C 	0.73390 0.55270 0.07740 0.34700
C 	C 	0.69220 0.64160 0.94240 0.32800
C 	C 	0.79340 0.60260 0.18190 0.02100
C 	C 	0.63680 0.70710 0.03550 0.03900
C 	C 	0.66170 0.67630 0.01220 -0.06000
H 	H 	0.67560 0.65770 0.03120 0.07100
C 	C 	0.90610 0.43530 0.00630 -0.08700
H 	H 	0.92400 0.41890 0.98830 0.08500
C 	C 	0.87860 0.46100 0.98150 0.06300
C 	C 	0.62100 0.73140 0.95360 -0.06600
H 	H 	0.60700 0.74880 0.93300 0.05900
C 	C 	0.90770 0.43340 0.05510 -0.02500
C 	C 	0.80070 0.54720 0.90950 0.31100
C 	C 	0.79160 0.60460 0.23310 -0.07300
H 	H 	0.77380 0.58710 0.24960 0.06000
C 	C 	0.75100 0.43400 0.96090 -0.08700
C 	C 	0.60910 0.73900 0.10670 0.01400
H 	H 	0.60680 0.74060 0.14020 0.04700
C 	C 	0.88060 0.45820 0.08240 -0.02300
H 	H 	0.88120 0.45730 0.11610 0.05500
C 	C 	0.93820 0.40520 0.07920 0.28100
C 	C 	0.61630 0.73490 0.00530 0.01700
C 	C 	0.72550 0.46640 0.98130 0.34700
C 	C 	0.85160 0.49060 0.90780 0.02400
H 	H 	0.85070 0.49180 0.87410 0.04200
C 	C 	0.85330 0.48360 0.05900 -0.05900
H 	H 	0.83420 0.49880 0.07710 0.05700
C 	C 	0.81440 0.63030 0.25890 -0.00300
H 	H 	0.81130 0.63170 0.29240 0.05000
C 	C 	0.79680 0.37120 0.92580 0.07400
C 	C 	0.63170 0.71050 0.08670 -0.09500
H 	H 	0.64480 0.69220 0.10660 0.07200
C 	C 	0.85290 0.30120 0.83090 0.30000
C 	C 	0.87660 0.46410 0.92990 -0.10500
H 	H 	0.89320 0.44720 0.91110 0.07500
C 	C 	0.77330 0.40720 0.99210 0.04100
H 	H 	0.77370 0.41110 0.02540 0.03400
C 	C 	0.75580 0.43150 0.91190 -0.01900
H 	H 	0.74390 0.44990 0.89120 0.05400
C 	C 	0.78010 0.39860 0.89380 -0.00200
C 	C 	0.79470 0.37460 0.97170 -0.12800
H 	H 	0.80720 0.35590 0.99160 0.08500
C 	C 	0.82370 0.33410 0.85640 -0.00400
C 	C 	0.80730 0.36070 0.82440 -0.04500
H 	H 	0.81190 0.35870 0.79110 0.06600
C 	C 	0.78170 0.39310 0.84570 -0.04700
H 	H 	0.76650 0.40990 0.82540 0.05100
C 	C 	0.82240 0.33760 0.90320 -0.08700
H 	H 	0.83690 0.31980 0.92290 0.08400
Cd	Cd	0.75294 0.10628 0.36871 1.24400
Cd	Cd	0.66089 0.00218 0.55317 1.24300
K 	K 	0.71093 0.05505 0.46299 0.72300
O 	O 	0.89712 0.20709 0.73880 -0.42800
O 	O 	0.77400 0.06740 0.43440 -0.42100
O 	O 	0.56080 0.30268 0.64270 -0.39100
O 	O 	0.72090 0.99714 0.45780 -0.35900
O 	O 	0.70600 0.14759 0.39890 -0.40200
O 	O 	0.73470 0.05572 0.53260 -0.37800
O 	O 	0.70890 0.03176 0.60190 -0.40000
O 	O 	0.85900 0.19360 0.80380 -0.35000
O 	O 	0.69990 0.11287 0.46770 -0.36200
O 	O 	0.96550 0.88700 0.55450 -0.36400
O 	O 	0.54170 0.32270 0.56890 -0.37300
O 	O 	0.70970 0.96024 0.52360 -0.39500
O 	O 	0.93680 0.90250 0.62520 -0.33500
O 	O 	0.80600 0.05290 0.36500 -0.34000
O 	O 	0.85100 0.79460 0.28940 -0.35700
C 	C 	0.84800 0.15420 0.68310 -0.05700
H 	H 	0.86740 0.17040 0.66680 0.07500
O 	O 	0.87760 0.78320 0.36160 -0.36600
C 	C 	0.84410 0.15630 0.73340 -0.05200
C 	C 	0.56280 0.29990 0.59840 0.32600
C 	C 	0.82230 0.12740 0.65760 0.04100
C 	C 	0.86780 0.18670 0.76130 0.31600
C 	C 	0.82240 0.12640 0.60590 -0.09200
H 	H 	0.84060 0.14350 0.58940 0.07200
C 	C 	0.76590 0.07760 0.60600 -0.06700
C 	C 	0.58760 0.26800 0.57620 -0.06800
C 	C 	0.59220 0.26520 0.52630 -0.04400
H 	H 	0.57910 0.28360 0.50640 0.06800
C 	C 	0.85360 0.98720 0.50780 0.03100
C 	C 	0.79800 0.10250 0.58050 0.01100
H 	H 	0.80090 0.10130 0.54700 0.04600
C 	C 	0.64610 0.20230 0.43490 0.00000
H 	H 	0.65090 0.20130 0.40170 0.04900
C 	C 	0.76670 0.07720 0.65390 -0.03900
H 	H 	0.74890 0.05950 0.67010 0.06500
C 	C 	0.82720 0.01610 0.43500 -0.04800
C 	C 	0.66480 0.17420 0.46460 -0.05200
C 	C 	0.82700 0.01490 0.48320 -0.05200
H 	H 	0.80960 0.03200 0.50080 0.07300
C 	C 	0.73390 0.05270 0.57740 0.34600
C 	C 	0.69220 0.14160 0.44240 0.33100
C 	C 	0.79340 0.10260 0.68190 0.02100
C 	C 	0.63680 0.20710 0.53550 0.03200
C 	C 	0.66170 0.17630 0.51220 -0.04900
H 	H 	0.67560 0.15770 0.53120 0.06800
C 	C 	0.90610 0.93530 0.50630 -0.05800
H 	H 	0.92400 0.91890 0.48830 0.07300
C 	C 	0.87860 0.96100 0.48150 0.03400
C 	C 	0.62100 0.23140 0.45360 -0.07800
H 	H 	0.60700 0.24880 0.43300 0.06300
C 	C 	0.90770 0.93340 0.55510 -0.04100
C 	C 	0.80070 0.04720 0.40950 0.30500
C 	C 	0.79160 0.10460 0.73310 -0.07300
H 	H 	0.77380 0.08710 0.74960 0.06000
C 	C 	0.75100 0.93400 0.46090 -0.08100
C 	C 	0.60910 0.23900 0.60670 0.00900
H 	H 	0.60680 0.24060 0.64020 0.04800
C 	C 	0.88060 0.95820 0.58240 -0.00500
H 	H 	0.88120 0.95730 0.61610 0.04900
C 	C 	0.93820 0.90520 0.57920 0.28700
C 	C 	0.61630 0.23490 0.50530 0.02600
C 	C 	0.72550 0.96640 0.48130 0.34100
C 	C 	0.85160 0.99060 0.40780 0.00300
H 	H 	0.85070 0.99180 0.37410 0.04900
C 	C 	0.85330 0.98360 0.55900 -0.07900
H 	H 	0.83420 0.99880 0.57710 0.06400
C 	C 	0.81440 0.13030 0.75890 -0.00200
H 	H 	0.81130 0.13170 0.79240 0.05000
C 	C 	0.79680 0.87120 0.42580 0.06900
C 	C 	0.63170 0.21050 0.58670 -0.08900
H 	H 	0.64480 0.19220 0.60660 0.07000
C 	C 	0.85290 0.80120 0.33090 0.30100
C 	C 	0.87660 0.96410 0.42990 -0.08300
H 	H 	0.89320 0.94720 0.41110 0.06800
C 	C 	0.77330 0.90720 0.49210 0.03000
H 	H 	0.77370 0.91110 0.52540 0.03900
C 	C 	0.75580 0.93150 0.41190 -0.02300
H 	H 	0.74390 0.94990 0.39120 0.05600
C 	C 	0.78010 0.89860 0.39380 0.00200
C 	C 	0.79470 0.87460 0.47170 -0.12100
H 	H 	0.80720 0.85590 0.49160 0.08200
C 	C 	0.82370 0.83410 0.35640 -0.00700
C 	C 	0.80730 0.86070 0.32440 -0.04300
H 	H 	0.81190 0.85870 0.29110 0.06500
C 	C 	0.78170 0.89310 0.34570 -0.05000
H 	H 	0.76650 0.90990 0.32540 0.05200
C 	C 	0.82240 0.83760 0.40320 -0.08400
H 	H 	0.83690 0.81980 0.42290 0.08300
Cd	Cd	0.99706 0.85628 0.61871 1.24400
Cd	Cd	0.08911 0.75218 0.80317 1.24300
K 	K 	0.03907 0.80505 0.71299 0.72300
O 	O 	0.85288 0.95709 0.98880 -0.42300
O 	O 	0.97600 0.81740 0.68440 -0.42100
O 	O 	0.18920 0.05268 0.89270 -0.39100
O 	O 	0.02910 0.74714 0.70780 -0.35900
O 	O 	0.04400 0.89759 0.64890 -0.40200
O 	O 	0.01530 0.80572 0.78260 -0.37800
O 	O 	0.04110 0.78176 0.85190 -0.40000
O 	O 	0.89100 0.94360 0.05380 -0.34800
O 	O 	0.05010 0.86287 0.71770 -0.36200
O 	O 	0.78450 0.63700 0.80450 -0.36400
O 	O 	0.20830 0.07270 0.81890 -0.37300
O 	O 	0.04030 0.71024 0.77360 -0.39500
O 	O 	0.81320 0.65250 0.87520 -0.33500
O 	O 	0.94400 0.80290 0.61500 -0.34000
O 	O 	0.89900 0.54460 0.53940 -0.35700
C 	C 	0.90200 0.90420 0.93310 -0.06700
H 	H 	0.88260 0.92040 0.91680 0.07800
O 	O 	0.87240 0.53320 0.61160 -0.36600
C 	C 	0.90590 0.90630 0.98340 -0.03700
C 	C 	0.18720 0.04990 0.84840 0.32600
C 	C 	0.92770 0.87740 0.90760 0.04900
C 	C 	0.88220 0.93670 0.01130 0.30500
C 	C 	0.92760 0.87640 0.85590 -0.09900
H 	H 	0.90940 0.89350 0.83940 0.07400
C 	C 	0.98410 0.82760 0.85600 -0.07100
C 	C 	0.16240 0.01800 0.82620 -0.06900
C 	C 	0.15780 0.01520 0.77630 -0.04400
H 	H 	0.17090 0.03360 0.75640 0.06800
C 	C 	0.89640 0.73720 0.75780 0.03100
C 	C 	0.95200 0.85250 0.83050 0.01500
H 	H 	0.94910 0.85130 0.79700 0.04400
C 	C 	0.10390 0.95230 0.68490 0.00000
H 	H 	0.09910 0.95130 0.65170 0.04900
C 	C 	0.98330 0.82720 0.90390 -0.03300
H 	H 	0.00110 0.80950 0.92010 0.06300
C 	C 	0.92280 0.76610 0.68500 -0.04800
C 	C 	0.08520 0.92420 0.71460 -0.05200
C 	C 	0.92300 0.76490 0.73320 -0.05200
H 	H 	0.94040 0.78200 0.75080 0.07300
C 	C 	0.01610 0.80270 0.82740 0.34800
C 	C 	0.05780 0.89160 0.69240 0.33100
C 	C 	0.95660 0.85260 0.93190 0.01200
C 	C 	0.11320 0.95710 0.78550 0.03200
C 	C 	0.08830 0.92630 0.76220 -0.04900
H 	H 	0.07440 0.90770 0.78120 0.06800
C 	C 	0.84390 0.68530 0.75630 -0.05900
H 	H 	0.82600 0.66890 0.73830 0.07300
C 	C 	0.87140 0.71100 0.73150 0.03500
C 	C 	0.12900 0.98140 0.70360 -0.07800
H 	H 	0.14300 0.99880 0.68300 0.06300
C 	C 	0.84230 0.68340 0.80510 -0.04100
C 	C 	0.94930 0.79720 0.65950 0.30500
C 	C 	0.95840 0.85460 0.98310 -0.05700
H 	H 	0.97620 0.83710 0.99960 0.05600
C 	C 	0.99900 0.68400 0.71090 -0.08100
C 	C 	0.14090 0.98900 0.85670 0.01000
H 	H 	0.14320 0.99060 0.89020 0.04800
C 	C 	0.86940 0.70820 0.83240 -0.00600
H 	H 	0.86880 0.70730 0.86610 0.04900
C 	C 	0.81180 0.65520 0.82920 0.28700
C 	C 	0.13370 0.98490 0.75530 0.02600
C 	C 	0.02450 0.71640 0.73130 0.34100
C 	C 	0.89840 0.74060 0.65780 0.00300
H 	H 	0.89930 0.74180 0.62410 0.04900
C 	C 	0.89670 0.73360 0.80900 -0.07900
H 	H 	0.91580 0.74880 0.82710 0.06500
C 	C 	0.93560 0.88030 0.00890 -0.02100
H 	H 	0.93870 0.88170 0.04240 0.05600
C 	C 	0.95320 0.62120 0.67580 0.06900
C 	C 	0.11830 0.96050 0.83670 -0.08900
H 	H 	0.10520 0.94220 0.85660 0.07100
C 	C 	0.89710 0.55120 0.58090 0.30100
C 	C 	0.87340 0.71410 0.67990 -0.08300
H 	H 	0.85680 0.69720 0.66110 0.06800
C 	C 	0.97670 0.65720 0.74210 0.03000
H 	H 	0.97630 0.66110 0.77540 0.04000
C 	C 	0.99420 0.68150 0.66190 -0.02300
H 	H 	0.00610 0.69990 0.64120 0.05600
C 	C 	0.96990 0.64860 0.64380 0.00200
C 	C 	0.95530 0.62460 0.72170 -0.12000
H 	H 	0.94280 0.60590 0.74160 0.08200
C 	C 	0.92630 0.58410 0.60640 -0.00700
C 	C 	0.94270 0.61070 0.57440 -0.04300
H 	H 	0.93810 0.60870 0.54110 0.06500
C 	C 	0.96830 0.64310 0.59570 -0.05000
H 	H 	0.98350 0.65990 0.57540 0.05200
C 	C 	0.92760 0.58760 0.65320 -0.08400
H 	H 	0.91310 0.56980 0.67290 0.08300
Cd	Cd	0.99706 0.35628 0.11871 1.24400
Cd	Cd	0.08911 0.25218 0.30317 1.24300
K 	K 	0.03907 0.30505 0.21299 0.72300
O 	O 	0.85288 0.45709 0.48880 -0.42800
O 	O 	0.97600 0.31740 0.18440 -0.42100
O 	O 	0.18920 0.55268 0.39270 -0.39100
O 	O 	0.02910 0.24714 0.20780 -0.35900
O 	O 	0.04400 0.39759 0.14890 -0.40200
O 	O 	0.01530 0.30572 0.28260 -0.37800
O 	O 	0.04110 0.28176 0.35190 -0.40000
O 	O 	0.89100 0.44360 0.55380 -0.35000
O 	O 	0.05010 0.36287 0.21770 -0.36200
O 	O 	0.78450 0.13700 0.30450 -0.36400
O 	O 	0.20830 0.57270 0.31890 -0.37300
O 	O 	0.04030 0.21024 0.27360 -0.39500
O 	O 	0.81320 0.15250 0.37520 -0.33500
O 	O 	0.94400 0.30290 0.11500 -0.34100
O 	O 	0.89900 0.04460 0.03940 -0.35800
C 	C 	0.90200 0.40420 0.43310 -0.05700
H 	H 	0.88260 0.42040 0.41680 0.07500
O 	O 	0.87240 0.03320 0.11160 -0.36600
C 	C 	0.90590 0.40630 0.48340 -0.05200
C 	C 	0.18720 0.54990 0.34840 0.32600
C 	C 	0.92770 0.37740 0.40760 0.04100
C 	C 	0.88220 0.43670 0.51130 0.31600
C 	C 	0.92760 0.37640 0.35590 -0.09200
H 	H 	0.90940 0.39350 0.33940 0.07200
C 	C 	0.98410 0.32760 0.35600 -0.06700
C 	C 	0.16240 0.51800 0.32620 -0.06800
C 	C 	0.15780 0.51520 0.27630 -0.04400
H 	H 	0.17090 0.53360 0.25640 0.06800
C 	C 	0.89640 0.23720 0.25780 0.03100
C 	C 	0.95200 0.35250 0.33050 0.01100
H 	H 	0.94910 0.35130 0.29700 0.04600
C 	C 	0.10390 0.45230 0.18490 0.00000
H 	H 	0.09910 0.45130 0.15170 0.04900
C 	C 	0.98330 0.32720 0.40390 -0.03900
H 	H 	0.00110 0.30950 0.42010 0.06500
C 	C 	0.92280 0.26610 0.18500 -0.04800
C 	C 	0.08520 0.42420 0.21460 -0.05200
C 	C 	0.92300 0.26490 0.23320 -0.05200
H 	H 	0.94040 0.28200 0.25080 0.07300
C 	C 	0.01610 0.30270 0.32740 0.34600
C 	C 	0.05780 0.39160 0.19240 0.33100
C 	C 	0.95660 0.35260 0.43190 0.02100
C 	C 	0.11320 0.45710 0.28550 0.03200
C 	C 	0.08830 0.42630 0.26220 -0.04900
H 	H 	0.07440 0.40770 0.28120 0.06800
C 	C 	0.84390 0.18530 0.25630 -0.05800
H 	H 	0.82600 0.16890 0.23830 0.07300
C 	C 	0.87140 0.21100 0.23150 0.03400
C 	C 	0.12900 0.48140 0.20360 -0.07800
H 	H 	0.14300 0.49880 0.18300 0.06300
C 	C 	0.84230 0.18340 0.30510 -0.04100
C 	C 	0.94930 0.29720 0.15950 0.30500
C 	C 	0.95840 0.35460 0.48310 -0.07300
H 	H 	0.97620 0.33710 0.49960 0.06000
C 	C 	0.99900 0.18400 0.21090 -0.08100
C 	C 	0.14090 0.48900 0.35670 0.00900
H 	H 	0.14320 0.49060 0.39020 0.04800
C 	C 	0.86940 0.20820 0.33240 -0.00500
H 	H 	0.86880 0.20730 0.36610 0.04900
C 	C 	0.81180 0.15520 0.32920 0.28700
C 	C 	0.13370 0.48490 0.25530 0.02600
C 	C 	0.02450 0.21640 0.23130 0.34100
C 	C 	0.89840 0.24060 0.15780 0.00300
H 	H 	0.89930 0.24180 0.12410 0.04900
C 	C 	0.89670 0.23360 0.30900 -0.07900
H 	H 	0.91580 0.24880 0.32710 0.06500
C 	C 	0.93560 0.38030 0.50890 -0.00200
H 	H 	0.93870 0.38170 0.54240 0.05000
C 	C 	0.95320 0.12120 0.17580 0.06900
C 	C 	0.11830 0.46050 0.33670 -0.08900
H 	H 	0.10520 0.44220 0.35660 0.07000
C 	C 	0.89710 0.05120 0.08090 0.30100
C 	C 	0.87340 0.21410 0.17990 -0.08300
H 	H 	0.85680 0.19720 0.16110 0.06700
C 	C 	0.97670 0.15720 0.24210 0.03000
H 	H 	0.97630 0.16110 0.27540 0.04000
C 	C 	0.99420 0.18150 0.16190 -0.02300
H 	H 	0.00610 0.19990 0.14120 0.05500
C 	C 	0.96990 0.14860 0.14380 0.00200
C 	C 	0.95530 0.12460 0.22170 -0.12000
H 	H 	0.94280 0.10590 0.24160 0.08200
C 	C 	0.92630 0.08410 0.10640 -0.00700
C 	C 	0.94270 0.11070 0.07440 -0.04300
H 	H 	0.93810 0.10870 0.04110 0.06400
C 	C 	0.96830 0.14310 0.09570 -0.05100
H 	H 	0.98350 0.15990 0.07540 0.05200
C 	C 	0.92760 0.08760 0.15320 -0.08400
H 	H 	0.91310 0.06980 0.17290 0.08200
Cd	Cd	0.49706 0.85628 0.11871 1.24400
Cd	Cd	0.58911 0.75218 0.30317 1.24300
K 	K 	0.53907 0.80505 0.21299 0.72300
O 	O 	0.35288 0.95709 0.48880 -0.42800
O 	O 	0.47600 0.81740 0.18440 -0.42100
O 	O 	0.68920 0.05268 0.39270 -0.39100
O 	O 	0.52910 0.74714 0.20780 -0.35900
O 	O 	0.54400 0.89759 0.14890 -0.40200
O 	O 	0.51530 0.80572 0.28260 -0.37800
O 	O 	0.54110 0.78176 0.35190 -0.40000
O 	O 	0.39100 0.94360 0.55380 -0.35000
O 	O 	0.55010 0.86287 0.21770 -0.36200
O 	O 	0.28450 0.63700 0.30450 -0.36400
O 	O 	0.70830 0.07270 0.31890 -0.37300
O 	O 	0.54030 0.71024 0.27360 -0.39500
O 	O 	0.31320 0.65250 0.37520 -0.33500
O 	O 	0.44400 0.80290 0.11500 -0.34100
O 	O 	0.39900 0.54460 0.03940 -0.35800
C 	C 	0.40200 0.90420 0.43310 -0.05700
H 	H 	0.38260 0.92040 0.41680 0.07500
O 	O 	0.37240 0.53320 0.11160 -0.36600
C 	C 	0.40590 0.90630 0.48340 -0.05200
C 	C 	0.68720 0.04990 0.34840 0.32600
C 	C 	0.42770 0.87740 0.40760 0.04100
C 	C 	0.38220 0.93670 0.51130 0.31600
C 	C 	0.42760 0.87640 0.35590 -0.09200
H 	H 	0.40940 0.89350 0.33940 0.07200
C 	C 	0.48410 0.82760 0.35600 -0.06700
C 	C 	0.66240 0.01800 0.32620 -0.06800
C 	C 	0.65780 0.01520 0.27630 -0.04400
H 	H 	0.67090 0.03360 0.25640 0.06800
C 	C 	0.39640 0.73720 0.25780 0.03100
C 	C 	0.45200 0.85250 0.33050 0.01100
H 	H 	0.44910 0.85130 0.29700 0.04600
C 	C 	0.60390 0.95230 0.18490 0.00000
H 	H 	0.59910 0.95130 0.15170 0.04900
C 	C 	0.48330 0.82720 0.40390 -0.03900
H 	H 	0.50110 0.80950 0.42010 0.06500
C 	C 	0.42280 0.76610 0.18500 -0.04800
C 	C 	0.58520 0.92420 0.21460 -0.05200
C 	C 	0.42300 0.76490 0.23320 -0.05200
H 	H 	0.44040 0.78200 0.25080 0.07300
C 	C 	0.51610 0.80270 0.32740 0.34600
C 	C 	0.55780 0.89160 0.19240 0.33100
C 	C 	0.45660 0.85260 0.43190 0.02100
C 	C 	0.61320 0.95710 0.28550 0.03200
C 	C 	0.58830 0.92630 0.26220 -0.04900
H 	H 	0.57440 0.90770 0.28120 0.06800
C 	C 	0.34390 0.68530 0.25630 -0.05800
H 	H 	0.32600 0.66890 0.23830 0.07300
C 	C 	0.37140 0.71100 0.23150 0.03400
C 	C 	0.62900 0.98140 0.20360 -0.07800
H 	H 	0.64300 0.99880 0.18300 0.06300
C 	C 	0.34230 0.68340 0.30510 -0.04100
C 	C 	0.44930 0.79720 0.15950 0.30500
C 	C 	0.45840 0.85460 0.48310 -0.07300
H 	H 	0.47620 0.83710 0.49960 0.06000
C 	C 	0.49900 0.68400 0.21090 -0.08100
C 	C 	0.64090 0.98900 0.35670 0.00900
H 	H 	0.64320 0.99060 0.39020 0.04800
C 	C 	0.36940 0.70820 0.33240 -0.00500
H 	H 	0.36880 0.70730 0.36610 0.04900
C 	C 	0.31180 0.65520 0.32920 0.28700
C 	C 	0.63370 0.98490 0.25530 0.02600
C 	C 	0.52450 0.71640 0.23130 0.34100
C 	C 	0.39840 0.74060 0.15780 0.00300
H 	H 	0.39930 0.74180 0.12410 0.04900
C 	C 	0.39670 0.73360 0.30900 -0.07900
H 	H 	0.41580 0.74880 0.32710 0.06400
C 	C 	0.43560 0.88030 0.50890 -0.00200
H 	H 	0.43870 0.88170 0.54240 0.05000
C 	C 	0.45320 0.62120 0.17580 0.06900
C 	C 	0.61830 0.96050 0.33670 -0.08900
H 	H 	0.60520 0.94220 0.35660 0.07000
C 	C 	0.39710 0.55120 0.08090 0.30100
C 	C 	0.37340 0.71410 0.17990 -0.08300
H 	H 	0.35680 0.69720 0.16110 0.06700
C 	C 	0.47670 0.65720 0.24210 0.03000
H 	H 	0.47630 0.66110 0.27540 0.03900
C 	C 	0.49420 0.68150 0.16190 -0.02300
H 	H 	0.50610 0.69990 0.14120 0.05600
C 	C 	0.46990 0.64860 0.14380 0.00200
C 	C 	0.45530 0.62460 0.22170 -0.12000
H 	H 	0.44280 0.60590 0.24160 0.08200
C 	C 	0.42630 0.58410 0.10640 -0.00700
C 	C 	0.44270 0.61070 0.07440 -0.04300
H 	H 	0.43810 0.60870 0.04110 0.06400
C 	C 	0.46830 0.64310 0.09570 -0.05100
H 	H 	0.48350 0.65990 0.07540 0.05100
C 	C 	0.42760 0.58760 0.15320 -0.08400
H 	H 	0.41310 0.56980 0.17290 0.08200
Cd	Cd	0.49706 0.35628 0.61871 1.24400
Cd	Cd	0.58911 0.25218 0.80317 1.24300
K 	K 	0.53907 0.30505 0.71299 0.72300
O 	O 	0.35288 0.45709 0.98880 -0.42300
O 	O 	0.47600 0.31740 0.68440 -0.42100
O 	O 	0.68920 0.55268 0.89270 -0.39100
O 	O 	0.52910 0.24714 0.70780 -0.35900
O 	O 	0.54400 0.39759 0.64890 -0.40200
O 	O 	0.51530 0.30572 0.78260 -0.37800
O 	O 	0.54110 0.28176 0.85190 -0.40000
O 	O 	0.39100 0.44360 0.05380 -0.34800
O 	O 	0.55010 0.36287 0.71770 -0.36200
O 	O 	0.28450 0.13700 0.80450 -0.36400
O 	O 	0.70830 0.57270 0.81890 -0.37300
O 	O 	0.54030 0.21024 0.77360 -0.39500
O 	O 	0.31320 0.15250 0.87520 -0.33500
O 	O 	0.44400 0.30290 0.61500 -0.34000
O 	O 	0.39900 0.04460 0.53940 -0.35700
C 	C 	0.40200 0.40420 0.93310 -0.06700
H 	H 	0.38260 0.42040 0.91680 0.07800
O 	O 	0.37240 0.03320 0.61160 -0.36600
C 	C 	0.40590 0.40630 0.98340 -0.03700
C 	C 	0.68720 0.54990 0.84840 0.32600
C 	C 	0.42770 0.37740 0.90760 0.04900
C 	C 	0.38220 0.43670 0.01130 0.30500
C 	C 	0.42760 0.37640 0.85590 -0.09900
H 	H 	0.40940 0.39350 0.83940 0.07400
C 	C 	0.48410 0.32760 0.85600 -0.07100
C 	C 	0.66240 0.51800 0.82620 -0.06800
C 	C 	0.65780 0.51520 0.77630 -0.04400
H 	H 	0.67090 0.53360 0.75640 0.06800
C 	C 	0.39640 0.23720 0.75780 0.03100
C 	C 	0.45200 0.35250 0.83050 0.01500
H 	H 	0.44910 0.35130 0.79700 0.04400
C 	C 	0.60390 0.45230 0.68490 0.00000
H 	H 	0.59910 0.45130 0.65170 0.04900
C 	C 	0.48330 0.32720 0.90390 -0.03300
H 	H 	0.50110 0.30950 0.92010 0.06300
C 	C 	0.42280 0.26610 0.68500 -0.04800
C 	C 	0.58520 0.42420 0.71460 -0.05200
C 	C 	0.42300 0.26490 0.73320 -0.05200
H 	H 	0.44040 0.28200 0.75080 0.07300
C 	C 	0.51610 0.30270 0.82740 0.34800
C 	C 	0.55780 0.39160 0.69240 0.33100
C 	C 	0.45660 0.35260 0.93190 0.01200
C 	C 	0.61320 0.45710 0.78550 0.03200
C 	C 	0.58830 0.42630 0.76220 -0.04900
H 	H 	0.57440 0.40770 0.78120 0.06800
C 	C 	0.34390 0.18530 0.75630 -0.05900
H 	H 	0.32600 0.16890 0.73830 0.07300
C 	C 	0.37140 0.21100 0.73150 0.03500
C 	C 	0.62900 0.48140 0.70360 -0.07800
H 	H 	0.64300 0.49880 0.68300 0.06300
C 	C 	0.34230 0.18340 0.80510 -0.04100
C 	C 	0.44930 0.29720 0.65950 0.30500
C 	C 	0.45840 0.35460 0.98310 -0.05700
H 	H 	0.47620 0.33710 0.99960 0.05600
C 	C 	0.49900 0.18400 0.71090 -0.08100
C 	C 	0.64090 0.48900 0.85670 0.00900
H 	H 	0.64320 0.49060 0.89020 0.04800
C 	C 	0.36940 0.20820 0.83240 -0.00600
H 	H 	0.36880 0.20730 0.86610 0.04900
C 	C 	0.31180 0.15520 0.82920 0.28700
C 	C 	0.63370 0.48490 0.75530 0.02600
C 	C 	0.52450 0.21640 0.73130 0.34100
C 	C 	0.39840 0.24060 0.65780 0.00300
H 	H 	0.39930 0.24180 0.62410 0.04900
C 	C 	0.39670 0.23360 0.80900 -0.07900
H 	H 	0.41580 0.24880 0.82710 0.06500
C 	C 	0.43560 0.38030 0.00890 -0.02100
H 	H 	0.43870 0.38170 0.04240 0.05600
C 	C 	0.45320 0.12120 0.67580 0.06900
C 	C 	0.61830 0.46050 0.83670 -0.08900
H 	H 	0.60520 0.44220 0.85660 0.07100
C 	C 	0.39710 0.05120 0.58090 0.30100
C 	C 	0.37340 0.21410 0.67990 -0.08300
H 	H 	0.35680 0.19720 0.66110 0.06800
C 	C 	0.47670 0.15720 0.74210 0.03000
H 	H 	0.47630 0.16110 0.77540 0.04000
C 	C 	0.49420 0.18150 0.66190 -0.02300
H 	H 	0.50610 0.19990 0.64120 0.05600
C 	C 	0.46990 0.14860 0.64380 0.00200
C 	C 	0.45530 0.12460 0.72170 -0.12100
H 	H 	0.44280 0.10590 0.74160 0.08200
C 	C 	0.42630 0.08410 0.60640 -0.00700
C 	C 	0.44270 0.11070 0.57440 -0.04300
H 	H 	0.43810 0.10870 0.54110 0.06500
C 	C 	0.46830 0.14310 0.59570 -0.05000
H 	H 	0.48350 0.15990 0.57540 0.05200
C 	C 	0.42760 0.08760 0.65320 -0.08400
H 	H 	0.41310 0.06980 0.67290 0.08300
Cd	Cd	0.50294 0.64372 0.61871 1.24400
Cd	Cd	0.41089 0.74782 0.80317 1.24300
K 	K 	0.46093 0.69495 0.71299 0.72300
O 	O 	0.64712 0.54291 0.98880 -0.42300
O 	O 	0.52400 0.68260 0.68440 -0.42100
O 	O 	0.31080 0.44732 0.89270 -0.39100
O 	O 	0.47090 0.75286 0.70780 -0.35900
O 	O 	0.45600 0.60241 0.64890 -0.40200
O 	O 	0.48470 0.69428 0.78260 -0.37800
O 	O 	0.45890 0.71824 0.85190 -0.40000
O 	O 	0.60900 0.55640 0.05380 -0.34800
O 	O 	0.44990 0.63713 0.71770 -0.36200
O 	O 	0.71550 0.86300 0.80450 -0.36400
O 	O 	0.29170 0.42730 0.81890 -0.37300
O 	O 	0.45970 0.78976 0.77360 -0.39500
O 	O 	0.68680 0.84750 0.87520 -0.33500
O 	O 	0.55600 0.69710 0.61500 -0.34000
O 	O 	0.60100 0.95540 0.53940 -0.35700
C 	C 	0.59800 0.59580 0.93310 -0.06700
H 	H 	0.61740 0.57960 0.91680 0.07800
O 	O 	0.62760 0.96680 0.61160 -0.36600
C 	C 	0.59410 0.59370 0.98340 -0.03700
C 	C 	0.31280 0.45010 0.84840 0.32600
C 	C 	0.57230 0.62260 0.90760 0.04900
C 	C 	0.61780 0.56330 0.01130 0.30500
C 	C 	0.57240 0.62360 0.85590 -0.09900
H 	H 	0.59060 0.60650 0.83940 0.07400
C 	C 	0.51590 0.67240 0.85600 -0.07100
C 	C 	0.33760 0.48200 0.82620 -0.06800
C 	C 	0.34220 0.48480 0.77630 -0.04400
H 	H 	0.32910 0.46640 0.75640 0.06800
C 	C 	0.60360 0.76280 0.75780 0.03100
C 	C 	0.54800 0.64750 0.83050 0.01500
H 	H 	0.55090 0.64870 0.79700 0.04400
C 	C 	0.39610 0.54770 0.68490 0.00000
H 	H 	0.40090 0.54870 0.65170 0.04900
C 	C 	0.51670 0.67280 0.90390 -0.03300
H 	H 	0.49890 0.69050 0.92010 0.06300
C 	C 	0.57720 0.73390 0.68500 -0.04800
C 	C 	0.41480 0.57580 0.71460 -0.05200
C 	C 	0.57700 0.73510 0.73320 -0.05200
H 	H 	0.55960 0.71800 0.75080 0.07300
C 	C 	0.48390 0.69730 0.82740 0.34800
C 	C 	0.44220 0.60840 0.69240 0.33100
C 	C 	0.54340 0.64740 0.93190 0.01200
C 	C 	0.38680 0.54290 0.78550 0.03200
C 	C 	0.41170 0.57370 0.76220 -0.04900
H 	H 	0.42560 0.59230 0.78120 0.06800
C 	C 	0.65610 0.81470 0.75630 -0.05900
H 	H 	0.67400 0.83110 0.73830 0.07300
C 	C 	0.62860 0.78900 0.73150 0.03500
C 	C 	0.37100 0.51860 0.70360 -0.07800
H 	H 	0.35700 0.50120 0.68300 0.06300
C 	C 	0.65770 0.81660 0.80510 -0.04100
C 	C 	0.55070 0.70280 0.65950 0.30500
C 	C 	0.54160 0.64540 0.98310 -0.05700
H 	H 	0.52380 0.66290 0.99960 0.05600
C 	C 	0.50100 0.81600 0.71090 -0.08100
C 	C 	0.35910 0.51100 0.85670 0.00900
H 	H 	0.35680 0.50940 0.89020 0.04800
C 	C 	0.63060 0.79180 0.83240 -0.00600
H 	H 	0.63120 0.79270 0.86610 0.04900
C 	C 	0.68820 0.84480 0.82920 0.28700
C 	C 	0.36630 0.51510 0.75530 0.02600
C 	C 	0.47550 0.78360 0.73130 0.34100
C 	C 	0.60160 0.75940 0.65780 0.00300
H 	H 	0.60070 0.75820 0.62410 0.04900
C 	C 	0.60330 0.76640 0.80900 -0.07900
H 	H 	0.58420 0.75120 0.82710 0.06500
C 	C 	0.56440 0.61970 0.00890 -0.02100
H 	H 	0.56130 0.61830 0.04240 0.05600
C 	C 	0.54680 0.87880 0.67580 0.06900
C 	C 	0.38170 0.53950 0.83670 -0.08900
H 	H 	0.39480 0.55780 0.85660 0.07100
C 	C 	0.60290 0.94880 0.58090 0.30100
C 	C 	0.62660 0.78590 0.67990 -0.08300
H 	H 	0.64320 0.80280 0.66110 0.06800
C 	C 	0.52330 0.84280 0.74210 0.03000
H 	H 	0.52370 0.83890 0.77540 0.04000
C 	C 	0.50580 0.81850 0.66190 -0.02300
H 	H 	0.49390 0.80010 0.64120 0.05600
C 	C 	0.53010 0.85140 0.64380 0.00200
C 	C 	0.54470 0.87540 0.72170 -0.12100
H 	H 	0.55720 0.89410 0.74160 0.08200
C 	C 	0.57370 0.91590 0.60640 -0.00700
C 	C 	0.55730 0.88930 0.57440 -0.04300
H 	H 	0.56190 0.89130 0.54110 0.06500
C 	C 	0.53170 0.85690 0.59570 -0.05000
H 	H 	0.51650 0.84010 0.57540 0.05200
C 	C 	0.57240 0.91240 0.65320 -0.08400
H 	H 	0.58690 0.93020 0.67290 0.08300
Cd	Cd	0.50294 0.14372 0.11871 1.24400
Cd	Cd	0.41089 0.24782 0.30317 1.24300
K 	K 	0.46093 0.19495 0.21299 0.72300
O 	O 	0.64712 0.04291 0.48880 -0.42800
O 	O 	0.52400 0.18260 0.18440 -0.42100
O 	O 	0.31080 0.94732 0.39270 -0.39100
O 	O 	0.47090 0.25286 0.20780 -0.35900
O 	O 	0.45600 0.10241 0.14890 -0.40200
O 	O 	0.48470 0.19428 0.28260 -0.37800
O 	O 	0.45890 0.21824 0.35190 -0.40000
O 	O 	0.60900 0.05640 0.55380 -0.35000
O 	O 	0.44990 0.13713 0.21770 -0.36200
O 	O 	0.71550 0.36300 0.30450 -0.36400
O 	O 	0.29170 0.92730 0.31890 -0.37300
O 	O 	0.45970 0.28976 0.27360 -0.39500
O 	O 	0.68680 0.34750 0.37520 -0.33500
O 	O 	0.55600 0.19710 0.11500 -0.34100
O 	O 	0.60100 0.45540 0.03940 -0.35800
C 	C 	0.59800 0.09580 0.43310 -0.05700
H 	H 	0.61740 0.07960 0.41680 0.07500
O 	O 	0.62760 0.46680 0.11160 -0.36600
C 	C 	0.59410 0.09370 0.48340 -0.05200
C 	C 	0.31280 0.95010 0.34840 0.32600
C 	C 	0.57230 0.12260 0.40760 0.04100
C 	C 	0.61780 0.06330 0.51130 0.31600
C 	C 	0.57240 0.12360 0.35590 -0.09200
H 	H 	0.59060 0.10650 0.33940 0.07200
C 	C 	0.51590 0.17240 0.35600 -0.06700
C 	C 	0.33760 0.98200 0.32620 -0.06800
C 	C 	0.34220 0.98480 0.27630 -0.04400
H 	H 	0.32910 0.96640 0.25640 0.06800
C 	C 	0.60360 0.26280 0.25780 0.03100
C 	C 	0.54800 0.14750 0.33050 0.01100
H 	H 	0.55090 0.14870 0.29700 0.04600
C 	C 	0.39610 0.04770 0.18490 0.00000
H 	H 	0.40090 0.04870 0.15170 0.04900
C 	C 	0.51670 0.17280 0.40390 -0.03900
H 	H 	0.49890 0.19050 0.42010 0.06500
C 	C 	0.57720 0.23390 0.18500 -0.04800
C 	C 	0.41480 0.07580 0.21460 -0.05200
C 	C 	0.57700 0.23510 0.23320 -0.05200
H 	H 	0.55960 0.21800 0.25080 0.07300
C 	C 	0.48390 0.19730 0.32740 0.34600
C 	C 	0.44220 0.10840 0.19240 0.33100
C 	C 	0.54340 0.14740 0.43190 0.02100
C 	C 	0.38680 0.04290 0.28550 0.03200
C 	C 	0.41170 0.07370 0.26220 -0.04900
H 	H 	0.42560 0.09230 0.28120 0.06800
C 	C 	0.65610 0.31470 0.25630 -0.05800
H 	H 	0.67400 0.33110 0.23830 0.07300
C 	C 	0.62860 0.28900 0.23150 0.03400
C 	C 	0.37100 0.01860 0.20360 -0.07800
H 	H 	0.35700 0.00120 0.18300 0.06300
C 	C 	0.65770 0.31660 0.30510 -0.04100
C 	C 	0.55070 0.20280 0.15950 0.30500
C 	C 	0.54160 0.14540 0.48310 -0.07300
H 	H 	0.52380 0.16290 0.49960 0.06000
C 	C 	0.50100 0.31600 0.21090 -0.08100
C 	C 	0.35910 0.01100 0.35670 0.00900
H 	H 	0.35680 0.00940 0.39020 0.04800
C 	C 	0.63060 0.29180 0.33240 -0.00500
H 	H 	0.63120 0.29270 0.36610 0.04900
C 	C 	0.68820 0.34480 0.32920 0.28700
C 	C 	0.36630 0.01510 0.25530 0.02600
C 	C 	0.47550 0.28360 0.23130 0.34100
C 	C 	0.60160 0.25940 0.15780 0.00300
H 	H 	0.60070 0.25820 0.12410 0.04900
C 	C 	0.60330 0.26640 0.30900 -0.07900
H 	H 	0.58420 0.25120 0.32710 0.06400
C 	C 	0.56440 0.11970 0.50890 -0.00200
H 	H 	0.56130 0.11830 0.54240 0.05000
C 	C 	0.54680 0.37880 0.17580 0.06900
C 	C 	0.38170 0.03950 0.33670 -0.08900
H 	H 	0.39480 0.05780 0.35660 0.07000
C 	C 	0.60290 0.44880 0.08090 0.30100
C 	C 	0.62660 0.28590 0.17990 -0.08300
H 	H 	0.64320 0.30280 0.16110 0.06700
C 	C 	0.52330 0.34280 0.24210 0.03000
H 	H 	0.52370 0.33890 0.27540 0.03900
C 	C 	0.50580 0.31850 0.16190 -0.02300
H 	H 	0.49390 0.30010 0.14120 0.05600
C 	C 	0.53010 0.35140 0.14380 0.00200
C 	C 	0.54470 0.37540 0.22170 -0.12000
H 	H 	0.55720 0.39410 0.24160 0.08200
C 	C 	0.57370 0.41590 0.10640 -0.00700
C 	C 	0.55730 0.38930 0.07440 -0.04300
H 	H 	0.56190 0.39130 0.04110 0.06400
C 	C 	0.53170 0.35690 0.09570 -0.05100
H 	H 	0.51650 0.34010 0.07540 0.05100
C 	C 	0.57240 0.41240 0.15320 -0.08400
H 	H 	0.58690 0.43020 0.17290 0.08200
Cd	Cd	0.00294 0.64372 0.11871 1.24400
Cd	Cd	0.91089 0.74782 0.30317 1.24300
K 	K 	0.96093 0.69495 0.21299 0.72300
O 	O 	0.14712 0.54291 0.48880 -0.42800
O 	O 	0.02400 0.68260 0.18440 -0.42100
O 	O 	0.81080 0.44732 0.39270 -0.39100
O 	O 	0.97090 0.75286 0.20780 -0.35900
O 	O 	0.95600 0.60241 0.14890 -0.40200
O 	O 	0.98470 0.69428 0.28260 -0.37800
O 	O 	0.95890 0.71824 0.35190 -0.40000
O 	O 	0.10900 0.55640 0.55380 -0.35000
O 	O 	0.94990 0.63713 0.21770 -0.36200
O 	O 	0.21550 0.86300 0.30450 -0.36400
O 	O 	0.79170 0.42730 0.31890 -0.37300
O 	O 	0.95970 0.78976 0.27360 -0.39500
O 	O 	0.18680 0.84750 0.37520 -0.33500
O 	O 	0.05600 0.69710 0.11500 -0.34100
O 	O 	0.10100 0.95540 0.03940 -0.35800
C 	C 	0.09800 0.59580 0.43310 -0.05700
H 	H 	0.11740 0.57960 0.41680 0.07500
O 	O 	0.12760 0.96680 0.11160 -0.36600
C 	C 	0.09410 0.59370 0.48340 -0.05200
C 	C 	0.81280 0.45010 0.34840 0.32600
C 	C 	0.07230 0.62260 0.40760 0.04100
C 	C 	0.11780 0.56330 0.51130 0.31600
C 	C 	0.07240 0.62360 0.35590 -0.09200
H 	H 	0.09060 0.60650 0.33940 0.07200
C 	C 	0.01590 0.67240 0.35600 -0.06700
C 	C 	0.83760 0.48200 0.32620 -0.06800
C 	C 	0.84220 0.48480 0.27630 -0.04400
H 	H 	0.82910 0.46640 0.25640 0.06800
C 	C 	0.10360 0.76280 0.25780 0.03100
C 	C 	0.04800 0.64750 0.33050 0.01100
H 	H 	0.05090 0.64870 0.29700 0.04600
C 	C 	0.89610 0.54770 0.18490 0.00000
H 	H 	0.90090 0.54870 0.15170 0.04900
C 	C 	0.01670 0.67280 0.40390 -0.03900
H 	H 	0.99890 0.69050 0.42010 0.06500
C 	C 	0.07720 0.73390 0.18500 -0.04800
C 	C 	0.91480 0.57580 0.21460 -0.05200
C 	C 	0.07700 0.73510 0.23320 -0.05200
H 	H 	0.05960 0.71800 0.25080 0.07300
C 	C 	0.98390 0.69730 0.32740 0.34600
C 	C 	0.94220 0.60840 0.19240 0.33100
C 	C 	0.04340 0.64740 0.43190 0.02100
C 	C 	0.88680 0.54290 0.28550 0.03200
C 	C 	0.91170 0.57370 0.26220 -0.04900
H 	H 	0.92560 0.59230 0.28120 0.06800
C 	C 	0.15610 0.81470 0.25630 -0.05800
H 	H 	0.17400 0.83110 0.23830 0.07300
C 	C 	0.12860 0.78900 0.23150 0.03400
C 	C 	0.87100 0.51860 0.20360 -0.07800
H 	H 	0.85700 0.50120 0.18300 0.06300
C 	C 	0.15770 0.81660 0.30510 -0.04100
C 	C 	0.05070 0.70280 0.15950 0.30500
C 	C 	0.04160 0.64540 0.48310 -0.07300
H 	H 	0.02380 0.66290 0.49960 0.06000
C 	C 	0.00100 0.81600 0.21090 -0.08100
C 	C 	0.85910 0.51100 0.35670 0.00900
H 	H 	0.85680 0.50940 0.39020 0.04800
C 	C 	0.13060 0.79180 0.33240 -0.00500
H 	H 	0.13120 0.79270 0.36610 0.04900
C 	C 	0.18820 0.84480 0.32920 0.28700
C 	C 	0.86630 0.51510 0.25530 0.02600
C 	C 	0.97550 0.78360 0.23130 0.34100
C 	C 	0.10160 0.75940 0.15780 0.00300
H 	H 	0.10070 0.75820 0.12410 0.04900
C 	C 	0.10330 0.76640 0.30900 -0.07900
H 	H 	0.08420 0.75120 0.32710 0.06500
C 	C 	0.06440 0.61970 0.50890 -0.00200
H 	H 	0.06130 0.61830 0.54240 0.05000
C 	C 	0.04680 0.87880 0.17580 0.06900
C 	C 	0.88170 0.53950 0.33670 -0.08900
H 	H 	0.89480 0.55780 0.35660 0.07000
C 	C 	0.10290 0.94880 0.08090 0.30100
C 	C 	0.12660 0.78590 0.17990 -0.08300
H 	H 	0.14320 0.80280 0.16110 0.06700
C 	C 	0.02330 0.84280 0.24210 0.03000
H 	H 	0.02370 0.83890 0.27540 0.04000
C 	C 	0.00580 0.81850 0.16190 -0.02300
H 	H 	0.99390 0.80010 0.14120 0.05500
C 	C 	0.03010 0.85140 0.14380 0.00200
C 	C 	0.04470 0.87540 0.22170 -0.12000
H 	H 	0.05720 0.89410 0.24160 0.08200
C 	C 	0.07370 0.91590 0.10640 -0.00700
C 	C 	0.05730 0.88930 0.07440 -0.04300
H 	H 	0.06190 0.89130 0.04110 0.06400
C 	C 	0.03170 0.85690 0.09570 -0.05100
H 	H 	0.01650 0.84010 0.07540 0.05200
C 	C 	0.07240 0.91240 0.15320 -0.08400
H 	H 	0.08690 0.93020 0.17290 0.08200
Cd	Cd	0.00294 0.14372 0.61871 1.24400
Cd	Cd	0.91089 0.24782 0.80317 1.24300
K 	K 	0.96093 0.19495 0.71299 0.72300
O 	O 	0.14712 0.04291 0.98880 -0.42300
O 	O 	0.02400 0.18260 0.68440 -0.42100
O 	O 	0.81080 0.94732 0.89270 -0.39100
O 	O 	0.97090 0.25286 0.70780 -0.35900
O 	O 	0.95600 0.10241 0.64890 -0.40200
O 	O 	0.98470 0.19428 0.78260 -0.37800
O 	O 	0.95890 0.21824 0.85190 -0.40000
O 	O 	0.10900 0.05640 0.05380 -0.34800
O 	O 	0.94990 0.13713 0.71770 -0.36200
O 	O 	0.21550 0.36300 0.80450 -0.36400
O 	O 	0.79170 0.92730 0.81890 -0.37300
O 	O 	0.95970 0.28976 0.77360 -0.39500
O 	O 	0.18680 0.34750 0.87520 -0.33500
O 	O 	0.05600 0.19710 0.61500 -0.34000
O 	O 	0.10100 0.45540 0.53940 -0.35700
C 	C 	0.09800 0.09580 0.93310 -0.06700
H 	H 	0.11740 0.07960 0.91680 0.07800
O 	O 	0.12760 0.46680 0.61160 -0.36600
C 	C 	0.09410 0.09370 0.98340 -0.03700
C 	C 	0.81280 0.95010 0.84840 0.32600
C 	C 	0.07230 0.12260 0.90760 0.04900
C 	C 	0.11780 0.06330 0.01130 0.30500
C 	C 	0.07240 0.12360 0.85590 -0.09900
H 	H 	0.09060 0.10650 0.83940 0.07400
C 	C 	0.01590 0.17240 0.85600 -0.07100
C 	C 	0.83760 0.98200 0.82620 -0.06900
C 	C 	0.84220 0.98480 0.77630 -0.04400
H 	H 	0.82910 0.96640 0.75640 0.06800
C 	C 	0.10360 0.26280 0.75780 0.03100
C 	C 	0.04800 0.14750 0.83050 0.01500
H 	H 	0.05090 0.14870 0.79700 0.04400
C 	C 	0.89610 0.04770 0.68490 0.00000
H 	H 	0.90090 0.04870 0.65170 0.04900
C 	C 	0.01670 0.17280 0.90390 -0.03300
H 	H 	0.99890 0.19050 0.92010 0.06300
C 	C 	0.07720 0.23390 0.68500 -0.04800
C 	C 	0.91480 0.07580 0.71460 -0.05200
C 	C 	0.07700 0.23510 0.73320 -0.05200
H 	H 	0.05960 0.21800 0.75080 0.07300
C 	C 	0.98390 0.19730 0.82740 0.34800
C 	C 	0.94220 0.10840 0.69240 0.33100
C 	C 	0.04340 0.14740 0.93190 0.01200
C 	C 	0.88680 0.04290 0.78550 0.03200
C 	C 	0.91170 0.07370 0.76220 -0.04900
H 	H 	0.92560 0.09230 0.78120 0.06800
C 	C 	0.15610 0.31470 0.75630 -0.05900
H 	H 	0.17400 0.33110 0.73830 0.07300
C 	C 	0.12860 0.28900 0.73150 0.03500
C 	C 	0.87100 0.01860 0.70360 -0.07800
H 	H 	0.85700 0.00120 0.68300 0.06300
C 	C 	0.15770 0.31660 0.80510 -0.04100
C 	C 	0.05070 0.20280 0.65950 0.30500
C 	C 	0.04160 0.14540 0.98310 -0.05700
H 	H 	0.02380 0.16290 0.99960 0.05600
C 	C 	0.00100 0.31600 0.71090 -0.08100
C 	C 	0.85910 0.01100 0.85670 0.01000
H 	H 	0.85680 0.00940 0.89020 0.04800
C 	C 	0.13060 0.29180 0.83240 -0.00600
H 	H 	0.13120 0.29270 0.86610 0.04900
C 	C 	0.18820 0.34480 0.82920 0.28700
C 	C 	0.86630 0.01510 0.75530 0.02600
C 	C 	0.97550 0.28360 0.73130 0.34100
C 	C 	0.10160 0.25940 0.65780 0.00300
H 	H 	0.10070 0.25820 0.62410 0.04900
C 	C 	0.10330 0.26640 0.80900 -0.07900
H 	H 	0.08420 0.25120 0.82710 0.06500
C 	C 	0.06440 0.11970 0.00890 -0.02100
H 	H 	0.06130 0.11830 0.04240 0.05600
C 	C 	0.04680 0.37880 0.67580 0.06900
C 	C 	0.88170 0.03950 0.83670 -0.08900
H 	H 	0.89480 0.05780 0.85660 0.07100
C 	C 	0.10290 0.44880 0.58090 0.30100
C 	C 	0.12660 0.28590 0.67990 -0.08300
H 	H 	0.14320 0.30280 0.66110 0.06800
C 	C 	0.02330 0.34280 0.74210 0.03000
H 	H 	0.02370 0.33890 0.77540 0.04000
C 	C 	0.00580 0.31850 0.66190 -0.02300
H 	H 	0.99390 0.30010 0.64120 0.05600
C 	C 	0.03010 0.35140 0.64380 0.00200
C 	C 	0.04470 0.37540 0.72170 -0.12000
H 	H 	0.05720 0.39410 0.74160 0.08200
C 	C 	0.07370 0.41590 0.60640 -0.00700
C 	C 	0.05730 0.38930 0.57440 -0.04300
H 	H 	0.06190 0.39130 0.54110 0.06500
C 	C 	0.03170 0.35690 0.59570 -0.05000
H 	H 	0.01650 0.34010 0.57540 0.05200
C 	C 	0.07240 0.41240 0.65320 -0.08400
H 	H 	0.08690 0.43020 0.67290 0.08300
