data_crystal

_cell_length_a 12.84140
_cell_length_b 24.10860
_cell_length_c 12.34880
_cell_angle_alpha 90.00000
_cell_angle_beta  90.00000
_cell_angle_gamma 90.00000

_symmetry_space_group_name_	'P 1'
_symmetry_space_group_name_H-M	'P 1'

loop_
_symmetry_equiv_pos_as_xyz
  x,y,z

loop_
_atom_site_label
_atom_site_type_symbol
_atom_site_fract_x
_atom_site_fract_y
_atom_site_fract_z
_atom_site_charge
C 	C 	0.27890 0.66860 0.99170 0.28600
C 	C 	0.29970 0.72770 0.98540 -0.23800
H 	H 	0.30160 0.74560 0.91870 0.10800
C 	C 	0.31630 0.75610 0.07720 0.07800
C 	C 	0.31170 0.73090 0.17690 -0.24400
H 	H 	0.32200 0.75160 0.23960 0.11800
C 	C 	0.29130 0.67350 0.18350 0.27500
C 	C 	0.27310 0.64260 0.08870 -0.33600
H 	H 	0.25730 0.60500 0.09270 0.14700
C 	C 	0.23640 0.58660 0.88970 0.12600
H 	H 	0.28440 0.56380 0.93240 -0.01200
C 	C 	0.12690 0.58040 0.93370 0.35400
C 	C 	0.24120 0.56940 0.77390 -0.53300
H 	H 	0.19020 0.58970 0.73310 0.17900
H 	H 	0.22700 0.53040 0.76840 0.16500
H 	H 	0.30930 0.57700 0.74560 0.19400
C 	C 	0.27640 0.59510 0.30530 0.06700
H 	H 	0.21160 0.58350 0.27010 0.01300
C 	C 	0.36650 0.56240 0.25770 0.46000
C 	C 	0.26740 0.58570 0.42390 -0.48000
H 	H 	0.32790 0.60040 0.45960 0.15600
H 	H 	0.26220 0.54670 0.43810 0.15500
H 	H 	0.20630 0.60420 0.45070 0.17300
C 	C 	0.33980 0.81790 0.06970 0.26600
C 	C 	0.02630 0.95180 0.23610 0.22200
C 	C 	0.02760 0.95280 0.34960 -0.12200
H 	H 	0.04710 0.92120 0.38790 0.05700
C 	C 	0.05050 0.89580 0.07600 0.04500
H 	H 	0.98500 0.91110 0.04840 0.02900
C 	C 	0.14120 0.92490 0.01740 0.48600
C 	C 	0.05080 0.83350 0.05490 -0.49100
H 	H 	0.11560 0.81800 0.07910 0.17200
H 	H 	0.04270 0.82680 0.97880 0.14600
H 	H 	0.99440 0.81660 0.09360 0.19000
C 	C 	0.51280 0.05000 0.45280 -0.21300
H 	H 	0.52120 0.08350 0.41640 0.10400
C 	C 	0.51250 0.04740 0.56240 0.26900
C 	C 	0.51040 0.10510 0.72570 0.00000
H 	H 	0.44690 0.08620 0.74980 0.03100
C 	C 	0.60540 0.07830 0.77950 0.53200
C 	C 	0.50400 0.16680 0.75470 -0.41400
H 	H 	0.56960 0.18430 0.73980 0.13200
H 	H 	0.48790 0.17070 0.83030 0.14000
H 	H 	0.45040 0.18420 0.71240 0.15500
Nd	Nd	0.39822 0.93180 0.05460 2.44700
Nd	Nd	0.62488 0.58231 0.27481 2.09800
O 	O 	0.29200 0.65340 0.28700 -0.27900
O 	O 	0.44670 0.58570 0.23130 -0.56800
O 	O 	0.34640 0.51070 0.25350 -0.55500
O 	O 	0.26930 0.64350 0.89330 -0.27700
O 	O 	0.09790 0.53250 0.95950 -0.63500
O 	O 	0.06810 0.62070 0.93510 -0.47000
O 	O 	0.33420 0.84110 0.97960 -0.46700
O 	O 	0.36230 0.84410 0.15440 -0.44700
O 	O 	0.05200 0.90250 0.19060 -0.25000
O 	O 	0.21560 0.93970 0.07210 -0.58100
O 	O 	0.13310 0.92660 0.91790 -0.56600
O 	O 	0.04160 0.96060 0.57220 -0.57600
O 	O 	0.58790 0.05870 0.87080 -0.63200
O 	O 	0.68900 0.07910 0.73420 -0.59600
O 	O 	0.51960 0.10070 0.60890 -0.25700
O 	O 	0.45370 0.96070 0.22790 -0.57800
C 	C 	0.72110 0.33140 0.99170 0.28800
C 	C 	0.70030 0.27230 0.98540 -0.23600
H 	H 	0.69840 0.25440 0.91870 0.10900
C 	C 	0.68370 0.24390 0.07720 0.07900
C 	C 	0.68830 0.26910 0.17690 -0.24400
H 	H 	0.67800 0.24840 0.23960 0.11900
C 	C 	0.70870 0.32650 0.18350 0.27500
C 	C 	0.72690 0.35740 0.08870 -0.33800
H 	H 	0.74270 0.39500 0.09270 0.14800
C 	C 	0.76360 0.41340 0.88970 0.13000
H 	H 	0.71560 0.43620 0.93240 -0.01300
C 	C 	0.87310 0.41960 0.93370 0.35300
C 	C 	0.75880 0.43060 0.77390 -0.54000
H 	H 	0.80980 0.41030 0.73310 0.18400
H 	H 	0.77300 0.46960 0.76840 0.16700
H 	H 	0.69070 0.42300 0.74560 0.19600
C 	C 	0.72360 0.40490 0.30530 0.07000
H 	H 	0.78840 0.41650 0.27010 0.01400
C 	C 	0.63350 0.43760 0.25770 0.45900
C 	C 	0.73260 0.41430 0.42390 -0.48600
H 	H 	0.67210 0.39960 0.45960 0.15800
H 	H 	0.73780 0.45330 0.43810 0.15800
H 	H 	0.79370 0.39580 0.45070 0.17800
C 	C 	0.66020 0.18210 0.06970 0.26500
C 	C 	0.97370 0.04820 0.23610 0.22100
C 	C 	0.97240 0.04720 0.34960 -0.12700
H 	H 	0.95290 0.07880 0.38790 0.06000
C 	C 	0.94950 0.10420 0.07600 0.05400
H 	H 	0.01500 0.08890 0.04840 0.01500
C 	C 	0.85880 0.07510 0.01740 0.48100
C 	C 	0.94920 0.16650 0.05490 -0.45400
H 	H 	0.88440 0.18200 0.07910 0.16200
H 	H 	0.95730 0.17320 0.97880 0.14100
H 	H 	0.00560 0.18340 0.09360 0.16800
C 	C 	0.48720 0.95000 0.45280 -0.20200
H 	H 	0.47880 0.91650 0.41640 0.10200
C 	C 	0.48750 0.95260 0.56240 0.27800
C 	C 	0.48960 0.89490 0.72570 -0.00000
H 	H 	0.55310 0.91380 0.74980 0.03300
C 	C 	0.39460 0.92170 0.77950 0.53400
C 	C 	0.49600 0.83320 0.75470 -0.41300
H 	H 	0.43040 0.81570 0.73980 0.13100
H 	H 	0.51210 0.82930 0.83030 0.14000
H 	H 	0.54960 0.81580 0.71240 0.15500
Nd	Nd	0.60178 0.06820 0.05460 2.42100
Nd	Nd	0.37512 0.41769 0.27481 2.09500
O 	O 	0.70800 0.34660 0.28700 -0.27900
O 	O 	0.55330 0.41430 0.23130 -0.56800
O 	O 	0.65360 0.48930 0.25350 -0.55500
O 	O 	0.73070 0.35650 0.89330 -0.27700
O 	O 	0.90210 0.46750 0.95950 -0.63000
O 	O 	0.93190 0.37930 0.93510 -0.46100
O 	O 	0.66580 0.15890 0.97960 -0.46300
O 	O 	0.63770 0.15590 0.15440 -0.44500
O 	O 	0.94800 0.09750 0.19060 -0.24900
O 	O 	0.78440 0.06030 0.07210 -0.58400
O 	O 	0.86690 0.07340 0.91790 -0.56500
O 	O 	0.95840 0.03940 0.57220 -0.57900
O 	O 	0.41210 0.94130 0.87080 -0.62900
O 	O 	0.31100 0.92090 0.73420 -0.59200
O 	O 	0.48040 0.89930 0.60890 -0.25800
O 	O 	0.54630 0.03930 0.22790 -0.58700
C 	C 	0.22110 0.16860 0.00830 0.28700
C 	C 	0.20030 0.22770 0.01460 -0.23500
H 	H 	0.19840 0.24560 0.08130 0.10800
C 	C 	0.18370 0.25610 0.92280 0.07700
C 	C 	0.18830 0.23090 0.82310 -0.24300
H 	H 	0.17800 0.25160 0.76040 0.11800
C 	C 	0.20870 0.17350 0.81650 0.27400
C 	C 	0.22690 0.14260 0.91130 -0.33700
H 	H 	0.24270 0.10500 0.90730 0.14600
C 	C 	0.26360 0.08660 0.11030 0.12300
H 	H 	0.21560 0.06380 0.06760 -0.01300
C 	C 	0.37310 0.08040 0.06630 0.35600
C 	C 	0.25880 0.06940 0.22610 -0.52600
H 	H 	0.30980 0.08970 0.26690 0.17800
H 	H 	0.27300 0.03040 0.23160 0.16000
H 	H 	0.19070 0.07700 0.25440 0.19100
C 	C 	0.22360 0.09510 0.69470 0.06500
H 	H 	0.28840 0.08350 0.72990 0.01400
C 	C 	0.13350 0.06240 0.74230 0.46100
C 	C 	0.23260 0.08570 0.57610 -0.47600
H 	H 	0.17210 0.10040 0.54040 0.15400
H 	H 	0.23780 0.04670 0.56190 0.15200
H 	H 	0.29370 0.10420 0.54930 0.17300
C 	C 	0.16020 0.31790 0.93030 0.26500
C 	C 	0.47370 0.45180 0.76390 0.21300
C 	C 	0.47240 0.45280 0.65040 -0.13200
H 	H 	0.45290 0.42120 0.61210 0.06100
C 	C 	0.44950 0.39580 0.92400 0.05000
H 	H 	0.51500 0.41110 0.95160 0.02100
C 	C 	0.35880 0.42490 0.98260 0.48300
C 	C 	0.44920 0.33350 0.94510 -0.46700
H 	H 	0.38440 0.31800 0.92090 0.16500
H 	H 	0.45730 0.32680 0.02120 0.14300
H 	H 	0.50560 0.31660 0.90640 0.17700
C 	C 	0.98720 0.55000 0.54720 -0.20400
H 	H 	0.97880 0.58350 0.58360 0.10400
C 	C 	0.98750 0.54740 0.43760 0.27200
C 	C 	0.98960 0.60510 0.27430 -0.01500
H 	H 	0.05310 0.58620 0.25020 0.03200
C 	C 	0.89460 0.57830 0.22050 0.54000
C 	C 	0.99600 0.66680 0.24530 -0.33700
H 	H 	0.93040 0.68430 0.26020 0.11000
H 	H 	0.01210 0.67070 0.16970 0.11100
H 	H 	0.04960 0.68420 0.28760 0.12700
Nd	Nd	0.10178 0.43180 0.94540 2.42300
Nd	Nd	0.87512 0.08231 0.72519 2.09000
O 	O 	0.20800 0.15340 0.71300 -0.27800
O 	O 	0.05330 0.08570 0.76870 -0.57300
O 	O 	0.15360 0.01070 0.74650 -0.56300
O 	O 	0.23070 0.14350 0.10670 -0.27600
O 	O 	0.40210 0.03250 0.04050 -0.63900
O 	O 	0.43190 0.12070 0.06490 -0.46500
O 	O 	0.16580 0.34110 0.02040 -0.46500
O 	O 	0.13770 0.34410 0.84560 -0.44700
O 	O 	0.44800 0.40250 0.80940 -0.24800
O 	O 	0.28440 0.43970 0.92790 -0.58100
O 	O 	0.36690 0.42660 0.08210 -0.56500
O 	O 	0.45840 0.46060 0.42780 -0.58600
O 	O 	0.91210 0.55870 0.12920 -0.63200
O 	O 	0.81100 0.57910 0.26580 -0.59600
O 	O 	0.98040 0.60070 0.39110 -0.25200
O 	O 	0.04630 0.46070 0.77210 -0.58800
C 	C 	0.77890 0.83140 0.00830 0.28900
C 	C 	0.79970 0.77230 0.01460 -0.23800
H 	H 	0.80160 0.75440 0.08130 0.11100
C 	C 	0.81630 0.74390 0.92280 0.08100
C 	C 	0.81170 0.76910 0.82310 -0.24400
H 	H 	0.82200 0.74840 0.76040 0.12100
C 	C 	0.79130 0.82650 0.81650 0.27700
C 	C 	0.77310 0.85740 0.91130 -0.33800
H 	H 	0.75730 0.89500 0.90730 0.14900
C 	C 	0.73640 0.91340 0.11030 0.13500
H 	H 	0.78440 0.93620 0.06760 -0.01200
C 	C 	0.62690 0.91960 0.06630 0.35000
C 	C 	0.74120 0.93060 0.22610 -0.55200
H 	H 	0.69020 0.91030 0.26690 0.18700
H 	H 	0.72700 0.96960 0.23160 0.17500
H 	H 	0.80930 0.92300 0.25440 0.20300
C 	C 	0.77640 0.90490 0.69470 0.07600
H 	H 	0.71160 0.91650 0.72990 0.01200
C 	C 	0.86650 0.93760 0.74230 0.45600
C 	C 	0.76740 0.91430 0.57610 -0.49800
H 	H 	0.82790 0.89960 0.54040 0.16400
H 	H 	0.76220 0.95330 0.56190 0.16500
H 	H 	0.70630 0.89580 0.54930 0.18100
C 	C 	0.83980 0.68210 0.93030 0.26600
C 	C 	0.52630 0.54820 0.76390 0.21300
C 	C 	0.52760 0.54720 0.65040 -0.13200
H 	H 	0.54710 0.57880 0.61210 0.06100
C 	C 	0.55050 0.60420 0.92400 0.04800
H 	H 	0.48500 0.58890 0.95160 0.02100
C 	C 	0.64120 0.57510 0.98260 0.48500
C 	C 	0.55080 0.66650 0.94510 -0.46500
H 	H 	0.61560 0.68200 0.92090 0.16500
H 	H 	0.54270 0.67320 0.02120 0.14200
H 	H 	0.49440 0.68340 0.90640 0.17600
C 	C 	0.01280 0.45000 0.54720 -0.21200
H 	H 	0.02120 0.41650 0.58360 0.10300
C 	C 	0.01250 0.45260 0.43760 0.26700
C 	C 	0.01040 0.39490 0.27430 0.00900
H 	H 	0.94690 0.41380 0.25020 0.03300
C 	C 	0.10540 0.42170 0.22050 0.52800
C 	C 	0.00400 0.33320 0.24530 -0.47400
H 	H 	0.06960 0.31570 0.26020 0.14800
H 	H 	0.98790 0.32930 0.16970 0.16300
H 	H 	0.95040 0.31580 0.28760 0.17700
Nd	Nd	0.89822 0.56820 0.94540 2.44800
Nd	Nd	0.12488 0.91769 0.72519 2.09400
O 	O 	0.79200 0.84660 0.71300 -0.28000
O 	O 	0.94670 0.91430 0.76870 -0.56000
O 	O 	0.84640 0.98930 0.74650 -0.54400
O 	O 	0.76930 0.85650 0.10670 -0.27800
O 	O 	0.59790 0.96750 0.04050 -0.62500
O 	O 	0.56810 0.87930 0.06490 -0.46500
O 	O 	0.83420 0.65890 0.02040 -0.46500
O 	O 	0.86230 0.65590 0.84560 -0.44600
O 	O 	0.55200 0.59750 0.80940 -0.24700
O 	O 	0.71560 0.56030 0.92790 -0.58400
O 	O 	0.63310 0.57340 0.08210 -0.56600
O 	O 	0.54160 0.53940 0.42780 -0.58600
O 	O 	0.08790 0.44130 0.12920 -0.63000
O 	O 	0.18900 0.42090 0.26580 -0.59300
O 	O 	0.01960 0.39930 0.39110 -0.26000
O 	O 	0.95370 0.53930 0.77210 -0.58200
C 	C 	0.00000 -0.00000 0.17740 -0.28400
H 	H 	0.00000 0.00000 0.10210 0.12500
C 	C 	0.00000 0.00000 0.40440 -0.10200
C 	C 	0.00000 0.00000 0.52570 0.50000
C 	C 	0.50000 0.50000 0.82260 -0.26200
H 	H 	0.50000 0.50000 0.89790 0.12300
C 	C 	0.50000 0.50000 0.59560 -0.08800
C 	C 	0.50000 0.50000 0.47430 0.51900
C 	C 	0.50000 0.00000 0.39680 -0.01900
C 	C 	0.50000 0.00000 0.62090 -0.36300
H 	H 	0.50000 0.00000 0.69620 0.15600
C 	C 	0.50000 0.00000 0.27360 0.44700
C 	C 	-0.00000 0.50000 0.60320 -0.01600
C 	C 	-0.00000 0.50000 0.37910 -0.35500
H 	H 	-0.00000 0.50000 0.30380 0.15500
C 	C 	-0.00000 0.50000 0.72640 0.45100
