data_crystal

_cell_length_a 6.56470
_cell_length_b 6.56470
_cell_length_c 11.34700
_cell_angle_alpha 99.81670
_cell_angle_beta  99.81670
_cell_angle_gamma 102.91300

_symmetry_space_group_name_	'P 1'
_symmetry_space_group_name_H-M	'P 1'

loop_
_symmetry_equiv_pos_as_xyz
  x,y,z

loop_
_atom_site_label
_atom_site_type_symbol
_atom_site_fract_x
_atom_site_fract_y
_atom_site_fract_z
_atom_site_charge
Ag	Ag	0.73801 0.01231 0.74605 0.51300
Ag	Ag	0.01231 0.73801 0.24605 0.50400
H 	H 	0.66520 0.68120 0.51870 0.10600
H 	H 	0.72630 0.66110 0.39760 0.09400
H 	H 	0.18590 0.99910 0.88070 0.10400
H 	H 	0.41480 0.05900 0.87230 0.12600
H 	H 	0.41470 0.98610 0.37410 0.06400
H 	H 	0.58460 0.07140 0.48840 0.10800
H 	H 	0.68120 0.66520 0.01870 0.04900
H 	H 	0.66110 0.72630 0.89760 0.08100
H 	H 	0.99910 0.18590 0.38070 0.09100
H 	H 	0.05900 0.41480 0.37230 0.11200
H 	H 	0.98610 0.41470 0.87410 0.06400
H 	H 	0.07140 0.58460 0.98840 0.12200
C 	C 	0.96310 0.80790 0.53130 0.10900
C 	C 	0.21740 0.94720 0.70420 0.12700
C 	C 	0.30810 0.94790 0.51950 0.13600
C 	C 	0.80790 0.96310 0.03130 0.01700
C 	C 	0.94720 0.21740 0.20420 0.11500
C 	C 	0.94790 0.30810 0.01950 0.06100
N 	N 	0.01170 0.87290 0.65230 -0.19600
N 	N 	0.37620 0.98400 0.64250 -0.22700
N 	N 	0.10810 0.85270 0.46070 -0.20800
N 	N 	0.76080 0.70440 0.47600 -0.30700
N 	N 	0.28150 0.01050 0.83720 -0.26300
N 	N 	0.45340 0.00920 0.45250 -0.25700
N 	N 	0.87290 0.01170 0.15230 -0.18000
N 	N 	0.98400 0.37620 0.14250 -0.21800
N 	N 	0.85270 0.10810 0.96070 -0.14700
N 	N 	0.70440 0.76080 0.97600 -0.21900
N 	N 	0.01050 0.28150 0.33720 -0.25700
N 	N 	0.00920 0.45340 0.95250 -0.22400
