data_crystal

_cell_length_a 14.71640
_cell_length_b 14.71640
_cell_length_c 14.71640
_cell_angle_alpha 109.47120
_cell_angle_beta  109.47120
_cell_angle_gamma 109.47120

_symmetry_space_group_name_	'P 1'
_symmetry_space_group_name_H-M	'P 1'

loop_
_symmetry_equiv_pos_as_xyz
  x,y,z

loop_
_atom_site_label
_atom_site_type_symbol
_atom_site_fract_x
_atom_site_fract_y
_atom_site_fract_z
_atom_site_charge
H 	H 	0.76310 0.89910 0.42000 0.00700
C 	C 	0.73180 0.94390 0.41490 -0.02900
N 	N 	0.62220 0.90640 0.34960 -0.29400
H 	H 	0.47910 0.34310 0.58000 0.00100
C 	C 	0.52900 0.31690 0.58510 -0.00700
N 	N 	0.55680 0.27260 0.65040 -0.29300
H 	H 	0.52090 0.10090 0.86400 -0.00300
C 	C 	0.47100 0.05610 0.78790 0.01300
N 	N 	0.44320 0.09360 0.71580 -0.29500
H 	H 	0.23690 0.65690 0.13600 0.00300
C 	C 	0.26820 0.68310 0.21210 -0.00800
N 	N 	0.37780 0.72740 0.28420 -0.29200
H 	H 	0.42000 0.76310 0.89910 0.00400
C 	C 	0.41490 0.73180 0.94390 -0.01500
N 	N 	0.34960 0.62220 0.90640 -0.29300
H 	H 	0.58000 0.47910 0.34310 0.00300
C 	C 	0.58510 0.52900 0.31690 -0.00800
N 	N 	0.65040 0.55680 0.27260 -0.29200
H 	H 	0.86400 0.52090 0.10090 0.00000
C 	C 	0.78790 0.47100 0.05610 -0.00200
N 	N 	0.71580 0.44320 0.09360 -0.29400
H 	H 	0.13600 0.23690 0.65690 0.00400
C 	C 	0.21210 0.26820 0.68310 -0.00700
N 	N 	0.28420 0.37780 0.72740 -0.29200
H 	H 	0.89910 0.42000 0.76310 0.00400
C 	C 	0.94390 0.41490 0.73180 -0.01400
N 	N 	0.90640 0.34960 0.62220 -0.29300
H 	H 	0.34310 0.58000 0.47910 0.00200
C 	C 	0.31690 0.58510 0.52900 -0.00800
N 	N 	0.27260 0.65040 0.55680 -0.29300
H 	H 	0.10090 0.86400 0.52090 -0.00200
C 	C 	0.05610 0.78790 0.47100 -0.00100
N 	N 	0.09360 0.71580 0.44320 -0.29400
H 	H 	0.65690 0.13600 0.23690 0.00500
C 	C 	0.68310 0.21210 0.26820 -0.00700
N 	N 	0.72740 0.28420 0.37780 -0.29200
H 	H 	0.89910 0.76310 0.42000 0.00400
C 	C 	0.94390 0.73180 0.41490 -0.01500
N 	N 	0.90640 0.62220 0.34960 -0.29300
H 	H 	0.34310 0.47910 0.58000 0.00300
C 	C 	0.31690 0.52900 0.58510 -0.00800
N 	N 	0.27260 0.55680 0.65040 -0.29200
H 	H 	0.10090 0.52090 0.86400 0.00000
C 	C 	0.05610 0.47100 0.78790 -0.00200
N 	N 	0.09360 0.44320 0.71580 -0.29400
H 	H 	0.65690 0.23690 0.13600 0.00400
C 	C 	0.68310 0.26820 0.21210 -0.00700
N 	N 	0.72740 0.37780 0.28420 -0.29200
H 	H 	0.76310 0.42000 0.89910 0.00200
C 	C 	0.73180 0.41490 0.94390 -0.01500
N 	N 	0.62220 0.34960 0.90640 -0.29300
H 	H 	0.47910 0.58000 0.34310 0.00300
C 	C 	0.52900 0.58510 0.31690 -0.00700
N 	N 	0.55680 0.65040 0.27260 -0.29200
H 	H 	0.52090 0.86400 0.10090 -0.00200
C 	C 	0.47100 0.78790 0.05610 -0.00100
N 	N 	0.44320 0.71580 0.09360 -0.29400
H 	H 	0.23690 0.13600 0.65690 0.00500
C 	C 	0.26820 0.21210 0.68310 -0.00700
N 	N 	0.37780 0.28420 0.72740 -0.29200
H 	H 	0.42000 0.89910 0.76310 0.00700
C 	C 	0.41490 0.94390 0.73180 -0.03000
N 	N 	0.34960 0.90640 0.62220 -0.29400
H 	H 	0.58000 0.34310 0.47910 0.00200
C 	C 	0.58510 0.31690 0.52900 -0.00800
N 	N 	0.65040 0.27260 0.55680 -0.29200
H 	H 	0.86400 0.10090 0.52090 -0.00300
C 	C 	0.78790 0.05610 0.47100 0.01300
N 	N 	0.71580 0.09360 0.44320 -0.29500
H 	H 	0.13600 0.65690 0.23690 0.00300
C 	C 	0.21210 0.68310 0.26820 -0.00800
N 	N 	0.28420 0.72740 0.37780 -0.29300
Zn	Zn	0.50000 0.75000 0.25000 1.17600
Zn	Zn	0.50000 0.25000 0.75000 1.17600
Zn	Zn	0.25000 0.50000 0.75000 1.17600
Zn	Zn	0.75000 0.50000 0.25000 1.17600
Zn	Zn	0.75000 0.25000 0.50000 1.17700
Zn	Zn	0.25000 0.75000 0.50000 1.17600
C 	C 	0.61660 0.00000 0.36980 0.13000
C 	C 	0.50980 0.00000 0.31900 -0.20900
C 	C 	0.63020 0.24680 0.63020 0.12600
C 	C 	0.68100 0.19080 0.68100 -0.23500
C 	C 	0.36980 -0.00000 0.61660 0.12800
C 	C 	0.31900 -0.00000 0.50980 -0.20900
C 	C 	0.38340 0.75320 0.38340 0.12400
C 	C 	0.49020 0.80920 0.49020 -0.23400
C 	C 	0.36980 0.61660 -0.00000 0.12700
C 	C 	0.31900 0.50980 -0.00000 -0.22900
C 	C 	0.63020 0.63020 0.24680 0.12400
C 	C 	0.68100 0.68100 0.19080 -0.23300
C 	C 	0.61660 0.36980 -0.00000 0.12600
C 	C 	0.50980 0.31900 -0.00000 -0.22900
C 	C 	0.38340 0.38340 0.75320 0.12400
C 	C 	0.49020 0.49020 0.80920 -0.23400
C 	C 	-0.00000 0.36980 0.61660 0.12600
C 	C 	0.00000 0.31900 0.50980 -0.22900
C 	C 	0.24680 0.63020 0.63020 0.12300
C 	C 	0.19080 0.68100 0.68100 -0.23300
C 	C 	-0.00000 0.61660 0.36980 0.12700
C 	C 	-0.00000 0.50980 0.31900 -0.22900
C 	C 	0.75320 0.38340 0.38340 0.12500
C 	C 	0.80920 0.49020 0.49020 -0.23400
H 	H 	0.52805 0.08067 0.31692 0.03000
H 	H 	0.61232 0.10738 0.65704 0.04800
H 	H 	0.73072 0.24582 0.77545 0.04400
H 	H 	0.73861 0.17660 0.64916 0.02900
H 	H 	0.31692 0.08067 0.52805 0.03000
H 	H 	0.48491 0.75418 0.52963 0.04300
H 	H 	0.50493 0.89262 0.54966 0.04300
H 	H 	0.56201 0.82340 0.47256 0.02700
H 	H 	0.30793 0.52679 0.07592 0.03400
H 	H 	0.37594 0.47266 0.00300 0.04900
H 	H 	0.69865 0.77052 0.22419 0.03500
H 	H 	0.62087 0.63106 0.09720 0.04900
H 	H 	0.76212 0.68007 0.20842 0.03000
H 	H 	0.48188 0.38301 0.02081 0.04800
H 	H 	0.52314 0.29157 0.06494 0.03900
H 	H 	0.47301 0.56240 0.82635 0.02700
H 	H 	0.52798 0.48614 0.75276 0.04400
H 	H 	0.55085 0.50330 0.89110 0.04400
H 	H 	0.02081 0.38301 0.48188 0.04800
H 	H 	0.06494 0.29157 0.52314 0.03900
H 	H 	0.09720 0.63106 0.62087 0.04900
H 	H 	0.22419 0.77052 0.69865 0.03500
H 	H 	0.20842 0.68007 0.76212 0.03000
H 	H 	0.07592 0.52679 0.30793 0.03400
H 	H 	0.00300 0.47266 0.37594 0.04900
H 	H 	0.75276 0.48614 0.52798 0.04400
H 	H 	0.82635 0.56240 0.47301 0.02700
H 	H 	0.89110 0.50330 0.55085 0.04400
H 	H 	0.91426 0.24378 0.44314 0.02800
H 	H 	0.92108 0.44870 0.23448 0.03100
H 	H 	0.45235 0.92620 0.23059 0.02500
H 	H 	0.46776 0.99313 0.37084 0.03800
H 	H 	0.23059 0.92620 0.45235 0.02500
H 	H 	0.37084 0.99313 0.46776 0.03700
H 	H 	0.23448 0.44870 0.92108 0.03100
H 	H 	0.44314 0.24378 0.91426 0.02800
