data_crystal

_cell_length_a 14.64640
_cell_length_b 14.64640
_cell_length_c 14.64640
_cell_angle_alpha 109.47120
_cell_angle_beta  109.47120
_cell_angle_gamma 109.47120

_symmetry_space_group_name_	'P 1'
_symmetry_space_group_name_H-M	'P 1'

loop_
_symmetry_equiv_pos_as_xyz
  x,y,z

loop_
_atom_site_label
_atom_site_type_symbol
_atom_site_fract_x
_atom_site_fract_y
_atom_site_fract_z
_atom_site_charge
H 	H 	0.89890 0.42560 0.76510 0.00400
C 	C 	0.94420 0.41950 0.73430 -0.01900
N 	N 	0.90720 0.35100 0.62260 -0.29300
H 	H 	0.66050 0.13380 0.23490 0.00500
C 	C 	0.68520 0.20990 0.26570 -0.01100
N 	N 	0.72840 0.28460 0.37740 -0.29200
H 	H 	0.33950 0.57440 0.47330 0.00300
C 	C 	0.31480 0.58050 0.52470 -0.01300
N 	N 	0.27160 0.64900 0.55620 -0.29300
H 	H 	0.10110 0.86620 0.52670 0.00100
C 	C 	0.05580 0.79010 0.47530 -0.00600
N 	N 	0.09280 0.71540 0.44380 -0.29400
H 	H 	0.76510 0.89890 0.42560 0.00700
C 	C 	0.73430 0.94420 0.41950 -0.02800
N 	N 	0.62260 0.90720 0.35100 -0.29400
H 	H 	0.23490 0.66050 0.13380 0.00400
C 	C 	0.26570 0.68520 0.20990 -0.01200
N 	N 	0.37740 0.72840 0.28460 -0.29300
H 	H 	0.47330 0.33950 0.57440 0.00300
C 	C 	0.52470 0.31480 0.58050 -0.01200
N 	N 	0.55620 0.27160 0.64900 -0.29300
H 	H 	0.52670 0.10110 0.86620 -0.00100
C 	C 	0.47530 0.05580 0.79010 0.00300
N 	N 	0.44380 0.09280 0.71540 -0.29600
H 	H 	0.42560 0.76510 0.89890 0.00500
C 	C 	0.41950 0.73430 0.94420 -0.02000
N 	N 	0.35100 0.62260 0.90720 -0.29400
H 	H 	0.13380 0.23490 0.66050 0.00400
C 	C 	0.20990 0.26570 0.68520 -0.01200
N 	N 	0.28460 0.37740 0.72840 -0.29300
H 	H 	0.57440 0.47330 0.33950 0.00300
C 	C 	0.58050 0.52470 0.31480 -0.01200
N 	N 	0.64900 0.55620 0.27160 -0.29300
H 	H 	0.86620 0.52670 0.10110 0.00200
C 	C 	0.79010 0.47530 0.05580 -0.00500
N 	N 	0.71540 0.44380 0.09280 -0.29400
H 	H 	0.42560 0.89890 0.76510 0.00700
C 	C 	0.41950 0.94420 0.73430 -0.02800
N 	N 	0.35100 0.90720 0.62260 -0.29400
H 	H 	0.13380 0.66050 0.23490 0.00400
C 	C 	0.20990 0.68520 0.26570 -0.01200
N 	N 	0.28460 0.72840 0.37740 -0.29300
H 	H 	0.57440 0.33950 0.47330 0.00400
C 	C 	0.58050 0.31480 0.52470 -0.01200
N 	N 	0.64900 0.27160 0.55620 -0.29300
H 	H 	0.86620 0.10110 0.52670 -0.00000
C 	C 	0.79010 0.05580 0.47530 0.00300
N 	N 	0.71540 0.09280 0.44380 -0.29500
H 	H 	0.89890 0.76510 0.42560 0.00600
C 	C 	0.94420 0.73430 0.41950 -0.01900
N 	N 	0.90720 0.62260 0.35100 -0.29300
H 	H 	0.66050 0.23490 0.13380 0.00400
C 	C 	0.68520 0.26570 0.20990 -0.01100
N 	N 	0.72840 0.37740 0.28460 -0.29300
H 	H 	0.33950 0.47330 0.57440 0.00400
C 	C 	0.31480 0.52470 0.58050 -0.01200
N 	N 	0.27160 0.55620 0.64900 -0.29300
H 	H 	0.10110 0.52670 0.86620 0.00100
C 	C 	0.05580 0.47530 0.79010 -0.00600
N 	N 	0.09280 0.44380 0.71540 -0.29400
H 	H 	0.76510 0.42560 0.89890 0.00500
C 	C 	0.73430 0.41950 0.94420 -0.02000
N 	N 	0.62260 0.35100 0.90720 -0.29400
H 	H 	0.23490 0.13380 0.66050 0.00500
C 	C 	0.26570 0.20990 0.68520 -0.01200
N 	N 	0.37740 0.28460 0.72840 -0.29300
H 	H 	0.47330 0.57440 0.33950 0.00400
C 	C 	0.52470 0.58050 0.31480 -0.01200
N 	N 	0.55620 0.64900 0.27160 -0.29300
H 	H 	0.52670 0.86620 0.10110 -0.00000
C 	C 	0.47530 0.79010 0.05580 -0.00500
N 	N 	0.44380 0.71540 0.09280 -0.29400
Zn	Zn	0.75000 0.25000 0.50000 1.17700
Zn	Zn	0.25000 0.75000 0.50000 1.17600
Zn	Zn	0.50000 0.75000 0.25000 1.17600
Zn	Zn	0.50000 0.25000 0.75000 1.17600
Zn	Zn	0.25000 0.50000 0.75000 1.17600
Zn	Zn	0.75000 0.50000 0.25000 1.17700
C 	C 	0.00000 0.36940 0.61640 0.13400
C 	C 	-0.00000 0.31610 0.51030 -0.23700
C 	C 	0.75300 0.38360 0.38360 0.13300
C 	C 	0.80580 0.48970 0.48970 -0.24200
C 	C 	0.24700 0.63060 0.63060 0.13000
C 	C 	0.19420 0.68390 0.68390 -0.24200
C 	C 	0.00000 0.61640 0.36940 0.13300
C 	C 	-0.00000 0.51030 0.31610 -0.23600
C 	C 	0.61640 0.00000 0.36940 0.13600
C 	C 	0.51030 0.00000 0.31610 -0.22500
C 	C 	0.38360 0.75300 0.38360 0.13100
C 	C 	0.48970 0.80580 0.48970 -0.24100
C 	C 	0.63060 0.24700 0.63060 0.13200
C 	C 	0.68390 0.19420 0.68390 -0.24200
C 	C 	0.36940 0.00000 0.61640 0.13600
C 	C 	0.31610 0.00000 0.51030 -0.23200
C 	C 	0.36940 0.61640 -0.00000 0.13400
C 	C 	0.31610 0.51030 -0.00000 -0.23900
C 	C 	0.38360 0.38360 0.75300 0.13200
C 	C 	0.48970 0.48970 0.80580 -0.24200
C 	C 	0.63060 0.63060 0.24700 0.13100
C 	C 	0.68390 0.68390 0.19420 -0.23900
C 	C 	0.61640 0.36940 -0.00000 0.13500
C 	C 	0.51030 0.31610 -0.00000 -0.23800
H 	H 	0.04494 0.26637 0.51758 0.04600
H 	H 	0.04494 0.38355 0.49379 0.04800
H 	H 	0.86498 0.56168 0.48732 0.03900
H 	H 	0.85475 0.48233 0.56322 0.03600
H 	H 	0.73811 0.50635 0.49983 0.04900
H 	H 	0.14525 0.62758 0.70847 0.03600
H 	H 	0.13502 0.69670 0.62233 0.03900
H 	H 	0.26189 0.76824 0.76172 0.04800
H 	H 	0.04494 0.49379 0.38355 0.04800
H 	H 	0.04494 0.51758 0.26637 0.04600
H 	H 	0.51884 0.08229 0.37083 0.03300
H 	H 	0.56377 0.84168 0.47737 0.03100
H 	H 	0.49257 0.74032 0.51435 0.04800
H 	H 	0.49402 0.87584 0.55864 0.04200
H 	H 	0.70818 0.14499 0.62743 0.03700
H 	H 	0.62244 0.13526 0.69699 0.04000
H 	H 	0.76190 0.26191 0.76810 0.04900
H 	H 	0.38285 0.03834 0.48996 0.05000
H 	H 	0.27252 0.05123 0.52011 0.04400
H 	H 	0.37755 0.51282 0.07455 0.03900
H 	H 	0.23810 0.50001 0.00620 0.05000
H 	H 	0.50807 0.49820 0.73838 0.04900
H 	H 	0.56114 0.48870 0.86746 0.04000
H 	H 	0.48116 0.56346 0.85200 0.03400
H 	H 	0.61715 0.65549 0.10711 0.05000
H 	H 	0.74789 0.65832 0.18746 0.02900
H 	H 	0.72748 0.77871 0.24759 0.04300
H 	H 	0.50743 0.24774 0.02178 0.05000
H 	H 	0.50598 0.38182 0.06463 0.04400
H 	H 	0.91012 0.25756 0.43828 0.02700
H 	H 	0.91012 0.43828 0.25755 0.02700
H 	H 	0.43886 0.92757 0.30633 0.03300
H 	H 	0.49193 0.99014 0.23032 0.04100
H 	H 	0.25211 0.91043 0.43957 0.02400
H 	H 	0.29182 0.43681 0.91925 0.03400
H 	H 	0.43623 0.27791 0.91360 0.03000
