data_crystal

_cell_length_a 19.89760
_cell_length_b 23.49140
_cell_length_c 36.96240
_cell_angle_alpha 82.50950
_cell_angle_beta  74.38570
_cell_angle_gamma 64.94370

_symmetry_space_group_name_	'P 1'
_symmetry_space_group_name_H-M	'P 1'

loop_
_symmetry_equiv_pos_as_xyz
  x,y,z

loop_
_atom_site_label
_atom_site_type_symbol
_atom_site_fract_x
_atom_site_fract_y
_atom_site_fract_z
_atom_site_charge
Zn	Zn	0.24706 0.76055 0.67023 1.13900
Zn	Zn	0.17958 0.91373 0.62761 1.18700
Zn	Zn	0.16452 0.67151 0.64321 1.19100
Zn	Zn	0.44711 0.68652 0.64112 1.12600
Zn	Zn	0.19224 0.77662 0.76900 1.19000
Zn	Zn	0.32216 0.26055 0.17023 1.13800
Zn	Zn	0.27908 0.41373 0.12761 1.18500
Zn	Zn	0.52076 0.17151 0.14321 1.19000
Zn	Zn	0.22525 0.18652 0.14112 1.12500
Zn	Zn	0.26214 0.27662 0.26900 1.19000
H 	H 	0.06870 0.72150 0.81310 0.01900
H 	H 	0.98200 0.67840 0.82440 0.08100
H 	H 	0.03130 0.63870 0.71270 0.13100
H 	H 	0.91290 0.62360 0.80320 0.21900
H 	H 	0.90080 0.64540 0.76260 0.22500
H 	H 	0.96490 0.58000 0.76900 0.22800
H 	H 	0.05180 0.94040 0.57480 -0.01100
H 	H 	0.98420 0.91820 0.54260 0.14100
H 	H 	0.04900 0.74020 0.58540 0.16800
H 	H 	0.92440 0.85620 0.53260 0.28900
H 	H 	0.98180 0.78560 0.52720 0.30900
H 	H 	0.91600 0.80600 0.56380 0.29400
H 	H 	0.06630 0.91840 0.80360 0.14500
H 	H 	0.98460 0.07950 0.74630 0.12000
H 	H 	0.05780 0.03210 0.68670 0.00900
H 	H 	0.94410 0.08200 0.81040 0.27900
H 	H 	0.93120 0.02050 0.82430 0.28000
H 	H 	0.99600 0.03170 0.83470 0.30000
H 	H 	0.51700 0.54400 0.59320 0.10500
H 	H 	0.39230 0.46420 0.56820 0.09900
H 	H 	0.28110 0.54480 0.59820 0.02100
H 	H 	0.50600 0.43030 0.53730 0.25400
H 	H 	0.52830 0.48730 0.52330 0.25300
H 	H 	0.57170 0.43590 0.55030 0.26400
H 	H 	0.32860 0.72040 0.81380 -0.04400
H 	H 	0.44730 0.67240 0.82220 0.18400
H 	H 	0.54640 0.64870 0.71210 0.14300
H 	H 	0.62150 0.61760 0.76040 0.38300
H 	H 	0.58280 0.66310 0.79450 0.37500
H 	H 	0.58220 0.59610 0.79910 0.38200
H 	H 	0.06070 0.53820 0.65740 0.06200
H 	H 	0.10640 0.48500 0.53600 0.10400
H 	H 	0.14980 0.55770 0.54890 0.03700
H 	H 	0.96650 0.44650 0.70270 0.10400
H 	H 	0.03910 0.46090 0.69570 0.10400
H 	H 	0.96120 0.51450 0.69090 0.10700
H 	H 	0.01550 0.45510 0.53070 0.06100
H 	H 	0.09140 0.39450 0.53050 0.06000
H 	H 	0.91080 0.41720 0.59000 0.04500
H 	H 	0.88720 0.38580 0.56320 0.05400
H 	H 	0.98400 0.40300 0.49180 0.05900
H 	H 	0.97370 0.34000 0.50520 0.06100
H 	H 	0.02700 0.32430 0.59210 0.05200
H 	H 	0.08850 0.29560 0.55500 0.05800
H 	H 	0.84620 0.55130 0.59430 0.11700
H 	H 	0.71410 0.60800 0.62800 -0.02000
H 	H 	0.64550 0.55570 0.55930 0.00200
H 	H 	0.72070 0.45720 0.48980 0.11800
H 	H 	0.65960 0.49590 0.52430 0.09800
H 	H 	0.70080 0.52900 0.49220 0.11200
H 	H 	0.00610 0.35610 0.43670 0.09200
H 	H 	0.05640 0.34670 0.37230 0.02700
H 	H 	0.26540 0.26710 0.38990 0.05700
H 	H 	0.32130 0.24550 0.47190 0.07600
H 	H 	0.31820 0.21990 0.43550 0.07200
H 	H 	0.31240 0.28850 0.43570 0.07500
H 	H 	0.11150 0.22260 0.59300 0.09300
H 	H 	0.16410 0.11470 0.61290 0.01900
H 	H 	0.00700 0.09020 0.58080 0.05800
H 	H 	0.87010 0.20250 0.54230 -0.03100
H 	H 	0.94120 0.13910 0.54350 -0.04000
H 	H 	0.88370 0.17000 0.58100 -0.03500
H 	H 	0.31330 0.95750 0.58050 0.15800
H 	H 	0.54450 0.86340 0.55640 0.11500
H 	H 	0.53190 0.77370 0.58810 -0.04200
H 	H 	0.39710 0.00880 0.54120 0.25800
H 	H 	0.47250 0.98660 0.55500 0.25500
H 	H 	0.47450 0.96180 0.51720 0.25100
H 	H 	0.39670 0.22150 0.31310 0.01900
H 	H 	0.51520 0.17840 0.32440 0.08200
H 	H 	0.61730 0.13870 0.21270 0.13200
H 	H 	0.66030 0.12360 0.30320 0.21900
H 	H 	0.69120 0.14540 0.26260 0.22600
H 	H 	0.68610 0.08000 0.26900 0.22800
H 	H 	0.43300 0.44040 0.07480 -0.01200
H 	H 	0.55500 0.41820 0.04260 0.14200
H 	H 	0.62540 0.24020 0.08540 0.16800
H 	H 	0.68680 0.35620 0.03260 0.28900
H 	H 	0.70540 0.28560 0.02720 0.31000
H 	H 	0.71420 0.30600 0.06380 0.29500
H 	H 	0.21170 0.41840 0.30360 0.14600
H 	H 	0.18960 0.57950 0.24630 0.12000
H 	H 	0.22340 0.53210 0.18670 0.00800
H 	H 	0.16350 0.58200 0.31040 0.28000
H 	H 	0.22400 0.52050 0.32430 0.28000
H 	H 	0.13760 0.53170 0.33470 0.30000
H 	H 	0.34580 0.04400 0.09320 0.10500
H 	H 	0.57530 0.96420 0.06820 0.09900
H 	H 	0.57590 0.04480 0.09820 0.02100
H 	H 	0.52640 0.93030 0.03730 0.25500
H 	H 	0.46110 0.98730 0.02330 0.25300
H 	H 	0.44210 0.93590 0.05030 0.26400
H 	H 	0.13720 0.22040 0.31380 -0.04400
H 	H 	0.05810 0.17240 0.32220 0.18500
H 	H 	0.09280 0.14870 0.21210 0.14300
H 	H 	0.00050 0.11760 0.26040 0.38400
H 	H 	0.95960 0.16310 0.29450 0.37700
H 	H 	0.02260 0.09610 0.29910 0.38300
H 	H 	0.74370 0.03820 0.15740 0.06100
H 	H 	0.87260 0.98500 0.03600 0.10500
H 	H 	0.74360 0.05770 0.04890 0.03600
H 	H 	0.88430 0.94650 0.20270 0.10500
H 	H 	0.80430 0.96090 0.19570 0.10500
H 	H 	0.83340 0.01450 0.19090 0.10900
H 	H 	0.99870 0.95510 0.03070 0.05800
H 	H 	0.98360 0.89450 0.03050 0.05700
H 	H 	0.08200 0.91720 0.09000 0.04500
H 	H 	0.16380 0.88580 0.06320 0.05400
H 	H 	0.12120 0.90300 0.99180 0.05800
H 	H 	0.18110 0.84000 0.00520 0.05900
H 	H 	0.05660 0.82430 0.09210 0.05100
H 	H 	0.06090 0.79560 0.05500 0.05700
H 	H 	0.00820 0.05130 0.09430 0.11600
H 	H 	0.04990 0.10800 0.12800 -0.02100
H 	H 	0.23950 0.05570 0.05930 0.00200
H 	H 	0.33230 0.95720 0.98980 0.11700
H 	H 	0.32020 0.99590 0.02430 0.09800
H 	H 	0.27800 0.02900 0.99220 0.11100
H 	H 	0.20110 0.85610 0.93670 0.09300
H 	H 	0.22460 0.84670 0.87230 0.02700
H 	H 	0.07760 0.76710 0.88990 0.05700
H 	H 	0.96130 0.74550 0.97190 0.07700
H 	H 	0.02640 0.71990 0.93550 0.07300
H 	H 	0.96340 0.78850 0.93570 0.07600
H 	H 	0.07290 0.72260 0.09300 0.09300
H 	H 	0.10830 0.61470 0.11290 0.02000
H 	H 	0.32200 0.59020 0.08080 0.05800
H 	H 	0.38510 0.70250 0.04230 -0.03300
H 	H 	0.37620 0.63910 0.04350 -0.04100
H 	H 	0.36530 0.67000 0.08100 -0.03700
H 	H 	0.14870 0.45750 0.08050 0.15800
H 	H 	0.03570 0.36340 0.05640 0.11500
H 	H 	0.10630 0.27370 0.08810 -0.04300
H 	H 	0.05290 0.50880 0.04120 0.25800
H 	H 	0.98590 0.48660 0.05500 0.25500
H 	H 	0.04650 0.46180 0.01720 0.25100
C 	C 	0.08760 0.68410 0.72890 0.13900
C 	C 	0.10080 0.70460 0.75640 -0.00800
C 	C 	0.06060 0.70490 0.79390 0.00200
C 	C 	0.01020 0.67980 0.80000 -0.21200
C 	C 	0.99750 0.65490 0.77070 0.24600
C 	C 	0.03760 0.65530 0.73250 -0.27900
C 	C 	0.93800 0.62280 0.77700 -0.68500
C 	C 	0.09210 0.79490 0.60130 0.21500
C 	C 	0.09430 0.85270 0.59770 -0.08100
C 	C 	0.05130 0.90070 0.57650 0.11200
C 	C 	0.01010 0.88840 0.55880 -0.34600
C 	C 	0.00570 0.83000 0.56480 0.39900
C 	C 	0.04900 0.78010 0.58410 -0.41500
C 	C 	0.95180 0.81820 0.54520 -0.89300
C 	C 	0.10870 0.94600 0.71300 -0.04100
C 	C 	0.11120 0.91650 0.74530 0.14100
C 	C 	0.06670 0.94200 0.78140 -0.37800
C 	C 	0.02550 0.00440 0.77960 0.37300
C 	C 	0.01860 0.03750 0.74550 -0.29100
C 	C 	0.06110 0.01030 0.70950 0.03700
C 	C 	0.96890 0.03770 0.81570 -0.87900
C 	C 	0.33250 0.59250 0.61370 0.01000
C 	C 	0.40311 0.59238 0.61220 0.11800
C 	C 	0.46970 0.54420 0.59420 -0.33700
C 	C 	0.46566 0.49618 0.57770 0.33200
C 	C 	0.39500 0.49640 0.57920 -0.24700
C 	C 	0.32840 0.54460 0.59720 0.00500
C 	C 	0.52350 0.45890 0.54410 -0.82700
C 	C 	0.42410 0.69010 0.72930 0.18600
C 	C 	0.36180 0.71140 0.75580 -0.07900
C 	C 	0.37040 0.70560 0.79340 0.17700
C 	C 	0.44230 0.67760 0.79760 -0.48600
C 	C 	0.50900 0.65580 0.77080 0.58800
C 	C 	0.50440 0.66140 0.73240 -0.45200
C 	C 	0.57970 0.63110 0.78210 -1.23500
C 	C 	0.13030 0.60500 0.61200 0.32300
C 	C 	0.10680 0.55190 0.60510 -0.06900
C 	C 	0.07140 0.52730 0.63250 -0.04600
C 	C 	0.05030 0.48350 0.62210 0.04700
C 	C 	0.06030 0.46820 0.58680 0.15700
C 	C 	0.09701 0.49528 0.56090 -0.17000
C 	C 	0.12360 0.53940 0.56780 0.02600
C 	C 	0.99330 0.47040 0.68780 -0.24900
C 	C 	0.03845 0.41567 0.54383 -0.02500
C 	C 	0.99775 0.37604 0.54486 0.04900
C 	C 	0.91567 0.41036 0.56390 -0.00900
C 	C 	0.00325 0.36370 0.50560 -0.03500
C 	C 	0.03409 0.31550 0.56612 -0.02200
C 	C 	0.81670 0.50590 0.56270 0.21300
C 	C 	0.80580 0.54730 0.58850 -0.21700
C 	C 	0.72380 0.58580 0.60680 0.08200
C 	C 	0.66990 0.58990 0.59630 -0.14600
C 	C 	0.68430 0.55580 0.56880 0.01800
C 	C 	0.76110 0.51920 0.55340 -0.03800
C 	C 	0.70680 0.49080 0.50640 -0.27700
C 	C 	0.12680 0.02450 0.60950 0.40300
C 	C 	0.10420 0.32090 0.45250 0.13900
C 	C 	0.05888 0.33874 0.42750 -0.17000
C 	C 	0.08840 0.33220 0.38880 0.04000
C 	C 	0.16320 0.30460 0.37640 -0.08700
C 	C 	0.21270 0.28550 0.39930 -0.05500
C 	C 	0.17970 0.29570 0.43710 0.05800
C 	C 	0.29910 0.25630 0.45050 -0.16400
C 	C 	0.19400 0.29870 0.33430 0.31100
C 	C 	0.02930 0.21710 0.57670 0.14800
C 	C 	0.08950 0.19580 0.59060 -0.17600
C 	C 	0.12190 0.13030 0.60250 0.04600
C 	C 	0.08840 0.09240 0.59780 -0.11400
C 	C 	0.02990 0.11580 0.58420 -0.04600
C 	C 	0.00020 0.17850 0.57450 0.08100
C 	C 	0.90820 0.17820 0.55600 0.22600
C 	C 	0.41620 0.81650 0.60190 -0.08200
C 	C 	0.35420 0.86820 0.60100 0.21800
C 	C 	0.35710 0.92140 0.58160 -0.39300
C 	C 	0.42960 0.91810 0.56370 0.34900
C 	C 	0.49640 0.86350 0.56710 -0.28800
C 	C 	0.48960 0.81070 0.58610 0.06600
C 	C 	0.44490 0.97420 0.54220 -0.82000
C 	C 	0.49940 0.18410 0.22890 0.14000
C 	C 	0.43820 0.20460 0.25640 -0.00900
C 	C 	0.44060 0.20490 0.29390 0.00300
C 	C 	0.51000 0.17980 0.30000 -0.21400
C 	C 	0.57690 0.15490 0.27070 0.24700
C 	C 	0.57460 0.15530 0.23250 -0.28000
C 	C 	0.66220 0.12280 0.27700 -0.68700
C 	C 	0.51170 0.29490 0.10130 0.21600
C 	C 	0.45530 0.35270 0.09770 -0.08100
C 	C 	0.47150 0.40070 0.07650 0.11300
C 	C 	0.54270 0.38840 0.05880 -0.34900
C 	C 	0.59950 0.33000 0.06480 0.40000
C 	C 	0.58680 0.28010 0.08410 -0.41600
C 	C 	0.68480 0.31820 0.04520 -0.89400
C 	C 	0.23230 0.44600 0.21300 -0.04300
C 	C 	0.22700 0.41650 0.24530 0.14200
C 	C 	0.20990 0.44200 0.28140 -0.38100
C 	C 	0.19050 0.50440 0.27960 0.37600
C 	C 	0.19840 0.53750 0.24550 -0.29100
C 	C 	0.21910 0.51030 0.20950 0.03900
C 	C 	0.17770 0.53770 0.31570 -0.88300
C 	C 	0.46130 0.09250 0.11370 0.01000
C 	C 	0.39231 0.09238 0.11220 0.11900
C 	C 	0.39190 0.04420 0.09420 -0.33700
C 	C 	0.46046 0.99618 0.07770 0.33200
C 	C 	0.52940 0.99640 0.07920 -0.24700
C 	C 	0.52980 0.04460 0.09720 0.00500
C 	C 	0.47350 0.95890 0.04410 -0.82700
C 	C 	0.15650 0.19010 0.22930 0.18600
C 	C 	0.17100 0.21140 0.25580 -0.08000
C 	C 	0.13060 0.20560 0.29340 0.17800
C 	C 	0.08250 0.17760 0.29760 -0.48800
C 	C 	0.06440 0.15580 0.27080 0.58900
C 	C 	0.10180 0.16140 0.23240 -0.45300
C 	C 	0.00710 0.13110 0.28210 -1.24000
C 	C 	0.65270 0.10500 0.11200 0.32400
C 	C 	0.73620 0.05190 0.10510 -0.07100
C 	C 	0.76880 0.02730 0.13250 -0.04300
C 	C 	0.84410 0.98350 0.12210 0.04400
C 	C 	0.88470 0.96820 0.08680 0.16000
C 	C 	0.84681 0.99528 0.06090 -0.17400
C 	C 	0.76920 0.03940 0.06780 0.02900
C 	C 	0.84850 0.97040 0.18780 -0.25300
C 	C 	0.00205 0.91567 0.04383 -0.01700
C 	C 	0.08135 0.87604 0.04486 0.04400
C 	C 	0.11007 0.91036 0.06390 -0.00700
C 	C 	0.12745 0.86370 0.00560 -0.03000
C 	C 	0.08429 0.81550 0.06612 -0.01900
C 	C 	0.11470 0.00590 0.06270 0.21200
C 	C 	0.05840 0.04730 0.08850 -0.21600
C 	C 	0.08360 0.08580 0.10680 0.08100
C 	C 	0.14390 0.08990 0.09630 -0.14600
C 	C 	0.19110 0.05580 0.06880 0.01800
C 	C 	0.16630 0.01920 0.05340 -0.03800
C 	C 	0.29600 0.99080 0.00640 -0.27500
C 	C 	0.23920 0.52450 0.10950 0.40300
C 	C 	0.12240 0.82090 0.95250 0.14000
C 	C 	0.17488 0.83874 0.92750 -0.17100
C 	C 	0.19060 0.83220 0.88880 0.04100
C 	C 	0.15580 0.80460 0.87640 -0.08700
C 	C 	0.10250 0.78550 0.89930 -0.05500
C 	C 	0.08750 0.79570 0.93710 0.05700
C 	C 	0.99410 0.75630 0.95050 -0.16700
C 	C 	0.17300 0.79870 0.83430 0.31200
C 	C 	0.17690 0.71710 0.07670 0.14900
C 	C 	0.12410 0.69580 0.09060 -0.17600
C 	C 	0.14530 0.63030 0.10250 0.04600
C 	C 	0.22140 0.59240 0.09780 -0.11400
C 	C 	0.27010 0.61580 0.08420 -0.04600
C 	C 	0.24680 0.67850 0.07450 0.08200
C 	C 	0.35760 0.67820 0.05600 0.23000
C 	C 	0.16540 0.31650 0.10190 -0.08200
C 	C 	0.17660 0.36820 0.10100 0.21800
C 	C 	0.13990 0.42140 0.08160 -0.39300
C 	C 	0.08860 0.41810 0.06370 0.34900
C 	C 	0.07300 0.36350 0.06710 -0.28800
C 	C 	0.11360 0.31070 0.08610 0.06600
C 	C 	0.03870 0.47420 0.04220 -0.82100
N 	N 	0.15170 0.73030 0.74530 -0.23700
N 	N 	0.17331 0.72218 0.70940 -0.21200
N 	N 	0.13711 0.69272 0.69846 -0.25800
N 	N 	0.13877 0.75697 0.62289 -0.28500
N 	N 	0.16957 0.79166 0.63260 -0.21500
N 	N 	0.14350 0.84965 0.61715 -0.22300
N 	N 	0.15540 0.90458 0.68462 -0.22300
N 	N 	0.18388 0.84834 0.70010 -0.21300
N 	N 	0.16180 0.85280 0.73680 -0.26500
N 	N 	0.38230 0.64575 0.63085 -0.27900
N 	N 	0.30701 0.67280 0.64098 -0.20900
N 	N 	0.27710 0.63995 0.63145 -0.23900
N 	N 	0.39825 0.70164 0.69766 -0.28000
N 	N 	0.32250 0.72790 0.70870 -0.20500
N 	N 	0.29790 0.73490 0.74490 -0.24000
N 	N 	0.39380 0.77525 0.62275 -0.24600
N 	N 	0.31798 0.80232 0.63212 -0.21400
N 	N 	0.29119 0.86107 0.61875 -0.28400
N 	N 	0.37270 0.23030 0.24530 -0.23600
N 	N 	0.39511 0.22218 0.20940 -0.21200
N 	N 	0.47171 0.19272 0.19846 -0.25800
N 	N 	0.48137 0.25697 0.12289 -0.28500
N 	N 	0.40617 0.29166 0.13260 -0.21500
N 	N 	0.38970 0.34965 0.11715 -0.22300
N 	N 	0.25540 0.40458 0.18462 -0.22300
N 	N 	0.26768 0.34834 0.20010 -0.21300
N 	N 	0.24860 0.35280 0.23680 -0.26500
N 	N 	0.34110 0.14575 0.13085 -0.27900
N 	N 	0.37921 0.17280 0.14098 -0.20900
N 	N 	0.45150 0.13995 0.13145 -0.23900
N 	N 	0.20245 0.20164 0.19766 -0.28000
N 	N 	0.24090 0.22790 0.20870 -0.20500
N 	N 	0.22230 0.23490 0.24490 -0.23900
N 	N 	0.20820 0.27525 0.12275 -0.24600
N 	N 	0.24758 0.30232 0.13212 -0.21400
N 	N 	0.22899 0.36107 0.11875 -0.28400
O 	O 	0.16180 0.62960 0.58740 -0.38900
O 	O 	0.11920 0.61160 0.64660 -0.47600
O 	O 	0.08790 0.99420 0.61140 -0.44800
O 	O 	0.18280 0.00250 0.61910 -0.49100
O 	O 	0.15040 0.32210 0.31310 -0.39600
O 	O 	0.26430 0.26767 0.32293 -0.46500
O 	O 	0.03447 0.42747 0.58079 -0.20900
O 	O 	0.77200 0.47370 0.52810 -0.12900
O 	O 	0.94320 0.20530 0.55730 -0.28000
O 	O 	0.22114 0.27822 0.46250 -0.15600
O 	O 	0.08288 0.32804 0.48920 -0.19900
O 	O 	0.99881 0.27546 0.56412 -0.19900
O 	O 	0.88676 0.46811 0.54517 -0.22400
O 	O 	0.01302 0.45476 0.64820 -0.15000
O 	O 	0.62120 0.12960 0.08740 -0.38900
O 	O 	0.62260 0.11160 0.14660 -0.47600
O 	O 	0.30650 0.49420 0.11140 -0.44800
O 	O 	0.19560 0.50250 0.11910 -0.49100
O 	O 	0.21440 0.82210 0.81310 -0.39600
O 	O 	0.14510 0.76767 0.82293 -0.46500
O 	O 	0.95727 0.92747 0.08079 -0.21200
O 	O 	0.22620 0.97370 0.02810 -0.12800
O 	O 	0.29420 0.70530 0.05730 -0.28200
O 	O 	0.03814 0.77822 0.96250 -0.15500
O 	O 	0.09988 0.82804 0.98920 -0.20000
O 	O 	0.16161 0.77546 0.06412 -0.19900
O 	O 	0.09996 0.96811 0.04517 -0.22300
O 	O 	0.88402 0.95476 0.14820 -0.14900
Zn	Zn	0.67784 0.73945 0.82977 1.13800
Zn	Zn	0.72092 0.58627 0.87239 1.18500
Zn	Zn	0.47924 0.82849 0.85679 1.19000
Zn	Zn	0.77475 0.81348 0.85888 1.12500
Zn	Zn	0.73786 0.72338 0.73100 1.19000
Zn	Zn	0.75294 0.23945 0.32977 1.13800
Zn	Zn	0.82042 0.08627 0.37239 1.18600
Zn	Zn	0.83548 0.32849 0.35679 1.19000
Zn	Zn	0.55289 0.31348 0.35888 1.12500
Zn	Zn	0.80776 0.22338 0.23100 1.19000
H 	H 	0.60330 0.77850 0.68690 0.01900
H 	H 	0.48480 0.82160 0.67560 0.08200
H 	H 	0.38270 0.86130 0.78730 0.13200
H 	H 	0.33970 0.87640 0.69680 0.21900
H 	H 	0.30880 0.85460 0.73740 0.22600
H 	H 	0.31390 0.92000 0.73100 0.22800
H 	H 	0.56700 0.55960 0.92520 -0.01200
H 	H 	0.44500 0.58180 0.95740 0.14200
H 	H 	0.37460 0.75980 0.91460 0.16800
H 	H 	0.31320 0.64380 0.96740 0.28900
H 	H 	0.29460 0.71440 0.97280 0.31000
H 	H 	0.28580 0.69400 0.93620 0.29500
H 	H 	0.78830 0.58160 0.69640 0.14600
H 	H 	0.81040 0.42050 0.75370 0.12000
H 	H 	0.77660 0.46790 0.81330 0.00800
H 	H 	0.83650 0.41800 0.68960 0.28000
H 	H 	0.77600 0.47950 0.67570 0.28000
H 	H 	0.86240 0.46830 0.66530 0.30000
H 	H 	0.65420 0.95600 0.90680 0.10500
H 	H 	0.42470 0.03580 0.93180 0.09900
H 	H 	0.42410 0.95520 0.90180 0.02100
H 	H 	0.47360 0.06970 0.96270 0.25500
H 	H 	0.53890 0.01270 0.97670 0.25300
H 	H 	0.55790 0.06410 0.94970 0.26400
H 	H 	0.86280 0.77960 0.68620 -0.04400
H 	H 	0.94190 0.82760 0.67780 0.18500
H 	H 	0.90720 0.85130 0.78790 0.14300
H 	H 	0.99950 0.88240 0.73960 0.38400
H 	H 	0.04040 0.83690 0.70550 0.37700
H 	H 	0.97740 0.90390 0.70090 0.38300
H 	H 	0.25630 0.96180 0.84260 0.06100
H 	H 	0.12740 0.01500 0.96400 0.10500
H 	H 	0.25640 0.94230 0.95110 0.03600
H 	H 	0.11570 0.05350 0.79730 0.10500
H 	H 	0.19570 0.03910 0.80430 0.10500
H 	H 	0.16660 0.98550 0.80910 0.10900
H 	H 	0.00130 0.04490 0.96930 0.05800
H 	H 	0.01640 0.10550 0.96950 0.05700
H 	H 	0.91800 0.08280 0.91000 0.04500
H 	H 	0.83620 0.11420 0.93680 0.05400
H 	H 	0.87880 0.09700 0.00820 0.05800
H 	H 	0.81890 0.16000 0.99480 0.05900
H 	H 	0.94340 0.17570 0.90790 0.05100
H 	H 	0.93910 0.20440 0.94500 0.05700
H 	H 	0.99180 0.94870 0.90570 0.11600
H 	H 	0.95010 0.89200 0.87200 -0.02100
H 	H 	0.76050 0.94430 0.94070 0.00200
H 	H 	0.66770 0.04280 0.01020 0.11700
H 	H 	0.67980 0.00410 0.97570 0.09800
H 	H 	0.72200 0.97100 0.00780 0.11100
H 	H 	0.79890 0.14390 0.06330 0.09300
H 	H 	0.77540 0.15330 0.12770 0.02700
H 	H 	0.92240 0.23290 0.11010 0.05700
H 	H 	0.03870 0.25450 0.02810 0.07700
H 	H 	0.97360 0.28010 0.06450 0.07300
H 	H 	0.03660 0.21150 0.06430 0.07600
H 	H 	0.92710 0.27740 0.90700 0.09300
H 	H 	0.89170 0.38530 0.88710 0.02000
H 	H 	0.67800 0.40980 0.91920 0.05800
H 	H 	0.61490 0.29750 0.95770 -0.03300
H 	H 	0.62380 0.36090 0.95650 -0.04100
H 	H 	0.63470 0.33000 0.91900 -0.03700
H 	H 	0.85130 0.54250 0.91950 0.15800
H 	H 	0.96430 0.63660 0.94360 0.11500
H 	H 	0.89370 0.72630 0.91190 -0.04300
H 	H 	0.94710 0.49120 0.95880 0.25800
H 	H 	0.01410 0.51340 0.94500 0.25500
H 	H 	0.95350 0.53820 0.98280 0.25100
H 	H 	0.93130 0.27850 0.18690 0.01900
H 	H 	0.01800 0.32160 0.17560 0.08100
H 	H 	0.96870 0.36130 0.28730 0.13100
H 	H 	0.08710 0.37640 0.19680 0.21900
H 	H 	0.09920 0.35460 0.23740 0.22500
H 	H 	0.03510 0.42000 0.23100 0.22800
H 	H 	0.94820 0.05960 0.42520 -0.01100
H 	H 	0.01580 0.08180 0.45740 0.14100
H 	H 	0.95100 0.25980 0.41460 0.16800
H 	H 	0.07560 0.14380 0.46740 0.28900
H 	H 	0.01820 0.21440 0.47280 0.30900
H 	H 	0.08400 0.19400 0.43620 0.29400
H 	H 	0.93370 0.08160 0.19640 0.14500
H 	H 	0.01540 0.92050 0.25370 0.12000
H 	H 	0.94220 0.96790 0.31330 0.00900
H 	H 	0.05590 0.91800 0.18960 0.27900
H 	H 	0.06880 0.97950 0.17570 0.28000
H 	H 	0.00400 0.96830 0.16530 0.30000
H 	H 	0.48300 0.45600 0.40680 0.10500
H 	H 	0.60770 0.53580 0.43180 0.09900
H 	H 	0.71890 0.45520 0.40180 0.02100
H 	H 	0.49400 0.56970 0.46270 0.25400
H 	H 	0.47170 0.51270 0.47670 0.25300
H 	H 	0.42830 0.56410 0.44970 0.26400
H 	H 	0.67140 0.27960 0.18620 -0.04400
H 	H 	0.55270 0.32760 0.17780 0.18400
H 	H 	0.45360 0.35130 0.28790 0.14300
H 	H 	0.37850 0.38240 0.23960 0.38300
H 	H 	0.41720 0.33690 0.20550 0.37500
H 	H 	0.41780 0.40390 0.20090 0.38200
H 	H 	0.93930 0.46180 0.34260 0.06200
H 	H 	0.89360 0.51500 0.46400 0.10400
H 	H 	0.85020 0.44230 0.45110 0.03700
H 	H 	0.03350 0.55350 0.29730 0.10400
H 	H 	0.96090 0.53910 0.30430 0.10400
H 	H 	0.03880 0.48550 0.30910 0.10700
H 	H 	0.98450 0.54490 0.46930 0.06100
H 	H 	0.90860 0.60550 0.46950 0.06000
H 	H 	0.08920 0.58280 0.41000 0.04500
H 	H 	0.11280 0.61420 0.43680 0.05400
H 	H 	0.01600 0.59700 0.50820 0.05900
H 	H 	0.02630 0.66000 0.49480 0.06100
H 	H 	0.97300 0.67570 0.40790 0.05200
H 	H 	0.91150 0.70440 0.44500 0.05800
H 	H 	0.15380 0.44870 0.40570 0.11700
H 	H 	0.28590 0.39200 0.37200 -0.02000
H 	H 	0.35450 0.44430 0.44070 0.00200
H 	H 	0.27930 0.54280 0.51020 0.11800
H 	H 	0.34040 0.50410 0.47570 0.09800
H 	H 	0.29920 0.47100 0.50780 0.11200
H 	H 	0.99390 0.64390 0.56330 0.09200
H 	H 	0.94360 0.65330 0.62770 0.02700
H 	H 	0.73460 0.73290 0.61010 0.05700
H 	H 	0.67870 0.75450 0.52810 0.07600
H 	H 	0.68180 0.78010 0.56450 0.07200
H 	H 	0.68760 0.71150 0.56430 0.07500
H 	H 	0.88850 0.77740 0.40700 0.09300
H 	H 	0.83590 0.88530 0.38710 0.01900
H 	H 	0.99300 0.90980 0.41920 0.05800
H 	H 	0.12990 0.79750 0.45770 -0.03100
H 	H 	0.05880 0.86090 0.45650 -0.04000
H 	H 	0.11630 0.83000 0.41900 -0.03500
H 	H 	0.68670 0.04250 0.41950 0.15800
H 	H 	0.45550 0.13660 0.44360 0.11500
H 	H 	0.46810 0.22630 0.41190 -0.04200
H 	H 	0.60290 0.99120 0.45880 0.25800
H 	H 	0.52750 0.01340 0.44500 0.25500
H 	H 	0.52550 0.03820 0.48280 0.25100
C 	C 	0.50060 0.81590 0.77110 0.14000
C 	C 	0.56180 0.79540 0.74360 -0.00900
C 	C 	0.55940 0.79510 0.70610 0.00300
C 	C 	0.49000 0.82020 0.70000 -0.21400
C 	C 	0.42310 0.84510 0.72930 0.24700
C 	C 	0.42540 0.84470 0.76750 -0.28000
C 	C 	0.33780 0.87720 0.72300 -0.68700
C 	C 	0.48830 0.70510 0.89870 0.21600
C 	C 	0.54470 0.64730 0.90230 -0.08100
C 	C 	0.52850 0.59930 0.92350 0.11300
C 	C 	0.45730 0.61160 0.94120 -0.34900
C 	C 	0.40050 0.67000 0.93520 0.40000
C 	C 	0.41320 0.71990 0.91590 -0.41600
C 	C 	0.31520 0.68180 0.95480 -0.89400
C 	C 	0.76770 0.55400 0.78700 -0.04300
C 	C 	0.77300 0.58350 0.75470 0.14200
C 	C 	0.79010 0.55800 0.71860 -0.38100
C 	C 	0.80950 0.49560 0.72040 0.37600
C 	C 	0.80160 0.46250 0.75450 -0.29100
C 	C 	0.78090 0.48970 0.79050 0.03900
C 	C 	0.82230 0.46230 0.68430 -0.88300
C 	C 	0.53870 0.90750 0.88630 0.01000
C 	C 	0.60769 0.90762 0.88780 0.11900
C 	C 	0.60810 0.95580 0.90580 -0.33700
C 	C 	0.53954 0.00382 0.92230 0.33200
C 	C 	0.47060 0.00360 0.92080 -0.24700
C 	C 	0.47020 0.95540 0.90280 0.00500
C 	C 	0.52650 0.04110 0.95590 -0.82700
C 	C 	0.84350 0.80990 0.77070 0.18600
C 	C 	0.82900 0.78860 0.74420 -0.08000
C 	C 	0.86940 0.79440 0.70660 0.17800
C 	C 	0.91750 0.82240 0.70240 -0.48800
C 	C 	0.93560 0.84420 0.72920 0.58900
C 	C 	0.89820 0.83860 0.76760 -0.45300
C 	C 	0.99290 0.86890 0.71790 -1.24000
C 	C 	0.34730 0.89500 0.88800 0.32400
C 	C 	0.26380 0.94810 0.89490 -0.07100
C 	C 	0.23120 0.97270 0.86750 -0.04300
C 	C 	0.15590 0.01650 0.87790 0.04400
C 	C 	0.11530 0.03180 0.91320 0.16000
C 	C 	0.15319 0.00472 0.93910 -0.17400
C 	C 	0.23080 0.96060 0.93220 0.02900
C 	C 	0.15150 0.02960 0.81220 -0.25300
C 	C 	0.99795 0.08433 0.95617 -0.01700
C 	C 	0.91865 0.12396 0.95514 0.04400
C 	C 	0.88993 0.08964 0.93610 -0.00700
C 	C 	0.87255 0.13630 0.99440 -0.03000
C 	C 	0.91571 0.18450 0.93388 -0.01900
C 	C 	0.88530 0.99410 0.93730 0.21200
C 	C 	0.94160 0.95270 0.91150 -0.21600
C 	C 	0.91640 0.91420 0.89320 0.08100
C 	C 	0.85610 0.91010 0.90370 -0.14600
C 	C 	0.80890 0.94420 0.93120 0.01800
C 	C 	0.83370 0.98080 0.94660 -0.03800
C 	C 	0.70400 0.00920 0.99360 -0.27500
C 	C 	0.76080 0.47550 0.89050 0.40300
C 	C 	0.87760 0.17910 0.04750 0.14000
C 	C 	0.82512 0.16126 0.07250 -0.17100
C 	C 	0.80940 0.16780 0.11120 0.04100
C 	C 	0.84420 0.19540 0.12360 -0.08700
C 	C 	0.89750 0.21450 0.10070 -0.05500
C 	C 	0.91250 0.20430 0.06290 0.05700
C 	C 	0.00590 0.24370 0.04950 -0.16700
C 	C 	0.82700 0.20130 0.16570 0.31200
C 	C 	0.82310 0.28290 0.92330 0.14900
C 	C 	0.87590 0.30420 0.90940 -0.17600
C 	C 	0.85470 0.36970 0.89750 0.04600
C 	C 	0.77860 0.40760 0.90220 -0.11400
C 	C 	0.72990 0.38420 0.91580 -0.04600
C 	C 	0.75320 0.32150 0.92550 0.08200
C 	C 	0.64240 0.32180 0.94400 0.23000
C 	C 	0.83460 0.68350 0.89810 -0.08200
C 	C 	0.82340 0.63180 0.89900 0.21800
C 	C 	0.86010 0.57860 0.91840 -0.39300
C 	C 	0.91140 0.58190 0.93630 0.34900
C 	C 	0.92700 0.63650 0.93290 -0.28800
C 	C 	0.88640 0.68930 0.91390 0.06600
C 	C 	0.96130 0.52580 0.95780 -0.82100
C 	C 	0.91240 0.31590 0.27110 0.13900
C 	C 	0.89920 0.29540 0.24360 -0.00800
C 	C 	0.93940 0.29510 0.20610 0.00200
C 	C 	0.98980 0.32020 0.20000 -0.21200
C 	C 	0.00250 0.34510 0.22930 0.24600
C 	C 	0.96240 0.34470 0.26750 -0.27900
C 	C 	0.06200 0.37720 0.22300 -0.68500
C 	C 	0.90790 0.20510 0.39870 0.21500
C 	C 	0.90570 0.14730 0.40230 -0.08100
C 	C 	0.94870 0.09930 0.42350 0.11200
C 	C 	0.98990 0.11160 0.44120 -0.34600
C 	C 	0.99430 0.17000 0.43520 0.39900
C 	C 	0.95100 0.21990 0.41590 -0.41500
C 	C 	0.04820 0.18180 0.45480 -0.89300
C 	C 	0.89130 0.05400 0.28700 -0.04100
C 	C 	0.88880 0.08350 0.25470 0.14100
C 	C 	0.93330 0.05800 0.21860 -0.37800
C 	C 	0.97450 0.99560 0.22040 0.37300
C 	C 	0.98140 0.96250 0.25450 -0.29100
C 	C 	0.93890 0.98970 0.29050 0.03700
C 	C 	0.03110 0.96230 0.18430 -0.87900
C 	C 	0.66750 0.40750 0.38630 0.01000
C 	C 	0.59689 0.40762 0.38780 0.11800
C 	C 	0.53030 0.45580 0.40580 -0.33700
C 	C 	0.53434 0.50382 0.42230 0.33200
C 	C 	0.60500 0.50360 0.42080 -0.24700
C 	C 	0.67160 0.45540 0.40280 0.00500
C 	C 	0.47650 0.54110 0.45590 -0.82700
C 	C 	0.57590 0.30990 0.27070 0.18600
C 	C 	0.63820 0.28860 0.24420 -0.07900
C 	C 	0.62960 0.29440 0.20660 0.17700
C 	C 	0.55770 0.32240 0.20240 -0.48600
C 	C 	0.49100 0.34420 0.22920 0.58800
C 	C 	0.49560 0.33860 0.26760 -0.45200
C 	C 	0.42030 0.36890 0.21790 -1.23500
C 	C 	0.86970 0.39500 0.38800 0.32300
C 	C 	0.89320 0.44810 0.39490 -0.06900
C 	C 	0.92860 0.47270 0.36750 -0.04600
C 	C 	0.94970 0.51650 0.37790 0.04700
C 	C 	0.93970 0.53180 0.41320 0.15700
C 	C 	0.90299 0.50472 0.43910 -0.17000
C 	C 	0.87640 0.46060 0.43220 0.02600
C 	C 	0.00670 0.52960 0.31220 -0.24900
C 	C 	0.96155 0.58433 0.45617 -0.02500
C 	C 	0.00225 0.62396 0.45514 0.04900
C 	C 	0.08433 0.58964 0.43610 -0.00900
C 	C 	0.99675 0.63630 0.49440 -0.03500
C 	C 	0.96591 0.68450 0.43388 -0.02200
C 	C 	0.18330 0.49410 0.43730 0.21300
C 	C 	0.19420 0.45270 0.41150 -0.21700
C 	C 	0.27620 0.41420 0.39320 0.08200
C 	C 	0.33010 0.41010 0.40370 -0.14600
C 	C 	0.31570 0.44420 0.43120 0.01800
C 	C 	0.23890 0.48080 0.44660 -0.03800
C 	C 	0.29320 0.50920 0.49360 -0.27700
C 	C 	0.87320 0.97550 0.39050 0.40300
C 	C 	0.89580 0.67910 0.54750 0.13900
C 	C 	0.94112 0.66126 0.57250 -0.17000
C 	C 	0.91160 0.66780 0.61120 0.04000
C 	C 	0.83680 0.69540 0.62360 -0.08700
C 	C 	0.78730 0.71450 0.60070 -0.05500
C 	C 	0.82030 0.70430 0.56290 0.05800
C 	C 	0.70090 0.74370 0.54950 -0.16400
C 	C 	0.80600 0.70130 0.66570 0.31100
C 	C 	0.97070 0.78290 0.42330 0.14800
C 	C 	0.91050 0.80420 0.40940 -0.17600
C 	C 	0.87810 0.86970 0.39750 0.04600
C 	C 	0.91160 0.90760 0.40220 -0.11400
C 	C 	0.97010 0.88420 0.41580 -0.04600
C 	C 	0.99980 0.82150 0.42550 0.08100
C 	C 	0.09180 0.82180 0.44400 0.22600
C 	C 	0.58380 0.18350 0.39810 -0.08200
C 	C 	0.64580 0.13180 0.39900 0.21800
C 	C 	0.64290 0.07860 0.41840 -0.39300
C 	C 	0.57040 0.08190 0.43630 0.34900
C 	C 	0.50360 0.13650 0.43290 -0.28800
C 	C 	0.51040 0.18930 0.41390 0.06600
C 	C 	0.55510 0.02580 0.45780 -0.82000
N 	N 	0.62730 0.76970 0.75470 -0.23600
N 	N 	0.60489 0.77782 0.79060 -0.21200
N 	N 	0.52829 0.80728 0.80154 -0.25800
N 	N 	0.51863 0.74303 0.87711 -0.28500
N 	N 	0.59383 0.70834 0.86740 -0.21500
N 	N 	0.61030 0.65035 0.88285 -0.22300
N 	N 	0.74460 0.59542 0.81538 -0.22300
N 	N 	0.73232 0.65166 0.79990 -0.21300
N 	N 	0.75140 0.64720 0.76320 -0.26500
N 	N 	0.65890 0.85425 0.86915 -0.27900
N 	N 	0.62079 0.82720 0.85902 -0.20900
N 	N 	0.54850 0.86005 0.86855 -0.23900
N 	N 	0.79755 0.79836 0.80234 -0.28000
N 	N 	0.75910 0.77210 0.79130 -0.20500
N 	N 	0.77770 0.76510 0.75510 -0.23900
N 	N 	0.79180 0.72475 0.87725 -0.24600
N 	N 	0.75242 0.69768 0.86788 -0.21400
N 	N 	0.77101 0.63893 0.88125 -0.28400
N 	N 	0.84830 0.26970 0.25470 -0.23700
N 	N 	0.82669 0.27782 0.29060 -0.21200
N 	N 	0.86289 0.30728 0.30154 -0.25800
N 	N 	0.86123 0.24303 0.37711 -0.28500
N 	N 	0.83043 0.20834 0.36740 -0.21500
N 	N 	0.85650 0.15035 0.38285 -0.22300
N 	N 	0.84460 0.09542 0.31538 -0.22300
N 	N 	0.81612 0.15166 0.29990 -0.21300
N 	N 	0.83820 0.14720 0.26320 -0.26500
N 	N 	0.61770 0.35425 0.36915 -0.27900
N 	N 	0.69299 0.32720 0.35902 -0.20900
N 	N 	0.72290 0.36005 0.36855 -0.23900
N 	N 	0.60175 0.29836 0.30234 -0.28000
N 	N 	0.67750 0.27210 0.29130 -0.20500
N 	N 	0.70210 0.26510 0.25510 -0.24000
N 	N 	0.60620 0.22475 0.37725 -0.24600
N 	N 	0.68202 0.19768 0.36788 -0.21400
N 	N 	0.70881 0.13893 0.38125 -0.28400
O 	O 	0.37880 0.87040 0.91260 -0.38900
O 	O 	0.37740 0.88840 0.85340 -0.47600
O 	O 	0.69350 0.50580 0.88860 -0.44800
O 	O 	0.80440 0.49750 0.88090 -0.49100
O 	O 	0.78560 0.17790 0.18690 -0.39600
O 	O 	0.85490 0.23233 0.17707 -0.46500
O 	O 	0.04273 0.07253 0.91921 -0.21200
O 	O 	0.77380 0.02630 0.97190 -0.12800
O 	O 	0.70580 0.29470 0.94270 -0.28200
O 	O 	0.96186 0.22178 0.03750 -0.15500
O 	O 	0.90012 0.17196 0.01080 -0.20000
O 	O 	0.83839 0.22454 0.93588 -0.19900
O 	O 	0.90004 0.03189 0.95483 -0.22300
O 	O 	0.11598 0.04524 0.85180 -0.14900
O 	O 	0.83820 0.37040 0.41260 -0.38900
O 	O 	0.88080 0.38840 0.35340 -0.47600
O 	O 	0.91210 0.00580 0.38860 -0.44800
O 	O 	0.81720 0.99750 0.38090 -0.49100
O 	O 	0.84960 0.67790 0.68690 -0.39600
O 	O 	0.73570 0.73233 0.67707 -0.46500
O 	O 	0.96553 0.57253 0.41921 -0.20900
O 	O 	0.22800 0.52630 0.47190 -0.12900
O 	O 	0.05680 0.79470 0.44270 -0.28000
O 	O 	0.77886 0.72178 0.53750 -0.15600
O 	O 	0.91712 0.67196 0.51080 -0.19900
O 	O 	0.00119 0.72454 0.43588 -0.19900
O 	O 	0.11324 0.53189 0.45483 -0.22400
O 	O 	0.98698 0.54524 0.35180 -0.15000
