data_crystal

_cell_length_a 24.42380
_cell_length_b 27.12420
_cell_length_c 30.94230
_cell_angle_alpha 115.30600
_cell_angle_beta  113.24500
_cell_angle_gamma 90.00000

_symmetry_space_group_name_	'P 1'
_symmetry_space_group_name_H-M	'P 1'

loop_
_symmetry_equiv_pos_as_xyz
  x,y,z

loop_
_atom_site_label
_atom_site_type_symbol
_atom_site_fract_x
_atom_site_fract_y
_atom_site_fract_z
_atom_site_charge
Zn	Zn	0.85280 0.93090 0.55140 1.13800
Zn	Zn	0.81210 0.99820 0.46940 1.20600
Zn	Zn	0.01120 0.97710 0.63720 1.18800
Zn	Zn	0.82310 0.78350 0.47160 1.21200
Zn	Zn	0.76380 0.96400 0.62720 1.17200
H 	H 	0.68370 0.85350 0.61620 0.06400
H 	H 	0.65800 0.75830 0.58880 0.03800
H 	H 	0.67850 0.68820 0.52680 0.05900
H 	H 	0.74330 0.70850 0.49640 0.07900
H 	H 	0.09150 0.06690 0.62200 0.07900
H 	H 	0.10200 0.13030 0.58960 0.03800
H 	H 	0.02380 0.13380 0.52160 0.03300
H 	H 	0.92380 0.08850 0.48580 0.06200
H 	H 	0.72990 0.09830 0.49820 0.07800
H 	H 	0.67090 0.14470 0.53720 0.06600
H 	H 	0.64750 0.13010 0.59120 0.02300
H 	H 	0.68280 0.06820 0.61960 0.07700
H 	H 	0.10370 0.88160 0.62360 0.07600
H 	H 	0.94680 0.71850 0.48580 0.06400
H 	H 	0.05530 0.72060 0.51500 0.03900
H 	H 	0.12680 0.79890 0.58540 0.02800
H 	H 	0.75110 0.73660 0.33680 0.10000
H 	H 	0.72170 0.74720 0.26120 0.02800
H 	H 	0.72480 0.82470 0.25900 0.04000
H 	H 	0.74400 0.91220 0.33660 0.08900
H 	H 	0.85370 0.03090 0.75860 0.07700
H 	H 	0.93660 0.08290 0.84020 0.03900
H 	H 	0.03390 0.09000 0.84540 0.03600
H 	H 	0.04840 0.04510 0.76920 0.06100
H 	H 	0.72420 0.10100 0.75740 0.06400
H 	H 	0.67720 0.12700 0.81680 0.05100
H 	H 	0.71490 0.99050 0.83260 0.05100
H 	H 	0.71800 0.95610 0.74860 0.06700
H 	H 	0.69750 0.17460 0.90880 0.01500
H 	H 	0.67160 0.20550 0.97940 0.10400
H 	H 	0.63340 0.04770 0.95140 0.10700
H 	H 	0.65930 0.01680 0.88100 0.01900
H 	H 	0.65440 0.21920 0.03220 -0.02900
H 	H 	0.68700 0.17990 0.05460 0.00300
H 	H 	0.16740 0.98480 0.78840 0.02800
H 	H 	0.26440 0.02430 0.86240 0.07700
H 	H 	0.29380 0.12520 0.80380 0.08900
H 	H 	0.19580 0.09430 0.74420 0.01200
H 	H 	0.36430 0.02560 0.89040 0.01700
H 	H 	0.46120 0.05500 0.95980 0.11000
H 	H 	0.46670 0.20820 0.97080 0.10400
H 	H 	0.36980 0.17880 0.90140 0.00800
H 	H 	0.53360 0.18650 0.06500 -0.01600
H 	H 	0.53760 0.20740 0.02640 -0.02500
H 	H 	0.59990 0.13620 0.08120 0.01700
H 	H 	0.66830 0.16480 0.11560 0.00800
H 	H 	0.78930 0.62940 0.32560 -0.30000
H 	H 	0.71300 0.54280 0.25660 0.24400
H 	H 	0.76780 0.49590 0.36660 0.25900
H 	H 	0.79780 0.59180 0.42940 -0.22200
H 	H 	0.79630 0.44520 0.25060 -0.06500
H 	H 	0.76550 0.35260 0.18600 0.18000
H 	H 	0.60370 0.34740 0.19080 0.17500
H 	H 	0.63440 0.44000 0.25520 -0.06500
H 	H 	0.59590 0.28460 0.10300 -0.13700
H 	H 	0.60240 0.25910 0.14160 -0.11700
H 	H 	0.78320 0.14530 0.42820 -0.08400
H 	H 	0.74620 0.18220 0.36820 0.14400
H 	H 	0.71330 0.02770 0.25000 0.13100
H 	H 	0.73630 0.99470 0.31680 -0.03600
H 	H 	0.64230 0.16360 0.28220 0.01000
H 	H 	0.59980 0.18390 0.21180 0.10700
H 	H 	0.72490 0.12030 0.16180 0.09500
H 	H 	0.76740 0.10000 0.23240 0.01100
C 	C 	0.75200 0.79300 0.53600 0.08100
C 	C 	0.73700 0.83500 0.57000 0.06000
C 	C 	0.69600 0.82600 0.59400 -0.11700
C 	C 	0.68000 0.76900 0.57400 -0.01500
C 	C 	0.69500 0.72500 0.53800 -0.02000
C 	C 	0.73200 0.73700 0.52000 -0.11700
C 	C 	0.95100 0.04700 0.53200 0.05900
C 	C 	0.99600 0.04100 0.57200 0.07800
C 	C 	0.05900 0.07100 0.59600 -0.12400
C 	C 	0.06500 0.10800 0.57600 -0.02500
C 	C 	0.01500 0.11100 0.53400 -0.02700
C 	C 	0.95600 0.08400 0.51200 -0.10900
C 	C 	0.74200 0.05100 0.53800 0.05900
C 	C 	0.72100 0.09100 0.52200 -0.09600
C 	C 	0.68700 0.11700 0.54600 -0.04300
C 	C 	0.67300 0.10900 0.57800 0.01800
C 	C 	0.69300 0.07300 0.59600 -0.14200
C 	C 	0.73300 0.04000 0.57400 0.07100
C 	C 	0.07400 0.85100 0.59600 -0.12500
C 	C 	0.00700 0.85500 0.57200 0.07500
C 	C 	0.96100 0.80400 0.53200 0.06000
C 	C 	0.97600 0.75100 0.51000 -0.10400
C 	C 	0.04200 0.75300 0.53000 -0.04000
C 	C 	0.08600 0.80200 0.57200 0.00600
C 	C 	0.77400 0.87100 0.38400 0.06000
C 	C 	0.77700 0.82400 0.38400 0.07400
C 	C 	0.75400 0.77100 0.33800 -0.13500
C 	C 	0.73600 0.77900 0.29400 0.00600
C 	C 	0.73500 0.82600 0.29200 -0.03400
C 	C 	0.75000 0.87900 0.33800 -0.10600
C 	C 	0.96000 0.01100 0.71800 0.05000
C 	C 	0.90100 0.00700 0.71400 0.07600
C 	C 	0.89200 0.03400 0.76000 -0.11400
C 	C 	0.94300 0.06500 0.81000 -0.01700
C 	C 	-0.00000 0.06900 0.81200 -0.01600
C 	C 	0.01000 0.04200 0.76800 -0.10300
C 	C 	0.74200 0.99500 0.69800 0.17500
C 	C 	0.72800 0.02400 0.74600 0.00300
C 	C 	0.71700 0.07600 0.76800 -0.04400
C 	C 	0.69400 0.09500 0.81000 -0.06600
C 	C 	0.69800 0.06800 0.84000 0.03500
C 	C 	0.71100 0.01400 0.81600 -0.05900
C 	C 	0.71900 0.99400 0.76600 -0.04800
C 	C 	0.68500 0.14900 0.91800 0.04900
C 	C 	0.66900 0.16800 0.96000 -0.20400
C 	C 	0.65000 0.13000 0.97200 0.22000
C 	C 	0.64600 0.07300 0.94200 -0.16900
C 	C 	0.66100 0.05500 0.90000 0.03600
C 	C 	0.68100 0.09300 0.88800 -0.05300
C 	C 	0.64700 0.18800 0.03800 0.19200
C 	C 	0.10900 0.00300 0.70600 0.49500
C 	C 	0.17600 0.03200 0.75400 -0.15000
C 	C 	0.19400 0.01300 0.79200 0.05500
C 	C 	0.25200 0.03600 0.83600 -0.13600
C 	C 	0.29100 0.08000 0.84000 0.09200
C 	C 	0.26900 0.09800 0.80200 -0.17500
C 	C 	0.21100 0.07600 0.76400 0.10200
C 	C 	0.35700 0.09900 0.88800 -0.07300
C 	C 	0.38500 0.06200 0.90600 0.04100
C 	C 	0.44300 0.08000 0.94800 -0.17100
C 	C 	0.47300 0.13500 0.97200 0.21100
C 	C 	0.44600 0.17200 0.95400 -0.20300
C 	C 	0.38900 0.15400 0.91400 0.06200
C 	C 	0.55300 0.18300 0.04200 0.19000
C 	C 	0.62100 0.20600 0.07800 -0.22500
C 	C 	0.62700 0.17200 0.10600 0.15000
C 	C 	0.80000 0.68200 0.42000 1.16800
C 	C 	0.77900 0.62000 0.38000 -0.92000
C 	C 	0.77300 0.61000 0.33400 0.80300
C 	C 	0.73800 0.55000 0.29200 -0.63000
C 	C 	0.74100 0.50900 0.30200 0.55100
C 	C 	0.76400 0.52300 0.35600 -0.64400
C 	C 	0.78300 0.58200 0.39400 0.74600
C 	C 	0.71900 0.45200 0.26000 -0.36600
C 	C 	0.75700 0.42600 0.23800 0.27600
C 	C 	0.73900 0.37000 0.20000 -0.38900
C 	C 	0.68200 0.34100 0.18200 0.43200
C 	C 	0.64200 0.36700 0.20200 -0.39400
C 	C 	0.66100 0.42200 0.24200 0.27500
C 	C 	0.62000 0.26400 0.12000 0.57800
C 	C 	0.78600 0.04700 0.41800 0.86500
C 	C 	0.76600 0.07200 0.38000 -0.46400
C 	C 	0.76700 0.12100 0.39200 0.37500
C 	C 	0.74600 0.14400 0.35600 -0.33200
C 	C 	0.72400 0.10800 0.30200 0.21900
C 	C 	0.72400 0.05200 0.28600 -0.27300
C 	C 	0.74100 0.03300 0.32600 0.24900
C 	C 	0.70900 0.13000 0.26400 -0.12200
C 	C 	0.65900 0.15500 0.25800 0.06100
C 	C 	0.63300 0.16700 0.21600 -0.16600
C 	C 	0.65800 0.15400 0.18000 0.16400
C 	C 	0.70800 0.12900 0.18600 -0.17700
C 	C 	0.73400 0.11700 0.22800 0.06700
N 	N 	0.97500 0.00700 0.58400 -0.24200
N 	N 	0.91600 0.99100 0.55200 -0.19800
N 	N 	0.89900 0.01500 0.52000 -0.24300
N 	N 	0.77600 0.01500 0.52200 -0.23800
N 	N 	0.78900 0.98600 0.55000 -0.21200
N 	N 	0.80100 0.83200 0.43600 -0.23700
N 	N 	0.81200 0.88700 0.46400 -0.20500
N 	N 	0.79700 0.91700 0.43600 -0.24800
N 	N 	0.78700 0.81400 0.52400 -0.24400
N 	N 	0.79300 0.86700 0.55000 -0.19500
N 	N 	0.95000 0.99100 0.66600 -0.25000
N 	N 	0.89300 0.97600 0.64000 -0.17400
N 	N 	0.85800 0.98600 0.66200 -0.23300
N 	N 	0.92000 0.87700 0.55400 -0.20700
N 	N 	0.98100 0.89700 0.58600 -0.25500
N 	N 	0.76200 0.88300 0.58000 -0.25400
N 	N 	0.91000 0.82300 0.52200 -0.23900
N 	N 	0.76000 0.00100 0.58000 -0.24100
O 	O 	0.09500 0.02900 0.68400 -0.53000
O 	O 	0.08800 0.96400 0.70200 -0.48000
O 	O 	0.79200 0.71300 0.41200 -0.94000
O 	O 	0.82700 0.69300 0.46600 -0.60700
O 	O 	0.80600 0.08000 0.46200 -0.57200
O 	O 	0.78200 0.00500 0.40600 -0.75800
O 	O 	0.74700 0.03500 0.68600 -0.37100
O 	O 	0.75300 0.94900 0.69000 -0.36800
O 	O 	0.53300 0.13400 0.00400 -0.25300
O 	O 	0.62000 0.18900 0.15000 -0.22600
O 	O 	0.62800 0.13500 0.00800 -0.25800
O 	O 	0.66600 0.28500 0.14400 -0.49700
Zn	Zn	0.30140 0.56910 0.44860 1.13700
Zn	Zn	0.34270 0.50180 0.53060 1.20500
Zn	Zn	0.37400 0.52290 0.36280 1.18700
Zn	Zn	0.35150 0.71650 0.52840 1.21100
Zn	Zn	0.13660 0.53600 0.37280 1.17100
H 	H 	0.06750 0.64650 0.38380 0.06300
H 	H 	0.06920 0.74170 0.41120 0.03700
H 	H 	0.15170 0.81180 0.47320 0.05800
H 	H 	0.24690 0.79150 0.50360 0.07800
H 	H 	0.46950 0.43310 0.37800 0.07800
H 	H 	0.51240 0.36970 0.41040 0.03700
H 	H 	0.50220 0.36620 0.47840 0.03200
H 	H 	0.43800 0.41150 0.51420 0.06200
H 	H 	0.23170 0.40170 0.50180 0.07700
H 	H 	0.13370 0.35530 0.46280 0.06600
H 	H 	0.05630 0.36990 0.40880 0.02300
H 	H 	0.06320 0.43180 0.38040 0.07700
H 	H 	0.48010 0.61840 0.37640 0.07500
H 	H 	0.46100 0.78150 0.51420 0.06400
H 	H 	0.54030 0.77940 0.48500 0.03900
H 	H 	0.54140 0.70110 0.41460 0.02800
H 	H 	0.41430 0.76340 0.66320 0.10000
H 	H 	0.46050 0.75280 0.73880 0.02800
H 	H 	0.46580 0.67530 0.74100 0.04000
H 	H 	0.40740 0.58780 0.66340 0.08900
H 	H 	0.09510 0.46910 0.24140 0.07600
H 	H 	0.09640 0.41710 0.15980 0.03900
H 	H 	0.18850 0.41000 0.15460 0.03600
H 	H 	0.27920 0.45490 0.23080 0.06100
H 	H 	0.96680 0.39900 0.24260 0.06300
H 	H 	0.86040 0.37300 0.18320 0.05100
H 	H 	0.88230 0.50950 0.16740 0.05200
H 	H 	0.96940 0.54390 0.25140 0.06600
H 	H 	0.78870 0.32540 0.09120 0.01500
H 	H 	0.69220 0.29450 0.02060 0.10400
H 	H 	0.68200 0.45230 0.04860 0.10700
H 	H 	0.77830 0.48320 0.11900 0.01900
H 	H 	0.62220 0.28080 0.96780 -0.02900
H 	H 	0.63240 0.32010 0.94540 0.00300
H 	H 	0.37900 0.51520 0.21160 0.02700
H 	H 	0.40200 0.47570 0.13760 0.07800
H 	H 	0.49000 0.37480 0.19620 0.09000
H 	H 	0.45160 0.40570 0.25580 0.01100
H 	H 	0.47390 0.47440 0.10960 0.01700
H 	H 	0.50140 0.44500 0.04020 0.11000
H 	H 	0.49590 0.29180 0.02920 0.10400
H 	H 	0.46840 0.32120 0.09860 0.00800
H 	H 	0.46860 0.31350 0.93500 -0.01600
H 	H 	0.51120 0.29260 0.97360 -0.02600
H 	H 	0.51870 0.36380 0.91880 0.01700
H 	H 	0.55270 0.33520 0.88440 0.00800
H 	H 	0.46370 0.87060 0.67440 -0.30000
H 	H 	0.45640 0.95720 0.74340 0.24400
H 	H 	0.40120 0.00410 0.63340 0.25900
H 	H 	0.36840 0.90820 0.57060 -0.22200
H 	H 	0.54570 0.05480 0.74940 -0.06500
H 	H 	0.57950 0.14740 0.81400 0.18100
H 	H 	0.41290 0.15260 0.80920 0.17500
H 	H 	0.37920 0.06000 0.74480 -0.06500
H 	H 	0.49290 0.21540 0.89700 -0.13700
H 	H 	0.46080 0.24090 0.85840 -0.11700
H 	H 	0.35500 0.35470 0.57180 -0.08300
H 	H 	0.37800 0.31780 0.63180 0.14400
H 	H 	0.46330 0.47230 0.75000 0.13100
H 	H 	0.41950 0.50530 0.68320 -0.03600
H 	H 	0.36010 0.33640 0.71780 0.01000
H 	H 	0.38800 0.31610 0.78820 0.10700
H 	H 	0.56310 0.37970 0.83820 0.09500
H 	H 	0.53500 0.40000 0.76760 0.01100
C 	C 	0.21600 0.70700 0.46400 0.08100
C 	C 	0.16700 0.66500 0.43000 0.06000
C 	C 	0.10200 0.67400 0.40600 -0.11700
C 	C 	0.10600 0.73100 0.42600 -0.01500
C 	C 	0.15700 0.77500 0.46200 -0.02000
C 	C 	0.21200 0.76300 0.48000 -0.11700
C 	C 	0.41900 0.45300 0.46800 0.06000
C 	C 	0.42400 0.45900 0.42800 0.07600
C 	C 	0.46300 0.42900 0.40400 -0.12200
C 	C 	0.48900 0.39200 0.42400 -0.02700
C 	C 	0.48100 0.38900 0.46600 -0.02500
C 	C 	0.44400 0.41600 0.48800 -0.11100
C 	C 	0.20400 0.44900 0.46200 0.05900
C 	C 	0.19900 0.40900 0.47800 -0.09600
C 	C 	0.14100 0.38300 0.45400 -0.04300
C 	C 	0.09500 0.39100 0.42200 0.01800
C 	C 	0.09700 0.42700 0.40400 -0.14200
C 	C 	0.15900 0.46000 0.42600 0.07100
C 	C 	0.47800 0.64900 0.40400 -0.12500
C 	C 	0.43500 0.64500 0.42800 0.07400
C 	C 	0.42900 0.69600 0.46800 0.06000
C 	C 	0.46600 0.74900 0.49000 -0.10400
C 	C 	0.51200 0.74700 0.47000 -0.04000
C 	C 	0.51400 0.69800 0.42800 0.00600
C 	C 	0.39000 0.62900 0.61600 0.06000
C 	C 	0.39300 0.67600 0.61600 0.07400
C 	C 	0.41600 0.72900 0.66200 -0.13500
C 	C 	0.44200 0.72100 0.70600 0.00600
C 	C 	0.44300 0.67400 0.70800 -0.03400
C 	C 	0.41200 0.62100 0.66200 -0.10600
C 	C 	0.24200 0.48900 0.28200 0.04900
C 	C 	0.18700 0.49300 0.28600 0.07500
C 	C 	0.13200 0.46600 0.24000 -0.11400
C 	C 	0.13300 0.43500 0.19000 -0.01800
C 	C 	0.18800 0.43100 0.18800 -0.01500
C 	C 	0.24200 0.45800 0.23200 -0.10200
C 	C 	0.04400 0.50500 0.30200 0.17600
C 	C 	0.98200 0.47600 0.25400 0.00100
C 	C 	0.94900 0.42400 0.23200 -0.04300
C 	C 	0.88400 0.40500 0.19000 -0.06700
C 	C 	0.85800 0.43200 0.16000 0.03600
C 	C 	0.89500 0.48600 0.18400 -0.06100
C 	C 	0.95300 0.50600 0.23400 -0.04600
C 	C 	0.76700 0.35100 0.08200 0.04900
C 	C 	0.70900 0.33200 0.04000 -0.20400
C 	C 	0.67800 0.37000 0.02800 0.21900
C 	C 	0.70400 0.42700 0.05800 -0.16900
C 	C 	0.76100 0.44500 0.10000 0.03600
C 	C 	0.79300 0.40700 0.11200 -0.05300
C 	C 	0.60900 0.31200 0.96200 0.19200
C 	C 	0.40300 0.49700 0.29400 0.49600
C 	C 	0.42200 0.46800 0.24600 -0.15100
C 	C 	0.40200 0.48700 0.20800 0.05700
C 	C 	0.41600 0.46400 0.16400 -0.13700
C 	C 	0.45100 0.42000 0.16000 0.09300
C 	C 	0.46700 0.40200 0.19800 -0.17500
C 	C 	0.44700 0.42400 0.23600 0.10300
C 	C 	0.46900 0.40100 0.11200 -0.07300
C 	C 	0.47900 0.43800 0.09400 0.04100
C 	C 	0.49500 0.42000 0.05200 -0.17100
C 	C 	0.50100 0.36500 0.02800 0.21100
C 	C 	0.49200 0.32800 0.04600 -0.20400
C 	C 	0.47500 0.34600 0.08600 0.06200
C 	C 	0.51100 0.31700 0.95800 0.19000
C 	C 	0.54300 0.29400 0.92200 -0.22500
C 	C 	0.52100 0.32800 0.89400 0.15000
C 	C 	0.38000 0.81800 0.58000 1.16800
C 	C 	0.39900 0.88000 0.62000 -0.92000
C 	C 	0.43900 0.89000 0.66600 0.80300
C 	C 	0.44600 0.95000 0.70800 -0.63000
C 	C 	0.43900 0.99100 0.69800 0.55100
C 	C 	0.40800 0.97700 0.64400 -0.64400
C 	C 	0.38900 0.91800 0.60600 0.74500
C 	C 	0.45900 0.04800 0.74000 -0.36600
C 	C 	0.51900 0.07400 0.76200 0.27600
C 	C 	0.53900 0.13000 0.80000 -0.38900
C 	C 	0.50000 0.15900 0.81800 0.43200
C 	C 	0.44000 0.13300 0.79800 -0.39400
C 	C 	0.41900 0.07800 0.75800 0.27500
C 	C 	0.50000 0.23600 0.88000 0.57800
C 	C 	0.36800 0.45300 0.58200 0.86500
C 	C 	0.38600 0.42800 0.62000 -0.46400
C 	C 	0.37500 0.37900 0.60800 0.37500
C 	C 	0.39000 0.35600 0.64400 -0.33200
C 	C 	0.42200 0.39200 0.69800 0.21900
C 	C 	0.43800 0.44800 0.71400 -0.27200
C 	C 	0.41500 0.46700 0.67400 0.24800
C 	C 	0.44500 0.37000 0.73600 -0.12200
C 	C 	0.40100 0.34500 0.74200 0.06100
C 	C 	0.41700 0.33300 0.78400 -0.16600
C 	C 	0.47800 0.34600 0.82000 0.16400
C 	C 	0.52200 0.37100 0.81400 -0.17700
C 	C 	0.50600 0.38300 0.77200 0.06700
N 	N 	0.39100 0.49300 0.41600 -0.24200
N 	N 	0.36400 0.50900 0.44800 -0.19800
N 	N 	0.37900 0.48500 0.48000 -0.24300
N 	N 	0.25400 0.48500 0.47800 -0.23800
N 	N 	0.23900 0.51400 0.45000 -0.21200
N 	N 	0.36500 0.66800 0.56400 -0.23700
N 	N 	0.34800 0.61300 0.53600 -0.20500
N 	N 	0.36100 0.58300 0.56400 -0.24800
N 	N 	0.26300 0.68600 0.47600 -0.24400
N 	N 	0.24300 0.63300 0.45000 -0.19500
N 	N 	0.28400 0.50900 0.33400 -0.25000
N 	N 	0.25300 0.52400 0.36000 -0.17400
N 	N 	0.19600 0.51400 0.33800 -0.23300
N 	N 	0.36600 0.62300 0.44600 -0.20700
N 	N 	0.39500 0.60300 0.41400 -0.25500
N 	N 	0.18200 0.61700 0.42000 -0.25400
N 	N 	0.38800 0.67700 0.47800 -0.23900
N 	N 	0.18000 0.49900 0.42000 -0.24100
O 	O 	0.41100 0.47100 0.31600 -0.53000
O 	O 	0.38600 0.53600 0.29800 -0.48100
O 	O 	0.38000 0.78700 0.58800 -0.94000
O 	O 	0.36100 0.80700 0.53400 -0.60700
O 	O 	0.34400 0.42000 0.53800 -0.57200
O 	O 	0.37600 0.49500 0.59400 -0.75800
O 	O 	0.06100 0.46500 0.31400 -0.37100
O 	O 	0.06300 0.55100 0.31000 -0.36800
O 	O 	0.52900 0.36600 0.99600 -0.25300
O 	O 	0.47000 0.31100 0.85000 -0.22600
O 	O 	0.62000 0.36500 0.99200 -0.25800
O 	O 	0.52200 0.21500 0.85600 -0.49700
Zn	Zn	0.14720 0.06910 0.44860 1.13700
Zn	Zn	0.18790 0.00180 0.53060 1.20500
Zn	Zn	0.98880 0.02290 0.36280 1.18700
Zn	Zn	0.17690 0.21650 0.52840 1.21100
Zn	Zn	0.23620 0.03600 0.37280 1.17100
H 	H 	0.31630 0.14650 0.38380 0.06300
H 	H 	0.34200 0.24170 0.41120 0.03700
H 	H 	0.32150 0.31180 0.47320 0.05800
H 	H 	0.25670 0.29150 0.50360 0.07800
H 	H 	0.90850 0.93310 0.37800 0.07800
H 	H 	0.89800 0.86970 0.41040 0.03700
H 	H 	0.97620 0.86620 0.47840 0.03200
H 	H 	0.07620 0.91150 0.51420 0.06100
H 	H 	0.27010 0.90170 0.50180 0.07700
H 	H 	0.32910 0.85530 0.46280 0.06600
H 	H 	0.35250 0.86990 0.40880 0.02300
H 	H 	0.31720 0.93180 0.38040 0.07700
H 	H 	0.89630 0.11840 0.37640 0.07600
H 	H 	0.05320 0.28150 0.51420 0.06400
H 	H 	0.94470 0.27940 0.48500 0.03900
H 	H 	0.87320 0.20110 0.41460 0.02800
H 	H 	0.24890 0.26340 0.66320 0.10000
H 	H 	0.27830 0.25280 0.73880 0.02800
H 	H 	0.27520 0.17530 0.74100 0.04000
H 	H 	0.25600 0.08780 0.66340 0.08900
H 	H 	0.14630 0.96910 0.24140 0.07700
H 	H 	0.06340 0.91710 0.15980 0.03900
H 	H 	0.96610 0.91000 0.15460 0.03600
H 	H 	0.95160 0.95490 0.23080 0.06100
H 	H 	0.27580 0.89900 0.24260 0.06400
H 	H 	0.32280 0.87300 0.18320 0.05100
H 	H 	0.28510 0.00950 0.16740 0.05100
H 	H 	0.28200 0.04390 0.25140 0.06700
H 	H 	0.30250 0.82540 0.09120 0.01500
H 	H 	0.32840 0.79450 0.02060 0.10400
H 	H 	0.36660 0.95230 0.04860 0.10700
H 	H 	0.34070 0.98320 0.11900 0.01900
H 	H 	0.34560 0.78080 0.96780 -0.02900
H 	H 	0.31300 0.82010 0.94540 0.00300
H 	H 	0.83260 0.01520 0.21160 0.02800
H 	H 	0.73560 0.97570 0.13760 0.07700
H 	H 	0.70620 0.87480 0.19620 0.08900
H 	H 	0.80420 0.90570 0.25580 0.01200
H 	H 	0.63570 0.97440 0.10960 0.01700
H 	H 	0.53880 0.94500 0.04020 0.11000
H 	H 	0.53330 0.79180 0.02920 0.10400
H 	H 	0.63020 0.82120 0.09860 0.00800
H 	H 	0.46640 0.81350 0.93500 -0.01600
H 	H 	0.46240 0.79260 0.97360 -0.02500
H 	H 	0.40010 0.86380 0.91880 0.01700
H 	H 	0.33170 0.83520 0.88440 0.00800
H 	H 	0.21070 0.37060 0.67440 -0.30000
H 	H 	0.28700 0.45720 0.74340 0.24400
H 	H 	0.23220 0.50410 0.63340 0.25900
H 	H 	0.20220 0.40820 0.57060 -0.22200
H 	H 	0.20370 0.55480 0.74940 -0.06500
H 	H 	0.23450 0.64740 0.81400 0.18000
H 	H 	0.39630 0.65260 0.80920 0.17500
H 	H 	0.36560 0.56000 0.74480 -0.06500
H 	H 	0.40410 0.71540 0.89700 -0.13700
H 	H 	0.39760 0.74090 0.85840 -0.11700
H 	H 	0.21680 0.85470 0.57180 -0.08400
H 	H 	0.25380 0.81780 0.63180 0.14400
H 	H 	0.28670 0.97230 0.75000 0.13100
H 	H 	0.26370 0.00530 0.68320 -0.03600
H 	H 	0.35770 0.83640 0.71780 0.01000
H 	H 	0.40020 0.81610 0.78820 0.10700
H 	H 	0.27510 0.87970 0.83820 0.09500
H 	H 	0.23260 0.90000 0.76760 0.01100
C 	C 	0.24800 0.20700 0.46400 0.08100
C 	C 	0.26300 0.16500 0.43000 0.06000
C 	C 	0.30400 0.17400 0.40600 -0.11700
C 	C 	0.32000 0.23100 0.42600 -0.01500
C 	C 	0.30500 0.27500 0.46200 -0.02000
C 	C 	0.26800 0.26300 0.48000 -0.11700
C 	C 	0.04900 0.95300 0.46800 0.05900
C 	C 	0.00400 0.95900 0.42800 0.07800
C 	C 	0.94100 0.92900 0.40400 -0.12400
C 	C 	0.93500 0.89200 0.42400 -0.02500
C 	C 	0.98500 0.88900 0.46600 -0.02700
C 	C 	0.04400 0.91600 0.48800 -0.10900
C 	C 	0.25800 0.94900 0.46200 0.05900
C 	C 	0.27900 0.90900 0.47800 -0.09600
C 	C 	0.31300 0.88300 0.45400 -0.04300
C 	C 	0.32700 0.89100 0.42200 0.01800
C 	C 	0.30700 0.92700 0.40400 -0.14200
C 	C 	0.26700 0.96000 0.42600 0.07100
C 	C 	0.92600 0.14900 0.40400 -0.12500
C 	C 	0.99300 0.14500 0.42800 0.07500
C 	C 	0.03900 0.19600 0.46800 0.06000
C 	C 	0.02400 0.24900 0.49000 -0.10400
C 	C 	0.95800 0.24700 0.47000 -0.04000
C 	C 	0.91400 0.19800 0.42800 0.00600
C 	C 	0.22600 0.12900 0.61600 0.06000
C 	C 	0.22300 0.17600 0.61600 0.07400
C 	C 	0.24600 0.22900 0.66200 -0.13500
C 	C 	0.26400 0.22100 0.70600 0.00600
C 	C 	0.26500 0.17400 0.70800 -0.03400
C 	C 	0.25000 0.12100 0.66200 -0.10600
C 	C 	0.04000 0.98900 0.28200 0.05000
C 	C 	0.09900 0.99300 0.28600 0.07600
C 	C 	0.10800 0.96600 0.24000 -0.11400
C 	C 	0.05700 0.93500 0.19000 -0.01700
C 	C 	1.00000 0.93100 0.18800 -0.01600
C 	C 	0.99000 0.95800 0.23200 -0.10300
C 	C 	0.25800 0.00500 0.30200 0.17500
C 	C 	0.27200 0.97600 0.25400 0.00300
C 	C 	0.28300 0.92400 0.23200 -0.04400
C 	C 	0.30600 0.90500 0.19000 -0.06600
C 	C 	0.30200 0.93200 0.16000 0.03500
C 	C 	0.28900 0.98600 0.18400 -0.05900
C 	C 	0.28100 0.00600 0.23400 -0.04800
C 	C 	0.31500 0.85100 0.08200 0.04900
C 	C 	0.33100 0.83200 0.04000 -0.20400
C 	C 	0.35000 0.87000 0.02800 0.22000
C 	C 	0.35400 0.92700 0.05800 -0.16900
C 	C 	0.33900 0.94500 0.10000 0.03600
C 	C 	0.31900 0.90700 0.11200 -0.05300
C 	C 	0.35300 0.81200 0.96200 0.19200
C 	C 	0.89100 0.99700 0.29400 0.49500
C 	C 	0.82400 0.96800 0.24600 -0.15000
C 	C 	0.80600 0.98700 0.20800 0.05500
C 	C 	0.74800 0.96400 0.16400 -0.13600
C 	C 	0.70900 0.92000 0.16000 0.09200
C 	C 	0.73100 0.90200 0.19800 -0.17500
C 	C 	0.78900 0.92400 0.23600 0.10200
C 	C 	0.64300 0.90100 0.11200 -0.07300
C 	C 	0.61500 0.93800 0.09400 0.04100
C 	C 	0.55700 0.92000 0.05200 -0.17100
C 	C 	0.52700 0.86500 0.02800 0.21100
C 	C 	0.55400 0.82800 0.04600 -0.20300
C 	C 	0.61100 0.84600 0.08600 0.06200
C 	C 	0.44700 0.81700 0.95800 0.19000
C 	C 	0.37900 0.79400 0.92200 -0.22500
C 	C 	0.37300 0.82800 0.89400 0.15000
C 	C 	0.20000 0.31800 0.58000 1.16800
C 	C 	0.22100 0.38000 0.62000 -0.92000
C 	C 	0.22700 0.39000 0.66600 0.80300
C 	C 	0.26200 0.45000 0.70800 -0.63000
C 	C 	0.25900 0.49100 0.69800 0.55100
C 	C 	0.23600 0.47700 0.64400 -0.64400
C 	C 	0.21700 0.41800 0.60600 0.74600
C 	C 	0.28100 0.54800 0.74000 -0.36600
C 	C 	0.24300 0.57400 0.76200 0.27600
C 	C 	0.26100 0.63000 0.80000 -0.38900
C 	C 	0.31800 0.65900 0.81800 0.43200
C 	C 	0.35800 0.63300 0.79800 -0.39400
C 	C 	0.33900 0.57800 0.75800 0.27500
C 	C 	0.38000 0.73600 0.88000 0.57800
C 	C 	0.21400 0.95300 0.58200 0.86500
C 	C 	0.23400 0.92800 0.62000 -0.46400
C 	C 	0.23300 0.87900 0.60800 0.37500
C 	C 	0.25400 0.85600 0.64400 -0.33200
C 	C 	0.27600 0.89200 0.69800 0.21900
C 	C 	0.27600 0.94800 0.71400 -0.27300
C 	C 	0.25900 0.96700 0.67400 0.24900
C 	C 	0.29100 0.87000 0.73600 -0.12200
C 	C 	0.34100 0.84500 0.74200 0.06100
C 	C 	0.36700 0.83300 0.78400 -0.16600
C 	C 	0.34200 0.84600 0.82000 0.16400
C 	C 	0.29200 0.87100 0.81400 -0.17700
C 	C 	0.26600 0.88300 0.77200 0.06700
N 	N 	0.02500 0.99300 0.41600 -0.24200
N 	N 	0.08400 0.00900 0.44800 -0.19800
N 	N 	0.10100 0.98500 0.48000 -0.24300
N 	N 	0.22400 0.98500 0.47800 -0.23800
N 	N 	0.21100 0.01400 0.45000 -0.21200
N 	N 	0.19900 0.16800 0.56400 -0.23700
N 	N 	0.18800 0.11300 0.53600 -0.20500
N 	N 	0.20300 0.08300 0.56400 -0.24800
N 	N 	0.21300 0.18600 0.47600 -0.24400
N 	N 	0.20700 0.13300 0.45000 -0.19500
N 	N 	0.05000 0.00900 0.33400 -0.25000
N 	N 	0.10700 0.02400 0.36000 -0.17400
N 	N 	0.14200 0.01400 0.33800 -0.23300
N 	N 	0.08000 0.12300 0.44600 -0.20700
N 	N 	0.01900 0.10300 0.41400 -0.25500
N 	N 	0.23800 0.11700 0.42000 -0.25400
N 	N 	0.09000 0.17700 0.47800 -0.23900
N 	N 	0.24000 0.99900 0.42000 -0.24100
O 	O 	0.90500 0.97100 0.31600 -0.53000
O 	O 	0.91200 0.03600 0.29800 -0.48000
O 	O 	0.20800 0.28700 0.58800 -0.94000
O 	O 	0.17300 0.30700 0.53400 -0.60700
O 	O 	0.19400 0.92000 0.53800 -0.57200
O 	O 	0.21800 0.99500 0.59400 -0.75800
O 	O 	0.25300 0.96500 0.31400 -0.37100
O 	O 	0.24700 0.05100 0.31000 -0.36800
O 	O 	0.46700 0.86600 0.99600 -0.25300
O 	O 	0.38000 0.81100 0.85000 -0.22600
O 	O 	0.37200 0.86500 0.99200 -0.25800
O 	O 	0.33400 0.71500 0.85600 -0.49700
Zn	Zn	0.69860 0.43090 0.55140 1.13700
Zn	Zn	0.65730 0.49820 0.46940 1.20500
Zn	Zn	0.62600 0.47710 0.63720 1.18700
Zn	Zn	0.64850 0.28350 0.47160 1.21100
Zn	Zn	0.86340 0.46400 0.62720 1.17100
H 	H 	0.93250 0.35350 0.61620 0.06300
H 	H 	0.93080 0.25830 0.58880 0.03700
H 	H 	0.84830 0.18820 0.52680 0.05800
H 	H 	0.75310 0.20850 0.49640 0.07800
H 	H 	0.53050 0.56690 0.62200 0.07800
H 	H 	0.48760 0.63030 0.58960 0.03700
H 	H 	0.49780 0.63380 0.52160 0.03200
H 	H 	0.56200 0.58850 0.48580 0.06200
H 	H 	0.76830 0.59830 0.49820 0.07700
H 	H 	0.86630 0.64470 0.53720 0.06600
H 	H 	0.94370 0.63010 0.59120 0.02300
H 	H 	0.93680 0.56820 0.61960 0.07700
H 	H 	0.51990 0.38160 0.62360 0.07500
H 	H 	0.53900 0.21850 0.48580 0.06400
H 	H 	0.45970 0.22060 0.51500 0.03900
H 	H 	0.45860 0.29890 0.58540 0.02800
H 	H 	0.58570 0.23660 0.33680 0.10000
H 	H 	0.53950 0.24720 0.26120 0.02800
H 	H 	0.53420 0.32470 0.25900 0.04000
H 	H 	0.59260 0.41220 0.33660 0.08900
H 	H 	0.90490 0.53090 0.75860 0.07600
H 	H 	0.90360 0.58290 0.84020 0.03900
H 	H 	0.81150 0.59000 0.84540 0.03600
H 	H 	0.72080 0.54510 0.76920 0.06100
H 	H 	0.03320 0.60100 0.75740 0.06300
H 	H 	0.13960 0.62700 0.81680 0.05100
H 	H 	0.11770 0.49050 0.83260 0.05200
H 	H 	0.03060 0.45610 0.74860 0.06600
H 	H 	0.21130 0.67460 0.90880 0.01500
H 	H 	0.30780 0.70550 0.97940 0.10400
H 	H 	0.31800 0.54770 0.95140 0.10700
H 	H 	0.22170 0.51680 0.88100 0.01900
H 	H 	0.37780 0.71920 0.03220 -0.02900
H 	H 	0.36760 0.67990 0.05460 0.00300
H 	H 	0.62100 0.48480 0.78840 0.02700
H 	H 	0.59800 0.52430 0.86240 0.07800
H 	H 	0.51000 0.62520 0.80380 0.09000
H 	H 	0.54840 0.59430 0.74420 0.01100
H 	H 	0.52610 0.52560 0.89040 0.01700
H 	H 	0.49860 0.55500 0.95980 0.11000
H 	H 	0.50410 0.70820 0.97080 0.10400
H 	H 	0.53160 0.67880 0.90140 0.00800
H 	H 	0.53140 0.68650 0.06500 -0.01600
H 	H 	0.48880 0.70740 0.02640 -0.02600
H 	H 	0.48130 0.63620 0.08120 0.01700
H 	H 	0.44730 0.66480 0.11560 0.00800
H 	H 	0.53630 0.12940 0.32560 -0.30000
H 	H 	0.54360 0.04280 0.25660 0.24400
H 	H 	0.59880 0.99590 0.36660 0.25900
H 	H 	0.63160 0.09180 0.42940 -0.22200
H 	H 	0.45430 0.94520 0.25060 -0.06500
H 	H 	0.42050 0.85260 0.18600 0.18100
H 	H 	0.58710 0.84740 0.19080 0.17500
H 	H 	0.62080 0.94000 0.25520 -0.06500
H 	H 	0.50710 0.78460 0.10300 -0.13700
H 	H 	0.53920 0.75910 0.14160 -0.11700
H 	H 	0.64500 0.64530 0.42820 -0.08300
H 	H 	0.62200 0.68220 0.36820 0.14400
H 	H 	0.53670 0.52770 0.25000 0.13100
H 	H 	0.58050 0.49470 0.31680 -0.03600
H 	H 	0.63990 0.66360 0.28220 0.01000
H 	H 	0.61200 0.68390 0.21180 0.10700
H 	H 	0.43690 0.62030 0.16180 0.09500
H 	H 	0.46500 0.60000 0.23240 0.01100
C 	C 	0.78400 0.29300 0.53600 0.08100
C 	C 	0.83300 0.33500 0.57000 0.06000
C 	C 	0.89800 0.32600 0.59400 -0.11700
C 	C 	0.89400 0.26900 0.57400 -0.01500
C 	C 	0.84300 0.22500 0.53800 -0.02000
C 	C 	0.78800 0.23700 0.52000 -0.11700
C 	C 	0.58100 0.54700 0.53200 0.06000
C 	C 	0.57600 0.54100 0.57200 0.07600
C 	C 	0.53700 0.57100 0.59600 -0.12200
C 	C 	0.51100 0.60800 0.57600 -0.02700
C 	C 	0.51900 0.61100 0.53400 -0.02500
C 	C 	0.55600 0.58400 0.51200 -0.11100
C 	C 	0.79600 0.55100 0.53800 0.05900
C 	C 	0.80100 0.59100 0.52200 -0.09600
C 	C 	0.85900 0.61700 0.54600 -0.04300
C 	C 	0.90500 0.60900 0.57800 0.01800
C 	C 	0.90300 0.57300 0.59600 -0.14200
C 	C 	0.84100 0.54000 0.57400 0.07100
C 	C 	0.52200 0.35100 0.59600 -0.12500
C 	C 	0.56500 0.35500 0.57200 0.07400
C 	C 	0.57100 0.30400 0.53200 0.06000
C 	C 	0.53400 0.25100 0.51000 -0.10400
C 	C 	0.48800 0.25300 0.53000 -0.04000
C 	C 	0.48600 0.30200 0.57200 0.00600
C 	C 	0.61000 0.37100 0.38400 0.06000
C 	C 	0.60700 0.32400 0.38400 0.07400
C 	C 	0.58400 0.27100 0.33800 -0.13500
C 	C 	0.55800 0.27900 0.29400 0.00600
C 	C 	0.55700 0.32600 0.29200 -0.03400
C 	C 	0.58800 0.37900 0.33800 -0.10600
C 	C 	0.75800 0.51100 0.71800 0.04900
C 	C 	0.81300 0.50700 0.71400 0.07500
C 	C 	0.86800 0.53400 0.76000 -0.11400
C 	C 	0.86700 0.56500 0.81000 -0.01800
C 	C 	0.81200 0.56900 0.81200 -0.01500
C 	C 	0.75800 0.54200 0.76800 -0.10200
C 	C 	0.95600 0.49500 0.69800 0.17600
C 	C 	0.01800 0.52400 0.74600 0.00100
C 	C 	0.05100 0.57600 0.76800 -0.04300
C 	C 	0.11600 0.59500 0.81000 -0.06700
C 	C 	0.14200 0.56800 0.84000 0.03600
C 	C 	0.10500 0.51400 0.81600 -0.06100
C 	C 	0.04700 0.49400 0.76600 -0.04600
C 	C 	0.23300 0.64900 0.91800 0.04900
C 	C 	0.29100 0.66800 0.96000 -0.20400
C 	C 	0.32200 0.63000 0.97200 0.21900
C 	C 	0.29600 0.57300 0.94200 -0.16900
C 	C 	0.23900 0.55500 0.90000 0.03600
C 	C 	0.20700 0.59300 0.88800 -0.05300
C 	C 	0.39100 0.68800 0.03800 0.19200
C 	C 	0.59700 0.50300 0.70600 0.49600
C 	C 	0.57800 0.53200 0.75400 -0.15100
C 	C 	0.59800 0.51300 0.79200 0.05700
C 	C 	0.58400 0.53600 0.83600 -0.13700
C 	C 	0.54900 0.58000 0.84000 0.09300
C 	C 	0.53300 0.59800 0.80200 -0.17500
C 	C 	0.55300 0.57600 0.76400 0.10300
C 	C 	0.53100 0.59900 0.88800 -0.07300
C 	C 	0.52100 0.56200 0.90600 0.04100
C 	C 	0.50500 0.58000 0.94800 -0.17100
C 	C 	0.49900 0.63500 0.97200 0.21100
C 	C 	0.50800 0.67200 0.95400 -0.20400
C 	C 	0.52500 0.65400 0.91400 0.06200
C 	C 	0.48900 0.68300 0.04200 0.19000
C 	C 	0.45700 0.70600 0.07800 -0.22500
C 	C 	0.47900 0.67200 0.10600 0.15000
C 	C 	0.62000 0.18200 0.42000 1.16800
C 	C 	0.60100 0.12000 0.38000 -0.92000
C 	C 	0.56100 0.11000 0.33400 0.80300
C 	C 	0.55400 0.05000 0.29200 -0.63000
C 	C 	0.56100 0.00900 0.30200 0.55100
C 	C 	0.59200 0.02300 0.35600 -0.64400
C 	C 	0.61100 0.08200 0.39400 0.74500
C 	C 	0.54100 0.95200 0.26000 -0.36600
C 	C 	0.48100 0.92600 0.23800 0.27600
C 	C 	0.46100 0.87000 0.20000 -0.38900
C 	C 	0.50000 0.84100 0.18200 0.43200
C 	C 	0.56000 0.86700 0.20200 -0.39400
C 	C 	0.58100 0.92200 0.24200 0.27500
C 	C 	0.50000 0.76400 0.12000 0.57800
C 	C 	0.63200 0.54700 0.41800 0.86500
C 	C 	0.61400 0.57200 0.38000 -0.46400
C 	C 	0.62500 0.62100 0.39200 0.37500
C 	C 	0.61000 0.64400 0.35600 -0.33200
C 	C 	0.57800 0.60800 0.30200 0.21900
C 	C 	0.56200 0.55200 0.28600 -0.27200
C 	C 	0.58500 0.53300 0.32600 0.24800
C 	C 	0.55500 0.63000 0.26400 -0.12200
C 	C 	0.59900 0.65500 0.25800 0.06100
C 	C 	0.58300 0.66700 0.21600 -0.16600
C 	C 	0.52200 0.65400 0.18000 0.16400
C 	C 	0.47800 0.62900 0.18600 -0.17700
C 	C 	0.49400 0.61700 0.22800 0.06700
N 	N 	0.60900 0.50700 0.58400 -0.24200
N 	N 	0.63600 0.49100 0.55200 -0.19800
N 	N 	0.62100 0.51500 0.52000 -0.24300
N 	N 	0.74600 0.51500 0.52200 -0.23800
N 	N 	0.76100 0.48600 0.55000 -0.21200
N 	N 	0.63500 0.33200 0.43600 -0.23700
N 	N 	0.65200 0.38700 0.46400 -0.20500
N 	N 	0.63900 0.41700 0.43600 -0.24800
N 	N 	0.73700 0.31400 0.52400 -0.24400
N 	N 	0.75700 0.36700 0.55000 -0.19500
N 	N 	0.71600 0.49100 0.66600 -0.25000
N 	N 	0.74700 0.47600 0.64000 -0.17400
N 	N 	0.80400 0.48600 0.66200 -0.23300
N 	N 	0.63400 0.37700 0.55400 -0.20700
N 	N 	0.60500 0.39700 0.58600 -0.25500
N 	N 	0.81800 0.38300 0.58000 -0.25400
N 	N 	0.61200 0.32300 0.52200 -0.23900
N 	N 	0.82000 0.50100 0.58000 -0.24100
O 	O 	0.58900 0.52900 0.68400 -0.53000
O 	O 	0.61400 0.46400 0.70200 -0.48100
O 	O 	0.62000 0.21300 0.41200 -0.94000
O 	O 	0.63900 0.19300 0.46600 -0.60700
O 	O 	0.65600 0.58000 0.46200 -0.57200
O 	O 	0.62400 0.50500 0.40600 -0.75800
O 	O 	0.93900 0.53500 0.68600 -0.37100
O 	O 	0.93700 0.44900 0.69000 -0.36800
O 	O 	0.47100 0.63400 0.00400 -0.25300
O 	O 	0.53000 0.68900 0.15000 -0.22600
O 	O 	0.38000 0.63500 0.00800 -0.25800
O 	O 	0.47800 0.78500 0.14400 -0.49700
