data_crystal

_cell_length_a 32.76800
_cell_length_b 39.31200
_cell_length_c 25.68000
_cell_angle_alpha 90.00000
_cell_angle_beta  95.79000
_cell_angle_gamma 90.00000

_symmetry_space_group_name_	'P 1'
_symmetry_space_group_name_H-M	'P 1'

loop_
_symmetry_equiv_pos_as_xyz
  x,y,z

loop_
_atom_site_label
_atom_site_type_symbol
_atom_site_fract_x
_atom_site_fract_y
_atom_site_fract_z
_atom_site_charge
Zn	Zn	0.32711 0.85100 0.67217 1.22000
Zn	Zn	0.42335 0.84995 0.68175 1.21600
Zn	Zn	0.37194 0.89338 0.59459 1.21900
Zn	Zn	0.37447 0.81224 0.58439 1.19200
Cl	Cl	0.33800 0.74320 0.98760 -0.19700
Cl	Cl	0.37800 0.74230 0.99950 -0.17400
Cl	Cl	0.19410 0.86550 0.24440 -0.31100
Cl	Cl	0.61710 0.98230 0.46670 -0.14000
Cl	Cl	0.13620 0.47430 0.48040 -0.18000
Cl	Cl	0.83860 0.08390 0.71360 -0.07600
Cl	Cl	0.33890 0.58740 0.68810 -0.19500
Cl	Cl	0.15420 0.03540 0.43420 -0.27900
Cl	Cl	0.16870 0.23850 0.64680 -0.21300
Cl	Cl	0.16320 0.23430 0.70300 -0.16900
O 	O 	0.37480 0.85100 0.63430 -0.95300
O 	O 	0.34410 0.86980 0.74380 -0.51900
O 	O 	0.40910 0.85980 0.75430 -0.51100
O 	O 	0.36580 0.93240 0.10300 -0.19200
O 	O 	0.35980 0.83230 0.51320 -0.50100
O 	O 	0.36830 0.88920 0.52080 -0.47500
O 	O 	0.42990 0.87880 0.17190 -0.18300
O 	O 	0.96060 0.38860 0.66790 -0.51500
O 	O 	0.92040 0.42150 0.61930 -0.50300
O 	O 	0.10690 0.59230 0.73090 -0.19100
O 	O 	0.30340 0.80750 0.67420 -0.49600
O 	O 	0.32110 0.78990 0.59670 -0.47400
O 	O 	0.10210 0.63990 0.63930 -0.18300
O 	O 	0.28610 0.88510 0.64990 -0.47400
O 	O 	0.32580 0.92020 0.60830 -0.47200
O 	O 	0.13090 0.06290 0.74420 -0.16800
O 	O 	0.95480 0.31020 0.69260 -0.47800
O 	O 	0.90520 0.28020 0.64200 -0.45800
O 	O 	0.03130 0.06900 0.64960 -0.18200
C 	C 	0.36150 0.87130 0.10180 -0.00400
C 	C 	0.36460 0.90180 0.07530 0.11800
C 	C 	0.36640 0.90180 0.02140 -0.02100
C 	C 	0.36510 0.87120 0.99410 0.00600
C 	C 	0.36200 0.84070 0.02070 0.01900
C 	C 	0.36020 0.84070 0.07450 -0.00400
C 	C 	0.35710 0.81010 0.10110 0.04800
C 	C 	0.35580 0.77960 0.07380 0.00600
C 	C 	0.35760 0.77950 0.01990 0.18800
C 	C 	0.36070 0.81010 0.99340 -0.02300
C 	C 	0.38040 0.96390 0.08320 0.09600
C 	C 	0.40800 0.98650 0.12300 0.01000
C 	C 	0.37010 0.87170 0.93350 0.03200
C 	C 	0.40170 0.85870 0.91360 -0.03100
C 	C 	0.40680 0.85880 0.86540 0.09600
C 	C 	0.37760 0.87020 0.82700 -0.17200
C 	C 	0.34510 0.88840 0.85060 0.07000
C 	C 	0.34060 0.88700 0.90250 -0.02500
C 	C 	0.37670 0.86710 0.77050 0.49100
C 	C 	0.35590 0.87400 0.16180 -0.01100
C 	C 	0.39090 0.88180 0.19170 0.11600
C 	C 	0.38780 0.87810 0.24900 -0.01200
C 	C 	0.35060 0.87400 0.26790 0.02200
C 	C 	0.27810 0.87100 0.25800 -0.00100
C 	C 	0.24270 0.87040 0.22420 0.14600
C 	C 	0.24720 0.86980 0.16190 0.00800
C 	C 	0.28180 0.87330 0.14510 0.02300
C 	C 	0.31940 0.87500 0.18030 0.01700
C 	C 	0.31930 0.87260 0.23610 0.01300
C 	C 	0.46160 0.89460 0.20800 0.09200
C 	C 	0.49370 0.90810 0.17400 0.00900
C 	C 	0.35320 0.86930 0.32550 0.01000
C 	C 	0.35720 0.89780 0.35960 -0.00100
C 	C 	0.36060 0.89730 0.41460 0.08100
C 	C 	0.35520 0.86560 0.43810 -0.14300
C 	C 	0.35060 0.83660 0.40540 0.06900
C 	C 	0.34700 0.83780 0.35030 0.01800
C 	C 	0.36190 0.86170 0.49350 0.39400
C 	C 	0.13010 0.57610 0.65100 0.00300
C 	C 	0.10460 0.56850 0.68940 0.12200
C 	C 	0.07510 0.54220 0.68760 0.00200
C 	C 	0.07410 0.51930 0.64470 0.01400
C 	C 	0.10140 0.50150 0.56230 -0.02400
C 	C 	0.12610 0.50520 0.52460 0.16200
C 	C 	0.15280 0.53390 0.52500 0.00300
C 	C 	0.15850 0.55450 0.56760 0.04800
C 	C 	0.12730 0.55230 0.60970 0.00400
C 	C 	0.10220 0.52290 0.60660 0.02900
C 	C 	0.07640 0.59230 0.76630 0.10400
C 	C 	0.07240 0.62580 0.79680 -0.00900
C 	C 	0.04320 0.49250 0.64390 0.04100
C 	C 	0.05230 0.46190 0.65370 -0.02000
C 	C 	0.02010 0.43530 0.65340 0.12200
C 	C 	0.98440 0.44250 0.64490 -0.24500
C 	C 	0.97260 0.47160 0.63160 0.13700
C 	C 	0.00640 0.49960 0.63350 -0.02900
C 	C 	0.95290 0.41640 0.64640 0.48800
C 	C 	0.16140 0.60220 0.65740 -0.00200
C 	C 	0.14560 0.63570 0.64740 0.11800
C 	C 	0.17180 0.66520 0.64760 -0.01400
C 	C 	0.21180 0.66190 0.65790 0.01300
C 	C 	0.26910 0.62350 0.67640 -0.00500
C 	C 	0.28670 0.58990 0.68750 0.15400
C 	C 	0.26180 0.56350 0.68870 -0.00900
C 	C 	0.21860 0.56690 0.67780 0.03300
C 	C 	0.20150 0.59870 0.66320 0.00500
C 	C 	0.23100 0.62650 0.66780 0.01200
C 	C 	0.08310 0.67220 0.64260 0.09300
C 	C 	0.03990 0.66460 0.65950 0.01100
C 	C 	0.23790 0.69200 0.65250 0.02200
C 	C 	0.25740 0.69890 0.60740 -0.00100
C 	C 	0.27800 0.73000 0.60550 0.07200
C 	C 	0.28180 0.75470 0.64520 -0.15600
C 	C 	0.26200 0.74670 0.68970 0.06100
C 	C 	0.23980 0.71630 0.69190 -0.02900
C 	C 	0.30330 0.78450 0.63830 0.40600
C 	C 	0.11620 0.07320 0.64630 -0.01000
C 	C 	0.13510 0.05620 0.68970 0.10400
C 	C 	0.16210 0.02960 0.68310 -0.01600
C 	C 	0.17020 0.02000 0.63310 0.00800
C 	C 	0.15130 0.03700 0.58970 0.00900
C 	C 	0.12430 0.06360 0.59630 0.00300
C 	C 	0.10550 0.08060 0.55290 0.01400
C 	C 	0.11350 0.07100 0.50280 -0.01000
C 	C 	0.14050 0.04440 0.49620 0.14900
C 	C 	0.15940 0.02740 0.53960 -0.01000
C 	C 	0.11000 0.03300 0.76300 0.05000
H 	H 	0.12080 0.03090 0.79910 0.06400
C 	C 	0.10900 0.99700 0.74100 0.01000
C 	C 	0.19980 0.99230 0.62880 0.01800
C 	C 	0.23830 0.00090 0.61240 -0.00400
C 	C 	0.26660 0.97370 0.61430 0.08800
C 	C 	0.26100 0.94010 0.63020 -0.14400
C 	C 	0.22340 0.93400 0.64500 0.07300
C 	C 	0.19320 0.95920 0.64650 -0.01900
C 	C 	0.29220 0.91440 0.62850 0.39000
C 	C 	0.09060 0.10510 0.65860 -0.00800
C 	C 	0.04880 0.10180 0.66260 0.10900
C 	C 	0.02500 0.13060 0.66820 -0.00800
C 	C 	0.04300 0.16270 0.66980 0.01200
C 	C 	0.08480 0.16590 0.66580 0.01300
C 	C 	0.10860 0.13720 0.66020 0.00200
C 	C 	0.15040 0.14040 0.65620 0.02800
C 	C 	0.16840 0.17250 0.65780 0.00700
C 	C 	0.14460 0.20130 0.66350 0.19500
C 	C 	0.10280 0.19800 0.66750 -0.01600
C 	C 	0.01400 0.06180 0.59700 0.08700
C 	C 	0.96700 0.06700 0.59100 0.02900
C 	C 	0.01370 0.19350 0.65700 0.01100
C 	C 	0.98620 0.20240 0.61440 -0.00600
C 	C 	0.96280 0.23180 0.61610 0.02800
C 	C 	0.96700 0.25240 0.66030 -0.09600
C 	C 	0.99460 0.24350 0.70290 0.05800
C 	C 	0.01790 0.21410 0.70120 0.00800
C 	C 	0.94070 0.28390 0.67040 0.33400
Zn	Zn	0.82711 0.35100 0.67217 1.21900
Zn	Zn	0.92335 0.34995 0.68175 1.21500
Zn	Zn	0.87194 0.39338 0.59459 1.21800
Zn	Zn	0.87447 0.31224 0.58439 1.19100
Cl	Cl	0.83800 0.24320 0.98760 -0.19800
Cl	Cl	0.87800 0.24230 0.99950 -0.17500
Cl	Cl	0.69410 0.36550 0.24440 -0.31200
Cl	Cl	0.11710 0.48230 0.46670 -0.14100
Cl	Cl	0.63620 0.97430 0.48040 -0.18000
Cl	Cl	0.33860 0.58390 0.71360 -0.07700
Cl	Cl	0.83890 0.08740 0.68810 -0.19600
Cl	Cl	0.65420 0.53540 0.43420 -0.28000
Cl	Cl	0.66870 0.73850 0.64680 -0.21400
Cl	Cl	0.66320 0.73430 0.70300 -0.17000
O 	O 	0.87480 0.35100 0.63430 -0.95400
O 	O 	0.84410 0.36980 0.74380 -0.52000
O 	O 	0.90910 0.35980 0.75430 -0.51200
O 	O 	0.86580 0.43240 0.10300 -0.19300
O 	O 	0.85980 0.33230 0.51320 -0.50200
O 	O 	0.86830 0.38920 0.52080 -0.47600
O 	O 	0.92990 0.37880 0.17190 -0.18400
O 	O 	0.46060 0.88860 0.66790 -0.51600
O 	O 	0.42040 0.92150 0.61930 -0.50400
O 	O 	0.60690 0.09230 0.73090 -0.19200
O 	O 	0.80340 0.30750 0.67420 -0.49700
O 	O 	0.82110 0.28990 0.59670 -0.47500
O 	O 	0.60210 0.13990 0.63930 -0.18400
O 	O 	0.78610 0.38510 0.64990 -0.47500
O 	O 	0.82580 0.42020 0.60830 -0.47300
O 	O 	0.63090 0.56290 0.74420 -0.16900
O 	O 	0.45480 0.81020 0.69260 -0.47900
O 	O 	0.40520 0.78020 0.64200 -0.45900
O 	O 	0.53130 0.56900 0.64960 -0.18200
C 	C 	0.86150 0.37130 0.10180 -0.00400
C 	C 	0.86460 0.40180 0.07530 0.11800
C 	C 	0.86640 0.40180 0.02140 -0.02200
C 	C 	0.86510 0.37120 0.99410 0.00600
C 	C 	0.86200 0.34070 0.02070 0.01900
C 	C 	0.86020 0.34070 0.07450 -0.00300
C 	C 	0.85710 0.31010 0.10110 0.04800
C 	C 	0.85580 0.27960 0.07380 0.00600
C 	C 	0.85760 0.27950 0.01990 0.18700
C 	C 	0.86070 0.31010 0.99340 -0.02300
C 	C 	0.88040 0.46390 0.08320 0.09600
C 	C 	0.90800 0.48650 0.12300 0.01000
C 	C 	0.87010 0.37170 0.93350 0.03200
C 	C 	0.90170 0.35870 0.91360 -0.03100
C 	C 	0.90680 0.35880 0.86540 0.09600
C 	C 	0.87760 0.37020 0.82700 -0.17200
C 	C 	0.84510 0.38840 0.85060 0.07000
C 	C 	0.84060 0.38700 0.90250 -0.02500
C 	C 	0.87670 0.36710 0.77050 0.49100
C 	C 	0.85590 0.37400 0.16180 -0.01100
C 	C 	0.89090 0.38180 0.19170 0.11600
C 	C 	0.88780 0.37810 0.24900 -0.01200
C 	C 	0.85060 0.37400 0.26790 0.02200
C 	C 	0.77810 0.37100 0.25800 -0.00100
C 	C 	0.74270 0.37040 0.22420 0.14600
C 	C 	0.74720 0.36980 0.16190 0.00800
C 	C 	0.78180 0.37330 0.14510 0.02300
C 	C 	0.81940 0.37500 0.18030 0.01700
C 	C 	0.81930 0.37260 0.23610 0.01300
C 	C 	0.96160 0.39460 0.20800 0.09200
C 	C 	0.99370 0.40810 0.17400 0.00900
C 	C 	0.85320 0.36930 0.32550 0.01000
C 	C 	0.85720 0.39780 0.35960 -0.00100
C 	C 	0.86060 0.39730 0.41460 0.08100
C 	C 	0.85520 0.36560 0.43810 -0.14300
C 	C 	0.85060 0.33660 0.40540 0.06900
C 	C 	0.84700 0.33780 0.35030 0.01800
C 	C 	0.86190 0.36170 0.49350 0.39400
C 	C 	0.63010 0.07610 0.65100 0.00300
C 	C 	0.60460 0.06850 0.68940 0.12200
C 	C 	0.57510 0.04220 0.68760 0.00200
C 	C 	0.57410 0.01930 0.64470 0.01300
C 	C 	0.60140 0.00150 0.56230 -0.02500
C 	C 	0.62610 0.00520 0.52460 0.16200
C 	C 	0.65280 0.03390 0.52500 0.00300
C 	C 	0.65850 0.05450 0.56760 0.04800
C 	C 	0.62730 0.05230 0.60970 0.00400
C 	C 	0.60220 0.02290 0.60660 0.02900
C 	C 	0.57640 0.09230 0.76630 0.10400
C 	C 	0.57240 0.12580 0.79680 -0.00900
C 	C 	0.54320 0.99250 0.64390 0.04100
C 	C 	0.55230 0.96190 0.65370 -0.02000
C 	C 	0.52010 0.93530 0.65340 0.12200
C 	C 	0.48440 0.94250 0.64490 -0.24500
C 	C 	0.47260 0.97160 0.63160 0.13700
C 	C 	0.50640 0.99960 0.63350 -0.02900
C 	C 	0.45290 0.91640 0.64640 0.48800
C 	C 	0.66140 0.10220 0.65740 -0.00200
C 	C 	0.64560 0.13570 0.64740 0.11800
C 	C 	0.67180 0.16520 0.64760 -0.01400
C 	C 	0.71180 0.16190 0.65790 0.01300
C 	C 	0.76910 0.12350 0.67640 -0.00500
C 	C 	0.78670 0.08990 0.68750 0.15400
C 	C 	0.76180 0.06350 0.68870 -0.00900
C 	C 	0.71860 0.06690 0.67780 0.03300
C 	C 	0.70150 0.09870 0.66320 0.00500
C 	C 	0.73100 0.12650 0.66780 0.01200
C 	C 	0.58310 0.17220 0.64260 0.09300
C 	C 	0.53990 0.16460 0.65950 0.01100
C 	C 	0.73790 0.19200 0.65250 0.02200
C 	C 	0.75740 0.19890 0.60740 -0.00100
C 	C 	0.77800 0.23000 0.60550 0.07200
C 	C 	0.78180 0.25470 0.64520 -0.15600
C 	C 	0.76200 0.24670 0.68970 0.06100
C 	C 	0.73980 0.21630 0.69190 -0.02900
C 	C 	0.80330 0.28450 0.63830 0.40600
C 	C 	0.61620 0.57320 0.64630 -0.01100
C 	C 	0.63510 0.55620 0.68970 0.10400
C 	C 	0.66210 0.52960 0.68310 -0.01600
C 	C 	0.67020 0.52000 0.63310 0.00800
C 	C 	0.65130 0.53700 0.58970 0.00900
C 	C 	0.62430 0.56360 0.59630 0.00300
C 	C 	0.60550 0.58060 0.55290 0.01400
C 	C 	0.61350 0.57100 0.50280 -0.01000
C 	C 	0.64050 0.54440 0.49620 0.14900
C 	C 	0.65940 0.52740 0.53960 -0.01000
C 	C 	0.61000 0.53300 0.76300 0.05000
H 	H 	0.62080 0.53090 0.79910 0.06400
C 	C 	0.60900 0.49700 0.74100 0.01000
C 	C 	0.69980 0.49230 0.62880 0.01800
C 	C 	0.73830 0.50090 0.61240 -0.00400
C 	C 	0.76660 0.47370 0.61430 0.08800
C 	C 	0.76100 0.44010 0.63020 -0.14400
C 	C 	0.72340 0.43400 0.64500 0.07300
C 	C 	0.69320 0.45920 0.64650 -0.01900
C 	C 	0.79220 0.41440 0.62850 0.39000
C 	C 	0.59060 0.60510 0.65860 -0.00800
C 	C 	0.54880 0.60180 0.66260 0.10900
C 	C 	0.52500 0.63060 0.66820 -0.00800
C 	C 	0.54300 0.66270 0.66980 0.01200
C 	C 	0.58480 0.66590 0.66580 0.01300
C 	C 	0.60860 0.63720 0.66020 0.00200
C 	C 	0.65040 0.64040 0.65620 0.02800
C 	C 	0.66840 0.67250 0.65780 0.00700
C 	C 	0.64460 0.70130 0.66350 0.19500
C 	C 	0.60280 0.69800 0.66750 -0.01600
C 	C 	0.51400 0.56180 0.59700 0.08700
C 	C 	0.46700 0.56700 0.59100 0.02900
C 	C 	0.51370 0.69350 0.65700 0.01100
C 	C 	0.48620 0.70240 0.61440 -0.00600
C 	C 	0.46280 0.73180 0.61610 0.02800
C 	C 	0.46700 0.75240 0.66030 -0.09600
C 	C 	0.49460 0.74350 0.70290 0.05800
C 	C 	0.51790 0.71410 0.70120 0.00800
C 	C 	0.44070 0.78390 0.67040 0.33400
Zn	Zn	0.67289 0.85100 0.32783 1.21900
Zn	Zn	0.57665 0.84995 0.31825 1.21500
Zn	Zn	0.62806 0.89338 0.40541 1.21800
Zn	Zn	0.62553 0.81224 0.41561 1.19100
Cl	Cl	0.66200 0.74320 0.01240 -0.19800
Cl	Cl	0.62200 0.74230 0.00050 -0.17500
Cl	Cl	0.80590 0.86550 0.75560 -0.31200
Cl	Cl	0.38290 0.98230 0.53330 -0.14100
Cl	Cl	0.86380 0.47430 0.51960 -0.18100
Cl	Cl	0.16140 0.08390 0.28640 -0.07700
Cl	Cl	0.66110 0.58740 0.31190 -0.19600
Cl	Cl	0.84580 0.03540 0.56580 -0.28000
Cl	Cl	0.83130 0.23850 0.35320 -0.21400
Cl	Cl	0.83680 0.23430 0.29700 -0.17000
O 	O 	0.62520 0.85100 0.36570 -0.95400
O 	O 	0.65590 0.86980 0.25620 -0.52000
O 	O 	0.59090 0.85980 0.24570 -0.51200
O 	O 	0.63420 0.93240 0.89700 -0.19300
O 	O 	0.64020 0.83230 0.48680 -0.50200
O 	O 	0.63170 0.88920 0.47920 -0.47600
O 	O 	0.57010 0.87880 0.82810 -0.18400
O 	O 	0.03940 0.38860 0.33210 -0.51600
O 	O 	0.07960 0.42150 0.38070 -0.50400
O 	O 	0.89310 0.59230 0.26910 -0.19200
O 	O 	0.69660 0.80750 0.32580 -0.49700
O 	O 	0.67890 0.78990 0.40330 -0.47500
O 	O 	0.89790 0.63990 0.36070 -0.18400
O 	O 	0.71390 0.88510 0.35010 -0.47500
O 	O 	0.67420 0.92020 0.39170 -0.47300
O 	O 	0.86910 0.06290 0.25580 -0.16900
O 	O 	0.04520 0.31020 0.30740 -0.47900
O 	O 	0.09480 0.28020 0.35800 -0.45900
O 	O 	0.96870 0.06900 0.35040 -0.18200
C 	C 	0.63850 0.87130 0.89820 -0.00400
C 	C 	0.63540 0.90180 0.92470 0.11800
C 	C 	0.63360 0.90180 0.97860 -0.02100
C 	C 	0.63490 0.87120 0.00590 0.00600
C 	C 	0.63800 0.84070 0.97930 0.01900
C 	C 	0.63980 0.84070 0.92550 -0.00400
C 	C 	0.64290 0.81010 0.89890 0.04800
C 	C 	0.64420 0.77960 0.92620 0.00600
C 	C 	0.64240 0.77950 0.98010 0.18800
C 	C 	0.63930 0.81010 0.00660 -0.02300
C 	C 	0.61960 0.96390 0.91680 0.09600
C 	C 	0.59200 0.98650 0.87700 0.01000
C 	C 	0.62990 0.87170 0.06650 0.03200
C 	C 	0.59830 0.85870 0.08640 -0.03100
C 	C 	0.59320 0.85880 0.13460 0.09600
C 	C 	0.62240 0.87020 0.17300 -0.17200
C 	C 	0.65490 0.88840 0.14940 0.07000
C 	C 	0.65940 0.88700 0.09750 -0.02500
C 	C 	0.62330 0.86710 0.22950 0.49100
C 	C 	0.64410 0.87400 0.83820 -0.01100
C 	C 	0.60910 0.88180 0.80830 0.11600
C 	C 	0.61220 0.87810 0.75100 -0.01200
C 	C 	0.64940 0.87400 0.73210 0.02200
C 	C 	0.72190 0.87100 0.74200 -0.00100
C 	C 	0.75730 0.87040 0.77580 0.14600
C 	C 	0.75280 0.86980 0.83810 0.00800
C 	C 	0.71820 0.87330 0.85490 0.02300
C 	C 	0.68060 0.87500 0.81970 0.01700
C 	C 	0.68070 0.87260 0.76390 0.01300
C 	C 	0.53840 0.89460 0.79200 0.09200
C 	C 	0.50630 0.90810 0.82600 0.00900
C 	C 	0.64680 0.86930 0.67450 0.01000
C 	C 	0.64280 0.89780 0.64040 -0.00100
C 	C 	0.63940 0.89730 0.58540 0.08100
C 	C 	0.64480 0.86560 0.56190 -0.14300
C 	C 	0.64940 0.83660 0.59460 0.06900
C 	C 	0.65300 0.83780 0.64970 0.01800
C 	C 	0.63810 0.86170 0.50650 0.39400
C 	C 	0.86990 0.57610 0.34900 0.00300
C 	C 	0.89540 0.56850 0.31060 0.12200
C 	C 	0.92490 0.54220 0.31240 0.00200
C 	C 	0.92590 0.51930 0.35530 0.01400
C 	C 	0.89860 0.50150 0.43770 -0.02400
C 	C 	0.87390 0.50520 0.47540 0.16200
C 	C 	0.84720 0.53390 0.47500 0.00300
C 	C 	0.84150 0.55450 0.43240 0.04800
C 	C 	0.87270 0.55230 0.39030 0.00400
C 	C 	0.89780 0.52290 0.39340 0.02900
C 	C 	0.92360 0.59230 0.23370 0.10400
C 	C 	0.92760 0.62580 0.20320 -0.00900
C 	C 	0.95680 0.49250 0.35610 0.04100
C 	C 	0.94770 0.46190 0.34630 -0.02000
C 	C 	0.97990 0.43530 0.34660 0.12200
C 	C 	0.01560 0.44250 0.35510 -0.24500
C 	C 	0.02740 0.47160 0.36840 0.13700
C 	C 	0.99360 0.49960 0.36650 -0.02900
C 	C 	0.04710 0.41640 0.35360 0.48800
C 	C 	0.83860 0.60220 0.34260 -0.00200
C 	C 	0.85440 0.63570 0.35260 0.11800
C 	C 	0.82820 0.66520 0.35240 -0.01400
C 	C 	0.78820 0.66190 0.34210 0.01300
C 	C 	0.73090 0.62350 0.32360 -0.00500
C 	C 	0.71330 0.58990 0.31250 0.15400
C 	C 	0.73820 0.56350 0.31130 -0.00900
C 	C 	0.78140 0.56690 0.32220 0.03300
C 	C 	0.79850 0.59870 0.33680 0.00500
C 	C 	0.76900 0.62650 0.33220 0.01200
C 	C 	0.91690 0.67220 0.35740 0.09300
C 	C 	0.96010 0.66460 0.34050 0.01100
C 	C 	0.76210 0.69200 0.34750 0.02200
C 	C 	0.74260 0.69890 0.39260 -0.00100
C 	C 	0.72200 0.73000 0.39450 0.07200
C 	C 	0.71820 0.75470 0.35480 -0.15600
C 	C 	0.73800 0.74670 0.31030 0.06100
C 	C 	0.76020 0.71630 0.30810 -0.02900
C 	C 	0.69670 0.78450 0.36170 0.40600
C 	C 	0.88380 0.07320 0.35370 -0.01000
C 	C 	0.86490 0.05620 0.31030 0.10400
C 	C 	0.83790 0.02960 0.31690 -0.01600
C 	C 	0.82980 0.02000 0.36690 0.00800
C 	C 	0.84870 0.03700 0.41030 0.00900
C 	C 	0.87570 0.06360 0.40370 0.00300
C 	C 	0.89450 0.08060 0.44710 0.01400
C 	C 	0.88650 0.07100 0.49720 -0.01000
C 	C 	0.85950 0.04440 0.50380 0.14900
C 	C 	0.84060 0.02740 0.46040 -0.01000
C 	C 	0.89000 0.03300 0.23700 0.05000
H 	H 	0.87920 0.03090 0.20090 0.06400
C 	C 	0.89100 0.99700 0.25900 0.01000
C 	C 	0.80020 0.99230 0.37120 0.01800
C 	C 	0.76170 0.00090 0.38760 -0.00400
C 	C 	0.73340 0.97370 0.38570 0.08800
C 	C 	0.73900 0.94010 0.36980 -0.14400
C 	C 	0.77660 0.93400 0.35500 0.07300
C 	C 	0.80680 0.95920 0.35350 -0.01900
C 	C 	0.70780 0.91440 0.37150 0.39000
C 	C 	0.90940 0.10510 0.34140 -0.00800
C 	C 	0.95120 0.10180 0.33740 0.10900
C 	C 	0.97500 0.13060 0.33180 -0.00800
C 	C 	0.95700 0.16270 0.33020 0.01200
C 	C 	0.91520 0.16590 0.33420 0.01300
C 	C 	0.89140 0.13720 0.33980 0.00200
C 	C 	0.84960 0.14040 0.34380 0.02800
C 	C 	0.83160 0.17250 0.34220 0.00700
C 	C 	0.85540 0.20130 0.33650 0.19500
C 	C 	0.89720 0.19800 0.33250 -0.01600
C 	C 	0.98600 0.06180 0.40300 0.08700
C 	C 	0.03300 0.06700 0.40900 0.02900
C 	C 	0.98630 0.19350 0.34300 0.01100
C 	C 	0.01380 0.20240 0.38560 -0.00600
C 	C 	0.03720 0.23180 0.38390 0.02800
C 	C 	0.03300 0.25240 0.33970 -0.09600
C 	C 	0.00540 0.24350 0.29710 0.05800
C 	C 	0.98210 0.21410 0.29880 0.00800
C 	C 	0.05930 0.28390 0.32960 0.33400
Zn	Zn	0.17289 0.35100 0.32783 1.21900
Zn	Zn	0.07665 0.34995 0.31825 1.21500
Zn	Zn	0.12806 0.39338 0.40541 1.21800
Zn	Zn	0.12553 0.31224 0.41561 1.19100
Cl	Cl	0.16200 0.24320 0.01240 -0.19800
Cl	Cl	0.12200 0.24230 0.00050 -0.17500
Cl	Cl	0.30590 0.36550 0.75560 -0.31200
Cl	Cl	0.88290 0.48230 0.53330 -0.14100
Cl	Cl	0.36380 0.97430 0.51960 -0.18000
Cl	Cl	0.66140 0.58390 0.28640 -0.07700
Cl	Cl	0.16110 0.08740 0.31190 -0.19600
Cl	Cl	0.34580 0.53540 0.56580 -0.28000
Cl	Cl	0.33130 0.73850 0.35320 -0.21400
Cl	Cl	0.33680 0.73430 0.29700 -0.17000
O 	O 	0.12520 0.35100 0.36570 -0.95400
O 	O 	0.15590 0.36980 0.25620 -0.52000
O 	O 	0.09090 0.35980 0.24570 -0.51200
O 	O 	0.13420 0.43240 0.89700 -0.19300
O 	O 	0.14020 0.33230 0.48680 -0.50200
O 	O 	0.13170 0.38920 0.47920 -0.47600
O 	O 	0.07010 0.37880 0.82810 -0.18400
O 	O 	0.53940 0.88860 0.33210 -0.51600
O 	O 	0.57960 0.92150 0.38070 -0.50400
O 	O 	0.39310 0.09230 0.26910 -0.19200
O 	O 	0.19660 0.30750 0.32580 -0.49700
O 	O 	0.17890 0.28990 0.40330 -0.47500
O 	O 	0.39790 0.13990 0.36070 -0.18400
O 	O 	0.21390 0.38510 0.35010 -0.47500
O 	O 	0.17420 0.42020 0.39170 -0.47300
O 	O 	0.36910 0.56290 0.25580 -0.16900
O 	O 	0.54520 0.81020 0.30740 -0.47900
O 	O 	0.59480 0.78020 0.35800 -0.45900
O 	O 	0.46870 0.56900 0.35040 -0.18200
C 	C 	0.13850 0.37130 0.89820 -0.00400
C 	C 	0.13540 0.40180 0.92470 0.11800
C 	C 	0.13360 0.40180 0.97860 -0.02200
C 	C 	0.13490 0.37120 0.00590 0.00600
C 	C 	0.13800 0.34070 0.97930 0.01900
C 	C 	0.13980 0.34070 0.92550 -0.00300
C 	C 	0.14290 0.31010 0.89890 0.04800
C 	C 	0.14420 0.27960 0.92620 0.00600
C 	C 	0.14240 0.27950 0.98010 0.18700
C 	C 	0.13930 0.31010 0.00660 -0.02300
C 	C 	0.11960 0.46390 0.91680 0.09600
C 	C 	0.09200 0.48650 0.87700 0.01000
C 	C 	0.12990 0.37170 0.06650 0.03200
C 	C 	0.09830 0.35870 0.08640 -0.03100
C 	C 	0.09320 0.35880 0.13460 0.09600
C 	C 	0.12240 0.37020 0.17300 -0.17200
C 	C 	0.15490 0.38840 0.14940 0.07000
C 	C 	0.15940 0.38700 0.09750 -0.02500
C 	C 	0.12330 0.36710 0.22950 0.49100
C 	C 	0.14410 0.37400 0.83820 -0.01100
C 	C 	0.10910 0.38180 0.80830 0.11600
C 	C 	0.11220 0.37810 0.75100 -0.01200
C 	C 	0.14940 0.37400 0.73210 0.02200
C 	C 	0.22190 0.37100 0.74200 -0.00100
C 	C 	0.25730 0.37040 0.77580 0.14600
C 	C 	0.25280 0.36980 0.83810 0.00800
C 	C 	0.21820 0.37330 0.85490 0.02300
C 	C 	0.18060 0.37500 0.81970 0.01700
C 	C 	0.18070 0.37260 0.76390 0.01300
C 	C 	0.03840 0.39460 0.79200 0.09200
C 	C 	0.00630 0.40810 0.82600 0.00900
C 	C 	0.14680 0.36930 0.67450 0.01000
C 	C 	0.14280 0.39780 0.64040 -0.00100
C 	C 	0.13940 0.39730 0.58540 0.08100
C 	C 	0.14480 0.36560 0.56190 -0.14300
C 	C 	0.14940 0.33660 0.59460 0.06900
C 	C 	0.15300 0.33780 0.64970 0.01800
C 	C 	0.13810 0.36170 0.50650 0.39400
C 	C 	0.36990 0.07610 0.34900 0.00300
C 	C 	0.39540 0.06850 0.31060 0.12200
C 	C 	0.42490 0.04220 0.31240 0.00200
C 	C 	0.42590 0.01930 0.35530 0.01300
C 	C 	0.39860 0.00150 0.43770 -0.02500
C 	C 	0.37390 0.00520 0.47540 0.16200
C 	C 	0.34720 0.03390 0.47500 0.00300
C 	C 	0.34150 0.05450 0.43240 0.04800
C 	C 	0.37270 0.05230 0.39030 0.00400
C 	C 	0.39780 0.02290 0.39340 0.02900
C 	C 	0.42360 0.09230 0.23370 0.10400
C 	C 	0.42760 0.12580 0.20320 -0.00900
C 	C 	0.45680 0.99250 0.35610 0.04100
C 	C 	0.44770 0.96190 0.34630 -0.02000
C 	C 	0.47990 0.93530 0.34660 0.12200
C 	C 	0.51560 0.94250 0.35510 -0.24500
C 	C 	0.52740 0.97160 0.36840 0.13700
C 	C 	0.49360 0.99960 0.36650 -0.02900
C 	C 	0.54710 0.91640 0.35360 0.48800
C 	C 	0.33860 0.10220 0.34260 -0.00200
C 	C 	0.35440 0.13570 0.35260 0.11800
C 	C 	0.32820 0.16520 0.35240 -0.01400
C 	C 	0.28820 0.16190 0.34210 0.01300
C 	C 	0.23090 0.12350 0.32360 -0.00500
C 	C 	0.21330 0.08990 0.31250 0.15400
C 	C 	0.23820 0.06350 0.31130 -0.00900
C 	C 	0.28140 0.06690 0.32220 0.03300
C 	C 	0.29850 0.09870 0.33680 0.00500
C 	C 	0.26900 0.12650 0.33220 0.01200
C 	C 	0.41690 0.17220 0.35740 0.09300
C 	C 	0.46010 0.16460 0.34050 0.01100
C 	C 	0.26210 0.19200 0.34750 0.02200
C 	C 	0.24260 0.19890 0.39260 -0.00100
C 	C 	0.22200 0.23000 0.39450 0.07200
C 	C 	0.21820 0.25470 0.35480 -0.15600
C 	C 	0.23800 0.24670 0.31030 0.06100
C 	C 	0.26020 0.21630 0.30810 -0.02900
C 	C 	0.19670 0.28450 0.36170 0.40600
C 	C 	0.38380 0.57320 0.35370 -0.01100
C 	C 	0.36490 0.55620 0.31030 0.10400
C 	C 	0.33790 0.52960 0.31690 -0.01600
C 	C 	0.32980 0.52000 0.36690 0.00800
C 	C 	0.34870 0.53700 0.41030 0.00900
C 	C 	0.37570 0.56360 0.40370 0.00300
C 	C 	0.39450 0.58060 0.44710 0.01400
C 	C 	0.38650 0.57100 0.49720 -0.01000
C 	C 	0.35950 0.54440 0.50380 0.14900
C 	C 	0.34060 0.52740 0.46040 -0.01000
C 	C 	0.39000 0.53300 0.23700 0.05000
H 	H 	0.37920 0.53090 0.20090 0.06400
C 	C 	0.39100 0.49700 0.25900 0.01000
C 	C 	0.30020 0.49230 0.37120 0.01800
C 	C 	0.26170 0.50090 0.38760 -0.00400
C 	C 	0.23340 0.47370 0.38570 0.08800
C 	C 	0.23900 0.44010 0.36980 -0.14400
C 	C 	0.27660 0.43400 0.35500 0.07300
C 	C 	0.30680 0.45920 0.35350 -0.01900
C 	C 	0.20780 0.41440 0.37150 0.39000
C 	C 	0.40940 0.60510 0.34140 -0.00800
C 	C 	0.45120 0.60180 0.33740 0.10900
C 	C 	0.47500 0.63060 0.33180 -0.00800
C 	C 	0.45700 0.66270 0.33020 0.01200
C 	C 	0.41520 0.66590 0.33420 0.01300
C 	C 	0.39140 0.63720 0.33980 0.00200
C 	C 	0.34960 0.64040 0.34380 0.02800
C 	C 	0.33160 0.67250 0.34220 0.00700
C 	C 	0.35540 0.70130 0.33650 0.19500
C 	C 	0.39720 0.69800 0.33250 -0.01600
C 	C 	0.48600 0.56180 0.40300 0.08700
C 	C 	0.53300 0.56700 0.40900 0.02900
C 	C 	0.48630 0.69350 0.34300 0.01100
C 	C 	0.51380 0.70240 0.38560 -0.00600
C 	C 	0.53720 0.73180 0.38390 0.02800
C 	C 	0.53300 0.75240 0.33970 -0.09600
C 	C 	0.50540 0.74350 0.29710 0.05800
C 	C 	0.48210 0.71410 0.29880 0.00800
C 	C 	0.55930 0.78390 0.32960 0.33400
Zn	Zn	0.09684 0.71771 0.88821 1.20600
Zn	Zn	0.05839 0.75850 0.78951 1.21700
Zn	Zn	0.10107 0.79730 0.88716 1.20700
Zn	Zn	0.15707 0.75257 0.81754 1.16300
Cl	Cl	0.28240 0.78410 0.20400 -0.28400
Cl	Cl	0.16970 0.63410 0.50540 -0.30100
Cl	Cl	0.32800 0.36160 0.00110 -0.31500
Cl	Cl	0.14530 0.49260 0.72840 -0.35000
Cl	Cl	0.77550 0.68600 0.71680 -0.29400
Cl	Cl	0.67160 0.52450 0.96870 -0.19100
Cl	Cl	0.64660 0.53120 0.92500 -0.18800
O 	O 	0.10420 0.75790 0.84430 -0.97200
O 	O 	0.09730 0.72770 0.96130 -0.50700
O 	O 	0.10570 0.78470 0.96300 -0.45600
O 	O 	0.06880 0.74020 0.32200 -0.19000
O 	O 	0.07300 0.76500 0.71930 -0.48800
O 	O 	0.13860 0.75600 0.73890 -0.50900
O 	O 	0.12700 0.81920 0.37240 -0.18500
O 	O 	0.51840 0.29340 0.80100 -0.49300
O 	O 	0.54330 0.31560 0.87690 -0.48500
O 	O 	0.34450 0.48300 0.75190 -0.17800
O 	O 	0.16900 0.70250 0.81570 -0.50600
O 	O 	0.13480 0.68080 0.87990 -0.49200
O 	O 	0.35290 0.53050 0.90280 -0.17000
O 	O 	0.04270 0.69640 0.86950 -0.46900
O 	O 	0.02370 0.71700 0.78870 -0.47600
O 	O 	0.86910 0.51540 0.86150 -0.19100
O 	O 	0.61540 0.33450 0.80040 -0.36000
O 	O 	0.64070 0.33480 0.88260 -0.45200
O 	O 	0.82810 0.49330 0.75190 -0.18500
C 	C 	0.13670 0.75950 0.31930 -0.01100
C 	C 	0.10160 0.74920 0.29120 0.11600
C 	C 	0.09500 0.75000 0.23930 -0.02300
C 	C 	0.12950 0.75950 0.21090 0.01100
C 	C 	0.20480 0.77100 0.21010 0.00300
C 	C 	0.24190 0.77810 0.23660 0.18000
C 	C 	0.24350 0.78250 0.29310 0.02600
C 	C 	0.21070 0.77520 0.31840 0.04300
C 	C 	0.16980 0.76690 0.29350 0.02200
C 	C 	0.16330 0.76590 0.23580 0.02100
C 	C 	0.03040 0.75810 0.31240 0.09300
C 	C 	0.03090 0.78810 0.33940 0.00200
C 	C 	0.12290 0.75800 0.15150 0.02300
C 	C 	0.12870 0.78510 0.12310 -0.01200
C 	C 	0.12190 0.78520 0.06880 0.09400
C 	C 	0.10820 0.75750 0.04340 -0.14300
C 	C 	0.10450 0.72850 0.07190 0.06700
C 	C 	0.10970 0.72750 0.12650 -0.01700
C 	C 	0.10430 0.75460 0.98560 0.38700
C 	C 	0.13900 0.75970 0.37840 0.00500
C 	C 	0.13190 0.79060 0.40540 0.11100
C 	C 	0.13010 0.79100 0.45930 -0.02500
C 	C 	0.13490 0.76330 0.48700 0.00900
C 	C 	0.14990 0.70080 0.49400 -0.01300
C 	C 	0.16130 0.67100 0.46820 0.14900
C 	C 	0.16550 0.67140 0.41460 -0.00300
C 	C 	0.15750 0.70250 0.38670 0.04400
C 	C 	0.14590 0.72830 0.40900 -0.00600
C 	C 	0.14540 0.73110 0.46680 0.01300
C 	C 	0.11630 0.85160 0.39480 0.09200
C 	C 	0.10950 0.87720 0.35220 0.02200
C 	C 	0.13000 0.76470 0.54510 0.02100
C 	C 	0.09120 0.76750 0.56040 -0.02100
C 	C 	0.08310 0.76650 0.61340 0.08100
C 	C 	0.11440 0.76370 0.65060 -0.16200
C 	C 	0.15580 0.76000 0.63600 0.06000
C 	C 	0.16170 0.76110 0.58350 -0.01700
C 	C 	0.10860 0.76150 0.70550 0.43900
C 	C 	0.33280 0.46710 0.83940 0.00100
C 	C 	0.36000 0.46450 0.80150 0.10100
C 	C 	0.38660 0.43690 0.80170 -0.00700
C 	C 	0.38580 0.41190 0.83990 0.01900
C 	C 	0.35860 0.41450 0.87780 0.01900
C 	C 	0.33200 0.44210 0.87760 0.00200
C 	C 	0.30480 0.44480 0.91550 0.03400
C 	C 	0.30400 0.41980 0.95370 -0.01100
C 	C 	0.33050 0.39220 0.95400 0.16000
C 	C 	0.35780 0.38950 0.91600 -0.01300
C 	C 	0.35360 0.47310 0.70160 0.12500
C 	C 	0.39950 0.48410 0.71200 0.03800
C 	C 	0.42020 0.38360 0.84180 0.02300
C 	C 	0.44690 0.38120 0.88340 -0.01400
C 	C 	0.48010 0.35860 0.88010 0.08900
C 	C 	0.48310 0.33580 0.83840 -0.18500
C 	C 	0.45410 0.33950 0.79860 0.09000
C 	C 	0.41940 0.36090 0.79930 -0.00300
C 	C 	0.51640 0.31420 0.83880 0.44800
C 	C 	0.30580 0.49940 0.83790 0.00100
C 	C 	0.31930 0.52950 0.86240 0.10900
C 	C 	0.29280 0.55710 0.86320 -0.00700
C 	C 	0.25290 0.55460 0.83960 0.00400
C 	C 	0.23930 0.52460 0.81520 0.02200
C 	C 	0.26580 0.49700 0.81430 -0.00300
C 	C 	0.25230 0.46690 0.78990 0.03700
C 	C 	0.21230 0.46440 0.76630 -0.03200
C 	C 	0.18590 0.49200 0.76710 0.20000
C 	C 	0.19940 0.52210 0.79160 -0.03300
C 	C 	0.36200 0.56550 0.91400 0.12900
C 	C 	0.35100 0.60200 0.90000 0.02200
C 	C 	0.22920 0.58620 0.83990 0.02600
C 	C 	0.20610 0.59410 0.87970 -0.01200
C 	C 	0.18310 0.62320 0.88410 0.07000
C 	C 	0.18460 0.64600 0.84430 -0.12800
C 	C 	0.20610 0.63980 0.80310 0.06800
C 	C 	0.22810 0.61080 0.80200 -0.01600
C 	C 	0.16040 0.67880 0.84580 0.38800
C 	C 	0.82430 0.55070 0.80660 -0.00600
C 	C 	0.86110 0.54770 0.83820 0.11200
C 	C 	0.89140 0.57400 0.83940 -0.02500
C 	C 	0.88280 0.60240 0.81530 0.01100
C 	C 	0.83050 0.64250 0.76610 -0.00900
C 	C 	0.78940 0.64650 0.73940 0.15500
C 	C 	0.76200 0.61930 0.73810 -0.01000
C 	C 	0.77400 0.58970 0.75530 0.02400
C 	C 	0.81440 0.58050 0.78720 0.00400
C 	C 	0.84280 0.61100 0.78850 0.00800
C 	C 	0.90950 0.50820 0.88680 0.09100
C 	C 	0.90990 0.47210 0.90050 -0.00000
C 	C 	0.91730 0.63080 0.81860 0.02100
C 	C 	0.92930 0.64610 0.77250 -0.01500
C 	C 	0.96160 0.66890 0.77660 0.07900
C 	C 	0.98340 0.67620 0.82300 -0.14600
C 	C 	0.96760 0.65940 0.86960 0.06300
C 	C 	0.93660 0.63810 0.86400 -0.02300
C 	C 	0.01700 0.69840 0.82690 0.38900
C 	C 	0.79010 0.52260 0.81400 -0.01100
C 	C 	0.79520 0.49400 0.78350 0.11700
C 	C 	0.76920 0.46630 0.78590 -0.02800
C 	C 	0.73810 0.46710 0.81890 0.01200
C 	C 	0.73310 0.49560 0.84950 0.01000
C 	C 	0.75910 0.52340 0.84710 0.00200
C 	C 	0.75400 0.55200 0.87770 0.02400
C 	C 	0.72290 0.55280 0.91070 -0.01000
C 	C 	0.69690 0.52500 0.91310 0.19000
C 	C 	0.70200 0.49640 0.88250 -0.01700
C 	C 	0.84640 0.46010 0.74300 0.08300
C 	C 	0.89070 0.46710 0.72800 0.00200
C 	C 	0.71480 0.43440 0.82050 0.01000
C 	C 	0.68250 0.42720 0.78280 -0.00800
C 	C 	0.65640 0.40010 0.78980 0.04100
C 	C 	0.66260 0.38020 0.83470 -0.06800
C 	C 	0.69490 0.38740 0.87240 0.06100
C 	C 	0.72100 0.41450 0.86540 -0.00400
C 	C 	0.63950 0.34290 0.83700 0.32400
Zn	Zn	0.59684 0.21771 0.88821 1.20600
Zn	Zn	0.55839 0.25850 0.78951 1.21700
Zn	Zn	0.60107 0.29730 0.88716 1.20700
Zn	Zn	0.65707 0.25257 0.81754 1.16300
Cl	Cl	0.78240 0.28410 0.20400 -0.28400
Cl	Cl	0.66970 0.13410 0.50540 -0.30100
Cl	Cl	0.82800 0.86160 0.00110 -0.31500
Cl	Cl	0.64530 0.99260 0.72840 -0.35000
Cl	Cl	0.27550 0.18600 0.71680 -0.29400
Cl	Cl	0.17160 0.02450 0.96870 -0.19100
Cl	Cl	0.14660 0.03120 0.92500 -0.18800
O 	O 	0.60420 0.25790 0.84430 -0.97200
O 	O 	0.59730 0.22770 0.96130 -0.50700
O 	O 	0.60570 0.28470 0.96300 -0.45600
O 	O 	0.56880 0.24020 0.32200 -0.19000
O 	O 	0.57300 0.26500 0.71930 -0.48800
O 	O 	0.63860 0.25600 0.73890 -0.50900
O 	O 	0.62700 0.31920 0.37240 -0.18500
O 	O 	0.01840 0.79340 0.80100 -0.49200
O 	O 	0.04330 0.81560 0.87690 -0.48500
O 	O 	0.84450 0.98300 0.75190 -0.17800
O 	O 	0.66900 0.20250 0.81570 -0.50600
O 	O 	0.63480 0.18080 0.87990 -0.49200
O 	O 	0.85290 0.03050 0.90280 -0.17000
O 	O 	0.54270 0.19640 0.86950 -0.46900
O 	O 	0.52370 0.21700 0.78870 -0.47600
O 	O 	0.36910 0.01540 0.86150 -0.19100
O 	O 	0.11540 0.83450 0.80040 -0.36000
O 	O 	0.14070 0.83480 0.88260 -0.45200
O 	O 	0.32810 0.99330 0.75190 -0.18500
C 	C 	0.63670 0.25950 0.31930 -0.01100
C 	C 	0.60160 0.24920 0.29120 0.11600
C 	C 	0.59500 0.25000 0.23930 -0.02300
C 	C 	0.62950 0.25950 0.21090 0.01100
C 	C 	0.70480 0.27100 0.21010 0.00200
C 	C 	0.74190 0.27810 0.23660 0.18000
C 	C 	0.74350 0.28250 0.29310 0.02600
C 	C 	0.71070 0.27520 0.31840 0.04300
C 	C 	0.66980 0.26690 0.29350 0.02200
C 	C 	0.66330 0.26590 0.23580 0.02100
C 	C 	0.53040 0.25810 0.31240 0.09300
C 	C 	0.53090 0.28810 0.33940 0.00200
C 	C 	0.62290 0.25800 0.15150 0.02300
C 	C 	0.62870 0.28510 0.12310 -0.01200
C 	C 	0.62190 0.28520 0.06880 0.09400
C 	C 	0.60820 0.25750 0.04340 -0.14300
C 	C 	0.60450 0.22850 0.07190 0.06700
C 	C 	0.60970 0.22750 0.12650 -0.01700
C 	C 	0.60430 0.25460 0.98560 0.38700
C 	C 	0.63900 0.25970 0.37840 0.00500
C 	C 	0.63190 0.29060 0.40540 0.11100
C 	C 	0.63010 0.29100 0.45930 -0.02500
C 	C 	0.63490 0.26330 0.48700 0.00900
C 	C 	0.64990 0.20080 0.49400 -0.01300
C 	C 	0.66130 0.17100 0.46820 0.14900
C 	C 	0.66550 0.17140 0.41460 -0.00300
C 	C 	0.65750 0.20250 0.38670 0.04400
C 	C 	0.64590 0.22830 0.40900 -0.00600
C 	C 	0.64540 0.23110 0.46680 0.01300
C 	C 	0.61630 0.35160 0.39480 0.09200
C 	C 	0.60950 0.37720 0.35220 0.02200
C 	C 	0.63000 0.26470 0.54510 0.02100
C 	C 	0.59120 0.26750 0.56040 -0.02100
C 	C 	0.58310 0.26650 0.61340 0.08100
C 	C 	0.61440 0.26370 0.65060 -0.16200
C 	C 	0.65580 0.26000 0.63600 0.06000
C 	C 	0.66170 0.26110 0.58350 -0.01700
C 	C 	0.60860 0.26150 0.70550 0.43900
C 	C 	0.83280 0.96710 0.83940 0.00100
C 	C 	0.86000 0.96450 0.80150 0.10100
C 	C 	0.88660 0.93690 0.80170 -0.00700
C 	C 	0.88580 0.91190 0.83990 0.01900
C 	C 	0.85860 0.91450 0.87780 0.01900
C 	C 	0.83200 0.94210 0.87760 0.00200
C 	C 	0.80480 0.94480 0.91550 0.03400
C 	C 	0.80400 0.91980 0.95370 -0.01100
C 	C 	0.83050 0.89220 0.95400 0.16000
C 	C 	0.85780 0.88950 0.91600 -0.01300
C 	C 	0.85360 0.97310 0.70160 0.12500
C 	C 	0.89950 0.98410 0.71200 0.03800
C 	C 	0.92020 0.88360 0.84180 0.02300
C 	C 	0.94690 0.88120 0.88340 -0.01400
C 	C 	0.98010 0.85860 0.88010 0.08900
C 	C 	0.98310 0.83580 0.83840 -0.18500
C 	C 	0.95410 0.83950 0.79860 0.09000
C 	C 	0.91940 0.86090 0.79930 -0.00300
C 	C 	0.01640 0.81420 0.83880 0.44800
C 	C 	0.80580 0.99940 0.83790 0.00100
C 	C 	0.81930 0.02950 0.86240 0.10900
C 	C 	0.79280 0.05710 0.86320 -0.00700
C 	C 	0.75290 0.05460 0.83960 0.00400
C 	C 	0.73930 0.02460 0.81520 0.02200
C 	C 	0.76580 0.99700 0.81430 -0.00300
C 	C 	0.75230 0.96690 0.78990 0.03700
C 	C 	0.71230 0.96440 0.76630 -0.03200
C 	C 	0.68590 0.99200 0.76710 0.20000
C 	C 	0.69940 0.02210 0.79160 -0.03300
C 	C 	0.86200 0.06550 0.91400 0.12900
C 	C 	0.85100 0.10200 0.90000 0.02200
C 	C 	0.72920 0.08620 0.83990 0.02600
C 	C 	0.70610 0.09410 0.87970 -0.01200
C 	C 	0.68310 0.12320 0.88410 0.07000
C 	C 	0.68460 0.14600 0.84430 -0.12800
C 	C 	0.70610 0.13980 0.80310 0.06800
C 	C 	0.72810 0.11080 0.80200 -0.01600
C 	C 	0.66040 0.17880 0.84580 0.38800
C 	C 	0.32430 0.05070 0.80660 -0.00600
C 	C 	0.36110 0.04770 0.83820 0.11200
C 	C 	0.39140 0.07400 0.83940 -0.02500
C 	C 	0.38280 0.10240 0.81530 0.01100
C 	C 	0.33050 0.14250 0.76610 -0.00900
C 	C 	0.28940 0.14650 0.73940 0.15500
C 	C 	0.26200 0.11930 0.73810 -0.01000
C 	C 	0.27400 0.08970 0.75530 0.02400
C 	C 	0.31440 0.08050 0.78720 0.00400
C 	C 	0.34280 0.11100 0.78850 0.00800
C 	C 	0.40950 0.00820 0.88680 0.09100
C 	C 	0.40990 0.97210 0.90050 -0.00000
C 	C 	0.41730 0.13080 0.81860 0.02100
C 	C 	0.42930 0.14610 0.77250 -0.01500
C 	C 	0.46160 0.16890 0.77660 0.07900
C 	C 	0.48340 0.17620 0.82300 -0.14600
C 	C 	0.46760 0.15940 0.86960 0.06300
C 	C 	0.43660 0.13810 0.86400 -0.02300
C 	C 	0.51700 0.19840 0.82690 0.38900
C 	C 	0.29010 0.02260 0.81400 -0.01100
C 	C 	0.29520 0.99400 0.78350 0.11700
C 	C 	0.26920 0.96630 0.78590 -0.02800
C 	C 	0.23810 0.96710 0.81890 0.01200
C 	C 	0.23310 0.99560 0.84950 0.01000
C 	C 	0.25910 0.02340 0.84710 0.00100
C 	C 	0.25400 0.05200 0.87770 0.02400
C 	C 	0.22290 0.05280 0.91070 -0.01000
C 	C 	0.19690 0.02500 0.91310 0.19000
C 	C 	0.20200 0.99640 0.88250 -0.01700
C 	C 	0.34640 0.96010 0.74300 0.08300
C 	C 	0.39070 0.96710 0.72800 0.00200
C 	C 	0.21480 0.93440 0.82050 0.01000
C 	C 	0.18250 0.92720 0.78280 -0.00800
C 	C 	0.15640 0.90010 0.78980 0.04100
C 	C 	0.16260 0.88020 0.83470 -0.06800
C 	C 	0.19490 0.88740 0.87240 0.06100
C 	C 	0.22100 0.91450 0.86540 -0.00400
C 	C 	0.13950 0.84290 0.83700 0.32400
Zn	Zn	0.90316 0.71771 0.11179 1.20600
Zn	Zn	0.94161 0.75850 0.21049 1.21700
Zn	Zn	0.89893 0.79730 0.11284 1.20700
Zn	Zn	0.84293 0.75257 0.18246 1.16300
Cl	Cl	0.71760 0.78410 0.79600 -0.28400
Cl	Cl	0.83030 0.63410 0.49460 -0.30100
Cl	Cl	0.67200 0.36160 0.99890 -0.31500
Cl	Cl	0.85470 0.49260 0.27160 -0.35000
Cl	Cl	0.22450 0.68600 0.28320 -0.29400
Cl	Cl	0.32840 0.52450 0.03130 -0.19100
Cl	Cl	0.35340 0.53120 0.07500 -0.18800
O 	O 	0.89580 0.75790 0.15570 -0.97200
O 	O 	0.90270 0.72770 0.03870 -0.50700
O 	O 	0.89430 0.78470 0.03700 -0.45600
O 	O 	0.93120 0.74020 0.67800 -0.19000
O 	O 	0.92700 0.76500 0.28070 -0.48800
O 	O 	0.86140 0.75600 0.26110 -0.50900
O 	O 	0.87300 0.81920 0.62760 -0.18500
O 	O 	0.48160 0.29340 0.19900 -0.49300
O 	O 	0.45670 0.31560 0.12310 -0.48500
O 	O 	0.65550 0.48300 0.24810 -0.17800
O 	O 	0.83100 0.70250 0.18430 -0.50600
O 	O 	0.86520 0.68080 0.12010 -0.49200
O 	O 	0.64710 0.53050 0.09720 -0.17000
O 	O 	0.95730 0.69640 0.13050 -0.46900
O 	O 	0.97630 0.71700 0.21130 -0.47600
O 	O 	0.13090 0.51540 0.13850 -0.19100
O 	O 	0.38460 0.33450 0.19960 -0.36000
O 	O 	0.35930 0.33480 0.11740 -0.45200
O 	O 	0.17190 0.49330 0.24810 -0.18500
C 	C 	0.86330 0.75950 0.68070 -0.01100
C 	C 	0.89840 0.74920 0.70880 0.11600
C 	C 	0.90500 0.75000 0.76070 -0.02300
C 	C 	0.87050 0.75950 0.78910 0.01100
C 	C 	0.79520 0.77100 0.78990 0.00300
C 	C 	0.75810 0.77810 0.76340 0.18000
C 	C 	0.75650 0.78250 0.70690 0.02600
C 	C 	0.78930 0.77520 0.68160 0.04300
C 	C 	0.83020 0.76690 0.70650 0.02200
C 	C 	0.83670 0.76590 0.76420 0.02100
C 	C 	0.96960 0.75810 0.68760 0.09300
C 	C 	0.96910 0.78810 0.66060 0.00200
C 	C 	0.87710 0.75800 0.84850 0.02300
C 	C 	0.87130 0.78510 0.87690 -0.01200
C 	C 	0.87810 0.78520 0.93120 0.09400
C 	C 	0.89180 0.75750 0.95660 -0.14300
C 	C 	0.89550 0.72850 0.92810 0.06700
C 	C 	0.89030 0.72750 0.87350 -0.01700
C 	C 	0.89570 0.75460 0.01440 0.38700
C 	C 	0.86100 0.75970 0.62160 0.00500
C 	C 	0.86810 0.79060 0.59460 0.11100
C 	C 	0.86990 0.79100 0.54070 -0.02500
C 	C 	0.86510 0.76330 0.51300 0.00900
C 	C 	0.85010 0.70080 0.50600 -0.01300
C 	C 	0.83870 0.67100 0.53180 0.14900
C 	C 	0.83450 0.67140 0.58540 -0.00300
C 	C 	0.84250 0.70250 0.61330 0.04400
C 	C 	0.85410 0.72830 0.59100 -0.00600
C 	C 	0.85460 0.73110 0.53320 0.01300
C 	C 	0.88370 0.85160 0.60520 0.09200
C 	C 	0.89050 0.87720 0.64780 0.02200
C 	C 	0.87000 0.76470 0.45490 0.02100
C 	C 	0.90880 0.76750 0.43960 -0.02100
C 	C 	0.91690 0.76650 0.38660 0.08100
C 	C 	0.88560 0.76370 0.34940 -0.16200
C 	C 	0.84420 0.76000 0.36400 0.06000
C 	C 	0.83830 0.76110 0.41650 -0.01700
C 	C 	0.89140 0.76150 0.29450 0.43900
C 	C 	0.66720 0.46710 0.16060 0.00100
C 	C 	0.64000 0.46450 0.19850 0.10100
C 	C 	0.61340 0.43690 0.19830 -0.00700
C 	C 	0.61420 0.41190 0.16010 0.01900
C 	C 	0.64140 0.41450 0.12220 0.01900
C 	C 	0.66800 0.44210 0.12240 0.00200
C 	C 	0.69520 0.44480 0.08450 0.03400
C 	C 	0.69600 0.41980 0.04630 -0.01100
C 	C 	0.66950 0.39220 0.04600 0.16000
C 	C 	0.64220 0.38950 0.08400 -0.01300
C 	C 	0.64640 0.47310 0.29840 0.12500
C 	C 	0.60050 0.48410 0.28800 0.03800
C 	C 	0.57980 0.38360 0.15820 0.02300
C 	C 	0.55310 0.38120 0.11660 -0.01400
C 	C 	0.51990 0.35860 0.11990 0.08900
C 	C 	0.51690 0.33580 0.16160 -0.18500
C 	C 	0.54590 0.33950 0.20140 0.09000
C 	C 	0.58060 0.36090 0.20070 -0.00300
C 	C 	0.48360 0.31420 0.16120 0.44800
C 	C 	0.69420 0.49940 0.16210 0.00100
C 	C 	0.68070 0.52950 0.13760 0.10900
C 	C 	0.70720 0.55710 0.13680 -0.00700
C 	C 	0.74710 0.55460 0.16040 0.00400
C 	C 	0.76070 0.52460 0.18480 0.02200
C 	C 	0.73420 0.49700 0.18570 -0.00300
C 	C 	0.74770 0.46690 0.21010 0.03700
C 	C 	0.78770 0.46440 0.23370 -0.03200
C 	C 	0.81410 0.49200 0.23290 0.20000
C 	C 	0.80060 0.52210 0.20840 -0.03300
C 	C 	0.63800 0.56550 0.08600 0.12900
C 	C 	0.64900 0.60200 0.10000 0.02200
C 	C 	0.77080 0.58620 0.16010 0.02600
C 	C 	0.79390 0.59410 0.12030 -0.01200
C 	C 	0.81690 0.62320 0.11590 0.07000
C 	C 	0.81540 0.64600 0.15570 -0.12800
C 	C 	0.79390 0.63980 0.19690 0.06800
C 	C 	0.77190 0.61080 0.19800 -0.01600
C 	C 	0.83960 0.67880 0.15420 0.38800
C 	C 	0.17570 0.55070 0.19340 -0.00600
C 	C 	0.13890 0.54770 0.16180 0.11200
C 	C 	0.10860 0.57400 0.16060 -0.02500
C 	C 	0.11720 0.60240 0.18470 0.01100
C 	C 	0.16950 0.64250 0.23390 -0.00900
C 	C 	0.21060 0.64650 0.26060 0.15500
C 	C 	0.23800 0.61930 0.26190 -0.01000
C 	C 	0.22600 0.58970 0.24470 0.02400
C 	C 	0.18560 0.58050 0.21280 0.00400
C 	C 	0.15720 0.61100 0.21150 0.00800
C 	C 	0.09050 0.50820 0.11320 0.09100
C 	C 	0.09010 0.47210 0.09950 -0.00000
C 	C 	0.08270 0.63080 0.18140 0.02100
C 	C 	0.07070 0.64610 0.22750 -0.01500
C 	C 	0.03840 0.66890 0.22340 0.07900
C 	C 	0.01660 0.67620 0.17700 -0.14600
C 	C 	0.03240 0.65940 0.13040 0.06300
C 	C 	0.06340 0.63810 0.13600 -0.02300
C 	C 	0.98300 0.69840 0.17310 0.38900
C 	C 	0.20990 0.52260 0.18600 -0.01100
C 	C 	0.20480 0.49400 0.21650 0.11700
C 	C 	0.23080 0.46630 0.21410 -0.02800
C 	C 	0.26190 0.46710 0.18110 0.01200
C 	C 	0.26690 0.49560 0.15050 0.01000
C 	C 	0.24090 0.52340 0.15290 0.00200
C 	C 	0.24600 0.55200 0.12230 0.02400
C 	C 	0.27710 0.55280 0.08930 -0.01000
C 	C 	0.30310 0.52500 0.08690 0.19000
C 	C 	0.29800 0.49640 0.11750 -0.01700
C 	C 	0.15360 0.46010 0.25700 0.08300
C 	C 	0.10930 0.46710 0.27200 0.00200
C 	C 	0.28520 0.43440 0.17950 0.01000
C 	C 	0.31750 0.42720 0.21720 -0.00800
C 	C 	0.34360 0.40010 0.21020 0.04100
C 	C 	0.33740 0.38020 0.16530 -0.06800
C 	C 	0.30510 0.38740 0.12760 0.06100
C 	C 	0.27900 0.41450 0.13460 -0.00400
C 	C 	0.36050 0.34290 0.16300 0.32400
Zn	Zn	0.40316 0.21771 0.11179 1.20600
Zn	Zn	0.44161 0.25850 0.21049 1.21700
Zn	Zn	0.39893 0.29730 0.11284 1.20700
Zn	Zn	0.34293 0.25257 0.18246 1.16300
Cl	Cl	0.21760 0.28410 0.79600 -0.28400
Cl	Cl	0.33030 0.13410 0.49460 -0.30100
Cl	Cl	0.17200 0.86160 0.99890 -0.31500
Cl	Cl	0.35470 0.99260 0.27160 -0.35000
Cl	Cl	0.72450 0.18600 0.28320 -0.29400
Cl	Cl	0.82840 0.02450 0.03130 -0.19100
Cl	Cl	0.85340 0.03120 0.07500 -0.18800
O 	O 	0.39580 0.25790 0.15570 -0.97200
O 	O 	0.40270 0.22770 0.03870 -0.50700
O 	O 	0.39430 0.28470 0.03700 -0.45600
O 	O 	0.43120 0.24020 0.67800 -0.19000
O 	O 	0.42700 0.26500 0.28070 -0.48800
O 	O 	0.36140 0.25600 0.26110 -0.50900
O 	O 	0.37300 0.31920 0.62760 -0.18500
O 	O 	0.98160 0.79340 0.19900 -0.49200
O 	O 	0.95670 0.81560 0.12310 -0.48500
O 	O 	0.15550 0.98300 0.24810 -0.17800
O 	O 	0.33100 0.20250 0.18430 -0.50600
O 	O 	0.36520 0.18080 0.12010 -0.49200
O 	O 	0.14710 0.03050 0.09720 -0.17000
O 	O 	0.45730 0.19640 0.13050 -0.46900
O 	O 	0.47630 0.21700 0.21130 -0.47600
O 	O 	0.63090 0.01540 0.13850 -0.19100
O 	O 	0.88460 0.83450 0.19960 -0.36000
O 	O 	0.85930 0.83480 0.11740 -0.45200
O 	O 	0.67190 0.99330 0.24810 -0.18500
C 	C 	0.36330 0.25950 0.68070 -0.01100
C 	C 	0.39840 0.24920 0.70880 0.11600
C 	C 	0.40500 0.25000 0.76070 -0.02300
C 	C 	0.37050 0.25950 0.78910 0.01100
C 	C 	0.29520 0.27100 0.78990 0.00200
C 	C 	0.25810 0.27810 0.76340 0.18000
C 	C 	0.25650 0.28250 0.70690 0.02600
C 	C 	0.28930 0.27520 0.68160 0.04300
C 	C 	0.33020 0.26690 0.70650 0.02200
C 	C 	0.33670 0.26590 0.76420 0.02100
C 	C 	0.46960 0.25810 0.68760 0.09300
C 	C 	0.46910 0.28810 0.66060 0.00200
C 	C 	0.37710 0.25800 0.84850 0.02300
C 	C 	0.37130 0.28510 0.87690 -0.01200
C 	C 	0.37810 0.28520 0.93120 0.09400
C 	C 	0.39180 0.25750 0.95660 -0.14300
C 	C 	0.39550 0.22850 0.92810 0.06700
C 	C 	0.39030 0.22750 0.87350 -0.01700
C 	C 	0.39570 0.25460 0.01440 0.38700
C 	C 	0.36100 0.25970 0.62160 0.00500
C 	C 	0.36810 0.29060 0.59460 0.11100
C 	C 	0.36990 0.29100 0.54070 -0.02500
C 	C 	0.36510 0.26330 0.51300 0.00900
C 	C 	0.35010 0.20080 0.50600 -0.01300
C 	C 	0.33870 0.17100 0.53180 0.14900
C 	C 	0.33450 0.17140 0.58540 -0.00300
C 	C 	0.34250 0.20250 0.61330 0.04400
C 	C 	0.35410 0.22830 0.59100 -0.00600
C 	C 	0.35460 0.23110 0.53320 0.01300
C 	C 	0.38370 0.35160 0.60520 0.09200
C 	C 	0.39050 0.37720 0.64780 0.02200
C 	C 	0.37000 0.26470 0.45490 0.02100
C 	C 	0.40880 0.26750 0.43960 -0.02100
C 	C 	0.41690 0.26650 0.38660 0.08100
C 	C 	0.38560 0.26370 0.34940 -0.16200
C 	C 	0.34420 0.26000 0.36400 0.06000
C 	C 	0.33830 0.26110 0.41650 -0.01700
C 	C 	0.39140 0.26150 0.29450 0.43900
C 	C 	0.16720 0.96710 0.16060 0.00100
C 	C 	0.14000 0.96450 0.19850 0.10100
C 	C 	0.11340 0.93690 0.19830 -0.00700
C 	C 	0.11420 0.91190 0.16010 0.01900
C 	C 	0.14140 0.91450 0.12220 0.01900
C 	C 	0.16800 0.94210 0.12240 0.00200
C 	C 	0.19520 0.94480 0.08450 0.03400
C 	C 	0.19600 0.91980 0.04630 -0.01100
C 	C 	0.16950 0.89220 0.04600 0.16000
C 	C 	0.14220 0.88950 0.08400 -0.01300
C 	C 	0.14640 0.97310 0.29840 0.12500
C 	C 	0.10050 0.98410 0.28800 0.03800
C 	C 	0.07980 0.88360 0.15820 0.02300
C 	C 	0.05310 0.88120 0.11660 -0.01400
C 	C 	0.01990 0.85860 0.11990 0.08900
C 	C 	0.01690 0.83580 0.16160 -0.18500
C 	C 	0.04590 0.83950 0.20140 0.09000
C 	C 	0.08060 0.86090 0.20070 -0.00300
C 	C 	0.98360 0.81420 0.16120 0.44800
C 	C 	0.19420 0.99940 0.16210 0.00100
C 	C 	0.18070 0.02950 0.13760 0.10900
C 	C 	0.20720 0.05710 0.13680 -0.00700
C 	C 	0.24710 0.05460 0.16040 0.00400
C 	C 	0.26070 0.02460 0.18480 0.02200
C 	C 	0.23420 0.99700 0.18570 -0.00300
C 	C 	0.24770 0.96690 0.21010 0.03700
C 	C 	0.28770 0.96440 0.23370 -0.03200
C 	C 	0.31410 0.99200 0.23290 0.20000
C 	C 	0.30060 0.02210 0.20840 -0.03300
C 	C 	0.13800 0.06550 0.08600 0.12900
C 	C 	0.14900 0.10200 0.10000 0.02200
C 	C 	0.27080 0.08620 0.16010 0.02600
C 	C 	0.29390 0.09410 0.12030 -0.01200
C 	C 	0.31690 0.12320 0.11590 0.07000
C 	C 	0.31540 0.14600 0.15570 -0.12800
C 	C 	0.29390 0.13980 0.19690 0.06800
C 	C 	0.27190 0.11080 0.19800 -0.01600
C 	C 	0.33960 0.17880 0.15420 0.38800
C 	C 	0.67570 0.05070 0.19340 -0.00600
C 	C 	0.63890 0.04770 0.16180 0.11200
C 	C 	0.60860 0.07400 0.16060 -0.02500
C 	C 	0.61720 0.10240 0.18470 0.01100
C 	C 	0.66950 0.14250 0.23390 -0.00900
C 	C 	0.71060 0.14650 0.26060 0.15500
C 	C 	0.73800 0.11930 0.26190 -0.01000
C 	C 	0.72600 0.08970 0.24470 0.02400
C 	C 	0.68560 0.08050 0.21280 0.00400
C 	C 	0.65720 0.11100 0.21150 0.00800
C 	C 	0.59050 0.00820 0.11320 0.09100
C 	C 	0.59010 0.97210 0.09950 -0.00000
C 	C 	0.58270 0.13080 0.18140 0.02100
C 	C 	0.57070 0.14610 0.22750 -0.01500
C 	C 	0.53840 0.16890 0.22340 0.07900
C 	C 	0.51660 0.17620 0.17700 -0.14600
C 	C 	0.53240 0.15940 0.13040 0.06300
C 	C 	0.56340 0.13810 0.13600 -0.02300
C 	C 	0.48300 0.19840 0.17310 0.38900
C 	C 	0.70990 0.02260 0.18600 -0.01100
C 	C 	0.70480 0.99400 0.21650 0.11700
C 	C 	0.73080 0.96630 0.21410 -0.02800
C 	C 	0.76190 0.96710 0.18110 0.01200
C 	C 	0.76690 0.99560 0.15050 0.01000
C 	C 	0.74090 0.02340 0.15290 0.00100
C 	C 	0.74600 0.05200 0.12230 0.02400
C 	C 	0.77710 0.05280 0.08930 -0.01000
C 	C 	0.80310 0.02500 0.08690 0.19000
C 	C 	0.79800 0.99640 0.11750 -0.01700
C 	C 	0.65360 0.96010 0.25700 0.08300
C 	C 	0.60930 0.96710 0.27200 0.00200
C 	C 	0.78520 0.93440 0.17950 0.01000
C 	C 	0.81750 0.92720 0.21720 -0.00800
C 	C 	0.84360 0.90010 0.21020 0.04100
C 	C 	0.83740 0.88020 0.16530 -0.06800
C 	C 	0.80510 0.88740 0.12760 0.06100
C 	C 	0.77900 0.91450 0.13460 -0.00400
C 	C 	0.86050 0.84290 0.16300 0.32400
