data_crystal

_cell_length_a 18.60860
_cell_length_b 20.24220
_cell_length_c 20.81350
_cell_angle_alpha 70.42100
_cell_angle_beta  68.95500
_cell_angle_gamma 68.03100

_symmetry_space_group_name_	'P 1'
_symmetry_space_group_name_H-M	'P 1'

loop_
_symmetry_equiv_pos_as_xyz
  x,y,z

loop_
_atom_site_label
_atom_site_type_symbol
_atom_site_fract_x
_atom_site_fract_y
_atom_site_fract_z
_atom_site_charge
Zn	Zn	0.36447 0.21225 0.52309 1.20500
Zn	Zn	0.38468 0.35848 0.52669 1.21500
Zn	Zn	0.21932 0.35233 0.52529 1.20400
Zn	Zn	0.36429 0.34106 0.38270 1.17300
Zn	Zn	0.80098 0.79175 0.09395 1.20900
Zn	Zn	0.80413 0.92156 0.95983 1.20700
Zn	Zn	0.94887 0.77754 0.95973 1.21300
Zn	Zn	0.77454 0.77668 0.95546 1.17900
H 	H 	0.23330 0.06890 0.66870 0.05700
H 	H 	0.48410 0.53990 0.42460 0.04000
H 	H 	0.94140 0.05590 0.81590 0.05900
H 	H 	0.63650 0.67470 0.24090 0.05800
H 	H 	0.53940 0.45410 0.25920 0.04700
H 	H 	0.54910 0.62590 0.35540 0.07100
H 	H 	0.88740 0.61590 0.83220 0.02300
H 	H 	0.93840 0.67850 0.24180 0.06100
H 	H 	0.07990 0.47160 0.68430 0.06100
H 	H 	0.60310 0.94750 0.36200 0.07600
H 	H 	0.52420 0.03010 0.43050 0.03600
H 	H 	0.03880 0.53140 0.43340 0.04000
H 	H 	0.13360 0.88370 0.83320 0.03900
H 	H 	0.95900 0.61780 0.36330 0.07100
H 	H 	0.67830 0.09040 0.07060 0.03800
H 	H 	0.60800 0.17180 0.13900 0.05200
H 	H 	0.67710 0.92300 0.24180 0.06500
H 	H 	0.21700 0.94980 0.75120 0.06800
H 	H 	0.52920 0.19700 0.26050 0.03700
H 	H 	0.12410 0.63940 0.07230 0.03600
H 	H 	0.09550 0.64220 0.81730 0.05700
H 	H 	0.20560 0.56580 0.14080 0.05700
H 	H 	0.22610 0.50270 0.26310 0.03800
H 	H 	0.22260 0.57590 0.74340 0.06500
H 	H 	0.95260 0.53290 0.76270 0.07000
H 	H 	0.28850 0.49810 0.66900 0.04300
H 	H 	0.95950 0.17260 0.73330 0.06900
H 	H 	0.69950 0.58270 0.07670 0.02900
H 	H 	0.55960 0.95830 0.73760 0.06800
H 	H 	0.03930 0.24250 0.65490 0.03400
H 	H 	0.50870 0.07650 0.65770 0.06000
H 	H 	0.62350 0.50490 0.14330 0.05900
H 	H 	0.56860 0.25340 0.63960 0.03700
H 	H 	0.71000 0.06660 0.78630 0.05100
H 	H 	0.65090 0.88900 0.80620 0.01300
H 	H 	0.65720 0.18310 0.70750 0.06100
C 	C 	0.46040 0.43260 0.39470 0.40500
C 	C 	0.94010 0.68930 0.88070 0.40100
C 	C 	0.97510 0.91910 0.88560 0.38100
C 	C 	0.20030 0.20760 0.60260 0.38000
C 	C 	0.17810 0.09030 0.68290 -0.02900
C 	C 	0.50920 0.54010 0.37700 0.02400
C 	C 	0.50600 0.48770 0.34780 -0.09900
C 	C 	0.99680 0.03510 0.80280 -0.03500
C 	C 	0.63450 0.64030 0.22160 -0.03200
C 	C 	0.54290 0.48780 0.27830 -0.02800
C 	C 	0.98490 0.63690 0.83200 -0.10400
C 	C 	0.12950 0.04680 0.73380 0.02300
C 	C 	0.58930 0.59030 0.26420 0.02800
C 	C 	0.14690 0.16300 0.65370 -0.09800
C 	C 	0.54870 0.59080 0.33610 -0.09800
C 	C 	0.04560 0.07890 0.75240 0.03000
C 	C 	0.94310 0.60430 0.81460 0.03500
C 	C 	0.02890 0.96320 0.83270 -0.08900
C 	C 	0.04150 0.60910 0.26770 0.02700
C 	C 	0.99210 0.65550 0.22230 -0.03500
C 	C 	0.10830 0.49270 0.69640 -0.03800
C 	C 	0.58890 0.99720 0.34090 -0.11200
C 	C 	0.54140 0.04690 0.38170 0.03400
C 	C 	0.51820 0.12200 0.35200 -0.11100
C 	C 	0.61610 0.02140 0.26710 0.03900
C 	C 	0.14010 0.50880 0.35470 -0.09700
C 	C 	0.06680 0.53930 0.74320 0.03700
C 	C 	0.06000 0.54290 0.38460 0.02200
C 	C 	0.46410 0.17490 0.39750 0.38700
C 	C 	0.11160 0.93250 0.81280 0.02100
C 	C 	0.01160 0.59360 0.34250 -0.09800
C 	C 	0.66350 0.07380 0.11950 0.00400
C 	C 	0.67530 0.63860 0.15230 -0.10000
C 	C 	0.62050 0.12200 0.16000 -0.08300
C 	C 	0.23260 0.42830 0.61770 0.39400
C 	C 	0.02200 0.66720 0.15030 -0.09300
C 	C 	0.72370 0.69060 0.10790 0.38400
C 	C 	0.19300 0.45350 0.40020 0.36500
C 	C 	0.66240 0.97310 0.22230 -0.05100
C 	C 	0.68640 0.99850 0.15010 -0.07900
C 	C 	0.16190 0.97200 0.76420 -0.09100
C 	C 	0.19010 0.47760 0.66800 -0.09100
C 	C 	0.59330 0.09780 0.23600 0.00300
C 	C 	0.73450 0.94470 0.10360 0.37100
C 	C 	0.54410 0.14700 0.28040 -0.02100
C 	C 	0.96750 0.71340 0.10320 0.39200
C 	C 	0.10380 0.63160 0.12120 0.02000
C 	C 	0.06750 0.62050 0.80530 -0.02300
C 	C 	0.15220 0.58780 0.16180 -0.09500
C 	C 	0.10970 0.57240 0.76090 0.02000
C 	C 	0.12350 0.57350 0.23790 0.01700
C 	C 	0.58620 0.53800 0.23500 0.01900
C 	C 	0.17210 0.52450 0.28250 -0.03300
C 	C 	0.19330 0.55520 0.73180 -0.08700
C 	C 	0.98160 0.55550 0.77240 -0.11000
C 	C 	0.23290 0.50890 0.68700 0.02000
C 	C 	0.01490 0.15150 0.72140 -0.10200
C 	C 	0.67140 0.58510 0.12340 0.01600
C 	C 	0.59170 0.97960 0.74480 -0.11000
C 	C 	0.58930 0.05330 0.71270 0.03600
C 	C 	0.46970 0.21520 0.59920 0.39300
C 	C 	0.06250 0.19350 0.67400 0.02700
C 	C 	0.52780 0.17150 0.64300 -0.09300
C 	C 	0.73820 0.92910 0.85690 0.39000
C 	C 	0.53740 0.09800 0.66910 -0.03900
C 	C 	0.68740 0.97310 0.80480 -0.10800
C 	C 	0.62690 0.53780 0.16350 -0.09500
C 	C 	0.57370 0.20370 0.65770 0.01500
C 	C 	0.68140 0.04450 0.77530 -0.01800
C 	C 	0.63340 0.08690 0.72840 0.01400
C 	C 	0.64430 0.93900 0.78820 0.02300
C 	C 	0.62620 0.16150 0.69910 -0.08700
O 	O 	0.33436 0.31732 0.48980 -0.96000
O 	O 	0.83428 0.81613 0.99137 -0.95900
O 	O 	0.00620 0.85140 0.90356 -0.48500
O 	O 	0.15640 0.42470 0.46280 -0.49000
O 	O 	0.43030 0.14789 0.45914 -0.50200
O 	O 	0.19140 0.40440 0.59990 -0.49900
O 	O 	0.27420 0.17412 0.58436 -0.50700
O 	O 	0.90270 0.95270 0.90710 -0.49800
O 	O 	0.30780 0.41410 0.59730 -0.49500
O 	O 	0.43910 0.42840 0.45977 -0.49500
O 	O 	0.98580 0.71120 0.89800 -0.48800
O 	O 	0.73210 0.72900 0.14030 -0.50300
O 	O 	0.46290 0.28324 0.57665 -0.49400
O 	O 	0.75300 0.97130 0.03757 -0.50300
O 	O 	0.00010 0.72190 0.03732 -0.49200
O 	O 	0.74400 0.96810 0.89120 -0.50700
O 	O 	0.44660 0.39590 0.36567 -0.49600
O 	O 	0.89560 0.74100 0.13166 -0.50000
O 	O 	0.74990 0.87770 0.13396 -0.50300
O 	O 	0.43220 0.18260 0.58860 -0.50300
O 	O 	0.16750 0.27430 0.57922 -0.50700
O 	O 	0.86700 0.70680 0.89888 -0.50100
O 	O 	0.26640 0.43970 0.37587 -0.50500
O 	O 	0.45550 0.24180 0.37050 -0.51300
O 	O 	0.75660 0.69030 0.04520 -0.50800
O 	O 	0.76241 0.86330 0.86618 -0.52500
Zn	Zn	0.63553 0.78775 0.47691 1.20600
Zn	Zn	0.61532 0.64152 0.47331 1.21600
Zn	Zn	0.78068 0.64767 0.47471 1.20500
Zn	Zn	0.63571 0.65894 0.61730 1.17400
Zn	Zn	0.19902 0.20825 0.90605 1.20900
Zn	Zn	0.19587 0.07844 0.04017 1.20700
Zn	Zn	0.05113 0.22246 0.04027 1.21300
Zn	Zn	0.22546 0.22332 0.04454 1.17900
H 	H 	0.76670 0.93110 0.33130 0.05700
H 	H 	0.51590 0.46010 0.57540 0.04000
H 	H 	0.05860 0.94410 0.18410 0.05900
H 	H 	0.36350 0.32530 0.75910 0.05800
H 	H 	0.46060 0.54590 0.74080 0.04700
H 	H 	0.45090 0.37410 0.64460 0.07100
H 	H 	0.11260 0.38410 0.16780 0.02300
H 	H 	0.06160 0.32150 0.75820 0.06100
H 	H 	0.92010 0.52840 0.31570 0.06100
H 	H 	0.39690 0.05250 0.63800 0.07600
H 	H 	0.47580 0.96990 0.56950 0.03600
H 	H 	0.96120 0.46860 0.56660 0.04000
H 	H 	0.86640 0.11630 0.16680 0.03900
H 	H 	0.04100 0.38220 0.63670 0.07100
H 	H 	0.32170 0.90960 0.92940 0.03800
H 	H 	0.39200 0.82820 0.86100 0.05200
H 	H 	0.32290 0.07700 0.75820 0.06500
H 	H 	0.78300 0.05020 0.24880 0.06800
H 	H 	0.47080 0.80300 0.73950 0.03700
H 	H 	0.87590 0.36060 0.92770 0.03600
H 	H 	0.90450 0.35780 0.18270 0.05700
H 	H 	0.79440 0.43420 0.85920 0.05700
H 	H 	0.77390 0.49730 0.73690 0.03800
H 	H 	0.77740 0.42410 0.25660 0.06500
H 	H 	0.04740 0.46710 0.23730 0.07000
H 	H 	0.71150 0.50190 0.33100 0.04300
H 	H 	0.04050 0.82740 0.26670 0.06900
H 	H 	0.30050 0.41730 0.92330 0.02900
H 	H 	0.44040 0.04170 0.26240 0.06800
H 	H 	0.96070 0.75750 0.34510 0.03400
H 	H 	0.49130 0.92350 0.34230 0.06000
H 	H 	0.37650 0.49510 0.85670 0.05900
H 	H 	0.43140 0.74660 0.36040 0.03700
H 	H 	0.29000 0.93340 0.21370 0.05100
H 	H 	0.34910 0.11100 0.19380 0.01300
H 	H 	0.34280 0.81690 0.29250 0.06100
C 	C 	0.53960 0.56740 0.60530 0.40500
C 	C 	0.05990 0.31070 0.11930 0.40100
C 	C 	0.02490 0.08090 0.11440 0.38100
C 	C 	0.79970 0.79240 0.39740 0.38000
C 	C 	0.82190 0.90970 0.31710 -0.02900
C 	C 	0.49080 0.45990 0.62300 0.02400
C 	C 	0.49400 0.51230 0.65220 -0.09900
C 	C 	0.00320 0.96490 0.19720 -0.03500
C 	C 	0.36550 0.35970 0.77840 -0.03200
C 	C 	0.45710 0.51220 0.72170 -0.02800
C 	C 	0.01510 0.36310 0.16800 -0.10400
C 	C 	0.87050 0.95320 0.26620 0.02300
C 	C 	0.41070 0.40970 0.73580 0.02800
C 	C 	0.85310 0.83700 0.34630 -0.09800
C 	C 	0.45130 0.40920 0.66390 -0.09800
C 	C 	0.95440 0.92110 0.24760 0.03000
C 	C 	0.05690 0.39570 0.18540 0.03500
C 	C 	0.97110 0.03680 0.16730 -0.08900
C 	C 	0.95850 0.39090 0.73230 0.02700
C 	C 	0.00790 0.34450 0.77770 -0.03500
C 	C 	0.89170 0.50730 0.30360 -0.03800
C 	C 	0.41110 0.00280 0.65910 -0.11200
C 	C 	0.45860 0.95310 0.61830 0.03400
C 	C 	0.48180 0.87800 0.64800 -0.11100
C 	C 	0.38390 0.97860 0.73290 0.03900
C 	C 	0.85990 0.49120 0.64530 -0.09700
C 	C 	0.93320 0.46070 0.25680 0.03700
C 	C 	0.94000 0.45710 0.61540 0.02200
C 	C 	0.53590 0.82510 0.60250 0.38700
C 	C 	0.88840 0.06750 0.18720 0.02100
C 	C 	0.98840 0.40640 0.65750 -0.09800
C 	C 	0.33650 0.92620 0.88050 0.00400
C 	C 	0.32470 0.36140 0.84770 -0.10000
C 	C 	0.37950 0.87800 0.84000 -0.08300
C 	C 	0.76740 0.57170 0.38230 0.39400
C 	C 	0.97800 0.33280 0.84970 -0.09300
C 	C 	0.27630 0.30940 0.89210 0.38400
C 	C 	0.80700 0.54650 0.59980 0.36500
C 	C 	0.33760 0.02690 0.77770 -0.05100
C 	C 	0.31360 0.00150 0.84990 -0.07900
C 	C 	0.83810 0.02800 0.23580 -0.09100
C 	C 	0.80990 0.52240 0.33200 -0.09100
C 	C 	0.40670 0.90220 0.76400 0.00300
C 	C 	0.26550 0.05530 0.89640 0.37100
C 	C 	0.45590 0.85300 0.71960 -0.02100
C 	C 	0.03250 0.28660 0.89680 0.39200
C 	C 	0.89620 0.36840 0.87880 0.02000
C 	C 	0.93250 0.37950 0.19470 -0.02300
C 	C 	0.84780 0.41220 0.83820 -0.09500
C 	C 	0.89030 0.42760 0.23910 0.02000
C 	C 	0.87650 0.42650 0.76210 0.01700
C 	C 	0.41380 0.46200 0.76500 0.01900
C 	C 	0.82790 0.47550 0.71750 -0.03300
C 	C 	0.80670 0.44480 0.26820 -0.08700
C 	C 	0.01840 0.44450 0.22760 -0.11000
C 	C 	0.76710 0.49110 0.31300 0.02000
C 	C 	0.98510 0.84850 0.27860 -0.10200
C 	C 	0.32860 0.41490 0.87660 0.01600
C 	C 	0.40830 0.02040 0.25520 -0.11000
C 	C 	0.41070 0.94670 0.28730 0.03600
C 	C 	0.53030 0.78480 0.40080 0.39300
C 	C 	0.93750 0.80650 0.32600 0.02700
C 	C 	0.47220 0.82850 0.35700 -0.09300
C 	C 	0.26180 0.07090 0.14310 0.39000
C 	C 	0.46260 0.90200 0.33090 -0.03900
C 	C 	0.31260 0.02690 0.19520 -0.10800
C 	C 	0.37310 0.46220 0.83650 -0.09500
C 	C 	0.42630 0.79630 0.34230 0.01500
C 	C 	0.31860 0.95550 0.22470 -0.01800
C 	C 	0.36660 0.91310 0.27160 0.01400
C 	C 	0.35570 0.06100 0.21180 0.02300
C 	C 	0.37380 0.83850 0.30090 -0.08700
O 	O 	0.66564 0.68268 0.51020 -0.96000
O 	O 	0.16572 0.18387 0.00863 -0.95900
O 	O 	0.99380 0.14860 0.09644 -0.48500
O 	O 	0.84360 0.57530 0.53720 -0.49000
O 	O 	0.56970 0.85211 0.54086 -0.50200
O 	O 	0.80860 0.59560 0.40010 -0.49900
O 	O 	0.72580 0.82588 0.41564 -0.50700
O 	O 	0.09730 0.04730 0.09290 -0.49800
O 	O 	0.69220 0.58590 0.40270 -0.49500
O 	O 	0.56090 0.57160 0.54023 -0.49500
O 	O 	0.01420 0.28880 0.10200 -0.48800
O 	O 	0.26790 0.27100 0.85970 -0.50300
O 	O 	0.53710 0.71676 0.42335 -0.49400
O 	O 	0.24700 0.02870 0.96243 -0.50300
O 	O 	0.99990 0.27810 0.96268 -0.49200
O 	O 	0.25600 0.03190 0.10880 -0.50700
O 	O 	0.55340 0.60410 0.63433 -0.49600
O 	O 	0.10440 0.25900 0.86834 -0.50000
O 	O 	0.25010 0.12230 0.86604 -0.50300
O 	O 	0.56780 0.81740 0.41140 -0.50300
O 	O 	0.83250 0.72570 0.42078 -0.50700
O 	O 	0.13300 0.29320 0.10112 -0.50100
O 	O 	0.73360 0.56030 0.62413 -0.50500
O 	O 	0.54450 0.75820 0.62950 -0.51300
O 	O 	0.24340 0.30970 0.95480 -0.50800
O 	O 	0.23759 0.13670 0.13382 -0.52500
