data_crystal

_cell_length_a 19.25640
_cell_length_b 15.21000
_cell_length_c 15.21000
_cell_angle_alpha 90.00000
_cell_angle_beta  90.00000
_cell_angle_gamma 90.00000

_symmetry_space_group_name_	'P 1'
_symmetry_space_group_name_H-M	'P 1'

loop_
_symmetry_equiv_pos_as_xyz
  x,y,z

loop_
_atom_site_label
_atom_site_type_symbol
_atom_site_fract_x
_atom_site_fract_y
_atom_site_fract_z
_atom_site_charge
Zn	Zn	0.33310 0.00630 0.99312 1.26200
Zn	Zn	0.16716 0.00628 0.99315 1.26200
H 	H 	0.35932 0.97507 0.71977 0.03700
H 	H 	0.35930 0.97280 0.55946 0.05300
H 	H 	0.35893 0.03894 0.26661 0.02200
H 	H 	0.35887 0.04107 0.42690 0.03400
H 	H 	0.35930 0.27960 0.02430 0.02800
H 	H 	0.35925 0.43988 0.02668 0.04500
H 	H 	0.35923 0.73286 0.96190 0.03500
H 	H 	0.35919 0.57259 0.95953 0.04600
H 	H 	0.14102 0.03661 0.71959 0.02100
H 	H 	0.14115 0.03887 0.55935 0.03400
H 	H 	0.14147 0.97286 0.26666 0.03500
H 	H 	0.14159 0.97055 0.42692 0.05200
H 	H 	0.14114 0.73273 1.02460 0.03600
H 	H 	0.14127 0.57252 1.02702 0.04600
H 	H 	0.14109 0.27968 0.96226 0.02900
H 	H 	0.14121 0.43993 0.95981 0.04600
C 	C 	0.25012 0.00589 0.83379 0.41500
C 	C 	0.25015 0.00581 0.73402 -0.17500
C 	C 	0.25022 0.00581 0.54354 -0.02000
C 	C 	0.25016 0.00596 0.15253 0.41400
C 	C 	0.25020 0.00587 0.25230 -0.16900
C 	C 	0.25023 0.00581 0.44278 -0.01900
C 	C 	0.25017 0.16560 -0.00671 0.39900
C 	C 	0.25019 0.26535 -0.00669 -0.12200
C 	C 	0.25023 0.45583 0.99326 0.03200
C 	C 	0.25014 0.84687 0.99324 0.40200
C 	C 	0.25018 0.74711 0.99325 -0.10500
C 	C 	0.25023 0.55662 0.99326 0.02000
C 	C 	0.45984 0.91614 0.98126 0.00900
C 	C 	0.45982 0.04203 0.07720 -0.04300
C 	C 	0.45979 0.06219 0.92031 -0.04200
C 	C 	0.04041 0.06366 0.92149 -0.04200
C 	C 	0.04037 0.91641 0.97948 0.00600
C 	C 	0.04037 0.04033 0.07794 -0.04000
C 	C 	0.31121 0.98896 0.68562 0.08500
C 	C 	0.31118 0.98839 0.59261 -0.02200
C 	C 	0.31102 0.02395 0.30072 0.03200
C 	C 	0.31097 0.02448 0.39373 -0.07200
C 	C 	0.31121 0.31375 0.01030 0.03000
C 	C 	0.31116 0.40676 0.01089 -0.07800
C 	C 	0.31117 0.69872 0.97607 0.02600
C 	C 	0.31113 0.60570 0.97546 -0.06200
C 	C 	0.18914 0.02267 0.68554 0.03400
C 	C 	0.18924 0.02324 0.59254 -0.07300
C 	C 	0.18940 0.98777 0.30075 0.07700
C 	C 	0.18948 0.98716 0.39375 -0.02100
C 	C 	0.18922 0.69865 1.01045 0.02600
C 	C 	0.18932 0.60566 1.01107 -0.06200
C 	C 	0.18919 0.31379 0.97627 0.03400
C 	C 	0.18929 0.40679 0.97563 -0.07100
N 	N 	0.43318 0.00671 0.99295 -0.23500
N 	N 	0.06703 0.00673 0.99299 -0.23500
O 	O 	0.30754 0.88892 0.99293 -0.44300
O 	O 	0.19272 0.88888 0.99351 -0.44300
O 	O 	0.19274 0.00570 0.11052 -0.49700
O 	O 	0.19265 0.00624 0.87579 -0.49400
O 	O 	0.19267 0.12361 0.99302 -0.47300
O 	O 	0.30757 0.00635 0.11049 -0.49300
O 	O 	0.30756 0.00569 0.87581 -0.49900
O 	O 	0.30766 0.12361 0.99351 -0.47200
H 	H 	0.44026 0.87317 0.03501 0.02700
H 	H 	0.44019 0.88820 0.91840 0.03600
H 	H 	0.43978 0.10981 0.08781 0.03200
H 	H 	0.44071 0.00125 0.13285 0.02400
H 	H 	0.44026 0.03727 0.85619 0.02100
H 	H 	0.44015 0.13059 0.92749 0.03500
H 	H 	0.06024 0.13183 0.92982 0.03400
H 	H 	0.05972 0.03981 0.85687 0.02500
H 	H 	0.06030 0.88956 0.91629 0.03800
H 	H 	0.05965 0.87251 0.03263 0.02600
H 	H 	0.05968 -0.00136 0.13278 0.02000
H 	H 	0.06019 0.10801 0.08975 0.03100
Zn	Zn	0.83309 0.00631 0.99311 1.25900
Zn	Zn	0.66716 0.00629 0.99311 1.25400
H 	H 	0.85938 0.97506 0.71973 0.06700
H 	H 	0.85934 0.97276 0.55941 0.03800
H 	H 	0.85893 0.03888 0.26655 0.01300
H 	H 	0.85891 0.04101 0.42684 0.05400
H 	H 	0.85926 0.27960 1.02424 0.03200
H 	H 	0.85921 0.43989 1.02659 0.04500
H 	H 	0.85920 0.73286 0.96179 0.03700
H 	H 	0.85914 0.57259 0.95943 0.04500
H 	H 	0.64109 0.03668 0.71957 0.07200
H 	H 	0.64120 0.03891 0.55933 -0.04300
H 	H 	0.64146 0.97289 0.26666 0.02200
H 	H 	0.64160 0.97058 0.42691 0.07200
H 	H 	0.64113 0.73276 0.02457 0.03500
H 	H 	0.64125 0.57254 0.02699 0.04300
H 	H 	0.64104 0.27969 0.96226 0.03100
H 	H 	0.64117 0.43994 0.95980 0.04600
C 	C 	0.75019 0.00591 0.83376 0.31200
C 	C 	0.75022 1.00583 0.73398 0.06500
C 	C 	0.75027 1.00581 0.54351 -0.07500
C 	C 	0.75014 0.00596 0.15250 0.36900
C 	C 	0.75019 0.00587 0.25227 -0.18900
C 	C 	0.75026 1.00580 0.44274 0.13700
C 	C 	0.75012 0.16561 -0.00674 0.38900
C 	C 	0.75014 0.26536 0.99327 -0.10800
C 	C 	0.75019 0.45584 0.99321 0.02100
C 	C 	0.75013 0.84688 -0.00681 0.35800
C 	C 	0.75016 0.74712 0.99320 -0.07600
C 	C 	0.75020 0.55663 0.99321 0.02700
C 	C 	0.95984 0.91644 0.97923 0.01000
C 	C 	0.95981 0.04012 0.07800 -0.04500
C 	C 	0.95979 0.06383 0.92160 -0.04100
C 	C 	0.54041 0.06200 0.92017 -0.04100
C 	C 	0.54037 0.91612 0.98153 0.00900
C 	C 	0.54039 0.04227 0.07711 -0.04200
C 	C 	0.81127 0.98896 0.68558 -0.05200
C 	C 	0.81123 0.98838 0.59257 0.01400
C 	C 	0.81103 0.02392 0.30067 0.07100
C 	C 	0.81099 0.02444 0.39368 -0.17100
C 	C 	0.81117 0.31376 1.01024 0.02300
C 	C 	0.81112 0.40677 1.01083 -0.06500
C 	C 	0.81114 0.69872 0.97598 0.01600
C 	C 	0.81109 0.60571 0.97538 -0.06000
C 	C 	0.68921 0.02271 0.68551 -0.18600
C 	C 	0.68929 1.02327 0.59252 0.14000
C 	C 	0.68939 0.98778 0.30073 0.11500
C 	C 	0.68950 0.98717 0.39373 -0.12100
C 	C 	0.68920 0.69867 0.01040 0.00500
C 	C 	0.68929 0.60567 0.01103 -0.06800
C 	C 	0.68914 0.31380 0.97625 0.02300
C 	C 	0.68924 0.40680 0.97561 -0.06400
N 	N 	0.93318 0.00672 0.99296 -0.23600
N 	N 	0.56704 0.00672 0.99295 -0.23800
O 	O 	0.80753 0.88893 0.99290 -0.43000
O 	O 	0.69271 0.88889 0.99346 -0.43200
O 	O 	0.69272 1.00569 0.11049 -0.42300
O 	O 	0.69273 0.00626 0.87576 -0.47100
O 	O 	0.69262 0.12363 0.99298 -0.47600
O 	O 	0.80755 0.00636 0.11045 -0.48400
O 	O 	0.80764 0.00571 0.87577 -0.47700
O 	O 	0.80761 0.12362 0.99350 -0.47300
H 	H 	0.94029 0.87227 0.03201 0.02500
H 	H 	0.94016 0.88991 0.91577 0.03400
H 	H 	0.93979 0.10766 0.09012 0.03100
H 	H 	0.94067 -0.00190 0.13270 0.02400
H 	H 	0.94026 0.04037 0.85693 0.01900
H 	H 	0.94017 0.13206 0.93032 0.03400
H 	H 	0.56027 0.13033 0.92690 0.03300
H 	H 	0.55967 0.03663 0.85611 0.02100
H 	H 	0.56029 0.88782 0.91897 0.03700
H 	H 	0.55968 0.87345 0.03566 0.02400
H 	H 	0.55972 0.00189 0.13290 0.01600
H 	H 	0.56018 0.11022 0.08734 0.02900
