data_crystal

_cell_length_a 13.08430
_cell_length_b 25.40450
_cell_length_c 16.34160
_cell_angle_alpha 90.00000
_cell_angle_beta  93.97400
_cell_angle_gamma 90.00000

_symmetry_space_group_name_	'P 1'
_symmetry_space_group_name_H-M	'P 1'

loop_
_symmetry_equiv_pos_as_xyz
  x,y,z

loop_
_atom_site_label
_atom_site_type_symbol
_atom_site_fract_x
_atom_site_fract_y
_atom_site_fract_z
_atom_site_charge
C 	C 	0.54776 0.78317 0.47782 0.04100
C 	C 	0.67354 0.73818 0.40145 0.00900
H 	H 	0.69720 0.70710 0.37930 0.04200
C 	C 	0.22458 0.90102 0.26943 0.34000
C 	C 	0.82948 0.67126 0.06082 0.34900
C 	C 	0.94466 0.74100 0.26655 0.12900
C 	C 	0.91795 0.70104 0.02906 -0.11600
C 	C 	0.11943 0.72905 0.18648 0.01800
H 	H 	0.17910 0.72480 0.15930 0.02200
C 	C 	0.72654 0.78457 0.39181 -0.06600
C 	C 	0.58561 0.73761 0.44378 -0.08500
H 	H 	0.55100 0.70600 0.44960 0.07700
C 	C 	0.82156 0.78948 0.34581 0.23300
C 	C 	0.99493 0.78369 0.23377 -0.04000
H 	H 	0.96820 0.81730 0.23910 0.05800
C 	C 	0.98494 0.69110 0.25754 -0.10000
H 	H 	0.95290 0.66190 0.27860 0.09000
C 	C 	0.29730 0.95280 0.38985 0.05700
H 	H 	0.31530 0.92110 0.41550 0.04100
C 	C 	0.69020 0.83007 0.42625 0.01200
H 	H 	0.72540 0.86150 0.42090 0.06100
C 	C 	0.24769 0.95240 0.31204 -0.08200
C 	C 	0.07296 0.68535 0.21710 -0.02900
H 	H 	0.10100 0.65210 0.21050 0.05700
C 	C 	0.91798 0.75554 0.02881 0.08900
H 	H 	0.86290 0.77380 0.04800 0.00800
C 	C 	0.60250 0.82944 0.46827 -0.08700
H 	H 	0.57940 0.86060 0.49070 0.08400
N 	N 	0.08112 0.77729 0.19471 -0.23000
N 	N 	0.85458 0.74591 0.30873 -0.24700
H 	H 	0.81690 0.71830 0.31100 0.15200
O 	O 	0.26423 0.86029 0.29660 -0.32700
O 	O 	0.16410 0.90349 0.20457 -0.43000
O 	O 	0.38550 0.95705 0.55028 -0.21800
O 	O 	0.86718 0.83111 0.34337 -0.22700
O 	O 	0.76940 0.69844 0.10246 -0.45800
O 	O 	0.81741 0.62457 0.04569 -0.29000
O 	O 	0.05888 0.86626 0.05091 -0.42900
Zn	Zn	0.15353 0.83879 0.14203 1.22500
C 	C 	0.04776 0.28317 0.47782 0.02400
C 	C 	0.17354 0.23818 0.40145 -0.00000
H 	H 	0.19720 0.20710 0.37930 0.04300
C 	C 	0.72458 0.40102 0.26943 0.34300
C 	C 	0.32948 0.17126 0.06082 0.35000
C 	C 	0.44466 0.24100 0.26655 0.13700
C 	C 	0.41795 0.20104 0.02906 -0.12500
C 	C 	0.61943 0.22905 0.18648 0.00900
H 	H 	0.67910 0.22480 0.15930 0.02600
C 	C 	0.22654 0.28457 0.39181 -0.06200
C 	C 	0.08561 0.23761 0.44378 -0.07500
H 	H 	0.05100 0.20600 0.44960 0.07100
C 	C 	0.32156 0.28948 0.34581 0.23200
C 	C 	0.49493 0.28369 0.23377 -0.05300
H 	H 	0.46820 0.31730 0.23910 0.06000
C 	C 	0.48494 0.19110 0.25754 -0.12100
H 	H 	0.45290 0.16190 0.27860 0.09500
C 	C 	0.79730 0.45280 0.38985 0.04500
H 	H 	0.81530 0.42110 0.41550 0.04400
C 	C 	0.19020 0.33007 0.42625 0.00400
H 	H 	0.22540 0.36150 0.42090 0.06200
C 	C 	0.74769 0.45240 0.31204 -0.09500
C 	C 	0.57296 0.18535 0.21710 -0.00800
H 	H 	0.60100 0.15210 0.21050 0.05000
C 	C 	0.41798 0.25554 0.02881 0.08500
H 	H 	0.36290 0.27380 0.04800 0.00900
C 	C 	0.10250 0.32944 0.46827 -0.07800
H 	H 	0.07940 0.36060 0.49070 0.07800
N 	N 	0.58112 0.27729 0.19471 -0.22400
N 	N 	0.35458 0.24591 0.30873 -0.24900
H 	H 	0.31690 0.21830 0.31100 0.15200
O 	O 	0.76423 0.36029 0.29660 -0.32700
O 	O 	0.66410 0.40349 0.20457 -0.43300
O 	O 	0.88550 0.45705 0.55028 -0.23000
O 	O 	0.36718 0.33111 0.34337 -0.23000
O 	O 	0.26940 0.19844 0.10246 -0.45900
O 	O 	0.31741 0.12457 0.04569 -0.29500
O 	O 	0.55888 0.36626 0.05091 -0.43100
Zn	Zn	0.65353 0.33879 0.14203 1.22500
C 	C 	0.45224 0.78317 0.52218 0.04100
C 	C 	0.32646 0.73818 0.59855 0.00900
H 	H 	0.30280 0.70710 0.62070 0.04100
C 	C 	0.77542 0.90102 0.73057 0.33900
C 	C 	0.17052 0.67126 0.93918 0.34700
C 	C 	0.05534 0.74100 0.73345 0.14700
C 	C 	0.08205 0.70104 0.97094 -0.10200
C 	C 	0.88057 0.72905 0.81352 0.00300
H 	H 	0.82090 0.72480 0.84070 0.03400
C 	C 	0.27346 0.78457 0.60819 -0.06700
C 	C 	0.41439 0.73761 0.55622 -0.08600
H 	H 	0.44900 0.70600 0.55040 0.07700
C 	C 	0.17844 0.78948 0.65419 0.23400
C 	C 	0.00507 0.78369 0.76623 -0.06500
H 	H 	0.03180 0.81730 0.76090 0.06500
C 	C 	0.01506 0.69110 0.74246 -0.14100
H 	H 	0.04710 0.66190 0.72140 0.10200
C 	C 	0.70270 0.95280 0.61015 0.05600
H 	H 	0.68470 0.92110 0.58450 0.04200
C 	C 	0.30980 0.83007 0.57375 0.01300
H 	H 	0.27460 0.86150 0.57910 0.06000
C 	C 	0.75231 0.95240 0.68796 -0.07800
C 	C 	0.92704 0.68535 0.78290 0.01300
H 	H 	0.89900 0.65210 0.78950 0.04900
C 	C 	0.08202 0.75554 0.97119 0.10400
H 	H 	0.13710 0.77380 0.95200 0.01300
C 	C 	0.39750 0.82944 0.53173 -0.08800
H 	H 	0.42060 0.86060 0.50930 0.08400
N 	N 	0.91888 0.77729 0.80529 -0.21500
N 	N 	0.14542 0.74591 0.69127 -0.25100
H 	H 	0.18310 0.71830 0.68900 0.15300
O 	O 	0.73577 0.86029 0.70340 -0.32500
O 	O 	0.83590 0.90349 0.79543 -0.42400
O 	O 	0.61450 0.95705 0.44972 -0.21900
O 	O 	0.13282 0.83111 0.65663 -0.23000
O 	O 	0.23060 0.69844 0.89754 -0.45100
O 	O 	0.18259 0.62457 0.95431 -0.27900
O 	O 	0.94112 0.86626 0.94909 -0.40100
Zn	Zn	0.84647 0.83879 0.85797 1.22700
C 	C 	0.95224 0.28317 0.52218 0.05800
C 	C 	0.82646 0.23818 0.59855 0.01700
H 	H 	0.80280 0.20710 0.62070 0.03800
C 	C 	0.27542 0.40102 0.73057 0.34200
C 	C 	0.67052 0.17126 0.93918 0.34900
C 	C 	0.55534 0.24100 0.73345 0.13800
C 	C 	0.58205 0.20104 0.97094 -0.10500
C 	C 	0.38057 0.22905 0.81352 0.01100
H 	H 	0.32090 0.22480 0.84070 0.03000
C 	C 	0.77346 0.28457 0.60819 -0.07300
C 	C 	0.91439 0.23761 0.55622 -0.09600
H 	H 	0.94900 0.20600 0.55040 0.08300
C 	C 	0.67844 0.28948 0.65419 0.23600
C 	C 	0.50507 0.28369 0.76623 -0.05200
H 	H 	0.53180 0.31730 0.76090 0.06200
C 	C 	0.51506 0.19110 0.74246 -0.12100
H 	H 	0.54710 0.16190 0.72140 0.09600
C 	C 	0.20270 0.45280 0.61015 0.04400
H 	H 	0.18470 0.42110 0.58450 0.04300
C 	C 	0.80980 0.33007 0.57375 0.02100
H 	H 	0.77460 0.36150 0.57910 0.05700
C 	C 	0.25231 0.45240 0.68796 -0.09400
C 	C 	0.42704 0.18535 0.78290 -0.00700
H 	H 	0.39900 0.15210 0.78950 0.05400
C 	C 	0.58202 0.25554 0.97119 0.10600
H 	H 	0.63710 0.27380 0.95200 0.01300
C 	C 	0.89750 0.32944 0.53173 -0.09900
H 	H 	0.92060 0.36060 0.50930 0.08900
N 	N 	0.41888 0.27729 0.80529 -0.22200
N 	N 	0.64542 0.24591 0.69127 -0.25000
H 	H 	0.68310 0.21830 0.68900 0.15300
O 	O 	0.23577 0.36029 0.70340 -0.32800
O 	O 	0.33590 0.40349 0.79543 -0.43000
O 	O 	0.11450 0.45705 0.44972 -0.23500
O 	O 	0.63282 0.33111 0.65663 -0.23000
O 	O 	0.73060 0.19844 0.89754 -0.45200
O 	O 	0.68259 0.12457 0.95431 -0.28000
O 	O 	0.44112 0.36626 0.94909 -0.41000
Zn	Zn	0.34647 0.33879 0.85797 1.22700
C 	C 	0.45224 0.21683 0.52218 0.04100
C 	C 	0.32646 0.26182 0.59855 0.00900
H 	H 	0.30280 0.29290 0.62070 0.04000
C 	C 	0.77542 0.09898 0.73057 0.34000
C 	C 	0.17052 0.32874 0.93918 0.34700
C 	C 	0.05534 0.25900 0.73345 0.14600
C 	C 	0.08205 0.29896 0.97094 -0.10300
C 	C 	0.88057 0.27095 0.81352 0.00300
H 	H 	0.82090 0.27520 0.84070 0.03400
C 	C 	0.27346 0.21543 0.60819 -0.06800
C 	C 	0.41439 0.26239 0.55622 -0.08600
H 	H 	0.44900 0.29400 0.55040 0.07700
C 	C 	0.17844 0.21052 0.65419 0.23500
C 	C 	0.00507 0.21631 0.76623 -0.06500
H 	H 	0.03180 0.18270 0.76090 0.06300
C 	C 	0.01506 0.30890 0.74246 -0.14100
H 	H 	0.04710 0.33810 0.72140 0.10200
C 	C 	0.70270 0.04720 0.61015 0.04200
H 	H 	0.68470 0.07890 0.58450 0.04400
C 	C 	0.30980 0.16993 0.57375 0.01400
H 	H 	0.27460 0.13850 0.57910 0.05800
C 	C 	0.75231 0.04760 0.68796 -0.08900
C 	C 	0.92704 0.31465 0.78290 0.01300
H 	H 	0.89900 0.34790 0.78950 0.04900
C 	C 	0.08202 0.24446 0.97119 0.10500
H 	H 	0.13710 0.22620 0.95200 0.01300
C 	C 	0.39750 0.17056 0.53173 -0.08900
H 	H 	0.42060 0.13940 0.50930 0.08400
N 	N 	0.91888 0.22271 0.80529 -0.21600
N 	N 	0.14542 0.25409 0.69127 -0.25100
H 	H 	0.18310 0.28170 0.68900 0.15300
O 	O 	0.73577 0.13971 0.70340 -0.32600
O 	O 	0.83590 0.09651 0.79543 -0.42900
O 	O 	0.61450 0.04295 0.44972 -0.23100
O 	O 	0.13282 0.16889 0.65663 -0.23200
O 	O 	0.23060 0.30156 0.89754 -0.45200
O 	O 	0.18259 0.37543 0.95431 -0.27900
O 	O 	0.94112 0.13374 0.94909 -0.40500
Zn	Zn	0.84647 0.16121 0.85797 1.22700
C 	C 	0.95224 0.71683 0.52218 0.05800
C 	C 	0.82646 0.76182 0.59855 0.01800
H 	H 	0.80280 0.79290 0.62070 0.03800
C 	C 	0.27542 0.59898 0.73057 0.34200
C 	C 	0.67052 0.82874 0.93918 0.34800
C 	C 	0.55534 0.75900 0.73345 0.13800
C 	C 	0.58205 0.79896 0.97094 -0.10300
C 	C 	0.38057 0.77095 0.81352 0.01200
H 	H 	0.32090 0.77520 0.84070 0.03000
C 	C 	0.77346 0.71543 0.60819 -0.07300
C 	C 	0.91439 0.76239 0.55622 -0.09600
H 	H 	0.94900 0.79400 0.55040 0.08400
C 	C 	0.67844 0.71052 0.65419 0.23600
C 	C 	0.50507 0.71631 0.76623 -0.05200
H 	H 	0.53180 0.68270 0.76090 0.06100
C 	C 	0.51506 0.80890 0.74246 -0.12100
H 	H 	0.54710 0.83810 0.72140 0.09700
C 	C 	0.20270 0.54720 0.61015 0.04400
H 	H 	0.18470 0.57890 0.58450 0.04300
C 	C 	0.80980 0.66993 0.57375 0.02100
H 	H 	0.77460 0.63850 0.57910 0.05700
C 	C 	0.25231 0.54760 0.68796 -0.09400
C 	C 	0.42704 0.81465 0.78290 -0.00800
H 	H 	0.39900 0.84790 0.78950 0.05600
C 	C 	0.58202 0.74446 0.97119 0.10500
H 	H 	0.63710 0.72620 0.95200 0.01300
C 	C 	0.89750 0.67056 0.53173 -0.09900
H 	H 	0.92060 0.63940 0.50930 0.08900
N 	N 	0.41888 0.72271 0.80529 -0.22200
N 	N 	0.64542 0.75409 0.69127 -0.25000
H 	H 	0.68310 0.78170 0.68900 0.15300
O 	O 	0.23577 0.63971 0.70340 -0.32800
O 	O 	0.33590 0.59651 0.79543 -0.43000
O 	O 	0.11450 0.54295 0.44972 -0.23500
O 	O 	0.63282 0.66889 0.65663 -0.23000
O 	O 	0.73060 0.80156 0.89754 -0.45100
O 	O 	0.68259 0.87543 0.95431 -0.27500
O 	O 	0.44112 0.63374 0.94909 -0.41000
Zn	Zn	0.34647 0.66121 0.85797 1.22700
C 	C 	0.54776 0.21683 0.47782 0.04100
C 	C 	0.67354 0.26182 0.40145 0.00900
H 	H 	0.69720 0.29290 0.37930 0.04100
C 	C 	0.22458 0.09898 0.26943 0.34000
C 	C 	0.82948 0.32874 0.06082 0.34800
C 	C 	0.94466 0.25900 0.26655 0.12900
C 	C 	0.91795 0.29896 0.02906 -0.11700
C 	C 	0.11943 0.27095 0.18648 0.01800
H 	H 	0.17910 0.27520 0.15930 0.02200
C 	C 	0.72654 0.21543 0.39181 -0.06700
C 	C 	0.58561 0.26239 0.44378 -0.08500
H 	H 	0.55100 0.29400 0.44960 0.07700
C 	C 	0.82156 0.21052 0.34581 0.23400
C 	C 	0.99493 0.21631 0.23377 -0.03900
H 	H 	0.96820 0.18270 0.23910 0.05700
C 	C 	0.98494 0.30890 0.25754 -0.10000
H 	H 	0.95290 0.33810 0.27860 0.09000
C 	C 	0.29730 0.04720 0.38985 0.04300
H 	H 	0.31530 0.07890 0.41550 0.04300
C 	C 	0.69020 0.16993 0.42625 0.01300
H 	H 	0.72540 0.13850 0.42090 0.05900
C 	C 	0.24769 0.04760 0.31204 -0.09200
C 	C 	0.07296 0.31465 0.21710 -0.02900
H 	H 	0.10100 0.34790 0.21050 0.05700
C 	C 	0.91798 0.24446 0.02881 0.09000
H 	H 	0.86290 0.22620 0.04800 0.00800
C 	C 	0.60250 0.17056 0.46827 -0.08800
H 	H 	0.57940 0.13940 0.49070 0.08400
N 	N 	0.08112 0.22271 0.19471 -0.23100
N 	N 	0.85458 0.25409 0.30873 -0.24700
H 	H 	0.81690 0.28170 0.31100 0.15200
O 	O 	0.26423 0.13971 0.29660 -0.32800
O 	O 	0.16410 0.09651 0.20457 -0.43500
O 	O 	0.38550 0.04295 0.55028 -0.23100
O 	O 	0.86718 0.16889 0.34337 -0.23000
O 	O 	0.76940 0.30156 0.10246 -0.45800
O 	O 	0.81741 0.37543 0.04569 -0.29000
O 	O 	0.05888 0.13374 0.05091 -0.43300
Zn	Zn	0.15353 0.16121 0.14203 1.22500
C 	C 	0.04776 0.71683 0.47782 0.02400
C 	C 	0.17354 0.76182 0.40145 0.00000
H 	H 	0.19720 0.79290 0.37930 0.04300
C 	C 	0.72458 0.59898 0.26943 0.34300
C 	C 	0.32948 0.82874 0.06082 0.34900
C 	C 	0.44466 0.75900 0.26655 0.13700
C 	C 	0.41795 0.79896 0.02906 -0.12300
C 	C 	0.61943 0.77095 0.18648 0.01000
H 	H 	0.67910 0.77520 0.15930 0.02600
C 	C 	0.22654 0.71543 0.39181 -0.06200
C 	C 	0.08561 0.76239 0.44378 -0.07500
H 	H 	0.05100 0.79400 0.44960 0.07100
C 	C 	0.32156 0.71052 0.34581 0.23200
C 	C 	0.49493 0.71631 0.23377 -0.05200
H 	H 	0.46820 0.68270 0.23910 0.06000
C 	C 	0.48494 0.80890 0.25754 -0.12100
H 	H 	0.45290 0.83810 0.27860 0.09600
C 	C 	0.79730 0.54720 0.38985 0.04500
H 	H 	0.81530 0.57890 0.41550 0.04400
C 	C 	0.19020 0.66993 0.42625 0.00400
H 	H 	0.22540 0.63850 0.42090 0.06200
C 	C 	0.74769 0.54760 0.31204 -0.09500
C 	C 	0.57296 0.81465 0.21710 -0.00900
H 	H 	0.60100 0.84790 0.21050 0.05300
C 	C 	0.41798 0.74446 0.02881 0.08300
H 	H 	0.36290 0.72620 0.04800 0.00900
C 	C 	0.10250 0.67056 0.46827 -0.07800
H 	H 	0.07940 0.63940 0.49070 0.07800
N 	N 	0.58112 0.72271 0.19471 -0.22400
N 	N 	0.35458 0.75409 0.30873 -0.24900
H 	H 	0.31690 0.78170 0.31100 0.15200
O 	O 	0.76423 0.63971 0.29660 -0.32700
O 	O 	0.66410 0.59651 0.20457 -0.43300
O 	O 	0.88550 0.54295 0.55028 -0.23000
O 	O 	0.36718 0.66889 0.34337 -0.23000
O 	O 	0.26940 0.80156 0.10246 -0.45800
O 	O 	0.31741 0.87543 0.04569 -0.29000
O 	O 	0.55888 0.63374 0.05091 -0.43100
Zn	Zn	0.65353 0.66121 0.14203 1.22500
C 	C 	0.22200 -0.00000 0.27470 0.02500
H 	H 	0.18670 0.00000 0.22330 0.06300
C 	C 	0.32050 0.00000 0.42980 -0.10100
C 	C 	0.36850 0.00000 0.51530 0.30600
C 	C 	0.72200 0.50000 0.27470 0.04600
H 	H 	0.68670 0.50000 0.22330 0.06200
C 	C 	0.82050 0.50000 0.42980 -0.08800
C 	C 	0.86850 0.50000 0.51530 0.32100
C 	C 	0.77800 0.00000 0.72530 0.02300
H 	H 	0.81330 0.00000 0.77670 0.06800
C 	C 	0.67950 -0.00000 0.57020 -0.09900
C 	C 	0.63150 0.00000 0.48470 0.30600
C 	C 	0.27800 0.50000 0.72530 0.04500
H 	H 	0.31330 0.50000 0.77670 0.06500
C 	C 	0.17950 0.50000 0.57020 -0.08900
C 	C 	0.13150 0.50000 0.48470 0.32000
C 	C 	-0.00000 0.67390 -0.00000 0.02000
H 	H 	0.00000 0.63730 -0.00000 0.05000
C 	C 	-0.00000 0.78304 -0.00000 -0.25300
C 	C 	-0.00000 0.84201 -0.00000 0.37800
C 	C 	0.50000 0.17390 -0.00000 0.03100
H 	H 	0.50000 0.13730 -0.00000 0.04700
C 	C 	0.50000 0.28304 -0.00000 -0.24800
C 	C 	0.50000 0.34201 -0.00000 0.38500
C 	C 	-0.00000 0.32610 -0.00000 0.02000
H 	H 	-0.00000 0.36270 -0.00000 0.05000
C 	C 	-0.00000 0.21696 -0.00000 -0.25400
C 	C 	0.00000 0.15799 -0.00000 0.37900
C 	C 	0.50000 0.82610 -0.00000 0.02900
H 	H 	0.50000 0.86270 -0.00000 0.05100
C 	C 	0.50000 0.71696 -0.00000 -0.24700
C 	C 	0.50000 0.65799 -0.00000 0.38400
