data_crystal

_cell_length_a 18.08020
_cell_length_b 18.08020
_cell_length_c 18.08020
_cell_angle_alpha 134.59420
_cell_angle_beta  98.55700
_cell_angle_gamma 98.57630

_symmetry_space_group_name_	'P 1'
_symmetry_space_group_name_H-M	'P 1'

loop_
_symmetry_equiv_pos_as_xyz
  x,y,z

loop_
_atom_site_label
_atom_site_type_symbol
_atom_site_fract_x
_atom_site_fract_y
_atom_site_fract_z
_atom_site_charge
Zn	Zn	0.73328 0.88601 0.60425 1.18900
O 	O 	0.79500 0.02790 0.66310 -0.54300
O 	O 	0.82460 0.84440 0.61220 -0.51600
N 	N 	0.19830 0.39060 0.71070 -0.31400
N 	N 	0.15300 0.79530 0.95570 -0.30000
C 	C 	0.91930 0.12810 0.65240 0.15500
H 	H 	0.87820 0.06250 0.58310 -0.02500
C 	C 	0.98590 0.18900 0.65670 -0.29100
H 	H 	0.99250 0.15650 0.58940 0.11400
C 	C 	0.14810 0.30670 0.68240 0.26200
C 	C 	0.14600 0.19230 0.59930 -0.63600
H 	H 	0.18570 0.18720 0.56590 0.15300
H 	H 	0.09250 0.14250 0.54120 0.20100
H 	H 	0.15840 0.17060 0.63500 0.19900
C 	C 	0.94500 0.84720 0.72960 0.09300
H 	H 	0.94610 0.91470 0.75500 -0.00200
C 	C 	0.00500 0.84920 0.78980 -0.19600
H 	H 	0.04670 0.91760 0.85530 0.08200
C 	C 	0.09590 0.82080 0.93050 0.26000
C 	C 	0.07380 0.91550 0.02030 -0.62300
H 	H 	0.10710 0.95020 0.09250 0.16300
H 	H 	0.01720 0.88810 0.00690 0.20000
H 	H 	0.08290 0.97060 0.02070 0.19100
Zn	Zn	0.78176 0.12903 0.89575 1.19000
O 	O 	0.86480 0.13190 0.83690 -0.54200
O 	O 	0.73220 0.21240 0.88780 -0.51500
N 	N 	0.17990 0.48760 0.78930 -0.31300
N 	N 	0.33960 0.19730 0.54430 -0.30000
C 	C 	0.97570 0.26690 0.84760 0.15500
H 	H 	0.97940 0.29510 0.91690 -0.02500
C 	C 	0.03230 0.32920 0.84330 -0.29100
H 	H 	0.06710 0.40310 0.91060 0.11400
C 	C 	0.12430 0.46570 0.81760 0.26300
C 	C 	0.09300 0.54670 0.90070 -0.63700
H 	H 	0.12130 0.61980 0.93410 0.15400
H 	H 	0.10130 0.55130 0.95880 0.20100
H 	H 	0.03560 0.52340 0.86500 0.20000
C 	C 	0.61760 0.21540 0.77040 0.09300
H 	H 	0.65970 0.19110 0.74500 -0.00200
C 	C 	0.55940 0.21520 0.71020 -0.19600
H 	H 	0.56230 0.19140 0.64470 0.08100
C 	C 	0.39030 0.16540 0.56950 0.25700
C 	C 	0.39520 0.05350 0.47970 -0.61900
H 	H 	0.35770 0.01460 0.40750 0.16300
H 	H 	0.38120 0.01030 0.49310 0.20000
H 	H 	0.44990 0.06220 0.47930 0.19100
Zn	Zn	0.71824 0.61399 0.34727 1.19000
O 	O 	0.63520 0.47210 0.26710 -0.54200
O 	O 	0.76780 0.65560 0.48020 -0.51500
N 	N 	0.32010 0.10940 0.30770 -0.31200
N 	N 	0.16040 0.70470 0.85770 -0.30000
C 	C 	0.52430 0.37190 0.29120 0.15600
H 	H 	0.52060 0.43750 0.31570 -0.02500
C 	C 	0.46770 0.31100 0.29690 -0.29100
H 	H 	0.43290 0.34350 0.33600 0.11400
C 	C 	0.37570 0.19330 0.34140 0.26300
C 	C 	0.40700 0.30770 0.45370 -0.63700
H 	H 	0.37870 0.31280 0.49850 0.15400
H 	H 	0.39870 0.35750 0.45000 0.20100
H 	H 	0.46440 0.32940 0.48780 0.20000
C 	C 	0.88240 0.65280 0.59780 0.09400
H 	H 	0.84030 0.58530 0.53140 -0.00200
C 	C 	0.94060 0.65080 0.65580 -0.19700
H 	H 	0.93770 0.58240 0.62910 0.08100
C 	C 	0.10970 0.67920 0.77510 0.25700
C 	C 	0.10480 0.58450 0.65830 -0.61900
H 	H 	0.14230 0.54980 0.65690 0.16300
H 	H 	0.11880 0.61190 0.62910 0.20000
H 	H 	0.05010 0.52940 0.61230 0.19100
Zn	Zn	0.76672 0.37097 0.15273 1.19000
O 	O 	0.70500 0.36810 0.23290 -0.54200
O 	O 	0.67540 0.28760 0.01980 -0.51300
N 	N 	0.30170 0.01240 0.19230 -0.31200
N 	N 	0.34700 0.30270 0.64230 -0.30000
C 	C 	0.58070 0.23310 0.20880 0.15600
H 	H 	0.62180 0.20490 0.18430 -0.02400
C 	C 	0.51410 0.17080 0.20310 -0.29100
H 	H 	0.50750 0.09690 0.16400 0.11500
C 	C 	0.35190 0.03430 0.15860 0.26500
C 	C 	0.35400 0.95330 0.04630 -0.63900
H 	H 	0.31430 0.88020 0.00150 0.15400
H 	H 	0.40750 0.94870 0.05000 0.20100
H 	H 	0.34160 0.97660 0.01220 0.19900
C 	C 	0.55500 0.28460 0.90220 0.09300
H 	H 	0.55390 0.30890 0.96860 -0.00300
C 	C 	0.49500 0.28480 0.84420 -0.19600
H 	H 	0.45330 0.30860 0.87090 0.08100
C 	C 	0.40410 0.33460 0.72490 0.25700
C 	C 	0.42620 0.44650 0.84170 -0.61900
H 	H 	0.39290 0.48540 0.84310 0.16300
H 	H 	0.48280 0.48970 0.87090 0.20000
H 	H 	0.41710 0.43780 0.88770 0.19100
Zn	Zn	0.26672 0.11399 0.39575 1.19000
O 	O 	0.20500 0.97210 0.33690 -0.54200
O 	O 	0.17540 0.15560 0.38780 -0.51500
N 	N 	0.80170 0.60940 0.28930 -0.31300
N 	N 	0.84700 0.20470 0.04430 -0.30000
C 	C 	0.08070 0.87190 0.34760 0.15500
H 	H 	0.12180 0.93750 0.41690 -0.02500
C 	C 	0.01410 0.81100 0.34330 -0.29100
H 	H 	0.00750 0.84350 0.41060 0.11400
C 	C 	0.85190 0.69330 0.31760 0.26200
C 	C 	0.85400 0.80770 0.40070 -0.63600
H 	H 	0.81430 0.81280 0.43410 0.15300
H 	H 	0.90750 0.85750 0.45880 0.20100
H 	H 	0.84160 0.82940 0.36500 0.19900
C 	C 	0.05500 0.15280 0.27040 0.09300
H 	H 	0.05390 0.08530 0.24500 -0.00200
C 	C 	0.99500 0.15080 0.21020 -0.19600
H 	H 	0.95330 0.08240 0.14470 0.08200
C 	C 	0.90410 0.17920 0.06950 0.26000
C 	C 	0.92620 0.08450 0.97970 -0.62300
H 	H 	0.89290 0.04980 0.90750 0.16300
H 	H 	0.98280 0.11190 0.99310 0.20000
H 	H 	0.91710 0.02940 0.97930 0.19100
Zn	Zn	0.21824 0.87097 0.10425 1.19000
O 	O 	0.13520 0.86810 0.16310 -0.54200
O 	O 	0.26780 0.78760 0.11220 -0.51500
N 	N 	0.82010 0.51240 0.21070 -0.31300
N 	N 	0.66040 0.80270 0.45570 -0.30000
C 	C 	0.02430 0.73310 0.15240 0.15500
H 	H 	0.02060 0.70490 0.08310 -0.02500
C 	C 	0.96770 0.67080 0.15670 -0.29100
H 	H 	0.93290 0.59690 0.08940 0.11400
C 	C 	0.87570 0.53430 0.18240 0.26300
C 	C 	0.90700 0.45330 0.09930 -0.63700
H 	H 	0.87870 0.38020 0.06590 0.15400
H 	H 	0.89870 0.44870 0.04120 0.20100
H 	H 	0.96440 0.47660 0.13500 0.20000
C 	C 	0.38240 0.78460 0.22960 0.09300
H 	H 	0.34030 0.80890 0.25500 -0.00200
C 	C 	0.44060 0.78480 0.28980 -0.19600
H 	H 	0.43770 0.80860 0.35530 0.08100
C 	C 	0.60970 0.83460 0.43050 0.25700
C 	C 	0.60480 0.94650 0.52030 -0.61900
H 	H 	0.64230 0.98540 0.59250 0.16300
H 	H 	0.61880 0.98970 0.50690 0.20000
H 	H 	0.55010 0.93780 0.52070 0.19100
Zn	Zn	0.28176 0.38601 0.65273 1.19000
O 	O 	0.36480 0.52790 0.73290 -0.54200
O 	O 	0.23220 0.34440 0.51980 -0.51500
N 	N 	0.67990 0.89060 0.69230 -0.31200
N 	N 	0.83960 0.29530 0.14230 -0.30000
C 	C 	0.47570 0.62810 0.70880 0.15600
H 	H 	0.47940 0.56250 0.68430 -0.02500
C 	C 	0.53230 0.68900 0.70310 -0.29100
H 	H 	0.56710 0.65650 0.66400 0.11400
C 	C 	0.62430 0.80670 0.65860 0.26300
C 	C 	0.59300 0.69230 0.54630 -0.63700
H 	H 	0.62130 0.68720 0.50150 0.15400
H 	H 	0.60130 0.64250 0.55000 0.20100
H 	H 	0.53560 0.67060 0.51220 0.20000
C 	C 	0.11760 0.34720 0.40220 0.09400
H 	H 	0.15970 0.41470 0.46860 -0.00200
C 	C 	0.05940 0.34920 0.34420 -0.19700
H 	H 	0.06230 0.41760 0.37090 0.08100
C 	C 	0.89030 0.32080 0.22490 0.25700
C 	C 	0.89520 0.41550 0.34170 -0.61900
H 	H 	0.85770 0.45020 0.34310 0.16300
H 	H 	0.88120 0.38810 0.37090 0.20000
H 	H 	0.94990 0.47060 0.38770 0.19100
Zn	Zn	0.23328 0.62903 0.84727 1.19000
O 	O 	0.29500 0.63190 0.76710 -0.54200
O 	O 	0.32460 0.71240 0.98020 -0.51300
N 	N 	0.69830 0.98760 0.80770 -0.31200
N 	N 	0.65300 0.69730 0.35770 -0.30000
C 	C 	0.41930 0.76690 0.79120 0.15600
H 	H 	0.37820 0.79510 0.81570 -0.02400
C 	C 	0.48590 0.82920 0.79690 -0.29100
H 	H 	0.49250 0.90310 0.83600 0.11500
C 	C 	0.64810 0.96570 0.84140 0.26500
C 	C 	0.64600 0.04670 0.95370 -0.63900
H 	H 	0.68570 0.11980 0.99850 0.15400
H 	H 	0.59250 0.05130 0.95000 0.20100
H 	H 	0.65840 0.02340 0.98780 0.19900
C 	C 	0.44500 0.71540 0.09780 0.09300
H 	H 	0.44610 0.69110 0.03140 -0.00300
C 	C 	0.50500 0.71520 0.15580 -0.19600
H 	H 	0.54670 0.69140 0.12910 0.08100
C 	C 	0.59590 0.66540 0.27510 0.25700
C 	C 	0.57380 0.55350 0.15830 -0.61900
H 	H 	0.60710 0.51460 0.15690 0.16300
H 	H 	0.51720 0.51030 0.12910 0.20000
H 	H 	0.58290 0.56220 0.11230 0.19100
C 	C 	0.85390 0.10390 0.75000 0.48500
C 	C 	0.91670 0.16670 0.75000 -0.24000
C 	C 	0.03600 0.28600 0.75000 0.28200
C 	C 	0.09840 0.34840 0.75000 -0.26800
C 	C 	0.64610 0.39610 0.25000 0.48500
C 	C 	0.58330 0.33330 0.25000 -0.24000
C 	C 	0.46400 0.21400 0.25000 0.28400
C 	C 	0.40160 0.15160 0.25000 -0.26900
C 	C 	0.14610 0.89610 0.25000 0.48500
C 	C 	0.08330 0.83330 0.25000 -0.24000
C 	C 	0.96400 0.71400 0.25000 0.28200
C 	C 	0.90160 0.65160 0.25000 -0.26800
C 	C 	0.35390 0.60390 0.75000 0.48500
C 	C 	0.41670 0.66670 0.75000 -0.24000
C 	C 	0.53600 0.78600 0.75000 0.28400
C 	C 	0.59840 0.84840 0.75000 -0.26900
C 	C 	0.82200 0.75000 0.57200 0.36100
C 	C 	0.88510 0.75000 0.63510 -0.18000
C 	C 	0.00410 0.75000 0.75410 0.16800
C 	C 	0.06670 0.75000 0.81670 -0.25300
C 	C 	0.67800 0.25000 0.92800 0.35900
C 	C 	0.61490 0.25000 0.86490 -0.17900
C 	C 	0.49590 0.25000 0.74590 0.16700
C 	C 	0.43330 0.25000 0.68330 -0.25200
C 	C 	0.17800 0.25000 0.42800 0.36100
C 	C 	0.11490 0.25000 0.36490 -0.18000
C 	C 	0.99590 0.25000 0.24590 0.16800
C 	C 	0.93330 0.25000 0.18330 -0.25300
C 	C 	0.32200 0.75000 0.07200 0.35900
C 	C 	0.38510 0.75000 0.13510 -0.17900
C 	C 	0.50410 0.75000 0.25410 0.16700
C 	C 	0.56670 0.75000 0.31670 -0.25200
