data_crystal

_cell_length_a 26.24200
_cell_length_b 26.24200
_cell_length_c 9.56440
_cell_angle_alpha 90.00000
_cell_angle_beta  90.00000
_cell_angle_gamma 120.00000

_symmetry_space_group_name_	'P 1'
_symmetry_space_group_name_H-M	'P 1'

loop_
_symmetry_equiv_pos_as_xyz
  x,y,z

loop_
_atom_site_label
_atom_site_type_symbol
_atom_site_fract_x
_atom_site_fract_y
_atom_site_fract_z
_atom_site_charge
N 	N 	0.33170 0.21880 0.30760 -0.23700
C 	C 	0.45120 0.27000 0.17350 0.06700
H 	H 	0.43040 0.29010 0.17510 -0.03300
C 	C 	0.51270 0.30220 0.17130 -0.14100
H 	H 	0.53260 0.34310 0.17050 0.07700
C 	C 	0.32690 0.25160 0.38150 -0.13400
N 	N 	0.99837 0.55213 0.64093 -0.22600
C 	C 	0.11787 0.60333 0.50683 0.06800
H 	H 	0.09707 0.62343 0.50843 -0.03600
C 	C 	0.17937 0.63553 0.50463 -0.14100
H 	H 	0.19927 0.67643 0.50383 0.07700
C 	C 	0.99357 0.58493 0.71483 -0.11700
N 	N 	0.66503 0.88547 0.97427 -0.23600
C 	C 	0.78453 0.93667 0.84017 0.02700
H 	H 	0.76373 0.95677 0.84177 -0.00900
C 	C 	0.84603 0.96887 0.83797 -0.04500
H 	H 	0.86593 0.00977 0.83717 0.02400
C 	C 	0.66023 0.91827 0.04817 -0.12300
N 	N 	0.78120 0.11290 0.30760 -0.23600
C 	C 	0.73000 0.18120 0.17350 0.06900
H 	H 	0.70990 0.14030 0.17510 -0.03500
C 	C 	0.69780 0.21050 0.17130 -0.14100
H 	H 	0.65690 0.18950 0.17050 0.07500
C 	C 	0.74840 0.07530 0.38150 -0.14100
N 	N 	0.44787 0.44623 0.64093 -0.23600
C 	C 	0.39667 0.51453 0.50683 0.06800
H 	H 	0.37657 0.47363 0.50843 -0.03200
C 	C 	0.36447 0.54383 0.50463 -0.14000
H 	H 	0.32357 0.52283 0.50383 0.07700
C 	C 	0.41507 0.40863 0.71483 -0.13300
N 	N 	0.11453 0.77957 0.97427 -0.23500
C 	C 	0.06333 0.84787 0.84017 0.09400
H 	H 	0.04323 0.80697 0.84177 -0.04900
C 	C 	0.03113 0.87717 0.83797 -0.20300
H 	H 	0.99023 0.85617 0.83717 0.11900
C 	C 	0.08173 0.74197 0.04817 -0.14400
N 	N 	0.88710 0.66830 0.30760 -0.23800
C 	C 	0.81880 0.54880 0.17350 0.06800
H 	H 	0.85970 0.56960 0.17510 -0.02900
C 	C 	0.78950 0.48730 0.17130 -0.14000
H 	H 	0.81050 0.46740 0.17050 0.07800
C 	C 	0.92470 0.67310 0.38150 -0.11400
N 	N 	0.55377 0.00163 0.64093 -0.24200
C 	C 	0.48547 0.88213 0.50683 0.06900
H 	H 	0.52637 0.90293 0.50843 -0.02700
C 	C 	0.45617 0.82063 0.50463 -0.13900
H 	H 	0.47717 0.80073 0.50383 0.07700
C 	C 	0.59137 0.00643 0.71483 -0.14800
N 	N 	0.22043 0.33497 0.97427 -0.23600
C 	C 	0.15213 0.21547 0.84017 0.08300
H 	H 	0.19303 0.23627 0.84177 -0.03800
C 	C 	0.12283 0.15397 0.83797 -0.16900
H 	H 	0.14383 0.13407 0.83717 0.08500
C 	C 	0.25803 0.33977 0.04817 -0.13400
N 	N 	0.21880 0.33170 0.69240 -0.23600
C 	C 	0.27000 0.45120 0.82650 0.06800
H 	H 	0.29010 0.43040 0.82490 -0.03200
C 	C 	0.30220 0.51270 0.82870 -0.14100
H 	H 	0.34310 0.53260 0.82950 0.07700
C 	C 	0.25160 0.32690 0.61850 -0.13400
N 	N 	0.88547 0.66503 0.02573 -0.23600
C 	C 	0.93667 0.78453 0.15983 0.02700
H 	H 	0.95677 0.76373 0.15823 -0.00900
C 	C 	0.96887 0.84603 0.16203 -0.04500
H 	H 	0.00977 0.86593 0.16283 0.02400
C 	C 	0.91827 0.66023 0.95183 -0.12300
N 	N 	0.55213 0.99837 0.35907 -0.22600
C 	C 	0.60333 0.11787 0.49317 0.06800
H 	H 	0.62343 0.09707 0.49157 -0.03600
C 	C 	0.63553 0.17937 0.49537 -0.14100
H 	H 	0.67643 0.19927 0.49617 0.07700
C 	C 	0.58493 0.99357 0.28517 -0.11700
N 	N 	0.11290 0.78120 0.69240 -0.23600
C 	C 	0.18120 0.73000 0.82650 0.06900
H 	H 	0.14030 0.70990 0.82490 -0.03500
C 	C 	0.21050 0.69780 0.82870 -0.14100
H 	H 	0.18950 0.65690 0.82950 0.07500
C 	C 	0.07530 0.74840 0.61850 -0.14100
N 	N 	0.77957 0.11453 0.02573 -0.23500
C 	C 	0.84787 0.06333 0.15983 0.09400
H 	H 	0.80697 0.04323 0.15823 -0.04900
C 	C 	0.87717 0.03113 0.16203 -0.20300
H 	H 	0.85617 0.99023 0.16283 0.11900
C 	C 	0.74197 0.08173 0.95183 -0.14400
N 	N 	0.44623 0.44787 0.35907 -0.23600
C 	C 	0.51453 0.39667 0.49317 0.06800
H 	H 	0.47363 0.37657 0.49157 -0.03200
C 	C 	0.54383 0.36447 0.49537 -0.14000
H 	H 	0.52283 0.32357 0.49617 0.07700
C 	C 	0.40863 0.41507 0.28517 -0.13300
N 	N 	0.66830 0.88710 0.69240 -0.23800
C 	C 	0.54880 0.81880 0.82650 0.06800
H 	H 	0.56960 0.85970 0.82490 -0.02900
C 	C 	0.48730 0.78950 0.82870 -0.14000
H 	H 	0.46740 0.81050 0.82950 0.07800
C 	C 	0.67310 0.92470 0.61850 -0.11400
N 	N 	0.33497 0.22043 0.02573 -0.23600
C 	C 	0.21547 0.15213 0.15983 0.08300
H 	H 	0.23627 0.19303 0.15823 -0.03800
C 	C 	0.15397 0.12283 0.16203 -0.16900
H 	H 	0.13407 0.14383 0.16283 0.08500
C 	C 	0.33977 0.25803 0.95183 -0.13400
N 	N 	0.00163 0.55377 0.35907 -0.24200
C 	C 	0.88213 0.48547 0.49317 0.06900
H 	H 	0.90293 0.52637 0.49157 -0.02700
C 	C 	0.82063 0.45617 0.49537 -0.13900
H 	H 	0.80073 0.47717 0.49617 0.07700
C 	C 	0.00643 0.59137 0.28517 -0.14800
N 	N 	0.66830 0.78120 0.69240 -0.23600
C 	C 	0.54880 0.73000 0.82650 0.06900
H 	H 	0.56960 0.70990 0.82490 -0.03200
C 	C 	0.48730 0.69780 0.82870 -0.14000
H 	H 	0.46740 0.65690 0.82950 0.07700
C 	C 	0.67310 0.74840 0.61850 -0.13200
N 	N 	0.33497 0.11453 0.02573 -0.23600
C 	C 	0.21547 0.06333 0.15983 0.11000
H 	H 	0.23627 0.04323 0.15823 -0.05500
C 	C 	0.15397 0.03113 0.16203 -0.23400
H 	H 	0.13407 0.99023 0.16283 0.12900
C 	C 	0.33977 0.08173 0.95183 -0.14300
N 	N 	0.00163 0.44787 0.35907 -0.24200
C 	C 	0.88213 0.39667 0.49317 0.06900
H 	H 	0.90293 0.37657 0.49157 -0.02700
C 	C 	0.82063 0.36447 0.49537 -0.13900
H 	H 	0.80073 0.32357 0.49617 0.07700
C 	C 	0.00643 0.41507 0.28517 -0.14800
N 	N 	0.21880 0.88710 0.69240 -0.23800
C 	C 	0.27000 0.81880 0.82650 0.06800
H 	H 	0.29010 0.85970 0.82490 -0.02900
C 	C 	0.30220 0.78950 0.82870 -0.14000
H 	H 	0.34310 0.81050 0.82950 0.07900
C 	C 	0.25160 0.92470 0.61850 -0.11400
N 	N 	0.88547 0.22043 0.02573 -0.23600
C 	C 	0.93667 0.15213 0.15983 0.04100
H 	H 	0.95677 0.19303 0.15823 -0.01400
C 	C 	0.96887 0.12283 0.16203 -0.07200
H 	H 	0.00977 0.14383 0.16283 0.03200
C 	C 	0.91827 0.25803 0.95183 -0.12400
N 	N 	0.55213 0.55377 0.35907 -0.23600
C 	C 	0.60333 0.48547 0.49317 0.06900
H 	H 	0.62343 0.52637 0.49157 -0.03200
C 	C 	0.63553 0.45617 0.49537 -0.14100
H 	H 	0.67643 0.47717 0.49617 0.07700
C 	C 	0.58493 0.59137 0.28517 -0.13300
N 	N 	0.11290 0.33170 0.69240 -0.23600
C 	C 	0.18120 0.45120 0.82650 0.06900
H 	H 	0.14030 0.43040 0.82490 -0.03500
C 	C 	0.21050 0.51270 0.82870 -0.14100
H 	H 	0.18950 0.53260 0.82950 0.07500
C 	C 	0.07530 0.32690 0.61850 -0.14200
N 	N 	0.77957 0.66503 0.02573 -0.23600
C 	C 	0.84787 0.78453 0.15983 0.05400
H 	H 	0.80697 0.76373 0.15823 -0.02700
C 	C 	0.87717 0.84603 0.16203 -0.11200
H 	H 	0.85617 0.86593 0.16283 0.06800
C 	C 	0.74197 0.66023 0.95183 -0.13300
N 	N 	0.44623 0.99837 0.35907 -0.22600
C 	C 	0.51453 0.11787 0.49317 0.06800
H 	H 	0.47363 0.09707 0.49157 -0.03600
C 	C 	0.54383 0.17937 0.49537 -0.14100
H 	H 	0.52283 0.19927 0.49617 0.07700
C 	C 	0.40863 0.99357 0.28517 -0.11700
N 	N 	0.78120 0.66830 0.30760 -0.23600
C 	C 	0.73000 0.54880 0.17350 0.06900
H 	H 	0.70990 0.56960 0.17510 -0.03200
C 	C 	0.69780 0.48730 0.17130 -0.14000
H 	H 	0.65690 0.46740 0.17050 0.07700
C 	C 	0.74840 0.67310 0.38150 -0.13200
N 	N 	0.44787 0.00163 0.64093 -0.24200
C 	C 	0.39667 0.88213 0.50683 0.06900
H 	H 	0.37657 0.90293 0.50843 -0.02700
C 	C 	0.36447 0.82063 0.50463 -0.13900
H 	H 	0.32357 0.80073 0.50383 0.07700
C 	C 	0.41507 0.00643 0.71483 -0.14800
N 	N 	0.11453 0.33497 0.97427 -0.23600
C 	C 	0.06333 0.21547 0.84017 0.11000
H 	H 	0.04323 0.23627 0.84177 -0.05500
C 	C 	0.03113 0.15397 0.83797 -0.23400
H 	H 	0.99023 0.13407 0.83717 0.12900
C 	C 	0.08173 0.33977 0.04817 -0.14300
N 	N 	0.88710 0.21880 0.30760 -0.23800
C 	C 	0.81880 0.27000 0.17350 0.06800
H 	H 	0.85970 0.29010 0.17510 -0.02900
C 	C 	0.78950 0.30220 0.17130 -0.14000
H 	H 	0.81050 0.34310 0.17050 0.07900
C 	C 	0.92470 0.25160 0.38150 -0.11400
N 	N 	0.55377 0.55213 0.64093 -0.23600
C 	C 	0.48547 0.60333 0.50683 0.06900
H 	H 	0.52637 0.62343 0.50843 -0.03200
C 	C 	0.45617 0.63553 0.50463 -0.14100
H 	H 	0.47717 0.67643 0.50383 0.07700
C 	C 	0.59137 0.58493 0.71483 -0.13300
N 	N 	0.22043 0.88547 0.97427 -0.23600
C 	C 	0.15213 0.93667 0.84017 0.04100
H 	H 	0.19303 0.95677 0.84177 -0.01400
C 	C 	0.12283 0.96887 0.83797 -0.07200
H 	H 	0.14383 0.00977 0.83717 0.03200
C 	C 	0.25803 0.91827 0.04817 -0.12400
N 	N 	0.33170 0.11290 0.30760 -0.23600
C 	C 	0.45120 0.18120 0.17350 0.06900
H 	H 	0.43040 0.14030 0.17510 -0.03500
C 	C 	0.51270 0.21050 0.17130 -0.14100
H 	H 	0.53260 0.18950 0.17050 0.07500
C 	C 	0.32690 0.07530 0.38150 -0.14200
N 	N 	0.99837 0.44623 0.64093 -0.22600
C 	C 	0.11787 0.51453 0.50683 0.06800
H 	H 	0.09707 0.47363 0.50843 -0.03600
C 	C 	0.17937 0.54383 0.50463 -0.14100
H 	H 	0.19927 0.52283 0.50383 0.07700
C 	C 	0.99357 0.40863 0.71483 -0.11700
N 	N 	0.66503 0.77957 0.97427 -0.23600
C 	C 	0.78453 0.84787 0.84017 0.05400
H 	H 	0.76373 0.80697 0.84177 -0.02700
C 	C 	0.84603 0.87717 0.83797 -0.11200
H 	H 	0.86593 0.85617 0.83717 0.06800
C 	C 	0.66023 0.74197 0.04817 -0.13300
Ag	Ag	0.29860 0.29860 0.50000 0.45200
Ag	Ag	0.96527 0.63193 0.83333 0.46300
Ag	Ag	0.63193 0.96527 0.16667 0.46300
Ag	Ag	0.70140 0.00000 0.50000 0.43700
Ag	Ag	0.36807 0.33333 0.83333 0.45300
Ag	Ag	0.03473 0.66667 0.16667 0.44500
Ag	Ag	0.00000 0.70140 0.50000 0.43700
Ag	Ag	0.66667 0.03473 0.83333 0.44500
Ag	Ag	0.33333 0.36807 0.16667 0.45300
Ag	Ag	0.70140 0.70140 0.50000 0.45400
Ag	Ag	0.36807 0.03473 0.83333 0.44500
Ag	Ag	0.03473 0.36807 0.16667 0.44500
Ag	Ag	0.29860 0.00000 0.50000 0.43600
Ag	Ag	0.96527 0.33333 0.83333 0.46300
Ag	Ag	0.63193 0.66667 0.16667 0.45300
Ag	Ag	0.00000 0.29860 0.50000 0.43600
Ag	Ag	0.66667 0.63193 0.83333 0.45300
Ag	Ag	0.33333 0.96527 0.16667 0.46300
Fe	Fe	0.33333 0.16667 0.16667 1.16900
Fe	Fe	-0.00000 0.50000 0.50000 1.15300
Fe	Fe	0.83333 0.16667 0.16667 1.16900
Fe	Fe	0.50000 0.50000 0.50000 1.16900
Fe	Fe	0.83333 0.66667 0.16667 1.17000
Fe	Fe	0.50000 0.00000 0.50000 1.15300
Fe	Fe	0.16667 0.33333 0.83333 1.16900
Fe	Fe	0.16667 0.83333 0.83333 1.16900
Fe	Fe	0.66667 0.83333 0.83333 1.17000
N 	N 	0.42100 0.21050 0.17330 -0.25900
C 	C 	0.54380 0.27190 0.17020 0.05900
C 	C 	0.60890 0.30445 0.16450 0.09300
N 	N 	0.08767 0.54383 0.50663 -0.26200
C 	C 	0.21047 0.60523 0.50353 0.05900
C 	C 	0.27557 0.63778 0.49783 0.09300
N 	N 	0.75433 0.87717 0.83997 -0.24800
C 	C 	0.87713 0.93857 0.83687 0.01700
C 	C 	0.94223 0.97112 0.83117 0.13900
N 	N 	0.78950 0.21050 0.17330 -0.25800
C 	C 	0.72810 0.27190 0.17020 0.05900
C 	C 	0.69555 0.30445 0.16450 0.09300
N 	N 	0.45617 0.54383 0.50663 -0.25900
C 	C 	0.39477 0.60523 0.50353 0.05900
C 	C 	0.36222 0.63778 0.49783 0.09300
N 	N 	0.12283 0.87717 0.83997 -0.25800
C 	C 	0.06143 0.93857 0.83687 0.05800
C 	C 	0.02888 0.97112 0.83117 0.09500
N 	N 	0.78950 0.57900 0.17330 -0.25800
C 	C 	0.72810 0.45620 0.17020 0.05900
C 	C 	0.69555 0.39110 0.16450 0.09300
N 	N 	0.45617 0.91233 0.50663 -0.25100
C 	C 	0.39477 0.78953 0.50353 0.05900
C 	C 	0.36222 0.72443 0.49783 0.09400
N 	N 	0.12283 0.24567 0.83997 -0.26900
C 	C 	0.06143 0.12287 0.83687 0.10000
C 	C 	0.02888 0.05777 0.83117 0.04800
N 	N 	0.21050 0.42100 0.82670 -0.25900
C 	C 	0.27190 0.54380 0.82980 0.05900
C 	C 	0.30445 0.60890 0.83550 0.09300
N 	N 	0.87717 0.75433 0.16003 -0.24800
C 	C 	0.93857 0.87713 0.16313 0.01700
C 	C 	0.97112 0.94223 0.16883 0.13900
N 	N 	0.54383 0.08767 0.49337 -0.26200
C 	C 	0.60523 0.21047 0.49647 0.05900
C 	C 	0.63778 0.27557 0.50217 0.09300
N 	N 	0.21050 0.78950 0.82670 -0.25800
C 	C 	0.27190 0.72810 0.82980 0.05900
C 	C 	0.30445 0.69555 0.83550 0.09300
N 	N 	0.87717 0.12283 0.16003 -0.25800
C 	C 	0.93857 0.06143 0.16313 0.05800
C 	C 	0.97112 0.02888 0.16883 0.09500
N 	N 	0.54383 0.45617 0.49337 -0.25900
C 	C 	0.60523 0.39477 0.49647 0.05900
C 	C 	0.63778 0.36222 0.50217 0.09300
N 	N 	0.57900 0.78950 0.82670 -0.25800
C 	C 	0.45620 0.72810 0.82980 0.05900
C 	C 	0.39110 0.69555 0.83550 0.09300
N 	N 	0.24567 0.12283 0.16003 -0.26900
C 	C 	0.12287 0.06143 0.16313 0.10000
C 	C 	0.05777 0.02888 0.16883 0.04800
N 	N 	0.91233 0.45617 0.49337 -0.25100
C 	C 	0.78953 0.39477 0.49647 0.05900
C 	C 	0.72443 0.36222 0.50217 0.09400
N 	N 	0.63614 0.36386 0.16540 -0.13800
N 	N 	0.30281 0.69719 0.49873 -0.13800
N 	N 	0.96947 0.03053 0.83207 -0.13800
N 	N 	0.63614 0.27228 0.16540 -0.13800
N 	N 	0.30281 0.60561 0.49873 -0.13800
N 	N 	0.96947 0.93895 0.83207 -0.12800
N 	N 	0.72772 0.36386 0.16540 -0.13700
N 	N 	0.39439 0.69719 0.49873 -0.13800
N 	N 	0.06105 0.03053 0.83207 -0.14800
N 	N 	0.36386 0.63614 0.83460 -0.13800
N 	N 	0.03053 0.96947 0.16793 -0.13800
N 	N 	0.69719 0.30281 0.50127 -0.13800
N 	N 	0.27228 0.63614 0.83460 -0.13800
N 	N 	0.93895 0.96947 0.16793 -0.12800
N 	N 	0.60561 0.30281 0.50127 -0.13800
N 	N 	0.36386 0.72772 0.83460 -0.13700
N 	N 	0.03053 0.06105 0.16793 -0.14800
N 	N 	0.69719 0.39439 0.50127 -0.13800
