data_crystal

_cell_length_a 9.75120
_cell_length_b 15.85470
_cell_length_c 15.85470
_cell_angle_alpha 64.09020
_cell_angle_beta  78.16980
_cell_angle_gamma 101.83000

_symmetry_space_group_name_	'P 1'
_symmetry_space_group_name_H-M	'P 1'

loop_
_symmetry_equiv_pos_as_xyz
  x,y,z

loop_
_atom_site_label
_atom_site_type_symbol
_atom_site_fract_x
_atom_site_fract_y
_atom_site_fract_z
_atom_site_charge
Fe	Fe	0.00000 0.50000 -0.00000 1.07000
Fe	Fe	-0.00000 0.00000 0.50000 1.04700
Fe	Fe	0.50000 0.50000 0.50000 1.11500
H 	H 	0.97600 0.58380 0.14420 0.08500
H 	H 	0.02420 0.72890 0.14890 0.02900
H 	H 	0.12020 0.14420 0.27200 0.00500
H 	H 	0.17310 0.14890 0.12220 0.02600
H 	H 	0.39220 0.27200 0.58380 -0.03200
H 	H 	0.29530 0.12220 0.72890 0.06600
H 	H 	0.87980 0.27200 0.14420 -0.02300
H 	H 	0.82690 0.12220 0.14890 0.09000
H 	H 	0.60780 0.58380 0.27200 -0.02600
H 	H 	0.70470 0.72890 0.12220 0.08700
H 	H 	0.02400 0.14420 0.58380 -0.09500
H 	H 	0.97580 0.14890 0.72890 0.08100
H 	H 	0.02400 0.41620 0.85580 -0.13200
H 	H 	0.97580 0.27110 0.85110 0.12300
H 	H 	0.87980 0.85580 0.72800 0.00900
H 	H 	0.82690 0.85110 0.87780 0.05000
H 	H 	0.60780 0.72800 0.41620 -0.02400
H 	H 	0.70470 0.87780 0.27110 0.10100
H 	H 	0.12020 0.72800 0.85580 -0.02900
H 	H 	0.17310 0.87780 0.85110 0.06400
H 	H 	0.39220 0.41620 0.72800 -0.02900
H 	H 	0.29530 0.27110 0.87780 0.08700
H 	H 	0.97600 0.85580 0.41620 0.10000
H 	H 	0.02420 0.85110 0.27110 -0.00500
Au	Au	0.20784 0.41568 0.29216 0.24800
Au	Au	0.50000 0.29216 0.29216 0.25900
Au	Au	0.79216 0.29216 0.41568 0.27500
Au	Au	0.79216 0.58432 0.70784 0.28000
Au	Au	0.50000 0.70784 0.70784 0.27100
Au	Au	0.20784 0.70784 0.58432 0.25500
C 	C 	0.01530 0.64390 0.08460 -0.10100
C 	C 	0.04480 0.73060 0.08820 -0.04400
C 	C 	0.13300 0.42420 0.18260 -0.08500
C 	C 	0.09990 0.08460 0.27150 -0.06700
C 	C 	0.13300 0.08820 0.18120 -0.02900
C 	C 	0.31560 0.18260 0.39320 -0.07200
C 	C 	0.37140 0.27150 0.64390 0.07800
C 	C 	0.31420 0.18120 0.73060 -0.16000
C 	C 	0.70880 0.39320 0.42420 -0.04800
C 	C 	0.90010 0.27150 0.08460 0.09900
C 	C 	0.86700 0.18120 0.08820 -0.16600
C 	C 	0.68440 0.39320 0.18260 -0.06000
C 	C 	0.62860 0.64390 0.27150 0.08500
C 	C 	0.68580 0.73060 0.18120 -0.14100
C 	C 	0.29120 0.42420 0.39320 -0.07100
C 	C 	0.98470 0.08460 0.64390 0.12000
C 	C 	0.95520 0.08820 0.73060 -0.10100
C 	C 	0.86700 0.18260 0.42420 -0.04500
C 	C 	0.98470 0.35610 0.91540 0.26100
C 	C 	0.95520 0.26940 0.91180 -0.20200
C 	C 	0.86700 0.57580 0.81740 -0.03400
C 	C 	0.90010 0.91540 0.72850 0.03000
C 	C 	0.86700 0.91180 0.81880 0.00500
C 	C 	0.68440 0.81740 0.60680 -0.04800
C 	C 	0.62860 0.72850 0.35610 0.08700
C 	C 	0.68580 0.81880 0.26940 -0.14000
C 	C 	0.29120 0.60680 0.57580 -0.06800
C 	C 	0.09990 0.72850 0.91540 0.07400
C 	C 	0.13300 0.81880 0.91180 -0.07800
C 	C 	0.31560 0.60680 0.81740 -0.05600
C 	C 	0.37140 0.35610 0.72850 0.08000
C 	C 	0.31420 0.26940 0.81880 -0.15900
C 	C 	0.70880 0.57580 0.60680 -0.04600
C 	C 	0.01530 0.91540 0.35610 -0.13700
C 	C 	0.04480 0.91180 0.26940 0.07700
C 	C 	0.13300 0.81740 0.57580 -0.07200
C 	C 	0.10585 0.82015 -0.00000 -0.02000
C 	C 	0.13995 0.91675 -0.00000 0.09100
C 	C 	0.10585 0.00000 0.17985 -0.10300
C 	C 	0.13995 -0.00000 0.08325 0.07500
C 	C 	0.28570 0.17985 0.82015 0.06900
C 	C 	0.22320 0.08325 0.91675 0.06600
C 	C 	0.89415 0.17985 -0.00000 0.08500
C 	C 	0.86005 0.08325 -0.00000 0.07500
C 	C 	0.71430 0.82015 0.17985 0.06800
C 	C 	0.77680 0.91675 0.08325 0.15500
C 	C 	0.89415 0.00000 0.82015 -0.08500
C 	C 	0.86005 1.00000 0.91675 0.25200
N 	N 	0.09060 0.44190 0.11750 -0.24300
N 	N 	0.20810 0.11750 0.44060 -0.24500
N 	N 	0.64870 0.44060 0.44190 -0.22600
N 	N 	0.79190 0.44060 0.11750 -0.21400
N 	N 	0.35130 0.44190 0.44060 -0.23000
N 	N 	0.90940 0.11750 0.44190 -0.21500
N 	N 	0.90940 0.55810 0.88250 -0.19900
N 	N 	0.79190 0.88250 0.55940 -0.20000
N 	N 	0.35130 0.55940 0.55810 -0.23000
N 	N 	0.20810 0.55940 0.88250 -0.22600
N 	N 	0.64870 0.55810 0.55940 -0.22600
N 	N 	0.09060 0.88250 0.55810 -0.22600
N 	N 	0.04020 0.64180 -0.00000 -0.24000
N 	N 	0.04020 1.00000 0.35820 -0.15700
N 	N 	0.39840 0.35820 0.64180 -0.24800
N 	N 	0.95980 0.35820 -0.00000 -0.27400
N 	N 	0.60160 0.64180 0.35820 -0.24500
N 	N 	0.95980 1.00000 0.64180 -0.19100
N 	N 	0.10860 0.91210 0.08790 -0.12300
N 	N 	0.19650 0.08790 -0.00000 -0.16100
N 	N 	0.19650 1.00000 0.91210 -0.09600
N 	N 	0.80350 0.00000 0.08790 -0.17200
N 	N 	0.80350 0.91210 -0.00000 -0.17500
N 	N 	0.89140 0.08790 0.91210 -0.16000
