data_crystal

_cell_length_a 26.22700
_cell_length_b 26.22700
_cell_length_c 9.35410
_cell_angle_alpha 90.00000
_cell_angle_beta  90.00000
_cell_angle_gamma 120.00000

_symmetry_space_group_name_	'P 1'
_symmetry_space_group_name_H-M	'P 1'

loop_
_symmetry_equiv_pos_as_xyz
  x,y,z

loop_
_atom_site_label
_atom_site_type_symbol
_atom_site_fract_x
_atom_site_fract_y
_atom_site_fract_z
_atom_site_charge
N 	N 	0.55210 0.99750 0.85590 -0.21400
C 	C 	0.48480 0.88190 0.00650 0.03300
H 	H 	0.52570 0.90290 0.00860 -0.02200
C 	C 	0.45620 0.82040 0.00400 -0.08100
H 	H 	0.47780 0.80120 0.00420 0.04300
C 	C 	0.58320 0.98940 0.78280 -0.02200
N 	N 	0.21877 0.33083 0.18923 -0.24700
C 	C 	0.15147 0.21523 0.33983 0.07600
H 	H 	0.19237 0.23623 0.34193 -0.02700
C 	C 	0.12287 0.15373 0.33733 -0.14900
H 	H 	0.14447 0.13453 0.33753 0.07700
C 	C 	0.24987 0.32273 0.11613 -0.07100
N 	N 	0.88543 0.66417 0.52257 -0.24600
C 	C 	0.81813 0.54857 0.67317 0.07100
H 	H 	0.85903 0.56957 0.67527 -0.02100
C 	C 	0.78953 0.48707 0.67067 -0.13300
H 	H 	0.81113 0.46787 0.67087 0.07800
C 	C 	0.91653 0.65607 0.44947 -0.05800
N 	N 	0.00250 0.55460 0.85590 -0.22400
C 	C 	0.11810 0.60290 0.00650 0.03300
H 	H 	0.09710 0.62280 0.00860 -0.02800
C 	C 	0.17960 0.63580 0.00400 -0.08300
H 	H 	0.19880 0.67660 0.00420 0.04300
C 	C 	0.01060 0.59380 0.78280 -0.04100
N 	N 	0.66917 0.88793 0.18923 -0.24900
C 	C 	0.78477 0.93623 0.33983 0.03600
H 	H 	0.76377 0.95613 0.34193 -0.00600
C 	C 	0.84627 0.96913 0.33733 -0.06200
H 	H 	0.86547 0.00993 0.33753 0.03300
C 	C 	0.67727 0.92713 0.11613 -0.05300
N 	N 	0.33583 0.22127 0.52257 -0.24600
C 	C 	0.45143 0.26957 0.67317 0.07100
H 	H 	0.43043 0.28947 0.67527 -0.02200
C 	C 	0.51293 0.30247 0.67067 -0.13300
H 	H 	0.53213 0.34327 0.67087 0.07700
C 	C 	0.34393 0.26047 0.44947 -0.06300
N 	N 	0.44540 0.44790 0.85590 -0.22100
C 	C 	0.39710 0.51520 0.00650 0.03300
H 	H 	0.37720 0.47430 0.00860 -0.02500
C 	C 	0.36420 0.54380 0.00400 -0.08200
H 	H 	0.32340 0.52220 0.00420 0.04300
C 	C 	0.40620 0.41680 0.78280 -0.03300
N 	N 	0.11207 0.78123 0.18923 -0.24500
C 	C 	0.06377 0.84853 0.33983 0.07800
H 	H 	0.04387 0.80763 0.34193 -0.03200
C 	C 	0.03087 0.87713 0.33733 -0.16000
H 	H 	0.99007 0.85553 0.33753 0.09300
C 	C 	0.07287 0.75013 0.11613 -0.08100
N 	N 	0.77873 0.11457 0.52257 -0.24600
C 	C 	0.73043 0.18187 0.67317 0.07200
H 	H 	0.71053 0.14097 0.67527 -0.02500
C 	C 	0.69753 0.21047 0.67067 -0.13300
H 	H 	0.65673 0.18887 0.67087 0.07600
C 	C 	0.73953 0.08347 0.44947 -0.06900
N 	N 	0.99750 0.55210 0.14410 -0.25100
C 	C 	0.88190 0.48480 0.99350 0.11100
H 	H 	0.90290 0.52570 0.99140 -0.01400
C 	C 	0.82040 0.45620 0.99600 -0.18300
H 	H 	0.80120 0.47780 0.99580 0.11600
C 	C 	0.98940 0.58320 0.21720 -0.06400
N 	N 	0.66417 0.88543 0.47743 -0.24300
C 	C 	0.54857 0.81813 0.32683 0.07400
H 	H 	0.56957 0.85903 0.32473 -0.02100
C 	C 	0.48707 0.78953 0.32933 -0.13400
H 	H 	0.46787 0.81113 0.32913 0.08300
C 	C 	0.65607 0.91653 0.55053 -0.03400
N 	N 	0.33083 0.21877 0.81077 -0.25000
C 	C 	0.21523 0.15147 0.66017 0.09000
H 	H 	0.23623 0.19237 0.65807 -0.02400
C 	C 	0.15373 0.12287 0.66267 -0.15200
H 	H 	0.13453 0.14447 0.66247 0.09200
C 	C 	0.32273 0.24987 0.88387 0.00100
N 	N 	0.55460 0.00250 0.14410 -0.26100
C 	C 	0.60290 0.11810 0.99350 0.11000
H 	H 	0.62280 0.09710 0.99140 -0.01900
C 	C 	0.63580 0.17960 0.99600 -0.18400
H 	H 	0.67660 0.19880 0.99580 0.11600
C 	C 	0.59380 0.01060 0.21720 -0.08100
N 	N 	0.22127 0.33583 0.47743 -0.24300
C 	C 	0.26957 0.45143 0.32683 0.07500
H 	H 	0.28947 0.43043 0.32473 -0.02400
C 	C 	0.30247 0.51293 0.32933 -0.13400
H 	H 	0.34327 0.53213 0.32913 0.08100
C 	C 	0.26047 0.34393 0.55053 -0.04200
N 	N 	0.88793 0.66917 0.81077 -0.25000
C 	C 	0.93623 0.78477 0.66017 0.05800
H 	H 	0.95613 0.76377 0.65807 -0.00900
C 	C 	0.96913 0.84627 0.66267 -0.08500
H 	H 	0.00993 0.86547 0.66247 0.06000
C 	C 	0.92713 0.67727 0.88387 0.00300
N 	N 	0.44790 0.44540 0.14410 -0.25700
C 	C 	0.51520 0.39710 0.99350 0.11100
H 	H 	0.47430 0.37720 0.99140 -0.01600
C 	C 	0.54380 0.36420 0.99600 -0.18400
H 	H 	0.52220 0.32340 0.99580 0.11600
C 	C 	0.41680 0.40620 0.21720 -0.07100
N 	N 	0.11457 0.77873 0.47743 -0.24300
C 	C 	0.18187 0.73043 0.32683 0.07500
H 	H 	0.14097 0.71053 0.32473 -0.02500
C 	C 	0.21047 0.69753 0.32933 -0.13400
H 	H 	0.18887 0.65673 0.32913 0.08000
C 	C 	0.08347 0.73953 0.55053 -0.04600
N 	N 	0.78123 0.11207 0.81077 -0.25000
C 	C 	0.84853 0.06377 0.66017 0.10300
H 	H 	0.80763 0.04387 0.65807 -0.03500
C 	C 	0.87713 0.03087 0.66267 -0.18800
H 	H 	0.85553 0.99007 0.66247 0.12200
C 	C 	0.75013 0.07287 0.88387 -0.00400
N 	N 	0.44790 0.00250 0.14410 -0.26100
C 	C 	0.51520 0.11810 0.99350 0.11000
H 	H 	0.47430 0.09710 0.99140 -0.01900
C 	C 	0.54380 0.17960 0.99600 -0.18400
H 	H 	0.52220 0.19880 0.99580 0.11600
C 	C 	0.41680 0.01060 0.21720 -0.08100
N 	N 	0.11457 0.33583 0.47743 -0.24300
C 	C 	0.18187 0.45143 0.32683 0.07500
H 	H 	0.14097 0.43043 0.32473 -0.02500
C 	C 	0.21047 0.51293 0.32933 -0.13400
H 	H 	0.18887 0.53213 0.32913 0.08100
C 	C 	0.08347 0.34393 0.55053 -0.04600
N 	N 	0.78123 0.66917 0.81077 -0.25000
C 	C 	0.84853 0.78477 0.66017 0.07100
H 	H 	0.80763 0.76377 0.65807 -0.01700
C 	C 	0.87713 0.84627 0.66267 -0.11800
H 	H 	0.85553 0.86547 0.66247 0.08200
C 	C 	0.75013 0.67727 0.88387 0.00100
N 	N 	0.99750 0.44540 0.14410 -0.25100
C 	C 	0.88190 0.39710 0.99350 0.11100
H 	H 	0.90290 0.37720 0.99140 -0.01300
C 	C 	0.82040 0.36420 0.99600 -0.18300
H 	H 	0.80120 0.32340 0.99580 0.11600
C 	C 	0.98940 0.40620 0.21720 -0.06300
N 	N 	0.66417 0.77873 0.47743 -0.24300
C 	C 	0.54857 0.73043 0.32683 0.07500
H 	H 	0.56957 0.71053 0.32473 -0.02400
C 	C 	0.48707 0.69753 0.32933 -0.13400
H 	H 	0.46787 0.65673 0.32913 0.08100
C 	C 	0.65607 0.73953 0.55053 -0.04100
N 	N 	0.33083 0.11207 0.81077 -0.25000
C 	C 	0.21523 0.06377 0.66017 0.11100
H 	H 	0.23623 0.04387 0.65807 -0.03800
C 	C 	0.15373 0.03087 0.66267 -0.20300
H 	H 	0.13453 0.99007 0.66247 0.12600
C 	C 	0.32273 0.07287 0.88387 -0.00400
N 	N 	0.55460 0.55210 0.14410 -0.25700
C 	C 	0.60290 0.48480 0.99350 0.11100
H 	H 	0.62280 0.52570 0.99140 -0.01600
C 	C 	0.63580 0.45620 0.99600 -0.18400
H 	H 	0.67660 0.47780 0.99580 0.11600
C 	C 	0.59380 0.58320 0.21720 -0.07100
N 	N 	0.22127 0.88543 0.47743 -0.24400
C 	C 	0.26957 0.81813 0.32683 0.07400
H 	H 	0.28947 0.85903 0.32473 -0.02100
C 	C 	0.30247 0.78953 0.32933 -0.13400
H 	H 	0.34327 0.81113 0.32913 0.08300
C 	C 	0.26047 0.91653 0.55053 -0.03400
N 	N 	0.88793 0.21877 0.81077 -0.25100
C 	C 	0.93623 0.15147 0.66017 0.06900
H 	H 	0.95613 0.19237 0.65807 -0.01200
C 	C 	0.96913 0.12287 0.66267 -0.10500
H 	H 	0.00993 0.14447 0.66247 0.06600
C 	C 	0.92713 0.24987 0.88387 0.01100
N 	N 	0.00250 0.44790 0.85590 -0.22400
C 	C 	0.11810 0.51520 0.00650 0.03300
H 	H 	0.09710 0.47430 0.00860 -0.02700
C 	C 	0.17960 0.54380 0.00400 -0.08300
H 	H 	0.19880 0.52220 0.00420 0.04300
C 	C 	0.01060 0.41680 0.78280 -0.04000
N 	N 	0.66917 0.78123 0.18923 -0.24700
C 	C 	0.78477 0.84853 0.33983 0.05700
H 	H 	0.76377 0.80763 0.34193 -0.02000
C 	C 	0.84627 0.87713 0.33733 -0.11400
H 	H 	0.86547 0.85553 0.33753 0.06700
C 	C 	0.67727 0.75013 0.11613 -0.07000
N 	N 	0.33583 0.11457 0.52257 -0.24600
C 	C 	0.45143 0.18187 0.67317 0.07100
H 	H 	0.43043 0.14097 0.67527 -0.02500
C 	C 	0.51293 0.21047 0.67067 -0.13300
H 	H 	0.53213 0.18887 0.67087 0.07600
C 	C 	0.34393 0.08347 0.44947 -0.06900
N 	N 	0.44540 0.99750 0.85590 -0.21300
C 	C 	0.39710 0.88190 0.00650 0.03400
H 	H 	0.37720 0.90290 0.00860 -0.02100
C 	C 	0.36420 0.82040 0.00400 -0.08100
H 	H 	0.32340 0.80120 0.00420 0.04300
C 	C 	0.40620 0.98940 0.78280 -0.02200
N 	N 	0.11207 0.33083 0.18923 -0.24700
C 	C 	0.06377 0.21523 0.33983 0.09000
H 	H 	0.04387 0.23623 0.34193 -0.03600
C 	C 	0.03087 0.15373 0.33733 -0.18300
H 	H 	0.99007 0.13453 0.33753 0.10000
C 	C 	0.07287 0.32273 0.11613 -0.07500
N 	N 	0.77873 0.66417 0.52257 -0.24600
C 	C 	0.73043 0.54857 0.67317 0.07100
H 	H 	0.71053 0.56957 0.67527 -0.02200
C 	C 	0.69753 0.48707 0.67067 -0.13300
H 	H 	0.65673 0.46787 0.67087 0.07700
C 	C 	0.73953 0.65607 0.44947 -0.06300
N 	N 	0.55210 0.55460 0.85590 -0.22100
C 	C 	0.48480 0.60290 0.00650 0.03300
H 	H 	0.52570 0.62280 0.00860 -0.02500
C 	C 	0.45620 0.63580 0.00400 -0.08200
H 	H 	0.47780 0.67660 0.00420 0.04300
C 	C 	0.58320 0.59380 0.78280 -0.03300
N 	N 	0.21877 0.88793 0.18923 -0.24900
C 	C 	0.15147 0.93623 0.33983 0.04300
H 	H 	0.19237 0.95613 0.34193 -0.00800
C 	C 	0.12287 0.96913 0.33733 -0.07400
H 	H 	0.14447 0.00993 0.33753 0.03600
C 	C 	0.24987 0.92713 0.11613 -0.05400
N 	N 	0.88543 0.22127 0.52257 -0.24600
C 	C 	0.81813 0.26957 0.67317 0.07100
H 	H 	0.85903 0.28947 0.67527 -0.02100
C 	C 	0.78953 0.30247 0.67067 -0.13300
H 	H 	0.81113 0.34327 0.67087 0.07800
C 	C 	0.91653 0.26047 0.44947 -0.05800
Au	Au	0.62625 0.95959 0.66667 0.28800
Au	Au	0.29292 0.29292 -0.00000 0.20700
Au	Au	0.04041 0.66667 0.66667 0.27300
Au	Au	0.70708 0.00000 -0.00000 0.19100
Au	Au	0.33333 0.37375 0.66667 0.27900
Au	Au	1.00000 0.70708 -0.00000 0.22000
Au	Au	0.95959 0.62625 0.33333 0.25900
Au	Au	0.66667 0.04041 0.33333 0.24600
Au	Au	0.37375 0.33333 0.33333 0.25300
Au	Au	0.37375 0.04041 0.33333 0.24600
Au	Au	0.95959 0.33333 0.33333 0.26000
Au	Au	0.66667 0.62625 0.33333 0.25400
Au	Au	0.04041 0.37375 0.66667 0.27400
Au	Au	0.70708 0.70708 -0.00000 0.20900
Au	Au	0.33333 0.95959 0.66667 0.28800
Au	Au	0.00000 0.29292 -0.00000 0.19700
Au	Au	0.62625 0.66667 0.66667 0.27900
Au	Au	0.29292 0.00000 -0.00000 0.19000
Fe	Fe	0.50000 0.00000 -0.00000 1.11900
Fe	Fe	0.16667 0.33333 0.33333 1.17300
Fe	Fe	0.83333 0.66667 0.66667 1.17600
Fe	Fe	-0.00000 0.50000 -0.00000 1.12300
Fe	Fe	0.66667 0.83333 0.33333 1.17400
Fe	Fe	0.33333 0.16667 0.66667 1.17500
Fe	Fe	0.50000 0.50000 -0.00000 1.13100
Fe	Fe	0.16667 0.83333 0.33333 1.17300
Fe	Fe	0.83333 0.16667 0.66667 1.17600
N 	N 	0.45600 0.91200 0.00590 -0.24800
C 	C 	0.39390 0.78780 0.00100 -0.06600
C 	C 	0.36210 0.72420 0.99510 0.20700
N 	N 	0.12267 0.24533 0.33923 -0.26200
C 	C 	0.06057 0.12113 0.33433 0.06800
C 	C 	0.02877 0.05753 0.32843 0.07000
N 	N 	0.78933 0.57867 0.67257 -0.25600
C 	C 	0.72723 0.45447 0.66767 0.05100
C 	C 	0.69543 0.39087 0.66177 0.10700
N 	N 	0.08800 0.54400 0.00590 -0.25700
C 	C 	0.21220 0.60610 0.00100 -0.06600
C 	C 	0.27580 0.63790 0.99510 0.20700
N 	N 	0.75467 0.87733 0.33923 -0.24800
C 	C 	0.87887 0.93943 0.33433 0.01600
C 	C 	0.94247 0.97123 0.32843 0.12900
N 	N 	0.42133 0.21067 0.67257 -0.25600
C 	C 	0.54553 0.27277 0.66767 0.05100
C 	C 	0.60913 0.30457 0.66177 0.10700
N 	N 	0.45600 0.54400 0.00590 -0.25500
C 	C 	0.39390 0.60610 0.00100 -0.06600
C 	C 	0.36210 0.63790 0.99510 0.20700
N 	N 	0.12267 0.87733 0.33923 -0.25300
C 	C 	0.06057 0.93943 0.33433 0.03500
C 	C 	0.02877 0.97123 0.32843 0.10700
N 	N 	0.78933 0.21067 0.67257 -0.25600
C 	C 	0.72723 0.27277 0.66767 0.05100
C 	C 	0.69543 0.30457 0.66177 0.10700
N 	N 	0.91200 0.45600 0.99410 -0.24400
C 	C 	0.78780 0.39390 0.99900 0.17100
C 	C 	0.72420 0.36210 0.00490 -0.00600
N 	N 	0.57867 0.78933 0.32743 -0.25700
C 	C 	0.45447 0.72723 0.33233 0.05400
C 	C 	0.39087 0.69543 0.33823 0.09400
N 	N 	0.24533 0.12267 0.66077 -0.26500
C 	C 	0.12113 0.06057 0.66567 0.09000
C 	C 	0.05753 0.02877 0.67157 0.07300
N 	N 	0.54400 0.08800 0.99410 -0.25000
C 	C 	0.60610 0.21220 0.99900 0.17100
C 	C 	0.63790 0.27580 0.00490 -0.00700
N 	N 	0.21067 0.42133 0.32743 -0.25800
C 	C 	0.27277 0.54553 0.33233 0.05400
C 	C 	0.30457 0.60913 0.33823 0.09400
N 	N 	0.87733 0.75467 0.66077 -0.25100
C 	C 	0.93943 0.87887 0.66567 0.03900
C 	C 	0.97123 0.94247 0.67157 0.13100
N 	N 	0.54400 0.45600 0.99410 -0.24700
C 	C 	0.60610 0.39390 0.99900 0.17100
C 	C 	0.63790 0.36210 0.00490 -0.00700
N 	N 	0.21067 0.78933 0.32743 -0.25700
C 	C 	0.27277 0.72723 0.33233 0.05400
C 	C 	0.30457 0.69543 0.33823 0.09400
N 	N 	0.87733 0.12267 0.66077 -0.25900
C 	C 	0.93943 0.06057 0.66567 0.06900
C 	C 	0.97123 0.02877 0.67157 0.09600
N 	N 	0.39380 0.69690 0.99640 -0.14200
N 	N 	0.06047 0.03023 0.32973 -0.15300
N 	N 	0.72713 0.36357 0.66307 -0.13800
N 	N 	0.30310 0.69690 0.99640 -0.14200
N 	N 	0.96977 0.03023 0.32973 -0.14800
N 	N 	0.63643 0.36357 0.66307 -0.13800
N 	N 	0.30310 0.60620 0.99640 -0.14100
N 	N 	0.96977 0.93953 0.32973 -0.14100
N 	N 	0.63643 0.27287 0.66307 -0.13800
N 	N 	0.69690 0.39380 0.00360 -0.13600
N 	N 	0.36357 0.72713 0.33693 -0.14000
N 	N 	0.03023 0.06047 0.67027 -0.13700
N 	N 	0.69690 0.30310 0.00360 -0.13600
N 	N 	0.36357 0.63643 0.33693 -0.14000
N 	N 	0.03023 0.96977 0.67027 -0.12900
N 	N 	0.60620 0.30310 0.00360 -0.13600
N 	N 	0.27287 0.63643 0.33693 -0.14000
N 	N 	0.93953 0.96977 0.67027 -0.12500
