data_crystal

_cell_length_a 9.10300
_cell_length_b 15.45370
_cell_length_c 15.45370
_cell_angle_alpha 63.75760
_cell_angle_beta  78.67640
_cell_angle_gamma 101.32400

_symmetry_space_group_name_	'P 1'
_symmetry_space_group_name_H-M	'P 1'

loop_
_symmetry_equiv_pos_as_xyz
  x,y,z

loop_
_atom_site_label
_atom_site_type_symbol
_atom_site_fract_x
_atom_site_fract_y
_atom_site_fract_z
_atom_site_charge
Fe	Fe	0.50000 0.50000 -0.00000 1.15400
Fe	Fe	0.50000 0.00000 0.50000 1.16200
Fe	Fe	-0.00000 0.50000 0.50000 1.10600
Ag	Ag	0.30437 0.60874 0.69563 0.44000
Ag	Ag	0.00000 0.69563 0.69563 0.39200
Ag	Ag	0.69563 0.69563 0.60874 0.46800
Ag	Ag	0.69563 0.39126 0.30437 0.46600
Ag	Ag	-0.00000 0.30437 0.30437 0.38800
Ag	Ag	0.30437 0.30437 0.39126 0.43700
H 	H 	0.47730 0.57270 0.14860 -0.03200
H 	H 	0.52960 0.72010 0.15440 0.07800
H 	H 	0.62590 0.14860 0.27870 -0.03000
H 	H 	0.68400 0.15440 0.12550 0.08000
H 	H 	0.90460 0.27870 0.57270 -0.01000
H 	H 	0.80950 0.12550 0.72010 0.08400
H 	H 	0.37410 0.27870 0.14860 -0.03600
H 	H 	0.31600 0.12550 0.15440 0.06000
H 	H 	0.09540 0.57270 0.27870 -0.05400
H 	H 	0.19050 0.72010 0.12550 0.06000
H 	H 	0.52270 0.14860 0.57270 -0.04000
H 	H 	0.47040 0.15440 0.72010 0.07900
H 	H 	0.52270 0.42730 0.85140 -0.03900
H 	H 	0.47040 0.27990 0.84560 0.06200
H 	H 	0.37410 0.85140 0.72130 -0.04500
H 	H 	0.31600 0.84560 0.87450 0.08000
H 	H 	0.09540 0.72130 0.42730 -0.05300
H 	H 	0.19050 0.87450 0.27990 0.06900
H 	H 	0.62590 0.72130 0.85140 -0.03300
H 	H 	0.68400 0.87450 0.84560 0.08200
H 	H 	0.90460 0.42730 0.72130 -0.00900
H 	H 	0.80950 0.27990 0.87450 0.09400
H 	H 	0.47730 0.85140 0.42730 -0.03700
H 	H 	0.52960 0.84560 0.27990 0.07800
C 	C 	0.52140 0.63440 0.08760 0.06900
C 	C 	0.55100 0.72260 0.09180 -0.12500
C 	C 	0.36460 0.58600 0.82320 -0.14700
C 	C 	0.60900 0.08760 0.27800 0.07600
C 	C 	0.64280 0.09180 0.18560 -0.13100
C 	C 	0.18780 0.82320 0.59080 -0.16100
C 	C 	0.88700 0.27800 0.63440 0.08400
C 	C 	0.82840 0.18560 0.72260 -0.12500
C 	C 	0.77860 0.59080 0.58600 -0.10400
C 	C 	0.39100 0.27800 0.08760 0.05700
C 	C 	0.35720 0.18560 0.09180 -0.13100
C 	C 	0.81220 0.59080 0.82320 -0.06000
C 	C 	0.11300 0.63440 0.27800 0.06200
C 	C 	0.17160 0.72260 0.18560 -0.14400
C 	C 	0.22140 0.58600 0.59080 -0.15600
C 	C 	0.47860 0.08760 0.63440 0.08200
C 	C 	0.44900 0.09180 0.72260 -0.16900
C 	C 	0.63540 0.82320 0.58600 -0.10900
C 	C 	0.47860 0.36560 0.91240 0.09300
C 	C 	0.44900 0.27740 0.90820 -0.10200
C 	C 	0.63540 0.41400 0.17680 -0.11600
C 	C 	0.39100 0.91240 0.72200 0.09700
C 	C 	0.35720 0.90820 0.81440 -0.15600
C 	C 	0.81220 0.17680 0.40920 -0.06800
C 	C 	0.11300 0.72200 0.36560 0.06400
C 	C 	0.17160 0.81440 0.27740 -0.14500
C 	C 	0.22140 0.40920 0.41400 -0.15800
C 	C 	0.60900 0.72200 0.91240 0.10500
C 	C 	0.64280 0.81440 0.90820 -0.09700
C 	C 	0.18780 0.40920 0.17680 -0.17000
C 	C 	0.88700 0.36560 0.72200 0.08500
C 	C 	0.82840 0.27740 0.81440 -0.12400
C 	C 	0.77860 0.41400 0.40920 -0.10600
C 	C 	0.52140 0.91240 0.36560 0.09200
C 	C 	0.55100 0.90820 0.27740 -0.11900
C 	C 	0.36460 0.17680 0.41400 -0.15400
C 	C 	0.61500 0.81800 -0.00000 0.02200
C 	C 	0.65110 0.91430 -0.00000 0.10700
C 	C 	0.61500 0.00000 0.18200 0.04200
C 	C 	0.65110 0.00000 0.08570 0.09900
C 	C 	0.79700 0.18200 0.81800 0.05400
C 	C 	0.73680 0.08570 0.91430 0.14600
C 	C 	0.38500 0.18200 -0.00000 0.00700
C 	C 	0.34890 0.08570 -0.00000 0.07000
C 	C 	0.20300 0.81800 0.18200 0.03900
C 	C 	0.26320 0.91430 0.08570 0.10300
C 	C 	0.38500 1.00000 0.81800 0.06600
C 	C 	0.34890 1.00000 0.91430 0.13100
N 	N 	0.40660 0.55610 0.89320 -0.22600
N 	N 	0.29980 0.89320 0.55070 -0.23100
N 	N 	0.85050 0.55070 0.55610 -0.20100
N 	N 	0.70020 0.55070 0.89320 -0.23100
N 	N 	0.14950 0.55610 0.55070 -0.25200
N 	N 	0.59340 0.89320 0.55610 -0.22800
N 	N 	0.59340 0.44390 0.10680 -0.23600
N 	N 	0.70020 0.10680 0.44930 -0.24400
N 	N 	0.14950 0.44930 0.44390 -0.25200
N 	N 	0.29980 0.44930 0.10680 -0.23900
N 	N 	0.85050 0.44390 0.44930 -0.20100
N 	N 	0.40660 0.10680 0.44390 -0.23900
N 	N 	0.55270 0.63200 -0.00000 -0.27800
N 	N 	0.55270 0.00000 0.36800 -0.26900
N 	N 	0.92070 0.36800 0.63200 -0.22900
N 	N 	0.44730 0.36800 -0.00000 -0.28000
N 	N 	0.07930 0.63200 0.36800 -0.27500
N 	N 	0.44730 0.00000 0.63200 -0.27600
N 	N 	0.70555 0.00000 0.91035 -0.13500
N 	N 	0.61590 0.91035 0.08965 -0.13000
N 	N 	0.70555 0.08965 -0.00000 -0.15900
N 	N 	0.38410 0.08965 0.91035 -0.13900
N 	N 	0.29445 0.00000 0.08965 -0.15600
N 	N 	0.29445 0.91035 -0.00000 -0.17000
