data_crystal

_cell_length_a 9.96960
_cell_length_b 15.73890
_cell_length_c 15.73890
_cell_angle_alpha 64.33390
_cell_angle_beta  77.81050
_cell_angle_gamma 102.19000

_symmetry_space_group_name_	'P 1'
_symmetry_space_group_name_H-M	'P 1'

loop_
_symmetry_equiv_pos_as_xyz
  x,y,z

loop_
_atom_site_label
_atom_site_type_symbol
_atom_site_fract_x
_atom_site_fract_y
_atom_site_fract_z
_atom_site_charge
Fe	Fe	0.50000 1.00000 0.50000 1.10100
Fe	Fe	-0.00000 0.50000 0.50000 1.06300
Fe	Fe	0.50000 0.50000 -0.00000 1.11300
Ag	Ag	0.70338 0.70338 0.59324 0.47400
Ag	Ag	0.29662 0.59324 0.70338 0.45000
Ag	Ag	-0.00000 0.70338 0.70338 0.39800
Ag	Ag	0.29662 0.29662 0.40676 0.45000
Ag	Ag	0.70338 0.40676 0.29662 0.47400
Ag	Ag	0.00000 0.29662 0.29662 0.39900
H 	H 	0.46910 0.85370 0.41960 -0.06500
H 	H 	0.51680 0.85040 0.27200 0.13700
H 	H 	0.88870 0.41960 0.72670 -0.01200
H 	H 	0.78880 0.27200 0.87760 0.09600
H 	H 	0.61540 0.72670 0.85370 -0.05500
H 	H 	0.66640 0.87760 0.85040 0.11000
H 	H 	0.11130 0.72670 0.41960 -0.05800
H 	H 	0.21120 0.87760 0.27200 0.06600
H 	H 	0.38460 0.85370 0.72670 -0.04600
H 	H 	0.33360 0.85040 0.87760 0.11300
H 	H 	0.53090 0.41960 0.85370 -0.03800
H 	H 	0.48320 0.27200 0.85040 0.06800
H 	H 	0.53090 0.14630 0.58040 -0.05000
H 	H 	0.48320 0.14960 0.72800 0.10800
H 	H 	0.11130 0.58040 0.27330 -0.05700
H 	H 	0.21120 0.72800 0.12240 0.06800
H 	H 	0.38460 0.27330 0.14630 -0.03600
H 	H 	0.33360 0.12240 0.14960 0.07500
H 	H 	0.88870 0.27330 0.58040 -0.01200
H 	H 	0.78880 0.12240 0.72800 0.09700
H 	H 	0.61540 0.14630 0.27330 -0.06800
H 	H 	0.66640 0.14960 0.12240 0.13300
H 	H 	0.46910 0.58040 0.14630 -0.05400
H 	H 	0.51680 0.72800 0.14960 0.11700
C 	C 	0.51110 0.91410 0.35880 0.16000
C 	C 	0.53960 0.91140 0.27090 -0.31700
C 	C 	0.62710 0.81770 0.57800 -0.12800
C 	C 	0.86990 0.35880 0.72710 0.09200
C 	C 	0.81050 0.27090 0.81770 -0.14500
C 	C 	0.20510 0.57800 0.60430 -0.16700
C 	C 	0.59700 0.72710 0.91410 0.15800
C 	C 	0.62820 0.81770 0.91140 -0.23500
C 	C 	0.80940 0.60430 0.81770 -0.07100
C 	C 	0.13010 0.72710 0.35880 0.07400
C 	C 	0.18950 0.81770 0.27090 -0.17600
C 	C 	0.79490 0.60430 0.57800 -0.11200
C 	C 	0.40300 0.91410 0.72710 0.08500
C 	C 	0.37180 0.91140 0.81770 -0.27600
C 	C 	0.19060 0.81770 0.60430 -0.17700
C 	C 	0.48890 0.35880 0.91410 0.09200
C 	C 	0.46040 0.27090 0.91140 -0.12400
C 	C 	0.37290 0.57800 0.81770 -0.15400
C 	C 	0.48890 0.08590 0.64120 0.12800
C 	C 	0.46040 0.08860 0.72910 -0.23600
C 	C 	0.37290 0.18230 0.42200 -0.15200
C 	C 	0.13010 0.64120 0.27290 0.07400
C 	C 	0.18950 0.72910 0.18230 -0.17600
C 	C 	0.79490 0.42200 0.39570 -0.11100
C 	C 	0.40300 0.27290 0.08590 0.06700
C 	C 	0.37180 0.18230 0.08860 -0.14800
C 	C 	0.19060 0.39570 0.18230 -0.17300
C 	C 	0.86990 0.27290 0.64120 0.09300
C 	C 	0.81050 0.18230 0.72910 -0.14700
C 	C 	0.20510 0.39570 0.42200 -0.16600
C 	C 	0.59700 0.08590 0.27290 0.20300
C 	C 	0.62820 0.08860 0.18230 -0.27800
C 	C 	0.80940 0.18230 0.39570 -0.06800
C 	C 	0.51110 0.64120 0.08590 0.13200
C 	C 	0.53960 0.72910 0.08860 -0.25700
C 	C 	0.62710 0.42200 0.18230 -0.12500
C 	C 	0.60215 0.00000 0.18145 0.25400
C 	C 	0.63450 1.00000 0.08320 -0.01100
C 	C 	0.78360 0.18145 0.81855 0.07900
C 	C 	0.71770 0.08320 0.91680 0.13700
C 	C 	0.60215 0.81855 1.00000 0.19000
C 	C 	0.63450 0.91680 -0.00000 0.00100
C 	C 	0.21640 0.81855 0.18145 0.07500
C 	C 	0.28230 0.91680 0.08320 0.02600
C 	C 	0.39785 0.00000 0.81855 0.21000
C 	C 	0.36550 1.00000 0.91680 -0.01300
C 	C 	0.39785 0.18145 -0.00000 0.03400
C 	C 	0.36550 0.08320 -0.00000 0.07800
N 	N 	0.58790 0.88580 0.55550 -0.22500
N 	N 	0.14340 0.55550 0.55870 -0.23800
N 	N 	0.70210 0.55870 0.88580 -0.22000
N 	N 	0.85660 0.55870 0.55550 -0.18800
N 	N 	0.29790 0.88580 0.55870 -0.22800
N 	N 	0.41210 0.55550 0.88580 -0.21600
N 	N 	0.41210 0.11420 0.44450 -0.21200
N 	N 	0.85660 0.44450 0.44130 -0.18800
N 	N 	0.29790 0.44130 0.11420 -0.22500
N 	N 	0.14340 0.44130 0.44450 -0.23800
N 	N 	0.70210 0.11420 0.44130 -0.21600
N 	N 	0.58790 0.44450 0.11420 -0.22100
N 	N 	0.54150 1.00000 0.36010 -0.31000
N 	N 	0.90160 0.36010 0.63990 -0.22500
N 	N 	0.54150 0.63990 -0.00000 -0.28800
N 	N 	0.09840 0.63990 0.36010 -0.26900
N 	N 	0.45850 -0.00000 0.63990 -0.23800
N 	N 	0.45850 0.36010 -0.00000 -0.26700
N 	N 	0.60542 0.91178 0.08822 -0.11200
N 	N 	0.69364 0.08822 -0.00000 -0.12100
N 	N 	0.69364 0.00000 0.91178 -0.08900
N 	N 	0.30636 0.00000 0.08822 -0.11200
N 	N 	0.30636 0.91178 1.00000 -0.11200
N 	N 	0.39458 0.08822 0.91178 -0.10000
