data_crystal

_cell_length_a 6.99970
_cell_length_b 16.05970
_cell_length_c 16.05970
_cell_angle_alpha 62.07350
_cell_angle_beta  81.64620
_cell_angle_gamma 98.35380

_symmetry_space_group_name_	'P 1'
_symmetry_space_group_name_H-M	'P 1'

loop_
_symmetry_equiv_pos_as_xyz
  x,y,z

loop_
_atom_site_label
_atom_site_type_symbol
_atom_site_fract_x
_atom_site_fract_y
_atom_site_fract_z
_atom_site_charge
Gd	Gd	0.27787 0.91304 0.93372 1.50900
Gd	Gd	0.21159 0.93372 0.15324 1.49700
Gd	Gd	0.36483 0.15324 0.91304 1.57100
Gd	Gd	0.72213 0.08696 0.06628 1.72800
Gd	Gd	0.78841 0.06628 0.84676 1.66900
Gd	Gd	0.63517 0.84676 0.08696 1.61400
Cu	Cu	0.00000 0.50000 -0.00000 0.88200
Cu	Cu	-0.00000 0.00000 0.50000 0.88500
Cu	Cu	0.50000 0.50000 0.50000 0.89000
H 	H 	0.56580 0.48830 0.08900 0.04800
H 	H 	0.41740 0.59340 0.11970 0.00100
H 	H 	0.65480 0.08900 0.42270 0.05000
H 	H 	0.53710 0.11970 0.28690 0.00400
H 	H 	0.07750 0.42270 0.48830 0.05800
H 	H 	0.82400 0.28690 0.59340 -0.01900
H 	H 	0.43420 0.51170 0.91100 0.04200
H 	H 	0.58260 0.40660 0.88030 0.00100
H 	H 	0.34520 0.91100 0.57730 0.03900
H 	H 	0.46290 0.88030 0.71310 -0.00100
H 	H 	0.92250 0.57730 0.51170 0.03000
H 	H 	0.17600 0.71310 0.40660 0.02300
C 	C 	0.94610 0.66160 0.01090 -0.10400
C 	C 	0.64130 0.54850 0.07360 -0.04000
C 	C 	0.16260 0.67990 0.96620 0.31700
C 	C 	0.55330 0.61180 0.09160 0.08300
C 	C 	0.85430 0.72780 0.02700 0.27300
C 	C 	0.95700 0.01090 0.32750 -0.09400
C 	C 	0.71490 0.07360 0.37790 -0.03900
C 	C 	0.12880 0.96620 0.35390 0.30500
C 	C 	0.64490 0.09160 0.29660 0.08700
C 	C 	0.88130 0.02700 0.24520 0.27100
C 	C 	0.28450 0.32750 0.66160 -0.18800
C 	C 	0.09280 0.37790 0.54850 -0.12700
C 	C 	0.48270 0.35390 0.67990 0.39500
C 	C 	0.94150 0.29660 0.61180 0.16300
C 	C 	0.12650 0.24520 0.72780 0.26200
C 	C 	0.05390 0.33840 0.98910 -0.27900
C 	C 	0.35870 0.45150 0.92640 -0.05900
C 	C 	0.83740 0.32010 0.03380 0.48700
C 	C 	0.44670 0.38820 0.90840 0.07900
C 	C 	0.14570 0.27220 0.97300 0.31400
C 	C 	0.04300 0.98910 0.67250 -0.27200
C 	C 	0.28510 0.92640 0.62210 -0.05900
C 	C 	0.87120 0.03380 0.64610 0.47700
C 	C 	0.35510 0.90840 0.70340 0.07700
C 	C 	0.11870 0.97300 0.75480 0.31000
C 	C 	0.71550 0.67250 0.33840 -0.19000
C 	C 	0.90720 0.62210 0.45150 0.03200
C 	C 	0.51730 0.64610 0.32010 0.40000
C 	C 	0.05850 0.70340 0.38820 -0.00400
C 	C 	0.87350 0.75480 0.27220 0.32600
N 	N 	0.83670 0.57470 0.03380 -0.16400
N 	N 	0.65680 0.69730 0.07000 -0.23600
N 	N 	0.87050 0.03380 0.39150 -0.16500
N 	N 	0.72680 0.07000 0.23270 -0.23700
N 	N 	0.26200 0.39150 0.57470 -0.15900
N 	N 	0.95950 0.23270 0.69730 -0.23400
N 	N 	0.16330 0.42530 0.96620 -0.16800
N 	N 	0.34320 0.30270 0.93000 -0.25100
N 	N 	0.12950 0.96620 0.60850 -0.17000
N 	N 	0.27320 0.93000 0.76730 -0.24800
N 	N 	0.73800 0.60850 0.42530 -0.17700
N 	N 	0.04050 0.76730 0.30270 -0.25200
O 	O 	0.94290 0.81260 0.00620 -0.44500
O 	O 	0.27920 0.75660 0.94450 -0.40400
O 	O 	0.21530 0.61330 0.95480 -0.42800
O 	O 	0.29190 0.82200 0.09840 -0.56000
O 	O 	0.94910 0.00620 0.18120 -0.43700
O 	O 	0.22370 0.94450 0.29890 -0.40900
O 	O 	0.17010 0.95480 0.43190 -0.43100
O 	O 	0.39030 0.09840 0.07960 -0.54600
O 	O 	0.13030 0.18120 0.81260 -0.49800
O 	O 	0.52260 0.29890 0.75660 -0.41000
O 	O 	0.60200 0.43190 0.61330 -0.42100
O 	O 	0.46990 0.07960 0.82200 -0.55600
O 	O 	0.05710 0.18740 0.99380 -0.54700
O 	O 	0.72080 0.24340 0.05550 -0.42700
O 	O 	0.78470 0.38670 0.04520 -0.42100
O 	O 	0.70810 0.17800 0.90160 -0.58200
O 	O 	0.05090 0.99380 0.81880 -0.53700
O 	O 	0.77630 0.05550 0.70110 -0.42100
O 	O 	0.82990 0.04520 0.56810 -0.41900
O 	O 	0.60970 0.90160 0.92040 -0.58000
O 	O 	0.86970 0.81880 0.18740 -0.48600
O 	O 	0.47740 0.70110 0.24340 -0.41900
O 	O 	0.39800 0.56810 0.38670 -0.43100
O 	O 	0.53010 0.92040 0.17800 -0.58500
O 	O 	0.50000 0.00000 -0.00000 -0.59900
O 	O 	0.17533 0.00000 -0.00000 -0.62800
O 	O 	0.82467 0.00000 -0.00000 -0.63600
