data_crystal

_cell_length_a 27.39340
_cell_length_b 27.39340
_cell_length_c 14.01080
_cell_angle_alpha 90.00000
_cell_angle_beta  90.00000
_cell_angle_gamma 120.00000

_symmetry_space_group_name_	'P 1'
_symmetry_space_group_name_H-M	'P 1'

loop_
_symmetry_equiv_pos_as_xyz
  x,y,z

loop_
_atom_site_label
_atom_site_type_symbol
_atom_site_fract_x
_atom_site_fract_y
_atom_site_fract_z
_atom_site_charge
Dy	Dy	0.73911 0.41371 0.02451 1.90900
C 	C 	0.77160 0.55520 0.13520 -0.22000
N 	N 	0.78460 0.60550 0.17175 -0.16700
C 	C 	0.76750 0.60970 0.25800 -0.05700
H 	H 	0.77810 0.64490 0.28385 0.04200
C 	C 	0.79460 0.55720 0.03795 0.40600
N 	N 	0.71850 0.51020 0.27570 -0.27600
O 	O 	0.72360 0.45520 0.16295 -0.56700
C 	C 	0.73340 0.56110 0.30850 0.08000
H 	H 	0.72050 0.56420 0.36855 -0.01200
C 	C 	0.73860 0.50590 0.18795 0.28700
O 	O 	0.78250 0.51290 0.49455 -0.48400
O 	O 	0.82380 0.60550 0.00100 -0.44000
O 	O 	0.65900 0.41740 0.47340 -0.79900
H 	H 	0.53952 0.32289 0.33657 0.20700
Dy	Dy	0.40578 0.74704 0.19118 1.92000
C 	C 	0.43827 0.88853 0.30187 -0.22300
N 	N 	0.45127 0.93883 0.33842 -0.17200
C 	C 	0.43417 0.94303 0.42467 -0.05800
H 	H 	0.44477 0.97823 0.45052 0.03200
C 	C 	0.46127 0.89053 0.20462 0.41300
N 	N 	0.38517 0.84353 0.44237 -0.27500
O 	O 	0.39027 0.78853 0.32962 -0.56700
C 	C 	0.40007 0.89443 0.47517 0.07900
H 	H 	0.38717 0.89753 0.03522 -0.00600
C 	C 	0.40527 0.83923 0.35462 0.28900
O 	O 	0.44917 0.84623 0.16122 -0.48400
O 	O 	0.49047 0.93883 0.16767 -0.45000
O 	O 	0.32567 0.75073 0.14007 -0.79600
H 	H 	0.20619 0.65623 0.00324 0.20900
Dy	Dy	0.07244 0.08038 0.35784 1.94000
C 	C 	0.10493 0.22187 0.46853 -0.21800
N 	N 	0.11793 0.27217 0.00508 -0.16400
C 	C 	0.10083 0.27637 0.09133 -0.05300
H 	H 	0.11143 0.31157 0.11718 0.04400
C 	C 	0.12793 0.22387 0.37128 0.41200
N 	N 	0.05183 0.17687 0.10903 -0.26400
O 	O 	0.05693 0.12187 0.49628 -0.55700
C 	C 	0.06673 0.22777 0.14183 0.08200
H 	H 	0.05383 0.23087 0.20188 -0.00400
C 	C 	0.07193 0.17257 0.02128 0.29400
O 	O 	0.11583 0.17957 0.32788 -0.48200
O 	O 	0.15713 0.27217 0.33433 -0.43700
O 	O 	0.99233 0.08407 0.30673 -0.82400
H 	H 	0.87286 -0.01044 0.16990 0.23400
Dy	Dy	0.58629 0.32540 0.02451 1.91200
C 	C 	0.44480 0.21640 0.13520 -0.21800
N 	N 	0.39450 0.17910 0.17175 -0.16500
C 	C 	0.39030 0.15780 0.25800 -0.05500
H 	H 	0.35510 0.13320 0.28385 0.04600
C 	C 	0.44280 0.23740 0.03795 0.40800
N 	N 	0.48980 0.20830 0.27570 -0.27500
O 	O 	0.54480 0.26840 0.16295 -0.56600
C 	C 	0.43890 0.17230 0.30850 0.08200
H 	H 	0.43580 0.15630 0.36855 -0.00900
C 	C 	0.49410 0.23270 0.18795 0.28900
O 	O 	0.48710 0.26960 0.49455 -0.48300
O 	O 	0.39450 0.21830 0.00100 -0.43700
O 	O 	0.58260 0.24160 0.47340 -0.79800
H 	H 	0.67711 0.21663 0.33657 0.20800
Dy	Dy	0.25296 0.65873 0.19118 1.92200
C 	C 	0.11147 0.54973 0.30187 -0.21700
N 	N 	0.06117 0.51243 0.33842 -0.16100
C 	C 	0.05697 0.49113 0.42467 -0.05400
H 	H 	0.02177 0.46653 0.45052 0.05300
C 	C 	0.10947 0.57073 0.20462 0.41000
N 	N 	0.15647 0.54163 0.44237 -0.27500
O 	O 	0.21147 0.60173 0.32962 -0.56600
C 	C 	0.10557 0.50563 0.47517 0.08300
H 	H 	0.10247 0.48963 0.03522 -0.00300
C 	C 	0.16077 0.56603 0.35462 0.29000
O 	O 	0.15377 0.60293 0.16122 -0.48000
O 	O 	0.06117 0.55163 0.16767 -0.42600
O 	O 	0.24927 0.57493 0.14007 -0.79600
H 	H 	0.34377 0.54996 0.00324 0.20800
Dy	Dy	0.91962 0.99207 0.35784 1.82900
C 	C 	0.77813 0.88307 0.46853 -0.22000
N 	N 	0.72783 0.84577 0.00508 -0.16500
C 	C 	0.72363 0.82447 0.09133 -0.05600
H 	H 	0.68843 0.79987 0.11718 0.04300
C 	C 	0.77613 0.90407 0.37128 0.40700
N 	N 	0.82313 0.87497 0.10903 -0.27100
O 	O 	0.87813 0.93507 0.49628 -0.56400
C 	C 	0.77223 0.83897 0.14183 0.07900
H 	H 	0.76913 0.82297 0.20188 -0.01000
C 	C 	0.82743 0.89937 0.02128 0.28900
O 	O 	0.82043 0.93627 0.32788 -0.48000
O 	O 	0.72783 0.88497 0.33433 -0.44000
O 	O 	0.91593 0.90827 0.30673 -0.79800
H 	H 	1.01044 0.88330 0.16990 0.17800
Dy	Dy	0.67460 0.26089 0.02451 1.90900
C 	C 	0.78360 0.22840 0.13520 -0.21900
N 	N 	0.82090 0.21540 0.17175 -0.16600
C 	C 	0.84220 0.23250 0.25800 -0.05700
H 	H 	0.86680 0.22190 0.28385 0.03900
C 	C 	0.76260 0.20540 0.03795 0.40500
N 	N 	0.79170 0.28150 0.27570 -0.27500
O 	O 	0.73160 0.27640 0.16295 -0.56600
C 	C 	0.82770 0.26660 0.30850 0.08000
H 	H 	0.84370 0.27950 0.36855 -0.01400
C 	C 	0.76730 0.26140 0.18795 0.28800
O 	O 	0.73040 0.21750 0.49455 -0.48300
O 	O 	0.78170 0.17620 0.00100 -0.43800
O 	O 	0.75840 0.34100 0.47340 -0.79800
H 	H 	0.78337 0.46048 0.33657 0.20700
Dy	Dy	0.34127 0.59422 0.19118 1.92100
C 	C 	0.45027 0.56173 0.30187 -0.22000
N 	N 	0.48757 0.54873 0.33842 -0.16500
C 	C 	0.50887 0.56583 0.42467 -0.05600
H 	H 	0.53347 0.55523 0.45052 0.04300
C 	C 	0.42927 0.53873 0.20462 0.41200
N 	N 	0.45837 0.61483 0.44237 -0.27500
O 	O 	0.39827 0.60973 0.32962 -0.56600
C 	C 	0.49437 0.59993 0.47517 0.08100
H 	H 	0.51037 0.61283 0.03522 -0.00900
C 	C 	0.43397 0.59473 0.35462 0.29000
O 	O 	0.39707 0.55083 0.16122 -0.48300
O 	O 	0.44837 0.50953 0.16767 -0.43700
O 	O 	0.42507 0.67433 0.14007 -0.79700
H 	H 	0.45004 0.79381 0.00324 0.20800
Dy	Dy	0.00793 0.92756 0.35784 1.91500
C 	C 	0.11693 0.89507 0.46853 -0.21900
N 	N 	0.15423 0.88207 0.00508 -0.15800
C 	C 	0.17553 0.89917 0.09133 -0.06000
H 	H 	0.20013 0.88857 0.11718 0.04300
C 	C 	0.09593 0.87207 0.37128 0.41200
N 	N 	0.12503 0.94817 0.10903 -0.28600
O 	O 	0.06493 0.94307 0.49628 -0.57600
C 	C 	0.16103 0.93327 0.14183 0.08400
H 	H 	0.17703 0.94617 0.20188 -0.01800
C 	C 	0.10063 0.92807 0.02128 0.30900
O 	O 	0.06373 0.88417 0.32788 -0.47600
O 	O 	0.11503 0.84287 0.33433 -0.43300
O 	O 	0.09173 0.00767 0.30673 -0.77100
H 	H 	0.11670 0.12714 0.16990 0.20700
Dy	Dy	0.26089 0.58629 0.47549 1.92100
C 	C 	0.22840 0.44480 0.36480 -0.21900
N 	N 	0.21540 0.39450 0.32825 -0.16500
C 	C 	0.23250 0.39030 0.24200 -0.05600
H 	H 	0.22190 0.35510 0.21615 0.04300
C 	C 	0.20540 0.44280 0.46205 0.41200
N 	N 	0.28150 0.48980 0.22430 -0.27500
O 	O 	0.27640 0.54480 0.33705 -0.56600
C 	C 	0.26660 0.43890 0.19150 0.08100
H 	H 	0.27950 0.43580 0.13145 -0.01100
C 	C 	0.26140 0.49410 0.31205 0.29000
O 	O 	0.21750 0.48710 0.00545 -0.47800
O 	O 	0.17620 0.39450 0.49900 -0.43600
O 	O 	0.34100 0.58260 0.02660 -0.79500
H 	H 	0.46048 0.67711 0.16343 0.20800
Dy	Dy	0.92756 0.91962 0.14216 1.84800
C 	C 	0.89507 0.77813 0.03147 -0.22300
N 	N 	0.88207 0.72783 0.49492 -0.16600
C 	C 	0.89917 0.72363 0.40867 -0.05800
H 	H 	0.88857 0.68843 0.38282 0.04100
C 	C 	0.87207 0.77613 0.12872 0.41000
N 	N 	0.94817 0.82313 0.39097 -0.28100
O 	O 	0.94307 0.87813 0.00372 -0.57200
C 	C 	0.93327 0.77223 0.35817 0.07900
H 	H 	0.94617 0.76913 0.29812 -0.01600
C 	C 	0.92807 0.82743 0.47872 0.28800
O 	O 	0.88417 0.82043 0.17212 -0.47800
O 	O 	0.84287 0.72783 0.16567 -0.43700
O 	O 	0.00767 0.91593 0.19327 -0.77100
H 	H 	0.12714 1.01044 0.33010 0.17700
Dy	Dy	0.59422 0.25296 0.30882 1.92100
C 	C 	0.56173 0.11147 0.19813 -0.21700
N 	N 	0.54873 0.06117 0.16158 -0.16300
C 	C 	0.56583 0.05697 0.07533 -0.04900
H 	H 	0.55523 0.02177 0.04948 0.04900
C 	C 	0.53873 0.10947 0.29538 0.41000
N 	N 	0.61483 0.15647 0.05763 -0.27300
O 	O 	0.60973 0.21147 0.17038 -0.56600
C 	C 	0.59993 0.10557 0.02483 0.07100
H 	H 	0.61283 0.10247 0.46478 -0.00900
C 	C 	0.59473 0.16077 0.14538 0.28900
O 	O 	0.55083 0.15377 0.33878 -0.48100
O 	O 	0.50953 0.06117 0.33233 -0.42800
O 	O 	0.67433 0.24927 0.35993 -0.79800
H 	H 	0.79381 0.34377 0.49676 0.20700
Dy	Dy	0.41371 0.67460 0.47549 1.92000
C 	C 	0.55520 0.78360 0.36480 -0.22100
N 	N 	0.60550 0.82090 0.32825 -0.16600
C 	C 	0.60970 0.84220 0.24200 -0.05700
H 	H 	0.64490 0.86680 0.21615 0.04000
C 	C 	0.55720 0.76260 0.46205 0.41100
N 	N 	0.51020 0.79170 0.22430 -0.27500
O 	O 	0.45520 0.73160 0.33705 -0.56700
C 	C 	0.56110 0.82770 0.19150 0.08000
H 	H 	0.56420 0.84370 0.13145 -0.01300
C 	C 	0.50590 0.76730 0.31205 0.28900
O 	O 	0.51290 0.73040 0.00545 -0.47900
O 	O 	0.60550 0.78170 0.49900 -0.43800
O 	O 	0.41740 0.75840 0.02660 -0.79400
H 	H 	0.32289 0.78337 0.16343 0.20700
Dy	Dy	0.08038 0.00793 0.14216 1.96300
C 	C 	0.22187 0.11693 0.03147 -0.22100
N 	N 	0.27217 0.15423 0.49492 -0.16500
C 	C 	0.27637 0.17553 0.40867 -0.05500
H 	H 	0.31157 0.20013 0.38282 0.04300
C 	C 	0.22387 0.09593 0.12872 0.41500
N 	N 	0.17687 0.12503 0.39097 -0.27600
O 	O 	0.12187 0.06493 0.00372 -0.56700
C 	C 	0.22777 0.16103 0.35817 0.08300
H 	H 	0.23087 0.17703 0.29812 -0.01200
C 	C 	0.17257 0.10063 0.47872 0.29300
O 	O 	0.17957 0.06373 0.17212 -0.47900
O 	O 	0.27217 0.11503 0.16567 -0.43400
O 	O 	0.08407 0.09173 0.19327 -0.79200
H 	H 	-0.01044 0.11670 0.33010 0.24200
Dy	Dy	0.74704 0.34127 0.30882 1.92000
C 	C 	0.88853 0.45027 0.19813 -0.22300
N 	N 	0.93883 0.48757 0.16158 -0.17400
C 	C 	0.94303 0.50887 0.07533 -0.05400
H 	H 	0.97823 0.53347 0.04948 0.03000
C 	C 	0.89053 0.42927 0.29538 0.41300
N 	N 	0.84353 0.45837 0.05763 -0.27400
O 	O 	0.78853 0.39827 0.17038 -0.56600
C 	C 	0.89443 0.49437 0.02483 0.06900
H 	H 	0.89753 0.51037 0.46478 -0.01300
C 	C 	0.83923 0.43397 0.14538 0.28900
O 	O 	0.84623 0.39707 0.33878 -0.48500
O 	O 	0.93883 0.44837 0.33233 -0.45300
O 	O 	0.75073 0.42507 0.35993 -0.79800
H 	H 	0.65623 0.45004 0.49676 0.20800
Dy	Dy	0.32540 0.73911 0.47549 1.92000
C 	C 	0.21640 0.77160 0.36480 -0.22000
N 	N 	0.17910 0.78460 0.32825 -0.16500
C 	C 	0.15780 0.76750 0.24200 -0.05500
H 	H 	0.13320 0.77810 0.21615 0.04600
C 	C 	0.23740 0.79460 0.46205 0.41200
N 	N 	0.20830 0.71850 0.22430 -0.27500
O 	O 	0.26840 0.72360 0.33705 -0.56600
C 	C 	0.17230 0.73340 0.19150 0.08200
H 	H 	0.15630 0.72050 0.13145 -0.00800
C 	C 	0.23270 0.73860 0.31205 0.29000
O 	O 	0.26960 0.78250 0.00545 -0.47600
O 	O 	0.21830 0.82380 0.49900 -0.43800
O 	O 	0.24160 0.65900 0.02660 -0.79400
H 	H 	0.21663 0.53952 0.16343 0.20800
Dy	Dy	0.99207 0.07244 0.14216 1.85400
C 	C 	0.88307 0.10493 0.03147 -0.23600
N 	N 	0.84577 0.11793 0.49492 -0.16600
C 	C 	0.82447 0.10083 0.40867 -0.05300
H 	H 	0.79987 0.11143 0.38282 0.04400
C 	C 	0.90407 0.12793 0.12872 0.41300
N 	N 	0.87497 0.05183 0.39097 -0.26400
O 	O 	0.93507 0.05693 0.00372 -0.56700
C 	C 	0.83897 0.06673 0.35817 0.08000
H 	H 	0.82297 0.05383 0.29812 -0.00400
C 	C 	0.89937 0.07193 0.47872 0.28800
O 	O 	0.93627 0.11583 0.17212 -0.48500
O 	O 	0.88497 0.15713 0.16567 -0.44200
O 	O 	0.90827 0.99233 0.19327 -0.81400
H 	H 	0.88330 0.87286 0.33010 0.20900
Dy	Dy	0.65873 0.40578 0.30882 1.92000
C 	C 	0.54973 0.43827 0.19813 -0.22000
N 	N 	0.51243 0.45127 0.16158 -0.16600
C 	C 	0.49113 0.43417 0.07533 -0.05500
H 	H 	0.46653 0.44477 0.04948 0.04200
C 	C 	0.57073 0.46127 0.29538 0.41200
N 	N 	0.54163 0.38517 0.05763 -0.27500
O 	O 	0.60173 0.39027 0.17038 -0.56600
C 	C 	0.50563 0.40007 0.02483 0.07800
H 	H 	0.48963 0.38717 0.46478 -0.01100
C 	C 	0.56603 0.40527 0.14538 0.28900
O 	O 	0.60293 0.44917 0.33878 -0.48300
O 	O 	0.55163 0.49047 0.33233 -0.43700
O 	O 	0.57493 0.32567 0.35993 -0.79800
H 	H 	0.54996 0.20619 0.49676 0.20800
Cu	Cu	0.83333 0.66667 0.08333 0.88600
Cu	Cu	0.50000 0.00000 0.25000 0.89900
Cu	Cu	0.33333 0.16667 0.08333 0.88700
Cu	Cu	0.00000 0.50000 0.25000 0.90100
Cu	Cu	0.83333 0.16667 0.08333 0.88500
Cu	Cu	0.50000 0.50000 0.25000 0.88700
Cu	Cu	0.16667 0.33333 0.41667 0.88700
Cu	Cu	0.66667 0.83333 0.41667 0.88600
Cu	Cu	0.16667 0.83333 0.41667 0.88700
O 	O 	0.66667 0.33333 0.41667 -0.70800
O 	O 	-0.00000 0.00000 0.25000 -0.66800
O 	O 	0.33333 0.66667 0.08333 -0.70500
O 	O 	0.66667 0.33333 0.07700 -0.79800
O 	O 	0.33333 0.66667 0.24367 -0.80000
O 	O 	-0.00000 0.00000 0.41033 -0.76000
O 	O 	0.33333 0.66667 0.42300 -0.80000
O 	O 	0.00000 0.00000 0.08967 -0.75800
O 	O 	0.66667 0.33333 0.25633 -0.79900
Dy	Dy	0.73911 0.41371 0.52451 1.92000
C 	C 	0.77160 0.55520 0.63520 -0.22000
N 	N 	0.78460 0.60550 0.67175 -0.16600
C 	C 	0.76750 0.60970 0.75800 -0.05600
H 	H 	0.77810 0.64490 0.78385 0.04300
C 	C 	0.79460 0.55720 0.53795 0.41100
N 	N 	0.71850 0.51020 0.77570 -0.27500
O 	O 	0.72360 0.45520 0.66295 -0.56600
C 	C 	0.73340 0.56110 0.80850 0.08100
H 	H 	0.72050 0.56420 0.86855 -0.01100
C 	C 	0.73860 0.50590 0.68795 0.28900
O 	O 	0.78250 0.51290 0.99455 -0.47900
O 	O 	0.82380 0.60550 0.50100 -0.43900
O 	O 	0.65900 0.41740 0.97340 -0.79500
H 	H 	0.53952 0.32289 0.83657 0.20700
Dy	Dy	0.40578 0.74704 0.69118 1.92000
C 	C 	0.43827 0.88853 0.80187 -0.22300
N 	N 	0.45127 0.93883 0.83842 -0.17400
C 	C 	0.43417 0.94303 0.92467 -0.05300
H 	H 	0.44477 0.97823 0.95052 0.02900
C 	C 	0.46127 0.89053 0.70462 0.41300
N 	N 	0.38517 0.84353 0.94237 -0.27400
O 	O 	0.39027 0.78853 0.82962 -0.56600
C 	C 	0.40007 0.89443 0.97517 0.06700
H 	H 	0.38717 0.89753 0.53522 -0.01400
C 	C 	0.40527 0.83923 0.85462 0.28900
O 	O 	0.44917 0.84623 0.66122 -0.48500
O 	O 	0.49047 0.93883 0.66767 -0.45200
O 	O 	0.32567 0.75073 0.64007 -0.79700
H 	H 	0.20619 0.65623 0.50324 0.20800
Dy	Dy	0.07244 0.08038 0.85784 1.93800
C 	C 	0.10493 0.22187 0.96853 -0.22100
N 	N 	0.11793 0.27217 0.50508 -0.16500
C 	C 	0.10083 0.27637 0.59133 -0.05300
H 	H 	0.11143 0.31157 0.61718 0.04400
C 	C 	0.12793 0.22387 0.87128 0.41300
N 	N 	0.05183 0.17687 0.60903 -0.26500
O 	O 	0.05693 0.12187 0.99628 -0.55700
C 	C 	0.06673 0.22777 0.64183 0.08200
H 	H 	0.05383 0.23087 0.70188 -0.00500
C 	C 	0.07193 0.17257 0.52128 0.29200
O 	O 	0.11583 0.17957 0.82788 -0.48300
O 	O 	0.15713 0.27217 0.83433 -0.43700
O 	O 	0.99233 0.08407 0.80673 -0.81800
H 	H 	0.87286 -0.01044 0.66990 0.23900
Dy	Dy	0.58629 0.32540 0.52451 1.92100
C 	C 	0.44480 0.21640 0.63520 -0.21900
N 	N 	0.39450 0.17910 0.67175 -0.16400
C 	C 	0.39030 0.15780 0.75800 -0.05500
H 	H 	0.35510 0.13320 0.78385 0.04600
C 	C 	0.44280 0.23740 0.53795 0.41200
N 	N 	0.48980 0.20830 0.77570 -0.27500
O 	O 	0.54480 0.26840 0.66295 -0.56600
C 	C 	0.43890 0.17230 0.80850 0.08200
H 	H 	0.43580 0.15630 0.86855 -0.00900
C 	C 	0.49410 0.23270 0.68795 0.29000
O 	O 	0.48710 0.26960 0.99455 -0.47900
O 	O 	0.39450 0.21830 0.50100 -0.43700
O 	O 	0.58260 0.24160 0.97340 -0.79500
H 	H 	0.67711 0.21663 0.83657 0.20800
Dy	Dy	0.25296 0.65873 0.69118 1.92100
C 	C 	0.11147 0.54973 0.80187 -0.21700
N 	N 	0.06117 0.51243 0.83842 -0.16300
C 	C 	0.05697 0.49113 0.92467 -0.05000
H 	H 	0.02177 0.46653 0.95052 0.04900
C 	C 	0.10947 0.57073 0.70462 0.41000
N 	N 	0.15647 0.54163 0.94237 -0.27400
O 	O 	0.21147 0.60173 0.82962 -0.56600
C 	C 	0.10557 0.50563 0.97517 0.07300
H 	H 	0.10247 0.48963 0.53522 -0.00900
C 	C 	0.16077 0.56603 0.85462 0.28900
O 	O 	0.15377 0.60293 0.66122 -0.48100
O 	O 	0.06117 0.55163 0.66767 -0.42800
O 	O 	0.24927 0.57493 0.64007 -0.79800
H 	H 	0.34377 0.54996 0.50324 0.20700
Dy	Dy	0.91962 0.99207 0.85784 1.82700
C 	C 	0.77813 0.88307 0.96853 -0.22200
N 	N 	0.72783 0.84577 0.50508 -0.16600
C 	C 	0.72363 0.82447 0.59133 -0.05600
H 	H 	0.68843 0.79987 0.61718 0.04200
C 	C 	0.77613 0.90407 0.87128 0.40800
N 	N 	0.82313 0.87497 0.60903 -0.27100
O 	O 	0.87813 0.93507 0.99628 -0.56400
C 	C 	0.77223 0.83897 0.64183 0.07800
H 	H 	0.76913 0.82297 0.70188 -0.00900
C 	C 	0.82743 0.89937 0.52128 0.28700
O 	O 	0.82043 0.93627 0.82788 -0.48100
O 	O 	0.72783 0.88497 0.83433 -0.44000
O 	O 	0.91593 0.90827 0.80673 -0.79600
H 	H 	1.01044 0.88330 0.66990 0.18300
Dy	Dy	0.67460 0.26089 0.52451 1.92100
C 	C 	0.78360 0.22840 0.63520 -0.22000
N 	N 	0.82090 0.21540 0.67175 -0.16600
C 	C 	0.84220 0.23250 0.75800 -0.05600
H 	H 	0.86680 0.22190 0.78385 0.04000
C 	C 	0.76260 0.20540 0.53795 0.41200
N 	N 	0.79170 0.28150 0.77570 -0.27500
O 	O 	0.73160 0.27640 0.66295 -0.56600
C 	C 	0.82770 0.26660 0.80850 0.08000
H 	H 	0.84370 0.27950 0.86855 -0.01200
C 	C 	0.76730 0.26140 0.68795 0.28900
O 	O 	0.73040 0.21750 0.99455 -0.47500
O 	O 	0.78170 0.17620 0.50100 -0.43600
O 	O 	0.75840 0.34100 0.97340 -0.79400
H 	H 	0.78337 0.46048 0.83657 0.20700
Dy	Dy	0.34127 0.59422 0.69118 1.92000
C 	C 	0.45027 0.56173 0.80187 -0.22000
N 	N 	0.48757 0.54873 0.83842 -0.16600
C 	C 	0.50887 0.56583 0.92467 -0.05500
H 	H 	0.53347 0.55523 0.95052 0.04200
C 	C 	0.42927 0.53873 0.70462 0.41200
N 	N 	0.45837 0.61483 0.94237 -0.27500
O 	O 	0.39827 0.60973 0.82962 -0.56600
C 	C 	0.49437 0.59993 0.97517 0.07800
H 	H 	0.51037 0.61283 0.53522 -0.01100
C 	C 	0.43397 0.59473 0.85462 0.28900
O 	O 	0.39707 0.55083 0.66122 -0.48300
O 	O 	0.44837 0.50953 0.66767 -0.43700
O 	O 	0.42507 0.67433 0.64007 -0.79800
H 	H 	0.45004 0.79381 0.50324 0.20700
Dy	Dy	0.00793 0.92756 0.85784 1.90200
C 	C 	0.11693 0.89507 0.96853 -0.23600
N 	N 	0.15423 0.88207 0.50508 -0.16500
C 	C 	0.17553 0.89917 0.59133 -0.05900
H 	H 	0.20013 0.88857 0.61718 0.04100
C 	C 	0.09593 0.87207 0.87128 0.41700
N 	N 	0.12503 0.94817 0.60903 -0.28400
O 	O 	0.06493 0.94307 0.99628 -0.58500
C 	C 	0.16103 0.93327 0.64183 0.08100
H 	H 	0.17703 0.94617 0.70188 -0.01800
C 	C 	0.10063 0.92807 0.52128 0.29000
O 	O 	0.06373 0.88417 0.82788 -0.47800
O 	O 	0.11503 0.84287 0.83433 -0.43600
O 	O 	0.09173 0.00767 0.80673 -0.76500
H 	H 	0.11670 0.12714 0.66990 0.20700
Dy	Dy	0.26089 0.58629 0.97549 1.91100
C 	C 	0.22840 0.44480 0.86480 -0.21800
N 	N 	0.21540 0.39450 0.82825 -0.16500
C 	C 	0.23250 0.39030 0.74200 -0.05600
H 	H 	0.22190 0.35510 0.71615 0.04200
C 	C 	0.20540 0.44280 0.96205 0.40800
N 	N 	0.28150 0.48980 0.72430 -0.27500
O 	O 	0.27640 0.54480 0.83705 -0.56600
C 	C 	0.26660 0.43890 0.69150 0.08100
H 	H 	0.27950 0.43580 0.63145 -0.01100
C 	C 	0.26140 0.49410 0.81205 0.28900
O 	O 	0.21750 0.48710 0.50545 -0.48200
O 	O 	0.17620 0.39450 0.99900 -0.43600
O 	O 	0.34100 0.58260 0.52660 -0.79800
H 	H 	0.46048 0.67711 0.66343 0.20800
Dy	Dy	0.92756 0.91962 0.64216 1.84900
C 	C 	0.89507 0.77813 0.53147 -0.22000
N 	N 	0.88207 0.72783 0.99492 -0.16500
C 	C 	0.89917 0.72363 0.90867 -0.05800
H 	H 	0.88857 0.68843 0.88282 0.04200
C 	C 	0.87207 0.77613 0.62872 0.40900
N 	N 	0.94817 0.82313 0.89097 -0.27900
O 	O 	0.94307 0.87813 0.50372 -0.57300
C 	C 	0.93327 0.77223 0.85817 0.08000
H 	H 	0.94617 0.76913 0.79812 -0.01500
C 	C 	0.92807 0.82743 0.97872 0.29100
O 	O 	0.88417 0.82043 0.67212 -0.47700
O 	O 	0.84287 0.72783 0.66567 -0.43700
O 	O 	0.00767 0.91593 0.69327 -0.77700
H 	H 	0.12714 1.01044 0.83010 0.17200
Dy	Dy	0.59422 0.25296 0.80882 1.92200
C 	C 	0.56173 0.11147 0.69813 -0.21700
N 	N 	0.54873 0.06117 0.66158 -0.16100
C 	C 	0.56583 0.05697 0.57533 -0.05400
H 	H 	0.55523 0.02177 0.54948 0.05300
C 	C 	0.53873 0.10947 0.79538 0.41000
N 	N 	0.61483 0.15647 0.55763 -0.27500
O 	O 	0.60973 0.21147 0.67038 -0.56600
C 	C 	0.59993 0.10557 0.52483 0.08300
H 	H 	0.61283 0.10247 0.96478 -0.00200
C 	C 	0.59473 0.16077 0.64538 0.29000
O 	O 	0.55083 0.15377 0.83878 -0.48000
O 	O 	0.50953 0.06117 0.83233 -0.42600
O 	O 	0.67433 0.24927 0.85993 -0.79600
H 	H 	0.79381 0.34377 0.99676 0.20800
Dy	Dy	0.41371 0.67460 0.97549 1.91200
C 	C 	0.55520 0.78360 0.86480 -0.22000
N 	N 	0.60550 0.82090 0.82825 -0.16600
C 	C 	0.60970 0.84220 0.74200 -0.05700
H 	H 	0.64490 0.86680 0.71615 0.04000
C 	C 	0.55720 0.76260 0.96205 0.40800
N 	N 	0.51020 0.79170 0.72430 -0.27500
O 	O 	0.45520 0.73160 0.83705 -0.56600
C 	C 	0.56110 0.82770 0.69150 0.08000
H 	H 	0.56420 0.84370 0.63145 -0.01300
C 	C 	0.50590 0.76730 0.81205 0.28800
O 	O 	0.51290 0.73040 0.50545 -0.48300
O 	O 	0.60550 0.78170 0.99900 -0.43800
O 	O 	0.41740 0.75840 0.52660 -0.79800
H 	H 	0.32289 0.78337 0.66343 0.20700
Dy	Dy	0.08038 0.00793 0.64216 1.96600
C 	C 	0.22187 0.11693 0.53147 -0.21900
N 	N 	0.27217 0.15423 0.99492 -0.16400
C 	C 	0.27637 0.17553 0.90867 -0.05600
H 	H 	0.31157 0.20013 0.88282 0.04300
C 	C 	0.22387 0.09593 0.62872 0.41400
N 	N 	0.17687 0.12503 0.89097 -0.27600
O 	O 	0.12187 0.06493 0.50372 -0.56600
C 	C 	0.22777 0.16103 0.85817 0.08300
H 	H 	0.23087 0.17703 0.79812 -0.01200
C 	C 	0.17257 0.10063 0.97872 0.29500
O 	O 	0.17957 0.06373 0.67212 -0.47800
O 	O 	0.27217 0.11503 0.66567 -0.43300
O 	O 	0.08407 0.09173 0.69327 -0.79400
H 	H 	-0.01044 0.11670 0.83010 0.23700
Dy	Dy	0.74704 0.34127 0.80882 1.92100
C 	C 	0.88853 0.45027 0.69813 -0.22300
N 	N 	0.93883 0.48757 0.66158 -0.17200
C 	C 	0.94303 0.50887 0.57533 -0.05800
H 	H 	0.97823 0.53347 0.54948 0.03200
C 	C 	0.89053 0.42927 0.79538 0.41300
N 	N 	0.84353 0.45837 0.55763 -0.27500
O 	O 	0.78853 0.39827 0.67038 -0.56700
C 	C 	0.89443 0.49437 0.52483 0.07900
H 	H 	0.89753 0.51037 0.96478 -0.00700
C 	C 	0.83923 0.43397 0.64538 0.28900
O 	O 	0.84623 0.39707 0.83878 -0.48400
O 	O 	0.93883 0.44837 0.83233 -0.45000
O 	O 	0.75073 0.42507 0.85993 -0.79600
H 	H 	0.65623 0.45004 0.99676 0.20800
Dy	Dy	0.32540 0.73911 0.97549 1.90800
C 	C 	0.21640 0.77160 0.86480 -0.21800
N 	N 	0.17910 0.78460 0.82825 -0.16500
C 	C 	0.15780 0.76750 0.74200 -0.05500
H 	H 	0.13320 0.77810 0.71615 0.04500
C 	C 	0.23740 0.79460 0.96205 0.40500
N 	N 	0.20830 0.71850 0.72430 -0.27500
O 	O 	0.26840 0.72360 0.83705 -0.56600
C 	C 	0.17230 0.73340 0.69150 0.08200
H 	H 	0.15630 0.72050 0.63145 -0.00900
C 	C 	0.23270 0.73860 0.81205 0.28800
O 	O 	0.26960 0.78250 0.50545 -0.48300
O 	O 	0.21830 0.82380 0.99900 -0.44000
O 	O 	0.24160 0.65900 0.52660 -0.79800
H 	H 	0.21663 0.53952 0.66343 0.20800
Dy	Dy	0.99207 0.07244 0.64216 1.86600
C 	C 	0.88307 0.10493 0.53147 -0.21900
N 	N 	0.84577 0.11793 0.99492 -0.15800
C 	C 	0.82447 0.10083 0.90867 -0.05500
H 	H 	0.79987 0.11143 0.88282 0.04500
C 	C 	0.90407 0.12793 0.62872 0.40900
N 	N 	0.87497 0.05183 0.89097 -0.26600
O 	O 	0.93507 0.05693 0.50372 -0.55700
C 	C 	0.83897 0.06673 0.85817 0.08300
H 	H 	0.82297 0.05383 0.79812 -0.00400
C 	C 	0.89937 0.07193 0.97872 0.30700
O 	O 	0.93627 0.11583 0.67212 -0.48200
O 	O 	0.88497 0.15713 0.66567 -0.44000
O 	O 	0.90827 0.99233 0.69327 -0.82100
H 	H 	0.88330 0.87286 0.83010 0.20900
Dy	Dy	0.65873 0.40578 0.80882 1.92100
C 	C 	0.54973 0.43827 0.69813 -0.22000
N 	N 	0.51243 0.45127 0.66158 -0.16500
C 	C 	0.49113 0.43417 0.57533 -0.05600
H 	H 	0.46653 0.44477 0.54948 0.04300
C 	C 	0.57073 0.46127 0.79538 0.41200
N 	N 	0.54163 0.38517 0.55763 -0.27500
O 	O 	0.60173 0.39027 0.67038 -0.56600
C 	C 	0.50563 0.40007 0.52483 0.08100
H 	H 	0.48963 0.38717 0.96478 -0.00900
C 	C 	0.56603 0.40527 0.64538 0.29000
O 	O 	0.60293 0.44917 0.83878 -0.48300
O 	O 	0.55163 0.49047 0.83233 -0.43700
O 	O 	0.57493 0.32567 0.85993 -0.79700
H 	H 	0.54996 0.20619 0.99676 0.20900
Cu	Cu	0.83333 0.66667 0.58333 0.88600
Cu	Cu	0.50000 0.00000 0.75000 0.90100
Cu	Cu	0.33333 0.16667 0.58333 0.88800
Cu	Cu	0.00000 0.50000 0.75000 0.89900
Cu	Cu	0.83333 0.16667 0.58333 0.88600
Cu	Cu	0.50000 0.50000 0.75000 0.88700
Cu	Cu	0.16667 0.33333 0.91667 0.88700
Cu	Cu	0.66667 0.83333 0.91667 0.88500
Cu	Cu	0.16667 0.83333 0.91667 0.88600
O 	O 	0.66667 0.33333 0.91667 -0.70500
O 	O 	0.00000 0.00000 0.75000 -0.66800
O 	O 	0.33333 0.66667 0.58333 -0.70800
O 	O 	0.66667 0.33333 0.57700 -0.80000
O 	O 	0.33333 0.66667 0.74367 -0.79900
O 	O 	-0.00000 0.00000 0.91033 -0.75800
O 	O 	0.33333 0.66667 0.92300 -0.79800
O 	O 	-0.00000 0.00000 0.58967 -0.76000
O 	O 	0.66667 0.33333 0.75633 -0.80000
