data_crystal

_cell_length_a 12.61100
_cell_length_b 46.10400
_cell_length_c 22.38600
_cell_angle_alpha 90.00000
_cell_angle_beta  90.33300
_cell_angle_gamma 90.00000

_symmetry_space_group_name_	'P 1'
_symmetry_space_group_name_H-M	'P 1'

loop_
_symmetry_equiv_pos_as_xyz
  x,y,z

loop_
_atom_site_label
_atom_site_type_symbol
_atom_site_fract_x
_atom_site_fract_y
_atom_site_fract_z
_atom_site_charge
Fe	Fe	0.50777 0.99942 0.24948 1.16400
Fe	Fe	0.85124 0.24497 0.51041 1.14700
S 	S 	0.14290 0.17615 0.52080 0.00200
N 	N 	0.97700 0.21816 0.50880 -0.24200
C 	C 	0.04750 0.20000 0.51330 0.07300
N 	N 	0.71920 0.27085 0.51590 -0.23700
S 	S 	0.56010 0.31209 0.52990 0.39000
C 	C 	0.64730 0.28610 0.51800 0.09600
C 	C 	0.65440 0.17320 0.29830 0.10500
N 	N 	0.60480 0.19197 0.25550 -0.11800
C 	C 	0.56680 0.17850 0.20800 0.10900
N 	N 	0.54860 0.14802 0.20790 -0.06000
C 	C 	0.58410 0.13420 0.25040 0.14100
N 	N 	0.62950 0.14741 0.30100 -0.12300
N 	N 	0.77900 0.21727 0.44030 -0.27100
C 	C 	0.71160 0.23100 0.40490 0.15900
H 	H 	0.69310 0.25060 0.41210 -0.01800
C 	C 	0.67330 0.21760 0.36220 -0.20400
H 	H 	0.63010 0.22860 0.33580 0.12800
C 	C 	0.68510 0.18897 0.34820 0.13800
C 	C 	0.74760 0.17617 0.38930 -0.20600
H 	H 	0.75720 0.15570 0.38790 0.13000
C 	C 	0.79590 0.19122 0.43130 0.18500
H 	H 	0.84620 0.18160 0.45600 -0.02800
N 	N 	0.42510 0.22763 0.07390 -0.24300
C 	C 	0.51270 0.23910 0.11250 0.08500
H 	H 	0.54240 0.25760 0.10420 0.01000
C 	C 	0.54800 0.22430 0.15630 -0.14200
H 	H 	0.59650 0.23290 0.18360 0.10900
C 	C 	0.51510 0.19448 0.16500 0.15000
C 	C 	0.45050 0.18381 0.12370 -0.20700
H 	H 	0.43890 0.16350 0.12330 0.31900
C 	C 	0.40130 0.19963 0.08300 0.16600
H 	H 	0.34730 0.19090 0.05930 0.08200
N 	N 	0.54160 0.04623 0.24980 -0.25300
C 	C 	0.53080 0.05970 0.20450 0.28900
H 	H 	0.50800 0.05020 0.16900 0.22100
C 	C 	0.55110 0.08885 0.20400 -0.12900
H 	H 	0.54190 0.09860 0.16700 0.39600
C 	C 	0.58140 0.10427 0.24850 0.16500
C 	C 	0.59370 0.08653 0.30190 -0.13200
H 	H 	0.61300 0.09550 0.33860 0.10900
C 	C 	0.57870 0.05830 0.30030 0.14700
H 	H 	0.59390 0.04670 0.33430 -0.01400
N 	N 	0.62720 0.14620 0.71280 -0.11600
C 	C 	0.63140 0.17709 0.71690 0.09300
N 	N 	0.59860 0.19165 0.76640 -0.13200
C 	C 	0.54620 0.17814 0.80410 0.13500
N 	N 	0.52050 0.15104 0.80320 -0.09900
C 	C 	0.57030 0.13486 0.75850 0.11700
N 	N 	0.79800 0.22004 0.58410 -0.26500
C 	C 	0.75650 0.23290 0.62520 0.11300
H 	H 	0.76380 0.25340 0.62530 0.00400
C 	C 	0.69390 0.21980 0.67680 -0.13100
H 	H 	0.65640 0.23090 0.70540 0.11000
C 	C 	0.69790 0.18992 0.67710 0.10100
C 	C 	0.74950 0.17682 0.63450 -0.15900
H 	H 	0.75320 0.15620 0.63420 0.11300
C 	C 	0.79930 0.19260 0.58950 0.12700
H 	H 	0.83750 0.18190 0.56040 -0.01100
N 	N 	0.40480 0.22778 0.93970 -0.25500
C 	C 	0.48320 0.23791 0.89920 0.11700
H 	H 	0.51120 0.25680 0.90500 -0.00400
C 	C 	0.51610 0.22357 0.85760 -0.16700
H 	H 	0.55650 0.23350 0.82830 0.11600
C 	C 	0.50040 0.19490 0.84930 0.10900
C 	C 	0.42040 0.18370 0.88920 -0.16600
H 	H 	0.39600 0.16430 0.88570 0.22300
C 	C 	0.38140 0.20133 0.93120 0.14600
H 	H 	0.33070 0.19320 0.95740 0.05400
N 	N 	0.51270 0.04510 0.75200 -0.22800
C 	C 	0.56080 0.06099 0.70760 0.12100
H 	H 	0.58330 0.05090 0.67290 -0.00500
C 	C 	0.57780 0.08916 0.70990 -0.14400
H 	H 	0.61010 0.09820 0.67650 0.10700
C 	C 	0.55280 0.10515 0.75510 0.11700
C 	C 	0.49960 0.09280 0.80510 -0.05900
H 	H 	0.47590 0.10390 0.83820 0.33400
C 	C 	0.48590 0.06290 0.80060 0.12200
H 	H 	0.45510 0.05350 0.83400 0.22700
Cl	Cl	0.45330 0.11604 0.99050 2.65000
S 	S 	0.13280 0.18164 0.47500 0.03500
S 	S 	0.38040 0.02074 0.43950 -0.07200
C 	C 	0.37470 0.00970 0.36840 0.07400
N 	N 	0.41770 0.00390 0.33070 -0.21700
N 	N 	0.62670 0.99190 0.31980 -0.20600
C 	C 	0.63200 0.98010 0.36050 0.04500
S 	S 	0.65490 0.96445 0.42830 -0.01100
C 	C 	0.92890 0.00160 0.09670 -0.39300
N 	N 	0.00390 0.00530 0.12360 0.13500
C 	C 	0.08270 0.02300 0.10700 1.41200
N 	N 	0.09850 0.00710 0.02840 0.15200
C 	C 	0.01010 0.00840 0.99500 -0.13400
N 	N 	0.91850 0.00020 0.02680 -0.13600
N 	N 	0.63850 0.99350 0.19160 0.12300
C 	C 	0.73490 0.00150 0.21700 -0.16000
H 	H 	0.73900 0.00610 0.25830 0.05100
C 	C 	0.82540 0.00280 0.18200 0.31000
H 	H 	0.89130 0.00830 0.19940 -0.04200
C 	C 	0.81960 0.99610 0.12150 -0.01000
C 	C 	0.72310 0.98810 0.09610 0.08100
H 	H 	0.71910 0.98350 0.05480 0.29600
C 	C 	0.63260 0.98670 0.13110 -0.47000
H 	H 	0.56670 0.98130 0.11370 0.22900
N 	N 	0.36590 0.00350 0.19420 -0.05100
C 	C 	0.26960 0.01190 0.21840 0.22500
H 	H 	0.26400 0.01520 0.26020 0.04500
C 	C 	0.18150 0.01560 0.18160 0.03700
H 	H 	0.11570 0.02140 0.19820 0.22600
C 	C 	0.18970 0.01090 0.12050 0.74900
C 	C 	0.28610 0.00240 0.09620 -0.86600
H 	H 	0.29170 0.99910 0.05450 -0.23100
C 	C 	0.37420 0.99870 0.13310 -0.28000
H 	H 	0.44000 0.99290 0.11650 0.01800
N 	N 	0.01960 0.99478 0.81950 -0.08600
C 	C 	0.10770 0.00543 0.85000 0.35300
H 	H 	0.17270 0.00810 0.82950 -0.19600
C 	C 	0.10070 0.01212 0.91040 -0.03300
H 	H 	0.16090 0.01940 0.93120 0.33900
C 	C 	0.00560 0.00816 0.94030 1.05600
C 	C 	0.91740 0.99750 0.90990 -1.63900
H 	H 	0.85240 0.99480 0.93040 0.60400
C 	C 	0.92440 0.99081 0.84950 -0.19200
H 	H 	0.86420 0.98350 0.82870 -0.09000
N 	N 	0.40640 0.00509 0.17750 -0.09400
C 	C 	0.37490 0.00815 0.12870 0.41200
S 	S 	0.34520 0.02063 0.06040 3.29100
N 	N 	0.60160 0.00098 0.17529 -0.35100
C 	C 	0.63210 0.00282 0.12780 0.58500
S 	S 	0.63250 0.01512 0.05697 -0.04700
C 	C 	0.10130 0.00070 0.41000 -0.03500
N 	N 	0.10000 0.99890 0.47190 -0.11500
C 	C 	0.00410 0.99660 0.50180 0.05700
N 	N 	0.90940 0.99610 0.46970 -0.12500
C 	C 	0.91070 0.99790 0.40770 -0.05500
N 	N 	0.00660 0.00010 0.37790 -0.09300
N 	N 	0.37550 0.00540 0.30940 -0.05100
C 	C 	0.38200 0.01190 0.36990 0.10200
H 	H 	0.44760 0.01790 0.38690 0.01600
C 	C 	0.29250 0.00970 0.40560 -0.11200
H 	H 	0.29690 0.01420 0.44690 0.10900
C 	C 	0.19650 0.00090 0.38070 -0.00900
C 	C 	0.19000 0.99430 0.32020 0.06900
H 	H 	0.12430 0.98830 0.30320 0.05400
C 	C 	0.27940 0.99660 0.28450 -0.07700
H 	H 	0.27500 0.99210 0.24320 0.01500
N 	N 	0.99800 0.00850 0.68240 -0.08200
C 	C 	0.09070 0.01140 0.64970 0.01800
H 	H 	0.15680 0.01370 0.66980 0.09800
C 	C 	0.08680 0.01090 0.58770 0.04200
H 	H 	0.15020 0.01290 0.56530 0.07700
C 	C 	0.99020 0.00750 0.55830 0.12300
C 	C 	0.89750 0.00460 0.59100 0.00800
H 	H 	0.83140 0.00230 0.57100 0.09100
C 	C 	0.90130 0.00510 0.65310 0.09800
H 	H 	0.83800 0.00310 0.67540 -0.04800
N 	N 	0.65240 0.99770 0.30280 -0.02800
C 	C 	0.62100 0.98750 0.36610 0.08000
H 	H 	0.55360 0.98220 0.38080 -0.00300
C 	C 	0.73410 0.98850 0.40060 -0.11200
H 	H 	0.73850 0.98220 0.44100 0.08200
C 	C 	0.82710 0.99860 0.37140 0.06800
C 	C 	0.82510 0.00760 0.31740 -0.18600
H 	H 	0.88900 0.01500 0.30110 0.14300
C 	C 	0.74370 0.00740 0.28440 0.01700
H 	H 	0.74910 0.01450 0.24470 0.06000
Cl	Cl	0.35410 0.07530 0.93440 -5.10000
C 	C 	0.41890 0.07651 0.00270 -16.16000
H 	H 	0.37200 0.07290 0.03780 21.94900
Cl	Cl	0.32950 0.07060 0.05170 -23.83100
H 	H 	0.38370 0.07070 0.96440 8.49200
Cl	Cl	0.57510 0.06707 0.07802 -0.80700
Cl	Cl	0.60930 0.06863 0.95070 -1.11500
C 	C 	0.51440 0.05995 0.00300 6.27600
H 	H 	0.49650 0.03890 0.99960 -1.87800
Fe	Fe	0.99223 0.49942 0.25052 1.16400
Fe	Fe	0.64876 0.74497 0.98959 1.14800
S 	S 	0.35710 0.67615 0.97920 0.00800
N 	N 	0.52300 0.71816 0.99120 -0.25100
C 	C 	0.45250 0.70000 0.98670 0.08800
N 	N 	0.78080 0.77085 0.98410 -0.23500
S 	S 	0.93990 0.81209 0.97010 0.39100
C 	C 	0.85270 0.78610 0.98200 0.09800
C 	C 	0.84560 0.67320 0.20170 0.10400
N 	N 	0.89520 0.69197 0.24450 -0.12000
C 	C 	0.93320 0.67850 0.29200 0.11900
N 	N 	0.95140 0.64802 0.29210 -0.06400
C 	C 	0.91590 0.63420 0.24960 0.14000
N 	N 	0.87050 0.64741 0.19900 -0.12400
N 	N 	0.72100 0.71727 0.05970 -0.27200
C 	C 	0.78840 0.73100 0.09510 0.15700
H 	H 	0.80690 0.75060 0.08790 -0.02100
C 	C 	0.82670 0.71760 0.13780 -0.20400
H 	H 	0.86990 0.72860 0.16420 0.12600
C 	C 	0.81490 0.68897 0.15180 0.13600
C 	C 	0.75240 0.67617 0.11070 -0.20700
H 	H 	0.74280 0.65570 0.11210 0.12800
C 	C 	0.70410 0.69122 0.06870 0.18400
H 	H 	0.65380 0.68160 0.04400 -0.03200
N 	N 	0.07490 0.72763 0.42610 -0.23000
C 	C 	0.98730 0.73910 0.38750 0.05600
H 	H 	0.95760 0.75760 0.39580 0.01600
C 	C 	0.95200 0.72430 0.34370 -0.11600
H 	H 	0.90350 0.73290 0.31640 0.09800
C 	C 	0.98490 0.69448 0.33500 0.11100
C 	C 	0.04950 0.68381 0.37630 -0.16100
H 	H 	0.06110 0.66350 0.37670 0.30800
C 	C 	0.09870 0.69963 0.41700 0.14500
H 	H 	0.15270 0.69090 0.44070 0.08900
N 	N 	0.95840 0.54623 0.25020 -0.25400
C 	C 	0.96920 0.55970 0.29550 0.28800
H 	H 	0.99200 0.55020 0.33100 0.22000
C 	C 	0.94890 0.58885 0.29600 -0.12900
H 	H 	0.95810 0.59860 0.33300 0.39400
C 	C 	0.91860 0.60427 0.25150 0.16300
C 	C 	0.90630 0.58653 0.19810 -0.13200
H 	H 	0.88700 0.59550 0.16140 0.10700
C 	C 	0.92130 0.55830 0.19970 0.14600
H 	H 	0.90610 0.54670 0.16570 -0.01500
N 	N 	0.87280 0.64620 0.78720 -0.11700
C 	C 	0.86860 0.67709 0.78310 0.09200
N 	N 	0.90140 0.69165 0.73360 -0.13100
C 	C 	0.95380 0.67814 0.69590 0.12600
N 	N 	0.97950 0.65104 0.69680 -0.10000
C 	C 	0.92970 0.63486 0.74150 0.11800
N 	N 	0.70200 0.72004 0.91590 -0.26500
C 	C 	0.74350 0.73290 0.87480 0.11100
H 	H 	0.73620 0.75340 0.87470 0.00300
C 	C 	0.80610 0.71980 0.82320 -0.13200
H 	H 	0.84360 0.73090 0.79460 0.10800
C 	C 	0.80210 0.68992 0.82290 0.10000
C 	C 	0.75050 0.67682 0.86550 -0.15900
H 	H 	0.74680 0.65620 0.86580 0.11200
C 	C 	0.70070 0.69260 0.91050 0.12600
H 	H 	0.66250 0.68190 0.93960 -0.01200
N 	N 	0.09520 0.72778 0.56030 -0.26300
C 	C 	0.01680 0.73791 0.60080 0.18600
H 	H 	0.98880 0.75680 0.59500 -0.03500
C 	C 	0.98390 0.72357 0.64240 -0.23000
H 	H 	0.94350 0.73350 0.67170 0.13500
C 	C 	0.99960 0.69490 0.65070 0.12400
C 	C 	0.07960 0.68370 0.61080 -0.16700
H 	H 	0.10400 0.66430 0.61430 0.22600
C 	C 	0.11860 0.70133 0.56880 0.15200
H 	H 	0.16930 0.69320 0.54260 0.05500
N 	N 	0.98730 0.54510 0.74800 -0.22700
C 	C 	0.93920 0.56099 0.79240 0.11700
H 	H 	0.91670 0.55090 0.82710 -0.00400
C 	C 	0.92220 0.58916 0.79010 -0.13800
H 	H 	0.88990 0.59820 0.82350 0.10500
C 	C 	0.94720 0.60515 0.74490 0.10700
C 	C 	0.00040 0.59280 0.69490 -0.04800
H 	H 	0.02410 0.60390 0.66180 0.33300
C 	C 	0.01410 0.56290 0.69940 0.11900
H 	H 	0.04490 0.55350 0.66600 0.22800
Cl	Cl	0.04670 0.61604 0.50950 2.65300
S 	S 	0.36720 0.68164 0.02500 0.03300
S 	S 	0.11960 0.52074 0.06050 -0.06700
C 	C 	0.12530 0.50970 0.13160 0.07300
N 	N 	0.08230 0.50390 0.16930 -0.21500
N 	N 	0.87330 0.49190 0.18020 -0.20600
C 	C 	0.86800 0.48010 0.13950 0.04400
S 	S 	0.84510 0.46445 0.07170 -0.01100
C 	C 	0.57110 0.50160 0.40330 -0.39500
N 	N 	0.49610 0.50530 0.37640 0.13200
C 	C 	0.41730 0.52300 0.39300 1.41600
N 	N 	0.40150 0.50710 0.47160 0.14700
C 	C 	0.48990 0.50840 0.50500 -0.13200
N 	N 	0.58150 0.50020 0.47320 -0.13700
N 	N 	0.86150 0.49350 0.30840 0.12600
C 	C 	0.76510 0.50150 0.28300 -0.16100
H 	H 	0.76100 0.50610 0.24170 0.05000
C 	C 	0.67460 0.50280 0.31800 0.31100
H 	H 	0.60870 0.50830 0.30060 -0.04300
C 	C 	0.68040 0.49610 0.37850 -0.01200
C 	C 	0.77690 0.48810 0.40390 0.08300
H 	H 	0.78090 0.48350 0.44520 0.29500
C 	C 	0.86740 0.48670 0.36890 -0.47700
H 	H 	0.93330 0.48130 0.38630 0.23100
N 	N 	0.13410 0.50350 0.30580 -0.05100
C 	C 	0.23040 0.51190 0.28160 0.22500
H 	H 	0.23600 0.51520 0.23980 0.04500
C 	C 	0.31850 0.51560 0.31840 0.03700
H 	H 	0.38430 0.52140 0.30180 0.22600
C 	C 	0.31030 0.51090 0.37950 0.74800
C 	C 	0.21390 0.50240 0.40380 -0.86600
H 	H 	0.20830 0.49910 0.44550 -0.23000
C 	C 	0.12580 0.49870 0.36690 -0.27800
H 	H 	0.06000 0.49290 0.38350 0.01800
N 	N 	0.48040 0.49478 0.68050 -0.08500
C 	C 	0.39230 0.50543 0.65000 0.35800
H 	H 	0.32730 0.50810 0.67050 -0.19800
C 	C 	0.39930 0.51212 0.58960 -0.03300
H 	H 	0.33910 0.51940 0.56880 0.34000
C 	C 	0.49440 0.50816 0.55970 1.06700
C 	C 	0.58260 0.49750 0.59010 -1.65100
H 	H 	0.64760 0.49480 0.56960 0.60700
C 	C 	0.57560 0.49081 0.65050 -0.19100
H 	H 	0.63580 0.48350 0.67130 -0.09100
N 	N 	0.09360 0.50509 0.32250 -0.09200
C 	C 	0.12510 0.50815 0.37130 0.41200
S 	S 	0.15480 0.52063 0.43960 3.28300
N 	N 	0.89840 0.50098 0.32471 -0.35400
C 	C 	0.86790 0.50282 0.37220 0.59000
S 	S 	0.86750 0.51512 0.44303 -0.04900
C 	C 	0.39870 0.50070 0.09000 -0.03500
N 	N 	0.40000 0.49890 0.02810 -0.11400
C 	C 	0.49590 0.49660 0.99820 0.05700
N 	N 	0.59060 0.49610 0.03030 -0.12600
C 	C 	0.58930 0.49790 0.09230 -0.05300
N 	N 	0.49340 0.50010 0.12210 -0.09500
N 	N 	0.12450 0.50540 0.19060 -0.05100
C 	C 	0.11800 0.51190 0.13010 0.10100
H 	H 	0.05240 0.51790 0.11310 0.01800
C 	C 	0.20750 0.50970 0.09440 -0.11100
H 	H 	0.20310 0.51420 0.05310 0.10800
C 	C 	0.30350 0.50090 0.11930 -0.01000
C 	C 	0.31000 0.49430 0.17980 0.06900
H 	H 	0.37570 0.48830 0.19680 0.05300
C 	C 	0.22060 0.49660 0.21550 -0.07700
H 	H 	0.22500 0.49210 0.25680 0.01400
N 	N 	0.50200 0.50850 0.81760 -0.08400
C 	C 	0.40930 0.51140 0.85030 0.02200
H 	H 	0.34320 0.51370 0.83020 0.09900
C 	C 	0.41320 0.51090 0.91230 0.04200
H 	H 	0.34980 0.51290 0.93470 0.07700
C 	C 	0.50980 0.50750 0.94170 0.12100
C 	C 	0.60250 0.50460 0.90900 0.00800
H 	H 	0.66860 0.50230 0.92900 0.09100
C 	C 	0.59870 0.50510 0.84690 0.09900
H 	H 	0.66200 0.50310 0.82460 -0.04800
N 	N 	0.84760 0.49770 0.19720 -0.02700
C 	C 	0.87900 0.48750 0.13390 0.08100
H 	H 	0.94640 0.48220 0.11920 -0.00500
C 	C 	0.76590 0.48850 0.09940 -0.11100
H 	H 	0.76150 0.48220 0.05900 0.08100
C 	C 	0.67290 0.49860 0.12860 0.06600
C 	C 	0.67490 0.50760 0.18260 -0.18600
H 	H 	0.61100 0.51500 0.19890 0.14400
C 	C 	0.75630 0.50740 0.21560 0.01700
H 	H 	0.75090 0.51450 0.25530 0.06000
Cl	Cl	0.14590 0.57530 0.56560 -5.08500
C 	C 	0.08110 0.57651 0.49730 -16.11600
H 	H 	0.12800 0.57290 0.46220 21.89500
Cl	Cl	0.17050 0.57060 0.44830 -23.77300
H 	H 	0.11630 0.57070 0.53560 8.47100
Cl	Cl	0.92490 0.56707 0.42198 -0.80800
Cl	Cl	0.89070 0.56863 0.54930 -1.11500
C 	C 	0.98560 0.55995 0.49700 6.25000
H 	H 	0.00350 0.53890 0.50040 -1.86500
Fe	Fe	0.49223 0.00058 0.75052 1.16500
Fe	Fe	0.14876 0.75503 0.48959 1.14800
S 	S 	0.85710 0.82385 0.47920 0.00300
N 	N 	0.02300 0.78184 0.49120 -0.24100
C 	C 	0.95250 0.80000 0.48670 0.07400
N 	N 	0.28080 0.72915 0.48410 -0.23600
S 	S 	0.43990 0.68791 0.47010 0.39100
C 	C 	0.35270 0.71390 0.48200 0.09700
C 	C 	0.34560 0.82680 0.70170 0.10600
N 	N 	0.39520 0.80803 0.74450 -0.11700
C 	C 	0.43320 0.82150 0.79200 0.10900
N 	N 	0.45140 0.85198 0.79210 -0.06000
C 	C 	0.41590 0.86580 0.74960 0.14100
N 	N 	0.37050 0.85259 0.69900 -0.12300
N 	N 	0.22100 0.78273 0.55970 -0.27100
C 	C 	0.28840 0.76900 0.59510 0.15900
H 	H 	0.30690 0.74940 0.58790 -0.01800
C 	C 	0.32670 0.78240 0.63780 -0.20400
H 	H 	0.36990 0.77140 0.66420 0.12800
C 	C 	0.31490 0.81103 0.65180 0.13800
C 	C 	0.25240 0.82383 0.61070 -0.20600
H 	H 	0.24280 0.84430 0.61210 0.13000
C 	C 	0.20410 0.80878 0.56870 0.18500
H 	H 	0.15380 0.81840 0.54400 -0.02800
N 	N 	0.57490 0.77237 0.92610 -0.24300
C 	C 	0.48730 0.76090 0.88750 0.08500
H 	H 	0.45760 0.74240 0.89580 0.01000
C 	C 	0.45200 0.77570 0.84370 -0.14200
H 	H 	0.40350 0.76710 0.81640 0.10900
C 	C 	0.48490 0.80552 0.83500 0.15000
C 	C 	0.54950 0.81619 0.87630 -0.20700
H 	H 	0.56110 0.83650 0.87670 0.31900
C 	C 	0.59870 0.80037 0.91700 0.16600
H 	H 	0.65270 0.80910 0.94070 0.08200
N 	N 	0.45840 0.95377 0.75020 -0.25300
C 	C 	0.46920 0.94030 0.79550 0.28900
H 	H 	0.49200 0.94980 0.83100 0.22100
C 	C 	0.44890 0.91115 0.79600 -0.12900
H 	H 	0.45810 0.90140 0.83300 0.39600
C 	C 	0.41860 0.89573 0.75150 0.16500
C 	C 	0.40630 0.91347 0.69810 -0.13200
H 	H 	0.38700 0.90450 0.66140 0.10900
C 	C 	0.42130 0.94170 0.69970 0.14700
H 	H 	0.40610 0.95330 0.66570 -0.01400
N 	N 	0.37280 0.85380 0.28720 -0.11600
C 	C 	0.36860 0.82291 0.28310 0.09300
N 	N 	0.40140 0.80835 0.23360 -0.13200
C 	C 	0.45380 0.82186 0.19590 0.13500
N 	N 	0.47950 0.84896 0.19680 -0.09900
C 	C 	0.42970 0.86514 0.24150 0.11700
N 	N 	0.20200 0.77996 0.41590 -0.26500
C 	C 	0.24350 0.76710 0.37480 0.11300
H 	H 	0.23620 0.74660 0.37470 0.00400
C 	C 	0.30610 0.78020 0.32320 -0.13100
H 	H 	0.34360 0.76910 0.29460 0.11000
C 	C 	0.30210 0.81008 0.32290 0.10100
C 	C 	0.25050 0.82318 0.36550 -0.15900
H 	H 	0.24680 0.84380 0.36580 0.11300
C 	C 	0.20070 0.80740 0.41050 0.12700
H 	H 	0.16250 0.81810 0.43960 -0.01100
N 	N 	0.59520 0.77222 0.06030 -0.25500
C 	C 	0.51680 0.76209 0.10080 0.11700
H 	H 	0.48880 0.74320 0.09500 -0.00400
C 	C 	0.48390 0.77643 0.14240 -0.16700
H 	H 	0.44350 0.76650 0.17170 0.11600
C 	C 	0.49960 0.80510 0.15070 0.10900
C 	C 	0.57960 0.81630 0.11080 -0.16600
H 	H 	0.60400 0.83570 0.11430 0.22300
C 	C 	0.61860 0.79867 0.06880 0.14600
H 	H 	0.66930 0.80680 0.04260 0.05400
N 	N 	0.48730 0.95490 0.24800 -0.22800
C 	C 	0.43920 0.93901 0.29240 0.12100
H 	H 	0.41670 0.94910 0.32710 -0.00500
C 	C 	0.42220 0.91084 0.29010 -0.14400
H 	H 	0.38990 0.90180 0.32350 0.10700
C 	C 	0.44720 0.89485 0.24490 0.11700
C 	C 	0.50040 0.90720 0.19490 -0.05900
H 	H 	0.52410 0.89610 0.16180 0.33400
C 	C 	0.51410 0.93710 0.19940 0.12200
H 	H 	0.54490 0.94650 0.16600 0.22700
Cl	Cl	0.54670 0.88396 0.00950 2.65000
S 	S 	0.86720 0.81836 0.52500 0.03500
S 	S 	0.61960 0.97926 0.56050 -0.07200
C 	C 	0.62530 0.99030 0.63160 0.07400
N 	N 	0.58230 0.99610 0.66930 -0.21700
N 	N 	0.37330 0.00810 0.68020 -0.20600
C 	C 	0.36800 0.01990 0.63950 0.04500
S 	S 	0.34510 0.03555 0.57170 -0.01100
C 	C 	0.07110 0.99840 0.90330 -0.39300
N 	N 	0.99610 0.99470 0.87640 0.13500
C 	C 	0.91730 0.97700 0.89300 1.41200
N 	N 	0.90150 0.99290 0.97160 0.15200
C 	C 	0.98990 0.99160 0.00500 -0.13400
N 	N 	0.08150 0.99980 0.97320 -0.13600
N 	N 	0.36150 0.00650 0.80840 0.12300
C 	C 	0.26510 0.99850 0.78300 -0.16000
H 	H 	0.26100 0.99390 0.74170 0.05100
C 	C 	0.17460 0.99720 0.81800 0.31000
H 	H 	0.10870 0.99170 0.80060 -0.04200
C 	C 	0.18040 0.00390 0.87850 -0.01000
C 	C 	0.27690 0.01190 0.90390 0.08100
H 	H 	0.28090 0.01650 0.94520 0.29600
C 	C 	0.36740 0.01330 0.86890 -0.47000
H 	H 	0.43330 0.01870 0.88630 0.22900
N 	N 	0.63410 0.99650 0.80580 -0.05100
C 	C 	0.73040 0.98810 0.78160 0.22500
H 	H 	0.73600 0.98480 0.73980 0.04500
C 	C 	0.81850 0.98440 0.81840 0.03700
H 	H 	0.88430 0.97860 0.80180 0.22600
C 	C 	0.81030 0.98910 0.87950 0.74900
C 	C 	0.71390 0.99760 0.90380 -0.86600
H 	H 	0.70830 0.00090 0.94550 -0.23100
C 	C 	0.62580 0.00130 0.86690 -0.28000
H 	H 	0.56000 0.00710 0.88350 0.01800
N 	N 	0.98040 0.00522 0.18050 -0.08600
C 	C 	0.89230 0.99457 0.15000 0.35300
H 	H 	0.82730 0.99190 0.17050 -0.19600
C 	C 	0.89930 0.98788 0.08960 -0.03300
H 	H 	0.83910 0.98060 0.06880 0.33900
C 	C 	0.99440 0.99184 0.05970 1.05600
C 	C 	0.08260 0.00250 0.09010 -1.63900
H 	H 	0.14760 0.00520 0.06960 0.60400
C 	C 	0.07560 0.00919 0.15050 -0.19200
H 	H 	0.13580 0.01650 0.17130 -0.09000
N 	N 	0.59360 0.99491 0.82250 -0.09400
C 	C 	0.62510 0.99185 0.87130 0.41200
S 	S 	0.65480 0.97937 0.93960 3.29100
N 	N 	0.39840 0.99902 0.82471 -0.35100
C 	C 	0.36790 0.99718 0.87220 0.58500
S 	S 	0.36750 0.98488 0.94303 -0.04700
C 	C 	0.89870 0.99930 0.59000 -0.03500
N 	N 	0.90000 0.00110 0.52810 -0.11500
C 	C 	0.99590 0.00340 0.49820 0.05700
N 	N 	0.09060 0.00390 0.53030 -0.12500
C 	C 	0.08930 0.00210 0.59230 -0.05500
N 	N 	0.99340 0.99990 0.62210 -0.09300
N 	N 	0.62450 0.99460 0.69060 -0.05100
C 	C 	0.61800 0.98810 0.63010 0.10200
H 	H 	0.55240 0.98210 0.61310 0.01600
C 	C 	0.70750 0.99030 0.59440 -0.11200
H 	H 	0.70310 0.98580 0.55310 0.10900
C 	C 	0.80350 0.99910 0.61930 -0.00900
C 	C 	0.81000 0.00570 0.67980 0.06900
H 	H 	0.87570 0.01170 0.69680 0.05400
C 	C 	0.72060 0.00340 0.71550 -0.07700
H 	H 	0.72500 0.00790 0.75680 0.01500
N 	N 	0.00200 0.99150 0.31760 -0.08200
C 	C 	0.90930 0.98860 0.35030 0.01800
H 	H 	0.84320 0.98630 0.33020 0.09800
C 	C 	0.91320 0.98910 0.41230 0.04200
H 	H 	0.84980 0.98710 0.43470 0.07700
C 	C 	0.00980 0.99250 0.44170 0.12300
C 	C 	0.10250 0.99540 0.40900 0.00800
H 	H 	0.16860 0.99770 0.42900 0.09100
C 	C 	0.09870 0.99490 0.34690 0.09800
H 	H 	0.16200 0.99690 0.32460 -0.04800
N 	N 	0.34760 0.00230 0.69720 -0.02800
C 	C 	0.37900 0.01250 0.63390 0.08000
H 	H 	0.44640 0.01780 0.61920 -0.00300
C 	C 	0.26590 0.01150 0.59940 -0.11200
H 	H 	0.26150 0.01780 0.55900 0.08200
C 	C 	0.17290 0.00140 0.62860 0.06800
C 	C 	0.17490 0.99240 0.68260 -0.18600
H 	H 	0.11100 0.98500 0.69890 0.14300
C 	C 	0.25630 0.99260 0.71560 0.01700
H 	H 	0.25090 0.98550 0.75530 0.06000
Cl	Cl	0.64590 0.92470 0.06560 -5.10000
C 	C 	0.58110 0.92349 0.99730 -16.16000
H 	H 	0.62800 0.92710 0.96220 21.94900
Cl	Cl	0.67050 0.92940 0.94830 -23.83100
H 	H 	0.61630 0.92930 0.03560 8.49200
Cl	Cl	0.42490 0.93293 0.92198 -0.80700
Cl	Cl	0.39070 0.93137 0.04930 -1.11500
C 	C 	0.48560 0.94005 0.99700 6.27600
H 	H 	0.50350 0.96110 0.00040 -1.87800
Fe	Fe	0.00777 0.50058 0.74948 1.16400
Fe	Fe	0.35124 0.25503 0.01041 1.14800
S 	S 	0.64290 0.32385 0.02080 0.00800
N 	N 	0.47700 0.28184 0.00880 -0.25100
C 	C 	0.54750 0.30000 0.01330 0.08800
N 	N 	0.21920 0.22915 0.01590 -0.23500
S 	S 	0.06010 0.18791 0.02990 0.39100
C 	C 	0.14730 0.21390 0.01800 0.09800
C 	C 	0.15440 0.32680 0.79830 0.10400
N 	N 	0.10480 0.30803 0.75550 -0.12000
C 	C 	0.06680 0.32150 0.70800 0.11900
N 	N 	0.04860 0.35198 0.70790 -0.06400
C 	C 	0.08410 0.36580 0.75040 0.14000
N 	N 	0.12950 0.35259 0.80100 -0.12400
N 	N 	0.27900 0.28273 0.94030 -0.27200
C 	C 	0.21160 0.26900 0.90490 0.15700
H 	H 	0.19310 0.24940 0.91210 -0.02100
C 	C 	0.17330 0.28240 0.86220 -0.20400
H 	H 	0.13010 0.27140 0.83580 0.12600
C 	C 	0.18510 0.31103 0.84820 0.13600
C 	C 	0.24760 0.32383 0.88930 -0.20700
H 	H 	0.25720 0.34430 0.88790 0.12800
C 	C 	0.29590 0.30878 0.93130 0.18400
H 	H 	0.34620 0.31840 0.95600 -0.03200
N 	N 	0.92510 0.27237 0.57390 -0.23000
C 	C 	0.01270 0.26090 0.61250 0.05600
H 	H 	0.04240 0.24240 0.60420 0.01600
C 	C 	0.04800 0.27570 0.65630 -0.11600
H 	H 	0.09650 0.26710 0.68360 0.09800
C 	C 	0.01510 0.30552 0.66500 0.11100
C 	C 	0.95050 0.31619 0.62370 -0.16100
H 	H 	0.93890 0.33650 0.62330 0.30800
C 	C 	0.90130 0.30037 0.58300 0.14500
H 	H 	0.84730 0.30910 0.55930 0.08900
N 	N 	0.04160 0.45377 0.74980 -0.25400
C 	C 	0.03080 0.44030 0.70450 0.28800
H 	H 	0.00800 0.44980 0.66900 0.22000
C 	C 	0.05110 0.41115 0.70400 -0.12900
H 	H 	0.04190 0.40140 0.66700 0.39400
C 	C 	0.08140 0.39573 0.74850 0.16300
C 	C 	0.09370 0.41347 0.80190 -0.13200
H 	H 	0.11300 0.40450 0.83860 0.10700
C 	C 	0.07870 0.44170 0.80030 0.14600
H 	H 	0.09390 0.45330 0.83430 -0.01500
N 	N 	0.12720 0.35380 0.21280 -0.11700
C 	C 	0.13140 0.32291 0.21690 0.09200
N 	N 	0.09860 0.30835 0.26640 -0.13100
C 	C 	0.04620 0.32186 0.30410 0.12600
N 	N 	0.02050 0.34896 0.30320 -0.10000
C 	C 	0.07030 0.36514 0.25850 0.11800
N 	N 	0.29800 0.27996 0.08410 -0.26500
C 	C 	0.25650 0.26710 0.12520 0.11100
H 	H 	0.26380 0.24660 0.12530 0.00300
C 	C 	0.19390 0.28020 0.17680 -0.13200
H 	H 	0.15640 0.26910 0.20540 0.10800
C 	C 	0.19790 0.31008 0.17710 0.10000
C 	C 	0.24950 0.32318 0.13450 -0.15900
H 	H 	0.25320 0.34380 0.13420 0.11200
C 	C 	0.29930 0.30740 0.08950 0.12600
H 	H 	0.33750 0.31810 0.06040 -0.01200
N 	N 	0.90480 0.27222 0.43970 -0.26300
C 	C 	0.98320 0.26209 0.39920 0.18600
H 	H 	0.01120 0.24320 0.40500 -0.03500
C 	C 	0.01610 0.27643 0.35760 -0.23000
H 	H 	0.05650 0.26650 0.32830 0.13500
C 	C 	0.00040 0.30510 0.34930 0.12400
C 	C 	0.92040 0.31630 0.38920 -0.16700
H 	H 	0.89600 0.33570 0.38570 0.22600
C 	C 	0.88140 0.29867 0.43120 0.15200
H 	H 	0.83070 0.30680 0.45740 0.05500
N 	N 	0.01270 0.45490 0.25200 -0.22700
C 	C 	0.06080 0.43901 0.20760 0.11700
H 	H 	0.08330 0.44910 0.17290 -0.00400
C 	C 	0.07780 0.41084 0.20990 -0.13800
H 	H 	0.11010 0.40180 0.17650 0.10500
C 	C 	0.05280 0.39485 0.25510 0.10700
C 	C 	0.99960 0.40720 0.30510 -0.04800
H 	H 	0.97590 0.39610 0.33820 0.33300
C 	C 	0.98590 0.43710 0.30060 0.11900
H 	H 	0.95510 0.44650 0.33400 0.22800
Cl	Cl	0.95330 0.38396 0.49050 2.65300
S 	S 	0.63280 0.31836 0.97500 0.03300
S 	S 	0.88040 0.47926 0.93950 -0.06700
C 	C 	0.87470 0.49030 0.86840 0.07300
N 	N 	0.91770 0.49610 0.83070 -0.21500
N 	N 	0.12670 0.50810 0.81980 -0.20600
C 	C 	0.13200 0.51990 0.86050 0.04400
S 	S 	0.15490 0.53555 0.92830 -0.01100
C 	C 	0.42890 0.49840 0.59670 -0.39500
N 	N 	0.50390 0.49470 0.62360 0.13200
C 	C 	0.58270 0.47700 0.60700 1.41600
N 	N 	0.59850 0.49290 0.52840 0.14700
C 	C 	0.51010 0.49160 0.49500 -0.13200
N 	N 	0.41850 0.49980 0.52680 -0.13700
N 	N 	0.13850 0.50650 0.69160 0.12600
C 	C 	0.23490 0.49850 0.71700 -0.16100
H 	H 	0.23900 0.49390 0.75830 0.05000
C 	C 	0.32540 0.49720 0.68200 0.31100
H 	H 	0.39130 0.49170 0.69940 -0.04300
C 	C 	0.31960 0.50390 0.62150 -0.01200
C 	C 	0.22310 0.51190 0.59610 0.08300
H 	H 	0.21910 0.51650 0.55480 0.29500
C 	C 	0.13260 0.51330 0.63110 -0.47700
H 	H 	0.06670 0.51870 0.61370 0.23100
N 	N 	0.86590 0.49650 0.69420 -0.05100
C 	C 	0.76960 0.48810 0.71840 0.22500
H 	H 	0.76400 0.48480 0.76020 0.04500
C 	C 	0.68150 0.48440 0.68160 0.03700
H 	H 	0.61570 0.47860 0.69820 0.22600
C 	C 	0.68970 0.48910 0.62050 0.74800
C 	C 	0.78610 0.49760 0.59620 -0.86600
H 	H 	0.79170 0.50090 0.55450 -0.23000
C 	C 	0.87420 0.50130 0.63310 -0.27800
H 	H 	0.94000 0.50710 0.61650 0.01800
N 	N 	0.51960 0.50522 0.31950 -0.08500
C 	C 	0.60770 0.49457 0.35000 0.35800
H 	H 	0.67270 0.49190 0.32950 -0.19800
C 	C 	0.60070 0.48788 0.41040 -0.03300
H 	H 	0.66090 0.48060 0.43120 0.34000
C 	C 	0.50560 0.49184 0.44030 1.06700
C 	C 	0.41740 0.50250 0.40990 -1.65100
H 	H 	0.35240 0.50520 0.43040 0.60700
C 	C 	0.42440 0.50919 0.34950 -0.19100
H 	H 	0.36420 0.51650 0.32870 -0.09100
N 	N 	0.90640 0.49491 0.67750 -0.09200
C 	C 	0.87490 0.49185 0.62870 0.41200
S 	S 	0.84520 0.47937 0.56040 3.28300
N 	N 	0.10160 0.49902 0.67529 -0.35400
C 	C 	0.13210 0.49718 0.62780 0.59000
S 	S 	0.13250 0.48488 0.55697 -0.04900
C 	C 	0.60130 0.49930 0.91000 -0.03500
N 	N 	0.60000 0.50110 0.97190 -0.11400
C 	C 	0.50410 0.50340 0.00180 0.05700
N 	N 	0.40940 0.50390 0.96970 -0.12600
C 	C 	0.41070 0.50210 0.90770 -0.05300
N 	N 	0.50660 0.49990 0.87790 -0.09500
N 	N 	0.87550 0.49460 0.80940 -0.05100
C 	C 	0.88200 0.48810 0.86990 0.10100
H 	H 	0.94760 0.48210 0.88690 0.01800
C 	C 	0.79250 0.49030 0.90560 -0.11100
H 	H 	0.79690 0.48580 0.94690 0.10800
C 	C 	0.69650 0.49910 0.88070 -0.01000
C 	C 	0.69000 0.50570 0.82020 0.06900
H 	H 	0.62430 0.51170 0.80320 0.05300
C 	C 	0.77940 0.50340 0.78450 -0.07700
H 	H 	0.77500 0.50790 0.74320 0.01400
N 	N 	0.49800 0.49150 0.18240 -0.08400
C 	C 	0.59070 0.48860 0.14970 0.02200
H 	H 	0.65680 0.48630 0.16980 0.09900
C 	C 	0.58680 0.48910 0.08770 0.04200
H 	H 	0.65020 0.48710 0.06530 0.07700
C 	C 	0.49020 0.49250 0.05830 0.12100
C 	C 	0.39750 0.49540 0.09100 0.00800
H 	H 	0.33140 0.49770 0.07100 0.09100
C 	C 	0.40130 0.49490 0.15310 0.09900
H 	H 	0.33800 0.49690 0.17540 -0.04800
N 	N 	0.15240 0.50230 0.80280 -0.02700
C 	C 	0.12100 0.51250 0.86610 0.08100
H 	H 	0.05360 0.51780 0.88080 -0.00500
C 	C 	0.23410 0.51150 0.90060 -0.11100
H 	H 	0.23850 0.51780 0.94100 0.08100
C 	C 	0.32710 0.50140 0.87140 0.06600
C 	C 	0.32510 0.49240 0.81740 -0.18600
H 	H 	0.38900 0.48500 0.80110 0.14400
C 	C 	0.24370 0.49260 0.78440 0.01700
H 	H 	0.24910 0.48550 0.74470 0.06000
Cl	Cl	0.85410 0.42470 0.43440 -5.08500
C 	C 	0.91890 0.42349 0.50270 -16.11600
H 	H 	0.87200 0.42710 0.53780 21.89500
Cl	Cl	0.82950 0.42940 0.55170 -23.77300
H 	H 	0.88370 0.42930 0.46440 8.47100
Cl	Cl	0.07510 0.43293 0.57802 -0.80800
Cl	Cl	0.10930 0.43137 0.45070 -1.11500
C 	C 	0.01440 0.44005 0.50300 6.25000
H 	H 	0.99650 0.46110 0.49960 -1.86500
