data_crystal

_cell_length_a 27.79770
_cell_length_b 27.79770
_cell_length_c 27.79770
_cell_angle_alpha 109.47100
_cell_angle_beta  109.47100
_cell_angle_gamma 109.47100

_symmetry_space_group_name_	'P 1'
_symmetry_space_group_name_H-M	'P 1'

loop_
_symmetry_equiv_pos_as_xyz
  x,y,z

loop_
_atom_site_label
_atom_site_type_symbol
_atom_site_fract_x
_atom_site_fract_y
_atom_site_fract_z
_atom_site_charge
Fe	Fe	0.50554 0.78907 0.72389 1.12300
Fe	Fe	0.06518 0.78165 0.27611 1.12300
Fe	Fe	0.93482 0.21093 0.71647 1.12300
Fe	Fe	0.49446 0.21835 0.28353 1.12300
Fe	Fe	0.71647 0.93482 0.21093 1.12300
Fe	Fe	0.28353 0.49446 0.21835 1.12300
Fe	Fe	0.72389 0.50554 0.78907 1.12300
Fe	Fe	0.27611 0.06518 0.78165 1.12300
Fe	Fe	0.78165 0.27611 0.06518 1.12300
Fe	Fe	0.78907 0.72389 0.50554 1.12300
Fe	Fe	0.21835 0.28353 0.49446 1.12300
Fe	Fe	0.21093 0.71647 0.93482 1.12300
H 	H 	0.49440 0.80690 0.61490 -0.00500
H 	H 	0.45680 0.75550 0.51650 0.06600
H 	H 	0.39490 0.65300 0.46330 0.03400
H 	H 	0.42410 0.66110 0.61940 0.01100
H 	H 	0.25650 0.37050 0.20940 -0.00300
H 	H 	0.25010 0.32120 0.26150 0.06100
H 	H 	0.27660 0.37680 0.36260 0.03800
H 	H 	0.32810 0.52240 0.34910 0.01300
H 	H 	0.26160 0.38850 0.47390 0.01100
H 	H 	0.33190 0.54360 0.61730 0.04000
H 	H 	0.28940 0.49200 0.65800 0.07900
H 	H 	0.24900 0.39200 0.61140 -0.00200
H 	H 	0.52200 0.72220 0.79500 -0.00400
H 	H 	0.56780 0.67150 0.81630 0.06900
H 	H 	0.62230 0.65260 0.77350 0.03400
H 	H 	0.58260 0.73680 0.68840 0.01200
H 	H 	0.50220 0.71210 0.86510 0.06400
H 	H 	0.60040 0.74540 0.93060 0.03300
H 	H 	0.61860 0.73950 0.01950 0.05300
H 	H 	0.54070 0.69010 0.02880 0.03000
H 	H 	0.44580 0.65840 0.96040 0.06300
H 	H 	0.37820 0.64720 0.78480 0.26300
H 	H 	0.37220 0.62840 0.86720 0.03600
H 	H 	0.38940 0.68930 0.86710 0.02600
H 	H 	0.19200 0.87950 0.38510 -0.00400
H 	H 	0.23900 0.94030 0.48350 0.06700
H 	H 	0.18970 0.93160 0.53670 0.03500
H 	H 	0.04170 0.80470 0.38060 0.01200
H 	H 	0.16110 0.04710 0.79060 -0.00200
H 	H 	0.05970 0.98860 0.73850 0.06200
H 	H 	0.01420 0.91400 0.63740 0.03900
H 	H 	0.17330 0.97900 0.65090 0.01400
H 	H 	0.91460 0.78770 0.52610 0.01200
H 	H 	0.92630 0.71460 0.38270 0.04100
H 	H 	0.83400 0.63140 0.34200 0.08000
H 	H 	0.78060 0.63760 0.38860 -0.00100
H 	H 	0.92720 0.72700 0.20500 -0.00300
H 	H 	0.85520 0.75150 0.18370 0.07000
H 	H 	0.87910 0.84880 0.22650 0.03500
H 	H 	0.04840 0.89420 0.31160 0.01300
H 	H 	0.84700 0.63710 0.13490 0.06500
H 	H 	0.81480 0.66980 0.06940 0.03400
H 	H 	0.72000 0.59910 0.98050 0.05300
H 	H 	0.66130 0.51190 0.97120 0.03000
H 	H 	0.69800 0.48540 0.03960 0.06300
H 	H 	0.86240 0.59340 0.21520 0.26300
H 	H 	0.76120 0.50500 0.13280 0.03600
H 	H 	0.82220 0.52230 0.13290 0.02600
H 	H 	0.80800 0.19310 0.68750 -0.00400
H 	H 	0.76100 0.24450 0.70130 0.06700
H 	H 	0.81030 0.34700 0.74190 0.03500
H 	H 	0.95830 0.33890 0.76300 0.01200
H 	H 	0.83890 0.62950 0.88600 -0.00200
H 	H 	0.94030 0.67880 0.92890 0.06200
H 	H 	0.98580 0.62320 0.89980 0.03900
H 	H 	0.82670 0.47760 0.80570 0.01400
H 	H 	0.08540 0.61150 0.87310 0.01200
H 	H 	0.07370 0.45640 0.78830 0.04100
H 	H 	0.16600 0.50800 0.79740 0.08000
H 	H 	0.21940 0.60800 0.85700 -0.00100
H 	H 	0.07280 0.27780 0.79980 -0.00300
H 	H 	0.14480 0.32850 0.89630 0.07000
H 	H 	0.12090 0.34740 0.96970 0.03400
H 	H 	0.95160 0.26320 0.84580 0.01300
H 	H 	0.15300 0.28790 0.79010 0.06500
H 	H 	0.18520 0.25460 0.85500 0.03400
H 	H 	0.28000 0.26050 0.87910 0.05300
H 	H 	0.33870 0.30990 0.85060 0.03000
H 	H 	0.30200 0.34160 0.78740 0.06300
H 	H 	0.13760 0.35280 0.73100 0.26300
H 	H 	0.23880 0.37160 0.74380 0.03600
H 	H 	0.17780 0.31070 0.70010 0.02600
H 	H 	0.50560 0.12050 0.31250 -0.00400
H 	H 	0.54320 0.05970 0.29870 0.06700
H 	H 	0.60510 0.06840 0.25810 0.03500
H 	H 	0.57590 0.19530 0.23700 0.01200
H 	H 	0.74350 0.95290 0.11400 -0.00200
H 	H 	0.74990 0.01140 0.07110 0.06200
H 	H 	0.72340 0.08600 0.10020 0.03900
H 	H 	0.67190 0.02100 0.19430 0.01400
H 	H 	0.73840 0.21230 0.12690 0.01200
H 	H 	0.66810 0.28540 0.21170 0.04100
H 	H 	0.71060 0.36860 0.20260 0.08000
H 	H 	0.75100 0.36240 0.14300 -0.00100
H 	H 	0.47800 0.27300 0.20020 -0.00300
H 	H 	0.43220 0.24850 0.10370 0.07000
H 	H 	0.37770 0.15120 0.03030 0.03500
H 	H 	0.41740 0.10580 0.15420 0.01300
H 	H 	0.49780 0.36290 0.20990 0.06500
H 	H 	0.39960 0.33020 0.14500 0.03400
H 	H 	0.38140 0.40090 0.12090 0.05300
H 	H 	0.45930 0.48810 0.14940 0.03000
H 	H 	0.55420 0.51460 0.21260 0.06300
H 	H 	0.62180 0.40660 0.26900 0.26300
H 	H 	0.62780 0.49500 0.25620 0.03600
H 	H 	0.61060 0.47770 0.29990 0.02600
H 	H 	0.68750 0.80800 0.19310 -0.00400
H 	H 	0.70130 0.76100 0.24450 0.06700
H 	H 	0.74190 0.81030 0.34700 0.03500
H 	H 	0.76300 0.95830 0.33890 0.01200
H 	H 	0.88600 0.83890 0.62950 -0.00200
H 	H 	0.92890 0.94030 0.67880 0.06200
H 	H 	0.89980 0.98580 0.62320 0.03900
H 	H 	0.80570 0.82670 0.47760 0.01400
H 	H 	0.87310 0.08540 0.61150 0.01200
H 	H 	0.78830 0.07370 0.45640 0.04100
H 	H 	0.79740 0.16600 0.50800 0.08000
H 	H 	0.85700 0.21940 0.60800 -0.00100
H 	H 	0.79980 0.07280 0.27780 -0.00300
H 	H 	0.89630 0.14480 0.32850 0.07000
H 	H 	0.96970 0.12090 0.34740 0.03400
H 	H 	0.84580 0.95160 0.26320 0.01300
H 	H 	0.79010 0.15300 0.28790 0.06500
H 	H 	0.85500 0.18520 0.25460 0.03400
H 	H 	0.87910 0.28000 0.26050 0.05300
H 	H 	0.85060 0.33870 0.30990 0.03000
H 	H 	0.78740 0.30200 0.34160 0.06300
H 	H 	0.73100 0.13760 0.35280 0.26300
H 	H 	0.74380 0.23880 0.37160 0.03600
H 	H 	0.70010 0.17780 0.31070 0.02600
H 	H 	0.31250 0.50560 0.12050 -0.00400
H 	H 	0.29870 0.54320 0.05970 0.06700
H 	H 	0.25810 0.60510 0.06840 0.03500
H 	H 	0.23700 0.57590 0.19530 0.01200
H 	H 	0.11400 0.74350 0.95290 -0.00200
H 	H 	0.07110 0.74990 0.01140 0.06200
H 	H 	0.10020 0.72340 0.08600 0.03900
H 	H 	0.19430 0.67190 0.02100 0.01400
H 	H 	0.12690 0.73840 0.21230 0.01200
H 	H 	0.21170 0.66810 0.28540 0.04100
H 	H 	0.20260 0.71060 0.36860 0.08000
H 	H 	0.14300 0.75100 0.36240 -0.00100
H 	H 	0.20020 0.47800 0.27300 -0.00300
H 	H 	0.10370 0.43220 0.24850 0.07000
H 	H 	0.03030 0.37770 0.15120 0.03500
H 	H 	0.15420 0.41740 0.10580 0.01300
H 	H 	0.20990 0.49780 0.36290 0.06500
H 	H 	0.14500 0.39960 0.33020 0.03400
H 	H 	0.12090 0.38140 0.40090 0.05300
H 	H 	0.14940 0.45930 0.48810 0.03000
H 	H 	0.21260 0.55420 0.51460 0.06300
H 	H 	0.26900 0.62180 0.40660 0.26300
H 	H 	0.25620 0.62780 0.49500 0.03600
H 	H 	0.29990 0.61060 0.47770 0.02600
H 	H 	0.61490 0.49440 0.80690 -0.00400
H 	H 	0.51650 0.45680 0.75550 0.06700
H 	H 	0.46330 0.39490 0.65300 0.03500
H 	H 	0.61940 0.42410 0.66110 0.01200
H 	H 	0.20940 0.25650 0.37050 -0.00200
H 	H 	0.26150 0.25010 0.32120 0.06200
H 	H 	0.36260 0.27660 0.37680 0.03900
H 	H 	0.34910 0.32810 0.52240 0.01400
H 	H 	0.47390 0.26160 0.38850 0.01200
H 	H 	0.61730 0.33190 0.54360 0.04100
H 	H 	0.65800 0.28940 0.49200 0.08000
H 	H 	0.61140 0.24900 0.39200 -0.00100
H 	H 	0.79500 0.52200 0.72220 -0.00300
H 	H 	0.81630 0.56780 0.67150 0.07000
H 	H 	0.77350 0.62230 0.65260 0.03500
H 	H 	0.68840 0.58260 0.73680 0.01300
H 	H 	0.86510 0.50220 0.71210 0.06500
H 	H 	0.93060 0.60040 0.74540 0.03400
H 	H 	0.01950 0.61860 0.73950 0.05300
H 	H 	0.02880 0.54070 0.69010 0.03000
H 	H 	0.96040 0.44580 0.65840 0.06300
H 	H 	0.78480 0.37820 0.64720 0.26300
H 	H 	0.86720 0.37220 0.62840 0.03600
H 	H 	0.86710 0.38940 0.68930 0.02600
H 	H 	0.38510 0.19200 0.87950 -0.00400
H 	H 	0.48350 0.23900 0.94030 0.06700
H 	H 	0.53670 0.18970 0.93160 0.03500
H 	H 	0.38060 0.04170 0.80470 0.01200
H 	H 	0.79060 0.16110 0.04710 -0.00200
H 	H 	0.73850 0.05970 0.98860 0.06200
H 	H 	0.63740 0.01420 0.91400 0.03900
H 	H 	0.65090 0.17330 0.97900 0.01400
H 	H 	0.52610 0.91460 0.78770 0.01200
H 	H 	0.38270 0.92630 0.71460 0.04100
H 	H 	0.34200 0.83400 0.63140 0.08000
H 	H 	0.38860 0.78060 0.63760 -0.00100
H 	H 	0.20500 0.92720 0.72700 -0.00300
H 	H 	0.18370 0.85520 0.75150 0.07000
H 	H 	0.22650 0.87910 0.84880 0.03500
H 	H 	0.31160 0.04840 0.89420 0.01300
H 	H 	0.13490 0.84700 0.63710 0.06500
H 	H 	0.06940 0.81480 0.66980 0.03400
H 	H 	0.98050 0.72000 0.59910 0.05300
H 	H 	0.97120 0.66130 0.51190 0.03000
H 	H 	0.03960 0.69800 0.48540 0.06300
H 	H 	0.21520 0.86240 0.59340 0.26300
H 	H 	0.13280 0.76120 0.50500 0.03600
H 	H 	0.13290 0.82220 0.52230 0.02600
H 	H 	0.87950 0.38510 0.19200 -0.00400
H 	H 	0.94030 0.48350 0.23900 0.06700
H 	H 	0.93160 0.53670 0.18970 0.03500
H 	H 	0.80470 0.38060 0.04170 0.01200
H 	H 	0.04710 0.79060 0.16110 -0.00200
H 	H 	0.98860 0.73850 0.05970 0.06200
H 	H 	0.91400 0.63740 0.01420 0.03900
H 	H 	0.97900 0.65090 0.17330 0.01400
H 	H 	0.78770 0.52610 0.91460 0.01200
H 	H 	0.71460 0.38270 0.92630 0.04100
H 	H 	0.63140 0.34200 0.83400 0.08000
H 	H 	0.63760 0.38860 0.78060 -0.00100
H 	H 	0.72700 0.20500 0.92720 -0.00300
H 	H 	0.75150 0.18370 0.85520 0.07000
H 	H 	0.84880 0.22650 0.87910 0.03500
H 	H 	0.89420 0.31160 0.04840 0.01300
H 	H 	0.63710 0.13490 0.84700 0.06500
H 	H 	0.66980 0.06940 0.81480 0.03400
H 	H 	0.59910 0.98050 0.72000 0.05300
H 	H 	0.51190 0.97120 0.66130 0.03000
H 	H 	0.48540 0.03960 0.69800 0.06300
H 	H 	0.59340 0.21520 0.86240 0.26300
H 	H 	0.50500 0.13280 0.76120 0.03600
H 	H 	0.52230 0.13290 0.82220 0.02600
H 	H 	0.80690 0.61490 0.49440 -0.00400
H 	H 	0.75550 0.51650 0.45680 0.06700
H 	H 	0.65300 0.46330 0.39490 0.03500
H 	H 	0.66110 0.61940 0.42410 0.01200
H 	H 	0.37050 0.20940 0.25650 -0.00200
H 	H 	0.32120 0.26150 0.25010 0.06200
H 	H 	0.37680 0.36260 0.27660 0.03900
H 	H 	0.52240 0.34910 0.32810 0.01400
H 	H 	0.38850 0.47390 0.26160 0.01200
H 	H 	0.54360 0.61730 0.33190 0.04100
H 	H 	0.49200 0.65800 0.28940 0.08000
H 	H 	0.39200 0.61140 0.24900 -0.00100
H 	H 	0.72220 0.79500 0.52200 -0.00300
H 	H 	0.67150 0.81630 0.56780 0.07000
H 	H 	0.65260 0.77350 0.62230 0.03500
H 	H 	0.73680 0.68840 0.58260 0.01300
H 	H 	0.71210 0.86510 0.50220 0.06500
H 	H 	0.74540 0.93060 0.60040 0.03400
H 	H 	0.73950 0.01950 0.61860 0.05300
H 	H 	0.69010 0.02880 0.54070 0.03000
H 	H 	0.65840 0.96040 0.44580 0.06300
H 	H 	0.64720 0.78480 0.37820 0.26300
H 	H 	0.62840 0.86720 0.37220 0.03600
H 	H 	0.68930 0.86710 0.38940 0.02600
H 	H 	0.12050 0.31250 0.50560 -0.00400
H 	H 	0.05970 0.29870 0.54320 0.06700
H 	H 	0.06840 0.25810 0.60510 0.03500
H 	H 	0.19530 0.23700 0.57590 0.01200
H 	H 	0.95290 0.11400 0.74350 -0.00200
H 	H 	0.01140 0.07110 0.74990 0.06200
H 	H 	0.08600 0.10020 0.72340 0.03900
H 	H 	0.02100 0.19430 0.67190 0.01400
H 	H 	0.21230 0.12690 0.73840 0.01200
H 	H 	0.28540 0.21170 0.66810 0.04100
H 	H 	0.36860 0.20260 0.71060 0.08000
H 	H 	0.36240 0.14300 0.75100 -0.00100
H 	H 	0.27300 0.20020 0.47800 -0.00300
H 	H 	0.24850 0.10370 0.43220 0.07000
H 	H 	0.15120 0.03030 0.37770 0.03500
H 	H 	0.10580 0.15420 0.41740 0.01300
H 	H 	0.36290 0.20990 0.49780 0.06500
H 	H 	0.33020 0.14500 0.39960 0.03400
H 	H 	0.40090 0.12090 0.38140 0.05300
H 	H 	0.48810 0.14940 0.45930 0.03000
H 	H 	0.51460 0.21260 0.55420 0.06300
H 	H 	0.40660 0.26900 0.62180 0.26300
H 	H 	0.49500 0.25620 0.62780 0.03600
H 	H 	0.47770 0.29990 0.61060 0.02600
H 	H 	0.19310 0.68750 0.80800 -0.00400
H 	H 	0.24450 0.70130 0.76100 0.06700
H 	H 	0.34700 0.74190 0.81030 0.03500
H 	H 	0.33890 0.76300 0.95830 0.01200
H 	H 	0.62950 0.88600 0.83890 -0.00200
H 	H 	0.67880 0.92890 0.94030 0.06200
H 	H 	0.62320 0.89980 0.98580 0.03900
H 	H 	0.47760 0.80570 0.82670 0.01400
H 	H 	0.61150 0.87310 0.08540 0.01200
H 	H 	0.45640 0.78830 0.07370 0.04100
H 	H 	0.50800 0.79740 0.16600 0.08000
H 	H 	0.60800 0.85700 0.21940 -0.00100
H 	H 	0.27780 0.79980 0.07280 -0.00300
H 	H 	0.32850 0.89630 0.14480 0.07000
H 	H 	0.34740 0.96970 0.12090 0.03400
H 	H 	0.26320 0.84580 0.95160 0.01300
H 	H 	0.28790 0.79010 0.15300 0.06500
H 	H 	0.25460 0.85500 0.18520 0.03400
H 	H 	0.26050 0.87910 0.28000 0.05300
H 	H 	0.30990 0.85060 0.33870 0.03000
H 	H 	0.34160 0.78740 0.30200 0.06300
H 	H 	0.35280 0.73100 0.13760 0.26300
H 	H 	0.37160 0.74380 0.23880 0.03600
H 	H 	0.31070 0.70010 0.17780 0.02600
C 	C 	0.61950 0.86590 0.72260 0.09900
C 	C 	0.36630 0.58100 0.50650 0.13000
C 	C 	0.32220 0.49170 0.42750 0.13300
C 	C 	0.31910 0.49940 0.50890 0.13900
C 	C 	0.47220 0.76510 0.59510 0.05900
C 	C 	0.44870 0.73500 0.53670 -0.10200
C 	C 	0.41260 0.67440 0.50500 0.00800
C 	C 	0.40330 0.64610 0.53640 -0.05200
C 	C 	0.43080 0.68040 0.59780 0.04000
C 	C 	0.27000 0.39270 0.25010 0.06400
C 	C 	0.26440 0.36240 0.28000 -0.10100
C 	C 	0.28110 0.39540 0.34010 0.00300
C 	C 	0.30380 0.45480 0.36440 -0.04800
C 	C 	0.31030 0.48080 0.33090 0.03400
C 	C 	0.27010 0.41020 0.51310 0.04000
C 	C 	0.29900 0.47060 0.54020 -0.05400
C 	C 	0.30950 0.50180 0.59610 0.01400
C 	C 	0.28710 0.47170 0.62160 -0.10900
C 	C 	0.26170 0.41230 0.59260 0.06600
C 	C 	0.54430 0.71510 0.77680 0.06300
C 	C 	0.57120 0.68470 0.78950 -0.10800
C 	C 	0.60270 0.67320 0.76410 0.01900
C 	C 	0.60670 0.69160 0.72490 -0.05600
C 	C 	0.57910 0.72310 0.71480 0.04000
C 	C 	0.64150 0.68220 0.69710 0.13600
C 	C 	0.39890 0.69220 0.72030 0.12500
C 	C 	0.46330 0.68140 0.90530 0.04800
C 	C 	0.51040 0.70780 0.89900 -0.07300
C 	C 	0.56950 0.72890 0.93780 -0.00600
C 	C 	0.57940 0.72350 0.98950 -0.06600
C 	C 	0.53390 0.69600 0.99590 0.00500
C 	C 	0.47700 0.67640 0.95420 -0.08600
C 	C 	0.39810 0.65660 0.86050 0.03200
C 	C 	0.14330 0.89690 0.27740 0.09900
C 	C 	0.07450 0.85980 0.49350 0.13000
C 	C 	0.06420 0.89470 0.57250 0.13300
C 	C 	0.99050 0.81020 0.49110 0.13900
C 	C 	0.17000 0.87710 0.40490 0.05900
C 	C 	0.19830 0.91200 0.46330 -0.10200
C 	C 	0.16940 0.90760 0.49500 0.00800
C 	C 	0.10970 0.86690 0.46360 -0.05200
C 	C 	0.08260 0.83300 0.40220 0.04000
C 	C 	0.14260 0.01990 0.74990 0.06400
C 	C 	0.08240 0.98440 0.72000 -0.10100
C 	C 	0.05530 0.94100 0.65990 0.00300
C 	C 	0.09040 0.93940 0.63560 -0.04800
C 	C 	0.14990 0.97940 0.66910 0.03400
C 	C 	0.89710 0.75700 0.48690 0.04000
C 	C 	0.93040 0.75880 0.45980 -0.05400
C 	C 	0.90570 0.71340 0.40390 0.01400
C 	C 	0.85010 0.66550 0.37840 -0.10900
C 	C 	0.81970 0.66910 0.40740 0.06600
C 	C 	0.93830 0.76750 0.22320 0.06300
C 	C 	0.89520 0.78170 0.21050 -0.10800
C 	C 	0.90910 0.83860 0.23590 0.01900
C 	C 	0.96670 0.88180 0.27510 -0.05600
C 	C 	0.00830 0.86430 0.28520 0.04000
C 	C 	0.98510 0.94440 0.30290 0.13600
C 	C 	0.97190 0.67860 0.27970 0.12500
C 	C 	0.77610 0.55800 0.09470 0.04800
C 	C 	0.80880 0.61140 0.10100 -0.07300
C 	C 	0.79110 0.63170 0.06220 -0.00600
C 	C 	0.73400 0.58990 0.01050 -0.06600
C 	C 	0.70010 0.53800 0.00410 0.00500
C 	C 	0.72220 0.52280 0.04580 -0.08600
C 	C 	0.79610 0.53760 0.13950 0.03200
C 	C 	0.85670 0.13410 0.75360 0.09900
C 	C 	0.92550 0.41900 0.78530 0.13000
C 	C 	0.93580 0.50830 0.83050 0.13300
C 	C 	0.00950 0.50060 0.81970 0.13800
C 	C 	0.83000 0.23490 0.70710 0.05900
C 	C 	0.80170 0.26500 0.71370 -0.10200
C 	C 	0.83060 0.32560 0.73820 0.00800
C 	C 	0.89030 0.35390 0.75720 -0.05200
C 	C 	0.91740 0.31960 0.75040 0.04000
C 	C 	0.85740 0.60730 0.87730 0.06400
C 	C 	0.91760 0.63760 0.90200 -0.10100
C 	C 	0.94470 0.60460 0.88570 0.00300
C 	C 	0.90960 0.54520 0.84900 -0.04800
C 	C 	0.85010 0.51920 0.82950 0.03400
C 	C 	0.10290 0.58980 0.85990 0.04000
C 	C 	0.06960 0.52940 0.82840 -0.05400
C 	C 	0.09430 0.49820 0.80770 0.01400
C 	C 	0.14990 0.52830 0.81540 -0.10900
C 	C 	0.18030 0.58770 0.84940 0.06600
C 	C 	0.06170 0.28490 0.82920 0.06300
C 	C 	0.10480 0.31530 0.88650 -0.10800
C 	C 	0.09090 0.32680 0.92950 0.01900
C 	C 	0.03330 0.30840 0.91510 -0.05600
C 	C 	0.99170 0.27690 0.85600 0.04100
C 	C 	0.01490 0.31780 0.95930 0.13600
C 	C 	0.02810 0.30780 0.70670 0.12500
C 	C 	0.22390 0.31860 0.78190 0.04800
C 	C 	0.19120 0.29220 0.80260 -0.07300
C 	C 	0.20890 0.27110 0.84060 -0.00600
C 	C 	0.26600 0.27650 0.85590 -0.06600
C 	C 	0.29990 0.30400 0.83790 0.00500
C 	C 	0.27780 0.32360 0.80060 -0.08600
C 	C 	0.20390 0.34340 0.74150 0.03200
C 	C 	0.38050 0.10310 0.24640 0.09900
C 	C 	0.63370 0.14020 0.21470 0.13000
C 	C 	0.67780 0.10530 0.16950 0.13300
C 	C 	0.68090 0.18980 0.18030 0.13900
C 	C 	0.52780 0.12290 0.29290 0.05900
C 	C 	0.55130 0.08800 0.28630 -0.10200
C 	C 	0.58740 0.09240 0.26180 0.00800
C 	C 	0.59670 0.13310 0.24280 -0.05200
C 	C 	0.56920 0.16700 0.24960 0.04000
C 	C 	0.73000 0.98010 0.12270 0.06400
C 	C 	0.73560 0.01560 0.09800 -0.10100
C 	C 	0.71890 0.05900 0.11430 0.00300
C 	C 	0.69620 0.06060 0.15100 -0.04800
C 	C 	0.68970 0.02060 0.17050 0.03400
C 	C 	0.72990 0.24300 0.14010 0.04000
C 	C 	0.70100 0.24120 0.17160 -0.05400
C 	C 	0.69050 0.28660 0.19230 0.01400
C 	C 	0.71290 0.33450 0.18460 -0.10900
C 	C 	0.73830 0.33090 0.15060 0.06600
C 	C 	0.45570 0.23250 0.17080 0.06300
C 	C 	0.42880 0.21830 0.11350 -0.10800
C 	C 	0.39730 0.16140 0.07050 0.01900
C 	C 	0.39330 0.11820 0.08490 -0.05600
C 	C 	0.42090 0.13570 0.14400 0.04000
C 	C 	0.35850 0.05560 0.04070 0.13600
C 	C 	0.60110 0.32140 0.29330 0.12500
C 	C 	0.53670 0.44200 0.21810 0.04800
C 	C 	0.48960 0.38860 0.19740 -0.07300
C 	C 	0.43050 0.36830 0.15940 -0.00600
C 	C 	0.42060 0.41010 0.14410 -0.06600
C 	C 	0.46610 0.46200 0.16210 0.00500
C 	C 	0.52300 0.47720 0.19940 -0.08600
C 	C 	0.60190 0.46240 0.25850 0.03200
C 	C 	0.75360 0.85670 0.13410 0.09900
C 	C 	0.78530 0.92550 0.41900 0.13000
C 	C 	0.83050 0.93580 0.50830 0.13300
C 	C 	0.81970 0.00950 0.50060 0.13800
C 	C 	0.70710 0.83000 0.23490 0.05900
C 	C 	0.71370 0.80170 0.26500 -0.10200
C 	C 	0.73820 0.83060 0.32560 0.00800
C 	C 	0.75720 0.89030 0.35390 -0.05200
C 	C 	0.75040 0.91740 0.31960 0.04000
C 	C 	0.87730 0.85740 0.60730 0.06400
C 	C 	0.90200 0.91760 0.63760 -0.10100
C 	C 	0.88570 0.94470 0.60460 0.00300
C 	C 	0.84900 0.90960 0.54520 -0.04800
C 	C 	0.82950 0.85010 0.51920 0.03400
C 	C 	0.85990 0.10290 0.58980 0.04000
C 	C 	0.82840 0.06960 0.52940 -0.05400
C 	C 	0.80770 0.09430 0.49820 0.01400
C 	C 	0.81540 0.14990 0.52830 -0.10900
C 	C 	0.84940 0.18030 0.58770 0.06600
C 	C 	0.82920 0.06170 0.28490 0.06300
C 	C 	0.88650 0.10480 0.31530 -0.10800
C 	C 	0.92950 0.09090 0.32680 0.01900
C 	C 	0.91510 0.03330 0.30840 -0.05600
C 	C 	0.85600 0.99170 0.27690 0.04100
C 	C 	0.95930 0.01490 0.31780 0.13600
C 	C 	0.70670 0.02810 0.30780 0.12500
C 	C 	0.78190 0.22390 0.31860 0.04800
C 	C 	0.80260 0.19120 0.29220 -0.07300
C 	C 	0.84060 0.20890 0.27110 -0.00600
C 	C 	0.85590 0.26600 0.27650 -0.06600
C 	C 	0.83790 0.29990 0.30400 0.00500
C 	C 	0.80060 0.27780 0.32360 -0.08600
C 	C 	0.74150 0.20390 0.34340 0.03200
C 	C 	0.24640 0.38050 0.10310 0.09900
C 	C 	0.21470 0.63370 0.14020 0.13000
C 	C 	0.16950 0.67780 0.10530 0.13300
C 	C 	0.18030 0.68090 0.18980 0.13900
C 	C 	0.29290 0.52780 0.12290 0.05900
C 	C 	0.28630 0.55130 0.08800 -0.10200
C 	C 	0.26180 0.58740 0.09240 0.00800
C 	C 	0.24280 0.59670 0.13310 -0.05200
C 	C 	0.24960 0.56920 0.16700 0.04000
C 	C 	0.12270 0.73000 0.98010 0.06400
C 	C 	0.09800 0.73560 0.01560 -0.10100
C 	C 	0.11430 0.71890 0.05900 0.00300
C 	C 	0.15100 0.69620 0.06060 -0.04800
C 	C 	0.17050 0.68970 0.02060 0.03400
C 	C 	0.14010 0.72990 0.24300 0.04000
C 	C 	0.17160 0.70100 0.24120 -0.05400
C 	C 	0.19230 0.69050 0.28660 0.01400
C 	C 	0.18460 0.71290 0.33450 -0.10900
C 	C 	0.15060 0.73830 0.33090 0.06600
C 	C 	0.17080 0.45570 0.23250 0.06300
C 	C 	0.11350 0.42880 0.21830 -0.10800
C 	C 	0.07050 0.39730 0.16140 0.01900
C 	C 	0.08490 0.39330 0.11820 -0.05600
C 	C 	0.14400 0.42090 0.13570 0.04000
C 	C 	0.04070 0.35850 0.05560 0.13600
C 	C 	0.29330 0.60110 0.32140 0.12500
C 	C 	0.21810 0.53670 0.44200 0.04800
C 	C 	0.19740 0.48960 0.38860 -0.07300
C 	C 	0.15940 0.43050 0.36830 -0.00600
C 	C 	0.14410 0.42060 0.41010 -0.06600
C 	C 	0.16210 0.46610 0.46200 0.00500
C 	C 	0.19940 0.52300 0.47720 -0.08600
C 	C 	0.25850 0.60190 0.46240 0.03200
C 	C 	0.72260 0.61950 0.86590 0.09900
C 	C 	0.50650 0.36630 0.58100 0.13000
C 	C 	0.42750 0.32220 0.49170 0.13300
C 	C 	0.50890 0.31910 0.49940 0.13900
C 	C 	0.59510 0.47220 0.76510 0.05900
C 	C 	0.53670 0.44870 0.73500 -0.10200
C 	C 	0.50500 0.41260 0.67440 0.00800
C 	C 	0.53640 0.40330 0.64610 -0.05200
C 	C 	0.59780 0.43080 0.68040 0.04000
C 	C 	0.25010 0.27000 0.39270 0.06400
C 	C 	0.28000 0.26440 0.36240 -0.10100
C 	C 	0.34010 0.28110 0.39540 0.00300
C 	C 	0.36440 0.30380 0.45480 -0.04800
C 	C 	0.33090 0.31030 0.48080 0.03400
C 	C 	0.51310 0.27010 0.41020 0.04000
C 	C 	0.54020 0.29900 0.47060 -0.05400
C 	C 	0.59610 0.30950 0.50180 0.01400
C 	C 	0.62160 0.28710 0.47170 -0.10900
C 	C 	0.59260 0.26170 0.41230 0.06600
C 	C 	0.77680 0.54430 0.71510 0.06300
C 	C 	0.78950 0.57120 0.68470 -0.10800
C 	C 	0.76410 0.60270 0.67320 0.01900
C 	C 	0.72490 0.60670 0.69160 -0.05600
C 	C 	0.71480 0.57910 0.72310 0.04000
C 	C 	0.69710 0.64150 0.68220 0.13600
C 	C 	0.72030 0.39890 0.69220 0.12500
C 	C 	0.90530 0.46330 0.68140 0.04800
C 	C 	0.89900 0.51040 0.70780 -0.07300
C 	C 	0.93780 0.56950 0.72890 -0.00600
C 	C 	0.98950 0.57940 0.72350 -0.06600
C 	C 	0.99590 0.53390 0.69600 0.00500
C 	C 	0.95420 0.47700 0.67640 -0.08600
C 	C 	0.86050 0.39810 0.65660 0.03200
C 	C 	0.27740 0.14330 0.89690 0.09900
C 	C 	0.49350 0.07450 0.85980 0.13000
C 	C 	0.57250 0.06420 0.89470 0.13300
C 	C 	0.49110 0.99050 0.81020 0.13900
C 	C 	0.40490 0.17000 0.87710 0.05900
C 	C 	0.46330 0.19830 0.91200 -0.10200
C 	C 	0.49500 0.16940 0.90760 0.00800
C 	C 	0.46360 0.10970 0.86690 -0.05200
C 	C 	0.40220 0.08260 0.83300 0.04000
C 	C 	0.74990 0.14260 0.01990 0.06400
C 	C 	0.72000 0.08240 0.98440 -0.10100
C 	C 	0.65990 0.05530 0.94100 0.00300
C 	C 	0.63560 0.09040 0.93940 -0.04800
C 	C 	0.66910 0.14990 0.97940 0.03400
C 	C 	0.48690 0.89710 0.75700 0.04000
C 	C 	0.45980 0.93040 0.75880 -0.05400
C 	C 	0.40390 0.90570 0.71340 0.01400
C 	C 	0.37840 0.85010 0.66550 -0.10900
C 	C 	0.40740 0.81970 0.66910 0.06600
C 	C 	0.22320 0.93830 0.76750 0.06300
C 	C 	0.21050 0.89520 0.78170 -0.10800
C 	C 	0.23590 0.90910 0.83860 0.01900
C 	C 	0.27510 0.96670 0.88180 -0.05600
C 	C 	0.28520 0.00830 0.86430 0.04000
C 	C 	0.30290 0.98510 0.94440 0.13600
C 	C 	0.27970 0.97190 0.67860 0.12500
C 	C 	0.09470 0.77610 0.55800 0.04800
C 	C 	0.10100 0.80880 0.61140 -0.07300
C 	C 	0.06220 0.79110 0.63170 -0.00600
C 	C 	0.01050 0.73400 0.58990 -0.06600
C 	C 	0.00410 0.70010 0.53800 0.00500
C 	C 	0.04580 0.72220 0.52280 -0.08600
C 	C 	0.13950 0.79610 0.53760 0.03200
C 	C 	0.89690 0.27740 0.14330 0.09900
C 	C 	0.85980 0.49350 0.07450 0.13000
C 	C 	0.89470 0.57250 0.06420 0.13300
C 	C 	0.81020 0.49110 0.99050 0.13900
C 	C 	0.87710 0.40490 0.17000 0.05900
C 	C 	0.91200 0.46330 0.19830 -0.10200
C 	C 	0.90760 0.49500 0.16940 0.00800
C 	C 	0.86690 0.46360 0.10970 -0.05200
C 	C 	0.83300 0.40220 0.08260 0.04000
C 	C 	0.01990 0.74990 0.14260 0.06400
C 	C 	0.98440 0.72000 0.08240 -0.10100
C 	C 	0.94100 0.65990 0.05530 0.00300
C 	C 	0.93940 0.63560 0.09040 -0.04800
C 	C 	0.97940 0.66910 0.14990 0.03400
C 	C 	0.75700 0.48690 0.89710 0.04000
C 	C 	0.75880 0.45980 0.93040 -0.05400
C 	C 	0.71340 0.40390 0.90570 0.01400
C 	C 	0.66550 0.37840 0.85010 -0.10900
C 	C 	0.66910 0.40740 0.81970 0.06600
C 	C 	0.76750 0.22320 0.93830 0.06300
C 	C 	0.78170 0.21050 0.89520 -0.10800
C 	C 	0.83860 0.23590 0.90910 0.01900
C 	C 	0.88180 0.27510 0.96670 -0.05600
C 	C 	0.86430 0.28520 0.00830 0.04000
C 	C 	0.94440 0.30290 0.98510 0.13600
C 	C 	0.67860 0.27970 0.97190 0.12500
C 	C 	0.55800 0.09470 0.77610 0.04800
C 	C 	0.61140 0.10100 0.80880 -0.07300
C 	C 	0.63170 0.06220 0.79110 -0.00600
C 	C 	0.58990 0.01050 0.73400 -0.06600
C 	C 	0.53800 0.00410 0.70010 0.00500
C 	C 	0.52280 0.04580 0.72220 -0.08600
C 	C 	0.53760 0.13950 0.79610 0.03200
C 	C 	0.86590 0.72260 0.61950 0.09900
C 	C 	0.58100 0.50650 0.36630 0.13000
C 	C 	0.49170 0.42750 0.32220 0.13300
C 	C 	0.49940 0.50890 0.31910 0.13900
C 	C 	0.76510 0.59510 0.47220 0.05900
C 	C 	0.73500 0.53670 0.44870 -0.10200
C 	C 	0.67440 0.50500 0.41260 0.00800
C 	C 	0.64610 0.53640 0.40330 -0.05200
C 	C 	0.68040 0.59780 0.43080 0.04000
C 	C 	0.39270 0.25010 0.27000 0.06400
C 	C 	0.36240 0.28000 0.26440 -0.10100
C 	C 	0.39540 0.34010 0.28110 0.00300
C 	C 	0.45480 0.36440 0.30380 -0.04800
C 	C 	0.48080 0.33090 0.31030 0.03400
C 	C 	0.41020 0.51310 0.27010 0.04000
C 	C 	0.47060 0.54020 0.29900 -0.05400
C 	C 	0.50180 0.59610 0.30950 0.01400
C 	C 	0.47170 0.62160 0.28710 -0.10900
C 	C 	0.41230 0.59260 0.26170 0.06600
C 	C 	0.71510 0.77680 0.54430 0.06300
C 	C 	0.68470 0.78950 0.57120 -0.10800
C 	C 	0.67320 0.76410 0.60270 0.01900
C 	C 	0.69160 0.72490 0.60670 -0.05600
C 	C 	0.72310 0.71480 0.57910 0.04000
C 	C 	0.68220 0.69710 0.64150 0.13600
C 	C 	0.69220 0.72030 0.39890 0.12500
C 	C 	0.68140 0.90530 0.46330 0.04800
C 	C 	0.70780 0.89900 0.51040 -0.07300
C 	C 	0.72890 0.93780 0.56950 -0.00600
C 	C 	0.72350 0.98950 0.57940 -0.06600
C 	C 	0.69600 0.99590 0.53390 0.00500
C 	C 	0.67640 0.95420 0.47700 -0.08600
C 	C 	0.65660 0.86050 0.39810 0.03200
C 	C 	0.10310 0.24640 0.38050 0.09900
C 	C 	0.14020 0.21470 0.63370 0.13000
C 	C 	0.10530 0.16950 0.67780 0.13300
C 	C 	0.18980 0.18030 0.68090 0.13900
C 	C 	0.12290 0.29290 0.52780 0.05900
C 	C 	0.08800 0.28630 0.55130 -0.10200
C 	C 	0.09240 0.26180 0.58740 0.00800
C 	C 	0.13310 0.24280 0.59670 -0.05200
C 	C 	0.16700 0.24960 0.56920 0.04000
C 	C 	0.98010 0.12270 0.73000 0.06400
C 	C 	0.01560 0.09800 0.73560 -0.10100
C 	C 	0.05900 0.11430 0.71890 0.00300
C 	C 	0.06060 0.15100 0.69620 -0.04800
C 	C 	0.02060 0.17050 0.68970 0.03400
C 	C 	0.24300 0.14010 0.72990 0.04000
C 	C 	0.24120 0.17160 0.70100 -0.05400
C 	C 	0.28660 0.19230 0.69050 0.01400
C 	C 	0.33450 0.18460 0.71290 -0.10900
C 	C 	0.33090 0.15060 0.73830 0.06600
C 	C 	0.23250 0.17080 0.45570 0.06300
C 	C 	0.21830 0.11350 0.42880 -0.10800
C 	C 	0.16140 0.07050 0.39730 0.01900
C 	C 	0.11820 0.08490 0.39330 -0.05600
C 	C 	0.13570 0.14400 0.42090 0.04000
C 	C 	0.05560 0.04070 0.35850 0.13600
C 	C 	0.32140 0.29330 0.60110 0.12500
C 	C 	0.44200 0.21810 0.53670 0.04800
C 	C 	0.38860 0.19740 0.48960 -0.07300
C 	C 	0.36830 0.15940 0.43050 -0.00600
C 	C 	0.41010 0.14410 0.42060 -0.06600
C 	C 	0.46200 0.16210 0.46610 0.00500
C 	C 	0.47720 0.19940 0.52300 -0.08600
C 	C 	0.46240 0.25850 0.60190 0.03200
C 	C 	0.13410 0.75360 0.85670 0.09900
C 	C 	0.41900 0.78530 0.92550 0.13000
C 	C 	0.50830 0.83050 0.93580 0.13300
C 	C 	0.50060 0.81970 0.00950 0.13800
C 	C 	0.23490 0.70710 0.83000 0.05900
C 	C 	0.26500 0.71370 0.80170 -0.10200
C 	C 	0.32560 0.73820 0.83060 0.00800
C 	C 	0.35390 0.75720 0.89030 -0.05200
C 	C 	0.31960 0.75040 0.91740 0.04000
C 	C 	0.60730 0.87730 0.85740 0.06400
C 	C 	0.63760 0.90200 0.91760 -0.10100
C 	C 	0.60460 0.88570 0.94470 0.00300
C 	C 	0.54520 0.84900 0.90960 -0.04800
C 	C 	0.51920 0.82950 0.85010 0.03400
C 	C 	0.58980 0.85990 0.10290 0.04000
C 	C 	0.52940 0.82840 0.06960 -0.05400
C 	C 	0.49820 0.80770 0.09430 0.01400
C 	C 	0.52830 0.81540 0.14990 -0.10900
C 	C 	0.58770 0.84940 0.18030 0.06600
C 	C 	0.28490 0.82920 0.06170 0.06300
C 	C 	0.31530 0.88650 0.10480 -0.10800
C 	C 	0.32680 0.92950 0.09090 0.01900
C 	C 	0.30840 0.91510 0.03330 -0.05600
C 	C 	0.27690 0.85600 0.99170 0.04100
C 	C 	0.31780 0.95930 0.01490 0.13600
C 	C 	0.30780 0.70670 0.02810 0.12500
C 	C 	0.31860 0.78190 0.22390 0.04800
C 	C 	0.29220 0.80260 0.19120 -0.07300
C 	C 	0.27110 0.84060 0.20890 -0.00600
C 	C 	0.27650 0.85590 0.26600 -0.06600
C 	C 	0.30400 0.83790 0.29990 0.00500
C 	C 	0.32360 0.80060 0.27780 -0.08600
C 	C 	0.34340 0.74150 0.20390 0.03200
S 	S 	0.67400 0.89480 0.71360 -0.06000
S 	S 	0.36648 0.64126 0.73598 -0.15300
S 	S 	0.18120 0.96040 0.28640 -0.06000
S 	S 	0.90528 0.63050 0.26402 -0.15300
S 	S 	0.81880 0.10520 0.77920 -0.06000
S 	S 	0.09472 0.35874 0.72522 -0.15300
S 	S 	0.32600 0.03960 0.22080 -0.06000
S 	S 	0.63352 0.36950 0.27478 -0.15300
S 	S 	0.77920 0.81880 0.10520 -0.06000
S 	S 	0.72522 0.09472 0.35874 -0.15300
S 	S 	0.22080 0.32600 0.03960 -0.06000
S 	S 	0.27478 0.63352 0.36950 -0.15300
S 	S 	0.71360 0.67400 0.89480 -0.06000
S 	S 	0.73598 0.36648 0.64126 -0.15300
S 	S 	0.28640 0.18120 0.96040 -0.06000
S 	S 	0.26402 0.90528 0.63050 -0.15300
S 	S 	0.96040 0.28640 0.18120 -0.06000
S 	S 	0.63050 0.26402 0.90528 -0.15300
S 	S 	0.89480 0.71360 0.67400 -0.06000
S 	S 	0.64126 0.73598 0.36648 -0.15300
S 	S 	0.03960 0.22080 0.32600 -0.06000
S 	S 	0.36950 0.27478 0.63352 -0.15300
S 	S 	0.10520 0.77920 0.81880 -0.06000
S 	S 	0.35874 0.72522 0.09472 -0.15300
N 	N 	0.57960 0.84720 0.72840 -0.26400
N 	N 	0.46580 0.73855 0.62735 -0.22700
N 	N 	0.34990 0.55830 0.53820 -0.15100
N 	N 	0.35370 0.55140 0.45170 -0.15100
N 	N 	0.30650 0.46530 0.45500 -0.15400
N 	N 	0.29260 0.44990 0.27370 -0.22000
N 	N 	0.25320 0.38020 0.53900 -0.22600
N 	N 	0.54730 0.73620 0.73970 -0.22400
N 	N 	0.64760 0.70630 0.66410 -0.15100
N 	N 	0.43190 0.72920 0.71850 -0.26700
N 	N 	0.11880 0.85120 0.27160 -0.26400
N 	N 	0.11120 0.83845 0.37265 -0.22700
N 	N 	0.02010 0.81170 0.46180 -0.15100
N 	N 	0.09970 0.90200 0.54830 -0.15100
N 	N 	0.01030 0.85150 0.54500 -0.15400
N 	N 	0.17620 0.01890 0.72630 -0.22000
N 	N 	0.84120 0.71420 0.46100 -0.22600
N 	N 	0.99650 0.80760 0.26030 -0.22400
N 	N 	0.04220 0.98350 0.33590 -0.15100
N 	N 	0.01070 0.71340 0.28150 -0.26700
N 	N 	0.88120 0.15280 0.73240 -0.26400
N 	N 	0.88880 0.26145 0.72725 -0.22700
N 	N 	0.97990 0.44170 0.79160 -0.15100
N 	N 	0.90030 0.44860 0.80230 -0.15100
N 	N 	0.98970 0.53470 0.84120 -0.15400
N 	N 	0.82380 0.55010 0.84270 -0.22000
N 	N 	0.15880 0.61980 0.87300 -0.22600
N 	N 	0.00350 0.26380 0.81110 -0.22500
N 	N 	0.95780 0.29370 0.94130 -0.15100
N 	N 	0.98930 0.27080 0.70270 -0.26700
N 	N 	0.42040 0.14880 0.26760 -0.26400
N 	N 	0.53420 0.16155 0.27275 -0.22700
N 	N 	0.65010 0.18830 0.20840 -0.15100
N 	N 	0.64630 0.09800 0.19770 -0.15100
N 	N 	0.69350 0.14850 0.15880 -0.15400
N 	N 	0.70740 0.98110 0.15730 -0.22000
N 	N 	0.74680 0.28580 0.12700 -0.22600
N 	N 	0.45270 0.19240 0.18890 -0.22400
N 	N 	0.35240 0.01650 0.05870 -0.15100
N 	N 	0.56810 0.28660 0.29730 -0.26700
N 	N 	0.73240 0.88120 0.15280 -0.26400
N 	N 	0.72725 0.88880 0.26145 -0.22700
N 	N 	0.79160 0.97990 0.44170 -0.15100
N 	N 	0.80230 0.90030 0.44860 -0.15100
N 	N 	0.84120 0.98970 0.53470 -0.15400
N 	N 	0.84270 0.82380 0.55010 -0.22000
N 	N 	0.87300 0.15880 0.61980 -0.22600
N 	N 	0.81110 0.00350 0.26380 -0.22500
N 	N 	0.94130 0.95780 0.29370 -0.15100
N 	N 	0.70270 0.98930 0.27080 -0.26700
N 	N 	0.26760 0.42040 0.14880 -0.26400
N 	N 	0.27275 0.53420 0.16155 -0.22700
N 	N 	0.20840 0.65010 0.18830 -0.15100
N 	N 	0.19770 0.64630 0.09800 -0.15100
N 	N 	0.15880 0.69350 0.14850 -0.15400
N 	N 	0.15730 0.70740 0.98110 -0.22000
N 	N 	0.12700 0.74680 0.28580 -0.22600
N 	N 	0.18890 0.45270 0.19240 -0.22400
N 	N 	0.05870 0.35240 0.01650 -0.15100
N 	N 	0.29730 0.56810 0.28660 -0.26700
N 	N 	0.72840 0.57960 0.84720 -0.26400
N 	N 	0.62735 0.46580 0.73855 -0.22700
N 	N 	0.53820 0.34990 0.55830 -0.15100
N 	N 	0.45170 0.35370 0.55140 -0.15100
N 	N 	0.45500 0.30650 0.46530 -0.15400
N 	N 	0.27370 0.29260 0.44990 -0.22000
N 	N 	0.53900 0.25320 0.38020 -0.22600
N 	N 	0.73970 0.54730 0.73620 -0.22400
N 	N 	0.66410 0.64760 0.70630 -0.15100
N 	N 	0.71850 0.43190 0.72920 -0.26700
N 	N 	0.27160 0.11880 0.85120 -0.26400
N 	N 	0.37265 0.11120 0.83845 -0.22700
N 	N 	0.46180 0.02010 0.81170 -0.15100
N 	N 	0.54830 0.09970 0.90200 -0.15100
N 	N 	0.54500 0.01030 0.85150 -0.15400
N 	N 	0.72630 0.17620 0.01890 -0.22000
N 	N 	0.46100 0.84120 0.71420 -0.22600
N 	N 	0.26030 0.99650 0.80760 -0.22400
N 	N 	0.33590 0.04220 0.98350 -0.15100
N 	N 	0.28150 0.01070 0.71340 -0.26700
N 	N 	0.85120 0.27160 0.11880 -0.26400
N 	N 	0.83845 0.37265 0.11120 -0.22700
N 	N 	0.81170 0.46180 0.02010 -0.15100
N 	N 	0.90200 0.54830 0.09970 -0.15100
N 	N 	0.85150 0.54500 0.01030 -0.15400
N 	N 	0.01890 0.72630 0.17620 -0.22000
N 	N 	0.71420 0.46100 0.84120 -0.22600
N 	N 	0.80760 0.26030 0.99650 -0.22400
N 	N 	0.98350 0.33590 0.04220 -0.15100
N 	N 	0.71340 0.28150 0.01070 -0.26700
N 	N 	0.84720 0.72840 0.57960 -0.26400
N 	N 	0.73855 0.62735 0.46580 -0.22700
N 	N 	0.55830 0.53820 0.34990 -0.15100
N 	N 	0.55140 0.45170 0.35370 -0.15100
N 	N 	0.46530 0.45500 0.30650 -0.15400
N 	N 	0.44990 0.27370 0.29260 -0.22000
N 	N 	0.38020 0.53900 0.25320 -0.22600
N 	N 	0.73620 0.73970 0.54730 -0.22400
N 	N 	0.70630 0.66410 0.64760 -0.15100
N 	N 	0.72920 0.71850 0.43190 -0.26700
N 	N 	0.14880 0.26760 0.42040 -0.26400
N 	N 	0.16155 0.27275 0.53420 -0.22700
N 	N 	0.18830 0.20840 0.65010 -0.15100
N 	N 	0.09800 0.19770 0.64630 -0.15100
N 	N 	0.14850 0.15880 0.69350 -0.15400
N 	N 	0.98110 0.15730 0.70740 -0.22000
N 	N 	0.28580 0.12700 0.74680 -0.22600
N 	N 	0.19240 0.18890 0.45270 -0.22400
N 	N 	0.01650 0.05870 0.35240 -0.15100
N 	N 	0.28660 0.29730 0.56810 -0.26700
N 	N 	0.15280 0.73240 0.88120 -0.26400
N 	N 	0.26145 0.72725 0.88880 -0.22700
N 	N 	0.44170 0.79160 0.97990 -0.15100
N 	N 	0.44860 0.80230 0.90030 -0.15100
N 	N 	0.53470 0.84120 0.98970 -0.15400
N 	N 	0.55010 0.84270 0.82380 -0.22000
N 	N 	0.61980 0.87300 0.15880 -0.22600
N 	N 	0.26380 0.81110 0.00350 -0.22500
N 	N 	0.29370 0.94130 0.95780 -0.15100
N 	N 	0.27080 0.70270 0.98930 -0.26700
O 	O 	0.38500 0.62750 0.80070 -0.34900
O 	O 	0.82680 0.58430 0.19930 -0.34900
O 	O 	0.17320 0.37250 0.75750 -0.34900
O 	O 	0.61500 0.41570 0.24250 -0.34900
O 	O 	0.75750 0.17320 0.37250 -0.34900
O 	O 	0.24250 0.61500 0.41570 -0.34900
O 	O 	0.80070 0.38500 0.62750 -0.34900
O 	O 	0.19930 0.82680 0.58430 -0.34900
O 	O 	0.58430 0.19930 0.82680 -0.34900
O 	O 	0.62750 0.80070 0.38500 -0.34900
O 	O 	0.41570 0.24250 0.61500 -0.34900
O 	O 	0.37250 0.75750 0.17320 -0.34900
