data_crystal

_cell_length_a 38.22200
_cell_length_b 38.22200
_cell_length_c 38.22200
_cell_angle_alpha 90.00000
_cell_angle_beta  90.00000
_cell_angle_gamma 90.00000

_symmetry_space_group_name_	'P 1'
_symmetry_space_group_name_H-M	'P 1'

loop_
_symmetry_equiv_pos_as_xyz
  x,y,z

loop_
_atom_site_label
_atom_site_type_symbol
_atom_site_fract_x
_atom_site_fract_y
_atom_site_fract_z
_atom_site_charge
C 	C 	0.19050 0.23580 0.05410 0.05300
H 	H 	0.18000 0.25560 0.04490 0.00200
C 	C 	0.17750 0.22000 0.08160 -0.11700
H 	H 	0.15780 0.23010 0.09160 0.07900
C 	C 	0.19050 0.73580 0.55410 0.05300
H 	H 	0.18000 0.75560 0.54490 0.00200
C 	C 	0.17750 0.72000 0.58160 -0.11700
H 	H 	0.15780 0.73010 0.59160 0.07900
C 	C 	0.69050 0.23580 0.55410 0.05300
H 	H 	0.68000 0.25560 0.54490 0.00200
C 	C 	0.67750 0.22000 0.58160 -0.11700
H 	H 	0.65780 0.23010 0.59160 0.07900
C 	C 	0.69050 0.73580 0.05410 0.05300
H 	H 	0.68000 0.75560 0.04490 0.00200
C 	C 	0.67750 0.72000 0.08160 -0.11700
H 	H 	0.65780 0.73010 0.09160 0.07900
C 	C 	0.80950 0.76420 0.05410 0.05300
H 	H 	0.82000 0.74440 0.04490 0.00200
C 	C 	0.82250 0.78000 0.08160 -0.11700
H 	H 	0.84220 0.76990 0.09160 0.07900
C 	C 	0.80950 0.26420 0.55410 0.05300
H 	H 	0.82000 0.24440 0.54490 0.00200
C 	C 	0.82250 0.28000 0.58160 -0.11700
H 	H 	0.84220 0.26990 0.59160 0.08000
C 	C 	0.30950 0.76420 0.55410 0.05300
H 	H 	0.32000 0.74440 0.54490 0.00200
C 	C 	0.32250 0.78000 0.58160 -0.11700
H 	H 	0.34220 0.76990 0.59160 0.07900
C 	C 	0.30950 0.26420 0.05410 0.05300
H 	H 	0.32000 0.24440 0.04490 0.00200
C 	C 	0.32250 0.28000 0.08160 -0.11700
H 	H 	0.34220 0.26990 0.09160 0.07900
C 	C 	0.80950 0.23580 0.94590 0.05300
H 	H 	0.82000 0.25560 0.95510 0.00300
C 	C 	0.82250 0.22000 0.91840 -0.11700
H 	H 	0.84220 0.23010 0.90840 0.08000
C 	C 	0.80950 0.73580 0.44590 0.05300
H 	H 	0.82000 0.75560 0.45510 0.00200
C 	C 	0.82250 0.72000 0.41840 -0.11700
H 	H 	0.84220 0.73010 0.40840 0.08000
C 	C 	0.30950 0.23580 0.44590 0.05300
H 	H 	0.32000 0.25560 0.45510 0.00200
C 	C 	0.32250 0.22000 0.41840 -0.11700
H 	H 	0.34220 0.23010 0.40840 0.07900
C 	C 	0.30950 0.73580 0.94590 0.05300
H 	H 	0.32000 0.75560 0.95510 0.00300
C 	C 	0.32250 0.72000 0.91840 -0.11700
H 	H 	0.34220 0.73010 0.90840 0.08000
C 	C 	0.19050 0.76420 0.94590 0.05300
H 	H 	0.18000 0.74440 0.95510 0.00300
C 	C 	0.17750 0.78000 0.91840 -0.11700
H 	H 	0.15780 0.76990 0.90840 0.08000
C 	C 	0.19050 0.26420 0.44590 0.05300
H 	H 	0.18000 0.24440 0.45510 0.00200
C 	C 	0.17750 0.28000 0.41840 -0.11700
H 	H 	0.15780 0.26990 0.40840 0.07900
C 	C 	0.69050 0.76420 0.44590 0.05300
H 	H 	0.68000 0.74440 0.45510 0.00200
C 	C 	0.67750 0.78000 0.41840 -0.11700
H 	H 	0.65780 0.76990 0.40840 0.07900
C 	C 	0.69050 0.26420 0.94590 0.05300
H 	H 	0.68000 0.24440 0.95510 0.00300
C 	C 	0.67750 0.28000 0.91840 -0.11700
H 	H 	0.65780 0.26990 0.90840 0.08000
C 	C 	0.05410 0.19050 0.23580 0.05300
H 	H 	0.04490 0.18000 0.25560 0.00200
C 	C 	0.08160 0.17750 0.22000 -0.11700
H 	H 	0.09160 0.15780 0.23010 0.07900
C 	C 	0.05410 0.69050 0.73580 0.05300
H 	H 	0.04490 0.68000 0.75560 0.00200
C 	C 	0.08160 0.67750 0.72000 -0.11700
H 	H 	0.09160 0.65780 0.73010 0.07900
C 	C 	0.55410 0.19050 0.73580 0.05300
H 	H 	0.54490 0.18000 0.75560 0.00200
C 	C 	0.58160 0.17750 0.72000 -0.11700
H 	H 	0.59160 0.15780 0.73010 0.07900
C 	C 	0.55410 0.69050 0.23580 0.05300
H 	H 	0.54490 0.68000 0.25560 0.00200
C 	C 	0.58160 0.67750 0.22000 -0.11700
H 	H 	0.59160 0.65780 0.23010 0.07900
C 	C 	0.05410 0.80950 0.76420 0.05300
H 	H 	0.04490 0.82000 0.74440 0.00200
C 	C 	0.08160 0.82250 0.78000 -0.11700
H 	H 	0.09160 0.84220 0.76990 0.07900
C 	C 	0.05410 0.30950 0.26420 0.05300
H 	H 	0.04490 0.32000 0.24440 0.00200
C 	C 	0.08160 0.32250 0.28000 -0.11700
H 	H 	0.09160 0.34220 0.26990 0.07900
C 	C 	0.55410 0.80950 0.26420 0.05300
H 	H 	0.54490 0.82000 0.24440 0.00200
C 	C 	0.58160 0.82250 0.28000 -0.11700
H 	H 	0.59160 0.84220 0.26990 0.08000
C 	C 	0.55410 0.30950 0.76420 0.05300
H 	H 	0.54490 0.32000 0.74440 0.00200
C 	C 	0.58160 0.32250 0.78000 -0.11700
H 	H 	0.59160 0.34220 0.76990 0.07900
C 	C 	0.94590 0.80950 0.23580 0.05300
H 	H 	0.95510 0.82000 0.25560 0.00300
C 	C 	0.91840 0.82250 0.22000 -0.11700
H 	H 	0.90840 0.84220 0.23010 0.08000
C 	C 	0.94590 0.30950 0.73580 0.05300
H 	H 	0.95510 0.32000 0.75560 0.00300
C 	C 	0.91840 0.32250 0.72000 -0.11700
H 	H 	0.90840 0.34220 0.73010 0.08000
C 	C 	0.44590 0.80950 0.73580 0.05300
H 	H 	0.45510 0.82000 0.75560 0.00200
C 	C 	0.41840 0.82250 0.72000 -0.11700
H 	H 	0.40840 0.84220 0.73010 0.08000
C 	C 	0.44590 0.30950 0.23580 0.05300
H 	H 	0.45510 0.32000 0.25560 0.00200
C 	C 	0.41840 0.32250 0.22000 -0.11700
H 	H 	0.40840 0.34220 0.23010 0.07900
C 	C 	0.94590 0.19050 0.76420 0.05300
H 	H 	0.95510 0.18000 0.74440 0.00300
C 	C 	0.91840 0.17750 0.78000 -0.11700
H 	H 	0.90840 0.15780 0.76990 0.08000
C 	C 	0.94590 0.69050 0.26420 0.05300
H 	H 	0.95510 0.68000 0.24440 0.00300
C 	C 	0.91840 0.67750 0.28000 -0.11700
H 	H 	0.90840 0.65780 0.26990 0.08000
C 	C 	0.44590 0.19050 0.26420 0.05300
H 	H 	0.45510 0.18000 0.24440 0.00200
C 	C 	0.41840 0.17750 0.28000 -0.11700
H 	H 	0.40840 0.15780 0.26990 0.07900
C 	C 	0.44590 0.69050 0.76420 0.05300
H 	H 	0.45510 0.68000 0.74440 0.00200
C 	C 	0.41840 0.67750 0.78000 -0.11700
H 	H 	0.40840 0.65780 0.76990 0.07900
C 	C 	0.23580 0.05410 0.19050 0.05300
H 	H 	0.25560 0.04490 0.18000 0.00200
C 	C 	0.22000 0.08160 0.17750 -0.11700
H 	H 	0.23010 0.09160 0.15780 0.07900
C 	C 	0.23580 0.55410 0.69050 0.05300
H 	H 	0.25560 0.54490 0.68000 0.00200
C 	C 	0.22000 0.58160 0.67750 -0.11700
H 	H 	0.23010 0.59160 0.65780 0.07900
C 	C 	0.73580 0.05410 0.69050 0.05300
H 	H 	0.75560 0.04490 0.68000 0.00200
C 	C 	0.72000 0.08160 0.67750 -0.11700
H 	H 	0.73010 0.09160 0.65780 0.07900
C 	C 	0.73580 0.55410 0.19050 0.05300
H 	H 	0.75560 0.54490 0.18000 0.00200
C 	C 	0.72000 0.58160 0.17750 -0.11700
H 	H 	0.73010 0.59160 0.15780 0.07900
C 	C 	0.76420 0.05410 0.80950 0.05300
H 	H 	0.74440 0.04490 0.82000 0.00200
C 	C 	0.78000 0.08160 0.82250 -0.11700
H 	H 	0.76990 0.09160 0.84220 0.07900
C 	C 	0.76420 0.55410 0.30950 0.05300
H 	H 	0.74440 0.54490 0.32000 0.00200
C 	C 	0.78000 0.58160 0.32250 -0.11700
H 	H 	0.76990 0.59160 0.34220 0.07900
C 	C 	0.26420 0.05410 0.30950 0.05300
H 	H 	0.24440 0.04490 0.32000 0.00200
C 	C 	0.28000 0.08160 0.32250 -0.11700
H 	H 	0.26990 0.09160 0.34220 0.07900
C 	C 	0.26420 0.55410 0.80950 0.05300
H 	H 	0.24440 0.54490 0.82000 0.00200
C 	C 	0.28000 0.58160 0.82250 -0.11700
H 	H 	0.26990 0.59160 0.84220 0.08000
C 	C 	0.23580 0.94590 0.80950 0.05300
H 	H 	0.25560 0.95510 0.82000 0.00300
C 	C 	0.22000 0.91840 0.82250 -0.11700
H 	H 	0.23010 0.90840 0.84220 0.08000
C 	C 	0.23580 0.44590 0.30950 0.05300
H 	H 	0.25560 0.45510 0.32000 0.00200
C 	C 	0.22000 0.41840 0.32250 -0.11700
H 	H 	0.23010 0.40840 0.34220 0.07900
C 	C 	0.73580 0.94590 0.30950 0.05300
H 	H 	0.75560 0.95510 0.32000 0.00300
C 	C 	0.72000 0.91840 0.32250 -0.11700
H 	H 	0.73010 0.90840 0.34220 0.08000
C 	C 	0.73580 0.44590 0.80950 0.05300
H 	H 	0.75560 0.45510 0.82000 0.00200
C 	C 	0.72000 0.41840 0.82250 -0.11700
H 	H 	0.73010 0.40840 0.84220 0.08000
C 	C 	0.76420 0.94590 0.19050 0.05300
H 	H 	0.74440 0.95510 0.18000 0.00300
C 	C 	0.78000 0.91840 0.17750 -0.11700
H 	H 	0.76990 0.90840 0.15780 0.08000
C 	C 	0.76420 0.44590 0.69050 0.05300
H 	H 	0.74440 0.45510 0.68000 0.00200
C 	C 	0.78000 0.41840 0.67750 -0.11700
H 	H 	0.76990 0.40840 0.65780 0.07900
C 	C 	0.26420 0.94590 0.69050 0.05300
H 	H 	0.24440 0.95510 0.68000 0.00300
C 	C 	0.28000 0.91840 0.67750 -0.11700
H 	H 	0.26990 0.90840 0.65780 0.08000
C 	C 	0.26420 0.44590 0.19050 0.05300
H 	H 	0.24440 0.45510 0.18000 0.00200
C 	C 	0.28000 0.41840 0.17750 -0.11700
H 	H 	0.26990 0.40840 0.15780 0.07900
C 	C 	0.23580 0.19050 0.94590 0.05300
H 	H 	0.25560 0.18000 0.95510 0.00300
C 	C 	0.22000 0.17750 0.91840 -0.11700
H 	H 	0.23010 0.15780 0.90840 0.07900
C 	C 	0.23580 0.69050 0.44590 0.05300
H 	H 	0.25560 0.68000 0.45510 0.00200
C 	C 	0.22000 0.67750 0.41840 -0.11700
H 	H 	0.23010 0.65780 0.40840 0.07900
C 	C 	0.73580 0.19050 0.44590 0.05300
H 	H 	0.75560 0.18000 0.45510 0.00200
C 	C 	0.72000 0.17750 0.41840 -0.11700
H 	H 	0.73010 0.15780 0.40840 0.07900
C 	C 	0.73580 0.69050 0.94590 0.05300
H 	H 	0.75560 0.68000 0.95510 0.00300
C 	C 	0.72000 0.67750 0.91840 -0.11700
H 	H 	0.73010 0.65780 0.90840 0.08000
C 	C 	0.76420 0.80950 0.94590 0.05400
H 	H 	0.74440 0.82000 0.95510 0.00300
C 	C 	0.78000 0.82250 0.91840 -0.11700
H 	H 	0.76990 0.84220 0.90840 0.08000
C 	C 	0.76420 0.30950 0.44590 0.05300
H 	H 	0.74440 0.32000 0.45510 0.00200
C 	C 	0.78000 0.32250 0.41840 -0.11700
H 	H 	0.76990 0.34220 0.40840 0.07900
C 	C 	0.26420 0.80950 0.44590 0.05300
H 	H 	0.24440 0.82000 0.45510 0.00200
C 	C 	0.28000 0.82250 0.41840 -0.11700
H 	H 	0.26990 0.84220 0.40840 0.08000
C 	C 	0.26420 0.30950 0.94590 0.05300
H 	H 	0.24440 0.32000 0.95510 0.00300
C 	C 	0.28000 0.32250 0.91840 -0.11700
H 	H 	0.26990 0.34220 0.90840 0.08000
C 	C 	0.23580 0.80950 0.05410 0.05300
H 	H 	0.25560 0.82000 0.04490 0.00200
C 	C 	0.22000 0.82250 0.08160 -0.11700
H 	H 	0.23010 0.84220 0.09160 0.07900
C 	C 	0.23580 0.30950 0.55410 0.05300
H 	H 	0.25560 0.32000 0.54490 0.00200
C 	C 	0.22000 0.32250 0.58160 -0.11700
H 	H 	0.23010 0.34220 0.59160 0.07900
C 	C 	0.73580 0.80950 0.55410 0.05300
H 	H 	0.75560 0.82000 0.54490 0.00200
C 	C 	0.72000 0.82250 0.58160 -0.11700
H 	H 	0.73010 0.84220 0.59160 0.08000
C 	C 	0.73580 0.30950 0.05410 0.05300
H 	H 	0.75560 0.32000 0.04490 0.00200
C 	C 	0.72000 0.32250 0.08160 -0.11700
H 	H 	0.73010 0.34220 0.09160 0.07900
C 	C 	0.76420 0.19050 0.05410 0.05300
H 	H 	0.74440 0.18000 0.04490 0.00200
C 	C 	0.78000 0.17750 0.08160 -0.11700
H 	H 	0.76990 0.15780 0.09160 0.07900
C 	C 	0.76420 0.69050 0.55410 0.05300
H 	H 	0.74440 0.68000 0.54490 0.00200
C 	C 	0.78000 0.67750 0.58160 -0.11700
H 	H 	0.76990 0.65780 0.59160 0.07900
C 	C 	0.26420 0.19050 0.55410 0.05300
H 	H 	0.24440 0.18000 0.54490 0.00200
C 	C 	0.28000 0.17750 0.58160 -0.11700
H 	H 	0.26990 0.15780 0.59160 0.07900
C 	C 	0.26420 0.69050 0.05410 0.05300
H 	H 	0.24440 0.68000 0.04490 0.00200
C 	C 	0.28000 0.67750 0.08160 -0.11700
H 	H 	0.26990 0.65780 0.09160 0.07900
C 	C 	0.19050 0.05410 0.76420 0.05300
H 	H 	0.18000 0.04490 0.74440 0.00200
C 	C 	0.17750 0.08160 0.78000 -0.11700
H 	H 	0.15780 0.09160 0.76990 0.07900
C 	C 	0.19050 0.55410 0.26420 0.05300
H 	H 	0.18000 0.54490 0.24440 0.00200
C 	C 	0.17750 0.58160 0.28000 -0.11700
H 	H 	0.15780 0.59160 0.26990 0.07900
C 	C 	0.69050 0.05410 0.26420 0.05300
H 	H 	0.68000 0.04490 0.24440 0.00200
C 	C 	0.67750 0.08160 0.28000 -0.11700
H 	H 	0.65780 0.09160 0.26990 0.07900
C 	C 	0.69050 0.55410 0.76420 0.05300
H 	H 	0.68000 0.54490 0.74440 0.00200
C 	C 	0.67750 0.58160 0.78000 -0.11700
H 	H 	0.65780 0.59160 0.76990 0.07900
C 	C 	0.80950 0.05410 0.23580 0.05300
H 	H 	0.82000 0.04490 0.25560 0.00200
C 	C 	0.82250 0.08160 0.22000 -0.11700
H 	H 	0.84220 0.09160 0.23010 0.07900
C 	C 	0.80950 0.55410 0.73580 0.05300
H 	H 	0.82000 0.54490 0.75560 0.00200
C 	C 	0.82250 0.58160 0.72000 -0.11700
H 	H 	0.84220 0.59160 0.73010 0.08000
C 	C 	0.30950 0.05410 0.73580 0.05300
H 	H 	0.32000 0.04490 0.75560 0.00200
C 	C 	0.32250 0.08160 0.72000 -0.11700
H 	H 	0.34220 0.09160 0.73010 0.07900
C 	C 	0.30950 0.55410 0.23580 0.05300
H 	H 	0.32000 0.54490 0.25560 0.00200
C 	C 	0.32250 0.58160 0.22000 -0.11700
H 	H 	0.34220 0.59160 0.23010 0.07900
C 	C 	0.80950 0.94590 0.76420 0.05400
H 	H 	0.82000 0.95510 0.74440 0.00300
C 	C 	0.82250 0.91840 0.78000 -0.11700
H 	H 	0.84220 0.90840 0.76990 0.08000
C 	C 	0.80950 0.44590 0.26420 0.05300
H 	H 	0.82000 0.45510 0.24440 0.00200
C 	C 	0.82250 0.41840 0.28000 -0.11700
H 	H 	0.84220 0.40840 0.26990 0.08000
C 	C 	0.30950 0.94590 0.26420 0.05300
H 	H 	0.32000 0.95510 0.24440 0.00300
C 	C 	0.32250 0.91840 0.28000 -0.11700
H 	H 	0.34220 0.90840 0.26990 0.08000
C 	C 	0.30950 0.44590 0.76420 0.05300
H 	H 	0.32000 0.45510 0.74440 0.00200
C 	C 	0.32250 0.41840 0.78000 -0.11700
H 	H 	0.34220 0.40840 0.76990 0.07900
C 	C 	0.19050 0.94590 0.23580 0.05300
H 	H 	0.18000 0.95510 0.25560 0.00300
C 	C 	0.17750 0.91840 0.22000 -0.11700
H 	H 	0.15780 0.90840 0.23010 0.07900
C 	C 	0.19050 0.44590 0.73580 0.05300
H 	H 	0.18000 0.45510 0.75560 0.00200
C 	C 	0.17750 0.41840 0.72000 -0.11700
H 	H 	0.15780 0.40840 0.73010 0.07900
C 	C 	0.69050 0.94590 0.73580 0.05300
H 	H 	0.68000 0.95510 0.75560 0.00300
C 	C 	0.67750 0.91840 0.72000 -0.11700
H 	H 	0.65780 0.90840 0.73010 0.08000
C 	C 	0.69050 0.44590 0.23580 0.05300
H 	H 	0.68000 0.45510 0.25560 0.00200
C 	C 	0.67750 0.41840 0.22000 -0.11700
H 	H 	0.65780 0.40840 0.23010 0.07900
C 	C 	0.05410 0.23580 0.80950 0.05300
H 	H 	0.04490 0.25560 0.82000 0.00200
C 	C 	0.08160 0.22000 0.82250 -0.11700
H 	H 	0.09160 0.23010 0.84220 0.07900
C 	C 	0.05410 0.73580 0.30950 0.05300
H 	H 	0.04490 0.75560 0.32000 0.00200
C 	C 	0.08160 0.72000 0.32250 -0.11700
H 	H 	0.09160 0.73010 0.34220 0.07900
C 	C 	0.55410 0.23580 0.30950 0.05300
H 	H 	0.54490 0.25560 0.32000 0.00200
C 	C 	0.58160 0.22000 0.32250 -0.11700
H 	H 	0.59160 0.23010 0.34220 0.07900
C 	C 	0.55410 0.73580 0.80950 0.05300
H 	H 	0.54490 0.75560 0.82000 0.00200
C 	C 	0.58160 0.72000 0.82250 -0.11700
H 	H 	0.59160 0.73010 0.84220 0.08000
C 	C 	0.05410 0.76420 0.19050 0.05300
H 	H 	0.04490 0.74440 0.18000 0.00200
C 	C 	0.08160 0.78000 0.17750 -0.11700
H 	H 	0.09160 0.76990 0.15780 0.07900
C 	C 	0.05410 0.26420 0.69050 0.05300
H 	H 	0.04490 0.24440 0.68000 0.00200
C 	C 	0.08160 0.28000 0.67750 -0.11700
H 	H 	0.09160 0.26990 0.65780 0.07900
C 	C 	0.55410 0.76420 0.69050 0.05300
H 	H 	0.54490 0.74440 0.68000 0.00200
C 	C 	0.58160 0.78000 0.67750 -0.11700
H 	H 	0.59160 0.76990 0.65780 0.07900
C 	C 	0.55410 0.26420 0.19050 0.05300
H 	H 	0.54490 0.24440 0.18000 0.00200
C 	C 	0.58160 0.28000 0.17750 -0.11700
H 	H 	0.59160 0.26990 0.15780 0.07900
C 	C 	0.94590 0.23580 0.19050 0.05300
H 	H 	0.95510 0.25560 0.18000 0.00300
C 	C 	0.91840 0.22000 0.17750 -0.11700
H 	H 	0.90840 0.23010 0.15780 0.07900
C 	C 	0.94590 0.73580 0.69050 0.05300
H 	H 	0.95510 0.75560 0.68000 0.00300
C 	C 	0.91840 0.72000 0.67750 -0.11700
H 	H 	0.90840 0.73010 0.65780 0.08000
C 	C 	0.44590 0.23580 0.69050 0.05300
H 	H 	0.45510 0.25560 0.68000 0.00200
C 	C 	0.41840 0.22000 0.67750 -0.11700
H 	H 	0.40840 0.23010 0.65780 0.07900
C 	C 	0.44590 0.73580 0.19050 0.05300
H 	H 	0.45510 0.75560 0.18000 0.00200
C 	C 	0.41840 0.72000 0.17750 -0.11700
H 	H 	0.40840 0.73010 0.15780 0.07900
C 	C 	0.94590 0.76420 0.80950 0.05400
H 	H 	0.95510 0.74440 0.82000 0.00300
C 	C 	0.91840 0.78000 0.82250 -0.11700
H 	H 	0.90840 0.76990 0.84220 0.08000
C 	C 	0.94590 0.26420 0.30950 0.05300
H 	H 	0.95510 0.24440 0.32000 0.00300
C 	C 	0.91840 0.28000 0.32250 -0.11700
H 	H 	0.90840 0.26990 0.34220 0.08000
C 	C 	0.44590 0.76420 0.30950 0.05300
H 	H 	0.45510 0.74440 0.32000 0.00200
C 	C 	0.41840 0.78000 0.32250 -0.11700
H 	H 	0.40840 0.76990 0.34220 0.07900
C 	C 	0.44590 0.26420 0.80950 0.05300
H 	H 	0.45510 0.24440 0.82000 0.00200
C 	C 	0.41840 0.28000 0.82250 -0.11700
H 	H 	0.40840 0.26990 0.84220 0.08000
C 	C 	0.80950 0.76420 0.94590 0.05400
H 	H 	0.82000 0.74440 0.95510 0.00300
C 	C 	0.82250 0.78000 0.91840 -0.11700
H 	H 	0.84220 0.76990 0.90840 0.08000
C 	C 	0.80950 0.26420 0.44590 0.05300
H 	H 	0.82000 0.24440 0.45510 0.00200
C 	C 	0.82250 0.28000 0.41840 -0.11700
H 	H 	0.84220 0.26990 0.40840 0.08000
C 	C 	0.30950 0.76420 0.44590 0.05300
H 	H 	0.32000 0.74440 0.45510 0.00200
C 	C 	0.32250 0.78000 0.41840 -0.11700
H 	H 	0.34220 0.76990 0.40840 0.07900
C 	C 	0.30950 0.26420 0.94590 0.05300
H 	H 	0.32000 0.24440 0.95510 0.00300
C 	C 	0.32250 0.28000 0.91840 -0.11700
H 	H 	0.34220 0.26990 0.90840 0.08000
C 	C 	0.19050 0.23580 0.94590 0.05300
H 	H 	0.18000 0.25560 0.95510 0.00300
C 	C 	0.17750 0.22000 0.91840 -0.11700
H 	H 	0.15780 0.23010 0.90840 0.07900
C 	C 	0.19050 0.73580 0.44590 0.05300
H 	H 	0.18000 0.75560 0.45510 0.00200
C 	C 	0.17750 0.72000 0.41840 -0.11700
H 	H 	0.15780 0.73010 0.40840 0.07900
C 	C 	0.69050 0.23580 0.44590 0.05300
H 	H 	0.68000 0.25560 0.45510 0.00200
C 	C 	0.67750 0.22000 0.41840 -0.11700
H 	H 	0.65780 0.23010 0.40840 0.07900
C 	C 	0.69050 0.73580 0.94590 0.05300
H 	H 	0.68000 0.75560 0.95510 0.00300
C 	C 	0.67750 0.72000 0.91840 -0.11700
H 	H 	0.65780 0.73010 0.90840 0.08000
C 	C 	0.19050 0.76420 0.05410 0.05300
H 	H 	0.18000 0.74440 0.04490 0.00200
C 	C 	0.17750 0.78000 0.08160 -0.11700
H 	H 	0.15780 0.76990 0.09160 0.07900
C 	C 	0.19050 0.26420 0.55410 0.05300
H 	H 	0.18000 0.24440 0.54490 0.00200
C 	C 	0.17750 0.28000 0.58160 -0.11700
H 	H 	0.15780 0.26990 0.59160 0.07900
C 	C 	0.69050 0.76420 0.55410 0.05300
H 	H 	0.68000 0.74440 0.54490 0.00200
C 	C 	0.67750 0.78000 0.58160 -0.11700
H 	H 	0.65780 0.76990 0.59160 0.07900
C 	C 	0.69050 0.26420 0.05410 0.05300
H 	H 	0.68000 0.24440 0.04490 0.00200
C 	C 	0.67750 0.28000 0.08160 -0.11700
H 	H 	0.65780 0.26990 0.09160 0.07900
C 	C 	0.80950 0.23580 0.05410 0.05300
H 	H 	0.82000 0.25560 0.04490 0.00200
C 	C 	0.82250 0.22000 0.08160 -0.11700
H 	H 	0.84220 0.23010 0.09160 0.07900
C 	C 	0.80950 0.73580 0.55410 0.05300
H 	H 	0.82000 0.75560 0.54490 0.00200
C 	C 	0.82250 0.72000 0.58160 -0.11700
H 	H 	0.84220 0.73010 0.59160 0.08000
C 	C 	0.30950 0.23580 0.55410 0.05300
H 	H 	0.32000 0.25560 0.54490 0.00200
C 	C 	0.32250 0.22000 0.58160 -0.11700
H 	H 	0.34220 0.23010 0.59160 0.07900
C 	C 	0.30950 0.73580 0.05410 0.05300
H 	H 	0.32000 0.75560 0.04490 0.00200
C 	C 	0.32250 0.72000 0.08160 -0.11700
H 	H 	0.34220 0.73010 0.09160 0.07900
C 	C 	0.94590 0.80950 0.76420 0.05400
H 	H 	0.95510 0.82000 0.74440 0.00300
C 	C 	0.91840 0.82250 0.78000 -0.11700
H 	H 	0.90840 0.84220 0.76990 0.08000
C 	C 	0.94590 0.30950 0.26420 0.05300
H 	H 	0.95510 0.32000 0.24440 0.00300
C 	C 	0.91840 0.32250 0.28000 -0.11700
H 	H 	0.90840 0.34220 0.26990 0.08000
C 	C 	0.44590 0.80950 0.26420 0.05300
H 	H 	0.45510 0.82000 0.24440 0.00200
C 	C 	0.41840 0.82250 0.28000 -0.11700
H 	H 	0.40840 0.84220 0.26990 0.08000
C 	C 	0.44590 0.30950 0.76420 0.05300
H 	H 	0.45510 0.32000 0.74440 0.00200
C 	C 	0.41840 0.32250 0.78000 -0.11700
H 	H 	0.40840 0.34220 0.76990 0.07900
C 	C 	0.94590 0.19050 0.23580 0.05300
H 	H 	0.95510 0.18000 0.25560 0.00300
C 	C 	0.91840 0.17750 0.22000 -0.11700
H 	H 	0.90840 0.15780 0.23010 0.07900
C 	C 	0.94590 0.69050 0.73580 0.05300
H 	H 	0.95510 0.68000 0.75560 0.00300
C 	C 	0.91840 0.67750 0.72000 -0.11700
H 	H 	0.90840 0.65780 0.73010 0.08000
C 	C 	0.44590 0.19050 0.73580 0.05300
H 	H 	0.45510 0.18000 0.75560 0.00200
C 	C 	0.41840 0.17750 0.72000 -0.11700
H 	H 	0.40840 0.15780 0.73010 0.07900
C 	C 	0.44590 0.69050 0.23580 0.05300
H 	H 	0.45510 0.68000 0.25560 0.00200
C 	C 	0.41840 0.67750 0.22000 -0.11700
H 	H 	0.40840 0.65780 0.23010 0.07900
C 	C 	0.05410 0.19050 0.76420 0.05300
H 	H 	0.04490 0.18000 0.74440 0.00200
C 	C 	0.08160 0.17750 0.78000 -0.11700
H 	H 	0.09160 0.15780 0.76990 0.07900
C 	C 	0.05410 0.69050 0.26420 0.05300
H 	H 	0.04490 0.68000 0.24440 0.00200
C 	C 	0.08160 0.67750 0.28000 -0.11700
H 	H 	0.09160 0.65780 0.26990 0.07900
C 	C 	0.55410 0.19050 0.26420 0.05300
H 	H 	0.54490 0.18000 0.24440 0.00200
C 	C 	0.58160 0.17750 0.28000 -0.11700
H 	H 	0.59160 0.15780 0.26990 0.07900
C 	C 	0.55410 0.69050 0.76420 0.05300
H 	H 	0.54490 0.68000 0.74440 0.00200
C 	C 	0.58160 0.67750 0.78000 -0.11700
H 	H 	0.59160 0.65780 0.76990 0.07900
C 	C 	0.05410 0.80950 0.23580 0.05300
H 	H 	0.04490 0.82000 0.25560 0.00200
C 	C 	0.08160 0.82250 0.22000 -0.11700
H 	H 	0.09160 0.84220 0.23010 0.07900
C 	C 	0.05410 0.30950 0.73580 0.05300
H 	H 	0.04490 0.32000 0.75560 0.00200
C 	C 	0.08160 0.32250 0.72000 -0.11700
H 	H 	0.09160 0.34220 0.73010 0.07900
C 	C 	0.55410 0.80950 0.73580 0.05300
H 	H 	0.54490 0.82000 0.75560 0.00200
C 	C 	0.58160 0.82250 0.72000 -0.11700
H 	H 	0.59160 0.84220 0.73010 0.08000
C 	C 	0.55410 0.30950 0.23580 0.05300
H 	H 	0.54490 0.32000 0.25560 0.00200
C 	C 	0.58160 0.32250 0.22000 -0.11700
H 	H 	0.59160 0.34220 0.23010 0.07900
C 	C 	0.76420 0.94590 0.80950 0.05400
H 	H 	0.74440 0.95510 0.82000 0.00300
C 	C 	0.78000 0.91840 0.82250 -0.11700
H 	H 	0.76990 0.90840 0.84220 0.08000
C 	C 	0.76420 0.44590 0.30950 0.05300
H 	H 	0.74440 0.45510 0.32000 0.00200
C 	C 	0.78000 0.41840 0.32250 -0.11700
H 	H 	0.76990 0.40840 0.34220 0.07900
C 	C 	0.26420 0.94590 0.30950 0.05300
H 	H 	0.24440 0.95510 0.32000 0.00300
C 	C 	0.28000 0.91840 0.32250 -0.11700
H 	H 	0.26990 0.90840 0.34220 0.08000
C 	C 	0.26420 0.44590 0.80950 0.05300
H 	H 	0.24440 0.45510 0.82000 0.00200
C 	C 	0.28000 0.41840 0.82250 -0.11700
H 	H 	0.26990 0.40840 0.84220 0.08000
C 	C 	0.23580 0.94590 0.19050 0.05300
H 	H 	0.25560 0.95510 0.18000 0.00300
C 	C 	0.22000 0.91840 0.17750 -0.11700
H 	H 	0.23010 0.90840 0.15780 0.07900
C 	C 	0.23580 0.44590 0.69050 0.05300
H 	H 	0.25560 0.45510 0.68000 0.00200
C 	C 	0.22000 0.41840 0.67750 -0.11700
H 	H 	0.23010 0.40840 0.65780 0.07900
C 	C 	0.73580 0.94590 0.69050 0.05300
H 	H 	0.75560 0.95510 0.68000 0.00300
C 	C 	0.72000 0.91840 0.67750 -0.11700
H 	H 	0.73010 0.90840 0.65780 0.08000
C 	C 	0.73580 0.44590 0.19050 0.05300
H 	H 	0.75560 0.45510 0.18000 0.00200
C 	C 	0.72000 0.41840 0.17750 -0.11700
H 	H 	0.73010 0.40840 0.15780 0.07900
C 	C 	0.76420 0.05410 0.19050 0.05300
H 	H 	0.74440 0.04490 0.18000 0.00200
C 	C 	0.78000 0.08160 0.17750 -0.11700
H 	H 	0.76990 0.09160 0.15780 0.07900
C 	C 	0.76420 0.55410 0.69050 0.05300
H 	H 	0.74440 0.54490 0.68000 0.00200
C 	C 	0.78000 0.58160 0.67750 -0.11700
H 	H 	0.76990 0.59160 0.65780 0.07900
C 	C 	0.26420 0.05410 0.69050 0.05300
H 	H 	0.24440 0.04490 0.68000 0.00200
C 	C 	0.28000 0.08160 0.67750 -0.11700
H 	H 	0.26990 0.09160 0.65780 0.07900
C 	C 	0.26420 0.55410 0.19050 0.05300
H 	H 	0.24440 0.54490 0.18000 0.00200
C 	C 	0.28000 0.58160 0.17750 -0.11700
H 	H 	0.26990 0.59160 0.15780 0.07900
C 	C 	0.23580 0.05410 0.80950 0.05300
H 	H 	0.25560 0.04490 0.82000 0.00200
C 	C 	0.22000 0.08160 0.82250 -0.11700
H 	H 	0.23010 0.09160 0.84220 0.07900
C 	C 	0.23580 0.55410 0.30950 0.05300
H 	H 	0.25560 0.54490 0.32000 0.00200
C 	C 	0.22000 0.58160 0.32250 -0.11700
H 	H 	0.23010 0.59160 0.34220 0.07900
C 	C 	0.73580 0.05410 0.30950 0.05300
H 	H 	0.75560 0.04490 0.32000 0.00200
C 	C 	0.72000 0.08160 0.32250 -0.11700
H 	H 	0.73010 0.09160 0.34220 0.07900
C 	C 	0.73580 0.55410 0.80950 0.05300
H 	H 	0.75560 0.54490 0.82000 0.00200
C 	C 	0.72000 0.58160 0.82250 -0.11700
H 	H 	0.73010 0.59160 0.84220 0.08000
C 	C 	0.76420 0.80950 0.05410 0.05300
H 	H 	0.74440 0.82000 0.04490 0.00200
C 	C 	0.78000 0.82250 0.08160 -0.11700
H 	H 	0.76990 0.84220 0.09160 0.07900
C 	C 	0.76420 0.30950 0.55410 0.05300
H 	H 	0.74440 0.32000 0.54490 0.00200
C 	C 	0.78000 0.32250 0.58160 -0.11700
H 	H 	0.76990 0.34220 0.59160 0.07900
C 	C 	0.26420 0.80950 0.55410 0.05300
H 	H 	0.24440 0.82000 0.54490 0.00200
C 	C 	0.28000 0.82250 0.58160 -0.11700
H 	H 	0.26990 0.84220 0.59160 0.08000
C 	C 	0.26420 0.30950 0.05410 0.05300
H 	H 	0.24440 0.32000 0.04490 0.00200
C 	C 	0.28000 0.32250 0.08160 -0.11700
H 	H 	0.26990 0.34220 0.09160 0.07900
C 	C 	0.23580 0.19050 0.05410 0.05300
H 	H 	0.25560 0.18000 0.04490 0.00200
C 	C 	0.22000 0.17750 0.08160 -0.11700
H 	H 	0.23010 0.15780 0.09160 0.07900
C 	C 	0.23580 0.69050 0.55410 0.05300
H 	H 	0.25560 0.68000 0.54490 0.00200
C 	C 	0.22000 0.67750 0.58160 -0.11700
H 	H 	0.23010 0.65780 0.59160 0.07900
C 	C 	0.73580 0.19050 0.55410 0.05300
H 	H 	0.75560 0.18000 0.54490 0.00200
C 	C 	0.72000 0.17750 0.58160 -0.11700
H 	H 	0.73010 0.15780 0.59160 0.07900
C 	C 	0.73580 0.69050 0.05410 0.05300
H 	H 	0.75560 0.68000 0.04490 0.00200
C 	C 	0.72000 0.67750 0.08160 -0.11700
H 	H 	0.73010 0.65780 0.09160 0.07900
C 	C 	0.76420 0.19050 0.94590 0.05300
H 	H 	0.74440 0.18000 0.95510 0.00300
C 	C 	0.78000 0.17750 0.91840 -0.11700
H 	H 	0.76990 0.15780 0.90840 0.08000
C 	C 	0.76420 0.69050 0.44590 0.05300
H 	H 	0.74440 0.68000 0.45510 0.00200
C 	C 	0.78000 0.67750 0.41840 -0.11700
H 	H 	0.76990 0.65780 0.40840 0.07900
C 	C 	0.26420 0.19050 0.44590 0.05300
H 	H 	0.24440 0.18000 0.45510 0.00200
C 	C 	0.28000 0.17750 0.41840 -0.11700
H 	H 	0.26990 0.15780 0.40840 0.07900
C 	C 	0.26420 0.69050 0.94590 0.05300
H 	H 	0.24440 0.68000 0.95510 0.00300
C 	C 	0.28000 0.67750 0.91840 -0.11700
H 	H 	0.26990 0.65780 0.90840 0.08000
C 	C 	0.23580 0.80950 0.94590 0.05300
H 	H 	0.25560 0.82000 0.95510 0.00300
C 	C 	0.22000 0.82250 0.91840 -0.11700
H 	H 	0.23010 0.84220 0.90840 0.08000
C 	C 	0.23580 0.30950 0.44590 0.05300
H 	H 	0.25560 0.32000 0.45510 0.00200
C 	C 	0.22000 0.32250 0.41840 -0.11700
H 	H 	0.23010 0.34220 0.40840 0.07900
C 	C 	0.73580 0.80950 0.44590 0.05300
H 	H 	0.75560 0.82000 0.45510 0.00200
C 	C 	0.72000 0.82250 0.41840 -0.11700
H 	H 	0.73010 0.84220 0.40840 0.08000
C 	C 	0.73580 0.30950 0.94590 0.05300
H 	H 	0.75560 0.32000 0.95510 0.00300
C 	C 	0.72000 0.32250 0.91840 -0.11700
H 	H 	0.73010 0.34220 0.90840 0.08000
C 	C 	0.80950 0.94590 0.23580 0.05300
H 	H 	0.82000 0.95510 0.25560 0.00300
C 	C 	0.82250 0.91840 0.22000 -0.11700
H 	H 	0.84220 0.90840 0.23010 0.08000
C 	C 	0.80950 0.44590 0.73580 0.05300
H 	H 	0.82000 0.45510 0.75560 0.00200
C 	C 	0.82250 0.41840 0.72000 -0.11700
H 	H 	0.84220 0.40840 0.73010 0.08000
C 	C 	0.30950 0.94590 0.73580 0.05300
H 	H 	0.32000 0.95510 0.75560 0.00300
C 	C 	0.32250 0.91840 0.72000 -0.11700
H 	H 	0.34220 0.90840 0.73010 0.08000
C 	C 	0.30950 0.44590 0.23580 0.05300
H 	H 	0.32000 0.45510 0.25560 0.00200
C 	C 	0.32250 0.41840 0.22000 -0.11700
H 	H 	0.34220 0.40840 0.23010 0.07900
C 	C 	0.19050 0.94590 0.76420 0.05300
H 	H 	0.18000 0.95510 0.74440 0.00300
C 	C 	0.17750 0.91840 0.78000 -0.11700
H 	H 	0.15780 0.90840 0.76990 0.08000
C 	C 	0.19050 0.44590 0.26420 0.05300
H 	H 	0.18000 0.45510 0.24440 0.00200
C 	C 	0.17750 0.41840 0.28000 -0.11700
H 	H 	0.15780 0.40840 0.26990 0.07900
C 	C 	0.69050 0.94590 0.26420 0.05300
H 	H 	0.68000 0.95510 0.24440 0.00300
C 	C 	0.67750 0.91840 0.28000 -0.11700
H 	H 	0.65780 0.90840 0.26990 0.08000
C 	C 	0.69050 0.44590 0.76420 0.05300
H 	H 	0.68000 0.45510 0.74440 0.00200
C 	C 	0.67750 0.41840 0.78000 -0.11700
H 	H 	0.65780 0.40840 0.76990 0.07900
C 	C 	0.19050 0.05410 0.23580 0.05300
H 	H 	0.18000 0.04490 0.25560 0.00200
C 	C 	0.17750 0.08160 0.22000 -0.11700
H 	H 	0.15780 0.09160 0.23010 0.07900
C 	C 	0.19050 0.55410 0.73580 0.05300
H 	H 	0.18000 0.54490 0.75560 0.00200
C 	C 	0.17750 0.58160 0.72000 -0.11700
H 	H 	0.15780 0.59160 0.73010 0.07900
C 	C 	0.69050 0.05410 0.73580 0.05300
H 	H 	0.68000 0.04490 0.75560 0.00200
C 	C 	0.67750 0.08160 0.72000 -0.11700
H 	H 	0.65780 0.09160 0.73010 0.07900
C 	C 	0.69050 0.55410 0.23580 0.05300
H 	H 	0.68000 0.54490 0.25560 0.00200
C 	C 	0.67750 0.58160 0.22000 -0.11700
H 	H 	0.65780 0.59160 0.23010 0.07900
C 	C 	0.80950 0.05410 0.76420 0.05300
H 	H 	0.82000 0.04490 0.74440 0.00200
C 	C 	0.82250 0.08160 0.78000 -0.11700
H 	H 	0.84220 0.09160 0.76990 0.07900
C 	C 	0.80950 0.55410 0.26420 0.05300
H 	H 	0.82000 0.54490 0.24440 0.00200
C 	C 	0.82250 0.58160 0.28000 -0.11700
H 	H 	0.84220 0.59160 0.26990 0.08000
C 	C 	0.30950 0.05410 0.26420 0.05300
H 	H 	0.32000 0.04490 0.24440 0.00200
C 	C 	0.32250 0.08160 0.28000 -0.11700
H 	H 	0.34220 0.09160 0.26990 0.07900
C 	C 	0.30950 0.55410 0.76420 0.05300
H 	H 	0.32000 0.54490 0.74440 0.00200
C 	C 	0.32250 0.58160 0.78000 -0.11700
H 	H 	0.34220 0.59160 0.76990 0.07900
C 	C 	0.94590 0.76420 0.19050 0.05300
H 	H 	0.95510 0.74440 0.18000 0.00300
C 	C 	0.91840 0.78000 0.17750 -0.11700
H 	H 	0.90840 0.76990 0.15780 0.08000
C 	C 	0.94590 0.26420 0.69050 0.05300
H 	H 	0.95510 0.24440 0.68000 0.00300
C 	C 	0.91840 0.28000 0.67750 -0.11700
H 	H 	0.90840 0.26990 0.65780 0.08000
C 	C 	0.44590 0.76420 0.69050 0.05300
H 	H 	0.45510 0.74440 0.68000 0.00200
C 	C 	0.41840 0.78000 0.67750 -0.11700
H 	H 	0.40840 0.76990 0.65780 0.07900
C 	C 	0.44590 0.26420 0.19050 0.05300
H 	H 	0.45510 0.24440 0.18000 0.00200
C 	C 	0.41840 0.28000 0.17750 -0.11700
H 	H 	0.40840 0.26990 0.15780 0.07900
C 	C 	0.94590 0.23580 0.80950 0.05300
H 	H 	0.95510 0.25560 0.82000 0.00300
C 	C 	0.91840 0.22000 0.82250 -0.11700
H 	H 	0.90840 0.23010 0.84220 0.08000
C 	C 	0.94590 0.73580 0.30950 0.05300
H 	H 	0.95510 0.75560 0.32000 0.00300
C 	C 	0.91840 0.72000 0.32250 -0.11700
H 	H 	0.90840 0.73010 0.34220 0.08000
C 	C 	0.44590 0.23580 0.30950 0.05300
H 	H 	0.45510 0.25560 0.32000 0.00200
C 	C 	0.41840 0.22000 0.32250 -0.11700
H 	H 	0.40840 0.23010 0.34220 0.07900
C 	C 	0.44590 0.73580 0.80950 0.05300
H 	H 	0.45510 0.75560 0.82000 0.00200
C 	C 	0.41840 0.72000 0.82250 -0.11700
H 	H 	0.40840 0.73010 0.84220 0.08000
C 	C 	0.05410 0.76420 0.80950 0.05300
H 	H 	0.04490 0.74440 0.82000 0.00200
C 	C 	0.08160 0.78000 0.82250 -0.11700
H 	H 	0.09160 0.76990 0.84220 0.07900
C 	C 	0.05410 0.26420 0.30950 0.05300
H 	H 	0.04490 0.24440 0.32000 0.00200
C 	C 	0.08160 0.28000 0.32250 -0.11700
H 	H 	0.09160 0.26990 0.34220 0.07900
C 	C 	0.55410 0.76420 0.30950 0.05300
H 	H 	0.54490 0.74440 0.32000 0.00200
C 	C 	0.58160 0.78000 0.32250 -0.11700
H 	H 	0.59160 0.76990 0.34220 0.07900
C 	C 	0.55410 0.26420 0.80950 0.05300
H 	H 	0.54490 0.24440 0.82000 0.00200
C 	C 	0.58160 0.28000 0.82250 -0.11700
H 	H 	0.59160 0.26990 0.84220 0.08000
C 	C 	0.05410 0.23580 0.19050 0.05300
H 	H 	0.04490 0.25560 0.18000 0.00200
C 	C 	0.08160 0.22000 0.17750 -0.11700
H 	H 	0.09160 0.23010 0.15780 0.07900
C 	C 	0.05410 0.73580 0.69050 0.05300
H 	H 	0.04490 0.75560 0.68000 0.00200
C 	C 	0.08160 0.72000 0.67750 -0.11700
H 	H 	0.09160 0.73010 0.65780 0.07900
C 	C 	0.55410 0.23580 0.69050 0.05300
H 	H 	0.54490 0.25560 0.68000 0.00200
C 	C 	0.58160 0.22000 0.67750 -0.11700
H 	H 	0.59160 0.23010 0.65780 0.07900
C 	C 	0.55410 0.73580 0.19050 0.05300
H 	H 	0.54490 0.75560 0.18000 0.00200
C 	C 	0.58160 0.72000 0.17750 -0.11700
H 	H 	0.59160 0.73010 0.15780 0.07900
Fe	Fe	0.25000 0.25000 -0.00000 1.12700
Fe	Fe	0.25000 0.75000 0.50000 1.12800
Fe	Fe	0.75000 0.75000 -0.00000 1.12700
Fe	Fe	0.75000 0.25000 0.50000 1.12800
Fe	Fe	0.75000 0.25000 -0.00000 1.12700
Fe	Fe	0.75000 0.75000 0.50000 1.12800
Fe	Fe	0.25000 0.25000 0.50000 1.12800
Fe	Fe	0.25000 0.75000 -0.00000 1.12700
Fe	Fe	-0.00000 0.25000 0.25000 1.12700
Fe	Fe	0.50000 0.25000 0.75000 1.12800
Fe	Fe	0.00000 0.75000 0.75000 1.12700
Fe	Fe	0.50000 0.75000 0.25000 1.12800
Fe	Fe	-0.00000 0.75000 0.25000 1.12700
Fe	Fe	0.50000 0.75000 0.75000 1.12800
Fe	Fe	0.50000 0.25000 0.25000 1.12800
Fe	Fe	-0.00000 0.25000 0.75000 1.12700
Fe	Fe	0.25000 -0.00000 0.25000 1.12700
Fe	Fe	0.25000 0.50000 0.75000 1.12800
Fe	Fe	0.75000 0.00000 0.75000 1.12700
Fe	Fe	0.75000 0.50000 0.25000 1.12800
Fe	Fe	0.25000 0.00000 0.75000 1.12700
Fe	Fe	0.25000 0.50000 0.25000 1.12800
Fe	Fe	0.75000 -0.00000 0.25000 1.12700
Fe	Fe	0.75000 0.50000 0.75000 1.12800
N 	N 	0.22140 0.22140 0.03880 -0.22800
C 	C 	0.18980 0.18980 0.09750 0.05500
C 	C 	0.16960 0.16960 0.12740 0.09600
N 	N 	0.22140 0.72140 0.53880 -0.22800
C 	C 	0.18980 0.68980 0.59750 0.05500
C 	C 	0.16960 0.66960 0.62740 0.09700
N 	N 	0.72140 0.22140 0.53880 -0.22800
C 	C 	0.68980 0.18980 0.59750 0.05500
C 	C 	0.66960 0.16960 0.62740 0.09700
N 	N 	0.72140 0.72140 0.03880 -0.22800
C 	C 	0.68980 0.68980 0.09750 0.05500
C 	C 	0.66960 0.66960 0.12740 0.09700
N 	N 	0.77860 0.77860 0.03880 -0.22800
C 	C 	0.81020 0.81020 0.09750 0.05500
C 	C 	0.83040 0.83040 0.12740 0.09700
N 	N 	0.77860 0.27860 0.53880 -0.22800
C 	C 	0.81020 0.31020 0.59750 0.05500
C 	C 	0.83040 0.33040 0.62740 0.09700
N 	N 	0.27860 0.77860 0.53880 -0.22800
C 	C 	0.31020 0.81020 0.59750 0.05500
C 	C 	0.33040 0.83040 0.62740 0.09700
N 	N 	0.27860 0.27860 0.03880 -0.22800
C 	C 	0.31020 0.31020 0.09750 0.05500
C 	C 	0.33040 0.33040 0.12740 0.09700
N 	N 	0.77860 0.22140 0.96120 -0.22700
C 	C 	0.81020 0.18980 0.90250 0.05500
C 	C 	0.83040 0.16960 0.87260 0.09700
N 	N 	0.77860 0.72140 0.46120 -0.22800
C 	C 	0.81020 0.68980 0.40250 0.05500
C 	C 	0.83040 0.66960 0.37260 0.09700
N 	N 	0.27860 0.22140 0.46120 -0.22800
C 	C 	0.31020 0.18980 0.40250 0.05500
C 	C 	0.33040 0.16960 0.37260 0.09700
N 	N 	0.27860 0.72140 0.96120 -0.22700
C 	C 	0.31020 0.68980 0.90250 0.05500
C 	C 	0.33040 0.66960 0.87260 0.09700
N 	N 	0.22140 0.77860 0.96120 -0.22700
C 	C 	0.18980 0.81020 0.90250 0.05500
C 	C 	0.16960 0.83040 0.87260 0.09700
N 	N 	0.22140 0.27860 0.46120 -0.22800
C 	C 	0.18980 0.31020 0.40250 0.05500
C 	C 	0.16960 0.33040 0.37260 0.09700
N 	N 	0.72140 0.77860 0.46120 -0.22800
C 	C 	0.68980 0.81020 0.40250 0.05500
C 	C 	0.66960 0.83040 0.37260 0.09700
N 	N 	0.72140 0.27860 0.96120 -0.22700
C 	C 	0.68980 0.31020 0.90250 0.05500
C 	C 	0.66960 0.33040 0.87260 0.09700
N 	N 	0.03880 0.22140 0.22140 -0.22800
C 	C 	0.09750 0.18980 0.18980 0.05500
C 	C 	0.12740 0.16960 0.16960 0.09600
N 	N 	0.03880 0.72140 0.72140 -0.22800
C 	C 	0.09750 0.68980 0.68980 0.05500
C 	C 	0.12740 0.66960 0.66960 0.09700
N 	N 	0.53880 0.22140 0.72140 -0.22800
C 	C 	0.59750 0.18980 0.68980 0.05500
C 	C 	0.62740 0.16960 0.66960 0.09700
N 	N 	0.53880 0.72140 0.22140 -0.22800
C 	C 	0.59750 0.68980 0.18980 0.05500
C 	C 	0.62740 0.66960 0.16960 0.09700
N 	N 	0.03880 0.77860 0.77860 -0.22800
C 	C 	0.09750 0.81020 0.81020 0.05500
C 	C 	0.12740 0.83040 0.83040 0.09700
N 	N 	0.03880 0.27860 0.27860 -0.22800
C 	C 	0.09750 0.31020 0.31020 0.05500
C 	C 	0.12740 0.33040 0.33040 0.09700
N 	N 	0.53880 0.77860 0.27860 -0.22800
C 	C 	0.59750 0.81020 0.31020 0.05500
C 	C 	0.62740 0.83040 0.33040 0.09700
N 	N 	0.53880 0.27860 0.77860 -0.22800
C 	C 	0.59750 0.31020 0.81020 0.05500
C 	C 	0.62740 0.33040 0.83040 0.09700
N 	N 	0.96120 0.77860 0.22140 -0.22700
C 	C 	0.90250 0.81020 0.18980 0.05500
C 	C 	0.87260 0.83040 0.16960 0.09700
N 	N 	0.96120 0.27860 0.72140 -0.22700
C 	C 	0.90250 0.31020 0.68980 0.05500
C 	C 	0.87260 0.33040 0.66960 0.09700
N 	N 	0.46120 0.77860 0.72140 -0.22800
C 	C 	0.40250 0.81020 0.68980 0.05500
C 	C 	0.37260 0.83040 0.66960 0.09700
N 	N 	0.46120 0.27860 0.22140 -0.22800
C 	C 	0.40250 0.31020 0.18980 0.05500
C 	C 	0.37260 0.33040 0.16960 0.09700
N 	N 	0.96120 0.22140 0.77860 -0.22700
C 	C 	0.90250 0.18980 0.81020 0.05500
C 	C 	0.87260 0.16960 0.83040 0.09700
N 	N 	0.96120 0.72140 0.27860 -0.22700
C 	C 	0.90250 0.68980 0.31020 0.05500
C 	C 	0.87260 0.66960 0.33040 0.09700
N 	N 	0.46120 0.22140 0.27860 -0.22800
C 	C 	0.40250 0.18980 0.31020 0.05500
C 	C 	0.37260 0.16960 0.33040 0.09700
N 	N 	0.46120 0.72140 0.77860 -0.22800
C 	C 	0.40250 0.68980 0.81020 0.05500
C 	C 	0.37260 0.66960 0.83040 0.09700
N 	N 	0.22140 0.03880 0.22140 -0.22800
C 	C 	0.18980 0.09750 0.18980 0.05500
C 	C 	0.16960 0.12740 0.16960 0.09600
N 	N 	0.22140 0.53880 0.72140 -0.22800
C 	C 	0.18980 0.59750 0.68980 0.05500
C 	C 	0.16960 0.62740 0.66960 0.09700
N 	N 	0.72140 0.03880 0.72140 -0.22800
C 	C 	0.68980 0.09750 0.68980 0.05500
C 	C 	0.66960 0.12740 0.66960 0.09700
N 	N 	0.72140 0.53880 0.22140 -0.22800
C 	C 	0.68980 0.59750 0.18980 0.05500
C 	C 	0.66960 0.62740 0.16960 0.09700
N 	N 	0.77860 0.03880 0.77860 -0.22800
C 	C 	0.81020 0.09750 0.81020 0.05500
C 	C 	0.83040 0.12740 0.83040 0.09700
N 	N 	0.77860 0.53880 0.27860 -0.22800
C 	C 	0.81020 0.59750 0.31020 0.05500
C 	C 	0.83040 0.62740 0.33040 0.09700
N 	N 	0.27860 0.03880 0.27860 -0.22800
C 	C 	0.31020 0.09750 0.31020 0.05500
C 	C 	0.33040 0.12740 0.33040 0.09700
N 	N 	0.27860 0.53880 0.77860 -0.22800
C 	C 	0.31020 0.59750 0.81020 0.05500
C 	C 	0.33040 0.62740 0.83040 0.09700
N 	N 	0.22140 0.96120 0.77860 -0.22700
C 	C 	0.18980 0.90250 0.81020 0.05500
C 	C 	0.16960 0.87260 0.83040 0.09700
N 	N 	0.22140 0.46120 0.27860 -0.22800
C 	C 	0.18980 0.40250 0.31020 0.05500
C 	C 	0.16960 0.37260 0.33040 0.09700
N 	N 	0.72140 0.96120 0.27860 -0.22700
C 	C 	0.68980 0.90250 0.31020 0.05500
C 	C 	0.66960 0.87260 0.33040 0.09700
N 	N 	0.72140 0.46120 0.77860 -0.22800
C 	C 	0.68980 0.40250 0.81020 0.05500
C 	C 	0.66960 0.37260 0.83040 0.09700
N 	N 	0.77860 0.96120 0.22140 -0.22700
C 	C 	0.81020 0.90250 0.18980 0.05500
C 	C 	0.83040 0.87260 0.16960 0.09700
N 	N 	0.77860 0.46120 0.72140 -0.22800
C 	C 	0.81020 0.40250 0.68980 0.05500
C 	C 	0.83040 0.37260 0.66960 0.09700
N 	N 	0.27860 0.96120 0.72140 -0.22700
C 	C 	0.31020 0.90250 0.68980 0.05500
C 	C 	0.33040 0.87260 0.66960 0.09700
N 	N 	0.27860 0.46120 0.22140 -0.22800
C 	C 	0.31020 0.40250 0.18980 0.05500
C 	C 	0.33040 0.37260 0.16960 0.09700
N 	N 	0.22140 0.22140 0.96120 -0.22700
C 	C 	0.18980 0.18980 0.90250 0.05500
C 	C 	0.16960 0.16960 0.87260 0.09700
N 	N 	0.22140 0.72140 0.46120 -0.22800
C 	C 	0.18980 0.68980 0.40250 0.05500
C 	C 	0.16960 0.66960 0.37260 0.09700
N 	N 	0.72140 0.22140 0.46120 -0.22800
C 	C 	0.68980 0.18980 0.40250 0.05500
C 	C 	0.66960 0.16960 0.37260 0.09700
N 	N 	0.72140 0.72140 0.96120 -0.22700
C 	C 	0.68980 0.68980 0.90250 0.05500
C 	C 	0.66960 0.66960 0.87260 0.09700
N 	N 	0.77860 0.77860 0.96120 -0.22700
C 	C 	0.81020 0.81020 0.90250 0.05600
C 	C 	0.83040 0.83040 0.87260 0.09700
N 	N 	0.77860 0.27860 0.46120 -0.22800
C 	C 	0.81020 0.31020 0.40250 0.05500
C 	C 	0.83040 0.33040 0.37260 0.09700
N 	N 	0.27860 0.77860 0.46120 -0.22800
C 	C 	0.31020 0.81020 0.40250 0.05500
C 	C 	0.33040 0.83040 0.37260 0.09700
N 	N 	0.27860 0.27860 0.96120 -0.22700
C 	C 	0.31020 0.31020 0.90250 0.05500
C 	C 	0.33040 0.33040 0.87260 0.09700
N 	N 	0.22140 0.77860 0.03880 -0.22800
C 	C 	0.18980 0.81020 0.09750 0.05500
C 	C 	0.16960 0.83040 0.12740 0.09700
N 	N 	0.22140 0.27860 0.53880 -0.22800
C 	C 	0.18980 0.31020 0.59750 0.05500
C 	C 	0.16960 0.33040 0.62740 0.09700
N 	N 	0.72140 0.77860 0.53880 -0.22800
C 	C 	0.68980 0.81020 0.59750 0.05500
C 	C 	0.66960 0.83040 0.62740 0.09700
N 	N 	0.72140 0.27860 0.03880 -0.22800
C 	C 	0.68980 0.31020 0.09750 0.05500
C 	C 	0.66960 0.33040 0.12740 0.09700
N 	N 	0.77860 0.22140 0.03880 -0.22800
C 	C 	0.81020 0.18980 0.09750 0.05500
C 	C 	0.83040 0.16960 0.12740 0.09700
N 	N 	0.77860 0.72140 0.53880 -0.22800
C 	C 	0.81020 0.68980 0.59750 0.05500
C 	C 	0.83040 0.66960 0.62740 0.09700
N 	N 	0.27860 0.22140 0.53880 -0.22800
C 	C 	0.31020 0.18980 0.59750 0.05500
C 	C 	0.33040 0.16960 0.62740 0.09700
N 	N 	0.27860 0.72140 0.03880 -0.22800
C 	C 	0.31020 0.68980 0.09750 0.05500
C 	C 	0.33040 0.66960 0.12740 0.09700
N 	N 	0.22140 0.03880 0.77860 -0.22800
C 	C 	0.18980 0.09750 0.81020 0.05500
C 	C 	0.16960 0.12740 0.83040 0.09700
N 	N 	0.22140 0.53880 0.27860 -0.22800
C 	C 	0.18980 0.59750 0.31020 0.05500
C 	C 	0.16960 0.62740 0.33040 0.09700
N 	N 	0.72140 0.03880 0.27860 -0.22800
C 	C 	0.68980 0.09750 0.31020 0.05500
C 	C 	0.66960 0.12740 0.33040 0.09700
N 	N 	0.72140 0.53880 0.77860 -0.22800
C 	C 	0.68980 0.59750 0.81020 0.05500
C 	C 	0.66960 0.62740 0.83040 0.09700
N 	N 	0.77860 0.03880 0.22140 -0.22800
C 	C 	0.81020 0.09750 0.18980 0.05500
C 	C 	0.83040 0.12740 0.16960 0.09700
N 	N 	0.77860 0.53880 0.72140 -0.22800
C 	C 	0.81020 0.59750 0.68980 0.05500
C 	C 	0.83040 0.62740 0.66960 0.09700
N 	N 	0.27860 0.03880 0.72140 -0.22800
C 	C 	0.31020 0.09750 0.68980 0.05500
C 	C 	0.33040 0.12740 0.66960 0.09700
N 	N 	0.27860 0.53880 0.22140 -0.22800
C 	C 	0.31020 0.59750 0.18980 0.05500
C 	C 	0.33040 0.62740 0.16960 0.09700
N 	N 	0.77860 0.96120 0.77860 -0.22700
C 	C 	0.81020 0.90250 0.81020 0.05600
C 	C 	0.83040 0.87260 0.83040 0.09700
N 	N 	0.77860 0.46120 0.27860 -0.22800
C 	C 	0.81020 0.40250 0.31020 0.05500
C 	C 	0.83040 0.37260 0.33040 0.09700
N 	N 	0.27860 0.96120 0.27860 -0.22700
C 	C 	0.31020 0.90250 0.31020 0.05500
C 	C 	0.33040 0.87260 0.33040 0.09700
N 	N 	0.27860 0.46120 0.77860 -0.22800
C 	C 	0.31020 0.40250 0.81020 0.05500
C 	C 	0.33040 0.37260 0.83040 0.09700
N 	N 	0.22140 0.96120 0.22140 -0.22700
C 	C 	0.18980 0.90250 0.18980 0.05500
C 	C 	0.16960 0.87260 0.16960 0.09700
N 	N 	0.22140 0.46120 0.72140 -0.22800
C 	C 	0.18980 0.40250 0.68980 0.05500
C 	C 	0.16960 0.37260 0.66960 0.09700
N 	N 	0.72140 0.96120 0.72140 -0.22700
C 	C 	0.68980 0.90250 0.68980 0.05500
C 	C 	0.66960 0.87260 0.66960 0.09700
N 	N 	0.72140 0.46120 0.22140 -0.22800
C 	C 	0.68980 0.40250 0.18980 0.05500
C 	C 	0.66960 0.37260 0.16960 0.09700
N 	N 	0.03880 0.22140 0.77860 -0.22800
C 	C 	0.09750 0.18980 0.81020 0.05500
C 	C 	0.12740 0.16960 0.83040 0.09700
N 	N 	0.03880 0.72140 0.27860 -0.22800
C 	C 	0.09750 0.68980 0.31020 0.05500
C 	C 	0.12740 0.66960 0.33040 0.09700
N 	N 	0.53880 0.22140 0.27860 -0.22800
C 	C 	0.59750 0.18980 0.31020 0.05500
C 	C 	0.62740 0.16960 0.33040 0.09700
N 	N 	0.53880 0.72140 0.77860 -0.22800
C 	C 	0.59750 0.68980 0.81020 0.05500
C 	C 	0.62740 0.66960 0.83040 0.09700
N 	N 	0.03880 0.77860 0.22140 -0.22800
C 	C 	0.09750 0.81020 0.18980 0.05500
C 	C 	0.12740 0.83040 0.16960 0.09700
N 	N 	0.03880 0.27860 0.72140 -0.22800
C 	C 	0.09750 0.31020 0.68980 0.05500
C 	C 	0.12740 0.33040 0.66960 0.09700
N 	N 	0.53880 0.77860 0.72140 -0.22800
C 	C 	0.59750 0.81020 0.68980 0.05500
C 	C 	0.62740 0.83040 0.66960 0.09700
N 	N 	0.53880 0.27860 0.22140 -0.22800
C 	C 	0.59750 0.31020 0.18980 0.05500
C 	C 	0.62740 0.33040 0.16960 0.09700
N 	N 	0.96120 0.22140 0.22140 -0.22700
C 	C 	0.90250 0.18980 0.18980 0.05500
C 	C 	0.87260 0.16960 0.16960 0.09700
N 	N 	0.96120 0.72140 0.72140 -0.22700
C 	C 	0.90250 0.68980 0.68980 0.05500
C 	C 	0.87260 0.66960 0.66960 0.09700
N 	N 	0.46120 0.22140 0.72140 -0.22800
C 	C 	0.40250 0.18980 0.68980 0.05500
C 	C 	0.37260 0.16960 0.66960 0.09700
N 	N 	0.46120 0.72140 0.22140 -0.22800
C 	C 	0.40250 0.68980 0.18980 0.05500
C 	C 	0.37260 0.66960 0.16960 0.09700
N 	N 	0.96120 0.77860 0.77860 -0.22700
C 	C 	0.90250 0.81020 0.81020 0.05600
C 	C 	0.87260 0.83040 0.83040 0.09700
N 	N 	0.96120 0.27860 0.27860 -0.22700
C 	C 	0.90250 0.31020 0.31020 0.05500
C 	C 	0.87260 0.33040 0.33040 0.09700
N 	N 	0.46120 0.77860 0.27860 -0.22800
C 	C 	0.40250 0.81020 0.31020 0.05500
C 	C 	0.37260 0.83040 0.33040 0.09700
N 	N 	0.46120 0.27860 0.77860 -0.22800
C 	C 	0.40250 0.31020 0.81020 0.05500
C 	C 	0.37260 0.33040 0.83040 0.09700
N 	N 	0.14300 0.18680 0.14300 -0.13600
N 	N 	0.14300 0.68680 0.64300 -0.13600
N 	N 	0.64300 0.18680 0.64300 -0.13600
N 	N 	0.64300 0.68680 0.14300 -0.13600
N 	N 	0.85700 0.81320 0.14300 -0.13600
N 	N 	0.85700 0.31320 0.64300 -0.13600
N 	N 	0.35700 0.81320 0.64300 -0.13600
N 	N 	0.35700 0.31320 0.14300 -0.13600
N 	N 	0.85700 0.18680 0.85700 -0.13600
N 	N 	0.85700 0.68680 0.35700 -0.13600
N 	N 	0.35700 0.18680 0.35700 -0.13600
N 	N 	0.35700 0.68680 0.85700 -0.13600
N 	N 	0.14300 0.81320 0.85700 -0.13600
N 	N 	0.14300 0.31320 0.35700 -0.13600
N 	N 	0.64300 0.81320 0.35700 -0.13600
N 	N 	0.64300 0.31320 0.85700 -0.13600
N 	N 	0.14300 0.14300 0.18680 -0.13600
N 	N 	0.14300 0.64300 0.68680 -0.13600
N 	N 	0.64300 0.14300 0.68680 -0.13600
N 	N 	0.64300 0.64300 0.18680 -0.13600
N 	N 	0.14300 0.85700 0.81320 -0.13600
N 	N 	0.14300 0.35700 0.31320 -0.13600
N 	N 	0.64300 0.85700 0.31320 -0.13600
N 	N 	0.64300 0.35700 0.81320 -0.13600
N 	N 	0.85700 0.85700 0.18680 -0.13600
N 	N 	0.85700 0.35700 0.68680 -0.13600
N 	N 	0.35700 0.85700 0.68680 -0.13600
N 	N 	0.35700 0.35700 0.18680 -0.13600
N 	N 	0.85700 0.14300 0.81320 -0.13600
N 	N 	0.85700 0.64300 0.31320 -0.13600
N 	N 	0.35700 0.14300 0.31320 -0.13600
N 	N 	0.35700 0.64300 0.81320 -0.13600
N 	N 	0.18680 0.14300 0.14300 -0.13600
N 	N 	0.18680 0.64300 0.64300 -0.13600
N 	N 	0.68680 0.14300 0.64300 -0.13600
N 	N 	0.68680 0.64300 0.14300 -0.13600
N 	N 	0.81320 0.14300 0.85700 -0.13600
N 	N 	0.81320 0.64300 0.35700 -0.13600
N 	N 	0.31320 0.14300 0.35700 -0.13600
N 	N 	0.31320 0.64300 0.85700 -0.13600
N 	N 	0.18680 0.85700 0.85700 -0.13600
N 	N 	0.18680 0.35700 0.35700 -0.13600
N 	N 	0.68680 0.85700 0.35700 -0.13600
N 	N 	0.68680 0.35700 0.85700 -0.13600
N 	N 	0.81320 0.85700 0.14300 -0.13600
N 	N 	0.81320 0.35700 0.64300 -0.13600
N 	N 	0.31320 0.85700 0.64300 -0.13600
N 	N 	0.31320 0.35700 0.14300 -0.13600
N 	N 	0.18680 0.14300 0.85700 -0.13600
N 	N 	0.18680 0.64300 0.35700 -0.13600
N 	N 	0.68680 0.14300 0.35700 -0.13600
N 	N 	0.68680 0.64300 0.85700 -0.13600
N 	N 	0.81320 0.85700 0.85700 -0.13600
N 	N 	0.81320 0.35700 0.35700 -0.13600
N 	N 	0.31320 0.85700 0.35700 -0.13600
N 	N 	0.31320 0.35700 0.85700 -0.13600
N 	N 	0.18680 0.85700 0.14300 -0.13600
N 	N 	0.18680 0.35700 0.64300 -0.13600
N 	N 	0.68680 0.85700 0.64300 -0.13600
N 	N 	0.68680 0.35700 0.14300 -0.13600
N 	N 	0.81320 0.14300 0.14300 -0.13600
N 	N 	0.81320 0.64300 0.64300 -0.13600
N 	N 	0.31320 0.14300 0.64300 -0.13600
N 	N 	0.31320 0.64300 0.14300 -0.13600
N 	N 	0.14300 0.14300 0.81320 -0.13600
N 	N 	0.14300 0.64300 0.31320 -0.13600
N 	N 	0.64300 0.14300 0.31320 -0.13600
N 	N 	0.64300 0.64300 0.81320 -0.13600
N 	N 	0.85700 0.14300 0.18680 -0.13600
N 	N 	0.85700 0.64300 0.68680 -0.13600
N 	N 	0.35700 0.14300 0.68680 -0.13600
N 	N 	0.35700 0.64300 0.18680 -0.13600
N 	N 	0.85700 0.85700 0.81320 -0.13600
N 	N 	0.85700 0.35700 0.31320 -0.13600
N 	N 	0.35700 0.85700 0.31320 -0.13600
N 	N 	0.35700 0.35700 0.81320 -0.13600
N 	N 	0.14300 0.85700 0.18680 -0.13600
N 	N 	0.14300 0.35700 0.68680 -0.13600
N 	N 	0.64300 0.85700 0.68680 -0.13600
N 	N 	0.64300 0.35700 0.18680 -0.13600
N 	N 	0.14300 0.18680 0.85700 -0.13600
N 	N 	0.14300 0.68680 0.35700 -0.13600
N 	N 	0.64300 0.18680 0.35700 -0.13600
N 	N 	0.64300 0.68680 0.85700 -0.13600
N 	N 	0.14300 0.81320 0.14300 -0.13600
N 	N 	0.14300 0.31320 0.64300 -0.13600
N 	N 	0.64300 0.81320 0.64300 -0.13600
N 	N 	0.64300 0.31320 0.14300 -0.13600
N 	N 	0.85700 0.18680 0.14300 -0.13600
N 	N 	0.85700 0.68680 0.64300 -0.13600
N 	N 	0.35700 0.18680 0.64300 -0.13600
N 	N 	0.35700 0.68680 0.14300 -0.13600
N 	N 	0.85700 0.81320 0.85700 -0.13600
N 	N 	0.85700 0.31320 0.35700 -0.13600
N 	N 	0.35700 0.81320 0.35700 -0.13600
N 	N 	0.35700 0.31320 0.85700 -0.13600
N 	N 	0.29070 0.20930 -0.00000 -0.27300
N 	N 	0.29070 0.70930 0.50000 -0.27200
N 	N 	0.70930 0.79070 -0.00000 -0.27300
N 	N 	0.70930 0.29070 0.50000 -0.27200
N 	N 	0.20930 0.29070 -0.00000 -0.27300
N 	N 	0.70930 0.20930 -0.00000 -0.27300
N 	N 	0.70930 0.70930 0.50000 -0.27200
N 	N 	0.20930 0.20930 0.50000 -0.27200
N 	N 	0.29070 0.79070 -0.00000 -0.27300
N 	N 	0.29070 0.29070 0.50000 -0.27200
N 	N 	-0.00000 0.29070 0.20930 -0.27300
N 	N 	0.50000 0.29070 0.70930 -0.27200
N 	N 	-0.00000 0.70930 0.79070 -0.27300
N 	N 	-0.00000 0.20930 0.29070 -0.27300
N 	N 	0.50000 0.70930 0.29070 -0.27200
N 	N 	0.00000 0.70930 0.20930 -0.27300
N 	N 	0.50000 0.70930 0.70930 -0.27200
N 	N 	0.50000 0.20930 0.20930 -0.27200
N 	N 	0.00000 0.29070 0.79070 -0.27300
N 	N 	0.50000 0.29070 0.29070 -0.27200
N 	N 	0.20930 -0.00000 0.29070 -0.27300
N 	N 	0.20930 0.50000 0.79070 -0.27200
N 	N 	0.79070 0.00000 0.70930 -0.27300
N 	N 	0.79070 0.50000 0.20930 -0.27200
N 	N 	0.29070 0.00000 0.20930 -0.27300
N 	N 	0.20930 0.00000 0.70930 -0.27300
N 	N 	0.20930 0.50000 0.20930 -0.27200
N 	N 	0.79070 -0.00000 0.29070 -0.27300
N 	N 	0.79070 0.50000 0.79070 -0.27200
N 	N 	0.29070 0.50000 0.29070 -0.27200
N 	N 	0.20930 0.79070 0.50000 -0.27200
N 	N 	0.79070 0.70930 -0.00000 -0.27300
N 	N 	0.79070 0.20930 0.50000 -0.27200
N 	N 	0.20930 0.70930 -0.00000 -0.27300
N 	N 	0.79070 0.29070 -0.00000 -0.27300
N 	N 	0.79070 0.79070 0.50000 -0.27200
N 	N 	0.29070 0.00000 0.79070 -0.27300
N 	N 	0.70930 0.00000 0.20930 -0.27300
N 	N 	0.70930 0.50000 0.70930 -0.27200
N 	N 	0.70930 0.00000 0.79070 -0.27300
N 	N 	0.70930 0.50000 0.29070 -0.27200
N 	N 	0.29070 0.50000 0.70930 -0.27200
N 	N 	0.00000 0.20930 0.70930 -0.27300
N 	N 	0.00000 0.79070 0.29070 -0.27300
N 	N 	0.50000 0.79070 0.79070 -0.27200
N 	N 	0.50000 0.20930 0.79070 -0.27200
N 	N 	0.00000 0.79070 0.70930 -0.27300
N 	N 	0.50000 0.79070 0.20930 -0.27200
S 	S 	0.31890 0.14420 -0.00000 -0.04100
C 	C 	0.30240 0.18550 -0.00000 0.07000
S 	S 	0.31890 0.64420 0.50000 -0.03900
C 	C 	0.30240 0.68550 0.50000 0.07000
S 	S 	0.81890 0.14420 0.50000 -0.03900
C 	C 	0.80240 0.18550 0.50000 0.07000
S 	S 	0.81890 0.64420 -0.00000 -0.04000
C 	C 	0.80240 0.68550 -0.00000 0.07000
S 	S 	0.68110 0.85580 -0.00000 -0.03900
C 	C 	0.69760 0.81450 -0.00000 0.07000
S 	S 	0.68110 0.35580 0.50000 -0.03800
C 	C 	0.69760 0.31450 0.50000 0.07000
S 	S 	0.18110 0.85580 0.50000 -0.03800
C 	C 	0.19760 0.81450 0.50000 0.07000
S 	S 	0.18110 0.35580 -0.00000 -0.04000
C 	C 	0.19760 0.31450 -0.00000 0.07000
S 	S 	0.68110 0.14420 -0.00000 -0.04000
C 	C 	0.69760 0.18550 -0.00000 0.07000
S 	S 	0.68110 0.64420 0.50000 -0.03800
C 	C 	0.69760 0.68550 0.50000 0.07000
S 	S 	0.18110 0.14420 0.50000 -0.03900
C 	C 	0.19760 0.18550 0.50000 0.07000
S 	S 	0.18110 0.64420 -0.00000 -0.04000
C 	C 	0.19760 0.68550 -0.00000 0.07000
S 	S 	0.31890 0.85580 -0.00000 -0.03900
C 	C 	0.30240 0.81450 -0.00000 0.07000
S 	S 	0.31890 0.35580 0.50000 -0.03900
C 	C 	0.30240 0.31450 0.50000 0.07000
S 	S 	0.81890 0.85580 0.50000 -0.03700
C 	C 	0.80240 0.81450 0.50000 0.07000
S 	S 	0.81890 0.35580 -0.00000 -0.04000
C 	C 	0.80240 0.31450 -0.00000 0.07000
S 	S 	-0.00000 0.31890 0.14420 -0.04100
C 	C 	-0.00000 0.30240 0.18550 0.07000
S 	S 	-0.00000 0.81890 0.64420 -0.04000
C 	C 	0.00000 0.80240 0.68550 0.07000
S 	S 	0.50000 0.31890 0.64420 -0.03900
C 	C 	0.50000 0.30240 0.68550 0.07000
S 	S 	0.50000 0.81890 0.14420 -0.03900
C 	C 	0.50000 0.80240 0.18550 0.07000
S 	S 	-0.00000 0.68110 0.85580 -0.03900
C 	C 	-0.00000 0.69760 0.81450 0.07000
S 	S 	0.00000 0.18110 0.35580 -0.04000
C 	C 	-0.00000 0.19760 0.31450 0.07000
S 	S 	0.50000 0.68110 0.35580 -0.03800
C 	C 	0.50000 0.69760 0.31450 0.07000
S 	S 	0.50000 0.18110 0.85580 -0.03800
C 	C 	0.50000 0.19760 0.81450 0.07000
S 	S 	-0.00000 0.68110 0.14420 -0.04000
C 	C 	-0.00000 0.69760 0.18550 0.07000
S 	S 	-0.00000 0.18110 0.64420 -0.04000
C 	C 	-0.00000 0.19760 0.68550 0.07000
S 	S 	0.50000 0.68110 0.64420 -0.03800
C 	C 	0.50000 0.69760 0.68550 0.07000
S 	S 	0.50000 0.18110 0.14420 -0.03900
C 	C 	0.50000 0.19760 0.18550 0.07000
S 	S 	0.00000 0.31890 0.85580 -0.03900
C 	C 	0.00000 0.30240 0.81450 0.07000
S 	S 	0.00000 0.81890 0.35580 -0.04000
C 	C 	0.00000 0.80240 0.31450 0.07000
S 	S 	0.50000 0.31890 0.35580 -0.03900
C 	C 	0.50000 0.30240 0.31450 0.07000
S 	S 	0.50000 0.81890 0.85580 -0.03700
C 	C 	0.50000 0.80240 0.81450 0.07000
S 	S 	0.14420 0.00000 0.31890 -0.04100
C 	C 	0.18550 0.00000 0.30240 0.07000
S 	S 	0.14420 0.50000 0.81890 -0.03900
C 	C 	0.18550 0.50000 0.80240 0.07000
S 	S 	0.64420 0.00000 0.81890 -0.04000
C 	C 	0.68550 0.00000 0.80240 0.07000
S 	S 	0.64420 0.50000 0.31890 -0.03900
C 	C 	0.68550 0.50000 0.30240 0.07000
S 	S 	0.85580 0.00000 0.68110 -0.03900
C 	C 	0.81450 -0.00000 0.69760 0.07000
S 	S 	0.85580 0.50000 0.18110 -0.03800
C 	C 	0.81450 0.50000 0.19760 0.07000
S 	S 	0.35580 -0.00000 0.18110 -0.04000
C 	C 	0.31450 -0.00000 0.19760 0.07000
S 	S 	0.35580 0.50000 0.68110 -0.03800
C 	C 	0.31450 0.50000 0.69760 0.07000
S 	S 	0.14420 0.00000 0.68110 -0.04000
C 	C 	0.18550 -0.00000 0.69760 0.07000
S 	S 	0.14420 0.50000 0.18110 -0.03900
C 	C 	0.18550 0.50000 0.19760 0.07000
S 	S 	0.64420 -0.00000 0.18110 -0.04000
C 	C 	0.68550 -0.00000 0.19760 0.07000
S 	S 	0.64420 0.50000 0.68110 -0.03800
C 	C 	0.68550 0.50000 0.69760 0.07000
S 	S 	0.85580 0.00000 0.31890 -0.03900
C 	C 	0.81450 0.00000 0.30240 0.07000
S 	S 	0.85580 0.50000 0.81890 -0.03700
C 	C 	0.81450 0.50000 0.80240 0.07000
S 	S 	0.35580 0.00000 0.81890 -0.04000
C 	C 	0.31450 0.00000 0.80240 0.07000
S 	S 	0.35580 0.50000 0.31890 -0.03900
C 	C 	0.31450 0.50000 0.30240 0.07000
S 	S 	0.14420 0.31890 -0.00000 -0.04100
C 	C 	0.18550 0.30240 -0.00000 0.07000
S 	S 	0.14420 0.81890 0.50000 -0.03900
C 	C 	0.18550 0.80240 0.50000 0.07000
S 	S 	0.64420 0.31890 0.50000 -0.03900
C 	C 	0.68550 0.30240 0.50000 0.07000
S 	S 	0.64420 0.81890 -0.00000 -0.04000
C 	C 	0.68550 0.80240 -0.00000 0.07000
S 	S 	0.85580 0.68110 -0.00000 -0.03900
C 	C 	0.81450 0.69760 -0.00000 0.07000
S 	S 	0.85580 0.18110 0.50000 -0.03800
C 	C 	0.81450 0.19760 0.50000 0.07000
S 	S 	0.35580 0.68110 0.50000 -0.03800
C 	C 	0.31450 0.69760 0.50000 0.07000
S 	S 	0.35580 0.18110 -0.00000 -0.04000
C 	C 	0.31450 0.19760 -0.00000 0.07000
S 	S 	0.14420 0.68110 -0.00000 -0.04000
C 	C 	0.18550 0.69760 -0.00000 0.07000
S 	S 	0.14420 0.18110 0.50000 -0.03900
C 	C 	0.18550 0.19760 0.50000 0.07000
S 	S 	0.64420 0.68110 0.50000 -0.03800
C 	C 	0.68550 0.69760 0.50000 0.07000
S 	S 	0.64420 0.18110 -0.00000 -0.04000
C 	C 	0.68550 0.19760 -0.00000 0.07000
S 	S 	0.85580 0.31890 -0.00000 -0.03900
C 	C 	0.81450 0.30240 -0.00000 0.07000
S 	S 	0.85580 0.81890 0.50000 -0.03700
C 	C 	0.81450 0.80240 0.50000 0.07000
S 	S 	0.35580 0.31890 0.50000 -0.03900
C 	C 	0.31450 0.30240 0.50000 0.07000
S 	S 	0.35580 0.81890 -0.00000 -0.04000
C 	C 	0.31450 0.80240 -0.00000 0.07000
S 	S 	0.31890 0.00000 0.85580 -0.03900
C 	C 	0.30240 0.00000 0.81450 0.07000
S 	S 	0.31890 0.50000 0.35580 -0.03900
C 	C 	0.30240 0.50000 0.31450 0.07000
S 	S 	0.81890 0.00000 0.35580 -0.04000
C 	C 	0.80240 0.00000 0.31450 0.07000
S 	S 	0.81890 0.50000 0.85580 -0.03700
C 	C 	0.80240 0.50000 0.81450 0.07000
S 	S 	0.68110 -0.00000 0.14420 -0.04000
C 	C 	0.69760 0.00000 0.18550 0.07000
S 	S 	0.68110 0.50000 0.64420 -0.03800
C 	C 	0.69760 0.50000 0.68550 0.07000
S 	S 	0.18110 -0.00000 0.64420 -0.04000
C 	C 	0.19760 0.00000 0.68550 0.07000
S 	S 	0.18110 0.50000 0.14420 -0.03900
C 	C 	0.19760 0.50000 0.18550 0.07000
S 	S 	0.68110 0.00000 0.85580 -0.03900
C 	C 	0.69760 0.00000 0.81450 0.07000
S 	S 	0.68110 0.50000 0.35580 -0.03800
C 	C 	0.69760 0.50000 0.31450 0.07000
S 	S 	0.18110 0.00000 0.35580 -0.04000
C 	C 	0.19760 0.00000 0.31450 0.07000
S 	S 	0.18110 0.50000 0.85580 -0.03800
C 	C 	0.19760 0.50000 0.81450 0.07000
S 	S 	0.31890 -0.00000 0.14420 -0.04100
C 	C 	0.30240 0.00000 0.18550 0.07000
S 	S 	0.31890 0.50000 0.64420 -0.03900
C 	C 	0.30240 0.50000 0.68550 0.07000
S 	S 	0.81890 -0.00000 0.64420 -0.04000
C 	C 	0.80240 0.00000 0.68550 0.07000
S 	S 	0.81890 0.50000 0.14420 -0.03900
C 	C 	0.80240 0.50000 0.18550 0.07000
S 	S 	-0.00000 0.14420 0.68110 -0.04000
C 	C 	-0.00000 0.18550 0.69760 0.07000
S 	S 	-0.00000 0.64420 0.18110 -0.04000
C 	C 	-0.00000 0.68550 0.19760 0.07000
S 	S 	0.50000 0.14420 0.18110 -0.03900
C 	C 	0.50000 0.18550 0.19760 0.07000
S 	S 	0.50000 0.64420 0.68110 -0.03800
C 	C 	0.50000 0.68550 0.69760 0.07000
S 	S 	0.00000 0.85580 0.31890 -0.03900
C 	C 	0.00000 0.81450 0.30240 0.07000
S 	S 	0.00000 0.35580 0.81890 -0.04000
C 	C 	0.00000 0.31450 0.80240 0.07000
S 	S 	0.50000 0.85580 0.81890 -0.03700
C 	C 	0.50000 0.81450 0.80240 0.07000
S 	S 	0.50000 0.35580 0.31890 -0.03900
C 	C 	0.50000 0.31450 0.30240 0.07000
S 	S 	0.00000 0.14420 0.31890 -0.04100
C 	C 	-0.00000 0.18550 0.30240 0.07000
S 	S 	-0.00000 0.64420 0.81890 -0.04000
C 	C 	0.00000 0.68550 0.80240 0.07000
S 	S 	0.50000 0.14420 0.81890 -0.03900
C 	C 	0.50000 0.18550 0.80240 0.07000
S 	S 	0.50000 0.64420 0.31890 -0.03900
C 	C 	0.50000 0.68550 0.30240 0.07000
S 	S 	0.00000 0.85580 0.68110 -0.03900
C 	C 	-0.00000 0.81450 0.69760 0.07000
S 	S 	-0.00000 0.35580 0.18110 -0.04000
C 	C 	0.00000 0.31450 0.19760 0.07000
S 	S 	0.50000 0.85580 0.18110 -0.03800
C 	C 	0.50000 0.81450 0.19760 0.07000
S 	S 	0.50000 0.35580 0.68110 -0.03800
C 	C 	0.50000 0.31450 0.69760 0.07000
