data_crystal

_cell_length_a 38.20000
_cell_length_b 38.20000
_cell_length_c 38.20000
_cell_angle_alpha 90.00000
_cell_angle_beta  90.00000
_cell_angle_gamma 90.00000

_symmetry_space_group_name_	'P 1'
_symmetry_space_group_name_H-M	'P 1'

loop_
_symmetry_equiv_pos_as_xyz
  x,y,z

loop_
_atom_site_label
_atom_site_type_symbol
_atom_site_fract_x
_atom_site_fract_y
_atom_site_fract_z
_atom_site_charge
C 	C 	0.19060 0.23250 0.05530 0.08900
H 	H 	0.17850 0.24940 0.04270 -0.01100
C 	C 	0.17640 0.21960 0.08580 -0.15100
H 	H 	0.15720 0.23040 0.09620 0.09200
C 	C 	0.19060 0.73250 0.55530 0.08900
H 	H 	0.17850 0.74940 0.54270 -0.01100
C 	C 	0.17640 0.71960 0.58580 -0.15100
H 	H 	0.15720 0.73040 0.59620 0.09200
C 	C 	0.69060 0.23250 0.55530 0.08900
H 	H 	0.67850 0.24940 0.54270 -0.01100
C 	C 	0.67640 0.21960 0.58580 -0.15100
H 	H 	0.65720 0.23040 0.59620 0.09200
C 	C 	0.69060 0.73250 0.05530 0.08800
H 	H 	0.67850 0.74940 0.04270 -0.01200
C 	C 	0.67640 0.71960 0.08580 -0.15200
H 	H 	0.65720 0.73040 0.09620 0.09100
C 	C 	0.80940 0.76750 0.05530 0.08800
H 	H 	0.82150 0.75060 0.04270 -0.01200
C 	C 	0.82360 0.78040 0.08580 -0.15200
H 	H 	0.84280 0.76960 0.09620 0.09100
C 	C 	0.80940 0.26750 0.55530 0.08800
H 	H 	0.82150 0.25060 0.54270 -0.01200
C 	C 	0.82360 0.28040 0.58580 -0.15200
H 	H 	0.84280 0.26960 0.59620 0.09100
C 	C 	0.30940 0.76750 0.55530 0.08800
H 	H 	0.32150 0.75060 0.54270 -0.01200
C 	C 	0.32360 0.78040 0.58580 -0.15200
H 	H 	0.34280 0.76960 0.59620 0.09100
C 	C 	0.30940 0.26750 0.05530 0.08800
H 	H 	0.32150 0.25060 0.04270 -0.01200
C 	C 	0.32360 0.28040 0.08580 -0.15200
H 	H 	0.34280 0.26960 0.09620 0.09100
C 	C 	0.80940 0.23250 0.94470 0.08800
H 	H 	0.82150 0.24940 0.95730 -0.01100
C 	C 	0.82360 0.21960 0.91420 -0.15200
H 	H 	0.84280 0.23040 0.90380 0.09100
C 	C 	0.80940 0.73250 0.44470 0.08800
H 	H 	0.82150 0.74940 0.45730 -0.01200
C 	C 	0.82360 0.71960 0.41420 -0.15200
H 	H 	0.84280 0.73040 0.40380 0.09100
C 	C 	0.30940 0.23250 0.44470 0.08800
H 	H 	0.32150 0.24940 0.45730 -0.01200
C 	C 	0.32360 0.21960 0.41420 -0.15200
H 	H 	0.34280 0.23040 0.40380 0.09100
C 	C 	0.30940 0.73250 0.94470 0.08800
H 	H 	0.32150 0.74940 0.95730 -0.01100
C 	C 	0.32360 0.71960 0.91420 -0.15200
H 	H 	0.34280 0.73040 0.90380 0.09100
C 	C 	0.19060 0.76750 0.94470 0.08800
H 	H 	0.17850 0.75060 0.95730 -0.01100
C 	C 	0.17640 0.78040 0.91420 -0.15200
H 	H 	0.15720 0.76960 0.90380 0.09100
C 	C 	0.19060 0.26750 0.44470 0.08800
H 	H 	0.17850 0.25060 0.45730 -0.01200
C 	C 	0.17640 0.28040 0.41420 -0.15200
H 	H 	0.15720 0.26960 0.40380 0.09100
C 	C 	0.69060 0.76750 0.44470 0.08800
H 	H 	0.67850 0.75060 0.45730 -0.01200
C 	C 	0.67640 0.78040 0.41420 -0.15200
H 	H 	0.65720 0.76960 0.40380 0.09100
C 	C 	0.69060 0.26750 0.94470 0.08800
H 	H 	0.67850 0.25060 0.95730 -0.01100
C 	C 	0.67640 0.28040 0.91420 -0.15200
H 	H 	0.65720 0.26960 0.90380 0.09100
C 	C 	0.05530 0.19060 0.23250 0.08800
H 	H 	0.04270 0.17850 0.24940 -0.01200
C 	C 	0.08580 0.17640 0.21960 -0.15200
H 	H 	0.09620 0.15720 0.23040 0.09100
C 	C 	0.05530 0.69060 0.73250 0.08800
H 	H 	0.04270 0.67850 0.74940 -0.01200
C 	C 	0.08580 0.67640 0.71960 -0.15200
H 	H 	0.09620 0.65720 0.73040 0.09100
C 	C 	0.55530 0.19060 0.73250 0.08800
H 	H 	0.54270 0.17850 0.74940 -0.01200
C 	C 	0.58580 0.17640 0.71960 -0.15200
H 	H 	0.59620 0.15720 0.73040 0.09100
C 	C 	0.55530 0.69060 0.23250 0.08800
H 	H 	0.54270 0.67850 0.24940 -0.01200
C 	C 	0.58580 0.67640 0.21960 -0.15200
H 	H 	0.59620 0.65720 0.23040 0.09100
C 	C 	0.05530 0.80940 0.76750 0.08800
H 	H 	0.04270 0.82150 0.75060 -0.01200
C 	C 	0.08580 0.82360 0.78040 -0.15200
H 	H 	0.09620 0.84280 0.76960 0.09100
C 	C 	0.05530 0.30940 0.26750 0.08800
H 	H 	0.04270 0.32150 0.25060 -0.01200
C 	C 	0.08580 0.32360 0.28040 -0.15200
H 	H 	0.09620 0.34280 0.26960 0.09100
C 	C 	0.55530 0.80940 0.26750 0.08800
H 	H 	0.54270 0.82150 0.25060 -0.01200
C 	C 	0.58580 0.82360 0.28040 -0.15200
H 	H 	0.59620 0.84280 0.26960 0.09100
C 	C 	0.55530 0.30940 0.76750 0.08800
H 	H 	0.54270 0.32150 0.75060 -0.01200
C 	C 	0.58580 0.32360 0.78040 -0.15200
H 	H 	0.59620 0.34280 0.76960 0.09100
C 	C 	0.94470 0.80940 0.23250 0.08800
H 	H 	0.95730 0.82150 0.24940 -0.01100
C 	C 	0.91420 0.82360 0.21960 -0.15200
H 	H 	0.90380 0.84280 0.23040 0.09100
C 	C 	0.94470 0.30940 0.73250 0.08800
H 	H 	0.95730 0.32150 0.74940 -0.01100
C 	C 	0.91420 0.32360 0.71960 -0.15200
H 	H 	0.90380 0.34280 0.73040 0.09100
C 	C 	0.44470 0.80940 0.73250 0.08800
H 	H 	0.45730 0.82150 0.74940 -0.01200
C 	C 	0.41420 0.82360 0.71960 -0.15200
H 	H 	0.40380 0.84280 0.73040 0.09100
C 	C 	0.44470 0.30940 0.23250 0.08800
H 	H 	0.45730 0.32150 0.24940 -0.01200
C 	C 	0.41420 0.32360 0.21960 -0.15200
H 	H 	0.40380 0.34280 0.23040 0.09100
C 	C 	0.94470 0.19060 0.76750 0.08800
H 	H 	0.95730 0.17850 0.75060 -0.01100
C 	C 	0.91420 0.17640 0.78040 -0.15200
H 	H 	0.90380 0.15720 0.76960 0.09100
C 	C 	0.94470 0.69060 0.26750 0.08800
H 	H 	0.95730 0.67850 0.25060 -0.01100
C 	C 	0.91420 0.67640 0.28040 -0.15200
H 	H 	0.90380 0.65720 0.26960 0.09100
C 	C 	0.44470 0.19060 0.26750 0.08800
H 	H 	0.45730 0.17850 0.25060 -0.01200
C 	C 	0.41420 0.17640 0.28040 -0.15200
H 	H 	0.40380 0.15720 0.26960 0.09100
C 	C 	0.44470 0.69060 0.76750 0.08800
H 	H 	0.45730 0.67850 0.75060 -0.01200
C 	C 	0.41420 0.67640 0.78040 -0.15200
H 	H 	0.40380 0.65720 0.76960 0.09100
C 	C 	0.23250 0.05530 0.19060 0.08800
H 	H 	0.24940 0.04270 0.17850 -0.01200
C 	C 	0.21960 0.08580 0.17640 -0.15200
H 	H 	0.23040 0.09620 0.15720 0.09100
C 	C 	0.23250 0.55530 0.69060 0.08800
H 	H 	0.24940 0.54270 0.67850 -0.01200
C 	C 	0.21960 0.58580 0.67640 -0.15200
H 	H 	0.23040 0.59620 0.65720 0.09100
C 	C 	0.73250 0.05530 0.69060 0.08800
H 	H 	0.74940 0.04270 0.67850 -0.01200
C 	C 	0.71960 0.08580 0.67640 -0.15200
H 	H 	0.73040 0.09620 0.65720 0.09100
C 	C 	0.73250 0.55530 0.19060 0.08800
H 	H 	0.74940 0.54270 0.17850 -0.01200
C 	C 	0.71960 0.58580 0.17640 -0.15200
H 	H 	0.73040 0.59620 0.15720 0.09100
C 	C 	0.76750 0.05530 0.80940 0.08800
H 	H 	0.75060 0.04270 0.82150 -0.01200
C 	C 	0.78040 0.08580 0.82360 -0.15200
H 	H 	0.76960 0.09620 0.84280 0.09100
C 	C 	0.76750 0.55530 0.30940 0.08800
H 	H 	0.75060 0.54270 0.32150 -0.01200
C 	C 	0.78040 0.58580 0.32360 -0.15200
H 	H 	0.76960 0.59620 0.34280 0.09100
C 	C 	0.26750 0.05530 0.30940 0.08800
H 	H 	0.25060 0.04270 0.32150 -0.01200
C 	C 	0.28040 0.08580 0.32360 -0.15200
H 	H 	0.26960 0.09620 0.34280 0.09100
C 	C 	0.26750 0.55530 0.80940 0.08800
H 	H 	0.25060 0.54270 0.82150 -0.01200
C 	C 	0.28040 0.58580 0.82360 -0.15200
H 	H 	0.26960 0.59620 0.84280 0.09100
C 	C 	0.23250 0.94470 0.80940 0.08800
H 	H 	0.24940 0.95730 0.82150 -0.01100
C 	C 	0.21960 0.91420 0.82360 -0.15200
H 	H 	0.23040 0.90380 0.84280 0.09100
C 	C 	0.23250 0.44470 0.30940 0.08800
H 	H 	0.24940 0.45730 0.32150 -0.01200
C 	C 	0.21960 0.41420 0.32360 -0.15200
H 	H 	0.23040 0.40380 0.34280 0.09100
C 	C 	0.73250 0.94470 0.30940 0.08800
H 	H 	0.74940 0.95730 0.32150 -0.01100
C 	C 	0.71960 0.91420 0.32360 -0.15200
H 	H 	0.73040 0.90380 0.34280 0.09100
C 	C 	0.73250 0.44470 0.80940 0.08800
H 	H 	0.74940 0.45730 0.82150 -0.01200
C 	C 	0.71960 0.41420 0.82360 -0.15200
H 	H 	0.73040 0.40380 0.84280 0.09100
C 	C 	0.76750 0.94470 0.19060 0.08800
H 	H 	0.75060 0.95730 0.17850 -0.01100
C 	C 	0.78040 0.91420 0.17640 -0.15200
H 	H 	0.76960 0.90380 0.15720 0.09100
C 	C 	0.76750 0.44470 0.69060 0.08800
H 	H 	0.75060 0.45730 0.67850 -0.01200
C 	C 	0.78040 0.41420 0.67640 -0.15200
H 	H 	0.76960 0.40380 0.65720 0.09100
C 	C 	0.26750 0.94470 0.69060 0.08800
H 	H 	0.25060 0.95730 0.67850 -0.01100
C 	C 	0.28040 0.91420 0.67640 -0.15200
H 	H 	0.26960 0.90380 0.65720 0.09100
C 	C 	0.26750 0.44470 0.19060 0.08800
H 	H 	0.25060 0.45730 0.17850 -0.01200
C 	C 	0.28040 0.41420 0.17640 -0.15200
H 	H 	0.26960 0.40380 0.15720 0.09100
C 	C 	0.23250 0.19060 0.94470 0.08800
H 	H 	0.24940 0.17850 0.95730 -0.01100
C 	C 	0.21960 0.17640 0.91420 -0.15200
H 	H 	0.23040 0.15720 0.90380 0.09100
C 	C 	0.23250 0.69060 0.44470 0.08800
H 	H 	0.24940 0.67850 0.45730 -0.01200
C 	C 	0.21960 0.67640 0.41420 -0.15200
H 	H 	0.23040 0.65720 0.40380 0.09100
C 	C 	0.73250 0.19060 0.44470 0.08800
H 	H 	0.74940 0.17850 0.45730 -0.01200
C 	C 	0.71960 0.17640 0.41420 -0.15200
H 	H 	0.73040 0.15720 0.40380 0.09100
C 	C 	0.73250 0.69060 0.94470 0.08800
H 	H 	0.74940 0.67850 0.95730 -0.01100
C 	C 	0.71960 0.67640 0.91420 -0.15200
H 	H 	0.73040 0.65720 0.90380 0.09100
C 	C 	0.76750 0.80940 0.94470 0.08800
H 	H 	0.75060 0.82150 0.95730 -0.01100
C 	C 	0.78040 0.82360 0.91420 -0.15200
H 	H 	0.76960 0.84280 0.90380 0.09100
C 	C 	0.76750 0.30940 0.44470 0.08800
H 	H 	0.75060 0.32150 0.45730 -0.01200
C 	C 	0.78040 0.32360 0.41420 -0.15200
H 	H 	0.76960 0.34280 0.40380 0.09100
C 	C 	0.26750 0.80940 0.44470 0.08800
H 	H 	0.25060 0.82150 0.45730 -0.01200
C 	C 	0.28040 0.82360 0.41420 -0.15200
H 	H 	0.26960 0.84280 0.40380 0.09100
C 	C 	0.26750 0.30940 0.94470 0.08800
H 	H 	0.25060 0.32150 0.95730 -0.01100
C 	C 	0.28040 0.32360 0.91420 -0.15200
H 	H 	0.26960 0.34280 0.90380 0.09100
C 	C 	0.23250 0.80940 0.05530 0.08800
H 	H 	0.24940 0.82150 0.04270 -0.01200
C 	C 	0.21960 0.82360 0.08580 -0.15200
H 	H 	0.23040 0.84280 0.09620 0.09100
C 	C 	0.23250 0.30940 0.55530 0.08800
H 	H 	0.24940 0.32150 0.54270 -0.01200
C 	C 	0.21960 0.32360 0.58580 -0.15200
H 	H 	0.23040 0.34280 0.59620 0.09100
C 	C 	0.73250 0.80940 0.55530 0.08800
H 	H 	0.74940 0.82150 0.54270 -0.01200
C 	C 	0.71960 0.82360 0.58580 -0.15200
H 	H 	0.73040 0.84280 0.59620 0.09100
C 	C 	0.73250 0.30940 0.05530 0.08800
H 	H 	0.74940 0.32150 0.04270 -0.01200
C 	C 	0.71960 0.32360 0.08580 -0.15200
H 	H 	0.73040 0.34280 0.09620 0.09100
C 	C 	0.76750 0.19060 0.05530 0.08800
H 	H 	0.75060 0.17850 0.04270 -0.01200
C 	C 	0.78040 0.17640 0.08580 -0.15200
H 	H 	0.76960 0.15720 0.09620 0.09100
C 	C 	0.76750 0.69060 0.55530 0.08800
H 	H 	0.75060 0.67850 0.54270 -0.01200
C 	C 	0.78040 0.67640 0.58580 -0.15200
H 	H 	0.76960 0.65720 0.59620 0.09100
C 	C 	0.26750 0.19060 0.55530 0.08800
H 	H 	0.25060 0.17850 0.54270 -0.01200
C 	C 	0.28040 0.17640 0.58580 -0.15200
H 	H 	0.26960 0.15720 0.59620 0.09100
C 	C 	0.26750 0.69060 0.05530 0.08800
H 	H 	0.25060 0.67850 0.04270 -0.01200
C 	C 	0.28040 0.67640 0.08580 -0.15200
H 	H 	0.26960 0.65720 0.09620 0.09100
C 	C 	0.19060 0.05530 0.76750 0.08800
H 	H 	0.17850 0.04270 0.75060 -0.01200
C 	C 	0.17640 0.08580 0.78040 -0.15200
H 	H 	0.15720 0.09620 0.76960 0.09100
C 	C 	0.19060 0.55530 0.26750 0.08800
H 	H 	0.17850 0.54270 0.25060 -0.01200
C 	C 	0.17640 0.58580 0.28040 -0.15200
H 	H 	0.15720 0.59620 0.26960 0.09100
C 	C 	0.69060 0.05530 0.26750 0.08800
H 	H 	0.67850 0.04270 0.25060 -0.01200
C 	C 	0.67640 0.08580 0.28040 -0.15200
H 	H 	0.65720 0.09620 0.26960 0.09100
C 	C 	0.69060 0.55530 0.76750 0.08800
H 	H 	0.67850 0.54270 0.75060 -0.01200
C 	C 	0.67640 0.58580 0.78040 -0.15200
H 	H 	0.65720 0.59620 0.76960 0.09100
C 	C 	0.80940 0.05530 0.23250 0.08800
H 	H 	0.82150 0.04270 0.24940 -0.01200
C 	C 	0.82360 0.08580 0.21960 -0.15200
H 	H 	0.84280 0.09620 0.23040 0.09100
C 	C 	0.80940 0.55530 0.73250 0.08800
H 	H 	0.82150 0.54270 0.74940 -0.01200
C 	C 	0.82360 0.58580 0.71960 -0.15200
H 	H 	0.84280 0.59620 0.73040 0.09100
C 	C 	0.30940 0.05530 0.73250 0.08800
H 	H 	0.32150 0.04270 0.74940 -0.01200
C 	C 	0.32360 0.08580 0.71960 -0.15200
H 	H 	0.34280 0.09620 0.73040 0.09100
C 	C 	0.30940 0.55530 0.23250 0.08800
H 	H 	0.32150 0.54270 0.24940 -0.01200
C 	C 	0.32360 0.58580 0.21960 -0.15200
H 	H 	0.34280 0.59620 0.23040 0.09100
C 	C 	0.80940 0.94470 0.76750 0.08800
H 	H 	0.82150 0.95730 0.75060 -0.01100
C 	C 	0.82360 0.91420 0.78040 -0.15200
H 	H 	0.84280 0.90380 0.76960 0.09100
C 	C 	0.80940 0.44470 0.26750 0.08800
H 	H 	0.82150 0.45730 0.25060 -0.01200
C 	C 	0.82360 0.41420 0.28040 -0.15200
H 	H 	0.84280 0.40380 0.26960 0.09100
C 	C 	0.30940 0.94470 0.26750 0.08800
H 	H 	0.32150 0.95730 0.25060 -0.01100
C 	C 	0.32360 0.91420 0.28040 -0.15200
H 	H 	0.34280 0.90380 0.26960 0.09100
C 	C 	0.30940 0.44470 0.76750 0.08800
H 	H 	0.32150 0.45730 0.75060 -0.01200
C 	C 	0.32360 0.41420 0.78040 -0.15200
H 	H 	0.34280 0.40380 0.76960 0.09100
C 	C 	0.19060 0.94470 0.23250 0.08800
H 	H 	0.17850 0.95730 0.24940 -0.01100
C 	C 	0.17640 0.91420 0.21960 -0.15200
H 	H 	0.15720 0.90380 0.23040 0.09100
C 	C 	0.19060 0.44470 0.73250 0.08800
H 	H 	0.17850 0.45730 0.74940 -0.01200
C 	C 	0.17640 0.41420 0.71960 -0.15200
H 	H 	0.15720 0.40380 0.73040 0.09100
C 	C 	0.69060 0.94470 0.73250 0.08800
H 	H 	0.67850 0.95730 0.74940 -0.01100
C 	C 	0.67640 0.91420 0.71960 -0.15200
H 	H 	0.65720 0.90380 0.73040 0.09100
C 	C 	0.69060 0.44470 0.23250 0.08800
H 	H 	0.67850 0.45730 0.24940 -0.01200
C 	C 	0.67640 0.41420 0.21960 -0.15200
H 	H 	0.65720 0.40380 0.23040 0.09100
C 	C 	0.05530 0.23250 0.80940 0.08800
H 	H 	0.04270 0.24940 0.82150 -0.01200
C 	C 	0.08580 0.21960 0.82360 -0.15200
H 	H 	0.09620 0.23040 0.84280 0.09100
C 	C 	0.05530 0.73250 0.30940 0.08800
H 	H 	0.04270 0.74940 0.32150 -0.01200
C 	C 	0.08580 0.71960 0.32360 -0.15200
H 	H 	0.09620 0.73040 0.34280 0.09100
C 	C 	0.55530 0.23250 0.30940 0.08800
H 	H 	0.54270 0.24940 0.32150 -0.01200
C 	C 	0.58580 0.21960 0.32360 -0.15200
H 	H 	0.59620 0.23040 0.34280 0.09100
C 	C 	0.55530 0.73250 0.80940 0.08800
H 	H 	0.54270 0.74940 0.82150 -0.01200
C 	C 	0.58580 0.71960 0.82360 -0.15200
H 	H 	0.59620 0.73040 0.84280 0.09100
C 	C 	0.05530 0.76750 0.19060 0.08800
H 	H 	0.04270 0.75060 0.17850 -0.01200
C 	C 	0.08580 0.78040 0.17640 -0.15200
H 	H 	0.09620 0.76960 0.15720 0.09100
C 	C 	0.05530 0.26750 0.69060 0.08800
H 	H 	0.04270 0.25060 0.67850 -0.01200
C 	C 	0.08580 0.28040 0.67640 -0.15200
H 	H 	0.09620 0.26960 0.65720 0.09100
C 	C 	0.55530 0.76750 0.69060 0.08800
H 	H 	0.54270 0.75060 0.67850 -0.01200
C 	C 	0.58580 0.78040 0.67640 -0.15200
H 	H 	0.59620 0.76960 0.65720 0.09100
C 	C 	0.55530 0.26750 0.19060 0.08800
H 	H 	0.54270 0.25060 0.17850 -0.01200
C 	C 	0.58580 0.28040 0.17640 -0.15200
H 	H 	0.59620 0.26960 0.15720 0.09100
C 	C 	0.94470 0.23250 0.19060 0.08800
H 	H 	0.95730 0.24940 0.17850 -0.01100
C 	C 	0.91420 0.21960 0.17640 -0.15200
H 	H 	0.90380 0.23040 0.15720 0.09100
C 	C 	0.94470 0.73250 0.69060 0.08800
H 	H 	0.95730 0.74940 0.67850 -0.01100
C 	C 	0.91420 0.71960 0.67640 -0.15200
H 	H 	0.90380 0.73040 0.65720 0.09100
C 	C 	0.44470 0.23250 0.69060 0.08800
H 	H 	0.45730 0.24940 0.67850 -0.01200
C 	C 	0.41420 0.21960 0.67640 -0.15200
H 	H 	0.40380 0.23040 0.65720 0.09100
C 	C 	0.44470 0.73250 0.19060 0.08800
H 	H 	0.45730 0.74940 0.17850 -0.01200
C 	C 	0.41420 0.71960 0.17640 -0.15200
H 	H 	0.40380 0.73040 0.15720 0.09100
C 	C 	0.94470 0.76750 0.80940 0.08800
H 	H 	0.95730 0.75060 0.82150 -0.01100
C 	C 	0.91420 0.78040 0.82360 -0.15200
H 	H 	0.90380 0.76960 0.84280 0.09100
C 	C 	0.94470 0.26750 0.30940 0.08800
H 	H 	0.95730 0.25060 0.32150 -0.01100
C 	C 	0.91420 0.28040 0.32360 -0.15200
H 	H 	0.90380 0.26960 0.34280 0.09100
C 	C 	0.44470 0.76750 0.30940 0.08800
H 	H 	0.45730 0.75060 0.32150 -0.01200
C 	C 	0.41420 0.78040 0.32360 -0.15200
H 	H 	0.40380 0.76960 0.34280 0.09100
C 	C 	0.44470 0.26750 0.80940 0.08800
H 	H 	0.45730 0.25060 0.82150 -0.01200
C 	C 	0.41420 0.28040 0.82360 -0.15200
H 	H 	0.40380 0.26960 0.84280 0.09100
C 	C 	0.80940 0.76750 0.94470 0.08800
H 	H 	0.82150 0.75060 0.95730 -0.01100
C 	C 	0.82360 0.78040 0.91420 -0.15200
H 	H 	0.84280 0.76960 0.90380 0.09100
C 	C 	0.80940 0.26750 0.44470 0.08800
H 	H 	0.82150 0.25060 0.45730 -0.01200
C 	C 	0.82360 0.28040 0.41420 -0.15200
H 	H 	0.84280 0.26960 0.40380 0.09100
C 	C 	0.30940 0.76750 0.44470 0.08800
H 	H 	0.32150 0.75060 0.45730 -0.01200
C 	C 	0.32360 0.78040 0.41420 -0.15200
H 	H 	0.34280 0.76960 0.40380 0.09100
C 	C 	0.30940 0.26750 0.94470 0.08800
H 	H 	0.32150 0.25060 0.95730 -0.01100
C 	C 	0.32360 0.28040 0.91420 -0.15200
H 	H 	0.34280 0.26960 0.90380 0.09100
C 	C 	0.19060 0.23250 0.94470 0.08800
H 	H 	0.17850 0.24940 0.95730 -0.01100
C 	C 	0.17640 0.21960 0.91420 -0.15200
H 	H 	0.15720 0.23040 0.90380 0.09100
C 	C 	0.19060 0.73250 0.44470 0.08800
H 	H 	0.17850 0.74940 0.45730 -0.01200
C 	C 	0.17640 0.71960 0.41420 -0.15200
H 	H 	0.15720 0.73040 0.40380 0.09100
C 	C 	0.69060 0.23250 0.44470 0.08800
H 	H 	0.67850 0.24940 0.45730 -0.01200
C 	C 	0.67640 0.21960 0.41420 -0.15200
H 	H 	0.65720 0.23040 0.40380 0.09100
C 	C 	0.69060 0.73250 0.94470 0.08800
H 	H 	0.67850 0.74940 0.95730 -0.01100
C 	C 	0.67640 0.71960 0.91420 -0.15200
H 	H 	0.65720 0.73040 0.90380 0.09100
C 	C 	0.19060 0.76750 0.05530 0.08800
H 	H 	0.17850 0.75060 0.04270 -0.01200
C 	C 	0.17640 0.78040 0.08580 -0.15200
H 	H 	0.15720 0.76960 0.09620 0.09100
C 	C 	0.19060 0.26750 0.55530 0.08800
H 	H 	0.17850 0.25060 0.54270 -0.01200
C 	C 	0.17640 0.28040 0.58580 -0.15200
H 	H 	0.15720 0.26960 0.59620 0.09100
C 	C 	0.69060 0.76750 0.55530 0.08800
H 	H 	0.67850 0.75060 0.54270 -0.01200
C 	C 	0.67640 0.78040 0.58580 -0.15200
H 	H 	0.65720 0.76960 0.59620 0.09100
C 	C 	0.69060 0.26750 0.05530 0.08800
H 	H 	0.67850 0.25060 0.04270 -0.01200
C 	C 	0.67640 0.28040 0.08580 -0.15200
H 	H 	0.65720 0.26960 0.09620 0.09100
C 	C 	0.80940 0.23250 0.05530 0.08800
H 	H 	0.82150 0.24940 0.04270 -0.01200
C 	C 	0.82360 0.21960 0.08580 -0.15200
H 	H 	0.84280 0.23040 0.09620 0.09100
C 	C 	0.80940 0.73250 0.55530 0.08800
H 	H 	0.82150 0.74940 0.54270 -0.01200
C 	C 	0.82360 0.71960 0.58580 -0.15200
H 	H 	0.84280 0.73040 0.59620 0.09100
C 	C 	0.30940 0.23250 0.55530 0.08800
H 	H 	0.32150 0.24940 0.54270 -0.01200
C 	C 	0.32360 0.21960 0.58580 -0.15200
H 	H 	0.34280 0.23040 0.59620 0.09100
C 	C 	0.30940 0.73250 0.05530 0.08800
H 	H 	0.32150 0.74940 0.04270 -0.01200
C 	C 	0.32360 0.71960 0.08580 -0.15200
H 	H 	0.34280 0.73040 0.09620 0.09100
C 	C 	0.94470 0.80940 0.76750 0.08800
H 	H 	0.95730 0.82150 0.75060 -0.01100
C 	C 	0.91420 0.82360 0.78040 -0.15200
H 	H 	0.90380 0.84280 0.76960 0.09100
C 	C 	0.94470 0.30940 0.26750 0.08800
H 	H 	0.95730 0.32150 0.25060 -0.01100
C 	C 	0.91420 0.32360 0.28040 -0.15200
H 	H 	0.90380 0.34280 0.26960 0.09100
C 	C 	0.44470 0.80940 0.26750 0.08800
H 	H 	0.45730 0.82150 0.25060 -0.01200
C 	C 	0.41420 0.82360 0.28040 -0.15200
H 	H 	0.40380 0.84280 0.26960 0.09100
C 	C 	0.44470 0.30940 0.76750 0.08800
H 	H 	0.45730 0.32150 0.75060 -0.01200
C 	C 	0.41420 0.32360 0.78040 -0.15200
H 	H 	0.40380 0.34280 0.76960 0.09100
C 	C 	0.94470 0.19060 0.23250 0.08800
H 	H 	0.95730 0.17850 0.24940 -0.01100
C 	C 	0.91420 0.17640 0.21960 -0.15200
H 	H 	0.90380 0.15720 0.23040 0.09100
C 	C 	0.94470 0.69060 0.73250 0.08800
H 	H 	0.95730 0.67850 0.74940 -0.01100
C 	C 	0.91420 0.67640 0.71960 -0.15200
H 	H 	0.90380 0.65720 0.73040 0.09100
C 	C 	0.44470 0.19060 0.73250 0.08800
H 	H 	0.45730 0.17850 0.74940 -0.01200
C 	C 	0.41420 0.17640 0.71960 -0.15200
H 	H 	0.40380 0.15720 0.73040 0.09100
C 	C 	0.44470 0.69060 0.23250 0.08800
H 	H 	0.45730 0.67850 0.24940 -0.01200
C 	C 	0.41420 0.67640 0.21960 -0.15200
H 	H 	0.40380 0.65720 0.23040 0.09100
C 	C 	0.05530 0.19060 0.76750 0.08800
H 	H 	0.04270 0.17850 0.75060 -0.01200
C 	C 	0.08580 0.17640 0.78040 -0.15200
H 	H 	0.09620 0.15720 0.76960 0.09100
C 	C 	0.05530 0.69060 0.26750 0.08800
H 	H 	0.04270 0.67850 0.25060 -0.01200
C 	C 	0.08580 0.67640 0.28040 -0.15200
H 	H 	0.09620 0.65720 0.26960 0.09100
C 	C 	0.55530 0.19060 0.26750 0.08800
H 	H 	0.54270 0.17850 0.25060 -0.01200
C 	C 	0.58580 0.17640 0.28040 -0.15200
H 	H 	0.59620 0.15720 0.26960 0.09100
C 	C 	0.55530 0.69060 0.76750 0.08800
H 	H 	0.54270 0.67850 0.75060 -0.01200
C 	C 	0.58580 0.67640 0.78040 -0.15200
H 	H 	0.59620 0.65720 0.76960 0.09100
C 	C 	0.05530 0.80940 0.23250 0.08800
H 	H 	0.04270 0.82150 0.24940 -0.01200
C 	C 	0.08580 0.82360 0.21960 -0.15200
H 	H 	0.09620 0.84280 0.23040 0.09100
C 	C 	0.05530 0.30940 0.73250 0.08800
H 	H 	0.04270 0.32150 0.74940 -0.01200
C 	C 	0.08580 0.32360 0.71960 -0.15200
H 	H 	0.09620 0.34280 0.73040 0.09100
C 	C 	0.55530 0.80940 0.73250 0.08800
H 	H 	0.54270 0.82150 0.74940 -0.01200
C 	C 	0.58580 0.82360 0.71960 -0.15200
H 	H 	0.59620 0.84280 0.73040 0.09100
C 	C 	0.55530 0.30940 0.23250 0.08800
H 	H 	0.54270 0.32150 0.24940 -0.01200
C 	C 	0.58580 0.32360 0.21960 -0.15200
H 	H 	0.59620 0.34280 0.23040 0.09100
C 	C 	0.76750 0.94470 0.80940 0.08800
H 	H 	0.75060 0.95730 0.82150 -0.01100
C 	C 	0.78040 0.91420 0.82360 -0.15200
H 	H 	0.76960 0.90380 0.84280 0.09100
C 	C 	0.76750 0.44470 0.30940 0.08800
H 	H 	0.75060 0.45730 0.32150 -0.01200
C 	C 	0.78040 0.41420 0.32360 -0.15200
H 	H 	0.76960 0.40380 0.34280 0.09100
C 	C 	0.26750 0.94470 0.30940 0.08800
H 	H 	0.25060 0.95730 0.32150 -0.01100
C 	C 	0.28040 0.91420 0.32360 -0.15200
H 	H 	0.26960 0.90380 0.34280 0.09100
C 	C 	0.26750 0.44470 0.80940 0.08800
H 	H 	0.25060 0.45730 0.82150 -0.01200
C 	C 	0.28040 0.41420 0.82360 -0.15200
H 	H 	0.26960 0.40380 0.84280 0.09100
C 	C 	0.23250 0.94470 0.19060 0.08800
H 	H 	0.24940 0.95730 0.17850 -0.01100
C 	C 	0.21960 0.91420 0.17640 -0.15200
H 	H 	0.23040 0.90380 0.15720 0.09100
C 	C 	0.23250 0.44470 0.69060 0.08800
H 	H 	0.24940 0.45730 0.67850 -0.01200
C 	C 	0.21960 0.41420 0.67640 -0.15200
H 	H 	0.23040 0.40380 0.65720 0.09100
C 	C 	0.73250 0.94470 0.69060 0.08800
H 	H 	0.74940 0.95730 0.67850 -0.01100
C 	C 	0.71960 0.91420 0.67640 -0.15200
H 	H 	0.73040 0.90380 0.65720 0.09100
C 	C 	0.73250 0.44470 0.19060 0.08800
H 	H 	0.74940 0.45730 0.17850 -0.01200
C 	C 	0.71960 0.41420 0.17640 -0.15200
H 	H 	0.73040 0.40380 0.15720 0.09100
C 	C 	0.76750 0.05530 0.19060 0.08800
H 	H 	0.75060 0.04270 0.17850 -0.01200
C 	C 	0.78040 0.08580 0.17640 -0.15200
H 	H 	0.76960 0.09620 0.15720 0.09100
C 	C 	0.76750 0.55530 0.69060 0.08800
H 	H 	0.75060 0.54270 0.67850 -0.01200
C 	C 	0.78040 0.58580 0.67640 -0.15200
H 	H 	0.76960 0.59620 0.65720 0.09100
C 	C 	0.26750 0.05530 0.69060 0.08800
H 	H 	0.25060 0.04270 0.67850 -0.01200
C 	C 	0.28040 0.08580 0.67640 -0.15200
H 	H 	0.26960 0.09620 0.65720 0.09100
C 	C 	0.26750 0.55530 0.19060 0.08800
H 	H 	0.25060 0.54270 0.17850 -0.01200
C 	C 	0.28040 0.58580 0.17640 -0.15200
H 	H 	0.26960 0.59620 0.15720 0.09100
C 	C 	0.23250 0.05530 0.80940 0.08800
H 	H 	0.24940 0.04270 0.82150 -0.01200
C 	C 	0.21960 0.08580 0.82360 -0.15200
H 	H 	0.23040 0.09620 0.84280 0.09100
C 	C 	0.23250 0.55530 0.30940 0.08800
H 	H 	0.24940 0.54270 0.32150 -0.01200
C 	C 	0.21960 0.58580 0.32360 -0.15200
H 	H 	0.23040 0.59620 0.34280 0.09100
C 	C 	0.73250 0.05530 0.30940 0.08800
H 	H 	0.74940 0.04270 0.32150 -0.01200
C 	C 	0.71960 0.08580 0.32360 -0.15200
H 	H 	0.73040 0.09620 0.34280 0.09100
C 	C 	0.73250 0.55530 0.80940 0.08800
H 	H 	0.74940 0.54270 0.82150 -0.01200
C 	C 	0.71960 0.58580 0.82360 -0.15200
H 	H 	0.73040 0.59620 0.84280 0.09100
C 	C 	0.76750 0.80940 0.05530 0.08800
H 	H 	0.75060 0.82150 0.04270 -0.01200
C 	C 	0.78040 0.82360 0.08580 -0.15200
H 	H 	0.76960 0.84280 0.09620 0.09100
C 	C 	0.76750 0.30940 0.55530 0.08800
H 	H 	0.75060 0.32150 0.54270 -0.01200
C 	C 	0.78040 0.32360 0.58580 -0.15200
H 	H 	0.76960 0.34280 0.59620 0.09100
C 	C 	0.26750 0.80940 0.55530 0.08800
H 	H 	0.25060 0.82150 0.54270 -0.01200
C 	C 	0.28040 0.82360 0.58580 -0.15200
H 	H 	0.26960 0.84280 0.59620 0.09100
C 	C 	0.26750 0.30940 0.05530 0.08800
H 	H 	0.25060 0.32150 0.04270 -0.01200
C 	C 	0.28040 0.32360 0.08580 -0.15200
H 	H 	0.26960 0.34280 0.09620 0.09100
C 	C 	0.23250 0.19060 0.05530 0.08800
H 	H 	0.24940 0.17850 0.04270 -0.01200
C 	C 	0.21960 0.17640 0.08580 -0.15200
H 	H 	0.23040 0.15720 0.09620 0.09100
C 	C 	0.23250 0.69060 0.55530 0.08800
H 	H 	0.24940 0.67850 0.54270 -0.01200
C 	C 	0.21960 0.67640 0.58580 -0.15200
H 	H 	0.23040 0.65720 0.59620 0.09100
C 	C 	0.73250 0.19060 0.55530 0.08800
H 	H 	0.74940 0.17850 0.54270 -0.01200
C 	C 	0.71960 0.17640 0.58580 -0.15200
H 	H 	0.73040 0.15720 0.59620 0.09100
C 	C 	0.73250 0.69060 0.05530 0.08800
H 	H 	0.74940 0.67850 0.04270 -0.01200
C 	C 	0.71960 0.67640 0.08580 -0.15200
H 	H 	0.73040 0.65720 0.09620 0.09100
C 	C 	0.76750 0.19060 0.94470 0.08800
H 	H 	0.75060 0.17850 0.95730 -0.01100
C 	C 	0.78040 0.17640 0.91420 -0.15200
H 	H 	0.76960 0.15720 0.90380 0.09100
C 	C 	0.76750 0.69060 0.44470 0.08800
H 	H 	0.75060 0.67850 0.45730 -0.01200
C 	C 	0.78040 0.67640 0.41420 -0.15200
H 	H 	0.76960 0.65720 0.40380 0.09100
C 	C 	0.26750 0.19060 0.44470 0.08800
H 	H 	0.25060 0.17850 0.45730 -0.01200
C 	C 	0.28040 0.17640 0.41420 -0.15200
H 	H 	0.26960 0.15720 0.40380 0.09100
C 	C 	0.26750 0.69060 0.94470 0.08800
H 	H 	0.25060 0.67850 0.95730 -0.01100
C 	C 	0.28040 0.67640 0.91420 -0.15200
H 	H 	0.26960 0.65720 0.90380 0.09100
C 	C 	0.23250 0.80940 0.94470 0.08800
H 	H 	0.24940 0.82150 0.95730 -0.01100
C 	C 	0.21960 0.82360 0.91420 -0.15200
H 	H 	0.23040 0.84280 0.90380 0.09100
C 	C 	0.23250 0.30940 0.44470 0.08800
H 	H 	0.24940 0.32150 0.45730 -0.01200
C 	C 	0.21960 0.32360 0.41420 -0.15200
H 	H 	0.23040 0.34280 0.40380 0.09100
C 	C 	0.73250 0.80940 0.44470 0.08800
H 	H 	0.74940 0.82150 0.45730 -0.01200
C 	C 	0.71960 0.82360 0.41420 -0.15200
H 	H 	0.73040 0.84280 0.40380 0.09100
C 	C 	0.73250 0.30940 0.94470 0.08800
H 	H 	0.74940 0.32150 0.95730 -0.01100
C 	C 	0.71960 0.32360 0.91420 -0.15200
H 	H 	0.73040 0.34280 0.90380 0.09100
C 	C 	0.80940 0.94470 0.23250 0.08800
H 	H 	0.82150 0.95730 0.24940 -0.01100
C 	C 	0.82360 0.91420 0.21960 -0.15200
H 	H 	0.84280 0.90380 0.23040 0.09100
C 	C 	0.80940 0.44470 0.73250 0.08800
H 	H 	0.82150 0.45730 0.74940 -0.01200
C 	C 	0.82360 0.41420 0.71960 -0.15200
H 	H 	0.84280 0.40380 0.73040 0.09100
C 	C 	0.30940 0.94470 0.73250 0.08800
H 	H 	0.32150 0.95730 0.74940 -0.01100
C 	C 	0.32360 0.91420 0.71960 -0.15200
H 	H 	0.34280 0.90380 0.73040 0.09100
C 	C 	0.30940 0.44470 0.23250 0.08800
H 	H 	0.32150 0.45730 0.24940 -0.01200
C 	C 	0.32360 0.41420 0.21960 -0.15200
H 	H 	0.34280 0.40380 0.23040 0.09100
C 	C 	0.19060 0.94470 0.76750 0.08800
H 	H 	0.17850 0.95730 0.75060 -0.01100
C 	C 	0.17640 0.91420 0.78040 -0.15200
H 	H 	0.15720 0.90380 0.76960 0.09100
C 	C 	0.19060 0.44470 0.26750 0.08800
H 	H 	0.17850 0.45730 0.25060 -0.01200
C 	C 	0.17640 0.41420 0.28040 -0.15200
H 	H 	0.15720 0.40380 0.26960 0.09100
C 	C 	0.69060 0.94470 0.26750 0.08800
H 	H 	0.67850 0.95730 0.25060 -0.01100
C 	C 	0.67640 0.91420 0.28040 -0.15200
H 	H 	0.65720 0.90380 0.26960 0.09100
C 	C 	0.69060 0.44470 0.76750 0.08800
H 	H 	0.67850 0.45730 0.75060 -0.01200
C 	C 	0.67640 0.41420 0.78040 -0.15200
H 	H 	0.65720 0.40380 0.76960 0.09100
C 	C 	0.19060 0.05530 0.23250 0.08800
H 	H 	0.17850 0.04270 0.24940 -0.01200
C 	C 	0.17640 0.08580 0.21960 -0.15200
H 	H 	0.15720 0.09620 0.23040 0.09100
C 	C 	0.19060 0.55530 0.73250 0.08800
H 	H 	0.17850 0.54270 0.74940 -0.01200
C 	C 	0.17640 0.58580 0.71960 -0.15200
H 	H 	0.15720 0.59620 0.73040 0.09100
C 	C 	0.69060 0.05530 0.73250 0.08800
H 	H 	0.67850 0.04270 0.74940 -0.01200
C 	C 	0.67640 0.08580 0.71960 -0.15200
H 	H 	0.65720 0.09620 0.73040 0.09100
C 	C 	0.69060 0.55530 0.23250 0.08800
H 	H 	0.67850 0.54270 0.24940 -0.01200
C 	C 	0.67640 0.58580 0.21960 -0.15200
H 	H 	0.65720 0.59620 0.23040 0.09100
C 	C 	0.80940 0.05530 0.76750 0.08800
H 	H 	0.82150 0.04270 0.75060 -0.01200
C 	C 	0.82360 0.08580 0.78040 -0.15200
H 	H 	0.84280 0.09620 0.76960 0.09100
C 	C 	0.80940 0.55530 0.26750 0.08800
H 	H 	0.82150 0.54270 0.25060 -0.01200
C 	C 	0.82360 0.58580 0.28040 -0.15200
H 	H 	0.84280 0.59620 0.26960 0.09100
C 	C 	0.30940 0.05530 0.26750 0.08800
H 	H 	0.32150 0.04270 0.25060 -0.01200
C 	C 	0.32360 0.08580 0.28040 -0.15200
H 	H 	0.34280 0.09620 0.26960 0.09100
C 	C 	0.30940 0.55530 0.76750 0.08800
H 	H 	0.32150 0.54270 0.75060 -0.01200
C 	C 	0.32360 0.58580 0.78040 -0.15200
H 	H 	0.34280 0.59620 0.76960 0.09100
C 	C 	0.94470 0.76750 0.19060 0.08800
H 	H 	0.95730 0.75060 0.17850 -0.01100
C 	C 	0.91420 0.78040 0.17640 -0.15200
H 	H 	0.90380 0.76960 0.15720 0.09100
C 	C 	0.94470 0.26750 0.69060 0.08800
H 	H 	0.95730 0.25060 0.67850 -0.01100
C 	C 	0.91420 0.28040 0.67640 -0.15200
H 	H 	0.90380 0.26960 0.65720 0.09100
C 	C 	0.44470 0.76750 0.69060 0.08800
H 	H 	0.45730 0.75060 0.67850 -0.01200
C 	C 	0.41420 0.78040 0.67640 -0.15200
H 	H 	0.40380 0.76960 0.65720 0.09100
C 	C 	0.44470 0.26750 0.19060 0.08800
H 	H 	0.45730 0.25060 0.17850 -0.01200
C 	C 	0.41420 0.28040 0.17640 -0.15200
H 	H 	0.40380 0.26960 0.15720 0.09100
C 	C 	0.94470 0.23250 0.80940 0.08800
H 	H 	0.95730 0.24940 0.82150 -0.01100
C 	C 	0.91420 0.21960 0.82360 -0.15200
H 	H 	0.90380 0.23040 0.84280 0.09100
C 	C 	0.94470 0.73250 0.30940 0.08800
H 	H 	0.95730 0.74940 0.32150 -0.01100
C 	C 	0.91420 0.71960 0.32360 -0.15200
H 	H 	0.90380 0.73040 0.34280 0.09100
C 	C 	0.44470 0.23250 0.30940 0.08800
H 	H 	0.45730 0.24940 0.32150 -0.01200
C 	C 	0.41420 0.21960 0.32360 -0.15200
H 	H 	0.40380 0.23040 0.34280 0.09100
C 	C 	0.44470 0.73250 0.80940 0.08800
H 	H 	0.45730 0.74940 0.82150 -0.01200
C 	C 	0.41420 0.71960 0.82360 -0.15200
H 	H 	0.40380 0.73040 0.84280 0.09100
C 	C 	0.05530 0.76750 0.80940 0.08800
H 	H 	0.04270 0.75060 0.82150 -0.01200
C 	C 	0.08580 0.78040 0.82360 -0.15200
H 	H 	0.09620 0.76960 0.84280 0.09100
C 	C 	0.05530 0.26750 0.30940 0.08800
H 	H 	0.04270 0.25060 0.32150 -0.01200
C 	C 	0.08580 0.28040 0.32360 -0.15200
H 	H 	0.09620 0.26960 0.34280 0.09100
C 	C 	0.55530 0.76750 0.30940 0.08800
H 	H 	0.54270 0.75060 0.32150 -0.01200
C 	C 	0.58580 0.78040 0.32360 -0.15200
H 	H 	0.59620 0.76960 0.34280 0.09100
C 	C 	0.55530 0.26750 0.80940 0.08800
H 	H 	0.54270 0.25060 0.82150 -0.01200
C 	C 	0.58580 0.28040 0.82360 -0.15200
H 	H 	0.59620 0.26960 0.84280 0.09100
C 	C 	0.05530 0.23250 0.19060 0.08800
H 	H 	0.04270 0.24940 0.17850 -0.01200
C 	C 	0.08580 0.21960 0.17640 -0.15200
H 	H 	0.09620 0.23040 0.15720 0.09100
C 	C 	0.05530 0.73250 0.69060 0.08800
H 	H 	0.04270 0.74940 0.67850 -0.01200
C 	C 	0.08580 0.71960 0.67640 -0.15200
H 	H 	0.09620 0.73040 0.65720 0.09100
C 	C 	0.55530 0.23250 0.69060 0.08800
H 	H 	0.54270 0.24940 0.67850 -0.01200
C 	C 	0.58580 0.21960 0.67640 -0.15200
H 	H 	0.59620 0.23040 0.65720 0.09100
C 	C 	0.55530 0.73250 0.19060 0.08800
H 	H 	0.54270 0.74940 0.17850 -0.01200
C 	C 	0.58580 0.71960 0.17640 -0.15200
H 	H 	0.59620 0.73040 0.15720 0.09100
Fe	Fe	0.25000 0.25000 -0.00000 1.11700
Fe	Fe	0.25000 0.75000 0.50000 1.11800
Fe	Fe	0.75000 0.75000 -0.00000 1.11700
Fe	Fe	0.75000 0.25000 0.50000 1.11800
Fe	Fe	0.75000 0.25000 -0.00000 1.11700
Fe	Fe	0.75000 0.75000 0.50000 1.11800
Fe	Fe	0.25000 0.25000 0.50000 1.11800
Fe	Fe	0.25000 0.75000 -0.00000 1.11700
Fe	Fe	0.00000 0.25000 0.25000 1.11700
Fe	Fe	0.50000 0.25000 0.75000 1.11800
Fe	Fe	0.00000 0.75000 0.75000 1.11700
Fe	Fe	0.50000 0.75000 0.25000 1.11800
Fe	Fe	0.00000 0.75000 0.25000 1.11700
Fe	Fe	0.50000 0.75000 0.75000 1.11800
Fe	Fe	0.50000 0.25000 0.25000 1.11800
Fe	Fe	0.00000 0.25000 0.75000 1.11700
Fe	Fe	0.25000 0.00000 0.25000 1.11700
Fe	Fe	0.25000 0.50000 0.75000 1.11800
Fe	Fe	0.75000 0.00000 0.75000 1.11700
Fe	Fe	0.75000 0.50000 0.25000 1.11800
Fe	Fe	0.25000 0.00000 0.75000 1.11700
Fe	Fe	0.25000 0.50000 0.25000 1.11800
Fe	Fe	0.75000 0.00000 0.25000 1.11700
Fe	Fe	0.75000 0.50000 0.75000 1.11800
N 	N 	0.28860 0.21140 -0.00000 -0.26500
N 	N 	0.28860 0.71140 0.50000 -0.26400
N 	N 	0.71140 0.78860 -0.00000 -0.26500
N 	N 	0.71140 0.28860 0.50000 -0.26400
N 	N 	0.21140 0.28860 -0.00000 -0.26500
N 	N 	0.71140 0.21140 -0.00000 -0.26500
N 	N 	0.71140 0.71140 0.50000 -0.26400
N 	N 	0.21140 0.21140 0.50000 -0.26400
N 	N 	0.28860 0.78860 -0.00000 -0.26500
N 	N 	0.28860 0.28860 0.50000 -0.26400
N 	N 	-0.00000 0.28860 0.21140 -0.26500
N 	N 	0.50000 0.28860 0.71140 -0.26400
N 	N 	-0.00000 0.71140 0.78860 -0.26500
N 	N 	0.00000 0.21140 0.28860 -0.26500
N 	N 	0.50000 0.71140 0.28860 -0.26400
N 	N 	-0.00000 0.71140 0.21140 -0.26500
N 	N 	0.50000 0.71140 0.71140 -0.26400
N 	N 	0.50000 0.21140 0.21140 -0.26400
N 	N 	0.00000 0.28860 0.78860 -0.26500
N 	N 	0.50000 0.28860 0.28860 -0.26400
N 	N 	0.21140 -0.00000 0.28860 -0.26500
N 	N 	0.21140 0.50000 0.78860 -0.26400
N 	N 	0.78860 0.00000 0.71140 -0.26500
N 	N 	0.78860 0.50000 0.21140 -0.26400
N 	N 	0.28860 -0.00000 0.21140 -0.26500
N 	N 	0.21140 0.00000 0.71140 -0.26500
N 	N 	0.21140 0.50000 0.21140 -0.26400
N 	N 	0.78860 -0.00000 0.28860 -0.26500
N 	N 	0.78860 0.50000 0.78860 -0.26400
N 	N 	0.28860 0.50000 0.28860 -0.26400
N 	N 	0.21140 0.78860 0.50000 -0.26400
N 	N 	0.78860 0.71140 -0.00000 -0.26500
N 	N 	0.78860 0.21140 0.50000 -0.26400
N 	N 	0.21140 0.71140 -0.00000 -0.26500
N 	N 	0.78860 0.28860 -0.00000 -0.26500
N 	N 	0.78860 0.78860 0.50000 -0.26400
N 	N 	0.28860 0.00000 0.78860 -0.26500
N 	N 	0.71140 -0.00000 0.21140 -0.26500
N 	N 	0.71140 0.50000 0.71140 -0.26400
N 	N 	0.71140 0.00000 0.78860 -0.26500
N 	N 	0.71140 0.50000 0.28860 -0.26400
N 	N 	0.28860 0.50000 0.71140 -0.26400
N 	N 	-0.00000 0.21140 0.71140 -0.26500
N 	N 	0.00000 0.78860 0.28860 -0.26500
N 	N 	0.50000 0.78860 0.78860 -0.26400
N 	N 	0.50000 0.21140 0.78860 -0.26400
N 	N 	0.00000 0.78860 0.71140 -0.26500
N 	N 	0.50000 0.78860 0.21140 -0.26400
C 	C 	0.30240 0.18450 -0.00000 0.05000
S 	S 	0.32620 0.15320 -0.00000 -0.03100
C 	C 	0.30240 0.68450 0.50000 0.05000
S 	S 	0.32620 0.65320 0.50000 -0.03000
C 	C 	0.80240 0.18450 0.50000 0.04900
S 	S 	0.82620 0.15320 0.50000 -0.03000
C 	C 	0.80240 0.68450 -0.00000 0.04900
S 	S 	0.82620 0.65320 -0.00000 -0.03100
C 	C 	0.69760 0.81550 -0.00000 0.05000
S 	S 	0.67380 0.84680 -0.00000 -0.03000
C 	C 	0.69760 0.31550 0.50000 0.05000
S 	S 	0.67380 0.34680 0.50000 -0.03000
C 	C 	0.19760 0.81550 0.50000 0.05100
S 	S 	0.17380 0.84680 0.50000 -0.03000
C 	C 	0.19760 0.31550 -0.00000 0.05000
S 	S 	0.17380 0.34680 -0.00000 -0.03100
C 	C 	0.69760 0.18450 -0.00000 0.05000
S 	S 	0.67380 0.15320 -0.00000 -0.03100
C 	C 	0.69760 0.68450 0.50000 0.05000
S 	S 	0.67380 0.65320 0.50000 -0.03000
C 	C 	0.19760 0.18450 0.50000 0.05000
S 	S 	0.17380 0.15320 0.50000 -0.03100
C 	C 	0.19760 0.68450 -0.00000 0.05000
S 	S 	0.17380 0.65320 -0.00000 -0.03100
C 	C 	0.30240 0.81550 -0.00000 0.05000
S 	S 	0.32620 0.84680 -0.00000 -0.03100
C 	C 	0.30240 0.31550 0.50000 0.05000
S 	S 	0.32620 0.34680 0.50000 -0.03000
C 	C 	0.80240 0.81550 0.50000 0.05000
S 	S 	0.82620 0.84680 0.50000 -0.02900
C 	C 	0.80240 0.31550 -0.00000 0.04900
S 	S 	0.82620 0.34680 -0.00000 -0.03100
C 	C 	-0.00000 0.30240 0.18450 0.05000
S 	S 	-0.00000 0.32620 0.15320 -0.03100
C 	C 	0.00000 0.80240 0.68450 0.04900
S 	S 	0.00000 0.82620 0.65320 -0.03100
C 	C 	0.50000 0.30240 0.68450 0.05000
S 	S 	0.50000 0.32620 0.65320 -0.03000
C 	C 	0.50000 0.80240 0.18450 0.04900
S 	S 	0.50000 0.82620 0.15320 -0.03000
C 	C 	-0.00000 0.69760 0.81550 0.05000
S 	S 	0.00000 0.67380 0.84680 -0.03000
C 	C 	-0.00000 0.19760 0.31550 0.05000
S 	S 	-0.00000 0.17380 0.34680 -0.03100
C 	C 	0.50000 0.69760 0.31550 0.05000
S 	S 	0.50000 0.67380 0.34680 -0.03000
C 	C 	0.50000 0.19760 0.81550 0.05100
S 	S 	0.50000 0.17380 0.84680 -0.03000
C 	C 	-0.00000 0.69760 0.18450 0.05000
S 	S 	-0.00000 0.67380 0.15320 -0.03100
C 	C 	0.00000 0.19760 0.68450 0.05000
S 	S 	0.00000 0.17380 0.65320 -0.03100
C 	C 	0.50000 0.69760 0.68450 0.05000
S 	S 	0.50000 0.67380 0.65320 -0.03000
C 	C 	0.50000 0.19760 0.18450 0.05000
S 	S 	0.50000 0.17380 0.15320 -0.03100
C 	C 	-0.00000 0.30240 0.81550 0.05000
S 	S 	0.00000 0.32620 0.84680 -0.03100
C 	C 	0.00000 0.80240 0.31550 0.04900
S 	S 	0.00000 0.82620 0.34680 -0.03100
C 	C 	0.50000 0.30240 0.31550 0.05000
S 	S 	0.50000 0.32620 0.34680 -0.03000
C 	C 	0.50000 0.80240 0.81550 0.05000
S 	S 	0.50000 0.82620 0.84680 -0.02900
C 	C 	0.18450 -0.00000 0.30240 0.05000
S 	S 	0.15320 0.00000 0.32620 -0.03100
C 	C 	0.18450 0.50000 0.80240 0.04900
S 	S 	0.15320 0.50000 0.82620 -0.03000
C 	C 	0.68450 0.00000 0.80240 0.04900
S 	S 	0.65320 0.00000 0.82620 -0.03100
C 	C 	0.68450 0.50000 0.30240 0.05000
S 	S 	0.65320 0.50000 0.32620 -0.03000
C 	C 	0.81550 0.00000 0.69760 0.05000
S 	S 	0.84680 0.00000 0.67380 -0.03000
C 	C 	0.81550 0.50000 0.19760 0.05100
S 	S 	0.84680 0.50000 0.17380 -0.03000
C 	C 	0.31550 0.00000 0.19760 0.05000
S 	S 	0.34680 0.00000 0.17380 -0.03100
C 	C 	0.31550 0.50000 0.69760 0.05000
S 	S 	0.34680 0.50000 0.67380 -0.03000
C 	C 	0.18450 0.00000 0.69760 0.05000
S 	S 	0.15320 0.00000 0.67380 -0.03100
C 	C 	0.18450 0.50000 0.19760 0.05000
S 	S 	0.15320 0.50000 0.17380 -0.03100
C 	C 	0.68450 0.00000 0.19760 0.05000
S 	S 	0.65320 0.00000 0.17380 -0.03100
C 	C 	0.68450 0.50000 0.69760 0.05000
S 	S 	0.65320 0.50000 0.67380 -0.03000
C 	C 	0.81550 -0.00000 0.30240 0.05000
S 	S 	0.84680 0.00000 0.32620 -0.03100
C 	C 	0.81550 0.50000 0.80240 0.05000
S 	S 	0.84680 0.50000 0.82620 -0.02900
C 	C 	0.31550 0.00000 0.80240 0.04900
S 	S 	0.34680 0.00000 0.82620 -0.03100
C 	C 	0.31550 0.50000 0.30240 0.05000
S 	S 	0.34680 0.50000 0.32620 -0.03000
C 	C 	0.18450 0.30240 -0.00000 0.05000
S 	S 	0.15320 0.32620 -0.00000 -0.03100
C 	C 	0.18450 0.80240 0.50000 0.04900
S 	S 	0.15320 0.82620 0.50000 -0.03000
C 	C 	0.68450 0.30240 0.50000 0.05000
S 	S 	0.65320 0.32620 0.50000 -0.03000
C 	C 	0.68450 0.80240 -0.00000 0.04900
S 	S 	0.65320 0.82620 -0.00000 -0.03100
C 	C 	0.81550 0.69760 -0.00000 0.05000
S 	S 	0.84680 0.67380 -0.00000 -0.03000
C 	C 	0.81550 0.19760 0.50000 0.05100
S 	S 	0.84680 0.17380 0.50000 -0.03000
C 	C 	0.31550 0.69760 0.50000 0.05000
S 	S 	0.34680 0.67380 0.50000 -0.03000
C 	C 	0.31550 0.19760 -0.00000 0.05000
S 	S 	0.34680 0.17380 -0.00000 -0.03100
C 	C 	0.18450 0.69760 -0.00000 0.05000
S 	S 	0.15320 0.67380 -0.00000 -0.03100
C 	C 	0.18450 0.19760 0.50000 0.05000
S 	S 	0.15320 0.17380 0.50000 -0.03100
C 	C 	0.68450 0.69760 0.50000 0.05000
S 	S 	0.65320 0.67380 0.50000 -0.03000
C 	C 	0.68450 0.19760 -0.00000 0.05000
S 	S 	0.65320 0.17380 -0.00000 -0.03100
C 	C 	0.81550 0.30240 -0.00000 0.05000
S 	S 	0.84680 0.32620 -0.00000 -0.03100
C 	C 	0.81550 0.80240 0.50000 0.05000
S 	S 	0.84680 0.82620 0.50000 -0.02900
C 	C 	0.31550 0.30240 0.50000 0.05000
S 	S 	0.34680 0.32620 0.50000 -0.03000
C 	C 	0.31550 0.80240 -0.00000 0.04900
S 	S 	0.34680 0.82620 -0.00000 -0.03100
C 	C 	0.30240 0.00000 0.81550 0.05000
S 	S 	0.32620 0.00000 0.84680 -0.03100
C 	C 	0.30240 0.50000 0.31550 0.05000
S 	S 	0.32620 0.50000 0.34680 -0.03000
C 	C 	0.80240 0.00000 0.31550 0.04900
S 	S 	0.82620 0.00000 0.34680 -0.03100
C 	C 	0.80240 0.50000 0.81550 0.05000
S 	S 	0.82620 0.50000 0.84680 -0.02900
C 	C 	0.69760 0.00000 0.18450 0.05000
S 	S 	0.67380 0.00000 0.15320 -0.03100
C 	C 	0.69760 0.50000 0.68450 0.05000
S 	S 	0.67380 0.50000 0.65320 -0.03000
C 	C 	0.19760 -0.00000 0.68450 0.05000
S 	S 	0.17380 0.00000 0.65320 -0.03100
C 	C 	0.19760 0.50000 0.18450 0.05000
S 	S 	0.17380 0.50000 0.15320 -0.03100
C 	C 	0.69760 0.00000 0.81550 0.05000
S 	S 	0.67380 0.00000 0.84680 -0.03000
C 	C 	0.69760 0.50000 0.31550 0.05000
S 	S 	0.67380 0.50000 0.34680 -0.03000
C 	C 	0.19760 0.00000 0.31550 0.05000
S 	S 	0.17380 0.00000 0.34680 -0.03100
C 	C 	0.19760 0.50000 0.81550 0.05100
S 	S 	0.17380 0.50000 0.84680 -0.03000
C 	C 	0.30240 0.00000 0.18450 0.05000
S 	S 	0.32620 0.00000 0.15320 -0.03100
C 	C 	0.30240 0.50000 0.68450 0.05000
S 	S 	0.32620 0.50000 0.65320 -0.03000
C 	C 	0.80240 -0.00000 0.68450 0.04900
S 	S 	0.82620 0.00000 0.65320 -0.03100
C 	C 	0.80240 0.50000 0.18450 0.04900
S 	S 	0.82620 0.50000 0.15320 -0.03000
C 	C 	-0.00000 0.18450 0.69760 0.05000
S 	S 	-0.00000 0.15320 0.67380 -0.03100
C 	C 	0.00000 0.68450 0.19760 0.05000
S 	S 	0.00000 0.65320 0.17380 -0.03100
C 	C 	0.50000 0.18450 0.19760 0.05000
S 	S 	0.50000 0.15320 0.17380 -0.03100
C 	C 	0.50000 0.68450 0.69760 0.05000
S 	S 	0.50000 0.65320 0.67380 -0.03000
C 	C 	-0.00000 0.81550 0.30240 0.05000
S 	S 	0.00000 0.84680 0.32620 -0.03100
C 	C 	0.00000 0.31550 0.80240 0.04900
S 	S 	0.00000 0.34680 0.82620 -0.03100
C 	C 	0.50000 0.81550 0.80240 0.05000
S 	S 	0.50000 0.84680 0.82620 -0.02900
C 	C 	0.50000 0.31550 0.30240 0.05000
S 	S 	0.50000 0.34680 0.32620 -0.03000
C 	C 	-0.00000 0.18450 0.30240 0.05000
S 	S 	-0.00000 0.15320 0.32620 -0.03100
C 	C 	0.00000 0.68450 0.80240 0.04900
S 	S 	0.00000 0.65320 0.82620 -0.03100
C 	C 	0.50000 0.18450 0.80240 0.04900
S 	S 	0.50000 0.15320 0.82620 -0.03000
C 	C 	0.50000 0.68450 0.30240 0.05000
S 	S 	0.50000 0.65320 0.32620 -0.03000
C 	C 	-0.00000 0.81550 0.69760 0.05000
S 	S 	0.00000 0.84680 0.67380 -0.03000
C 	C 	0.00000 0.31550 0.19760 0.05000
S 	S 	-0.00000 0.34680 0.17380 -0.03100
C 	C 	0.50000 0.81550 0.19760 0.05100
S 	S 	0.50000 0.84680 0.17380 -0.03000
C 	C 	0.50000 0.31550 0.69760 0.05000
S 	S 	0.50000 0.34680 0.67380 -0.03000
N 	N 	0.22140 0.22140 0.04350 -0.23500
C 	C 	0.19080 0.19080 0.10030 0.08100
C 	C 	0.17370 0.17370 0.13260 0.09800
N 	N 	0.22140 0.72140 0.54350 -0.23500
C 	C 	0.19080 0.69080 0.60030 0.08100
C 	C 	0.17370 0.67370 0.63260 0.09800
N 	N 	0.72140 0.22140 0.54350 -0.23500
C 	C 	0.69080 0.19080 0.60030 0.08100
C 	C 	0.67370 0.17370 0.63260 0.09800
N 	N 	0.72140 0.72140 0.04350 -0.23500
C 	C 	0.69080 0.69080 0.10030 0.08100
C 	C 	0.67370 0.67370 0.13260 0.09800
N 	N 	0.77860 0.77860 0.04350 -0.23500
C 	C 	0.80920 0.80920 0.10030 0.08200
C 	C 	0.82630 0.82630 0.13260 0.09800
N 	N 	0.77860 0.27860 0.54350 -0.23500
C 	C 	0.80920 0.30920 0.60030 0.08200
C 	C 	0.82630 0.32630 0.63260 0.09800
N 	N 	0.27860 0.77860 0.54350 -0.23500
C 	C 	0.30920 0.80920 0.60030 0.08200
C 	C 	0.32630 0.82630 0.63260 0.09800
N 	N 	0.27860 0.27860 0.04350 -0.23500
C 	C 	0.30920 0.30920 0.10030 0.08100
C 	C 	0.32630 0.32630 0.13260 0.09800
N 	N 	0.77860 0.22140 0.95650 -0.23400
C 	C 	0.80920 0.19080 0.89970 0.08100
C 	C 	0.82630 0.17370 0.86740 0.09900
N 	N 	0.77860 0.72140 0.45650 -0.23500
C 	C 	0.80920 0.69080 0.39970 0.08200
C 	C 	0.82630 0.67370 0.36740 0.09800
N 	N 	0.27860 0.22140 0.45650 -0.23500
C 	C 	0.30920 0.19080 0.39970 0.08100
C 	C 	0.32630 0.17370 0.36740 0.09800
N 	N 	0.27860 0.72140 0.95650 -0.23400
C 	C 	0.30920 0.69080 0.89970 0.08100
C 	C 	0.32630 0.67370 0.86740 0.09900
N 	N 	0.22140 0.77860 0.95650 -0.23400
C 	C 	0.19080 0.80920 0.89970 0.08100
C 	C 	0.17370 0.82630 0.86740 0.09900
N 	N 	0.22140 0.27860 0.45650 -0.23500
C 	C 	0.19080 0.30920 0.39970 0.08100
C 	C 	0.17370 0.32630 0.36740 0.09800
N 	N 	0.72140 0.77860 0.45650 -0.23500
C 	C 	0.69080 0.80920 0.39970 0.08200
C 	C 	0.67370 0.82630 0.36740 0.09800
N 	N 	0.72140 0.27860 0.95650 -0.23400
C 	C 	0.69080 0.30920 0.89970 0.08100
C 	C 	0.67370 0.32630 0.86740 0.09900
N 	N 	0.04350 0.22140 0.22140 -0.23500
C 	C 	0.10030 0.19080 0.19080 0.08100
C 	C 	0.13260 0.17370 0.17370 0.09800
N 	N 	0.04350 0.72140 0.72140 -0.23500
C 	C 	0.10030 0.69080 0.69080 0.08100
C 	C 	0.13260 0.67370 0.67370 0.09800
N 	N 	0.54350 0.22140 0.72140 -0.23500
C 	C 	0.60030 0.19080 0.69080 0.08100
C 	C 	0.63260 0.17370 0.67370 0.09800
N 	N 	0.54350 0.72140 0.22140 -0.23500
C 	C 	0.60030 0.69080 0.19080 0.08100
C 	C 	0.63260 0.67370 0.17370 0.09800
N 	N 	0.04350 0.77860 0.77860 -0.23500
C 	C 	0.10030 0.80920 0.80920 0.08200
C 	C 	0.13260 0.82630 0.82630 0.09800
N 	N 	0.04350 0.27860 0.27860 -0.23500
C 	C 	0.10030 0.30920 0.30920 0.08100
C 	C 	0.13260 0.32630 0.32630 0.09800
N 	N 	0.54350 0.77860 0.27860 -0.23500
C 	C 	0.60030 0.80920 0.30920 0.08200
C 	C 	0.63260 0.82630 0.32630 0.09800
N 	N 	0.54350 0.27860 0.77860 -0.23500
C 	C 	0.60030 0.30920 0.80920 0.08200
C 	C 	0.63260 0.32630 0.82630 0.09800
N 	N 	0.95650 0.77860 0.22140 -0.23400
C 	C 	0.89970 0.80920 0.19080 0.08100
C 	C 	0.86740 0.82630 0.17370 0.09900
N 	N 	0.95650 0.27860 0.72140 -0.23400
C 	C 	0.89970 0.30920 0.69080 0.08100
C 	C 	0.86740 0.32630 0.67370 0.09900
N 	N 	0.45650 0.77860 0.72140 -0.23500
C 	C 	0.39970 0.80920 0.69080 0.08200
C 	C 	0.36740 0.82630 0.67370 0.09800
N 	N 	0.45650 0.27860 0.22140 -0.23500
C 	C 	0.39970 0.30920 0.19080 0.08100
C 	C 	0.36740 0.32630 0.17370 0.09800
N 	N 	0.95650 0.22140 0.77860 -0.23400
C 	C 	0.89970 0.19080 0.80920 0.08100
C 	C 	0.86740 0.17370 0.82630 0.09900
N 	N 	0.95650 0.72140 0.27860 -0.23400
C 	C 	0.89970 0.69080 0.30920 0.08100
C 	C 	0.86740 0.67370 0.32630 0.09900
N 	N 	0.45650 0.22140 0.27860 -0.23500
C 	C 	0.39970 0.19080 0.30920 0.08100
C 	C 	0.36740 0.17370 0.32630 0.09800
N 	N 	0.45650 0.72140 0.77860 -0.23500
C 	C 	0.39970 0.69080 0.80920 0.08200
C 	C 	0.36740 0.67370 0.82630 0.09800
N 	N 	0.22140 0.04350 0.22140 -0.23500
C 	C 	0.19080 0.10030 0.19080 0.08100
C 	C 	0.17370 0.13260 0.17370 0.09800
N 	N 	0.22140 0.54350 0.72140 -0.23500
C 	C 	0.19080 0.60030 0.69080 0.08100
C 	C 	0.17370 0.63260 0.67370 0.09800
N 	N 	0.72140 0.04350 0.72140 -0.23500
C 	C 	0.69080 0.10030 0.69080 0.08100
C 	C 	0.67370 0.13260 0.67370 0.09800
N 	N 	0.72140 0.54350 0.22140 -0.23500
C 	C 	0.69080 0.60030 0.19080 0.08100
C 	C 	0.67370 0.63260 0.17370 0.09800
N 	N 	0.77860 0.04350 0.77860 -0.23500
C 	C 	0.80920 0.10030 0.80920 0.08200
C 	C 	0.82630 0.13260 0.82630 0.09800
N 	N 	0.77860 0.54350 0.27860 -0.23500
C 	C 	0.80920 0.60030 0.30920 0.08200
C 	C 	0.82630 0.63260 0.32630 0.09800
N 	N 	0.27860 0.04350 0.27860 -0.23500
C 	C 	0.30920 0.10030 0.30920 0.08100
C 	C 	0.32630 0.13260 0.32630 0.09800
N 	N 	0.27860 0.54350 0.77860 -0.23500
C 	C 	0.30920 0.60030 0.80920 0.08200
C 	C 	0.32630 0.63260 0.82630 0.09800
N 	N 	0.22140 0.95650 0.77860 -0.23400
C 	C 	0.19080 0.89970 0.80920 0.08100
C 	C 	0.17370 0.86740 0.82630 0.09900
N 	N 	0.22140 0.45650 0.27860 -0.23500
C 	C 	0.19080 0.39970 0.30920 0.08100
C 	C 	0.17370 0.36740 0.32630 0.09800
N 	N 	0.72140 0.95650 0.27860 -0.23400
C 	C 	0.69080 0.89970 0.30920 0.08100
C 	C 	0.67370 0.86740 0.32630 0.09900
N 	N 	0.72140 0.45650 0.77860 -0.23500
C 	C 	0.69080 0.39970 0.80920 0.08200
C 	C 	0.67370 0.36740 0.82630 0.09800
N 	N 	0.77860 0.95650 0.22140 -0.23400
C 	C 	0.80920 0.89970 0.19080 0.08100
C 	C 	0.82630 0.86740 0.17370 0.09900
N 	N 	0.77860 0.45650 0.72140 -0.23500
C 	C 	0.80920 0.39970 0.69080 0.08200
C 	C 	0.82630 0.36740 0.67370 0.09800
N 	N 	0.27860 0.95650 0.72140 -0.23400
C 	C 	0.30920 0.89970 0.69080 0.08100
C 	C 	0.32630 0.86740 0.67370 0.09900
N 	N 	0.27860 0.45650 0.22140 -0.23500
C 	C 	0.30920 0.39970 0.19080 0.08100
C 	C 	0.32630 0.36740 0.17370 0.09800
N 	N 	0.22140 0.22140 0.95650 -0.23400
C 	C 	0.19080 0.19080 0.89970 0.08100
C 	C 	0.17370 0.17370 0.86740 0.09800
N 	N 	0.22140 0.72140 0.45650 -0.23500
C 	C 	0.19080 0.69080 0.39970 0.08100
C 	C 	0.17370 0.67370 0.36740 0.09800
N 	N 	0.72140 0.22140 0.45650 -0.23500
C 	C 	0.69080 0.19080 0.39970 0.08100
C 	C 	0.67370 0.17370 0.36740 0.09800
N 	N 	0.72140 0.72140 0.95650 -0.23400
C 	C 	0.69080 0.69080 0.89970 0.08100
C 	C 	0.67370 0.67370 0.86740 0.09900
N 	N 	0.77860 0.77860 0.95650 -0.23400
C 	C 	0.80920 0.80920 0.89970 0.08200
C 	C 	0.82630 0.82630 0.86740 0.09900
N 	N 	0.77860 0.27860 0.45650 -0.23500
C 	C 	0.80920 0.30920 0.39970 0.08200
C 	C 	0.82630 0.32630 0.36740 0.09800
N 	N 	0.27860 0.77860 0.45650 -0.23500
C 	C 	0.30920 0.80920 0.39970 0.08200
C 	C 	0.32630 0.82630 0.36740 0.09800
N 	N 	0.27860 0.27860 0.95650 -0.23400
C 	C 	0.30920 0.30920 0.89970 0.08100
C 	C 	0.32630 0.32630 0.86740 0.09900
N 	N 	0.22140 0.77860 0.04350 -0.23500
C 	C 	0.19080 0.80920 0.10030 0.08100
C 	C 	0.17370 0.82630 0.13260 0.09800
N 	N 	0.22140 0.27860 0.54350 -0.23500
C 	C 	0.19080 0.30920 0.60030 0.08100
C 	C 	0.17370 0.32630 0.63260 0.09800
N 	N 	0.72140 0.77860 0.54350 -0.23500
C 	C 	0.69080 0.80920 0.60030 0.08200
C 	C 	0.67370 0.82630 0.63260 0.09800
N 	N 	0.72140 0.27860 0.04350 -0.23500
C 	C 	0.69080 0.30920 0.10030 0.08100
C 	C 	0.67370 0.32630 0.13260 0.09800
N 	N 	0.77860 0.22140 0.04350 -0.23500
C 	C 	0.80920 0.19080 0.10030 0.08100
C 	C 	0.82630 0.17370 0.13260 0.09800
N 	N 	0.77860 0.72140 0.54350 -0.23500
C 	C 	0.80920 0.69080 0.60030 0.08200
C 	C 	0.82630 0.67370 0.63260 0.09800
N 	N 	0.27860 0.22140 0.54350 -0.23500
C 	C 	0.30920 0.19080 0.60030 0.08100
C 	C 	0.32630 0.17370 0.63260 0.09800
N 	N 	0.27860 0.72140 0.04350 -0.23500
C 	C 	0.30920 0.69080 0.10030 0.08100
C 	C 	0.32630 0.67370 0.13260 0.09800
N 	N 	0.22140 0.04350 0.77860 -0.23500
C 	C 	0.19080 0.10030 0.80920 0.08100
C 	C 	0.17370 0.13260 0.82630 0.09800
N 	N 	0.22140 0.54350 0.27860 -0.23500
C 	C 	0.19080 0.60030 0.30920 0.08100
C 	C 	0.17370 0.63260 0.32630 0.09800
N 	N 	0.72140 0.04350 0.27860 -0.23500
C 	C 	0.69080 0.10030 0.30920 0.08100
C 	C 	0.67370 0.13260 0.32630 0.09800
N 	N 	0.72140 0.54350 0.77860 -0.23500
C 	C 	0.69080 0.60030 0.80920 0.08200
C 	C 	0.67370 0.63260 0.82630 0.09800
N 	N 	0.77860 0.04350 0.22140 -0.23500
C 	C 	0.80920 0.10030 0.19080 0.08100
C 	C 	0.82630 0.13260 0.17370 0.09800
N 	N 	0.77860 0.54350 0.72140 -0.23500
C 	C 	0.80920 0.60030 0.69080 0.08200
C 	C 	0.82630 0.63260 0.67370 0.09800
N 	N 	0.27860 0.04350 0.72140 -0.23500
C 	C 	0.30920 0.10030 0.69080 0.08100
C 	C 	0.32630 0.13260 0.67370 0.09800
N 	N 	0.27860 0.54350 0.22140 -0.23500
C 	C 	0.30920 0.60030 0.19080 0.08100
C 	C 	0.32630 0.63260 0.17370 0.09800
N 	N 	0.77860 0.95650 0.77860 -0.23400
C 	C 	0.80920 0.89970 0.80920 0.08200
C 	C 	0.82630 0.86740 0.82630 0.09900
N 	N 	0.77860 0.45650 0.27860 -0.23500
C 	C 	0.80920 0.39970 0.30920 0.08200
C 	C 	0.82630 0.36740 0.32630 0.09800
N 	N 	0.27860 0.95650 0.27860 -0.23400
C 	C 	0.30920 0.89970 0.30920 0.08100
C 	C 	0.32630 0.86740 0.32630 0.09900
N 	N 	0.27860 0.45650 0.77860 -0.23500
C 	C 	0.30920 0.39970 0.80920 0.08200
C 	C 	0.32630 0.36740 0.82630 0.09800
N 	N 	0.22140 0.95650 0.22140 -0.23400
C 	C 	0.19080 0.89970 0.19080 0.08100
C 	C 	0.17370 0.86740 0.17370 0.09800
N 	N 	0.22140 0.45650 0.72140 -0.23500
C 	C 	0.19080 0.39970 0.69080 0.08100
C 	C 	0.17370 0.36740 0.67370 0.09800
N 	N 	0.72140 0.95650 0.72140 -0.23400
C 	C 	0.69080 0.89970 0.69080 0.08100
C 	C 	0.67370 0.86740 0.67370 0.09900
N 	N 	0.72140 0.45650 0.22140 -0.23500
C 	C 	0.69080 0.39970 0.19080 0.08100
C 	C 	0.67370 0.36740 0.17370 0.09800
N 	N 	0.04350 0.22140 0.77860 -0.23500
C 	C 	0.10030 0.19080 0.80920 0.08100
C 	C 	0.13260 0.17370 0.82630 0.09800
N 	N 	0.04350 0.72140 0.27860 -0.23500
C 	C 	0.10030 0.69080 0.30920 0.08100
C 	C 	0.13260 0.67370 0.32630 0.09800
N 	N 	0.54350 0.22140 0.27860 -0.23500
C 	C 	0.60030 0.19080 0.30920 0.08100
C 	C 	0.63260 0.17370 0.32630 0.09800
N 	N 	0.54350 0.72140 0.77860 -0.23500
C 	C 	0.60030 0.69080 0.80920 0.08200
C 	C 	0.63260 0.67370 0.82630 0.09800
N 	N 	0.04350 0.77860 0.22140 -0.23500
C 	C 	0.10030 0.80920 0.19080 0.08100
C 	C 	0.13260 0.82630 0.17370 0.09800
N 	N 	0.04350 0.27860 0.72140 -0.23500
C 	C 	0.10030 0.30920 0.69080 0.08100
C 	C 	0.13260 0.32630 0.67370 0.09800
N 	N 	0.54350 0.77860 0.72140 -0.23500
C 	C 	0.60030 0.80920 0.69080 0.08200
C 	C 	0.63260 0.82630 0.67370 0.09800
N 	N 	0.54350 0.27860 0.22140 -0.23500
C 	C 	0.60030 0.30920 0.19080 0.08100
C 	C 	0.63260 0.32630 0.17370 0.09800
N 	N 	0.95650 0.22140 0.22140 -0.23400
C 	C 	0.89970 0.19080 0.19080 0.08100
C 	C 	0.86740 0.17370 0.17370 0.09800
N 	N 	0.95650 0.72140 0.72140 -0.23400
C 	C 	0.89970 0.69080 0.69080 0.08100
C 	C 	0.86740 0.67370 0.67370 0.09900
N 	N 	0.45650 0.22140 0.72140 -0.23500
C 	C 	0.39970 0.19080 0.69080 0.08100
C 	C 	0.36740 0.17370 0.67370 0.09800
N 	N 	0.45650 0.72140 0.22140 -0.23500
C 	C 	0.39970 0.69080 0.19080 0.08100
C 	C 	0.36740 0.67370 0.17370 0.09800
N 	N 	0.95650 0.77860 0.77860 -0.23400
C 	C 	0.89970 0.80920 0.80920 0.08200
C 	C 	0.86740 0.82630 0.82630 0.09900
N 	N 	0.95650 0.27860 0.27860 -0.23400
C 	C 	0.89970 0.30920 0.30920 0.08100
C 	C 	0.86740 0.32630 0.32630 0.09900
N 	N 	0.45650 0.77860 0.27860 -0.23500
C 	C 	0.39970 0.80920 0.30920 0.08200
C 	C 	0.36740 0.82630 0.32630 0.09800
N 	N 	0.45650 0.27860 0.77860 -0.23500
C 	C 	0.39970 0.30920 0.80920 0.08200
C 	C 	0.36740 0.32630 0.82630 0.09800
N 	N 	0.14469 0.18800 0.14469 -0.14200
N 	N 	0.14469 0.68800 0.64469 -0.14200
N 	N 	0.64469 0.18800 0.64469 -0.14200
N 	N 	0.64469 0.68800 0.14469 -0.14200
N 	N 	0.85531 0.81200 0.14469 -0.14200
N 	N 	0.85531 0.31200 0.64469 -0.14200
N 	N 	0.35531 0.81200 0.64469 -0.14200
N 	N 	0.35531 0.31200 0.14469 -0.14200
N 	N 	0.85531 0.18800 0.85531 -0.14200
N 	N 	0.85531 0.68800 0.35531 -0.14200
N 	N 	0.35531 0.18800 0.35531 -0.14200
N 	N 	0.35531 0.68800 0.85531 -0.14200
N 	N 	0.14469 0.81200 0.85531 -0.14200
N 	N 	0.14469 0.31200 0.35531 -0.14200
N 	N 	0.64469 0.81200 0.35531 -0.14200
N 	N 	0.64469 0.31200 0.85531 -0.14200
N 	N 	0.14469 0.14469 0.18800 -0.14200
N 	N 	0.14469 0.64469 0.68800 -0.14200
N 	N 	0.64469 0.14469 0.68800 -0.14200
N 	N 	0.64469 0.64469 0.18800 -0.14200
N 	N 	0.14469 0.85531 0.81200 -0.14200
N 	N 	0.14469 0.35531 0.31200 -0.14200
N 	N 	0.64469 0.85531 0.31200 -0.14200
N 	N 	0.64469 0.35531 0.81200 -0.14200
N 	N 	0.85531 0.85531 0.18800 -0.14200
N 	N 	0.85531 0.35531 0.68800 -0.14200
N 	N 	0.35531 0.85531 0.68800 -0.14200
N 	N 	0.35531 0.35531 0.18800 -0.14200
N 	N 	0.85531 0.14469 0.81200 -0.14200
N 	N 	0.85531 0.64469 0.31200 -0.14200
N 	N 	0.35531 0.14469 0.31200 -0.14200
N 	N 	0.35531 0.64469 0.81200 -0.14200
N 	N 	0.18800 0.14469 0.14469 -0.14200
N 	N 	0.18800 0.64469 0.64469 -0.14200
N 	N 	0.68800 0.14469 0.64469 -0.14200
N 	N 	0.68800 0.64469 0.14469 -0.14200
N 	N 	0.81200 0.14469 0.85531 -0.14200
N 	N 	0.81200 0.64469 0.35531 -0.14200
N 	N 	0.31200 0.14469 0.35531 -0.14200
N 	N 	0.31200 0.64469 0.85531 -0.14200
N 	N 	0.18800 0.85531 0.85531 -0.14200
N 	N 	0.18800 0.35531 0.35531 -0.14200
N 	N 	0.68800 0.85531 0.35531 -0.14200
N 	N 	0.68800 0.35531 0.85531 -0.14200
N 	N 	0.81200 0.85531 0.14469 -0.14200
N 	N 	0.81200 0.35531 0.64469 -0.14200
N 	N 	0.31200 0.85531 0.64469 -0.14200
N 	N 	0.31200 0.35531 0.14469 -0.14200
N 	N 	0.18800 0.14469 0.85531 -0.14200
N 	N 	0.18800 0.64469 0.35531 -0.14200
N 	N 	0.68800 0.14469 0.35531 -0.14200
N 	N 	0.68800 0.64469 0.85531 -0.14200
N 	N 	0.81200 0.85531 0.85531 -0.14100
N 	N 	0.81200 0.35531 0.35531 -0.14200
N 	N 	0.31200 0.85531 0.35531 -0.14200
N 	N 	0.31200 0.35531 0.85531 -0.14200
N 	N 	0.18800 0.85531 0.14469 -0.14200
N 	N 	0.18800 0.35531 0.64469 -0.14200
N 	N 	0.68800 0.85531 0.64469 -0.14200
N 	N 	0.68800 0.35531 0.14469 -0.14200
N 	N 	0.81200 0.14469 0.14469 -0.14200
N 	N 	0.81200 0.64469 0.64469 -0.14200
N 	N 	0.31200 0.14469 0.64469 -0.14200
N 	N 	0.31200 0.64469 0.14469 -0.14200
N 	N 	0.14469 0.14469 0.81200 -0.14200
N 	N 	0.14469 0.64469 0.31200 -0.14200
N 	N 	0.64469 0.14469 0.31200 -0.14200
N 	N 	0.64469 0.64469 0.81200 -0.14200
N 	N 	0.85531 0.14469 0.18800 -0.14200
N 	N 	0.85531 0.64469 0.68800 -0.14200
N 	N 	0.35531 0.14469 0.68800 -0.14200
N 	N 	0.35531 0.64469 0.18800 -0.14200
N 	N 	0.85531 0.85531 0.81200 -0.14100
N 	N 	0.85531 0.35531 0.31200 -0.14200
N 	N 	0.35531 0.85531 0.31200 -0.14200
N 	N 	0.35531 0.35531 0.81200 -0.14200
N 	N 	0.14469 0.85531 0.18800 -0.14200
N 	N 	0.14469 0.35531 0.68800 -0.14200
N 	N 	0.64469 0.85531 0.68800 -0.14200
N 	N 	0.64469 0.35531 0.18800 -0.14200
N 	N 	0.14469 0.18800 0.85531 -0.14200
N 	N 	0.14469 0.68800 0.35531 -0.14200
N 	N 	0.64469 0.18800 0.35531 -0.14200
N 	N 	0.64469 0.68800 0.85531 -0.14200
N 	N 	0.14469 0.81200 0.14469 -0.14200
N 	N 	0.14469 0.31200 0.64469 -0.14200
N 	N 	0.64469 0.81200 0.64469 -0.14200
N 	N 	0.64469 0.31200 0.14469 -0.14200
N 	N 	0.85531 0.18800 0.14469 -0.14200
N 	N 	0.85531 0.68800 0.64469 -0.14200
N 	N 	0.35531 0.18800 0.64469 -0.14200
N 	N 	0.35531 0.68800 0.14469 -0.14200
N 	N 	0.85531 0.81200 0.85531 -0.14100
N 	N 	0.85531 0.31200 0.35531 -0.14200
N 	N 	0.35531 0.81200 0.35531 -0.14200
N 	N 	0.35531 0.31200 0.85531 -0.14200
