data_crystal

_cell_length_a 38.30000
_cell_length_b 38.30000
_cell_length_c 38.30000
_cell_angle_alpha 90.00000
_cell_angle_beta  90.00000
_cell_angle_gamma 90.00000

_symmetry_space_group_name_	'P 1'
_symmetry_space_group_name_H-M	'P 1'

loop_
_symmetry_equiv_pos_as_xyz
  x,y,z

loop_
_atom_site_label
_atom_site_type_symbol
_atom_site_fract_x
_atom_site_fract_y
_atom_site_fract_z
_atom_site_charge
C 	C 	0.19370 0.23550 0.05500 0.10800
H 	H 	0.18370 0.25570 0.04590 -0.01700
C 	C 	0.17840 0.22100 0.08230 -0.18900
H 	H 	0.15770 0.23010 0.09100 0.09400
C 	C 	0.30630 0.26450 0.05500 0.10800
H 	H 	0.31630 0.24430 0.04590 -0.01700
C 	C 	0.32160 0.27900 0.08230 -0.18900
H 	H 	0.34230 0.26990 0.09100 0.09400
C 	C 	0.23550 0.19370 0.94500 0.10900
H 	H 	0.25570 0.18370 0.95410 -0.01600
C 	C 	0.22100 0.17840 0.91770 -0.18800
H 	H 	0.23010 0.15770 0.90900 0.09400
C 	C 	0.26450 0.30630 0.94500 0.10900
H 	H 	0.24430 0.31630 0.95410 -0.01600
C 	C 	0.27900 0.32160 0.91770 -0.18900
H 	H 	0.26990 0.34230 0.90900 0.09400
C 	C 	0.30630 0.26450 0.94500 0.10900
H 	H 	0.31630 0.24430 0.95410 -0.01600
C 	C 	0.32160 0.27900 0.91770 -0.18900
H 	H 	0.34230 0.26990 0.90900 0.09400
C 	C 	0.19370 0.23550 0.94500 0.10900
H 	H 	0.18370 0.25570 0.95410 -0.01600
C 	C 	0.17840 0.22100 0.91770 -0.18800
H 	H 	0.15770 0.23010 0.90900 0.09400
C 	C 	0.26450 0.30630 0.05500 0.10800
H 	H 	0.24430 0.31630 0.04590 -0.01700
C 	C 	0.27900 0.32160 0.08230 -0.18900
H 	H 	0.26990 0.34230 0.09100 0.09400
C 	C 	0.23550 0.19370 0.05500 0.10800
H 	H 	0.25570 0.18370 0.04590 -0.01700
C 	C 	0.22100 0.17840 0.08230 -0.18900
H 	H 	0.23010 0.15770 0.09100 0.09400
Fe	Fe	0.25000 0.25000 -0.00000 1.14000
N 	N 	0.22300 0.22300 0.03920 -0.25700
C 	C 	0.19300 0.19300 0.09730 0.10100
N 	N 	0.27700 0.27700 0.03920 -0.25700
C 	C 	0.30700 0.30700 0.09730 0.10200
N 	N 	0.22300 0.22300 0.96080 -0.25500
C 	C 	0.19300 0.19300 0.90270 0.10200
N 	N 	0.27700 0.27700 0.96080 -0.25600
C 	C 	0.30700 0.30700 0.90270 0.10200
N 	N 	0.28920 0.21080 -0.00000 -0.23900
N 	N 	0.21080 0.28920 -0.00000 -0.23900
C 	C 	0.30650 0.18230 -0.00000 0.04000
S 	S 	0.32190 0.15100 -0.00000 -0.03500
C 	C 	0.19350 0.31770 -0.00000 0.04100
S 	S 	0.17810 0.34900 -0.00000 -0.03500
C 	C 	0.18230 0.30650 -0.00000 0.04000
S 	S 	0.15100 0.32190 -0.00000 -0.03500
C 	C 	0.31770 0.19350 -0.00000 0.04100
S 	S 	0.34900 0.17810 -0.00000 -0.03500
C 	C 	0.19370 0.73550 0.55500 0.10800
H 	H 	0.18370 0.75570 0.54590 -0.01700
C 	C 	0.17840 0.72100 0.58230 -0.18900
H 	H 	0.15770 0.73010 0.59100 0.09400
C 	C 	0.30630 0.76450 0.55500 0.10900
H 	H 	0.31630 0.74430 0.54590 -0.01700
C 	C 	0.32160 0.77900 0.58230 -0.18900
H 	H 	0.34230 0.76990 0.59100 0.09400
C 	C 	0.23550 0.69370 0.44500 0.10800
H 	H 	0.25570 0.68370 0.45410 -0.01700
C 	C 	0.22100 0.67840 0.41770 -0.18900
H 	H 	0.23010 0.65770 0.40900 0.09400
C 	C 	0.26450 0.80630 0.44500 0.10900
H 	H 	0.24430 0.81630 0.45410 -0.01700
C 	C 	0.27900 0.82160 0.41770 -0.18900
H 	H 	0.26990 0.84230 0.40900 0.09400
C 	C 	0.30630 0.76450 0.44500 0.10900
H 	H 	0.31630 0.74430 0.45410 -0.01700
C 	C 	0.32160 0.77900 0.41770 -0.18900
H 	H 	0.34230 0.76990 0.40900 0.09400
C 	C 	0.19370 0.73550 0.44500 0.10800
H 	H 	0.18370 0.75570 0.45410 -0.01700
C 	C 	0.17840 0.72100 0.41770 -0.18900
H 	H 	0.15770 0.73010 0.40900 0.09400
C 	C 	0.26450 0.80630 0.55500 0.10900
H 	H 	0.24430 0.81630 0.54590 -0.01700
C 	C 	0.27900 0.82160 0.58230 -0.18900
H 	H 	0.26990 0.84230 0.59100 0.09400
C 	C 	0.23550 0.69370 0.55500 0.10800
H 	H 	0.25570 0.68370 0.54590 -0.01700
C 	C 	0.22100 0.67840 0.58230 -0.18900
H 	H 	0.23010 0.65770 0.59100 0.09400
Fe	Fe	0.25000 0.75000 0.50000 1.14100
N 	N 	0.22300 0.72300 0.53920 -0.25700
C 	C 	0.19300 0.69300 0.59730 0.10200
N 	N 	0.27700 0.77700 0.53920 -0.25700
C 	C 	0.30700 0.80700 0.59730 0.10200
N 	N 	0.22300 0.72300 0.46080 -0.25700
C 	C 	0.19300 0.69300 0.40270 0.10200
N 	N 	0.27700 0.77700 0.46080 -0.25700
C 	C 	0.30700 0.80700 0.40270 0.10200
N 	N 	0.28920 0.71080 0.50000 -0.23800
N 	N 	0.21080 0.78920 0.50000 -0.23800
C 	C 	0.30650 0.68230 0.50000 0.04000
S 	S 	0.32190 0.65100 0.50000 -0.03400
C 	C 	0.19350 0.81770 0.50000 0.04100
S 	S 	0.17810 0.84900 0.50000 -0.03300
C 	C 	0.18230 0.80650 0.50000 0.04000
S 	S 	0.15100 0.82190 0.50000 -0.03400
C 	C 	0.31770 0.69350 0.50000 0.04100
S 	S 	0.34900 0.67810 0.50000 -0.03400
C 	C 	0.69370 0.23550 0.55500 0.10800
H 	H 	0.68370 0.25570 0.54590 -0.01700
C 	C 	0.67840 0.22100 0.58230 -0.18900
H 	H 	0.65770 0.23010 0.59100 0.09400
C 	C 	0.80630 0.26450 0.55500 0.10900
H 	H 	0.81630 0.24430 0.54590 -0.01700
C 	C 	0.82160 0.27900 0.58230 -0.18900
H 	H 	0.84230 0.26990 0.59100 0.09400
C 	C 	0.73550 0.19370 0.44500 0.10800
H 	H 	0.75570 0.18370 0.45410 -0.01700
C 	C 	0.72100 0.17840 0.41770 -0.18900
H 	H 	0.73010 0.15770 0.40900 0.09400
C 	C 	0.76450 0.30630 0.44500 0.10900
H 	H 	0.74430 0.31630 0.45410 -0.01700
C 	C 	0.77900 0.32160 0.41770 -0.18900
H 	H 	0.76990 0.34230 0.40900 0.09400
C 	C 	0.80630 0.26450 0.44500 0.10900
H 	H 	0.81630 0.24430 0.45410 -0.01700
C 	C 	0.82160 0.27900 0.41770 -0.18900
H 	H 	0.84230 0.26990 0.40900 0.09400
C 	C 	0.69370 0.23550 0.44500 0.10800
H 	H 	0.68370 0.25570 0.45410 -0.01700
C 	C 	0.67840 0.22100 0.41770 -0.18900
H 	H 	0.65770 0.23010 0.40900 0.09400
C 	C 	0.76450 0.30630 0.55500 0.10900
H 	H 	0.74430 0.31630 0.54590 -0.01700
C 	C 	0.77900 0.32160 0.58230 -0.18900
H 	H 	0.76990 0.34230 0.59100 0.09400
C 	C 	0.73550 0.19370 0.55500 0.10800
H 	H 	0.75570 0.18370 0.54590 -0.01700
C 	C 	0.72100 0.17840 0.58230 -0.18900
H 	H 	0.73010 0.15770 0.59100 0.09400
Fe	Fe	0.75000 0.25000 0.50000 1.14100
N 	N 	0.72300 0.22300 0.53920 -0.25700
C 	C 	0.69300 0.19300 0.59730 0.10200
N 	N 	0.77700 0.27700 0.53920 -0.25700
C 	C 	0.80700 0.30700 0.59730 0.10200
N 	N 	0.72300 0.22300 0.46080 -0.25700
C 	C 	0.69300 0.19300 0.40270 0.10200
N 	N 	0.77700 0.27700 0.46080 -0.25700
C 	C 	0.80700 0.30700 0.40270 0.10200
N 	N 	0.71080 0.28920 0.50000 -0.23800
N 	N 	0.78920 0.21080 0.50000 -0.23900
C 	C 	0.80650 0.18230 0.50000 0.03900
S 	S 	0.82190 0.15100 0.50000 -0.03500
C 	C 	0.69350 0.31770 0.50000 0.04000
S 	S 	0.67810 0.34900 0.50000 -0.03500
C 	C 	0.68230 0.30650 0.50000 0.03900
S 	S 	0.65100 0.32190 0.50000 -0.03500
C 	C 	0.81770 0.19350 0.50000 0.04000
S 	S 	0.84900 0.17810 0.50000 -0.03400
C 	C 	0.69370 0.73550 0.05500 0.10700
H 	H 	0.68370 0.75570 0.04590 -0.01800
C 	C 	0.67840 0.72100 0.08230 -0.19000
H 	H 	0.65770 0.73010 0.09100 0.09300
C 	C 	0.80630 0.76450 0.05500 0.10800
H 	H 	0.81630 0.74430 0.04590 -0.01800
C 	C 	0.82160 0.77900 0.08230 -0.19000
H 	H 	0.84230 0.76990 0.09100 0.09300
C 	C 	0.73550 0.69370 0.94500 0.10800
H 	H 	0.75570 0.68370 0.95410 -0.01700
C 	C 	0.72100 0.67840 0.91770 -0.19000
H 	H 	0.73010 0.65770 0.90900 0.09300
C 	C 	0.76450 0.80630 0.94500 0.10800
H 	H 	0.74430 0.81630 0.95410 -0.01700
C 	C 	0.77900 0.82160 0.91770 -0.19000
H 	H 	0.76990 0.84230 0.90900 0.09400
C 	C 	0.80630 0.76450 0.94500 0.10800
H 	H 	0.81630 0.74430 0.95410 -0.01700
C 	C 	0.82160 0.77900 0.91770 -0.19000
H 	H 	0.84230 0.76990 0.90900 0.09400
C 	C 	0.69370 0.73550 0.94500 0.10800
H 	H 	0.68370 0.75570 0.95410 -0.01700
C 	C 	0.67840 0.72100 0.91770 -0.19000
H 	H 	0.65770 0.73010 0.90900 0.09300
C 	C 	0.76450 0.80630 0.05500 0.10800
H 	H 	0.74430 0.81630 0.04590 -0.01800
C 	C 	0.77900 0.82160 0.08230 -0.19000
H 	H 	0.76990 0.84230 0.09100 0.09300
C 	C 	0.73550 0.69370 0.05500 0.10700
H 	H 	0.75570 0.68370 0.04590 -0.01800
C 	C 	0.72100 0.67840 0.08230 -0.19000
H 	H 	0.73010 0.65770 0.09100 0.09300
Fe	Fe	0.75000 0.75000 -0.00000 1.13900
N 	N 	0.72300 0.72300 0.03920 -0.25800
C 	C 	0.69300 0.69300 0.09730 0.10100
N 	N 	0.77700 0.77700 0.03920 -0.25800
C 	C 	0.80700 0.80700 0.09730 0.10100
N 	N 	0.72300 0.72300 0.96080 -0.25700
C 	C 	0.69300 0.69300 0.90270 0.10100
N 	N 	0.77700 0.77700 0.96080 -0.25700
C 	C 	0.80700 0.80700 0.90270 0.10200
N 	N 	0.71080 0.78920 -0.00000 -0.23900
N 	N 	0.78920 0.71080 -0.00000 -0.23900
C 	C 	0.80650 0.68230 -0.00000 0.03900
S 	S 	0.82190 0.65100 -0.00000 -0.03600
C 	C 	0.69350 0.81770 -0.00000 0.03900
S 	S 	0.67810 0.84900 -0.00000 -0.03500
C 	C 	0.68230 0.80650 -0.00000 0.03900
S 	S 	0.65100 0.82190 -0.00000 -0.03600
C 	C 	0.81770 0.69350 -0.00000 0.03900
S 	S 	0.84900 0.67810 -0.00000 -0.03500
C 	C 	0.80630 0.23550 0.94500 0.10800
H 	H 	0.81630 0.25570 0.95410 -0.01700
C 	C 	0.82160 0.22100 0.91770 -0.19000
H 	H 	0.84230 0.23010 0.90900 0.09300
C 	C 	0.69370 0.26450 0.94500 0.10800
H 	H 	0.68370 0.24430 0.95410 -0.01700
C 	C 	0.67840 0.27900 0.91770 -0.19000
H 	H 	0.65770 0.26990 0.90900 0.09300
C 	C 	0.73550 0.30630 0.05500 0.10700
H 	H 	0.75570 0.31630 0.04590 -0.01800
C 	C 	0.72100 0.32160 0.08230 -0.19000
H 	H 	0.73010 0.34230 0.09100 0.09300
C 	C 	0.76450 0.19370 0.05500 0.10700
H 	H 	0.74430 0.18370 0.04590 -0.01800
C 	C 	0.77900 0.17840 0.08230 -0.19000
H 	H 	0.76990 0.15770 0.09100 0.09300
C 	C 	0.69370 0.26450 0.05500 0.10700
H 	H 	0.68370 0.24430 0.04590 -0.01800
C 	C 	0.67840 0.27900 0.08230 -0.19000
H 	H 	0.65770 0.26990 0.09100 0.09300
C 	C 	0.80630 0.23550 0.05500 0.10700
H 	H 	0.81630 0.25570 0.04590 -0.01800
C 	C 	0.82160 0.22100 0.08230 -0.19000
H 	H 	0.84230 0.23010 0.09100 0.09300
C 	C 	0.76450 0.19370 0.94500 0.10800
H 	H 	0.74430 0.18370 0.95410 -0.01700
C 	C 	0.77900 0.17840 0.91770 -0.19000
H 	H 	0.76990 0.15770 0.90900 0.09300
C 	C 	0.73550 0.30630 0.94500 0.10800
H 	H 	0.75570 0.31630 0.95410 -0.01700
C 	C 	0.72100 0.32160 0.91770 -0.19000
H 	H 	0.73010 0.34230 0.90900 0.09300
Fe	Fe	0.75000 0.25000 -0.00000 1.13900
N 	N 	0.77700 0.22300 0.96080 -0.25700
C 	C 	0.80700 0.19300 0.90270 0.10200
N 	N 	0.72300 0.27700 0.96080 -0.25700
C 	C 	0.69300 0.30700 0.90270 0.10100
N 	N 	0.72300 0.27700 0.03920 -0.25800
C 	C 	0.69300 0.30700 0.09730 0.10100
N 	N 	0.77700 0.22300 0.03920 -0.25800
C 	C 	0.80700 0.19300 0.09730 0.10100
N 	N 	0.71080 0.21080 -0.00000 -0.24000
N 	N 	0.78920 0.28920 -0.00000 -0.23900
C 	C 	0.69350 0.18230 -0.00000 0.03900
S 	S 	0.67810 0.15100 -0.00000 -0.03600
C 	C 	0.80650 0.31770 -0.00000 0.03900
S 	S 	0.82190 0.34900 -0.00000 -0.03500
C 	C 	0.68230 0.19350 -0.00000 0.04000
S 	S 	0.65100 0.17810 -0.00000 -0.03600
C 	C 	0.81770 0.30650 -0.00000 0.03900
S 	S 	0.84900 0.32190 -0.00000 -0.03500
C 	C 	0.80630 0.73550 0.44500 0.10800
H 	H 	0.81630 0.75570 0.45410 -0.01800
C 	C 	0.82160 0.72100 0.41770 -0.19000
H 	H 	0.84230 0.73010 0.40900 0.09300
C 	C 	0.69370 0.76450 0.44500 0.10800
H 	H 	0.68370 0.74430 0.45410 -0.01800
C 	C 	0.67840 0.77900 0.41770 -0.19000
H 	H 	0.65770 0.76990 0.40900 0.09300
C 	C 	0.73550 0.80630 0.55500 0.10800
H 	H 	0.75570 0.81630 0.54590 -0.01800
C 	C 	0.72100 0.82160 0.58230 -0.19000
H 	H 	0.73010 0.84230 0.59100 0.09300
C 	C 	0.76450 0.69370 0.55500 0.10800
H 	H 	0.74430 0.68370 0.54590 -0.01800
C 	C 	0.77900 0.67840 0.58230 -0.19000
H 	H 	0.76990 0.65770 0.59100 0.09300
C 	C 	0.69370 0.76450 0.55500 0.10800
H 	H 	0.68370 0.74430 0.54590 -0.01800
C 	C 	0.67840 0.77900 0.58230 -0.19000
H 	H 	0.65770 0.76990 0.59100 0.09300
C 	C 	0.80630 0.73550 0.55500 0.10800
H 	H 	0.81630 0.75570 0.54590 -0.01800
C 	C 	0.82160 0.72100 0.58230 -0.19000
H 	H 	0.84230 0.73010 0.59100 0.09300
C 	C 	0.76450 0.69370 0.44500 0.10800
H 	H 	0.74430 0.68370 0.45410 -0.01800
C 	C 	0.77900 0.67840 0.41770 -0.19000
H 	H 	0.76990 0.65770 0.40900 0.09300
C 	C 	0.73550 0.80630 0.44500 0.10800
H 	H 	0.75570 0.81630 0.45410 -0.01800
C 	C 	0.72100 0.82160 0.41770 -0.19000
H 	H 	0.73010 0.84230 0.40900 0.09300
Fe	Fe	0.75000 0.75000 0.50000 1.14000
N 	N 	0.77700 0.72300 0.46080 -0.25800
C 	C 	0.80700 0.69300 0.40270 0.10100
N 	N 	0.72300 0.77700 0.46080 -0.25800
C 	C 	0.69300 0.80700 0.40270 0.10100
N 	N 	0.72300 0.77700 0.53920 -0.25800
C 	C 	0.69300 0.80700 0.59730 0.10100
N 	N 	0.77700 0.72300 0.53920 -0.25800
C 	C 	0.80700 0.69300 0.59730 0.10100
N 	N 	0.71080 0.71080 0.50000 -0.23900
N 	N 	0.78920 0.78920 0.50000 -0.23800
C 	C 	0.69350 0.68230 0.50000 0.03900
S 	S 	0.67810 0.65100 0.50000 -0.03500
C 	C 	0.80650 0.81770 0.50000 0.03900
S 	S 	0.82190 0.84900 0.50000 -0.03300
C 	C 	0.68230 0.69350 0.50000 0.03900
S 	S 	0.65100 0.67810 0.50000 -0.03500
C 	C 	0.81770 0.80650 0.50000 0.03900
S 	S 	0.84900 0.82190 0.50000 -0.03300
C 	C 	0.30630 0.23550 0.44500 0.10700
H 	H 	0.31630 0.25570 0.45410 -0.01800
C 	C 	0.32160 0.22100 0.41770 -0.19000
H 	H 	0.34230 0.23010 0.40900 0.09300
C 	C 	0.19370 0.26450 0.44500 0.10700
H 	H 	0.18370 0.24430 0.45410 -0.01800
C 	C 	0.17840 0.27900 0.41770 -0.19000
H 	H 	0.15770 0.26990 0.40900 0.09300
C 	C 	0.23550 0.30630 0.55500 0.10700
H 	H 	0.25570 0.31630 0.54590 -0.01800
C 	C 	0.22100 0.32160 0.58230 -0.19000
H 	H 	0.23010 0.34230 0.59100 0.09300
C 	C 	0.26450 0.19370 0.55500 0.10700
H 	H 	0.24430 0.18370 0.54590 -0.01800
C 	C 	0.27900 0.17840 0.58230 -0.19000
H 	H 	0.26990 0.15770 0.59100 0.09300
C 	C 	0.19370 0.26450 0.55500 0.10700
H 	H 	0.18370 0.24430 0.54590 -0.01800
C 	C 	0.17840 0.27900 0.58230 -0.19000
H 	H 	0.15770 0.26990 0.59100 0.09300
C 	C 	0.30630 0.23550 0.55500 0.10700
H 	H 	0.31630 0.25570 0.54590 -0.01800
C 	C 	0.32160 0.22100 0.58230 -0.19000
H 	H 	0.34230 0.23010 0.59100 0.09300
C 	C 	0.26450 0.19370 0.44500 0.10700
H 	H 	0.24430 0.18370 0.45410 -0.01800
C 	C 	0.27900 0.17840 0.41770 -0.19000
H 	H 	0.26990 0.15770 0.40900 0.09300
C 	C 	0.23550 0.30630 0.44500 0.10700
H 	H 	0.25570 0.31630 0.45410 -0.01800
C 	C 	0.22100 0.32160 0.41770 -0.19000
H 	H 	0.23010 0.34230 0.40900 0.09300
Fe	Fe	0.25000 0.25000 0.50000 1.14000
N 	N 	0.27700 0.22300 0.46080 -0.25800
C 	C 	0.30700 0.19300 0.40270 0.10100
N 	N 	0.22300 0.27700 0.46080 -0.25800
C 	C 	0.19300 0.30700 0.40270 0.10100
N 	N 	0.22300 0.27700 0.53920 -0.25800
C 	C 	0.19300 0.30700 0.59730 0.10100
N 	N 	0.27700 0.22300 0.53920 -0.25800
C 	C 	0.30700 0.19300 0.59730 0.10100
N 	N 	0.21080 0.21080 0.50000 -0.23900
N 	N 	0.28920 0.28920 0.50000 -0.23900
C 	C 	0.19350 0.18230 0.50000 0.04000
S 	S 	0.17810 0.15100 0.50000 -0.03500
C 	C 	0.30650 0.31770 0.50000 0.03900
S 	S 	0.32190 0.34900 0.50000 -0.03500
C 	C 	0.18230 0.19350 0.50000 0.04000
S 	S 	0.15100 0.17810 0.50000 -0.03500
C 	C 	0.31770 0.30650 0.50000 0.03900
S 	S 	0.34900 0.32190 0.50000 -0.03500
C 	C 	0.30630 0.73550 0.94500 0.10800
H 	H 	0.31630 0.75570 0.95410 -0.01700
C 	C 	0.32160 0.72100 0.91770 -0.19000
H 	H 	0.34230 0.73010 0.90900 0.09300
C 	C 	0.19370 0.76450 0.94500 0.10800
H 	H 	0.18370 0.74430 0.95410 -0.01700
C 	C 	0.17840 0.77900 0.91770 -0.19000
H 	H 	0.15770 0.76990 0.90900 0.09300
C 	C 	0.23550 0.80630 0.05500 0.10700
H 	H 	0.25570 0.81630 0.04590 -0.01800
C 	C 	0.22100 0.82160 0.08230 -0.19000
H 	H 	0.23010 0.84230 0.09100 0.09300
C 	C 	0.26450 0.69370 0.05500 0.10700
H 	H 	0.24430 0.68370 0.04590 -0.01800
C 	C 	0.27900 0.67840 0.08230 -0.19000
H 	H 	0.26990 0.65770 0.09100 0.09300
C 	C 	0.19370 0.76450 0.05500 0.10700
H 	H 	0.18370 0.74430 0.04590 -0.01800
C 	C 	0.17840 0.77900 0.08230 -0.19000
H 	H 	0.15770 0.76990 0.09100 0.09300
C 	C 	0.30630 0.73550 0.05500 0.10700
H 	H 	0.31630 0.75570 0.04590 -0.01800
C 	C 	0.32160 0.72100 0.08230 -0.19000
H 	H 	0.34230 0.73010 0.09100 0.09300
C 	C 	0.26450 0.69370 0.94500 0.10800
H 	H 	0.24430 0.68370 0.95410 -0.01700
C 	C 	0.27900 0.67840 0.91770 -0.19000
H 	H 	0.26990 0.65770 0.90900 0.09300
C 	C 	0.23550 0.80630 0.94500 0.10800
H 	H 	0.25570 0.81630 0.95410 -0.01700
C 	C 	0.22100 0.82160 0.91770 -0.19000
H 	H 	0.23010 0.84230 0.90900 0.09300
Fe	Fe	0.25000 0.75000 -0.00000 1.13900
N 	N 	0.27700 0.72300 0.96080 -0.25700
C 	C 	0.30700 0.69300 0.90270 0.10100
N 	N 	0.22300 0.77700 0.96080 -0.25700
C 	C 	0.19300 0.80700 0.90270 0.10200
N 	N 	0.22300 0.77700 0.03920 -0.25800
C 	C 	0.19300 0.80700 0.09730 0.10100
N 	N 	0.27700 0.72300 0.03920 -0.25800
C 	C 	0.30700 0.69300 0.09730 0.10100
N 	N 	0.28920 0.78920 -0.00000 -0.23900
N 	N 	0.21080 0.71080 -0.00000 -0.24000
C 	C 	0.19350 0.68230 -0.00000 0.04000
S 	S 	0.17810 0.65100 -0.00000 -0.03600
C 	C 	0.30650 0.81770 -0.00000 0.03900
S 	S 	0.32190 0.84900 -0.00000 -0.03500
C 	C 	0.18230 0.69350 -0.00000 0.03900
S 	S 	0.15100 0.67810 -0.00000 -0.03600
C 	C 	0.31770 0.80650 -0.00000 0.03900
S 	S 	0.34900 0.82190 -0.00000 -0.03500
C 	C 	0.05500 0.19370 0.23550 0.10700
H 	H 	0.04590 0.18370 0.25570 -0.01800
C 	C 	0.08230 0.17840 0.22100 -0.19000
H 	H 	0.09100 0.15770 0.23010 0.09300
C 	C 	0.05500 0.30630 0.26450 0.10700
H 	H 	0.04590 0.31630 0.24430 -0.01800
C 	C 	0.08230 0.32160 0.27900 -0.19000
H 	H 	0.09100 0.34230 0.26990 0.09300
C 	C 	0.94500 0.23550 0.19370 0.10800
H 	H 	0.95410 0.25570 0.18370 -0.01700
C 	C 	0.91770 0.22100 0.17840 -0.18900
H 	H 	0.90900 0.23010 0.15770 0.09300
C 	C 	0.94500 0.26450 0.30630 0.10800
H 	H 	0.95410 0.24430 0.31630 -0.01700
C 	C 	0.91770 0.27900 0.32160 -0.19000
H 	H 	0.90900 0.26990 0.34230 0.09300
C 	C 	0.94500 0.30630 0.26450 0.10800
H 	H 	0.95410 0.31630 0.24430 -0.01700
C 	C 	0.91770 0.32160 0.27900 -0.19000
H 	H 	0.90900 0.34230 0.26990 0.09300
C 	C 	0.94500 0.19370 0.23550 0.10800
H 	H 	0.95410 0.18370 0.25570 -0.01700
C 	C 	0.91770 0.17840 0.22100 -0.18900
H 	H 	0.90900 0.15770 0.23010 0.09300
C 	C 	0.05500 0.26450 0.30630 0.10700
H 	H 	0.04590 0.24430 0.31630 -0.01800
C 	C 	0.08230 0.27900 0.32160 -0.19000
H 	H 	0.09100 0.26990 0.34230 0.09300
C 	C 	0.05500 0.23550 0.19370 0.10700
H 	H 	0.04590 0.25570 0.18370 -0.01800
C 	C 	0.08230 0.22100 0.17840 -0.19000
H 	H 	0.09100 0.23010 0.15770 0.09300
Fe	Fe	0.00000 0.25000 0.25000 1.13900
N 	N 	0.03920 0.22300 0.22300 -0.25800
C 	C 	0.09730 0.19300 0.19300 0.10000
N 	N 	0.03920 0.27700 0.27700 -0.25800
C 	C 	0.09730 0.30700 0.30700 0.10100
N 	N 	0.96080 0.22300 0.22300 -0.25600
C 	C 	0.90270 0.19300 0.19300 0.10100
N 	N 	0.96080 0.27700 0.27700 -0.25700
C 	C 	0.90270 0.30700 0.30700 0.10100
N 	N 	0.00000 0.28920 0.21080 -0.24000
N 	N 	0.00000 0.21080 0.28920 -0.24000
C 	C 	-0.00000 0.30650 0.18230 0.03900
S 	S 	-0.00000 0.32190 0.15100 -0.03600
C 	C 	-0.00000 0.19350 0.31770 0.04000
S 	S 	0.00000 0.17810 0.34900 -0.03600
C 	C 	-0.00000 0.18230 0.30650 0.03900
S 	S 	-0.00000 0.15100 0.32190 -0.03600
C 	C 	0.00000 0.31770 0.19350 0.04000
S 	S 	0.00000 0.34900 0.17810 -0.03600
C 	C 	0.05500 0.69370 0.73550 0.10700
H 	H 	0.04590 0.68370 0.75570 -0.01800
C 	C 	0.08230 0.67840 0.72100 -0.19000
H 	H 	0.09100 0.65770 0.73010 0.09300
C 	C 	0.05500 0.80630 0.76450 0.10800
H 	H 	0.04590 0.81630 0.74430 -0.01800
C 	C 	0.08230 0.82160 0.77900 -0.19000
H 	H 	0.09100 0.84230 0.76990 0.09300
C 	C 	0.94500 0.73550 0.69370 0.10800
H 	H 	0.95410 0.75570 0.68370 -0.01700
C 	C 	0.91770 0.72100 0.67840 -0.19000
H 	H 	0.90900 0.73010 0.65770 0.09300
C 	C 	0.94500 0.76450 0.80630 0.10800
H 	H 	0.95410 0.74430 0.81630 -0.01700
C 	C 	0.91770 0.77900 0.82160 -0.19000
H 	H 	0.90900 0.76990 0.84230 0.09400
C 	C 	0.94500 0.80630 0.76450 0.10800
H 	H 	0.95410 0.81630 0.74430 -0.01700
C 	C 	0.91770 0.82160 0.77900 -0.19000
H 	H 	0.90900 0.84230 0.76990 0.09400
C 	C 	0.94500 0.69370 0.73550 0.10800
H 	H 	0.95410 0.68370 0.75570 -0.01700
C 	C 	0.91770 0.67840 0.72100 -0.19000
H 	H 	0.90900 0.65770 0.73010 0.09300
C 	C 	0.05500 0.76450 0.80630 0.10800
H 	H 	0.04590 0.74430 0.81630 -0.01800
C 	C 	0.08230 0.77900 0.82160 -0.19000
H 	H 	0.09100 0.76990 0.84230 0.09300
C 	C 	0.05500 0.73550 0.69370 0.10700
H 	H 	0.04590 0.75570 0.68370 -0.01800
C 	C 	0.08230 0.72100 0.67840 -0.19000
H 	H 	0.09100 0.73010 0.65770 0.09300
Fe	Fe	0.00000 0.75000 0.75000 1.13900
N 	N 	0.03920 0.72300 0.72300 -0.25800
C 	C 	0.09730 0.69300 0.69300 0.10100
N 	N 	0.03920 0.77700 0.77700 -0.25800
C 	C 	0.09730 0.80700 0.80700 0.10100
N 	N 	0.96080 0.72300 0.72300 -0.25700
C 	C 	0.90270 0.69300 0.69300 0.10100
N 	N 	0.96080 0.77700 0.77700 -0.25700
C 	C 	0.90270 0.80700 0.80700 0.10200
N 	N 	-0.00000 0.71080 0.78920 -0.23900
N 	N 	-0.00000 0.78920 0.71080 -0.23900
C 	C 	0.00000 0.80650 0.68230 0.03900
S 	S 	-0.00000 0.82190 0.65100 -0.03600
C 	C 	-0.00000 0.69350 0.81770 0.03900
S 	S 	-0.00000 0.67810 0.84900 -0.03500
C 	C 	-0.00000 0.68230 0.80650 0.03900
S 	S 	-0.00000 0.65100 0.82190 -0.03600
C 	C 	0.00000 0.81770 0.69350 0.03900
S 	S 	-0.00000 0.84900 0.67810 -0.03500
C 	C 	0.55500 0.19370 0.73550 0.10700
H 	H 	0.54590 0.18370 0.75570 -0.01800
C 	C 	0.58230 0.17840 0.72100 -0.19000
H 	H 	0.59100 0.15770 0.73010 0.09300
C 	C 	0.55500 0.30630 0.76450 0.10800
H 	H 	0.54590 0.31630 0.74430 -0.01800
C 	C 	0.58230 0.32160 0.77900 -0.19000
H 	H 	0.59100 0.34230 0.76990 0.09300
C 	C 	0.44500 0.23550 0.69370 0.10700
H 	H 	0.45410 0.25570 0.68370 -0.01800
C 	C 	0.41770 0.22100 0.67840 -0.19000
H 	H 	0.40900 0.23010 0.65770 0.09300
C 	C 	0.44500 0.26450 0.80630 0.10800
H 	H 	0.45410 0.24430 0.81630 -0.01800
C 	C 	0.41770 0.27900 0.82160 -0.19000
H 	H 	0.40900 0.26990 0.84230 0.09300
C 	C 	0.44500 0.30630 0.76450 0.10800
H 	H 	0.45410 0.31630 0.74430 -0.01800
C 	C 	0.41770 0.32160 0.77900 -0.19000
H 	H 	0.40900 0.34230 0.76990 0.09300
C 	C 	0.44500 0.19370 0.73550 0.10700
H 	H 	0.45410 0.18370 0.75570 -0.01800
C 	C 	0.41770 0.17840 0.72100 -0.19000
H 	H 	0.40900 0.15770 0.73010 0.09300
C 	C 	0.55500 0.26450 0.80630 0.10800
H 	H 	0.54590 0.24430 0.81630 -0.01800
C 	C 	0.58230 0.27900 0.82160 -0.19000
H 	H 	0.59100 0.26990 0.84230 0.09300
C 	C 	0.55500 0.23550 0.69370 0.10700
H 	H 	0.54590 0.25570 0.68370 -0.01800
C 	C 	0.58230 0.22100 0.67840 -0.19000
H 	H 	0.59100 0.23010 0.65770 0.09300
Fe	Fe	0.50000 0.25000 0.75000 1.14000
N 	N 	0.53920 0.22300 0.72300 -0.25800
C 	C 	0.59730 0.19300 0.69300 0.10100
N 	N 	0.53920 0.27700 0.77700 -0.25800
C 	C 	0.59730 0.30700 0.80700 0.10100
N 	N 	0.46080 0.22300 0.72300 -0.25800
C 	C 	0.40270 0.19300 0.69300 0.10100
N 	N 	0.46080 0.27700 0.77700 -0.25800
C 	C 	0.40270 0.30700 0.80700 0.10100
N 	N 	0.50000 0.28920 0.71080 -0.23900
N 	N 	0.50000 0.21080 0.78920 -0.23900
C 	C 	0.50000 0.30650 0.68230 0.03900
S 	S 	0.50000 0.32190 0.65100 -0.03500
C 	C 	0.50000 0.19350 0.81770 0.04000
S 	S 	0.50000 0.17810 0.84900 -0.03400
C 	C 	0.50000 0.18230 0.80650 0.03900
S 	S 	0.50000 0.15100 0.82190 -0.03500
C 	C 	0.50000 0.31770 0.69350 0.04000
S 	S 	0.50000 0.34900 0.67810 -0.03500
C 	C 	0.55500 0.69370 0.23550 0.10700
H 	H 	0.54590 0.68370 0.25570 -0.01800
C 	C 	0.58230 0.67840 0.22100 -0.19000
H 	H 	0.59100 0.65770 0.23010 0.09300
C 	C 	0.55500 0.80630 0.26450 0.10800
H 	H 	0.54590 0.81630 0.24430 -0.01800
C 	C 	0.58230 0.82160 0.27900 -0.19000
H 	H 	0.59100 0.84230 0.26990 0.09300
C 	C 	0.44500 0.73550 0.19370 0.10700
H 	H 	0.45410 0.75570 0.18370 -0.01800
C 	C 	0.41770 0.72100 0.17840 -0.19000
H 	H 	0.40900 0.73010 0.15770 0.09300
C 	C 	0.44500 0.76450 0.30630 0.10800
H 	H 	0.45410 0.74430 0.31630 -0.01800
C 	C 	0.41770 0.77900 0.32160 -0.19000
H 	H 	0.40900 0.76990 0.34230 0.09300
C 	C 	0.44500 0.80630 0.26450 0.10800
H 	H 	0.45410 0.81630 0.24430 -0.01800
C 	C 	0.41770 0.82160 0.27900 -0.19000
H 	H 	0.40900 0.84230 0.26990 0.09300
C 	C 	0.44500 0.69370 0.23550 0.10700
H 	H 	0.45410 0.68370 0.25570 -0.01800
C 	C 	0.41770 0.67840 0.22100 -0.19000
H 	H 	0.40900 0.65770 0.23010 0.09300
C 	C 	0.55500 0.76450 0.30630 0.10800
H 	H 	0.54590 0.74430 0.31630 -0.01800
C 	C 	0.58230 0.77900 0.32160 -0.19000
H 	H 	0.59100 0.76990 0.34230 0.09300
C 	C 	0.55500 0.73550 0.19370 0.10700
H 	H 	0.54590 0.75570 0.18370 -0.01800
C 	C 	0.58230 0.72100 0.17840 -0.19000
H 	H 	0.59100 0.73010 0.15770 0.09300
Fe	Fe	0.50000 0.75000 0.25000 1.14000
N 	N 	0.53920 0.72300 0.22300 -0.25800
C 	C 	0.59730 0.69300 0.19300 0.10100
N 	N 	0.53920 0.77700 0.27700 -0.25800
C 	C 	0.59730 0.80700 0.30700 0.10100
N 	N 	0.46080 0.72300 0.22300 -0.25800
C 	C 	0.40270 0.69300 0.19300 0.10100
N 	N 	0.46080 0.77700 0.27700 -0.25800
C 	C 	0.40270 0.80700 0.30700 0.10100
N 	N 	0.50000 0.71080 0.28920 -0.23900
N 	N 	0.50000 0.78920 0.21080 -0.23900
C 	C 	0.50000 0.80650 0.18230 0.03900
S 	S 	0.50000 0.82190 0.15100 -0.03500
C 	C 	0.50000 0.69350 0.31770 0.04000
S 	S 	0.50000 0.67810 0.34900 -0.03500
C 	C 	0.50000 0.68230 0.30650 0.03900
S 	S 	0.50000 0.65100 0.32190 -0.03500
C 	C 	0.50000 0.81770 0.19350 0.04000
S 	S 	0.50000 0.84900 0.17810 -0.03400
C 	C 	0.94500 0.80630 0.23550 0.10800
H 	H 	0.95410 0.81630 0.25570 -0.01700
C 	C 	0.91770 0.82160 0.22100 -0.19000
H 	H 	0.90900 0.84230 0.23010 0.09300
C 	C 	0.94500 0.69370 0.26450 0.10800
H 	H 	0.95410 0.68370 0.24430 -0.01700
C 	C 	0.91770 0.67840 0.27900 -0.19000
H 	H 	0.90900 0.65770 0.26990 0.09300
C 	C 	0.05500 0.73550 0.30630 0.10700
H 	H 	0.04590 0.75570 0.31630 -0.01800
C 	C 	0.08230 0.72100 0.32160 -0.19000
H 	H 	0.09100 0.73010 0.34230 0.09300
C 	C 	0.05500 0.76450 0.19370 0.10700
H 	H 	0.04590 0.74430 0.18370 -0.01800
C 	C 	0.08230 0.77900 0.17840 -0.19000
H 	H 	0.09100 0.76990 0.15770 0.09300
C 	C 	0.05500 0.69370 0.26450 0.10700
H 	H 	0.04590 0.68370 0.24430 -0.01800
C 	C 	0.08230 0.67840 0.27900 -0.19000
H 	H 	0.09100 0.65770 0.26990 0.09300
C 	C 	0.05500 0.80630 0.23550 0.10700
H 	H 	0.04590 0.81630 0.25570 -0.01800
C 	C 	0.08230 0.82160 0.22100 -0.19000
H 	H 	0.09100 0.84230 0.23010 0.09300
C 	C 	0.94500 0.76450 0.19370 0.10800
H 	H 	0.95410 0.74430 0.18370 -0.01700
C 	C 	0.91770 0.77900 0.17840 -0.19000
H 	H 	0.90900 0.76990 0.15770 0.09300
C 	C 	0.94500 0.73550 0.30630 0.10800
H 	H 	0.95410 0.75570 0.31630 -0.01700
C 	C 	0.91770 0.72100 0.32160 -0.19000
H 	H 	0.90900 0.73010 0.34230 0.09300
Fe	Fe	0.00000 0.75000 0.25000 1.13900
N 	N 	0.96080 0.77700 0.22300 -0.25700
C 	C 	0.90270 0.80700 0.19300 0.10200
N 	N 	0.96080 0.72300 0.27700 -0.25700
C 	C 	0.90270 0.69300 0.30700 0.10100
N 	N 	0.03920 0.72300 0.27700 -0.25800
C 	C 	0.09730 0.69300 0.30700 0.10100
N 	N 	0.03920 0.77700 0.22300 -0.25800
C 	C 	0.09730 0.80700 0.19300 0.10100
N 	N 	-0.00000 0.71080 0.21080 -0.24000
N 	N 	0.00000 0.78920 0.28920 -0.23900
C 	C 	0.00000 0.69350 0.18230 0.03900
S 	S 	-0.00000 0.67810 0.15100 -0.03600
C 	C 	0.00000 0.80650 0.31770 0.03900
S 	S 	0.00000 0.82190 0.34900 -0.03500
C 	C 	0.00000 0.68230 0.19350 0.04000
S 	S 	-0.00000 0.65100 0.17810 -0.03600
C 	C 	-0.00000 0.81770 0.30650 0.03900
S 	S 	-0.00000 0.84900 0.32190 -0.03500
C 	C 	0.94500 0.30630 0.73550 0.10800
H 	H 	0.95410 0.31630 0.75570 -0.01700
C 	C 	0.91770 0.32160 0.72100 -0.19000
H 	H 	0.90900 0.34230 0.73010 0.09300
C 	C 	0.94500 0.19370 0.76450 0.10800
H 	H 	0.95410 0.18370 0.74430 -0.01700
C 	C 	0.91770 0.17840 0.77900 -0.19000
H 	H 	0.90900 0.15770 0.76990 0.09300
C 	C 	0.05500 0.23550 0.80630 0.10700
H 	H 	0.04590 0.25570 0.81630 -0.01800
C 	C 	0.08230 0.22100 0.82160 -0.19000
H 	H 	0.09100 0.23010 0.84230 0.09300
C 	C 	0.05500 0.26450 0.69370 0.10700
H 	H 	0.04590 0.24430 0.68370 -0.01800
C 	C 	0.08230 0.27900 0.67840 -0.19000
H 	H 	0.09100 0.26990 0.65770 0.09300
C 	C 	0.05500 0.19370 0.76450 0.10700
H 	H 	0.04590 0.18370 0.74430 -0.01800
C 	C 	0.08230 0.17840 0.77900 -0.19000
H 	H 	0.09100 0.15770 0.76990 0.09300
C 	C 	0.05500 0.30630 0.73550 0.10700
H 	H 	0.04590 0.31630 0.75570 -0.01800
C 	C 	0.08230 0.32160 0.72100 -0.19000
H 	H 	0.09100 0.34230 0.73010 0.09300
C 	C 	0.94500 0.26450 0.69370 0.10800
H 	H 	0.95410 0.24430 0.68370 -0.01700
C 	C 	0.91770 0.27900 0.67840 -0.19000
H 	H 	0.90900 0.26990 0.65770 0.09300
C 	C 	0.94500 0.23550 0.80630 0.10800
H 	H 	0.95410 0.25570 0.81630 -0.01700
C 	C 	0.91770 0.22100 0.82160 -0.19000
H 	H 	0.90900 0.23010 0.84230 0.09300
Fe	Fe	0.00000 0.25000 0.75000 1.13900
N 	N 	0.96080 0.27700 0.72300 -0.25700
C 	C 	0.90270 0.30700 0.69300 0.10100
N 	N 	0.96080 0.22300 0.77700 -0.25700
C 	C 	0.90270 0.19300 0.80700 0.10200
N 	N 	0.03920 0.22300 0.77700 -0.25800
C 	C 	0.09730 0.19300 0.80700 0.10100
N 	N 	0.03920 0.27700 0.72300 -0.25800
C 	C 	0.09730 0.30700 0.69300 0.10100
N 	N 	-0.00000 0.28920 0.78920 -0.23900
N 	N 	-0.00000 0.21080 0.71080 -0.24000
C 	C 	-0.00000 0.19350 0.68230 0.04000
S 	S 	-0.00000 0.17810 0.65100 -0.03600
C 	C 	-0.00000 0.30650 0.81770 0.03900
S 	S 	-0.00000 0.32190 0.84900 -0.03500
C 	C 	0.00000 0.18230 0.69350 0.03900
S 	S 	-0.00000 0.15100 0.67810 -0.03600
C 	C 	0.00000 0.31770 0.80650 0.03900
S 	S 	-0.00000 0.34900 0.82190 -0.03500
C 	C 	0.44500 0.80630 0.73550 0.10800
H 	H 	0.45410 0.81630 0.75570 -0.01800
C 	C 	0.41770 0.82160 0.72100 -0.19000
H 	H 	0.40900 0.84230 0.73010 0.09300
C 	C 	0.44500 0.69370 0.76450 0.10800
H 	H 	0.45410 0.68370 0.74430 -0.01800
C 	C 	0.41770 0.67840 0.77900 -0.19000
H 	H 	0.40900 0.65770 0.76990 0.09300
C 	C 	0.55500 0.73550 0.80630 0.10800
H 	H 	0.54590 0.75570 0.81630 -0.01800
C 	C 	0.58230 0.72100 0.82160 -0.19000
H 	H 	0.59100 0.73010 0.84230 0.09300
C 	C 	0.55500 0.76450 0.69370 0.10800
H 	H 	0.54590 0.74430 0.68370 -0.01800
C 	C 	0.58230 0.77900 0.67840 -0.19000
H 	H 	0.59100 0.76990 0.65770 0.09300
C 	C 	0.55500 0.69370 0.76450 0.10800
H 	H 	0.54590 0.68370 0.74430 -0.01800
C 	C 	0.58230 0.67840 0.77900 -0.19000
H 	H 	0.59100 0.65770 0.76990 0.09300
C 	C 	0.55500 0.80630 0.73550 0.10800
H 	H 	0.54590 0.81630 0.75570 -0.01800
C 	C 	0.58230 0.82160 0.72100 -0.19000
H 	H 	0.59100 0.84230 0.73010 0.09300
C 	C 	0.44500 0.76450 0.69370 0.10800
H 	H 	0.45410 0.74430 0.68370 -0.01800
C 	C 	0.41770 0.77900 0.67840 -0.19000
H 	H 	0.40900 0.76990 0.65770 0.09300
C 	C 	0.44500 0.73550 0.80630 0.10800
H 	H 	0.45410 0.75570 0.81630 -0.01800
C 	C 	0.41770 0.72100 0.82160 -0.19000
H 	H 	0.40900 0.73010 0.84230 0.09300
Fe	Fe	0.50000 0.75000 0.75000 1.14000
N 	N 	0.46080 0.77700 0.72300 -0.25800
C 	C 	0.40270 0.80700 0.69300 0.10100
N 	N 	0.46080 0.72300 0.77700 -0.25800
C 	C 	0.40270 0.69300 0.80700 0.10100
N 	N 	0.53920 0.72300 0.77700 -0.25800
C 	C 	0.59730 0.69300 0.80700 0.10100
N 	N 	0.53920 0.77700 0.72300 -0.25800
C 	C 	0.59730 0.80700 0.69300 0.10100
N 	N 	0.50000 0.71080 0.71080 -0.23900
N 	N 	0.50000 0.78920 0.78920 -0.23800
C 	C 	0.50000 0.69350 0.68230 0.03900
S 	S 	0.50000 0.67810 0.65100 -0.03500
C 	C 	0.50000 0.80650 0.81770 0.03900
S 	S 	0.50000 0.82190 0.84900 -0.03300
C 	C 	0.50000 0.68230 0.69350 0.03900
S 	S 	0.50000 0.65100 0.67810 -0.03500
C 	C 	0.50000 0.81770 0.80650 0.03900
S 	S 	0.50000 0.84900 0.82190 -0.03300
C 	C 	0.44500 0.30630 0.23550 0.10700
H 	H 	0.45410 0.31630 0.25570 -0.01800
C 	C 	0.41770 0.32160 0.22100 -0.19000
H 	H 	0.40900 0.34230 0.23010 0.09300
C 	C 	0.44500 0.19370 0.26450 0.10700
H 	H 	0.45410 0.18370 0.24430 -0.01800
C 	C 	0.41770 0.17840 0.27900 -0.19000
H 	H 	0.40900 0.15770 0.26990 0.09300
C 	C 	0.55500 0.23550 0.30630 0.10700
H 	H 	0.54590 0.25570 0.31630 -0.01800
C 	C 	0.58230 0.22100 0.32160 -0.19000
H 	H 	0.59100 0.23010 0.34230 0.09300
C 	C 	0.55500 0.26450 0.19370 0.10700
H 	H 	0.54590 0.24430 0.18370 -0.01800
C 	C 	0.58230 0.27900 0.17840 -0.19000
H 	H 	0.59100 0.26990 0.15770 0.09300
C 	C 	0.55500 0.19370 0.26450 0.10700
H 	H 	0.54590 0.18370 0.24430 -0.01800
C 	C 	0.58230 0.17840 0.27900 -0.19000
H 	H 	0.59100 0.15770 0.26990 0.09300
C 	C 	0.55500 0.30630 0.23550 0.10700
H 	H 	0.54590 0.31630 0.25570 -0.01800
C 	C 	0.58230 0.32160 0.22100 -0.19000
H 	H 	0.59100 0.34230 0.23010 0.09300
C 	C 	0.44500 0.26450 0.19370 0.10700
H 	H 	0.45410 0.24430 0.18370 -0.01800
C 	C 	0.41770 0.27900 0.17840 -0.19000
H 	H 	0.40900 0.26990 0.15770 0.09300
C 	C 	0.44500 0.23550 0.30630 0.10700
H 	H 	0.45410 0.25570 0.31630 -0.01800
C 	C 	0.41770 0.22100 0.32160 -0.19000
H 	H 	0.40900 0.23010 0.34230 0.09300
Fe	Fe	0.50000 0.25000 0.25000 1.14000
N 	N 	0.46080 0.27700 0.22300 -0.25800
C 	C 	0.40270 0.30700 0.19300 0.10100
N 	N 	0.46080 0.22300 0.27700 -0.25800
C 	C 	0.40270 0.19300 0.30700 0.10100
N 	N 	0.53920 0.22300 0.27700 -0.25800
C 	C 	0.59730 0.19300 0.30700 0.10100
N 	N 	0.53920 0.27700 0.22300 -0.25800
C 	C 	0.59730 0.30700 0.19300 0.10100
N 	N 	0.50000 0.21080 0.21080 -0.23900
N 	N 	0.50000 0.28920 0.28920 -0.23900
C 	C 	0.50000 0.19350 0.18230 0.04000
S 	S 	0.50000 0.17810 0.15100 -0.03500
C 	C 	0.50000 0.30650 0.31770 0.03900
S 	S 	0.50000 0.32190 0.34900 -0.03500
C 	C 	0.50000 0.18230 0.19350 0.04000
S 	S 	0.50000 0.15100 0.17810 -0.03500
C 	C 	0.50000 0.31770 0.30650 0.03900
S 	S 	0.50000 0.34900 0.32190 -0.03500
C 	C 	0.23550 0.05500 0.19370 0.10700
H 	H 	0.25570 0.04590 0.18370 -0.01800
C 	C 	0.22100 0.08230 0.17840 -0.19000
H 	H 	0.23010 0.09100 0.15770 0.09300
C 	C 	0.26450 0.05500 0.30630 0.10700
H 	H 	0.24430 0.04590 0.31630 -0.01800
C 	C 	0.27900 0.08230 0.32160 -0.19000
H 	H 	0.26990 0.09100 0.34230 0.09300
C 	C 	0.30630 0.94500 0.26450 0.10800
H 	H 	0.31630 0.95410 0.24430 -0.01700
C 	C 	0.32160 0.91770 0.27900 -0.19000
H 	H 	0.34230 0.90900 0.26990 0.09300
C 	C 	0.19370 0.94500 0.23550 0.10800
H 	H 	0.18370 0.95410 0.25570 -0.01700
C 	C 	0.17840 0.91770 0.22100 -0.18900
H 	H 	0.15770 0.90900 0.23010 0.09300
C 	C 	0.26450 0.94500 0.30630 0.10800
H 	H 	0.24430 0.95410 0.31630 -0.01700
C 	C 	0.27900 0.91770 0.32160 -0.19000
H 	H 	0.26990 0.90900 0.34230 0.09300
C 	C 	0.23550 0.94500 0.19370 0.10800
H 	H 	0.25570 0.95410 0.18370 -0.01700
C 	C 	0.22100 0.91770 0.17840 -0.18900
H 	H 	0.23010 0.90900 0.15770 0.09300
C 	C 	0.19370 0.05500 0.23550 0.10700
H 	H 	0.18370 0.04590 0.25570 -0.01800
C 	C 	0.17840 0.08230 0.22100 -0.19000
H 	H 	0.15770 0.09100 0.23010 0.09300
C 	C 	0.30630 0.05500 0.26450 0.10700
H 	H 	0.31630 0.04590 0.24430 -0.01800
C 	C 	0.32160 0.08230 0.27900 -0.19000
H 	H 	0.34230 0.09100 0.26990 0.09300
Fe	Fe	0.25000 0.00000 0.25000 1.13900
N 	N 	0.22300 0.03920 0.22300 -0.25800
C 	C 	0.19300 0.09730 0.19300 0.10000
N 	N 	0.27700 0.03920 0.27700 -0.25800
C 	C 	0.30700 0.09730 0.30700 0.10100
N 	N 	0.27700 0.96080 0.27700 -0.25700
C 	C 	0.30700 0.90270 0.30700 0.10100
N 	N 	0.22300 0.96080 0.22300 -0.25600
C 	C 	0.19300 0.90270 0.19300 0.10100
N 	N 	0.21080 0.00000 0.28920 -0.24000
N 	N 	0.28920 0.00000 0.21080 -0.24000
C 	C 	0.18230 0.00000 0.30650 0.03900
S 	S 	0.15100 -0.00000 0.32190 -0.03600
C 	C 	0.31770 0.00000 0.19350 0.04000
S 	S 	0.34900 0.00000 0.17810 -0.03600
C 	C 	0.19350 0.00000 0.31770 0.04000
S 	S 	0.17810 0.00000 0.34900 -0.03600
C 	C 	0.30650 -0.00000 0.18230 0.03900
S 	S 	0.32190 0.00000 0.15100 -0.03600
C 	C 	0.23550 0.55500 0.69370 0.10700
H 	H 	0.25570 0.54590 0.68370 -0.01800
C 	C 	0.22100 0.58230 0.67840 -0.19000
H 	H 	0.23010 0.59100 0.65770 0.09300
C 	C 	0.26450 0.55500 0.80630 0.10800
H 	H 	0.24430 0.54590 0.81630 -0.01800
C 	C 	0.27900 0.58230 0.82160 -0.19000
H 	H 	0.26990 0.59100 0.84230 0.09300
C 	C 	0.30630 0.44500 0.76450 0.10800
H 	H 	0.31630 0.45410 0.74430 -0.01800
C 	C 	0.32160 0.41770 0.77900 -0.19000
H 	H 	0.34230 0.40900 0.76990 0.09300
C 	C 	0.19370 0.44500 0.73550 0.10700
H 	H 	0.18370 0.45410 0.75570 -0.01800
C 	C 	0.17840 0.41770 0.72100 -0.19000
H 	H 	0.15770 0.40900 0.73010 0.09300
C 	C 	0.26450 0.44500 0.80630 0.10800
H 	H 	0.24430 0.45410 0.81630 -0.01800
C 	C 	0.27900 0.41770 0.82160 -0.19000
H 	H 	0.26990 0.40900 0.84230 0.09300
C 	C 	0.23550 0.44500 0.69370 0.10700
H 	H 	0.25570 0.45410 0.68370 -0.01800
C 	C 	0.22100 0.41770 0.67840 -0.19000
H 	H 	0.23010 0.40900 0.65770 0.09300
C 	C 	0.19370 0.55500 0.73550 0.10700
H 	H 	0.18370 0.54590 0.75570 -0.01800
C 	C 	0.17840 0.58230 0.72100 -0.19000
H 	H 	0.15770 0.59100 0.73010 0.09300
C 	C 	0.30630 0.55500 0.76450 0.10800
H 	H 	0.31630 0.54590 0.74430 -0.01800
C 	C 	0.32160 0.58230 0.77900 -0.19000
H 	H 	0.34230 0.59100 0.76990 0.09300
Fe	Fe	0.25000 0.50000 0.75000 1.14000
N 	N 	0.22300 0.53920 0.72300 -0.25800
C 	C 	0.19300 0.59730 0.69300 0.10100
N 	N 	0.27700 0.53920 0.77700 -0.25800
C 	C 	0.30700 0.59730 0.80700 0.10100
N 	N 	0.27700 0.46080 0.77700 -0.25800
C 	C 	0.30700 0.40270 0.80700 0.10100
N 	N 	0.22300 0.46080 0.72300 -0.25800
C 	C 	0.19300 0.40270 0.69300 0.10100
N 	N 	0.21080 0.50000 0.78920 -0.23900
N 	N 	0.28920 0.50000 0.71080 -0.23900
C 	C 	0.18230 0.50000 0.80650 0.03900
S 	S 	0.15100 0.50000 0.82190 -0.03500
C 	C 	0.31770 0.50000 0.69350 0.04000
S 	S 	0.34900 0.50000 0.67810 -0.03500
C 	C 	0.19350 0.50000 0.81770 0.04000
S 	S 	0.17810 0.50000 0.84900 -0.03400
C 	C 	0.30650 0.50000 0.68230 0.03900
S 	S 	0.32190 0.50000 0.65100 -0.03500
C 	C 	0.73550 0.05500 0.69370 0.10700
H 	H 	0.75570 0.04590 0.68370 -0.01800
C 	C 	0.72100 0.08230 0.67840 -0.19000
H 	H 	0.73010 0.09100 0.65770 0.09300
C 	C 	0.76450 0.05500 0.80630 0.10800
H 	H 	0.74430 0.04590 0.81630 -0.01800
C 	C 	0.77900 0.08230 0.82160 -0.19000
H 	H 	0.76990 0.09100 0.84230 0.09300
C 	C 	0.80630 0.94500 0.76450 0.10800
H 	H 	0.81630 0.95410 0.74430 -0.01700
C 	C 	0.82160 0.91770 0.77900 -0.19000
H 	H 	0.84230 0.90900 0.76990 0.09400
C 	C 	0.69370 0.94500 0.73550 0.10800
H 	H 	0.68370 0.95410 0.75570 -0.01700
C 	C 	0.67840 0.91770 0.72100 -0.19000
H 	H 	0.65770 0.90900 0.73010 0.09300
C 	C 	0.76450 0.94500 0.80630 0.10800
H 	H 	0.74430 0.95410 0.81630 -0.01700
C 	C 	0.77900 0.91770 0.82160 -0.19000
H 	H 	0.76990 0.90900 0.84230 0.09400
C 	C 	0.73550 0.94500 0.69370 0.10800
H 	H 	0.75570 0.95410 0.68370 -0.01700
C 	C 	0.72100 0.91770 0.67840 -0.19000
H 	H 	0.73010 0.90900 0.65770 0.09300
C 	C 	0.69370 0.05500 0.73550 0.10700
H 	H 	0.68370 0.04590 0.75570 -0.01800
C 	C 	0.67840 0.08230 0.72100 -0.19000
H 	H 	0.65770 0.09100 0.73010 0.09300
C 	C 	0.80630 0.05500 0.76450 0.10800
H 	H 	0.81630 0.04590 0.74430 -0.01800
C 	C 	0.82160 0.08230 0.77900 -0.19000
H 	H 	0.84230 0.09100 0.76990 0.09300
Fe	Fe	0.75000 0.00000 0.75000 1.13900
N 	N 	0.72300 0.03920 0.72300 -0.25800
C 	C 	0.69300 0.09730 0.69300 0.10100
N 	N 	0.77700 0.03920 0.77700 -0.25800
C 	C 	0.80700 0.09730 0.80700 0.10100
N 	N 	0.77700 0.96080 0.77700 -0.25700
C 	C 	0.80700 0.90270 0.80700 0.10200
N 	N 	0.72300 0.96080 0.72300 -0.25700
C 	C 	0.69300 0.90270 0.69300 0.10100
N 	N 	0.78920 0.00000 0.71080 -0.23900
N 	N 	0.71080 0.00000 0.78920 -0.23900
C 	C 	0.68230 0.00000 0.80650 0.03900
S 	S 	0.65100 0.00000 0.82190 -0.03600
C 	C 	0.81770 0.00000 0.69350 0.03900
S 	S 	0.84900 0.00000 0.67810 -0.03500
C 	C 	0.69350 -0.00000 0.81770 0.03900
S 	S 	0.67810 -0.00000 0.84900 -0.03500
C 	C 	0.80650 0.00000 0.68230 0.03900
S 	S 	0.82190 0.00000 0.65100 -0.03600
C 	C 	0.73550 0.55500 0.19370 0.10700
H 	H 	0.75570 0.54590 0.18370 -0.01800
C 	C 	0.72100 0.58230 0.17840 -0.19000
H 	H 	0.73010 0.59100 0.15770 0.09300
C 	C 	0.76450 0.55500 0.30630 0.10800
H 	H 	0.74430 0.54590 0.31630 -0.01800
C 	C 	0.77900 0.58230 0.32160 -0.19000
H 	H 	0.76990 0.59100 0.34230 0.09300
C 	C 	0.80630 0.44500 0.26450 0.10800
H 	H 	0.81630 0.45410 0.24430 -0.01800
C 	C 	0.82160 0.41770 0.27900 -0.19000
H 	H 	0.84230 0.40900 0.26990 0.09300
C 	C 	0.69370 0.44500 0.23550 0.10700
H 	H 	0.68370 0.45410 0.25570 -0.01800
C 	C 	0.67840 0.41770 0.22100 -0.19000
H 	H 	0.65770 0.40900 0.23010 0.09300
C 	C 	0.76450 0.44500 0.30630 0.10800
H 	H 	0.74430 0.45410 0.31630 -0.01800
C 	C 	0.77900 0.41770 0.32160 -0.19000
H 	H 	0.76990 0.40900 0.34230 0.09300
C 	C 	0.73550 0.44500 0.19370 0.10700
H 	H 	0.75570 0.45410 0.18370 -0.01800
C 	C 	0.72100 0.41770 0.17840 -0.19000
H 	H 	0.73010 0.40900 0.15770 0.09300
C 	C 	0.69370 0.55500 0.23550 0.10700
H 	H 	0.68370 0.54590 0.25570 -0.01800
C 	C 	0.67840 0.58230 0.22100 -0.19000
H 	H 	0.65770 0.59100 0.23010 0.09300
C 	C 	0.80630 0.55500 0.26450 0.10800
H 	H 	0.81630 0.54590 0.24430 -0.01800
C 	C 	0.82160 0.58230 0.27900 -0.19000
H 	H 	0.84230 0.59100 0.26990 0.09300
Fe	Fe	0.75000 0.50000 0.25000 1.14000
N 	N 	0.72300 0.53920 0.22300 -0.25800
C 	C 	0.69300 0.59730 0.19300 0.10100
N 	N 	0.77700 0.53920 0.27700 -0.25800
C 	C 	0.80700 0.59730 0.30700 0.10100
N 	N 	0.77700 0.46080 0.27700 -0.25800
C 	C 	0.80700 0.40270 0.30700 0.10100
N 	N 	0.72300 0.46080 0.22300 -0.25800
C 	C 	0.69300 0.40270 0.19300 0.10100
N 	N 	0.78920 0.50000 0.21080 -0.23900
N 	N 	0.71080 0.50000 0.28920 -0.23900
C 	C 	0.68230 0.50000 0.30650 0.03900
S 	S 	0.65100 0.50000 0.32190 -0.03500
C 	C 	0.81770 0.50000 0.19350 0.04000
S 	S 	0.84900 0.50000 0.17810 -0.03400
C 	C 	0.69350 0.50000 0.31770 0.04000
S 	S 	0.67810 0.50000 0.34900 -0.03500
C 	C 	0.80650 0.50000 0.18230 0.03900
S 	S 	0.82190 0.50000 0.15100 -0.03500
C 	C 	0.23550 0.94500 0.80630 0.10800
H 	H 	0.25570 0.95410 0.81630 -0.01700
C 	C 	0.22100 0.91770 0.82160 -0.19000
H 	H 	0.23010 0.90900 0.84230 0.09300
C 	C 	0.26450 0.94500 0.69370 0.10800
H 	H 	0.24430 0.95410 0.68370 -0.01700
C 	C 	0.27900 0.91770 0.67840 -0.19000
H 	H 	0.26990 0.90900 0.65770 0.09300
C 	C 	0.19370 0.05500 0.76450 0.10700
H 	H 	0.18370 0.04590 0.74430 -0.01800
C 	C 	0.17840 0.08230 0.77900 -0.19000
H 	H 	0.15770 0.09100 0.76990 0.09300
C 	C 	0.30630 0.05500 0.73550 0.10700
H 	H 	0.31630 0.04590 0.75570 -0.01800
C 	C 	0.32160 0.08230 0.72100 -0.19000
H 	H 	0.34230 0.09100 0.73010 0.09300
C 	C 	0.26450 0.05500 0.69370 0.10700
H 	H 	0.24430 0.04590 0.68370 -0.01800
C 	C 	0.27900 0.08230 0.67840 -0.19000
H 	H 	0.26990 0.09100 0.65770 0.09300
C 	C 	0.23550 0.05500 0.80630 0.10700
H 	H 	0.25570 0.04590 0.81630 -0.01800
C 	C 	0.22100 0.08230 0.82160 -0.19000
H 	H 	0.23010 0.09100 0.84230 0.09300
C 	C 	0.30630 0.94500 0.73550 0.10800
H 	H 	0.31630 0.95410 0.75570 -0.01700
C 	C 	0.32160 0.91770 0.72100 -0.19000
H 	H 	0.34230 0.90900 0.73010 0.09300
C 	C 	0.19370 0.94500 0.76450 0.10800
H 	H 	0.18370 0.95410 0.74430 -0.01700
C 	C 	0.17840 0.91770 0.77900 -0.19000
H 	H 	0.15770 0.90900 0.76990 0.09300
Fe	Fe	0.25000 0.00000 0.75000 1.13900
N 	N 	0.22300 0.96080 0.77700 -0.25700
C 	C 	0.19300 0.90270 0.80700 0.10200
N 	N 	0.27700 0.96080 0.72300 -0.25700
C 	C 	0.30700 0.90270 0.69300 0.10100
N 	N 	0.22300 0.03920 0.77700 -0.25800
C 	C 	0.19300 0.09730 0.80700 0.10100
N 	N 	0.27700 0.03920 0.72300 -0.25800
C 	C 	0.30700 0.09730 0.69300 0.10100
N 	N 	0.21080 0.00000 0.71080 -0.24000
N 	N 	0.28920 0.00000 0.78920 -0.23900
C 	C 	0.18230 0.00000 0.69350 0.03900
S 	S 	0.15100 0.00000 0.67810 -0.03600
C 	C 	0.31770 0.00000 0.80650 0.03900
S 	S 	0.34900 0.00000 0.82190 -0.03500
C 	C 	0.30650 -0.00000 0.81770 0.03900
S 	S 	0.32190 -0.00000 0.84900 -0.03500
C 	C 	0.19350 0.00000 0.68230 0.04000
S 	S 	0.17810 0.00000 0.65100 -0.03600
C 	C 	0.23550 0.44500 0.30630 0.10700
H 	H 	0.25570 0.45410 0.31630 -0.01800
C 	C 	0.22100 0.41770 0.32160 -0.19000
H 	H 	0.23010 0.40900 0.34230 0.09300
C 	C 	0.26450 0.44500 0.19370 0.10700
H 	H 	0.24430 0.45410 0.18370 -0.01800
C 	C 	0.27900 0.41770 0.17840 -0.19000
H 	H 	0.26990 0.40900 0.15770 0.09300
C 	C 	0.19370 0.55500 0.26450 0.10700
H 	H 	0.18370 0.54590 0.24430 -0.01800
C 	C 	0.17840 0.58230 0.27900 -0.19000
H 	H 	0.15770 0.59100 0.26990 0.09300
C 	C 	0.30630 0.55500 0.23550 0.10700
H 	H 	0.31630 0.54590 0.25570 -0.01800
C 	C 	0.32160 0.58230 0.22100 -0.19000
H 	H 	0.34230 0.59100 0.23010 0.09300
C 	C 	0.26450 0.55500 0.19370 0.10700
H 	H 	0.24430 0.54590 0.18370 -0.01800
C 	C 	0.27900 0.58230 0.17840 -0.19000
H 	H 	0.26990 0.59100 0.15770 0.09300
C 	C 	0.23550 0.55500 0.30630 0.10700
H 	H 	0.25570 0.54590 0.31630 -0.01800
C 	C 	0.22100 0.58230 0.32160 -0.19000
H 	H 	0.23010 0.59100 0.34230 0.09300
C 	C 	0.30630 0.44500 0.23550 0.10700
H 	H 	0.31630 0.45410 0.25570 -0.01800
C 	C 	0.32160 0.41770 0.22100 -0.19000
H 	H 	0.34230 0.40900 0.23010 0.09300
C 	C 	0.19370 0.44500 0.26450 0.10700
H 	H 	0.18370 0.45410 0.24430 -0.01800
C 	C 	0.17840 0.41770 0.27900 -0.19000
H 	H 	0.15770 0.40900 0.26990 0.09300
Fe	Fe	0.25000 0.50000 0.25000 1.14000
N 	N 	0.22300 0.46080 0.27700 -0.25800
C 	C 	0.19300 0.40270 0.30700 0.10100
N 	N 	0.27700 0.46080 0.22300 -0.25800
C 	C 	0.30700 0.40270 0.19300 0.10100
N 	N 	0.22300 0.53920 0.27700 -0.25800
C 	C 	0.19300 0.59730 0.30700 0.10100
N 	N 	0.27700 0.53920 0.22300 -0.25800
C 	C 	0.30700 0.59730 0.19300 0.10100
N 	N 	0.21080 0.50000 0.21080 -0.23900
N 	N 	0.28920 0.50000 0.28920 -0.23900
C 	C 	0.18230 0.50000 0.19350 0.04000
S 	S 	0.15100 0.50000 0.17810 -0.03500
C 	C 	0.31770 0.50000 0.30650 0.03900
S 	S 	0.34900 0.50000 0.32190 -0.03500
C 	C 	0.30650 0.50000 0.31770 0.03900
S 	S 	0.32190 0.50000 0.34900 -0.03500
C 	C 	0.19350 0.50000 0.18230 0.04000
S 	S 	0.17810 0.50000 0.15100 -0.03500
C 	C 	0.73550 0.94500 0.30630 0.10800
H 	H 	0.75570 0.95410 0.31630 -0.01700
C 	C 	0.72100 0.91770 0.32160 -0.19000
H 	H 	0.73010 0.90900 0.34230 0.09300
C 	C 	0.76450 0.94500 0.19370 0.10800
H 	H 	0.74430 0.95410 0.18370 -0.01700
C 	C 	0.77900 0.91770 0.17840 -0.19000
H 	H 	0.76990 0.90900 0.15770 0.09300
C 	C 	0.69370 0.05500 0.26450 0.10700
H 	H 	0.68370 0.04590 0.24430 -0.01800
C 	C 	0.67840 0.08230 0.27900 -0.19000
H 	H 	0.65770 0.09100 0.26990 0.09300
C 	C 	0.80630 0.05500 0.23550 0.10700
H 	H 	0.81630 0.04590 0.25570 -0.01800
C 	C 	0.82160 0.08230 0.22100 -0.19000
H 	H 	0.84230 0.09100 0.23010 0.09300
C 	C 	0.76450 0.05500 0.19370 0.10700
H 	H 	0.74430 0.04590 0.18370 -0.01800
C 	C 	0.77900 0.08230 0.17840 -0.19000
H 	H 	0.76990 0.09100 0.15770 0.09300
C 	C 	0.73550 0.05500 0.30630 0.10700
H 	H 	0.75570 0.04590 0.31630 -0.01800
C 	C 	0.72100 0.08230 0.32160 -0.19000
H 	H 	0.73010 0.09100 0.34230 0.09300
C 	C 	0.80630 0.94500 0.23550 0.10800
H 	H 	0.81630 0.95410 0.25570 -0.01700
C 	C 	0.82160 0.91770 0.22100 -0.19000
H 	H 	0.84230 0.90900 0.23010 0.09300
C 	C 	0.69370 0.94500 0.26450 0.10800
H 	H 	0.68370 0.95410 0.24430 -0.01700
C 	C 	0.67840 0.91770 0.27900 -0.19000
H 	H 	0.65770 0.90900 0.26990 0.09300
Fe	Fe	0.75000 0.00000 0.25000 1.13900
N 	N 	0.72300 0.96080 0.27700 -0.25700
C 	C 	0.69300 0.90270 0.30700 0.10100
N 	N 	0.77700 0.96080 0.22300 -0.25700
C 	C 	0.80700 0.90270 0.19300 0.10200
N 	N 	0.72300 0.03920 0.27700 -0.25800
C 	C 	0.69300 0.09730 0.30700 0.10100
N 	N 	0.77700 0.03920 0.22300 -0.25800
C 	C 	0.80700 0.09730 0.19300 0.10100
N 	N 	0.78920 0.00000 0.28920 -0.23900
N 	N 	0.71080 0.00000 0.21080 -0.24000
C 	C 	0.68230 0.00000 0.19350 0.04000
S 	S 	0.65100 0.00000 0.17810 -0.03600
C 	C 	0.81770 0.00000 0.30650 0.03900
S 	S 	0.84900 -0.00000 0.32190 -0.03500
C 	C 	0.80650 0.00000 0.31770 0.03900
S 	S 	0.82190 0.00000 0.34900 -0.03500
C 	C 	0.69350 -0.00000 0.18230 0.03900
S 	S 	0.67810 0.00000 0.15100 -0.03600
C 	C 	0.73550 0.44500 0.80630 0.10800
H 	H 	0.75570 0.45410 0.81630 -0.01800
C 	C 	0.72100 0.41770 0.82160 -0.19000
H 	H 	0.73010 0.40900 0.84230 0.09300
C 	C 	0.76450 0.44500 0.69370 0.10800
H 	H 	0.74430 0.45410 0.68370 -0.01800
C 	C 	0.77900 0.41770 0.67840 -0.19000
H 	H 	0.76990 0.40900 0.65770 0.09300
C 	C 	0.69370 0.55500 0.76450 0.10800
H 	H 	0.68370 0.54590 0.74430 -0.01800
C 	C 	0.67840 0.58230 0.77900 -0.19000
H 	H 	0.65770 0.59100 0.76990 0.09300
C 	C 	0.80630 0.55500 0.73550 0.10800
H 	H 	0.81630 0.54590 0.75570 -0.01800
C 	C 	0.82160 0.58230 0.72100 -0.19000
H 	H 	0.84230 0.59100 0.73010 0.09300
C 	C 	0.76450 0.55500 0.69370 0.10800
H 	H 	0.74430 0.54590 0.68370 -0.01800
C 	C 	0.77900 0.58230 0.67840 -0.19000
H 	H 	0.76990 0.59100 0.65770 0.09300
C 	C 	0.73550 0.55500 0.80630 0.10800
H 	H 	0.75570 0.54590 0.81630 -0.01800
C 	C 	0.72100 0.58230 0.82160 -0.19000
H 	H 	0.73010 0.59100 0.84230 0.09300
C 	C 	0.80630 0.44500 0.73550 0.10800
H 	H 	0.81630 0.45410 0.75570 -0.01800
C 	C 	0.82160 0.41770 0.72100 -0.19000
H 	H 	0.84230 0.40900 0.73010 0.09300
C 	C 	0.69370 0.44500 0.76450 0.10800
H 	H 	0.68370 0.45410 0.74430 -0.01800
C 	C 	0.67840 0.41770 0.77900 -0.19000
H 	H 	0.65770 0.40900 0.76990 0.09300
Fe	Fe	0.75000 0.50000 0.75000 1.14000
N 	N 	0.72300 0.46080 0.77700 -0.25800
C 	C 	0.69300 0.40270 0.80700 0.10100
N 	N 	0.77700 0.46080 0.72300 -0.25800
C 	C 	0.80700 0.40270 0.69300 0.10100
N 	N 	0.72300 0.53920 0.77700 -0.25800
C 	C 	0.69300 0.59730 0.80700 0.10100
N 	N 	0.77700 0.53920 0.72300 -0.25800
C 	C 	0.80700 0.59730 0.69300 0.10100
N 	N 	0.78920 0.50000 0.78920 -0.23800
N 	N 	0.71080 0.50000 0.71080 -0.23900
C 	C 	0.68230 0.50000 0.69350 0.03900
S 	S 	0.65100 0.50000 0.67810 -0.03500
C 	C 	0.81770 0.50000 0.80650 0.03900
S 	S 	0.84900 0.50000 0.82190 -0.03300
C 	C 	0.80650 0.50000 0.81770 0.03900
S 	S 	0.82190 0.50000 0.84900 -0.03300
C 	C 	0.69350 0.50000 0.68230 0.03900
S 	S 	0.67810 0.50000 0.65100 -0.03500
