data_crystal

_cell_length_a 28.71350
_cell_length_b 28.71350
_cell_length_c 28.71350
_cell_angle_alpha 90.00000
_cell_angle_beta  90.00000
_cell_angle_gamma 90.00000

_symmetry_space_group_name_	'P 1'
_symmetry_space_group_name_H-M	'P 1'

loop_
_symmetry_equiv_pos_as_xyz
  x,y,z

loop_
_atom_site_label
_atom_site_type_symbol
_atom_site_fract_x
_atom_site_fract_y
_atom_site_fract_z
_atom_site_charge
O 	O 	0.26500 0.59200 0.51770 -0.34400
O 	O 	0.26500 0.09200 0.01770 -0.32300
O 	O 	0.76500 0.59200 0.01770 -0.32200
O 	O 	0.76500 0.09200 0.51770 -0.34500
O 	O 	0.73500 0.40800 0.51770 -0.34400
O 	O 	0.73500 0.90800 0.01770 -0.32500
O 	O 	0.23500 0.40800 0.01770 -0.32200
O 	O 	0.23500 0.90800 0.51770 -0.34700
O 	O 	0.73500 0.59200 0.48230 -0.34400
O 	O 	0.73500 0.09200 0.98230 -0.38700
O 	O 	0.23500 0.59200 0.98230 -0.38700
O 	O 	0.23500 0.09200 0.48230 -0.34500
O 	O 	0.26500 0.40800 0.48230 -0.34400
O 	O 	0.26500 0.90800 0.98230 -0.38900
O 	O 	0.76500 0.40800 0.98230 -0.38700
O 	O 	0.76500 0.90800 0.48230 -0.34700
O 	O 	0.51770 0.26500 0.59200 -0.34400
O 	O 	0.51770 0.76500 0.09200 -0.34500
O 	O 	0.01770 0.26500 0.09200 -0.32300
O 	O 	0.01770 0.76500 0.59200 -0.32200
O 	O 	0.51770 0.73500 0.40800 -0.34400
O 	O 	0.51770 0.23500 0.90800 -0.34700
O 	O 	0.01770 0.73500 0.90800 -0.32500
O 	O 	0.01770 0.23500 0.40800 -0.32200
O 	O 	0.48230 0.73500 0.59200 -0.34400
O 	O 	0.48230 0.23500 0.09200 -0.34500
O 	O 	0.98230 0.73500 0.09200 -0.38700
O 	O 	0.98230 0.23500 0.59200 -0.38700
O 	O 	0.48230 0.26500 0.40800 -0.34400
O 	O 	0.48230 0.76500 0.90800 -0.34700
O 	O 	0.98230 0.26500 0.90800 -0.38900
O 	O 	0.98230 0.76500 0.40800 -0.38700
O 	O 	0.59200 0.51770 0.26500 -0.34400
O 	O 	0.59200 0.01770 0.76500 -0.32200
O 	O 	0.09200 0.51770 0.76500 -0.34500
O 	O 	0.09200 0.01770 0.26500 -0.32300
O 	O 	0.40800 0.51770 0.73500 -0.34300
O 	O 	0.40800 0.01770 0.23500 -0.32100
O 	O 	0.90800 0.51770 0.23500 -0.34600
O 	O 	0.90800 0.01770 0.73500 -0.32400
O 	O 	0.59200 0.48230 0.73500 -0.34300
O 	O 	0.59200 0.98230 0.23500 -0.38600
O 	O 	0.09200 0.48230 0.23500 -0.34400
O 	O 	0.09200 0.98230 0.73500 -0.38600
O 	O 	0.40800 0.48230 0.26500 -0.34300
O 	O 	0.40800 0.98230 0.76500 -0.38600
O 	O 	0.90800 0.48230 0.76500 -0.34600
O 	O 	0.90800 0.98230 0.26500 -0.38800
O 	O 	0.59200 0.26500 0.48230 -0.34300
O 	O 	0.59200 0.76500 0.98230 -0.38600
O 	O 	0.09200 0.26500 0.98230 -0.38600
O 	O 	0.09200 0.76500 0.48230 -0.34400
O 	O 	0.40800 0.73500 0.48230 -0.34300
O 	O 	0.40800 0.23500 0.98230 -0.38500
O 	O 	0.90800 0.73500 0.98230 -0.38900
O 	O 	0.90800 0.23500 0.48230 -0.34600
O 	O 	0.59200 0.73500 0.51770 -0.34300
O 	O 	0.59200 0.23500 0.01770 -0.32100
O 	O 	0.09200 0.73500 0.01770 -0.32200
O 	O 	0.09200 0.23500 0.51770 -0.34400
O 	O 	0.40800 0.26500 0.51770 -0.34300
O 	O 	0.40800 0.76500 0.01770 -0.32100
O 	O 	0.90800 0.26500 0.01770 -0.32400
O 	O 	0.90800 0.76500 0.51770 -0.34600
O 	O 	0.26500 0.51770 0.40800 -0.34300
O 	O 	0.26500 0.01770 0.90800 -0.32400
O 	O 	0.76500 0.51770 0.90800 -0.34600
O 	O 	0.76500 0.01770 0.40800 -0.32100
O 	O 	0.73500 0.51770 0.59200 -0.34300
O 	O 	0.73500 0.01770 0.09200 -0.32200
O 	O 	0.23500 0.51770 0.09200 -0.34400
O 	O 	0.23500 0.01770 0.59200 -0.32100
O 	O 	0.73500 0.48230 0.40800 -0.34300
O 	O 	0.73500 0.98230 0.90800 -0.38900
O 	O 	0.23500 0.48230 0.90800 -0.34600
O 	O 	0.23500 0.98230 0.40800 -0.38500
O 	O 	0.26500 0.48230 0.59200 -0.34300
O 	O 	0.26500 0.98230 0.09200 -0.38600
O 	O 	0.76500 0.48230 0.09200 -0.34400
O 	O 	0.76500 0.98230 0.59200 -0.38600
O 	O 	0.51770 0.59200 0.73500 -0.34300
O 	O 	0.51770 0.09200 0.23500 -0.34400
O 	O 	0.01770 0.59200 0.23500 -0.32100
O 	O 	0.01770 0.09200 0.73500 -0.32200
O 	O 	0.51770 0.40800 0.26500 -0.34300
O 	O 	0.51770 0.90800 0.76500 -0.34600
O 	O 	0.01770 0.40800 0.76500 -0.32100
O 	O 	0.01770 0.90800 0.26500 -0.32400
O 	O 	0.48230 0.59200 0.26500 -0.34300
O 	O 	0.48230 0.09200 0.76500 -0.34400
O 	O 	0.98230 0.59200 0.76500 -0.38600
O 	O 	0.98230 0.09200 0.26500 -0.38600
O 	O 	0.48230 0.40800 0.73500 -0.34300
O 	O 	0.48230 0.90800 0.23500 -0.34600
O 	O 	0.98230 0.40800 0.23500 -0.38500
O 	O 	0.98230 0.90800 0.73500 -0.38900
O 	O 	0.73500 0.40800 0.48230 -0.34300
O 	O 	0.73500 0.90800 0.98230 -0.38900
O 	O 	0.23500 0.40800 0.98230 -0.38500
O 	O 	0.23500 0.90800 0.48230 -0.34600
O 	O 	0.26500 0.59200 0.48230 -0.34300
O 	O 	0.26500 0.09200 0.98230 -0.38600
O 	O 	0.76500 0.59200 0.98230 -0.38600
O 	O 	0.76500 0.09200 0.48230 -0.34400
O 	O 	0.26500 0.40800 0.51770 -0.34300
O 	O 	0.26500 0.90800 0.01770 -0.32400
O 	O 	0.76500 0.40800 0.01770 -0.32100
O 	O 	0.76500 0.90800 0.51770 -0.34600
O 	O 	0.73500 0.59200 0.51770 -0.34300
O 	O 	0.73500 0.09200 0.01770 -0.32200
O 	O 	0.23500 0.59200 0.01770 -0.32100
O 	O 	0.23500 0.09200 0.51770 -0.34400
O 	O 	0.48230 0.73500 0.40800 -0.34300
O 	O 	0.48230 0.23500 0.90800 -0.34600
O 	O 	0.98230 0.73500 0.90800 -0.38900
O 	O 	0.98230 0.23500 0.40800 -0.38500
O 	O 	0.48230 0.26500 0.59200 -0.34300
O 	O 	0.48230 0.76500 0.09200 -0.34400
O 	O 	0.98230 0.26500 0.09200 -0.38600
O 	O 	0.98230 0.76500 0.59200 -0.38600
O 	O 	0.51770 0.26500 0.40800 -0.34300
O 	O 	0.51770 0.76500 0.90800 -0.34600
O 	O 	0.01770 0.26500 0.90800 -0.32400
O 	O 	0.01770 0.76500 0.40800 -0.32100
O 	O 	0.51770 0.73500 0.59200 -0.34300
O 	O 	0.51770 0.23500 0.09200 -0.34400
O 	O 	0.01770 0.73500 0.09200 -0.32200
O 	O 	0.01770 0.23500 0.59200 -0.32100
O 	O 	0.40800 0.48230 0.73500 -0.34300
O 	O 	0.40800 0.98230 0.23500 -0.38500
O 	O 	0.90800 0.48230 0.23500 -0.34600
O 	O 	0.90800 0.98230 0.73500 -0.38900
O 	O 	0.59200 0.48230 0.26500 -0.34300
O 	O 	0.59200 0.98230 0.76500 -0.38600
O 	O 	0.09200 0.48230 0.76500 -0.34400
O 	O 	0.09200 0.98230 0.26500 -0.38600
O 	O 	0.40800 0.51770 0.26500 -0.34300
O 	O 	0.40800 0.01770 0.76500 -0.32100
O 	O 	0.90800 0.51770 0.76500 -0.34600
O 	O 	0.90800 0.01770 0.26500 -0.32400
O 	O 	0.59200 0.51770 0.73500 -0.34300
O 	O 	0.59200 0.01770 0.23500 -0.32100
O 	O 	0.09200 0.51770 0.23500 -0.34400
O 	O 	0.09200 0.01770 0.73500 -0.32200
O 	O 	0.40800 0.73500 0.51770 -0.34300
O 	O 	0.40800 0.23500 0.01770 -0.32100
O 	O 	0.90800 0.73500 0.01770 -0.32400
O 	O 	0.90800 0.23500 0.51770 -0.34600
O 	O 	0.59200 0.26500 0.51770 -0.34300
O 	O 	0.59200 0.76500 0.01770 -0.32100
O 	O 	0.09200 0.26500 0.01770 -0.32200
O 	O 	0.09200 0.76500 0.51770 -0.34400
O 	O 	0.40800 0.26500 0.48230 -0.34300
O 	O 	0.40800 0.76500 0.98230 -0.38600
O 	O 	0.90800 0.26500 0.98230 -0.38800
O 	O 	0.90800 0.76500 0.48230 -0.34600
O 	O 	0.59200 0.73500 0.48230 -0.34300
O 	O 	0.59200 0.23500 0.98230 -0.38600
O 	O 	0.09200 0.73500 0.98230 -0.38600
O 	O 	0.09200 0.23500 0.48230 -0.34400
O 	O 	0.73500 0.48230 0.59200 -0.34300
O 	O 	0.73500 0.98230 0.09200 -0.38600
O 	O 	0.23500 0.48230 0.09200 -0.34400
O 	O 	0.23500 0.98230 0.59200 -0.38600
O 	O 	0.26500 0.48230 0.40800 -0.34300
O 	O 	0.26500 0.98230 0.90800 -0.38800
O 	O 	0.76500 0.48230 0.90800 -0.34600
O 	O 	0.76500 0.98230 0.40800 -0.38600
O 	O 	0.26500 0.51770 0.59200 -0.34300
O 	O 	0.26500 0.01770 0.09200 -0.32200
O 	O 	0.76500 0.51770 0.09200 -0.34400
O 	O 	0.76500 0.01770 0.59200 -0.32100
O 	O 	0.73500 0.51770 0.40800 -0.34300
O 	O 	0.73500 0.01770 0.90800 -0.32400
O 	O 	0.23500 0.51770 0.90800 -0.34600
O 	O 	0.23500 0.01770 0.40800 -0.32100
O 	O 	0.48230 0.40800 0.26500 -0.34300
O 	O 	0.48230 0.90800 0.76500 -0.34600
O 	O 	0.98230 0.40800 0.76500 -0.38600
O 	O 	0.98230 0.90800 0.26500 -0.38800
O 	O 	0.48230 0.59200 0.73500 -0.34300
O 	O 	0.48230 0.09200 0.23500 -0.34400
O 	O 	0.98230 0.59200 0.23500 -0.38600
O 	O 	0.98230 0.09200 0.73500 -0.38600
O 	O 	0.51770 0.40800 0.73500 -0.34300
O 	O 	0.51770 0.90800 0.23500 -0.34600
O 	O 	0.01770 0.40800 0.23500 -0.32100
O 	O 	0.01770 0.90800 0.73500 -0.32400
O 	O 	0.51770 0.59200 0.26500 -0.34300
O 	O 	0.51770 0.09200 0.76500 -0.34400
O 	O 	0.01770 0.59200 0.76500 -0.32100
O 	O 	0.01770 0.09200 0.26500 -0.32200
Co	Co	0.19516 0.50000 0.50000 1.19200
O 	O 	0.27120 0.50000 0.50000 -0.84500
Co	Co	0.19516 0.00000 -0.00000 1.20400
O 	O 	0.27120 0.00000 -0.00000 -0.81900
Co	Co	0.69516 0.50000 -0.00000 1.19800
O 	O 	0.77120 0.50000 -0.00000 -0.83200
Co	Co	0.69516 0.00000 0.50000 1.19800
O 	O 	0.77120 0.00000 0.50000 -0.83200
Co	Co	0.80484 0.50000 0.50000 1.19100
O 	O 	0.72880 0.50000 0.50000 -0.84500
Co	Co	0.80484 0.00000 -0.00000 1.20300
O 	O 	0.72880 0.00000 -0.00000 -0.81800
Co	Co	0.30484 0.50000 -0.00000 1.19800
O 	O 	0.22880 0.50000 -0.00000 -0.83200
Co	Co	0.30484 0.00000 0.50000 1.19800
O 	O 	0.22880 0.00000 0.50000 -0.83200
Co	Co	0.50000 0.19516 0.50000 1.19200
O 	O 	0.50000 0.27120 0.50000 -0.84500
Co	Co	0.50000 0.69516 -0.00000 1.19800
O 	O 	0.50000 0.77120 -0.00000 -0.83200
Co	Co	-0.00000 0.19516 -0.00000 1.20400
O 	O 	-0.00000 0.27120 -0.00000 -0.81900
Co	Co	0.00000 0.69516 0.50000 1.19800
O 	O 	-0.00000 0.77120 0.50000 -0.83200
Co	Co	0.50000 0.80484 0.50000 1.19100
O 	O 	0.50000 0.72880 0.50000 -0.84500
Co	Co	0.50000 0.30484 -0.00000 1.19800
O 	O 	0.50000 0.22880 -0.00000 -0.83200
Co	Co	-0.00000 0.80484 -0.00000 1.20300
O 	O 	-0.00000 0.72880 -0.00000 -0.81800
Co	Co	0.00000 0.30484 0.50000 1.19800
O 	O 	-0.00000 0.22880 0.50000 -0.83200
Co	Co	0.50000 0.50000 0.19516 1.19200
O 	O 	0.50000 0.50000 0.27120 -0.84500
Co	Co	0.50000 0.00000 0.69516 1.19800
O 	O 	0.50000 -0.00000 0.77120 -0.83200
Co	Co	0.00000 0.50000 0.69516 1.19800
O 	O 	-0.00000 0.50000 0.77120 -0.83200
Co	Co	0.00000 0.00000 0.19516 1.20400
O 	O 	0.00000 0.00000 0.27120 -0.81900
Co	Co	0.50000 0.50000 0.80484 1.19100
O 	O 	0.50000 0.50000 0.72880 -0.84500
Co	Co	0.50000 -0.00000 0.30484 1.19800
O 	O 	0.50000 0.00000 0.22880 -0.83200
Co	Co	0.00000 0.50000 0.30484 1.19800
O 	O 	0.00000 0.50000 0.22880 -0.83200
Co	Co	0.00000 0.00000 0.80484 1.20300
O 	O 	0.00000 0.00000 0.72880 -0.81800
Co	Co	0.30753 0.54163 0.54163 1.11200
Co	Co	0.30753 0.04163 0.04163 1.11300
Co	Co	0.80753 0.54163 0.04163 1.11200
Co	Co	0.80753 0.04163 0.54163 1.11200
Co	Co	0.69247 0.45837 0.54163 1.11200
Co	Co	0.69247 0.95837 0.04163 1.10400
Co	Co	0.19247 0.45837 0.04163 1.11300
Co	Co	0.19247 0.95837 0.54163 1.10300
Co	Co	0.69247 0.54163 0.45837 1.11200
Co	Co	0.69247 0.04163 0.95837 1.10400
Co	Co	0.19247 0.54163 0.95837 1.10300
Co	Co	0.19247 0.04163 0.45837 1.11300
Co	Co	0.30753 0.45837 0.45837 1.11200
Co	Co	0.30753 0.95837 0.95837 1.09500
Co	Co	0.80753 0.45837 0.95837 1.10300
Co	Co	0.80753 0.95837 0.45837 1.10300
Co	Co	0.54163 0.30753 0.54163 1.11200
Co	Co	0.54163 0.80753 0.04163 1.11200
Co	Co	0.04163 0.30753 0.04163 1.11300
Co	Co	0.04163 0.80753 0.54163 1.11200
Co	Co	0.54163 0.69247 0.45837 1.11200
Co	Co	0.54163 0.19247 0.95837 1.10300
Co	Co	0.04163 0.69247 0.95837 1.10400
Co	Co	0.04163 0.19247 0.45837 1.11300
Co	Co	0.45837 0.69247 0.54163 1.11200
Co	Co	0.45837 0.19247 0.04163 1.11300
Co	Co	0.95837 0.69247 0.04163 1.10400
Co	Co	0.95837 0.19247 0.54163 1.10300
Co	Co	0.45837 0.30753 0.45837 1.11200
Co	Co	0.45837 0.80753 0.95837 1.10300
Co	Co	0.95837 0.30753 0.95837 1.09500
Co	Co	0.95837 0.80753 0.45837 1.10300
Co	Co	0.54163 0.54163 0.30753 1.11200
Co	Co	0.54163 0.04163 0.80753 1.11200
Co	Co	0.04163 0.54163 0.80753 1.11200
Co	Co	0.04163 0.04163 0.30753 1.11300
Co	Co	0.45837 0.54163 0.69247 1.11200
Co	Co	0.45837 0.04163 0.19247 1.11300
Co	Co	0.95837 0.54163 0.19247 1.10300
Co	Co	0.95837 0.04163 0.69247 1.10400
Co	Co	0.54163 0.45837 0.69247 1.11200
Co	Co	0.54163 0.95837 0.19247 1.10300
Co	Co	0.04163 0.45837 0.19247 1.11300
Co	Co	0.04163 0.95837 0.69247 1.10400
Co	Co	0.45837 0.45837 0.30753 1.11200
Co	Co	0.45837 0.95837 0.80753 1.10300
Co	Co	0.95837 0.45837 0.80753 1.10300
Co	Co	0.95837 0.95837 0.30753 1.09500
Co	Co	0.54163 0.30753 0.45837 1.11200
Co	Co	0.54163 0.80753 0.95837 1.10300
Co	Co	0.04163 0.30753 0.95837 1.10400
Co	Co	0.04163 0.80753 0.45837 1.11200
Co	Co	0.45837 0.69247 0.45837 1.11200
Co	Co	0.45837 0.19247 0.95837 1.10300
Co	Co	0.95837 0.69247 0.95837 1.09500
Co	Co	0.95837 0.19247 0.45837 1.10300
Co	Co	0.54163 0.69247 0.54163 1.11200
Co	Co	0.54163 0.19247 0.04163 1.11300
Co	Co	0.04163 0.69247 0.04163 1.11300
Co	Co	0.04163 0.19247 0.54163 1.11300
Co	Co	0.45837 0.30753 0.54163 1.11200
Co	Co	0.45837 0.80753 0.04163 1.11200
Co	Co	0.95837 0.30753 0.04163 1.10400
Co	Co	0.95837 0.80753 0.54163 1.10300
Co	Co	0.30753 0.54163 0.45837 1.11200
Co	Co	0.30753 0.04163 0.95837 1.10400
Co	Co	0.80753 0.54163 0.95837 1.10300
Co	Co	0.80753 0.04163 0.45837 1.11200
Co	Co	0.69247 0.54163 0.54163 1.11200
Co	Co	0.69247 0.04163 0.04163 1.11300
Co	Co	0.19247 0.54163 0.04163 1.11300
Co	Co	0.19247 0.04163 0.54163 1.11300
Co	Co	0.69247 0.45837 0.45837 1.11200
Co	Co	0.69247 0.95837 0.95837 1.09500
Co	Co	0.19247 0.45837 0.95837 1.10300
Co	Co	0.19247 0.95837 0.45837 1.10300
Co	Co	0.30753 0.45837 0.54163 1.11200
Co	Co	0.30753 0.95837 0.04163 1.10400
Co	Co	0.80753 0.45837 0.04163 1.11200
Co	Co	0.80753 0.95837 0.54163 1.10300
Co	Co	0.54163 0.54163 0.69247 1.11200
Co	Co	0.54163 0.04163 0.19247 1.11300
Co	Co	0.04163 0.54163 0.19247 1.11300
Co	Co	0.04163 0.04163 0.69247 1.11300
Co	Co	0.54163 0.45837 0.30753 1.11200
Co	Co	0.54163 0.95837 0.80753 1.10300
Co	Co	0.04163 0.45837 0.80753 1.11200
Co	Co	0.04163 0.95837 0.30753 1.10400
Co	Co	0.45837 0.54163 0.30753 1.11200
Co	Co	0.45837 0.04163 0.80753 1.11200
Co	Co	0.95837 0.54163 0.80753 1.10300
Co	Co	0.95837 0.04163 0.30753 1.10400
Co	Co	0.45837 0.45837 0.69247 1.11200
Co	Co	0.45837 0.95837 0.19247 1.10300
Co	Co	0.95837 0.45837 0.19247 1.10300
Co	Co	0.95837 0.95837 0.69247 1.09500
O 	O 	0.19190 0.57030 0.50000 -0.45600
C 	C 	0.21020 0.65150 0.50000 -0.14000
C 	C 	0.24310 0.68510 0.50000 0.02000
H 	H 	0.27510 0.67670 0.50000 0.03300
C 	C 	0.22440 0.60030 0.50000 0.47000
O 	O 	0.35410 0.56380 0.50000 -0.47900
O 	O 	0.19190 0.07030 -0.00000 -0.45400
C 	C 	0.21020 0.15150 -0.00000 -0.14400
C 	C 	0.24310 0.18510 -0.00000 0.02600
H 	H 	0.27510 0.17670 -0.00000 0.03500
C 	C 	0.22440 0.10030 -0.00000 0.49000
O 	O 	0.35410 0.06380 -0.00000 -0.46500
O 	O 	0.69190 0.57030 -0.00000 -0.45500
C 	C 	0.71020 0.65150 -0.00000 -0.14500
C 	C 	0.74310 0.68510 -0.00000 0.02500
H 	H 	0.77510 0.67670 -0.00000 0.03500
C 	C 	0.72440 0.60030 -0.00000 0.49100
O 	O 	0.85410 0.56380 -0.00000 -0.47000
O 	O 	0.69190 0.07030 0.50000 -0.45600
C 	C 	0.71020 0.15150 0.50000 -0.14100
C 	C 	0.74310 0.18510 0.50000 0.02000
H 	H 	0.77510 0.17670 0.50000 0.03300
C 	C 	0.72440 0.10030 0.50000 0.47000
O 	O 	0.85410 0.06380 0.50000 -0.48100
O 	O 	0.80810 0.42970 0.50000 -0.45900
C 	C 	0.78980 0.34850 0.50000 -0.14300
C 	C 	0.75690 0.31490 0.50000 0.02200
H 	H 	0.72490 0.32330 0.50000 0.03200
C 	C 	0.77560 0.39970 0.50000 0.47100
O 	O 	0.64590 0.43620 0.50000 -0.47900
O 	O 	0.80810 0.92970 -0.00000 -0.47000
C 	C 	0.78980 0.84850 -0.00000 -0.15100
C 	C 	0.75690 0.81490 -0.00000 0.02900
H 	H 	0.72490 0.82330 -0.00000 0.03300
C 	C 	0.77560 0.89970 -0.00000 0.49400
O 	O 	0.64590 0.93620 -0.00000 -0.47700
O 	O 	0.30810 0.42970 -0.00000 -0.45500
C 	C 	0.28980 0.34850 -0.00000 -0.14500
C 	C 	0.25690 0.31490 -0.00000 0.02600
H 	H 	0.22490 0.32330 -0.00000 0.03500
C 	C 	0.27560 0.39970 -0.00000 0.49100
O 	O 	0.14590 0.43620 -0.00000 -0.46600
O 	O 	0.30810 0.92970 0.50000 -0.47000
C 	C 	0.28980 0.84850 0.50000 -0.14500
C 	C 	0.25690 0.81490 0.50000 0.02300
H 	H 	0.22490 0.82330 0.50000 0.03200
C 	C 	0.27560 0.89970 0.50000 0.47300
O 	O 	0.14590 0.93620 0.50000 -0.48900
O 	O 	0.80810 0.57030 0.50000 -0.45900
C 	C 	0.78980 0.65150 0.50000 -0.14300
C 	C 	0.75690 0.68510 0.50000 0.02200
H 	H 	0.72490 0.67670 0.50000 0.03200
C 	C 	0.77560 0.60030 0.50000 0.47100
O 	O 	0.64590 0.56380 0.50000 -0.47900
O 	O 	0.80810 0.07030 -0.00000 -0.45700
C 	C 	0.78980 0.15150 -0.00000 -0.14700
C 	C 	0.75690 0.18510 -0.00000 0.02700
H 	H 	0.72490 0.17670 -0.00000 0.03400
C 	C 	0.77560 0.10030 -0.00000 0.49100
O 	O 	0.64590 0.06380 -0.00000 -0.46500
O 	O 	0.30810 0.57030 -0.00000 -0.45500
C 	C 	0.28980 0.65150 -0.00000 -0.14500
C 	C 	0.25690 0.68510 -0.00000 0.02600
H 	H 	0.22490 0.67670 -0.00000 0.03500
C 	C 	0.27560 0.60030 -0.00000 0.49100
O 	O 	0.14590 0.56380 -0.00000 -0.46600
O 	O 	0.30810 0.07030 0.50000 -0.45600
C 	C 	0.28980 0.15150 0.50000 -0.14100
C 	C 	0.25690 0.18510 0.50000 0.02000
H 	H 	0.22490 0.17670 0.50000 0.03300
C 	C 	0.27560 0.10030 0.50000 0.47000
O 	O 	0.14590 0.06380 0.50000 -0.47700
O 	O 	0.19190 0.42970 0.50000 -0.45600
C 	C 	0.21020 0.34850 0.50000 -0.14100
C 	C 	0.24310 0.31490 0.50000 0.02000
H 	H 	0.27510 0.32330 0.50000 0.03300
C 	C 	0.22440 0.39970 0.50000 0.47000
O 	O 	0.35410 0.43620 0.50000 -0.47900
O 	O 	0.19190 0.92970 -0.00000 -0.46800
C 	C 	0.21020 0.84850 -0.00000 -0.14800
C 	C 	0.24310 0.81490 -0.00000 0.02800
H 	H 	0.27510 0.82330 -0.00000 0.03400
C 	C 	0.22440 0.89970 -0.00000 0.49300
O 	O 	0.35410 0.93620 -0.00000 -0.47700
O 	O 	0.69190 0.42970 -0.00000 -0.45500
C 	C 	0.71020 0.34850 -0.00000 -0.14500
C 	C 	0.74310 0.31490 -0.00000 0.02600
H 	H 	0.77510 0.32330 -0.00000 0.03500
C 	C 	0.72440 0.39970 -0.00000 0.49100
O 	O 	0.85410 0.43620 -0.00000 -0.47000
O 	O 	0.69190 0.92970 0.50000 -0.47000
C 	C 	0.71020 0.84850 0.50000 -0.14500
C 	C 	0.74310 0.81490 0.50000 0.02200
H 	H 	0.77510 0.82330 0.50000 0.03100
C 	C 	0.72440 0.89970 0.50000 0.47300
O 	O 	0.85410 0.93620 0.50000 -0.49300
O 	O 	0.50000 0.19190 0.57030 -0.45600
C 	C 	0.50000 0.21020 0.65150 -0.14000
C 	C 	0.50000 0.24310 0.68510 0.02000
H 	H 	0.50000 0.27510 0.67670 0.03300
C 	C 	0.50000 0.22440 0.60030 0.47000
O 	O 	0.50000 0.35410 0.56380 -0.47900
O 	O 	0.50000 0.69190 0.07030 -0.45600
C 	C 	0.50000 0.71020 0.15150 -0.14100
C 	C 	0.50000 0.74310 0.18510 0.02000
H 	H 	0.50000 0.77510 0.17670 0.03300
C 	C 	0.50000 0.72440 0.10030 0.47000
O 	O 	0.50000 0.85410 0.06380 -0.48100
O 	O 	0.00000 0.19190 0.07030 -0.45400
C 	C 	-0.00000 0.21020 0.15150 -0.14400
C 	C 	0.00000 0.24310 0.18510 0.02600
H 	H 	0.00000 0.27510 0.17670 0.03500
C 	C 	0.00000 0.22440 0.10030 0.49000
O 	O 	0.00000 0.35410 0.06380 -0.46500
O 	O 	0.00000 0.69190 0.57030 -0.45500
C 	C 	-0.00000 0.71020 0.65150 -0.14500
C 	C 	-0.00000 0.74310 0.68510 0.02500
H 	H 	0.00000 0.77510 0.67670 0.03500
C 	C 	-0.00000 0.72440 0.60030 0.49100
O 	O 	0.00000 0.85410 0.56380 -0.47000
O 	O 	0.50000 0.80810 0.42970 -0.45900
C 	C 	0.50000 0.78980 0.34850 -0.14300
C 	C 	0.50000 0.75690 0.31490 0.02200
H 	H 	0.50000 0.72490 0.32330 0.03200
C 	C 	0.50000 0.77560 0.39970 0.47100
O 	O 	0.50000 0.64590 0.43620 -0.47900
O 	O 	0.50000 0.30810 0.92970 -0.47000
C 	C 	0.50000 0.28980 0.84850 -0.14500
C 	C 	0.50000 0.25690 0.81490 0.02300
H 	H 	0.50000 0.22490 0.82330 0.03200
C 	C 	0.50000 0.27560 0.89970 0.47300
O 	O 	0.50000 0.14590 0.93620 -0.48900
O 	O 	0.00000 0.80810 0.92970 -0.47000
C 	C 	0.00000 0.78980 0.84850 -0.15100
C 	C 	-0.00000 0.75690 0.81490 0.02900
H 	H 	0.00000 0.72490 0.82330 0.03300
C 	C 	0.00000 0.77560 0.89970 0.49400
O 	O 	0.00000 0.64590 0.93620 -0.47700
O 	O 	0.00000 0.30810 0.42970 -0.45500
C 	C 	-0.00000 0.28980 0.34850 -0.14500
C 	C 	-0.00000 0.25690 0.31490 0.02600
H 	H 	0.00000 0.22490 0.32330 0.03500
C 	C 	0.00000 0.27560 0.39970 0.49100
O 	O 	-0.00000 0.14590 0.43620 -0.46600
O 	O 	0.50000 0.80810 0.57030 -0.45900
C 	C 	0.50000 0.78980 0.65150 -0.14300
C 	C 	0.50000 0.75690 0.68510 0.02200
H 	H 	0.50000 0.72490 0.67670 0.03200
C 	C 	0.50000 0.77560 0.60030 0.47100
O 	O 	0.50000 0.64590 0.56380 -0.47900
O 	O 	0.50000 0.30810 0.07030 -0.45600
C 	C 	0.50000 0.28980 0.15150 -0.14100
C 	C 	0.50000 0.25690 0.18510 0.02000
H 	H 	0.50000 0.22490 0.17670 0.03300
C 	C 	0.50000 0.27560 0.10030 0.47000
O 	O 	0.50000 0.14590 0.06380 -0.47700
O 	O 	-0.00000 0.80810 0.07030 -0.45700
C 	C 	0.00000 0.78980 0.15150 -0.14700
C 	C 	-0.00000 0.75690 0.18510 0.02700
H 	H 	0.00000 0.72490 0.17670 0.03400
C 	C 	-0.00000 0.77560 0.10030 0.49100
O 	O 	0.00000 0.64590 0.06380 -0.46500
O 	O 	-0.00000 0.30810 0.57030 -0.45500
C 	C 	-0.00000 0.28980 0.65150 -0.14500
C 	C 	0.00000 0.25690 0.68510 0.02600
H 	H 	0.00000 0.22490 0.67670 0.03500
C 	C 	-0.00000 0.27560 0.60030 0.49100
O 	O 	0.00000 0.14590 0.56380 -0.46600
O 	O 	0.50000 0.19190 0.42970 -0.45600
C 	C 	0.50000 0.21020 0.34850 -0.14100
C 	C 	0.50000 0.24310 0.31490 0.02000
H 	H 	0.50000 0.27510 0.32330 0.03300
C 	C 	0.50000 0.22440 0.39970 0.47000
O 	O 	0.50000 0.35410 0.43620 -0.47900
O 	O 	0.50000 0.69190 0.92970 -0.47000
C 	C 	0.50000 0.71020 0.84850 -0.14500
C 	C 	0.50000 0.74310 0.81490 0.02200
H 	H 	0.50000 0.77510 0.82330 0.03100
C 	C 	0.50000 0.72440 0.89970 0.47300
O 	O 	0.50000 0.85410 0.93620 -0.49300
O 	O 	-0.00000 0.19190 0.92970 -0.46800
C 	C 	0.00000 0.21020 0.84850 -0.14800
C 	C 	-0.00000 0.24310 0.81490 0.02800
H 	H 	0.00000 0.27510 0.82330 0.03400
C 	C 	-0.00000 0.22440 0.89970 0.49300
O 	O 	0.00000 0.35410 0.93620 -0.47700
O 	O 	0.00000 0.69190 0.42970 -0.45500
C 	C 	0.00000 0.71020 0.34850 -0.14500
C 	C 	0.00000 0.74310 0.31490 0.02600
H 	H 	0.00000 0.77510 0.32330 0.03500
C 	C 	-0.00000 0.72440 0.39970 0.49100
O 	O 	0.00000 0.85410 0.43620 -0.47000
O 	O 	0.57030 0.50000 0.19190 -0.45600
C 	C 	0.65150 0.50000 0.21020 -0.14000
C 	C 	0.68510 0.50000 0.24310 0.02000
H 	H 	0.67670 0.50000 0.27510 0.03300
C 	C 	0.60030 0.50000 0.22440 0.47000
O 	O 	0.56380 0.50000 0.35410 -0.47900
O 	O 	0.57030 0.00000 0.69190 -0.45500
C 	C 	0.65150 -0.00000 0.71020 -0.14500
C 	C 	0.68510 0.00000 0.74310 0.02500
H 	H 	0.67670 0.00000 0.77510 0.03500
C 	C 	0.60030 0.00000 0.72440 0.49100
O 	O 	0.56380 0.00000 0.85410 -0.47000
O 	O 	0.07030 0.50000 0.69190 -0.45600
C 	C 	0.15150 0.50000 0.71020 -0.14100
C 	C 	0.18510 0.50000 0.74310 0.02000
H 	H 	0.17670 0.50000 0.77510 0.03300
C 	C 	0.10030 0.50000 0.72440 0.47000
O 	O 	0.06380 0.50000 0.85410 -0.48100
O 	O 	0.07030 0.00000 0.19190 -0.45400
C 	C 	0.15150 0.00000 0.21020 -0.14400
C 	C 	0.18510 0.00000 0.24310 0.02600
H 	H 	0.17670 -0.00000 0.27510 0.03500
C 	C 	0.10030 0.00000 0.22440 0.49000
O 	O 	0.06380 0.00000 0.35410 -0.46500
O 	O 	0.42970 0.50000 0.80810 -0.45900
C 	C 	0.34850 0.50000 0.78980 -0.14300
C 	C 	0.31490 0.50000 0.75690 0.02200
H 	H 	0.32330 0.50000 0.72490 0.03200
C 	C 	0.39970 0.50000 0.77560 0.47100
O 	O 	0.43620 0.50000 0.64590 -0.47900
O 	O 	0.42970 0.00000 0.30810 -0.45500
C 	C 	0.34850 -0.00000 0.28980 -0.14500
C 	C 	0.31490 0.00000 0.25690 0.02600
H 	H 	0.32330 0.00000 0.22490 0.03500
C 	C 	0.39970 0.00000 0.27560 0.49100
O 	O 	0.43620 0.00000 0.14590 -0.46600
O 	O 	0.92970 0.50000 0.30810 -0.47000
C 	C 	0.84850 0.50000 0.28980 -0.14500
C 	C 	0.81490 0.50000 0.25690 0.02300
H 	H 	0.82330 0.50000 0.22490 0.03200
C 	C 	0.89970 0.50000 0.27560 0.47300
O 	O 	0.93620 0.50000 0.14590 -0.48900
O 	O 	0.92970 0.00000 0.80810 -0.47000
C 	C 	0.84850 0.00000 0.78980 -0.15100
C 	C 	0.81490 0.00000 0.75690 0.02900
H 	H 	0.82330 0.00000 0.72490 0.03300
C 	C 	0.89970 0.00000 0.77560 0.49400
O 	O 	0.93620 0.00000 0.64590 -0.47700
O 	O 	0.57030 0.50000 0.80810 -0.45900
C 	C 	0.65150 0.50000 0.78980 -0.14300
C 	C 	0.68510 0.50000 0.75690 0.02200
H 	H 	0.67670 0.50000 0.72490 0.03200
C 	C 	0.60030 0.50000 0.77560 0.47100
O 	O 	0.56380 0.50000 0.64590 -0.47900
O 	O 	0.57030 0.00000 0.30810 -0.45500
C 	C 	0.65150 -0.00000 0.28980 -0.14500
C 	C 	0.68510 0.00000 0.25690 0.02600
H 	H 	0.67670 0.00000 0.22490 0.03500
C 	C 	0.60030 0.00000 0.27560 0.49100
O 	O 	0.56380 0.00000 0.14590 -0.46600
O 	O 	0.07030 0.50000 0.30810 -0.45600
C 	C 	0.15150 0.50000 0.28980 -0.14100
C 	C 	0.18510 0.50000 0.25690 0.02000
H 	H 	0.17670 0.50000 0.22490 0.03300
C 	C 	0.10030 0.50000 0.27560 0.47000
O 	O 	0.06380 0.50000 0.14590 -0.47700
O 	O 	0.07030 0.00000 0.80810 -0.45700
C 	C 	0.15150 0.00000 0.78980 -0.14700
C 	C 	0.18510 0.00000 0.75690 0.02700
H 	H 	0.17670 0.00000 0.72490 0.03400
C 	C 	0.10030 0.00000 0.77560 0.49100
O 	O 	0.06380 0.00000 0.64590 -0.46500
O 	O 	0.42970 0.50000 0.19190 -0.45600
C 	C 	0.34850 0.50000 0.21020 -0.14100
C 	C 	0.31490 0.50000 0.24310 0.02000
H 	H 	0.32330 0.50000 0.27510 0.03300
C 	C 	0.39970 0.50000 0.22440 0.47000
O 	O 	0.43620 0.50000 0.35410 -0.47900
O 	O 	0.42970 0.00000 0.69190 -0.45500
C 	C 	0.34850 -0.00000 0.71020 -0.14500
C 	C 	0.31490 0.00000 0.74310 0.02600
H 	H 	0.32330 0.00000 0.77510 0.03500
C 	C 	0.39970 0.00000 0.72440 0.49100
O 	O 	0.43620 0.00000 0.85410 -0.47000
O 	O 	0.92970 0.50000 0.69190 -0.47000
C 	C 	0.84850 0.50000 0.71020 -0.14500
C 	C 	0.81490 0.50000 0.74310 0.02200
H 	H 	0.82330 0.50000 0.77510 0.03100
C 	C 	0.89970 0.50000 0.72440 0.47300
O 	O 	0.93620 0.50000 0.85410 -0.49300
O 	O 	0.92970 0.00000 0.19190 -0.46800
C 	C 	0.84850 0.00000 0.21020 -0.14800
C 	C 	0.81490 0.00000 0.24310 0.02800
H 	H 	0.82330 -0.00000 0.27510 0.03400
C 	C 	0.89970 0.00000 0.22440 0.49300
O 	O 	0.93620 0.00000 0.35410 -0.47700
O 	O 	0.57030 0.19190 0.50000 -0.45600
C 	C 	0.65150 0.21020 0.50000 -0.14000
C 	C 	0.68510 0.24310 0.50000 0.02000
H 	H 	0.67670 0.27510 0.50000 0.03300
C 	C 	0.60030 0.22440 0.50000 0.47000
O 	O 	0.56380 0.35410 0.50000 -0.47900
O 	O 	0.57030 0.69190 -0.00000 -0.45500
C 	C 	0.65150 0.71020 -0.00000 -0.14500
C 	C 	0.68510 0.74310 -0.00000 0.02500
H 	H 	0.67670 0.77510 -0.00000 0.03500
C 	C 	0.60030 0.72440 -0.00000 0.49100
O 	O 	0.56380 0.85410 -0.00000 -0.47000
O 	O 	0.07030 0.19190 -0.00000 -0.45400
C 	C 	0.15150 0.21020 -0.00000 -0.14400
C 	C 	0.18510 0.24310 -0.00000 0.02600
H 	H 	0.17670 0.27510 -0.00000 0.03500
C 	C 	0.10030 0.22440 -0.00000 0.49000
O 	O 	0.06380 0.35410 -0.00000 -0.46500
O 	O 	0.07030 0.69190 0.50000 -0.45600
C 	C 	0.15150 0.71020 0.50000 -0.14100
C 	C 	0.18510 0.74310 0.50000 0.02000
H 	H 	0.17670 0.77510 0.50000 0.03300
C 	C 	0.10030 0.72440 0.50000 0.47000
O 	O 	0.06380 0.85410 0.50000 -0.48100
O 	O 	0.42970 0.80810 0.50000 -0.45900
C 	C 	0.34850 0.78980 0.50000 -0.14300
C 	C 	0.31490 0.75690 0.50000 0.02200
H 	H 	0.32330 0.72490 0.50000 0.03200
C 	C 	0.39970 0.77560 0.50000 0.47100
O 	O 	0.43620 0.64590 0.50000 -0.47900
O 	O 	0.42970 0.30810 -0.00000 -0.45500
C 	C 	0.34850 0.28980 -0.00000 -0.14500
C 	C 	0.31490 0.25690 -0.00000 0.02600
H 	H 	0.32330 0.22490 -0.00000 0.03500
C 	C 	0.39970 0.27560 -0.00000 0.49100
O 	O 	0.43620 0.14590 -0.00000 -0.46600
O 	O 	0.92970 0.80810 -0.00000 -0.47000
C 	C 	0.84850 0.78980 -0.00000 -0.15100
C 	C 	0.81490 0.75690 -0.00000 0.02900
H 	H 	0.82330 0.72490 -0.00000 0.03300
C 	C 	0.89970 0.77560 -0.00000 0.49400
O 	O 	0.93620 0.64590 -0.00000 -0.47700
O 	O 	0.92970 0.30810 0.50000 -0.47000
C 	C 	0.84850 0.28980 0.50000 -0.14500
C 	C 	0.81490 0.25690 0.50000 0.02300
H 	H 	0.82330 0.22490 0.50000 0.03200
C 	C 	0.89970 0.27560 0.50000 0.47300
O 	O 	0.93620 0.14590 0.50000 -0.48900
O 	O 	0.57030 0.80810 0.50000 -0.45900
C 	C 	0.65150 0.78980 0.50000 -0.14300
C 	C 	0.68510 0.75690 0.50000 0.02200
H 	H 	0.67670 0.72490 0.50000 0.03200
C 	C 	0.60030 0.77560 0.50000 0.47100
O 	O 	0.56380 0.64590 0.50000 -0.47900
O 	O 	0.57030 0.30810 -0.00000 -0.45500
C 	C 	0.65150 0.28980 -0.00000 -0.14500
C 	C 	0.68510 0.25690 -0.00000 0.02600
H 	H 	0.67670 0.22490 -0.00000 0.03500
C 	C 	0.60030 0.27560 -0.00000 0.49100
O 	O 	0.56380 0.14590 -0.00000 -0.46600
O 	O 	0.07030 0.80810 -0.00000 -0.45700
C 	C 	0.15150 0.78980 -0.00000 -0.14700
C 	C 	0.18510 0.75690 -0.00000 0.02700
H 	H 	0.17670 0.72490 -0.00000 0.03400
C 	C 	0.10030 0.77560 -0.00000 0.49100
O 	O 	0.06380 0.64590 -0.00000 -0.46500
O 	O 	0.07030 0.30810 0.50000 -0.45600
C 	C 	0.15150 0.28980 0.50000 -0.14100
C 	C 	0.18510 0.25690 0.50000 0.02000
H 	H 	0.17670 0.22490 0.50000 0.03300
C 	C 	0.10030 0.27560 0.50000 0.47000
O 	O 	0.06380 0.14590 0.50000 -0.47700
O 	O 	0.42970 0.19190 0.50000 -0.45600
C 	C 	0.34850 0.21020 0.50000 -0.14100
C 	C 	0.31490 0.24310 0.50000 0.02000
H 	H 	0.32330 0.27510 0.50000 0.03300
C 	C 	0.39970 0.22440 0.50000 0.47000
O 	O 	0.43620 0.35410 0.50000 -0.47900
O 	O 	0.42970 0.69190 -0.00000 -0.45500
C 	C 	0.34850 0.71020 -0.00000 -0.14500
C 	C 	0.31490 0.74310 -0.00000 0.02600
H 	H 	0.32330 0.77510 -0.00000 0.03500
C 	C 	0.39970 0.72440 -0.00000 0.49100
O 	O 	0.43620 0.85410 -0.00000 -0.47000
O 	O 	0.92970 0.19190 -0.00000 -0.46800
C 	C 	0.84850 0.21020 -0.00000 -0.14800
C 	C 	0.81490 0.24310 -0.00000 0.02800
H 	H 	0.82330 0.27510 -0.00000 0.03400
C 	C 	0.89970 0.22440 -0.00000 0.49300
O 	O 	0.93620 0.35410 -0.00000 -0.47700
O 	O 	0.92970 0.69190 0.50000 -0.47000
C 	C 	0.84850 0.71020 0.50000 -0.14500
C 	C 	0.81490 0.74310 0.50000 0.02200
H 	H 	0.82330 0.77510 0.50000 0.03100
C 	C 	0.89970 0.72440 0.50000 0.47300
O 	O 	0.93620 0.85410 0.50000 -0.49300
O 	O 	0.19190 0.50000 0.42970 -0.45600
C 	C 	0.21020 0.50000 0.34850 -0.14100
C 	C 	0.24310 0.50000 0.31490 0.02000
H 	H 	0.27510 0.50000 0.32330 0.03300
C 	C 	0.22440 0.50000 0.39970 0.47000
O 	O 	0.35410 0.50000 0.43620 -0.47900
O 	O 	0.19190 -0.00000 0.92970 -0.46800
C 	C 	0.21020 0.00000 0.84850 -0.14800
C 	C 	0.24310 0.00000 0.81490 0.02800
H 	H 	0.27510 0.00000 0.82330 0.03400
C 	C 	0.22440 0.00000 0.89970 0.49300
O 	O 	0.35410 0.00000 0.93620 -0.47700
O 	O 	0.69190 0.50000 0.92970 -0.47000
C 	C 	0.71020 0.50000 0.84850 -0.14500
C 	C 	0.74310 0.50000 0.81490 0.02200
H 	H 	0.77510 0.50000 0.82330 0.03100
C 	C 	0.72440 0.50000 0.89970 0.47300
O 	O 	0.85410 0.50000 0.93620 -0.49300
O 	O 	0.69190 0.00000 0.42970 -0.45500
C 	C 	0.71020 0.00000 0.34850 -0.14500
C 	C 	0.74310 0.00000 0.31490 0.02600
H 	H 	0.77510 0.00000 0.32330 0.03500
C 	C 	0.72440 0.00000 0.39970 0.49100
O 	O 	0.85410 0.00000 0.43620 -0.47000
O 	O 	0.80810 0.50000 0.57030 -0.45900
C 	C 	0.78980 0.50000 0.65150 -0.14300
C 	C 	0.75690 0.50000 0.68510 0.02200
H 	H 	0.72490 0.50000 0.67670 0.03200
C 	C 	0.77560 0.50000 0.60030 0.47100
O 	O 	0.64590 0.50000 0.56380 -0.47900
O 	O 	0.80810 0.00000 0.07030 -0.45700
C 	C 	0.78980 0.00000 0.15150 -0.14700
C 	C 	0.75690 0.00000 0.18510 0.02700
H 	H 	0.72490 0.00000 0.17670 0.03400
C 	C 	0.77560 0.00000 0.10030 0.49100
O 	O 	0.64590 -0.00000 0.06380 -0.46500
O 	O 	0.30810 0.50000 0.07030 -0.45600
C 	C 	0.28980 0.50000 0.15150 -0.14100
C 	C 	0.25690 0.50000 0.18510 0.02000
H 	H 	0.22490 0.50000 0.17670 0.03300
C 	C 	0.27560 0.50000 0.10030 0.47000
O 	O 	0.14590 0.50000 0.06380 -0.47700
O 	O 	0.30810 0.00000 0.57030 -0.45500
C 	C 	0.28980 0.00000 0.65150 -0.14500
C 	C 	0.25690 0.00000 0.68510 0.02600
H 	H 	0.22490 0.00000 0.67670 0.03500
C 	C 	0.27560 0.00000 0.60030 0.49100
O 	O 	0.14590 0.00000 0.56380 -0.46600
O 	O 	0.80810 0.50000 0.42970 -0.45900
C 	C 	0.78980 0.50000 0.34850 -0.14300
C 	C 	0.75690 0.50000 0.31490 0.02200
H 	H 	0.72490 0.50000 0.32330 0.03200
C 	C 	0.77560 0.50000 0.39970 0.47100
O 	O 	0.64590 0.50000 0.43620 -0.47900
O 	O 	0.80810 -0.00000 0.92970 -0.47000
C 	C 	0.78980 0.00000 0.84850 -0.15100
C 	C 	0.75690 0.00000 0.81490 0.02900
H 	H 	0.72490 0.00000 0.82330 0.03300
C 	C 	0.77560 0.00000 0.89970 0.49400
O 	O 	0.64590 0.00000 0.93620 -0.47700
O 	O 	0.30810 0.50000 0.92970 -0.47000
C 	C 	0.28980 0.50000 0.84850 -0.14500
C 	C 	0.25690 0.50000 0.81490 0.02300
H 	H 	0.22490 0.50000 0.82330 0.03200
C 	C 	0.27560 0.50000 0.89970 0.47300
O 	O 	0.14590 0.50000 0.93620 -0.48900
O 	O 	0.30810 0.00000 0.42970 -0.45500
C 	C 	0.28980 0.00000 0.34850 -0.14500
C 	C 	0.25690 0.00000 0.31490 0.02600
H 	H 	0.22490 0.00000 0.32330 0.03500
C 	C 	0.27560 0.00000 0.39970 0.49100
O 	O 	0.14590 0.00000 0.43620 -0.46600
O 	O 	0.19190 0.50000 0.57030 -0.45600
C 	C 	0.21020 0.50000 0.65150 -0.14000
C 	C 	0.24310 0.50000 0.68510 0.02000
H 	H 	0.27510 0.50000 0.67670 0.03300
C 	C 	0.22440 0.50000 0.60030 0.47000
O 	O 	0.35410 0.50000 0.56380 -0.47900
O 	O 	0.19190 0.00000 0.07030 -0.45400
C 	C 	0.21020 0.00000 0.15150 -0.14400
C 	C 	0.24310 0.00000 0.18510 0.02600
H 	H 	0.27510 0.00000 0.17670 0.03500
C 	C 	0.22440 0.00000 0.10030 0.49000
O 	O 	0.35410 -0.00000 0.06380 -0.46500
O 	O 	0.69190 0.50000 0.07030 -0.45600
C 	C 	0.71020 0.50000 0.15150 -0.14100
C 	C 	0.74310 0.50000 0.18510 0.02000
H 	H 	0.77510 0.50000 0.17670 0.03300
C 	C 	0.72440 0.50000 0.10030 0.47000
O 	O 	0.85410 0.50000 0.06380 -0.48100
O 	O 	0.69190 0.00000 0.57030 -0.45500
C 	C 	0.71020 0.00000 0.65150 -0.14500
C 	C 	0.74310 0.00000 0.68510 0.02500
H 	H 	0.77510 0.00000 0.67670 0.03500
C 	C 	0.72440 0.00000 0.60030 0.49100
O 	O 	0.85410 0.00000 0.56380 -0.47000
O 	O 	0.50000 0.57030 0.80810 -0.45900
C 	C 	0.50000 0.65150 0.78980 -0.14300
C 	C 	0.50000 0.68510 0.75690 0.02200
H 	H 	0.50000 0.67670 0.72490 0.03200
C 	C 	0.50000 0.60030 0.77560 0.47100
O 	O 	0.50000 0.56380 0.64590 -0.47900
O 	O 	0.50000 0.07030 0.30810 -0.45600
C 	C 	0.50000 0.15150 0.28980 -0.14100
C 	C 	0.50000 0.18510 0.25690 0.02000
H 	H 	0.50000 0.17670 0.22490 0.03300
C 	C 	0.50000 0.10030 0.27560 0.47000
O 	O 	0.50000 0.06380 0.14590 -0.47700
O 	O 	-0.00000 0.57030 0.30810 -0.45500
C 	C 	-0.00000 0.65150 0.28980 -0.14500
C 	C 	0.00000 0.68510 0.25690 0.02600
H 	H 	0.00000 0.67670 0.22490 0.03500
C 	C 	-0.00000 0.60030 0.27560 0.49100
O 	O 	0.00000 0.56380 0.14590 -0.46600
O 	O 	-0.00000 0.07030 0.80810 -0.45700
C 	C 	0.00000 0.15150 0.78980 -0.14700
C 	C 	-0.00000 0.18510 0.75690 0.02700
H 	H 	0.00000 0.17670 0.72490 0.03400
C 	C 	-0.00000 0.10030 0.77560 0.49100
O 	O 	0.00000 0.06380 0.64590 -0.46500
O 	O 	0.50000 0.42970 0.19190 -0.45600
C 	C 	0.50000 0.34850 0.21020 -0.14100
C 	C 	0.50000 0.31490 0.24310 0.02000
H 	H 	0.50000 0.32330 0.27510 0.03300
C 	C 	0.50000 0.39970 0.22440 0.47000
O 	O 	0.50000 0.43620 0.35410 -0.47900
O 	O 	0.50000 0.92970 0.69190 -0.47000
C 	C 	0.50000 0.84850 0.71020 -0.14500
C 	C 	0.50000 0.81490 0.74310 0.02200
H 	H 	0.50000 0.82330 0.77510 0.03100
C 	C 	0.50000 0.89970 0.72440 0.47300
O 	O 	0.50000 0.93620 0.85410 -0.49300
O 	O 	0.00000 0.42970 0.69190 -0.45500
C 	C 	0.00000 0.34850 0.71020 -0.14500
C 	C 	-0.00000 0.31490 0.74310 0.02600
H 	H 	0.00000 0.32330 0.77510 0.03500
C 	C 	-0.00000 0.39970 0.72440 0.49100
O 	O 	0.00000 0.43620 0.85410 -0.47000
O 	O 	-0.00000 0.92970 0.19190 -0.46800
C 	C 	0.00000 0.84850 0.21020 -0.14800
C 	C 	0.00000 0.81490 0.24310 0.02800
H 	H 	0.00000 0.82330 0.27510 0.03400
C 	C 	-0.00000 0.89970 0.22440 0.49300
O 	O 	0.00000 0.93620 0.35410 -0.47700
O 	O 	0.50000 0.57030 0.19190 -0.45600
C 	C 	0.50000 0.65150 0.21020 -0.14000
C 	C 	0.50000 0.68510 0.24310 0.02000
H 	H 	0.50000 0.67670 0.27510 0.03300
C 	C 	0.50000 0.60030 0.22440 0.47000
O 	O 	0.50000 0.56380 0.35410 -0.47900
O 	O 	0.50000 0.07030 0.69190 -0.45600
C 	C 	0.50000 0.15150 0.71020 -0.14100
C 	C 	0.50000 0.18510 0.74310 0.02000
H 	H 	0.50000 0.17670 0.77510 0.03300
C 	C 	0.50000 0.10030 0.72440 0.47000
O 	O 	0.50000 0.06380 0.85410 -0.48100
O 	O 	0.00000 0.57030 0.69190 -0.45500
C 	C 	-0.00000 0.65150 0.71020 -0.14500
C 	C 	-0.00000 0.68510 0.74310 0.02500
H 	H 	0.00000 0.67670 0.77510 0.03500
C 	C 	-0.00000 0.60030 0.72440 0.49100
O 	O 	0.00000 0.56380 0.85410 -0.47000
O 	O 	0.00000 0.07030 0.19190 -0.45400
C 	C 	-0.00000 0.15150 0.21020 -0.14400
C 	C 	0.00000 0.18510 0.24310 0.02600
H 	H 	0.00000 0.17670 0.27510 0.03500
C 	C 	0.00000 0.10030 0.22440 0.49000
O 	O 	0.00000 0.06380 0.35410 -0.46500
O 	O 	0.50000 0.42970 0.80810 -0.45900
C 	C 	0.50000 0.34850 0.78980 -0.14300
C 	C 	0.50000 0.31490 0.75690 0.02200
H 	H 	0.50000 0.32330 0.72490 0.03200
C 	C 	0.50000 0.39970 0.77560 0.47100
O 	O 	0.50000 0.43620 0.64590 -0.47900
O 	O 	0.50000 0.92970 0.30810 -0.47000
C 	C 	0.50000 0.84850 0.28980 -0.14500
C 	C 	0.50000 0.81490 0.25690 0.02300
H 	H 	0.50000 0.82330 0.22490 0.03200
C 	C 	0.50000 0.89970 0.27560 0.47300
O 	O 	0.50000 0.93620 0.14590 -0.48900
O 	O 	-0.00000 0.42970 0.30810 -0.45500
C 	C 	-0.00000 0.34850 0.28980 -0.14500
C 	C 	-0.00000 0.31490 0.25690 0.02600
H 	H 	0.00000 0.32330 0.22490 0.03500
C 	C 	0.00000 0.39970 0.27560 0.49100
O 	O 	-0.00000 0.43620 0.14590 -0.46600
O 	O 	0.00000 0.92970 0.80810 -0.47000
C 	C 	0.00000 0.84850 0.78980 -0.15100
C 	C 	-0.00000 0.81490 0.75690 0.02900
H 	H 	0.00000 0.82330 0.72490 0.03300
C 	C 	0.00000 0.89970 0.77560 0.49400
O 	O 	0.00000 0.93620 0.64590 -0.47700
C 	C 	0.16290 0.66290 0.50000 0.07200
H 	H 	0.13950 0.63950 0.50000 0.03000
C 	C 	0.23090 0.73090 0.50000 -0.02300
C 	C 	0.16290 0.16290 -0.00000 0.07900
H 	H 	0.13950 0.13950 -0.00000 0.03100
C 	C 	0.23090 0.23090 -0.00000 -0.02300
C 	C 	0.83710 0.33710 0.50000 0.07400
H 	H 	0.86050 0.36050 0.50000 0.02600
C 	C 	0.76910 0.26910 0.50000 -0.02600
C 	C 	0.83710 0.83710 -0.00000 0.08300
H 	H 	0.86050 0.86050 -0.00000 0.02300
C 	C 	0.76910 0.76910 -0.00000 -0.02800
C 	C 	0.83710 0.66290 0.50000 0.07400
H 	H 	0.86050 0.63950 0.50000 0.02600
C 	C 	0.76910 0.73090 0.50000 -0.02500
C 	C 	0.83710 0.16290 -0.00000 0.08100
H 	H 	0.86050 0.13950 -0.00000 0.02700
C 	C 	0.76910 0.23090 -0.00000 -0.02500
C 	C 	0.16290 0.33710 0.50000 0.07200
H 	H 	0.13950 0.36050 0.50000 0.03000
C 	C 	0.23090 0.26910 0.50000 -0.02400
C 	C 	0.16290 0.83710 -0.00000 0.08100
H 	H 	0.13950 0.86050 -0.00000 0.02700
C 	C 	0.23090 0.76910 -0.00000 -0.02500
C 	C 	0.50000 0.16290 0.66290 0.07200
H 	H 	0.50000 0.13950 0.63950 0.03000
C 	C 	0.50000 0.23090 0.73090 -0.02300
C 	C 	-0.00000 0.16290 0.16290 0.07900
H 	H 	0.00000 0.13950 0.13950 0.03100
C 	C 	0.00000 0.23090 0.23090 -0.02300
C 	C 	0.50000 0.83710 0.33710 0.07400
H 	H 	0.50000 0.86050 0.36050 0.02600
C 	C 	0.50000 0.76910 0.26910 -0.02600
C 	C 	0.00000 0.83710 0.83710 0.08300
H 	H 	0.00000 0.86050 0.86050 0.02300
C 	C 	0.00000 0.76910 0.76910 -0.02800
C 	C 	0.50000 0.83710 0.66290 0.07400
H 	H 	0.50000 0.86050 0.63950 0.02600
C 	C 	0.50000 0.76910 0.73090 -0.02500
C 	C 	0.00000 0.83710 0.16290 0.08100
H 	H 	0.00000 0.86050 0.13950 0.02700
C 	C 	0.00000 0.76910 0.23090 -0.02500
C 	C 	0.50000 0.16290 0.33710 0.07200
H 	H 	0.50000 0.13950 0.36050 0.03000
C 	C 	0.50000 0.23090 0.26910 -0.02400
C 	C 	0.00000 0.16290 0.83710 0.08100
H 	H 	0.00000 0.13950 0.86050 0.02700
C 	C 	-0.00000 0.23090 0.76910 -0.02500
C 	C 	0.66290 0.50000 0.16290 0.07200
H 	H 	0.63950 0.50000 0.13950 0.03000
C 	C 	0.73090 0.50000 0.23090 -0.02300
C 	C 	0.66290 0.00000 0.66290 0.07900
H 	H 	0.63950 0.00000 0.63950 0.03000
C 	C 	0.73090 -0.00000 0.73090 -0.02300
C 	C 	0.33710 0.50000 0.83710 0.07400
H 	H 	0.36050 0.50000 0.86050 0.02600
C 	C 	0.26910 0.50000 0.76910 -0.02600
C 	C 	0.33710 0.00000 0.33710 0.08000
H 	H 	0.36050 0.00000 0.36050 0.03000
C 	C 	0.26910 0.00000 0.26910 -0.02400
C 	C 	0.66290 0.50000 0.83710 0.07400
H 	H 	0.63950 0.50000 0.86050 0.02600
C 	C 	0.73090 0.50000 0.76910 -0.02500
C 	C 	0.66290 0.00000 0.33710 0.08000
H 	H 	0.63950 0.00000 0.36050 0.03000
C 	C 	0.73090 0.00000 0.26910 -0.02400
C 	C 	0.33710 0.50000 0.16290 0.07200
H 	H 	0.36050 0.50000 0.13950 0.03000
C 	C 	0.26910 0.50000 0.23090 -0.02400
C 	C 	0.33710 0.00000 0.66290 0.08000
H 	H 	0.36050 0.00000 0.63950 0.03000
C 	C 	0.26910 -0.00000 0.73090 -0.02400
C 	C 	0.66290 0.16290 0.50000 0.07200
H 	H 	0.63950 0.13950 0.50000 0.03000
C 	C 	0.73090 0.23090 0.50000 -0.02300
C 	C 	0.66290 0.66290 -0.00000 0.07900
H 	H 	0.63950 0.63950 -0.00000 0.03000
C 	C 	0.73090 0.73090 -0.00000 -0.02300
C 	C 	0.33710 0.83710 0.50000 0.07400
H 	H 	0.36050 0.86050 0.50000 0.02600
C 	C 	0.26910 0.76910 0.50000 -0.02600
C 	C 	0.33710 0.33710 -0.00000 0.08000
H 	H 	0.36050 0.36050 -0.00000 0.03000
C 	C 	0.26910 0.26910 -0.00000 -0.02400
C 	C 	0.66290 0.83710 0.50000 0.07400
H 	H 	0.63950 0.86050 0.50000 0.02600
C 	C 	0.73090 0.76910 0.50000 -0.02500
C 	C 	0.66290 0.33710 -0.00000 0.08000
H 	H 	0.63950 0.36050 -0.00000 0.03000
C 	C 	0.73090 0.26910 -0.00000 -0.02400
C 	C 	0.33710 0.16290 0.50000 0.07200
H 	H 	0.36050 0.13950 0.50000 0.03000
C 	C 	0.26910 0.23090 0.50000 -0.02400
C 	C 	0.33710 0.66290 -0.00000 0.08000
H 	H 	0.36050 0.63950 -0.00000 0.03000
C 	C 	0.26910 0.73090 -0.00000 -0.02400
C 	C 	0.16290 0.50000 0.33710 0.07200
H 	H 	0.13950 0.50000 0.36050 0.03000
C 	C 	0.23090 0.50000 0.26910 -0.02400
C 	C 	0.16290 0.00000 0.83710 0.08100
H 	H 	0.13950 0.00000 0.86050 0.02700
C 	C 	0.23090 0.00000 0.76910 -0.02500
C 	C 	0.83710 0.50000 0.66290 0.07400
H 	H 	0.86050 0.50000 0.63950 0.02600
C 	C 	0.76910 0.50000 0.73090 -0.02500
C 	C 	0.83710 0.00000 0.16290 0.08100
H 	H 	0.86050 0.00000 0.13950 0.02700
C 	C 	0.76910 -0.00000 0.23090 -0.02500
C 	C 	0.83710 0.50000 0.33710 0.07400
H 	H 	0.86050 0.50000 0.36050 0.02600
C 	C 	0.76910 0.50000 0.26910 -0.02600
C 	C 	0.83710 0.00000 0.83710 0.08300
H 	H 	0.86050 0.00000 0.86050 0.02300
C 	C 	0.76910 0.00000 0.76910 -0.02800
C 	C 	0.16290 0.50000 0.66290 0.07200
H 	H 	0.13950 0.50000 0.63950 0.03000
C 	C 	0.23090 0.50000 0.73090 -0.02300
C 	C 	0.16290 0.00000 0.16290 0.07900
H 	H 	0.13950 0.00000 0.13950 0.03100
C 	C 	0.23090 -0.00000 0.23090 -0.02300
C 	C 	0.50000 0.66290 0.83710 0.07400
H 	H 	0.50000 0.63950 0.86050 0.02600
C 	C 	0.50000 0.73090 0.76910 -0.02500
C 	C 	0.00000 0.66290 0.33710 0.08000
H 	H 	0.00000 0.63950 0.36050 0.03000
C 	C 	-0.00000 0.73090 0.26910 -0.02400
C 	C 	0.50000 0.33710 0.16290 0.07200
H 	H 	0.50000 0.36050 0.13950 0.03000
C 	C 	0.50000 0.26910 0.23090 -0.02400
C 	C 	0.00000 0.33710 0.66290 0.08000
H 	H 	0.00000 0.36050 0.63950 0.03000
C 	C 	-0.00000 0.26910 0.73090 -0.02400
C 	C 	0.50000 0.66290 0.16290 0.07200
H 	H 	0.50000 0.63950 0.13950 0.03000
C 	C 	0.50000 0.73090 0.23090 -0.02300
C 	C 	0.00000 0.66290 0.66290 0.07900
H 	H 	0.00000 0.63950 0.63950 0.03000
C 	C 	-0.00000 0.73090 0.73090 -0.02300
C 	C 	0.50000 0.33710 0.83710 0.07400
H 	H 	0.50000 0.36050 0.86050 0.02600
C 	C 	0.50000 0.26910 0.76910 -0.02600
C 	C 	0.00000 0.33710 0.33710 0.08000
H 	H 	0.00000 0.36050 0.36050 0.03000
C 	C 	-0.00000 0.26910 0.26910 -0.02400
