data_crystal

_cell_length_a 11.42870
_cell_length_b 11.70310
_cell_length_c 12.91800
_cell_angle_alpha 64.00500
_cell_angle_beta  89.78300
_cell_angle_gamma 71.12900

_symmetry_space_group_name_	'P 1'
_symmetry_space_group_name_H-M	'P 1'

loop_
_symmetry_equiv_pos_as_xyz
  x,y,z

loop_
_atom_site_label
_atom_site_type_symbol
_atom_site_fract_x
_atom_site_fract_y
_atom_site_fract_z
_atom_site_charge
Cu	Cu	0.62499 0.83158 0.91995 0.83000
Cu	Cu	0.45441 0.13139 0.50200 0.79600
Cu	Cu	0.68451 0.36193 0.20390 0.82100
Cu	Cu	0.37501 0.16842 0.08005 0.83000
Cu	Cu	0.54559 0.86861 0.49800 0.79600
Cu	Cu	0.31549 0.63807 0.79610 0.82100
H 	H 	0.09050 0.47920 0.06780 0.22700
H 	H 	0.03270 0.56750 0.13080 0.23200
H 	H 	0.17160 0.54200 0.10860 0.23300
H 	H 	0.31850 0.37360 0.27800 0.08300
H 	H 	0.59760 0.12480 0.78730 0.08200
H 	H 	0.21110 0.06100 0.58270 0.18600
H 	H 	0.07890 0.09170 0.52080 0.21400
H 	H 	0.19950 0.99580 0.50180 0.19400
H 	H 	0.90790 0.39040 0.23620 0.01100
H 	H 	0.93100 0.25390 0.34960 0.01400
H 	H 	0.13890 0.15530 0.19290 0.05100
H 	H 	0.10760 0.06150 0.07550 -0.01100
H 	H 	0.90960 0.06910 0.02970 0.08200
H 	H 	0.66360 0.14290 0.16020 0.00500
H 	H 	0.63820 0.28260 0.04960 -0.00900
H 	H 	0.54870 0.36820 0.73880 0.18700
H 	H 	0.57770 0.39850 0.84080 0.18500
H 	H 	0.68590 0.35040 0.77760 0.20300
H 	H 	0.74030 0.79010 0.15120 0.19800
H 	H 	0.78550 0.87180 0.20100 0.22000
H 	H 	0.64700 0.87590 0.20200 0.20400
H 	H 	0.90950 0.52080 0.93220 0.22700
H 	H 	0.96730 0.43250 0.86920 0.23200
H 	H 	0.82840 0.45800 0.89140 0.23300
H 	H 	0.68150 0.62640 0.72200 0.08300
H 	H 	0.40240 0.87520 0.21270 0.08200
H 	H 	0.78890 0.93900 0.41730 0.18600
H 	H 	0.92110 0.90830 0.47920 0.21400
H 	H 	0.80050 0.00420 0.49820 0.19400
H 	H 	0.09210 0.60960 0.76380 0.01100
H 	H 	0.06900 0.74610 0.65040 0.01400
H 	H 	0.86110 0.84470 0.80710 0.05100
H 	H 	0.89240 0.93850 0.92450 -0.01100
H 	H 	0.09040 0.93090 0.97030 0.08200
H 	H 	0.33640 0.85710 0.83980 0.00500
H 	H 	0.36180 0.71740 0.95040 -0.00900
H 	H 	0.45130 0.63180 0.26120 0.18700
H 	H 	0.42230 0.60150 0.15920 0.18500
H 	H 	0.31410 0.64960 0.22240 0.20300
H 	H 	0.25970 0.20990 0.84880 0.19800
H 	H 	0.21450 0.12820 0.79900 0.22000
H 	H 	0.35300 0.12410 0.79800 0.20400
C 	C 	0.10770 0.50280 0.12710 -0.76500
C 	C 	0.15080 0.37950 0.24070 0.26600
C 	C 	0.09220 0.29110 0.31030 -0.19200
C 	C 	0.17730 0.19670 0.40940 0.23400
C 	C 	0.16560 0.07520 0.51310 -0.69400
C 	C 	0.96280 0.29570 0.27810 -0.11100
C 	C 	0.95530 0.22800 0.20630 0.09000
C 	C 	0.05900 0.16120 0.17080 -0.16800
C 	C 	0.04030 0.10410 0.10260 0.05600
C 	C 	0.92220 0.10990 0.07420 -0.17600
C 	C 	0.82380 0.17540 0.11150 0.09300
C 	C 	0.69090 0.18700 0.08660 -0.10700
C 	C 	0.60930 0.34130 0.80410 -0.67400
C 	C 	0.63360 0.19640 0.89010 0.23500
C 	C 	0.66980 0.12560 0.00900 -0.20400
C 	C 	0.67760 0.99190 0.04220 0.24200
C 	C 	0.71600 0.87180 0.15950 -0.72400
C 	C 	0.52070 0.01020 0.65850 -0.29300
C 	C 	0.59000 0.29410 0.31600 -0.26500
C 	C 	0.65710 0.65230 0.02360 -0.25800
C 	C 	0.89230 0.49720 0.87290 -0.76500
C 	C 	0.84920 0.62050 0.75930 0.26600
C 	C 	0.90780 0.70890 0.68970 -0.19200
C 	C 	0.82270 0.80330 0.59060 0.23400
C 	C 	0.83440 0.92480 0.48690 -0.69400
C 	C 	0.03720 0.70430 0.72190 -0.11100
C 	C 	0.04470 0.77200 0.79370 0.09000
C 	C 	0.94100 0.83880 0.82920 -0.16800
C 	C 	0.95970 0.89590 0.89740 0.05600
C 	C 	0.07780 0.89010 0.92580 -0.17600
C 	C 	0.17620 0.82460 0.88850 0.09300
C 	C 	0.30910 0.81300 0.91340 -0.10700
C 	C 	0.39070 0.65870 0.19590 -0.67400
C 	C 	0.36640 0.80360 0.10990 0.23500
C 	C 	0.33020 0.87440 0.99100 -0.20400
C 	C 	0.32240 0.00810 0.95780 0.24200
C 	C 	0.28400 0.12820 0.84050 -0.72400
C 	C 	0.47930 0.98980 0.34150 -0.29300
C 	C 	0.41000 0.70590 0.68400 -0.26500
C 	C 	0.34290 0.34770 0.97640 -0.25800
N 	N 	0.28430 0.21930 0.40590 -0.25700
N 	N 	0.26420 0.33490 0.30130 -0.22400
N 	N 	0.84020 0.23500 0.17540 -0.25700
N 	N 	0.62080 0.10520 0.85820 -0.21200
N 	N 	0.64850 0.97870 0.94970 -0.24700
N 	N 	0.56280 0.94050 0.75450 -0.19700
N 	N 	0.53590 0.24490 0.38610 -0.20800
N 	N 	0.67190 0.53970 0.09260 -0.22100
N 	N 	0.71570 0.78070 0.59410 -0.25700
N 	N 	0.73580 0.66510 0.69870 -0.22400
N 	N 	0.15980 0.76500 0.82460 -0.25700
N 	N 	0.37920 0.89480 0.14180 -0.21200
N 	N 	0.35150 0.02130 0.05030 -0.24700
N 	N 	0.43720 0.05950 0.24550 -0.19700
N 	N 	0.46410 0.75510 0.61390 -0.20800
N 	N 	0.32810 0.46030 0.90740 -0.22100
