data_crystal

_cell_length_a 24.65000
_cell_length_b 33.49400
_cell_length_c 18.52900
_cell_angle_alpha 90.00000
_cell_angle_beta  90.00000
_cell_angle_gamma 90.00000

_symmetry_space_group_name_	'P 1'
_symmetry_space_group_name_H-M	'P 1'

loop_
_symmetry_equiv_pos_as_xyz
  x,y,z

loop_
_atom_site_label
_atom_site_type_symbol
_atom_site_fract_x
_atom_site_fract_y
_atom_site_fract_z
_atom_site_charge
O 	O 	0.05702 0.43273 0.32400 -0.41200
C 	C 	0.07393 0.39938 0.34380 0.35200
O 	O 	0.05437 0.36573 0.32398 -0.41200
C 	C 	0.12097 0.39695 0.39399 -0.09000
Cu	Cu	0.21002 0.23273 0.46367 0.90600
O 	O 	0.24936 0.31657 0.51496 -0.41200
C 	C 	0.14801 0.43150 0.41501 -0.01400
H 	H 	0.13480 0.45690 0.40030 0.05000
O 	O 	0.18241 0.28692 0.45465 -0.41700
C 	C 	0.19461 0.42895 0.45779 -0.00700
O 	O 	0.32370 0.27223 0.44150 -0.40800
C 	C 	0.21331 0.39168 0.47918 -0.01300
H 	H 	0.24540 0.38970 0.50730 0.05200
O 	O 	0.25586 0.24346 0.38052 -0.41300
C 	C 	0.18553 0.35751 0.45981 -0.08700
C 	C 	0.13963 0.36061 0.41590 0.03100
H 	H 	0.12120 0.33710 0.40110 0.05000
C 	C 	0.20689 0.31655 0.47883 0.37300
C 	C 	0.22315 0.46606 0.47939 0.01700
C 	C 	0.28010 0.46763 0.47937 0.00100
H 	H 	0.29970 0.44470 0.46410 0.04300
C 	C 	0.30006 0.26134 0.38454 0.36500
C 	C 	0.32742 0.27159 0.31460 -0.08600
C 	C 	0.37520 0.29358 0.31471 -0.01500
H 	H 	0.39160 0.30080 0.35930 0.05500
C 	C 	0.45493 0.36262 0.29901 0.01200
H 	H 	0.42210 0.37240 0.31910 0.03900
O 	O 	0.55702 0.93273 0.32400 -0.40300
C 	C 	0.57393 0.89938 0.34380 0.35200
O 	O 	0.55437 0.86573 0.32398 -0.40200
C 	C 	0.62097 0.89695 0.39399 -0.08400
Cu	Cu	0.71002 0.73273 0.46367 0.90800
O 	O 	0.74936 0.81657 0.51496 -0.40900
C 	C 	0.64801 0.93150 0.41501 -0.01600
H 	H 	0.63480 0.95690 0.40030 0.05400
O 	O 	0.68241 0.78692 0.45465 -0.41300
C 	C 	0.69461 0.92895 0.45779 -0.00200
O 	O 	0.82370 0.77223 0.44150 -0.40400
C 	C 	0.71331 0.89168 0.47918 -0.01500
H 	H 	0.74540 0.88970 0.50730 0.05600
O 	O 	0.75586 0.74346 0.38052 -0.41100
C 	C 	0.68553 0.85751 0.45981 -0.08300
C 	C 	0.63963 0.86061 0.41590 0.02900
H 	H 	0.62120 0.83710 0.40110 0.05400
C 	C 	0.70689 0.81655 0.47883 0.37200
C 	C 	0.72315 0.96606 0.47939 0.01500
C 	C 	0.78010 0.96763 0.47937 0.00100
H 	H 	0.79970 0.94470 0.46410 0.04600
C 	C 	0.80006 0.76134 0.38454 0.36600
C 	C 	0.82742 0.77159 0.31460 -0.08700
C 	C 	0.87520 0.79358 0.31471 -0.00500
H 	H 	0.89160 0.80080 0.35930 0.05600
C 	C 	0.95493 0.86262 0.29901 0.03700
H 	H 	0.92210 0.87240 0.31910 0.03700
O 	O 	0.94298 0.56727 0.82400 -0.38700
C 	C 	0.92607 0.60062 0.84380 0.34800
O 	O 	0.94563 0.63427 0.82398 -0.38600
C 	C 	0.87903 0.60305 0.89399 -0.07400
Cu	Cu	0.78998 0.76727 0.96367 0.90800
O 	O 	0.75064 0.68343 0.01496 -0.40500
C 	C 	0.85199 0.56850 0.91501 -0.02100
H 	H 	0.86520 0.54310 0.90030 0.05800
O 	O 	0.81759 0.71308 0.95465 -0.40900
C 	C 	0.80539 0.57105 0.95779 0.00500
O 	O 	0.67630 0.72777 0.94150 -0.40900
C 	C 	0.78669 0.60832 0.97918 -0.02700
H 	H 	0.75460 0.61030 0.00730 0.06200
O 	O 	0.74414 0.75654 0.88052 -0.41100
C 	C 	0.81447 0.64249 0.95981 -0.07400
C 	C 	0.86037 0.63939 0.91590 0.02200
H 	H 	0.87880 0.66290 0.90110 0.06000
C 	C 	0.79311 0.68345 0.97883 0.36500
C 	C 	0.77685 0.53394 0.97939 0.01100
C 	C 	0.71990 0.53237 0.97937 0.00000
H 	H 	0.70030 0.55530 0.96410 0.04300
C 	C 	0.69994 0.73866 0.88454 0.36400
C 	C 	0.67258 0.72841 0.81460 -0.08500
C 	C 	0.62480 0.70642 0.81471 -0.01500
H 	H 	0.60840 0.69920 0.85930 0.05400
C 	C 	0.54507 0.63738 0.79901 0.01200
H 	H 	0.57790 0.62760 0.81910 0.03900
O 	O 	0.44298 0.06727 0.82400 -0.40300
C 	C 	0.42607 0.10062 0.84380 0.35100
O 	O 	0.44563 0.13427 0.82398 -0.40200
C 	C 	0.37903 0.10305 0.89399 -0.08100
Cu	Cu	0.28998 0.26727 0.96367 0.90700
O 	O 	0.25064 0.18343 0.01496 -0.40700
C 	C 	0.35199 0.06850 0.91501 -0.01900
H 	H 	0.36520 0.04310 0.90030 0.05500
O 	O 	0.31759 0.21308 0.95465 -0.41200
C 	C 	0.30539 0.07105 0.95779 0.00300
O 	O 	0.17630 0.22777 0.94150 -0.41200
C 	C 	0.28669 0.10832 0.97918 -0.02500
H 	H 	0.25460 0.11030 0.00730 0.06000
O 	O 	0.24414 0.25654 0.88052 -0.41400
C 	C 	0.31447 0.14249 0.95981 -0.07800
C 	C 	0.36037 0.13939 0.91590 0.02500
H 	H 	0.37880 0.16290 0.90110 0.05500
C 	C 	0.29311 0.18345 0.97883 0.36600
C 	C 	0.27685 0.03394 0.97939 0.01000
C 	C 	0.21990 0.03237 0.97937 0.00000
H 	H 	0.20030 0.05530 0.96410 0.04100
C 	C 	0.19994 0.23866 0.88454 0.36700
C 	C 	0.17258 0.22841 0.81460 -0.09400
C 	C 	0.12480 0.20642 0.81471 -0.00500
H 	H 	0.10840 0.19920 0.85930 0.04700
C 	C 	0.04507 0.13738 0.79901 -0.00000
H 	H 	0.07790 0.12760 0.81910 0.04000
O 	O 	0.94298 0.43273 0.17600 -0.38600
C 	C 	0.92607 0.39938 0.15620 0.35000
O 	O 	0.94563 0.36573 0.17602 -0.38500
C 	C 	0.87903 0.39695 0.10601 -0.07900
Cu	Cu	0.78998 0.23273 0.03633 0.91000
O 	O 	0.75064 0.31657 0.98504 -0.41400
C 	C 	0.85199 0.43150 0.08499 -0.01500
H 	H 	0.86520 0.45690 0.09970 0.05700
O 	O 	0.81759 0.28692 0.04535 -0.41000
C 	C 	0.80539 0.42895 0.04221 -0.00300
O 	O 	0.67630 0.27223 0.05850 -0.40500
C 	C 	0.78669 0.39168 0.02082 -0.00600
H 	H 	0.75460 0.38970 0.99270 0.04900
O 	O 	0.74414 0.24346 0.11948 -0.41000
C 	C 	0.81447 0.35751 0.04019 -0.08400
C 	C 	0.86037 0.36061 0.08410 0.03000
H 	H 	0.87880 0.33710 0.09890 0.05800
C 	C 	0.79311 0.31655 0.02117 0.37800
C 	C 	0.77685 0.46606 0.02061 0.01800
C 	C 	0.71990 0.46763 0.02063 0.00300
H 	H 	0.70030 0.44470 0.03590 0.04400
C 	C 	0.69994 0.26134 0.11546 0.36400
C 	C 	0.67258 0.27159 0.18540 -0.08400
C 	C 	0.62480 0.29358 0.18529 -0.01600
H 	H 	0.60840 0.30080 0.14070 0.05500
C 	C 	0.54507 0.36262 0.20099 0.01200
H 	H 	0.57790 0.37240 0.18090 0.04000
O 	O 	0.44298 0.93273 0.17600 -0.40300
C 	C 	0.42607 0.89938 0.15620 0.35300
O 	O 	0.44563 0.86573 0.17602 -0.40200
C 	C 	0.37903 0.89695 0.10601 -0.08600
Cu	Cu	0.28998 0.73273 0.03633 0.90900
O 	O 	0.25064 0.81657 0.98504 -0.41700
C 	C 	0.35199 0.93150 0.08499 -0.01300
H 	H 	0.36520 0.95690 0.09970 0.05300
O 	O 	0.31759 0.78692 0.04535 -0.41400
C 	C 	0.30539 0.92895 0.04221 -0.00600
O 	O 	0.17630 0.77223 0.05850 -0.40900
C 	C 	0.28669 0.89168 0.02082 -0.00400
H 	H 	0.25460 0.88970 0.99270 0.04700
O 	O 	0.24414 0.74346 0.11948 -0.41200
C 	C 	0.31447 0.85751 0.04019 -0.08900
C 	C 	0.36037 0.86061 0.08410 0.03300
H 	H 	0.37880 0.83710 0.09890 0.05300
C 	C 	0.29311 0.81655 0.02117 0.37900
C 	C 	0.27685 0.96606 0.02061 0.01400
C 	C 	0.21990 0.96763 0.02063 -0.00000
H 	H 	0.20030 0.94470 0.03590 0.04200
C 	C 	0.19994 0.76134 0.11546 0.36600
C 	C 	0.17258 0.77159 0.18540 -0.09300
C 	C 	0.12480 0.79358 0.18529 -0.00500
H 	H 	0.10840 0.80080 0.14070 0.04800
C 	C 	0.04507 0.86262 0.20099 -0.00000
H 	H 	0.07790 0.87240 0.18090 0.04100
O 	O 	0.05702 0.56727 0.67600 -0.41200
C 	C 	0.07393 0.60062 0.65620 0.35300
O 	O 	0.05437 0.63427 0.67602 -0.41100
C 	C 	0.12097 0.60305 0.60601 -0.08900
Cu	Cu	0.21002 0.76727 0.53633 0.90700
O 	O 	0.24936 0.68343 0.48504 -0.41100
C 	C 	0.14801 0.56850 0.58499 -0.01300
H 	H 	0.13480 0.54310 0.59970 0.05100
O 	O 	0.18241 0.71308 0.54535 -0.41600
C 	C 	0.19461 0.57105 0.54221 -0.00600
O 	O 	0.32370 0.72777 0.55850 -0.40700
C 	C 	0.21331 0.60832 0.52082 -0.01200
H 	H 	0.24540 0.61030 0.49270 0.05300
O 	O 	0.25586 0.75654 0.61948 -0.41300
C 	C 	0.18553 0.64249 0.54019 -0.08700
C 	C 	0.13963 0.63939 0.58410 0.03100
H 	H 	0.12120 0.66290 0.59890 0.05000
C 	C 	0.20689 0.68345 0.52117 0.37300
C 	C 	0.22315 0.53394 0.52061 0.01800
C 	C 	0.28010 0.53237 0.52063 0.00100
H 	H 	0.29970 0.55530 0.53590 0.04300
C 	C 	0.30006 0.73866 0.61546 0.36500
C 	C 	0.32742 0.72841 0.68540 -0.08600
C 	C 	0.37520 0.70642 0.68529 -0.01400
H 	H 	0.39160 0.69920 0.64070 0.05400
C 	C 	0.45493 0.63738 0.70099 0.01200
H 	H 	0.42210 0.62760 0.68090 0.03900
O 	O 	0.55702 0.06727 0.67600 -0.40200
C 	C 	0.57393 0.10062 0.65620 0.35200
O 	O 	0.55437 0.13427 0.67602 -0.40200
C 	C 	0.62097 0.10305 0.60601 -0.08300
Cu	Cu	0.71002 0.26727 0.53633 0.90800
O 	O 	0.74936 0.18343 0.48504 -0.40900
C 	C 	0.64801 0.06850 0.58499 -0.01600
H 	H 	0.63480 0.04310 0.59970 0.05400
O 	O 	0.68241 0.21308 0.54535 -0.41300
C 	C 	0.69461 0.07105 0.54221 -0.00100
O 	O 	0.82370 0.22777 0.55850 -0.40400
C 	C 	0.71331 0.10832 0.52082 -0.01500
H 	H 	0.74540 0.11030 0.49270 0.05600
O 	O 	0.75586 0.25654 0.61948 -0.41100
C 	C 	0.68553 0.14249 0.54019 -0.08200
C 	C 	0.63963 0.13939 0.58410 0.02900
H 	H 	0.62120 0.16290 0.59890 0.05400
C 	C 	0.70689 0.18345 0.52117 0.37200
C 	C 	0.72315 0.03394 0.52061 0.01700
C 	C 	0.78010 0.03237 0.52063 0.00400
H 	H 	0.79970 0.05530 0.53590 0.04600
C 	C 	0.80006 0.23866 0.61546 0.36600
C 	C 	0.82742 0.22841 0.68540 -0.08700
C 	C 	0.87520 0.20642 0.68529 -0.00500
H 	H 	0.89160 0.19920 0.64070 0.05600
C 	C 	0.95493 0.13738 0.70099 0.03700
H 	H 	0.92210 0.12760 0.68090 0.03700
O 	O 	0.94298 0.56727 0.67600 -0.38700
C 	C 	0.92607 0.60062 0.65620 0.34900
O 	O 	0.94563 0.63427 0.67602 -0.38500
C 	C 	0.87903 0.60305 0.60601 -0.07700
Cu	Cu	0.78998 0.76727 0.53633 0.90900
O 	O 	0.75064 0.68343 0.48504 -0.41000
C 	C 	0.85199 0.56850 0.58499 -0.01700
H 	H 	0.86520 0.54310 0.59970 0.05700
O 	O 	0.81759 0.71308 0.54535 -0.41000
C 	C 	0.80539 0.57105 0.54221 -0.00000
O 	O 	0.67630 0.72777 0.55850 -0.40700
C 	C 	0.78669 0.60832 0.52082 -0.01500
H 	H 	0.75460 0.61030 0.49270 0.05500
O 	O 	0.74414 0.75654 0.61948 -0.41000
C 	C 	0.81447 0.64249 0.54019 -0.08000
C 	C 	0.86037 0.63939 0.58410 0.02600
H 	H 	0.87880 0.66290 0.59890 0.05900
C 	C 	0.79311 0.68345 0.52117 0.37100
C 	C 	0.77685 0.53394 0.52061 0.01800
C 	C 	0.71990 0.53237 0.52063 0.00200
H 	H 	0.70030 0.55530 0.53590 0.04300
C 	C 	0.69994 0.73866 0.61546 0.36400
C 	C 	0.67258 0.72841 0.68540 -0.08500
C 	C 	0.62480 0.70642 0.68529 -0.01500
H 	H 	0.60840 0.69920 0.64070 0.05500
C 	C 	0.54507 0.63738 0.70099 0.01200
H 	H 	0.57790 0.62760 0.68090 0.03900
O 	O 	0.44298 0.06727 0.67600 -0.40300
C 	C 	0.42607 0.10062 0.65620 0.35300
O 	O 	0.44563 0.13427 0.67602 -0.40200
C 	C 	0.37903 0.10305 0.60601 -0.08400
Cu	Cu	0.28998 0.26727 0.53633 0.90800
O 	O 	0.25064 0.18343 0.48504 -0.41200
C 	C 	0.35199 0.06850 0.58499 -0.01500
H 	H 	0.36520 0.04310 0.59970 0.05400
O 	O 	0.31759 0.21308 0.54535 -0.41300
C 	C 	0.30539 0.07105 0.54221 -0.00300
O 	O 	0.17630 0.22777 0.55850 -0.41100
C 	C 	0.28669 0.10832 0.52082 -0.01400
H 	H 	0.25460 0.11030 0.49270 0.05300
O 	O 	0.24414 0.25654 0.61948 -0.41300
C 	C 	0.31447 0.14249 0.54019 -0.08400
C 	C 	0.36037 0.13939 0.58410 0.02900
H 	H 	0.37880 0.16290 0.59890 0.05400
C 	C 	0.29311 0.18345 0.52117 0.37300
C 	C 	0.27685 0.03394 0.52061 0.01600
C 	C 	0.21990 0.03237 0.52063 0.00200
H 	H 	0.20030 0.05530 0.53590 0.04100
C 	C 	0.19994 0.23866 0.61546 0.36700
C 	C 	0.17258 0.22841 0.68540 -0.09300
C 	C 	0.12480 0.20642 0.68529 -0.00500
H 	H 	0.10840 0.19920 0.64070 0.04800
C 	C 	0.04507 0.13738 0.70099 -0.00000
H 	H 	0.07790 0.12760 0.68090 0.04100
O 	O 	0.05702 0.43273 0.17600 -0.41100
C 	C 	0.07393 0.39938 0.15620 0.35400
O 	O 	0.05437 0.36573 0.17602 -0.41100
C 	C 	0.12097 0.39695 0.10601 -0.09100
Cu	Cu	0.21002 0.23273 0.03633 0.90800
O 	O 	0.24936 0.31657 0.98504 -0.41600
C 	C 	0.14801 0.43150 0.08499 -0.01100
H 	H 	0.13480 0.45690 0.09970 0.05000
O 	O 	0.18241 0.28692 0.04535 -0.41600
C 	C 	0.19461 0.42895 0.04221 -0.00900
O 	O 	0.32370 0.27223 0.05850 -0.40500
C 	C 	0.21331 0.39168 0.02082 -0.00200
H 	H 	0.24540 0.38970 0.99270 0.04700
O 	O 	0.25586 0.24346 0.11948 -0.41200
C 	C 	0.18553 0.35751 0.04019 -0.09200
C 	C 	0.13963 0.36061 0.08410 0.03500
H 	H 	0.12120 0.33710 0.09890 0.05000
C 	C 	0.20689 0.31655 0.02117 0.37900
C 	C 	0.22315 0.46606 0.02061 0.01800
C 	C 	0.28010 0.46763 0.02063 0.00200
H 	H 	0.29970 0.44470 0.03590 0.04400
C 	C 	0.30006 0.26134 0.11546 0.36500
C 	C 	0.32742 0.27159 0.18540 -0.08500
C 	C 	0.37520 0.29358 0.18529 -0.01500
H 	H 	0.39160 0.30080 0.14070 0.05500
C 	C 	0.45493 0.36262 0.20099 0.01200
H 	H 	0.42210 0.37240 0.18090 0.04000
O 	O 	0.55702 0.93273 0.17600 -0.40300
C 	C 	0.57393 0.89938 0.15620 0.35300
O 	O 	0.55437 0.86573 0.17602 -0.40200
C 	C 	0.62097 0.89695 0.10601 -0.08500
Cu	Cu	0.71002 0.73273 0.03633 0.90900
O 	O 	0.74936 0.81657 0.98504 -0.41400
C 	C 	0.64801 0.93150 0.08499 -0.01300
H 	H 	0.63480 0.95690 0.09970 0.05300
O 	O 	0.68241 0.78692 0.04535 -0.41300
C 	C 	0.69461 0.92895 0.04221 -0.00500
O 	O 	0.82370 0.77223 0.05850 -0.40200
C 	C 	0.71331 0.89168 0.02082 -0.00500
H 	H 	0.74540 0.88970 0.99270 0.05000
O 	O 	0.75586 0.74346 0.11948 -0.41100
C 	C 	0.68553 0.85751 0.04019 -0.08700
C 	C 	0.63963 0.86061 0.08410 0.03200
H 	H 	0.62120 0.83710 0.09890 0.05400
C 	C 	0.70689 0.81655 0.02117 0.37800
C 	C 	0.72315 0.96606 0.02061 0.01500
C 	C 	0.78010 0.96763 0.02063 0.00200
H 	H 	0.79970 0.94470 0.03590 0.04700
C 	C 	0.80006 0.76134 0.11546 0.36600
C 	C 	0.82742 0.77159 0.18540 -0.08700
C 	C 	0.87520 0.79358 0.18529 -0.00500
H 	H 	0.89160 0.80080 0.14070 0.05700
C 	C 	0.95493 0.86262 0.20099 0.03700
H 	H 	0.92210 0.87240 0.18090 0.03700
O 	O 	0.05702 0.56727 0.82400 -0.41100
C 	C 	0.07393 0.60062 0.84380 0.35200
O 	O 	0.05437 0.63427 0.82398 -0.41100
C 	C 	0.12097 0.60305 0.89399 -0.08700
Cu	Cu	0.21002 0.76727 0.96367 0.90600
O 	O 	0.24936 0.68343 0.01496 -0.40700
C 	C 	0.14801 0.56850 0.91501 -0.01700
H 	H 	0.13480 0.54310 0.90030 0.05100
O 	O 	0.18241 0.71308 0.95465 -0.41500
C 	C 	0.19461 0.57105 0.95779 -0.00000
O 	O 	0.32370 0.72777 0.94150 -0.40900
C 	C 	0.21331 0.60832 0.97918 -0.02400
H 	H 	0.24540 0.61030 0.00730 0.06000
O 	O 	0.25586 0.75654 0.88052 -0.41400
C 	C 	0.18553 0.64249 0.95981 -0.08100
C 	C 	0.13963 0.63939 0.91590 0.02700
H 	H 	0.12120 0.66290 0.90110 0.05100
C 	C 	0.20689 0.68345 0.97883 0.36600
C 	C 	0.22315 0.53394 0.97939 0.01100
C 	C 	0.28010 0.53237 0.97937 -0.00100
H 	H 	0.29970 0.55530 0.96410 0.04300
C 	C 	0.30006 0.73866 0.88454 0.36500
C 	C 	0.32742 0.72841 0.81460 -0.08700
C 	C 	0.37520 0.70642 0.81471 -0.01400
H 	H 	0.39160 0.69920 0.85930 0.05400
C 	C 	0.45493 0.63738 0.79901 0.01200
H 	H 	0.42210 0.62760 0.81910 0.03900
O 	O 	0.55702 0.06727 0.82400 -0.40200
C 	C 	0.57393 0.10062 0.84380 0.35100
O 	O 	0.55437 0.13427 0.82398 -0.40200
C 	C 	0.62097 0.10305 0.89399 -0.08000
Cu	Cu	0.71002 0.26727 0.96367 0.90700
O 	O 	0.74936 0.18343 0.01496 -0.40400
C 	C 	0.64801 0.06850 0.91501 -0.02000
H 	H 	0.63480 0.04310 0.90030 0.05500
O 	O 	0.68241 0.21308 0.95465 -0.41200
C 	C 	0.69461 0.07105 0.95779 0.00400
O 	O 	0.82370 0.22777 0.94150 -0.40600
C 	C 	0.71331 0.10832 0.97918 -0.02600
H 	H 	0.74540 0.11030 0.00730 0.06300
O 	O 	0.75586 0.25654 0.88052 -0.41200
C 	C 	0.68553 0.14249 0.95981 -0.07700
C 	C 	0.63963 0.13939 0.91590 0.02400
H 	H 	0.62120 0.16290 0.90110 0.05500
C 	C 	0.70689 0.18345 0.97883 0.36500
C 	C 	0.72315 0.03394 0.97939 0.01000
C 	C 	0.78010 0.03237 0.97937 0.00200
H 	H 	0.79970 0.05530 0.96410 0.04500
C 	C 	0.80006 0.23866 0.88454 0.36600
C 	C 	0.82742 0.22841 0.81460 -0.08800
C 	C 	0.87520 0.20642 0.81471 -0.00500
H 	H 	0.89160 0.19920 0.85930 0.05600
C 	C 	0.95493 0.13738 0.79901 0.03700
H 	H 	0.92210 0.12760 0.81910 0.03700
O 	O 	0.94298 0.43273 0.32400 -0.38600
C 	C 	0.92607 0.39938 0.34380 0.34900
O 	O 	0.94563 0.36573 0.32398 -0.38500
C 	C 	0.87903 0.39695 0.39399 -0.07700
Cu	Cu	0.78998 0.23273 0.46367 0.90900
O 	O 	0.75064 0.31657 0.51496 -0.41000
C 	C 	0.85199 0.43150 0.41501 -0.01700
H 	H 	0.86520 0.45690 0.40030 0.05700
O 	O 	0.81759 0.28692 0.45465 -0.41000
C 	C 	0.80539 0.42895 0.45779 -0.00000
O 	O 	0.67630 0.27223 0.44150 -0.40700
C 	C 	0.78669 0.39168 0.47918 -0.01500
H 	H 	0.75460 0.38970 0.50730 0.05500
O 	O 	0.74414 0.24346 0.38052 -0.41000
C 	C 	0.81447 0.35751 0.45981 -0.08000
C 	C 	0.86037 0.36061 0.41590 0.02600
H 	H 	0.87880 0.33710 0.40110 0.05900
C 	C 	0.79311 0.31655 0.47883 0.37100
C 	C 	0.77685 0.46606 0.47939 0.01800
C 	C 	0.71990 0.46763 0.47937 0.00200
H 	H 	0.70030 0.44470 0.46410 0.04300
C 	C 	0.69994 0.26134 0.38454 0.36400
C 	C 	0.67258 0.27159 0.31460 -0.08400
C 	C 	0.62480 0.29358 0.31471 -0.01600
H 	H 	0.60840 0.30080 0.35930 0.05500
C 	C 	0.54507 0.36262 0.29901 0.01200
H 	H 	0.57790 0.37240 0.31910 0.03900
O 	O 	0.44298 0.93273 0.32400 -0.40300
C 	C 	0.42607 0.89938 0.34380 0.35300
O 	O 	0.44563 0.86573 0.32398 -0.40200
C 	C 	0.37903 0.89695 0.39399 -0.08400
Cu	Cu	0.28998 0.73273 0.46367 0.90800
O 	O 	0.25064 0.81657 0.51496 -0.41200
C 	C 	0.35199 0.93150 0.41501 -0.01500
H 	H 	0.36520 0.95690 0.40030 0.05300
O 	O 	0.31759 0.78692 0.45465 -0.41300
C 	C 	0.30539 0.92895 0.45779 -0.00300
O 	O 	0.17630 0.77223 0.44150 -0.41100
C 	C 	0.28669 0.89168 0.47918 -0.01400
H 	H 	0.25460 0.88970 0.50730 0.05300
O 	O 	0.24414 0.74346 0.38052 -0.41300
C 	C 	0.31447 0.85751 0.45981 -0.08400
C 	C 	0.36037 0.86061 0.41590 0.02900
H 	H 	0.37880 0.83710 0.40110 0.05400
C 	C 	0.29311 0.81655 0.47883 0.37300
C 	C 	0.27685 0.96606 0.47939 0.01400
C 	C 	0.21990 0.96763 0.47937 -0.00100
H 	H 	0.20030 0.94470 0.46410 0.04100
C 	C 	0.19994 0.76134 0.38454 0.36700
C 	C 	0.17258 0.77159 0.31460 -0.09300
C 	C 	0.12480 0.79358 0.31471 -0.00500
H 	H 	0.10840 0.80080 0.35930 0.04800
C 	C 	0.04507 0.86262 0.29901 -0.00000
H 	H 	0.07790 0.87240 0.31910 0.04000
Cu	Cu	0.00000 0.43918 0.25000 0.88700
Cu	Cu	-0.00000 0.36021 0.25000 0.89700
Cu	Cu	0.50000 0.93918 0.25000 0.90200
Cu	Cu	0.50000 0.86021 0.25000 0.91200
Cu	Cu	0.00000 0.56082 0.75000 0.88700
Cu	Cu	-0.00000 0.63979 0.75000 0.89700
Cu	Cu	0.50000 0.06082 0.75000 0.90200
Cu	Cu	0.50000 0.13979 0.75000 0.91200
N 	N 	0.30790 0.50000 0.50000 -0.09900
C 	C 	0.19527 0.50000 0.50000 -0.07800
H 	H 	0.15670 0.50000 0.50000 0.06100
N 	N 	0.80790 0.00000 0.50000 -0.09400
C 	C 	0.69527 0.00000 0.50000 -0.07300
H 	H 	0.65670 0.00000 0.50000 0.06300
N 	N 	0.69210 0.50000 -0.00000 -0.09700
C 	C 	0.80473 0.50000 -0.00000 -0.07100
H 	H 	0.84330 0.50000 -0.00000 0.06500
N 	N 	0.19210 0.00000 -0.00000 -0.09800
C 	C 	0.30473 0.00000 -0.00000 -0.06700
H 	H 	0.34330 0.00000 -0.00000 0.06200
N 	N 	0.69210 0.50000 0.50000 -0.09900
C 	C 	0.80473 0.50000 0.50000 -0.07700
H 	H 	0.84330 0.50000 0.50000 0.06600
N 	N 	0.19210 0.00000 0.50000 -0.10000
C 	C 	0.30473 0.00000 0.50000 -0.07300
H 	H 	0.34330 0.00000 0.50000 0.06300
N 	N 	0.30790 0.50000 -0.00000 -0.09700
C 	C 	0.19527 0.50000 -0.00000 -0.07200
H 	H 	0.15670 0.50000 -0.00000 0.06000
N 	N 	0.80790 0.00000 -0.00000 -0.09200
C 	C 	0.69527 0.00000 -0.00000 -0.06600
H 	H 	0.65670 0.00000 -0.00000 0.06200
C 	C 	0.30433 0.26046 0.25000 0.03200
H 	H 	0.27210 0.24490 0.25000 0.05200
C 	C 	0.39936 0.30516 0.25000 -0.00600
C 	C 	0.45211 0.32713 0.25000 0.01200
C 	C 	0.80433 0.76046 0.25000 0.03600
H 	H 	0.77210 0.74490 0.25000 0.05200
C 	C 	0.89936 0.80516 0.25000 -0.01700
C 	C 	0.95211 0.82713 0.25000 0.05700
C 	C 	0.69567 0.73954 0.75000 0.03100
H 	H 	0.72790 0.75510 0.75000 0.05300
C 	C 	0.60064 0.69484 0.75000 -0.00500
C 	C 	0.54789 0.67287 0.75000 0.01200
C 	C 	0.19567 0.23954 0.75000 0.03800
H 	H 	0.22790 0.25510 0.75000 0.05000
C 	C 	0.10064 0.19484 0.75000 -0.02500
C 	C 	0.04789 0.17287 0.75000 0.04300
C 	C 	0.69567 0.26046 0.25000 0.03100
H 	H 	0.72790 0.24490 0.25000 0.05400
C 	C 	0.60064 0.30516 0.25000 -0.00500
C 	C 	0.54789 0.32713 0.25000 0.01200
C 	C 	0.19567 0.76046 0.25000 0.03700
H 	H 	0.22790 0.74490 0.25000 0.05000
C 	C 	0.10064 0.80516 0.25000 -0.02400
C 	C 	0.04789 0.82713 0.25000 0.04300
C 	C 	0.30433 0.73954 0.75000 0.03300
H 	H 	0.27210 0.75510 0.75000 0.05100
C 	C 	0.39936 0.69484 0.75000 -0.00600
C 	C 	0.45211 0.67287 0.75000 0.01200
C 	C 	0.80433 0.23954 0.75000 0.03600
H 	H 	0.77210 0.25510 0.75000 0.05200
C 	C 	0.89936 0.19484 0.75000 -0.01800
C 	C 	0.95211 0.17287 0.75000 0.05700
C 	C 	0.50000 0.31042 0.25000 -0.07200
H 	H 	0.50000 0.28210 0.25000 0.06500
C 	C 	0.00000 0.81042 0.25000 -0.14600
H 	H 	-0.00000 0.78210 0.25000 0.07800
C 	C 	0.50000 0.68958 0.75000 -0.07200
H 	H 	0.50000 0.71790 0.75000 0.06500
C 	C 	0.00000 0.18958 0.75000 -0.14600
H 	H 	-0.00000 0.21790 0.75000 0.07700
N 	N 	0.50000 0.38085 0.31560 -0.10000
N 	N 	0.00000 0.88085 0.31560 -0.11900
N 	N 	0.50000 0.61915 0.81560 -0.10000
N 	N 	0.00000 0.11915 0.81560 -0.11900
N 	N 	0.50000 0.38085 0.18440 -0.10000
N 	N 	0.00000 0.88085 0.18440 -0.11900
N 	N 	0.50000 0.61915 0.68440 -0.10000
N 	N 	0.00000 0.11915 0.68440 -0.11900
