data_crystal

_cell_length_a 14.12730
_cell_length_b 23.69720
_cell_length_c 23.69720
_cell_angle_alpha 90.00000
_cell_angle_beta  90.00000
_cell_angle_gamma 90.00000

_symmetry_space_group_name_	'P 1'
_symmetry_space_group_name_H-M	'P 1'

loop_
_symmetry_equiv_pos_as_xyz
  x,y,z

loop_
_atom_site_label
_atom_site_type_symbol
_atom_site_fract_x
_atom_site_fract_y
_atom_site_fract_z
_atom_site_charge
Na	Na	0.25000 0.91899 0.50000 0.58400
Na	Na	0.75000 0.08101 0.50000 0.58300
Na	Na	0.00000 0.50000 0.91899 0.58100
Na	Na	0.50000 0.50000 0.08101 0.58200
Dy	Dy	0.00000 0.00000 0.59012 1.43500
Dy	Dy	0.50000 0.00000 0.40988 1.47900
Dy	Dy	0.75000 0.40988 -0.00000 1.48200
Dy	Dy	0.25000 0.59012 -0.00000 1.47900
H 	H 	0.84610 0.95920 0.47130 0.04500
H 	H 	0.77770 0.94400 0.30740 0.02500
H 	H 	0.03970 0.90410 0.36000 0.02600
H 	H 	0.06080 0.94950 0.26560 -0.06100
H 	H 	0.78360 0.85430 0.29450 0.22400
H 	H 	0.73800 0.85210 0.23420 0.21200
H 	H 	0.80180 0.80220 0.25510 0.21600
H 	H 	0.09840 0.95170 0.08660 0.48700
H 	H 	0.09540 0.00500 0.12580 0.47800
H 	H 	0.19180 0.98480 0.10000 0.48300
H 	H 	0.21830 0.86090 0.17950 0.46600
H 	H 	0.17860 0.86470 0.11790 0.47800
H 	H 	0.27000 0.89820 0.13450 0.44100
H 	H 	0.21300 0.95060 0.24030 0.49300
H 	H 	0.26020 0.98390 0.19050 0.48400
H 	H 	0.16390 0.00470 0.21600 0.49500
H 	H 	0.34610 0.04080 0.52870 0.03500
H 	H 	0.27770 0.05600 0.69260 0.03700
H 	H 	0.53970 0.09590 0.64000 0.05300
H 	H 	0.56080 0.05050 0.73440 -0.12600
H 	H 	0.28360 0.14570 0.70550 0.23800
H 	H 	0.23800 0.14790 0.76580 0.22700
H 	H 	0.30180 0.19780 0.74490 0.22900
H 	H 	0.59840 0.04830 0.91340 0.69700
H 	H 	0.59540 0.99500 0.87420 0.73300
H 	H 	0.69180 0.01520 0.90000 0.68300
H 	H 	0.71830 0.13910 0.82050 0.60800
H 	H 	0.67860 0.13530 0.88210 0.62200
H 	H 	0.77000 0.10180 0.86550 0.58400
H 	H 	0.71300 0.04940 0.75970 0.68300
H 	H 	0.76020 0.01610 0.80950 0.67000
H 	H 	0.66390 0.99530 0.78400 0.73100
H 	H 	0.59610 0.52870 0.95920 0.04200
H 	H 	0.52770 0.69260 0.94400 0.02900
H 	H 	0.78970 0.64000 0.90410 0.05400
H 	H 	0.81080 0.73440 0.94950 -0.05800
H 	H 	0.53360 0.70550 0.85430 0.22700
H 	H 	0.48800 0.76580 0.85210 0.21800
H 	H 	0.55180 0.74490 0.80220 0.21900
H 	H 	0.84840 0.91340 0.95170 0.47300
H 	H 	0.84540 0.87420 0.00500 0.46400
H 	H 	0.94180 0.90000 0.98480 0.47800
H 	H 	0.96830 0.82050 0.86090 0.43400
H 	H 	0.92860 0.88210 0.86470 0.44500
H 	H 	0.02000 0.86550 0.89820 0.39400
H 	H 	0.96300 0.75970 0.95060 0.45300
H 	H 	0.01020 0.80950 0.98390 0.42800
H 	H 	0.91390 0.78400 0.00470 0.45300
H 	H 	0.09610 0.47130 0.04080 0.02600
H 	H 	0.02770 0.30740 0.05600 0.02300
H 	H 	0.28970 0.36000 0.09590 0.05000
H 	H 	0.31080 0.26560 0.05050 -0.12400
H 	H 	0.03360 0.29450 0.14570 0.26200
H 	H 	0.98800 0.23420 0.14790 0.27100
H 	H 	0.05180 0.25510 0.19780 0.25300
H 	H 	0.34840 0.08660 0.04830 0.67300
H 	H 	0.34540 0.12580 0.99500 0.71300
H 	H 	0.44180 0.10000 0.01520 0.65500
H 	H 	0.46830 0.17950 0.13910 0.58500
H 	H 	0.42860 0.11790 0.13530 0.59700
H 	H 	0.52000 0.13450 0.10180 0.55600
H 	H 	0.46300 0.24030 0.04940 0.66300
H 	H 	0.51020 0.19050 0.01610 0.64600
H 	H 	0.41390 0.21600 0.99530 0.71500
H 	H 	0.15390 0.04080 0.47130 0.03300
H 	H 	0.22230 0.05600 0.30740 0.04000
H 	H 	0.96030 0.09590 0.36000 0.08100
H 	H 	0.93920 0.05050 0.26560 -0.12300
H 	H 	0.21640 0.14570 0.29450 0.23400
H 	H 	0.26200 0.14790 0.23420 0.22300
H 	H 	0.19820 0.19780 0.25510 0.22300
H 	H 	0.90160 0.04830 0.08660 0.66700
H 	H 	0.90460 0.99500 0.12580 0.70600
H 	H 	0.80820 0.01520 0.10000 0.64600
H 	H 	0.78170 0.13910 0.17950 0.57500
H 	H 	0.82140 0.13530 0.11790 0.58700
H 	H 	0.73000 0.10180 0.13450 0.54600
H 	H 	0.78700 0.04940 0.24030 0.65200
H 	H 	0.73980 0.01610 0.19050 0.63500
H 	H 	0.83610 0.99530 0.21600 0.70300
H 	H 	0.65390 0.95920 0.52870 0.04300
H 	H 	0.72230 0.94400 0.69260 0.03200
H 	H 	0.46030 0.90410 0.64000 0.05200
H 	H 	0.43920 0.94950 0.73440 -0.07300
H 	H 	0.71640 0.85430 0.70550 0.23600
H 	H 	0.76200 0.85210 0.76580 0.22800
H 	H 	0.69820 0.80220 0.74490 0.22800
H 	H 	0.40160 0.95170 0.91340 0.51600
H 	H 	0.40460 0.00500 0.87420 0.50600
H 	H 	0.30820 0.98480 0.90000 0.51300
H 	H 	0.28170 0.86090 0.82050 0.49000
H 	H 	0.32140 0.86470 0.88210 0.50400
H 	H 	0.23000 0.89820 0.86550 0.47000
H 	H 	0.28700 0.95060 0.75970 0.51100
H 	H 	0.23980 0.98390 0.80950 0.50400
H 	H 	0.33610 0.00470 0.78400 0.51400
H 	H 	0.40390 0.47130 0.95920 0.04200
H 	H 	0.47230 0.30740 0.94400 0.03000
H 	H 	0.21030 0.36000 0.90410 0.04900
H 	H 	0.18920 0.26560 0.94950 -0.08200
H 	H 	0.46640 0.29450 0.85430 0.22800
H 	H 	0.51200 0.23420 0.85210 0.21700
H 	H 	0.44820 0.25510 0.80220 0.21900
H 	H 	0.15160 0.08660 0.95170 0.54400
H 	H 	0.15460 0.12580 0.00500 0.53700
H 	H 	0.05820 0.10000 0.98480 0.53100
H 	H 	0.03170 0.17950 0.86090 0.53400
H 	H 	0.07140 0.11790 0.86470 0.54700
H 	H 	0.98000 0.13450 0.89820 0.52900
H 	H 	0.03700 0.24030 0.95060 0.56400
H 	H 	0.98980 0.19050 0.98390 0.57500
H 	H 	0.08610 0.21600 0.00470 0.57100
H 	H 	0.90390 0.52870 0.04080 0.04500
H 	H 	0.97230 0.69260 0.05600 0.05100
H 	H 	0.71030 0.64000 0.09590 0.05400
H 	H 	0.68920 0.73440 0.05050 -0.12400
H 	H 	0.96640 0.70550 0.14570 0.21900
H 	H 	0.01200 0.76580 0.14790 0.19000
H 	H 	0.94820 0.74490 0.19780 0.21000
H 	H 	0.65160 0.91340 0.04830 0.69600
H 	H 	0.65460 0.87420 0.99500 0.73300
H 	H 	0.55820 0.90000 0.01520 0.68000
H 	H 	0.53170 0.82050 0.13910 0.60500
H 	H 	0.57140 0.88210 0.13530 0.62000
H 	H 	0.48000 0.86550 0.10180 0.58200
H 	H 	0.53700 0.75970 0.04940 0.67800
H 	H 	0.48980 0.80950 0.01610 0.66400
H 	H 	0.58610 0.78400 0.99530 0.72900
C 	C 	0.02450 0.92850 0.47100 0.34000
C 	C 	0.95380 0.93080 0.42282 -0.07400
C 	C 	0.86280 0.94980 0.43456 0.01900
C 	C 	0.79680 0.95470 0.39133 -0.10200
C 	C 	0.82180 0.94070 0.33637 -0.06100
C 	C 	0.91280 0.92170 0.32463 0.04800
C 	C 	0.97882 0.91680 0.36786 -0.01800
C 	C 	0.69930 0.97330 0.40390 0.37000
C 	C 	0.93810 0.90540 0.26505 -0.19600
C 	C 	0.88030 0.87180 0.23159 0.22300
C 	C 	0.90630 0.85970 0.17633 -0.15200
C 	C 	0.99020 0.88120 0.15452 0.31700
C 	C 	0.04810 0.91490 0.18798 -0.51400
C 	C 	0.02200 0.92700 0.24324 0.19300
C 	C 	0.79270 0.84240 0.25620 -0.67900
C 	C 	0.14810 0.93620 0.16470 1.20600
C 	C 	0.13200 0.97260 0.11490 -1.66300
C 	C 	0.20950 0.88520 0.14750 -1.60900
C 	C 	0.20110 0.97210 0.20670 -1.63500
C 	C 	0.52450 0.07150 0.52900 0.37400
C 	C 	0.45380 0.06920 0.57718 -0.08300
C 	C 	0.36280 0.05020 0.56544 -0.00100
C 	C 	0.29680 0.04530 0.60867 -0.07800
C 	C 	0.32180 0.05930 0.66363 -0.10100
C 	C 	0.41280 0.07830 0.67537 0.09100
C 	C 	0.47882 0.08320 0.63214 -0.08000
C 	C 	0.19930 0.02670 0.59610 0.29900
C 	C 	0.43810 0.09460 0.73495 -0.28100
C 	C 	0.38030 0.12820 0.76841 0.27700
C 	C 	0.40630 0.14030 0.82367 -0.19400
C 	C 	0.49020 0.11880 0.84548 0.35900
C 	C 	0.54810 0.08510 0.81202 -0.67100
C 	C 	0.52200 0.07300 0.75676 0.32700
C 	C 	0.29270 0.15760 0.74380 -0.73100
C 	C 	0.64810 0.06380 0.83530 1.66500
C 	C 	0.63200 0.02740 0.88510 -2.37600
C 	C 	0.70950 0.11480 0.85250 -2.08800
C 	C 	0.70110 0.02790 0.79330 -2.30700
C 	C 	0.77450 0.52900 0.92850 0.38100
C 	C 	0.70380 0.57718 0.93080 -0.08600
C 	C 	0.61280 0.56544 0.94980 0.02200
C 	C 	0.54680 0.60867 0.95470 -0.10000
C 	C 	0.57180 0.66363 0.94070 -0.07100
C 	C 	0.66280 0.67537 0.92170 0.06400
C 	C 	0.72882 0.63214 0.91680 -0.05700
C 	C 	0.44930 0.59610 0.97330 0.37000
C 	C 	0.68810 0.73495 0.90540 -0.21900
C 	C 	0.63030 0.76841 0.87180 0.22800
C 	C 	0.65630 0.82367 0.85970 -0.14900
C 	C 	0.74020 0.84548 0.88120 0.26800
C 	C 	0.79810 0.81202 0.91490 -0.46600
C 	C 	0.77200 0.75676 0.92700 0.20300
C 	C 	0.54270 0.74380 0.84240 -0.68900
C 	C 	0.89810 0.83530 0.93620 1.11800
C 	C 	0.88200 0.88510 0.97260 -1.59200
C 	C 	0.95950 0.85250 0.88520 -1.46700
C 	C 	0.95110 0.79330 0.97210 -1.47900
C 	C 	0.27450 0.47100 0.07150 0.37700
C 	C 	0.20380 0.42282 0.06920 -0.09300
C 	C 	0.11280 0.43456 0.05020 0.01500
C 	C 	0.04680 0.39133 0.04530 -0.11100
C 	C 	0.07180 0.33637 0.05930 -0.08700
C 	C 	0.16280 0.32463 0.07830 0.08300
C 	C 	0.22882 0.36786 0.08320 -0.07200
C 	C 	0.94930 0.40390 0.02670 0.32700
C 	C 	0.18810 0.26505 0.09460 -0.28800
C 	C 	0.13030 0.23159 0.12820 0.29700
C 	C 	0.15630 0.17633 0.14030 -0.20300
C 	C 	0.24020 0.15452 0.11880 0.35500
C 	C 	0.29810 0.18798 0.08510 -0.65900
C 	C 	0.27200 0.24324 0.07300 0.32200
C 	C 	0.04270 0.25620 0.15760 -0.82800
C 	C 	0.39810 0.16470 0.06380 1.61700
C 	C 	0.38200 0.11490 0.02740 -2.31100
C 	C 	0.45950 0.14750 0.11480 -2.02200
C 	C 	0.45110 0.20670 0.02790 -2.25100
C 	C 	0.97550 0.07150 0.47100 0.41700
C 	C 	0.04620 0.06920 0.42282 -0.09700
C 	C 	0.13720 0.05020 0.43456 0.00200
C 	C 	0.20320 0.04530 0.39133 -0.07600
C 	C 	0.17820 0.05930 0.33637 -0.11000
C 	C 	0.08720 0.07830 0.32463 0.10600
C 	C 	0.02118 0.08320 0.36786 -0.12200
C 	C 	0.30070 0.02670 0.40390 0.29800
C 	C 	0.06190 0.09460 0.26505 -0.30000
C 	C 	0.11970 0.12820 0.23159 0.26600
C 	C 	0.09370 0.14030 0.17633 -0.16500
C 	C 	0.00980 0.11880 0.15452 0.29500
C 	C 	0.95190 0.08510 0.18798 -0.61700
C 	C 	0.97800 0.07300 0.24324 0.33600
C 	C 	0.20730 0.15760 0.25620 -0.71900
C 	C 	0.85190 0.06380 0.16470 1.58400
C 	C 	0.86800 0.02740 0.11490 -2.27400
C 	C 	0.79050 0.11480 0.14750 -1.98800
C 	C 	0.79890 0.02790 0.20670 -2.21100
C 	C 	0.47550 0.92850 0.52900 0.38100
C 	C 	0.54620 0.93080 0.57718 -0.08400
C 	C 	0.63720 0.94980 0.56544 0.01800
C 	C 	0.70320 0.95470 0.60867 -0.09400
C 	C 	0.67820 0.94070 0.66363 -0.07800
C 	C 	0.58720 0.92170 0.67537 0.07300
C 	C 	0.52118 0.91680 0.63214 -0.06100
C 	C 	0.80070 0.97330 0.59610 0.36400
C 	C 	0.56190 0.90540 0.73495 -0.23900
C 	C 	0.61970 0.87180 0.76841 0.24600
C 	C 	0.59370 0.85970 0.82367 -0.16900
C 	C 	0.50980 0.88120 0.84548 0.29300
C 	C 	0.45190 0.91490 0.81202 -0.51900
C 	C 	0.47800 0.92700 0.75676 0.23500
C 	C 	0.70730 0.84240 0.74380 -0.71500
C 	C 	0.35190 0.93620 0.83530 1.25700
C 	C 	0.36800 0.97260 0.88510 -1.74100
C 	C 	0.29050 0.88520 0.85250 -1.67900
C 	C 	0.29890 0.97210 0.79330 -1.69600
C 	C 	0.22550 0.47100 0.92850 0.38200
C 	C 	0.29620 0.42282 0.93080 -0.08700
C 	C 	0.38720 0.43456 0.94980 0.02100
C 	C 	0.45320 0.39133 0.95470 -0.09800
C 	C 	0.42820 0.33637 0.94070 -0.07500
C 	C 	0.33720 0.32463 0.92170 0.07100
C 	C 	0.27118 0.36786 0.91680 -0.06000
C 	C 	0.55070 0.40390 0.97330 0.36900
C 	C 	0.31190 0.26505 0.90540 -0.24200
C 	C 	0.36970 0.23159 0.87180 0.23800
C 	C 	0.34370 0.17633 0.85970 -0.15600
C 	C 	0.25980 0.15452 0.88120 0.30100
C 	C 	0.20190 0.18798 0.91490 -0.55500
C 	C 	0.22800 0.24324 0.92700 0.25300
C 	C 	0.45730 0.25620 0.84240 -0.69500
C 	C 	0.10190 0.16470 0.93620 1.37200
C 	C 	0.11800 0.11490 0.97260 -1.85300
C 	C 	0.04050 0.14750 0.88520 -1.85800
C 	C 	0.04890 0.20670 0.97210 -1.89600
C 	C 	0.72550 0.52900 0.07150 0.37200
C 	C 	0.79620 0.57718 0.06920 -0.07400
C 	C 	0.88720 0.56544 0.05020 -0.01600
C 	C 	0.95320 0.60867 0.04530 -0.04600
C 	C 	0.92820 0.66363 0.05930 -0.11400
C 	C 	0.83720 0.67537 0.07830 0.09700
C 	C 	0.77118 0.63214 0.08320 -0.08500
C 	C 	0.05070 0.59610 0.02670 0.27400
C 	C 	0.81190 0.73495 0.09460 -0.27000
C 	C 	0.86970 0.76841 0.12820 0.25700
C 	C 	0.84370 0.82367 0.14030 -0.18100
C 	C 	0.75980 0.84548 0.11880 0.35500
C 	C 	0.70190 0.81202 0.08510 -0.66400
C 	C 	0.72800 0.75676 0.07300 0.32200
C 	C 	0.95730 0.74380 0.15760 -0.64600
C 	C 	0.60190 0.83530 0.06380 1.65800
C 	C 	0.61800 0.88510 0.02740 -2.37000
C 	C 	0.54050 0.85250 0.11480 -2.08100
C 	C 	0.54890 0.79330 0.02790 -2.29900
O 	O 	0.99600 0.93670 0.51960 -0.43500
O 	O 	0.10830 0.91190 0.45620 -0.35500
O 	O 	0.68080 0.00760 0.44235 -0.44300
O 	O 	0.63270 0.95450 0.37320 -0.47200
O 	O 	0.01370 0.86970 0.09960 -0.36900
O 	O 	0.49600 0.06330 0.48040 -0.48100
O 	O 	0.60830 0.08810 0.54380 -0.36700
O 	O 	0.18080 0.99240 0.55765 -0.38000
O 	O 	0.13270 0.04550 0.62680 -0.46700
O 	O 	0.51370 0.13030 0.90040 -0.38500
O 	O 	0.74600 0.48040 0.93670 -0.46800
O 	O 	0.85830 0.54380 0.91190 -0.35400
O 	O 	0.43080 0.55765 0.00760 -0.44500
O 	O 	0.38270 0.62680 0.95450 -0.47200
O 	O 	0.76370 0.90040 0.86970 -0.34500
O 	O 	0.24600 0.51960 0.06330 -0.48300
O 	O 	0.35830 0.45620 0.08810 -0.37000
O 	O 	0.93080 0.44235 0.99240 -0.38100
O 	O 	0.88270 0.37320 0.04550 -0.47100
O 	O 	0.26370 0.09960 0.13030 -0.38300
O 	O 	0.00400 0.06330 0.51960 -0.50500
O 	O 	0.89170 0.08810 0.45620 -0.37300
O 	O 	0.31920 0.99240 0.44235 -0.38100
O 	O 	0.36730 0.04550 0.37320 -0.47000
O 	O 	0.98630 0.13030 0.09960 -0.35600
O 	O 	0.50400 0.93670 0.48040 -0.46900
O 	O 	0.39170 0.91190 0.54380 -0.36200
O 	O 	0.81920 0.00760 0.55765 -0.43400
O 	O 	0.86730 0.95450 0.62680 -0.45800
O 	O 	0.48630 0.86970 0.90040 -0.35600
O 	O 	0.25400 0.51960 0.93670 -0.47100
O 	O 	0.14170 0.45620 0.91190 -0.36700
O 	O 	0.56920 0.44235 0.00760 -0.44500
O 	O 	0.61730 0.37320 0.95450 -0.47200
O 	O 	0.23630 0.09960 0.86970 -0.36200
O 	O 	0.75400 0.48040 0.06330 -0.48000
O 	O 	0.64170 0.54380 0.08810 -0.36800
O 	O 	0.06920 0.55765 0.99240 -0.38100
O 	O 	0.11730 0.62680 0.04550 -0.46700
O 	O 	0.73630 0.90040 0.13030 -0.38300
