data_crystal

_cell_length_a 12.58000
_cell_length_b 26.71300
_cell_length_c 33.45500
_cell_angle_alpha 90.00000
_cell_angle_beta  90.00000
_cell_angle_gamma 90.00000

_symmetry_space_group_name_	'P 1'
_symmetry_space_group_name_H-M	'P 1'

loop_
_symmetry_equiv_pos_as_xyz
  x,y,z

loop_
_atom_site_label
_atom_site_type_symbol
_atom_site_fract_x
_atom_site_fract_y
_atom_site_fract_z
_atom_site_charge
Co	Co	0.51462 0.93124 0.38532 1.17200
Co	Co	0.98538 0.43124 0.61468 1.17100
Co	Co	0.01462 0.43124 0.11468 1.17100
Co	Co	0.48538 0.93124 0.88532 1.17200
Ag	Ag	0.74111 0.28008 0.36232 0.52000
Ag	Ag	0.75889 0.78008 0.63768 0.52000
Ag	Ag	0.24111 0.78008 0.13768 0.52100
Ag	Ag	0.25889 0.28008 0.86232 0.52100
H 	H 	0.28380 0.95830 0.35630 0.01200
H 	H 	0.22250 0.04350 0.33680 0.03500
H 	H 	0.37860 0.10150 0.34420 0.06000
H 	H 	0.77420 0.07380 0.40120 0.06300
H 	H 	0.87050 0.99830 0.42660 0.03600
H 	H 	0.74610 0.92510 0.41960 0.01400
H 	H 	0.68900 0.09630 0.32010 0.09000
H 	H 	0.73810 0.17960 0.31320 -0.01800
H 	H 	0.55310 0.21980 0.40100 -0.02600
H 	H 	0.49530 0.13840 0.41020 0.09700
H 	H 	0.69450 0.96980 0.32860 0.01500
H 	H 	0.70610 0.95050 0.25470 0.03300
H 	H 	0.55160 0.89690 0.23810 0.07100
H 	H 	0.24170 0.81290 0.32850 0.06400
H 	H 	0.19340 0.82210 0.40050 0.04000
H 	H 	0.32880 0.88000 0.43100 0.01100
H 	H 	0.50510 0.80280 0.25580 0.09400
H 	H 	0.43870 0.76810 0.19780 -0.02600
H 	H 	0.17380 0.84480 0.20980 -0.02500
H 	H 	0.23350 0.88080 0.26840 0.09200
H 	H 	0.64760 0.84690 0.34400 0.01300
H 	H 	0.75110 0.78120 0.38030 0.04100
H 	H 	0.72650 0.79620 0.45370 0.06400
H 	H 	0.46240 0.92040 0.53470 0.06600
H 	H 	0.33530 0.98720 0.51130 0.04300
H 	H 	0.36120 0.99600 0.43720 0.01000
H 	H 	0.55500 0.78310 0.50380 0.09000
H 	H 	0.62250 0.75160 0.56230 -0.02200
H 	H 	0.76500 0.87890 0.58680 -0.01900
H 	H 	0.69750 0.91540 0.52920 0.08900
H 	H 	0.21620 0.45830 0.64370 0.01200
H 	H 	0.27750 0.54350 0.66320 0.03500
H 	H 	0.12140 0.60150 0.65580 0.06000
H 	H 	0.72580 0.57380 0.59880 0.06300
H 	H 	0.62950 0.49830 0.57340 0.03600
H 	H 	0.75390 0.42510 0.58040 0.01400
H 	H 	0.81100 0.59630 0.67990 0.09000
H 	H 	0.76190 0.67960 0.68680 -0.01900
H 	H 	0.94690 0.71980 0.59900 -0.02600
H 	H 	0.00470 0.63840 0.58980 0.09900
H 	H 	0.80550 0.46980 0.67140 0.01400
H 	H 	0.79390 0.45050 0.74530 0.03300
H 	H 	0.94840 0.39690 0.76190 0.07000
H 	H 	0.25830 0.31290 0.67150 0.06400
H 	H 	0.30660 0.32210 0.59950 0.04000
H 	H 	0.17120 0.38000 0.56900 0.01100
H 	H 	0.99490 0.30280 0.74420 0.09100
H 	H 	0.06130 0.26810 0.80220 -0.02500
H 	H 	0.32620 0.34480 0.79020 -0.02400
H 	H 	0.26650 0.38080 0.73160 0.09100
H 	H 	0.85240 0.34690 0.65600 0.01300
H 	H 	0.74890 0.28120 0.61970 0.04100
H 	H 	0.77350 0.29620 0.54630 0.06400
H 	H 	0.03760 0.42040 0.46530 0.06600
H 	H 	0.16470 0.48720 0.48870 0.04300
H 	H 	0.13880 0.49600 0.56280 0.01000
H 	H 	0.94500 0.28310 0.49620 0.09000
H 	H 	0.87750 0.25160 0.43770 -0.02200
H 	H 	0.73500 0.37890 0.41320 -0.01900
H 	H 	0.80250 0.41540 0.47080 0.08900
H 	H 	0.78380 0.45830 0.14370 0.01200
H 	H 	0.72250 0.54350 0.16320 0.03500
H 	H 	0.87860 0.60150 0.15580 0.06000
H 	H 	0.27420 0.57380 0.09880 0.06300
H 	H 	0.37050 0.49830 0.07340 0.03600
H 	H 	0.24610 0.42510 0.08040 0.01400
H 	H 	0.18900 0.59630 0.17990 0.09000
H 	H 	0.23810 0.67960 0.18680 -0.01900
H 	H 	0.05310 0.71980 0.09900 -0.02700
H 	H 	0.99530 0.63840 0.08980 0.09900
H 	H 	0.19450 0.46980 0.17140 0.01400
H 	H 	0.20610 0.45050 0.24530 0.03300
H 	H 	0.05160 0.39690 0.26190 0.07000
H 	H 	0.74170 0.31290 0.17150 0.06400
H 	H 	0.69340 0.32210 0.09950 0.04000
H 	H 	0.82880 0.38000 0.06900 0.01100
H 	H 	0.00510 0.30280 0.24420 0.09100
H 	H 	0.93870 0.26810 0.30220 -0.02500
H 	H 	0.67380 0.34480 0.29020 -0.02400
H 	H 	0.73350 0.38080 0.23160 0.09100
H 	H 	0.14760 0.34690 0.15600 0.01300
H 	H 	0.25110 0.28120 0.11970 0.04100
H 	H 	0.22650 0.29620 0.04630 0.06400
H 	H 	0.96240 0.42040 0.96530 0.06600
H 	H 	0.83530 0.48720 0.98870 0.04300
H 	H 	0.86120 0.49600 0.06280 0.01100
H 	H 	0.05500 0.28310 0.99620 0.09000
H 	H 	0.12250 0.25160 0.93770 -0.02200
H 	H 	0.26500 0.37890 0.91320 -0.01900
H 	H 	0.19750 0.41540 0.97080 0.08900
H 	H 	0.71620 0.95830 0.85630 0.01200
H 	H 	0.77750 0.04350 0.83680 0.03500
H 	H 	0.62140 0.10150 0.84420 0.05900
H 	H 	0.22580 0.07380 0.90120 0.06300
H 	H 	0.12950 0.99830 0.92660 0.03700
H 	H 	0.25390 0.92510 0.91960 0.01400
H 	H 	0.31100 0.09630 0.82010 0.09000
H 	H 	0.26190 0.17960 0.81320 -0.01800
H 	H 	0.44690 0.21980 0.90100 -0.02600
H 	H 	0.50470 0.13840 0.91020 0.09700
H 	H 	0.30550 0.96980 0.82860 0.01500
H 	H 	0.29390 0.95050 0.75470 0.03300
H 	H 	0.44840 0.89690 0.73810 0.07100
H 	H 	0.75830 0.81290 0.82850 0.06400
H 	H 	0.80660 0.82210 0.90050 0.04000
H 	H 	0.67120 0.88000 0.93100 0.01100
H 	H 	0.49490 0.80280 0.75580 0.09400
H 	H 	0.56130 0.76810 0.69780 -0.02600
H 	H 	0.82620 0.84480 0.70980 -0.02500
H 	H 	0.76650 0.88080 0.76840 0.09200
H 	H 	0.35240 0.84690 0.84400 0.01300
H 	H 	0.24890 0.78120 0.88030 0.04100
H 	H 	0.27350 0.79620 0.95370 0.06400
H 	H 	0.53760 0.92040 0.03470 0.06600
H 	H 	0.66470 0.98720 0.01130 0.04300
H 	H 	0.63880 0.99600 0.93720 0.01000
H 	H 	0.44500 0.78310 0.00380 0.08900
H 	H 	0.37750 0.75160 0.06230 -0.02200
H 	H 	0.23500 0.87890 0.08680 -0.01900
H 	H 	0.30250 0.91540 0.02920 0.08900
C 	C 	0.32680 0.98753 0.35696 0.02700
C 	C 	0.29180 0.03486 0.34568 -0.04200
C 	C 	0.37730 0.06670 0.34997 -0.10500
C 	C 	0.46280 0.03750 0.36470 0.11600
C 	C 	0.56460 0.05399 0.37476 -0.16200
C 	C 	0.64390 0.02453 0.39110 0.11700
C 	C 	0.74720 0.04066 0.40271 -0.10700
C 	C 	0.80000 0.99940 0.41641 -0.04000
C 	C 	0.72940 0.95863 0.41246 0.02400
C 	C 	0.59050 0.10748 0.36786 0.15000
C 	C 	0.66100 0.12088 0.33768 -0.18900
C 	C 	0.68960 0.17085 0.33379 0.09100
C 	C 	0.58220 0.19426 0.38459 0.09700
C 	C 	0.54780 0.14549 0.39060 -0.19900
C 	C 	0.64580 0.94948 0.31416 0.02100
C 	C 	0.65290 0.93904 0.27269 -0.03100
C 	C 	0.56890 0.90951 0.26380 -0.11200
C 	C 	0.51100 0.90065 0.29964 0.12100
C 	C 	0.42060 0.87169 0.30444 -0.16200
C 	C 	0.36650 0.86431 0.34032 0.11500
C 	C 	0.27710 0.83323 0.34766 -0.10500
C 	C 	0.25090 0.83780 0.38703 -0.04300
C 	C 	0.32690 0.87059 0.40360 0.03100
C 	C 	0.37820 0.84634 0.26794 0.15400
C 	C 	0.43660 0.81232 0.24656 -0.19900
C 	C 	0.39700 0.79187 0.21189 0.10700
C 	C 	0.24290 0.83670 0.21921 0.09400
C 	C 	0.27760 0.85820 0.25406 -0.19100
C 	C 	0.64990 0.84317 0.37218 0.02800
C 	C 	0.70890 0.80660 0.39225 -0.04200
C 	C 	0.69430 0.81430 0.43248 -0.10400
C 	C 	0.62160 0.85483 0.43624 0.11300
C 	C 	0.58100 0.87533 0.47132 -0.15600
C 	C 	0.50800 0.91449 0.47375 0.11300
C 	C 	0.45310 0.93180 0.50804 -0.10200
C 	C 	0.38340 0.96856 0.49522 -0.04000
C 	C 	0.39820 0.97282 0.45365 0.02700
C 	C 	0.61980 0.85286 0.50935 0.14000
C 	C 	0.59800 0.80364 0.52037 -0.18700
C 	C 	0.63880 0.78515 0.55517 0.09100
C 	C 	0.72140 0.85933 0.56967 0.08800
C 	C 	0.68210 0.88142 0.53513 -0.18300
C 	C 	0.17320 0.48753 0.64304 0.02700
C 	C 	0.20820 0.53486 0.65432 -0.04200
C 	C 	0.12270 0.56670 0.65003 -0.10500
C 	C 	0.03720 0.53750 0.63530 0.11900
C 	C 	0.93540 0.55399 0.62524 -0.16400
C 	C 	0.85610 0.52453 0.60890 0.11700
C 	C 	0.75280 0.54066 0.59729 -0.10800
C 	C 	0.70000 0.49940 0.58359 -0.04000
C 	C 	0.77060 0.45863 0.58754 0.02400
C 	C 	0.90950 0.60748 0.63214 0.15100
C 	C 	0.83900 0.62088 0.66232 -0.19000
C 	C 	0.81040 0.67085 0.66621 0.09100
C 	C 	0.91780 0.69426 0.61541 0.09800
C 	C 	0.95220 0.64549 0.60940 -0.20100
C 	C 	0.85420 0.44948 0.68584 0.02100
C 	C 	0.84710 0.43904 0.72731 -0.03100
C 	C 	0.93110 0.40951 0.73620 -0.11100
C 	C 	0.98900 0.40065 0.70036 0.11800
C 	C 	0.07940 0.37169 0.69556 -0.15900
C 	C 	0.13350 0.36431 0.65968 0.11400
C 	C 	0.22290 0.33323 0.65234 -0.10400
C 	C 	0.24910 0.33780 0.61297 -0.04400
C 	C 	0.17310 0.37059 0.59640 0.03200
C 	C 	0.12180 0.34634 0.73206 0.15100
C 	C 	0.06340 0.31232 0.75344 -0.19300
C 	C 	0.10300 0.29187 0.78811 0.10400
C 	C 	0.25710 0.33670 0.78079 0.09300
C 	C 	0.22240 0.35820 0.74594 -0.18900
C 	C 	0.85010 0.34317 0.62782 0.02700
C 	C 	0.79110 0.30660 0.60775 -0.04200
C 	C 	0.80570 0.31430 0.56752 -0.10400
C 	C 	0.87840 0.35483 0.56376 0.11200
C 	C 	0.91900 0.37533 0.52868 -0.15600
C 	C 	0.99200 0.41449 0.52625 0.11200
C 	C 	0.04690 0.43180 0.49196 -0.10100
C 	C 	0.11660 0.46856 0.50478 -0.04000
C 	C 	0.10180 0.47282 0.54635 0.02800
C 	C 	0.88020 0.35286 0.49065 0.14000
C 	C 	0.90200 0.30364 0.47963 -0.18700
C 	C 	0.86120 0.28515 0.44483 0.09100
C 	C 	0.77860 0.35933 0.43033 0.08800
C 	C 	0.81790 0.38142 0.46487 -0.18300
C 	C 	0.82680 0.48753 0.14304 0.02700
C 	C 	0.79180 0.53486 0.15432 -0.04200
C 	C 	0.87730 0.56670 0.15003 -0.10600
C 	C 	0.96280 0.53750 0.13530 0.11900
C 	C 	0.06460 0.55399 0.12524 -0.16500
C 	C 	0.14390 0.52453 0.10890 0.11800
C 	C 	0.24720 0.54066 0.09729 -0.10800
C 	C 	0.30000 0.49940 0.08359 -0.04000
C 	C 	0.22940 0.45863 0.08754 0.02400
C 	C 	0.09050 0.60748 0.13214 0.15100
C 	C 	0.16100 0.62088 0.16232 -0.19100
C 	C 	0.18960 0.67085 0.16621 0.09100
C 	C 	0.08220 0.69426 0.11541 0.09800
C 	C 	0.04780 0.64549 0.10940 -0.20200
C 	C 	0.14580 0.44948 0.18584 0.02100
C 	C 	0.15290 0.43904 0.22731 -0.03100
C 	C 	0.06890 0.40951 0.23620 -0.11000
C 	C 	0.01100 0.40065 0.20036 0.11800
C 	C 	0.92060 0.37169 0.19556 -0.15900
C 	C 	0.86650 0.36431 0.15968 0.11400
C 	C 	0.77710 0.33323 0.15234 -0.10400
C 	C 	0.75090 0.33780 0.11297 -0.04400
C 	C 	0.82690 0.37059 0.09640 0.03200
C 	C 	0.87820 0.34634 0.23206 0.15100
C 	C 	0.93660 0.31232 0.25344 -0.19300
C 	C 	0.89700 0.29187 0.28811 0.10400
C 	C 	0.74290 0.33670 0.28079 0.09300
C 	C 	0.77760 0.35820 0.24594 -0.18900
C 	C 	0.14990 0.34317 0.12782 0.02700
C 	C 	0.20890 0.30660 0.10775 -0.04200
C 	C 	0.19430 0.31430 0.06752 -0.10400
C 	C 	0.12160 0.35483 0.06376 0.11200
C 	C 	0.08100 0.37533 0.02868 -0.15600
C 	C 	0.00800 0.41449 0.02625 0.11300
C 	C 	0.95310 0.43180 0.99196 -0.10300
C 	C 	0.88340 0.46856 0.00478 -0.03900
C 	C 	0.89820 0.47282 0.04635 0.02700
C 	C 	0.11980 0.35286 0.99065 0.14000
C 	C 	0.09800 0.30364 0.97963 -0.18800
C 	C 	0.13880 0.28515 0.94483 0.09100
C 	C 	0.22140 0.35933 0.93033 0.08800
C 	C 	0.18210 0.38142 0.96487 -0.18300
C 	C 	0.67320 0.98753 0.85696 0.02700
C 	C 	0.70820 0.03486 0.84568 -0.04200
C 	C 	0.62270 0.06670 0.84997 -0.10400
C 	C 	0.53720 0.03750 0.86470 0.11600
C 	C 	0.43540 0.05399 0.87476 -0.16200
C 	C 	0.35610 0.02453 0.89110 0.11700
C 	C 	0.25280 0.04066 0.90271 -0.10800
C 	C 	0.20000 0.99940 0.91641 -0.04000
C 	C 	0.27060 0.95863 0.91246 0.02400
C 	C 	0.40950 0.10748 0.86786 0.15000
C 	C 	0.33900 0.12088 0.83768 -0.18900
C 	C 	0.31040 0.17085 0.83379 0.09100
C 	C 	0.41780 0.19426 0.88459 0.09700
C 	C 	0.45220 0.14549 0.89060 -0.19900
C 	C 	0.35420 0.94948 0.81416 0.02100
C 	C 	0.34710 0.93904 0.77269 -0.03100
C 	C 	0.43110 0.90951 0.76380 -0.11200
C 	C 	0.48900 0.90065 0.79964 0.12100
C 	C 	0.57940 0.87169 0.80444 -0.16200
C 	C 	0.63350 0.86431 0.84032 0.11500
C 	C 	0.72290 0.83323 0.84766 -0.10500
C 	C 	0.74910 0.83780 0.88703 -0.04300
C 	C 	0.67310 0.87059 0.90360 0.03100
C 	C 	0.62180 0.84634 0.76794 0.15400
C 	C 	0.56340 0.81232 0.74656 -0.19900
C 	C 	0.60300 0.79187 0.71189 0.10700
C 	C 	0.75710 0.83670 0.71921 0.09400
C 	C 	0.72240 0.85820 0.75406 -0.19100
C 	C 	0.35010 0.84317 0.87218 0.02800
C 	C 	0.29110 0.80660 0.89225 -0.04200
C 	C 	0.30570 0.81430 0.93248 -0.10400
C 	C 	0.37840 0.85483 0.93624 0.11300
C 	C 	0.41900 0.87533 0.97132 -0.15600
C 	C 	0.49200 0.91449 0.97375 0.11300
C 	C 	0.54690 0.93180 0.00804 -0.10200
C 	C 	0.61660 0.96856 0.99522 -0.04000
C 	C 	0.60180 0.97282 0.95365 0.02800
C 	C 	0.38020 0.85286 0.00935 0.13900
C 	C 	0.40200 0.80364 0.02037 -0.18700
C 	C 	0.36120 0.78515 0.05517 0.09100
C 	C 	0.27860 0.85933 0.06967 0.08800
C 	C 	0.31790 0.88142 0.03513 -0.18300
N 	N 	0.42870 0.98806 0.36884 -0.25600
N 	N 	0.63590 0.97318 0.39734 -0.25700
N 	N 	0.65300 0.20718 0.35732 -0.20800
N 	N 	0.56090 0.92669 0.33032 -0.25700
N 	N 	0.39510 0.88666 0.37646 -0.25700
N 	N 	0.30250 0.80439 0.19759 -0.20800
N 	N 	0.59700 0.87219 0.39806 -0.25600
N 	N 	0.47070 0.94032 0.44010 -0.25700
N 	N 	0.70120 0.81210 0.58002 -0.20600
N 	N 	0.07130 0.48806 0.63116 -0.25500
N 	N 	0.86410 0.47318 0.60266 -0.25700
N 	N 	0.84700 0.70718 0.64268 -0.20900
N 	N 	0.93910 0.42669 0.66968 -0.25600
N 	N 	0.10490 0.38666 0.62354 -0.25700
N 	N 	0.19750 0.30439 0.80241 -0.20700
N 	N 	0.90300 0.37219 0.60194 -0.25600
N 	N 	0.02930 0.44032 0.55990 -0.25700
N 	N 	0.79880 0.31210 0.41998 -0.20600
N 	N 	0.92870 0.48806 0.13116 -0.25500
N 	N 	0.13590 0.47318 0.10266 -0.25700
N 	N 	0.15300 0.70718 0.14268 -0.20900
N 	N 	0.06090 0.42669 0.16968 -0.25600
N 	N 	0.89510 0.38666 0.12354 -0.25700
N 	N 	0.80250 0.30439 0.30241 -0.20700
N 	N 	0.09700 0.37219 0.10194 -0.25700
N 	N 	0.97070 0.44032 0.05990 -0.25700
N 	N 	0.20120 0.31210 0.91998 -0.20600
N 	N 	0.57130 0.98806 0.86884 -0.25600
N 	N 	0.36410 0.97318 0.89734 -0.25700
N 	N 	0.34700 0.20718 0.85732 -0.20800
N 	N 	0.43910 0.92669 0.83032 -0.25600
N 	N 	0.60490 0.88666 0.87646 -0.25700
N 	N 	0.69750 0.80439 0.69759 -0.20800
N 	N 	0.40300 0.87219 0.89806 -0.25600
N 	N 	0.52930 0.94032 0.94010 -0.25700
N 	N 	0.29880 0.81210 0.08002 -0.20600
Co	Co	0.98538 0.56876 0.88532 1.17200
Co	Co	0.51462 0.06876 0.11468 1.17300
Co	Co	0.48538 0.06876 0.61468 1.17300
Co	Co	0.01462 0.56876 0.38532 1.17200
Ag	Ag	0.75889 0.21992 0.86232 0.52100
Ag	Ag	0.74111 0.71992 0.13768 0.52100
Ag	Ag	0.25889 0.71992 0.63768 0.52100
Ag	Ag	0.24111 0.21992 0.36232 0.52100
H 	H 	0.21620 0.54170 0.85630 0.01200
H 	H 	0.27750 0.45650 0.83680 0.03500
H 	H 	0.12140 0.39850 0.84420 0.06000
H 	H 	0.72580 0.42620 0.90120 0.06300
H 	H 	0.62950 0.50170 0.92660 0.03600
H 	H 	0.75390 0.57490 0.91960 0.01400
H 	H 	0.81100 0.40370 0.82010 0.09000
H 	H 	0.76190 0.32040 0.81320 -0.01900
H 	H 	0.94690 0.28020 0.90100 -0.02700
H 	H 	0.00470 0.36160 0.91020 0.09900
H 	H 	0.80550 0.53020 0.82860 0.01400
H 	H 	0.79390 0.54950 0.75470 0.03300
H 	H 	0.94840 0.60310 0.73810 0.07000
H 	H 	0.25830 0.68710 0.82850 0.06400
H 	H 	0.30660 0.67790 0.90050 0.04000
H 	H 	0.17120 0.62000 0.93100 0.01100
H 	H 	0.99490 0.69720 0.75580 0.09100
H 	H 	0.06130 0.73190 0.69780 -0.02500
H 	H 	0.32620 0.65520 0.70980 -0.02400
H 	H 	0.26650 0.61920 0.76840 0.09100
H 	H 	0.85240 0.65310 0.84400 0.01300
H 	H 	0.74890 0.71880 0.88030 0.04100
H 	H 	0.77350 0.70380 0.95370 0.06400
H 	H 	0.03760 0.57960 0.03470 0.06600
H 	H 	0.16470 0.51280 0.01130 0.04300
H 	H 	0.13880 0.50400 0.93720 0.01100
H 	H 	0.94500 0.71690 0.00380 0.09000
H 	H 	0.87750 0.74840 0.06230 -0.02200
H 	H 	0.73500 0.62110 0.08680 -0.01900
H 	H 	0.80250 0.58460 0.02920 0.08900
H 	H 	0.28380 0.04170 0.14370 0.01200
H 	H 	0.22250 0.95650 0.16320 0.03500
H 	H 	0.37860 0.89850 0.15580 0.05900
H 	H 	0.77420 0.92620 0.09880 0.06300
H 	H 	0.87050 0.00170 0.07340 0.03700
H 	H 	0.74610 0.07490 0.08040 0.01400
H 	H 	0.68900 0.90370 0.17990 0.09000
H 	H 	0.73810 0.82040 0.18680 -0.01800
H 	H 	0.55310 0.78020 0.09900 -0.02600
H 	H 	0.49530 0.86160 0.08980 0.09700
H 	H 	0.69450 0.03020 0.17140 0.01500
H 	H 	0.70610 0.04950 0.24530 0.03300
H 	H 	0.55160 0.10310 0.26190 0.07100
H 	H 	0.24170 0.18710 0.17150 0.06400
H 	H 	0.19340 0.17790 0.09950 0.04000
H 	H 	0.32880 0.12000 0.06900 0.01100
H 	H 	0.50510 0.19720 0.24420 0.09400
H 	H 	0.43870 0.23190 0.30220 -0.02600
H 	H 	0.17380 0.15520 0.29020 -0.02500
H 	H 	0.23350 0.11920 0.23160 0.09200
H 	H 	0.64760 0.15310 0.15600 0.01300
H 	H 	0.75110 0.21880 0.11970 0.04100
H 	H 	0.72650 0.20380 0.04630 0.06400
H 	H 	0.46240 0.07960 0.96530 0.06600
H 	H 	0.33530 0.01280 0.98870 0.04300
H 	H 	0.36120 0.00400 0.06280 0.01000
H 	H 	0.55500 0.21690 0.99620 0.08900
H 	H 	0.62250 0.24840 0.93770 -0.02200
H 	H 	0.76500 0.12110 0.91320 -0.01900
H 	H 	0.69750 0.08460 0.97080 0.08900
H 	H 	0.71620 0.04170 0.64370 0.01200
H 	H 	0.77750 0.95650 0.66320 0.03500
H 	H 	0.62140 0.89850 0.65580 0.06000
H 	H 	0.22580 0.92620 0.59880 0.06300
H 	H 	0.12950 0.00170 0.57340 0.03600
H 	H 	0.25390 0.07490 0.58040 0.01400
H 	H 	0.31100 0.90370 0.67990 0.09000
H 	H 	0.26190 0.82040 0.68680 -0.01800
H 	H 	0.44690 0.78020 0.59900 -0.02600
H 	H 	0.50470 0.86160 0.58980 0.09700
H 	H 	0.30550 0.03020 0.67140 0.01500
H 	H 	0.29390 0.04950 0.74530 0.03300
H 	H 	0.44840 0.10310 0.76190 0.07100
H 	H 	0.75830 0.18710 0.67150 0.06400
H 	H 	0.80660 0.17790 0.59950 0.04000
H 	H 	0.67120 0.12000 0.56900 0.01100
H 	H 	0.49490 0.19720 0.74420 0.09400
H 	H 	0.56130 0.23190 0.80220 -0.02600
H 	H 	0.82620 0.15520 0.79020 -0.02500
H 	H 	0.76650 0.11920 0.73160 0.09200
H 	H 	0.35240 0.15310 0.65600 0.01300
H 	H 	0.24890 0.21880 0.61970 0.04100
H 	H 	0.27350 0.20380 0.54630 0.06400
H 	H 	0.53760 0.07960 0.46530 0.06600
H 	H 	0.66470 0.01280 0.48870 0.04300
H 	H 	0.63880 0.00400 0.56280 0.01000
H 	H 	0.44500 0.21690 0.49620 0.09000
H 	H 	0.37750 0.24840 0.43770 -0.02200
H 	H 	0.23500 0.12110 0.41320 -0.01900
H 	H 	0.30250 0.08460 0.47080 0.08900
H 	H 	0.78380 0.54170 0.35630 0.01200
H 	H 	0.72250 0.45650 0.33680 0.03500
H 	H 	0.87860 0.39850 0.34420 0.06000
H 	H 	0.27420 0.42620 0.40120 0.06300
H 	H 	0.37050 0.50170 0.42660 0.03600
H 	H 	0.24610 0.57490 0.41960 0.01400
H 	H 	0.18900 0.40370 0.32010 0.09000
H 	H 	0.23810 0.32040 0.31320 -0.01900
H 	H 	0.05310 0.28020 0.40100 -0.02600
H 	H 	0.99530 0.36160 0.41020 0.09900
H 	H 	0.19450 0.53020 0.32860 0.01400
H 	H 	0.20610 0.54950 0.25470 0.03300
H 	H 	0.05160 0.60310 0.23810 0.07000
H 	H 	0.74170 0.68710 0.32850 0.06400
H 	H 	0.69340 0.67790 0.40050 0.04000
H 	H 	0.82880 0.62000 0.43100 0.01100
H 	H 	0.00510 0.69720 0.25580 0.09100
H 	H 	0.93870 0.73190 0.19780 -0.02500
H 	H 	0.67380 0.65520 0.20980 -0.02400
H 	H 	0.73350 0.61920 0.26840 0.09100
H 	H 	0.14760 0.65310 0.34400 0.01300
H 	H 	0.25110 0.71880 0.38030 0.04100
H 	H 	0.22650 0.70380 0.45370 0.06400
H 	H 	0.96240 0.57960 0.53470 0.06600
H 	H 	0.83530 0.51280 0.51130 0.04300
H 	H 	0.86120 0.50400 0.43720 0.01000
H 	H 	0.05500 0.71690 0.50380 0.09000
H 	H 	0.12250 0.74840 0.56230 -0.02200
H 	H 	0.26500 0.62110 0.58680 -0.01900
H 	H 	0.19750 0.58460 0.52920 0.08900
C 	C 	0.17320 0.51247 0.85696 0.02700
C 	C 	0.20820 0.46514 0.84568 -0.04200
C 	C 	0.12270 0.43330 0.84997 -0.10600
C 	C 	0.03720 0.46250 0.86470 0.11900
C 	C 	0.93540 0.44601 0.87476 -0.16500
C 	C 	0.85610 0.47547 0.89110 0.11800
C 	C 	0.75280 0.45934 0.90271 -0.10800
C 	C 	0.70000 0.50060 0.91641 -0.04000
C 	C 	0.77060 0.54137 0.91246 0.02400
C 	C 	0.90950 0.39252 0.86786 0.15100
C 	C 	0.83900 0.37912 0.83768 -0.19100
C 	C 	0.81040 0.32915 0.83379 0.09100
C 	C 	0.91780 0.30574 0.88459 0.09800
C 	C 	0.95220 0.35451 0.89060 -0.20200
C 	C 	0.85420 0.55052 0.81416 0.02100
C 	C 	0.84710 0.56096 0.77269 -0.03100
C 	C 	0.93110 0.59049 0.76380 -0.11000
C 	C 	0.98900 0.59935 0.79964 0.11800
C 	C 	0.07940 0.62831 0.80444 -0.15900
C 	C 	0.13350 0.63569 0.84032 0.11400
C 	C 	0.22290 0.66677 0.84766 -0.10400
C 	C 	0.24910 0.66220 0.88703 -0.04400
C 	C 	0.17310 0.62941 0.90360 0.03200
C 	C 	0.12180 0.65366 0.76794 0.15100
C 	C 	0.06340 0.68768 0.74656 -0.19300
C 	C 	0.10300 0.70813 0.71189 0.10400
C 	C 	0.25710 0.66330 0.71921 0.09300
C 	C 	0.22240 0.64180 0.75406 -0.18900
C 	C 	0.85010 0.65683 0.87218 0.02700
C 	C 	0.79110 0.69340 0.89225 -0.04200
C 	C 	0.80570 0.68570 0.93248 -0.10400
C 	C 	0.87840 0.64517 0.93624 0.11200
C 	C 	0.91900 0.62467 0.97132 -0.15600
C 	C 	0.99200 0.58551 0.97375 0.11300
C 	C 	0.04690 0.56820 0.00804 -0.10300
C 	C 	0.11660 0.53144 0.99522 -0.03900
C 	C 	0.10180 0.52718 0.95365 0.02700
C 	C 	0.88020 0.64714 0.00935 0.14000
C 	C 	0.90200 0.69636 0.02037 -0.18800
C 	C 	0.86120 0.71485 0.05517 0.09100
C 	C 	0.77860 0.64067 0.06967 0.08800
C 	C 	0.81790 0.61858 0.03513 -0.18300
C 	C 	0.32680 0.01247 0.14304 0.02700
C 	C 	0.29180 0.96514 0.15432 -0.04200
C 	C 	0.37730 0.93330 0.15003 -0.10400
C 	C 	0.46280 0.96250 0.13530 0.11600
C 	C 	0.56460 0.94601 0.12524 -0.16200
C 	C 	0.64390 0.97547 0.10890 0.11700
C 	C 	0.74720 0.95934 0.09729 -0.10800
C 	C 	0.80000 0.00060 0.08359 -0.04000
C 	C 	0.72940 0.04137 0.08754 0.02400
C 	C 	0.59050 0.89252 0.13214 0.15000
C 	C 	0.66100 0.87912 0.16232 -0.18900
C 	C 	0.68960 0.82915 0.16621 0.09100
C 	C 	0.58220 0.80574 0.11541 0.09700
C 	C 	0.54780 0.85451 0.10940 -0.19900
C 	C 	0.64580 0.05052 0.18584 0.02100
C 	C 	0.65290 0.06096 0.22731 -0.03100
C 	C 	0.56890 0.09049 0.23620 -0.11200
C 	C 	0.51100 0.09935 0.20036 0.12100
C 	C 	0.42060 0.12831 0.19556 -0.16200
C 	C 	0.36650 0.13569 0.15968 0.11500
C 	C 	0.27710 0.16677 0.15234 -0.10500
C 	C 	0.25090 0.16220 0.11297 -0.04300
C 	C 	0.32690 0.12941 0.09640 0.03100
C 	C 	0.37820 0.15366 0.23206 0.15400
C 	C 	0.43660 0.18768 0.25344 -0.19900
C 	C 	0.39700 0.20813 0.28811 0.10700
C 	C 	0.24290 0.16330 0.28079 0.09400
C 	C 	0.27760 0.14180 0.24594 -0.19100
C 	C 	0.64990 0.15683 0.12782 0.02800
C 	C 	0.70890 0.19340 0.10775 -0.04200
C 	C 	0.69430 0.18570 0.06752 -0.10400
C 	C 	0.62160 0.14517 0.06376 0.11300
C 	C 	0.58100 0.12467 0.02868 -0.15600
C 	C 	0.50800 0.08551 0.02625 0.11300
C 	C 	0.45310 0.06820 0.99196 -0.10200
C 	C 	0.38340 0.03144 0.00478 -0.04000
C 	C 	0.39820 0.02718 0.04635 0.02800
C 	C 	0.61980 0.14714 0.99065 0.13900
C 	C 	0.59800 0.19636 0.97963 -0.18700
C 	C 	0.63880 0.21485 0.94483 0.09100
C 	C 	0.72140 0.14067 0.93033 0.08800
C 	C 	0.68210 0.11858 0.96487 -0.18300
C 	C 	0.67320 0.01247 0.64304 0.02700
C 	C 	0.70820 0.96514 0.65432 -0.04200
C 	C 	0.62270 0.93330 0.65003 -0.10500
C 	C 	0.53720 0.96250 0.63530 0.11600
C 	C 	0.43540 0.94601 0.62524 -0.16200
C 	C 	0.35610 0.97547 0.60890 0.11700
C 	C 	0.25280 0.95934 0.59729 -0.10700
C 	C 	0.20000 0.00060 0.58359 -0.04000
C 	C 	0.27060 0.04137 0.58754 0.02400
C 	C 	0.40950 0.89252 0.63214 0.15000
C 	C 	0.33900 0.87912 0.66232 -0.18900
C 	C 	0.31040 0.82915 0.66621 0.09100
C 	C 	0.41780 0.80574 0.61541 0.09700
C 	C 	0.45220 0.85451 0.60940 -0.19900
C 	C 	0.35420 0.05052 0.68584 0.02100
C 	C 	0.34710 0.06096 0.72731 -0.03100
C 	C 	0.43110 0.09049 0.73620 -0.11200
C 	C 	0.48900 0.09935 0.70036 0.12100
C 	C 	0.57940 0.12831 0.69556 -0.16200
C 	C 	0.63350 0.13569 0.65968 0.11500
C 	C 	0.72290 0.16677 0.65234 -0.10500
C 	C 	0.74910 0.16220 0.61297 -0.04300
C 	C 	0.67310 0.12941 0.59640 0.03100
C 	C 	0.62180 0.15366 0.73206 0.15400
C 	C 	0.56340 0.18768 0.75344 -0.19900
C 	C 	0.60300 0.20813 0.78811 0.10700
C 	C 	0.75710 0.16330 0.78079 0.09400
C 	C 	0.72240 0.14180 0.74594 -0.19100
C 	C 	0.35010 0.15683 0.62782 0.02800
C 	C 	0.29110 0.19340 0.60775 -0.04200
C 	C 	0.30570 0.18570 0.56752 -0.10400
C 	C 	0.37840 0.14517 0.56376 0.11300
C 	C 	0.41900 0.12467 0.52868 -0.15600
C 	C 	0.49200 0.08551 0.52625 0.11300
C 	C 	0.54690 0.06820 0.49196 -0.10200
C 	C 	0.61660 0.03144 0.50478 -0.04000
C 	C 	0.60180 0.02718 0.54635 0.02700
C 	C 	0.38020 0.14714 0.49065 0.14000
C 	C 	0.40200 0.19636 0.47963 -0.18700
C 	C 	0.36120 0.21485 0.44483 0.09100
C 	C 	0.27860 0.14067 0.43033 0.08800
C 	C 	0.31790 0.11858 0.46487 -0.18300
C 	C 	0.82680 0.51247 0.35696 0.02700
C 	C 	0.79180 0.46514 0.34568 -0.04200
C 	C 	0.87730 0.43330 0.34997 -0.10500
C 	C 	0.96280 0.46250 0.36470 0.11900
C 	C 	0.06460 0.44601 0.37476 -0.16400
C 	C 	0.14390 0.47547 0.39110 0.11700
C 	C 	0.24720 0.45934 0.40271 -0.10800
C 	C 	0.30000 0.50060 0.41641 -0.04000
C 	C 	0.22940 0.54137 0.41246 0.02400
C 	C 	0.09050 0.39252 0.36786 0.15100
C 	C 	0.16100 0.37912 0.33768 -0.19000
C 	C 	0.18960 0.32915 0.33379 0.09100
C 	C 	0.08220 0.30574 0.38459 0.09800
C 	C 	0.04780 0.35451 0.39060 -0.20100
C 	C 	0.14580 0.55052 0.31416 0.02100
C 	C 	0.15290 0.56096 0.27269 -0.03100
C 	C 	0.06890 0.59049 0.26380 -0.11100
C 	C 	0.01100 0.59935 0.29964 0.11800
C 	C 	0.92060 0.62831 0.30444 -0.15900
C 	C 	0.86650 0.63569 0.34032 0.11400
C 	C 	0.77710 0.66677 0.34766 -0.10400
C 	C 	0.75090 0.66220 0.38703 -0.04400
C 	C 	0.82690 0.62941 0.40360 0.03200
C 	C 	0.87820 0.65366 0.26794 0.15100
C 	C 	0.93660 0.68768 0.24656 -0.19300
C 	C 	0.89700 0.70813 0.21189 0.10400
C 	C 	0.74290 0.66330 0.21921 0.09300
C 	C 	0.77760 0.64180 0.25406 -0.18900
C 	C 	0.14990 0.65683 0.37218 0.02700
C 	C 	0.20890 0.69340 0.39225 -0.04200
C 	C 	0.19430 0.68570 0.43248 -0.10400
C 	C 	0.12160 0.64517 0.43624 0.11200
C 	C 	0.08100 0.62467 0.47132 -0.15600
C 	C 	0.00800 0.58551 0.47375 0.11200
C 	C 	0.95310 0.56820 0.50804 -0.10100
C 	C 	0.88340 0.53144 0.49522 -0.04000
C 	C 	0.89820 0.52718 0.45365 0.02800
C 	C 	0.11980 0.64714 0.50935 0.14000
C 	C 	0.09800 0.69636 0.52037 -0.18700
C 	C 	0.13880 0.71485 0.55517 0.09100
C 	C 	0.22140 0.64067 0.56967 0.08800
C 	C 	0.18210 0.61858 0.53513 -0.18300
N 	N 	0.07130 0.51194 0.86884 -0.25500
N 	N 	0.86410 0.52682 0.89734 -0.25700
N 	N 	0.84700 0.29282 0.85732 -0.20900
N 	N 	0.93910 0.57331 0.83032 -0.25600
N 	N 	0.10490 0.61334 0.87646 -0.25700
N 	N 	0.19750 0.69561 0.69759 -0.20700
N 	N 	0.90300 0.62781 0.89806 -0.25700
N 	N 	0.02930 0.55968 0.94010 -0.25700
N 	N 	0.79880 0.68790 0.08002 -0.20600
N 	N 	0.42870 0.01194 0.13116 -0.25600
N 	N 	0.63590 0.02682 0.10266 -0.25700
N 	N 	0.65300 0.79282 0.14268 -0.20800
N 	N 	0.56090 0.07331 0.16968 -0.25600
N 	N 	0.39510 0.11334 0.12354 -0.25700
N 	N 	0.30250 0.19561 0.30241 -0.20800
N 	N 	0.59700 0.12781 0.10194 -0.25600
N 	N 	0.47070 0.05968 0.05990 -0.25700
N 	N 	0.70120 0.18790 0.91998 -0.20600
N 	N 	0.57130 0.01194 0.63116 -0.25600
N 	N 	0.36410 0.02682 0.60266 -0.25700
N 	N 	0.34700 0.79282 0.64268 -0.20800
N 	N 	0.43910 0.07331 0.66968 -0.25700
N 	N 	0.60490 0.11334 0.62354 -0.25700
N 	N 	0.69750 0.19561 0.80241 -0.20800
N 	N 	0.40300 0.12781 0.60194 -0.25600
N 	N 	0.52930 0.05968 0.55990 -0.25700
N 	N 	0.29880 0.18790 0.41998 -0.20600
N 	N 	0.92870 0.51194 0.36884 -0.25500
N 	N 	0.13590 0.52682 0.39734 -0.25700
N 	N 	0.15300 0.29282 0.35732 -0.20900
N 	N 	0.06090 0.57331 0.33032 -0.25600
N 	N 	0.89510 0.61334 0.37646 -0.25700
N 	N 	0.80250 0.69561 0.19759 -0.20700
N 	N 	0.09700 0.62781 0.39806 -0.25600
N 	N 	0.97070 0.55968 0.44010 -0.25700
N 	N 	0.20120 0.68790 0.58002 -0.20600
