data_crystal

_cell_length_a 12.30890
_cell_length_b 26.95900
_cell_length_c 33.49300
_cell_angle_alpha 90.00000
_cell_angle_beta  90.00000
_cell_angle_gamma 90.00000

_symmetry_space_group_name_	'P 1'
_symmetry_space_group_name_H-M	'P 1'

loop_
_symmetry_equiv_pos_as_xyz
  x,y,z

loop_
_atom_site_label
_atom_site_type_symbol
_atom_site_fract_x
_atom_site_fract_y
_atom_site_fract_z
_atom_site_charge
Fe	Fe	0.98198 0.93174 0.38561 1.18400
Fe	Fe	0.51802 0.43174 0.61439 1.18500
Fe	Fe	0.48198 0.43174 0.11439 1.18500
Fe	Fe	0.01802 0.93174 0.88561 1.18400
Ag	Ag	0.76095 0.27927 0.36156 0.52100
Ag	Ag	0.73905 0.77927 0.63844 0.52100
Ag	Ag	0.26095 0.77927 0.13844 0.52200
Ag	Ag	0.23905 0.27927 0.86156 0.52200
H 	H 	0.21390 0.96130 0.35500 0.00600
H 	H 	0.27260 0.04570 0.33420 0.03600
H 	H 	0.10990 0.10030 0.34050 0.06600
H 	H 	0.70900 0.07070 0.39870 0.06400
H 	H 	0.61660 0.99640 0.42870 0.03500
H 	H 	0.74860 0.92680 0.42340 0.01500
H 	H 	0.00380 0.13670 0.40730 0.09700
H 	H 	0.94870 0.21780 0.39810 -0.02500
H 	H 	0.74510 0.17950 0.31440 -0.02300
H 	H 	0.78360 0.09450 0.32360 0.09000
H 	H 	0.78940 0.96670 0.33090 0.01000
H 	H 	0.78090 0.95350 0.25600 0.03600
H 	H 	0.94130 0.90400 0.23570 0.06700
H 	H 	0.25340 0.81650 0.32240 0.06800
H 	H 	0.30990 0.82210 0.39570 0.04100
H 	H 	0.17510 0.87630 0.42820 0.01000
H 	H 	0.26490 0.89210 0.26320 0.10100
H 	H 	0.32610 0.85550 0.20500 -0.03100
H 	H 	0.06160 0.77580 0.19690 -0.02900
H 	H 	0.99650 0.81040 0.25450 0.09600
H 	H 	0.84600 0.84570 0.34540 0.01100
H 	H 	0.75460 0.78060 0.38080 0.04200
H 	H 	0.76870 0.79340 0.45360 0.06300
H 	H 	0.04020 0.92040 0.53550 0.06800
H 	H 	0.16840 0.98550 0.51240 0.04000
H 	H 	0.14430 0.99330 0.43830 0.01300
H 	H 	0.95740 0.78510 0.50720 0.08600
H 	H 	0.87480 0.75190 0.56190 -0.01900
H 	H 	0.72690 0.87790 0.58750 -0.01900
H 	H 	0.79970 0.91440 0.53130 0.08700
H 	H 	0.28610 0.46130 0.64500 0.00600
H 	H 	0.22740 0.54570 0.66580 0.03600
H 	H 	0.39010 0.60030 0.65950 0.06500
H 	H 	0.79100 0.57070 0.60130 0.06400
H 	H 	0.88340 0.49640 0.57130 0.03600
H 	H 	0.75140 0.42680 0.57660 0.01500
H 	H 	0.49620 0.63670 0.59270 0.09500
H 	H 	0.55130 0.71780 0.60190 -0.02400
H 	H 	0.75490 0.67950 0.68560 -0.02300
H 	H 	0.71640 0.59450 0.67640 0.09000
H 	H 	0.71060 0.46670 0.66910 0.01000
H 	H 	0.71910 0.45350 0.74400 0.03600
H 	H 	0.55870 0.40400 0.76430 0.06800
H 	H 	0.24660 0.31650 0.67760 0.06800
H 	H 	0.19010 0.32210 0.60430 0.04000
H 	H 	0.32490 0.37630 0.57180 0.01000
H 	H 	0.23510 0.39210 0.73680 0.10100
H 	H 	0.17390 0.35550 0.79500 -0.03100
H 	H 	0.43840 0.27580 0.80310 -0.03100
H 	H 	0.50350 0.31040 0.74550 0.10000
H 	H 	0.65400 0.34570 0.65460 0.01100
H 	H 	0.74540 0.28060 0.61920 0.04200
H 	H 	0.73130 0.29340 0.54640 0.06300
H 	H 	0.45980 0.42040 0.46450 0.06900
H 	H 	0.33160 0.48550 0.48760 0.03900
H 	H 	0.35570 0.49330 0.56170 0.01300
H 	H 	0.54260 0.28510 0.49280 0.08600
H 	H 	0.62520 0.25190 0.43810 -0.01900
H 	H 	0.77310 0.37790 0.41250 -0.01900
H 	H 	0.70030 0.41440 0.46870 0.08700
H 	H 	0.71390 0.46130 0.14500 0.00600
H 	H 	0.77260 0.54570 0.16580 0.03600
H 	H 	0.60990 0.60030 0.15950 0.06500
H 	H 	0.20900 0.57070 0.10130 0.06400
H 	H 	0.11660 0.49640 0.07130 0.03600
H 	H 	0.24860 0.42680 0.07660 0.01500
H 	H 	0.50380 0.63670 0.09270 0.09500
H 	H 	0.44870 0.71780 0.10190 -0.02400
H 	H 	0.24510 0.67950 0.18560 -0.02300
H 	H 	0.28360 0.59450 0.17640 0.09000
H 	H 	0.28940 0.46670 0.16910 0.01000
H 	H 	0.28090 0.45350 0.24400 0.03600
H 	H 	0.44130 0.40400 0.26430 0.06800
H 	H 	0.75340 0.31650 0.17760 0.06800
H 	H 	0.80990 0.32210 0.10430 0.04000
H 	H 	0.67510 0.37630 0.07180 0.01000
H 	H 	0.76490 0.39210 0.23680 0.10100
H 	H 	0.82610 0.35550 0.29500 -0.03100
H 	H 	0.56160 0.27580 0.30310 -0.03100
H 	H 	0.49650 0.31040 0.24550 0.10000
H 	H 	0.34600 0.34570 0.15460 0.01100
H 	H 	0.25460 0.28060 0.11920 0.04200
H 	H 	0.26870 0.29340 0.04640 0.06300
H 	H 	0.54020 0.42040 0.96450 0.06900
H 	H 	0.66840 0.48550 0.98760 0.04000
H 	H 	0.64430 0.49330 0.06170 0.01300
H 	H 	0.45740 0.28510 0.99280 0.08600
H 	H 	0.37480 0.25190 0.93810 -0.01900
H 	H 	0.22690 0.37790 0.91250 -0.01900
H 	H 	0.29970 0.41440 0.96870 0.08700
H 	H 	0.78610 0.96130 0.85500 0.00600
H 	H 	0.72740 0.04570 0.83420 0.03600
H 	H 	0.89010 0.10030 0.84050 0.06600
H 	H 	0.29100 0.07070 0.89870 0.06400
H 	H 	0.38340 0.99640 0.92870 0.03500
H 	H 	0.25140 0.92680 0.92340 0.01500
H 	H 	0.99620 0.13670 0.90730 0.09800
H 	H 	0.05130 0.21780 0.89810 -0.02500
H 	H 	0.25490 0.17950 0.81440 -0.02300
H 	H 	0.21640 0.09450 0.82360 0.09000
H 	H 	0.21060 0.96670 0.83090 0.01000
H 	H 	0.21910 0.95350 0.75600 0.03600
H 	H 	0.05870 0.90400 0.73570 0.06700
H 	H 	0.74660 0.81650 0.82240 0.06800
H 	H 	0.69010 0.82210 0.89570 0.04100
H 	H 	0.82490 0.87630 0.92820 0.01000
H 	H 	0.73510 0.89210 0.76320 0.10100
H 	H 	0.67390 0.85550 0.70500 -0.03100
H 	H 	0.93840 0.77580 0.69690 -0.02900
H 	H 	0.00350 0.81040 0.75450 0.09600
H 	H 	0.15400 0.84570 0.84540 0.01100
H 	H 	0.24540 0.78060 0.88080 0.04200
H 	H 	0.23130 0.79340 0.95360 0.06300
H 	H 	0.95980 0.92040 0.03550 0.06900
H 	H 	0.83160 0.98550 0.01240 0.03900
H 	H 	0.85570 0.99330 0.93830 0.01300
H 	H 	0.04260 0.78510 0.00720 0.08600
H 	H 	0.12520 0.75190 0.06190 -0.01900
H 	H 	0.27310 0.87790 0.08750 -0.01900
H 	H 	0.20030 0.91440 0.03130 0.08700
C 	C 	0.16870 0.98980 0.35570 0.03900
C 	C 	0.20250 0.03650 0.34350 -0.04400
C 	C 	0.11430 0.06630 0.34770 -0.11200
C 	C 	0.03360 0.03850 0.36400 0.11600
C 	C 	0.92410 0.05440 0.37400 -0.16200
C 	C 	0.84650 0.02350 0.39086 0.12200
C 	C 	0.73920 0.03850 0.40190 -0.11100
C 	C 	0.68790 0.99800 0.41790 -0.03800
C 	C 	0.76320 0.95970 0.41490 0.01600
C 	C 	0.89980 0.10660 0.36659 0.15100
C 	C 	0.94830 0.14420 0.38850 -0.19600
C 	C 	0.91550 0.19230 0.38280 0.08800
C 	C 	0.79570 0.17030 0.33455 0.10000
C 	C 	0.82000 0.11910 0.33890 -0.19200
C 	C 	0.84160 0.94900 0.31560 0.02900
C 	C 	0.83640 0.94160 0.27320 -0.03900
C 	C 	0.92410 0.91470 0.26200 -0.10200
C 	C 	0.98690 0.90540 0.29817 0.11400
C 	C 	0.07860 0.87880 0.30180 -0.16600
C 	C 	0.13640 0.86900 0.33830 0.12200
C 	C 	0.22130 0.83640 0.34260 -0.11400
C 	C 	0.25070 0.83850 0.38310 -0.04500
C 	C 	0.17590 0.86910 0.40040 0.03100
C 	C 	0.12390 0.85630 0.26420 0.17400
C 	C 	0.22090 0.86840 0.24980 -0.21900
C 	C 	0.25710 0.84600 0.21520 0.11500
C 	C 	0.10430 0.79990 0.21050 0.11300
C 	C 	0.06500 0.82060 0.24440 -0.20900
C 	C 	0.84620 0.84200 0.37360 0.02700
C 	C 	0.79360 0.80670 0.39330 -0.04400
C 	C 	0.80220 0.81230 0.43310 -0.10000
C 	C 	0.87490 0.85400 0.43690 0.10900
C 	C 	0.91710 0.87490 0.47260 -0.15100
C 	C 	0.99230 0.91430 0.47496 0.11700
C 	C 	0.04930 0.93160 0.50878 -0.11000
C 	C 	0.11930 0.96700 0.49630 -0.02900
C 	C 	0.10480 0.97100 0.45483 0.01300
C 	C 	0.87800 0.85310 0.51020 0.13200
C 	C 	0.90700 0.80420 0.52230 -0.17700
C 	C 	0.86130 0.78570 0.55560 0.08300
C 	C 	0.77340 0.85890 0.57080 0.08800
C 	C 	0.81460 0.88050 0.53680 -0.18000
C 	C 	0.33130 0.48980 0.64430 0.03900
C 	C 	0.29750 0.53650 0.65650 -0.04500
C 	C 	0.38570 0.56630 0.65230 -0.11000
C 	C 	0.46640 0.53850 0.63600 0.11400
C 	C 	0.57590 0.55440 0.62600 -0.15900
C 	C 	0.65350 0.52350 0.60914 0.12100
C 	C 	0.76080 0.53850 0.59810 -0.11100
C 	C 	0.81210 0.49800 0.58210 -0.03800
C 	C 	0.73680 0.45970 0.58510 0.01600
C 	C 	0.60020 0.60660 0.63341 0.14900
C 	C 	0.55170 0.64420 0.61150 -0.19300
C 	C 	0.58450 0.69230 0.61720 0.08600
C 	C 	0.70430 0.67030 0.66545 0.10000
C 	C 	0.68000 0.61910 0.66110 -0.19100
C 	C 	0.65840 0.44900 0.68440 0.02900
C 	C 	0.66360 0.44160 0.72680 -0.03800
C 	C 	0.57590 0.41470 0.73800 -0.10400
C 	C 	0.51310 0.40540 0.70183 0.11700
C 	C 	0.42140 0.37880 0.69820 -0.17000
C 	C 	0.36360 0.36900 0.66170 0.12300
C 	C 	0.27870 0.33640 0.65740 -0.11500
C 	C 	0.24930 0.33850 0.61690 -0.04500
C 	C 	0.32410 0.36910 0.59960 0.03100
C 	C 	0.37610 0.35630 0.73580 0.17800
C 	C 	0.27910 0.36840 0.75020 -0.22200
C 	C 	0.24290 0.34600 0.78480 0.11600
C 	C 	0.39570 0.29990 0.78950 0.11600
C 	C 	0.43500 0.32060 0.75560 -0.21600
C 	C 	0.65380 0.34200 0.62640 0.02800
C 	C 	0.70640 0.30670 0.60670 -0.04400
C 	C 	0.69780 0.31230 0.56690 -0.10000
C 	C 	0.62510 0.35400 0.56310 0.10900
C 	C 	0.58290 0.37490 0.52740 -0.15100
C 	C 	0.50770 0.41430 0.52504 0.11800
C 	C 	0.45070 0.43160 0.49122 -0.11000
C 	C 	0.38070 0.46700 0.50370 -0.02800
C 	C 	0.39520 0.47100 0.54517 0.01300
C 	C 	0.62200 0.35310 0.48980 0.13200
C 	C 	0.59300 0.30420 0.47770 -0.17700
C 	C 	0.63870 0.28570 0.44440 0.08300
C 	C 	0.72660 0.35890 0.42920 0.08800
C 	C 	0.68540 0.38050 0.46320 -0.18000
C 	C 	0.66870 0.48980 0.14430 0.03900
C 	C 	0.70250 0.53650 0.15650 -0.04500
C 	C 	0.61430 0.56630 0.15230 -0.11000
C 	C 	0.53360 0.53850 0.13600 0.11400
C 	C 	0.42410 0.55440 0.12600 -0.15900
C 	C 	0.34650 0.52350 0.10914 0.12100
C 	C 	0.23920 0.53850 0.09810 -0.11100
C 	C 	0.18790 0.49800 0.08210 -0.03800
C 	C 	0.26320 0.45970 0.08510 0.01600
C 	C 	0.39980 0.60660 0.13341 0.14900
C 	C 	0.44830 0.64420 0.11150 -0.19300
C 	C 	0.41550 0.69230 0.11720 0.08600
C 	C 	0.29570 0.67030 0.16545 0.10000
C 	C 	0.32000 0.61910 0.16110 -0.19100
C 	C 	0.34160 0.44900 0.18440 0.02900
C 	C 	0.33640 0.44160 0.22680 -0.03800
C 	C 	0.42410 0.41470 0.23800 -0.10400
C 	C 	0.48690 0.40540 0.20183 0.11700
C 	C 	0.57860 0.37880 0.19820 -0.17000
C 	C 	0.63640 0.36900 0.16170 0.12300
C 	C 	0.72130 0.33640 0.15740 -0.11500
C 	C 	0.75070 0.33850 0.11690 -0.04500
C 	C 	0.67590 0.36910 0.09960 0.03100
C 	C 	0.62390 0.35630 0.23580 0.17800
C 	C 	0.72090 0.36840 0.25020 -0.22200
C 	C 	0.75710 0.34600 0.28480 0.11600
C 	C 	0.60430 0.29990 0.28950 0.11600
C 	C 	0.56500 0.32060 0.25560 -0.21600
C 	C 	0.34620 0.34200 0.12640 0.02800
C 	C 	0.29360 0.30670 0.10670 -0.04400
C 	C 	0.30220 0.31230 0.06690 -0.10000
C 	C 	0.37490 0.35400 0.06310 0.10900
C 	C 	0.41710 0.37490 0.02740 -0.15100
C 	C 	0.49230 0.41430 0.02504 0.11800
C 	C 	0.54930 0.43160 0.99122 -0.11000
C 	C 	0.61930 0.46700 0.00370 -0.02900
C 	C 	0.60480 0.47100 0.04517 0.01300
C 	C 	0.37800 0.35310 0.98980 0.13200
C 	C 	0.40700 0.30420 0.97770 -0.17700
C 	C 	0.36130 0.28570 0.94440 0.08300
C 	C 	0.27340 0.35890 0.92920 0.08800
C 	C 	0.31460 0.38050 0.96320 -0.18000
C 	C 	0.83130 0.98980 0.85570 0.03900
C 	C 	0.79750 0.03650 0.84350 -0.04400
C 	C 	0.88570 0.06630 0.84770 -0.11200
C 	C 	0.96640 0.03850 0.86400 0.11600
C 	C 	0.07590 0.05440 0.87400 -0.16200
C 	C 	0.15350 0.02350 0.89086 0.12200
C 	C 	0.26080 0.03850 0.90190 -0.11100
C 	C 	0.31210 0.99800 0.91790 -0.03800
C 	C 	0.23680 0.95970 0.91490 0.01600
C 	C 	0.10020 0.10660 0.86659 0.15100
C 	C 	0.05170 0.14420 0.88850 -0.19700
C 	C 	0.08450 0.19230 0.88280 0.08800
C 	C 	0.20430 0.17030 0.83455 0.10000
C 	C 	0.18000 0.11910 0.83890 -0.19200
C 	C 	0.15840 0.94900 0.81560 0.02900
C 	C 	0.16360 0.94160 0.77320 -0.03900
C 	C 	0.07590 0.91470 0.76200 -0.10200
C 	C 	0.01310 0.90540 0.79817 0.11400
C 	C 	0.92140 0.87880 0.80180 -0.16600
C 	C 	0.86360 0.86900 0.83830 0.12200
C 	C 	0.77870 0.83640 0.84260 -0.11400
C 	C 	0.74930 0.83850 0.88310 -0.04500
C 	C 	0.82410 0.86910 0.90040 0.03100
C 	C 	0.87610 0.85630 0.76420 0.17400
C 	C 	0.77910 0.86840 0.74980 -0.21900
C 	C 	0.74290 0.84600 0.71520 0.11500
C 	C 	0.89570 0.79990 0.71050 0.11300
C 	C 	0.93500 0.82060 0.74440 -0.20900
C 	C 	0.15380 0.84200 0.87360 0.02700
C 	C 	0.20640 0.80670 0.89330 -0.04400
C 	C 	0.19780 0.81230 0.93310 -0.10000
C 	C 	0.12510 0.85400 0.93690 0.10900
C 	C 	0.08290 0.87490 0.97260 -0.15200
C 	C 	0.00770 0.91430 0.97496 0.11700
C 	C 	0.95070 0.93160 0.00878 -0.11100
C 	C 	0.88070 0.96700 0.99630 -0.02700
C 	C 	0.89520 0.97100 0.95483 0.01200
C 	C 	0.12200 0.85310 0.01020 0.13300
C 	C 	0.09300 0.80420 0.02230 -0.17700
C 	C 	0.13870 0.78570 0.05560 0.08300
C 	C 	0.22660 0.85890 0.07080 0.08800
C 	C 	0.18540 0.88050 0.03680 -0.18000
N 	N 	0.06840 0.98913 0.36819 -0.25600
N 	N 	0.86060 0.97398 0.39857 -0.26100
N 	N 	0.83710 0.20495 0.35584 -0.21100
N 	N 	0.92930 0.92770 0.33006 -0.25200
N 	N 	0.10350 0.88805 0.37461 -0.26100
N 	N 	0.20130 0.81220 0.19547 -0.21500
N 	N 	0.89990 0.87178 0.39923 -0.25400
N 	N 	0.02680 0.93881 0.44087 -0.25500
N 	N 	0.79630 0.81240 0.58125 -0.20400
N 	N 	0.43160 0.48913 0.63181 -0.25600
N 	N 	0.63940 0.47398 0.60143 -0.26000
N 	N 	0.66290 0.70495 0.64416 -0.21100
N 	N 	0.57070 0.42770 0.66994 -0.25200
N 	N 	0.39650 0.38805 0.62539 -0.26100
N 	N 	0.29870 0.31220 0.80453 -0.21600
N 	N 	0.60010 0.37178 0.60077 -0.25300
N 	N 	0.47320 0.43881 0.55913 -0.25500
N 	N 	0.70370 0.31240 0.41875 -0.20400
N 	N 	0.56840 0.48913 0.13181 -0.25600
N 	N 	0.36060 0.47398 0.10143 -0.26000
N 	N 	0.33710 0.70495 0.14416 -0.21100
N 	N 	0.42930 0.42770 0.16994 -0.25200
N 	N 	0.60350 0.38805 0.12539 -0.26100
N 	N 	0.70130 0.31220 0.30453 -0.21600
N 	N 	0.39990 0.37178 0.10077 -0.25300
N 	N 	0.52680 0.43881 0.05913 -0.25500
N 	N 	0.29630 0.31240 0.91875 -0.20400
N 	N 	0.93160 0.98913 0.86819 -0.25600
N 	N 	0.13940 0.97398 0.89857 -0.26100
N 	N 	0.16290 0.20495 0.85584 -0.21100
N 	N 	0.07070 0.92770 0.83006 -0.25200
N 	N 	0.89650 0.88805 0.87461 -0.26100
N 	N 	0.79870 0.81220 0.69547 -0.21500
N 	N 	0.10010 0.87178 0.89923 -0.25400
N 	N 	0.97320 0.93881 0.94087 -0.25400
N 	N 	0.20370 0.81240 0.08125 -0.20400
Fe	Fe	0.51802 0.56826 0.88561 1.18600
Fe	Fe	0.98198 0.06826 0.11439 1.18500
Fe	Fe	0.01802 0.06826 0.61439 1.18500
Fe	Fe	0.48198 0.56826 0.38561 1.18600
Ag	Ag	0.73905 0.22073 0.86156 0.52200
Ag	Ag	0.76095 0.72073 0.13844 0.52200
Ag	Ag	0.23905 0.72073 0.63844 0.52200
Ag	Ag	0.26095 0.22073 0.36156 0.52200
H 	H 	0.28610 0.53870 0.85500 0.00600
H 	H 	0.22740 0.45430 0.83420 0.03600
H 	H 	0.39010 0.39970 0.84050 0.06500
H 	H 	0.79100 0.42930 0.89870 0.06400
H 	H 	0.88340 0.50360 0.92870 0.03600
H 	H 	0.75140 0.57320 0.92340 0.01500
H 	H 	0.49620 0.36330 0.90730 0.09500
H 	H 	0.55130 0.28220 0.89810 -0.02400
H 	H 	0.75490 0.32050 0.81440 -0.02300
H 	H 	0.71640 0.40550 0.82360 0.09000
H 	H 	0.71060 0.53330 0.83090 0.01000
H 	H 	0.71910 0.54650 0.75600 0.03600
H 	H 	0.55870 0.59600 0.73570 0.06800
H 	H 	0.24660 0.68350 0.82240 0.06800
H 	H 	0.19010 0.67790 0.89570 0.04000
H 	H 	0.32490 0.62370 0.92820 0.01000
H 	H 	0.23510 0.60790 0.76320 0.10100
H 	H 	0.17390 0.64450 0.70500 -0.03100
H 	H 	0.43840 0.72420 0.69690 -0.03100
H 	H 	0.50350 0.68960 0.75450 0.10000
H 	H 	0.65400 0.65430 0.84540 0.01100
H 	H 	0.74540 0.71940 0.88080 0.04200
H 	H 	0.73130 0.70660 0.95360 0.06300
H 	H 	0.45980 0.57960 0.03550 0.06900
H 	H 	0.33160 0.51450 0.01240 0.04000
H 	H 	0.35570 0.50670 0.93830 0.01300
H 	H 	0.54260 0.71490 0.00720 0.08600
H 	H 	0.62520 0.74810 0.06190 -0.01900
H 	H 	0.77310 0.62210 0.08750 -0.01900
H 	H 	0.70030 0.58560 0.03130 0.08700
H 	H 	0.21390 0.03870 0.14500 0.00600
H 	H 	0.27260 0.95430 0.16580 0.03600
H 	H 	0.10990 0.89970 0.15950 0.06600
H 	H 	0.70900 0.92930 0.10130 0.06400
H 	H 	0.61660 0.00360 0.07130 0.03500
H 	H 	0.74860 0.07320 0.07660 0.01500
H 	H 	0.00380 0.86330 0.09270 0.09800
H 	H 	0.94870 0.78220 0.10190 -0.02500
H 	H 	0.74510 0.82050 0.18560 -0.02300
H 	H 	0.78360 0.90550 0.17640 0.09000
H 	H 	0.78940 0.03330 0.16910 0.01000
H 	H 	0.78090 0.04650 0.24400 0.03600
H 	H 	0.94130 0.09600 0.26430 0.06700
H 	H 	0.25340 0.18350 0.17760 0.06800
H 	H 	0.30990 0.17790 0.10430 0.04100
H 	H 	0.17510 0.12370 0.07180 0.01000
H 	H 	0.26490 0.10790 0.23680 0.10100
H 	H 	0.32610 0.14450 0.29500 -0.03100
H 	H 	0.06160 0.22420 0.30310 -0.02900
H 	H 	0.99650 0.18960 0.24550 0.09600
H 	H 	0.84600 0.15430 0.15460 0.01100
H 	H 	0.75460 0.21940 0.11920 0.04200
H 	H 	0.76870 0.20660 0.04640 0.06300
H 	H 	0.04020 0.07960 0.96450 0.06900
H 	H 	0.16840 0.01450 0.98760 0.03900
H 	H 	0.14430 0.00670 0.06170 0.01300
H 	H 	0.95740 0.21490 0.99280 0.08600
H 	H 	0.87480 0.24810 0.93810 -0.01900
H 	H 	0.72690 0.12210 0.91250 -0.01900
H 	H 	0.79970 0.08560 0.96870 0.08700
H 	H 	0.78610 0.03870 0.64500 0.00600
H 	H 	0.72740 0.95430 0.66580 0.03600
H 	H 	0.89010 0.89970 0.65950 0.06600
H 	H 	0.29100 0.92930 0.60130 0.06400
H 	H 	0.38340 0.00360 0.57130 0.03500
H 	H 	0.25140 0.07320 0.57660 0.01500
H 	H 	0.99620 0.86330 0.59270 0.09700
H 	H 	0.05130 0.78220 0.60190 -0.02500
H 	H 	0.25490 0.82050 0.68560 -0.02300
H 	H 	0.21640 0.90550 0.67640 0.09000
H 	H 	0.21060 0.03330 0.66910 0.01000
H 	H 	0.21910 0.04650 0.74400 0.03600
H 	H 	0.05870 0.09600 0.76430 0.06700
H 	H 	0.74660 0.18350 0.67760 0.06800
H 	H 	0.69010 0.17790 0.60430 0.04100
H 	H 	0.82490 0.12370 0.57180 0.01000
H 	H 	0.73510 0.10790 0.73680 0.10100
H 	H 	0.67390 0.14450 0.79500 -0.03100
H 	H 	0.93840 0.22420 0.80310 -0.02900
H 	H 	0.00350 0.18960 0.74550 0.09600
H 	H 	0.15400 0.15430 0.65460 0.01100
H 	H 	0.24540 0.21940 0.61920 0.04200
H 	H 	0.23130 0.20660 0.54640 0.06300
H 	H 	0.95980 0.07960 0.46450 0.06800
H 	H 	0.83160 0.01450 0.48760 0.04000
H 	H 	0.85570 0.00670 0.56170 0.01300
H 	H 	0.04260 0.21490 0.49280 0.08600
H 	H 	0.12520 0.24810 0.43810 -0.01900
H 	H 	0.27310 0.12210 0.41250 -0.01900
H 	H 	0.20030 0.08560 0.46870 0.08700
H 	H 	0.71390 0.53870 0.35500 0.00600
H 	H 	0.77260 0.45430 0.33420 0.03600
H 	H 	0.60990 0.39970 0.34050 0.06500
H 	H 	0.20900 0.42930 0.39870 0.06400
H 	H 	0.11660 0.50360 0.42870 0.03600
H 	H 	0.24860 0.57320 0.42340 0.01500
H 	H 	0.50380 0.36330 0.40730 0.09500
H 	H 	0.44870 0.28220 0.39810 -0.02400
H 	H 	0.24510 0.32050 0.31440 -0.02300
H 	H 	0.28360 0.40550 0.32360 0.09000
H 	H 	0.28940 0.53330 0.33090 0.01000
H 	H 	0.28090 0.54650 0.25600 0.03600
H 	H 	0.44130 0.59600 0.23570 0.06800
H 	H 	0.75340 0.68350 0.32240 0.06800
H 	H 	0.80990 0.67790 0.39570 0.04000
H 	H 	0.67510 0.62370 0.42820 0.01000
H 	H 	0.76490 0.60790 0.26320 0.10100
H 	H 	0.82610 0.64450 0.20500 -0.03100
H 	H 	0.56160 0.72420 0.19690 -0.03100
H 	H 	0.49650 0.68960 0.25450 0.10000
H 	H 	0.34600 0.65430 0.34540 0.01100
H 	H 	0.25460 0.71940 0.38080 0.04200
H 	H 	0.26870 0.70660 0.45360 0.06300
H 	H 	0.54020 0.57960 0.53550 0.06900
H 	H 	0.66840 0.51450 0.51240 0.03900
H 	H 	0.64430 0.50670 0.43830 0.01300
H 	H 	0.45740 0.71490 0.50720 0.08600
H 	H 	0.37480 0.74810 0.56190 -0.01900
H 	H 	0.22690 0.62210 0.58750 -0.01900
H 	H 	0.29970 0.58560 0.53130 0.08700
C 	C 	0.33130 0.51020 0.85570 0.03900
C 	C 	0.29750 0.46350 0.84350 -0.04500
C 	C 	0.38570 0.43370 0.84770 -0.11000
C 	C 	0.46640 0.46150 0.86400 0.11400
C 	C 	0.57590 0.44560 0.87400 -0.15900
C 	C 	0.65350 0.47650 0.89086 0.12100
C 	C 	0.76080 0.46150 0.90190 -0.11100
C 	C 	0.81210 0.50200 0.91790 -0.03800
C 	C 	0.73680 0.54030 0.91490 0.01600
C 	C 	0.60020 0.39340 0.86659 0.14900
C 	C 	0.55170 0.35580 0.88850 -0.19300
C 	C 	0.58450 0.30770 0.88280 0.08600
C 	C 	0.70430 0.32970 0.83455 0.10000
C 	C 	0.68000 0.38090 0.83890 -0.19100
C 	C 	0.65840 0.55100 0.81560 0.02900
C 	C 	0.66360 0.55840 0.77320 -0.03800
C 	C 	0.57590 0.58530 0.76200 -0.10400
C 	C 	0.51310 0.59460 0.79817 0.11700
C 	C 	0.42140 0.62120 0.80180 -0.17000
C 	C 	0.36360 0.63100 0.83830 0.12300
C 	C 	0.27870 0.66360 0.84260 -0.11500
C 	C 	0.24930 0.66150 0.88310 -0.04500
C 	C 	0.32410 0.63090 0.90040 0.03100
C 	C 	0.37610 0.64370 0.76420 0.17800
C 	C 	0.27910 0.63160 0.74980 -0.22200
C 	C 	0.24290 0.65400 0.71520 0.11600
C 	C 	0.39570 0.70010 0.71050 0.11600
C 	C 	0.43500 0.67940 0.74440 -0.21600
C 	C 	0.65380 0.65800 0.87360 0.02800
C 	C 	0.70640 0.69330 0.89330 -0.04400
C 	C 	0.69780 0.68770 0.93310 -0.10000
C 	C 	0.62510 0.64600 0.93690 0.10900
C 	C 	0.58290 0.62510 0.97260 -0.15100
C 	C 	0.50770 0.58570 0.97496 0.11800
C 	C 	0.45070 0.56840 0.00878 -0.11000
C 	C 	0.38070 0.53300 0.99630 -0.02900
C 	C 	0.39520 0.52900 0.95483 0.01300
C 	C 	0.62200 0.64690 0.01020 0.13200
C 	C 	0.59300 0.69580 0.02230 -0.17700
C 	C 	0.63870 0.71430 0.05560 0.08300
C 	C 	0.72660 0.64110 0.07080 0.08800
C 	C 	0.68540 0.61950 0.03680 -0.18000
C 	C 	0.16870 0.01020 0.14430 0.03900
C 	C 	0.20250 0.96350 0.15650 -0.04400
C 	C 	0.11430 0.93370 0.15230 -0.11200
C 	C 	0.03360 0.96150 0.13600 0.11600
C 	C 	0.92410 0.94560 0.12600 -0.16200
C 	C 	0.84650 0.97650 0.10914 0.12200
C 	C 	0.73920 0.96150 0.09810 -0.11100
C 	C 	0.68790 0.00200 0.08210 -0.03800
C 	C 	0.76320 0.04030 0.08510 0.01600
C 	C 	0.89980 0.89340 0.13341 0.15100
C 	C 	0.94830 0.85580 0.11150 -0.19700
C 	C 	0.91550 0.80770 0.11720 0.08800
C 	C 	0.79570 0.82970 0.16545 0.10000
C 	C 	0.82000 0.88090 0.16110 -0.19200
C 	C 	0.84160 0.05100 0.18440 0.02900
C 	C 	0.83640 0.05840 0.22680 -0.03900
C 	C 	0.92410 0.08530 0.23800 -0.10200
C 	C 	0.98690 0.09460 0.20183 0.11400
C 	C 	0.07860 0.12120 0.19820 -0.16600
C 	C 	0.13640 0.13100 0.16170 0.12200
C 	C 	0.22130 0.16360 0.15740 -0.11400
C 	C 	0.25070 0.16150 0.11690 -0.04500
C 	C 	0.17590 0.13090 0.09960 0.03100
C 	C 	0.12390 0.14370 0.23580 0.17400
C 	C 	0.22090 0.13160 0.25020 -0.21900
C 	C 	0.25710 0.15400 0.28480 0.11500
C 	C 	0.10430 0.20010 0.28950 0.11300
C 	C 	0.06500 0.17940 0.25560 -0.20900
C 	C 	0.84620 0.15800 0.12640 0.02700
C 	C 	0.79360 0.19330 0.10670 -0.04400
C 	C 	0.80220 0.18770 0.06690 -0.10000
C 	C 	0.87490 0.14600 0.06310 0.10900
C 	C 	0.91710 0.12510 0.02740 -0.15200
C 	C 	0.99230 0.08570 0.02504 0.11700
C 	C 	0.04930 0.06840 0.99122 -0.11100
C 	C 	0.11930 0.03300 0.00370 -0.02700
C 	C 	0.10480 0.02900 0.04517 0.01200
C 	C 	0.87800 0.14690 0.98980 0.13300
C 	C 	0.90700 0.19580 0.97770 -0.17700
C 	C 	0.86130 0.21430 0.94440 0.08300
C 	C 	0.77340 0.14110 0.92920 0.08800
C 	C 	0.81460 0.11950 0.96320 -0.18000
C 	C 	0.83130 0.01020 0.64430 0.03900
C 	C 	0.79750 0.96350 0.65650 -0.04400
C 	C 	0.88570 0.93370 0.65230 -0.11200
C 	C 	0.96640 0.96150 0.63600 0.11600
C 	C 	0.07590 0.94560 0.62600 -0.16200
C 	C 	0.15350 0.97650 0.60914 0.12200
C 	C 	0.26080 0.96150 0.59810 -0.11100
C 	C 	0.31210 0.00200 0.58210 -0.03800
C 	C 	0.23680 0.04030 0.58510 0.01600
C 	C 	0.10020 0.89340 0.63341 0.15100
C 	C 	0.05170 0.85580 0.61150 -0.19600
C 	C 	0.08450 0.80770 0.61720 0.08800
C 	C 	0.20430 0.82970 0.66545 0.10000
C 	C 	0.18000 0.88090 0.66110 -0.19200
C 	C 	0.15840 0.05100 0.68440 0.02900
C 	C 	0.16360 0.05840 0.72680 -0.03900
C 	C 	0.07590 0.08530 0.73800 -0.10200
C 	C 	0.01310 0.09460 0.70183 0.11400
C 	C 	0.92140 0.12120 0.69820 -0.16600
C 	C 	0.86360 0.13100 0.66170 0.12200
C 	C 	0.77870 0.16360 0.65740 -0.11400
C 	C 	0.74930 0.16150 0.61690 -0.04500
C 	C 	0.82410 0.13090 0.59960 0.03100
C 	C 	0.87610 0.14370 0.73580 0.17400
C 	C 	0.77910 0.13160 0.75020 -0.21900
C 	C 	0.74290 0.15400 0.78480 0.11500
C 	C 	0.89570 0.20010 0.78950 0.11300
C 	C 	0.93500 0.17940 0.75560 -0.20900
C 	C 	0.15380 0.15800 0.62640 0.02700
C 	C 	0.20640 0.19330 0.60670 -0.04400
C 	C 	0.19780 0.18770 0.56690 -0.10000
C 	C 	0.12510 0.14600 0.56310 0.10900
C 	C 	0.08290 0.12510 0.52740 -0.15100
C 	C 	0.00770 0.08570 0.52504 0.11700
C 	C 	0.95070 0.06840 0.49122 -0.11000
C 	C 	0.88070 0.03300 0.50370 -0.02900
C 	C 	0.89520 0.02900 0.54517 0.01300
C 	C 	0.12200 0.14690 0.48980 0.13200
C 	C 	0.09300 0.19580 0.47770 -0.17700
C 	C 	0.13870 0.21430 0.44440 0.08300
C 	C 	0.22660 0.14110 0.42920 0.08800
C 	C 	0.18540 0.11950 0.46320 -0.18000
C 	C 	0.66870 0.51020 0.35570 0.03900
C 	C 	0.70250 0.46350 0.34350 -0.04500
C 	C 	0.61430 0.43370 0.34770 -0.11000
C 	C 	0.53360 0.46150 0.36400 0.11400
C 	C 	0.42410 0.44560 0.37400 -0.15900
C 	C 	0.34650 0.47650 0.39086 0.12100
C 	C 	0.23920 0.46150 0.40190 -0.11100
C 	C 	0.18790 0.50200 0.41790 -0.03800
C 	C 	0.26320 0.54030 0.41490 0.01600
C 	C 	0.39980 0.39340 0.36659 0.14900
C 	C 	0.44830 0.35580 0.38850 -0.19300
C 	C 	0.41550 0.30770 0.38280 0.08600
C 	C 	0.29570 0.32970 0.33455 0.10000
C 	C 	0.32000 0.38090 0.33890 -0.19100
C 	C 	0.34160 0.55100 0.31560 0.02900
C 	C 	0.33640 0.55840 0.27320 -0.03800
C 	C 	0.42410 0.58530 0.26200 -0.10400
C 	C 	0.48690 0.59460 0.29817 0.11700
C 	C 	0.57860 0.62120 0.30180 -0.17000
C 	C 	0.63640 0.63100 0.33830 0.12300
C 	C 	0.72130 0.66360 0.34260 -0.11500
C 	C 	0.75070 0.66150 0.38310 -0.04500
C 	C 	0.67590 0.63090 0.40040 0.03100
C 	C 	0.62390 0.64370 0.26420 0.17800
C 	C 	0.72090 0.63160 0.24980 -0.22200
C 	C 	0.75710 0.65400 0.21520 0.11600
C 	C 	0.60430 0.70010 0.21050 0.11600
C 	C 	0.56500 0.67940 0.24440 -0.21600
C 	C 	0.34620 0.65800 0.37360 0.02800
C 	C 	0.29360 0.69330 0.39330 -0.04400
C 	C 	0.30220 0.68770 0.43310 -0.10000
C 	C 	0.37490 0.64600 0.43690 0.10900
C 	C 	0.41710 0.62510 0.47260 -0.15100
C 	C 	0.49230 0.58570 0.47496 0.11800
C 	C 	0.54930 0.56840 0.50878 -0.11000
C 	C 	0.61930 0.53300 0.49630 -0.02800
C 	C 	0.60480 0.52900 0.45483 0.01300
C 	C 	0.37800 0.64690 0.51020 0.13200
C 	C 	0.40700 0.69580 0.52230 -0.17700
C 	C 	0.36130 0.71430 0.55560 0.08300
C 	C 	0.27340 0.64110 0.57080 0.08800
C 	C 	0.31460 0.61950 0.53680 -0.18000
N 	N 	0.43160 0.51087 0.86819 -0.25600
N 	N 	0.63940 0.52602 0.89857 -0.26000
N 	N 	0.66290 0.29505 0.85584 -0.21100
N 	N 	0.57070 0.57230 0.83006 -0.25200
N 	N 	0.39650 0.61195 0.87461 -0.26100
N 	N 	0.29870 0.68780 0.69547 -0.21600
N 	N 	0.60010 0.62822 0.89923 -0.25300
N 	N 	0.47320 0.56119 0.94087 -0.25500
N 	N 	0.70370 0.68760 0.08125 -0.20400
N 	N 	0.06840 0.01087 0.13181 -0.25600
N 	N 	0.86060 0.02602 0.10143 -0.26100
N 	N 	0.83710 0.79505 0.14416 -0.21100
N 	N 	0.92930 0.07230 0.16994 -0.25200
N 	N 	0.10350 0.11195 0.12539 -0.26100
N 	N 	0.20130 0.18780 0.30453 -0.21500
N 	N 	0.89990 0.12822 0.10077 -0.25400
N 	N 	0.02680 0.06119 0.05913 -0.25400
N 	N 	0.79630 0.18760 0.91875 -0.20400
N 	N 	0.93160 0.01087 0.63181 -0.25600
N 	N 	0.13940 0.02602 0.60143 -0.26100
N 	N 	0.16290 0.79505 0.64416 -0.21100
N 	N 	0.07070 0.07230 0.66994 -0.25200
N 	N 	0.89650 0.11195 0.62539 -0.26100
N 	N 	0.79870 0.18780 0.80453 -0.21500
N 	N 	0.10010 0.12822 0.60077 -0.25400
N 	N 	0.97320 0.06119 0.55913 -0.25500
N 	N 	0.20370 0.18760 0.41875 -0.20400
N 	N 	0.56840 0.51087 0.36819 -0.25600
N 	N 	0.36060 0.52602 0.39857 -0.26000
N 	N 	0.33710 0.29505 0.35584 -0.21100
N 	N 	0.42930 0.57230 0.33006 -0.25200
N 	N 	0.60350 0.61195 0.37461 -0.26100
N 	N 	0.70130 0.68780 0.19547 -0.21600
N 	N 	0.39990 0.62822 0.39923 -0.25300
N 	N 	0.52680 0.56119 0.44087 -0.25500
N 	N 	0.29630 0.68760 0.58125 -0.20400
