data_crystal

_cell_length_a 4.81050
_cell_length_b 7.67620
_cell_length_c 17.84480
_cell_angle_alpha 90.00000
_cell_angle_beta  90.00000
_cell_angle_gamma 90.00000

_symmetry_space_group_name_	'P 1'
_symmetry_space_group_name_H-M	'P 1'

loop_
_symmetry_equiv_pos_as_xyz
  x,y,z

loop_
_atom_site_label
_atom_site_type_symbol
_atom_site_fract_x
_atom_site_fract_y
_atom_site_fract_z
_atom_site_charge
Eu	Eu	0.97021 0.95735 0.28904 0.96700
Eu	Eu	0.97021 0.04265 0.71096 0.96700
Eu	Eu	0.97021 0.45735 0.21096 0.96500
Eu	Eu	0.97021 0.54265 0.78904 0.96500
C 	C 	0.47800 0.15950 0.27720 0.48300
C 	C 	0.09690 0.53350 0.46920 -0.01200
C 	C 	0.09330 0.59560 0.39310 0.35900
C 	C 	0.47800 0.84050 0.72280 0.48300
C 	C 	0.09690 0.46650 0.53080 -0.01200
C 	C 	0.09330 0.40440 0.60690 0.35900
C 	C 	0.47800 0.65950 0.22280 0.48300
C 	C 	0.09690 0.03350 0.03080 -0.01400
C 	C 	0.09330 0.09560 0.10690 0.36000
C 	C 	0.47800 0.34050 0.77720 0.48300
C 	C 	0.09690 0.96650 0.96920 -0.01400
C 	C 	0.09330 0.90440 0.89310 0.36000
O 	O 	0.23300 0.19820 0.23930 -0.29700
O 	O 	0.46330 0.01730 0.31148 -0.45400
O 	O 	0.07010 0.75520 0.38545 -0.24200
O 	O 	0.09490 0.47950 0.34446 -0.21600
O 	O 	0.70400 0.24570 0.27748 -0.58600
O 	O 	0.23300 0.80180 0.76070 -0.29700
O 	O 	0.46330 0.98270 0.68852 -0.45400
O 	O 	0.07010 0.24480 0.61455 -0.24200
O 	O 	0.09490 0.52050 0.65554 -0.21600
O 	O 	0.70400 0.75430 0.72252 -0.58600
O 	O 	0.23300 0.69820 0.26070 -0.29700
O 	O 	0.46330 0.51730 0.18852 -0.45300
O 	O 	0.07010 0.25520 0.11455 -0.24000
O 	O 	0.09490 0.97950 0.15554 -0.22000
O 	O 	0.70400 0.74570 0.22252 -0.58600
O 	O 	0.23300 0.30180 0.73930 -0.29700
O 	O 	0.46330 0.48270 0.81148 -0.45300
O 	O 	0.07010 0.74480 0.88545 -0.24000
O 	O 	0.09490 0.02050 0.84446 -0.22000
O 	O 	0.70400 0.25430 0.77748 -0.58600
