data_crystal

_cell_length_a 53.96500
_cell_length_b 12.99680
_cell_length_c 21.60700
_cell_angle_alpha 90.00000
_cell_angle_beta  107.36600
_cell_angle_gamma 90.00000

_symmetry_space_group_name_	'P 1'
_symmetry_space_group_name_H-M	'P 1'

loop_
_symmetry_equiv_pos_as_xyz
  x,y,z

loop_
_atom_site_label
_atom_site_type_symbol
_atom_site_fract_x
_atom_site_fract_y
_atom_site_fract_z
_atom_site_charge
Cd	Cd	0.12505 0.46517 0.30894 1.23800
Cd	Cd	0.17366 0.29698 0.45032 1.22500
Cd	Cd	0.07503 0.60420 0.15635 1.22700
O 	O 	0.15534 0.45200 0.41430 -0.53900
O 	O 	0.19095 0.48250 0.49200 -0.37400
O 	O 	0.12171 0.61100 0.40520 -0.38200
O 	O 	0.09986 0.61830 0.27780 -0.48400
O 	O 	0.05947 0.66730 0.23930 -0.43000
O 	O 	0.14115 0.29470 0.31200 -0.45700
O 	O 	0.14326 0.19140 0.39500 -0.44700
O 	O 	0.10606 0.24770 0.19660 -0.31900
O 	O 	0.10024 0.45610 0.19580 -0.49100
O 	O 	0.09964 0.50620 0.09780 -0.39700
O 	O 	0.17166 0.26530 0.54870 -0.43500
O 	O 	0.18728 0.12140 0.52420 -0.37400
O 	O 	0.13029 0.16170 0.58550 -0.32100
O 	O 	0.09585 0.24680 0.64670 -0.41700
O 	O 	0.05926 0.26470 0.56980 -0.38600
N 	N 	0.09083 0.39300 0.33100 -0.27300
N 	N 	0.06707 0.28690 0.36900 -0.15100
N 	N 	0.99506 0.40780 0.42340 -0.15400
N 	N 	0.96055 0.50820 0.39260 -0.27300
N 	N 	0.25582 0.71260 0.09690 -0.16300
N 	N 	0.28904 0.77820 0.07150 -0.28900
C 	C 	0.08830 0.35040 0.38490 0.33300
C 	C 	0.05621 0.29200 0.30250 -0.01200
H 	H 	0.04150 0.25720 0.27800 0.03600
C 	C 	0.07084 0.35650 0.28020 -0.00400
H 	H 	0.06790 0.37400 0.23680 0.02200
C 	C 	0.10463 0.36590 0.45250 -0.93800
H 	H 	0.11070 0.30040 0.47180 0.31400
H 	H 	0.09460 0.39880 0.47680 0.32100
H 	H 	0.11920 0.40840 0.45300 0.30300
C 	C 	0.05975 0.21650 0.41280 -0.11100
H 	H 	0.06240 0.25020 0.45430 0.07300
H 	H 	0.07100 0.15680 0.41980 0.07200
C 	C 	0.03246 0.18230 0.38800 0.04200
C 	C 	0.02649 0.08600 0.35870 -0.09400
H 	H 	0.03990 0.04260 0.35680 0.06400
C 	C 	0.00162 0.05400 0.33300 -0.00800
H 	H 	0.99830 0.98960 0.31360 0.03000
C 	C 	0.98176 0.11420 0.33520 -0.04800
H 	H 	0.96480 0.09160 0.31710 0.04900
C 	C 	0.98645 0.21090 0.36460 -0.06400
H 	H 	0.97260 0.25180 0.36710 0.05900
C 	C 	0.01193 0.24610 0.39020 0.01600
C 	C 	0.01786 0.34980 0.42210 -0.08900
H 	H 	0.02890 0.34030 0.46620 0.07100
H 	H 	0.02750 0.38990 0.39920 0.05500
C 	C 	0.98121 0.47440 0.37790 0.31600
C 	C 	0.96091 0.45930 0.44900 -0.00200
H 	H 	0.94840 0.46760 0.47040 0.02200
C 	C 	0.98189 0.39740 0.46920 -0.00300
H 	H 	0.98650 0.35640 0.50610 0.03100
C 	C 	0.98869 0.50510 0.31950 -0.86900
H 	H 	0.97720 0.55820 0.29660 0.28000
H 	H 	0.98740 0.44650 0.29160 0.27500
H 	H 	0.00620 0.53010 0.33260 0.28200
N 	N 	0.15248 0.55200 0.26890 -0.17400
C 	C 	0.17424 0.50460 0.25620 0.09100
N 	N 	0.18125 0.56540 0.20940 -0.18100
C 	C 	0.16381 0.65030 0.19320 -0.29000
H 	H 	0.16410 0.70070 0.16220 0.13700
C 	C 	0.14670 0.64080 0.23510 -0.01600
H 	H 	0.13290 0.68770 0.23390 0.16200
C 	C 	0.18840 0.40840 0.27860 -0.06100
H 	H 	0.20250 0.39470 0.26110 0.18600
H 	H 	0.19510 0.41570 0.32480 0.08000
H 	H 	0.17630 0.35240 0.26830 0.08200
C 	C 	0.20062 0.57280 0.18200 -0.05700
H 	H 	0.19400 0.60540 0.14050 0.06800
H 	H 	0.20600 0.50470 0.17480 0.05900
C 	C 	0.22404 0.63190 0.22140 0.02400
C 	C 	0.22653 0.65780 0.28580 -0.07400
H 	H 	0.21380 0.63780 0.30450 0.06500
C 	C 	0.24687 0.71050 0.32010 -0.01800
H 	H 	0.24790 0.72870 0.36240 0.03200
C 	C 	0.26675 0.73990 0.29560 -0.04500
H 	H 	0.28160 0.77230 0.32160 0.04100
C 	C 	0.26379 0.71970 0.23220 -0.05800
H 	H 	0.27650 0.74140 0.21400 0.04600
C 	C 	0.24253 0.66810 0.19430 0.01200
C 	C 	0.23942 0.64810 0.12300 -0.07600
H 	H 	0.24340 0.57660 0.11760 0.04600
H 	H 	0.22140 0.65960 0.09820 0.05500
C 	C 	0.27961 0.69730 0.09380 0.32900
C 	C 	0.26934 0.85220 0.06000 -0.00500
H 	H 	0.27010 0.91800 0.04380 0.02900
C 	C 	0.24951 0.81360 0.07590 -0.01500
H 	H 	0.23410 0.84750 0.07360 0.04600
C 	C 	0.29423 0.59930 0.11050 -0.89600
H 	H 	0.30040 0.57840 0.07510 0.29500
H 	H 	0.28300 0.54710 0.11880 0.29200
H 	H 	0.30880 0.60910 0.14860 0.28300
C 	C 	0.17170 0.51530 0.45010 0.41000
C 	C 	0.16756 0.62730 0.44180 -0.26800
C 	C 	0.18966 0.69150 0.46120 0.14100
H 	H 	0.20610 0.66220 0.47550 -0.01300
C 	C 	0.18700 0.80280 0.45930 -0.23900
H 	H 	0.20130 0.84610 0.47410 0.10900
C 	C 	0.16257 0.84020 0.43480 0.19400
H 	H 	0.16050 0.91120 0.43110 -0.03700
C 	C 	0.14074 0.78110 0.41530 -0.32000
H 	H 	0.12450 0.81130 0.39850 0.14700
C 	C 	0.14324 0.67500 0.42090 0.31000
C 	C 	0.09830 0.64910 0.40860 0.36800
C 	C 	0.09541 0.66250 0.46870 -0.39700
H 	H 	0.10940 0.64990 0.50530 0.18500
C 	C 	0.07243 0.69400 0.47590 0.27800
H 	H 	0.07090 0.70360 0.51730 -0.06500
C 	C 	0.05162 0.71140 0.42290 -0.33400
H 	H 	0.03590 0.73390 0.42750 0.13800
C 	C 	0.05439 0.69480 0.36210 0.22600
H 	H 	0.04010 0.70440 0.32570 -0.04700
C 	C 	0.07782 0.66420 0.35340 -0.32700
C 	C 	0.07946 0.64870 0.28680 0.42800
C 	C 	0.13504 0.21640 0.33540 0.40900
C 	C 	0.11652 0.13990 0.29250 -0.26300
C 	C 	0.11068 0.04830 0.31920 0.17000
H 	H 	0.11800 0.03630 0.36340 -0.01500
C 	C 	0.09434 0.97490 0.28160 -0.26800
H 	H 	0.09070 0.91470 0.30060 0.12400
C 	C 	0.08386 0.99070 0.21830 0.20100
H 	H 	0.07310 0.94080 0.19310 -0.03600
C 	C 	0.08873 0.08090 0.18900 -0.31000
H 	H 	0.08130 0.09170 0.14470 0.15000
C 	C 	0.10496 0.15470 0.22750 0.30700
C 	C 	0.12547 0.26580 0.16970 0.32900
C 	C 	0.14293 0.19090 0.16460 -0.34400
H 	H 	0.14240 0.12610 0.18240 0.15600
C 	C 	0.16104 0.21190 0.13330 0.22900
H 	H 	0.17240 0.16040 0.12940 -0.04900
C 	C 	0.16266 0.30570 0.10820 -0.28800
H 	H 	0.17560 0.32020 0.08910 0.13500
C 	C 	0.14452 0.38090 0.11140 0.19200
H 	H 	0.14490 0.44430 0.09180 -0.02700
C 	C 	0.12634 0.36390 0.14240 -0.27700
C 	C 	0.10751 0.44620 0.14540 0.40000
C 	C 	0.17835 0.17250 0.55940 0.41400
C 	C 	0.17566 0.12820 0.62140 -0.27100
C 	C 	0.19694 0.09280 0.66850 0.19300
H 	H 	0.21320 0.09340 0.66170 -0.02900
C 	C 	0.19435 0.05620 0.72620 -0.27300
H 	H 	0.20890 0.03150 0.75790 0.11700
C 	C 	0.17071 0.05560 0.73740 0.20500
H 	H 	0.16940 0.03330 0.77720 -0.05600
C 	C 	0.14876 0.08810 0.68990 -0.33800
H 	H 	0.13250 0.08610 0.69660 0.16200
C 	C 	0.15167 0.12350 0.63240 0.31800
C 	C 	0.10987 0.09470 0.56080 0.32200
C 	C 	0.11417 0.00620 0.53130 -0.34200
H 	H 	0.13080 0.98950 0.53050 0.16100
C 	C 	0.09362 0.94220 0.50290 0.22300
H 	H 	0.09630 0.88260 0.48200 -0.04700
C 	C 	0.06932 0.96600 0.50530 -0.28700
H 	H 	0.05550 0.92190 0.48690 0.12800
C 	C 	0.06525 0.05450 0.53470 0.18700
H 	H 	0.04850 0.07040 0.53550 -0.02500
C 	C 	0.08537 0.12110 0.56320 -0.26500
C 	C 	0.08025 0.21790 0.59630 0.39200
N 	N 	0.15990 0.49750 0.27490 -0.18300
C 	C 	0.16680 0.55160 0.24070 0.22300
C 	C 	0.19710 0.44450 0.25540 -0.19000
H 	H 	0.21210 0.40720 0.25320 -0.03800
N 	N 	0.18450 0.54000 0.21860 0.05900
C 	C 	0.18180 0.41490 0.28820 -0.11400
H 	H 	0.18370 0.35780 0.31740 -0.00200
C 	C 	0.15010 0.64490 0.21190 0.05400
H 	H 	0.13600 0.65700 0.22970 -0.15400
H 	H 	0.16190 0.70200 0.22190 0.10400
H 	H 	0.14330 0.63730 0.16570 0.08000
Cd	Cd	0.62505 0.96517 0.30894 1.23900
Cd	Cd	0.67366 0.79698 0.45032 1.22600
Cd	Cd	0.57503 0.10420 0.15635 1.22800
O 	O 	0.65534 0.95200 0.41430 -0.53800
O 	O 	0.69095 0.98250 0.49200 -0.37400
O 	O 	0.62171 0.11100 0.40520 -0.38200
O 	O 	0.59986 0.11830 0.27780 -0.48300
O 	O 	0.55947 0.16730 0.23930 -0.43000
O 	O 	0.64115 0.79470 0.31200 -0.45700
O 	O 	0.64326 0.69140 0.39500 -0.44700
O 	O 	0.60606 0.74770 0.19660 -0.31900
O 	O 	0.60024 0.95610 0.19580 -0.49100
O 	O 	0.59964 0.00620 0.09780 -0.39700
O 	O 	0.67166 0.76530 0.54870 -0.43500
O 	O 	0.68728 0.62140 0.52420 -0.37400
O 	O 	0.63029 0.66170 0.58550 -0.32100
O 	O 	0.59585 0.74680 0.64670 -0.41700
O 	O 	0.55926 0.76470 0.56980 -0.38600
N 	N 	0.59083 0.89300 0.33100 -0.27400
N 	N 	0.56707 0.78690 0.36900 -0.15100
N 	N 	0.49506 0.90780 0.42340 -0.15400
N 	N 	0.46055 0.00820 0.39260 -0.27300
N 	N 	0.75582 0.21260 0.09690 -0.16300
N 	N 	0.78904 0.27820 0.07150 -0.28900
C 	C 	0.58830 0.85040 0.38490 0.33300
C 	C 	0.55621 0.79200 0.30250 -0.01200
H 	H 	0.54150 0.75720 0.27800 0.03600
C 	C 	0.57084 0.85650 0.28020 -0.00400
H 	H 	0.56790 0.87400 0.23680 0.02200
C 	C 	0.60463 0.86590 0.45250 -0.93800
H 	H 	0.61070 0.80040 0.47180 0.31400
H 	H 	0.59460 0.89880 0.47680 0.32100
H 	H 	0.61920 0.90840 0.45300 0.30300
C 	C 	0.55975 0.71650 0.41280 -0.11000
H 	H 	0.56240 0.75020 0.45430 0.07300
H 	H 	0.57100 0.65680 0.41980 0.07200
C 	C 	0.53246 0.68230 0.38800 0.04100
C 	C 	0.52649 0.58600 0.35870 -0.09300
H 	H 	0.53990 0.54260 0.35680 0.06400
C 	C 	0.50162 0.55400 0.33300 -0.00900
H 	H 	0.49830 0.48960 0.31360 0.03100
C 	C 	0.48176 0.61420 0.33520 -0.04700
H 	H 	0.46480 0.59160 0.31710 0.04900
C 	C 	0.48645 0.71090 0.36460 -0.06400
H 	H 	0.47260 0.75180 0.36710 0.05900
C 	C 	0.51193 0.74610 0.39020 0.01700
C 	C 	0.51786 0.84980 0.42210 -0.09000
H 	H 	0.52890 0.84030 0.46620 0.07200
H 	H 	0.52750 0.88990 0.39920 0.05500
C 	C 	0.48121 0.97440 0.37790 0.31500
C 	C 	0.46091 0.95930 0.44900 -0.00200
H 	H 	0.44840 0.96760 0.47040 0.02200
C 	C 	0.48189 0.89740 0.46920 -0.00300
H 	H 	0.48650 0.85640 0.50610 0.03100
C 	C 	0.48869 0.00510 0.31950 -0.86600
H 	H 	0.47720 0.05820 0.29660 0.28000
H 	H 	0.48740 0.94650 0.29160 0.27400
H 	H 	0.50620 0.03010 0.33260 0.28100
N 	N 	0.65248 0.05200 0.26890 -0.17500
C 	C 	0.67424 0.00460 0.25620 0.09000
N 	N 	0.68125 0.06540 0.20940 -0.18100
C 	C 	0.66381 0.15030 0.19320 -0.29100
H 	H 	0.66410 0.20070 0.16220 0.13800
C 	C 	0.64670 0.14080 0.23510 -0.01600
H 	H 	0.63290 0.18770 0.23390 0.16200
C 	C 	0.68840 0.90840 0.27860 -0.06100
H 	H 	0.70250 0.89470 0.26110 0.18600
H 	H 	0.69510 0.91570 0.32480 0.07900
H 	H 	0.67630 0.85240 0.26830 0.08200
C 	C 	0.70062 0.07280 0.18200 -0.05800
H 	H 	0.69400 0.10540 0.14050 0.06800
H 	H 	0.70600 0.00470 0.17480 0.05900
C 	C 	0.72404 0.13190 0.22140 0.02400
C 	C 	0.72653 0.15780 0.28580 -0.07400
H 	H 	0.71380 0.13780 0.30450 0.06500
C 	C 	0.74687 0.21050 0.32010 -0.01800
H 	H 	0.74790 0.22870 0.36240 0.03200
C 	C 	0.76675 0.23990 0.29560 -0.04500
H 	H 	0.78160 0.27230 0.32160 0.04100
C 	C 	0.76379 0.21970 0.23220 -0.05800
H 	H 	0.77650 0.24140 0.21400 0.04600
C 	C 	0.74253 0.16810 0.19430 0.01200
C 	C 	0.73942 0.14810 0.12300 -0.07600
H 	H 	0.74340 0.07660 0.11760 0.04600
H 	H 	0.72140 0.15960 0.09820 0.05500
C 	C 	0.77961 0.19730 0.09380 0.33000
C 	C 	0.76934 0.35220 0.06000 -0.00500
H 	H 	0.77010 0.41800 0.04380 0.02900
C 	C 	0.74951 0.31360 0.07590 -0.01500
H 	H 	0.73410 0.34750 0.07360 0.04600
C 	C 	0.79423 0.09930 0.11050 -0.89600
H 	H 	0.80040 0.07840 0.07510 0.29500
H 	H 	0.78300 0.04710 0.11880 0.29300
H 	H 	0.80880 0.10910 0.14860 0.28400
C 	C 	0.67170 0.01530 0.45010 0.41000
C 	C 	0.66756 0.12730 0.44180 -0.26800
C 	C 	0.68966 0.19150 0.46120 0.14100
H 	H 	0.70610 0.16220 0.47550 -0.01300
C 	C 	0.68700 0.30280 0.45930 -0.23900
H 	H 	0.70130 0.34610 0.47410 0.10900
C 	C 	0.66257 0.34020 0.43480 0.19400
H 	H 	0.66050 0.41120 0.43110 -0.03700
C 	C 	0.64074 0.28110 0.41530 -0.32000
H 	H 	0.62450 0.31130 0.39850 0.14700
C 	C 	0.64324 0.17500 0.42090 0.31000
C 	C 	0.59830 0.14910 0.40860 0.36800
C 	C 	0.59541 0.16250 0.46870 -0.39700
H 	H 	0.60940 0.14990 0.50530 0.18500
C 	C 	0.57243 0.19400 0.47590 0.27700
H 	H 	0.57090 0.20360 0.51730 -0.06500
C 	C 	0.55162 0.21140 0.42290 -0.33400
H 	H 	0.53590 0.23390 0.42750 0.13800
C 	C 	0.55439 0.19480 0.36210 0.22600
H 	H 	0.54010 0.20440 0.32570 -0.04700
C 	C 	0.57782 0.16420 0.35340 -0.32700
C 	C 	0.57946 0.14870 0.28680 0.42800
C 	C 	0.63504 0.71640 0.33540 0.40900
C 	C 	0.61652 0.63990 0.29250 -0.26300
C 	C 	0.61068 0.54830 0.31920 0.17000
H 	H 	0.61800 0.53630 0.36340 -0.01500
C 	C 	0.59434 0.47490 0.28160 -0.26800
H 	H 	0.59070 0.41470 0.30060 0.12400
C 	C 	0.58386 0.49070 0.21830 0.20100
H 	H 	0.57310 0.44080 0.19310 -0.03700
C 	C 	0.58873 0.58090 0.18900 -0.31000
H 	H 	0.58130 0.59170 0.14470 0.15000
C 	C 	0.60496 0.65470 0.22750 0.30700
C 	C 	0.62547 0.76580 0.16970 0.32800
C 	C 	0.64293 0.69090 0.16460 -0.34400
H 	H 	0.64240 0.62610 0.18240 0.15600
C 	C 	0.66104 0.71190 0.13330 0.22900
H 	H 	0.67240 0.66040 0.12940 -0.04900
C 	C 	0.66266 0.80570 0.10820 -0.28800
H 	H 	0.67560 0.82020 0.08910 0.13500
C 	C 	0.64452 0.88090 0.11140 0.19200
H 	H 	0.64490 0.94430 0.09180 -0.02700
C 	C 	0.62634 0.86390 0.14240 -0.27700
C 	C 	0.60751 0.94620 0.14540 0.39900
C 	C 	0.67835 0.67250 0.55940 0.41400
C 	C 	0.67566 0.62820 0.62140 -0.27100
C 	C 	0.69694 0.59280 0.66850 0.19300
H 	H 	0.71320 0.59340 0.66170 -0.02900
C 	C 	0.69435 0.55620 0.72620 -0.27300
H 	H 	0.70890 0.53150 0.75790 0.11700
C 	C 	0.67071 0.55560 0.73740 0.20500
H 	H 	0.66940 0.53330 0.77720 -0.05500
C 	C 	0.64876 0.58810 0.68990 -0.33800
H 	H 	0.63250 0.58610 0.69660 0.16200
C 	C 	0.65167 0.62350 0.63240 0.31800
C 	C 	0.60987 0.59470 0.56080 0.32200
C 	C 	0.61417 0.50620 0.53130 -0.34200
H 	H 	0.63080 0.48950 0.53050 0.16100
C 	C 	0.59362 0.44220 0.50290 0.22300
H 	H 	0.59630 0.38260 0.48200 -0.04700
C 	C 	0.56932 0.46600 0.50530 -0.28600
H 	H 	0.55550 0.42190 0.48690 0.12800
C 	C 	0.56525 0.55450 0.53470 0.18700
H 	H 	0.54850 0.57040 0.53550 -0.02500
C 	C 	0.58537 0.62110 0.56320 -0.26500
C 	C 	0.58025 0.71790 0.59630 0.39200
N 	N 	0.65990 0.99750 0.27490 -0.18300
C 	C 	0.66680 0.05160 0.24070 0.22600
C 	C 	0.69710 0.94450 0.25540 -0.19000
H 	H 	0.71210 0.90720 0.25320 -0.03800
N 	N 	0.68450 0.04000 0.21860 0.05900
C 	C 	0.68180 0.91490 0.28820 -0.11400
H 	H 	0.68370 0.85780 0.31740 -0.00200
C 	C 	0.65010 0.14490 0.21190 0.05400
H 	H 	0.63600 0.15700 0.22970 -0.15400
H 	H 	0.66190 0.20200 0.22190 0.10500
H 	H 	0.64330 0.13730 0.16570 0.08100
Cd	Cd	0.87495 0.46517 0.19106 1.23900
Cd	Cd	0.82634 0.29698 0.04968 1.22600
Cd	Cd	0.92497 0.60420 0.34365 1.22800
O 	O 	0.84466 0.45200 0.08570 -0.53800
O 	O 	0.80905 0.48250 0.00800 -0.37400
O 	O 	0.87829 0.61100 0.09480 -0.38200
O 	O 	0.90014 0.61830 0.22220 -0.48400
O 	O 	0.94053 0.66730 0.26070 -0.43000
O 	O 	0.85885 0.29470 0.18800 -0.45700
O 	O 	0.85674 0.19140 0.10500 -0.44700
O 	O 	0.89394 0.24770 0.30340 -0.31900
O 	O 	0.89976 0.45610 0.30420 -0.49100
O 	O 	0.90036 0.50620 0.40220 -0.39700
O 	O 	0.82834 0.26530 0.95130 -0.43500
O 	O 	0.81272 0.12140 0.97580 -0.37400
O 	O 	0.86971 0.16170 0.91450 -0.32100
O 	O 	0.90415 0.24680 0.85330 -0.41700
O 	O 	0.94074 0.26470 0.93020 -0.38600
N 	N 	0.90917 0.39300 0.16900 -0.27300
N 	N 	0.93293 0.28690 0.13100 -0.15100
N 	N 	0.00494 0.40780 0.07660 -0.15400
N 	N 	0.03945 0.50820 0.10740 -0.27300
N 	N 	0.74418 0.71260 0.40310 -0.16300
N 	N 	0.71096 0.77820 0.42850 -0.28900
C 	C 	0.91170 0.35040 0.11510 0.33300
C 	C 	0.94379 0.29200 0.19750 -0.01200
H 	H 	0.95850 0.25720 0.22200 0.03600
C 	C 	0.92916 0.35650 0.21980 -0.00400
H 	H 	0.93210 0.37400 0.26320 0.02200
C 	C 	0.89537 0.36590 0.04750 -0.93900
H 	H 	0.88930 0.30040 0.02820 0.31500
H 	H 	0.90540 0.39880 0.02320 0.32100
H 	H 	0.88080 0.40840 0.04700 0.30300
C 	C 	0.94025 0.21650 0.08720 -0.11100
H 	H 	0.93760 0.25020 0.04570 0.07300
H 	H 	0.92900 0.15680 0.08020 0.07300
C 	C 	0.96754 0.18230 0.11200 0.04200
C 	C 	0.97351 0.08600 0.14130 -0.09400
H 	H 	0.96010 0.04260 0.14320 0.06400
C 	C 	0.99838 0.05400 0.16700 -0.00700
H 	H 	0.00170 0.98960 0.18640 0.03000
C 	C 	0.01824 0.11420 0.16480 -0.04900
H 	H 	0.03520 0.09160 0.18290 0.04900
C 	C 	0.01355 0.21090 0.13540 -0.06300
H 	H 	0.02740 0.25180 0.13290 0.05900
C 	C 	0.98807 0.24610 0.10980 0.01600
C 	C 	0.98214 0.34980 0.07790 -0.08900
H 	H 	0.97110 0.34030 0.03380 0.07200
H 	H 	0.97250 0.38990 0.10080 0.05500
C 	C 	0.01879 0.47440 0.12210 0.31600
C 	C 	0.03909 0.45930 0.05100 -0.00200
H 	H 	0.05160 0.46760 0.02960 0.02200
C 	C 	0.01811 0.39740 0.03080 -0.00300
H 	H 	0.01350 0.35640 0.99390 0.03100
C 	C 	0.01131 0.50510 0.18050 -0.86800
H 	H 	0.02280 0.55820 0.20340 0.28000
H 	H 	0.01260 0.44650 0.20840 0.27500
H 	H 	0.99380 0.53010 0.16740 0.28200
N 	N 	0.84752 0.55200 0.23110 -0.17400
C 	C 	0.82576 0.50460 0.24380 0.09100
N 	N 	0.81875 0.56540 0.29060 -0.18100
C 	C 	0.83619 0.65030 0.30680 -0.29000
H 	H 	0.83590 0.70070 0.33780 0.13700
C 	C 	0.85330 0.64080 0.26490 -0.01600
H 	H 	0.86710 0.68770 0.26610 0.16200
C 	C 	0.81160 0.40840 0.22140 -0.06100
H 	H 	0.79750 0.39470 0.23890 0.18600
H 	H 	0.80490 0.41570 0.17520 0.08000
H 	H 	0.82370 0.35240 0.23170 0.08200
C 	C 	0.79938 0.57280 0.31800 -0.05700
H 	H 	0.80600 0.60540 0.35950 0.06800
H 	H 	0.79400 0.50470 0.32520 0.05900
C 	C 	0.77596 0.63190 0.27860 0.02400
C 	C 	0.77347 0.65780 0.21420 -0.07400
H 	H 	0.78620 0.63780 0.19550 0.06500
C 	C 	0.75313 0.71050 0.17990 -0.01800
H 	H 	0.75210 0.72870 0.13760 0.03100
C 	C 	0.73325 0.73990 0.20440 -0.04500
H 	H 	0.71840 0.77230 0.17840 0.04100
C 	C 	0.73621 0.71970 0.26780 -0.05800
H 	H 	0.72350 0.74140 0.28600 0.04600
C 	C 	0.75747 0.66810 0.30570 0.01200
C 	C 	0.76058 0.64810 0.37700 -0.07600
H 	H 	0.75660 0.57660 0.38240 0.04600
H 	H 	0.77860 0.65960 0.40180 0.05500
C 	C 	0.72039 0.69730 0.40620 0.32900
C 	C 	0.73066 0.85220 0.44000 -0.00500
H 	H 	0.72990 0.91800 0.45620 0.02900
C 	C 	0.75049 0.81360 0.42410 -0.01500
H 	H 	0.76590 0.84750 0.42640 0.04600
C 	C 	0.70577 0.59930 0.38950 -0.89600
H 	H 	0.69960 0.57840 0.42490 0.29500
H 	H 	0.71700 0.54710 0.38120 0.29200
H 	H 	0.69120 0.60910 0.35140 0.28400
C 	C 	0.82830 0.51530 0.04990 0.41000
C 	C 	0.83244 0.62730 0.05820 -0.26800
C 	C 	0.81034 0.69150 0.03880 0.14100
H 	H 	0.79390 0.66220 0.02450 -0.01300
C 	C 	0.81300 0.80280 0.04070 -0.23900
H 	H 	0.79870 0.84610 0.02590 0.10900
C 	C 	0.83743 0.84020 0.06520 0.19400
H 	H 	0.83950 0.91120 0.06890 -0.03700
C 	C 	0.85926 0.78110 0.08470 -0.32000
H 	H 	0.87550 0.81130 0.10150 0.14700
C 	C 	0.85676 0.67500 0.07910 0.31000
C 	C 	0.90170 0.64910 0.09140 0.36800
C 	C 	0.90459 0.66250 0.03130 -0.39700
H 	H 	0.89060 0.64990 0.99470 0.18500
C 	C 	0.92757 0.69400 0.02410 0.27700
H 	H 	0.92910 0.70360 0.98270 -0.06400
C 	C 	0.94838 0.71140 0.07710 -0.33300
H 	H 	0.96410 0.73390 0.07250 0.13800
C 	C 	0.94561 0.69480 0.13790 0.22600
H 	H 	0.95990 0.70440 0.17430 -0.04700
C 	C 	0.92218 0.66420 0.14660 -0.32700
C 	C 	0.92054 0.64870 0.21320 0.42800
C 	C 	0.86496 0.21640 0.16460 0.41000
C 	C 	0.88348 0.13990 0.20750 -0.26300
C 	C 	0.88932 0.04830 0.18080 0.17100
H 	H 	0.88200 0.03630 0.13660 -0.01500
C 	C 	0.90566 0.97490 0.21840 -0.26800
H 	H 	0.90930 0.91470 0.19940 0.12400
C 	C 	0.91614 0.99070 0.28170 0.20100
H 	H 	0.92690 0.94080 0.30690 -0.03700
C 	C 	0.91127 0.08090 0.31100 -0.31000
H 	H 	0.91870 0.09170 0.35530 0.15000
C 	C 	0.89504 0.15470 0.27250 0.30700
C 	C 	0.87453 0.26580 0.33030 0.32900
C 	C 	0.85707 0.19090 0.33540 -0.34400
H 	H 	0.85760 0.12610 0.31760 0.15600
C 	C 	0.83896 0.21190 0.36670 0.22900
H 	H 	0.82760 0.16040 0.37060 -0.04900
C 	C 	0.83734 0.30570 0.39180 -0.28800
H 	H 	0.82440 0.32020 0.41090 0.13500
C 	C 	0.85548 0.38090 0.38860 0.19200
H 	H 	0.85510 0.44430 0.40820 -0.02700
C 	C 	0.87366 0.36390 0.35760 -0.27700
C 	C 	0.89249 0.44620 0.35460 0.40000
C 	C 	0.82165 0.17250 0.94060 0.41400
C 	C 	0.82434 0.12820 0.87860 -0.27100
C 	C 	0.80306 0.09280 0.83150 0.19300
H 	H 	0.78680 0.09340 0.83830 -0.03000
C 	C 	0.80565 0.05620 0.77380 -0.27300
H 	H 	0.79110 0.03150 0.74210 0.11700
C 	C 	0.82929 0.05560 0.76260 0.20500
H 	H 	0.83060 0.03330 0.72280 -0.05600
C 	C 	0.85124 0.08810 0.81010 -0.33800
H 	H 	0.86750 0.08610 0.80340 0.16200
C 	C 	0.84833 0.12350 0.86760 0.31800
C 	C 	0.89013 0.09470 0.93920 0.32300
C 	C 	0.88583 0.00620 0.96870 -0.34500
H 	H 	0.86920 0.98950 0.96950 0.16300
C 	C 	0.90638 0.94220 0.99710 0.22500
H 	H 	0.90370 0.88260 0.01800 -0.04800
C 	C 	0.93068 0.96600 0.99470 -0.28600
H 	H 	0.94450 0.92190 0.01310 0.12700
C 	C 	0.93475 0.05450 0.96530 0.18700
H 	H 	0.95150 0.07040 0.96450 -0.02500
C 	C 	0.91463 0.12110 0.93680 -0.26500
C 	C 	0.91975 0.21790 0.90370 0.39200
N 	N 	0.84010 0.49750 0.22510 -0.18300
C 	C 	0.83320 0.55160 0.25930 0.22300
C 	C 	0.80290 0.44450 0.24460 -0.19000
H 	H 	0.78790 0.40720 0.24680 -0.03800
N 	N 	0.81550 0.54000 0.28140 0.05900
C 	C 	0.81820 0.41490 0.21180 -0.11400
H 	H 	0.81630 0.35780 0.18260 -0.00200
C 	C 	0.84990 0.64490 0.28810 0.05400
H 	H 	0.86400 0.65700 0.27030 -0.15400
H 	H 	0.83810 0.70200 0.27810 0.10400
H 	H 	0.85670 0.63730 0.33430 0.08000
Cd	Cd	0.37495 0.96517 0.19106 1.23900
Cd	Cd	0.32634 0.79698 0.04968 1.22600
Cd	Cd	0.42497 0.10420 0.34365 1.22800
O 	O 	0.34466 0.95200 0.08570 -0.53900
O 	O 	0.30905 0.98250 0.00800 -0.37500
O 	O 	0.37829 0.11100 0.09480 -0.38200
O 	O 	0.40014 0.11830 0.22220 -0.48300
O 	O 	0.44053 0.16730 0.26070 -0.43000
O 	O 	0.35885 0.79470 0.18800 -0.45700
O 	O 	0.35674 0.69140 0.10500 -0.44700
O 	O 	0.39394 0.74770 0.30340 -0.31900
O 	O 	0.39976 0.95610 0.30420 -0.49100
O 	O 	0.40036 0.00620 0.40220 -0.39700
O 	O 	0.32834 0.76530 0.95130 -0.43400
O 	O 	0.31272 0.62140 0.97580 -0.37400
O 	O 	0.36971 0.66170 0.91450 -0.32100
O 	O 	0.40415 0.74680 0.85330 -0.41700
O 	O 	0.44074 0.76470 0.93020 -0.38500
N 	N 	0.40917 0.89300 0.16900 -0.27300
N 	N 	0.43293 0.78690 0.13100 -0.15100
N 	N 	0.50494 0.90780 0.07660 -0.15300
N 	N 	0.53945 0.00820 0.10740 -0.27300
N 	N 	0.24418 0.21260 0.40310 -0.16300
N 	N 	0.21096 0.27820 0.42850 -0.28900
C 	C 	0.41170 0.85040 0.11510 0.33200
C 	C 	0.44379 0.79200 0.19750 -0.01200
H 	H 	0.45850 0.75720 0.22200 0.03600
C 	C 	0.42916 0.85650 0.21980 -0.00400
H 	H 	0.43210 0.87400 0.26320 0.02200
C 	C 	0.39537 0.86590 0.04750 -0.93800
H 	H 	0.38930 0.80040 0.02820 0.31400
H 	H 	0.40540 0.89880 0.02320 0.32100
H 	H 	0.38080 0.90840 0.04700 0.30300
C 	C 	0.44025 0.71650 0.08720 -0.11000
H 	H 	0.43760 0.75020 0.04570 0.07300
H 	H 	0.42900 0.65680 0.08020 0.07200
C 	C 	0.46754 0.68230 0.11200 0.04100
C 	C 	0.47351 0.58600 0.14130 -0.09300
H 	H 	0.46010 0.54260 0.14320 0.06400
C 	C 	0.49838 0.55400 0.16700 -0.00900
H 	H 	0.50170 0.48960 0.18640 0.03100
C 	C 	0.51824 0.61420 0.16480 -0.04700
H 	H 	0.53520 0.59160 0.18290 0.04900
C 	C 	0.51355 0.71090 0.13540 -0.06400
H 	H 	0.52740 0.75180 0.13290 0.05900
C 	C 	0.48807 0.74610 0.10980 0.01700
C 	C 	0.48214 0.84980 0.07790 -0.09000
H 	H 	0.47110 0.84030 0.03380 0.07200
H 	H 	0.47250 0.88990 0.10080 0.05500
C 	C 	0.51879 0.97440 0.12210 0.31400
C 	C 	0.53909 0.95930 0.05100 -0.00200
H 	H 	0.55160 0.96760 0.02960 0.02200
C 	C 	0.51811 0.89740 0.03080 -0.00400
H 	H 	0.51350 0.85640 0.99390 0.03200
C 	C 	0.51131 0.00510 0.18050 -0.86400
H 	H 	0.52280 0.05820 0.20340 0.27900
H 	H 	0.51260 0.94650 0.20840 0.27300
H 	H 	0.49380 0.03010 0.16740 0.28100
N 	N 	0.34752 0.05200 0.23110 -0.17500
C 	C 	0.32576 0.00460 0.24380 0.09000
N 	N 	0.31875 0.06540 0.29060 -0.18100
C 	C 	0.33619 0.15030 0.30680 -0.29100
H 	H 	0.33590 0.20070 0.33780 0.13800
C 	C 	0.35330 0.14080 0.26490 -0.01600
H 	H 	0.36710 0.18770 0.26610 0.16200
C 	C 	0.31160 0.90840 0.22140 -0.06100
H 	H 	0.29750 0.89470 0.23890 0.18600
H 	H 	0.30490 0.91570 0.17520 0.07900
H 	H 	0.32370 0.85240 0.23170 0.08200
C 	C 	0.29938 0.07280 0.31800 -0.05700
H 	H 	0.30600 0.10540 0.35950 0.06800
H 	H 	0.29400 0.00470 0.32520 0.05900
C 	C 	0.27596 0.13190 0.27860 0.02400
C 	C 	0.27347 0.15780 0.21420 -0.07400
H 	H 	0.28620 0.13780 0.19550 0.06500
C 	C 	0.25313 0.21050 0.17990 -0.01800
H 	H 	0.25210 0.22870 0.13760 0.03200
C 	C 	0.23325 0.23990 0.20440 -0.04500
H 	H 	0.21840 0.27230 0.17840 0.04100
C 	C 	0.23621 0.21970 0.26780 -0.05800
H 	H 	0.22350 0.24140 0.28600 0.04600
C 	C 	0.25747 0.16810 0.30570 0.01200
C 	C 	0.26058 0.14810 0.37700 -0.07600
H 	H 	0.25660 0.07660 0.38240 0.04600
H 	H 	0.27860 0.15960 0.40180 0.05500
C 	C 	0.22039 0.19730 0.40620 0.32900
C 	C 	0.23066 0.35220 0.44000 -0.00500
H 	H 	0.22990 0.41800 0.45620 0.02900
C 	C 	0.25049 0.31360 0.42410 -0.01500
H 	H 	0.26590 0.34750 0.42640 0.04600
C 	C 	0.20577 0.09930 0.38950 -0.89600
H 	H 	0.19960 0.07840 0.42490 0.29500
H 	H 	0.21700 0.04710 0.38120 0.29300
H 	H 	0.19120 0.10910 0.35140 0.28400
C 	C 	0.32830 0.01530 0.04990 0.41100
C 	C 	0.33244 0.12730 0.05820 -0.26800
C 	C 	0.31034 0.19150 0.03880 0.14100
H 	H 	0.29390 0.16220 0.02450 -0.01300
C 	C 	0.31300 0.30280 0.04070 -0.23900
H 	H 	0.29870 0.34610 0.02590 0.10900
C 	C 	0.33743 0.34020 0.06520 0.19400
H 	H 	0.33950 0.41120 0.06890 -0.03700
C 	C 	0.35926 0.28110 0.08470 -0.32000
H 	H 	0.37550 0.31130 0.10150 0.14700
C 	C 	0.35676 0.17500 0.07910 0.31000
C 	C 	0.40170 0.14910 0.09140 0.36800
C 	C 	0.40459 0.16250 0.03130 -0.39600
H 	H 	0.39060 0.14990 0.99470 0.18400
C 	C 	0.42757 0.19400 0.02410 0.27800
H 	H 	0.42910 0.20360 0.98270 -0.06500
C 	C 	0.44838 0.21140 0.07710 -0.33400
H 	H 	0.46410 0.23390 0.07250 0.13900
C 	C 	0.44561 0.19480 0.13790 0.22600
H 	H 	0.45990 0.20440 0.17430 -0.04700
C 	C 	0.42218 0.16420 0.14660 -0.32700
C 	C 	0.42054 0.14870 0.21320 0.42800
C 	C 	0.36496 0.71640 0.16460 0.40900
C 	C 	0.38348 0.63990 0.20750 -0.26300
C 	C 	0.38932 0.54830 0.18080 0.17000
H 	H 	0.38200 0.53630 0.13660 -0.01500
C 	C 	0.40566 0.47490 0.21840 -0.26800
H 	H 	0.40930 0.41470 0.19940 0.12400
C 	C 	0.41614 0.49070 0.28170 0.20100
H 	H 	0.42690 0.44080 0.30690 -0.03700
C 	C 	0.41127 0.58090 0.31100 -0.31000
H 	H 	0.41870 0.59170 0.35530 0.15000
C 	C 	0.39504 0.65470 0.27250 0.30700
C 	C 	0.37453 0.76580 0.33030 0.32800
C 	C 	0.35707 0.69090 0.33540 -0.34400
H 	H 	0.35760 0.62610 0.31760 0.15600
C 	C 	0.33896 0.71190 0.36670 0.22900
H 	H 	0.32760 0.66040 0.37060 -0.04900
C 	C 	0.33734 0.80570 0.39180 -0.28800
H 	H 	0.32440 0.82020 0.41090 0.13500
C 	C 	0.35548 0.88090 0.38860 0.19200
H 	H 	0.35510 0.94430 0.40820 -0.02700
C 	C 	0.37366 0.86390 0.35760 -0.27700
C 	C 	0.39249 0.94620 0.35460 0.40000
C 	C 	0.32165 0.67250 0.94060 0.41400
C 	C 	0.32434 0.62820 0.87860 -0.27100
C 	C 	0.30306 0.59280 0.83150 0.19300
H 	H 	0.28680 0.59340 0.83830 -0.02900
C 	C 	0.30565 0.55620 0.77380 -0.27300
H 	H 	0.29110 0.53150 0.74210 0.11700
C 	C 	0.32929 0.55560 0.76260 0.20500
H 	H 	0.33060 0.53330 0.72280 -0.05500
C 	C 	0.35124 0.58810 0.81010 -0.33800
H 	H 	0.36750 0.58610 0.80340 0.16200
C 	C 	0.34833 0.62350 0.86760 0.31800
C 	C 	0.39013 0.59470 0.93920 0.32200
C 	C 	0.38583 0.50620 0.96870 -0.34200
H 	H 	0.36920 0.48950 0.96950 0.16100
C 	C 	0.40638 0.44220 0.99710 0.22200
H 	H 	0.40370 0.38260 0.01800 -0.04700
C 	C 	0.43068 0.46600 0.99470 -0.28600
H 	H 	0.44450 0.42190 0.01310 0.12800
C 	C 	0.43475 0.55450 0.96530 0.18700
H 	H 	0.45150 0.57040 0.96450 -0.02500
C 	C 	0.41463 0.62110 0.93680 -0.26500
C 	C 	0.41975 0.71790 0.90370 0.39200
N 	N 	0.34010 0.99750 0.22510 -0.18300
C 	C 	0.33320 0.05160 0.25930 0.22500
C 	C 	0.30290 0.94450 0.24460 -0.19000
H 	H 	0.28790 0.90720 0.24680 -0.03800
N 	N 	0.31550 0.04000 0.28140 0.05900
C 	C 	0.31820 0.91490 0.21180 -0.11400
H 	H 	0.31630 0.85780 0.18260 -0.00200
C 	C 	0.34990 0.14490 0.28810 0.05400
H 	H 	0.36400 0.15700 0.27030 -0.15400
H 	H 	0.33810 0.20200 0.27810 0.10500
H 	H 	0.35670 0.13730 0.33430 0.08100
Cd	Cd	0.87495 0.53483 0.69106 1.23900
Cd	Cd	0.82634 0.70302 0.54968 1.22600
Cd	Cd	0.92497 0.39580 0.84365 1.22800
O 	O 	0.84466 0.54800 0.58570 -0.53800
O 	O 	0.80905 0.51750 0.50800 -0.37400
O 	O 	0.87829 0.38900 0.59480 -0.38200
O 	O 	0.90014 0.38170 0.72220 -0.48400
O 	O 	0.94053 0.33270 0.76070 -0.43000
O 	O 	0.85885 0.70530 0.68800 -0.45700
O 	O 	0.85674 0.80860 0.60500 -0.44700
O 	O 	0.89394 0.75230 0.80340 -0.31900
O 	O 	0.89976 0.54390 0.80420 -0.49100
O 	O 	0.90036 0.49380 0.90220 -0.39700
O 	O 	0.82834 0.73470 0.45130 -0.43500
O 	O 	0.81272 0.87860 0.47580 -0.37400
O 	O 	0.86971 0.83830 0.41450 -0.32100
O 	O 	0.90415 0.75320 0.35330 -0.41700
O 	O 	0.94074 0.73530 0.43020 -0.38600
N 	N 	0.90917 0.60700 0.66900 -0.27300
N 	N 	0.93293 0.71310 0.63100 -0.15100
N 	N 	0.00494 0.59220 0.57660 -0.15400
N 	N 	0.03945 0.49180 0.60740 -0.27300
N 	N 	0.74418 0.28740 0.90310 -0.16300
N 	N 	0.71096 0.22180 0.92850 -0.28900
C 	C 	0.91170 0.64960 0.61510 0.33300
C 	C 	0.94379 0.70800 0.69750 -0.01200
H 	H 	0.95850 0.74280 0.72200 0.03600
C 	C 	0.92916 0.64350 0.71980 -0.00400
H 	H 	0.93210 0.62600 0.76320 0.02200
C 	C 	0.89537 0.63410 0.54750 -0.93800
H 	H 	0.88930 0.69960 0.52820 0.31400
H 	H 	0.90540 0.60120 0.52320 0.32100
H 	H 	0.88080 0.59160 0.54700 0.30300
C 	C 	0.94025 0.78350 0.58720 -0.11100
H 	H 	0.93760 0.74980 0.54570 0.07300
H 	H 	0.92900 0.84320 0.58020 0.07200
C 	C 	0.96754 0.81770 0.61200 0.04200
C 	C 	0.97351 0.91400 0.64130 -0.09400
H 	H 	0.96010 0.95740 0.64320 0.06400
C 	C 	0.99838 0.94600 0.66700 -0.00800
H 	H 	0.00170 0.01040 0.68640 0.03000
C 	C 	0.01824 0.88580 0.66480 -0.04800
H 	H 	0.03520 0.90840 0.68290 0.04900
C 	C 	0.01355 0.78910 0.63540 -0.06400
H 	H 	0.02740 0.74820 0.63290 0.05900
C 	C 	0.98807 0.75390 0.60980 0.01600
C 	C 	0.98214 0.65020 0.57790 -0.08900
H 	H 	0.97110 0.65970 0.53380 0.07100
H 	H 	0.97250 0.61010 0.60080 0.05500
C 	C 	0.01879 0.52560 0.62210 0.31600
C 	C 	0.03909 0.54070 0.55100 -0.00200
H 	H 	0.05160 0.53240 0.52960 0.02200
C 	C 	0.01811 0.60260 0.53080 -0.00300
H 	H 	0.01350 0.64360 0.49390 0.03100
C 	C 	0.01131 0.49490 0.68050 -0.86900
H 	H 	0.02280 0.44180 0.70340 0.28000
H 	H 	0.01260 0.55350 0.70840 0.27500
H 	H 	0.99380 0.46990 0.66740 0.28200
N 	N 	0.84752 0.44800 0.73110 -0.17400
C 	C 	0.82576 0.49540 0.74380 0.09100
N 	N 	0.81875 0.43460 0.79060 -0.18100
C 	C 	0.83619 0.34970 0.80680 -0.29000
H 	H 	0.83590 0.29930 0.83780 0.13700
C 	C 	0.85330 0.35920 0.76490 -0.01600
H 	H 	0.86710 0.31230 0.76610 0.16200
C 	C 	0.81160 0.59160 0.72140 -0.06100
H 	H 	0.79750 0.60530 0.73890 0.18600
H 	H 	0.80490 0.58430 0.67520 0.08000
H 	H 	0.82370 0.64760 0.73170 0.08200
C 	C 	0.79938 0.42720 0.81800 -0.05700
H 	H 	0.80600 0.39460 0.85950 0.06800
H 	H 	0.79400 0.49530 0.82520 0.05900
C 	C 	0.77596 0.36810 0.77860 0.02400
C 	C 	0.77347 0.34220 0.71420 -0.07400
H 	H 	0.78620 0.36220 0.69550 0.06500
C 	C 	0.75313 0.28950 0.67990 -0.01800
H 	H 	0.75210 0.27130 0.63760 0.03200
C 	C 	0.73325 0.26010 0.70440 -0.04500
H 	H 	0.71840 0.22770 0.67840 0.04100
C 	C 	0.73621 0.28030 0.76780 -0.05800
H 	H 	0.72350 0.25860 0.78600 0.04600
C 	C 	0.75747 0.33190 0.80570 0.01200
C 	C 	0.76058 0.35190 0.87700 -0.07600
H 	H 	0.75660 0.42340 0.88240 0.04600
H 	H 	0.77860 0.34040 0.90180 0.05500
C 	C 	0.72039 0.30270 0.90620 0.32900
C 	C 	0.73066 0.14780 0.94000 -0.00500
H 	H 	0.72990 0.08200 0.95620 0.02900
C 	C 	0.75049 0.18640 0.92410 -0.01500
H 	H 	0.76590 0.15250 0.92640 0.04600
C 	C 	0.70577 0.40070 0.88950 -0.89600
H 	H 	0.69960 0.42160 0.92490 0.29500
H 	H 	0.71700 0.45290 0.88120 0.29200
H 	H 	0.69120 0.39090 0.85140 0.28300
C 	C 	0.82830 0.48470 0.54990 0.41000
C 	C 	0.83244 0.37270 0.55820 -0.26800
C 	C 	0.81034 0.30850 0.53880 0.14100
H 	H 	0.79390 0.33780 0.52450 -0.01300
C 	C 	0.81300 0.19720 0.54070 -0.23900
H 	H 	0.79870 0.15390 0.52590 0.10900
C 	C 	0.83743 0.15980 0.56520 0.19400
H 	H 	0.83950 0.08880 0.56890 -0.03700
C 	C 	0.85926 0.21890 0.58470 -0.32000
H 	H 	0.87550 0.18870 0.60150 0.14700
C 	C 	0.85676 0.32500 0.57910 0.31000
C 	C 	0.90170 0.35090 0.59140 0.36800
C 	C 	0.90459 0.33750 0.53130 -0.39700
H 	H 	0.89060 0.35010 0.49470 0.18500
C 	C 	0.92757 0.30600 0.52410 0.27800
H 	H 	0.92910 0.29640 0.48270 -0.06500
C 	C 	0.94838 0.28860 0.57710 -0.33400
H 	H 	0.96410 0.26610 0.57250 0.13800
C 	C 	0.94561 0.30520 0.63790 0.22600
H 	H 	0.95990 0.29560 0.67430 -0.04700
C 	C 	0.92218 0.33580 0.64660 -0.32700
C 	C 	0.92054 0.35130 0.71320 0.42800
C 	C 	0.86496 0.78360 0.66460 0.40900
C 	C 	0.88348 0.86010 0.70750 -0.26300
C 	C 	0.88932 0.95170 0.68080 0.17000
H 	H 	0.88200 0.96370 0.63660 -0.01500
C 	C 	0.90566 0.02510 0.71840 -0.26800
H 	H 	0.90930 0.08530 0.69940 0.12400
C 	C 	0.91614 0.00930 0.78170 0.20100
H 	H 	0.92690 0.05920 0.80690 -0.03600
C 	C 	0.91127 0.91910 0.81100 -0.31000
H 	H 	0.91870 0.90830 0.85530 0.15000
C 	C 	0.89504 0.84530 0.77250 0.30700
C 	C 	0.87453 0.73420 0.83030 0.32900
C 	C 	0.85707 0.80910 0.83540 -0.34400
H 	H 	0.85760 0.87390 0.81760 0.15600
C 	C 	0.83896 0.78810 0.86670 0.22900
H 	H 	0.82760 0.83960 0.87060 -0.04900
C 	C 	0.83734 0.69430 0.89180 -0.28800
H 	H 	0.82440 0.67980 0.91090 0.13500
C 	C 	0.85548 0.61910 0.88860 0.19200
H 	H 	0.85510 0.55570 0.90820 -0.02700
C 	C 	0.87366 0.63610 0.85760 -0.27700
C 	C 	0.89249 0.55380 0.85460 0.40000
C 	C 	0.82165 0.82750 0.44060 0.41400
C 	C 	0.82434 0.87180 0.37860 -0.27100
C 	C 	0.80306 0.90720 0.33150 0.19300
H 	H 	0.78680 0.90660 0.33830 -0.02900
C 	C 	0.80565 0.94380 0.27380 -0.27300
H 	H 	0.79110 0.96850 0.24210 0.11700
C 	C 	0.82929 0.94440 0.26260 0.20500
H 	H 	0.83060 0.96670 0.22280 -0.05600
C 	C 	0.85124 0.91190 0.31010 -0.33800
H 	H 	0.86750 0.91390 0.30340 0.16200
C 	C 	0.84833 0.87650 0.36760 0.31800
C 	C 	0.89013 0.90530 0.43920 0.32200
C 	C 	0.88583 0.99380 0.46870 -0.34200
H 	H 	0.86920 0.01050 0.46950 0.16100
C 	C 	0.90638 0.05780 0.49710 0.22300
H 	H 	0.90370 0.11740 0.51800 -0.04700
C 	C 	0.93068 0.03400 0.49470 -0.28700
H 	H 	0.94450 0.07810 0.51310 0.12800
C 	C 	0.93475 0.94550 0.46530 0.18700
H 	H 	0.95150 0.92960 0.46450 -0.02500
C 	C 	0.91463 0.87890 0.43680 -0.26500
C 	C 	0.91975 0.78210 0.40370 0.39200
N 	N 	0.84010 0.50250 0.72510 -0.18300
C 	C 	0.83320 0.44840 0.75930 0.22300
C 	C 	0.80290 0.55550 0.74460 -0.19000
H 	H 	0.78790 0.59280 0.74680 -0.03800
N 	N 	0.81550 0.46000 0.78140 0.05900
C 	C 	0.81820 0.58510 0.71180 -0.11400
H 	H 	0.81630 0.64220 0.68260 -0.00200
C 	C 	0.84990 0.35510 0.78810 0.05400
H 	H 	0.86400 0.34300 0.77030 -0.15400
H 	H 	0.83810 0.29800 0.77810 0.10400
H 	H 	0.85670 0.36270 0.83430 0.08000
Cd	Cd	0.37495 0.03483 0.69106 1.23900
Cd	Cd	0.32634 0.20302 0.54968 1.22600
Cd	Cd	0.42497 0.89580 0.84365 1.22800
O 	O 	0.34466 0.04800 0.58570 -0.53800
O 	O 	0.30905 0.01750 0.50800 -0.37400
O 	O 	0.37829 0.88900 0.59480 -0.38200
O 	O 	0.40014 0.88170 0.72220 -0.48300
O 	O 	0.44053 0.83270 0.76070 -0.43000
O 	O 	0.35885 0.20530 0.68800 -0.45700
O 	O 	0.35674 0.30860 0.60500 -0.44700
O 	O 	0.39394 0.25230 0.80340 -0.31900
O 	O 	0.39976 0.04390 0.80420 -0.49100
O 	O 	0.40036 0.99380 0.90220 -0.39700
O 	O 	0.32834 0.23470 0.45130 -0.43500
O 	O 	0.31272 0.37860 0.47580 -0.37400
O 	O 	0.36971 0.33830 0.41450 -0.32100
O 	O 	0.40415 0.25320 0.35330 -0.41700
O 	O 	0.44074 0.23530 0.43020 -0.38600
N 	N 	0.40917 0.10700 0.66900 -0.27400
N 	N 	0.43293 0.21310 0.63100 -0.15100
N 	N 	0.50494 0.09220 0.57660 -0.15400
N 	N 	0.53945 0.99180 0.60740 -0.27300
N 	N 	0.24418 0.78740 0.90310 -0.16300
N 	N 	0.21096 0.72180 0.92850 -0.28900
C 	C 	0.41170 0.14960 0.61510 0.33300
C 	C 	0.44379 0.20800 0.69750 -0.01200
H 	H 	0.45850 0.24280 0.72200 0.03600
C 	C 	0.42916 0.14350 0.71980 -0.00400
H 	H 	0.43210 0.12600 0.76320 0.02200
C 	C 	0.39537 0.13410 0.54750 -0.93800
H 	H 	0.38930 0.19960 0.52820 0.31400
H 	H 	0.40540 0.10120 0.52320 0.32100
H 	H 	0.38080 0.09160 0.54700 0.30300
C 	C 	0.44025 0.28350 0.58720 -0.11000
H 	H 	0.43760 0.24980 0.54570 0.07300
H 	H 	0.42900 0.34320 0.58020 0.07200
C 	C 	0.46754 0.31770 0.61200 0.04100
C 	C 	0.47351 0.41400 0.64130 -0.09300
H 	H 	0.46010 0.45740 0.64320 0.06400
C 	C 	0.49838 0.44600 0.66700 -0.00900
H 	H 	0.50170 0.51040 0.68640 0.03100
C 	C 	0.51824 0.38580 0.66480 -0.04700
H 	H 	0.53520 0.40840 0.68290 0.04900
C 	C 	0.51355 0.28910 0.63540 -0.06400
H 	H 	0.52740 0.24820 0.63290 0.05900
C 	C 	0.48807 0.25390 0.60980 0.01700
C 	C 	0.48214 0.15020 0.57790 -0.09000
H 	H 	0.47110 0.15970 0.53380 0.07200
H 	H 	0.47250 0.11010 0.60080 0.05500
C 	C 	0.51879 0.02560 0.62210 0.31500
C 	C 	0.53909 0.04070 0.55100 -0.00200
H 	H 	0.55160 0.03240 0.52960 0.02200
C 	C 	0.51811 0.10260 0.53080 -0.00300
H 	H 	0.51350 0.14360 0.49390 0.03100
C 	C 	0.51131 0.99490 0.68050 -0.86600
H 	H 	0.52280 0.94180 0.70340 0.28000
H 	H 	0.51260 0.05350 0.70840 0.27400
H 	H 	0.49380 0.96990 0.66740 0.28100
N 	N 	0.34752 0.94800 0.73110 -0.17500
C 	C 	0.32576 0.99540 0.74380 0.09000
N 	N 	0.31875 0.93460 0.79060 -0.18100
C 	C 	0.33619 0.84970 0.80680 -0.29100
H 	H 	0.33590 0.79930 0.83780 0.13800
C 	C 	0.35330 0.85920 0.76490 -0.01600
H 	H 	0.36710 0.81230 0.76610 0.16200
C 	C 	0.31160 0.09160 0.72140 -0.06100
H 	H 	0.29750 0.10530 0.73890 0.18600
H 	H 	0.30490 0.08430 0.67520 0.07900
H 	H 	0.32370 0.14760 0.73170 0.08200
C 	C 	0.29938 0.92720 0.81800 -0.05800
H 	H 	0.30600 0.89460 0.85950 0.06800
H 	H 	0.29400 0.99530 0.82520 0.05900
C 	C 	0.27596 0.86810 0.77860 0.02400
C 	C 	0.27347 0.84220 0.71420 -0.07400
H 	H 	0.28620 0.86220 0.69550 0.06500
C 	C 	0.25313 0.78950 0.67990 -0.01800
H 	H 	0.25210 0.77130 0.63760 0.03200
C 	C 	0.23325 0.76010 0.70440 -0.04500
H 	H 	0.21840 0.72770 0.67840 0.04100
C 	C 	0.23621 0.78030 0.76780 -0.05800
H 	H 	0.22350 0.75860 0.78600 0.04600
C 	C 	0.25747 0.83190 0.80570 0.01200
C 	C 	0.26058 0.85190 0.87700 -0.07600
H 	H 	0.25660 0.92340 0.88240 0.04600
H 	H 	0.27860 0.84040 0.90180 0.05500
C 	C 	0.22039 0.80270 0.90620 0.33000
C 	C 	0.23066 0.64780 0.94000 -0.00500
H 	H 	0.22990 0.58200 0.95620 0.02900
C 	C 	0.25049 0.68640 0.92410 -0.01500
H 	H 	0.26590 0.65250 0.92640 0.04600
C 	C 	0.20577 0.90070 0.88950 -0.89600
H 	H 	0.19960 0.92160 0.92490 0.29500
H 	H 	0.21700 0.95290 0.88120 0.29300
H 	H 	0.19120 0.89090 0.85140 0.28400
C 	C 	0.32830 0.98470 0.54990 0.41000
C 	C 	0.33244 0.87270 0.55820 -0.26800
C 	C 	0.31034 0.80850 0.53880 0.14100
H 	H 	0.29390 0.83780 0.52450 -0.01300
C 	C 	0.31300 0.69720 0.54070 -0.23900
H 	H 	0.29870 0.65390 0.52590 0.10900
C 	C 	0.33743 0.65980 0.56520 0.19400
H 	H 	0.33950 0.58880 0.56890 -0.03700
C 	C 	0.35926 0.71890 0.58470 -0.32000
H 	H 	0.37550 0.68870 0.60150 0.14700
C 	C 	0.35676 0.82500 0.57910 0.31000
C 	C 	0.40170 0.85090 0.59140 0.36800
C 	C 	0.40459 0.83750 0.53130 -0.39700
H 	H 	0.39060 0.85010 0.49470 0.18500
C 	C 	0.42757 0.80600 0.52410 0.27700
H 	H 	0.42910 0.79640 0.48270 -0.06500
C 	C 	0.44838 0.78860 0.57710 -0.33400
H 	H 	0.46410 0.76610 0.57250 0.13800
C 	C 	0.44561 0.80520 0.63790 0.22600
H 	H 	0.45990 0.79560 0.67430 -0.04700
C 	C 	0.42218 0.83580 0.64660 -0.32700
C 	C 	0.42054 0.85130 0.71320 0.42800
C 	C 	0.36496 0.28360 0.66460 0.40900
C 	C 	0.38348 0.36010 0.70750 -0.26300
C 	C 	0.38932 0.45170 0.68080 0.17000
H 	H 	0.38200 0.46370 0.63660 -0.01500
C 	C 	0.40566 0.52510 0.71840 -0.26800
H 	H 	0.40930 0.58530 0.69940 0.12400
C 	C 	0.41614 0.50930 0.78170 0.20100
H 	H 	0.42690 0.55920 0.80690 -0.03700
C 	C 	0.41127 0.41910 0.81100 -0.31000
H 	H 	0.41870 0.40830 0.85530 0.15000
C 	C 	0.39504 0.34530 0.77250 0.30700
C 	C 	0.37453 0.23420 0.83030 0.32800
C 	C 	0.35707 0.30910 0.83540 -0.34400
H 	H 	0.35760 0.37390 0.81760 0.15600
C 	C 	0.33896 0.28810 0.86670 0.22900
H 	H 	0.32760 0.33960 0.87060 -0.04900
C 	C 	0.33734 0.19430 0.89180 -0.28800
H 	H 	0.32440 0.17980 0.91090 0.13500
C 	C 	0.35548 0.11910 0.88860 0.19200
H 	H 	0.35510 0.05570 0.90820 -0.02700
C 	C 	0.37366 0.13610 0.85760 -0.27700
C 	C 	0.39249 0.05380 0.85460 0.39900
C 	C 	0.32165 0.32750 0.44060 0.41400
C 	C 	0.32434 0.37180 0.37860 -0.27100
C 	C 	0.30306 0.40720 0.33150 0.19300
H 	H 	0.28680 0.40660 0.33830 -0.02900
C 	C 	0.30565 0.44380 0.27380 -0.27300
H 	H 	0.29110 0.46850 0.24210 0.11700
C 	C 	0.32929 0.44440 0.26260 0.20500
H 	H 	0.33060 0.46670 0.22280 -0.05500
C 	C 	0.35124 0.41190 0.31010 -0.33800
H 	H 	0.36750 0.41390 0.30340 0.16200
C 	C 	0.34833 0.37650 0.36760 0.31800
C 	C 	0.39013 0.40530 0.43920 0.32200
C 	C 	0.38583 0.49380 0.46870 -0.34200
H 	H 	0.36920 0.51050 0.46950 0.16100
C 	C 	0.40638 0.55780 0.49710 0.22300
H 	H 	0.40370 0.61740 0.51800 -0.04700
C 	C 	0.43068 0.53400 0.49470 -0.28600
H 	H 	0.44450 0.57810 0.51310 0.12800
C 	C 	0.43475 0.44550 0.46530 0.18700
H 	H 	0.45150 0.42960 0.46450 -0.02500
C 	C 	0.41463 0.37890 0.43680 -0.26500
C 	C 	0.41975 0.28210 0.40370 0.39200
N 	N 	0.34010 0.00250 0.72510 -0.18300
C 	C 	0.33320 0.94840 0.75930 0.22600
C 	C 	0.30290 0.05550 0.74460 -0.19000
H 	H 	0.28790 0.09280 0.74680 -0.03800
N 	N 	0.31550 0.96000 0.78140 0.05900
C 	C 	0.31820 0.08510 0.71180 -0.11400
H 	H 	0.31630 0.14220 0.68260 -0.00200
C 	C 	0.34990 0.85510 0.78810 0.05400
H 	H 	0.36400 0.84300 0.77030 -0.15400
H 	H 	0.33810 0.79800 0.77810 0.10500
H 	H 	0.35670 0.86270 0.83430 0.08100
Cd	Cd	0.12505 0.53483 0.80894 1.23900
Cd	Cd	0.17366 0.70302 0.95032 1.22600
Cd	Cd	0.07503 0.39580 0.65635 1.22800
O 	O 	0.15534 0.54800 0.91430 -0.53800
O 	O 	0.19095 0.51750 0.99200 -0.37400
O 	O 	0.12171 0.38900 0.90520 -0.38200
O 	O 	0.09986 0.38170 0.77780 -0.48400
O 	O 	0.05947 0.33270 0.73930 -0.43000
O 	O 	0.14115 0.70530 0.81200 -0.45700
O 	O 	0.14326 0.80860 0.89500 -0.44700
O 	O 	0.10606 0.75230 0.69660 -0.31900
O 	O 	0.10024 0.54390 0.69580 -0.49100
O 	O 	0.09964 0.49380 0.59780 -0.39700
O 	O 	0.17166 0.73470 0.04870 -0.43500
O 	O 	0.18728 0.87860 0.02420 -0.37400
O 	O 	0.13029 0.83830 0.08550 -0.32100
O 	O 	0.09585 0.75320 0.14670 -0.41700
O 	O 	0.05926 0.73530 0.06980 -0.38600
N 	N 	0.09083 0.60700 0.83100 -0.27300
N 	N 	0.06707 0.71310 0.86900 -0.15100
N 	N 	0.99506 0.59220 0.92340 -0.15400
N 	N 	0.96055 0.49180 0.89260 -0.27300
N 	N 	0.25582 0.28740 0.59690 -0.16300
N 	N 	0.28904 0.22180 0.57150 -0.28900
C 	C 	0.08830 0.64960 0.88490 0.33300
C 	C 	0.05621 0.70800 0.80250 -0.01200
H 	H 	0.04150 0.74280 0.77800 0.03600
C 	C 	0.07084 0.64350 0.78020 -0.00400
H 	H 	0.06790 0.62600 0.73680 0.02200
C 	C 	0.10463 0.63410 0.95250 -0.93900
H 	H 	0.11070 0.69960 0.97180 0.31500
H 	H 	0.09460 0.60120 0.97680 0.32100
H 	H 	0.11920 0.59160 0.95300 0.30300
C 	C 	0.05975 0.78350 0.91280 -0.11100
H 	H 	0.06240 0.74980 0.95430 0.07300
H 	H 	0.07100 0.84320 0.91980 0.07300
C 	C 	0.03246 0.81770 0.88800 0.04200
C 	C 	0.02649 0.91400 0.85870 -0.09400
H 	H 	0.03990 0.95740 0.85680 0.06400
C 	C 	0.00162 0.94600 0.83300 -0.00700
H 	H 	0.99830 0.01040 0.81360 0.03000
C 	C 	0.98176 0.88580 0.83520 -0.04900
H 	H 	0.96480 0.90840 0.81710 0.04900
C 	C 	0.98645 0.78910 0.86460 -0.06300
H 	H 	0.97260 0.74820 0.86710 0.05900
C 	C 	0.01193 0.75390 0.89020 0.01600
C 	C 	0.01786 0.65020 0.92210 -0.08900
H 	H 	0.02890 0.65970 0.96620 0.07200
H 	H 	0.02750 0.61010 0.89920 0.05500
C 	C 	0.98121 0.52560 0.87790 0.31600
C 	C 	0.96091 0.54070 0.94900 -0.00200
H 	H 	0.94840 0.53240 0.97040 0.02200
C 	C 	0.98189 0.60260 0.96920 -0.00300
H 	H 	0.98650 0.64360 0.00610 0.03100
C 	C 	0.98869 0.49490 0.81950 -0.86800
H 	H 	0.97720 0.44180 0.79660 0.28000
H 	H 	0.98740 0.55350 0.79160 0.27500
H 	H 	0.00620 0.46990 0.83260 0.28200
N 	N 	0.15248 0.44800 0.76890 -0.17400
C 	C 	0.17424 0.49540 0.75620 0.09100
N 	N 	0.18125 0.43460 0.70940 -0.18100
C 	C 	0.16381 0.34970 0.69320 -0.29000
H 	H 	0.16410 0.29930 0.66220 0.13700
C 	C 	0.14670 0.35920 0.73510 -0.01600
H 	H 	0.13290 0.31230 0.73390 0.16200
C 	C 	0.18840 0.59160 0.77860 -0.06100
H 	H 	0.20250 0.60530 0.76110 0.18600
H 	H 	0.19510 0.58430 0.82480 0.08000
H 	H 	0.17630 0.64760 0.76830 0.08200
C 	C 	0.20062 0.42720 0.68200 -0.05700
H 	H 	0.19400 0.39460 0.64050 0.06800
H 	H 	0.20600 0.49530 0.67480 0.05900
C 	C 	0.22404 0.36810 0.72140 0.02400
C 	C 	0.22653 0.34220 0.78580 -0.07400
H 	H 	0.21380 0.36220 0.80450 0.06500
C 	C 	0.24687 0.28950 0.82010 -0.01800
H 	H 	0.24790 0.27130 0.86240 0.03100
C 	C 	0.26675 0.26010 0.79560 -0.04500
H 	H 	0.28160 0.22770 0.82160 0.04100
C 	C 	0.26379 0.28030 0.73220 -0.05800
H 	H 	0.27650 0.25860 0.71400 0.04600
C 	C 	0.24253 0.33190 0.69430 0.01200
C 	C 	0.23942 0.35190 0.62300 -0.07600
H 	H 	0.24340 0.42340 0.61760 0.04600
H 	H 	0.22140 0.34040 0.59820 0.05500
C 	C 	0.27961 0.30270 0.59380 0.32900
C 	C 	0.26934 0.14780 0.56000 -0.00500
H 	H 	0.27010 0.08200 0.54380 0.02900
C 	C 	0.24951 0.18640 0.57590 -0.01500
H 	H 	0.23410 0.15250 0.57360 0.04600
C 	C 	0.29423 0.40070 0.61050 -0.89600
H 	H 	0.30040 0.42160 0.57510 0.29500
H 	H 	0.28300 0.45290 0.61880 0.29200
H 	H 	0.30880 0.39090 0.64860 0.28400
C 	C 	0.17170 0.48470 0.95010 0.41000
C 	C 	0.16756 0.37270 0.94180 -0.26800
C 	C 	0.18966 0.30850 0.96120 0.14100
H 	H 	0.20610 0.33780 0.97550 -0.01300
C 	C 	0.18700 0.19720 0.95930 -0.23900
H 	H 	0.20130 0.15390 0.97410 0.10900
C 	C 	0.16257 0.15980 0.93480 0.19400
H 	H 	0.16050 0.08880 0.93110 -0.03700
C 	C 	0.14074 0.21890 0.91530 -0.32000
H 	H 	0.12450 0.18870 0.89850 0.14700
C 	C 	0.14324 0.32500 0.92090 0.31000
C 	C 	0.09830 0.35090 0.90860 0.36800
C 	C 	0.09541 0.33750 0.96870 -0.39700
H 	H 	0.10940 0.35010 0.00530 0.18500
C 	C 	0.07243 0.30600 0.97590 0.27700
H 	H 	0.07090 0.29640 0.01730 -0.06400
C 	C 	0.05162 0.28860 0.92290 -0.33300
H 	H 	0.03590 0.26610 0.92750 0.13800
C 	C 	0.05439 0.30520 0.86210 0.22600
H 	H 	0.04010 0.29560 0.82570 -0.04700
C 	C 	0.07782 0.33580 0.85340 -0.32700
C 	C 	0.07946 0.35130 0.78680 0.42800
C 	C 	0.13504 0.78360 0.83540 0.41000
C 	C 	0.11652 0.86010 0.79250 -0.26300
C 	C 	0.11068 0.95170 0.81920 0.17100
H 	H 	0.11800 0.96370 0.86340 -0.01500
C 	C 	0.09434 0.02510 0.78160 -0.26800
H 	H 	0.09070 0.08530 0.80060 0.12400
C 	C 	0.08386 0.00930 0.71830 0.20100
H 	H 	0.07310 0.05920 0.69310 -0.03700
C 	C 	0.08873 0.91910 0.68900 -0.31000
H 	H 	0.08130 0.90830 0.64470 0.15000
C 	C 	0.10496 0.84530 0.72750 0.30700
C 	C 	0.12547 0.73420 0.66970 0.32900
C 	C 	0.14293 0.80910 0.66460 -0.34400
H 	H 	0.14240 0.87390 0.68240 0.15600
C 	C 	0.16104 0.78810 0.63330 0.22900
H 	H 	0.17240 0.83960 0.62940 -0.04900
C 	C 	0.16266 0.69430 0.60820 -0.28800
H 	H 	0.17560 0.67980 0.58910 0.13500
C 	C 	0.14452 0.61910 0.61140 0.19200
H 	H 	0.14490 0.55570 0.59180 -0.02700
C 	C 	0.12634 0.63610 0.64240 -0.27700
C 	C 	0.10751 0.55380 0.64540 0.40000
C 	C 	0.17835 0.82750 0.05940 0.41400
C 	C 	0.17566 0.87180 0.12140 -0.27100
C 	C 	0.19694 0.90720 0.16850 0.19300
H 	H 	0.21320 0.90660 0.16170 -0.03000
C 	C 	0.19435 0.94380 0.22620 -0.27300
H 	H 	0.20890 0.96850 0.25790 0.11700
C 	C 	0.17071 0.94440 0.23740 0.20500
H 	H 	0.16940 0.96670 0.27720 -0.05600
C 	C 	0.14876 0.91190 0.18990 -0.33800
H 	H 	0.13250 0.91390 0.19660 0.16200
C 	C 	0.15167 0.87650 0.13240 0.31800
C 	C 	0.10987 0.90530 0.06080 0.32300
C 	C 	0.11417 0.99380 0.03130 -0.34500
H 	H 	0.13080 0.01050 0.03050 0.16300
C 	C 	0.09362 0.05780 0.00290 0.22500
H 	H 	0.09630 0.11740 0.98200 -0.04800
C 	C 	0.06932 0.03400 0.00530 -0.28600
H 	H 	0.05550 0.07810 0.98690 0.12700
C 	C 	0.06525 0.94550 0.03470 0.18700
H 	H 	0.04850 0.92960 0.03550 -0.02500
C 	C 	0.08537 0.87890 0.06320 -0.26500
C 	C 	0.08025 0.78210 0.09630 0.39200
N 	N 	0.15990 0.50250 0.77490 -0.18300
C 	C 	0.16680 0.44840 0.74070 0.22300
C 	C 	0.19710 0.55550 0.75540 -0.19000
H 	H 	0.21210 0.59280 0.75320 -0.03800
N 	N 	0.18450 0.46000 0.71860 0.05900
C 	C 	0.18180 0.58510 0.78820 -0.11400
H 	H 	0.18370 0.64220 0.81740 -0.00200
C 	C 	0.15010 0.35510 0.71190 0.05400
H 	H 	0.13600 0.34300 0.72970 -0.15400
H 	H 	0.16190 0.29800 0.72190 0.10400
H 	H 	0.14330 0.36270 0.66570 0.08000
Cd	Cd	0.62505 0.03483 0.80894 1.23900
Cd	Cd	0.67366 0.20302 0.95032 1.22600
Cd	Cd	0.57503 0.89580 0.65635 1.22800
O 	O 	0.65534 0.04800 0.91430 -0.53900
O 	O 	0.69095 0.01750 0.99200 -0.37500
O 	O 	0.62171 0.88900 0.90520 -0.38200
O 	O 	0.59986 0.88170 0.77780 -0.48300
O 	O 	0.55947 0.83270 0.73930 -0.43000
O 	O 	0.64115 0.20530 0.81200 -0.45700
O 	O 	0.64326 0.30860 0.89500 -0.44700
O 	O 	0.60606 0.25230 0.69660 -0.31900
O 	O 	0.60024 0.04390 0.69580 -0.49100
O 	O 	0.59964 0.99380 0.59780 -0.39700
O 	O 	0.67166 0.23470 0.04870 -0.43400
O 	O 	0.68728 0.37860 0.02420 -0.37400
O 	O 	0.63029 0.33830 0.08550 -0.32100
O 	O 	0.59585 0.25320 0.14670 -0.41700
O 	O 	0.55926 0.23530 0.06980 -0.38500
N 	N 	0.59083 0.10700 0.83100 -0.27300
N 	N 	0.56707 0.21310 0.86900 -0.15100
N 	N 	0.49506 0.09220 0.92340 -0.15300
N 	N 	0.46055 0.99180 0.89260 -0.27300
N 	N 	0.75582 0.78740 0.59690 -0.16300
N 	N 	0.78904 0.72180 0.57150 -0.28900
C 	C 	0.58830 0.14960 0.88490 0.33200
C 	C 	0.55621 0.20800 0.80250 -0.01200
H 	H 	0.54150 0.24280 0.77800 0.03600
C 	C 	0.57084 0.14350 0.78020 -0.00400
H 	H 	0.56790 0.12600 0.73680 0.02200
C 	C 	0.60463 0.13410 0.95250 -0.93800
H 	H 	0.61070 0.19960 0.97180 0.31400
H 	H 	0.59460 0.10120 0.97680 0.32100
H 	H 	0.61920 0.09160 0.95300 0.30300
C 	C 	0.55975 0.28350 0.91280 -0.11000
H 	H 	0.56240 0.24980 0.95430 0.07300
H 	H 	0.57100 0.34320 0.91980 0.07200
C 	C 	0.53246 0.31770 0.88800 0.04100
C 	C 	0.52649 0.41400 0.85870 -0.09300
H 	H 	0.53990 0.45740 0.85680 0.06400
C 	C 	0.50162 0.44600 0.83300 -0.00900
H 	H 	0.49830 0.51040 0.81360 0.03100
C 	C 	0.48176 0.38580 0.83520 -0.04700
H 	H 	0.46480 0.40840 0.81710 0.04900
C 	C 	0.48645 0.28910 0.86460 -0.06400
H 	H 	0.47260 0.24820 0.86710 0.05900
C 	C 	0.51193 0.25390 0.89020 0.01700
C 	C 	0.51786 0.15020 0.92210 -0.09000
H 	H 	0.52890 0.15970 0.96620 0.07200
H 	H 	0.52750 0.11010 0.89920 0.05500
C 	C 	0.48121 0.02560 0.87790 0.31400
C 	C 	0.46091 0.04070 0.94900 -0.00200
H 	H 	0.44840 0.03240 0.97040 0.02200
C 	C 	0.48189 0.10260 0.96920 -0.00400
H 	H 	0.48650 0.14360 0.00610 0.03200
C 	C 	0.48869 0.99490 0.81950 -0.86400
H 	H 	0.47720 0.94180 0.79660 0.27900
H 	H 	0.48740 0.05350 0.79160 0.27300
H 	H 	0.50620 0.96990 0.83260 0.28100
N 	N 	0.65248 0.94800 0.76890 -0.17500
C 	C 	0.67424 0.99540 0.75620 0.09000
N 	N 	0.68125 0.93460 0.70940 -0.18100
C 	C 	0.66381 0.84970 0.69320 -0.29100
H 	H 	0.66410 0.79930 0.66220 0.13800
C 	C 	0.64670 0.85920 0.73510 -0.01600
H 	H 	0.63290 0.81230 0.73390 0.16200
C 	C 	0.68840 0.09160 0.77860 -0.06100
H 	H 	0.70250 0.10530 0.76110 0.18600
H 	H 	0.69510 0.08430 0.82480 0.07900
H 	H 	0.67630 0.14760 0.76830 0.08200
C 	C 	0.70062 0.92720 0.68200 -0.05700
H 	H 	0.69400 0.89460 0.64050 0.06800
H 	H 	0.70600 0.99530 0.67480 0.05900
C 	C 	0.72404 0.86810 0.72140 0.02400
C 	C 	0.72653 0.84220 0.78580 -0.07400
H 	H 	0.71380 0.86220 0.80450 0.06500
C 	C 	0.74687 0.78950 0.82010 -0.01800
H 	H 	0.74790 0.77130 0.86240 0.03200
C 	C 	0.76675 0.76010 0.79560 -0.04500
H 	H 	0.78160 0.72770 0.82160 0.04100
C 	C 	0.76379 0.78030 0.73220 -0.05800
H 	H 	0.77650 0.75860 0.71400 0.04600
C 	C 	0.74253 0.83190 0.69430 0.01200
C 	C 	0.73942 0.85190 0.62300 -0.07600
H 	H 	0.74340 0.92340 0.61760 0.04600
H 	H 	0.72140 0.84040 0.59820 0.05500
C 	C 	0.77961 0.80270 0.59380 0.32900
C 	C 	0.76934 0.64780 0.56000 -0.00500
H 	H 	0.77010 0.58200 0.54380 0.02900
C 	C 	0.74951 0.68640 0.57590 -0.01500
H 	H 	0.73410 0.65250 0.57360 0.04600
C 	C 	0.79423 0.90070 0.61050 -0.89600
H 	H 	0.80040 0.92160 0.57510 0.29500
H 	H 	0.78300 0.95290 0.61880 0.29300
H 	H 	0.80880 0.89090 0.64860 0.28400
C 	C 	0.67170 0.98470 0.95010 0.41100
C 	C 	0.66756 0.87270 0.94180 -0.26800
C 	C 	0.68966 0.80850 0.96120 0.14100
H 	H 	0.70610 0.83780 0.97550 -0.01300
C 	C 	0.68700 0.69720 0.95930 -0.23900
H 	H 	0.70130 0.65390 0.97410 0.10900
C 	C 	0.66257 0.65980 0.93480 0.19400
H 	H 	0.66050 0.58880 0.93110 -0.03700
C 	C 	0.64074 0.71890 0.91530 -0.32000
H 	H 	0.62450 0.68870 0.89850 0.14700
C 	C 	0.64324 0.82500 0.92090 0.31000
C 	C 	0.59830 0.85090 0.90860 0.36800
C 	C 	0.59541 0.83750 0.96870 -0.39600
H 	H 	0.60940 0.85010 0.00530 0.18400
C 	C 	0.57243 0.80600 0.97590 0.27800
H 	H 	0.57090 0.79640 0.01730 -0.06500
C 	C 	0.55162 0.78860 0.92290 -0.33400
H 	H 	0.53590 0.76610 0.92750 0.13900
C 	C 	0.55439 0.80520 0.86210 0.22600
H 	H 	0.54010 0.79560 0.82570 -0.04700
C 	C 	0.57782 0.83580 0.85340 -0.32700
C 	C 	0.57946 0.85130 0.78680 0.42800
C 	C 	0.63504 0.28360 0.83540 0.40900
C 	C 	0.61652 0.36010 0.79250 -0.26300
C 	C 	0.61068 0.45170 0.81920 0.17000
H 	H 	0.61800 0.46370 0.86340 -0.01500
C 	C 	0.59434 0.52510 0.78160 -0.26800
H 	H 	0.59070 0.58530 0.80060 0.12400
C 	C 	0.58386 0.50930 0.71830 0.20100
H 	H 	0.57310 0.55920 0.69310 -0.03700
C 	C 	0.58873 0.41910 0.68900 -0.31000
H 	H 	0.58130 0.40830 0.64470 0.15000
C 	C 	0.60496 0.34530 0.72750 0.30700
C 	C 	0.62547 0.23420 0.66970 0.32800
C 	C 	0.64293 0.30910 0.66460 -0.34400
H 	H 	0.64240 0.37390 0.68240 0.15600
C 	C 	0.66104 0.28810 0.63330 0.22900
H 	H 	0.67240 0.33960 0.62940 -0.04900
C 	C 	0.66266 0.19430 0.60820 -0.28800
H 	H 	0.67560 0.17980 0.58910 0.13500
C 	C 	0.64452 0.11910 0.61140 0.19200
H 	H 	0.64490 0.05570 0.59180 -0.02700
C 	C 	0.62634 0.13610 0.64240 -0.27700
C 	C 	0.60751 0.05380 0.64540 0.40000
C 	C 	0.67835 0.32750 0.05940 0.41400
C 	C 	0.67566 0.37180 0.12140 -0.27100
C 	C 	0.69694 0.40720 0.16850 0.19300
H 	H 	0.71320 0.40660 0.16170 -0.02900
C 	C 	0.69435 0.44380 0.22620 -0.27300
H 	H 	0.70890 0.46850 0.25790 0.11700
C 	C 	0.67071 0.44440 0.23740 0.20500
H 	H 	0.66940 0.46670 0.27720 -0.05500
C 	C 	0.64876 0.41190 0.18990 -0.33800
H 	H 	0.63250 0.41390 0.19660 0.16200
C 	C 	0.65167 0.37650 0.13240 0.31800
C 	C 	0.60987 0.40530 0.06080 0.32200
C 	C 	0.61417 0.49380 0.03130 -0.34200
H 	H 	0.63080 0.51050 0.03050 0.16100
C 	C 	0.59362 0.55780 0.00290 0.22200
H 	H 	0.59630 0.61740 0.98200 -0.04700
C 	C 	0.56932 0.53400 0.00530 -0.28600
H 	H 	0.55550 0.57810 0.98690 0.12800
C 	C 	0.56525 0.44550 0.03470 0.18700
H 	H 	0.54850 0.42960 0.03550 -0.02500
C 	C 	0.58537 0.37890 0.06320 -0.26500
C 	C 	0.58025 0.28210 0.09630 0.39200
N 	N 	0.65990 0.00250 0.77490 -0.18300
C 	C 	0.66680 0.94840 0.74070 0.22500
C 	C 	0.69710 0.05550 0.75540 -0.19000
H 	H 	0.71210 0.09280 0.75320 -0.03800
N 	N 	0.68450 0.96000 0.71860 0.05900
C 	C 	0.68180 0.08510 0.78820 -0.11400
H 	H 	0.68370 0.14220 0.81740 -0.00200
C 	C 	0.65010 0.85510 0.71190 0.05400
H 	H 	0.63600 0.84300 0.72970 -0.15400
H 	H 	0.66190 0.79800 0.72190 0.10500
H 	H 	0.64330 0.86270 0.66570 0.08100
