data_crystal

_cell_length_a 9.27500
_cell_length_b 12.92200
_cell_length_c 14.56400
_cell_angle_alpha 105.06000
_cell_angle_beta  97.19400
_cell_angle_gamma 96.25400

_symmetry_space_group_name_	'P 1'
_symmetry_space_group_name_H-M	'P 1'

loop_
_symmetry_equiv_pos_as_xyz
  x,y,z

loop_
_atom_site_label
_atom_site_type_symbol
_atom_site_fract_x
_atom_site_fract_y
_atom_site_fract_z
_atom_site_charge
Co	Co	0.44528 0.91885 0.71791 1.16600
Co	Co	0.95294 0.70279 0.87317 1.13700
Co	Co	0.55472 0.08115 0.28209 1.13900
Co	Co	0.04706 0.29721 0.12683 1.08200
Co	Co	-0.00000 0.00000 -0.00000 1.03200
H 	H 	0.70070 0.35620 0.83370 0.04600
H 	H 	0.56670 0.13610 0.58030 0.03500
H 	H 	0.75300 0.43320 0.58890 0.04800
H 	H 	0.04440 0.94500 0.21070 0.00900
H 	H 	0.69380 0.01870 0.89240 -0.06500
H 	H 	0.19330 0.74130 0.73860 -0.03100
H 	H 	0.27290 0.12220 0.94630 0.16000
H 	H 	0.36710 0.10470 0.86960 0.15800
H 	H 	0.91380 0.56500 0.01130 0.13400
H 	H 	0.92540 0.57590 0.11650 0.15900
H 	H 	0.54060 0.68570 0.67400 0.16900
H 	H 	0.66080 0.63420 0.71370 0.17100
H 	H 	0.29930 0.64380 0.16630 0.01800
H 	H 	0.43330 0.86390 0.41970 0.04900
H 	H 	0.24700 0.56680 0.41110 0.03300
H 	H 	0.95560 0.05500 0.78930 -0.03200
H 	H 	0.30620 0.98130 0.10760 0.03200
H 	H 	0.80670 0.25870 0.26140 -0.01800
H 	H 	0.72710 0.87780 0.05370 0.13500
H 	H 	0.63290 0.89530 0.13040 0.15300
H 	H 	0.08620 0.43500 0.98870 0.16400
H 	H 	0.07460 0.42410 0.88350 0.14700
H 	H 	0.45940 0.31430 0.32600 0.16400
H 	H 	0.33920 0.36580 0.28630 0.16600
C 	C 	0.81760 0.52160 0.77730 0.29600
C 	C 	0.74100 0.40930 0.71970 -0.09500
C 	C 	0.69080 0.33640 0.76680 0.04700
C 	C 	0.62460 0.23200 0.71300 -0.11500
C 	C 	0.60960 0.20570 0.61600 0.05700
C 	C 	0.65710 0.28070 0.56800 -0.11500
C 	C 	0.72190 0.38240 0.62000 0.04500
C 	C 	0.63450 0.24910 0.46050 0.35000
C 	C 	0.56740 0.15050 0.76370 0.36400
C 	C 	0.96580 0.71110 0.08850 0.21500
C 	C 	0.02170 0.88020 0.16190 0.04800
C 	C 	0.67210 0.78560 0.78180 0.20800
C 	C 	0.70710 0.94700 0.86770 0.18300
C 	C 	0.23800 0.97220 0.86480 0.22300
C 	C 	0.19210 0.80680 0.78370 0.09000
C 	C 	0.18240 0.47840 0.22270 0.30800
C 	C 	0.25900 0.59070 0.28030 -0.12500
C 	C 	0.30920 0.66360 0.23320 0.05700
C 	C 	0.37540 0.76800 0.28700 -0.12400
C 	C 	0.39040 0.79430 0.38400 0.06000
C 	C 	0.34290 0.71930 0.43200 -0.12100
C 	C 	0.27810 0.61760 0.38000 0.05500
C 	C 	0.36550 0.75090 0.53950 0.34800
C 	C 	0.43260 0.84950 0.23630 0.36700
C 	C 	0.03420 0.28890 0.91150 0.20700
C 	C 	0.97830 0.11980 0.83810 0.16800
C 	C 	0.32790 0.21440 0.21820 0.19200
C 	C 	0.29290 0.05300 0.13230 -0.00900
C 	C 	0.76200 0.02780 0.13520 0.13600
C 	C 	0.80790 0.19320 0.21630 0.09000
N 	N 	0.10580 0.81950 0.84920 -0.23900
N 	N 	0.13550 0.92680 0.90290 -0.22500
N 	N 	0.27920 0.89990 0.78930 -0.28800
N 	N 	0.30050 0.08000 0.89770 -0.36400
N 	N 	0.01240 0.87300 0.07110 -0.23300
N 	N 	0.97730 0.76430 0.02180 -0.24300
N 	N 	0.99410 0.78190 0.17660 -0.11300
N 	N 	0.93090 0.60500 0.06990 -0.33800
N 	N 	0.81240 0.90630 0.90290 -0.20900
N 	N 	0.79360 0.79760 0.84890 -0.22600
N 	N 	0.61590 0.87790 0.79130 -0.29900
N 	N 	0.61790 0.69020 0.71500 -0.35000
N 	N 	0.89420 0.18050 0.15080 -0.22100
N 	N 	0.86450 0.07320 0.09710 -0.23300
N 	N 	0.72080 0.10010 0.21070 -0.28600
N 	N 	0.69950 0.92000 0.10230 -0.30500
N 	N 	0.98760 0.12700 0.92890 -0.19100
N 	N 	0.02270 0.23570 0.97820 -0.25200
N 	N 	0.00590 0.21810 0.82340 -0.19200
N 	N 	0.06910 0.39500 0.93010 -0.34200
N 	N 	0.18760 0.09370 0.09710 -0.23900
N 	N 	0.20640 0.20240 0.15110 -0.25100
N 	N 	0.38410 0.12210 0.20870 -0.28700
N 	N 	0.38210 0.30980 0.28500 -0.35100
O 	O 	0.81970 0.55280 0.86670 -0.38600
O 	O 	0.87870 0.58260 0.73430 -0.38000
O 	O 	0.49760 0.06260 0.70640 -0.47900
O 	O 	0.58930 0.17220 0.85130 -0.30600
O 	O 	0.59550 0.14800 0.41930 -0.45600
O 	O 	0.65320 0.31840 0.41710 -0.31000
O 	O 	0.18030 0.44720 0.13330 -0.44600
O 	O 	0.12130 0.41740 0.26570 -0.42000
O 	O 	0.50240 0.93740 0.29360 -0.43200
O 	O 	0.41070 0.82780 0.14870 -0.32500
O 	O 	0.40450 0.85200 0.58070 -0.43600
O 	O 	0.34680 0.68160 0.58290 -0.31700
