data_crystal

_cell_length_a 10.68430
_cell_length_b 13.48410
_cell_length_c 14.37890
_cell_angle_alpha 76.88040
_cell_angle_beta  68.19010
_cell_angle_gamma 66.66030

_symmetry_space_group_name_	'P 1'
_symmetry_space_group_name_H-M	'P 1'

loop_
_symmetry_equiv_pos_as_xyz
  x,y,z

loop_
_atom_site_label
_atom_site_type_symbol
_atom_site_fract_x
_atom_site_fract_y
_atom_site_fract_z
_atom_site_charge
Mn	Mn	0.85665 0.03921 0.10933 1.26600
Mn	Mn	0.50519 0.46079 0.39067 1.27400
Mn	Mn	0.14335 0.96079 0.89067 1.26500
Mn	Mn	0.49481 0.53921 0.60933 1.27300
Mn	Mn	0.78139 0.25000 0.25000 1.31000
Mn	Mn	0.21861 0.75000 0.75000 1.31000
H 	H 	0.20120 0.18130 0.84670 0.04400
H 	H 	0.29710 0.31350 0.75250 0.04200
H 	H 	0.95320 0.54220 0.90760 0.04000
H 	H 	0.86420 0.40900 0.00940 0.05200
H 	H 	0.54370 0.16210 0.44790 0.03500
H 	H 	0.58000 0.87470 0.38530 0.04600
H 	H 	0.72920 0.31870 0.65330 0.03000
H 	H 	0.86310 0.18650 0.74750 0.05100
H 	H 	0.90300 0.95780 0.59240 0.06300
H 	H 	0.78260 0.09100 0.49060 0.03200
H 	H 	0.65370 0.33790 0.05210 0.03300
H 	H 	0.34000 0.62530 0.11470 0.04500
H 	H 	0.79880 0.81870 0.15330 0.04400
H 	H 	0.70290 0.68650 0.24750 0.04200
H 	H 	0.04680 0.45780 0.09240 0.04000
H 	H 	0.13580 0.59100 0.99060 0.05200
H 	H 	0.45630 0.83790 0.55210 0.03500
H 	H 	0.42000 0.12530 0.61470 0.04600
H 	H 	0.27080 0.68130 0.34670 0.03000
H 	H 	0.13690 0.81350 0.25250 0.05100
H 	H 	0.09700 0.04220 0.40760 0.06300
H 	H 	0.21740 0.90900 0.50940 0.03200
H 	H 	0.34630 0.66210 0.94790 0.03300
H 	H 	0.66000 0.37470 0.88530 0.04500
C 	C 	0.96780 0.19554 0.00426 0.36100
C 	C 	0.02445 0.28174 0.93916 -0.07800
C 	C 	0.15290 0.25332 0.86068 -0.02900
C 	C 	0.20920 0.33292 0.80308 -0.00500
C 	C 	0.13492 0.44093 0.82063 -0.09700
C 	C 	0.00468 0.46954 0.89670 0.00500
C 	C 	0.95034 0.38965 0.95707 -0.03900
C 	C 	0.20073 0.52562 0.76032 0.38600
C 	C 	0.65990 0.04398 0.29342 0.34500
C 	C 	0.57555 0.02170 0.40020 -0.08500
C 	C 	0.52646 0.09687 0.46881 -0.02100
C 	C 	0.54822 0.92487 0.43129 -0.01600
C 	C 	0.66760 0.30446 0.49574 0.40000
C 	C 	0.74535 0.21826 0.56084 -0.12700
C 	C 	0.76690 0.24668 0.63932 0.00700
C 	C 	0.84520 0.16708 0.69692 -0.03800
C 	C 	0.89648 0.05907 0.67937 -0.06700
C 	C 	0.87092 0.03046 0.60330 -0.04700
C 	C 	0.79706 0.11035 0.54293 0.01500
C 	C 	0.98667 0.97438 0.73968 0.36700
C 	C 	0.49730 0.45602 0.20658 0.35600
C 	C 	0.49745 0.47830 0.09980 -0.08600
C 	C 	0.59214 0.40313 0.03119 -0.02200
C 	C 	0.40438 0.57513 0.06871 -0.01700
C 	C 	0.03220 0.80446 0.99574 0.36100
C 	C 	0.97555 0.71826 0.06084 -0.07800
C 	C 	0.84710 0.74668 0.13932 -0.02900
C 	C 	0.79080 0.66708 0.19692 -0.00500
C 	C 	0.86508 0.55907 0.17937 -0.09700
C 	C 	0.99532 0.53046 0.10330 0.00500
C 	C 	0.04966 0.61035 0.04293 -0.03900
C 	C 	0.79927 0.47438 0.23968 0.38600
C 	C 	0.34010 0.95602 0.70658 0.34500
C 	C 	0.42445 0.97830 0.59980 -0.08500
C 	C 	0.47354 0.90313 0.53119 -0.02100
C 	C 	0.45178 0.07513 0.56871 -0.01600
C 	C 	0.33240 0.69554 0.50426 0.40000
C 	C 	0.25465 0.78174 0.43916 -0.12700
C 	C 	0.23310 0.75332 0.36068 0.00700
C 	C 	0.15480 0.83292 0.30308 -0.03800
C 	C 	0.10352 0.94093 0.32063 -0.06700
C 	C 	0.12908 0.96954 0.39670 -0.04700
C 	C 	0.20294 0.88965 0.45707 0.01500
C 	C 	0.01333 0.02562 0.26032 0.36700
C 	C 	0.50270 0.54398 0.79342 0.35600
C 	C 	0.50255 0.52170 0.90020 -0.08600
C 	C 	0.40786 0.59687 0.96881 -0.02200
C 	C 	0.59562 0.42487 0.93129 -0.01700
O 	O 	0.01830 0.10116 0.97604 -0.54600
O 	O 	0.86766 0.21675 0.08633 -0.51900
O 	O 	0.13695 0.62165 0.78385 -0.44600
O 	O 	0.31762 0.49168 0.69208 -0.47100
O 	O 	0.67995 0.13353 0.26517 -0.50200
O 	O 	0.70920 0.97253 0.23427 -0.42000
O 	O 	0.59550 0.39884 0.52396 -0.56700
O 	O 	0.67074 0.28325 0.41367 -0.52700
O 	O 	0.04245 0.87835 0.71615 -0.44500
O 	O 	0.00138 0.00832 0.80792 -0.45600
O 	O 	0.57865 0.36647 0.23483 -0.50300
O 	O 	0.41600 0.52747 0.26573 -0.42800
O 	O 	0.98170 0.89884 0.02396 -0.54600
O 	O 	0.13234 0.78325 0.91367 -0.51900
O 	O 	0.86305 0.37835 0.21615 -0.44600
O 	O 	0.68238 0.50832 0.30792 -0.47100
O 	O 	0.32005 0.86647 0.73483 -0.50200
O 	O 	0.29080 0.02747 0.76573 -0.42000
O 	O 	0.40450 0.60116 0.47604 -0.56700
O 	O 	0.32926 0.71675 0.58633 -0.52700
O 	O 	0.95755 0.12165 0.28385 -0.44500
O 	O 	0.99862 0.99168 0.19208 -0.45600
O 	O 	0.42135 0.63353 0.76517 -0.50300
O 	O 	0.58400 0.47253 0.73427 -0.42800
