data_crystal

_cell_length_a 10.65700
_cell_length_b 13.53690
_cell_length_c 14.41730
_cell_angle_alpha 76.98160
_cell_angle_beta  68.30950
_cell_angle_gamma 66.81950

_symmetry_space_group_name_	'P 1'
_symmetry_space_group_name_H-M	'P 1'

loop_
_symmetry_equiv_pos_as_xyz
  x,y,z

loop_
_atom_site_label
_atom_site_type_symbol
_atom_site_fract_x
_atom_site_fract_y
_atom_site_fract_z
_atom_site_charge
Mn	Mn	0.35576 0.53916 0.60916 1.27200
Mn	Mn	0.00407 0.96085 0.89084 1.26500
Mn	Mn	0.64424 0.46085 0.39084 1.27200
Mn	Mn	0.99593 0.03915 0.10916 1.26500
Mn	Mn	0.28017 0.75000 0.75000 1.30700
Mn	Mn	0.71983 0.25000 0.25000 1.30700
H 	H 	0.70090 0.68200 0.34720 0.03200
H 	H 	0.79730 0.81350 0.25290 0.05200
H 	H 	0.45060 0.04240 0.40760 0.05500
H 	H 	0.36110 0.90960 0.50900 0.03700
H 	H 	0.04230 0.66270 0.94690 0.03400
H 	H 	0.08260 0.37340 0.88600 0.04600
H 	H 	0.23010 0.81800 0.15280 0.03800
H 	H 	0.36370 0.68650 0.24710 0.04800
H 	H 	0.40060 0.45760 0.09240 0.05500
H 	H 	0.27970 0.59040 0.99100 0.03500
H 	H 	0.15190 0.83730 0.55310 0.03600
H 	H 	0.84200 0.12660 0.61400 0.04700
H 	H 	0.29910 0.31800 0.65280 0.03200
H 	H 	0.20270 0.18650 0.74710 0.05200
H 	H 	0.54940 0.95760 0.59240 0.05500
H 	H 	0.63890 0.09040 0.49100 0.03700
H 	H 	0.95770 0.33730 0.05310 0.03400
H 	H 	0.91740 0.62660 0.11400 0.04600
H 	H 	0.76990 0.18200 0.84720 0.03800
H 	H 	0.63630 0.31350 0.75290 0.04800
H 	H 	0.59940 0.54240 0.90760 0.05500
H 	H 	0.72030 0.40960 0.00900 0.03500
H 	H 	0.84810 0.16270 0.44690 0.03600
H 	H 	0.15800 0.87340 0.38600 0.04700
C 	C 	0.46672 0.69564 0.50454 0.38700
C 	C 	0.52330 0.78198 0.43946 -0.11600
C 	C 	0.65258 0.75375 0.36101 0.00100
C 	C 	0.70924 0.83304 0.30330 -0.03600
C 	C 	0.63443 0.94170 0.32080 -0.06300
C 	C 	0.50233 0.97015 0.39697 -0.03400
C 	C 	0.44765 0.89045 0.45719 0.00400
C 	C 	0.70073 0.02582 0.26034 0.35300
C 	C 	0.15857 0.54382 0.79302 0.34000
C 	C 	0.07494 0.52165 0.89989 -0.07900
C 	C 	0.02539 0.59763 0.96817 -0.02700
C 	C 	0.04964 0.42400 0.93154 -0.01900
C 	C 	0.16690 0.80436 0.99546 0.35900
C 	C 	0.24474 0.71802 0.06054 -0.09800
C 	C 	0.26734 0.74625 0.13899 -0.01200
C 	C 	0.34558 0.66696 0.19670 -0.02500
C 	C 	0.39693 0.55830 0.17920 -0.07500
C 	C 	0.36945 0.52985 0.10303 -0.03200
C 	C 	0.29529 0.60955 0.04281 0.00200
C 	C 	0.48689 0.47418 0.23966 0.37000
C 	C 	0.99541 0.95618 0.70698 0.33800
C 	C 	0.99648 0.97835 0.60011 -0.07800
C 	C 	0.09119 0.90237 0.53183 -0.02500
C 	C 	0.90518 0.07600 0.56846 -0.02000
C 	C 	0.53328 0.30436 0.49546 0.38700
C 	C 	0.47670 0.21802 0.56054 -0.11600
C 	C 	0.34742 0.24625 0.63899 0.00100
C 	C 	0.29076 0.16696 0.69670 -0.03600
C 	C 	0.36557 0.05830 0.67920 -0.06300
C 	C 	0.49767 0.02985 0.60303 -0.03400
C 	C 	0.55235 0.10955 0.54281 0.00400
C 	C 	0.29927 0.97418 0.73966 0.35300
C 	C 	0.84143 0.45618 0.20698 0.34000
C 	C 	0.92506 0.47835 0.10011 -0.07900
C 	C 	0.97461 0.40237 0.03183 -0.02700
C 	C 	0.95036 0.57600 0.06846 -0.01900
C 	C 	0.83310 0.19564 0.00454 0.35900
C 	C 	0.75526 0.28198 0.93946 -0.09800
C 	C 	0.73266 0.25375 0.86101 -0.01200
C 	C 	0.65442 0.33304 0.80330 -0.02500
C 	C 	0.60307 0.44170 0.82080 -0.07500
C 	C 	0.63055 0.47015 0.89697 -0.03200
C 	C 	0.70471 0.39045 0.95719 0.00200
C 	C 	0.51311 0.52582 0.76034 0.37000
C 	C 	0.00459 0.04382 0.29302 0.33800
C 	C 	0.00352 0.02165 0.39989 -0.07800
C 	C 	0.90881 0.09763 0.46817 -0.02500
C 	C 	0.09482 0.92400 0.43154 -0.02000
O 	O 	0.51842 0.60141 0.47607 -0.56100
O 	O 	0.36594 0.71693 0.58661 -0.52100
O 	O 	0.63671 0.12183 0.28441 -0.43600
O 	O 	0.81754 0.99204 0.19192 -0.45700
O 	O 	0.17812 0.63382 0.76390 -0.49700
O 	O 	0.20829 0.47169 0.73403 -0.42100
O 	O 	0.09590 0.89859 0.02393 -0.54400
O 	O 	0.16948 0.78307 0.91339 -0.51700
O 	O 	0.54295 0.37817 0.21559 -0.43900
O 	O 	0.50150 0.50796 0.30808 -0.46600
O 	O 	0.07584 0.86618 0.73610 -0.49900
O 	O 	0.91401 0.02831 0.76597 -0.41600
O 	O 	0.48158 0.39859 0.52393 -0.56100
O 	O 	0.63406 0.28307 0.41339 -0.52100
O 	O 	0.36329 0.87817 0.71559 -0.43600
O 	O 	0.18246 0.00796 0.80808 -0.45700
O 	O 	0.82188 0.36618 0.23610 -0.49700
O 	O 	0.79171 0.52831 0.26597 -0.42100
O 	O 	0.90410 0.10141 0.97607 -0.54400
O 	O 	0.83052 0.21693 0.08661 -0.51700
O 	O 	0.45705 0.62183 0.78441 -0.43900
O 	O 	0.49850 0.49204 0.69192 -0.46600
O 	O 	0.92416 0.13382 0.26390 -0.49900
O 	O 	0.08599 0.97169 0.23403 -0.41600
