data_crystal

_cell_length_a 10.75310
_cell_length_b 13.50320
_cell_length_c 14.41020
_cell_angle_alpha 76.63770
_cell_angle_beta  68.09270
_cell_angle_gamma 66.53620

_symmetry_space_group_name_	'P 1'
_symmetry_space_group_name_H-M	'P 1'

loop_
_symmetry_equiv_pos_as_xyz
  x,y,z

loop_
_atom_site_label
_atom_site_type_symbol
_atom_site_fract_x
_atom_site_fract_y
_atom_site_fract_z
_atom_site_charge
Mn	Mn	0.85832 0.03879 0.11004 1.26700
Mn	Mn	0.50715 0.46121 0.38996 1.27300
Mn	Mn	0.14168 0.96121 0.88996 1.26700
Mn	Mn	0.49285 0.53879 0.61004 1.27300
Mn	Mn	0.78346 0.25000 0.25000 1.31000
Mn	Mn	0.21654 0.75000 0.75000 1.31000
H 	H 	0.20160 0.18080 0.84680 0.03700
H 	H 	0.29650 0.31300 0.75280 0.04600
H 	H 	0.95530 0.54120 0.90780 0.05000
H 	H 	0.86550 0.40830 0.00910 0.04000
H 	H 	0.54670 0.16080 0.44940 0.03500
H 	H 	0.57820 0.87680 0.38440 0.04600
H 	H 	0.72920 0.31920 0.65320 0.03000
H 	H 	0.86230 0.18700 0.74720 0.05200
H 	H 	0.90430 0.95880 0.59220 0.05600
H 	H 	0.78290 0.09170 0.49090 0.03500
H 	H 	0.65690 0.33920 0.05060 0.03400
H 	H 	0.33940 0.62320 0.11560 0.04600
H 	H 	0.79840 0.81920 0.15320 0.03700
H 	H 	0.70350 0.68700 0.24720 0.04600
H 	H 	0.04470 0.45880 0.09220 0.05000
H 	H 	0.13450 0.59170 0.99090 0.04000
H 	H 	0.45330 0.83920 0.55060 0.03500
H 	H 	0.42180 0.12320 0.61560 0.04600
H 	H 	0.27080 0.68080 0.34680 0.03000
H 	H 	0.13770 0.81300 0.25280 0.05200
H 	H 	0.09570 0.04120 0.40780 0.05600
H 	H 	0.21710 0.90830 0.50910 0.03500
H 	H 	0.34310 0.66080 0.94940 0.03400
H 	H 	0.66060 0.37680 0.88440 0.04600
C 	C 	0.96875 0.19517 0.00393 0.37400
C 	C 	0.02559 0.28098 0.93904 -0.10100
C 	C 	0.15341 0.25283 0.86075 -0.01300
C 	C 	0.20890 0.33248 0.80332 -0.01800
C 	C 	0.13534 0.44042 0.82050 -0.08500
C 	C 	0.00615 0.46864 0.89666 -0.01900
C 	C 	0.95139 0.38903 0.95699 -0.00900
C 	C 	0.20016 0.52513 0.75995 0.38300
C 	C 	0.66223 0.04425 0.29449 0.34700
C 	C 	0.57684 0.02183 0.40069 -0.08500
C 	C 	0.52839 0.09604 0.46978 -0.02100
C 	C 	0.54732 0.92614 0.43082 -0.01600
C 	C 	0.66785 0.30483 0.49607 0.39900
C 	C 	0.74561 0.21902 0.56096 -0.12500
C 	C 	0.76699 0.24717 0.63925 0.00500
C 	C 	0.84470 0.16752 0.69668 -0.03600
C 	C 	0.89626 0.05958 0.67950 -0.06700
C 	C 	0.87145 0.03136 0.60334 -0.03500
C 	C 	0.79741 0.11097 0.54301 0.00900
C 	C 	0.98524 0.97487 0.74005 0.36600
C 	C 	0.50097 0.45575 0.20551 0.35600
C 	C 	0.49936 0.47817 0.09931 -0.08500
C 	C 	0.59421 0.40396 0.03022 -0.02300
C 	C 	0.40428 0.57386 0.06918 -0.01600
C 	C 	0.03125 0.80483 0.99607 0.37400
C 	C 	0.97441 0.71902 0.06096 -0.10100
C 	C 	0.84659 0.74717 0.13925 -0.01300
C 	C 	0.79110 0.66752 0.19668 -0.01800
C 	C 	0.86466 0.55958 0.17950 -0.08500
C 	C 	0.99385 0.53136 0.10334 -0.01900
C 	C 	0.04861 0.61097 0.04301 -0.00900
C 	C 	0.79984 0.47487 0.24005 0.38300
C 	C 	0.33777 0.95575 0.70551 0.34700
C 	C 	0.42316 0.97817 0.59931 -0.08500
C 	C 	0.47161 0.90396 0.53022 -0.02100
C 	C 	0.45268 0.07386 0.56918 -0.01600
C 	C 	0.33215 0.69517 0.50393 0.39900
C 	C 	0.25439 0.78098 0.43904 -0.12500
C 	C 	0.23301 0.75283 0.36075 0.00500
C 	C 	0.15530 0.83248 0.30332 -0.03600
C 	C 	0.10374 0.94042 0.32050 -0.06700
C 	C 	0.12855 0.96864 0.39666 -0.03500
C 	C 	0.20259 0.88903 0.45699 0.00900
C 	C 	0.01476 0.02513 0.25995 0.36600
C 	C 	0.49903 0.54425 0.79449 0.35600
C 	C 	0.50064 0.52183 0.90069 -0.08500
C 	C 	0.40579 0.59604 0.96978 -0.02300
C 	C 	0.59572 0.42614 0.93082 -0.01600
O 	O 	0.01821 0.10117 0.97581 -0.55200
O 	O 	0.86954 0.21632 0.08628 -0.52000
O 	O 	0.13668 0.62112 0.78312 -0.44600
O 	O 	0.31611 0.49145 0.69173 -0.47100
O 	O 	0.68243 0.13353 0.26661 -0.50200
O 	O 	0.71172 0.97275 0.23541 -0.42200
O 	O 	0.59519 0.39883 0.52419 -0.56700
O 	O 	0.67214 0.28368 0.41372 -0.52500
O 	O 	0.04092 0.87888 0.71688 -0.44300
O 	O 	0.99929 0.00855 0.80827 -0.46200
O 	O 	0.58257 0.36647 0.23339 -0.50300
O 	O 	0.41988 0.52725 0.26459 -0.42900
O 	O 	0.98179 0.89883 0.02419 -0.55200
O 	O 	0.13046 0.78368 0.91372 -0.52000
O 	O 	0.86332 0.37888 0.21688 -0.44600
O 	O 	0.68389 0.50855 0.30827 -0.47100
O 	O 	0.31757 0.86647 0.73339 -0.50200
O 	O 	0.28828 0.02725 0.76459 -0.42200
O 	O 	0.40481 0.60117 0.47581 -0.56700
O 	O 	0.32786 0.71632 0.58628 -0.52500
O 	O 	0.95908 0.12112 0.28312 -0.44300
O 	O 	0.00071 0.99145 0.19173 -0.46200
O 	O 	0.41743 0.63353 0.76661 -0.50300
O 	O 	0.58012 0.47275 0.73541 -0.42900
