data_crystal

_cell_length_a 10.72800
_cell_length_b 13.50010
_cell_length_c 14.39970
_cell_angle_alpha 76.70420
_cell_angle_beta  68.12970
_cell_angle_gamma 66.58870

_symmetry_space_group_name_	'P 1'
_symmetry_space_group_name_H-M	'P 1'

loop_
_symmetry_equiv_pos_as_xyz
  x,y,z

loop_
_atom_site_label
_atom_site_type_symbol
_atom_site_fract_x
_atom_site_fract_y
_atom_site_fract_z
_atom_site_charge
Mn	Mn	0.85768 0.03897 0.10975 1.26400
Mn	Mn	0.50640 0.46103 0.39025 1.27200
Mn	Mn	0.14232 0.96103 0.89025 1.26400
Mn	Mn	0.49360 0.53897 0.60975 1.27200
Mn	Mn	0.78271 0.25000 0.25000 1.31000
Mn	Mn	0.21729 0.75000 0.75000 1.31000
H 	H 	0.20120 0.18130 0.84690 0.04300
H 	H 	0.29700 0.31310 0.75270 0.04200
H 	H 	0.95450 0.54150 0.90810 0.04100
H 	H 	0.86530 0.40850 0.00910 0.05200
H 	H 	0.54650 0.16110 0.44870 0.03500
H 	H 	0.57910 0.87610 0.38470 0.04600
H 	H 	0.72940 0.31870 0.65310 0.02900
H 	H 	0.86280 0.18690 0.74730 0.05200
H 	H 	0.90410 0.95850 0.59190 0.06300
H 	H 	0.78290 0.09150 0.49090 0.03200
H 	H 	0.65630 0.33890 0.05130 0.03300
H 	H 	0.33990 0.62390 0.11530 0.04600
H 	H 	0.79880 0.81870 0.15310 0.04300
H 	H 	0.70300 0.68690 0.24730 0.04200
H 	H 	0.04550 0.45850 0.09190 0.04100
H 	H 	0.13470 0.59150 0.99090 0.05200
H 	H 	0.45350 0.83890 0.55130 0.03500
H 	H 	0.42090 0.12390 0.61530 0.04600
H 	H 	0.27060 0.68130 0.34690 0.02900
H 	H 	0.13720 0.81310 0.25270 0.05200
H 	H 	0.09590 0.04150 0.40810 0.06300
H 	H 	0.21710 0.90850 0.50910 0.03200
H 	H 	0.34370 0.66110 0.94870 0.03300
H 	H 	0.66010 0.37610 0.88470 0.04600
C 	C 	0.96833 0.19530 0.00404 0.36200
C 	C 	0.02512 0.28128 0.93908 -0.07900
C 	C 	0.15303 0.25333 0.86081 -0.02700
C 	C 	0.20934 0.33262 0.80310 -0.00600
C 	C 	0.13515 0.44062 0.82048 -0.09600
C 	C 	0.00547 0.46899 0.89687 0.00400
C 	C 	0.95121 0.38926 0.95692 -0.03800
C 	C 	0.20063 0.52535 0.76019 0.38600
C 	C 	0.66110 0.04429 0.29411 0.34500
C 	C 	0.57621 0.02209 0.40049 -0.08600
C 	C 	0.52810 0.09634 0.46926 -0.02100
C 	C 	0.54765 0.92574 0.43096 -0.01600
C 	C 	0.66767 0.30470 0.49596 0.40100
C 	C 	0.74548 0.21872 0.56092 -0.12900
C 	C 	0.76717 0.24667 0.63919 0.00900
C 	C 	0.84506 0.16738 0.69690 -0.03900
C 	C 	0.89625 0.05938 0.67952 -0.06600
C 	C 	0.87133 0.03101 0.60313 -0.04800
C 	C 	0.79739 0.11074 0.54308 0.01600
C 	C 	0.98617 0.97465 0.73981 0.36800
C 	C 	0.49950 0.45571 0.20589 0.35600
C 	C 	0.49879 0.47791 0.09951 -0.08600
C 	C 	0.59370 0.40366 0.03074 -0.02200
C 	C 	0.40435 0.57426 0.06904 -0.01700
C 	C 	0.03167 0.80470 0.99596 0.36200
C 	C 	0.97488 0.71872 0.06092 -0.07900
C 	C 	0.84697 0.74667 0.13919 -0.02700
C 	C 	0.79066 0.66738 0.19690 -0.00600
C 	C 	0.86485 0.55938 0.17952 -0.09600
C 	C 	0.99453 0.53101 0.10313 0.00400
C 	C 	0.04879 0.61074 0.04308 -0.03800
C 	C 	0.79937 0.47465 0.23981 0.38600
C 	C 	0.33890 0.95571 0.70589 0.34500
C 	C 	0.42379 0.97791 0.59951 -0.08600
C 	C 	0.47190 0.90366 0.53074 -0.02100
C 	C 	0.45235 0.07426 0.56904 -0.01600
C 	C 	0.33233 0.69530 0.50404 0.40100
C 	C 	0.25452 0.78128 0.43908 -0.12900
C 	C 	0.23283 0.75333 0.36081 0.00900
C 	C 	0.15494 0.83262 0.30310 -0.03900
C 	C 	0.10375 0.94062 0.32048 -0.06600
C 	C 	0.12867 0.96899 0.39687 -0.04800
C 	C 	0.20261 0.88926 0.45692 0.01600
C 	C 	0.01383 0.02535 0.26019 0.36800
C 	C 	0.50050 0.54429 0.79411 0.35600
C 	C 	0.50121 0.52209 0.90049 -0.08600
C 	C 	0.40630 0.59634 0.96926 -0.02200
C 	C 	0.59565 0.42574 0.93096 -0.01700
O 	O 	0.01825 0.10115 0.97595 -0.54600
O 	O 	0.86896 0.21641 0.08627 -0.51900
O 	O 	0.13683 0.62127 0.78347 -0.44700
O 	O 	0.31690 0.49152 0.69188 -0.47100
O 	O 	0.68150 0.13357 0.26603 -0.50100
O 	O 	0.71063 0.97284 0.23490 -0.42000
O 	O 	0.59535 0.39885 0.52405 -0.56700
O 	O 	0.67164 0.28359 0.41373 -0.52600
O 	O 	0.04157 0.87873 0.71653 -0.44600
O 	O 	0.00030 0.00848 0.80812 -0.45600
O 	O 	0.58110 0.36643 0.23397 -0.50300
O 	O 	0.41837 0.52716 0.26510 -0.42900
O 	O 	0.98175 0.89885 0.02405 -0.54600
O 	O 	0.13104 0.78359 0.91373 -0.51900
O 	O 	0.86317 0.37873 0.21653 -0.44700
O 	O 	0.68310 0.50848 0.30812 -0.47100
O 	O 	0.31850 0.86643 0.73397 -0.50100
O 	O 	0.28937 0.02716 0.76510 -0.42000
O 	O 	0.40465 0.60115 0.47595 -0.56700
O 	O 	0.32836 0.71641 0.58627 -0.52600
O 	O 	0.95843 0.12127 0.28347 -0.44600
O 	O 	0.99970 0.99152 0.19188 -0.45600
O 	O 	0.41890 0.63357 0.76603 -0.50300
O 	O 	0.58163 0.47284 0.73490 -0.42900
