data_crystal

_cell_length_a 10.85420
_cell_length_b 13.50210
_cell_length_c 14.45120
_cell_angle_alpha 76.37670
_cell_angle_beta  67.94200
_cell_angle_gamma 66.30030

_symmetry_space_group_name_	'P 1'
_symmetry_space_group_name_H-M	'P 1'

loop_
_symmetry_equiv_pos_as_xyz
  x,y,z

loop_
_atom_site_label
_atom_site_type_symbol
_atom_site_fract_x
_atom_site_fract_y
_atom_site_fract_z
_atom_site_charge
Mn	Mn	0.86098 0.03794 0.11138 1.26800
Mn	Mn	0.51030 0.46206 0.38862 1.27400
Mn	Mn	0.13902 0.96206 0.88862 1.26700
Mn	Mn	0.48970 0.53794 0.61138 1.27300
Mn	Mn	0.78621 0.25000 0.25000 1.31000
Mn	Mn	0.21379 0.75000 0.75000 1.31000
H 	H 	0.20140 0.18010 0.84830 0.03500
H 	H 	0.29500 0.31220 0.75320 0.04600
H 	H 	0.95590 0.54080 0.90740 0.05000
H 	H 	0.86830 0.40780 0.00880 0.03900
H 	H 	0.55070 0.15900 0.45160 0.03500
H 	H 	0.57850 0.87820 0.38380 0.04600
H 	H 	0.72980 0.31990 0.65170 0.02700
H 	H 	0.86040 0.18780 0.74680 0.05300
H 	H 	0.90410 0.95920 0.59260 0.05600
H 	H 	0.78490 0.09220 0.49120 0.03300
H 	H 	0.66130 0.34100 0.04840 0.03500
H 	H 	0.34050 0.62180 0.11620 0.04500
H 	H 	0.79860 0.81990 0.15170 0.03500
H 	H 	0.70500 0.68780 0.24680 0.04600
H 	H 	0.04410 0.45920 0.09260 0.05000
H 	H 	0.13170 0.59220 0.99120 0.03900
H 	H 	0.44930 0.84100 0.54840 0.03500
H 	H 	0.42150 0.12180 0.61620 0.04600
H 	H 	0.27020 0.68010 0.34830 0.02700
H 	H 	0.13960 0.81220 0.25320 0.05300
H 	H 	0.09590 0.04080 0.40740 0.05600
H 	H 	0.21510 0.90780 0.50880 0.03300
H 	H 	0.33870 0.65900 0.95160 0.03500
H 	H 	0.65950 0.37820 0.88380 0.04500
C 	C 	0.96936 0.19480 0.00396 0.38000
C 	C 	0.02615 0.28071 0.93919 -0.10400
C 	C 	0.15316 0.25229 0.86159 -0.01100
C 	C 	0.20821 0.33181 0.80377 -0.01800
C 	C 	0.13535 0.43995 0.82055 -0.08700
C 	C 	0.00680 0.46812 0.89648 -0.01900
C 	C 	0.95334 0.38845 0.95667 -0.00800
C 	C 	0.19895 0.52467 0.75943 0.38900
C 	C 	0.66597 0.04414 0.29632 0.35200
C 	C 	0.57851 0.02161 0.40177 -0.08600
C 	C 	0.53068 0.09500 0.47104 -0.02200
C 	C 	0.54732 0.92709 0.43047 -0.01600
C 	C 	0.66812 0.30520 0.49604 0.40600
C 	C 	0.74605 0.21929 0.56081 -0.12900
C 	C 	0.76704 0.24771 0.63841 0.00900
C 	C 	0.84379 0.16819 0.69623 -0.03700
C 	C 	0.89585 0.06005 0.67945 -0.06800
C 	C 	0.87140 0.03188 0.60352 -0.03700
C 	C 	0.79846 0.11155 0.54333 0.01200
C 	C 	0.98305 0.97533 0.74057 0.37200
C 	C 	0.50643 0.45586 0.20368 0.36100
C 	C 	0.50189 0.47839 0.09823 -0.08600
C 	C 	0.59672 0.40500 0.02896 -0.02300
C 	C 	0.40488 0.57291 0.06953 -0.01500
C 	C 	0.03064 0.80520 0.99604 0.38000
C 	C 	0.97385 0.71929 0.06081 -0.10400
C 	C 	0.84684 0.74771 0.13841 -0.01100
C 	C 	0.79179 0.66819 0.19623 -0.01800
C 	C 	0.86465 0.56005 0.17945 -0.08700
C 	C 	0.99320 0.53188 0.10352 -0.01900
C 	C 	0.04666 0.61155 0.04333 -0.00800
C 	C 	0.80105 0.47533 0.24057 0.38900
C 	C 	0.33403 0.95586 0.70368 0.35200
C 	C 	0.42149 0.97839 0.59823 -0.08600
C 	C 	0.46932 0.90500 0.52896 -0.02200
C 	C 	0.45268 0.07291 0.56953 -0.01600
C 	C 	0.33188 0.69480 0.50396 0.40600
C 	C 	0.25395 0.78071 0.43919 -0.12900
C 	C 	0.23296 0.75229 0.36159 0.00900
C 	C 	0.15621 0.83181 0.30377 -0.03700
C 	C 	0.10415 0.93995 0.32055 -0.06800
C 	C 	0.12860 0.96812 0.39648 -0.03700
C 	C 	0.20154 0.88845 0.45667 0.01200
C 	C 	0.01695 0.02467 0.25943 0.37200
C 	C 	0.49357 0.54414 0.79632 0.36100
C 	C 	0.49811 0.52161 0.90177 -0.08600
C 	C 	0.40328 0.59500 0.97104 -0.02300
C 	C 	0.59512 0.42709 0.93047 -0.01500
O 	O 	0.01753 0.10138 0.97542 -0.55400
O 	O 	0.87180 0.21568 0.08626 -0.52200
O 	O 	0.13590 0.62048 0.78248 -0.44900
O 	O 	0.31349 0.49099 0.69123 -0.47200
O 	O 	0.68626 0.13311 0.26891 -0.50300
O 	O 	0.71706 0.97227 0.23761 -0.42500
O 	O 	0.59433 0.39862 0.52458 -0.56900
O 	O 	0.67374 0.28432 0.41374 -0.52700
O 	O 	0.03886 0.87952 0.71752 -0.44600
O 	O 	0.99571 0.00901 0.80877 -0.46300
O 	O 	0.58828 0.36689 0.23109 -0.50400
O 	O 	0.42694 0.52773 0.26239 -0.43200
O 	O 	0.98247 0.89862 0.02458 -0.55400
O 	O 	0.12820 0.78432 0.91374 -0.52200
O 	O 	0.86410 0.37952 0.21752 -0.44900
O 	O 	0.68651 0.50901 0.30877 -0.47200
O 	O 	0.31374 0.86689 0.73109 -0.50300
O 	O 	0.28294 0.02773 0.76239 -0.42500
O 	O 	0.40567 0.60138 0.47542 -0.56900
O 	O 	0.32626 0.71568 0.58626 -0.52700
O 	O 	0.96114 0.12048 0.28248 -0.44600
O 	O 	0.00429 0.99099 0.19123 -0.46300
O 	O 	0.41172 0.63311 0.76891 -0.50400
O 	O 	0.57306 0.47227 0.73761 -0.43200
