data_crystal

_cell_length_a 10.27920
_cell_length_b 10.27920
_cell_length_c 14.53760
_cell_angle_alpha 90.00000
_cell_angle_beta  90.00000
_cell_angle_gamma 90.00000

_symmetry_space_group_name_	'P 1'
_symmetry_space_group_name_H-M	'P 1'

loop_
_symmetry_equiv_pos_as_xyz
  x,y,z

loop_
_atom_site_label
_atom_site_type_symbol
_atom_site_fract_x
_atom_site_fract_y
_atom_site_fract_z
_atom_site_charge
Tb	Tb	0.85129 0.85129 0.37500 2.13200
Tb	Tb	0.14871 0.14871 0.87500 2.03900
Tb	Tb	0.14871 0.85129 0.62500 2.07600
Tb	Tb	0.85129 0.14871 0.12500 2.04700
H 	H 	0.92670 0.43580 0.37170 -0.06200
H 	H 	0.07330 0.56420 0.87170 -0.05400
H 	H 	0.56420 0.92670 0.62170 -0.05400
H 	H 	0.43580 0.07330 0.12170 -0.06100
H 	H 	0.07330 0.43580 0.62830 -0.05600
H 	H 	0.92670 0.56420 0.12830 -0.05500
H 	H 	0.43580 0.92670 0.37830 -0.06200
H 	H 	0.56420 0.07330 0.87830 -0.04400
H 	H 	0.00000 0.10100 0.50000 -0.08000
H 	H 	-0.00000 0.89900 -0.00000 -0.05000
H 	H 	0.89900 0.00000 0.75000 -0.05000
H 	H 	0.10100 0.00000 0.25000 -0.07900
C 	C 	0.95950 0.39490 0.42310 0.30100
C 	C 	0.95900 0.26100 0.42330 -0.31100
C 	C 	0.91430 0.18550 0.34020 0.57500
C 	C 	0.04050 0.60510 0.92310 0.26900
C 	C 	0.04100 0.73900 0.92330 -0.29600
C 	C 	0.08570 0.81450 0.84020 0.55800
C 	C 	0.60510 0.95950 0.67310 0.28400
C 	C 	0.73900 0.95900 0.67330 -0.28500
C 	C 	0.81450 0.91430 0.59020 0.56500
C 	C 	0.39490 0.04050 0.17310 0.26600
C 	C 	0.26100 0.04100 0.17330 -0.34100
C 	C 	0.18550 0.08570 0.09020 0.57200
C 	C 	0.04050 0.39490 0.57690 0.26500
C 	C 	0.04100 0.26100 0.57670 -0.33900
C 	C 	0.08570 0.18550 0.65980 0.57100
C 	C 	0.95950 0.60510 0.07690 0.28000
C 	C 	0.95900 0.73900 0.07670 -0.28700
C 	C 	0.91430 0.81450 0.15980 0.56200
C 	C 	0.39490 0.95950 0.32690 0.30100
C 	C 	0.26100 0.95900 0.32670 -0.31200
C 	C 	0.18550 0.91430 0.40980 0.57600
C 	C 	0.60510 0.04050 0.82690 0.24700
C 	C 	0.73900 0.04100 0.82670 -0.30800
C 	C 	0.81450 0.08570 0.90980 0.55800
C 	C 	-0.00000 0.46100 0.50000 -0.36700
C 	C 	0.00000 0.19400 0.50000 0.22300
C 	C 	0.00000 0.60900 0.50000 0.54700
C 	C 	-0.00000 0.53900 -0.00000 -0.36600
C 	C 	-0.00000 0.80600 -0.00000 0.18400
C 	C 	-0.00000 0.39100 -0.00000 0.52000
C 	C 	0.53900 0.00000 0.75000 -0.34800
C 	C 	0.80600 0.00000 0.75000 0.20500
C 	C 	0.39100 0.00000 0.75000 0.53700
C 	C 	0.46100 0.00000 0.25000 -0.36900
C 	C 	0.19400 0.00000 0.25000 0.22400
C 	C 	0.60900 0.00000 0.25000 0.54600
O 	O 	0.92910 0.66470 0.44180 -0.54800
O 	O 	0.88940 0.06910 0.34790 -0.59000
O 	O 	0.75620 0.90810 0.51470 -0.54500
O 	O 	0.07090 0.33530 0.94180 -0.54700
O 	O 	0.11060 0.93090 0.84790 -0.55200
O 	O 	0.24380 0.09190 0.01470 -0.56900
O 	O 	0.33530 0.92910 0.69180 -0.53800
O 	O 	0.93090 0.88940 0.59790 -0.54300
O 	O 	0.09190 0.75620 0.76470 -0.55100
O 	O 	0.66470 0.07090 0.19180 -0.57400
O 	O 	0.06910 0.11060 0.09790 -0.60100
O 	O 	0.90810 0.24380 0.26470 -0.54700
O 	O 	0.07090 0.66470 0.55820 -0.57300
O 	O 	0.11060 0.06910 0.65210 -0.60100
O 	O 	0.24380 0.90810 0.48530 -0.54900
O 	O 	0.92910 0.33530 0.05820 -0.54100
O 	O 	0.88940 0.93090 0.15210 -0.54400
O 	O 	0.75620 0.09190 0.98530 -0.53300
O 	O 	0.66470 0.92910 0.30820 -0.54800
O 	O 	0.06910 0.88940 0.40210 -0.59000
O 	O 	0.90810 0.75620 0.23530 -0.54500
O 	O 	0.33530 0.07090 0.80820 -0.56200
O 	O 	0.93090 0.11060 0.90210 -0.54600
O 	O 	0.09190 0.24380 0.73530 -0.55700
