data_crystal

_cell_length_a 24.42700
_cell_length_b 24.42700
_cell_length_c 24.42700
_cell_angle_alpha 90.00000
_cell_angle_beta  90.00000
_cell_angle_gamma 90.00000

_symmetry_space_group_name_	'P 1'
_symmetry_space_group_name_H-M	'P 1'

loop_
_symmetry_equiv_pos_as_xyz
  x,y,z

loop_
_atom_site_label
_atom_site_type_symbol
_atom_site_fract_x
_atom_site_fract_y
_atom_site_fract_z
_atom_site_charge
Cu	Cu	0.05912 0.21592 0.38543 0.92300
Cu	Cu	0.14849 0.20257 0.48689 0.92400
O 	O 	0.83018 0.05669 0.37102 -0.42500
O 	O 	0.07903 0.18629 0.45479 -0.40100
O 	O 	0.98236 0.19405 0.39290 -0.41000
O 	O 	0.71072 0.25755 0.48015 -0.40200
O 	O 	0.76742 0.32553 0.45656 -0.40400
O 	O 	0.96143 0.27640 0.42640 -0.26100
O 	O 	0.75250 0.07340 0.41220 -0.28100
N 	N 	0.13800 0.22640 0.37199 -0.18900
N 	N 	0.17311 0.22340 0.41436 -0.19400
C 	C 	0.16700 0.23160 0.32590 0.08800
H 	H 	0.15230 0.23490 0.29090 0.00300
C 	C 	0.22400 0.22660 0.39410 0.08900
H 	H 	0.25590 0.22580 0.41490 0.01100
C 	C 	0.88960 0.21210 0.41740 -0.10500
C 	C 	0.22210 0.23140 0.33810 -0.14100
H 	H 	0.25130 0.23390 0.31380 0.08500
C 	C 	0.75510 0.27610 0.46150 0.36700
C 	C 	0.79810 0.08800 0.39830 0.35400
C 	C 	0.81900 0.14350 0.41260 -0.11800
C 	C 	0.79710 0.23460 0.44350 -0.11400
C 	C 	0.94850 0.22960 0.41170 0.33200
C 	C 	0.87280 0.15850 0.40520 0.05600
H 	H 	0.89810 0.13320 0.39210 0.02700
C 	C 	0.85090 0.24980 0.43600 0.05100
H 	H 	0.86160 0.28560 0.44340 0.05000
C 	C 	0.78090 0.18120 0.43230 0.05300
H 	H 	0.74480 0.17060 0.43810 0.04800
Cu	Cu	0.44088 0.78408 0.88543 0.92200
Cu	Cu	0.35151 0.79743 0.98689 0.92300
O 	O 	0.66982 0.94331 0.87102 -0.42500
O 	O 	0.42097 0.81371 0.95479 -0.40200
O 	O 	0.51764 0.80595 0.89290 -0.41100
O 	O 	0.78928 0.74245 0.98015 -0.40200
O 	O 	0.73258 0.67447 0.95656 -0.40500
O 	O 	0.53857 0.72360 0.92640 -0.26100
O 	O 	0.74750 0.92660 0.91220 -0.28200
N 	N 	0.36200 0.77360 0.87199 -0.19000
N 	N 	0.32689 0.77660 0.91436 -0.19500
C 	C 	0.33300 0.76840 0.82590 0.08700
H 	H 	0.34770 0.76510 0.79090 0.00200
C 	C 	0.27600 0.77340 0.89410 0.08800
H 	H 	0.24410 0.77420 0.91490 0.01000
C 	C 	0.61040 0.78790 0.91740 -0.10600
C 	C 	0.27790 0.76860 0.83810 -0.14200
H 	H 	0.24870 0.76610 0.81380 0.08400
C 	C 	0.74490 0.72390 0.96150 0.36700
C 	C 	0.70190 0.91200 0.89830 0.35400
C 	C 	0.68100 0.85650 0.91260 -0.11700
C 	C 	0.70290 0.76540 0.94350 -0.11400
C 	C 	0.55150 0.77040 0.91170 0.33200
C 	C 	0.62720 0.84150 0.90520 0.05600
H 	H 	0.60190 0.86680 0.89210 0.02700
C 	C 	0.64910 0.75020 0.93600 0.05100
H 	H 	0.63840 0.71440 0.94340 0.05000
C 	C 	0.71910 0.81880 0.93230 0.05300
H 	H 	0.75520 0.82940 0.93810 0.04800
Cu	Cu	0.94088 0.71592 0.11457 0.92200
Cu	Cu	0.85151 0.70257 0.01311 0.92200
O 	O 	0.16982 0.55669 0.12898 -0.42600
O 	O 	0.92097 0.68629 0.04521 -0.40200
O 	O 	0.01764 0.69405 0.10710 -0.41100
O 	O 	0.28928 0.75755 0.01985 -0.40300
O 	O 	0.23258 0.82553 0.04344 -0.40500
O 	O 	0.03857 0.77640 0.07360 -0.26100
O 	O 	0.24750 0.57340 0.08780 -0.28200
N 	N 	0.86200 0.72640 0.12801 -0.19000
N 	N 	0.82689 0.72340 0.08564 -0.19500
C 	C 	0.83300 0.73160 0.17410 0.08700
H 	H 	0.84770 0.73490 0.20910 0.00200
C 	C 	0.77600 0.72660 0.10590 0.08800
H 	H 	0.74410 0.72580 0.08510 0.01000
C 	C 	0.11040 0.71210 0.08260 -0.10600
C 	C 	0.77790 0.73140 0.16190 -0.14200
H 	H 	0.74870 0.73390 0.18620 0.08400
C 	C 	0.24490 0.77610 0.03850 0.36700
C 	C 	0.20190 0.58800 0.10170 0.35400
C 	C 	0.18100 0.64350 0.08740 -0.11800
C 	C 	0.20290 0.73460 0.05650 -0.11400
C 	C 	0.05150 0.72960 0.08830 0.33200
C 	C 	0.12720 0.65850 0.09480 0.05600
H 	H 	0.10190 0.63320 0.10790 0.02700
C 	C 	0.14910 0.74980 0.06400 0.05100
H 	H 	0.13840 0.78560 0.05660 0.05000
C 	C 	0.21910 0.68120 0.06770 0.05300
H 	H 	0.25520 0.67060 0.06190 0.04800
Cu	Cu	0.55912 0.28408 0.61457 0.92200
Cu	Cu	0.64849 0.29743 0.51311 0.92300
O 	O 	0.33018 0.44331 0.62898 -0.42600
O 	O 	0.57903 0.31371 0.54521 -0.40200
O 	O 	0.48236 0.30595 0.60710 -0.41100
O 	O 	0.21072 0.24245 0.51985 -0.40300
O 	O 	0.26742 0.17447 0.54344 -0.40500
O 	O 	0.46143 0.22360 0.57360 -0.26100
O 	O 	0.25250 0.42660 0.58780 -0.28200
N 	N 	0.63800 0.27360 0.62801 -0.19000
N 	N 	0.67311 0.27660 0.58564 -0.19500
C 	C 	0.66700 0.26840 0.67410 0.08700
H 	H 	0.65230 0.26510 0.70910 0.00200
C 	C 	0.72400 0.27340 0.60590 0.08800
H 	H 	0.75590 0.27420 0.58510 0.01000
C 	C 	0.38960 0.28790 0.58260 -0.10600
C 	C 	0.72210 0.26860 0.66190 -0.14200
H 	H 	0.75130 0.26610 0.68620 0.08400
C 	C 	0.25510 0.22390 0.53850 0.36700
C 	C 	0.29810 0.41200 0.60170 0.35400
C 	C 	0.31900 0.35650 0.58740 -0.11800
C 	C 	0.29710 0.26540 0.55650 -0.11400
C 	C 	0.44850 0.27040 0.58830 0.33200
C 	C 	0.37280 0.34150 0.59480 0.05600
H 	H 	0.39810 0.36680 0.60790 0.02700
C 	C 	0.35090 0.25020 0.56400 0.05100
H 	H 	0.36160 0.21440 0.55660 0.05000
C 	C 	0.28090 0.31880 0.56770 0.05300
H 	H 	0.24480 0.32940 0.56190 0.04800
Cu	Cu	0.38543 0.05912 0.21592 0.92200
Cu	Cu	0.48689 0.14849 0.20257 0.92300
O 	O 	0.37102 0.83018 0.05669 -0.42600
O 	O 	0.45479 0.07903 0.18629 -0.40200
O 	O 	0.39290 0.98236 0.19405 -0.41100
O 	O 	0.48015 0.71072 0.25755 -0.40300
O 	O 	0.45656 0.76742 0.32553 -0.40500
O 	O 	0.42640 0.96143 0.27640 -0.26200
O 	O 	0.41220 0.75250 0.07340 -0.28200
N 	N 	0.37199 0.13800 0.22640 -0.19000
N 	N 	0.41436 0.17311 0.22340 -0.19500
C 	C 	0.32590 0.16700 0.23160 0.08700
H 	H 	0.29090 0.15230 0.23490 0.00200
C 	C 	0.39410 0.22400 0.22660 0.08800
H 	H 	0.41490 0.25590 0.22580 0.01000
C 	C 	0.41740 0.88960 0.21210 -0.10600
C 	C 	0.33810 0.22210 0.23140 -0.14200
H 	H 	0.31380 0.25130 0.23390 0.08400
C 	C 	0.46150 0.75510 0.27610 0.36700
C 	C 	0.39830 0.79810 0.08800 0.35400
C 	C 	0.41260 0.81900 0.14350 -0.11800
C 	C 	0.44350 0.79710 0.23460 -0.11400
C 	C 	0.41170 0.94850 0.22960 0.33200
C 	C 	0.40520 0.87280 0.15850 0.05600
H 	H 	0.39210 0.89810 0.13320 0.02700
C 	C 	0.43600 0.85090 0.24980 0.05100
H 	H 	0.44340 0.86160 0.28560 0.05000
C 	C 	0.43230 0.78090 0.18120 0.05300
H 	H 	0.43810 0.74480 0.17060 0.04800
Cu	Cu	0.88543 0.44088 0.78408 0.92200
Cu	Cu	0.98689 0.35151 0.79743 0.92300
O 	O 	0.87102 0.66982 0.94331 -0.42500
O 	O 	0.95479 0.42097 0.81371 -0.40200
O 	O 	0.89290 0.51764 0.80595 -0.41100
O 	O 	0.98015 0.78928 0.74245 -0.40200
O 	O 	0.95656 0.73258 0.67447 -0.40500
O 	O 	0.92640 0.53857 0.72360 -0.26100
O 	O 	0.91220 0.74750 0.92660 -0.28200
N 	N 	0.87199 0.36200 0.77360 -0.19000
N 	N 	0.91436 0.32689 0.77660 -0.19500
C 	C 	0.82590 0.33300 0.76840 0.08700
H 	H 	0.79090 0.34770 0.76510 0.00200
C 	C 	0.89410 0.27600 0.77340 0.08800
H 	H 	0.91490 0.24410 0.77420 0.01000
C 	C 	0.91740 0.61040 0.78790 -0.10600
C 	C 	0.83810 0.27790 0.76860 -0.14200
H 	H 	0.81380 0.24870 0.76610 0.08400
C 	C 	0.96150 0.74490 0.72390 0.36700
C 	C 	0.89830 0.70190 0.91200 0.35400
C 	C 	0.91260 0.68100 0.85650 -0.11700
C 	C 	0.94350 0.70290 0.76540 -0.11400
C 	C 	0.91170 0.55150 0.77040 0.33200
C 	C 	0.90520 0.62720 0.84150 0.05600
H 	H 	0.89210 0.60190 0.86680 0.02700
C 	C 	0.93600 0.64910 0.75020 0.05100
H 	H 	0.94340 0.63840 0.71440 0.05000
C 	C 	0.93230 0.71910 0.81880 0.05300
H 	H 	0.93810 0.75520 0.82940 0.04800
Cu	Cu	0.11457 0.94088 0.71592 0.92200
Cu	Cu	0.01311 0.85151 0.70257 0.92200
O 	O 	0.12898 0.16982 0.55669 -0.42600
O 	O 	0.04521 0.92097 0.68629 -0.40200
O 	O 	0.10710 0.01764 0.69405 -0.41100
O 	O 	0.01985 0.28928 0.75755 -0.40300
O 	O 	0.04344 0.23258 0.82553 -0.40500
O 	O 	0.07360 0.03857 0.77640 -0.26100
O 	O 	0.08780 0.24750 0.57340 -0.28200
N 	N 	0.12801 0.86200 0.72640 -0.19000
N 	N 	0.08564 0.82689 0.72340 -0.19500
C 	C 	0.17410 0.83300 0.73160 0.08700
H 	H 	0.20910 0.84770 0.73490 0.00200
C 	C 	0.10590 0.77600 0.72660 0.08800
H 	H 	0.08510 0.74410 0.72580 0.01000
C 	C 	0.08260 0.11040 0.71210 -0.10600
C 	C 	0.16190 0.77790 0.73140 -0.14200
H 	H 	0.18620 0.74870 0.73390 0.08400
C 	C 	0.03850 0.24490 0.77610 0.36700
C 	C 	0.10170 0.20190 0.58800 0.35400
C 	C 	0.08740 0.18100 0.64350 -0.11800
C 	C 	0.05650 0.20290 0.73460 -0.11400
C 	C 	0.08830 0.05150 0.72960 0.33200
C 	C 	0.09480 0.12720 0.65850 0.05600
H 	H 	0.10790 0.10190 0.63320 0.02700
C 	C 	0.06400 0.14910 0.74980 0.05100
H 	H 	0.05660 0.13840 0.78560 0.05000
C 	C 	0.06770 0.21910 0.68120 0.05300
H 	H 	0.06190 0.25520 0.67060 0.04800
Cu	Cu	0.61457 0.55912 0.28408 0.92200
Cu	Cu	0.51311 0.64849 0.29743 0.92300
O 	O 	0.62898 0.33018 0.44331 -0.42600
O 	O 	0.54521 0.57903 0.31371 -0.40200
O 	O 	0.60710 0.48236 0.30595 -0.41100
O 	O 	0.51985 0.21072 0.24245 -0.40300
O 	O 	0.54344 0.26742 0.17447 -0.40500
O 	O 	0.57360 0.46143 0.22360 -0.26100
O 	O 	0.58780 0.25250 0.42660 -0.28200
N 	N 	0.62801 0.63800 0.27360 -0.19000
N 	N 	0.58564 0.67311 0.27660 -0.19500
C 	C 	0.67410 0.66700 0.26840 0.08700
H 	H 	0.70910 0.65230 0.26510 0.00200
C 	C 	0.60590 0.72400 0.27340 0.08800
H 	H 	0.58510 0.75590 0.27420 0.01000
C 	C 	0.58260 0.38960 0.28790 -0.10600
C 	C 	0.66190 0.72210 0.26860 -0.14200
H 	H 	0.68620 0.75130 0.26610 0.08400
C 	C 	0.53850 0.25510 0.22390 0.36700
C 	C 	0.60170 0.29810 0.41200 0.35400
C 	C 	0.58740 0.31900 0.35650 -0.11800
C 	C 	0.55650 0.29710 0.26540 -0.11400
C 	C 	0.58830 0.44850 0.27040 0.33200
C 	C 	0.59480 0.37280 0.34150 0.05600
H 	H 	0.60790 0.39810 0.36680 0.02700
C 	C 	0.56400 0.35090 0.25020 0.05100
H 	H 	0.55660 0.36160 0.21440 0.05000
C 	C 	0.56770 0.28090 0.31880 0.05300
H 	H 	0.56190 0.24480 0.32940 0.04800
Cu	Cu	0.21592 0.38543 0.05912 0.92200
Cu	Cu	0.20257 0.48689 0.14849 0.92300
O 	O 	0.05669 0.37102 0.83018 -0.42600
O 	O 	0.18629 0.45479 0.07903 -0.40200
O 	O 	0.19405 0.39290 0.98236 -0.41100
O 	O 	0.25755 0.48015 0.71072 -0.40300
O 	O 	0.32553 0.45656 0.76742 -0.40500
O 	O 	0.27640 0.42640 0.96143 -0.26200
O 	O 	0.07340 0.41220 0.75250 -0.28200
N 	N 	0.22640 0.37199 0.13800 -0.19000
N 	N 	0.22340 0.41436 0.17311 -0.19500
C 	C 	0.23160 0.32590 0.16700 0.08700
H 	H 	0.23490 0.29090 0.15230 0.00200
C 	C 	0.22660 0.39410 0.22400 0.08800
H 	H 	0.22580 0.41490 0.25590 0.01000
C 	C 	0.21210 0.41740 0.88960 -0.10600
C 	C 	0.23140 0.33810 0.22210 -0.14200
H 	H 	0.23390 0.31380 0.25130 0.08400
C 	C 	0.27610 0.46150 0.75510 0.36700
C 	C 	0.08800 0.39830 0.79810 0.35400
C 	C 	0.14350 0.41260 0.81900 -0.11800
C 	C 	0.23460 0.44350 0.79710 -0.11400
C 	C 	0.22960 0.41170 0.94850 0.33200
C 	C 	0.15850 0.40520 0.87280 0.05600
H 	H 	0.13320 0.39210 0.89810 0.02700
C 	C 	0.24980 0.43600 0.85090 0.05100
H 	H 	0.28560 0.44340 0.86160 0.05000
C 	C 	0.18120 0.43230 0.78090 0.05300
H 	H 	0.17060 0.43810 0.74480 0.04800
Cu	Cu	0.78408 0.88543 0.44088 0.92200
Cu	Cu	0.79743 0.98689 0.35151 0.92300
O 	O 	0.94331 0.87102 0.66982 -0.42500
O 	O 	0.81371 0.95479 0.42097 -0.40200
O 	O 	0.80595 0.89290 0.51764 -0.41100
O 	O 	0.74245 0.98015 0.78928 -0.40200
O 	O 	0.67447 0.95656 0.73258 -0.40500
O 	O 	0.72360 0.92640 0.53857 -0.26100
O 	O 	0.92660 0.91220 0.74750 -0.28200
N 	N 	0.77360 0.87199 0.36200 -0.19000
N 	N 	0.77660 0.91436 0.32689 -0.19500
C 	C 	0.76840 0.82590 0.33300 0.08700
H 	H 	0.76510 0.79090 0.34770 0.00200
C 	C 	0.77340 0.89410 0.27600 0.08800
H 	H 	0.77420 0.91490 0.24410 0.01000
C 	C 	0.78790 0.91740 0.61040 -0.10600
C 	C 	0.76860 0.83810 0.27790 -0.14200
H 	H 	0.76610 0.81380 0.24870 0.08400
C 	C 	0.72390 0.96150 0.74490 0.36700
C 	C 	0.91200 0.89830 0.70190 0.35400
C 	C 	0.85650 0.91260 0.68100 -0.11700
C 	C 	0.76540 0.94350 0.70290 -0.11400
C 	C 	0.77040 0.91170 0.55150 0.33200
C 	C 	0.84150 0.90520 0.62720 0.05600
H 	H 	0.86680 0.89210 0.60190 0.02700
C 	C 	0.75020 0.93600 0.64910 0.05100
H 	H 	0.71440 0.94340 0.63840 0.05000
C 	C 	0.81880 0.93230 0.71910 0.05300
H 	H 	0.82940 0.93810 0.75520 0.04800
Cu	Cu	0.71592 0.11457 0.94088 0.92200
Cu	Cu	0.70257 0.01311 0.85151 0.92200
O 	O 	0.55669 0.12898 0.16982 -0.42600
O 	O 	0.68629 0.04521 0.92097 -0.40200
O 	O 	0.69405 0.10710 0.01764 -0.41100
O 	O 	0.75755 0.01985 0.28928 -0.40300
O 	O 	0.82553 0.04344 0.23258 -0.40500
O 	O 	0.77640 0.07360 0.03857 -0.26100
O 	O 	0.57340 0.08780 0.24750 -0.28200
N 	N 	0.72640 0.12801 0.86200 -0.19000
N 	N 	0.72340 0.08564 0.82689 -0.19500
C 	C 	0.73160 0.17410 0.83300 0.08700
H 	H 	0.73490 0.20910 0.84770 0.00200
C 	C 	0.72660 0.10590 0.77600 0.08800
H 	H 	0.72580 0.08510 0.74410 0.01000
C 	C 	0.71210 0.08260 0.11040 -0.10600
C 	C 	0.73140 0.16190 0.77790 -0.14200
H 	H 	0.73390 0.18620 0.74870 0.08400
C 	C 	0.77610 0.03850 0.24490 0.36700
C 	C 	0.58800 0.10170 0.20190 0.35400
C 	C 	0.64350 0.08740 0.18100 -0.11800
C 	C 	0.73460 0.05650 0.20290 -0.11400
C 	C 	0.72960 0.08830 0.05150 0.33200
C 	C 	0.65850 0.09480 0.12720 0.05600
H 	H 	0.63320 0.10790 0.10190 0.02700
C 	C 	0.74980 0.06400 0.14910 0.05100
H 	H 	0.78560 0.05660 0.13840 0.05000
C 	C 	0.68120 0.06770 0.21910 0.05300
H 	H 	0.67060 0.06190 0.25520 0.04800
Cu	Cu	0.28408 0.61457 0.55912 0.92200
Cu	Cu	0.29743 0.51311 0.64849 0.92300
O 	O 	0.44331 0.62898 0.33018 -0.42600
O 	O 	0.31371 0.54521 0.57903 -0.40200
O 	O 	0.30595 0.60710 0.48236 -0.41100
O 	O 	0.24245 0.51985 0.21072 -0.40300
O 	O 	0.17447 0.54344 0.26742 -0.40500
O 	O 	0.22360 0.57360 0.46143 -0.26100
O 	O 	0.42660 0.58780 0.25250 -0.28200
N 	N 	0.27360 0.62801 0.63800 -0.19000
N 	N 	0.27660 0.58564 0.67311 -0.19500
C 	C 	0.26840 0.67410 0.66700 0.08700
H 	H 	0.26510 0.70910 0.65230 0.00200
C 	C 	0.27340 0.60590 0.72400 0.08800
H 	H 	0.27420 0.58510 0.75590 0.01000
C 	C 	0.28790 0.58260 0.38960 -0.10600
C 	C 	0.26860 0.66190 0.72210 -0.14200
H 	H 	0.26610 0.68620 0.75130 0.08400
C 	C 	0.22390 0.53850 0.25510 0.36700
C 	C 	0.41200 0.60170 0.29810 0.35400
C 	C 	0.35650 0.58740 0.31900 -0.11800
C 	C 	0.26540 0.55650 0.29710 -0.11400
C 	C 	0.27040 0.58830 0.44850 0.33200
C 	C 	0.34150 0.59480 0.37280 0.05600
H 	H 	0.36680 0.60790 0.39810 0.02700
C 	C 	0.25020 0.56400 0.35090 0.05100
H 	H 	0.21440 0.55660 0.36160 0.05000
C 	C 	0.31880 0.56770 0.28090 0.05300
H 	H 	0.32940 0.56190 0.24480 0.04800
Cu	Cu	0.94088 0.78408 0.61457 0.92200
Cu	Cu	0.85151 0.79743 0.51311 0.92300
O 	O 	0.16982 0.94331 0.62898 -0.42600
O 	O 	0.92097 0.81371 0.54521 -0.40200
O 	O 	0.01764 0.80595 0.60710 -0.41100
O 	O 	0.28928 0.74245 0.51985 -0.40300
O 	O 	0.23258 0.67447 0.54344 -0.40500
O 	O 	0.03857 0.72360 0.57360 -0.26200
O 	O 	0.24750 0.92660 0.58780 -0.28200
N 	N 	0.86200 0.77360 0.62801 -0.19000
N 	N 	0.82689 0.77660 0.58564 -0.19500
C 	C 	0.83300 0.76840 0.67410 0.08700
H 	H 	0.84770 0.76510 0.70910 0.00200
C 	C 	0.77600 0.77340 0.60590 0.08800
H 	H 	0.74410 0.77420 0.58510 0.01000
C 	C 	0.11040 0.78790 0.58260 -0.10600
C 	C 	0.77790 0.76860 0.66190 -0.14200
H 	H 	0.74870 0.76610 0.68620 0.08400
C 	C 	0.24490 0.72390 0.53850 0.36700
C 	C 	0.20190 0.91200 0.60170 0.35400
C 	C 	0.18100 0.85650 0.58740 -0.11800
C 	C 	0.20290 0.76540 0.55650 -0.11400
C 	C 	0.05150 0.77040 0.58830 0.33200
C 	C 	0.12720 0.84150 0.59480 0.05600
H 	H 	0.10190 0.86680 0.60790 0.02700
C 	C 	0.14910 0.75020 0.56400 0.05100
H 	H 	0.13840 0.71440 0.55660 0.05000
C 	C 	0.21910 0.81880 0.56770 0.05300
H 	H 	0.25520 0.82940 0.56190 0.04800
Cu	Cu	0.55912 0.21592 0.11457 0.92200
Cu	Cu	0.64849 0.20257 0.01311 0.92300
O 	O 	0.33018 0.05669 0.12898 -0.42500
O 	O 	0.57903 0.18629 0.04521 -0.40200
O 	O 	0.48236 0.19405 0.10710 -0.41100
O 	O 	0.21072 0.25755 0.01985 -0.40200
O 	O 	0.26742 0.32553 0.04344 -0.40500
O 	O 	0.46143 0.27640 0.07360 -0.26100
O 	O 	0.25250 0.07340 0.08780 -0.28200
N 	N 	0.63800 0.22640 0.12801 -0.19000
N 	N 	0.67311 0.22340 0.08564 -0.19500
C 	C 	0.66700 0.23160 0.17410 0.08700
H 	H 	0.65230 0.23490 0.20910 0.00200
C 	C 	0.72400 0.22660 0.10590 0.08800
H 	H 	0.75590 0.22580 0.08510 0.01000
C 	C 	0.38960 0.21210 0.08260 -0.10600
C 	C 	0.72210 0.23140 0.16190 -0.14200
H 	H 	0.75130 0.23390 0.18620 0.08400
C 	C 	0.25510 0.27610 0.03850 0.36700
C 	C 	0.29810 0.08800 0.10170 0.35400
C 	C 	0.31900 0.14350 0.08740 -0.11700
C 	C 	0.29710 0.23460 0.05650 -0.11400
C 	C 	0.44850 0.22960 0.08830 0.33200
C 	C 	0.37280 0.15850 0.09480 0.05600
H 	H 	0.39810 0.13320 0.10790 0.02700
C 	C 	0.35090 0.24980 0.06400 0.05100
H 	H 	0.36160 0.28560 0.05660 0.05000
C 	C 	0.28090 0.18120 0.06770 0.05300
H 	H 	0.24480 0.17060 0.06190 0.04800
Cu	Cu	0.05912 0.28408 0.88543 0.92200
Cu	Cu	0.14849 0.29743 0.98689 0.92200
O 	O 	0.83018 0.44331 0.87102 -0.42600
O 	O 	0.07903 0.31371 0.95479 -0.40200
O 	O 	0.98236 0.30595 0.89290 -0.41100
O 	O 	0.71072 0.24245 0.98015 -0.40300
O 	O 	0.76742 0.17447 0.95656 -0.40500
O 	O 	0.96143 0.22360 0.92640 -0.26100
O 	O 	0.75250 0.42660 0.91220 -0.28200
N 	N 	0.13800 0.27360 0.87199 -0.19000
N 	N 	0.17311 0.27660 0.91436 -0.19500
C 	C 	0.16700 0.26840 0.82590 0.08700
H 	H 	0.15230 0.26510 0.79090 0.00200
C 	C 	0.22400 0.27340 0.89410 0.08800
H 	H 	0.25590 0.27420 0.91490 0.01000
C 	C 	0.88960 0.28790 0.91740 -0.10600
C 	C 	0.22210 0.26860 0.83810 -0.14200
H 	H 	0.25130 0.26610 0.81380 0.08400
C 	C 	0.75510 0.22390 0.96150 0.36700
C 	C 	0.79810 0.41200 0.89830 0.35400
C 	C 	0.81900 0.35650 0.91260 -0.11800
C 	C 	0.79710 0.26540 0.94350 -0.11400
C 	C 	0.94850 0.27040 0.91170 0.33200
C 	C 	0.87280 0.34150 0.90520 0.05600
H 	H 	0.89810 0.36680 0.89210 0.02700
C 	C 	0.85090 0.25020 0.93600 0.05100
H 	H 	0.86160 0.21440 0.94340 0.05000
C 	C 	0.78090 0.31880 0.93230 0.05300
H 	H 	0.74480 0.32940 0.93810 0.04800
Cu	Cu	0.44088 0.71592 0.38543 0.92200
Cu	Cu	0.35151 0.70257 0.48689 0.92300
O 	O 	0.66982 0.55669 0.37102 -0.42600
O 	O 	0.42097 0.68629 0.45479 -0.40200
O 	O 	0.51764 0.69405 0.39290 -0.41100
O 	O 	0.78928 0.75755 0.48015 -0.40300
O 	O 	0.73258 0.82553 0.45656 -0.40500
O 	O 	0.53857 0.77640 0.42640 -0.26100
O 	O 	0.74750 0.57340 0.41220 -0.28200
N 	N 	0.36200 0.72640 0.37199 -0.19000
N 	N 	0.32689 0.72340 0.41436 -0.19500
C 	C 	0.33300 0.73160 0.32590 0.08700
H 	H 	0.34770 0.73490 0.29090 0.00200
C 	C 	0.27600 0.72660 0.39410 0.08800
H 	H 	0.24410 0.72580 0.41490 0.01000
C 	C 	0.61040 0.71210 0.41740 -0.10600
C 	C 	0.27790 0.73140 0.33810 -0.14200
H 	H 	0.24870 0.73390 0.31380 0.08400
C 	C 	0.74490 0.77610 0.46150 0.36700
C 	C 	0.70190 0.58800 0.39830 0.35400
C 	C 	0.68100 0.64350 0.41260 -0.11800
C 	C 	0.70290 0.73460 0.44350 -0.11400
C 	C 	0.55150 0.72960 0.41170 0.33200
C 	C 	0.62720 0.65850 0.40520 0.05600
H 	H 	0.60190 0.63320 0.39210 0.02700
C 	C 	0.64910 0.74980 0.43600 0.05100
H 	H 	0.63840 0.78560 0.44340 0.05000
C 	C 	0.71910 0.68120 0.43230 0.05300
H 	H 	0.75520 0.67060 0.43810 0.04800
Cu	Cu	0.61457 0.94088 0.78408 0.92200
Cu	Cu	0.51311 0.85151 0.79743 0.92300
O 	O 	0.62898 0.16982 0.94331 -0.42600
O 	O 	0.54521 0.92097 0.81371 -0.40200
O 	O 	0.60710 0.01764 0.80595 -0.41100
O 	O 	0.51985 0.28928 0.74245 -0.40300
O 	O 	0.54344 0.23258 0.67447 -0.40500
O 	O 	0.57360 0.03857 0.72360 -0.26200
O 	O 	0.58780 0.24750 0.92660 -0.28200
N 	N 	0.62801 0.86200 0.77360 -0.19000
N 	N 	0.58564 0.82689 0.77660 -0.19500
C 	C 	0.67410 0.83300 0.76840 0.08700
H 	H 	0.70910 0.84770 0.76510 0.00200
C 	C 	0.60590 0.77600 0.77340 0.08800
H 	H 	0.58510 0.74410 0.77420 0.01000
C 	C 	0.58260 0.11040 0.78790 -0.10600
C 	C 	0.66190 0.77790 0.76860 -0.14200
H 	H 	0.68620 0.74870 0.76610 0.08400
C 	C 	0.53850 0.24490 0.72390 0.36700
C 	C 	0.60170 0.20190 0.91200 0.35400
C 	C 	0.58740 0.18100 0.85650 -0.11800
C 	C 	0.55650 0.20290 0.76540 -0.11400
C 	C 	0.58830 0.05150 0.77040 0.33200
C 	C 	0.59480 0.12720 0.84150 0.05600
H 	H 	0.60790 0.10190 0.86680 0.02700
C 	C 	0.56400 0.14910 0.75020 0.05100
H 	H 	0.55660 0.13840 0.71440 0.05000
C 	C 	0.56770 0.21910 0.81880 0.05300
H 	H 	0.56190 0.25520 0.82940 0.04800
Cu	Cu	0.11457 0.55912 0.21592 0.92200
Cu	Cu	0.01311 0.64849 0.20257 0.92300
O 	O 	0.12898 0.33018 0.05669 -0.42500
O 	O 	0.04521 0.57903 0.18629 -0.40200
O 	O 	0.10710 0.48236 0.19405 -0.41100
O 	O 	0.01985 0.21072 0.25755 -0.40200
O 	O 	0.04344 0.26742 0.32553 -0.40500
O 	O 	0.07360 0.46143 0.27640 -0.26100
O 	O 	0.08780 0.25250 0.07340 -0.28200
N 	N 	0.12801 0.63800 0.22640 -0.19000
N 	N 	0.08564 0.67311 0.22340 -0.19500
C 	C 	0.17410 0.66700 0.23160 0.08700
H 	H 	0.20910 0.65230 0.23490 0.00200
C 	C 	0.10590 0.72400 0.22660 0.08800
H 	H 	0.08510 0.75590 0.22580 0.01000
C 	C 	0.08260 0.38960 0.21210 -0.10600
C 	C 	0.16190 0.72210 0.23140 -0.14200
H 	H 	0.18620 0.75130 0.23390 0.08400
C 	C 	0.03850 0.25510 0.27610 0.36700
C 	C 	0.10170 0.29810 0.08800 0.35400
C 	C 	0.08740 0.31900 0.14350 -0.11700
C 	C 	0.05650 0.29710 0.23460 -0.11400
C 	C 	0.08830 0.44850 0.22960 0.33200
C 	C 	0.09480 0.37280 0.15850 0.05600
H 	H 	0.10790 0.39810 0.13320 0.02700
C 	C 	0.06400 0.35090 0.24980 0.05100
H 	H 	0.05660 0.36160 0.28560 0.05000
C 	C 	0.06770 0.28090 0.18120 0.05300
H 	H 	0.06190 0.24480 0.17060 0.04800
Cu	Cu	0.88543 0.05912 0.28408 0.92200
Cu	Cu	0.98689 0.14849 0.29743 0.92200
O 	O 	0.87102 0.83018 0.44331 -0.42600
O 	O 	0.95479 0.07903 0.31371 -0.40200
O 	O 	0.89290 0.98236 0.30595 -0.41100
O 	O 	0.98015 0.71072 0.24245 -0.40300
O 	O 	0.95656 0.76742 0.17447 -0.40500
O 	O 	0.92640 0.96143 0.22360 -0.26100
O 	O 	0.91220 0.75250 0.42660 -0.28200
N 	N 	0.87199 0.13800 0.27360 -0.19000
N 	N 	0.91436 0.17311 0.27660 -0.19500
C 	C 	0.82590 0.16700 0.26840 0.08700
H 	H 	0.79090 0.15230 0.26510 0.00200
C 	C 	0.89410 0.22400 0.27340 0.08800
H 	H 	0.91490 0.25590 0.27420 0.01000
C 	C 	0.91740 0.88960 0.28790 -0.10600
C 	C 	0.83810 0.22210 0.26860 -0.14200
H 	H 	0.81380 0.25130 0.26610 0.08400
C 	C 	0.96150 0.75510 0.22390 0.36700
C 	C 	0.89830 0.79810 0.41200 0.35400
C 	C 	0.91260 0.81900 0.35650 -0.11800
C 	C 	0.94350 0.79710 0.26540 -0.11400
C 	C 	0.91170 0.94850 0.27040 0.33200
C 	C 	0.90520 0.87280 0.34150 0.05600
H 	H 	0.89210 0.89810 0.36680 0.02700
C 	C 	0.93600 0.85090 0.25020 0.05100
H 	H 	0.94340 0.86160 0.21440 0.05000
C 	C 	0.93230 0.78090 0.31880 0.05300
H 	H 	0.93810 0.74480 0.32940 0.04800
Cu	Cu	0.38543 0.44088 0.71592 0.92200
Cu	Cu	0.48689 0.35151 0.70257 0.92300
O 	O 	0.37102 0.66982 0.55669 -0.42600
O 	O 	0.45479 0.42097 0.68629 -0.40200
O 	O 	0.39290 0.51764 0.69405 -0.41100
O 	O 	0.48015 0.78928 0.75755 -0.40300
O 	O 	0.45656 0.73258 0.82553 -0.40500
O 	O 	0.42640 0.53857 0.77640 -0.26100
O 	O 	0.41220 0.74750 0.57340 -0.28200
N 	N 	0.37199 0.36200 0.72640 -0.19000
N 	N 	0.41436 0.32689 0.72340 -0.19500
C 	C 	0.32590 0.33300 0.73160 0.08700
H 	H 	0.29090 0.34770 0.73490 0.00200
C 	C 	0.39410 0.27600 0.72660 0.08800
H 	H 	0.41490 0.24410 0.72580 0.01000
C 	C 	0.41740 0.61040 0.71210 -0.10600
C 	C 	0.33810 0.27790 0.73140 -0.14200
H 	H 	0.31380 0.24870 0.73390 0.08400
C 	C 	0.46150 0.74490 0.77610 0.36700
C 	C 	0.39830 0.70190 0.58800 0.35400
C 	C 	0.41260 0.68100 0.64350 -0.11800
C 	C 	0.44350 0.70290 0.73460 -0.11400
C 	C 	0.41170 0.55150 0.72960 0.33200
C 	C 	0.40520 0.62720 0.65850 0.05600
H 	H 	0.39210 0.60190 0.63320 0.02700
C 	C 	0.43600 0.64910 0.74980 0.05100
H 	H 	0.44340 0.63840 0.78560 0.05000
C 	C 	0.43230 0.71910 0.68120 0.05300
H 	H 	0.43810 0.75520 0.67060 0.04800
Cu	Cu	0.78408 0.61457 0.94088 0.92200
Cu	Cu	0.79743 0.51311 0.85151 0.92300
O 	O 	0.94331 0.62898 0.16982 -0.42600
O 	O 	0.81371 0.54521 0.92097 -0.40200
O 	O 	0.80595 0.60710 0.01764 -0.41100
O 	O 	0.74245 0.51985 0.28928 -0.40300
O 	O 	0.67447 0.54344 0.23258 -0.40500
O 	O 	0.72360 0.57360 0.03857 -0.26200
O 	O 	0.92660 0.58780 0.24750 -0.28200
N 	N 	0.77360 0.62801 0.86200 -0.19000
N 	N 	0.77660 0.58564 0.82689 -0.19500
C 	C 	0.76840 0.67410 0.83300 0.08700
H 	H 	0.76510 0.70910 0.84770 0.00200
C 	C 	0.77340 0.60590 0.77600 0.08800
H 	H 	0.77420 0.58510 0.74410 0.01000
C 	C 	0.78790 0.58260 0.11040 -0.10600
C 	C 	0.76860 0.66190 0.77790 -0.14200
H 	H 	0.76610 0.68620 0.74870 0.08400
C 	C 	0.72390 0.53850 0.24490 0.36700
C 	C 	0.91200 0.60170 0.20190 0.35400
C 	C 	0.85650 0.58740 0.18100 -0.11800
C 	C 	0.76540 0.55650 0.20290 -0.11400
C 	C 	0.77040 0.58830 0.05150 0.33200
C 	C 	0.84150 0.59480 0.12720 0.05600
H 	H 	0.86680 0.60790 0.10190 0.02700
C 	C 	0.75020 0.56400 0.14910 0.05100
H 	H 	0.71440 0.55660 0.13840 0.05000
C 	C 	0.81880 0.56770 0.21910 0.05300
H 	H 	0.82940 0.56190 0.25520 0.04800
Cu	Cu	0.21592 0.11457 0.55912 0.92200
Cu	Cu	0.20257 0.01311 0.64849 0.92300
O 	O 	0.05669 0.12898 0.33018 -0.42500
O 	O 	0.18629 0.04521 0.57903 -0.40200
O 	O 	0.19405 0.10710 0.48236 -0.41100
O 	O 	0.25755 0.01985 0.21072 -0.40200
O 	O 	0.32553 0.04344 0.26742 -0.40500
O 	O 	0.27640 0.07360 0.46143 -0.26100
O 	O 	0.07340 0.08780 0.25250 -0.28200
N 	N 	0.22640 0.12801 0.63800 -0.19000
N 	N 	0.22340 0.08564 0.67311 -0.19500
C 	C 	0.23160 0.17410 0.66700 0.08700
H 	H 	0.23490 0.20910 0.65230 0.00200
C 	C 	0.22660 0.10590 0.72400 0.08800
H 	H 	0.22580 0.08510 0.75590 0.01000
C 	C 	0.21210 0.08260 0.38960 -0.10600
C 	C 	0.23140 0.16190 0.72210 -0.14200
H 	H 	0.23390 0.18620 0.75130 0.08400
C 	C 	0.27610 0.03850 0.25510 0.36700
C 	C 	0.08800 0.10170 0.29810 0.35400
C 	C 	0.14350 0.08740 0.31900 -0.11700
C 	C 	0.23460 0.05650 0.29710 -0.11400
C 	C 	0.22960 0.08830 0.44850 0.33200
C 	C 	0.15850 0.09480 0.37280 0.05600
H 	H 	0.13320 0.10790 0.39810 0.02700
C 	C 	0.24980 0.06400 0.35090 0.05100
H 	H 	0.28560 0.05660 0.36160 0.05000
C 	C 	0.18120 0.06770 0.28090 0.05300
H 	H 	0.17060 0.06190 0.24480 0.04800
Cu	Cu	0.28408 0.88543 0.05912 0.92200
Cu	Cu	0.29743 0.98689 0.14849 0.92200
O 	O 	0.44331 0.87102 0.83018 -0.42600
O 	O 	0.31371 0.95479 0.07903 -0.40200
O 	O 	0.30595 0.89290 0.98236 -0.41100
O 	O 	0.24245 0.98015 0.71072 -0.40300
O 	O 	0.17447 0.95656 0.76742 -0.40500
O 	O 	0.22360 0.92640 0.96143 -0.26100
O 	O 	0.42660 0.91220 0.75250 -0.28200
N 	N 	0.27360 0.87199 0.13800 -0.19000
N 	N 	0.27660 0.91436 0.17311 -0.19500
C 	C 	0.26840 0.82590 0.16700 0.08700
H 	H 	0.26510 0.79090 0.15230 0.00200
C 	C 	0.27340 0.89410 0.22400 0.08800
H 	H 	0.27420 0.91490 0.25590 0.01000
C 	C 	0.28790 0.91740 0.88960 -0.10600
C 	C 	0.26860 0.83810 0.22210 -0.14200
H 	H 	0.26610 0.81380 0.25130 0.08400
C 	C 	0.22390 0.96150 0.75510 0.36700
C 	C 	0.41200 0.89830 0.79810 0.35400
C 	C 	0.35650 0.91260 0.81900 -0.11800
C 	C 	0.26540 0.94350 0.79710 -0.11400
C 	C 	0.27040 0.91170 0.94850 0.33200
C 	C 	0.34150 0.90520 0.87280 0.05600
H 	H 	0.36680 0.89210 0.89810 0.02700
C 	C 	0.25020 0.93600 0.85090 0.05100
H 	H 	0.21440 0.94340 0.86160 0.05000
C 	C 	0.31880 0.93230 0.78090 0.05300
H 	H 	0.32940 0.93810 0.74480 0.04800
Cu	Cu	0.71592 0.38543 0.44088 0.92200
Cu	Cu	0.70257 0.48689 0.35151 0.92300
O 	O 	0.55669 0.37102 0.66982 -0.42600
O 	O 	0.68629 0.45479 0.42097 -0.40200
O 	O 	0.69405 0.39290 0.51764 -0.41100
O 	O 	0.75755 0.48015 0.78928 -0.40300
O 	O 	0.82553 0.45656 0.73258 -0.40500
O 	O 	0.77640 0.42640 0.53857 -0.26100
O 	O 	0.57340 0.41220 0.74750 -0.28200
N 	N 	0.72640 0.37199 0.36200 -0.19000
N 	N 	0.72340 0.41436 0.32689 -0.19500
C 	C 	0.73160 0.32590 0.33300 0.08700
H 	H 	0.73490 0.29090 0.34770 0.00200
C 	C 	0.72660 0.39410 0.27600 0.08800
H 	H 	0.72580 0.41490 0.24410 0.01000
C 	C 	0.71210 0.41740 0.61040 -0.10600
C 	C 	0.73140 0.33810 0.27790 -0.14200
H 	H 	0.73390 0.31380 0.24870 0.08400
C 	C 	0.77610 0.46150 0.74490 0.36700
C 	C 	0.58800 0.39830 0.70190 0.35400
C 	C 	0.64350 0.41260 0.68100 -0.11800
C 	C 	0.73460 0.44350 0.70290 -0.11400
C 	C 	0.72960 0.41170 0.55150 0.33200
C 	C 	0.65850 0.40520 0.62720 0.05600
H 	H 	0.63320 0.39210 0.60190 0.02700
C 	C 	0.74980 0.43600 0.64910 0.05100
H 	H 	0.78560 0.44340 0.63840 0.05000
C 	C 	0.68120 0.43230 0.71910 0.05300
H 	H 	0.67060 0.43810 0.75520 0.04800
