data_crystal

_cell_length_a 24.49400
_cell_length_b 24.49400
_cell_length_c 24.49400
_cell_angle_alpha 90.00000
_cell_angle_beta  90.00000
_cell_angle_gamma 90.00000

_symmetry_space_group_name_	'P 1'
_symmetry_space_group_name_H-M	'P 1'

loop_
_symmetry_equiv_pos_as_xyz
  x,y,z

loop_
_atom_site_label
_atom_site_type_symbol
_atom_site_fract_x
_atom_site_fract_y
_atom_site_fract_z
_atom_site_charge
Cu	Cu	0.20266 0.48410 0.14612 0.91500
Cu	Cu	0.21402 0.38305 0.05631 0.91500
N 	N 	0.22397 0.41168 0.17034 -0.19600
N 	N 	0.22575 0.36941 0.13500 -0.19000
O 	O 	0.19413 0.39076 0.97885 -0.42800
O 	O 	0.05523 0.37149 0.82798 -0.44600
O 	O 	0.18256 0.45166 0.07731 -0.41000
O 	O 	0.32260 0.46008 0.76522 -0.39800
O 	O 	0.25486 0.48298 0.70783 -0.39700
O 	O 	0.27609 0.42498 0.95763 -0.26500
O 	O 	0.06857 0.41850 0.75214 -0.28400
C 	C 	0.21007 0.41754 0.88660 -0.10800
C 	C 	0.15677 0.40590 0.87064 0.04400
C 	C 	0.27274 0.46477 0.75230 0.35500
C 	C 	0.14101 0.41467 0.81660 -0.11400
C 	C 	0.23157 0.44588 0.79401 -0.11300
C 	C 	0.17841 0.43580 0.77866 0.04800
C 	C 	0.24760 0.43662 0.84776 0.04600
C 	C 	0.22918 0.41054 0.94509 0.32700
C 	C 	0.23030 0.32320 0.16400 0.08400
H 	H 	0.23230 0.28830 0.14940 0.00300
C 	C 	0.08406 0.40111 0.79695 0.34300
C 	C 	0.23130 0.33560 0.21910 -0.14100
H 	H 	0.23410 0.31140 0.24820 0.08100
C 	C 	0.22730 0.39140 0.22122 0.08500
H 	H 	0.22700 0.41210 0.25310 0.00800
C 	C 	0.14260 0.47780 0.04240 -0.11500
H 	H 	0.13730 0.45630 0.01010 0.06900
H 	H 	0.15540 0.51350 0.03240 0.07600
H 	H 	0.10860 0.48110 0.06160 0.06100
H 	H 	0.13400 0.39210 0.89360 0.01700
H 	H 	0.28560 0.44090 0.85740 0.04900
H 	H 	0.16700 0.44400 0.74200 0.04700
Cu	Cu	0.29734 0.51590 0.64612 0.91500
Cu	Cu	0.28598 0.61695 0.55631 0.91500
N 	N 	0.27603 0.58832 0.67034 -0.19600
N 	N 	0.27425 0.63059 0.63500 -0.18900
O 	O 	0.30587 0.60924 0.47885 -0.42700
O 	O 	0.44477 0.62851 0.32798 -0.44500
O 	O 	0.31744 0.54834 0.57731 -0.40900
O 	O 	0.17740 0.53992 0.26522 -0.39600
O 	O 	0.24514 0.51702 0.20783 -0.39600
O 	O 	0.22391 0.57502 0.45763 -0.26300
O 	O 	0.43143 0.58150 0.25214 -0.28300
C 	C 	0.28993 0.58246 0.38660 -0.10700
C 	C 	0.34323 0.59410 0.37064 0.04500
C 	C 	0.22726 0.53523 0.25230 0.35600
C 	C 	0.35899 0.58533 0.31660 -0.11300
C 	C 	0.26843 0.55412 0.29401 -0.11200
C 	C 	0.32159 0.56420 0.27866 0.04900
C 	C 	0.25240 0.56338 0.34776 0.04700
C 	C 	0.27082 0.58946 0.44509 0.32800
C 	C 	0.26970 0.67680 0.66400 0.08500
H 	H 	0.26770 0.71170 0.64940 0.00400
C 	C 	0.41594 0.59889 0.29695 0.34400
C 	C 	0.26870 0.66440 0.71910 -0.14000
H 	H 	0.26590 0.68860 0.74820 0.08200
C 	C 	0.27270 0.60860 0.72122 0.08600
H 	H 	0.27300 0.58790 0.75310 0.00900
C 	C 	0.35740 0.52220 0.54240 -0.11400
H 	H 	0.36270 0.54370 0.51010 0.06900
H 	H 	0.34460 0.48650 0.53240 0.07600
H 	H 	0.39140 0.51890 0.56160 0.06200
H 	H 	0.36600 0.60790 0.39360 0.01800
H 	H 	0.21440 0.55910 0.35740 0.05000
H 	H 	0.33300 0.55600 0.24200 0.04800
Cu	Cu	0.79734 0.98410 0.35388 0.91600
Cu	Cu	0.78598 0.88305 0.44369 0.91600
N 	N 	0.77603 0.91168 0.32966 -0.19500
N 	N 	0.77425 0.86941 0.36500 -0.18900
O 	O 	0.80587 0.89076 0.52115 -0.42700
O 	O 	0.94477 0.87149 0.67202 -0.44500
O 	O 	0.81744 0.95166 0.42269 -0.40900
O 	O 	0.67740 0.96008 0.73478 -0.39600
O 	O 	0.74514 0.98298 0.79217 -0.39600
O 	O 	0.72391 0.92498 0.54237 -0.26300
O 	O 	0.93143 0.91850 0.74786 -0.28300
C 	C 	0.78993 0.91754 0.61340 -0.10700
C 	C 	0.84323 0.90590 0.62936 0.04500
C 	C 	0.72726 0.96477 0.74770 0.35600
C 	C 	0.85899 0.91467 0.68340 -0.11300
C 	C 	0.76843 0.94588 0.70599 -0.11100
C 	C 	0.82159 0.93580 0.72134 0.04900
C 	C 	0.75240 0.93662 0.65224 0.04700
C 	C 	0.77082 0.91054 0.55491 0.32800
C 	C 	0.76970 0.82320 0.33600 0.08500
H 	H 	0.76770 0.78830 0.35060 0.00400
C 	C 	0.91594 0.90111 0.70305 0.34400
C 	C 	0.76870 0.83560 0.28090 -0.14000
H 	H 	0.76590 0.81140 0.25180 0.08200
C 	C 	0.77270 0.89140 0.27878 0.08600
H 	H 	0.77300 0.91210 0.24690 0.00900
C 	C 	0.85740 0.97780 0.45760 -0.11200
H 	H 	0.86270 0.95630 0.48990 0.06900
H 	H 	0.84460 0.01350 0.46760 0.07600
H 	H 	0.89140 0.98110 0.43840 0.06200
H 	H 	0.86600 0.89210 0.60640 0.01800
H 	H 	0.71440 0.94090 0.64260 0.05000
H 	H 	0.83300 0.94400 0.75800 0.04800
Cu	Cu	0.70266 0.01590 0.85388 0.91600
Cu	Cu	0.71402 0.11695 0.94369 0.91600
N 	N 	0.72397 0.08832 0.82966 -0.19500
N 	N 	0.72575 0.13059 0.86500 -0.19000
O 	O 	0.69413 0.10924 0.02115 -0.42700
O 	O 	0.55523 0.12851 0.17202 -0.44500
O 	O 	0.68256 0.04834 0.92269 -0.40900
O 	O 	0.82260 0.03992 0.23478 -0.39700
O 	O 	0.75486 0.01702 0.29217 -0.39600
O 	O 	0.77609 0.07502 0.04237 -0.26300
O 	O 	0.56857 0.08150 0.24786 -0.28300
C 	C 	0.71007 0.08246 0.11340 -0.10700
C 	C 	0.65677 0.09410 0.12936 0.04500
C 	C 	0.77274 0.03523 0.24770 0.35600
C 	C 	0.64101 0.08533 0.18340 -0.11300
C 	C 	0.73157 0.05412 0.20599 -0.11200
C 	C 	0.67841 0.06420 0.22134 0.04900
C 	C 	0.74760 0.06338 0.15224 0.04700
C 	C 	0.72918 0.08946 0.05491 0.32800
C 	C 	0.73030 0.17680 0.83600 0.08500
H 	H 	0.73230 0.21170 0.85060 0.00400
C 	C 	0.58406 0.09889 0.20305 0.34400
C 	C 	0.73130 0.16440 0.78090 -0.14000
H 	H 	0.73410 0.18860 0.75180 0.08200
C 	C 	0.72730 0.10860 0.77878 0.08600
H 	H 	0.72700 0.08790 0.74690 0.00900
C 	C 	0.64260 0.02220 0.95760 -0.11700
H 	H 	0.63730 0.04370 0.98990 0.07000
H 	H 	0.65540 0.98650 0.96760 0.07800
H 	H 	0.60860 0.01890 0.93840 0.06300
H 	H 	0.63400 0.10790 0.10640 0.01800
H 	H 	0.78560 0.05910 0.14260 0.05000
H 	H 	0.66700 0.05600 0.25800 0.04800
Cu	Cu	0.14612 0.20266 0.48410 0.91600
Cu	Cu	0.05631 0.21402 0.38305 0.91600
N 	N 	0.17034 0.22397 0.41168 -0.19500
N 	N 	0.13500 0.22575 0.36941 -0.18900
O 	O 	0.97885 0.19413 0.39076 -0.42700
O 	O 	0.82798 0.05523 0.37149 -0.44500
O 	O 	0.07731 0.18256 0.45166 -0.40900
O 	O 	0.76522 0.32260 0.46008 -0.39700
O 	O 	0.70783 0.25486 0.48298 -0.39600
O 	O 	0.95763 0.27609 0.42498 -0.26400
O 	O 	0.75214 0.06857 0.41850 -0.28300
C 	C 	0.88660 0.21007 0.41754 -0.10700
C 	C 	0.87064 0.15677 0.40590 0.04500
C 	C 	0.75230 0.27274 0.46477 0.35600
C 	C 	0.81660 0.14101 0.41467 -0.11300
C 	C 	0.79401 0.23157 0.44588 -0.11200
C 	C 	0.77866 0.17841 0.43580 0.04900
C 	C 	0.84776 0.24760 0.43662 0.04700
C 	C 	0.94509 0.22918 0.41054 0.32800
C 	C 	0.16400 0.23030 0.32320 0.08500
H 	H 	0.14940 0.23230 0.28830 0.00400
C 	C 	0.79695 0.08406 0.40111 0.34400
C 	C 	0.21910 0.23130 0.33560 -0.14000
H 	H 	0.24820 0.23410 0.31140 0.08200
C 	C 	0.22122 0.22730 0.39140 0.08600
H 	H 	0.25310 0.22700 0.41210 0.00900
C 	C 	0.04240 0.14260 0.47780 -0.11400
H 	H 	0.01010 0.13730 0.45630 0.07000
H 	H 	0.03240 0.15540 0.51350 0.07700
H 	H 	0.06160 0.10860 0.48110 0.06200
H 	H 	0.89360 0.13400 0.39210 0.01800
H 	H 	0.85740 0.28560 0.44090 0.05000
H 	H 	0.74200 0.16700 0.44400 0.04800
Cu	Cu	0.64612 0.29734 0.51590 0.91600
Cu	Cu	0.55631 0.28598 0.61695 0.91600
N 	N 	0.67034 0.27603 0.58832 -0.19500
N 	N 	0.63500 0.27425 0.63059 -0.18900
O 	O 	0.47885 0.30587 0.60924 -0.42700
O 	O 	0.32798 0.44477 0.62851 -0.44500
O 	O 	0.57731 0.31744 0.54834 -0.40900
O 	O 	0.26522 0.17740 0.53992 -0.39600
O 	O 	0.20783 0.24514 0.51702 -0.39600
O 	O 	0.45763 0.22391 0.57502 -0.26300
O 	O 	0.25214 0.43143 0.58150 -0.28300
C 	C 	0.38660 0.28993 0.58246 -0.10700
C 	C 	0.37064 0.34323 0.59410 0.04500
C 	C 	0.25230 0.22726 0.53523 0.35600
C 	C 	0.31660 0.35899 0.58533 -0.11300
C 	C 	0.29401 0.26843 0.55412 -0.11200
C 	C 	0.27866 0.32159 0.56420 0.04900
C 	C 	0.34776 0.25240 0.56338 0.04700
C 	C 	0.44509 0.27082 0.58946 0.32800
C 	C 	0.66400 0.26970 0.67680 0.08500
H 	H 	0.64940 0.26770 0.71170 0.00400
C 	C 	0.29695 0.41594 0.59889 0.34400
C 	C 	0.71910 0.26870 0.66440 -0.14000
H 	H 	0.74820 0.26590 0.68860 0.08200
C 	C 	0.72122 0.27270 0.60860 0.08600
H 	H 	0.75310 0.27300 0.58790 0.00900
C 	C 	0.54240 0.35740 0.52220 -0.11400
H 	H 	0.51010 0.36270 0.54370 0.06900
H 	H 	0.53240 0.34460 0.48650 0.07600
H 	H 	0.56160 0.39140 0.51890 0.06200
H 	H 	0.39360 0.36600 0.60790 0.01800
H 	H 	0.35740 0.21440 0.55910 0.05000
H 	H 	0.24200 0.33300 0.55600 0.04800
Cu	Cu	0.35388 0.79734 0.98410 0.91600
Cu	Cu	0.44369 0.78598 0.88305 0.91600
N 	N 	0.32966 0.77603 0.91168 -0.19500
N 	N 	0.36500 0.77425 0.86941 -0.18900
O 	O 	0.52115 0.80587 0.89076 -0.42700
O 	O 	0.67202 0.94477 0.87149 -0.44500
O 	O 	0.42269 0.81744 0.95166 -0.40900
O 	O 	0.73478 0.67740 0.96008 -0.39600
O 	O 	0.79217 0.74514 0.98298 -0.39600
O 	O 	0.54237 0.72391 0.92498 -0.26300
O 	O 	0.74786 0.93143 0.91850 -0.28300
C 	C 	0.61340 0.78993 0.91754 -0.10700
C 	C 	0.62936 0.84323 0.90590 0.04500
C 	C 	0.74770 0.72726 0.96477 0.35600
C 	C 	0.68340 0.85899 0.91467 -0.11300
C 	C 	0.70599 0.76843 0.94588 -0.11100
C 	C 	0.72134 0.82159 0.93580 0.04900
C 	C 	0.65224 0.75240 0.93662 0.04700
C 	C 	0.55491 0.77082 0.91054 0.32800
C 	C 	0.33600 0.76970 0.82320 0.08500
H 	H 	0.35060 0.76770 0.78830 0.00400
C 	C 	0.70305 0.91594 0.90111 0.34400
C 	C 	0.28090 0.76870 0.83560 -0.14000
H 	H 	0.25180 0.76590 0.81140 0.08200
C 	C 	0.27878 0.77270 0.89140 0.08600
H 	H 	0.24690 0.77300 0.91210 0.00900
C 	C 	0.45760 0.85740 0.97780 -0.11200
H 	H 	0.48990 0.86270 0.95630 0.06900
H 	H 	0.46760 0.84460 0.01350 0.07600
H 	H 	0.43840 0.89140 0.98110 0.06200
H 	H 	0.60640 0.86600 0.89210 0.01800
H 	H 	0.64260 0.71440 0.94090 0.05000
H 	H 	0.75800 0.83300 0.94400 0.04800
Cu	Cu	0.85388 0.70266 0.01590 0.91600
Cu	Cu	0.94369 0.71402 0.11695 0.91600
N 	N 	0.82966 0.72397 0.08832 -0.19500
N 	N 	0.86500 0.72575 0.13059 -0.19000
O 	O 	0.02115 0.69413 0.10924 -0.42700
O 	O 	0.17202 0.55523 0.12851 -0.44500
O 	O 	0.92269 0.68256 0.04834 -0.40900
O 	O 	0.23478 0.82260 0.03992 -0.39700
O 	O 	0.29217 0.75486 0.01702 -0.39600
O 	O 	0.04237 0.77609 0.07502 -0.26300
O 	O 	0.24786 0.56857 0.08150 -0.28300
C 	C 	0.11340 0.71007 0.08246 -0.10700
C 	C 	0.12936 0.65677 0.09410 0.04500
C 	C 	0.24770 0.77274 0.03523 0.35600
C 	C 	0.18340 0.64101 0.08533 -0.11300
C 	C 	0.20599 0.73157 0.05412 -0.11200
C 	C 	0.22134 0.67841 0.06420 0.04900
C 	C 	0.15224 0.74760 0.06338 0.04700
C 	C 	0.05491 0.72918 0.08946 0.32800
C 	C 	0.83600 0.73030 0.17680 0.08500
H 	H 	0.85060 0.73230 0.21170 0.00400
C 	C 	0.20305 0.58406 0.09889 0.34400
C 	C 	0.78090 0.73130 0.16440 -0.14000
H 	H 	0.75180 0.73410 0.18860 0.08200
C 	C 	0.77878 0.72730 0.10860 0.08600
H 	H 	0.74690 0.72700 0.08790 0.00900
C 	C 	0.95760 0.64260 0.02220 -0.11700
H 	H 	0.98990 0.63730 0.04370 0.07000
H 	H 	0.96760 0.65540 0.98650 0.07800
H 	H 	0.93840 0.60860 0.01890 0.06300
H 	H 	0.10640 0.63400 0.10790 0.01800
H 	H 	0.14260 0.78560 0.05910 0.05000
H 	H 	0.25800 0.66700 0.05600 0.04800
Cu	Cu	0.48410 0.14612 0.20266 0.91600
Cu	Cu	0.38305 0.05631 0.21402 0.91600
N 	N 	0.41168 0.17034 0.22397 -0.19500
N 	N 	0.36941 0.13500 0.22575 -0.18900
O 	O 	0.39076 0.97885 0.19413 -0.42700
O 	O 	0.37149 0.82798 0.05523 -0.44500
O 	O 	0.45166 0.07731 0.18256 -0.40900
O 	O 	0.46008 0.76522 0.32260 -0.39700
O 	O 	0.48298 0.70783 0.25486 -0.39600
O 	O 	0.42498 0.95763 0.27609 -0.26400
O 	O 	0.41850 0.75214 0.06857 -0.28300
C 	C 	0.41754 0.88660 0.21007 -0.10700
C 	C 	0.40590 0.87064 0.15677 0.04500
C 	C 	0.46477 0.75230 0.27274 0.35600
C 	C 	0.41467 0.81660 0.14101 -0.11300
C 	C 	0.44588 0.79401 0.23157 -0.11200
C 	C 	0.43580 0.77866 0.17841 0.04900
C 	C 	0.43662 0.84776 0.24760 0.04700
C 	C 	0.41054 0.94509 0.22918 0.32800
C 	C 	0.32320 0.16400 0.23030 0.08500
H 	H 	0.28830 0.14940 0.23230 0.00400
C 	C 	0.40111 0.79695 0.08406 0.34400
C 	C 	0.33560 0.21910 0.23130 -0.14000
H 	H 	0.31140 0.24820 0.23410 0.08200
C 	C 	0.39140 0.22122 0.22730 0.08600
H 	H 	0.41210 0.25310 0.22700 0.00900
C 	C 	0.47780 0.04240 0.14260 -0.11400
H 	H 	0.45630 0.01010 0.13730 0.07000
H 	H 	0.51350 0.03240 0.15540 0.07700
H 	H 	0.48110 0.06160 0.10860 0.06200
H 	H 	0.39210 0.89360 0.13400 0.01800
H 	H 	0.44090 0.85740 0.28560 0.05000
H 	H 	0.44400 0.74200 0.16700 0.04800
Cu	Cu	0.51590 0.64612 0.29734 0.91600
Cu	Cu	0.61695 0.55631 0.28598 0.91600
N 	N 	0.58832 0.67034 0.27603 -0.19500
N 	N 	0.63059 0.63500 0.27425 -0.18900
O 	O 	0.60924 0.47885 0.30587 -0.42700
O 	O 	0.62851 0.32798 0.44477 -0.44500
O 	O 	0.54834 0.57731 0.31744 -0.40900
O 	O 	0.53992 0.26522 0.17740 -0.39600
O 	O 	0.51702 0.20783 0.24514 -0.39600
O 	O 	0.57502 0.45763 0.22391 -0.26300
O 	O 	0.58150 0.25214 0.43143 -0.28300
C 	C 	0.58246 0.38660 0.28993 -0.10700
C 	C 	0.59410 0.37064 0.34323 0.04500
C 	C 	0.53523 0.25230 0.22726 0.35600
C 	C 	0.58533 0.31660 0.35899 -0.11300
C 	C 	0.55412 0.29401 0.26843 -0.11200
C 	C 	0.56420 0.27866 0.32159 0.04900
C 	C 	0.56338 0.34776 0.25240 0.04700
C 	C 	0.58946 0.44509 0.27082 0.32800
C 	C 	0.67680 0.66400 0.26970 0.08500
H 	H 	0.71170 0.64940 0.26770 0.00400
C 	C 	0.59889 0.29695 0.41594 0.34400
C 	C 	0.66440 0.71910 0.26870 -0.14000
H 	H 	0.68860 0.74820 0.26590 0.08200
C 	C 	0.60860 0.72122 0.27270 0.08600
H 	H 	0.58790 0.75310 0.27300 0.00900
C 	C 	0.52220 0.54240 0.35740 -0.11400
H 	H 	0.54370 0.51010 0.36270 0.06900
H 	H 	0.48650 0.53240 0.34460 0.07600
H 	H 	0.51890 0.56160 0.39140 0.06200
H 	H 	0.60790 0.39360 0.36600 0.01800
H 	H 	0.55910 0.35740 0.21440 0.05000
H 	H 	0.55600 0.24200 0.33300 0.04800
Cu	Cu	0.98410 0.35388 0.79734 0.91600
Cu	Cu	0.88305 0.44369 0.78598 0.91600
N 	N 	0.91168 0.32966 0.77603 -0.19500
N 	N 	0.86941 0.36500 0.77425 -0.18900
O 	O 	0.89076 0.52115 0.80587 -0.42700
O 	O 	0.87149 0.67202 0.94477 -0.44500
O 	O 	0.95166 0.42269 0.81744 -0.40900
O 	O 	0.96008 0.73478 0.67740 -0.39600
O 	O 	0.98298 0.79217 0.74514 -0.39600
O 	O 	0.92498 0.54237 0.72391 -0.26300
O 	O 	0.91850 0.74786 0.93143 -0.28300
C 	C 	0.91754 0.61340 0.78993 -0.10700
C 	C 	0.90590 0.62936 0.84323 0.04500
C 	C 	0.96477 0.74770 0.72726 0.35600
C 	C 	0.91467 0.68340 0.85899 -0.11300
C 	C 	0.94588 0.70599 0.76843 -0.11100
C 	C 	0.93580 0.72134 0.82159 0.04900
C 	C 	0.93662 0.65224 0.75240 0.04700
C 	C 	0.91054 0.55491 0.77082 0.32800
C 	C 	0.82320 0.33600 0.76970 0.08500
H 	H 	0.78830 0.35060 0.76770 0.00400
C 	C 	0.90111 0.70305 0.91594 0.34400
C 	C 	0.83560 0.28090 0.76870 -0.14000
H 	H 	0.81140 0.25180 0.76590 0.08200
C 	C 	0.89140 0.27878 0.77270 0.08600
H 	H 	0.91210 0.24690 0.77300 0.00900
C 	C 	0.97780 0.45760 0.85740 -0.11200
H 	H 	0.95630 0.48990 0.86270 0.06900
H 	H 	0.01350 0.46760 0.84460 0.07600
H 	H 	0.98110 0.43840 0.89140 0.06200
H 	H 	0.89210 0.60640 0.86600 0.01800
H 	H 	0.94090 0.64260 0.71440 0.05000
H 	H 	0.94400 0.75800 0.83300 0.04800
Cu	Cu	0.01590 0.85388 0.70266 0.91600
Cu	Cu	0.11695 0.94369 0.71402 0.91600
N 	N 	0.08832 0.82966 0.72397 -0.19500
N 	N 	0.13059 0.86500 0.72575 -0.19000
O 	O 	0.10924 0.02115 0.69413 -0.42700
O 	O 	0.12851 0.17202 0.55523 -0.44500
O 	O 	0.04834 0.92269 0.68256 -0.40900
O 	O 	0.03992 0.23478 0.82260 -0.39700
O 	O 	0.01702 0.29217 0.75486 -0.39600
O 	O 	0.07502 0.04237 0.77609 -0.26300
O 	O 	0.08150 0.24786 0.56857 -0.28300
C 	C 	0.08246 0.11340 0.71007 -0.10700
C 	C 	0.09410 0.12936 0.65677 0.04500
C 	C 	0.03523 0.24770 0.77274 0.35600
C 	C 	0.08533 0.18340 0.64101 -0.11300
C 	C 	0.05412 0.20599 0.73157 -0.11200
C 	C 	0.06420 0.22134 0.67841 0.04900
C 	C 	0.06338 0.15224 0.74760 0.04700
C 	C 	0.08946 0.05491 0.72918 0.32800
C 	C 	0.17680 0.83600 0.73030 0.08500
H 	H 	0.21170 0.85060 0.73230 0.00400
C 	C 	0.09889 0.20305 0.58406 0.34400
C 	C 	0.16440 0.78090 0.73130 -0.14000
H 	H 	0.18860 0.75180 0.73410 0.08200
C 	C 	0.10860 0.77878 0.72730 0.08600
H 	H 	0.08790 0.74690 0.72700 0.00900
C 	C 	0.02220 0.95760 0.64260 -0.11700
H 	H 	0.04370 0.98990 0.63730 0.07000
H 	H 	0.98650 0.96760 0.65540 0.07800
H 	H 	0.01890 0.93840 0.60860 0.06300
H 	H 	0.10790 0.10640 0.63400 0.01800
H 	H 	0.05910 0.14260 0.78560 0.05000
H 	H 	0.05600 0.25800 0.66700 0.04800
Cu	Cu	0.79734 0.51590 0.85388 0.91600
Cu	Cu	0.78598 0.61695 0.94369 0.91600
N 	N 	0.77603 0.58832 0.82966 -0.19500
N 	N 	0.77425 0.63059 0.86500 -0.18900
O 	O 	0.80587 0.60924 0.02115 -0.42700
O 	O 	0.94477 0.62851 0.17202 -0.44500
O 	O 	0.81744 0.54834 0.92269 -0.40900
O 	O 	0.67740 0.53992 0.23478 -0.39700
O 	O 	0.74514 0.51702 0.29217 -0.39600
O 	O 	0.72391 0.57502 0.04237 -0.26400
O 	O 	0.93143 0.58150 0.24786 -0.28300
C 	C 	0.78993 0.58246 0.11340 -0.10700
C 	C 	0.84323 0.59410 0.12936 0.04500
C 	C 	0.72726 0.53523 0.24770 0.35600
C 	C 	0.85899 0.58533 0.18340 -0.11300
C 	C 	0.76843 0.55412 0.20599 -0.11200
C 	C 	0.82159 0.56420 0.22134 0.04900
C 	C 	0.75240 0.56338 0.15224 0.04700
C 	C 	0.77082 0.58946 0.05491 0.32800
C 	C 	0.76970 0.67680 0.83600 0.08500
H 	H 	0.76770 0.71170 0.85060 0.00400
C 	C 	0.91594 0.59889 0.20305 0.34400
C 	C 	0.76870 0.66440 0.78090 -0.14000
H 	H 	0.76590 0.68860 0.75180 0.08200
C 	C 	0.77270 0.60860 0.77878 0.08600
H 	H 	0.77300 0.58790 0.74690 0.00900
C 	C 	0.85740 0.52220 0.95760 -0.11400
H 	H 	0.86270 0.54370 0.98990 0.07000
H 	H 	0.84460 0.48650 0.96760 0.07700
H 	H 	0.89140 0.51890 0.93840 0.06200
H 	H 	0.86600 0.60790 0.10640 0.01800
H 	H 	0.71440 0.55910 0.14260 0.05000
H 	H 	0.83300 0.55600 0.25800 0.04800
Cu	Cu	0.70266 0.48410 0.35388 0.91600
Cu	Cu	0.71402 0.38305 0.44369 0.91600
N 	N 	0.72397 0.41168 0.32966 -0.19500
N 	N 	0.72575 0.36941 0.36500 -0.18900
O 	O 	0.69413 0.39076 0.52115 -0.42700
O 	O 	0.55523 0.37149 0.67202 -0.44500
O 	O 	0.68256 0.45166 0.42269 -0.40900
O 	O 	0.82260 0.46008 0.73478 -0.39600
O 	O 	0.75486 0.48298 0.79217 -0.39600
O 	O 	0.77609 0.42498 0.54237 -0.26300
O 	O 	0.56857 0.41850 0.74786 -0.28300
C 	C 	0.71007 0.41754 0.61340 -0.10700
C 	C 	0.65677 0.40590 0.62936 0.04500
C 	C 	0.77274 0.46477 0.74770 0.35600
C 	C 	0.64101 0.41467 0.68340 -0.11300
C 	C 	0.73157 0.44588 0.70599 -0.11200
C 	C 	0.67841 0.43580 0.72134 0.04900
C 	C 	0.74760 0.43662 0.65224 0.04700
C 	C 	0.72918 0.41054 0.55491 0.32800
C 	C 	0.73030 0.32320 0.33600 0.08500
H 	H 	0.73230 0.28830 0.35060 0.00400
C 	C 	0.58406 0.40111 0.70305 0.34400
C 	C 	0.73130 0.33560 0.28090 -0.14000
H 	H 	0.73410 0.31140 0.25180 0.08200
C 	C 	0.72730 0.39140 0.27878 0.08600
H 	H 	0.72700 0.41210 0.24690 0.00900
C 	C 	0.64260 0.47780 0.45760 -0.11400
H 	H 	0.63730 0.45630 0.48990 0.06900
H 	H 	0.65540 0.51350 0.46760 0.07600
H 	H 	0.60860 0.48110 0.43840 0.06200
H 	H 	0.63400 0.39210 0.60640 0.01800
H 	H 	0.78560 0.44090 0.64260 0.05000
H 	H 	0.66700 0.44400 0.75800 0.04800
Cu	Cu	0.20266 0.01590 0.64612 0.91600
Cu	Cu	0.21402 0.11695 0.55631 0.91600
N 	N 	0.22397 0.08832 0.67034 -0.19500
N 	N 	0.22575 0.13059 0.63500 -0.18900
O 	O 	0.19413 0.10924 0.47885 -0.42700
O 	O 	0.05523 0.12851 0.32798 -0.44500
O 	O 	0.18256 0.04834 0.57731 -0.40900
O 	O 	0.32260 0.03992 0.26522 -0.39600
O 	O 	0.25486 0.01702 0.20783 -0.39600
O 	O 	0.27609 0.07502 0.45763 -0.26300
O 	O 	0.06857 0.08150 0.25214 -0.28300
C 	C 	0.21007 0.08246 0.38660 -0.10700
C 	C 	0.15677 0.09410 0.37064 0.04500
C 	C 	0.27274 0.03523 0.25230 0.35600
C 	C 	0.14101 0.08533 0.31660 -0.11300
C 	C 	0.23157 0.05412 0.29401 -0.11100
C 	C 	0.17841 0.06420 0.27866 0.04900
C 	C 	0.24760 0.06338 0.34776 0.04700
C 	C 	0.22918 0.08946 0.44509 0.32800
C 	C 	0.23030 0.17680 0.66400 0.08500
H 	H 	0.23230 0.21170 0.64940 0.00400
C 	C 	0.08406 0.09889 0.29695 0.34400
C 	C 	0.23130 0.16440 0.71910 -0.14000
H 	H 	0.23410 0.18860 0.74820 0.08200
C 	C 	0.22730 0.10860 0.72122 0.08600
H 	H 	0.22700 0.08790 0.75310 0.00900
C 	C 	0.14260 0.02220 0.54240 -0.11200
H 	H 	0.13730 0.04370 0.51010 0.06900
H 	H 	0.15540 0.98650 0.53240 0.07600
H 	H 	0.10860 0.01890 0.56160 0.06200
H 	H 	0.13400 0.10790 0.39360 0.01800
H 	H 	0.28560 0.05910 0.35740 0.05000
H 	H 	0.16700 0.05600 0.24200 0.04800
Cu	Cu	0.29734 0.98410 0.14612 0.91600
Cu	Cu	0.28598 0.88305 0.05631 0.91600
N 	N 	0.27603 0.91168 0.17034 -0.19500
N 	N 	0.27425 0.86941 0.13500 -0.19000
O 	O 	0.30587 0.89076 0.97885 -0.42700
O 	O 	0.44477 0.87149 0.82798 -0.44500
O 	O 	0.31744 0.95166 0.07731 -0.40900
O 	O 	0.17740 0.96008 0.76522 -0.39700
O 	O 	0.24514 0.98298 0.70783 -0.39600
O 	O 	0.22391 0.92498 0.95763 -0.26300
O 	O 	0.43143 0.91850 0.75214 -0.28300
C 	C 	0.28993 0.91754 0.88660 -0.10700
C 	C 	0.34323 0.90590 0.87064 0.04500
C 	C 	0.22726 0.96477 0.75230 0.35600
C 	C 	0.35899 0.91467 0.81660 -0.11300
C 	C 	0.26843 0.94588 0.79401 -0.11200
C 	C 	0.32159 0.93580 0.77866 0.04900
C 	C 	0.25240 0.93662 0.84776 0.04700
C 	C 	0.27082 0.91054 0.94509 0.32800
C 	C 	0.26970 0.82320 0.16400 0.08500
H 	H 	0.26770 0.78830 0.14940 0.00400
C 	C 	0.41594 0.90111 0.79695 0.34400
C 	C 	0.26870 0.83560 0.21910 -0.14000
H 	H 	0.26590 0.81140 0.24820 0.08200
C 	C 	0.27270 0.89140 0.22122 0.08600
H 	H 	0.27300 0.91210 0.25310 0.00900
C 	C 	0.35740 0.97780 0.04240 -0.11700
H 	H 	0.36270 0.95630 0.01010 0.07000
H 	H 	0.34460 0.01350 0.03240 0.07800
H 	H 	0.39140 0.98110 0.06160 0.06300
H 	H 	0.36600 0.89210 0.89360 0.01800
H 	H 	0.21440 0.94090 0.85740 0.05000
H 	H 	0.33300 0.94400 0.74200 0.04800
Cu	Cu	0.85388 0.79734 0.51590 0.91600
Cu	Cu	0.94369 0.78598 0.61695 0.91600
N 	N 	0.82966 0.77603 0.58832 -0.19500
N 	N 	0.86500 0.77425 0.63059 -0.18900
O 	O 	0.02115 0.80587 0.60924 -0.42700
O 	O 	0.17202 0.94477 0.62851 -0.44500
O 	O 	0.92269 0.81744 0.54834 -0.40900
O 	O 	0.23478 0.67740 0.53992 -0.39700
O 	O 	0.29217 0.74514 0.51702 -0.39600
O 	O 	0.04237 0.72391 0.57502 -0.26400
O 	O 	0.24786 0.93143 0.58150 -0.28300
C 	C 	0.11340 0.78993 0.58246 -0.10700
C 	C 	0.12936 0.84323 0.59410 0.04500
C 	C 	0.24770 0.72726 0.53523 0.35600
C 	C 	0.18340 0.85899 0.58533 -0.11300
C 	C 	0.20599 0.76843 0.55412 -0.11200
C 	C 	0.22134 0.82159 0.56420 0.04900
C 	C 	0.15224 0.75240 0.56338 0.04700
C 	C 	0.05491 0.77082 0.58946 0.32800
C 	C 	0.83600 0.76970 0.67680 0.08500
H 	H 	0.85060 0.76770 0.71170 0.00400
C 	C 	0.20305 0.91594 0.59889 0.34400
C 	C 	0.78090 0.76870 0.66440 -0.14000
H 	H 	0.75180 0.76590 0.68860 0.08200
C 	C 	0.77878 0.77270 0.60860 0.08600
H 	H 	0.74690 0.77300 0.58790 0.00900
C 	C 	0.95760 0.85740 0.52220 -0.11400
H 	H 	0.98990 0.86270 0.54370 0.07000
H 	H 	0.96760 0.84460 0.48650 0.07700
H 	H 	0.93840 0.89140 0.51890 0.06200
H 	H 	0.10640 0.86600 0.60790 0.01800
H 	H 	0.14260 0.71440 0.55910 0.05000
H 	H 	0.25800 0.83300 0.55600 0.04800
Cu	Cu	0.35388 0.70266 0.48410 0.91600
Cu	Cu	0.44369 0.71402 0.38305 0.91600
N 	N 	0.32966 0.72397 0.41168 -0.19500
N 	N 	0.36500 0.72575 0.36941 -0.18900
O 	O 	0.52115 0.69413 0.39076 -0.42700
O 	O 	0.67202 0.55523 0.37149 -0.44500
O 	O 	0.42269 0.68256 0.45166 -0.40900
O 	O 	0.73478 0.82260 0.46008 -0.39600
O 	O 	0.79217 0.75486 0.48298 -0.39600
O 	O 	0.54237 0.77609 0.42498 -0.26300
O 	O 	0.74786 0.56857 0.41850 -0.28300
C 	C 	0.61340 0.71007 0.41754 -0.10700
C 	C 	0.62936 0.65677 0.40590 0.04500
C 	C 	0.74770 0.77274 0.46477 0.35600
C 	C 	0.68340 0.64101 0.41467 -0.11300
C 	C 	0.70599 0.73157 0.44588 -0.11200
C 	C 	0.72134 0.67841 0.43580 0.04900
C 	C 	0.65224 0.74760 0.43662 0.04700
C 	C 	0.55491 0.72918 0.41054 0.32800
C 	C 	0.33600 0.73030 0.32320 0.08500
H 	H 	0.35060 0.73230 0.28830 0.00400
C 	C 	0.70305 0.58406 0.40111 0.34400
C 	C 	0.28090 0.73130 0.33560 -0.14000
H 	H 	0.25180 0.73410 0.31140 0.08200
C 	C 	0.27878 0.72730 0.39140 0.08600
H 	H 	0.24690 0.72700 0.41210 0.00900
C 	C 	0.45760 0.64260 0.47780 -0.11400
H 	H 	0.48990 0.63730 0.45630 0.06900
H 	H 	0.46760 0.65540 0.51350 0.07600
H 	H 	0.43840 0.60860 0.48110 0.06200
H 	H 	0.60640 0.63400 0.39210 0.01800
H 	H 	0.64260 0.78560 0.44090 0.05000
H 	H 	0.75800 0.66700 0.44400 0.04800
Cu	Cu	0.64612 0.20266 0.01590 0.91600
Cu	Cu	0.55631 0.21402 0.11695 0.91600
N 	N 	0.67034 0.22397 0.08832 -0.19500
N 	N 	0.63500 0.22575 0.13059 -0.18900
O 	O 	0.47885 0.19413 0.10924 -0.42700
O 	O 	0.32798 0.05523 0.12851 -0.44500
O 	O 	0.57731 0.18256 0.04834 -0.40900
O 	O 	0.26522 0.32260 0.03992 -0.39600
O 	O 	0.20783 0.25486 0.01702 -0.39600
O 	O 	0.45763 0.27609 0.07502 -0.26300
O 	O 	0.25214 0.06857 0.08150 -0.28300
C 	C 	0.38660 0.21007 0.08246 -0.10700
C 	C 	0.37064 0.15677 0.09410 0.04500
C 	C 	0.25230 0.27274 0.03523 0.35600
C 	C 	0.31660 0.14101 0.08533 -0.11300
C 	C 	0.29401 0.23157 0.05412 -0.11100
C 	C 	0.27866 0.17841 0.06420 0.04900
C 	C 	0.34776 0.24760 0.06338 0.04700
C 	C 	0.44509 0.22918 0.08946 0.32800
C 	C 	0.66400 0.23030 0.17680 0.08500
H 	H 	0.64940 0.23230 0.21170 0.00400
C 	C 	0.29695 0.08406 0.09889 0.34400
C 	C 	0.71910 0.23130 0.16440 -0.14000
H 	H 	0.74820 0.23410 0.18860 0.08200
C 	C 	0.72122 0.22730 0.10860 0.08600
H 	H 	0.75310 0.22700 0.08790 0.00900
C 	C 	0.54240 0.14260 0.02220 -0.11200
H 	H 	0.51010 0.13730 0.04370 0.06900
H 	H 	0.53240 0.15540 0.98650 0.07600
H 	H 	0.56160 0.10860 0.01890 0.06200
H 	H 	0.39360 0.13400 0.10790 0.01800
H 	H 	0.35740 0.28560 0.05910 0.05000
H 	H 	0.24200 0.16700 0.05600 0.04800
Cu	Cu	0.14612 0.29734 0.98410 0.91600
Cu	Cu	0.05631 0.28598 0.88305 0.91600
N 	N 	0.17034 0.27603 0.91168 -0.19500
N 	N 	0.13500 0.27425 0.86941 -0.19000
O 	O 	0.97885 0.30587 0.89076 -0.42700
O 	O 	0.82798 0.44477 0.87149 -0.44500
O 	O 	0.07731 0.31744 0.95166 -0.40900
O 	O 	0.76522 0.17740 0.96008 -0.39700
O 	O 	0.70783 0.24514 0.98298 -0.39600
O 	O 	0.95763 0.22391 0.92498 -0.26300
O 	O 	0.75214 0.43143 0.91850 -0.28300
C 	C 	0.88660 0.28993 0.91754 -0.10700
C 	C 	0.87064 0.34323 0.90590 0.04500
C 	C 	0.75230 0.22726 0.96477 0.35600
C 	C 	0.81660 0.35899 0.91467 -0.11300
C 	C 	0.79401 0.26843 0.94588 -0.11200
C 	C 	0.77866 0.32159 0.93580 0.04900
C 	C 	0.84776 0.25240 0.93662 0.04700
C 	C 	0.94509 0.27082 0.91054 0.32800
C 	C 	0.16400 0.26970 0.82320 0.08500
H 	H 	0.14940 0.26770 0.78830 0.00400
C 	C 	0.79695 0.41594 0.90111 0.34400
C 	C 	0.21910 0.26870 0.83560 -0.14000
H 	H 	0.24820 0.26590 0.81140 0.08200
C 	C 	0.22122 0.27270 0.89140 0.08600
H 	H 	0.25310 0.27300 0.91210 0.00900
C 	C 	0.04240 0.35740 0.97780 -0.11700
H 	H 	0.01010 0.36270 0.95630 0.07000
H 	H 	0.03240 0.34460 0.01350 0.07800
H 	H 	0.06160 0.39140 0.98110 0.06300
H 	H 	0.89360 0.36600 0.89210 0.01800
H 	H 	0.85740 0.21440 0.94090 0.05000
H 	H 	0.74200 0.33300 0.94400 0.04800
Cu	Cu	0.51590 0.85388 0.79734 0.91600
Cu	Cu	0.61695 0.94369 0.78598 0.91600
N 	N 	0.58832 0.82966 0.77603 -0.19500
N 	N 	0.63059 0.86500 0.77425 -0.18900
O 	O 	0.60924 0.02115 0.80587 -0.42700
O 	O 	0.62851 0.17202 0.94477 -0.44500
O 	O 	0.54834 0.92269 0.81744 -0.40900
O 	O 	0.53992 0.23478 0.67740 -0.39700
O 	O 	0.51702 0.29217 0.74514 -0.39600
O 	O 	0.57502 0.04237 0.72391 -0.26400
O 	O 	0.58150 0.24786 0.93143 -0.28300
C 	C 	0.58246 0.11340 0.78993 -0.10700
C 	C 	0.59410 0.12936 0.84323 0.04500
C 	C 	0.53523 0.24770 0.72726 0.35600
C 	C 	0.58533 0.18340 0.85899 -0.11300
C 	C 	0.55412 0.20599 0.76843 -0.11200
C 	C 	0.56420 0.22134 0.82159 0.04900
C 	C 	0.56338 0.15224 0.75240 0.04700
C 	C 	0.58946 0.05491 0.77082 0.32800
C 	C 	0.67680 0.83600 0.76970 0.08500
H 	H 	0.71170 0.85060 0.76770 0.00400
C 	C 	0.59889 0.20305 0.91594 0.34400
C 	C 	0.66440 0.78090 0.76870 -0.14000
H 	H 	0.68860 0.75180 0.76590 0.08200
C 	C 	0.60860 0.77878 0.77270 0.08600
H 	H 	0.58790 0.74690 0.77300 0.00900
C 	C 	0.52220 0.95760 0.85740 -0.11400
H 	H 	0.54370 0.98990 0.86270 0.07000
H 	H 	0.48650 0.96760 0.84460 0.07700
H 	H 	0.51890 0.93840 0.89140 0.06200
H 	H 	0.60790 0.10640 0.86600 0.01800
H 	H 	0.55910 0.14260 0.71440 0.05000
H 	H 	0.55600 0.25800 0.83300 0.04800
Cu	Cu	0.48410 0.35388 0.70266 0.91600
Cu	Cu	0.38305 0.44369 0.71402 0.91600
N 	N 	0.41168 0.32966 0.72397 -0.19500
N 	N 	0.36941 0.36500 0.72575 -0.18900
O 	O 	0.39076 0.52115 0.69413 -0.42700
O 	O 	0.37149 0.67202 0.55523 -0.44500
O 	O 	0.45166 0.42269 0.68256 -0.40900
O 	O 	0.46008 0.73478 0.82260 -0.39600
O 	O 	0.48298 0.79217 0.75486 -0.39600
O 	O 	0.42498 0.54237 0.77609 -0.26300
O 	O 	0.41850 0.74786 0.56857 -0.28300
C 	C 	0.41754 0.61340 0.71007 -0.10700
C 	C 	0.40590 0.62936 0.65677 0.04500
C 	C 	0.46477 0.74770 0.77274 0.35600
C 	C 	0.41467 0.68340 0.64101 -0.11300
C 	C 	0.44588 0.70599 0.73157 -0.11200
C 	C 	0.43580 0.72134 0.67841 0.04900
C 	C 	0.43662 0.65224 0.74760 0.04700
C 	C 	0.41054 0.55491 0.72918 0.32800
C 	C 	0.32320 0.33600 0.73030 0.08500
H 	H 	0.28830 0.35060 0.73230 0.00400
C 	C 	0.40111 0.70305 0.58406 0.34400
C 	C 	0.33560 0.28090 0.73130 -0.14000
H 	H 	0.31140 0.25180 0.73410 0.08200
C 	C 	0.39140 0.27878 0.72730 0.08600
H 	H 	0.41210 0.24690 0.72700 0.00900
C 	C 	0.47780 0.45760 0.64260 -0.11400
H 	H 	0.45630 0.48990 0.63730 0.06900
H 	H 	0.51350 0.46760 0.65540 0.07600
H 	H 	0.48110 0.43840 0.60860 0.06200
H 	H 	0.39210 0.60640 0.63400 0.01800
H 	H 	0.44090 0.64260 0.78560 0.05000
H 	H 	0.44400 0.75800 0.66700 0.04800
Cu	Cu	0.01590 0.64612 0.20266 0.91600
Cu	Cu	0.11695 0.55631 0.21402 0.91600
N 	N 	0.08832 0.67034 0.22397 -0.19500
N 	N 	0.13059 0.63500 0.22575 -0.18900
O 	O 	0.10924 0.47885 0.19413 -0.42700
O 	O 	0.12851 0.32798 0.05523 -0.44500
O 	O 	0.04834 0.57731 0.18256 -0.40900
O 	O 	0.03992 0.26522 0.32260 -0.39600
O 	O 	0.01702 0.20783 0.25486 -0.39600
O 	O 	0.07502 0.45763 0.27609 -0.26300
O 	O 	0.08150 0.25214 0.06857 -0.28300
C 	C 	0.08246 0.38660 0.21007 -0.10700
C 	C 	0.09410 0.37064 0.15677 0.04500
C 	C 	0.03523 0.25230 0.27274 0.35600
C 	C 	0.08533 0.31660 0.14101 -0.11300
C 	C 	0.05412 0.29401 0.23157 -0.11100
C 	C 	0.06420 0.27866 0.17841 0.04900
C 	C 	0.06338 0.34776 0.24760 0.04700
C 	C 	0.08946 0.44509 0.22918 0.32800
C 	C 	0.17680 0.66400 0.23030 0.08500
H 	H 	0.21170 0.64940 0.23230 0.00400
C 	C 	0.09889 0.29695 0.08406 0.34400
C 	C 	0.16440 0.71910 0.23130 -0.14000
H 	H 	0.18860 0.74820 0.23410 0.08200
C 	C 	0.10860 0.72122 0.22730 0.08600
H 	H 	0.08790 0.75310 0.22700 0.00900
C 	C 	0.02220 0.54240 0.14260 -0.11200
H 	H 	0.04370 0.51010 0.13730 0.06900
H 	H 	0.98650 0.53240 0.15540 0.07600
H 	H 	0.01890 0.56160 0.10860 0.06200
H 	H 	0.10790 0.39360 0.13400 0.01800
H 	H 	0.05910 0.35740 0.28560 0.05000
H 	H 	0.05600 0.24200 0.16700 0.04800
Cu	Cu	0.98410 0.14612 0.29734 0.91600
Cu	Cu	0.88305 0.05631 0.28598 0.91600
N 	N 	0.91168 0.17034 0.27603 -0.19500
N 	N 	0.86941 0.13500 0.27425 -0.19000
O 	O 	0.89076 0.97885 0.30587 -0.42700
O 	O 	0.87149 0.82798 0.44477 -0.44500
O 	O 	0.95166 0.07731 0.31744 -0.40900
O 	O 	0.96008 0.76522 0.17740 -0.39700
O 	O 	0.98298 0.70783 0.24514 -0.39600
O 	O 	0.92498 0.95763 0.22391 -0.26300
O 	O 	0.91850 0.75214 0.43143 -0.28300
C 	C 	0.91754 0.88660 0.28993 -0.10700
C 	C 	0.90590 0.87064 0.34323 0.04500
C 	C 	0.96477 0.75230 0.22726 0.35600
C 	C 	0.91467 0.81660 0.35899 -0.11300
C 	C 	0.94588 0.79401 0.26843 -0.11200
C 	C 	0.93580 0.77866 0.32159 0.04900
C 	C 	0.93662 0.84776 0.25240 0.04700
C 	C 	0.91054 0.94509 0.27082 0.32800
C 	C 	0.82320 0.16400 0.26970 0.08500
H 	H 	0.78830 0.14940 0.26770 0.00400
C 	C 	0.90111 0.79695 0.41594 0.34400
C 	C 	0.83560 0.21910 0.26870 -0.14000
H 	H 	0.81140 0.24820 0.26590 0.08200
C 	C 	0.89140 0.22122 0.27270 0.08600
H 	H 	0.91210 0.25310 0.27300 0.00900
C 	C 	0.97780 0.04240 0.35740 -0.11700
H 	H 	0.95630 0.01010 0.36270 0.07000
H 	H 	0.01350 0.03240 0.34460 0.07800
H 	H 	0.98110 0.06160 0.39140 0.06300
H 	H 	0.89210 0.89360 0.36600 0.01800
H 	H 	0.94090 0.85740 0.21440 0.05000
H 	H 	0.94400 0.74200 0.33300 0.04800
