data_crystal

_cell_length_a 10.21700
_cell_length_b 10.36200
_cell_length_c 18.11800
_cell_angle_alpha 102.53000
_cell_angle_beta  99.35000
_cell_angle_gamma 93.79000

_symmetry_space_group_name_	'P 1'
_symmetry_space_group_name_H-M	'P 1'

loop_
_symmetry_equiv_pos_as_xyz
  x,y,z

loop_
_atom_site_label
_atom_site_type_symbol
_atom_site_fract_x
_atom_site_fract_y
_atom_site_fract_z
_atom_site_charge
C 	C 	0.21590 0.98760 0.75120 0.26900
C 	C 	0.36020 0.01840 0.78920 0.02000
C 	C 	0.46160 0.99540 0.74620 -0.07700
H 	H 	0.44010 0.96100 0.69330 0.09300
C 	C 	0.59450 0.02390 0.78210 0.03000
C 	C 	0.70430 0.99360 0.73580 0.26600
C 	C 	0.62500 0.07760 0.86050 -0.14800
H 	H 	0.71390 0.09770 0.88460 0.11000
C 	C 	0.52520 0.10190 0.90380 0.17400
C 	C 	0.39340 0.07000 0.86830 -0.14200
H 	H 	0.32630 0.08300 0.89740 0.11900
C 	C 	0.49210 0.23310 0.02810 0.22000
C 	C 	0.54280 0.26790 0.11330 -0.03400
C 	C 	0.67810 0.28490 0.14520 -0.02400
H 	H 	0.74160 0.27150 0.11370 0.05000
C 	C 	0.71700 0.32210 0.22450 -0.03400
H 	H 	0.80740 0.33390 0.24580 0.06100
C 	C 	0.62440 0.34200 0.27230 -0.03100
C 	C 	0.66570 0.39200 0.35730 0.22400
C 	C 	0.48940 0.32300 0.23990 -0.02600
H 	H 	0.42630 0.33490 0.27180 0.06400
C 	C 	0.44790 0.28670 0.16140 -0.02600
H 	H 	0.35740 0.27480 0.14030 0.06400
C 	C 	0.81320 0.36380 0.47260 0.18000
C 	C 	0.83580 0.49560 0.51350 -0.13800
H 	H 	0.81620 0.56350 0.48860 0.12300
C 	C 	0.88830 0.52550 0.59220 0.01600
C 	C 	0.91150 0.67080 0.63520 0.27800
C 	C 	0.92010 0.42380 0.62790 -0.06500
H 	H 	0.95610 0.44390 0.68010 0.08800
C 	C 	0.89940 0.29180 0.58710 0.02200
C 	C 	0.93060 0.18020 0.62690 0.28600
C 	C 	0.84540 0.26290 0.50870 -0.14300
H 	H 	0.83110 0.17510 0.48070 0.11600
Cd	Cd	0.95185 0.95298 0.68418 1.24500
N 	N 	0.56190 0.15270 0.98490 -0.24500
H 	H 	0.63430 0.12990 0.00780 0.13700
N 	N 	0.75910 0.33090 0.39240 -0.25200
H 	H 	0.78950 0.26600 0.36420 0.15700
O 	O 	0.12810 0.01820 0.79140 -0.33100
O 	O 	0.18690 0.93520 0.68055 -0.34600
O 	O 	0.67440 0.96120 0.66470 -0.27500
O 	O 	0.82150 0.00320 0.77230 -0.35200
O 	O 	0.39080 0.27760 0.00140 -0.21100
O 	O 	0.61060 0.48400 0.39160 -0.20200
O 	O 	0.90430 0.06320 0.58710 -0.34200
O 	O 	0.97800 0.20710 0.69570 -0.30300
O 	O 	0.89190 0.75720 0.59630 -0.35800
O 	O 	0.95240 0.70110 0.70580 -0.30800
C 	C 	0.78410 0.01240 0.24880 0.27000
C 	C 	0.63980 0.98160 0.21080 0.02100
C 	C 	0.53840 0.00460 0.25380 -0.07700
H 	H 	0.55990 0.03900 0.30670 0.09300
C 	C 	0.40550 0.97610 0.21790 0.03000
C 	C 	0.29570 0.00640 0.26420 0.26600
C 	C 	0.37500 0.92240 0.13950 -0.14800
H 	H 	0.28610 0.90230 0.11540 0.11000
C 	C 	0.47480 0.89810 0.09620 0.17400
C 	C 	0.60660 0.93000 0.13170 -0.14200
H 	H 	0.67370 0.91700 0.10260 0.11900
C 	C 	0.50790 0.76690 0.97190 0.22000
C 	C 	0.45720 0.73210 0.88670 -0.03400
C 	C 	0.32190 0.71510 0.85480 -0.02400
H 	H 	0.25840 0.72850 0.88630 0.05000
C 	C 	0.28300 0.67790 0.77550 -0.03400
H 	H 	0.19260 0.66610 0.75420 0.06100
C 	C 	0.37560 0.65800 0.72770 -0.03100
C 	C 	0.33430 0.60800 0.64270 0.22400
C 	C 	0.51060 0.67700 0.76010 -0.02600
H 	H 	0.57370 0.66510 0.72820 0.06400
C 	C 	0.55210 0.71330 0.83860 -0.02600
H 	H 	0.64260 0.72520 0.85970 0.06400
C 	C 	0.18680 0.63620 0.52740 0.18000
C 	C 	0.16420 0.50440 0.48650 -0.13800
H 	H 	0.18380 0.43650 0.51140 0.12300
C 	C 	0.11170 0.47450 0.40780 0.01600
C 	C 	0.08850 0.32920 0.36480 0.27800
C 	C 	0.07990 0.57620 0.37210 -0.06500
H 	H 	0.04390 0.55610 0.31990 0.08800
C 	C 	0.10060 0.70820 0.41290 0.02200
C 	C 	0.06940 0.81980 0.37310 0.28600
C 	C 	0.15460 0.73710 0.49130 -0.14300
H 	H 	0.16890 0.82490 0.51930 0.11600
Cd	Cd	0.04815 0.04702 0.31582 1.24500
N 	N 	0.43810 0.84730 0.01510 -0.24500
H 	H 	0.36570 0.87010 0.99220 0.13700
N 	N 	0.24090 0.66910 0.60760 -0.25200
H 	H 	0.21050 0.73400 0.63580 0.15700
O 	O 	0.87190 0.98180 0.20860 -0.33100
O 	O 	0.81310 0.06480 0.31945 -0.34600
O 	O 	0.32560 0.03880 0.33530 -0.27500
O 	O 	0.17850 0.99680 0.22770 -0.35200
O 	O 	0.60920 0.72240 0.99860 -0.21100
O 	O 	0.38940 0.51600 0.60840 -0.20200
O 	O 	0.09570 0.93680 0.41290 -0.34200
O 	O 	0.02200 0.79290 0.30430 -0.30300
O 	O 	0.10810 0.24280 0.40370 -0.35800
O 	O 	0.04760 0.29890 0.29420 -0.30800
