data_crystal

_cell_length_a 15.17380
_cell_length_b 15.17380
_cell_length_c 18.85900
_cell_angle_alpha 90.00000
_cell_angle_beta  90.00000
_cell_angle_gamma 120.00000

_symmetry_space_group_name_	'P 1'
_symmetry_space_group_name_H-M	'P 1'

loop_
_symmetry_equiv_pos_as_xyz
  x,y,z

loop_
_atom_site_label
_atom_site_type_symbol
_atom_site_fract_x
_atom_site_fract_y
_atom_site_fract_z
_atom_site_charge
Ni	Ni	0.00000 0.83518 0.83333 1.07200
Ni	Ni	0.16482 0.16482 0.16667 1.07700
Ni	Ni	0.83518 -0.00000 0.50000 1.07300
H 	H 	0.44000 0.49700 0.26490 0.11500
H 	H 	0.99170 0.91410 0.97863 0.02200
H 	H 	0.50300 0.94300 0.59823 0.10800
H 	H 	0.19360 0.84900 0.77793 0.04900
H 	H 	0.94740 0.65720 0.73710 0.02300
H 	H 	0.00830 0.92240 0.68803 -0.00100
H 	H 	0.05260 0.70980 0.92957 0.02100
H 	H 	0.91410 0.99170 0.35470 0.02200
H 	H 	0.92240 0.00830 0.64530 -0.00000
H 	H 	0.89500 0.87000 0.07883 0.10500
H 	H 	0.70980 0.05260 0.40377 0.02200
H 	H 	0.10250 0.39920 0.01137 0.11400
H 	H 	0.13000 0.02500 0.41217 0.09000
H 	H 	0.56000 0.05700 0.40177 0.10900
H 	H 	0.15100 0.34460 0.11127 0.05000
H 	H 	0.07760 0.08590 0.02137 -0.00400
H 	H 	0.08590 0.07760 0.31197 -0.00400
H 	H 	0.65720 0.94740 0.59623 0.02300
H 	H 	0.97500 0.10500 0.74550 0.09900
H 	H 	0.60080 0.70330 0.34470 0.11700
H 	H 	0.84900 0.19360 0.55540 0.04900
H 	H 	0.87000 0.89500 0.25450 0.10600
H 	H 	0.05700 0.56000 0.93157 0.10800
H 	H 	0.89750 0.29670 0.65530 0.11600
H 	H 	0.80640 0.65540 0.88873 0.05000
H 	H 	0.29020 0.34280 0.26290 0.02100
H 	H 	0.49700 0.44000 0.06843 0.11500
H 	H 	0.29670 0.89750 0.67803 0.11600
H 	H 	0.70330 0.60080 0.98863 0.11700
H 	H 	0.34280 0.29020 0.07043 0.02200
H 	H 	0.34460 0.15100 0.22207 0.04900
H 	H 	0.02500 0.13000 0.92117 0.09100
H 	H 	0.94300 0.50300 0.73510 0.10800
H 	H 	0.65540 0.80640 0.44460 0.05100
H 	H 	0.10500 0.97500 0.58783 0.09900
H 	H 	0.39920 0.10250 0.32197 0.11500
C 	C 	0.17583 0.87433 0.73889 0.08900
C 	C 	0.36325 0.33198 0.11029 0.10200
C 	C 	0.87573 0.82473 0.04104 -0.11200
C 	C 	0.81343 0.78873 0.74345 0.38400
C 	C 	0.21058 0.94130 0.62157 0.07500
C 	C 	0.27799 0.98780 0.96327 -0.07600
C 	C 	0.58281 0.58281 0.16667 0.12000
C 	C 	0.72201 0.70981 0.70339 -0.09400
C 	C 	0.17527 0.05100 0.37438 -0.12200
C 	C 	0.30150 0.12567 0.26111 0.08800
C 	C 	0.02808 0.30327 0.88987 0.11500
C 	C 	0.03127 0.66802 0.88971 0.09000
C 	C 	0.97192 0.27519 0.77680 0.13900
C 	C 	0.56210 0.55220 0.70400 0.18600
C 	C 	0.99010 0.43790 0.37067 0.21900
C 	C 	0.08216 0.14934 0.01948 0.09600
C 	C 	0.82417 0.69850 0.92777 0.09400
C 	C 	0.78873 0.81343 0.58988 0.38400
C 	C 	0.97530 0.18657 0.41012 0.40400
C 	C 	0.63675 0.96873 0.55637 0.11700
C 	C 	0.33198 0.36325 0.22304 0.10200
C 	C 	0.94130 0.21058 0.71176 0.07500
C 	C 	0.12427 0.94900 0.62562 -0.11800
C 	C 	0.05100 0.17527 0.95896 -0.12500
C 	C 	0.76139 0.66471 0.98740 -0.11000
C 	C 	0.94900 0.12427 0.70771 -0.11800
C 	C 	0.00000 0.51528 0.83333 0.05800
C 	C 	0.35290 0.97620 0.92916 0.26600
C 	C 	0.69850 0.82417 0.40556 0.09400
C 	C 	0.87433 0.17583 0.59444 0.08900
C 	C 	0.91784 0.06718 0.64719 0.09400
C 	C 	0.96662 0.54440 0.77506 -0.09800
C 	C 	0.97620 0.35290 0.40417 0.26400
C 	C 	0.66471 0.76139 0.34593 -0.10600
C 	C 	0.57778 0.03338 0.44173 -0.12000
C 	C 	0.85066 0.93282 0.35281 0.09900
C 	C 	0.78942 0.73072 0.04509 0.08300
C 	C 	0.30327 0.02808 0.44347 0.11500
C 	C 	0.90332 0.23861 0.65407 -0.10600
C 	C 	0.55220 0.56210 0.62933 0.18600
C 	C 	0.48472 0.48472 0.16667 0.08900
C 	C 	0.64710 0.62330 0.73750 0.27600
C 	C 	0.06718 0.91784 0.68614 0.09400
C 	C 	0.02470 0.21127 0.25655 0.37100
C 	C 	0.41719 -0.00000 0.50000 0.10500
C 	C 	0.26928 0.05870 0.37843 0.07500
C 	C 	0.72481 0.69673 0.11013 0.12300
C 	C 	0.05870 0.26928 0.95491 0.07200
C 	C 	0.02380 0.37670 0.26250 0.28900
C 	C 	0.51528 -0.00000 0.50000 0.05800
C 	C 	0.96873 0.63675 0.77696 0.11700
C 	C 	0.42222 0.45560 0.22494 -0.13000
C 	C 	0.69673 0.72481 0.22320 0.12300
C 	C 	0.14934 0.08216 0.31386 0.09200
C 	C 	0.01220 0.29019 0.29661 -0.12200
C 	C 	0.62330 0.64710 0.59583 0.27600
C 	C 	0.23861 0.90332 0.67926 -0.10600
C 	C 	0.27519 0.97192 0.55653 0.13900
C 	C 	0.98780 0.27799 0.37006 -0.07200
C 	C 	0.00000 0.41719 0.83333 0.10500
C 	C 	0.70981 0.72201 0.62994 -0.09400
C 	C 	0.12567 0.30150 0.07223 0.08700
C 	C 	0.44780 0.00990 0.03734 0.15700
C 	C 	0.82473 0.87573 0.29229 -0.11500
C 	C 	0.93282 0.85066 0.98052 0.09400
C 	C 	0.09668 0.33529 0.01260 -0.10500
C 	C 	0.18657 0.97530 0.92321 0.40400
C 	C 	0.37670 0.02380 0.07084 0.28700
C 	C 	0.54440 0.96662 0.55827 -0.09800
C 	C 	0.29019 0.01220 0.03673 -0.11800
C 	C 	0.03338 0.57778 0.89161 -0.12000
C 	C 	0.43790 0.99010 0.96266 0.21600
C 	C 	0.21127 0.02470 0.07679 0.36700
C 	C 	0.66802 0.03127 0.44363 0.09100
C 	C 	0.73072 0.78942 0.28824 0.08100
C 	C 	0.33529 0.09668 0.32074 -0.10900
C 	C 	0.45560 0.42222 0.10839 -0.13000
C 	C 	0.00990 0.44780 0.29600 0.15400
N 	N 	0.90889 0.78995 0.92374 -0.22100
N 	N 	0.00000 0.69702 0.83333 -0.23700
N 	N 	0.00000 0.24089 0.83333 -0.14400
N 	N 	0.97290 0.36354 0.77354 -0.11800
N 	N 	0.75911 0.75911 0.16667 -0.12600
N 	N 	0.24089 -0.00000 0.50000 -0.14400
N 	N 	0.36354 0.97290 0.55979 -0.11800
N 	N 	0.60936 0.63646 0.22646 -0.12700
N 	N 	0.21005 0.11894 0.25708 -0.23200
N 	N 	0.02710 0.39064 0.89313 -0.12900
N 	N 	0.09111 0.88106 0.74292 -0.23200
N 	N 	0.11894 0.21005 0.07626 -0.23200
N 	N 	0.30298 0.30298 0.16667 -0.22400
N 	N 	0.39064 0.02710 0.44021 -0.12800
N 	N 	0.88106 0.09111 0.59041 -0.23200
N 	N 	0.69702 -0.00000 0.50000 -0.23700
N 	N 	0.78995 0.90889 0.40959 -0.22100
N 	N 	0.63646 0.60936 0.10687 -0.12700
O 	O 	0.13080 0.89120 0.89519 -0.39700
O 	O 	0.86920 0.76040 0.77147 -0.37900
O 	O 	0.17463 0.05133 0.92188 -0.28900
O 	O 	0.87670 0.82537 0.58855 -0.25000
O 	O 	0.76040 0.86920 0.56186 -0.37900
O 	O 	0.82537 0.87670 0.74478 -0.25100
O 	O 	0.23960 0.10880 0.10481 -0.38800
O 	O 	0.94867 0.12330 0.25522 -0.25400
O 	O 	0.89120 0.13080 0.43814 -0.39600
O 	O 	0.05133 0.17463 0.41145 -0.28800
O 	O 	0.10880 0.23960 0.22853 -0.38900
O 	O 	0.12330 0.94867 0.07812 -0.24900
F 	F 	0.38856 0.04261 0.14097 -0.40500
F 	F 	0.02280 0.53106 0.26284 -0.34100
F 	F 	0.49174 0.46894 0.73716 -0.34300
F 	F 	0.53106 0.02280 0.07050 -0.34200
F 	F 	0.34595 0.95739 0.85903 -0.39500
F 	F 	0.04261 0.38856 0.19237 -0.40500
F 	F 	0.65405 0.61144 0.80763 -0.39900
F 	F 	0.61144 0.65405 0.52570 -0.39900
F 	F 	0.95739 0.34595 0.47430 -0.39400
F 	F 	0.46894 0.49174 0.59617 -0.34300
F 	F 	0.97720 0.50826 0.40383 -0.33800
F 	F 	0.50826 0.97720 0.92950 -0.33800
