data_crystal

_cell_length_a 15.63800
_cell_length_b 15.63800
_cell_length_c 18.49900
_cell_angle_alpha 90.00000
_cell_angle_beta  90.00000
_cell_angle_gamma 120.00000

_symmetry_space_group_name_	'P 1'
_symmetry_space_group_name_H-M	'P 1'

loop_
_symmetry_equiv_pos_as_xyz
  x,y,z

loop_
_atom_site_label
_atom_site_type_symbol
_atom_site_fract_x
_atom_site_fract_y
_atom_site_fract_z
_atom_site_charge
Ni	Ni	0.82381 -0.00000 0.50000 1.07100
Ni	Ni	0.00000 0.82381 0.16667 1.07100
Ni	Ni	0.17619 0.17619 0.83333 1.07500
H 	H 	0.98910 0.89690 0.01713 0.02100
H 	H 	0.80550 0.65440 0.11373 0.00100
H 	H 	0.60240 0.70530 0.65213 0.10200
H 	H 	0.68330 0.62140 0.21343 0.07900
H 	H 	0.93810 0.31670 0.54677 0.08700
H 	H 	0.37860 0.06190 0.88010 0.07300
H 	H 	0.09220 0.10310 0.98287 -0.00000
H 	H 	0.34560 0.15110 0.78040 0.00100
H 	H 	0.06190 0.37860 0.78657 0.07200
H 	H 	0.89710 0.29470 0.34787 0.10300
H 	H 	0.95660 0.10530 0.24937 0.10000
H 	H 	0.43990 0.49950 0.73473 0.10200
H 	H 	0.29540 0.35610 0.73913 0.01100
H 	H 	0.85130 0.89470 0.75063 0.10700
H 	H 	0.84890 0.19450 0.44707 0.00000
H 	H 	0.10530 0.95660 0.41730 0.10000
H 	H 	0.89690 0.98910 0.64953 0.02200
H 	H 	0.70530 0.60240 0.01453 0.10400
H 	H 	0.93930 0.64390 0.26087 0.01200
H 	H 	0.15110 0.34560 0.88627 0.00100
H 	H 	0.90780 0.01090 0.35047 0.00100
H 	H 	0.05960 0.56010 0.06807 0.09600
H 	H 	0.62140 0.68330 0.45323 0.08000
H 	H 	0.06070 0.70460 0.07247 0.01100
H 	H 	0.29470 0.89710 0.31880 0.10300
H 	H 	0.14870 0.04340 0.58270 0.09300
H 	H 	0.94040 0.50050 0.26527 0.09600
H 	H 	0.64390 0.93930 0.40580 0.01100
H 	H 	0.10290 0.39760 0.98547 0.10100
H 	H 	0.89470 0.85130 0.91603 0.10600
H 	H 	0.01090 0.90780 0.31620 0.00100
H 	H 	0.35610 0.29540 0.92753 0.01100
H 	H 	0.31670 0.93810 0.11990 0.08600
H 	H 	0.50050 0.94040 0.40140 0.09600
H 	H 	0.39760 0.10290 0.68120 0.10100
H 	H 	0.10310 0.09220 0.68380 0.00100
H 	H 	0.70460 0.06070 0.59420 0.01100
H 	H 	0.49950 0.43990 0.93193 0.10200
H 	H 	0.19450 0.84890 0.21960 0.00000
H 	H 	0.04340 0.14870 0.08397 0.09400
H 	H 	0.56010 0.05960 0.59860 0.09600
H 	H 	0.65440 0.80550 0.55293 0.00200
C 	C 	0.26340 0.97870 0.03460 -0.01500
C 	C 	0.06870 0.90470 0.31700 0.09500
C 	C 	0.51180 -0.00000 0.50000 0.05000
C 	C 	0.78670 0.72160 0.95393 0.08800
C 	C 	0.71530 0.73660 0.36793 -0.03300
C 	C 	0.80970 0.87440 0.71063 -0.13400
C 	C 	0.00000 0.41710 0.16667 0.09800
C 	C 	0.67120 0.63100 0.26113 -0.05400
C 	C 	0.63100 0.67120 0.40553 -0.05400
C 	C 	0.83600 0.93130 0.65033 0.09900
C 	C 	0.17390 0.96310 0.07610 0.38000
C 	C 	0.27840 0.06510 0.62060 0.08000
C 	C 	0.33800 0.37290 0.77833 0.09900
C 	C 	0.32880 0.95980 0.07220 -0.06800
C 	C 	0.82610 0.78920 0.25723 0.36000
C 	C 	0.28470 0.02130 0.96540 -0.05700
C 	C 	0.58290 0.58290 0.83333 0.11200
C 	C 	0.41710 -0.00000 0.50000 0.09800
C 	C 	0.21330 0.93490 0.37940 0.07900
C 	C 	0.97470 0.41380 0.63077 0.10100
C 	C 	0.02530 0.43910 0.70257 0.04100
C 	C 	0.43910 0.02530 0.96410 0.04400
C 	C 	0.00000 0.51180 0.16667 0.05000
C 	C 	0.27800 0.96780 0.44310 0.12200
C 	C 	0.06470 0.19030 0.04397 -0.14200
C 	C 	0.17580 0.87030 0.26040 0.10200
C 	C 	0.96460 0.54060 0.22457 -0.11200
C 	C 	0.68980 0.72200 0.77643 0.10600
C 	C 	0.21080 0.03690 0.92390 0.34300
C 	C 	0.06510 0.27840 0.04607 0.07700
C 	C 	0.16400 0.09530 0.68300 0.09300
C 	C 	0.78920 0.82610 0.40943 0.36000
C 	C 	0.76310 0.66340 0.01373 -0.14900
C 	C 	0.87030 0.17580 0.40627 0.10200
C 	C 	0.97870 0.26340 0.63207 -0.01000
C 	C 	0.03220 0.31020 0.10977 0.09900
C 	C 	0.45940 0.42400 0.89123 -0.14200
C 	C 	0.12970 0.30550 0.92707 0.10000
C 	C 	0.23690 0.90030 0.31960 -0.14300
C 	C 	0.96310 0.17390 0.59057 0.38000
C 	C 	0.02130 0.28470 0.70127 -0.06200
C 	C 	0.12560 0.93530 0.37730 -0.13600
C 	C 	0.54060 0.96460 0.44210 -0.11200
C 	C 	0.90470 0.06870 0.34967 0.09500
C 	C 	0.93530 0.12560 0.28937 -0.13600
C 	C 	0.03540 0.57600 0.10877 -0.13200
C 	C 	0.96510 0.62710 0.22167 0.11300
C 	C 	0.93490 0.21330 0.28727 0.07900
C 	C 	0.03690 0.21080 0.74277 0.34800
C 	C 	0.37290 0.33800 0.88833 0.09900
C 	C 	0.30550 0.12970 0.73960 0.10100
C 	C 	0.69450 0.82420 0.59373 0.10700
C 	C 	0.96780 0.27800 0.22357 0.12100
C 	C 	0.58620 0.56090 0.29743 0.07100
C 	C 	0.56090 0.58620 0.36923 0.07100
C 	C 	0.93130 0.83600 0.01633 0.09400
C 	C 	0.42400 0.45940 0.77543 -0.14200
C 	C 	0.72200 0.68980 0.89023 0.10600
C 	C 	0.57600 0.03540 0.55790 -0.13200
C 	C 	0.33660 0.09970 0.68040 -0.14600
C 	C 	0.41380 0.97470 0.03590 0.09700
C 	C 	0.03490 0.66200 0.11167 0.08700
C 	C 	0.73660 0.71530 0.29873 -0.03300
C 	C 	0.19030 0.06470 0.62270 -0.13900
C 	C 	0.31020 0.03220 0.55690 0.09900
C 	C 	0.72160 0.78670 0.71273 0.08600
C 	C 	0.62710 0.96510 0.44500 0.11300
C 	C 	0.09970 0.33660 0.98627 -0.14200
C 	C 	0.95980 0.32880 0.59447 -0.07100
C 	C 	0.66340 0.76310 0.65293 -0.14400
C 	C 	0.04020 0.36900 0.73887 -0.03500
C 	C 	0.09530 0.16400 0.98367 0.09700
C 	C 	0.48820 0.48820 0.83333 0.07900
C 	C 	0.36900 0.04020 0.92780 -0.03900
C 	C 	0.66200 0.03490 0.55500 0.08700
C 	C 	0.90030 0.23690 0.34707 -0.14300
C 	C 	0.87440 0.80970 0.95603 -0.12900
C 	C 	0.82420 0.69450 0.07293 0.10800
N 	N 	0.90820 0.77860 0.07434 -0.22900
N 	N 	0.75160 0.75160 0.83333 -0.12900
N 	N 	0.06260 0.53660 0.73747 -0.00200
N 	N 	0.22140 0.12960 0.74101 -0.23800
N 	N 	0.24840 -0.00000 0.50000 -0.14600
N 	N 	0.63730 0.60440 0.89213 -0.13400
N 	N 	0.60440 0.63730 0.77453 -0.13500
N 	N 	0.77860 0.90820 0.59232 -0.22900
N 	N 	0.53660 0.06260 0.92920 -0.00200
N 	N 	0.68960 -0.00000 0.50000 -0.24300
N 	N 	0.52600 0.46340 0.26253 -0.00500
N 	N 	0.03290 0.39560 0.10787 -0.13600
N 	N 	0.12960 0.22140 0.92566 -0.23900
N 	N 	0.47400 0.93740 0.07080 -0.00900
N 	N 	0.00000 0.68960 0.16667 -0.24300
N 	N 	0.93740 0.47400 0.59587 -0.00900
N 	N 	0.09180 0.87040 0.25899 -0.23900
N 	N 	0.00000 0.24840 0.16667 -0.14600
N 	N 	0.36270 0.96710 0.44120 -0.12600
N 	N 	0.96710 0.36270 0.22547 -0.12600
N 	N 	0.87040 0.09180 0.40768 -0.23900
N 	N 	0.39560 0.03290 0.55880 -0.13500
N 	N 	0.31040 0.31040 0.83333 -0.23100
N 	N 	0.46340 0.52600 0.40413 -0.00500
O 	O 	0.88100 0.12480 0.56404 -0.42600
O 	O 	0.46100 0.40370 0.30233 -0.07700
O 	O 	0.11900 0.24380 0.76930 -0.41700
O 	O 	0.03170 0.15760 0.58617 -0.31100
O 	O 	0.92600 0.47200 0.53037 -0.09700
O 	O 	0.05730 0.59630 0.69767 -0.08400
O 	O 	0.52800 0.45400 0.19703 -0.10400
O 	O 	0.12590 0.96830 0.91950 -0.27000
O 	O 	0.47200 0.92600 0.13630 -0.09700
O 	O 	0.59630 0.05730 0.96900 -0.08400
O 	O 	0.75620 0.87520 0.43596 -0.40700
O 	O 	0.07400 0.54600 0.80297 -0.10500
O 	O 	0.53900 0.94270 0.03100 -0.06300
O 	O 	0.87410 0.84240 0.41383 -0.27200
O 	O 	0.96830 0.12590 0.74717 -0.27500
O 	O 	0.45400 0.52800 0.46963 -0.10300
O 	O 	0.84240 0.87410 0.25283 -0.27300
O 	O 	0.12480 0.88100 0.10263 -0.42600
O 	O 	0.24380 0.11900 0.89737 -0.41500
O 	O 	0.15760 0.03170 0.08050 -0.31100
O 	O 	0.94270 0.53900 0.63567 -0.06200
O 	O 	0.40370 0.46100 0.36433 -0.07700
O 	O 	0.54600 0.07400 0.86370 -0.10600
O 	O 	0.87520 0.75620 0.23070 -0.40700
