data_crystal

_cell_length_a 15.54000
_cell_length_b 15.54000
_cell_length_c 18.67900
_cell_angle_alpha 90.00000
_cell_angle_beta  90.00000
_cell_angle_gamma 120.00000

_symmetry_space_group_name_	'P 1'
_symmetry_space_group_name_H-M	'P 1'

loop_
_symmetry_equiv_pos_as_xyz
  x,y,z

loop_
_atom_site_label
_atom_site_type_symbol
_atom_site_fract_x
_atom_site_fract_y
_atom_site_fract_z
_atom_site_charge
Ni	Ni	0.17468 0.17468 0.16667 1.07500
Ni	Ni	-0.00000 0.82532 0.83333 1.07100
Ni	Ni	0.82532 0.00000 0.50000 1.07100
H 	H 	0.49460 0.93550 0.59480 0.09500
H 	H 	0.18870 0.84020 0.77600 0.04000
H 	H 	0.49540 0.54090 0.61333 0.11300
H 	H 	0.14010 0.03180 0.41400 0.08800
H 	H 	0.34850 0.15980 0.22400 0.04100
H 	H 	0.36220 0.28950 0.07677 0.01800
H 	H 	0.70780 0.59860 0.98957 0.10900
H 	H 	0.54090 0.49540 0.72000 0.11300
H 	H 	0.10830 0.96820 0.58600 0.09600
H 	H 	0.90730 0.00630 0.64973 0.00500
H 	H 	0.07270 0.71050 0.92323 0.02000
H 	H 	0.09270 0.09900 0.01693 0.00400
H 	H 	0.00630 0.90730 0.68360 0.00500
H 	H 	0.28950 0.36220 0.25657 0.01800
H 	H 	0.10920 0.40140 0.01043 0.10600
H 	H 	0.89170 0.85990 0.08067 0.10200
H 	H 	0.92730 0.63780 0.74343 0.01900
H 	H 	0.45910 0.95450 0.94667 0.10700
H 	H 	0.96820 0.10830 0.74733 0.09600
H 	H 	0.71050 0.07270 0.41010 0.02000
H 	H 	0.04550 0.50460 0.28000 0.12500
H 	H 	0.09900 0.09270 0.31640 0.00500
H 	H 	0.81130 0.65150 0.89067 0.04200
H 	H 	0.29220 0.89080 0.67710 0.10800
H 	H 	0.15980 0.34850 0.10933 0.04100
H 	H 	0.85990 0.89170 0.25267 0.10300
H 	H 	0.50540 0.44090 0.07187 0.10300
H 	H 	0.59860 0.70780 0.34377 0.10800
H 	H 	0.99370 0.90100 0.98307 0.02700
H 	H 	0.44090 0.50540 0.26147 0.10300
H 	H 	0.90100 0.99370 0.35027 0.02600
H 	H 	0.03180 0.14010 0.91933 0.08800
H 	H 	0.55910 0.06450 0.40520 0.09600
H 	H 	0.89080 0.29220 0.65623 0.10800
H 	H 	0.63780 0.92730 0.58990 0.01900
H 	H 	0.50460 0.04550 0.05333 0.12400
H 	H 	0.65150 0.81130 0.44267 0.04200
H 	H 	0.95450 0.45910 0.38667 0.10600
H 	H 	0.06450 0.55910 0.92813 0.09500
H 	H 	0.93550 0.49460 0.73853 0.09500
H 	H 	0.40140 0.10920 0.32290 0.10600
H 	H 	0.84020 0.18870 0.55733 0.04000
C 	C 	0.57530 0.03900 0.44480 -0.12300
C 	C 	0.97910 0.41990 0.36847 -0.07300
C 	C 	0.82090 0.78990 0.74310 0.36700
C 	C 	0.44080 0.02090 0.03513 -0.15700
C 	C 	0.15970 0.09450 0.31695 0.08300
C 	C 	0.95890 0.62440 0.78053 0.10200
C 	C 	0.41550 0.00000 0.50000 0.09100
C 	C 	0.73070 0.71560 0.70150 -0.10100
C 	C 	0.90550 0.06520 0.65028 0.08600
C 	C 	0.27410 0.96730 0.55460 0.12500
C 	C 	0.03270 0.30680 0.88793 0.10300
C 	C 	0.96730 0.27410 0.77873 0.12500
C 	C 	0.04110 0.66550 0.88613 0.07600
C 	C 	0.37560 0.33450 0.11387 0.09000
C 	C 	0.12520 0.94070 0.62380 -0.12900
C 	C 	0.06520 0.90550 0.68305 0.08600
C 	C 	0.20920 0.93460 0.62090 0.07200
C 	C 	0.36800 0.02690 0.07893 0.33600
C 	C 	0.66550 0.04110 0.44720 0.07700
C 	C 	0.18450 0.05930 0.37620 -0.13100
C 	C 	0.55920 0.58010 0.63153 -0.11700
C 	C 	0.63200 0.65890 0.58773 0.32500
C 	C 	0.34110 0.97310 0.92107 0.31400
C 	C 	0.48890 0.48890 0.16667 0.08500
C 	C 	0.33450 0.37560 0.21947 0.09000
C 	C 	0.30680 0.03270 0.44540 0.10200
C 	C 	0.02090 0.44080 0.29820 -0.16100
C 	C 	0.58010 0.55920 0.70180 -0.11700
C 	C 	0.97310 0.34110 0.41227 0.31200
C 	C 	0.62440 0.95890 0.55280 0.10300
C 	C 	0.00000 0.51110 0.83333 0.05100
C 	C 	0.01510 0.28440 0.29850 -0.12900
C 	C 	0.33910 0.10400 0.32209 -0.12000
C 	C 	0.71560 0.73070 0.63183 -0.10100
C 	C 	0.09450 0.15970 0.01638 0.08700
C 	C 	0.98490 0.26930 0.36817 -0.07800
C 	C 	0.53630 0.96100 0.55520 -0.10100
C 	C 	0.69320 0.72590 0.22127 0.11000
C 	C 	0.94070 0.12520 0.70953 -0.12900
C 	C 	0.41990 0.97910 0.96487 -0.07800
C 	C 	0.76490 0.66090 0.98876 -0.12200
C 	C 	0.84030 0.93480 0.34972 0.09000
C 	C 	0.17910 0.96900 0.92357 0.38500
C 	C 	0.89600 0.23510 0.65542 -0.11800
C 	C 	0.82830 0.69350 0.93007 0.09400
C 	C 	0.03900 0.57530 0.88853 -0.12300
C 	C 	0.69350 0.82830 0.40327 0.09300
C 	C 	0.78990 0.82090 0.59023 0.36700
C 	C 	0.79080 0.72540 0.04577 0.08000
C 	C 	0.46370 0.42470 0.11147 -0.13600
C 	C 	0.28440 0.01510 0.03483 -0.12500
C 	C 	0.13480 0.30650 0.06993 0.08600
C 	C 	0.72590 0.69320 0.11207 0.10900
C 	C 	0.87480 0.81550 0.04287 -0.12200
C 	C 	0.96100 0.53630 0.77813 -0.10200
C 	C 	0.65890 0.63200 0.74560 0.32500
C 	C 	0.27460 0.06540 0.37910 0.07100
C 	C 	0.23510 0.89600 0.67791 -0.11800
C 	C 	0.93480 0.84030 0.98362 0.08600
C 	C 	0.06540 0.27460 0.95423 0.06800
C 	C 	0.21010 0.03100 0.07643 0.35000
C 	C 	0.58450 0.58450 0.16667 0.10400
C 	C 	0.51110 0.00000 0.50000 0.05100
C 	C 	0.96900 0.17910 0.40977 0.38500
C 	C 	0.66090 0.76490 0.34458 -0.11800
C 	C 	0.93460 0.20920 0.71243 0.07200
C 	C 	0.86520 0.17170 0.59673 0.08800
C 	C 	0.81550 0.87480 0.29047 -0.12600
C 	C 	0.03100 0.21010 0.25690 0.35400
C 	C 	0.72540 0.79080 0.28757 0.07800
C 	C 	0.42470 0.46370 0.22187 -0.13600
C 	C 	0.05930 0.18450 0.95713 -0.13400
C 	C 	0.10400 0.33910 0.01124 -0.11600
C 	C 	0.30650 0.13480 0.26340 0.08700
C 	C 	0.02690 0.36800 0.25440 0.33900
C 	C 	0.17170 0.86520 0.73660 0.08800
C 	C 	-0.00000 0.41550 0.83333 0.09100
C 	C 	0.26930 0.98490 0.96517 -0.08300
N 	N 	-0.00000 0.69130 0.83333 -0.23800
N 	N 	0.69130 0.00000 0.50000 -0.23800
N 	N 	0.86910 0.08820 0.59325 -0.23100
N 	N 	0.08820 0.86910 0.74008 -0.23200
N 	N 	0.75610 0.75610 0.16667 -0.13400
N 	N 	0.60610 0.64060 0.22530 -0.13200
N 	N 	0.35940 0.96550 0.55863 -0.12400
N 	N 	0.96550 0.35940 0.77470 -0.12400
N 	N 	0.03450 0.39390 0.89196 -0.13400
N 	N 	0.21910 0.13090 0.25992 -0.23100
N 	N 	0.13090 0.21910 0.07341 -0.23100
N 	N 	0.91180 0.78090 0.92659 -0.22100
N 	N 	0.30870 0.30870 0.16667 -0.22600
N 	N 	0.00000 0.24390 0.83333 -0.15200
N 	N 	0.78090 0.91180 0.40675 -0.22200
N 	N 	0.39390 0.03450 0.44137 -0.13400
N 	N 	0.64060 0.60610 0.10804 -0.13200
N 	N 	0.24390 0.00000 0.50000 -0.15200
O 	O 	0.88492 0.12851 0.43836 -0.39800
O 	O 	0.87149 0.75641 0.77169 -0.38000
O 	O 	0.16010 0.03790 0.92037 -0.30100
O 	O 	0.12851 0.88492 0.89498 -0.39800
O 	O 	0.96210 0.12220 0.25370 -0.26700
O 	O 	0.12220 0.96210 0.07963 -0.26200
O 	O 	0.75641 0.87149 0.56164 -0.38000
O 	O 	0.11508 0.24359 0.22831 -0.39000
O 	O 	0.87780 0.83990 0.58703 -0.26300
O 	O 	0.03790 0.16010 0.41297 -0.30100
O 	O 	0.24359 0.11508 0.10502 -0.38900
O 	O 	0.83990 0.87780 0.74630 -0.26300
F 	F 	0.66020 0.60550 0.81570 -0.44600
F 	F 	0.39450 0.05470 0.14903 -0.45200
F 	F 	0.60550 0.66020 0.51763 -0.44600
F 	F 	0.05470 0.39450 0.18430 -0.45200
F 	F 	0.33980 0.94530 0.85097 -0.44100
F 	F 	0.94530 0.33980 0.48237 -0.44000
