data_crystal

_cell_length_a 15.67300
_cell_length_b 15.67300
_cell_length_c 18.53200
_cell_angle_alpha 90.00000
_cell_angle_beta  90.00000
_cell_angle_gamma 120.00000

_symmetry_space_group_name_	'P 1'
_symmetry_space_group_name_H-M	'P 1'

loop_
_symmetry_equiv_pos_as_xyz
  x,y,z

loop_
_atom_site_label
_atom_site_type_symbol
_atom_site_fract_x
_atom_site_fract_y
_atom_site_fract_z
_atom_site_charge
Ni	Ni	0.00000 0.17763 0.16667 1.06700
Ni	Ni	0.82237 0.82237 0.83333 1.08200
Ni	Ni	0.17763 0.00000 0.50000 1.06800
H 	H 	0.88520 0.88780 0.68003 0.00900
H 	H 	0.56080 0.49560 0.73460 0.08600
H 	H 	0.93480 0.43920 0.06793 0.08200
H 	H 	0.39540 0.29710 0.65210 0.08800
H 	H 	0.11220 0.99740 0.34670 0.01300
H 	H 	0.95790 0.85210 0.08153 0.10300
H 	H 	0.06100 0.52770 0.54930 0.12400
H 	H 	0.34530 0.19950 0.55190 -0.00200
H 	H 	0.37380 0.31240 0.45320 0.07100
H 	H 	0.85420 0.65470 0.88523 -0.00200
H 	H 	0.09830 0.70290 0.34790 0.08800
H 	H 	0.04210 0.89420 0.25180 0.09700
H 	H 	0.11480 0.00260 0.65330 -0.00900
H 	H 	0.88780 0.88520 0.98663 0.01000
H 	H 	0.89420 0.04210 0.41487 0.09600
H 	H 	0.47480 0.04390 0.05327 0.13400
H 	H 	0.64220 0.70870 0.92187 0.00600
H 	H 	0.14790 0.10580 0.74820 0.09000
H 	H 	0.04390 0.47480 0.61340 0.13300
H 	H 	0.00260 0.11480 0.01337 -0.00900
H 	H 	0.43920 0.93480 0.59873 0.08100
H 	H 	0.29130 0.93350 0.58853 0.00400
H 	H 	0.19950 0.34530 0.11477 -0.00100
H 	H 	0.70290 0.09830 0.31877 0.08800
H 	H 	0.31240 0.37380 0.21347 0.07100
H 	H 	0.29710 0.39540 0.01457 0.08800
H 	H 	0.56910 0.52520 0.38660 0.14500
H 	H 	0.52520 0.56910 0.28007 0.14500
H 	H 	0.35780 0.06650 0.41147 0.00500
H 	H 	0.06650 0.35780 0.25520 0.00500
H 	H 	0.14580 0.80050 0.44810 0.00000
H 	H 	0.70870 0.64220 0.74480 0.00600
H 	H 	0.62620 0.93860 0.88013 0.07900
H 	H 	0.47230 0.53330 0.21597 0.13000
H 	H 	0.06140 0.68760 0.54680 0.06200
H 	H 	0.10580 0.14790 0.91847 0.09000
H 	H 	0.85210 0.95790 0.58513 0.10400
H 	H 	0.93350 0.29130 0.07813 0.00400
H 	H 	0.93900 0.46670 0.78403 0.13200
H 	H 	0.06520 0.50440 0.26540 0.08200
H 	H 	0.95610 0.43090 0.71993 0.15000
H 	H 	0.60460 0.90170 0.68123 0.08900
H 	H 	0.90170 0.60460 0.98543 0.09000
H 	H 	0.50440 0.06520 0.40127 0.08200
H 	H 	0.93860 0.62620 0.78653 0.08000
H 	H 	0.65470 0.85420 0.78143 -0.00100
H 	H 	0.53330 0.47230 0.45070 0.13000
H 	H 	0.99740 0.11220 0.31997 0.01300
H 	H 	0.68760 0.06140 0.11987 0.06400
H 	H 	0.52770 0.06100 0.11737 0.12400
H 	H 	0.49560 0.56080 0.93207 0.08500
H 	H 	0.46670 0.93900 0.88263 0.13100
H 	H 	0.43090 0.95610 0.94673 0.14800
H 	H 	0.80050 0.14580 0.21857 0.00000
C 	C 	0.66370 0.62660 0.78220 0.08700
C 	C 	0.67290 0.03700 0.07307 -0.07500
C 	C 	0.19230 0.12410 0.71010 -0.15500
C 	C 	0.21150 0.28100 0.95387 0.07400
C 	C 	0.06950 0.78850 0.28720 0.07800
C 	C 	0.80770 0.93180 0.62323 -0.14700
C 	C 	0.58710 0.01750 0.04087 0.05900
C 	C 	0.17050 0.06500 0.65130 0.10100
C 	C 	0.46430 0.03940 0.44177 -0.12900
C 	C 	0.02010 0.73610 0.63140 -0.06300
C 	C 	0.96280 0.78720 0.74243 0.34600
C 	C 	0.00000 0.58620 0.16667 0.09500
C 	C 	0.93050 0.71900 0.04613 0.08200
C 	C 	0.90160 0.66380 0.98633 -0.15300
C 	C 	0.09840 0.76220 0.34700 -0.14700
C 	C 	0.17850 0.30660 0.07337 0.07900
C 	C 	0.21280 0.17560 0.40910 0.33600
C 	C 	0.01750 0.58710 0.62580 0.05500
C 	C 	0.41290 0.43040 0.29247 0.08700
C 	C 	0.89450 0.82950 0.98463 0.09800
C 	C 	0.96290 0.33630 0.11553 0.10700
C 	C 	0.69340 0.87190 0.74003 0.08500
C 	C 	0.71900 0.93050 0.62053 0.07800
C 	C 	0.66380 0.90160 0.68033 -0.14500
C 	C 	0.03710 0.37340 0.21780 0.07900
C 	C 	0.17560 0.21280 0.25757 0.33600
C 	C 	0.28100 0.21150 0.71280 0.07700
C 	C 	0.28400 0.26390 0.36860 -0.03800
C 	C 	0.82150 0.12810 0.25997 0.08400
C 	C 	0.03700 0.67290 0.59360 -0.06900
C 	C 	0.06500 0.17050 0.01537 0.10400
C 	C 	0.26390 0.28400 0.29807 -0.03800
C 	C 	0.98250 0.56960 0.70753 0.11800
C 	C 	0.33630 0.96290 0.55113 0.10700
C 	C 	0.78850 0.06950 0.37947 0.07800
C 	C 	0.36410 0.32710 0.40640 -0.09100
C 	C 	0.43040 0.41290 0.37420 0.08700
C 	C 	0.97990 0.71600 0.70193 -0.00600
C 	C 	0.03720 0.82440 0.59090 0.32000
C 	C 	0.76220 0.09840 0.31967 -0.14700
C 	C 	0.62660 0.66370 0.88447 0.08700
C 	C 	0.57510 0.53570 0.77510 -0.13600
C 	C 	0.41380 0.41380 0.83333 0.10700
C 	C 	0.58620 0.00000 0.50000 0.09500
C 	C 	0.03380 0.72210 0.22360 0.08800
C 	C 	0.96300 0.63590 0.73973 -0.11400
C 	C 	0.68830 0.96620 0.55693 0.10900
C 	C 	0.06820 0.87590 0.28990 -0.14800
C 	C 	0.30660 0.17850 0.59330 0.08100
C 	C 	0.87590 0.06820 0.37677 -0.14800
C 	C 	0.12810 0.82150 0.40670 0.08400
C 	C 	0.96060 0.42490 0.10843 -0.11100
C 	C 	0.51100 0.51100 0.83333 0.06100
C 	C 	0.87190 0.69340 0.92663 0.08700
C 	C 	0.03940 0.46430 0.22490 -0.12900
C 	C 	0.27790 0.31170 0.89027 0.08800
C 	C 	0.78720 0.96280 0.92423 0.34800
C 	C 	0.53570 0.57510 0.89157 -0.13600
C 	C 	0.73610 0.02010 0.03527 -0.05600
C 	C 	0.72210 0.03380 0.44307 0.08800
C 	C 	0.56960 0.98250 0.95913 0.11300
C 	C 	0.37340 0.03710 0.44887 0.07800
C 	C 	0.93500 0.10550 0.31797 0.10200
C 	C 	0.12410 0.19230 0.95657 -0.15600
C 	C 	0.82440 0.03720 0.07577 0.31600
C 	C 	0.33620 0.23780 0.65300 -0.14900
C 	C 	0.42490 0.96060 0.55823 -0.11100
C 	C 	0.93180 0.80770 0.04343 -0.13900
C 	C 	0.96620 0.68830 0.10973 0.10900
C 	C 	0.82950 0.89450 0.68203 0.10600
C 	C 	0.71600 0.97990 0.96473 -0.01300
C 	C 	0.32710 0.36410 0.26027 -0.09100
C 	C 	0.23780 0.33620 0.01367 -0.14500
C 	C 	0.10550 0.93500 0.34870 0.10200
C 	C 	-0.00000 0.48900 0.16667 0.03600
C 	C 	0.48900 0.00000 0.50000 0.03600
C 	C 	0.63590 0.96300 0.92693 -0.10900
C 	C 	0.31170 0.27790 0.77640 0.08800
N 	N 	0.96490 0.60390 0.10823 -0.13300
N 	N 	0.91030 0.13210 0.25987 -0.23200
N 	N 	0.36100 0.39610 0.89177 -0.14400
N 	N 	0.77820 0.86790 0.74013 -0.23600
N 	N 	0.69110 0.69110 0.83333 -0.24000
N 	N 	-0.00000 0.75240 0.16667 -0.14500
N 	N 	0.22180 0.08970 0.59320 -0.24200
N 	N 	0.51970 0.03700 0.07267 -0.28000
N 	N 	0.13210 0.91030 0.40680 -0.23200
N 	N 	0.48270 0.96300 0.92733 -0.29000
N 	N 	0.60390 0.96490 0.55843 -0.13400
N 	N 	0.03700 0.51970 0.59400 -0.27900
N 	N 	0.75240 0.00000 0.50000 -0.14500
N 	N 	0.51730 0.48030 0.40600 -0.28600
N 	N 	0.30890 0.00000 0.50000 -0.25300
N 	N 	0.86790 0.77820 0.92653 -0.23600
N 	N 	0.03510 0.63900 0.22510 -0.14300
N 	N 	0.39610 0.36100 0.77490 -0.14400
N 	N 	0.63900 0.03510 0.44157 -0.14300
N 	N 	0.24760 0.24760 0.83333 -0.13600
N 	N 	-0.00000 0.30890 0.16667 -0.25300
N 	N 	0.08970 0.22180 0.07347 -0.24300
N 	N 	0.96300 0.48270 0.73933 -0.29100
N 	N 	0.48030 0.51730 0.26067 -0.28600
O 	O 	0.87450 0.11970 0.10347 -0.39800
O 	O 	0.15540 0.12520 0.25017 -0.29500
O 	O 	0.12550 0.24520 0.22987 -0.41600
O 	O 	0.96980 0.84460 0.58350 -0.25800
O 	O 	0.75480 0.88030 0.89653 -0.41100
O 	O 	0.12520 0.15540 0.41650 -0.29500
O 	O 	0.88030 0.75480 0.77013 -0.41000
O 	O 	0.24520 0.12550 0.43680 -0.41600
O 	O 	0.84460 0.96980 0.08317 -0.25400
O 	O 	0.11970 0.87450 0.56320 -0.39900
O 	O 	0.03020 0.87480 0.74983 -0.29100
O 	O 	0.87480 0.03020 0.91683 -0.29300
