data_crystal

_cell_length_a 15.69500
_cell_length_b 15.69500
_cell_length_c 18.54600
_cell_angle_alpha 90.00000
_cell_angle_beta  90.00000
_cell_angle_gamma 120.00000

_symmetry_space_group_name_	'P 1'
_symmetry_space_group_name_H-M	'P 1'

loop_
_symmetry_equiv_pos_as_xyz
  x,y,z

loop_
_atom_site_label
_atom_site_type_symbol
_atom_site_fract_x
_atom_site_fract_y
_atom_site_fract_z
_atom_site_charge
Ni	Ni	0.82243 0.00000 -0.00000 1.06200
Ni	Ni	0.17757 0.17757 0.33333 1.07500
Ni	Ni	0.00000 0.82243 0.66667 1.06900
H 	H 	0.93130 0.31210 0.04810 0.04700
H 	H 	0.70350 0.60160 0.51477 0.08900
H 	H 	0.46020 0.96670 0.56417 0.04500
H 	H 	0.99180 0.89460 0.51667 0.02500
H 	H 	0.06610 0.56100 0.57123 0.08500
H 	H 	0.50650 0.53980 0.89750 0.05400
H 	H 	0.96670 0.46020 0.10250 0.03900
H 	H 	0.93390 0.49490 0.76210 0.08600
H 	H 	0.09720 0.10540 0.48333 0.00600
H 	H 	0.61920 0.68790 0.95190 0.05200
H 	H 	0.65450 0.80710 0.05250 -0.00800
H 	H 	0.34550 0.15260 0.28083 -0.00100
H 	H 	0.49350 0.03330 0.43583 0.05900
H 	H 	0.90280 0.00820 0.85000 0.00900
H 	H 	0.68790 0.61920 0.71477 0.04500
H 	H 	0.96150 0.10850 0.75070 0.09300
H 	H 	0.93800 0.64240 0.76030 0.00900
H 	H 	0.19290 0.84740 0.71917 -0.00100
H 	H 	0.14700 0.03850 0.08403 0.08100
H 	H 	0.00820 0.90280 0.81667 0.00400
H 	H 	0.10540 0.09720 0.18333 0.00600
H 	H 	0.06870 0.38080 0.28523 0.03400
H 	H 	0.15260 0.34550 0.38583 -0.00200
H 	H 	0.29560 0.35760 0.23970 0.00500
H 	H 	0.31210 0.93130 0.61857 0.05300
H 	H 	0.43900 0.50510 0.23790 0.08900
H 	H 	0.56100 0.06610 0.09543 0.08000
H 	H 	0.53980 0.50650 0.76917 0.05200
H 	H 	0.80710 0.65450 0.61417 0.00100
H 	H 	0.10850 0.96150 0.91597 0.09500
H 	H 	0.35760 0.29560 0.42697 0.00700
H 	H 	0.89460 0.99180 0.15000 0.02300
H 	H 	0.85300 0.89150 0.24930 0.09700
H 	H 	0.38080 0.06870 0.38143 0.03600
H 	H 	0.60160 0.70350 0.15190 0.08600
H 	H 	0.50510 0.43900 0.42877 0.09100
H 	H 	0.29650 0.89810 0.81857 0.08800
H 	H 	0.10190 0.39840 0.48523 0.08700
H 	H 	0.84740 0.19290 0.94750 0.00900
H 	H 	0.06200 0.70440 0.57303 0.00800
H 	H 	0.64240 0.93800 0.90637 0.00600
H 	H 	0.49490 0.93390 0.90457 0.07800
H 	H 	0.03850 0.14700 0.58263 0.08500
H 	H 	0.89150 0.85300 0.41737 0.09700
H 	H 	0.70440 0.06200 0.09363 0.01000
H 	H 	0.89810 0.29650 0.84810 0.09100
H 	H 	0.03330 0.49350 0.23083 0.05900
H 	H 	0.39840 0.10190 0.18143 0.08600
C 	C 	0.03000 0.30770 0.60973 0.09100
C 	C 	0.86920 0.17490 0.90670 0.08700
C 	C 	0.17490 0.86920 0.75997 0.08400
C 	C 	0.71440 0.73720 0.86790 -0.04400
C 	C 	0.62570 0.96360 0.94557 0.11200
C 	C 	0.19000 0.06360 0.12293 -0.13100
C 	C 	0.72000 0.78760 0.21250 0.07100
C 	C 	0.48830 0.48830 0.33333 0.07500
C 	C 	0.06760 0.28000 0.54583 0.06600
C 	C 	-0.00000 0.51170 0.66667 0.04300
C 	C 	0.81000 0.87360 0.21040 -0.12800
C 	C 	0.82510 0.69430 0.57337 0.08900
C 	C 	0.02280 0.28560 0.20123 -0.07800
C 	C 	0.56310 0.58490 0.87330 -0.04000
C 	C 	0.30770 0.03000 0.05693 0.08800
C 	C 	0.09740 0.16470 0.48343 0.07700
C 	C 	0.97820 0.41510 0.12670 -0.00600
C 	C 	0.33790 0.37430 0.27890 0.08700
C 	C 	0.96360 0.62570 0.72110 0.10200
C 	C 	0.93240 0.21240 0.78750 0.06500
C 	C 	0.78760 0.72000 0.45417 0.07100
C 	C 	0.37430 0.33790 0.38777 0.08700
C 	C 	0.27770 0.97000 0.94307 0.13000
C 	C 	0.90260 0.06730 0.84990 0.08100
C 	C 	0.30570 0.13080 0.24003 0.08300
C 	C 	0.03870 0.57570 0.61043 -0.13100
C 	C 	-0.00000 0.41480 0.66667 0.08700
C 	C 	0.41480 0.00000 -0.00000 0.07600
C 	C 	0.36980 0.04230 0.42763 0.00600
C 	C 	0.96130 0.53700 0.72290 -0.10900
C 	C 	0.76180 0.66170 0.51367 -0.13600
C 	C 	0.03510 0.21060 0.24263 0.34300
C 	C 	0.95770 0.32750 0.09430 -0.03600
C 	C 	0.97000 0.27770 0.72360 0.11600
C 	C 	0.06360 0.19000 0.54373 -0.13100
C 	C 	0.32750 0.95770 0.57237 -0.03300
C 	C 	0.12640 0.93640 0.87707 -0.12600
C 	C 	0.28000 0.06760 0.12083 0.06400
C 	C 	0.66170 0.76180 0.15300 -0.13900
C 	C 	0.72230 0.69230 0.39027 0.09700
C 	C 	0.57570 0.03870 0.05623 -0.12100
C 	C 	0.16470 0.09740 0.18323 0.07500
C 	C 	0.41510 0.97820 0.53997 -0.01100
C 	C 	0.82450 0.78940 0.75737 0.35700
C 	C 	0.23820 0.89990 0.81967 -0.13200
C 	C 	0.04230 0.36980 0.23903 0.00800
C 	C 	0.42430 0.46300 0.27710 -0.14300
C 	C 	0.17550 0.96490 0.57597 0.37100
C 	C 	0.87360 0.81000 0.45627 -0.12600
C 	C 	0.93270 0.83530 0.51657 0.08300
C 	C 	0.96490 0.17550 0.09070 0.37500
C 	C 	0.63020 0.67250 0.90570 -0.01600
C 	C 	0.46300 0.42430 0.38957 -0.14300
C 	C 	0.02180 0.43690 0.20663 -0.08500
C 	C 	0.33830 0.10010 0.18033 -0.13800
C 	C 	0.93640 0.12640 0.78960 -0.12600
C 	C 	0.06730 0.90260 0.81677 0.07900
C 	C 	0.69430 0.82510 0.09330 0.08800
C 	C 	0.21060 0.03510 0.42403 0.34800
C 	C 	0.97720 0.26280 0.13210 -0.02700
C 	C 	0.43690 0.02180 0.46003 -0.07700
C 	C 	0.10010 0.33830 0.48633 -0.13900
C 	C 	0.67250 0.63020 0.76097 -0.01300
C 	C 	0.51170 0.00000 -0.00000 0.01700
C 	C 	0.83530 0.93270 0.15010 0.08200
C 	C 	0.89990 0.23820 0.84700 -0.13200
C 	C 	0.69230 0.72230 0.27640 0.09600
C 	C 	0.03640 0.66210 0.61223 0.07500
C 	C 	0.78940 0.82450 0.90930 0.35400
C 	C 	0.53700 0.96130 0.94377 -0.08300
C 	C 	0.58520 0.58520 0.33333 0.10000
C 	C 	0.58490 0.56310 0.79337 -0.04300
C 	C 	0.26280 0.97720 0.53457 -0.02900
C 	C 	0.73720 0.71440 0.79877 -0.04900
C 	C 	0.21240 0.93240 0.87917 0.06200
C 	C 	0.13080 0.30570 0.42663 0.08400
C 	C 	0.66210 0.03640 0.05443 0.06500
C 	C 	0.28560 0.02280 0.46543 -0.07300
N 	N 	0.90870 0.77850 0.57455 -0.22700
N 	N 	0.24660 0.00000 -0.00000 -0.16300
N 	N 	0.09130 0.86980 0.75879 -0.23600
N 	N 	0.22150 0.13020 0.24121 -0.23500
N 	N 	0.13020 0.22150 0.42545 -0.23600
N 	N 	0.86980 0.09130 0.90788 -0.22800
N 	N 	0.00000 0.68880 0.66667 -0.24300
N 	N 	0.77850 0.90870 0.09212 -0.23100
N 	N 	0.75340 0.75340 0.33333 -0.13400
N 	N 	0.36080 0.96550 0.94107 -0.12200
N 	N 	0.60470 0.63920 0.27440 -0.13900
N 	N 	0.68880 0.00000 -0.00000 -0.25300
N 	N 	0.39530 0.03450 0.05893 -0.13900
N 	N 	0.31120 0.31120 0.33333 -0.23000
N 	N 	0.96550 0.36080 0.72560 -0.12900
N 	N 	0.63920 0.60470 0.39227 -0.13900
N 	N 	-0.00000 0.24660 0.66667 -0.15100
N 	N 	0.03450 0.39530 0.60773 -0.13900
O 	O 	0.84220 0.87270 0.75337 -0.28500
O 	O 	0.15780 0.03050 0.57997 -0.31600
O 	O 	0.12520 0.88030 0.60293 -0.41700
O 	O 	0.12730 0.96950 0.42003 -0.29000
O 	O 	0.24490 0.11970 0.39707 -0.41100
O 	O 	0.87480 0.75510 0.73041 -0.40000
O 	O 	0.96950 0.12730 0.24663 -0.28400
O 	O 	0.03050 0.15780 0.08670 -0.32600
O 	O 	0.75510 0.87480 0.93626 -0.39100
O 	O 	0.87270 0.84220 0.91330 -0.27600
O 	O 	0.11970 0.24490 0.26959 -0.41000
O 	O 	0.88030 0.12520 0.06374 -0.42400
