data_crystal

_cell_length_a 37.48220
_cell_length_b 37.48220
_cell_length_c 17.20240
_cell_angle_alpha 90.00000
_cell_angle_beta  90.00000
_cell_angle_gamma 120.00000

_symmetry_space_group_name_	'P 1'
_symmetry_space_group_name_H-M	'P 1'

loop_
_symmetry_equiv_pos_as_xyz
  x,y,z

loop_
_atom_site_label
_atom_site_type_symbol
_atom_site_fract_x
_atom_site_fract_y
_atom_site_fract_z
_atom_site_charge
Ni	Ni	0.50708 0.30913 0.81054 1.05500
Ni	Ni	0.43149 0.43934 0.51966 1.08200
O 	O 	0.52342 0.34607 0.71266 -0.42200
O 	O 	0.53769 0.31242 0.62270 -0.28300
O 	O 	0.61591 0.39328 0.72227 -0.29200
O 	O 	0.61005 0.44807 0.75486 -0.43000
O 	O 	0.59982 0.52678 0.46543 -0.37800
O 	O 	0.54657 0.50484 0.54239 -0.38700
O 	O 	0.51327 0.44710 0.39996 -0.28200
O 	O 	0.47090 0.41776 0.50098 -0.41900
N 	N 	0.44548 0.27355 0.77690 -0.23800
N 	N 	0.19003 0.16971 0.53440 -0.23600
N 	N 	0.39483 0.40882 0.42550 -0.23600
N 	N 	0.27118 0.33844 0.93620 -0.24600
C 	C 	0.55461 0.38144 0.59400 -0.12700
H 	H 	0.56410 0.37410 0.54530 0.08000
C 	C 	0.59163 0.42211 0.62590 -0.11400
H 	H 	0.61550 0.42870 0.59090 0.07000
C 	C 	0.51947 0.39022 0.57080 0.05200
H 	H 	0.49390 0.36410 0.55650 0.02300
C 	C 	0.53571 0.41984 0.50070 -0.13000
H 	H 	0.54420 0.40650 0.46000 0.07700
C 	C 	0.57549 0.46051 0.52650 -0.11800
H 	H 	0.59960 0.46240 0.49790 0.07700
C 	C 	0.58207 0.45739 0.61550 0.03900
H 	H 	0.60540 0.48390 0.63530 0.02800
C 	C 	0.51109 0.41153 0.63640 -0.04500
H 	H 	0.48470 0.40060 0.65990 0.04900
C 	C 	0.54311 0.44648 0.65880 -0.03300
H 	H 	0.54170 0.46330 0.69860 0.05000
C 	C 	0.53800 0.34404 0.64840 0.34900
C 	C 	0.60600 0.42039 0.70820 0.33200
C 	C 	0.50394 0.42897 0.46400 0.35400
C 	C 	0.57360 0.49921 0.51060 0.30800
C 	C 	0.43618 0.26351 0.70170 0.07300
H 	H 	0.45810 0.27290 0.66520 -0.00100
C 	C 	0.39634 0.24016 0.67510 -0.15000
H 	H 	0.39130 0.23420 0.62120 0.07900
C 	C 	0.36326 0.22515 0.72690 0.10000
C 	C 	0.37286 0.23328 0.80580 -0.15400
H 	H 	0.35160 0.22220 0.84380 0.08000
C 	C 	0.41373 0.25774 0.82840 0.07800
H 	H 	0.41970 0.26370 0.88210 0.00200
C 	C 	0.31994 0.20474 0.70190 -0.08600
H 	H 	0.29930 0.19450 0.74110 0.05500
C 	C 	0.30750 0.19953 0.62790 -0.08300
H 	H 	0.32800 0.20530 0.58970 0.05500
C 	C 	0.26575 0.18586 0.59860 0.10300
C 	C 	0.26062 0.18874 0.51890 -0.15100
H 	H 	0.28310 0.19610 0.48450 0.07900
C 	C 	0.22317 0.18102 0.48990 0.08000
H 	H 	0.22080 0.18390 0.43560 0.00300
C 	C 	0.19402 0.16515 0.61060 0.08000
H 	H 	0.17050 0.15630 0.64290 -0.00500
C 	C 	0.23072 0.17271 0.64470 -0.15500
H 	H 	0.23200 0.16890 0.69900 0.08300
C 	C 	0.35525 0.39819 0.42270 0.09300
H 	H 	0.34260 0.40080 0.46850 -0.00800
C 	C 	0.33172 0.38346 0.35580 -0.15900
H 	H 	0.30350 0.37610 0.35630 0.08600
C 	C 	0.34956 0.37940 0.28780 0.11100
C 	C 	0.39117 0.39021 0.29160 -0.14800
H 	H 	0.40460 0.38750 0.24700 0.08100
C 	C 	0.41252 0.40486 0.36090 0.07900
H 	H 	0.44080 0.41240 0.36270 0.01100
C 	C 	0.32581 0.36499 0.21620 -0.08300
H 	H 	0.29700 0.34690 0.22050 0.05900
C 	C 	0.34177 0.37546 0.14460 -0.08400
H 	H 	0.37070 0.39290 0.14010 0.06000
C 	C 	0.31758 0.36179 0.07290 0.10800
C 	C 	0.33033 0.38713 0.00640 -0.16200
H 	H 	0.35540 0.41270 0.00710 0.08600
C 	C 	0.30631 0.37459 0.94040 0.08800
H 	H 	0.31500 0.39220 0.89630 -0.00500
C 	C 	0.25981 0.31323 0.99860 0.06900
H 	H 	0.23560 0.28700 0.99500 -0.00000
C 	C 	0.28176 0.32387 0.06710 -0.15000
H 	H 	0.27250 0.30540 0.11000 0.08100
Ni	Ni	0.17375 0.64246 0.14387 1.05600
Ni	Ni	0.09816 0.77267 0.85299 1.08300
O 	O 	0.19009 0.67940 0.04599 -0.42000
O 	O 	0.20436 0.64575 0.95603 -0.28200
O 	O 	0.28258 0.72661 0.05560 -0.29100
O 	O 	0.27672 0.78140 0.08819 -0.42900
O 	O 	0.26649 0.86011 0.79876 -0.37700
O 	O 	0.21324 0.83817 0.87572 -0.38600
O 	O 	0.17994 0.78043 0.73329 -0.28100
O 	O 	0.13757 0.75109 0.83431 -0.41800
N 	N 	0.11215 0.60688 0.11023 -0.23700
N 	N 	0.85670 0.50304 0.86773 -0.23500
N 	N 	0.06150 0.74215 0.75883 -0.23600
N 	N 	0.93785 0.67177 0.26953 -0.24600
C 	C 	0.22128 0.71477 0.92733 -0.12700
H 	H 	0.23077 0.70743 0.87863 0.08000
C 	C 	0.25830 0.75544 0.95923 -0.11500
H 	H 	0.28217 0.76203 0.92423 0.07000
C 	C 	0.18614 0.72355 0.90413 0.05100
H 	H 	0.16057 0.69743 0.88983 0.02300
C 	C 	0.20238 0.75317 0.83403 -0.13000
H 	H 	0.21087 0.73983 0.79333 0.07700
C 	C 	0.24216 0.79384 0.85983 -0.11800
H 	H 	0.26627 0.79573 0.83123 0.07700
C 	C 	0.24874 0.79072 0.94883 0.04000
H 	H 	0.27207 0.81723 0.96863 0.02800
C 	C 	0.17776 0.74486 0.96973 -0.04400
H 	H 	0.15137 0.73393 0.99323 0.04900
C 	C 	0.20978 0.77981 0.99213 -0.03400
H 	H 	0.20837 0.79663 0.03193 0.05000
C 	C 	0.20467 0.67737 0.98173 0.34900
C 	C 	0.27267 0.75372 0.04153 0.33300
C 	C 	0.17061 0.76230 0.79733 0.35400
C 	C 	0.24027 0.83254 0.84393 0.30800
C 	C 	0.10285 0.59684 0.03503 0.07400
H 	H 	0.12477 0.60623 0.99853 -0.00200
C 	C 	0.06301 0.57349 0.00843 -0.15000
H 	H 	0.05797 0.56753 0.95453 0.07900
C 	C 	0.02993 0.55848 0.06023 0.10000
C 	C 	0.03953 0.56661 0.13913 -0.15400
H 	H 	0.01827 0.55553 0.17713 0.08000
C 	C 	0.08040 0.59107 0.16173 0.07800
H 	H 	0.08637 0.59703 0.21543 0.00200
C 	C 	0.98661 0.53807 0.03523 -0.08600
H 	H 	0.96597 0.52783 0.07443 0.05500
C 	C 	0.97417 0.53286 0.96123 -0.08200
H 	H 	0.99467 0.53863 0.92303 0.05500
C 	C 	0.93242 0.51919 0.93193 0.10200
C 	C 	0.92729 0.52207 0.85223 -0.15100
H 	H 	0.94977 0.52943 0.81783 0.07900
C 	C 	0.88984 0.51435 0.82323 0.08000
H 	H 	0.88747 0.51723 0.76893 0.00300
C 	C 	0.86069 0.49848 0.94393 0.08000
H 	H 	0.83717 0.48963 0.97623 -0.00500
C 	C 	0.89739 0.50604 0.97803 -0.15400
H 	H 	0.89867 0.50223 0.03233 0.08200
C 	C 	0.02192 0.73152 0.75603 0.09300
H 	H 	0.00927 0.73413 0.80183 -0.00800
C 	C 	0.99839 0.71679 0.68913 -0.15800
H 	H 	0.97017 0.70943 0.68963 0.08600
C 	C 	0.01623 0.71273 0.62113 0.11100
C 	C 	0.05784 0.72354 0.62493 -0.14800
H 	H 	0.07127 0.72083 0.58033 0.08100
C 	C 	0.07919 0.73819 0.69423 0.07900
H 	H 	0.10747 0.74573 0.69603 0.01100
C 	C 	0.99248 0.69832 0.54953 -0.08300
H 	H 	0.96367 0.68023 0.55383 0.05900
C 	C 	0.00844 0.70879 0.47793 -0.08400
H 	H 	0.03737 0.72623 0.47343 0.06000
C 	C 	0.98425 0.69512 0.40623 0.10800
C 	C 	0.99700 0.72046 0.33973 -0.16200
H 	H 	0.02207 0.74603 0.34043 0.08700
C 	C 	0.97298 0.70792 0.27373 0.08800
H 	H 	0.98167 0.72553 0.22963 -0.00500
C 	C 	0.92648 0.64656 0.33193 0.06900
H 	H 	0.90227 0.62033 0.32833 -0.00000
C 	C 	0.94843 0.65720 0.40043 -0.15000
H 	H 	0.93917 0.63873 0.44333 0.08100
Ni	Ni	0.84041 0.97580 0.47721 1.05600
Ni	Ni	0.76482 0.10601 0.18633 1.08300
O 	O 	0.85675 0.01274 0.37933 -0.42100
O 	O 	0.87102 0.97909 0.28937 -0.28200
O 	O 	0.94924 0.05995 0.38894 -0.29100
O 	O 	0.94338 0.11474 0.42153 -0.42900
O 	O 	0.93315 0.19345 0.13210 -0.37700
O 	O 	0.87990 0.17151 0.20906 -0.38600
O 	O 	0.84660 0.11377 0.06663 -0.28100
O 	O 	0.80423 0.08443 0.16765 -0.41800
N 	N 	0.77881 0.94022 0.44357 -0.23700
N 	N 	0.52336 0.83638 0.20107 -0.23500
N 	N 	0.72816 0.07549 0.09217 -0.23600
N 	N 	0.60451 0.00511 0.60287 -0.24600
C 	C 	0.88794 0.04811 0.26067 -0.12700
H 	H 	0.89743 0.04077 0.21197 0.08000
C 	C 	0.92496 0.08878 0.29257 -0.11400
H 	H 	0.94883 0.09537 0.25757 0.07000
C 	C 	0.85280 0.05689 0.23747 0.05100
H 	H 	0.82723 0.03077 0.22317 0.02300
C 	C 	0.86904 0.08651 0.16737 -0.13000
H 	H 	0.87753 0.07317 0.12667 0.07700
C 	C 	0.90882 0.12718 0.19317 -0.11800
H 	H 	0.93293 0.12907 0.16457 0.07700
C 	C 	0.91540 0.12406 0.28217 0.03900
H 	H 	0.93873 0.15057 0.30197 0.02800
C 	C 	0.84442 0.07820 0.30307 -0.04500
H 	H 	0.81803 0.06727 0.32657 0.04900
C 	C 	0.87644 0.11315 0.32547 -0.03300
H 	H 	0.87503 0.12997 0.36527 0.05000
C 	C 	0.87133 0.01071 0.31507 0.34900
C 	C 	0.93933 0.08706 0.37487 0.33200
C 	C 	0.83727 0.09564 0.13067 0.35400
C 	C 	0.90693 0.16588 0.17727 0.30800
C 	C 	0.76951 0.93018 0.36837 0.07300
H 	H 	0.79143 0.93957 0.33187 -0.00100
C 	C 	0.72967 0.90683 0.34177 -0.15000
H 	H 	0.72463 0.90087 0.28787 0.07900
C 	C 	0.69659 0.89182 0.39357 0.10000
C 	C 	0.70619 0.89995 0.47247 -0.15400
H 	H 	0.68493 0.88887 0.51047 0.08000
C 	C 	0.74706 0.92441 0.49507 0.07800
H 	H 	0.75303 0.93037 0.54877 0.00200
C 	C 	0.65327 0.87141 0.36857 -0.08600
H 	H 	0.63263 0.86117 0.40777 0.05500
C 	C 	0.64083 0.86620 0.29457 -0.08300
H 	H 	0.66133 0.87197 0.25637 0.05500
C 	C 	0.59908 0.85253 0.26527 0.10300
C 	C 	0.59395 0.85541 0.18557 -0.15100
H 	H 	0.61643 0.86277 0.15117 0.07900
C 	C 	0.55650 0.84769 0.15657 0.08000
H 	H 	0.55413 0.85057 0.10227 0.00300
C 	C 	0.52735 0.83182 0.27727 0.08000
H 	H 	0.50383 0.82297 0.30957 -0.00500
C 	C 	0.56405 0.83938 0.31137 -0.15500
H 	H 	0.56533 0.83557 0.36567 0.08300
C 	C 	0.68858 0.06486 0.08937 0.09300
H 	H 	0.67593 0.06747 0.13517 -0.00800
C 	C 	0.66505 0.05013 0.02247 -0.15900
H 	H 	0.63683 0.04277 0.02297 0.08600
C 	C 	0.68289 0.04607 0.95447 0.11200
C 	C 	0.72450 0.05688 0.95827 -0.14800
H 	H 	0.73793 0.05417 0.91367 0.08100
C 	C 	0.74585 0.07153 0.02757 0.07900
H 	H 	0.77413 0.07907 0.02937 0.01100
C 	C 	0.65914 0.03166 0.88287 -0.08300
H 	H 	0.63033 0.01357 0.88717 0.05900
C 	C 	0.67510 0.04213 0.81127 -0.08400
H 	H 	0.70403 0.05957 0.80677 0.06000
C 	C 	0.65091 0.02846 0.73957 0.10800
C 	C 	0.66366 0.05380 0.67307 -0.16200
H 	H 	0.68873 0.07937 0.67377 0.08700
C 	C 	0.63964 0.04126 0.60707 0.08800
H 	H 	0.64833 0.05887 0.56297 -0.00500
C 	C 	0.59314 0.97990 0.66527 0.06900
H 	H 	0.56893 0.95367 0.66167 -0.00000
C 	C 	0.61509 0.99054 0.73377 -0.15000
H 	H 	0.60583 0.97207 0.77667 0.08100
Ni	Ni	0.69087 0.19795 0.81054 1.05600
Ni	Ni	0.56066 0.99215 0.51966 1.08300
O 	O 	0.65393 0.17735 0.71266 -0.42100
O 	O 	0.68758 0.22527 0.62270 -0.28200
O 	O 	0.60672 0.22263 0.72227 -0.29100
O 	O 	0.55193 0.16198 0.75486 -0.42900
O 	O 	0.47322 0.07304 0.46543 -0.37700
O 	O 	0.49516 0.04173 0.54239 -0.38600
O 	O 	0.55290 0.06617 0.39996 -0.28100
O 	O 	0.58224 0.05314 0.50098 -0.41800
N 	N 	0.72645 0.17193 0.77690 -0.23700
N 	N 	0.83029 0.02032 0.53440 -0.23500
N 	N 	0.59118 0.98601 0.42550 -0.23600
N 	N 	0.66156 0.93274 0.93620 -0.24500
C 	C 	0.61856 0.17317 0.59400 -0.12700
H 	H 	0.62590 0.19000 0.54530 0.08000
C 	C 	0.57789 0.16952 0.62590 -0.11400
H 	H 	0.57130 0.18680 0.59090 0.07000
C 	C 	0.60978 0.12925 0.57080 0.05200
H 	H 	0.63590 0.12980 0.55650 0.02300
C 	C 	0.58016 0.11587 0.50070 -0.13000
H 	H 	0.59350 0.13770 0.46000 0.07700
C 	C 	0.53949 0.11498 0.52650 -0.11800
H 	H 	0.53760 0.13720 0.49790 0.07700
C 	C 	0.54261 0.12468 0.61550 0.03900
H 	H 	0.51610 0.12150 0.63530 0.02800
C 	C 	0.58847 0.09956 0.63640 -0.04500
H 	H 	0.59940 0.08410 0.65990 0.04900
C 	C 	0.55352 0.09663 0.65880 -0.03300
H 	H 	0.53670 0.07840 0.69860 0.05000
C 	C 	0.65596 0.19396 0.64840 0.34900
C 	C 	0.57961 0.18561 0.70820 0.33200
C 	C 	0.57103 0.07497 0.46400 0.35400
C 	C 	0.50079 0.07439 0.51060 0.30800
C 	C 	0.73649 0.17267 0.70170 0.07300
H 	H 	0.72710 0.18520 0.66520 -0.00100
C 	C 	0.75984 0.15618 0.67510 -0.15000
H 	H 	0.76580 0.15710 0.62120 0.07900
C 	C 	0.77485 0.13811 0.72690 0.10000
C 	C 	0.76672 0.13958 0.80580 -0.15400
H 	H 	0.77780 0.12940 0.84380 0.08000
C 	C 	0.74226 0.15599 0.82840 0.07800
H 	H 	0.73630 0.15600 0.88210 0.00200
C 	C 	0.79526 0.11520 0.70190 -0.08600
H 	H 	0.80550 0.10480 0.74110 0.05500
C 	C 	0.80047 0.10797 0.62790 -0.08300
H 	H 	0.79470 0.12270 0.58970 0.05500
C 	C 	0.81414 0.07989 0.59860 0.10300
C 	C 	0.81126 0.07188 0.51890 -0.15100
H 	H 	0.80390 0.08700 0.48450 0.07900
C 	C 	0.81898 0.04215 0.48990 0.08000
H 	H 	0.81610 0.03690 0.43560 0.00300
C 	C 	0.83485 0.02887 0.61060 0.08000
H 	H 	0.84370 0.01420 0.64290 -0.00500
C 	C 	0.82729 0.05801 0.64470 -0.15500
H 	H 	0.83110 0.06310 0.69900 0.08300
C 	C 	0.60181 0.95706 0.42270 0.09300
H 	H 	0.59920 0.94180 0.46850 -0.00800
C 	C 	0.61654 0.94826 0.35580 -0.15900
H 	H 	0.62390 0.92740 0.35630 0.08600
C 	C 	0.62060 0.97016 0.28780 0.11200
C 	C 	0.60979 0.00096 0.29160 -0.14800
H 	H 	0.61250 0.01710 0.24700 0.08100
C 	C 	0.59514 0.00766 0.36090 0.07900
H 	H 	0.58760 0.02840 0.36270 0.01100
C 	C 	0.63501 0.96082 0.21620 -0.08300
H 	H 	0.65310 0.95010 0.22050 0.05900
C 	C 	0.62454 0.96631 0.14460 -0.08400
H 	H 	0.60710 0.97780 0.14010 0.06000
C 	C 	0.63821 0.95579 0.07290 0.10800
C 	C 	0.61287 0.94320 0.00640 -0.16100
H 	H 	0.58730 0.94270 0.00710 0.08600
C 	C 	0.62541 0.93172 0.94040 0.08700
H 	H 	0.60780 0.92280 0.89630 -0.00500
C 	C 	0.68677 0.94658 0.99860 0.06900
H 	H 	0.71300 0.94860 0.99500 -0.00000
C 	C 	0.67613 0.95789 0.06710 -0.15000
H 	H 	0.69460 0.96710 0.11000 0.08000
Ni	Ni	0.35754 0.53128 0.14387 1.05600
Ni	Ni	0.22733 0.32548 0.85299 1.08300
O 	O 	0.32060 0.51068 0.04599 -0.42100
O 	O 	0.35425 0.55860 0.95603 -0.28200
O 	O 	0.27339 0.55596 0.05560 -0.29100
O 	O 	0.21860 0.49531 0.08819 -0.42900
O 	O 	0.13989 0.40637 0.79876 -0.37700
O 	O 	0.16183 0.37506 0.87572 -0.38600
O 	O 	0.21957 0.39950 0.73329 -0.28100
O 	O 	0.24891 0.38647 0.83431 -0.41800
N 	N 	0.39312 0.50526 0.11023 -0.23700
N 	N 	0.49696 0.35365 0.86773 -0.23500
N 	N 	0.25785 0.31934 0.75883 -0.23600
N 	N 	0.32823 0.26607 0.26953 -0.24600
C 	C 	0.28523 0.50650 0.92733 -0.12700
H 	H 	0.29257 0.52333 0.87863 0.08000
C 	C 	0.24456 0.50285 0.95923 -0.11400
H 	H 	0.23797 0.52013 0.92423 0.07000
C 	C 	0.27645 0.46258 0.90413 0.05100
H 	H 	0.30257 0.46313 0.88983 0.02300
C 	C 	0.24683 0.44920 0.83403 -0.13000
H 	H 	0.26017 0.47103 0.79333 0.07700
C 	C 	0.20616 0.44831 0.85983 -0.11800
H 	H 	0.20427 0.47053 0.83123 0.07700
C 	C 	0.20928 0.45801 0.94883 0.04000
H 	H 	0.18277 0.45483 0.96863 0.02800
C 	C 	0.25514 0.43289 0.96973 -0.04400
H 	H 	0.26607 0.41743 0.99323 0.04900
C 	C 	0.22019 0.42996 0.99213 -0.03300
H 	H 	0.20337 0.41173 0.03193 0.05000
C 	C 	0.32263 0.52729 0.98173 0.34900
C 	C 	0.24628 0.51894 0.04153 0.33300
C 	C 	0.23770 0.40830 0.79733 0.35400
C 	C 	0.16746 0.40772 0.84393 0.30800
C 	C 	0.40316 0.50600 0.03503 0.07300
H 	H 	0.39377 0.51853 0.99853 -0.00200
C 	C 	0.42651 0.48951 0.00843 -0.15000
H 	H 	0.43247 0.49043 0.95453 0.07900
C 	C 	0.44152 0.47144 0.06023 0.10000
C 	C 	0.43339 0.47291 0.13913 -0.15400
H 	H 	0.44447 0.46273 0.17713 0.08000
C 	C 	0.40893 0.48932 0.16173 0.07800
H 	H 	0.40297 0.48933 0.21543 0.00200
C 	C 	0.46193 0.44853 0.03523 -0.08600
H 	H 	0.47217 0.43813 0.07443 0.05500
C 	C 	0.46714 0.44130 0.96123 -0.08300
H 	H 	0.46137 0.45603 0.92303 0.05500
C 	C 	0.48081 0.41322 0.93193 0.10300
C 	C 	0.47793 0.40521 0.85223 -0.15100
H 	H 	0.47057 0.42033 0.81783 0.07900
C 	C 	0.48565 0.37548 0.82323 0.08000
H 	H 	0.48277 0.37023 0.76893 0.00300
C 	C 	0.50152 0.36220 0.94393 0.08000
H 	H 	0.51037 0.34753 0.97623 -0.00500
C 	C 	0.49396 0.39134 0.97803 -0.15500
H 	H 	0.49777 0.39643 0.03233 0.08200
C 	C 	0.26848 0.29039 0.75603 0.09300
H 	H 	0.26587 0.27513 0.80183 -0.00800
C 	C 	0.28321 0.28159 0.68913 -0.15900
H 	H 	0.29057 0.26073 0.68963 0.08600
C 	C 	0.28727 0.30349 0.62113 0.11100
C 	C 	0.27646 0.33429 0.62493 -0.14800
H 	H 	0.27917 0.35043 0.58033 0.08100
C 	C 	0.26181 0.34099 0.69423 0.07900
H 	H 	0.25427 0.36173 0.69603 0.01100
C 	C 	0.30168 0.29415 0.54953 -0.08300
H 	H 	0.31977 0.28343 0.55383 0.05900
C 	C 	0.29121 0.29964 0.47793 -0.08400
H 	H 	0.27377 0.31113 0.47343 0.06000
C 	C 	0.30488 0.28912 0.40623 0.10800
C 	C 	0.27954 0.27653 0.33973 -0.16200
H 	H 	0.25397 0.27603 0.34043 0.08700
C 	C 	0.29208 0.26505 0.27373 0.08800
H 	H 	0.27447 0.25613 0.22963 -0.00500
C 	C 	0.35344 0.27991 0.33193 0.06900
H 	H 	0.37967 0.28193 0.32833 -0.00000
C 	C 	0.34280 0.29122 0.40043 -0.15000
H 	H 	0.36127 0.30043 0.44333 0.08100
Ni	Ni	0.02420 0.86462 0.47721 1.05600
Ni	Ni	0.89399 0.65882 0.18633 1.08300
O 	O 	0.98726 0.84402 0.37933 -0.42100
O 	O 	0.02091 0.89194 0.28937 -0.28200
O 	O 	0.94005 0.88930 0.38894 -0.29100
O 	O 	0.88526 0.82865 0.42153 -0.42900
O 	O 	0.80655 0.73971 0.13210 -0.37700
O 	O 	0.82849 0.70840 0.20906 -0.38600
O 	O 	0.88623 0.73284 0.06663 -0.28100
O 	O 	0.91557 0.71981 0.16765 -0.41800
N 	N 	0.05978 0.83860 0.44357 -0.23700
N 	N 	0.16362 0.68699 0.20107 -0.23500
N 	N 	0.92451 0.65268 0.09217 -0.23600
N 	N 	0.99489 0.59941 0.60287 -0.24500
C 	C 	0.95189 0.83984 0.26067 -0.12700
H 	H 	0.95923 0.85667 0.21197 0.08000
C 	C 	0.91122 0.83619 0.29257 -0.11400
H 	H 	0.90463 0.85347 0.25757 0.07000
C 	C 	0.94311 0.79592 0.23747 0.05100
H 	H 	0.96923 0.79647 0.22317 0.02300
C 	C 	0.91349 0.78254 0.16737 -0.13000
H 	H 	0.92683 0.80437 0.12667 0.07700
C 	C 	0.87282 0.78165 0.19317 -0.11800
H 	H 	0.87093 0.80387 0.16457 0.07700
C 	C 	0.87594 0.79135 0.28217 0.03900
H 	H 	0.84943 0.78817 0.30197 0.02800
C 	C 	0.92180 0.76623 0.30307 -0.04400
H 	H 	0.93273 0.75077 0.32657 0.04900
C 	C 	0.88685 0.76330 0.32547 -0.03300
H 	H 	0.87003 0.74507 0.36527 0.05000
C 	C 	0.98929 0.86063 0.31507 0.34900
C 	C 	0.91294 0.85228 0.37487 0.33200
C 	C 	0.90436 0.74164 0.13067 0.35400
C 	C 	0.83412 0.74106 0.17727 0.30800
C 	C 	0.06982 0.83934 0.36837 0.07300
H 	H 	0.06043 0.85187 0.33187 -0.00100
C 	C 	0.09317 0.82285 0.34177 -0.15000
H 	H 	0.09913 0.82377 0.28787 0.07900
C 	C 	0.10818 0.80478 0.39357 0.10000
C 	C 	0.10005 0.80625 0.47247 -0.15400
H 	H 	0.11113 0.79607 0.51047 0.08000
C 	C 	0.07559 0.82266 0.49507 0.07800
H 	H 	0.06963 0.82267 0.54877 0.00200
C 	C 	0.12859 0.78187 0.36857 -0.08600
H 	H 	0.13883 0.77147 0.40777 0.05500
C 	C 	0.13380 0.77464 0.29457 -0.08300
H 	H 	0.12803 0.78937 0.25637 0.05500
C 	C 	0.14747 0.74656 0.26527 0.10300
C 	C 	0.14459 0.73855 0.18557 -0.15100
H 	H 	0.13723 0.75367 0.15117 0.07900
C 	C 	0.15231 0.70882 0.15657 0.08000
H 	H 	0.14943 0.70357 0.10227 0.00300
C 	C 	0.16818 0.69554 0.27727 0.08000
H 	H 	0.17703 0.68087 0.30957 -0.00500
C 	C 	0.16062 0.72468 0.31137 -0.15500
H 	H 	0.16443 0.72977 0.36567 0.08300
C 	C 	0.93514 0.62373 0.08937 0.09300
H 	H 	0.93253 0.60847 0.13517 -0.00800
C 	C 	0.94987 0.61493 0.02247 -0.15900
H 	H 	0.95723 0.59407 0.02297 0.08600
C 	C 	0.95393 0.63683 0.95447 0.11200
C 	C 	0.94312 0.66763 0.95827 -0.14800
H 	H 	0.94583 0.68377 0.91367 0.08100
C 	C 	0.92847 0.67433 0.02757 0.07900
H 	H 	0.92093 0.69507 0.02937 0.01100
C 	C 	0.96834 0.62749 0.88287 -0.08300
H 	H 	0.98643 0.61677 0.88717 0.05900
C 	C 	0.95787 0.63298 0.81127 -0.08400
H 	H 	0.94043 0.64447 0.80677 0.06000
C 	C 	0.97154 0.62246 0.73957 0.10800
C 	C 	0.94620 0.60987 0.67307 -0.16200
H 	H 	0.92063 0.60937 0.67377 0.08700
C 	C 	0.95874 0.59839 0.60707 0.08800
H 	H 	0.94113 0.58947 0.56297 -0.00500
C 	C 	0.02010 0.61325 0.66527 0.06900
H 	H 	0.04633 0.61527 0.66167 -0.00000
C 	C 	0.00946 0.62456 0.73377 -0.15000
H 	H 	0.02793 0.63377 0.77667 0.08100
Ni	Ni	0.80205 0.49292 0.81054 1.05600
Ni	Ni	0.00785 0.56851 0.51966 1.08300
O 	O 	0.82265 0.47658 0.71266 -0.42100
O 	O 	0.77473 0.46231 0.62270 -0.28200
O 	O 	0.77737 0.38409 0.72227 -0.29100
O 	O 	0.83802 0.38995 0.75486 -0.42900
O 	O 	0.92696 0.40018 0.46543 -0.37700
O 	O 	0.95827 0.45343 0.54239 -0.38600
O 	O 	0.93383 0.48673 0.39996 -0.28100
O 	O 	0.94686 0.52910 0.50098 -0.41800
N 	N 	0.82807 0.55452 0.77690 -0.23700
N 	N 	0.97968 0.80997 0.53440 -0.23500
N 	N 	0.01399 0.60517 0.42550 -0.23600
N 	N 	0.06726 0.72882 0.93620 -0.24500
C 	C 	0.82683 0.44539 0.59400 -0.12700
H 	H 	0.81000 0.43590 0.54530 0.08000
C 	C 	0.83048 0.40837 0.62590 -0.11400
H 	H 	0.81320 0.38450 0.59090 0.07000
C 	C 	0.87075 0.48053 0.57080 0.05200
H 	H 	0.87020 0.50610 0.55650 0.02300
C 	C 	0.88413 0.46429 0.50070 -0.13000
H 	H 	0.86230 0.45580 0.46000 0.07700
C 	C 	0.88502 0.42451 0.52650 -0.11800
H 	H 	0.86280 0.40040 0.49790 0.07700
C 	C 	0.87532 0.41793 0.61550 0.03900
H 	H 	0.87850 0.39460 0.63530 0.02800
C 	C 	0.90044 0.48891 0.63640 -0.04500
H 	H 	0.91590 0.51530 0.65990 0.04900
C 	C 	0.90337 0.45689 0.65880 -0.03300
H 	H 	0.92160 0.45830 0.69860 0.05000
C 	C 	0.80604 0.46200 0.64840 0.34900
C 	C 	0.81439 0.39400 0.70820 0.33200
C 	C 	0.92503 0.49606 0.46400 0.35400
C 	C 	0.92561 0.42640 0.51060 0.30800
C 	C 	0.82733 0.56382 0.70170 0.07300
H 	H 	0.81480 0.54190 0.66520 -0.00100
C 	C 	0.84382 0.60366 0.67510 -0.15000
H 	H 	0.84290 0.60870 0.62120 0.07900
C 	C 	0.86189 0.63674 0.72690 0.10000
C 	C 	0.86042 0.62714 0.80580 -0.15400
H 	H 	0.87060 0.64840 0.84380 0.08000
C 	C 	0.84401 0.58627 0.82840 0.07800
H 	H 	0.84400 0.58030 0.88210 0.00200
C 	C 	0.88480 0.68006 0.70190 -0.08600
H 	H 	0.89520 0.70070 0.74110 0.05500
C 	C 	0.89203 0.69250 0.62790 -0.08300
H 	H 	0.87730 0.67200 0.58970 0.05500
C 	C 	0.92011 0.73425 0.59860 0.10300
C 	C 	0.92812 0.73938 0.51890 -0.15100
H 	H 	0.91300 0.71690 0.48450 0.07900
C 	C 	0.95785 0.77683 0.48990 0.08000
H 	H 	0.96310 0.77920 0.43560 0.00300
C 	C 	0.97113 0.80598 0.61060 0.08000
H 	H 	0.98580 0.82950 0.64290 -0.00500
C 	C 	0.94199 0.76928 0.64470 -0.15500
H 	H 	0.93690 0.76800 0.69900 0.08300
C 	C 	0.04294 0.64475 0.42270 0.09300
H 	H 	0.05820 0.65740 0.46850 -0.00800
C 	C 	0.05174 0.66828 0.35580 -0.15900
H 	H 	0.07260 0.69650 0.35630 0.08600
C 	C 	0.02984 0.65044 0.28780 0.11200
C 	C 	0.99904 0.60883 0.29160 -0.14800
H 	H 	0.98290 0.59540 0.24700 0.08100
C 	C 	0.99234 0.58748 0.36090 0.07900
H 	H 	0.97160 0.55920 0.36270 0.01100
C 	C 	0.03918 0.67419 0.21620 -0.08300
H 	H 	0.04990 0.70300 0.22050 0.05900
C 	C 	0.03369 0.65823 0.14460 -0.08400
H 	H 	0.02220 0.62930 0.14010 0.06000
C 	C 	0.04421 0.68242 0.07290 0.10800
C 	C 	0.05680 0.66967 0.00640 -0.16100
H 	H 	0.05730 0.64460 0.00710 0.08600
C 	C 	0.06828 0.69369 0.94040 0.08700
H 	H 	0.07720 0.68500 0.89630 -0.00500
C 	C 	0.05342 0.74019 0.99860 0.06900
H 	H 	0.05140 0.76440 0.99500 -0.00000
C 	C 	0.04211 0.71824 0.06710 -0.15000
H 	H 	0.03290 0.72750 0.11000 0.08000
Ni	Ni	0.46872 0.82625 0.14387 1.05600
Ni	Ni	0.67452 0.90184 0.85299 1.08300
O 	O 	0.48932 0.80991 0.04599 -0.42000
O 	O 	0.44140 0.79564 0.95603 -0.28200
O 	O 	0.44404 0.71742 0.05560 -0.29100
O 	O 	0.50469 0.72328 0.08819 -0.42900
O 	O 	0.59363 0.73351 0.79876 -0.37700
O 	O 	0.62494 0.78676 0.87572 -0.38600
O 	O 	0.60050 0.82006 0.73329 -0.28100
O 	O 	0.61353 0.86243 0.83431 -0.41800
N 	N 	0.49474 0.88785 0.11023 -0.23700
N 	N 	0.64635 0.14330 0.86773 -0.23500
N 	N 	0.68066 0.93850 0.75883 -0.23600
N 	N 	0.73393 0.06215 0.26953 -0.24600
C 	C 	0.49350 0.77872 0.92733 -0.12700
H 	H 	0.47667 0.76923 0.87863 0.08000
C 	C 	0.49715 0.74170 0.95923 -0.11400
H 	H 	0.47987 0.71783 0.92423 0.07000
C 	C 	0.53742 0.81386 0.90413 0.05100
H 	H 	0.53687 0.83943 0.88983 0.02300
C 	C 	0.55080 0.79762 0.83403 -0.13000
H 	H 	0.52897 0.78913 0.79333 0.07700
C 	C 	0.55169 0.75784 0.85983 -0.11800
H 	H 	0.52947 0.73373 0.83123 0.07700
C 	C 	0.54199 0.75126 0.94883 0.04000
H 	H 	0.54517 0.72793 0.96863 0.02800
C 	C 	0.56711 0.82224 0.96973 -0.04400
H 	H 	0.58257 0.84863 0.99323 0.04900
C 	C 	0.57004 0.79022 0.99213 -0.03300
H 	H 	0.58827 0.79163 0.03193 0.05000
C 	C 	0.47271 0.79533 0.98173 0.34900
C 	C 	0.48106 0.72733 0.04153 0.33300
C 	C 	0.59170 0.82939 0.79733 0.35400
C 	C 	0.59228 0.75973 0.84393 0.30800
C 	C 	0.49400 0.89715 0.03503 0.07400
H 	H 	0.48147 0.87523 0.99853 -0.00200
C 	C 	0.51049 0.93699 0.00843 -0.15000
H 	H 	0.50957 0.94203 0.95453 0.07900
C 	C 	0.52856 0.97007 0.06023 0.10000
C 	C 	0.52709 0.96047 0.13913 -0.15400
H 	H 	0.53727 0.98173 0.17713 0.08000
C 	C 	0.51068 0.91960 0.16173 0.07800
H 	H 	0.51067 0.91363 0.21543 0.00200
C 	C 	0.55147 0.01339 0.03523 -0.08600
H 	H 	0.56187 0.03403 0.07443 0.05500
C 	C 	0.55870 0.02583 0.96123 -0.08200
H 	H 	0.54397 0.00533 0.92303 0.05500
C 	C 	0.58678 0.06758 0.93193 0.10200
C 	C 	0.59479 0.07271 0.85223 -0.15100
H 	H 	0.57967 0.05023 0.81783 0.07900
C 	C 	0.62452 0.11016 0.82323 0.08000
H 	H 	0.62977 0.11253 0.76893 0.00300
C 	C 	0.63780 0.13931 0.94393 0.08000
H 	H 	0.65247 0.16283 0.97623 -0.00500
C 	C 	0.60866 0.10261 0.97803 -0.15400
H 	H 	0.60357 0.10133 0.03233 0.08200
C 	C 	0.70961 0.97808 0.75603 0.09200
H 	H 	0.72487 0.99073 0.80183 -0.00800
C 	C 	0.71841 0.00161 0.68913 -0.15800
H 	H 	0.73927 0.02983 0.68963 0.08600
C 	C 	0.69651 0.98377 0.62113 0.11100
C 	C 	0.66571 0.94216 0.62493 -0.14800
H 	H 	0.64957 0.92873 0.58033 0.08100
C 	C 	0.65901 0.92081 0.69423 0.07900
H 	H 	0.63827 0.89253 0.69603 0.01100
C 	C 	0.70585 0.00752 0.54953 -0.08300
H 	H 	0.71657 0.03633 0.55383 0.05900
C 	C 	0.70036 0.99156 0.47793 -0.08400
H 	H 	0.68887 0.96263 0.47343 0.06000
C 	C 	0.71088 0.01575 0.40623 0.10800
C 	C 	0.72347 0.00300 0.33973 -0.16200
H 	H 	0.72397 0.97793 0.34043 0.08700
C 	C 	0.73495 0.02702 0.27373 0.08800
H 	H 	0.74387 0.01833 0.22963 -0.00500
C 	C 	0.72009 0.07352 0.33193 0.06900
H 	H 	0.71807 0.09773 0.32833 -0.00000
C 	C 	0.70878 0.05157 0.40043 -0.15000
H 	H 	0.69957 0.06083 0.44333 0.08100
Ni	Ni	0.13538 0.15959 0.47721 1.05600
Ni	Ni	0.34118 0.23518 0.18633 1.08300
O 	O 	0.15598 0.14325 0.37933 -0.42100
O 	O 	0.10806 0.12898 0.28937 -0.28200
O 	O 	0.11070 0.05076 0.38894 -0.29100
O 	O 	0.17135 0.05662 0.42153 -0.42900
O 	O 	0.26029 0.06685 0.13210 -0.37700
O 	O 	0.29160 0.12010 0.20906 -0.38600
O 	O 	0.26716 0.15340 0.06663 -0.28100
O 	O 	0.28019 0.19577 0.16765 -0.41800
N 	N 	0.16140 0.22119 0.44357 -0.23700
N 	N 	0.31301 0.47664 0.20107 -0.23500
N 	N 	0.34732 0.27184 0.09217 -0.23600
N 	N 	0.40059 0.39549 0.60287 -0.24600
C 	C 	0.16016 0.11206 0.26067 -0.12700
H 	H 	0.14333 0.10257 0.21197 0.08000
C 	C 	0.16381 0.07504 0.29257 -0.11400
H 	H 	0.14653 0.05117 0.25757 0.07000
C 	C 	0.20408 0.14720 0.23747 0.05200
H 	H 	0.20353 0.17277 0.22317 0.02300
C 	C 	0.21746 0.13096 0.16737 -0.13000
H 	H 	0.19563 0.12247 0.12667 0.07700
C 	C 	0.21835 0.09118 0.19317 -0.11800
H 	H 	0.19613 0.06707 0.16457 0.07700
C 	C 	0.20865 0.08460 0.28217 0.03900
H 	H 	0.21183 0.06127 0.30197 0.02800
C 	C 	0.23377 0.15558 0.30307 -0.04500
H 	H 	0.24923 0.18197 0.32657 0.04900
C 	C 	0.23670 0.12356 0.32547 -0.03300
H 	H 	0.25493 0.12497 0.36527 0.05000
C 	C 	0.13937 0.12867 0.31507 0.34900
C 	C 	0.14772 0.06067 0.37487 0.33200
C 	C 	0.25836 0.16273 0.13067 0.35400
C 	C 	0.25894 0.09307 0.17727 0.30800
C 	C 	0.16066 0.23049 0.36837 0.07300
H 	H 	0.14813 0.20857 0.33187 -0.00100
C 	C 	0.17715 0.27033 0.34177 -0.15000
H 	H 	0.17623 0.27537 0.28787 0.07900
C 	C 	0.19522 0.30341 0.39357 0.10000
C 	C 	0.19375 0.29381 0.47247 -0.15400
H 	H 	0.20393 0.31507 0.51047 0.08000
C 	C 	0.17734 0.25294 0.49507 0.07800
H 	H 	0.17733 0.24697 0.54877 0.00200
C 	C 	0.21813 0.34673 0.36857 -0.08600
H 	H 	0.22853 0.36737 0.40777 0.05500
C 	C 	0.22536 0.35917 0.29457 -0.08300
H 	H 	0.21063 0.33867 0.25637 0.05500
C 	C 	0.25344 0.40092 0.26527 0.10300
C 	C 	0.26145 0.40605 0.18557 -0.15100
H 	H 	0.24633 0.38357 0.15117 0.07900
C 	C 	0.29118 0.44350 0.15657 0.08000
H 	H 	0.29643 0.44587 0.10227 0.00300
C 	C 	0.30446 0.47265 0.27727 0.08000
H 	H 	0.31913 0.49617 0.30957 -0.00500
C 	C 	0.27532 0.43595 0.31137 -0.15500
H 	H 	0.27023 0.43467 0.36567 0.08300
C 	C 	0.37627 0.31142 0.08937 0.09300
H 	H 	0.39153 0.32407 0.13517 -0.00800
C 	C 	0.38507 0.33495 0.02247 -0.15900
H 	H 	0.40593 0.36317 0.02297 0.08600
C 	C 	0.36317 0.31711 0.95447 0.11100
C 	C 	0.33237 0.27550 0.95827 -0.14800
H 	H 	0.31623 0.26207 0.91367 0.08100
C 	C 	0.32567 0.25415 0.02757 0.07900
H 	H 	0.30493 0.22587 0.02937 0.01100
C 	C 	0.37251 0.34086 0.88287 -0.08300
H 	H 	0.38323 0.36967 0.88717 0.05900
C 	C 	0.36702 0.32490 0.81127 -0.08400
H 	H 	0.35553 0.29597 0.80677 0.06000
C 	C 	0.37754 0.34909 0.73957 0.10800
C 	C 	0.39013 0.33634 0.67307 -0.16200
H 	H 	0.39063 0.31127 0.67377 0.08700
C 	C 	0.40161 0.36036 0.60707 0.08800
H 	H 	0.41053 0.35167 0.56297 -0.00500
C 	C 	0.38675 0.40686 0.66527 0.06900
H 	H 	0.38473 0.43107 0.66167 -0.00000
C 	C 	0.37544 0.38491 0.73377 -0.15000
H 	H 	0.36623 0.39417 0.77667 0.08100
Ni	Ni	0.49292 0.69087 0.18946 1.05600
Ni	Ni	0.56851 0.56066 0.48034 1.08300
O 	O 	0.47658 0.65393 0.28734 -0.42100
O 	O 	0.46231 0.68758 0.37730 -0.28200
O 	O 	0.38409 0.60672 0.27773 -0.29100
O 	O 	0.38995 0.55193 0.24514 -0.42900
O 	O 	0.40018 0.47322 0.53457 -0.37700
O 	O 	0.45343 0.49516 0.45761 -0.38600
O 	O 	0.48673 0.55290 0.60004 -0.28100
O 	O 	0.52910 0.58224 0.49902 -0.41800
N 	N 	0.55452 0.72645 0.22310 -0.23700
N 	N 	0.80997 0.83029 0.46560 -0.23500
N 	N 	0.60517 0.59118 0.57450 -0.23600
N 	N 	0.72882 0.66156 0.06380 -0.24600
C 	C 	0.44539 0.61856 0.40600 -0.12700
H 	H 	0.43590 0.62590 0.45470 0.08000
C 	C 	0.40837 0.57789 0.37410 -0.11400
H 	H 	0.38450 0.57130 0.40910 0.07000
C 	C 	0.48053 0.60978 0.42920 0.05200
H 	H 	0.50610 0.63590 0.44350 0.02300
C 	C 	0.46429 0.58016 0.49930 -0.13000
H 	H 	0.45580 0.59350 0.54000 0.07700
C 	C 	0.42451 0.53949 0.47350 -0.11800
H 	H 	0.40040 0.53760 0.50210 0.07700
C 	C 	0.41793 0.54261 0.38450 0.03900
H 	H 	0.39460 0.51610 0.36470 0.02800
C 	C 	0.48891 0.58847 0.36360 -0.04500
H 	H 	0.51530 0.59940 0.34010 0.04900
C 	C 	0.45689 0.55352 0.34120 -0.03300
H 	H 	0.45830 0.53670 0.30140 0.05000
C 	C 	0.46200 0.65596 0.35160 0.34900
C 	C 	0.39400 0.57961 0.29180 0.33200
C 	C 	0.49606 0.57103 0.53600 0.35400
C 	C 	0.42640 0.50079 0.48940 0.30800
C 	C 	0.56382 0.73649 0.29830 0.07300
H 	H 	0.54190 0.72710 0.33480 -0.00100
C 	C 	0.60366 0.75984 0.32490 -0.15000
H 	H 	0.60870 0.76580 0.37880 0.07900
C 	C 	0.63674 0.77485 0.27310 0.10000
C 	C 	0.62714 0.76672 0.19420 -0.15400
H 	H 	0.64840 0.77780 0.15620 0.08000
C 	C 	0.58627 0.74226 0.17160 0.07800
H 	H 	0.58030 0.73630 0.11790 0.00200
C 	C 	0.68006 0.79526 0.29810 -0.08600
H 	H 	0.70070 0.80550 0.25890 0.05500
C 	C 	0.69250 0.80047 0.37210 -0.08300
H 	H 	0.67200 0.79470 0.41030 0.05500
C 	C 	0.73425 0.81414 0.40140 0.10300
C 	C 	0.73938 0.81126 0.48110 -0.15100
H 	H 	0.71690 0.80390 0.51550 0.07900
C 	C 	0.77683 0.81898 0.51010 0.08000
H 	H 	0.77920 0.81610 0.56440 0.00300
C 	C 	0.80598 0.83485 0.38940 0.08000
H 	H 	0.82950 0.84370 0.35710 -0.00500
C 	C 	0.76928 0.82729 0.35530 -0.15500
H 	H 	0.76800 0.83110 0.30100 0.08300
C 	C 	0.64475 0.60181 0.57730 0.09300
H 	H 	0.65740 0.59920 0.53150 -0.00800
C 	C 	0.66828 0.61654 0.64420 -0.15900
H 	H 	0.69650 0.62390 0.64370 0.08600
C 	C 	0.65044 0.62060 0.71220 0.11100
C 	C 	0.60883 0.60979 0.70840 -0.14800
H 	H 	0.59540 0.61250 0.75300 0.08100
C 	C 	0.58748 0.59514 0.63910 0.07900
H 	H 	0.55920 0.58760 0.63730 0.01100
C 	C 	0.67419 0.63501 0.78380 -0.08300
H 	H 	0.70300 0.65310 0.77950 0.05900
C 	C 	0.65823 0.62454 0.85540 -0.08400
H 	H 	0.62930 0.60710 0.85990 0.06000
C 	C 	0.68242 0.63821 0.92710 0.10800
C 	C 	0.66967 0.61287 0.99360 -0.16200
H 	H 	0.64460 0.58730 0.99290 0.08600
C 	C 	0.69369 0.62541 0.05960 0.08800
H 	H 	0.68500 0.60780 0.10370 -0.00500
C 	C 	0.74019 0.68677 0.00140 0.06900
H 	H 	0.76440 0.71300 0.00500 -0.00000
C 	C 	0.71824 0.67613 0.93290 -0.15000
H 	H 	0.72750 0.69460 0.89000 0.08100
Ni	Ni	0.15959 0.02420 0.52279 1.05600
Ni	Ni	0.23518 0.89399 0.81367 1.08300
O 	O 	0.14325 0.98726 0.62067 -0.42100
O 	O 	0.12898 0.02091 0.71063 -0.28200
O 	O 	0.05076 0.94005 0.61106 -0.29100
O 	O 	0.05662 0.88526 0.57847 -0.42900
O 	O 	0.06685 0.80655 0.86790 -0.37700
O 	O 	0.12010 0.82849 0.79094 -0.38600
O 	O 	0.15340 0.88623 0.93337 -0.28100
O 	O 	0.19577 0.91557 0.83235 -0.41800
N 	N 	0.22119 0.05978 0.55643 -0.23700
N 	N 	0.47664 0.16362 0.79893 -0.23500
N 	N 	0.27184 0.92451 0.90783 -0.23600
N 	N 	0.39549 0.99489 0.39713 -0.24600
C 	C 	0.11206 0.95189 0.73933 -0.12700
H 	H 	0.10257 0.95923 0.78803 0.08000
C 	C 	0.07504 0.91122 0.70743 -0.11400
H 	H 	0.05117 0.90463 0.74243 0.07000
C 	C 	0.14720 0.94311 0.76253 0.05100
H 	H 	0.17277 0.96923 0.77683 0.02300
C 	C 	0.13096 0.91349 0.83263 -0.13000
H 	H 	0.12247 0.92683 0.87333 0.07700
C 	C 	0.09118 0.87282 0.80683 -0.11800
H 	H 	0.06707 0.87093 0.83543 0.07700
C 	C 	0.08460 0.87594 0.71783 0.03900
H 	H 	0.06127 0.84943 0.69803 0.02800
C 	C 	0.15558 0.92180 0.69693 -0.04500
H 	H 	0.18197 0.93273 0.67343 0.04900
C 	C 	0.12356 0.88685 0.67453 -0.03300
H 	H 	0.12497 0.87003 0.63473 0.05000
C 	C 	0.12867 0.98929 0.68493 0.34900
C 	C 	0.06067 0.91294 0.62513 0.33200
C 	C 	0.16273 0.90436 0.86933 0.35400
C 	C 	0.09307 0.83412 0.82273 0.30800
C 	C 	0.23049 0.06982 0.63163 0.07300
H 	H 	0.20857 0.06043 0.66813 -0.00100
C 	C 	0.27033 0.09317 0.65823 -0.15000
H 	H 	0.27537 0.09913 0.71213 0.07900
C 	C 	0.30341 0.10818 0.60643 0.10000
C 	C 	0.29381 0.10005 0.52753 -0.15400
H 	H 	0.31507 0.11113 0.48953 0.08000
C 	C 	0.25294 0.07559 0.50493 0.07800
H 	H 	0.24697 0.06963 0.45123 0.00200
C 	C 	0.34673 0.12859 0.63143 -0.08600
H 	H 	0.36737 0.13883 0.59223 0.05500
C 	C 	0.35917 0.13380 0.70543 -0.08300
H 	H 	0.33867 0.12803 0.74363 0.05500
C 	C 	0.40092 0.14747 0.73473 0.10300
C 	C 	0.40605 0.14459 0.81443 -0.15100
H 	H 	0.38357 0.13723 0.84883 0.07900
C 	C 	0.44350 0.15231 0.84343 0.08000
H 	H 	0.44587 0.14943 0.89773 0.00300
C 	C 	0.47265 0.16818 0.72273 0.08000
H 	H 	0.49617 0.17703 0.69043 -0.00500
C 	C 	0.43595 0.16062 0.68863 -0.15500
H 	H 	0.43467 0.16443 0.63433 0.08300
C 	C 	0.31142 0.93514 0.91063 0.09300
H 	H 	0.32407 0.93253 0.86483 -0.00800
C 	C 	0.33495 0.94987 0.97753 -0.15900
H 	H 	0.36317 0.95723 0.97703 0.08600
C 	C 	0.31711 0.95393 0.04553 0.11200
C 	C 	0.27550 0.94312 0.04173 -0.14800
H 	H 	0.26207 0.94583 0.08633 0.08100
C 	C 	0.25415 0.92847 0.97243 0.07900
H 	H 	0.22587 0.92093 0.97063 0.01100
C 	C 	0.34086 0.96834 0.11713 -0.08300
H 	H 	0.36967 0.98643 0.11283 0.05900
C 	C 	0.32490 0.95787 0.18873 -0.08400
H 	H 	0.29597 0.94043 0.19323 0.06000
C 	C 	0.34909 0.97154 0.26043 0.10800
C 	C 	0.33634 0.94620 0.32693 -0.16200
H 	H 	0.31127 0.92063 0.32623 0.08700
C 	C 	0.36036 0.95874 0.39293 0.08800
H 	H 	0.35167 0.94113 0.43703 -0.00500
C 	C 	0.40686 0.02010 0.33473 0.06900
H 	H 	0.43107 0.04633 0.33833 -0.00000
C 	C 	0.38491 0.00946 0.26623 -0.15000
H 	H 	0.39417 0.02793 0.22333 0.08100
Ni	Ni	0.82625 0.35754 0.85613 1.05600
Ni	Ni	0.90184 0.22733 0.14701 1.08300
O 	O 	0.80991 0.32060 0.95401 -0.42000
O 	O 	0.79564 0.35425 0.04397 -0.28200
O 	O 	0.71742 0.27339 0.94440 -0.29100
O 	O 	0.72328 0.21860 0.91181 -0.42900
O 	O 	0.73351 0.13989 0.20124 -0.37700
O 	O 	0.78676 0.16183 0.12428 -0.38600
O 	O 	0.82006 0.21957 0.26671 -0.28100
O 	O 	0.86243 0.24891 0.16569 -0.41800
N 	N 	0.88785 0.39312 0.88977 -0.23700
N 	N 	0.14330 0.49696 0.13227 -0.23500
N 	N 	0.93850 0.25785 0.24117 -0.23600
N 	N 	0.06215 0.32823 0.73047 -0.24600
C 	C 	0.77872 0.28523 0.07267 -0.12700
H 	H 	0.76923 0.29257 0.12137 0.08000
C 	C 	0.74170 0.24456 0.04077 -0.11500
H 	H 	0.71783 0.23797 0.07577 0.07000
C 	C 	0.81386 0.27645 0.09587 0.05100
H 	H 	0.83943 0.30257 0.11017 0.02300
C 	C 	0.79762 0.24683 0.16597 -0.13000
H 	H 	0.78913 0.26017 0.20667 0.07700
C 	C 	0.75784 0.20616 0.14017 -0.11800
H 	H 	0.73373 0.20427 0.16877 0.07700
C 	C 	0.75126 0.20928 0.05117 0.04000
H 	H 	0.72793 0.18277 0.03137 0.02800
C 	C 	0.82224 0.25514 0.03027 -0.04400
H 	H 	0.84863 0.26607 0.00677 0.04900
C 	C 	0.79022 0.22019 0.00787 -0.03400
H 	H 	0.79163 0.20337 0.96807 0.05000
C 	C 	0.79533 0.32263 0.01827 0.34900
C 	C 	0.72733 0.24628 0.95847 0.33300
C 	C 	0.82939 0.23770 0.20267 0.35400
C 	C 	0.75973 0.16746 0.15607 0.30800
C 	C 	0.89715 0.40316 0.96497 0.07400
H 	H 	0.87523 0.39377 0.00147 -0.00200
C 	C 	0.93699 0.42651 0.99157 -0.15000
H 	H 	0.94203 0.43247 0.04547 0.07900
C 	C 	0.97007 0.44152 0.93977 0.10000
C 	C 	0.96047 0.43339 0.86087 -0.15400
H 	H 	0.98173 0.44447 0.82287 0.08000
C 	C 	0.91960 0.40893 0.83827 0.07800
H 	H 	0.91363 0.40297 0.78457 0.00200
C 	C 	0.01339 0.46193 0.96477 -0.08600
H 	H 	0.03403 0.47217 0.92557 0.05500
C 	C 	0.02583 0.46714 0.03877 -0.08200
H 	H 	0.00533 0.46137 0.07697 0.05500
C 	C 	0.06758 0.48081 0.06807 0.10200
C 	C 	0.07271 0.47793 0.14777 -0.15100
H 	H 	0.05023 0.47057 0.18217 0.07900
C 	C 	0.11016 0.48565 0.17677 0.08000
H 	H 	0.11253 0.48277 0.23107 0.00300
C 	C 	0.13931 0.50152 0.05607 0.08000
H 	H 	0.16283 0.51037 0.02377 -0.00500
C 	C 	0.10261 0.49396 0.02197 -0.15400
H 	H 	0.10133 0.49777 0.96767 0.08200
C 	C 	0.97808 0.26848 0.24397 0.09300
H 	H 	0.99073 0.26587 0.19817 -0.00800
C 	C 	0.00161 0.28321 0.31087 -0.15800
H 	H 	0.02983 0.29057 0.31037 0.08600
C 	C 	0.98377 0.28727 0.37887 0.11100
C 	C 	0.94216 0.27646 0.37507 -0.14800
H 	H 	0.92873 0.27917 0.41967 0.08100
C 	C 	0.92081 0.26181 0.30577 0.07900
H 	H 	0.89253 0.25427 0.30397 0.01100
C 	C 	0.00752 0.30168 0.45047 -0.08300
H 	H 	0.03633 0.31977 0.44617 0.05900
C 	C 	0.99156 0.29121 0.52207 -0.08400
H 	H 	0.96263 0.27377 0.52657 0.06000
C 	C 	0.01575 0.30488 0.59377 0.10800
C 	C 	0.00300 0.27954 0.66027 -0.16200
H 	H 	0.97793 0.25397 0.65957 0.08700
C 	C 	0.02702 0.29208 0.72627 0.08800
H 	H 	0.01833 0.27447 0.77037 -0.00500
C 	C 	0.07352 0.35344 0.66807 0.06900
H 	H 	0.09773 0.37967 0.67167 -0.00000
C 	C 	0.05157 0.34280 0.59957 -0.15000
H 	H 	0.06083 0.36127 0.55667 0.08100
Ni	Ni	0.30913 0.80205 0.18946 1.05600
Ni	Ni	0.43934 0.00785 0.48034 1.08300
O 	O 	0.34607 0.82265 0.28734 -0.42100
O 	O 	0.31242 0.77473 0.37730 -0.28200
O 	O 	0.39328 0.77737 0.27773 -0.29100
O 	O 	0.44807 0.83802 0.24514 -0.42900
O 	O 	0.52678 0.92696 0.53457 -0.37700
O 	O 	0.50484 0.95827 0.45761 -0.38600
O 	O 	0.44710 0.93383 0.60004 -0.28100
O 	O 	0.41776 0.94686 0.49902 -0.41800
N 	N 	0.27355 0.82807 0.22310 -0.23700
N 	N 	0.16971 0.97968 0.46560 -0.23500
N 	N 	0.40882 0.01399 0.57450 -0.23600
N 	N 	0.33844 0.06726 0.06380 -0.24500
C 	C 	0.38144 0.82683 0.40600 -0.12700
H 	H 	0.37410 0.81000 0.45470 0.08000
C 	C 	0.42211 0.83048 0.37410 -0.11400
H 	H 	0.42870 0.81320 0.40910 0.07000
C 	C 	0.39022 0.87075 0.42920 0.05200
H 	H 	0.36410 0.87020 0.44350 0.02300
C 	C 	0.41984 0.88413 0.49930 -0.13000
H 	H 	0.40650 0.86230 0.54000 0.07700
C 	C 	0.46051 0.88502 0.47350 -0.11800
H 	H 	0.46240 0.86280 0.50210 0.07700
C 	C 	0.45739 0.87532 0.38450 0.03900
H 	H 	0.48390 0.87850 0.36470 0.02800
C 	C 	0.41153 0.90044 0.36360 -0.04500
H 	H 	0.40060 0.91590 0.34010 0.04900
C 	C 	0.44648 0.90337 0.34120 -0.03300
H 	H 	0.46330 0.92160 0.30140 0.05000
C 	C 	0.34404 0.80604 0.35160 0.34900
C 	C 	0.42039 0.81439 0.29180 0.33200
C 	C 	0.42897 0.92503 0.53600 0.35400
C 	C 	0.49921 0.92561 0.48940 0.30800
C 	C 	0.26351 0.82733 0.29830 0.07300
H 	H 	0.27290 0.81480 0.33480 -0.00100
C 	C 	0.24016 0.84382 0.32490 -0.15000
H 	H 	0.23420 0.84290 0.37880 0.07900
C 	C 	0.22515 0.86189 0.27310 0.10000
C 	C 	0.23328 0.86042 0.19420 -0.15400
H 	H 	0.22220 0.87060 0.15620 0.08000
C 	C 	0.25774 0.84401 0.17160 0.07800
H 	H 	0.26370 0.84400 0.11790 0.00200
C 	C 	0.20474 0.88480 0.29810 -0.08600
H 	H 	0.19450 0.89520 0.25890 0.05500
C 	C 	0.19953 0.89203 0.37210 -0.08300
H 	H 	0.20530 0.87730 0.41030 0.05500
C 	C 	0.18586 0.92011 0.40140 0.10300
C 	C 	0.18874 0.92812 0.48110 -0.15100
H 	H 	0.19610 0.91300 0.51550 0.07900
C 	C 	0.18102 0.95785 0.51010 0.08000
H 	H 	0.18390 0.96310 0.56440 0.00300
C 	C 	0.16515 0.97113 0.38940 0.08000
H 	H 	0.15630 0.98580 0.35710 -0.00500
C 	C 	0.17271 0.94199 0.35530 -0.15500
H 	H 	0.16890 0.93690 0.30100 0.08300
C 	C 	0.39819 0.04294 0.57730 0.09300
H 	H 	0.40080 0.05820 0.53150 -0.00800
C 	C 	0.38346 0.05174 0.64420 -0.15900
H 	H 	0.37610 0.07260 0.64370 0.08600
C 	C 	0.37940 0.02984 0.71220 0.11200
C 	C 	0.39021 0.99904 0.70840 -0.14800
H 	H 	0.38750 0.98290 0.75300 0.08100
C 	C 	0.40486 0.99234 0.63910 0.07900
H 	H 	0.41240 0.97160 0.63730 0.01100
C 	C 	0.36499 0.03918 0.78380 -0.08300
H 	H 	0.34690 0.04990 0.77950 0.05900
C 	C 	0.37546 0.03369 0.85540 -0.08400
H 	H 	0.39290 0.02220 0.85990 0.06000
C 	C 	0.36179 0.04421 0.92710 0.10800
C 	C 	0.38713 0.05680 0.99360 -0.16100
H 	H 	0.41270 0.05730 0.99290 0.08600
C 	C 	0.37459 0.06828 0.05960 0.08700
H 	H 	0.39220 0.07720 0.10370 -0.00500
C 	C 	0.31323 0.05342 0.00140 0.06900
H 	H 	0.28700 0.05140 0.00500 -0.00000
C 	C 	0.32387 0.04211 0.93290 -0.15000
H 	H 	0.30540 0.03290 0.89000 0.08000
Ni	Ni	0.97580 0.13538 0.52279 1.05600
Ni	Ni	0.10601 0.34118 0.81367 1.08300
O 	O 	0.01274 0.15598 0.62067 -0.42100
O 	O 	0.97909 0.10806 0.71063 -0.28200
O 	O 	0.05995 0.11070 0.61106 -0.29100
O 	O 	0.11474 0.17135 0.57847 -0.42900
O 	O 	0.19345 0.26029 0.86790 -0.37700
O 	O 	0.17151 0.29160 0.79094 -0.38600
O 	O 	0.11377 0.26716 0.93337 -0.28100
O 	O 	0.08443 0.28019 0.83235 -0.41800
N 	N 	0.94022 0.16140 0.55643 -0.23700
N 	N 	0.83638 0.31301 0.79893 -0.23500
N 	N 	0.07549 0.34732 0.90783 -0.23600
N 	N 	0.00511 0.40059 0.39713 -0.24500
C 	C 	0.04811 0.16016 0.73933 -0.12700
H 	H 	0.04077 0.14333 0.78803 0.08000
C 	C 	0.08878 0.16381 0.70743 -0.11400
H 	H 	0.09537 0.14653 0.74243 0.07000
C 	C 	0.05689 0.20408 0.76253 0.05100
H 	H 	0.03077 0.20353 0.77683 0.02300
C 	C 	0.08651 0.21746 0.83263 -0.13000
H 	H 	0.07317 0.19563 0.87333 0.07700
C 	C 	0.12718 0.21835 0.80683 -0.11800
H 	H 	0.12907 0.19613 0.83543 0.07700
C 	C 	0.12406 0.20865 0.71783 0.03900
H 	H 	0.15057 0.21183 0.69803 0.02800
C 	C 	0.07820 0.23377 0.69693 -0.04400
H 	H 	0.06727 0.24923 0.67343 0.04900
C 	C 	0.11315 0.23670 0.67453 -0.03300
H 	H 	0.12997 0.25493 0.63473 0.05000
C 	C 	0.01071 0.13937 0.68493 0.34900
C 	C 	0.08706 0.14772 0.62513 0.33200
C 	C 	0.09564 0.25836 0.86933 0.35400
C 	C 	0.16588 0.25894 0.82273 0.30800
C 	C 	0.93018 0.16066 0.63163 0.07300
H 	H 	0.93957 0.14813 0.66813 -0.00100
C 	C 	0.90683 0.17715 0.65823 -0.15000
H 	H 	0.90087 0.17623 0.71213 0.07900
C 	C 	0.89182 0.19522 0.60643 0.10000
C 	C 	0.89995 0.19375 0.52753 -0.15400
H 	H 	0.88887 0.20393 0.48953 0.08000
C 	C 	0.92441 0.17734 0.50493 0.07800
H 	H 	0.93037 0.17733 0.45123 0.00200
C 	C 	0.87141 0.21813 0.63143 -0.08600
H 	H 	0.86117 0.22853 0.59223 0.05500
C 	C 	0.86620 0.22536 0.70543 -0.08300
H 	H 	0.87197 0.21063 0.74363 0.05500
C 	C 	0.85253 0.25344 0.73473 0.10300
C 	C 	0.85541 0.26145 0.81443 -0.15100
H 	H 	0.86277 0.24633 0.84883 0.07900
C 	C 	0.84769 0.29118 0.84343 0.08000
H 	H 	0.85057 0.29643 0.89773 0.00300
C 	C 	0.83182 0.30446 0.72273 0.08000
H 	H 	0.82297 0.31913 0.69043 -0.00500
C 	C 	0.83938 0.27532 0.68863 -0.15500
H 	H 	0.83557 0.27023 0.63433 0.08300
C 	C 	0.06486 0.37627 0.91063 0.09300
H 	H 	0.06747 0.39153 0.86483 -0.00800
C 	C 	0.05013 0.38507 0.97753 -0.15900
H 	H 	0.04277 0.40593 0.97703 0.08600
C 	C 	0.04607 0.36317 0.04553 0.11200
C 	C 	0.05688 0.33237 0.04173 -0.14800
H 	H 	0.05417 0.31623 0.08633 0.08100
C 	C 	0.07153 0.32567 0.97243 0.07900
H 	H 	0.07907 0.30493 0.97063 0.01100
C 	C 	0.03166 0.37251 0.11713 -0.08300
H 	H 	0.01357 0.38323 0.11283 0.05900
C 	C 	0.04213 0.36702 0.18873 -0.08400
H 	H 	0.05957 0.35553 0.19323 0.06000
C 	C 	0.02846 0.37754 0.26043 0.10800
C 	C 	0.05380 0.39013 0.32693 -0.16200
H 	H 	0.07937 0.39063 0.32623 0.08700
C 	C 	0.04126 0.40161 0.39293 0.08800
H 	H 	0.05887 0.41053 0.43703 -0.00500
C 	C 	0.97990 0.38675 0.33473 0.06900
H 	H 	0.95367 0.38473 0.33833 -0.00000
C 	C 	0.99054 0.37544 0.26623 -0.15000
H 	H 	0.97207 0.36623 0.22333 0.08100
Ni	Ni	0.64246 0.46872 0.85613 1.05600
Ni	Ni	0.77267 0.67452 0.14701 1.08300
O 	O 	0.67940 0.48932 0.95401 -0.42100
O 	O 	0.64575 0.44140 0.04397 -0.28200
O 	O 	0.72661 0.44404 0.94440 -0.29100
O 	O 	0.78140 0.50469 0.91181 -0.42900
O 	O 	0.86011 0.59363 0.20124 -0.37700
O 	O 	0.83817 0.62494 0.12428 -0.38600
O 	O 	0.78043 0.60050 0.26671 -0.28100
O 	O 	0.75109 0.61353 0.16569 -0.41800
N 	N 	0.60688 0.49474 0.88977 -0.23700
N 	N 	0.50304 0.64635 0.13227 -0.23500
N 	N 	0.74215 0.68066 0.24117 -0.23600
N 	N 	0.67177 0.73393 0.73047 -0.24600
C 	C 	0.71477 0.49350 0.07267 -0.12700
H 	H 	0.70743 0.47667 0.12137 0.08000
C 	C 	0.75544 0.49715 0.04077 -0.11400
H 	H 	0.76203 0.47987 0.07577 0.07000
C 	C 	0.72355 0.53742 0.09587 0.05100
H 	H 	0.69743 0.53687 0.11017 0.02300
C 	C 	0.75317 0.55080 0.16597 -0.13000
H 	H 	0.73983 0.52897 0.20667 0.07700
C 	C 	0.79384 0.55169 0.14017 -0.11800
H 	H 	0.79573 0.52947 0.16877 0.07700
C 	C 	0.79072 0.54199 0.05117 0.04000
H 	H 	0.81723 0.54517 0.03137 0.02800
C 	C 	0.74486 0.56711 0.03027 -0.04400
H 	H 	0.73393 0.58257 0.00677 0.04900
C 	C 	0.77981 0.57004 0.00787 -0.03300
H 	H 	0.79663 0.58827 0.96807 0.05000
C 	C 	0.67737 0.47271 0.01827 0.34900
C 	C 	0.75372 0.48106 0.95847 0.33300
C 	C 	0.76230 0.59170 0.20267 0.35400
C 	C 	0.83254 0.59228 0.15607 0.30800
C 	C 	0.59684 0.49400 0.96497 0.07300
H 	H 	0.60623 0.48147 0.00147 -0.00200
C 	C 	0.57349 0.51049 0.99157 -0.15000
H 	H 	0.56753 0.50957 0.04547 0.07900
C 	C 	0.55848 0.52856 0.93977 0.10000
C 	C 	0.56661 0.52709 0.86087 -0.15400
H 	H 	0.55553 0.53727 0.82287 0.08000
C 	C 	0.59107 0.51068 0.83827 0.07800
H 	H 	0.59703 0.51067 0.78457 0.00200
C 	C 	0.53807 0.55147 0.96477 -0.08600
H 	H 	0.52783 0.56187 0.92557 0.05500
C 	C 	0.53286 0.55870 0.03877 -0.08300
H 	H 	0.53863 0.54397 0.07697 0.05500
C 	C 	0.51919 0.58678 0.06807 0.10300
C 	C 	0.52207 0.59479 0.14777 -0.15100
H 	H 	0.52943 0.57967 0.18217 0.07900
C 	C 	0.51435 0.62452 0.17677 0.08000
H 	H 	0.51723 0.62977 0.23107 0.00300
C 	C 	0.49848 0.63780 0.05607 0.08000
H 	H 	0.48963 0.65247 0.02377 -0.00500
C 	C 	0.50604 0.60866 0.02197 -0.15500
H 	H 	0.50223 0.60357 0.96767 0.08200
C 	C 	0.73152 0.70961 0.24397 0.09300
H 	H 	0.73413 0.72487 0.19817 -0.00800
C 	C 	0.71679 0.71841 0.31087 -0.15900
H 	H 	0.70943 0.73927 0.31037 0.08600
C 	C 	0.71273 0.69651 0.37887 0.11100
C 	C 	0.72354 0.66571 0.37507 -0.14800
H 	H 	0.72083 0.64957 0.41967 0.08100
C 	C 	0.73819 0.65901 0.30577 0.07900
H 	H 	0.74573 0.63827 0.30397 0.01100
C 	C 	0.69832 0.70585 0.45047 -0.08300
H 	H 	0.68023 0.71657 0.44617 0.05900
C 	C 	0.70879 0.70036 0.52207 -0.08400
H 	H 	0.72623 0.68887 0.52657 0.06000
C 	C 	0.69512 0.71088 0.59377 0.10800
C 	C 	0.72046 0.72347 0.66027 -0.16200
H 	H 	0.74603 0.72397 0.65957 0.08700
C 	C 	0.70792 0.73495 0.72627 0.08800
H 	H 	0.72553 0.74387 0.77037 -0.00500
C 	C 	0.64656 0.72009 0.66807 0.06900
H 	H 	0.62033 0.71807 0.67167 -0.00000
C 	C 	0.65720 0.70878 0.59957 -0.15000
H 	H 	0.63873 0.69957 0.55667 0.08100
Ni	Ni	0.19795 0.50708 0.18946 1.05600
Ni	Ni	0.99215 0.43149 0.48034 1.08300
O 	O 	0.17735 0.52342 0.28734 -0.42100
O 	O 	0.22527 0.53769 0.37730 -0.28200
O 	O 	0.22263 0.61591 0.27773 -0.29100
O 	O 	0.16198 0.61005 0.24514 -0.42900
O 	O 	0.07304 0.59982 0.53457 -0.37700
O 	O 	0.04173 0.54657 0.45761 -0.38600
O 	O 	0.06617 0.51327 0.60004 -0.28100
O 	O 	0.05314 0.47090 0.49902 -0.41800
N 	N 	0.17193 0.44548 0.22310 -0.23700
N 	N 	0.02032 0.19003 0.46560 -0.23500
N 	N 	0.98601 0.39483 0.57450 -0.23600
N 	N 	0.93274 0.27118 0.06380 -0.24500
C 	C 	0.17317 0.55461 0.40600 -0.12700
H 	H 	0.19000 0.56410 0.45470 0.08000
C 	C 	0.16952 0.59163 0.37410 -0.11400
H 	H 	0.18680 0.61550 0.40910 0.07000
C 	C 	0.12925 0.51947 0.42920 0.05200
H 	H 	0.12980 0.49390 0.44350 0.02300
C 	C 	0.11587 0.53571 0.49930 -0.13000
H 	H 	0.13770 0.54420 0.54000 0.07700
C 	C 	0.11498 0.57549 0.47350 -0.11800
H 	H 	0.13720 0.59960 0.50210 0.07700
C 	C 	0.12468 0.58207 0.38450 0.03900
H 	H 	0.12150 0.60540 0.36470 0.02800
C 	C 	0.09956 0.51109 0.36360 -0.04500
H 	H 	0.08410 0.48470 0.34010 0.04900
C 	C 	0.09663 0.54311 0.34120 -0.03300
H 	H 	0.07840 0.54170 0.30140 0.05000
C 	C 	0.19396 0.53800 0.35160 0.34900
C 	C 	0.18561 0.60600 0.29180 0.33200
C 	C 	0.07497 0.50394 0.53600 0.35400
C 	C 	0.07439 0.57360 0.48940 0.30800
C 	C 	0.17267 0.43618 0.29830 0.07300
H 	H 	0.18520 0.45810 0.33480 -0.00100
C 	C 	0.15618 0.39634 0.32490 -0.15000
H 	H 	0.15710 0.39130 0.37880 0.07900
C 	C 	0.13811 0.36326 0.27310 0.10000
C 	C 	0.13958 0.37286 0.19420 -0.15400
H 	H 	0.12940 0.35160 0.15620 0.08000
C 	C 	0.15599 0.41373 0.17160 0.07800
H 	H 	0.15600 0.41970 0.11790 0.00200
C 	C 	0.11520 0.31994 0.29810 -0.08600
H 	H 	0.10480 0.29930 0.25890 0.05500
C 	C 	0.10797 0.30750 0.37210 -0.08300
H 	H 	0.12270 0.32800 0.41030 0.05500
C 	C 	0.07989 0.26575 0.40140 0.10300
C 	C 	0.07188 0.26062 0.48110 -0.15100
H 	H 	0.08700 0.28310 0.51550 0.07900
C 	C 	0.04215 0.22317 0.51010 0.08000
H 	H 	0.03690 0.22080 0.56440 0.00300
C 	C 	0.02887 0.19402 0.38940 0.08000
H 	H 	0.01420 0.17050 0.35710 -0.00500
C 	C 	0.05801 0.23072 0.35530 -0.15500
H 	H 	0.06310 0.23200 0.30100 0.08300
C 	C 	0.95706 0.35525 0.57730 0.09300
H 	H 	0.94180 0.34260 0.53150 -0.00800
C 	C 	0.94826 0.33172 0.64420 -0.15900
H 	H 	0.92740 0.30350 0.64370 0.08600
C 	C 	0.97016 0.34956 0.71220 0.11200
C 	C 	0.00096 0.39117 0.70840 -0.14800
H 	H 	0.01710 0.40460 0.75300 0.08100
C 	C 	0.00766 0.41252 0.63910 0.07900
H 	H 	0.02840 0.44080 0.63730 0.01100
C 	C 	0.96082 0.32581 0.78380 -0.08300
H 	H 	0.95010 0.29700 0.77950 0.05900
C 	C 	0.96631 0.34177 0.85540 -0.08400
H 	H 	0.97780 0.37070 0.85990 0.06000
C 	C 	0.95579 0.31758 0.92710 0.10800
C 	C 	0.94320 0.33033 0.99360 -0.16100
H 	H 	0.94270 0.35540 0.99290 0.08600
C 	C 	0.93172 0.30631 0.05960 0.08700
H 	H 	0.92280 0.31500 0.10370 -0.00500
C 	C 	0.94658 0.25981 0.00140 0.06900
H 	H 	0.94860 0.23560 0.00500 -0.00000
C 	C 	0.95789 0.28176 0.93290 -0.15000
H 	H 	0.96710 0.27250 0.89000 0.08000
Ni	Ni	0.86462 0.84041 0.52279 1.05600
Ni	Ni	0.65882 0.76482 0.81367 1.08300
O 	O 	0.84402 0.85675 0.62067 -0.42100
O 	O 	0.89194 0.87102 0.71063 -0.28200
O 	O 	0.88930 0.94924 0.61106 -0.29100
O 	O 	0.82865 0.94338 0.57847 -0.42900
O 	O 	0.73971 0.93315 0.86790 -0.37700
O 	O 	0.70840 0.87990 0.79094 -0.38600
O 	O 	0.73284 0.84660 0.93337 -0.28100
O 	O 	0.71981 0.80423 0.83235 -0.41800
N 	N 	0.83860 0.77881 0.55643 -0.23700
N 	N 	0.68699 0.52336 0.79893 -0.23500
N 	N 	0.65268 0.72816 0.90783 -0.23600
N 	N 	0.59941 0.60451 0.39713 -0.24600
C 	C 	0.83984 0.88794 0.73933 -0.12700
H 	H 	0.85667 0.89743 0.78803 0.08000
C 	C 	0.83619 0.92496 0.70743 -0.11400
H 	H 	0.85347 0.94883 0.74243 0.07000
C 	C 	0.79592 0.85280 0.76253 0.05200
H 	H 	0.79647 0.82723 0.77683 0.02300
C 	C 	0.78254 0.86904 0.83263 -0.13000
H 	H 	0.80437 0.87753 0.87333 0.07700
C 	C 	0.78165 0.90882 0.80683 -0.11800
H 	H 	0.80387 0.93293 0.83543 0.07700
C 	C 	0.79135 0.91540 0.71783 0.03900
H 	H 	0.78817 0.93873 0.69803 0.02800
C 	C 	0.76623 0.84442 0.69693 -0.04500
H 	H 	0.75077 0.81803 0.67343 0.04900
C 	C 	0.76330 0.87644 0.67453 -0.03300
H 	H 	0.74507 0.87503 0.63473 0.05000
C 	C 	0.86063 0.87133 0.68493 0.34900
C 	C 	0.85228 0.93933 0.62513 0.33200
C 	C 	0.74164 0.83727 0.86933 0.35400
C 	C 	0.74106 0.90693 0.82273 0.30800
C 	C 	0.83934 0.76951 0.63163 0.07300
H 	H 	0.85187 0.79143 0.66813 -0.00100
C 	C 	0.82285 0.72967 0.65823 -0.15000
H 	H 	0.82377 0.72463 0.71213 0.07900
C 	C 	0.80478 0.69659 0.60643 0.10000
C 	C 	0.80625 0.70619 0.52753 -0.15400
H 	H 	0.79607 0.68493 0.48953 0.08000
C 	C 	0.82266 0.74706 0.50493 0.07800
H 	H 	0.82267 0.75303 0.45123 0.00200
C 	C 	0.78187 0.65327 0.63143 -0.08600
H 	H 	0.77147 0.63263 0.59223 0.05500
C 	C 	0.77464 0.64083 0.70543 -0.08300
H 	H 	0.78937 0.66133 0.74363 0.05500
C 	C 	0.74656 0.59908 0.73473 0.10300
C 	C 	0.73855 0.59395 0.81443 -0.15100
H 	H 	0.75367 0.61643 0.84883 0.07900
C 	C 	0.70882 0.55650 0.84343 0.08000
H 	H 	0.70357 0.55413 0.89773 0.00300
C 	C 	0.69554 0.52735 0.72273 0.08000
H 	H 	0.68087 0.50383 0.69043 -0.00500
C 	C 	0.72468 0.56405 0.68863 -0.15500
H 	H 	0.72977 0.56533 0.63433 0.08300
C 	C 	0.62373 0.68858 0.91063 0.09300
H 	H 	0.60847 0.67593 0.86483 -0.00800
C 	C 	0.61493 0.66505 0.97753 -0.15900
H 	H 	0.59407 0.63683 0.97703 0.08600
C 	C 	0.63683 0.68289 0.04553 0.11100
C 	C 	0.66763 0.72450 0.04173 -0.14800
H 	H 	0.68377 0.73793 0.08633 0.08100
C 	C 	0.67433 0.74585 0.97243 0.07900
H 	H 	0.69507 0.77413 0.97063 0.01100
C 	C 	0.62749 0.65914 0.11713 -0.08300
H 	H 	0.61677 0.63033 0.11283 0.05900
C 	C 	0.63298 0.67510 0.18873 -0.08400
H 	H 	0.64447 0.70403 0.19323 0.06000
C 	C 	0.62246 0.65091 0.26043 0.10800
C 	C 	0.60987 0.66366 0.32693 -0.16200
H 	H 	0.60937 0.68873 0.32623 0.08700
C 	C 	0.59839 0.63964 0.39293 0.08800
H 	H 	0.58947 0.64833 0.43703 -0.00500
C 	C 	0.61325 0.59314 0.33473 0.06900
H 	H 	0.61527 0.56893 0.33833 -0.00000
C 	C 	0.62456 0.61509 0.26623 -0.15000
H 	H 	0.63377 0.60583 0.22333 0.08100
Ni	Ni	0.53128 0.17375 0.85613 1.05600
Ni	Ni	0.32548 0.09816 0.14701 1.08300
O 	O 	0.51068 0.19009 0.95401 -0.42000
O 	O 	0.55860 0.20436 0.04397 -0.28200
O 	O 	0.55596 0.28258 0.94440 -0.29100
O 	O 	0.49531 0.27672 0.91181 -0.42900
O 	O 	0.40637 0.26649 0.20124 -0.37700
O 	O 	0.37506 0.21324 0.12428 -0.38600
O 	O 	0.39950 0.17994 0.26671 -0.28100
O 	O 	0.38647 0.13757 0.16569 -0.41800
N 	N 	0.50526 0.11215 0.88977 -0.23700
N 	N 	0.35365 0.85670 0.13227 -0.23500
N 	N 	0.31934 0.06150 0.24117 -0.23600
N 	N 	0.26607 0.93785 0.73047 -0.24600
C 	C 	0.50650 0.22128 0.07267 -0.12700
H 	H 	0.52333 0.23077 0.12137 0.08000
C 	C 	0.50285 0.25830 0.04077 -0.11400
H 	H 	0.52013 0.28217 0.07577 0.07000
C 	C 	0.46258 0.18614 0.09587 0.05100
H 	H 	0.46313 0.16057 0.11017 0.02300
C 	C 	0.44920 0.20238 0.16597 -0.13000
H 	H 	0.47103 0.21087 0.20667 0.07700
C 	C 	0.44831 0.24216 0.14017 -0.11800
H 	H 	0.47053 0.26627 0.16877 0.07700
C 	C 	0.45801 0.24874 0.05117 0.04000
H 	H 	0.45483 0.27207 0.03137 0.02800
C 	C 	0.43289 0.17776 0.03027 -0.04400
H 	H 	0.41743 0.15137 0.00677 0.04900
C 	C 	0.42996 0.20978 0.00787 -0.03300
H 	H 	0.41173 0.20837 0.96807 0.05000
C 	C 	0.52729 0.20467 0.01827 0.34900
C 	C 	0.51894 0.27267 0.95847 0.33300
C 	C 	0.40830 0.17061 0.20267 0.35400
C 	C 	0.40772 0.24027 0.15607 0.30800
C 	C 	0.50600 0.10285 0.96497 0.07400
H 	H 	0.51853 0.12477 0.00147 -0.00200
C 	C 	0.48951 0.06301 0.99157 -0.15000
H 	H 	0.49043 0.05797 0.04547 0.07900
C 	C 	0.47144 0.02993 0.93977 0.10000
C 	C 	0.47291 0.03953 0.86087 -0.15400
H 	H 	0.46273 0.01827 0.82287 0.08000
C 	C 	0.48932 0.08040 0.83827 0.07800
H 	H 	0.48933 0.08637 0.78457 0.00200
C 	C 	0.44853 0.98661 0.96477 -0.08600
H 	H 	0.43813 0.96597 0.92557 0.05500
C 	C 	0.44130 0.97417 0.03877 -0.08200
H 	H 	0.45603 0.99467 0.07697 0.05500
C 	C 	0.41322 0.93242 0.06807 0.10200
C 	C 	0.40521 0.92729 0.14777 -0.15100
H 	H 	0.42033 0.94977 0.18217 0.07900
C 	C 	0.37548 0.88984 0.17677 0.08000
H 	H 	0.37023 0.88747 0.23107 0.00300
C 	C 	0.36220 0.86069 0.05607 0.08000
H 	H 	0.34753 0.83717 0.02377 -0.00500
C 	C 	0.39134 0.89739 0.02197 -0.15400
H 	H 	0.39643 0.89867 0.96767 0.08200
C 	C 	0.29039 0.02192 0.24397 0.09200
H 	H 	0.27513 0.00927 0.19817 -0.00800
C 	C 	0.28159 0.99839 0.31087 -0.15800
H 	H 	0.26073 0.97017 0.31037 0.08600
C 	C 	0.30349 0.01623 0.37887 0.11100
C 	C 	0.33429 0.05784 0.37507 -0.14800
H 	H 	0.35043 0.07127 0.41967 0.08100
C 	C 	0.34099 0.07919 0.30577 0.07900
H 	H 	0.36173 0.10747 0.30397 0.01100
C 	C 	0.29415 0.99248 0.45047 -0.08300
H 	H 	0.28343 0.96367 0.44617 0.05900
C 	C 	0.29964 0.00844 0.52207 -0.08400
H 	H 	0.31113 0.03737 0.52657 0.06000
C 	C 	0.28912 0.98425 0.59377 0.10800
C 	C 	0.27653 0.99700 0.66027 -0.16200
H 	H 	0.27603 0.02207 0.65957 0.08700
C 	C 	0.26505 0.97298 0.72627 0.08800
H 	H 	0.25613 0.98167 0.77037 -0.00500
C 	C 	0.27991 0.92648 0.66807 0.06900
H 	H 	0.28193 0.90227 0.67167 -0.00000
C 	C 	0.29122 0.94843 0.59957 -0.15000
H 	H 	0.30043 0.93917 0.55667 0.08100
