data_crystal

_cell_length_a 19.77570
_cell_length_b 44.70640
_cell_length_c 28.63030
_cell_angle_alpha 90.00000
_cell_angle_beta  90.00000
_cell_angle_gamma 90.00000

_symmetry_space_group_name_	'P 1'
_symmetry_space_group_name_H-M	'P 1'

loop_
_symmetry_equiv_pos_as_xyz
  x,y,z

loop_
_atom_site_label
_atom_site_type_symbol
_atom_site_fract_x
_atom_site_fract_y
_atom_site_fract_z
_atom_site_charge
Zn	Zn	0.57498 0.26662 0.24687 1.19900
Zn	Zn	0.24271 0.38382 0.43394 1.23900
O 	O 	0.39030 0.40031 0.45000 -0.49100
O 	O 	0.43950 0.29926 0.30064 -0.47000
O 	O 	0.93980 0.26423 0.30560 -0.47100
O 	O 	0.55300 0.29727 0.29809 -0.47800
O 	O 	0.32730 0.36561 0.41520 -0.47300
O 	O 	0.27750 0.56025 0.45220 -0.50800
O 	O 	0.06510 0.52467 0.30203 -0.49600
O 	O 	0.22710 0.42370 0.40698 -0.48300
O 	O 	0.07770 0.47571 0.29608 -0.48200
O 	O 	0.05190 0.26574 0.29322 -0.51300
O 	O 	0.15770 0.36272 0.43090 -0.47800
O 	O 	0.63450 0.39102 0.45210 -0.52400
O 	O 	0.91190 0.37155 0.44890 -0.56500
C 	C 	0.02450 0.34443 0.41310 0.10600
H 	H 	0.03010 0.36020 0.43510 0.01800
C 	C 	0.50830 0.37274 0.42270 0.09600
H 	H 	0.51060 0.38740 0.44670 0.02600
C 	C 	0.00660 0.29808 0.34980 -0.23800
C 	C 	0.44200 0.34238 0.37020 0.09000
H 	H 	0.39940 0.33600 0.35850 0.03600
C 	C 	0.95980 0.33391 0.40300 -0.19600
C 	C 	0.56370 0.33861 0.37010 0.09800
H 	H 	0.60390 0.32950 0.35860 0.02200
C 	C 	0.22310 0.47608 0.40140 -0.17200
C 	C 	0.44550 0.36374 0.40530 -0.15500
C 	C 	0.56760 0.36030 0.40490 -0.17100
C 	C 	0.50180 0.33027 0.35230 -0.14800
C 	C 	0.16450 0.52822 0.36870 0.14200
H 	H 	0.14520 0.54610 0.35660 0.01600
C 	C 	0.38340 0.37786 0.42620 0.42300
C 	C 	0.15050 0.34404 0.39890 0.45100
C 	C 	0.08070 0.33212 0.39160 -0.18300
C 	C 	0.99830 0.27411 0.31400 0.46800
C 	C 	0.17420 0.47493 0.36610 0.11400
H 	H 	0.16130 0.45630 0.35270 0.02000
C 	C 	0.07100 0.30829 0.36000 0.13500
H 	H 	0.10910 0.29920 0.34550 0.01400
C 	C 	0.95130 0.31109 0.37080 0.17300
H 	H 	0.90700 0.30440 0.36320 0.00200
C 	C 	0.24170 0.50352 0.42010 0.11200
H 	H 	0.27480 0.50450 0.44410 0.02400
C 	C 	0.21070 0.53007 0.40320 -0.19200
C 	C 	0.49780 0.30700 0.31360 0.40600
C 	C 	0.25080 0.44767 0.42120 0.42900
C 	C 	0.90050 0.35060 0.42380 0.51300
C 	C 	0.09310 0.50045 0.31280 0.44000
C 	C 	0.14480 0.50148 0.35100 -0.19000
C 	C 	0.63500 0.36925 0.42530 0.45200
C 	C 	0.22890 0.55920 0.42700 0.51300
O 	O 	0.21040 0.58481 0.40110 -0.36600
O 	O 	0.84400 0.34900 0.40010 -0.24000
O 	O 	0.19260 0.34390 0.36540 -0.22000
O 	O 	0.29740 0.45082 0.45130 -0.46700
O 	O 	0.68550 0.35760 0.40970 -0.64100
Zn	Zn	0.76466 0.34558 0.53587 1.04400
O 	O 	0.17310 0.57470 0.43560 -0.40400
O 	O 	0.19920 0.32660 0.39120 -0.19900
O 	O 	0.84460 0.33790 0.42200 -0.48000
Zn	Zn	0.77434 0.37411 0.57258 1.09200
Zn	Zn	0.07498 0.76662 0.74687 1.19700
Zn	Zn	0.74271 0.88382 0.93394 1.24100
O 	O 	0.89030 0.90031 0.95000 -0.47700
O 	O 	0.93950 0.79926 0.80064 -0.47900
O 	O 	0.43980 0.76423 0.80560 -0.46100
O 	O 	0.05300 0.79727 0.79809 -0.50400
O 	O 	0.82730 0.86561 0.91520 -0.46900
O 	O 	0.77750 0.06025 0.95220 -0.49700
O 	O 	0.56510 0.02467 0.80203 -0.49000
O 	O 	0.72710 0.92370 0.90698 -0.47900
O 	O 	0.57770 0.97571 0.79608 -0.47800
O 	O 	0.55190 0.76574 0.79322 -0.48600
O 	O 	0.65770 0.86272 0.93090 -0.46800
O 	O 	0.13450 0.89102 0.95210 -0.51600
O 	O 	0.41190 0.87155 0.94890 -0.56100
C 	C 	0.52450 0.84443 0.91310 0.12000
H 	H 	0.53010 0.86020 0.93510 0.02400
C 	C 	0.00830 0.87274 0.92270 0.07700
H 	H 	0.01060 0.88740 0.94670 0.03100
C 	C 	0.50660 0.79808 0.84980 -0.17200
C 	C 	0.94200 0.84238 0.87020 0.12900
H 	H 	0.89940 0.83600 0.85850 0.02600
C 	C 	0.45980 0.83391 0.90300 -0.19700
C 	C 	0.06370 0.83861 0.87010 0.11900
H 	H 	0.10390 0.82950 0.85860 0.01500
C 	C 	0.72310 0.97608 0.90140 -0.16500
C 	C 	0.94550 0.86374 0.90530 -0.14200
C 	C 	0.06760 0.86030 0.90490 -0.17400
C 	C 	0.00180 0.83027 0.85230 -0.20200
C 	C 	0.66450 0.02822 0.86870 0.13800
H 	H 	0.64520 0.04610 0.85660 0.02000
C 	C 	0.88340 0.87786 0.92620 0.42300
C 	C 	0.65050 0.84404 0.89890 0.44600
C 	C 	0.58070 0.83212 0.89160 -0.16900
C 	C 	0.49830 0.77411 0.81400 0.41000
C 	C 	0.67420 0.97493 0.86610 0.11100
H 	H 	0.66130 0.95630 0.85270 0.02400
C 	C 	0.57100 0.80829 0.86000 0.10800
H 	H 	0.60910 0.79920 0.84550 0.02500
C 	C 	0.45130 0.81109 0.87080 0.12500
H 	H 	0.40700 0.80440 0.86320 0.01700
C 	C 	0.74170 0.00352 0.92010 0.10900
H 	H 	0.77480 0.00450 0.94410 0.03100
C 	C 	0.71070 0.03007 0.90320 -0.18300
C 	C 	0.99780 0.80700 0.81360 0.46000
C 	C 	0.75080 0.94767 0.92120 0.42800
C 	C 	0.40050 0.85060 0.92380 0.51100
C 	C 	0.59310 0.00045 0.81280 0.43800
C 	C 	0.64480 0.00148 0.85100 -0.18300
C 	C 	0.13500 0.86925 0.92530 0.45300
C 	C 	0.72890 0.05920 0.92700 0.50800
O 	O 	0.71040 0.08481 0.90110 -0.36400
O 	O 	0.34400 0.84900 0.90010 -0.24400
O 	O 	0.69260 0.84390 0.86540 -0.21800
O 	O 	0.79740 0.95082 0.95130 -0.45500
O 	O 	0.18550 0.85760 0.90970 -0.63900
Zn	Zn	0.26466 0.84558 0.03587 1.04200
O 	O 	0.67310 0.07470 0.93560 -0.39300
O 	O 	0.69920 0.82660 0.89120 -0.19300
O 	O 	0.34460 0.83790 0.92200 -0.47100
Zn	Zn	0.27434 0.87411 0.07258 1.09200
Zn	Zn	0.42502 0.73338 0.24687 1.19800
Zn	Zn	0.75729 0.61618 0.43394 1.23800
O 	O 	0.60970 0.59969 0.45000 -0.49200
O 	O 	0.56050 0.70074 0.30064 -0.47100
O 	O 	0.06020 0.73577 0.30560 -0.45200
O 	O 	0.44700 0.70273 0.29809 -0.48000
O 	O 	0.67270 0.63439 0.41520 -0.47400
O 	O 	0.72250 0.43975 0.45220 -0.50800
O 	O 	0.93490 0.47533 0.30203 -0.48100
O 	O 	0.77290 0.57630 0.40698 -0.48200
O 	O 	0.92230 0.52429 0.29608 -0.47000
O 	O 	0.94810 0.73426 0.29322 -0.46100
O 	O 	0.84230 0.63728 0.43090 -0.47400
O 	O 	0.36550 0.60898 0.45210 -0.52400
O 	O 	0.08810 0.62845 0.44890 -0.57700
C 	C 	0.97550 0.65557 0.41310 0.14100
H 	H 	0.96990 0.63980 0.43510 0.01900
C 	C 	0.49170 0.62726 0.42270 0.09600
H 	H 	0.48940 0.61260 0.44670 0.02600
C 	C 	0.99340 0.70192 0.34980 -0.11200
C 	C 	0.55800 0.65762 0.37020 0.09000
H 	H 	0.60060 0.66400 0.35850 0.03600
C 	C 	0.04020 0.66609 0.40300 -0.21100
C 	C 	0.43630 0.66139 0.37010 0.09800
H 	H 	0.39610 0.67050 0.35860 0.02200
C 	C 	0.77690 0.52392 0.40140 -0.16900
C 	C 	0.55450 0.63626 0.40530 -0.15500
C 	C 	0.43240 0.63970 0.40490 -0.17200
C 	C 	0.49820 0.66973 0.35230 -0.14800
C 	C 	0.83550 0.47178 0.36870 0.13900
H 	H 	0.85480 0.45390 0.35660 0.02100
C 	C 	0.61660 0.62214 0.42620 0.42300
C 	C 	0.84950 0.65596 0.39890 0.44700
C 	C 	0.91930 0.66788 0.39160 -0.16700
C 	C 	0.00170 0.72589 0.31400 0.35400
C 	C 	0.82580 0.52507 0.36610 0.11200
H 	H 	0.83870 0.54370 0.35270 0.02400
C 	C 	0.92900 0.69171 0.36000 0.08600
H 	H 	0.89090 0.70080 0.34550 0.03300
C 	C 	0.04870 0.68891 0.37080 0.08200
H 	H 	0.09300 0.69560 0.36320 0.02800
C 	C 	0.75830 0.49648 0.42010 0.11000
H 	H 	0.72520 0.49550 0.44410 0.02500
C 	C 	0.78930 0.46993 0.40320 -0.18700
C 	C 	0.50220 0.69300 0.31360 0.40700
C 	C 	0.74920 0.55233 0.42120 0.42900
C 	C 	0.09950 0.64940 0.42380 0.51300
C 	C 	0.90690 0.49955 0.31280 0.43700
C 	C 	0.85520 0.49852 0.35100 -0.18200
C 	C 	0.36500 0.63075 0.42530 0.45200
C 	C 	0.77110 0.44080 0.42700 0.51100
O 	O 	0.78960 0.41519 0.40110 -0.36400
O 	O 	0.15600 0.65100 0.40010 -0.24200
O 	O 	0.80740 0.65610 0.36540 -0.21700
O 	O 	0.70260 0.54918 0.45130 -0.46700
O 	O 	0.31450 0.64240 0.40970 -0.64100
Zn	Zn	0.23534 0.65442 0.53587 1.04400
O 	O 	0.82690 0.42530 0.43560 -0.40000
O 	O 	0.80080 0.67340 0.39120 -0.19700
O 	O 	0.15540 0.66210 0.42200 -0.48000
Zn	Zn	0.22566 0.62589 0.57258 1.09200
Zn	Zn	0.92502 0.23338 0.74687 1.20000
Zn	Zn	0.25729 0.11618 0.93394 1.24100
O 	O 	0.10970 0.09969 0.95000 -0.48800
O 	O 	0.06050 0.20074 0.80064 -0.46100
O 	O 	0.56020 0.23577 0.80560 -0.46100
O 	O 	0.94700 0.20273 0.79809 -0.45300
O 	O 	0.17270 0.13439 0.91520 -0.47100
O 	O 	0.22250 0.93975 0.95220 -0.49900
O 	O 	0.43490 0.97533 0.80203 -0.49000
O 	O 	0.27290 0.07630 0.90698 -0.48000
O 	O 	0.42230 0.02429 0.79608 -0.47800
O 	O 	0.44810 0.23426 0.79322 -0.48600
O 	O 	0.34230 0.13728 0.93090 -0.46900
O 	O 	0.86550 0.10898 0.95210 -0.51200
O 	O 	0.58810 0.12845 0.94890 -0.56100
C 	C 	0.47550 0.15557 0.91310 0.12100
H 	H 	0.46990 0.13980 0.93510 0.02400
C 	C 	0.99170 0.12726 0.92270 0.11100
H 	H 	0.98940 0.11260 0.94670 0.03100
C 	C 	0.49340 0.20192 0.84980 -0.17200
C 	C 	0.05800 0.15762 0.87020 0.04900
H 	H 	0.10060 0.16400 0.85850 0.04800
C 	C 	0.54020 0.16609 0.90300 -0.19700
C 	C 	0.93630 0.16139 0.87010 0.07400
H 	H 	0.89610 0.17050 0.85860 0.03300
C 	C 	0.27690 0.02392 0.90140 -0.16700
C 	C 	0.05450 0.13626 0.90530 -0.15900
C 	C 	0.93240 0.13970 0.90490 -0.15900
C 	C 	0.99820 0.16973 0.85230 -0.08800
C 	C 	0.33550 0.97178 0.86870 0.13900
H 	H 	0.35480 0.95390 0.85660 0.01900
C 	C 	0.11660 0.12214 0.92620 0.42200
C 	C 	0.34950 0.15596 0.89890 0.44600
C 	C 	0.41930 0.16788 0.89160 -0.17000
C 	C 	0.50170 0.22589 0.81400 0.41000
C 	C 	0.32580 0.02507 0.86610 0.11200
H 	H 	0.33870 0.04370 0.85270 0.02300
C 	C 	0.42900 0.19171 0.86000 0.10900
H 	H 	0.39090 0.20080 0.84550 0.02400
C 	C 	0.54870 0.18891 0.87080 0.12500
H 	H 	0.59300 0.19560 0.86320 0.01700
C 	C 	0.25830 0.99648 0.92010 0.10900
H 	H 	0.22520 0.99550 0.94410 0.02900
C 	C 	0.28930 0.96993 0.90320 -0.18500
C 	C 	0.00220 0.19300 0.81360 0.35200
C 	C 	0.24920 0.05233 0.92120 0.42800
C 	C 	0.59950 0.14940 0.92380 0.51100
C 	C 	0.40690 0.99955 0.81280 0.43800
C 	C 	0.35520 0.99852 0.85100 -0.18400
C 	C 	0.86500 0.13075 0.92530 0.44900
C 	C 	0.27110 0.94080 0.92700 0.50900
O 	O 	0.28960 0.91519 0.90110 -0.36500
O 	O 	0.65600 0.15100 0.90010 -0.24300
O 	O 	0.30740 0.15610 0.86540 -0.21900
O 	O 	0.20260 0.04918 0.95130 -0.45800
O 	O 	0.81450 0.14240 0.90970 -0.63600
Zn	Zn	0.73534 0.15442 0.03587 1.04300
O 	O 	0.32690 0.92530 0.93560 -0.39300
O 	O 	0.30080 0.17340 0.89120 -0.19500
O 	O 	0.65540 0.16210 0.92200 -0.47100
Zn	Zn	0.72566 0.12589 0.07258 1.09200
Zn	Zn	0.92502 0.76662 0.75313 1.20000
Zn	Zn	0.25729 0.88382 0.56606 1.23800
O 	O 	0.10970 0.90031 0.55000 -0.49800
O 	O 	0.06050 0.79926 0.69936 -0.46200
O 	O 	0.56020 0.76423 0.69440 -0.46200
O 	O 	0.94700 0.79727 0.70191 -0.45400
O 	O 	0.17270 0.86561 0.58480 -0.47500
O 	O 	0.22250 0.06025 0.54780 -0.51000
O 	O 	0.43490 0.02467 0.69797 -0.49100
O 	O 	0.27290 0.92370 0.59302 -0.48400
O 	O 	0.42230 0.97571 0.70392 -0.47900
O 	O 	0.44810 0.76574 0.70678 -0.48700
O 	O 	0.34230 0.86272 0.56910 -0.47600
O 	O 	0.86550 0.89102 0.54790 -0.52200
O 	O 	0.58810 0.87155 0.55110 -0.57100
C 	C 	0.47550 0.84443 0.58690 0.12400
H 	H 	0.46990 0.86020 0.56490 0.01800
C 	C 	0.99170 0.87274 0.57730 0.11300
H 	H 	0.98940 0.88740 0.55330 0.02600
C 	C 	0.49340 0.79808 0.65020 -0.17500
C 	C 	0.05800 0.84238 0.62980 0.05000
H 	H 	0.10060 0.83600 0.64150 0.04700
C 	C 	0.54020 0.83391 0.59700 -0.20300
C 	C 	0.93630 0.83861 0.62990 0.07500
H 	H 	0.89610 0.82950 0.64140 0.03100
C 	C 	0.27690 0.97608 0.59860 -0.17200
C 	C 	0.05450 0.86374 0.59470 -0.16400
C 	C 	0.93240 0.86030 0.59510 -0.16400
C 	C 	0.99820 0.83027 0.64770 -0.09100
C 	C 	0.33550 0.02822 0.63130 0.14100
H 	H 	0.35480 0.04610 0.64340 0.01800
C 	C 	0.11660 0.87786 0.57380 0.42300
C 	C 	0.34950 0.84404 0.60110 0.44900
C 	C 	0.41930 0.83212 0.60840 -0.17500
C 	C 	0.50170 0.77411 0.68600 0.41100
C 	C 	0.32580 0.97493 0.63390 0.11300
H 	H 	0.33870 0.95630 0.64730 0.02200
C 	C 	0.42900 0.80829 0.64000 0.11100
H 	H 	0.39090 0.79920 0.65450 0.02300
C 	C 	0.54870 0.81109 0.62920 0.12800
H 	H 	0.59300 0.80440 0.63680 0.01500
C 	C 	0.25830 0.00352 0.57990 0.11200
H 	H 	0.22520 0.00450 0.55590 0.02400
C 	C 	0.28930 0.03007 0.59680 -0.19100
C 	C 	0.00220 0.80700 0.68640 0.35200
C 	C 	0.24920 0.94767 0.57880 0.42900
C 	C 	0.59950 0.85060 0.57620 0.51300
C 	C 	0.40690 0.00045 0.68720 0.43900
C 	C 	0.35520 0.00148 0.64900 -0.18700
C 	C 	0.86500 0.86925 0.57470 0.45000
C 	C 	0.27110 0.05920 0.57300 0.51200
O 	O 	0.28960 0.08481 0.59890 -0.36600
O 	O 	0.65600 0.84900 0.59990 -0.24000
O 	O 	0.30740 0.84390 0.63460 -0.21900
O 	O 	0.20260 0.95082 0.54870 -0.46900
O 	O 	0.81450 0.85760 0.59030 -0.64000
Zn	Zn	0.73534 0.84558 0.46413 1.04400
O 	O 	0.32690 0.07470 0.56440 -0.40200
O 	O 	0.30080 0.82660 0.60880 -0.19900
O 	O 	0.65540 0.83790 0.57800 -0.48000
Zn	Zn	0.72566 0.87411 0.42742 1.09200
Zn	Zn	0.42502 0.26662 0.25313 1.19800
Zn	Zn	0.75729 0.38382 0.06606 1.23700
O 	O 	0.60970 0.40031 0.05000 -0.49800
O 	O 	0.56050 0.29926 0.19936 -0.47100
O 	O 	0.06020 0.26423 0.19440 -0.45300
O 	O 	0.44700 0.29727 0.20191 -0.48000
O 	O 	0.67270 0.36561 0.08480 -0.47600
O 	O 	0.72250 0.56025 0.04780 -0.51500
O 	O 	0.93490 0.52467 0.19797 -0.48200
O 	O 	0.77290 0.42370 0.09302 -0.48300
O 	O 	0.92230 0.47571 0.20392 -0.47000
O 	O 	0.94810 0.26574 0.20678 -0.46200
O 	O 	0.84230 0.36272 0.06910 -0.47800
O 	O 	0.36550 0.39102 0.04790 -0.53000
O 	O 	0.08810 0.37155 0.05110 -0.58300
C 	C 	0.97550 0.34443 0.08690 0.14200
H 	H 	0.96990 0.36020 0.06490 0.01500
C 	C 	0.49170 0.37274 0.07730 0.09700
H 	H 	0.48940 0.38740 0.05330 0.02100
C 	C 	0.99340 0.29808 0.15020 -0.11500
C 	C 	0.55800 0.34238 0.12980 0.09100
H 	H 	0.60060 0.33600 0.14150 0.03500
C 	C 	0.04020 0.33391 0.09700 -0.21500
C 	C 	0.43630 0.33861 0.12990 0.09900
H 	H 	0.39610 0.32950 0.14140 0.02100
C 	C 	0.77690 0.47608 0.09860 -0.17200
C 	C 	0.55450 0.36374 0.09470 -0.15900
C 	C 	0.43240 0.36030 0.09510 -0.17500
C 	C 	0.49820 0.33027 0.14770 -0.15000
C 	C 	0.83550 0.52822 0.13130 0.14100
H 	H 	0.85480 0.54610 0.14340 0.02000
C 	C 	0.61660 0.37786 0.07380 0.42400
C 	C 	0.84950 0.34404 0.10110 0.44800
C 	C 	0.91930 0.33212 0.10840 -0.17000
C 	C 	0.00170 0.27411 0.18600 0.35400
C 	C 	0.82580 0.47493 0.13390 0.11300
H 	H 	0.83870 0.45630 0.14730 0.02300
C 	C 	0.92900 0.30829 0.14000 0.08700
H 	H 	0.89090 0.29920 0.15450 0.03200
C 	C 	0.04870 0.31109 0.12920 0.08400
H 	H 	0.09300 0.30440 0.13680 0.02700
C 	C 	0.75830 0.50352 0.07990 0.11200
H 	H 	0.72520 0.50450 0.05590 0.02100
C 	C 	0.78930 0.53007 0.09680 -0.19100
C 	C 	0.50220 0.30700 0.18640 0.40700
C 	C 	0.74920 0.44767 0.07880 0.42900
C 	C 	0.09950 0.35060 0.07620 0.51400
C 	C 	0.90690 0.50045 0.18720 0.43700
C 	C 	0.85520 0.50148 0.14900 -0.18400
C 	C 	0.36500 0.36925 0.07470 0.45200
C 	C 	0.77110 0.55920 0.07300 0.51300
O 	O 	0.78960 0.58481 0.09890 -0.36400
O 	O 	0.15600 0.34900 0.09990 -0.24000
O 	O 	0.80740 0.34390 0.13460 -0.21700
O 	O 	0.70260 0.45082 0.04870 -0.47200
O 	O 	0.31450 0.35760 0.09030 -0.64300
Zn	Zn	0.23534 0.34558 0.96413 1.05200
O 	O 	0.82690 0.57470 0.06440 -0.40300
O 	O 	0.80080 0.32660 0.10880 -0.20000
O 	O 	0.15540 0.33790 0.07800 -0.48400
Zn	Zn	0.22566 0.37411 0.92742 1.09500
Zn	Zn	0.07498 0.23338 0.75313 1.19700
Zn	Zn	0.74271 0.11618 0.56606 1.23800
O 	O 	0.89030 0.09969 0.55000 -0.48700
O 	O 	0.93950 0.20074 0.69936 -0.48000
O 	O 	0.43980 0.23577 0.69440 -0.46200
O 	O 	0.05300 0.20273 0.70191 -0.50500
O 	O 	0.82730 0.13439 0.58480 -0.47300
O 	O 	0.77750 0.93975 0.54780 -0.50700
O 	O 	0.56510 0.97533 0.69797 -0.49100
O 	O 	0.72710 0.07630 0.59302 -0.48300
O 	O 	0.57770 0.02429 0.70392 -0.47800
O 	O 	0.55190 0.23426 0.70678 -0.48700
O 	O 	0.65770 0.13728 0.56910 -0.47600
O 	O 	0.13450 0.10898 0.54790 -0.52600
O 	O 	0.41190 0.12845 0.55110 -0.57100
C 	C 	0.52450 0.15557 0.58690 0.12300
H 	H 	0.53010 0.13980 0.56490 0.01900
C 	C 	0.00830 0.12726 0.57730 0.07900
H 	H 	0.01060 0.11260 0.55330 0.02500
C 	C 	0.50660 0.20192 0.65020 -0.17500
C 	C 	0.94200 0.15762 0.62980 0.13100
H 	H 	0.89940 0.16400 0.64150 0.02500
C 	C 	0.45980 0.16609 0.59700 -0.20300
C 	C 	0.06370 0.16139 0.62990 0.12000
H 	H 	0.10390 0.17050 0.64140 0.01300
C 	C 	0.72310 0.02392 0.59860 -0.16900
C 	C 	0.94550 0.13626 0.59470 -0.14700
C 	C 	0.06760 0.13970 0.59510 -0.17900
C 	C 	0.00180 0.16973 0.64770 -0.20500
C 	C 	0.66450 0.97178 0.63130 0.14000
H 	H 	0.64520 0.95390 0.64340 0.01900
C 	C 	0.88340 0.12214 0.57380 0.42400
C 	C 	0.65050 0.15596 0.60110 0.44800
C 	C 	0.58070 0.16788 0.60840 -0.17400
C 	C 	0.49830 0.22589 0.68600 0.41100
C 	C 	0.67420 0.02507 0.63390 0.11300
H 	H 	0.66130 0.04370 0.64730 0.02300
C 	C 	0.57100 0.19171 0.64000 0.11000
H 	H 	0.60910 0.20080 0.65450 0.02400
C 	C 	0.45130 0.18891 0.62920 0.12700
H 	H 	0.40700 0.19560 0.63680 0.01500
C 	C 	0.74170 0.99648 0.57990 0.11100
H 	H 	0.77480 0.99550 0.55590 0.02600
C 	C 	0.71070 0.96993 0.59680 -0.18800
C 	C 	0.99780 0.19300 0.68640 0.46100
C 	C 	0.75080 0.05233 0.57880 0.42900
C 	C 	0.40050 0.14940 0.57620 0.51300
C 	C 	0.59310 0.99955 0.68720 0.43900
C 	C 	0.64480 0.99852 0.64900 -0.18600
C 	C 	0.13500 0.13075 0.57470 0.45300
C 	C 	0.72890 0.94080 0.57300 0.51200
O 	O 	0.71040 0.91519 0.59890 -0.36400
O 	O 	0.34400 0.15100 0.59990 -0.24100
O 	O 	0.69260 0.15610 0.63460 -0.21800
O 	O 	0.79740 0.04918 0.54870 -0.46500
O 	O 	0.18550 0.14240 0.59030 -0.64300
Zn	Zn	0.26466 0.15442 0.46413 1.04400
O 	O 	0.67310 0.92530 0.56440 -0.40200
O 	O 	0.69920 0.17340 0.60880 -0.19700
O 	O 	0.34460 0.16210 0.57800 -0.48000
Zn	Zn	0.27434 0.12589 0.42742 1.09200
Zn	Zn	0.57498 0.73338 0.25313 1.19800
Zn	Zn	0.24271 0.61618 0.06606 1.23700
O 	O 	0.39030 0.59969 0.05000 -0.49800
O 	O 	0.43950 0.70074 0.19936 -0.47100
O 	O 	0.93980 0.73577 0.19440 -0.47300
O 	O 	0.55300 0.70273 0.20191 -0.48000
O 	O 	0.32730 0.63439 0.08480 -0.47700
O 	O 	0.27750 0.43975 0.04780 -0.51600
O 	O 	0.06510 0.47533 0.19797 -0.49800
O 	O 	0.22710 0.57630 0.09302 -0.48600
O 	O 	0.07770 0.52429 0.20392 -0.48400
O 	O 	0.05190 0.73426 0.20678 -0.51300
O 	O 	0.15770 0.63728 0.06910 -0.48300
O 	O 	0.63450 0.60898 0.04790 -0.53000
O 	O 	0.91190 0.62845 0.05110 -0.57100
C 	C 	0.02450 0.65557 0.08690 0.10800
H 	H 	0.03010 0.63980 0.06490 0.01400
C 	C 	0.50830 0.62726 0.07730 0.09700
H 	H 	0.51060 0.61260 0.05330 0.02100
C 	C 	0.00660 0.70192 0.15020 -0.24000
C 	C 	0.44200 0.65762 0.12980 0.09100
H 	H 	0.39940 0.66400 0.14150 0.03500
C 	C 	0.95980 0.66609 0.09700 -0.20000
C 	C 	0.56370 0.66139 0.12990 0.09900
H 	H 	0.60390 0.67050 0.14140 0.02100
C 	C 	0.22310 0.52392 0.09860 -0.17600
C 	C 	0.44550 0.63626 0.09470 -0.15900
C 	C 	0.56760 0.63970 0.09510 -0.17500
C 	C 	0.50180 0.66973 0.14770 -0.15000
C 	C 	0.16450 0.47178 0.13130 0.14400
H 	H 	0.14520 0.45390 0.14340 0.01500
C 	C 	0.38340 0.62214 0.07380 0.42400
C 	C 	0.15050 0.65596 0.10110 0.45200
C 	C 	0.08070 0.66788 0.10840 -0.18700
C 	C 	0.99830 0.72589 0.18600 0.46800
C 	C 	0.17420 0.52507 0.13390 0.11500
H 	H 	0.16130 0.54370 0.14730 0.01900
C 	C 	0.07100 0.69171 0.14000 0.13600
H 	H 	0.10910 0.70080 0.15450 0.01300
C 	C 	0.95130 0.68891 0.12920 0.17400
H 	H 	0.90700 0.69560 0.13680 0.00100
C 	C 	0.24170 0.49648 0.07990 0.11300
H 	H 	0.27480 0.49550 0.05590 0.02000
C 	C 	0.21070 0.46993 0.09680 -0.19600
C 	C 	0.49780 0.69300 0.18640 0.40700
C 	C 	0.25080 0.55233 0.07880 0.43000
C 	C 	0.90050 0.64940 0.07620 0.51500
C 	C 	0.09310 0.49955 0.18720 0.44000
C 	C 	0.14480 0.49852 0.14900 -0.19200
C 	C 	0.63500 0.63075 0.07470 0.45200
C 	C 	0.22890 0.44080 0.07300 0.51500
O 	O 	0.21040 0.41519 0.09890 -0.36500
O 	O 	0.84400 0.65100 0.09990 -0.23800
O 	O 	0.19260 0.65610 0.13460 -0.22000
O 	O 	0.29740 0.54918 0.04870 -0.47300
O 	O 	0.68550 0.64240 0.09030 -0.64200
Zn	Zn	0.76466 0.65442 0.96413 1.05200
O 	O 	0.17310 0.42530 0.06440 -0.40800
O 	O 	0.19920 0.67340 0.10880 -0.20200
O 	O 	0.84460 0.66210 0.07800 -0.48300
Zn	Zn	0.77434 0.62589 0.92742 1.09500
Zn	Zn	0.42502 0.73338 0.75313 1.19800
Zn	Zn	0.75729 0.61618 0.56606 1.23800
O 	O 	0.60970 0.59969 0.55000 -0.49200
O 	O 	0.56050 0.70074 0.69936 -0.47100
O 	O 	0.06020 0.73577 0.69440 -0.45200
O 	O 	0.44700 0.70273 0.70191 -0.48000
O 	O 	0.67270 0.63439 0.58480 -0.47400
O 	O 	0.72250 0.43975 0.54780 -0.50800
O 	O 	0.93490 0.47533 0.69797 -0.48200
O 	O 	0.77290 0.57630 0.59302 -0.48200
O 	O 	0.92230 0.52429 0.70392 -0.47000
O 	O 	0.94810 0.73426 0.70678 -0.46100
O 	O 	0.84230 0.63728 0.56910 -0.47400
O 	O 	0.36550 0.60898 0.54790 -0.52400
O 	O 	0.08810 0.62845 0.55110 -0.57700
C 	C 	0.97550 0.65557 0.58690 0.14100
H 	H 	0.96990 0.63980 0.56490 0.01900
C 	C 	0.49170 0.62726 0.57730 0.09600
H 	H 	0.48940 0.61260 0.55330 0.02600
C 	C 	0.99340 0.70192 0.65020 -0.11200
C 	C 	0.55800 0.65762 0.62980 0.09000
H 	H 	0.60060 0.66400 0.64150 0.03600
C 	C 	0.04020 0.66609 0.59700 -0.21100
C 	C 	0.43630 0.66139 0.62990 0.09800
H 	H 	0.39610 0.67050 0.64140 0.02200
C 	C 	0.77690 0.52392 0.59860 -0.16900
C 	C 	0.55450 0.63626 0.59470 -0.15500
C 	C 	0.43240 0.63970 0.59510 -0.17200
C 	C 	0.49820 0.66973 0.64770 -0.14800
C 	C 	0.83550 0.47178 0.63130 0.13900
H 	H 	0.85480 0.45390 0.64340 0.02100
C 	C 	0.61660 0.62214 0.57380 0.42300
C 	C 	0.84950 0.65596 0.60110 0.44600
C 	C 	0.91930 0.66788 0.60840 -0.16700
C 	C 	0.00170 0.72589 0.68600 0.35300
C 	C 	0.82580 0.52507 0.63390 0.11200
H 	H 	0.83870 0.54370 0.64730 0.02400
C 	C 	0.92900 0.69171 0.64000 0.08600
H 	H 	0.89090 0.70080 0.65450 0.03300
C 	C 	0.04870 0.68891 0.62920 0.08200
H 	H 	0.09300 0.69560 0.63680 0.02800
C 	C 	0.75830 0.49648 0.57990 0.11000
H 	H 	0.72520 0.49550 0.55590 0.02500
C 	C 	0.78930 0.46993 0.59680 -0.18700
C 	C 	0.50220 0.69300 0.68640 0.40600
C 	C 	0.74920 0.55233 0.57880 0.42900
C 	C 	0.09950 0.64940 0.57620 0.51300
C 	C 	0.90690 0.49955 0.68720 0.43700
C 	C 	0.85520 0.49852 0.64900 -0.18200
C 	C 	0.36500 0.63075 0.57470 0.45200
C 	C 	0.77110 0.44080 0.57300 0.51100
O 	O 	0.78960 0.41519 0.59890 -0.36400
O 	O 	0.15600 0.65100 0.59990 -0.24200
O 	O 	0.80740 0.65610 0.63460 -0.21700
O 	O 	0.70260 0.54918 0.54870 -0.46700
O 	O 	0.31450 0.64240 0.59030 -0.64100
Zn	Zn	0.23534 0.65442 0.46413 1.04400
O 	O 	0.82690 0.42530 0.56440 -0.40000
O 	O 	0.80080 0.67340 0.60880 -0.19700
O 	O 	0.15540 0.66210 0.57800 -0.48000
Zn	Zn	0.22566 0.62589 0.42742 1.09200
Zn	Zn	0.92502 0.23338 0.25313 1.19900
Zn	Zn	0.25729 0.11618 0.06606 1.23700
O 	O 	0.10970 0.09969 0.05000 -0.50300
O 	O 	0.06050 0.20074 0.19936 -0.46200
O 	O 	0.56020 0.23577 0.19440 -0.46300
O 	O 	0.94700 0.20273 0.20191 -0.45400
O 	O 	0.17270 0.13439 0.08480 -0.47800
O 	O 	0.22250 0.93975 0.04780 -0.51600
O 	O 	0.43490 0.97533 0.19797 -0.49200
O 	O 	0.27290 0.07630 0.09302 -0.48500
O 	O 	0.42230 0.02429 0.20392 -0.47900
O 	O 	0.44810 0.23426 0.20678 -0.48800
O 	O 	0.34230 0.13728 0.06910 -0.48100
O 	O 	0.86550 0.10898 0.04790 -0.52800
O 	O 	0.58810 0.12845 0.05110 -0.57700
C 	C 	0.47550 0.15557 0.08690 0.12500
H 	H 	0.46990 0.13980 0.06490 0.01400
C 	C 	0.99170 0.12726 0.07730 0.11400
H 	H 	0.98940 0.11260 0.05330 0.02100
C 	C 	0.49340 0.20192 0.15020 -0.17800
C 	C 	0.05800 0.15762 0.12980 0.05100
H 	H 	0.10060 0.16400 0.14150 0.04600
C 	C 	0.54020 0.16609 0.09700 -0.20800
C 	C 	0.93630 0.16139 0.12990 0.07600
H 	H 	0.89610 0.17050 0.14140 0.03000
C 	C 	0.27690 0.02392 0.09860 -0.17500
C 	C 	0.05450 0.13626 0.09470 -0.16700
C 	C 	0.93240 0.13970 0.09510 -0.16700
C 	C 	0.99820 0.16973 0.14770 -0.09200
C 	C 	0.33550 0.97178 0.13130 0.14300
H 	H 	0.35480 0.95390 0.14340 0.01700
C 	C 	0.11660 0.12214 0.07380 0.42300
C 	C 	0.34950 0.15596 0.10110 0.45000
C 	C 	0.41930 0.16788 0.10840 -0.17900
C 	C 	0.50170 0.22589 0.18600 0.41100
C 	C 	0.32580 0.02507 0.13390 0.11400
H 	H 	0.33870 0.04370 0.14730 0.02100
C 	C 	0.42900 0.19171 0.14000 0.11200
H 	H 	0.39090 0.20080 0.15450 0.02200
C 	C 	0.54870 0.18891 0.12920 0.12900
H 	H 	0.59300 0.19560 0.13680 0.01400
C 	C 	0.25830 0.99648 0.07990 0.11300
H 	H 	0.22520 0.99550 0.05590 0.01900
C 	C 	0.28930 0.96993 0.09680 -0.19500
C 	C 	0.00220 0.19300 0.18640 0.35300
C 	C 	0.24920 0.05233 0.07880 0.43000
C 	C 	0.59950 0.14940 0.07620 0.51400
C 	C 	0.40690 0.99955 0.18720 0.43900
C 	C 	0.35520 0.99852 0.14900 -0.18900
C 	C 	0.86500 0.13075 0.07470 0.45000
C 	C 	0.27110 0.94080 0.07300 0.51400
O 	O 	0.28960 0.91519 0.09890 -0.36500
O 	O 	0.65600 0.15100 0.09990 -0.23900
O 	O 	0.30740 0.15610 0.13460 -0.21900
O 	O 	0.20260 0.04918 0.04870 -0.47400
O 	O 	0.81450 0.14240 0.09030 -0.64100
Zn	Zn	0.73534 0.15442 0.96413 1.05200
O 	O 	0.32690 0.92530 0.06440 -0.40500
O 	O 	0.30080 0.17340 0.10880 -0.20200
O 	O 	0.65540 0.16210 0.07800 -0.48400
Zn	Zn	0.72566 0.12589 0.92742 1.09500
Zn	Zn	0.57498 0.26662 0.75313 1.19800
Zn	Zn	0.24271 0.38382 0.56606 1.23800
O 	O 	0.39030 0.40031 0.55000 -0.49200
O 	O 	0.43950 0.29926 0.69936 -0.47100
O 	O 	0.93980 0.26423 0.69440 -0.47200
O 	O 	0.55300 0.29727 0.70191 -0.47900
O 	O 	0.32730 0.36561 0.58480 -0.47400
O 	O 	0.27750 0.56025 0.54780 -0.50900
O 	O 	0.06510 0.52467 0.69797 -0.49700
O 	O 	0.22710 0.42370 0.59302 -0.48500
O 	O 	0.07770 0.47571 0.70392 -0.48400
O 	O 	0.05190 0.26574 0.70678 -0.51300
O 	O 	0.15770 0.36272 0.56910 -0.47800
O 	O 	0.63450 0.39102 0.54790 -0.52400
O 	O 	0.91190 0.37155 0.55110 -0.56500
C 	C 	0.02450 0.34443 0.58690 0.10600
H 	H 	0.03010 0.36020 0.56490 0.01800
C 	C 	0.50830 0.37274 0.57730 0.09600
H 	H 	0.51060 0.38740 0.55330 0.02600
C 	C 	0.00660 0.29808 0.65020 -0.23800
C 	C 	0.44200 0.34238 0.62980 0.09000
H 	H 	0.39940 0.33600 0.64150 0.03600
C 	C 	0.95980 0.33391 0.59700 -0.19600
C 	C 	0.56370 0.33861 0.62990 0.09800
H 	H 	0.60390 0.32950 0.64140 0.02200
C 	C 	0.22310 0.47608 0.59860 -0.17200
C 	C 	0.44550 0.36374 0.59470 -0.15500
C 	C 	0.56760 0.36030 0.59510 -0.17100
C 	C 	0.50180 0.33027 0.64770 -0.14800
C 	C 	0.16450 0.52822 0.63130 0.14200
H 	H 	0.14520 0.54610 0.64340 0.01600
C 	C 	0.38340 0.37786 0.57380 0.42300
C 	C 	0.15050 0.34404 0.60110 0.45100
C 	C 	0.08070 0.33212 0.60840 -0.18300
C 	C 	0.99830 0.27411 0.68600 0.46800
C 	C 	0.17420 0.47493 0.63390 0.11400
H 	H 	0.16130 0.45630 0.64730 0.02000
C 	C 	0.07100 0.30829 0.64000 0.13500
H 	H 	0.10910 0.29920 0.65450 0.01400
C 	C 	0.95130 0.31109 0.62920 0.17300
H 	H 	0.90700 0.30440 0.63680 0.00200
C 	C 	0.24170 0.50352 0.57990 0.11200
H 	H 	0.27480 0.50450 0.55590 0.02400
C 	C 	0.21070 0.53007 0.59680 -0.19200
C 	C 	0.49780 0.30700 0.68640 0.40600
C 	C 	0.25080 0.44767 0.57880 0.42900
C 	C 	0.90050 0.35060 0.57620 0.51300
C 	C 	0.09310 0.50045 0.68720 0.44000
C 	C 	0.14480 0.50148 0.64900 -0.19000
C 	C 	0.63500 0.36925 0.57470 0.45200
C 	C 	0.22890 0.55920 0.57300 0.51300
O 	O 	0.21040 0.58481 0.59890 -0.36600
O 	O 	0.84400 0.34900 0.59990 -0.24000
O 	O 	0.19260 0.34390 0.63460 -0.22000
O 	O 	0.29740 0.45082 0.54870 -0.46700
O 	O 	0.68550 0.35760 0.59030 -0.64100
Zn	Zn	0.76466 0.34558 0.46413 1.04400
O 	O 	0.17310 0.57470 0.56440 -0.40400
O 	O 	0.19920 0.32660 0.60880 -0.19900
O 	O 	0.84460 0.33790 0.57800 -0.48000
Zn	Zn	0.77434 0.37411 0.42742 1.09200
Zn	Zn	0.07498 0.76662 0.25313 1.19700
Zn	Zn	0.74271 0.88382 0.06606 1.23700
O 	O 	0.89030 0.90031 0.05000 -0.49200
O 	O 	0.93950 0.79926 0.19936 -0.48000
O 	O 	0.43980 0.76423 0.19440 -0.46300
O 	O 	0.05300 0.79727 0.20191 -0.50500
O 	O 	0.82730 0.86561 0.08480 -0.47600
O 	O 	0.77750 0.06025 0.04780 -0.51400
O 	O 	0.56510 0.02467 0.19797 -0.49100
O 	O 	0.72710 0.92370 0.09302 -0.48400
O 	O 	0.57770 0.97571 0.20392 -0.47900
O 	O 	0.55190 0.76574 0.20678 -0.48700
O 	O 	0.65770 0.86272 0.06910 -0.48000
O 	O 	0.13450 0.89102 0.04790 -0.53200
O 	O 	0.41190 0.87155 0.05110 -0.57700
C 	C 	0.52450 0.84443 0.08690 0.12500
H 	H 	0.53010 0.86020 0.06490 0.01400
C 	C 	0.00830 0.87274 0.07730 0.08000
H 	H 	0.01060 0.88740 0.05330 0.02100
C 	C 	0.50660 0.79808 0.15020 -0.17700
C 	C 	0.94200 0.84238 0.12980 0.13200
H 	H 	0.89940 0.83600 0.14150 0.02400
C 	C 	0.45980 0.83391 0.09700 -0.20800
C 	C 	0.06370 0.83861 0.12990 0.12100
H 	H 	0.10390 0.82950 0.14140 0.01200
C 	C 	0.72310 0.97608 0.09860 -0.17300
C 	C 	0.94550 0.86374 0.09470 -0.15000
C 	C 	0.06760 0.86030 0.09510 -0.18200
C 	C 	0.00180 0.83027 0.14770 -0.20700
C 	C 	0.66450 0.02822 0.13130 0.14200
H 	H 	0.64520 0.04610 0.14340 0.01800
C 	C 	0.88340 0.87786 0.07380 0.42400
C 	C 	0.65050 0.84404 0.10110 0.45000
C 	C 	0.58070 0.83212 0.10840 -0.17800
C 	C 	0.49830 0.77411 0.18600 0.41100
C 	C 	0.67420 0.97493 0.13390 0.11400
H 	H 	0.66130 0.95630 0.14730 0.02200
C 	C 	0.57100 0.80829 0.14000 0.11200
H 	H 	0.60910 0.79920 0.15450 0.02200
C 	C 	0.45130 0.81109 0.12920 0.12900
H 	H 	0.40700 0.80440 0.13680 0.01400
C 	C 	0.74170 0.00352 0.07990 0.11200
H 	H 	0.77480 0.00450 0.05590 0.02100
C 	C 	0.71070 0.03007 0.09680 -0.19200
C 	C 	0.99780 0.80700 0.18640 0.46100
C 	C 	0.75080 0.94767 0.07880 0.42900
C 	C 	0.40050 0.85060 0.07620 0.51400
C 	C 	0.59310 0.00045 0.18720 0.43900
C 	C 	0.64480 0.00148 0.14900 -0.18800
C 	C 	0.13500 0.86925 0.07470 0.45400
C 	C 	0.72890 0.05920 0.07300 0.51300
O 	O 	0.71040 0.08481 0.09890 -0.36400
O 	O 	0.34400 0.84900 0.09990 -0.23900
O 	O 	0.69260 0.84390 0.13460 -0.21800
O 	O 	0.79740 0.95082 0.04870 -0.47100
O 	O 	0.18550 0.85760 0.09030 -0.64400
Zn	Zn	0.26466 0.84558 0.96413 1.05200
O 	O 	0.67310 0.07470 0.06440 -0.40600
O 	O 	0.69920 0.82660 0.10880 -0.20000
O 	O 	0.34460 0.83790 0.07800 -0.48400
Zn	Zn	0.27434 0.87411 0.92742 1.09500
Zn	Zn	0.07498 0.23338 0.24687 1.19700
Zn	Zn	0.74271 0.11618 0.43394 1.23800
O 	O 	0.89030 0.09969 0.45000 -0.48700
O 	O 	0.93950 0.20074 0.30064 -0.48000
O 	O 	0.43980 0.23577 0.30560 -0.46200
O 	O 	0.05300 0.20273 0.29809 -0.50500
O 	O 	0.82730 0.13439 0.41520 -0.47300
O 	O 	0.77750 0.93975 0.45220 -0.50700
O 	O 	0.56510 0.97533 0.30203 -0.49100
O 	O 	0.72710 0.07630 0.40698 -0.48300
O 	O 	0.57770 0.02429 0.29608 -0.47800
O 	O 	0.55190 0.23426 0.29322 -0.48700
O 	O 	0.65770 0.13728 0.43090 -0.47600
O 	O 	0.13450 0.10898 0.45210 -0.52600
O 	O 	0.41190 0.12845 0.44890 -0.57100
C 	C 	0.52450 0.15557 0.41310 0.12300
H 	H 	0.53010 0.13980 0.43510 0.01900
C 	C 	0.00830 0.12726 0.42270 0.07900
H 	H 	0.01060 0.11260 0.44670 0.02500
C 	C 	0.50660 0.20192 0.34980 -0.17500
C 	C 	0.94200 0.15762 0.37020 0.13100
H 	H 	0.89940 0.16400 0.35850 0.02500
C 	C 	0.45980 0.16609 0.40300 -0.20300
C 	C 	0.06370 0.16139 0.37010 0.12100
H 	H 	0.10390 0.17050 0.35860 0.01300
C 	C 	0.72310 0.02392 0.40140 -0.16900
C 	C 	0.94550 0.13626 0.40530 -0.14700
C 	C 	0.06760 0.13970 0.40490 -0.17900
C 	C 	0.00180 0.16973 0.35230 -0.20500
C 	C 	0.66450 0.97178 0.36870 0.14000
H 	H 	0.64520 0.95390 0.35660 0.01900
C 	C 	0.88340 0.12214 0.42620 0.42400
C 	C 	0.65050 0.15596 0.39890 0.44800
C 	C 	0.58070 0.16788 0.39160 -0.17500
C 	C 	0.49830 0.22589 0.31400 0.41100
C 	C 	0.67420 0.02507 0.36610 0.11300
H 	H 	0.66130 0.04370 0.35270 0.02300
C 	C 	0.57100 0.19171 0.36000 0.11000
H 	H 	0.60910 0.20080 0.34550 0.02300
C 	C 	0.45130 0.18891 0.37080 0.12700
H 	H 	0.40700 0.19560 0.36320 0.01500
C 	C 	0.74170 0.99648 0.42010 0.11100
H 	H 	0.77480 0.99550 0.44410 0.02600
C 	C 	0.71070 0.96993 0.40320 -0.18800
C 	C 	0.99780 0.19300 0.31360 0.46100
C 	C 	0.75080 0.05233 0.42120 0.42900
C 	C 	0.40050 0.14940 0.42380 0.51300
C 	C 	0.59310 0.99955 0.31280 0.43900
C 	C 	0.64480 0.99852 0.35100 -0.18600
C 	C 	0.13500 0.13075 0.42530 0.45300
C 	C 	0.72890 0.94080 0.42700 0.51200
O 	O 	0.71040 0.91519 0.40110 -0.36400
O 	O 	0.34400 0.15100 0.40010 -0.24100
O 	O 	0.69260 0.15610 0.36540 -0.21800
O 	O 	0.79740 0.04918 0.45130 -0.46500
O 	O 	0.18550 0.14240 0.40970 -0.64200
Zn	Zn	0.26466 0.15442 0.53587 1.04400
O 	O 	0.67310 0.92530 0.43560 -0.40200
O 	O 	0.69920 0.17340 0.39120 -0.19700
O 	O 	0.34460 0.16210 0.42200 -0.48000
Zn	Zn	0.27434 0.12589 0.57258 1.09200
Zn	Zn	0.57498 0.73338 0.74687 1.19800
Zn	Zn	0.24271 0.61618 0.93394 1.24100
O 	O 	0.39030 0.59969 0.95000 -0.48200
O 	O 	0.43950 0.70074 0.80064 -0.47000
O 	O 	0.93980 0.73577 0.80560 -0.47100
O 	O 	0.55300 0.70273 0.79809 -0.47800
O 	O 	0.32730 0.63439 0.91520 -0.47000
O 	O 	0.27750 0.43975 0.95220 -0.49800
O 	O 	0.06510 0.47533 0.80203 -0.49600
O 	O 	0.22710 0.57630 0.90698 -0.48100
O 	O 	0.07770 0.52429 0.79608 -0.48300
O 	O 	0.05190 0.73426 0.79322 -0.51200
O 	O 	0.15770 0.63728 0.93090 -0.47100
O 	O 	0.63450 0.60898 0.95210 -0.51400
O 	O 	0.91190 0.62845 0.94890 -0.55500
C 	C 	0.02450 0.65557 0.91310 0.10400
H 	H 	0.03010 0.63980 0.93510 0.02300
C 	C 	0.50830 0.62726 0.92270 0.09400
H 	H 	0.51060 0.61260 0.94670 0.03100
C 	C 	0.00660 0.70192 0.84980 -0.23500
C 	C 	0.44200 0.65762 0.87020 0.08900
H 	H 	0.39940 0.66400 0.85850 0.03700
C 	C 	0.95980 0.66609 0.90300 -0.19000
C 	C 	0.56370 0.66139 0.87010 0.09600
H 	H 	0.60390 0.67050 0.85860 0.02400
C 	C 	0.22310 0.52392 0.90140 -0.16800
C 	C 	0.44550 0.63626 0.90530 -0.15100
C 	C 	0.56760 0.63970 0.90490 -0.16700
C 	C 	0.50180 0.66973 0.85230 -0.14500
C 	C 	0.16450 0.47178 0.86870 0.14000
H 	H 	0.14520 0.45390 0.85660 0.01800
C 	C 	0.38340 0.62214 0.92620 0.42200
C 	C 	0.15050 0.65596 0.89890 0.44800
C 	C 	0.08070 0.66788 0.89160 -0.17800
C 	C 	0.99830 0.72589 0.81400 0.46800
C 	C 	0.17420 0.52507 0.86610 0.11200
H 	H 	0.16130 0.54370 0.85270 0.02200
C 	C 	0.07100 0.69171 0.86000 0.13300
H 	H 	0.10910 0.70080 0.84550 0.01500
C 	C 	0.95130 0.68891 0.87080 0.17000
H 	H 	0.90700 0.69560 0.86320 0.00500
C 	C 	0.24170 0.49648 0.92010 0.11000
H 	H 	0.27480 0.49550 0.94410 0.03000
C 	C 	0.21070 0.46993 0.90320 -0.18600
C 	C 	0.49780 0.69300 0.81360 0.40600
C 	C 	0.25080 0.55233 0.92120 0.42800
C 	C 	0.90050 0.64940 0.92380 0.51100
C 	C 	0.09310 0.49955 0.81280 0.43900
C 	C 	0.14480 0.49852 0.85100 -0.18700
C 	C 	0.63500 0.63075 0.92530 0.45100
C 	C 	0.22890 0.44080 0.92700 0.50900
O 	O 	0.21040 0.41519 0.90110 -0.36500
O 	O 	0.84400 0.65100 0.90010 -0.24300
O 	O 	0.19260 0.65610 0.86540 -0.22000
O 	O 	0.29740 0.54918 0.95130 -0.45700
O 	O 	0.68550 0.64240 0.90970 -0.63700
Zn	Zn	0.76466 0.65442 0.03587 1.04300
O 	O 	0.17310 0.42530 0.93560 -0.39600
O 	O 	0.19920 0.67340 0.89120 -0.19400
O 	O 	0.84460 0.66210 0.92200 -0.47100
Zn	Zn	0.77434 0.62589 0.07258 1.09200
Zn	Zn	0.92502 0.76662 0.24687 1.19900
Zn	Zn	0.25729 0.88382 0.43394 1.23800
O 	O 	0.10970 0.90031 0.45000 -0.49800
O 	O 	0.06050 0.79926 0.30064 -0.46200
O 	O 	0.56020 0.76423 0.30560 -0.46200
O 	O 	0.94700 0.79727 0.29809 -0.45400
O 	O 	0.17270 0.86561 0.41520 -0.47500
O 	O 	0.22250 0.06025 0.45220 -0.51000
O 	O 	0.43490 0.02467 0.30203 -0.49100
O 	O 	0.27290 0.92370 0.40698 -0.48400
O 	O 	0.42230 0.97571 0.29608 -0.47900
O 	O 	0.44810 0.76574 0.29322 -0.48700
O 	O 	0.34230 0.86272 0.43090 -0.47600
O 	O 	0.86550 0.89102 0.45210 -0.52200
O 	O 	0.58810 0.87155 0.44890 -0.57100
C 	C 	0.47550 0.84443 0.41310 0.12400
H 	H 	0.46990 0.86020 0.43510 0.01800
C 	C 	0.99170 0.87274 0.42270 0.11300
H 	H 	0.98940 0.88740 0.44670 0.02600
C 	C 	0.49340 0.79808 0.34980 -0.17500
C 	C 	0.05800 0.84238 0.37020 0.05000
H 	H 	0.10060 0.83600 0.35850 0.04700
C 	C 	0.54020 0.83391 0.40300 -0.20400
C 	C 	0.93630 0.83861 0.37010 0.07500
H 	H 	0.89610 0.82950 0.35860 0.03100
C 	C 	0.27690 0.97608 0.40140 -0.17200
C 	C 	0.05450 0.86374 0.40530 -0.16400
C 	C 	0.93240 0.86030 0.40490 -0.16400
C 	C 	0.99820 0.83027 0.35230 -0.09100
C 	C 	0.33550 0.02822 0.36870 0.14100
H 	H 	0.35480 0.04610 0.35660 0.01800
C 	C 	0.11660 0.87786 0.42620 0.42300
C 	C 	0.34950 0.84404 0.39890 0.44900
C 	C 	0.41930 0.83212 0.39160 -0.17500
C 	C 	0.50170 0.77411 0.31400 0.41100
C 	C 	0.32580 0.97493 0.36610 0.11300
H 	H 	0.33870 0.95630 0.35270 0.02200
C 	C 	0.42900 0.80829 0.36000 0.11100
H 	H 	0.39090 0.79920 0.34550 0.02300
C 	C 	0.54870 0.81109 0.37080 0.12800
H 	H 	0.59300 0.80440 0.36320 0.01500
C 	C 	0.25830 0.00352 0.42010 0.11200
H 	H 	0.22520 0.00450 0.44410 0.02400
C 	C 	0.28930 0.03007 0.40320 -0.19100
C 	C 	0.00220 0.80700 0.31360 0.35200
C 	C 	0.24920 0.94767 0.42120 0.42900
C 	C 	0.59950 0.85060 0.42380 0.51300
C 	C 	0.40690 0.00045 0.31280 0.43900
C 	C 	0.35520 0.00148 0.35100 -0.18700
C 	C 	0.86500 0.86925 0.42530 0.45000
C 	C 	0.27110 0.05920 0.42700 0.51200
O 	O 	0.28960 0.08481 0.40110 -0.36600
O 	O 	0.65600 0.84900 0.40010 -0.24000
O 	O 	0.30740 0.84390 0.36540 -0.21900
O 	O 	0.20260 0.95082 0.45130 -0.46900
O 	O 	0.81450 0.85760 0.40970 -0.64000
Zn	Zn	0.73534 0.84558 0.53587 1.04400
O 	O 	0.32690 0.07470 0.43560 -0.40200
O 	O 	0.30080 0.82660 0.39120 -0.19900
O 	O 	0.65540 0.83790 0.42200 -0.48000
Zn	Zn	0.72566 0.87411 0.57258 1.09200
Zn	Zn	0.42502 0.26662 0.74687 1.19800
Zn	Zn	0.75729 0.38382 0.93394 1.24200
O 	O 	0.60970 0.40031 0.95000 -0.48200
O 	O 	0.56050 0.29926 0.80064 -0.47000
O 	O 	0.06020 0.26423 0.80560 -0.45100
O 	O 	0.44700 0.29727 0.79809 -0.47900
O 	O 	0.67270 0.36561 0.91520 -0.47000
O 	O 	0.72250 0.56025 0.95220 -0.49700
O 	O 	0.93490 0.52467 0.80203 -0.48100
O 	O 	0.77290 0.42370 0.90698 -0.47800
O 	O 	0.92230 0.47571 0.79608 -0.46900
O 	O 	0.94810 0.26574 0.79322 -0.46000
O 	O 	0.84230 0.36272 0.93090 -0.46600
O 	O 	0.36550 0.39102 0.95210 -0.51400
O 	O 	0.08810 0.37155 0.94890 -0.56700
C 	C 	0.97550 0.34443 0.91310 0.13800
H 	H 	0.96990 0.36020 0.93510 0.02400
C 	C 	0.49170 0.37274 0.92270 0.09400
H 	H 	0.48940 0.38740 0.94670 0.03100
C 	C 	0.99340 0.29808 0.84980 -0.10900
C 	C 	0.55800 0.34238 0.87020 0.08900
H 	H 	0.60060 0.33600 0.85850 0.03700
C 	C 	0.04020 0.33391 0.90300 -0.20500
C 	C 	0.43630 0.33861 0.87010 0.09600
H 	H 	0.39610 0.32950 0.85860 0.02300
C 	C 	0.77690 0.47608 0.90140 -0.16400
C 	C 	0.55450 0.36374 0.90530 -0.15100
C 	C 	0.43240 0.36030 0.90490 -0.16700
C 	C 	0.49820 0.33027 0.85230 -0.14500
C 	C 	0.83550 0.52822 0.86870 0.13600
H 	H 	0.85480 0.54610 0.85660 0.02200
C 	C 	0.61660 0.37786 0.92620 0.42200
C 	C 	0.84950 0.34404 0.89890 0.44400
C 	C 	0.91930 0.33212 0.89160 -0.16100
C 	C 	0.00170 0.27411 0.81400 0.35300
C 	C 	0.82580 0.47493 0.86610 0.11000
H 	H 	0.83870 0.45630 0.85270 0.02500
C 	C 	0.92900 0.30829 0.86000 0.08400
H 	H 	0.89090 0.29920 0.84550 0.03400
C 	C 	0.04870 0.31109 0.87080 0.08000
H 	H 	0.09300 0.30440 0.86320 0.03000
C 	C 	0.75830 0.50352 0.92010 0.10800
H 	H 	0.72520 0.50450 0.94410 0.03100
C 	C 	0.78930 0.53007 0.90320 -0.18200
C 	C 	0.50220 0.30700 0.81360 0.40600
C 	C 	0.74920 0.44767 0.92120 0.42800
C 	C 	0.09950 0.35060 0.92380 0.51000
C 	C 	0.90690 0.50045 0.81280 0.43600
C 	C 	0.85520 0.50148 0.85100 -0.17900
C 	C 	0.36500 0.36925 0.92530 0.45100
C 	C 	0.77110 0.55920 0.92700 0.50700
O 	O 	0.78960 0.58481 0.90110 -0.36400
O 	O 	0.15600 0.34900 0.90010 -0.24500
O 	O 	0.80740 0.34390 0.86540 -0.21700
O 	O 	0.70260 0.45082 0.95130 -0.45600
O 	O 	0.31450 0.35760 0.90970 -0.63700
Zn	Zn	0.23534 0.34558 0.03587 1.04200
O 	O 	0.82690 0.57470 0.93560 -0.39100
O 	O 	0.80080 0.32660 0.89120 -0.19300
O 	O 	0.15540 0.33790 0.92200 -0.47200
Zn	Zn	0.22566 0.37411 0.07258 1.09200
Zn	Zn	0.00000 0.53286 0.25000 1.19500
Zn	Zn	0.00000 0.46714 0.25000 1.19500
Zn	Zn	0.50000 0.03286 0.75000 1.20100
Zn	Zn	0.50000 0.96714 0.75000 1.20100
Zn	Zn	0.00000 0.46714 0.75000 1.19500
Zn	Zn	0.50000 0.96714 0.25000 1.20100
Zn	Zn	0.00000 0.53286 0.75000 1.19500
Zn	Zn	0.50000 0.03286 0.25000 1.20100
Zn	Zn	0.70084 0.40744 0.50000 1.21000
Zn	Zn	0.34336 0.42527 0.50000 1.22800
Zn	Zn	0.86304 0.39708 0.50000 1.18100
O 	O 	0.77570 0.37897 0.50000 -1.26900
O 	O 	0.25550 0.39569 0.50000 -0.63900
O 	O 	0.74420 0.31060 0.50000 -0.58900
Zn	Zn	0.20084 0.90744 -0.00000 1.20400
Zn	Zn	0.84336 0.92527 -0.00000 1.22300
Zn	Zn	0.36304 0.89708 -0.00000 1.17400
O 	O 	0.27570 0.87897 -0.00000 -1.28100
O 	O 	0.75550 0.89569 -0.00000 -0.65100
O 	O 	0.24420 0.81060 -0.00000 -0.60400
Zn	Zn	0.29916 0.59256 0.50000 1.21000
Zn	Zn	0.65664 0.57473 0.50000 1.22800
Zn	Zn	0.13696 0.60292 0.50000 1.17900
O 	O 	0.22430 0.62103 0.50000 -1.26900
O 	O 	0.74450 0.60431 0.50000 -0.63800
O 	O 	0.25580 0.68940 0.50000 -0.59100
Zn	Zn	0.79916 0.09256 -0.00000 1.20400
Zn	Zn	0.15664 0.07473 -0.00000 1.22100
Zn	Zn	0.63696 0.10292 -0.00000 1.17400
O 	O 	0.72430 0.12103 -0.00000 -1.28100
O 	O 	0.24450 0.10431 -0.00000 -0.65200
O 	O 	0.75580 0.18940 -0.00000 -0.60200
Zn	Zn	0.79916 0.90744 0.50000 1.21000
Zn	Zn	0.15664 0.92527 0.50000 1.22800
Zn	Zn	0.63696 0.89708 0.50000 1.18000
O 	O 	0.72430 0.87897 0.50000 -1.26900
O 	O 	0.24450 0.89569 0.50000 -0.63900
O 	O 	0.75580 0.81060 0.50000 -0.58900
Zn	Zn	0.29916 0.40744 -0.00000 1.20400
Zn	Zn	0.65664 0.42527 -0.00000 1.22200
Zn	Zn	0.13696 0.39708 -0.00000 1.17300
O 	O 	0.22430 0.37897 -0.00000 -1.28100
O 	O 	0.74450 0.39569 -0.00000 -0.65100
O 	O 	0.25580 0.31060 -0.00000 -0.60400
Zn	Zn	0.20084 0.09256 0.50000 1.21000
Zn	Zn	0.84336 0.07473 0.50000 1.22900
Zn	Zn	0.36304 0.10292 0.50000 1.18000
O 	O 	0.27570 0.12103 0.50000 -1.26900
O 	O 	0.75550 0.10431 0.50000 -0.63800
O 	O 	0.24420 0.18940 0.50000 -0.59100
Zn	Zn	0.70084 0.59256 -0.00000 1.20400
Zn	Zn	0.34336 0.57473 -0.00000 1.22200
Zn	Zn	0.86304 0.60292 -0.00000 1.17500
O 	O 	0.77570 0.62103 -0.00000 -1.28100
O 	O 	0.25550 0.60431 -0.00000 -0.65200
O 	O 	0.74420 0.68940 -0.00000 -0.60200
