data_crystal

_cell_length_a 32.74900
_cell_length_b 32.74900
_cell_length_c 32.74900
_cell_angle_alpha 90.00000
_cell_angle_beta  90.00000
_cell_angle_gamma 90.00000

_symmetry_space_group_name_	'P 1'
_symmetry_space_group_name_H-M	'P 1'

loop_
_symmetry_equiv_pos_as_xyz
  x,y,z

loop_
_atom_site_label
_atom_site_type_symbol
_atom_site_fract_x
_atom_site_fract_y
_atom_site_fract_z
_atom_site_charge
Au	Au	0.34797 0.99657 0.52165 0.19700
Au	Au	0.41875 0.06230 0.57131 0.19600
Ag	Ag	0.33264 0.08223 0.54810 0.53900
Ag	Ag	0.42204 0.00949 0.47605 0.44100
Ag	Ag	0.40430 0.98768 0.61674 0.44000
Cu	Cu	0.38951 0.13320 0.44933 0.90200
Cu	Cu	0.28245 0.02532 0.64517 0.89900
Cl	Cl	0.28240 0.13580 0.54990 -0.35800
S 	S 	0.35836 0.05291 0.48036 -0.35200
S 	S 	0.34673 0.94207 0.56534 -0.32000
S 	S 	0.36326 0.05341 0.61381 -0.35100
S 	S 	0.47224 0.06138 0.52600 -0.32400
O 	O 	0.39180 0.10810 0.39900 -0.38900
O 	O 	0.35230 0.07630 0.35160 -0.19500
O 	O 	0.38990 0.15250 0.50540 -0.39200
O 	O 	0.42880 0.17100 0.55750 -0.22400
O 	O 	0.26580 0.02900 0.59080 -0.41900
O 	O 	0.23810 0.99140 0.53810 -0.29700
O 	O 	0.30960 0.01880 0.69790 -0.36100
O 	O 	0.34380 0.05920 0.74300 -0.19300
N 	N 	0.32960 0.12960 0.44300 -0.17700
N 	N 	0.44910 0.12380 0.45740 -0.18200
N 	N 	0.28800 0.96650 0.63600 -0.18700
N 	N 	0.28840 0.08610 0.65320 -0.17300
C 	C 	0.35860 0.09400 0.38650 0.28000
C 	C 	0.32080 0.09430 0.41560 -0.02900
C 	C 	0.31720 0.05540 0.44050 0.04100
C 	C 	0.27520 0.05440 0.46260 0.00400
C 	C 	0.32050 0.01600 0.41350 -0.02200
C 	C 	0.42440 0.15430 0.52270 0.26200
C 	C 	0.46310 0.14030 0.49790 -0.03700
C 	C 	0.49400 0.11250 0.51910 0.04900
C 	C 	0.53050 0.10830 0.49000 0.01200
C 	C 	0.50630 0.13120 0.56080 -0.00700
C 	C 	0.25750 0.99550 0.57240 0.26200
C 	C 	0.26940 0.95490 0.59500 -0.04400
C 	C 	0.29400 0.92300 0.57200 0.05100
C 	C 	0.29730 0.88500 0.60080 0.00800
C 	C 	0.27570 0.91130 0.52950 -0.00900
C 	C 	0.32410 0.05280 0.70960 0.26300
C 	C 	0.32670 0.08880 0.67800 -0.03900
C 	C 	0.36550 0.09500 0.65270 0.04600
C 	C 	0.36720 0.13630 0.62990 -0.00000
C 	C 	0.40500 0.09120 0.67820 -0.02400
Au	Au	0.47835 0.84797 0.50343 0.19800
Au	Au	0.42869 0.91875 0.43770 0.19700
Ag	Ag	0.45190 0.83264 0.41777 0.54000
Ag	Ag	0.52395 0.92204 0.49051 0.44200
Ag	Ag	0.38326 0.90430 0.51232 0.44100
Cu	Cu	0.55067 0.88951 0.36680 0.90300
Cu	Cu	0.35483 0.78245 0.47468 0.90000
Cl	Cl	0.45010 0.78240 0.36420 -0.35700
S 	S 	0.51964 0.85836 0.44709 -0.35100
S 	S 	0.43466 0.84673 0.55793 -0.31900
S 	S 	0.38619 0.86326 0.44659 -0.35000
S 	S 	0.47400 0.97224 0.43862 -0.32300
O 	O 	0.60100 0.89180 0.39190 -0.38800
O 	O 	0.64840 0.85230 0.42370 -0.19400
O 	O 	0.49460 0.88990 0.34750 -0.39100
O 	O 	0.44250 0.92880 0.32900 -0.22300
O 	O 	0.40920 0.76580 0.47100 -0.41800
O 	O 	0.46190 0.73810 0.50860 -0.29600
O 	O 	0.30210 0.80960 0.48120 -0.36000
O 	O 	0.25700 0.84380 0.44080 -0.19200
N 	N 	0.55700 0.82960 0.37040 -0.17600
N 	N 	0.54260 0.94910 0.37620 -0.18100
N 	N 	0.36400 0.78800 0.53350 -0.18600
N 	N 	0.34680 0.78840 0.41390 -0.17200
C 	C 	0.61350 0.85860 0.40600 0.28000
C 	C 	0.58440 0.82080 0.40570 -0.02900
C 	C 	0.55950 0.81720 0.44460 0.04100
C 	C 	0.53740 0.77520 0.44560 0.00300
C 	C 	0.58650 0.82050 0.48400 -0.02200
C 	C 	0.47730 0.92440 0.34570 0.26200
C 	C 	0.50210 0.96310 0.35970 -0.03700
C 	C 	0.48090 0.99400 0.38750 0.04900
C 	C 	0.51000 0.03050 0.39170 0.01200
C 	C 	0.43920 0.00630 0.36880 -0.00700
C 	C 	0.42760 0.75750 0.50450 0.26200
C 	C 	0.40500 0.76940 0.54510 -0.04400
C 	C 	0.42800 0.79400 0.57700 0.05100
C 	C 	0.39920 0.79730 0.61500 0.00800
C 	C 	0.47050 0.77570 0.58870 -0.00900
C 	C 	0.29040 0.82410 0.44720 0.26300
C 	C 	0.32200 0.82670 0.41120 -0.03900
C 	C 	0.34730 0.86550 0.40500 0.04600
C 	C 	0.37010 0.86720 0.36370 -0.00000
C 	C 	0.32180 0.90500 0.40880 -0.02400
Au	Au	0.49657 0.97835 0.65203 0.19800
Au	Au	0.56230 0.92869 0.58125 0.19700
Ag	Ag	0.58223 0.95190 0.66736 0.54000
Ag	Ag	0.50949 0.02395 0.57796 0.44200
Ag	Ag	0.48768 0.88326 0.59570 0.44100
Cu	Cu	0.63320 0.05067 0.61049 0.90300
Cu	Cu	0.52532 0.85483 0.71755 0.90000
Cl	Cl	0.63580 0.95010 0.71760 -0.35700
S 	S 	0.55291 0.01964 0.64164 -0.35100
S 	S 	0.44207 0.93466 0.65327 -0.31900
S 	S 	0.55341 0.88619 0.63674 -0.35000
S 	S 	0.56138 0.97400 0.52776 -0.32300
O 	O 	0.60810 0.10100 0.60820 -0.38800
O 	O 	0.57630 0.14840 0.64770 -0.19500
O 	O 	0.65250 0.99460 0.61010 -0.39100
O 	O 	0.67100 0.94250 0.57120 -0.22300
O 	O 	0.52900 0.90920 0.73420 -0.41800
O 	O 	0.49140 0.96190 0.76190 -0.29600
O 	O 	0.51880 0.80210 0.69040 -0.36000
O 	O 	0.55920 0.75700 0.65620 -0.19200
N 	N 	0.62960 0.05700 0.67040 -0.17500
N 	N 	0.62380 0.04260 0.55090 -0.18100
N 	N 	0.46650 0.86400 0.71200 -0.18600
N 	N 	0.58610 0.84680 0.71160 -0.17200
C 	C 	0.59400 0.11350 0.64140 0.28000
C 	C 	0.59430 0.08440 0.67920 -0.02900
C 	C 	0.55540 0.05950 0.68280 0.04100
C 	C 	0.55440 0.03740 0.72480 0.00400
C 	C 	0.51600 0.08650 0.67950 -0.02200
C 	C 	0.65430 0.97730 0.57560 0.26200
C 	C 	0.64030 0.00210 0.53690 -0.03700
C 	C 	0.61250 0.98090 0.50600 0.04900
C 	C 	0.60830 0.01000 0.46950 0.01200
C 	C 	0.63120 0.93920 0.49370 -0.00700
C 	C 	0.49550 0.92760 0.74250 0.26200
C 	C 	0.45490 0.90500 0.73060 -0.04400
C 	C 	0.42300 0.92800 0.70600 0.05100
C 	C 	0.38500 0.89920 0.70270 0.00800
C 	C 	0.41130 0.97050 0.72430 -0.00900
C 	C 	0.55280 0.79040 0.67590 0.26300
C 	C 	0.58880 0.82200 0.67330 -0.03900
C 	C 	0.59500 0.84730 0.63450 0.04600
C 	C 	0.63630 0.87010 0.63280 -0.00000
C 	C 	0.59120 0.82180 0.59500 -0.02400
Au	Au	0.15203 0.00343 0.02165 0.19800
Au	Au	0.08125 0.93770 0.07131 0.19700
Ag	Ag	0.16736 0.91777 0.04810 0.54000
Ag	Ag	0.07796 0.99051 0.97605 0.44300
Ag	Ag	0.09570 0.01232 0.11674 0.44100
Cu	Cu	0.11049 0.86680 0.94933 0.90300
Cu	Cu	0.21755 0.97468 0.14517 0.90000
Cl	Cl	0.21760 0.86420 0.04990 -0.35700
S 	S 	0.14164 0.94709 0.98036 -0.35100
S 	S 	0.15327 0.05793 0.06534 -0.31900
S 	S 	0.13674 0.94659 0.11381 -0.35000
S 	S 	0.02776 0.93862 0.02600 -0.32300
O 	O 	0.10820 0.89190 0.89900 -0.38800
O 	O 	0.14770 0.92370 0.85160 -0.19400
O 	O 	0.11010 0.84750 0.00540 -0.39100
O 	O 	0.07120 0.82900 0.05750 -0.22300
O 	O 	0.23420 0.97100 0.09080 -0.41800
O 	O 	0.26190 0.00860 0.03810 -0.29600
O 	O 	0.19040 0.98120 0.19790 -0.36000
O 	O 	0.15620 0.94080 0.24300 -0.19200
N 	N 	0.17040 0.87040 0.94300 -0.17500
N 	N 	0.05090 0.87620 0.95740 -0.18100
N 	N 	0.21200 0.03350 0.13600 -0.18600
N 	N 	0.21160 0.91390 0.15320 -0.17200
C 	C 	0.14140 0.90600 0.88650 0.28000
C 	C 	0.17920 0.90570 0.91560 -0.02900
C 	C 	0.18280 0.94460 0.94050 0.04100
C 	C 	0.22480 0.94560 0.96260 0.00400
C 	C 	0.17950 0.98400 0.91350 -0.02200
C 	C 	0.07560 0.84570 0.02270 0.26200
C 	C 	0.03690 0.85970 0.99790 -0.03700
C 	C 	0.00600 0.88750 0.01910 0.04900
C 	C 	0.96950 0.89170 0.99000 0.01200
C 	C 	0.99370 0.86880 0.06080 -0.00600
C 	C 	0.24250 0.00450 0.07240 0.26200
C 	C 	0.23060 0.04510 0.09500 -0.04400
C 	C 	0.20600 0.07700 0.07200 0.05100
C 	C 	0.20270 0.11500 0.10080 0.00800
C 	C 	0.22430 0.08870 0.02950 -0.00900
C 	C 	0.17590 0.94720 0.20960 0.26300
C 	C 	0.17330 0.91120 0.17800 -0.03900
C 	C 	0.13450 0.90500 0.15270 0.04600
C 	C 	0.13280 0.86370 0.12990 -0.00000
C 	C 	0.09500 0.90880 0.17820 -0.02400
Au	Au	0.02165 0.15203 0.00343 0.19800
Au	Au	0.07131 0.08125 0.93770 0.19700
Ag	Ag	0.04810 0.16736 0.91777 0.54000
Ag	Ag	0.97605 0.07796 0.99051 0.44300
Ag	Ag	0.11674 0.09570 0.01232 0.44100
Cu	Cu	0.94933 0.11049 0.86680 0.90300
Cu	Cu	0.14517 0.21755 0.97468 0.90000
Cl	Cl	0.04990 0.21760 0.86420 -0.35700
S 	S 	0.98036 0.14164 0.94709 -0.35100
S 	S 	0.06534 0.15327 0.05793 -0.31900
S 	S 	0.11381 0.13674 0.94659 -0.35000
S 	S 	0.02600 0.02776 0.93862 -0.32300
O 	O 	0.89900 0.10820 0.89190 -0.38800
O 	O 	0.85160 0.14770 0.92370 -0.19400
O 	O 	0.00540 0.11010 0.84750 -0.39100
O 	O 	0.05750 0.07120 0.82900 -0.22300
O 	O 	0.09080 0.23420 0.97100 -0.41800
O 	O 	0.03810 0.26190 0.00860 -0.29600
O 	O 	0.19790 0.19040 0.98120 -0.36000
O 	O 	0.24300 0.15620 0.94080 -0.19200
N 	N 	0.94300 0.17040 0.87040 -0.17500
N 	N 	0.95740 0.05090 0.87620 -0.18100
N 	N 	0.13600 0.21200 0.03350 -0.18600
N 	N 	0.15320 0.21160 0.91390 -0.17200
C 	C 	0.88650 0.14140 0.90600 0.28000
C 	C 	0.91560 0.17920 0.90570 -0.02900
C 	C 	0.94050 0.18280 0.94460 0.04100
C 	C 	0.96260 0.22480 0.94560 0.00400
C 	C 	0.91350 0.17950 0.98400 -0.02200
C 	C 	0.02270 0.07560 0.84570 0.26200
C 	C 	0.99790 0.03690 0.85970 -0.03700
C 	C 	0.01910 0.00600 0.88750 0.04900
C 	C 	0.99000 0.96950 0.89170 0.01200
C 	C 	0.06080 0.99370 0.86880 -0.00600
C 	C 	0.07240 0.24250 0.00450 0.26200
C 	C 	0.09500 0.23060 0.04510 -0.04400
C 	C 	0.07200 0.20600 0.07700 0.05100
C 	C 	0.10080 0.20270 0.11500 0.00800
C 	C 	0.02950 0.22430 0.08870 -0.00900
C 	C 	0.20960 0.17590 0.94720 0.26300
C 	C 	0.17800 0.17330 0.91120 -0.03900
C 	C 	0.15270 0.13450 0.90500 0.04600
C 	C 	0.12990 0.13280 0.86370 -0.00000
C 	C 	0.17820 0.09500 0.90880 -0.02400
Au	Au	0.00343 0.02165 0.15203 0.19800
Au	Au	0.93770 0.07131 0.08125 0.19700
Ag	Ag	0.91777 0.04810 0.16736 0.54000
Ag	Ag	0.99051 0.97605 0.07796 0.44300
Ag	Ag	0.01232 0.11674 0.09570 0.44100
Cu	Cu	0.86680 0.94933 0.11049 0.90300
Cu	Cu	0.97468 0.14517 0.21755 0.90000
Cl	Cl	0.86420 0.04990 0.21760 -0.35700
S 	S 	0.94709 0.98036 0.14164 -0.35100
S 	S 	0.05793 0.06534 0.15327 -0.31900
S 	S 	0.94659 0.11381 0.13674 -0.35000
S 	S 	0.93862 0.02600 0.02776 -0.32300
O 	O 	0.89190 0.89900 0.10820 -0.38800
O 	O 	0.92370 0.85160 0.14770 -0.19400
O 	O 	0.84750 0.00540 0.11010 -0.39100
O 	O 	0.82900 0.05750 0.07120 -0.22300
O 	O 	0.97100 0.09080 0.23420 -0.41800
O 	O 	0.00860 0.03810 0.26190 -0.29600
O 	O 	0.98120 0.19790 0.19040 -0.36000
O 	O 	0.94080 0.24300 0.15620 -0.19200
N 	N 	0.87040 0.94300 0.17040 -0.17500
N 	N 	0.87620 0.95740 0.05090 -0.18100
N 	N 	0.03350 0.13600 0.21200 -0.18600
N 	N 	0.91390 0.15320 0.21160 -0.17200
C 	C 	0.90600 0.88650 0.14140 0.28000
C 	C 	0.90570 0.91560 0.17920 -0.02900
C 	C 	0.94460 0.94050 0.18280 0.04100
C 	C 	0.94560 0.96260 0.22480 0.00400
C 	C 	0.98400 0.91350 0.17950 -0.02200
C 	C 	0.84570 0.02270 0.07560 0.26200
C 	C 	0.85970 0.99790 0.03690 -0.03700
C 	C 	0.88750 0.01910 0.00600 0.04900
C 	C 	0.89170 0.99000 0.96950 0.01200
C 	C 	0.86880 0.06080 0.99370 -0.00600
C 	C 	0.00450 0.07240 0.24250 0.26200
C 	C 	0.04510 0.09500 0.23060 -0.04400
C 	C 	0.07700 0.07200 0.20600 0.05100
C 	C 	0.11500 0.10080 0.20270 0.00800
C 	C 	0.08870 0.02950 0.22430 -0.00900
C 	C 	0.94720 0.20960 0.17590 0.26300
C 	C 	0.91120 0.17800 0.17330 -0.03900
C 	C 	0.90500 0.15270 0.13450 0.04600
C 	C 	0.86370 0.12990 0.13280 -0.00000
C 	C 	0.90880 0.17820 0.09500 -0.02400
Au	Au	0.65203 0.49657 0.97835 0.19800
Au	Au	0.58125 0.56230 0.92869 0.19700
Ag	Ag	0.66736 0.58223 0.95190 0.54000
Ag	Ag	0.57796 0.50949 0.02395 0.44200
Ag	Ag	0.59570 0.48768 0.88326 0.44100
Cu	Cu	0.61049 0.63320 0.05067 0.90300
Cu	Cu	0.71755 0.52532 0.85483 0.90000
Cl	Cl	0.71760 0.63580 0.95010 -0.35700
S 	S 	0.64164 0.55291 0.01964 -0.35100
S 	S 	0.65327 0.44207 0.93466 -0.31900
S 	S 	0.63674 0.55341 0.88619 -0.35000
S 	S 	0.52776 0.56138 0.97400 -0.32300
O 	O 	0.60820 0.60810 0.10100 -0.38800
O 	O 	0.64770 0.57630 0.14840 -0.19500
O 	O 	0.61010 0.65250 0.99460 -0.39100
O 	O 	0.57120 0.67100 0.94250 -0.22300
O 	O 	0.73420 0.52900 0.90920 -0.41800
O 	O 	0.76190 0.49140 0.96190 -0.29600
O 	O 	0.69040 0.51880 0.80210 -0.36000
O 	O 	0.65620 0.55920 0.75700 -0.19200
N 	N 	0.67040 0.62960 0.05700 -0.17500
N 	N 	0.55090 0.62380 0.04260 -0.18100
N 	N 	0.71200 0.46650 0.86400 -0.18600
N 	N 	0.71160 0.58610 0.84680 -0.17200
C 	C 	0.64140 0.59400 0.11350 0.28000
C 	C 	0.67920 0.59430 0.08440 -0.02900
C 	C 	0.68280 0.55540 0.05950 0.04100
C 	C 	0.72480 0.55440 0.03740 0.00400
C 	C 	0.67950 0.51600 0.08650 -0.02200
C 	C 	0.57560 0.65430 0.97730 0.26200
C 	C 	0.53690 0.64030 0.00210 -0.03700
C 	C 	0.50600 0.61250 0.98090 0.04900
C 	C 	0.46950 0.60830 0.01000 0.01200
C 	C 	0.49370 0.63120 0.93920 -0.00700
C 	C 	0.74250 0.49550 0.92760 0.26200
C 	C 	0.73060 0.45490 0.90500 -0.04400
C 	C 	0.70600 0.42300 0.92800 0.05100
C 	C 	0.70270 0.38500 0.89920 0.00800
C 	C 	0.72430 0.41130 0.97050 -0.00900
C 	C 	0.67590 0.55280 0.79040 0.26300
C 	C 	0.67330 0.58880 0.82200 -0.03900
C 	C 	0.63450 0.59500 0.84730 0.04600
C 	C 	0.63280 0.63630 0.87010 -0.00000
C 	C 	0.59500 0.59120 0.82180 -0.02400
Au	Au	0.52165 0.34797 0.99657 0.19800
Au	Au	0.57131 0.41875 0.06230 0.19700
Ag	Ag	0.54810 0.33264 0.08223 0.54000
Ag	Ag	0.47605 0.42204 0.00949 0.44200
Ag	Ag	0.61674 0.40430 0.98768 0.44100
Cu	Cu	0.44933 0.38951 0.13320 0.90300
Cu	Cu	0.64517 0.28245 0.02532 0.90000
Cl	Cl	0.54990 0.28240 0.13580 -0.35700
S 	S 	0.48036 0.35836 0.05291 -0.35100
S 	S 	0.56534 0.34673 0.94207 -0.31900
S 	S 	0.61381 0.36326 0.05341 -0.35000
S 	S 	0.52600 0.47224 0.06138 -0.32300
O 	O 	0.39900 0.39180 0.10810 -0.38800
O 	O 	0.35160 0.35230 0.07630 -0.19400
O 	O 	0.50540 0.38990 0.15250 -0.39100
O 	O 	0.55750 0.42880 0.17100 -0.22300
O 	O 	0.59080 0.26580 0.02900 -0.41800
O 	O 	0.53810 0.23810 0.99140 -0.29600
O 	O 	0.69790 0.30960 0.01880 -0.36000
O 	O 	0.74300 0.34380 0.05920 -0.19200
N 	N 	0.44300 0.32960 0.12960 -0.17600
N 	N 	0.45740 0.44910 0.12380 -0.18100
N 	N 	0.63600 0.28800 0.96650 -0.18600
N 	N 	0.65320 0.28840 0.08610 -0.17200
C 	C 	0.38650 0.35860 0.09400 0.28000
C 	C 	0.41560 0.32080 0.09430 -0.02900
C 	C 	0.44050 0.31720 0.05540 0.04100
C 	C 	0.46260 0.27520 0.05440 0.00400
C 	C 	0.41350 0.32050 0.01600 -0.02200
C 	C 	0.52270 0.42440 0.15430 0.26200
C 	C 	0.49790 0.46310 0.14030 -0.03700
C 	C 	0.51910 0.49400 0.11250 0.04900
C 	C 	0.49000 0.53050 0.10830 0.01200
C 	C 	0.56080 0.50630 0.13120 -0.00700
C 	C 	0.57240 0.25750 0.99550 0.26200
C 	C 	0.59500 0.26940 0.95490 -0.04400
C 	C 	0.57200 0.29400 0.92300 0.05100
C 	C 	0.60080 0.29730 0.88500 0.00800
C 	C 	0.52950 0.27570 0.91130 -0.00900
C 	C 	0.70960 0.32410 0.05280 0.26300
C 	C 	0.67800 0.32670 0.08880 -0.03900
C 	C 	0.65270 0.36550 0.09500 0.04600
C 	C 	0.62990 0.36720 0.13630 -0.00000
C 	C 	0.67820 0.40500 0.09120 -0.02400
Au	Au	0.50343 0.47835 0.84797 0.19800
Au	Au	0.43770 0.42869 0.91875 0.19700
Ag	Ag	0.41777 0.45190 0.83264 0.54000
Ag	Ag	0.49051 0.52395 0.92204 0.44200
Ag	Ag	0.51232 0.38326 0.90430 0.44100
Cu	Cu	0.36680 0.55067 0.88951 0.90300
Cu	Cu	0.47468 0.35483 0.78245 0.90000
Cl	Cl	0.36420 0.45010 0.78240 -0.35700
S 	S 	0.44709 0.51964 0.85836 -0.35100
S 	S 	0.55793 0.43466 0.84673 -0.31900
S 	S 	0.44659 0.38619 0.86326 -0.35000
S 	S 	0.43862 0.47400 0.97224 -0.32300
O 	O 	0.39190 0.60100 0.89180 -0.38800
O 	O 	0.42370 0.64840 0.85230 -0.19400
O 	O 	0.34750 0.49460 0.88990 -0.39100
O 	O 	0.32900 0.44250 0.92880 -0.22300
O 	O 	0.47100 0.40920 0.76580 -0.41800
O 	O 	0.50860 0.46190 0.73810 -0.29600
O 	O 	0.48120 0.30210 0.80960 -0.36000
O 	O 	0.44080 0.25700 0.84380 -0.19200
N 	N 	0.37040 0.55700 0.82960 -0.17600
N 	N 	0.37620 0.54260 0.94910 -0.18100
N 	N 	0.53350 0.36400 0.78800 -0.18600
N 	N 	0.41390 0.34680 0.78840 -0.17200
C 	C 	0.40600 0.61350 0.85860 0.28000
C 	C 	0.40570 0.58440 0.82080 -0.02900
C 	C 	0.44460 0.55950 0.81720 0.04100
C 	C 	0.44560 0.53740 0.77520 0.00300
C 	C 	0.48400 0.58650 0.82050 -0.02200
C 	C 	0.34570 0.47730 0.92440 0.26200
C 	C 	0.35970 0.50210 0.96310 -0.03700
C 	C 	0.38750 0.48090 0.99400 0.04900
C 	C 	0.39170 0.51000 0.03050 0.01200
C 	C 	0.36880 0.43920 0.00630 -0.00700
C 	C 	0.50450 0.42760 0.75750 0.26200
C 	C 	0.54510 0.40500 0.76940 -0.04400
C 	C 	0.57700 0.42800 0.79400 0.05100
C 	C 	0.61500 0.39920 0.79730 0.00800
C 	C 	0.58870 0.47050 0.77570 -0.00900
C 	C 	0.44720 0.29040 0.82410 0.26300
C 	C 	0.41120 0.32200 0.82670 -0.03900
C 	C 	0.40500 0.34730 0.86550 0.04600
C 	C 	0.36370 0.37010 0.86720 -0.00000
C 	C 	0.40880 0.32180 0.90500 -0.02400
Au	Au	0.84797 0.50343 0.47835 0.19800
Au	Au	0.91875 0.43770 0.42869 0.19700
Ag	Ag	0.83264 0.41777 0.45190 0.54000
Ag	Ag	0.92204 0.49051 0.52395 0.44200
Ag	Ag	0.90430 0.51232 0.38326 0.44100
Cu	Cu	0.88951 0.36680 0.55067 0.90300
Cu	Cu	0.78245 0.47468 0.35483 0.90000
Cl	Cl	0.78240 0.36420 0.45010 -0.35700
S 	S 	0.85836 0.44709 0.51964 -0.35100
S 	S 	0.84673 0.55793 0.43466 -0.31900
S 	S 	0.86326 0.44659 0.38619 -0.35000
S 	S 	0.97224 0.43862 0.47400 -0.32300
O 	O 	0.89180 0.39190 0.60100 -0.38800
O 	O 	0.85230 0.42370 0.64840 -0.19400
O 	O 	0.88990 0.34750 0.49460 -0.39100
O 	O 	0.92880 0.32900 0.44250 -0.22300
O 	O 	0.76580 0.47100 0.40920 -0.41800
O 	O 	0.73810 0.50860 0.46190 -0.29600
O 	O 	0.80960 0.48120 0.30210 -0.36000
O 	O 	0.84380 0.44080 0.25700 -0.19200
N 	N 	0.82960 0.37040 0.55700 -0.17600
N 	N 	0.94910 0.37620 0.54260 -0.18100
N 	N 	0.78800 0.53350 0.36400 -0.18600
N 	N 	0.78840 0.41390 0.34680 -0.17200
C 	C 	0.85860 0.40600 0.61350 0.28000
C 	C 	0.82080 0.40570 0.58440 -0.02900
C 	C 	0.81720 0.44460 0.55950 0.04100
C 	C 	0.77520 0.44560 0.53740 0.00300
C 	C 	0.82050 0.48400 0.58650 -0.02200
C 	C 	0.92440 0.34570 0.47730 0.26200
C 	C 	0.96310 0.35970 0.50210 -0.03700
C 	C 	0.99400 0.38750 0.48090 0.04900
C 	C 	0.03050 0.39170 0.51000 0.01200
C 	C 	0.00630 0.36880 0.43920 -0.00700
C 	C 	0.75750 0.50450 0.42760 0.26200
C 	C 	0.76940 0.54510 0.40500 -0.04400
C 	C 	0.79400 0.57700 0.42800 0.05100
C 	C 	0.79730 0.61500 0.39920 0.00800
C 	C 	0.77570 0.58870 0.47050 -0.00900
C 	C 	0.82410 0.44720 0.29040 0.26300
C 	C 	0.82670 0.41120 0.32200 -0.03900
C 	C 	0.86550 0.40500 0.34730 0.04600
C 	C 	0.86720 0.36370 0.37010 -0.00000
C 	C 	0.90500 0.40880 0.32180 -0.02400
Au	Au	0.97835 0.65203 0.49657 0.19800
Au	Au	0.92869 0.58125 0.56230 0.19700
Ag	Ag	0.95190 0.66736 0.58223 0.54000
Ag	Ag	0.02395 0.57796 0.50949 0.44200
Ag	Ag	0.88326 0.59570 0.48768 0.44100
Cu	Cu	0.05067 0.61049 0.63320 0.90300
Cu	Cu	0.85483 0.71755 0.52532 0.90000
Cl	Cl	0.95010 0.71760 0.63580 -0.35700
S 	S 	0.01964 0.64164 0.55291 -0.35100
S 	S 	0.93466 0.65327 0.44207 -0.31900
S 	S 	0.88619 0.63674 0.55341 -0.35000
S 	S 	0.97400 0.52776 0.56138 -0.32300
O 	O 	0.10100 0.60820 0.60810 -0.38800
O 	O 	0.14840 0.64770 0.57630 -0.19500
O 	O 	0.99460 0.61010 0.65250 -0.39100
O 	O 	0.94250 0.57120 0.67100 -0.22300
O 	O 	0.90920 0.73420 0.52900 -0.41800
O 	O 	0.96190 0.76190 0.49140 -0.29600
O 	O 	0.80210 0.69040 0.51880 -0.36000
O 	O 	0.75700 0.65620 0.55920 -0.19200
N 	N 	0.05700 0.67040 0.62960 -0.17500
N 	N 	0.04260 0.55090 0.62380 -0.18100
N 	N 	0.86400 0.71200 0.46650 -0.18600
N 	N 	0.84680 0.71160 0.58610 -0.17200
C 	C 	0.11350 0.64140 0.59400 0.28000
C 	C 	0.08440 0.67920 0.59430 -0.02900
C 	C 	0.05950 0.68280 0.55540 0.04100
C 	C 	0.03740 0.72480 0.55440 0.00400
C 	C 	0.08650 0.67950 0.51600 -0.02200
C 	C 	0.97730 0.57560 0.65430 0.26200
C 	C 	0.00210 0.53690 0.64030 -0.03700
C 	C 	0.98090 0.50600 0.61250 0.04900
C 	C 	0.01000 0.46950 0.60830 0.01200
C 	C 	0.93920 0.49370 0.63120 -0.00700
C 	C 	0.92760 0.74250 0.49550 0.26200
C 	C 	0.90500 0.73060 0.45490 -0.04400
C 	C 	0.92800 0.70600 0.42300 0.05100
C 	C 	0.89920 0.70270 0.38500 0.00800
C 	C 	0.97050 0.72430 0.41130 -0.00900
C 	C 	0.79040 0.67590 0.55280 0.26300
C 	C 	0.82200 0.67330 0.58880 -0.03900
C 	C 	0.84730 0.63450 0.59500 0.04600
C 	C 	0.87010 0.63280 0.63630 -0.00000
C 	C 	0.82180 0.59500 0.59120 -0.02400
Au	Au	0.99657 0.52165 0.34797 0.19800
Au	Au	0.06230 0.57131 0.41875 0.19700
Ag	Ag	0.08223 0.54810 0.33264 0.54000
Ag	Ag	0.00949 0.47605 0.42204 0.44200
Ag	Ag	0.98768 0.61674 0.40430 0.44100
Cu	Cu	0.13320 0.44933 0.38951 0.90300
Cu	Cu	0.02532 0.64517 0.28245 0.90000
Cl	Cl	0.13580 0.54990 0.28240 -0.35700
S 	S 	0.05291 0.48036 0.35836 -0.35100
S 	S 	0.94207 0.56534 0.34673 -0.31900
S 	S 	0.05341 0.61381 0.36326 -0.35000
S 	S 	0.06138 0.52600 0.47224 -0.32300
O 	O 	0.10810 0.39900 0.39180 -0.38800
O 	O 	0.07630 0.35160 0.35230 -0.19400
O 	O 	0.15250 0.50540 0.38990 -0.39100
O 	O 	0.17100 0.55750 0.42880 -0.22300
O 	O 	0.02900 0.59080 0.26580 -0.41800
O 	O 	0.99140 0.53810 0.23810 -0.29600
O 	O 	0.01880 0.69790 0.30960 -0.36000
O 	O 	0.05920 0.74300 0.34380 -0.19200
N 	N 	0.12960 0.44300 0.32960 -0.17600
N 	N 	0.12380 0.45740 0.44910 -0.18100
N 	N 	0.96650 0.63600 0.28800 -0.18600
N 	N 	0.08610 0.65320 0.28840 -0.17200
C 	C 	0.09400 0.38650 0.35860 0.28000
C 	C 	0.09430 0.41560 0.32080 -0.02900
C 	C 	0.05540 0.44050 0.31720 0.04100
C 	C 	0.05440 0.46260 0.27520 0.00400
C 	C 	0.01600 0.41350 0.32050 -0.02200
C 	C 	0.15430 0.52270 0.42440 0.26200
C 	C 	0.14030 0.49790 0.46310 -0.03700
C 	C 	0.11250 0.51910 0.49400 0.04900
C 	C 	0.10830 0.49000 0.53050 0.01200
C 	C 	0.13120 0.56080 0.50630 -0.00700
C 	C 	0.99550 0.57240 0.25750 0.26200
C 	C 	0.95490 0.59500 0.26940 -0.04400
C 	C 	0.92300 0.57200 0.29400 0.05100
C 	C 	0.88500 0.60080 0.29730 0.00800
C 	C 	0.91130 0.52950 0.27570 -0.00900
C 	C 	0.05280 0.70960 0.32410 0.26300
C 	C 	0.08880 0.67800 0.32670 -0.03900
C 	C 	0.09500 0.65270 0.36550 0.04600
C 	C 	0.13630 0.62990 0.36720 -0.00000
C 	C 	0.09120 0.67820 0.40500 -0.02400
Au	Au	0.05554 0.00613 0.59969 0.19200
Au	Au	0.04397 0.11043 0.57455 0.20000
Ag	Ag	0.10963 0.07415 0.62699 0.49900
Ag	Ag	0.97626 0.03763 0.62628 0.44300
Ag	Ag	0.05701 0.05794 0.50362 0.44300
Cu	Cu	0.02664 0.10928 0.71995 0.90000
Cu	Cu	0.17744 0.03124 0.53469 0.91400
S 	S 	0.04575 0.04305 0.65864 -0.36500
S 	S 	0.06246 0.97244 0.53888 -0.30500
S 	S 	0.10665 0.08794 0.55130 -0.37100
S 	S 	0.97861 0.12202 0.59698 -0.31300
O 	O 	0.98870 0.06960 0.74420 -0.37400
O 	O 	0.98750 0.00440 0.76630 -0.20900
O 	O 	0.06200 0.14140 0.68650 -0.40000
O 	O 	0.06500 0.19380 0.64350 -0.22100
O 	O 	0.16330 0.00920 0.58780 -0.41800
O 	O 	0.15640 0.94800 0.61940 -0.22300
O 	O 	0.17960 0.05790 0.48130 -0.35900
O 	O 	0.18580 0.11850 0.44940 -0.19800
N 	N 	0.06920 0.07250 0.74240 -0.17300
N 	N 	0.98280 0.13650 0.69110 -0.19600
N 	N 	0.15160 0.98280 0.51350 -0.18200
N 	N 	0.19700 0.08600 0.55490 -0.16500
C 	C 	0.00530 0.03550 0.75170 0.28000
C 	C 	0.05130 0.03020 0.74060 -0.03600
C 	C 	0.06110 0.00920 0.70030 0.04900
C 	C 	0.10750 0.00240 0.69790 -0.02200
C 	C 	0.03740 0.96830 0.69770 -0.03100
C 	C 	0.04510 0.16800 0.66420 0.27300
C 	C 	0.99700 0.17200 0.66470 -0.04200
C 	C 	0.97680 0.17410 0.62270 0.04400
C 	C 	0.99350 0.20580 0.59280 -0.00800
C 	C 	0.93040 0.18150 0.63110 0.00000
C 	C 	0.15450 0.97220 0.58870 0.28500
C 	C 	0.14400 0.95230 0.54720 -0.03900
C 	C 	0.10180 0.93160 0.54430 0.04500
C 	C 	0.08990 0.90540 0.58310 -0.01500
C 	C 	0.09830 0.90640 0.50390 0.01400
C 	C 	0.18230 0.09670 0.48080 0.28400
C 	C 	0.18130 0.11680 0.52410 -0.02500
C 	C 	0.13890 0.13100 0.53640 0.04500
C 	C 	0.14170 0.15820 0.57480 -0.00800
C 	C 	0.11900 0.15690 0.50190 -0.02000
Au	Au	0.90031 0.94446 0.50613 0.19200
Au	Au	0.92545 0.95603 0.61043 0.20000
Ag	Ag	0.87301 0.89037 0.57415 0.49900
Ag	Ag	0.87372 0.02374 0.53763 0.44300
Ag	Ag	0.99638 0.94299 0.55794 0.44300
Cu	Cu	0.78005 0.97336 0.60928 0.90000
Cu	Cu	0.96531 0.82256 0.53124 0.91400
S 	S 	0.84136 0.95425 0.54305 -0.36500
S 	S 	0.96112 0.93754 0.47244 -0.30600
S 	S 	0.94870 0.89335 0.58794 -0.37100
S 	S 	0.90302 0.02139 0.62202 -0.31300
O 	O 	0.75580 0.01130 0.56960 -0.37400
O 	O 	0.73370 0.01250 0.50440 -0.21000
O 	O 	0.81350 0.93800 0.64140 -0.40000
O 	O 	0.85650 0.93500 0.69380 -0.22100
O 	O 	0.91220 0.83670 0.50920 -0.41800
O 	O 	0.88060 0.84360 0.44800 -0.22300
O 	O 	0.01870 0.82040 0.55790 -0.35900
O 	O 	0.05060 0.81420 0.61850 -0.19800
N 	N 	0.75760 0.93080 0.57250 -0.17300
N 	N 	0.80890 0.01720 0.63650 -0.19600
N 	N 	0.98650 0.84840 0.48280 -0.18200
N 	N 	0.94510 0.80300 0.58600 -0.16500
C 	C 	0.74830 0.99470 0.53550 0.28000
C 	C 	0.75940 0.94870 0.53020 -0.03600
C 	C 	0.79970 0.93890 0.50920 0.04900
C 	C 	0.80210 0.89250 0.50240 -0.02200
C 	C 	0.80230 0.96260 0.46830 -0.03100
C 	C 	0.83580 0.95490 0.66800 0.27200
C 	C 	0.83530 0.00300 0.67200 -0.04100
C 	C 	0.87730 0.02320 0.67410 0.04400
C 	C 	0.90720 0.00650 0.70580 -0.00800
C 	C 	0.86890 0.06960 0.68150 0.00000
C 	C 	0.91130 0.84550 0.47220 0.28500
C 	C 	0.95280 0.85600 0.45230 -0.03900
C 	C 	0.95570 0.89820 0.43160 0.04500
C 	C 	0.91690 0.91010 0.40540 -0.01500
C 	C 	0.99610 0.90170 0.40640 0.01400
C 	C 	0.01920 0.81770 0.59670 0.28500
C 	C 	0.97590 0.81870 0.61680 -0.02500
C 	C 	0.96360 0.86110 0.63100 0.04500
C 	C 	0.92520 0.85830 0.65820 -0.00800
C 	C 	0.99810 0.88100 0.65690 -0.02000
Au	Au	0.99387 0.09969 0.44446 0.19200
Au	Au	0.88957 0.07455 0.45603 0.20000
Ag	Ag	0.92585 0.12699 0.39037 0.49900
Ag	Ag	0.96237 0.12628 0.52374 0.44300
Ag	Ag	0.94206 0.00362 0.44299 0.44400
Cu	Cu	0.89072 0.21995 0.47336 0.90000
Cu	Cu	0.96876 0.03469 0.32256 0.91400
S 	S 	0.95695 0.15864 0.45425 -0.36500
S 	S 	0.02756 0.03888 0.43754 -0.30500
S 	S 	0.91206 0.05130 0.39335 -0.37100
S 	S 	0.87798 0.09698 0.52139 -0.31300
O 	O 	0.93040 0.24420 0.51130 -0.37400
O 	O 	0.99560 0.26630 0.51250 -0.21000
O 	O 	0.85860 0.18650 0.43800 -0.40000
O 	O 	0.80620 0.14350 0.43500 -0.22100
O 	O 	0.99080 0.08780 0.33670 -0.41800
O 	O 	0.05200 0.11940 0.34360 -0.22300
O 	O 	0.94210 0.98130 0.32040 -0.35900
O 	O 	0.88150 0.94940 0.31420 -0.19800
N 	N 	0.92750 0.24240 0.43080 -0.17300
N 	N 	0.86350 0.19110 0.51720 -0.19600
N 	N 	0.01720 0.01350 0.34840 -0.18200
N 	N 	0.91400 0.05490 0.30300 -0.16500
C 	C 	0.96450 0.25170 0.49470 0.28000
C 	C 	0.96980 0.24060 0.44870 -0.03600
C 	C 	0.99080 0.20030 0.43890 0.04900
C 	C 	0.99760 0.19790 0.39250 -0.02200
C 	C 	0.03170 0.19770 0.46260 -0.03100
C 	C 	0.83200 0.16420 0.45490 0.27300
C 	C 	0.82800 0.16470 0.50300 -0.04200
C 	C 	0.82590 0.12270 0.52320 0.04400
C 	C 	0.79420 0.09280 0.50650 -0.00900
C 	C 	0.81850 0.13110 0.56960 0.00000
C 	C 	0.02780 0.08870 0.34550 0.28500
C 	C 	0.04770 0.04720 0.35600 -0.03900
C 	C 	0.06840 0.04430 0.39820 0.04500
C 	C 	0.09460 0.08310 0.41010 -0.01500
C 	C 	0.09360 0.00390 0.40170 0.01400
C 	C 	0.90330 0.98080 0.31770 0.28400
C 	C 	0.88320 0.02410 0.31870 -0.02500
C 	C 	0.86900 0.03640 0.36110 0.04500
C 	C 	0.84180 0.07480 0.35830 -0.00800
C 	C 	0.84310 0.00190 0.38100 -0.02000
Au	Au	0.44446 0.99387 0.09969 0.19200
Au	Au	0.45603 0.88957 0.07455 0.20000
Ag	Ag	0.39037 0.92585 0.12699 0.49900
Ag	Ag	0.52374 0.96237 0.12628 0.44300
Ag	Ag	0.44299 0.94206 0.00362 0.44400
Cu	Cu	0.47336 0.89072 0.21995 0.90000
Cu	Cu	0.32256 0.96876 0.03469 0.91400
S 	S 	0.45425 0.95695 0.15864 -0.36500
S 	S 	0.43754 0.02756 0.03888 -0.30500
S 	S 	0.39335 0.91206 0.05130 -0.37100
S 	S 	0.52139 0.87798 0.09698 -0.31300
O 	O 	0.51130 0.93040 0.24420 -0.37400
O 	O 	0.51250 0.99560 0.26630 -0.21000
O 	O 	0.43800 0.85860 0.18650 -0.40000
O 	O 	0.43500 0.80620 0.14350 -0.22100
O 	O 	0.33670 0.99080 0.08780 -0.41800
O 	O 	0.34360 0.05200 0.11940 -0.22300
O 	O 	0.32040 0.94210 0.98130 -0.35900
O 	O 	0.31420 0.88150 0.94940 -0.19800
N 	N 	0.43080 0.92750 0.24240 -0.17300
N 	N 	0.51720 0.86350 0.19110 -0.19600
N 	N 	0.34840 0.01720 0.01350 -0.18200
N 	N 	0.30300 0.91400 0.05490 -0.16500
C 	C 	0.49470 0.96450 0.25170 0.28000
C 	C 	0.44870 0.96980 0.24060 -0.03600
C 	C 	0.43890 0.99080 0.20030 0.04900
C 	C 	0.39250 0.99760 0.19790 -0.02200
C 	C 	0.46260 0.03170 0.19770 -0.03100
C 	C 	0.45490 0.83200 0.16420 0.27300
C 	C 	0.50300 0.82800 0.16470 -0.04200
C 	C 	0.52320 0.82590 0.12270 0.04400
C 	C 	0.50650 0.79420 0.09280 -0.00900
C 	C 	0.56960 0.81850 0.13110 0.00000
C 	C 	0.34550 0.02780 0.08870 0.28500
C 	C 	0.35600 0.04770 0.04720 -0.03900
C 	C 	0.39820 0.06840 0.04430 0.04500
C 	C 	0.41010 0.09460 0.08310 -0.01500
C 	C 	0.40170 0.09360 0.00390 0.01400
C 	C 	0.31770 0.90330 0.98080 0.28400
C 	C 	0.31870 0.88320 0.02410 -0.02500
C 	C 	0.36110 0.86900 0.03640 0.04500
C 	C 	0.35830 0.84180 0.07480 -0.00800
C 	C 	0.38100 0.84310 0.00190 -0.02000
Au	Au	0.59969 0.05554 0.00613 0.19200
Au	Au	0.57455 0.04397 0.11043 0.20000
Ag	Ag	0.62699 0.10963 0.07415 0.49900
Ag	Ag	0.62628 0.97626 0.03763 0.44300
Ag	Ag	0.50362 0.05701 0.05794 0.44300
Cu	Cu	0.71995 0.02664 0.10928 0.90000
Cu	Cu	0.53469 0.17744 0.03124 0.91400
S 	S 	0.65864 0.04575 0.04305 -0.36500
S 	S 	0.53888 0.06246 0.97244 -0.30500
S 	S 	0.55130 0.10665 0.08794 -0.37100
S 	S 	0.59698 0.97861 0.12202 -0.31300
O 	O 	0.74420 0.98870 0.06960 -0.37400
O 	O 	0.76630 0.98750 0.00440 -0.20900
O 	O 	0.68650 0.06200 0.14140 -0.40000
O 	O 	0.64350 0.06500 0.19380 -0.22100
O 	O 	0.58780 0.16330 0.00920 -0.41800
O 	O 	0.61940 0.15640 0.94800 -0.22300
O 	O 	0.48130 0.17960 0.05790 -0.35900
O 	O 	0.44940 0.18580 0.11850 -0.19800
N 	N 	0.74240 0.06920 0.07250 -0.17300
N 	N 	0.69110 0.98280 0.13650 -0.19600
N 	N 	0.51350 0.15160 0.98280 -0.18200
N 	N 	0.55490 0.19700 0.08600 -0.16500
C 	C 	0.75170 0.00530 0.03550 0.28000
C 	C 	0.74060 0.05130 0.03020 -0.03600
C 	C 	0.70030 0.06110 0.00920 0.04900
C 	C 	0.69790 0.10750 0.00240 -0.02200
C 	C 	0.69770 0.03740 0.96830 -0.03100
C 	C 	0.66420 0.04510 0.16800 0.27300
C 	C 	0.66470 0.99700 0.17200 -0.04200
C 	C 	0.62270 0.97680 0.17410 0.04400
C 	C 	0.59280 0.99350 0.20580 -0.00800
C 	C 	0.63110 0.93040 0.18150 0.00000
C 	C 	0.58870 0.15450 0.97220 0.28500
C 	C 	0.54720 0.14400 0.95230 -0.03900
C 	C 	0.54430 0.10180 0.93160 0.04500
C 	C 	0.58310 0.08990 0.90540 -0.01500
C 	C 	0.50390 0.09830 0.90640 0.01400
C 	C 	0.48080 0.18230 0.09670 0.28400
C 	C 	0.52410 0.18130 0.11680 -0.02500
C 	C 	0.53640 0.13890 0.13100 0.04500
C 	C 	0.57480 0.14170 0.15820 -0.00800
C 	C 	0.50190 0.11900 0.15690 -0.02000
Au	Au	0.50613 0.90031 0.94446 0.19200
Au	Au	0.61043 0.92545 0.95603 0.20000
Ag	Ag	0.57415 0.87301 0.89037 0.49900
Ag	Ag	0.53763 0.87372 0.02374 0.44300
Ag	Ag	0.55794 0.99638 0.94299 0.44300
Cu	Cu	0.60928 0.78005 0.97336 0.90000
Cu	Cu	0.53124 0.96531 0.82256 0.91400
S 	S 	0.54305 0.84136 0.95425 -0.36500
S 	S 	0.47244 0.96112 0.93754 -0.30600
S 	S 	0.58794 0.94870 0.89335 -0.37100
S 	S 	0.62202 0.90302 0.02139 -0.31300
O 	O 	0.56960 0.75580 0.01130 -0.37400
O 	O 	0.50440 0.73370 0.01250 -0.21000
O 	O 	0.64140 0.81350 0.93800 -0.40000
O 	O 	0.69380 0.85650 0.93500 -0.22100
O 	O 	0.50920 0.91220 0.83670 -0.41800
O 	O 	0.44800 0.88060 0.84360 -0.22300
O 	O 	0.55790 0.01870 0.82040 -0.35900
O 	O 	0.61850 0.05060 0.81420 -0.19800
N 	N 	0.57250 0.75760 0.93080 -0.17300
N 	N 	0.63650 0.80890 0.01720 -0.19600
N 	N 	0.48280 0.98650 0.84840 -0.18200
N 	N 	0.58600 0.94510 0.80300 -0.16500
C 	C 	0.53550 0.74830 0.99470 0.28000
C 	C 	0.53020 0.75940 0.94870 -0.03600
C 	C 	0.50920 0.79970 0.93890 0.04900
C 	C 	0.50240 0.80210 0.89250 -0.02200
C 	C 	0.46830 0.80230 0.96260 -0.03100
C 	C 	0.66800 0.83580 0.95490 0.27200
C 	C 	0.67200 0.83530 0.00300 -0.04100
C 	C 	0.67410 0.87730 0.02320 0.04400
C 	C 	0.70580 0.90720 0.00650 -0.00800
C 	C 	0.68150 0.86890 0.06960 0.00000
C 	C 	0.47220 0.91130 0.84550 0.28500
C 	C 	0.45230 0.95280 0.85600 -0.03900
C 	C 	0.43160 0.95570 0.89820 0.04500
C 	C 	0.40540 0.91690 0.91010 -0.01500
C 	C 	0.40640 0.99610 0.90170 0.01400
C 	C 	0.59670 0.01920 0.81770 0.28500
C 	C 	0.61680 0.97590 0.81870 -0.02500
C 	C 	0.63100 0.96360 0.86110 0.04500
C 	C 	0.65820 0.92520 0.85830 -0.00800
C 	C 	0.65690 0.99810 0.88100 -0.02000
Au	Au	0.94446 0.50613 0.90031 0.19200
Au	Au	0.95603 0.61043 0.92545 0.20000
Ag	Ag	0.89037 0.57415 0.87301 0.49900
Ag	Ag	0.02374 0.53763 0.87372 0.44300
Ag	Ag	0.94299 0.55794 0.99638 0.44300
Cu	Cu	0.97336 0.60928 0.78005 0.90000
Cu	Cu	0.82256 0.53124 0.96531 0.91400
S 	S 	0.95425 0.54305 0.84136 -0.36500
S 	S 	0.93754 0.47244 0.96112 -0.30600
S 	S 	0.89335 0.58794 0.94870 -0.37100
S 	S 	0.02139 0.62202 0.90302 -0.31300
O 	O 	0.01130 0.56960 0.75580 -0.37400
O 	O 	0.01250 0.50440 0.73370 -0.21000
O 	O 	0.93800 0.64140 0.81350 -0.40000
O 	O 	0.93500 0.69380 0.85650 -0.22100
O 	O 	0.83670 0.50920 0.91220 -0.41800
O 	O 	0.84360 0.44800 0.88060 -0.22300
O 	O 	0.82040 0.55790 0.01870 -0.35900
O 	O 	0.81420 0.61850 0.05060 -0.19800
N 	N 	0.93080 0.57250 0.75760 -0.17300
N 	N 	0.01720 0.63650 0.80890 -0.19600
N 	N 	0.84840 0.48280 0.98650 -0.18200
N 	N 	0.80300 0.58600 0.94510 -0.16500
C 	C 	0.99470 0.53550 0.74830 0.28000
C 	C 	0.94870 0.53020 0.75940 -0.03600
C 	C 	0.93890 0.50920 0.79970 0.04900
C 	C 	0.89250 0.50240 0.80210 -0.02200
C 	C 	0.96260 0.46830 0.80230 -0.03100
C 	C 	0.95490 0.66800 0.83580 0.27200
C 	C 	0.00300 0.67200 0.83530 -0.04100
C 	C 	0.02320 0.67410 0.87730 0.04400
C 	C 	0.00650 0.70580 0.90720 -0.00800
C 	C 	0.06960 0.68150 0.86890 0.00000
C 	C 	0.84550 0.47220 0.91130 0.28500
C 	C 	0.85600 0.45230 0.95280 -0.03900
C 	C 	0.89820 0.43160 0.95570 0.04500
C 	C 	0.91010 0.40540 0.91690 -0.01500
C 	C 	0.90170 0.40640 0.99610 0.01400
C 	C 	0.81770 0.59670 0.01920 0.28500
C 	C 	0.81870 0.61680 0.97590 -0.02500
C 	C 	0.86110 0.63100 0.96360 0.04500
C 	C 	0.85830 0.65820 0.92520 -0.00800
C 	C 	0.88100 0.65690 0.99810 -0.02000
Au	Au	0.09969 0.44446 0.99387 0.19200
Au	Au	0.07455 0.45603 0.88957 0.20000
Ag	Ag	0.12699 0.39037 0.92585 0.49900
Ag	Ag	0.12628 0.52374 0.96237 0.44300
Ag	Ag	0.00362 0.44299 0.94206 0.44400
Cu	Cu	0.21995 0.47336 0.89072 0.90000
Cu	Cu	0.03469 0.32256 0.96876 0.91400
S 	S 	0.15864 0.45425 0.95695 -0.36500
S 	S 	0.03888 0.43754 0.02756 -0.30500
S 	S 	0.05130 0.39335 0.91206 -0.37100
S 	S 	0.09698 0.52139 0.87798 -0.31300
O 	O 	0.24420 0.51130 0.93040 -0.37400
O 	O 	0.26630 0.51250 0.99560 -0.21000
O 	O 	0.18650 0.43800 0.85860 -0.40000
O 	O 	0.14350 0.43500 0.80620 -0.22100
O 	O 	0.08780 0.33670 0.99080 -0.41800
O 	O 	0.11940 0.34360 0.05200 -0.22300
O 	O 	0.98130 0.32040 0.94210 -0.35900
O 	O 	0.94940 0.31420 0.88150 -0.19800
N 	N 	0.24240 0.43080 0.92750 -0.17300
N 	N 	0.19110 0.51720 0.86350 -0.19600
N 	N 	0.01350 0.34840 0.01720 -0.18200
N 	N 	0.05490 0.30300 0.91400 -0.16500
C 	C 	0.25170 0.49470 0.96450 0.28000
C 	C 	0.24060 0.44870 0.96980 -0.03600
C 	C 	0.20030 0.43890 0.99080 0.04900
C 	C 	0.19790 0.39250 0.99760 -0.02200
C 	C 	0.19770 0.46260 0.03170 -0.03100
C 	C 	0.16420 0.45490 0.83200 0.27300
C 	C 	0.16470 0.50300 0.82800 -0.04200
C 	C 	0.12270 0.52320 0.82590 0.04400
C 	C 	0.09280 0.50650 0.79420 -0.00900
C 	C 	0.13110 0.56960 0.81850 0.00000
C 	C 	0.08870 0.34550 0.02780 0.28500
C 	C 	0.04720 0.35600 0.04770 -0.03900
C 	C 	0.04430 0.39820 0.06840 0.04500
C 	C 	0.08310 0.41010 0.09460 -0.01500
C 	C 	0.00390 0.40170 0.09360 0.01400
C 	C 	0.98080 0.31770 0.90330 0.28400
C 	C 	0.02410 0.31870 0.88320 -0.02500
C 	C 	0.03640 0.36110 0.86900 0.04500
C 	C 	0.07480 0.35830 0.84180 -0.00800
C 	C 	0.00190 0.38100 0.84310 -0.02000
Au	Au	0.00613 0.59969 0.05554 0.19200
Au	Au	0.11043 0.57455 0.04397 0.20000
Ag	Ag	0.07415 0.62699 0.10963 0.49900
Ag	Ag	0.03763 0.62628 0.97626 0.44300
Ag	Ag	0.05794 0.50362 0.05701 0.44300
Cu	Cu	0.10928 0.71995 0.02664 0.90000
Cu	Cu	0.03124 0.53469 0.17744 0.91400
S 	S 	0.04305 0.65864 0.04575 -0.36500
S 	S 	0.97244 0.53888 0.06246 -0.30500
S 	S 	0.08794 0.55130 0.10665 -0.37100
S 	S 	0.12202 0.59698 0.97861 -0.31300
O 	O 	0.06960 0.74420 0.98870 -0.37400
O 	O 	0.00440 0.76630 0.98750 -0.20900
O 	O 	0.14140 0.68650 0.06200 -0.40000
O 	O 	0.19380 0.64350 0.06500 -0.22100
O 	O 	0.00920 0.58780 0.16330 -0.41800
O 	O 	0.94800 0.61940 0.15640 -0.22300
O 	O 	0.05790 0.48130 0.17960 -0.35900
O 	O 	0.11850 0.44940 0.18580 -0.19800
N 	N 	0.07250 0.74240 0.06920 -0.17300
N 	N 	0.13650 0.69110 0.98280 -0.19600
N 	N 	0.98280 0.51350 0.15160 -0.18200
N 	N 	0.08600 0.55490 0.19700 -0.16500
C 	C 	0.03550 0.75170 0.00530 0.28000
C 	C 	0.03020 0.74060 0.05130 -0.03600
C 	C 	0.00920 0.70030 0.06110 0.04900
C 	C 	0.00240 0.69790 0.10750 -0.02200
C 	C 	0.96830 0.69770 0.03740 -0.03100
C 	C 	0.16800 0.66420 0.04510 0.27300
C 	C 	0.17200 0.66470 0.99700 -0.04200
C 	C 	0.17410 0.62270 0.97680 0.04400
C 	C 	0.20580 0.59280 0.99350 -0.00800
C 	C 	0.18150 0.63110 0.93040 0.00000
C 	C 	0.97220 0.58870 0.15450 0.28500
C 	C 	0.95230 0.54720 0.14400 -0.03900
C 	C 	0.93160 0.54430 0.10180 0.04500
C 	C 	0.90540 0.58310 0.08990 -0.01500
C 	C 	0.90640 0.50390 0.09830 0.01400
C 	C 	0.09670 0.48080 0.18230 0.28400
C 	C 	0.11680 0.52410 0.18130 -0.02500
C 	C 	0.13100 0.53640 0.13890 0.04500
C 	C 	0.15820 0.57480 0.14170 -0.00800
C 	C 	0.15690 0.50190 0.11900 -0.02000
Au	Au	0.55554 0.49387 0.40031 0.19200
Au	Au	0.54397 0.38957 0.42545 0.20000
Ag	Ag	0.60963 0.42585 0.37301 0.49900
Ag	Ag	0.47626 0.46237 0.37372 0.44300
Ag	Ag	0.55701 0.44206 0.49638 0.44300
Cu	Cu	0.52664 0.39072 0.28005 0.90000
Cu	Cu	0.67744 0.46876 0.46531 0.91400
S 	S 	0.54575 0.45695 0.34136 -0.36500
S 	S 	0.56246 0.52756 0.46112 -0.30600
S 	S 	0.60665 0.41206 0.44870 -0.37200
S 	S 	0.47861 0.37798 0.40302 -0.31300
O 	O 	0.48870 0.43040 0.25580 -0.37400
O 	O 	0.48750 0.49560 0.23370 -0.21000
O 	O 	0.56200 0.35860 0.31350 -0.40000
O 	O 	0.56500 0.30620 0.35650 -0.22100
O 	O 	0.66330 0.49080 0.41220 -0.41800
O 	O 	0.65640 0.55200 0.38060 -0.22300
O 	O 	0.67960 0.44210 0.51870 -0.35900
O 	O 	0.68580 0.38150 0.55060 -0.19800
N 	N 	0.56920 0.42750 0.25760 -0.17300
N 	N 	0.48280 0.36350 0.30890 -0.19600
N 	N 	0.65160 0.51720 0.48650 -0.18200
N 	N 	0.69700 0.41400 0.44510 -0.16500
C 	C 	0.50530 0.46450 0.24830 0.28000
C 	C 	0.55130 0.46980 0.25940 -0.03600
C 	C 	0.56110 0.49080 0.29970 0.04900
C 	C 	0.60750 0.49760 0.30210 -0.02200
C 	C 	0.53740 0.53170 0.30230 -0.03100
C 	C 	0.54510 0.33200 0.33580 0.27300
C 	C 	0.49700 0.32800 0.33530 -0.04200
C 	C 	0.47680 0.32590 0.37730 0.04400
C 	C 	0.49350 0.29420 0.40720 -0.00900
C 	C 	0.43040 0.31850 0.36890 0.00000
C 	C 	0.65450 0.52780 0.41130 0.28500
C 	C 	0.64400 0.54770 0.45280 -0.03900
C 	C 	0.60180 0.56840 0.45570 0.04500
C 	C 	0.58990 0.59460 0.41690 -0.01500
C 	C 	0.59830 0.59360 0.49610 0.01400
C 	C 	0.68230 0.40330 0.51920 0.28400
C 	C 	0.68130 0.38320 0.47590 -0.02500
C 	C 	0.63890 0.36900 0.46360 0.04500
C 	C 	0.64170 0.34180 0.42520 -0.00800
C 	C 	0.61900 0.34310 0.49810 -0.02000
Au	Au	0.40031 0.55554 0.49387 0.19200
Au	Au	0.42545 0.54397 0.38957 0.20000
Ag	Ag	0.37301 0.60963 0.42585 0.49900
Ag	Ag	0.37372 0.47626 0.46237 0.44300
Ag	Ag	0.49638 0.55701 0.44206 0.44300
Cu	Cu	0.28005 0.52664 0.39072 0.90000
Cu	Cu	0.46531 0.67744 0.46876 0.91400
S 	S 	0.34136 0.54575 0.45695 -0.36500
S 	S 	0.46112 0.56246 0.52756 -0.30600
S 	S 	0.44870 0.60665 0.41206 -0.37200
S 	S 	0.40302 0.47861 0.37798 -0.31300
O 	O 	0.25580 0.48870 0.43040 -0.37400
O 	O 	0.23370 0.48750 0.49560 -0.21000
O 	O 	0.31350 0.56200 0.35860 -0.40000
O 	O 	0.35650 0.56500 0.30620 -0.22100
O 	O 	0.41220 0.66330 0.49080 -0.41800
O 	O 	0.38060 0.65640 0.55200 -0.22300
O 	O 	0.51870 0.67960 0.44210 -0.35900
O 	O 	0.55060 0.68580 0.38150 -0.19800
N 	N 	0.25760 0.56920 0.42750 -0.17300
N 	N 	0.30890 0.48280 0.36350 -0.19600
N 	N 	0.48650 0.65160 0.51720 -0.18200
N 	N 	0.44510 0.69700 0.41400 -0.16500
C 	C 	0.24830 0.50530 0.46450 0.28000
C 	C 	0.25940 0.55130 0.46980 -0.03600
C 	C 	0.29970 0.56110 0.49080 0.04900
C 	C 	0.30210 0.60750 0.49760 -0.02200
C 	C 	0.30230 0.53740 0.53170 -0.03100
C 	C 	0.33580 0.54510 0.33200 0.27300
C 	C 	0.33530 0.49700 0.32800 -0.04200
C 	C 	0.37730 0.47680 0.32590 0.04400
C 	C 	0.40720 0.49350 0.29420 -0.00900
C 	C 	0.36890 0.43040 0.31850 0.00000
C 	C 	0.41130 0.65450 0.52780 0.28500
C 	C 	0.45280 0.64400 0.54770 -0.03900
C 	C 	0.45570 0.60180 0.56840 0.04500
C 	C 	0.41690 0.58990 0.59460 -0.01500
C 	C 	0.49610 0.59830 0.59360 0.01400
C 	C 	0.51920 0.68230 0.40330 0.28400
C 	C 	0.47590 0.68130 0.38320 -0.02500
C 	C 	0.46360 0.63890 0.36900 0.04500
C 	C 	0.42520 0.64170 0.34180 -0.00800
C 	C 	0.49810 0.61900 0.34310 -0.02000
Au	Au	0.49387 0.40031 0.55554 0.19200
Au	Au	0.38957 0.42545 0.54397 0.20000
Ag	Ag	0.42585 0.37301 0.60963 0.49900
Ag	Ag	0.46237 0.37372 0.47626 0.44300
Ag	Ag	0.44206 0.49638 0.55701 0.44300
Cu	Cu	0.39072 0.28005 0.52664 0.90000
Cu	Cu	0.46876 0.46531 0.67744 0.91400
S 	S 	0.45695 0.34136 0.54575 -0.36500
S 	S 	0.52756 0.46112 0.56246 -0.30600
S 	S 	0.41206 0.44870 0.60665 -0.37200
S 	S 	0.37798 0.40302 0.47861 -0.31300
O 	O 	0.43040 0.25580 0.48870 -0.37400
O 	O 	0.49560 0.23370 0.48750 -0.21000
O 	O 	0.35860 0.31350 0.56200 -0.40000
O 	O 	0.30620 0.35650 0.56500 -0.22100
O 	O 	0.49080 0.41220 0.66330 -0.41800
O 	O 	0.55200 0.38060 0.65640 -0.22300
O 	O 	0.44210 0.51870 0.67960 -0.35900
O 	O 	0.38150 0.55060 0.68580 -0.19800
N 	N 	0.42750 0.25760 0.56920 -0.17300
N 	N 	0.36350 0.30890 0.48280 -0.19600
N 	N 	0.51720 0.48650 0.65160 -0.18200
N 	N 	0.41400 0.44510 0.69700 -0.16500
C 	C 	0.46450 0.24830 0.50530 0.28000
C 	C 	0.46980 0.25940 0.55130 -0.03600
C 	C 	0.49080 0.29970 0.56110 0.04900
C 	C 	0.49760 0.30210 0.60750 -0.02200
C 	C 	0.53170 0.30230 0.53740 -0.03100
C 	C 	0.33200 0.33580 0.54510 0.27300
C 	C 	0.32800 0.33530 0.49700 -0.04200
C 	C 	0.32590 0.37730 0.47680 0.04400
C 	C 	0.29420 0.40720 0.49350 -0.00900
C 	C 	0.31850 0.36890 0.43040 0.00000
C 	C 	0.52780 0.41130 0.65450 0.28500
C 	C 	0.54770 0.45280 0.64400 -0.03900
C 	C 	0.56840 0.45570 0.60180 0.04500
C 	C 	0.59460 0.41690 0.58990 -0.01500
C 	C 	0.59360 0.49610 0.59830 0.01400
C 	C 	0.40330 0.51920 0.68230 0.28400
C 	C 	0.38320 0.47590 0.68130 -0.02500
C 	C 	0.36900 0.46360 0.63890 0.04500
C 	C 	0.34180 0.42520 0.64170 -0.00800
C 	C 	0.34310 0.49810 0.61900 -0.02000
