data_crystal

_cell_length_a 11.35400
_cell_length_b 11.58360
_cell_length_c 16.24700
_cell_angle_alpha 105.46900
_cell_angle_beta  110.45200
_cell_angle_gamma 90.00000

_symmetry_space_group_name_	'P 1'
_symmetry_space_group_name_H-M	'P 1'

loop_
_symmetry_equiv_pos_as_xyz
  x,y,z

loop_
_atom_site_label
_atom_site_type_symbol
_atom_site_fract_x
_atom_site_fract_y
_atom_site_fract_z
_atom_site_charge
V 	V 	0.73512 0.93938 0.28962 1.74400
V 	V 	0.51846 0.68140 0.21522 1.72900
V 	V 	0.44550 0.56062 0.71038 1.73200
V 	V 	0.30324 0.81860 0.78478 1.73200
V 	V 	0.26488 0.06062 0.71038 1.71100
V 	V 	0.48154 0.31860 0.78478 1.73100
V 	V 	0.55450 0.43938 0.28962 1.72600
V 	V 	0.69676 0.18140 0.21522 1.72900
Co	Co	-0.00000 -0.00000 0.50000 1.10500
Co	Co	0.50000 0.50000 0.50000 1.14500
Co	Co	0.50000 0.00000 -0.00000 1.00300
Co	Co	0.50000 0.50000 -0.00000 1.02800
H 	H 	0.18650 0.86480 0.41620 -0.00100
H 	H 	0.28040 0.86130 0.31120 0.01400
H 	H 	0.09860 0.14580 0.25720 0.01900
H 	H 	0.00620 0.13670 0.36060 -0.07000
H 	H 	0.18620 0.80650 0.55420 -0.00500
H 	H 	0.18770 0.61480 0.56840 0.03100
H 	H 	0.82060 0.55510 0.40980 0.02600
H 	H 	0.82980 0.74800 0.39900 -0.02800
H 	H 	0.39050 0.18060 0.12660 -0.11200
H 	H 	0.28710 0.18770 0.22660 0.02500
H 	H 	0.26450 0.82690 0.15880 -0.01200
H 	H 	0.37440 0.83160 0.06520 -0.07600
H 	H 	0.77030 0.63520 0.58380 -0.00200
H 	H 	0.96920 0.63870 0.68880 0.05200
H 	H 	0.84140 0.35420 0.74280 0.06000
H 	H 	0.64560 0.36330 0.63940 -0.06800
H 	H 	0.63200 0.69350 0.44580 -0.03700
H 	H 	0.61930 0.88520 0.43160 0.09000
H 	H 	0.41080 0.94490 0.59020 0.09700
H 	H 	0.43080 0.75200 0.60100 -0.04900
H 	H 	0.26390 0.31940 0.87340 -0.08500
H 	H 	0.06050 0.31230 0.77340 0.01400
H 	H 	0.10570 0.67310 0.84120 0.00900
H 	H 	0.30920 0.66840 0.93480 -0.00000
H 	H 	0.81350 0.13520 0.58380 0.01000
H 	H 	0.71960 0.13870 0.68880 0.04700
H 	H 	0.90140 0.85420 0.74280 0.05800
H 	H 	0.99380 0.86330 0.63940 -0.05400
H 	H 	0.81380 0.19350 0.44580 -0.04300
H 	H 	0.81230 0.38520 0.43160 0.07300
H 	H 	0.17940 0.44490 0.59020 0.07600
H 	H 	0.17020 0.25200 0.60100 -0.04200
H 	H 	0.60950 0.81940 0.87340 -0.08600
H 	H 	0.71290 0.81230 0.77340 0.04600
H 	H 	0.73550 0.17310 0.84120 0.04200
H 	H 	0.62560 0.16840 0.93480 -0.00000
H 	H 	0.22970 0.36480 0.41620 0.00900
H 	H 	0.03080 0.36130 0.31120 0.00900
H 	H 	0.15860 0.64580 0.25720 0.01800
H 	H 	0.35440 0.63670 0.36060 -0.05700
H 	H 	0.36800 0.30650 0.55420 -0.01300
H 	H 	0.38070 0.11480 0.56840 0.01400
H 	H 	0.58920 0.05510 0.40980 0.00600
H 	H 	0.56920 0.24800 0.39900 -0.02400
H 	H 	0.73610 0.68060 0.12660 -0.11500
H 	H 	0.93950 0.68770 0.22660 0.05500
H 	H 	0.89430 0.32690 0.15880 0.02100
H 	H 	0.69080 0.33160 0.06520 -0.07700
C 	C 	0.16852 0.92160 0.38364 0.07400
C 	C 	0.22632 0.91940 0.32084 -0.03500
C 	C 	0.20258 0.00520 0.27216 -0.04700
C 	C 	0.11810 0.08750 0.28840 -0.12700
C 	C 	0.06332 0.08180 0.35144 -0.00200
C 	C 	0.11103 0.75590 0.52566 0.00800
C 	C 	0.11287 0.64000 0.53494 -0.08600
C 	C 	0.00181 0.56160 0.49382 -0.05900
C 	C 	0.89609 0.60490 0.44118 -0.04500
C 	C 	0.90225 0.72200 0.43490 0.05400
C 	C 	0.36554 0.10860 0.13388 0.01700
C 	C 	0.30313 0.11390 0.19446 -0.14500
C 	C 	0.26490 0.00710 0.20620 -0.02500
C 	C 	0.29071 0.90050 0.15462 -0.08300
C 	C 	0.35526 0.90390 0.09712 0.05300
C 	C 	0.78488 0.57840 0.61636 0.05300
C 	C 	0.90548 0.58060 0.67916 -0.13600
C 	C 	0.93042 0.49480 0.72784 0.08300
C 	C 	0.82970 0.41250 0.71160 -0.16800
C 	C 	0.71188 0.41820 0.64856 0.04700
C 	C 	0.58537 0.74410 0.47434 0.07800
C 	C 	0.57793 0.86000 0.46506 -0.20500
C 	C 	0.50799 0.93840 0.50618 0.16800
C 	C 	0.45491 0.89510 0.55882 -0.19300
C 	C 	0.46735 0.77800 0.56510 0.10400
C 	C 	0.23166 0.39140 0.86612 0.03400
C 	C 	0.10867 0.38610 0.80554 -0.11500
C 	C 	0.05870 0.49290 0.79380 -0.01200
C 	C 	0.13609 0.59950 0.84538 -0.10300
C 	C 	0.25814 0.59610 0.90288 0.01200
C 	C 	0.83148 0.07840 0.61636 -0.00100
C 	C 	0.77368 0.08060 0.67916 -0.17800
C 	C 	0.79742 0.99480 0.72784 0.08900
C 	C 	0.88190 0.91250 0.71160 -0.15400
C 	C 	0.93668 0.91820 0.64856 0.05500
C 	C 	0.88897 0.24410 0.47434 0.07500
C 	C 	0.88713 0.36000 0.46506 -0.19300
C 	C 	0.99819 0.43840 0.50618 0.14700
C 	C 	0.10391 0.39510 0.55882 -0.20000
C 	C 	0.09775 0.27800 0.56510 0.07000
C 	C 	0.63446 0.89140 0.86612 0.07400
C 	C 	0.69687 0.88610 0.80554 -0.15900
C 	C 	0.73510 0.99290 0.79380 0.10500
C 	C 	0.70929 0.09950 0.84538 -0.20200
C 	C 	0.64474 0.09610 0.90288 -0.01200
C 	C 	0.21512 0.42160 0.38364 0.01400
C 	C 	0.09452 0.41940 0.32084 -0.08000
C 	C 	0.06958 0.50520 0.27216 -0.03600
C 	C 	0.17030 0.58750 0.28840 -0.11400
C 	C 	0.28812 0.58180 0.35144 0.00700
C 	C 	0.41463 0.25590 0.52566 0.00500
C 	C 	0.42207 0.14000 0.53494 -0.07600
C 	C 	0.49201 0.06160 0.49382 -0.07900
C 	C 	0.54509 0.10490 0.44118 -0.05400
C 	C 	0.53265 0.22200 0.43490 0.02600
C 	C 	0.76834 0.60860 0.13388 0.05700
C 	C 	0.89133 0.61390 0.19446 -0.18800
C 	C 	0.94130 0.50710 0.20620 0.09000
C 	C 	0.86391 0.40050 0.15462 -0.18300
C 	C 	0.74186 0.40390 0.09712 0.03200
N 	N 	0.08776 0.00200 0.39992 -0.27700
N 	N 	0.00765 0.79940 0.47810 -0.22000
N 	N 	0.39173 0.00590 0.08526 -0.32000
N 	N 	0.68784 0.49800 0.60008 -0.24500
N 	N 	0.52955 0.70060 0.52190 -0.24000
N 	N 	0.30647 0.49410 0.91474 -0.23600
N 	N 	0.91224 0.99800 0.60008 -0.19600
N 	N 	0.99235 0.20060 0.52190 -0.22100
N 	N 	0.60827 0.99410 0.91474 -0.20200
N 	N 	0.31216 0.50200 0.39992 -0.23300
N 	N 	0.47045 0.29940 0.47810 -0.21300
N 	N 	0.69353 0.50590 0.08526 -0.29300
O 	O 	0.82691 0.97287 0.40062 -0.69900
O 	O 	0.61463 0.82350 0.26606 -0.86700
O 	O 	0.66397 0.07160 0.26674 -0.91400
O 	O 	0.62182 0.13710 0.10184 -0.85200
O 	O 	0.42629 0.52713 0.59938 -0.74500
O 	O 	0.34857 0.67650 0.73394 -0.87300
O 	O 	0.39723 0.42840 0.73326 -0.88300
O 	O 	0.51998 0.36290 0.89816 -0.76500
O 	O 	0.17309 0.02713 0.59938 -0.78100
O 	O 	0.38537 0.17650 0.73394 -0.88600
O 	O 	0.33603 0.92840 0.73326 -0.85500
O 	O 	0.37818 0.86290 0.89816 -0.74300
O 	O 	0.57371 0.47287 0.40062 -0.74600
O 	O 	0.65143 0.32350 0.26606 -0.87900
O 	O 	0.60277 0.57160 0.26674 -0.89000
O 	O 	0.48002 0.63710 0.10184 -0.84200
