data_crystal

_cell_length_a 31.28000
_cell_length_b 14.73500
_cell_length_c 28.51000
_cell_angle_alpha 90.00000
_cell_angle_beta  120.13000
_cell_angle_gamma 90.00000

_symmetry_space_group_name_	'P 1'
_symmetry_space_group_name_H-M	'P 1'

loop_
_symmetry_equiv_pos_as_xyz
  x,y,z

loop_
_atom_site_label
_atom_site_type_symbol
_atom_site_fract_x
_atom_site_fract_y
_atom_site_fract_z
_atom_site_charge
Dy	Dy	0.23194 0.88217 0.51246 1.70100
C 	C 	0.19120 0.02870 0.12780 -0.18800
C 	C 	0.22660 0.03980 0.18440 0.24000
C 	C 	0.16800 0.98160 0.20770 0.06700
C 	C 	0.14560 0.99590 0.11300 0.03400
H 	H 	0.12280 0.98800 0.07630 0.03200
C 	C 	0.21610 0.01200 0.22380 -0.08500
C 	C 	0.13180 0.97390 0.15130 -0.04100
C 	C 	0.15220 0.95960 0.24580 -0.11700
H 	H 	0.17420 0.96560 0.28280 0.08700
C 	C 	0.10500 0.92990 0.22790 0.02000
H 	H 	0.09590 0.91430 0.25330 0.02700
C 	C 	0.07030 0.92230 0.17320 -0.07900
H 	H 	0.03840 0.90240 0.16230 0.06700
O 	O 	0.27090 0.07690 0.19960 -0.45000
H 	H 	0.26960 0.10410 0.17380 0.28800
C 	C 	0.08250 0.79260 0.32970 0.27300
H 	H 	0.99990 0.86730 0.27740 0.06900
C 	C 	0.16470 0.76230 0.41410 0.49700
C 	C 	0.05670 0.70680 0.24810 0.09300
C 	C 	0.04740 0.77360 0.27630 -0.11200
C 	C 	0.12640 0.74000 0.35710 -0.26400
C 	C 	0.13390 0.67050 0.33160 0.09100
H 	H 	0.16160 0.63380 0.35050 0.00000
C 	C 	0.09980 0.65230 0.27600 -0.06700
C 	C 	0.02540 0.69020 0.19190 -0.12900
H 	H 	0.99740 0.72580 0.17230 0.09200
C 	C 	0.03550 0.62340 0.16610 0.02900
H 	H 	0.01480 0.61480 0.12910 0.02200
C 	C 	0.07760 0.56600 0.19540 -0.08700
H 	H 	0.08340 0.51850 0.17790 0.06400
O 	O 	0.07330 0.86070 0.35490 -0.45300
H 	H 	0.09960 0.88210 0.37860 0.28300
C 	C 	0.30300 0.87110 0.30190 0.09200
C 	C 	0.31430 0.88640 0.26020 -0.14100
H 	H 	0.30400 0.93960 0.23990 0.10400
C 	C 	0.35620 0.74350 0.27780 -0.10300
H 	H 	0.37300 0.70080 0.26900 0.06700
C 	C 	0.32060 0.78960 0.33160 -0.06600
C 	C 	0.34730 0.72700 0.31890 0.00900
H 	H 	0.35890 0.67370 0.33890 0.03300
C 	C 	0.34090 0.82160 0.24970 0.04400
H 	H 	0.34830 0.83270 0.22240 0.01100
C 	C 	0.28820 0.83470 0.38930 -0.25500
C 	C 	0.26980 0.91550 0.35870 0.26500
C 	C 	0.27530 0.93340 0.31410 -0.09600
C 	C 	0.31270 0.77370 0.37540 0.08400
H 	H 	0.32450 0.72040 0.39530 0.01700
O 	O 	0.15910 0.83500 0.43410 -0.48900
O 	O 	0.24530 0.97750 0.37180 -0.45400
H 	H 	0.23840 0.95510 0.39350 0.26700
C 	C 	0.25490 0.02170 0.28260 -0.07200
H 	H 	0.24110 0.05710 0.30050 0.07600
H 	H 	0.28230 0.05610 0.28470 0.07900
C 	C 	0.28110 0.81400 0.43610 0.50500
C 	C 	0.20530 0.05070 0.08660 0.35000
O 	O 	0.24880 0.07820 0.10170 -0.44200
O 	O 	0.17380 0.04640 0.03650 -0.40200
O 	O 	0.25940 0.87170 0.44910 -0.52800
O 	O 	0.29690 0.73930 0.45940 -0.47300
O 	O 	0.20080 0.71130 0.43880 -0.53200
C 	C 	0.08310 0.94410 0.13610 -0.01600
H 	H 	0.05960 0.93970 0.09940 0.03900
C 	C 	0.10850 0.58100 0.24790 0.00000
H 	H 	0.13620 0.54430 0.26670 0.04100
Dy	Dy	0.73194 0.38217 0.51246 1.70200
C 	C 	0.69120 0.52870 0.12780 -0.18600
C 	C 	0.72660 0.53980 0.18440 0.24000
C 	C 	0.66800 0.48160 0.20770 0.06700
C 	C 	0.64560 0.49590 0.11300 0.03300
H 	H 	0.62280 0.48800 0.07630 0.03300
C 	C 	0.71610 0.51200 0.22380 -0.08300
C 	C 	0.63180 0.47390 0.15130 -0.03900
C 	C 	0.65220 0.45960 0.24580 -0.11500
H 	H 	0.67420 0.46560 0.28280 0.08800
C 	C 	0.60500 0.42990 0.22790 0.01900
H 	H 	0.59590 0.41430 0.25330 0.02700
C 	C 	0.57030 0.42230 0.17320 -0.07800
H 	H 	0.53840 0.40240 0.16230 0.06700
O 	O 	0.77090 0.57690 0.19960 -0.45000
H 	H 	0.76960 0.60410 0.17380 0.28700
C 	C 	0.58250 0.29260 0.32970 0.27300
H 	H 	0.49990 0.36730 0.27740 0.07100
C 	C 	0.66470 0.26230 0.41410 0.49700
C 	C 	0.55670 0.20680 0.24810 0.09400
C 	C 	0.54740 0.27360 0.27630 -0.11200
C 	C 	0.62640 0.24000 0.35710 -0.26400
C 	C 	0.63390 0.17050 0.33160 0.09100
H 	H 	0.66160 0.13380 0.35050 -0.00000
C 	C 	0.59980 0.15230 0.27600 -0.06800
C 	C 	0.52540 0.19020 0.19190 -0.13100
H 	H 	0.49740 0.22580 0.17230 0.09400
C 	C 	0.53550 0.12340 0.16610 0.03000
H 	H 	0.51480 0.11480 0.12910 0.02100
C 	C 	0.57760 0.06600 0.19540 -0.08800
H 	H 	0.58340 0.01850 0.17790 0.06400
O 	O 	0.57330 0.36070 0.35490 -0.45400
H 	H 	0.59960 0.38210 0.37860 0.28300
C 	C 	0.80300 0.37110 0.30190 0.09200
C 	C 	0.81430 0.38640 0.26020 -0.14100
H 	H 	0.80400 0.43960 0.23990 0.10400
C 	C 	0.85620 0.24350 0.27780 -0.10300
H 	H 	0.87300 0.20080 0.26900 0.06600
C 	C 	0.82060 0.28960 0.33160 -0.06600
C 	C 	0.84730 0.22700 0.31890 0.00900
H 	H 	0.85890 0.17370 0.33890 0.03300
C 	C 	0.84090 0.32160 0.24970 0.04400
H 	H 	0.84830 0.33270 0.22240 0.01100
C 	C 	0.78820 0.33470 0.38930 -0.25500
C 	C 	0.76980 0.41550 0.35870 0.26500
C 	C 	0.77530 0.43340 0.31410 -0.09600
C 	C 	0.81270 0.27370 0.37540 0.08400
H 	H 	0.82450 0.22040 0.39530 0.01700
O 	O 	0.65910 0.33500 0.43410 -0.48900
O 	O 	0.74530 0.47750 0.37180 -0.45400
H 	H 	0.73840 0.45510 0.39350 0.26700
C 	C 	0.75490 0.52170 0.28260 -0.07200
H 	H 	0.74110 0.55710 0.30050 0.07600
H 	H 	0.78230 0.55610 0.28470 0.07900
C 	C 	0.78110 0.31400 0.43610 0.50500
C 	C 	0.70530 0.55070 0.08660 0.34900
O 	O 	0.74880 0.57820 0.10170 -0.44200
O 	O 	0.67380 0.54640 0.03650 -0.40100
O 	O 	0.75940 0.37170 0.44910 -0.52800
O 	O 	0.79690 0.23930 0.45940 -0.47300
O 	O 	0.70080 0.21130 0.43880 -0.53200
C 	C 	0.58310 0.44410 0.13610 -0.01600
H 	H 	0.55960 0.43970 0.09940 0.03900
C 	C 	0.60850 0.08100 0.24790 0.00100
H 	H 	0.63620 0.04430 0.26670 0.04100
Dy	Dy	0.76806 0.88217 0.98754 1.70200
C 	C 	0.80880 0.02870 0.37220 -0.18700
C 	C 	0.77340 0.03980 0.31560 0.24100
C 	C 	0.83200 0.98160 0.29230 0.06800
C 	C 	0.85440 0.99590 0.38700 0.03400
H 	H 	0.87720 0.98800 0.42370 0.03200
C 	C 	0.78390 0.01200 0.27620 -0.08400
C 	C 	0.86820 0.97390 0.34870 -0.04000
C 	C 	0.84780 0.95960 0.25420 -0.11500
H 	H 	0.82580 0.96560 0.21720 0.08800
C 	C 	0.89500 0.92990 0.27210 0.02000
H 	H 	0.90410 0.91430 0.24670 0.02700
C 	C 	0.92970 0.92230 0.32680 -0.07900
H 	H 	0.96160 0.90240 0.33770 0.06700
O 	O 	0.72910 0.07690 0.30040 -0.45000
H 	H 	0.73040 0.10410 0.32620 0.28800
C 	C 	0.91750 0.79260 0.17030 0.27400
H 	H 	0.00010 0.86730 0.22260 0.07000
C 	C 	0.83530 0.76230 0.08590 0.49800
C 	C 	0.94330 0.70680 0.25190 0.09600
C 	C 	0.95260 0.77360 0.22370 -0.11400
C 	C 	0.87360 0.74000 0.14290 -0.26500
C 	C 	0.86610 0.67050 0.16840 0.09300
H 	H 	0.83840 0.63380 0.14950 -0.00000
C 	C 	0.90020 0.65230 0.22400 -0.06900
C 	C 	0.97460 0.69020 0.30810 -0.13600
H 	H 	0.00260 0.72580 0.32770 0.09600
C 	C 	0.96450 0.62340 0.33390 0.03300
H 	H 	0.98520 0.61480 0.37090 0.01900
C 	C 	0.92240 0.56600 0.30460 -0.09100
H 	H 	0.91660 0.51850 0.32210 0.06500
O 	O 	0.92670 0.86070 0.14510 -0.45400
H 	H 	0.90040 0.88210 0.12140 0.28300
C 	C 	0.69700 0.87110 0.19810 0.09200
C 	C 	0.68570 0.88640 0.23980 -0.14100
H 	H 	0.69600 0.93960 0.26010 0.10400
C 	C 	0.64380 0.74350 0.22220 -0.10300
H 	H 	0.62700 0.70080 0.23100 0.06600
C 	C 	0.67940 0.78960 0.16840 -0.06600
C 	C 	0.65270 0.72700 0.18110 0.00900
H 	H 	0.64110 0.67370 0.16110 0.03300
C 	C 	0.65910 0.82160 0.25030 0.04400
H 	H 	0.65170 0.83270 0.27760 0.01100
C 	C 	0.71180 0.83470 0.11070 -0.25500
C 	C 	0.73020 0.91550 0.14130 0.26500
C 	C 	0.72470 0.93340 0.18590 -0.09500
C 	C 	0.68730 0.77370 0.12460 0.08300
H 	H 	0.67550 0.72040 0.10470 0.01800
O 	O 	0.84090 0.83500 0.06590 -0.48900
O 	O 	0.75470 0.97750 0.12820 -0.45400
H 	H 	0.76160 0.95510 0.10650 0.26700
C 	C 	0.74510 0.02170 0.21740 -0.07300
H 	H 	0.75890 0.05710 0.19950 0.07600
H 	H 	0.71770 0.05610 0.21530 0.07900
C 	C 	0.71890 0.81400 0.06390 0.50500
C 	C 	0.79470 0.05070 0.41340 0.35000
O 	O 	0.75120 0.07820 0.39830 -0.44200
O 	O 	0.82620 0.04640 0.46350 -0.40200
O 	O 	0.74060 0.87170 0.05090 -0.52800
O 	O 	0.70310 0.73930 0.04060 -0.47300
O 	O 	0.79920 0.71130 0.06120 -0.53200
C 	C 	0.91690 0.94410 0.36390 -0.01600
H 	H 	0.94040 0.93970 0.40060 0.03900
C 	C 	0.89150 0.58100 0.25210 0.00300
H 	H 	0.86380 0.54430 0.23330 0.04000
Dy	Dy	0.26806 0.38217 0.98754 1.70400
C 	C 	0.30880 0.52870 0.37220 -0.18600
C 	C 	0.27340 0.53980 0.31560 0.24000
C 	C 	0.33200 0.48160 0.29230 0.06700
C 	C 	0.35440 0.49590 0.38700 0.03300
H 	H 	0.37720 0.48800 0.42370 0.03300
C 	C 	0.28390 0.51200 0.27620 -0.08300
C 	C 	0.36820 0.47390 0.34870 -0.03900
C 	C 	0.34780 0.45960 0.25420 -0.11500
H 	H 	0.32580 0.46560 0.21720 0.08800
C 	C 	0.39500 0.42990 0.27210 0.01900
H 	H 	0.40410 0.41430 0.24670 0.02700
C 	C 	0.42970 0.42230 0.32680 -0.07800
H 	H 	0.46160 0.40240 0.33770 0.06700
O 	O 	0.22910 0.57690 0.30040 -0.45000
H 	H 	0.23040 0.60410 0.32620 0.28700
C 	C 	0.41750 0.29260 0.17030 0.27300
H 	H 	0.50010 0.36730 0.22260 0.07100
C 	C 	0.33530 0.26230 0.08590 0.49700
C 	C 	0.44330 0.20680 0.25190 0.09400
C 	C 	0.45260 0.27360 0.22370 -0.11200
C 	C 	0.37360 0.24000 0.14290 -0.26400
C 	C 	0.36610 0.17050 0.16840 0.09100
H 	H 	0.33840 0.13380 0.14950 -0.00000
C 	C 	0.40020 0.15230 0.22400 -0.06800
C 	C 	0.47460 0.19020 0.30810 -0.13100
H 	H 	0.50260 0.22580 0.32770 0.09400
C 	C 	0.46450 0.12340 0.33390 0.03000
H 	H 	0.48520 0.11480 0.37090 0.02100
C 	C 	0.42240 0.06600 0.30460 -0.08800
H 	H 	0.41660 0.01850 0.32210 0.06400
O 	O 	0.42670 0.36070 0.14510 -0.45400
H 	H 	0.40040 0.38210 0.12140 0.28300
C 	C 	0.19700 0.37110 0.19810 0.09200
C 	C 	0.18570 0.38640 0.23980 -0.14100
H 	H 	0.19600 0.43960 0.26010 0.10400
C 	C 	0.14380 0.24350 0.22220 -0.10300
H 	H 	0.12700 0.20080 0.23100 0.06600
C 	C 	0.17940 0.28960 0.16840 -0.06600
C 	C 	0.15270 0.22700 0.18110 0.00900
H 	H 	0.14110 0.17370 0.16110 0.03300
C 	C 	0.15910 0.32160 0.25030 0.04400
H 	H 	0.15170 0.33270 0.27760 0.01100
C 	C 	0.21180 0.33470 0.11070 -0.25500
C 	C 	0.23020 0.41550 0.14130 0.26500
C 	C 	0.22470 0.43340 0.18590 -0.09600
C 	C 	0.18730 0.27370 0.12460 0.08400
H 	H 	0.17550 0.22040 0.10470 0.01700
O 	O 	0.34090 0.33500 0.06590 -0.49000
O 	O 	0.25470 0.47750 0.12820 -0.45400
H 	H 	0.26160 0.45510 0.10650 0.26700
C 	C 	0.24510 0.52170 0.21740 -0.07300
H 	H 	0.25890 0.55710 0.19950 0.07700
H 	H 	0.21770 0.55610 0.21530 0.07900
C 	C 	0.21890 0.31400 0.06390 0.50500
C 	C 	0.29470 0.55070 0.41340 0.35000
O 	O 	0.25120 0.57820 0.39830 -0.44200
O 	O 	0.32620 0.54640 0.46350 -0.40100
O 	O 	0.24060 0.37170 0.05090 -0.52800
O 	O 	0.20310 0.23930 0.04060 -0.47300
O 	O 	0.29920 0.21130 0.06120 -0.53200
C 	C 	0.41690 0.44410 0.36390 -0.01600
H 	H 	0.44040 0.43970 0.40060 0.03900
C 	C 	0.39150 0.08100 0.25210 0.00100
H 	H 	0.36380 0.04430 0.23330 0.04100
Dy	Dy	0.76806 0.11783 0.48754 1.70200
C 	C 	0.80880 0.97130 0.87220 -0.18700
C 	C 	0.77340 0.96020 0.81560 0.24100
C 	C 	0.83200 0.01840 0.79230 0.06800
C 	C 	0.85440 0.00410 0.88700 0.03500
H 	H 	0.87720 0.01200 0.92370 0.03300
C 	C 	0.78390 0.98800 0.77620 -0.08400
C 	C 	0.86820 0.02610 0.84870 -0.04000
C 	C 	0.84780 0.04040 0.75420 -0.11600
H 	H 	0.82580 0.03440 0.71720 0.08800
C 	C 	0.89500 0.07010 0.77210 0.02000
H 	H 	0.90410 0.08570 0.74670 0.02700
C 	C 	0.92970 0.07770 0.82680 -0.07900
H 	H 	0.96160 0.09760 0.83770 0.06700
O 	O 	0.72910 0.92310 0.80040 -0.45000
H 	H 	0.73040 0.89590 0.82620 0.28800
C 	C 	0.91750 0.20740 0.67030 0.27500
H 	H 	0.00010 0.13270 0.72260 0.07000
C 	C 	0.83530 0.23770 0.58590 0.49800
C 	C 	0.94330 0.29320 0.75190 0.09700
C 	C 	0.95260 0.22640 0.72370 -0.11500
C 	C 	0.87360 0.26000 0.64290 -0.26500
C 	C 	0.86610 0.32950 0.66840 0.09300
H 	H 	0.83840 0.36620 0.64950 -0.00100
C 	C 	0.90020 0.34770 0.72400 -0.07000
C 	C 	0.97460 0.30980 0.80810 -0.13700
H 	H 	0.00260 0.27420 0.82770 0.09600
C 	C 	0.96450 0.37660 0.83390 0.03400
H 	H 	0.98520 0.38520 0.87090 0.01900
C 	C 	0.92240 0.43400 0.80460 -0.09100
H 	H 	0.91660 0.48150 0.82210 0.06500
O 	O 	0.92670 0.13930 0.64510 -0.45400
H 	H 	0.90040 0.11790 0.62140 0.28300
C 	C 	0.69700 0.12890 0.69810 0.09200
C 	C 	0.68570 0.11360 0.73980 -0.14100
H 	H 	0.69600 0.06040 0.76010 0.10400
C 	C 	0.64380 0.25650 0.72220 -0.10300
H 	H 	0.62700 0.29920 0.73100 0.06700
C 	C 	0.67940 0.21040 0.66840 -0.06600
C 	C 	0.65270 0.27300 0.68110 0.00900
H 	H 	0.64110 0.32630 0.66110 0.03300
C 	C 	0.65910 0.17840 0.75030 0.04400
H 	H 	0.65170 0.16730 0.77760 0.01100
C 	C 	0.71180 0.16530 0.61070 -0.25500
C 	C 	0.73020 0.08450 0.64130 0.26500
C 	C 	0.72470 0.06660 0.68590 -0.09600
C 	C 	0.68730 0.22630 0.62460 0.08400
H 	H 	0.67550 0.27960 0.60470 0.01700
O 	O 	0.84090 0.16500 0.56590 -0.49000
O 	O 	0.75470 0.02250 0.62820 -0.45400
H 	H 	0.76160 0.04490 0.60650 0.26700
C 	C 	0.74510 0.97830 0.71740 -0.07200
H 	H 	0.75890 0.94290 0.69950 0.07600
H 	H 	0.71770 0.94390 0.71530 0.07900
C 	C 	0.71890 0.18600 0.56390 0.50500
C 	C 	0.79470 0.94930 0.91340 0.35000
O 	O 	0.75120 0.92180 0.89830 -0.44200
O 	O 	0.82620 0.95360 0.96350 -0.40200
O 	O 	0.74060 0.12830 0.55090 -0.52800
O 	O 	0.70310 0.26070 0.54060 -0.47300
O 	O 	0.79920 0.28870 0.56120 -0.53200
C 	C 	0.91690 0.05590 0.86390 -0.01600
H 	H 	0.94040 0.06030 0.90060 0.03900
C 	C 	0.89150 0.41900 0.75210 0.00400
H 	H 	0.86380 0.45570 0.73330 0.04000
Dy	Dy	0.26806 0.61783 0.48754 1.70200
C 	C 	0.30880 0.47130 0.87220 -0.18600
C 	C 	0.27340 0.46020 0.81560 0.24000
C 	C 	0.33200 0.51840 0.79230 0.06700
C 	C 	0.35440 0.50410 0.88700 0.03300
H 	H 	0.37720 0.51200 0.92370 0.03300
C 	C 	0.28390 0.48800 0.77620 -0.08300
C 	C 	0.36820 0.52610 0.84870 -0.03900
C 	C 	0.34780 0.54040 0.75420 -0.11500
H 	H 	0.32580 0.53440 0.71720 0.08800
C 	C 	0.39500 0.57010 0.77210 0.01900
H 	H 	0.40410 0.58570 0.74670 0.02700
C 	C 	0.42970 0.57770 0.82680 -0.07800
H 	H 	0.46160 0.59760 0.83770 0.06700
O 	O 	0.22910 0.42310 0.80040 -0.45000
H 	H 	0.23040 0.39590 0.82620 0.28700
C 	C 	0.41750 0.70740 0.67030 0.27300
H 	H 	0.50010 0.63270 0.72260 0.07100
C 	C 	0.33530 0.73770 0.58590 0.49700
C 	C 	0.44330 0.79320 0.75190 0.09400
C 	C 	0.45260 0.72640 0.72370 -0.11200
C 	C 	0.37360 0.76000 0.64290 -0.26400
C 	C 	0.36610 0.82950 0.66840 0.09100
H 	H 	0.33840 0.86620 0.64950 -0.00000
C 	C 	0.40020 0.84770 0.72400 -0.06800
C 	C 	0.47460 0.80980 0.80810 -0.13100
H 	H 	0.50260 0.77420 0.82770 0.09400
C 	C 	0.46450 0.87660 0.83390 0.03000
H 	H 	0.48520 0.88520 0.87090 0.02100
C 	C 	0.42240 0.93400 0.80460 -0.08800
H 	H 	0.41660 0.98150 0.82210 0.06400
O 	O 	0.42670 0.63930 0.64510 -0.45400
H 	H 	0.40040 0.61790 0.62140 0.28300
C 	C 	0.19700 0.62890 0.69810 0.09200
C 	C 	0.18570 0.61360 0.73980 -0.14100
H 	H 	0.19600 0.56040 0.76010 0.10400
C 	C 	0.14380 0.75650 0.72220 -0.10300
H 	H 	0.12700 0.79920 0.73100 0.06600
C 	C 	0.17940 0.71040 0.66840 -0.06600
C 	C 	0.15270 0.77300 0.68110 0.00900
H 	H 	0.14110 0.82630 0.66110 0.03300
C 	C 	0.15910 0.67840 0.75030 0.04400
H 	H 	0.15170 0.66730 0.77760 0.01100
C 	C 	0.21180 0.66530 0.61070 -0.25500
C 	C 	0.23020 0.58450 0.64130 0.26500
C 	C 	0.22470 0.56660 0.68590 -0.09600
C 	C 	0.18730 0.72630 0.62460 0.08400
H 	H 	0.17550 0.77960 0.60470 0.01700
O 	O 	0.34090 0.66500 0.56590 -0.48900
O 	O 	0.25470 0.52250 0.62820 -0.45400
H 	H 	0.26160 0.54490 0.60650 0.26700
C 	C 	0.24510 0.47830 0.71740 -0.07300
H 	H 	0.25890 0.44290 0.69950 0.07700
H 	H 	0.21770 0.44390 0.71530 0.07900
C 	C 	0.21890 0.68600 0.56390 0.50500
C 	C 	0.29470 0.44930 0.91340 0.34900
O 	O 	0.25120 0.42180 0.89830 -0.44200
O 	O 	0.32620 0.45360 0.96350 -0.40100
O 	O 	0.24060 0.62830 0.55090 -0.52800
O 	O 	0.20310 0.76070 0.54060 -0.47300
O 	O 	0.29920 0.78870 0.56120 -0.53200
C 	C 	0.41690 0.55590 0.86390 -0.01600
H 	H 	0.44040 0.56030 0.90060 0.03900
C 	C 	0.39150 0.91900 0.75210 0.00100
H 	H 	0.36380 0.95570 0.73330 0.04100
Dy	Dy	0.23194 0.11783 0.01246 1.70200
C 	C 	0.19120 0.97130 0.62780 -0.18600
C 	C 	0.22660 0.96020 0.68440 0.24100
C 	C 	0.16800 0.01840 0.70770 0.06800
C 	C 	0.14560 0.00410 0.61300 0.03400
H 	H 	0.12280 0.01200 0.57630 0.03300
C 	C 	0.21610 0.98800 0.72380 -0.08400
C 	C 	0.13180 0.02610 0.65130 -0.03900
C 	C 	0.15220 0.04040 0.74580 -0.11500
H 	H 	0.17420 0.03440 0.78280 0.08800
C 	C 	0.10500 0.07010 0.72790 0.02000
H 	H 	0.09590 0.08570 0.75330 0.02700
C 	C 	0.07030 0.07770 0.67320 -0.07900
H 	H 	0.03840 0.09760 0.66230 0.06700
O 	O 	0.27090 0.92310 0.69960 -0.45000
H 	H 	0.26960 0.89590 0.67380 0.28800
C 	C 	0.08250 0.20740 0.82970 0.27300
H 	H 	0.99990 0.13270 0.77740 0.06800
C 	C 	0.16470 0.23770 0.91410 0.49700
C 	C 	0.05670 0.29320 0.74810 0.09300
C 	C 	0.04740 0.22640 0.77630 -0.11200
C 	C 	0.12640 0.26000 0.85710 -0.26400
C 	C 	0.13390 0.32950 0.83160 0.09100
H 	H 	0.16160 0.36620 0.85050 0.00000
C 	C 	0.09980 0.34770 0.77600 -0.06700
C 	C 	0.02540 0.30980 0.69190 -0.12800
H 	H 	0.99740 0.27420 0.67230 0.09200
C 	C 	0.03550 0.37660 0.66610 0.02800
H 	H 	0.01480 0.38520 0.62910 0.02200
C 	C 	0.07760 0.43400 0.69540 -0.08600
H 	H 	0.08340 0.48150 0.67790 0.06400
O 	O 	0.07330 0.13930 0.85490 -0.45300
H 	H 	0.09960 0.11790 0.87860 0.28300
C 	C 	0.30300 0.12890 0.80190 0.09200
C 	C 	0.31430 0.11360 0.76020 -0.14100
H 	H 	0.30400 0.06040 0.73990 0.10400
C 	C 	0.35620 0.25650 0.77780 -0.10300
H 	H 	0.37300 0.29920 0.76900 0.06600
C 	C 	0.32060 0.21040 0.83160 -0.06600
C 	C 	0.34730 0.27300 0.81890 0.00900
H 	H 	0.35890 0.32630 0.83890 0.03300
C 	C 	0.34090 0.17840 0.74970 0.04400
H 	H 	0.34830 0.16730 0.72240 0.01100
C 	C 	0.28820 0.16530 0.88930 -0.25500
C 	C 	0.26980 0.08450 0.85870 0.26500
C 	C 	0.27530 0.06660 0.81410 -0.09500
C 	C 	0.31270 0.22630 0.87540 0.08300
H 	H 	0.32450 0.27960 0.89530 0.01800
O 	O 	0.15910 0.16500 0.93410 -0.48900
O 	O 	0.24530 0.02250 0.87180 -0.45400
H 	H 	0.23840 0.04490 0.89350 0.26700
C 	C 	0.25490 0.97830 0.78260 -0.07300
H 	H 	0.24110 0.94290 0.80050 0.07600
H 	H 	0.28230 0.94390 0.78470 0.07900
C 	C 	0.28110 0.18600 0.93610 0.50500
C 	C 	0.20530 0.94930 0.58660 0.35000
O 	O 	0.24880 0.92180 0.60170 -0.44200
O 	O 	0.17380 0.95360 0.53650 -0.40200
O 	O 	0.25940 0.12830 0.94910 -0.52800
O 	O 	0.29690 0.26070 0.95940 -0.47300
O 	O 	0.20080 0.28870 0.93880 -0.53200
C 	C 	0.08310 0.05590 0.63610 -0.01600
H 	H 	0.05960 0.06030 0.59940 0.03900
C 	C 	0.10850 0.41900 0.74790 0.00000
H 	H 	0.13620 0.45570 0.76670 0.04100
Dy	Dy	0.73194 0.61783 0.01246 1.70400
C 	C 	0.69120 0.47130 0.62780 -0.18600
C 	C 	0.72660 0.46020 0.68440 0.24000
C 	C 	0.66800 0.51840 0.70770 0.06700
C 	C 	0.64560 0.50410 0.61300 0.03300
H 	H 	0.62280 0.51200 0.57630 0.03300
C 	C 	0.71610 0.48800 0.72380 -0.08300
C 	C 	0.63180 0.52610 0.65130 -0.03900
C 	C 	0.65220 0.54040 0.74580 -0.11500
H 	H 	0.67420 0.53440 0.78280 0.08800
C 	C 	0.60500 0.57010 0.72790 0.01900
H 	H 	0.59590 0.58570 0.75330 0.02700
C 	C 	0.57030 0.57770 0.67320 -0.07800
H 	H 	0.53840 0.59760 0.66230 0.06700
O 	O 	0.77090 0.42310 0.69960 -0.45000
H 	H 	0.76960 0.39590 0.67380 0.28700
C 	C 	0.58250 0.70740 0.82970 0.27300
H 	H 	0.49990 0.63270 0.77740 0.07100
C 	C 	0.66470 0.73770 0.91410 0.49700
C 	C 	0.55670 0.79320 0.74810 0.09400
C 	C 	0.54740 0.72640 0.77630 -0.11200
C 	C 	0.62640 0.76000 0.85710 -0.26400
C 	C 	0.63390 0.82950 0.83160 0.09100
H 	H 	0.66160 0.86620 0.85050 -0.00000
C 	C 	0.59980 0.84770 0.77600 -0.06800
C 	C 	0.52540 0.80980 0.69190 -0.13100
H 	H 	0.49740 0.77420 0.67230 0.09400
C 	C 	0.53550 0.87660 0.66610 0.03000
H 	H 	0.51480 0.88520 0.62910 0.02100
C 	C 	0.57760 0.93400 0.69540 -0.08800
H 	H 	0.58340 0.98150 0.67790 0.06400
O 	O 	0.57330 0.63930 0.85490 -0.45400
H 	H 	0.59960 0.61790 0.87860 0.28300
C 	C 	0.80300 0.62890 0.80190 0.09200
C 	C 	0.81430 0.61360 0.76020 -0.14100
H 	H 	0.80400 0.56040 0.73990 0.10400
C 	C 	0.85620 0.75650 0.77780 -0.10300
H 	H 	0.87300 0.79920 0.76900 0.06600
C 	C 	0.82060 0.71040 0.83160 -0.06600
C 	C 	0.84730 0.77300 0.81890 0.00900
H 	H 	0.85890 0.82630 0.83890 0.03200
C 	C 	0.84090 0.67840 0.74970 0.04400
H 	H 	0.84830 0.66730 0.72240 0.01100
C 	C 	0.78820 0.66530 0.88930 -0.25500
C 	C 	0.76980 0.58450 0.85870 0.26500
C 	C 	0.77530 0.56660 0.81410 -0.09600
C 	C 	0.81270 0.72630 0.87540 0.08400
H 	H 	0.82450 0.77960 0.89530 0.01700
O 	O 	0.65910 0.66500 0.93410 -0.48900
O 	O 	0.74530 0.52250 0.87180 -0.45400
H 	H 	0.73840 0.54490 0.89350 0.26700
C 	C 	0.75490 0.47830 0.78260 -0.07200
H 	H 	0.74110 0.44290 0.80050 0.07700
H 	H 	0.78230 0.44390 0.78470 0.07900
C 	C 	0.78110 0.68600 0.93610 0.50500
C 	C 	0.70530 0.44930 0.58660 0.35000
O 	O 	0.74880 0.42180 0.60170 -0.44200
O 	O 	0.67380 0.45360 0.53650 -0.40100
O 	O 	0.75940 0.62830 0.94910 -0.52800
O 	O 	0.79690 0.76070 0.95940 -0.47300
O 	O 	0.70080 0.78870 0.93880 -0.53200
C 	C 	0.58310 0.55590 0.63610 -0.01600
H 	H 	0.55960 0.56030 0.59940 0.03900
C 	C 	0.60850 0.91900 0.74790 0.00100
H 	H 	0.63620 0.95570 0.76670 0.04100
C 	C 	0.00000 0.82830 0.25000 -0.05100
C 	C 	0.50000 0.32830 0.25000 -0.05500
C 	C 	0.00000 0.17170 0.75000 -0.05000
C 	C 	0.50000 0.67170 0.75000 -0.05500
