data_crystal

_cell_length_a 13.52900
_cell_length_b 32.89600
_cell_length_c 39.78500
_cell_angle_alpha 90.00000
_cell_angle_beta  90.00000
_cell_angle_gamma 90.00000

_symmetry_space_group_name_	'P 1'
_symmetry_space_group_name_H-M	'P 1'

loop_
_symmetry_equiv_pos_as_xyz
  x,y,z

loop_
_atom_site_label
_atom_site_type_symbol
_atom_site_fract_x
_atom_site_fract_y
_atom_site_fract_z
_atom_site_charge
Cd	Cd	0.00907 0.69450 0.26054 1.24300
N 	N 	0.23490 0.69912 0.28652 -0.02900
N 	N 	0.01170 0.66765 0.20671 -0.22200
O 	O 	0.09790 0.75518 0.25421 -0.50600
O 	O 	0.20310 0.80314 0.26396 -0.31200
O 	O 	0.17630 0.67984 0.26554 -0.25900
O 	O 	0.30500 0.61407 0.27843 -0.36700
O 	O 	0.24020 0.54339 0.31663 -0.37900
C 	C 	0.17720 0.76830 0.26667 0.36600
C 	C 	0.24190 0.74070 0.28755 -0.05100
C 	C 	0.30950 0.75880 0.30900 -0.01500
H 	H 	0.31580 0.78690 0.30900 0.05500
C 	C 	0.36750 0.73590 0.33010 -0.04400
H 	H 	0.41200 0.74820 0.34480 0.04700
C 	C 	0.35760 0.69420 0.32890 -0.03000
H 	H 	0.39690 0.67830 0.34280 0.04100
C 	C 	0.29180 0.67560 0.30788 -0.01500
C 	C 	0.27990 0.63050 0.30623 0.27100
C 	C 	0.25030 0.61170 0.33528 -0.35600
H 	H 	0.23930 0.62820 0.35390 0.15400
C 	C 	0.23480 0.56960 0.33965 0.28500
C 	C 	0.21040 0.55370 0.37355 -0.09300
C 	C 	0.24570 0.57260 0.40220 0.02100
H 	H 	0.28100 0.59670 0.40030 0.02500
C 	C 	0.01800 0.69100 0.17949 0.07700
H 	H 	0.02450 0.71900 0.18230 0.00200
C 	C 	0.01510 0.67540 0.14716 -0.12700
H 	H 	0.02180 0.69270 0.12880 0.07900
C 	C 	0.00220 0.63400 0.14215 0.05600
C 	C 	0.99450 0.61010 0.17100 -0.11900
H 	H 	0.98550 0.58220 0.16910 0.07600
C 	C 	0.00010 0.62770 0.20234 0.07000
H 	H 	0.99570 0.61110 0.22120 0.02000
C 	C 	0.17110 0.52240 0.43690 0.00900
H 	H 	0.15670 0.51260 0.45830 0.04100
C 	C 	0.15340 0.51870 0.37640 0.01200
H 	H 	0.12880 0.50620 0.35720 0.04000
C 	C 	0.13290 0.50230 0.40830 -0.08300
H 	H 	0.09510 0.47880 0.41050 0.06100
C 	C 	0.22950 0.55620 0.43330 -0.08700
H 	H 	0.25820 0.56800 0.45210 0.08000
Cd	Cd	0.00907 0.19450 0.76054 1.24300
N 	N 	0.23490 0.19912 0.78652 -0.02900
N 	N 	0.01170 0.16765 0.70671 -0.22100
O 	O 	0.09790 0.25518 0.75421 -0.50600
O 	O 	0.20310 0.30314 0.76396 -0.31200
O 	O 	0.17630 0.17984 0.76554 -0.25900
O 	O 	0.30500 0.11407 0.77843 -0.36700
O 	O 	0.24020 0.04339 0.81663 -0.37900
C 	C 	0.17720 0.26830 0.76667 0.36600
C 	C 	0.24190 0.24070 0.78755 -0.05100
C 	C 	0.30950 0.25880 0.80900 -0.01500
H 	H 	0.31580 0.28690 0.80900 0.05500
C 	C 	0.36750 0.23590 0.83010 -0.04400
H 	H 	0.41200 0.24820 0.84480 0.04700
C 	C 	0.35760 0.19420 0.82890 -0.03000
H 	H 	0.39690 0.17830 0.84280 0.04100
C 	C 	0.29180 0.17560 0.80788 -0.01500
C 	C 	0.27990 0.13050 0.80623 0.27100
C 	C 	0.25030 0.11170 0.83528 -0.35600
H 	H 	0.23930 0.12820 0.85390 0.15400
C 	C 	0.23480 0.06960 0.83965 0.28600
C 	C 	0.21040 0.05370 0.87355 -0.09300
C 	C 	0.24570 0.07260 0.90220 0.02200
H 	H 	0.28100 0.09670 0.90030 0.02400
C 	C 	0.01800 0.19100 0.67949 0.07600
H 	H 	0.02450 0.21900 0.68230 0.00200
C 	C 	0.01510 0.17540 0.64716 -0.12700
H 	H 	0.02180 0.19270 0.62880 0.07900
C 	C 	0.00220 0.13400 0.64215 0.05500
C 	C 	0.99450 0.11010 0.67100 -0.11700
H 	H 	0.98550 0.08220 0.66910 0.07600
C 	C 	0.00010 0.12770 0.70234 0.06700
H 	H 	0.99570 0.11110 0.72120 0.02100
C 	C 	0.17110 0.02240 0.93690 0.01100
H 	H 	0.15670 0.01260 0.95830 0.04000
C 	C 	0.15340 0.01870 0.87640 0.01400
H 	H 	0.12880 0.00620 0.85720 0.04000
C 	C 	0.13290 0.00230 0.90830 -0.08500
H 	H 	0.09510 0.97880 0.91050 0.06200
C 	C 	0.22950 0.05620 0.93330 -0.08800
H 	H 	0.25820 0.06800 0.95210 0.08000
Cd	Cd	0.50907 0.69450 0.76054 1.24300
N 	N 	0.73490 0.69912 0.78652 -0.02900
N 	N 	0.51170 0.66765 0.70671 -0.22200
O 	O 	0.59790 0.75518 0.75421 -0.50600
O 	O 	0.70310 0.80314 0.76396 -0.31200
O 	O 	0.67630 0.67984 0.76554 -0.25900
O 	O 	0.80500 0.61407 0.77843 -0.36700
O 	O 	0.74020 0.54339 0.81663 -0.37900
C 	C 	0.67720 0.76830 0.76667 0.36600
C 	C 	0.74190 0.74070 0.78755 -0.05100
C 	C 	0.80950 0.75880 0.80900 -0.01500
H 	H 	0.81580 0.78690 0.80900 0.05500
C 	C 	0.86750 0.73590 0.83010 -0.04400
H 	H 	0.91200 0.74820 0.84480 0.04700
C 	C 	0.85760 0.69420 0.82890 -0.03000
H 	H 	0.89690 0.67830 0.84280 0.04100
C 	C 	0.79180 0.67560 0.80788 -0.01500
C 	C 	0.77990 0.63050 0.80623 0.27100
C 	C 	0.75030 0.61170 0.83528 -0.35600
H 	H 	0.73930 0.62820 0.85390 0.15400
C 	C 	0.73480 0.56960 0.83965 0.28500
C 	C 	0.71040 0.55370 0.87355 -0.09300
C 	C 	0.74570 0.57260 0.90220 0.02100
H 	H 	0.78100 0.59670 0.90030 0.02500
C 	C 	0.51800 0.69100 0.67949 0.07600
H 	H 	0.52450 0.71900 0.68230 0.00200
C 	C 	0.51510 0.67540 0.64716 -0.12800
H 	H 	0.52180 0.69270 0.62880 0.07900
C 	C 	0.50220 0.63400 0.64215 0.05600
C 	C 	0.49450 0.61010 0.67100 -0.11900
H 	H 	0.48550 0.58220 0.66910 0.07600
C 	C 	0.50010 0.62770 0.70234 0.07000
H 	H 	0.49570 0.61110 0.72120 0.02000
C 	C 	0.67110 0.52240 0.93690 0.00900
H 	H 	0.65670 0.51260 0.95830 0.04100
C 	C 	0.65340 0.51870 0.87640 0.01200
H 	H 	0.62880 0.50620 0.85720 0.04000
C 	C 	0.63290 0.50230 0.90830 -0.08300
H 	H 	0.59510 0.47880 0.91050 0.06100
C 	C 	0.72950 0.55620 0.93330 -0.08700
H 	H 	0.75820 0.56800 0.95210 0.08000
Cd	Cd	0.50907 0.19450 0.26054 1.24300
N 	N 	0.73490 0.19912 0.28652 -0.02900
N 	N 	0.51170 0.16765 0.20671 -0.22200
O 	O 	0.59790 0.25518 0.25421 -0.50600
O 	O 	0.70310 0.30314 0.26396 -0.31200
O 	O 	0.67630 0.17984 0.26554 -0.25900
O 	O 	0.80500 0.11407 0.27843 -0.36600
O 	O 	0.74020 0.04339 0.31663 -0.38000
C 	C 	0.67720 0.26830 0.26667 0.36500
C 	C 	0.74190 0.24070 0.28755 -0.05200
C 	C 	0.80950 0.25880 0.30900 -0.01600
H 	H 	0.81580 0.28690 0.30900 0.05400
C 	C 	0.86750 0.23590 0.33010 -0.04500
H 	H 	0.91200 0.24820 0.34480 0.04600
C 	C 	0.85760 0.19420 0.32890 -0.03100
H 	H 	0.89690 0.17830 0.34280 0.04000
C 	C 	0.79180 0.17560 0.30788 -0.01600
C 	C 	0.77990 0.13050 0.30623 0.27000
C 	C 	0.75030 0.11170 0.33528 -0.35700
H 	H 	0.73930 0.12820 0.35390 0.15300
C 	C 	0.73480 0.06960 0.33965 0.28400
C 	C 	0.71040 0.05370 0.37355 -0.09300
C 	C 	0.74570 0.07260 0.40220 0.01900
H 	H 	0.78100 0.09670 0.40030 0.02400
C 	C 	0.51800 0.19100 0.17949 0.07500
H 	H 	0.52450 0.21900 0.18230 0.00100
C 	C 	0.51510 0.17540 0.14716 -0.12900
H 	H 	0.52180 0.19270 0.12880 0.07800
C 	C 	0.50220 0.13400 0.14215 0.05500
C 	C 	0.49450 0.11010 0.17100 -0.12000
H 	H 	0.48550 0.08220 0.16910 0.07500
C 	C 	0.50010 0.12770 0.20234 0.06900
H 	H 	0.49570 0.11110 0.22120 0.01900
C 	C 	0.67110 0.02240 0.43690 0.00800
H 	H 	0.65670 0.01260 0.45830 0.04000
C 	C 	0.65340 0.01870 0.37640 0.01100
H 	H 	0.62880 0.00620 0.35720 0.03900
C 	C 	0.63290 0.00230 0.40830 -0.08300
H 	H 	0.59510 0.97880 0.41050 0.06000
C 	C 	0.72950 0.05620 0.43330 -0.08700
H 	H 	0.75820 0.06800 0.45210 0.07900
Cd	Cd	0.74093 0.05550 0.26054 1.24200
N 	N 	0.51510 0.05088 0.28652 -0.03000
N 	N 	0.73830 0.08235 0.20671 -0.22300
O 	O 	0.65210 0.99482 0.25421 -0.50800
O 	O 	0.54690 0.94686 0.26396 -0.31300
O 	O 	0.57370 0.07016 0.26554 -0.26000
O 	O 	0.44500 0.13593 0.27843 -0.36800
O 	O 	0.50980 0.20661 0.31663 -0.38000
C 	C 	0.57280 0.98170 0.26667 0.36500
C 	C 	0.50810 0.00930 0.28755 -0.05200
C 	C 	0.44050 0.99120 0.30900 -0.01600
H 	H 	0.43420 0.96310 0.30900 0.05400
C 	C 	0.38250 0.01410 0.33010 -0.04500
H 	H 	0.33800 0.00180 0.34480 0.04600
C 	C 	0.39240 0.05580 0.32890 -0.03100
H 	H 	0.35310 0.07170 0.34280 0.04000
C 	C 	0.45820 0.07440 0.30788 -0.01600
C 	C 	0.47010 0.11950 0.30623 0.27000
C 	C 	0.49970 0.13830 0.33528 -0.35700
H 	H 	0.51070 0.12180 0.35390 0.15300
C 	C 	0.51520 0.18040 0.33965 0.28400
C 	C 	0.53960 0.19630 0.37355 -0.09400
C 	C 	0.50430 0.17740 0.40220 0.02000
H 	H 	0.46900 0.15330 0.40030 0.02400
C 	C 	0.73200 0.05900 0.17949 0.07500
H 	H 	0.72550 0.03100 0.18230 0.00100
C 	C 	0.73490 0.07460 0.14716 -0.12800
H 	H 	0.72820 0.05730 0.12880 0.07800
C 	C 	0.74780 0.11600 0.14215 0.05500
C 	C 	0.75550 0.13990 0.17100 -0.12000
H 	H 	0.76450 0.16780 0.16910 0.07500
C 	C 	0.74990 0.12230 0.20234 0.06900
H 	H 	0.75430 0.13890 0.22120 0.01900
C 	C 	0.57890 0.22760 0.43690 0.00800
H 	H 	0.59330 0.23740 0.45830 0.04000
C 	C 	0.59660 0.23130 0.37640 0.01100
H 	H 	0.62120 0.24380 0.35720 0.03900
C 	C 	0.61710 0.24770 0.40830 -0.08400
H 	H 	0.65490 0.27120 0.41050 0.06000
C 	C 	0.52050 0.19380 0.43330 -0.08800
H 	H 	0.49180 0.18200 0.45210 0.07900
Cd	Cd	0.74093 0.55550 0.76054 1.24200
N 	N 	0.51510 0.55088 0.78652 -0.03000
N 	N 	0.73830 0.58235 0.70671 -0.22300
O 	O 	0.65210 0.49482 0.75421 -0.50700
O 	O 	0.54690 0.44686 0.76396 -0.31300
O 	O 	0.57370 0.57016 0.76554 -0.26000
O 	O 	0.44500 0.63593 0.77843 -0.36800
O 	O 	0.50980 0.70661 0.81663 -0.38000
C 	C 	0.57280 0.48170 0.76667 0.36500
C 	C 	0.50810 0.50930 0.78755 -0.05200
C 	C 	0.44050 0.49120 0.80900 -0.01600
H 	H 	0.43420 0.46310 0.80900 0.05400
C 	C 	0.38250 0.51410 0.83010 -0.04500
H 	H 	0.33800 0.50180 0.84480 0.04600
C 	C 	0.39240 0.55580 0.82890 -0.03100
H 	H 	0.35310 0.57170 0.84280 0.04000
C 	C 	0.45820 0.57440 0.80788 -0.01600
C 	C 	0.47010 0.61950 0.80623 0.27000
C 	C 	0.49970 0.63830 0.83528 -0.35700
H 	H 	0.51070 0.62180 0.85390 0.15300
C 	C 	0.51520 0.68040 0.83965 0.28400
C 	C 	0.53960 0.69630 0.87355 -0.09400
C 	C 	0.50430 0.67740 0.90220 0.02000
H 	H 	0.46900 0.65330 0.90030 0.02400
C 	C 	0.73200 0.55900 0.67949 0.07500
H 	H 	0.72550 0.53100 0.68230 0.00100
C 	C 	0.73490 0.57460 0.64716 -0.12900
H 	H 	0.72820 0.55730 0.62880 0.07800
C 	C 	0.74780 0.61600 0.64215 0.05500
C 	C 	0.75550 0.63990 0.67100 -0.12000
H 	H 	0.76450 0.66780 0.66910 0.07500
C 	C 	0.74990 0.62230 0.70234 0.06900
H 	H 	0.75430 0.63890 0.72120 0.01900
C 	C 	0.57890 0.72760 0.93690 0.00800
H 	H 	0.59330 0.73740 0.95830 0.04000
C 	C 	0.59660 0.73130 0.87640 0.01100
H 	H 	0.62120 0.74380 0.85720 0.03900
C 	C 	0.61710 0.74770 0.90830 -0.08400
H 	H 	0.65490 0.77120 0.91050 0.06000
C 	C 	0.52050 0.69380 0.93330 -0.08800
H 	H 	0.49180 0.68200 0.95210 0.07900
Cd	Cd	0.24093 0.05550 0.76054 1.24200
N 	N 	0.01510 0.05088 0.78652 -0.03100
N 	N 	0.23830 0.08235 0.70671 -0.22300
O 	O 	0.15210 0.99482 0.75421 -0.50700
O 	O 	0.04690 0.94686 0.76396 -0.31300
O 	O 	0.07370 0.07016 0.76554 -0.26000
O 	O 	0.94500 0.13593 0.77843 -0.36700
O 	O 	0.00980 0.20661 0.81663 -0.38000
C 	C 	0.07280 0.98170 0.76667 0.36500
C 	C 	0.00810 0.00930 0.78755 -0.05200
C 	C 	0.94050 0.99120 0.80900 -0.01600
H 	H 	0.93420 0.96310 0.80900 0.05400
C 	C 	0.88250 0.01410 0.83010 -0.04400
H 	H 	0.83800 0.00180 0.84480 0.04600
C 	C 	0.89240 0.05580 0.82890 -0.03100
H 	H 	0.85310 0.07170 0.84280 0.04000
C 	C 	0.95820 0.07440 0.80788 -0.01500
C 	C 	0.97010 0.11950 0.80623 0.27000
C 	C 	0.99970 0.13830 0.83528 -0.35500
H 	H 	0.01070 0.12180 0.85390 0.15200
C 	C 	0.01520 0.18040 0.83965 0.28300
C 	C 	0.03960 0.19630 0.87355 -0.09300
C 	C 	0.00430 0.17740 0.90220 0.01900
H 	H 	0.96900 0.15330 0.90030 0.02400
C 	C 	0.23200 0.05900 0.67949 0.07500
H 	H 	0.22550 0.03100 0.68230 0.00100
C 	C 	0.23490 0.07460 0.64716 -0.12900
H 	H 	0.22820 0.05730 0.62880 0.07800
C 	C 	0.24780 0.11600 0.64215 0.05500
C 	C 	0.25550 0.13990 0.67100 -0.12000
H 	H 	0.26450 0.16780 0.66910 0.07500
C 	C 	0.24990 0.12230 0.70234 0.06900
H 	H 	0.25430 0.13890 0.72120 0.01900
C 	C 	0.07890 0.22760 0.93690 0.00800
H 	H 	0.09330 0.23740 0.95830 0.04000
C 	C 	0.09660 0.23130 0.87640 0.01100
H 	H 	0.12120 0.24380 0.85720 0.03900
C 	C 	0.11710 0.24770 0.90830 -0.08300
H 	H 	0.15490 0.27120 0.91050 0.06000
C 	C 	0.02050 0.19380 0.93330 -0.08800
H 	H 	0.99180 0.18200 0.95210 0.07900
Cd	Cd	0.24093 0.55550 0.26054 1.24200
N 	N 	0.01510 0.55088 0.28652 -0.03000
N 	N 	0.23830 0.58235 0.20671 -0.22300
O 	O 	0.15210 0.49482 0.25421 -0.50700
O 	O 	0.04690 0.44686 0.26396 -0.31300
O 	O 	0.07370 0.57016 0.26554 -0.26000
O 	O 	0.94500 0.63593 0.27843 -0.36800
O 	O 	0.00980 0.70661 0.31663 -0.38000
C 	C 	0.07280 0.48170 0.26667 0.36500
C 	C 	0.00810 0.50930 0.28755 -0.05200
C 	C 	0.94050 0.49120 0.30900 -0.01500
H 	H 	0.93420 0.46310 0.30900 0.05400
C 	C 	0.88250 0.51410 0.33010 -0.04500
H 	H 	0.83800 0.50180 0.34480 0.04600
C 	C 	0.89240 0.55580 0.32890 -0.03100
H 	H 	0.85310 0.57170 0.34280 0.04000
C 	C 	0.95820 0.57440 0.30788 -0.01600
C 	C 	0.97010 0.61950 0.30623 0.27100
C 	C 	0.99970 0.63830 0.33528 -0.35700
H 	H 	0.01070 0.62180 0.35390 0.15400
C 	C 	0.01520 0.68040 0.33965 0.28500
C 	C 	0.03960 0.69630 0.37355 -0.09400
C 	C 	0.00430 0.67740 0.40220 0.02000
H 	H 	0.96900 0.65330 0.40030 0.02300
C 	C 	0.23200 0.55900 0.17949 0.07500
H 	H 	0.22550 0.53100 0.18230 0.00100
C 	C 	0.23490 0.57460 0.14716 -0.12900
H 	H 	0.22820 0.55730 0.12880 0.07800
C 	C 	0.24780 0.61600 0.14215 0.05500
C 	C 	0.25550 0.63990 0.17100 -0.12000
H 	H 	0.26450 0.66780 0.16910 0.07500
C 	C 	0.24990 0.62230 0.20234 0.06900
H 	H 	0.25430 0.63890 0.22120 0.01900
C 	C 	0.07890 0.72760 0.43690 0.00800
H 	H 	0.09330 0.73740 0.45830 0.04000
C 	C 	0.09660 0.73130 0.37640 0.01100
H 	H 	0.12120 0.74380 0.35720 0.03900
C 	C 	0.11710 0.74770 0.40830 -0.08300
H 	H 	0.15490 0.77120 0.41050 0.06000
C 	C 	0.02050 0.69380 0.43330 -0.08700
H 	H 	0.99180 0.68200 0.45210 0.07900
Cd	Cd	0.74093 0.69450 0.48946 1.24200
N 	N 	0.51510 0.69912 0.46348 -0.03000
N 	N 	0.73830 0.66765 0.54329 -0.22300
O 	O 	0.65210 0.75518 0.49579 -0.50700
O 	O 	0.54690 0.80314 0.48604 -0.31300
O 	O 	0.57370 0.67984 0.48446 -0.26000
O 	O 	0.44500 0.61407 0.47157 -0.36800
O 	O 	0.50980 0.54339 0.43337 -0.38000
C 	C 	0.57280 0.76830 0.48333 0.36500
C 	C 	0.50810 0.74070 0.46245 -0.05200
C 	C 	0.44050 0.75880 0.44100 -0.01600
H 	H 	0.43420 0.78690 0.44100 0.05400
C 	C 	0.38250 0.73590 0.41990 -0.04500
H 	H 	0.33800 0.74820 0.40520 0.04600
C 	C 	0.39240 0.69420 0.42110 -0.03100
H 	H 	0.35310 0.67830 0.40720 0.04000
C 	C 	0.45820 0.67560 0.44212 -0.01600
C 	C 	0.47010 0.63050 0.44377 0.27000
C 	C 	0.49970 0.61170 0.41472 -0.35700
H 	H 	0.51070 0.62820 0.39610 0.15300
C 	C 	0.51520 0.56960 0.41035 0.28400
C 	C 	0.53960 0.55370 0.37645 -0.09400
C 	C 	0.50430 0.57260 0.34780 0.02000
H 	H 	0.46900 0.59670 0.34970 0.02400
C 	C 	0.73200 0.69100 0.57051 0.07500
H 	H 	0.72550 0.71900 0.56770 0.00100
C 	C 	0.73490 0.67540 0.60284 -0.12900
H 	H 	0.72820 0.69270 0.62120 0.07800
C 	C 	0.74780 0.63400 0.60785 0.05500
C 	C 	0.75550 0.61010 0.57900 -0.12000
H 	H 	0.76450 0.58220 0.58090 0.07500
C 	C 	0.74990 0.62770 0.54766 0.06900
H 	H 	0.75430 0.61110 0.52880 0.01900
C 	C 	0.57890 0.52240 0.31310 0.00800
H 	H 	0.59330 0.51260 0.29170 0.04000
C 	C 	0.59660 0.51870 0.37360 0.01100
H 	H 	0.62120 0.50620 0.39280 0.03900
C 	C 	0.61710 0.50230 0.34170 -0.08400
H 	H 	0.65490 0.47880 0.33950 0.06000
C 	C 	0.52050 0.55620 0.31670 -0.08800
H 	H 	0.49180 0.56800 0.29790 0.07900
Cd	Cd	0.74093 0.19450 0.98946 1.24200
N 	N 	0.51510 0.19912 0.96348 -0.03000
N 	N 	0.73830 0.16765 0.04329 -0.22300
O 	O 	0.65210 0.25518 0.99579 -0.50700
O 	O 	0.54690 0.30314 0.98604 -0.31300
O 	O 	0.57370 0.17984 0.98446 -0.26000
O 	O 	0.44500 0.11407 0.97157 -0.36800
O 	O 	0.50980 0.04339 0.93337 -0.38000
C 	C 	0.57280 0.26830 0.98333 0.36500
C 	C 	0.50810 0.24070 0.96245 -0.05200
C 	C 	0.44050 0.25880 0.94100 -0.01600
H 	H 	0.43420 0.28690 0.94100 0.05400
C 	C 	0.38250 0.23590 0.91990 -0.04500
H 	H 	0.33800 0.24820 0.90520 0.04600
C 	C 	0.39240 0.19420 0.92110 -0.03100
H 	H 	0.35310 0.17830 0.90720 0.04000
C 	C 	0.45820 0.17560 0.94212 -0.01600
C 	C 	0.47010 0.13050 0.94377 0.27000
C 	C 	0.49970 0.11170 0.91472 -0.35700
H 	H 	0.51070 0.12820 0.89610 0.15300
C 	C 	0.51520 0.06960 0.91035 0.28400
C 	C 	0.53960 0.05370 0.87645 -0.09300
C 	C 	0.50430 0.07260 0.84780 0.01900
H 	H 	0.46900 0.09670 0.84970 0.02400
C 	C 	0.73200 0.19100 0.07051 0.07500
H 	H 	0.72550 0.21900 0.06770 0.00100
C 	C 	0.73490 0.17540 0.10284 -0.12900
H 	H 	0.72820 0.19270 0.12120 0.07800
C 	C 	0.74780 0.13400 0.10785 0.05500
C 	C 	0.75550 0.11010 0.07900 -0.12000
H 	H 	0.76450 0.08220 0.08090 0.07500
C 	C 	0.74990 0.12770 0.04766 0.06900
H 	H 	0.75430 0.11110 0.02880 0.01900
C 	C 	0.57890 0.02240 0.81310 0.00800
H 	H 	0.59330 0.01260 0.79170 0.04000
C 	C 	0.59660 0.01870 0.87360 0.01100
H 	H 	0.62120 0.00620 0.89280 0.03900
C 	C 	0.61710 0.00230 0.84170 -0.08300
H 	H 	0.65490 0.97880 0.83950 0.06000
C 	C 	0.52050 0.05620 0.81670 -0.08700
H 	H 	0.49180 0.06800 0.79790 0.07900
Cd	Cd	0.24093 0.69450 0.98946 1.24200
N 	N 	0.01510 0.69912 0.96348 -0.03000
N 	N 	0.23830 0.66765 0.04329 -0.22300
O 	O 	0.15210 0.75518 0.99579 -0.50700
O 	O 	0.04690 0.80314 0.98604 -0.31300
O 	O 	0.07370 0.67984 0.98446 -0.26000
O 	O 	0.94500 0.61407 0.97157 -0.36700
O 	O 	0.00980 0.54339 0.93337 -0.38000
C 	C 	0.07280 0.76830 0.98333 0.36500
C 	C 	0.00810 0.74070 0.96245 -0.05200
C 	C 	0.94050 0.75880 0.94100 -0.01600
H 	H 	0.93420 0.78690 0.94100 0.05400
C 	C 	0.88250 0.73590 0.91990 -0.04500
H 	H 	0.83800 0.74820 0.90520 0.04600
C 	C 	0.89240 0.69420 0.92110 -0.03100
H 	H 	0.85310 0.67830 0.90720 0.04000
C 	C 	0.95820 0.67560 0.94212 -0.01600
C 	C 	0.97010 0.63050 0.94377 0.27000
C 	C 	0.99970 0.61170 0.91472 -0.35700
H 	H 	0.01070 0.62820 0.89610 0.15300
C 	C 	0.01520 0.56960 0.91035 0.28400
C 	C 	0.03960 0.55370 0.87645 -0.09300
C 	C 	0.00430 0.57260 0.84780 0.02000
H 	H 	0.96900 0.59670 0.84970 0.02400
C 	C 	0.23200 0.69100 0.07051 0.07500
H 	H 	0.22550 0.71900 0.06770 0.00100
C 	C 	0.23490 0.67540 0.10284 -0.12900
H 	H 	0.22820 0.69270 0.12120 0.07800
C 	C 	0.24780 0.63400 0.10785 0.05500
C 	C 	0.25550 0.61010 0.07900 -0.12000
H 	H 	0.26450 0.58220 0.08090 0.07500
C 	C 	0.24990 0.62770 0.04766 0.06900
H 	H 	0.25430 0.61110 0.02880 0.01900
C 	C 	0.07890 0.52240 0.81310 0.00800
H 	H 	0.09330 0.51260 0.79170 0.04000
C 	C 	0.09660 0.51870 0.87360 0.01100
H 	H 	0.12120 0.50620 0.89280 0.03900
C 	C 	0.11710 0.50230 0.84170 -0.08300
H 	H 	0.15490 0.47880 0.83950 0.06000
C 	C 	0.02050 0.55620 0.81670 -0.08700
H 	H 	0.99180 0.56800 0.79790 0.07900
Cd	Cd	0.24093 0.19450 0.48946 1.24200
N 	N 	0.01510 0.19912 0.46348 -0.03100
N 	N 	0.23830 0.16765 0.54329 -0.22300
O 	O 	0.15210 0.25518 0.49579 -0.50700
O 	O 	0.04690 0.30314 0.48604 -0.31300
O 	O 	0.07370 0.17984 0.48446 -0.26000
O 	O 	0.94500 0.11407 0.47157 -0.36700
O 	O 	0.00980 0.04339 0.43337 -0.38000
C 	C 	0.07280 0.26830 0.48333 0.36500
C 	C 	0.00810 0.24070 0.46245 -0.05200
C 	C 	0.94050 0.25880 0.44100 -0.01500
H 	H 	0.93420 0.28690 0.44100 0.05400
C 	C 	0.88250 0.23590 0.41990 -0.04500
H 	H 	0.83800 0.24820 0.40520 0.04600
C 	C 	0.89240 0.19420 0.42110 -0.03100
H 	H 	0.85310 0.17830 0.40720 0.04000
C 	C 	0.95820 0.17560 0.44212 -0.01600
C 	C 	0.97010 0.13050 0.44377 0.27000
C 	C 	0.99970 0.11170 0.41472 -0.35500
H 	H 	0.01070 0.12820 0.39610 0.15300
C 	C 	0.01520 0.06960 0.41035 0.28400
C 	C 	0.03960 0.05370 0.37645 -0.09400
C 	C 	0.00430 0.07260 0.34780 0.02000
H 	H 	0.96900 0.09670 0.34970 0.02400
C 	C 	0.23200 0.19100 0.57051 0.07500
H 	H 	0.22550 0.21900 0.56770 0.00100
C 	C 	0.23490 0.17540 0.60284 -0.12900
H 	H 	0.22820 0.19270 0.62120 0.07800
C 	C 	0.24780 0.13400 0.60785 0.05500
C 	C 	0.25550 0.11010 0.57900 -0.12000
H 	H 	0.26450 0.08220 0.58090 0.07500
C 	C 	0.24990 0.12770 0.54766 0.06900
H 	H 	0.25430 0.11110 0.52880 0.01900
C 	C 	0.07890 0.02240 0.31310 0.00900
H 	H 	0.09330 0.01260 0.29170 0.04000
C 	C 	0.09660 0.01870 0.37360 0.01200
H 	H 	0.12120 0.00620 0.39280 0.03900
C 	C 	0.11710 0.00230 0.34170 -0.08500
H 	H 	0.15490 0.97880 0.33950 0.06100
C 	C 	0.02050 0.05620 0.31670 -0.08900
H 	H 	0.99180 0.06800 0.29790 0.08000
Cd	Cd	0.00907 0.05550 0.48946 1.24200
N 	N 	0.23490 0.05088 0.46348 -0.03000
N 	N 	0.01170 0.08235 0.54329 -0.22200
O 	O 	0.09790 0.99482 0.49579 -0.50700
O 	O 	0.20310 0.94686 0.48604 -0.31300
O 	O 	0.17630 0.07016 0.48446 -0.26000
O 	O 	0.30500 0.13593 0.47157 -0.36800
O 	O 	0.24020 0.20661 0.43337 -0.38000
C 	C 	0.17720 0.98170 0.48333 0.36500
C 	C 	0.24190 0.00930 0.46245 -0.05200
C 	C 	0.30950 0.99120 0.44100 -0.01500
H 	H 	0.31580 0.96310 0.44100 0.05400
C 	C 	0.36750 0.01410 0.41990 -0.04600
H 	H 	0.41200 0.00180 0.40520 0.04600
C 	C 	0.35760 0.05580 0.42110 -0.03000
H 	H 	0.39690 0.07170 0.40720 0.04000
C 	C 	0.29180 0.07440 0.44212 -0.01600
C 	C 	0.27990 0.11950 0.44377 0.27000
C 	C 	0.25030 0.13830 0.41472 -0.35700
H 	H 	0.23930 0.12180 0.39610 0.15300
C 	C 	0.23480 0.18040 0.41035 0.28400
C 	C 	0.21040 0.19630 0.37645 -0.09400
C 	C 	0.24570 0.17740 0.34780 0.02000
H 	H 	0.28100 0.15330 0.34970 0.02400
C 	C 	0.01800 0.05900 0.57051 0.07500
H 	H 	0.02450 0.03100 0.56770 0.00100
C 	C 	0.01510 0.07460 0.60284 -0.12800
H 	H 	0.02180 0.05730 0.62120 0.07800
C 	C 	0.00220 0.11600 0.60785 0.05400
C 	C 	0.99450 0.13990 0.57900 -0.11800
H 	H 	0.98550 0.16780 0.58090 0.07500
C 	C 	0.00010 0.12230 0.54766 0.06700
H 	H 	0.99570 0.13890 0.52880 0.02000
C 	C 	0.17110 0.22760 0.31310 0.00800
H 	H 	0.15670 0.23740 0.29170 0.04000
C 	C 	0.15340 0.23130 0.37360 0.01100
H 	H 	0.12880 0.24380 0.39280 0.03900
C 	C 	0.13290 0.24770 0.34170 -0.08400
H 	H 	0.09510 0.27120 0.33950 0.06000
C 	C 	0.22950 0.19380 0.31670 -0.08800
H 	H 	0.25820 0.18200 0.29790 0.07900
Cd	Cd	0.00907 0.55550 0.98946 1.24200
N 	N 	0.23490 0.55088 0.96348 -0.03000
N 	N 	0.01170 0.58235 0.04329 -0.22300
O 	O 	0.09790 0.49482 0.99579 -0.50700
O 	O 	0.20310 0.44686 0.98604 -0.31300
O 	O 	0.17630 0.57016 0.98446 -0.26000
O 	O 	0.30500 0.63593 0.97157 -0.36800
O 	O 	0.24020 0.70661 0.93337 -0.38000
C 	C 	0.17720 0.48170 0.98333 0.36500
C 	C 	0.24190 0.50930 0.96245 -0.05200
C 	C 	0.30950 0.49120 0.94100 -0.01600
H 	H 	0.31580 0.46310 0.94100 0.05400
C 	C 	0.36750 0.51410 0.91990 -0.04500
H 	H 	0.41200 0.50180 0.90520 0.04600
C 	C 	0.35760 0.55580 0.92110 -0.03100
H 	H 	0.39690 0.57170 0.90720 0.04000
C 	C 	0.29180 0.57440 0.94212 -0.01600
C 	C 	0.27990 0.61950 0.94377 0.27000
C 	C 	0.25030 0.63830 0.91472 -0.35700
H 	H 	0.23930 0.62180 0.89610 0.15300
C 	C 	0.23480 0.68040 0.91035 0.28400
C 	C 	0.21040 0.69630 0.87645 -0.09400
C 	C 	0.24570 0.67740 0.84780 0.02000
H 	H 	0.28100 0.65330 0.84970 0.02400
C 	C 	0.01800 0.55900 0.07051 0.07600
H 	H 	0.02450 0.53100 0.06770 0.00100
C 	C 	0.01510 0.57460 0.10284 -0.12900
H 	H 	0.02180 0.55730 0.12120 0.07800
C 	C 	0.00220 0.61600 0.10785 0.05500
C 	C 	0.99450 0.63990 0.07900 -0.12000
H 	H 	0.98550 0.66780 0.08090 0.07500
C 	C 	0.00010 0.62230 0.04766 0.06900
H 	H 	0.99570 0.63890 0.02880 0.01900
C 	C 	0.17110 0.72760 0.81310 0.00800
H 	H 	0.15670 0.73740 0.79170 0.04000
C 	C 	0.15340 0.73130 0.87360 0.01100
H 	H 	0.12880 0.74380 0.89280 0.03900
C 	C 	0.13290 0.74770 0.84170 -0.08400
H 	H 	0.09510 0.77120 0.83950 0.06000
C 	C 	0.22950 0.69380 0.81670 -0.08800
H 	H 	0.25820 0.68200 0.79790 0.07900
Cd	Cd	0.50907 0.05550 0.98946 1.24200
N 	N 	0.73490 0.05088 0.96348 -0.03100
N 	N 	0.51170 0.08235 0.04329 -0.22300
O 	O 	0.59790 0.99482 0.99579 -0.50700
O 	O 	0.70310 0.94686 0.98604 -0.31300
O 	O 	0.67630 0.07016 0.98446 -0.26000
O 	O 	0.80500 0.13593 0.97157 -0.36700
O 	O 	0.74020 0.20661 0.93337 -0.38000
C 	C 	0.67720 0.98170 0.98333 0.36400
C 	C 	0.74190 0.00930 0.96245 -0.05100
C 	C 	0.80950 0.99120 0.94100 -0.01700
H 	H 	0.81580 0.96310 0.94100 0.05400
C 	C 	0.86750 0.01410 0.91990 -0.04400
H 	H 	0.91200 0.00180 0.90520 0.04600
C 	C 	0.85760 0.05580 0.92110 -0.03100
H 	H 	0.89690 0.07170 0.90720 0.04000
C 	C 	0.79180 0.07440 0.94212 -0.01600
C 	C 	0.77990 0.11950 0.94377 0.27000
C 	C 	0.75030 0.13830 0.91472 -0.35700
H 	H 	0.73930 0.12180 0.89610 0.15300
C 	C 	0.73480 0.18040 0.91035 0.28400
C 	C 	0.71040 0.19630 0.87645 -0.09400
C 	C 	0.74570 0.17740 0.84780 0.02000
H 	H 	0.78100 0.15330 0.84970 0.02400
C 	C 	0.51800 0.05900 0.07051 0.07500
H 	H 	0.52450 0.03100 0.06770 0.00100
C 	C 	0.51510 0.07460 0.10284 -0.12900
H 	H 	0.52180 0.05730 0.12120 0.07800
C 	C 	0.50220 0.11600 0.10785 0.05500
C 	C 	0.49450 0.13990 0.07900 -0.12000
H 	H 	0.48550 0.16780 0.08090 0.07500
C 	C 	0.50010 0.12230 0.04766 0.06900
H 	H 	0.49570 0.13890 0.02880 0.01900
C 	C 	0.67110 0.22760 0.81310 0.00800
H 	H 	0.65670 0.23740 0.79170 0.04000
C 	C 	0.65340 0.23130 0.87360 0.01100
H 	H 	0.62880 0.24380 0.89280 0.03900
C 	C 	0.63290 0.24770 0.84170 -0.08400
H 	H 	0.59510 0.27120 0.83950 0.06000
C 	C 	0.72950 0.19380 0.81670 -0.08800
H 	H 	0.75820 0.18200 0.79790 0.07900
Cd	Cd	0.50907 0.55550 0.48946 1.24200
N 	N 	0.73490 0.55088 0.46348 -0.03000
N 	N 	0.51170 0.58235 0.54329 -0.22300
O 	O 	0.59790 0.49482 0.49579 -0.50700
O 	O 	0.70310 0.44686 0.48604 -0.31300
O 	O 	0.67630 0.57016 0.48446 -0.26000
O 	O 	0.80500 0.63593 0.47157 -0.36800
O 	O 	0.74020 0.70661 0.43337 -0.38000
C 	C 	0.67720 0.48170 0.48333 0.36500
C 	C 	0.74190 0.50930 0.46245 -0.05200
C 	C 	0.80950 0.49120 0.44100 -0.01600
H 	H 	0.81580 0.46310 0.44100 0.05400
C 	C 	0.86750 0.51410 0.41990 -0.04500
H 	H 	0.91200 0.50180 0.40520 0.04600
C 	C 	0.85760 0.55580 0.42110 -0.03100
H 	H 	0.89690 0.57170 0.40720 0.04000
C 	C 	0.79180 0.57440 0.44212 -0.01600
C 	C 	0.77990 0.61950 0.44377 0.27000
C 	C 	0.75030 0.63830 0.41472 -0.35700
H 	H 	0.73930 0.62180 0.39610 0.15300
C 	C 	0.73480 0.68040 0.41035 0.28400
C 	C 	0.71040 0.69630 0.37645 -0.09400
C 	C 	0.74570 0.67740 0.34780 0.02000
H 	H 	0.78100 0.65330 0.34970 0.02400
C 	C 	0.51800 0.55900 0.57051 0.07500
H 	H 	0.52450 0.53100 0.56770 0.00100
C 	C 	0.51510 0.57460 0.60284 -0.12900
H 	H 	0.52180 0.55730 0.62120 0.07800
C 	C 	0.50220 0.61600 0.60785 0.05500
C 	C 	0.49450 0.63990 0.57900 -0.12000
H 	H 	0.48550 0.66780 0.58090 0.07500
C 	C 	0.50010 0.62230 0.54766 0.06900
H 	H 	0.49570 0.63890 0.52880 0.01900
C 	C 	0.67110 0.72760 0.31310 0.00800
H 	H 	0.65670 0.73740 0.29170 0.04000
C 	C 	0.65340 0.73130 0.37360 0.01100
H 	H 	0.62880 0.74380 0.39280 0.03900
C 	C 	0.63290 0.74770 0.34170 -0.08400
H 	H 	0.59510 0.77120 0.33950 0.06000
C 	C 	0.72950 0.69380 0.31670 -0.08800
H 	H 	0.75820 0.68200 0.29790 0.07900
Cd	Cd	0.99093 0.30550 0.73946 1.24200
N 	N 	0.76510 0.30088 0.71348 -0.03000
N 	N 	0.98830 0.33235 0.79329 -0.22300
O 	O 	0.90210 0.24482 0.74579 -0.50700
O 	O 	0.79690 0.19686 0.73604 -0.31300
O 	O 	0.82370 0.32016 0.73446 -0.26000
O 	O 	0.69500 0.38593 0.72157 -0.36800
O 	O 	0.75980 0.45661 0.68337 -0.38000
C 	C 	0.82280 0.23170 0.73333 0.36500
C 	C 	0.75810 0.25930 0.71245 -0.05200
C 	C 	0.69050 0.24120 0.69100 -0.01600
H 	H 	0.68420 0.21310 0.69100 0.05400
C 	C 	0.63250 0.26410 0.66990 -0.04500
H 	H 	0.58800 0.25180 0.65520 0.04600
C 	C 	0.64240 0.30580 0.67110 -0.03100
H 	H 	0.60310 0.32170 0.65720 0.04000
C 	C 	0.70820 0.32440 0.69212 -0.01600
C 	C 	0.72010 0.36950 0.69377 0.27000
C 	C 	0.74970 0.38830 0.66472 -0.35700
H 	H 	0.76070 0.37180 0.64610 0.15300
C 	C 	0.76520 0.43040 0.66035 0.28400
C 	C 	0.78960 0.44630 0.62645 -0.09400
C 	C 	0.75430 0.42740 0.59780 0.02000
H 	H 	0.71900 0.40330 0.59970 0.02400
C 	C 	0.98200 0.30900 0.82051 0.07600
H 	H 	0.97550 0.28100 0.81770 0.00100
C 	C 	0.98490 0.32460 0.85284 -0.12800
H 	H 	0.97820 0.30730 0.87120 0.07800
C 	C 	0.99780 0.36600 0.85785 0.05500
C 	C 	0.00550 0.38990 0.82900 -0.12000
H 	H 	0.01450 0.41780 0.83090 0.07500
C 	C 	0.99990 0.37230 0.79766 0.06900
H 	H 	0.00430 0.38890 0.77880 0.01900
C 	C 	0.82890 0.47760 0.56310 0.00800
H 	H 	0.84330 0.48740 0.54170 0.04000
C 	C 	0.84660 0.48130 0.62360 0.01100
H 	H 	0.87120 0.49380 0.64280 0.03900
C 	C 	0.86710 0.49770 0.59170 -0.08400
H 	H 	0.90490 0.52120 0.58950 0.06000
C 	C 	0.77050 0.44380 0.56670 -0.08800
H 	H 	0.74180 0.43200 0.54790 0.07900
Cd	Cd	0.99093 0.80550 0.23946 1.24200
N 	N 	0.76510 0.80088 0.21348 -0.03000
N 	N 	0.98830 0.83235 0.29329 -0.22200
O 	O 	0.90210 0.74482 0.24579 -0.50700
O 	O 	0.79690 0.69686 0.23604 -0.31300
O 	O 	0.82370 0.82016 0.23446 -0.26000
O 	O 	0.69500 0.88593 0.22157 -0.36800
O 	O 	0.75980 0.95661 0.18337 -0.38000
C 	C 	0.82280 0.73170 0.23333 0.36500
C 	C 	0.75810 0.75930 0.21245 -0.05200
C 	C 	0.69050 0.74120 0.19100 -0.01600
H 	H 	0.68420 0.71310 0.19100 0.05400
C 	C 	0.63250 0.76410 0.16990 -0.04500
H 	H 	0.58800 0.75180 0.15520 0.04600
C 	C 	0.64240 0.80580 0.17110 -0.03100
H 	H 	0.60310 0.82170 0.15720 0.04000
C 	C 	0.70820 0.82440 0.19212 -0.01600
C 	C 	0.72010 0.86950 0.19377 0.27000
C 	C 	0.74970 0.88830 0.16472 -0.35700
H 	H 	0.76070 0.87180 0.14610 0.15300
C 	C 	0.76520 0.93040 0.16035 0.28500
C 	C 	0.78960 0.94630 0.12645 -0.09400
C 	C 	0.75430 0.92740 0.09780 0.02100
H 	H 	0.71900 0.90330 0.09970 0.02300
C 	C 	0.98200 0.80900 0.32051 0.07500
H 	H 	0.97550 0.78100 0.31770 0.00100
C 	C 	0.98490 0.82460 0.35284 -0.12800
H 	H 	0.97820 0.80730 0.37120 0.07800
C 	C 	0.99780 0.86600 0.35785 0.05400
C 	C 	0.00550 0.88990 0.32900 -0.11800
H 	H 	0.01450 0.91780 0.33090 0.07500
C 	C 	0.99990 0.87230 0.29766 0.06600
H 	H 	0.00430 0.88890 0.27880 0.02000
C 	C 	0.82890 0.97760 0.06310 0.01000
H 	H 	0.84330 0.98740 0.04170 0.03900
C 	C 	0.84660 0.98130 0.12360 0.01300
H 	H 	0.87120 0.99380 0.14280 0.03900
C 	C 	0.86710 0.99770 0.09170 -0.08600
H 	H 	0.90490 0.02120 0.08950 0.06100
C 	C 	0.77050 0.94380 0.06670 -0.08900
H 	H 	0.74180 0.93200 0.04790 0.07900
Cd	Cd	0.49093 0.30550 0.23946 1.24200
N 	N 	0.26510 0.30088 0.21348 -0.03000
N 	N 	0.48830 0.33235 0.29329 -0.22300
O 	O 	0.40210 0.24482 0.24579 -0.50700
O 	O 	0.29690 0.19686 0.23604 -0.31300
O 	O 	0.32370 0.32016 0.23446 -0.26000
O 	O 	0.19500 0.38593 0.22157 -0.36800
O 	O 	0.25980 0.45661 0.18337 -0.38000
C 	C 	0.32280 0.23170 0.23333 0.36500
C 	C 	0.25810 0.25930 0.21245 -0.05200
C 	C 	0.19050 0.24120 0.19100 -0.01600
H 	H 	0.18420 0.21310 0.19100 0.05400
C 	C 	0.13250 0.26410 0.16990 -0.04500
H 	H 	0.08800 0.25180 0.15520 0.04600
C 	C 	0.14240 0.30580 0.17110 -0.03100
H 	H 	0.10310 0.32170 0.15720 0.04000
C 	C 	0.20820 0.32440 0.19212 -0.01600
C 	C 	0.22010 0.36950 0.19377 0.27000
C 	C 	0.24970 0.38830 0.16472 -0.35700
H 	H 	0.26070 0.37180 0.14610 0.15300
C 	C 	0.26520 0.43040 0.16035 0.28400
C 	C 	0.28960 0.44630 0.12645 -0.09400
C 	C 	0.25430 0.42740 0.09780 0.02000
H 	H 	0.21900 0.40330 0.09970 0.02400
C 	C 	0.48200 0.30900 0.32051 0.07500
H 	H 	0.47550 0.28100 0.31770 0.00100
C 	C 	0.48490 0.32460 0.35284 -0.12900
H 	H 	0.47820 0.30730 0.37120 0.07800
C 	C 	0.49780 0.36600 0.35785 0.05500
C 	C 	0.50550 0.38990 0.32900 -0.12000
H 	H 	0.51450 0.41780 0.33090 0.07500
C 	C 	0.49990 0.37230 0.29766 0.06900
H 	H 	0.50430 0.38890 0.27880 0.01900
C 	C 	0.32890 0.47760 0.06310 0.00800
H 	H 	0.34330 0.48740 0.04170 0.04000
C 	C 	0.34660 0.48130 0.12360 0.01100
H 	H 	0.37120 0.49380 0.14280 0.03900
C 	C 	0.36710 0.49770 0.09170 -0.08400
H 	H 	0.40490 0.52120 0.08950 0.06000
C 	C 	0.27050 0.44380 0.06670 -0.08800
H 	H 	0.24180 0.43200 0.04790 0.07900
Cd	Cd	0.49093 0.80550 0.73946 1.24200
N 	N 	0.26510 0.80088 0.71348 -0.03000
N 	N 	0.48830 0.83235 0.79329 -0.22300
O 	O 	0.40210 0.74482 0.74579 -0.50700
O 	O 	0.29690 0.69686 0.73604 -0.31300
O 	O 	0.32370 0.82016 0.73446 -0.26000
O 	O 	0.19500 0.88593 0.72157 -0.36700
O 	O 	0.25980 0.95661 0.68337 -0.38000
C 	C 	0.32280 0.73170 0.73333 0.36500
C 	C 	0.25810 0.75930 0.71245 -0.05200
C 	C 	0.19050 0.74120 0.69100 -0.01600
H 	H 	0.18420 0.71310 0.69100 0.05400
C 	C 	0.13250 0.76410 0.66990 -0.04500
H 	H 	0.08800 0.75180 0.65520 0.04600
C 	C 	0.14240 0.80580 0.67110 -0.03100
H 	H 	0.10310 0.82170 0.65720 0.04000
C 	C 	0.20820 0.82440 0.69212 -0.01600
C 	C 	0.22010 0.86950 0.69377 0.27000
C 	C 	0.24970 0.88830 0.66472 -0.35700
H 	H 	0.26070 0.87180 0.64610 0.15300
C 	C 	0.26520 0.93040 0.66035 0.28400
C 	C 	0.28960 0.94630 0.62645 -0.09300
C 	C 	0.25430 0.92740 0.59780 0.01900
H 	H 	0.21900 0.90330 0.59970 0.02400
C 	C 	0.48200 0.80900 0.82051 0.07500
H 	H 	0.47550 0.78100 0.81770 0.00100
C 	C 	0.48490 0.82460 0.85284 -0.12900
H 	H 	0.47820 0.80730 0.87120 0.07800
C 	C 	0.49780 0.86600 0.85785 0.05500
C 	C 	0.50550 0.88990 0.82900 -0.12000
H 	H 	0.51450 0.91780 0.83090 0.07500
C 	C 	0.49990 0.87230 0.79766 0.06900
H 	H 	0.50430 0.88890 0.77880 0.01900
C 	C 	0.32890 0.97760 0.56310 0.00800
H 	H 	0.34330 0.98740 0.54170 0.04000
C 	C 	0.34660 0.98130 0.62360 0.01100
H 	H 	0.37120 0.99380 0.64280 0.03900
C 	C 	0.36710 0.99770 0.59170 -0.08300
H 	H 	0.40490 0.02120 0.58950 0.06000
C 	C 	0.27050 0.94380 0.56670 -0.08700
H 	H 	0.24180 0.93200 0.54790 0.07900
Cd	Cd	0.25907 0.94450 0.73946 1.24200
N 	N 	0.48490 0.94912 0.71348 -0.03000
N 	N 	0.26170 0.91765 0.79329 -0.22300
O 	O 	0.34790 0.00518 0.74579 -0.50800
O 	O 	0.45310 0.05314 0.73604 -0.31300
O 	O 	0.42630 0.92984 0.73446 -0.26000
O 	O 	0.55500 0.86407 0.72157 -0.36800
O 	O 	0.49020 0.79339 0.68337 -0.38000
C 	C 	0.42720 0.01830 0.73333 0.36500
C 	C 	0.49190 0.99070 0.71245 -0.05200
C 	C 	0.55950 0.00880 0.69100 -0.01600
H 	H 	0.56580 0.03690 0.69100 0.05400
C 	C 	0.61750 0.98590 0.66990 -0.04500
H 	H 	0.66200 0.99820 0.65520 0.04600
C 	C 	0.60760 0.94420 0.67110 -0.03100
H 	H 	0.64690 0.92830 0.65720 0.04000
C 	C 	0.54180 0.92560 0.69212 -0.01600
C 	C 	0.52990 0.88050 0.69377 0.27000
C 	C 	0.50030 0.86170 0.66472 -0.35700
H 	H 	0.48930 0.87820 0.64610 0.15300
C 	C 	0.48480 0.81960 0.66035 0.28400
C 	C 	0.46040 0.80370 0.62645 -0.09400
C 	C 	0.49570 0.82260 0.59780 0.02000
H 	H 	0.53100 0.84670 0.59970 0.02400
C 	C 	0.26800 0.94100 0.82051 0.07500
H 	H 	0.27450 0.96900 0.81770 0.00100
C 	C 	0.26510 0.92540 0.85284 -0.12800
H 	H 	0.27180 0.94270 0.87120 0.07800
C 	C 	0.25220 0.88400 0.85785 0.05500
C 	C 	0.24450 0.86010 0.82900 -0.12000
H 	H 	0.23550 0.83220 0.83090 0.07500
C 	C 	0.25010 0.87770 0.79766 0.06900
H 	H 	0.24570 0.86110 0.77880 0.01900
C 	C 	0.42110 0.77240 0.56310 0.00800
H 	H 	0.40670 0.76260 0.54170 0.04000
C 	C 	0.40340 0.76870 0.62360 0.01100
H 	H 	0.37880 0.75620 0.64280 0.03900
C 	C 	0.38290 0.75230 0.59170 -0.08400
H 	H 	0.34510 0.72880 0.58950 0.06000
C 	C 	0.47950 0.80620 0.56670 -0.08800
H 	H 	0.50820 0.81800 0.54790 0.07900
Cd	Cd	0.25907 0.44450 0.23946 1.24200
N 	N 	0.48490 0.44912 0.21348 -0.03000
N 	N 	0.26170 0.41765 0.29329 -0.22300
O 	O 	0.34790 0.50518 0.24579 -0.50700
O 	O 	0.45310 0.55314 0.23604 -0.31300
O 	O 	0.42630 0.42984 0.23446 -0.26000
O 	O 	0.55500 0.36407 0.22157 -0.36800
O 	O 	0.49020 0.29339 0.18337 -0.38000
C 	C 	0.42720 0.51830 0.23333 0.36500
C 	C 	0.49190 0.49070 0.21245 -0.05200
C 	C 	0.55950 0.50880 0.19100 -0.01600
H 	H 	0.56580 0.53690 0.19100 0.05400
C 	C 	0.61750 0.48590 0.16990 -0.04500
H 	H 	0.66200 0.49820 0.15520 0.04600
C 	C 	0.60760 0.44420 0.17110 -0.03100
H 	H 	0.64690 0.42830 0.15720 0.04000
C 	C 	0.54180 0.42560 0.19212 -0.01600
C 	C 	0.52990 0.38050 0.19377 0.27000
C 	C 	0.50030 0.36170 0.16472 -0.35700
H 	H 	0.48930 0.37820 0.14610 0.15300
C 	C 	0.48480 0.31960 0.16035 0.28400
C 	C 	0.46040 0.30370 0.12645 -0.09400
C 	C 	0.49570 0.32260 0.09780 0.02000
H 	H 	0.53100 0.34670 0.09970 0.02400
C 	C 	0.26800 0.44100 0.32051 0.07500
H 	H 	0.27450 0.46900 0.31770 0.00100
C 	C 	0.26510 0.42540 0.35284 -0.12900
H 	H 	0.27180 0.44270 0.37120 0.07800
C 	C 	0.25220 0.38400 0.35785 0.05500
C 	C 	0.24450 0.36010 0.32900 -0.12000
H 	H 	0.23550 0.33220 0.33090 0.07500
C 	C 	0.25010 0.37770 0.29766 0.06900
H 	H 	0.24570 0.36110 0.27880 0.01900
C 	C 	0.42110 0.27240 0.06310 0.00800
H 	H 	0.40670 0.26260 0.04170 0.04000
C 	C 	0.40340 0.26870 0.12360 0.01100
H 	H 	0.37880 0.25620 0.14280 0.03900
C 	C 	0.38290 0.25230 0.09170 -0.08400
H 	H 	0.34510 0.22880 0.08950 0.06000
C 	C 	0.47950 0.30620 0.06670 -0.08800
H 	H 	0.50820 0.31800 0.04790 0.07900
Cd	Cd	0.75907 0.94450 0.23946 1.24200
N 	N 	0.98490 0.94912 0.21348 -0.03100
N 	N 	0.76170 0.91765 0.29329 -0.22300
O 	O 	0.84790 0.00518 0.24579 -0.50700
O 	O 	0.95310 0.05314 0.23604 -0.31300
O 	O 	0.92630 0.92984 0.23446 -0.26000
O 	O 	0.05500 0.86407 0.22157 -0.36700
O 	O 	0.99020 0.79339 0.18337 -0.38000
C 	C 	0.92720 0.01830 0.23333 0.36500
C 	C 	0.99190 0.99070 0.21245 -0.05200
C 	C 	0.05950 0.00880 0.19100 -0.01600
H 	H 	0.06580 0.03690 0.19100 0.05400
C 	C 	0.11750 0.98590 0.16990 -0.04400
H 	H 	0.16200 0.99820 0.15520 0.04600
C 	C 	0.10760 0.94420 0.17110 -0.03100
H 	H 	0.14690 0.92830 0.15720 0.04000
C 	C 	0.04180 0.92560 0.19212 -0.01500
C 	C 	0.02990 0.88050 0.19377 0.27000
C 	C 	0.00030 0.86170 0.16472 -0.35500
H 	H 	0.98930 0.87820 0.14610 0.15200
C 	C 	0.98480 0.81960 0.16035 0.28300
C 	C 	0.96040 0.80370 0.12645 -0.09300
C 	C 	0.99570 0.82260 0.09780 0.01900
H 	H 	0.03100 0.84670 0.09970 0.02400
C 	C 	0.76800 0.94100 0.32051 0.07500
H 	H 	0.77450 0.96900 0.31770 0.00100
C 	C 	0.76510 0.92540 0.35284 -0.12900
H 	H 	0.77180 0.94270 0.37120 0.07800
C 	C 	0.75220 0.88400 0.35785 0.05500
C 	C 	0.74450 0.86010 0.32900 -0.12000
H 	H 	0.73550 0.83220 0.33090 0.07500
C 	C 	0.75010 0.87770 0.29766 0.06900
H 	H 	0.74570 0.86110 0.27880 0.01900
C 	C 	0.92110 0.77240 0.06310 0.00800
H 	H 	0.90670 0.76260 0.04170 0.04000
C 	C 	0.90340 0.76870 0.12360 0.01100
H 	H 	0.87880 0.75620 0.14280 0.03900
C 	C 	0.88290 0.75230 0.09170 -0.08300
H 	H 	0.84510 0.72880 0.08950 0.06000
C 	C 	0.97950 0.80620 0.06670 -0.08800
H 	H 	0.00820 0.81800 0.04790 0.07900
Cd	Cd	0.75907 0.44450 0.73946 1.24200
N 	N 	0.98490 0.44912 0.71348 -0.03000
N 	N 	0.76170 0.41765 0.79329 -0.22300
O 	O 	0.84790 0.50518 0.74579 -0.50700
O 	O 	0.95310 0.55314 0.73604 -0.31300
O 	O 	0.92630 0.42984 0.73446 -0.26000
O 	O 	0.05500 0.36407 0.72157 -0.36800
O 	O 	0.99020 0.29339 0.68337 -0.38000
C 	C 	0.92720 0.51830 0.73333 0.36500
C 	C 	0.99190 0.49070 0.71245 -0.05200
C 	C 	0.05950 0.50880 0.69100 -0.01500
H 	H 	0.06580 0.53690 0.69100 0.05400
C 	C 	0.11750 0.48590 0.66990 -0.04500
H 	H 	0.16200 0.49820 0.65520 0.04600
C 	C 	0.10760 0.44420 0.67110 -0.03100
H 	H 	0.14690 0.42830 0.65720 0.04000
C 	C 	0.04180 0.42560 0.69212 -0.01600
C 	C 	0.02990 0.38050 0.69377 0.27100
C 	C 	0.00030 0.36170 0.66472 -0.35700
H 	H 	0.98930 0.37820 0.64610 0.15400
C 	C 	0.98480 0.31960 0.66035 0.28500
C 	C 	0.96040 0.30370 0.62645 -0.09400
C 	C 	0.99570 0.32260 0.59780 0.02000
H 	H 	0.03100 0.34670 0.59970 0.02300
C 	C 	0.76800 0.44100 0.82051 0.07500
H 	H 	0.77450 0.46900 0.81770 0.00100
C 	C 	0.76510 0.42540 0.85284 -0.12900
H 	H 	0.77180 0.44270 0.87120 0.07800
C 	C 	0.75220 0.38400 0.85785 0.05500
C 	C 	0.74450 0.36010 0.82900 -0.12000
H 	H 	0.73550 0.33220 0.83090 0.07500
C 	C 	0.75010 0.37770 0.79766 0.06900
H 	H 	0.74570 0.36110 0.77880 0.01900
C 	C 	0.92110 0.27240 0.56310 0.00800
H 	H 	0.90670 0.26260 0.54170 0.04000
C 	C 	0.90340 0.26870 0.62360 0.01100
H 	H 	0.87880 0.25620 0.64280 0.03900
C 	C 	0.88290 0.25230 0.59170 -0.08300
H 	H 	0.84510 0.22880 0.58950 0.06000
C 	C 	0.97950 0.30620 0.56670 -0.08700
H 	H 	0.00820 0.31800 0.54790 0.07900
Cd	Cd	0.25907 0.30550 0.51054 1.24200
N 	N 	0.48490 0.30088 0.53652 -0.03000
N 	N 	0.26170 0.33235 0.45671 -0.22300
O 	O 	0.34790 0.24482 0.50421 -0.50700
O 	O 	0.45310 0.19686 0.51396 -0.31300
O 	O 	0.42630 0.32016 0.51554 -0.26000
O 	O 	0.55500 0.38593 0.52843 -0.36800
O 	O 	0.49020 0.45661 0.56663 -0.38000
C 	C 	0.42720 0.23170 0.51667 0.36500
C 	C 	0.49190 0.25930 0.53755 -0.05200
C 	C 	0.55950 0.24120 0.55900 -0.01600
H 	H 	0.56580 0.21310 0.55900 0.05400
C 	C 	0.61750 0.26410 0.58010 -0.04500
H 	H 	0.66200 0.25180 0.59480 0.04600
C 	C 	0.60760 0.30580 0.57890 -0.03100
H 	H 	0.64690 0.32170 0.59280 0.04000
C 	C 	0.54180 0.32440 0.55788 -0.01600
C 	C 	0.52990 0.36950 0.55623 0.27000
C 	C 	0.50030 0.38830 0.58528 -0.35700
H 	H 	0.48930 0.37180 0.60390 0.15300
C 	C 	0.48480 0.43040 0.58965 0.28400
C 	C 	0.46040 0.44630 0.62355 -0.09400
C 	C 	0.49570 0.42740 0.65220 0.02000
H 	H 	0.53100 0.40330 0.65030 0.02400
C 	C 	0.26800 0.30900 0.42949 0.07500
H 	H 	0.27450 0.28100 0.43230 0.00100
C 	C 	0.26510 0.32460 0.39716 -0.12900
H 	H 	0.27180 0.30730 0.37880 0.07800
C 	C 	0.25220 0.36600 0.39215 0.05500
C 	C 	0.24450 0.38990 0.42100 -0.12000
H 	H 	0.23550 0.41780 0.41910 0.07500
C 	C 	0.25010 0.37230 0.45234 0.06900
H 	H 	0.24570 0.38890 0.47120 0.01900
C 	C 	0.42110 0.47760 0.68690 0.00800
H 	H 	0.40670 0.48740 0.70830 0.04000
C 	C 	0.40340 0.48130 0.62640 0.01100
H 	H 	0.37880 0.49380 0.60720 0.03900
C 	C 	0.38290 0.49770 0.65830 -0.08400
H 	H 	0.34510 0.52120 0.66050 0.06000
C 	C 	0.47950 0.44380 0.68330 -0.08800
H 	H 	0.50820 0.43200 0.70210 0.07900
Cd	Cd	0.25907 0.80550 0.01054 1.24200
N 	N 	0.48490 0.80088 0.03652 -0.03000
N 	N 	0.26170 0.83235 0.95671 -0.22300
O 	O 	0.34790 0.74482 0.00421 -0.50700
O 	O 	0.45310 0.69686 0.01396 -0.31300
O 	O 	0.42630 0.82016 0.01554 -0.26000
O 	O 	0.55500 0.88593 0.02843 -0.36800
O 	O 	0.49020 0.95661 0.06663 -0.38000
C 	C 	0.42720 0.73170 0.01667 0.36500
C 	C 	0.49190 0.75930 0.03755 -0.05200
C 	C 	0.55950 0.74120 0.05900 -0.01600
H 	H 	0.56580 0.71310 0.05900 0.05400
C 	C 	0.61750 0.76410 0.08010 -0.04500
H 	H 	0.66200 0.75180 0.09480 0.04600
C 	C 	0.60760 0.80580 0.07890 -0.03100
H 	H 	0.64690 0.82170 0.09280 0.04000
C 	C 	0.54180 0.82440 0.05788 -0.01600
C 	C 	0.52990 0.86950 0.05623 0.27000
C 	C 	0.50030 0.88830 0.08528 -0.35700
H 	H 	0.48930 0.87180 0.10390 0.15300
C 	C 	0.48480 0.93040 0.08965 0.28400
C 	C 	0.46040 0.94630 0.12355 -0.09300
C 	C 	0.49570 0.92740 0.15220 0.01900
H 	H 	0.53100 0.90330 0.15030 0.02400
C 	C 	0.26800 0.80900 0.92949 0.07500
H 	H 	0.27450 0.78100 0.93230 0.00100
C 	C 	0.26510 0.82460 0.89716 -0.12900
H 	H 	0.27180 0.80730 0.87880 0.07800
C 	C 	0.25220 0.86600 0.89215 0.05500
C 	C 	0.24450 0.88990 0.92100 -0.12000
H 	H 	0.23550 0.91780 0.91910 0.07500
C 	C 	0.25010 0.87230 0.95234 0.06900
H 	H 	0.24570 0.88890 0.97120 0.01900
C 	C 	0.42110 0.97760 0.18690 0.00800
H 	H 	0.40670 0.98740 0.20830 0.04000
C 	C 	0.40340 0.98130 0.12640 0.01100
H 	H 	0.37880 0.99380 0.10720 0.03900
C 	C 	0.38290 0.99770 0.15830 -0.08300
H 	H 	0.34510 0.02120 0.16050 0.06000
C 	C 	0.47950 0.94380 0.18330 -0.08700
H 	H 	0.50820 0.93200 0.20210 0.07900
Cd	Cd	0.75907 0.30550 0.01054 1.24200
N 	N 	0.98490 0.30088 0.03652 -0.03000
N 	N 	0.76170 0.33235 0.95671 -0.22300
O 	O 	0.84790 0.24482 0.00421 -0.50700
O 	O 	0.95310 0.19686 0.01396 -0.31300
O 	O 	0.92630 0.32016 0.01554 -0.26000
O 	O 	0.05500 0.38593 0.02843 -0.36700
O 	O 	0.99020 0.45661 0.06663 -0.38000
C 	C 	0.92720 0.23170 0.01667 0.36500
C 	C 	0.99190 0.25930 0.03755 -0.05200
C 	C 	0.05950 0.24120 0.05900 -0.01600
H 	H 	0.06580 0.21310 0.05900 0.05400
C 	C 	0.11750 0.26410 0.08010 -0.04500
H 	H 	0.16200 0.25180 0.09480 0.04600
C 	C 	0.10760 0.30580 0.07890 -0.03100
H 	H 	0.14690 0.32170 0.09280 0.04000
C 	C 	0.04180 0.32440 0.05788 -0.01600
C 	C 	0.02990 0.36950 0.05623 0.27000
C 	C 	0.00030 0.38830 0.08528 -0.35700
H 	H 	0.98930 0.37180 0.10390 0.15300
C 	C 	0.98480 0.43040 0.08965 0.28400
C 	C 	0.96040 0.44630 0.12355 -0.09300
C 	C 	0.99570 0.42740 0.15220 0.02000
H 	H 	0.03100 0.40330 0.15030 0.02400
C 	C 	0.76800 0.30900 0.92949 0.07500
H 	H 	0.77450 0.28100 0.93230 0.00100
C 	C 	0.76510 0.32460 0.89716 -0.12900
H 	H 	0.77180 0.30730 0.87880 0.07800
C 	C 	0.75220 0.36600 0.89215 0.05500
C 	C 	0.74450 0.38990 0.92100 -0.12000
H 	H 	0.73550 0.41780 0.91910 0.07500
C 	C 	0.75010 0.37230 0.95234 0.06900
H 	H 	0.74570 0.38890 0.97120 0.01900
C 	C 	0.92110 0.47760 0.18690 0.00800
H 	H 	0.90670 0.48740 0.20830 0.04000
C 	C 	0.90340 0.48130 0.12640 0.01100
H 	H 	0.87880 0.49380 0.10720 0.03900
C 	C 	0.88290 0.49770 0.15830 -0.08300
H 	H 	0.84510 0.52120 0.16050 0.06000
C 	C 	0.97950 0.44380 0.18330 -0.08700
H 	H 	0.00820 0.43200 0.20210 0.07900
Cd	Cd	0.75907 0.80550 0.51054 1.24200
N 	N 	0.98490 0.80088 0.53652 -0.03100
N 	N 	0.76170 0.83235 0.45671 -0.22300
O 	O 	0.84790 0.74482 0.50421 -0.50700
O 	O 	0.95310 0.69686 0.51396 -0.31300
O 	O 	0.92630 0.82016 0.51554 -0.26000
O 	O 	0.05500 0.88593 0.52843 -0.36700
O 	O 	0.99020 0.95661 0.56663 -0.38000
C 	C 	0.92720 0.73170 0.51667 0.36500
C 	C 	0.99190 0.75930 0.53755 -0.05200
C 	C 	0.05950 0.74120 0.55900 -0.01500
H 	H 	0.06580 0.71310 0.55900 0.05400
C 	C 	0.11750 0.76410 0.58010 -0.04500
H 	H 	0.16200 0.75180 0.59480 0.04600
C 	C 	0.10760 0.80580 0.57890 -0.03100
H 	H 	0.14690 0.82170 0.59280 0.04000
C 	C 	0.04180 0.82440 0.55788 -0.01600
C 	C 	0.02990 0.86950 0.55623 0.27000
C 	C 	0.00030 0.88830 0.58528 -0.35500
H 	H 	0.98930 0.87180 0.60390 0.15300
C 	C 	0.98480 0.93040 0.58965 0.28400
C 	C 	0.96040 0.94630 0.62355 -0.09400
C 	C 	0.99570 0.92740 0.65220 0.02000
H 	H 	0.03100 0.90330 0.65030 0.02400
C 	C 	0.76800 0.80900 0.42949 0.07500
H 	H 	0.77450 0.78100 0.43230 0.00100
C 	C 	0.76510 0.82460 0.39716 -0.12900
H 	H 	0.77180 0.80730 0.37880 0.07800
C 	C 	0.75220 0.86600 0.39215 0.05500
C 	C 	0.74450 0.88990 0.42100 -0.12000
H 	H 	0.73550 0.91780 0.41910 0.07500
C 	C 	0.75010 0.87230 0.45234 0.06900
H 	H 	0.74570 0.88890 0.47120 0.01900
C 	C 	0.92110 0.97760 0.68690 0.00900
H 	H 	0.90670 0.98740 0.70830 0.04000
C 	C 	0.90340 0.98130 0.62640 0.01200
H 	H 	0.87880 0.99380 0.60720 0.03900
C 	C 	0.88290 0.99770 0.65830 -0.08500
H 	H 	0.84510 0.02120 0.66050 0.06100
C 	C 	0.97950 0.94380 0.68330 -0.08900
H 	H 	0.00820 0.93200 0.70210 0.08000
Cd	Cd	0.99093 0.94450 0.51054 1.24200
N 	N 	0.76510 0.94912 0.53652 -0.03000
N 	N 	0.98830 0.91765 0.45671 -0.22200
O 	O 	0.90210 0.00518 0.50421 -0.50700
O 	O 	0.79690 0.05314 0.51396 -0.31300
O 	O 	0.82370 0.92984 0.51554 -0.26000
O 	O 	0.69500 0.86407 0.52843 -0.36800
O 	O 	0.75980 0.79339 0.56663 -0.38000
C 	C 	0.82280 0.01830 0.51667 0.36500
C 	C 	0.75810 0.99070 0.53755 -0.05200
C 	C 	0.69050 0.00880 0.55900 -0.01500
H 	H 	0.68420 0.03690 0.55900 0.05400
C 	C 	0.63250 0.98590 0.58010 -0.04600
H 	H 	0.58800 0.99820 0.59480 0.04600
C 	C 	0.64240 0.94420 0.57890 -0.03000
H 	H 	0.60310 0.92830 0.59280 0.04000
C 	C 	0.70820 0.92560 0.55788 -0.01600
C 	C 	0.72010 0.88050 0.55623 0.27000
C 	C 	0.74970 0.86170 0.58528 -0.35700
H 	H 	0.76070 0.87820 0.60390 0.15300
C 	C 	0.76520 0.81960 0.58965 0.28400
C 	C 	0.78960 0.80370 0.62355 -0.09400
C 	C 	0.75430 0.82260 0.65220 0.02000
H 	H 	0.71900 0.84670 0.65030 0.02400
C 	C 	0.98200 0.94100 0.42949 0.07500
H 	H 	0.97550 0.96900 0.43230 0.00100
C 	C 	0.98490 0.92540 0.39716 -0.12800
H 	H 	0.97820 0.94270 0.37880 0.07800
C 	C 	0.99780 0.88400 0.39215 0.05400
C 	C 	0.00550 0.86010 0.42100 -0.11800
H 	H 	0.01450 0.83220 0.41910 0.07500
C 	C 	0.99990 0.87770 0.45234 0.06700
H 	H 	0.00430 0.86110 0.47120 0.02000
C 	C 	0.82890 0.77240 0.68690 0.00800
H 	H 	0.84330 0.76260 0.70830 0.04000
C 	C 	0.84660 0.76870 0.62640 0.01100
H 	H 	0.87120 0.75620 0.60720 0.03900
C 	C 	0.86710 0.75230 0.65830 -0.08400
H 	H 	0.90490 0.72880 0.66050 0.06000
C 	C 	0.77050 0.80620 0.68330 -0.08800
H 	H 	0.74180 0.81800 0.70210 0.07900
Cd	Cd	0.99093 0.44450 0.01054 1.24200
N 	N 	0.76510 0.44912 0.03652 -0.03000
N 	N 	0.98830 0.41765 0.95671 -0.22300
O 	O 	0.90210 0.50518 0.00421 -0.50700
O 	O 	0.79690 0.55314 0.01396 -0.31300
O 	O 	0.82370 0.42984 0.01554 -0.26000
O 	O 	0.69500 0.36407 0.02843 -0.36800
O 	O 	0.75980 0.29339 0.06663 -0.38000
C 	C 	0.82280 0.51830 0.01667 0.36500
C 	C 	0.75810 0.49070 0.03755 -0.05200
C 	C 	0.69050 0.50880 0.05900 -0.01600
H 	H 	0.68420 0.53690 0.05900 0.05400
C 	C 	0.63250 0.48590 0.08010 -0.04500
H 	H 	0.58800 0.49820 0.09480 0.04600
C 	C 	0.64240 0.44420 0.07890 -0.03100
H 	H 	0.60310 0.42830 0.09280 0.04000
C 	C 	0.70820 0.42560 0.05788 -0.01600
C 	C 	0.72010 0.38050 0.05623 0.27000
C 	C 	0.74970 0.36170 0.08528 -0.35700
H 	H 	0.76070 0.37820 0.10390 0.15300
C 	C 	0.76520 0.31960 0.08965 0.28400
C 	C 	0.78960 0.30370 0.12355 -0.09400
C 	C 	0.75430 0.32260 0.15220 0.02000
H 	H 	0.71900 0.34670 0.15030 0.02400
C 	C 	0.98200 0.44100 0.92949 0.07600
H 	H 	0.97550 0.46900 0.93230 0.00100
C 	C 	0.98490 0.42540 0.89716 -0.12900
H 	H 	0.97820 0.44270 0.87880 0.07800
C 	C 	0.99780 0.38400 0.89215 0.05500
C 	C 	0.00550 0.36010 0.92100 -0.12000
H 	H 	0.01450 0.33220 0.91910 0.07500
C 	C 	0.99990 0.37770 0.95234 0.06900
H 	H 	0.00430 0.36110 0.97120 0.01900
C 	C 	0.82890 0.27240 0.18690 0.00800
H 	H 	0.84330 0.26260 0.20830 0.04000
C 	C 	0.84660 0.26870 0.12640 0.01100
H 	H 	0.87120 0.25620 0.10720 0.03900
C 	C 	0.86710 0.25230 0.15830 -0.08400
H 	H 	0.90490 0.22880 0.16050 0.06000
C 	C 	0.77050 0.30620 0.18330 -0.08800
H 	H 	0.74180 0.31800 0.20210 0.07900
Cd	Cd	0.49093 0.94450 0.01054 1.24200
N 	N 	0.26510 0.94912 0.03652 -0.03100
N 	N 	0.48830 0.91765 0.95671 -0.22300
O 	O 	0.40210 0.00518 0.00421 -0.50700
O 	O 	0.29690 0.05314 0.01396 -0.31300
O 	O 	0.32370 0.92984 0.01554 -0.26000
O 	O 	0.19500 0.86407 0.02843 -0.36700
O 	O 	0.25980 0.79339 0.06663 -0.38000
C 	C 	0.32280 0.01830 0.01667 0.36400
C 	C 	0.25810 0.99070 0.03755 -0.05100
C 	C 	0.19050 0.00880 0.05900 -0.01700
H 	H 	0.18420 0.03690 0.05900 0.05400
C 	C 	0.13250 0.98590 0.08010 -0.04400
H 	H 	0.08800 0.99820 0.09480 0.04600
C 	C 	0.14240 0.94420 0.07890 -0.03100
H 	H 	0.10310 0.92830 0.09280 0.04000
C 	C 	0.20820 0.92560 0.05788 -0.01600
C 	C 	0.22010 0.88050 0.05623 0.27000
C 	C 	0.24970 0.86170 0.08528 -0.35700
H 	H 	0.26070 0.87820 0.10390 0.15300
C 	C 	0.26520 0.81960 0.08965 0.28400
C 	C 	0.28960 0.80370 0.12355 -0.09400
C 	C 	0.25430 0.82260 0.15220 0.02000
H 	H 	0.21900 0.84670 0.15030 0.02400
C 	C 	0.48200 0.94100 0.92949 0.07500
H 	H 	0.47550 0.96900 0.93230 0.00100
C 	C 	0.48490 0.92540 0.89716 -0.12900
H 	H 	0.47820 0.94270 0.87880 0.07800
C 	C 	0.49780 0.88400 0.89215 0.05500
C 	C 	0.50550 0.86010 0.92100 -0.12000
H 	H 	0.51450 0.83220 0.91910 0.07500
C 	C 	0.49990 0.87770 0.95234 0.06900
H 	H 	0.50430 0.86110 0.97120 0.01900
C 	C 	0.32890 0.77240 0.18690 0.00800
H 	H 	0.34330 0.76260 0.20830 0.04000
C 	C 	0.34660 0.76870 0.12640 0.01100
H 	H 	0.37120 0.75620 0.10720 0.03900
C 	C 	0.36710 0.75230 0.15830 -0.08400
H 	H 	0.40490 0.72880 0.16050 0.06000
C 	C 	0.27050 0.80620 0.18330 -0.08800
H 	H 	0.24180 0.81800 0.20210 0.07900
Cd	Cd	0.49093 0.44450 0.51054 1.24200
N 	N 	0.26510 0.44912 0.53652 -0.03000
N 	N 	0.48830 0.41765 0.45671 -0.22300
O 	O 	0.40210 0.50518 0.50421 -0.50700
O 	O 	0.29690 0.55314 0.51396 -0.31300
O 	O 	0.32370 0.42984 0.51554 -0.26000
O 	O 	0.19500 0.36407 0.52843 -0.36800
O 	O 	0.25980 0.29339 0.56663 -0.38000
C 	C 	0.32280 0.51830 0.51667 0.36500
C 	C 	0.25810 0.49070 0.53755 -0.05200
C 	C 	0.19050 0.50880 0.55900 -0.01600
H 	H 	0.18420 0.53690 0.55900 0.05400
C 	C 	0.13250 0.48590 0.58010 -0.04500
H 	H 	0.08800 0.49820 0.59480 0.04600
C 	C 	0.14240 0.44420 0.57890 -0.03100
H 	H 	0.10310 0.42830 0.59280 0.04000
C 	C 	0.20820 0.42560 0.55788 -0.01600
C 	C 	0.22010 0.38050 0.55623 0.27000
C 	C 	0.24970 0.36170 0.58528 -0.35700
H 	H 	0.26070 0.37820 0.60390 0.15300
C 	C 	0.26520 0.31960 0.58965 0.28400
C 	C 	0.28960 0.30370 0.62355 -0.09400
C 	C 	0.25430 0.32260 0.65220 0.02000
H 	H 	0.21900 0.34670 0.65030 0.02400
C 	C 	0.48200 0.44100 0.42949 0.07500
H 	H 	0.47550 0.46900 0.43230 0.00100
C 	C 	0.48490 0.42540 0.39716 -0.12900
H 	H 	0.47820 0.44270 0.37880 0.07800
C 	C 	0.49780 0.38400 0.39215 0.05500
C 	C 	0.50550 0.36010 0.42100 -0.12000
H 	H 	0.51450 0.33220 0.41910 0.07500
C 	C 	0.49990 0.37770 0.45234 0.06900
H 	H 	0.50430 0.36110 0.47120 0.01900
C 	C 	0.32890 0.27240 0.68690 0.00800
H 	H 	0.34330 0.26260 0.70830 0.04000
C 	C 	0.34660 0.26870 0.62640 0.01100
H 	H 	0.37120 0.25620 0.60720 0.03900
C 	C 	0.36710 0.25230 0.65830 -0.08400
H 	H 	0.40490 0.22880 0.66050 0.06000
C 	C 	0.27050 0.30620 0.68330 -0.08800
H 	H 	0.24180 0.31800 0.70210 0.07900
