data_crystal

_cell_length_a 38.59600
_cell_length_b 15.27900
_cell_length_c 23.60000
_cell_angle_alpha 90.00000
_cell_angle_beta  101.29000
_cell_angle_gamma 90.00000

_symmetry_space_group_name_	'P 1'
_symmetry_space_group_name_H-M	'P 1'

loop_
_symmetry_equiv_pos_as_xyz
  x,y,z

loop_
_atom_site_label
_atom_site_type_symbol
_atom_site_fract_x
_atom_site_fract_y
_atom_site_fract_z
_atom_site_charge
Zn	Zn	0.25603 0.87902 0.37174 1.24600
Zn	Zn	0.18682 0.99616 0.30468 1.24900
C 	C 	0.20455 0.76810 0.21220 -0.06000
C 	C 	0.22564 0.69670 0.20870 0.01900
H 	H 	0.24630 0.68910 0.23600 0.06100
C 	C 	0.21646 0.63620 0.16500 -0.06300
C 	C 	0.18606 0.64850 0.12460 -0.07100
H 	H 	0.17930 0.60780 0.09520 0.09000
C 	C 	0.16590 0.72030 0.12770 0.14000
C 	C 	0.17420 0.78000 0.17040 -0.07700
H 	H 	0.15980 0.82840 0.17170 0.10400
C 	C 	0.21391 0.83280 0.26050 0.40900
C 	C 	0.23834 0.55650 0.16300 0.40700
C 	C 	0.13757 0.79090 0.03810 0.23000
C 	C 	0.10614 0.81020 0.99440 -0.04900
C 	C 	0.10838 0.86760 0.95170 -0.01800
H 	H 	0.12970 0.89470 0.95010 0.06700
C 	C 	0.07770 0.88600 0.90940 -0.01600
H 	H 	0.07910 0.92510 0.87970 0.06200
C 	C 	0.04616 0.84630 0.91190 -0.05700
C 	C 	0.01518 0.86110 0.86700 0.22800
C 	C 	0.98093 0.76090 0.91580 0.23400
C 	C 	0.01206 0.74500 0.96070 -0.05600
C 	C 	0.01065 0.68910 0.00520 -0.01900
H 	H 	0.98960 0.66140 0.00780 0.06900
C 	C 	0.04110 0.67360 0.04700 -0.02300
H 	H 	0.03980 0.63630 0.07760 0.06900
C 	C 	0.07219 0.71120 0.04410 -0.05600
C 	C 	0.10351 0.68950 0.08840 0.22400
C 	C 	0.07485 0.76940 -0.00000 0.03000
C 	C 	0.04397 0.78780 0.95730 0.03800
C 	C 	0.95617 0.81450 0.81990 0.14900
C 	C 	0.95828 0.75570 0.77660 -0.08400
H 	H 	0.97750 0.71810 0.77980 0.10200
C 	C 	0.93162 0.75320 0.72870 -0.04600
C 	C 	0.90389 0.81230 0.72540 0.00200
H 	H 	0.88550 0.81100 0.69340 0.07600
C 	C 	0.90310 0.87180 0.76780 -0.03500
C 	C 	0.92983 0.87400 0.81590 -0.08900
H 	H 	0.92980 0.91520 0.84490 0.09700
C 	C 	0.93320 0.69110 0.68150 0.39900
C 	C 	0.87330 0.93850 0.76060 0.37700
C 	C 	0.16767 0.86960 0.45400 -0.08100
C 	C 	0.13454 0.90250 0.45540 -0.05900
H 	H 	0.12410 0.94380 0.42840 0.08100
C 	C 	0.11724 0.87300 0.49770 0.13100
C 	C 	0.13239 0.81430 0.53840 -0.07500
H 	H 	0.12030 0.79600 0.56670 0.10000
C 	C 	0.16572 0.78170 0.53780 -0.05600
C 	C 	0.18301 0.81130 0.49510 0.02200
H 	H 	0.20560 0.79080 0.49460 0.06100
C 	C 	0.18668 0.90140 0.40860 0.43300
C 	C 	0.18316 0.71950 0.58180 0.36400
C 	C 	0.05400 0.87630 0.45970 0.23400
C 	C 	0.01998 0.91680 0.45930 -0.06300
C 	C 	0.99118 0.88970 0.42020 -0.01500
H 	H 	0.99330 0.84660 0.39330 0.06600
C 	C 	0.04246 0.07100 0.57860 -0.02600
H 	H 	0.06220 0.08780 0.60580 0.07000
C 	C 	0.04578 0.01060 0.53900 -0.05800
C 	C 	0.08136 0.97360 0.53860 0.22900
C 	C 	0.01651 0.98120 0.49900 0.03500
N 	N 	0.13421 0.73550 0.08330 -0.18100
N 	N 	0.98496 0.81430 0.87070 -0.18600
N 	N 	0.08242 0.90920 0.49980 -0.18700
O 	O 	0.24125 0.82070 0.29768 -0.47600
O 	O 	0.19257 0.89470 0.26049 -0.49300
O 	O 	0.22394 0.48990 0.13819 -0.49300
O 	O 	0.27044 0.56400 0.18630 -0.49100
O 	O 	0.95995 0.65380 0.67790 -0.27800
O 	O 	0.90455 0.68640 0.64420 -0.48700
H 	H 	0.90690 0.65090 0.61910 0.29600
O 	O 	0.84787 0.92210 0.72140 -0.46600
O 	O 	0.87560 0.00180 0.79060 -0.28900
O 	O 	0.10388 0.63920 0.12700 -0.21000
O 	O 	0.16563 0.82310 0.03630 -0.21200
O 	O 	0.01544 0.91190 0.82820 -0.20900
O 	O 	0.95293 0.72830 0.91720 -0.21400
O 	O 	0.21646 0.87020 0.40931 -0.50800
O 	O 	0.17253 0.95730 0.37370 -0.49600
O 	O 	0.21411 0.69850 0.57949 -0.45300
O 	O 	0.16765 0.69130 0.61850 -0.26700
O 	O 	0.10763 0.00030 0.56920 -0.21300
O 	O 	0.05796 0.81990 0.42680 -0.21600
Zn	Zn	0.75603 0.37902 0.37174 1.24500
Zn	Zn	0.68682 0.49616 0.30468 1.24800
C 	C 	0.70455 0.26810 0.21220 -0.06100
C 	C 	0.72564 0.19670 0.20870 0.01700
H 	H 	0.74630 0.18910 0.23600 0.06000
C 	C 	0.71646 0.13620 0.16500 -0.06400
C 	C 	0.68606 0.14850 0.12460 -0.07200
H 	H 	0.67930 0.10780 0.09520 0.08900
C 	C 	0.66590 0.22030 0.12770 0.13900
C 	C 	0.67420 0.28000 0.17040 -0.07900
H 	H 	0.65980 0.32840 0.17170 0.10300
C 	C 	0.71391 0.33280 0.26050 0.40800
C 	C 	0.73834 0.05650 0.16300 0.40500
C 	C 	0.63757 0.29090 0.03810 0.22900
C 	C 	0.60614 0.31020 0.99440 -0.05000
C 	C 	0.60838 0.36760 0.95170 -0.01900
H 	H 	0.62970 0.39470 0.95010 0.06600
C 	C 	0.57770 0.38600 0.90940 -0.01700
H 	H 	0.57910 0.42510 0.87970 0.06100
C 	C 	0.54616 0.34630 0.91190 -0.05800
C 	C 	0.51518 0.36110 0.86700 0.22700
C 	C 	0.48093 0.26090 0.91580 0.23300
C 	C 	0.51206 0.24500 0.96070 -0.05700
C 	C 	0.51065 0.18910 0.00520 -0.02000
H 	H 	0.48960 0.16140 0.00780 0.06800
C 	C 	0.54110 0.17360 0.04700 -0.02400
H 	H 	0.53980 0.13630 0.07760 0.06900
C 	C 	0.57219 0.21120 0.04410 -0.05500
C 	C 	0.60351 0.18950 0.08840 0.22400
C 	C 	0.57485 0.26940 -0.00000 0.03000
C 	C 	0.54397 0.28780 0.95730 0.03800
C 	C 	0.45617 0.31450 0.81990 0.14900
C 	C 	0.45828 0.25570 0.77660 -0.08400
H 	H 	0.47750 0.21810 0.77980 0.10200
C 	C 	0.43162 0.25320 0.72870 -0.04600
C 	C 	0.40389 0.31230 0.72540 0.00200
H 	H 	0.38550 0.31100 0.69340 0.07600
C 	C 	0.40310 0.37180 0.76780 -0.03500
C 	C 	0.42983 0.37400 0.81590 -0.08900
H 	H 	0.42980 0.41520 0.84490 0.09700
C 	C 	0.43320 0.19110 0.68150 0.39900
C 	C 	0.37330 0.43850 0.76060 0.37700
C 	C 	0.66767 0.36960 0.45400 -0.08100
C 	C 	0.63454 0.40250 0.45540 -0.05800
H 	H 	0.62410 0.44380 0.42840 0.08000
C 	C 	0.61724 0.37300 0.49770 0.13100
C 	C 	0.63239 0.31430 0.53840 -0.07500
H 	H 	0.62030 0.29600 0.56670 0.10000
C 	C 	0.66572 0.28170 0.53780 -0.05600
C 	C 	0.68301 0.31130 0.49510 0.02200
H 	H 	0.70560 0.29080 0.49460 0.06100
C 	C 	0.68668 0.40140 0.40860 0.43300
C 	C 	0.68316 0.21950 0.58180 0.36400
C 	C 	0.55400 0.37630 0.45970 0.23300
C 	C 	0.51998 0.41680 0.45930 -0.06200
C 	C 	0.49118 0.38970 0.42020 -0.01500
H 	H 	0.49330 0.34660 0.39330 0.06600
C 	C 	0.54246 0.57100 0.57860 -0.02600
H 	H 	0.56220 0.58780 0.60580 0.07000
C 	C 	0.54578 0.51060 0.53900 -0.05700
C 	C 	0.58136 0.47360 0.53860 0.22900
C 	C 	0.51651 0.48120 0.49900 0.03500
N 	N 	0.63421 0.23550 0.08330 -0.18100
N 	N 	0.48496 0.31430 0.87070 -0.18600
N 	N 	0.58242 0.40920 0.49980 -0.18700
O 	O 	0.74125 0.32070 0.29768 -0.47600
O 	O 	0.69257 0.39470 0.26049 -0.49300
O 	O 	0.72394 0.98990 0.13819 -0.49300
O 	O 	0.77044 0.06400 0.18630 -0.49100
O 	O 	0.45995 0.15380 0.67790 -0.27800
O 	O 	0.40455 0.18640 0.64420 -0.48700
H 	H 	0.40690 0.15090 0.61910 0.29600
O 	O 	0.34787 0.42210 0.72140 -0.46600
O 	O 	0.37560 0.50180 0.79060 -0.28900
O 	O 	0.60388 0.13920 0.12700 -0.21000
O 	O 	0.66563 0.32310 0.03630 -0.21200
O 	O 	0.51544 0.41190 0.82820 -0.20900
O 	O 	0.45293 0.22830 0.91720 -0.21400
O 	O 	0.71646 0.37020 0.40931 -0.50800
O 	O 	0.67253 0.45730 0.37370 -0.49600
O 	O 	0.71411 0.19850 0.57949 -0.45300
O 	O 	0.66765 0.19130 0.61850 -0.26700
O 	O 	0.60763 0.50030 0.56920 -0.21300
O 	O 	0.55796 0.31990 0.42680 -0.21600
Zn	Zn	0.74397 0.87902 0.12826 1.24500
Zn	Zn	0.81318 0.99616 0.19532 1.24800
C 	C 	0.79545 0.76810 0.28780 -0.06100
C 	C 	0.77436 0.69670 0.29130 0.01700
H 	H 	0.75370 0.68910 0.26400 0.06000
C 	C 	0.78354 0.63620 0.33500 -0.06400
C 	C 	0.81394 0.64850 0.37540 -0.07200
H 	H 	0.82070 0.60780 0.40480 0.09000
C 	C 	0.83410 0.72030 0.37230 0.13900
C 	C 	0.82580 0.78000 0.32960 -0.07900
H 	H 	0.84020 0.82840 0.32830 0.10300
C 	C 	0.78609 0.83280 0.23950 0.40800
C 	C 	0.76166 0.55650 0.33700 0.40600
C 	C 	0.86243 0.79090 0.46190 0.23000
C 	C 	0.89386 0.81020 0.50560 -0.05300
C 	C 	0.89162 0.86760 0.54830 -0.01700
H 	H 	0.87030 0.89470 0.54990 0.06500
C 	C 	0.92230 0.88600 0.59060 -0.01900
H 	H 	0.92090 0.92510 0.62030 0.06200
C 	C 	0.95384 0.84630 0.58810 -0.05700
C 	C 	0.98482 0.86110 0.63300 0.22700
C 	C 	0.01907 0.76090 0.58420 0.23300
C 	C 	0.98794 0.74500 0.53930 -0.05700
C 	C 	0.98935 0.68910 0.49480 -0.01900
H 	H 	0.01040 0.66140 0.49220 0.06800
C 	C 	0.95890 0.67360 0.45300 -0.02400
H 	H 	0.96020 0.63630 0.42240 0.06900
C 	C 	0.92781 0.71120 0.45590 -0.05700
C 	C 	0.89649 0.68950 0.41160 0.22500
C 	C 	0.92515 0.76940 0.50000 0.03300
C 	C 	0.95603 0.78780 0.54270 0.03600
C 	C 	0.04383 0.81450 0.68010 0.14900
C 	C 	0.04172 0.75570 0.72340 -0.08400
H 	H 	0.02250 0.71810 0.72020 0.10200
C 	C 	0.06838 0.75320 0.77130 -0.04600
C 	C 	0.09611 0.81230 0.77460 0.00200
H 	H 	0.11450 0.81100 0.80660 0.07600
C 	C 	0.09690 0.87180 0.73220 -0.03500
C 	C 	0.07017 0.87400 0.68410 -0.08900
H 	H 	0.07020 0.91520 0.65510 0.09700
C 	C 	0.06680 0.69110 0.81850 0.39900
C 	C 	0.12670 0.93850 0.73940 0.37700
C 	C 	0.83233 0.86960 0.04600 -0.08000
C 	C 	0.86546 0.90250 0.04460 -0.05800
H 	H 	0.87590 0.94380 0.07160 0.08000
C 	C 	0.88276 0.87300 0.00230 0.13000
C 	C 	0.86761 0.81430 0.96160 -0.07400
H 	H 	0.87970 0.79600 0.93330 0.10000
C 	C 	0.83428 0.78170 0.96220 -0.05500
C 	C 	0.81699 0.81130 0.00490 0.02000
H 	H 	0.79440 0.79080 0.00540 0.06100
C 	C 	0.81332 0.90140 0.09140 0.43300
C 	C 	0.81684 0.71950 0.91820 0.36400
C 	C 	0.94600 0.87630 0.04030 0.23300
C 	C 	0.98002 0.91680 0.04070 -0.06100
C 	C 	0.00882 0.88970 0.07980 -0.01700
H 	H 	0.00670 0.84660 0.10670 0.06700
C 	C 	0.95754 0.07100 0.92140 -0.02800
H 	H 	0.93780 0.08780 0.89420 0.07000
C 	C 	0.95422 0.01060 0.96100 -0.05500
C 	C 	0.91864 0.97360 0.96140 0.22900
C 	C 	0.98349 0.98120 0.00100 0.03200
N 	N 	0.86579 0.73550 0.41670 -0.18100
N 	N 	0.01504 0.81430 0.62930 -0.18600
N 	N 	0.91758 0.90920 0.00020 -0.18700
O 	O 	0.75875 0.82070 0.20232 -0.47600
O 	O 	0.80743 0.89470 0.23951 -0.49300
O 	O 	0.77606 0.48990 0.36181 -0.49300
O 	O 	0.72956 0.56400 0.31370 -0.49100
O 	O 	0.04005 0.65380 0.82210 -0.27800
O 	O 	0.09545 0.68640 0.85580 -0.48700
H 	H 	0.09310 0.65090 0.88090 0.29600
O 	O 	0.15213 0.92210 0.77860 -0.46600
O 	O 	0.12440 0.00180 0.70940 -0.28900
O 	O 	0.89612 0.63920 0.37300 -0.21000
O 	O 	0.83437 0.82310 0.46370 -0.21300
O 	O 	0.98456 0.91190 0.67180 -0.20900
O 	O 	0.04707 0.72830 0.58280 -0.21400
O 	O 	0.78354 0.87020 0.09069 -0.50800
O 	O 	0.82747 0.95730 0.12630 -0.49600
O 	O 	0.78589 0.69850 0.92051 -0.45200
O 	O 	0.83235 0.69130 0.88150 -0.26700
O 	O 	0.89237 0.00030 0.93080 -0.21300
O 	O 	0.94204 0.81990 0.07320 -0.21600
Zn	Zn	0.24397 0.37902 0.12826 1.24500
Zn	Zn	0.31318 0.49616 0.19532 1.24800
C 	C 	0.29545 0.26810 0.28780 -0.06100
C 	C 	0.27436 0.19670 0.29130 0.01700
H 	H 	0.25370 0.18910 0.26400 0.06000
C 	C 	0.28354 0.13620 0.33500 -0.06400
C 	C 	0.31394 0.14850 0.37540 -0.07200
H 	H 	0.32070 0.10780 0.40480 0.09000
C 	C 	0.33410 0.22030 0.37230 0.13900
C 	C 	0.32580 0.28000 0.32960 -0.07900
H 	H 	0.34020 0.32840 0.32830 0.10300
C 	C 	0.28609 0.33280 0.23950 0.40800
C 	C 	0.26166 0.05650 0.33700 0.40500
C 	C 	0.36243 0.29090 0.46190 0.23000
C 	C 	0.39386 0.31020 0.50560 -0.05300
C 	C 	0.39162 0.36760 0.54830 -0.01700
H 	H 	0.37030 0.39470 0.54990 0.06500
C 	C 	0.42230 0.38600 0.59060 -0.01900
H 	H 	0.42090 0.42510 0.62030 0.06200
C 	C 	0.45384 0.34630 0.58810 -0.05700
C 	C 	0.48482 0.36110 0.63300 0.22700
C 	C 	0.51907 0.26090 0.58420 0.23300
C 	C 	0.48794 0.24500 0.53930 -0.05700
C 	C 	0.48935 0.18910 0.49480 -0.01900
H 	H 	0.51040 0.16140 0.49220 0.06800
C 	C 	0.45890 0.17360 0.45300 -0.02400
H 	H 	0.46020 0.13630 0.42240 0.06900
C 	C 	0.42781 0.21120 0.45590 -0.05700
C 	C 	0.39649 0.18950 0.41160 0.22500
C 	C 	0.42515 0.26940 0.50000 0.03300
C 	C 	0.45603 0.28780 0.54270 0.03600
C 	C 	0.54383 0.31450 0.68010 0.14900
C 	C 	0.54172 0.25570 0.72340 -0.08400
H 	H 	0.52250 0.21810 0.72020 0.10200
C 	C 	0.56838 0.25320 0.77130 -0.04600
C 	C 	0.59611 0.31230 0.77460 0.00200
H 	H 	0.61450 0.31100 0.80660 0.07600
C 	C 	0.59690 0.37180 0.73220 -0.03500
C 	C 	0.57017 0.37400 0.68410 -0.08900
H 	H 	0.57020 0.41520 0.65510 0.09700
C 	C 	0.56680 0.19110 0.81850 0.39900
C 	C 	0.62670 0.43850 0.73940 0.37700
C 	C 	0.33233 0.36960 0.04600 -0.08000
C 	C 	0.36546 0.40250 0.04460 -0.05800
H 	H 	0.37590 0.44380 0.07160 0.08000
C 	C 	0.38276 0.37300 0.00230 0.13000
C 	C 	0.36761 0.31430 0.96160 -0.07400
H 	H 	0.37970 0.29600 0.93330 0.10000
C 	C 	0.33428 0.28170 0.96220 -0.05500
C 	C 	0.31699 0.31130 0.00490 0.02000
H 	H 	0.29440 0.29080 0.00540 0.06100
C 	C 	0.31332 0.40140 0.09140 0.43300
C 	C 	0.31684 0.21950 0.91820 0.36400
C 	C 	0.44600 0.37630 0.04030 0.23300
C 	C 	0.48002 0.41680 0.04070 -0.06000
C 	C 	0.50882 0.38970 0.07980 -0.01700
H 	H 	0.50670 0.34660 0.10670 0.06700
C 	C 	0.45754 0.57100 0.92140 -0.02800
H 	H 	0.43780 0.58780 0.89420 0.07100
C 	C 	0.45422 0.51060 0.96100 -0.05500
C 	C 	0.41864 0.47360 0.96140 0.22900
C 	C 	0.48349 0.48120 0.00100 0.03100
N 	N 	0.36579 0.23550 0.41670 -0.18100
N 	N 	0.51504 0.31430 0.62930 -0.18600
N 	N 	0.41758 0.40920 0.00020 -0.18700
O 	O 	0.25875 0.32070 0.20232 -0.47600
O 	O 	0.30743 0.39470 0.23951 -0.49300
O 	O 	0.27606 0.98990 0.36181 -0.49300
O 	O 	0.22956 0.06400 0.31370 -0.49100
O 	O 	0.54005 0.15380 0.82210 -0.27800
O 	O 	0.59545 0.18640 0.85580 -0.48700
H 	H 	0.59310 0.15090 0.88090 0.29600
O 	O 	0.65213 0.42210 0.77860 -0.46600
O 	O 	0.62440 0.50180 0.70940 -0.28900
O 	O 	0.39612 0.13920 0.37300 -0.21000
O 	O 	0.33437 0.32310 0.46370 -0.21300
O 	O 	0.48456 0.41190 0.67180 -0.20900
O 	O 	0.54707 0.22830 0.58280 -0.21400
O 	O 	0.28354 0.37020 0.09069 -0.50800
O 	O 	0.32747 0.45730 0.12630 -0.49600
O 	O 	0.28589 0.19850 0.92051 -0.45200
O 	O 	0.33235 0.19130 0.88150 -0.26700
O 	O 	0.39237 0.50030 0.93080 -0.21300
O 	O 	0.44204 0.31990 0.07320 -0.21600
Zn	Zn	0.74397 0.12098 0.62826 1.24500
Zn	Zn	0.81318 0.00384 0.69532 1.24800
C 	C 	0.79545 0.23190 0.78780 -0.06100
C 	C 	0.77436 0.30330 0.79130 0.01700
H 	H 	0.75370 0.31090 0.76400 0.06000
C 	C 	0.78354 0.36380 0.83500 -0.06400
C 	C 	0.81394 0.35150 0.87540 -0.07200
H 	H 	0.82070 0.39220 0.90480 0.09000
C 	C 	0.83410 0.27970 0.87230 0.14000
C 	C 	0.82580 0.22000 0.82960 -0.07900
H 	H 	0.84020 0.17160 0.82830 0.10300
C 	C 	0.78609 0.16720 0.73950 0.40800
C 	C 	0.76166 0.44350 0.83700 0.40600
C 	C 	0.86243 0.20910 0.96190 0.23100
C 	C 	0.89386 0.18980 0.00560 -0.05400
C 	C 	0.89162 0.13240 0.04830 -0.01700
H 	H 	0.87030 0.10530 0.04990 0.06500
C 	C 	0.92230 0.11400 0.09060 -0.01900
H 	H 	0.92090 0.07490 0.12030 0.06200
C 	C 	0.95384 0.15370 0.08810 -0.05800
C 	C 	0.98482 0.13890 0.13300 0.22700
C 	C 	0.01907 0.23910 0.08420 0.23400
C 	C 	0.98794 0.25500 0.03930 -0.06000
C 	C 	0.98935 0.31090 0.99480 -0.01600
H 	H 	0.01040 0.33860 0.99220 0.06800
C 	C 	0.95890 0.32640 0.95300 -0.02600
H 	H 	0.96020 0.36370 0.92240 0.07000
C 	C 	0.92781 0.28880 0.95590 -0.05400
C 	C 	0.89649 0.31050 0.91160 0.22400
C 	C 	0.92515 0.23060 -0.00000 0.03100
C 	C 	0.95603 0.21220 0.04270 0.03800
C 	C 	0.04383 0.18550 0.18010 0.14900
C 	C 	0.04172 0.24430 0.22340 -0.08400
H 	H 	0.02250 0.28190 0.22020 0.10200
C 	C 	0.06838 0.24680 0.27130 -0.04600
C 	C 	0.09611 0.18770 0.27460 0.00200
H 	H 	0.11450 0.18900 0.30660 0.07600
C 	C 	0.09690 0.12820 0.23220 -0.03500
C 	C 	0.07017 0.12600 0.18410 -0.08900
H 	H 	0.07020 0.08480 0.15510 0.09700
C 	C 	0.06680 0.30890 0.31850 0.39900
C 	C 	0.12670 0.06150 0.23940 0.37700
C 	C 	0.83233 0.13040 0.54600 -0.08100
C 	C 	0.86546 0.09750 0.54460 -0.05800
H 	H 	0.87590 0.05620 0.57160 0.08000
C 	C 	0.88276 0.12700 0.50230 0.13100
C 	C 	0.86761 0.18570 0.46160 -0.07500
H 	H 	0.87970 0.20400 0.43330 0.10000
C 	C 	0.83428 0.21830 0.46220 -0.05600
C 	C 	0.81699 0.18870 0.50490 0.02200
H 	H 	0.79440 0.20920 0.50540 0.06100
C 	C 	0.81332 0.09860 0.59140 0.43300
C 	C 	0.81684 0.28050 0.41820 0.36400
C 	C 	0.94600 0.12370 0.54030 0.23300
C 	C 	0.98002 0.08320 0.54070 -0.06200
C 	C 	0.00882 0.11030 0.57980 -0.01600
H 	H 	0.00670 0.15340 0.60670 0.06600
C 	C 	0.95754 0.92900 0.42140 -0.02700
H 	H 	0.93780 0.91220 0.39420 0.07000
C 	C 	0.95422 0.98940 0.46100 -0.05700
C 	C 	0.91864 0.02640 0.46140 0.22800
C 	C 	0.98349 0.01880 0.50100 0.03400
N 	N 	0.86579 0.26450 0.91670 -0.18100
N 	N 	0.01504 0.18570 0.12930 -0.18600
N 	N 	0.91758 0.09080 0.50020 -0.18700
O 	O 	0.75875 0.17930 0.70232 -0.47600
O 	O 	0.80743 0.10530 0.73951 -0.49300
O 	O 	0.77606 0.51010 0.86181 -0.49300
O 	O 	0.72956 0.43600 0.81370 -0.49100
O 	O 	0.04005 0.34620 0.32210 -0.27800
O 	O 	0.09545 0.31360 0.35580 -0.48700
H 	H 	0.09310 0.34910 0.38090 0.29600
O 	O 	0.15213 0.07790 0.27860 -0.46600
O 	O 	0.12440 0.99820 0.20940 -0.28800
O 	O 	0.89612 0.36080 0.87300 -0.21000
O 	O 	0.83437 0.17690 0.96370 -0.21200
O 	O 	0.98456 0.08810 0.17180 -0.20900
O 	O 	0.04707 0.27170 0.08280 -0.21500
O 	O 	0.78354 0.12980 0.59069 -0.50800
O 	O 	0.82747 0.04270 0.62630 -0.49600
O 	O 	0.78589 0.30150 0.42051 -0.45300
O 	O 	0.83235 0.30870 0.38150 -0.26700
O 	O 	0.89237 0.99970 0.43080 -0.21300
O 	O 	0.94204 0.18010 0.57320 -0.21600
Zn	Zn	0.24397 0.62098 0.62826 1.24500
Zn	Zn	0.31318 0.50384 0.69532 1.24800
C 	C 	0.29545 0.73190 0.78780 -0.06100
C 	C 	0.27436 0.80330 0.79130 0.01700
H 	H 	0.25370 0.81090 0.76400 0.06000
C 	C 	0.28354 0.86380 0.83500 -0.06400
C 	C 	0.31394 0.85150 0.87540 -0.07200
H 	H 	0.32070 0.89220 0.90480 0.09000
C 	C 	0.33410 0.77970 0.87230 0.14000
C 	C 	0.32580 0.72000 0.82960 -0.07900
H 	H 	0.34020 0.67160 0.82830 0.10300
C 	C 	0.28609 0.66720 0.73950 0.40800
C 	C 	0.26166 0.94350 0.83700 0.40600
C 	C 	0.36243 0.70910 0.96190 0.23100
C 	C 	0.39386 0.68980 0.00560 -0.05400
C 	C 	0.39162 0.63240 0.04830 -0.01700
H 	H 	0.37030 0.60530 0.04990 0.06500
C 	C 	0.42230 0.61400 0.09060 -0.01900
H 	H 	0.42090 0.57490 0.12030 0.06200
C 	C 	0.45384 0.65370 0.08810 -0.05800
C 	C 	0.48482 0.63890 0.13300 0.22700
C 	C 	0.51907 0.73910 0.08420 0.23400
C 	C 	0.48794 0.75500 0.03930 -0.05900
C 	C 	0.48935 0.81090 0.99480 -0.01600
H 	H 	0.51040 0.83860 0.99220 0.06800
C 	C 	0.45890 0.82640 0.95300 -0.02600
H 	H 	0.46020 0.86370 0.92240 0.07000
C 	C 	0.42781 0.78880 0.95590 -0.05500
C 	C 	0.39649 0.81050 0.91160 0.22400
C 	C 	0.42515 0.73060 -0.00000 0.03100
C 	C 	0.45603 0.71220 0.04270 0.03700
C 	C 	0.54383 0.68550 0.18010 0.14900
C 	C 	0.54172 0.74430 0.22340 -0.08400
H 	H 	0.52250 0.78190 0.22020 0.10200
C 	C 	0.56838 0.74680 0.27130 -0.04600
C 	C 	0.59611 0.68770 0.27460 0.00200
H 	H 	0.61450 0.68900 0.30660 0.07600
C 	C 	0.59690 0.62820 0.23220 -0.03500
C 	C 	0.57017 0.62600 0.18410 -0.08900
H 	H 	0.57020 0.58480 0.15510 0.09700
C 	C 	0.56680 0.80890 0.31850 0.39900
C 	C 	0.62670 0.56150 0.23940 0.37700
C 	C 	0.33233 0.63040 0.54600 -0.08100
C 	C 	0.36546 0.59750 0.54460 -0.05800
H 	H 	0.37590 0.55620 0.57160 0.08000
C 	C 	0.38276 0.62700 0.50230 0.13100
C 	C 	0.36761 0.68570 0.46160 -0.07500
H 	H 	0.37970 0.70400 0.43330 0.10000
C 	C 	0.33428 0.71830 0.46220 -0.05600
C 	C 	0.31699 0.68870 0.50490 0.02200
H 	H 	0.29440 0.70920 0.50540 0.06100
C 	C 	0.31332 0.59860 0.59140 0.43300
C 	C 	0.31684 0.78050 0.41820 0.36400
C 	C 	0.44600 0.62370 0.54030 0.23300
C 	C 	0.48002 0.58320 0.54070 -0.06200
C 	C 	0.50882 0.61030 0.57980 -0.01500
H 	H 	0.50670 0.65340 0.60670 0.06600
C 	C 	0.45754 0.42900 0.42140 -0.02600
H 	H 	0.43780 0.41220 0.39420 0.07000
C 	C 	0.45422 0.48940 0.46100 -0.05700
C 	C 	0.41864 0.52640 0.46140 0.22900
C 	C 	0.48349 0.51880 0.50100 0.03500
N 	N 	0.36579 0.76450 0.91670 -0.18100
N 	N 	0.51504 0.68570 0.12930 -0.18600
N 	N 	0.41758 0.59080 0.50020 -0.18700
O 	O 	0.25875 0.67930 0.70232 -0.47600
O 	O 	0.30743 0.60530 0.73951 -0.49300
O 	O 	0.27606 0.01010 0.86181 -0.49300
O 	O 	0.22956 0.93600 0.81370 -0.49100
O 	O 	0.54005 0.84620 0.32210 -0.27800
O 	O 	0.59545 0.81360 0.35580 -0.48700
H 	H 	0.59310 0.84910 0.38090 0.29600
O 	O 	0.65213 0.57790 0.27860 -0.46600
O 	O 	0.62440 0.49820 0.20940 -0.28900
O 	O 	0.39612 0.86080 0.87300 -0.21000
O 	O 	0.33437 0.67690 0.96370 -0.21200
O 	O 	0.48456 0.58810 0.17180 -0.20900
O 	O 	0.54707 0.77170 0.08280 -0.21500
O 	O 	0.28354 0.62980 0.59069 -0.50800
O 	O 	0.32747 0.54270 0.62630 -0.49600
O 	O 	0.28589 0.80150 0.42051 -0.45300
O 	O 	0.33235 0.80870 0.38150 -0.26700
O 	O 	0.39237 0.49970 0.43080 -0.21300
O 	O 	0.44204 0.68010 0.57320 -0.21600
Zn	Zn	0.25603 0.12098 0.87174 1.24500
Zn	Zn	0.18682 0.00384 0.80468 1.24800
C 	C 	0.20455 0.23190 0.71220 -0.06100
C 	C 	0.22564 0.30330 0.70870 0.01700
H 	H 	0.24630 0.31090 0.73600 0.06000
C 	C 	0.21646 0.36380 0.66500 -0.06400
C 	C 	0.18606 0.35150 0.62460 -0.07200
H 	H 	0.17930 0.39220 0.59520 0.09000
C 	C 	0.16590 0.27970 0.62770 0.13900
C 	C 	0.17420 0.22000 0.67040 -0.07900
H 	H 	0.15980 0.17160 0.67170 0.10300
C 	C 	0.21391 0.16720 0.76050 0.40800
C 	C 	0.23834 0.44350 0.66300 0.40600
C 	C 	0.13757 0.20910 0.53810 0.23000
C 	C 	0.10614 0.18980 0.49440 -0.05300
C 	C 	0.10838 0.13240 0.45170 -0.01700
H 	H 	0.12970 0.10530 0.45010 0.06500
C 	C 	0.07770 0.11400 0.40940 -0.01900
H 	H 	0.07910 0.07490 0.37970 0.06200
C 	C 	0.04616 0.15370 0.41190 -0.05700
C 	C 	0.01518 0.13890 0.36700 0.22700
C 	C 	0.98093 0.23910 0.41580 0.23300
C 	C 	0.01206 0.25500 0.46070 -0.05700
C 	C 	0.01065 0.31090 0.50520 -0.01900
H 	H 	0.98960 0.33860 0.50780 0.06800
C 	C 	0.04110 0.32640 0.54700 -0.02400
H 	H 	0.03980 0.36370 0.57760 0.06900
C 	C 	0.07219 0.28880 0.54410 -0.05700
C 	C 	0.10351 0.31050 0.58840 0.22500
C 	C 	0.07485 0.23060 0.50000 0.03300
C 	C 	0.04397 0.21220 0.45730 0.03600
C 	C 	0.95617 0.18550 0.31990 0.14900
C 	C 	0.95828 0.24430 0.27660 -0.08400
H 	H 	0.97750 0.28190 0.27980 0.10200
C 	C 	0.93162 0.24680 0.22870 -0.04600
C 	C 	0.90389 0.18770 0.22540 0.00200
H 	H 	0.88550 0.18900 0.19340 0.07600
C 	C 	0.90310 0.12820 0.26780 -0.03500
C 	C 	0.92983 0.12600 0.31590 -0.08900
H 	H 	0.92980 0.08480 0.34490 0.09700
C 	C 	0.93320 0.30890 0.18150 0.39900
C 	C 	0.87330 0.06150 0.26060 0.37700
C 	C 	0.16767 0.13040 0.95400 -0.08100
C 	C 	0.13454 0.09750 0.95540 -0.05900
H 	H 	0.12410 0.05620 0.92840 0.08100
C 	C 	0.11724 0.12700 0.99770 0.13300
C 	C 	0.13239 0.18570 0.03840 -0.07600
H 	H 	0.12030 0.20400 0.06670 0.10000
C 	C 	0.16572 0.21830 0.03780 -0.05700
C 	C 	0.18301 0.18870 0.99510 0.02300
H 	H 	0.20560 0.20920 0.99460 0.06100
C 	C 	0.18668 0.09860 0.90860 0.43300
C 	C 	0.18316 0.28050 0.08180 0.36400
C 	C 	0.05400 0.12370 0.95970 0.23400
C 	C 	0.01998 0.08320 0.95930 -0.06400
C 	C 	0.99118 0.11030 0.92020 -0.01400
H 	H 	0.99330 0.15340 0.89330 0.06500
C 	C 	0.04246 0.92900 0.07860 -0.02500
H 	H 	0.06220 0.91220 0.10580 0.06900
C 	C 	0.04578 0.98940 0.03900 -0.05900
C 	C 	0.08136 0.02640 0.03860 0.22800
C 	C 	0.01651 0.01880 0.99900 0.03800
N 	N 	0.13421 0.26450 0.58330 -0.18100
N 	N 	0.98496 0.18570 0.37070 -0.18600
N 	N 	0.08242 0.09080 0.99980 -0.18700
O 	O 	0.24125 0.17930 0.79768 -0.47600
O 	O 	0.19257 0.10530 0.76049 -0.49300
O 	O 	0.22394 0.51010 0.63819 -0.49300
O 	O 	0.27044 0.43600 0.68630 -0.49100
O 	O 	0.95995 0.34620 0.17790 -0.27800
O 	O 	0.90455 0.31360 0.14420 -0.48700
H 	H 	0.90690 0.34910 0.11910 0.29500
O 	O 	0.84787 0.07790 0.22140 -0.46600
O 	O 	0.87560 0.99820 0.29060 -0.28800
O 	O 	0.10388 0.36080 0.62700 -0.21000
O 	O 	0.16563 0.17690 0.53630 -0.21300
O 	O 	0.01544 0.08810 0.32820 -0.20900
O 	O 	0.95293 0.27170 0.41720 -0.21400
O 	O 	0.21646 0.12980 0.90931 -0.50800
O 	O 	0.17253 0.04270 0.87370 -0.49600
O 	O 	0.21411 0.30150 0.07949 -0.45300
O 	O 	0.16765 0.30870 0.11850 -0.26700
O 	O 	0.10763 0.99970 0.06920 -0.21300
O 	O 	0.05796 0.18010 0.92680 -0.21700
Zn	Zn	0.75603 0.62098 0.87174 1.24500
Zn	Zn	0.68682 0.50384 0.80468 1.24800
C 	C 	0.70455 0.73190 0.71220 -0.06100
C 	C 	0.72564 0.80330 0.70870 0.01800
H 	H 	0.74630 0.81090 0.73600 0.06000
C 	C 	0.71646 0.86380 0.66500 -0.06400
C 	C 	0.68606 0.85150 0.62460 -0.07200
H 	H 	0.67930 0.89220 0.59520 0.09000
C 	C 	0.66590 0.77970 0.62770 0.13900
C 	C 	0.67420 0.72000 0.67040 -0.07900
H 	H 	0.65980 0.67160 0.67170 0.10300
C 	C 	0.71391 0.66720 0.76050 0.40800
C 	C 	0.73834 0.94350 0.66300 0.40600
C 	C 	0.63757 0.70910 0.53810 0.23000
C 	C 	0.60614 0.68980 0.49440 -0.05300
C 	C 	0.60838 0.63240 0.45170 -0.01700
H 	H 	0.62970 0.60530 0.45010 0.06500
C 	C 	0.57770 0.61400 0.40940 -0.01900
H 	H 	0.57910 0.57490 0.37970 0.06200
C 	C 	0.54616 0.65370 0.41190 -0.05700
C 	C 	0.51518 0.63890 0.36700 0.22700
C 	C 	0.48093 0.73910 0.41580 0.23300
C 	C 	0.51206 0.75500 0.46070 -0.05700
C 	C 	0.51065 0.81090 0.50520 -0.01900
H 	H 	0.48960 0.83860 0.50780 0.06900
C 	C 	0.54110 0.82640 0.54700 -0.02400
H 	H 	0.53980 0.86370 0.57760 0.06900
C 	C 	0.57219 0.78880 0.54410 -0.05700
C 	C 	0.60351 0.81050 0.58840 0.22500
C 	C 	0.57485 0.73060 0.50000 0.03300
C 	C 	0.54397 0.71220 0.45730 0.03600
C 	C 	0.45617 0.68550 0.31990 0.14900
C 	C 	0.45828 0.74430 0.27660 -0.08400
H 	H 	0.47750 0.78190 0.27980 0.10200
C 	C 	0.43162 0.74680 0.22870 -0.04600
C 	C 	0.40389 0.68770 0.22540 0.00200
H 	H 	0.38550 0.68900 0.19340 0.07600
C 	C 	0.40310 0.62820 0.26780 -0.03500
C 	C 	0.42983 0.62600 0.31590 -0.08900
H 	H 	0.42980 0.58480 0.34490 0.09700
C 	C 	0.43320 0.80890 0.18150 0.39900
C 	C 	0.37330 0.56150 0.26060 0.37700
C 	C 	0.66767 0.63040 0.95400 -0.08100
C 	C 	0.63454 0.59750 0.95540 -0.05900
H 	H 	0.62410 0.55620 0.92840 0.08100
C 	C 	0.61724 0.62700 0.99770 0.13300
C 	C 	0.63239 0.68570 0.03840 -0.07600
H 	H 	0.62030 0.70400 0.06670 0.10000
C 	C 	0.66572 0.71830 0.03780 -0.05600
C 	C 	0.68301 0.68870 0.99510 0.02300
H 	H 	0.70560 0.70920 0.99460 0.06100
C 	C 	0.68668 0.59860 0.90860 0.43300
C 	C 	0.68316 0.78050 0.08180 0.36400
C 	C 	0.55400 0.62370 0.95970 0.23400
C 	C 	0.51998 0.58320 0.95930 -0.06400
C 	C 	0.49118 0.61030 0.92020 -0.01300
H 	H 	0.49330 0.65340 0.89330 0.06500
C 	C 	0.54246 0.42900 0.07860 -0.02400
H 	H 	0.56220 0.41220 0.10580 0.06900
C 	C 	0.54578 0.48940 0.03900 -0.06000
C 	C 	0.58136 0.52640 0.03860 0.22900
C 	C 	0.51651 0.51880 0.99900 0.03900
N 	N 	0.63421 0.76450 0.58330 -0.18100
N 	N 	0.48496 0.68570 0.37070 -0.18600
N 	N 	0.58242 0.59080 0.99980 -0.18700
O 	O 	0.74125 0.67930 0.79768 -0.47600
O 	O 	0.69257 0.60530 0.76049 -0.49300
O 	O 	0.72394 0.01010 0.63819 -0.49300
O 	O 	0.77044 0.93600 0.68630 -0.49100
O 	O 	0.45995 0.84620 0.17790 -0.27800
O 	O 	0.40455 0.81360 0.14420 -0.48700
H 	H 	0.40690 0.84910 0.11910 0.29600
O 	O 	0.34787 0.57790 0.22140 -0.46600
O 	O 	0.37560 0.49820 0.29060 -0.28900
O 	O 	0.60388 0.86080 0.62700 -0.21000
O 	O 	0.66563 0.67690 0.53630 -0.21300
O 	O 	0.51544 0.58810 0.32820 -0.20900
O 	O 	0.45293 0.77170 0.41720 -0.21400
O 	O 	0.71646 0.62980 0.90931 -0.50800
O 	O 	0.67253 0.54270 0.87370 -0.49600
O 	O 	0.71411 0.80150 0.07949 -0.45300
O 	O 	0.66765 0.80870 0.11850 -0.26700
O 	O 	0.60763 0.49970 0.06920 -0.21400
O 	O 	0.55796 0.68010 0.92680 -0.21700
