data_crystal

_cell_length_a 29.77800
_cell_length_b 6.67540
_cell_length_c 19.47820
_cell_angle_alpha 90.00000
_cell_angle_beta  113.62300
_cell_angle_gamma 90.00000

_symmetry_space_group_name_	'P 1'
_symmetry_space_group_name_H-M	'P 1'

loop_
_symmetry_equiv_pos_as_xyz
  x,y,z

loop_
_atom_site_label
_atom_site_type_symbol
_atom_site_fract_x
_atom_site_fract_y
_atom_site_fract_z
_atom_site_charge
Cd	Cd	0.10338 0.95854 0.35327 1.19000
O 	O 	0.42363 0.87700 0.66780 -0.53800
C 	C 	0.40053 0.03890 0.64630 0.40100
O 	O 	0.42071 0.20320 0.67220 -0.53300
C 	C 	0.34830 0.03110 0.59170 -0.19500
O 	O 	0.47695 0.13090 0.34100 -0.39400
O 	O 	0.47708 0.80150 0.34100 -0.40100
C 	C 	0.26310 0.03420 0.57040 -0.07800
H 	H 	0.23890 0.04810 0.58880 0.07300
O 	O 	0.18629 0.94950 0.37460 -0.38800
C 	C 	0.25040 0.99560 0.49550 -0.01200
O 	O 	0.16506 0.00020 0.46850 -0.39500
C 	C 	0.28640 0.97680 0.46850 -0.08300
H 	H 	0.27760 0.95210 0.41780 0.07600
C 	C 	0.33590 0.99400 0.51580 0.06100
C 	C 	0.19761 0.98020 0.44290 0.28900
C 	C 	0.31220 0.05240 0.61850 0.05300
H 	H 	0.32080 0.07910 0.66900 0.00300
C 	C 	0.37340 0.97950 0.48310 0.02500
C 	C 	0.37760 0.80810 0.44600 -0.12300
H 	H 	0.35870 0.69630 0.44490 0.07600
C 	C 	0.40970 0.80170 0.41070 0.03700
H 	H 	0.41260 0.68460 0.38680 0.01700
C 	C 	0.43760 0.96670 0.41040 -0.11100
C 	C 	0.43380 0.13790 0.44740 0.02700
H 	H 	0.45210 0.25070 0.44700 0.02700
C 	C 	0.40300 0.14270 0.48510 -0.08900
H 	H 	0.40220 0.25630 0.51220 0.04500
C 	C 	0.46617 0.96570 0.36230 0.31800
Cd	Cd	0.89662 0.95854 0.14673 1.19600
O 	O 	0.57637 0.87700 0.83220 -0.53700
C 	C 	0.59947 0.03890 0.85370 0.40300
O 	O 	0.57929 0.20320 0.82780 -0.53400
C 	C 	0.65170 0.03110 0.90830 -0.20500
O 	O 	0.52305 0.13090 0.15900 -0.39200
O 	O 	0.52292 0.80150 0.15900 -0.40000
C 	C 	0.73690 0.03420 0.92960 -0.09000
H 	H 	0.76110 0.04810 0.91120 0.07600
O 	O 	0.81371 0.94950 0.12540 -0.38600
C 	C 	0.74960 0.99560 0.00450 -0.00300
O 	O 	0.83494 0.00020 0.03150 -0.38700
C 	C 	0.71360 0.97680 0.03150 -0.09400
H 	H 	0.72240 0.95210 0.08220 0.08000
C 	C 	0.66410 0.99400 0.98420 0.07400
C 	C 	0.80239 0.98020 0.05710 0.28100
C 	C 	0.68780 0.05240 0.88150 0.06200
H 	H 	0.67920 0.07910 0.83100 0.00000
C 	C 	0.62660 0.97950 0.01690 0.00900
C 	C 	0.62240 0.80810 0.05400 -0.11300
H 	H 	0.64130 0.69630 0.05510 0.07200
C 	C 	0.59030 0.80170 0.08930 0.02900
H 	H 	0.58740 0.68460 0.11320 0.02000
C 	C 	0.56240 0.96670 0.08960 -0.10600
C 	C 	0.56620 0.13790 0.05260 0.01700
H 	H 	0.54790 0.25070 0.05300 0.03100
C 	C 	0.59700 0.14270 0.01490 -0.06800
H 	H 	0.59780 0.25630 0.98780 0.03500
C 	C 	0.53383 0.96570 0.13770 0.31500
Cd	Cd	0.39662 0.54146 0.64673 1.19500
O 	O 	0.07637 0.62300 0.33220 -0.55000
C 	C 	0.09947 0.46110 0.35370 0.40700
O 	O 	0.07929 0.29680 0.32780 -0.54100
C 	C 	0.15170 0.46890 0.40830 -0.19700
O 	O 	0.02305 0.36910 0.65900 -0.41200
O 	O 	0.02292 0.69850 0.65900 -0.41600
C 	C 	0.23690 0.46580 0.42960 -0.08000
H 	H 	0.26110 0.45190 0.41120 0.07400
O 	O 	0.31371 0.55050 0.62540 -0.38700
C 	C 	0.24960 0.50440 0.50450 -0.01200
O 	O 	0.33494 0.49980 0.53150 -0.39700
C 	C 	0.21360 0.52320 0.53150 -0.08200
H 	H 	0.22240 0.54790 0.58220 0.07600
C 	C 	0.16410 0.50600 0.48420 0.05900
C 	C 	0.30239 0.51980 0.55710 0.29200
C 	C 	0.18780 0.44760 0.38150 0.05500
H 	H 	0.17920 0.42090 0.33100 0.00300
C 	C 	0.12660 0.52050 0.51690 0.02700
C 	C 	0.12240 0.69190 0.55400 -0.12900
H 	H 	0.14130 0.80370 0.55510 0.07700
C 	C 	0.09030 0.69830 0.58930 0.03900
H 	H 	0.08740 0.81540 0.61320 0.01400
C 	C 	0.06240 0.53330 0.58960 -0.12100
C 	C 	0.06620 0.36210 0.55260 0.02700
H 	H 	0.04790 0.24930 0.55300 0.01800
C 	C 	0.09700 0.35730 0.51490 -0.09700
H 	H 	0.09780 0.24370 0.48780 0.04400
C 	C 	0.03383 0.53430 0.63770 0.32300
Cd	Cd	0.60338 0.54146 0.85327 1.19500
O 	O 	0.92363 0.62300 0.16780 -0.52700
C 	C 	0.90053 0.46110 0.14630 0.40300
O 	O 	0.92071 0.29680 0.17220 -0.52000
C 	C 	0.84830 0.46890 0.09170 -0.19300
O 	O 	0.97695 0.36910 0.84100 -0.37900
O 	O 	0.97708 0.69850 0.84100 -0.38100
C 	C 	0.76310 0.46580 0.07040 -0.07400
H 	H 	0.73890 0.45190 0.08880 0.07300
O 	O 	0.68629 0.55050 0.87460 -0.38700
C 	C 	0.75040 0.50440 0.99550 -0.01500
O 	O 	0.66506 0.49980 0.96850 -0.39700
C 	C 	0.78640 0.52320 0.96850 -0.08600
H 	H 	0.77760 0.54790 0.91780 0.07700
C 	C 	0.83590 0.50600 0.01580 0.06400
C 	C 	0.69761 0.51980 0.94290 0.29300
C 	C 	0.81220 0.44760 0.11850 0.05200
H 	H 	0.82080 0.42090 0.16900 0.00500
C 	C 	0.87340 0.52050 0.98310 0.02500
C 	C 	0.87760 0.69190 0.94600 -0.11900
H 	H 	0.85870 0.80370 0.94490 0.07400
C 	C 	0.90970 0.69830 0.91070 0.03500
H 	H 	0.91260 0.81540 0.88680 0.02200
C 	C 	0.93760 0.53330 0.91040 -0.10200
C 	C 	0.93380 0.36210 0.94740 0.02900
H 	H 	0.95210 0.24930 0.94700 0.03300
C 	C 	0.90300 0.35730 0.98510 -0.09400
H 	H 	0.90220 0.24370 0.01220 0.05400
C 	C 	0.96617 0.53430 0.86230 0.32100
Cd	Cd	0.50000 0.96223 0.25000 1.22800
Cd	Cd	0.00000 0.53777 0.75000 1.21500
Cd	Cd	0.60338 0.45854 0.35327 1.19500
O 	O 	0.92363 0.37700 0.66780 -0.52700
C 	C 	0.90053 0.53890 0.64630 0.40300
O 	O 	0.92071 0.70320 0.67220 -0.52000
C 	C 	0.84830 0.53110 0.59170 -0.19300
O 	O 	0.97695 0.63090 0.34100 -0.37800
O 	O 	0.97708 0.30150 0.34100 -0.38000
C 	C 	0.76310 0.53420 0.57040 -0.07900
H 	H 	0.73890 0.54810 0.58880 0.07400
O 	O 	0.68629 0.44950 0.37460 -0.38700
C 	C 	0.75040 0.49560 0.49550 -0.01200
O 	O 	0.66506 0.50020 0.46850 -0.39700
C 	C 	0.78640 0.47680 0.46850 -0.08300
H 	H 	0.77760 0.45210 0.41780 0.07600
C 	C 	0.83590 0.49400 0.51580 0.06100
C 	C 	0.69761 0.48020 0.44290 0.29200
C 	C 	0.81220 0.55240 0.61850 0.05300
H 	H 	0.82080 0.57910 0.66900 0.00400
C 	C 	0.87340 0.47950 0.48310 0.02300
C 	C 	0.87760 0.30810 0.44600 -0.11600
H 	H 	0.85870 0.19630 0.44490 0.07400
C 	C 	0.90970 0.30170 0.41070 0.03200
H 	H 	0.91260 0.18460 0.38680 0.02300
C 	C 	0.93760 0.46670 0.41040 -0.09800
C 	C 	0.93380 0.63790 0.44740 0.02200
H 	H 	0.95210 0.75070 0.44700 0.03700
C 	C 	0.90300 0.64270 0.48510 -0.08100
H 	H 	0.90220 0.75630 0.51220 0.04700
C 	C 	0.96617 0.46570 0.36230 0.32000
Cd	Cd	0.39662 0.45854 0.14673 1.19500
O 	O 	0.07637 0.37700 0.83220 -0.55000
C 	C 	0.09947 0.53890 0.85370 0.40600
O 	O 	0.07929 0.70320 0.82780 -0.54000
C 	C 	0.15170 0.53110 0.90830 -0.19400
O 	O 	0.02305 0.63090 0.15900 -0.41200
O 	O 	0.02292 0.30150 0.15900 -0.41500
C 	C 	0.23690 0.53420 0.92960 -0.08200
H 	H 	0.26110 0.54810 0.91120 0.07500
O 	O 	0.31371 0.44950 0.12540 -0.38700
C 	C 	0.24960 0.49560 0.00450 -0.01100
O 	O 	0.33494 0.50020 0.03150 -0.39500
C 	C 	0.21360 0.47680 0.03150 -0.07600
H 	H 	0.22240 0.45210 0.08220 0.07400
C 	C 	0.16410 0.49400 0.98420 0.05100
C 	C 	0.30239 0.48020 0.05710 0.29200
C 	C 	0.18780 0.55240 0.88150 0.05500
H 	H 	0.17920 0.57910 0.83100 0.00400
C 	C 	0.12660 0.47950 0.01690 0.03100
C 	C 	0.12240 0.30810 0.05400 -0.13100
H 	H 	0.14130 0.19630 0.05510 0.07900
C 	C 	0.09030 0.30170 0.08930 0.04100
H 	H 	0.08740 0.18460 0.11320 0.01400
C 	C 	0.06240 0.46670 0.08960 -0.12100
C 	C 	0.06620 0.63790 0.05260 0.02600
H 	H 	0.04790 0.75070 0.05300 0.01800
C 	C 	0.09700 0.64270 0.01490 -0.09500
H 	H 	0.09780 0.75630 0.98780 0.04200
C 	C 	0.03383 0.46570 0.13770 0.32400
Cd	Cd	0.89662 0.04146 0.64673 1.19600
O 	O 	0.57637 0.12300 0.33220 -0.53700
C 	C 	0.59947 0.96110 0.35370 0.40100
O 	O 	0.57929 0.79680 0.32780 -0.53300
C 	C 	0.65170 0.96890 0.40830 -0.19500
O 	O 	0.52305 0.86910 0.65900 -0.39400
O 	O 	0.52292 0.19850 0.65900 -0.40100
C 	C 	0.73690 0.96580 0.42960 -0.07900
H 	H 	0.76110 0.95190 0.41120 0.07300
O 	O 	0.81371 0.05050 0.62540 -0.38800
C 	C 	0.74960 0.00440 0.50450 -0.01100
O 	O 	0.83494 0.99980 0.53150 -0.39200
C 	C 	0.71360 0.02320 0.53150 -0.08400
H 	H 	0.72240 0.04790 0.58220 0.07600
C 	C 	0.66410 0.00600 0.48420 0.06100
C 	C 	0.80239 0.01980 0.55710 0.28800
C 	C 	0.68780 0.94760 0.38150 0.05300
H 	H 	0.67920 0.92090 0.33100 0.00300
C 	C 	0.62660 0.02050 0.51690 0.02500
C 	C 	0.62240 0.19190 0.55400 -0.12300
H 	H 	0.64130 0.30370 0.55510 0.07600
C 	C 	0.59030 0.19830 0.58930 0.03700
H 	H 	0.58740 0.31540 0.61320 0.01700
C 	C 	0.56240 0.03330 0.58960 -0.11100
C 	C 	0.56620 0.86210 0.55260 0.02700
H 	H 	0.54790 0.74930 0.55300 0.02700
C 	C 	0.59700 0.85730 0.51490 -0.08900
H 	H 	0.59780 0.74370 0.48780 0.04500
C 	C 	0.53383 0.03430 0.63770 0.31800
Cd	Cd	0.10338 0.04146 0.85327 1.19000
O 	O 	0.42363 0.12300 0.16780 -0.53600
C 	C 	0.40053 0.96110 0.14630 0.40400
O 	O 	0.42071 0.79680 0.17220 -0.53400
C 	C 	0.34830 0.96890 0.09170 -0.20600
O 	O 	0.47695 0.86910 0.84100 -0.39200
O 	O 	0.47708 0.19850 0.84100 -0.40100
C 	C 	0.26310 0.96580 0.07040 -0.08300
H 	H 	0.23890 0.95190 0.08880 0.07500
O 	O 	0.18629 0.05050 0.87460 -0.38700
C 	C 	0.25040 0.00440 0.99550 -0.00800
O 	O 	0.16506 0.99980 0.96850 -0.39200
C 	C 	0.28640 0.02320 0.96850 -0.10100
H 	H 	0.27760 0.04790 0.91780 0.08200
C 	C 	0.33590 0.00600 0.01580 0.08300
C 	C 	0.19761 0.01980 0.94290 0.28300
C 	C 	0.31220 0.94760 0.11850 0.06000
H 	H 	0.32080 0.92090 0.16900 0.00100
C 	C 	0.37340 0.02050 0.98310 0.00500
C 	C 	0.37760 0.19190 0.94600 -0.11200
H 	H 	0.35870 0.30370 0.94490 0.07100
C 	C 	0.40970 0.19830 0.91070 0.02900
H 	H 	0.41260 0.31540 0.88680 0.02000
C 	C 	0.43760 0.03330 0.91040 -0.10800
C 	C 	0.43380 0.86210 0.94740 0.02100
H 	H 	0.45210 0.74930 0.94700 0.02900
C 	C 	0.40300 0.85730 0.98510 -0.07700
H 	H 	0.40220 0.74370 0.01220 0.04100
C 	C 	0.46617 0.03430 0.86230 0.31500
Cd	Cd	0.00000 0.46223 0.25000 1.21500
Cd	Cd	0.50000 0.03777 0.75000 1.22800
