data_crystal

_cell_length_a 16.64600
_cell_length_b 29.78300
_cell_length_c 17.27400
_cell_angle_alpha 90.00000
_cell_angle_beta  90.00000
_cell_angle_gamma 90.00000

_symmetry_space_group_name_	'P 1'
_symmetry_space_group_name_H-M	'P 1'

loop_
_symmetry_equiv_pos_as_xyz
  x,y,z

loop_
_atom_site_label
_atom_site_type_symbol
_atom_site_fract_x
_atom_site_fract_y
_atom_site_fract_z
_atom_site_charge
Cd	Cd	0.49583 0.24983 0.88406 1.21600
Cd	Cd	0.24955 0.00356 0.13423 1.19800
Cd	Cd	0.27687 0.24561 0.73511 1.21800
N 	N 	0.49160 0.19370 0.78910 -0.21400
O 	O 	0.34440 0.25450 0.84640 -0.51000
C 	C 	0.00830 0.15140 0.19210 0.09400
N 	N 	0.03440 0.17010 0.05990 -0.19200
C 	C 	0.47310 0.13810 0.88970 0.01000
N 	N 	0.00690 0.19450 0.21100 -0.21000
C 	C 	0.04810 0.15690 0.98650 0.05000
H 	H 	0.05580 0.17860 0.94840 0.03600
N 	N 	0.45890 0.17030 0.93840 -0.13600
C 	C 	0.47050 0.09400 0.91050 0.01100
H 	H 	0.47940 0.07260 0.87210 -0.00200
O 	O 	0.09230 0.26500 0.01560 -0.42000
C 	C 	0.24560 0.26800 0.94510 -0.07900
H 	H 	0.22100 0.29340 0.91920 0.06200
H 	H 	0.21610 0.24130 0.92980 0.07600
O 	O 	0.38880 0.26820 0.96260 -0.36200
O 	O 	0.35170 0.02180 0.22310 -0.42800
O 	O 	0.14830 0.98840 0.22310 -0.38900
N 	N 	0.24510 0.05540 0.03290 -0.23200
C 	C 	0.32970 0.26350 0.91660 0.32600
C 	C 	0.15390 0.26590 0.05820 0.41700
C 	C 	0.25930 0.09770 0.93110 0.09300
N 	N 	0.21370 0.08280 0.18410 -0.17800
N 	N 	0.25560 0.05380 0.95500 -0.19100
O 	O 	0.14200 0.26130 0.13060 -0.55100
N 	N 	0.20960 0.17410 0.22020 -0.19100
O 	O 	0.39970 0.00750 0.10550 -0.57700
N 	N 	0.24940 0.12740 0.98930 -0.08700
C 	C 	0.27390 0.11010 0.85090 0.01000
C 	C 	0.22440 0.16040 0.14850 0.00300
H 	H 	0.23480 0.18160 0.11030 0.01500
C 	C 	0.02140 0.13830 0.11020 0.00000
C 	C 	0.23960 0.09940 0.05200 0.03100
C 	C 	0.22470 0.11580 0.12920 0.01600
C 	C 	0.19760 0.14160 0.27500 -0.00900
H 	H 	0.18750 0.14980 0.32600 0.01700
C 	C 	0.02340 0.09340 0.08900 -0.00600
H 	H 	0.01450 0.07200 0.12720 -0.00300
N 	N 	0.03730 0.07940 0.01800 -0.25900
N 	N 	0.28760 0.07610 0.80030 -0.16700
N 	N 	0.45610 0.07950 0.98120 -0.17900
C 	C 	0.44260 0.15690 0.01270 -0.05300
H 	H 	0.43320 0.17850 0.05060 0.04400
C 	C 	0.43980 0.11240 0.03230 -0.04100
H 	H 	0.42600 0.10450 0.08270 0.02300
C 	C 	0.48980 0.15040 0.80550 0.10100
C 	C 	0.05100 0.11230 0.96680 0.06200
H 	H 	0.06290 0.10470 0.91590 0.00100
C 	C 	0.11240 0.24560 0.72350 0.34100
O 	O 	0.09920 0.99510 0.10380 -0.51300
C 	C 	0.23610 0.27390 0.02760 -0.40700
H 	H 	0.25180 0.30430 0.04070 0.12800
H 	H 	0.27290 0.25370 0.05380 0.14400
C 	C 	0.02370 0.24580 0.71170 -0.22600
H 	H 	0.00870 0.21960 0.68180 0.11500
H 	H 	0.00910 0.27220 0.68200 0.11400
O 	O 	0.14510 0.22490 0.78090 -0.37300
O 	O 	0.15460 0.26530 0.67560 -0.40100
C 	C 	0.20030 0.09710 0.25500 0.02700
H 	H 	0.19210 0.07590 0.29360 0.00700
N 	N 	0.28970 0.16630 0.75540 -0.19400
C 	C 	0.27350 0.15460 0.82860 0.00700
H 	H 	0.26180 0.17670 0.86480 0.02600
C 	C 	0.30630 0.13330 0.70430 -0.00100
H 	H 	0.31920 0.14060 0.65340 0.01000
C 	C 	0.30400 0.08790 0.72780 0.01700
H 	H 	0.31430 0.06560 0.69140 0.00500
C 	C 	0.00520 0.98120 0.20730 -0.10800
H 	H 	0.97200 0.00490 0.18560 0.00400
H 	H 	0.98540 0.95290 0.18710 0.04400
C 	C 	0.49780 0.02230 0.20320 -0.29800
H 	H 	0.51870 0.05040 0.18300 0.09600
H 	H 	0.53010 0.99790 0.18250 0.12700
C 	C 	0.09250 0.98800 0.17880 0.33500
C 	C 	0.40800 0.01630 0.17830 0.37300
Cd	Cd	0.99583 0.74983 0.88406 1.21600
Cd	Cd	0.74955 0.50356 0.13423 1.21400
Cd	Cd	0.77687 0.74561 0.73511 1.21900
N 	N 	0.99160 0.69370 0.78910 -0.21400
O 	O 	0.84440 0.75450 0.84640 -0.51000
C 	C 	0.50830 0.65140 0.19210 0.09400
N 	N 	0.53440 0.67010 0.05990 -0.19100
C 	C 	0.97310 0.63810 0.88970 0.01200
N 	N 	0.50690 0.69450 0.21100 -0.21000
C 	C 	0.54810 0.65690 0.98650 0.05000
H 	H 	0.55580 0.67860 0.94840 0.03700
N 	N 	0.95890 0.67030 0.93840 -0.13700
C 	C 	0.97050 0.59400 0.91050 0.01100
H 	H 	0.97940 0.57260 0.87210 0.00300
O 	O 	0.59230 0.76500 0.01560 -0.42100
C 	C 	0.74560 0.76800 0.94510 -0.08500
H 	H 	0.72100 0.79340 0.91920 0.06300
H 	H 	0.71610 0.74130 0.92980 0.07700
O 	O 	0.88880 0.76820 0.96260 -0.36400
O 	O 	0.85170 0.52180 0.22310 -0.41000
O 	O 	0.64830 0.48840 0.22310 -0.41800
N 	N 	0.74510 0.55540 0.03290 -0.22500
C 	C 	0.82970 0.76350 0.91660 0.32800
C 	C 	0.65390 0.76590 0.05820 0.41600
C 	C 	0.75930 0.59770 0.93110 0.09400
N 	N 	0.71370 0.58280 0.18410 -0.17300
N 	N 	0.75560 0.55380 0.95500 -0.18300
O 	O 	0.64200 0.76130 0.13060 -0.55100
N 	N 	0.70960 0.67410 0.22020 -0.19100
O 	O 	0.89970 0.50750 0.10550 -0.55500
N 	N 	0.74940 0.62740 0.98930 -0.08900
C 	C 	0.77390 0.61010 0.85090 0.01100
C 	C 	0.72440 0.66040 0.14850 0.00300
H 	H 	0.73480 0.68160 0.11030 0.01500
C 	C 	0.52140 0.63830 0.11020 0.00100
C 	C 	0.73960 0.59940 0.05200 0.03400
C 	C 	0.72470 0.61580 0.12920 0.01600
C 	C 	0.69760 0.64160 0.27500 -0.00800
H 	H 	0.68750 0.64980 0.32600 0.01700
C 	C 	0.52340 0.59340 0.08900 -0.00500
H 	H 	0.51450 0.57200 0.12720 0.00200
N 	N 	0.53730 0.57940 0.01800 -0.25400
N 	N 	0.78760 0.57610 0.80030 -0.16000
N 	N 	0.95610 0.57950 0.98120 -0.17700
C 	C 	0.94260 0.65690 0.01270 -0.05100
H 	H 	0.93320 0.67850 0.05060 0.04400
C 	C 	0.93980 0.61240 0.03230 -0.03800
H 	H 	0.92600 0.60450 0.08270 0.02200
C 	C 	0.98980 0.65040 0.80550 0.09900
C 	C 	0.55100 0.61230 0.96680 0.06100
H 	H 	0.56290 0.60470 0.91590 0.00200
C 	C 	0.61240 0.74560 0.72350 0.34200
O 	O 	0.59920 0.49510 0.10380 -0.54700
C 	C 	0.73610 0.77390 0.02760 -0.40200
H 	H 	0.75180 0.80430 0.04070 0.12900
H 	H 	0.77290 0.75370 0.05380 0.14300
C 	C 	0.52370 0.74580 0.71170 -0.23000
H 	H 	0.50870 0.71960 0.68180 0.11500
H 	H 	0.50910 0.77220 0.68200 0.11400
O 	O 	0.64510 0.72490 0.78090 -0.37300
O 	O 	0.65460 0.76530 0.67560 -0.40100
C 	C 	0.70030 0.59710 0.25500 0.02600
H 	H 	0.69210 0.57590 0.29360 0.01400
N 	N 	0.78970 0.66630 0.75540 -0.19500
C 	C 	0.77350 0.65460 0.82860 0.00700
H 	H 	0.76180 0.67670 0.86480 0.02600
C 	C 	0.80630 0.63330 0.70430 0.00100
H 	H 	0.81920 0.64060 0.65340 0.01000
C 	C 	0.80400 0.58790 0.72780 0.01700
H 	H 	0.81430 0.56560 0.69140 0.01300
C 	C 	0.50520 0.48120 0.20730 -0.21100
H 	H 	0.47200 0.50490 0.18560 0.06900
H 	H 	0.48540 0.45290 0.18710 0.07200
C 	C 	0.99780 0.52230 0.20320 -0.24800
H 	H 	0.01870 0.55040 0.18300 0.08700
H 	H 	0.03010 0.49790 0.18250 0.07900
C 	C 	0.59250 0.48800 0.17880 0.35800
C 	C 	0.90800 0.51630 0.17830 0.36700
Cd	Cd	0.50417 0.75017 0.38406 1.21600
Cd	Cd	0.75045 0.99644 0.63423 1.23000
Cd	Cd	0.72313 0.75439 0.23511 1.22000
N 	N 	0.50840 0.80630 0.28910 -0.21300
O 	O 	0.65560 0.74550 0.34640 -0.52300
C 	C 	0.99170 0.84860 0.69210 0.09200
N 	N 	0.96560 0.82990 0.55990 -0.16200
C 	C 	0.52690 0.86190 0.38970 0.00800
N 	N 	0.99310 0.80550 0.71100 -0.21200
C 	C 	0.95190 0.84310 0.48650 0.00200
H 	H 	0.94420 0.82140 0.44840 0.03800
N 	N 	0.54110 0.82970 0.43840 -0.16400
C 	C 	0.52950 0.90600 0.41050 0.00400
H 	H 	0.52060 0.92740 0.37210 0.01000
O 	O 	0.90770 0.73500 0.51560 -0.38500
C 	C 	0.75440 0.73200 0.44510 -0.23200
H 	H 	0.77900 0.70660 0.41920 0.09300
H 	H 	0.78390 0.75870 0.42980 0.10700
O 	O 	0.61120 0.73180 0.46260 -0.39800
O 	O 	0.64830 0.97820 0.72310 -0.38400
O 	O 	0.85170 0.01160 0.72310 -0.44200
N 	N 	0.75490 0.94460 0.53290 -0.19800
C 	C 	0.67030 0.73650 0.41660 0.36900
C 	C 	0.84610 0.73410 0.55820 0.37400
C 	C 	0.74070 0.90230 0.43110 0.08700
N 	N 	0.78630 0.91720 0.68410 -0.16600
N 	N 	0.74440 0.94620 0.45500 -0.19700
O 	O 	0.85800 0.73870 0.63060 -0.53800
N 	N 	0.79040 0.82590 0.72020 -0.19200
O 	O 	0.60030 0.99250 0.60550 -0.51400
N 	N 	0.75060 0.87260 0.48930 -0.12700
C 	C 	0.72610 0.88990 0.35090 0.01000
C 	C 	0.77560 0.83960 0.64850 0.01100
H 	H 	0.76520 0.81840 0.61030 0.02200
C 	C 	0.97860 0.86170 0.61020 0.00700
C 	C 	0.76040 0.90060 0.55200 0.08400
C 	C 	0.77530 0.88420 0.62920 0.00800
C 	C 	0.80240 0.85840 0.77500 -0.00400
H 	H 	0.81250 0.85020 0.82600 0.02300
C 	C 	0.97660 0.90660 0.58900 0.00400
H 	H 	0.98550 0.92800 0.62720 0.00800
N 	N 	0.96270 0.92060 0.51800 -0.21100
N 	N 	0.71240 0.92390 0.30030 -0.15400
N 	N 	0.54390 0.92050 0.48120 -0.20900
C 	C 	0.55740 0.84310 0.51270 -0.00200
H 	H 	0.56680 0.82150 0.55060 0.04200
C 	C 	0.56020 0.88760 0.53230 0.01300
H 	H 	0.57400 0.89550 0.58270 0.01400
C 	C 	0.51020 0.84960 0.30550 0.10100
C 	C 	0.94900 0.88770 0.46680 0.01100
H 	H 	0.93710 0.89530 0.41590 0.01300
C 	C 	0.88760 0.75440 0.22350 0.34000
O 	O 	0.90080 0.00490 0.60380 -0.56400
C 	C 	0.76390 0.72610 0.52760 -0.25400
H 	H 	0.74820 0.69570 0.54070 0.09900
H 	H 	0.72710 0.74630 0.55380 0.11300
C 	C 	0.97630 0.75420 0.21170 -0.23300
H 	H 	0.99130 0.78040 0.18180 0.10900
H 	H 	0.99090 0.72780 0.18200 0.10700
O 	O 	0.85490 0.77510 0.28090 -0.37900
O 	O 	0.84540 0.73470 0.17560 -0.40900
C 	C 	0.79970 0.90290 0.75500 0.02600
H 	H 	0.80790 0.92410 0.79360 0.02600
N 	N 	0.71030 0.83370 0.25540 -0.19500
C 	C 	0.72650 0.84540 0.32860 0.00600
H 	H 	0.73820 0.82330 0.36480 0.02100
C 	C 	0.69370 0.86670 0.20430 0.00200
H 	H 	0.68080 0.85940 0.15340 0.00600
C 	C 	0.69600 0.91210 0.22780 0.01600
H 	H 	0.68570 0.93440 0.19140 0.01800
C 	C 	0.99480 0.01880 0.70730 -0.31100
H 	H 	0.02800 0.99510 0.68560 0.13700
H 	H 	0.01460 0.04710 0.68710 0.10400
C 	C 	0.50220 0.97770 0.70320 -0.15400
H 	H 	0.48130 0.94960 0.68300 0.06600
H 	H 	0.46990 0.00210 0.68250 0.02000
C 	C 	0.90750 0.01200 0.67880 0.37800
C 	C 	0.59200 0.98370 0.67830 0.34600
Cd	Cd	0.00417 0.25017 0.38406 1.21700
Cd	Cd	0.25045 0.49644 0.63423 1.21600
Cd	Cd	0.22313 0.25439 0.23511 1.22000
N 	N 	0.00840 0.30630 0.28910 -0.21100
O 	O 	0.15560 0.24550 0.34640 -0.52300
C 	C 	0.49170 0.34860 0.69210 0.09500
N 	N 	0.46560 0.32990 0.55990 -0.16200
C 	C 	0.02690 0.36190 0.38970 0.00700
N 	N 	0.49310 0.30550 0.71100 -0.21100
C 	C 	0.45190 0.34310 0.48650 0.00200
H 	H 	0.44420 0.32140 0.44840 0.03800
N 	N 	0.04110 0.32970 0.43840 -0.16300
C 	C 	0.02950 0.40600 0.41050 0.00300
H 	H 	0.02060 0.42740 0.37210 0.00400
O 	O 	0.40770 0.23500 0.51560 -0.38400
C 	C 	0.25440 0.23200 0.44510 -0.23300
H 	H 	0.27900 0.20660 0.41920 0.09200
H 	H 	0.28390 0.25870 0.42980 0.10700
O 	O 	0.11120 0.23180 0.46260 -0.39700
O 	O 	0.14830 0.47820 0.72310 -0.40200
O 	O 	0.35170 0.51160 0.72310 -0.41400
N 	N 	0.25490 0.44460 0.53290 -0.20500
C 	C 	0.17030 0.23650 0.41660 0.36900
C 	C 	0.34610 0.23410 0.55820 0.37400
C 	C 	0.24070 0.40230 0.43110 0.08500
N 	N 	0.28630 0.41720 0.68410 -0.17100
N 	N 	0.24440 0.44620 0.45500 -0.20700
O 	O 	0.35800 0.23870 0.63060 -0.53700
N 	N 	0.29040 0.32590 0.72020 -0.19200
O 	O 	0.10030 0.49250 0.60550 -0.54000
N 	N 	0.25060 0.37260 0.48930 -0.12600
C 	C 	0.22610 0.38990 0.35090 0.00900
C 	C 	0.27560 0.33960 0.64850 0.01100
H 	H 	0.26520 0.31840 0.61030 0.02200
C 	C 	0.47860 0.36170 0.61020 0.00600
C 	C 	0.26040 0.40060 0.55200 0.08300
C 	C 	0.27530 0.38420 0.62920 0.00700
C 	C 	0.30240 0.35840 0.77500 -0.00600
H 	H 	0.31250 0.35020 0.82600 0.02200
C 	C 	0.47660 0.40660 0.58900 0.00400
H 	H 	0.48550 0.42800 0.62720 0.00200
N 	N 	0.46270 0.42060 0.51800 -0.21800
N 	N 	0.21240 0.42390 0.30030 -0.16100
N 	N 	0.04390 0.42050 0.48120 -0.21600
C 	C 	0.05740 0.34310 0.51270 -0.00200
H 	H 	0.06680 0.32150 0.55060 0.04300
C 	C 	0.06020 0.38760 0.53230 0.01300
H 	H 	0.07400 0.39550 0.58270 0.01300
C 	C 	0.01020 0.34960 0.30550 0.10200
C 	C 	0.44900 0.38770 0.46680 0.01100
H 	H 	0.43710 0.39530 0.41590 0.01100
C 	C 	0.38760 0.25440 0.22350 0.33900
O 	O 	0.40080 0.50490 0.60380 -0.53600
C 	C 	0.26390 0.22610 0.52760 -0.25300
H 	H 	0.24820 0.19570 0.54070 0.09800
H 	H 	0.22710 0.24630 0.55380 0.11300
C 	C 	0.47630 0.25420 0.21170 -0.22800
H 	H 	0.49130 0.28040 0.18180 0.10800
H 	H 	0.49090 0.22780 0.18200 0.10600
O 	O 	0.35490 0.27510 0.28090 -0.37800
O 	O 	0.34540 0.23470 0.17560 -0.40900
C 	C 	0.29970 0.40290 0.75500 0.02700
H 	H 	0.30790 0.42410 0.79360 0.01900
N 	N 	0.21030 0.33370 0.25540 -0.19500
C 	C 	0.22650 0.34540 0.32860 0.00700
H 	H 	0.23820 0.32330 0.36480 0.02100
C 	C 	0.19370 0.36670 0.20430 -0.00000
H 	H 	0.18080 0.35940 0.15340 0.00600
C 	C 	0.19600 0.41210 0.22780 0.01600
H 	H 	0.18570 0.43440 0.19140 0.00900
C 	C 	0.49480 0.51880 0.70730 -0.21100
H 	H 	0.52800 0.49510 0.68560 0.07300
H 	H 	0.51460 0.54710 0.68710 0.07600
C 	C 	0.00220 0.47770 0.70320 -0.20000
H 	H 	0.98130 0.44960 0.68300 0.07400
H 	H 	0.96990 0.50210 0.68250 0.06400
C 	C 	0.40750 0.51200 0.67880 0.35700
C 	C 	0.09200 0.48370 0.67830 0.35300
Cd	Cd	0.50417 0.24983 0.61594 1.21500
Cd	Cd	0.75045 0.00356 0.36577 1.20100
Cd	Cd	0.72313 0.24561 0.76489 1.22000
N 	N 	0.50840 0.19370 0.71090 -0.21300
O 	O 	0.65560 0.25450 0.65360 -0.52300
C 	C 	0.99170 0.15140 0.30790 0.09200
N 	N 	0.96560 0.17010 0.44010 -0.16200
C 	C 	0.52690 0.13810 0.61030 0.00600
N 	N 	0.99310 0.19450 0.28900 -0.21100
C 	C 	0.95190 0.15690 0.51350 0.00100
H 	H 	0.94420 0.17860 0.55160 0.03800
N 	N 	0.54110 0.17030 0.56160 -0.16400
C 	C 	0.52950 0.09400 0.58950 0.00200
H 	H 	0.52060 0.07260 0.62790 -0.00300
O 	O 	0.90770 0.26500 0.48440 -0.38400
C 	C 	0.75440 0.26800 0.55490 -0.23300
H 	H 	0.77900 0.29340 0.58080 0.09300
H 	H 	0.78390 0.24130 0.57020 0.10700
O 	O 	0.61120 0.26820 0.53740 -0.39800
O 	O 	0.64830 0.02180 0.27690 -0.43000
O 	O 	0.85170 0.98840 0.27690 -0.39600
N 	N 	0.75490 0.05540 0.46710 -0.21200
C 	C 	0.67030 0.26350 0.58340 0.37000
C 	C 	0.84610 0.26590 0.44180 0.37400
C 	C 	0.74070 0.09770 0.56890 0.08400
N 	N 	0.78630 0.08280 0.31590 -0.17700
N 	N 	0.74440 0.05380 0.54500 -0.21600
O 	O 	0.85800 0.26130 0.36940 -0.53700
N 	N 	0.79040 0.17410 0.27980 -0.19200
O 	O 	0.60030 0.00750 0.39450 -0.56600
N 	N 	0.75060 0.12740 0.51070 -0.12600
C 	C 	0.72610 0.11010 0.64910 0.00800
C 	C 	0.77560 0.16040 0.35150 0.01000
H 	H 	0.76520 0.18160 0.38970 0.02200
C 	C 	0.97860 0.13830 0.38980 0.00500
C 	C 	0.76040 0.09940 0.44800 0.08200
C 	C 	0.77530 0.11580 0.37080 0.00600
C 	C 	0.80240 0.14160 0.22500 -0.01000
H 	H 	0.81250 0.14980 0.17400 0.01100
C 	C 	0.97660 0.09340 0.41100 0.00300
H 	H 	0.98550 0.07200 0.37280 -0.00500
N 	N 	0.96270 0.07940 0.48200 -0.22300
N 	N 	0.71240 0.07610 0.69970 -0.16700
N 	N 	0.54390 0.07950 0.51880 -0.22100
C 	C 	0.55740 0.15690 0.48730 -0.00300
H 	H 	0.56680 0.17850 0.44940 0.04200
C 	C 	0.56020 0.11240 0.46770 0.01200
H 	H 	0.57400 0.10450 0.41730 0.01100
C 	C 	0.51020 0.15040 0.69450 0.10100
C 	C 	0.94900 0.11230 0.53320 0.01000
H 	H 	0.93710 0.10470 0.58410 0.01000
C 	C 	0.88760 0.24560 0.77650 0.34700
O 	O 	0.90080 0.99510 0.39620 -0.50900
C 	C 	0.76390 0.27390 0.47240 -0.25300
H 	H 	0.74820 0.30430 0.45930 0.09900
H 	H 	0.72710 0.25370 0.44620 0.11300
C 	C 	0.97630 0.24580 0.78830 -0.24700
H 	H 	0.99130 0.21960 0.81820 0.12400
H 	H 	0.99090 0.27220 0.81800 0.12300
O 	O 	0.85490 0.22490 0.71910 -0.37900
O 	O 	0.84540 0.26530 0.82440 -0.39600
C 	C 	0.79970 0.09710 0.24500 0.02500
H 	H 	0.80790 0.07590 0.20640 0.00200
N 	N 	0.71030 0.16630 0.74460 -0.19400
C 	C 	0.72650 0.15460 0.67140 0.00800
H 	H 	0.73820 0.17670 0.63520 0.02100
C 	C 	0.69370 0.13330 0.79570 0.00100
H 	H 	0.68080 0.14060 0.84660 0.01600
C 	C 	0.69600 0.08790 0.77220 0.01800
H 	H 	0.68570 0.06560 0.80860 0.01100
C 	C 	0.99480 0.98120 0.29270 -0.18200
H 	H 	0.02800 0.00490 0.31440 0.03200
H 	H 	0.01460 0.95290 0.31290 0.07300
C 	C 	0.50220 0.02230 0.29680 -0.30200
H 	H 	0.48130 0.05040 0.31700 0.10100
H 	H 	0.46990 0.99790 0.31750 0.13100
C 	C 	0.90750 0.98800 0.32120 0.35600
C 	C 	0.59200 0.01630 0.32170 0.37400
Cd	Cd	0.00417 0.74983 0.61594 1.21600
Cd	Cd	0.25045 0.50356 0.36577 1.21600
Cd	Cd	0.22313 0.74561 0.76489 1.22000
N 	N 	0.00840 0.69370 0.71090 -0.21100
O 	O 	0.15560 0.75450 0.65360 -0.52300
C 	C 	0.49170 0.65140 0.30790 0.09500
N 	N 	0.46560 0.67010 0.44010 -0.16200
C 	C 	0.02690 0.63810 0.61030 0.00700
N 	N 	0.49310 0.69450 0.28900 -0.21000
C 	C 	0.45190 0.65690 0.51350 0.00200
H 	H 	0.44420 0.67860 0.55160 0.03900
N 	N 	0.04110 0.67030 0.56160 -0.16300
C 	C 	0.02950 0.59400 0.58950 0.00300
H 	H 	0.02060 0.57260 0.62790 0.00400
O 	O 	0.40770 0.76500 0.48440 -0.38300
C 	C 	0.25440 0.76800 0.55490 -0.23300
H 	H 	0.27900 0.79340 0.58080 0.09400
H 	H 	0.28390 0.74130 0.57020 0.10700
O 	O 	0.11120 0.76820 0.53740 -0.39700
O 	O 	0.14830 0.52180 0.27690 -0.40900
O 	O 	0.35170 0.48840 0.27690 -0.42100
N 	N 	0.25490 0.55540 0.46710 -0.20500
C 	C 	0.17030 0.76350 0.58340 0.37000
C 	C 	0.34610 0.76590 0.44180 0.37400
C 	C 	0.24070 0.59770 0.56890 0.08500
N 	N 	0.28630 0.58280 0.31590 -0.17200
N 	N 	0.24440 0.55380 0.54500 -0.20700
O 	O 	0.35800 0.76130 0.36940 -0.53700
N 	N 	0.29040 0.67410 0.27980 -0.19200
O 	O 	0.10030 0.50750 0.39450 -0.54100
N 	N 	0.25060 0.62740 0.51070 -0.12600
C 	C 	0.22610 0.61010 0.64910 0.00900
C 	C 	0.27560 0.66040 0.35150 0.01000
H 	H 	0.26520 0.68160 0.38970 0.02200
C 	C 	0.47860 0.63830 0.38980 0.00600
C 	C 	0.26040 0.59940 0.44800 0.08300
C 	C 	0.27530 0.61580 0.37080 0.00700
C 	C 	0.30240 0.64160 0.22500 -0.00800
H 	H 	0.31250 0.64980 0.17400 0.01200
C 	C 	0.47660 0.59340 0.41100 0.00400
H 	H 	0.48550 0.57200 0.37280 0.00200
N 	N 	0.46270 0.57940 0.48200 -0.21800
N 	N 	0.21240 0.57610 0.69970 -0.16000
N 	N 	0.04390 0.57950 0.51880 -0.21600
C 	C 	0.05740 0.65690 0.48730 -0.00200
H 	H 	0.06680 0.67850 0.44940 0.04200
C 	C 	0.06020 0.61240 0.46770 0.01300
H 	H 	0.07400 0.60450 0.41730 0.01300
C 	C 	0.01020 0.65040 0.69450 0.10200
C 	C 	0.44900 0.61230 0.53320 0.01100
H 	H 	0.43710 0.60470 0.58410 0.01200
C 	C 	0.38760 0.74560 0.77650 0.34600
O 	O 	0.40080 0.49510 0.39620 -0.53700
C 	C 	0.26390 0.77390 0.47240 -0.25400
H 	H 	0.24820 0.80430 0.45930 0.10000
H 	H 	0.22710 0.75370 0.44620 0.11300
C 	C 	0.47630 0.74580 0.78830 -0.24300
H 	H 	0.49130 0.71960 0.81820 0.12400
H 	H 	0.49090 0.77220 0.81800 0.12300
O 	O 	0.35490 0.72490 0.71910 -0.37800
O 	O 	0.34540 0.76530 0.82440 -0.39600
C 	C 	0.29970 0.59710 0.24500 0.02500
H 	H 	0.30790 0.57590 0.20640 0.01000
N 	N 	0.21030 0.66630 0.74460 -0.19400
C 	C 	0.22650 0.65460 0.67140 0.00700
H 	H 	0.23820 0.67670 0.63520 0.02100
C 	C 	0.19370 0.63330 0.79570 0.00200
H 	H 	0.18080 0.64060 0.84660 0.01700
C 	C 	0.19600 0.58790 0.77220 0.01800
H 	H 	0.18570 0.56560 0.80860 0.01800
C 	C 	0.49480 0.48120 0.29270 -0.21800
H 	H 	0.52800 0.50490 0.31440 0.07400
H 	H 	0.51460 0.45290 0.31290 0.07700
C 	C 	0.00220 0.52230 0.29680 -0.20400
H 	H 	0.98130 0.55040 0.31700 0.07400
H 	H 	0.96990 0.49790 0.31750 0.06500
C 	C 	0.40750 0.48800 0.32120 0.35900
C 	C 	0.09200 0.51630 0.32170 0.35500
Cd	Cd	0.49583 0.75017 0.11594 1.21400
Cd	Cd	0.24955 0.99644 0.86577 1.23200
Cd	Cd	0.27687 0.75439 0.26489 1.22000
N 	N 	0.49160 0.80630 0.21090 -0.21300
O 	O 	0.34440 0.74550 0.15360 -0.53700
C 	C 	0.00830 0.84860 0.80790 0.09600
N 	N 	0.03440 0.82990 0.94010 -0.13300
C 	C 	0.47310 0.86190 0.11030 0.00400
N 	N 	0.00690 0.80550 0.78900 -0.20900
C 	C 	0.04810 0.84310 0.01350 -0.04400
H 	H 	0.05580 0.82140 0.05160 0.04100
N 	N 	0.45890 0.82970 0.06160 -0.19100
C 	C 	0.47050 0.90600 0.08950 -0.00500
H 	H 	0.47940 0.92740 0.12790 0.01100
O 	O 	0.09230 0.73500 0.98440 -0.34500
C 	C 	0.24560 0.73200 0.05490 -0.38300
H 	H 	0.22100 0.70660 0.08080 0.12400
H 	H 	0.21610 0.75870 0.07020 0.13800
O 	O 	0.38880 0.73180 0.03740 -0.43300
O 	O 	0.35170 0.97820 0.77690 -0.38700
O 	O 	0.14830 0.01160 0.77690 -0.43800
N 	N 	0.24510 0.94460 0.96710 -0.18000
C 	C 	0.32970 0.73650 0.08340 0.41200
C 	C 	0.15390 0.73410 0.94180 0.33200
C 	C 	0.25930 0.90230 0.06890 0.07900
N 	N 	0.21370 0.91720 0.81590 -0.16500
N 	N 	0.25560 0.94620 0.04500 -0.22000
O 	O 	0.14200 0.73870 0.86940 -0.52200
N 	N 	0.20960 0.82590 0.77980 -0.19300
O 	O 	0.39970 0.99250 0.89450 -0.49900
N 	N 	0.24940 0.87260 0.01070 -0.16300
C 	C 	0.27390 0.88990 0.14910 0.00900
C 	C 	0.22440 0.83960 0.85150 0.01700
H 	H 	0.23480 0.81840 0.88970 0.02800
C 	C 	0.02140 0.86170 0.88980 0.01200
C 	C 	0.23960 0.90060 0.94800 0.13100
C 	C 	0.22470 0.88420 0.87080 -0.00100
C 	C 	0.19760 0.85840 0.72500 -0.00400
H 	H 	0.18750 0.85020 0.67400 0.01800
C 	C 	0.02340 0.90660 0.91100 0.01300
H 	H 	0.01450 0.92800 0.87280 0.01100
N 	N 	0.03730 0.92060 0.98200 -0.17200
N 	N 	0.28760 0.92390 0.19970 -0.15400
N 	N 	0.45610 0.92050 0.01880 -0.24300
C 	C 	0.44260 0.84310 0.98730 0.04600
H 	H 	0.43320 0.82150 0.94940 0.04100
C 	C 	0.43980 0.88760 0.96770 0.06100
H 	H 	0.42600 0.89550 0.91730 0.00500
C 	C 	0.48980 0.84960 0.19450 0.10100
C 	C 	0.05100 0.88770 0.03320 -0.03600
H 	H 	0.06290 0.89530 0.08410 0.02400
C 	C 	0.11240 0.75440 0.27650 0.34400
O 	O 	0.09920 0.00490 0.89620 -0.54000
C 	C 	0.23610 0.72610 0.97240 -0.10300
H 	H 	0.25180 0.69570 0.95930 0.07000
H 	H 	0.27290 0.74630 0.94620 0.08300
C 	C 	0.02370 0.75420 0.28830 -0.23700
H 	H 	0.00870 0.78040 0.31820 0.11800
H 	H 	0.00910 0.72780 0.31800 0.11600
O 	O 	0.14510 0.77510 0.21910 -0.38200
O 	O 	0.15460 0.73470 0.32440 -0.40300
C 	C 	0.20030 0.90290 0.74500 0.02500
H 	H 	0.19210 0.92410 0.70640 0.02200
N 	N 	0.28970 0.83370 0.24460 -0.19500
C 	C 	0.27350 0.84540 0.17140 0.00700
H 	H 	0.26180 0.82330 0.13520 0.01600
C 	C 	0.30630 0.86670 0.29570 0.00300
H 	H 	0.31920 0.85940 0.34660 0.01200
C 	C 	0.30400 0.91210 0.27220 0.01600
H 	H 	0.31430 0.93440 0.30860 0.02200
C 	C 	0.00520 0.01880 0.79270 -0.24700
H 	H 	0.97200 0.99510 0.81440 0.11900
H 	H 	0.98540 0.04710 0.81290 0.08600
C 	C 	0.49780 0.97770 0.79680 -0.16100
H 	H 	0.51870 0.94960 0.81700 0.07300
H 	H 	0.53010 0.00210 0.81750 0.02700
C 	C 	0.09250 0.01200 0.82120 0.35900
C 	C 	0.40800 0.98370 0.82170 0.34700
Cd	Cd	0.99583 0.25017 0.11594 1.21300
Cd	Cd	0.74955 0.49644 0.86577 1.21800
Cd	Cd	0.77687 0.25439 0.26489 1.22000
N 	N 	0.99160 0.30630 0.21090 -0.21300
O 	O 	0.84440 0.24550 0.15360 -0.53800
C 	C 	0.50830 0.34860 0.80790 0.09500
N 	N 	0.53440 0.32990 0.94010 -0.13200
C 	C 	0.97310 0.36190 0.11030 0.00300
N 	N 	0.50690 0.30550 0.78900 -0.21000
C 	C 	0.54810 0.34310 0.01350 -0.04800
H 	H 	0.55580 0.32140 0.05160 0.04000
N 	N 	0.95890 0.32970 0.06160 -0.19200
C 	C 	0.97050 0.40600 0.08950 -0.00600
H 	H 	0.97940 0.42740 0.12790 0.00300
O 	O 	0.59230 0.23500 0.98440 -0.34400
C 	C 	0.74560 0.23200 0.05490 -0.38800
H 	H 	0.72100 0.20660 0.08080 0.12500
H 	H 	0.71610 0.25870 0.07020 0.13900
O 	O 	0.88880 0.23180 0.03740 -0.43500
O 	O 	0.85170 0.47820 0.77690 -0.40800
O 	O 	0.64830 0.51160 0.77690 -0.41700
N 	N 	0.74510 0.44460 0.96710 -0.18600
C 	C 	0.82970 0.23650 0.08340 0.41400
C 	C 	0.65390 0.23410 0.94180 0.33000
C 	C 	0.75930 0.40230 0.06890 0.07700
N 	N 	0.71370 0.41720 0.81590 -0.17000
N 	N 	0.75560 0.44620 0.04500 -0.23100
O 	O 	0.64200 0.23870 0.86940 -0.52200
N 	N 	0.70960 0.32590 0.77980 -0.19300
O 	O 	0.89970 0.49250 0.89450 -0.52800
N 	N 	0.74940 0.37260 0.01070 -0.16400
C 	C 	0.77390 0.38990 0.14910 0.00700
C 	C 	0.72440 0.33960 0.85150 0.01800
H 	H 	0.73480 0.31840 0.88970 0.02900
C 	C 	0.52140 0.36170 0.88980 0.01100
C 	C 	0.73960 0.40060 0.94800 0.13300
C 	C 	0.72470 0.38420 0.87080 -0.00200
C 	C 	0.69760 0.35840 0.72500 -0.00600
H 	H 	0.68750 0.35020 0.67400 0.01700
C 	C 	0.52340 0.40660 0.91100 0.01300
H 	H 	0.51450 0.42800 0.87280 0.00300
N 	N 	0.53730 0.42060 0.98200 -0.17700
N 	N 	0.78760 0.42390 0.19970 -0.16100
N 	N 	0.95610 0.42050 0.01880 -0.25200
C 	C 	0.94260 0.34310 0.98730 0.04700
H 	H 	0.93320 0.32150 0.94940 0.04000
C 	C 	0.93980 0.38760 0.96770 0.06200
H 	H 	0.92600 0.39550 0.91730 0.00300
C 	C 	0.98980 0.34960 0.19450 0.09800
C 	C 	0.55100 0.38770 0.03320 -0.04000
H 	H 	0.56290 0.39530 0.08410 0.02200
C 	C 	0.61240 0.25440 0.27650 0.34400
O 	O 	0.59920 0.50490 0.89620 -0.51900
C 	C 	0.73610 0.22610 0.97240 -0.09700
H 	H 	0.75180 0.19570 0.95930 0.06800
H 	H 	0.77290 0.24630 0.94620 0.08100
C 	C 	0.52370 0.25420 0.28830 -0.24100
H 	H 	0.50870 0.28040 0.31820 0.11800
H 	H 	0.50910 0.22780 0.31800 0.11600
O 	O 	0.64510 0.27510 0.21910 -0.38300
O 	O 	0.65460 0.23470 0.32440 -0.40400
C 	C 	0.70030 0.40290 0.74500 0.02600
H 	H 	0.69210 0.42410 0.70640 0.01400
N 	N 	0.78970 0.33370 0.24460 -0.19500
C 	C 	0.77350 0.34540 0.17140 0.00700
H 	H 	0.76180 0.32330 0.13520 0.01600
C 	C 	0.80630 0.36670 0.29570 0.00100
H 	H 	0.81920 0.35940 0.34660 0.01100
C 	C 	0.80400 0.41210 0.27220 0.01600
H 	H 	0.81430 0.43440 0.30860 0.01300
C 	C 	0.50520 0.51880 0.79270 -0.21800
H 	H 	0.47200 0.49510 0.81440 0.07900
H 	H 	0.48540 0.54710 0.81290 0.08300
C 	C 	0.99780 0.47770 0.79680 -0.25300
H 	H 	0.01870 0.44960 0.81700 0.09800
H 	H 	0.03010 0.50210 0.81750 0.08800
C 	C 	0.59250 0.51200 0.82120 0.35700
C 	C 	0.90800 0.48370 0.82170 0.36600
Cd	Cd	0.47169 0.00000 -0.00000 1.14800
Cd	Cd	0.02545 0.00000 -0.00000 1.15100
Cd	Cd	0.97169 0.50000 -0.00000 1.16300
Cd	Cd	0.52545 0.50000 -0.00000 1.16400
Cd	Cd	0.52831 0.00000 0.50000 1.16800
Cd	Cd	0.97455 0.00000 0.50000 1.16900
Cd	Cd	0.02831 0.50000 0.50000 1.18200
Cd	Cd	0.47455 0.50000 0.50000 1.18300
N 	N 	-0.00000 0.12260 0.25000 -0.13900
N 	N 	0.50000 0.62260 0.25000 -0.13900
N 	N 	-0.00000 0.87740 0.75000 -0.13500
N 	N 	0.50000 0.37740 0.75000 -0.13900
N 	N 	0.50000 0.12190 0.75000 -0.14800
N 	N 	-0.00000 0.62190 0.75000 -0.14400
N 	N 	0.50000 0.87810 0.25000 -0.14500
N 	N 	-0.00000 0.37810 0.25000 -0.14400
