data_crystal

_cell_length_a 47.00500
_cell_length_b 47.00500
_cell_length_c 47.00500
_cell_angle_alpha 90.00000
_cell_angle_beta  90.00000
_cell_angle_gamma 90.00000

_symmetry_space_group_name_	'P 1'
_symmetry_space_group_name_H-M	'P 1'

loop_
_symmetry_equiv_pos_as_xyz
  x,y,z

loop_
_atom_site_label
_atom_site_type_symbol
_atom_site_fract_x
_atom_site_fract_y
_atom_site_fract_z
_atom_site_charge
O 	O 	0.32332 0.13548 0.02922 -0.41400
O 	O 	0.35706 0.10199 0.02935 -0.40800
C 	C 	0.33436 0.11298 0.03836 0.37000
C 	C 	0.31961 0.09804 0.06189 -0.10300
C 	C 	0.29347 0.10735 0.07141 0.01000
H 	H 	0.28450 0.12300 0.06220 0.03900
C 	C 	0.24550 0.10230 0.13240 -0.04600
H 	H 	0.25830 0.09270 0.14470 0.04500
C 	C 	0.21970 0.11450 0.14430 -0.03700
H 	H 	0.21640 0.11510 0.16430 0.04000
C 	C 	0.20580 0.12560 0.09680 -0.02700
C 	C 	0.23200 0.11530 0.08680 -0.05200
H 	H 	0.19200 0.13270 0.08370 0.03500
H 	H 	0.23580 0.11630 0.06700 0.04600
O 	O 	0.32332 0.63548 0.52922 -0.41300
O 	O 	0.35706 0.60199 0.52935 -0.40900
C 	C 	0.33436 0.61298 0.53836 0.36900
C 	C 	0.31961 0.59804 0.56189 -0.10300
C 	C 	0.29347 0.60735 0.57141 0.00900
H 	H 	0.28450 0.62300 0.56220 0.03800
C 	C 	0.24550 0.60230 0.63240 -0.04700
H 	H 	0.25830 0.59270 0.64470 0.04400
C 	C 	0.21970 0.61450 0.64430 -0.03800
H 	H 	0.21640 0.61510 0.66430 0.03900
C 	C 	0.20580 0.62560 0.59680 -0.02800
C 	C 	0.23200 0.61530 0.58680 -0.05200
H 	H 	0.19200 0.63270 0.58370 0.03500
H 	H 	0.23580 0.61630 0.56700 0.04600
O 	O 	0.82332 0.13548 0.52922 -0.41400
O 	O 	0.85706 0.10199 0.52935 -0.40900
C 	C 	0.83436 0.11298 0.53836 0.36900
C 	C 	0.81961 0.09804 0.56189 -0.10300
C 	C 	0.79347 0.10735 0.57141 0.00900
H 	H 	0.78450 0.12300 0.56220 0.03800
C 	C 	0.74550 0.10230 0.63240 -0.04700
H 	H 	0.75830 0.09270 0.64470 0.04400
C 	C 	0.71970 0.11450 0.64430 -0.03800
H 	H 	0.71640 0.11510 0.66430 0.03900
C 	C 	0.70580 0.12560 0.59680 -0.02800
C 	C 	0.73200 0.11530 0.58680 -0.05300
H 	H 	0.69200 0.13270 0.58370 0.03500
H 	H 	0.73580 0.11630 0.56700 0.04600
O 	O 	0.82332 0.63548 0.02922 -0.41500
O 	O 	0.85706 0.60199 0.02935 -0.40900
C 	C 	0.83436 0.61298 0.03836 0.36900
C 	C 	0.81961 0.59804 0.06189 -0.10400
C 	C 	0.79347 0.60735 0.07141 0.00900
H 	H 	0.78450 0.62300 0.06220 0.03800
C 	C 	0.74550 0.60230 0.13240 -0.04700
H 	H 	0.75830 0.59270 0.14470 0.04400
C 	C 	0.71970 0.61450 0.14430 -0.03800
H 	H 	0.71640 0.61510 0.16430 0.03900
C 	C 	0.70580 0.62560 0.09680 -0.02800
C 	C 	0.73200 0.61530 0.08680 -0.05200
H 	H 	0.69200 0.63270 0.08370 0.03500
H 	H 	0.73580 0.61630 0.06700 0.04500
O 	O 	0.67668 0.86452 0.02922 -0.41400
O 	O 	0.64294 0.89801 0.02935 -0.40900
C 	C 	0.66564 0.88702 0.03836 0.36900
C 	C 	0.68039 0.90196 0.06189 -0.10300
C 	C 	0.70653 0.89265 0.07141 0.00900
H 	H 	0.71550 0.87700 0.06220 0.03800
C 	C 	0.75450 0.89770 0.13240 -0.04700
H 	H 	0.74170 0.90730 0.14470 0.04400
C 	C 	0.78030 0.88550 0.14430 -0.03800
H 	H 	0.78360 0.88490 0.16430 0.03900
C 	C 	0.79420 0.87440 0.09680 -0.02800
C 	C 	0.76800 0.88470 0.08680 -0.05200
H 	H 	0.80800 0.86730 0.08370 0.03500
H 	H 	0.76420 0.88370 0.06700 0.04500
O 	O 	0.67668 0.36452 0.52922 -0.41400
O 	O 	0.64294 0.39801 0.52935 -0.40900
C 	C 	0.66564 0.38702 0.53836 0.36900
C 	C 	0.68039 0.40196 0.56189 -0.10300
C 	C 	0.70653 0.39265 0.57141 0.00900
H 	H 	0.71550 0.37700 0.56220 0.03800
C 	C 	0.75450 0.39770 0.63240 -0.04700
H 	H 	0.74170 0.40730 0.64470 0.04400
C 	C 	0.78030 0.38550 0.64430 -0.03800
H 	H 	0.78360 0.38490 0.66430 0.03900
C 	C 	0.79420 0.37440 0.59680 -0.02800
C 	C 	0.76800 0.38470 0.58680 -0.05200
H 	H 	0.80800 0.36730 0.58370 0.03500
H 	H 	0.76420 0.38370 0.56700 0.04600
O 	O 	0.17668 0.86452 0.52922 -0.41400
O 	O 	0.14294 0.89801 0.52935 -0.40800
C 	C 	0.16564 0.88702 0.53836 0.36900
C 	C 	0.18039 0.90196 0.56189 -0.10300
C 	C 	0.20653 0.89265 0.57141 0.00900
H 	H 	0.21550 0.87700 0.56220 0.03800
C 	C 	0.25450 0.89770 0.63240 -0.04700
H 	H 	0.24170 0.90730 0.64470 0.04400
C 	C 	0.28030 0.88550 0.64430 -0.03800
H 	H 	0.28360 0.88490 0.66430 0.03900
C 	C 	0.29420 0.87440 0.59680 -0.02800
C 	C 	0.26800 0.88470 0.58680 -0.05200
H 	H 	0.30800 0.86730 0.58370 0.03500
H 	H 	0.26420 0.88370 0.56700 0.04600
O 	O 	0.17668 0.36452 0.02922 -0.41500
O 	O 	0.14294 0.39801 0.02935 -0.40900
C 	C 	0.16564 0.38702 0.03836 0.36900
C 	C 	0.18039 0.40196 0.06189 -0.10400
C 	C 	0.20653 0.39265 0.07141 0.00900
H 	H 	0.21550 0.37700 0.06220 0.03800
C 	C 	0.25450 0.39770 0.13240 -0.04700
H 	H 	0.24170 0.40730 0.14470 0.04400
C 	C 	0.28030 0.38550 0.14430 -0.03800
H 	H 	0.28360 0.38490 0.16430 0.03900
C 	C 	0.29420 0.37440 0.09680 -0.02800
C 	C 	0.26800 0.38470 0.08680 -0.05200
H 	H 	0.30800 0.36730 0.08370 0.03500
H 	H 	0.26420 0.38370 0.06700 0.04500
O 	O 	0.67668 0.13548 0.97078 -0.41300
O 	O 	0.64294 0.10199 0.97065 -0.40800
C 	C 	0.66564 0.11298 0.96164 0.36900
C 	C 	0.68039 0.09804 0.93811 -0.10300
C 	C 	0.70653 0.10735 0.92859 0.00900
H 	H 	0.71550 0.12300 0.93780 0.03900
C 	C 	0.75450 0.10230 0.86760 -0.04700
H 	H 	0.74170 0.09270 0.85530 0.04400
C 	C 	0.78030 0.11450 0.85570 -0.03800
H 	H 	0.78360 0.11510 0.83570 0.03900
C 	C 	0.79420 0.12560 0.90320 -0.02800
C 	C 	0.76800 0.11530 0.91320 -0.05300
H 	H 	0.80800 0.13270 0.91630 0.03500
H 	H 	0.76420 0.11630 0.93300 0.04600
O 	O 	0.67668 0.63548 0.47078 -0.41400
O 	O 	0.64294 0.60199 0.47065 -0.40900
C 	C 	0.66564 0.61298 0.46164 0.36900
C 	C 	0.68039 0.59804 0.43811 -0.10300
C 	C 	0.70653 0.60735 0.42859 0.00900
H 	H 	0.71550 0.62300 0.43780 0.03800
C 	C 	0.75450 0.60230 0.36760 -0.04700
H 	H 	0.74170 0.59270 0.35530 0.04400
C 	C 	0.78030 0.61450 0.35570 -0.03800
H 	H 	0.78360 0.61510 0.33570 0.03900
C 	C 	0.79420 0.62560 0.40320 -0.02800
C 	C 	0.76800 0.61530 0.41320 -0.05200
H 	H 	0.80800 0.63270 0.41630 0.03500
H 	H 	0.76420 0.61630 0.43300 0.04600
O 	O 	0.17668 0.13548 0.47078 -0.41400
O 	O 	0.14294 0.10199 0.47065 -0.40900
C 	C 	0.16564 0.11298 0.46164 0.36900
C 	C 	0.18039 0.09804 0.43811 -0.10300
C 	C 	0.20653 0.10735 0.42859 0.00900
H 	H 	0.21550 0.12300 0.43780 0.03800
C 	C 	0.25450 0.10230 0.36760 -0.04700
H 	H 	0.24170 0.09270 0.35530 0.04400
C 	C 	0.28030 0.11450 0.35570 -0.03800
H 	H 	0.28360 0.11510 0.33570 0.03900
C 	C 	0.29420 0.12560 0.40320 -0.02800
C 	C 	0.26800 0.11530 0.41320 -0.05300
H 	H 	0.30800 0.13270 0.41630 0.03500
H 	H 	0.26420 0.11630 0.43300 0.04600
O 	O 	0.17668 0.63548 0.97078 -0.41300
O 	O 	0.14294 0.60199 0.97065 -0.40700
C 	C 	0.16564 0.61298 0.96164 0.36900
C 	C 	0.18039 0.59804 0.93811 -0.10300
C 	C 	0.20653 0.60735 0.92859 0.00900
H 	H 	0.21550 0.62300 0.93780 0.03900
C 	C 	0.25450 0.60230 0.86760 -0.04700
H 	H 	0.24170 0.59270 0.85530 0.04400
C 	C 	0.28030 0.61450 0.85570 -0.03800
H 	H 	0.28360 0.61510 0.83570 0.03900
C 	C 	0.29420 0.62560 0.90320 -0.02800
C 	C 	0.26800 0.61530 0.91320 -0.05200
H 	H 	0.30800 0.63270 0.91630 0.03500
H 	H 	0.26420 0.61630 0.93300 0.04600
O 	O 	0.32332 0.86452 0.97078 -0.41300
O 	O 	0.35706 0.89801 0.97065 -0.40700
C 	C 	0.33436 0.88702 0.96164 0.36900
C 	C 	0.31961 0.90196 0.93811 -0.10200
C 	C 	0.29347 0.89265 0.92859 0.00800
H 	H 	0.28450 0.87700 0.93780 0.03900
C 	C 	0.24550 0.89770 0.86760 -0.04700
H 	H 	0.25830 0.90730 0.85530 0.04400
C 	C 	0.21970 0.88550 0.85570 -0.03800
H 	H 	0.21640 0.88490 0.83570 0.03900
C 	C 	0.20580 0.87440 0.90320 -0.02800
C 	C 	0.23200 0.88470 0.91320 -0.05200
H 	H 	0.19200 0.86730 0.91630 0.03500
H 	H 	0.23580 0.88370 0.93300 0.04600
O 	O 	0.32332 0.36452 0.47078 -0.41400
O 	O 	0.35706 0.39801 0.47065 -0.40900
C 	C 	0.33436 0.38702 0.46164 0.36900
C 	C 	0.31961 0.40196 0.43811 -0.10300
C 	C 	0.29347 0.39265 0.42859 0.00900
H 	H 	0.28450 0.37700 0.43780 0.03800
C 	C 	0.24550 0.39770 0.36760 -0.04700
H 	H 	0.25830 0.40730 0.35530 0.04400
C 	C 	0.21970 0.38550 0.35570 -0.03800
H 	H 	0.21640 0.38490 0.33570 0.03900
C 	C 	0.20580 0.37440 0.40320 -0.02800
C 	C 	0.23200 0.38470 0.41320 -0.05200
H 	H 	0.19200 0.36730 0.41630 0.03500
H 	H 	0.23580 0.38370 0.43300 0.04600
O 	O 	0.82332 0.86452 0.47078 -0.41400
O 	O 	0.85706 0.89801 0.47065 -0.40800
C 	C 	0.83436 0.88702 0.46164 0.36900
C 	C 	0.81961 0.90196 0.43811 -0.10300
C 	C 	0.79347 0.89265 0.42859 0.00900
H 	H 	0.78450 0.87700 0.43780 0.03800
C 	C 	0.74550 0.89770 0.36760 -0.04700
H 	H 	0.75830 0.90730 0.35530 0.04400
C 	C 	0.71970 0.88550 0.35570 -0.03800
H 	H 	0.71640 0.88490 0.33570 0.03900
C 	C 	0.70580 0.87440 0.40320 -0.02800
C 	C 	0.73200 0.88470 0.41320 -0.05200
H 	H 	0.69200 0.86730 0.41630 0.03500
H 	H 	0.73580 0.88370 0.43300 0.04600
O 	O 	0.82332 0.36452 0.97078 -0.41300
O 	O 	0.85706 0.39801 0.97065 -0.40700
C 	C 	0.83436 0.38702 0.96164 0.36900
C 	C 	0.81961 0.40196 0.93811 -0.10300
C 	C 	0.79347 0.39265 0.92859 0.00800
H 	H 	0.78450 0.37700 0.93780 0.03900
C 	C 	0.74550 0.39770 0.86760 -0.04700
H 	H 	0.75830 0.40730 0.85530 0.04400
C 	C 	0.71970 0.38550 0.85570 -0.03800
H 	H 	0.71640 0.38490 0.83570 0.03900
C 	C 	0.70580 0.37440 0.90320 -0.02800
C 	C 	0.73200 0.38470 0.91320 -0.05200
H 	H 	0.69200 0.36730 0.91630 0.03500
H 	H 	0.73580 0.38370 0.93300 0.04600
O 	O 	0.02922 0.32332 0.13548 -0.41500
O 	O 	0.02935 0.35706 0.10199 -0.40900
C 	C 	0.03836 0.33436 0.11298 0.36900
C 	C 	0.06189 0.31961 0.09804 -0.10400
C 	C 	0.07141 0.29347 0.10735 0.00900
H 	H 	0.06220 0.28450 0.12300 0.03800
C 	C 	0.13240 0.24550 0.10230 -0.04700
H 	H 	0.14470 0.25830 0.09270 0.04400
C 	C 	0.14430 0.21970 0.11450 -0.03800
H 	H 	0.16430 0.21640 0.11510 0.03900
C 	C 	0.09680 0.20580 0.12560 -0.02800
C 	C 	0.08680 0.23200 0.11530 -0.05300
H 	H 	0.08370 0.19200 0.13270 0.03400
H 	H 	0.06700 0.23580 0.11630 0.04500
O 	O 	0.02922 0.82332 0.63548 -0.41500
O 	O 	0.02935 0.85706 0.60199 -0.40900
C 	C 	0.03836 0.83436 0.61298 0.36900
C 	C 	0.06189 0.81961 0.59804 -0.10400
C 	C 	0.07141 0.79347 0.60735 0.00900
H 	H 	0.06220 0.78450 0.62300 0.03800
C 	C 	0.13240 0.74550 0.60230 -0.04700
H 	H 	0.14470 0.75830 0.59270 0.04400
C 	C 	0.14430 0.71970 0.61450 -0.03800
H 	H 	0.16430 0.71640 0.61510 0.03900
C 	C 	0.09680 0.70580 0.62560 -0.02800
C 	C 	0.08680 0.73200 0.61530 -0.05200
H 	H 	0.08370 0.69200 0.63270 0.03500
H 	H 	0.06700 0.73580 0.61630 0.04500
O 	O 	0.52922 0.32332 0.63548 -0.41400
O 	O 	0.52935 0.35706 0.60199 -0.40900
C 	C 	0.53836 0.33436 0.61298 0.36900
C 	C 	0.56189 0.31961 0.59804 -0.10300
C 	C 	0.57141 0.29347 0.60735 0.00900
H 	H 	0.56220 0.28450 0.62300 0.03800
C 	C 	0.63240 0.24550 0.60230 -0.04700
H 	H 	0.64470 0.25830 0.59270 0.04400
C 	C 	0.64430 0.21970 0.61450 -0.03800
H 	H 	0.66430 0.21640 0.61510 0.03900
C 	C 	0.59680 0.20580 0.62560 -0.02800
C 	C 	0.58680 0.23200 0.61530 -0.05200
H 	H 	0.58370 0.19200 0.63270 0.03500
H 	H 	0.56700 0.23580 0.61630 0.04600
O 	O 	0.52922 0.82332 0.13548 -0.41400
O 	O 	0.52935 0.85706 0.10199 -0.40900
C 	C 	0.53836 0.83436 0.11298 0.36900
C 	C 	0.56189 0.81961 0.09804 -0.10300
C 	C 	0.57141 0.79347 0.10735 0.00900
H 	H 	0.56220 0.78450 0.12300 0.03800
C 	C 	0.63240 0.74550 0.10230 -0.04700
H 	H 	0.64470 0.75830 0.09270 0.04400
C 	C 	0.64430 0.71970 0.11450 -0.03800
H 	H 	0.66430 0.71640 0.11510 0.03900
C 	C 	0.59680 0.70580 0.12560 -0.02800
C 	C 	0.58680 0.73200 0.11530 -0.05300
H 	H 	0.58370 0.69200 0.13270 0.03500
H 	H 	0.56700 0.73580 0.11630 0.04600
O 	O 	0.02922 0.67668 0.86452 -0.41400
O 	O 	0.02935 0.64294 0.89801 -0.40900
C 	C 	0.03836 0.66564 0.88702 0.36900
C 	C 	0.06189 0.68039 0.90196 -0.10300
C 	C 	0.07141 0.70653 0.89265 0.00900
H 	H 	0.06220 0.71550 0.87700 0.03800
C 	C 	0.13240 0.75450 0.89770 -0.04700
H 	H 	0.14470 0.74170 0.90730 0.04400
C 	C 	0.14430 0.78030 0.88550 -0.03800
H 	H 	0.16430 0.78360 0.88490 0.03900
C 	C 	0.09680 0.79420 0.87440 -0.02800
C 	C 	0.08680 0.76800 0.88470 -0.05200
H 	H 	0.08370 0.80800 0.86730 0.03500
H 	H 	0.06700 0.76420 0.88370 0.04500
O 	O 	0.02922 0.17668 0.36452 -0.41500
O 	O 	0.02935 0.14294 0.39801 -0.40900
C 	C 	0.03836 0.16564 0.38702 0.36900
C 	C 	0.06189 0.18039 0.40196 -0.10400
C 	C 	0.07141 0.20653 0.39265 0.00900
H 	H 	0.06220 0.21550 0.37700 0.03800
C 	C 	0.13240 0.25450 0.39770 -0.04700
H 	H 	0.14470 0.24170 0.40730 0.04400
C 	C 	0.14430 0.28030 0.38550 -0.03800
H 	H 	0.16430 0.28360 0.38490 0.03900
C 	C 	0.09680 0.29420 0.37440 -0.02800
C 	C 	0.08680 0.26800 0.38470 -0.05200
H 	H 	0.08370 0.30800 0.36730 0.03500
H 	H 	0.06700 0.26420 0.38370 0.04500
O 	O 	0.52922 0.67668 0.36452 -0.41400
O 	O 	0.52935 0.64294 0.39801 -0.40900
C 	C 	0.53836 0.66564 0.38702 0.36900
C 	C 	0.56189 0.68039 0.40196 -0.10300
C 	C 	0.57141 0.70653 0.39265 0.00900
H 	H 	0.56220 0.71550 0.37700 0.03800
C 	C 	0.63240 0.75450 0.39770 -0.04700
H 	H 	0.64470 0.74170 0.40730 0.04400
C 	C 	0.64430 0.78030 0.38550 -0.03800
H 	H 	0.66430 0.78360 0.38490 0.03900
C 	C 	0.59680 0.79420 0.37440 -0.02800
C 	C 	0.58680 0.76800 0.38470 -0.05200
H 	H 	0.58370 0.80800 0.36730 0.03500
H 	H 	0.56700 0.76420 0.38370 0.04600
O 	O 	0.52922 0.17668 0.86452 -0.41400
O 	O 	0.52935 0.14294 0.89801 -0.40800
C 	C 	0.53836 0.16564 0.88702 0.36900
C 	C 	0.56189 0.18039 0.90196 -0.10300
C 	C 	0.57141 0.20653 0.89265 0.00900
H 	H 	0.56220 0.21550 0.87700 0.03800
C 	C 	0.63240 0.25450 0.89770 -0.04700
H 	H 	0.64470 0.24170 0.90730 0.04400
C 	C 	0.64430 0.28030 0.88550 -0.03800
H 	H 	0.66430 0.28360 0.88490 0.03900
C 	C 	0.59680 0.29420 0.87440 -0.02800
C 	C 	0.58680 0.26800 0.88470 -0.05200
H 	H 	0.58370 0.30800 0.86730 0.03500
H 	H 	0.56700 0.26420 0.88370 0.04600
O 	O 	0.97078 0.67668 0.13548 -0.41300
O 	O 	0.97065 0.64294 0.10199 -0.40800
C 	C 	0.96164 0.66564 0.11298 0.36900
C 	C 	0.93811 0.68039 0.09804 -0.10300
C 	C 	0.92859 0.70653 0.10735 0.00900
H 	H 	0.93780 0.71550 0.12300 0.03900
C 	C 	0.86760 0.75450 0.10230 -0.04700
H 	H 	0.85530 0.74170 0.09270 0.04400
C 	C 	0.85570 0.78030 0.11450 -0.03800
H 	H 	0.83570 0.78360 0.11510 0.03900
C 	C 	0.90320 0.79420 0.12560 -0.02800
C 	C 	0.91320 0.76800 0.11530 -0.05300
H 	H 	0.91630 0.80800 0.13270 0.03500
H 	H 	0.93300 0.76420 0.11630 0.04600
O 	O 	0.97078 0.17668 0.63548 -0.41300
O 	O 	0.97065 0.14294 0.60199 -0.40700
C 	C 	0.96164 0.16564 0.61298 0.36900
C 	C 	0.93811 0.18039 0.59804 -0.10300
C 	C 	0.92859 0.20653 0.60735 0.00900
H 	H 	0.93780 0.21550 0.62300 0.03900
C 	C 	0.86760 0.25450 0.60230 -0.04700
H 	H 	0.85530 0.24170 0.59270 0.04400
C 	C 	0.85570 0.28030 0.61450 -0.03800
H 	H 	0.83570 0.28360 0.61510 0.03900
C 	C 	0.90320 0.29420 0.62560 -0.02800
C 	C 	0.91320 0.26800 0.61530 -0.05200
H 	H 	0.91630 0.30800 0.63270 0.03500
H 	H 	0.93300 0.26420 0.61630 0.04600
O 	O 	0.47078 0.67668 0.63548 -0.41400
O 	O 	0.47065 0.64294 0.60199 -0.40900
C 	C 	0.46164 0.66564 0.61298 0.36900
C 	C 	0.43811 0.68039 0.59804 -0.10300
C 	C 	0.42859 0.70653 0.60735 0.00900
H 	H 	0.43780 0.71550 0.62300 0.03800
C 	C 	0.36760 0.75450 0.60230 -0.04700
H 	H 	0.35530 0.74170 0.59270 0.04400
C 	C 	0.35570 0.78030 0.61450 -0.03800
H 	H 	0.33570 0.78360 0.61510 0.03900
C 	C 	0.40320 0.79420 0.62560 -0.02800
C 	C 	0.41320 0.76800 0.61530 -0.05200
H 	H 	0.41630 0.80800 0.63270 0.03500
H 	H 	0.43300 0.76420 0.61630 0.04600
O 	O 	0.47078 0.17668 0.13548 -0.41400
O 	O 	0.47065 0.14294 0.10199 -0.40900
C 	C 	0.46164 0.16564 0.11298 0.36900
C 	C 	0.43811 0.18039 0.09804 -0.10300
C 	C 	0.42859 0.20653 0.10735 0.00900
H 	H 	0.43780 0.21550 0.12300 0.03800
C 	C 	0.36760 0.25450 0.10230 -0.04700
H 	H 	0.35530 0.24170 0.09270 0.04400
C 	C 	0.35570 0.28030 0.11450 -0.03800
H 	H 	0.33570 0.28360 0.11510 0.03900
C 	C 	0.40320 0.29420 0.12560 -0.02800
C 	C 	0.41320 0.26800 0.11530 -0.05300
H 	H 	0.41630 0.30800 0.13270 0.03500
H 	H 	0.43300 0.26420 0.11630 0.04600
O 	O 	0.97078 0.32332 0.86452 -0.41300
O 	O 	0.97065 0.35706 0.89801 -0.40700
C 	C 	0.96164 0.33436 0.88702 0.36900
C 	C 	0.93811 0.31961 0.90196 -0.10200
C 	C 	0.92859 0.29347 0.89265 0.00800
H 	H 	0.93780 0.28450 0.87700 0.03900
C 	C 	0.86760 0.24550 0.89770 -0.04700
H 	H 	0.85530 0.25830 0.90730 0.04400
C 	C 	0.85570 0.21970 0.88550 -0.03800
H 	H 	0.83570 0.21640 0.88490 0.03900
C 	C 	0.90320 0.20580 0.87440 -0.02800
C 	C 	0.91320 0.23200 0.88470 -0.05200
H 	H 	0.91630 0.19200 0.86730 0.03500
H 	H 	0.93300 0.23580 0.88370 0.04600
O 	O 	0.97078 0.82332 0.36452 -0.41300
O 	O 	0.97065 0.85706 0.39801 -0.40700
C 	C 	0.96164 0.83436 0.38702 0.36900
C 	C 	0.93811 0.81961 0.40196 -0.10300
C 	C 	0.92859 0.79347 0.39265 0.00800
H 	H 	0.93780 0.78450 0.37700 0.03900
C 	C 	0.86760 0.74550 0.39770 -0.04700
H 	H 	0.85530 0.75830 0.40730 0.04400
C 	C 	0.85570 0.71970 0.38550 -0.03800
H 	H 	0.83570 0.71640 0.38490 0.03900
C 	C 	0.90320 0.70580 0.37440 -0.02800
C 	C 	0.91320 0.73200 0.38470 -0.05200
H 	H 	0.91630 0.69200 0.36730 0.03500
H 	H 	0.93300 0.73580 0.38370 0.04600
O 	O 	0.47078 0.32332 0.36452 -0.41400
O 	O 	0.47065 0.35706 0.39801 -0.40900
C 	C 	0.46164 0.33436 0.38702 0.36900
C 	C 	0.43811 0.31961 0.40196 -0.10300
C 	C 	0.42859 0.29347 0.39265 0.00900
H 	H 	0.43780 0.28450 0.37700 0.03800
C 	C 	0.36760 0.24550 0.39770 -0.04700
H 	H 	0.35530 0.25830 0.40730 0.04400
C 	C 	0.35570 0.21970 0.38550 -0.03800
H 	H 	0.33570 0.21640 0.38490 0.03900
C 	C 	0.40320 0.20580 0.37440 -0.02800
C 	C 	0.41320 0.23200 0.38470 -0.05200
H 	H 	0.41630 0.19200 0.36730 0.03500
H 	H 	0.43300 0.23580 0.38370 0.04600
O 	O 	0.47078 0.82332 0.86452 -0.41400
O 	O 	0.47065 0.85706 0.89801 -0.40800
C 	C 	0.46164 0.83436 0.88702 0.36900
C 	C 	0.43811 0.81961 0.90196 -0.10300
C 	C 	0.42859 0.79347 0.89265 0.00900
H 	H 	0.43780 0.78450 0.87700 0.03800
C 	C 	0.36760 0.74550 0.89770 -0.04700
H 	H 	0.35530 0.75830 0.90730 0.04400
C 	C 	0.35570 0.71970 0.88550 -0.03800
H 	H 	0.33570 0.71640 0.88490 0.03900
C 	C 	0.40320 0.70580 0.87440 -0.02800
C 	C 	0.41320 0.73200 0.88470 -0.05200
H 	H 	0.41630 0.69200 0.86730 0.03500
H 	H 	0.43300 0.73580 0.88370 0.04600
O 	O 	0.13548 0.02922 0.32332 -0.41500
O 	O 	0.10199 0.02935 0.35706 -0.40900
C 	C 	0.11298 0.03836 0.33436 0.36900
C 	C 	0.09804 0.06189 0.31961 -0.10400
C 	C 	0.10735 0.07141 0.29347 0.00900
H 	H 	0.12300 0.06220 0.28450 0.03800
C 	C 	0.10230 0.13240 0.24550 -0.04700
H 	H 	0.09270 0.14470 0.25830 0.04400
C 	C 	0.11450 0.14430 0.21970 -0.03800
H 	H 	0.11510 0.16430 0.21640 0.03900
C 	C 	0.12560 0.09680 0.20580 -0.02800
C 	C 	0.11530 0.08680 0.23200 -0.05300
H 	H 	0.13270 0.08370 0.19200 0.03400
H 	H 	0.11630 0.06700 0.23580 0.04500
O 	O 	0.13548 0.52922 0.82332 -0.41400
O 	O 	0.10199 0.52935 0.85706 -0.40900
C 	C 	0.11298 0.53836 0.83436 0.36900
C 	C 	0.09804 0.56189 0.81961 -0.10300
C 	C 	0.10735 0.57141 0.79347 0.00900
H 	H 	0.12300 0.56220 0.78450 0.03800
C 	C 	0.10230 0.63240 0.74550 -0.04700
H 	H 	0.09270 0.64470 0.75830 0.04400
C 	C 	0.11450 0.64430 0.71970 -0.03800
H 	H 	0.11510 0.66430 0.71640 0.03900
C 	C 	0.12560 0.59680 0.70580 -0.02800
C 	C 	0.11530 0.58680 0.73200 -0.05300
H 	H 	0.13270 0.58370 0.69200 0.03500
H 	H 	0.11630 0.56700 0.73580 0.04600
O 	O 	0.63548 0.02922 0.82332 -0.41500
O 	O 	0.60199 0.02935 0.85706 -0.40900
C 	C 	0.61298 0.03836 0.83436 0.36900
C 	C 	0.59804 0.06189 0.81961 -0.10400
C 	C 	0.60735 0.07141 0.79347 0.00900
H 	H 	0.62300 0.06220 0.78450 0.03800
C 	C 	0.60230 0.13240 0.74550 -0.04700
H 	H 	0.59270 0.14470 0.75830 0.04400
C 	C 	0.61450 0.14430 0.71970 -0.03800
H 	H 	0.61510 0.16430 0.71640 0.03900
C 	C 	0.62560 0.09680 0.70580 -0.02800
C 	C 	0.61530 0.08680 0.73200 -0.05200
H 	H 	0.63270 0.08370 0.69200 0.03500
H 	H 	0.61630 0.06700 0.73580 0.04500
O 	O 	0.63548 0.52922 0.32332 -0.41400
O 	O 	0.60199 0.52935 0.35706 -0.40900
C 	C 	0.61298 0.53836 0.33436 0.36900
C 	C 	0.59804 0.56189 0.31961 -0.10300
C 	C 	0.60735 0.57141 0.29347 0.00900
H 	H 	0.62300 0.56220 0.28450 0.03800
C 	C 	0.60230 0.63240 0.24550 -0.04700
H 	H 	0.59270 0.64470 0.25830 0.04400
C 	C 	0.61450 0.64430 0.21970 -0.03800
H 	H 	0.61510 0.66430 0.21640 0.03900
C 	C 	0.62560 0.59680 0.20580 -0.02800
C 	C 	0.61530 0.58680 0.23200 -0.05200
H 	H 	0.63270 0.58370 0.19200 0.03500
H 	H 	0.61630 0.56700 0.23580 0.04600
O 	O 	0.86452 0.02922 0.67668 -0.41400
O 	O 	0.89801 0.02935 0.64294 -0.40900
C 	C 	0.88702 0.03836 0.66564 0.36900
C 	C 	0.90196 0.06189 0.68039 -0.10300
C 	C 	0.89265 0.07141 0.70653 0.00900
H 	H 	0.87700 0.06220 0.71550 0.03800
C 	C 	0.89770 0.13240 0.75450 -0.04700
H 	H 	0.90730 0.14470 0.74170 0.04400
C 	C 	0.88550 0.14430 0.78030 -0.03800
H 	H 	0.88490 0.16430 0.78360 0.03900
C 	C 	0.87440 0.09680 0.79420 -0.02800
C 	C 	0.88470 0.08680 0.76800 -0.05200
H 	H 	0.86730 0.08370 0.80800 0.03500
H 	H 	0.88370 0.06700 0.76420 0.04500
O 	O 	0.86452 0.52922 0.17668 -0.41400
O 	O 	0.89801 0.52935 0.14294 -0.40800
C 	C 	0.88702 0.53836 0.16564 0.36900
C 	C 	0.90196 0.56189 0.18039 -0.10300
C 	C 	0.89265 0.57141 0.20653 0.00900
H 	H 	0.87700 0.56220 0.21550 0.03800
C 	C 	0.89770 0.63240 0.25450 -0.04700
H 	H 	0.90730 0.64470 0.24170 0.04400
C 	C 	0.88550 0.64430 0.28030 -0.03800
H 	H 	0.88490 0.66430 0.28360 0.03900
C 	C 	0.87440 0.59680 0.29420 -0.02800
C 	C 	0.88470 0.58680 0.26800 -0.05200
H 	H 	0.86730 0.58370 0.30800 0.03500
H 	H 	0.88370 0.56700 0.26420 0.04600
O 	O 	0.36452 0.02922 0.17668 -0.41500
O 	O 	0.39801 0.02935 0.14294 -0.40900
C 	C 	0.38702 0.03836 0.16564 0.36900
C 	C 	0.40196 0.06189 0.18039 -0.10400
C 	C 	0.39265 0.07141 0.20653 0.00900
H 	H 	0.37700 0.06220 0.21550 0.03800
C 	C 	0.39770 0.13240 0.25450 -0.04700
H 	H 	0.40730 0.14470 0.24170 0.04400
C 	C 	0.38550 0.14430 0.28030 -0.03800
H 	H 	0.38490 0.16430 0.28360 0.03900
C 	C 	0.37440 0.09680 0.29420 -0.02800
C 	C 	0.38470 0.08680 0.26800 -0.05200
H 	H 	0.36730 0.08370 0.30800 0.03500
H 	H 	0.38370 0.06700 0.26420 0.04500
O 	O 	0.36452 0.52922 0.67668 -0.41400
O 	O 	0.39801 0.52935 0.64294 -0.40900
C 	C 	0.38702 0.53836 0.66564 0.36900
C 	C 	0.40196 0.56189 0.68039 -0.10300
C 	C 	0.39265 0.57141 0.70653 0.00900
H 	H 	0.37700 0.56220 0.71550 0.03800
C 	C 	0.39770 0.63240 0.75450 -0.04700
H 	H 	0.40730 0.64470 0.74170 0.04400
C 	C 	0.38550 0.64430 0.78030 -0.03800
H 	H 	0.38490 0.66430 0.78360 0.03900
C 	C 	0.37440 0.59680 0.79420 -0.02800
C 	C 	0.38470 0.58680 0.76800 -0.05200
H 	H 	0.36730 0.58370 0.80800 0.03500
H 	H 	0.38370 0.56700 0.76420 0.04600
O 	O 	0.13548 0.97078 0.67668 -0.41300
O 	O 	0.10199 0.97065 0.64294 -0.40800
C 	C 	0.11298 0.96164 0.66564 0.36900
C 	C 	0.09804 0.93811 0.68039 -0.10300
C 	C 	0.10735 0.92859 0.70653 0.00900
H 	H 	0.12300 0.93780 0.71550 0.03900
C 	C 	0.10230 0.86760 0.75450 -0.04700
H 	H 	0.09270 0.85530 0.74170 0.04400
C 	C 	0.11450 0.85570 0.78030 -0.03800
H 	H 	0.11510 0.83570 0.78360 0.03900
C 	C 	0.12560 0.90320 0.79420 -0.02800
C 	C 	0.11530 0.91320 0.76800 -0.05300
H 	H 	0.13270 0.91630 0.80800 0.03500
H 	H 	0.11630 0.93300 0.76420 0.04600
O 	O 	0.13548 0.47078 0.17668 -0.41400
O 	O 	0.10199 0.47065 0.14294 -0.40900
C 	C 	0.11298 0.46164 0.16564 0.36900
C 	C 	0.09804 0.43811 0.18039 -0.10300
C 	C 	0.10735 0.42859 0.20653 0.00900
H 	H 	0.12300 0.43780 0.21550 0.03800
C 	C 	0.10230 0.36760 0.25450 -0.04700
H 	H 	0.09270 0.35530 0.24170 0.04400
C 	C 	0.11450 0.35570 0.28030 -0.03800
H 	H 	0.11510 0.33570 0.28360 0.03900
C 	C 	0.12560 0.40320 0.29420 -0.02800
C 	C 	0.11530 0.41320 0.26800 -0.05300
H 	H 	0.13270 0.41630 0.30800 0.03500
H 	H 	0.11630 0.43300 0.26420 0.04600
O 	O 	0.63548 0.97078 0.17668 -0.41300
O 	O 	0.60199 0.97065 0.14294 -0.40700
C 	C 	0.61298 0.96164 0.16564 0.36900
C 	C 	0.59804 0.93811 0.18039 -0.10300
C 	C 	0.60735 0.92859 0.20653 0.00900
H 	H 	0.62300 0.93780 0.21550 0.03900
C 	C 	0.60230 0.86760 0.25450 -0.04700
H 	H 	0.59270 0.85530 0.24170 0.04400
C 	C 	0.61450 0.85570 0.28030 -0.03800
H 	H 	0.61510 0.83570 0.28360 0.03900
C 	C 	0.62560 0.90320 0.29420 -0.02800
C 	C 	0.61530 0.91320 0.26800 -0.05200
H 	H 	0.63270 0.91630 0.30800 0.03500
H 	H 	0.61630 0.93300 0.26420 0.04600
O 	O 	0.63548 0.47078 0.67668 -0.41400
O 	O 	0.60199 0.47065 0.64294 -0.40900
C 	C 	0.61298 0.46164 0.66564 0.36900
C 	C 	0.59804 0.43811 0.68039 -0.10300
C 	C 	0.60735 0.42859 0.70653 0.00900
H 	H 	0.62300 0.43780 0.71550 0.03800
C 	C 	0.60230 0.36760 0.75450 -0.04700
H 	H 	0.59270 0.35530 0.74170 0.04400
C 	C 	0.61450 0.35570 0.78030 -0.03800
H 	H 	0.61510 0.33570 0.78360 0.03900
C 	C 	0.62560 0.40320 0.79420 -0.02800
C 	C 	0.61530 0.41320 0.76800 -0.05200
H 	H 	0.63270 0.41630 0.80800 0.03500
H 	H 	0.61630 0.43300 0.76420 0.04600
O 	O 	0.86452 0.97078 0.32332 -0.41300
O 	O 	0.89801 0.97065 0.35706 -0.40700
C 	C 	0.88702 0.96164 0.33436 0.36900
C 	C 	0.90196 0.93811 0.31961 -0.10200
C 	C 	0.89265 0.92859 0.29347 0.00800
H 	H 	0.87700 0.93780 0.28450 0.03900
C 	C 	0.89770 0.86760 0.24550 -0.04700
H 	H 	0.90730 0.85530 0.25830 0.04400
C 	C 	0.88550 0.85570 0.21970 -0.03800
H 	H 	0.88490 0.83570 0.21640 0.03900
C 	C 	0.87440 0.90320 0.20580 -0.02800
C 	C 	0.88470 0.91320 0.23200 -0.05200
H 	H 	0.86730 0.91630 0.19200 0.03500
H 	H 	0.88370 0.93300 0.23580 0.04600
O 	O 	0.86452 0.47078 0.82332 -0.41400
O 	O 	0.89801 0.47065 0.85706 -0.40800
C 	C 	0.88702 0.46164 0.83436 0.36900
C 	C 	0.90196 0.43811 0.81961 -0.10300
C 	C 	0.89265 0.42859 0.79347 0.00900
H 	H 	0.87700 0.43780 0.78450 0.03800
C 	C 	0.89770 0.36760 0.74550 -0.04700
H 	H 	0.90730 0.35530 0.75830 0.04400
C 	C 	0.88550 0.35570 0.71970 -0.03800
H 	H 	0.88490 0.33570 0.71640 0.03900
C 	C 	0.87440 0.40320 0.70580 -0.02800
C 	C 	0.88470 0.41320 0.73200 -0.05200
H 	H 	0.86730 0.41630 0.69200 0.03500
H 	H 	0.88370 0.43300 0.73580 0.04600
O 	O 	0.36452 0.97078 0.82332 -0.41300
O 	O 	0.39801 0.97065 0.85706 -0.40700
C 	C 	0.38702 0.96164 0.83436 0.36900
C 	C 	0.40196 0.93811 0.81961 -0.10300
C 	C 	0.39265 0.92859 0.79347 0.00800
H 	H 	0.37700 0.93780 0.78450 0.03900
C 	C 	0.39770 0.86760 0.74550 -0.04700
H 	H 	0.40730 0.85530 0.75830 0.04400
C 	C 	0.38550 0.85570 0.71970 -0.03800
H 	H 	0.38490 0.83570 0.71640 0.03900
C 	C 	0.37440 0.90320 0.70580 -0.02800
C 	C 	0.38470 0.91320 0.73200 -0.05200
H 	H 	0.36730 0.91630 0.69200 0.03500
H 	H 	0.38370 0.93300 0.73580 0.04600
O 	O 	0.36452 0.47078 0.32332 -0.41400
O 	O 	0.39801 0.47065 0.35706 -0.40900
C 	C 	0.38702 0.46164 0.33436 0.36900
C 	C 	0.40196 0.43811 0.31961 -0.10300
C 	C 	0.39265 0.42859 0.29347 0.00900
H 	H 	0.37700 0.43780 0.28450 0.03800
C 	C 	0.39770 0.36760 0.24550 -0.04700
H 	H 	0.40730 0.35530 0.25830 0.04400
C 	C 	0.38550 0.35570 0.21970 -0.03800
H 	H 	0.38490 0.33570 0.21640 0.03900
C 	C 	0.37440 0.40320 0.20580 -0.02800
C 	C 	0.38470 0.41320 0.23200 -0.05200
H 	H 	0.36730 0.41630 0.19200 0.03500
H 	H 	0.38370 0.43300 0.23580 0.04600
O 	O 	0.13548 0.32332 0.97078 -0.41300
O 	O 	0.10199 0.35706 0.97065 -0.40800
C 	C 	0.11298 0.33436 0.96164 0.36900
C 	C 	0.09804 0.31961 0.93811 -0.10300
C 	C 	0.10735 0.29347 0.92859 0.00900
H 	H 	0.12300 0.28450 0.93780 0.03900
C 	C 	0.10230 0.24550 0.86760 -0.04700
H 	H 	0.09270 0.25830 0.85530 0.04400
C 	C 	0.11450 0.21970 0.85570 -0.03800
H 	H 	0.11510 0.21640 0.83570 0.03900
C 	C 	0.12560 0.20580 0.90320 -0.02800
C 	C 	0.11530 0.23200 0.91320 -0.05300
H 	H 	0.13270 0.19200 0.91630 0.03500
H 	H 	0.11630 0.23580 0.93300 0.04600
O 	O 	0.13548 0.82332 0.47078 -0.41400
O 	O 	0.10199 0.85706 0.47065 -0.40900
C 	C 	0.11298 0.83436 0.46164 0.36900
C 	C 	0.09804 0.81961 0.43811 -0.10300
C 	C 	0.10735 0.79347 0.42859 0.00900
H 	H 	0.12300 0.78450 0.43780 0.03800
C 	C 	0.10230 0.74550 0.36760 -0.04700
H 	H 	0.09270 0.75830 0.35530 0.04400
C 	C 	0.11450 0.71970 0.35570 -0.03800
H 	H 	0.11510 0.71640 0.33570 0.03900
C 	C 	0.12560 0.70580 0.40320 -0.02800
C 	C 	0.11530 0.73200 0.41320 -0.05300
H 	H 	0.13270 0.69200 0.41630 0.03500
H 	H 	0.11630 0.73580 0.43300 0.04600
O 	O 	0.63548 0.32332 0.47078 -0.41400
O 	O 	0.60199 0.35706 0.47065 -0.40900
C 	C 	0.61298 0.33436 0.46164 0.36900
C 	C 	0.59804 0.31961 0.43811 -0.10300
C 	C 	0.60735 0.29347 0.42859 0.00900
H 	H 	0.62300 0.28450 0.43780 0.03800
C 	C 	0.60230 0.24550 0.36760 -0.04700
H 	H 	0.59270 0.25830 0.35530 0.04400
C 	C 	0.61450 0.21970 0.35570 -0.03800
H 	H 	0.61510 0.21640 0.33570 0.03900
C 	C 	0.62560 0.20580 0.40320 -0.02800
C 	C 	0.61530 0.23200 0.41320 -0.05200
H 	H 	0.63270 0.19200 0.41630 0.03500
H 	H 	0.61630 0.23580 0.43300 0.04600
O 	O 	0.63548 0.82332 0.97078 -0.41300
O 	O 	0.60199 0.85706 0.97065 -0.40700
C 	C 	0.61298 0.83436 0.96164 0.36900
C 	C 	0.59804 0.81961 0.93811 -0.10300
C 	C 	0.60735 0.79347 0.92859 0.00800
H 	H 	0.62300 0.78450 0.93780 0.03900
C 	C 	0.60230 0.74550 0.86760 -0.04700
H 	H 	0.59270 0.75830 0.85530 0.04400
C 	C 	0.61450 0.71970 0.85570 -0.03800
H 	H 	0.61510 0.71640 0.83570 0.03900
C 	C 	0.62560 0.70580 0.90320 -0.02800
C 	C 	0.61530 0.73200 0.91320 -0.05200
H 	H 	0.63270 0.69200 0.91630 0.03500
H 	H 	0.61630 0.73580 0.93300 0.04600
O 	O 	0.86452 0.67668 0.97078 -0.41300
O 	O 	0.89801 0.64294 0.97065 -0.40700
C 	C 	0.88702 0.66564 0.96164 0.36900
C 	C 	0.90196 0.68039 0.93811 -0.10200
C 	C 	0.89265 0.70653 0.92859 0.00800
H 	H 	0.87700 0.71550 0.93780 0.03900
C 	C 	0.89770 0.75450 0.86760 -0.04700
H 	H 	0.90730 0.74170 0.85530 0.04400
C 	C 	0.88550 0.78030 0.85570 -0.03800
H 	H 	0.88490 0.78360 0.83570 0.03900
C 	C 	0.87440 0.79420 0.90320 -0.02800
C 	C 	0.88470 0.76800 0.91320 -0.05200
H 	H 	0.86730 0.80800 0.91630 0.03500
H 	H 	0.88370 0.76420 0.93300 0.04600
O 	O 	0.86452 0.17668 0.47078 -0.41400
O 	O 	0.89801 0.14294 0.47065 -0.40800
C 	C 	0.88702 0.16564 0.46164 0.36900
C 	C 	0.90196 0.18039 0.43811 -0.10300
C 	C 	0.89265 0.20653 0.42859 0.00900
H 	H 	0.87700 0.21550 0.43780 0.03800
C 	C 	0.89770 0.25450 0.36760 -0.04700
H 	H 	0.90730 0.24170 0.35530 0.04400
C 	C 	0.88550 0.28030 0.35570 -0.03800
H 	H 	0.88490 0.28360 0.33570 0.03900
C 	C 	0.87440 0.29420 0.40320 -0.02800
C 	C 	0.88470 0.26800 0.41320 -0.05200
H 	H 	0.86730 0.30800 0.41630 0.03500
H 	H 	0.88370 0.26420 0.43300 0.04600
O 	O 	0.36452 0.67668 0.47078 -0.41400
O 	O 	0.39801 0.64294 0.47065 -0.40900
C 	C 	0.38702 0.66564 0.46164 0.36900
C 	C 	0.40196 0.68039 0.43811 -0.10300
C 	C 	0.39265 0.70653 0.42859 0.00900
H 	H 	0.37700 0.71550 0.43780 0.03800
C 	C 	0.39770 0.75450 0.36760 -0.04700
H 	H 	0.40730 0.74170 0.35530 0.04400
C 	C 	0.38550 0.78030 0.35570 -0.03800
H 	H 	0.38490 0.78360 0.33570 0.03900
C 	C 	0.37440 0.79420 0.40320 -0.02800
C 	C 	0.38470 0.76800 0.41320 -0.05200
H 	H 	0.36730 0.80800 0.41630 0.03500
H 	H 	0.38370 0.76420 0.43300 0.04600
O 	O 	0.36452 0.17668 0.97078 -0.41300
O 	O 	0.39801 0.14294 0.97065 -0.40700
C 	C 	0.38702 0.16564 0.96164 0.36900
C 	C 	0.40196 0.18039 0.93811 -0.10300
C 	C 	0.39265 0.20653 0.92859 0.00900
H 	H 	0.37700 0.21550 0.93780 0.03900
C 	C 	0.39770 0.25450 0.86760 -0.04700
H 	H 	0.40730 0.24170 0.85530 0.04400
C 	C 	0.38550 0.28030 0.85570 -0.03800
H 	H 	0.38490 0.28360 0.83570 0.03900
C 	C 	0.37440 0.29420 0.90320 -0.02800
C 	C 	0.38470 0.26800 0.91320 -0.05200
H 	H 	0.36730 0.30800 0.91630 0.03500
H 	H 	0.38370 0.26420 0.93300 0.04600
O 	O 	0.13548 0.67668 0.02922 -0.41500
O 	O 	0.10199 0.64294 0.02935 -0.40900
C 	C 	0.11298 0.66564 0.03836 0.36900
C 	C 	0.09804 0.68039 0.06189 -0.10400
C 	C 	0.10735 0.70653 0.07141 0.00900
H 	H 	0.12300 0.71550 0.06220 0.03800
C 	C 	0.10230 0.75450 0.13240 -0.04700
H 	H 	0.09270 0.74170 0.14470 0.04400
C 	C 	0.11450 0.78030 0.14430 -0.03800
H 	H 	0.11510 0.78360 0.16430 0.03900
C 	C 	0.12560 0.79420 0.09680 -0.02800
C 	C 	0.11530 0.76800 0.08680 -0.05300
H 	H 	0.13270 0.80800 0.08370 0.03500
H 	H 	0.11630 0.76420 0.06700 0.04500
O 	O 	0.13548 0.17668 0.52922 -0.41400
O 	O 	0.10199 0.14294 0.52935 -0.40900
C 	C 	0.11298 0.16564 0.53836 0.36900
C 	C 	0.09804 0.18039 0.56189 -0.10300
C 	C 	0.10735 0.20653 0.57141 0.00900
H 	H 	0.12300 0.21550 0.56220 0.03800
C 	C 	0.10230 0.25450 0.63240 -0.04700
H 	H 	0.09270 0.24170 0.64470 0.04400
C 	C 	0.11450 0.28030 0.64430 -0.03800
H 	H 	0.11510 0.28360 0.66430 0.03900
C 	C 	0.12560 0.29420 0.59680 -0.02800
C 	C 	0.11530 0.26800 0.58680 -0.05300
H 	H 	0.13270 0.30800 0.58370 0.03500
H 	H 	0.11630 0.26420 0.56700 0.04600
O 	O 	0.63548 0.67668 0.52922 -0.41400
O 	O 	0.60199 0.64294 0.52935 -0.40900
C 	C 	0.61298 0.66564 0.53836 0.36900
C 	C 	0.59804 0.68039 0.56189 -0.10300
C 	C 	0.60735 0.70653 0.57141 0.00900
H 	H 	0.62300 0.71550 0.56220 0.03800
C 	C 	0.60230 0.75450 0.63240 -0.04700
H 	H 	0.59270 0.74170 0.64470 0.04400
C 	C 	0.61450 0.78030 0.64430 -0.03800
H 	H 	0.61510 0.78360 0.66430 0.03900
C 	C 	0.62560 0.79420 0.59680 -0.02800
C 	C 	0.61530 0.76800 0.58680 -0.05200
H 	H 	0.63270 0.80800 0.58370 0.03500
H 	H 	0.61630 0.76420 0.56700 0.04600
O 	O 	0.63548 0.17668 0.02922 -0.41500
O 	O 	0.60199 0.14294 0.02935 -0.40900
C 	C 	0.61298 0.16564 0.03836 0.36900
C 	C 	0.59804 0.18039 0.06189 -0.10400
C 	C 	0.60735 0.20653 0.07141 0.00900
H 	H 	0.62300 0.21550 0.06220 0.03800
C 	C 	0.60230 0.25450 0.13240 -0.04700
H 	H 	0.59270 0.24170 0.14470 0.04400
C 	C 	0.61450 0.28030 0.14430 -0.03800
H 	H 	0.61510 0.28360 0.16430 0.03900
C 	C 	0.62560 0.29420 0.09680 -0.02800
C 	C 	0.61530 0.26800 0.08680 -0.05200
H 	H 	0.63270 0.30800 0.08370 0.03500
H 	H 	0.61630 0.26420 0.06700 0.04500
O 	O 	0.86452 0.32332 0.02922 -0.41400
O 	O 	0.89801 0.35706 0.02935 -0.40900
C 	C 	0.88702 0.33436 0.03836 0.36900
C 	C 	0.90196 0.31961 0.06189 -0.10300
C 	C 	0.89265 0.29347 0.07141 0.00900
H 	H 	0.87700 0.28450 0.06220 0.03800
C 	C 	0.89770 0.24550 0.13240 -0.04700
H 	H 	0.90730 0.25830 0.14470 0.04400
C 	C 	0.88550 0.21970 0.14430 -0.03800
H 	H 	0.88490 0.21640 0.16430 0.03900
C 	C 	0.87440 0.20580 0.09680 -0.02800
C 	C 	0.88470 0.23200 0.08680 -0.05200
H 	H 	0.86730 0.19200 0.08370 0.03500
H 	H 	0.88370 0.23580 0.06700 0.04500
O 	O 	0.86452 0.82332 0.52922 -0.41400
O 	O 	0.89801 0.85706 0.52935 -0.40800
C 	C 	0.88702 0.83436 0.53836 0.36900
C 	C 	0.90196 0.81961 0.56189 -0.10300
C 	C 	0.89265 0.79347 0.57141 0.00900
H 	H 	0.87700 0.78450 0.56220 0.03800
C 	C 	0.89770 0.74550 0.63240 -0.04700
H 	H 	0.90730 0.75830 0.64470 0.04400
C 	C 	0.88550 0.71970 0.64430 -0.03800
H 	H 	0.88490 0.71640 0.66430 0.03900
C 	C 	0.87440 0.70580 0.59680 -0.02800
C 	C 	0.88470 0.73200 0.58680 -0.05200
H 	H 	0.86730 0.69200 0.58370 0.03500
H 	H 	0.88370 0.73580 0.56700 0.04600
O 	O 	0.36452 0.32332 0.52922 -0.41400
O 	O 	0.39801 0.35706 0.52935 -0.40900
C 	C 	0.38702 0.33436 0.53836 0.36900
C 	C 	0.40196 0.31961 0.56189 -0.10300
C 	C 	0.39265 0.29347 0.57141 0.00900
H 	H 	0.37700 0.28450 0.56220 0.03800
C 	C 	0.39770 0.24550 0.63240 -0.04700
H 	H 	0.40730 0.25830 0.64470 0.04400
C 	C 	0.38550 0.21970 0.64430 -0.03800
H 	H 	0.38490 0.21640 0.66430 0.03900
C 	C 	0.37440 0.20580 0.59680 -0.02800
C 	C 	0.38470 0.23200 0.58680 -0.05200
H 	H 	0.36730 0.19200 0.58370 0.03500
H 	H 	0.38370 0.23580 0.56700 0.04600
O 	O 	0.36452 0.82332 0.02922 -0.41500
O 	O 	0.39801 0.85706 0.02935 -0.40900
C 	C 	0.38702 0.83436 0.03836 0.36900
C 	C 	0.40196 0.81961 0.06189 -0.10400
C 	C 	0.39265 0.79347 0.07141 0.00900
H 	H 	0.37700 0.78450 0.06220 0.03800
C 	C 	0.39770 0.74550 0.13240 -0.04700
H 	H 	0.40730 0.75830 0.14470 0.04400
C 	C 	0.38550 0.71970 0.14430 -0.03800
H 	H 	0.38490 0.71640 0.16430 0.03900
C 	C 	0.37440 0.70580 0.09680 -0.02800
C 	C 	0.38470 0.73200 0.08680 -0.05200
H 	H 	0.36730 0.69200 0.08370 0.03500
H 	H 	0.38370 0.73580 0.06700 0.04500
O 	O 	0.32332 0.02922 0.86452 -0.41400
O 	O 	0.35706 0.02935 0.89801 -0.40900
C 	C 	0.33436 0.03836 0.88702 0.36900
C 	C 	0.31961 0.06189 0.90196 -0.10300
C 	C 	0.29347 0.07141 0.89265 0.00900
H 	H 	0.28450 0.06220 0.87700 0.03800
C 	C 	0.24550 0.13240 0.89770 -0.04700
H 	H 	0.25830 0.14470 0.90730 0.04400
C 	C 	0.21970 0.14430 0.88550 -0.03800
H 	H 	0.21640 0.16430 0.88490 0.03900
C 	C 	0.20580 0.09680 0.87440 -0.02800
C 	C 	0.23200 0.08680 0.88470 -0.05200
H 	H 	0.19200 0.08370 0.86730 0.03500
H 	H 	0.23580 0.06700 0.88370 0.04500
O 	O 	0.32332 0.52922 0.36452 -0.41400
O 	O 	0.35706 0.52935 0.39801 -0.40900
C 	C 	0.33436 0.53836 0.38702 0.36900
C 	C 	0.31961 0.56189 0.40196 -0.10300
C 	C 	0.29347 0.57141 0.39265 0.00900
H 	H 	0.28450 0.56220 0.37700 0.03800
C 	C 	0.24550 0.63240 0.39770 -0.04700
H 	H 	0.25830 0.64470 0.40730 0.04400
C 	C 	0.21970 0.64430 0.38550 -0.03800
H 	H 	0.21640 0.66430 0.38490 0.03900
C 	C 	0.20580 0.59680 0.37440 -0.02800
C 	C 	0.23200 0.58680 0.38470 -0.05200
H 	H 	0.19200 0.58370 0.36730 0.03500
H 	H 	0.23580 0.56700 0.38370 0.04600
O 	O 	0.82332 0.02922 0.36452 -0.41500
O 	O 	0.85706 0.02935 0.39801 -0.40900
C 	C 	0.83436 0.03836 0.38702 0.36900
C 	C 	0.81961 0.06189 0.40196 -0.10400
C 	C 	0.79347 0.07141 0.39265 0.00900
H 	H 	0.78450 0.06220 0.37700 0.03800
C 	C 	0.74550 0.13240 0.39770 -0.04700
H 	H 	0.75830 0.14470 0.40730 0.04400
C 	C 	0.71970 0.14430 0.38550 -0.03800
H 	H 	0.71640 0.16430 0.38490 0.03900
C 	C 	0.70580 0.09680 0.37440 -0.02800
C 	C 	0.73200 0.08680 0.38470 -0.05200
H 	H 	0.69200 0.08370 0.36730 0.03500
H 	H 	0.73580 0.06700 0.38370 0.04500
O 	O 	0.82332 0.52922 0.86452 -0.41400
O 	O 	0.85706 0.52935 0.89801 -0.40800
C 	C 	0.83436 0.53836 0.88702 0.36900
C 	C 	0.81961 0.56189 0.90196 -0.10300
C 	C 	0.79347 0.57141 0.89265 0.00900
H 	H 	0.78450 0.56220 0.87700 0.03800
C 	C 	0.74550 0.63240 0.89770 -0.04700
H 	H 	0.75830 0.64470 0.90730 0.04400
C 	C 	0.71970 0.64430 0.88550 -0.03800
H 	H 	0.71640 0.66430 0.88490 0.03900
C 	C 	0.70580 0.59680 0.87440 -0.02800
C 	C 	0.73200 0.58680 0.88470 -0.05200
H 	H 	0.69200 0.58370 0.86730 0.03500
H 	H 	0.73580 0.56700 0.88370 0.04600
O 	O 	0.67668 0.02922 0.13548 -0.41500
O 	O 	0.64294 0.02935 0.10199 -0.40900
C 	C 	0.66564 0.03836 0.11298 0.36900
C 	C 	0.68039 0.06189 0.09804 -0.10400
C 	C 	0.70653 0.07141 0.10735 0.00900
H 	H 	0.71550 0.06220 0.12300 0.03800
C 	C 	0.75450 0.13240 0.10230 -0.04700
H 	H 	0.74170 0.14470 0.09270 0.04400
C 	C 	0.78030 0.14430 0.11450 -0.03800
H 	H 	0.78360 0.16430 0.11510 0.03900
C 	C 	0.79420 0.09680 0.12560 -0.02800
C 	C 	0.76800 0.08680 0.11530 -0.05300
H 	H 	0.80800 0.08370 0.13270 0.03500
H 	H 	0.76420 0.06700 0.11630 0.04500
O 	O 	0.67668 0.52922 0.63548 -0.41400
O 	O 	0.64294 0.52935 0.60199 -0.40900
C 	C 	0.66564 0.53836 0.61298 0.36900
C 	C 	0.68039 0.56189 0.59804 -0.10300
C 	C 	0.70653 0.57141 0.60735 0.00900
H 	H 	0.71550 0.56220 0.62300 0.03800
C 	C 	0.75450 0.63240 0.60230 -0.04700
H 	H 	0.74170 0.64470 0.59270 0.04400
C 	C 	0.78030 0.64430 0.61450 -0.03800
H 	H 	0.78360 0.66430 0.61510 0.03900
C 	C 	0.79420 0.59680 0.62560 -0.02800
C 	C 	0.76800 0.58680 0.61530 -0.05200
H 	H 	0.80800 0.58370 0.63270 0.03500
H 	H 	0.76420 0.56700 0.61630 0.04600
O 	O 	0.17668 0.02922 0.63548 -0.41500
O 	O 	0.14294 0.02935 0.60199 -0.40900
C 	C 	0.16564 0.03836 0.61298 0.36900
C 	C 	0.18039 0.06189 0.59804 -0.10400
C 	C 	0.20653 0.07141 0.60735 0.00900
H 	H 	0.21550 0.06220 0.62300 0.03800
C 	C 	0.25450 0.13240 0.60230 -0.04700
H 	H 	0.24170 0.14470 0.59270 0.04400
C 	C 	0.28030 0.14430 0.61450 -0.03800
H 	H 	0.28360 0.16430 0.61510 0.03900
C 	C 	0.29420 0.09680 0.62560 -0.02800
C 	C 	0.26800 0.08680 0.61530 -0.05200
H 	H 	0.30800 0.08370 0.63270 0.03500
H 	H 	0.26420 0.06700 0.61630 0.04500
O 	O 	0.17668 0.52922 0.13548 -0.41400
O 	O 	0.14294 0.52935 0.10199 -0.40900
C 	C 	0.16564 0.53836 0.11298 0.36900
C 	C 	0.18039 0.56189 0.09804 -0.10300
C 	C 	0.20653 0.57141 0.10735 0.00900
H 	H 	0.21550 0.56220 0.12300 0.03800
C 	C 	0.25450 0.63240 0.10230 -0.04700
H 	H 	0.24170 0.64470 0.09270 0.04400
C 	C 	0.28030 0.64430 0.11450 -0.03800
H 	H 	0.28360 0.66430 0.11510 0.03900
C 	C 	0.29420 0.59680 0.12560 -0.02800
C 	C 	0.26800 0.58680 0.11530 -0.05300
H 	H 	0.30800 0.58370 0.13270 0.03500
H 	H 	0.26420 0.56700 0.11630 0.04600
O 	O 	0.67668 0.97078 0.86452 -0.41300
O 	O 	0.64294 0.97065 0.89801 -0.40700
C 	C 	0.66564 0.96164 0.88702 0.36900
C 	C 	0.68039 0.93811 0.90196 -0.10200
C 	C 	0.70653 0.92859 0.89265 0.00800
H 	H 	0.71550 0.93780 0.87700 0.03900
C 	C 	0.75450 0.86760 0.89770 -0.04700
H 	H 	0.74170 0.85530 0.90730 0.04400
C 	C 	0.78030 0.85570 0.88550 -0.03800
H 	H 	0.78360 0.83570 0.88490 0.03900
C 	C 	0.79420 0.90320 0.87440 -0.02800
C 	C 	0.76800 0.91320 0.88470 -0.05200
H 	H 	0.80800 0.91630 0.86730 0.03500
H 	H 	0.76420 0.93300 0.88370 0.04600
O 	O 	0.67668 0.47078 0.36452 -0.41400
O 	O 	0.64294 0.47065 0.39801 -0.40900
C 	C 	0.66564 0.46164 0.38702 0.36900
C 	C 	0.68039 0.43811 0.40196 -0.10300
C 	C 	0.70653 0.42859 0.39265 0.00900
H 	H 	0.71550 0.43780 0.37700 0.03800
C 	C 	0.75450 0.36760 0.39770 -0.04700
H 	H 	0.74170 0.35530 0.40730 0.04400
C 	C 	0.78030 0.35570 0.38550 -0.03800
H 	H 	0.78360 0.33570 0.38490 0.03900
C 	C 	0.79420 0.40320 0.37440 -0.02800
C 	C 	0.76800 0.41320 0.38470 -0.05200
H 	H 	0.80800 0.41630 0.36730 0.03500
H 	H 	0.76420 0.43300 0.38370 0.04600
O 	O 	0.17668 0.97078 0.36452 -0.41300
O 	O 	0.14294 0.97065 0.39801 -0.40700
C 	C 	0.16564 0.96164 0.38702 0.36900
C 	C 	0.18039 0.93811 0.40196 -0.10300
C 	C 	0.20653 0.92859 0.39265 0.00900
H 	H 	0.21550 0.93780 0.37700 0.03900
C 	C 	0.25450 0.86760 0.39770 -0.04700
H 	H 	0.24170 0.85530 0.40730 0.04400
C 	C 	0.28030 0.85570 0.38550 -0.03800
H 	H 	0.28360 0.83570 0.38490 0.03900
C 	C 	0.29420 0.90320 0.37440 -0.02800
C 	C 	0.26800 0.91320 0.38470 -0.05200
H 	H 	0.30800 0.91630 0.36730 0.03500
H 	H 	0.26420 0.93300 0.38370 0.04600
O 	O 	0.17668 0.47078 0.86452 -0.41400
O 	O 	0.14294 0.47065 0.89801 -0.40800
C 	C 	0.16564 0.46164 0.88702 0.36900
C 	C 	0.18039 0.43811 0.90196 -0.10300
C 	C 	0.20653 0.42859 0.89265 0.00900
H 	H 	0.21550 0.43780 0.87700 0.03800
C 	C 	0.25450 0.36760 0.89770 -0.04700
H 	H 	0.24170 0.35530 0.90730 0.04400
C 	C 	0.28030 0.35570 0.88550 -0.03800
H 	H 	0.28360 0.33570 0.88490 0.03900
C 	C 	0.29420 0.40320 0.87440 -0.02800
C 	C 	0.26800 0.41320 0.88470 -0.05200
H 	H 	0.30800 0.41630 0.86730 0.03500
H 	H 	0.26420 0.43300 0.88370 0.04600
O 	O 	0.32332 0.97078 0.13548 -0.41300
O 	O 	0.35706 0.97065 0.10199 -0.40800
C 	C 	0.33436 0.96164 0.11298 0.36900
C 	C 	0.31961 0.93811 0.09804 -0.10300
C 	C 	0.29347 0.92859 0.10735 0.00900
H 	H 	0.28450 0.93780 0.12300 0.03900
C 	C 	0.24550 0.86760 0.10230 -0.04700
H 	H 	0.25830 0.85530 0.09270 0.04400
C 	C 	0.21970 0.85570 0.11450 -0.03800
H 	H 	0.21640 0.83570 0.11510 0.03900
C 	C 	0.20580 0.90320 0.12560 -0.02800
C 	C 	0.23200 0.91320 0.11530 -0.05300
H 	H 	0.19200 0.91630 0.13270 0.03500
H 	H 	0.23580 0.93300 0.11630 0.04600
O 	O 	0.32332 0.47078 0.63548 -0.41400
O 	O 	0.35706 0.47065 0.60199 -0.40900
C 	C 	0.33436 0.46164 0.61298 0.36900
C 	C 	0.31961 0.43811 0.59804 -0.10300
C 	C 	0.29347 0.42859 0.60735 0.00900
H 	H 	0.28450 0.43780 0.62300 0.03800
C 	C 	0.24550 0.36760 0.60230 -0.04700
H 	H 	0.25830 0.35530 0.59270 0.04400
C 	C 	0.21970 0.35570 0.61450 -0.03800
H 	H 	0.21640 0.33570 0.61510 0.03900
C 	C 	0.20580 0.40320 0.62560 -0.02800
C 	C 	0.23200 0.41320 0.61530 -0.05200
H 	H 	0.19200 0.41630 0.63270 0.03500
H 	H 	0.23580 0.43300 0.61630 0.04600
O 	O 	0.82332 0.97078 0.63548 -0.41300
O 	O 	0.85706 0.97065 0.60199 -0.40700
C 	C 	0.83436 0.96164 0.61298 0.36900
C 	C 	0.81961 0.93811 0.59804 -0.10300
C 	C 	0.79347 0.92859 0.60735 0.00800
H 	H 	0.78450 0.93780 0.62300 0.03900
C 	C 	0.74550 0.86760 0.60230 -0.04700
H 	H 	0.75830 0.85530 0.59270 0.04400
C 	C 	0.71970 0.85570 0.61450 -0.03800
H 	H 	0.71640 0.83570 0.61510 0.03900
C 	C 	0.70580 0.90320 0.62560 -0.02800
C 	C 	0.73200 0.91320 0.61530 -0.05200
H 	H 	0.69200 0.91630 0.63270 0.03500
H 	H 	0.73580 0.93300 0.61630 0.04600
O 	O 	0.82332 0.47078 0.13548 -0.41400
O 	O 	0.85706 0.47065 0.10199 -0.40900
C 	C 	0.83436 0.46164 0.11298 0.36900
C 	C 	0.81961 0.43811 0.09804 -0.10300
C 	C 	0.79347 0.42859 0.10735 0.00900
H 	H 	0.78450 0.43780 0.12300 0.03800
C 	C 	0.74550 0.36760 0.10230 -0.04700
H 	H 	0.75830 0.35530 0.09270 0.04400
C 	C 	0.71970 0.35570 0.11450 -0.03800
H 	H 	0.71640 0.33570 0.11510 0.03900
C 	C 	0.70580 0.40320 0.12560 -0.02800
C 	C 	0.73200 0.41320 0.11530 -0.05300
H 	H 	0.69200 0.41630 0.13270 0.03500
H 	H 	0.73580 0.43300 0.11630 0.04600
O 	O 	0.02922 0.13548 0.67668 -0.41500
O 	O 	0.02935 0.10199 0.64294 -0.40900
C 	C 	0.03836 0.11298 0.66564 0.36900
C 	C 	0.06189 0.09804 0.68039 -0.10400
C 	C 	0.07141 0.10735 0.70653 0.00900
H 	H 	0.06220 0.12300 0.71550 0.03800
C 	C 	0.13240 0.10230 0.75450 -0.04700
H 	H 	0.14470 0.09270 0.74170 0.04400
C 	C 	0.14430 0.11450 0.78030 -0.03800
H 	H 	0.16430 0.11510 0.78360 0.03900
C 	C 	0.09680 0.12560 0.79420 -0.02800
C 	C 	0.08680 0.11530 0.76800 -0.05300
H 	H 	0.08370 0.13270 0.80800 0.03500
H 	H 	0.06700 0.11630 0.76420 0.04500
O 	O 	0.02922 0.63548 0.17668 -0.41500
O 	O 	0.02935 0.60199 0.14294 -0.40900
C 	C 	0.03836 0.61298 0.16564 0.36900
C 	C 	0.06189 0.59804 0.18039 -0.10400
C 	C 	0.07141 0.60735 0.20653 0.00900
H 	H 	0.06220 0.62300 0.21550 0.03800
C 	C 	0.13240 0.60230 0.25450 -0.04700
H 	H 	0.14470 0.59270 0.24170 0.04400
C 	C 	0.14430 0.61450 0.28030 -0.03800
H 	H 	0.16430 0.61510 0.28360 0.03900
C 	C 	0.09680 0.62560 0.29420 -0.02800
C 	C 	0.08680 0.61530 0.26800 -0.05200
H 	H 	0.08370 0.63270 0.30800 0.03500
H 	H 	0.06700 0.61630 0.26420 0.04500
O 	O 	0.52922 0.13548 0.17668 -0.41400
O 	O 	0.52935 0.10199 0.14294 -0.40900
C 	C 	0.53836 0.11298 0.16564 0.36900
C 	C 	0.56189 0.09804 0.18039 -0.10300
C 	C 	0.57141 0.10735 0.20653 0.00900
H 	H 	0.56220 0.12300 0.21550 0.03800
C 	C 	0.63240 0.10230 0.25450 -0.04700
H 	H 	0.64470 0.09270 0.24170 0.04400
C 	C 	0.64430 0.11450 0.28030 -0.03800
H 	H 	0.66430 0.11510 0.28360 0.03900
C 	C 	0.59680 0.12560 0.29420 -0.02800
C 	C 	0.58680 0.11530 0.26800 -0.05300
H 	H 	0.58370 0.13270 0.30800 0.03500
H 	H 	0.56700 0.11630 0.26420 0.04600
O 	O 	0.52922 0.63548 0.67668 -0.41400
O 	O 	0.52935 0.60199 0.64294 -0.40900
C 	C 	0.53836 0.61298 0.66564 0.36900
C 	C 	0.56189 0.59804 0.68039 -0.10300
C 	C 	0.57141 0.60735 0.70653 0.00900
H 	H 	0.56220 0.62300 0.71550 0.03800
C 	C 	0.63240 0.60230 0.75450 -0.04700
H 	H 	0.64470 0.59270 0.74170 0.04400
C 	C 	0.64430 0.61450 0.78030 -0.03800
H 	H 	0.66430 0.61510 0.78360 0.03900
C 	C 	0.59680 0.62560 0.79420 -0.02800
C 	C 	0.58680 0.61530 0.76800 -0.05200
H 	H 	0.58370 0.63270 0.80800 0.03500
H 	H 	0.56700 0.61630 0.76420 0.04600
O 	O 	0.02922 0.86452 0.32332 -0.41400
O 	O 	0.02935 0.89801 0.35706 -0.40900
C 	C 	0.03836 0.88702 0.33436 0.36900
C 	C 	0.06189 0.90196 0.31961 -0.10300
C 	C 	0.07141 0.89265 0.29347 0.00900
H 	H 	0.06220 0.87700 0.28450 0.03800
C 	C 	0.13240 0.89770 0.24550 -0.04700
H 	H 	0.14470 0.90730 0.25830 0.04400
C 	C 	0.14430 0.88550 0.21970 -0.03800
H 	H 	0.16430 0.88490 0.21640 0.03900
C 	C 	0.09680 0.87440 0.20580 -0.02800
C 	C 	0.08680 0.88470 0.23200 -0.05200
H 	H 	0.08370 0.86730 0.19200 0.03500
H 	H 	0.06700 0.88370 0.23580 0.04500
O 	O 	0.02922 0.36452 0.82332 -0.41500
O 	O 	0.02935 0.39801 0.85706 -0.40900
C 	C 	0.03836 0.38702 0.83436 0.36900
C 	C 	0.06189 0.40196 0.81961 -0.10400
C 	C 	0.07141 0.39265 0.79347 0.00900
H 	H 	0.06220 0.37700 0.78450 0.03800
C 	C 	0.13240 0.39770 0.74550 -0.04700
H 	H 	0.14470 0.40730 0.75830 0.04400
C 	C 	0.14430 0.38550 0.71970 -0.03800
H 	H 	0.16430 0.38490 0.71640 0.03900
C 	C 	0.09680 0.37440 0.70580 -0.02800
C 	C 	0.08680 0.38470 0.73200 -0.05200
H 	H 	0.08370 0.36730 0.69200 0.03500
H 	H 	0.06700 0.38370 0.73580 0.04500
O 	O 	0.52922 0.86452 0.82332 -0.41400
O 	O 	0.52935 0.89801 0.85706 -0.40800
C 	C 	0.53836 0.88702 0.83436 0.36900
C 	C 	0.56189 0.90196 0.81961 -0.10300
C 	C 	0.57141 0.89265 0.79347 0.00900
H 	H 	0.56220 0.87700 0.78450 0.03800
C 	C 	0.63240 0.89770 0.74550 -0.04700
H 	H 	0.64470 0.90730 0.75830 0.04400
C 	C 	0.64430 0.88550 0.71970 -0.03800
H 	H 	0.66430 0.88490 0.71640 0.03900
C 	C 	0.59680 0.87440 0.70580 -0.02800
C 	C 	0.58680 0.88470 0.73200 -0.05200
H 	H 	0.58370 0.86730 0.69200 0.03500
H 	H 	0.56700 0.88370 0.73580 0.04600
O 	O 	0.52922 0.36452 0.32332 -0.41400
O 	O 	0.52935 0.39801 0.35706 -0.40900
C 	C 	0.53836 0.38702 0.33436 0.36900
C 	C 	0.56189 0.40196 0.31961 -0.10300
C 	C 	0.57141 0.39265 0.29347 0.00900
H 	H 	0.56220 0.37700 0.28450 0.03800
C 	C 	0.63240 0.39770 0.24550 -0.04700
H 	H 	0.64470 0.40730 0.25830 0.04400
C 	C 	0.64430 0.38550 0.21970 -0.03800
H 	H 	0.66430 0.38490 0.21640 0.03900
C 	C 	0.59680 0.37440 0.20580 -0.02800
C 	C 	0.58680 0.38470 0.23200 -0.05200
H 	H 	0.58370 0.36730 0.19200 0.03500
H 	H 	0.56700 0.38370 0.23580 0.04600
O 	O 	0.97078 0.13548 0.32332 -0.41300
O 	O 	0.97065 0.10199 0.35706 -0.40800
C 	C 	0.96164 0.11298 0.33436 0.36900
C 	C 	0.93811 0.09804 0.31961 -0.10300
C 	C 	0.92859 0.10735 0.29347 0.00900
H 	H 	0.93780 0.12300 0.28450 0.03900
C 	C 	0.86760 0.10230 0.24550 -0.04700
H 	H 	0.85530 0.09270 0.25830 0.04400
C 	C 	0.85570 0.11450 0.21970 -0.03800
H 	H 	0.83570 0.11510 0.21640 0.03900
C 	C 	0.90320 0.12560 0.20580 -0.02800
C 	C 	0.91320 0.11530 0.23200 -0.05300
H 	H 	0.91630 0.13270 0.19200 0.03500
H 	H 	0.93300 0.11630 0.23580 0.04600
O 	O 	0.97078 0.63548 0.82332 -0.41300
O 	O 	0.97065 0.60199 0.85706 -0.40700
C 	C 	0.96164 0.61298 0.83436 0.36900
C 	C 	0.93811 0.59804 0.81961 -0.10300
C 	C 	0.92859 0.60735 0.79347 0.00800
H 	H 	0.93780 0.62300 0.78450 0.03900
C 	C 	0.86760 0.60230 0.74550 -0.04700
H 	H 	0.85530 0.59270 0.75830 0.04400
C 	C 	0.85570 0.61450 0.71970 -0.03800
H 	H 	0.83570 0.61510 0.71640 0.03900
C 	C 	0.90320 0.62560 0.70580 -0.02800
C 	C 	0.91320 0.61530 0.73200 -0.05200
H 	H 	0.91630 0.63270 0.69200 0.03500
H 	H 	0.93300 0.61630 0.73580 0.04600
O 	O 	0.47078 0.13548 0.82332 -0.41400
O 	O 	0.47065 0.10199 0.85706 -0.40900
C 	C 	0.46164 0.11298 0.83436 0.36900
C 	C 	0.43811 0.09804 0.81961 -0.10300
C 	C 	0.42859 0.10735 0.79347 0.00900
H 	H 	0.43780 0.12300 0.78450 0.03800
C 	C 	0.36760 0.10230 0.74550 -0.04700
H 	H 	0.35530 0.09270 0.75830 0.04400
C 	C 	0.35570 0.11450 0.71970 -0.03800
H 	H 	0.33570 0.11510 0.71640 0.03900
C 	C 	0.40320 0.12560 0.70580 -0.02800
C 	C 	0.41320 0.11530 0.73200 -0.05300
H 	H 	0.41630 0.13270 0.69200 0.03500
H 	H 	0.43300 0.11630 0.73580 0.04600
O 	O 	0.47078 0.63548 0.32332 -0.41400
O 	O 	0.47065 0.60199 0.35706 -0.40900
C 	C 	0.46164 0.61298 0.33436 0.36900
C 	C 	0.43811 0.59804 0.31961 -0.10300
C 	C 	0.42859 0.60735 0.29347 0.00900
H 	H 	0.43780 0.62300 0.28450 0.03800
C 	C 	0.36760 0.60230 0.24550 -0.04700
H 	H 	0.35530 0.59270 0.25830 0.04400
C 	C 	0.35570 0.61450 0.21970 -0.03800
H 	H 	0.33570 0.61510 0.21640 0.03900
C 	C 	0.40320 0.62560 0.20580 -0.02800
C 	C 	0.41320 0.61530 0.23200 -0.05200
H 	H 	0.41630 0.63270 0.19200 0.03500
H 	H 	0.43300 0.61630 0.23580 0.04600
O 	O 	0.97078 0.86452 0.67668 -0.41300
O 	O 	0.97065 0.89801 0.64294 -0.40700
C 	C 	0.96164 0.88702 0.66564 0.36900
C 	C 	0.93811 0.90196 0.68039 -0.10200
C 	C 	0.92859 0.89265 0.70653 0.00800
H 	H 	0.93780 0.87700 0.71550 0.03900
C 	C 	0.86760 0.89770 0.75450 -0.04700
H 	H 	0.85530 0.90730 0.74170 0.04400
C 	C 	0.85570 0.88550 0.78030 -0.03800
H 	H 	0.83570 0.88490 0.78360 0.03900
C 	C 	0.90320 0.87440 0.79420 -0.02800
C 	C 	0.91320 0.88470 0.76800 -0.05200
H 	H 	0.91630 0.86730 0.80800 0.03500
H 	H 	0.93300 0.88370 0.76420 0.04600
O 	O 	0.97078 0.36452 0.17668 -0.41300
O 	O 	0.97065 0.39801 0.14294 -0.40700
C 	C 	0.96164 0.38702 0.16564 0.36900
C 	C 	0.93811 0.40196 0.18039 -0.10300
C 	C 	0.92859 0.39265 0.20653 0.00900
H 	H 	0.93780 0.37700 0.21550 0.03900
C 	C 	0.86760 0.39770 0.25450 -0.04700
H 	H 	0.85530 0.40730 0.24170 0.04400
C 	C 	0.85570 0.38550 0.28030 -0.03800
H 	H 	0.83570 0.38490 0.28360 0.03900
C 	C 	0.90320 0.37440 0.29420 -0.02800
C 	C 	0.91320 0.38470 0.26800 -0.05200
H 	H 	0.91630 0.36730 0.30800 0.03500
H 	H 	0.93300 0.38370 0.26420 0.04600
O 	O 	0.47078 0.86452 0.17668 -0.41400
O 	O 	0.47065 0.89801 0.14294 -0.40800
C 	C 	0.46164 0.88702 0.16564 0.36900
C 	C 	0.43811 0.90196 0.18039 -0.10300
C 	C 	0.42859 0.89265 0.20653 0.00900
H 	H 	0.43780 0.87700 0.21550 0.03800
C 	C 	0.36760 0.89770 0.25450 -0.04700
H 	H 	0.35530 0.90730 0.24170 0.04400
C 	C 	0.35570 0.88550 0.28030 -0.03800
H 	H 	0.33570 0.88490 0.28360 0.03900
C 	C 	0.40320 0.87440 0.29420 -0.02800
C 	C 	0.41320 0.88470 0.26800 -0.05200
H 	H 	0.41630 0.86730 0.30800 0.03500
H 	H 	0.43300 0.88370 0.26420 0.04600
O 	O 	0.47078 0.36452 0.67668 -0.41400
O 	O 	0.47065 0.39801 0.64294 -0.40900
C 	C 	0.46164 0.38702 0.66564 0.36900
C 	C 	0.43811 0.40196 0.68039 -0.10300
C 	C 	0.42859 0.39265 0.70653 0.00900
H 	H 	0.43780 0.37700 0.71550 0.03800
C 	C 	0.36760 0.39770 0.75450 -0.04700
H 	H 	0.35530 0.40730 0.74170 0.04400
C 	C 	0.35570 0.38550 0.78030 -0.03800
H 	H 	0.33570 0.38490 0.78360 0.03900
C 	C 	0.40320 0.37440 0.79420 -0.02800
C 	C 	0.41320 0.38470 0.76800 -0.05200
H 	H 	0.41630 0.36730 0.80800 0.03500
H 	H 	0.43300 0.38370 0.76420 0.04600
O 	O 	0.67668 0.86452 0.97078 -0.41300
O 	O 	0.64294 0.89801 0.97065 -0.40700
C 	C 	0.66564 0.88702 0.96164 0.36900
C 	C 	0.68039 0.90196 0.93811 -0.10200
C 	C 	0.70653 0.89265 0.92859 0.00800
H 	H 	0.71550 0.87700 0.93780 0.03900
C 	C 	0.75450 0.89770 0.86760 -0.04700
H 	H 	0.74170 0.90730 0.85530 0.04400
C 	C 	0.78030 0.88550 0.85570 -0.03800
H 	H 	0.78360 0.88490 0.83570 0.03900
C 	C 	0.79420 0.87440 0.90320 -0.02800
C 	C 	0.76800 0.88470 0.91320 -0.05200
H 	H 	0.80800 0.86730 0.91630 0.03500
H 	H 	0.76420 0.88370 0.93300 0.04600
O 	O 	0.67668 0.36452 0.47078 -0.41400
O 	O 	0.64294 0.39801 0.47065 -0.40900
C 	C 	0.66564 0.38702 0.46164 0.36900
C 	C 	0.68039 0.40196 0.43811 -0.10300
C 	C 	0.70653 0.39265 0.42859 0.00900
H 	H 	0.71550 0.37700 0.43780 0.03800
C 	C 	0.75450 0.39770 0.36760 -0.04700
H 	H 	0.74170 0.40730 0.35530 0.04400
C 	C 	0.78030 0.38550 0.35570 -0.03800
H 	H 	0.78360 0.38490 0.33570 0.03900
C 	C 	0.79420 0.37440 0.40320 -0.02800
C 	C 	0.76800 0.38470 0.41320 -0.05200
H 	H 	0.80800 0.36730 0.41630 0.03500
H 	H 	0.76420 0.38370 0.43300 0.04600
O 	O 	0.17668 0.86452 0.47078 -0.41400
O 	O 	0.14294 0.89801 0.47065 -0.40800
C 	C 	0.16564 0.88702 0.46164 0.36900
C 	C 	0.18039 0.90196 0.43811 -0.10300
C 	C 	0.20653 0.89265 0.42859 0.00900
H 	H 	0.21550 0.87700 0.43780 0.03800
C 	C 	0.25450 0.89770 0.36760 -0.04700
H 	H 	0.24170 0.90730 0.35530 0.04400
C 	C 	0.28030 0.88550 0.35570 -0.03800
H 	H 	0.28360 0.88490 0.33570 0.03900
C 	C 	0.29420 0.87440 0.40320 -0.02800
C 	C 	0.26800 0.88470 0.41320 -0.05200
H 	H 	0.30800 0.86730 0.41630 0.03500
H 	H 	0.26420 0.88370 0.43300 0.04600
O 	O 	0.17668 0.36452 0.97078 -0.41300
O 	O 	0.14294 0.39801 0.97065 -0.40700
C 	C 	0.16564 0.38702 0.96164 0.36900
C 	C 	0.18039 0.40196 0.93811 -0.10300
C 	C 	0.20653 0.39265 0.92859 0.00900
H 	H 	0.21550 0.37700 0.93780 0.03900
C 	C 	0.25450 0.39770 0.86760 -0.04700
H 	H 	0.24170 0.40730 0.85530 0.04400
C 	C 	0.28030 0.38550 0.85570 -0.03800
H 	H 	0.28360 0.38490 0.83570 0.03900
C 	C 	0.29420 0.37440 0.90320 -0.02800
C 	C 	0.26800 0.38470 0.91320 -0.05200
H 	H 	0.30800 0.36730 0.91630 0.03500
H 	H 	0.26420 0.38370 0.93300 0.04600
O 	O 	0.32332 0.13548 0.97078 -0.41300
O 	O 	0.35706 0.10199 0.97065 -0.40800
C 	C 	0.33436 0.11298 0.96164 0.36900
C 	C 	0.31961 0.09804 0.93811 -0.10300
C 	C 	0.29347 0.10735 0.92859 0.00900
H 	H 	0.28450 0.12300 0.93780 0.03900
C 	C 	0.24550 0.10230 0.86760 -0.04700
H 	H 	0.25830 0.09270 0.85530 0.04400
C 	C 	0.21970 0.11450 0.85570 -0.03800
H 	H 	0.21640 0.11510 0.83570 0.03900
C 	C 	0.20580 0.12560 0.90320 -0.02800
C 	C 	0.23200 0.11530 0.91320 -0.05300
H 	H 	0.19200 0.13270 0.91630 0.03500
H 	H 	0.23580 0.11630 0.93300 0.04600
O 	O 	0.32332 0.63548 0.47078 -0.41400
O 	O 	0.35706 0.60199 0.47065 -0.40900
C 	C 	0.33436 0.61298 0.46164 0.36900
C 	C 	0.31961 0.59804 0.43811 -0.10300
C 	C 	0.29347 0.60735 0.42859 0.00900
H 	H 	0.28450 0.62300 0.43780 0.03800
C 	C 	0.24550 0.60230 0.36760 -0.04700
H 	H 	0.25830 0.59270 0.35530 0.04400
C 	C 	0.21970 0.61450 0.35570 -0.03800
H 	H 	0.21640 0.61510 0.33570 0.03900
C 	C 	0.20580 0.62560 0.40320 -0.02800
C 	C 	0.23200 0.61530 0.41320 -0.05200
H 	H 	0.19200 0.63270 0.41630 0.03500
H 	H 	0.23580 0.61630 0.43300 0.04600
O 	O 	0.82332 0.13548 0.47078 -0.41400
O 	O 	0.85706 0.10199 0.47065 -0.40900
C 	C 	0.83436 0.11298 0.46164 0.36900
C 	C 	0.81961 0.09804 0.43811 -0.10300
C 	C 	0.79347 0.10735 0.42859 0.00900
H 	H 	0.78450 0.12300 0.43780 0.03800
C 	C 	0.74550 0.10230 0.36760 -0.04700
H 	H 	0.75830 0.09270 0.35530 0.04400
C 	C 	0.71970 0.11450 0.35570 -0.03800
H 	H 	0.71640 0.11510 0.33570 0.03900
C 	C 	0.70580 0.12560 0.40320 -0.02800
C 	C 	0.73200 0.11530 0.41320 -0.05300
H 	H 	0.69200 0.13270 0.41630 0.03500
H 	H 	0.73580 0.11630 0.43300 0.04600
O 	O 	0.82332 0.63548 0.97078 -0.41300
O 	O 	0.85706 0.60199 0.97065 -0.40700
C 	C 	0.83436 0.61298 0.96164 0.36900
C 	C 	0.81961 0.59804 0.93811 -0.10300
C 	C 	0.79347 0.60735 0.92859 0.00800
H 	H 	0.78450 0.62300 0.93780 0.03900
C 	C 	0.74550 0.60230 0.86760 -0.04700
H 	H 	0.75830 0.59270 0.85530 0.04400
C 	C 	0.71970 0.61450 0.85570 -0.03800
H 	H 	0.71640 0.61510 0.83570 0.03900
C 	C 	0.70580 0.62560 0.90320 -0.02800
C 	C 	0.73200 0.61530 0.91320 -0.05200
H 	H 	0.69200 0.63270 0.91630 0.03500
H 	H 	0.73580 0.61630 0.93300 0.04600
O 	O 	0.32332 0.86452 0.02922 -0.41400
O 	O 	0.35706 0.89801 0.02935 -0.40900
C 	C 	0.33436 0.88702 0.03836 0.36900
C 	C 	0.31961 0.90196 0.06189 -0.10300
C 	C 	0.29347 0.89265 0.07141 0.00900
H 	H 	0.28450 0.87700 0.06220 0.03800
C 	C 	0.24550 0.89770 0.13240 -0.04700
H 	H 	0.25830 0.90730 0.14470 0.04400
C 	C 	0.21970 0.88550 0.14430 -0.03800
H 	H 	0.21640 0.88490 0.16430 0.03900
C 	C 	0.20580 0.87440 0.09680 -0.02800
C 	C 	0.23200 0.88470 0.08680 -0.05200
H 	H 	0.19200 0.86730 0.08370 0.03500
H 	H 	0.23580 0.88370 0.06700 0.04500
O 	O 	0.32332 0.36452 0.52922 -0.41400
O 	O 	0.35706 0.39801 0.52935 -0.40900
C 	C 	0.33436 0.38702 0.53836 0.36900
C 	C 	0.31961 0.40196 0.56189 -0.10300
C 	C 	0.29347 0.39265 0.57141 0.00900
H 	H 	0.28450 0.37700 0.56220 0.03800
C 	C 	0.24550 0.39770 0.63240 -0.04700
H 	H 	0.25830 0.40730 0.64470 0.04400
C 	C 	0.21970 0.38550 0.64430 -0.03800
H 	H 	0.21640 0.38490 0.66430 0.03900
C 	C 	0.20580 0.37440 0.59680 -0.02800
C 	C 	0.23200 0.38470 0.58680 -0.05200
H 	H 	0.19200 0.36730 0.58370 0.03500
H 	H 	0.23580 0.38370 0.56700 0.04600
O 	O 	0.82332 0.86452 0.52922 -0.41400
O 	O 	0.85706 0.89801 0.52935 -0.40800
C 	C 	0.83436 0.88702 0.53836 0.36900
C 	C 	0.81961 0.90196 0.56189 -0.10300
C 	C 	0.79347 0.89265 0.57141 0.00900
H 	H 	0.78450 0.87700 0.56220 0.03800
C 	C 	0.74550 0.89770 0.63240 -0.04700
H 	H 	0.75830 0.90730 0.64470 0.04400
C 	C 	0.71970 0.88550 0.64430 -0.03800
H 	H 	0.71640 0.88490 0.66430 0.03900
C 	C 	0.70580 0.87440 0.59680 -0.02800
C 	C 	0.73200 0.88470 0.58680 -0.05200
H 	H 	0.69200 0.86730 0.58370 0.03500
H 	H 	0.73580 0.88370 0.56700 0.04600
O 	O 	0.82332 0.36452 0.02922 -0.41500
O 	O 	0.85706 0.39801 0.02935 -0.40900
C 	C 	0.83436 0.38702 0.03836 0.36900
C 	C 	0.81961 0.40196 0.06189 -0.10400
C 	C 	0.79347 0.39265 0.07141 0.00900
H 	H 	0.78450 0.37700 0.06220 0.03800
C 	C 	0.74550 0.39770 0.13240 -0.04700
H 	H 	0.75830 0.40730 0.14470 0.04400
C 	C 	0.71970 0.38550 0.14430 -0.03800
H 	H 	0.71640 0.38490 0.16430 0.03900
C 	C 	0.70580 0.37440 0.09680 -0.02800
C 	C 	0.73200 0.38470 0.08680 -0.05200
H 	H 	0.69200 0.36730 0.08370 0.03500
H 	H 	0.73580 0.38370 0.06700 0.04500
O 	O 	0.67668 0.13548 0.02922 -0.41500
O 	O 	0.64294 0.10199 0.02935 -0.40900
C 	C 	0.66564 0.11298 0.03836 0.36900
C 	C 	0.68039 0.09804 0.06189 -0.10400
C 	C 	0.70653 0.10735 0.07141 0.00900
H 	H 	0.71550 0.12300 0.06220 0.03800
C 	C 	0.75450 0.10230 0.13240 -0.04700
H 	H 	0.74170 0.09270 0.14470 0.04400
C 	C 	0.78030 0.11450 0.14430 -0.03800
H 	H 	0.78360 0.11510 0.16430 0.03900
C 	C 	0.79420 0.12560 0.09680 -0.02800
C 	C 	0.76800 0.11530 0.08680 -0.05300
H 	H 	0.80800 0.13270 0.08370 0.03500
H 	H 	0.76420 0.11630 0.06700 0.04500
O 	O 	0.67668 0.63548 0.52922 -0.41400
O 	O 	0.64294 0.60199 0.52935 -0.40900
C 	C 	0.66564 0.61298 0.53836 0.36900
C 	C 	0.68039 0.59804 0.56189 -0.10300
C 	C 	0.70653 0.60735 0.57141 0.00900
H 	H 	0.71550 0.62300 0.56220 0.03800
C 	C 	0.75450 0.60230 0.63240 -0.04700
H 	H 	0.74170 0.59270 0.64470 0.04400
C 	C 	0.78030 0.61450 0.64430 -0.03800
H 	H 	0.78360 0.61510 0.66430 0.03900
C 	C 	0.79420 0.62560 0.59680 -0.02800
C 	C 	0.76800 0.61530 0.58680 -0.05200
H 	H 	0.80800 0.63270 0.58370 0.03500
H 	H 	0.76420 0.61630 0.56700 0.04600
O 	O 	0.17668 0.13548 0.52922 -0.41400
O 	O 	0.14294 0.10199 0.52935 -0.40900
C 	C 	0.16564 0.11298 0.53836 0.36900
C 	C 	0.18039 0.09804 0.56189 -0.10300
C 	C 	0.20653 0.10735 0.57141 0.00900
H 	H 	0.21550 0.12300 0.56220 0.03800
C 	C 	0.25450 0.10230 0.63240 -0.04700
H 	H 	0.24170 0.09270 0.64470 0.04400
C 	C 	0.28030 0.11450 0.64430 -0.03800
H 	H 	0.28360 0.11510 0.66430 0.03900
C 	C 	0.29420 0.12560 0.59680 -0.02800
C 	C 	0.26800 0.11530 0.58680 -0.05300
H 	H 	0.30800 0.13270 0.58370 0.03500
H 	H 	0.26420 0.11630 0.56700 0.04600
O 	O 	0.17668 0.63548 0.02922 -0.41500
O 	O 	0.14294 0.60199 0.02935 -0.40900
C 	C 	0.16564 0.61298 0.03836 0.36900
C 	C 	0.18039 0.59804 0.06189 -0.10400
C 	C 	0.20653 0.60735 0.07141 0.00900
H 	H 	0.21550 0.62300 0.06220 0.03800
C 	C 	0.25450 0.60230 0.13240 -0.04700
H 	H 	0.24170 0.59270 0.14470 0.04400
C 	C 	0.28030 0.61450 0.14430 -0.03800
H 	H 	0.28360 0.61510 0.16430 0.03900
C 	C 	0.29420 0.62560 0.09680 -0.02800
C 	C 	0.26800 0.61530 0.08680 -0.05200
H 	H 	0.30800 0.63270 0.08370 0.03500
H 	H 	0.26420 0.61630 0.06700 0.04500
O 	O 	0.97078 0.67668 0.86452 -0.41300
O 	O 	0.97065 0.64294 0.89801 -0.40700
C 	C 	0.96164 0.66564 0.88702 0.36900
C 	C 	0.93811 0.68039 0.90196 -0.10200
C 	C 	0.92859 0.70653 0.89265 0.00800
H 	H 	0.93780 0.71550 0.87700 0.03900
C 	C 	0.86760 0.75450 0.89770 -0.04700
H 	H 	0.85530 0.74170 0.90730 0.04400
C 	C 	0.85570 0.78030 0.88550 -0.03800
H 	H 	0.83570 0.78360 0.88490 0.03900
C 	C 	0.90320 0.79420 0.87440 -0.02800
C 	C 	0.91320 0.76800 0.88470 -0.05200
H 	H 	0.91630 0.80800 0.86730 0.03500
H 	H 	0.93300 0.76420 0.88370 0.04600
O 	O 	0.97078 0.17668 0.36452 -0.41300
O 	O 	0.97065 0.14294 0.39801 -0.40700
C 	C 	0.96164 0.16564 0.38702 0.36900
C 	C 	0.93811 0.18039 0.40196 -0.10300
C 	C 	0.92859 0.20653 0.39265 0.00900
H 	H 	0.93780 0.21550 0.37700 0.03900
C 	C 	0.86760 0.25450 0.39770 -0.04700
H 	H 	0.85530 0.24170 0.40730 0.04400
C 	C 	0.85570 0.28030 0.38550 -0.03800
H 	H 	0.83570 0.28360 0.38490 0.03900
C 	C 	0.90320 0.29420 0.37440 -0.02800
C 	C 	0.91320 0.26800 0.38470 -0.05200
H 	H 	0.91630 0.30800 0.36730 0.03500
H 	H 	0.93300 0.26420 0.38370 0.04600
O 	O 	0.47078 0.67668 0.36452 -0.41400
O 	O 	0.47065 0.64294 0.39801 -0.40900
C 	C 	0.46164 0.66564 0.38702 0.36900
C 	C 	0.43811 0.68039 0.40196 -0.10300
C 	C 	0.42859 0.70653 0.39265 0.00900
H 	H 	0.43780 0.71550 0.37700 0.03800
C 	C 	0.36760 0.75450 0.39770 -0.04700
H 	H 	0.35530 0.74170 0.40730 0.04400
C 	C 	0.35570 0.78030 0.38550 -0.03800
H 	H 	0.33570 0.78360 0.38490 0.03900
C 	C 	0.40320 0.79420 0.37440 -0.02800
C 	C 	0.41320 0.76800 0.38470 -0.05200
H 	H 	0.41630 0.80800 0.36730 0.03500
H 	H 	0.43300 0.76420 0.38370 0.04600
O 	O 	0.47078 0.17668 0.86452 -0.41400
O 	O 	0.47065 0.14294 0.89801 -0.40800
C 	C 	0.46164 0.16564 0.88702 0.36900
C 	C 	0.43811 0.18039 0.90196 -0.10300
C 	C 	0.42859 0.20653 0.89265 0.00900
H 	H 	0.43780 0.21550 0.87700 0.03800
C 	C 	0.36760 0.25450 0.89770 -0.04700
H 	H 	0.35530 0.24170 0.90730 0.04400
C 	C 	0.35570 0.28030 0.88550 -0.03800
H 	H 	0.33570 0.28360 0.88490 0.03900
C 	C 	0.40320 0.29420 0.87440 -0.02800
C 	C 	0.41320 0.26800 0.88470 -0.05200
H 	H 	0.41630 0.30800 0.86730 0.03500
H 	H 	0.43300 0.26420 0.88370 0.04600
O 	O 	0.97078 0.32332 0.13548 -0.41300
O 	O 	0.97065 0.35706 0.10199 -0.40800
C 	C 	0.96164 0.33436 0.11298 0.36900
C 	C 	0.93811 0.31961 0.09804 -0.10300
C 	C 	0.92859 0.29347 0.10735 0.00900
H 	H 	0.93780 0.28450 0.12300 0.03900
C 	C 	0.86760 0.24550 0.10230 -0.04700
H 	H 	0.85530 0.25830 0.09270 0.04400
C 	C 	0.85570 0.21970 0.11450 -0.03800
H 	H 	0.83570 0.21640 0.11510 0.03900
C 	C 	0.90320 0.20580 0.12560 -0.02800
C 	C 	0.91320 0.23200 0.11530 -0.05300
H 	H 	0.91630 0.19200 0.13270 0.03500
H 	H 	0.93300 0.23580 0.11630 0.04600
O 	O 	0.97078 0.82332 0.63548 -0.41300
O 	O 	0.97065 0.85706 0.60199 -0.40700
C 	C 	0.96164 0.83436 0.61298 0.36900
C 	C 	0.93811 0.81961 0.59804 -0.10300
C 	C 	0.92859 0.79347 0.60735 0.00800
H 	H 	0.93780 0.78450 0.62300 0.03900
C 	C 	0.86760 0.74550 0.60230 -0.04700
H 	H 	0.85530 0.75830 0.59270 0.04400
C 	C 	0.85570 0.71970 0.61450 -0.03800
H 	H 	0.83570 0.71640 0.61510 0.03900
C 	C 	0.90320 0.70580 0.62560 -0.02800
C 	C 	0.91320 0.73200 0.61530 -0.05200
H 	H 	0.91630 0.69200 0.63270 0.03500
H 	H 	0.93300 0.73580 0.61630 0.04600
O 	O 	0.47078 0.32332 0.63548 -0.41400
O 	O 	0.47065 0.35706 0.60199 -0.40900
C 	C 	0.46164 0.33436 0.61298 0.36900
C 	C 	0.43811 0.31961 0.59804 -0.10300
C 	C 	0.42859 0.29347 0.60735 0.00900
H 	H 	0.43780 0.28450 0.62300 0.03800
C 	C 	0.36760 0.24550 0.60230 -0.04700
H 	H 	0.35530 0.25830 0.59270 0.04400
C 	C 	0.35570 0.21970 0.61450 -0.03800
H 	H 	0.33570 0.21640 0.61510 0.03900
C 	C 	0.40320 0.20580 0.62560 -0.02800
C 	C 	0.41320 0.23200 0.61530 -0.05200
H 	H 	0.41630 0.19200 0.63270 0.03500
H 	H 	0.43300 0.23580 0.61630 0.04600
O 	O 	0.47078 0.82332 0.13548 -0.41400
O 	O 	0.47065 0.85706 0.10199 -0.40900
C 	C 	0.46164 0.83436 0.11298 0.36900
C 	C 	0.43811 0.81961 0.09804 -0.10300
C 	C 	0.42859 0.79347 0.10735 0.00900
H 	H 	0.43780 0.78450 0.12300 0.03800
C 	C 	0.36760 0.74550 0.10230 -0.04700
H 	H 	0.35530 0.75830 0.09270 0.04400
C 	C 	0.35570 0.71970 0.11450 -0.03800
H 	H 	0.33570 0.71640 0.11510 0.03900
C 	C 	0.40320 0.70580 0.12560 -0.02800
C 	C 	0.41320 0.73200 0.11530 -0.05300
H 	H 	0.41630 0.69200 0.13270 0.03500
H 	H 	0.43300 0.73580 0.11630 0.04600
O 	O 	0.02922 0.32332 0.86452 -0.41400
O 	O 	0.02935 0.35706 0.89801 -0.40900
C 	C 	0.03836 0.33436 0.88702 0.36900
C 	C 	0.06189 0.31961 0.90196 -0.10300
C 	C 	0.07141 0.29347 0.89265 0.00900
H 	H 	0.06220 0.28450 0.87700 0.03800
C 	C 	0.13240 0.24550 0.89770 -0.04700
H 	H 	0.14470 0.25830 0.90730 0.04400
C 	C 	0.14430 0.21970 0.88550 -0.03800
H 	H 	0.16430 0.21640 0.88490 0.03900
C 	C 	0.09680 0.20580 0.87440 -0.02800
C 	C 	0.08680 0.23200 0.88470 -0.05200
H 	H 	0.08370 0.19200 0.86730 0.03500
H 	H 	0.06700 0.23580 0.88370 0.04500
O 	O 	0.02922 0.82332 0.36452 -0.41500
O 	O 	0.02935 0.85706 0.39801 -0.40900
C 	C 	0.03836 0.83436 0.38702 0.36900
C 	C 	0.06189 0.81961 0.40196 -0.10400
C 	C 	0.07141 0.79347 0.39265 0.00900
H 	H 	0.06220 0.78450 0.37700 0.03800
C 	C 	0.13240 0.74550 0.39770 -0.04700
H 	H 	0.14470 0.75830 0.40730 0.04400
C 	C 	0.14430 0.71970 0.38550 -0.03800
H 	H 	0.16430 0.71640 0.38490 0.03900
C 	C 	0.09680 0.70580 0.37440 -0.02800
C 	C 	0.08680 0.73200 0.38470 -0.05200
H 	H 	0.08370 0.69200 0.36730 0.03500
H 	H 	0.06700 0.73580 0.38370 0.04500
O 	O 	0.52922 0.32332 0.36452 -0.41400
O 	O 	0.52935 0.35706 0.39801 -0.40900
C 	C 	0.53836 0.33436 0.38702 0.36900
C 	C 	0.56189 0.31961 0.40196 -0.10300
C 	C 	0.57141 0.29347 0.39265 0.00900
H 	H 	0.56220 0.28450 0.37700 0.03800
C 	C 	0.63240 0.24550 0.39770 -0.04700
H 	H 	0.64470 0.25830 0.40730 0.04400
C 	C 	0.64430 0.21970 0.38550 -0.03800
H 	H 	0.66430 0.21640 0.38490 0.03900
C 	C 	0.59680 0.20580 0.37440 -0.02800
C 	C 	0.58680 0.23200 0.38470 -0.05200
H 	H 	0.58370 0.19200 0.36730 0.03500
H 	H 	0.56700 0.23580 0.38370 0.04600
O 	O 	0.52922 0.82332 0.86452 -0.41400
O 	O 	0.52935 0.85706 0.89801 -0.40800
C 	C 	0.53836 0.83436 0.88702 0.36900
C 	C 	0.56189 0.81961 0.90196 -0.10300
C 	C 	0.57141 0.79347 0.89265 0.00900
H 	H 	0.56220 0.78450 0.87700 0.03800
C 	C 	0.63240 0.74550 0.89770 -0.04700
H 	H 	0.64470 0.75830 0.90730 0.04400
C 	C 	0.64430 0.71970 0.88550 -0.03800
H 	H 	0.66430 0.71640 0.88490 0.03900
C 	C 	0.59680 0.70580 0.87440 -0.02800
C 	C 	0.58680 0.73200 0.88470 -0.05200
H 	H 	0.58370 0.69200 0.86730 0.03500
H 	H 	0.56700 0.73580 0.88370 0.04600
O 	O 	0.02922 0.67668 0.13548 -0.41500
O 	O 	0.02935 0.64294 0.10199 -0.40900
C 	C 	0.03836 0.66564 0.11298 0.36900
C 	C 	0.06189 0.68039 0.09804 -0.10400
C 	C 	0.07141 0.70653 0.10735 0.00900
H 	H 	0.06220 0.71550 0.12300 0.03800
C 	C 	0.13240 0.75450 0.10230 -0.04700
H 	H 	0.14470 0.74170 0.09270 0.04400
C 	C 	0.14430 0.78030 0.11450 -0.03800
H 	H 	0.16430 0.78360 0.11510 0.03900
C 	C 	0.09680 0.79420 0.12560 -0.02800
C 	C 	0.08680 0.76800 0.11530 -0.05300
H 	H 	0.08370 0.80800 0.13270 0.03500
H 	H 	0.06700 0.76420 0.11630 0.04500
O 	O 	0.02922 0.17668 0.63548 -0.41500
O 	O 	0.02935 0.14294 0.60199 -0.40900
C 	C 	0.03836 0.16564 0.61298 0.36900
C 	C 	0.06189 0.18039 0.59804 -0.10400
C 	C 	0.07141 0.20653 0.60735 0.00900
H 	H 	0.06220 0.21550 0.62300 0.03800
C 	C 	0.13240 0.25450 0.60230 -0.04700
H 	H 	0.14470 0.24170 0.59270 0.04400
C 	C 	0.14430 0.28030 0.61450 -0.03800
H 	H 	0.16430 0.28360 0.61510 0.03900
C 	C 	0.09680 0.29420 0.62560 -0.02800
C 	C 	0.08680 0.26800 0.61530 -0.05200
H 	H 	0.08370 0.30800 0.63270 0.03500
H 	H 	0.06700 0.26420 0.61630 0.04500
O 	O 	0.52922 0.67668 0.63548 -0.41400
O 	O 	0.52935 0.64294 0.60199 -0.40900
C 	C 	0.53836 0.66564 0.61298 0.36900
C 	C 	0.56189 0.68039 0.59804 -0.10300
C 	C 	0.57141 0.70653 0.60735 0.00900
H 	H 	0.56220 0.71550 0.62300 0.03800
C 	C 	0.63240 0.75450 0.60230 -0.04700
H 	H 	0.64470 0.74170 0.59270 0.04400
C 	C 	0.64430 0.78030 0.61450 -0.03800
H 	H 	0.66430 0.78360 0.61510 0.03900
C 	C 	0.59680 0.79420 0.62560 -0.02800
C 	C 	0.58680 0.76800 0.61530 -0.05200
H 	H 	0.58370 0.80800 0.63270 0.03500
H 	H 	0.56700 0.76420 0.61630 0.04600
O 	O 	0.52922 0.17668 0.13548 -0.41400
O 	O 	0.52935 0.14294 0.10199 -0.40900
C 	C 	0.53836 0.16564 0.11298 0.36900
C 	C 	0.56189 0.18039 0.09804 -0.10300
C 	C 	0.57141 0.20653 0.10735 0.00900
H 	H 	0.56220 0.21550 0.12300 0.03800
C 	C 	0.63240 0.25450 0.10230 -0.04700
H 	H 	0.64470 0.24170 0.09270 0.04400
C 	C 	0.64430 0.28030 0.11450 -0.03800
H 	H 	0.66430 0.28360 0.11510 0.03900
C 	C 	0.59680 0.29420 0.12560 -0.02800
C 	C 	0.58680 0.26800 0.11530 -0.05300
H 	H 	0.58370 0.30800 0.13270 0.03500
H 	H 	0.56700 0.26420 0.11630 0.04600
O 	O 	0.86452 0.97078 0.67668 -0.41300
O 	O 	0.89801 0.97065 0.64294 -0.40700
C 	C 	0.88702 0.96164 0.66564 0.36900
C 	C 	0.90196 0.93811 0.68039 -0.10200
C 	C 	0.89265 0.92859 0.70653 0.00800
H 	H 	0.87700 0.93780 0.71550 0.03900
C 	C 	0.89770 0.86760 0.75450 -0.04700
H 	H 	0.90730 0.85530 0.74170 0.04400
C 	C 	0.88550 0.85570 0.78030 -0.03800
H 	H 	0.88490 0.83570 0.78360 0.03900
C 	C 	0.87440 0.90320 0.79420 -0.02800
C 	C 	0.88470 0.91320 0.76800 -0.05200
H 	H 	0.86730 0.91630 0.80800 0.03500
H 	H 	0.88370 0.93300 0.76420 0.04600
O 	O 	0.86452 0.47078 0.17668 -0.41400
O 	O 	0.89801 0.47065 0.14294 -0.40800
C 	C 	0.88702 0.46164 0.16564 0.36900
C 	C 	0.90196 0.43811 0.18039 -0.10300
C 	C 	0.89265 0.42859 0.20653 0.00900
H 	H 	0.87700 0.43780 0.21550 0.03800
C 	C 	0.89770 0.36760 0.25450 -0.04700
H 	H 	0.90730 0.35530 0.24170 0.04400
C 	C 	0.88550 0.35570 0.28030 -0.03800
H 	H 	0.88490 0.33570 0.28360 0.03900
C 	C 	0.87440 0.40320 0.29420 -0.02800
C 	C 	0.88470 0.41320 0.26800 -0.05200
H 	H 	0.86730 0.41630 0.30800 0.03500
H 	H 	0.88370 0.43300 0.26420 0.04600
O 	O 	0.36452 0.97078 0.17668 -0.41300
O 	O 	0.39801 0.97065 0.14294 -0.40700
C 	C 	0.38702 0.96164 0.16564 0.36900
C 	C 	0.40196 0.93811 0.18039 -0.10300
C 	C 	0.39265 0.92859 0.20653 0.00900
H 	H 	0.37700 0.93780 0.21550 0.03900
C 	C 	0.39770 0.86760 0.25450 -0.04700
H 	H 	0.40730 0.85530 0.24170 0.04400
C 	C 	0.38550 0.85570 0.28030 -0.03800
H 	H 	0.38490 0.83570 0.28360 0.03900
C 	C 	0.37440 0.90320 0.29420 -0.02800
C 	C 	0.38470 0.91320 0.26800 -0.05200
H 	H 	0.36730 0.91630 0.30800 0.03500
H 	H 	0.38370 0.93300 0.26420 0.04600
O 	O 	0.36452 0.47078 0.67668 -0.41400
O 	O 	0.39801 0.47065 0.64294 -0.40900
C 	C 	0.38702 0.46164 0.66564 0.36900
C 	C 	0.40196 0.43811 0.68039 -0.10300
C 	C 	0.39265 0.42859 0.70653 0.00900
H 	H 	0.37700 0.43780 0.71550 0.03800
C 	C 	0.39770 0.36760 0.75450 -0.04700
H 	H 	0.40730 0.35530 0.74170 0.04400
C 	C 	0.38550 0.35570 0.78030 -0.03800
H 	H 	0.38490 0.33570 0.78360 0.03900
C 	C 	0.37440 0.40320 0.79420 -0.02800
C 	C 	0.38470 0.41320 0.76800 -0.05200
H 	H 	0.36730 0.41630 0.80800 0.03500
H 	H 	0.38370 0.43300 0.76420 0.04600
O 	O 	0.13548 0.97078 0.32332 -0.41300
O 	O 	0.10199 0.97065 0.35706 -0.40800
C 	C 	0.11298 0.96164 0.33436 0.36900
C 	C 	0.09804 0.93811 0.31961 -0.10300
C 	C 	0.10735 0.92859 0.29347 0.00900
H 	H 	0.12300 0.93780 0.28450 0.03900
C 	C 	0.10230 0.86760 0.24550 -0.04700
H 	H 	0.09270 0.85530 0.25830 0.04400
C 	C 	0.11450 0.85570 0.21970 -0.03800
H 	H 	0.11510 0.83570 0.21640 0.03900
C 	C 	0.12560 0.90320 0.20580 -0.02800
C 	C 	0.11530 0.91320 0.23200 -0.05300
H 	H 	0.13270 0.91630 0.19200 0.03500
H 	H 	0.11630 0.93300 0.23580 0.04600
O 	O 	0.13548 0.47078 0.82332 -0.41400
O 	O 	0.10199 0.47065 0.85706 -0.40900
C 	C 	0.11298 0.46164 0.83436 0.36900
C 	C 	0.09804 0.43811 0.81961 -0.10300
C 	C 	0.10735 0.42859 0.79347 0.00900
H 	H 	0.12300 0.43780 0.78450 0.03800
C 	C 	0.10230 0.36760 0.74550 -0.04700
H 	H 	0.09270 0.35530 0.75830 0.04400
C 	C 	0.11450 0.35570 0.71970 -0.03800
H 	H 	0.11510 0.33570 0.71640 0.03900
C 	C 	0.12560 0.40320 0.70580 -0.02800
C 	C 	0.11530 0.41320 0.73200 -0.05300
H 	H 	0.13270 0.41630 0.69200 0.03500
H 	H 	0.11630 0.43300 0.73580 0.04600
O 	O 	0.63548 0.97078 0.82332 -0.41300
O 	O 	0.60199 0.97065 0.85706 -0.40700
C 	C 	0.61298 0.96164 0.83436 0.36900
C 	C 	0.59804 0.93811 0.81961 -0.10300
C 	C 	0.60735 0.92859 0.79347 0.00800
H 	H 	0.62300 0.93780 0.78450 0.03900
C 	C 	0.60230 0.86760 0.74550 -0.04700
H 	H 	0.59270 0.85530 0.75830 0.04400
C 	C 	0.61450 0.85570 0.71970 -0.03800
H 	H 	0.61510 0.83570 0.71640 0.03900
C 	C 	0.62560 0.90320 0.70580 -0.02800
C 	C 	0.61530 0.91320 0.73200 -0.05200
H 	H 	0.63270 0.91630 0.69200 0.03500
H 	H 	0.61630 0.93300 0.73580 0.04600
O 	O 	0.63548 0.47078 0.32332 -0.41400
O 	O 	0.60199 0.47065 0.35706 -0.40900
C 	C 	0.61298 0.46164 0.33436 0.36900
C 	C 	0.59804 0.43811 0.31961 -0.10300
C 	C 	0.60735 0.42859 0.29347 0.00900
H 	H 	0.62300 0.43780 0.28450 0.03800
C 	C 	0.60230 0.36760 0.24550 -0.04700
H 	H 	0.59270 0.35530 0.25830 0.04400
C 	C 	0.61450 0.35570 0.21970 -0.03800
H 	H 	0.61510 0.33570 0.21640 0.03900
C 	C 	0.62560 0.40320 0.20580 -0.02800
C 	C 	0.61530 0.41320 0.23200 -0.05200
H 	H 	0.63270 0.41630 0.19200 0.03500
H 	H 	0.61630 0.43300 0.23580 0.04600
O 	O 	0.86452 0.02922 0.32332 -0.41400
O 	O 	0.89801 0.02935 0.35706 -0.40900
C 	C 	0.88702 0.03836 0.33436 0.36900
C 	C 	0.90196 0.06189 0.31961 -0.10300
C 	C 	0.89265 0.07141 0.29347 0.00900
H 	H 	0.87700 0.06220 0.28450 0.03800
C 	C 	0.89770 0.13240 0.24550 -0.04700
H 	H 	0.90730 0.14470 0.25830 0.04400
C 	C 	0.88550 0.14430 0.21970 -0.03800
H 	H 	0.88490 0.16430 0.21640 0.03900
C 	C 	0.87440 0.09680 0.20580 -0.02800
C 	C 	0.88470 0.08680 0.23200 -0.05200
H 	H 	0.86730 0.08370 0.19200 0.03500
H 	H 	0.88370 0.06700 0.23580 0.04500
O 	O 	0.86452 0.52922 0.82332 -0.41400
O 	O 	0.89801 0.52935 0.85706 -0.40800
C 	C 	0.88702 0.53836 0.83436 0.36900
C 	C 	0.90196 0.56189 0.81961 -0.10300
C 	C 	0.89265 0.57141 0.79347 0.00900
H 	H 	0.87700 0.56220 0.78450 0.03800
C 	C 	0.89770 0.63240 0.74550 -0.04700
H 	H 	0.90730 0.64470 0.75830 0.04400
C 	C 	0.88550 0.64430 0.71970 -0.03800
H 	H 	0.88490 0.66430 0.71640 0.03900
C 	C 	0.87440 0.59680 0.70580 -0.02800
C 	C 	0.88470 0.58680 0.73200 -0.05200
H 	H 	0.86730 0.58370 0.69200 0.03500
H 	H 	0.88370 0.56700 0.73580 0.04600
O 	O 	0.36452 0.02922 0.82332 -0.41500
O 	O 	0.39801 0.02935 0.85706 -0.40900
C 	C 	0.38702 0.03836 0.83436 0.36900
C 	C 	0.40196 0.06189 0.81961 -0.10400
C 	C 	0.39265 0.07141 0.79347 0.00900
H 	H 	0.37700 0.06220 0.78450 0.03800
C 	C 	0.39770 0.13240 0.74550 -0.04700
H 	H 	0.40730 0.14470 0.75830 0.04400
C 	C 	0.38550 0.14430 0.71970 -0.03800
H 	H 	0.38490 0.16430 0.71640 0.03900
C 	C 	0.37440 0.09680 0.70580 -0.02800
C 	C 	0.38470 0.08680 0.73200 -0.05200
H 	H 	0.36730 0.08370 0.69200 0.03500
H 	H 	0.38370 0.06700 0.73580 0.04500
O 	O 	0.36452 0.52922 0.32332 -0.41400
O 	O 	0.39801 0.52935 0.35706 -0.40900
C 	C 	0.38702 0.53836 0.33436 0.36900
C 	C 	0.40196 0.56189 0.31961 -0.10300
C 	C 	0.39265 0.57141 0.29347 0.00900
H 	H 	0.37700 0.56220 0.28450 0.03800
C 	C 	0.39770 0.63240 0.24550 -0.04700
H 	H 	0.40730 0.64470 0.25830 0.04400
C 	C 	0.38550 0.64430 0.21970 -0.03800
H 	H 	0.38490 0.66430 0.21640 0.03900
C 	C 	0.37440 0.59680 0.20580 -0.02800
C 	C 	0.38470 0.58680 0.23200 -0.05200
H 	H 	0.36730 0.58370 0.19200 0.03500
H 	H 	0.38370 0.56700 0.23580 0.04600
O 	O 	0.13548 0.02922 0.67668 -0.41500
O 	O 	0.10199 0.02935 0.64294 -0.40900
C 	C 	0.11298 0.03836 0.66564 0.36900
C 	C 	0.09804 0.06189 0.68039 -0.10400
C 	C 	0.10735 0.07141 0.70653 0.00900
H 	H 	0.12300 0.06220 0.71550 0.03800
C 	C 	0.10230 0.13240 0.75450 -0.04700
H 	H 	0.09270 0.14470 0.74170 0.04400
C 	C 	0.11450 0.14430 0.78030 -0.03800
H 	H 	0.11510 0.16430 0.78360 0.03900
C 	C 	0.12560 0.09680 0.79420 -0.02800
C 	C 	0.11530 0.08680 0.76800 -0.05300
H 	H 	0.13270 0.08370 0.80800 0.03500
H 	H 	0.11630 0.06700 0.76420 0.04500
O 	O 	0.13548 0.52922 0.17668 -0.41400
O 	O 	0.10199 0.52935 0.14294 -0.40900
C 	C 	0.11298 0.53836 0.16564 0.36900
C 	C 	0.09804 0.56189 0.18039 -0.10300
C 	C 	0.10735 0.57141 0.20653 0.00900
H 	H 	0.12300 0.56220 0.21550 0.03800
C 	C 	0.10230 0.63240 0.25450 -0.04700
H 	H 	0.09270 0.64470 0.24170 0.04400
C 	C 	0.11450 0.64430 0.28030 -0.03800
H 	H 	0.11510 0.66430 0.28360 0.03900
C 	C 	0.12560 0.59680 0.29420 -0.02800
C 	C 	0.11530 0.58680 0.26800 -0.05300
H 	H 	0.13270 0.58370 0.30800 0.03500
H 	H 	0.11630 0.56700 0.26420 0.04600
O 	O 	0.63548 0.02922 0.17668 -0.41500
O 	O 	0.60199 0.02935 0.14294 -0.40900
C 	C 	0.61298 0.03836 0.16564 0.36900
C 	C 	0.59804 0.06189 0.18039 -0.10400
C 	C 	0.60735 0.07141 0.20653 0.00900
H 	H 	0.62300 0.06220 0.21550 0.03800
C 	C 	0.60230 0.13240 0.25450 -0.04700
H 	H 	0.59270 0.14470 0.24170 0.04400
C 	C 	0.61450 0.14430 0.28030 -0.03800
H 	H 	0.61510 0.16430 0.28360 0.03900
C 	C 	0.62560 0.09680 0.29420 -0.02800
C 	C 	0.61530 0.08680 0.26800 -0.05200
H 	H 	0.63270 0.08370 0.30800 0.03500
H 	H 	0.61630 0.06700 0.26420 0.04500
O 	O 	0.63548 0.52922 0.67668 -0.41400
O 	O 	0.60199 0.52935 0.64294 -0.40900
C 	C 	0.61298 0.53836 0.66564 0.36900
C 	C 	0.59804 0.56189 0.68039 -0.10300
C 	C 	0.60735 0.57141 0.70653 0.00900
H 	H 	0.62300 0.56220 0.71550 0.03800
C 	C 	0.60230 0.63240 0.75450 -0.04700
H 	H 	0.59270 0.64470 0.74170 0.04400
C 	C 	0.61450 0.64430 0.78030 -0.03800
H 	H 	0.61510 0.66430 0.78360 0.03900
C 	C 	0.62560 0.59680 0.79420 -0.02800
C 	C 	0.61530 0.58680 0.76800 -0.05200
H 	H 	0.63270 0.58370 0.80800 0.03500
H 	H 	0.61630 0.56700 0.76420 0.04600
O 	O 	0.86452 0.67668 0.02922 -0.41400
O 	O 	0.89801 0.64294 0.02935 -0.40900
C 	C 	0.88702 0.66564 0.03836 0.36900
C 	C 	0.90196 0.68039 0.06189 -0.10300
C 	C 	0.89265 0.70653 0.07141 0.00900
H 	H 	0.87700 0.71550 0.06220 0.03800
C 	C 	0.89770 0.75450 0.13240 -0.04700
H 	H 	0.90730 0.74170 0.14470 0.04400
C 	C 	0.88550 0.78030 0.14430 -0.03800
H 	H 	0.88490 0.78360 0.16430 0.03900
C 	C 	0.87440 0.79420 0.09680 -0.02800
C 	C 	0.88470 0.76800 0.08680 -0.05200
H 	H 	0.86730 0.80800 0.08370 0.03500
H 	H 	0.88370 0.76420 0.06700 0.04500
O 	O 	0.86452 0.17668 0.52922 -0.41400
O 	O 	0.89801 0.14294 0.52935 -0.40800
C 	C 	0.88702 0.16564 0.53836 0.36900
C 	C 	0.90196 0.18039 0.56189 -0.10300
C 	C 	0.89265 0.20653 0.57141 0.00900
H 	H 	0.87700 0.21550 0.56220 0.03800
C 	C 	0.89770 0.25450 0.63240 -0.04700
H 	H 	0.90730 0.24170 0.64470 0.04400
C 	C 	0.88550 0.28030 0.64430 -0.03800
H 	H 	0.88490 0.28360 0.66430 0.03900
C 	C 	0.87440 0.29420 0.59680 -0.02800
C 	C 	0.88470 0.26800 0.58680 -0.05200
H 	H 	0.86730 0.30800 0.58370 0.03500
H 	H 	0.88370 0.26420 0.56700 0.04600
O 	O 	0.36452 0.67668 0.52922 -0.41400
O 	O 	0.39801 0.64294 0.52935 -0.40900
C 	C 	0.38702 0.66564 0.53836 0.36900
C 	C 	0.40196 0.68039 0.56189 -0.10300
C 	C 	0.39265 0.70653 0.57141 0.00900
H 	H 	0.37700 0.71550 0.56220 0.03800
C 	C 	0.39770 0.75450 0.63240 -0.04700
H 	H 	0.40730 0.74170 0.64470 0.04400
C 	C 	0.38550 0.78030 0.64430 -0.03800
H 	H 	0.38490 0.78360 0.66430 0.03900
C 	C 	0.37440 0.79420 0.59680 -0.02800
C 	C 	0.38470 0.76800 0.58680 -0.05200
H 	H 	0.36730 0.80800 0.58370 0.03500
H 	H 	0.38370 0.76420 0.56700 0.04600
O 	O 	0.36452 0.17668 0.02922 -0.41500
O 	O 	0.39801 0.14294 0.02935 -0.40900
C 	C 	0.38702 0.16564 0.03836 0.36900
C 	C 	0.40196 0.18039 0.06189 -0.10400
C 	C 	0.39265 0.20653 0.07141 0.00900
H 	H 	0.37700 0.21550 0.06220 0.03800
C 	C 	0.39770 0.25450 0.13240 -0.04700
H 	H 	0.40730 0.24170 0.14470 0.04400
C 	C 	0.38550 0.28030 0.14430 -0.03800
H 	H 	0.38490 0.28360 0.16430 0.03900
C 	C 	0.37440 0.29420 0.09680 -0.02800
C 	C 	0.38470 0.26800 0.08680 -0.05200
H 	H 	0.36730 0.30800 0.08370 0.03500
H 	H 	0.38370 0.26420 0.06700 0.04500
O 	O 	0.13548 0.32332 0.02922 -0.41500
O 	O 	0.10199 0.35706 0.02935 -0.40900
C 	C 	0.11298 0.33436 0.03836 0.36900
C 	C 	0.09804 0.31961 0.06189 -0.10400
C 	C 	0.10735 0.29347 0.07141 0.00900
H 	H 	0.12300 0.28450 0.06220 0.03800
C 	C 	0.10230 0.24550 0.13240 -0.04700
H 	H 	0.09270 0.25830 0.14470 0.04400
C 	C 	0.11450 0.21970 0.14430 -0.03800
H 	H 	0.11510 0.21640 0.16430 0.03900
C 	C 	0.12560 0.20580 0.09680 -0.02800
C 	C 	0.11530 0.23200 0.08680 -0.05300
H 	H 	0.13270 0.19200 0.08370 0.03400
H 	H 	0.11630 0.23580 0.06700 0.04500
O 	O 	0.13548 0.82332 0.52922 -0.41400
O 	O 	0.10199 0.85706 0.52935 -0.40900
C 	C 	0.11298 0.83436 0.53836 0.36900
C 	C 	0.09804 0.81961 0.56189 -0.10300
C 	C 	0.10735 0.79347 0.57141 0.00900
H 	H 	0.12300 0.78450 0.56220 0.03800
C 	C 	0.10230 0.74550 0.63240 -0.04700
H 	H 	0.09270 0.75830 0.64470 0.04400
C 	C 	0.11450 0.71970 0.64430 -0.03800
H 	H 	0.11510 0.71640 0.66430 0.03900
C 	C 	0.12560 0.70580 0.59680 -0.02800
C 	C 	0.11530 0.73200 0.58680 -0.05300
H 	H 	0.13270 0.69200 0.58370 0.03500
H 	H 	0.11630 0.73580 0.56700 0.04600
O 	O 	0.63548 0.32332 0.52922 -0.41400
O 	O 	0.60199 0.35706 0.52935 -0.40900
C 	C 	0.61298 0.33436 0.53836 0.36900
C 	C 	0.59804 0.31961 0.56189 -0.10300
C 	C 	0.60735 0.29347 0.57141 0.00900
H 	H 	0.62300 0.28450 0.56220 0.03800
C 	C 	0.60230 0.24550 0.63240 -0.04700
H 	H 	0.59270 0.25830 0.64470 0.04400
C 	C 	0.61450 0.21970 0.64430 -0.03800
H 	H 	0.61510 0.21640 0.66430 0.03900
C 	C 	0.62560 0.20580 0.59680 -0.02800
C 	C 	0.61530 0.23200 0.58680 -0.05200
H 	H 	0.63270 0.19200 0.58370 0.03500
H 	H 	0.61630 0.23580 0.56700 0.04600
O 	O 	0.63548 0.82332 0.02922 -0.41500
O 	O 	0.60199 0.85706 0.02935 -0.40900
C 	C 	0.61298 0.83436 0.03836 0.36900
C 	C 	0.59804 0.81961 0.06189 -0.10400
C 	C 	0.60735 0.79347 0.07141 0.00900
H 	H 	0.62300 0.78450 0.06220 0.03800
C 	C 	0.60230 0.74550 0.13240 -0.04700
H 	H 	0.59270 0.75830 0.14470 0.04400
C 	C 	0.61450 0.71970 0.14430 -0.03800
H 	H 	0.61510 0.71640 0.16430 0.03900
C 	C 	0.62560 0.70580 0.09680 -0.02800
C 	C 	0.61530 0.73200 0.08680 -0.05200
H 	H 	0.63270 0.69200 0.08370 0.03500
H 	H 	0.61630 0.73580 0.06700 0.04500
O 	O 	0.86452 0.32332 0.97078 -0.41300
O 	O 	0.89801 0.35706 0.97065 -0.40700
C 	C 	0.88702 0.33436 0.96164 0.36900
C 	C 	0.90196 0.31961 0.93811 -0.10200
C 	C 	0.89265 0.29347 0.92859 0.00800
H 	H 	0.87700 0.28450 0.93780 0.03900
C 	C 	0.89770 0.24550 0.86760 -0.04700
H 	H 	0.90730 0.25830 0.85530 0.04400
C 	C 	0.88550 0.21970 0.85570 -0.03800
H 	H 	0.88490 0.21640 0.83570 0.03900
C 	C 	0.87440 0.20580 0.90320 -0.02800
C 	C 	0.88470 0.23200 0.91320 -0.05200
H 	H 	0.86730 0.19200 0.91630 0.03500
H 	H 	0.88370 0.23580 0.93300 0.04600
O 	O 	0.86452 0.82332 0.47078 -0.41400
O 	O 	0.89801 0.85706 0.47065 -0.40800
C 	C 	0.88702 0.83436 0.46164 0.36900
C 	C 	0.90196 0.81961 0.43811 -0.10300
C 	C 	0.89265 0.79347 0.42859 0.00900
H 	H 	0.87700 0.78450 0.43780 0.03800
C 	C 	0.89770 0.74550 0.36760 -0.04700
H 	H 	0.90730 0.75830 0.35530 0.04400
C 	C 	0.88550 0.71970 0.35570 -0.03800
H 	H 	0.88490 0.71640 0.33570 0.03900
C 	C 	0.87440 0.70580 0.40320 -0.02800
C 	C 	0.88470 0.73200 0.41320 -0.05200
H 	H 	0.86730 0.69200 0.41630 0.03500
H 	H 	0.88370 0.73580 0.43300 0.04600
O 	O 	0.36452 0.32332 0.47078 -0.41400
O 	O 	0.39801 0.35706 0.47065 -0.40900
C 	C 	0.38702 0.33436 0.46164 0.36900
C 	C 	0.40196 0.31961 0.43811 -0.10300
C 	C 	0.39265 0.29347 0.42859 0.00900
H 	H 	0.37700 0.28450 0.43780 0.03800
C 	C 	0.39770 0.24550 0.36760 -0.04700
H 	H 	0.40730 0.25830 0.35530 0.04400
C 	C 	0.38550 0.21970 0.35570 -0.03800
H 	H 	0.38490 0.21640 0.33570 0.03900
C 	C 	0.37440 0.20580 0.40320 -0.02800
C 	C 	0.38470 0.23200 0.41320 -0.05200
H 	H 	0.36730 0.19200 0.41630 0.03500
H 	H 	0.38370 0.23580 0.43300 0.04600
O 	O 	0.36452 0.82332 0.97078 -0.41300
O 	O 	0.39801 0.85706 0.97065 -0.40700
C 	C 	0.38702 0.83436 0.96164 0.36900
C 	C 	0.40196 0.81961 0.93811 -0.10300
C 	C 	0.39265 0.79347 0.92859 0.00800
H 	H 	0.37700 0.78450 0.93780 0.03900
C 	C 	0.39770 0.74550 0.86760 -0.04700
H 	H 	0.40730 0.75830 0.85530 0.04400
C 	C 	0.38550 0.71970 0.85570 -0.03800
H 	H 	0.38490 0.71640 0.83570 0.03900
C 	C 	0.37440 0.70580 0.90320 -0.02800
C 	C 	0.38470 0.73200 0.91320 -0.05200
H 	H 	0.36730 0.69200 0.91630 0.03500
H 	H 	0.38370 0.73580 0.93300 0.04600
O 	O 	0.13548 0.67668 0.97078 -0.41300
O 	O 	0.10199 0.64294 0.97065 -0.40800
C 	C 	0.11298 0.66564 0.96164 0.36900
C 	C 	0.09804 0.68039 0.93811 -0.10300
C 	C 	0.10735 0.70653 0.92859 0.00900
H 	H 	0.12300 0.71550 0.93780 0.03900
C 	C 	0.10230 0.75450 0.86760 -0.04700
H 	H 	0.09270 0.74170 0.85530 0.04400
C 	C 	0.11450 0.78030 0.85570 -0.03800
H 	H 	0.11510 0.78360 0.83570 0.03900
C 	C 	0.12560 0.79420 0.90320 -0.02800
C 	C 	0.11530 0.76800 0.91320 -0.05300
H 	H 	0.13270 0.80800 0.91630 0.03500
H 	H 	0.11630 0.76420 0.93300 0.04600
O 	O 	0.13548 0.17668 0.47078 -0.41400
O 	O 	0.10199 0.14294 0.47065 -0.40900
C 	C 	0.11298 0.16564 0.46164 0.36900
C 	C 	0.09804 0.18039 0.43811 -0.10300
C 	C 	0.10735 0.20653 0.42859 0.00900
H 	H 	0.12300 0.21550 0.43780 0.03800
C 	C 	0.10230 0.25450 0.36760 -0.04700
H 	H 	0.09270 0.24170 0.35530 0.04400
C 	C 	0.11450 0.28030 0.35570 -0.03800
H 	H 	0.11510 0.28360 0.33570 0.03900
C 	C 	0.12560 0.29420 0.40320 -0.02800
C 	C 	0.11530 0.26800 0.41320 -0.05300
H 	H 	0.13270 0.30800 0.41630 0.03500
H 	H 	0.11630 0.26420 0.43300 0.04600
O 	O 	0.63548 0.67668 0.47078 -0.41400
O 	O 	0.60199 0.64294 0.47065 -0.40900
C 	C 	0.61298 0.66564 0.46164 0.36900
C 	C 	0.59804 0.68039 0.43811 -0.10300
C 	C 	0.60735 0.70653 0.42859 0.00900
H 	H 	0.62300 0.71550 0.43780 0.03800
C 	C 	0.60230 0.75450 0.36760 -0.04700
H 	H 	0.59270 0.74170 0.35530 0.04400
C 	C 	0.61450 0.78030 0.35570 -0.03800
H 	H 	0.61510 0.78360 0.33570 0.03900
C 	C 	0.62560 0.79420 0.40320 -0.02800
C 	C 	0.61530 0.76800 0.41320 -0.05200
H 	H 	0.63270 0.80800 0.41630 0.03500
H 	H 	0.61630 0.76420 0.43300 0.04600
O 	O 	0.63548 0.17668 0.97078 -0.41300
O 	O 	0.60199 0.14294 0.97065 -0.40700
C 	C 	0.61298 0.16564 0.96164 0.36900
C 	C 	0.59804 0.18039 0.93811 -0.10300
C 	C 	0.60735 0.20653 0.92859 0.00900
H 	H 	0.62300 0.21550 0.93780 0.03900
C 	C 	0.60230 0.25450 0.86760 -0.04700
H 	H 	0.59270 0.24170 0.85530 0.04400
C 	C 	0.61450 0.28030 0.85570 -0.03800
H 	H 	0.61510 0.28360 0.83570 0.03900
C 	C 	0.62560 0.29420 0.90320 -0.02800
C 	C 	0.61530 0.26800 0.91320 -0.05200
H 	H 	0.63270 0.30800 0.91630 0.03500
H 	H 	0.61630 0.26420 0.93300 0.04600
O 	O 	0.67668 0.97078 0.13548 -0.41300
O 	O 	0.64294 0.97065 0.10199 -0.40800
C 	C 	0.66564 0.96164 0.11298 0.36900
C 	C 	0.68039 0.93811 0.09804 -0.10300
C 	C 	0.70653 0.92859 0.10735 0.00900
H 	H 	0.71550 0.93780 0.12300 0.03900
C 	C 	0.75450 0.86760 0.10230 -0.04700
H 	H 	0.74170 0.85530 0.09270 0.04400
C 	C 	0.78030 0.85570 0.11450 -0.03800
H 	H 	0.78360 0.83570 0.11510 0.03900
C 	C 	0.79420 0.90320 0.12560 -0.02800
C 	C 	0.76800 0.91320 0.11530 -0.05300
H 	H 	0.80800 0.91630 0.13270 0.03500
H 	H 	0.76420 0.93300 0.11630 0.04600
O 	O 	0.67668 0.47078 0.63548 -0.41400
O 	O 	0.64294 0.47065 0.60199 -0.40900
C 	C 	0.66564 0.46164 0.61298 0.36900
C 	C 	0.68039 0.43811 0.59804 -0.10300
C 	C 	0.70653 0.42859 0.60735 0.00900
H 	H 	0.71550 0.43780 0.62300 0.03800
C 	C 	0.75450 0.36760 0.60230 -0.04700
H 	H 	0.74170 0.35530 0.59270 0.04400
C 	C 	0.78030 0.35570 0.61450 -0.03800
H 	H 	0.78360 0.33570 0.61510 0.03900
C 	C 	0.79420 0.40320 0.62560 -0.02800
C 	C 	0.76800 0.41320 0.61530 -0.05200
H 	H 	0.80800 0.41630 0.63270 0.03500
H 	H 	0.76420 0.43300 0.61630 0.04600
O 	O 	0.17668 0.97078 0.63548 -0.41300
O 	O 	0.14294 0.97065 0.60199 -0.40700
C 	C 	0.16564 0.96164 0.61298 0.36900
C 	C 	0.18039 0.93811 0.59804 -0.10300
C 	C 	0.20653 0.92859 0.60735 0.00900
H 	H 	0.21550 0.93780 0.62300 0.03900
C 	C 	0.25450 0.86760 0.60230 -0.04700
H 	H 	0.24170 0.85530 0.59270 0.04400
C 	C 	0.28030 0.85570 0.61450 -0.03800
H 	H 	0.28360 0.83570 0.61510 0.03900
C 	C 	0.29420 0.90320 0.62560 -0.02800
C 	C 	0.26800 0.91320 0.61530 -0.05200
H 	H 	0.30800 0.91630 0.63270 0.03500
H 	H 	0.26420 0.93300 0.61630 0.04600
O 	O 	0.17668 0.47078 0.13548 -0.41400
O 	O 	0.14294 0.47065 0.10199 -0.40900
C 	C 	0.16564 0.46164 0.11298 0.36900
C 	C 	0.18039 0.43811 0.09804 -0.10300
C 	C 	0.20653 0.42859 0.10735 0.00900
H 	H 	0.21550 0.43780 0.12300 0.03800
C 	C 	0.25450 0.36760 0.10230 -0.04700
H 	H 	0.24170 0.35530 0.09270 0.04400
C 	C 	0.28030 0.35570 0.11450 -0.03800
H 	H 	0.28360 0.33570 0.11510 0.03900
C 	C 	0.29420 0.40320 0.12560 -0.02800
C 	C 	0.26800 0.41320 0.11530 -0.05300
H 	H 	0.30800 0.41630 0.13270 0.03500
H 	H 	0.26420 0.43300 0.11630 0.04600
O 	O 	0.32332 0.97078 0.86452 -0.41300
O 	O 	0.35706 0.97065 0.89801 -0.40700
C 	C 	0.33436 0.96164 0.88702 0.36900
C 	C 	0.31961 0.93811 0.90196 -0.10200
C 	C 	0.29347 0.92859 0.89265 0.00800
H 	H 	0.28450 0.93780 0.87700 0.03900
C 	C 	0.24550 0.86760 0.89770 -0.04700
H 	H 	0.25830 0.85530 0.90730 0.04400
C 	C 	0.21970 0.85570 0.88550 -0.03800
H 	H 	0.21640 0.83570 0.88490 0.03900
C 	C 	0.20580 0.90320 0.87440 -0.02800
C 	C 	0.23200 0.91320 0.88470 -0.05200
H 	H 	0.19200 0.91630 0.86730 0.03500
H 	H 	0.23580 0.93300 0.88370 0.04600
O 	O 	0.32332 0.47078 0.36452 -0.41400
O 	O 	0.35706 0.47065 0.39801 -0.40900
C 	C 	0.33436 0.46164 0.38702 0.36900
C 	C 	0.31961 0.43811 0.40196 -0.10300
C 	C 	0.29347 0.42859 0.39265 0.00900
H 	H 	0.28450 0.43780 0.37700 0.03800
C 	C 	0.24550 0.36760 0.39770 -0.04700
H 	H 	0.25830 0.35530 0.40730 0.04400
C 	C 	0.21970 0.35570 0.38550 -0.03800
H 	H 	0.21640 0.33570 0.38490 0.03900
C 	C 	0.20580 0.40320 0.37440 -0.02800
C 	C 	0.23200 0.41320 0.38470 -0.05200
H 	H 	0.19200 0.41630 0.36730 0.03500
H 	H 	0.23580 0.43300 0.38370 0.04600
O 	O 	0.82332 0.97078 0.36452 -0.41300
O 	O 	0.85706 0.97065 0.39801 -0.40700
C 	C 	0.83436 0.96164 0.38702 0.36900
C 	C 	0.81961 0.93811 0.40196 -0.10300
C 	C 	0.79347 0.92859 0.39265 0.00800
H 	H 	0.78450 0.93780 0.37700 0.03900
C 	C 	0.74550 0.86760 0.39770 -0.04700
H 	H 	0.75830 0.85530 0.40730 0.04400
C 	C 	0.71970 0.85570 0.38550 -0.03800
H 	H 	0.71640 0.83570 0.38490 0.03900
C 	C 	0.70580 0.90320 0.37440 -0.02800
C 	C 	0.73200 0.91320 0.38470 -0.05200
H 	H 	0.69200 0.91630 0.36730 0.03500
H 	H 	0.73580 0.93300 0.38370 0.04600
O 	O 	0.82332 0.47078 0.86452 -0.41400
O 	O 	0.85706 0.47065 0.89801 -0.40800
C 	C 	0.83436 0.46164 0.88702 0.36900
C 	C 	0.81961 0.43811 0.90196 -0.10300
C 	C 	0.79347 0.42859 0.89265 0.00900
H 	H 	0.78450 0.43780 0.87700 0.03800
C 	C 	0.74550 0.36760 0.89770 -0.04700
H 	H 	0.75830 0.35530 0.90730 0.04400
C 	C 	0.71970 0.35570 0.88550 -0.03800
H 	H 	0.71640 0.33570 0.88490 0.03900
C 	C 	0.70580 0.40320 0.87440 -0.02800
C 	C 	0.73200 0.41320 0.88470 -0.05200
H 	H 	0.69200 0.41630 0.86730 0.03500
H 	H 	0.73580 0.43300 0.88370 0.04600
O 	O 	0.32332 0.02922 0.13548 -0.41500
O 	O 	0.35706 0.02935 0.10199 -0.40900
C 	C 	0.33436 0.03836 0.11298 0.36900
C 	C 	0.31961 0.06189 0.09804 -0.10400
C 	C 	0.29347 0.07141 0.10735 0.00900
H 	H 	0.28450 0.06220 0.12300 0.03800
C 	C 	0.24550 0.13240 0.10230 -0.04700
H 	H 	0.25830 0.14470 0.09270 0.04400
C 	C 	0.21970 0.14430 0.11450 -0.03800
H 	H 	0.21640 0.16430 0.11510 0.03900
C 	C 	0.20580 0.09680 0.12560 -0.02800
C 	C 	0.23200 0.08680 0.11530 -0.05300
H 	H 	0.19200 0.08370 0.13270 0.03400
H 	H 	0.23580 0.06700 0.11630 0.04500
O 	O 	0.32332 0.52922 0.63548 -0.41400
O 	O 	0.35706 0.52935 0.60199 -0.40900
C 	C 	0.33436 0.53836 0.61298 0.36900
C 	C 	0.31961 0.56189 0.59804 -0.10300
C 	C 	0.29347 0.57141 0.60735 0.00900
H 	H 	0.28450 0.56220 0.62300 0.03800
C 	C 	0.24550 0.63240 0.60230 -0.04700
H 	H 	0.25830 0.64470 0.59270 0.04400
C 	C 	0.21970 0.64430 0.61450 -0.03800
H 	H 	0.21640 0.66430 0.61510 0.03900
C 	C 	0.20580 0.59680 0.62560 -0.02800
C 	C 	0.23200 0.58680 0.61530 -0.05200
H 	H 	0.19200 0.58370 0.63270 0.03500
H 	H 	0.23580 0.56700 0.61630 0.04600
O 	O 	0.82332 0.02922 0.63548 -0.41500
O 	O 	0.85706 0.02935 0.60199 -0.40900
C 	C 	0.83436 0.03836 0.61298 0.36900
C 	C 	0.81961 0.06189 0.59804 -0.10400
C 	C 	0.79347 0.07141 0.60735 0.00900
H 	H 	0.78450 0.06220 0.62300 0.03800
C 	C 	0.74550 0.13240 0.60230 -0.04700
H 	H 	0.75830 0.14470 0.59270 0.04400
C 	C 	0.71970 0.14430 0.61450 -0.03800
H 	H 	0.71640 0.16430 0.61510 0.03900
C 	C 	0.70580 0.09680 0.62560 -0.02800
C 	C 	0.73200 0.08680 0.61530 -0.05200
H 	H 	0.69200 0.08370 0.63270 0.03500
H 	H 	0.73580 0.06700 0.61630 0.04500
O 	O 	0.82332 0.52922 0.13548 -0.41400
O 	O 	0.85706 0.52935 0.10199 -0.40900
C 	C 	0.83436 0.53836 0.11298 0.36900
C 	C 	0.81961 0.56189 0.09804 -0.10300
C 	C 	0.79347 0.57141 0.10735 0.00900
H 	H 	0.78450 0.56220 0.12300 0.03800
C 	C 	0.74550 0.63240 0.10230 -0.04700
H 	H 	0.75830 0.64470 0.09270 0.04400
C 	C 	0.71970 0.64430 0.11450 -0.03800
H 	H 	0.71640 0.66430 0.11510 0.03900
C 	C 	0.70580 0.59680 0.12560 -0.02800
C 	C 	0.73200 0.58680 0.11530 -0.05300
H 	H 	0.69200 0.58370 0.13270 0.03500
H 	H 	0.73580 0.56700 0.11630 0.04600
O 	O 	0.67668 0.02922 0.86452 -0.41400
O 	O 	0.64294 0.02935 0.89801 -0.40900
C 	C 	0.66564 0.03836 0.88702 0.36900
C 	C 	0.68039 0.06189 0.90196 -0.10300
C 	C 	0.70653 0.07141 0.89265 0.00900
H 	H 	0.71550 0.06220 0.87700 0.03800
C 	C 	0.75450 0.13240 0.89770 -0.04700
H 	H 	0.74170 0.14470 0.90730 0.04400
C 	C 	0.78030 0.14430 0.88550 -0.03800
H 	H 	0.78360 0.16430 0.88490 0.03900
C 	C 	0.79420 0.09680 0.87440 -0.02800
C 	C 	0.76800 0.08680 0.88470 -0.05200
H 	H 	0.80800 0.08370 0.86730 0.03500
H 	H 	0.76420 0.06700 0.88370 0.04500
O 	O 	0.67668 0.52922 0.36452 -0.41400
O 	O 	0.64294 0.52935 0.39801 -0.40900
C 	C 	0.66564 0.53836 0.38702 0.36900
C 	C 	0.68039 0.56189 0.40196 -0.10300
C 	C 	0.70653 0.57141 0.39265 0.00900
H 	H 	0.71550 0.56220 0.37700 0.03800
C 	C 	0.75450 0.63240 0.39770 -0.04700
H 	H 	0.74170 0.64470 0.40730 0.04400
C 	C 	0.78030 0.64430 0.38550 -0.03800
H 	H 	0.78360 0.66430 0.38490 0.03900
C 	C 	0.79420 0.59680 0.37440 -0.02800
C 	C 	0.76800 0.58680 0.38470 -0.05200
H 	H 	0.80800 0.58370 0.36730 0.03500
H 	H 	0.76420 0.56700 0.38370 0.04600
O 	O 	0.17668 0.02922 0.36452 -0.41500
O 	O 	0.14294 0.02935 0.39801 -0.40900
C 	C 	0.16564 0.03836 0.38702 0.36900
C 	C 	0.18039 0.06189 0.40196 -0.10400
C 	C 	0.20653 0.07141 0.39265 0.00900
H 	H 	0.21550 0.06220 0.37700 0.03800
C 	C 	0.25450 0.13240 0.39770 -0.04700
H 	H 	0.24170 0.14470 0.40730 0.04400
C 	C 	0.28030 0.14430 0.38550 -0.03800
H 	H 	0.28360 0.16430 0.38490 0.03900
C 	C 	0.29420 0.09680 0.37440 -0.02800
C 	C 	0.26800 0.08680 0.38470 -0.05200
H 	H 	0.30800 0.08370 0.36730 0.03500
H 	H 	0.26420 0.06700 0.38370 0.04500
O 	O 	0.17668 0.52922 0.86452 -0.41400
O 	O 	0.14294 0.52935 0.89801 -0.40800
C 	C 	0.16564 0.53836 0.88702 0.36900
C 	C 	0.18039 0.56189 0.90196 -0.10300
C 	C 	0.20653 0.57141 0.89265 0.00900
H 	H 	0.21550 0.56220 0.87700 0.03800
C 	C 	0.25450 0.63240 0.89770 -0.04700
H 	H 	0.24170 0.64470 0.90730 0.04400
C 	C 	0.28030 0.64430 0.88550 -0.03800
H 	H 	0.28360 0.66430 0.88490 0.03900
C 	C 	0.29420 0.59680 0.87440 -0.02800
C 	C 	0.26800 0.58680 0.88470 -0.05200
H 	H 	0.30800 0.58370 0.86730 0.03500
H 	H 	0.26420 0.56700 0.88370 0.04600
O 	O 	0.97078 0.86452 0.32332 -0.41300
O 	O 	0.97065 0.89801 0.35706 -0.40700
C 	C 	0.96164 0.88702 0.33436 0.36900
C 	C 	0.93811 0.90196 0.31961 -0.10200
C 	C 	0.92859 0.89265 0.29347 0.00800
H 	H 	0.93780 0.87700 0.28450 0.03900
C 	C 	0.86760 0.89770 0.24550 -0.04700
H 	H 	0.85530 0.90730 0.25830 0.04400
C 	C 	0.85570 0.88550 0.21970 -0.03800
H 	H 	0.83570 0.88490 0.21640 0.03900
C 	C 	0.90320 0.87440 0.20580 -0.02800
C 	C 	0.91320 0.88470 0.23200 -0.05200
H 	H 	0.91630 0.86730 0.19200 0.03500
H 	H 	0.93300 0.88370 0.23580 0.04600
O 	O 	0.97078 0.36452 0.82332 -0.41300
O 	O 	0.97065 0.39801 0.85706 -0.40700
C 	C 	0.96164 0.38702 0.83436 0.36900
C 	C 	0.93811 0.40196 0.81961 -0.10300
C 	C 	0.92859 0.39265 0.79347 0.00800
H 	H 	0.93780 0.37700 0.78450 0.03900
C 	C 	0.86760 0.39770 0.74550 -0.04700
H 	H 	0.85530 0.40730 0.75830 0.04400
C 	C 	0.85570 0.38550 0.71970 -0.03800
H 	H 	0.83570 0.38490 0.71640 0.03900
C 	C 	0.90320 0.37440 0.70580 -0.02800
C 	C 	0.91320 0.38470 0.73200 -0.05200
H 	H 	0.91630 0.36730 0.69200 0.03500
H 	H 	0.93300 0.38370 0.73580 0.04600
O 	O 	0.47078 0.86452 0.82332 -0.41400
O 	O 	0.47065 0.89801 0.85706 -0.40800
C 	C 	0.46164 0.88702 0.83436 0.36900
C 	C 	0.43811 0.90196 0.81961 -0.10300
C 	C 	0.42859 0.89265 0.79347 0.00900
H 	H 	0.43780 0.87700 0.78450 0.03800
C 	C 	0.36760 0.89770 0.74550 -0.04700
H 	H 	0.35530 0.90730 0.75830 0.04400
C 	C 	0.35570 0.88550 0.71970 -0.03800
H 	H 	0.33570 0.88490 0.71640 0.03900
C 	C 	0.40320 0.87440 0.70580 -0.02800
C 	C 	0.41320 0.88470 0.73200 -0.05200
H 	H 	0.41630 0.86730 0.69200 0.03500
H 	H 	0.43300 0.88370 0.73580 0.04600
O 	O 	0.47078 0.36452 0.32332 -0.41400
O 	O 	0.47065 0.39801 0.35706 -0.40900
C 	C 	0.46164 0.38702 0.33436 0.36900
C 	C 	0.43811 0.40196 0.31961 -0.10300
C 	C 	0.42859 0.39265 0.29347 0.00900
H 	H 	0.43780 0.37700 0.28450 0.03800
C 	C 	0.36760 0.39770 0.24550 -0.04700
H 	H 	0.35530 0.40730 0.25830 0.04400
C 	C 	0.35570 0.38550 0.21970 -0.03800
H 	H 	0.33570 0.38490 0.21640 0.03900
C 	C 	0.40320 0.37440 0.20580 -0.02800
C 	C 	0.41320 0.38470 0.23200 -0.05200
H 	H 	0.41630 0.36730 0.19200 0.03500
H 	H 	0.43300 0.38370 0.23580 0.04600
O 	O 	0.97078 0.13548 0.67668 -0.41300
O 	O 	0.97065 0.10199 0.64294 -0.40800
C 	C 	0.96164 0.11298 0.66564 0.36900
C 	C 	0.93811 0.09804 0.68039 -0.10300
C 	C 	0.92859 0.10735 0.70653 0.00900
H 	H 	0.93780 0.12300 0.71550 0.03900
C 	C 	0.86760 0.10230 0.75450 -0.04700
H 	H 	0.85530 0.09270 0.74170 0.04400
C 	C 	0.85570 0.11450 0.78030 -0.03800
H 	H 	0.83570 0.11510 0.78360 0.03900
C 	C 	0.90320 0.12560 0.79420 -0.02800
C 	C 	0.91320 0.11530 0.76800 -0.05300
H 	H 	0.91630 0.13270 0.80800 0.03500
H 	H 	0.93300 0.11630 0.76420 0.04600
O 	O 	0.97078 0.63548 0.17668 -0.41300
O 	O 	0.97065 0.60199 0.14294 -0.40700
C 	C 	0.96164 0.61298 0.16564 0.36900
C 	C 	0.93811 0.59804 0.18039 -0.10300
C 	C 	0.92859 0.60735 0.20653 0.00900
H 	H 	0.93780 0.62300 0.21550 0.03900
C 	C 	0.86760 0.60230 0.25450 -0.04700
H 	H 	0.85530 0.59270 0.24170 0.04400
C 	C 	0.85570 0.61450 0.28030 -0.03800
H 	H 	0.83570 0.61510 0.28360 0.03900
C 	C 	0.90320 0.62560 0.29420 -0.02800
C 	C 	0.91320 0.61530 0.26800 -0.05200
H 	H 	0.91630 0.63270 0.30800 0.03500
H 	H 	0.93300 0.61630 0.26420 0.04600
O 	O 	0.47078 0.13548 0.17668 -0.41400
O 	O 	0.47065 0.10199 0.14294 -0.40900
C 	C 	0.46164 0.11298 0.16564 0.36900
C 	C 	0.43811 0.09804 0.18039 -0.10300
C 	C 	0.42859 0.10735 0.20653 0.00900
H 	H 	0.43780 0.12300 0.21550 0.03800
C 	C 	0.36760 0.10230 0.25450 -0.04700
H 	H 	0.35530 0.09270 0.24170 0.04400
C 	C 	0.35570 0.11450 0.28030 -0.03800
H 	H 	0.33570 0.11510 0.28360 0.03900
C 	C 	0.40320 0.12560 0.29420 -0.02800
C 	C 	0.41320 0.11530 0.26800 -0.05300
H 	H 	0.41630 0.13270 0.30800 0.03500
H 	H 	0.43300 0.11630 0.26420 0.04600
O 	O 	0.47078 0.63548 0.67668 -0.41400
O 	O 	0.47065 0.60199 0.64294 -0.40900
C 	C 	0.46164 0.61298 0.66564 0.36900
C 	C 	0.43811 0.59804 0.68039 -0.10300
C 	C 	0.42859 0.60735 0.70653 0.00900
H 	H 	0.43780 0.62300 0.71550 0.03800
C 	C 	0.36760 0.60230 0.75450 -0.04700
H 	H 	0.35530 0.59270 0.74170 0.04400
C 	C 	0.35570 0.61450 0.78030 -0.03800
H 	H 	0.33570 0.61510 0.78360 0.03900
C 	C 	0.40320 0.62560 0.79420 -0.02800
C 	C 	0.41320 0.61530 0.76800 -0.05200
H 	H 	0.41630 0.63270 0.80800 0.03500
H 	H 	0.43300 0.61630 0.76420 0.04600
O 	O 	0.02922 0.86452 0.67668 -0.41400
O 	O 	0.02935 0.89801 0.64294 -0.40900
C 	C 	0.03836 0.88702 0.66564 0.36900
C 	C 	0.06189 0.90196 0.68039 -0.10300
C 	C 	0.07141 0.89265 0.70653 0.00900
H 	H 	0.06220 0.87700 0.71550 0.03800
C 	C 	0.13240 0.89770 0.75450 -0.04700
H 	H 	0.14470 0.90730 0.74170 0.04400
C 	C 	0.14430 0.88550 0.78030 -0.03800
H 	H 	0.16430 0.88490 0.78360 0.03900
C 	C 	0.09680 0.87440 0.79420 -0.02800
C 	C 	0.08680 0.88470 0.76800 -0.05200
H 	H 	0.08370 0.86730 0.80800 0.03500
H 	H 	0.06700 0.88370 0.76420 0.04500
O 	O 	0.02922 0.36452 0.17668 -0.41500
O 	O 	0.02935 0.39801 0.14294 -0.40900
C 	C 	0.03836 0.38702 0.16564 0.36900
C 	C 	0.06189 0.40196 0.18039 -0.10400
C 	C 	0.07141 0.39265 0.20653 0.00900
H 	H 	0.06220 0.37700 0.21550 0.03800
C 	C 	0.13240 0.39770 0.25450 -0.04700
H 	H 	0.14470 0.40730 0.24170 0.04400
C 	C 	0.14430 0.38550 0.28030 -0.03800
H 	H 	0.16430 0.38490 0.28360 0.03900
C 	C 	0.09680 0.37440 0.29420 -0.02800
C 	C 	0.08680 0.38470 0.26800 -0.05200
H 	H 	0.08370 0.36730 0.30800 0.03500
H 	H 	0.06700 0.38370 0.26420 0.04500
O 	O 	0.52922 0.86452 0.17668 -0.41400
O 	O 	0.52935 0.89801 0.14294 -0.40800
C 	C 	0.53836 0.88702 0.16564 0.36900
C 	C 	0.56189 0.90196 0.18039 -0.10300
C 	C 	0.57141 0.89265 0.20653 0.00900
H 	H 	0.56220 0.87700 0.21550 0.03800
C 	C 	0.63240 0.89770 0.25450 -0.04700
H 	H 	0.64470 0.90730 0.24170 0.04400
C 	C 	0.64430 0.88550 0.28030 -0.03800
H 	H 	0.66430 0.88490 0.28360 0.03900
C 	C 	0.59680 0.87440 0.29420 -0.02800
C 	C 	0.58680 0.88470 0.26800 -0.05200
H 	H 	0.58370 0.86730 0.30800 0.03500
H 	H 	0.56700 0.88370 0.26420 0.04600
O 	O 	0.52922 0.36452 0.67668 -0.41400
O 	O 	0.52935 0.39801 0.64294 -0.40900
C 	C 	0.53836 0.38702 0.66564 0.36900
C 	C 	0.56189 0.40196 0.68039 -0.10300
C 	C 	0.57141 0.39265 0.70653 0.00900
H 	H 	0.56220 0.37700 0.71550 0.03800
C 	C 	0.63240 0.39770 0.75450 -0.04700
H 	H 	0.64470 0.40730 0.74170 0.04400
C 	C 	0.64430 0.38550 0.78030 -0.03800
H 	H 	0.66430 0.38490 0.78360 0.03900
C 	C 	0.59680 0.37440 0.79420 -0.02800
C 	C 	0.58680 0.38470 0.76800 -0.05200
H 	H 	0.58370 0.36730 0.80800 0.03500
H 	H 	0.56700 0.38370 0.76420 0.04600
O 	O 	0.02922 0.13548 0.32332 -0.41500
O 	O 	0.02935 0.10199 0.35706 -0.40900
C 	C 	0.03836 0.11298 0.33436 0.36900
C 	C 	0.06189 0.09804 0.31961 -0.10400
C 	C 	0.07141 0.10735 0.29347 0.00900
H 	H 	0.06220 0.12300 0.28450 0.03800
C 	C 	0.13240 0.10230 0.24550 -0.04700
H 	H 	0.14470 0.09270 0.25830 0.04400
C 	C 	0.14430 0.11450 0.21970 -0.03800
H 	H 	0.16430 0.11510 0.21640 0.03900
C 	C 	0.09680 0.12560 0.20580 -0.02800
C 	C 	0.08680 0.11530 0.23200 -0.05300
H 	H 	0.08370 0.13270 0.19200 0.03400
H 	H 	0.06700 0.11630 0.23580 0.04500
O 	O 	0.02922 0.63548 0.82332 -0.41500
O 	O 	0.02935 0.60199 0.85706 -0.40900
C 	C 	0.03836 0.61298 0.83436 0.36900
C 	C 	0.06189 0.59804 0.81961 -0.10400
C 	C 	0.07141 0.60735 0.79347 0.00900
H 	H 	0.06220 0.62300 0.78450 0.03800
C 	C 	0.13240 0.60230 0.74550 -0.04700
H 	H 	0.14470 0.59270 0.75830 0.04400
C 	C 	0.14430 0.61450 0.71970 -0.03800
H 	H 	0.16430 0.61510 0.71640 0.03900
C 	C 	0.09680 0.62560 0.70580 -0.02800
C 	C 	0.08680 0.61530 0.73200 -0.05200
H 	H 	0.08370 0.63270 0.69200 0.03500
H 	H 	0.06700 0.61630 0.73580 0.04500
O 	O 	0.52922 0.13548 0.82332 -0.41400
O 	O 	0.52935 0.10199 0.85706 -0.40900
C 	C 	0.53836 0.11298 0.83436 0.36900
C 	C 	0.56189 0.09804 0.81961 -0.10300
C 	C 	0.57141 0.10735 0.79347 0.00900
H 	H 	0.56220 0.12300 0.78450 0.03800
C 	C 	0.63240 0.10230 0.74550 -0.04700
H 	H 	0.64470 0.09270 0.75830 0.04400
C 	C 	0.64430 0.11450 0.71970 -0.03800
H 	H 	0.66430 0.11510 0.71640 0.03900
C 	C 	0.59680 0.12560 0.70580 -0.02800
C 	C 	0.58680 0.11530 0.73200 -0.05300
H 	H 	0.58370 0.13270 0.69200 0.03500
H 	H 	0.56700 0.11630 0.73580 0.04600
O 	O 	0.52922 0.63548 0.32332 -0.41400
O 	O 	0.52935 0.60199 0.35706 -0.40900
C 	C 	0.53836 0.61298 0.33436 0.36900
C 	C 	0.56189 0.59804 0.31961 -0.10300
C 	C 	0.57141 0.60735 0.29347 0.00900
H 	H 	0.56220 0.62300 0.28450 0.03800
C 	C 	0.63240 0.60230 0.24550 -0.04700
H 	H 	0.64470 0.59270 0.25830 0.04400
C 	C 	0.64430 0.61450 0.21970 -0.03800
H 	H 	0.66430 0.61510 0.21640 0.03900
C 	C 	0.59680 0.62560 0.20580 -0.02800
C 	C 	0.58680 0.61530 0.23200 -0.05200
H 	H 	0.58370 0.63270 0.19200 0.03500
H 	H 	0.56700 0.61630 0.23580 0.04600
Cu	Cu	0.34059 0.15941 -0.00000 0.90500
Cu	Cu	0.38072 0.11928 -0.00000 0.90800
Cu	Cu	0.34059 0.65941 0.50000 0.90600
Cu	Cu	0.38072 0.61928 0.50000 0.90900
Cu	Cu	0.65941 0.84059 -0.00000 0.90500
Cu	Cu	0.61928 0.88072 -0.00000 0.90800
Cu	Cu	0.65941 0.34059 0.50000 0.90600
Cu	Cu	0.61928 0.38072 0.50000 0.90900
Cu	Cu	0.15941 0.34059 -0.00000 0.90500
Cu	Cu	0.11928 0.38072 -0.00000 0.90800
Cu	Cu	0.65941 0.15941 -0.00000 0.90500
Cu	Cu	0.61928 0.11928 -0.00000 0.90800
Cu	Cu	0.65941 0.65941 0.50000 0.90600
Cu	Cu	0.61928 0.61928 0.50000 0.90900
Cu	Cu	0.15941 0.15941 0.50000 0.90600
Cu	Cu	0.11928 0.11928 0.50000 0.90900
Cu	Cu	0.34059 0.84059 -0.00000 0.90500
Cu	Cu	0.38072 0.88072 -0.00000 0.90800
Cu	Cu	0.34059 0.34059 0.50000 0.90600
Cu	Cu	0.38072 0.38072 0.50000 0.90900
Cu	Cu	-0.00000 0.34059 0.15941 0.90500
Cu	Cu	-0.00000 0.38072 0.11928 0.90800
Cu	Cu	0.50000 0.34059 0.65941 0.90600
Cu	Cu	0.50000 0.38072 0.61928 0.90900
Cu	Cu	-0.00000 0.65941 0.84059 0.90500
Cu	Cu	-0.00000 0.61928 0.88072 0.90800
Cu	Cu	-0.00000 0.15941 0.34059 0.90500
Cu	Cu	-0.00000 0.11928 0.38072 0.90800
Cu	Cu	0.50000 0.65941 0.34059 0.90600
Cu	Cu	0.50000 0.61928 0.38072 0.90900
Cu	Cu	-0.00000 0.65941 0.15941 0.90500
Cu	Cu	-0.00000 0.61928 0.11928 0.90800
Cu	Cu	0.50000 0.65941 0.65941 0.90600
Cu	Cu	0.50000 0.61928 0.61928 0.90900
Cu	Cu	0.50000 0.15941 0.15941 0.90600
Cu	Cu	0.50000 0.11928 0.11928 0.90900
Cu	Cu	-0.00000 0.34059 0.84059 0.90500
Cu	Cu	0.00000 0.38072 0.88072 0.90800
Cu	Cu	0.50000 0.34059 0.34059 0.90600
Cu	Cu	0.50000 0.38072 0.38072 0.90900
Cu	Cu	0.15941 0.00000 0.34059 0.90500
Cu	Cu	0.11928 -0.00000 0.38072 0.90800
Cu	Cu	0.15941 0.50000 0.84059 0.90600
Cu	Cu	0.11928 0.50000 0.88072 0.90900
Cu	Cu	0.84059 -0.00000 0.65941 0.90500
Cu	Cu	0.88072 0.00000 0.61928 0.90800
Cu	Cu	0.84059 0.50000 0.15941 0.90600
Cu	Cu	0.88072 0.50000 0.11928 0.90900
Cu	Cu	0.34059 -0.00000 0.15941 0.90500
Cu	Cu	0.38072 -0.00000 0.11928 0.90800
Cu	Cu	0.15941 -0.00000 0.65941 0.90500
Cu	Cu	0.11928 0.00000 0.61928 0.90800
Cu	Cu	0.15941 0.50000 0.15941 0.90600
Cu	Cu	0.11928 0.50000 0.11928 0.90900
Cu	Cu	0.84059 0.00000 0.34059 0.90500
Cu	Cu	0.88072 -0.00000 0.38072 0.90800
Cu	Cu	0.84059 0.50000 0.84059 0.90600
Cu	Cu	0.88072 0.50000 0.88072 0.90900
Cu	Cu	0.34059 0.50000 0.34059 0.90600
Cu	Cu	0.38072 0.50000 0.38072 0.90900
Cu	Cu	0.15941 0.84059 0.50000 0.90600
Cu	Cu	0.11928 0.88072 0.50000 0.90900
Cu	Cu	0.84059 0.65941 -0.00000 0.90500
Cu	Cu	0.88072 0.61928 -0.00000 0.90800
Cu	Cu	0.84059 0.15941 0.50000 0.90600
Cu	Cu	0.88072 0.11928 0.50000 0.90900
Cu	Cu	0.15941 0.65941 -0.00000 0.90500
Cu	Cu	0.11928 0.61928 -0.00000 0.90800
Cu	Cu	0.84059 0.34059 -0.00000 0.90500
Cu	Cu	0.88072 0.38072 -0.00000 0.90800
Cu	Cu	0.84059 0.84059 0.50000 0.90600
Cu	Cu	0.88072 0.88072 0.50000 0.90900
Cu	Cu	0.34059 -0.00000 0.84059 0.90500
Cu	Cu	0.38072 0.00000 0.88072 0.90800
Cu	Cu	0.65941 -0.00000 0.15941 0.90500
Cu	Cu	0.61928 -0.00000 0.11928 0.90800
Cu	Cu	0.65941 0.50000 0.65941 0.90600
Cu	Cu	0.61928 0.50000 0.61928 0.90900
Cu	Cu	0.65941 -0.00000 0.84059 0.90500
Cu	Cu	0.61928 0.00000 0.88072 0.90800
Cu	Cu	0.65941 0.50000 0.34059 0.90600
Cu	Cu	0.61928 0.50000 0.38072 0.90900
Cu	Cu	0.34059 0.50000 0.65941 0.90600
Cu	Cu	0.38072 0.50000 0.61928 0.90900
Cu	Cu	-0.00000 0.15941 0.65941 0.90500
Cu	Cu	-0.00000 0.11928 0.61928 0.90800
Cu	Cu	-0.00000 0.84059 0.34059 0.90500
Cu	Cu	0.00000 0.88072 0.38072 0.90800
Cu	Cu	0.50000 0.84059 0.84059 0.90600
Cu	Cu	0.50000 0.88072 0.88072 0.90900
Cu	Cu	0.50000 0.15941 0.84059 0.90600
Cu	Cu	0.50000 0.11928 0.88072 0.90900
Cu	Cu	-0.00000 0.84059 0.65941 0.90500
Cu	Cu	-0.00000 0.88072 0.61928 0.90800
Cu	Cu	0.50000 0.84059 0.15941 0.90600
Cu	Cu	0.50000 0.88072 0.11928 0.90900
C 	C 	0.33288 0.07478 0.07478 0.04400
H 	H 	0.35060 0.06790 0.06790 0.04700
C 	C 	0.28000 0.09422 0.09422 -0.03900
C 	C 	0.25203 0.10416 0.10416 0.05800
C 	C 	0.20010 0.12528 0.12528 0.01100
C 	C 	0.17310 0.13710 0.13710 0.04200
C 	C 	0.33288 0.57478 0.57478 0.04400
H 	H 	0.35060 0.56790 0.56790 0.04800
C 	C 	0.28000 0.59422 0.59422 -0.03900
C 	C 	0.25203 0.60416 0.60416 0.05800
C 	C 	0.20010 0.62528 0.62528 0.01100
C 	C 	0.17310 0.63710 0.63710 0.04200
C 	C 	0.83288 0.07478 0.57478 0.04400
H 	H 	0.85060 0.06790 0.56790 0.04800
C 	C 	0.78000 0.09422 0.59422 -0.03900
C 	C 	0.75203 0.10416 0.60416 0.05800
C 	C 	0.70010 0.12528 0.62528 0.01100
C 	C 	0.67310 0.13710 0.63710 0.04200
C 	C 	0.83288 0.57478 0.07478 0.04400
H 	H 	0.85060 0.56790 0.06790 0.04800
C 	C 	0.78000 0.59422 0.09422 -0.03900
C 	C 	0.75203 0.60416 0.10416 0.05800
C 	C 	0.70010 0.62528 0.12528 0.01100
C 	C 	0.67310 0.63710 0.13710 0.04200
C 	C 	0.66712 0.92522 0.07478 0.04400
H 	H 	0.64940 0.93210 0.06790 0.04800
C 	C 	0.72000 0.90578 0.09422 -0.03900
C 	C 	0.74797 0.89584 0.10416 0.05800
C 	C 	0.79990 0.87472 0.12528 0.01100
C 	C 	0.82690 0.86290 0.13710 0.04300
C 	C 	0.66712 0.42522 0.57478 0.04400
H 	H 	0.64940 0.43210 0.56790 0.04800
C 	C 	0.72000 0.40578 0.59422 -0.03900
C 	C 	0.74797 0.39584 0.60416 0.05800
C 	C 	0.79990 0.37472 0.62528 0.01100
C 	C 	0.82690 0.36290 0.63710 0.04300
C 	C 	0.16712 0.92522 0.57478 0.04400
H 	H 	0.14940 0.93210 0.56790 0.04800
C 	C 	0.22000 0.90578 0.59422 -0.03800
C 	C 	0.24797 0.89584 0.60416 0.05800
C 	C 	0.29990 0.87472 0.62528 0.01100
C 	C 	0.32690 0.86290 0.63710 0.04300
C 	C 	0.16712 0.42522 0.07478 0.04400
H 	H 	0.14940 0.43210 0.06790 0.04700
C 	C 	0.22000 0.40578 0.09422 -0.03900
C 	C 	0.24797 0.39584 0.10416 0.05800
C 	C 	0.29990 0.37472 0.12528 0.01100
C 	C 	0.32690 0.36290 0.13710 0.04200
C 	C 	0.66712 0.07478 0.92522 0.04400
H 	H 	0.64940 0.06790 0.93210 0.04800
C 	C 	0.72000 0.09422 0.90578 -0.03900
C 	C 	0.74797 0.10416 0.89584 0.05800
C 	C 	0.79990 0.12528 0.87472 0.01100
C 	C 	0.82690 0.13710 0.86290 0.04300
C 	C 	0.66712 0.57478 0.42522 0.04400
H 	H 	0.64940 0.56790 0.43210 0.04800
C 	C 	0.72000 0.59422 0.40578 -0.03900
C 	C 	0.74797 0.60416 0.39584 0.05800
C 	C 	0.79990 0.62528 0.37472 0.01100
C 	C 	0.82690 0.63710 0.36290 0.04300
C 	C 	0.16712 0.07478 0.42522 0.04400
H 	H 	0.14940 0.06790 0.43210 0.04700
C 	C 	0.22000 0.09422 0.40578 -0.03900
C 	C 	0.24797 0.10416 0.39584 0.05800
C 	C 	0.29990 0.12528 0.37472 0.01100
C 	C 	0.32690 0.13710 0.36290 0.04200
C 	C 	0.16712 0.57478 0.92522 0.04400
H 	H 	0.14940 0.56790 0.93210 0.04800
C 	C 	0.22000 0.59422 0.90578 -0.03800
C 	C 	0.24797 0.60416 0.89584 0.05800
C 	C 	0.29990 0.62528 0.87472 0.01100
C 	C 	0.32690 0.63710 0.86290 0.04300
C 	C 	0.33288 0.92522 0.92522 0.04300
H 	H 	0.35060 0.93210 0.93210 0.04800
C 	C 	0.28000 0.90578 0.90578 -0.03800
C 	C 	0.25203 0.89584 0.89584 0.05800
C 	C 	0.20010 0.87472 0.87472 0.01100
C 	C 	0.17310 0.86290 0.86290 0.04300
C 	C 	0.33288 0.42522 0.42522 0.04400
H 	H 	0.35060 0.43210 0.43210 0.04800
C 	C 	0.28000 0.40578 0.40578 -0.03900
C 	C 	0.25203 0.39584 0.39584 0.05800
C 	C 	0.20010 0.37472 0.37472 0.01100
C 	C 	0.17310 0.36290 0.36290 0.04300
C 	C 	0.83288 0.92522 0.42522 0.04300
H 	H 	0.85060 0.93210 0.43210 0.04800
C 	C 	0.78000 0.90578 0.40578 -0.03800
C 	C 	0.75203 0.89584 0.39584 0.05800
C 	C 	0.70010 0.87472 0.37472 0.01100
C 	C 	0.67310 0.86290 0.36290 0.04300
C 	C 	0.83288 0.42522 0.92522 0.04300
H 	H 	0.85060 0.43210 0.93210 0.04800
C 	C 	0.78000 0.40578 0.90578 -0.03800
C 	C 	0.75203 0.39584 0.89584 0.05800
C 	C 	0.70010 0.37472 0.87472 0.01100
C 	C 	0.67310 0.36290 0.86290 0.04300
C 	C 	0.07478 0.33288 0.07478 0.04400
H 	H 	0.06790 0.35060 0.06790 0.04700
C 	C 	0.09422 0.28000 0.09422 -0.03900
C 	C 	0.10416 0.25203 0.10416 0.05800
C 	C 	0.12528 0.20010 0.12528 0.01100
C 	C 	0.13710 0.17310 0.13710 0.04200
C 	C 	0.07478 0.83288 0.57478 0.04400
H 	H 	0.06790 0.85060 0.56790 0.04800
C 	C 	0.09422 0.78000 0.59422 -0.03900
C 	C 	0.10416 0.75203 0.60416 0.05800
C 	C 	0.12528 0.70010 0.62528 0.01100
C 	C 	0.13710 0.67310 0.63710 0.04200
C 	C 	0.57478 0.33288 0.57478 0.04400
H 	H 	0.56790 0.35060 0.56790 0.04800
C 	C 	0.59422 0.28000 0.59422 -0.03900
C 	C 	0.60416 0.25203 0.60416 0.05800
C 	C 	0.62528 0.20010 0.62528 0.01100
C 	C 	0.63710 0.17310 0.63710 0.04200
C 	C 	0.57478 0.83288 0.07478 0.04400
H 	H 	0.56790 0.85060 0.06790 0.04800
C 	C 	0.59422 0.78000 0.09422 -0.03900
C 	C 	0.60416 0.75203 0.10416 0.05800
C 	C 	0.62528 0.70010 0.12528 0.01100
C 	C 	0.63710 0.67310 0.13710 0.04200
C 	C 	0.07478 0.66712 0.92522 0.04400
H 	H 	0.06790 0.64940 0.93210 0.04800
C 	C 	0.09422 0.72000 0.90578 -0.03900
C 	C 	0.10416 0.74797 0.89584 0.05800
C 	C 	0.12528 0.79990 0.87472 0.01100
C 	C 	0.13710 0.82690 0.86290 0.04300
C 	C 	0.07478 0.16712 0.42522 0.04400
H 	H 	0.06790 0.14940 0.43210 0.04700
C 	C 	0.09422 0.22000 0.40578 -0.03900
C 	C 	0.10416 0.24797 0.39584 0.05800
C 	C 	0.12528 0.29990 0.37472 0.01100
C 	C 	0.13710 0.32690 0.36290 0.04200
C 	C 	0.57478 0.66712 0.42522 0.04400
H 	H 	0.56790 0.64940 0.43210 0.04800
C 	C 	0.59422 0.72000 0.40578 -0.03900
C 	C 	0.60416 0.74797 0.39584 0.05800
C 	C 	0.62528 0.79990 0.37472 0.01100
C 	C 	0.63710 0.82690 0.36290 0.04300
C 	C 	0.57478 0.16712 0.92522 0.04400
H 	H 	0.56790 0.14940 0.93210 0.04800
C 	C 	0.59422 0.22000 0.90578 -0.03800
C 	C 	0.60416 0.24797 0.89584 0.05800
C 	C 	0.62528 0.29990 0.87472 0.01100
C 	C 	0.63710 0.32690 0.86290 0.04300
C 	C 	0.92522 0.66712 0.07478 0.04400
H 	H 	0.93210 0.64940 0.06790 0.04800
C 	C 	0.90578 0.72000 0.09422 -0.03900
C 	C 	0.89584 0.74797 0.10416 0.05800
C 	C 	0.87472 0.79990 0.12528 0.01100
C 	C 	0.86290 0.82690 0.13710 0.04300
C 	C 	0.92522 0.16712 0.57478 0.04400
H 	H 	0.93210 0.14940 0.56790 0.04800
C 	C 	0.90578 0.22000 0.59422 -0.03800
C 	C 	0.89584 0.24797 0.60416 0.05800
C 	C 	0.87472 0.29990 0.62528 0.01100
C 	C 	0.86290 0.32690 0.63710 0.04300
C 	C 	0.42522 0.66712 0.57478 0.04400
H 	H 	0.43210 0.64940 0.56790 0.04800
C 	C 	0.40578 0.72000 0.59422 -0.03900
C 	C 	0.39584 0.74797 0.60416 0.05800
C 	C 	0.37472 0.79990 0.62528 0.01100
C 	C 	0.36290 0.82690 0.63710 0.04300
C 	C 	0.42522 0.16712 0.07478 0.04400
H 	H 	0.43210 0.14940 0.06790 0.04700
C 	C 	0.40578 0.22000 0.09422 -0.03900
C 	C 	0.39584 0.24797 0.10416 0.05800
C 	C 	0.37472 0.29990 0.12528 0.01100
C 	C 	0.36290 0.32690 0.13710 0.04200
C 	C 	0.92522 0.33288 0.92522 0.04300
H 	H 	0.93210 0.35060 0.93210 0.04800
C 	C 	0.90578 0.28000 0.90578 -0.03800
C 	C 	0.89584 0.25203 0.89584 0.05800
C 	C 	0.87472 0.20010 0.87472 0.01100
C 	C 	0.86290 0.17310 0.86290 0.04300
C 	C 	0.92522 0.83288 0.42522 0.04300
H 	H 	0.93210 0.85060 0.43210 0.04800
C 	C 	0.90578 0.78000 0.40578 -0.03800
C 	C 	0.89584 0.75203 0.39584 0.05800
C 	C 	0.87472 0.70010 0.37472 0.01100
C 	C 	0.86290 0.67310 0.36290 0.04300
C 	C 	0.42522 0.33288 0.42522 0.04400
H 	H 	0.43210 0.35060 0.43210 0.04800
C 	C 	0.40578 0.28000 0.40578 -0.03900
C 	C 	0.39584 0.25203 0.39584 0.05800
C 	C 	0.37472 0.20010 0.37472 0.01100
C 	C 	0.36290 0.17310 0.36290 0.04300
C 	C 	0.42522 0.83288 0.92522 0.04300
H 	H 	0.43210 0.85060 0.93210 0.04800
C 	C 	0.40578 0.78000 0.90578 -0.03800
C 	C 	0.39584 0.75203 0.89584 0.05800
C 	C 	0.37472 0.70010 0.87472 0.01100
C 	C 	0.36290 0.67310 0.86290 0.04300
C 	C 	0.07478 0.07478 0.33288 0.04400
H 	H 	0.06790 0.06790 0.35060 0.04700
C 	C 	0.09422 0.09422 0.28000 -0.03900
C 	C 	0.10416 0.10416 0.25203 0.05800
C 	C 	0.12528 0.12528 0.20010 0.01100
C 	C 	0.13710 0.13710 0.17310 0.04200
C 	C 	0.07478 0.57478 0.83288 0.04400
H 	H 	0.06790 0.56790 0.85060 0.04800
C 	C 	0.09422 0.59422 0.78000 -0.03900
C 	C 	0.10416 0.60416 0.75203 0.05800
C 	C 	0.12528 0.62528 0.70010 0.01100
C 	C 	0.13710 0.63710 0.67310 0.04200
C 	C 	0.57478 0.07478 0.83288 0.04400
H 	H 	0.56790 0.06790 0.85060 0.04800
C 	C 	0.59422 0.09422 0.78000 -0.03900
C 	C 	0.60416 0.10416 0.75203 0.05800
C 	C 	0.62528 0.12528 0.70010 0.01100
C 	C 	0.63710 0.13710 0.67310 0.04200
C 	C 	0.57478 0.57478 0.33288 0.04400
H 	H 	0.56790 0.56790 0.35060 0.04800
C 	C 	0.59422 0.59422 0.28000 -0.03900
C 	C 	0.60416 0.60416 0.25203 0.05800
C 	C 	0.62528 0.62528 0.20010 0.01100
C 	C 	0.63710 0.63710 0.17310 0.04200
C 	C 	0.92522 0.07478 0.66712 0.04400
H 	H 	0.93210 0.06790 0.64940 0.04800
C 	C 	0.90578 0.09422 0.72000 -0.03900
C 	C 	0.89584 0.10416 0.74797 0.05800
C 	C 	0.87472 0.12528 0.79990 0.01100
C 	C 	0.86290 0.13710 0.82690 0.04300
C 	C 	0.92522 0.57478 0.16712 0.04400
H 	H 	0.93210 0.56790 0.14940 0.04800
C 	C 	0.90578 0.59422 0.22000 -0.03800
C 	C 	0.89584 0.60416 0.24797 0.05800
C 	C 	0.87472 0.62528 0.29990 0.01100
C 	C 	0.86290 0.63710 0.32690 0.04300
C 	C 	0.42522 0.07478 0.16712 0.04400
H 	H 	0.43210 0.06790 0.14940 0.04700
C 	C 	0.40578 0.09422 0.22000 -0.03900
C 	C 	0.39584 0.10416 0.24797 0.05800
C 	C 	0.37472 0.12528 0.29990 0.01100
C 	C 	0.36290 0.13710 0.32690 0.04200
C 	C 	0.42522 0.57478 0.66712 0.04400
H 	H 	0.43210 0.56790 0.64940 0.04800
C 	C 	0.40578 0.59422 0.72000 -0.03900
C 	C 	0.39584 0.60416 0.74797 0.05800
C 	C 	0.37472 0.62528 0.79990 0.01100
C 	C 	0.36290 0.63710 0.82690 0.04300
C 	C 	0.07478 0.92522 0.66712 0.04400
H 	H 	0.06790 0.93210 0.64940 0.04800
C 	C 	0.09422 0.90578 0.72000 -0.03900
C 	C 	0.10416 0.89584 0.74797 0.05800
C 	C 	0.12528 0.87472 0.79990 0.01100
C 	C 	0.13710 0.86290 0.82690 0.04300
C 	C 	0.07478 0.42522 0.16712 0.04400
H 	H 	0.06790 0.43210 0.14940 0.04700
C 	C 	0.09422 0.40578 0.22000 -0.03900
C 	C 	0.10416 0.39584 0.24797 0.05800
C 	C 	0.12528 0.37472 0.29990 0.01100
C 	C 	0.13710 0.36290 0.32690 0.04200
C 	C 	0.57478 0.92522 0.16712 0.04400
H 	H 	0.56790 0.93210 0.14940 0.04800
C 	C 	0.59422 0.90578 0.22000 -0.03800
C 	C 	0.60416 0.89584 0.24797 0.05800
C 	C 	0.62528 0.87472 0.29990 0.01100
C 	C 	0.63710 0.86290 0.32690 0.04300
C 	C 	0.57478 0.42522 0.66712 0.04400
H 	H 	0.56790 0.43210 0.64940 0.04800
C 	C 	0.59422 0.40578 0.72000 -0.03900
C 	C 	0.60416 0.39584 0.74797 0.05800
C 	C 	0.62528 0.37472 0.79990 0.01100
C 	C 	0.63710 0.36290 0.82690 0.04300
C 	C 	0.92522 0.92522 0.33288 0.04300
H 	H 	0.93210 0.93210 0.35060 0.04800
C 	C 	0.90578 0.90578 0.28000 -0.03800
C 	C 	0.89584 0.89584 0.25203 0.05800
C 	C 	0.87472 0.87472 0.20010 0.01100
C 	C 	0.86290 0.86290 0.17310 0.04300
C 	C 	0.92522 0.42522 0.83288 0.04300
H 	H 	0.93210 0.43210 0.85060 0.04800
C 	C 	0.90578 0.40578 0.78000 -0.03800
C 	C 	0.89584 0.39584 0.75203 0.05800
C 	C 	0.87472 0.37472 0.70010 0.01100
C 	C 	0.86290 0.36290 0.67310 0.04300
C 	C 	0.42522 0.92522 0.83288 0.04300
H 	H 	0.43210 0.93210 0.85060 0.04800
C 	C 	0.40578 0.90578 0.78000 -0.03800
C 	C 	0.39584 0.89584 0.75203 0.05800
C 	C 	0.37472 0.87472 0.70010 0.01100
C 	C 	0.36290 0.86290 0.67310 0.04300
C 	C 	0.42522 0.42522 0.33288 0.04400
H 	H 	0.43210 0.43210 0.35060 0.04800
C 	C 	0.40578 0.40578 0.28000 -0.03900
C 	C 	0.39584 0.39584 0.25203 0.05800
C 	C 	0.37472 0.37472 0.20010 0.01100
C 	C 	0.36290 0.36290 0.17310 0.04300
C 	C 	0.07478 0.33288 0.92522 0.04400
H 	H 	0.06790 0.35060 0.93210 0.04800
C 	C 	0.09422 0.28000 0.90578 -0.03900
C 	C 	0.10416 0.25203 0.89584 0.05800
C 	C 	0.12528 0.20010 0.87472 0.01100
C 	C 	0.13710 0.17310 0.86290 0.04300
C 	C 	0.07478 0.83288 0.42522 0.04400
H 	H 	0.06790 0.85060 0.43210 0.04800
C 	C 	0.09422 0.78000 0.40578 -0.03900
C 	C 	0.10416 0.75203 0.39584 0.05800
C 	C 	0.12528 0.70010 0.37472 0.01100
C 	C 	0.13710 0.67310 0.36290 0.04200
C 	C 	0.57478 0.33288 0.42522 0.04400
H 	H 	0.56790 0.35060 0.43210 0.04800
C 	C 	0.59422 0.28000 0.40578 -0.03900
C 	C 	0.60416 0.25203 0.39584 0.05800
C 	C 	0.62528 0.20010 0.37472 0.01100
C 	C 	0.63710 0.17310 0.36290 0.04300
C 	C 	0.57478 0.83288 0.92522 0.04300
H 	H 	0.56790 0.85060 0.93210 0.04800
C 	C 	0.59422 0.78000 0.90578 -0.03800
C 	C 	0.60416 0.75203 0.89584 0.05800
C 	C 	0.62528 0.70010 0.87472 0.01100
C 	C 	0.63710 0.67310 0.86290 0.04300
C 	C 	0.92522 0.66712 0.92522 0.04300
H 	H 	0.93210 0.64940 0.93210 0.04800
C 	C 	0.90578 0.72000 0.90578 -0.03800
C 	C 	0.89584 0.74797 0.89584 0.05800
C 	C 	0.87472 0.79990 0.87472 0.01100
C 	C 	0.86290 0.82690 0.86290 0.04300
C 	C 	0.92522 0.16712 0.42522 0.04400
H 	H 	0.93210 0.14940 0.43210 0.04800
C 	C 	0.90578 0.22000 0.40578 -0.03800
C 	C 	0.89584 0.24797 0.39584 0.05800
C 	C 	0.87472 0.29990 0.37472 0.01100
C 	C 	0.86290 0.32690 0.36290 0.04300
C 	C 	0.42522 0.66712 0.42522 0.04400
H 	H 	0.43210 0.64940 0.43210 0.04800
C 	C 	0.40578 0.72000 0.40578 -0.03900
C 	C 	0.39584 0.74797 0.39584 0.05800
C 	C 	0.37472 0.79990 0.37472 0.01100
C 	C 	0.36290 0.82690 0.36290 0.04300
C 	C 	0.42522 0.16712 0.92522 0.04400
H 	H 	0.43210 0.14940 0.93210 0.04800
C 	C 	0.40578 0.22000 0.90578 -0.03800
C 	C 	0.39584 0.24797 0.89584 0.05800
C 	C 	0.37472 0.29990 0.87472 0.01100
C 	C 	0.36290 0.32690 0.86290 0.04300
C 	C 	0.07478 0.66712 0.07478 0.04400
H 	H 	0.06790 0.64940 0.06790 0.04700
C 	C 	0.09422 0.72000 0.09422 -0.03900
C 	C 	0.10416 0.74797 0.10416 0.05800
C 	C 	0.12528 0.79990 0.12528 0.01100
C 	C 	0.13710 0.82690 0.13710 0.04200
C 	C 	0.07478 0.16712 0.57478 0.04400
H 	H 	0.06790 0.14940 0.56790 0.04700
C 	C 	0.09422 0.22000 0.59422 -0.03900
C 	C 	0.10416 0.24797 0.60416 0.05800
C 	C 	0.12528 0.29990 0.62528 0.01100
C 	C 	0.13710 0.32690 0.63710 0.04200
C 	C 	0.57478 0.66712 0.57478 0.04400
H 	H 	0.56790 0.64940 0.56790 0.04800
C 	C 	0.59422 0.72000 0.59422 -0.03900
C 	C 	0.60416 0.74797 0.60416 0.05800
C 	C 	0.62528 0.79990 0.62528 0.01100
C 	C 	0.63710 0.82690 0.63710 0.04300
C 	C 	0.57478 0.16712 0.07478 0.04400
H 	H 	0.56790 0.14940 0.06790 0.04700
C 	C 	0.59422 0.22000 0.09422 -0.03900
C 	C 	0.60416 0.24797 0.10416 0.05800
C 	C 	0.62528 0.29990 0.12528 0.01100
C 	C 	0.63710 0.32690 0.13710 0.04200
C 	C 	0.92522 0.33288 0.07478 0.04400
H 	H 	0.93210 0.35060 0.06790 0.04800
C 	C 	0.90578 0.28000 0.09422 -0.03900
C 	C 	0.89584 0.25203 0.10416 0.05800
C 	C 	0.87472 0.20010 0.12528 0.01100
C 	C 	0.86290 0.17310 0.13710 0.04300
C 	C 	0.92522 0.83288 0.57478 0.04300
H 	H 	0.93210 0.85060 0.56790 0.04800
C 	C 	0.90578 0.78000 0.59422 -0.03800
C 	C 	0.89584 0.75203 0.60416 0.05800
C 	C 	0.87472 0.70010 0.62528 0.01100
C 	C 	0.86290 0.67310 0.63710 0.04300
C 	C 	0.42522 0.33288 0.57478 0.04400
H 	H 	0.43210 0.35060 0.56790 0.04800
C 	C 	0.40578 0.28000 0.59422 -0.03900
C 	C 	0.39584 0.25203 0.60416 0.05800
C 	C 	0.37472 0.20010 0.62528 0.01100
C 	C 	0.36290 0.17310 0.63710 0.04300
C 	C 	0.42522 0.83288 0.07478 0.04400
H 	H 	0.43210 0.85060 0.06790 0.04800
C 	C 	0.40578 0.78000 0.09422 -0.03900
C 	C 	0.39584 0.75203 0.10416 0.05800
C 	C 	0.37472 0.70010 0.12528 0.01100
C 	C 	0.36290 0.67310 0.13710 0.04200
C 	C 	0.33288 0.07478 0.92522 0.04400
H 	H 	0.35060 0.06790 0.93210 0.04800
C 	C 	0.28000 0.09422 0.90578 -0.03900
C 	C 	0.25203 0.10416 0.89584 0.05800
C 	C 	0.20010 0.12528 0.87472 0.01100
C 	C 	0.17310 0.13710 0.86290 0.04300
C 	C 	0.33288 0.57478 0.42522 0.04400
H 	H 	0.35060 0.56790 0.43210 0.04800
C 	C 	0.28000 0.59422 0.40578 -0.03900
C 	C 	0.25203 0.60416 0.39584 0.05800
C 	C 	0.20010 0.62528 0.37472 0.01100
C 	C 	0.17310 0.63710 0.36290 0.04300
C 	C 	0.83288 0.07478 0.42522 0.04400
H 	H 	0.85060 0.06790 0.43210 0.04800
C 	C 	0.78000 0.09422 0.40578 -0.03900
C 	C 	0.75203 0.10416 0.39584 0.05800
C 	C 	0.70010 0.12528 0.37472 0.01100
C 	C 	0.67310 0.13710 0.36290 0.04200
C 	C 	0.83288 0.57478 0.92522 0.04300
H 	H 	0.85060 0.56790 0.93210 0.04800
C 	C 	0.78000 0.59422 0.90578 -0.03800
C 	C 	0.75203 0.60416 0.89584 0.05800
C 	C 	0.70010 0.62528 0.87472 0.01100
C 	C 	0.67310 0.63710 0.86290 0.04300
C 	C 	0.66712 0.07478 0.07478 0.04400
H 	H 	0.64940 0.06790 0.06790 0.04700
C 	C 	0.72000 0.09422 0.09422 -0.03900
C 	C 	0.74797 0.10416 0.10416 0.05800
C 	C 	0.79990 0.12528 0.12528 0.01100
C 	C 	0.82690 0.13710 0.13710 0.04200
C 	C 	0.66712 0.57478 0.57478 0.04400
H 	H 	0.64940 0.56790 0.56790 0.04800
C 	C 	0.72000 0.59422 0.59422 -0.03900
C 	C 	0.74797 0.60416 0.60416 0.05800
C 	C 	0.79990 0.62528 0.62528 0.01100
C 	C 	0.82690 0.63710 0.63710 0.04300
C 	C 	0.16712 0.07478 0.57478 0.04400
H 	H 	0.14940 0.06790 0.56790 0.04700
C 	C 	0.22000 0.09422 0.59422 -0.03900
C 	C 	0.24797 0.10416 0.60416 0.05800
C 	C 	0.29990 0.12528 0.62528 0.01100
C 	C 	0.32690 0.13710 0.63710 0.04200
C 	C 	0.16712 0.57478 0.07478 0.04400
H 	H 	0.14940 0.56790 0.06790 0.04700
C 	C 	0.22000 0.59422 0.09422 -0.03900
C 	C 	0.24797 0.60416 0.10416 0.05800
C 	C 	0.29990 0.62528 0.12528 0.01100
C 	C 	0.32690 0.63710 0.13710 0.04200
C 	C 	0.66712 0.92522 0.92522 0.04300
H 	H 	0.64940 0.93210 0.93210 0.04800
C 	C 	0.72000 0.90578 0.90578 -0.03800
C 	C 	0.74797 0.89584 0.89584 0.05800
C 	C 	0.79990 0.87472 0.87472 0.01100
C 	C 	0.82690 0.86290 0.86290 0.04300
C 	C 	0.66712 0.42522 0.42522 0.04400
H 	H 	0.64940 0.43210 0.43210 0.04800
C 	C 	0.72000 0.40578 0.40578 -0.03900
C 	C 	0.74797 0.39584 0.39584 0.05800
C 	C 	0.79990 0.37472 0.37472 0.01100
C 	C 	0.82690 0.36290 0.36290 0.04300
C 	C 	0.16712 0.92522 0.42522 0.04400
H 	H 	0.14940 0.93210 0.43210 0.04800
C 	C 	0.22000 0.90578 0.40578 -0.03800
C 	C 	0.24797 0.89584 0.39584 0.05800
C 	C 	0.29990 0.87472 0.37472 0.01100
C 	C 	0.32690 0.86290 0.36290 0.04300
C 	C 	0.16712 0.42522 0.92522 0.04400
H 	H 	0.14940 0.43210 0.93210 0.04800
C 	C 	0.22000 0.40578 0.90578 -0.03800
C 	C 	0.24797 0.39584 0.89584 0.05800
C 	C 	0.29990 0.37472 0.87472 0.01100
C 	C 	0.32690 0.36290 0.86290 0.04300
C 	C 	0.33288 0.92522 0.07478 0.04400
H 	H 	0.35060 0.93210 0.06790 0.04800
C 	C 	0.28000 0.90578 0.09422 -0.03900
C 	C 	0.25203 0.89584 0.10416 0.05800
C 	C 	0.20010 0.87472 0.12528 0.01100
C 	C 	0.17310 0.86290 0.13710 0.04300
C 	C 	0.33288 0.42522 0.57478 0.04400
H 	H 	0.35060 0.43210 0.56790 0.04800
C 	C 	0.28000 0.40578 0.59422 -0.03900
C 	C 	0.25203 0.39584 0.60416 0.05800
C 	C 	0.20010 0.37472 0.62528 0.01100
C 	C 	0.17310 0.36290 0.63710 0.04300
C 	C 	0.83288 0.92522 0.57478 0.04300
H 	H 	0.85060 0.93210 0.56790 0.04800
C 	C 	0.78000 0.90578 0.59422 -0.03800
C 	C 	0.75203 0.89584 0.60416 0.05800
C 	C 	0.70010 0.87472 0.62528 0.01100
C 	C 	0.67310 0.86290 0.63710 0.04300
C 	C 	0.83288 0.42522 0.07478 0.04400
H 	H 	0.85060 0.43210 0.06790 0.04800
C 	C 	0.78000 0.40578 0.09422 -0.03900
C 	C 	0.75203 0.39584 0.10416 0.05800
C 	C 	0.70010 0.37472 0.12528 0.01100
C 	C 	0.67310 0.36290 0.13710 0.04200
C 	C 	0.07478 0.07478 0.66712 0.04400
H 	H 	0.06790 0.06790 0.64940 0.04700
C 	C 	0.09422 0.09422 0.72000 -0.03900
C 	C 	0.10416 0.10416 0.74797 0.05800
C 	C 	0.12528 0.12528 0.79990 0.01100
C 	C 	0.13710 0.13710 0.82690 0.04200
C 	C 	0.07478 0.57478 0.16712 0.04400
H 	H 	0.06790 0.56790 0.14940 0.04700
C 	C 	0.09422 0.59422 0.22000 -0.03900
C 	C 	0.10416 0.60416 0.24797 0.05800
C 	C 	0.12528 0.62528 0.29990 0.01100
C 	C 	0.13710 0.63710 0.32690 0.04200
C 	C 	0.57478 0.07478 0.16712 0.04400
H 	H 	0.56790 0.06790 0.14940 0.04700
C 	C 	0.59422 0.09422 0.22000 -0.03900
C 	C 	0.60416 0.10416 0.24797 0.05800
C 	C 	0.62528 0.12528 0.29990 0.01100
C 	C 	0.63710 0.13710 0.32690 0.04200
C 	C 	0.57478 0.57478 0.66712 0.04400
H 	H 	0.56790 0.56790 0.64940 0.04800
C 	C 	0.59422 0.59422 0.72000 -0.03900
C 	C 	0.60416 0.60416 0.74797 0.05800
C 	C 	0.62528 0.62528 0.79990 0.01100
C 	C 	0.63710 0.63710 0.82690 0.04300
C 	C 	0.07478 0.92522 0.33288 0.04400
H 	H 	0.06790 0.93210 0.35060 0.04800
C 	C 	0.09422 0.90578 0.28000 -0.03900
C 	C 	0.10416 0.89584 0.25203 0.05800
C 	C 	0.12528 0.87472 0.20010 0.01100
C 	C 	0.13710 0.86290 0.17310 0.04300
C 	C 	0.07478 0.42522 0.83288 0.04400
H 	H 	0.06790 0.43210 0.85060 0.04800
C 	C 	0.09422 0.40578 0.78000 -0.03900
C 	C 	0.10416 0.39584 0.75203 0.05800
C 	C 	0.12528 0.37472 0.70010 0.01100
C 	C 	0.13710 0.36290 0.67310 0.04200
C 	C 	0.57478 0.92522 0.83288 0.04300
H 	H 	0.56790 0.93210 0.85060 0.04800
C 	C 	0.59422 0.90578 0.78000 -0.03800
C 	C 	0.60416 0.89584 0.75203 0.05800
C 	C 	0.62528 0.87472 0.70010 0.01100
C 	C 	0.63710 0.86290 0.67310 0.04300
C 	C 	0.57478 0.42522 0.33288 0.04400
H 	H 	0.56790 0.43210 0.35060 0.04800
C 	C 	0.59422 0.40578 0.28000 -0.03900
C 	C 	0.60416 0.39584 0.25203 0.05800
C 	C 	0.62528 0.37472 0.20010 0.01100
C 	C 	0.63710 0.36290 0.17310 0.04300
C 	C 	0.92522 0.07478 0.33288 0.04400
H 	H 	0.93210 0.06790 0.35060 0.04800
C 	C 	0.90578 0.09422 0.28000 -0.03900
C 	C 	0.89584 0.10416 0.25203 0.05800
C 	C 	0.87472 0.12528 0.20010 0.01100
C 	C 	0.86290 0.13710 0.17310 0.04300
C 	C 	0.92522 0.57478 0.83288 0.04300
H 	H 	0.93210 0.56790 0.85060 0.04800
C 	C 	0.90578 0.59422 0.78000 -0.03800
C 	C 	0.89584 0.60416 0.75203 0.05800
C 	C 	0.87472 0.62528 0.70010 0.01100
C 	C 	0.86290 0.63710 0.67310 0.04300
C 	C 	0.42522 0.07478 0.83288 0.04400
H 	H 	0.43210 0.06790 0.85060 0.04800
C 	C 	0.40578 0.09422 0.78000 -0.03900
C 	C 	0.39584 0.10416 0.75203 0.05800
C 	C 	0.37472 0.12528 0.70010 0.01100
C 	C 	0.36290 0.13710 0.67310 0.04200
C 	C 	0.42522 0.57478 0.33288 0.04400
H 	H 	0.43210 0.56790 0.35060 0.04800
C 	C 	0.40578 0.59422 0.28000 -0.03900
C 	C 	0.39584 0.60416 0.25203 0.05800
C 	C 	0.37472 0.62528 0.20010 0.01100
C 	C 	0.36290 0.63710 0.17310 0.04300
C 	C 	0.92522 0.92522 0.66712 0.04300
H 	H 	0.93210 0.93210 0.64940 0.04800
C 	C 	0.90578 0.90578 0.72000 -0.03800
C 	C 	0.89584 0.89584 0.74797 0.05800
C 	C 	0.87472 0.87472 0.79990 0.01100
C 	C 	0.86290 0.86290 0.82690 0.04300
C 	C 	0.92522 0.42522 0.16712 0.04400
H 	H 	0.93210 0.43210 0.14940 0.04800
C 	C 	0.90578 0.40578 0.22000 -0.03800
C 	C 	0.89584 0.39584 0.24797 0.05800
C 	C 	0.87472 0.37472 0.29990 0.01100
C 	C 	0.86290 0.36290 0.32690 0.04300
C 	C 	0.42522 0.92522 0.16712 0.04400
H 	H 	0.43210 0.93210 0.14940 0.04800
C 	C 	0.40578 0.90578 0.22000 -0.03800
C 	C 	0.39584 0.89584 0.24797 0.05800
C 	C 	0.37472 0.87472 0.29990 0.01100
C 	C 	0.36290 0.86290 0.32690 0.04300
C 	C 	0.42522 0.42522 0.66712 0.04400
H 	H 	0.43210 0.43210 0.64940 0.04800
C 	C 	0.40578 0.40578 0.72000 -0.03900
C 	C 	0.39584 0.39584 0.74797 0.05800
C 	C 	0.37472 0.37472 0.79990 0.01100
C 	C 	0.36290 0.36290 0.82690 0.04300
C 	C 	0.16155 0.12340 0.16155 -0.11100
H 	H 	0.16950 0.10660 0.16950 0.06100
C 	C 	0.16155 0.62340 0.66155 -0.11100
H 	H 	0.16950 0.60660 0.66950 0.06100
C 	C 	0.66155 0.12340 0.66155 -0.11100
H 	H 	0.66950 0.10660 0.66950 0.06100
C 	C 	0.66155 0.62340 0.16155 -0.11100
H 	H 	0.66950 0.60660 0.16950 0.06100
C 	C 	0.83845 0.87660 0.16155 -0.11100
H 	H 	0.83050 0.89340 0.16950 0.06100
C 	C 	0.83845 0.37660 0.66155 -0.11100
H 	H 	0.83050 0.39340 0.66950 0.06100
C 	C 	0.33845 0.87660 0.66155 -0.11100
H 	H 	0.33050 0.89340 0.66950 0.06100
C 	C 	0.33845 0.37660 0.16155 -0.11100
H 	H 	0.33050 0.39340 0.16950 0.06100
C 	C 	0.83845 0.12340 0.83845 -0.11100
H 	H 	0.83050 0.10660 0.83050 0.06100
C 	C 	0.83845 0.62340 0.33845 -0.11100
H 	H 	0.83050 0.60660 0.33050 0.06100
C 	C 	0.33845 0.12340 0.33845 -0.11100
H 	H 	0.33050 0.10660 0.33050 0.06100
C 	C 	0.33845 0.62340 0.83845 -0.11100
H 	H 	0.33050 0.60660 0.83050 0.06100
C 	C 	0.16155 0.87660 0.83845 -0.11100
H 	H 	0.16950 0.89340 0.83050 0.06100
C 	C 	0.16155 0.37660 0.33845 -0.11100
H 	H 	0.16950 0.39340 0.33050 0.06100
C 	C 	0.66155 0.87660 0.33845 -0.11100
H 	H 	0.66950 0.89340 0.33050 0.06100
C 	C 	0.66155 0.37660 0.83845 -0.11100
H 	H 	0.66950 0.39340 0.83050 0.06100
C 	C 	0.16155 0.16155 0.12340 -0.11100
H 	H 	0.16950 0.16950 0.10660 0.06100
C 	C 	0.16155 0.66155 0.62340 -0.11100
H 	H 	0.16950 0.66950 0.60660 0.06100
C 	C 	0.66155 0.16155 0.62340 -0.11100
H 	H 	0.66950 0.16950 0.60660 0.06100
C 	C 	0.66155 0.66155 0.12340 -0.11100
H 	H 	0.66950 0.66950 0.10660 0.06100
C 	C 	0.16155 0.83845 0.87660 -0.11100
H 	H 	0.16950 0.83050 0.89340 0.06100
C 	C 	0.16155 0.33845 0.37660 -0.11100
H 	H 	0.16950 0.33050 0.39340 0.06100
C 	C 	0.66155 0.83845 0.37660 -0.11100
H 	H 	0.66950 0.83050 0.39340 0.06100
C 	C 	0.66155 0.33845 0.87660 -0.11100
H 	H 	0.66950 0.33050 0.89340 0.06100
C 	C 	0.83845 0.83845 0.12340 -0.11100
H 	H 	0.83050 0.83050 0.10660 0.06100
C 	C 	0.83845 0.33845 0.62340 -0.11100
H 	H 	0.83050 0.33050 0.60660 0.06100
C 	C 	0.33845 0.83845 0.62340 -0.11100
H 	H 	0.33050 0.83050 0.60660 0.06100
C 	C 	0.33845 0.33845 0.12340 -0.11100
H 	H 	0.33050 0.33050 0.10660 0.06100
C 	C 	0.83845 0.16155 0.87660 -0.11100
H 	H 	0.83050 0.16950 0.89340 0.06100
C 	C 	0.83845 0.66155 0.37660 -0.11100
H 	H 	0.83050 0.66950 0.39340 0.06100
C 	C 	0.33845 0.16155 0.37660 -0.11100
H 	H 	0.33050 0.16950 0.39340 0.06100
C 	C 	0.33845 0.66155 0.87660 -0.11100
H 	H 	0.33050 0.66950 0.89340 0.06100
C 	C 	0.12340 0.16155 0.16155 -0.11100
H 	H 	0.10660 0.16950 0.16950 0.06100
C 	C 	0.12340 0.66155 0.66155 -0.11100
H 	H 	0.10660 0.66950 0.66950 0.06100
C 	C 	0.62340 0.16155 0.66155 -0.11100
H 	H 	0.60660 0.16950 0.66950 0.06100
C 	C 	0.62340 0.66155 0.16155 -0.11100
H 	H 	0.60660 0.66950 0.16950 0.06100
C 	C 	0.87660 0.16155 0.83845 -0.11100
H 	H 	0.89340 0.16950 0.83050 0.06100
C 	C 	0.87660 0.66155 0.33845 -0.11100
H 	H 	0.89340 0.66950 0.33050 0.06100
C 	C 	0.37660 0.16155 0.33845 -0.11100
H 	H 	0.39340 0.16950 0.33050 0.06100
C 	C 	0.37660 0.66155 0.83845 -0.11100
H 	H 	0.39340 0.66950 0.83050 0.06100
C 	C 	0.12340 0.83845 0.83845 -0.11100
H 	H 	0.10660 0.83050 0.83050 0.06100
C 	C 	0.12340 0.33845 0.33845 -0.11100
H 	H 	0.10660 0.33050 0.33050 0.06100
C 	C 	0.62340 0.83845 0.33845 -0.11100
H 	H 	0.60660 0.83050 0.33050 0.06100
C 	C 	0.62340 0.33845 0.83845 -0.11100
H 	H 	0.60660 0.33050 0.83050 0.06100
C 	C 	0.87660 0.83845 0.16155 -0.11100
H 	H 	0.89340 0.83050 0.16950 0.06100
C 	C 	0.87660 0.33845 0.66155 -0.11100
H 	H 	0.89340 0.33050 0.66950 0.06100
C 	C 	0.37660 0.83845 0.66155 -0.11100
H 	H 	0.39340 0.83050 0.66950 0.06100
C 	C 	0.37660 0.33845 0.16155 -0.11100
H 	H 	0.39340 0.33050 0.16950 0.06100
C 	C 	0.12340 0.16155 0.83845 -0.11100
H 	H 	0.10660 0.16950 0.83050 0.06100
C 	C 	0.12340 0.66155 0.33845 -0.11100
H 	H 	0.10660 0.66950 0.33050 0.06100
C 	C 	0.62340 0.16155 0.33845 -0.11100
H 	H 	0.60660 0.16950 0.33050 0.06100
C 	C 	0.62340 0.66155 0.83845 -0.11100
H 	H 	0.60660 0.66950 0.83050 0.06100
C 	C 	0.87660 0.83845 0.83845 -0.11100
H 	H 	0.89340 0.83050 0.83050 0.06200
C 	C 	0.87660 0.33845 0.33845 -0.11100
H 	H 	0.89340 0.33050 0.33050 0.06200
C 	C 	0.37660 0.83845 0.33845 -0.11100
H 	H 	0.39340 0.83050 0.33050 0.06100
C 	C 	0.37660 0.33845 0.83845 -0.11100
H 	H 	0.39340 0.33050 0.83050 0.06100
C 	C 	0.12340 0.83845 0.16155 -0.11100
H 	H 	0.10660 0.83050 0.16950 0.06100
C 	C 	0.12340 0.33845 0.66155 -0.11100
H 	H 	0.10660 0.33050 0.66950 0.06100
C 	C 	0.62340 0.83845 0.66155 -0.11100
H 	H 	0.60660 0.83050 0.66950 0.06100
C 	C 	0.62340 0.33845 0.16155 -0.11100
H 	H 	0.60660 0.33050 0.16950 0.06100
C 	C 	0.87660 0.16155 0.16155 -0.11100
H 	H 	0.89340 0.16950 0.16950 0.06100
C 	C 	0.87660 0.66155 0.66155 -0.11100
H 	H 	0.89340 0.66950 0.66950 0.06100
C 	C 	0.37660 0.16155 0.66155 -0.11100
H 	H 	0.39340 0.16950 0.66950 0.06100
C 	C 	0.37660 0.66155 0.16155 -0.11100
H 	H 	0.39340 0.66950 0.16950 0.06100
C 	C 	0.16155 0.16155 0.87660 -0.11100
H 	H 	0.16950 0.16950 0.89340 0.06100
C 	C 	0.16155 0.66155 0.37660 -0.11100
H 	H 	0.16950 0.66950 0.39340 0.06100
C 	C 	0.66155 0.16155 0.37660 -0.11100
H 	H 	0.66950 0.16950 0.39340 0.06100
C 	C 	0.66155 0.66155 0.87660 -0.11100
H 	H 	0.66950 0.66950 0.89340 0.06100
C 	C 	0.83845 0.16155 0.12340 -0.11100
H 	H 	0.83050 0.16950 0.10660 0.06100
C 	C 	0.83845 0.66155 0.62340 -0.11100
H 	H 	0.83050 0.66950 0.60660 0.06100
C 	C 	0.33845 0.16155 0.62340 -0.11100
H 	H 	0.33050 0.16950 0.60660 0.06100
C 	C 	0.33845 0.66155 0.12340 -0.11100
H 	H 	0.33050 0.66950 0.10660 0.06100
C 	C 	0.83845 0.83845 0.87660 -0.11100
H 	H 	0.83050 0.83050 0.89340 0.06200
C 	C 	0.83845 0.33845 0.37660 -0.11100
H 	H 	0.83050 0.33050 0.39340 0.06100
C 	C 	0.33845 0.83845 0.37660 -0.11100
H 	H 	0.33050 0.83050 0.39340 0.06100
C 	C 	0.33845 0.33845 0.87660 -0.11100
H 	H 	0.33050 0.33050 0.89340 0.06200
C 	C 	0.16155 0.83845 0.12340 -0.11100
H 	H 	0.16950 0.83050 0.10660 0.06100
C 	C 	0.16155 0.33845 0.62340 -0.11100
H 	H 	0.16950 0.33050 0.60660 0.06100
C 	C 	0.66155 0.83845 0.62340 -0.11100
H 	H 	0.66950 0.83050 0.60660 0.06100
C 	C 	0.66155 0.33845 0.12340 -0.11100
H 	H 	0.66950 0.33050 0.10660 0.06100
C 	C 	0.16155 0.12340 0.83845 -0.11100
H 	H 	0.16950 0.10660 0.83050 0.06100
C 	C 	0.16155 0.62340 0.33845 -0.11100
H 	H 	0.16950 0.60660 0.33050 0.06100
C 	C 	0.66155 0.12340 0.33845 -0.11100
H 	H 	0.66950 0.10660 0.33050 0.06100
C 	C 	0.66155 0.62340 0.83845 -0.11100
H 	H 	0.66950 0.60660 0.83050 0.06100
C 	C 	0.16155 0.87660 0.16155 -0.11100
H 	H 	0.16950 0.89340 0.16950 0.06100
C 	C 	0.16155 0.37660 0.66155 -0.11100
H 	H 	0.16950 0.39340 0.66950 0.06100
C 	C 	0.66155 0.87660 0.66155 -0.11100
H 	H 	0.66950 0.89340 0.66950 0.06100
C 	C 	0.66155 0.37660 0.16155 -0.11100
H 	H 	0.66950 0.39340 0.16950 0.06100
C 	C 	0.83845 0.12340 0.16155 -0.11100
H 	H 	0.83050 0.10660 0.16950 0.06100
C 	C 	0.83845 0.62340 0.66155 -0.11100
H 	H 	0.83050 0.60660 0.66950 0.06100
C 	C 	0.33845 0.12340 0.66155 -0.11100
H 	H 	0.33050 0.10660 0.66950 0.06100
C 	C 	0.33845 0.62340 0.16155 -0.11100
H 	H 	0.33050 0.60660 0.16950 0.06100
C 	C 	0.83845 0.87660 0.83845 -0.11100
H 	H 	0.83050 0.89340 0.83050 0.06200
C 	C 	0.83845 0.37660 0.33845 -0.11100
H 	H 	0.83050 0.39340 0.33050 0.06100
C 	C 	0.33845 0.87660 0.33845 -0.11100
H 	H 	0.33050 0.89340 0.33050 0.06200
C 	C 	0.33845 0.37660 0.83845 -0.11100
H 	H 	0.33050 0.39340 0.83050 0.06100
