data_crystal

_cell_length_a 23.78860
_cell_length_b 33.56350
_cell_length_c 20.53330
_cell_angle_alpha 90.00000
_cell_angle_beta  92.43800
_cell_angle_gamma 90.00000

_symmetry_space_group_name_	'P 1'
_symmetry_space_group_name_H-M	'P 1'

loop_
_symmetry_equiv_pos_as_xyz
  x,y,z

loop_
_atom_site_label
_atom_site_type_symbol
_atom_site_fract_x
_atom_site_fract_y
_atom_site_fract_z
_atom_site_charge
Fe	Fe	0.82484 0.76570 0.30873 1.21900
Fe	Fe	0.91128 0.78225 0.07427 1.23200
Fe	Fe	0.83264 0.66411 0.28773 1.23300
Fe	Fe	0.91172 0.68008 0.04727 1.21900
Fe	Fe	0.81221 0.72399 0.15001 1.23100
Fe	Fe	0.92371 0.72194 0.20728 1.20600
K 	K 	0.84001 0.75515 0.91160 0.65700
K 	K 	0.94577 0.72116 0.40267 0.64400
K 	K 	0.84162 0.08808 0.06520 0.63900
K 	K 	0.81550 0.76770 0.52460 0.48900
K 	K 	0.81190 0.74440 0.49450 0.48400
Li	Li	0.70250 0.04180 0.00490 0.55500
Li	Li	0.78630 0.98450 0.04840 0.55100
O 	O 	0.74990 0.76720 0.35550 -0.49100
O 	O 	0.68100 0.80350 0.39390 -0.37500
O 	O 	0.85980 0.78770 0.39430 -0.51400
O 	O 	0.89510 0.83930 0.44980 -0.33400
O 	O 	0.70850 0.99510 0.06710 -0.45200
O 	O 	0.63190 0.99300 0.12460 -0.29000
O 	O 	0.85070 0.00370 0.10240 -0.38900
O 	O 	0.88960 0.01470 0.19970 -0.27000
O 	O 	0.95020 0.80950 0.99690 -0.37600
O 	O 	0.96200 0.86540 0.94040 -0.25100
O 	O 	0.98340 0.78750 0.12950 -0.46800
O 	O 	0.03950 0.82610 0.19300 -0.28400
O 	O 	0.81100 0.63650 0.37360 -0.41300
O 	O 	0.77080 0.58350 0.41670 -0.38700
O 	O 	0.91530 0.65480 0.31360 -0.46700
O 	O 	0.98630 0.61210 0.32690 -0.28700
O 	O 	0.65580 0.45670 0.09510 -0.29300
O 	O 	0.71440 0.46620 0.01560 -0.43800
O 	O 	0.81290 0.41070 0.05630 -0.33900
O 	O 	0.87390 0.39220 0.13360 -0.23700
O 	O 	0.88350 0.67860 0.95180 -0.42400
O 	O 	0.85090 0.64330 0.86590 -0.27000
O 	O 	0.98650 0.65900 0.01590 -0.41000
O 	O 	0.04690 0.60820 0.01570 -0.25000
O 	O 	0.74700 0.80970 0.02300 -0.30600
O 	O 	0.83730 0.79050 0.03100 -0.50500
O 	O 	0.77100 0.76060 0.08920 -0.49200
O 	O 	0.75390 0.65990 0.25500 -0.48300
O 	O 	0.74230 0.69110 0.15810 -0.48000
O 	O 	0.68110 0.64720 0.18890 -0.29100
O 	O 	0.88470 0.75308 0.14340 -0.69000
O 	O 	0.85700 0.69260 0.21660 -0.68800
O 	O 	0.78790 0.75860 0.22500 -0.48600
O 	O 	0.83610 0.68900 0.07540 -0.46600
O 	O 	0.94870 0.68350 0.13560 -0.48700
O 	O 	0.93570 0.73450 0.02660 -0.49200
O 	O 	0.82780 0.71140 0.34560 -0.53100
O 	O 	0.90130 0.75870 0.27870 -0.50100
O 	O 	0.93870 0.77120 0.52000 -0.24300
N 	N 	0.80310 0.83270 0.30460 -0.11500
N 	N 	0.77060 0.95340 0.15710 -0.07300
N 	N 	0.91010 0.84840 0.09930 -0.12100
N 	N 	0.84030 0.59760 0.26600 -0.11900
N 	N 	0.80050 0.48650 0.10380 -0.08700
N 	N 	0.89400 0.61270 0.03210 -0.11600
C 	C 	0.86130 0.84310 0.20460 -0.25800
H 	H 	0.89210 0.85520 0.23170 0.11500
H 	H 	0.86820 0.81400 0.20230 0.08400
C 	C 	0.80450 0.85090 0.23580 0.10100
H 	H 	0.77490 0.83700 0.20820 0.01200
C 	C 	0.78990 0.89530 0.23490 -0.24300
H 	H 	0.75180 0.89930 0.25140 0.10100
H 	H 	0.81710 0.91000 0.26370 0.10100
C 	C 	0.79190 0.91130 0.16570 0.11300
H 	H 	0.76580 0.89420 0.13850 0.00700
C 	C 	0.84890 0.90560 0.13960 -0.24800
H 	H 	0.87770 0.91880 0.16850 0.10800
H 	H 	0.85040 0.91760 0.09560 0.08900
C 	C 	0.86040 0.86080 0.13630 0.11100
H 	H 	0.82690 0.84890 0.11250 0.00200
C 	C 	0.74520 0.83650 0.32760 -0.31300
H 	H 	0.71950 0.84240 0.28970 0.13800
H 	H 	0.74400 0.85940 0.35780 0.12900
C 	C 	0.72370 0.80020 0.36180 0.36900
C 	C 	0.84430 0.85280 0.35130 -0.32400
H 	H 	0.82540 0.87530 0.37230 0.12400
H 	H 	0.87570 0.86370 0.32660 0.13900
C 	C 	0.86800 0.82510 0.40320 0.39200
C 	C 	0.70920 0.95610 0.16340 -0.31900
H 	H 	0.69230 0.92930 0.15750 0.13600
H 	H 	0.70120 0.96550 0.20780 0.12100
C 	C 	0.68300 0.98360 0.11510 0.40200
C 	C 	0.80240 0.98190 0.19490 -0.28400
H 	H 	0.81710 0.96860 0.23510 0.11900
H 	H 	0.77630 0.00310 0.20830 0.10400
C 	C 	0.85040 0.00120 0.16350 0.35900
C 	C 	0.90910 0.86860 0.03630 -0.29600
H 	H 	0.92460 0.89580 0.04200 0.12400
H 	H 	0.86970 0.87100 0.01920 0.12000
C 	C 	0.94250 0.84650 0.98840 0.36000
C 	C 	0.96530 0.85750 0.13560 -0.31500
H 	H 	0.98850 0.87430 0.10760 0.13500
H 	H 	0.95750 0.87300 0.17520 0.12800
C 	C 	0.99800 0.82120 0.15490 0.39200
C 	C 	0.87190 0.60360 0.15150 -0.25000
H 	H 	0.90990 0.59320 0.16330 0.11100
H 	H 	0.87240 0.63280 0.15720 0.08100
C 	C 	0.82820 0.58470 0.19630 0.10500
H 	H 	0.79050 0.59570 0.18250 0.00400
C 	C 	0.82530 0.54000 0.18770 -0.23900
H 	H 	0.79650 0.52890 0.21610 0.09100
H 	H 	0.86200 0.52810 0.20090 0.10000
C 	C 	0.81010 0.52920 0.11570 0.11100
H 	H 	0.77360 0.54280 0.10430 -0.00200
C 	C 	0.85300 0.54660 0.07100 -0.24600
H 	H 	0.84250 0.53990 0.02520 0.09900
H 	H 	0.89050 0.53500 0.08180 0.09900
C 	C 	0.85560 0.59290 0.07920 0.09700
H 	H 	0.81680 0.60340 0.06950 0.01000
C 	C 	0.79710 0.57950 0.30620 -0.31700
H 	H 	0.80630 0.55110 0.31390 0.12600
H 	H 	0.76000 0.58080 0.28240 0.11800
C 	C 	0.79350 0.60050 0.37050 0.39200
C 	C 	0.89820 0.58490 0.29140 -0.30800
H 	H 	0.91660 0.56950 0.25710 0.12700
H 	H 	0.89420 0.56710 0.32940 0.14100
C 	C 	0.93590 0.62020 0.31160 0.39800
C 	C 	0.74710 0.47330 0.12740 -0.28600
H 	H 	0.73240 0.49420 0.15610 0.11400
H 	H 	0.75360 0.44910 0.15420 0.11300
C 	C 	0.70380 0.46440 0.07540 0.37500
C 	C 	0.84700 0.46090 0.13210 -0.25900
H 	H 	0.84490 0.46010 0.18010 0.10800
H 	H 	0.88380 0.47250 0.12150 0.10600
C 	C 	0.84230 0.41780 0.10430 0.35400
C 	C 	0.86790 0.60920 0.96530 -0.30700
H 	H 	0.88760 0.58790 0.94190 0.13100
H 	H 	0.82830 0.60070 0.96890 0.12300
C 	C 	0.86870 0.64600 0.92580 0.38500
C 	C 	0.95030 0.59350 0.03510 -0.28100
H 	H 	0.95010 0.57120 0.00350 0.12100
H 	H 	0.95730 0.58210 0.07920 0.12200
C 	C 	0.99880 0.62190 0.02030 0.36000
C 	C 	0.78450 0.78710 0.04780 0.50900
C 	C 	0.72650 0.66710 0.20090 0.52500
Fe	Fe	0.32484 0.26570 0.30873 1.21800
Fe	Fe	0.41128 0.28225 0.07427 1.23200
Fe	Fe	0.33264 0.16411 0.28773 1.23300
Fe	Fe	0.41172 0.18008 0.04727 1.21900
Fe	Fe	0.31221 0.22399 0.15001 1.23100
Fe	Fe	0.42371 0.22194 0.20728 1.20800
K 	K 	0.34001 0.25515 0.91160 0.65800
K 	K 	0.44577 0.22116 0.40267 0.64600
K 	K 	0.34162 0.58808 0.06520 0.64000
K 	K 	0.31550 0.26770 0.52460 0.48900
K 	K 	0.31190 0.24440 0.49450 0.48400
Li	Li	0.20250 0.54180 0.00490 0.55500
Li	Li	0.28630 0.48450 0.04840 0.55100
O 	O 	0.24990 0.26720 0.35550 -0.49000
O 	O 	0.18100 0.30350 0.39390 -0.37400
O 	O 	0.35980 0.28770 0.39430 -0.51400
O 	O 	0.39510 0.33930 0.44980 -0.33100
O 	O 	0.20850 0.49510 0.06710 -0.45200
O 	O 	0.13190 0.49300 0.12460 -0.28900
O 	O 	0.35070 0.50370 0.10240 -0.38700
O 	O 	0.38960 0.51470 0.19970 -0.26700
O 	O 	0.45020 0.30950 0.99690 -0.37400
O 	O 	0.46200 0.36540 0.94040 -0.24800
O 	O 	0.48340 0.28750 0.12950 -0.46800
O 	O 	0.53950 0.32610 0.19300 -0.29400
O 	O 	0.31100 0.13650 0.37360 -0.41200
O 	O 	0.27080 0.08350 0.41670 -0.38700
O 	O 	0.41530 0.15480 0.31360 -0.46400
O 	O 	0.48630 0.11210 0.32690 -0.28100
O 	O 	0.15580 0.95670 0.09510 -0.29100
O 	O 	0.21440 0.96620 0.01560 -0.43700
O 	O 	0.31290 0.91070 0.05630 -0.33900
O 	O 	0.37390 0.89220 0.13360 -0.23500
O 	O 	0.38350 0.17860 0.95180 -0.42400
O 	O 	0.35090 0.14330 0.86590 -0.26900
O 	O 	0.48650 0.15900 0.01590 -0.41000
O 	O 	0.54690 0.10820 0.01570 -0.26100
O 	O 	0.24700 0.30970 0.02300 -0.30500
O 	O 	0.33730 0.29050 0.03100 -0.50500
O 	O 	0.27100 0.26060 0.08920 -0.49200
O 	O 	0.25390 0.15990 0.25500 -0.48300
O 	O 	0.24230 0.19110 0.15810 -0.47900
O 	O 	0.18110 0.14720 0.18890 -0.29000
O 	O 	0.38470 0.25308 0.14340 -0.69000
O 	O 	0.35700 0.19260 0.21660 -0.68700
O 	O 	0.28790 0.25860 0.22500 -0.48600
O 	O 	0.33610 0.18900 0.07540 -0.46600
O 	O 	0.44870 0.18350 0.13560 -0.48400
O 	O 	0.43570 0.23450 0.02660 -0.49000
O 	O 	0.32780 0.21140 0.34560 -0.53000
O 	O 	0.40130 0.25870 0.27870 -0.50000
O 	O 	0.43870 0.27120 0.52000 -0.23800
N 	N 	0.30310 0.33270 0.30460 -0.11500
N 	N 	0.27060 0.45340 0.15710 -0.07300
N 	N 	0.41010 0.34840 0.09930 -0.12100
N 	N 	0.34030 0.09760 0.26600 -0.11900
N 	N 	0.30050 0.98650 0.10380 -0.08700
N 	N 	0.39400 0.11270 0.03210 -0.11600
C 	C 	0.36130 0.34310 0.20460 -0.25800
H 	H 	0.39210 0.35520 0.23170 0.11500
H 	H 	0.36820 0.31400 0.20230 0.08400
C 	C 	0.30450 0.35090 0.23580 0.10200
H 	H 	0.27490 0.33700 0.20820 0.01200
C 	C 	0.28990 0.39530 0.23490 -0.24300
H 	H 	0.25180 0.39930 0.25140 0.10100
H 	H 	0.31710 0.41000 0.26370 0.10200
C 	C 	0.29190 0.41130 0.16570 0.11400
H 	H 	0.26580 0.39420 0.13850 0.00700
C 	C 	0.34890 0.40560 0.13960 -0.24800
H 	H 	0.37770 0.41880 0.16850 0.10900
H 	H 	0.35040 0.41760 0.09560 0.09000
C 	C 	0.36040 0.36080 0.13630 0.11100
H 	H 	0.32690 0.34890 0.11250 0.00200
C 	C 	0.24520 0.33650 0.32760 -0.31400
H 	H 	0.21950 0.34240 0.28970 0.13800
H 	H 	0.24400 0.35940 0.35780 0.12900
C 	C 	0.22370 0.30020 0.36180 0.36900
C 	C 	0.34430 0.35280 0.35130 -0.32400
H 	H 	0.32540 0.37530 0.37230 0.12400
H 	H 	0.37570 0.36370 0.32660 0.14000
C 	C 	0.36800 0.32510 0.40320 0.39200
C 	C 	0.20920 0.45610 0.16340 -0.31900
H 	H 	0.19230 0.42930 0.15750 0.13600
H 	H 	0.20120 0.46550 0.20780 0.12100
C 	C 	0.18300 0.48360 0.11510 0.40100
C 	C 	0.30240 0.48190 0.19490 -0.28500
H 	H 	0.31710 0.46860 0.23510 0.12000
H 	H 	0.27630 0.50310 0.20830 0.10400
C 	C 	0.35040 0.50120 0.16350 0.36000
C 	C 	0.40910 0.36860 0.03630 -0.29600
H 	H 	0.42460 0.39580 0.04200 0.12500
H 	H 	0.36970 0.37100 0.01920 0.12000
C 	C 	0.44250 0.34650 0.98840 0.36000
C 	C 	0.46530 0.35750 0.13560 -0.32200
H 	H 	0.48850 0.37430 0.10760 0.13900
H 	H 	0.45750 0.37300 0.17520 0.13200
C 	C 	0.49800 0.32120 0.15490 0.40600
C 	C 	0.37190 0.10360 0.15150 -0.25100
H 	H 	0.40990 0.09320 0.16330 0.11300
H 	H 	0.37240 0.13280 0.15720 0.08200
C 	C 	0.32820 0.08470 0.19630 0.10600
H 	H 	0.29050 0.09570 0.18250 0.00400
C 	C 	0.32530 0.04000 0.18770 -0.24000
H 	H 	0.29650 0.02890 0.21610 0.09100
H 	H 	0.36200 0.02810 0.20090 0.10000
C 	C 	0.31010 0.02920 0.11570 0.11100
H 	H 	0.27360 0.04280 0.10430 -0.00200
C 	C 	0.35300 0.04660 0.07100 -0.24600
H 	H 	0.34250 0.03990 0.02520 0.09900
H 	H 	0.39050 0.03500 0.08180 0.10000
C 	C 	0.35560 0.09290 0.07920 0.09800
H 	H 	0.31680 0.10340 0.06950 0.01000
C 	C 	0.29710 0.07950 0.30620 -0.31700
H 	H 	0.30630 0.05110 0.31390 0.12600
H 	H 	0.26000 0.08080 0.28240 0.11800
C 	C 	0.29350 0.10050 0.37050 0.39200
C 	C 	0.39820 0.08490 0.29140 -0.30800
H 	H 	0.41660 0.06950 0.25710 0.12800
H 	H 	0.39420 0.06710 0.32940 0.14100
C 	C 	0.43590 0.12020 0.31160 0.39800
C 	C 	0.24710 0.97330 0.12740 -0.28600
H 	H 	0.23240 0.99420 0.15610 0.11500
H 	H 	0.25360 0.94910 0.15420 0.11300
C 	C 	0.20380 0.96440 0.07540 0.37500
C 	C 	0.34700 0.96090 0.13210 -0.25900
H 	H 	0.34490 0.96010 0.18010 0.10900
H 	H 	0.38380 0.97250 0.12150 0.10800
C 	C 	0.34230 0.91780 0.10430 0.35400
C 	C 	0.36790 0.10920 0.96530 -0.30700
H 	H 	0.38760 0.08790 0.94190 0.13200
H 	H 	0.32830 0.10070 0.96890 0.12300
C 	C 	0.36870 0.14600 0.92580 0.38600
C 	C 	0.45030 0.09350 0.03510 -0.28800
H 	H 	0.45010 0.07120 0.00350 0.12500
H 	H 	0.45730 0.08210 0.07920 0.12600
C 	C 	0.49880 0.12190 0.02030 0.37400
C 	C 	0.28450 0.28710 0.04780 0.50900
C 	C 	0.22650 0.16710 0.20090 0.52500
Fe	Fe	0.17516 0.76570 0.19127 1.21800
Fe	Fe	0.08872 0.78225 0.42573 1.23200
Fe	Fe	0.16736 0.66411 0.21227 1.23300
Fe	Fe	0.08828 0.68008 0.45273 1.21900
Fe	Fe	0.18779 0.72399 0.34999 1.23100
Fe	Fe	0.07629 0.72194 0.29272 1.20900
K 	K 	0.15999 0.75515 0.58840 0.65800
K 	K 	0.05423 0.72116 0.09733 0.64700
K 	K 	0.15838 0.08808 0.43480 0.64100
K 	K 	0.18450 0.76770 0.97540 0.48900
K 	K 	0.18810 0.74440 0.00550 0.48400
Li	Li	0.29750 0.04180 0.49510 0.55500
Li	Li	0.21370 0.98450 0.45160 0.55100
O 	O 	0.25010 0.76720 0.14450 -0.49000
O 	O 	0.31900 0.80350 0.10610 -0.37400
O 	O 	0.14020 0.78770 0.10570 -0.51300
O 	O 	0.10490 0.83930 0.05020 -0.32800
O 	O 	0.29150 0.99510 0.43290 -0.45200
O 	O 	0.36810 0.99300 0.37540 -0.29000
O 	O 	0.14930 0.00370 0.39760 -0.38700
O 	O 	0.11040 0.01470 0.30030 -0.26500
O 	O 	0.04980 0.80950 0.50310 -0.37200
O 	O 	0.03800 0.86540 0.55960 -0.24500
O 	O 	0.01660 0.78750 0.37050 -0.46900
O 	O 	0.96050 0.82610 0.30700 -0.30400
O 	O 	0.18900 0.63650 0.12640 -0.41200
O 	O 	0.22920 0.58350 0.08330 -0.38700
O 	O 	0.08470 0.65480 0.18640 -0.46300
O 	O 	0.01370 0.61210 0.17310 -0.27500
O 	O 	0.34420 0.45670 0.40490 -0.29300
O 	O 	0.28560 0.46620 0.48440 -0.43800
O 	O 	0.18710 0.41070 0.44370 -0.33900
O 	O 	0.12610 0.39220 0.36640 -0.23400
O 	O 	0.11650 0.67860 0.54820 -0.42300
O 	O 	0.14910 0.64330 0.63410 -0.26900
O 	O 	0.01350 0.65900 0.48410 -0.41000
O 	O 	0.95310 0.60820 0.48430 -0.27100
O 	O 	0.25300 0.80970 0.47700 -0.30600
O 	O 	0.16270 0.79050 0.46900 -0.50500
O 	O 	0.22900 0.76060 0.41080 -0.49200
O 	O 	0.24610 0.65990 0.24500 -0.48300
O 	O 	0.25770 0.69110 0.34190 -0.48000
O 	O 	0.31890 0.64720 0.31110 -0.29100
O 	O 	0.11530 0.75308 0.35660 -0.69000
O 	O 	0.14300 0.69260 0.28340 -0.68700
O 	O 	0.21210 0.75860 0.27500 -0.48600
O 	O 	0.16390 0.68900 0.42460 -0.46700
O 	O 	0.05130 0.68350 0.36440 -0.48200
O 	O 	0.06430 0.73450 0.47340 -0.48900
O 	O 	0.17220 0.71140 0.15440 -0.53000
O 	O 	0.09870 0.75870 0.22130 -0.49900
O 	O 	0.06130 0.77120 0.98000 -0.23500
N 	N 	0.19690 0.83270 0.19540 -0.11500
N 	N 	0.22940 0.95340 0.34290 -0.07300
N 	N 	0.08990 0.84840 0.40070 -0.12000
N 	N 	0.15970 0.59760 0.23400 -0.11900
N 	N 	0.19950 0.48650 0.39620 -0.08700
N 	N 	0.10600 0.61270 0.46790 -0.11500
C 	C 	0.13870 0.84310 0.29540 -0.25800
H 	H 	0.10790 0.85520 0.26830 0.11600
H 	H 	0.13180 0.81400 0.29770 0.08400
C 	C 	0.19550 0.85090 0.26420 0.10200
H 	H 	0.22510 0.83700 0.29180 0.01200
C 	C 	0.21010 0.89530 0.26510 -0.24300
H 	H 	0.24820 0.89930 0.24860 0.10100
H 	H 	0.18290 0.91000 0.23630 0.10200
C 	C 	0.20810 0.91130 0.33430 0.11400
H 	H 	0.23420 0.89420 0.36150 0.00700
C 	C 	0.15110 0.90560 0.36040 -0.24900
H 	H 	0.12230 0.91880 0.33150 0.10900
H 	H 	0.14960 0.91760 0.40440 0.09000
C 	C 	0.13960 0.86080 0.36370 0.11200
H 	H 	0.17310 0.84890 0.38750 0.00100
C 	C 	0.25480 0.83650 0.17240 -0.31300
H 	H 	0.28050 0.84240 0.21030 0.13800
H 	H 	0.25600 0.85940 0.14220 0.12900
C 	C 	0.27630 0.80020 0.13820 0.36900
C 	C 	0.15570 0.85280 0.14870 -0.32400
H 	H 	0.17460 0.87530 0.12770 0.12500
H 	H 	0.12430 0.86370 0.17340 0.14100
C 	C 	0.13200 0.82510 0.09680 0.39200
C 	C 	0.29080 0.95610 0.33660 -0.31900
H 	H 	0.30770 0.92930 0.34250 0.13500
H 	H 	0.29880 0.96550 0.29220 0.12100
C 	C 	0.31700 0.98360 0.38490 0.40200
C 	C 	0.19760 0.98190 0.30510 -0.28400
H 	H 	0.18290 0.96860 0.26490 0.12000
H 	H 	0.22370 0.00310 0.29170 0.10400
C 	C 	0.14960 0.00120 0.33650 0.35900
C 	C 	0.09090 0.86860 0.46370 -0.29600
H 	H 	0.07540 0.89580 0.45800 0.12600
H 	H 	0.13030 0.87100 0.48080 0.12000
C 	C 	0.05750 0.84650 0.51160 0.36000
C 	C 	0.03470 0.85750 0.36440 -0.32800
H 	H 	0.01150 0.87430 0.39240 0.14300
H 	H 	0.04250 0.87300 0.32480 0.13600
C 	C 	0.00200 0.82120 0.34510 0.41900
C 	C 	0.12810 0.60360 0.34850 -0.25200
H 	H 	0.09010 0.59320 0.33670 0.11400
H 	H 	0.12760 0.63280 0.34280 0.08200
C 	C 	0.17180 0.58470 0.30370 0.10700
H 	H 	0.20950 0.59570 0.31750 0.00400
C 	C 	0.17470 0.54000 0.31230 -0.24100
H 	H 	0.20350 0.52890 0.28390 0.09100
H 	H 	0.13800 0.52810 0.29910 0.10100
C 	C 	0.18990 0.52920 0.38430 0.11300
H 	H 	0.22640 0.54280 0.39570 -0.00300
C 	C 	0.14700 0.54660 0.42900 -0.24700
H 	H 	0.15750 0.53990 0.47480 0.10000
H 	H 	0.10950 0.53500 0.41820 0.10100
C 	C 	0.14440 0.59290 0.42080 0.09800
H 	H 	0.18320 0.60340 0.43050 0.00900
C 	C 	0.20290 0.57950 0.19380 -0.31700
H 	H 	0.19370 0.55110 0.18610 0.12700
H 	H 	0.24000 0.58080 0.21760 0.11800
C 	C 	0.20650 0.60050 0.12950 0.39200
C 	C 	0.10180 0.58490 0.20860 -0.30800
H 	H 	0.08340 0.56950 0.24290 0.12900
H 	H 	0.10580 0.56710 0.17060 0.14200
C 	C 	0.06410 0.62020 0.18840 0.39800
C 	C 	0.25290 0.47330 0.37260 -0.28600
H 	H 	0.26760 0.49420 0.34390 0.11400
H 	H 	0.24640 0.44910 0.34580 0.11300
C 	C 	0.29620 0.46440 0.42460 0.37500
C 	C 	0.15300 0.46090 0.36790 -0.26000
H 	H 	0.15510 0.46010 0.31990 0.11000
H 	H 	0.11620 0.47250 0.37850 0.10900
C 	C 	0.15770 0.41780 0.39570 0.35400
C 	C 	0.13210 0.60920 0.53470 -0.30800
H 	H 	0.11240 0.58790 0.55810 0.13200
H 	H 	0.17170 0.60070 0.53110 0.12300
C 	C 	0.13130 0.64600 0.57420 0.38600
C 	C 	0.04970 0.59350 0.46490 -0.29300
H 	H 	0.04990 0.57120 0.49650 0.12800
H 	H 	0.04270 0.58210 0.42080 0.13000
C 	C 	0.00120 0.62190 0.47970 0.38700
C 	C 	0.21550 0.78710 0.45220 0.50900
C 	C 	0.27350 0.66710 0.29910 0.52500
Fe	Fe	0.67516 0.26570 0.19127 1.21800
Fe	Fe	0.58872 0.28225 0.42573 1.23200
Fe	Fe	0.66736 0.16411 0.21227 1.23300
Fe	Fe	0.58828 0.18008 0.45273 1.21900
Fe	Fe	0.68779 0.22399 0.34999 1.23100
Fe	Fe	0.57629 0.22194 0.29272 1.20800
K 	K 	0.65999 0.25515 0.58840 0.65700
K 	K 	0.55423 0.22116 0.09733 0.64600
K 	K 	0.65838 0.58808 0.43480 0.64000
K 	K 	0.68450 0.26770 0.97540 0.49000
K 	K 	0.68810 0.24440 0.00550 0.48400
Li	Li	0.79750 0.54180 0.49510 0.55500
Li	Li	0.71370 0.48450 0.45160 0.55100
O 	O 	0.75010 0.26720 0.14450 -0.49100
O 	O 	0.81900 0.30350 0.10610 -0.37600
O 	O 	0.64020 0.28770 0.10570 -0.51400
O 	O 	0.60490 0.33930 0.05020 -0.33100
O 	O 	0.79150 0.49510 0.43290 -0.45200
O 	O 	0.86810 0.49300 0.37540 -0.29100
O 	O 	0.64930 0.50370 0.39760 -0.38800
O 	O 	0.61040 0.51470 0.30030 -0.26700
O 	O 	0.54980 0.30950 0.50310 -0.37400
O 	O 	0.53800 0.36540 0.55960 -0.24800
O 	O 	0.51660 0.28750 0.37050 -0.46800
O 	O 	0.46050 0.32610 0.30700 -0.29400
O 	O 	0.68900 0.13650 0.12640 -0.41300
O 	O 	0.72920 0.08350 0.08330 -0.38800
O 	O 	0.58470 0.15480 0.18640 -0.46400
O 	O 	0.51370 0.11210 0.17310 -0.28100
O 	O 	0.84420 0.95670 0.40490 -0.29400
O 	O 	0.78560 0.96620 0.48440 -0.43900
O 	O 	0.68710 0.91070 0.44370 -0.33900
O 	O 	0.62610 0.89220 0.36640 -0.23500
O 	O 	0.61650 0.17860 0.54820 -0.42400
O 	O 	0.64910 0.14330 0.63410 -0.26900
O 	O 	0.51350 0.15900 0.48410 -0.41000
O 	O 	0.45310 0.10820 0.48430 -0.26100
O 	O 	0.75300 0.30970 0.47700 -0.30600
O 	O 	0.66270 0.29050 0.46900 -0.50500
O 	O 	0.72900 0.26060 0.41080 -0.49200
O 	O 	0.74610 0.15990 0.24500 -0.48400
O 	O 	0.75770 0.19110 0.34190 -0.48000
O 	O 	0.81890 0.14720 0.31110 -0.29200
O 	O 	0.61530 0.25308 0.35660 -0.69000
O 	O 	0.64300 0.19260 0.28340 -0.68700
O 	O 	0.71210 0.25860 0.27500 -0.48600
O 	O 	0.66390 0.18900 0.42460 -0.46600
O 	O 	0.55130 0.18350 0.36440 -0.48400
O 	O 	0.56430 0.23450 0.47340 -0.49000
O 	O 	0.67220 0.21140 0.15440 -0.53100
O 	O 	0.59870 0.25870 0.22130 -0.50000
O 	O 	0.56130 0.27120 0.98000 -0.23800
N 	N 	0.69690 0.33270 0.19540 -0.11500
N 	N 	0.72940 0.45340 0.34290 -0.07300
N 	N 	0.58990 0.34840 0.40070 -0.12100
N 	N 	0.65970 0.09760 0.23400 -0.11900
N 	N 	0.69950 0.98650 0.39620 -0.08700
N 	N 	0.60600 0.11270 0.46790 -0.11500
C 	C 	0.63870 0.34310 0.29540 -0.25800
H 	H 	0.60790 0.35520 0.26830 0.11500
H 	H 	0.63180 0.31400 0.29770 0.08400
C 	C 	0.69550 0.35090 0.26420 0.10200
H 	H 	0.72510 0.33700 0.29180 0.01200
C 	C 	0.71010 0.39530 0.26510 -0.24300
H 	H 	0.74820 0.39930 0.24860 0.10100
H 	H 	0.68290 0.41000 0.23630 0.10200
C 	C 	0.70810 0.41130 0.33430 0.11400
H 	H 	0.73420 0.39420 0.36150 0.00700
C 	C 	0.65110 0.40560 0.36040 -0.24800
H 	H 	0.62230 0.41880 0.33150 0.10900
H 	H 	0.64960 0.41760 0.40440 0.09000
C 	C 	0.63960 0.36080 0.36370 0.11100
H 	H 	0.67310 0.34890 0.38750 0.00100
C 	C 	0.75480 0.33650 0.17240 -0.31400
H 	H 	0.78050 0.34240 0.21030 0.13800
H 	H 	0.75600 0.35940 0.14220 0.12900
C 	C 	0.77630 0.30020 0.13820 0.36900
C 	C 	0.65570 0.35280 0.14870 -0.32400
H 	H 	0.67460 0.37530 0.12770 0.12400
H 	H 	0.62430 0.36370 0.17340 0.14000
C 	C 	0.63200 0.32510 0.09680 0.39200
C 	C 	0.79080 0.45610 0.33660 -0.31900
H 	H 	0.80770 0.42930 0.34250 0.13500
H 	H 	0.79880 0.46550 0.29220 0.12100
C 	C 	0.81700 0.48360 0.38490 0.40200
C 	C 	0.69760 0.48190 0.30510 -0.28500
H 	H 	0.68290 0.46860 0.26490 0.12000
H 	H 	0.72370 0.50310 0.29170 0.10400
C 	C 	0.64960 0.50120 0.33650 0.36000
C 	C 	0.59090 0.36860 0.46370 -0.29600
H 	H 	0.57540 0.39580 0.45800 0.12500
H 	H 	0.63030 0.37100 0.48080 0.12000
C 	C 	0.55750 0.34650 0.51160 0.36000
C 	C 	0.53470 0.35750 0.36440 -0.32200
H 	H 	0.51150 0.37430 0.39240 0.13900
H 	H 	0.54250 0.37300 0.32480 0.13200
C 	C 	0.50200 0.32120 0.34510 0.40600
C 	C 	0.62810 0.10360 0.34850 -0.25100
H 	H 	0.59010 0.09320 0.33670 0.11300
H 	H 	0.62760 0.13280 0.34280 0.08200
C 	C 	0.67180 0.08470 0.30370 0.10600
H 	H 	0.70950 0.09570 0.31750 0.00400
C 	C 	0.67470 0.04000 0.31230 -0.24000
H 	H 	0.70350 0.02890 0.28390 0.09100
H 	H 	0.63800 0.02810 0.29910 0.10000
C 	C 	0.68990 0.02920 0.38430 0.11200
H 	H 	0.72640 0.04280 0.39570 -0.00200
C 	C 	0.64700 0.04660 0.42900 -0.24600
H 	H 	0.65750 0.03990 0.47480 0.09900
H 	H 	0.60950 0.03500 0.41820 0.10000
C 	C 	0.64440 0.09290 0.42080 0.09800
H 	H 	0.68320 0.10340 0.43050 0.01000
C 	C 	0.70290 0.07950 0.19380 -0.31600
H 	H 	0.69370 0.05110 0.18610 0.12600
H 	H 	0.74000 0.08080 0.21760 0.11700
C 	C 	0.70650 0.10050 0.12950 0.39200
C 	C 	0.60180 0.08490 0.20860 -0.30800
H 	H 	0.58340 0.06950 0.24290 0.12800
H 	H 	0.60580 0.06710 0.17060 0.14100
C 	C 	0.56410 0.12020 0.18840 0.39800
C 	C 	0.75290 0.97330 0.37260 -0.28600
H 	H 	0.76760 0.99420 0.34390 0.11400
H 	H 	0.74640 0.94910 0.34580 0.11300
C 	C 	0.79620 0.96440 0.42460 0.37500
C 	C 	0.65300 0.96090 0.36790 -0.25900
H 	H 	0.65510 0.96010 0.31990 0.10900
H 	H 	0.61620 0.97250 0.37850 0.10700
C 	C 	0.65770 0.91780 0.39570 0.35400
C 	C 	0.63210 0.10920 0.53470 -0.30800
H 	H 	0.61240 0.08790 0.55810 0.13200
H 	H 	0.67170 0.10070 0.53110 0.12300
C 	C 	0.63130 0.14600 0.57420 0.38600
C 	C 	0.54970 0.09350 0.46490 -0.28800
H 	H 	0.54990 0.07120 0.49650 0.12500
H 	H 	0.54270 0.08210 0.42080 0.12600
C 	C 	0.50120 0.12190 0.47970 0.37400
C 	C 	0.71550 0.28710 0.45220 0.50900
C 	C 	0.77350 0.16710 0.29910 0.52500
Fe	Fe	0.17516 0.23430 0.69127 1.21800
Fe	Fe	0.08872 0.21775 0.92573 1.23200
Fe	Fe	0.16736 0.33589 0.71227 1.23300
Fe	Fe	0.08828 0.31992 0.95273 1.21900
Fe	Fe	0.18779 0.27601 0.84999 1.23100
Fe	Fe	0.07629 0.27806 0.79272 1.20900
K 	K 	0.15999 0.24485 0.08840 0.65800
K 	K 	0.05423 0.27884 0.59733 0.64700
K 	K 	0.15838 0.91192 0.93480 0.64000
K 	K 	0.18450 0.23230 0.47540 0.49000
K 	K 	0.18810 0.25560 0.50550 0.48400
Li	Li	0.29750 0.95820 0.99510 0.55500
Li	Li	0.21370 0.01550 0.95160 0.55100
O 	O 	0.25010 0.23280 0.64450 -0.49100
O 	O 	0.31900 0.19650 0.60610 -0.37500
O 	O 	0.14020 0.21230 0.60570 -0.51300
O 	O 	0.10490 0.16070 0.55020 -0.32900
O 	O 	0.29150 0.00490 0.93290 -0.45200
O 	O 	0.36810 0.00700 0.87540 -0.29000
O 	O 	0.14930 0.99630 0.89760 -0.38700
O 	O 	0.11040 0.98530 0.80030 -0.26500
O 	O 	0.04980 0.19050 0.00310 -0.37200
O 	O 	0.03800 0.13460 0.05960 -0.24500
O 	O 	0.01660 0.21250 0.87050 -0.46900
O 	O 	0.96050 0.17390 0.80700 -0.30400
O 	O 	0.18900 0.36350 0.62640 -0.41200
O 	O 	0.22920 0.41650 0.58330 -0.38700
O 	O 	0.08470 0.34520 0.68640 -0.46300
O 	O 	0.01370 0.38790 0.67310 -0.27600
O 	O 	0.34420 0.54330 0.90490 -0.29300
O 	O 	0.28560 0.53380 0.98440 -0.43800
O 	O 	0.18710 0.58930 0.94370 -0.33900
O 	O 	0.12610 0.60780 0.86640 -0.23400
O 	O 	0.11650 0.32140 0.04820 -0.42300
O 	O 	0.14910 0.35670 0.13410 -0.26900
O 	O 	0.01350 0.34100 0.98410 -0.41000
O 	O 	0.95310 0.39180 0.98430 -0.27000
O 	O 	0.25300 0.19030 0.97700 -0.30600
O 	O 	0.16270 0.20950 0.96900 -0.50500
O 	O 	0.22900 0.23940 0.91080 -0.49200
O 	O 	0.24610 0.34010 0.74500 -0.48300
O 	O 	0.25770 0.30890 0.84190 -0.48000
O 	O 	0.31890 0.35280 0.81110 -0.29100
O 	O 	0.11530 0.24692 0.85660 -0.69000
O 	O 	0.14300 0.30740 0.78340 -0.68700
O 	O 	0.21210 0.24140 0.77500 -0.48600
O 	O 	0.16390 0.31100 0.92460 -0.46700
O 	O 	0.05130 0.31650 0.86440 -0.48200
O 	O 	0.06430 0.26550 0.97340 -0.48900
O 	O 	0.17220 0.28860 0.65440 -0.53000
O 	O 	0.09870 0.24130 0.72130 -0.49900
O 	O 	0.06130 0.22880 0.48000 -0.23400
N 	N 	0.19690 0.16730 0.69540 -0.11500
N 	N 	0.22940 0.04660 0.84290 -0.07300
N 	N 	0.08990 0.15160 0.90070 -0.12000
N 	N 	0.15970 0.40240 0.73400 -0.11900
N 	N 	0.19950 0.51350 0.89620 -0.08700
N 	N 	0.10600 0.38730 0.96790 -0.11500
C 	C 	0.13870 0.15690 0.79540 -0.25800
H 	H 	0.10790 0.14480 0.76830 0.11600
H 	H 	0.13180 0.18600 0.79770 0.08400
C 	C 	0.19550 0.14910 0.76420 0.10200
H 	H 	0.22510 0.16300 0.79180 0.01200
C 	C 	0.21010 0.10470 0.76510 -0.24300
H 	H 	0.24820 0.10070 0.74860 0.10100
H 	H 	0.18290 0.09000 0.73630 0.10200
C 	C 	0.20810 0.08870 0.83430 0.11400
H 	H 	0.23420 0.10580 0.86150 0.00700
C 	C 	0.15110 0.09440 0.86040 -0.24900
H 	H 	0.12230 0.08120 0.83150 0.10900
H 	H 	0.14960 0.08240 0.90440 0.09000
C 	C 	0.13960 0.13920 0.86370 0.11200
H 	H 	0.17310 0.15110 0.88750 0.00100
C 	C 	0.25480 0.16350 0.67240 -0.31400
H 	H 	0.28050 0.15760 0.71030 0.13800
H 	H 	0.25600 0.14060 0.64220 0.12900
C 	C 	0.27630 0.19980 0.63820 0.36900
C 	C 	0.15570 0.14720 0.64870 -0.32400
H 	H 	0.17460 0.12470 0.62770 0.12400
H 	H 	0.12430 0.13630 0.67340 0.14000
C 	C 	0.13200 0.17490 0.59680 0.39200
C 	C 	0.29080 0.04390 0.83660 -0.31900
H 	H 	0.30770 0.07070 0.84250 0.13500
H 	H 	0.29880 0.03450 0.79220 0.12100
C 	C 	0.31700 0.01640 0.88490 0.40200
C 	C 	0.19760 0.01810 0.80510 -0.28300
H 	H 	0.18290 0.03140 0.76490 0.11900
H 	H 	0.22370 0.99690 0.79170 0.10400
C 	C 	0.14960 0.99880 0.83650 0.35900
C 	C 	0.09090 0.13140 0.96370 -0.29700
H 	H 	0.07540 0.10420 0.95800 0.12600
H 	H 	0.13030 0.12900 0.98080 0.12000
C 	C 	0.05750 0.15350 0.01160 0.36100
C 	C 	0.03470 0.14250 0.86440 -0.32800
H 	H 	0.01150 0.12570 0.89240 0.14300
H 	H 	0.04250 0.12700 0.82480 0.13500
C 	C 	0.00200 0.17880 0.84510 0.41800
C 	C 	0.12810 0.39640 0.84850 -0.25200
H 	H 	0.09010 0.40680 0.83670 0.11400
H 	H 	0.12760 0.36720 0.84280 0.08200
C 	C 	0.17180 0.41530 0.80370 0.10700
H 	H 	0.20950 0.40430 0.81750 0.00400
C 	C 	0.17470 0.46000 0.81230 -0.24100
H 	H 	0.20350 0.47110 0.78390 0.09100
H 	H 	0.13800 0.47190 0.79910 0.10100
C 	C 	0.18990 0.47080 0.88430 0.11200
H 	H 	0.22640 0.45720 0.89570 -0.00300
C 	C 	0.14700 0.45340 0.92900 -0.24700
H 	H 	0.15750 0.46010 0.97480 0.09900
H 	H 	0.10950 0.46500 0.91820 0.10100
C 	C 	0.14440 0.40710 0.92080 0.09800
H 	H 	0.18320 0.39660 0.93050 0.00900
C 	C 	0.20290 0.42050 0.69380 -0.31700
H 	H 	0.19370 0.44890 0.68610 0.12700
H 	H 	0.24000 0.41920 0.71760 0.11800
C 	C 	0.20650 0.39950 0.62950 0.39200
C 	C 	0.10180 0.41510 0.70860 -0.30800
H 	H 	0.08340 0.43050 0.74290 0.12900
H 	H 	0.10580 0.43290 0.67060 0.14200
C 	C 	0.06410 0.37980 0.68840 0.39800
C 	C 	0.25290 0.52670 0.87260 -0.28600
H 	H 	0.26760 0.50580 0.84390 0.11400
H 	H 	0.24640 0.55090 0.84580 0.11300
C 	C 	0.29620 0.53560 0.92460 0.37500
C 	C 	0.15300 0.53910 0.86790 -0.26000
H 	H 	0.15510 0.53990 0.81990 0.10900
H 	H 	0.11620 0.52750 0.87850 0.10800
C 	C 	0.15770 0.58220 0.89570 0.35400
C 	C 	0.13210 0.39080 0.03470 -0.30700
H 	H 	0.11240 0.41210 0.05810 0.13200
H 	H 	0.17170 0.39930 0.03110 0.12300
C 	C 	0.13130 0.35400 0.07420 0.38600
C 	C 	0.04970 0.40650 0.96490 -0.29300
H 	H 	0.04990 0.42880 0.99650 0.12700
H 	H 	0.04270 0.41790 0.92080 0.13000
C 	C 	0.00120 0.37810 0.97970 0.38600
C 	C 	0.21550 0.21290 0.95220 0.50900
C 	C 	0.27350 0.33290 0.79910 0.52500
Fe	Fe	0.67516 0.73430 0.69127 1.21800
Fe	Fe	0.58872 0.71775 0.92573 1.23200
Fe	Fe	0.66736 0.83589 0.71227 1.23300
Fe	Fe	0.58828 0.81992 0.95273 1.21900
Fe	Fe	0.68779 0.77601 0.84999 1.23100
Fe	Fe	0.57629 0.77806 0.79272 1.20800
K 	K 	0.65999 0.74485 0.08840 0.65800
K 	K 	0.55423 0.77884 0.59733 0.64600
K 	K 	0.65838 0.41192 0.93480 0.64000
K 	K 	0.68450 0.73230 0.47540 0.48900
K 	K 	0.68810 0.75560 0.50550 0.48400
Li	Li	0.79750 0.45820 0.99510 0.55500
Li	Li	0.71370 0.51550 0.95160 0.55100
O 	O 	0.75010 0.73280 0.64450 -0.49100
O 	O 	0.81900 0.69650 0.60610 -0.37500
O 	O 	0.64020 0.71230 0.60570 -0.51400
O 	O 	0.60490 0.66070 0.55020 -0.33100
O 	O 	0.79150 0.50490 0.93290 -0.45200
O 	O 	0.86810 0.50700 0.87540 -0.29100
O 	O 	0.64930 0.49630 0.89760 -0.38700
O 	O 	0.61040 0.48530 0.80030 -0.26700
O 	O 	0.54980 0.69050 0.00310 -0.37400
O 	O 	0.53800 0.63460 0.05960 -0.24800
O 	O 	0.51660 0.71250 0.87050 -0.46800
O 	O 	0.46050 0.67390 0.80700 -0.29400
O 	O 	0.68900 0.86350 0.62640 -0.41300
O 	O 	0.72920 0.91650 0.58330 -0.38700
O 	O 	0.58470 0.84520 0.68640 -0.46400
O 	O 	0.51370 0.88790 0.67310 -0.28100
O 	O 	0.84420 0.04330 0.90490 -0.29400
O 	O 	0.78560 0.03380 0.98440 -0.43800
O 	O 	0.68710 0.08930 0.94370 -0.33900
O 	O 	0.62610 0.10780 0.86640 -0.23500
O 	O 	0.61650 0.82140 0.04820 -0.42300
O 	O 	0.64910 0.85670 0.13410 -0.26900
O 	O 	0.51350 0.84100 0.98410 -0.41000
O 	O 	0.45310 0.89180 0.98430 -0.26100
O 	O 	0.75300 0.69030 0.97700 -0.30500
O 	O 	0.66270 0.70950 0.96900 -0.50500
O 	O 	0.72900 0.73940 0.91080 -0.49200
O 	O 	0.74610 0.84010 0.74500 -0.48400
O 	O 	0.75770 0.80890 0.84190 -0.48000
O 	O 	0.81890 0.85280 0.81110 -0.29200
O 	O 	0.61530 0.74692 0.85660 -0.69000
O 	O 	0.64300 0.80740 0.78340 -0.68700
O 	O 	0.71210 0.74140 0.77500 -0.48600
O 	O 	0.66390 0.81100 0.92460 -0.46600
O 	O 	0.55130 0.81650 0.86440 -0.48400
O 	O 	0.56430 0.76550 0.97340 -0.49000
O 	O 	0.67220 0.78860 0.65440 -0.53100
O 	O 	0.59870 0.74130 0.72130 -0.50000
O 	O 	0.56130 0.72880 0.48000 -0.23800
N 	N 	0.69690 0.66730 0.69540 -0.11500
N 	N 	0.72940 0.54660 0.84290 -0.07300
N 	N 	0.58990 0.65160 0.90070 -0.12100
N 	N 	0.65970 0.90240 0.73400 -0.11900
N 	N 	0.69950 0.01350 0.89620 -0.08700
N 	N 	0.60600 0.88730 0.96790 -0.11600
C 	C 	0.63870 0.65690 0.79540 -0.25800
H 	H 	0.60790 0.64480 0.76830 0.11500
H 	H 	0.63180 0.68600 0.79770 0.08400
C 	C 	0.69550 0.64910 0.76420 0.10200
H 	H 	0.72510 0.66300 0.79180 0.01200
C 	C 	0.71010 0.60470 0.76510 -0.24300
H 	H 	0.74820 0.60070 0.74860 0.10100
H 	H 	0.68290 0.59000 0.73630 0.10200
C 	C 	0.70810 0.58870 0.83430 0.11400
H 	H 	0.73420 0.60580 0.86150 0.00700
C 	C 	0.65110 0.59440 0.86040 -0.24800
H 	H 	0.62230 0.58120 0.83150 0.10900
H 	H 	0.64960 0.58240 0.90440 0.09000
C 	C 	0.63960 0.63920 0.86370 0.11100
H 	H 	0.67310 0.65110 0.88750 0.00100
C 	C 	0.75480 0.66350 0.67240 -0.31400
H 	H 	0.78050 0.65760 0.71030 0.13800
H 	H 	0.75600 0.64060 0.64220 0.12900
C 	C 	0.77630 0.69980 0.63820 0.36900
C 	C 	0.65570 0.64720 0.64870 -0.32400
H 	H 	0.67460 0.62470 0.62770 0.12400
H 	H 	0.62430 0.63630 0.67340 0.14000
C 	C 	0.63200 0.67490 0.59680 0.39200
C 	C 	0.79080 0.54390 0.83660 -0.31900
H 	H 	0.80770 0.57070 0.84250 0.13500
H 	H 	0.79880 0.53450 0.79220 0.12100
C 	C 	0.81700 0.51640 0.88490 0.40200
C 	C 	0.69760 0.51810 0.80510 -0.28500
H 	H 	0.68290 0.53140 0.76490 0.12000
H 	H 	0.72370 0.49690 0.79170 0.10400
C 	C 	0.64960 0.49880 0.83650 0.36000
C 	C 	0.59090 0.63140 0.96370 -0.29600
H 	H 	0.57540 0.60420 0.95800 0.12500
H 	H 	0.63030 0.62900 0.98080 0.12000
C 	C 	0.55750 0.65350 0.01160 0.36000
C 	C 	0.53470 0.64250 0.86440 -0.32200
H 	H 	0.51150 0.62570 0.89240 0.13900
H 	H 	0.54250 0.62700 0.82480 0.13200
C 	C 	0.50200 0.67880 0.84510 0.40600
C 	C 	0.62810 0.89640 0.84850 -0.25100
H 	H 	0.59010 0.90680 0.83670 0.11300
H 	H 	0.62760 0.86720 0.84280 0.08200
C 	C 	0.67180 0.91530 0.80370 0.10600
H 	H 	0.70950 0.90430 0.81750 0.00400
C 	C 	0.67470 0.96000 0.81230 -0.24000
H 	H 	0.70350 0.97110 0.78390 0.09100
H 	H 	0.63800 0.97190 0.79910 0.10000
C 	C 	0.68990 0.97080 0.88430 0.11100
H 	H 	0.72640 0.95720 0.89570 -0.00200
C 	C 	0.64700 0.95340 0.92900 -0.24600
H 	H 	0.65750 0.96010 0.97480 0.09900
H 	H 	0.60950 0.96500 0.91820 0.10000
C 	C 	0.64440 0.90710 0.92080 0.09800
H 	H 	0.68320 0.89660 0.93050 0.01000
C 	C 	0.70290 0.92050 0.69380 -0.31600
H 	H 	0.69370 0.94890 0.68610 0.12600
H 	H 	0.74000 0.91920 0.71760 0.11700
C 	C 	0.70650 0.89950 0.62950 0.39200
C 	C 	0.60180 0.91510 0.70860 -0.30800
H 	H 	0.58340 0.93050 0.74290 0.12800
H 	H 	0.60580 0.93290 0.67060 0.14100
C 	C 	0.56410 0.87980 0.68840 0.39800
C 	C 	0.75290 0.02670 0.87260 -0.28600
H 	H 	0.76760 0.00580 0.84390 0.11400
H 	H 	0.74640 0.05090 0.84580 0.11300
C 	C 	0.79620 0.03560 0.92460 0.37500
C 	C 	0.65300 0.03910 0.86790 -0.25900
H 	H 	0.65510 0.03990 0.81990 0.10900
H 	H 	0.61620 0.02750 0.87850 0.10800
C 	C 	0.65770 0.08220 0.89570 0.35400
C 	C 	0.63210 0.89080 0.03470 -0.30700
H 	H 	0.61240 0.91210 0.05810 0.13200
H 	H 	0.67170 0.89930 0.03110 0.12300
C 	C 	0.63130 0.85400 0.07420 0.38600
C 	C 	0.54970 0.90650 0.96490 -0.28800
H 	H 	0.54990 0.92880 0.99650 0.12400
H 	H 	0.54270 0.91790 0.92080 0.12600
C 	C 	0.50120 0.87810 0.97970 0.37400
C 	C 	0.71550 0.71290 0.95220 0.50900
C 	C 	0.77350 0.83290 0.79910 0.52500
Fe	Fe	0.82484 0.23430 0.80873 1.21800
Fe	Fe	0.91128 0.21775 0.57427 1.23200
Fe	Fe	0.83264 0.33589 0.78773 1.23300
Fe	Fe	0.91172 0.31992 0.54727 1.21900
Fe	Fe	0.81221 0.27601 0.65001 1.23100
Fe	Fe	0.92371 0.27806 0.70728 1.20600
K 	K 	0.84001 0.24485 0.41160 0.65700
K 	K 	0.94577 0.27884 0.90267 0.64400
K 	K 	0.84162 0.91192 0.56520 0.64000
K 	K 	0.81550 0.23230 0.02460 0.48900
K 	K 	0.81190 0.25560 0.99450 0.48400
Li	Li	0.70250 0.95820 0.50490 0.55500
Li	Li	0.78630 0.01550 0.54840 0.55100
O 	O 	0.74990 0.23280 0.85550 -0.49000
O 	O 	0.68100 0.19650 0.89390 -0.37400
O 	O 	0.85980 0.21230 0.89430 -0.51400
O 	O 	0.89510 0.16070 0.94980 -0.33300
O 	O 	0.70850 0.00490 0.56710 -0.45200
O 	O 	0.63190 0.00700 0.62460 -0.29000
O 	O 	0.85070 0.99630 0.60240 -0.38900
O 	O 	0.88960 0.98530 0.69970 -0.26900
O 	O 	0.95020 0.19050 0.49690 -0.37600
O 	O 	0.96200 0.13460 0.44040 -0.25100
O 	O 	0.98340 0.21250 0.62950 -0.46900
O 	O 	0.03950 0.17390 0.69300 -0.28500
O 	O 	0.81100 0.36350 0.87360 -0.41300
O 	O 	0.77080 0.41650 0.91670 -0.38700
O 	O 	0.91530 0.34520 0.81360 -0.46600
O 	O 	0.98630 0.38790 0.82690 -0.28700
O 	O 	0.65580 0.54330 0.59510 -0.29300
O 	O 	0.71440 0.53380 0.51560 -0.43800
O 	O 	0.81290 0.58930 0.55630 -0.33900
O 	O 	0.87390 0.60780 0.63360 -0.23700
O 	O 	0.88350 0.32140 0.45180 -0.42400
O 	O 	0.85090 0.35670 0.36590 -0.27000
O 	O 	0.98650 0.34100 0.51590 -0.41000
O 	O 	0.04690 0.39180 0.51570 -0.25100
O 	O 	0.74700 0.19030 0.52300 -0.30600
O 	O 	0.83730 0.20950 0.53100 -0.50500
O 	O 	0.77100 0.23940 0.58920 -0.49200
O 	O 	0.75390 0.34010 0.75500 -0.48300
O 	O 	0.74230 0.30890 0.65810 -0.48000
O 	O 	0.68110 0.35280 0.68890 -0.29100
O 	O 	0.88470 0.24692 0.64340 -0.69000
O 	O 	0.85700 0.30740 0.71660 -0.68800
O 	O 	0.78790 0.24140 0.72500 -0.48600
O 	O 	0.83610 0.31100 0.57540 -0.46600
O 	O 	0.94870 0.31650 0.63560 -0.48700
O 	O 	0.93570 0.26550 0.52660 -0.49200
O 	O 	0.82780 0.28860 0.84560 -0.53100
O 	O 	0.90130 0.24130 0.77870 -0.50100
O 	O 	0.93870 0.22880 0.02000 -0.24300
N 	N 	0.80310 0.16730 0.80460 -0.11500
N 	N 	0.77060 0.04660 0.65710 -0.07300
N 	N 	0.91010 0.15160 0.59930 -0.12100
N 	N 	0.84030 0.40240 0.76600 -0.11900
N 	N 	0.80050 0.51350 0.60380 -0.08700
N 	N 	0.89400 0.38730 0.53210 -0.11600
C 	C 	0.86130 0.15690 0.70460 -0.25800
H 	H 	0.89210 0.14480 0.73170 0.11500
H 	H 	0.86820 0.18600 0.70230 0.08400
C 	C 	0.80450 0.14910 0.73580 0.10100
H 	H 	0.77490 0.16300 0.70820 0.01200
C 	C 	0.78990 0.10470 0.73490 -0.24300
H 	H 	0.75180 0.10070 0.75140 0.10100
H 	H 	0.81710 0.09000 0.76370 0.10200
C 	C 	0.79190 0.08870 0.66570 0.11300
H 	H 	0.76580 0.10580 0.63850 0.00700
C 	C 	0.84890 0.09440 0.63960 -0.24800
H 	H 	0.87770 0.08120 0.66850 0.10800
H 	H 	0.85040 0.08240 0.59560 0.08900
C 	C 	0.86040 0.13920 0.63630 0.11100
H 	H 	0.82690 0.15110 0.61250 0.00200
C 	C 	0.74520 0.16350 0.82760 -0.31300
H 	H 	0.71950 0.15760 0.78970 0.13800
H 	H 	0.74400 0.14060 0.85780 0.12900
C 	C 	0.72370 0.19980 0.86180 0.36900
C 	C 	0.84430 0.14720 0.85130 -0.32400
H 	H 	0.82540 0.12470 0.87230 0.12400
H 	H 	0.87570 0.13630 0.82660 0.13900
C 	C 	0.86800 0.17490 0.90320 0.39200
C 	C 	0.70920 0.04390 0.66340 -0.31900
H 	H 	0.69230 0.07070 0.65750 0.13600
H 	H 	0.70120 0.03450 0.70780 0.12100
C 	C 	0.68300 0.01640 0.61510 0.40200
C 	C 	0.80240 0.01810 0.69490 -0.28400
H 	H 	0.81710 0.03140 0.73510 0.11900
H 	H 	0.77630 0.99690 0.70830 0.10400
C 	C 	0.85040 0.99880 0.66350 0.36000
C 	C 	0.90910 0.13140 0.53630 -0.29600
H 	H 	0.92460 0.10420 0.54200 0.12400
H 	H 	0.86970 0.12900 0.51920 0.12000
C 	C 	0.94250 0.15350 0.48840 0.36000
C 	C 	0.96530 0.14250 0.63560 -0.31500
H 	H 	0.98850 0.12570 0.60760 0.13500
H 	H 	0.95750 0.12700 0.67520 0.12900
C 	C 	0.99800 0.17880 0.65490 0.39300
C 	C 	0.87190 0.39640 0.65150 -0.25000
H 	H 	0.90990 0.40680 0.66330 0.11100
H 	H 	0.87240 0.36720 0.65720 0.08100
C 	C 	0.82820 0.41530 0.69630 0.10500
H 	H 	0.79050 0.40430 0.68250 0.00400
C 	C 	0.82530 0.46000 0.68770 -0.23900
H 	H 	0.79650 0.47110 0.71610 0.09100
H 	H 	0.86200 0.47190 0.70090 0.10000
C 	C 	0.81010 0.47080 0.61570 0.11100
H 	H 	0.77360 0.45720 0.60430 -0.00200
C 	C 	0.85300 0.45340 0.57100 -0.24600
H 	H 	0.84250 0.46010 0.52520 0.09900
H 	H 	0.89050 0.46500 0.58180 0.09900
C 	C 	0.85560 0.40710 0.57920 0.09700
H 	H 	0.81680 0.39660 0.56950 0.01000
C 	C 	0.79710 0.42050 0.80620 -0.31700
H 	H 	0.80630 0.44890 0.81390 0.12600
H 	H 	0.76000 0.41920 0.78240 0.11800
C 	C 	0.79350 0.39950 0.87050 0.39200
C 	C 	0.89820 0.41510 0.79140 -0.30800
H 	H 	0.91660 0.43050 0.75710 0.12700
H 	H 	0.89420 0.43290 0.82940 0.14100
C 	C 	0.93590 0.37980 0.81160 0.39800
C 	C 	0.74710 0.52670 0.62740 -0.28600
H 	H 	0.73240 0.50580 0.65610 0.11400
H 	H 	0.75360 0.55090 0.65420 0.11300
C 	C 	0.70380 0.53560 0.57540 0.37500
C 	C 	0.84700 0.53910 0.63210 -0.25900
H 	H 	0.84490 0.53990 0.68010 0.10800
H 	H 	0.88380 0.52750 0.62150 0.10600
C 	C 	0.84230 0.58220 0.60430 0.35400
C 	C 	0.86790 0.39080 0.46530 -0.30700
H 	H 	0.88760 0.41210 0.44190 0.13100
H 	H 	0.82830 0.39930 0.46890 0.12300
C 	C 	0.86870 0.35400 0.42580 0.38500
C 	C 	0.95030 0.40650 0.53510 -0.28200
H 	H 	0.95010 0.42880 0.50350 0.12100
H 	H 	0.95730 0.41790 0.57920 0.12200
C 	C 	0.99880 0.37810 0.52030 0.36100
C 	C 	0.78450 0.21290 0.54780 0.50900
C 	C 	0.72650 0.33290 0.70090 0.52500
Fe	Fe	0.32484 0.73430 0.80873 1.21800
Fe	Fe	0.41128 0.71775 0.57427 1.23200
Fe	Fe	0.33264 0.83589 0.78773 1.23300
Fe	Fe	0.41172 0.81992 0.54727 1.21900
Fe	Fe	0.31221 0.77601 0.65001 1.23100
Fe	Fe	0.42371 0.77806 0.70728 1.20800
K 	K 	0.34001 0.74485 0.41160 0.65700
K 	K 	0.44577 0.77884 0.90267 0.64600
K 	K 	0.34162 0.41192 0.56520 0.64000
K 	K 	0.31550 0.73230 0.02460 0.49000
K 	K 	0.31190 0.75560 0.99450 0.48400
Li	Li	0.20250 0.45820 0.50490 0.55500
Li	Li	0.28630 0.51550 0.54840 0.55100
O 	O 	0.24990 0.73280 0.85550 -0.49000
O 	O 	0.18100 0.69650 0.89390 -0.37400
O 	O 	0.35980 0.71230 0.89430 -0.51400
O 	O 	0.39510 0.66070 0.94980 -0.33100
O 	O 	0.20850 0.50490 0.56710 -0.45200
O 	O 	0.13190 0.50700 0.62460 -0.28900
O 	O 	0.35070 0.49630 0.60240 -0.38800
O 	O 	0.38960 0.48530 0.69970 -0.26700
O 	O 	0.45020 0.69050 0.49690 -0.37400
O 	O 	0.46200 0.63460 0.44040 -0.24800
O 	O 	0.48340 0.71250 0.62950 -0.46800
O 	O 	0.53950 0.67390 0.69300 -0.29400
O 	O 	0.31100 0.86350 0.87360 -0.41200
O 	O 	0.27080 0.91650 0.91670 -0.38700
O 	O 	0.41530 0.84520 0.81360 -0.46400
O 	O 	0.48630 0.88790 0.82690 -0.28100
O 	O 	0.15580 0.04330 0.59510 -0.29100
O 	O 	0.21440 0.03380 0.51560 -0.43800
O 	O 	0.31290 0.08930 0.55630 -0.33900
O 	O 	0.37390 0.10780 0.63360 -0.23500
O 	O 	0.38350 0.82140 0.45180 -0.42400
O 	O 	0.35090 0.85670 0.36590 -0.26900
O 	O 	0.48650 0.84100 0.51590 -0.41000
O 	O 	0.54690 0.89180 0.51570 -0.26100
O 	O 	0.24700 0.69030 0.52300 -0.30600
O 	O 	0.33730 0.70950 0.53100 -0.50500
O 	O 	0.27100 0.73940 0.58920 -0.49200
O 	O 	0.25390 0.84010 0.75500 -0.48300
O 	O 	0.24230 0.80890 0.65810 -0.47900
O 	O 	0.18110 0.85280 0.68890 -0.29000
O 	O 	0.38470 0.74692 0.64340 -0.69000
O 	O 	0.35700 0.80740 0.71660 -0.68700
O 	O 	0.28790 0.74140 0.72500 -0.48600
O 	O 	0.33610 0.81100 0.57540 -0.46600
O 	O 	0.44870 0.81650 0.63560 -0.48400
O 	O 	0.43570 0.76550 0.52660 -0.49000
O 	O 	0.32780 0.78860 0.84560 -0.53000
O 	O 	0.40130 0.74130 0.77870 -0.50000
O 	O 	0.43870 0.72880 0.02000 -0.23800
N 	N 	0.30310 0.66730 0.80460 -0.11500
N 	N 	0.27060 0.54660 0.65710 -0.07300
N 	N 	0.41010 0.65160 0.59930 -0.12100
N 	N 	0.34030 0.90240 0.76600 -0.11900
N 	N 	0.30050 0.01350 0.60380 -0.08700
N 	N 	0.39400 0.88730 0.53210 -0.11500
C 	C 	0.36130 0.65690 0.70460 -0.25800
H 	H 	0.39210 0.64480 0.73170 0.11500
H 	H 	0.36820 0.68600 0.70230 0.08400
C 	C 	0.30450 0.64910 0.73580 0.10200
H 	H 	0.27490 0.66300 0.70820 0.01200
C 	C 	0.28990 0.60470 0.73490 -0.24300
H 	H 	0.25180 0.60070 0.75140 0.10100
H 	H 	0.31710 0.59000 0.76370 0.10200
C 	C 	0.29190 0.58870 0.66570 0.11400
H 	H 	0.26580 0.60580 0.63850 0.00700
C 	C 	0.34890 0.59440 0.63960 -0.24800
H 	H 	0.37770 0.58120 0.66850 0.10900
H 	H 	0.35040 0.58240 0.59560 0.09000
C 	C 	0.36040 0.63920 0.63630 0.11100
H 	H 	0.32690 0.65110 0.61250 0.00100
C 	C 	0.24520 0.66350 0.82760 -0.31400
H 	H 	0.21950 0.65760 0.78970 0.13800
H 	H 	0.24400 0.64060 0.85780 0.12900
C 	C 	0.22370 0.69980 0.86180 0.36900
C 	C 	0.34430 0.64720 0.85130 -0.32400
H 	H 	0.32540 0.62470 0.87230 0.12400
H 	H 	0.37570 0.63630 0.82660 0.14000
C 	C 	0.36800 0.67490 0.90320 0.39200
C 	C 	0.20920 0.54390 0.66340 -0.31900
H 	H 	0.19230 0.57070 0.65750 0.13600
H 	H 	0.20120 0.53450 0.70780 0.12100
C 	C 	0.18300 0.51640 0.61510 0.40200
C 	C 	0.30240 0.51810 0.69490 -0.28500
H 	H 	0.31710 0.53140 0.73510 0.12000
H 	H 	0.27630 0.49690 0.70830 0.10400
C 	C 	0.35040 0.49880 0.66350 0.36000
C 	C 	0.40910 0.63140 0.53630 -0.29600
H 	H 	0.42460 0.60420 0.54200 0.12500
H 	H 	0.36970 0.62900 0.51920 0.12000
C 	C 	0.44250 0.65350 0.48840 0.36000
C 	C 	0.46530 0.64250 0.63560 -0.32200
H 	H 	0.48850 0.62570 0.60760 0.13900
H 	H 	0.45750 0.62700 0.67520 0.13200
C 	C 	0.49800 0.67880 0.65490 0.40600
C 	C 	0.37190 0.89640 0.65150 -0.25100
H 	H 	0.40990 0.90680 0.66330 0.11300
H 	H 	0.37240 0.86720 0.65720 0.08200
C 	C 	0.32820 0.91530 0.69630 0.10600
H 	H 	0.29050 0.90430 0.68250 0.00400
C 	C 	0.32530 0.96000 0.68770 -0.24000
H 	H 	0.29650 0.97110 0.71610 0.09100
H 	H 	0.36200 0.97190 0.70090 0.10000
C 	C 	0.31010 0.97080 0.61570 0.11200
H 	H 	0.27360 0.95720 0.60430 -0.00200
C 	C 	0.35300 0.95340 0.57100 -0.24600
H 	H 	0.34250 0.96010 0.52520 0.09900
H 	H 	0.39050 0.96500 0.58180 0.10000
C 	C 	0.35560 0.90710 0.57920 0.09800
H 	H 	0.31680 0.89660 0.56950 0.01000
C 	C 	0.29710 0.92050 0.80620 -0.31700
H 	H 	0.30630 0.94890 0.81390 0.12600
H 	H 	0.26000 0.91920 0.78240 0.11800
C 	C 	0.29350 0.89950 0.87050 0.39200
C 	C 	0.39820 0.91510 0.79140 -0.30800
H 	H 	0.41660 0.93050 0.75710 0.12800
H 	H 	0.39420 0.93290 0.82940 0.14100
C 	C 	0.43590 0.87980 0.81160 0.39800
C 	C 	0.24710 0.02670 0.62740 -0.28600
H 	H 	0.23240 0.00580 0.65610 0.11500
H 	H 	0.25360 0.05090 0.65420 0.11300
C 	C 	0.20380 0.03560 0.57540 0.37500
C 	C 	0.34700 0.03910 0.63210 -0.25900
H 	H 	0.34490 0.03990 0.68010 0.10900
H 	H 	0.38380 0.02750 0.62150 0.10700
C 	C 	0.34230 0.08220 0.60430 0.35400
C 	C 	0.36790 0.89080 0.46530 -0.30800
H 	H 	0.38760 0.91210 0.44190 0.13200
H 	H 	0.32830 0.89930 0.46890 0.12300
C 	C 	0.36870 0.85400 0.42580 0.38600
C 	C 	0.45030 0.90650 0.53510 -0.28800
H 	H 	0.45010 0.92880 0.50350 0.12500
H 	H 	0.45730 0.91790 0.57920 0.12600
C 	C 	0.49880 0.87810 0.52030 0.37400
C 	C 	0.28450 0.71290 0.54780 0.50900
C 	C 	0.22650 0.83290 0.70090 0.52500
O 	O 	0.00000 0.71320 0.25000 -0.47300
O 	O 	0.50000 0.21320 0.25000 -0.47800
O 	O 	0.00000 0.28680 0.75000 -0.47300
O 	O 	0.50000 0.78680 0.75000 -0.47800
