data_crystal

_cell_length_a 30.51400
_cell_length_b 15.67150
_cell_length_c 22.00300
_cell_angle_alpha 90.00000
_cell_angle_beta  133.02500
_cell_angle_gamma 90.00000

_symmetry_space_group_name_	'P 1'
_symmetry_space_group_name_H-M	'P 1'

loop_
_symmetry_equiv_pos_as_xyz
  x,y,z

loop_
_atom_site_label
_atom_site_type_symbol
_atom_site_fract_x
_atom_site_fract_y
_atom_site_fract_z
_atom_site_charge
Nd	Nd	0.89001 0.63619 0.32591 2.04900
Nd	Nd	0.83078 0.62795 0.98548 1.71800
N 	N 	0.83810 0.49740 0.24180 -0.18700
N 	N 	0.63400 0.73420 0.03580 -0.17600
O 	O 	0.86690 0.53030 0.38280 -0.53000
O 	O 	0.82810 0.40410 0.37550 -0.51100
O 	O 	0.87620 0.61540 0.20340 -0.51100
O 	O 	0.84040 0.54750 0.08880 -0.53700
O 	O 	0.74900 0.76870 0.12910 -0.50500
O 	O 	0.77720 0.65310 0.20410 -0.47400
O 	O 	0.56000 0.85580 0.93030 -0.52700
O 	O 	0.48100 0.78480 0.88800 -0.54200
O 	O 	0.84120 0.70420 0.36850 -0.81800
H 	H 	0.85690 0.75060 0.37130 0.24200
H 	H 	0.80340 0.71140 0.33340 0.32700
O 	O 	0.86750 0.78100 0.26360 -0.79100
H 	H 	0.83080 0.79500 0.23250 0.32100
H 	H 	0.88620 0.80230 0.31130 0.25500
C 	C 	0.83800 0.46050 0.34710 0.40300
C 	C 	0.81470 0.44440 0.26170 -0.09900
C 	C 	0.77470 0.38180 0.20820 0.03200
H 	H 	0.75940 0.34550 0.22340 -0.00600
C 	C 	0.75720 0.37260 0.13240 -0.12000
H 	H 	0.72740 0.33430 0.09290 0.05000
C 	C 	0.78720 0.42480 0.11710 0.02600
H 	H 	0.78060 0.41600 0.06960 -0.00200
C 	C 	0.82590 0.48830 0.17260 -0.11000
C 	C 	0.84940 0.55360 0.15340 0.41400
C 	C 	0.73770 0.69910 0.14680 0.40400
C 	C 	0.67380 0.67810 0.09320 -0.09700
C 	C 	0.65560 0.60120 0.10560 0.00200
H 	H 	0.68350 0.56250 0.14700 0.01800
C 	C 	0.59440 0.58700 0.05320 -0.09300
H 	H 	0.58090 0.53620 0.05750 0.03900
C 	C 	0.55280 0.64750 0.99440 0.00700
H 	H 	0.51180 0.63970 0.96080 0.00500
C 	C 	0.57650 0.72110 0.98860 -0.09800
C 	C 	0.53570 0.79250 0.92910 0.43300
Nd	Nd	0.39001 0.13619 0.32591 2.04900
Nd	Nd	0.33078 0.12795 0.98548 1.71200
N 	N 	0.33810 0.99740 0.24180 -0.18800
N 	N 	0.13400 0.23420 0.03580 -0.17600
O 	O 	0.36690 0.03030 0.38280 -0.53100
O 	O 	0.32810 0.90410 0.37550 -0.51200
O 	O 	0.37620 0.11540 0.20340 -0.51200
O 	O 	0.34040 0.04750 0.08880 -0.53700
O 	O 	0.24900 0.26870 0.12910 -0.50500
O 	O 	0.27720 0.15310 0.20410 -0.47400
O 	O 	0.06000 0.35580 0.93030 -0.52900
O 	O 	0.98100 0.28480 0.88800 -0.54300
O 	O 	0.34120 0.20420 0.36850 -0.81800
H 	H 	0.35690 0.25060 0.37130 0.24200
H 	H 	0.30340 0.21140 0.33340 0.32700
O 	O 	0.36750 0.28100 0.26360 -0.79100
H 	H 	0.33080 0.29500 0.23250 0.32100
H 	H 	0.38620 0.30230 0.31130 0.25600
C 	C 	0.33800 0.96050 0.34710 0.40300
C 	C 	0.31470 0.94440 0.26170 -0.09900
C 	C 	0.27470 0.88180 0.20820 0.03300
H 	H 	0.25940 0.84550 0.22340 -0.00700
C 	C 	0.25720 0.87260 0.13240 -0.12000
H 	H 	0.22740 0.83430 0.09290 0.05000
C 	C 	0.28720 0.92480 0.11710 0.02600
H 	H 	0.28060 0.91600 0.06960 -0.00300
C 	C 	0.32590 0.98830 0.17260 -0.11200
C 	C 	0.34940 0.05360 0.15340 0.41600
C 	C 	0.23770 0.19910 0.14680 0.40400
C 	C 	0.17380 0.17810 0.09320 -0.09600
C 	C 	0.15560 0.10120 0.10560 0.00100
H 	H 	0.18350 0.06250 0.14700 0.01800
C 	C 	0.09440 0.08700 0.05320 -0.09000
H 	H 	0.08090 0.03620 0.05750 0.03800
C 	C 	0.05280 0.14750 0.99440 0.00400
H 	H 	0.01180 0.13970 0.96080 0.00500
C 	C 	0.07650 0.22110 0.98860 -0.09900
C 	C 	0.03570 0.29250 0.92910 0.43400
Nd	Nd	0.10999 0.63619 0.17409 2.04900
Nd	Nd	0.16922 0.62795 0.51452 1.71400
N 	N 	0.16190 0.49740 0.25820 -0.18800
N 	N 	0.36600 0.73420 0.46420 -0.17700
O 	O 	0.13310 0.53030 0.11720 -0.53100
O 	O 	0.17190 0.40410 0.12450 -0.51300
O 	O 	0.12380 0.61540 0.29660 -0.51200
O 	O 	0.15960 0.54750 0.41120 -0.53800
O 	O 	0.25100 0.76870 0.37090 -0.50500
O 	O 	0.22280 0.65310 0.29590 -0.47400
O 	O 	0.44000 0.85580 0.56970 -0.52900
O 	O 	0.51900 0.78480 0.61200 -0.54300
O 	O 	0.15880 0.70420 0.13150 -0.81800
H 	H 	0.14310 0.75060 0.12870 0.24200
H 	H 	0.19660 0.71140 0.16660 0.32700
O 	O 	0.13250 0.78100 0.23640 -0.79100
H 	H 	0.16920 0.79500 0.26750 0.32100
H 	H 	0.11380 0.80230 0.18870 0.25500
C 	C 	0.16200 0.46050 0.15290 0.40400
C 	C 	0.18530 0.44440 0.23830 -0.09900
C 	C 	0.22530 0.38180 0.29180 0.03200
H 	H 	0.24060 0.34550 0.27660 -0.00600
C 	C 	0.24280 0.37260 0.36760 -0.12000
H 	H 	0.27260 0.33430 0.40710 0.05000
C 	C 	0.21280 0.42480 0.38290 0.02600
H 	H 	0.21940 0.41600 0.43040 -0.00300
C 	C 	0.17410 0.48830 0.32740 -0.11000
C 	C 	0.15060 0.55360 0.34660 0.41400
C 	C 	0.26230 0.69910 0.35320 0.40400
C 	C 	0.32620 0.67810 0.40680 -0.09700
C 	C 	0.34440 0.60120 0.39440 0.00200
H 	H 	0.31650 0.56250 0.35300 0.01800
C 	C 	0.40560 0.58700 0.44680 -0.09200
H 	H 	0.41910 0.53620 0.44250 0.03900
C 	C 	0.44720 0.64750 0.50560 0.00600
H 	H 	0.48820 0.63970 0.53920 0.00500
C 	C 	0.42350 0.72110 0.51140 -0.09900
C 	C 	0.46430 0.79250 0.57090 0.43400
Nd	Nd	0.60999 0.13619 0.17409 2.05000
Nd	Nd	0.66922 0.12795 0.51452 1.71400
N 	N 	0.66190 0.99740 0.25820 -0.18800
N 	N 	0.86600 0.23420 0.46420 -0.17700
O 	O 	0.63310 0.03030 0.11720 -0.52900
O 	O 	0.67190 0.90410 0.12450 -0.51200
O 	O 	0.62380 0.11540 0.29660 -0.51200
O 	O 	0.65960 0.04750 0.41120 -0.53800
O 	O 	0.75100 0.26870 0.37090 -0.50500
O 	O 	0.72280 0.15310 0.29590 -0.47400
O 	O 	0.94000 0.35580 0.56970 -0.52900
O 	O 	0.01900 0.28480 0.61200 -0.54300
O 	O 	0.65880 0.20420 0.13150 -0.81800
H 	H 	0.64310 0.25060 0.12870 0.24200
H 	H 	0.69660 0.21140 0.16660 0.32700
O 	O 	0.63250 0.28100 0.23640 -0.79100
H 	H 	0.66920 0.29500 0.26750 0.32100
H 	H 	0.61380 0.30230 0.18870 0.25600
C 	C 	0.66200 0.96050 0.15290 0.40100
C 	C 	0.68530 0.94440 0.23830 -0.09800
C 	C 	0.72530 0.88180 0.29180 0.03200
H 	H 	0.74060 0.84550 0.27660 -0.00600
C 	C 	0.74280 0.87260 0.36760 -0.12000
H 	H 	0.77260 0.83430 0.40710 0.05000
C 	C 	0.71280 0.92480 0.38290 0.02600
H 	H 	0.71940 0.91600 0.43040 -0.00300
C 	C 	0.67410 0.98830 0.32740 -0.11100
C 	C 	0.65060 0.05360 0.34660 0.41500
C 	C 	0.76230 0.19910 0.35320 0.40400
C 	C 	0.82620 0.17810 0.40680 -0.09700
C 	C 	0.84440 0.10120 0.39440 0.00200
H 	H 	0.81650 0.06250 0.35300 0.01800
C 	C 	0.90560 0.08700 0.44680 -0.09200
H 	H 	0.91910 0.03620 0.44250 0.03900
C 	C 	0.94720 0.14750 0.50560 0.00600
H 	H 	0.98820 0.13970 0.53920 0.00500
C 	C 	0.92350 0.22110 0.51140 -0.09900
C 	C 	0.96430 0.29250 0.57090 0.43300
Nd	Nd	0.10999 0.36381 0.67409 2.04800
Nd	Nd	0.16922 0.37205 0.01452 1.71700
N 	N 	0.16190 0.50260 0.75820 -0.18800
N 	N 	0.36600 0.26580 0.96420 -0.17700
O 	O 	0.13310 0.46970 0.61720 -0.53100
O 	O 	0.17190 0.59590 0.62450 -0.51200
O 	O 	0.12380 0.38460 0.79660 -0.51200
O 	O 	0.15960 0.45250 0.91120 -0.53800
O 	O 	0.25100 0.23130 0.87090 -0.50500
O 	O 	0.22280 0.34690 0.79590 -0.47400
O 	O 	0.44000 0.14420 0.06970 -0.52700
O 	O 	0.51900 0.21520 0.11200 -0.54200
O 	O 	0.15880 0.29580 0.63150 -0.81800
H 	H 	0.14310 0.24940 0.62870 0.24200
H 	H 	0.19660 0.28860 0.66660 0.32700
O 	O 	0.13250 0.21900 0.73640 -0.79100
H 	H 	0.16920 0.20500 0.76750 0.32100
H 	H 	0.11380 0.19770 0.68870 0.25500
C 	C 	0.16200 0.53950 0.65290 0.40300
C 	C 	0.18530 0.55560 0.73830 -0.09900
C 	C 	0.22530 0.61820 0.79180 0.03200
H 	H 	0.24060 0.65450 0.77660 -0.00600
C 	C 	0.24280 0.62740 0.86760 -0.12000
H 	H 	0.27260 0.66570 0.90710 0.05000
C 	C 	0.21280 0.57520 0.88290 0.02600
H 	H 	0.21940 0.58400 0.93040 -0.00200
C 	C 	0.17410 0.51170 0.82740 -0.11000
C 	C 	0.15060 0.44640 0.84660 0.41400
C 	C 	0.26230 0.30090 0.85320 0.40400
C 	C 	0.32620 0.32190 0.90680 -0.09700
C 	C 	0.34440 0.39880 0.89440 0.00200
H 	H 	0.31650 0.43750 0.85300 0.01800
C 	C 	0.40560 0.41300 0.94680 -0.09300
H 	H 	0.41910 0.46380 0.94250 0.03900
C 	C 	0.44720 0.35250 0.00560 0.00700
H 	H 	0.48820 0.36030 0.03920 0.00500
C 	C 	0.42350 0.27890 0.01140 -0.09800
C 	C 	0.46430 0.20750 0.07090 0.43300
Nd	Nd	0.60999 0.86381 0.67409 2.04900
Nd	Nd	0.66922 0.87205 0.01452 1.71200
N 	N 	0.66190 0.00260 0.75820 -0.18800
N 	N 	0.86600 0.76580 0.96420 -0.17600
O 	O 	0.63310 0.96970 0.61720 -0.53100
O 	O 	0.67190 0.09590 0.62450 -0.51200
O 	O 	0.62380 0.88460 0.79660 -0.51200
O 	O 	0.65960 0.95250 0.91120 -0.53700
O 	O 	0.75100 0.73130 0.87090 -0.50500
O 	O 	0.72280 0.84690 0.79590 -0.47400
O 	O 	0.94000 0.64420 0.06970 -0.52900
O 	O 	0.01900 0.71520 0.11200 -0.54300
O 	O 	0.65880 0.79580 0.63150 -0.81800
H 	H 	0.64310 0.74940 0.62870 0.24200
H 	H 	0.69660 0.78860 0.66660 0.32700
O 	O 	0.63250 0.71900 0.73640 -0.79100
H 	H 	0.66920 0.70500 0.76750 0.32100
H 	H 	0.61380 0.69770 0.68870 0.25600
C 	C 	0.66200 0.03950 0.65290 0.40300
C 	C 	0.68530 0.05560 0.73830 -0.09900
C 	C 	0.72530 0.11820 0.79180 0.03300
H 	H 	0.74060 0.15450 0.77660 -0.00700
C 	C 	0.74280 0.12740 0.86760 -0.12000
H 	H 	0.77260 0.16570 0.90710 0.05000
C 	C 	0.71280 0.07520 0.88290 0.02600
H 	H 	0.71940 0.08400 0.93040 -0.00300
C 	C 	0.67410 0.01170 0.82740 -0.11200
C 	C 	0.65060 0.94640 0.84660 0.41600
C 	C 	0.76230 0.80090 0.85320 0.40400
C 	C 	0.82620 0.82190 0.90680 -0.09600
C 	C 	0.84440 0.89880 0.89440 0.00100
H 	H 	0.81650 0.93750 0.85300 0.01800
C 	C 	0.90560 0.91300 0.94680 -0.09000
H 	H 	0.91910 0.96380 0.94250 0.03800
C 	C 	0.94720 0.85250 0.00560 0.00400
H 	H 	0.98820 0.86030 0.03920 0.00500
C 	C 	0.92350 0.77890 0.01140 -0.09900
C 	C 	0.96430 0.70750 0.07090 0.43400
Nd	Nd	0.89001 0.36381 0.82591 2.04900
Nd	Nd	0.83078 0.37205 0.48548 1.71400
N 	N 	0.83810 0.50260 0.74180 -0.18800
N 	N 	0.63400 0.26580 0.53580 -0.17700
O 	O 	0.86690 0.46970 0.88280 -0.53100
O 	O 	0.82810 0.59590 0.87550 -0.51300
O 	O 	0.87620 0.38460 0.70340 -0.51200
O 	O 	0.84040 0.45250 0.58880 -0.53800
O 	O 	0.74900 0.23130 0.62910 -0.50500
O 	O 	0.77720 0.34690 0.70410 -0.47400
O 	O 	0.56000 0.14420 0.43030 -0.52900
O 	O 	0.48100 0.21520 0.38800 -0.54300
O 	O 	0.84120 0.29580 0.86850 -0.81800
H 	H 	0.85690 0.24940 0.87130 0.24200
H 	H 	0.80340 0.28860 0.83340 0.32700
O 	O 	0.86750 0.21900 0.76360 -0.79100
H 	H 	0.83080 0.20500 0.73250 0.32100
H 	H 	0.88620 0.19770 0.81130 0.25500
C 	C 	0.83800 0.53950 0.84710 0.40400
C 	C 	0.81470 0.55560 0.76170 -0.09900
C 	C 	0.77470 0.61820 0.70820 0.03200
H 	H 	0.75940 0.65450 0.72340 -0.00600
C 	C 	0.75720 0.62740 0.63240 -0.12000
H 	H 	0.72740 0.66570 0.59290 0.05000
C 	C 	0.78720 0.57520 0.61710 0.02600
H 	H 	0.78060 0.58400 0.56960 -0.00300
C 	C 	0.82590 0.51170 0.67260 -0.11000
C 	C 	0.84940 0.44640 0.65340 0.41400
C 	C 	0.73770 0.30090 0.64680 0.40400
C 	C 	0.67380 0.32190 0.59320 -0.09700
C 	C 	0.65560 0.39880 0.60560 0.00200
H 	H 	0.68350 0.43750 0.64700 0.01800
C 	C 	0.59440 0.41300 0.55320 -0.09200
H 	H 	0.58090 0.46380 0.55750 0.03900
C 	C 	0.55280 0.35250 0.49440 0.00600
H 	H 	0.51180 0.36030 0.46080 0.00500
C 	C 	0.57650 0.27890 0.48860 -0.09900
C 	C 	0.53570 0.20750 0.42910 0.43400
Nd	Nd	0.39001 0.86381 0.82591 2.05000
Nd	Nd	0.33078 0.87205 0.48548 1.71400
N 	N 	0.33810 0.00260 0.74180 -0.18800
N 	N 	0.13400 0.76580 0.53580 -0.17700
O 	O 	0.36690 0.96970 0.88280 -0.52900
O 	O 	0.32810 0.09590 0.87550 -0.51200
O 	O 	0.37620 0.88460 0.70340 -0.51200
O 	O 	0.34040 0.95250 0.58880 -0.53800
O 	O 	0.24900 0.73130 0.62910 -0.50500
O 	O 	0.27720 0.84690 0.70410 -0.47400
O 	O 	0.06000 0.64420 0.43030 -0.52900
O 	O 	0.98100 0.71520 0.38800 -0.54300
O 	O 	0.34120 0.79580 0.86850 -0.81800
H 	H 	0.35690 0.74940 0.87130 0.24200
H 	H 	0.30340 0.78860 0.83340 0.32700
O 	O 	0.36750 0.71900 0.76360 -0.79100
H 	H 	0.33080 0.70500 0.73250 0.32100
H 	H 	0.38620 0.69770 0.81130 0.25600
C 	C 	0.33800 0.03950 0.84710 0.40100
C 	C 	0.31470 0.05560 0.76170 -0.09800
C 	C 	0.27470 0.11820 0.70820 0.03200
H 	H 	0.25940 0.15450 0.72340 -0.00600
C 	C 	0.25720 0.12740 0.63240 -0.12000
H 	H 	0.22740 0.16570 0.59290 0.05000
C 	C 	0.28720 0.07520 0.61710 0.02600
H 	H 	0.28060 0.08400 0.56960 -0.00300
C 	C 	0.32590 0.01170 0.67260 -0.11100
C 	C 	0.34940 0.94640 0.65340 0.41500
C 	C 	0.23770 0.80090 0.64680 0.40400
C 	C 	0.17380 0.82190 0.59320 -0.09700
C 	C 	0.15560 0.89880 0.60560 0.00200
H 	H 	0.18350 0.93750 0.64700 0.01800
C 	C 	0.09440 0.91300 0.55320 -0.09200
H 	H 	0.08090 0.96380 0.55750 0.03900
C 	C 	0.05280 0.85250 0.49440 0.00600
H 	H 	0.01180 0.86030 0.46080 0.00500
C 	C 	0.07650 0.77890 0.48860 -0.09900
C 	C 	0.03570 0.70750 0.42910 0.43300
