data_crystal

_cell_length_a 30.57300
_cell_length_b 15.73300
_cell_length_c 22.01300
_cell_angle_alpha 90.00000
_cell_angle_beta  132.96500
_cell_angle_gamma 90.00000

_symmetry_space_group_name_	'P 1'
_symmetry_space_group_name_H-M	'P 1'

loop_
_symmetry_equiv_pos_as_xyz
  x,y,z

loop_
_atom_site_label
_atom_site_type_symbol
_atom_site_fract_x
_atom_site_fract_y
_atom_site_fract_z
_atom_site_charge
N 	N 	0.63350 0.26530 0.53520 -0.17700
N 	N 	0.66190 0.99820 0.25840 -0.17200
Nd	Nd	0.66918 0.12782 0.51468 1.68100
Nd	Nd	0.88996 0.36398 0.82563 1.65600
O 	O 	0.74770 0.23000 0.62830 -0.51100
O 	O 	0.77690 0.34810 0.70390 -0.46800
O 	O 	0.56030 0.14390 0.43080 -0.51700
O 	O 	0.48060 0.21600 0.38700 -0.53700
O 	O 	0.62290 0.11560 0.29630 -0.50300
O 	O 	0.65890 0.04720 0.41100 -0.54000
O 	O 	0.63420 0.03000 0.11830 -0.53200
O 	O 	0.67260 0.90430 0.12500 -0.50200
C 	C 	0.73860 0.29890 0.64760 0.39100
C 	C 	0.67340 0.32270 0.59380 -0.08500
C 	C 	0.65490 0.39800 0.60420 -0.00300
H 	H 	0.68270 0.43750 0.64430 0.01700
C 	C 	0.59410 0.41250 0.55330 -0.09700
H 	H 	0.58060 0.46240 0.55850 0.03500
C 	C 	0.55330 0.35130 0.49410 0.00500
H 	H 	0.51230 0.35950 0.45990 -0.00200
C 	C 	0.57550 0.27800 0.48770 -0.10400
C 	C 	0.53510 0.20680 0.42960 0.41700
C 	C 	0.65050 0.05350 0.34720 0.40200
C 	C 	0.67450 0.98780 0.32850 -0.10600
C 	C 	0.71340 0.92410 0.38310 0.02200
H 	H 	0.72150 0.91610 0.43180 -0.00800
C 	C 	0.74020 0.87270 0.36590 -0.11200
H 	H 	0.76760 0.83140 0.40360 0.03500
C 	C 	0.72570 0.88330 0.29230 0.01700
H 	H 	0.74320 0.84990 0.27890 -0.00000
C 	C 	0.68410 0.94550 0.23810 -0.09000
C 	C 	0.66150 0.96080 0.15330 0.39100
N 	N 	0.13350 0.76530 0.53520 -0.17800
N 	N 	0.16190 0.49820 0.25840 -0.17300
Nd	Nd	0.16918 0.62782 0.51468 1.68000
Nd	Nd	0.38996 0.86398 0.82563 1.65700
O 	O 	0.24770 0.73000 0.62830 -0.51200
O 	O 	0.27690 0.84810 0.70390 -0.46800
O 	O 	0.06030 0.64390 0.43080 -0.51800
O 	O 	0.98060 0.71600 0.38700 -0.53800
O 	O 	0.12290 0.61560 0.29630 -0.50300
O 	O 	0.15890 0.54720 0.41100 -0.54000
O 	O 	0.13420 0.53000 0.11830 -0.53400
O 	O 	0.17260 0.40430 0.12500 -0.50200
C 	C 	0.23860 0.79890 0.64760 0.39100
C 	C 	0.17340 0.82270 0.59380 -0.08500
C 	C 	0.15490 0.89800 0.60420 -0.00300
H 	H 	0.18270 0.93750 0.64430 0.01800
C 	C 	0.09410 0.91250 0.55330 -0.09700
H 	H 	0.08060 0.96240 0.55850 0.03400
C 	C 	0.05330 0.85130 0.49410 0.00500
H 	H 	0.01230 0.85950 0.45990 -0.00200
C 	C 	0.07550 0.77800 0.48770 -0.10400
C 	C 	0.03510 0.70680 0.42960 0.41700
C 	C 	0.15050 0.55350 0.34720 0.40100
C 	C 	0.17450 0.48780 0.32850 -0.10500
C 	C 	0.21340 0.42410 0.38310 0.02200
H 	H 	0.22150 0.41610 0.43180 -0.00800
C 	C 	0.24020 0.37270 0.36590 -0.11200
H 	H 	0.26760 0.33140 0.40360 0.03500
C 	C 	0.22570 0.38330 0.29230 0.01800
H 	H 	0.24320 0.34990 0.27890 -0.00000
C 	C 	0.18410 0.44550 0.23810 -0.09100
C 	C 	0.16150 0.46080 0.15330 0.39400
N 	N 	0.36650 0.26530 0.96480 -0.17900
N 	N 	0.33810 0.99820 0.24160 -0.17300
Nd	Nd	0.33082 0.12782 0.98532 1.67800
Nd	Nd	0.11004 0.36398 0.67437 1.65500
O 	O 	0.25230 0.23000 0.87170 -0.51200
O 	O 	0.22310 0.34810 0.79610 -0.46800
O 	O 	0.43970 0.14390 0.06920 -0.51600
O 	O 	0.51940 0.21600 0.11300 -0.53700
O 	O 	0.37710 0.11560 0.20370 -0.50200
O 	O 	0.34110 0.04720 0.08900 -0.53900
O 	O 	0.36580 0.03000 0.38170 -0.53400
O 	O 	0.32740 0.90430 0.37500 -0.50200
C 	C 	0.26140 0.29890 0.85240 0.39100
C 	C 	0.32660 0.32270 0.90620 -0.08500
C 	C 	0.34510 0.39800 0.89580 -0.00200
H 	H 	0.31730 0.43750 0.85570 0.01700
C 	C 	0.40590 0.41250 0.94670 -0.09800
H 	H 	0.41940 0.46240 0.94150 0.03500
C 	C 	0.44670 0.35130 0.00590 0.00700
H 	H 	0.48770 0.35950 0.04010 -0.00200
C 	C 	0.42450 0.27800 0.01230 -0.10300
C 	C 	0.46490 0.20680 0.07040 0.41700
C 	C 	0.34950 0.05350 0.15280 0.40200
C 	C 	0.32550 0.98780 0.17150 -0.10700
C 	C 	0.28660 0.92410 0.11690 0.02300
H 	H 	0.27850 0.91610 0.06820 -0.00900
C 	C 	0.25980 0.87270 0.13410 -0.11300
H 	H 	0.23240 0.83140 0.09640 0.03500
C 	C 	0.27430 0.88330 0.20770 0.01800
H 	H 	0.25680 0.84990 0.22110 -0.00100
C 	C 	0.31590 0.94550 0.26190 -0.09100
C 	C 	0.33850 0.96080 0.34670 0.39300
N 	N 	0.86650 0.76530 0.96480 -0.17800
N 	N 	0.83810 0.49820 0.24160 -0.17300
Nd	Nd	0.83082 0.62782 0.98532 1.68300
Nd	Nd	0.61004 0.86398 0.67437 1.65600
O 	O 	0.75230 0.73000 0.87170 -0.51200
O 	O 	0.72310 0.84810 0.79610 -0.46800
O 	O 	0.93970 0.64390 0.06920 -0.51800
O 	O 	0.01940 0.71600 0.11300 -0.53800
O 	O 	0.87710 0.61560 0.20370 -0.50300
O 	O 	0.84110 0.54720 0.08900 -0.54000
O 	O 	0.86580 0.53000 0.38170 -0.53400
O 	O 	0.82740 0.40430 0.37500 -0.50200
C 	C 	0.76140 0.79890 0.85240 0.39100
C 	C 	0.82660 0.82270 0.90620 -0.08400
C 	C 	0.84510 0.89800 0.89580 -0.00400
H 	H 	0.81730 0.93750 0.85570 0.01800
C 	C 	0.90590 0.91250 0.94670 -0.09400
H 	H 	0.91940 0.96240 0.94150 0.03400
C 	C 	0.94670 0.85130 0.00590 0.00300
H 	H 	0.98770 0.85950 0.04010 -0.00100
C 	C 	0.92450 0.77800 0.01230 -0.10400
C 	C 	0.96490 0.70680 0.07040 0.41700
C 	C 	0.84950 0.55350 0.15280 0.40100
C 	C 	0.82550 0.48780 0.17150 -0.10500
C 	C 	0.78660 0.42410 0.11690 0.02200
H 	H 	0.77850 0.41610 0.06820 -0.00800
C 	C 	0.75980 0.37270 0.13410 -0.11200
H 	H 	0.73240 0.33140 0.09640 0.03500
C 	C 	0.77430 0.38330 0.20770 0.01800
H 	H 	0.75680 0.34990 0.22110 -0.00000
C 	C 	0.81590 0.44550 0.26190 -0.09100
C 	C 	0.83850 0.46080 0.34670 0.39400
N 	N 	0.36650 0.73470 0.46480 -0.17800
N 	N 	0.33810 0.00180 0.74160 -0.17300
Nd	Nd	0.33082 0.87218 0.48532 1.68000
Nd	Nd	0.11004 0.63602 0.17437 1.65500
O 	O 	0.25230 0.77000 0.37170 -0.51200
O 	O 	0.22310 0.65190 0.29610 -0.46900
O 	O 	0.43970 0.85610 0.56920 -0.51700
O 	O 	0.51940 0.78400 0.61300 -0.53700
O 	O 	0.37710 0.88440 0.70370 -0.50300
O 	O 	0.34110 0.95280 0.58900 -0.54000
O 	O 	0.36580 0.97000 0.88170 -0.53200
O 	O 	0.32740 0.09570 0.87500 -0.50200
C 	C 	0.26140 0.70110 0.35240 0.39100
C 	C 	0.32660 0.67730 0.40620 -0.08500
C 	C 	0.34510 0.60200 0.39580 -0.00300
H 	H 	0.31730 0.56250 0.35570 0.01700
C 	C 	0.40590 0.58750 0.44670 -0.09700
H 	H 	0.41940 0.53760 0.44150 0.03500
C 	C 	0.44670 0.64870 0.50590 0.00500
H 	H 	0.48770 0.64050 0.54010 -0.00200
C 	C 	0.42450 0.72200 0.51230 -0.10400
C 	C 	0.46490 0.79320 0.57040 0.41700
C 	C 	0.34950 0.94650 0.65280 0.40200
C 	C 	0.32550 0.01220 0.67150 -0.10600
C 	C 	0.28660 0.07590 0.61690 0.02200
H 	H 	0.27850 0.08390 0.56820 -0.00800
C 	C 	0.25980 0.12730 0.63410 -0.11200
H 	H 	0.23240 0.16860 0.59640 0.03500
C 	C 	0.27430 0.11670 0.70770 0.01700
H 	H 	0.25680 0.15010 0.72110 -0.00000
C 	C 	0.31590 0.05450 0.76190 -0.09000
C 	C 	0.33850 0.03920 0.84670 0.39100
N 	N 	0.86650 0.23470 0.46480 -0.17800
N 	N 	0.83810 0.50180 0.74160 -0.17300
Nd	Nd	0.83082 0.37218 0.48532 1.68000
Nd	Nd	0.61004 0.13602 0.17437 1.65700
O 	O 	0.75230 0.27000 0.37170 -0.51200
O 	O 	0.72310 0.15190 0.29610 -0.46800
O 	O 	0.93970 0.35610 0.56920 -0.51800
O 	O 	0.01940 0.28400 0.61300 -0.53800
O 	O 	0.87710 0.38440 0.70370 -0.50300
O 	O 	0.84110 0.45280 0.58900 -0.54000
O 	O 	0.86580 0.47000 0.88170 -0.53400
O 	O 	0.82740 0.59570 0.87500 -0.50200
C 	C 	0.76140 0.20110 0.35240 0.39100
C 	C 	0.82660 0.17730 0.40620 -0.08500
C 	C 	0.84510 0.10200 0.39580 -0.00300
H 	H 	0.81730 0.06250 0.35570 0.01800
C 	C 	0.90590 0.08750 0.44670 -0.09700
H 	H 	0.91940 0.03760 0.44150 0.03400
C 	C 	0.94670 0.14870 0.50590 0.00500
H 	H 	0.98770 0.14050 0.54010 -0.00200
C 	C 	0.92450 0.22200 0.51230 -0.10400
C 	C 	0.96490 0.29320 0.57040 0.41700
C 	C 	0.84950 0.44650 0.65280 0.40100
C 	C 	0.82550 0.51220 0.67150 -0.10500
C 	C 	0.78660 0.57590 0.61690 0.02200
H 	H 	0.77850 0.58390 0.56820 -0.00800
C 	C 	0.75980 0.62730 0.63410 -0.11200
H 	H 	0.73240 0.66860 0.59640 0.03500
C 	C 	0.77430 0.61670 0.70770 0.01800
H 	H 	0.75680 0.65010 0.72110 -0.00000
C 	C 	0.81590 0.55450 0.76190 -0.09100
C 	C 	0.83850 0.53920 0.84670 0.39400
N 	N 	0.63350 0.73470 0.03520 -0.17900
N 	N 	0.66190 0.00180 0.75840 -0.17300
Nd	Nd	0.66918 0.87218 0.01468 1.67800
Nd	Nd	0.88996 0.63602 0.32563 1.65500
O 	O 	0.74770 0.77000 0.12830 -0.51200
O 	O 	0.77690 0.65190 0.20390 -0.46800
O 	O 	0.56030 0.85610 0.93080 -0.51600
O 	O 	0.48060 0.78400 0.88700 -0.53700
O 	O 	0.62290 0.88440 0.79630 -0.50200
O 	O 	0.65890 0.95280 0.91100 -0.53900
O 	O 	0.63420 0.97000 0.61830 -0.53400
O 	O 	0.67260 0.09570 0.62500 -0.50200
C 	C 	0.73860 0.70110 0.14760 0.39100
C 	C 	0.67340 0.67730 0.09380 -0.08500
C 	C 	0.65490 0.60200 0.10420 -0.00200
H 	H 	0.68270 0.56250 0.14430 0.01700
C 	C 	0.59410 0.58750 0.05330 -0.09800
H 	H 	0.58060 0.53760 0.05850 0.03500
C 	C 	0.55330 0.64870 0.99410 0.00700
H 	H 	0.51230 0.64050 0.95990 -0.00200
C 	C 	0.57550 0.72200 0.98770 -0.10300
C 	C 	0.53510 0.79320 0.92960 0.41700
C 	C 	0.65050 0.94650 0.84720 0.40200
C 	C 	0.67450 0.01220 0.82850 -0.10700
C 	C 	0.71340 0.07590 0.88310 0.02300
H 	H 	0.72150 0.08390 0.93180 -0.00900
C 	C 	0.74020 0.12730 0.86590 -0.11300
H 	H 	0.76760 0.16860 0.90360 0.03500
C 	C 	0.72570 0.11670 0.79230 0.01800
H 	H 	0.74320 0.15010 0.77890 -0.00100
C 	C 	0.68410 0.05450 0.73810 -0.09100
C 	C 	0.66150 0.03920 0.65330 0.39300
N 	N 	0.13350 0.23470 0.03520 -0.17800
N 	N 	0.16190 0.50180 0.75840 -0.17300
Nd	Nd	0.16918 0.37218 0.01468 1.68300
Nd	Nd	0.38996 0.13602 0.32563 1.65600
O 	O 	0.24770 0.27000 0.12830 -0.51200
O 	O 	0.27690 0.15190 0.20390 -0.46800
O 	O 	0.06030 0.35610 0.93080 -0.51800
O 	O 	0.98060 0.28400 0.88700 -0.53800
O 	O 	0.12290 0.38440 0.79630 -0.50300
O 	O 	0.15890 0.45280 0.91100 -0.54000
O 	O 	0.13420 0.47000 0.61830 -0.53400
O 	O 	0.17260 0.59570 0.62500 -0.50200
C 	C 	0.23860 0.20110 0.14760 0.39100
C 	C 	0.17340 0.17730 0.09380 -0.08400
C 	C 	0.15490 0.10200 0.10420 -0.00400
H 	H 	0.18270 0.06250 0.14430 0.01800
C 	C 	0.09410 0.08750 0.05330 -0.09400
H 	H 	0.08060 0.03760 0.05850 0.03400
C 	C 	0.05330 0.14870 0.99410 0.00300
H 	H 	0.01230 0.14050 0.95990 -0.00100
C 	C 	0.07550 0.22200 0.98770 -0.10400
C 	C 	0.03510 0.29320 0.92960 0.41700
C 	C 	0.15050 0.44650 0.84720 0.40100
C 	C 	0.17450 0.51220 0.82850 -0.10500
C 	C 	0.21340 0.57590 0.88310 0.02200
H 	H 	0.22150 0.58390 0.93180 -0.00800
C 	C 	0.24020 0.62730 0.86590 -0.11200
H 	H 	0.26760 0.66860 0.90360 0.03500
C 	C 	0.22570 0.61670 0.79230 0.01800
H 	H 	0.24320 0.65010 0.77890 -0.00000
C 	C 	0.18410 0.55450 0.73810 -0.09100
C 	C 	0.16150 0.53920 0.65330 0.39400
