data_crystal

_cell_length_a 33.00300
_cell_length_b 34.59700
_cell_length_c 34.59700
_cell_angle_alpha 120.00000
_cell_angle_beta  90.00000
_cell_angle_gamma 90.00000

_symmetry_space_group_name_	'P 1'
_symmetry_space_group_name_H-M	'P 1'

loop_
_symmetry_equiv_pos_as_xyz
  x,y,z

loop_
_atom_site_label
_atom_site_type_symbol
_atom_site_fract_x
_atom_site_fract_y
_atom_site_fract_z
_atom_site_charge
Zn	Zn	0.82297 0.43481 0.48995 1.19800
Zn	Zn	0.73016 0.40957 0.00165 1.19900
Zn	Zn	0.76984 0.59208 0.00165 1.19900
Zn	Zn	0.26984 0.40792 0.99835 1.19900
Zn	Zn	0.17098 0.51069 0.95406 1.20300
Zn	Zn	0.98547 0.70964 0.31673 1.19100
Zn	Zn	0.75000 0.49947 0.99894 1.21300
Zn	Zn	0.17098 0.44337 0.48931 1.20200
Zn	Zn	0.17098 0.04594 0.55663 1.20200
Zn	Zn	0.48547 0.39291 0.70964 1.19000
Zn	Zn	0.23016 0.00165 0.59208 1.19800
Zn	Zn	0.98547 0.60709 0.29036 1.19000
Zn	Zn	0.17703 0.94486 0.51005 1.19700
Zn	Zn	0.73016 0.59208 0.59043 1.19800
Zn	Zn	0.32902 0.51069 0.55663 1.20200
Zn	Zn	0.32902 0.44337 0.95406 1.20200
Zn	Zn	0.17703 0.48995 0.43481 1.19700
Zn	Zn	0.67098 0.95406 0.44337 1.20200
Zn	Zn	0.82902 0.48931 0.44337 1.20200
Zn	Zn	0.32297 0.94486 0.43481 1.19700
Zn	Zn	0.51453 0.68327 0.29036 1.19000
Zn	Zn	0.25000 0.50053 0.49947 1.21200
Zn	Zn	0.23016 0.40792 0.40957 1.19800
Zn	Zn	0.01453 0.29036 0.60709 1.19000
Zn	Zn	0.76984 0.40957 0.40792 1.19800
Zn	Zn	0.75000 0.00106 0.50053 1.21200
Zn	Zn	0.26984 0.59043 0.59208 1.19800
Zn	Zn	0.01453 0.39291 0.68327 1.19000
Zn	Zn	0.67098 0.48931 0.04594 1.20200
Zn	Zn	0.82902 0.55663 0.04594 1.20200
Zn	Zn	0.82297 0.51005 0.94486 1.19700
Zn	Zn	0.26984 0.00165 0.40957 1.19800
Zn	Zn	0.25000 0.99894 0.49947 1.21200
Zn	Zn	0.67703 0.51005 0.56519 1.19700
Zn	Zn	0.25000 0.50053 0.00106 1.21200
Zn	Zn	0.51453 0.70964 0.39291 1.19000
Zn	Zn	0.56257 0.33333 0.66666 1.21600
Zn	Zn	0.17703 0.56519 0.05514 1.19700
Zn	Zn	0.32902 0.04594 0.48931 1.20200
Zn	Zn	0.32297 0.56519 0.51005 1.19700
Zn	Zn	0.67703 0.05514 0.48995 1.19700
Zn	Zn	0.48547 0.31673 0.60709 1.19000
Zn	Zn	0.06257 0.66667 0.33334 1.21600
Zn	Zn	0.43743 0.66667 0.33334 1.21600
Zn	Zn	0.67098 0.55663 0.51069 1.20200
Zn	Zn	0.98547 0.68327 0.39291 1.19000
Zn	Zn	0.73016 0.99835 0.40792 1.19800
Zn	Zn	0.51453 0.60709 0.31673 1.19000
Zn	Zn	0.82902 0.95406 0.51069 1.20200
Zn	Zn	0.76984 0.99835 0.59043 1.19800
Zn	Zn	0.75000 0.49947 0.50053 1.21200
Zn	Zn	0.67703 0.43481 0.94486 1.19700
Zn	Zn	0.32297 0.48995 0.05514 1.19700
Zn	Zn	0.93743 0.33333 0.66666 1.21600
Zn	Zn	0.23016 0.59043 0.99835 1.19800
Zn	Zn	0.82297 0.05514 0.56519 1.19700
Zn	Zn	0.01453 0.31673 0.70964 1.19000
Zn	Zn	0.48547 0.29036 0.68327 1.19000
H 	H 	0.37080 0.63550 0.94810 0.17900
H 	H 	0.66810 0.61390 0.73520 0.49200
H 	H 	0.58810 0.97110 0.63570 0.18200
H 	H 	0.43930 0.95050 0.41830 -0.59600
H 	H 	0.30960 0.82260 0.37490 0.02400
H 	H 	0.77860 0.69790 0.61300 -0.01600
H 	H 	0.68930 0.67750 0.12350 0.06600
H 	H 	0.84650 0.34710 0.79100 0.18800
H 	H 	0.01650 0.96520 0.52890 -0.57200
H 	H 	0.19400 0.67780 0.61700 0.14600
H 	H 	0.17730 0.69360 0.07440 0.52500
H 	H 	0.60500 0.74940 0.54070 0.46400
H 	H 	0.42010 0.39200 0.55970 -0.02600
H 	H 	0.97570 0.39440 0.47630 -0.60100
H 	H 	0.61540 0.44690 0.37970 0.08100
H 	H 	0.77350 0.58970 0.38650 0.15900
H 	H 	0.63980 0.67370 0.18380 0.16500
H 	H 	0.92240 0.49030 0.52570 -0.49400
H 	H 	0.81530 0.78860 0.38590 0.16600
H 	H 	0.89770 0.90220 0.41450 -0.01300
H 	H 	0.01650 0.47110 0.43630 -0.57100
H 	H 	0.75030 0.60260 0.89680 0.54600
H 	H 	0.19440 0.55290 0.23030 0.17600
H 	H 	0.13590 0.58970 0.37280 0.05700
H 	H 	0.81530 0.59730 0.21140 0.16600
H 	H 	0.82270 0.61920 0.92560 0.52500
H 	H 	0.13980 0.32630 0.81620 0.16500
H 	H 	0.03230 0.52430 0.50290 -0.47100
H 	H 	0.85850 0.72870 0.12820 0.47800
H 	H 	0.70370 0.72290 0.55370 0.48400
H 	H 	0.27350 0.41030 0.61350 0.15900
H 	H 	0.17690 0.49280 0.70330 0.13200
H 	H 	0.89500 0.74940 0.20870 0.46400
H 	H 	0.39500 0.20870 0.45930 0.46400
H 	H 	0.10230 0.48770 0.58550 -0.01400
H 	H 	0.24840 0.81250 0.45580 0.06400
H 	H 	0.25030 0.39740 0.10320 0.54600
H 	H 	0.85280 0.43720 0.23090 0.45800
H 	H 	0.72500 0.21680 0.96110 -0.11200
H 	H 	0.76400 0.60310 0.85370 0.50100
H 	H 	0.16440 0.44670 0.66240 0.15600
H 	H 	0.65620 0.31910 0.40870 0.15000
H 	H 	0.80560 0.44710 0.67740 0.17600
H 	H 	0.70110 0.69380 0.50160 0.48300
H 	H 	0.68860 0.61110 0.43630 0.17600
H 	H 	0.86410 0.41030 0.78310 0.05700
H 	H 	0.51650 0.52890 0.56370 -0.57100
H 	H 	0.85280 0.76910 0.20630 0.45800
H 	H 	0.19040 0.62510 0.17740 0.02400
H 	H 	0.80450 0.70760 0.89980 0.50700
H 	H 	0.77350 0.79680 0.41030 0.15900
H 	H 	0.20110 0.50160 0.80780 0.48300
H 	H 	0.19550 0.89980 0.70760 0.50700
H 	H 	0.06070 0.95050 0.53220 -0.59600
H 	H 	0.30960 0.62510 0.44770 0.02400
H 	H 	0.18930 0.12350 0.44600 0.06600
H 	H 	0.84380 0.59130 0.68090 0.15000
H 	H 	0.48350 0.96520 0.43630 -0.57100
H 	H 	0.20040 0.32920 0.46920 0.50700
H 	H 	0.46770 0.52430 0.02140 -0.47100
H 	H 	0.19440 0.67740 0.44710 0.17600
H 	H 	0.65420 0.07770 0.34300 0.50400
H 	H 	0.42240 0.50970 0.47430 -0.49400
H 	H 	0.27160 0.36600 0.24890 0.51200
H 	H 	0.73600 0.25060 0.85370 0.50100
H 	H 	0.02430 0.47630 0.39440 -0.60100
H 	H 	0.27160 0.88290 0.63400 0.51200
H 	H 	0.86020 0.81620 0.32630 0.16500
H 	H 	0.64200 0.76440 0.25340 0.46700
H 	H 	0.38330 0.51730 0.37780 0.21500
H 	H 	0.72840 0.24890 0.36600 0.51200
H 	H 	0.35850 0.12820 0.39950 0.47900
H 	H 	0.07990 0.44030 0.60800 -0.02600
H 	H 	0.03230 0.49710 0.02140 -0.47200
H 	H 	0.24170 0.30250 0.19110 0.49800
H 	H 	0.52550 0.41620 0.83630 0.16100
H 	H 	0.39770 0.48770 0.90220 -0.01300
H 	H 	0.12920 0.05190 0.36450 0.17900
H 	H 	0.22840 0.36600 0.11710 0.51200
H 	H 	0.65420 0.65700 0.73470 0.50400
H 	H 	0.34580 0.92230 0.26530 0.50400
H 	H 	0.12480 0.66790 0.52640 0.18700
H 	H 	0.07990 0.16770 0.55970 -0.02600
H 	H 	0.65350 0.44390 0.79100 0.18800
H 	H 	0.25030 0.89680 0.29420 0.54600
H 	H 	0.72140 0.91510 0.61300 -0.01600
H 	H 	0.91190 0.36430 0.02890 0.18200
H 	H 	0.64150 0.87180 0.27130 0.47900
H 	H 	0.22140 0.08490 0.38700 -0.01600
H 	H 	0.31140 0.17480 0.56370 0.17600
H 	H 	0.67730 0.30640 0.92560 0.52500
H 	H 	0.22140 0.61300 0.69790 -0.01600
H 	H 	0.89500 0.45930 0.25060 0.46400
H 	H 	0.70890 0.19050 0.85550 0.48200
H 	H 	0.84580 0.26530 0.34300 0.50400
H 	H 	0.15620 0.91040 0.31910 0.15000
H 	H 	0.10160 0.57600 0.87200 0.49200
H 	H 	0.39860 0.30850 0.77380 -0.08300
H 	H 	0.85850 0.39950 0.27130 0.47900
H 	H 	0.15620 0.68090 0.59130 0.15000
H 	H 	0.42010 0.16770 0.60800 -0.02600
H 	H 	0.62480 0.33210 0.47360 0.18700
H 	H 	0.63590 0.21690 0.58970 0.05700
H 	H 	0.35850 0.60050 0.72870 0.47900
H 	H 	0.88460 0.44690 0.06720 0.08000
H 	H 	0.83530 0.20900 0.51210 0.16500
H 	H 	0.26400 0.74940 0.60310 0.50000
H 	H 	0.52430 0.08190 0.47630 -0.60100
H 	H 	0.10140 0.46530 0.77380 -0.08300
H 	H 	0.14200 0.23560 0.74660 0.46700
H 	H 	0.55050 0.06030 0.56840 -0.49200
H 	H 	0.80450 0.19220 0.29240 0.50600
H 	H 	0.65120 0.31100 0.36020 0.14700
H 	H 	0.73900 0.92280 0.67830 -0.04000
H 	H 	0.68470 0.59730 0.38590 0.16600
H 	H 	0.89840 0.87200 0.57600 0.49200
H 	H 	0.30560 0.67740 0.23030 0.17600
H 	H 	0.97450 0.16370 0.58380 0.16100
H 	H 	0.31530 0.21140 0.61410 0.16600
H 	H 	0.61540 0.93280 0.55310 0.08100
H 	H 	0.60140 0.69150 0.46530 -0.08300
H 	H 	0.29110 0.33500 0.14450 0.48200
H 	H 	0.37080 0.05190 0.68740 0.17900
H 	H 	0.11540 0.37970 0.93280 0.08000
H 	H 	0.81070 0.87650 0.32250 0.06600
H 	H 	0.10140 0.30850 0.53470 -0.08300
H 	H 	0.66810 0.26480 0.87870 0.49200
H 	H 	0.88330 0.13950 0.51730 0.21500
H 	H 	0.60500 0.79130 0.25060 0.46400
H 	H 	0.74840 0.18750 0.54420 0.06400
H 	H 	0.39840 0.29600 0.87200 0.49200
H 	H 	0.30450 0.89980 0.19220 0.50600
H 	H 	0.29630 0.27710 0.83080 0.48400
H 	H 	0.64150 0.72870 0.60050 0.47900
H 	H 	0.13940 0.10060 0.67650 0.50700
H 	H 	0.11670 0.62220 0.48270 0.21500
H 	H 	0.06070 0.58170 0.04950 -0.59600
H 	H 	0.01650 0.56370 0.03480 -0.57200
H 	H 	0.76400 0.14630 0.74940 0.50100
H 	H 	0.10160 0.12800 0.70400 0.49200
H 	H 	0.15120 0.95080 0.31100 0.14800
H 	H 	0.61670 0.13950 0.62220 0.21500
H 	H 	0.75830 0.11140 0.80890 0.49900
H 	H 	0.75830 0.69750 0.88860 0.49900
H 	H 	0.50710 0.89070 0.45980 -0.21900
H 	H 	0.35280 0.23090 0.79370 0.45800
H 	H 	0.31530 0.40270 0.78860 0.16600
H 	H 	0.77500 0.03890 0.78320 -0.11200
H 	H 	0.79110 0.66500 0.85550 0.48200
H 	H 	0.39770 0.41450 0.51230 -0.01400
H 	H 	0.70110 0.80780 0.30620 0.48300
H 	H 	0.63940 0.67650 0.57590 0.50700
H 	H 	0.01160 0.41330 0.52550 -0.22000
H 	H 	0.65350 0.20900 0.65290 0.18800
H 	H 	0.77500 0.74430 0.96110 -0.11200
H 	H 	0.05050 0.93970 0.43160 -0.49200
H 	H 	0.19400 0.93920 0.32220 0.14700
H 	H 	0.79890 0.49840 0.30620 0.48300
H 	H 	0.26400 0.85370 0.25060 0.50100
H 	H 	0.10140 0.22620 0.69150 -0.08300
H 	H 	0.32310 0.49280 0.78950 0.13200
H 	H 	0.16440 0.33760 0.78430 0.15600
H 	H 	0.15120 0.36020 0.04920 0.14800
H 	H 	0.39500 0.54070 0.74940 0.46400
H 	H 	0.68470 0.61410 0.21140 0.16600
H 	H 	0.69440 0.44710 0.76970 0.17600
H 	H 	0.15620 0.40870 0.08960 0.15000
H 	H 	0.61670 0.48270 0.86050 0.21500
H 	H 	0.15420 0.73470 0.07770 0.50400
H 	H 	0.10500 0.20870 0.74940 0.46400
H 	H 	0.37810 0.67060 0.99850 0.17400
H 	H 	0.79890 0.69380 0.19220 0.48300
H 	H 	0.97690 0.93200 0.47500 -0.20000
H 	H 	0.22840 0.75110 0.63400 0.51200
H 	H 	0.65350 0.34710 0.55610 0.18800
H 	H 	0.75160 0.18750 0.64330 0.06400
H 	H 	0.66810 0.12130 0.38610 0.49200
H 	H 	0.12480 0.85850 0.33210 0.18800
H 	H 	0.29630 0.55370 0.72290 0.48400
H 	H 	0.37810 0.32790 0.32940 0.17400
H 	H 	0.76100 0.75550 0.67830 -0.04000
H 	H 	0.86020 0.51010 0.18380 0.16500
H 	H 	0.62920 0.94810 0.63550 0.17900
H 	H 	0.96770 0.02140 0.49710 -0.47200
H 	H 	0.55050 0.43160 0.49190 -0.49200
H 	H 	0.18860 0.38890 0.56370 0.17600
H 	H 	0.34380 0.40870 0.31910 0.15000
H 	H 	0.33190 0.87870 0.26480 0.49200
H 	H 	0.83190 0.61390 0.87870 0.49200
H 	H 	0.66440 0.66240 0.21570 0.15600
H 	H 	0.80960 0.44770 0.82260 0.02400
H 	H 	0.10500 0.25060 0.45930 0.46400
H 	H 	0.47690 0.06800 0.52500 -0.19900
H 	H 	0.15420 0.92230 0.65700 0.50400
H 	H 	0.55050 0.50810 0.93970 -0.49200
H 	H 	0.34880 0.68900 0.04920 0.14800
H 	H 	0.57990 0.60800 0.16770 -0.02600
H 	H 	0.61880 0.09530 0.62430 0.22400
H 	H 	0.18470 0.40270 0.61410 0.16600
H 	H 	0.60160 0.87200 0.29600 0.49200
H 	H 	0.66440 0.55330 0.33760 0.15600
H 	H 	0.10500 0.54070 0.79130 0.46400
H 	H 	0.14150 0.60050 0.87180 0.47800
H 	H 	0.33190 0.38610 0.12130 0.49200
H 	H 	0.00710 0.10930 0.54020 -0.21900
H 	H 	0.37520 0.85850 0.52640 0.18700
H 	H 	0.36060 0.32350 0.89940 0.50700
H 	H 	0.30600 0.38300 0.32220 0.14600
H 	H 	0.82270 0.07440 0.69360 0.52500
H 	H 	0.81140 0.56370 0.38890 0.17600
H 	H 	0.66440 0.78430 0.44670 0.15600
H 	H 	0.86020 0.67370 0.48990 0.16500
H 	H 	0.79890 0.80780 0.50160 0.48300
H 	H 	0.41190 0.02890 0.66460 0.18200
H 	H 	0.47690 0.47500 0.54300 -0.19900
H 	H 	0.15350 0.79100 0.34710 0.18800
H 	H 	0.79960 0.46920 0.32920 0.50700
H 	H 	0.47450 0.57990 0.16370 0.16100
H 	H 	0.20890 0.33500 0.19050 0.48200
H 	H 	0.69550 0.70760 0.80780 0.50600
H 	H 	0.57760 0.47430 0.50970 -0.49400
H 	H 	0.33190 0.73520 0.61390 0.49200
H 	H 	0.39860 0.22620 0.53470 -0.08300
H 	H 	0.33560 0.44670 0.78430 0.15600
H 	H 	0.34580 0.73470 0.65700 0.50400
H 	H 	0.63980 0.51010 0.32630 0.16500
H 	H 	0.00710 0.45980 0.56910 -0.21900
H 	H 	0.36020 0.18380 0.67370 0.16500
H 	H 	0.69040 0.44770 0.62510 0.02400
H 	H 	0.35280 0.20630 0.43720 0.45800
H 	H 	0.77160 0.63400 0.75110 0.51200
H 	H 	0.22650 0.20320 0.61350 0.15900
H 	H 	0.87080 0.94810 0.31260 0.17900
H 	H 	0.80560 0.23030 0.55290 0.17600
H 	H 	0.02550 0.83630 0.42010 0.16100
H 	H 	0.27860 0.61300 0.91510 -0.01600
H 	H 	0.76100 0.32170 0.07720 -0.04000
H 	H 	0.19440 0.76970 0.32260 0.17600
H 	H 	0.33530 0.51210 0.30310 0.16500
H 	H 	0.47570 0.91810 0.39440 -0.60100
H 	H 	0.18860 0.43630 0.82520 0.17600
H 	H 	0.67730 0.61920 0.69360 0.52500
H 	H 	0.60230 0.51230 0.41450 -0.01400
H 	H 	0.19550 0.29240 0.19220 0.50600
H 	H 	0.22500 0.78320 0.03890 -0.11200
H 	H 	0.69040 0.17740 0.55230 0.02400
H 	H 	0.98350 0.03480 0.56370 -0.57200
H 	H 	0.32310 0.29670 0.50720 0.13200
H 	H 	0.02430 0.91810 0.52370 -0.60100
H 	H 	0.27500 0.25570 0.03890 -0.11200
H 	H 	0.69440 0.23030 0.67740 0.17600
H 	H 	0.12920 0.31260 0.94810 0.17900
H 	H 	0.11540 0.55310 0.62030 0.08100
H 	H 	0.16470 0.51210 0.20900 0.16500
H 	H 	0.43930 0.58170 0.53220 -0.59600
H 	H 	0.34650 0.79100 0.44390 0.18800
H 	H 	0.36060 0.57590 0.67650 0.50700
H 	H 	0.36020 0.48990 0.81620 0.16500
H 	H 	0.89840 0.42400 0.29600 0.49200
H 	H 	0.13590 0.62720 0.21690 0.05700
H 	H 	0.98840 0.58670 0.11220 -0.22000
H 	H 	0.24970 0.89680 0.60260 0.54600
H 	H 	0.75160 0.35670 0.54420 0.06400
H 	H 	0.25160 0.54420 0.18750 0.06400
H 	H 	0.24970 0.39740 0.29420 0.54600
H 	H 	0.70890 0.14450 0.33500 0.48200
H 	H 	0.52550 0.42010 0.58380 0.16100
H 	H 	0.24840 0.64330 0.18750 0.06400
H 	H 	0.60230 0.58550 0.09780 -0.01300
H 	H 	0.86060 0.67650 0.10060 0.50700
H 	H 	0.29960 0.53080 0.67080 0.50700
H 	H 	0.12190 0.00150 0.32940 0.17300
H 	H 	0.69400 0.61700 0.93920 0.14700
H 	H 	0.56070 0.41830 0.95050 -0.59600
H 	H 	0.66470 0.48790 0.79100 0.16500
H 	H 	0.31530 0.38590 0.59730 0.16600
H 	H 	0.64150 0.39950 0.12820 0.47900
H 	H 	0.02310 0.06800 0.54300 -0.20000
H 	H 	0.89770 0.58550 0.48770 -0.01400
H 	H 	0.57990 0.83230 0.44030 -0.02600
H 	H 	0.22500 0.25570 0.21680 -0.11100
H 	H 	0.51160 0.88780 0.41330 -0.22000
H 	H 	0.65620 0.08960 0.68090 0.15000
H 	H 	0.70040 0.46920 0.14000 0.50700
H 	H 	0.29110 0.80950 0.66500 0.48200
H 	H 	0.24170 0.88860 0.69750 0.49900
H 	H 	0.14720 0.56280 0.79370 0.45800
H 	H 	0.76100 0.92280 0.24450 -0.04000
H 	H 	0.52310 0.52500 0.06800 -0.19900
H 	H 	0.72650 0.58970 0.20320 0.15900
H 	H 	0.52430 0.52370 0.60560 -0.60100
H 	H 	0.20110 0.30620 0.49840 0.48300
H 	H 	0.72140 0.69790 0.08490 -0.01600
H 	H 	0.77350 0.61350 0.20320 0.15900
H 	H 	0.49290 0.43090 0.54020 -0.21900
H 	H 	0.60140 0.77380 0.30850 -0.08300
H 	H 	0.15350 0.65290 0.44390 0.18800
H 	H 	0.89860 0.53470 0.30850 -0.08300
H 	H 	0.23900 0.24450 0.92280 -0.04000
H 	H 	0.75030 0.10320 0.70580 0.54600
H 	H 	0.06070 0.46780 0.41830 -0.59600
H 	H 	0.02430 0.60560 0.08190 -0.60100
H 	H 	0.80600 0.61700 0.67780 0.14600
H 	H 	0.38460 0.06720 0.62030 0.08100
H 	H 	0.65420 0.26530 0.92230 0.50400
H 	H 	0.22650 0.38650 0.58970 0.15900
H 	H 	0.92010 0.60800 0.44030 -0.02600
H 	H 	0.87810 0.67210 0.67060 0.17400
H 	H 	0.97690 0.54300 0.06800 -0.20000
H 	H 	0.16470 0.69690 0.48790 0.16500
H 	H 	0.27500 0.96110 0.21680 -0.11200
H 	H 	0.34380 0.91040 0.59130 0.15000
H 	H 	0.02310 0.47500 0.93200 -0.20000
H 	H 	0.32310 0.21050 0.70330 0.13200
H 	H 	0.68470 0.78860 0.40270 0.16600
H 	H 	0.25030 0.70580 0.60260 0.54600
H 	H 	0.18930 0.32250 0.87650 0.06600
H 	H 	0.72840 0.63400 0.88290 0.51200
H 	H 	0.57760 0.03540 0.52570 -0.49400
H 	H 	0.64720 0.43720 0.20630 0.45800
H 	H 	0.18930 0.55400 0.67750 0.06600
H 	H 	0.94950 0.43160 0.93970 -0.49200
H 	H 	0.87810 0.99850 0.32790 0.17300
H 	H 	0.23600 0.39690 0.25060 0.50000
H 	H 	0.84880 0.63980 0.68900 0.14700
H 	H 	0.38120 0.90470 0.52900 0.22400
H 	H 	0.75160 0.45580 0.81250 0.06400
H 	H 	0.73600 0.14630 0.39690 0.50100
H 	H 	0.12190 0.67060 0.67210 0.17400
H 	H 	0.47570 0.60560 0.52370 -0.60100
H 	H 	0.35800 0.23560 0.48900 0.46700
H 	H 	0.22140 0.30210 0.91510 -0.01600
H 	H 	0.18470 0.21140 0.59730 0.16600
H 	H 	0.19550 0.80780 0.10020 0.50700
H 	H 	0.66470 0.30310 0.51210 0.16500
H 	H 	0.63980 0.81620 0.48990 0.16500
H 	H 	0.81070 0.44600 0.12350 0.06600
H 	H 	0.25830 0.30250 0.11140 0.49800
H 	H 	0.10160 0.29600 0.42400 0.49200
H 	H 	0.73900 0.32170 0.24450 -0.04000
H 	H 	0.39840 0.57600 0.70400 0.49200
H 	H 	0.35280 0.56280 0.76910 0.45800
H 	H 	0.47450 0.58380 0.42010 0.16100
H 	H 	0.91190 0.66460 0.63570 0.18200
H 	H 	0.34380 0.68090 0.08960 0.15000
H 	H 	0.01160 0.11220 0.58670 -0.22000
H 	H 	0.79110 0.19050 0.33500 0.48200
H 	H 	0.74970 0.10320 0.39740 0.54600
H 	H 	0.31070 0.32250 0.44600 0.06600
H 	H 	0.96770 0.50290 0.52430 -0.47100
H 	H 	0.39500 0.25060 0.79130 0.46400
H 	H 	0.69400 0.06080 0.67780 0.14700
H 	H 	0.37520 0.47360 0.33210 0.18700
H 	H 	0.83560 0.55330 0.21570 0.15600
H 	H 	0.88120 0.37570 0.90470 0.22400
H 	H 	0.19040 0.82260 0.44770 0.02400
H 	H 	0.02310 0.45700 0.52500 -0.19900
H 	H 	0.27160 0.75110 0.11710 0.51200
H 	H 	0.61540 0.62030 0.06720 0.08100
H 	H 	0.12190 0.32790 0.99850 0.17300
H 	H 	0.73600 0.60310 0.74940 0.50000
H 	H 	0.47570 0.47630 0.08190 -0.60100
H 	H 	0.42240 0.52570 0.03540 -0.49400
H 	H 	0.80960 0.37490 0.55230 0.02400
H 	H 	0.72500 0.74430 0.78320 -0.11100
H 	H 	0.20370 0.27710 0.44630 0.48400
H 	H 	0.25830 0.88860 0.19110 0.49800
H 	H 	0.11880 0.47100 0.09530 0.22400
H 	H 	0.48840 0.11220 0.52550 -0.22000
H 	H 	0.26100 0.24450 0.32170 -0.04000
H 	H 	0.80450 0.10020 0.80780 0.50700
H 	H 	0.98350 0.43630 0.47110 -0.57100
H 	H 	0.75830 0.19110 0.30250 0.49800
H 	H 	0.94950 0.50810 0.56840 -0.49200
H 	H 	0.87810 0.32940 0.00150 0.17300
H 	H 	0.20110 0.19220 0.69380 0.48300
H 	H 	0.24840 0.54420 0.35670 0.06400
H 	H 	0.84580 0.07770 0.73470 0.50400
H 	H 	0.13940 0.57590 0.89940 0.50700
H 	H 	0.08810 0.63570 0.66460 0.18200
H 	H 	0.73900 0.75550 0.07720 -0.04000
H 	H 	0.67690 0.70330 0.21050 0.13200
H 	H 	0.74170 0.19110 0.88860 0.49800
H 	H 	0.85850 0.87180 0.60050 0.47800
H 	H 	0.79630 0.72290 0.16920 0.48400
H 	H 	0.37080 0.31260 0.36450 0.17900
H 	H 	0.30450 0.29240 0.10020 0.50600
H 	H 	0.70040 0.67080 0.53080 0.50700
H 	H 	0.07990 0.39200 0.83230 -0.02600
H 	H 	0.01160 0.47450 0.88780 -0.22000
H 	H 	0.99290 0.56910 0.45980 -0.21900
H 	H 	0.80600 0.06080 0.38300 0.14700
H 	H 	0.41190 0.63570 0.97110 0.18200
H 	H 	0.88330 0.48270 0.62220 0.21500
H 	H 	0.83190 0.12130 0.73520 0.49200
H 	H 	0.70040 0.86000 0.32920 0.50700
H 	H 	0.35800 0.25340 0.76440 0.46700
H 	H 	0.51650 0.43630 0.96520 -0.57100
H 	H 	0.27500 0.78320 0.74430 -0.11100
H 	H 	0.83530 0.30310 0.79100 0.16500
H 	H 	0.72650 0.79680 0.38650 0.15900
H 	H 	0.85800 0.76440 0.51100 0.46700
H 	H 	0.52550 0.16370 0.57990 0.16100
H 	H 	0.81070 0.67750 0.55400 0.06600
H 	H 	0.17730 0.92560 0.61920 0.52500
H 	H 	0.62920 0.36450 0.31260 0.17900
H 	H 	0.84650 0.20900 0.55610 0.18800
H 	H 	0.82270 0.30640 0.38080 0.52500
H 	H 	0.44950 0.56840 0.06030 -0.49200
H 	H 	0.48840 0.47450 0.58670 -0.22000
H 	H 	0.13980 0.48990 0.67370 0.16500
H 	H 	0.27860 0.30210 0.38700 -0.01600
H 	H 	0.14720 0.20630 0.76910 0.45800
H 	H 	0.27860 0.08490 0.69790 -0.01600
H 	H 	0.85800 0.48900 0.25340 0.46700
H 	H 	0.30960 0.55230 0.17740 0.02400
H 	H 	0.13940 0.32350 0.42410 0.50700
H 	H 	0.77160 0.11710 0.36600 0.51200
H 	H 	0.39860 0.46530 0.69150 -0.08300
H 	H 	0.60140 0.53470 0.22620 -0.08300
H 	H 	0.89840 0.70400 0.12800 0.49200
H 	H 	0.93930 0.53220 0.95050 -0.59600
H 	H 	0.27350 0.20320 0.58970 0.15900
H 	H 	0.10230 0.09780 0.51230 -0.01300
H 	H 	0.36410 0.78310 0.37280 0.05700
H 	H 	0.68930 0.44600 0.32250 0.06600
H 	H 	0.68860 0.56370 0.17480 0.17600
H 	H 	0.74170 0.69750 0.80890 0.49800
H 	H 	0.64720 0.79370 0.23090 0.45800
H 	H 	0.52310 0.54300 0.47500 -0.19900
H 	H 	0.98840 0.88780 0.47450 -0.22000
H 	H 	0.14720 0.23090 0.43720 0.45800
H 	H 	0.32270 0.92560 0.30640 0.52500
H 	H 	0.56070 0.04950 0.46780 -0.59600
H 	H 	0.46770 0.49710 0.47570 -0.47100
H 	H 	0.85280 0.79370 0.56280 0.45800
H 	H 	0.77500 0.21680 0.25570 -0.11100
H 	H 	0.07760 0.96460 0.47430 -0.49500
H 	H 	0.42240 0.96460 0.49030 -0.49400
H 	H 	0.91190 0.97110 0.33540 0.18100
H 	H 	0.30450 0.80780 0.70760 0.50600
H 	H 	0.16470 0.79100 0.30310 0.16500
H 	H 	0.15120 0.68900 0.63980 0.14700
H 	H 	0.82310 0.78950 0.29670 0.13200
H 	H 	0.31140 0.43630 0.61110 0.17600
H 	H 	0.52430 0.39440 0.91810 -0.60100
H 	H 	0.36410 0.58970 0.21690 0.05700
H 	H 	0.57760 0.49030 0.96460 -0.49400
H 	H 	0.72650 0.61350 0.41030 0.15900
H 	H 	0.18470 0.38590 0.78860 0.16600
H 	H 	0.62190 0.99850 0.67060 0.17400
H 	H 	0.30560 0.76970 0.44710 0.17600
H 	H 	0.83560 0.78430 0.33760 0.15600
H 	H 	0.16810 0.73520 0.12130 0.49200
H 	H 	0.98350 0.52890 0.96520 -0.57200
H 	H 	0.11540 0.06720 0.44690 0.08000
H 	H 	0.08810 0.33540 0.97110 0.18100
H 	H 	0.89860 0.69150 0.22620 -0.08300
H 	H 	0.20040 0.14000 0.67080 0.50700
H 	H 	0.92010 0.83230 0.39200 -0.02600
H 	H 	0.31140 0.38890 0.82520 0.17600
H 	H 	0.17690 0.29670 0.78950 0.13200
H 	H 	0.23900 0.07720 0.32170 -0.04000
H 	H 	0.79630 0.83080 0.55370 0.48400
H 	H 	0.74170 0.11140 0.30250 0.49800
H 	H 	0.64200 0.74660 0.51100 0.46700
H 	H 	0.57990 0.55970 0.39200 -0.02600
H 	H 	0.79960 0.67080 0.14000 0.50700
H 	H 	0.50710 0.54020 0.43090 -0.21900
H 	H 	0.68860 0.82520 0.38890 0.17600
H 	H 	0.63940 0.42410 0.10060 0.50700
H 	H 	0.30560 0.55290 0.32260 0.17600
H 	H 	0.33530 0.79100 0.48790 0.16500
H 	H 	0.88460 0.62030 0.55310 0.08100
H 	H 	0.63940 0.89940 0.32350 0.50700
H 	H 	0.20890 0.85550 0.66500 0.48200
H 	H 	0.51160 0.58670 0.47450 -0.22000
H 	H 	0.20890 0.80950 0.14450 0.48200
H 	H 	0.24970 0.70580 0.10320 0.54600
H 	H 	0.84650 0.44390 0.65290 0.18800
H 	H 	0.89770 0.51230 0.09780 -0.01300
H 	H 	0.29960 0.32920 0.86000 0.50700
H 	H 	0.61670 0.37780 0.51730 0.21500
H 	H 	0.82310 0.70330 0.49280 0.13200
H 	H 	0.97570 0.52370 0.91810 -0.60100
H 	H 	0.80560 0.32260 0.76970 0.17600
H 	H 	0.26100 0.07720 0.75550 -0.04000
H 	H 	0.51650 0.03480 0.47110 -0.57100
H 	H 	0.72840 0.11710 0.75110 0.51200
H 	H 	0.84380 0.31910 0.91040 0.15000
H 	H 	0.12480 0.47360 0.14150 0.18700
H 	H 	0.62190 0.67210 0.00150 0.17400
H 	H 	0.65120 0.63980 0.95080 0.14800
H 	H 	0.23900 0.67830 0.75550 -0.04000
H 	H 	0.93930 0.04950 0.58170 -0.59600
H 	H 	0.10230 0.41450 0.90220 -0.01300
H 	H 	0.14200 0.51100 0.76440 0.46700
H 	H 	0.68930 0.87650 0.55400 0.06600
H 	H 	0.64200 0.48900 0.23560 0.46700
H 	H 	0.14200 0.25340 0.48900 0.46700
H 	H 	0.60160 0.42400 0.12800 0.49200
H 	H 	0.22650 0.41030 0.79680 0.15900
H 	H 	0.60160 0.70400 0.57600 0.49200
H 	H 	0.37520 0.66790 0.14150 0.18700
H 	H 	0.80600 0.32220 0.93920 0.14700
H 	H 	0.49290 0.10930 0.56910 -0.21900
H 	H 	0.34650 0.55610 0.34710 0.18800
H 	H 	0.97690 0.52500 0.45700 -0.19900
H 	H 	0.39770 0.09780 0.58550 -0.01300
H 	H 	0.87520 0.33210 0.85850 0.18800
H 	H 	0.08810 0.02890 0.36430 0.18200
H 	H 	0.69440 0.32260 0.55290 0.17600
H 	H 	0.05050 0.49190 0.06030 -0.49300
H 	H 	0.69550 0.10020 0.29240 0.50600
H 	H 	0.14150 0.27130 0.39950 0.47900
H 	H 	0.23600 0.74940 0.14630 0.50100
H 	H 	0.62190 0.32940 0.32790 0.17400
H 	H 	0.70890 0.66500 0.80950 0.48200
H 	H 	0.46770 0.97860 0.50290 -0.47100
H 	H 	0.81140 0.61110 0.17480 0.17600
H 	H 	0.31070 0.12350 0.67750 0.06600
H 	H 	0.84380 0.08960 0.40870 0.15000
H 	H 	0.76400 0.25060 0.39690 0.50000
H 	H 	0.62920 0.68740 0.05190 0.17900
H 	H 	0.65620 0.59130 0.91040 0.15000
H 	H 	0.52310 0.93200 0.45700 -0.19900
H 	H 	0.97570 0.08190 0.60560 -0.60100
H 	H 	0.97450 0.42010 0.83630 0.16100
H 	H 	0.58810 0.66460 0.02890 0.18200
H 	H 	0.77860 0.38700 0.08490 -0.01600
H 	H 	0.16810 0.38610 0.26480 0.49200
H 	H 	0.33560 0.33760 0.55330 0.15600
H 	H 	0.39840 0.12800 0.42400 0.49200
H 	H 	0.69040 0.37490 0.82260 0.02400
H 	H 	0.56070 0.53220 0.58170 -0.59600
H 	H 	0.86060 0.42410 0.32350 0.50700
H 	H 	0.83560 0.66240 0.44670 0.15600
H 	H 	0.34650 0.65290 0.20900 0.18800
H 	H 	0.67730 0.07440 0.38080 0.52500
H 	H 	0.29110 0.85550 0.19050 0.48200
H 	H 	0.48350 0.56370 0.52890 -0.57100
H 	H 	0.63590 0.37280 0.78310 0.05700
H 	H 	0.38330 0.62220 0.13950 0.21500
H 	H 	0.53230 0.47570 0.49710 -0.47100
H 	H 	0.17690 0.21050 0.50720 0.13200
H 	H 	0.92240 0.03540 0.50970 -0.49500
H 	H 	0.37810 0.00150 0.67210 0.17400
H 	H 	0.96770 0.47570 0.97860 -0.47200
H 	H 	0.94950 0.06030 0.49190 -0.49300
H 	H 	0.38330 0.86050 0.48270 0.21500
H 	H 	0.88120 0.09530 0.47100 0.22400
H 	H 	0.29890 0.30620 0.80780 0.48300
H 	H 	0.66470 0.20900 0.69690 0.16500
H 	H 	0.70370 0.83080 0.27710 0.48400
H 	H 	0.70110 0.49840 0.19220 0.48300
H 	H 	0.13980 0.18380 0.51010 0.16500
H 	H 	0.86060 0.89940 0.57590 0.50700
H 	H 	0.69400 0.32220 0.38300 0.14600
H 	H 	0.70370 0.44630 0.16920 0.48400
H 	H 	0.72140 0.38700 0.30210 -0.01600
H 	H 	0.87080 0.68740 0.63550 0.17900
H 	H 	0.47690 0.45700 0.93200 -0.19900
H 	H 	0.85800 0.74660 0.23560 0.46700
H 	H 	0.89500 0.79130 0.54070 0.46400
H 	H 	0.35800 0.51100 0.74660 0.46700
H 	H 	0.02550 0.58380 0.16370 0.16100
H 	H 	0.62480 0.52640 0.85850 0.18700
H 	H 	0.36060 0.10060 0.42410 0.50700
H 	H 	0.30600 0.67780 0.06080 0.14700
H 	H 	0.11880 0.90470 0.37570 0.22400
H 	H 	0.12920 0.63550 0.68740 0.17900
H 	H 	0.31070 0.55400 0.87650 0.06600
H 	H 	0.74970 0.60260 0.70580 0.54600
H 	H 	0.17730 0.38080 0.30640 0.52500
H 	H 	0.83530 0.48790 0.69690 0.16500
H 	H 	0.26100 0.67830 0.92280 -0.04000
H 	H 	0.60230 0.90220 0.48770 -0.01300
H 	H 	0.80960 0.17740 0.62510 0.02400
H 	H 	0.27350 0.38650 0.79680 0.15900
H 	H 	0.86410 0.37280 0.58970 0.05700
H 	H 	0.82310 0.50720 0.21050 0.13200
H 	H 	0.29890 0.19220 0.49840 0.48300
H 	H 	0.51160 0.52550 0.11220 -0.22000
H 	H 	0.93930 0.41830 0.46780 -0.59600
H 	H 	0.81140 0.82520 0.43630 0.17600
H 	H 	0.33560 0.21570 0.66240 0.15600
H 	H 	0.60500 0.45930 0.20870 0.46400
H 	H 	0.77160 0.24890 0.88290 0.51200
H 	H 	0.72500 0.03890 0.25570 -0.11200
H 	H 	0.43930 0.46780 0.04950 -0.59600
H 	H 	0.87520 0.52640 0.66790 0.18700
H 	H 	0.67690 0.50720 0.29670 0.13200
H 	H 	0.29630 0.16920 0.44630 0.48400
H 	H 	0.29890 0.50160 0.69380 0.48300
H 	H 	0.32270 0.38080 0.07440 0.52500
H 	H 	0.15350 0.55610 0.20900 0.18800
H 	H 	0.61880 0.52900 0.90470 0.22400
H 	H 	0.22840 0.88290 0.24890 0.51200
H 	H 	0.36020 0.32630 0.51010 0.16500
H 	H 	0.11670 0.51730 0.13950 0.21500
H 	H 	0.53230 0.02140 0.52430 -0.47100
H 	H 	0.99290 0.54020 0.10930 -0.21900
H 	H 	0.79110 0.14450 0.80950 0.48200
H 	H 	0.18860 0.17480 0.61110 0.17600
H 	H 	0.38120 0.47100 0.37570 0.22400
H 	H 	0.44950 0.49190 0.43160 -0.49200
H 	H 	0.79630 0.44630 0.27710 0.48400
H 	H 	0.23600 0.85370 0.60310 0.50100
H 	H 	0.32270 0.69360 0.61920 0.52500
H 	H 	0.97450 0.41620 0.57990 0.16100
H 	H 	0.38460 0.37970 0.44690 0.08100
H 	H 	0.00710 0.43090 0.89070 -0.21900
H 	H 	0.62480 0.14150 0.66790 0.18700
H 	H 	0.07760 0.52570 0.49030 -0.49400
H 	H 	0.03230 0.97860 0.47570 -0.47200
H 	H 	0.30600 0.93920 0.61700 0.14700
H 	H 	0.34580 0.34300 0.07770 0.50400
H 	H 	0.36410 0.62720 0.41030 0.05700
H 	H 	0.11880 0.62430 0.52900 0.22400
H 	H 	0.19040 0.55230 0.37490 0.02400
H 	H 	0.64720 0.76910 0.56280 0.45800
H 	H 	0.61880 0.37570 0.47100 0.22400
H 	H 	0.69550 0.19220 0.89980 0.50600
H 	H 	0.44950 0.93970 0.50810 -0.49200
H 	H 	0.88460 0.93280 0.37970 0.08000
H 	H 	0.11670 0.86050 0.37780 0.21500
H 	H 	0.13590 0.78310 0.41030 0.05700
H 	H 	0.48840 0.41330 0.88780 -0.22000
H 	H 	0.84580 0.65700 0.92230 0.50400
H 	H 	0.07760 0.50970 0.03540 -0.49500
H 	H 	0.75030 0.29420 0.39740 0.54600
H 	H 	0.88120 0.52900 0.62430 0.22400
H 	H 	0.65120 0.04920 0.68900 0.14800
H 	H 	0.81530 0.61410 0.40270 0.16600
H 	H 	0.92010 0.55970 0.16770 -0.02600
H 	H 	0.92240 0.47430 0.96460 -0.49500
H 	H 	0.35850 0.27130 0.87180 0.47900
H 	H 	0.14150 0.12820 0.72870 0.47800
H 	H 	0.98840 0.52550 0.41330 -0.22000
H 	H 	0.29960 0.14000 0.46920 0.50700
H 	H 	0.16810 0.87870 0.61390 0.49200
H 	H 	0.34880 0.95080 0.63980 0.14800
H 	H 	0.25160 0.81250 0.35670 0.06400
H 	H 	0.77860 0.91510 0.30210 -0.01600
H 	H 	0.99290 0.89070 0.43090 -0.21900
H 	H 	0.87080 0.36450 0.05190 0.17900
H 	H 	0.49290 0.45980 0.89070 -0.21900
H 	H 	0.15420 0.34300 0.26530 0.50400
H 	H 	0.74840 0.35670 0.81250 0.06400
H 	H 	0.50710 0.56910 0.10930 -0.21900
H 	H 	0.84880 0.04920 0.36020 0.14800
H 	H 	0.74840 0.45580 0.64330 0.06400
H 	H 	0.79960 0.86000 0.53080 0.50700
H 	H 	0.20370 0.16920 0.72290 0.48400
H 	H 	0.16440 0.21570 0.55330 0.15600
H 	H 	0.25830 0.80890 0.69750 0.49800
H 	H 	0.25160 0.64330 0.45580 0.06400
H 	H 	0.83190 0.26480 0.38610 0.49200
H 	H 	0.63590 0.41030 0.62720 0.05700
H 	H 	0.87520 0.14150 0.47360 0.18700
H 	H 	0.05050 0.56840 0.50810 -0.49200
H 	H 	0.58810 0.36430 0.33540 0.18200
H 	H 	0.48350 0.47110 0.03480 -0.57100
H 	H 	0.33530 0.69690 0.20900 0.16500
H 	H 	0.38460 0.55310 0.93280 0.08100
H 	H 	0.89860 0.77380 0.46530 -0.08300
H 	H 	0.22500 0.96110 0.74430 -0.11200
H 	H 	0.24170 0.80890 0.11140 0.49900
H 	H 	0.38120 0.62430 0.09530 0.22400
H 	H 	0.20040 0.53080 0.86000 0.50700
H 	H 	0.84880 0.31100 0.95080 0.14800
H 	H 	0.88330 0.37780 0.86050 0.21500
H 	H 	0.67690 0.78950 0.49280 0.13200
H 	H 	0.20370 0.55370 0.83080 0.48400
H 	H 	0.86410 0.21690 0.62720 0.05700
H 	H 	0.41190 0.33540 0.36430 0.18200
H 	H 	0.02550 0.57990 0.41620 0.16100
H 	H 	0.47450 0.83630 0.41620 0.16100
H 	H 	0.19400 0.38300 0.06080 0.14700
H 	H 	0.42010 0.44030 0.83230 -0.02600
H 	H 	0.74970 0.29420 0.89680 0.54600
H 	H 	0.34880 0.36020 0.31100 0.14700
H 	H 	0.26400 0.39690 0.14630 0.50100
H 	H 	0.53230 0.50290 0.97860 -0.47100
C 	C 	0.71314 0.84597 0.45167 0.07100
C 	C 	0.06430 0.75750 0.37640 0.36800
C 	C 	0.46060 0.52380 0.07600 -1.65000
C 	C 	0.19210 0.30340 0.47070 -1.60700
C 	C 	0.63390 0.79150 0.25440 -1.54000
C 	C 	0.28686 0.15403 0.60570 0.07100
C 	C 	0.87040 0.36370 0.87510 -0.60800
C 	C 	0.77000 0.04110 0.72610 -0.62600
C 	C 	0.73990 0.66530 0.68110 0.47400
C 	C 	0.83380 0.80480 0.32650 -0.50200
C 	C 	0.65708 0.59252 0.97177 0.04600
C 	C 	0.25320 0.26220 0.30980 0.19400
C 	C 	0.69480 0.51314 0.35719 0.07700
C 	C 	0.63435 0.45110 0.60110 -0.02300
C 	C 	0.35420 0.16830 0.46810 1.10200
C 	C 	0.71550 0.11370 0.31560 -1.67700
C 	C 	0.71620 0.08930 0.34250 1.25000
C 	C 	0.76402 0.08060 0.48755 0.13900
C 	C 	0.94920 0.46360 0.95400 1.80700
C 	C 	0.42183 0.60770 0.41038 -0.00400
C 	C 	0.36995 0.39684 0.43790 -0.13800
C 	C 	0.32500 0.72550 0.63470 -1.67000
C 	C 	0.17530 0.67000 0.46330 -0.55300
C 	C 	0.73598 0.40695 0.48755 0.13900
C 	C 	0.75390 0.26260 0.37900 -1.73400
C 	C 	0.36995 0.04106 0.60316 -0.13800
C 	C 	0.63060 0.42480 0.12740 -1.58200
C 	C 	0.24850 0.66320 0.69170 -0.31000
C 	C 	0.30503 0.91850 0.52111 -0.12000
C 	C 	0.87040 0.12490 0.48860 -0.60800
C 	C 	0.62610 0.65600 0.49130 -0.48800
C 	C 	0.67518 0.12212 0.62742 0.10100
C 	C 	0.61820 0.56230 0.09550 0.15100
C 	C 	0.35331 0.43736 0.46961 0.01100
C 	C 	0.03940 0.92400 0.47620 -1.65200
C 	C 	0.21550 0.79810 0.11370 -1.67700
C 	C 	0.80503 0.08150 0.47889 -0.12000
C 	C 	0.44920 0.95400 0.49040 1.80500
C 	C 	0.88675 0.55263 0.42300 -0.28400
C 	C 	0.91298 0.57640 0.37330 -0.26900
C 	C 	0.80503 0.39739 0.91850 -0.12000
C 	C 	0.66620 0.67350 0.19520 -0.50200
C 	C 	0.23822 0.11835 0.53980 -0.10100
C 	C 	0.61820 0.90450 0.46680 0.15100
C 	C 	0.82628 0.03704 0.44799 -0.08700
C 	C 	0.86565 0.39890 0.54890 -0.02300
C 	C 	0.20220 0.40280 0.59200 -0.52500
C 	C 	0.26260 0.63310 0.16094 -0.13400
C 	C 	0.23598 0.48755 0.08060 0.13900
C 	C 	0.00480 0.44410 0.53710 0.87500
C 	C 	0.76010 0.31890 0.33470 0.47400
C 	C 	0.90853 0.83310 0.41700 0.18500
C 	C 	0.10899 0.58160 0.11298 -0.05000
C 	C 	0.20220 0.18920 0.59720 -0.52500
C 	C 	0.14580 0.16830 0.70020 1.10200
C 	C 	0.43570 0.75750 0.38110 0.36800
C 	C 	0.53940 0.07600 0.52380 -1.65000
C 	C 	0.43900 0.24290 0.61290 0.52100
C 	C 	0.38106 0.57797 0.19217 -0.09200
C 	C 	0.74495 0.91541 0.50388 0.12200
C 	C 	0.44920 0.53640 0.04600 1.80500
C 	C 	0.33147 0.54386 0.00680 0.13300
C 	C 	0.14580 0.29980 0.46810 1.10300
C 	C 	0.24610 0.73740 0.11640 -1.73500
C 	C 	0.36475 0.01082 0.61809 0.10900
C 	C 	0.11820 0.09550 0.53320 0.15100
C 	C 	0.13435 0.54890 0.39890 -0.02300
C 	C 	0.89560 0.66280 0.20200 0.26900
C 	C 	0.19480 0.48686 0.64281 0.07700
C 	C 	0.76010 0.66530 0.98420 0.47400
C 	C 	0.83460 0.06010 0.38790 -0.48200
C 	C 	0.69639 0.16184 0.64266 0.08400
C 	C 	0.03500 0.94050 0.51780 2.15600
C 	C 	0.24280 0.51204 0.39171 -0.02500
C 	C 	0.82240 0.14980 0.60960 -0.00600
C 	C 	0.75150 0.33680 0.02850 -0.31000
C 	C 	0.25480 0.19300 0.95650 0.36500
C 	C 	0.73822 0.88165 0.46020 -0.10100
C 	C 	0.92183 0.19732 0.60770 -0.00400
C 	C 	0.22661 0.37445 0.91349 -0.01300
C 	C 	0.66853 0.53706 0.99320 0.13300
C 	C 	0.59147 0.83310 0.41610 0.18500
C 	C 	0.73822 0.57855 0.11835 -0.10100
C 	C 	0.23460 0.05910 0.38220 0.09200
C 	C 	0.19497 0.91850 0.39739 -0.12000
C 	C 	0.86610 0.79150 0.53710 -1.54000
C 	C 	0.30503 0.47889 0.39739 -0.12000
C 	C 	0.76178 0.53980 0.11835 -0.10100
C 	C 	0.25505 0.50388 0.91541 0.12200
C 	C 	0.73598 0.08060 0.59305 0.13900
C 	C 	0.17530 0.79330 0.33000 -0.55400
C 	C 	0.24520 0.19300 0.23650 0.36500
C 	C 	0.05080 0.50960 0.04600 1.80800
C 	C 	0.17760 0.54020 0.39040 -0.00600
C 	C 	0.64580 0.46810 0.16830 1.10200
C 	C 	0.50480 0.53710 0.09300 0.87500
C 	C 	0.92183 0.39230 0.58962 -0.00400
C 	C 	0.65708 0.37925 0.40748 0.04500
C 	C 	0.93570 0.24250 0.61890 0.36800
C 	C 	0.75390 0.62100 0.88360 -1.73500
C 	C 	0.79847 0.87781 0.34727 -0.14000
C 	C 	0.13435 0.60110 0.15000 -0.02300
C 	C 	0.17500 0.72550 0.09080 -1.67100
C 	C 	0.39101 0.53138 0.11298 -0.04900
C 	C 	0.11680 0.33490 0.97540 -0.54700
C 	C 	0.05281 0.83970 0.42790 -0.31000
C 	C 	0.74330 0.26480 0.02230 -0.27400
C 	C 	0.35331 0.53039 0.96775 0.01000
C 	C 	0.17518 0.49470 0.12212 0.10100
C 	C 	0.67518 0.50530 0.87788 0.10100
C 	C 	0.46500 0.57730 0.51780 2.15300
C 	C 	0.87390 0.83530 0.49130 -0.48800
C 	C 	0.63058 0.87150 0.38690 0.38700
C 	C 	0.66620 0.52170 0.32650 -0.50200
C 	C 	0.83147 0.45614 0.99320 0.13400
C 	C 	0.74850 0.69170 0.02850 -0.31100
C 	C 	0.94920 0.04600 0.50960 1.80800
C 	C 	0.19639 0.83816 0.35734 0.08400
C 	C 	0.28686 0.39430 0.54833 0.07100
C 	C 	0.26402 0.91940 0.51245 0.13900
C 	C 	0.85420 0.83170 0.53190 1.10200
C 	C 	0.82628 0.41095 0.96296 -0.08700
C 	C 	0.16620 0.32650 0.80480 -0.50200
C 	C 	0.89101 0.41840 0.53138 -0.04900
C 	C 	0.26178 0.46020 0.88165 -0.10100
C 	C 	0.96500 0.05950 0.57730 2.15600
C 	C 	0.74520 0.23650 0.04350 0.36500
C 	C 	0.66853 0.45614 0.46294 0.13300
C 	C 	0.42183 0.80268 0.39230 -0.00400
C 	C 	0.14669 0.43736 0.96775 0.01000
C 	C 	0.24610 0.88360 0.62100 -1.73500
C 	C 	0.90853 0.58300 0.41610 0.18500
C 	C 	0.38106 0.80783 0.38580 -0.09200
C 	C 	0.74330 0.97770 0.24250 -0.27500
C 	C 	0.78686 0.60570 0.45167 0.07100
C 	C 	0.71620 0.25320 0.91070 1.25000
C 	C 	0.32240 0.85020 0.39040 -0.00500
C 	C 	0.73460 0.38220 0.32310 0.09200
C 	C 	0.33460 0.67220 0.06010 -0.48200
C 	C 	0.15708 0.40748 0.02823 0.04600
C 	C 	0.41298 0.42360 0.62670 -0.26900
C 	C 	0.75320 0.30980 0.04760 0.19400
C 	C 	0.82482 0.37258 0.87788 0.10100
C 	C 	0.70153 0.46946 0.34727 -0.14000
C 	C 	0.88106 0.19217 0.61420 -0.09300
C 	C 	0.63060 0.87260 0.29740 -1.58200
C 	C 	0.83460 0.61210 0.67220 -0.48100
C 	C 	0.63005 0.43790 0.39684 -0.13800
C 	C 	0.76260 0.36690 0.83906 -0.13400
C 	C 	0.38320 0.02460 0.66510 -0.54800
C 	C 	0.26010 0.68110 0.66530 0.47400
C 	C 	0.67372 0.41095 0.44799 -0.08600
C 	C 	0.82470 0.33000 0.79330 -0.55400
C 	C 	0.35420 0.29980 0.83170 1.10200
C 	C 	0.13060 0.57520 0.87260 -1.58200
C 	C 	0.94719 0.42790 0.83970 -0.31000
C 	C 	0.24850 0.02850 0.33680 -0.31000
C 	C 	0.32470 0.79330 0.46330 -0.55300
C 	C 	0.24280 0.60829 0.12033 -0.02500
C 	C 	0.12960 0.87510 0.36370 -0.60800
C 	C 	0.32470 0.53670 0.33000 -0.55300
C 	C 	0.23822 0.46020 0.57855 -0.10100
C 	C 	0.30790 0.16730 0.47070 -1.60700
C 	C 	0.12960 0.63630 0.51140 -0.60800
C 	C 	0.06100 0.37000 0.61290 0.52100
C 	C 	0.36475 0.60727 0.98918 0.10900
C 	C 	0.56822 0.45697 0.57510 0.49900
C 	C 	0.75505 0.91541 0.41153 0.12200
C 	C 	0.25720 0.87967 0.39171 -0.02500
C 	C 	0.80790 0.69660 0.16730 -1.60700
C 	C 	0.26260 0.83906 0.47216 -0.13400
C 	C 	0.38320 0.64050 0.97540 -0.54800
C 	C 	0.32240 0.60960 0.45980 -0.00500
C 	C 	0.37040 0.63630 0.12490 -0.60700
C 	C 	0.80520 0.51314 0.15595 0.07700
C 	C 	0.60440 0.79800 0.33720 0.26900
C 	C 	0.29847 0.34727 0.46946 -0.14000
C 	C 	0.30503 0.60261 0.08150 -0.12000
C 	C 	0.69210 0.83270 0.30340 -1.60700
C 	C 	0.13005 0.39684 0.95894 -0.13700
C 	C 	0.17372 0.44799 0.03704 -0.08700
C 	C 	0.50480 0.55590 0.46290 0.87400
C 	C 	0.59147 0.58390 0.41700 0.18500
C 	C 	0.13005 0.56210 0.60316 -0.13800
C 	C 	0.32482 0.62742 0.12212 0.10100
C 	C 	0.24610 0.37900 0.26260 -1.73400
C 	C 	0.25150 0.66320 0.97150 -0.31100
C 	C 	0.25720 0.51204 0.12033 -0.02500
C 	C 	0.67530 0.46330 0.79330 -0.55300
C 	C 	0.42183 0.58962 0.19732 -0.00400
C 	C 	0.69639 0.35734 0.51918 0.08400
C 	C 	0.28380 0.91070 0.25320 1.25000
C 	C 	0.82470 0.20670 0.53670 -0.55300
C 	C 	0.96060 0.47620 0.92400 -1.65200
C 	C 	0.62960 0.36370 0.48860 -0.60800
C 	C 	0.28380 0.74680 0.65750 1.24900
C 	C 	0.24330 0.73520 0.97770 -0.27500
C 	C 	0.26010 0.98420 0.31890 0.47400
C 	C 	0.24330 0.24250 0.26480 -0.27400
C 	C 	0.60440 0.53920 0.20200 0.26900
C 	C 	0.55080 0.46360 0.50960 1.80500
C 	C 	0.53500 0.05950 0.48220 2.15300
C 	C 	0.74850 0.33680 0.30830 -0.31000
C 	C 	0.26178 0.11835 0.57855 -0.10100
C 	C 	0.49520 0.46290 0.55590 0.87400
C 	C 	0.73990 0.01580 0.33470 0.47400
C 	C 	0.78380 0.25320 0.34250 1.25000
C 	C 	0.21314 0.15403 0.54833 0.07100
C 	C 	0.27000 0.72610 0.68500 -0.62500
C 	C 	0.69497 0.08150 0.60261 -0.12000
C 	C 	0.32500 0.90920 0.27450 -1.67100
C 	C 	0.17372 0.96296 0.41095 -0.08700
C 	C 	0.88180 0.90450 0.43770 0.15100
C 	C 	0.74610 0.62100 0.73740 -1.73400
C 	C 	0.39101 0.88702 0.41840 -0.04900
C 	C 	0.36565 0.60110 0.45110 -0.02300
C 	C 	0.83380 0.67350 0.47830 -0.50200
C 	C 	0.22661 0.08651 0.46096 -0.01300
C 	C 	0.53500 0.51780 0.57730 2.15300
C 	C 	0.74280 0.48796 0.60829 -0.02500
C 	C 	0.24680 0.04760 0.30980 0.19400
C 	C 	0.56822 0.11813 0.54303 0.49900
C 	C 	0.09147 0.16690 0.58390 0.18500
C 	C 	0.86610 0.46290 0.25440 -1.54000
C 	C 	0.25505 0.41153 0.49612 0.12200
C 	C 	0.67500 0.27450 0.90920 -1.67100
C 	C 	0.26540 0.61780 0.94090 0.09200
C 	C 	0.36942 0.48460 0.61310 0.38700
C 	C 	0.63005 0.60316 0.04106 -0.13800
C 	C 	0.80790 0.47070 0.30340 -1.60700
C 	C 	0.07817 0.58962 0.39230 -0.00400
C 	C 	0.78686 0.84597 0.39430 0.07100
C 	C 	0.73000 0.04110 0.31500 -0.62600
C 	C 	0.85331 0.46961 0.03225 0.01000
C 	C 	0.23822 0.42145 0.88165 -0.10100
C 	C 	0.43570 0.61890 0.37640 0.36800
C 	C 	0.37040 0.48860 0.36370 -0.60800
C 	C 	0.63525 0.61809 0.01082 0.10900
C 	C 	0.86565 0.45110 0.85000 -0.02300
C 	C 	0.23170 0.75310 0.02200 0.34000
C 	C 	0.76260 0.47216 0.63310 -0.13400
C 	C 	0.69480 0.84405 0.48686 0.07700
C 	C 	0.00480 0.46290 0.90700 0.87600
C 	C 	0.12610 0.49130 0.83530 -0.48800
C 	C 	0.84292 0.37925 0.97177 0.04600
C 	C 	0.38675 0.44737 0.57700 -0.28400
C 	C 	0.76540 0.67690 0.61780 0.09200
C 	C 	0.00480 0.09300 0.55590 0.87600
C 	C 	0.25390 0.37900 0.11640 -1.73400
C 	C 	0.13060 0.12740 0.70260 -1.58200
C 	C 	0.13390 0.25440 0.46290 -1.54000
C 	C 	0.96500 0.42270 0.48220 2.15300
C 	C 	0.24680 0.69020 0.73780 0.19400
C 	C 	0.23000 0.95890 0.68500 -0.62600
C 	C 	0.11680 0.02460 0.35950 -0.54800
C 	C 	0.56430 0.37640 0.61890 0.36800
C 	C 	0.70153 0.65273 0.12219 -0.14000
C 	C 	0.27339 0.08651 0.62555 -0.01300
C 	C 	0.16540 0.93990 0.32780 -0.48200
C 	C 	0.80361 0.16184 0.51918 0.08400
C 	C 	0.15708 0.62075 0.59252 0.04500
C 	C 	0.73740 0.36690 0.52784 -0.13400
C 	C 	0.67530 0.20670 0.67000 -0.55300
C 	C 	0.11325 0.12963 0.57700 -0.28400
C 	C 	0.83147 0.00680 0.46294 0.13400
C 	C 	0.86995 0.43790 0.04106 -0.13700
C 	C 	0.46060 0.55220 0.47620 -1.65000
C 	C 	0.06430 0.61890 0.24250 0.36800
C 	C 	0.34292 0.62075 0.02823 0.04500
C 	C 	0.38106 0.61420 0.42203 -0.09200
C 	C 	0.74680 0.73780 0.04760 0.19400
C 	C 	0.25505 0.08459 0.58847 0.12200
C 	C 	0.28450 0.31560 0.11370 -1.67700
C 	C 	0.79780 0.81080 0.40800 -0.52500
C 	C 	0.53500 0.42270 0.94050 2.15300
C 	C 	0.17530 0.53670 0.20670 -0.55400
C 	C 	0.43178 0.54303 0.11813 0.49900
C 	C 	0.29780 0.18920 0.59200 -0.52500
C 	C 	0.33380 0.32650 0.52170 -0.50200
C 	C 	0.73170 0.24690 0.97800 0.34000
C 	C 	0.10899 0.53138 0.41840 -0.04900
C 	C 	0.64669 0.56264 0.03225 0.01000
C 	C 	0.17518 0.87788 0.37258 0.10100
C 	C 	0.44719 0.83970 0.41180 -0.31000
C 	C 	0.57817 0.41038 0.60770 -0.00400
C 	C 	0.63390 0.46290 0.20850 -1.54000
C 	C 	0.19639 0.51918 0.16184 0.08400
C 	C 	0.73460 0.94090 0.61780 0.09200
C 	C 	0.58702 0.62670 0.42360 -0.26900
C 	C 	0.71620 0.65750 0.74680 1.24900
C 	C 	0.06822 0.88187 0.45697 0.50000
C 	C 	0.17500 0.90920 0.63470 -1.67100
C 	C 	0.19639 0.64266 0.48082 0.08400
C 	C 	0.28380 0.34250 0.08930 1.25000
C 	C 	0.71314 0.54833 0.39430 0.07100
C 	C 	0.14580 0.53190 0.83170 1.10200
C 	C 	0.76540 0.38220 0.05910 0.09200
C 	C 	0.86475 0.61809 0.60727 0.11000
C 	C 	0.34292 0.97177 0.59252 0.04600
C 	C 	0.08702 0.37330 0.57640 -0.26900
C 	C 	0.78380 0.65750 0.91070 1.25000
C 	C 	0.21314 0.39430 0.84597 0.07100
C 	C 	0.78380 0.08930 0.74680 1.25000
C 	C 	0.26178 0.42145 0.53980 -0.10100
C 	C 	0.80361 0.35734 0.83816 0.08400
C 	C 	0.11820 0.46680 0.56230 0.15100
C 	C 	0.78450 0.11370 0.79810 -1.67700
C 	C 	0.74495 0.58847 0.08459 0.12200
C 	C 	0.46500 0.94050 0.42270 2.15300
C 	C 	0.23170 0.97800 0.73110 0.34000
C 	C 	0.84292 0.02823 0.40748 0.04600
C 	C 	0.53940 0.44780 0.92400 -1.65000
C 	C 	0.88106 0.42203 0.80783 -0.09300
C 	C 	0.17500 0.36530 0.27450 -1.67000
C 	C 	0.19480 0.35719 0.84405 0.07700
C 	C 	0.60899 0.46862 0.58160 -0.04900
C 	C 	0.46060 0.92400 0.44780 -1.65000
C 	C 	0.86940 0.42480 0.29740 -1.58200
C 	C 	0.77339 0.46096 0.08651 -0.01300
C 	C 	0.77339 0.91349 0.37445 -0.01300
C 	C 	0.63525 0.39273 0.38191 0.11000
C 	C 	0.16620 0.47830 0.67350 -0.50200
C 	C 	0.16853 0.99320 0.45614 0.13400
C 	C 	0.73740 0.47216 0.83906 -0.13400
C 	C 	0.85331 0.56264 0.53039 0.01100
C 	C 	0.16853 0.46294 0.00680 0.13400
C 	C 	0.17372 0.58905 0.55201 -0.08600
C 	C 	0.89101 0.11298 0.58160 -0.05000
C 	C 	0.82482 0.50530 0.62742 0.10100
C 	C 	0.32628 0.96296 0.55201 -0.08600
C 	C 	0.76830 0.24690 0.26890 0.33900
C 	C 	0.10440 0.20200 0.66280 0.26900
C 	C 	0.63058 0.61310 0.48460 0.38700
C 	C 	0.91298 0.62670 0.20310 -0.26900
C 	C 	0.74520 0.95650 0.19300 0.36500
C 	C 	0.82500 0.27450 0.36530 -1.67000
C 	C 	0.23170 0.26890 0.24690 0.33900
C 	C 	0.87390 0.50870 0.34400 -0.48800
C 	C 	0.67530 0.33000 0.53670 -0.55300
C 	C 	0.10899 0.88702 0.46862 -0.05000
C 	C 	0.23990 0.68110 0.01580 0.47400
C 	C 	0.33460 0.38790 0.32780 -0.48100
C 	C 	0.55080 0.04600 0.53640 1.80500
C 	C 	0.86940 0.87260 0.57520 -1.58200
C 	C 	0.30520 0.15595 0.64281 0.07700
C 	C 	0.94920 0.49040 0.53640 1.80500
C 	C 	0.78450 0.20190 0.31560 -1.67700
C 	C 	0.21550 0.31560 0.20190 -1.67700
C 	C 	0.28450 0.88630 0.20190 -1.67700
C 	C 	0.62960 0.51140 0.87510 -0.60700
C 	C 	0.11325 0.44737 0.87037 -0.28400
C 	C 	0.32482 0.49470 0.37258 0.10100
C 	C 	0.79780 0.59200 0.40280 -0.52500
C 	C 	0.79847 0.65273 0.53054 -0.14000
C 	C 	0.21620 0.91070 0.65750 1.25000
C 	C 	0.73000 0.68500 0.72610 -0.62500
C 	C 	0.19497 0.47889 0.08150 -0.12000
C 	C 	0.39560 0.20200 0.53920 0.26900
C 	C 	0.16853 0.54386 0.53706 0.13300
C 	C 	0.63390 0.74560 0.53710 -1.54000
C 	C 	0.40853 0.16690 0.58300 0.18500
C 	C 	0.33380 0.47830 0.80480 -0.50200
C 	C 	0.19480 0.15595 0.51314 0.07700
C 	C 	0.12610 0.34400 0.50870 -0.48800
C 	C 	0.73170 0.02200 0.26890 0.34000
C 	C 	0.33147 0.46294 0.45614 0.13300
C 	C 	0.10440 0.33720 0.53920 0.26900
C 	C 	0.70220 0.59200 0.18920 -0.52500
C 	C 	0.88675 0.87037 0.44737 -0.28400
C 	C 	0.57817 0.19732 0.58962 -0.00400
C 	C 	0.61894 0.38580 0.80783 -0.09200
C 	C 	0.73740 0.16094 0.63310 -0.13400
C 	C 	0.93570 0.37640 0.75750 0.36800
C 	C 	0.89101 0.46862 0.88702 -0.05000
C 	C 	0.17518 0.62742 0.50530 0.10100
C 	C 	0.77000 0.68500 0.95890 -0.62600
C 	C 	0.63435 0.39890 0.85000 -0.02300
C 	C 	0.69210 0.47070 0.16730 -1.60700
C 	C 	0.41298 0.20310 0.57640 -0.26900
C 	C 	0.35331 0.03225 0.56264 0.01000
C 	C 	0.26010 0.33470 0.01580 0.47400
C 	C 	0.23598 0.59305 0.51245 0.13900
C 	C 	0.93178 0.42490 0.54303 0.49900
C 	C 	0.38675 0.42300 0.87037 -0.28400
C 	C 	0.60899 0.11298 0.53138 -0.04900
C 	C 	0.75720 0.12033 0.60829 -0.02500
C 	C 	0.93900 0.75710 0.38710 0.52100
C 	C 	0.11820 0.43770 0.90450 0.15100
C 	C 	0.61680 0.97540 0.64050 -0.54800
C 	C 	0.20153 0.53054 0.65273 -0.14000
C 	C 	0.17760 0.60960 0.14980 -0.00600
C 	C 	0.06100 0.38710 0.75710 0.52100
C 	C 	0.30520 0.35719 0.51314 0.07700
C 	C 	0.44719 0.58820 0.42790 -0.31000
C 	C 	0.67372 0.55201 0.96296 -0.08600
C 	C 	0.77000 0.27390 0.31500 -0.62500
C 	C 	0.88675 0.57700 0.12963 -0.28400
C 	C 	0.36610 0.53710 0.74560 -1.54000
C 	C 	0.82240 0.45980 0.85020 -0.00600
C 	C 	0.44920 0.50960 0.46360 1.80500
C 	C 	0.07817 0.80268 0.41038 -0.00400
C 	C 	0.12610 0.16470 0.65600 -0.48800
C 	C 	0.03940 0.55220 0.07600 -1.65200
C 	C 	0.66540 0.06010 0.67220 -0.48200
C 	C 	0.61680 0.35950 0.33490 -0.54900
C 	C 	0.23598 0.91940 0.40695 0.13900
C 	C 	0.67372 0.03704 0.58905 -0.08600
C 	C 	0.67760 0.14980 0.54020 -0.00500
C 	C 	0.86475 0.98918 0.38191 0.10800
C 	C 	0.30790 0.52930 0.69660 -1.60700
C 	C 	0.87390 0.65600 0.16470 -0.48800
C 	C 	0.06100 0.24290 0.63000 0.52100
C 	C 	0.10440 0.46080 0.79800 0.26900
C 	C 	0.43570 0.62360 0.24250 0.36800
C 	C 	0.23460 0.32310 0.94090 0.09200
C 	C 	0.33147 0.99320 0.53706 0.13300
C 	C 	0.74495 0.49612 0.41153 0.12200
C 	C 	0.05080 0.95400 0.46360 1.80700
C 	C 	0.13435 0.85000 0.45110 -0.02300
C 	C 	0.37390 0.34400 0.83530 -0.48800
C 	C 	0.24330 0.02230 0.75750 -0.27500
C 	C 	0.26830 0.75310 0.73110 0.33900
C 	C 	0.83460 0.32780 0.93990 -0.48200
C 	C 	0.41298 0.37330 0.79690 -0.26900
C 	C 	0.09147 0.41700 0.83310 0.18500
C 	C 	0.13058 0.12850 0.61310 0.38600
C 	C 	0.24495 0.08459 0.49612 0.12200
C 	C 	0.27339 0.53904 0.91349 -0.01300
C 	C 	0.25390 0.88360 0.26260 -1.73400
C 	C 	0.75670 0.97770 0.73520 -0.27500
C 	C 	0.39560 0.46080 0.66280 0.26900
C 	C 	0.12960 0.48860 0.12490 -0.60800
C 	C 	0.27000 0.31500 0.04110 -0.62600
C 	C 	0.32628 0.44799 0.41095 -0.08600
C 	C 	0.63525 0.98918 0.60727 0.10900
C 	C 	0.16540 0.67220 0.61210 -0.48100
C 	C 	0.23740 0.83906 0.36690 -0.13400
C 	C 	0.76540 0.94090 0.32310 0.09200
C 	C 	0.99520 0.53710 0.44410 0.87500
C 	C 	0.09147 0.41610 0.58300 0.18500
C 	C 	0.88180 0.56230 0.46680 0.15100
C 	C 	0.74610 0.26260 0.88360 -1.73400
C 	C 	0.55281 0.42790 0.58820 -0.31000
C 	C 	0.75720 0.39171 0.51204 -0.02500
C 	C 	0.38180 0.43770 0.53320 0.15100
C 	C 	0.75320 0.95240 0.26220 0.19400
C 	C 	0.38180 0.46680 0.90450 0.15100
C 	C 	0.65708 0.02823 0.62075 0.04500
C 	C 	0.71550 0.68440 0.79810 -1.67600
C 	C 	0.36942 0.12850 0.51540 0.38700
C 	C 	0.06822 0.57510 0.11813 0.50000
C 	C 	0.26402 0.59305 0.08060 0.13900
C 	C 	0.61820 0.53320 0.43770 0.15100
C 	C 	0.28686 0.45167 0.84597 0.07100
C 	C 	0.23990 0.98420 0.66530 0.47400
C 	C 	0.67518 0.37258 0.49470 0.10100
C 	C 	0.24850 0.30830 0.97150 -0.31100
C 	C 	0.71550 0.20190 0.88630 -1.67700
C 	C 	0.73000 0.27390 0.95890 -0.62600
C 	C 	0.05281 0.58820 0.16030 -0.31000
C 	C 	0.76260 0.16094 0.52784 -0.13400
C 	C 	0.13390 0.20850 0.74560 -1.54000
C 	C 	0.22661 0.53904 0.62555 -0.01300
C 	C 	0.86942 0.61310 0.12850 0.38600
C 	C 	0.86942 0.87150 0.48460 0.38700
C 	C 	0.88320 0.97540 0.33490 -0.54700
C 	C 	0.88106 0.38580 0.57797 -0.09300
C 	C 	0.03500 0.57730 0.05950 2.15600
C 	C 	0.24520 0.04350 0.80700 0.36500
C 	C 	0.96060 0.44780 0.52380 -1.65100
C 	C 	0.13525 0.60727 0.61809 0.11000
C 	C 	0.36610 0.25440 0.79150 -1.54000
C 	C 	0.03940 0.52380 0.44780 -1.65100
C 	C 	0.93570 0.38110 0.62360 0.36800
C 	C 	0.86995 0.60316 0.56210 -0.13800
C 	C 	0.53940 0.47620 0.55220 -1.65000
C 	C 	0.74520 0.80700 0.76350 0.36500
C 	C 	0.58702 0.57640 0.20310 -0.26900
C 	C 	0.06430 0.62360 0.38110 0.36800
C 	C 	0.30361 0.64266 0.16184 0.08400
C 	C 	0.75390 0.11640 0.73740 -1.73500
C 	C 	0.36995 0.56210 0.95894 -0.13800
C 	C 	0.26830 0.97800 0.24690 0.34000
C 	C 	0.75480 0.80700 0.04350 0.36500
C 	C 	0.36940 0.57520 0.70260 -1.58200
C 	C 	0.20220 0.40800 0.81080 -0.52500
C 	C 	0.32240 0.54020 0.14980 -0.00500
C 	C 	0.75505 0.58847 0.50388 0.12200
C 	C 	0.55080 0.49040 0.95400 1.80500
C 	C 	0.34292 0.40748 0.37925 0.04500
C 	C 	0.93900 0.63000 0.24290 0.52100
C 	C 	0.69639 0.48082 0.83816 0.08400
C 	C 	0.80520 0.64281 0.48686 0.07700
C 	C 	0.82500 0.09080 0.72550 -1.67100
C 	C 	0.26540 0.05910 0.67690 0.09200
C 	C 	0.07817 0.60770 0.19732 -0.00400
C 	C 	0.27000 0.95890 0.27390 -0.62600
C 	C 	0.15708 0.97177 0.37925 0.04600
C 	C 	0.84292 0.59252 0.62075 0.04500
C 	C 	0.14669 0.53039 0.56264 0.01100
C 	C 	0.62610 0.50870 0.16470 -0.48800
C 	C 	0.99520 0.90700 0.46290 0.87600
C 	C 	0.25150 0.02850 0.69170 -0.31100
C 	C 	0.96500 0.51780 0.94050 2.15600
C 	C 	0.86995 0.95894 0.39684 -0.13700
C 	C 	0.89560 0.53920 0.33720 0.26900
C 	C 	0.08702 0.20310 0.62670 -0.26900
C 	C 	0.25320 0.04760 0.73780 0.19400
C 	C 	0.16540 0.38790 0.06010 -0.48200
C 	C 	0.86942 0.51540 0.38690 0.38700
C 	C 	0.23000 0.72610 0.04110 -0.62600
C 	C 	0.05281 0.57210 0.41180 -0.31000
C 	C 	0.96060 0.07600 0.55220 -1.65200
C 	C 	0.75480 0.23650 0.19300 0.36500
C 	C 	0.32500 0.36530 0.09080 -1.67100
C 	C 	0.70220 0.59720 0.40800 -0.52500
C 	C 	0.49520 0.09300 0.53710 0.87500
C 	C 	0.63435 0.15000 0.54890 -0.02300
C 	C 	0.85420 0.46810 0.29980 1.10300
C 	C 	0.75505 0.49612 0.08459 0.12200
C 	C 	0.37390 0.16470 0.50870 -0.48800
C 	C 	0.32470 0.67000 0.20670 -0.55300
C 	C 	0.43900 0.38710 0.63000 0.52100
C 	C 	0.24495 0.41153 0.91541 0.12200
C 	C 	0.67500 0.09080 0.36530 -1.67100
C 	C 	0.60899 0.41840 0.88702 -0.04900
C 	C 	0.67760 0.45980 0.60960 -0.00500
C 	C 	0.63060 0.70260 0.57520 -1.58200
C 	C 	0.64580 0.83170 0.29980 1.10200
C 	C 	0.25670 0.24250 0.97770 -0.27500
C 	C 	0.24520 0.76350 0.95650 0.36500
C 	C 	0.19497 0.60261 0.52111 -0.12000
C 	C 	0.76178 0.57855 0.46020 -0.10100
C 	C 	0.61325 0.55263 0.12963 -0.28400
C 	C 	0.77339 0.62555 0.53904 -0.01300
C 	C 	0.89560 0.79800 0.46080 0.26900
C 	C 	0.61325 0.87037 0.42300 -0.28400
C 	C 	0.24280 0.87967 0.48796 -0.02500
C 	C 	0.74610 0.11640 0.37900 -1.73400
C 	C 	0.37390 0.49130 0.65600 -0.48800
C 	C 	0.25720 0.60829 0.48796 -0.02500
C 	C 	0.90853 0.58390 0.16690 0.18500
C 	C 	0.35420 0.53190 0.70020 1.10300
C 	C 	0.06822 0.54303 0.42490 0.49900
C 	C 	0.67760 0.39040 0.85020 -0.00500
C 	C 	0.39101 0.58160 0.46862 -0.04900
C 	C 	0.25480 0.04350 0.23650 0.36500
C 	C 	0.57817 0.39230 0.80268 -0.00400
C 	C 	0.36942 0.38690 0.87150 0.38700
C 	C 	0.13525 0.38191 0.98918 0.10800
C 	C 	0.38320 0.33490 0.35950 -0.54900
C 	C 	0.56430 0.24250 0.62360 0.36800
C 	C 	0.62610 0.83530 0.34400 -0.48800
C 	C 	0.21314 0.45167 0.60570 0.07100
C 	C 	0.13390 0.53710 0.79150 -1.54000
C 	C 	0.74280 0.39171 0.87967 -0.02500
C 	C 	0.99520 0.55590 0.09300 0.87600
C 	C 	0.36610 0.20850 0.46290 -1.54000
C 	C 	0.83147 0.53706 0.54386 0.13300
C 	C 	0.80520 0.84405 0.35719 0.07700
C 	C 	0.61325 0.57700 0.44737 -0.28400
C 	C 	0.37040 0.87510 0.51140 -0.60700
C 	C 	0.61894 0.42203 0.61420 -0.09200
C 	C 	0.93178 0.11813 0.57510 0.50000
C 	C 	0.61680 0.66510 0.02460 -0.54800
C 	C 	0.21550 0.88630 0.68440 -1.67700
C 	C 	0.26260 0.52784 0.36690 -0.13400
C 	C 	0.87040 0.51140 0.63630 -0.60800
C 	C 	0.43178 0.57510 0.45697 0.49900
C 	C 	0.71314 0.60570 0.15403 0.07100
C 	C 	0.75150 0.97150 0.30830 -0.31100
C 	C 	0.73460 0.67690 0.05910 0.09200
C 	C 	0.88180 0.53320 0.09550 0.15100
C 	C 	0.74850 0.97150 0.66320 -0.31100
C 	C 	0.86475 0.39273 0.01082 0.10900
C 	C 	0.93178 0.45697 0.88187 0.50000
C 	C 	0.27339 0.37445 0.46096 -0.01300
C 	C 	0.61894 0.19217 0.57797 -0.09200
C 	C 	0.63005 0.95894 0.56210 -0.13800
C 	C 	0.16620 0.19520 0.52170 -0.50200
C 	C 	0.56100 0.75710 0.37000 0.52100
C 	C 	0.36940 0.29740 0.87260 -1.58200
C 	C 	0.11894 0.61420 0.19217 -0.09300
C 	C 	0.85331 0.96775 0.43736 0.01000
C 	C 	0.30361 0.51918 0.35734 0.08400
C 	C 	0.73822 0.53980 0.42145 -0.10100
C 	C 	0.83380 0.52170 0.19520 -0.50200
C 	C 	0.76830 0.73110 0.97800 0.34000
C 	C 	0.29847 0.12219 0.65273 -0.14000
C 	C 	0.69480 0.64281 0.15595 0.07700
C 	C 	0.66620 0.80480 0.47830 -0.50200
C 	C 	0.36940 0.12740 0.42480 -1.58200
C 	C 	0.33380 0.19520 0.67350 -0.50200
C 	C 	0.43900 0.37000 0.75710 0.52100
C 	C 	0.74680 0.95240 0.69020 0.19400
C 	C 	0.25480 0.76350 0.80700 0.36500
C 	C 	0.67500 0.63470 0.72550 -1.67000
C 	C 	0.82628 0.55201 0.58905 -0.08600
C 	C 	0.25670 0.02230 0.26480 -0.27400
C 	C 	0.24680 0.26220 0.95240 0.19400
C 	C 	0.56100 0.63000 0.38710 0.52100
C 	C 	0.39560 0.33720 0.79800 0.26900
C 	C 	0.64669 0.46961 0.43736 0.01100
C 	C 	0.60440 0.66280 0.46080 0.26900
C 	C 	0.28450 0.79810 0.68440 -1.67600
C 	C 	0.76402 0.40695 0.91940 0.13900
C 	C 	0.23740 0.52784 0.16094 -0.13400
C 	C 	0.69210 0.69660 0.52930 -1.60700
C 	C 	0.62960 0.12490 0.63630 -0.60700
C 	C 	0.25390 0.73740 0.62100 -1.73400
C 	C 	0.66540 0.61210 0.93990 -0.48200
C 	C 	0.66540 0.32780 0.38790 -0.48100
C 	C 	0.29780 0.40800 0.59720 -0.52500
C 	C 	0.92183 0.41038 0.80268 -0.00400
C 	C 	0.29780 0.40280 0.81080 -0.52500
C 	C 	0.72661 0.46096 0.37445 -0.01300
C 	C 	0.75320 0.73780 0.69020 0.19400
C 	C 	0.36565 0.54890 0.15000 -0.02300
C 	C 	0.75670 0.75750 0.02230 -0.27500
C 	C 	0.64669 0.96775 0.53039 0.01000
C 	C 	0.64580 0.70020 0.53190 1.10300
C 	C 	0.82470 0.46330 0.67000 -0.55300
C 	C 	0.79780 0.59720 0.18920 -0.52500
C 	C 	0.29847 0.53054 0.87781 -0.14000
C 	C 	0.88320 0.66510 0.64050 -0.54900
C 	C 	0.86940 0.70260 0.12740 -1.58200
C 	C 	0.36565 0.85000 0.39890 -0.02300
C 	C 	0.44719 0.57210 0.16030 -0.31000
C 	C 	0.73170 0.73110 0.75310 0.33900
C 	C 	0.75150 0.69170 0.66320 -0.31000
C 	C 	0.26540 0.32310 0.38220 0.09200
C 	C 	0.72661 0.91349 0.53904 -0.01300
C 	C 	0.78450 0.68440 0.88630 -1.67700
C 	C 	0.93900 0.61290 0.37000 0.52100
C 	C 	0.26402 0.48755 0.40695 0.13900
C 	C 	0.46500 0.48220 0.05950 2.15300
C 	C 	0.74330 0.75750 0.73520 -0.27400
C 	C 	0.70220 0.81080 0.40280 -0.52500
C 	C 	0.69497 0.52111 0.91850 -0.12000
C 	C 	0.72661 0.62555 0.08651 -0.01300
C 	C 	0.49520 0.44410 0.90700 0.87500
C 	C 	0.91298 0.79690 0.42360 -0.26900
C 	C 	0.40853 0.41700 0.58390 0.18500
C 	C 	0.25320 0.69020 0.95240 0.19400
C 	C 	0.73990 0.31890 0.98420 0.47400
C 	C 	0.32628 0.58905 0.03704 -0.08600
C 	C 	0.13060 0.29740 0.42480 -1.58200
C 	C 	0.11680 0.64050 0.66510 -0.54900
C 	C 	0.38675 0.12963 0.55263 -0.28400
C 	C 	0.11894 0.80783 0.42203 -0.09300
C 	C 	0.55281 0.41180 0.83970 -0.31000
C 	C 	0.59147 0.58300 0.16690 0.18500
C 	C 	0.86610 0.74560 0.20850 -1.54000
C 	C 	0.63058 0.51540 0.12850 0.38700
C 	C 	0.33460 0.93990 0.61210 -0.48200
C 	C 	0.82240 0.39040 0.54020 -0.00600
C 	C 	0.50480 0.90700 0.44410 0.87500
C 	C 	0.86565 0.15000 0.60110 -0.02300
C 	C 	0.19210 0.16730 0.69660 -1.60700
C 	C 	0.80503 0.52111 0.60261 -0.12000
C 	C 	0.11894 0.57797 0.38580 -0.09300
C 	C 	0.30520 0.48686 0.84405 0.07700
C 	C 	0.30790 0.30340 0.83270 -1.60700
C 	C 	0.82482 0.12212 0.49470 0.10100
C 	C 	0.56430 0.38110 0.75750 0.36800
C 	C 	0.43178 0.88187 0.42490 0.49900
C 	C 	0.75670 0.26480 0.24250 -0.27400
C 	C 	0.32482 0.87788 0.50530 0.10100
C 	C 	0.76402 0.51245 0.59305 0.13900
C 	C 	0.23740 0.63310 0.47216 -0.13400
C 	C 	0.23460 0.61780 0.67690 0.09200
C 	C 	0.14669 0.03225 0.46961 0.01000
C 	C 	0.55281 0.16030 0.57210 -0.31000
C 	C 	0.94719 0.16030 0.58820 -0.31000
C 	C 	0.56100 0.61290 0.24290 0.52100
C 	C 	0.08702 0.42360 0.79690 -0.26900
C 	C 	0.80361 0.48082 0.64266 0.08400
C 	C 	0.13058 0.48460 0.87150 0.38700
C 	C 	0.82500 0.63470 0.90920 -1.67100
C 	C 	0.20153 0.34727 0.87781 -0.14000
C 	C 	0.88320 0.35950 0.02460 -0.54800
C 	C 	0.66853 0.00680 0.54386 0.13300
C 	C 	0.74680 0.30980 0.26220 0.19400
C 	C 	0.23000 0.31500 0.27390 -0.62500
C 	C 	0.11325 0.42300 0.55263 -0.28400
C 	C 	0.76830 0.02200 0.75310 0.34000
C 	C 	0.25150 0.30830 0.33680 -0.31000
C 	C 	0.69497 0.39739 0.47889 -0.12000
C 	C 	0.40853 0.41610 0.83310 0.18500
C 	C 	0.30361 0.83816 0.48082 0.08400
C 	C 	0.76178 0.88165 0.42145 -0.10100
C 	C 	0.73598 0.51245 0.91940 0.13900
C 	C 	0.17760 0.85020 0.45980 -0.00600
C 	C 	0.56822 0.42490 0.88187 0.49900
C 	C 	0.23990 0.33470 0.31890 0.47400
C 	C 	0.79847 0.46946 0.12219 -0.14000
C 	C 	0.13005 0.04106 0.43790 -0.13700
C 	C 	0.78686 0.54833 0.15403 0.07100
C 	C 	0.21620 0.34250 0.25320 1.25000
C 	C 	0.58702 0.79690 0.37330 -0.26900
C 	C 	0.05080 0.53640 0.49040 1.80500
C 	C 	0.21620 0.74680 0.08930 1.25000
C 	C 	0.03500 0.48220 0.42270 2.15300
C 	C 	0.85420 0.70020 0.16830 1.10200
C 	C 	0.76010 0.01580 0.68110 0.47400
C 	C 	0.94719 0.41180 0.57210 -0.31000
C 	C 	0.24495 0.50388 0.58847 0.12200
C 	C 	0.75480 0.95650 0.76350 0.36500
C 	C 	0.80790 0.83270 0.52930 -1.60700
C 	C 	0.19210 0.52930 0.83270 -1.60700
C 	C 	0.13058 0.38690 0.51540 0.38700
C 	C 	0.13525 0.01082 0.39273 0.10900
C 	C 	0.26830 0.26890 0.02200 0.34000
C 	C 	0.75720 0.48796 0.87967 -0.02500
C 	C 	0.70153 0.87781 0.53054 -0.14000
C 	C 	0.36475 0.38191 0.39273 0.11000
C 	C 	0.38180 0.09550 0.56230 0.15100
C 	C 	0.25670 0.73520 0.75750 -0.27400
C 	C 	0.20153 0.12219 0.46946 -0.14000
C 	C 	0.74280 0.12033 0.51204 -0.02500
N 	N 	0.35917 0.45560 0.51760 -0.28400
N 	N 	0.14083 0.06200 0.51760 -0.28400
N 	N 	0.69923 0.40210 0.88432 -0.25900
N 	N 	0.85917 0.93800 0.45560 -0.28400
N 	N 	0.80077 0.11568 0.59790 -0.25900
N 	N 	0.19923 0.88432 0.48222 -0.25900
N 	N 	0.85917 0.51760 0.06200 -0.28400
N 	N 	0.85917 0.54440 0.48240 -0.28400
N 	N 	0.19923 0.51778 0.40210 -0.25900
N 	N 	0.14083 0.48240 0.54440 -0.28400
N 	N 	0.73920 0.94650 0.58280 -0.28200
N 	N 	0.73920 0.63630 0.05350 -0.28200
N 	N 	0.23920 0.05350 0.41720 -0.28200
N 	N 	0.23920 0.58280 0.63630 -0.28200
N 	N 	0.69923 0.48222 0.59790 -0.25900
N 	N 	0.14083 0.45560 0.93800 -0.28400
N 	N 	0.64083 0.93800 0.48240 -0.28400
N 	N 	0.69923 0.11568 0.51778 -0.25900
N 	N 	0.80077 0.48222 0.88432 -0.25900
N 	N 	0.76080 0.63630 0.58280 -0.28200
N 	N 	0.35917 0.48240 0.93800 -0.28400
N 	N 	0.35917 0.06200 0.54440 -0.28400
N 	N 	0.30077 0.59790 0.48222 -0.25900
N 	N 	0.30077 0.51778 0.11568 -0.25900
N 	N 	0.64083 0.54440 0.06200 -0.28400
N 	N 	0.26080 0.05350 0.63630 -0.28200
N 	N 	0.73920 0.41720 0.36370 -0.28200
N 	N 	0.19923 0.59790 0.11568 -0.25900
N 	N 	0.64083 0.51760 0.45560 -0.28400
N 	N 	0.80077 0.40210 0.51778 -0.25900
N 	N 	0.26080 0.36370 0.41720 -0.28200
N 	N 	0.30077 0.88432 0.40210 -0.25900
N 	N 	0.23920 0.36370 0.94650 -0.28200
N 	N 	0.26080 0.58280 0.94650 -0.28200
N 	N 	0.76080 0.41720 0.05350 -0.28200
N 	N 	0.76080 0.94650 0.36370 -0.28200
O 	O 	0.31199 0.49964 0.48896 -0.64300
O 	O 	0.03190 0.64400 0.39930 -0.50600
O 	O 	0.23480 0.18340 0.98080 -0.26600
O 	O 	0.65180 0.90448 0.38770 -0.51900
O 	O 	0.74312 0.43101 0.95776 -0.65700
O 	O 	0.26610 0.74700 0.83060 -0.25100
O 	O 	0.32810 0.42636 0.00316 -0.69000
O 	O 	0.15180 0.51678 0.90448 -0.51900
O 	O 	0.96810 0.35600 0.75530 -0.50600
O 	O 	0.93880 0.66920 0.27120 -0.53500
O 	O 	0.26520 0.79740 0.98080 -0.26600
O 	O 	0.73168 0.95173 0.43788 -0.64800
O 	O 	0.94580 0.64670 0.40130 -0.56600
O 	O 	0.08465 0.63203 0.35780 -0.52900
O 	O 	0.55420 0.64670 0.24540 -0.56600
O 	O 	0.67190 0.42320 0.99684 -0.69000
O 	O 	0.23168 0.04827 0.56212 -0.64800
O 	O 	0.91535 0.27423 0.64220 -0.52900
O 	O 	0.03190 0.60070 0.24470 -0.50600
O 	O 	0.37850 0.50650 0.07260 -0.32600
O 	O 	0.26832 0.51385 0.56212 -0.64800
O 	O 	0.41535 0.64220 0.36797 -0.52900
O 	O 	0.23390 0.16940 0.25300 -0.25100
O 	O 	0.62150 0.07260 0.50650 -0.32600
O 	O 	0.06120 0.33080 0.60200 -0.53500
O 	O 	0.55420 0.59870 0.35330 -0.56600
O 	O 	0.25688 0.95776 0.43101 -0.65700
O 	O 	0.18801 0.49964 0.01068 -0.64300
O 	O 	0.34820 0.09552 0.48322 -0.51900
O 	O 	0.82810 0.57364 0.99684 -0.69000
O 	O 	0.25688 0.56899 0.52675 -0.65700
O 	O 	0.44580 0.40130 0.75460 -0.56600
O 	O 	0.12150 0.92740 0.49350 -0.32600
O 	O 	0.12150 0.56610 0.07260 -0.32600
O 	O 	0.24312 0.56899 0.04224 -0.65700
O 	O 	0.26832 0.04827 0.48615 -0.64800
O 	O 	0.58465 0.36797 0.64220 -0.52900
O 	O 	0.53190 0.24470 0.64400 -0.50600
O 	O 	0.44580 0.24540 0.64670 -0.56600
O 	O 	0.53190 0.35600 0.60070 -0.50600
O 	O 	0.43880 0.27120 0.60200 -0.53500
O 	O 	0.18801 0.98932 0.48896 -0.64300
O 	O 	0.46810 0.75530 0.39930 -0.50600
O 	O 	0.15180 0.09552 0.61230 -0.51900
O 	O 	0.05420 0.35330 0.75460 -0.56600
O 	O 	0.17190 0.57680 0.00316 -0.69000
O 	O 	0.84820 0.61230 0.09552 -0.51900
O 	O 	0.41535 0.63203 0.27423 -0.52900
O 	O 	0.82810 0.00316 0.57680 -0.69000
O 	O 	0.25688 0.47325 0.04224 -0.65700
O 	O 	0.84820 0.48322 0.38770 -0.51900
O 	O 	0.05420 0.40130 0.64670 -0.56600
O 	O 	0.76610 0.25300 0.16940 -0.25100
O 	O 	0.18801 0.51104 0.50036 -0.64300
O 	O 	0.23166 0.65562 0.03142 -0.56500
O 	O 	0.91535 0.36797 0.72577 -0.52900
O 	O 	0.08465 0.72577 0.36797 -0.52900
O 	O 	0.75688 0.52675 0.95776 -0.65700
O 	O 	0.73166 0.34438 0.96858 -0.56500
O 	O 	0.87850 0.49350 0.92740 -0.32600
O 	O 	0.23480 0.01920 0.20260 -0.26600
O 	O 	0.32810 0.99684 0.42320 -0.69000
O 	O 	0.96810 0.39930 0.64400 -0.50600
O 	O 	0.26834 0.37580 0.03142 -0.56500
O 	O 	0.05420 0.24540 0.59870 -0.56600
O 	O 	0.23480 0.79740 0.81660 -0.26600
O 	O 	0.37850 0.56610 0.49350 -0.32600
O 	O 	0.24312 0.47325 0.43101 -0.65700
O 	O 	0.55420 0.75460 0.40130 -0.56600
O 	O 	0.34820 0.51678 0.61230 -0.51900
O 	O 	0.96810 0.24470 0.60070 -0.50600
O 	O 	0.56120 0.72880 0.33080 -0.53500
O 	O 	0.12150 0.50650 0.43390 -0.32600
O 	O 	0.91535 0.35780 0.63203 -0.52900
O 	O 	0.73168 0.48615 0.04827 -0.64800
O 	O 	0.65180 0.61230 0.51678 -0.51900
O 	O 	0.76520 0.20260 0.01920 -0.26600
O 	O 	0.76832 0.56212 0.04827 -0.64800
O 	O 	0.26520 0.01920 0.81660 -0.26600
O 	O 	0.73166 0.03142 0.37580 -0.56500
O 	O 	0.46810 0.60070 0.35600 -0.50600
O 	O 	0.43880 0.33080 0.72880 -0.53500
O 	O 	0.73480 0.81660 0.01920 -0.26600
O 	O 	0.68801 0.50036 0.98932 -0.64300
O 	O 	0.23168 0.51385 0.95173 -0.64800
O 	O 	0.41535 0.72577 0.35780 -0.52900
O 	O 	0.03190 0.75530 0.35600 -0.50600
O 	O 	0.37850 0.92740 0.43390 -0.32600
O 	O 	0.81199 0.50036 0.51104 -0.64300
O 	O 	0.82810 0.42320 0.42636 -0.69000
O 	O 	0.26610 0.16940 0.91640 -0.25100
O 	O 	0.94580 0.59870 0.24540 -0.56600
O 	O 	0.73390 0.91640 0.16940 -0.25100
O 	O 	0.87850 0.43390 0.50650 -0.32600
O 	O 	0.73480 0.98080 0.79740 -0.26600
O 	O 	0.31199 0.51104 0.01068 -0.64300
O 	O 	0.75688 0.43101 0.47325 -0.65700
O 	O 	0.75688 0.04224 0.56899 -0.65700
O 	O 	0.84820 0.90448 0.51678 -0.51900
O 	O 	0.76832 0.95173 0.51385 -0.64800
O 	O 	0.99540 0.33333 0.66666 -0.95400
O 	O 	0.26832 0.43788 0.95173 -0.64800
O 	O 	0.53190 0.39930 0.75530 -0.50600
O 	O 	0.32810 0.57680 0.57364 -0.69000
O 	O 	0.49540 0.66667 0.33334 -0.95400
O 	O 	0.26834 0.96858 0.34438 -0.56500
O 	O 	0.62150 0.49350 0.56610 -0.32600
O 	O 	0.62150 0.43390 0.92740 -0.32600
O 	O 	0.17190 0.99684 0.57364 -0.69000
O 	O 	0.81199 0.48896 0.98932 -0.64300
O 	O 	0.76610 0.83060 0.08360 -0.25100
O 	O 	0.73390 0.83060 0.74700 -0.25100
O 	O 	0.23390 0.08360 0.83060 -0.25100
O 	O 	0.68801 0.48896 0.49964 -0.64300
O 	O 	0.44580 0.35330 0.59870 -0.56600
O 	O 	0.31199 0.98932 0.50036 -0.64300
O 	O 	0.76834 0.62420 0.96858 -0.56500
O 	O 	0.43880 0.39800 0.66920 -0.53500
O 	O 	0.87850 0.07260 0.56610 -0.32600
O 	O 	0.93880 0.72880 0.39800 -0.53500
O 	O 	0.06120 0.27120 0.66920 -0.53500
O 	O 	0.17190 0.42636 0.42320 -0.69000
O 	O 	0.26834 0.65562 0.62420 -0.56500
O 	O 	0.68801 0.01068 0.51104 -0.64300
O 	O 	0.67190 0.00316 0.42636 -0.69000
O 	O 	0.67190 0.57364 0.57680 -0.69000
O 	O 	0.50460 0.33333 0.66666 -0.95400
O 	O 	0.76520 0.98080 0.18340 -0.26600
O 	O 	0.74312 0.04224 0.47325 -0.65700
O 	O 	0.23166 0.37580 0.34438 -0.56500
O 	O 	0.23168 0.43788 0.48615 -0.64800
O 	O 	0.76610 0.91640 0.74700 -0.25100
O 	O 	0.81199 0.01068 0.49964 -0.64300
O 	O 	0.08465 0.64220 0.27423 -0.52900
O 	O 	0.93880 0.60200 0.33080 -0.53500
O 	O 	0.23166 0.96858 0.62420 -0.56500
O 	O 	0.74312 0.52675 0.56899 -0.65700
O 	O 	0.56120 0.66920 0.39800 -0.53500
O 	O 	0.06120 0.39800 0.72880 -0.53500
O 	O 	0.73390 0.25300 0.08360 -0.25100
O 	O 	0.73166 0.62420 0.65562 -0.56500
O 	O 	0.73168 0.56212 0.51385 -0.64800
O 	O 	0.73480 0.20260 0.18340 -0.26600
O 	O 	0.23390 0.74700 0.91640 -0.25100
O 	O 	0.24312 0.95776 0.52675 -0.65700
O 	O 	0.76834 0.03142 0.65562 -0.56500
O 	O 	0.76832 0.48615 0.43788 -0.64800
O 	O 	0.58465 0.27423 0.63203 -0.52900
O 	O 	0.76834 0.34438 0.37580 -0.56500
O 	O 	0.26520 0.18340 0.20260 -0.26600
O 	O 	0.56120 0.60200 0.27120 -0.53500
O 	O 	0.34820 0.38770 0.90448 -0.51900
O 	O 	0.26610 0.08360 0.25300 -0.25100
O 	O 	0.15180 0.38770 0.48322 -0.51900
O 	O 	0.76520 0.81660 0.79740 -0.26600
O 	O 	0.00460 0.66667 0.33334 -0.95400
O 	O 	0.58465 0.35780 0.72577 -0.52900
O 	O 	0.94580 0.75460 0.35330 -0.56600
O 	O 	0.65180 0.48322 0.09552 -0.51900
O 	O 	0.46810 0.64400 0.24470 -0.50600
