data_crystal

_cell_length_a 17.51500
_cell_length_b 26.68220
_cell_length_c 26.68220
_cell_angle_alpha 76.29610
_cell_angle_beta  70.83960
_cell_angle_gamma 70.83960

_symmetry_space_group_name_	'P 1'
_symmetry_space_group_name_H-M	'P 1'

loop_
_symmetry_equiv_pos_as_xyz
  x,y,z

loop_
_atom_site_label
_atom_site_type_symbol
_atom_site_fract_x
_atom_site_fract_y
_atom_site_fract_z
_atom_site_charge
Zn	Zn	0.90650 0.90003 0.51601 1.19600
Zn	Zn	0.66567 0.40930 0.01416 1.20100
Zn	Zn	0.59350 0.48399 0.09997 1.19800
Zn	Zn	0.82254 0.59997 0.98399 1.19900
Zn	Zn	0.83433 0.98584 0.59070 1.20100
Zn	Zn	0.74765 0.50235 0.00235 1.21000
Zn	Zn	0.91995 0.48761 0.02633 1.19400
Zn	Zn	0.91087 0.51416 0.90930 1.19900
Zn	Zn	0.75235 0.99765 0.49765 1.20900
Zn	Zn	0.58005 0.97367 0.51239 1.19800
Zn	Zn	0.67746 0.01601 0.40003 1.19900
Zn	Zn	0.93389 0.01239 0.47367 1.19600
Zn	Zn	0.58913 0.09070 0.48584 1.20100
Zn	Zn	0.56611 0.52633 0.98761 1.19800
Cd	Cd	0.24520 0.75000 0.75000 1.22600
Cd	Cd	0.75000 0.05764 0.94236 1.21100
Cd	Cd	0.25480 0.25000 0.25000 1.22500
Cd	Cd	0.25000 0.44236 0.55764 1.21200
H 	H 	0.13240 0.31320 0.98160 0.40600
H 	H 	0.41570 0.03570 0.62750 0.41600
H 	H 	0.85840 0.51600 0.73280 0.16700
H 	H 	0.08430 0.37250 0.96430 0.42800
H 	H 	0.74500 0.09300 0.67780 -0.01800
H 	H 	0.80400 0.86130 0.69490 0.66800
H 	H 	0.59510 0.06460 0.75940 0.19400
H 	H 	0.98540 0.70990 0.70250 0.28300
H 	H 	0.51240 0.93250 0.72070 0.15400
H 	H 	0.31170 0.33390 0.99530 0.40700
H 	H 	0.83440 0.22070 0.43250 0.14700
H 	H 	0.60980 0.73260 0.79120 0.15900
H 	H 	0.69610 0.79180 0.50840 0.06100
H 	H 	0.63360 0.76740 0.70880 0.15900
H 	H 	0.43590 0.38570 0.58930 0.00200
H 	H 	0.14090 0.16610 0.50470 0.42400
H 	H 	0.36760 0.01840 0.68680 0.39700
H 	H 	0.50600 0.17540 0.36840 0.75100
H 	H 	0.60220 0.20250 0.20990 0.58500
H 	H 	0.23200 0.31920 0.07680 -0.06000
H 	H 	0.46640 0.67060 0.94760 -0.00700
H 	H 	0.67710 0.17280 0.16620 0.63500
H 	H 	0.71420 0.24620 0.43460 0.15300
H 	H 	0.98150 0.25270 0.88850 0.17700
H 	H 	0.33280 0.07500 0.65640 0.39600
H 	H 	0.94420 0.42910 0.50330 0.01200
H 	H 	0.02770 0.86800 0.88880 0.08700
H 	H 	0.64160 0.26720 0.48400 0.16400
H 	H 	0.74190 0.80330 0.93650 -0.04100
H 	H 	0.97460 0.78090 0.41450 0.17700
H 	H 	0.29690 0.54310 0.29610 -0.07500
H 	H 	0.03030 0.38800 0.18840 -0.00100
H 	H 	0.03360 0.05240 0.32940 -0.01600
H 	H 	0.32040 0.54200 0.55660 0.01900
H 	H 	0.58100 0.05660 0.04200 0.01900
H 	H 	0.83690 0.44480 0.72400 0.17200
H 	H 	0.49150 0.88310 0.71150 0.15800
H 	H 	0.08820 0.86420 0.38760 0.54800
H 	H 	0.89780 0.79010 0.79750 0.62500
H 	H 	0.62270 0.24730 0.61150 0.18500
H 	H 	0.98390 0.66620 0.67280 0.33000
H 	H 	0.91390 0.21150 0.38310 0.14900
H 	H 	0.34560 0.04340 0.55100 0.42100
H 	H 	0.37660 0.07090 0.99670 0.00900
H 	H 	0.99130 0.92540 0.22080 0.15300
H 	H 	0.44200 0.05520 0.06400 0.05000
H 	H 	0.17970 0.85760 0.34980 0.52000
H 	H 	0.92720 0.18680 0.51840 0.41600
H 	H 	0.00850 0.28850 0.11690 0.23300
H 	H 	0.82290 0.83380 0.82720 0.66100
H 	H 	0.78250 0.07960 0.26600 -0.01800
H 	H 	0.98170 0.69670 0.56350 -0.08500
H 	H 	0.23230 0.41730 0.91590 0.39500
H 	H 	0.56160 0.63300 0.21600 0.17400
H 	H 	0.60610 0.52610 0.27890 0.17100
H 	H 	0.55580 0.49670 0.57090 0.00600
H 	H 	0.91900 0.95800 0.94340 0.03700
H 	H 	0.66310 0.27600 0.55520 0.17800
H 	H 	0.58910 0.08930 0.88570 0.00200
H 	H 	0.30350 0.32250 0.94250 0.40200
H 	H 	0.50870 0.77920 0.07460 0.15500
H 	H 	0.94570 0.41200 0.59240 0.05200
H 	H 	0.25620 0.03410 0.56770 0.38000
H 	H 	0.07430 0.58440 0.67180 -0.01900
H 	H 	0.68800 0.95230 0.72850 0.16800
H 	H 	0.69600 0.30510 0.13870 0.64200
H 	H 	0.91540 0.83710 0.81390 0.66300
H 	H 	0.83050 0.91560 0.82820 -0.12900
H 	H 	0.64080 0.25520 0.34920 0.62100
H 	H 	0.74930 0.78340 0.61940 0.07100
H 	H 	0.26680 0.29090 0.99790 0.41700
H 	H 	0.58460 0.18610 0.16290 0.64100
H 	H 	0.14090 0.78260 0.58540 0.04000
H 	H 	0.63120 0.22850 0.45230 0.16900
H 	H 	0.50570 0.05520 0.77600 0.18200
H 	H 	0.99200 0.68870 0.79110 0.34800
H 	H 	0.93840 0.78400 0.36700 0.16200
H 	H 	0.36700 0.64280 0.18580 0.50000
H 	H 	0.98020 0.34290 0.86930 0.06700
H 	H 	0.45010 0.08800 0.90760 0.04900
H 	H 	0.53730 0.92110 0.24970 0.39600
H 	H 	0.60720 0.98400 0.76720 0.16400
H 	H 	0.87870 0.75400 0.12480 0.41100
H 	H 	0.26850 0.57750 0.13430 0.42100
H 	H 	0.49630 0.70820 0.99160 0.06200
H 	H 	0.14360 0.79850 0.66650 -0.03400
H 	H 	0.87190 0.76600 0.57960 -0.02700
H 	H 	0.35640 0.33350 0.20150 -0.03700
H 	H 	0.37200 0.57680 0.81920 -0.06000
H 	H 	0.99430 0.22400 0.94480 0.17000
H 	H 	0.00370 0.00840 0.29180 0.09600
H 	H 	0.20810 0.57890 0.25030 0.40200
H 	H 	0.86390 0.79610 0.04310 -0.08800
H 	H 	0.01580 0.40700 0.82220 0.04900
H 	H 	0.14220 0.87190 0.46350 0.46600
H 	H 	0.99010 0.85940 0.72260 0.76100
H 	H 	0.89280 0.23280 0.01600 0.16000
H 	H 	0.12340 0.00330 0.92910 0.03400
H 	H 	0.80400 0.71460 0.48400 0.15900
H 	H 	0.51460 0.29750 0.29010 0.58600
H 	H 	0.66000 0.88760 0.36420 0.52100
H 	H 	0.90470 0.33880 0.22560 0.16000
H 	H 	0.96770 0.83210 0.37110 0.17100
H 	H 	0.91110 0.97390 0.22110 0.17600
H 	H 	0.04990 0.09240 0.91200 0.02500
H 	H 	0.58460 0.82940 0.55240 -0.00700
H 	H 	0.62130 0.87520 0.24600 0.38800
H 	H 	0.12740 0.85210 0.80770 -0.00800
H 	H 	0.74520 0.24480 0.15080 0.62000
H 	H 	0.97180 0.81130 0.70890 0.74800
H 	H 	0.89020 0.20880 0.26740 0.15000
H 	H 	0.84000 0.63580 0.11240 0.55700
H 	H 	0.06120 0.44480 0.43600 0.04300
H 	H 	0.35910 0.41460 0.21740 0.03600
H 	H 	0.57890 0.46430 0.87250 0.41700
H 	H 	0.19650 0.05750 0.67750 0.40100
H 	H 	0.41180 0.61240 0.13580 0.52500
H 	H 	0.97760 0.62810 0.03650 0.51900
H 	H 	0.58610 0.61690 0.78850 0.15800
H 	H 	0.18830 0.00470 0.66610 0.40500
H 	H 	0.86330 0.69550 0.77210 0.36300
H 	H 	0.69560 0.85720 0.31420 0.49500
H 	H 	0.87730 0.38850 0.75270 0.17600
H 	H 	0.89390 0.72110 0.47390 0.16800
H 	H 	0.24250 0.62480 0.25400 0.39400
H 	H 	0.23150 0.86570 0.42250 0.43300
H 	H 	0.47890 0.97620 0.32580 0.43800
H 	H 	0.48020 0.93650 0.67110 0.16700
H 	H 	0.15440 0.44900 0.95660 0.43100
H 	H 	0.91060 0.86700 0.28400 0.16300
H 	H 	0.80440 0.68580 0.14280 0.53100
H 	H 	0.54600 0.80850 0.70810 0.17500
H 	H 	0.13300 0.81420 0.35720 0.52100
H 	H 	0.84790 0.11940 0.28340 0.06400
H 	H 	0.43360 0.31390 0.33710 0.64200
H 	H 	0.25750 0.74600 0.37520 0.40200
H 	H 	0.43880 0.56400 0.55520 0.05000
H 	H 	0.56420 0.42500 0.84360 0.39500
H 	H 	0.06850 0.17750 0.55750 0.42300
H 	H 	0.26770 0.08410 0.58270 0.38800
H 	H 	0.14200 0.06770 0.53410 0.40300
H 	H 	0.35800 0.46590 0.93230 0.38300
H 	H 	0.90490 0.24060 0.93540 0.18600
H 	H 	0.86880 0.54770 0.77150 0.17700
H 	H 	0.21280 0.30770 0.35210 0.00100
H 	H 	0.44440 0.49790 0.79090 0.41500
H 	H 	0.96010 0.70870 0.13150 0.39200
H 	H 	0.37260 0.19230 0.14790 -0.00000
H 	H 	0.17960 0.44340 0.45800 0.02300
H 	H 	0.52820 0.29110 0.18870 0.71400
H 	H 	0.47230 0.11120 0.13200 0.06200
H 	H 	0.96910 0.16120 0.27440 0.16900
H 	H 	0.10670 0.11200 0.31160 -0.01800
H 	H 	0.91540 0.44760 0.17060 -0.00100
H 	H 	0.78580 0.56540 0.75380 0.16200
H 	H 	0.12800 0.18080 0.42320 -0.07000
H 	H 	0.49110 0.08540 0.28260 0.03600
H 	H 	0.06640 0.66290 0.68610 0.35200
H 	H 	0.05800 0.93600 0.94480 0.02500
H 	H 	0.69240 0.15710 0.63070 0.07600
H 	H 	0.65210 0.71660 0.88060 0.06800
H 	H 	0.51980 0.13070 0.65710 0.07700
H 	H 	0.91220 0.17110 0.43650 0.15600
H 	H 	0.53230 0.62890 0.16790 0.18500
H 	H 	0.83090 0.80450 0.72790 0.63400
H 	H 	0.67000 0.71910 0.08550 0.19000
H 	H 	0.35780 0.53650 0.12810 0.45100
H 	H 	0.28720 0.64790 0.69230 0.00200
H 	H 	0.99740 0.98400 0.21460 0.16000
H 	H 	0.53090 0.72560 0.83880 0.18100
H 	H 	0.95020 0.86840 0.67540 0.77300
H 	H 	0.48420 0.17780 0.59300 -0.01600
H 	H 	0.46970 0.81160 0.61200 -0.01400
H 	H 	0.80760 0.36930 0.84290 0.07300
H 	H 	0.74310 0.23990 0.93170 -0.04100
H 	H 	0.28870 0.44220 0.30060 0.02200
H 	H 	0.58890 0.77890 0.02610 0.17500
H 	H 	0.82910 0.87110 0.33210 0.17700
H 	H 	0.32030 0.65020 0.14240 0.50200
H 	H 	0.75480 0.84920 0.75520 0.64700
H 	H 	0.62810 0.42040 0.23400 -0.01700
H 	H 	0.43150 0.44250 0.82250 0.40000
H 	H 	0.56260 0.69150 0.79190 0.17500
H 	H 	0.43450 0.41590 0.91730 0.38900
H 	H 	0.58780 0.56350 0.82890 0.16600
H 	H 	0.50800 0.20890 0.31130 0.71400
H 	H 	0.51850 0.11150 0.74730 0.18800
H 	H 	0.57280 0.48160 0.81320 0.39800
H 	H 	0.21130 0.69940 0.55780 0.02100
H 	H 	0.19970 0.63150 0.20870 0.38100
H 	H 	0.63670 0.22790 0.30450 0.59700
H 	H 	0.29190 0.74970 0.42110 0.40800
H 	H 	0.51830 0.43650 0.30330 -0.03600
H 	H 	0.08530 0.43170 0.73990 0.01400
H 	H 	0.42570 0.32820 0.41560 -0.12200
H 	H 	0.26800 0.92320 0.68080 -0.06000
H 	H 	0.96270 0.75030 0.07890 0.41500
H 	H 	0.67090 0.66790 0.12890 0.18100
H 	H 	0.99400 0.63160 0.82460 0.38500
H 	H 	0.30030 0.79130 0.36850 0.38600
H 	H 	0.93580 0.15640 0.57500 0.41300
H 	H 	0.10860 0.70150 0.83350 -0.03300
H 	H 	0.16720 0.34360 0.92500 0.40500
H 	H 	0.50990 0.27740 0.14060 0.74100
H 	H 	0.93740 0.20810 0.30850 0.16500
H 	H 	0.98760 0.27930 0.06750 0.20600
H 	H 	0.63980 0.19490 0.36130 0.64400
H 	H 	0.21910 0.82580 0.47620 0.45300
H 	H 	0.05560 0.20910 0.50210 0.43900
H 	H 	0.39140 0.16650 0.29850 -0.03700
H 	H 	0.58940 0.71600 0.13300 0.17200
H 	H 	0.01980 0.32890 0.06350 0.23800
H 	H 	0.66910 0.27210 0.19550 0.59600
H 	H 	0.06410 0.41070 0.61430 -0.00200
H 	H 	0.02110 0.67420 0.02380 0.52800
H 	H 	0.42790 0.22260 0.35940 0.74200
H 	H 	0.75500 0.32220 0.90700 -0.01600
H 	H 	0.41470 0.26010 0.56830 -0.04100
H 	H 	0.44000 0.45660 0.94900 0.42300
H 	H 	0.83000 0.91450 0.28090 0.18400
H 	H 	0.28450 0.63200 0.61120 0.06400
H 	H 	0.54980 0.32460 0.13160 0.75000
H 	H 	0.24380 0.43230 0.96590 0.38800
H 	H 	0.66950 0.17180 0.08440 -0.12100
H 	H 	0.95400 0.29190 0.19150 0.14700
H 	H 	0.69600 0.51600 0.28540 0.15800
H 	H 	0.39330 0.68840 0.88800 -0.01300
H 	H 	0.86020 0.63870 0.80510 0.40800
H 	H 	0.86640 0.29120 0.23260 0.13800
H 	H 	0.06550 0.08270 0.58410 0.41400
H 	H 	0.59530 0.77440 0.66120 0.18200
H 	H 	0.50260 0.78540 0.01600 0.16400
H 	H 	0.52540 0.58550 0.21910 0.19300
H 	H 	0.23320 0.00210 0.70910 0.41500
H 	H 	0.51610 0.32720 0.33380 0.63600
H 	H 	0.06000 0.05100 0.54340 0.45000
H 	H 	0.20310 0.70390 0.45690 -0.09200
H 	H 	0.01970 0.63430 0.07750 0.50700
H 	H 	0.28090 0.52380 0.17420 0.44100
H 	H 	0.35910 0.49530 0.83390 0.40700
H 	H 	0.91090 0.11430 0.91070 0.01900
H 	H 	0.91910 0.43540 0.74060 0.18000
H 	H 	0.53150 0.05780 0.19940 0.02200
H 	H 	0.89500 0.25380 0.06540 0.14500
H 	H 	0.63610 0.95690 0.20390 -0.07600
H 	H 	0.48030 0.92250 0.36570 0.41800
H 	H 	0.81200 0.27150 0.04770 0.16600
H 	H 	0.60500 0.93460 0.74620 0.15100
H 	H 	0.55430 0.40760 0.58800 0.04800
H 	H 	0.86250 0.72080 0.42540 0.14900
H 	H 	0.80390 0.49160 0.20820 0.05800
H 	H 	0.61290 0.84980 0.35760 0.49700
H 	H 	0.52240 0.96350 0.37190 0.44800
H 	H 	0.75810 0.06350 0.19670 -0.03700
H 	H 	0.00890 0.71740 0.91460 0.06600
H 	H 	0.75690 0.06830 0.76010 -0.04400
H 	H 	0.96850 0.80060 0.94220 -0.02700
H 	H 	0.21550 0.38880 0.36800 0.06300
H 	H 	0.88710 0.64240 0.15020 0.52900
H 	H 	0.53990 0.86850 0.29130 0.37400
H 	H 	0.92110 0.12750 0.53570 0.43800
H 	H 	0.66560 0.56750 0.77930 0.15300
H 	H 	0.71750 0.73400 0.92040 -0.01900
H 	H 	0.75070 0.38060 0.21660 0.05800
H 	H 	0.58090 0.25940 0.56460 0.19200
H 	H 	0.85920 0.65080 0.74480 0.38700
H 	H 	0.07210 0.64060 0.77740 0.39600
H 	H 	0.63750 0.57460 0.27920 0.15000
C 	C 	0.75280 0.10150 0.58050 -0.00700
C 	C 	0.66730 0.68020 0.87820 -0.14900
C 	C 	0.60190 0.44190 0.20810 0.08100
C 	C 	0.04380 0.83470 0.87770 -0.16600
C 	C 	0.55830 0.60880 0.19580 -0.59700
C 	C 	0.75640 0.54520 0.09600 0.13600
C 	C 	0.23460 0.60650 0.22990 -1.31500
C 	C 	0.56250 0.05630 0.69490 0.12400
C 	C 	0.85650 0.82810 0.42350 0.10900
C 	C 	0.78730 0.12870 0.42850 -0.09200
C 	C 	0.24220 0.32910 0.32510 0.01600
C 	C 	0.99600 0.44090 0.83250 -0.02900
C 	C 	0.83730 0.92300 0.74980 -0.77500
C 	C 	0.51150 0.94830 0.34670 -1.44800
C 	C 	0.40760 0.15540 0.26520 0.00500
C 	C 	0.40240 0.48790 0.30890 -0.23700
C 	C 	0.80910 0.84220 0.72960 -2.16300
C 	C 	0.17040 0.18670 0.31870 0.32100
C 	C 	0.71660 0.02670 0.27190 -0.26800
C 	C 	0.77190 0.51290 0.18530 -0.11600
C 	C 	0.80430 0.51320 0.13020 -0.03400
C 	C 	0.13460 0.63240 0.52840 0.35900
C 	C 	0.82400 0.88320 0.42320 -0.12700
C 	C 	0.60070 0.79260 0.68640 -0.54200
C 	C 	0.92900 0.72990 0.10650 -1.38500
C 	C 	0.90430 0.69090 0.07990 1.15300
C 	C 	0.94770 0.98680 0.36980 -0.01200
C 	C 	0.32420 0.81870 0.68670 0.31400
C 	C 	0.50800 0.48800 0.57200 0.00900
C 	C 	0.79040 0.49700 0.81280 0.05500
C 	C 	0.48000 0.63360 0.95000 0.08700
C 	C 	0.41860 0.45300 0.92180 -1.34100
C 	C 	0.17510 0.80910 0.42010 1.09400
C 	C 	0.57100 0.89350 0.27010 -1.30100
C 	C 	0.43600 0.42150 0.58250 0.03800
C 	C 	0.72570 0.81980 0.62180 -0.15500
C 	C 	0.77090 0.85630 0.59210 -0.00900
C 	C 	0.48340 0.20890 0.51450 -0.32100
C 	C 	0.69150 0.54450 0.20610 0.04900
C 	C 	0.10360 0.82510 0.82910 0.04600
C 	C 	0.32490 0.57990 0.19090 1.05500
C 	C 	0.74810 0.70810 0.94190 0.09200
C 	C 	0.02410 0.06590 0.91790 -0.02700
C 	C 	0.35170 0.52550 0.27910 0.25400
C 	C 	0.36540 0.47160 0.36760 0.33700
C 	C 	0.69570 0.86980 0.48680 -0.03000
C 	C 	0.17930 0.34350 0.08570 0.21200
C 	C 	0.39150 0.58570 0.84350 0.21800
C 	C 	0.62100 0.58680 0.80580 -0.48700
C 	C 	0.89760 0.95480 0.40400 0.12300
C 	C 	0.93640 0.45000 0.13360 0.05300
C 	C 	0.94790 0.15260 0.53820 -1.38600
C 	C 	0.43200 0.07200 0.98800 0.00700
C 	C 	0.38260 0.53710 0.22390 -0.49400
C 	C 	0.94500 0.98490 0.93710 -0.04400
C 	C 	0.64550 0.83760 0.65500 0.09600
C 	C 	0.02000 0.05000 0.36640 0.12600
C 	C 	0.67600 0.57680 0.11680 -0.12800
C 	C 	0.83910 0.15850 0.39210 0.03600
C 	C 	0.89810 0.79190 0.55810 0.12200
C 	C 	0.48820 0.21050 0.34910 -2.47500
C 	C 	0.54500 0.09500 0.65200 -0.16100
C 	C 	0.60240 0.59600 0.04520 0.13500
C 	C 	0.99210 0.41790 0.56590 -0.13400
C 	C 	0.39640 0.17090 0.17490 0.01600
C 	C 	0.11740 0.77610 0.46290 -0.53700
C 	C 	0.36270 0.86080 0.65160 -0.21600
C 	C 	0.08140 0.07820 0.54700 -1.41100
C 	C 	0.17180 0.76520 0.65540 0.01500
C 	C 	0.44160 0.84740 0.61520 0.12700
C 	C 	0.97830 0.63840 0.75300 0.86900
C 	C 	0.72400 0.47280 0.90600 0.12900
C 	C 	0.69090 0.27040 0.15780 -2.08000
C 	C 	0.87960 0.36320 0.01160 -0.08800
C 	C 	0.79540 0.86760 0.97160 0.34200
C 	C 	0.94170 0.80420 0.39120 -0.57000
C 	C 	0.98640 0.30580 0.08680 -0.68500
C 	C 	0.66090 0.60790 0.84150 0.04000
C 	C 	0.01570 0.71670 0.53830 0.27100
C 	C 	0.59570 0.92010 0.30910 1.04600
C 	C 	0.77430 0.37820 0.18020 -0.12600
C 	C 	0.64360 0.96290 0.27610 -0.49200
C 	C 	0.13300 0.43710 0.48490 0.01200
C 	C 	0.28800 0.40970 0.29430 0.00000
C 	C 	0.05840 0.38480 0.15260 0.11200
C 	C 	0.61030 0.89210 0.65850 0.03800
C 	C 	0.80080 0.80890 0.98790 -0.25300
C 	C 	0.95220 0.84910 0.71050 -2.55800
C 	C 	0.41200 0.30220 0.49480 -0.31500
C 	C 	0.89980 0.31280 0.99700 0.03700
C 	C 	0.67040 0.23710 0.46470 -0.50800
C 	C 	0.51160 0.20500 0.46000 0.48500
C 	C 	0.70960 0.18720 0.50300 0.04800
C 	C 	0.89930 0.31360 0.20740 -0.48300
C 	C 	0.35740 0.95440 0.62520 -0.43800
C 	C 	0.00800 0.79430 0.90970 0.09100
C 	C 	0.20660 0.42180 0.95300 -1.35500
C 	C 	0.61910 0.22960 0.34220 -2.08300
C 	C 	0.48990 0.24980 0.42300 -0.74900
C 	C 	0.95500 0.34800 0.90500 -0.15400
C 	C 	0.16980 0.75560 0.60680 -0.11600
C 	C 	0.22350 0.02020 0.67520 -1.34800
C 	C 	0.47830 0.88750 0.58390 -0.23800
C 	C 	0.01660 0.48550 0.79110 -0.13000
C 	C 	0.17580 0.31330 0.18130 0.31200
C 	C 	0.66270 0.25020 0.07700 -0.74700
C 	C 	0.19350 0.84670 0.44830 -1.49800
C 	C 	0.80850 0.79390 0.45550 0.05400
C 	C 	0.44970 0.61250 0.91610 -0.23800
C 	C 	0.86970 0.86160 0.74700 1.75200
C 	C 	0.54780 0.28950 0.15090 -2.47200
C 	C 	0.47590 0.08210 0.93410 -0.11000
C 	C 	0.06400 0.41750 0.57850 0.06600
C 	C 	0.62780 0.96470 0.73710 -0.50200
C 	C 	0.57970 0.70740 0.81360 -0.54100
C 	C 	0.65380 0.53990 0.26850 -0.50500
C 	C 	0.92030 0.18640 0.29260 -0.52200
C 	C 	0.84370 0.77910 0.02550 0.28100
C 	C 	0.86190 0.15500 0.33760 0.08700
C 	C 	0.68630 0.19490 0.55630 0.11900
C 	C 	0.72300 0.24250 0.96810 0.20700
C 	C 	0.60280 0.02720 0.59400 0.12400
C 	C 	0.98840 0.54000 0.79500 0.25100
C 	C 	0.35430 0.35120 0.51620 0.38000
C 	C 	0.51520 0.47330 0.22810 -0.26700
C 	C 	0.09240 0.73480 0.84460 0.03900
C 	C 	0.21200 0.70570 0.59030 0.00900
C 	C 	0.72810 0.81470 0.48710 -0.12000
C 	C 	0.96220 0.96010 0.23150 -0.52600
C 	C 	0.43360 0.25750 0.53190 0.21100
C 	C 	0.95650 0.25050 0.92650 -0.56900
C 	C 	0.74360 0.90400 0.45480 0.13500
C 	C 	0.03550 0.80170 0.48910 0.43500
C 	C 	0.67370 0.98910 0.30170 0.36900
C 	C 	0.73580 0.91070 0.59550 0.11500
C 	C 	0.03220 0.74440 0.89320 -0.16800
C 	C 	0.19160 0.36850 0.98610 0.92200
C 	C 	0.55790 0.70610 0.04450 0.05500
C 	C 	0.78340 0.72810 0.97330 -0.28100
C 	C 	0.09760 0.69110 0.51210 -0.29000
C 	C 	0.40420 0.65260 0.88480 0.12700
C 	C 	0.43700 0.54560 0.87480 -0.44100
C 	C 	0.75440 0.13680 0.48840 -0.10000
C 	C 	0.52170 0.24700 0.36160 1.68700
C 	C 	0.79320 0.01450 0.70890 -0.33000
C 	C 	0.09580 0.11520 0.34740 0.14900
C 	C 	0.01010 0.57700 0.75020 -0.35800
C 	C 	0.06800 0.01200 0.92800 -0.06200
C 	C 	0.06640 0.46810 0.74250 0.05900
C 	C 	0.30840 0.01390 0.63150 0.91000
C 	C 	0.00620 0.67260 0.69840 -1.08900
C 	C 	0.74560 0.51160 0.86320 -0.10200
C 	C 	0.45380 0.48610 0.86850 0.91400
C 	C 	0.74720 0.41950 0.89850 -0.00800
C 	C 	0.86960 0.92320 0.38320 -0.11800
C 	C 	0.04620 0.13150 0.51390 0.97800
C 	C 	0.10850 0.15650 0.41430 0.24200
C 	C 	0.72930 0.03830 0.21670 0.14600
C 	C 	0.56520 0.08050 0.60150 -0.00400
C 	C 	0.65550 0.92850 0.62870 -0.09200
C 	C 	0.14260 0.37480 0.04560 -0.43900
C 	C 	0.54350 0.07350 0.74950 -0.58900
C 	C 	0.85480 0.66110 0.12530 -1.79200
C 	C 	0.01180 0.65090 0.78950 -1.27900
C 	C 	0.72910 0.40790 0.14370 -0.02700
C 	C 	0.81370 0.44370 0.80510 0.11000
C 	C 	0.77700 0.03190 0.75750 0.21500
C 	C 	0.82960 0.53530 0.76290 -0.51900
C 	C 	0.43620 0.94100 0.58900 0.33700
C 	C 	0.24380 0.37770 0.33470 -0.11400
C 	C 	0.48430 0.46170 0.28330 0.14600
C 	C 	0.63810 0.66240 0.84500 0.09800
C 	C 	0.79200 0.40500 0.84800 -0.15300
C 	C 	0.98850 0.65330 0.05170 -1.70400
C 	C 	0.94000 0.07850 0.91750 -0.02500
C 	C 	0.94210 0.95550 0.29390 0.07500
C 	C 	0.69920 0.01210 0.19110 -0.23800
C 	C 	0.87720 0.82740 0.80160 -2.15900
C 	C 	0.25620 0.66530 0.62230 -0.11200
C 	C 	0.84620 0.73150 0.46010 -0.50400
C 	C 	0.60020 0.00300 0.68720 0.04300
C 	C 	0.06300 0.12520 0.45440 -0.47200
C 	C 	0.45620 0.12230 0.16530 -0.11500
C 	C 	0.70900 0.19780 0.00520 -0.30900
C 	C 	0.71930 0.64370 0.90790 -0.00500
C 	C 	0.65630 0.97450 0.22090 0.25400
C 	C 	0.77070 0.78330 0.96170 0.15900
C 	C 	0.14570 0.48380 0.64880 0.32800
C 	C 	0.86290 0.89120 0.30420 -0.57100
C 	C 	0.99200 0.42800 0.51200 -0.02100
C 	C 	0.02170 0.41610 0.11250 -0.20600
C 	C 	0.32960 0.68130 0.81330 0.31300
C 	C 	0.85640 0.72390 0.03710 -0.53600
C 	C 	0.75800 0.09550 0.41070 0.11600
C 	C 	0.55210 0.46180 0.84740 -1.30400
C 	C 	0.84450 0.37130 0.07150 -0.12000
C 	C 	0.13870 0.34740 0.96180 -1.32400
C 	C 	0.67660 0.29500 0.04000 0.48600
C 	C 	0.33020 0.39320 0.24440 -0.11800
C 	C 	0.13730 0.34840 0.13920 -0.20800
C 	C 	0.56360 0.86640 0.55000 0.08700
C 	C 	0.77830 0.01620 0.85120 0.37900
C 	C 	0.63030 0.25300 0.13840 1.68400
C 	C 	0.63710 0.69580 0.10880 -0.59100
C 	C 	0.44020 0.29830 0.44030 0.40800
C 	C 	0.41890 0.47980 0.82480 -1.35100
C 	C 	0.56000 0.08250 0.92150 0.03700
C 	C 	0.32070 0.91430 0.65650 0.21600
C 	C 	0.93750 0.30510 0.94370 0.11400
C 	C 	0.06380 0.41100 0.05900 0.32500
C 	C 	0.62040 0.98840 0.63680 -0.09500
C 	C 	0.76940 0.05910 0.66750 0.11100
C 	C 	0.98480 0.77190 0.52670 -0.36500
C 	C 	0.05980 0.55970 0.70170 0.16600
C 	C 	0.87220 0.26290 0.03530 -0.49400
C 	C 	0.83270 0.12180 0.31980 -0.15000
C 	C 	0.79100 0.99480 0.80220 -0.32100
C 	C 	0.64350 0.57650 0.17190 0.11800
C 	C 	0.08110 0.17520 0.52020 -1.41400
C 	C 	0.63350 0.24950 0.57350 -0.58200
C 	C 	0.47190 0.06210 0.02810 -0.09400
C 	C 	0.52990 0.68530 0.01290 -0.12000
C 	C 	0.82630 0.69830 0.01090 0.39000
C 	C 	0.12490 0.15160 0.36080 -0.23000
C 	C 	0.89720 0.40600 0.97280 0.12100
C 	C 	0.37510 0.63920 0.84840 -0.21600
C 	C 	0.36700 0.51510 0.56290 0.02300
C 	C 	0.14120 0.83890 0.37470 -1.73800
C 	C 	0.50400 0.16750 0.55910 0.11000
C 	C 	0.88970 0.34150 0.10790 0.09400
C 	C 	0.03380 0.08900 0.44100 0.38100
C 	C 	0.14830 0.72090 0.47450 0.30400
C 	C 	0.87900 0.19420 0.41320 -0.47600
C 	C 	0.25780 0.67490 0.67090 0.02700
C 	C 	0.46780 0.10680 0.25560 -0.11900
C 	C 	0.74200 0.58930 0.90450 0.12000
C 	C 	0.70680 0.29110 0.98550 -0.32100
C 	C 	0.02810 0.97190 0.93790 -0.00600
C 	C 	0.71270 0.57150 0.87130 -0.08900
C 	C 	0.85450 0.34500 0.16240 0.05200
C 	C 	0.50790 0.43410 0.58210 -0.11100
C 	C 	0.70800 0.15200 0.59500 -0.15800
C 	C 	0.72170 0.14880 0.98380 0.37500
C 	C 	0.30650 0.55170 0.15330 -1.45700
C 	C 	0.86650 0.42650 0.75050 -0.56400
C 	C 	0.78070 0.09210 0.35630 -0.01400
C 	C 	0.46620 0.55900 0.91100 0.33800
C 	C 	0.26540 0.77010 0.39350 -1.34300
C 	C 	0.05030 0.08390 0.38750 -0.26200
C 	C 	0.88090 0.65780 0.77040 -1.28600
C 	C 	0.82120 0.94030 0.79830 0.42100
C 	C 	0.60810 0.67190 0.07650 0.11400
C 	C 	0.49200 0.09030 0.20570 -0.00000
C 	C 	0.70460 0.02840 0.13240 0.33700
C 	C 	0.35880 0.62530 0.16110 -1.68100
C 	C 	0.36130 0.03820 0.65260 -1.30200
C 	C 	0.29340 0.04700 0.57820 -1.33600
C 	C 	0.82340 0.96000 0.70500 0.49600
C 	C 	0.76420 0.40450 0.08930 0.13100
C 	C 	0.49380 0.30160 0.32740 -2.07900
C 	C 	0.62280 0.19840 0.17260 -2.07700
C 	C 	0.93480 0.39850 0.91950 -0.01600
C 	C 	0.63040 0.61680 0.07680 -0.12500
C 	C 	0.06210 0.43790 0.47190 -0.06000
C 	C 	0.08800 0.50520 0.69780 -0.16800
C 	C 	0.43790 0.52810 0.56210 -0.09600
C 	C 	0.27650 0.32480 0.97980 -1.35600
C 	C 	0.75190 0.05810 0.29190 0.08300
C 	C 	0.73060 0.33250 0.94090 0.11000
C 	C 	0.97010 0.98710 0.31470 -0.17500
C 	C 	0.55500 0.06290 0.01510 0.02400
C 	C 	0.53780 0.76850 0.03990 -0.51500
C 	C 	0.51360 0.91320 0.69420 -0.48800
C 	C 	0.89190 0.92350 0.32810 0.09900
C 	C 	0.67880 0.20170 0.05970 0.40500
C 	C 	0.64520 0.87470 0.33890 -1.66900
C 	C 	0.77600 0.09400 0.52720 0.12700
C 	C 	0.46450 0.51090 0.19830 0.36900
C 	C 	0.55230 0.63020 0.01320 -0.02900
C 	C 	0.32820 0.34460 0.23480 0.00500
N 	N 	0.95280 0.44450 0.88210 -0.25600
N 	N 	0.85400 0.84060 0.55940 -0.28400
N 	N 	0.77940 0.05550 0.61790 -0.28300
N 	N 	0.75400 0.65940 0.94060 -0.27400
N 	N 	0.61110 0.89410 0.51790 -0.27400
N 	N 	0.90140 0.03830 0.92690 -0.18700
N 	N 	0.12790 0.77530 0.81250 -0.25300
N 	N 	0.54720 0.11790 0.55550 -0.28200
N 	N 	0.72060 0.38210 0.94450 -0.28100
N 	N 	0.97690 0.01790 0.39410 -0.29500
N 	N 	0.28430 0.31250 0.27530 -0.24700
N 	N 	0.59860 0.07310 0.96170 -0.20400
N 	N 	0.21570 0.72470 0.68750 -0.24300
N 	N 	0.52310 0.60590 0.98210 -0.27400
N 	N 	0.74600 0.05940 0.34060 -0.27400
N 	N 	0.88890 0.48210 0.10590 -0.27000
N 	N 	0.37210 0.18750 0.22470 -0.24700
N 	N 	0.13340 0.42690 0.53830 -0.20400
N 	N 	0.64600 0.44060 0.15940 -0.27200
N 	N 	0.36660 0.46170 0.57310 -0.20300
O 	O 	0.56630 0.03780 0.45380 -0.72500
O 	O 	0.01030 0.85500 0.47800 -0.52600
O 	O 	0.24870 0.28160 0.16780 -0.43000
O 	O 	0.99180 0.05880 0.48160 -0.54300
O 	O 	0.65780 0.34170 0.05670 -0.57900
O 	O 	0.84330 0.64500 0.02200 -0.53200
O 	O 	0.62690 0.01670 0.54310 -0.64800
O 	O 	0.94380 0.55670 0.84170 -0.50000
O 	O 	0.13730 0.31900 0.23140 -0.36800
O 	O 	0.71790 0.10600 0.01660 -0.36800
O 	O 	0.31230 0.73140 0.81900 -0.37100
O 	O 	0.94210 0.95380 0.53780 -0.73200
O 	O 	0.82500 0.88980 0.99300 -0.28700
O 	O 	0.62640 0.54270 0.04150 -0.65700
O 	O 	0.55620 0.15830 0.44330 -0.57900
O 	O 	0.78210 0.98340 0.89400 -0.37100
O 	O 	0.71110 0.06330 0.44510 -0.65400
O 	O 	0.03220 0.44120 0.01840 -0.50300
O 	O 	0.87310 0.45690 0.98330 -0.65000
O 	O 	0.41720 0.43370 0.39070 -0.25400
O 	O 	0.08280 0.60930 0.56630 -0.24600
O 	O 	0.55790 0.46220 0.04620 -0.72400
O 	O 	0.30190 0.66780 0.78160 -0.42600
O 	O 	0.73430 0.14860 0.93480 -0.41200
O 	O 	0.74160 0.06630 0.10930 -0.25500
O 	O 	0.36270 0.76860 0.68100 -0.37200
O 	O 	0.78940 0.54150 0.04270 -0.65800
O 	O 	0.93370 0.54620 0.96220 -0.72800
O 	O 	0.18770 0.18100 0.26860 -0.37100
O 	O 	0.67500 0.00700 0.11020 -0.28200
O 	O 	0.76570 0.06520 0.85140 -0.41300
O 	O 	0.71060 0.95730 0.45850 -0.65800
O 	O 	0.81330 0.04310 0.51670 -0.64800
O 	O 	0.20780 0.61020 0.50700 -0.28600
O 	O 	0.71950 0.43670 0.05490 -0.65700
O 	O 	0.84220 0.94330 0.65830 -0.58600
O 	O 	0.25130 0.83220 0.71840 -0.42900
O 	O 	0.29220 0.49300 0.38980 -0.28000
O 	O 	0.46780 0.98160 0.55880 -0.51400
O 	O 	0.65670 0.97800 0.35500 -0.52300
O 	O 	0.48970 0.52200 0.14500 -0.52400
O 	O 	0.50820 0.51840 0.94120 -0.51600
O 	O 	0.68670 0.48330 0.95690 -0.64900
O 	O 	0.87360 0.95850 0.45730 -0.65700
O 	O 	0.19810 0.21840 0.33220 -0.43200
O 	O 	0.78050 0.94510 0.56330 -0.65400
O 	O 	0.15950 0.51660 0.60600 -0.35400
O 	O 	0.34050 0.39400 0.48340 -0.37100
O 	O 	0.31770 0.35140 0.56520 -0.41100
O 	O 	0.78890 0.55490 0.93670 -0.65400
O 	O 	0.75840 0.89070 0.93370 -0.25600
O 	O 	0.18230 0.43480 0.64860 -0.39600
