data_crystal

_cell_length_a 15.60190
_cell_length_b 15.60190
_cell_length_c 15.60190
_cell_angle_alpha 90.00000
_cell_angle_beta  90.00000
_cell_angle_gamma 90.00000

_symmetry_space_group_name_	'P 1'
_symmetry_space_group_name_H-M	'P 1'

loop_
_symmetry_equiv_pos_as_xyz
  x,y,z

loop_
_atom_site_label
_atom_site_type_symbol
_atom_site_fract_x
_atom_site_fract_y
_atom_site_fract_z
_atom_site_charge
C 	C 	0.26870 0.50370 0.01150 0.30400
C 	C 	0.27030 0.40730 0.01920 -0.45000
H 	H 	0.21210 0.38650 0.02640 0.18100
H 	H 	0.30260 0.39140 0.06980 0.17000
C 	C 	0.31040 0.36400 0.94050 0.27500
H 	H 	0.37090 0.38040 0.93640 -0.02300
C 	C 	0.26390 0.39290 0.86010 -0.05300
H 	H 	0.20470 0.37220 0.86260 0.07400
C 	C 	0.26260 0.49070 0.85110 0.22600
H 	H 	0.22930 0.50580 0.80000 -0.02400
C 	C 	0.21940 0.53070 0.93010 -0.42400
H 	H 	0.16040 0.51150 0.93380 0.16200
H 	H 	0.21940 0.59270 0.92500 0.15700
C 	C 	0.22350 0.54060 0.09220 0.18300
O 	O 	0.35270 0.53760 0.00780 -0.62600
H 	H 	0.36850 0.54000 0.95770 0.28500
O 	O 	0.27160 0.58400 0.14190 -0.34900
O 	O 	0.14650 0.52680 0.10400 -0.21600
O 	O 	0.30400 0.27230 0.94390 -0.45500
H 	H 	0.32090 0.25530 0.99070 0.26200
O 	O 	0.30590 0.35340 0.78810 -0.36400
H 	H 	0.28440 0.37090 0.74350 0.26200
O 	O 	0.34880 0.52310 0.84100 -0.34000
H 	H 	0.36890 0.53430 0.88820 0.15900
C 	C 	0.23130 0.49630 0.51150 0.30300
C 	C 	0.22970 0.59270 0.51920 -0.45100
H 	H 	0.28790 0.61350 0.52640 0.18100
H 	H 	0.19740 0.60860 0.56980 0.17000
C 	C 	0.18960 0.63600 0.44050 0.27600
H 	H 	0.12910 0.61960 0.43640 -0.02300
C 	C 	0.23610 0.60710 0.36010 -0.05300
H 	H 	0.29530 0.62780 0.36260 0.07400
C 	C 	0.23740 0.50930 0.35110 0.22600
H 	H 	0.27070 0.49420 0.30000 -0.02400
C 	C 	0.28060 0.46930 0.43010 -0.42400
H 	H 	0.33960 0.48850 0.43380 0.16200
H 	H 	0.28060 0.40730 0.42500 0.15700
C 	C 	0.27650 0.45940 0.59220 0.18300
O 	O 	0.14730 0.46240 0.50780 -0.62700
H 	H 	0.13150 0.46000 0.45770 0.28600
O 	O 	0.22840 0.41600 0.64190 -0.34900
O 	O 	0.35350 0.47320 0.60400 -0.21700
O 	O 	0.19600 0.72770 0.44390 -0.45500
H 	H 	0.17910 0.74470 0.49070 0.26300
O 	O 	0.19410 0.64660 0.28810 -0.36400
H 	H 	0.21560 0.62910 0.24350 0.26200
O 	O 	0.15120 0.47690 0.34100 -0.33900
H 	H 	0.13110 0.46570 0.38820 0.15900
C 	C 	0.73130 0.00370 0.48850 0.30400
C 	C 	0.72970 0.90730 0.48080 -0.45100
H 	H 	0.78790 0.88650 0.47360 0.18100
H 	H 	0.69740 0.89140 0.43020 0.17000
C 	C 	0.68960 0.86400 0.55950 0.27600
H 	H 	0.62910 0.88040 0.56360 -0.02300
C 	C 	0.73610 0.89290 0.63990 -0.05400
H 	H 	0.79530 0.87220 0.63740 0.07400
C 	C 	0.73740 0.99070 0.64890 0.22700
H 	H 	0.77070 0.00580 0.70000 -0.02500
C 	C 	0.78060 0.03070 0.56990 -0.42400
H 	H 	0.83960 0.01150 0.56620 0.16200
H 	H 	0.78060 0.09270 0.57500 0.15700
C 	C 	0.77650 0.04060 0.40780 0.18300
O 	O 	0.64730 0.03760 0.49220 -0.62700
H 	H 	0.63150 0.04000 0.54230 0.28500
O 	O 	0.72840 0.08400 0.35810 -0.34900
O 	O 	0.85350 0.02680 0.39600 -0.21700
O 	O 	0.69600 0.77230 0.55610 -0.45500
H 	H 	0.67910 0.75530 0.50930 0.26300
O 	O 	0.69410 0.85340 0.71190 -0.36400
H 	H 	0.71560 0.87090 0.75650 0.26200
O 	O 	0.65120 0.02310 0.65900 -0.34000
H 	H 	0.63110 0.03430 0.61180 0.15900
C 	C 	0.76870 0.99630 0.98850 0.30600
C 	C 	0.77030 0.09270 0.98080 -0.45400
H 	H 	0.71210 0.11350 0.97360 0.18200
H 	H 	0.80260 0.10860 0.93020 0.17000
C 	C 	0.81040 0.13600 0.05950 0.27800
H 	H 	0.87090 0.11960 0.06360 -0.02400
C 	C 	0.76390 0.10710 0.13990 -0.05500
H 	H 	0.70470 0.12780 0.13740 0.07500
C 	C 	0.76260 0.00930 0.14890 0.23000
H 	H 	0.72930 0.99420 0.20000 -0.02600
C 	C 	0.71940 0.96930 0.06990 -0.42700
H 	H 	0.66040 0.98850 0.06620 0.16300
H 	H 	0.71940 0.90730 0.07500 0.15700
C 	C 	0.72350 0.95940 0.90780 0.18200
O 	O 	0.85270 0.96240 0.99220 -0.62600
H 	H 	0.86850 0.96000 0.04230 0.28400
O 	O 	0.77160 0.91600 0.85810 -0.34900
O 	O 	0.64650 0.97320 0.89600 -0.21600
O 	O 	0.80400 0.22770 0.05610 -0.45500
H 	H 	0.82090 0.24470 0.00930 0.26300
O 	O 	0.80590 0.14660 0.21190 -0.36400
H 	H 	0.78440 0.12910 0.25650 0.26100
O 	O 	0.84880 0.97690 0.15900 -0.34100
H 	H 	0.86890 0.96570 0.11180 0.15900
C 	C 	0.01150 0.26870 0.50370 0.30400
C 	C 	0.01920 0.27030 0.40730 -0.45000
H 	H 	0.02640 0.21210 0.38650 0.18100
H 	H 	0.06980 0.30260 0.39140 0.17000
C 	C 	0.94050 0.31040 0.36400 0.27500
H 	H 	0.93640 0.37090 0.38040 -0.02300
C 	C 	0.86010 0.26390 0.39290 -0.05300
H 	H 	0.86260 0.20470 0.37220 0.07400
C 	C 	0.85110 0.26260 0.49070 0.22600
H 	H 	0.80000 0.22930 0.50580 -0.02400
C 	C 	0.93010 0.21940 0.53070 -0.42400
H 	H 	0.93380 0.16040 0.51150 0.16200
H 	H 	0.92500 0.21940 0.59270 0.15700
C 	C 	0.09220 0.22350 0.54060 0.18300
O 	O 	0.00780 0.35270 0.53760 -0.62600
H 	H 	0.95770 0.36850 0.54000 0.28500
O 	O 	0.14190 0.27160 0.58400 -0.34900
O 	O 	0.10400 0.14650 0.52680 -0.21600
O 	O 	0.94390 0.30400 0.27230 -0.45500
H 	H 	0.99070 0.32090 0.25530 0.26200
O 	O 	0.78810 0.30590 0.35340 -0.36400
H 	H 	0.74350 0.28440 0.37090 0.26200
O 	O 	0.84100 0.34880 0.52310 -0.34000
H 	H 	0.88820 0.36890 0.53430 0.15900
C 	C 	0.51150 0.23130 0.49630 0.30300
C 	C 	0.51920 0.22970 0.59270 -0.45100
H 	H 	0.52640 0.28790 0.61350 0.18100
H 	H 	0.56980 0.19740 0.60860 0.17000
C 	C 	0.44050 0.18960 0.63600 0.27600
H 	H 	0.43640 0.12910 0.61960 -0.02300
C 	C 	0.36010 0.23610 0.60710 -0.05300
H 	H 	0.36260 0.29530 0.62780 0.07400
C 	C 	0.35110 0.23740 0.50930 0.22600
H 	H 	0.30000 0.27070 0.49420 -0.02400
C 	C 	0.43010 0.28060 0.46930 -0.42400
H 	H 	0.43380 0.33960 0.48850 0.16200
H 	H 	0.42500 0.28060 0.40730 0.15700
C 	C 	0.59220 0.27650 0.45940 0.18300
O 	O 	0.50780 0.14730 0.46240 -0.62700
H 	H 	0.45770 0.13150 0.46000 0.28600
O 	O 	0.64190 0.22840 0.41600 -0.34900
O 	O 	0.60400 0.35350 0.47320 -0.21700
O 	O 	0.44390 0.19600 0.72770 -0.45500
H 	H 	0.49070 0.17910 0.74470 0.26300
O 	O 	0.28810 0.19410 0.64660 -0.36400
H 	H 	0.24350 0.21560 0.62910 0.26200
O 	O 	0.34100 0.15120 0.47690 -0.33900
H 	H 	0.38820 0.13110 0.46570 0.15900
C 	C 	0.48850 0.73130 0.00370 0.30400
C 	C 	0.48080 0.72970 0.90730 -0.45100
H 	H 	0.47360 0.78790 0.88650 0.18100
H 	H 	0.43020 0.69740 0.89140 0.17000
C 	C 	0.55950 0.68960 0.86400 0.27600
H 	H 	0.56360 0.62910 0.88040 -0.02300
C 	C 	0.63990 0.73610 0.89290 -0.05400
H 	H 	0.63740 0.79530 0.87220 0.07400
C 	C 	0.64890 0.73740 0.99070 0.22700
H 	H 	0.70000 0.77070 0.00580 -0.02500
C 	C 	0.56990 0.78060 0.03070 -0.42400
H 	H 	0.56620 0.83960 0.01150 0.16200
H 	H 	0.57500 0.78060 0.09270 0.15700
C 	C 	0.40780 0.77650 0.04060 0.18300
O 	O 	0.49220 0.64730 0.03760 -0.62700
H 	H 	0.54230 0.63150 0.04000 0.28500
O 	O 	0.35810 0.72840 0.08400 -0.34900
O 	O 	0.39600 0.85350 0.02680 -0.21700
O 	O 	0.55610 0.69600 0.77230 -0.45500
H 	H 	0.50930 0.67910 0.75530 0.26300
O 	O 	0.71190 0.69410 0.85340 -0.36400
H 	H 	0.75650 0.71560 0.87090 0.26200
O 	O 	0.65900 0.65120 0.02310 -0.34000
H 	H 	0.61180 0.63110 0.03430 0.15900
C 	C 	0.98850 0.76870 0.99630 0.30600
C 	C 	0.98080 0.77030 0.09270 -0.45400
H 	H 	0.97360 0.71210 0.11350 0.18200
H 	H 	0.93020 0.80260 0.10860 0.17000
C 	C 	0.05950 0.81040 0.13600 0.27800
H 	H 	0.06360 0.87090 0.11960 -0.02400
C 	C 	0.13990 0.76390 0.10710 -0.05500
H 	H 	0.13740 0.70470 0.12780 0.07500
C 	C 	0.14890 0.76260 0.00930 0.23000
H 	H 	0.20000 0.72930 0.99420 -0.02600
C 	C 	0.06990 0.71940 0.96930 -0.42700
H 	H 	0.06620 0.66040 0.98850 0.16300
H 	H 	0.07500 0.71940 0.90730 0.15700
C 	C 	0.90780 0.72350 0.95940 0.18200
O 	O 	0.99220 0.85270 0.96240 -0.62600
H 	H 	0.04230 0.86850 0.96000 0.28400
O 	O 	0.85810 0.77160 0.91600 -0.34900
O 	O 	0.89600 0.64650 0.97320 -0.21600
O 	O 	0.05610 0.80400 0.22770 -0.45500
H 	H 	0.00930 0.82090 0.24470 0.26300
O 	O 	0.21190 0.80590 0.14660 -0.36400
H 	H 	0.25650 0.78440 0.12910 0.26100
O 	O 	0.15900 0.84880 0.97690 -0.34100
H 	H 	0.11180 0.86890 0.96570 0.15900
C 	C 	0.50370 0.01150 0.26870 0.30400
C 	C 	0.40730 0.01920 0.27030 -0.45000
H 	H 	0.38650 0.02640 0.21210 0.18100
H 	H 	0.39140 0.06980 0.30260 0.17000
C 	C 	0.36400 0.94050 0.31040 0.27500
H 	H 	0.38040 0.93640 0.37090 -0.02300
C 	C 	0.39290 0.86010 0.26390 -0.05300
H 	H 	0.37220 0.86260 0.20470 0.07400
C 	C 	0.49070 0.85110 0.26260 0.22600
H 	H 	0.50580 0.80000 0.22930 -0.02400
C 	C 	0.53070 0.93010 0.21940 -0.42400
H 	H 	0.51150 0.93380 0.16040 0.16200
H 	H 	0.59270 0.92500 0.21940 0.15700
C 	C 	0.54060 0.09220 0.22350 0.18300
O 	O 	0.53760 0.00780 0.35270 -0.62600
H 	H 	0.54000 0.95770 0.36850 0.28500
O 	O 	0.58400 0.14190 0.27160 -0.34900
O 	O 	0.52680 0.10400 0.14650 -0.21600
O 	O 	0.27230 0.94390 0.30400 -0.45500
H 	H 	0.25530 0.99070 0.32090 0.26200
O 	O 	0.35340 0.78810 0.30590 -0.36400
H 	H 	0.37090 0.74350 0.28440 0.26200
O 	O 	0.52310 0.84100 0.34880 -0.34000
H 	H 	0.53430 0.88820 0.36890 0.15900
C 	C 	0.49630 0.51150 0.23130 0.30300
C 	C 	0.59270 0.51920 0.22970 -0.45100
H 	H 	0.61350 0.52640 0.28790 0.18100
H 	H 	0.60860 0.56980 0.19740 0.17000
C 	C 	0.63600 0.44050 0.18960 0.27600
H 	H 	0.61960 0.43640 0.12910 -0.02300
C 	C 	0.60710 0.36010 0.23610 -0.05300
H 	H 	0.62780 0.36260 0.29530 0.07400
C 	C 	0.50930 0.35110 0.23740 0.22600
H 	H 	0.49420 0.30000 0.27070 -0.02400
C 	C 	0.46930 0.43010 0.28060 -0.42400
H 	H 	0.48850 0.43380 0.33960 0.16200
H 	H 	0.40730 0.42500 0.28060 0.15700
C 	C 	0.45940 0.59220 0.27650 0.18300
O 	O 	0.46240 0.50780 0.14730 -0.62700
H 	H 	0.46000 0.45770 0.13150 0.28600
O 	O 	0.41600 0.64190 0.22840 -0.34900
O 	O 	0.47320 0.60400 0.35350 -0.21700
O 	O 	0.72770 0.44390 0.19600 -0.45500
H 	H 	0.74470 0.49070 0.17910 0.26300
O 	O 	0.64660 0.28810 0.19410 -0.36400
H 	H 	0.62910 0.24350 0.21560 0.26200
O 	O 	0.47690 0.34100 0.15120 -0.33900
H 	H 	0.46570 0.38820 0.13110 0.15900
C 	C 	0.00370 0.48850 0.73130 0.30400
C 	C 	0.90730 0.48080 0.72970 -0.45100
H 	H 	0.88650 0.47360 0.78790 0.18100
H 	H 	0.89140 0.43020 0.69740 0.17000
C 	C 	0.86400 0.55950 0.68960 0.27600
H 	H 	0.88040 0.56360 0.62910 -0.02300
C 	C 	0.89290 0.63990 0.73610 -0.05400
H 	H 	0.87220 0.63740 0.79530 0.07400
C 	C 	0.99070 0.64890 0.73740 0.22700
H 	H 	0.00580 0.70000 0.77070 -0.02500
C 	C 	0.03070 0.56990 0.78060 -0.42400
H 	H 	0.01150 0.56620 0.83960 0.16200
H 	H 	0.09270 0.57500 0.78060 0.15700
C 	C 	0.04060 0.40780 0.77650 0.18300
O 	O 	0.03760 0.49220 0.64730 -0.62700
H 	H 	0.04000 0.54230 0.63150 0.28500
O 	O 	0.08400 0.35810 0.72840 -0.34900
O 	O 	0.02680 0.39600 0.85350 -0.21700
O 	O 	0.77230 0.55610 0.69600 -0.45500
H 	H 	0.75530 0.50930 0.67910 0.26300
O 	O 	0.85340 0.71190 0.69410 -0.36400
H 	H 	0.87090 0.75650 0.71560 0.26200
O 	O 	0.02310 0.65900 0.65120 -0.34000
H 	H 	0.03430 0.61180 0.63110 0.15900
C 	C 	0.99630 0.98850 0.76870 0.30600
C 	C 	0.09270 0.98080 0.77030 -0.45400
H 	H 	0.11350 0.97360 0.71210 0.18200
H 	H 	0.10860 0.93020 0.80260 0.17000
C 	C 	0.13600 0.05950 0.81040 0.27800
H 	H 	0.11960 0.06360 0.87090 -0.02400
C 	C 	0.10710 0.13990 0.76390 -0.05500
H 	H 	0.12780 0.13740 0.70470 0.07500
C 	C 	0.00930 0.14890 0.76260 0.23000
H 	H 	0.99420 0.20000 0.72930 -0.02600
C 	C 	0.96930 0.06990 0.71940 -0.42700
H 	H 	0.98850 0.06620 0.66040 0.16300
H 	H 	0.90730 0.07500 0.71940 0.15700
C 	C 	0.95940 0.90780 0.72350 0.18200
O 	O 	0.96240 0.99220 0.85270 -0.62600
H 	H 	0.96000 0.04230 0.86850 0.28400
O 	O 	0.91600 0.85810 0.77160 -0.34900
O 	O 	0.97320 0.89600 0.64650 -0.21600
O 	O 	0.22770 0.05610 0.80400 -0.45500
H 	H 	0.24470 0.00930 0.82090 0.26300
O 	O 	0.14660 0.21190 0.80590 -0.36400
H 	H 	0.12910 0.25650 0.78440 0.26100
O 	O 	0.97690 0.15900 0.84880 -0.34100
H 	H 	0.96570 0.11180 0.86890 0.15900
Fe	Fe	0.39758 0.60242 0.10242 1.27500
Fe	Fe	0.10242 0.39758 0.60242 1.27500
Fe	Fe	0.60242 0.10242 0.39758 1.27500
Fe	Fe	0.89758 0.89758 0.89758 1.27400
Na	Na	0.30217 0.19783 0.80217 0.60100
Na	Na	0.19783 0.80217 0.30217 0.60100
Na	Na	0.69783 0.69783 0.69783 0.60100
Na	Na	0.80217 0.30217 0.19783 0.60100
