data_crystal

_cell_length_a 39.93100
_cell_length_b 39.93100
_cell_length_c 39.93100
_cell_angle_alpha 90.00000
_cell_angle_beta  90.00000
_cell_angle_gamma 90.00000

_symmetry_space_group_name_	'P 1'
_symmetry_space_group_name_H-M	'P 1'

loop_
_symmetry_equiv_pos_as_xyz
  x,y,z

loop_
_atom_site_label
_atom_site_type_symbol
_atom_site_fract_x
_atom_site_fract_y
_atom_site_fract_z
_atom_site_charge
O 	O 	0.87889 0.17075 0.46453 -0.48400
O 	O 	0.83934 0.20972 0.46478 -0.47900
C 	C 	0.86558 0.19718 0.45357 0.41800
C 	C 	0.88285 0.21431 0.42544 -0.13600
C 	C 	0.86770 0.24140 0.40840 0.00200
H 	H 	0.84780 0.25070 0.41760 0.02700
C 	C 	0.77580 0.24800 0.47008 -0.02900
H 	H 	0.77340 0.23370 0.44990 0.01900
H 	H 	0.79820 0.25850 0.46960 0.03000
H 	H 	0.80140 0.26500 0.48000 0.01100
C 	C 	0.75030 0.12370 0.58060 0.02200
H 	H 	0.73810 0.13910 0.56740 0.02000
O 	O 	0.87889 0.67075 0.96453 -0.47700
O 	O 	0.83934 0.70972 0.96478 -0.47300
C 	C 	0.86558 0.69718 0.95357 0.41700
C 	C 	0.88285 0.71431 0.92544 -0.13300
C 	C 	0.86770 0.74140 0.90840 0.00000
H 	H 	0.84780 0.75070 0.91760 0.02600
C 	C 	0.77580 0.74800 0.97008 -0.08300
H 	H 	0.77340 0.73370 0.94990 0.03000
H 	H 	0.79820 0.75850 0.96960 0.13600
H 	H 	0.80140 0.76500 0.98000 -0.10000
C 	C 	0.75030 0.62370 0.08060 0.02300
H 	H 	0.73810 0.63910 0.06740 0.01900
O 	O 	0.37889 0.17075 0.96453 -0.47900
O 	O 	0.33934 0.20972 0.96478 -0.47400
C 	C 	0.36558 0.19718 0.95357 0.41700
C 	C 	0.38285 0.21431 0.92544 -0.13500
C 	C 	0.36770 0.24140 0.90840 0.00200
H 	H 	0.34780 0.25070 0.91760 0.02600
C 	C 	0.27580 0.24800 0.97008 -0.08200
H 	H 	0.27340 0.23370 0.94990 0.03100
H 	H 	0.29820 0.25850 0.96960 0.13400
H 	H 	0.30140 0.26500 0.98000 -0.09800
C 	C 	0.25030 0.12370 0.08060 0.02300
H 	H 	0.23810 0.13910 0.06740 0.01900
O 	O 	0.37889 0.67075 0.46453 -0.48500
O 	O 	0.33934 0.70972 0.46478 -0.47900
C 	C 	0.36558 0.69718 0.45357 0.41800
C 	C 	0.38285 0.71431 0.42544 -0.13700
C 	C 	0.36770 0.74140 0.40840 0.00300
H 	H 	0.34780 0.75070 0.41760 0.02600
C 	C 	0.27580 0.74800 0.47008 -0.02800
H 	H 	0.27340 0.73370 0.44990 0.01900
H 	H 	0.29820 0.75850 0.46960 0.03000
H 	H 	0.30140 0.76500 0.48000 0.01100
C 	C 	0.25030 0.62370 0.58060 0.02300
H 	H 	0.23810 0.63910 0.56740 0.02000
O 	O 	0.12111 0.82925 0.46453 -0.48600
O 	O 	0.16066 0.79028 0.46478 -0.47900
C 	C 	0.13442 0.80282 0.45357 0.41800
C 	C 	0.11715 0.78569 0.42544 -0.13800
C 	C 	0.13230 0.75860 0.40840 0.00400
H 	H 	0.15220 0.74930 0.41760 0.02600
C 	C 	0.22420 0.75200 0.47008 -0.02800
H 	H 	0.22660 0.76630 0.44990 0.02200
H 	H 	0.20180 0.74150 0.46960 0.02800
H 	H 	0.19860 0.73500 0.48000 0.01300
C 	C 	0.24970 0.87630 0.58060 0.02500
H 	H 	0.26190 0.86090 0.56740 0.02000
O 	O 	0.12111 0.32925 0.96453 -0.48000
O 	O 	0.16066 0.29028 0.96478 -0.47400
C 	C 	0.13442 0.30282 0.95357 0.41800
C 	C 	0.11715 0.28569 0.92544 -0.13600
C 	C 	0.13230 0.25860 0.90840 0.00300
H 	H 	0.15220 0.24930 0.91760 0.02500
C 	C 	0.22420 0.25200 0.97008 -0.08100
H 	H 	0.22660 0.26630 0.94990 0.03300
H 	H 	0.20180 0.24150 0.96960 0.13200
H 	H 	0.19860 0.23500 0.98000 -0.09600
C 	C 	0.24970 0.37630 0.08060 0.02300
H 	H 	0.26190 0.36090 0.06740 0.01900
O 	O 	0.62111 0.82925 0.96453 -0.47800
O 	O 	0.66066 0.79028 0.96478 -0.47400
C 	C 	0.63442 0.80282 0.95357 0.41700
C 	C 	0.61715 0.78569 0.92544 -0.13500
C 	C 	0.63230 0.75860 0.90840 0.00200
H 	H 	0.65220 0.74930 0.91760 0.02600
C 	C 	0.72420 0.75200 0.97008 -0.08200
H 	H 	0.72660 0.76630 0.94990 0.03300
H 	H 	0.70180 0.74150 0.96960 0.13300
H 	H 	0.69860 0.73500 0.98000 -0.09700
C 	C 	0.74970 0.87630 0.08060 0.02500
H 	H 	0.76190 0.86090 0.06740 0.02000
O 	O 	0.62111 0.32925 0.46453 -0.48500
O 	O 	0.66066 0.29028 0.46478 -0.47900
C 	C 	0.63442 0.30282 0.45357 0.41800
C 	C 	0.61715 0.28569 0.42544 -0.13700
C 	C 	0.63230 0.25860 0.40840 0.00400
H 	H 	0.65220 0.24930 0.41760 0.02600
C 	C 	0.72420 0.25200 0.47008 -0.02800
H 	H 	0.72660 0.26630 0.44990 0.02100
H 	H 	0.70180 0.24150 0.46960 0.02800
H 	H 	0.69860 0.23500 0.48000 0.01300
C 	C 	0.74970 0.37630 0.58060 0.02300
H 	H 	0.76190 0.36090 0.56740 0.02000
O 	O 	0.12111 0.17075 0.53547 -0.48700
O 	O 	0.16066 0.20972 0.53522 -0.47900
C 	C 	0.13442 0.19718 0.54643 0.41900
C 	C 	0.11715 0.21431 0.57456 -0.13900
C 	C 	0.13230 0.24140 0.59160 0.00500
H 	H 	0.15220 0.25070 0.58240 0.02600
C 	C 	0.22420 0.24800 0.52992 -0.02800
H 	H 	0.22660 0.23370 0.55010 0.02000
H 	H 	0.20180 0.25850 0.53040 0.02800
H 	H 	0.19860 0.26500 0.52000 0.01300
C 	C 	0.24970 0.12370 0.41940 0.02300
H 	H 	0.26190 0.13910 0.43260 0.02000
O 	O 	0.12111 0.67075 0.03547 -0.49100
O 	O 	0.16066 0.70972 0.03522 -0.48400
C 	C 	0.13442 0.69718 0.04643 0.42000
C 	C 	0.11715 0.71431 0.07456 -0.14100
C 	C 	0.13230 0.74140 0.09160 0.00500
H 	H 	0.15220 0.75070 0.08240 0.02400
C 	C 	0.22420 0.74800 0.02992 -0.10100
H 	H 	0.22660 0.73370 0.05010 0.03400
H 	H 	0.20180 0.75850 0.03040 0.17200
H 	H 	0.19860 0.76500 0.02000 -0.14200
C 	C 	0.24970 0.62370 0.91940 0.02400
H 	H 	0.26190 0.63910 0.93260 0.02300
O 	O 	0.62111 0.17075 0.03547 -0.49100
O 	O 	0.66066 0.20972 0.03522 -0.48500
C 	C 	0.63442 0.19718 0.04643 0.41800
C 	C 	0.61715 0.21431 0.07456 -0.14100
C 	C 	0.63230 0.24140 0.09160 0.00300
H 	H 	0.65220 0.25070 0.08240 0.02300
C 	C 	0.72420 0.24800 0.02992 -0.10200
H 	H 	0.72660 0.23370 0.05010 0.03400
H 	H 	0.70180 0.25850 0.03040 0.17100
H 	H 	0.69860 0.26500 0.02000 -0.14300
C 	C 	0.74970 0.12370 0.91940 0.02300
H 	H 	0.76190 0.13910 0.93260 0.02200
O 	O 	0.62111 0.67075 0.53547 -0.48600
O 	O 	0.66066 0.70972 0.53522 -0.48000
C 	C 	0.63442 0.69718 0.54643 0.41700
C 	C 	0.61715 0.71431 0.57456 -0.13800
C 	C 	0.63230 0.74140 0.59160 0.00200
H 	H 	0.65220 0.75070 0.58240 0.02500
C 	C 	0.72420 0.74800 0.52992 -0.03000
H 	H 	0.72660 0.73370 0.55010 0.01900
H 	H 	0.70180 0.75850 0.53040 0.02900
H 	H 	0.69860 0.76500 0.52000 0.01100
C 	C 	0.74970 0.62370 0.41940 0.02200
H 	H 	0.76190 0.63910 0.43260 0.01900
O 	O 	0.87889 0.82925 0.53547 -0.48500
O 	O 	0.83934 0.79028 0.53522 -0.48000
C 	C 	0.86558 0.80282 0.54643 0.41700
C 	C 	0.88285 0.78569 0.57456 -0.13600
C 	C 	0.86770 0.75860 0.59160 0.00100
H 	H 	0.84780 0.74930 0.58240 0.02600
C 	C 	0.77580 0.75200 0.52992 -0.03000
H 	H 	0.77340 0.76630 0.55010 0.01900
H 	H 	0.79820 0.74150 0.53040 0.02900
H 	H 	0.80140 0.73500 0.52000 0.01100
C 	C 	0.75030 0.87630 0.41940 0.02300
H 	H 	0.73810 0.86090 0.43260 0.01900
O 	O 	0.87889 0.32925 0.03547 -0.48900
O 	O 	0.83934 0.29028 0.03522 -0.48500
C 	C 	0.86558 0.30282 0.04643 0.41800
C 	C 	0.88285 0.28569 0.07456 -0.13900
C 	C 	0.86770 0.25860 0.09160 0.00200
H 	H 	0.84780 0.24930 0.08240 0.02400
C 	C 	0.77580 0.25200 0.02992 -0.10200
H 	H 	0.77340 0.26630 0.05010 0.03300
H 	H 	0.79820 0.24150 0.03040 0.17100
H 	H 	0.80140 0.23500 0.02000 -0.14300
C 	C 	0.75030 0.37630 0.91940 0.02300
H 	H 	0.73810 0.36090 0.93260 0.02200
O 	O 	0.37889 0.82925 0.03547 -0.49000
O 	O 	0.33934 0.79028 0.03522 -0.48500
C 	C 	0.36558 0.80282 0.04643 0.41800
C 	C 	0.38285 0.78569 0.07456 -0.14000
C 	C 	0.36770 0.75860 0.09160 0.00300
H 	H 	0.34780 0.74930 0.08240 0.02300
C 	C 	0.27580 0.75200 0.02992 -0.10200
H 	H 	0.27340 0.76630 0.05010 0.03400
H 	H 	0.29820 0.74150 0.03040 0.17100
H 	H 	0.30140 0.73500 0.02000 -0.14200
C 	C 	0.25030 0.87630 0.91940 0.02400
H 	H 	0.23810 0.86090 0.93260 0.02200
O 	O 	0.37889 0.32925 0.53547 -0.48600
O 	O 	0.33934 0.29028 0.53522 -0.48000
C 	C 	0.36558 0.30282 0.54643 0.41700
C 	C 	0.38285 0.28569 0.57456 -0.13800
C 	C 	0.36770 0.25860 0.59160 0.00300
H 	H 	0.34780 0.24930 0.58240 0.02500
C 	C 	0.27580 0.25200 0.52992 -0.02900
H 	H 	0.27340 0.26630 0.55010 0.01900
H 	H 	0.29820 0.24150 0.53040 0.02700
H 	H 	0.30140 0.23500 0.52000 0.01200
C 	C 	0.25030 0.37630 0.41940 0.02200
H 	H 	0.23810 0.36090 0.43260 0.01900
O 	O 	0.46453 0.87889 0.17075 -0.48500
O 	O 	0.46478 0.83934 0.20972 -0.48000
C 	C 	0.45357 0.86558 0.19718 0.41700
C 	C 	0.42544 0.88285 0.21431 -0.13700
C 	C 	0.40840 0.86770 0.24140 0.00100
H 	H 	0.41760 0.84780 0.25070 0.02600
C 	C 	0.47008 0.77580 0.24800 -0.03000
H 	H 	0.44990 0.77340 0.23370 0.01800
H 	H 	0.46960 0.79820 0.25850 0.02900
H 	H 	0.48000 0.80140 0.26500 0.01000
C 	C 	0.58060 0.75030 0.12370 0.02100
H 	H 	0.56740 0.73810 0.13910 0.01900
O 	O 	0.46453 0.37889 0.67075 -0.48600
O 	O 	0.46478 0.33934 0.70972 -0.48000
C 	C 	0.45357 0.36558 0.69718 0.41700
C 	C 	0.42544 0.38285 0.71431 -0.13800
C 	C 	0.40840 0.36770 0.74140 0.00200
H 	H 	0.41760 0.34780 0.75070 0.02500
C 	C 	0.47008 0.27580 0.74800 -0.02900
H 	H 	0.44990 0.27340 0.73370 0.01800
H 	H 	0.46960 0.29820 0.75850 0.02900
H 	H 	0.48000 0.30140 0.76500 0.01000
C 	C 	0.58060 0.25030 0.62370 0.02200
H 	H 	0.56740 0.23810 0.63910 0.01900
O 	O 	0.96453 0.87889 0.67075 -0.47800
O 	O 	0.96478 0.83934 0.70972 -0.47400
C 	C 	0.95357 0.86558 0.69718 0.41600
C 	C 	0.92544 0.88285 0.71431 -0.13400
C 	C 	0.90840 0.86770 0.74140 -0.00100
H 	H 	0.91760 0.84780 0.75070 0.02500
C 	C 	0.97008 0.77580 0.74800 -0.08400
H 	H 	0.94990 0.77340 0.73370 0.02900
H 	H 	0.96960 0.79820 0.75850 0.13500
H 	H 	0.98000 0.80140 0.76500 -0.10100
C 	C 	0.08060 0.75030 0.62370 0.02200
H 	H 	0.06740 0.73810 0.63910 0.01800
O 	O 	0.96453 0.37889 0.17075 -0.48000
O 	O 	0.96478 0.33934 0.20972 -0.47500
C 	C 	0.95357 0.36558 0.19718 0.41600
C 	C 	0.92544 0.38285 0.21431 -0.13600
C 	C 	0.90840 0.36770 0.24140 0.00100
H 	H 	0.91760 0.34780 0.25070 0.02500
C 	C 	0.97008 0.27580 0.24800 -0.08300
H 	H 	0.94990 0.27340 0.23370 0.03000
H 	H 	0.96960 0.29820 0.25850 0.13300
H 	H 	0.98000 0.30140 0.26500 -0.09900
C 	C 	0.08060 0.25030 0.12370 0.02200
H 	H 	0.06740 0.23810 0.13910 0.01800
O 	O 	0.46453 0.12111 0.82925 -0.48700
O 	O 	0.46478 0.16066 0.79028 -0.48000
C 	C 	0.45357 0.13442 0.80282 0.41700
C 	C 	0.42544 0.11715 0.78569 -0.13900
C 	C 	0.40840 0.13230 0.75860 0.00300
H 	H 	0.41760 0.15220 0.74930 0.02500
C 	C 	0.47008 0.22420 0.75200 -0.02900
H 	H 	0.44990 0.22660 0.76630 0.02100
H 	H 	0.46960 0.20180 0.74150 0.02700
H 	H 	0.48000 0.19860 0.73500 0.01200
C 	C 	0.58060 0.24970 0.87630 0.02400
H 	H 	0.56740 0.26190 0.86090 0.01900
O 	O 	0.46453 0.62111 0.32925 -0.48600
O 	O 	0.46478 0.66066 0.29028 -0.48000
C 	C 	0.45357 0.63442 0.30282 0.41700
C 	C 	0.42544 0.61715 0.28569 -0.13800
C 	C 	0.40840 0.63230 0.25860 0.00300
H 	H 	0.41760 0.65220 0.24930 0.02500
C 	C 	0.47008 0.72420 0.25200 -0.02900
H 	H 	0.44990 0.72660 0.26630 0.02000
H 	H 	0.46960 0.70180 0.24150 0.02700
H 	H 	0.48000 0.69860 0.23500 0.01200
C 	C 	0.58060 0.74970 0.37630 0.02200
H 	H 	0.56740 0.76190 0.36090 0.01900
O 	O 	0.96453 0.12111 0.32925 -0.48100
O 	O 	0.96478 0.16066 0.29028 -0.47500
C 	C 	0.95357 0.13442 0.30282 0.41700
C 	C 	0.92544 0.11715 0.28569 -0.13700
C 	C 	0.90840 0.13230 0.25860 0.00200
H 	H 	0.91760 0.15220 0.24930 0.02400
C 	C 	0.97008 0.22420 0.25200 -0.08200
H 	H 	0.94990 0.22660 0.26630 0.03200
H 	H 	0.96960 0.20180 0.24150 0.13100
H 	H 	0.98000 0.19860 0.23500 -0.09700
C 	C 	0.08060 0.24970 0.37630 0.02200
H 	H 	0.06740 0.26190 0.36090 0.01800
O 	O 	0.96453 0.62111 0.82925 -0.47900
O 	O 	0.96478 0.66066 0.79028 -0.47500
C 	C 	0.95357 0.63442 0.80282 0.41600
C 	C 	0.92544 0.61715 0.78569 -0.13600
C 	C 	0.90840 0.63230 0.75860 0.00100
H 	H 	0.91760 0.65220 0.74930 0.02500
C 	C 	0.97008 0.72420 0.75200 -0.08300
H 	H 	0.94990 0.72660 0.76630 0.03200
H 	H 	0.96960 0.70180 0.74150 0.13200
H 	H 	0.98000 0.69860 0.73500 -0.09800
C 	C 	0.08060 0.74970 0.87630 0.02400
H 	H 	0.06740 0.76190 0.86090 0.01900
O 	O 	0.53547 0.12111 0.17075 -0.48800
O 	O 	0.53522 0.16066 0.20972 -0.48000
C 	C 	0.54643 0.13442 0.19718 0.41800
C 	C 	0.57456 0.11715 0.21431 -0.14000
C 	C 	0.59160 0.13230 0.24140 0.00400
H 	H 	0.58240 0.15220 0.25070 0.02500
C 	C 	0.52992 0.22420 0.24800 -0.02900
H 	H 	0.55010 0.22660 0.23370 0.01900
H 	H 	0.53040 0.20180 0.25850 0.02700
H 	H 	0.52000 0.19860 0.26500 0.01200
C 	C 	0.41940 0.24970 0.12370 0.02200
H 	H 	0.43260 0.26190 0.13910 0.01900
O 	O 	0.53547 0.62111 0.67075 -0.48600
O 	O 	0.53522 0.66066 0.70972 -0.48000
C 	C 	0.54643 0.63442 0.69718 0.41700
C 	C 	0.57456 0.61715 0.71431 -0.13800
C 	C 	0.59160 0.63230 0.74140 0.00200
H 	H 	0.58240 0.65220 0.75070 0.02500
C 	C 	0.52992 0.72420 0.74800 -0.03000
H 	H 	0.55010 0.72660 0.73370 0.01900
H 	H 	0.53040 0.70180 0.75850 0.02900
H 	H 	0.52000 0.69860 0.76500 0.01100
C 	C 	0.41940 0.74970 0.62370 0.02200
H 	H 	0.43260 0.76190 0.63910 0.01900
O 	O 	0.03547 0.12111 0.67075 -0.49200
O 	O 	0.03522 0.16066 0.70972 -0.48500
C 	C 	0.04643 0.13442 0.69718 0.41900
C 	C 	0.07456 0.11715 0.71431 -0.14200
C 	C 	0.09160 0.13230 0.74140 0.00400
H 	H 	0.08240 0.15220 0.75070 0.02300
C 	C 	0.02992 0.22420 0.74800 -0.10200
H 	H 	0.05010 0.22660 0.73370 0.03300
H 	H 	0.03040 0.20180 0.75850 0.17100
H 	H 	0.02000 0.19860 0.76500 -0.14300
C 	C 	0.91940 0.24970 0.62370 0.02300
H 	H 	0.93260 0.26190 0.63910 0.02200
O 	O 	0.03547 0.62111 0.17075 -0.49100
O 	O 	0.03522 0.66066 0.20972 -0.48500
C 	C 	0.04643 0.63442 0.19718 0.41800
C 	C 	0.07456 0.61715 0.21431 -0.14100
C 	C 	0.09160 0.63230 0.24140 0.00300
H 	H 	0.08240 0.65220 0.25070 0.02300
C 	C 	0.02992 0.72420 0.24800 -0.10200
H 	H 	0.05010 0.72660 0.23370 0.03400
H 	H 	0.03040 0.70180 0.25850 0.17100
H 	H 	0.02000 0.69860 0.26500 -0.14300
C 	C 	0.91940 0.74970 0.12370 0.02300
H 	H 	0.93260 0.76190 0.13910 0.02200
O 	O 	0.53547 0.87889 0.82925 -0.48500
O 	O 	0.53522 0.83934 0.79028 -0.48000
C 	C 	0.54643 0.86558 0.80282 0.41700
C 	C 	0.57456 0.88285 0.78569 -0.13600
C 	C 	0.59160 0.86770 0.75860 0.00100
H 	H 	0.58240 0.84780 0.74930 0.02600
C 	C 	0.52992 0.77580 0.75200 -0.03000
H 	H 	0.55010 0.77340 0.76630 0.01900
H 	H 	0.53040 0.79820 0.74150 0.02900
H 	H 	0.52000 0.80140 0.73500 0.01100
C 	C 	0.41940 0.75030 0.87630 0.02300
H 	H 	0.43260 0.73810 0.86090 0.01900
O 	O 	0.53547 0.37889 0.32925 -0.48600
O 	O 	0.53522 0.33934 0.29028 -0.48000
C 	C 	0.54643 0.36558 0.30282 0.41700
C 	C 	0.57456 0.38285 0.28569 -0.13800
C 	C 	0.59160 0.36770 0.25860 0.00300
H 	H 	0.58240 0.34780 0.24930 0.02500
C 	C 	0.52992 0.27580 0.25200 -0.02900
H 	H 	0.55010 0.27340 0.26630 0.01900
H 	H 	0.53040 0.29820 0.24150 0.02700
H 	H 	0.52000 0.30140 0.23500 0.01200
C 	C 	0.41940 0.25030 0.37630 0.02200
H 	H 	0.43260 0.23810 0.36090 0.01900
O 	O 	0.03547 0.87889 0.32925 -0.48900
O 	O 	0.03522 0.83934 0.29028 -0.48500
C 	C 	0.04643 0.86558 0.30282 0.41800
C 	C 	0.07456 0.88285 0.28569 -0.13900
C 	C 	0.09160 0.86770 0.25860 0.00200
H 	H 	0.08240 0.84780 0.24930 0.02400
C 	C 	0.02992 0.77580 0.25200 -0.10200
H 	H 	0.05010 0.77340 0.26630 0.03300
H 	H 	0.03040 0.79820 0.24150 0.17100
H 	H 	0.02000 0.80140 0.23500 -0.14300
C 	C 	0.91940 0.75030 0.37630 0.02300
H 	H 	0.93260 0.73810 0.36090 0.02200
O 	O 	0.03547 0.37889 0.82925 -0.49000
O 	O 	0.03522 0.33934 0.79028 -0.48500
C 	C 	0.04643 0.36558 0.80282 0.41800
C 	C 	0.07456 0.38285 0.78569 -0.14000
C 	C 	0.09160 0.36770 0.75860 0.00300
H 	H 	0.08240 0.34780 0.74930 0.02300
C 	C 	0.02992 0.27580 0.75200 -0.10200
H 	H 	0.05010 0.27340 0.76630 0.03400
H 	H 	0.03040 0.29820 0.74150 0.17100
H 	H 	0.02000 0.30140 0.73500 -0.14200
C 	C 	0.91940 0.25030 0.87630 0.02400
H 	H 	0.93260 0.23810 0.86090 0.02200
O 	O 	0.17075 0.46453 0.87889 -0.48500
O 	O 	0.20972 0.46478 0.83934 -0.48000
C 	C 	0.19718 0.45357 0.86558 0.41700
C 	C 	0.21431 0.42544 0.88285 -0.13700
C 	C 	0.24140 0.40840 0.86770 0.00100
H 	H 	0.25070 0.41760 0.84780 0.02600
C 	C 	0.24800 0.47008 0.77580 -0.03000
H 	H 	0.23370 0.44990 0.77340 0.01800
H 	H 	0.25850 0.46960 0.79820 0.02900
H 	H 	0.26500 0.48000 0.80140 0.01000
C 	C 	0.12370 0.58060 0.75030 0.02100
H 	H 	0.13910 0.56740 0.73810 0.01900
O 	O 	0.17075 0.96453 0.37889 -0.48000
O 	O 	0.20972 0.96478 0.33934 -0.47500
C 	C 	0.19718 0.95357 0.36558 0.41600
C 	C 	0.21431 0.92544 0.38285 -0.13600
C 	C 	0.24140 0.90840 0.36770 0.00100
H 	H 	0.25070 0.91760 0.34780 0.02500
C 	C 	0.24800 0.97008 0.27580 -0.08300
H 	H 	0.23370 0.94990 0.27340 0.03000
H 	H 	0.25850 0.96960 0.29820 0.13300
H 	H 	0.26500 0.98000 0.30140 -0.09900
C 	C 	0.12370 0.08060 0.25030 0.02200
H 	H 	0.13910 0.06740 0.23810 0.01800
O 	O 	0.67075 0.46453 0.37889 -0.48600
O 	O 	0.70972 0.46478 0.33934 -0.48000
C 	C 	0.69718 0.45357 0.36558 0.41700
C 	C 	0.71431 0.42544 0.38285 -0.13800
C 	C 	0.74140 0.40840 0.36770 0.00200
H 	H 	0.75070 0.41760 0.34780 0.02500
C 	C 	0.74800 0.47008 0.27580 -0.02900
H 	H 	0.73370 0.44990 0.27340 0.01800
H 	H 	0.75850 0.46960 0.29820 0.02900
H 	H 	0.76500 0.48000 0.30140 0.01000
C 	C 	0.62370 0.58060 0.25030 0.02200
H 	H 	0.63910 0.56740 0.23810 0.01900
O 	O 	0.67075 0.96453 0.87889 -0.47800
O 	O 	0.70972 0.96478 0.83934 -0.47400
C 	C 	0.69718 0.95357 0.86558 0.41600
C 	C 	0.71431 0.92544 0.88285 -0.13400
C 	C 	0.74140 0.90840 0.86770 -0.00100
H 	H 	0.75070 0.91760 0.84780 0.02500
C 	C 	0.74800 0.97008 0.77580 -0.08400
H 	H 	0.73370 0.94990 0.77340 0.02900
H 	H 	0.75850 0.96960 0.79820 0.13500
H 	H 	0.76500 0.98000 0.80140 -0.10100
C 	C 	0.62370 0.08060 0.75030 0.02200
H 	H 	0.63910 0.06740 0.73810 0.01800
O 	O 	0.82925 0.46453 0.12111 -0.48700
O 	O 	0.79028 0.46478 0.16066 -0.48000
C 	C 	0.80282 0.45357 0.13442 0.41700
C 	C 	0.78569 0.42544 0.11715 -0.13900
C 	C 	0.75860 0.40840 0.13230 0.00300
H 	H 	0.74930 0.41760 0.15220 0.02500
C 	C 	0.75200 0.47008 0.22420 -0.02900
H 	H 	0.76630 0.44990 0.22660 0.02100
H 	H 	0.74150 0.46960 0.20180 0.02700
H 	H 	0.73500 0.48000 0.19860 0.01200
C 	C 	0.87630 0.58060 0.24970 0.02400
H 	H 	0.86090 0.56740 0.26190 0.01900
O 	O 	0.82925 0.96453 0.62111 -0.47900
O 	O 	0.79028 0.96478 0.66066 -0.47500
C 	C 	0.80282 0.95357 0.63442 0.41600
C 	C 	0.78569 0.92544 0.61715 -0.13600
C 	C 	0.75860 0.90840 0.63230 0.00100
H 	H 	0.74930 0.91760 0.65220 0.02500
C 	C 	0.75200 0.97008 0.72420 -0.08300
H 	H 	0.76630 0.94990 0.72660 0.03200
H 	H 	0.74150 0.96960 0.70180 0.13200
H 	H 	0.73500 0.98000 0.69860 -0.09800
C 	C 	0.87630 0.08060 0.74970 0.02400
H 	H 	0.86090 0.06740 0.76190 0.01900
O 	O 	0.32925 0.46453 0.62111 -0.48600
O 	O 	0.29028 0.46478 0.66066 -0.48000
C 	C 	0.30282 0.45357 0.63442 0.41700
C 	C 	0.28569 0.42544 0.61715 -0.13800
C 	C 	0.25860 0.40840 0.63230 0.00300
H 	H 	0.24930 0.41760 0.65220 0.02500
C 	C 	0.25200 0.47008 0.72420 -0.02900
H 	H 	0.26630 0.44990 0.72660 0.02000
H 	H 	0.24150 0.46960 0.70180 0.02700
H 	H 	0.23500 0.48000 0.69860 0.01200
C 	C 	0.37630 0.58060 0.74970 0.02200
H 	H 	0.36090 0.56740 0.76190 0.01900
O 	O 	0.32925 0.96453 0.12111 -0.48100
O 	O 	0.29028 0.96478 0.16066 -0.47500
C 	C 	0.30282 0.95357 0.13442 0.41700
C 	C 	0.28569 0.92544 0.11715 -0.13700
C 	C 	0.25860 0.90840 0.13230 0.00200
H 	H 	0.24930 0.91760 0.15220 0.02400
C 	C 	0.25200 0.97008 0.22420 -0.08200
H 	H 	0.26630 0.94990 0.22660 0.03200
H 	H 	0.24150 0.96960 0.20180 0.13100
H 	H 	0.23500 0.98000 0.19860 -0.09700
C 	C 	0.37630 0.08060 0.24970 0.02200
H 	H 	0.36090 0.06740 0.26190 0.01800
O 	O 	0.17075 0.53547 0.12111 -0.48800
O 	O 	0.20972 0.53522 0.16066 -0.48000
C 	C 	0.19718 0.54643 0.13442 0.41800
C 	C 	0.21431 0.57456 0.11715 -0.14000
C 	C 	0.24140 0.59160 0.13230 0.00400
H 	H 	0.25070 0.58240 0.15220 0.02500
C 	C 	0.24800 0.52992 0.22420 -0.02900
H 	H 	0.23370 0.55010 0.22660 0.01900
H 	H 	0.25850 0.53040 0.20180 0.02700
H 	H 	0.26500 0.52000 0.19860 0.01200
C 	C 	0.12370 0.41940 0.24970 0.02200
H 	H 	0.13910 0.43260 0.26190 0.01900
O 	O 	0.17075 0.03547 0.62111 -0.49100
O 	O 	0.20972 0.03522 0.66066 -0.48500
C 	C 	0.19718 0.04643 0.63442 0.41800
C 	C 	0.21431 0.07456 0.61715 -0.14100
C 	C 	0.24140 0.09160 0.63230 0.00300
H 	H 	0.25070 0.08240 0.65220 0.02300
C 	C 	0.24800 0.02992 0.72420 -0.10200
H 	H 	0.23370 0.05010 0.72660 0.03400
H 	H 	0.25850 0.03040 0.70180 0.17100
H 	H 	0.26500 0.02000 0.69860 -0.14300
C 	C 	0.12370 0.91940 0.74970 0.02300
H 	H 	0.13910 0.93260 0.76190 0.02200
O 	O 	0.67075 0.53547 0.62111 -0.48600
O 	O 	0.70972 0.53522 0.66066 -0.48000
C 	C 	0.69718 0.54643 0.63442 0.41700
C 	C 	0.71431 0.57456 0.61715 -0.13800
C 	C 	0.74140 0.59160 0.63230 0.00200
H 	H 	0.75070 0.58240 0.65220 0.02500
C 	C 	0.74800 0.52992 0.72420 -0.03000
H 	H 	0.73370 0.55010 0.72660 0.01900
H 	H 	0.75850 0.53040 0.70180 0.02900
H 	H 	0.76500 0.52000 0.69860 0.01100
C 	C 	0.62370 0.41940 0.74970 0.02200
H 	H 	0.63910 0.43260 0.76190 0.01900
O 	O 	0.67075 0.03547 0.12111 -0.49200
O 	O 	0.70972 0.03522 0.16066 -0.48500
C 	C 	0.69718 0.04643 0.13442 0.41900
C 	C 	0.71431 0.07456 0.11715 -0.14200
C 	C 	0.74140 0.09160 0.13230 0.00400
H 	H 	0.75070 0.08240 0.15220 0.02300
C 	C 	0.74800 0.02992 0.22420 -0.10200
H 	H 	0.73370 0.05010 0.22660 0.03300
H 	H 	0.75850 0.03040 0.20180 0.17100
H 	H 	0.76500 0.02000 0.19860 -0.14300
C 	C 	0.62370 0.91940 0.24970 0.02300
H 	H 	0.63910 0.93260 0.26190 0.02200
O 	O 	0.82925 0.53547 0.87889 -0.48500
O 	O 	0.79028 0.53522 0.83934 -0.48000
C 	C 	0.80282 0.54643 0.86558 0.41700
C 	C 	0.78569 0.57456 0.88285 -0.13600
C 	C 	0.75860 0.59160 0.86770 0.00100
H 	H 	0.74930 0.58240 0.84780 0.02600
C 	C 	0.75200 0.52992 0.77580 -0.03000
H 	H 	0.76630 0.55010 0.77340 0.01900
H 	H 	0.74150 0.53040 0.79820 0.02900
H 	H 	0.73500 0.52000 0.80140 0.01100
C 	C 	0.87630 0.41940 0.75030 0.02300
H 	H 	0.86090 0.43260 0.73810 0.01900
O 	O 	0.82925 0.03547 0.37889 -0.49000
O 	O 	0.79028 0.03522 0.33934 -0.48500
C 	C 	0.80282 0.04643 0.36558 0.41800
C 	C 	0.78569 0.07456 0.38285 -0.14000
C 	C 	0.75860 0.09160 0.36770 0.00300
H 	H 	0.74930 0.08240 0.34780 0.02300
C 	C 	0.75200 0.02992 0.27580 -0.10200
H 	H 	0.76630 0.05010 0.27340 0.03400
H 	H 	0.74150 0.03040 0.29820 0.17100
H 	H 	0.73500 0.02000 0.30140 -0.14200
C 	C 	0.87630 0.91940 0.25030 0.02400
H 	H 	0.86090 0.93260 0.23810 0.02200
O 	O 	0.32925 0.53547 0.37889 -0.48600
O 	O 	0.29028 0.53522 0.33934 -0.48000
C 	C 	0.30282 0.54643 0.36558 0.41700
C 	C 	0.28569 0.57456 0.38285 -0.13800
C 	C 	0.25860 0.59160 0.36770 0.00300
H 	H 	0.24930 0.58240 0.34780 0.02500
C 	C 	0.25200 0.52992 0.27580 -0.02900
H 	H 	0.26630 0.55010 0.27340 0.01900
H 	H 	0.24150 0.53040 0.29820 0.02700
H 	H 	0.23500 0.52000 0.30140 0.01200
C 	C 	0.37630 0.41940 0.25030 0.02200
H 	H 	0.36090 0.43260 0.23810 0.01900
O 	O 	0.32925 0.03547 0.87889 -0.48900
O 	O 	0.29028 0.03522 0.83934 -0.48500
C 	C 	0.30282 0.04643 0.86558 0.41800
C 	C 	0.28569 0.07456 0.88285 -0.13900
C 	C 	0.25860 0.09160 0.86770 0.00200
H 	H 	0.24930 0.08240 0.84780 0.02400
C 	C 	0.25200 0.02992 0.77580 -0.10200
H 	H 	0.26630 0.05010 0.77340 0.03300
H 	H 	0.24150 0.03040 0.79820 0.17100
H 	H 	0.23500 0.02000 0.80140 -0.14300
C 	C 	0.37630 0.91940 0.75030 0.02300
H 	H 	0.36090 0.93260 0.73810 0.02200
O 	O 	0.17075 0.87889 0.53547 -0.48500
O 	O 	0.20972 0.83934 0.53522 -0.48000
C 	C 	0.19718 0.86558 0.54643 0.41700
C 	C 	0.21431 0.88285 0.57456 -0.13700
C 	C 	0.24140 0.86770 0.59160 0.00100
H 	H 	0.25070 0.84780 0.58240 0.02600
C 	C 	0.24800 0.77580 0.52992 -0.03000
H 	H 	0.23370 0.77340 0.55010 0.01800
H 	H 	0.25850 0.79820 0.53040 0.02900
H 	H 	0.26500 0.80140 0.52000 0.01000
C 	C 	0.12370 0.75030 0.41940 0.02100
H 	H 	0.13910 0.73810 0.43260 0.01900
O 	O 	0.17075 0.37889 0.03547 -0.49100
O 	O 	0.20972 0.33934 0.03522 -0.48500
C 	C 	0.19718 0.36558 0.04643 0.41800
C 	C 	0.21431 0.38285 0.07456 -0.14100
C 	C 	0.24140 0.36770 0.09160 0.00300
H 	H 	0.25070 0.34780 0.08240 0.02300
C 	C 	0.24800 0.27580 0.02992 -0.10200
H 	H 	0.23370 0.27340 0.05010 0.03200
H 	H 	0.25850 0.29820 0.03040 0.17100
H 	H 	0.26500 0.30140 0.02000 -0.14300
C 	C 	0.12370 0.25030 0.91940 0.02200
H 	H 	0.13910 0.23810 0.93260 0.02100
O 	O 	0.67075 0.87889 0.03547 -0.48900
O 	O 	0.70972 0.83934 0.03522 -0.48500
C 	C 	0.69718 0.86558 0.04643 0.41800
C 	C 	0.71431 0.88285 0.07456 -0.13900
C 	C 	0.74140 0.86770 0.09160 0.00100
H 	H 	0.75070 0.84780 0.08240 0.02400
C 	C 	0.74800 0.77580 0.02992 -0.10300
H 	H 	0.73370 0.77340 0.05010 0.03200
H 	H 	0.75850 0.79820 0.03040 0.17300
H 	H 	0.76500 0.80140 0.02000 -0.14500
C 	C 	0.62370 0.75030 0.91940 0.02300
H 	H 	0.63910 0.73810 0.93260 0.02200
O 	O 	0.67075 0.37889 0.53547 -0.48600
O 	O 	0.70972 0.33934 0.53522 -0.48000
C 	C 	0.69718 0.36558 0.54643 0.41700
C 	C 	0.71431 0.38285 0.57456 -0.13800
C 	C 	0.74140 0.36770 0.59160 0.00200
H 	H 	0.75070 0.34780 0.58240 0.02500
C 	C 	0.74800 0.27580 0.52992 -0.02900
H 	H 	0.73370 0.27340 0.55010 0.01800
H 	H 	0.75850 0.29820 0.53040 0.02900
H 	H 	0.76500 0.30140 0.52000 0.01000
C 	C 	0.62370 0.25030 0.41940 0.02200
H 	H 	0.63910 0.23810 0.43260 0.01900
O 	O 	0.82925 0.12111 0.53547 -0.48700
O 	O 	0.79028 0.16066 0.53522 -0.48000
C 	C 	0.80282 0.13442 0.54643 0.41700
C 	C 	0.78569 0.11715 0.57456 -0.13900
C 	C 	0.75860 0.13230 0.59160 0.00300
H 	H 	0.74930 0.15220 0.58240 0.02500
C 	C 	0.75200 0.22420 0.52992 -0.02900
H 	H 	0.76630 0.22660 0.55010 0.02100
H 	H 	0.74150 0.20180 0.53040 0.02700
H 	H 	0.73500 0.19860 0.52000 0.01200
C 	C 	0.87630 0.24970 0.41940 0.02400
H 	H 	0.86090 0.26190 0.43260 0.01900
O 	O 	0.82925 0.62111 0.03547 -0.49000
O 	O 	0.79028 0.66066 0.03522 -0.48500
C 	C 	0.80282 0.63442 0.04643 0.41800
C 	C 	0.78569 0.61715 0.07456 -0.14000
C 	C 	0.75860 0.63230 0.09160 0.00300
H 	H 	0.74930 0.65220 0.08240 0.02300
C 	C 	0.75200 0.72420 0.02992 -0.10200
H 	H 	0.76630 0.72660 0.05010 0.03500
H 	H 	0.74150 0.70180 0.03040 0.17100
H 	H 	0.73500 0.69860 0.02000 -0.14200
C 	C 	0.87630 0.74970 0.91940 0.02500
H 	H 	0.86090 0.76190 0.93260 0.02200
O 	O 	0.32925 0.12111 0.03547 -0.49200
O 	O 	0.29028 0.16066 0.03522 -0.48500
C 	C 	0.30282 0.13442 0.04643 0.41900
C 	C 	0.28569 0.11715 0.07456 -0.14200
C 	C 	0.25860 0.13230 0.09160 0.00500
H 	H 	0.24930 0.15220 0.08240 0.02300
C 	C 	0.25200 0.22420 0.02992 -0.10100
H 	H 	0.26630 0.22660 0.05010 0.03400
H 	H 	0.24150 0.20180 0.03040 0.16900
H 	H 	0.23500 0.19860 0.02000 -0.14100
C 	C 	0.37630 0.24970 0.91940 0.02300
H 	H 	0.36090 0.26190 0.93260 0.02200
O 	O 	0.32925 0.62111 0.53547 -0.48600
O 	O 	0.29028 0.66066 0.53522 -0.48000
C 	C 	0.30282 0.63442 0.54643 0.41700
C 	C 	0.28569 0.61715 0.57456 -0.13800
C 	C 	0.25860 0.63230 0.59160 0.00300
H 	H 	0.24930 0.65220 0.58240 0.02500
C 	C 	0.25200 0.72420 0.52992 -0.02900
H 	H 	0.26630 0.72660 0.55010 0.02000
H 	H 	0.24150 0.70180 0.53040 0.02700
H 	H 	0.23500 0.69860 0.52000 0.01200
C 	C 	0.37630 0.74970 0.41940 0.02200
H 	H 	0.36090 0.76190 0.43260 0.01900
O 	O 	0.17075 0.12111 0.46453 -0.48800
O 	O 	0.20972 0.16066 0.46478 -0.48000
C 	C 	0.19718 0.13442 0.45357 0.41800
C 	C 	0.21431 0.11715 0.42544 -0.13900
C 	C 	0.24140 0.13230 0.40840 0.00400
H 	H 	0.25070 0.15220 0.41760 0.02500
C 	C 	0.24800 0.22420 0.47008 -0.02900
H 	H 	0.23370 0.22660 0.44990 0.01900
H 	H 	0.25850 0.20180 0.46960 0.02700
H 	H 	0.26500 0.19860 0.48000 0.01200
C 	C 	0.12370 0.24970 0.58060 0.02200
H 	H 	0.13910 0.26190 0.56740 0.01900
O 	O 	0.17075 0.62111 0.96453 -0.48000
O 	O 	0.20972 0.66066 0.96478 -0.47500
C 	C 	0.19718 0.63442 0.95357 0.41600
C 	C 	0.21431 0.61715 0.92544 -0.13600
C 	C 	0.24140 0.63230 0.90840 0.00100
H 	H 	0.25070 0.65220 0.91760 0.02500
C 	C 	0.24800 0.72420 0.97008 -0.08300
H 	H 	0.23370 0.72660 0.94990 0.03100
H 	H 	0.25850 0.70180 0.96960 0.13200
H 	H 	0.26500 0.69860 0.98000 -0.09800
C 	C 	0.12370 0.74970 0.08060 0.02200
H 	H 	0.13910 0.76190 0.06740 0.01800
O 	O 	0.67075 0.12111 0.96453 -0.48100
O 	O 	0.70972 0.16066 0.96478 -0.47500
C 	C 	0.69718 0.13442 0.95357 0.41700
C 	C 	0.71431 0.11715 0.92544 -0.13700
C 	C 	0.74140 0.13230 0.90840 0.00200
H 	H 	0.75070 0.15220 0.91760 0.02400
C 	C 	0.74800 0.22420 0.97008 -0.08300
H 	H 	0.73370 0.22660 0.94990 0.03100
H 	H 	0.75850 0.20180 0.96960 0.13300
H 	H 	0.76500 0.19860 0.98000 -0.09900
C 	C 	0.62370 0.24970 0.08060 0.02200
H 	H 	0.63910 0.26190 0.06740 0.01800
O 	O 	0.67075 0.62111 0.46453 -0.48600
O 	O 	0.70972 0.66066 0.46478 -0.48000
C 	C 	0.69718 0.63442 0.45357 0.41700
C 	C 	0.71431 0.61715 0.42544 -0.13800
C 	C 	0.74140 0.63230 0.40840 0.00200
H 	H 	0.75070 0.65220 0.41760 0.02500
C 	C 	0.74800 0.72420 0.47008 -0.03000
H 	H 	0.73370 0.72660 0.44990 0.01900
H 	H 	0.75850 0.70180 0.46960 0.02900
H 	H 	0.76500 0.69860 0.48000 0.01100
C 	C 	0.62370 0.74970 0.58060 0.02200
H 	H 	0.63910 0.76190 0.56740 0.01900
O 	O 	0.82925 0.87889 0.46453 -0.48400
O 	O 	0.79028 0.83934 0.46478 -0.47900
C 	C 	0.80282 0.86558 0.45357 0.41700
C 	C 	0.78569 0.88285 0.42544 -0.13600
C 	C 	0.75860 0.86770 0.40840 0.00100
H 	H 	0.74930 0.84780 0.41760 0.02600
C 	C 	0.75200 0.77580 0.47008 -0.03000
H 	H 	0.76630 0.77340 0.44990 0.01900
H 	H 	0.74150 0.79820 0.46960 0.02900
H 	H 	0.73500 0.80140 0.48000 0.01100
C 	C 	0.87630 0.75030 0.58060 0.02300
H 	H 	0.86090 0.73810 0.56740 0.01900
O 	O 	0.82925 0.37889 0.96453 -0.47900
O 	O 	0.79028 0.33934 0.96478 -0.47500
C 	C 	0.80282 0.36558 0.95357 0.41600
C 	C 	0.78569 0.38285 0.92544 -0.13500
C 	C 	0.75860 0.36770 0.90840 0.00100
H 	H 	0.74930 0.34780 0.91760 0.02500
C 	C 	0.75200 0.27580 0.97008 -0.08300
H 	H 	0.76630 0.27340 0.94990 0.03100
H 	H 	0.74150 0.29820 0.96960 0.13200
H 	H 	0.73500 0.30140 0.98000 -0.09800
C 	C 	0.87630 0.25030 0.08060 0.02400
H 	H 	0.86090 0.23810 0.06740 0.01800
O 	O 	0.32925 0.87889 0.96453 -0.47800
O 	O 	0.29028 0.83934 0.96478 -0.47400
C 	C 	0.30282 0.86558 0.95357 0.41600
C 	C 	0.28569 0.88285 0.92544 -0.13400
C 	C 	0.25860 0.86770 0.90840 -0.00000
H 	H 	0.24930 0.84780 0.91760 0.02500
C 	C 	0.25200 0.77580 0.97008 -0.08300
H 	H 	0.26630 0.77340 0.94990 0.03000
H 	H 	0.24150 0.79820 0.96960 0.13300
H 	H 	0.23500 0.80140 0.98000 -0.09900
C 	C 	0.37630 0.75030 0.08060 0.02200
H 	H 	0.36090 0.73810 0.06740 0.01800
O 	O 	0.32925 0.37889 0.46453 -0.48600
O 	O 	0.29028 0.33934 0.46478 -0.48000
C 	C 	0.30282 0.36558 0.45357 0.41700
C 	C 	0.28569 0.38285 0.42544 -0.13800
C 	C 	0.25860 0.36770 0.40840 0.00300
H 	H 	0.24930 0.34780 0.41760 0.02500
C 	C 	0.25200 0.27580 0.47008 -0.02900
H 	H 	0.26630 0.27340 0.44990 0.01900
H 	H 	0.24150 0.29820 0.46960 0.02700
H 	H 	0.23500 0.30140 0.48000 0.01200
C 	C 	0.37630 0.25030 0.58060 0.02200
H 	H 	0.36090 0.23810 0.56740 0.01900
O 	O 	0.87889 0.46453 0.82925 -0.48400
O 	O 	0.83934 0.46478 0.79028 -0.47900
C 	C 	0.86558 0.45357 0.80282 0.41700
C 	C 	0.88285 0.42544 0.78569 -0.13600
C 	C 	0.86770 0.40840 0.75860 0.00100
H 	H 	0.84780 0.41760 0.74930 0.02600
C 	C 	0.77580 0.47008 0.75200 -0.03000
H 	H 	0.77340 0.44990 0.76630 0.01900
H 	H 	0.79820 0.46960 0.74150 0.02900
H 	H 	0.80140 0.48000 0.73500 0.01100
C 	C 	0.75030 0.58060 0.87630 0.02300
H 	H 	0.73810 0.56740 0.86090 0.01900
O 	O 	0.87889 0.96453 0.32925 -0.47800
O 	O 	0.83934 0.96478 0.29028 -0.47400
C 	C 	0.86558 0.95357 0.30282 0.41600
C 	C 	0.88285 0.92544 0.28569 -0.13400
C 	C 	0.86770 0.90840 0.25860 -0.00000
H 	H 	0.84780 0.91760 0.24930 0.02500
C 	C 	0.77580 0.97008 0.25200 -0.08300
H 	H 	0.77340 0.94990 0.26630 0.03000
H 	H 	0.79820 0.96960 0.24150 0.13300
H 	H 	0.80140 0.98000 0.23500 -0.09900
C 	C 	0.75030 0.08060 0.37630 0.02200
H 	H 	0.73810 0.06740 0.36090 0.01800
O 	O 	0.37889 0.46453 0.32925 -0.48600
O 	O 	0.33934 0.46478 0.29028 -0.48000
C 	C 	0.36558 0.45357 0.30282 0.41700
C 	C 	0.38285 0.42544 0.28569 -0.13800
C 	C 	0.36770 0.40840 0.25860 0.00300
H 	H 	0.34780 0.41760 0.24930 0.02500
C 	C 	0.27580 0.47008 0.25200 -0.02900
H 	H 	0.27340 0.44990 0.26630 0.01900
H 	H 	0.29820 0.46960 0.24150 0.02700
H 	H 	0.30140 0.48000 0.23500 0.01200
C 	C 	0.25030 0.58060 0.37630 0.02200
H 	H 	0.23810 0.56740 0.36090 0.01900
O 	O 	0.37889 0.96453 0.82925 -0.47900
O 	O 	0.33934 0.96478 0.79028 -0.47500
C 	C 	0.36558 0.95357 0.80282 0.41600
C 	C 	0.38285 0.92544 0.78569 -0.13500
C 	C 	0.36770 0.90840 0.75860 0.00100
H 	H 	0.34780 0.91760 0.74930 0.02500
C 	C 	0.27580 0.97008 0.75200 -0.08300
H 	H 	0.27340 0.94990 0.76630 0.03100
H 	H 	0.29820 0.96960 0.74150 0.13200
H 	H 	0.30140 0.98000 0.73500 -0.09800
C 	C 	0.25030 0.08060 0.87630 0.02400
H 	H 	0.23810 0.06740 0.86090 0.01800
O 	O 	0.12111 0.46453 0.17075 -0.48800
O 	O 	0.16066 0.46478 0.20972 -0.48000
C 	C 	0.13442 0.45357 0.19718 0.41800
C 	C 	0.11715 0.42544 0.21431 -0.13900
C 	C 	0.13230 0.40840 0.24140 0.00400
H 	H 	0.15220 0.41760 0.25070 0.02500
C 	C 	0.22420 0.47008 0.24800 -0.02900
H 	H 	0.22660 0.44990 0.23370 0.01900
H 	H 	0.20180 0.46960 0.25850 0.02700
H 	H 	0.19860 0.48000 0.26500 0.01200
C 	C 	0.24970 0.58060 0.12370 0.02200
H 	H 	0.26190 0.56740 0.13910 0.01900
O 	O 	0.12111 0.96453 0.67075 -0.48100
O 	O 	0.16066 0.96478 0.70972 -0.47500
C 	C 	0.13442 0.95357 0.69718 0.41700
C 	C 	0.11715 0.92544 0.71431 -0.13700
C 	C 	0.13230 0.90840 0.74140 0.00200
H 	H 	0.15220 0.91760 0.75070 0.02400
C 	C 	0.22420 0.97008 0.74800 -0.08300
H 	H 	0.22660 0.94990 0.73370 0.03100
H 	H 	0.20180 0.96960 0.75850 0.13300
H 	H 	0.19860 0.98000 0.76500 -0.09900
C 	C 	0.24970 0.08060 0.62370 0.02200
H 	H 	0.26190 0.06740 0.63910 0.01800
O 	O 	0.62111 0.46453 0.67075 -0.48600
O 	O 	0.66066 0.46478 0.70972 -0.48000
C 	C 	0.63442 0.45357 0.69718 0.41700
C 	C 	0.61715 0.42544 0.71431 -0.13800
C 	C 	0.63230 0.40840 0.74140 0.00200
H 	H 	0.65220 0.41760 0.75070 0.02500
C 	C 	0.72420 0.47008 0.74800 -0.03000
H 	H 	0.72660 0.44990 0.73370 0.01900
H 	H 	0.70180 0.46960 0.75850 0.02900
H 	H 	0.69860 0.48000 0.76500 0.01100
C 	C 	0.74970 0.58060 0.62370 0.02200
H 	H 	0.76190 0.56740 0.63910 0.01900
O 	O 	0.62111 0.96453 0.17075 -0.48000
O 	O 	0.66066 0.96478 0.20972 -0.47500
C 	C 	0.63442 0.95357 0.19718 0.41600
C 	C 	0.61715 0.92544 0.21431 -0.13600
C 	C 	0.63230 0.90840 0.24140 0.00100
H 	H 	0.65220 0.91760 0.25070 0.02500
C 	C 	0.72420 0.97008 0.24800 -0.08300
H 	H 	0.72660 0.94990 0.23370 0.03100
H 	H 	0.70180 0.96960 0.25850 0.13200
H 	H 	0.69860 0.98000 0.26500 -0.09800
C 	C 	0.74970 0.08060 0.12370 0.02200
H 	H 	0.76190 0.06740 0.13910 0.01800
O 	O 	0.12111 0.53547 0.82925 -0.48700
O 	O 	0.16066 0.53522 0.79028 -0.48000
C 	C 	0.13442 0.54643 0.80282 0.41700
C 	C 	0.11715 0.57456 0.78569 -0.13900
C 	C 	0.13230 0.59160 0.75860 0.00300
H 	H 	0.15220 0.58240 0.74930 0.02500
C 	C 	0.22420 0.52992 0.75200 -0.02900
H 	H 	0.22660 0.55010 0.76630 0.02100
H 	H 	0.20180 0.53040 0.74150 0.02700
H 	H 	0.19860 0.52000 0.73500 0.01200
C 	C 	0.24970 0.41940 0.87630 0.02400
H 	H 	0.26190 0.43260 0.86090 0.01900
O 	O 	0.12111 0.03547 0.32925 -0.49200
O 	O 	0.16066 0.03522 0.29028 -0.48500
C 	C 	0.13442 0.04643 0.30282 0.41900
C 	C 	0.11715 0.07456 0.28569 -0.14200
C 	C 	0.13230 0.09160 0.25860 0.00500
H 	H 	0.15220 0.08240 0.24930 0.02300
C 	C 	0.22420 0.02992 0.25200 -0.10100
H 	H 	0.22660 0.05010 0.26630 0.03400
H 	H 	0.20180 0.03040 0.24150 0.16900
H 	H 	0.19860 0.02000 0.23500 -0.14100
C 	C 	0.24970 0.91940 0.37630 0.02300
H 	H 	0.26190 0.93260 0.36090 0.02200
O 	O 	0.62111 0.53547 0.32925 -0.48600
O 	O 	0.66066 0.53522 0.29028 -0.48000
C 	C 	0.63442 0.54643 0.30282 0.41700
C 	C 	0.61715 0.57456 0.28569 -0.13800
C 	C 	0.63230 0.59160 0.25860 0.00300
H 	H 	0.65220 0.58240 0.24930 0.02500
C 	C 	0.72420 0.52992 0.25200 -0.02900
H 	H 	0.72660 0.55010 0.26630 0.02000
H 	H 	0.70180 0.53040 0.24150 0.02700
H 	H 	0.69860 0.52000 0.23500 0.01200
C 	C 	0.74970 0.41940 0.37630 0.02200
H 	H 	0.76190 0.43260 0.36090 0.01900
O 	O 	0.62111 0.03547 0.82925 -0.49000
O 	O 	0.66066 0.03522 0.79028 -0.48500
C 	C 	0.63442 0.04643 0.80282 0.41800
C 	C 	0.61715 0.07456 0.78569 -0.14000
C 	C 	0.63230 0.09160 0.75860 0.00300
H 	H 	0.65220 0.08240 0.74930 0.02300
C 	C 	0.72420 0.02992 0.75200 -0.10200
H 	H 	0.72660 0.05010 0.76630 0.03500
H 	H 	0.70180 0.03040 0.74150 0.17100
H 	H 	0.69860 0.02000 0.73500 -0.14200
C 	C 	0.74970 0.91940 0.87630 0.02500
H 	H 	0.76190 0.93260 0.86090 0.02200
O 	O 	0.87889 0.53547 0.17075 -0.48500
O 	O 	0.83934 0.53522 0.20972 -0.48000
C 	C 	0.86558 0.54643 0.19718 0.41700
C 	C 	0.88285 0.57456 0.21431 -0.13700
C 	C 	0.86770 0.59160 0.24140 0.00100
H 	H 	0.84780 0.58240 0.25070 0.02600
C 	C 	0.77580 0.52992 0.24800 -0.03000
H 	H 	0.77340 0.55010 0.23370 0.01800
H 	H 	0.79820 0.53040 0.25850 0.02900
H 	H 	0.80140 0.52000 0.26500 0.01000
C 	C 	0.75030 0.41940 0.12370 0.02100
H 	H 	0.73810 0.43260 0.13910 0.01900
O 	O 	0.87889 0.03547 0.67075 -0.48900
O 	O 	0.83934 0.03522 0.70972 -0.48500
C 	C 	0.86558 0.04643 0.69718 0.41800
C 	C 	0.88285 0.07456 0.71431 -0.13900
C 	C 	0.86770 0.09160 0.74140 0.00100
H 	H 	0.84780 0.08240 0.75070 0.02400
C 	C 	0.77580 0.02992 0.74800 -0.10300
H 	H 	0.77340 0.05010 0.73370 0.03200
H 	H 	0.79820 0.03040 0.75850 0.17300
H 	H 	0.80140 0.02000 0.76500 -0.14500
C 	C 	0.75030 0.91940 0.62370 0.02300
H 	H 	0.73810 0.93260 0.63910 0.02200
O 	O 	0.37889 0.53547 0.67075 -0.48600
O 	O 	0.33934 0.53522 0.70972 -0.48000
C 	C 	0.36558 0.54643 0.69718 0.41700
C 	C 	0.38285 0.57456 0.71431 -0.13800
C 	C 	0.36770 0.59160 0.74140 0.00200
H 	H 	0.34780 0.58240 0.75070 0.02500
C 	C 	0.27580 0.52992 0.74800 -0.02900
H 	H 	0.27340 0.55010 0.73370 0.01800
H 	H 	0.29820 0.53040 0.75850 0.02900
H 	H 	0.30140 0.52000 0.76500 0.01000
C 	C 	0.25030 0.41940 0.62370 0.02200
H 	H 	0.23810 0.43260 0.63910 0.01900
O 	O 	0.37889 0.03547 0.17075 -0.49100
O 	O 	0.33934 0.03522 0.20972 -0.48500
C 	C 	0.36558 0.04643 0.19718 0.41800
C 	C 	0.38285 0.07456 0.21431 -0.14100
C 	C 	0.36770 0.09160 0.24140 0.00300
H 	H 	0.34780 0.08240 0.25070 0.02300
C 	C 	0.27580 0.02992 0.24800 -0.10200
H 	H 	0.27340 0.05010 0.23370 0.03200
H 	H 	0.29820 0.03040 0.25850 0.17100
H 	H 	0.30140 0.02000 0.26500 -0.14300
C 	C 	0.25030 0.91940 0.12370 0.02200
H 	H 	0.23810 0.93260 0.13910 0.02100
O 	O 	0.46453 0.17075 0.12111 -0.48800
O 	O 	0.46478 0.20972 0.16066 -0.48000
C 	C 	0.45357 0.19718 0.13442 0.41800
C 	C 	0.42544 0.21431 0.11715 -0.13900
C 	C 	0.40840 0.24140 0.13230 0.00400
H 	H 	0.41760 0.25070 0.15220 0.02500
C 	C 	0.47008 0.24800 0.22420 -0.02900
H 	H 	0.44990 0.23370 0.22660 0.01900
H 	H 	0.46960 0.25850 0.20180 0.02700
H 	H 	0.48000 0.26500 0.19860 0.01200
C 	C 	0.58060 0.12370 0.24970 0.02200
H 	H 	0.56740 0.13910 0.26190 0.01900
O 	O 	0.46453 0.67075 0.62111 -0.48600
O 	O 	0.46478 0.70972 0.66066 -0.48000
C 	C 	0.45357 0.69718 0.63442 0.41700
C 	C 	0.42544 0.71431 0.61715 -0.13800
C 	C 	0.40840 0.74140 0.63230 0.00200
H 	H 	0.41760 0.75070 0.65220 0.02500
C 	C 	0.47008 0.74800 0.72420 -0.03000
H 	H 	0.44990 0.73370 0.72660 0.01900
H 	H 	0.46960 0.75850 0.70180 0.02900
H 	H 	0.48000 0.76500 0.69860 0.01100
C 	C 	0.58060 0.62370 0.74970 0.02200
H 	H 	0.56740 0.63910 0.76190 0.01900
O 	O 	0.96453 0.17075 0.62111 -0.48000
O 	O 	0.96478 0.20972 0.66066 -0.47500
C 	C 	0.95357 0.19718 0.63442 0.41600
C 	C 	0.92544 0.21431 0.61715 -0.13600
C 	C 	0.90840 0.24140 0.63230 0.00100
H 	H 	0.91760 0.25070 0.65220 0.02500
C 	C 	0.97008 0.24800 0.72420 -0.08300
H 	H 	0.94990 0.23370 0.72660 0.03100
H 	H 	0.96960 0.25850 0.70180 0.13200
H 	H 	0.98000 0.26500 0.69860 -0.09800
C 	C 	0.08060 0.12370 0.74970 0.02200
H 	H 	0.06740 0.13910 0.76190 0.01800
O 	O 	0.96453 0.67075 0.12111 -0.48100
O 	O 	0.96478 0.70972 0.16066 -0.47500
C 	C 	0.95357 0.69718 0.13442 0.41700
C 	C 	0.92544 0.71431 0.11715 -0.13700
C 	C 	0.90840 0.74140 0.13230 0.00200
H 	H 	0.91760 0.75070 0.15220 0.02400
C 	C 	0.97008 0.74800 0.22420 -0.08300
H 	H 	0.94990 0.73370 0.22660 0.03100
H 	H 	0.96960 0.75850 0.20180 0.13300
H 	H 	0.98000 0.76500 0.19860 -0.09900
C 	C 	0.08060 0.62370 0.24970 0.02200
H 	H 	0.06740 0.63910 0.26190 0.01800
O 	O 	0.46453 0.82925 0.87889 -0.48400
O 	O 	0.46478 0.79028 0.83934 -0.47900
C 	C 	0.45357 0.80282 0.86558 0.41700
C 	C 	0.42544 0.78569 0.88285 -0.13600
C 	C 	0.40840 0.75860 0.86770 0.00100
H 	H 	0.41760 0.74930 0.84780 0.02600
C 	C 	0.47008 0.75200 0.77580 -0.03000
H 	H 	0.44990 0.76630 0.77340 0.01900
H 	H 	0.46960 0.74150 0.79820 0.02900
H 	H 	0.48000 0.73500 0.80140 0.01100
C 	C 	0.58060 0.87630 0.75030 0.02300
H 	H 	0.56740 0.86090 0.73810 0.01900
O 	O 	0.46453 0.32925 0.37889 -0.48600
O 	O 	0.46478 0.29028 0.33934 -0.48000
C 	C 	0.45357 0.30282 0.36558 0.41700
C 	C 	0.42544 0.28569 0.38285 -0.13800
C 	C 	0.40840 0.25860 0.36770 0.00300
H 	H 	0.41760 0.24930 0.34780 0.02500
C 	C 	0.47008 0.25200 0.27580 -0.02900
H 	H 	0.44990 0.26630 0.27340 0.01900
H 	H 	0.46960 0.24150 0.29820 0.02700
H 	H 	0.48000 0.23500 0.30140 0.01200
C 	C 	0.58060 0.37630 0.25030 0.02200
H 	H 	0.56740 0.36090 0.23810 0.01900
O 	O 	0.96453 0.82925 0.37889 -0.47900
O 	O 	0.96478 0.79028 0.33934 -0.47500
C 	C 	0.95357 0.80282 0.36558 0.41600
C 	C 	0.92544 0.78569 0.38285 -0.13500
C 	C 	0.90840 0.75860 0.36770 0.00100
H 	H 	0.91760 0.74930 0.34780 0.02500
C 	C 	0.97008 0.75200 0.27580 -0.08300
H 	H 	0.94990 0.76630 0.27340 0.03100
H 	H 	0.96960 0.74150 0.29820 0.13200
H 	H 	0.98000 0.73500 0.30140 -0.09800
C 	C 	0.08060 0.87630 0.25030 0.02400
H 	H 	0.06740 0.86090 0.23810 0.01800
O 	O 	0.96453 0.32925 0.87889 -0.47800
O 	O 	0.96478 0.29028 0.83934 -0.47400
C 	C 	0.95357 0.30282 0.86558 0.41600
C 	C 	0.92544 0.28569 0.88285 -0.13400
C 	C 	0.90840 0.25860 0.86770 -0.00000
H 	H 	0.91760 0.24930 0.84780 0.02500
C 	C 	0.97008 0.25200 0.77580 -0.08300
H 	H 	0.94990 0.26630 0.77340 0.03000
H 	H 	0.96960 0.24150 0.79820 0.13300
H 	H 	0.98000 0.23500 0.80140 -0.09900
C 	C 	0.08060 0.37630 0.75030 0.02200
H 	H 	0.06740 0.36090 0.73810 0.01800
O 	O 	0.53547 0.17075 0.87889 -0.48500
O 	O 	0.53522 0.20972 0.83934 -0.48000
C 	C 	0.54643 0.19718 0.86558 0.41700
C 	C 	0.57456 0.21431 0.88285 -0.13700
C 	C 	0.59160 0.24140 0.86770 0.00100
H 	H 	0.58240 0.25070 0.84780 0.02600
C 	C 	0.52992 0.24800 0.77580 -0.03000
H 	H 	0.55010 0.23370 0.77340 0.01800
H 	H 	0.53040 0.25850 0.79820 0.02900
H 	H 	0.52000 0.26500 0.80140 0.01000
C 	C 	0.41940 0.12370 0.75030 0.02100
H 	H 	0.43260 0.13910 0.73810 0.01900
O 	O 	0.53547 0.67075 0.37889 -0.48600
O 	O 	0.53522 0.70972 0.33934 -0.48000
C 	C 	0.54643 0.69718 0.36558 0.41700
C 	C 	0.57456 0.71431 0.38285 -0.13800
C 	C 	0.59160 0.74140 0.36770 0.00200
H 	H 	0.58240 0.75070 0.34780 0.02500
C 	C 	0.52992 0.74800 0.27580 -0.02900
H 	H 	0.55010 0.73370 0.27340 0.01800
H 	H 	0.53040 0.75850 0.29820 0.02900
H 	H 	0.52000 0.76500 0.30140 0.01000
C 	C 	0.41940 0.62370 0.25030 0.02200
H 	H 	0.43260 0.63910 0.23810 0.01900
O 	O 	0.03547 0.17075 0.37889 -0.49100
O 	O 	0.03522 0.20972 0.33934 -0.48500
C 	C 	0.04643 0.19718 0.36558 0.41800
C 	C 	0.07456 0.21431 0.38285 -0.14100
C 	C 	0.09160 0.24140 0.36770 0.00300
H 	H 	0.08240 0.25070 0.34780 0.02300
C 	C 	0.02992 0.24800 0.27580 -0.10200
H 	H 	0.05010 0.23370 0.27340 0.03200
H 	H 	0.03040 0.25850 0.29820 0.17100
H 	H 	0.02000 0.26500 0.30140 -0.14300
C 	C 	0.91940 0.12370 0.25030 0.02200
H 	H 	0.93260 0.13910 0.23810 0.02100
O 	O 	0.03547 0.67075 0.87889 -0.48900
O 	O 	0.03522 0.70972 0.83934 -0.48500
C 	C 	0.04643 0.69718 0.86558 0.41800
C 	C 	0.07456 0.71431 0.88285 -0.13900
C 	C 	0.09160 0.74140 0.86770 0.00100
H 	H 	0.08240 0.75070 0.84780 0.02400
C 	C 	0.02992 0.74800 0.77580 -0.10300
H 	H 	0.05010 0.73370 0.77340 0.03200
H 	H 	0.03040 0.75850 0.79820 0.17300
H 	H 	0.02000 0.76500 0.80140 -0.14500
C 	C 	0.91940 0.62370 0.75030 0.02300
H 	H 	0.93260 0.63910 0.73810 0.02200
O 	O 	0.53547 0.82925 0.12111 -0.48700
O 	O 	0.53522 0.79028 0.16066 -0.48000
C 	C 	0.54643 0.80282 0.13442 0.41700
C 	C 	0.57456 0.78569 0.11715 -0.13900
C 	C 	0.59160 0.75860 0.13230 0.00300
H 	H 	0.58240 0.74930 0.15220 0.02500
C 	C 	0.52992 0.75200 0.22420 -0.02900
H 	H 	0.55010 0.76630 0.22660 0.02100
H 	H 	0.53040 0.74150 0.20180 0.02700
H 	H 	0.52000 0.73500 0.19860 0.01200
C 	C 	0.41940 0.87630 0.24970 0.02400
H 	H 	0.43260 0.86090 0.26190 0.01900
O 	O 	0.53547 0.32925 0.62111 -0.48600
O 	O 	0.53522 0.29028 0.66066 -0.48000
C 	C 	0.54643 0.30282 0.63442 0.41700
C 	C 	0.57456 0.28569 0.61715 -0.13800
C 	C 	0.59160 0.25860 0.63230 0.00300
H 	H 	0.58240 0.24930 0.65220 0.02500
C 	C 	0.52992 0.25200 0.72420 -0.02900
H 	H 	0.55010 0.26630 0.72660 0.02000
H 	H 	0.53040 0.24150 0.70180 0.02700
H 	H 	0.52000 0.23500 0.69860 0.01200
C 	C 	0.41940 0.37630 0.74970 0.02200
H 	H 	0.43260 0.36090 0.76190 0.01900
O 	O 	0.03547 0.82925 0.62111 -0.49000
O 	O 	0.03522 0.79028 0.66066 -0.48500
C 	C 	0.04643 0.80282 0.63442 0.41800
C 	C 	0.07456 0.78569 0.61715 -0.14000
C 	C 	0.09160 0.75860 0.63230 0.00300
H 	H 	0.08240 0.74930 0.65220 0.02300
C 	C 	0.02992 0.75200 0.72420 -0.10200
H 	H 	0.05010 0.76630 0.72660 0.03500
H 	H 	0.03040 0.74150 0.70180 0.17100
H 	H 	0.02000 0.73500 0.69860 -0.14200
C 	C 	0.91940 0.87630 0.74970 0.02500
H 	H 	0.93260 0.86090 0.76190 0.02200
O 	O 	0.03547 0.32925 0.12111 -0.49200
O 	O 	0.03522 0.29028 0.16066 -0.48500
C 	C 	0.04643 0.30282 0.13442 0.41900
C 	C 	0.07456 0.28569 0.11715 -0.14200
C 	C 	0.09160 0.25860 0.13230 0.00500
H 	H 	0.08240 0.24930 0.15220 0.02300
C 	C 	0.02992 0.25200 0.22420 -0.10100
H 	H 	0.05010 0.26630 0.22660 0.03400
H 	H 	0.03040 0.24150 0.20180 0.16900
H 	H 	0.02000 0.23500 0.19860 -0.14100
C 	C 	0.91940 0.37630 0.24970 0.02300
H 	H 	0.93260 0.36090 0.26190 0.02200
O 	O 	0.12111 0.82925 0.53547 -0.48700
O 	O 	0.16066 0.79028 0.53522 -0.48000
C 	C 	0.13442 0.80282 0.54643 0.41700
C 	C 	0.11715 0.78569 0.57456 -0.13900
C 	C 	0.13230 0.75860 0.59160 0.00300
H 	H 	0.15220 0.74930 0.58240 0.02500
C 	C 	0.22420 0.75200 0.52992 -0.02900
H 	H 	0.22660 0.76630 0.55010 0.02100
H 	H 	0.20180 0.74150 0.53040 0.02700
H 	H 	0.19860 0.73500 0.52000 0.01200
C 	C 	0.24970 0.87630 0.41940 0.02400
H 	H 	0.26190 0.86090 0.43260 0.01900
O 	O 	0.12111 0.32925 0.03547 -0.49200
O 	O 	0.16066 0.29028 0.03522 -0.48500
C 	C 	0.13442 0.30282 0.04643 0.41900
C 	C 	0.11715 0.28569 0.07456 -0.14200
C 	C 	0.13230 0.25860 0.09160 0.00500
H 	H 	0.15220 0.24930 0.08240 0.02300
C 	C 	0.22420 0.25200 0.02992 -0.10100
H 	H 	0.22660 0.26630 0.05010 0.03400
H 	H 	0.20180 0.24150 0.03040 0.16900
H 	H 	0.19860 0.23500 0.02000 -0.14100
C 	C 	0.24970 0.37630 0.91940 0.02300
H 	H 	0.26190 0.36090 0.93260 0.02200
O 	O 	0.62111 0.82925 0.03547 -0.49000
O 	O 	0.66066 0.79028 0.03522 -0.48500
C 	C 	0.63442 0.80282 0.04643 0.41800
C 	C 	0.61715 0.78569 0.07456 -0.14000
C 	C 	0.63230 0.75860 0.09160 0.00300
H 	H 	0.65220 0.74930 0.08240 0.02300
C 	C 	0.72420 0.75200 0.02992 -0.10200
H 	H 	0.72660 0.76630 0.05010 0.03500
H 	H 	0.70180 0.74150 0.03040 0.17100
H 	H 	0.69860 0.73500 0.02000 -0.14200
C 	C 	0.74970 0.87630 0.91940 0.02500
H 	H 	0.76190 0.86090 0.93260 0.02200
O 	O 	0.62111 0.32925 0.53547 -0.48600
O 	O 	0.66066 0.29028 0.53522 -0.48000
C 	C 	0.63442 0.30282 0.54643 0.41700
C 	C 	0.61715 0.28569 0.57456 -0.13800
C 	C 	0.63230 0.25860 0.59160 0.00300
H 	H 	0.65220 0.24930 0.58240 0.02500
C 	C 	0.72420 0.25200 0.52992 -0.02900
H 	H 	0.72660 0.26630 0.55010 0.02000
H 	H 	0.70180 0.24150 0.53040 0.02700
H 	H 	0.69860 0.23500 0.52000 0.01200
C 	C 	0.74970 0.37630 0.41940 0.02200
H 	H 	0.76190 0.36090 0.43260 0.01900
O 	O 	0.87889 0.17075 0.53547 -0.48500
O 	O 	0.83934 0.20972 0.53522 -0.48000
C 	C 	0.86558 0.19718 0.54643 0.41700
C 	C 	0.88285 0.21431 0.57456 -0.13700
C 	C 	0.86770 0.24140 0.59160 0.00100
H 	H 	0.84780 0.25070 0.58240 0.02600
C 	C 	0.77580 0.24800 0.52992 -0.03000
H 	H 	0.77340 0.23370 0.55010 0.01800
H 	H 	0.79820 0.25850 0.53040 0.02900
H 	H 	0.80140 0.26500 0.52000 0.01000
C 	C 	0.75030 0.12370 0.41940 0.02100
H 	H 	0.73810 0.13910 0.43260 0.01900
O 	O 	0.87889 0.67075 0.03547 -0.48900
O 	O 	0.83934 0.70972 0.03522 -0.48500
C 	C 	0.86558 0.69718 0.04643 0.41800
C 	C 	0.88285 0.71431 0.07456 -0.13900
C 	C 	0.86770 0.74140 0.09160 0.00100
H 	H 	0.84780 0.75070 0.08240 0.02400
C 	C 	0.77580 0.74800 0.02992 -0.10300
H 	H 	0.77340 0.73370 0.05010 0.03200
H 	H 	0.79820 0.75850 0.03040 0.17300
H 	H 	0.80140 0.76500 0.02000 -0.14500
C 	C 	0.75030 0.62370 0.91940 0.02300
H 	H 	0.73810 0.63910 0.93260 0.02200
O 	O 	0.37889 0.17075 0.03547 -0.49100
O 	O 	0.33934 0.20972 0.03522 -0.48500
C 	C 	0.36558 0.19718 0.04643 0.41800
C 	C 	0.38285 0.21431 0.07456 -0.14100
C 	C 	0.36770 0.24140 0.09160 0.00300
H 	H 	0.34780 0.25070 0.08240 0.02300
C 	C 	0.27580 0.24800 0.02992 -0.10200
H 	H 	0.27340 0.23370 0.05010 0.03200
H 	H 	0.29820 0.25850 0.03040 0.17100
H 	H 	0.30140 0.26500 0.02000 -0.14300
C 	C 	0.25030 0.12370 0.91940 0.02200
H 	H 	0.23810 0.13910 0.93260 0.02100
O 	O 	0.37889 0.67075 0.53547 -0.48600
O 	O 	0.33934 0.70972 0.53522 -0.48000
C 	C 	0.36558 0.69718 0.54643 0.41700
C 	C 	0.38285 0.71431 0.57456 -0.13800
C 	C 	0.36770 0.74140 0.59160 0.00200
H 	H 	0.34780 0.75070 0.58240 0.02500
C 	C 	0.27580 0.74800 0.52992 -0.02900
H 	H 	0.27340 0.73370 0.55010 0.01800
H 	H 	0.29820 0.75850 0.53040 0.02900
H 	H 	0.30140 0.76500 0.52000 0.01000
C 	C 	0.25030 0.62370 0.41940 0.02200
H 	H 	0.23810 0.63910 0.43260 0.01900
O 	O 	0.87889 0.82925 0.46453 -0.48400
O 	O 	0.83934 0.79028 0.46478 -0.47900
C 	C 	0.86558 0.80282 0.45357 0.41700
C 	C 	0.88285 0.78569 0.42544 -0.13600
C 	C 	0.86770 0.75860 0.40840 0.00100
H 	H 	0.84780 0.74930 0.41760 0.02600
C 	C 	0.77580 0.75200 0.47008 -0.03000
H 	H 	0.77340 0.76630 0.44990 0.01900
H 	H 	0.79820 0.74150 0.46960 0.02900
H 	H 	0.80140 0.73500 0.48000 0.01100
C 	C 	0.75030 0.87630 0.58060 0.02300
H 	H 	0.73810 0.86090 0.56740 0.01900
O 	O 	0.87889 0.32925 0.96453 -0.47800
O 	O 	0.83934 0.29028 0.96478 -0.47400
C 	C 	0.86558 0.30282 0.95357 0.41600
C 	C 	0.88285 0.28569 0.92544 -0.13400
C 	C 	0.86770 0.25860 0.90840 -0.00000
H 	H 	0.84780 0.24930 0.91760 0.02500
C 	C 	0.77580 0.25200 0.97008 -0.08300
H 	H 	0.77340 0.26630 0.94990 0.03000
H 	H 	0.79820 0.24150 0.96960 0.13300
H 	H 	0.80140 0.23500 0.98000 -0.09900
C 	C 	0.75030 0.37630 0.08060 0.02200
H 	H 	0.73810 0.36090 0.06740 0.01800
O 	O 	0.37889 0.82925 0.96453 -0.47900
O 	O 	0.33934 0.79028 0.96478 -0.47500
C 	C 	0.36558 0.80282 0.95357 0.41600
C 	C 	0.38285 0.78569 0.92544 -0.13500
C 	C 	0.36770 0.75860 0.90840 0.00100
H 	H 	0.34780 0.74930 0.91760 0.02500
C 	C 	0.27580 0.75200 0.97008 -0.08300
H 	H 	0.27340 0.76630 0.94990 0.03100
H 	H 	0.29820 0.74150 0.96960 0.13200
H 	H 	0.30140 0.73500 0.98000 -0.09800
C 	C 	0.25030 0.87630 0.08060 0.02400
H 	H 	0.23810 0.86090 0.06740 0.01800
O 	O 	0.37889 0.32925 0.46453 -0.48600
O 	O 	0.33934 0.29028 0.46478 -0.48000
C 	C 	0.36558 0.30282 0.45357 0.41700
C 	C 	0.38285 0.28569 0.42544 -0.13800
C 	C 	0.36770 0.25860 0.40840 0.00300
H 	H 	0.34780 0.24930 0.41760 0.02500
C 	C 	0.27580 0.25200 0.47008 -0.02900
H 	H 	0.27340 0.26630 0.44990 0.01900
H 	H 	0.29820 0.24150 0.46960 0.02700
H 	H 	0.30140 0.23500 0.48000 0.01200
C 	C 	0.25030 0.37630 0.58060 0.02200
H 	H 	0.23810 0.36090 0.56740 0.01900
O 	O 	0.12111 0.17075 0.46453 -0.48800
O 	O 	0.16066 0.20972 0.46478 -0.48000
C 	C 	0.13442 0.19718 0.45357 0.41800
C 	C 	0.11715 0.21431 0.42544 -0.13900
C 	C 	0.13230 0.24140 0.40840 0.00400
H 	H 	0.15220 0.25070 0.41760 0.02500
C 	C 	0.22420 0.24800 0.47008 -0.02900
H 	H 	0.22660 0.23370 0.44990 0.01900
H 	H 	0.20180 0.25850 0.46960 0.02700
H 	H 	0.19860 0.26500 0.48000 0.01200
C 	C 	0.24970 0.12370 0.58060 0.02200
H 	H 	0.26190 0.13910 0.56740 0.01900
O 	O 	0.12111 0.67075 0.96453 -0.48100
O 	O 	0.16066 0.70972 0.96478 -0.47500
C 	C 	0.13442 0.69718 0.95357 0.41700
C 	C 	0.11715 0.71431 0.92544 -0.13700
C 	C 	0.13230 0.74140 0.90840 0.00200
H 	H 	0.15220 0.75070 0.91760 0.02400
C 	C 	0.22420 0.74800 0.97008 -0.08300
H 	H 	0.22660 0.73370 0.94990 0.03100
H 	H 	0.20180 0.75850 0.96960 0.13300
H 	H 	0.19860 0.76500 0.98000 -0.09900
C 	C 	0.24970 0.62370 0.08060 0.02200
H 	H 	0.26190 0.63910 0.06740 0.01800
O 	O 	0.62111 0.17075 0.96453 -0.48000
O 	O 	0.66066 0.20972 0.96478 -0.47500
C 	C 	0.63442 0.19718 0.95357 0.41600
C 	C 	0.61715 0.21431 0.92544 -0.13600
C 	C 	0.63230 0.24140 0.90840 0.00100
H 	H 	0.65220 0.25070 0.91760 0.02500
C 	C 	0.72420 0.24800 0.97008 -0.08300
H 	H 	0.72660 0.23370 0.94990 0.03100
H 	H 	0.70180 0.25850 0.96960 0.13200
H 	H 	0.69860 0.26500 0.98000 -0.09800
C 	C 	0.74970 0.12370 0.08060 0.02200
H 	H 	0.76190 0.13910 0.06740 0.01800
O 	O 	0.62111 0.67075 0.46453 -0.48600
O 	O 	0.66066 0.70972 0.46478 -0.48000
C 	C 	0.63442 0.69718 0.45357 0.41700
C 	C 	0.61715 0.71431 0.42544 -0.13800
C 	C 	0.63230 0.74140 0.40840 0.00200
H 	H 	0.65220 0.75070 0.41760 0.02500
C 	C 	0.72420 0.74800 0.47008 -0.03000
H 	H 	0.72660 0.73370 0.44990 0.01900
H 	H 	0.70180 0.75850 0.46960 0.02900
H 	H 	0.69860 0.76500 0.48000 0.01100
C 	C 	0.74970 0.62370 0.58060 0.02200
H 	H 	0.76190 0.63910 0.56740 0.01900
O 	O 	0.53547 0.12111 0.82925 -0.48700
O 	O 	0.53522 0.16066 0.79028 -0.48000
C 	C 	0.54643 0.13442 0.80282 0.41700
C 	C 	0.57456 0.11715 0.78569 -0.13900
C 	C 	0.59160 0.13230 0.75860 0.00300
H 	H 	0.58240 0.15220 0.74930 0.02500
C 	C 	0.52992 0.22420 0.75200 -0.02900
H 	H 	0.55010 0.22660 0.76630 0.02100
H 	H 	0.53040 0.20180 0.74150 0.02700
H 	H 	0.52000 0.19860 0.73500 0.01200
C 	C 	0.41940 0.24970 0.87630 0.02400
H 	H 	0.43260 0.26190 0.86090 0.01900
O 	O 	0.53547 0.62111 0.32925 -0.48600
O 	O 	0.53522 0.66066 0.29028 -0.48000
C 	C 	0.54643 0.63442 0.30282 0.41700
C 	C 	0.57456 0.61715 0.28569 -0.13800
C 	C 	0.59160 0.63230 0.25860 0.00300
H 	H 	0.58240 0.65220 0.24930 0.02500
C 	C 	0.52992 0.72420 0.25200 -0.02900
H 	H 	0.55010 0.72660 0.26630 0.02000
H 	H 	0.53040 0.70180 0.24150 0.02700
H 	H 	0.52000 0.69860 0.23500 0.01200
C 	C 	0.41940 0.74970 0.37630 0.02200
H 	H 	0.43260 0.76190 0.36090 0.01900
O 	O 	0.03547 0.12111 0.32925 -0.49200
O 	O 	0.03522 0.16066 0.29028 -0.48500
C 	C 	0.04643 0.13442 0.30282 0.41900
C 	C 	0.07456 0.11715 0.28569 -0.14200
C 	C 	0.09160 0.13230 0.25860 0.00500
H 	H 	0.08240 0.15220 0.24930 0.02300
C 	C 	0.02992 0.22420 0.25200 -0.10100
H 	H 	0.05010 0.22660 0.26630 0.03400
H 	H 	0.03040 0.20180 0.24150 0.16900
H 	H 	0.02000 0.19860 0.23500 -0.14100
C 	C 	0.91940 0.24970 0.37630 0.02300
H 	H 	0.93260 0.26190 0.36090 0.02200
O 	O 	0.03547 0.62111 0.82925 -0.49000
O 	O 	0.03522 0.66066 0.79028 -0.48500
C 	C 	0.04643 0.63442 0.80282 0.41800
C 	C 	0.07456 0.61715 0.78569 -0.14000
C 	C 	0.09160 0.63230 0.75860 0.00300
H 	H 	0.08240 0.65220 0.74930 0.02300
C 	C 	0.02992 0.72420 0.75200 -0.10200
H 	H 	0.05010 0.72660 0.76630 0.03500
H 	H 	0.03040 0.70180 0.74150 0.17100
H 	H 	0.02000 0.69860 0.73500 -0.14200
C 	C 	0.91940 0.74970 0.87630 0.02500
H 	H 	0.93260 0.76190 0.86090 0.02200
O 	O 	0.53547 0.87889 0.17075 -0.48500
O 	O 	0.53522 0.83934 0.20972 -0.48000
C 	C 	0.54643 0.86558 0.19718 0.41700
C 	C 	0.57456 0.88285 0.21431 -0.13700
C 	C 	0.59160 0.86770 0.24140 0.00100
H 	H 	0.58240 0.84780 0.25070 0.02600
C 	C 	0.52992 0.77580 0.24800 -0.03000
H 	H 	0.55010 0.77340 0.23370 0.01800
H 	H 	0.53040 0.79820 0.25850 0.02900
H 	H 	0.52000 0.80140 0.26500 0.01000
C 	C 	0.41940 0.75030 0.12370 0.02100
H 	H 	0.43260 0.73810 0.13910 0.01900
O 	O 	0.53547 0.37889 0.67075 -0.48600
O 	O 	0.53522 0.33934 0.70972 -0.48000
C 	C 	0.54643 0.36558 0.69718 0.41700
C 	C 	0.57456 0.38285 0.71431 -0.13800
C 	C 	0.59160 0.36770 0.74140 0.00200
H 	H 	0.58240 0.34780 0.75070 0.02500
C 	C 	0.52992 0.27580 0.74800 -0.02900
H 	H 	0.55010 0.27340 0.73370 0.01800
H 	H 	0.53040 0.29820 0.75850 0.02900
H 	H 	0.52000 0.30140 0.76500 0.01000
C 	C 	0.41940 0.25030 0.62370 0.02200
H 	H 	0.43260 0.23810 0.63910 0.01900
O 	O 	0.03547 0.87889 0.67075 -0.48900
O 	O 	0.03522 0.83934 0.70972 -0.48500
C 	C 	0.04643 0.86558 0.69718 0.41800
C 	C 	0.07456 0.88285 0.71431 -0.13900
C 	C 	0.09160 0.86770 0.74140 0.00100
H 	H 	0.08240 0.84780 0.75070 0.02400
C 	C 	0.02992 0.77580 0.74800 -0.10300
H 	H 	0.05010 0.77340 0.73370 0.03200
H 	H 	0.03040 0.79820 0.75850 0.17300
H 	H 	0.02000 0.80140 0.76500 -0.14500
C 	C 	0.91940 0.75030 0.62370 0.02300
H 	H 	0.93260 0.73810 0.63910 0.02200
O 	O 	0.03547 0.37889 0.17075 -0.49100
O 	O 	0.03522 0.33934 0.20972 -0.48500
C 	C 	0.04643 0.36558 0.19718 0.41800
C 	C 	0.07456 0.38285 0.21431 -0.14100
C 	C 	0.09160 0.36770 0.24140 0.00300
H 	H 	0.08240 0.34780 0.25070 0.02300
C 	C 	0.02992 0.27580 0.24800 -0.10200
H 	H 	0.05010 0.27340 0.23370 0.03200
H 	H 	0.03040 0.29820 0.25850 0.17100
H 	H 	0.02000 0.30140 0.26500 -0.14300
C 	C 	0.91940 0.25030 0.12370 0.02200
H 	H 	0.93260 0.23810 0.13910 0.02100
O 	O 	0.46453 0.87889 0.82925 -0.48400
O 	O 	0.46478 0.83934 0.79028 -0.47900
C 	C 	0.45357 0.86558 0.80282 0.41700
C 	C 	0.42544 0.88285 0.78569 -0.13600
C 	C 	0.40840 0.86770 0.75860 0.00100
H 	H 	0.41760 0.84780 0.74930 0.02600
C 	C 	0.47008 0.77580 0.75200 -0.03000
H 	H 	0.44990 0.77340 0.76630 0.01900
H 	H 	0.46960 0.79820 0.74150 0.02900
H 	H 	0.48000 0.80140 0.73500 0.01100
C 	C 	0.58060 0.75030 0.87630 0.02300
H 	H 	0.56740 0.73810 0.86090 0.01900
O 	O 	0.46453 0.37889 0.32925 -0.48600
O 	O 	0.46478 0.33934 0.29028 -0.48000
C 	C 	0.45357 0.36558 0.30282 0.41700
C 	C 	0.42544 0.38285 0.28569 -0.13800
C 	C 	0.40840 0.36770 0.25860 0.00300
H 	H 	0.41760 0.34780 0.24930 0.02500
C 	C 	0.47008 0.27580 0.25200 -0.02900
H 	H 	0.44990 0.27340 0.26630 0.01900
H 	H 	0.46960 0.29820 0.24150 0.02700
H 	H 	0.48000 0.30140 0.23500 0.01200
C 	C 	0.58060 0.25030 0.37630 0.02200
H 	H 	0.56740 0.23810 0.36090 0.01900
O 	O 	0.96453 0.87889 0.32925 -0.47800
O 	O 	0.96478 0.83934 0.29028 -0.47400
C 	C 	0.95357 0.86558 0.30282 0.41600
C 	C 	0.92544 0.88285 0.28569 -0.13400
C 	C 	0.90840 0.86770 0.25860 -0.00000
H 	H 	0.91760 0.84780 0.24930 0.02500
C 	C 	0.97008 0.77580 0.25200 -0.08300
H 	H 	0.94990 0.77340 0.26630 0.03000
H 	H 	0.96960 0.79820 0.24150 0.13300
H 	H 	0.98000 0.80140 0.23500 -0.09900
C 	C 	0.08060 0.75030 0.37630 0.02200
H 	H 	0.06740 0.73810 0.36090 0.01800
O 	O 	0.96453 0.37889 0.82925 -0.47900
O 	O 	0.96478 0.33934 0.79028 -0.47500
C 	C 	0.95357 0.36558 0.80282 0.41600
C 	C 	0.92544 0.38285 0.78569 -0.13500
C 	C 	0.90840 0.36770 0.75860 0.00100
H 	H 	0.91760 0.34780 0.74930 0.02500
C 	C 	0.97008 0.27580 0.75200 -0.08300
H 	H 	0.94990 0.27340 0.76630 0.03100
H 	H 	0.96960 0.29820 0.74150 0.13200
H 	H 	0.98000 0.30140 0.73500 -0.09800
C 	C 	0.08060 0.25030 0.87630 0.02400
H 	H 	0.06740 0.23810 0.86090 0.01800
O 	O 	0.46453 0.12111 0.17075 -0.48800
O 	O 	0.46478 0.16066 0.20972 -0.48000
C 	C 	0.45357 0.13442 0.19718 0.41800
C 	C 	0.42544 0.11715 0.21431 -0.13900
C 	C 	0.40840 0.13230 0.24140 0.00400
H 	H 	0.41760 0.15220 0.25070 0.02500
C 	C 	0.47008 0.22420 0.24800 -0.02900
H 	H 	0.44990 0.22660 0.23370 0.01900
H 	H 	0.46960 0.20180 0.25850 0.02700
H 	H 	0.48000 0.19860 0.26500 0.01200
C 	C 	0.58060 0.24970 0.12370 0.02200
H 	H 	0.56740 0.26190 0.13910 0.01900
O 	O 	0.46453 0.62111 0.67075 -0.48600
O 	O 	0.46478 0.66066 0.70972 -0.48000
C 	C 	0.45357 0.63442 0.69718 0.41700
C 	C 	0.42544 0.61715 0.71431 -0.13800
C 	C 	0.40840 0.63230 0.74140 0.00200
H 	H 	0.41760 0.65220 0.75070 0.02500
C 	C 	0.47008 0.72420 0.74800 -0.03000
H 	H 	0.44990 0.72660 0.73370 0.01900
H 	H 	0.46960 0.70180 0.75850 0.02900
H 	H 	0.48000 0.69860 0.76500 0.01100
C 	C 	0.58060 0.74970 0.62370 0.02200
H 	H 	0.56740 0.76190 0.63910 0.01900
O 	O 	0.96453 0.12111 0.67075 -0.48100
O 	O 	0.96478 0.16066 0.70972 -0.47500
C 	C 	0.95357 0.13442 0.69718 0.41700
C 	C 	0.92544 0.11715 0.71431 -0.13700
C 	C 	0.90840 0.13230 0.74140 0.00200
H 	H 	0.91760 0.15220 0.75070 0.02400
C 	C 	0.97008 0.22420 0.74800 -0.08300
H 	H 	0.94990 0.22660 0.73370 0.03100
H 	H 	0.96960 0.20180 0.75850 0.13300
H 	H 	0.98000 0.19860 0.76500 -0.09900
C 	C 	0.08060 0.24970 0.62370 0.02200
H 	H 	0.06740 0.26190 0.63910 0.01800
O 	O 	0.96453 0.62111 0.17075 -0.48000
O 	O 	0.96478 0.66066 0.20972 -0.47500
C 	C 	0.95357 0.63442 0.19718 0.41600
C 	C 	0.92544 0.61715 0.21431 -0.13600
C 	C 	0.90840 0.63230 0.24140 0.00100
H 	H 	0.91760 0.65220 0.25070 0.02500
C 	C 	0.97008 0.72420 0.24800 -0.08300
H 	H 	0.94990 0.72660 0.23370 0.03100
H 	H 	0.96960 0.70180 0.25850 0.13200
H 	H 	0.98000 0.69860 0.26500 -0.09800
C 	C 	0.08060 0.74970 0.12370 0.02200
H 	H 	0.06740 0.76190 0.13910 0.01800
O 	O 	0.82925 0.53547 0.12111 -0.48700
O 	O 	0.79028 0.53522 0.16066 -0.48000
C 	C 	0.80282 0.54643 0.13442 0.41700
C 	C 	0.78569 0.57456 0.11715 -0.13900
C 	C 	0.75860 0.59160 0.13230 0.00300
H 	H 	0.74930 0.58240 0.15220 0.02500
C 	C 	0.75200 0.52992 0.22420 -0.02900
H 	H 	0.76630 0.55010 0.22660 0.02100
H 	H 	0.74150 0.53040 0.20180 0.02700
H 	H 	0.73500 0.52000 0.19860 0.01200
C 	C 	0.87630 0.41940 0.24970 0.02400
H 	H 	0.86090 0.43260 0.26190 0.01900
O 	O 	0.82925 0.03547 0.62111 -0.49000
O 	O 	0.79028 0.03522 0.66066 -0.48500
C 	C 	0.80282 0.04643 0.63442 0.41800
C 	C 	0.78569 0.07456 0.61715 -0.14000
C 	C 	0.75860 0.09160 0.63230 0.00300
H 	H 	0.74930 0.08240 0.65220 0.02300
C 	C 	0.75200 0.02992 0.72420 -0.10200
H 	H 	0.76630 0.05010 0.72660 0.03500
H 	H 	0.74150 0.03040 0.70180 0.17100
H 	H 	0.73500 0.02000 0.69860 -0.14200
C 	C 	0.87630 0.91940 0.74970 0.02500
H 	H 	0.86090 0.93260 0.76190 0.02200
O 	O 	0.32925 0.53547 0.62111 -0.48600
O 	O 	0.29028 0.53522 0.66066 -0.48000
C 	C 	0.30282 0.54643 0.63442 0.41700
C 	C 	0.28569 0.57456 0.61715 -0.13800
C 	C 	0.25860 0.59160 0.63230 0.00300
H 	H 	0.24930 0.58240 0.65220 0.02500
C 	C 	0.25200 0.52992 0.72420 -0.02900
H 	H 	0.26630 0.55010 0.72660 0.02000
H 	H 	0.24150 0.53040 0.70180 0.02700
H 	H 	0.23500 0.52000 0.69860 0.01200
C 	C 	0.37630 0.41940 0.74970 0.02200
H 	H 	0.36090 0.43260 0.76190 0.01900
O 	O 	0.32925 0.03547 0.12111 -0.49200
O 	O 	0.29028 0.03522 0.16066 -0.48500
C 	C 	0.30282 0.04643 0.13442 0.41900
C 	C 	0.28569 0.07456 0.11715 -0.14200
C 	C 	0.25860 0.09160 0.13230 0.00500
H 	H 	0.24930 0.08240 0.15220 0.02300
C 	C 	0.25200 0.02992 0.22420 -0.10100
H 	H 	0.26630 0.05010 0.22660 0.03400
H 	H 	0.24150 0.03040 0.20180 0.16900
H 	H 	0.23500 0.02000 0.19860 -0.14100
C 	C 	0.37630 0.91940 0.24970 0.02300
H 	H 	0.36090 0.93260 0.26190 0.02200
O 	O 	0.17075 0.53547 0.87889 -0.48500
O 	O 	0.20972 0.53522 0.83934 -0.48000
C 	C 	0.19718 0.54643 0.86558 0.41700
C 	C 	0.21431 0.57456 0.88285 -0.13700
C 	C 	0.24140 0.59160 0.86770 0.00100
H 	H 	0.25070 0.58240 0.84780 0.02600
C 	C 	0.24800 0.52992 0.77580 -0.03000
H 	H 	0.23370 0.55010 0.77340 0.01800
H 	H 	0.25850 0.53040 0.79820 0.02900
H 	H 	0.26500 0.52000 0.80140 0.01000
C 	C 	0.12370 0.41940 0.75030 0.02100
H 	H 	0.13910 0.43260 0.73810 0.01900
O 	O 	0.17075 0.03547 0.37889 -0.49100
O 	O 	0.20972 0.03522 0.33934 -0.48500
C 	C 	0.19718 0.04643 0.36558 0.41800
C 	C 	0.21431 0.07456 0.38285 -0.14100
C 	C 	0.24140 0.09160 0.36770 0.00300
H 	H 	0.25070 0.08240 0.34780 0.02300
C 	C 	0.24800 0.02992 0.27580 -0.10200
H 	H 	0.23370 0.05010 0.27340 0.03200
H 	H 	0.25850 0.03040 0.29820 0.17100
H 	H 	0.26500 0.02000 0.30140 -0.14300
C 	C 	0.12370 0.91940 0.25030 0.02200
H 	H 	0.13910 0.93260 0.23810 0.02100
O 	O 	0.67075 0.53547 0.37889 -0.48600
O 	O 	0.70972 0.53522 0.33934 -0.48000
C 	C 	0.69718 0.54643 0.36558 0.41700
C 	C 	0.71431 0.57456 0.38285 -0.13800
C 	C 	0.74140 0.59160 0.36770 0.00200
H 	H 	0.75070 0.58240 0.34780 0.02500
C 	C 	0.74800 0.52992 0.27580 -0.02900
H 	H 	0.73370 0.55010 0.27340 0.01800
H 	H 	0.75850 0.53040 0.29820 0.02900
H 	H 	0.76500 0.52000 0.30140 0.01000
C 	C 	0.62370 0.41940 0.25030 0.02200
H 	H 	0.63910 0.43260 0.23810 0.01900
O 	O 	0.67075 0.03547 0.87889 -0.48900
O 	O 	0.70972 0.03522 0.83934 -0.48500
C 	C 	0.69718 0.04643 0.86558 0.41800
C 	C 	0.71431 0.07456 0.88285 -0.13900
C 	C 	0.74140 0.09160 0.86770 0.00100
H 	H 	0.75070 0.08240 0.84780 0.02400
C 	C 	0.74800 0.02992 0.77580 -0.10300
H 	H 	0.73370 0.05010 0.77340 0.03200
H 	H 	0.75850 0.03040 0.79820 0.17300
H 	H 	0.76500 0.02000 0.80140 -0.14500
C 	C 	0.62370 0.91940 0.75030 0.02300
H 	H 	0.63910 0.93260 0.73810 0.02200
O 	O 	0.82925 0.46453 0.87889 -0.48400
O 	O 	0.79028 0.46478 0.83934 -0.47900
C 	C 	0.80282 0.45357 0.86558 0.41700
C 	C 	0.78569 0.42544 0.88285 -0.13600
C 	C 	0.75860 0.40840 0.86770 0.00100
H 	H 	0.74930 0.41760 0.84780 0.02600
C 	C 	0.75200 0.47008 0.77580 -0.03000
H 	H 	0.76630 0.44990 0.77340 0.01900
H 	H 	0.74150 0.46960 0.79820 0.02900
H 	H 	0.73500 0.48000 0.80140 0.01100
C 	C 	0.87630 0.58060 0.75030 0.02300
H 	H 	0.86090 0.56740 0.73810 0.01900
O 	O 	0.82925 0.96453 0.37889 -0.47900
O 	O 	0.79028 0.96478 0.33934 -0.47500
C 	C 	0.80282 0.95357 0.36558 0.41600
C 	C 	0.78569 0.92544 0.38285 -0.13500
C 	C 	0.75860 0.90840 0.36770 0.00100
H 	H 	0.74930 0.91760 0.34780 0.02500
C 	C 	0.75200 0.97008 0.27580 -0.08300
H 	H 	0.76630 0.94990 0.27340 0.03100
H 	H 	0.74150 0.96960 0.29820 0.13200
H 	H 	0.73500 0.98000 0.30140 -0.09800
C 	C 	0.87630 0.08060 0.25030 0.02400
H 	H 	0.86090 0.06740 0.23810 0.01800
O 	O 	0.32925 0.46453 0.37889 -0.48600
O 	O 	0.29028 0.46478 0.33934 -0.48000
C 	C 	0.30282 0.45357 0.36558 0.41700
C 	C 	0.28569 0.42544 0.38285 -0.13800
C 	C 	0.25860 0.40840 0.36770 0.00300
H 	H 	0.24930 0.41760 0.34780 0.02500
C 	C 	0.25200 0.47008 0.27580 -0.02900
H 	H 	0.26630 0.44990 0.27340 0.01900
H 	H 	0.24150 0.46960 0.29820 0.02700
H 	H 	0.23500 0.48000 0.30140 0.01200
C 	C 	0.37630 0.58060 0.25030 0.02200
H 	H 	0.36090 0.56740 0.23810 0.01900
O 	O 	0.32925 0.96453 0.87889 -0.47800
O 	O 	0.29028 0.96478 0.83934 -0.47400
C 	C 	0.30282 0.95357 0.86558 0.41600
C 	C 	0.28569 0.92544 0.88285 -0.13400
C 	C 	0.25860 0.90840 0.86770 -0.00000
H 	H 	0.24930 0.91760 0.84780 0.02500
C 	C 	0.25200 0.97008 0.77580 -0.08300
H 	H 	0.26630 0.94990 0.77340 0.03000
H 	H 	0.24150 0.96960 0.79820 0.13300
H 	H 	0.23500 0.98000 0.80140 -0.09900
C 	C 	0.37630 0.08060 0.75030 0.02200
H 	H 	0.36090 0.06740 0.73810 0.01800
O 	O 	0.17075 0.46453 0.12111 -0.48800
O 	O 	0.20972 0.46478 0.16066 -0.48000
C 	C 	0.19718 0.45357 0.13442 0.41800
C 	C 	0.21431 0.42544 0.11715 -0.13900
C 	C 	0.24140 0.40840 0.13230 0.00400
H 	H 	0.25070 0.41760 0.15220 0.02500
C 	C 	0.24800 0.47008 0.22420 -0.02900
H 	H 	0.23370 0.44990 0.22660 0.01900
H 	H 	0.25850 0.46960 0.20180 0.02700
H 	H 	0.26500 0.48000 0.19860 0.01200
C 	C 	0.12370 0.58060 0.24970 0.02200
H 	H 	0.13910 0.56740 0.26190 0.01900
O 	O 	0.17075 0.96453 0.62111 -0.48000
O 	O 	0.20972 0.96478 0.66066 -0.47500
C 	C 	0.19718 0.95357 0.63442 0.41600
C 	C 	0.21431 0.92544 0.61715 -0.13600
C 	C 	0.24140 0.90840 0.63230 0.00100
H 	H 	0.25070 0.91760 0.65220 0.02500
C 	C 	0.24800 0.97008 0.72420 -0.08300
H 	H 	0.23370 0.94990 0.72660 0.03100
H 	H 	0.25850 0.96960 0.70180 0.13200
H 	H 	0.26500 0.98000 0.69860 -0.09800
C 	C 	0.12370 0.08060 0.74970 0.02200
H 	H 	0.13910 0.06740 0.76190 0.01800
O 	O 	0.67075 0.46453 0.62111 -0.48600
O 	O 	0.70972 0.46478 0.66066 -0.48000
C 	C 	0.69718 0.45357 0.63442 0.41700
C 	C 	0.71431 0.42544 0.61715 -0.13800
C 	C 	0.74140 0.40840 0.63230 0.00200
H 	H 	0.75070 0.41760 0.65220 0.02500
C 	C 	0.74800 0.47008 0.72420 -0.03000
H 	H 	0.73370 0.44990 0.72660 0.01900
H 	H 	0.75850 0.46960 0.70180 0.02900
H 	H 	0.76500 0.48000 0.69860 0.01100
C 	C 	0.62370 0.58060 0.74970 0.02200
H 	H 	0.63910 0.56740 0.76190 0.01900
O 	O 	0.67075 0.96453 0.12111 -0.48100
O 	O 	0.70972 0.96478 0.16066 -0.47500
C 	C 	0.69718 0.95357 0.13442 0.41700
C 	C 	0.71431 0.92544 0.11715 -0.13700
C 	C 	0.74140 0.90840 0.13230 0.00200
H 	H 	0.75070 0.91760 0.15220 0.02400
C 	C 	0.74800 0.97008 0.22420 -0.08300
H 	H 	0.73370 0.94990 0.22660 0.03100
H 	H 	0.75850 0.96960 0.20180 0.13300
H 	H 	0.76500 0.98000 0.19860 -0.09900
C 	C 	0.62370 0.08060 0.24970 0.02200
H 	H 	0.63910 0.06740 0.26190 0.01800
O 	O 	0.82925 0.12111 0.46453 -0.48700
O 	O 	0.79028 0.16066 0.46478 -0.48000
C 	C 	0.80282 0.13442 0.45357 0.41700
C 	C 	0.78569 0.11715 0.42544 -0.13900
C 	C 	0.75860 0.13230 0.40840 0.00300
H 	H 	0.74930 0.15220 0.41760 0.02500
C 	C 	0.75200 0.22420 0.47008 -0.02900
H 	H 	0.76630 0.22660 0.44990 0.02100
H 	H 	0.74150 0.20180 0.46960 0.02700
H 	H 	0.73500 0.19860 0.48000 0.01200
C 	C 	0.87630 0.24970 0.58060 0.02400
H 	H 	0.86090 0.26190 0.56740 0.01900
O 	O 	0.82925 0.62111 0.96453 -0.47900
O 	O 	0.79028 0.66066 0.96478 -0.47500
C 	C 	0.80282 0.63442 0.95357 0.41600
C 	C 	0.78569 0.61715 0.92544 -0.13600
C 	C 	0.75860 0.63230 0.90840 0.00100
H 	H 	0.74930 0.65220 0.91760 0.02500
C 	C 	0.75200 0.72420 0.97008 -0.08300
H 	H 	0.76630 0.72660 0.94990 0.03200
H 	H 	0.74150 0.70180 0.96960 0.13200
H 	H 	0.73500 0.69860 0.98000 -0.09800
C 	C 	0.87630 0.74970 0.08060 0.02400
H 	H 	0.86090 0.76190 0.06740 0.01900
O 	O 	0.32925 0.12111 0.96453 -0.48100
O 	O 	0.29028 0.16066 0.96478 -0.47500
C 	C 	0.30282 0.13442 0.95357 0.41700
C 	C 	0.28569 0.11715 0.92544 -0.13700
C 	C 	0.25860 0.13230 0.90840 0.00200
H 	H 	0.24930 0.15220 0.91760 0.02400
C 	C 	0.25200 0.22420 0.97008 -0.08200
H 	H 	0.26630 0.22660 0.94990 0.03200
H 	H 	0.24150 0.20180 0.96960 0.13100
H 	H 	0.23500 0.19860 0.98000 -0.09700
C 	C 	0.37630 0.24970 0.08060 0.02200
H 	H 	0.36090 0.26190 0.06740 0.01800
O 	O 	0.32925 0.62111 0.46453 -0.48600
O 	O 	0.29028 0.66066 0.46478 -0.48000
C 	C 	0.30282 0.63442 0.45357 0.41700
C 	C 	0.28569 0.61715 0.42544 -0.13800
C 	C 	0.25860 0.63230 0.40840 0.00300
H 	H 	0.24930 0.65220 0.41760 0.02500
C 	C 	0.25200 0.72420 0.47008 -0.02900
H 	H 	0.26630 0.72660 0.44990 0.02000
H 	H 	0.24150 0.70180 0.46960 0.02700
H 	H 	0.23500 0.69860 0.48000 0.01200
C 	C 	0.37630 0.74970 0.58060 0.02200
H 	H 	0.36090 0.76190 0.56740 0.01900
O 	O 	0.17075 0.87889 0.46453 -0.48500
O 	O 	0.20972 0.83934 0.46478 -0.48000
C 	C 	0.19718 0.86558 0.45357 0.41700
C 	C 	0.21431 0.88285 0.42544 -0.13700
C 	C 	0.24140 0.86770 0.40840 0.00100
H 	H 	0.25070 0.84780 0.41760 0.02600
C 	C 	0.24800 0.77580 0.47008 -0.03000
H 	H 	0.23370 0.77340 0.44990 0.01800
H 	H 	0.25850 0.79820 0.46960 0.02900
H 	H 	0.26500 0.80140 0.48000 0.01000
C 	C 	0.12370 0.75030 0.58060 0.02100
H 	H 	0.13910 0.73810 0.56740 0.01900
O 	O 	0.17075 0.37889 0.96453 -0.48000
O 	O 	0.20972 0.33934 0.96478 -0.47500
C 	C 	0.19718 0.36558 0.95357 0.41600
C 	C 	0.21431 0.38285 0.92544 -0.13600
C 	C 	0.24140 0.36770 0.90840 0.00100
H 	H 	0.25070 0.34780 0.91760 0.02500
C 	C 	0.24800 0.27580 0.97008 -0.08300
H 	H 	0.23370 0.27340 0.94990 0.03000
H 	H 	0.25850 0.29820 0.96960 0.13300
H 	H 	0.26500 0.30140 0.98000 -0.09900
C 	C 	0.12370 0.25030 0.08060 0.02200
H 	H 	0.13910 0.23810 0.06740 0.01800
O 	O 	0.67075 0.87889 0.96453 -0.47800
O 	O 	0.70972 0.83934 0.96478 -0.47400
C 	C 	0.69718 0.86558 0.95357 0.41600
C 	C 	0.71431 0.88285 0.92544 -0.13400
C 	C 	0.74140 0.86770 0.90840 -0.00100
H 	H 	0.75070 0.84780 0.91760 0.02500
C 	C 	0.74800 0.77580 0.97008 -0.08400
H 	H 	0.73370 0.77340 0.94990 0.02900
H 	H 	0.75850 0.79820 0.96960 0.13500
H 	H 	0.76500 0.80140 0.98000 -0.10100
C 	C 	0.62370 0.75030 0.08060 0.02200
H 	H 	0.63910 0.73810 0.06740 0.01800
O 	O 	0.67075 0.37889 0.46453 -0.48600
O 	O 	0.70972 0.33934 0.46478 -0.48000
C 	C 	0.69718 0.36558 0.45357 0.41700
C 	C 	0.71431 0.38285 0.42544 -0.13800
C 	C 	0.74140 0.36770 0.40840 0.00200
H 	H 	0.75070 0.34780 0.41760 0.02500
C 	C 	0.74800 0.27580 0.47008 -0.02900
H 	H 	0.73370 0.27340 0.44990 0.01800
H 	H 	0.75850 0.29820 0.46960 0.02900
H 	H 	0.76500 0.30140 0.48000 0.01000
C 	C 	0.62370 0.25030 0.58060 0.02200
H 	H 	0.63910 0.23810 0.56740 0.01900
O 	O 	0.82925 0.87889 0.53547 -0.48500
O 	O 	0.79028 0.83934 0.53522 -0.48000
C 	C 	0.80282 0.86558 0.54643 0.41700
C 	C 	0.78569 0.88285 0.57456 -0.13600
C 	C 	0.75860 0.86770 0.59160 0.00100
H 	H 	0.74930 0.84780 0.58240 0.02600
C 	C 	0.75200 0.77580 0.52992 -0.03000
H 	H 	0.76630 0.77340 0.55010 0.01900
H 	H 	0.74150 0.79820 0.53040 0.02900
H 	H 	0.73500 0.80140 0.52000 0.01100
C 	C 	0.87630 0.75030 0.41940 0.02300
H 	H 	0.86090 0.73810 0.43260 0.01900
O 	O 	0.82925 0.37889 0.03547 -0.49000
O 	O 	0.79028 0.33934 0.03522 -0.48500
C 	C 	0.80282 0.36558 0.04643 0.41800
C 	C 	0.78569 0.38285 0.07456 -0.14000
C 	C 	0.75860 0.36770 0.09160 0.00300
H 	H 	0.74930 0.34780 0.08240 0.02300
C 	C 	0.75200 0.27580 0.02992 -0.10200
H 	H 	0.76630 0.27340 0.05010 0.03400
H 	H 	0.74150 0.29820 0.03040 0.17100
H 	H 	0.73500 0.30140 0.02000 -0.14200
C 	C 	0.87630 0.25030 0.91940 0.02400
H 	H 	0.86090 0.23810 0.93260 0.02200
O 	O 	0.32925 0.87889 0.03547 -0.48900
O 	O 	0.29028 0.83934 0.03522 -0.48500
C 	C 	0.30282 0.86558 0.04643 0.41800
C 	C 	0.28569 0.88285 0.07456 -0.13900
C 	C 	0.25860 0.86770 0.09160 0.00200
H 	H 	0.24930 0.84780 0.08240 0.02400
C 	C 	0.25200 0.77580 0.02992 -0.10200
H 	H 	0.26630 0.77340 0.05010 0.03300
H 	H 	0.24150 0.79820 0.03040 0.17100
H 	H 	0.23500 0.80140 0.02000 -0.14300
C 	C 	0.37630 0.75030 0.91940 0.02300
H 	H 	0.36090 0.73810 0.93260 0.02200
O 	O 	0.32925 0.37889 0.53547 -0.48600
O 	O 	0.29028 0.33934 0.53522 -0.48000
C 	C 	0.30282 0.36558 0.54643 0.41700
C 	C 	0.28569 0.38285 0.57456 -0.13800
C 	C 	0.25860 0.36770 0.59160 0.00300
H 	H 	0.24930 0.34780 0.58240 0.02500
C 	C 	0.25200 0.27580 0.52992 -0.02900
H 	H 	0.26630 0.27340 0.55010 0.01900
H 	H 	0.24150 0.29820 0.53040 0.02700
H 	H 	0.23500 0.30140 0.52000 0.01200
C 	C 	0.37630 0.25030 0.41940 0.02200
H 	H 	0.36090 0.23810 0.43260 0.01900
O 	O 	0.17075 0.12111 0.53547 -0.48800
O 	O 	0.20972 0.16066 0.53522 -0.48000
C 	C 	0.19718 0.13442 0.54643 0.41800
C 	C 	0.21431 0.11715 0.57456 -0.14000
C 	C 	0.24140 0.13230 0.59160 0.00400
H 	H 	0.25070 0.15220 0.58240 0.02500
C 	C 	0.24800 0.22420 0.52992 -0.02900
H 	H 	0.23370 0.22660 0.55010 0.01900
H 	H 	0.25850 0.20180 0.53040 0.02700
H 	H 	0.26500 0.19860 0.52000 0.01200
C 	C 	0.12370 0.24970 0.41940 0.02200
H 	H 	0.13910 0.26190 0.43260 0.01900
O 	O 	0.17075 0.62111 0.03547 -0.49100
O 	O 	0.20972 0.66066 0.03522 -0.48500
C 	C 	0.19718 0.63442 0.04643 0.41800
C 	C 	0.21431 0.61715 0.07456 -0.14100
C 	C 	0.24140 0.63230 0.09160 0.00300
H 	H 	0.25070 0.65220 0.08240 0.02300
C 	C 	0.24800 0.72420 0.02992 -0.10200
H 	H 	0.23370 0.72660 0.05010 0.03400
H 	H 	0.25850 0.70180 0.03040 0.17100
H 	H 	0.26500 0.69860 0.02000 -0.14300
C 	C 	0.12370 0.74970 0.91940 0.02300
H 	H 	0.13910 0.76190 0.93260 0.02200
O 	O 	0.67075 0.12111 0.03547 -0.49200
O 	O 	0.70972 0.16066 0.03522 -0.48500
C 	C 	0.69718 0.13442 0.04643 0.41900
C 	C 	0.71431 0.11715 0.07456 -0.14200
C 	C 	0.74140 0.13230 0.09160 0.00400
H 	H 	0.75070 0.15220 0.08240 0.02300
C 	C 	0.74800 0.22420 0.02992 -0.10200
H 	H 	0.73370 0.22660 0.05010 0.03300
H 	H 	0.75850 0.20180 0.03040 0.17100
H 	H 	0.76500 0.19860 0.02000 -0.14300
C 	C 	0.62370 0.24970 0.91940 0.02300
H 	H 	0.63910 0.26190 0.93260 0.02200
O 	O 	0.67075 0.62111 0.53547 -0.48600
O 	O 	0.70972 0.66066 0.53522 -0.48000
C 	C 	0.69718 0.63442 0.54643 0.41700
C 	C 	0.71431 0.61715 0.57456 -0.13800
C 	C 	0.74140 0.63230 0.59160 0.00200
H 	H 	0.75070 0.65220 0.58240 0.02500
C 	C 	0.74800 0.72420 0.52992 -0.03000
H 	H 	0.73370 0.72660 0.55010 0.01900
H 	H 	0.75850 0.70180 0.53040 0.02900
H 	H 	0.76500 0.69860 0.52000 0.01100
C 	C 	0.62370 0.74970 0.41940 0.02200
H 	H 	0.63910 0.76190 0.43260 0.01900
O 	O 	0.12111 0.53547 0.17075 -0.48800
O 	O 	0.16066 0.53522 0.20972 -0.48000
C 	C 	0.13442 0.54643 0.19718 0.41800
C 	C 	0.11715 0.57456 0.21431 -0.14000
C 	C 	0.13230 0.59160 0.24140 0.00400
H 	H 	0.15220 0.58240 0.25070 0.02500
C 	C 	0.22420 0.52992 0.24800 -0.02900
H 	H 	0.22660 0.55010 0.23370 0.01900
H 	H 	0.20180 0.53040 0.25850 0.02700
H 	H 	0.19860 0.52000 0.26500 0.01200
C 	C 	0.24970 0.41940 0.12370 0.02200
H 	H 	0.26190 0.43260 0.13910 0.01900
O 	O 	0.12111 0.03547 0.67075 -0.49200
O 	O 	0.16066 0.03522 0.70972 -0.48500
C 	C 	0.13442 0.04643 0.69718 0.41900
C 	C 	0.11715 0.07456 0.71431 -0.14200
C 	C 	0.13230 0.09160 0.74140 0.00400
H 	H 	0.15220 0.08240 0.75070 0.02300
C 	C 	0.22420 0.02992 0.74800 -0.10200
H 	H 	0.22660 0.05010 0.73370 0.03300
H 	H 	0.20180 0.03040 0.75850 0.17100
H 	H 	0.19860 0.02000 0.76500 -0.14300
C 	C 	0.24970 0.91940 0.62370 0.02300
H 	H 	0.26190 0.93260 0.63910 0.02200
O 	O 	0.62111 0.53547 0.67075 -0.48600
O 	O 	0.66066 0.53522 0.70972 -0.48000
C 	C 	0.63442 0.54643 0.69718 0.41700
C 	C 	0.61715 0.57456 0.71431 -0.13800
C 	C 	0.63230 0.59160 0.74140 0.00200
H 	H 	0.65220 0.58240 0.75070 0.02500
C 	C 	0.72420 0.52992 0.74800 -0.03000
H 	H 	0.72660 0.55010 0.73370 0.01900
H 	H 	0.70180 0.53040 0.75850 0.02900
H 	H 	0.69860 0.52000 0.76500 0.01100
C 	C 	0.74970 0.41940 0.62370 0.02200
H 	H 	0.76190 0.43260 0.63910 0.01900
O 	O 	0.62111 0.03547 0.17075 -0.49100
O 	O 	0.66066 0.03522 0.20972 -0.48500
C 	C 	0.63442 0.04643 0.19718 0.41800
C 	C 	0.61715 0.07456 0.21431 -0.14100
C 	C 	0.63230 0.09160 0.24140 0.00300
H 	H 	0.65220 0.08240 0.25070 0.02300
C 	C 	0.72420 0.02992 0.24800 -0.10200
H 	H 	0.72660 0.05010 0.23370 0.03400
H 	H 	0.70180 0.03040 0.25850 0.17100
H 	H 	0.69860 0.02000 0.26500 -0.14300
C 	C 	0.74970 0.91940 0.12370 0.02300
H 	H 	0.76190 0.93260 0.13910 0.02200
O 	O 	0.87889 0.53547 0.82925 -0.48500
O 	O 	0.83934 0.53522 0.79028 -0.48000
C 	C 	0.86558 0.54643 0.80282 0.41700
C 	C 	0.88285 0.57456 0.78569 -0.13600
C 	C 	0.86770 0.59160 0.75860 0.00100
H 	H 	0.84780 0.58240 0.74930 0.02600
C 	C 	0.77580 0.52992 0.75200 -0.03000
H 	H 	0.77340 0.55010 0.76630 0.01900
H 	H 	0.79820 0.53040 0.74150 0.02900
H 	H 	0.80140 0.52000 0.73500 0.01100
C 	C 	0.75030 0.41940 0.87630 0.02300
H 	H 	0.73810 0.43260 0.86090 0.01900
O 	O 	0.87889 0.03547 0.32925 -0.48900
O 	O 	0.83934 0.03522 0.29028 -0.48500
C 	C 	0.86558 0.04643 0.30282 0.41800
C 	C 	0.88285 0.07456 0.28569 -0.13900
C 	C 	0.86770 0.09160 0.25860 0.00200
H 	H 	0.84780 0.08240 0.24930 0.02400
C 	C 	0.77580 0.02992 0.25200 -0.10200
H 	H 	0.77340 0.05010 0.26630 0.03300
H 	H 	0.79820 0.03040 0.24150 0.17100
H 	H 	0.80140 0.02000 0.23500 -0.14300
C 	C 	0.75030 0.91940 0.37630 0.02300
H 	H 	0.73810 0.93260 0.36090 0.02200
O 	O 	0.37889 0.53547 0.32925 -0.48600
O 	O 	0.33934 0.53522 0.29028 -0.48000
C 	C 	0.36558 0.54643 0.30282 0.41700
C 	C 	0.38285 0.57456 0.28569 -0.13800
C 	C 	0.36770 0.59160 0.25860 0.00300
H 	H 	0.34780 0.58240 0.24930 0.02500
C 	C 	0.27580 0.52992 0.25200 -0.02900
H 	H 	0.27340 0.55010 0.26630 0.01900
H 	H 	0.29820 0.53040 0.24150 0.02700
H 	H 	0.30140 0.52000 0.23500 0.01200
C 	C 	0.25030 0.41940 0.37630 0.02200
H 	H 	0.23810 0.43260 0.36090 0.01900
O 	O 	0.37889 0.03547 0.82925 -0.49000
O 	O 	0.33934 0.03522 0.79028 -0.48500
C 	C 	0.36558 0.04643 0.80282 0.41800
C 	C 	0.38285 0.07456 0.78569 -0.14000
C 	C 	0.36770 0.09160 0.75860 0.00300
H 	H 	0.34780 0.08240 0.74930 0.02300
C 	C 	0.27580 0.02992 0.75200 -0.10200
H 	H 	0.27340 0.05010 0.76630 0.03400
H 	H 	0.29820 0.03040 0.74150 0.17100
H 	H 	0.30140 0.02000 0.73500 -0.14200
C 	C 	0.25030 0.91940 0.87630 0.02400
H 	H 	0.23810 0.93260 0.86090 0.02200
O 	O 	0.87889 0.46453 0.17075 -0.48500
O 	O 	0.83934 0.46478 0.20972 -0.48000
C 	C 	0.86558 0.45357 0.19718 0.41700
C 	C 	0.88285 0.42544 0.21431 -0.13700
C 	C 	0.86770 0.40840 0.24140 0.00100
H 	H 	0.84780 0.41760 0.25070 0.02600
C 	C 	0.77580 0.47008 0.24800 -0.03000
H 	H 	0.77340 0.44990 0.23370 0.01800
H 	H 	0.79820 0.46960 0.25850 0.02900
H 	H 	0.80140 0.48000 0.26500 0.01000
C 	C 	0.75030 0.58060 0.12370 0.02100
H 	H 	0.73810 0.56740 0.13910 0.01900
O 	O 	0.87889 0.96453 0.67075 -0.47800
O 	O 	0.83934 0.96478 0.70972 -0.47400
C 	C 	0.86558 0.95357 0.69718 0.41600
C 	C 	0.88285 0.92544 0.71431 -0.13400
C 	C 	0.86770 0.90840 0.74140 -0.00100
H 	H 	0.84780 0.91760 0.75070 0.02500
C 	C 	0.77580 0.97008 0.74800 -0.08400
H 	H 	0.77340 0.94990 0.73370 0.02900
H 	H 	0.79820 0.96960 0.75850 0.13500
H 	H 	0.80140 0.98000 0.76500 -0.10100
C 	C 	0.75030 0.08060 0.62370 0.02200
H 	H 	0.73810 0.06740 0.63910 0.01800
O 	O 	0.37889 0.46453 0.67075 -0.48600
O 	O 	0.33934 0.46478 0.70972 -0.48000
C 	C 	0.36558 0.45357 0.69718 0.41700
C 	C 	0.38285 0.42544 0.71431 -0.13800
C 	C 	0.36770 0.40840 0.74140 0.00200
H 	H 	0.34780 0.41760 0.75070 0.02500
C 	C 	0.27580 0.47008 0.74800 -0.02900
H 	H 	0.27340 0.44990 0.73370 0.01800
H 	H 	0.29820 0.46960 0.75850 0.02900
H 	H 	0.30140 0.48000 0.76500 0.01000
C 	C 	0.25030 0.58060 0.62370 0.02200
H 	H 	0.23810 0.56740 0.63910 0.01900
O 	O 	0.37889 0.96453 0.17075 -0.48000
O 	O 	0.33934 0.96478 0.20972 -0.47500
C 	C 	0.36558 0.95357 0.19718 0.41600
C 	C 	0.38285 0.92544 0.21431 -0.13600
C 	C 	0.36770 0.90840 0.24140 0.00100
H 	H 	0.34780 0.91760 0.25070 0.02500
C 	C 	0.27580 0.97008 0.24800 -0.08300
H 	H 	0.27340 0.94990 0.23370 0.03000
H 	H 	0.29820 0.96960 0.25850 0.13300
H 	H 	0.30140 0.98000 0.26500 -0.09900
C 	C 	0.25030 0.08060 0.12370 0.02200
H 	H 	0.23810 0.06740 0.13910 0.01800
O 	O 	0.12111 0.46453 0.82925 -0.48700
O 	O 	0.16066 0.46478 0.79028 -0.48000
C 	C 	0.13442 0.45357 0.80282 0.41700
C 	C 	0.11715 0.42544 0.78569 -0.13900
C 	C 	0.13230 0.40840 0.75860 0.00300
H 	H 	0.15220 0.41760 0.74930 0.02500
C 	C 	0.22420 0.47008 0.75200 -0.02900
H 	H 	0.22660 0.44990 0.76630 0.02100
H 	H 	0.20180 0.46960 0.74150 0.02700
H 	H 	0.19860 0.48000 0.73500 0.01200
C 	C 	0.24970 0.58060 0.87630 0.02400
H 	H 	0.26190 0.56740 0.86090 0.01900
O 	O 	0.12111 0.96453 0.32925 -0.48100
O 	O 	0.16066 0.96478 0.29028 -0.47500
C 	C 	0.13442 0.95357 0.30282 0.41700
C 	C 	0.11715 0.92544 0.28569 -0.13700
C 	C 	0.13230 0.90840 0.25860 0.00200
H 	H 	0.15220 0.91760 0.24930 0.02400
C 	C 	0.22420 0.97008 0.25200 -0.08200
H 	H 	0.22660 0.94990 0.26630 0.03200
H 	H 	0.20180 0.96960 0.24150 0.13100
H 	H 	0.19860 0.98000 0.23500 -0.09700
C 	C 	0.24970 0.08060 0.37630 0.02200
H 	H 	0.26190 0.06740 0.36090 0.01800
O 	O 	0.62111 0.46453 0.32925 -0.48600
O 	O 	0.66066 0.46478 0.29028 -0.48000
C 	C 	0.63442 0.45357 0.30282 0.41700
C 	C 	0.61715 0.42544 0.28569 -0.13800
C 	C 	0.63230 0.40840 0.25860 0.00300
H 	H 	0.65220 0.41760 0.24930 0.02500
C 	C 	0.72420 0.47008 0.25200 -0.02900
H 	H 	0.72660 0.44990 0.26630 0.02000
H 	H 	0.70180 0.46960 0.24150 0.02700
H 	H 	0.69860 0.48000 0.23500 0.01200
C 	C 	0.74970 0.58060 0.37630 0.02200
H 	H 	0.76190 0.56740 0.36090 0.01900
O 	O 	0.62111 0.96453 0.82925 -0.47900
O 	O 	0.66066 0.96478 0.79028 -0.47500
C 	C 	0.63442 0.95357 0.80282 0.41600
C 	C 	0.61715 0.92544 0.78569 -0.13600
C 	C 	0.63230 0.90840 0.75860 0.00100
H 	H 	0.65220 0.91760 0.74930 0.02500
C 	C 	0.72420 0.97008 0.75200 -0.08300
H 	H 	0.72660 0.94990 0.76630 0.03200
H 	H 	0.70180 0.96960 0.74150 0.13200
H 	H 	0.69860 0.98000 0.73500 -0.09800
C 	C 	0.74970 0.08060 0.87630 0.02400
H 	H 	0.76190 0.06740 0.86090 0.01900
O 	O 	0.53547 0.82925 0.87889 -0.48500
O 	O 	0.53522 0.79028 0.83934 -0.48000
C 	C 	0.54643 0.80282 0.86558 0.41700
C 	C 	0.57456 0.78569 0.88285 -0.13600
C 	C 	0.59160 0.75860 0.86770 0.00100
H 	H 	0.58240 0.74930 0.84780 0.02600
C 	C 	0.52992 0.75200 0.77580 -0.03000
H 	H 	0.55010 0.76630 0.77340 0.01900
H 	H 	0.53040 0.74150 0.79820 0.02900
H 	H 	0.52000 0.73500 0.80140 0.01100
C 	C 	0.41940 0.87630 0.75030 0.02300
H 	H 	0.43260 0.86090 0.73810 0.01900
O 	O 	0.53547 0.32925 0.37889 -0.48600
O 	O 	0.53522 0.29028 0.33934 -0.48000
C 	C 	0.54643 0.30282 0.36558 0.41700
C 	C 	0.57456 0.28569 0.38285 -0.13800
C 	C 	0.59160 0.25860 0.36770 0.00300
H 	H 	0.58240 0.24930 0.34780 0.02500
C 	C 	0.52992 0.25200 0.27580 -0.02900
H 	H 	0.55010 0.26630 0.27340 0.01900
H 	H 	0.53040 0.24150 0.29820 0.02700
H 	H 	0.52000 0.23500 0.30140 0.01200
C 	C 	0.41940 0.37630 0.25030 0.02200
H 	H 	0.43260 0.36090 0.23810 0.01900
O 	O 	0.03547 0.82925 0.37889 -0.49000
O 	O 	0.03522 0.79028 0.33934 -0.48500
C 	C 	0.04643 0.80282 0.36558 0.41800
C 	C 	0.07456 0.78569 0.38285 -0.14000
C 	C 	0.09160 0.75860 0.36770 0.00300
H 	H 	0.08240 0.74930 0.34780 0.02300
C 	C 	0.02992 0.75200 0.27580 -0.10200
H 	H 	0.05010 0.76630 0.27340 0.03400
H 	H 	0.03040 0.74150 0.29820 0.17100
H 	H 	0.02000 0.73500 0.30140 -0.14200
C 	C 	0.91940 0.87630 0.25030 0.02400
H 	H 	0.93260 0.86090 0.23810 0.02200
O 	O 	0.03547 0.32925 0.87889 -0.48900
O 	O 	0.03522 0.29028 0.83934 -0.48500
C 	C 	0.04643 0.30282 0.86558 0.41800
C 	C 	0.07456 0.28569 0.88285 -0.13900
C 	C 	0.09160 0.25860 0.86770 0.00200
H 	H 	0.08240 0.24930 0.84780 0.02400
C 	C 	0.02992 0.25200 0.77580 -0.10200
H 	H 	0.05010 0.26630 0.77340 0.03300
H 	H 	0.03040 0.24150 0.79820 0.17100
H 	H 	0.02000 0.23500 0.80140 -0.14300
C 	C 	0.91940 0.37630 0.75030 0.02300
H 	H 	0.93260 0.36090 0.73810 0.02200
O 	O 	0.53547 0.17075 0.12111 -0.48800
O 	O 	0.53522 0.20972 0.16066 -0.48000
C 	C 	0.54643 0.19718 0.13442 0.41800
C 	C 	0.57456 0.21431 0.11715 -0.14000
C 	C 	0.59160 0.24140 0.13230 0.00400
H 	H 	0.58240 0.25070 0.15220 0.02500
C 	C 	0.52992 0.24800 0.22420 -0.02900
H 	H 	0.55010 0.23370 0.22660 0.01900
H 	H 	0.53040 0.25850 0.20180 0.02700
H 	H 	0.52000 0.26500 0.19860 0.01200
C 	C 	0.41940 0.12370 0.24970 0.02200
H 	H 	0.43260 0.13910 0.26190 0.01900
O 	O 	0.53547 0.67075 0.62111 -0.48600
O 	O 	0.53522 0.70972 0.66066 -0.48000
C 	C 	0.54643 0.69718 0.63442 0.41700
C 	C 	0.57456 0.71431 0.61715 -0.13800
C 	C 	0.59160 0.74140 0.63230 0.00200
H 	H 	0.58240 0.75070 0.65220 0.02500
C 	C 	0.52992 0.74800 0.72420 -0.03000
H 	H 	0.55010 0.73370 0.72660 0.01900
H 	H 	0.53040 0.75850 0.70180 0.02900
H 	H 	0.52000 0.76500 0.69860 0.01100
C 	C 	0.41940 0.62370 0.74970 0.02200
H 	H 	0.43260 0.63910 0.76190 0.01900
O 	O 	0.03547 0.17075 0.62111 -0.49100
O 	O 	0.03522 0.20972 0.66066 -0.48500
C 	C 	0.04643 0.19718 0.63442 0.41800
C 	C 	0.07456 0.21431 0.61715 -0.14100
C 	C 	0.09160 0.24140 0.63230 0.00300
H 	H 	0.08240 0.25070 0.65220 0.02300
C 	C 	0.02992 0.24800 0.72420 -0.10200
H 	H 	0.05010 0.23370 0.72660 0.03400
H 	H 	0.03040 0.25850 0.70180 0.17100
H 	H 	0.02000 0.26500 0.69860 -0.14300
C 	C 	0.91940 0.12370 0.74970 0.02300
H 	H 	0.93260 0.13910 0.76190 0.02200
O 	O 	0.03547 0.67075 0.12111 -0.49200
O 	O 	0.03522 0.70972 0.16066 -0.48500
C 	C 	0.04643 0.69718 0.13442 0.41900
C 	C 	0.07456 0.71431 0.11715 -0.14200
C 	C 	0.09160 0.74140 0.13230 0.00400
H 	H 	0.08240 0.75070 0.15220 0.02300
C 	C 	0.02992 0.74800 0.22420 -0.10200
H 	H 	0.05010 0.73370 0.22660 0.03300
H 	H 	0.03040 0.75850 0.20180 0.17100
H 	H 	0.02000 0.76500 0.19860 -0.14300
C 	C 	0.91940 0.62370 0.24970 0.02300
H 	H 	0.93260 0.63910 0.26190 0.02200
O 	O 	0.46453 0.82925 0.12111 -0.48700
O 	O 	0.46478 0.79028 0.16066 -0.48000
C 	C 	0.45357 0.80282 0.13442 0.41700
C 	C 	0.42544 0.78569 0.11715 -0.13900
C 	C 	0.40840 0.75860 0.13230 0.00300
H 	H 	0.41760 0.74930 0.15220 0.02500
C 	C 	0.47008 0.75200 0.22420 -0.02900
H 	H 	0.44990 0.76630 0.22660 0.02100
H 	H 	0.46960 0.74150 0.20180 0.02700
H 	H 	0.48000 0.73500 0.19860 0.01200
C 	C 	0.58060 0.87630 0.24970 0.02400
H 	H 	0.56740 0.86090 0.26190 0.01900
O 	O 	0.46453 0.32925 0.62111 -0.48600
O 	O 	0.46478 0.29028 0.66066 -0.48000
C 	C 	0.45357 0.30282 0.63442 0.41700
C 	C 	0.42544 0.28569 0.61715 -0.13800
C 	C 	0.40840 0.25860 0.63230 0.00300
H 	H 	0.41760 0.24930 0.65220 0.02500
C 	C 	0.47008 0.25200 0.72420 -0.02900
H 	H 	0.44990 0.26630 0.72660 0.02000
H 	H 	0.46960 0.24150 0.70180 0.02700
H 	H 	0.48000 0.23500 0.69860 0.01200
C 	C 	0.58060 0.37630 0.74970 0.02200
H 	H 	0.56740 0.36090 0.76190 0.01900
O 	O 	0.96453 0.82925 0.62111 -0.47900
O 	O 	0.96478 0.79028 0.66066 -0.47500
C 	C 	0.95357 0.80282 0.63442 0.41600
C 	C 	0.92544 0.78569 0.61715 -0.13600
C 	C 	0.90840 0.75860 0.63230 0.00100
H 	H 	0.91760 0.74930 0.65220 0.02500
C 	C 	0.97008 0.75200 0.72420 -0.08300
H 	H 	0.94990 0.76630 0.72660 0.03200
H 	H 	0.96960 0.74150 0.70180 0.13200
H 	H 	0.98000 0.73500 0.69860 -0.09800
C 	C 	0.08060 0.87630 0.74970 0.02400
H 	H 	0.06740 0.86090 0.76190 0.01900
O 	O 	0.96453 0.32925 0.12111 -0.48100
O 	O 	0.96478 0.29028 0.16066 -0.47500
C 	C 	0.95357 0.30282 0.13442 0.41700
C 	C 	0.92544 0.28569 0.11715 -0.13700
C 	C 	0.90840 0.25860 0.13230 0.00200
H 	H 	0.91760 0.24930 0.15220 0.02400
C 	C 	0.97008 0.25200 0.22420 -0.08200
H 	H 	0.94990 0.26630 0.22660 0.03200
H 	H 	0.96960 0.24150 0.20180 0.13100
H 	H 	0.98000 0.23500 0.19860 -0.09700
C 	C 	0.08060 0.37630 0.24970 0.02200
H 	H 	0.06740 0.36090 0.26190 0.01800
O 	O 	0.46453 0.17075 0.87889 -0.48500
O 	O 	0.46478 0.20972 0.83934 -0.48000
C 	C 	0.45357 0.19718 0.86558 0.41700
C 	C 	0.42544 0.21431 0.88285 -0.13700
C 	C 	0.40840 0.24140 0.86770 0.00100
H 	H 	0.41760 0.25070 0.84780 0.02600
C 	C 	0.47008 0.24800 0.77580 -0.03000
H 	H 	0.44990 0.23370 0.77340 0.01800
H 	H 	0.46960 0.25850 0.79820 0.02900
H 	H 	0.48000 0.26500 0.80140 0.01000
C 	C 	0.58060 0.12370 0.75030 0.02100
H 	H 	0.56740 0.13910 0.73810 0.01900
O 	O 	0.46453 0.67075 0.37889 -0.48600
O 	O 	0.46478 0.70972 0.33934 -0.48000
C 	C 	0.45357 0.69718 0.36558 0.41700
C 	C 	0.42544 0.71431 0.38285 -0.13800
C 	C 	0.40840 0.74140 0.36770 0.00200
H 	H 	0.41760 0.75070 0.34780 0.02500
C 	C 	0.47008 0.74800 0.27580 -0.02900
H 	H 	0.44990 0.73370 0.27340 0.01800
H 	H 	0.46960 0.75850 0.29820 0.02900
H 	H 	0.48000 0.76500 0.30140 0.01000
C 	C 	0.58060 0.62370 0.25030 0.02200
H 	H 	0.56740 0.63910 0.23810 0.01900
O 	O 	0.96453 0.17075 0.37889 -0.48000
O 	O 	0.96478 0.20972 0.33934 -0.47500
C 	C 	0.95357 0.19718 0.36558 0.41600
C 	C 	0.92544 0.21431 0.38285 -0.13600
C 	C 	0.90840 0.24140 0.36770 0.00100
H 	H 	0.91760 0.25070 0.34780 0.02500
C 	C 	0.97008 0.24800 0.27580 -0.08300
H 	H 	0.94990 0.23370 0.27340 0.03000
H 	H 	0.96960 0.25850 0.29820 0.13300
H 	H 	0.98000 0.26500 0.30140 -0.09900
C 	C 	0.08060 0.12370 0.25030 0.02200
H 	H 	0.06740 0.13910 0.23810 0.01800
O 	O 	0.96453 0.67075 0.87889 -0.47800
O 	O 	0.96478 0.70972 0.83934 -0.47400
C 	C 	0.95357 0.69718 0.86558 0.41600
C 	C 	0.92544 0.71431 0.88285 -0.13400
C 	C 	0.90840 0.74140 0.86770 -0.00100
H 	H 	0.91760 0.75070 0.84780 0.02500
C 	C 	0.97008 0.74800 0.77580 -0.08400
H 	H 	0.94990 0.73370 0.77340 0.02900
H 	H 	0.96960 0.75850 0.79820 0.13500
H 	H 	0.98000 0.76500 0.80140 -0.10100
C 	C 	0.08060 0.62370 0.75030 0.02200
H 	H 	0.06740 0.63910 0.73810 0.01800
Zn	Zn	0.86079 0.13921 0.50000 1.19600
Zn	Zn	0.80872 0.19128 0.50000 1.22200
N 	N 	0.77241 0.22759 0.50000 -0.19300
Zn	Zn	0.86079 0.63921 -0.00000 1.19200
Zn	Zn	0.80872 0.69128 -0.00000 1.21700
N 	N 	0.77241 0.72759 -0.00000 -0.19700
Zn	Zn	0.36079 0.13921 -0.00000 1.19100
Zn	Zn	0.30872 0.19128 -0.00000 1.21700
N 	N 	0.27241 0.22759 -0.00000 -0.19700
Zn	Zn	0.36079 0.63921 0.50000 1.19600
Zn	Zn	0.30872 0.69128 0.50000 1.22200
N 	N 	0.27241 0.72759 0.50000 -0.19300
Zn	Zn	0.13921 0.86079 0.50000 1.19600
Zn	Zn	0.19128 0.80872 0.50000 1.22200
N 	N 	0.22759 0.77241 0.50000 -0.19300
Zn	Zn	0.13921 0.36079 -0.00000 1.19100
Zn	Zn	0.19128 0.30872 -0.00000 1.21700
N 	N 	0.22759 0.27241 -0.00000 -0.19700
Zn	Zn	0.63921 0.86079 -0.00000 1.19200
Zn	Zn	0.69128 0.80872 -0.00000 1.21700
N 	N 	0.72759 0.77241 -0.00000 -0.19700
Zn	Zn	0.63921 0.36079 0.50000 1.19600
Zn	Zn	0.69128 0.30872 0.50000 1.22200
N 	N 	0.72759 0.27241 0.50000 -0.19300
Zn	Zn	0.13921 0.13921 0.50000 1.19500
Zn	Zn	0.19128 0.19128 0.50000 1.22200
N 	N 	0.22759 0.22759 0.50000 -0.19300
Zn	Zn	0.13921 0.63921 -0.00000 1.19100
Zn	Zn	0.19128 0.69128 -0.00000 1.21700
N 	N 	0.22759 0.72759 -0.00000 -0.19700
Zn	Zn	0.63921 0.13921 -0.00000 1.19100
Zn	Zn	0.69128 0.19128 -0.00000 1.21700
N 	N 	0.72759 0.22759 -0.00000 -0.19700
Zn	Zn	0.63921 0.63921 0.50000 1.19600
Zn	Zn	0.69128 0.69128 0.50000 1.22200
N 	N 	0.72759 0.72759 0.50000 -0.19300
Zn	Zn	0.86079 0.86079 0.50000 1.19700
Zn	Zn	0.80872 0.80872 0.50000 1.22200
N 	N 	0.77241 0.77241 0.50000 -0.19300
Zn	Zn	0.86079 0.36079 -0.00000 1.19200
Zn	Zn	0.80872 0.30872 -0.00000 1.21700
N 	N 	0.77241 0.27241 -0.00000 -0.19700
Zn	Zn	0.36079 0.86079 -0.00000 1.19200
Zn	Zn	0.30872 0.80872 -0.00000 1.21700
N 	N 	0.27241 0.77241 -0.00000 -0.19700
Zn	Zn	0.36079 0.36079 0.50000 1.19600
Zn	Zn	0.30872 0.30872 0.50000 1.22200
N 	N 	0.27241 0.27241 0.50000 -0.19300
Zn	Zn	0.50000 0.86079 0.13921 1.19600
Zn	Zn	0.50000 0.80872 0.19128 1.22200
N 	N 	0.50000 0.77241 0.22759 -0.19300
Zn	Zn	0.50000 0.36079 0.63921 1.19600
Zn	Zn	0.50000 0.30872 0.69128 1.22200
N 	N 	0.50000 0.27241 0.72759 -0.19300
Zn	Zn	0.00000 0.86079 0.63921 1.19200
Zn	Zn	0.00000 0.80872 0.69128 1.21700
N 	N 	0.00000 0.77241 0.72759 -0.19700
Zn	Zn	-0.00000 0.36079 0.13921 1.19100
Zn	Zn	-0.00000 0.30872 0.19128 1.21700
N 	N 	-0.00000 0.27241 0.22759 -0.19700
Zn	Zn	0.50000 0.13921 0.86079 1.19600
Zn	Zn	0.50000 0.19128 0.80872 1.22200
N 	N 	0.50000 0.22759 0.77241 -0.19300
Zn	Zn	0.50000 0.63921 0.36079 1.19600
Zn	Zn	0.50000 0.69128 0.30872 1.22200
N 	N 	0.50000 0.72759 0.27241 -0.19300
Zn	Zn	-0.00000 0.13921 0.36079 1.19100
Zn	Zn	-0.00000 0.19128 0.30872 1.21700
N 	N 	0.00000 0.22759 0.27241 -0.19700
Zn	Zn	0.00000 0.63921 0.86079 1.19200
Zn	Zn	0.00000 0.69128 0.80872 1.21700
N 	N 	0.00000 0.72759 0.77241 -0.19700
Zn	Zn	0.50000 0.13921 0.13921 1.19500
Zn	Zn	0.50000 0.19128 0.19128 1.22200
N 	N 	0.50000 0.22759 0.22759 -0.19300
Zn	Zn	0.50000 0.63921 0.63921 1.19600
Zn	Zn	0.50000 0.69128 0.69128 1.22200
N 	N 	0.50000 0.72759 0.72759 -0.19300
Zn	Zn	-0.00000 0.13921 0.63921 1.19100
Zn	Zn	-0.00000 0.19128 0.69128 1.21700
N 	N 	-0.00000 0.22759 0.72759 -0.19700
Zn	Zn	-0.00000 0.63921 0.13921 1.19100
Zn	Zn	-0.00000 0.69128 0.19128 1.21700
N 	N 	-0.00000 0.72759 0.22759 -0.19700
Zn	Zn	0.50000 0.86079 0.86079 1.19700
Zn	Zn	0.50000 0.80872 0.80872 1.22200
N 	N 	0.50000 0.77241 0.77241 -0.19300
Zn	Zn	0.50000 0.36079 0.36079 1.19600
Zn	Zn	0.50000 0.30872 0.30872 1.22200
N 	N 	0.50000 0.27241 0.27241 -0.19300
Zn	Zn	-0.00000 0.86079 0.36079 1.19200
Zn	Zn	0.00000 0.80872 0.30872 1.21700
N 	N 	-0.00000 0.77241 0.27241 -0.19700
Zn	Zn	-0.00000 0.36079 0.86079 1.19200
Zn	Zn	0.00000 0.30872 0.80872 1.21700
N 	N 	-0.00000 0.27241 0.77241 -0.19700
Zn	Zn	0.13921 0.50000 0.86079 1.19600
Zn	Zn	0.19128 0.50000 0.80872 1.22200
N 	N 	0.22759 0.50000 0.77241 -0.19300
Zn	Zn	0.13921 0.00000 0.36079 1.19100
Zn	Zn	0.19128 0.00000 0.30872 1.21700
N 	N 	0.22759 0.00000 0.27241 -0.19700
Zn	Zn	0.63921 0.50000 0.36079 1.19600
Zn	Zn	0.69128 0.50000 0.30872 1.22200
N 	N 	0.72759 0.50000 0.27241 -0.19300
Zn	Zn	0.63921 0.00000 0.86079 1.19200
Zn	Zn	0.69128 0.00000 0.80872 1.21700
N 	N 	0.72759 -0.00000 0.77241 -0.19700
Zn	Zn	0.86079 0.50000 0.13921 1.19600
Zn	Zn	0.80872 0.50000 0.19128 1.22200
N 	N 	0.77241 0.50000 0.22759 -0.19300
Zn	Zn	0.86079 0.00000 0.63921 1.19200
Zn	Zn	0.80872 0.00000 0.69128 1.21700
N 	N 	0.77241 0.00000 0.72759 -0.19700
Zn	Zn	0.36079 0.50000 0.63921 1.19600
Zn	Zn	0.30872 0.50000 0.69128 1.22200
N 	N 	0.27241 0.50000 0.72759 -0.19300
Zn	Zn	0.36079 0.00000 0.13921 1.19100
Zn	Zn	0.30872 0.00000 0.19128 1.21700
N 	N 	0.27241 0.00000 0.22759 -0.19700
Zn	Zn	0.13921 0.50000 0.13921 1.19500
Zn	Zn	0.19128 0.50000 0.19128 1.22200
N 	N 	0.22759 0.50000 0.22759 -0.19300
Zn	Zn	0.13921 0.00000 0.63921 1.19100
Zn	Zn	0.19128 0.00000 0.69128 1.21700
N 	N 	0.22759 0.00000 0.72759 -0.19700
Zn	Zn	0.63921 0.50000 0.63921 1.19600
Zn	Zn	0.69128 0.50000 0.69128 1.22200
N 	N 	0.72759 0.50000 0.72759 -0.19300
Zn	Zn	0.63921 0.00000 0.13921 1.19100
Zn	Zn	0.69128 0.00000 0.19128 1.21700
N 	N 	0.72759 0.00000 0.22759 -0.19700
Zn	Zn	0.86079 0.50000 0.86079 1.19700
Zn	Zn	0.80872 0.50000 0.80872 1.22200
N 	N 	0.77241 0.50000 0.77241 -0.19300
Zn	Zn	0.86079 0.00000 0.36079 1.19200
Zn	Zn	0.80872 0.00000 0.30872 1.21700
N 	N 	0.77241 0.00000 0.27241 -0.19700
Zn	Zn	0.36079 0.50000 0.36079 1.19600
Zn	Zn	0.30872 0.50000 0.30872 1.22200
N 	N 	0.27241 0.50000 0.27241 -0.19300
Zn	Zn	0.36079 0.00000 0.86079 1.19200
Zn	Zn	0.30872 0.00000 0.80872 1.21700
N 	N 	0.27241 -0.00000 0.77241 -0.19700
C 	C 	0.90995 0.19979 0.40995 0.07900
H 	H 	0.91820 0.17910 0.41820 0.02600
C 	C 	0.87990 0.25480 0.37990 -0.01600
H 	H 	0.86890 0.27280 0.36890 0.02500
C 	C 	0.90995 0.69979 0.90995 0.07800
H 	H 	0.91820 0.67910 0.91820 0.02800
C 	C 	0.87990 0.75480 0.87990 -0.02000
H 	H 	0.86890 0.77280 0.86890 0.02700
C 	C 	0.40995 0.69979 0.40995 0.08000
H 	H 	0.41820 0.67910 0.41820 0.02400
C 	C 	0.37990 0.75480 0.37990 -0.01300
H 	H 	0.36890 0.77280 0.36890 0.02400
C 	C 	0.09005 0.80021 0.40995 0.08000
H 	H 	0.08180 0.82090 0.41820 0.02300
C 	C 	0.12010 0.74520 0.37990 -0.01100
H 	H 	0.13110 0.72720 0.36890 0.02300
C 	C 	0.09005 0.30021 0.90995 0.08000
H 	H 	0.08180 0.32090 0.91820 0.02400
C 	C 	0.12010 0.24520 0.87990 -0.01400
H 	H 	0.13110 0.22720 0.86890 0.02400
C 	C 	0.09005 0.19979 0.59005 0.08100
H 	H 	0.08180 0.17910 0.58180 0.02300
C 	C 	0.12010 0.25480 0.62010 -0.01100
H 	H 	0.13110 0.27280 0.63110 0.02300
C 	C 	0.09005 0.69979 0.09005 0.08200
H 	H 	0.08180 0.67910 0.08180 0.02100
C 	C 	0.12010 0.75480 0.12010 -0.01000
H 	H 	0.13110 0.77280 0.13110 0.02200
C 	C 	0.90995 0.80021 0.59005 0.07900
H 	H 	0.91820 0.82090 0.58180 0.02600
C 	C 	0.87990 0.74520 0.62010 -0.01600
H 	H 	0.86890 0.72720 0.63110 0.02500
C 	C 	0.90995 0.30021 0.09005 0.08000
H 	H 	0.91820 0.32090 0.08180 0.02400
C 	C 	0.87990 0.24520 0.12010 -0.01400
H 	H 	0.86890 0.22720 0.13110 0.02400
C 	C 	0.40995 0.80021 0.09005 0.08000
H 	H 	0.41820 0.82090 0.08180 0.02300
C 	C 	0.37990 0.74520 0.12010 -0.01100
H 	H 	0.36890 0.72720 0.13110 0.02300
C 	C 	0.40995 0.90995 0.19979 0.07900
H 	H 	0.41820 0.91820 0.17910 0.02600
C 	C 	0.37990 0.87990 0.25480 -0.01600
H 	H 	0.36890 0.86890 0.27280 0.02500
C 	C 	0.40995 0.40995 0.69979 0.08000
H 	H 	0.41820 0.41820 0.67910 0.02400
C 	C 	0.37990 0.37990 0.75480 -0.01300
H 	H 	0.36890 0.36890 0.77280 0.02400
C 	C 	0.40995 0.09005 0.80021 0.08000
H 	H 	0.41820 0.08180 0.82090 0.02300
C 	C 	0.37990 0.12010 0.74520 -0.01100
H 	H 	0.36890 0.13110 0.72720 0.02300
C 	C 	0.40995 0.59005 0.30021 0.08000
H 	H 	0.41820 0.58180 0.32090 0.02400
C 	C 	0.37990 0.62010 0.24520 -0.01200
H 	H 	0.36890 0.63110 0.22720 0.02300
C 	C 	0.59005 0.09005 0.19979 0.08100
H 	H 	0.58180 0.08180 0.17910 0.02300
C 	C 	0.62010 0.12010 0.25480 -0.01100
H 	H 	0.63110 0.13110 0.27280 0.02300
C 	C 	0.59005 0.59005 0.69979 0.08000
H 	H 	0.58180 0.58180 0.67910 0.02400
C 	C 	0.62010 0.62010 0.75480 -0.01300
H 	H 	0.63110 0.63110 0.77280 0.02400
C 	C 	0.09005 0.09005 0.69979 0.08200
H 	H 	0.08180 0.08180 0.67910 0.02100
C 	C 	0.12010 0.12010 0.75480 -0.01000
H 	H 	0.13110 0.13110 0.77280 0.02200
C 	C 	0.59005 0.90995 0.80021 0.07900
H 	H 	0.58180 0.91820 0.82090 0.02600
C 	C 	0.62010 0.87990 0.74520 -0.01600
H 	H 	0.63110 0.86890 0.72720 0.02500
C 	C 	0.59005 0.40995 0.30021 0.08000
H 	H 	0.58180 0.41820 0.32090 0.02400
C 	C 	0.62010 0.37990 0.24520 -0.01200
H 	H 	0.63110 0.36890 0.22720 0.02300
C 	C 	0.09005 0.40995 0.80021 0.08000
H 	H 	0.08180 0.41820 0.82090 0.02300
C 	C 	0.12010 0.37990 0.74520 -0.01100
H 	H 	0.13110 0.36890 0.72720 0.02300
C 	C 	0.19979 0.40995 0.90995 0.07900
H 	H 	0.17910 0.41820 0.91820 0.02600
C 	C 	0.25480 0.37990 0.87990 -0.01600
H 	H 	0.27280 0.36890 0.86890 0.02500
C 	C 	0.69979 0.40995 0.40995 0.08000
H 	H 	0.67910 0.41820 0.41820 0.02400
C 	C 	0.75480 0.37990 0.37990 -0.01300
H 	H 	0.77280 0.36890 0.36890 0.02400
C 	C 	0.80021 0.40995 0.09005 0.08000
H 	H 	0.82090 0.41820 0.08180 0.02300
C 	C 	0.74520 0.37990 0.12010 -0.01100
H 	H 	0.72720 0.36890 0.13110 0.02300
C 	C 	0.30021 0.40995 0.59005 0.08000
H 	H 	0.32090 0.41820 0.58180 0.02400
C 	C 	0.24520 0.37990 0.62010 -0.01200
H 	H 	0.22720 0.36890 0.63110 0.02300
C 	C 	0.19979 0.59005 0.09005 0.08100
H 	H 	0.17910 0.58180 0.08180 0.02300
C 	C 	0.25480 0.62010 0.12010 -0.01100
H 	H 	0.27280 0.63110 0.13110 0.02300
C 	C 	0.69979 0.59005 0.59005 0.08000
H 	H 	0.67910 0.58180 0.58180 0.02400
C 	C 	0.75480 0.62010 0.62010 -0.01300
H 	H 	0.77280 0.63110 0.63110 0.02400
C 	C 	0.69979 0.09005 0.09005 0.08200
H 	H 	0.67910 0.08180 0.08180 0.02100
C 	C 	0.75480 0.12010 0.12010 -0.01000
H 	H 	0.77280 0.13110 0.13110 0.02200
C 	C 	0.80021 0.59005 0.90995 0.07900
H 	H 	0.82090 0.58180 0.91820 0.02600
C 	C 	0.74520 0.62010 0.87990 -0.01600
H 	H 	0.72720 0.63110 0.86890 0.02500
C 	C 	0.80021 0.09005 0.40995 0.08000
H 	H 	0.82090 0.08180 0.41820 0.02300
C 	C 	0.74520 0.12010 0.37990 -0.01100
H 	H 	0.72720 0.13110 0.36890 0.02300
C 	C 	0.30021 0.59005 0.40995 0.08000
H 	H 	0.32090 0.58180 0.41820 0.02400
C 	C 	0.24520 0.62010 0.37990 -0.01200
H 	H 	0.22720 0.63110 0.36890 0.02300
C 	C 	0.19979 0.90995 0.59005 0.07900
H 	H 	0.17910 0.91820 0.58180 0.02600
C 	C 	0.25480 0.87990 0.62010 -0.01600
H 	H 	0.27280 0.86890 0.63110 0.02500
C 	C 	0.19979 0.40995 0.09005 0.08100
H 	H 	0.17910 0.41820 0.08180 0.02300
C 	C 	0.25480 0.37990 0.12010 -0.01100
H 	H 	0.27280 0.36890 0.13110 0.02300
C 	C 	0.69979 0.90995 0.09005 0.08000
H 	H 	0.67910 0.91820 0.08180 0.02400
C 	C 	0.75480 0.87990 0.12010 -0.01500
H 	H 	0.77280 0.86890 0.13110 0.02400
C 	C 	0.80021 0.09005 0.59005 0.08000
H 	H 	0.82090 0.08180 0.58180 0.02300
C 	C 	0.74520 0.12010 0.62010 -0.01100
H 	H 	0.72720 0.13110 0.63110 0.02300
C 	C 	0.30021 0.09005 0.09005 0.08200
H 	H 	0.32090 0.08180 0.08180 0.02100
C 	C 	0.24520 0.12010 0.12010 -0.00900
H 	H 	0.22720 0.13110 0.13110 0.02200
C 	C 	0.19979 0.09005 0.40995 0.08100
H 	H 	0.17910 0.08180 0.41820 0.02300
C 	C 	0.25480 0.12010 0.37990 -0.01100
H 	H 	0.27280 0.13110 0.36890 0.02300
C 	C 	0.69979 0.09005 0.90995 0.08000
H 	H 	0.67910 0.08180 0.91820 0.02400
C 	C 	0.75480 0.12010 0.87990 -0.01500
H 	H 	0.77280 0.13110 0.86890 0.02400
C 	C 	0.80021 0.90995 0.40995 0.07900
H 	H 	0.82090 0.91820 0.41820 0.02600
C 	C 	0.74520 0.87990 0.37990 -0.01600
H 	H 	0.72720 0.86890 0.36890 0.02500
C 	C 	0.30021 0.90995 0.90995 0.07800
H 	H 	0.32090 0.91820 0.91820 0.02700
C 	C 	0.24520 0.87990 0.87990 -0.01900
H 	H 	0.22720 0.86890 0.86890 0.02600
C 	C 	0.30021 0.40995 0.40995 0.08000
H 	H 	0.32090 0.41820 0.41820 0.02400
C 	C 	0.24520 0.37990 0.37990 -0.01200
H 	H 	0.22720 0.36890 0.36890 0.02300
C 	C 	0.90995 0.40995 0.80021 0.07900
H 	H 	0.91820 0.41820 0.82090 0.02600
C 	C 	0.87990 0.37990 0.74520 -0.01600
H 	H 	0.86890 0.36890 0.72720 0.02500
C 	C 	0.90995 0.90995 0.30021 0.07800
H 	H 	0.91820 0.91820 0.32090 0.02700
C 	C 	0.87990 0.87990 0.24520 -0.01900
H 	H 	0.86890 0.86890 0.22720 0.02600
C 	C 	0.40995 0.40995 0.30021 0.08000
H 	H 	0.41820 0.41820 0.32090 0.02400
C 	C 	0.37990 0.37990 0.24520 -0.01200
H 	H 	0.36890 0.36890 0.22720 0.02300
C 	C 	0.09005 0.40995 0.19979 0.08100
H 	H 	0.08180 0.41820 0.17910 0.02300
C 	C 	0.12010 0.37990 0.25480 -0.01100
H 	H 	0.13110 0.36890 0.27280 0.02300
C 	C 	0.09005 0.90995 0.69979 0.08000
H 	H 	0.08180 0.91820 0.67910 0.02400
C 	C 	0.12010 0.87990 0.75480 -0.01500
H 	H 	0.13110 0.86890 0.77280 0.02400
C 	C 	0.09005 0.59005 0.80021 0.08000
H 	H 	0.08180 0.58180 0.82090 0.02300
C 	C 	0.12010 0.62010 0.74520 -0.01100
H 	H 	0.13110 0.63110 0.72720 0.02300
C 	C 	0.09005 0.09005 0.30021 0.08200
H 	H 	0.08180 0.08180 0.32090 0.02100
C 	C 	0.12010 0.12010 0.24520 -0.00900
H 	H 	0.13110 0.13110 0.22720 0.02200
C 	C 	0.90995 0.59005 0.19979 0.07900
H 	H 	0.91820 0.58180 0.17910 0.02600
C 	C 	0.87990 0.62010 0.25480 -0.01600
H 	H 	0.86890 0.63110 0.27280 0.02500
C 	C 	0.90995 0.09005 0.69979 0.08000
H 	H 	0.91820 0.08180 0.67910 0.02400
C 	C 	0.87990 0.12010 0.75480 -0.01500
H 	H 	0.86890 0.13110 0.77280 0.02400
C 	C 	0.40995 0.09005 0.19979 0.08100
H 	H 	0.41820 0.08180 0.17910 0.02300
C 	C 	0.37990 0.12010 0.25480 -0.01100
H 	H 	0.36890 0.13110 0.27280 0.02300
C 	C 	0.40995 0.19979 0.09005 0.08100
H 	H 	0.41820 0.17910 0.08180 0.02300
C 	C 	0.37990 0.25480 0.12010 -0.01100
H 	H 	0.36890 0.27280 0.13110 0.02300
C 	C 	0.40995 0.69979 0.59005 0.08000
H 	H 	0.41820 0.67910 0.58180 0.02400
C 	C 	0.37990 0.75480 0.62010 -0.01300
H 	H 	0.36890 0.77280 0.63110 0.02400
C 	C 	0.40995 0.80021 0.90995 0.07900
H 	H 	0.41820 0.82090 0.91820 0.02600
C 	C 	0.37990 0.74520 0.87990 -0.01600
H 	H 	0.36890 0.72720 0.86890 0.02500
C 	C 	0.40995 0.30021 0.40995 0.08000
H 	H 	0.41820 0.32090 0.41820 0.02400
C 	C 	0.37990 0.24520 0.37990 -0.01200
H 	H 	0.36890 0.22720 0.36890 0.02300
C 	C 	0.59005 0.19979 0.90995 0.07900
H 	H 	0.58180 0.17910 0.91820 0.02600
C 	C 	0.62010 0.25480 0.87990 -0.01600
H 	H 	0.63110 0.27280 0.86890 0.02500
C 	C 	0.59005 0.69979 0.40995 0.08000
H 	H 	0.58180 0.67910 0.41820 0.02400
C 	C 	0.62010 0.75480 0.37990 -0.01300
H 	H 	0.63110 0.77280 0.36890 0.02400
C 	C 	0.09005 0.19979 0.40995 0.08100
H 	H 	0.08180 0.17910 0.41820 0.02300
C 	C 	0.12010 0.25480 0.37990 -0.01100
H 	H 	0.13110 0.27280 0.36890 0.02300
C 	C 	0.59005 0.80021 0.09005 0.08000
H 	H 	0.58180 0.82090 0.08180 0.02300
C 	C 	0.62010 0.74520 0.12010 -0.01100
H 	H 	0.63110 0.72720 0.13110 0.02300
C 	C 	0.59005 0.30021 0.59005 0.08000
H 	H 	0.58180 0.32090 0.58180 0.02400
C 	C 	0.62010 0.24520 0.62010 -0.01200
H 	H 	0.63110 0.22720 0.63110 0.02300
C 	C 	0.09005 0.30021 0.09005 0.08200
H 	H 	0.08180 0.32090 0.08180 0.02100
C 	C 	0.12010 0.24520 0.12010 -0.00900
H 	H 	0.13110 0.22720 0.13110 0.02200
C 	C 	0.09005 0.80021 0.59005 0.08000
H 	H 	0.08180 0.82090 0.58180 0.02300
C 	C 	0.12010 0.74520 0.62010 -0.01100
H 	H 	0.13110 0.72720 0.63110 0.02300
C 	C 	0.90995 0.19979 0.59005 0.07900
H 	H 	0.91820 0.17910 0.58180 0.02600
C 	C 	0.87990 0.25480 0.62010 -0.01600
H 	H 	0.86890 0.27280 0.63110 0.02500
C 	C 	0.90995 0.69979 0.09005 0.08000
H 	H 	0.91820 0.67910 0.08180 0.02400
C 	C 	0.87990 0.75480 0.12010 -0.01500
H 	H 	0.86890 0.77280 0.13110 0.02400
C 	C 	0.90995 0.80021 0.40995 0.07900
H 	H 	0.91820 0.82090 0.41820 0.02600
C 	C 	0.87990 0.74520 0.37990 -0.01600
H 	H 	0.86890 0.72720 0.36890 0.02500
C 	C 	0.90995 0.30021 0.90995 0.07800
H 	H 	0.91820 0.32090 0.91820 0.02700
C 	C 	0.87990 0.24520 0.87990 -0.01900
H 	H 	0.86890 0.22720 0.86890 0.02600
C 	C 	0.09005 0.69979 0.90995 0.08000
H 	H 	0.08180 0.67910 0.91820 0.02400
C 	C 	0.12010 0.75480 0.87990 -0.01500
H 	H 	0.13110 0.77280 0.86890 0.02400
C 	C 	0.59005 0.09005 0.80021 0.08000
H 	H 	0.58180 0.08180 0.82090 0.02300
C 	C 	0.62010 0.12010 0.74520 -0.01100
H 	H 	0.63110 0.13110 0.72720 0.02300
C 	C 	0.59005 0.59005 0.30021 0.08000
H 	H 	0.58180 0.58180 0.32090 0.02400
C 	C 	0.62010 0.62010 0.24520 -0.01200
H 	H 	0.63110 0.63110 0.22720 0.02300
C 	C 	0.59005 0.90995 0.19979 0.07900
H 	H 	0.58180 0.91820 0.17910 0.02600
C 	C 	0.62010 0.87990 0.25480 -0.01600
H 	H 	0.63110 0.86890 0.27280 0.02500
C 	C 	0.59005 0.40995 0.69979 0.08000
H 	H 	0.58180 0.41820 0.67910 0.02400
C 	C 	0.62010 0.37990 0.75480 -0.01300
H 	H 	0.63110 0.36890 0.77280 0.02400
C 	C 	0.40995 0.90995 0.80021 0.07900
H 	H 	0.41820 0.91820 0.82090 0.02600
C 	C 	0.37990 0.87990 0.74520 -0.01600
H 	H 	0.36890 0.86890 0.72720 0.02500
C 	C 	0.40995 0.59005 0.69979 0.08000
H 	H 	0.41820 0.58180 0.67910 0.02400
C 	C 	0.37990 0.62010 0.75480 -0.01300
H 	H 	0.36890 0.63110 0.77280 0.02400
C 	C 	0.80021 0.59005 0.09005 0.08000
H 	H 	0.82090 0.58180 0.08180 0.02300
C 	C 	0.74520 0.62010 0.12010 -0.01100
H 	H 	0.72720 0.63110 0.13110 0.02300
C 	C 	0.30021 0.59005 0.59005 0.08000
H 	H 	0.32090 0.58180 0.58180 0.02400
C 	C 	0.24520 0.62010 0.62010 -0.01200
H 	H 	0.22720 0.63110 0.63110 0.02300
C 	C 	0.19979 0.59005 0.90995 0.07900
H 	H 	0.17910 0.58180 0.91820 0.02600
C 	C 	0.25480 0.62010 0.87990 -0.01600
H 	H 	0.27280 0.63110 0.86890 0.02500
C 	C 	0.69979 0.59005 0.40995 0.08000
H 	H 	0.67910 0.58180 0.41820 0.02400
C 	C 	0.75480 0.62010 0.37990 -0.01300
H 	H 	0.77280 0.63110 0.36890 0.02400
C 	C 	0.80021 0.40995 0.90995 0.07900
H 	H 	0.82090 0.41820 0.91820 0.02600
C 	C 	0.74520 0.37990 0.87990 -0.01600
H 	H 	0.72720 0.36890 0.86890 0.02500
C 	C 	0.69979 0.40995 0.59005 0.08000
H 	H 	0.67910 0.41820 0.58180 0.02400
C 	C 	0.75480 0.37990 0.62010 -0.01300
H 	H 	0.77280 0.36890 0.63110 0.02400
C 	C 	0.30021 0.09005 0.90995 0.08000
H 	H 	0.32090 0.08180 0.91820 0.02400
C 	C 	0.24520 0.12010 0.87990 -0.01400
H 	H 	0.22720 0.13110 0.86890 0.02400
C 	C 	0.19979 0.90995 0.40995 0.07900
H 	H 	0.17910 0.91820 0.41820 0.02600
C 	C 	0.25480 0.87990 0.37990 -0.01600
H 	H 	0.27280 0.86890 0.36890 0.02500
C 	C 	0.69979 0.90995 0.90995 0.07800
H 	H 	0.67910 0.91820 0.91820 0.02800
C 	C 	0.75480 0.87990 0.87990 -0.02000
H 	H 	0.77280 0.86890 0.86890 0.02700
C 	C 	0.80021 0.90995 0.59005 0.07900
H 	H 	0.82090 0.91820 0.58180 0.02600
C 	C 	0.74520 0.87990 0.62010 -0.01600
H 	H 	0.72720 0.86890 0.63110 0.02500
C 	C 	0.30021 0.90995 0.09005 0.08000
H 	H 	0.32090 0.91820 0.08180 0.02400
C 	C 	0.24520 0.87990 0.12010 -0.01400
H 	H 	0.22720 0.86890 0.13110 0.02400
C 	C 	0.19979 0.09005 0.59005 0.08100
H 	H 	0.17910 0.08180 0.58180 0.02300
C 	C 	0.25480 0.12010 0.62010 -0.01100
H 	H 	0.27280 0.13110 0.63110 0.02300
C 	C 	0.09005 0.59005 0.19979 0.08100
H 	H 	0.08180 0.58180 0.17910 0.02300
C 	C 	0.12010 0.62010 0.25480 -0.01100
H 	H 	0.13110 0.63110 0.27280 0.02300
C 	C 	0.90995 0.59005 0.80021 0.07900
H 	H 	0.91820 0.58180 0.82090 0.02600
C 	C 	0.87990 0.62010 0.74520 -0.01600
H 	H 	0.86890 0.63110 0.72720 0.02500
C 	C 	0.90995 0.09005 0.30021 0.08000
H 	H 	0.91820 0.08180 0.32090 0.02400
C 	C 	0.87990 0.12010 0.24520 -0.01400
H 	H 	0.86890 0.13110 0.22720 0.02400
C 	C 	0.90995 0.40995 0.19979 0.07900
H 	H 	0.91820 0.41820 0.17910 0.02600
C 	C 	0.87990 0.37990 0.25480 -0.01600
H 	H 	0.86890 0.36890 0.27280 0.02500
C 	C 	0.90995 0.90995 0.69979 0.07800
H 	H 	0.91820 0.91820 0.67910 0.02800
C 	C 	0.87990 0.87990 0.75480 -0.02000
H 	H 	0.86890 0.86890 0.77280 0.02700
C 	C 	0.09005 0.90995 0.30021 0.08000
H 	H 	0.08180 0.91820 0.32090 0.02400
C 	C 	0.12010 0.87990 0.24520 -0.01400
H 	H 	0.13110 0.86890 0.22720 0.02400
C 	C 	0.59005 0.80021 0.90995 0.07900
H 	H 	0.58180 0.82090 0.91820 0.02600
C 	C 	0.62010 0.74520 0.87990 -0.01600
H 	H 	0.63110 0.72720 0.86890 0.02500
C 	C 	0.59005 0.30021 0.40995 0.08000
H 	H 	0.58180 0.32090 0.41820 0.02400
C 	C 	0.62010 0.24520 0.37990 -0.01200
H 	H 	0.63110 0.22720 0.36890 0.02300
C 	C 	0.59005 0.19979 0.09005 0.08100
H 	H 	0.58180 0.17910 0.08180 0.02300
C 	C 	0.62010 0.25480 0.12010 -0.01100
H 	H 	0.63110 0.27280 0.13110 0.02300
C 	C 	0.59005 0.69979 0.59005 0.08000
H 	H 	0.58180 0.67910 0.58180 0.02400
C 	C 	0.62010 0.75480 0.62010 -0.01300
H 	H 	0.63110 0.77280 0.63110 0.02400
C 	C 	0.40995 0.30021 0.59005 0.08000
H 	H 	0.41820 0.32090 0.58180 0.02400
C 	C 	0.37990 0.24520 0.62010 -0.01200
H 	H 	0.36890 0.22720 0.63110 0.02300
C 	C 	0.40995 0.19979 0.90995 0.07900
H 	H 	0.41820 0.17910 0.91820 0.02600
C 	C 	0.37990 0.25480 0.87990 -0.01600
H 	H 	0.36890 0.27280 0.86890 0.02500
C 	C 	0.78710 0.26220 0.50000 -0.01600
C 	C 	0.78710 0.76220 -0.00000 0.10600
C 	C 	0.28710 0.26220 -0.00000 0.10400
C 	C 	0.28710 0.76220 0.50000 -0.01600
C 	C 	0.21290 0.73780 0.50000 -0.01800
C 	C 	0.21290 0.23780 -0.00000 0.10200
C 	C 	0.71290 0.73780 -0.00000 0.10400
C 	C 	0.71290 0.23780 0.50000 -0.01800
C 	C 	0.21290 0.26220 0.50000 -0.01800
C 	C 	0.21290 0.76220 -0.00000 0.10400
C 	C 	0.71290 0.26220 -0.00000 0.10400
C 	C 	0.71290 0.76220 0.50000 -0.01600
C 	C 	0.78710 0.73780 0.50000 -0.01600
C 	C 	0.78710 0.23780 -0.00000 0.10500
C 	C 	0.28710 0.73780 -0.00000 0.10400
C 	C 	0.28710 0.23780 0.50000 -0.01800
C 	C 	0.50000 0.78710 0.26220 -0.01600
C 	C 	0.50000 0.28710 0.76220 -0.01600
C 	C 	-0.00000 0.78710 0.76220 0.10600
C 	C 	0.00000 0.28710 0.26220 0.10400
C 	C 	0.50000 0.21290 0.73780 -0.01800
C 	C 	0.50000 0.71290 0.23780 -0.01800
C 	C 	-0.00000 0.21290 0.23780 0.10200
C 	C 	-0.00000 0.71290 0.73780 0.10400
C 	C 	0.50000 0.21290 0.26220 -0.01800
C 	C 	0.50000 0.71290 0.76220 -0.01600
C 	C 	-0.00000 0.21290 0.76220 0.10400
C 	C 	-0.00000 0.71290 0.26220 0.10400
C 	C 	0.50000 0.78710 0.73780 -0.01600
C 	C 	0.50000 0.28710 0.23780 -0.01800
C 	C 	0.00000 0.78710 0.23780 0.10500
C 	C 	-0.00000 0.28710 0.73780 0.10400
C 	C 	0.26220 0.50000 0.78710 -0.01600
C 	C 	0.26220 0.00000 0.28710 0.10400
C 	C 	0.76220 0.50000 0.28710 -0.01600
C 	C 	0.76220 0.00000 0.78710 0.10600
C 	C 	0.73780 0.50000 0.21290 -0.01800
C 	C 	0.73780 0.00000 0.71290 0.10400
C 	C 	0.23780 0.50000 0.71290 -0.01800
C 	C 	0.23780 0.00000 0.21290 0.10200
C 	C 	0.26220 0.50000 0.21290 -0.01800
C 	C 	0.26220 0.00000 0.71290 0.10400
C 	C 	0.76220 0.50000 0.71290 -0.01600
C 	C 	0.76220 0.00000 0.21290 0.10400
C 	C 	0.73780 0.50000 0.78710 -0.01600
C 	C 	0.73780 0.00000 0.28710 0.10400
C 	C 	0.23780 0.50000 0.28710 -0.01800
C 	C 	0.23780 0.00000 0.78710 0.10500
C 	C 	0.26220 0.78710 0.50000 -0.01600
C 	C 	0.26220 0.28710 -0.00000 0.10400
C 	C 	0.76220 0.78710 -0.00000 0.10600
C 	C 	0.76220 0.28710 0.50000 -0.01600
C 	C 	0.73780 0.21290 0.50000 -0.01800
C 	C 	0.73780 0.71290 -0.00000 0.10400
C 	C 	0.23780 0.21290 -0.00000 0.10200
C 	C 	0.23780 0.71290 0.50000 -0.01800
C 	C 	0.26220 0.21290 0.50000 -0.01800
C 	C 	0.26220 0.71290 -0.00000 0.10400
C 	C 	0.76220 0.21290 -0.00000 0.10400
C 	C 	0.76220 0.71290 0.50000 -0.01600
C 	C 	0.73780 0.78710 0.50000 -0.01600
C 	C 	0.73780 0.28710 -0.00000 0.10400
C 	C 	0.23780 0.78710 -0.00000 0.10500
C 	C 	0.23780 0.28710 0.50000 -0.01800
C 	C 	0.78710 0.50000 0.73780 -0.01600
C 	C 	0.78710 0.00000 0.23780 0.10500
C 	C 	0.28710 0.50000 0.23780 -0.01800
C 	C 	0.28710 -0.00000 0.73780 0.10400
C 	C 	0.21290 0.50000 0.26220 -0.01800
C 	C 	0.21290 0.00000 0.76220 0.10400
C 	C 	0.71290 0.50000 0.76220 -0.01600
C 	C 	0.71290 0.00000 0.26220 0.10400
C 	C 	0.21290 0.50000 0.73780 -0.01800
C 	C 	0.21290 0.00000 0.23780 0.10200
C 	C 	0.71290 0.50000 0.23780 -0.01800
C 	C 	0.71290 -0.00000 0.73780 0.10400
C 	C 	0.78710 0.50000 0.26220 -0.01600
C 	C 	0.78710 0.00000 0.76220 0.10600
C 	C 	0.28710 0.50000 0.76220 -0.01600
C 	C 	0.28710 0.00000 0.26220 0.10400
C 	C 	0.50000 0.26220 0.21290 -0.01800
C 	C 	0.50000 0.76220 0.71290 -0.01600
C 	C 	-0.00000 0.26220 0.71290 0.10400
C 	C 	-0.00000 0.76220 0.21290 0.10400
C 	C 	0.50000 0.73780 0.78710 -0.01600
C 	C 	0.50000 0.23780 0.28710 -0.01800
C 	C 	-0.00000 0.73780 0.28710 0.10400
C 	C 	0.00000 0.23780 0.78710 0.10500
C 	C 	0.50000 0.26220 0.78710 -0.01600
C 	C 	0.50000 0.76220 0.28710 -0.01600
C 	C 	0.00000 0.26220 0.28710 0.10400
C 	C 	-0.00000 0.76220 0.78710 0.10600
C 	C 	0.50000 0.73780 0.21290 -0.01800
C 	C 	0.50000 0.23780 0.71290 -0.01800
C 	C 	-0.00000 0.73780 0.71290 0.10400
C 	C 	-0.00000 0.23780 0.21290 0.10200
C 	C 	0.73560 0.10640 0.60640 -0.08500
H 	H 	0.71350 0.11270 0.61270 0.04800
C 	C 	0.23560 0.10640 0.10640 -0.08800
H 	H 	0.21350 0.11270 0.11270 0.04800
C 	C 	0.23560 0.60640 0.60640 -0.08200
H 	H 	0.21350 0.61270 0.61270 0.04700
C 	C 	0.26440 0.89360 0.60640 -0.07700
H 	H 	0.28650 0.88730 0.61270 0.04700
C 	C 	0.76440 0.89360 0.10640 -0.07900
H 	H 	0.78650 0.88730 0.11270 0.04800
C 	C 	0.26440 0.10640 0.39360 -0.08500
H 	H 	0.28650 0.11270 0.38730 0.04800
C 	C 	0.26440 0.60640 0.89360 -0.07700
H 	H 	0.28650 0.61270 0.88730 0.04700
C 	C 	0.76440 0.10640 0.89360 -0.07900
H 	H 	0.78650 0.11270 0.88730 0.04800
C 	C 	0.73560 0.89360 0.39360 -0.07700
H 	H 	0.71350 0.88730 0.38730 0.04700
C 	C 	0.23560 0.89360 0.89360 -0.07300
H 	H 	0.21350 0.88730 0.88730 0.04700
C 	C 	0.60640 0.73560 0.10640 -0.08500
H 	H 	0.61270 0.71350 0.11270 0.04800
C 	C 	0.60640 0.23560 0.60640 -0.08200
H 	H 	0.61270 0.21350 0.61270 0.04700
C 	C 	0.60640 0.26440 0.89360 -0.07700
H 	H 	0.61270 0.28650 0.88730 0.04700
C 	C 	0.60640 0.76440 0.39360 -0.08100
H 	H 	0.61270 0.78650 0.38730 0.04800
C 	C 	0.39360 0.26440 0.10640 -0.08500
H 	H 	0.38730 0.28650 0.11270 0.04800
C 	C 	0.39360 0.76440 0.60640 -0.08100
H 	H 	0.38730 0.78650 0.61270 0.04800
C 	C 	0.89360 0.26440 0.60640 -0.07700
H 	H 	0.88730 0.28650 0.61270 0.04700
C 	C 	0.39360 0.73560 0.89360 -0.07700
H 	H 	0.38730 0.71350 0.88730 0.04700
C 	C 	0.39360 0.23560 0.39360 -0.08200
H 	H 	0.38730 0.21350 0.38730 0.04700
C 	C 	0.89360 0.23560 0.89360 -0.07300
H 	H 	0.88730 0.21350 0.88730 0.04700
C 	C 	0.10640 0.60640 0.73560 -0.08500
H 	H 	0.11270 0.61270 0.71350 0.04800
C 	C 	0.10640 0.10640 0.23560 -0.08800
H 	H 	0.11270 0.11270 0.21350 0.04800
C 	C 	0.60640 0.60640 0.23560 -0.08200
H 	H 	0.61270 0.61270 0.21350 0.04700
C 	C 	0.89360 0.60640 0.26440 -0.07700
H 	H 	0.88730 0.61270 0.28650 0.04700
C 	C 	0.89360 0.10640 0.76440 -0.07900
H 	H 	0.88730 0.11270 0.78650 0.04800
C 	C 	0.10640 0.39360 0.26440 -0.08500
H 	H 	0.11270 0.38730 0.28650 0.04800
C 	C 	0.10640 0.89360 0.76440 -0.07900
H 	H 	0.11270 0.88730 0.78650 0.04800
C 	C 	0.60640 0.89360 0.26440 -0.07700
H 	H 	0.61270 0.88730 0.28650 0.04700
C 	C 	0.89360 0.39360 0.73560 -0.07700
H 	H 	0.88730 0.38730 0.71350 0.04700
C 	C 	0.89360 0.89360 0.23560 -0.07300
H 	H 	0.88730 0.88730 0.21350 0.04700
C 	C 	0.10640 0.73560 0.39360 -0.08500
H 	H 	0.11270 0.71350 0.38730 0.04800
C 	C 	0.10640 0.23560 0.89360 -0.08100
H 	H 	0.11270 0.21350 0.88730 0.04700
C 	C 	0.60640 0.73560 0.89360 -0.07700
H 	H 	0.61270 0.71350 0.88730 0.04700
C 	C 	0.89360 0.26440 0.39360 -0.07700
H 	H 	0.88730 0.28650 0.38730 0.04700
C 	C 	0.89360 0.76440 0.89360 -0.07200
H 	H 	0.88730 0.78650 0.88730 0.04700
C 	C 	0.10640 0.26440 0.60640 -0.08500
H 	H 	0.11270 0.28650 0.61270 0.04800
C 	C 	0.10640 0.76440 0.10640 -0.08700
H 	H 	0.11270 0.78650 0.11270 0.04800
C 	C 	0.60640 0.76440 0.60640 -0.08100
H 	H 	0.61270 0.78650 0.61270 0.04800
C 	C 	0.89360 0.73560 0.60640 -0.07700
H 	H 	0.88730 0.71350 0.61270 0.04700
C 	C 	0.89360 0.23560 0.10640 -0.08100
H 	H 	0.88730 0.21350 0.11270 0.04700
C 	C 	0.73560 0.60640 0.89360 -0.07700
H 	H 	0.71350 0.61270 0.88730 0.04700
C 	C 	0.23560 0.60640 0.39360 -0.08200
H 	H 	0.21350 0.61270 0.38730 0.04700
C 	C 	0.26440 0.60640 0.10640 -0.08500
H 	H 	0.28650 0.61270 0.11270 0.04800
C 	C 	0.76440 0.60640 0.60640 -0.08100
H 	H 	0.78650 0.61270 0.61270 0.04800
C 	C 	0.26440 0.39360 0.89360 -0.07700
H 	H 	0.28650 0.38730 0.88730 0.04700
C 	C 	0.76440 0.39360 0.39360 -0.08100
H 	H 	0.78650 0.38730 0.38730 0.04800
C 	C 	0.76440 0.89360 0.89360 -0.07200
H 	H 	0.78650 0.88730 0.88730 0.04700
C 	C 	0.73560 0.39360 0.10640 -0.08500
H 	H 	0.71350 0.38730 0.11270 0.04800
C 	C 	0.73560 0.89360 0.60640 -0.07700
H 	H 	0.71350 0.88730 0.61270 0.04700
C 	C 	0.23560 0.39360 0.60640 -0.08200
H 	H 	0.21350 0.38730 0.61270 0.04700
C 	C 	0.60640 0.10640 0.26440 -0.08500
H 	H 	0.61270 0.11270 0.28650 0.04800
C 	C 	0.60640 0.60640 0.76440 -0.08100
H 	H 	0.61270 0.61270 0.78650 0.04800
C 	C 	0.60640 0.89360 0.73560 -0.07700
H 	H 	0.61270 0.88730 0.71350 0.04700
C 	C 	0.60640 0.39360 0.23560 -0.08200
H 	H 	0.61270 0.38730 0.21350 0.04700
C 	C 	0.39360 0.10640 0.73560 -0.08500
H 	H 	0.38730 0.11270 0.71350 0.04800
C 	C 	0.39360 0.60640 0.23560 -0.08200
H 	H 	0.38730 0.61270 0.21350 0.04700
C 	C 	0.89360 0.60640 0.73560 -0.07700
H 	H 	0.88730 0.61270 0.71350 0.04700
C 	C 	0.39360 0.89360 0.26440 -0.07700
H 	H 	0.38730 0.88730 0.28650 0.04700
C 	C 	0.39360 0.39360 0.76440 -0.08100
H 	H 	0.38730 0.38730 0.78650 0.04800
C 	C 	0.89360 0.89360 0.76440 -0.07200
H 	H 	0.88730 0.88730 0.78650 0.04700
C 	C 	0.26440 0.89360 0.39360 -0.07700
H 	H 	0.28650 0.88730 0.38730 0.04700
C 	C 	0.73560 0.10640 0.39360 -0.08500
H 	H 	0.71350 0.11270 0.38730 0.04800
C 	C 	0.23560 0.10640 0.89360 -0.08100
H 	H 	0.21350 0.11270 0.88730 0.04700
C 	C 	0.23560 0.89360 0.10640 -0.08100
H 	H 	0.21350 0.88730 0.11270 0.04700
C 	C 	0.26440 0.10640 0.60640 -0.08500
H 	H 	0.28650 0.11270 0.61270 0.04800
C 	C 	0.76440 0.10640 0.10640 -0.08700
H 	H 	0.78650 0.11270 0.11270 0.04800
C 	C 	0.39360 0.26440 0.89360 -0.07700
H 	H 	0.38730 0.28650 0.88730 0.04700
C 	C 	0.39360 0.76440 0.39360 -0.08100
H 	H 	0.38730 0.78650 0.38730 0.04800
C 	C 	0.39360 0.73560 0.10640 -0.08500
H 	H 	0.38730 0.71350 0.11270 0.04800
C 	C 	0.39360 0.23560 0.60640 -0.08200
H 	H 	0.38730 0.21350 0.61270 0.04700
C 	C 	0.60640 0.23560 0.39360 -0.08200
H 	H 	0.61270 0.21350 0.38730 0.04700
C 	C 	0.60640 0.26440 0.10640 -0.08500
H 	H 	0.61270 0.28650 0.11270 0.04800
C 	C 	0.89360 0.39360 0.26440 -0.07700
H 	H 	0.88730 0.38730 0.28650 0.04700
C 	C 	0.10640 0.39360 0.73560 -0.08500
H 	H 	0.11270 0.38730 0.71350 0.04800
C 	C 	0.10640 0.89360 0.23560 -0.08100
H 	H 	0.11270 0.88730 0.21350 0.04700
C 	C 	0.89360 0.10640 0.23560 -0.08100
H 	H 	0.88730 0.11270 0.21350 0.04700
C 	C 	0.10640 0.60640 0.26440 -0.08500
H 	H 	0.11270 0.61270 0.28650 0.04800
C 	C 	0.10640 0.10640 0.76440 -0.08700
H 	H 	0.11270 0.11270 0.78650 0.04800
C 	C 	0.89360 0.76440 0.10640 -0.07900
H 	H 	0.88730 0.78650 0.11270 0.04800
C 	C 	0.10640 0.73560 0.60640 -0.08500
H 	H 	0.11270 0.71350 0.61270 0.04800
C 	C 	0.10640 0.23560 0.10640 -0.08800
H 	H 	0.11270 0.21350 0.11270 0.04800
C 	C 	0.89360 0.73560 0.39360 -0.07700
H 	H 	0.88730 0.71350 0.38730 0.04700
C 	C 	0.10640 0.26440 0.39360 -0.08500
H 	H 	0.11270 0.28650 0.38730 0.04800
C 	C 	0.10640 0.76440 0.89360 -0.07900
H 	H 	0.11270 0.78650 0.88730 0.04800
C 	C 	0.26440 0.39360 0.10640 -0.08500
H 	H 	0.28650 0.38730 0.11270 0.04800
C 	C 	0.76440 0.39360 0.60640 -0.08100
H 	H 	0.78650 0.38730 0.61270 0.04800
C 	C 	0.73560 0.39360 0.89360 -0.07700
H 	H 	0.71350 0.38730 0.88730 0.04700
C 	C 	0.23560 0.39360 0.39360 -0.08200
H 	H 	0.21350 0.38730 0.38730 0.04700
C 	C 	0.73560 0.60640 0.10640 -0.08500
H 	H 	0.71350 0.61270 0.11270 0.04800
C 	C 	0.76440 0.60640 0.39360 -0.08100
H 	H 	0.78650 0.61270 0.38730 0.04800
C 	C 	0.39360 0.89360 0.73560 -0.07700
H 	H 	0.38730 0.88730 0.71350 0.04700
C 	C 	0.39360 0.39360 0.23560 -0.08200
H 	H 	0.38730 0.38730 0.21350 0.04700
C 	C 	0.39360 0.10640 0.26440 -0.08500
H 	H 	0.38730 0.11270 0.28650 0.04800
C 	C 	0.39360 0.60640 0.76440 -0.08100
H 	H 	0.38730 0.61270 0.78650 0.04800
C 	C 	0.60640 0.39360 0.76440 -0.08100
H 	H 	0.61270 0.38730 0.78650 0.04800
C 	C 	0.60640 0.10640 0.73560 -0.08500
H 	H 	0.61270 0.11270 0.71350 0.04800
