data_crystal

_cell_length_a 45.59700
_cell_length_b 45.59700
_cell_length_c 40.71800
_cell_angle_alpha 90.00000
_cell_angle_beta  90.00000
_cell_angle_gamma 120.00000

_symmetry_space_group_name_	'P 1'
_symmetry_space_group_name_H-M	'P 1'

loop_
_symmetry_equiv_pos_as_xyz
  x,y,z

loop_
_atom_site_label
_atom_site_type_symbol
_atom_site_fract_x
_atom_site_fract_y
_atom_site_fract_z
_atom_site_charge
In	In	0.24066 0.06441 0.45780 2.01600
O 	O 	0.26140 0.07450 0.50587 -1.63600
O 	O 	0.23070 0.02280 0.49440 -0.68400
O 	O 	0.19500 0.07440 0.48180 -0.34200
O 	O 	0.18677 0.03810 0.44770 -0.44700
O 	O 	0.23835 0.02558 0.42075 -0.39200
O 	O 	0.28661 0.05941 0.44200 -0.39200
O 	O 	0.27212 0.12068 0.45810 -0.39200
O 	O 	0.24730 0.09850 0.41260 -0.42400
C 	C 	0.25340 0.05160 0.51610 2.90200
C 	C 	0.17350 0.05190 0.46360 0.10100
C 	C 	0.25370 0.03840 0.53620 -2.40800
C 	C 	0.14140 0.04400 0.46380 -0.07300
C 	C 	0.27700 0.05850 0.56910 0.65700
C 	C 	0.24390 0.01050 0.55380 1.46700
C 	C 	0.12650 0.06060 0.47890 0.08000
C 	C 	0.12140 0.01640 0.44380 0.16900
H 	H 	0.29000 0.08170 0.56560 -0.14700
C 	C 	0.28230 0.04900 0.60150 -0.59500
C 	C 	0.24230 0.99220 0.58420 -0.87000
H 	H 	0.23130 0.99320 0.53890 -0.36200
C 	C 	0.09050 0.04700 0.47370 -0.15100
C 	C 	0.08580 0.00360 0.43960 -0.18400
H 	H 	0.29770 0.06510 0.61590 0.25000
C 	C 	0.26370 0.01540 0.61040 0.43300
H 	H 	0.22940 0.96880 0.58650 0.35300
H 	H 	0.08010 0.05750 0.48420 0.08900
C 	C 	0.07170 0.02030 0.45490 0.08700
H 	H 	0.07270 0.98450 0.42680 0.10300
C 	C 	0.26830 0.00830 0.64590 -0.11600
C 	C 	0.03340 0.01170 0.45490 0.05100
C 	C 	0.24120 0.98480 0.66340 -0.02100
C 	C 	0.30060 0.02310 0.66170 -0.02200
C 	C 	0.01170 0.97720 0.45470 -0.12700
H 	H 	0.22000 0.97500 0.65360 0.04000
C 	C 	0.24330 0.97480 0.69500 0.02200
C 	C 	0.30360 0.01320 0.69350 0.01400
H 	H 	0.31970 0.03940 0.65070 0.03900
H 	H 	0.01960 0.96210 0.45430 0.07800
C 	C 	0.27490 0.98960 0.70910 -0.08300
C 	C 	0.21440 0.95054 0.71360 0.01200
C 	C 	0.33790 0.02810 0.70880 0.04100
H 	H 	0.27680 0.98330 0.73030 0.07100
C 	C 	0.18210 0.94339 0.70448 -0.07400
C 	C 	0.21846 0.93240 0.73890 -0.01700
C 	C 	0.34500 0.00650 0.72850 -0.08000
C 	C 	0.36320 0.06020 0.70430 -0.08500
H 	H 	0.17940 0.95550 0.68760 0.06100
C 	C 	0.15389 0.91810 0.72060 -0.00800
C 	C 	0.19030 0.90710 0.75500 0.01700
H 	H 	0.32840 0.98390 0.73130 0.06600
C 	C 	0.37610 0.01850 0.74350 -0.00400
C 	C 	0.39360 0.07150 0.72150 0.00300
H 	H 	0.36060 0.07460 0.69000 0.06800
H 	H 	0.13230 0.91330 0.71450 0.05700
C 	C 	0.15797 0.89991 0.74580 -0.05100
H 	H 	0.38050 0.00400 0.75590 0.05900
C 	C 	0.40050 0.05210 0.74010 -0.03600
H 	H 	0.41000 0.09430 0.71970 0.06300
C 	C 	0.12380 0.87130 0.76340 0.32100
C 	C 	0.43330 0.06460 0.75730 0.11100
O 	O 	0.09620 0.86240 0.75095 -0.45400
O 	O 	0.12985 0.86215 0.78906 -0.38800
In	In	0.06917 0.82880 0.79455 1.99300
O 	O 	0.03460 0.79617 0.83641 -0.41400
O 	O 	0.09048 0.82420 0.84359 -0.41500
O 	O 	0.03035 0.84499 0.78176 -0.42700
O 	O 	0.07242 0.87573 0.81692 -0.42300
O 	O 	0.03723 0.78363 0.76027 -0.44900
O 	O 	0.07750 0.78470 0.78760 -0.31200
C 	C 	0.06200 0.80530 0.85320 0.29500
C 	C 	0.04660 0.86960 0.79880 0.29100
C 	C 	0.05470 0.78980 0.88851 -0.07200
C 	C 	0.03610 0.89670 0.80300 -0.07300
C 	C 	0.02610 0.75980 0.89780 0.00300
C 	C 	0.08011 0.80806 0.91130 0.01700
C 	C 	0.05180 0.92220 0.82620 0.04700
C 	C 	0.00980 0.89472 0.78400 0.05200
C 	C 	0.02292 0.74797 0.92980 -0.01500
C 	C 	0.07696 0.79630 0.94329 0.00500
C 	C 	0.04120 0.94580 0.83050 0.02900
C 	C 	0.99930 0.91830 0.78820 -0.01700
C 	C 	0.04840 0.76620 0.95254 -0.03700
C 	C 	0.01500 0.94380 0.81150 -0.02200
C 	C 	0.04690 0.75170 0.98550 0.11200
C 	C 	0.00850 0.97250 0.81110 -0.01200
C 	C 	0.01660 0.72750 0.00070 -0.16600
C 	C 	0.07650 0.76190 0.00280 -0.16800
C 	C 	0.97370 0.96680 0.81460 0.02100
H 	H 	0.99600 0.71940 0.98990 0.09900
C 	C 	0.01770 0.71570 0.03210 0.10900
C 	C 	0.07820 0.75160 0.03310 0.09500
H 	H 	0.09670 0.77710 0.99260 0.09800
C 	C 	0.04810 0.72740 0.04900 -0.16100
C 	C 	0.98470 0.69020 0.04839 -0.02800
C 	C 	0.11100 0.76370 0.05150 0.01200
H 	H 	0.04860 0.71960 0.06990 0.09500
C 	C 	0.95720 0.69544 0.04980 -0.00400
C 	C 	0.98227 0.66110 0.06200 -0.01200
C 	C 	0.11480 0.76970 0.08510 -0.08300
C 	C 	0.14100 0.77110 0.03330 -0.09700
C 	C 	0.92730 0.67160 0.06480 0.03500
C 	C 	0.95240 0.63726 0.07700 0.03600
H 	H 	0.09640 0.76500 0.09850 0.06800
C 	C 	0.14790 0.78330 0.09830 0.01200
C 	C 	0.17090 0.78360 0.04810 0.03500
H 	H 	0.13940 0.76710 0.01080 0.06800
C 	C 	0.92488 0.64250 0.07841 -0.11400
H 	H 	0.15090 0.78670 0.12080 0.06300
C 	C 	0.17570 0.79170 0.07880 -0.08900
H 	H 	0.18930 0.78670 0.03560 0.04100
C 	C 	0.89160 0.61660 0.09660 0.37500
C 	C 	0.20890 0.80830 0.09570 0.31700
C 	C 	0.18990 0.90410 0.75130 0.02400
C 	C 	0.04730 0.95400 0.81510 -0.03600
C 	C 	0.05750 0.93010 0.81240 -0.00300
C 	C 	0.02130 0.94870 0.79370 0.03900
C 	C 	0.00360 0.92030 0.77390 -0.00300
C 	C 	0.01030 0.97410 0.78990 0.00700
C 	C 	0.97470 0.96540 0.79490 -0.01500
C 	C 	0.17810 0.05820 0.45800 0.21000
C 	C 	0.13820 0.02490 0.45600 -0.08600
C 	C 	0.07740 0.77540 0.93420 -0.01100
C 	C 	0.08230 0.79020 0.90330 0.03800
C 	C 	0.01990 0.76170 0.93570 0.00800
C 	C 	0.02290 0.77230 0.90320 0.04100
C 	C 	0.97190 0.69760 0.07620 -0.00600
C 	C 	0.94360 0.67390 0.09340 0.04600
C 	C 	0.93570 0.63290 0.05060 0.03600
C 	C 	0.96240 0.65930 0.03390 -0.00800
O 	O 	0.87330 0.62840 0.10500 -0.18100
C 	C 	0.43490 0.06357 0.75380 0.14000
In	In	0.90732 0.39774 0.79113 2.01700
O 	O 	0.92807 0.40783 0.83920 -1.63500
O 	O 	0.89737 0.35613 0.82773 -0.68300
O 	O 	0.86167 0.40773 0.81513 -0.34100
O 	O 	0.85344 0.37143 0.78103 -0.44600
O 	O 	0.90502 0.35891 0.75408 -0.39100
O 	O 	0.95328 0.39274 0.77533 -0.39100
O 	O 	0.93879 0.45401 0.79143 -0.39100
O 	O 	0.91397 0.43183 0.74593 -0.42300
C 	C 	0.92007 0.38493 0.84943 2.90300
C 	C 	0.84017 0.38523 0.79693 0.10200
C 	C 	0.92037 0.37173 0.86953 -2.40700
C 	C 	0.80807 0.37733 0.79713 -0.07200
C 	C 	0.94367 0.39183 0.90243 0.65800
C 	C 	0.91057 0.34383 0.88713 1.46800
C 	C 	0.79317 0.39393 0.81223 0.08100
C 	C 	0.78807 0.34973 0.77713 0.17000
H 	H 	0.95667 0.41503 0.89893 -0.14600
C 	C 	0.94897 0.38233 0.93483 -0.59400
C 	C 	0.90897 0.32553 0.91753 -0.86900
H 	H 	0.89797 0.32653 0.87223 -0.36100
C 	C 	0.75717 0.38033 0.80703 -0.15000
C 	C 	0.75247 0.33693 0.77293 -0.18300
H 	H 	0.96437 0.39843 0.94923 0.25100
C 	C 	0.93037 0.34873 0.94373 0.43400
H 	H 	0.89607 0.30213 0.91983 0.35400
H 	H 	0.74677 0.39083 0.81753 0.09000
C 	C 	0.73837 0.35363 0.78823 0.08800
H 	H 	0.73937 0.31783 0.76013 0.10400
C 	C 	0.93497 0.34163 0.97923 -0.11500
C 	C 	0.70007 0.34503 0.78823 0.05200
C 	C 	0.90787 0.31813 0.99673 -0.02000
C 	C 	0.96727 0.35643 0.99503 -0.02000
C 	C 	0.67837 0.31053 0.78803 -0.12600
H 	H 	0.88667 0.30833 0.98693 0.04100
C 	C 	0.90997 0.30813 0.02833 0.02300
C 	C 	0.97027 0.34653 0.02683 0.01500
H 	H 	0.98637 0.37273 0.98403 0.04000
H 	H 	0.68627 0.29543 0.78763 0.07900
C 	C 	0.94157 0.32293 0.04243 -0.08200
C 	C 	0.88107 0.28387 0.04693 0.01300
C 	C 	0.00457 0.36143 0.04213 0.04200
H 	H 	0.94347 0.31663 0.06363 0.07200
C 	C 	0.84877 0.27672 0.03781 -0.07300
C 	C 	0.88513 0.26573 0.07223 -0.01600
C 	C 	0.01167 0.33983 0.06183 -0.07900
C 	C 	0.02987 0.39353 0.03763 -0.08400
H 	H 	0.84607 0.28883 0.02093 0.06200
C 	C 	0.82056 0.25143 0.05393 -0.00700
C 	C 	0.85697 0.24043 0.08833 0.01800
H 	H 	0.99507 0.31723 0.06463 0.06600
C 	C 	0.04277 0.35183 0.07683 -0.00300
C 	C 	0.06027 0.40483 0.05483 0.00400
H 	H 	0.02727 0.40793 0.02333 0.06900
H 	H 	0.79897 0.24663 0.04783 0.05800
C 	C 	0.82464 0.23324 0.07913 -0.05000
H 	H 	0.04717 0.33733 0.08923 0.06000
C 	C 	0.06717 0.38543 0.07343 -0.03500
H 	H 	0.07667 0.42763 0.05303 0.06400
C 	C 	0.79047 0.20463 0.09673 0.32200
C 	C 	0.09997 0.39793 0.09063 0.11200
O 	O 	0.76287 0.19573 0.08428 -0.45300
O 	O 	0.79652 0.19548 0.12239 -0.38700
In	In	0.73583 0.16214 0.12788 1.99400
O 	O 	0.70127 0.12950 0.16974 -0.41300
O 	O 	0.75715 0.15753 0.17692 -0.41400
O 	O 	0.69702 0.17832 0.11509 -0.42600
O 	O 	0.73909 0.20906 0.15025 -0.42200
O 	O 	0.70390 0.11696 0.09360 -0.44800
O 	O 	0.74417 0.11803 0.12093 -0.31100
C 	C 	0.72867 0.13863 0.18653 0.29600
C 	C 	0.71327 0.20293 0.13213 0.29200
C 	C 	0.72137 0.12313 0.22184 -0.07100
C 	C 	0.70277 0.23003 0.13633 -0.07200
C 	C 	0.69277 0.09313 0.23113 0.00400
C 	C 	0.74678 0.14139 0.24463 0.01800
C 	C 	0.71847 0.25553 0.15953 0.04800
C 	C 	0.67647 0.22805 0.11733 0.05300
C 	C 	0.68959 0.08130 0.26313 -0.01400
C 	C 	0.74363 0.12963 0.27662 0.00600
C 	C 	0.70787 0.27913 0.16383 0.03000
C 	C 	0.66597 0.25163 0.12153 -0.01600
C 	C 	0.71507 0.09953 0.28587 -0.03600
C 	C 	0.68167 0.27713 0.14483 -0.02100
C 	C 	0.71357 0.08503 0.31883 0.11300
C 	C 	0.67517 0.30583 0.14443 -0.01100
C 	C 	0.68327 0.06083 0.33403 -0.16500
C 	C 	0.74317 0.09523 0.33613 -0.16700
C 	C 	0.64037 0.30013 0.14793 0.02200
H 	H 	0.66267 0.05273 0.32323 0.10000
C 	C 	0.68437 0.04903 0.36543 0.11000
C 	C 	0.74487 0.08493 0.36643 0.09600
H 	H 	0.76337 0.11043 0.32593 0.09900
C 	C 	0.71477 0.06073 0.38233 -0.16000
C 	C 	0.65137 0.02353 0.38172 -0.02700
C 	C 	0.77767 0.09703 0.38483 0.01300
H 	H 	0.71527 0.05293 0.40323 0.09600
C 	C 	0.62387 0.02877 0.38313 -0.00300
C 	C 	0.64894 0.99443 0.39533 -0.01100
C 	C 	0.78147 0.10303 0.41843 -0.08200
C 	C 	0.80767 0.10443 0.36663 -0.09600
C 	C 	0.59397 0.00493 0.39813 0.03600
C 	C 	0.61907 0.97059 0.41033 0.03700
H 	H 	0.76307 0.09833 0.43183 0.06900
C 	C 	0.81457 0.11663 0.43163 0.01300
C 	C 	0.83757 0.11693 0.38143 0.03600
H 	H 	0.80607 0.10043 0.34413 0.06900
C 	C 	0.59155 0.97583 0.41174 -0.11300
H 	H 	0.81757 0.12003 0.45413 0.06400
C 	C 	0.84237 0.12503 0.41213 -0.08800
H 	H 	0.85597 0.12003 0.36893 0.04200
C 	C 	0.55827 0.94993 0.42993 0.37600
C 	C 	0.87557 0.14163 0.42903 0.31800
C 	C 	0.85657 0.23743 0.08463 0.02500
C 	C 	0.71397 0.28733 0.14843 -0.03500
C 	C 	0.72417 0.26343 0.14573 -0.00200
C 	C 	0.68797 0.28203 0.12703 0.04000
C 	C 	0.67027 0.25363 0.10723 -0.00200
C 	C 	0.67697 0.30743 0.12323 0.00700
C 	C 	0.64137 0.29873 0.12823 -0.01500
C 	C 	0.84477 0.39153 0.79133 0.21000
C 	C 	0.80487 0.35823 0.78933 -0.08600
C 	C 	0.74407 0.10873 0.26753 -0.01100
C 	C 	0.74897 0.12353 0.23663 0.03800
C 	C 	0.68657 0.09503 0.26903 0.00800
C 	C 	0.68957 0.10563 0.23653 0.04100
C 	C 	0.63857 0.03093 0.40953 -0.00600
C 	C 	0.61027 0.00723 0.42673 0.04600
C 	C 	0.60237 0.96623 0.38393 0.03600
C 	C 	0.62907 0.99263 0.36723 -0.00800
O 	O 	0.53997 0.96173 0.43833 -0.18100
C 	C 	0.10157 0.39690 0.08713 0.14000
In	In	0.57399 0.73108 0.12447 2.01700
O 	O 	0.59473 0.74117 0.17254 -1.63500
O 	O 	0.56403 0.68947 0.16107 -0.68300
O 	O 	0.52833 0.74107 0.14847 -0.34100
O 	O 	0.52010 0.70477 0.11437 -0.44600
O 	O 	0.57168 0.69225 0.08742 -0.39100
O 	O 	0.61994 0.72608 0.10867 -0.39100
O 	O 	0.60545 0.78735 0.12477 -0.39100
O 	O 	0.58063 0.76517 0.07927 -0.42300
C 	C 	0.58673 0.71827 0.18277 2.90300
C 	C 	0.50683 0.71857 0.13027 0.10200
C 	C 	0.58703 0.70507 0.20287 -2.40700
C 	C 	0.47473 0.71067 0.13047 -0.07200
C 	C 	0.61033 0.72517 0.23577 0.65800
C 	C 	0.57723 0.67717 0.22047 1.46800
C 	C 	0.45983 0.72727 0.14557 0.08100
C 	C 	0.45473 0.68307 0.11047 0.17000
H 	H 	0.62333 0.74837 0.23227 -0.14600
C 	C 	0.61563 0.71567 0.26817 -0.59400
C 	C 	0.57563 0.65887 0.25087 -0.86900
H 	H 	0.56463 0.65987 0.20557 -0.36100
C 	C 	0.42383 0.71367 0.14037 -0.15000
C 	C 	0.41913 0.67027 0.10627 -0.18300
H 	H 	0.63103 0.73177 0.28257 0.25100
C 	C 	0.59703 0.68207 0.27707 0.43400
H 	H 	0.56273 0.63547 0.25317 0.35400
H 	H 	0.41343 0.72417 0.15087 0.09000
C 	C 	0.40503 0.68697 0.12157 0.08800
H 	H 	0.40603 0.65117 0.09347 0.10400
C 	C 	0.60163 0.67497 0.31257 -0.11500
C 	C 	0.36673 0.67837 0.12157 0.05200
C 	C 	0.57453 0.65147 0.33007 -0.02000
C 	C 	0.63393 0.68977 0.32837 -0.02100
C 	C 	0.34503 0.64387 0.12137 -0.12600
H 	H 	0.55333 0.64167 0.32027 0.04100
C 	C 	0.57663 0.64147 0.36167 0.02300
C 	C 	0.63693 0.67987 0.36017 0.01500
H 	H 	0.65303 0.70607 0.31737 0.04000
H 	H 	0.35293 0.62877 0.12097 0.07900
C 	C 	0.60823 0.65627 0.37577 -0.08200
C 	C 	0.54773 0.61721 0.38027 0.01300
C 	C 	0.67123 0.69477 0.37547 0.04200
H 	H 	0.61013 0.64997 0.39697 0.07200
C 	C 	0.51543 0.61006 0.37115 -0.07300
C 	C 	0.55179 0.59907 0.40557 -0.01600
C 	C 	0.67833 0.67317 0.39517 -0.07900
C 	C 	0.69653 0.72687 0.37097 -0.08400
H 	H 	0.51273 0.62217 0.35427 0.06200
C 	C 	0.48722 0.58477 0.38727 -0.00700
C 	C 	0.52363 0.57377 0.42167 0.01800
H 	H 	0.66173 0.65057 0.39797 0.06700
C 	C 	0.70943 0.68517 0.41017 -0.00300
C 	C 	0.72693 0.73817 0.38817 0.00400
H 	H 	0.69393 0.74127 0.35667 0.06900
H 	H 	0.46563 0.57997 0.38117 0.05800
C 	C 	0.49130 0.56658 0.41247 -0.05000
H 	H 	0.71383 0.67067 0.42257 0.06000
C 	C 	0.73383 0.71877 0.40677 -0.03500
H 	H 	0.74333 0.76097 0.38637 0.06400
C 	C 	0.45713 0.53797 0.43007 0.32200
C 	C 	0.76663 0.73127 0.42397 0.11200
O 	O 	0.42953 0.52907 0.41762 -0.45300
O 	O 	0.46318 0.52882 0.45573 -0.38700
In	In	0.40250 0.49547 0.46121 1.99400
O 	O 	0.36793 0.46284 0.50308 -0.41300
O 	O 	0.42381 0.49087 0.51026 -0.41400
O 	O 	0.36368 0.51166 0.44843 -0.42600
O 	O 	0.40575 0.54240 0.48359 -0.42200
O 	O 	0.37056 0.45030 0.42694 -0.44800
O 	O 	0.41083 0.45137 0.45427 -0.31100
C 	C 	0.39533 0.47197 0.51987 0.29600
C 	C 	0.37993 0.53627 0.46547 0.29200
C 	C 	0.38803 0.45647 0.55518 -0.07100
C 	C 	0.36943 0.56337 0.46967 -0.07200
C 	C 	0.35943 0.42647 0.56447 0.00400
C 	C 	0.41344 0.47473 0.57797 0.01800
C 	C 	0.38513 0.58887 0.49287 0.04800
C 	C 	0.34313 0.56139 0.45067 0.05300
C 	C 	0.35625 0.41464 0.59647 -0.01400
C 	C 	0.41029 0.46297 0.60996 0.00600
C 	C 	0.37453 0.61247 0.49717 0.03000
C 	C 	0.33263 0.58497 0.45487 -0.01600
C 	C 	0.38173 0.43287 0.61921 -0.03600
C 	C 	0.34833 0.61047 0.47817 -0.02100
C 	C 	0.38023 0.41837 0.65217 0.11300
C 	C 	0.34183 0.63917 0.47777 -0.01100
C 	C 	0.34993 0.39417 0.66737 -0.16500
C 	C 	0.40983 0.42857 0.66947 -0.16700
C 	C 	0.30703 0.63347 0.48127 0.02200
H 	H 	0.32933 0.38607 0.65657 0.10000
C 	C 	0.35103 0.38237 0.69877 0.11000
C 	C 	0.41153 0.41827 0.69977 0.09600
H 	H 	0.43003 0.44377 0.65927 0.09900
C 	C 	0.38143 0.39407 0.71567 -0.16000
C 	C 	0.31803 0.35687 0.71506 -0.02700
C 	C 	0.44433 0.43037 0.71817 0.01300
H 	H 	0.38193 0.38627 0.73657 0.09600
C 	C 	0.29053 0.36211 0.71647 -0.00300
C 	C 	0.31560 0.32777 0.72867 -0.01100
C 	C 	0.44813 0.43637 0.75177 -0.08200
C 	C 	0.47433 0.43777 0.69997 -0.09600
C 	C 	0.26063 0.33827 0.73147 0.03600
C 	C 	0.28573 0.30393 0.74367 0.03700
H 	H 	0.42973 0.43167 0.76517 0.06900
C 	C 	0.48123 0.44997 0.76497 0.01300
C 	C 	0.50423 0.45027 0.71477 0.03600
H 	H 	0.47273 0.43377 0.67747 0.06900
C 	C 	0.25821 0.30917 0.74508 -0.11300
H 	H 	0.48423 0.45337 0.78747 0.06400
C 	C 	0.50903 0.45837 0.74547 -0.08800
H 	H 	0.52263 0.45337 0.70227 0.04200
C 	C 	0.22493 0.28327 0.76327 0.37600
C 	C 	0.54223 0.47497 0.76237 0.31800
C 	C 	0.52323 0.57077 0.41797 0.02500
C 	C 	0.38063 0.62067 0.48177 -0.03500
C 	C 	0.39083 0.59677 0.47907 -0.00200
C 	C 	0.35463 0.61537 0.46037 0.04000
C 	C 	0.33693 0.58697 0.44057 -0.00200
C 	C 	0.34363 0.64077 0.45657 0.00700
C 	C 	0.30803 0.63207 0.46157 -0.01500
C 	C 	0.51143 0.72487 0.12467 0.21000
C 	C 	0.47153 0.69157 0.12267 -0.08600
C 	C 	0.41073 0.44207 0.60087 -0.01100
C 	C 	0.41563 0.45687 0.56997 0.03800
C 	C 	0.35323 0.42837 0.60237 0.00800
C 	C 	0.35623 0.43897 0.56987 0.04100
C 	C 	0.30523 0.36427 0.74287 -0.00600
C 	C 	0.27693 0.34057 0.76007 0.04600
C 	C 	0.26903 0.29957 0.71727 0.03600
C 	C 	0.29573 0.32597 0.70057 -0.00800
O 	O 	0.20663 0.29507 0.77167 -0.18100
C 	C 	0.76823 0.73024 0.42047 0.14000
In	In	0.93559 0.17625 0.45780 2.01700
O 	O 	0.92550 0.18690 0.50587 -1.63500
O 	O 	0.97720 0.20790 0.49440 -0.68300
O 	O 	0.92560 0.12060 0.48180 -0.34100
O 	O 	0.96190 0.14867 0.44770 -0.44600
O 	O 	0.97442 0.21277 0.42075 -0.39100
O 	O 	0.94059 0.22720 0.44200 -0.39100
O 	O 	0.87932 0.15144 0.45810 -0.39100
O 	O 	0.90150 0.14880 0.41260 -0.42300
C 	C 	0.94840 0.20180 0.51610 2.90300
C 	C 	0.94810 0.12160 0.46360 0.10200
C 	C 	0.96160 0.21530 0.53620 -2.40700
C 	C 	0.95600 0.09740 0.46380 -0.07200
C 	C 	0.94150 0.21850 0.56910 0.65800
C 	C 	0.98950 0.23340 0.55380 1.46800
C 	C 	0.93940 0.06590 0.47890 0.08100
C 	C 	0.98360 0.10500 0.44380 0.17000
H 	H 	0.91830 0.20830 0.56560 -0.14600
C 	C 	0.95100 0.23330 0.60150 -0.59400
C 	C 	0.00780 0.25010 0.58420 -0.86900
H 	H 	0.00680 0.23810 0.53890 -0.36100
C 	C 	0.95300 0.04350 0.47370 -0.15100
C 	C 	0.99640 0.08220 0.43960 -0.18300
H 	H 	0.93490 0.23260 0.61590 0.25100
C 	C 	0.98460 0.24830 0.61040 0.43400
H 	H 	0.03120 0.26060 0.58650 0.35400
H 	H 	0.94250 0.02260 0.48420 0.09000
C 	C 	0.97970 0.05140 0.45490 0.08800
H 	H 	0.01550 0.08820 0.42680 0.10400
C 	C 	0.99170 0.26000 0.64590 -0.11500
C 	C 	0.98830 0.02170 0.45490 0.05200
C 	C 	0.01520 0.25640 0.66340 -0.02000
C 	C 	0.97690 0.27750 0.66170 -0.02100
C 	C 	0.02280 0.03450 0.45470 -0.12600
H 	H 	0.02500 0.24500 0.65360 0.04100
C 	C 	0.02520 0.26850 0.69500 0.02300
C 	C 	0.98680 0.29040 0.69350 0.01500
H 	H 	0.96060 0.28030 0.65070 0.04000
H 	H 	0.03790 0.05750 0.45430 0.07900
C 	C 	0.01040 0.28530 0.70910 -0.08200
C 	C 	0.04946 0.26386 0.71360 0.01300
C 	C 	0.97190 0.30980 0.70880 0.04200
H 	H 	0.01670 0.29350 0.73030 0.07200
C 	C 	0.05661 0.23871 0.70448 -0.07300
C 	C 	0.06760 0.28606 0.73890 -0.01600
C 	C 	0.99350 0.33850 0.72850 -0.07900
C 	C 	0.93980 0.30300 0.70430 -0.08400
H 	H 	0.04450 0.22390 0.68760 0.06200
C 	C 	0.08190 0.23579 0.72060 -0.00700
C 	C 	0.09290 0.28320 0.75500 0.01800
H 	H 	0.01610 0.34450 0.73130 0.06700
C 	C 	0.98150 0.35760 0.74350 -0.00300
C 	C 	0.92850 0.32210 0.72150 0.00400
H 	H 	0.92540 0.28600 0.69000 0.06900
H 	H 	0.08670 0.21900 0.71450 0.05800
C 	C 	0.10009 0.25806 0.74580 -0.05000
H 	H 	0.99600 0.37650 0.75590 0.06000
C 	C 	0.94790 0.34840 0.74010 -0.03500
H 	H 	0.90570 0.31570 0.71970 0.06400
C 	C 	0.12870 0.25250 0.76340 0.32200
C 	C 	0.93540 0.36870 0.75730 0.11200
O 	O 	0.13760 0.23380 0.75095 -0.45300
O 	O 	0.13785 0.26770 0.78906 -0.38700
In	In	0.17120 0.24036 0.79455 1.99400
O 	O 	0.20383 0.23843 0.83641 -0.41300
O 	O 	0.17580 0.26628 0.84359 -0.41400
O 	O 	0.15501 0.18536 0.78176 -0.42600
O 	O 	0.12427 0.19669 0.81692 -0.42200
O 	O 	0.21637 0.25360 0.76027 -0.44800
O 	O 	0.21530 0.29280 0.78760 -0.31100
C 	C 	0.19470 0.25670 0.85320 0.29600
C 	C 	0.13040 0.17700 0.79880 0.29200
C 	C 	0.21020 0.26490 0.88851 -0.07100
C 	C 	0.10330 0.13940 0.80300 -0.07200
C 	C 	0.24020 0.26630 0.89780 0.00400
C 	C 	0.19194 0.27205 0.91130 0.01800
C 	C 	0.07780 0.12960 0.82620 0.04800
C 	C 	0.10528 0.11508 0.78400 0.05300
C 	C 	0.25203 0.27495 0.92980 -0.01400
C 	C 	0.20370 0.28066 0.94329 0.00600
C 	C 	0.05420 0.09540 0.83050 0.03000
C 	C 	0.08170 0.08100 0.78820 -0.01600
C 	C 	0.23380 0.28220 0.95254 -0.03600
C 	C 	0.05620 0.07120 0.81150 -0.02100
C 	C 	0.24830 0.29520 0.98550 0.11300
C 	C 	0.02750 0.03600 0.81110 -0.01100
C 	C 	0.27250 0.28910 0.00070 -0.16500
C 	C 	0.23810 0.31460 0.00280 -0.16700
C 	C 	0.03320 0.00690 0.81460 0.02200
H 	H 	0.28060 0.27660 0.98990 0.10000
C 	C 	0.28430 0.30200 0.03210 0.11000
C 	C 	0.24840 0.32660 0.03310 0.09600
H 	H 	0.22290 0.31960 0.99260 0.09900
C 	C 	0.27260 0.32070 0.04900 -0.16000
C 	C 	0.30980 0.29450 0.04839 -0.02700
C 	C 	0.23630 0.34730 0.05150 0.01300
H 	H 	0.28040 0.32900 0.06990 0.09600
C 	C 	0.30456 0.26176 0.04980 -0.00300
C 	C 	0.33890 0.32117 0.06200 -0.01100
C 	C 	0.23030 0.34510 0.08510 -0.08200
C 	C 	0.22890 0.36990 0.03330 -0.09600
C 	C 	0.32840 0.25570 0.06480 0.03600
C 	C 	0.36274 0.31514 0.07700 0.03700
H 	H 	0.23500 0.33140 0.09850 0.06900
C 	C 	0.21670 0.36460 0.09830 0.01300
C 	C 	0.21640 0.38730 0.04810 0.03600
H 	H 	0.23290 0.37230 0.01080 0.06900
C 	C 	0.35750 0.28238 0.07841 -0.11300
H 	H 	0.21330 0.36420 0.12080 0.06400
C 	C 	0.20830 0.38400 0.07880 -0.08800
H 	H 	0.21330 0.40260 0.03560 0.04200
C 	C 	0.38340 0.27500 0.09660 0.37600
C 	C 	0.19170 0.40060 0.09570 0.31800
C 	C 	0.09590 0.28580 0.75130 0.02500
C 	C 	0.04600 0.09330 0.81510 -0.03500
C 	C 	0.06990 0.12740 0.81240 -0.00200
C 	C 	0.05130 0.07260 0.79370 0.04000
C 	C 	0.07970 0.08330 0.77390 -0.00200
C 	C 	0.02590 0.03620 0.78990 0.00700
C 	C 	0.03460 0.00930 0.79490 -0.01500
C 	C 	0.94180 0.11990 0.45800 0.21000
C 	C 	0.97510 0.11330 0.45600 -0.08600
C 	C 	0.22460 0.30200 0.93420 -0.01100
C 	C 	0.20980 0.29210 0.90330 0.03800
C 	C 	0.23830 0.25820 0.93570 0.00800
C 	C 	0.22770 0.25060 0.90320 0.04100
C 	C 	0.30240 0.27430 0.07620 -0.00600
C 	C 	0.32610 0.26970 0.09340 0.04600
C 	C 	0.36710 0.30280 0.05060 0.03600
C 	C 	0.34070 0.30310 0.03390 -0.00800
O 	O 	0.37160 0.24490 0.10500 -0.18100
C 	C 	0.93643 0.37133 0.75380 0.14000
In	In	0.60226 0.50958 0.79113 2.01700
O 	O 	0.59217 0.52023 0.83920 -1.63500
O 	O 	0.64387 0.54123 0.82773 -0.68300
O 	O 	0.59227 0.45393 0.81513 -0.34100
O 	O 	0.62857 0.48200 0.78103 -0.44600
O 	O 	0.64109 0.54610 0.75408 -0.39100
O 	O 	0.60726 0.56053 0.77533 -0.39100
O 	O 	0.54599 0.48477 0.79143 -0.39100
O 	O 	0.56817 0.48213 0.74593 -0.42300
C 	C 	0.61507 0.53513 0.84943 2.90300
C 	C 	0.61477 0.45493 0.79693 0.10200
C 	C 	0.62827 0.54863 0.86953 -2.40700
C 	C 	0.62267 0.43073 0.79713 -0.07200
C 	C 	0.60817 0.55183 0.90243 0.65800
C 	C 	0.65617 0.56673 0.88713 1.46800
C 	C 	0.60607 0.39923 0.81223 0.08100
C 	C 	0.65027 0.43833 0.77713 0.17000
H 	H 	0.58497 0.54163 0.89893 -0.14600
C 	C 	0.61767 0.56663 0.93483 -0.59400
C 	C 	0.67447 0.58343 0.91753 -0.86900
H 	H 	0.67347 0.57143 0.87223 -0.36100
C 	C 	0.61967 0.37683 0.80703 -0.15000
C 	C 	0.66307 0.41553 0.77293 -0.18300
H 	H 	0.60157 0.56593 0.94923 0.25100
C 	C 	0.65127 0.58163 0.94373 0.43400
H 	H 	0.69787 0.59393 0.91983 0.35400
H 	H 	0.60917 0.35593 0.81753 0.09000
C 	C 	0.64637 0.38473 0.78823 0.08800
H 	H 	0.68217 0.42153 0.76013 0.10400
C 	C 	0.65837 0.59333 0.97923 -0.11500
C 	C 	0.65497 0.35503 0.78823 0.05200
C 	C 	0.68187 0.58973 0.99673 -0.02000
C 	C 	0.64357 0.61083 0.99503 -0.02100
C 	C 	0.68947 0.36783 0.78803 -0.12600
H 	H 	0.69167 0.57833 0.98693 0.04100
C 	C 	0.69187 0.60183 0.02833 0.02300
C 	C 	0.65347 0.62373 0.02683 0.01500
H 	H 	0.62727 0.61363 0.98403 0.04000
H 	H 	0.70457 0.39083 0.78763 0.07900
C 	C 	0.67707 0.61863 0.04243 -0.08200
C 	C 	0.71613 0.59719 0.04693 0.01300
C 	C 	0.63857 0.64313 0.04213 0.04200
H 	H 	0.68337 0.62683 0.06363 0.07200
C 	C 	0.72328 0.57204 0.03781 -0.07300
C 	C 	0.73427 0.61939 0.07223 -0.01600
C 	C 	0.66017 0.67183 0.06183 -0.07900
C 	C 	0.60647 0.63633 0.03763 -0.08400
H 	H 	0.71117 0.55723 0.02093 0.06200
C 	C 	0.74857 0.56912 0.05393 -0.00700
C 	C 	0.75957 0.61653 0.08833 0.01800
H 	H 	0.68277 0.67783 0.06463 0.06700
C 	C 	0.64817 0.69093 0.07683 -0.00300
C 	C 	0.59517 0.65543 0.05483 0.00400
H 	H 	0.59207 0.61933 0.02333 0.06900
H 	H 	0.75337 0.55233 0.04783 0.05800
C 	C 	0.76676 0.59139 0.07913 -0.05000
H 	H 	0.66267 0.70983 0.08923 0.06000
C 	C 	0.61457 0.68173 0.07343 -0.03500
H 	H 	0.57237 0.64903 0.05303 0.06400
C 	C 	0.79537 0.58583 0.09673 0.32200
C 	C 	0.60207 0.70203 0.09063 0.11200
O 	O 	0.80427 0.56713 0.08428 -0.45300
O 	O 	0.80452 0.60103 0.12239 -0.38700
In	In	0.83786 0.57370 0.12788 1.99400
O 	O 	0.87050 0.57176 0.16974 -0.41300
O 	O 	0.84247 0.59961 0.17692 -0.41400
O 	O 	0.82168 0.51869 0.11509 -0.42600
O 	O 	0.79094 0.53002 0.15025 -0.42200
O 	O 	0.88304 0.58693 0.09360 -0.44800
O 	O 	0.88197 0.62613 0.12093 -0.31100
C 	C 	0.86137 0.59003 0.18653 0.29600
C 	C 	0.79707 0.51033 0.13213 0.29200
C 	C 	0.87687 0.59823 0.22184 -0.07100
C 	C 	0.76997 0.47273 0.13633 -0.07200
C 	C 	0.90687 0.59963 0.23113 0.00400
C 	C 	0.85861 0.60538 0.24463 0.01800
C 	C 	0.74447 0.46293 0.15953 0.04800
C 	C 	0.77195 0.44841 0.11733 0.05300
C 	C 	0.91870 0.60828 0.26313 -0.01400
C 	C 	0.87037 0.61399 0.27662 0.00600
C 	C 	0.72087 0.42873 0.16383 0.03000
C 	C 	0.74837 0.41433 0.12153 -0.01600
C 	C 	0.90047 0.61553 0.28587 -0.03600
C 	C 	0.72287 0.40453 0.14483 -0.02100
C 	C 	0.91497 0.62853 0.31883 0.11300
C 	C 	0.69417 0.36933 0.14443 -0.01100
C 	C 	0.93917 0.62243 0.33403 -0.16500
C 	C 	0.90477 0.64793 0.33613 -0.16700
C 	C 	0.69987 0.34023 0.14793 0.02200
H 	H 	0.94727 0.60993 0.32323 0.10000
C 	C 	0.95097 0.63533 0.36543 0.11000
C 	C 	0.91507 0.65993 0.36643 0.09600
H 	H 	0.88957 0.65293 0.32593 0.09900
C 	C 	0.93927 0.65403 0.38233 -0.16000
C 	C 	0.97647 0.62783 0.38172 -0.02700
C 	C 	0.90297 0.68063 0.38483 0.01300
H 	H 	0.94707 0.66233 0.40323 0.09600
C 	C 	0.97123 0.59509 0.38313 -0.00300
C 	C 	0.00557 0.65450 0.39533 -0.01100
C 	C 	0.89697 0.67843 0.41843 -0.08200
C 	C 	0.89557 0.70323 0.36663 -0.09600
C 	C 	0.99507 0.58903 0.39813 0.03600
C 	C 	0.02941 0.64847 0.41033 0.03700
H 	H 	0.90167 0.66473 0.43183 0.06900
C 	C 	0.88337 0.69793 0.43163 0.01300
C 	C 	0.88307 0.72063 0.38143 0.03600
H 	H 	0.89957 0.70563 0.34413 0.06900
C 	C 	0.02417 0.61571 0.41174 -0.11300
H 	H 	0.87997 0.69753 0.45413 0.06400
C 	C 	0.87497 0.71733 0.41213 -0.08800
H 	H 	0.87997 0.73593 0.36893 0.04200
C 	C 	0.05007 0.60833 0.42993 0.37600
C 	C 	0.85837 0.73393 0.42903 0.31800
C 	C 	0.76257 0.61913 0.08463 0.02500
C 	C 	0.71267 0.42663 0.14843 -0.03500
C 	C 	0.73657 0.46073 0.14573 -0.00200
C 	C 	0.71797 0.40593 0.12703 0.04000
C 	C 	0.74637 0.41663 0.10723 -0.00200
C 	C 	0.69257 0.36953 0.12323 0.00700
C 	C 	0.70127 0.34263 0.12823 -0.01500
C 	C 	0.60847 0.45323 0.79133 0.21000
C 	C 	0.64177 0.44663 0.78933 -0.08600
C 	C 	0.89127 0.63533 0.26753 -0.01100
C 	C 	0.87647 0.62543 0.23663 0.03800
C 	C 	0.90497 0.59153 0.26903 0.00800
C 	C 	0.89437 0.58393 0.23653 0.04100
C 	C 	0.96907 0.60763 0.40953 -0.00600
C 	C 	0.99277 0.60303 0.42673 0.04600
C 	C 	0.03377 0.63613 0.38393 0.03600
C 	C 	0.00737 0.63643 0.36723 -0.00800
O 	O 	0.03827 0.57823 0.43833 -0.18200
C 	C 	0.60310 0.70466 0.08713 0.14000
In	In	0.26892 0.84291 0.12447 2.01700
O 	O 	0.25883 0.85357 0.17254 -1.63500
O 	O 	0.31053 0.87457 0.16107 -0.68300
O 	O 	0.25893 0.78727 0.14847 -0.34100
O 	O 	0.29523 0.81534 0.11437 -0.44600
O 	O 	0.30775 0.87944 0.08742 -0.39100
O 	O 	0.27392 0.89387 0.10867 -0.39000
O 	O 	0.21265 0.81811 0.12477 -0.39100
O 	O 	0.23483 0.81547 0.07927 -0.42300
C 	C 	0.28173 0.86847 0.18277 2.90300
C 	C 	0.28143 0.78827 0.13027 0.10200
C 	C 	0.29493 0.88197 0.20287 -2.40700
C 	C 	0.28933 0.76407 0.13047 -0.07200
C 	C 	0.27483 0.88517 0.23577 0.65800
C 	C 	0.32283 0.90007 0.22047 1.46800
C 	C 	0.27273 0.73257 0.14557 0.08100
C 	C 	0.31693 0.77167 0.11047 0.17000
H 	H 	0.25163 0.87497 0.23227 -0.14600
C 	C 	0.28433 0.89997 0.26817 -0.59400
C 	C 	0.34113 0.91677 0.25087 -0.86900
H 	H 	0.34013 0.90477 0.20557 -0.36100
C 	C 	0.28633 0.71017 0.14037 -0.15000
C 	C 	0.32973 0.74887 0.10627 -0.18300
H 	H 	0.26823 0.89927 0.28257 0.25100
C 	C 	0.31793 0.91497 0.27707 0.43400
H 	H 	0.36453 0.92727 0.25317 0.35400
H 	H 	0.27583 0.68927 0.15087 0.09000
C 	C 	0.31303 0.71807 0.12157 0.08800
H 	H 	0.34883 0.75487 0.09347 0.10400
C 	C 	0.32503 0.92667 0.31257 -0.11500
C 	C 	0.32163 0.68837 0.12157 0.05200
C 	C 	0.34853 0.92307 0.33007 -0.02000
C 	C 	0.31023 0.94417 0.32837 -0.02100
C 	C 	0.35613 0.70117 0.12137 -0.12600
H 	H 	0.35833 0.91167 0.32027 0.04100
C 	C 	0.35853 0.93517 0.36167 0.02300
C 	C 	0.32013 0.95707 0.36017 0.01500
H 	H 	0.29393 0.94697 0.31737 0.04000
H 	H 	0.37123 0.72417 0.12097 0.07900
C 	C 	0.34373 0.95197 0.37577 -0.08200
C 	C 	0.38279 0.93053 0.38027 0.01300
C 	C 	0.30523 0.97647 0.37547 0.04200
H 	H 	0.35003 0.96017 0.39697 0.07200
C 	C 	0.38994 0.90538 0.37115 -0.07300
C 	C 	0.40093 0.95273 0.40557 -0.01600
C 	C 	0.32683 0.00517 0.39517 -0.07900
C 	C 	0.27313 0.96967 0.37097 -0.08400
H 	H 	0.37783 0.89057 0.35427 0.06200
C 	C 	0.41523 0.90246 0.38727 -0.00700
C 	C 	0.42623 0.94987 0.42167 0.01800
H 	H 	0.34943 0.01117 0.39797 0.06700
C 	C 	0.31483 0.02427 0.41017 -0.00300
C 	C 	0.26183 0.98877 0.38817 0.00400
H 	H 	0.25873 0.95267 0.35667 0.06900
H 	H 	0.42003 0.88567 0.38117 0.05800
C 	C 	0.43342 0.92473 0.41247 -0.05000
H 	H 	0.32933 0.04317 0.42257 0.06000
C 	C 	0.28123 0.01507 0.40677 -0.03500
H 	H 	0.23903 0.98237 0.38637 0.06400
C 	C 	0.46203 0.91917 0.43007 0.32200
C 	C 	0.26873 0.03537 0.42397 0.11200
O 	O 	0.47093 0.90047 0.41762 -0.45300
O 	O 	0.47118 0.93437 0.45573 -0.38700
In	In	0.50453 0.90703 0.46121 1.99400
O 	O 	0.53716 0.90510 0.50308 -0.41300
O 	O 	0.50913 0.93295 0.51026 -0.41400
O 	O 	0.48834 0.85203 0.44843 -0.42600
O 	O 	0.45760 0.86336 0.48359 -0.42200
O 	O 	0.54970 0.92027 0.42694 -0.44800
O 	O 	0.54863 0.95947 0.45427 -0.31100
C 	C 	0.52803 0.92337 0.51987 0.29600
C 	C 	0.46373 0.84367 0.46547 0.29200
C 	C 	0.54353 0.93157 0.55518 -0.07100
C 	C 	0.43663 0.80607 0.46967 -0.07200
C 	C 	0.57353 0.93297 0.56447 0.00400
C 	C 	0.52527 0.93872 0.57797 0.01800
C 	C 	0.41113 0.79627 0.49287 0.04800
C 	C 	0.43861 0.78175 0.45067 0.05300
C 	C 	0.58536 0.94162 0.59647 -0.01400
C 	C 	0.53703 0.94733 0.60996 0.00600
C 	C 	0.38753 0.76207 0.49717 0.03000
C 	C 	0.41503 0.74767 0.45487 -0.01600
C 	C 	0.56713 0.94887 0.61921 -0.03600
C 	C 	0.38953 0.73787 0.47817 -0.02100
C 	C 	0.58163 0.96187 0.65217 0.11300
C 	C 	0.36083 0.70267 0.47777 -0.01100
C 	C 	0.60583 0.95577 0.66737 -0.16500
C 	C 	0.57143 0.98127 0.66947 -0.16700
C 	C 	0.36653 0.67357 0.48127 0.02200
H 	H 	0.61393 0.94327 0.65657 0.10000
C 	C 	0.61763 0.96867 0.69877 0.11000
C 	C 	0.58173 0.99327 0.69977 0.09600
H 	H 	0.55623 0.98627 0.65927 0.09900
C 	C 	0.60593 0.98737 0.71567 -0.16000
C 	C 	0.64313 0.96117 0.71506 -0.02700
C 	C 	0.56963 0.01397 0.71817 0.01300
H 	H 	0.61373 0.99567 0.73657 0.09600
C 	C 	0.63789 0.92843 0.71647 -0.00300
C 	C 	0.67223 0.98784 0.72867 -0.01100
C 	C 	0.56363 0.01177 0.75177 -0.08200
C 	C 	0.56223 0.03657 0.69997 -0.09600
C 	C 	0.66173 0.92237 0.73147 0.03600
C 	C 	0.69607 0.98181 0.74367 0.03700
H 	H 	0.56833 0.99807 0.76517 0.06900
C 	C 	0.55003 0.03127 0.76497 0.01300
C 	C 	0.54973 0.05397 0.71477 0.03600
H 	H 	0.56623 0.03897 0.67747 0.06900
C 	C 	0.69083 0.94905 0.74508 -0.11300
H 	H 	0.54663 0.03087 0.78747 0.06400
C 	C 	0.54163 0.05067 0.74547 -0.08800
H 	H 	0.54663 0.06927 0.70227 0.04200
C 	C 	0.71673 0.94167 0.76327 0.37600
C 	C 	0.52503 0.06727 0.76237 0.31900
C 	C 	0.42923 0.95247 0.41797 0.02500
C 	C 	0.37933 0.75997 0.48177 -0.03500
C 	C 	0.40323 0.79407 0.47907 -0.00200
C 	C 	0.38463 0.73927 0.46037 0.04000
C 	C 	0.41303 0.74997 0.44057 -0.00200
C 	C 	0.35923 0.70287 0.45657 0.00700
C 	C 	0.36793 0.67597 0.46157 -0.01500
C 	C 	0.27513 0.78657 0.12467 0.21000
C 	C 	0.30843 0.77997 0.12267 -0.08600
C 	C 	0.55793 0.96867 0.60087 -0.01100
C 	C 	0.54313 0.95877 0.56997 0.03800
C 	C 	0.57163 0.92487 0.60237 0.00800
C 	C 	0.56103 0.91727 0.56987 0.04100
C 	C 	0.63573 0.94097 0.74287 -0.00600
C 	C 	0.65943 0.93637 0.76007 0.04600
C 	C 	0.70043 0.96947 0.71727 0.03600
C 	C 	0.67403 0.96977 0.70057 -0.00800
O 	O 	0.70493 0.91157 0.77167 -0.18100
C 	C 	0.26976 0.03800 0.42047 0.14000
In	In	0.82375 0.75934 0.45780 2.01700
O 	O 	0.81310 0.73860 0.50587 -1.63500
O 	O 	0.79210 0.76930 0.49440 -0.68300
O 	O 	0.87940 0.80500 0.48180 -0.34100
O 	O 	0.85133 0.81323 0.44770 -0.44600
O 	O 	0.78723 0.76165 0.42075 -0.39100
O 	O 	0.77280 0.71339 0.44200 -0.39100
O 	O 	0.84856 0.72788 0.45810 -0.39100
O 	O 	0.85120 0.75270 0.41260 -0.42300
C 	C 	0.79820 0.74660 0.51610 2.90300
C 	C 	0.87840 0.82650 0.46360 0.10200
C 	C 	0.78470 0.74630 0.53620 -2.40700
C 	C 	0.90260 0.85860 0.46380 -0.07200
C 	C 	0.78150 0.72300 0.56910 0.65800
C 	C 	0.76660 0.75610 0.55380 1.46800
C 	C 	0.93410 0.87350 0.47890 0.08100
C 	C 	0.89500 0.87860 0.44380 0.17000
H 	H 	0.79170 0.71000 0.56560 -0.14600
C 	C 	0.76670 0.71770 0.60150 -0.59400
C 	C 	0.74990 0.75770 0.58420 -0.86900
H 	H 	0.76190 0.76870 0.53890 -0.36100
C 	C 	0.95650 0.90950 0.47370 -0.15000
C 	C 	0.91780 0.91420 0.43960 -0.18300
H 	H 	0.76740 0.70230 0.61590 0.25100
C 	C 	0.75170 0.73630 0.61040 0.43400
H 	H 	0.73940 0.77060 0.58650 0.35400
H 	H 	0.97740 0.91990 0.48420 0.09000
C 	C 	0.94860 0.92830 0.45490 0.08800
H 	H 	0.91180 0.92730 0.42680 0.10400
C 	C 	0.74000 0.73170 0.64590 -0.11500
C 	C 	0.97830 0.96660 0.45490 0.05200
C 	C 	0.74360 0.75880 0.66340 -0.02000
C 	C 	0.72250 0.69940 0.66170 -0.02100
C 	C 	0.96550 0.98830 0.45470 -0.12600
H 	H 	0.75500 0.78000 0.65360 0.04100
C 	C 	0.73150 0.75670 0.69500 0.02300
C 	C 	0.70960 0.69640 0.69350 0.01500
H 	H 	0.71970 0.68030 0.65070 0.04000
H 	H 	0.94250 0.98040 0.45430 0.07900
C 	C 	0.71470 0.72510 0.70910 -0.08200
C 	C 	0.73614 0.78560 0.71360 0.01300
C 	C 	0.69020 0.66210 0.70880 0.04200
H 	H 	0.70650 0.72320 0.73030 0.07200
C 	C 	0.76129 0.81790 0.70448 -0.07300
C 	C 	0.71394 0.78154 0.73890 -0.01600
C 	C 	0.66150 0.65500 0.72850 -0.07900
C 	C 	0.69700 0.63680 0.70430 -0.08400
H 	H 	0.77610 0.82060 0.68760 0.06200
C 	C 	0.76421 0.84611 0.72060 -0.00700
C 	C 	0.71680 0.80970 0.75500 0.01800
H 	H 	0.65550 0.67160 0.73130 0.06700
C 	C 	0.64240 0.62390 0.74350 -0.00300
C 	C 	0.67790 0.60640 0.72150 0.00400
H 	H 	0.71400 0.63940 0.69000 0.06900
H 	H 	0.78100 0.86770 0.71450 0.05800
C 	C 	0.74194 0.84203 0.74580 -0.05000
H 	H 	0.62350 0.61950 0.75590 0.06000
C 	C 	0.65160 0.59950 0.74010 -0.03500
H 	H 	0.68430 0.59000 0.71970 0.06400
C 	C 	0.74750 0.87620 0.76340 0.32200
C 	C 	0.63130 0.56670 0.75730 0.11200
O 	O 	0.76620 0.90380 0.75095 -0.45300
O 	O 	0.73230 0.87015 0.78906 -0.38700
In	In	0.75964 0.93083 0.79455 1.99400
O 	O 	0.76157 0.96540 0.83641 -0.41300
O 	O 	0.73372 0.90952 0.84359 -0.41400
O 	O 	0.81464 0.96965 0.78176 -0.42600
O 	O 	0.80331 0.92758 0.81692 -0.42200
O 	O 	0.74640 0.96277 0.76027 -0.44800
O 	O 	0.70720 0.92250 0.78760 -0.31100
C 	C 	0.74330 0.93800 0.85320 0.29600
C 	C 	0.82300 0.95340 0.79880 0.29200
C 	C 	0.73510 0.94530 0.88851 -0.07100
C 	C 	0.86060 0.96390 0.80300 -0.07200
C 	C 	0.73370 0.97390 0.89780 0.00400
C 	C 	0.72795 0.91989 0.91130 0.01800
C 	C 	0.87040 0.94820 0.82620 0.04800
C 	C 	0.88492 0.99020 0.78400 0.05300
C 	C 	0.72505 0.97708 0.92980 -0.01400
C 	C 	0.71934 0.92304 0.94329 0.00600
C 	C 	0.90460 0.95880 0.83050 0.03000
C 	C 	0.91900 0.00070 0.78820 -0.01600
C 	C 	0.71780 0.95160 0.95254 -0.03600
C 	C 	0.92880 0.98500 0.81150 -0.02100
C 	C 	0.70480 0.95310 0.98550 0.11300
C 	C 	0.96400 0.99150 0.81110 -0.01100
C 	C 	0.71090 0.98340 0.00070 -0.16500
C 	C 	0.68540 0.92350 0.00280 -0.16700
C 	C 	0.99310 0.02630 0.81460 0.02200
H 	H 	0.72340 0.00400 0.98990 0.10000
C 	C 	0.69800 0.98230 0.03210 0.11000
C 	C 	0.67340 0.92180 0.03310 0.09600
H 	H 	0.68040 0.90330 0.99260 0.09900
C 	C 	0.67930 0.95190 0.04900 -0.16000
C 	C 	0.70550 0.01530 0.04839 -0.02700
C 	C 	0.65270 0.88900 0.05150 0.01300
H 	H 	0.67100 0.95140 0.06990 0.09600
C 	C 	0.73824 0.04280 0.04980 -0.00300
C 	C 	0.67883 0.01773 0.06200 -0.01100
C 	C 	0.65490 0.88520 0.08510 -0.08200
C 	C 	0.63010 0.85900 0.03330 -0.09600
C 	C 	0.74430 0.07270 0.06480 0.03600
C 	C 	0.68486 0.04760 0.07700 0.03700
H 	H 	0.66860 0.90360 0.09850 0.06900
C 	C 	0.63540 0.85210 0.09830 0.01300
C 	C 	0.61270 0.82910 0.04810 0.03600
H 	H 	0.62770 0.86060 0.01080 0.06900
C 	C 	0.71762 0.07512 0.07841 -0.11300
H 	H 	0.63580 0.84910 0.12080 0.06400
C 	C 	0.61600 0.82430 0.07880 -0.08800
H 	H 	0.59740 0.81070 0.03560 0.04200
C 	C 	0.72500 0.10840 0.09660 0.37600
C 	C 	0.59940 0.79110 0.09570 0.31800
C 	C 	0.71420 0.81010 0.75130 0.02500
C 	C 	0.90670 0.95270 0.81510 -0.03500
C 	C 	0.87260 0.94250 0.81240 -0.00200
C 	C 	0.92740 0.97870 0.79370 0.04000
C 	C 	0.91670 0.99640 0.77390 -0.00200
C 	C 	0.96380 0.98970 0.78990 0.00700
C 	C 	0.99070 0.02530 0.79490 -0.01500
C 	C 	0.88010 0.82190 0.45800 0.21000
C 	C 	0.88670 0.86180 0.45600 -0.08600
C 	C 	0.69800 0.92260 0.93420 -0.01100
C 	C 	0.70790 0.91770 0.90330 0.03800
C 	C 	0.74180 0.98010 0.93570 0.00800
C 	C 	0.74940 0.97710 0.90320 0.04100
C 	C 	0.72570 0.02810 0.07620 -0.00600
C 	C 	0.73030 0.05640 0.09340 0.04600
C 	C 	0.69720 0.06430 0.05060 0.03600
C 	C 	0.69690 0.03760 0.03390 -0.00800
O 	O 	0.75510 0.12670 0.10500 -0.18100
C 	C 	0.62867 0.56510 0.75380 0.14000
In	In	0.49042 0.09268 0.79113 2.01700
O 	O 	0.47977 0.07193 0.83920 -1.63500
O 	O 	0.45877 0.10263 0.82773 -0.68300
O 	O 	0.54607 0.13833 0.81513 -0.34100
O 	O 	0.51800 0.14656 0.78103 -0.44600
O 	O 	0.45390 0.09498 0.75408 -0.39100
O 	O 	0.43947 0.04672 0.77533 -0.39100
O 	O 	0.51523 0.06121 0.79143 -0.39100
O 	O 	0.51787 0.08603 0.74593 -0.42300
C 	C 	0.46487 0.07993 0.84943 2.90300
C 	C 	0.54507 0.15983 0.79693 0.10200
C 	C 	0.45137 0.07963 0.86953 -2.40700
C 	C 	0.56927 0.19193 0.79713 -0.07200
C 	C 	0.44817 0.05633 0.90243 0.65800
C 	C 	0.43327 0.08943 0.88713 1.46800
C 	C 	0.60077 0.20683 0.81223 0.08100
C 	C 	0.56167 0.21193 0.77713 0.17000
H 	H 	0.45837 0.04333 0.89893 -0.14600
C 	C 	0.43337 0.05103 0.93483 -0.59400
C 	C 	0.41657 0.09103 0.91753 -0.86900
H 	H 	0.42857 0.10203 0.87223 -0.36100
C 	C 	0.62317 0.24283 0.80703 -0.15100
C 	C 	0.58447 0.24753 0.77293 -0.18300
H 	H 	0.43407 0.03563 0.94923 0.25100
C 	C 	0.41837 0.06963 0.94373 0.43400
H 	H 	0.40607 0.10393 0.91983 0.35300
H 	H 	0.64407 0.25323 0.81753 0.09000
C 	C 	0.61527 0.26163 0.78823 0.08800
H 	H 	0.57847 0.26063 0.76013 0.10400
C 	C 	0.40667 0.06503 0.97923 -0.11500
C 	C 	0.64497 0.29993 0.78823 0.05200
C 	C 	0.41027 0.09213 0.99673 -0.02000
C 	C 	0.38917 0.03273 0.99503 -0.02100
C 	C 	0.63217 0.32163 0.78803 -0.12600
H 	H 	0.42167 0.11333 0.98693 0.04100
C 	C 	0.39817 0.09003 0.02833 0.02300
C 	C 	0.37627 0.02973 0.02683 0.01500
H 	H 	0.38637 0.01363 0.98403 0.04000
H 	H 	0.60917 0.31373 0.78763 0.07900
C 	C 	0.38137 0.05843 0.04243 -0.08200
C 	C 	0.40281 0.11893 0.04693 0.01300
C 	C 	0.35687 0.99543 0.04213 0.04200
H 	H 	0.37317 0.05653 0.06363 0.07200
C 	C 	0.42796 0.15123 0.03781 -0.07300
C 	C 	0.38061 0.11487 0.07223 -0.01600
C 	C 	0.32817 0.98833 0.06183 -0.07900
C 	C 	0.36367 0.97013 0.03763 -0.08400
H 	H 	0.44277 0.15393 0.02093 0.06200
C 	C 	0.43088 0.17944 0.05393 -0.00700
C 	C 	0.38347 0.14303 0.08833 0.01800
H 	H 	0.32217 0.00493 0.06463 0.06600
C 	C 	0.30907 0.95723 0.07683 -0.00300
C 	C 	0.34457 0.93973 0.05483 0.00400
H 	H 	0.38067 0.97273 0.02333 0.06900
H 	H 	0.44767 0.20103 0.04783 0.05800
C 	C 	0.40861 0.17536 0.07913 -0.05000
H 	H 	0.29017 0.95283 0.08923 0.06000
C 	C 	0.31827 0.93283 0.07343 -0.03500
H 	H 	0.35097 0.92333 0.05303 0.06400
C 	C 	0.41417 0.20953 0.09673 0.32200
C 	C 	0.29797 0.90003 0.09063 0.11200
O 	O 	0.43287 0.23713 0.08428 -0.45300
O 	O 	0.39897 0.20348 0.12239 -0.38700
In	In	0.42630 0.26417 0.12788 1.99400
O 	O 	0.42824 0.29873 0.16974 -0.41300
O 	O 	0.40039 0.24285 0.17692 -0.41400
O 	O 	0.48131 0.30298 0.11509 -0.42600
O 	O 	0.46998 0.26091 0.15025 -0.42200
O 	O 	0.41307 0.29610 0.09360 -0.44800
O 	O 	0.37387 0.25583 0.12093 -0.31100
C 	C 	0.40997 0.27133 0.18653 0.29600
C 	C 	0.48967 0.28673 0.13213 0.29200
C 	C 	0.40177 0.27863 0.22184 -0.07100
C 	C 	0.52727 0.29723 0.13633 -0.07200
C 	C 	0.40037 0.30723 0.23113 0.00400
C 	C 	0.39462 0.25322 0.24463 0.01800
C 	C 	0.53707 0.28153 0.15953 0.04800
C 	C 	0.55159 0.32353 0.11733 0.05300
C 	C 	0.39172 0.31041 0.26313 -0.01400
C 	C 	0.38601 0.25637 0.27662 0.00600
C 	C 	0.57127 0.29213 0.16383 0.03000
C 	C 	0.58567 0.33403 0.12153 -0.01600
C 	C 	0.38447 0.28493 0.28587 -0.03600
C 	C 	0.59547 0.31833 0.14483 -0.02100
C 	C 	0.37147 0.28643 0.31883 0.11300
C 	C 	0.63067 0.32483 0.14443 -0.01100
C 	C 	0.37757 0.31673 0.33403 -0.16500
C 	C 	0.35207 0.25683 0.33613 -0.16700
C 	C 	0.65977 0.35963 0.14793 0.02200
H 	H 	0.39007 0.33733 0.32323 0.10000
C 	C 	0.36467 0.31563 0.36543 0.11000
C 	C 	0.34007 0.25513 0.36643 0.09600
H 	H 	0.34707 0.23663 0.32593 0.09900
C 	C 	0.34597 0.28523 0.38233 -0.16000
C 	C 	0.37217 0.34863 0.38172 -0.02700
C 	C 	0.31937 0.22233 0.38483 0.01300
H 	H 	0.33767 0.28473 0.40323 0.09600
C 	C 	0.40491 0.37613 0.38313 -0.00300
C 	C 	0.34550 0.35106 0.39533 -0.01100
C 	C 	0.32157 0.21853 0.41843 -0.08200
C 	C 	0.29677 0.19233 0.36663 -0.09600
C 	C 	0.41097 0.40603 0.39813 0.03600
C 	C 	0.35153 0.38093 0.41033 0.03700
H 	H 	0.33527 0.23693 0.43183 0.06900
C 	C 	0.30207 0.18543 0.43163 0.01300
C 	C 	0.27937 0.16243 0.38143 0.03600
H 	H 	0.29437 0.19393 0.34413 0.06900
C 	C 	0.38429 0.40845 0.41174 -0.11300
H 	H 	0.30247 0.18243 0.45413 0.06400
C 	C 	0.28267 0.15763 0.41213 -0.08800
H 	H 	0.26407 0.14403 0.36893 0.04200
C 	C 	0.39167 0.44173 0.42993 0.37500
C 	C 	0.26607 0.12443 0.42903 0.31800
C 	C 	0.38087 0.14343 0.08463 0.02500
C 	C 	0.57337 0.28603 0.14843 -0.03500
C 	C 	0.53927 0.27583 0.14573 -0.00200
C 	C 	0.59407 0.31203 0.12703 0.04000
C 	C 	0.58337 0.32973 0.10723 -0.00200
C 	C 	0.63047 0.32303 0.12323 0.00700
C 	C 	0.65737 0.35863 0.12823 -0.01500
C 	C 	0.54677 0.15523 0.79133 0.21000
C 	C 	0.55337 0.19513 0.78933 -0.08600
C 	C 	0.36467 0.25593 0.26753 -0.01100
C 	C 	0.37457 0.25103 0.23663 0.03800
C 	C 	0.40847 0.31343 0.26903 0.00800
C 	C 	0.41607 0.31043 0.23653 0.04100
C 	C 	0.39237 0.36143 0.40953 -0.00600
C 	C 	0.39697 0.38973 0.42673 0.04600
C 	C 	0.36387 0.39763 0.38393 0.03600
C 	C 	0.36357 0.37093 0.36723 -0.00800
O 	O 	0.42177 0.46003 0.43833 -0.18100
C 	C 	0.29534 0.89843 0.08713 0.14000
In	In	0.15709 0.42601 0.12447 2.01700
O 	O 	0.14643 0.40527 0.17254 -1.63600
O 	O 	0.12543 0.43597 0.16107 -0.68300
O 	O 	0.21273 0.47167 0.14847 -0.34100
O 	O 	0.18466 0.47990 0.11437 -0.44600
O 	O 	0.12056 0.42832 0.08742 -0.39100
O 	O 	0.10613 0.38006 0.10867 -0.39100
O 	O 	0.18189 0.39455 0.12477 -0.39100
O 	O 	0.18453 0.41937 0.07927 -0.42300
C 	C 	0.13153 0.41327 0.18277 2.90300
C 	C 	0.21173 0.49317 0.13027 0.10200
C 	C 	0.11803 0.41297 0.20287 -2.40700
C 	C 	0.23593 0.52527 0.13047 -0.07200
C 	C 	0.11483 0.38967 0.23577 0.65800
C 	C 	0.09993 0.42277 0.22047 1.46800
C 	C 	0.26743 0.54017 0.14557 0.08100
C 	C 	0.22833 0.54527 0.11047 0.17000
H 	H 	0.12503 0.37667 0.23227 -0.14600
C 	C 	0.10003 0.38437 0.26817 -0.59400
C 	C 	0.08323 0.42437 0.25087 -0.86900
H 	H 	0.09523 0.43537 0.20557 -0.36100
C 	C 	0.28983 0.57617 0.14037 -0.15000
C 	C 	0.25113 0.58087 0.10627 -0.18300
H 	H 	0.10073 0.36897 0.28257 0.25100
C 	C 	0.08503 0.40297 0.27707 0.43400
H 	H 	0.07273 0.43727 0.25317 0.35400
H 	H 	0.31073 0.58657 0.15087 0.09000
C 	C 	0.28193 0.59497 0.12157 0.08800
H 	H 	0.24513 0.59397 0.09347 0.10400
C 	C 	0.07333 0.39837 0.31257 -0.11500
C 	C 	0.31163 0.63327 0.12157 0.05200
C 	C 	0.07693 0.42547 0.33007 -0.02000
C 	C 	0.05583 0.36607 0.32837 -0.02000
C 	C 	0.29883 0.65497 0.12137 -0.12600
H 	H 	0.08833 0.44667 0.32027 0.04100
C 	C 	0.06483 0.42337 0.36167 0.02300
C 	C 	0.04293 0.36307 0.36017 0.01500
H 	H 	0.05303 0.34697 0.31737 0.04000
H 	H 	0.27583 0.64707 0.12097 0.07900
C 	C 	0.04803 0.39177 0.37577 -0.08200
C 	C 	0.06947 0.45227 0.38027 0.01300
C 	C 	0.02353 0.32877 0.37547 0.04200
H 	H 	0.03983 0.38987 0.39697 0.07200
C 	C 	0.09462 0.48457 0.37115 -0.07300
C 	C 	0.04727 0.44821 0.40557 -0.01600
C 	C 	0.99483 0.32167 0.39517 -0.07900
C 	C 	0.03033 0.30347 0.37097 -0.08400
H 	H 	0.10943 0.48727 0.35427 0.06200
C 	C 	0.09754 0.51278 0.38727 -0.00700
C 	C 	0.05013 0.47637 0.42167 0.01800
H 	H 	0.98883 0.33827 0.39797 0.06700
C 	C 	0.97573 0.29057 0.41017 -0.00300
C 	C 	0.01123 0.27307 0.38817 0.00400
H 	H 	0.04733 0.30607 0.35667 0.06900
H 	H 	0.11433 0.53437 0.38117 0.05800
C 	C 	0.07527 0.50870 0.41247 -0.05000
H 	H 	0.95683 0.28617 0.42257 0.06000
C 	C 	0.98493 0.26617 0.40677 -0.03500
H 	H 	0.01763 0.25667 0.38637 0.06400
C 	C 	0.08083 0.54287 0.43007 0.32200
C 	C 	0.96463 0.23337 0.42397 0.11200
O 	O 	0.09953 0.57047 0.41762 -0.45300
O 	O 	0.06563 0.53682 0.45573 -0.38700
In	In	0.09297 0.59750 0.46121 1.99400
O 	O 	0.09490 0.63207 0.50308 -0.41300
O 	O 	0.06705 0.57619 0.51026 -0.41400
O 	O 	0.14797 0.63632 0.44843 -0.42600
O 	O 	0.13664 0.59425 0.48359 -0.42200
O 	O 	0.07973 0.62944 0.42694 -0.44800
O 	O 	0.04053 0.58917 0.45427 -0.31100
C 	C 	0.07663 0.60467 0.51987 0.29600
C 	C 	0.15633 0.62007 0.46547 0.29200
C 	C 	0.06843 0.61197 0.55518 -0.07100
C 	C 	0.19393 0.63057 0.46967 -0.07200
C 	C 	0.06703 0.64057 0.56447 0.00400
C 	C 	0.06128 0.58656 0.57797 0.01800
C 	C 	0.20373 0.61487 0.49287 0.04800
C 	C 	0.21825 0.65687 0.45067 0.05300
C 	C 	0.05838 0.64375 0.59647 -0.01400
C 	C 	0.05267 0.58971 0.60996 0.00600
C 	C 	0.23793 0.62547 0.49717 0.03000
C 	C 	0.25233 0.66737 0.45487 -0.01600
C 	C 	0.05113 0.61827 0.61921 -0.03600
C 	C 	0.26213 0.65167 0.47817 -0.02100
C 	C 	0.03813 0.61977 0.65217 0.11300
C 	C 	0.29733 0.65817 0.47777 -0.01100
C 	C 	0.04423 0.65007 0.66737 -0.16500
C 	C 	0.01873 0.59017 0.66947 -0.16700
C 	C 	0.32643 0.69297 0.48127 0.02200
H 	H 	0.05673 0.67067 0.65657 0.10000
C 	C 	0.03133 0.64897 0.69877 0.11000
C 	C 	0.00673 0.58847 0.69977 0.09600
H 	H 	0.01373 0.56997 0.65927 0.09900
C 	C 	0.01263 0.61857 0.71567 -0.16000
C 	C 	0.03883 0.68197 0.71506 -0.02700
C 	C 	0.98603 0.55567 0.71817 0.01300
H 	H 	0.00433 0.61807 0.73657 0.09600
C 	C 	0.07157 0.70947 0.71647 -0.00300
C 	C 	0.01216 0.68440 0.72867 -0.01100
C 	C 	0.98823 0.55187 0.75177 -0.08200
C 	C 	0.96343 0.52567 0.69997 -0.09600
C 	C 	0.07763 0.73937 0.73147 0.03600
C 	C 	0.01819 0.71427 0.74367 0.03700
H 	H 	0.00193 0.57027 0.76517 0.06900
C 	C 	0.96873 0.51877 0.76497 0.01300
C 	C 	0.94603 0.49577 0.71477 0.03600
H 	H 	0.96103 0.52727 0.67747 0.06900
C 	C 	0.05095 0.74179 0.74508 -0.11300
H 	H 	0.96913 0.51577 0.78747 0.06400
C 	C 	0.94933 0.49097 0.74547 -0.08800
H 	H 	0.93073 0.47737 0.70227 0.04200
C 	C 	0.05833 0.77507 0.76327 0.37600
C 	C 	0.93273 0.45777 0.76237 0.31800
C 	C 	0.04753 0.47677 0.41797 0.02500
C 	C 	0.24003 0.61937 0.48177 -0.03500
C 	C 	0.20593 0.60917 0.47907 -0.00200
C 	C 	0.26073 0.64537 0.46037 0.04000
C 	C 	0.25003 0.66307 0.44057 -0.00200
C 	C 	0.29713 0.65637 0.45657 0.00700
C 	C 	0.32403 0.69197 0.46157 -0.01500
C 	C 	0.21343 0.48857 0.12467 0.21000
C 	C 	0.22003 0.52847 0.12267 -0.08600
C 	C 	0.03133 0.58927 0.60087 -0.01100
C 	C 	0.04123 0.58437 0.56997 0.03800
C 	C 	0.07513 0.64677 0.60237 0.00800
C 	C 	0.08273 0.64377 0.56987 0.04100
C 	C 	0.05903 0.69477 0.74287 -0.00600
C 	C 	0.06363 0.72307 0.76007 0.04600
C 	C 	0.03053 0.73097 0.71727 0.03600
C 	C 	0.03023 0.70427 0.70057 -0.00800
O 	O 	0.08843 0.79337 0.77167 -0.18100
C 	C 	0.96200 0.23177 0.42047 0.14000
In	In	0.75934 0.93559 0.54220 2.01700
O 	O 	0.73860 0.92550 0.49413 -1.63500
O 	O 	0.76930 0.97720 0.50560 -0.68300
O 	O 	0.80500 0.92560 0.51820 -0.34100
O 	O 	0.81323 0.96190 0.55230 -0.44600
O 	O 	0.76165 0.97442 0.57925 -0.39100
O 	O 	0.71339 0.94059 0.55800 -0.39100
O 	O 	0.72788 0.87932 0.54190 -0.39100
O 	O 	0.75270 0.90150 0.58740 -0.42300
C 	C 	0.74660 0.94840 0.48390 2.90300
C 	C 	0.82650 0.94810 0.53640 0.10200
C 	C 	0.74630 0.96160 0.46380 -2.40700
C 	C 	0.85860 0.95600 0.53620 -0.07200
C 	C 	0.72300 0.94150 0.43090 0.65800
C 	C 	0.75610 0.98950 0.44620 1.46800
C 	C 	0.87350 0.93940 0.52110 0.08100
C 	C 	0.87860 0.98360 0.55620 0.17000
H 	H 	0.71000 0.91830 0.43440 -0.14600
C 	C 	0.71770 0.95100 0.39850 -0.59400
C 	C 	0.75770 0.00780 0.41580 -0.86900
H 	H 	0.76870 0.00680 0.46110 -0.36100
C 	C 	0.90950 0.95300 0.52630 -0.15000
C 	C 	0.91420 0.99640 0.56040 -0.18300
H 	H 	0.70230 0.93490 0.38410 0.25100
C 	C 	0.73630 0.98460 0.38960 0.43400
H 	H 	0.77060 0.03120 0.41350 0.35400
H 	H 	0.91990 0.94250 0.51580 0.09000
C 	C 	0.92830 0.97970 0.54510 0.08800
H 	H 	0.92730 0.01550 0.57320 0.10400
C 	C 	0.73170 0.99170 0.35410 -0.11500
C 	C 	0.96660 0.98830 0.54510 0.05200
C 	C 	0.75880 0.01520 0.33660 -0.02000
C 	C 	0.69940 0.97690 0.33830 -0.02100
C 	C 	0.98830 0.02280 0.54530 -0.12600
H 	H 	0.78000 0.02500 0.34640 0.04100
C 	C 	0.75670 0.02520 0.30500 0.02300
C 	C 	0.69640 0.98680 0.30650 0.01500
H 	H 	0.68030 0.96060 0.34930 0.04000
H 	H 	0.98040 0.03790 0.54570 0.07900
C 	C 	0.72510 0.01040 0.29090 -0.08200
C 	C 	0.78560 0.04946 0.28640 0.01300
C 	C 	0.66210 0.97190 0.29120 0.04200
H 	H 	0.72320 0.01670 0.26970 0.07200
C 	C 	0.81790 0.05661 0.29552 -0.07300
C 	C 	0.78154 0.06760 0.26110 -0.01600
C 	C 	0.65500 0.99350 0.27150 -0.07900
C 	C 	0.63680 0.93980 0.29570 -0.08400
H 	H 	0.82060 0.04450 0.31240 0.06200
C 	C 	0.84611 0.08190 0.27940 -0.00700
C 	C 	0.80970 0.09290 0.24500 0.01800
H 	H 	0.67160 0.01610 0.26870 0.06700
C 	C 	0.62390 0.98150 0.25650 -0.00300
C 	C 	0.60640 0.92850 0.27850 0.00400
H 	H 	0.63940 0.92540 0.31000 0.06900
H 	H 	0.86770 0.08670 0.28550 0.05800
C 	C 	0.84203 0.10009 0.25420 -0.05000
H 	H 	0.61950 0.99600 0.24410 0.06000
C 	C 	0.59950 0.94790 0.25990 -0.03500
H 	H 	0.59000 0.90570 0.28030 0.06400
C 	C 	0.87620 0.12870 0.23660 0.32200
C 	C 	0.56670 0.93540 0.24270 0.11200
O 	O 	0.90380 0.13760 0.24905 -0.45300
O 	O 	0.87015 0.13785 0.21094 -0.38700
In	In	0.93083 0.17120 0.20545 1.99400
O 	O 	0.96540 0.20383 0.16359 -0.41300
O 	O 	0.90952 0.17580 0.15641 -0.41400
O 	O 	0.96965 0.15501 0.21824 -0.42600
O 	O 	0.92758 0.12427 0.18308 -0.42200
O 	O 	0.96277 0.21637 0.23973 -0.44800
O 	O 	0.92250 0.21530 0.21240 -0.31100
C 	C 	0.93800 0.19470 0.14680 0.29600
C 	C 	0.95340 0.13040 0.20120 0.29200
C 	C 	0.94530 0.21020 0.11149 -0.07100
C 	C 	0.96390 0.10330 0.19700 -0.07200
C 	C 	0.97390 0.24020 0.10220 0.00400
C 	C 	0.91989 0.19194 0.08870 0.01800
C 	C 	0.94820 0.07780 0.17380 0.04800
C 	C 	0.99020 0.10528 0.21600 0.05300
C 	C 	0.97708 0.25203 0.07020 -0.01400
C 	C 	0.92304 0.20370 0.05671 0.00600
C 	C 	0.95880 0.05420 0.16950 0.03000
C 	C 	0.00070 0.08170 0.21180 -0.01600
C 	C 	0.95160 0.23380 0.04746 -0.03600
C 	C 	0.98500 0.05620 0.18850 -0.02100
C 	C 	0.95310 0.24830 0.01450 0.11300
C 	C 	0.99150 0.02750 0.18890 -0.01100
C 	C 	0.98340 0.27250 0.99930 -0.16500
C 	C 	0.92350 0.23810 0.99720 -0.16700
C 	C 	0.02630 0.03320 0.18540 0.02200
H 	H 	0.00400 0.28060 0.01010 0.10000
C 	C 	0.98230 0.28430 0.96790 0.11000
C 	C 	0.92180 0.24840 0.96690 0.09600
H 	H 	0.90330 0.22290 0.00740 0.09900
C 	C 	0.95190 0.27260 0.95100 -0.16000
C 	C 	0.01530 0.30980 0.95161 -0.02700
C 	C 	0.88900 0.23630 0.94850 0.01300
H 	H 	0.95140 0.28040 0.93010 0.09600
C 	C 	0.04280 0.30456 0.95020 -0.00300
C 	C 	0.01773 0.33890 0.93800 -0.01100
C 	C 	0.88520 0.23030 0.91490 -0.08200
C 	C 	0.85900 0.22890 0.96670 -0.09600
C 	C 	0.07270 0.32840 0.93520 0.03600
C 	C 	0.04760 0.36274 0.92300 0.03700
H 	H 	0.90360 0.23500 0.90150 0.06900
C 	C 	0.85210 0.21670 0.90170 0.01300
C 	C 	0.82910 0.21640 0.95190 0.03600
H 	H 	0.86060 0.23290 0.98920 0.06900
C 	C 	0.07512 0.35750 0.92159 -0.11300
H 	H 	0.84910 0.21330 0.87920 0.06400
C 	C 	0.82430 0.20830 0.92120 -0.08800
H 	H 	0.81070 0.21330 0.96440 0.04200
C 	C 	0.10840 0.38340 0.90340 0.37600
C 	C 	0.79110 0.19170 0.90430 0.31800
C 	C 	0.81010 0.09590 0.24870 0.02500
C 	C 	0.95270 0.04600 0.18490 -0.03500
C 	C 	0.94250 0.06990 0.18760 -0.00200
C 	C 	0.97870 0.05130 0.20630 0.04000
C 	C 	0.99640 0.07970 0.22610 -0.00200
C 	C 	0.98970 0.02590 0.21010 0.00700
C 	C 	0.02530 0.03460 0.20510 -0.01500
C 	C 	0.82190 0.94180 0.54200 0.21000
C 	C 	0.86180 0.97510 0.54400 -0.08600
C 	C 	0.92260 0.22460 0.06580 -0.01100
C 	C 	0.91770 0.20980 0.09670 0.03800
C 	C 	0.98010 0.23830 0.06430 0.00800
C 	C 	0.97710 0.22770 0.09680 0.04100
C 	C 	0.02810 0.30240 0.92380 -0.00600
C 	C 	0.05640 0.32610 0.90660 0.04600
C 	C 	0.06430 0.36710 0.94940 0.03600
C 	C 	0.03760 0.34070 0.96610 -0.00800
O 	O 	0.12670 0.37160 0.89500 -0.18100
C 	C 	0.56510 0.93643 0.24620 0.14000
In	In	0.42601 0.26892 0.87553 2.01700
O 	O 	0.40527 0.25883 0.82746 -1.63500
O 	O 	0.43597 0.31053 0.83893 -0.68300
O 	O 	0.47167 0.25893 0.85153 -0.34100
O 	O 	0.47990 0.29523 0.88563 -0.44600
O 	O 	0.42832 0.30775 0.91258 -0.39100
O 	O 	0.38006 0.27392 0.89133 -0.39100
O 	O 	0.39455 0.21265 0.87523 -0.39100
O 	O 	0.41937 0.23483 0.92073 -0.42300
C 	C 	0.41327 0.28173 0.81723 2.90300
C 	C 	0.49317 0.28143 0.86973 0.10200
C 	C 	0.41297 0.29493 0.79713 -2.40700
C 	C 	0.52527 0.28933 0.86953 -0.07200
C 	C 	0.38967 0.27483 0.76423 0.65800
C 	C 	0.42277 0.32283 0.77953 1.46800
C 	C 	0.54017 0.27273 0.85443 0.08100
C 	C 	0.54527 0.31693 0.88953 0.17000
H 	H 	0.37667 0.25163 0.76773 -0.14600
C 	C 	0.38437 0.28433 0.73183 -0.59400
C 	C 	0.42437 0.34113 0.74913 -0.86900
H 	H 	0.43537 0.34013 0.79443 -0.36100
C 	C 	0.57617 0.28633 0.85963 -0.15000
C 	C 	0.58087 0.32973 0.89373 -0.18300
H 	H 	0.36897 0.26823 0.71743 0.25100
C 	C 	0.40297 0.31793 0.72293 0.43400
H 	H 	0.43727 0.36453 0.74683 0.35400
H 	H 	0.58657 0.27583 0.84913 0.09000
C 	C 	0.59497 0.31303 0.87843 0.08800
H 	H 	0.59397 0.34883 0.90653 0.10400
C 	C 	0.39837 0.32503 0.68743 -0.11500
C 	C 	0.63327 0.32163 0.87843 0.05200
C 	C 	0.42547 0.34853 0.66993 -0.02000
C 	C 	0.36607 0.31023 0.67163 -0.02100
C 	C 	0.65497 0.35613 0.87863 -0.12600
H 	H 	0.44667 0.35833 0.67973 0.04100
C 	C 	0.42337 0.35853 0.63833 0.02300
C 	C 	0.36307 0.32013 0.63983 0.01500
H 	H 	0.34697 0.29393 0.68263 0.04000
H 	H 	0.64707 0.37123 0.87903 0.07900
C 	C 	0.39177 0.34373 0.62423 -0.08200
C 	C 	0.45227 0.38279 0.61973 0.01300
C 	C 	0.32877 0.30523 0.62453 0.04200
H 	H 	0.38987 0.35003 0.60303 0.07200
C 	C 	0.48457 0.38994 0.62885 -0.07300
C 	C 	0.44821 0.40093 0.59443 -0.01600
C 	C 	0.32167 0.32683 0.60483 -0.07900
C 	C 	0.30347 0.27313 0.62903 -0.08400
H 	H 	0.48727 0.37783 0.64573 0.06200
C 	C 	0.51278 0.41523 0.61273 -0.00700
C 	C 	0.47637 0.42623 0.57833 0.01800
H 	H 	0.33827 0.34943 0.60203 0.06700
C 	C 	0.29057 0.31483 0.58983 -0.00300
C 	C 	0.27307 0.26183 0.61183 0.00400
H 	H 	0.30607 0.25873 0.64333 0.06900
H 	H 	0.53437 0.42003 0.61883 0.05800
C 	C 	0.50870 0.43342 0.58753 -0.05000
H 	H 	0.28617 0.32933 0.57743 0.06000
C 	C 	0.26617 0.28123 0.59323 -0.03500
H 	H 	0.25667 0.23903 0.61363 0.06400
C 	C 	0.54287 0.46203 0.56993 0.32200
C 	C 	0.23337 0.26873 0.57603 0.11200
O 	O 	0.57047 0.47093 0.58238 -0.45300
O 	O 	0.53682 0.47118 0.54427 -0.38700
In	In	0.59750 0.50453 0.53879 1.99400
O 	O 	0.63207 0.53716 0.49692 -0.41300
O 	O 	0.57619 0.50913 0.48974 -0.41400
O 	O 	0.63632 0.48834 0.55157 -0.42600
O 	O 	0.59425 0.45760 0.51641 -0.42200
O 	O 	0.62944 0.54970 0.57306 -0.44800
O 	O 	0.58917 0.54863 0.54573 -0.31100
C 	C 	0.60467 0.52803 0.48013 0.29600
C 	C 	0.62007 0.46373 0.53453 0.29200
C 	C 	0.61197 0.54353 0.44482 -0.07100
C 	C 	0.63057 0.43663 0.53033 -0.07200
C 	C 	0.64057 0.57353 0.43553 0.00400
C 	C 	0.58656 0.52527 0.42203 0.01800
C 	C 	0.61487 0.41113 0.50713 0.04800
C 	C 	0.65687 0.43861 0.54933 0.05300
C 	C 	0.64375 0.58536 0.40353 -0.01400
C 	C 	0.58971 0.53703 0.39004 0.00600
C 	C 	0.62547 0.38753 0.50283 0.03000
C 	C 	0.66737 0.41503 0.54513 -0.01600
C 	C 	0.61827 0.56713 0.38079 -0.03600
C 	C 	0.65167 0.38953 0.52183 -0.02100
C 	C 	0.61977 0.58163 0.34783 0.11300
C 	C 	0.65817 0.36083 0.52223 -0.01100
C 	C 	0.65007 0.60583 0.33263 -0.16500
C 	C 	0.59017 0.57143 0.33053 -0.16700
C 	C 	0.69297 0.36653 0.51873 0.02200
H 	H 	0.67067 0.61393 0.34343 0.10000
C 	C 	0.64897 0.61763 0.30123 0.11000
C 	C 	0.58847 0.58173 0.30023 0.09600
H 	H 	0.56997 0.55623 0.34073 0.09900
C 	C 	0.61857 0.60593 0.28433 -0.16000
C 	C 	0.68197 0.64313 0.28494 -0.02700
C 	C 	0.55567 0.56963 0.28183 0.01300
H 	H 	0.61807 0.61373 0.26343 0.09600
C 	C 	0.70947 0.63789 0.28353 -0.00300
C 	C 	0.68440 0.67223 0.27133 -0.01100
C 	C 	0.55187 0.56363 0.24823 -0.08200
C 	C 	0.52567 0.56223 0.30003 -0.09600
C 	C 	0.73937 0.66173 0.26853 0.03600
C 	C 	0.71427 0.69607 0.25633 0.03700
H 	H 	0.57027 0.56833 0.23483 0.06900
C 	C 	0.51877 0.55003 0.23503 0.01300
C 	C 	0.49577 0.54973 0.28523 0.03600
H 	H 	0.52727 0.56623 0.32253 0.06900
C 	C 	0.74179 0.69083 0.25492 -0.11300
H 	H 	0.51577 0.54663 0.21253 0.06400
C 	C 	0.49097 0.54163 0.25453 -0.08800
H 	H 	0.47737 0.54663 0.29773 0.04200
C 	C 	0.77507 0.71673 0.23673 0.37600
C 	C 	0.45777 0.52503 0.23763 0.31800
C 	C 	0.47677 0.42923 0.58203 0.02500
C 	C 	0.61937 0.37933 0.51823 -0.03500
C 	C 	0.60917 0.40323 0.52093 -0.00200
C 	C 	0.64537 0.38463 0.53963 0.04000
C 	C 	0.66307 0.41303 0.55943 -0.00200
C 	C 	0.65637 0.35923 0.54343 0.00700
C 	C 	0.69197 0.36793 0.53843 -0.01500
C 	C 	0.48857 0.27513 0.87533 0.21000
C 	C 	0.52847 0.30843 0.87733 -0.08600
C 	C 	0.58927 0.55793 0.39913 -0.01100
C 	C 	0.58437 0.54313 0.43003 0.03800
C 	C 	0.64677 0.57163 0.39763 0.00800
C 	C 	0.64377 0.56103 0.43013 0.04100
C 	C 	0.69477 0.63573 0.25713 -0.00600
C 	C 	0.72307 0.65943 0.23993 0.04600
C 	C 	0.73097 0.70043 0.28273 0.03600
C 	C 	0.70427 0.67403 0.29943 -0.00800
O 	O 	0.79337 0.70493 0.22833 -0.18100
C 	C 	0.23177 0.26976 0.57953 0.14000
In	In	0.09268 0.60226 0.20887 2.01700
O 	O 	0.07193 0.59217 0.16080 -1.63500
O 	O 	0.10263 0.64387 0.17227 -0.68300
O 	O 	0.13833 0.59227 0.18487 -0.34100
O 	O 	0.14656 0.62857 0.21897 -0.44600
O 	O 	0.09498 0.64109 0.24592 -0.39100
O 	O 	0.04672 0.60726 0.22467 -0.39100
O 	O 	0.06121 0.54599 0.20857 -0.39100
O 	O 	0.08603 0.56817 0.25407 -0.42300
C 	C 	0.07993 0.61507 0.15057 2.90300
C 	C 	0.15983 0.61477 0.20307 0.10200
C 	C 	0.07963 0.62827 0.13047 -2.40700
C 	C 	0.19193 0.62267 0.20287 -0.07200
C 	C 	0.05633 0.60817 0.09757 0.65800
C 	C 	0.08943 0.65617 0.11287 1.46800
C 	C 	0.20683 0.60607 0.18777 0.08100
C 	C 	0.21193 0.65027 0.22287 0.17000
H 	H 	0.04333 0.58497 0.10107 -0.14600
C 	C 	0.05103 0.61767 0.06517 -0.59400
C 	C 	0.09103 0.67447 0.08247 -0.86900
H 	H 	0.10203 0.67347 0.12777 -0.36100
C 	C 	0.24283 0.61967 0.19297 -0.15000
C 	C 	0.24753 0.66307 0.22707 -0.18300
H 	H 	0.03563 0.60157 0.05077 0.25100
C 	C 	0.06963 0.65127 0.05627 0.43400
H 	H 	0.10393 0.69787 0.08017 0.35400
H 	H 	0.25323 0.60917 0.18247 0.09000
C 	C 	0.26163 0.64637 0.21177 0.08800
H 	H 	0.26063 0.68217 0.23987 0.10400
C 	C 	0.06503 0.65837 0.02077 -0.11500
C 	C 	0.29993 0.65497 0.21177 0.05200
C 	C 	0.09213 0.68187 0.00327 -0.02000
C 	C 	0.03273 0.64357 0.00497 -0.02000
C 	C 	0.32163 0.68947 0.21197 -0.12600
H 	H 	0.11333 0.69167 0.01307 0.04100
C 	C 	0.09003 0.69187 0.97167 0.02300
C 	C 	0.02973 0.65347 0.97317 0.01500
H 	H 	0.01363 0.62727 0.01597 0.04000
H 	H 	0.31373 0.70457 0.21237 0.07900
C 	C 	0.05843 0.67707 0.95757 -0.08200
C 	C 	0.11893 0.71613 0.95307 0.01300
C 	C 	0.99543 0.63857 0.95787 0.04200
H 	H 	0.05653 0.68337 0.93637 0.07200
C 	C 	0.15123 0.72328 0.96219 -0.07300
C 	C 	0.11487 0.73427 0.92777 -0.01600
C 	C 	0.98833 0.66017 0.93817 -0.07900
C 	C 	0.97013 0.60647 0.96237 -0.08400
H 	H 	0.15393 0.71117 0.97907 0.06200
C 	C 	0.17944 0.74857 0.94607 -0.00700
C 	C 	0.14303 0.75957 0.91167 0.01800
H 	H 	0.00493 0.68277 0.93537 0.06600
C 	C 	0.95723 0.64817 0.92317 -0.00300
C 	C 	0.93973 0.59517 0.94517 0.00400
H 	H 	0.97273 0.59207 0.97667 0.06900
H 	H 	0.20103 0.75337 0.95217 0.05800
C 	C 	0.17536 0.76676 0.92087 -0.05000
H 	H 	0.95283 0.66267 0.91077 0.06000
C 	C 	0.93283 0.61457 0.92657 -0.03500
H 	H 	0.92333 0.57237 0.94697 0.06400
C 	C 	0.20953 0.79537 0.90327 0.32200
C 	C 	0.90003 0.60207 0.90937 0.11200
O 	O 	0.23713 0.80427 0.91572 -0.45300
O 	O 	0.20348 0.80452 0.87761 -0.38700
In	In	0.26417 0.83786 0.87212 1.99400
O 	O 	0.29873 0.87050 0.83026 -0.41300
O 	O 	0.24285 0.84247 0.82308 -0.41400
O 	O 	0.30298 0.82168 0.88491 -0.42600
O 	O 	0.26091 0.79094 0.84975 -0.42200
O 	O 	0.29610 0.88304 0.90640 -0.44800
O 	O 	0.25583 0.88197 0.87907 -0.31100
C 	C 	0.27133 0.86137 0.81347 0.29600
C 	C 	0.28673 0.79707 0.86787 0.29200
C 	C 	0.27863 0.87687 0.77816 -0.07100
C 	C 	0.29723 0.76997 0.86367 -0.07200
C 	C 	0.30723 0.90687 0.76887 0.00400
C 	C 	0.25322 0.85861 0.75537 0.01800
C 	C 	0.28153 0.74447 0.84047 0.04800
C 	C 	0.32353 0.77195 0.88267 0.05300
C 	C 	0.31041 0.91870 0.73687 -0.01400
C 	C 	0.25637 0.87037 0.72338 0.00600
C 	C 	0.29213 0.72087 0.83617 0.03000
C 	C 	0.33403 0.74837 0.87847 -0.01600
C 	C 	0.28493 0.90047 0.71413 -0.03600
C 	C 	0.31833 0.72287 0.85517 -0.02100
C 	C 	0.28643 0.91497 0.68117 0.11300
C 	C 	0.32483 0.69417 0.85557 -0.01100
C 	C 	0.31673 0.93917 0.66597 -0.16500
C 	C 	0.25683 0.90477 0.66387 -0.16700
C 	C 	0.35963 0.69987 0.85207 0.02200
H 	H 	0.33733 0.94727 0.67677 0.10000
C 	C 	0.31563 0.95097 0.63457 0.11000
C 	C 	0.25513 0.91507 0.63357 0.09600
H 	H 	0.23663 0.88957 0.67407 0.09900
C 	C 	0.28523 0.93927 0.61767 -0.16000
C 	C 	0.34863 0.97647 0.61828 -0.02700
C 	C 	0.22233 0.90297 0.61517 0.01300
H 	H 	0.28473 0.94707 0.59677 0.09600
C 	C 	0.37613 0.97123 0.61687 -0.00300
C 	C 	0.35106 0.00557 0.60467 -0.01100
C 	C 	0.21853 0.89697 0.58157 -0.08200
C 	C 	0.19233 0.89557 0.63337 -0.09600
C 	C 	0.40603 0.99507 0.60187 0.03600
C 	C 	0.38093 0.02941 0.58967 0.03700
H 	H 	0.23693 0.90167 0.56817 0.06900
C 	C 	0.18543 0.88337 0.56837 0.01300
C 	C 	0.16243 0.88307 0.61857 0.03600
H 	H 	0.19393 0.89957 0.65587 0.06900
C 	C 	0.40845 0.02417 0.58826 -0.11300
H 	H 	0.18243 0.87997 0.54587 0.06400
C 	C 	0.15763 0.87497 0.58787 -0.08800
H 	H 	0.14403 0.87997 0.63107 0.04200
C 	C 	0.44173 0.05007 0.57007 0.37600
C 	C 	0.12443 0.85837 0.57097 0.31800
C 	C 	0.14343 0.76257 0.91537 0.02500
C 	C 	0.28603 0.71267 0.85157 -0.03500
C 	C 	0.27583 0.73657 0.85427 -0.00200
C 	C 	0.31203 0.71797 0.87297 0.04000
C 	C 	0.32973 0.74637 0.89277 -0.00200
C 	C 	0.32303 0.69257 0.87677 0.00700
C 	C 	0.35863 0.70127 0.87177 -0.01500
C 	C 	0.15523 0.60847 0.20867 0.21000
C 	C 	0.19513 0.64177 0.21067 -0.08600
C 	C 	0.25593 0.89127 0.73247 -0.01100
C 	C 	0.25103 0.87647 0.76337 0.03800
C 	C 	0.31343 0.90497 0.73097 0.00800
C 	C 	0.31043 0.89437 0.76347 0.04100
C 	C 	0.36143 0.96907 0.59047 -0.00600
C 	C 	0.38973 0.99277 0.57327 0.04600
C 	C 	0.39763 0.03377 0.61607 0.03600
C 	C 	0.37093 0.00737 0.63277 -0.00800
O 	O 	0.46003 0.03827 0.56167 -0.18100
C 	C 	0.89843 0.60310 0.91287 0.14000
In	In	0.06441 0.82375 0.54220 2.01700
O 	O 	0.07450 0.81310 0.49413 -1.63500
O 	O 	0.02280 0.79210 0.50560 -0.68300
O 	O 	0.07440 0.87940 0.51820 -0.34100
O 	O 	0.03810 0.85133 0.55230 -0.44600
O 	O 	0.02558 0.78723 0.57925 -0.39100
O 	O 	0.05941 0.77280 0.55800 -0.39100
O 	O 	0.12068 0.84856 0.54190 -0.39100
O 	O 	0.09850 0.85120 0.58740 -0.42300
C 	C 	0.05160 0.79820 0.48390 2.90300
C 	C 	0.05190 0.87840 0.53640 0.10200
C 	C 	0.03840 0.78470 0.46380 -2.40700
C 	C 	0.04400 0.90260 0.53620 -0.07200
C 	C 	0.05850 0.78150 0.43090 0.65800
C 	C 	0.01050 0.76660 0.44620 1.46800
C 	C 	0.06060 0.93410 0.52110 0.08100
C 	C 	0.01640 0.89500 0.55620 0.17000
H 	H 	0.08170 0.79170 0.43440 -0.14600
C 	C 	0.04900 0.76670 0.39850 -0.59400
C 	C 	0.99220 0.74990 0.41580 -0.86900
H 	H 	0.99320 0.76190 0.46110 -0.36100
C 	C 	0.04700 0.95650 0.52630 -0.15100
C 	C 	0.00360 0.91780 0.56040 -0.18300
H 	H 	0.06510 0.76740 0.38410 0.25100
C 	C 	0.01540 0.75170 0.38960 0.43400
H 	H 	0.96880 0.73940 0.41350 0.35400
H 	H 	0.05750 0.97740 0.51580 0.09000
C 	C 	0.02030 0.94860 0.54510 0.08800
H 	H 	0.98450 0.91180 0.57320 0.10400
C 	C 	0.00830 0.74000 0.35410 -0.11500
C 	C 	0.01170 0.97830 0.54510 0.05200
C 	C 	0.98480 0.74360 0.33660 -0.02000
C 	C 	0.02310 0.72250 0.33830 -0.02100
C 	C 	0.97720 0.96550 0.54530 -0.12600
H 	H 	0.97500 0.75500 0.34640 0.04100
C 	C 	0.97480 0.73150 0.30500 0.02300
C 	C 	0.01320 0.70960 0.30650 0.01500
H 	H 	0.03940 0.71970 0.34930 0.04000
H 	H 	0.96210 0.94250 0.54570 0.07900
C 	C 	0.98960 0.71470 0.29090 -0.08200
C 	C 	0.95054 0.73614 0.28640 0.01300
C 	C 	0.02810 0.69020 0.29120 0.04200
H 	H 	0.98330 0.70650 0.26970 0.07200
C 	C 	0.94339 0.76129 0.29552 -0.07300
C 	C 	0.93240 0.71394 0.26110 -0.01600
C 	C 	0.00650 0.66150 0.27150 -0.07900
C 	C 	0.06020 0.69700 0.29570 -0.08400
H 	H 	0.95550 0.77610 0.31240 0.06200
C 	C 	0.91810 0.76421 0.27940 -0.00700
C 	C 	0.90710 0.71680 0.24500 0.01800
H 	H 	0.98390 0.65550 0.26870 0.06700
C 	C 	0.01850 0.64240 0.25650 -0.00300
C 	C 	0.07150 0.67790 0.27850 0.00400
H 	H 	0.07460 0.71400 0.31000 0.06900
H 	H 	0.91330 0.78100 0.28550 0.05800
C 	C 	0.89991 0.74194 0.25420 -0.05000
H 	H 	0.00400 0.62350 0.24410 0.06000
C 	C 	0.05210 0.65160 0.25990 -0.03500
H 	H 	0.09430 0.68430 0.28030 0.06400
C 	C 	0.87130 0.74750 0.23660 0.32200
C 	C 	0.06460 0.63130 0.24270 0.11200
O 	O 	0.86240 0.76620 0.24905 -0.45300
O 	O 	0.86215 0.73230 0.21094 -0.38700
In	In	0.82880 0.75964 0.20545 1.99400
O 	O 	0.79617 0.76157 0.16359 -0.41300
O 	O 	0.82420 0.73372 0.15641 -0.41400
O 	O 	0.84499 0.81464 0.21824 -0.42600
O 	O 	0.87573 0.80331 0.18308 -0.42200
O 	O 	0.78363 0.74640 0.23973 -0.44800
O 	O 	0.78470 0.70720 0.21240 -0.31100
C 	C 	0.80530 0.74330 0.14680 0.29600
C 	C 	0.86960 0.82300 0.20120 0.29200
C 	C 	0.78980 0.73510 0.11149 -0.07100
C 	C 	0.89670 0.86060 0.19700 -0.07200
C 	C 	0.75980 0.73370 0.10220 0.00400
C 	C 	0.80806 0.72795 0.08870 0.01800
C 	C 	0.92220 0.87040 0.17380 0.04800
C 	C 	0.89472 0.88492 0.21600 0.05300
C 	C 	0.74797 0.72505 0.07020 -0.01400
C 	C 	0.79630 0.71934 0.05671 0.00600
C 	C 	0.94580 0.90460 0.16950 0.03000
C 	C 	0.91830 0.91900 0.21180 -0.01600
C 	C 	0.76620 0.71780 0.04746 -0.03600
C 	C 	0.94380 0.92880 0.18850 -0.02100
C 	C 	0.75170 0.70480 0.01450 0.11300
C 	C 	0.97250 0.96400 0.18890 -0.01100
C 	C 	0.72750 0.71090 0.99930 -0.16500
C 	C 	0.76190 0.68540 0.99720 -0.16700
C 	C 	0.96680 0.99310 0.18540 0.02200
H 	H 	0.71940 0.72340 0.01010 0.10000
C 	C 	0.71570 0.69800 0.96790 0.11000
C 	C 	0.75160 0.67340 0.96690 0.09600
H 	H 	0.77710 0.68040 0.00740 0.09900
C 	C 	0.72740 0.67930 0.95100 -0.16000
C 	C 	0.69020 0.70550 0.95161 -0.02700
C 	C 	0.76370 0.65270 0.94850 0.01300
H 	H 	0.71960 0.67100 0.93010 0.09600
C 	C 	0.69544 0.73824 0.95020 -0.00300
C 	C 	0.66110 0.67883 0.93800 -0.01100
C 	C 	0.76970 0.65490 0.91490 -0.08200
C 	C 	0.77110 0.63010 0.96670 -0.09600
C 	C 	0.67160 0.74430 0.93520 0.03600
C 	C 	0.63726 0.68486 0.92300 0.03700
H 	H 	0.76500 0.66860 0.90150 0.06900
C 	C 	0.78330 0.63540 0.90170 0.01300
C 	C 	0.78360 0.61270 0.95190 0.03600
H 	H 	0.76710 0.62770 0.98920 0.06900
C 	C 	0.64250 0.71762 0.92159 -0.11300
H 	H 	0.78670 0.63580 0.87920 0.06400
C 	C 	0.79170 0.61600 0.92120 -0.08800
H 	H 	0.78670 0.59740 0.96440 0.04200
C 	C 	0.61660 0.72500 0.90340 0.37600
C 	C 	0.80830 0.59940 0.90430 0.31800
C 	C 	0.90410 0.71420 0.24870 0.02500
C 	C 	0.95400 0.90670 0.18490 -0.03500
C 	C 	0.93010 0.87260 0.18760 -0.00200
C 	C 	0.94870 0.92740 0.20630 0.04000
C 	C 	0.92030 0.91670 0.22610 -0.00200
C 	C 	0.97410 0.96380 0.21010 0.00700
C 	C 	0.96540 0.99070 0.20510 -0.01500
C 	C 	0.05820 0.88010 0.54200 0.21000
C 	C 	0.02490 0.88670 0.54400 -0.08600
C 	C 	0.77540 0.69800 0.06580 -0.01100
C 	C 	0.79020 0.70790 0.09670 0.03800
C 	C 	0.76170 0.74180 0.06430 0.00800
C 	C 	0.77230 0.74940 0.09680 0.04100
C 	C 	0.69760 0.72570 0.92380 -0.00600
C 	C 	0.67390 0.73030 0.90660 0.04600
C 	C 	0.63290 0.69720 0.94940 0.03600
C 	C 	0.65930 0.69690 0.96610 -0.00800
O 	O 	0.62840 0.75510 0.89500 -0.18100
C 	C 	0.06357 0.62867 0.24620 0.14000
In	In	0.73108 0.15709 0.87553 2.01700
O 	O 	0.74117 0.14643 0.82746 -1.63500
O 	O 	0.68947 0.12543 0.83893 -0.68300
O 	O 	0.74107 0.21273 0.85153 -0.34100
O 	O 	0.70477 0.18466 0.88563 -0.44600
O 	O 	0.69225 0.12056 0.91258 -0.39100
O 	O 	0.72608 0.10613 0.89133 -0.39000
O 	O 	0.78735 0.18189 0.87523 -0.39100
O 	O 	0.76517 0.18453 0.92073 -0.42300
C 	C 	0.71827 0.13153 0.81723 2.90300
C 	C 	0.71857 0.21173 0.86973 0.10200
C 	C 	0.70507 0.11803 0.79713 -2.40700
C 	C 	0.71067 0.23593 0.86953 -0.07200
C 	C 	0.72517 0.11483 0.76423 0.65800
C 	C 	0.67717 0.09993 0.77953 1.46800
C 	C 	0.72727 0.26743 0.85443 0.08100
C 	C 	0.68307 0.22833 0.88953 0.17000
H 	H 	0.74837 0.12503 0.76773 -0.14600
C 	C 	0.71567 0.10003 0.73183 -0.59400
C 	C 	0.65887 0.08323 0.74913 -0.86900
H 	H 	0.65987 0.09523 0.79443 -0.36100
C 	C 	0.71367 0.28983 0.85963 -0.15000
C 	C 	0.67027 0.25113 0.89373 -0.18300
H 	H 	0.73177 0.10073 0.71743 0.25100
C 	C 	0.68207 0.08503 0.72293 0.43400
H 	H 	0.63547 0.07273 0.74683 0.35400
H 	H 	0.72417 0.31073 0.84913 0.09000
C 	C 	0.68697 0.28193 0.87843 0.08800
H 	H 	0.65117 0.24513 0.90653 0.10400
C 	C 	0.67497 0.07333 0.68743 -0.11500
C 	C 	0.67837 0.31163 0.87843 0.05200
C 	C 	0.65147 0.07693 0.66993 -0.02000
C 	C 	0.68977 0.05583 0.67163 -0.02100
C 	C 	0.64387 0.29883 0.87863 -0.12600
H 	H 	0.64167 0.08833 0.67973 0.04100
C 	C 	0.64147 0.06483 0.63833 0.02300
C 	C 	0.67987 0.04293 0.63983 0.01500
H 	H 	0.70607 0.05303 0.68263 0.04000
H 	H 	0.62877 0.27583 0.87903 0.07900
C 	C 	0.65627 0.04803 0.62423 -0.08200
C 	C 	0.61721 0.06947 0.61973 0.01300
C 	C 	0.69477 0.02353 0.62453 0.04200
H 	H 	0.64997 0.03983 0.60303 0.07200
C 	C 	0.61006 0.09462 0.62885 -0.07300
C 	C 	0.59907 0.04727 0.59443 -0.01600
C 	C 	0.67317 0.99483 0.60483 -0.07900
C 	C 	0.72687 0.03033 0.62903 -0.08400
H 	H 	0.62217 0.10943 0.64573 0.06200
C 	C 	0.58477 0.09754 0.61273 -0.00700
C 	C 	0.57377 0.05013 0.57833 0.01800
H 	H 	0.65057 0.98883 0.60203 0.06700
C 	C 	0.68517 0.97573 0.58983 -0.00300
C 	C 	0.73817 0.01123 0.61183 0.00400
H 	H 	0.74127 0.04733 0.64333 0.06900
H 	H 	0.57997 0.11433 0.61883 0.05800
C 	C 	0.56658 0.07527 0.58753 -0.05000
H 	H 	0.67067 0.95683 0.57743 0.06000
C 	C 	0.71877 0.98493 0.59323 -0.03500
H 	H 	0.76097 0.01763 0.61363 0.06400
C 	C 	0.53797 0.08083 0.56993 0.32200
C 	C 	0.73127 0.96463 0.57603 0.11200
O 	O 	0.52907 0.09953 0.58238 -0.45300
O 	O 	0.52882 0.06563 0.54427 -0.38700
In	In	0.49547 0.09297 0.53879 1.99400
O 	O 	0.46284 0.09490 0.49692 -0.41300
O 	O 	0.49087 0.06705 0.48974 -0.41400
O 	O 	0.51166 0.14797 0.55157 -0.42600
O 	O 	0.54240 0.13664 0.51641 -0.42200
O 	O 	0.45030 0.07973 0.57306 -0.44800
O 	O 	0.45137 0.04053 0.54573 -0.31100
C 	C 	0.47197 0.07663 0.48013 0.29600
C 	C 	0.53627 0.15633 0.53453 0.29200
C 	C 	0.45647 0.06843 0.44482 -0.07100
C 	C 	0.56337 0.19393 0.53033 -0.07200
C 	C 	0.42647 0.06703 0.43553 0.00400
C 	C 	0.47473 0.06128 0.42203 0.01800
C 	C 	0.58887 0.20373 0.50713 0.04800
C 	C 	0.56139 0.21825 0.54933 0.05300
C 	C 	0.41464 0.05838 0.40353 -0.01400
C 	C 	0.46297 0.05267 0.39004 0.00600
C 	C 	0.61247 0.23793 0.50283 0.03000
C 	C 	0.58497 0.25233 0.54513 -0.01600
C 	C 	0.43287 0.05113 0.38079 -0.03600
C 	C 	0.61047 0.26213 0.52183 -0.02100
C 	C 	0.41837 0.03813 0.34783 0.11300
C 	C 	0.63917 0.29733 0.52223 -0.01100
C 	C 	0.39417 0.04423 0.33263 -0.16500
C 	C 	0.42857 0.01873 0.33053 -0.16700
C 	C 	0.63347 0.32643 0.51873 0.02200
H 	H 	0.38607 0.05673 0.34343 0.10000
C 	C 	0.38237 0.03133 0.30123 0.11000
C 	C 	0.41827 0.00673 0.30023 0.09600
H 	H 	0.44377 0.01373 0.34073 0.09900
C 	C 	0.39407 0.01263 0.28433 -0.16000
C 	C 	0.35687 0.03883 0.28494 -0.02700
C 	C 	0.43037 0.98603 0.28183 0.01300
H 	H 	0.38627 0.00433 0.26343 0.09600
C 	C 	0.36211 0.07157 0.28353 -0.00300
C 	C 	0.32777 0.01216 0.27133 -0.01100
C 	C 	0.43637 0.98823 0.24823 -0.08200
C 	C 	0.43777 0.96343 0.30003 -0.09600
C 	C 	0.33827 0.07763 0.26853 0.03600
C 	C 	0.30393 0.01819 0.25633 0.03700
H 	H 	0.43167 0.00193 0.23483 0.06900
C 	C 	0.44997 0.96873 0.23503 0.01300
C 	C 	0.45027 0.94603 0.28523 0.03600
H 	H 	0.43377 0.96103 0.32253 0.06900
C 	C 	0.30917 0.05095 0.25492 -0.11300
H 	H 	0.45337 0.96913 0.21253 0.06400
C 	C 	0.45837 0.94933 0.25453 -0.08800
H 	H 	0.45337 0.93073 0.29773 0.04200
C 	C 	0.28327 0.05833 0.23673 0.37600
C 	C 	0.47497 0.93273 0.23763 0.31900
C 	C 	0.57077 0.04753 0.58203 0.02500
C 	C 	0.62067 0.24003 0.51823 -0.03500
C 	C 	0.59677 0.20593 0.52093 -0.00200
C 	C 	0.61537 0.26073 0.53963 0.04000
C 	C 	0.58697 0.25003 0.55943 -0.00200
C 	C 	0.64077 0.29713 0.54343 0.00700
C 	C 	0.63207 0.32403 0.53843 -0.01500
C 	C 	0.72487 0.21343 0.87533 0.21000
C 	C 	0.69157 0.22003 0.87733 -0.08600
C 	C 	0.44207 0.03133 0.39913 -0.01100
C 	C 	0.45687 0.04123 0.43003 0.03800
C 	C 	0.42837 0.07513 0.39763 0.00800
C 	C 	0.43897 0.08273 0.43013 0.04100
C 	C 	0.36427 0.05903 0.25713 -0.00600
C 	C 	0.34057 0.06363 0.23993 0.04600
C 	C 	0.29957 0.03053 0.28273 0.03600
C 	C 	0.32597 0.03023 0.29943 -0.00800
O 	O 	0.29507 0.08843 0.22833 -0.18100
C 	C 	0.73024 0.96200 0.57953 0.14000
In	In	0.39774 0.49042 0.20887 2.01700
O 	O 	0.40783 0.47977 0.16080 -1.63500
O 	O 	0.35613 0.45877 0.17227 -0.68300
O 	O 	0.40773 0.54607 0.18487 -0.34100
O 	O 	0.37143 0.51800 0.21897 -0.44600
O 	O 	0.35891 0.45390 0.24592 -0.39100
O 	O 	0.39274 0.43947 0.22467 -0.39100
O 	O 	0.45401 0.51523 0.20857 -0.39100
O 	O 	0.43183 0.51787 0.25407 -0.42300
C 	C 	0.38493 0.46487 0.15057 2.90300
C 	C 	0.38523 0.54507 0.20307 0.10200
C 	C 	0.37173 0.45137 0.13047 -2.40700
C 	C 	0.37733 0.56927 0.20287 -0.07200
C 	C 	0.39183 0.44817 0.09757 0.65800
C 	C 	0.34383 0.43327 0.11287 1.46800
C 	C 	0.39393 0.60077 0.18777 0.08100
C 	C 	0.34973 0.56167 0.22287 0.17000
H 	H 	0.41503 0.45837 0.10107 -0.14600
C 	C 	0.38233 0.43337 0.06517 -0.59400
C 	C 	0.32553 0.41657 0.08247 -0.86900
H 	H 	0.32653 0.42857 0.12777 -0.36100
C 	C 	0.38033 0.62317 0.19297 -0.15000
C 	C 	0.33693 0.58447 0.22707 -0.18300
H 	H 	0.39843 0.43407 0.05077 0.25100
C 	C 	0.34873 0.41837 0.05627 0.43400
H 	H 	0.30213 0.40607 0.08017 0.35400
H 	H 	0.39083 0.64407 0.18247 0.09000
C 	C 	0.35363 0.61527 0.21177 0.08800
H 	H 	0.31783 0.57847 0.23987 0.10400
C 	C 	0.34163 0.40667 0.02077 -0.11500
C 	C 	0.34503 0.64497 0.21177 0.05200
C 	C 	0.31813 0.41027 0.00327 -0.02000
C 	C 	0.35643 0.38917 0.00497 -0.02100
C 	C 	0.31053 0.63217 0.21197 -0.12600
H 	H 	0.30833 0.42167 0.01307 0.04100
C 	C 	0.30813 0.39817 0.97167 0.02300
C 	C 	0.34653 0.37627 0.97317 0.01500
H 	H 	0.37273 0.38637 0.01597 0.04000
H 	H 	0.29543 0.60917 0.21237 0.07900
C 	C 	0.32293 0.38137 0.95757 -0.08200
C 	C 	0.28387 0.40281 0.95307 0.01300
C 	C 	0.36143 0.35687 0.95787 0.04200
H 	H 	0.31663 0.37317 0.93637 0.07200
C 	C 	0.27672 0.42796 0.96219 -0.07300
C 	C 	0.26573 0.38061 0.92777 -0.01600
C 	C 	0.33983 0.32817 0.93817 -0.07900
C 	C 	0.39353 0.36367 0.96237 -0.08400
H 	H 	0.28883 0.44277 0.97907 0.06200
C 	C 	0.25143 0.43088 0.94607 -0.00700
C 	C 	0.24043 0.38347 0.91167 0.01800
H 	H 	0.31723 0.32217 0.93537 0.06700
C 	C 	0.35183 0.30907 0.92317 -0.00300
C 	C 	0.40483 0.34457 0.94517 0.00400
H 	H 	0.40793 0.38067 0.97667 0.06900
H 	H 	0.24663 0.44767 0.95217 0.05800
C 	C 	0.23324 0.40861 0.92087 -0.05000
H 	H 	0.33733 0.29017 0.91077 0.06000
C 	C 	0.38543 0.31827 0.92657 -0.03500
H 	H 	0.42763 0.35097 0.94697 0.06400
C 	C 	0.20463 0.41417 0.90327 0.32200
C 	C 	0.39793 0.29797 0.90937 0.11200
O 	O 	0.19573 0.43287 0.91572 -0.45300
O 	O 	0.19548 0.39897 0.87761 -0.38700
In	In	0.16214 0.42630 0.87212 1.99400
O 	O 	0.12950 0.42824 0.83026 -0.41300
O 	O 	0.15753 0.40039 0.82308 -0.41400
O 	O 	0.17832 0.48131 0.88491 -0.42600
O 	O 	0.20906 0.46998 0.84975 -0.42200
O 	O 	0.11696 0.41307 0.90640 -0.44800
O 	O 	0.11803 0.37387 0.87907 -0.31100
C 	C 	0.13863 0.40997 0.81347 0.29600
C 	C 	0.20293 0.48967 0.86787 0.29200
C 	C 	0.12313 0.40177 0.77816 -0.07100
C 	C 	0.23003 0.52727 0.86367 -0.07200
C 	C 	0.09313 0.40037 0.76887 0.00400
C 	C 	0.14139 0.39462 0.75537 0.01800
C 	C 	0.25553 0.53707 0.84047 0.04800
C 	C 	0.22805 0.55159 0.88267 0.05300
C 	C 	0.08130 0.39172 0.73687 -0.01400
C 	C 	0.12963 0.38601 0.72338 0.00600
C 	C 	0.27913 0.57127 0.83617 0.03000
C 	C 	0.25163 0.58567 0.87847 -0.01600
C 	C 	0.09953 0.38447 0.71413 -0.03600
C 	C 	0.27713 0.59547 0.85517 -0.02100
C 	C 	0.08503 0.37147 0.68117 0.11300
C 	C 	0.30583 0.63067 0.85557 -0.01100
C 	C 	0.06083 0.37757 0.66597 -0.16500
C 	C 	0.09523 0.35207 0.66387 -0.16700
C 	C 	0.30013 0.65977 0.85207 0.02200
H 	H 	0.05273 0.39007 0.67677 0.10000
C 	C 	0.04903 0.36467 0.63457 0.11000
C 	C 	0.08493 0.34007 0.63357 0.09600
H 	H 	0.11043 0.34707 0.67407 0.09900
C 	C 	0.06073 0.34597 0.61767 -0.16000
C 	C 	0.02353 0.37217 0.61828 -0.02700
C 	C 	0.09703 0.31937 0.61517 0.01300
H 	H 	0.05293 0.33767 0.59677 0.09600
C 	C 	0.02877 0.40491 0.61687 -0.00300
C 	C 	0.99443 0.34550 0.60467 -0.01100
C 	C 	0.10303 0.32157 0.58157 -0.08200
C 	C 	0.10443 0.29677 0.63337 -0.09600
C 	C 	0.00493 0.41097 0.60187 0.03600
C 	C 	0.97059 0.35153 0.58967 0.03700
H 	H 	0.09833 0.33527 0.56817 0.06900
C 	C 	0.11663 0.30207 0.56837 0.01300
C 	C 	0.11693 0.27937 0.61857 0.03600
H 	H 	0.10043 0.29437 0.65587 0.06900
C 	C 	0.97583 0.38429 0.58826 -0.11300
H 	H 	0.12003 0.30247 0.54587 0.06400
C 	C 	0.12503 0.28267 0.58787 -0.08800
H 	H 	0.12003 0.26407 0.63107 0.04200
C 	C 	0.94993 0.39167 0.57007 0.37600
C 	C 	0.14163 0.26607 0.57097 0.31800
C 	C 	0.23743 0.38087 0.91537 0.02500
C 	C 	0.28733 0.57337 0.85157 -0.03500
C 	C 	0.26343 0.53927 0.85427 -0.00200
C 	C 	0.28203 0.59407 0.87297 0.04000
C 	C 	0.25363 0.58337 0.89277 -0.00200
C 	C 	0.30743 0.63047 0.87677 0.00700
C 	C 	0.29873 0.65737 0.87177 -0.01500
C 	C 	0.39153 0.54677 0.20867 0.21000
C 	C 	0.35823 0.55337 0.21067 -0.08600
C 	C 	0.10873 0.36467 0.73247 -0.01100
C 	C 	0.12353 0.37457 0.76337 0.03800
C 	C 	0.09503 0.40847 0.73097 0.00800
C 	C 	0.10563 0.41607 0.76347 0.04100
C 	C 	0.03093 0.39237 0.59047 -0.00600
C 	C 	0.00723 0.39697 0.57327 0.04600
C 	C 	0.96623 0.36387 0.61607 0.03600
C 	C 	0.99263 0.36357 0.63277 -0.00800
O 	O 	0.96173 0.42177 0.56167 -0.18200
C 	C 	0.39690 0.29534 0.91287 0.14000
In	In	0.17625 0.24066 0.54220 2.01700
O 	O 	0.18690 0.26140 0.49413 -1.63500
O 	O 	0.20790 0.23070 0.50560 -0.68300
O 	O 	0.12060 0.19500 0.51820 -0.34100
O 	O 	0.14867 0.18677 0.55230 -0.44600
O 	O 	0.21277 0.23835 0.57925 -0.39100
O 	O 	0.22720 0.28661 0.55800 -0.39100
O 	O 	0.15144 0.27212 0.54190 -0.39100
O 	O 	0.14880 0.24730 0.58740 -0.42300
C 	C 	0.20180 0.25340 0.48390 2.90300
C 	C 	0.12160 0.17350 0.53640 0.10200
C 	C 	0.21530 0.25370 0.46380 -2.40700
C 	C 	0.09740 0.14140 0.53620 -0.07200
C 	C 	0.21850 0.27700 0.43090 0.65800
C 	C 	0.23340 0.24390 0.44620 1.46800
C 	C 	0.06590 0.12650 0.52110 0.08100
C 	C 	0.10500 0.12140 0.55620 0.17000
H 	H 	0.20830 0.29000 0.43440 -0.14600
C 	C 	0.23330 0.28230 0.39850 -0.59400
C 	C 	0.25010 0.24230 0.41580 -0.86900
H 	H 	0.23810 0.23130 0.46110 -0.36100
C 	C 	0.04350 0.09050 0.52630 -0.15000
C 	C 	0.08220 0.08580 0.56040 -0.18300
H 	H 	0.23260 0.29770 0.38410 0.25100
C 	C 	0.24830 0.26370 0.38960 0.43400
H 	H 	0.26060 0.22940 0.41350 0.35400
H 	H 	0.02260 0.08010 0.51580 0.09000
C 	C 	0.05140 0.07170 0.54510 0.08800
H 	H 	0.08820 0.07270 0.57320 0.10400
C 	C 	0.26000 0.26830 0.35410 -0.11500
C 	C 	0.02170 0.03340 0.54510 0.05200
C 	C 	0.25640 0.24120 0.33660 -0.02000
C 	C 	0.27750 0.30060 0.33830 -0.02100
C 	C 	0.03450 0.01170 0.54530 -0.12600
H 	H 	0.24500 0.22000 0.34640 0.04100
C 	C 	0.26850 0.24330 0.30500 0.02300
C 	C 	0.29040 0.30360 0.30650 0.01500
H 	H 	0.28030 0.31970 0.34930 0.04000
H 	H 	0.05750 0.01960 0.54570 0.07900
C 	C 	0.28530 0.27490 0.29090 -0.08200
C 	C 	0.26386 0.21440 0.28640 0.01300
C 	C 	0.30980 0.33790 0.29120 0.04200
H 	H 	0.29350 0.27680 0.26970 0.07200
C 	C 	0.23871 0.18210 0.29552 -0.07300
C 	C 	0.28606 0.21846 0.26110 -0.01600
C 	C 	0.33850 0.34500 0.27150 -0.07900
C 	C 	0.30300 0.36320 0.29570 -0.08400
H 	H 	0.22390 0.17940 0.31240 0.06200
C 	C 	0.23579 0.15389 0.27940 -0.00700
C 	C 	0.28320 0.19030 0.24500 0.01800
H 	H 	0.34450 0.32840 0.26870 0.06700
C 	C 	0.35760 0.37610 0.25650 -0.00300
C 	C 	0.32210 0.39360 0.27850 0.00400
H 	H 	0.28600 0.36060 0.31000 0.06900
H 	H 	0.21900 0.13230 0.28550 0.05800
C 	C 	0.25806 0.15797 0.25420 -0.05000
H 	H 	0.37650 0.38050 0.24410 0.06000
C 	C 	0.34840 0.40050 0.25990 -0.03500
H 	H 	0.31570 0.41000 0.28030 0.06400
C 	C 	0.25250 0.12380 0.23660 0.32200
C 	C 	0.36870 0.43330 0.24270 0.11200
O 	O 	0.23380 0.09620 0.24905 -0.45300
O 	O 	0.26770 0.12985 0.21094 -0.38700
In	In	0.24036 0.06917 0.20545 1.99400
O 	O 	0.23843 0.03460 0.16359 -0.41300
O 	O 	0.26628 0.09048 0.15641 -0.41400
O 	O 	0.18536 0.03035 0.21824 -0.42600
O 	O 	0.19669 0.07242 0.18308 -0.42200
O 	O 	0.25360 0.03723 0.23973 -0.44800
O 	O 	0.29280 0.07750 0.21240 -0.31100
C 	C 	0.25670 0.06200 0.14680 0.29600
C 	C 	0.17700 0.04660 0.20120 0.29200
C 	C 	0.26490 0.05470 0.11149 -0.07100
C 	C 	0.13940 0.03610 0.19700 -0.07200
C 	C 	0.26630 0.02610 0.10220 0.00400
C 	C 	0.27205 0.08011 0.08870 0.01800
C 	C 	0.12960 0.05180 0.17380 0.04800
C 	C 	0.11508 0.00980 0.21600 0.05300
C 	C 	0.27495 0.02292 0.07020 -0.01400
C 	C 	0.28066 0.07696 0.05671 0.00600
C 	C 	0.09540 0.04120 0.16950 0.03000
C 	C 	0.08100 0.99930 0.21180 -0.01600
C 	C 	0.28220 0.04840 0.04746 -0.03600
C 	C 	0.07120 0.01500 0.18850 -0.02100
C 	C 	0.29520 0.04690 0.01450 0.11300
C 	C 	0.03600 0.00850 0.18890 -0.01100
C 	C 	0.28910 0.01660 0.99930 -0.16500
C 	C 	0.31460 0.07650 0.99720 -0.16700
C 	C 	0.00690 0.97370 0.18540 0.02200
H 	H 	0.27660 0.99600 0.01010 0.10000
C 	C 	0.30200 0.01770 0.96790 0.11000
C 	C 	0.32660 0.07820 0.96690 0.09600
H 	H 	0.31960 0.09670 0.00740 0.09900
C 	C 	0.32070 0.04810 0.95100 -0.16000
C 	C 	0.29450 0.98470 0.95161 -0.02700
C 	C 	0.34730 0.11100 0.94850 0.01300
H 	H 	0.32900 0.04860 0.93010 0.09600
C 	C 	0.26176 0.95720 0.95020 -0.00300
C 	C 	0.32117 0.98227 0.93800 -0.01100
C 	C 	0.34510 0.11480 0.91490 -0.08200
C 	C 	0.36990 0.14100 0.96670 -0.09600
C 	C 	0.25570 0.92730 0.93520 0.03600
C 	C 	0.31514 0.95240 0.92300 0.03700
H 	H 	0.33140 0.09640 0.90150 0.06900
C 	C 	0.36460 0.14790 0.90170 0.01300
C 	C 	0.38730 0.17090 0.95190 0.03600
H 	H 	0.37230 0.13940 0.98920 0.06900
C 	C 	0.28238 0.92488 0.92159 -0.11300
H 	H 	0.36420 0.15090 0.87920 0.06400
C 	C 	0.38400 0.17570 0.92120 -0.08800
H 	H 	0.40260 0.18930 0.96440 0.04200
C 	C 	0.27500 0.89160 0.90340 0.37600
C 	C 	0.40060 0.20890 0.90430 0.31800
C 	C 	0.28580 0.18990 0.24870 0.02500
C 	C 	0.09330 0.04730 0.18490 -0.03500
C 	C 	0.12740 0.05750 0.18760 -0.00200
C 	C 	0.07260 0.02130 0.20630 0.04000
C 	C 	0.08330 0.00360 0.22610 -0.00200
C 	C 	0.03620 0.01030 0.21010 0.00700
C 	C 	0.00930 0.97470 0.20510 -0.01500
C 	C 	0.11990 0.17810 0.54200 0.21000
C 	C 	0.11330 0.13820 0.54400 -0.08600
C 	C 	0.30200 0.07740 0.06580 -0.01100
C 	C 	0.29210 0.08230 0.09670 0.03800
C 	C 	0.25820 0.01990 0.06430 0.00800
C 	C 	0.25060 0.02290 0.09680 0.04100
C 	C 	0.27430 0.97190 0.92380 -0.00600
C 	C 	0.26970 0.94360 0.90660 0.04600
C 	C 	0.30280 0.93570 0.94940 0.03600
C 	C 	0.30310 0.96240 0.96610 -0.00800
O 	O 	0.24490 0.87330 0.89500 -0.18100
C 	C 	0.37133 0.43490 0.24620 0.14000
In	In	0.84291 0.57399 0.87553 2.01700
O 	O 	0.85357 0.59473 0.82746 -1.63600
O 	O 	0.87457 0.56403 0.83893 -0.68300
O 	O 	0.78727 0.52833 0.85153 -0.34100
O 	O 	0.81534 0.52010 0.88563 -0.44600
O 	O 	0.87944 0.57168 0.91258 -0.39100
O 	O 	0.89387 0.61994 0.89133 -0.39100
O 	O 	0.81811 0.60545 0.87523 -0.39100
O 	O 	0.81547 0.58063 0.92073 -0.42300
C 	C 	0.86847 0.58673 0.81723 2.90300
C 	C 	0.78827 0.50683 0.86973 0.10200
C 	C 	0.88197 0.58703 0.79713 -2.40700
C 	C 	0.76407 0.47473 0.86953 -0.07200
C 	C 	0.88517 0.61033 0.76423 0.65800
C 	C 	0.90007 0.57723 0.77953 1.46800
C 	C 	0.73257 0.45983 0.85443 0.08100
C 	C 	0.77167 0.45473 0.88953 0.17000
H 	H 	0.87497 0.62333 0.76773 -0.14600
C 	C 	0.89997 0.61563 0.73183 -0.59400
C 	C 	0.91677 0.57563 0.74913 -0.86900
H 	H 	0.90477 0.56463 0.79443 -0.36100
C 	C 	0.71017 0.42383 0.85963 -0.15000
C 	C 	0.74887 0.41913 0.89373 -0.18300
H 	H 	0.89927 0.63103 0.71743 0.25100
C 	C 	0.91497 0.59703 0.72293 0.43400
H 	H 	0.92727 0.56273 0.74683 0.35400
H 	H 	0.68927 0.41343 0.84913 0.09000
C 	C 	0.71807 0.40503 0.87843 0.08800
H 	H 	0.75487 0.40603 0.90653 0.10400
C 	C 	0.92667 0.60163 0.68743 -0.11500
C 	C 	0.68837 0.36673 0.87843 0.05200
C 	C 	0.92307 0.57453 0.66993 -0.02000
C 	C 	0.94417 0.63393 0.67163 -0.02000
C 	C 	0.70117 0.34503 0.87863 -0.12600
H 	H 	0.91167 0.55333 0.67973 0.04100
C 	C 	0.93517 0.57663 0.63833 0.02300
C 	C 	0.95707 0.63693 0.63983 0.01500
H 	H 	0.94697 0.65303 0.68263 0.04000
H 	H 	0.72417 0.35293 0.87903 0.07900
C 	C 	0.95197 0.60823 0.62423 -0.08200
C 	C 	0.93053 0.54773 0.61973 0.01300
C 	C 	0.97647 0.67123 0.62453 0.04200
H 	H 	0.96017 0.61013 0.60303 0.07200
C 	C 	0.90538 0.51543 0.62885 -0.07300
C 	C 	0.95273 0.55179 0.59443 -0.01600
C 	C 	0.00517 0.67833 0.60483 -0.07900
C 	C 	0.96967 0.69653 0.62903 -0.08400
H 	H 	0.89057 0.51273 0.64573 0.06200
C 	C 	0.90246 0.48722 0.61273 -0.00700
C 	C 	0.94987 0.52363 0.57833 0.01800
H 	H 	0.01117 0.66173 0.60203 0.06700
C 	C 	0.02427 0.70943 0.58983 -0.00300
C 	C 	0.98877 0.72693 0.61183 0.00400
H 	H 	0.95267 0.69393 0.64333 0.06900
H 	H 	0.88567 0.46563 0.61883 0.05800
C 	C 	0.92473 0.49130 0.58753 -0.05000
H 	H 	0.04317 0.71383 0.57743 0.06000
C 	C 	0.01507 0.73383 0.59323 -0.03500
H 	H 	0.98237 0.74333 0.61363 0.06400
C 	C 	0.91917 0.45713 0.56993 0.32200
C 	C 	0.03537 0.76663 0.57603 0.11200
O 	O 	0.90047 0.42953 0.58238 -0.45300
O 	O 	0.93437 0.46318 0.54427 -0.38700
In	In	0.90703 0.40250 0.53879 1.99400
O 	O 	0.90510 0.36793 0.49692 -0.41300
O 	O 	0.93295 0.42381 0.48974 -0.41400
O 	O 	0.85203 0.36368 0.55157 -0.42600
O 	O 	0.86336 0.40575 0.51641 -0.42200
O 	O 	0.92027 0.37056 0.57306 -0.44800
O 	O 	0.95947 0.41083 0.54573 -0.31100
C 	C 	0.92337 0.39533 0.48013 0.29600
C 	C 	0.84367 0.37993 0.53453 0.29200
C 	C 	0.93157 0.38803 0.44482 -0.07100
C 	C 	0.80607 0.36943 0.53033 -0.07200
C 	C 	0.93297 0.35943 0.43553 0.00400
C 	C 	0.93872 0.41344 0.42203 0.01800
C 	C 	0.79627 0.38513 0.50713 0.04800
C 	C 	0.78175 0.34313 0.54933 0.05300
C 	C 	0.94162 0.35625 0.40353 -0.01400
C 	C 	0.94733 0.41029 0.39004 0.00600
C 	C 	0.76207 0.37453 0.50283 0.03000
C 	C 	0.74767 0.33263 0.54513 -0.01600
C 	C 	0.94887 0.38173 0.38079 -0.03600
C 	C 	0.73787 0.34833 0.52183 -0.02100
C 	C 	0.96187 0.38023 0.34783 0.11300
C 	C 	0.70267 0.34183 0.52223 -0.01100
C 	C 	0.95577 0.34993 0.33263 -0.16500
C 	C 	0.98127 0.40983 0.33053 -0.16700
C 	C 	0.67357 0.30703 0.51873 0.02200
H 	H 	0.94327 0.32933 0.34343 0.10000
C 	C 	0.96867 0.35103 0.30123 0.11000
C 	C 	0.99327 0.41153 0.30023 0.09600
H 	H 	0.98627 0.43003 0.34073 0.09900
C 	C 	0.98737 0.38143 0.28433 -0.16000
C 	C 	0.96117 0.31803 0.28494 -0.02700
C 	C 	0.01397 0.44433 0.28183 0.01300
H 	H 	0.99567 0.38193 0.26343 0.09600
C 	C 	0.92843 0.29053 0.28353 -0.00300
C 	C 	0.98784 0.31560 0.27133 -0.01100
C 	C 	0.01177 0.44813 0.24823 -0.08200
C 	C 	0.03657 0.47433 0.30003 -0.09600
C 	C 	0.92237 0.26063 0.26853 0.03600
C 	C 	0.98181 0.28573 0.25633 0.03700
H 	H 	0.99807 0.42973 0.23483 0.06900
C 	C 	0.03127 0.48123 0.23503 0.01300
C 	C 	0.05397 0.50423 0.28523 0.03600
H 	H 	0.03897 0.47273 0.32253 0.06900
C 	C 	0.94905 0.25821 0.25492 -0.11300
H 	H 	0.03087 0.48423 0.21253 0.06400
C 	C 	0.05067 0.50903 0.25453 -0.08800
H 	H 	0.06927 0.52263 0.29773 0.04200
C 	C 	0.94167 0.22493 0.23673 0.37600
C 	C 	0.06727 0.54223 0.23763 0.31800
C 	C 	0.95247 0.52323 0.58203 0.02500
C 	C 	0.75997 0.38063 0.51823 -0.03500
C 	C 	0.79407 0.39083 0.52093 -0.00200
C 	C 	0.73927 0.35463 0.53963 0.04000
C 	C 	0.74997 0.33693 0.55943 -0.00200
C 	C 	0.70287 0.34363 0.54343 0.00700
C 	C 	0.67597 0.30803 0.53843 -0.01500
C 	C 	0.78657 0.51143 0.87533 0.21000
C 	C 	0.77997 0.47153 0.87733 -0.08600
C 	C 	0.96867 0.41073 0.39913 -0.01100
C 	C 	0.95877 0.41563 0.43003 0.03800
C 	C 	0.92487 0.35323 0.39763 0.00800
C 	C 	0.91727 0.35623 0.43013 0.04100
C 	C 	0.94097 0.30523 0.25713 -0.00600
C 	C 	0.93637 0.27693 0.23993 0.04600
C 	C 	0.96947 0.26903 0.28273 0.03600
C 	C 	0.96977 0.29573 0.29943 -0.00800
O 	O 	0.91157 0.20663 0.22833 -0.18100
C 	C 	0.03800 0.76823 0.57953 0.14000
In	In	0.50958 0.90732 0.20887 2.01700
O 	O 	0.52023 0.92807 0.16080 -1.63500
O 	O 	0.54123 0.89737 0.17227 -0.68300
O 	O 	0.45393 0.86167 0.18487 -0.34100
O 	O 	0.48200 0.85344 0.21897 -0.44600
O 	O 	0.54610 0.90502 0.24592 -0.39100
O 	O 	0.56053 0.95328 0.22467 -0.39100
O 	O 	0.48477 0.93879 0.20857 -0.39100
O 	O 	0.48213 0.91397 0.25407 -0.42300
C 	C 	0.53513 0.92007 0.15057 2.90300
C 	C 	0.45493 0.84017 0.20307 0.10200
C 	C 	0.54863 0.92037 0.13047 -2.40700
C 	C 	0.43073 0.80807 0.20287 -0.07200
C 	C 	0.55183 0.94367 0.09757 0.65800
C 	C 	0.56673 0.91057 0.11287 1.46800
C 	C 	0.39923 0.79317 0.18777 0.08100
C 	C 	0.43833 0.78807 0.22287 0.17000
H 	H 	0.54163 0.95667 0.10107 -0.14600
C 	C 	0.56663 0.94897 0.06517 -0.59400
C 	C 	0.58343 0.90897 0.08247 -0.86900
H 	H 	0.57143 0.89797 0.12777 -0.36100
C 	C 	0.37683 0.75717 0.19297 -0.15100
C 	C 	0.41553 0.75247 0.22707 -0.18300
H 	H 	0.56593 0.96437 0.05077 0.25100
C 	C 	0.58163 0.93037 0.05627 0.43400
H 	H 	0.59393 0.89607 0.08017 0.35300
H 	H 	0.35593 0.74677 0.18247 0.09000
C 	C 	0.38473 0.73837 0.21177 0.08800
H 	H 	0.42153 0.73937 0.23987 0.10400
C 	C 	0.59333 0.93497 0.02077 -0.11500
C 	C 	0.35503 0.70007 0.21177 0.05200
C 	C 	0.58973 0.90787 0.00327 -0.02000
C 	C 	0.61083 0.96727 0.00497 -0.02100
C 	C 	0.36783 0.67837 0.21197 -0.12600
H 	H 	0.57833 0.88667 0.01307 0.04100
C 	C 	0.60183 0.90997 0.97167 0.02300
C 	C 	0.62373 0.97027 0.97317 0.01500
H 	H 	0.61363 0.98637 0.01597 0.04000
H 	H 	0.39083 0.68627 0.21237 0.07900
C 	C 	0.61863 0.94157 0.95757 -0.08200
C 	C 	0.59719 0.88107 0.95307 0.01300
C 	C 	0.64313 0.00457 0.95787 0.04200
H 	H 	0.62683 0.94347 0.93637 0.07200
C 	C 	0.57204 0.84877 0.96219 -0.07300
C 	C 	0.61939 0.88513 0.92777 -0.01600
C 	C 	0.67183 0.01167 0.93817 -0.07900
C 	C 	0.63633 0.02987 0.96237 -0.08400
H 	H 	0.55723 0.84607 0.97907 0.06200
C 	C 	0.56912 0.82056 0.94607 -0.00700
C 	C 	0.61653 0.85697 0.91167 0.01800
H 	H 	0.67783 0.99507 0.93537 0.06600
C 	C 	0.69093 0.04277 0.92317 -0.00300
C 	C 	0.65543 0.06027 0.94517 0.00400
H 	H 	0.61933 0.02727 0.97667 0.06900
H 	H 	0.55233 0.79897 0.95217 0.05800
C 	C 	0.59139 0.82464 0.92087 -0.05000
H 	H 	0.70983 0.04717 0.91077 0.06000
C 	C 	0.68173 0.06717 0.92657 -0.03500
H 	H 	0.64903 0.07667 0.94697 0.06400
C 	C 	0.58583 0.79047 0.90327 0.32200
C 	C 	0.70203 0.09997 0.90937 0.11200
O 	O 	0.56713 0.76287 0.91572 -0.45300
O 	O 	0.60103 0.79652 0.87761 -0.38700
In	In	0.57370 0.73583 0.87212 1.99400
O 	O 	0.57176 0.70127 0.83026 -0.41300
O 	O 	0.59961 0.75715 0.82308 -0.41400
O 	O 	0.51869 0.69702 0.88491 -0.42600
O 	O 	0.53002 0.73909 0.84975 -0.42200
O 	O 	0.58693 0.70390 0.90640 -0.44800
O 	O 	0.62613 0.74417 0.87907 -0.31100
C 	C 	0.59003 0.72867 0.81347 0.29600
C 	C 	0.51033 0.71327 0.86787 0.29200
C 	C 	0.59823 0.72137 0.77816 -0.07100
C 	C 	0.47273 0.70277 0.86367 -0.07200
C 	C 	0.59963 0.69277 0.76887 0.00400
C 	C 	0.60538 0.74678 0.75537 0.01800
C 	C 	0.46293 0.71847 0.84047 0.04800
C 	C 	0.44841 0.67647 0.88267 0.05300
C 	C 	0.60828 0.68959 0.73687 -0.01400
C 	C 	0.61399 0.74363 0.72338 0.00600
C 	C 	0.42873 0.70787 0.83617 0.03000
C 	C 	0.41433 0.66597 0.87847 -0.01600
C 	C 	0.61553 0.71507 0.71413 -0.03600
C 	C 	0.40453 0.68167 0.85517 -0.02100
C 	C 	0.62853 0.71357 0.68117 0.11300
C 	C 	0.36933 0.67517 0.85557 -0.01100
C 	C 	0.62243 0.68327 0.66597 -0.16500
C 	C 	0.64793 0.74317 0.66387 -0.16700
C 	C 	0.34023 0.64037 0.85207 0.02200
H 	H 	0.60993 0.66267 0.67677 0.10000
C 	C 	0.63533 0.68437 0.63457 0.11000
C 	C 	0.65993 0.74487 0.63357 0.09600
H 	H 	0.65293 0.76337 0.67407 0.09900
C 	C 	0.65403 0.71477 0.61767 -0.16000
C 	C 	0.62783 0.65137 0.61828 -0.02700
C 	C 	0.68063 0.77767 0.61517 0.01300
H 	H 	0.66233 0.71527 0.59677 0.09600
C 	C 	0.59509 0.62387 0.61687 -0.00300
C 	C 	0.65450 0.64894 0.60467 -0.01100
C 	C 	0.67843 0.78147 0.58157 -0.08200
C 	C 	0.70323 0.80767 0.63337 -0.09600
C 	C 	0.58903 0.59397 0.60187 0.03600
C 	C 	0.64847 0.61907 0.58967 0.03700
H 	H 	0.66473 0.76307 0.56817 0.06900
C 	C 	0.69793 0.81457 0.56837 0.01300
C 	C 	0.72063 0.83757 0.61857 0.03600
H 	H 	0.70563 0.80607 0.65587 0.06900
C 	C 	0.61571 0.59155 0.58826 -0.11300
H 	H 	0.69753 0.81757 0.54587 0.06400
C 	C 	0.71733 0.84237 0.58787 -0.08800
H 	H 	0.73593 0.85597 0.63107 0.04200
C 	C 	0.60833 0.55827 0.57007 0.37500
C 	C 	0.73393 0.87557 0.57097 0.31800
C 	C 	0.61913 0.85657 0.91537 0.02500
C 	C 	0.42663 0.71397 0.85157 -0.03500
C 	C 	0.46073 0.72417 0.85427 -0.00200
C 	C 	0.40593 0.68797 0.87297 0.04000
C 	C 	0.41663 0.67027 0.89277 -0.00200
C 	C 	0.36953 0.67697 0.87677 0.00700
C 	C 	0.34263 0.64137 0.87177 -0.01500
C 	C 	0.45323 0.84477 0.20867 0.21000
C 	C 	0.44663 0.80487 0.21067 -0.08600
C 	C 	0.63533 0.74407 0.73247 -0.01100
C 	C 	0.62543 0.74897 0.76337 0.03800
C 	C 	0.59153 0.68657 0.73097 0.00800
C 	C 	0.58393 0.68957 0.76347 0.04100
C 	C 	0.60763 0.63857 0.59047 -0.00600
C 	C 	0.60303 0.61027 0.57327 0.04600
C 	C 	0.63613 0.60237 0.61607 0.03600
C 	C 	0.63643 0.62907 0.63277 -0.00800
O 	O 	0.57823 0.53997 0.56167 -0.18100
C 	C 	0.70466 0.10157 0.91287 0.14000
