data_crystal

_cell_length_a 30.09540
_cell_length_b 15.50480
_cell_length_c 35.48430
_cell_angle_alpha 90.00000
_cell_angle_beta  107.18500
_cell_angle_gamma 90.00000

_symmetry_space_group_name_	'P 1'
_symmetry_space_group_name_H-M	'P 1'

loop_
_symmetry_equiv_pos_as_xyz
  x,y,z

loop_
_atom_site_label
_atom_site_type_symbol
_atom_site_fract_x
_atom_site_fract_y
_atom_site_fract_z
_atom_site_charge
Ag	Ag	0.76823 0.46331 0.02672 0.54400
Ag	Ag	0.01351 0.21643 0.01019 0.53100
Ag	Ag	0.27057 0.48875 0.27237 0.50900
O 	O 	0.80030 0.64030 0.00977 -0.26500
O 	O 	0.77100 0.97820 0.90634 -0.26500
O 	O 	0.91836 0.03920 0.00496 -0.25900
O 	O 	0.07450 0.34710 0.01880 -0.28700
O 	O 	0.20960 0.73170 0.06755 -0.24700
O 	O 	0.23430 0.33980 0.11451 -0.25500
N 	N 	0.81410 0.41840 0.08135 -0.20800
N 	N 	0.85590 0.68400 0.06352 -0.23100
H 	H 	0.87800 0.72150 0.07410 0.11700
N 	N 	0.70550 0.94040 0.75860 -0.21700
N 	N 	0.75490 0.83990 0.88770 -0.23600
H 	H 	0.76210 0.78570 0.89390 0.15400
N 	N 	0.06210 0.16260 0.06466 -0.21100
N 	N 	0.94940 0.94990 0.05555 -0.23400
H 	H 	0.94890 0.89890 0.06630 0.11100
N 	N 	0.96080 0.23580 0.95235 -0.20900
N 	N 	0.04850 0.46190 0.98007 -0.23200
H 	H 	0.05430 0.51340 0.97210 0.11300
N 	N 	0.21670 0.98150 0.97108 -0.20400
N 	N 	0.15920 0.72680 0.00640 -0.22600
H 	H 	0.14100 0.69340 0.98820 0.10700
N 	N 	0.33910 0.44520 0.27185 -0.21800
N 	N 	0.25570 0.46560 0.14610 -0.22900
H 	H 	0.25130 0.52170 0.14600 0.11900
C 	C 	0.79870 0.35290 0.09910 0.06900
H 	H 	0.77030 0.32560 0.08540 0.01200
C 	C 	0.82240 0.32360 0.13630 -0.14400
H 	H 	0.81120 0.27560 0.14750 0.07200
C 	C 	0.86240 0.36540 0.15690 0.07800
H 	H 	0.87880 0.34820 0.18300 -0.00700
C 	C 	0.87840 0.43220 0.13930 -0.18800
H 	H 	0.90590 0.46190 0.15320 0.08500
C 	C 	0.85410 0.45680 0.10090 0.15800
C 	C 	0.87010 0.52980 0.08020 -0.27000
H 	H 	0.86160 0.51780 0.05150 0.09300
H 	H 	0.90440 0.53520 0.09020 0.09900
C 	C 	0.84760 0.61290 0.08730 0.07300
H 	H 	0.81370 0.60380 0.08130 0.01200
H 	H 	0.85990 0.62850 0.11560 0.00500
C 	C 	0.83070 0.69310 0.02610 0.23100
C 	C 	0.83980 0.77240 0.00490 -0.07000
C 	C 	0.87620 0.82740 0.02130 0.00300
H 	H 	0.89870 0.81190 0.04530 0.00800
C 	C 	0.67140 0.96560 0.72630 0.07500
H 	H 	0.67630 0.01510 0.71220 -0.01900
C 	C 	0.63000 0.92190 0.71310 -0.15500
H 	H 	0.60630 0.94150 0.69060 0.07300
C 	C 	0.62350 0.85040 0.73290 0.08100
H 	H 	0.59510 0.81900 0.72420 -0.00400
C 	C 	0.65870 0.82310 0.76620 -0.19100
H 	H 	0.65470 0.77290 0.78020 0.09100
C 	C 	0.69900 0.86980 0.77840 0.15600
C 	C 	0.73650 0.84580 0.81490 -0.25800
H 	H 	0.76420 0.88230 0.81750 0.07300
H 	H 	0.74560 0.78480 0.81330 0.09900
C 	C 	0.71920 0.85820 0.85080 0.06900
H 	H 	0.70840 0.91840 0.85130 0.02000
H 	H 	0.69230 0.81970 0.84850 0.01100
C 	C 	0.77750 0.90070 0.91260 0.22400
C 	C 	0.81170 0.87070 0.95050 -0.07700
C 	C 	0.80790 0.79330 0.96920 0.00500
H 	H 	0.78310 0.75470 0.95740 0.04600
C 	C 	0.09560 0.21560 0.08660 0.09300
H 	H 	0.09660 0.27370 0.07840 0.00300
C 	C 	0.12780 0.18840 0.11960 -0.17800
H 	H 	0.15090 0.22730 0.13420 0.08700
C 	C 	0.12750 0.10600 0.13220 0.11900
H 	H 	0.15020 0.08640 0.15530 -0.03300
C 	C 	0.09360 0.05160 0.11050 -0.21100
H 	H 	0.09260 0.99340 0.11860 0.09800
C 	C 	0.06090 0.08120 0.07690 0.17500
C 	C 	0.02190 0.02400 0.05420 -0.27200
H 	H 	0.03460 0.96670 0.05070 0.10600
H 	H 	0.00770 0.04900 0.02770 0.08900
C 	C 	0.98470 0.01310 0.07480 0.07300
H 	H 	0.99960 0.99490 0.10240 0.00400
H 	H 	0.96950 0.06950 0.07540 0.01000
C 	C 	0.91830 0.96970 0.02180 0.21700
C 	C 	0.88040 0.90470 0.00350 -0.07800
C 	C 	0.84740 0.92660 0.96820 0.00400
H 	H 	0.84940 0.98050 0.95610 0.04600
C 	C 	0.92070 0.19200 0.94560 0.06600
H 	H 	0.91720 0.15360 0.96540 0.00800
C 	C 	0.88440 0.20000 0.91140 -0.14500
H 	H 	0.85710 0.16600 0.90710 0.08600
C 	C 	0.88870 0.25750 0.88380 0.08200
H 	H 	0.86390 0.26600 0.86030 -0.00100
C 	C 	0.93000 0.30420 0.89050 -0.19200
H 	H 	0.93370 0.34400 0.87130 0.08600
C 	C 	0.96510 0.29280 0.92460 0.16100
C 	C 	0.00920 0.34490 0.93460 -0.27500
H 	H 	0.01440 0.36740 0.91020 0.10000
H 	H 	0.03600 0.30820 0.94830 0.09700
C 	C 	0.00470 0.41980 0.96130 0.07800
H 	H 	0.98270 0.46270 0.94540 0.00400
H 	H 	0.99150 0.39780 0.98190 -0.00100
C 	C 	0.08030 0.42240 0.00960 0.22700
C 	C 	0.12350 0.47120 0.03160 -0.07700
C 	C 	0.13060 0.55750 0.02500 -0.00100
H 	H 	0.10760 0.58860 0.00560 0.01100
C 	C 	0.21090 0.06050 0.95360 0.07800
H 	H 	0.23040 0.10630 0.96660 0.01900
C 	C 	0.17900 0.07730 0.91890 -0.14200
H 	H 	0.17600 0.13360 0.90790 0.08100
C 	C 	0.15050 0.01090 0.89950 0.07800
H 	H 	0.12770 0.02090 0.87490 -0.00500
C 	C 	0.15580 0.93050 0.91630 -0.17900
H 	H 	0.13640 0.88430 0.90350 0.08500
C 	C 	0.18940 0.91670 0.95210 0.15500
C 	C 	0.19460 0.82790 0.97050 -0.25200
H 	H 	0.22730 0.81890 0.98640 0.08000
H 	H 	0.18670 0.78370 0.94940 0.09900
C 	C 	0.16300 0.81770 0.99650 0.04700
H 	H 	0.17570 0.85140 0.02110 0.02200
H 	H 	0.13180 0.84070 0.98260 0.02500
C 	C 	0.18150 0.69150 0.04100 0.21300
C 	C 	0.17130 0.59880 0.04650 -0.08500
C 	C 	0.20370 0.55300 0.07500 0.00200
H 	H 	0.23180 0.58050 0.08950 0.03400
C 	C 	0.36780 0.40790 0.30410 0.08000
H 	H 	0.35700 0.39960 0.32640 -0.01800
C 	C 	0.41170 0.38140 0.30630 -0.15600
H 	H 	0.43140 0.35670 0.32980 0.07600
C 	C 	0.42700 0.39160 0.27290 0.08400
H 	H 	0.45690 0.37190 0.27290 -0.00700
C 	C 	0.39830 0.42990 0.24050 -0.19300
H 	H 	0.40830 0.43840 0.21780 0.08700
C 	C 	0.35420 0.45700 0.24050 0.15400
C 	C 	0.32120 0.49650 0.20420 -0.26400
H 	H 	0.33910 0.52610 0.18860 0.09800
H 	H 	0.30150 0.53990 0.21210 0.06900
C 	C 	0.29060 0.42670 0.17920 0.06300
H 	H 	0.31010 0.38640 0.16930 0.01800
H 	H 	0.27510 0.39350 0.19560 -0.00500
C 	C 	0.23020 0.41860 0.11570 0.22600
C 	C 	0.19640 0.46770 0.08300 -0.07300
C 	C 	0.15630 0.42680 0.06040 0.00900
H 	H 	0.15160 0.36750 0.06470 0.04800
Ag	Ag	0.26823 0.96331 0.02672 0.54200
Ag	Ag	0.51351 0.71643 0.01019 0.53000
Ag	Ag	0.77057 0.98875 0.27237 0.50800
O 	O 	0.30030 0.14030 0.00977 -0.26500
O 	O 	0.27100 0.47820 0.90634 -0.26700
O 	O 	0.41836 0.53920 0.00496 -0.26100
O 	O 	0.57450 0.84710 0.01880 -0.28800
O 	O 	0.70960 0.23170 0.06755 -0.24700
O 	O 	0.73430 0.83980 0.11451 -0.25600
N 	N 	0.31410 0.91840 0.08135 -0.20900
N 	N 	0.35590 0.18400 0.06352 -0.23200
H 	H 	0.37800 0.22150 0.07410 0.11600
N 	N 	0.20550 0.44040 0.75860 -0.21800
N 	N 	0.25490 0.33990 0.88770 -0.23700
H 	H 	0.26210 0.28570 0.89390 0.15300
N 	N 	0.56210 0.66260 0.06466 -0.21200
N 	N 	0.44940 0.44990 0.05555 -0.23400
H 	H 	0.44890 0.39890 0.06630 0.11000
N 	N 	0.46080 0.73580 0.95235 -0.21000
N 	N 	0.54850 0.96190 0.98007 -0.23200
H 	H 	0.55430 0.01340 0.97210 0.11100
N 	N 	0.71670 0.48150 0.97108 -0.20600
N 	N 	0.65920 0.22680 0.00640 -0.22500
H 	H 	0.64100 0.19340 0.98820 0.10600
N 	N 	0.83910 0.94520 0.27185 -0.21900
N 	N 	0.75570 0.96560 0.14610 -0.23000
H 	H 	0.75130 0.02170 0.14600 0.11800
C 	C 	0.29870 0.85290 0.09910 0.06800
H 	H 	0.27030 0.82560 0.08540 0.01100
C 	C 	0.32240 0.82360 0.13630 -0.14500
H 	H 	0.31120 0.77560 0.14750 0.07100
C 	C 	0.36240 0.86540 0.15690 0.07700
H 	H 	0.37880 0.84820 0.18300 -0.00700
C 	C 	0.37840 0.93220 0.13930 -0.18800
H 	H 	0.40590 0.96190 0.15320 0.08500
C 	C 	0.35410 0.95680 0.10090 0.15700
C 	C 	0.37010 0.02980 0.08020 -0.26800
H 	H 	0.36160 0.01780 0.05150 0.09300
H 	H 	0.40440 0.03520 0.09020 0.09900
C 	C 	0.34760 0.11290 0.08730 0.07200
H 	H 	0.31370 0.10380 0.08130 0.01200
H 	H 	0.35990 0.12850 0.11560 0.00500
C 	C 	0.33070 0.19310 0.02610 0.23000
C 	C 	0.33980 0.27240 0.00490 -0.06900
C 	C 	0.37620 0.32740 0.02130 0.00300
H 	H 	0.39870 0.31190 0.04530 0.00800
C 	C 	0.17140 0.46560 0.72630 0.07400
H 	H 	0.17630 0.51510 0.71220 -0.01900
C 	C 	0.13000 0.42190 0.71310 -0.15400
H 	H 	0.10630 0.44150 0.69060 0.07200
C 	C 	0.12350 0.35040 0.73290 0.08100
H 	H 	0.09510 0.31900 0.72420 -0.00400
C 	C 	0.15870 0.32310 0.76620 -0.19100
H 	H 	0.15470 0.27290 0.78020 0.09100
C 	C 	0.19900 0.36980 0.77840 0.15500
C 	C 	0.23650 0.34580 0.81490 -0.25800
H 	H 	0.26420 0.38230 0.81750 0.07300
H 	H 	0.24560 0.28480 0.81330 0.09900
C 	C 	0.21920 0.35820 0.85080 0.06900
H 	H 	0.20840 0.41840 0.85130 0.02000
H 	H 	0.19230 0.31970 0.84850 0.01100
C 	C 	0.27750 0.40070 0.91260 0.22400
C 	C 	0.31170 0.37070 0.95050 -0.07700
C 	C 	0.30790 0.29330 0.96920 0.00400
H 	H 	0.28310 0.25470 0.95740 0.04700
C 	C 	0.59560 0.71560 0.08660 0.09300
H 	H 	0.59660 0.77370 0.07840 0.00300
C 	C 	0.62780 0.68840 0.11960 -0.17900
H 	H 	0.65090 0.72730 0.13420 0.08700
C 	C 	0.62750 0.60600 0.13220 0.12000
H 	H 	0.65020 0.58640 0.15530 -0.03300
C 	C 	0.59360 0.55160 0.11050 -0.21200
H 	H 	0.59260 0.49340 0.11860 0.09900
C 	C 	0.56090 0.58120 0.07690 0.17600
C 	C 	0.52190 0.52400 0.05420 -0.27300
H 	H 	0.53460 0.46670 0.05070 0.10700
H 	H 	0.50770 0.54900 0.02770 0.08900
C 	C 	0.48470 0.51310 0.07480 0.07200
H 	H 	0.49960 0.49490 0.10240 0.00400
H 	H 	0.46950 0.56950 0.07540 0.01000
C 	C 	0.41830 0.46970 0.02180 0.21700
C 	C 	0.38040 0.40470 0.00350 -0.07700
C 	C 	0.34740 0.42660 0.96820 0.00300
H 	H 	0.34940 0.48050 0.95610 0.04600
C 	C 	0.42070 0.69200 0.94560 0.06600
H 	H 	0.41720 0.65360 0.96540 0.00900
C 	C 	0.38440 0.70000 0.91140 -0.14500
H 	H 	0.35710 0.66600 0.90710 0.08600
C 	C 	0.38870 0.75750 0.88380 0.08200
H 	H 	0.36390 0.76600 0.86030 -0.00100
C 	C 	0.43000 0.80420 0.89050 -0.19200
H 	H 	0.43370 0.84400 0.87130 0.08600
C 	C 	0.46510 0.79280 0.92460 0.16100
C 	C 	0.50920 0.84490 0.93460 -0.27500
H 	H 	0.51440 0.86740 0.91020 0.10000
H 	H 	0.53600 0.80820 0.94830 0.09700
C 	C 	0.50470 0.91980 0.96130 0.07700
H 	H 	0.48270 0.96270 0.94540 0.00400
H 	H 	0.49150 0.89780 0.98190 -0.00100
C 	C 	0.58030 0.92240 0.00960 0.22600
C 	C 	0.62350 0.97120 0.03160 -0.07800
C 	C 	0.63060 0.05750 0.02500 0.00000
H 	H 	0.60760 0.08860 0.00560 0.01100
C 	C 	0.71090 0.56050 0.95360 0.07900
H 	H 	0.73040 0.60630 0.96660 0.01900
C 	C 	0.67900 0.57730 0.91890 -0.14300
H 	H 	0.67600 0.63360 0.90790 0.08200
C 	C 	0.65050 0.51090 0.89950 0.08000
H 	H 	0.62770 0.52090 0.87490 -0.00600
C 	C 	0.65580 0.43050 0.91630 -0.18000
H 	H 	0.63640 0.38430 0.90350 0.08500
C 	C 	0.68940 0.41670 0.95210 0.15500
C 	C 	0.69460 0.32790 0.97050 -0.25100
H 	H 	0.72730 0.31890 0.98640 0.07900
H 	H 	0.68670 0.28370 0.94940 0.09800
C 	C 	0.66300 0.31770 0.99650 0.04400
H 	H 	0.67570 0.35140 0.02110 0.02300
H 	H 	0.63180 0.34070 0.98260 0.02600
C 	C 	0.68150 0.19150 0.04100 0.21300
C 	C 	0.67130 0.09880 0.04650 -0.08600
C 	C 	0.70370 0.05300 0.07500 0.00300
H 	H 	0.73180 0.08050 0.08950 0.03400
C 	C 	0.86780 0.90790 0.30410 0.08000
H 	H 	0.85700 0.89960 0.32640 -0.01800
C 	C 	0.91170 0.88140 0.30630 -0.15700
H 	H 	0.93140 0.85670 0.32980 0.07700
C 	C 	0.92700 0.89160 0.27290 0.08400
H 	H 	0.95690 0.87190 0.27290 -0.00700
C 	C 	0.89830 0.92990 0.24050 -0.19300
H 	H 	0.90830 0.93840 0.21780 0.08700
C 	C 	0.85420 0.95700 0.24050 0.15500
C 	C 	0.82120 0.99650 0.20420 -0.26600
H 	H 	0.83910 0.02610 0.18860 0.09900
H 	H 	0.80150 0.03990 0.21210 0.07100
C 	C 	0.79060 0.92670 0.17920 0.06400
H 	H 	0.81010 0.88640 0.16930 0.01800
H 	H 	0.77510 0.89350 0.19560 -0.00500
C 	C 	0.73020 0.91860 0.11570 0.22600
C 	C 	0.69640 0.96770 0.08300 -0.07400
C 	C 	0.65630 0.92680 0.06040 0.01000
H 	H 	0.65160 0.86750 0.06470 0.04800
Ag	Ag	0.76823 0.53669 0.52672 0.54300
Ag	Ag	0.01351 0.78357 0.51019 0.53000
Ag	Ag	0.27057 0.51125 0.77237 0.50800
O 	O 	0.80030 0.35970 0.50977 -0.26600
O 	O 	0.77100 0.02180 0.40634 -0.26600
O 	O 	0.91836 0.96080 0.50496 -0.26100
O 	O 	0.07450 0.65290 0.51880 -0.28800
O 	O 	0.20960 0.26830 0.56755 -0.24700
O 	O 	0.23430 0.66020 0.61451 -0.25600
N 	N 	0.81410 0.58160 0.58135 -0.20900
N 	N 	0.85590 0.31600 0.56352 -0.23200
H 	H 	0.87800 0.27850 0.57410 0.11600
N 	N 	0.70550 0.05960 0.25860 -0.21800
N 	N 	0.75490 0.16010 0.38770 -0.23700
H 	H 	0.76210 0.21430 0.39390 0.15300
N 	N 	0.06210 0.83740 0.56466 -0.21200
N 	N 	0.94940 0.05010 0.55555 -0.23400
H 	H 	0.94890 0.10110 0.56630 0.11000
N 	N 	0.96080 0.76420 0.45235 -0.21000
N 	N 	0.04850 0.53810 0.48007 -0.23300
H 	H 	0.05430 0.48660 0.47210 0.11200
N 	N 	0.21670 0.01850 0.47108 -0.20600
N 	N 	0.15920 0.27320 0.50640 -0.22600
H 	H 	0.14100 0.30660 0.48820 0.10600
N 	N 	0.33910 0.55480 0.77185 -0.21900
N 	N 	0.25570 0.53440 0.64610 -0.23000
H 	H 	0.25130 0.47830 0.64600 0.11800
C 	C 	0.79870 0.64710 0.59910 0.06800
H 	H 	0.77030 0.67440 0.58540 0.01100
C 	C 	0.82240 0.67640 0.63630 -0.14500
H 	H 	0.81120 0.72440 0.64750 0.07100
C 	C 	0.86240 0.63460 0.65690 0.07700
H 	H 	0.87880 0.65180 0.68300 -0.00700
C 	C 	0.87840 0.56780 0.63930 -0.18800
H 	H 	0.90590 0.53810 0.65320 0.08500
C 	C 	0.85410 0.54320 0.60090 0.15800
C 	C 	0.87010 0.47020 0.58020 -0.27000
H 	H 	0.86160 0.48220 0.55150 0.09300
H 	H 	0.90440 0.46480 0.59020 0.09900
C 	C 	0.84760 0.38710 0.58730 0.07300
H 	H 	0.81370 0.39620 0.58130 0.01200
H 	H 	0.85990 0.37150 0.61560 0.00500
C 	C 	0.83070 0.30690 0.52610 0.23000
C 	C 	0.83980 0.22760 0.50490 -0.06900
C 	C 	0.87620 0.17260 0.52130 0.00300
H 	H 	0.89870 0.18810 0.54530 0.00800
C 	C 	0.67140 0.03440 0.22630 0.07500
H 	H 	0.67630 0.98490 0.21220 -0.01900
C 	C 	0.63000 0.07810 0.21310 -0.15500
H 	H 	0.60630 0.05850 0.19060 0.07300
C 	C 	0.62350 0.14960 0.23290 0.08100
H 	H 	0.59510 0.18100 0.22420 -0.00400
C 	C 	0.65870 0.17690 0.26620 -0.19100
H 	H 	0.65470 0.22710 0.28020 0.09100
C 	C 	0.69900 0.13020 0.27840 0.15600
C 	C 	0.73650 0.15420 0.31490 -0.25800
H 	H 	0.76420 0.11770 0.31750 0.07300
H 	H 	0.74560 0.21520 0.31330 0.09900
C 	C 	0.71920 0.14180 0.35080 0.06900
H 	H 	0.70840 0.08160 0.35130 0.02000
H 	H 	0.69230 0.18030 0.34850 0.01100
C 	C 	0.77750 0.09930 0.41260 0.22400
C 	C 	0.81170 0.12930 0.45050 -0.07700
C 	C 	0.80790 0.20670 0.46920 0.00500
H 	H 	0.78310 0.24530 0.45740 0.04700
C 	C 	0.09560 0.78440 0.58660 0.09300
H 	H 	0.09660 0.72630 0.57840 0.00300
C 	C 	0.12780 0.81160 0.61960 -0.17800
H 	H 	0.15090 0.77270 0.63420 0.08700
C 	C 	0.12750 0.89400 0.63220 0.12000
H 	H 	0.15020 0.91360 0.65530 -0.03300
C 	C 	0.09360 0.94840 0.61050 -0.21100
H 	H 	0.09260 0.00660 0.61860 0.09800
C 	C 	0.06090 0.91880 0.57690 0.17600
C 	C 	0.02190 0.97600 0.55420 -0.27200
H 	H 	0.03460 0.03330 0.55070 0.10600
H 	H 	0.00770 0.95100 0.52770 0.08900
C 	C 	0.98470 0.98690 0.57480 0.07200
H 	H 	0.99960 0.00510 0.60240 0.00400
H 	H 	0.96950 0.93050 0.57540 0.01000
C 	C 	0.91830 0.03030 0.52180 0.21700
C 	C 	0.88040 0.09530 0.50350 -0.07700
C 	C 	0.84740 0.07340 0.46820 0.00400
H 	H 	0.84940 0.01950 0.45610 0.04600
C 	C 	0.92070 0.80800 0.44560 0.06600
H 	H 	0.91720 0.84640 0.46540 0.00900
C 	C 	0.88440 0.80000 0.41140 -0.14500
H 	H 	0.85710 0.83400 0.40710 0.08600
C 	C 	0.88870 0.74250 0.38380 0.08200
H 	H 	0.86390 0.73400 0.36030 -0.00100
C 	C 	0.93000 0.69580 0.39050 -0.19200
H 	H 	0.93370 0.65600 0.37130 0.08600
C 	C 	0.96510 0.70720 0.42460 0.16100
C 	C 	0.00920 0.65510 0.43460 -0.27500
H 	H 	0.01440 0.63260 0.41020 0.10000
H 	H 	0.03600 0.69180 0.44830 0.09700
C 	C 	0.00470 0.58020 0.46130 0.07700
H 	H 	0.98270 0.53730 0.44540 0.00400
H 	H 	0.99150 0.60220 0.48190 -0.00100
C 	C 	0.08030 0.57760 0.50960 0.22700
C 	C 	0.12350 0.52880 0.53160 -0.07700
C 	C 	0.13060 0.44250 0.52500 -0.00100
H 	H 	0.10760 0.41140 0.50560 0.01100
C 	C 	0.21090 0.93950 0.45360 0.07900
H 	H 	0.23040 0.89370 0.46660 0.01900
C 	C 	0.17900 0.92270 0.41890 -0.14300
H 	H 	0.17600 0.86640 0.40790 0.08200
C 	C 	0.15050 0.98910 0.39950 0.08000
H 	H 	0.12770 0.97910 0.37490 -0.00600
C 	C 	0.15580 0.06950 0.41630 -0.18000
H 	H 	0.13640 0.11570 0.40350 0.08500
C 	C 	0.18940 0.08330 0.45210 0.15500
C 	C 	0.19460 0.17210 0.47050 -0.25200
H 	H 	0.22730 0.18110 0.48640 0.08000
H 	H 	0.18670 0.21630 0.44940 0.09900
C 	C 	0.16300 0.18230 0.49650 0.04500
H 	H 	0.17570 0.14860 0.52110 0.02300
H 	H 	0.13180 0.15930 0.48260 0.02500
C 	C 	0.18150 0.30850 0.54100 0.21300
C 	C 	0.17130 0.40120 0.54650 -0.08500
C 	C 	0.20370 0.44700 0.57500 0.00200
H 	H 	0.23180 0.41950 0.58950 0.03400
C 	C 	0.36780 0.59210 0.80410 0.08000
H 	H 	0.35700 0.60040 0.82640 -0.01800
C 	C 	0.41170 0.61860 0.80630 -0.15600
H 	H 	0.43140 0.64330 0.82980 0.07600
C 	C 	0.42700 0.60840 0.77290 0.08400
H 	H 	0.45690 0.62810 0.77290 -0.00700
C 	C 	0.39830 0.57010 0.74050 -0.19300
H 	H 	0.40830 0.56160 0.71780 0.08700
C 	C 	0.35420 0.54300 0.74050 0.15400
C 	C 	0.32120 0.50350 0.70420 -0.26400
H 	H 	0.33910 0.47390 0.68860 0.09800
H 	H 	0.30150 0.46010 0.71210 0.06900
C 	C 	0.29060 0.57330 0.67920 0.06300
H 	H 	0.31010 0.61360 0.66930 0.01800
H 	H 	0.27510 0.60650 0.69560 -0.00500
C 	C 	0.23020 0.58140 0.61570 0.22600
C 	C 	0.19640 0.53230 0.58300 -0.07300
C 	C 	0.15630 0.57320 0.56040 0.00900
H 	H 	0.15160 0.63250 0.56470 0.04800
Ag	Ag	0.26823 0.03669 0.52672 0.54300
Ag	Ag	0.51351 0.28357 0.51019 0.53000
Ag	Ag	0.77057 0.01125 0.77237 0.50800
O 	O 	0.30030 0.85970 0.50977 -0.26600
O 	O 	0.27100 0.52180 0.40634 -0.26700
O 	O 	0.41836 0.46080 0.50496 -0.26100
O 	O 	0.57450 0.15290 0.51880 -0.28800
O 	O 	0.70960 0.76830 0.56755 -0.24700
O 	O 	0.73430 0.16020 0.61451 -0.25600
N 	N 	0.31410 0.08160 0.58135 -0.20900
N 	N 	0.35590 0.81600 0.56352 -0.23200
H 	H 	0.37800 0.77850 0.57410 0.11600
N 	N 	0.20550 0.55960 0.25860 -0.21800
N 	N 	0.25490 0.66010 0.38770 -0.23700
H 	H 	0.26210 0.71430 0.39390 0.15300
N 	N 	0.56210 0.33740 0.56466 -0.21200
N 	N 	0.44940 0.55010 0.55555 -0.23400
H 	H 	0.44890 0.60110 0.56630 0.11000
N 	N 	0.46080 0.26420 0.45235 -0.21000
N 	N 	0.54850 0.03810 0.48007 -0.23300
H 	H 	0.55430 0.98660 0.47210 0.11200
N 	N 	0.71670 0.51850 0.47108 -0.20600
N 	N 	0.65920 0.77320 0.50640 -0.22600
H 	H 	0.64100 0.80660 0.48820 0.10600
N 	N 	0.83910 0.05480 0.77185 -0.21900
N 	N 	0.75570 0.03440 0.64610 -0.23000
H 	H 	0.75130 0.97830 0.64600 0.11800
C 	C 	0.29870 0.14710 0.59910 0.06800
H 	H 	0.27030 0.17440 0.58540 0.01100
C 	C 	0.32240 0.17640 0.63630 -0.14500
H 	H 	0.31120 0.22440 0.64750 0.07100
C 	C 	0.36240 0.13460 0.65690 0.07700
H 	H 	0.37880 0.15180 0.68300 -0.00700
C 	C 	0.37840 0.06780 0.63930 -0.18800
H 	H 	0.40590 0.03810 0.65320 0.08500
C 	C 	0.35410 0.04320 0.60090 0.15800
C 	C 	0.37010 0.97020 0.58020 -0.26900
H 	H 	0.36160 0.98220 0.55150 0.09300
H 	H 	0.40440 0.96480 0.59020 0.09900
C 	C 	0.34760 0.88710 0.58730 0.07300
H 	H 	0.31370 0.89620 0.58130 0.01200
H 	H 	0.35990 0.87150 0.61560 0.00500
C 	C 	0.33070 0.80690 0.52610 0.23000
C 	C 	0.33980 0.72760 0.50490 -0.06900
C 	C 	0.37620 0.67260 0.52130 0.00300
H 	H 	0.39870 0.68810 0.54530 0.00800
C 	C 	0.17140 0.53440 0.22630 0.07400
H 	H 	0.17630 0.48490 0.21220 -0.01900
C 	C 	0.13000 0.57810 0.21310 -0.15400
H 	H 	0.10630 0.55850 0.19060 0.07200
C 	C 	0.12350 0.64960 0.23290 0.08100
H 	H 	0.09510 0.68100 0.22420 -0.00400
C 	C 	0.15870 0.67690 0.26620 -0.19100
H 	H 	0.15470 0.72710 0.28020 0.09100
C 	C 	0.19900 0.63020 0.27840 0.15500
C 	C 	0.23650 0.65420 0.31490 -0.25800
H 	H 	0.26420 0.61770 0.31750 0.07300
H 	H 	0.24560 0.71520 0.31330 0.09900
C 	C 	0.21920 0.64180 0.35080 0.06900
H 	H 	0.20840 0.58160 0.35130 0.02000
H 	H 	0.19230 0.68030 0.34850 0.01100
C 	C 	0.27750 0.59930 0.41260 0.22400
C 	C 	0.31170 0.62930 0.45050 -0.07700
C 	C 	0.30790 0.70670 0.46920 0.00500
H 	H 	0.28310 0.74530 0.45740 0.04600
C 	C 	0.59560 0.28440 0.58660 0.09300
H 	H 	0.59660 0.22630 0.57840 0.00300
C 	C 	0.62780 0.31160 0.61960 -0.17900
H 	H 	0.65090 0.27270 0.63420 0.08700
C 	C 	0.62750 0.39400 0.63220 0.12000
H 	H 	0.65020 0.41360 0.65530 -0.03300
C 	C 	0.59360 0.44840 0.61050 -0.21200
H 	H 	0.59260 0.50660 0.61860 0.09900
C 	C 	0.56090 0.41880 0.57690 0.17600
C 	C 	0.52190 0.47600 0.55420 -0.27300
H 	H 	0.53460 0.53330 0.55070 0.10700
H 	H 	0.50770 0.45100 0.52770 0.08900
C 	C 	0.48470 0.48690 0.57480 0.07200
H 	H 	0.49960 0.50510 0.60240 0.00400
H 	H 	0.46950 0.43050 0.57540 0.01000
C 	C 	0.41830 0.53030 0.52180 0.21700
C 	C 	0.38040 0.59530 0.50350 -0.07700
C 	C 	0.34740 0.57340 0.46820 0.00400
H 	H 	0.34940 0.51950 0.45610 0.04600
C 	C 	0.42070 0.30800 0.44560 0.06600
H 	H 	0.41720 0.34640 0.46540 0.00900
C 	C 	0.38440 0.30000 0.41140 -0.14500
H 	H 	0.35710 0.33400 0.40710 0.08600
C 	C 	0.38870 0.24250 0.38380 0.08200
H 	H 	0.36390 0.23400 0.36030 -0.00100
C 	C 	0.43000 0.19580 0.39050 -0.19200
H 	H 	0.43370 0.15600 0.37130 0.08600
C 	C 	0.46510 0.20720 0.42460 0.16100
C 	C 	0.50920 0.15510 0.43460 -0.27500
H 	H 	0.51440 0.13260 0.41020 0.10000
H 	H 	0.53600 0.19180 0.44830 0.09700
C 	C 	0.50470 0.08020 0.46130 0.07700
H 	H 	0.48270 0.03730 0.44540 0.00400
H 	H 	0.49150 0.10220 0.48190 -0.00100
C 	C 	0.58030 0.07760 0.50960 0.22700
C 	C 	0.62350 0.02880 0.53160 -0.07700
C 	C 	0.63060 0.94250 0.52500 -0.00100
H 	H 	0.60760 0.91140 0.50560 0.01100
C 	C 	0.71090 0.43950 0.45360 0.07900
H 	H 	0.73040 0.39370 0.46660 0.01900
C 	C 	0.67900 0.42270 0.41890 -0.14400
H 	H 	0.67600 0.36640 0.40790 0.08200
C 	C 	0.65050 0.48910 0.39950 0.08000
H 	H 	0.62770 0.47910 0.37490 -0.00600
C 	C 	0.65580 0.56950 0.41630 -0.18100
H 	H 	0.63640 0.61570 0.40350 0.08500
C 	C 	0.68940 0.58330 0.45210 0.15500
C 	C 	0.69460 0.67210 0.47050 -0.25200
H 	H 	0.72730 0.68110 0.48640 0.08000
H 	H 	0.68670 0.71630 0.44940 0.09900
C 	C 	0.66300 0.68230 0.49650 0.04500
H 	H 	0.67570 0.64860 0.52110 0.02300
H 	H 	0.63180 0.65930 0.48260 0.02500
C 	C 	0.68150 0.80850 0.54100 0.21300
C 	C 	0.67130 0.90120 0.54650 -0.08500
C 	C 	0.70370 0.94700 0.57500 0.00200
H 	H 	0.73180 0.91950 0.58950 0.03400
C 	C 	0.86780 0.09210 0.80410 0.08000
H 	H 	0.85700 0.10040 0.82640 -0.01800
C 	C 	0.91170 0.11860 0.80630 -0.15700
H 	H 	0.93140 0.14330 0.82980 0.07700
C 	C 	0.92700 0.10840 0.77290 0.08400
H 	H 	0.95690 0.12810 0.77290 -0.00700
C 	C 	0.89830 0.07010 0.74050 -0.19300
H 	H 	0.90830 0.06160 0.71780 0.08700
C 	C 	0.85420 0.04300 0.74050 0.15500
C 	C 	0.82120 0.00350 0.70420 -0.26600
H 	H 	0.83910 0.97390 0.68860 0.09900
H 	H 	0.80150 0.96010 0.71210 0.07000
C 	C 	0.79060 0.07330 0.67920 0.06400
H 	H 	0.81010 0.11360 0.66930 0.01800
H 	H 	0.77510 0.10650 0.69560 -0.00500
C 	C 	0.73020 0.08140 0.61570 0.22600
C 	C 	0.69640 0.03230 0.58300 -0.07300
C 	C 	0.65630 0.07320 0.56040 0.00900
H 	H 	0.65160 0.13250 0.56470 0.04800
Ag	Ag	0.23177 0.46331 0.47328 0.54300
Ag	Ag	0.98649 0.21643 0.48981 0.53000
Ag	Ag	0.72943 0.48875 0.22763 0.50800
O 	O 	0.19970 0.64030 0.49023 -0.26600
O 	O 	0.22900 0.97820 0.59366 -0.26600
O 	O 	0.08164 0.03920 0.49504 -0.26100
O 	O 	0.92550 0.34710 0.48120 -0.28800
O 	O 	0.79040 0.73170 0.43245 -0.24700
O 	O 	0.76570 0.33980 0.38549 -0.25600
N 	N 	0.18590 0.41840 0.41865 -0.20900
N 	N 	0.14410 0.68400 0.43648 -0.23200
H 	H 	0.12200 0.72150 0.42590 0.11600
N 	N 	0.29450 0.94040 0.74140 -0.21800
N 	N 	0.24510 0.83990 0.61230 -0.23700
H 	H 	0.23790 0.78570 0.60610 0.15300
N 	N 	0.93790 0.16260 0.43534 -0.21200
N 	N 	0.05060 0.94990 0.44445 -0.23400
H 	H 	0.05110 0.89890 0.43370 0.11000
N 	N 	0.03920 0.23580 0.54765 -0.21000
N 	N 	0.95150 0.46190 0.51993 -0.23300
H 	H 	0.94570 0.51340 0.52790 0.11200
N 	N 	0.78330 0.98150 0.52892 -0.20600
N 	N 	0.84080 0.72680 0.49360 -0.22600
H 	H 	0.85900 0.69340 0.51180 0.10600
N 	N 	0.66090 0.44520 0.22815 -0.21900
N 	N 	0.74430 0.46560 0.35390 -0.23000
H 	H 	0.74870 0.52170 0.35400 0.11800
C 	C 	0.20130 0.35290 0.40090 0.06800
H 	H 	0.22970 0.32560 0.41460 0.01100
C 	C 	0.17760 0.32360 0.36370 -0.14500
H 	H 	0.18880 0.27560 0.35250 0.07100
C 	C 	0.13760 0.36540 0.34310 0.07700
H 	H 	0.12120 0.34820 0.31700 -0.00700
C 	C 	0.12160 0.43220 0.36070 -0.18800
H 	H 	0.09410 0.46190 0.34680 0.08500
C 	C 	0.14590 0.45680 0.39910 0.15800
C 	C 	0.12990 0.52980 0.41980 -0.27000
H 	H 	0.13840 0.51780 0.44850 0.09300
H 	H 	0.09560 0.53520 0.40980 0.09900
C 	C 	0.15240 0.61290 0.41270 0.07300
H 	H 	0.18630 0.60380 0.41870 0.01200
H 	H 	0.14010 0.62850 0.38440 0.00500
C 	C 	0.16930 0.69310 0.47390 0.23000
C 	C 	0.16020 0.77240 0.49510 -0.06900
C 	C 	0.12380 0.82740 0.47870 0.00300
H 	H 	0.10130 0.81190 0.45470 0.00800
C 	C 	0.32860 0.96560 0.77370 0.07500
H 	H 	0.32370 0.01510 0.78780 -0.01900
C 	C 	0.37000 0.92190 0.78690 -0.15500
H 	H 	0.39370 0.94150 0.80940 0.07300
C 	C 	0.37650 0.85040 0.76710 0.08100
H 	H 	0.40490 0.81900 0.77580 -0.00400
C 	C 	0.34130 0.82310 0.73380 -0.19100
H 	H 	0.34530 0.77290 0.71980 0.09100
C 	C 	0.30100 0.86980 0.72160 0.15600
C 	C 	0.26350 0.84580 0.68510 -0.25800
H 	H 	0.23580 0.88230 0.68250 0.07300
H 	H 	0.25440 0.78480 0.68670 0.09900
C 	C 	0.28080 0.85820 0.64920 0.06900
H 	H 	0.29160 0.91840 0.64870 0.02000
H 	H 	0.30770 0.81970 0.65150 0.01100
C 	C 	0.22250 0.90070 0.58740 0.22400
C 	C 	0.18830 0.87070 0.54950 -0.07700
C 	C 	0.19210 0.79330 0.53080 0.00500
H 	H 	0.21690 0.75470 0.54260 0.04700
C 	C 	0.90440 0.21560 0.41340 0.09300
H 	H 	0.90340 0.27370 0.42160 0.00300
C 	C 	0.87220 0.18840 0.38040 -0.17800
H 	H 	0.84910 0.22730 0.36580 0.08700
C 	C 	0.87250 0.10600 0.36780 0.12000
H 	H 	0.84980 0.08640 0.34470 -0.03300
C 	C 	0.90640 0.05160 0.38950 -0.21100
H 	H 	0.90740 0.99340 0.38140 0.09800
C 	C 	0.93910 0.08120 0.42310 0.17600
C 	C 	0.97810 0.02400 0.44580 -0.27200
H 	H 	0.96540 0.96670 0.44930 0.10600
H 	H 	0.99230 0.04900 0.47230 0.08900
C 	C 	0.01530 0.01310 0.42520 0.07200
H 	H 	0.00040 0.99490 0.39760 0.00400
H 	H 	0.03050 0.06950 0.42460 0.01000
C 	C 	0.08170 0.96970 0.47820 0.21700
C 	C 	0.11960 0.90470 0.49650 -0.07700
C 	C 	0.15260 0.92660 0.53180 0.00400
H 	H 	0.15060 0.98050 0.54390 0.04600
C 	C 	0.07930 0.19200 0.55440 0.06600
H 	H 	0.08280 0.15360 0.53460 0.00900
C 	C 	0.11560 0.20000 0.58860 -0.14500
H 	H 	0.14290 0.16600 0.59290 0.08600
C 	C 	0.11130 0.25750 0.61620 0.08200
H 	H 	0.13610 0.26600 0.63970 -0.00100
C 	C 	0.07000 0.30420 0.60950 -0.19200
H 	H 	0.06630 0.34400 0.62870 0.08600
C 	C 	0.03490 0.29280 0.57540 0.16100
C 	C 	0.99080 0.34490 0.56540 -0.27500
H 	H 	0.98560 0.36740 0.58980 0.10000
H 	H 	0.96400 0.30820 0.55170 0.09700
C 	C 	0.99530 0.41980 0.53870 0.07700
H 	H 	0.01730 0.46270 0.55460 0.00400
H 	H 	0.00850 0.39780 0.51810 -0.00100
C 	C 	0.91970 0.42240 0.49040 0.22700
C 	C 	0.87650 0.47120 0.46840 -0.07700
C 	C 	0.86940 0.55750 0.47500 -0.00100
H 	H 	0.89240 0.58860 0.49440 0.01100
C 	C 	0.78910 0.06050 0.54640 0.07900
H 	H 	0.76960 0.10630 0.53340 0.01900
C 	C 	0.82100 0.07730 0.58110 -0.14300
H 	H 	0.82400 0.13360 0.59210 0.08200
C 	C 	0.84950 0.01090 0.60050 0.08000
H 	H 	0.87230 0.02090 0.62510 -0.00600
C 	C 	0.84420 0.93050 0.58370 -0.18000
H 	H 	0.86360 0.88430 0.59650 0.08500
C 	C 	0.81060 0.91670 0.54790 0.15500
C 	C 	0.80540 0.82790 0.52950 -0.25200
H 	H 	0.77270 0.81890 0.51360 0.08000
H 	H 	0.81330 0.78370 0.55060 0.09900
C 	C 	0.83700 0.81770 0.50350 0.04500
H 	H 	0.82430 0.85140 0.47890 0.02300
H 	H 	0.86820 0.84070 0.51740 0.02500
C 	C 	0.81850 0.69150 0.45900 0.21300
C 	C 	0.82870 0.59880 0.45350 -0.08500
C 	C 	0.79630 0.55300 0.42500 0.00200
H 	H 	0.76820 0.58050 0.41050 0.03400
C 	C 	0.63220 0.40790 0.19590 0.08000
H 	H 	0.64300 0.39960 0.17360 -0.01800
C 	C 	0.58830 0.38140 0.19370 -0.15600
H 	H 	0.56860 0.35670 0.17020 0.07600
C 	C 	0.57300 0.39160 0.22710 0.08400
H 	H 	0.54310 0.37190 0.22710 -0.00700
C 	C 	0.60170 0.42990 0.25950 -0.19300
H 	H 	0.59170 0.43840 0.28220 0.08700
C 	C 	0.64580 0.45700 0.25950 0.15400
C 	C 	0.67880 0.49650 0.29580 -0.26400
H 	H 	0.66090 0.52610 0.31140 0.09800
H 	H 	0.69850 0.53990 0.28790 0.06900
C 	C 	0.70940 0.42670 0.32080 0.06300
H 	H 	0.68990 0.38640 0.33070 0.01800
H 	H 	0.72490 0.39350 0.30440 -0.00500
C 	C 	0.76980 0.41860 0.38430 0.22600
C 	C 	0.80360 0.46770 0.41700 -0.07300
C 	C 	0.84370 0.42680 0.43960 0.00900
H 	H 	0.84840 0.36750 0.43530 0.04800
Ag	Ag	0.73177 0.96331 0.47328 0.54300
Ag	Ag	0.48649 0.71643 0.48981 0.53000
Ag	Ag	0.22943 0.98875 0.22763 0.50800
O 	O 	0.69970 0.14030 0.49023 -0.26600
O 	O 	0.72900 0.47820 0.59366 -0.26700
O 	O 	0.58164 0.53920 0.49504 -0.26100
O 	O 	0.42550 0.84710 0.48120 -0.28800
O 	O 	0.29040 0.23170 0.43245 -0.24700
O 	O 	0.26570 0.83980 0.38549 -0.25600
N 	N 	0.68590 0.91840 0.41865 -0.20900
N 	N 	0.64410 0.18400 0.43648 -0.23200
H 	H 	0.62200 0.22150 0.42590 0.11600
N 	N 	0.79450 0.44040 0.74140 -0.21800
N 	N 	0.74510 0.33990 0.61230 -0.23700
H 	H 	0.73790 0.28570 0.60610 0.15300
N 	N 	0.43790 0.66260 0.43534 -0.21200
N 	N 	0.55060 0.44990 0.44445 -0.23400
H 	H 	0.55110 0.39890 0.43370 0.11000
N 	N 	0.53920 0.73580 0.54765 -0.21000
N 	N 	0.45150 0.96190 0.51993 -0.23300
H 	H 	0.44570 0.01340 0.52790 0.11200
N 	N 	0.28330 0.48150 0.52892 -0.20600
N 	N 	0.34080 0.22680 0.49360 -0.22600
H 	H 	0.35900 0.19340 0.51180 0.10600
N 	N 	0.16090 0.94520 0.22815 -0.21900
N 	N 	0.24430 0.96560 0.35390 -0.23000
H 	H 	0.24870 0.02170 0.35400 0.11800
C 	C 	0.70130 0.85290 0.40090 0.06800
H 	H 	0.72970 0.82560 0.41460 0.01100
C 	C 	0.67760 0.82360 0.36370 -0.14500
H 	H 	0.68880 0.77560 0.35250 0.07100
C 	C 	0.63760 0.86540 0.34310 0.07700
H 	H 	0.62120 0.84820 0.31700 -0.00700
C 	C 	0.62160 0.93220 0.36070 -0.18800
H 	H 	0.59410 0.96190 0.34680 0.08500
C 	C 	0.64590 0.95680 0.39910 0.15800
C 	C 	0.62990 0.02980 0.41980 -0.26900
H 	H 	0.63840 0.01780 0.44850 0.09300
H 	H 	0.59560 0.03520 0.40980 0.09900
C 	C 	0.65240 0.11290 0.41270 0.07300
H 	H 	0.68630 0.10380 0.41870 0.01200
H 	H 	0.64010 0.12850 0.38440 0.00500
C 	C 	0.66930 0.19310 0.47390 0.23000
C 	C 	0.66020 0.27240 0.49510 -0.06900
C 	C 	0.62380 0.32740 0.47870 0.00300
H 	H 	0.60130 0.31190 0.45470 0.00800
C 	C 	0.82860 0.46560 0.77370 0.07400
H 	H 	0.82370 0.51510 0.78780 -0.01900
C 	C 	0.87000 0.42190 0.78690 -0.15400
H 	H 	0.89370 0.44150 0.80940 0.07200
C 	C 	0.87650 0.35040 0.76710 0.08100
H 	H 	0.90490 0.31900 0.77580 -0.00400
C 	C 	0.84130 0.32310 0.73380 -0.19100
H 	H 	0.84530 0.27290 0.71980 0.09100
C 	C 	0.80100 0.36980 0.72160 0.15500
C 	C 	0.76350 0.34580 0.68510 -0.25800
H 	H 	0.73580 0.38230 0.68250 0.07300
H 	H 	0.75440 0.28480 0.68670 0.09900
C 	C 	0.78080 0.35820 0.64920 0.06900
H 	H 	0.79160 0.41840 0.64870 0.02000
H 	H 	0.80770 0.31970 0.65150 0.01100
C 	C 	0.72250 0.40070 0.58740 0.22400
C 	C 	0.68830 0.37070 0.54950 -0.07700
C 	C 	0.69210 0.29330 0.53080 0.00500
H 	H 	0.71690 0.25470 0.54260 0.04600
C 	C 	0.40440 0.71560 0.41340 0.09300
H 	H 	0.40340 0.77370 0.42160 0.00300
C 	C 	0.37220 0.68840 0.38040 -0.17900
H 	H 	0.34910 0.72730 0.36580 0.08700
C 	C 	0.37250 0.60600 0.36780 0.12000
H 	H 	0.34980 0.58640 0.34470 -0.03300
C 	C 	0.40640 0.55160 0.38950 -0.21200
H 	H 	0.40740 0.49340 0.38140 0.09900
C 	C 	0.43910 0.58120 0.42310 0.17600
C 	C 	0.47810 0.52400 0.44580 -0.27300
H 	H 	0.46540 0.46670 0.44930 0.10700
H 	H 	0.49230 0.54900 0.47230 0.08900
C 	C 	0.51530 0.51310 0.42520 0.07200
H 	H 	0.50040 0.49490 0.39760 0.00400
H 	H 	0.53050 0.56950 0.42460 0.01000
C 	C 	0.58170 0.46970 0.47820 0.21700
C 	C 	0.61960 0.40470 0.49650 -0.07700
C 	C 	0.65260 0.42660 0.53180 0.00400
H 	H 	0.65060 0.48050 0.54390 0.04600
C 	C 	0.57930 0.69200 0.55440 0.06600
H 	H 	0.58280 0.65360 0.53460 0.00900
C 	C 	0.61560 0.70000 0.58860 -0.14500
H 	H 	0.64290 0.66600 0.59290 0.08600
C 	C 	0.61130 0.75750 0.61620 0.08200
H 	H 	0.63610 0.76600 0.63970 -0.00100
C 	C 	0.57000 0.80420 0.60950 -0.19200
H 	H 	0.56630 0.84400 0.62870 0.08600
C 	C 	0.53490 0.79280 0.57540 0.16100
C 	C 	0.49080 0.84490 0.56540 -0.27500
H 	H 	0.48560 0.86740 0.58980 0.10000
H 	H 	0.46400 0.80820 0.55170 0.09700
C 	C 	0.49530 0.91980 0.53870 0.07700
H 	H 	0.51730 0.96270 0.55460 0.00400
H 	H 	0.50850 0.89780 0.51810 -0.00100
C 	C 	0.41970 0.92240 0.49040 0.22700
C 	C 	0.37650 0.97120 0.46840 -0.07700
C 	C 	0.36940 0.05750 0.47500 -0.00100
H 	H 	0.39240 0.08860 0.49440 0.01100
C 	C 	0.28910 0.56050 0.54640 0.07900
H 	H 	0.26960 0.60630 0.53340 0.01900
C 	C 	0.32100 0.57730 0.58110 -0.14400
H 	H 	0.32400 0.63360 0.59210 0.08200
C 	C 	0.34950 0.51090 0.60050 0.08000
H 	H 	0.37230 0.52090 0.62510 -0.00600
C 	C 	0.34420 0.43050 0.58370 -0.18100
H 	H 	0.36360 0.38430 0.59650 0.08500
C 	C 	0.31060 0.41670 0.54790 0.15500
C 	C 	0.30540 0.32790 0.52950 -0.25200
H 	H 	0.27270 0.31890 0.51360 0.08000
H 	H 	0.31330 0.28370 0.55060 0.09900
C 	C 	0.33700 0.31770 0.50350 0.04500
H 	H 	0.32430 0.35140 0.47890 0.02300
H 	H 	0.36820 0.34070 0.51740 0.02500
C 	C 	0.31850 0.19150 0.45900 0.21300
C 	C 	0.32870 0.09880 0.45350 -0.08500
C 	C 	0.29630 0.05300 0.42500 0.00200
H 	H 	0.26820 0.08050 0.41050 0.03400
C 	C 	0.13220 0.90790 0.19590 0.08000
H 	H 	0.14300 0.89960 0.17360 -0.01800
C 	C 	0.08830 0.88140 0.19370 -0.15700
H 	H 	0.06860 0.85670 0.17020 0.07700
C 	C 	0.07300 0.89160 0.22710 0.08400
H 	H 	0.04310 0.87190 0.22710 -0.00700
C 	C 	0.10170 0.92990 0.25950 -0.19300
H 	H 	0.09170 0.93840 0.28220 0.08700
C 	C 	0.14580 0.95700 0.25950 0.15500
C 	C 	0.17880 0.99650 0.29580 -0.26600
H 	H 	0.16090 0.02610 0.31140 0.09900
H 	H 	0.19850 0.03990 0.28790 0.07000
C 	C 	0.20940 0.92670 0.32080 0.06400
H 	H 	0.18990 0.88640 0.33070 0.01800
H 	H 	0.22490 0.89350 0.30440 -0.00500
C 	C 	0.26980 0.91860 0.38430 0.22600
C 	C 	0.30360 0.96770 0.41700 -0.07300
C 	C 	0.34370 0.92680 0.43960 0.00900
H 	H 	0.34840 0.86750 0.43530 0.04800
Ag	Ag	0.23177 0.53669 0.97328 0.54300
Ag	Ag	0.98649 0.78357 0.98981 0.53000
Ag	Ag	0.72943 0.51125 0.72763 0.50800
O 	O 	0.19970 0.35970 0.99023 -0.26600
O 	O 	0.22900 0.02180 0.09366 -0.26600
O 	O 	0.08164 0.96080 0.99504 -0.26000
O 	O 	0.92550 0.65290 0.98120 -0.28800
O 	O 	0.79040 0.26830 0.93245 -0.24800
O 	O 	0.76570 0.66020 0.88549 -0.25600
N 	N 	0.18590 0.58160 0.91865 -0.20900
N 	N 	0.14410 0.31600 0.93648 -0.23200
H 	H 	0.12200 0.27850 0.92590 0.11600
N 	N 	0.29450 0.05960 0.24140 -0.21800
N 	N 	0.24510 0.16010 0.11230 -0.23700
H 	H 	0.23790 0.21430 0.10610 0.15300
N 	N 	0.93790 0.83740 0.93534 -0.21200
N 	N 	0.05060 0.05010 0.94445 -0.23500
H 	H 	0.05110 0.10110 0.93370 0.11000
N 	N 	0.03920 0.76420 0.04765 -0.21000
N 	N 	0.95150 0.53810 0.01993 -0.23300
H 	H 	0.94570 0.48660 0.02790 0.11200
N 	N 	0.78330 0.01850 0.02892 -0.20500
N 	N 	0.84080 0.27320 0.99360 -0.22700
H 	H 	0.85900 0.30660 0.01180 0.10600
N 	N 	0.66090 0.55480 0.72815 -0.21900
N 	N 	0.74430 0.53440 0.85390 -0.23000
H 	H 	0.74870 0.47830 0.85400 0.11800
C 	C 	0.20130 0.64710 0.90090 0.06800
H 	H 	0.22970 0.67440 0.91460 0.01100
C 	C 	0.17760 0.67640 0.86370 -0.14500
H 	H 	0.18880 0.72440 0.85250 0.07100
C 	C 	0.13760 0.63460 0.84310 0.07700
H 	H 	0.12120 0.65180 0.81700 -0.00700
C 	C 	0.12160 0.56780 0.86070 -0.18800
H 	H 	0.09410 0.53810 0.84680 0.08500
C 	C 	0.14590 0.54320 0.89910 0.15800
C 	C 	0.12990 0.47020 0.91980 -0.27000
H 	H 	0.13840 0.48220 0.94850 0.09300
H 	H 	0.09560 0.46480 0.90980 0.09900
C 	C 	0.15240 0.38710 0.91270 0.07300
H 	H 	0.18630 0.39620 0.91870 0.01200
H 	H 	0.14010 0.37150 0.88440 0.00500
C 	C 	0.16930 0.30690 0.97390 0.23100
C 	C 	0.16020 0.22760 0.99510 -0.07000
C 	C 	0.12380 0.17260 0.97870 0.00300
H 	H 	0.10130 0.18810 0.95470 0.00800
C 	C 	0.32860 0.03440 0.27370 0.07500
H 	H 	0.32370 0.98490 0.28780 -0.01900
C 	C 	0.37000 0.07810 0.28690 -0.15500
H 	H 	0.39370 0.05850 0.30940 0.07300
C 	C 	0.37650 0.14960 0.26710 0.08100
H 	H 	0.40490 0.18100 0.27580 -0.00400
C 	C 	0.34130 0.17690 0.23380 -0.19100
H 	H 	0.34530 0.22710 0.21980 0.09100
C 	C 	0.30100 0.13020 0.22160 0.15600
C 	C 	0.26350 0.15420 0.18510 -0.25800
H 	H 	0.23580 0.11770 0.18250 0.07300
H 	H 	0.25440 0.21520 0.18670 0.09900
C 	C 	0.28080 0.14180 0.14920 0.06900
H 	H 	0.29160 0.08160 0.14870 0.02000
H 	H 	0.30770 0.18030 0.15150 0.01100
C 	C 	0.22250 0.09930 0.08740 0.22400
C 	C 	0.18830 0.12930 0.04950 -0.07700
C 	C 	0.19210 0.20670 0.03080 0.00500
H 	H 	0.21690 0.24530 0.04260 0.04600
C 	C 	0.90440 0.78440 0.91340 0.09300
H 	H 	0.90340 0.72630 0.92160 0.00300
C 	C 	0.87220 0.81160 0.88040 -0.17800
H 	H 	0.84910 0.77270 0.86580 0.08700
C 	C 	0.87250 0.89400 0.86780 0.11900
H 	H 	0.84980 0.91360 0.84470 -0.03300
C 	C 	0.90640 0.94840 0.88950 -0.21100
H 	H 	0.90740 0.00660 0.88140 0.09800
C 	C 	0.93910 0.91880 0.92310 0.17500
C 	C 	0.97810 0.97600 0.94580 -0.27200
H 	H 	0.96540 0.03330 0.94930 0.10600
H 	H 	0.99230 0.95100 0.97230 0.08900
C 	C 	0.01530 0.98690 0.92520 0.07300
H 	H 	0.00040 0.00510 0.89760 0.00400
H 	H 	0.03050 0.93050 0.92460 0.01000
C 	C 	0.08170 0.03030 0.97820 0.21700
C 	C 	0.11960 0.09530 0.99650 -0.07800
C 	C 	0.15260 0.07340 0.03180 0.00400
H 	H 	0.15060 0.01950 0.04390 0.04600
C 	C 	0.07930 0.80800 0.05440 0.06600
H 	H 	0.08280 0.84640 0.03460 0.00800
C 	C 	0.11560 0.80000 0.08860 -0.14500
H 	H 	0.14290 0.83400 0.09290 0.08600
C 	C 	0.11130 0.74250 0.11620 0.08200
H 	H 	0.13610 0.73400 0.13970 -0.00100
C 	C 	0.07000 0.69580 0.10950 -0.19200
H 	H 	0.06630 0.65600 0.12870 0.08600
C 	C 	0.03490 0.70720 0.07540 0.16100
C 	C 	0.99080 0.65510 0.06540 -0.27500
H 	H 	0.98560 0.63260 0.08980 0.10000
H 	H 	0.96400 0.69180 0.05170 0.09700
C 	C 	0.99530 0.58020 0.03870 0.07800
H 	H 	0.01730 0.53730 0.05460 0.00400
H 	H 	0.00850 0.60220 0.01810 -0.00100
C 	C 	0.91970 0.57760 0.99040 0.22700
C 	C 	0.87650 0.52880 0.96840 -0.07700
C 	C 	0.86940 0.44250 0.97500 -0.00100
H 	H 	0.89240 0.41140 0.99440 0.01100
C 	C 	0.78910 0.93950 0.04640 0.07800
H 	H 	0.76960 0.89370 0.03340 0.01900
C 	C 	0.82100 0.92270 0.08110 -0.14200
H 	H 	0.82400 0.86640 0.09210 0.08100
C 	C 	0.84950 0.98910 0.10050 0.07800
H 	H 	0.87230 0.97910 0.12510 -0.00500
C 	C 	0.84420 0.06950 0.08370 -0.17900
H 	H 	0.86360 0.11570 0.09650 0.08500
C 	C 	0.81060 0.08330 0.04790 0.15500
C 	C 	0.80540 0.17210 0.02950 -0.25200
H 	H 	0.77270 0.18110 0.01360 0.08000
H 	H 	0.81330 0.21630 0.05060 0.09900
C 	C 	0.83700 0.18230 0.00350 0.04700
H 	H 	0.82430 0.14860 0.97890 0.02200
H 	H 	0.86820 0.15930 0.01740 0.02500
C 	C 	0.81850 0.30850 0.95900 0.21300
C 	C 	0.82870 0.40120 0.95350 -0.08500
C 	C 	0.79630 0.44700 0.92500 0.00200
H 	H 	0.76820 0.41950 0.91050 0.03400
C 	C 	0.63220 0.59210 0.69590 0.08000
H 	H 	0.64300 0.60040 0.67360 -0.01800
C 	C 	0.58830 0.61860 0.69370 -0.15600
H 	H 	0.56860 0.64330 0.67020 0.07600
C 	C 	0.57300 0.60840 0.72710 0.08400
H 	H 	0.54310 0.62810 0.72710 -0.00700
C 	C 	0.60170 0.57010 0.75950 -0.19300
H 	H 	0.59170 0.56160 0.78220 0.08700
C 	C 	0.64580 0.54300 0.75950 0.15400
C 	C 	0.67880 0.50350 0.79580 -0.26400
H 	H 	0.66090 0.47390 0.81140 0.09800
H 	H 	0.69850 0.46010 0.78790 0.06900
C 	C 	0.70940 0.57330 0.82080 0.06300
H 	H 	0.68990 0.61360 0.83070 0.01800
H 	H 	0.72490 0.60650 0.80440 -0.00500
C 	C 	0.76980 0.58140 0.88430 0.22600
C 	C 	0.80360 0.53230 0.91700 -0.07300
C 	C 	0.84370 0.57320 0.93960 0.00900
H 	H 	0.84840 0.63250 0.93530 0.04800
Ag	Ag	0.73177 0.03669 0.97328 0.54200
Ag	Ag	0.48649 0.28357 0.98981 0.53000
Ag	Ag	0.22943 0.01125 0.72763 0.50800
O 	O 	0.69970 0.85970 0.99023 -0.26500
O 	O 	0.72900 0.52180 0.09366 -0.26700
O 	O 	0.58164 0.46080 0.99504 -0.26100
O 	O 	0.42550 0.15290 0.98120 -0.28800
O 	O 	0.29040 0.76830 0.93245 -0.24700
O 	O 	0.26570 0.16020 0.88549 -0.25600
N 	N 	0.68590 0.08160 0.91865 -0.20900
N 	N 	0.64410 0.81600 0.93648 -0.23200
H 	H 	0.62200 0.77850 0.92590 0.11600
N 	N 	0.79450 0.55960 0.24140 -0.21800
N 	N 	0.74510 0.66010 0.11230 -0.23700
H 	H 	0.73790 0.71430 0.10610 0.15300
N 	N 	0.43790 0.33740 0.93534 -0.21200
N 	N 	0.55060 0.55010 0.94445 -0.23400
H 	H 	0.55110 0.60110 0.93370 0.11000
N 	N 	0.53920 0.26420 0.04765 -0.21000
N 	N 	0.45150 0.03810 0.01993 -0.23200
H 	H 	0.44570 0.98660 0.02790 0.11100
N 	N 	0.28330 0.51850 0.02892 -0.20600
N 	N 	0.34080 0.77320 0.99360 -0.22500
H 	H 	0.35900 0.80660 0.01180 0.10600
N 	N 	0.16090 0.05480 0.72815 -0.21900
N 	N 	0.24430 0.03440 0.85390 -0.23000
H 	H 	0.24870 0.97830 0.85400 0.11800
C 	C 	0.70130 0.14710 0.90090 0.06800
H 	H 	0.72970 0.17440 0.91460 0.01100
C 	C 	0.67760 0.17640 0.86370 -0.14500
H 	H 	0.68880 0.22440 0.85250 0.07100
C 	C 	0.63760 0.13460 0.84310 0.07700
H 	H 	0.62120 0.15180 0.81700 -0.00700
C 	C 	0.62160 0.06780 0.86070 -0.18800
H 	H 	0.59410 0.03810 0.84680 0.08500
C 	C 	0.64590 0.04320 0.89910 0.15700
C 	C 	0.62990 0.97020 0.91980 -0.26800
H 	H 	0.63840 0.98220 0.94850 0.09300
H 	H 	0.59560 0.96480 0.90980 0.09900
C 	C 	0.65240 0.88710 0.91270 0.07200
H 	H 	0.68630 0.89620 0.91870 0.01200
H 	H 	0.64010 0.87150 0.88440 0.00500
C 	C 	0.66930 0.80690 0.97390 0.23000
C 	C 	0.66020 0.72760 0.99510 -0.06900
C 	C 	0.62380 0.67260 0.97870 0.00300
H 	H 	0.60130 0.68810 0.95470 0.00800
C 	C 	0.82860 0.53440 0.27370 0.07400
H 	H 	0.82370 0.48490 0.28780 -0.01900
C 	C 	0.87000 0.57810 0.28690 -0.15400
H 	H 	0.89370 0.55850 0.30940 0.07200
C 	C 	0.87650 0.64960 0.26710 0.08100
H 	H 	0.90490 0.68100 0.27580 -0.00400
C 	C 	0.84130 0.67690 0.23380 -0.19100
H 	H 	0.84530 0.72710 0.21980 0.09100
C 	C 	0.80100 0.63020 0.22160 0.15500
C 	C 	0.76350 0.65420 0.18510 -0.25800
H 	H 	0.73580 0.61770 0.18250 0.07300
H 	H 	0.75440 0.71520 0.18670 0.09900
C 	C 	0.78080 0.64180 0.14920 0.06900
H 	H 	0.79160 0.58160 0.14870 0.02000
H 	H 	0.80770 0.68030 0.15150 0.01100
C 	C 	0.72250 0.59930 0.08740 0.22400
C 	C 	0.68830 0.62930 0.04950 -0.07700
C 	C 	0.69210 0.70670 0.03080 0.00400
H 	H 	0.71690 0.74530 0.04260 0.04700
C 	C 	0.40440 0.28440 0.91340 0.09300
H 	H 	0.40340 0.22630 0.92160 0.00300
C 	C 	0.37220 0.31160 0.88040 -0.17900
H 	H 	0.34910 0.27270 0.86580 0.08700
C 	C 	0.37250 0.39400 0.86780 0.12000
H 	H 	0.34980 0.41360 0.84470 -0.03300
C 	C 	0.40640 0.44840 0.88950 -0.21200
H 	H 	0.40740 0.50660 0.88140 0.09900
C 	C 	0.43910 0.41880 0.92310 0.17600
C 	C 	0.47810 0.47600 0.94580 -0.27300
H 	H 	0.46540 0.53330 0.94930 0.10700
H 	H 	0.49230 0.45100 0.97230 0.08900
C 	C 	0.51530 0.48690 0.92520 0.07200
H 	H 	0.50040 0.50510 0.89760 0.00400
H 	H 	0.53050 0.43050 0.92460 0.01000
C 	C 	0.58170 0.53030 0.97820 0.21700
C 	C 	0.61960 0.59530 0.99650 -0.07700
C 	C 	0.65260 0.57340 0.03180 0.00300
H 	H 	0.65060 0.51950 0.04390 0.04600
C 	C 	0.57930 0.30800 0.05440 0.06600
H 	H 	0.58280 0.34640 0.03460 0.00900
C 	C 	0.61560 0.30000 0.08860 -0.14500
H 	H 	0.64290 0.33400 0.09290 0.08600
C 	C 	0.61130 0.24250 0.11620 0.08200
H 	H 	0.63610 0.23400 0.13970 -0.00100
C 	C 	0.57000 0.19580 0.10950 -0.19200
H 	H 	0.56630 0.15600 0.12870 0.08600
C 	C 	0.53490 0.20720 0.07540 0.16100
C 	C 	0.49080 0.15510 0.06540 -0.27500
H 	H 	0.48560 0.13260 0.08980 0.10000
H 	H 	0.46400 0.19180 0.05170 0.09700
C 	C 	0.49530 0.08020 0.03870 0.07700
H 	H 	0.51730 0.03730 0.05460 0.00400
H 	H 	0.50850 0.10220 0.01810 -0.00100
C 	C 	0.41970 0.07760 0.99040 0.22600
C 	C 	0.37650 0.02880 0.96840 -0.07800
C 	C 	0.36940 0.94250 0.97500 0.00000
H 	H 	0.39240 0.91140 0.99440 0.01100
C 	C 	0.28910 0.43950 0.04640 0.07900
H 	H 	0.26960 0.39370 0.03340 0.01900
C 	C 	0.32100 0.42270 0.08110 -0.14300
H 	H 	0.32400 0.36640 0.09210 0.08200
C 	C 	0.34950 0.48910 0.10050 0.08000
H 	H 	0.37230 0.47910 0.12510 -0.00600
C 	C 	0.34420 0.56950 0.08370 -0.18000
H 	H 	0.36360 0.61570 0.09650 0.08500
C 	C 	0.31060 0.58330 0.04790 0.15500
C 	C 	0.30540 0.67210 0.02950 -0.25100
H 	H 	0.27270 0.68110 0.01360 0.07900
H 	H 	0.31330 0.71630 0.05060 0.09800
C 	C 	0.33700 0.68230 0.00350 0.04400
H 	H 	0.32430 0.64860 0.97890 0.02300
H 	H 	0.36820 0.65930 0.01740 0.02600
C 	C 	0.31850 0.80850 0.95900 0.21300
C 	C 	0.32870 0.90120 0.95350 -0.08600
C 	C 	0.29630 0.94700 0.92500 0.00300
H 	H 	0.26820 0.91950 0.91050 0.03400
C 	C 	0.13220 0.09210 0.69590 0.08000
H 	H 	0.14300 0.10040 0.67360 -0.01800
C 	C 	0.08830 0.11860 0.69370 -0.15700
H 	H 	0.06860 0.14330 0.67020 0.07700
C 	C 	0.07300 0.10840 0.72710 0.08400
H 	H 	0.04310 0.12810 0.72710 -0.00700
C 	C 	0.10170 0.07010 0.75950 -0.19300
H 	H 	0.09170 0.06160 0.78220 0.08700
C 	C 	0.14580 0.04300 0.75950 0.15500
C 	C 	0.17880 0.00350 0.79580 -0.26600
H 	H 	0.16090 0.97390 0.81140 0.09900
H 	H 	0.19850 0.96010 0.78790 0.07100
C 	C 	0.20940 0.07330 0.82080 0.06400
H 	H 	0.18990 0.11360 0.83070 0.01800
H 	H 	0.22490 0.10650 0.80440 -0.00500
C 	C 	0.26980 0.08140 0.88430 0.22600
C 	C 	0.30360 0.03230 0.91700 -0.07400
C 	C 	0.34370 0.07320 0.93960 0.01000
H 	H 	0.34840 0.13250 0.93530 0.04800
