data_crystal

_cell_length_a 27.90800
_cell_length_b 13.84500
_cell_length_c 44.23600
_cell_angle_alpha 90.00000
_cell_angle_beta  90.00000
_cell_angle_gamma 90.00000

_symmetry_space_group_name_	'P 1'
_symmetry_space_group_name_H-M	'P 1'

loop_
_symmetry_equiv_pos_as_xyz
  x,y,z

loop_
_atom_site_label
_atom_site_type_symbol
_atom_site_fract_x
_atom_site_fract_y
_atom_site_fract_z
_atom_site_charge
Zn	Zn	0.45374 0.85923 0.08775 1.16300
Zn	Zn	0.23999 0.18258 0.31968 1.16400
Zn	Zn	0.47623 0.61954 0.91383 1.16300
I 	I 	0.44572 0.67658 0.08409 -0.38500
I 	I 	0.51783 0.94726 0.11766 -0.36300
I 	I 	0.32878 0.18743 0.33249 -0.37700
I 	I 	0.19487 0.34091 0.31181 -0.37100
I 	I 	0.42807 0.70606 0.87375 -0.37100
I 	I 	0.49372 0.69537 0.96553 -0.39100
C 	C 	0.31690 0.85390 0.87428 0.07400
H 	H 	0.31620 0.78540 0.87510 -0.01200
C 	C 	0.34050 0.90380 0.89730 -0.11500
H 	H 	0.35500 0.87000 0.91360 0.08100
C 	C 	0.29760 0.99450 0.85032 0.07900
H 	H 	0.28240 0.02680 0.83390 -0.01600
C 	C 	0.32050 0.04910 0.87190 -0.12600
H 	H 	0.32150 0.11750 0.87030 0.08400
C 	C 	0.34214 0.00290 0.89588 0.06500
C 	C 	0.36805 0.05820 0.91951 0.10300
C 	C 	0.42657 0.43450 0.89968 0.07500
H 	H 	0.42390 0.46350 0.88030 -0.00700
C 	C 	0.41080 0.34140 0.90333 -0.13000
H 	H 	0.39720 0.30720 0.88680 0.09800
C 	C 	0.44947 0.44450 0.94955 0.07500
H 	H 	0.46300 0.48040 0.96570 -0.00700
C 	C 	0.43450 0.35160 0.95498 -0.12700
H 	H 	0.43760 0.32420 0.97460 0.09100
C 	C 	0.41488 0.29820 0.93140 0.05400
C 	C 	0.40161 0.19590 0.93609 0.08800
C 	C 	0.45716 0.01270 0.04117 0.06500
H 	H 	0.47180 0.04810 0.05710 -0.01200
C 	C 	0.44512 0.06040 0.01502 -0.11900
H 	H 	0.45140 0.12760 0.01300 0.09100
C 	C 	0.43080 0.86780 0.02194 0.06700
H 	H 	0.42680 0.80000 0.02410 -0.00400
C 	C 	0.41730 0.91000 0.99477 -0.11200
H 	H 	0.40420 0.87230 0.97880 0.07800
C 	C 	0.42367 0.00930 0.99159 0.05000
C 	C 	0.40763 0.05990 0.96387 0.09800
C 	C 	0.34732 0.89220 0.08989 0.07100
H 	H 	0.34850 0.87170 0.06940 -0.01400
C 	C 	0.30287 0.90800 0.10286 -0.11800
H 	H 	0.27420 0.89880 0.09160 0.07800
C 	C 	0.38673 0.93650 0.13345 0.05600
H 	H 	0.41580 0.94880 0.14390 -0.00800
C 	C 	0.34411 0.95180 0.14800 -0.11300
H 	H 	0.34390 0.97210 0.16850 0.07900
C 	C 	0.30151 0.93760 0.13289 0.05100
C 	C 	0.25544 0.95160 0.14886 0.10200
C 	C 	0.26830 0.06510 0.26668 0.05900
H 	H 	0.29860 0.06510 0.27650 0.00200
C 	C 	0.26508 0.02650 0.23802 -0.10800
H 	H 	0.29280 0.00230 0.22810 0.07900
C 	C 	0.18730 0.09800 0.26769 0.06000
H 	H 	0.16020 0.12310 0.27810 -0.00700
C 	C 	0.18090 0.05790 0.23931 -0.11000
H 	H 	0.14990 0.05410 0.23060 0.07800
C 	C 	0.22074 0.02330 0.22379 0.04500
C 	C 	0.21733 0.98910 0.19230 0.10500
C 	C 	0.04280 0.93170 0.13585 0.07300
H 	H 	0.01370 0.93510 0.14690 -0.01000
C 	C 	0.08540 0.94600 0.15111 -0.11600
H 	H 	0.08540 0.95920 0.17220 0.08100
C 	C 	0.08189 0.91030 0.09091 0.07200
H 	H 	0.08080 0.89850 0.06980 -0.00900
C 	C 	0.12620 0.92350 0.10467 -0.11600
H 	H 	0.15480 0.92060 0.09310 0.08100
C 	C 	0.12822 0.94090 0.13507 0.05700
C 	C 	0.17486 0.95240 0.15045 0.10000
N 	N 	0.29565 0.89800 0.85139 -0.27700
N 	N 	0.44568 0.48660 0.92235 -0.27200
N 	N 	0.44898 0.91710 0.04512 -0.27300
N 	N 	0.37569 0.15260 0.91496 -0.13300
N 	N 	0.41855 0.15320 0.96118 -0.14400
N 	N 	0.38294 0.00850 0.94371 -0.13900
N 	N 	0.38872 0.90430 0.10468 -0.27200
N 	N 	0.23058 0.10270 0.28109 -0.27100
N 	N 	0.04079 0.91340 0.10634 -0.27000
N 	N 	0.25876 0.97600 0.17811 -0.14100
N 	N 	0.17397 0.97820 0.17990 -0.13800
N 	N 	0.21427 0.93850 0.13399 -0.13900
Zn	Zn	0.04626 0.14077 0.58775 1.16400
Zn	Zn	0.26001 0.81742 0.81968 1.16500
Zn	Zn	0.02377 0.38046 0.41383 1.16400
I 	I 	0.05428 0.32342 0.58409 -0.38400
I 	I 	0.98217 0.05274 0.61766 -0.36100
I 	I 	0.17122 0.81257 0.83249 -0.37600
I 	I 	0.30513 0.65909 0.81181 -0.37000
I 	I 	0.07193 0.29394 0.37375 -0.37000
I 	I 	0.00628 0.30463 0.46553 -0.39100
C 	C 	0.18310 0.14610 0.37428 0.07400
H 	H 	0.18380 0.21460 0.37510 -0.01200
C 	C 	0.15950 0.09620 0.39730 -0.11600
H 	H 	0.14500 0.13000 0.41360 0.08100
C 	C 	0.20240 0.00550 0.35032 0.07600
H 	H 	0.21760 0.97320 0.33390 -0.01400
C 	C 	0.17950 0.95090 0.37190 -0.12400
H 	H 	0.17850 0.88250 0.37030 0.08400
C 	C 	0.15786 0.99710 0.39588 0.06500
C 	C 	0.13195 0.94180 0.41951 0.10300
C 	C 	0.07343 0.56550 0.39968 0.07500
H 	H 	0.07610 0.53650 0.38030 -0.00700
C 	C 	0.08920 0.65860 0.40333 -0.13000
H 	H 	0.10280 0.69280 0.38680 0.09800
C 	C 	0.05053 0.55550 0.44955 0.07500
H 	H 	0.03700 0.51960 0.46570 -0.00700
C 	C 	0.06550 0.64840 0.45498 -0.12700
H 	H 	0.06240 0.67580 0.47460 0.09100
C 	C 	0.08512 0.70180 0.43140 0.05400
C 	C 	0.09839 0.80410 0.43609 0.08800
C 	C 	0.04284 0.98730 0.54117 0.06700
H 	H 	0.02820 0.95190 0.55710 -0.01300
C 	C 	0.05488 0.93960 0.51502 -0.12000
H 	H 	0.04860 0.87240 0.51300 0.09100
C 	C 	0.06920 0.13220 0.52194 0.06700
H 	H 	0.07320 0.20000 0.52410 -0.00400
C 	C 	0.08270 0.09000 0.49477 -0.11400
H 	H 	0.09580 0.12770 0.47880 0.07800
C 	C 	0.07633 0.99070 0.49159 0.05200
C 	C 	0.09237 0.94010 0.46387 0.09700
C 	C 	0.15268 0.10780 0.58989 0.07100
H 	H 	0.15150 0.12830 0.56940 -0.01400
C 	C 	0.19713 0.09200 0.60286 -0.11800
H 	H 	0.22580 0.10120 0.59160 0.07800
C 	C 	0.11327 0.06350 0.63345 0.05600
H 	H 	0.08420 0.05120 0.64390 -0.00900
C 	C 	0.15589 0.04820 0.64800 -0.11300
H 	H 	0.15610 0.02790 0.66850 0.07900
C 	C 	0.19849 0.06240 0.63289 0.05100
C 	C 	0.24456 0.04840 0.64886 0.10200
C 	C 	0.23170 0.93490 0.76668 0.05900
H 	H 	0.20140 0.93490 0.77650 0.00200
C 	C 	0.23492 0.97350 0.73802 -0.10800
H 	H 	0.20720 0.99770 0.72810 0.08000
C 	C 	0.31270 0.90200 0.76769 0.06100
H 	H 	0.33980 0.87690 0.77810 -0.00700
C 	C 	0.31910 0.94210 0.73931 -0.11100
H 	H 	0.35010 0.94590 0.73060 0.07800
C 	C 	0.27926 0.97670 0.72379 0.04600
C 	C 	0.28267 0.01090 0.69230 0.10500
C 	C 	0.45720 0.06830 0.63585 0.07300
H 	H 	0.48630 0.06490 0.64690 -0.01000
C 	C 	0.41460 0.05400 0.65111 -0.11600
H 	H 	0.41460 0.04080 0.67220 0.08100
C 	C 	0.41811 0.08970 0.59091 0.07200
H 	H 	0.41920 0.10150 0.56980 -0.00900
C 	C 	0.37380 0.07650 0.60467 -0.11600
H 	H 	0.34520 0.07940 0.59310 0.08000
C 	C 	0.37178 0.05910 0.63507 0.05600
C 	C 	0.32514 0.04760 0.65045 0.10000
N 	N 	0.20435 0.10200 0.35139 -0.27600
N 	N 	0.05432 0.51340 0.42235 -0.27200
N 	N 	0.05102 0.08290 0.54512 -0.27300
N 	N 	0.12431 0.84740 0.41496 -0.13300
N 	N 	0.08145 0.84680 0.46118 -0.14300
N 	N 	0.11706 0.99150 0.44371 -0.13900
N 	N 	0.11128 0.09570 0.60468 -0.27200
N 	N 	0.26942 0.89730 0.78109 -0.27100
N 	N 	0.45921 0.08660 0.60634 -0.27100
N 	N 	0.24124 0.02400 0.67811 -0.14100
N 	N 	0.32603 0.02180 0.67990 -0.13800
N 	N 	0.28573 0.06150 0.63399 -0.13900
Zn	Zn	0.54626 0.35923 0.41225 1.16400
Zn	Zn	0.76001 0.68258 0.18032 1.16500
Zn	Zn	0.52377 0.11954 0.58617 1.16400
I 	I 	0.55428 0.17658 0.41591 -0.38300
I 	I 	0.48217 0.44726 0.38234 -0.36200
I 	I 	0.67122 0.68743 0.16751 -0.37600
I 	I 	0.80513 0.84091 0.18819 -0.37000
I 	I 	0.57193 0.20606 0.62625 -0.37000
I 	I 	0.50628 0.19537 0.53447 -0.39100
C 	C 	0.68310 0.35390 0.62572 0.07400
H 	H 	0.68380 0.28540 0.62490 -0.01200
C 	C 	0.65950 0.40380 0.60270 -0.11500
H 	H 	0.64500 0.37000 0.58640 0.08100
C 	C 	0.70240 0.49450 0.64968 0.07800
H 	H 	0.71760 0.52680 0.66610 -0.01500
C 	C 	0.67950 0.54910 0.62810 -0.12500
H 	H 	0.67850 0.61750 0.62970 0.08400
C 	C 	0.65786 0.50290 0.60412 0.06500
C 	C 	0.63195 0.55820 0.58049 0.10300
C 	C 	0.57343 0.93450 0.60032 0.07500
H 	H 	0.57610 0.96350 0.61970 -0.00700
C 	C 	0.58920 0.84140 0.59667 -0.13000
H 	H 	0.60280 0.80720 0.61320 0.09800
C 	C 	0.55053 0.94450 0.55045 0.07500
H 	H 	0.53700 0.98040 0.53430 -0.00700
C 	C 	0.56550 0.85160 0.54502 -0.12700
H 	H 	0.56240 0.82420 0.52540 0.09100
C 	C 	0.58512 0.79820 0.56860 0.05400
C 	C 	0.59839 0.69590 0.56391 0.08800
C 	C 	0.54284 0.51270 0.45883 0.06500
H 	H 	0.52820 0.54810 0.44290 -0.01200
C 	C 	0.55488 0.56040 0.48498 -0.11900
H 	H 	0.54860 0.62760 0.48700 0.09100
C 	C 	0.56920 0.36780 0.47806 0.06700
H 	H 	0.57320 0.30000 0.47590 -0.00400
C 	C 	0.58270 0.41000 0.50523 -0.11300
H 	H 	0.59580 0.37230 0.52120 0.07800
C 	C 	0.57633 0.50930 0.50841 0.05100
C 	C 	0.59237 0.55990 0.53613 0.09800
C 	C 	0.65268 0.39220 0.41011 0.07100
H 	H 	0.65150 0.37170 0.43060 -0.01400
C 	C 	0.69713 0.40800 0.39714 -0.11800
H 	H 	0.72580 0.39880 0.40840 0.07800
C 	C 	0.61327 0.43650 0.36655 0.05600
H 	H 	0.58420 0.44880 0.35610 -0.00800
C 	C 	0.65589 0.45180 0.35200 -0.11300
H 	H 	0.65610 0.47210 0.33150 0.07900
C 	C 	0.69849 0.43760 0.36711 0.05100
C 	C 	0.74456 0.45160 0.35114 0.10200
C 	C 	0.73170 0.56510 0.23332 0.05900
H 	H 	0.70140 0.56510 0.22350 0.00200
C 	C 	0.73492 0.52650 0.26198 -0.10800
H 	H 	0.70720 0.50230 0.27190 0.08000
C 	C 	0.81270 0.59800 0.23231 0.06000
H 	H 	0.83980 0.62310 0.22190 -0.00700
C 	C 	0.81910 0.55790 0.26069 -0.11000
H 	H 	0.85010 0.55410 0.26940 0.07800
C 	C 	0.77926 0.52330 0.27621 0.04500
C 	C 	0.78267 0.48910 0.30770 0.10500
C 	C 	0.95720 0.43170 0.36415 0.07300
H 	H 	0.98630 0.43510 0.35310 -0.01000
C 	C 	0.91460 0.44600 0.34889 -0.11600
H 	H 	0.91460 0.45920 0.32780 0.08100
C 	C 	0.91811 0.41030 0.40909 0.07200
H 	H 	0.91920 0.39850 0.43020 -0.00900
C 	C 	0.87380 0.42350 0.39533 -0.11600
H 	H 	0.84520 0.42060 0.40690 0.08100
C 	C 	0.87178 0.44090 0.36493 0.05700
C 	C 	0.82514 0.45240 0.34955 0.10000
N 	N 	0.70435 0.39800 0.64861 -0.27700
N 	N 	0.55432 0.98660 0.57765 -0.27300
N 	N 	0.55102 0.41710 0.45488 -0.27300
N 	N 	0.62431 0.65260 0.58504 -0.13300
N 	N 	0.58145 0.65320 0.53882 -0.14300
N 	N 	0.61706 0.50850 0.55629 -0.13900
N 	N 	0.61128 0.40430 0.39532 -0.27200
N 	N 	0.76942 0.60270 0.21891 -0.27100
N 	N 	0.95921 0.41340 0.39366 -0.27000
N 	N 	0.74124 0.47600 0.32189 -0.14100
N 	N 	0.82603 0.47820 0.32010 -0.13800
N 	N 	0.78573 0.43850 0.36601 -0.13900
Zn	Zn	0.95374 0.64077 0.91225 1.16400
Zn	Zn	0.73999 0.31742 0.68032 1.16500
Zn	Zn	0.97623 0.88046 0.08617 1.16400
I 	I 	0.94572 0.82342 0.91591 -0.38400
I 	I 	0.01783 0.55274 0.88234 -0.36200
I 	I 	0.82878 0.31257 0.66751 -0.37600
I 	I 	0.69487 0.15909 0.68819 -0.37000
I 	I 	0.92807 0.79394 0.12625 -0.37000
I 	I 	0.99372 0.80463 0.03447 -0.39200
C 	C 	0.81690 0.64610 0.12572 0.07400
H 	H 	0.81620 0.71460 0.12490 -0.01200
C 	C 	0.84050 0.59620 0.10270 -0.11500
H 	H 	0.85500 0.63000 0.08640 0.08100
C 	C 	0.79760 0.50550 0.14968 0.07800
H 	H 	0.78240 0.47320 0.16610 -0.01500
C 	C 	0.82050 0.45090 0.12810 -0.12500
H 	H 	0.82150 0.38250 0.12970 0.08400
C 	C 	0.84214 0.49710 0.10412 0.06500
C 	C 	0.86805 0.44180 0.08049 0.10300
C 	C 	0.92657 0.06550 0.10032 0.07500
H 	H 	0.92390 0.03650 0.11970 -0.00700
C 	C 	0.91080 0.15860 0.09667 -0.13000
H 	H 	0.89720 0.19280 0.11320 0.09800
C 	C 	0.94947 0.05550 0.05045 0.07500
H 	H 	0.96300 0.01960 0.03430 -0.00600
C 	C 	0.93450 0.14840 0.04502 -0.12700
H 	H 	0.93760 0.17580 0.02540 0.09100
C 	C 	0.91488 0.20180 0.06860 0.05400
C 	C 	0.90161 0.30410 0.06391 0.08800
C 	C 	0.95716 0.48730 0.95883 0.06500
H 	H 	0.97180 0.45190 0.94290 -0.01200
C 	C 	0.94512 0.43960 0.98498 -0.11900
H 	H 	0.95140 0.37240 0.98700 0.09100
C 	C 	0.93080 0.63220 0.97806 0.06700
H 	H 	0.92680 0.70000 0.97590 -0.00400
C 	C 	0.91730 0.59000 0.00523 -0.11300
H 	H 	0.90420 0.62770 0.02120 0.07800
C 	C 	0.92367 0.49070 0.00841 0.05100
C 	C 	0.90763 0.44010 0.03613 0.09800
C 	C 	0.84732 0.60780 0.91011 0.07100
H 	H 	0.84850 0.62830 0.93060 -0.01400
C 	C 	0.80287 0.59200 0.89714 -0.11800
H 	H 	0.77420 0.60120 0.90840 0.07800
C 	C 	0.88673 0.56350 0.86655 0.05600
H 	H 	0.91580 0.55120 0.85610 -0.00800
C 	C 	0.84411 0.54820 0.85200 -0.11300
H 	H 	0.84390 0.52790 0.83150 0.07900
C 	C 	0.80151 0.56240 0.86711 0.05100
C 	C 	0.75544 0.54840 0.85114 0.10200
C 	C 	0.76830 0.43490 0.73332 0.05900
H 	H 	0.79860 0.43490 0.72350 0.00200
C 	C 	0.76508 0.47350 0.76198 -0.10800
H 	H 	0.79280 0.49770 0.77190 0.08000
C 	C 	0.68730 0.40200 0.73231 0.06000
H 	H 	0.66020 0.37690 0.72190 -0.00700
C 	C 	0.68090 0.44210 0.76069 -0.11000
H 	H 	0.64990 0.44590 0.76940 0.07800
C 	C 	0.72074 0.47670 0.77621 0.04500
C 	C 	0.71733 0.51090 0.80770 0.10500
C 	C 	0.54280 0.56830 0.86415 0.07300
H 	H 	0.51370 0.56490 0.85310 -0.01000
C 	C 	0.58540 0.55400 0.84889 -0.11600
H 	H 	0.58540 0.54080 0.82780 0.08100
C 	C 	0.58189 0.58970 0.90909 0.07200
H 	H 	0.58080 0.60150 0.93020 -0.00900
C 	C 	0.62620 0.57650 0.89533 -0.11600
H 	H 	0.65480 0.57940 0.90690 0.08100
C 	C 	0.62822 0.55910 0.86493 0.05600
C 	C 	0.67486 0.54760 0.84955 0.10000
N 	N 	0.79565 0.60200 0.14861 -0.27700
N 	N 	0.94568 0.01340 0.07765 -0.27200
N 	N 	0.94898 0.58290 0.95488 -0.27300
N 	N 	0.87569 0.34740 0.08504 -0.13300
N 	N 	0.91855 0.34680 0.03882 -0.14300
N 	N 	0.88294 0.49150 0.05629 -0.13900
N 	N 	0.88872 0.59570 0.89532 -0.27200
N 	N 	0.73058 0.39730 0.71891 -0.27100
N 	N 	0.54079 0.58660 0.89366 -0.27100
N 	N 	0.75876 0.52400 0.82189 -0.14100
N 	N 	0.67397 0.52180 0.82010 -0.13800
N 	N 	0.71427 0.56150 0.86601 -0.13900
Zn	Zn	0.54626 0.14077 0.91225 1.16400
Zn	Zn	0.76001 0.81742 0.68032 1.16500
Zn	Zn	0.52377 0.38046 0.08617 1.16400
I 	I 	0.55428 0.32342 0.91591 -0.38400
I 	I 	0.48217 0.05274 0.88234 -0.36200
I 	I 	0.67122 0.81257 0.66751 -0.37600
I 	I 	0.80513 0.65909 0.68819 -0.37000
I 	I 	0.57193 0.29394 0.12625 -0.37000
I 	I 	0.50628 0.30463 0.03447 -0.39100
C 	C 	0.68310 0.14610 0.12572 0.07400
H 	H 	0.68380 0.21460 0.12490 -0.01200
C 	C 	0.65950 0.09620 0.10270 -0.11500
H 	H 	0.64500 0.13000 0.08640 0.08100
C 	C 	0.70240 0.00550 0.14968 0.07900
H 	H 	0.71760 0.97320 0.16610 -0.01600
C 	C 	0.67950 0.95090 0.12810 -0.12600
H 	H 	0.67850 0.88250 0.12970 0.08400
C 	C 	0.65786 0.99710 0.10412 0.06500
C 	C 	0.63195 0.94180 0.08049 0.10300
C 	C 	0.57343 0.56550 0.10032 0.07500
H 	H 	0.57610 0.53650 0.11970 -0.00700
C 	C 	0.58920 0.65860 0.09667 -0.13000
H 	H 	0.60280 0.69280 0.11320 0.09800
C 	C 	0.55053 0.55550 0.05045 0.07500
H 	H 	0.53700 0.51960 0.03430 -0.00700
C 	C 	0.56550 0.64840 0.04502 -0.12700
H 	H 	0.56240 0.67580 0.02540 0.09100
C 	C 	0.58512 0.70180 0.06860 0.05400
C 	C 	0.59839 0.80410 0.06391 0.08800
C 	C 	0.54284 0.98730 0.95883 0.06500
H 	H 	0.52820 0.95190 0.94290 -0.01200
C 	C 	0.55488 0.93960 0.98498 -0.11900
H 	H 	0.54860 0.87240 0.98700 0.09100
C 	C 	0.56920 0.13220 0.97806 0.06700
H 	H 	0.57320 0.20000 0.97590 -0.00400
C 	C 	0.58270 0.09000 0.00523 -0.11200
H 	H 	0.59580 0.12770 0.02120 0.07800
C 	C 	0.57633 0.99070 0.00841 0.05000
C 	C 	0.59237 0.94010 0.03613 0.09800
C 	C 	0.65268 0.10780 0.91011 0.07100
H 	H 	0.65150 0.12830 0.93060 -0.01400
C 	C 	0.69713 0.09200 0.89714 -0.11800
H 	H 	0.72580 0.10120 0.90840 0.07800
C 	C 	0.61327 0.06350 0.86655 0.05600
H 	H 	0.58420 0.05120 0.85610 -0.00800
C 	C 	0.65589 0.04820 0.85200 -0.11300
H 	H 	0.65610 0.02790 0.83150 0.07900
C 	C 	0.69849 0.06240 0.86711 0.05100
C 	C 	0.74456 0.04840 0.85114 0.10200
C 	C 	0.73170 0.93490 0.73332 0.05900
H 	H 	0.70140 0.93490 0.72350 0.00200
C 	C 	0.73492 0.97350 0.76198 -0.10800
H 	H 	0.70720 0.99770 0.77190 0.07900
C 	C 	0.81270 0.90200 0.73231 0.06000
H 	H 	0.83980 0.87690 0.72190 -0.00700
C 	C 	0.81910 0.94210 0.76069 -0.11000
H 	H 	0.85010 0.94590 0.76940 0.07800
C 	C 	0.77926 0.97670 0.77621 0.04500
C 	C 	0.78267 0.01090 0.80770 0.10500
C 	C 	0.95720 0.06830 0.86415 0.07300
H 	H 	0.98630 0.06490 0.85310 -0.01000
C 	C 	0.91460 0.05400 0.84889 -0.11600
H 	H 	0.91460 0.04080 0.82780 0.08100
C 	C 	0.91811 0.08970 0.90909 0.07200
H 	H 	0.91920 0.10150 0.93020 -0.00900
C 	C 	0.87380 0.07650 0.89533 -0.11600
H 	H 	0.84520 0.07940 0.90690 0.08100
C 	C 	0.87178 0.05910 0.86493 0.05700
C 	C 	0.82514 0.04760 0.84955 0.10000
N 	N 	0.70435 0.10200 0.14861 -0.27700
N 	N 	0.55432 0.51340 0.07765 -0.27200
N 	N 	0.55102 0.08290 0.95488 -0.27300
N 	N 	0.62431 0.84740 0.08504 -0.13300
N 	N 	0.58145 0.84680 0.03882 -0.14400
N 	N 	0.61706 0.99150 0.05629 -0.13900
N 	N 	0.61128 0.09570 0.89532 -0.27200
N 	N 	0.76942 0.89730 0.71891 -0.27100
N 	N 	0.95921 0.08660 0.89366 -0.27000
N 	N 	0.74124 0.02400 0.82189 -0.14100
N 	N 	0.82603 0.02180 0.82010 -0.13800
N 	N 	0.78573 0.06150 0.86601 -0.13900
Zn	Zn	0.95374 0.85923 0.41225 1.16400
Zn	Zn	0.73999 0.18258 0.18032 1.16500
Zn	Zn	0.97623 0.61954 0.58617 1.16400
I 	I 	0.94572 0.67658 0.41591 -0.38400
I 	I 	0.01783 0.94726 0.38234 -0.36100
I 	I 	0.82878 0.18743 0.16751 -0.37600
I 	I 	0.69487 0.34091 0.18819 -0.37000
I 	I 	0.92807 0.70606 0.62625 -0.37000
I 	I 	0.99372 0.69537 0.53447 -0.39100
C 	C 	0.81690 0.85390 0.62572 0.07400
H 	H 	0.81620 0.78540 0.62490 -0.01200
C 	C 	0.84050 0.90380 0.60270 -0.11600
H 	H 	0.85500 0.87000 0.58640 0.08100
C 	C 	0.79760 0.99450 0.64968 0.07600
H 	H 	0.78240 0.02680 0.66610 -0.01400
C 	C 	0.82050 0.04910 0.62810 -0.12400
H 	H 	0.82150 0.11750 0.62970 0.08400
C 	C 	0.84214 0.00290 0.60412 0.06500
C 	C 	0.86805 0.05820 0.58049 0.10300
C 	C 	0.92657 0.43450 0.60032 0.07500
H 	H 	0.92390 0.46350 0.61970 -0.00700
C 	C 	0.91080 0.34140 0.59667 -0.13000
H 	H 	0.89720 0.30720 0.61320 0.09800
C 	C 	0.94947 0.44450 0.55045 0.07500
H 	H 	0.96300 0.48040 0.53430 -0.00700
C 	C 	0.93450 0.35160 0.54502 -0.12700
H 	H 	0.93760 0.32420 0.52540 0.09100
C 	C 	0.91488 0.29820 0.56860 0.05400
C 	C 	0.90161 0.19590 0.56391 0.08800
C 	C 	0.95716 0.01270 0.45883 0.06700
H 	H 	0.97180 0.04810 0.44290 -0.01300
C 	C 	0.94512 0.06040 0.48498 -0.12000
H 	H 	0.95140 0.12760 0.48700 0.09100
C 	C 	0.93080 0.86780 0.47806 0.06700
H 	H 	0.92680 0.80000 0.47590 -0.00400
C 	C 	0.91730 0.91000 0.50523 -0.11400
H 	H 	0.90420 0.87230 0.52120 0.07800
C 	C 	0.92367 0.00930 0.50841 0.05200
C 	C 	0.90763 0.05990 0.53613 0.09700
C 	C 	0.84732 0.89220 0.41011 0.07100
H 	H 	0.84850 0.87170 0.43060 -0.01400
C 	C 	0.80287 0.90800 0.39714 -0.11800
H 	H 	0.77420 0.89880 0.40840 0.07800
C 	C 	0.88673 0.93650 0.36655 0.05600
H 	H 	0.91580 0.94880 0.35610 -0.00900
C 	C 	0.84411 0.95180 0.35200 -0.11300
H 	H 	0.84390 0.97210 0.33150 0.07900
C 	C 	0.80151 0.93760 0.36711 0.05100
C 	C 	0.75544 0.95160 0.35114 0.10200
C 	C 	0.76830 0.06510 0.23332 0.05900
H 	H 	0.79860 0.06510 0.22350 0.00200
C 	C 	0.76508 0.02650 0.26198 -0.10800
H 	H 	0.79280 0.00230 0.27190 0.08000
C 	C 	0.68730 0.09800 0.23231 0.06100
H 	H 	0.66020 0.12310 0.22190 -0.00700
C 	C 	0.68090 0.05790 0.26069 -0.11100
H 	H 	0.64990 0.05410 0.26940 0.07800
C 	C 	0.72074 0.02330 0.27621 0.04600
C 	C 	0.71733 0.98910 0.30770 0.10500
C 	C 	0.54280 0.93170 0.36415 0.07300
H 	H 	0.51370 0.93510 0.35310 -0.01000
C 	C 	0.58540 0.94600 0.34889 -0.11600
H 	H 	0.58540 0.95920 0.32780 0.08100
C 	C 	0.58189 0.91030 0.40909 0.07200
H 	H 	0.58080 0.89850 0.43020 -0.00900
C 	C 	0.62620 0.92350 0.39533 -0.11600
H 	H 	0.65480 0.92060 0.40690 0.08000
C 	C 	0.62822 0.94090 0.36493 0.05600
C 	C 	0.67486 0.95240 0.34955 0.10000
N 	N 	0.79565 0.89800 0.64861 -0.27600
N 	N 	0.94568 0.48660 0.57765 -0.27200
N 	N 	0.94898 0.91710 0.45488 -0.27300
N 	N 	0.87569 0.15260 0.58504 -0.13300
N 	N 	0.91855 0.15320 0.53882 -0.14300
N 	N 	0.88294 0.00850 0.55629 -0.13900
N 	N 	0.88872 0.90430 0.39532 -0.27200
N 	N 	0.73058 0.10270 0.21891 -0.27100
N 	N 	0.54079 0.91340 0.39366 -0.27100
N 	N 	0.75876 0.97600 0.32189 -0.14100
N 	N 	0.67397 0.97820 0.32010 -0.13800
N 	N 	0.71427 0.93850 0.36601 -0.13900
Zn	Zn	0.45374 0.64077 0.58775 1.16400
Zn	Zn	0.23999 0.31742 0.81968 1.16500
Zn	Zn	0.47623 0.88046 0.41383 1.16400
I 	I 	0.44572 0.82342 0.58409 -0.38300
I 	I 	0.51783 0.55274 0.61766 -0.36200
I 	I 	0.32878 0.31257 0.83249 -0.37600
I 	I 	0.19487 0.15909 0.81181 -0.37000
I 	I 	0.42807 0.79394 0.37375 -0.37000
I 	I 	0.49372 0.80463 0.46553 -0.39100
C 	C 	0.31690 0.64610 0.37428 0.07400
H 	H 	0.31620 0.71460 0.37510 -0.01200
C 	C 	0.34050 0.59620 0.39730 -0.11500
H 	H 	0.35500 0.63000 0.41360 0.08100
C 	C 	0.29760 0.50550 0.35032 0.07800
H 	H 	0.28240 0.47320 0.33390 -0.01500
C 	C 	0.32050 0.45090 0.37190 -0.12500
H 	H 	0.32150 0.38250 0.37030 0.08400
C 	C 	0.34214 0.49710 0.39588 0.06500
C 	C 	0.36805 0.44180 0.41951 0.10300
C 	C 	0.42657 0.06550 0.39968 0.07500
H 	H 	0.42390 0.03650 0.38030 -0.00700
C 	C 	0.41080 0.15860 0.40333 -0.13000
H 	H 	0.39720 0.19280 0.38680 0.09800
C 	C 	0.44947 0.05550 0.44955 0.07500
H 	H 	0.46300 0.01960 0.46570 -0.00700
C 	C 	0.43450 0.14840 0.45498 -0.12700
H 	H 	0.43760 0.17580 0.47460 0.09100
C 	C 	0.41488 0.20180 0.43140 0.05400
C 	C 	0.40161 0.30410 0.43609 0.08800
C 	C 	0.45716 0.48730 0.54117 0.06500
H 	H 	0.47180 0.45190 0.55710 -0.01200
C 	C 	0.44512 0.43960 0.51502 -0.11900
H 	H 	0.45140 0.37240 0.51300 0.09100
C 	C 	0.43080 0.63220 0.52194 0.06700
H 	H 	0.42680 0.70000 0.52410 -0.00400
C 	C 	0.41730 0.59000 0.49477 -0.11300
H 	H 	0.40420 0.62770 0.47880 0.07800
C 	C 	0.42367 0.49070 0.49159 0.05100
C 	C 	0.40763 0.44010 0.46387 0.09800
C 	C 	0.34732 0.60780 0.58989 0.07100
H 	H 	0.34850 0.62830 0.56940 -0.01400
C 	C 	0.30287 0.59200 0.60286 -0.11800
H 	H 	0.27420 0.60120 0.59160 0.07800
C 	C 	0.38673 0.56350 0.63345 0.05600
H 	H 	0.41580 0.55120 0.64390 -0.00800
C 	C 	0.34411 0.54820 0.64800 -0.11300
H 	H 	0.34390 0.52790 0.66850 0.07900
C 	C 	0.30151 0.56240 0.63289 0.05100
C 	C 	0.25544 0.54840 0.64886 0.10200
C 	C 	0.26830 0.43490 0.76668 0.05900
H 	H 	0.29860 0.43490 0.77650 0.00200
C 	C 	0.26508 0.47350 0.73802 -0.10800
H 	H 	0.29280 0.49770 0.72810 0.08000
C 	C 	0.18730 0.40200 0.76769 0.06000
H 	H 	0.16020 0.37690 0.77810 -0.00700
C 	C 	0.18090 0.44210 0.73931 -0.11000
H 	H 	0.14990 0.44590 0.73060 0.07800
C 	C 	0.22074 0.47670 0.72379 0.04500
C 	C 	0.21733 0.51090 0.69230 0.10500
C 	C 	0.04280 0.56830 0.63585 0.07300
H 	H 	0.01370 0.56490 0.64690 -0.01000
C 	C 	0.08540 0.55400 0.65111 -0.11600
H 	H 	0.08540 0.54080 0.67220 0.08100
C 	C 	0.08189 0.58970 0.59091 0.07200
H 	H 	0.08080 0.60150 0.56980 -0.00900
C 	C 	0.12620 0.57650 0.60467 -0.11600
H 	H 	0.15480 0.57940 0.59310 0.08100
C 	C 	0.12822 0.55910 0.63507 0.05700
C 	C 	0.17486 0.54760 0.65045 0.10000
N 	N 	0.29565 0.60200 0.35139 -0.27700
N 	N 	0.44568 0.01340 0.42235 -0.27300
N 	N 	0.44898 0.58290 0.54512 -0.27300
N 	N 	0.37569 0.34740 0.41496 -0.13300
N 	N 	0.41855 0.34680 0.46118 -0.14300
N 	N 	0.38294 0.49150 0.44371 -0.13900
N 	N 	0.38872 0.59570 0.60468 -0.27200
N 	N 	0.23058 0.39730 0.78109 -0.27100
N 	N 	0.04079 0.58660 0.60634 -0.27000
N 	N 	0.25876 0.52400 0.67811 -0.14100
N 	N 	0.17397 0.52180 0.67990 -0.13800
N 	N 	0.21427 0.56150 0.63399 -0.13900
Zn	Zn	0.04626 0.35923 0.08775 1.16400
Zn	Zn	0.26001 0.68258 0.31968 1.16500
Zn	Zn	0.02377 0.11954 0.91383 1.16400
I 	I 	0.05428 0.17658 0.08409 -0.38400
I 	I 	0.98217 0.44726 0.11766 -0.36200
I 	I 	0.17122 0.68743 0.33249 -0.37600
I 	I 	0.30513 0.84091 0.31181 -0.37000
I 	I 	0.07193 0.20606 0.87375 -0.37000
I 	I 	0.00628 0.19537 0.96553 -0.39200
C 	C 	0.18310 0.35390 0.87428 0.07400
H 	H 	0.18380 0.28540 0.87510 -0.01200
C 	C 	0.15950 0.40380 0.89730 -0.11500
H 	H 	0.14500 0.37000 0.91360 0.08100
C 	C 	0.20240 0.49450 0.85032 0.07800
H 	H 	0.21760 0.52680 0.83390 -0.01500
C 	C 	0.17950 0.54910 0.87190 -0.12500
H 	H 	0.17850 0.61750 0.87030 0.08400
C 	C 	0.15786 0.50290 0.89588 0.06500
C 	C 	0.13195 0.55820 0.91951 0.10300
C 	C 	0.07343 0.93450 0.89968 0.07500
H 	H 	0.07610 0.96350 0.88030 -0.00700
C 	C 	0.08920 0.84140 0.90333 -0.13000
H 	H 	0.10280 0.80720 0.88680 0.09800
C 	C 	0.05053 0.94450 0.94955 0.07500
H 	H 	0.03700 0.98040 0.96570 -0.00600
C 	C 	0.06550 0.85160 0.95498 -0.12700
H 	H 	0.06240 0.82420 0.97460 0.09100
C 	C 	0.08512 0.79820 0.93140 0.05400
C 	C 	0.09839 0.69590 0.93609 0.08800
C 	C 	0.04284 0.51270 0.04117 0.06500
H 	H 	0.02820 0.54810 0.05710 -0.01200
C 	C 	0.05488 0.56040 0.01502 -0.11900
H 	H 	0.04860 0.62760 0.01300 0.09100
C 	C 	0.06920 0.36780 0.02194 0.06700
H 	H 	0.07320 0.30000 0.02410 -0.00400
C 	C 	0.08270 0.41000 0.99477 -0.11300
H 	H 	0.09580 0.37230 0.97880 0.07800
C 	C 	0.07633 0.50930 0.99159 0.05100
C 	C 	0.09237 0.55990 0.96387 0.09800
C 	C 	0.15268 0.39220 0.08989 0.07100
H 	H 	0.15150 0.37170 0.06940 -0.01400
C 	C 	0.19713 0.40800 0.10286 -0.11800
H 	H 	0.22580 0.39880 0.09160 0.07800
C 	C 	0.11327 0.43650 0.13345 0.05600
H 	H 	0.08420 0.44880 0.14390 -0.00800
C 	C 	0.15589 0.45180 0.14800 -0.11300
H 	H 	0.15610 0.47210 0.16850 0.07900
C 	C 	0.19849 0.43760 0.13289 0.05100
C 	C 	0.24456 0.45160 0.14886 0.10200
C 	C 	0.23170 0.56510 0.26668 0.05900
H 	H 	0.20140 0.56510 0.27650 0.00200
C 	C 	0.23492 0.52650 0.23802 -0.10800
H 	H 	0.20720 0.50230 0.22810 0.08000
C 	C 	0.31270 0.59800 0.26769 0.06000
H 	H 	0.33980 0.62310 0.27810 -0.00700
C 	C 	0.31910 0.55790 0.23931 -0.11000
H 	H 	0.35010 0.55410 0.23060 0.07800
C 	C 	0.27926 0.52330 0.22379 0.04500
C 	C 	0.28267 0.48910 0.19230 0.10500
C 	C 	0.45720 0.43170 0.13585 0.07300
H 	H 	0.48630 0.43510 0.14690 -0.01000
C 	C 	0.41460 0.44600 0.15111 -0.11600
H 	H 	0.41460 0.45920 0.17220 0.08100
C 	C 	0.41811 0.41030 0.09091 0.07200
H 	H 	0.41920 0.39850 0.06980 -0.00900
C 	C 	0.37380 0.42350 0.10467 -0.11600
H 	H 	0.34520 0.42060 0.09310 0.08100
C 	C 	0.37178 0.44090 0.13507 0.05600
C 	C 	0.32514 0.45240 0.15045 0.10000
N 	N 	0.20435 0.39800 0.85139 -0.27700
N 	N 	0.05432 0.98660 0.92235 -0.27200
N 	N 	0.05102 0.41710 0.04512 -0.27300
N 	N 	0.12431 0.65260 0.91496 -0.13300
N 	N 	0.08145 0.65320 0.96118 -0.14300
N 	N 	0.11706 0.50850 0.94371 -0.13900
N 	N 	0.11128 0.40430 0.10468 -0.27200
N 	N 	0.26942 0.60270 0.28109 -0.27100
N 	N 	0.45921 0.41340 0.10634 -0.27100
N 	N 	0.24124 0.47600 0.17811 -0.14100
N 	N 	0.32603 0.47820 0.17990 -0.13800
N 	N 	0.28573 0.43850 0.13399 -0.13900
