data_crystal

_cell_length_a 13.88440
_cell_length_b 28.35790
_cell_length_c 44.81250
_cell_angle_alpha 90.00000
_cell_angle_beta  90.00000
_cell_angle_gamma 90.00000

_symmetry_space_group_name_	'P 1'
_symmetry_space_group_name_H-M	'P 1'

loop_
_symmetry_equiv_pos_as_xyz
  x,y,z

loop_
_atom_site_label
_atom_site_type_symbol
_atom_site_fract_x
_atom_site_fract_y
_atom_site_fract_z
_atom_site_charge
Zn	Zn	0.14332 0.05084 0.58176 1.16200
Zn	Zn	0.12392 0.51978 0.58442 1.16200
Zn	Zn	0.16759 0.24008 0.31651 1.16400
Zn	Zn	0.85668 0.44916 0.08176 1.16300
Zn	Zn	0.87608 0.98022 0.08442 1.16300
Zn	Zn	0.83241 0.25992 0.81651 1.16400
Zn	Zn	0.64332 0.94916 0.91824 1.16300
Zn	Zn	0.62392 0.48022 0.91558 1.16300
Zn	Zn	0.66759 0.75992 0.18349 1.16400
Zn	Zn	0.35668 0.55084 0.41824 1.16300
Zn	Zn	0.37608 0.01978 0.41558 1.16300
Zn	Zn	0.33241 0.74008 0.68349 1.16400
H 	H 	0.51790 0.03720 0.46550 -0.00900
H 	H 	0.67070 0.06610 0.47250 0.09500
H 	H 	0.52800 0.07300 0.38090 -0.01100
H 	H 	0.68250 0.10190 0.38560 0.10200
H 	H 	0.96020 0.22060 0.33250 -0.01800
H 	H 	0.87050 0.18170 0.36850 0.08500
H 	H 	0.20190 0.18130 0.36960 -0.01000
H 	H 	0.11970 0.14220 0.40730 0.08500
H 	H 	0.19670 0.07780 0.51840 -0.00400
H 	H 	0.12190 0.09720 0.47410 0.07700
H 	H 	0.95130 0.03320 0.55260 -0.01300
H 	H 	0.87050 0.05310 0.50920 0.09100
H 	H 	0.06660 0.08730 0.63980 -0.00700
H 	H 	0.03910 0.15670 0.66450 0.07700
H 	H 	0.12930 0.15560 0.56540 -0.01300
H 	H 	0.09970 0.22760 0.58840 0.07700
H 	H 	0.10600 0.41630 0.56840 -0.01200
H 	H 	0.08690 0.34370 0.59090 0.08200
H 	H 	0.06270 0.48150 0.64450 -0.00700
H 	H 	0.04020 0.41050 0.66870 0.08000
H 	H 	0.89030 0.33700 0.77460 -0.01200
H 	H 	0.95130 0.34690 0.72750 0.08200
H 	H 	0.94300 0.20090 0.77250 -0.00000
H 	H 	0.00290 0.20670 0.72390 0.08000
H 	H 	0.48210 0.46280 0.96550 -0.00900
H 	H 	0.32930 0.43390 0.97250 0.09500
H 	H 	0.47200 0.42700 0.88090 -0.01100
H 	H 	0.31750 0.39810 0.88560 0.10200
H 	H 	0.03980 0.27940 0.83250 -0.01800
H 	H 	0.12950 0.31830 0.86850 0.08400
H 	H 	0.79810 0.31870 0.86960 -0.01000
H 	H 	0.88030 0.35780 0.90730 0.08500
H 	H 	0.80330 0.42220 0.01840 -0.00400
H 	H 	0.87810 0.40280 0.97410 0.07700
H 	H 	0.04870 0.46680 0.05260 -0.01300
H 	H 	0.12950 0.44690 0.00920 0.09000
H 	H 	0.93340 0.41270 0.13980 -0.00700
H 	H 	0.96090 0.34330 0.16450 0.07700
H 	H 	0.87070 0.34440 0.06540 -0.01300
H 	H 	0.90030 0.27240 0.08840 0.07700
H 	H 	0.89400 0.08370 0.06840 -0.01200
H 	H 	0.91310 0.15630 0.09090 0.08200
H 	H 	0.93730 0.01850 0.14450 -0.00700
H 	H 	0.95980 0.08950 0.16870 0.08000
H 	H 	0.10970 0.16300 0.27460 -0.01200
H 	H 	0.04870 0.15310 0.22750 0.08100
H 	H 	0.05700 0.29910 0.27250 -0.00000
H 	H 	0.99710 0.29330 0.22390 0.08100
H 	H 	0.01790 0.96280 0.03450 -0.00900
H 	H 	0.17070 0.93390 0.02750 0.09500
H 	H 	0.02800 0.92700 0.11910 -0.01000
H 	H 	0.18250 0.89810 0.11440 0.10200
H 	H 	0.46020 0.77940 0.16750 -0.01800
H 	H 	0.37050 0.81830 0.13150 0.08500
H 	H 	0.70190 0.81870 0.13040 -0.01100
H 	H 	0.61970 0.85780 0.09270 0.08500
H 	H 	0.69670 0.92220 0.98160 -0.00400
H 	H 	0.62190 0.90280 0.02590 0.07700
H 	H 	0.45130 0.96680 0.94740 -0.01300
H 	H 	0.37050 0.94690 0.99080 0.09000
H 	H 	0.56660 0.91270 0.86020 -0.00700
H 	H 	0.53910 0.84330 0.83550 0.07700
H 	H 	0.62930 0.84440 0.93460 -0.01300
H 	H 	0.59970 0.77240 0.91160 0.07700
H 	H 	0.60600 0.58370 0.93160 -0.01200
H 	H 	0.58690 0.65630 0.90910 0.08200
H 	H 	0.56270 0.51850 0.85550 -0.00700
H 	H 	0.54020 0.58950 0.83130 0.08000
H 	H 	0.39030 0.66300 0.72540 -0.01200
H 	H 	0.45130 0.65310 0.77250 0.08100
H 	H 	0.44300 0.79910 0.72750 -0.00100
H 	H 	0.50290 0.79330 0.77610 0.08200
H 	H 	0.98210 0.53720 0.53450 -0.00900
H 	H 	0.82930 0.56610 0.52750 0.09500
H 	H 	0.97200 0.57300 0.61910 -0.01000
H 	H 	0.81750 0.60190 0.61440 0.10200
H 	H 	0.53980 0.72060 0.66750 -0.01800
H 	H 	0.62950 0.68170 0.63150 0.08500
H 	H 	0.29810 0.68130 0.63040 -0.01000
H 	H 	0.38030 0.64220 0.59270 0.08500
H 	H 	0.30330 0.57780 0.48160 -0.00400
H 	H 	0.37810 0.59720 0.52590 0.07700
H 	H 	0.54870 0.53320 0.44740 -0.01300
H 	H 	0.62950 0.55310 0.49080 0.09000
H 	H 	0.43340 0.58730 0.36020 -0.00700
H 	H 	0.46090 0.65670 0.33550 0.07700
H 	H 	0.37070 0.65560 0.43460 -0.01300
H 	H 	0.40030 0.72760 0.41160 0.07700
H 	H 	0.39400 0.91630 0.43160 -0.01200
H 	H 	0.41310 0.84370 0.40910 0.08200
H 	H 	0.43730 0.98150 0.35550 -0.00700
H 	H 	0.45980 0.91050 0.33130 0.08000
H 	H 	0.60970 0.83700 0.22540 -0.01200
H 	H 	0.54870 0.84690 0.27250 0.08100
H 	H 	0.55700 0.70090 0.22750 -0.00100
H 	H 	0.49710 0.70670 0.27610 0.08200
C 	C 	0.55170 0.05030 0.44898 0.08500
C 	C 	0.64270 0.06690 0.45319 -0.14000
C 	C 	0.55860 0.07120 0.39981 0.08300
C 	C 	0.65020 0.08820 0.40216 -0.14000
C 	C 	0.69380 0.08460 0.42985 0.06700
C 	C 	0.79690 0.09880 0.43328 0.08500
C 	C 	0.99300 0.20400 0.34782 0.08400
C 	C 	0.93890 0.18110 0.36929 -0.13000
C 	C 	0.13340 0.18130 0.36943 0.07200
C 	C 	0.08500 0.15790 0.39197 -0.11600
C 	C 	0.98560 0.15760 0.39181 0.06700
C 	C 	0.93270 0.13200 0.41571 0.10300
C 	C 	0.12910 0.07340 0.51669 0.06600
C 	C 	0.08520 0.08520 0.49030 -0.11600
C 	C 	0.98590 0.04750 0.53670 0.07000
C 	C 	0.93760 0.05920 0.51084 -0.12400
C 	C 	0.98570 0.07930 0.48758 0.05400
C 	C 	0.93470 0.09460 0.46047 0.09500
C 	C 	0.07440 0.11610 0.62932 0.05100
C 	C 	0.05780 0.15740 0.64408 -0.10800
C 	C 	0.11060 0.15590 0.58582 0.06700
C 	C 	0.09380 0.19910 0.59939 -0.11400
C 	C 	0.06800 0.20000 0.62962 0.04700
C 	C 	0.05340 0.24450 0.64571 0.10300
C 	C 	0.09440 0.41540 0.58926 0.08300
C 	C 	0.08210 0.37170 0.60246 -0.12200
C 	C 	0.06890 0.45310 0.63350 0.06100
C 	C 	0.05510 0.41090 0.64803 -0.11500
C 	C 	0.06290 0.36940 0.63265 0.05800
C 	C 	0.04990 0.32350 0.64753 0.09800
C 	C 	0.91320 0.31020 0.76406 0.07000
C 	C 	0.94890 0.31640 0.73617 -0.12100
C 	C 	0.94320 0.23080 0.76289 0.06300
C 	C 	0.97990 0.23400 0.73396 -0.11300
C 	C 	0.98220 0.27690 0.72043 0.05500
C 	C 	0.01430 0.28100 0.68803 0.10200
C 	C 	0.44830 0.44970 0.94898 0.08500
C 	C 	0.35730 0.43310 0.95319 -0.14000
C 	C 	0.44140 0.42880 0.89981 0.08300
C 	C 	0.34980 0.41180 0.90216 -0.14000
C 	C 	0.30620 0.41540 0.92985 0.06700
C 	C 	0.20310 0.40120 0.93328 0.08500
C 	C 	0.00700 0.29600 0.84782 0.08300
C 	C 	0.06110 0.31890 0.86929 -0.12900
C 	C 	0.86660 0.31870 0.86943 0.07200
C 	C 	0.91500 0.34210 0.89197 -0.11500
C 	C 	0.01440 0.34240 0.89181 0.06500
C 	C 	0.06730 0.36800 0.91571 0.10300
C 	C 	0.87090 0.42660 0.01669 0.06500
C 	C 	0.91480 0.41480 0.99030 -0.11400
C 	C 	0.01410 0.45250 0.03670 0.06800
C 	C 	0.06240 0.44080 0.01084 -0.12300
C 	C 	0.01430 0.42070 0.98758 0.05200
C 	C 	0.06530 0.40540 0.96047 0.09500
C 	C 	0.92560 0.38390 0.12932 0.05100
C 	C 	0.94220 0.34260 0.14408 -0.10800
C 	C 	0.88940 0.34410 0.08582 0.06700
C 	C 	0.90620 0.30090 0.09939 -0.11400
C 	C 	0.93200 0.30000 0.12962 0.04700
C 	C 	0.94660 0.25550 0.14571 0.10300
C 	C 	0.90560 0.08460 0.08926 0.08300
C 	C 	0.91790 0.12830 0.10246 -0.12200
C 	C 	0.93110 0.04690 0.13350 0.06100
C 	C 	0.94490 0.08910 0.14803 -0.11500
C 	C 	0.93710 0.13060 0.13265 0.05800
C 	C 	0.95010 0.17650 0.14753 0.09800
C 	C 	0.08680 0.18980 0.26406 0.07000
C 	C 	0.05110 0.18360 0.23617 -0.12100
C 	C 	0.05680 0.26920 0.26289 0.06400
C 	C 	0.02010 0.26600 0.23396 -0.11400
C 	C 	0.01780 0.22310 0.22043 0.05500
C 	C 	0.98570 0.21900 0.18803 0.10300
C 	C 	0.05170 0.94970 0.05102 0.08500
C 	C 	0.14270 0.93310 0.04681 -0.14000
C 	C 	0.05860 0.92880 0.10019 0.08300
C 	C 	0.15020 0.91180 0.09784 -0.14000
C 	C 	0.19380 0.91540 0.07015 0.06700
C 	C 	0.29690 0.90120 0.06672 0.08500
C 	C 	0.49300 0.79600 0.15218 0.08500
C 	C 	0.43890 0.81890 0.13071 -0.13000
C 	C 	0.63340 0.81870 0.13057 0.07200
C 	C 	0.58500 0.84210 0.10803 -0.11700
C 	C 	0.48560 0.84240 0.10819 0.06800
C 	C 	0.43270 0.86800 0.08429 0.10300
C 	C 	0.62910 0.92660 0.98331 0.06500
C 	C 	0.58520 0.91480 0.00970 -0.11400
C 	C 	0.48590 0.95250 0.96330 0.06800
C 	C 	0.43760 0.94080 0.98916 -0.12300
C 	C 	0.48570 0.92070 0.01242 0.05300
C 	C 	0.43470 0.90540 0.03953 0.09500
C 	C 	0.57440 0.88390 0.87068 0.05100
C 	C 	0.55780 0.84260 0.85592 -0.10800
C 	C 	0.61060 0.84410 0.91418 0.06700
C 	C 	0.59380 0.80090 0.90061 -0.11400
C 	C 	0.56800 0.80000 0.87038 0.04700
C 	C 	0.55340 0.75550 0.85429 0.10300
C 	C 	0.59440 0.58460 0.91074 0.08400
C 	C 	0.58210 0.62830 0.89754 -0.12200
C 	C 	0.56890 0.54690 0.86650 0.06100
C 	C 	0.55510 0.58910 0.85197 -0.11500
C 	C 	0.56290 0.63060 0.86735 0.05800
C 	C 	0.54990 0.67650 0.85247 0.09800
C 	C 	0.41320 0.68980 0.73594 0.07000
C 	C 	0.44890 0.68360 0.76383 -0.12100
C 	C 	0.44320 0.76920 0.73711 0.06400
C 	C 	0.47990 0.76600 0.76604 -0.11600
C 	C 	0.48220 0.72310 0.77957 0.05500
C 	C 	0.51430 0.71900 0.81197 0.10300
C 	C 	0.94830 0.55030 0.55102 0.08500
C 	C 	0.85730 0.56690 0.54681 -0.14000
C 	C 	0.94140 0.57120 0.60019 0.08300
C 	C 	0.84980 0.58820 0.59784 -0.14000
C 	C 	0.80620 0.58460 0.57015 0.06700
C 	C 	0.70310 0.59880 0.56672 0.08500
C 	C 	0.50700 0.70400 0.65218 0.08500
C 	C 	0.56110 0.68110 0.63071 -0.13000
C 	C 	0.36660 0.68130 0.63057 0.07200
C 	C 	0.41500 0.65790 0.60803 -0.11700
C 	C 	0.51440 0.65760 0.60819 0.06800
C 	C 	0.56730 0.63200 0.58429 0.10300
C 	C 	0.37090 0.57340 0.48331 0.06500
C 	C 	0.41480 0.58520 0.50970 -0.11400
C 	C 	0.51410 0.54750 0.46330 0.06800
C 	C 	0.56240 0.55920 0.48916 -0.12300
C 	C 	0.51430 0.57930 0.51242 0.05300
C 	C 	0.56530 0.59460 0.53953 0.09500
C 	C 	0.42560 0.61610 0.37068 0.05100
C 	C 	0.44220 0.65740 0.35592 -0.10800
C 	C 	0.38940 0.65590 0.41418 0.06800
C 	C 	0.40620 0.69910 0.40061 -0.11400
C 	C 	0.43200 0.70000 0.37038 0.04700
C 	C 	0.44660 0.74450 0.35429 0.10400
C 	C 	0.40560 0.91540 0.41074 0.08400
C 	C 	0.41790 0.87170 0.39754 -0.12200
C 	C 	0.43110 0.95310 0.36650 0.06100
C 	C 	0.44490 0.91090 0.35197 -0.11500
C 	C 	0.43710 0.86940 0.36735 0.05800
C 	C 	0.45010 0.82350 0.35247 0.09800
C 	C 	0.58680 0.81020 0.23594 0.07000
C 	C 	0.55110 0.81640 0.26383 -0.12200
C 	C 	0.55680 0.73080 0.23711 0.06400
C 	C 	0.52010 0.73400 0.26604 -0.11600
C 	C 	0.51780 0.77690 0.27957 0.05500
C 	C 	0.48570 0.78100 0.31197 0.10300
I 	I 	0.05581 0.98719 0.61117 -0.36000
I 	I 	0.32531 0.05684 0.57654 -0.38500
I 	I 	0.19454 0.50267 0.53266 -0.38900
I 	I 	0.21712 0.56663 0.62299 -0.36900
I 	I 	0.16970 0.32675 0.33159 -0.37300
I 	I 	0.32777 0.19701 0.30944 -0.37200
I 	I 	0.94419 0.51281 0.11117 -0.36100
I 	I 	0.67469 0.44316 0.07654 -0.38500
I 	I 	0.80546 0.99733 0.03266 -0.39000
I 	I 	0.78288 0.93337 0.12299 -0.36900
I 	I 	0.83030 0.17325 0.83159 -0.37300
I 	I 	0.67223 0.30299 0.80944 -0.37200
I 	I 	0.55581 0.01281 0.88883 -0.36000
I 	I 	0.82531 0.94316 0.92346 -0.38500
I 	I 	0.69454 0.49733 0.96734 -0.38900
I 	I 	0.71712 0.43337 0.87701 -0.36800
I 	I 	0.66970 0.67325 0.16841 -0.37400
I 	I 	0.82777 0.80299 0.19056 -0.37300
I 	I 	0.44419 0.48719 0.38883 -0.36100
I 	I 	0.17469 0.55684 0.42346 -0.38400
I 	I 	0.30546 0.00267 0.46734 -0.38900
I 	I 	0.28288 0.06663 0.37701 -0.36800
I 	I 	0.33030 0.82675 0.66841 -0.37300
I 	I 	0.17223 0.69701 0.69056 -0.37300
N 	N 	0.50860 0.05200 0.42244 -0.27500
N 	N 	0.08770 0.20380 0.34756 -0.27800
N 	N 	0.08080 0.05590 0.54016 -0.27300
N 	N 	0.83860 0.12430 0.41148 -0.13000
N 	N 	0.98390 0.11880 0.43980 -0.13600
N 	N 	0.84130 0.08350 0.45824 -0.14200
N 	N 	0.10170 0.11460 0.60010 -0.26900
N 	N 	0.09110 0.45570 0.60367 -0.27200
N 	N 	0.90860 0.26790 0.77762 -0.27400
N 	N 	0.06580 0.28500 0.63114 -0.13900
N 	N 	0.02470 0.32410 0.67673 -0.13900
N 	N 	0.02750 0.24000 0.67437 -0.14100
N 	N 	0.49140 0.44800 0.92244 -0.27500
N 	N 	0.91230 0.29620 0.84756 -0.27700
N 	N 	0.91920 0.44410 0.04016 -0.27200
N 	N 	0.16140 0.37570 0.91148 -0.13100
N 	N 	0.01610 0.38120 0.93980 -0.13600
N 	N 	0.15870 0.41650 0.95824 -0.14200
N 	N 	0.89830 0.38540 0.10010 -0.26900
N 	N 	0.90890 0.04430 0.10367 -0.27200
N 	N 	0.09140 0.23210 0.27762 -0.27400
N 	N 	0.93420 0.21500 0.13114 -0.13900
N 	N 	0.97530 0.17590 0.17673 -0.13900
N 	N 	0.97250 0.26000 0.17437 -0.14100
N 	N 	0.00860 0.94800 0.07756 -0.27400
N 	N 	0.58770 0.79620 0.15244 -0.27800
N 	N 	0.58080 0.94410 0.95984 -0.27200
N 	N 	0.33860 0.87570 0.08852 -0.13000
N 	N 	0.48390 0.88120 0.06020 -0.13600
N 	N 	0.34130 0.91650 0.04176 -0.14200
N 	N 	0.60170 0.88540 0.89990 -0.26900
N 	N 	0.59110 0.54430 0.89633 -0.27200
N 	N 	0.40860 0.73210 0.72238 -0.27400
N 	N 	0.56580 0.71500 0.86886 -0.13900
N 	N 	0.52470 0.67590 0.82327 -0.13900
N 	N 	0.52750 0.76000 0.82563 -0.14100
N 	N 	0.99140 0.55200 0.57756 -0.27500
N 	N 	0.41230 0.70380 0.65244 -0.27800
N 	N 	0.41920 0.55590 0.45984 -0.27200
N 	N 	0.66140 0.62430 0.58852 -0.13000
N 	N 	0.51610 0.61880 0.56020 -0.13600
N 	N 	0.65870 0.58350 0.54176 -0.14200
N 	N 	0.39830 0.61460 0.39990 -0.26900
N 	N 	0.40890 0.95570 0.39633 -0.27200
N 	N 	0.59140 0.76790 0.22238 -0.27400
N 	N 	0.43420 0.78500 0.36886 -0.13900
N 	N 	0.47530 0.82410 0.32327 -0.13900
N 	N 	0.47250 0.74000 0.32563 -0.14100
Zn	Zn	0.85668 0.94916 0.41824 1.16300
Zn	Zn	0.87608 0.48022 0.41558 1.16300
Zn	Zn	0.83241 0.75992 0.68349 1.16400
Zn	Zn	0.14332 0.55084 0.91824 1.16300
Zn	Zn	0.12392 0.01978 0.91558 1.16300
Zn	Zn	0.16759 0.74008 0.18349 1.16400
Zn	Zn	0.35668 0.05084 0.08176 1.16300
Zn	Zn	0.37608 0.51978 0.08442 1.16300
Zn	Zn	0.33241 0.24008 0.81651 1.16400
Zn	Zn	0.64332 0.44916 0.58176 1.16300
Zn	Zn	0.62392 0.98022 0.58442 1.16300
Zn	Zn	0.66759 0.25992 0.31651 1.16400
H 	H 	0.48210 0.96280 0.53450 -0.00900
H 	H 	0.32930 0.93390 0.52750 0.09500
H 	H 	0.47200 0.92700 0.61910 -0.01100
H 	H 	0.31750 0.89810 0.61440 0.10200
H 	H 	0.03980 0.77940 0.66750 -0.01800
H 	H 	0.12950 0.81830 0.63150 0.08500
H 	H 	0.79810 0.81870 0.63040 -0.01000
H 	H 	0.88030 0.85780 0.59270 0.08500
H 	H 	0.80330 0.92220 0.48160 -0.00400
H 	H 	0.87810 0.90280 0.52590 0.07700
H 	H 	0.04870 0.96680 0.44740 -0.01300
H 	H 	0.12950 0.94690 0.49080 0.09100
H 	H 	0.93340 0.91270 0.36020 -0.00700
H 	H 	0.96090 0.84330 0.33550 0.07700
H 	H 	0.87070 0.84440 0.43460 -0.01300
H 	H 	0.90030 0.77240 0.41160 0.07700
H 	H 	0.89400 0.58370 0.43160 -0.01200
H 	H 	0.91310 0.65630 0.40910 0.08200
H 	H 	0.93730 0.51850 0.35550 -0.00700
H 	H 	0.95980 0.58950 0.33130 0.08000
H 	H 	0.10970 0.66300 0.22540 -0.01200
H 	H 	0.04870 0.65310 0.27250 0.08200
H 	H 	0.05700 0.79910 0.22750 -0.00000
H 	H 	0.99710 0.79330 0.27610 0.08000
H 	H 	0.51790 0.53720 0.03450 -0.00900
H 	H 	0.67070 0.56610 0.02750 0.09500
H 	H 	0.52800 0.57300 0.11910 -0.01100
H 	H 	0.68250 0.60190 0.11440 0.10200
H 	H 	0.96020 0.72060 0.16750 -0.01800
H 	H 	0.87050 0.68170 0.13150 0.08400
H 	H 	0.20190 0.68130 0.13040 -0.01000
H 	H 	0.11970 0.64220 0.09270 0.08500
H 	H 	0.19670 0.57780 0.98160 -0.00400
H 	H 	0.12190 0.59720 0.02590 0.07700
H 	H 	0.95130 0.53320 0.94740 -0.01300
H 	H 	0.87050 0.55310 0.99080 0.09000
H 	H 	0.06660 0.58730 0.86020 -0.00700
H 	H 	0.03910 0.65670 0.83550 0.07700
H 	H 	0.12930 0.65560 0.93460 -0.01300
H 	H 	0.09970 0.72760 0.91160 0.07700
H 	H 	0.10600 0.91630 0.93160 -0.01200
H 	H 	0.08690 0.84370 0.90910 0.08200
H 	H 	0.06270 0.98150 0.85550 -0.00700
H 	H 	0.04020 0.91050 0.83130 0.08000
H 	H 	0.89030 0.83700 0.72540 -0.01200
H 	H 	0.95130 0.84690 0.77250 0.08100
H 	H 	0.94300 0.70090 0.72750 -0.00000
H 	H 	0.00290 0.70670 0.77610 0.08100
H 	H 	0.98210 0.03720 0.96550 -0.00900
H 	H 	0.82930 0.06610 0.97250 0.09500
H 	H 	0.97200 0.07300 0.88090 -0.01000
H 	H 	0.81750 0.10190 0.88560 0.10200
H 	H 	0.53980 0.22060 0.83250 -0.01800
H 	H 	0.62950 0.18170 0.86850 0.08500
H 	H 	0.29810 0.18130 0.86960 -0.01100
H 	H 	0.38030 0.14220 0.90730 0.08500
H 	H 	0.30330 0.07780 0.01840 -0.00400
H 	H 	0.37810 0.09720 0.97410 0.07700
H 	H 	0.54870 0.03320 0.05260 -0.01300
H 	H 	0.62950 0.05310 0.00920 0.09000
H 	H 	0.43340 0.08730 0.13980 -0.00700
H 	H 	0.46090 0.15670 0.16450 0.07700
H 	H 	0.37070 0.15560 0.06540 -0.01300
H 	H 	0.40030 0.22760 0.08840 0.07700
H 	H 	0.39400 0.41630 0.06840 -0.01200
H 	H 	0.41310 0.34370 0.09090 0.08200
H 	H 	0.43730 0.48150 0.14450 -0.00700
H 	H 	0.45980 0.41050 0.16870 0.08000
H 	H 	0.60970 0.33700 0.27460 -0.01200
H 	H 	0.54870 0.34690 0.22750 0.08100
H 	H 	0.55700 0.20090 0.27250 -0.00100
H 	H 	0.49710 0.20670 0.22390 0.08200
H 	H 	0.01790 0.46280 0.46550 -0.00900
H 	H 	0.17070 0.43390 0.47250 0.09500
H 	H 	0.02800 0.42700 0.38090 -0.01000
H 	H 	0.18250 0.39810 0.38560 0.10200
H 	H 	0.46020 0.27940 0.33250 -0.01800
H 	H 	0.37050 0.31830 0.36850 0.08500
H 	H 	0.70190 0.31870 0.36960 -0.01000
H 	H 	0.61970 0.35780 0.40730 0.08500
H 	H 	0.69670 0.42220 0.51840 -0.00400
H 	H 	0.62190 0.40280 0.47410 0.07700
H 	H 	0.45130 0.46680 0.55260 -0.01300
H 	H 	0.37050 0.44690 0.50920 0.09000
H 	H 	0.56660 0.41270 0.63980 -0.00700
H 	H 	0.53910 0.34330 0.66450 0.07700
H 	H 	0.62930 0.34440 0.56540 -0.01300
H 	H 	0.59970 0.27240 0.58840 0.07700
H 	H 	0.60600 0.08370 0.56840 -0.01200
H 	H 	0.58690 0.15630 0.59090 0.08200
H 	H 	0.56270 0.01850 0.64450 -0.00700
H 	H 	0.54020 0.08950 0.66870 0.08000
H 	H 	0.39030 0.16300 0.77460 -0.01200
H 	H 	0.45130 0.15310 0.72750 0.08100
H 	H 	0.44300 0.29910 0.77250 -0.00100
H 	H 	0.50290 0.29330 0.72390 0.08200
C 	C 	0.44830 0.94970 0.55102 0.08500
C 	C 	0.35730 0.93310 0.54681 -0.14000
C 	C 	0.44140 0.92880 0.60019 0.08300
C 	C 	0.34980 0.91180 0.59784 -0.14000
C 	C 	0.30620 0.91540 0.57015 0.06700
C 	C 	0.20310 0.90120 0.56672 0.08500
C 	C 	0.00700 0.79600 0.65218 0.08400
C 	C 	0.06110 0.81890 0.63071 -0.13000
C 	C 	0.86660 0.81870 0.63057 0.07200
C 	C 	0.91500 0.84210 0.60803 -0.11600
C 	C 	0.01440 0.84240 0.60819 0.06700
C 	C 	0.06730 0.86800 0.58429 0.10300
C 	C 	0.87090 0.92660 0.48331 0.06600
C 	C 	0.91480 0.91480 0.50970 -0.11600
C 	C 	0.01410 0.95250 0.46330 0.07000
C 	C 	0.06240 0.94080 0.48916 -0.12400
C 	C 	0.01430 0.92070 0.51242 0.05400
C 	C 	0.06530 0.90540 0.53953 0.09500
C 	C 	0.92560 0.88390 0.37068 0.05100
C 	C 	0.94220 0.84260 0.35592 -0.10800
C 	C 	0.88940 0.84410 0.41418 0.06700
C 	C 	0.90620 0.80090 0.40061 -0.11400
C 	C 	0.93200 0.80000 0.37038 0.04700
C 	C 	0.94660 0.75550 0.35429 0.10300
C 	C 	0.90560 0.58460 0.41074 0.08300
C 	C 	0.91790 0.62830 0.39754 -0.12200
C 	C 	0.93110 0.54690 0.36650 0.06100
C 	C 	0.94490 0.58910 0.35197 -0.11500
C 	C 	0.93710 0.63060 0.36735 0.05800
C 	C 	0.95010 0.67650 0.35247 0.09800
C 	C 	0.08680 0.68980 0.23594 0.07000
C 	C 	0.05110 0.68360 0.26383 -0.12100
C 	C 	0.05680 0.76920 0.23711 0.06300
C 	C 	0.02010 0.76600 0.26604 -0.11300
C 	C 	0.01780 0.72310 0.27957 0.05500
C 	C 	0.98570 0.71900 0.31197 0.10200
C 	C 	0.55170 0.55030 0.05102 0.08500
C 	C 	0.64270 0.56690 0.04681 -0.14000
C 	C 	0.55860 0.57120 0.10019 0.08300
C 	C 	0.65020 0.58820 0.09784 -0.14000
C 	C 	0.69380 0.58460 0.07015 0.06700
C 	C 	0.79690 0.59880 0.06672 0.08500
C 	C 	0.99300 0.70400 0.15218 0.08300
C 	C 	0.93890 0.68110 0.13071 -0.12900
C 	C 	0.13340 0.68130 0.13057 0.07200
C 	C 	0.08500 0.65790 0.10803 -0.11500
C 	C 	0.98560 0.65760 0.10819 0.06500
C 	C 	0.93270 0.63200 0.08429 0.10300
C 	C 	0.12910 0.57340 0.98331 0.06500
C 	C 	0.08520 0.58520 0.00970 -0.11400
C 	C 	0.98590 0.54750 0.96330 0.06800
C 	C 	0.93760 0.55920 0.98916 -0.12300
C 	C 	0.98570 0.57930 0.01242 0.05200
C 	C 	0.93470 0.59460 0.03953 0.09500
C 	C 	0.07440 0.61610 0.87068 0.05100
C 	C 	0.05780 0.65740 0.85592 -0.10800
C 	C 	0.11060 0.65590 0.91418 0.06700
C 	C 	0.09380 0.69910 0.90061 -0.11400
C 	C 	0.06800 0.70000 0.87038 0.04700
C 	C 	0.05340 0.74450 0.85429 0.10300
C 	C 	0.09440 0.91540 0.91074 0.08300
C 	C 	0.08210 0.87170 0.89754 -0.12200
C 	C 	0.06890 0.95310 0.86650 0.06100
C 	C 	0.05510 0.91090 0.85197 -0.11500
C 	C 	0.06290 0.86940 0.86735 0.05800
C 	C 	0.04990 0.82350 0.85247 0.09800
C 	C 	0.91320 0.81020 0.73594 0.07000
C 	C 	0.94890 0.81640 0.76383 -0.12100
C 	C 	0.94320 0.73080 0.73711 0.06400
C 	C 	0.97990 0.73400 0.76604 -0.11400
C 	C 	0.98220 0.77690 0.77957 0.05500
C 	C 	0.01430 0.78100 0.81197 0.10300
C 	C 	0.94830 0.05030 0.94898 0.08500
C 	C 	0.85730 0.06690 0.95319 -0.14000
C 	C 	0.94140 0.07120 0.89981 0.08300
C 	C 	0.84980 0.08820 0.90216 -0.14000
C 	C 	0.80620 0.08460 0.92985 0.06700
C 	C 	0.70310 0.09880 0.93328 0.08500
C 	C 	0.50700 0.20400 0.84782 0.08500
C 	C 	0.56110 0.18110 0.86929 -0.13000
C 	C 	0.36660 0.18130 0.86943 0.07200
C 	C 	0.41500 0.15790 0.89197 -0.11700
C 	C 	0.51440 0.15760 0.89181 0.06800
C 	C 	0.56730 0.13200 0.91571 0.10300
C 	C 	0.37090 0.07340 0.01669 0.06500
C 	C 	0.41480 0.08520 0.99030 -0.11400
C 	C 	0.51410 0.04750 0.03670 0.06800
C 	C 	0.56240 0.05920 0.01084 -0.12300
C 	C 	0.51430 0.07930 0.98758 0.05300
C 	C 	0.56530 0.09460 0.96047 0.09500
C 	C 	0.42560 0.11610 0.12932 0.05100
C 	C 	0.44220 0.15740 0.14408 -0.10800
C 	C 	0.38940 0.15590 0.08582 0.06700
C 	C 	0.40620 0.19910 0.09939 -0.11400
C 	C 	0.43200 0.20000 0.12962 0.04700
C 	C 	0.44660 0.24450 0.14571 0.10300
C 	C 	0.40560 0.41540 0.08926 0.08400
C 	C 	0.41790 0.37170 0.10246 -0.12200
C 	C 	0.43110 0.45310 0.13350 0.06100
C 	C 	0.44490 0.41090 0.14803 -0.11500
C 	C 	0.43710 0.36940 0.13265 0.05800
C 	C 	0.45010 0.32350 0.14753 0.09800
C 	C 	0.58680 0.31020 0.26406 0.07000
C 	C 	0.55110 0.31640 0.23617 -0.12100
C 	C 	0.55680 0.23080 0.26289 0.06400
C 	C 	0.52010 0.23400 0.23396 -0.11600
C 	C 	0.51780 0.27690 0.22043 0.05500
C 	C 	0.48570 0.28100 0.18803 0.10300
C 	C 	0.05170 0.44970 0.44898 0.08500
C 	C 	0.14270 0.43310 0.45319 -0.14000
C 	C 	0.05860 0.42880 0.39981 0.08300
C 	C 	0.15020 0.41180 0.40216 -0.14000
C 	C 	0.19380 0.41540 0.42985 0.06700
C 	C 	0.29690 0.40120 0.43328 0.08500
C 	C 	0.49300 0.29600 0.34782 0.08500
C 	C 	0.43890 0.31890 0.36929 -0.13000
C 	C 	0.63340 0.31870 0.36943 0.07200
C 	C 	0.58500 0.34210 0.39197 -0.11700
C 	C 	0.48560 0.34240 0.39181 0.06800
C 	C 	0.43270 0.36800 0.41571 0.10300
C 	C 	0.62910 0.42660 0.51669 0.06500
C 	C 	0.58520 0.41480 0.49030 -0.11400
C 	C 	0.48590 0.45250 0.53670 0.06800
C 	C 	0.43760 0.44080 0.51084 -0.12300
C 	C 	0.48570 0.42070 0.48758 0.05300
C 	C 	0.43470 0.40540 0.46047 0.09500
C 	C 	0.57440 0.38390 0.62932 0.05100
C 	C 	0.55780 0.34260 0.64408 -0.10800
C 	C 	0.61060 0.34410 0.58582 0.06800
C 	C 	0.59380 0.30090 0.59939 -0.11400
C 	C 	0.56800 0.30000 0.62962 0.04700
C 	C 	0.55340 0.25550 0.64571 0.10400
C 	C 	0.59440 0.08460 0.58926 0.08400
C 	C 	0.58210 0.12830 0.60246 -0.12200
C 	C 	0.56890 0.04690 0.63350 0.06100
C 	C 	0.55510 0.08910 0.64803 -0.11500
C 	C 	0.56290 0.13060 0.63265 0.05800
C 	C 	0.54990 0.17650 0.64753 0.09800
C 	C 	0.41320 0.18980 0.76406 0.07000
C 	C 	0.44890 0.18360 0.73617 -0.12200
C 	C 	0.44320 0.26920 0.76289 0.06400
C 	C 	0.47990 0.26600 0.73396 -0.11600
C 	C 	0.48220 0.22310 0.72043 0.05500
C 	C 	0.51430 0.21900 0.68803 0.10300
I 	I 	0.94419 0.01281 0.38883 -0.36000
I 	I 	0.67469 0.94316 0.42346 -0.38500
I 	I 	0.80546 0.49733 0.46734 -0.38900
I 	I 	0.78288 0.43337 0.37701 -0.36900
I 	I 	0.83030 0.67325 0.66841 -0.37300
I 	I 	0.67223 0.80299 0.69056 -0.37200
I 	I 	0.05581 0.48719 0.88883 -0.36100
I 	I 	0.32531 0.55684 0.92346 -0.38500
I 	I 	0.19454 0.00267 0.96734 -0.39000
I 	I 	0.21712 0.06663 0.87701 -0.36900
I 	I 	0.16970 0.82675 0.16841 -0.37300
I 	I 	0.32777 0.69701 0.19056 -0.37200
I 	I 	0.44419 0.98719 0.11117 -0.36000
I 	I 	0.17469 0.05684 0.07654 -0.38500
I 	I 	0.30546 0.50267 0.03266 -0.38900
I 	I 	0.28288 0.56663 0.12299 -0.36800
I 	I 	0.33030 0.32675 0.83159 -0.37400
I 	I 	0.17223 0.19701 0.80944 -0.37300
I 	I 	0.55581 0.51281 0.61117 -0.36100
I 	I 	0.82531 0.44316 0.57654 -0.38400
I 	I 	0.69454 0.99733 0.53266 -0.38900
I 	I 	0.71712 0.93337 0.62299 -0.36800
I 	I 	0.66970 0.17325 0.33159 -0.37300
I 	I 	0.82777 0.30299 0.30944 -0.37300
N 	N 	0.49140 0.94800 0.57756 -0.27500
N 	N 	0.91230 0.79620 0.65244 -0.27800
N 	N 	0.91920 0.94410 0.45984 -0.27300
N 	N 	0.16140 0.87570 0.58852 -0.13000
N 	N 	0.01610 0.88120 0.56020 -0.13600
N 	N 	0.15870 0.91650 0.54176 -0.14200
N 	N 	0.89830 0.88540 0.39990 -0.26900
N 	N 	0.90890 0.54430 0.39633 -0.27200
N 	N 	0.09140 0.73210 0.22238 -0.27400
N 	N 	0.93420 0.71500 0.36886 -0.13900
N 	N 	0.97530 0.67590 0.32327 -0.13900
N 	N 	0.97250 0.76000 0.32563 -0.14100
N 	N 	0.50860 0.55200 0.07756 -0.27500
N 	N 	0.08770 0.70380 0.15244 -0.27700
N 	N 	0.08080 0.55590 0.95984 -0.27200
N 	N 	0.83860 0.62430 0.08852 -0.13100
N 	N 	0.98390 0.61880 0.06020 -0.13600
N 	N 	0.84130 0.58350 0.04176 -0.14200
N 	N 	0.10170 0.61460 0.89990 -0.26900
N 	N 	0.09110 0.95570 0.89633 -0.27200
N 	N 	0.90860 0.76790 0.72238 -0.27400
N 	N 	0.06580 0.78500 0.86886 -0.13900
N 	N 	0.02470 0.82410 0.82327 -0.13900
N 	N 	0.02750 0.74000 0.82563 -0.14100
N 	N 	0.99140 0.05200 0.92244 -0.27400
N 	N 	0.41230 0.20380 0.84756 -0.27800
N 	N 	0.41920 0.05590 0.04016 -0.27200
N 	N 	0.66140 0.12430 0.91148 -0.13000
N 	N 	0.51610 0.11880 0.93980 -0.13600
N 	N 	0.65870 0.08350 0.95824 -0.14200
N 	N 	0.39830 0.11460 0.10010 -0.26900
N 	N 	0.40890 0.45570 0.10367 -0.27200
N 	N 	0.59140 0.26790 0.27762 -0.27400
N 	N 	0.43420 0.28500 0.13114 -0.13900
N 	N 	0.47530 0.32410 0.17673 -0.13900
N 	N 	0.47250 0.24000 0.17437 -0.14100
N 	N 	0.00860 0.44800 0.42244 -0.27500
N 	N 	0.58770 0.29620 0.34756 -0.27800
N 	N 	0.58080 0.44410 0.54016 -0.27200
N 	N 	0.33860 0.37570 0.41148 -0.13000
N 	N 	0.48390 0.38120 0.43980 -0.13600
N 	N 	0.34130 0.41650 0.45824 -0.14200
N 	N 	0.60170 0.38540 0.60010 -0.26900
N 	N 	0.59110 0.04430 0.60367 -0.27200
N 	N 	0.40860 0.23210 0.77762 -0.27400
N 	N 	0.56580 0.21500 0.63114 -0.13900
N 	N 	0.52470 0.17590 0.67673 -0.13900
N 	N 	0.52750 0.26000 0.67437 -0.14100
