data_crystal

_cell_length_a 14.37000
_cell_length_b 28.43100
_cell_length_c 17.88300
_cell_angle_alpha 90.00000
_cell_angle_beta  100.67300
_cell_angle_gamma 90.00000

_symmetry_space_group_name_	'P 1'
_symmetry_space_group_name_H-M	'P 1'

loop_
_symmetry_equiv_pos_as_xyz
  x,y,z

loop_
_atom_site_label
_atom_site_type_symbol
_atom_site_fract_x
_atom_site_fract_y
_atom_site_fract_z
_atom_site_charge
Co	Co	0.13656 0.13466 0.44267 1.16500
Co	Co	0.51161 0.14920 0.53366 1.16800
Na	Na	0.33179 0.16695 0.39110 0.59500
C 	C 	0.26200 0.03582 0.92530 0.00600
C 	C 	0.22470 0.99111 0.93130 0.00100
C 	C 	0.26520 0.96118 0.99090 0.01100
C 	C 	0.34620 0.97489 0.04180 -0.00100
C 	C 	0.38680 0.01924 0.03330 -0.00200
C 	C 	0.34330 0.05004 0.97640 0.00800
C 	C 	0.21180 0.06968 0.86680 -0.00400
H 	H 	0.14640 0.06010 0.85040 0.04700
H 	H 	0.21260 0.10100 0.88830 0.04700
C 	C 	0.14110 0.97424 0.87390 0.00400
H 	H 	0.14030 0.98940 0.82520 0.04000
H 	H 	0.14470 0.94050 0.86710 0.04700
C 	C 	0.21570 0.91462 0.99870 0.00400
H 	H 	0.23730 0.90130 0.04890 0.04400
H 	H 	0.14770 0.91910 0.99120 0.04400
C 	C 	0.38990 0.94294 0.10630 0.00700
H 	H 	0.45010 0.95560 0.13210 0.04300
H 	H 	0.34830 0.94000 0.14300 0.03900
C 	C 	0.47520 0.03393 0.08730 0.01100
H 	H 	0.52050 0.00830 0.09400 0.03600
H 	H 	0.50390 0.06060 0.06640 0.04400
C 	C 	0.38150 0.09900 0.97140 -0.00200
H 	H 	0.44990 0.09830 0.97670 0.04800
H 	H 	0.35480 0.11320 0.92290 0.05100
C 	C 	0.22780 0.10180 0.74720 0.20100
C 	C 	0.14930 0.12999 0.74560 -0.18600
H 	H 	0.11310 0.12760 0.78350 0.10800
C 	C 	0.12540 0.16182 0.68680 0.05600
H 	H 	0.07250 0.18080 0.68540 0.02400
C 	C 	0.17830 0.16610 0.62990 -0.08400
H 	H 	0.16180 0.18820 0.59140 0.04500
C 	C 	0.25590 0.13723 0.63080 -0.04700
C 	C 	0.28080 0.10502 0.69000 -0.12900
H 	H 	0.33320 0.08560 0.69110 0.09500
C 	C 	0.31240 0.14117 0.56890 0.36200
C 	C 	0.97440 0.96624 0.86640 0.24100
C 	C 	0.89990 0.97046 0.90410 -0.22900
H 	H 	0.90730 0.98660 0.95010 0.13300
C 	C 	0.81330 0.95030 0.87280 0.09700
H 	H 	0.76290 0.95230 0.89870 0.01500
C 	C 	0.80140 0.92756 0.80420 -0.13000
H 	H 	0.74320 0.91430 0.78360 0.08900
C 	C 	0.87500 0.92437 0.76600 0.03200
C 	C 	0.96200 0.94370 0.79750 -0.19900
H 	H 	0.01230 0.94140 0.77170 0.11600
C 	C 	0.86180 0.90121 0.68920 0.29400
C 	C 	0.19490 0.84142 0.93110 0.21000
C 	C 	0.20390 0.81796 0.86520 -0.19500
H 	H 	0.23690 0.83160 0.83060 0.11300
C 	C 	0.16380 0.77417 0.85110 0.06400
H 	H 	0.16880 0.75850 0.80640 0.01100
C 	C 	0.11640 0.75343 0.90260 -0.09400
H 	H 	0.08940 0.72380 0.89260 0.05400
C 	C 	0.10880 0.77632 0.96870 -0.00300
C 	C 	0.14590 0.82096 0.98320 -0.15300
H 	H 	0.13840 0.83700 0.02700 0.09900
C 	C 	0.42490 0.86013 0.12300 0.22600
C 	C 	0.38000 0.81824 0.09950 -0.17800
H 	H 	0.33160 0.81770 0.05700 0.11200
C 	C 	0.40680 0.77712 0.13900 0.02300
C 	C 	0.47570 0.77914 0.20320 -0.11900
H 	H 	0.49450 0.75180 0.23040 0.07800
C 	C 	0.51700 0.82130 0.22760 0.09600
H 	H 	0.56260 0.82230 0.27190 0.00300
C 	C 	0.49210 0.86196 0.18800 -0.22600
H 	H 	0.52050 0.89040 0.20490 0.12000
C 	C 	0.35580 0.73153 0.11380 0.32800
C 	C 	0.46750 0.19954 0.18560 -0.00600
C 	C 	0.40620 0.16828 0.14290 -0.15600
H 	H 	0.35810 0.15440 0.16360 0.10900
C 	C 	0.41590 0.15742 0.06930 0.22800
C 	C 	0.48650 0.17881 0.03840 -0.21200
H 	H 	0.49220 0.17240 0.98840 0.12100
C 	C 	0.54790 0.20943 0.08110 0.08500
H 	H 	0.59510 0.22380 0.05990 0.00500
C 	C 	0.54050 0.21911 0.15500 -0.09800
H 	H 	0.58450 0.23880 0.18450 0.08500
C 	C 	0.45220 0.21064 0.26320 0.38400
C 	C 	0.56740 0.10070 0.33560 0.03900
C 	C 	0.49930 0.08129 0.27880 -0.18400
H 	H 	0.43680 0.07910 0.28560 0.11300
C 	C 	0.52400 0.06518 0.21210 0.23800
C 	C 	0.61740 0.06912 0.20140 -0.22600
H 	H 	0.63460 0.05830 0.15690 0.12500
C 	C 	0.68380 0.08936 0.25800 0.10800
H 	H 	0.74590 0.09250 0.25060 -0.00500
C 	C 	0.66050 0.10481 0.32430 -0.13800
H 	H 	0.70650 0.11800 0.36190 0.09400
C 	C 	0.54220 0.11724 0.40810 0.26100
C 	C 	0.06090 0.75257 0.02700 0.32700
C 	C 	0.63590 0.22493 0.63210 0.04500
H 	H 	0.60150 0.24720 0.60020 0.01200
C 	C 	0.70750 0.24033 0.69080 -0.06600
H 	H 	0.71950 0.27230 0.69770 0.06600
C 	C 	0.75860 0.20910 0.73700 -0.04400
H 	H 	0.80620 0.21940 0.77600 0.07200
C 	C 	0.74040 0.16043 0.72660 0.02300
C 	C 	0.66760 0.14789 0.66660 0.02100
C 	C 	0.64480 0.09920 0.65250 0.02800
C 	C 	0.69700 0.06445 0.69810 0.00400
C 	C 	0.77190 0.07880 0.75750 -0.05300
H 	H 	0.80710 0.05610 0.78770 0.05200
C 	C 	0.79260 0.12380 0.77060 -0.06300
H 	H 	0.84240 0.13190 0.80950 0.06000
C 	C 	0.67030 0.01746 0.68050 -0.02700
H 	H 	0.70300 0.99310 0.70860 0.04600
C 	C 	0.59790 0.00758 0.62350 -0.09400
H 	H 	0.57990 0.97660 0.61240 0.07400
C 	C 	0.54990 0.04432 0.58110 0.06300
H 	H 	0.50010 0.03710 0.54160 0.00400
C 	C 	0.23360 0.03741 0.49270 0.06100
H 	H 	0.27890 0.04560 0.46400 0.00700
C 	C 	0.24280 0.99420 0.53140 -0.08200
H 	H 	0.29350 0.97450 0.52830 0.06500
C 	C 	0.17780 0.98150 0.57330 -0.03400
H 	H 	0.18340 0.95290 0.59890 0.04800
C 	C 	0.10330 0.01107 0.57800 0.01900
C 	C 	0.09860 0.05386 0.53780 0.02400
C 	C 	0.02410 0.08663 0.54100 0.03000
C 	C 	0.95450 0.07520 0.58410 0.01100
C 	C 	0.96060 0.03170 0.62340 -0.04600
H 	H 	0.91480 0.02440 0.65220 0.05200
C 	C 	0.02860 0.00150 0.62060 -0.06000
H 	H 	0.02920 0.97320 0.64660 0.06300
C 	C 	0.95490 0.15690 0.50410 0.05300
H 	H 	0.95420 0.18490 0.47730 0.01600
C 	C 	0.88300 0.14860 0.54480 -0.07900
H 	H 	0.83530 0.17080 0.54490 0.06800
C 	C 	0.88330 0.10800 0.58410 -0.03400
H 	H 	0.83530 0.10200 0.61130 0.05000
O 	O 	0.05779 0.98609 0.90258 -0.23700
O 	O 	0.23970 0.88412 0.94111 -0.22200
O 	O 	0.40360 0.89808 0.07385 -0.23000
O 	O 	0.45217 0.04642 0.15928 -0.23100
O 	O 	0.35440 0.12476 0.03236 -0.22300
O 	O 	0.26010 0.06956 0.80340 -0.22500
O 	O 	0.93250 0.89897 0.65667 -0.38900
O 	O 	0.78370 0.88663 0.65805 -0.40200
O 	O 	0.46055 0.11073 0.42321 -0.39400
O 	O 	0.60509 0.13798 0.45581 -0.36700
O 	O 	0.39110 0.19142 0.29012 -0.35400
O 	O 	0.50720 0.24347 0.29800 -0.50000
H 	H 	0.49480 0.24780 0.34040 0.32500
O 	O 	0.04450 0.77709 0.08184 -0.27800
O 	O 	0.04110 0.70989 0.01995 -0.45200
O 	O 	0.40083 0.13492 0.58763 -0.43000
O 	O 	0.27130 0.15067 0.50268 -0.48200
O 	O 	0.27120 0.72898 0.11510 -0.33500
O 	O 	0.40500 0.69976 0.09142 -0.42600
N 	N 	0.57240 0.08910 0.59473 -0.21400
N 	N 	0.61520 0.17966 0.62020 -0.21700
N 	N 	0.16380 0.06651 0.49530 -0.21300
N 	N 	0.02390 0.12686 0.50160 -0.22300
Co	Co	0.36344 0.63466 0.05733 1.16300
Co	Co	0.98839 0.64920 0.96634 1.16500
Na	Na	0.16821 0.66695 0.10890 0.59400
C 	C 	0.23800 0.53582 0.57470 0.00500
C 	C 	0.27530 0.49111 0.56870 -0.00100
C 	C 	0.23480 0.46118 0.50910 0.01000
C 	C 	0.15380 0.47489 0.45820 0.00000
C 	C 	0.11320 0.51924 0.46670 -0.00200
C 	C 	0.15670 0.55004 0.52360 0.00700
C 	C 	0.28820 0.56968 0.63320 -0.00400
H 	H 	0.35360 0.56010 0.64960 0.04700
H 	H 	0.28740 0.60100 0.61170 0.04600
C 	C 	0.35890 0.47424 0.62610 0.00600
H 	H 	0.35970 0.48940 0.67480 0.04000
H 	H 	0.35530 0.44050 0.63290 0.04700
C 	C 	0.28430 0.41462 0.50130 0.00100
H 	H 	0.26270 0.40130 0.45110 0.04600
H 	H 	0.35230 0.41910 0.50880 0.04400
C 	C 	0.11010 0.44294 0.39370 0.00800
H 	H 	0.04990 0.45560 0.36790 0.04200
H 	H 	0.15170 0.44000 0.35700 0.03900
C 	C 	0.02480 0.53393 0.41270 0.01000
H 	H 	0.97950 0.50830 0.40600 0.03600
H 	H 	0.99610 0.56060 0.43360 0.04500
C 	C 	0.11850 0.59900 0.52860 -0.00300
H 	H 	0.05010 0.59830 0.52330 0.04900
H 	H 	0.14520 0.61320 0.57710 0.05100
C 	C 	0.27220 0.60180 0.75280 0.20100
C 	C 	0.35070 0.62999 0.75440 -0.18600
H 	H 	0.38690 0.62760 0.71650 0.10700
C 	C 	0.37460 0.66182 0.81320 0.05600
H 	H 	0.42750 0.68080 0.81460 0.02300
C 	C 	0.32170 0.66610 0.87010 -0.08400
H 	H 	0.33820 0.68820 0.90860 0.04500
C 	C 	0.24410 0.63723 0.86920 -0.04700
C 	C 	0.21920 0.60502 0.81000 -0.12900
H 	H 	0.16680 0.58560 0.80890 0.09500
C 	C 	0.18760 0.64117 0.93110 0.36200
C 	C 	0.52560 0.46624 0.63360 0.24300
C 	C 	0.60010 0.47046 0.59590 -0.22900
H 	H 	0.59270 0.48660 0.54990 0.13400
C 	C 	0.68670 0.45030 0.62720 0.09800
H 	H 	0.73710 0.45230 0.60130 0.01500
C 	C 	0.69860 0.42756 0.69580 -0.13000
H 	H 	0.75680 0.41430 0.71640 0.08900
C 	C 	0.62500 0.42437 0.73400 0.03100
C 	C 	0.53800 0.44370 0.70250 -0.19600
H 	H 	0.48770 0.44140 0.72830 0.11300
C 	C 	0.63820 0.40121 0.81080 0.29500
C 	C 	0.30510 0.34142 0.56890 0.21100
C 	C 	0.29610 0.31796 0.63480 -0.19600
H 	H 	0.26310 0.33160 0.66940 0.11300
C 	C 	0.33620 0.27417 0.64890 0.06400
H 	H 	0.33120 0.25850 0.69360 0.01100
C 	C 	0.38360 0.25343 0.59740 -0.09400
H 	H 	0.41060 0.22380 0.60740 0.05300
C 	C 	0.39120 0.27632 0.53130 -0.00500
C 	C 	0.35410 0.32096 0.51680 -0.15800
H 	H 	0.36160 0.33700 0.47300 0.10200
C 	C 	0.07510 0.36013 0.37700 0.23300
C 	C 	0.12000 0.31824 0.40050 -0.18400
H 	H 	0.16840 0.31770 0.44300 0.11500
C 	C 	0.09320 0.27712 0.36100 0.02900
C 	C 	0.02430 0.27914 0.29680 -0.13000
H 	H 	0.00550 0.25180 0.26960 0.08100
C 	C 	0.98300 0.32130 0.27240 0.11000
H 	H 	0.93740 0.32230 0.22810 -0.00100
C 	C 	0.00790 0.36196 0.31200 -0.23900
H 	H 	0.97950 0.39040 0.29510 0.12600
C 	C 	0.14420 0.23153 0.38620 0.32500
C 	C 	0.03250 0.69954 0.31440 -0.00600
C 	C 	0.09380 0.66828 0.35710 -0.15600
H 	H 	0.14190 0.65440 0.33640 0.10900
C 	C 	0.08410 0.65742 0.43070 0.22800
C 	C 	0.01350 0.67881 0.46160 -0.21300
H 	H 	0.00780 0.67240 0.51160 0.12200
C 	C 	0.95210 0.70943 0.41890 0.08600
H 	H 	0.90490 0.72380 0.44010 0.00500
C 	C 	0.95950 0.71911 0.34500 -0.09800
H 	H 	0.91550 0.73880 0.31550 0.08500
C 	C 	0.04780 0.71064 0.23680 0.38100
C 	C 	0.93260 0.60070 0.16440 0.04400
C 	C 	0.00070 0.58129 0.22120 -0.19300
H 	H 	0.06320 0.57910 0.21440 0.11600
C 	C 	0.97600 0.56518 0.28790 0.24500
C 	C 	0.88260 0.56912 0.29860 -0.23200
H 	H 	0.86540 0.55830 0.34310 0.12700
C 	C 	0.81620 0.58936 0.24200 0.11300
H 	H 	0.75410 0.59250 0.24940 -0.00700
C 	C 	0.83950 0.60481 0.17570 -0.14200
H 	H 	0.79350 0.61800 0.13810 0.09600
C 	C 	0.95780 0.61724 0.09190 0.26300
C 	C 	0.43910 0.25257 0.47300 0.32900
C 	C 	0.86410 0.72493 0.86790 0.04500
H 	H 	0.89850 0.74720 0.89980 0.01100
C 	C 	0.79250 0.74033 0.80920 -0.06600
H 	H 	0.78050 0.77230 0.80230 0.06600
C 	C 	0.74140 0.70910 0.76300 -0.04400
H 	H 	0.69380 0.71940 0.72400 0.07200
C 	C 	0.75960 0.66043 0.77340 0.02300
C 	C 	0.83240 0.64789 0.83340 0.02100
C 	C 	0.85520 0.59920 0.84750 0.02800
C 	C 	0.80300 0.56445 0.80190 0.00400
C 	C 	0.72810 0.57880 0.74250 -0.05300
H 	H 	0.69290 0.55610 0.71230 0.05200
C 	C 	0.70740 0.62380 0.72940 -0.06300
H 	H 	0.65760 0.63190 0.69050 0.06100
C 	C 	0.82970 0.51746 0.81950 -0.02700
H 	H 	0.79700 0.49310 0.79140 0.04600
C 	C 	0.90210 0.50758 0.87650 -0.09400
H 	H 	0.92010 0.47660 0.88760 0.07300
C 	C 	0.95010 0.54432 0.91890 0.06300
H 	H 	0.99990 0.53710 0.95840 0.00300
C 	C 	0.26640 0.53741 0.00730 0.05700
H 	H 	0.22110 0.54560 0.03600 0.00700
C 	C 	0.25720 0.49420 0.96860 -0.07800
H 	H 	0.20650 0.47450 0.97170 0.06400
C 	C 	0.32220 0.48150 0.92670 -0.03600
H 	H 	0.31660 0.45290 0.90110 0.04900
C 	C 	0.39670 0.51107 0.92200 0.02000
C 	C 	0.40140 0.55386 0.96220 0.02400
C 	C 	0.47590 0.58663 0.95900 0.03000
C 	C 	0.54550 0.57520 0.91590 0.01000
C 	C 	0.53940 0.53170 0.87660 -0.04400
H 	H 	0.58520 0.52440 0.84780 0.05100
C 	C 	0.47140 0.50150 0.87940 -0.06300
H 	H 	0.47080 0.47320 0.85340 0.06400
C 	C 	0.54510 0.65690 0.99590 0.05300
H 	H 	0.54580 0.68490 0.02270 0.01600
C 	C 	0.61700 0.64860 0.95520 -0.07900
H 	H 	0.66470 0.67080 0.95510 0.06700
C 	C 	0.61670 0.60800 0.91590 -0.03400
H 	H 	0.66470 0.60200 0.88870 0.05000
O 	O 	0.44221 0.48609 0.59742 -0.23900
O 	O 	0.26030 0.38412 0.55889 -0.22300
O 	O 	0.09640 0.39808 0.42615 -0.23100
O 	O 	0.04783 0.54642 0.34072 -0.23300
O 	O 	0.14560 0.62476 0.46764 -0.22300
O 	O 	0.23990 0.56956 0.69660 -0.22500
O 	O 	0.56750 0.39897 0.84333 -0.38900
O 	O 	0.71630 0.38663 0.84195 -0.40200
O 	O 	0.03945 0.61073 0.07679 -0.39600
O 	O 	0.89491 0.63798 0.04419 -0.36600
O 	O 	0.10890 0.69142 0.20988 -0.35300
O 	O 	0.99280 0.74347 0.20200 -0.49400
H 	H 	0.00520 0.74780 0.15960 0.32100
O 	O 	0.45550 0.27709 0.41816 -0.27800
O 	O 	0.45890 0.20989 0.48005 -0.45100
O 	O 	0.09917 0.63492 0.91237 -0.42800
O 	O 	0.22870 0.65067 0.99732 -0.48100
O 	O 	0.22880 0.22898 0.38490 -0.33400
O 	O 	0.09500 0.19976 0.40858 -0.42500
N 	N 	0.92760 0.58910 0.90527 -0.21400
N 	N 	0.88480 0.67966 0.87980 -0.21800
N 	N 	0.33620 0.56651 0.00470 -0.21300
N 	N 	0.47610 0.62686 0.99840 -0.22300
Co	Co	0.86344 0.86534 0.55733 1.16400
Co	Co	0.48839 0.85080 0.46634 1.16700
Na	Na	0.66821 0.83305 0.60890 0.59400
C 	C 	0.73800 0.96418 0.07470 0.00500
C 	C 	0.77530 0.00889 0.06870 -0.00000
C 	C 	0.73480 0.03882 0.00910 0.01000
C 	C 	0.65380 0.02511 0.95820 -0.00100
C 	C 	0.61320 0.98076 0.96670 -0.00200
C 	C 	0.65670 0.94996 0.02360 0.00800
C 	C 	0.78820 0.93032 0.13320 -0.00400
H 	H 	0.85360 0.93990 0.14960 0.04700
H 	H 	0.78740 0.89900 0.11170 0.04700
C 	C 	0.85890 0.02576 0.12610 0.00400
H 	H 	0.85970 0.01060 0.17480 0.04000
H 	H 	0.85530 0.05950 0.13290 0.04700
C 	C 	0.78430 0.08538 0.00130 0.00400
H 	H 	0.76270 0.09870 0.95110 0.04400
H 	H 	0.85230 0.08090 0.00880 0.04400
C 	C 	0.61010 0.05706 0.89370 0.00700
H 	H 	0.54990 0.04440 0.86790 0.04300
H 	H 	0.65170 0.06000 0.85700 0.03900
C 	C 	0.52480 0.96607 0.91270 0.01100
H 	H 	0.47950 0.99170 0.90600 0.03600
H 	H 	0.49610 0.93940 0.93360 0.04400
C 	C 	0.61850 0.90100 0.02860 -0.00200
H 	H 	0.55010 0.90170 0.02330 0.04800
H 	H 	0.64520 0.88680 0.07710 0.05100
C 	C 	0.77220 0.89820 0.25280 0.20100
C 	C 	0.85070 0.87001 0.25440 -0.18600
H 	H 	0.88690 0.87240 0.21650 0.10800
C 	C 	0.87460 0.83818 0.31320 0.05600
H 	H 	0.92750 0.81920 0.31460 0.02400
C 	C 	0.82170 0.83390 0.37010 -0.08400
H 	H 	0.83820 0.81180 0.40860 0.04500
C 	C 	0.74410 0.86277 0.36920 -0.04700
C 	C 	0.71920 0.89498 0.31000 -0.12900
H 	H 	0.66680 0.91440 0.30890 0.09500
C 	C 	0.68760 0.85883 0.43110 0.36200
C 	C 	0.02560 0.03376 0.13360 0.24100
C 	C 	0.10010 0.02954 0.09590 -0.22900
H 	H 	0.09270 0.01340 0.04990 0.13300
C 	C 	0.18670 0.04970 0.12720 0.09700
H 	H 	0.23710 0.04770 0.10130 0.01500
C 	C 	0.19860 0.07244 0.19580 -0.13000
H 	H 	0.25680 0.08570 0.21640 0.08900
C 	C 	0.12500 0.07563 0.23400 0.03200
C 	C 	0.03800 0.05630 0.20250 -0.19900
H 	H 	0.98770 0.05860 0.22830 0.11600
C 	C 	0.13820 0.09879 0.31080 0.29400
C 	C 	0.80510 0.15858 0.06890 0.21000
C 	C 	0.79610 0.18204 0.13480 -0.19500
H 	H 	0.76310 0.16840 0.16940 0.11300
C 	C 	0.83620 0.22583 0.14890 0.06400
H 	H 	0.83120 0.24150 0.19360 0.01100
C 	C 	0.88360 0.24657 0.09740 -0.09400
H 	H 	0.91060 0.27620 0.10740 0.05400
C 	C 	0.89120 0.22368 0.03130 -0.00300
C 	C 	0.85410 0.17904 0.01680 -0.15300
H 	H 	0.86160 0.16300 0.97300 0.09900
C 	C 	0.57510 0.13987 0.87700 0.22600
C 	C 	0.62000 0.18176 0.90050 -0.17800
H 	H 	0.66840 0.18230 0.94300 0.11200
C 	C 	0.59320 0.22288 0.86100 0.02300
C 	C 	0.52430 0.22086 0.79680 -0.11900
H 	H 	0.50550 0.24820 0.76960 0.07800
C 	C 	0.48300 0.17870 0.77240 0.09600
H 	H 	0.43740 0.17770 0.72810 0.00300
C 	C 	0.50790 0.13804 0.81200 -0.22600
H 	H 	0.47950 0.10960 0.79510 0.12000
C 	C 	0.64420 0.26847 0.88620 0.32800
C 	C 	0.53250 0.80046 0.81440 -0.00600
C 	C 	0.59380 0.83172 0.85710 -0.15600
H 	H 	0.64190 0.84560 0.83640 0.10900
C 	C 	0.58410 0.84258 0.93070 0.22800
C 	C 	0.51350 0.82119 0.96160 -0.21200
H 	H 	0.50780 0.82760 0.01160 0.12100
C 	C 	0.45210 0.79057 0.91890 0.08500
H 	H 	0.40490 0.77620 0.94010 0.00500
C 	C 	0.45950 0.78089 0.84500 -0.09800
H 	H 	0.41550 0.76120 0.81550 0.08500
C 	C 	0.54780 0.78936 0.73680 0.38400
C 	C 	0.43260 0.89930 0.66440 0.03900
C 	C 	0.50070 0.91871 0.72120 -0.18400
H 	H 	0.56320 0.92090 0.71440 0.11300
C 	C 	0.47600 0.93482 0.78790 0.23800
C 	C 	0.38260 0.93088 0.79860 -0.22600
H 	H 	0.36540 0.94170 0.84310 0.12500
C 	C 	0.31620 0.91064 0.74200 0.10800
H 	H 	0.25410 0.90750 0.74940 -0.00500
C 	C 	0.33950 0.89519 0.67570 -0.13800
H 	H 	0.29350 0.88200 0.63810 0.09400
C 	C 	0.45780 0.88276 0.59190 0.26100
C 	C 	0.93910 0.24743 0.97300 0.32700
C 	C 	0.36410 0.77507 0.36790 0.04500
H 	H 	0.39850 0.75280 0.39980 0.01200
C 	C 	0.29250 0.75967 0.30920 -0.06600
H 	H 	0.28050 0.72770 0.30230 0.06600
C 	C 	0.24140 0.79090 0.26300 -0.04400
H 	H 	0.19380 0.78060 0.22400 0.07200
C 	C 	0.25960 0.83957 0.27340 0.02300
C 	C 	0.33240 0.85211 0.33340 0.02100
C 	C 	0.35520 0.90080 0.34750 0.02800
C 	C 	0.30300 0.93555 0.30190 0.00400
C 	C 	0.22810 0.92120 0.24250 -0.05300
H 	H 	0.19290 0.94390 0.21230 0.05200
C 	C 	0.20740 0.87620 0.22940 -0.06300
H 	H 	0.15760 0.86810 0.19050 0.06000
C 	C 	0.32970 0.98254 0.31950 -0.02700
H 	H 	0.29700 0.00690 0.29140 0.04600
C 	C 	0.40210 0.99242 0.37650 -0.09400
H 	H 	0.42010 0.02340 0.38760 0.07400
C 	C 	0.45010 0.95568 0.41890 0.06300
H 	H 	0.49990 0.96290 0.45840 0.00400
C 	C 	0.76640 0.96259 0.50730 0.06100
H 	H 	0.72110 0.95440 0.53600 0.00700
C 	C 	0.75720 0.00580 0.46860 -0.08200
H 	H 	0.70650 0.02550 0.47170 0.06500
C 	C 	0.82220 0.01850 0.42670 -0.03400
H 	H 	0.81660 0.04710 0.40110 0.04800
C 	C 	0.89670 0.98893 0.42200 0.01900
C 	C 	0.90140 0.94614 0.46220 0.02400
C 	C 	0.97590 0.91337 0.45900 0.03000
C 	C 	0.04550 0.92480 0.41590 0.01100
C 	C 	0.03940 0.96830 0.37660 -0.04600
H 	H 	0.08520 0.97560 0.34780 0.05200
C 	C 	0.97140 0.99850 0.37940 -0.06000
H 	H 	0.97080 0.02680 0.35340 0.06300
C 	C 	0.04510 0.84310 0.49590 0.05300
H 	H 	0.04580 0.81510 0.52270 0.01600
C 	C 	0.11700 0.85140 0.45520 -0.07900
H 	H 	0.16470 0.82920 0.45510 0.06800
C 	C 	0.11670 0.89200 0.41590 -0.03400
H 	H 	0.16470 0.89800 0.38870 0.05000
O 	O 	0.94221 0.01391 0.09742 -0.23700
O 	O 	0.76030 0.11588 0.05889 -0.22200
O 	O 	0.59640 0.10192 0.92615 -0.23000
O 	O 	0.54783 0.95358 0.84072 -0.23100
O 	O 	0.64560 0.87524 0.96764 -0.22300
O 	O 	0.73990 0.93044 0.19660 -0.22500
O 	O 	0.06750 0.10103 0.34333 -0.38900
O 	O 	0.21630 0.11337 0.34195 -0.40200
O 	O 	0.53945 0.88927 0.57679 -0.39400
O 	O 	0.39491 0.86202 0.54419 -0.36700
O 	O 	0.60890 0.80858 0.70988 -0.35400
O 	O 	0.49280 0.75653 0.70200 -0.50000
H 	H 	0.50520 0.75220 0.65960 0.32500
O 	O 	0.95550 0.22291 0.91816 -0.27800
O 	O 	0.95890 0.29011 0.98005 -0.45200
O 	O 	0.59917 0.86508 0.41237 -0.43000
O 	O 	0.72870 0.84933 0.49732 -0.48200
O 	O 	0.72880 0.27102 0.88490 -0.33500
O 	O 	0.59500 0.30024 0.90858 -0.42600
N 	N 	0.42760 0.91090 0.40527 -0.21400
N 	N 	0.38480 0.82034 0.37980 -0.21700
N 	N 	0.83620 0.93349 0.50470 -0.21300
N 	N 	0.97610 0.87314 0.49840 -0.22300
Co	Co	0.63656 0.36534 0.94267 1.16300
Co	Co	0.01161 0.35080 0.03366 1.16500
Na	Na	0.83179 0.33305 0.89110 0.59400
C 	C 	0.76200 0.46418 0.42530 0.00500
C 	C 	0.72470 0.50889 0.43130 -0.00100
C 	C 	0.76520 0.53882 0.49090 0.01000
C 	C 	0.84620 0.52511 0.54180 0.00000
C 	C 	0.88680 0.48076 0.53330 -0.00200
C 	C 	0.84330 0.44996 0.47640 0.00700
C 	C 	0.71180 0.43032 0.36680 -0.00400
H 	H 	0.64640 0.43990 0.35040 0.04700
H 	H 	0.71260 0.39900 0.38830 0.04600
C 	C 	0.64110 0.52576 0.37390 0.00600
H 	H 	0.64030 0.51060 0.32520 0.04000
H 	H 	0.64470 0.55950 0.36710 0.04700
C 	C 	0.71570 0.58538 0.49870 0.00100
H 	H 	0.73730 0.59870 0.54890 0.04600
H 	H 	0.64770 0.58090 0.49120 0.04400
C 	C 	0.88990 0.55706 0.60630 0.00800
H 	H 	0.95010 0.54440 0.63210 0.04200
H 	H 	0.84830 0.56000 0.64300 0.03900
C 	C 	0.97520 0.46607 0.58730 0.01000
H 	H 	0.02050 0.49170 0.59400 0.03600
H 	H 	0.00390 0.43940 0.56640 0.04500
C 	C 	0.88150 0.40100 0.47140 -0.00300
H 	H 	0.94990 0.40170 0.47670 0.04900
H 	H 	0.85480 0.38680 0.42290 0.05100
C 	C 	0.72780 0.39820 0.24720 0.20100
C 	C 	0.64930 0.37001 0.24560 -0.18600
H 	H 	0.61310 0.37240 0.28350 0.10700
C 	C 	0.62540 0.33818 0.18680 0.05600
H 	H 	0.57250 0.31920 0.18540 0.02300
C 	C 	0.67830 0.33390 0.12990 -0.08400
H 	H 	0.66180 0.31180 0.09140 0.04500
C 	C 	0.75590 0.36277 0.13080 -0.04700
C 	C 	0.78080 0.39498 0.19000 -0.12900
H 	H 	0.83320 0.41440 0.19110 0.09500
C 	C 	0.81240 0.35883 0.06890 0.36200
C 	C 	0.47440 0.53376 0.36640 0.24300
C 	C 	0.39990 0.52954 0.40410 -0.22900
H 	H 	0.40730 0.51340 0.45010 0.13400
C 	C 	0.31330 0.54970 0.37280 0.09800
H 	H 	0.26290 0.54770 0.39870 0.01500
C 	C 	0.30140 0.57244 0.30420 -0.13000
H 	H 	0.24320 0.58570 0.28360 0.08900
C 	C 	0.37500 0.57563 0.26600 0.03100
C 	C 	0.46200 0.55630 0.29750 -0.19600
H 	H 	0.51230 0.55860 0.27170 0.11300
C 	C 	0.36180 0.59879 0.18920 0.29500
C 	C 	0.69490 0.65858 0.43110 0.21100
C 	C 	0.70390 0.68204 0.36520 -0.19600
H 	H 	0.73690 0.66840 0.33060 0.11300
C 	C 	0.66380 0.72583 0.35110 0.06400
H 	H 	0.66880 0.74150 0.30640 0.01100
C 	C 	0.61640 0.74657 0.40260 -0.09400
H 	H 	0.58940 0.77620 0.39260 0.05300
C 	C 	0.60880 0.72368 0.46870 -0.00500
C 	C 	0.64590 0.67904 0.48320 -0.15800
H 	H 	0.63840 0.66300 0.52700 0.10200
C 	C 	0.92490 0.63987 0.62300 0.23300
C 	C 	0.88000 0.68176 0.59950 -0.18400
H 	H 	0.83160 0.68230 0.55700 0.11500
C 	C 	0.90680 0.72288 0.63900 0.02900
C 	C 	0.97570 0.72086 0.70320 -0.13000
H 	H 	0.99450 0.74820 0.73040 0.08100
C 	C 	0.01700 0.67870 0.72760 0.11000
H 	H 	0.06260 0.67770 0.77190 -0.00100
C 	C 	0.99210 0.63804 0.68800 -0.23900
H 	H 	0.02050 0.60960 0.70490 0.12600
C 	C 	0.85580 0.76847 0.61380 0.32500
C 	C 	0.96750 0.30046 0.68560 -0.00600
C 	C 	0.90620 0.33172 0.64290 -0.15600
H 	H 	0.85810 0.34560 0.66360 0.10900
C 	C 	0.91590 0.34258 0.56930 0.22800
C 	C 	0.98650 0.32119 0.53840 -0.21300
H 	H 	0.99220 0.32760 0.48840 0.12200
C 	C 	0.04790 0.29057 0.58110 0.08600
H 	H 	0.09510 0.27620 0.55990 0.00500
C 	C 	0.04050 0.28089 0.65500 -0.09800
H 	H 	0.08450 0.26120 0.68450 0.08500
C 	C 	0.95220 0.28936 0.76320 0.38100
C 	C 	0.06740 0.39930 0.83560 0.04400
C 	C 	0.99930 0.41871 0.77880 -0.19300
H 	H 	0.93680 0.42090 0.78560 0.11600
C 	C 	0.02400 0.43482 0.71210 0.24500
C 	C 	0.11740 0.43088 0.70140 -0.23200
H 	H 	0.13460 0.44170 0.65690 0.12700
C 	C 	0.18380 0.41064 0.75800 0.11300
H 	H 	0.24590 0.40750 0.75060 -0.00700
C 	C 	0.16050 0.39519 0.82430 -0.14200
H 	H 	0.20650 0.38200 0.86190 0.09600
C 	C 	0.04220 0.38276 0.90810 0.26300
C 	C 	0.56090 0.74743 0.52700 0.32900
C 	C 	0.13590 0.27507 0.13210 0.04500
H 	H 	0.10150 0.25280 0.10020 0.01100
C 	C 	0.20750 0.25967 0.19080 -0.06600
H 	H 	0.21950 0.22770 0.19770 0.06600
C 	C 	0.25860 0.29090 0.23700 -0.04400
H 	H 	0.30620 0.28060 0.27600 0.07200
C 	C 	0.24040 0.33957 0.22660 0.02300
C 	C 	0.16760 0.35211 0.16660 0.02100
C 	C 	0.14480 0.40080 0.15250 0.02800
C 	C 	0.19700 0.43555 0.19810 0.00400
C 	C 	0.27190 0.42120 0.25750 -0.05300
H 	H 	0.30710 0.44390 0.28770 0.05200
C 	C 	0.29260 0.37620 0.27060 -0.06300
H 	H 	0.34240 0.36810 0.30950 0.06100
C 	C 	0.17030 0.48254 0.18050 -0.02700
H 	H 	0.20300 0.50690 0.20860 0.04600
C 	C 	0.09790 0.49242 0.12350 -0.09400
H 	H 	0.07990 0.52340 0.11240 0.07300
C 	C 	0.04990 0.45568 0.08110 0.06300
H 	H 	0.00010 0.46290 0.04160 0.00300
C 	C 	0.73360 0.46259 0.99270 0.05700
H 	H 	0.77890 0.45440 0.96400 0.00700
C 	C 	0.74280 0.50580 0.03140 -0.07800
H 	H 	0.79350 0.52550 0.02830 0.06400
C 	C 	0.67780 0.51850 0.07330 -0.03600
H 	H 	0.68340 0.54710 0.09890 0.04900
C 	C 	0.60330 0.48893 0.07800 0.02000
C 	C 	0.59860 0.44614 0.03780 0.02400
C 	C 	0.52410 0.41337 0.04100 0.03000
C 	C 	0.45450 0.42480 0.08410 0.01000
C 	C 	0.46060 0.46830 0.12340 -0.04400
H 	H 	0.41480 0.47560 0.15220 0.05100
C 	C 	0.52860 0.49850 0.12060 -0.06300
H 	H 	0.52920 0.52680 0.14660 0.06400
C 	C 	0.45490 0.34310 0.00410 0.05300
H 	H 	0.45420 0.31510 0.97730 0.01600
C 	C 	0.38300 0.35140 0.04480 -0.07900
H 	H 	0.33530 0.32920 0.04490 0.06700
C 	C 	0.38330 0.39200 0.08410 -0.03400
H 	H 	0.33530 0.39800 0.11130 0.05000
O 	O 	0.55779 0.51391 0.40258 -0.23900
O 	O 	0.73970 0.61588 0.44111 -0.22300
O 	O 	0.90360 0.60192 0.57385 -0.23100
O 	O 	0.95217 0.45358 0.65928 -0.23300
O 	O 	0.85440 0.37524 0.53236 -0.22300
O 	O 	0.76010 0.43044 0.30340 -0.22500
O 	O 	0.43250 0.60103 0.15667 -0.38900
O 	O 	0.28370 0.61337 0.15805 -0.40200
O 	O 	0.96055 0.38927 0.92321 -0.39600
O 	O 	0.10509 0.36202 0.95581 -0.36600
O 	O 	0.89110 0.30858 0.79012 -0.35300
O 	O 	0.00720 0.25653 0.79800 -0.49400
H 	H 	0.99480 0.25220 0.84040 0.32100
O 	O 	0.54450 0.72291 0.58184 -0.27800
O 	O 	0.54110 0.79011 0.51995 -0.45100
O 	O 	0.90083 0.36508 0.08763 -0.42800
O 	O 	0.77130 0.34933 0.00268 -0.48100
O 	O 	0.77120 0.77102 0.61510 -0.33400
O 	O 	0.90500 0.80024 0.59142 -0.42500
N 	N 	0.07240 0.41090 0.09473 -0.21400
N 	N 	0.11520 0.32034 0.12020 -0.21800
N 	N 	0.66380 0.43349 0.99530 -0.21300
N 	N 	0.52390 0.37314 0.00160 -0.22300
