data_crystal

_cell_length_a 10.05100
_cell_length_b 17.77000
_cell_length_c 17.95340
_cell_angle_alpha 67.25000
_cell_angle_beta  74.92800
_cell_angle_gamma 81.56900

_symmetry_space_group_name_	'P 1'
_symmetry_space_group_name_H-M	'P 1'

loop_
_symmetry_equiv_pos_as_xyz
  x,y,z

loop_
_atom_site_label
_atom_site_type_symbol
_atom_site_fract_x
_atom_site_fract_y
_atom_site_fract_z
_atom_site_charge
Co	Co	0.70228 0.43109 0.48700 1.17500
C 	C 	0.94330 0.36698 0.48834 0.30600
C 	C 	0.08690 0.33172 0.49231 -0.10700
C 	C 	0.13320 0.26144 0.47590 0.05400
H 	H 	0.07430 0.23520 0.46270 0.03600
C 	C 	0.26770 0.22972 0.47920 -0.12500
C 	C 	0.35620 0.27110 0.49560 0.07300
H 	H 	0.44730 0.25140 0.49510 0.03100
C 	C 	0.31150 0.34150 0.51279 -0.14500
C 	C 	0.17460 0.37131 0.51218 0.05700
H 	H 	0.14230 0.41760 0.52510 0.02800
C 	C 	0.31610 0.15142 0.46310 0.35900
C 	C 	0.40790 0.38854 0.52785 0.40300
C 	C 	0.74650 0.49740 0.29110 0.10800
H 	H 	0.76550 0.55030 0.28230 -0.00100
C 	C 	0.70200 0.37350 0.34540 0.09900
H 	H 	0.68200 0.32200 0.38550 0.00900
C 	C 	0.75830 0.51360 0.14440 0.09200
C 	C 	0.79660 0.46820 0.09380 -0.07100
H 	H 	0.80720 0.41160 0.11670 0.07000
C 	C 	0.81860 0.50740 0.01030 -0.08600
H 	H 	0.84390 0.47680 0.97640 0.06800
C 	C 	0.80430 0.59120 0.97470 0.09500
C 	C 	0.76260 0.63580 0.02600 -0.08300
H 	H 	0.74860 0.69230 0.00330 0.07000
C 	C 	0.74180 0.59660 0.11090 -0.07500
H 	H 	0.71670 0.62680 0.14520 0.06800
C 	C 	0.90970 0.69940 0.84430 0.09300
C 	C 	0.90340 0.74740 0.76280 -0.06700
H 	H 	0.84090 0.73640 0.73860 0.07100
C 	C 	0.99000 0.81150 0.71770 -0.08400
H 	H 	0.98540 0.84340 0.66340 0.08400
C 	C 	0.08190 0.82790 0.75270 0.10800
C 	C 	0.08590 0.78280 0.83410 -0.07600
H 	H 	0.14570 0.79570 0.85870 0.07600
C 	C 	0.00070 0.71850 0.87880 -0.07700
H 	H 	0.00510 0.68750 0.93340 0.06400
C 	C 	0.25340 0.90400 0.62860 0.11700
H 	H 	0.24750 0.87600 0.59540 -0.00600
C 	C 	0.30740 0.98260 0.67500 0.20200
H 	H 	0.35260 0.02280 0.67830 -0.07500
C 	C 	0.79640 0.58740 0.84130 0.08800
C 	C 	0.89390 0.57110 0.77900 -0.07700
H 	H 	0.98320 0.58800 0.76590 0.07100
C 	C 	0.86050 0.53020 0.73590 -0.08100
H 	H 	0.92700 0.51940 0.69390 0.07100
C 	C 	0.72910 0.50540 0.75480 0.10000
C 	C 	0.63060 0.51940 0.81840 -0.07600
H 	H 	0.54180 0.50170 0.83190 0.07800
C 	C 	0.66580 0.55950 0.86140 -0.07400
H 	H 	0.60040 0.56820 0.90500 0.06600
C 	C 	0.75870 0.45964 0.63584 0.09700
H 	H 	0.84730 0.47670 0.60790 0.01200
C 	C 	0.56470 0.41020 0.67120 0.09400
H 	H 	0.49080 0.38470 0.67050 0.00700
N 	N 	0.72260 0.43716 0.36426 -0.23100
N 	N 	0.73920 0.47128 0.23212 -0.11200
N 	N 	0.71240 0.38974 0.26687 -0.09300
N 	N 	0.82910 0.63067 0.88665 -0.15100
N 	N 	0.17860 0.89019 0.70420 -0.11300
N 	N 	0.21220 0.94210 0.73500 -0.10100
N 	N 	0.33720 0.96249 0.60671 -0.25200
N 	N 	0.68050 0.42519 0.61040 -0.23100
N 	N 	0.69150 0.46622 0.70764 -0.11000
N 	N 	0.56510 0.43470 0.73122 -0.09200
O 	O 	0.84650 0.32115 0.50472 -0.35700
O 	O 	0.92080 0.44301 0.46885 -0.37300
O 	O 	0.23760 0.12202 0.43930 -0.30700
O 	O 	0.43140 0.12114 0.47670 -0.44400
O 	O 	0.36000 0.44917 0.54775 -0.46100
O 	O 	0.53280 0.36432 0.51821 -0.43200
Co	Co	0.29772 0.56891 0.51300 1.17400
C 	C 	0.05670 0.63302 0.51166 0.30100
C 	C 	0.91310 0.66828 0.50769 -0.09900
C 	C 	0.86680 0.73856 0.52410 0.04900
H 	H 	0.92570 0.76480 0.53730 0.04400
C 	C 	0.73230 0.77028 0.52080 -0.11300
C 	C 	0.64380 0.72890 0.50440 0.06800
H 	H 	0.55270 0.74860 0.50490 0.03600
C 	C 	0.68850 0.65850 0.48721 -0.13800
C 	C 	0.82540 0.62869 0.48782 0.05400
H 	H 	0.85770 0.58240 0.47490 0.03100
C 	C 	0.68390 0.84858 0.53690 0.35600
C 	C 	0.59210 0.61146 0.47215 0.40200
C 	C 	0.25350 0.50260 0.70890 0.10800
H 	H 	0.23450 0.44970 0.71770 -0.00400
C 	C 	0.29800 0.62650 0.65460 0.09900
H 	H 	0.31800 0.67800 0.61450 0.01100
C 	C 	0.24170 0.48640 0.85560 0.10100
C 	C 	0.20340 0.53180 0.90620 -0.08600
H 	H 	0.19280 0.58840 0.88330 0.07600
C 	C 	0.18140 0.49260 0.98970 -0.06300
H 	H 	0.15610 0.52320 0.02360 0.05900
C 	C 	0.19570 0.40880 0.02530 0.07700
C 	C 	0.23740 0.36420 0.97400 -0.06700
H 	H 	0.25140 0.30770 0.99670 0.05900
C 	C 	0.25820 0.40340 0.88910 -0.08900
H 	H 	0.28330 0.37320 0.85480 0.06800
C 	C 	0.09030 0.30060 0.15570 0.09000
C 	C 	0.09660 0.25260 0.23720 -0.07300
H 	H 	0.15910 0.26360 0.26140 0.06900
C 	C 	0.01000 0.18850 0.28230 -0.08300
H 	H 	0.01460 0.15660 0.33660 0.07300
C 	C 	0.91810 0.17210 0.24730 0.09800
C 	C 	0.91410 0.21720 0.16590 -0.07500
H 	H 	0.85430 0.20430 0.14130 0.06700
C 	C 	0.99930 0.28150 0.12120 -0.07900
H 	H 	0.99490 0.31250 0.06660 0.06200
C 	C 	0.74660 0.09600 0.37140 0.11200
H 	H 	0.75250 0.12400 0.40460 -0.01500
C 	C 	0.69260 0.01740 0.32500 0.00800
H 	H 	0.64740 0.97720 0.32170 0.06100
C 	C 	0.20360 0.41260 0.15870 0.08600
C 	C 	0.10610 0.42890 0.22100 -0.07500
H 	H 	0.01680 0.41200 0.23410 0.07000
C 	C 	0.13950 0.46980 0.26410 -0.08200
H 	H 	0.07300 0.48060 0.30610 0.07200
C 	C 	0.27090 0.49460 0.24520 0.10300
C 	C 	0.36940 0.48060 0.18160 -0.07800
H 	H 	0.45820 0.49830 0.16810 0.07900
C 	C 	0.33420 0.44050 0.13860 -0.07200
H 	H 	0.39960 0.43180 0.09500 0.06300
C 	C 	0.24130 0.54036 0.36416 0.09900
H 	H 	0.15270 0.52330 0.39210 0.01200
C 	C 	0.43530 0.58980 0.32880 0.09600
H 	H 	0.50920 0.61530 0.32950 0.01000
N 	N 	0.27740 0.56284 0.63574 -0.23100
N 	N 	0.26080 0.52872 0.76788 -0.11400
N 	N 	0.28760 0.61026 0.73313 -0.09200
N 	N 	0.17090 0.36933 0.11335 -0.14900
N 	N 	0.82140 0.10981 0.29580 -0.11500
N 	N 	0.78780 0.05790 0.26500 -0.08400
N 	N 	0.66280 0.03751 0.39329 -0.24600
N 	N 	0.31950 0.57481 0.38960 -0.23000
N 	N 	0.30850 0.53378 0.29236 -0.11000
N 	N 	0.43490 0.56530 0.26878 -0.09000
O 	O 	0.15350 0.67885 0.49528 -0.35000
O 	O 	0.07920 0.55699 0.53115 -0.37300
O 	O 	0.76240 0.87798 0.56070 -0.27900
O 	O 	0.56860 0.87886 0.52330 -0.41800
O 	O 	0.64000 0.55083 0.45225 -0.45900
O 	O 	0.46720 0.63568 0.48179 -0.42900
Co	Co	0.50000 0.00000 0.50000 1.10300
