data_crystal

_cell_length_a 28.64570
_cell_length_b 12.54400
_cell_length_c 21.60160
_cell_angle_alpha 90.00000
_cell_angle_beta  103.19500
_cell_angle_gamma 90.00000

_symmetry_space_group_name_	'P 1'
_symmetry_space_group_name_H-M	'P 1'

loop_
_symmetry_equiv_pos_as_xyz
  x,y,z

loop_
_atom_site_label
_atom_site_type_symbol
_atom_site_fract_x
_atom_site_fract_y
_atom_site_fract_z
_atom_site_charge
C 	C 	0.17737 0.44810 0.32255 0.10200
H 	H 	0.20450 0.42170 0.35050 -0.01600
C 	C 	0.12864 0.55580 0.26967 0.11000
H 	H 	0.11350 0.61760 0.25160 -0.00700
C 	C 	0.84515 0.87270 0.14047 0.09900
H 	H 	0.83260 0.91660 0.16730 -0.00500
C 	C 	0.86076 0.74260 0.08852 0.08800
H 	H 	0.86050 0.67380 0.07230 -0.01300
C 	C 	0.80284 0.66970 0.82590 0.10200
H 	H 	0.80020 0.69500 0.78480 0.00600
C 	C 	0.78788 0.64330 0.91382 0.10300
H 	H 	0.77360 0.64290 0.94840 -0.03600
C 	C 	0.06892 0.42300 0.21416 0.09500
C 	C 	0.03212 0.49350 0.19156 -0.07700
H 	H 	0.03480 0.56400 0.20520 0.06200
C 	C 	0.99151 0.46010 0.14887 -0.07800
H 	H 	0.96720 0.50860 0.13310 0.06500
C 	C 	0.98646 0.35380 0.12889 0.09400
C 	C 	0.02392 0.28410 0.15175 -0.08300
H 	H 	0.02130 0.21330 0.13860 0.06600
C 	C 	0.06522 0.31820 0.19393 -0.07200
H 	H 	0.09030 0.27080 0.20850 0.06800
C 	C 	0.89490 0.00780 0.10235 0.08300
C 	C 	0.90703 0.07080 0.15569 -0.07100
H 	H 	0.90420 0.04470 0.19500 0.06100
C 	C 	0.92350 0.17340 0.15044 -0.08800
H 	H 	0.93160 0.21660 0.18630 0.07100
C 	C 	0.92784 0.21160 0.09247 0.09600
C 	C 	0.91533 0.14800 0.03897 -0.09000
H 	H 	0.91840 0.17390 0.99980 0.06800
C 	C 	0.89834 0.04610 0.04368 -0.07000
H 	H 	0.88930 0.00360 0.00760 0.05900
C 	C 	0.91498 0.38720 0.04284 0.09300
C 	C 	0.86701 0.39600 0.04140 -0.08400
H 	H 	0.85400 0.35680 0.06990 0.06700
C 	C 	0.83770 0.46260 0.99813 -0.07700
H 	H 	0.80520 0.46790 0.99740 0.05200
C 	C 	0.85702 0.52040 0.95648 0.09400
C 	C 	0.90468 0.51300 0.95740 -0.07600
H 	H 	0.91750 0.55280 0.92890 0.07300
C 	C 	0.93374 0.44700 0.00020 -0.07900
H 	H 	0.96620 0.44230 0.00070 0.06200
C 	C 	0.22478 0.69870 0.22225 0.31000
C 	C 	0.23224 0.71320 0.15632 -0.09500
C 	C 	0.20353 0.78080 0.11428 0.02600
H 	H 	0.17880 0.81670 0.12670 0.03300
C 	C 	0.21074 0.79650 0.05360 -0.10500
H 	H 	0.19110 0.84380 0.02630 0.06200
C 	C 	0.24668 0.74300 0.03296 0.03700
C 	C 	0.27608 0.67730 0.07654 -0.10600
H 	H 	0.30150 0.64260 0.06490 0.06600
C 	C 	0.26868 0.66210 0.13678 0.03200
H 	H 	0.28880 0.61640 0.16470 0.03400
Co	Co	0.21807 0.68328 0.33777 1.10800
N 	N 	0.17036 0.55280 0.31125 -0.25600
N 	N 	0.11154 0.45772 0.25753 -0.11200
N 	N 	0.14329 0.38600 0.29150 -0.09600
N 	N 	0.83452 0.77090 0.12997 -0.26000
N 	N 	0.87632 0.90330 0.10716 -0.11400
N 	N 	0.88690 0.81970 0.07256 -0.09600
N 	N 	0.77212 0.69830 0.86134 -0.26100
N 	N 	0.83688 0.60380 0.85308 -0.08900
N 	N 	0.82701 0.58820 0.91089 -0.11500
N 	N 	0.94472 0.31760 0.08662 -0.15400
O 	O 	0.24990 0.63271 0.25978 -0.38600
O 	O 	0.19471 0.75593 0.24154 -0.37000
C 	C 	0.82263 0.44810 0.17745 0.10100
H 	H 	0.79550 0.42170 0.14950 -0.01700
C 	C 	0.87136 0.55580 0.23033 0.10900
H 	H 	0.88650 0.61760 0.24840 -0.00800
C 	C 	0.15485 0.87270 0.35953 0.09800
H 	H 	0.16740 0.91660 0.33270 -0.00700
C 	C 	0.13924 0.74260 0.41148 0.08700
H 	H 	0.13950 0.67380 0.42770 -0.01400
C 	C 	0.19716 0.66970 0.67410 0.10100
H 	H 	0.19980 0.69500 0.71520 0.00500
C 	C 	0.21212 0.64330 0.58618 0.10300
H 	H 	0.22640 0.64290 0.55160 -0.03600
C 	C 	0.93108 0.42300 0.28584 0.09500
C 	C 	0.96788 0.49350 0.30844 -0.07700
H 	H 	0.96520 0.56400 0.29480 0.06200
C 	C 	0.00849 0.46010 0.35113 -0.07800
H 	H 	0.03280 0.50860 0.36690 0.06500
C 	C 	0.01354 0.35380 0.37111 0.09400
C 	C 	0.97608 0.28410 0.34825 -0.08300
H 	H 	0.97870 0.21330 0.36140 0.06600
C 	C 	0.93478 0.31820 0.30607 -0.07200
H 	H 	0.90970 0.27080 0.29150 0.06800
C 	C 	0.10510 0.00780 0.39765 0.08400
C 	C 	0.09297 0.07080 0.34431 -0.07200
H 	H 	0.09580 0.04470 0.30500 0.06100
C 	C 	0.07650 0.17340 0.34956 -0.08700
H 	H 	0.06840 0.21660 0.31370 0.07100
C 	C 	0.07216 0.21160 0.40753 0.09600
C 	C 	0.08467 0.14800 0.46103 -0.08800
H 	H 	0.08160 0.17390 0.50020 0.06700
C 	C 	0.10166 0.04610 0.45632 -0.07100
H 	H 	0.11070 0.00360 0.49240 0.05900
C 	C 	0.08502 0.38720 0.45716 0.09300
C 	C 	0.13299 0.39600 0.45860 -0.08400
H 	H 	0.14600 0.35680 0.43010 0.06700
C 	C 	0.16230 0.46260 0.50187 -0.07700
H 	H 	0.19480 0.46790 0.50260 0.05300
C 	C 	0.14298 0.52040 0.54352 0.09400
C 	C 	0.09532 0.51300 0.54260 -0.07600
H 	H 	0.08250 0.55280 0.57110 0.07300
C 	C 	0.06626 0.44700 0.49980 -0.07900
H 	H 	0.03380 0.44230 0.49930 0.06200
C 	C 	0.77522 0.69870 0.27775 0.30900
C 	C 	0.76776 0.71320 0.34368 -0.09500
C 	C 	0.79647 0.78080 0.38572 0.02500
H 	H 	0.82120 0.81670 0.37330 0.03300
C 	C 	0.78926 0.79650 0.44640 -0.10500
H 	H 	0.80890 0.84380 0.47370 0.06100
C 	C 	0.75332 0.74300 0.46704 0.03600
C 	C 	0.72392 0.67730 0.42346 -0.10600
H 	H 	0.69850 0.64260 0.43510 0.06500
C 	C 	0.73132 0.66210 0.36322 0.03100
H 	H 	0.71120 0.61640 0.33530 0.03500
Co	Co	0.78193 0.68328 0.16223 1.10800
N 	N 	0.82964 0.55280 0.18875 -0.25600
N 	N 	0.88846 0.45772 0.24247 -0.11200
N 	N 	0.85671 0.38600 0.20850 -0.09600
N 	N 	0.16548 0.77090 0.37003 -0.26000
N 	N 	0.12368 0.90330 0.39284 -0.11400
N 	N 	0.11310 0.81970 0.42744 -0.09600
N 	N 	0.22788 0.69830 0.63866 -0.26100
N 	N 	0.16312 0.60380 0.64692 -0.08900
N 	N 	0.17299 0.58820 0.58911 -0.11500
N 	N 	0.05528 0.31760 0.41338 -0.15400
O 	O 	0.75010 0.63271 0.24022 -0.38500
O 	O 	0.80529 0.75593 0.25846 -0.37000
C 	C 	0.32263 0.05190 0.67745 0.10100
H 	H 	0.29550 0.07830 0.64950 -0.01700
C 	C 	0.37136 0.94420 0.73033 0.10900
H 	H 	0.38650 0.88240 0.74840 -0.00800
C 	C 	0.65485 0.62730 0.85953 0.09800
H 	H 	0.66740 0.58340 0.83270 -0.00700
C 	C 	0.63924 0.75740 0.91148 0.08700
H 	H 	0.63950 0.82620 0.92770 -0.01400
C 	C 	0.69716 0.83030 0.17410 0.10100
H 	H 	0.69980 0.80500 0.21520 0.00500
C 	C 	0.71212 0.85670 0.08618 0.10400
H 	H 	0.72640 0.85710 0.05160 -0.03600
C 	C 	0.43108 0.07700 0.78584 0.09500
C 	C 	0.46788 0.00650 0.80844 -0.07600
H 	H 	0.46520 0.93600 0.79480 0.06200
C 	C 	0.50849 0.03990 0.85113 -0.07700
H 	H 	0.53280 0.99140 0.86690 0.06400
C 	C 	0.51354 0.14620 0.87111 0.09300
C 	C 	0.47608 0.21590 0.84825 -0.08200
H 	H 	0.47870 0.28670 0.86140 0.06600
C 	C 	0.43478 0.18180 0.80607 -0.07200
H 	H 	0.40970 0.22920 0.79150 0.06800
C 	C 	0.60510 0.49220 0.89765 0.08500
C 	C 	0.59297 0.42920 0.84431 -0.07200
H 	H 	0.59580 0.45530 0.80500 0.06100
C 	C 	0.57650 0.32660 0.84956 -0.08700
H 	H 	0.56840 0.28340 0.81370 0.07100
C 	C 	0.57216 0.28840 0.90753 0.09500
C 	C 	0.58467 0.35200 0.96103 -0.08700
H 	H 	0.58160 0.32610 0.00020 0.06700
C 	C 	0.60166 0.45390 0.95632 -0.07200
H 	H 	0.61070 0.49640 0.99240 0.06000
C 	C 	0.58502 0.11280 0.95716 0.09100
C 	C 	0.63299 0.10400 0.95860 -0.08000
H 	H 	0.64600 0.14320 0.93010 0.06600
C 	C 	0.66230 0.03740 0.00187 -0.08100
H 	H 	0.69480 0.03210 0.00260 0.05400
C 	C 	0.64298 0.97960 0.04352 0.09700
C 	C 	0.59532 0.98700 0.04260 -0.07800
H 	H 	0.58250 0.94720 0.07110 0.07300
C 	C 	0.56626 0.05300 0.99980 -0.07700
H 	H 	0.53380 0.05770 0.99930 0.06100
C 	C 	0.27522 0.80130 0.77775 0.30900
C 	C 	0.26776 0.78680 0.84368 -0.09400
C 	C 	0.29647 0.71920 0.88572 0.02500
H 	H 	0.32120 0.68330 0.87330 0.03300
C 	C 	0.28926 0.70350 0.94640 -0.10400
H 	H 	0.30890 0.65620 0.97370 0.06100
C 	C 	0.25332 0.75700 0.96704 0.03500
C 	C 	0.22392 0.82270 0.92346 -0.10500
H 	H 	0.19850 0.85740 0.93510 0.06500
C 	C 	0.23132 0.83790 0.86322 0.03100
H 	H 	0.21120 0.88360 0.83530 0.03500
Co	Co	0.28193 0.81672 0.66223 1.10800
N 	N 	0.32964 0.94720 0.68875 -0.25600
N 	N 	0.38846 0.04228 0.74247 -0.11200
N 	N 	0.35671 0.11400 0.70850 -0.09600
N 	N 	0.66548 0.72910 0.87003 -0.26000
N 	N 	0.62368 0.59670 0.89284 -0.11400
N 	N 	0.61310 0.68030 0.92744 -0.09600
N 	N 	0.72788 0.80170 0.13866 -0.26100
N 	N 	0.66312 0.89620 0.14692 -0.08900
N 	N 	0.67299 0.91180 0.08911 -0.11500
N 	N 	0.55528 0.18240 0.91338 -0.15300
O 	O 	0.25010 0.86729 0.74022 -0.38600
O 	O 	0.30529 0.74407 0.75846 -0.37000
C 	C 	0.67737 0.05190 0.82255 0.10100
H 	H 	0.70450 0.07830 0.85050 -0.01700
C 	C 	0.62864 0.94420 0.76967 0.10800
H 	H 	0.61350 0.88240 0.75160 -0.00800
C 	C 	0.34515 0.62730 0.64047 0.09800
H 	H 	0.33260 0.58340 0.66730 -0.00700
C 	C 	0.36076 0.75740 0.58852 0.08700
H 	H 	0.36050 0.82620 0.57230 -0.01400
C 	C 	0.30284 0.83030 0.32590 0.10100
H 	H 	0.30020 0.80500 0.28480 0.00500
C 	C 	0.28788 0.85670 0.41382 0.10300
H 	H 	0.27360 0.85710 0.44840 -0.03600
C 	C 	0.56892 0.07700 0.71416 0.09500
C 	C 	0.53212 0.00650 0.69156 -0.07600
H 	H 	0.53480 0.93600 0.70520 0.06200
C 	C 	0.49151 0.03990 0.64887 -0.07800
H 	H 	0.46720 0.99140 0.63310 0.06500
C 	C 	0.48646 0.14620 0.62889 0.09400
C 	C 	0.52392 0.21590 0.65175 -0.08300
H 	H 	0.52130 0.28670 0.63860 0.06600
C 	C 	0.56522 0.18180 0.69393 -0.07200
H 	H 	0.59030 0.22920 0.70850 0.06800
C 	C 	0.39490 0.49220 0.60235 0.08400
C 	C 	0.40703 0.42920 0.65569 -0.07200
H 	H 	0.40420 0.45530 0.69500 0.06100
C 	C 	0.42350 0.32660 0.65044 -0.08700
H 	H 	0.43160 0.28340 0.68630 0.07100
C 	C 	0.42784 0.28840 0.59247 0.09600
C 	C 	0.41533 0.35200 0.53897 -0.08800
H 	H 	0.41840 0.32610 0.49980 0.06700
C 	C 	0.39834 0.45390 0.54368 -0.07100
H 	H 	0.38930 0.49640 0.50760 0.05900
C 	C 	0.41498 0.11280 0.54284 0.09300
C 	C 	0.36701 0.10400 0.54140 -0.08400
H 	H 	0.35400 0.14320 0.56990 0.06700
C 	C 	0.33770 0.03740 0.49813 -0.07700
H 	H 	0.30520 0.03210 0.49740 0.05300
C 	C 	0.35702 0.97960 0.45648 0.09400
C 	C 	0.40468 0.98700 0.45740 -0.07600
H 	H 	0.41750 0.94720 0.42890 0.07300
C 	C 	0.43374 0.05300 0.50020 -0.07900
H 	H 	0.46620 0.05770 0.50070 0.06200
C 	C 	0.72478 0.80130 0.72225 0.31000
C 	C 	0.73224 0.78680 0.65632 -0.09500
C 	C 	0.70353 0.71920 0.61428 0.02500
H 	H 	0.67880 0.68330 0.62670 0.03300
C 	C 	0.71074 0.70350 0.55360 -0.10500
H 	H 	0.69110 0.65620 0.52630 0.06100
C 	C 	0.74668 0.75700 0.53296 0.03600
C 	C 	0.77608 0.82270 0.57654 -0.10600
H 	H 	0.80150 0.85740 0.56490 0.06500
C 	C 	0.76868 0.83790 0.63678 0.03100
H 	H 	0.78880 0.88360 0.66470 0.03400
Co	Co	0.71807 0.81672 0.83777 1.10800
N 	N 	0.67036 0.94720 0.81125 -0.25600
N 	N 	0.61154 0.04228 0.75753 -0.11200
N 	N 	0.64329 0.11400 0.79150 -0.09600
N 	N 	0.33452 0.72910 0.62997 -0.26000
N 	N 	0.37632 0.59670 0.60716 -0.11400
N 	N 	0.38690 0.68030 0.57256 -0.09600
N 	N 	0.27212 0.80170 0.36134 -0.26100
N 	N 	0.33688 0.89620 0.35308 -0.08900
N 	N 	0.32701 0.91180 0.41089 -0.11500
N 	N 	0.44472 0.18240 0.58662 -0.15400
O 	O 	0.74990 0.86729 0.75978 -0.38600
O 	O 	0.69471 0.74407 0.74154 -0.37000
C 	C 	0.67737 0.94810 0.32255 0.10100
H 	H 	0.70450 0.92170 0.35050 -0.01700
C 	C 	0.62864 0.05580 0.26967 0.10900
H 	H 	0.61350 0.11760 0.25160 -0.00800
C 	C 	0.34515 0.37270 0.14047 0.09800
H 	H 	0.33260 0.41660 0.16730 -0.00700
C 	C 	0.36076 0.24260 0.08852 0.08700
H 	H 	0.36050 0.17380 0.07230 -0.01400
C 	C 	0.30284 0.16970 0.82590 0.10100
H 	H 	0.30020 0.19500 0.78480 0.00500
C 	C 	0.28788 0.14330 0.91382 0.10400
H 	H 	0.27360 0.14290 0.94840 -0.03600
C 	C 	0.56892 0.92300 0.21416 0.09500
C 	C 	0.53212 0.99350 0.19156 -0.07600
H 	H 	0.53480 0.06400 0.20520 0.06200
C 	C 	0.49151 0.96010 0.14887 -0.07700
H 	H 	0.46720 0.00860 0.13310 0.06400
C 	C 	0.48646 0.85380 0.12889 0.09300
C 	C 	0.52392 0.78410 0.15175 -0.08200
H 	H 	0.52130 0.71330 0.13860 0.06600
C 	C 	0.56522 0.81820 0.19393 -0.07200
H 	H 	0.59030 0.77080 0.20850 0.06800
C 	C 	0.39490 0.50780 0.10235 0.08500
C 	C 	0.40703 0.57080 0.15569 -0.07200
H 	H 	0.40420 0.54470 0.19500 0.06100
C 	C 	0.42350 0.67340 0.15044 -0.08700
H 	H 	0.43160 0.71660 0.18630 0.07100
C 	C 	0.42784 0.71160 0.09247 0.09500
C 	C 	0.41533 0.64800 0.03897 -0.08700
H 	H 	0.41840 0.67390 0.99980 0.06700
C 	C 	0.39834 0.54610 0.04368 -0.07200
H 	H 	0.38930 0.50360 0.00760 0.06000
C 	C 	0.41498 0.88720 0.04284 0.09100
C 	C 	0.36701 0.89600 0.04140 -0.08000
H 	H 	0.35400 0.85680 0.06990 0.06600
C 	C 	0.33770 0.96260 0.99813 -0.08100
H 	H 	0.30520 0.96790 0.99740 0.05400
C 	C 	0.35702 0.02040 0.95648 0.09700
C 	C 	0.40468 0.01300 0.95740 -0.07800
H 	H 	0.41750 0.05280 0.92890 0.07300
C 	C 	0.43374 0.94700 0.00020 -0.07700
H 	H 	0.46620 0.94230 0.00070 0.06100
C 	C 	0.72478 0.19870 0.22225 0.30900
C 	C 	0.73224 0.21320 0.15632 -0.09400
C 	C 	0.70353 0.28080 0.11428 0.02500
H 	H 	0.67880 0.31670 0.12670 0.03300
C 	C 	0.71074 0.29650 0.05360 -0.10400
H 	H 	0.69110 0.34380 0.02630 0.06100
C 	C 	0.74668 0.24300 0.03296 0.03500
C 	C 	0.77608 0.17730 0.07654 -0.10500
H 	H 	0.80150 0.14260 0.06490 0.06500
C 	C 	0.76868 0.16210 0.13678 0.03100
H 	H 	0.78880 0.11640 0.16470 0.03500
Co	Co	0.71807 0.18328 0.33777 1.10800
N 	N 	0.67036 0.05280 0.31125 -0.25600
N 	N 	0.61154 0.95772 0.25753 -0.11200
N 	N 	0.64329 0.88600 0.29150 -0.09600
N 	N 	0.33452 0.27090 0.12997 -0.26000
N 	N 	0.37632 0.40330 0.10716 -0.11400
N 	N 	0.38690 0.31970 0.07256 -0.09600
N 	N 	0.27212 0.19830 0.86134 -0.26100
N 	N 	0.33688 0.10380 0.85308 -0.08900
N 	N 	0.32701 0.08820 0.91089 -0.11500
N 	N 	0.44472 0.81760 0.08662 -0.15300
O 	O 	0.74990 0.13271 0.25978 -0.38600
O 	O 	0.69471 0.25593 0.24154 -0.37000
C 	C 	0.32263 0.94810 0.17745 0.10100
H 	H 	0.29550 0.92170 0.14950 -0.01700
C 	C 	0.37136 0.05580 0.23033 0.10800
H 	H 	0.38650 0.11760 0.24840 -0.00800
C 	C 	0.65485 0.37270 0.35953 0.09800
H 	H 	0.66740 0.41660 0.33270 -0.00700
C 	C 	0.63924 0.24260 0.41148 0.08700
H 	H 	0.63950 0.17380 0.42770 -0.01400
C 	C 	0.69716 0.16970 0.67410 0.10100
H 	H 	0.69980 0.19500 0.71520 0.00500
C 	C 	0.71212 0.14330 0.58618 0.10300
H 	H 	0.72640 0.14290 0.55160 -0.03600
C 	C 	0.43108 0.92300 0.28584 0.09500
C 	C 	0.46788 0.99350 0.30844 -0.07600
H 	H 	0.46520 0.06400 0.29480 0.06200
C 	C 	0.50849 0.96010 0.35113 -0.07800
H 	H 	0.53280 0.00860 0.36690 0.06500
C 	C 	0.51354 0.85380 0.37111 0.09400
C 	C 	0.47608 0.78410 0.34825 -0.08300
H 	H 	0.47870 0.71330 0.36140 0.06600
C 	C 	0.43478 0.81820 0.30607 -0.07200
H 	H 	0.40970 0.77080 0.29150 0.06800
C 	C 	0.60510 0.50780 0.39765 0.08400
C 	C 	0.59297 0.57080 0.34431 -0.07200
H 	H 	0.59580 0.54470 0.30500 0.06100
C 	C 	0.57650 0.67340 0.34956 -0.08700
H 	H 	0.56840 0.71660 0.31370 0.07100
C 	C 	0.57216 0.71160 0.40753 0.09600
C 	C 	0.58467 0.64800 0.46103 -0.08800
H 	H 	0.58160 0.67390 0.50020 0.06700
C 	C 	0.60166 0.54610 0.45632 -0.07100
H 	H 	0.61070 0.50360 0.49240 0.05900
C 	C 	0.58502 0.88720 0.45716 0.09300
C 	C 	0.63299 0.89600 0.45860 -0.08400
H 	H 	0.64600 0.85680 0.43010 0.06700
C 	C 	0.66230 0.96260 0.50187 -0.07700
H 	H 	0.69480 0.96790 0.50260 0.05300
C 	C 	0.64298 0.02040 0.54352 0.09400
C 	C 	0.59532 0.01300 0.54260 -0.07600
H 	H 	0.58250 0.05280 0.57110 0.07300
C 	C 	0.56626 0.94700 0.49980 -0.07900
H 	H 	0.53380 0.94230 0.49930 0.06200
C 	C 	0.27522 0.19870 0.27775 0.31000
C 	C 	0.26776 0.21320 0.34368 -0.09500
C 	C 	0.29647 0.28080 0.38572 0.02500
H 	H 	0.32120 0.31670 0.37330 0.03300
C 	C 	0.28926 0.29650 0.44640 -0.10500
H 	H 	0.30890 0.34380 0.47370 0.06100
C 	C 	0.25332 0.24300 0.46704 0.03600
C 	C 	0.22392 0.17730 0.42346 -0.10600
H 	H 	0.19850 0.14260 0.43510 0.06500
C 	C 	0.23132 0.16210 0.36322 0.03100
H 	H 	0.21120 0.11640 0.33530 0.03400
Co	Co	0.28193 0.18328 0.16223 1.10800
N 	N 	0.32964 0.05280 0.18875 -0.25600
N 	N 	0.38846 0.95772 0.24247 -0.11200
N 	N 	0.35671 0.88600 0.20850 -0.09600
N 	N 	0.66548 0.27090 0.37003 -0.26000
N 	N 	0.62368 0.40330 0.39284 -0.11400
N 	N 	0.61310 0.31970 0.42744 -0.09600
N 	N 	0.72788 0.19830 0.63866 -0.26100
N 	N 	0.66312 0.10380 0.64692 -0.08900
N 	N 	0.67299 0.08820 0.58911 -0.11500
N 	N 	0.55528 0.81760 0.41338 -0.15400
O 	O 	0.25010 0.13271 0.24022 -0.38600
O 	O 	0.30529 0.25593 0.25846 -0.37000
C 	C 	0.82263 0.55190 0.67745 0.10100
H 	H 	0.79550 0.57830 0.64950 -0.01700
C 	C 	0.87136 0.44420 0.73033 0.10900
H 	H 	0.88650 0.38240 0.74840 -0.00800
C 	C 	0.15485 0.12730 0.85953 0.09800
H 	H 	0.16740 0.08340 0.83270 -0.00600
C 	C 	0.13924 0.25740 0.91148 0.08700
H 	H 	0.13950 0.32620 0.92770 -0.01400
C 	C 	0.19716 0.33030 0.17410 0.10100
H 	H 	0.19980 0.30500 0.21520 0.00500
C 	C 	0.21212 0.35670 0.08618 0.10300
H 	H 	0.22640 0.35710 0.05160 -0.03600
C 	C 	0.93108 0.57700 0.78584 0.09500
C 	C 	0.96788 0.50650 0.80844 -0.07700
H 	H 	0.96520 0.43600 0.79480 0.06200
C 	C 	0.00849 0.53990 0.85113 -0.07800
H 	H 	0.03280 0.49140 0.86690 0.06500
C 	C 	0.01354 0.64620 0.87111 0.09400
C 	C 	0.97608 0.71590 0.84825 -0.08300
H 	H 	0.97870 0.78670 0.86140 0.06600
C 	C 	0.93478 0.68180 0.80607 -0.07200
H 	H 	0.90970 0.72920 0.79150 0.06800
C 	C 	0.10510 0.99220 0.89765 0.08300
C 	C 	0.09297 0.92920 0.84431 -0.07100
H 	H 	0.09580 0.95530 0.80500 0.06100
C 	C 	0.07650 0.82660 0.84956 -0.08800
H 	H 	0.06840 0.78340 0.81370 0.07100
C 	C 	0.07216 0.78840 0.90753 0.09600
C 	C 	0.08467 0.85200 0.96103 -0.09000
H 	H 	0.08160 0.82610 0.00020 0.06800
C 	C 	0.10166 0.95390 0.95632 -0.07000
H 	H 	0.11070 0.99640 0.99240 0.05900
C 	C 	0.08502 0.61280 0.95716 0.09300
C 	C 	0.13299 0.60400 0.95860 -0.08400
H 	H 	0.14600 0.64320 0.93010 0.06700
C 	C 	0.16230 0.53740 0.00187 -0.07700
H 	H 	0.19480 0.53210 0.00260 0.05200
C 	C 	0.14298 0.47960 0.04352 0.09400
C 	C 	0.09532 0.48700 0.04260 -0.07600
H 	H 	0.08250 0.44720 0.07110 0.07300
C 	C 	0.06626 0.55300 0.99980 -0.07900
H 	H 	0.03380 0.55770 0.99930 0.06200
C 	C 	0.77522 0.30130 0.77775 0.31000
C 	C 	0.76776 0.28680 0.84368 -0.09500
C 	C 	0.79647 0.21920 0.88572 0.02600
H 	H 	0.82120 0.18330 0.87330 0.03300
C 	C 	0.78926 0.20350 0.94640 -0.10500
H 	H 	0.80890 0.15620 0.97370 0.06200
C 	C 	0.75332 0.25700 0.96704 0.03700
C 	C 	0.72392 0.32270 0.92346 -0.10600
H 	H 	0.69850 0.35740 0.93510 0.06600
C 	C 	0.73132 0.33790 0.86322 0.03200
H 	H 	0.71120 0.38360 0.83530 0.03400
Co	Co	0.78193 0.31672 0.66223 1.10800
N 	N 	0.82964 0.44720 0.68875 -0.25600
N 	N 	0.88846 0.54228 0.74247 -0.11200
N 	N 	0.85671 0.61400 0.70850 -0.09600
N 	N 	0.16548 0.22910 0.87003 -0.26000
N 	N 	0.12368 0.09670 0.89284 -0.11400
N 	N 	0.11310 0.18030 0.92744 -0.09600
N 	N 	0.22788 0.30170 0.13866 -0.26100
N 	N 	0.16312 0.39620 0.14692 -0.08900
N 	N 	0.17299 0.41180 0.08911 -0.11500
N 	N 	0.05528 0.68240 0.91338 -0.15400
O 	O 	0.75010 0.36729 0.74022 -0.38600
O 	O 	0.80529 0.24407 0.75846 -0.37000
C 	C 	0.17737 0.55190 0.82255 0.10100
H 	H 	0.20450 0.57830 0.85050 -0.01700
C 	C 	0.12864 0.44420 0.76967 0.10900
H 	H 	0.11350 0.38240 0.75160 -0.00800
C 	C 	0.84515 0.12730 0.64047 0.09800
H 	H 	0.83260 0.08340 0.66730 -0.00700
C 	C 	0.86076 0.25740 0.58852 0.08700
H 	H 	0.86050 0.32620 0.57230 -0.01400
C 	C 	0.80284 0.33030 0.32590 0.10100
H 	H 	0.80020 0.30500 0.28480 0.00500
C 	C 	0.78788 0.35670 0.41382 0.10300
H 	H 	0.77360 0.35710 0.44840 -0.03600
C 	C 	0.06892 0.57700 0.71416 0.09500
C 	C 	0.03212 0.50650 0.69156 -0.07700
H 	H 	0.03480 0.43600 0.70520 0.06200
C 	C 	0.99151 0.53990 0.64887 -0.07800
H 	H 	0.96720 0.49140 0.63310 0.06500
C 	C 	0.98646 0.64620 0.62889 0.09400
C 	C 	0.02392 0.71590 0.65175 -0.08300
H 	H 	0.02130 0.78670 0.63860 0.06600
C 	C 	0.06522 0.68180 0.69393 -0.07200
H 	H 	0.09030 0.72920 0.70850 0.06800
C 	C 	0.89490 0.99220 0.60235 0.08400
C 	C 	0.90703 0.92920 0.65569 -0.07200
H 	H 	0.90420 0.95530 0.69500 0.06100
C 	C 	0.92350 0.82660 0.65044 -0.08700
H 	H 	0.93160 0.78340 0.68630 0.07100
C 	C 	0.92784 0.78840 0.59247 0.09600
C 	C 	0.91533 0.85200 0.53897 -0.08800
H 	H 	0.91840 0.82610 0.49980 0.06700
C 	C 	0.89834 0.95390 0.54368 -0.07100
H 	H 	0.88930 0.99640 0.50760 0.05900
C 	C 	0.91498 0.61280 0.54284 0.09300
C 	C 	0.86701 0.60400 0.54140 -0.08400
H 	H 	0.85400 0.64320 0.56990 0.06700
C 	C 	0.83770 0.53740 0.49813 -0.07700
H 	H 	0.80520 0.53210 0.49740 0.05300
C 	C 	0.85702 0.47960 0.45648 0.09400
C 	C 	0.90468 0.48700 0.45740 -0.07600
H 	H 	0.91750 0.44720 0.42890 0.07300
C 	C 	0.93374 0.55300 0.50020 -0.07900
H 	H 	0.96620 0.55770 0.50070 0.06200
C 	C 	0.22478 0.30130 0.72225 0.30900
C 	C 	0.23224 0.28680 0.65632 -0.09500
C 	C 	0.20353 0.21920 0.61428 0.02500
H 	H 	0.17880 0.18330 0.62670 0.03300
C 	C 	0.21074 0.20350 0.55360 -0.10500
H 	H 	0.19110 0.15620 0.52630 0.06100
C 	C 	0.24668 0.25700 0.53296 0.03600
C 	C 	0.27608 0.32270 0.57654 -0.10600
H 	H 	0.30150 0.35740 0.56490 0.06500
C 	C 	0.26868 0.33790 0.63678 0.03100
H 	H 	0.28880 0.38360 0.66470 0.03500
Co	Co	0.21807 0.31672 0.83777 1.10800
N 	N 	0.17036 0.44720 0.81125 -0.25600
N 	N 	0.11154 0.54228 0.75753 -0.11200
N 	N 	0.14329 0.61400 0.79150 -0.09600
N 	N 	0.83452 0.22910 0.62997 -0.26000
N 	N 	0.87632 0.09670 0.60716 -0.11400
N 	N 	0.88690 0.18030 0.57256 -0.09600
N 	N 	0.77212 0.30170 0.36134 -0.26100
N 	N 	0.83688 0.39620 0.35308 -0.08900
N 	N 	0.82701 0.41180 0.41089 -0.11500
N 	N 	0.94472 0.68240 0.58662 -0.15400
O 	O 	0.24990 0.36729 0.75978 -0.38500
O 	O 	0.19471 0.24407 0.74154 -0.37000
