data_crystal

_cell_length_a 15.08400
_cell_length_b 27.43000
_cell_length_c 15.79900
_cell_angle_alpha 90.00000
_cell_angle_beta  95.44700
_cell_angle_gamma 90.00000

_symmetry_space_group_name_	'P 1'
_symmetry_space_group_name_H-M	'P 1'

loop_
_symmetry_equiv_pos_as_xyz
  x,y,z

loop_
_atom_site_label
_atom_site_type_symbol
_atom_site_fract_x
_atom_site_fract_y
_atom_site_fract_z
_atom_site_charge
Zn	Zn	0.06349 0.50373 0.43543 1.21900
O 	O 	0.10400 0.44027 0.49420 -0.46900
O 	O 	0.00830 0.43500 0.59260 -0.46900
O 	O 	0.37420 0.03909 0.96250 -0.47500
O 	O 	0.47060 0.03619 0.86520 -0.46400
N 	N 	0.15970 0.50962 0.35540 -0.26800
C 	C 	0.07150 0.41920 0.55430 0.40900
C 	C 	0.11210 0.37153 0.58270 -0.15400
C 	C 	0.08020 0.34640 0.64960 0.07600
H 	H 	0.03210 0.35940 0.67720 0.01800
C 	C 	0.11820 0.30250 0.67640 -0.14800
H 	H 	0.09660 0.28570 0.72290 0.07700
C 	C 	0.18820 0.28260 0.63530 0.10500
C 	C 	0.21890 0.30840 0.56940 -0.15900
H 	H 	0.26750 0.29580 0.54200 0.07900
C 	C 	0.18110 0.35165 0.54240 0.08100
H 	H 	0.20250 0.36820 0.49560 0.01200
C 	C 	0.23180 0.23610 0.66270 -0.08500
H 	H 	0.28330 0.22690 0.63630 0.05800
C 	C 	0.20530 0.20700 0.71990 -0.07500
H 	H 	0.15020 0.21470 0.74130 0.05100
C 	C 	0.25190 0.16300 0.75530 0.09900
C 	C 	0.22490 0.14480 0.82980 -0.15000
H 	H 	0.17350 0.15780 0.85200 0.07800
C 	C 	0.27170 0.10806 0.87220 0.07600
H 	H 	0.25300 0.09640 0.92430 0.02000
C 	C 	0.34620 0.08744 0.84060 -0.14800
C 	C 	0.37030 0.10342 0.76290 0.07400
H 	H 	0.41890 0.08850 0.73880 0.02600
C 	C 	0.32400 0.14100 0.72010 -0.14300
H 	H 	0.34100 0.15190 0.66700 0.08100
C 	C 	0.40090 0.05120 0.89330 0.41600
C 	C 	0.23560 0.48570 0.37600 0.10900
H 	H 	0.24210 0.46770 0.42770 -0.01000
C 	C 	0.30510 0.48590 0.32520 -0.19000
H 	H 	0.35920 0.46960 0.34290 0.10100
C 	C 	0.29480 0.51030 0.24780 0.16300
C 	C 	0.21360 0.52985 0.22410 -0.20300
H 	H 	0.20180 0.54450 0.16970 0.10800
C 	C 	0.14860 0.52826 0.27900 0.13500
H 	H 	0.09200 0.54150 0.26040 -0.01200
C 	C 	0.36800 0.50720 0.19170 -0.15300
H 	H 	0.42690 0.50420 0.21850 0.08000
C 	C 	0.35910 0.50828 0.11130 0.01500
H 	H 	0.30050 0.51230 0.08450 0.03400
C 	C 	0.43190 0.50380 0.05540 -0.03200
C 	C 	0.44720 0.54211 0.00040 0.01400
C 	C 	0.51570 0.53810 0.94340 0.01300
C 	C 	0.52890 0.57890 0.88990 -0.07000
H 	H 	0.57550 0.57780 0.85360 0.05600
C 	C 	0.47730 0.61890 0.88940 -0.02900
H 	H 	0.48640 0.64480 0.85130 0.03400
C 	C 	0.40910 0.62270 0.94550 -0.03100
H 	H 	0.37290 0.65110 0.94470 0.03900
C 	C 	0.39610 0.58600 0.99960 -0.06600
H 	H 	0.35190 0.58940 0.03830 0.05600
Zn	Zn	0.43651 0.00373 0.06457 1.21700
O 	O 	0.39600 0.94027 0.00580 -0.46600
O 	O 	0.49170 0.93500 0.90740 -0.46900
O 	O 	0.12580 0.53909 0.53750 -0.47700
O 	O 	0.02940 0.53619 0.63480 -0.46700
N 	N 	0.34030 0.00962 0.14460 -0.27000
C 	C 	0.42850 0.91920 0.94570 0.40200
C 	C 	0.38790 0.87153 0.91730 -0.15000
C 	C 	0.41980 0.84640 0.85040 0.07100
H 	H 	0.46790 0.85940 0.82280 0.02000
C 	C 	0.38180 0.80250 0.82360 -0.14400
H 	H 	0.40340 0.78570 0.77710 0.07600
C 	C 	0.31180 0.78260 0.86470 0.10000
C 	C 	0.28110 0.80840 0.93060 -0.15200
H 	H 	0.23250 0.79580 0.95800 0.07600
C 	C 	0.31890 0.85165 0.95760 0.07100
H 	H 	0.29750 0.86820 0.00440 0.01700
C 	C 	0.26820 0.73610 0.83730 -0.08300
H 	H 	0.21670 0.72690 0.86370 0.05600
C 	C 	0.29470 0.70700 0.78010 -0.07700
H 	H 	0.34980 0.71470 0.75870 0.05200
C 	C 	0.24810 0.66300 0.74470 0.10000
C 	C 	0.27510 0.64480 0.67020 -0.15200
H 	H 	0.32650 0.65780 0.64800 0.07900
C 	C 	0.22830 0.60806 0.62780 0.07700
H 	H 	0.24700 0.59640 0.57570 0.02000
C 	C 	0.15380 0.58744 0.65940 -0.14900
C 	C 	0.12970 0.60342 0.73710 0.07400
H 	H 	0.08110 0.58850 0.76120 0.02500
C 	C 	0.17600 0.64100 0.77990 -0.14400
H 	H 	0.15900 0.65190 0.83300 0.08200
C 	C 	0.09910 0.55120 0.60670 0.41600
C 	C 	0.26440 0.98570 0.12400 0.11100
H 	H 	0.25790 0.96770 0.07230 -0.00900
C 	C 	0.19490 0.98590 0.17480 -0.18800
H 	H 	0.14080 0.96960 0.15710 0.10100
C 	C 	0.20520 0.01030 0.25220 0.16100
C 	C 	0.28640 0.02985 0.27590 -0.20200
H 	H 	0.29820 0.04450 0.33030 0.10800
C 	C 	0.35140 0.02826 0.22100 0.13400
H 	H 	0.40800 0.04150 0.23960 -0.01200
C 	C 	0.13200 0.00720 0.30830 -0.15200
H 	H 	0.07310 0.00420 0.28150 0.08000
C 	C 	0.14090 0.00828 0.38870 0.01400
H 	H 	0.19950 0.01230 0.41550 0.03400
C 	C 	0.06810 0.00380 0.44460 -0.03100
C 	C 	0.05280 0.04211 0.49960 0.01200
C 	C 	0.98430 0.03810 0.55660 0.01400
C 	C 	0.97110 0.07890 0.61010 -0.07100
H 	H 	0.92450 0.07780 0.64640 0.05600
C 	C 	0.02270 0.11890 0.61060 -0.02800
H 	H 	0.01360 0.14480 0.64870 0.03300
C 	C 	0.09090 0.12270 0.55450 -0.03300
H 	H 	0.12710 0.15110 0.55530 0.04000
C 	C 	0.10390 0.08600 0.50040 -0.06200
H 	H 	0.14810 0.08940 0.46170 0.05400
Zn	Zn	0.93651 0.49627 0.56457 1.21800
O 	O 	0.89600 0.55973 0.50580 -0.47000
O 	O 	0.99170 0.56500 0.40740 -0.47000
O 	O 	0.62580 0.96091 0.03750 -0.47600
O 	O 	0.52940 0.96381 0.13480 -0.46500
N 	N 	0.84030 0.49038 0.64460 -0.26900
C 	C 	0.92850 0.58080 0.44570 0.40800
C 	C 	0.88790 0.62847 0.41730 -0.15500
C 	C 	0.91980 0.65360 0.35040 0.07600
H 	H 	0.96790 0.64060 0.32280 0.01800
C 	C 	0.88180 0.69750 0.32360 -0.14800
H 	H 	0.90340 0.71430 0.27710 0.07700
C 	C 	0.81180 0.71740 0.36470 0.10500
C 	C 	0.78110 0.69160 0.43060 -0.15900
H 	H 	0.73250 0.70420 0.45800 0.07900
C 	C 	0.81890 0.64835 0.45760 0.08100
H 	H 	0.79750 0.63180 0.50440 0.01200
C 	C 	0.76820 0.76390 0.33730 -0.08500
H 	H 	0.71670 0.77310 0.36370 0.05800
C 	C 	0.79470 0.79300 0.28010 -0.07500
H 	H 	0.84980 0.78530 0.25870 0.05100
C 	C 	0.74810 0.83700 0.24470 0.09900
C 	C 	0.77510 0.85520 0.17020 -0.15000
H 	H 	0.82650 0.84220 0.14800 0.07800
C 	C 	0.72830 0.89194 0.12780 0.07600
H 	H 	0.74700 0.90360 0.07570 0.02000
C 	C 	0.65380 0.91256 0.15940 -0.14800
C 	C 	0.62970 0.89658 0.23710 0.07400
H 	H 	0.58110 0.91150 0.26120 0.02600
C 	C 	0.67600 0.85900 0.27990 -0.14300
H 	H 	0.65900 0.84810 0.33300 0.08100
C 	C 	0.59910 0.94880 0.10670 0.41600
C 	C 	0.76440 0.51430 0.62400 0.10900
H 	H 	0.75790 0.53230 0.57230 -0.01000
C 	C 	0.69490 0.51410 0.67480 -0.19000
H 	H 	0.64080 0.53040 0.65710 0.10100
C 	C 	0.70520 0.48970 0.75220 0.16300
C 	C 	0.78640 0.47015 0.77590 -0.20300
H 	H 	0.79820 0.45550 0.83030 0.10800
C 	C 	0.85140 0.47174 0.72100 0.13500
H 	H 	0.90800 0.45850 0.73960 -0.01200
C 	C 	0.63200 0.49280 0.80830 -0.15300
H 	H 	0.57310 0.49580 0.78150 0.08000
C 	C 	0.64090 0.49172 0.88870 0.01500
H 	H 	0.69950 0.48770 0.91550 0.03400
C 	C 	0.56810 0.49620 0.94460 -0.03200
C 	C 	0.55280 0.45789 0.99960 0.01400
C 	C 	0.48430 0.46190 0.05660 0.01300
C 	C 	0.47110 0.42110 0.11010 -0.07000
H 	H 	0.42450 0.42220 0.14640 0.05600
C 	C 	0.52270 0.38110 0.11060 -0.02900
H 	H 	0.51360 0.35520 0.14870 0.03400
C 	C 	0.59090 0.37730 0.05450 -0.03100
H 	H 	0.62710 0.34890 0.05530 0.03900
C 	C 	0.60390 0.41400 0.00040 -0.06600
H 	H 	0.64810 0.41060 0.96170 0.05600
Zn	Zn	0.56349 0.99627 0.93543 1.21700
O 	O 	0.60400 0.05973 0.99420 -0.46600
O 	O 	0.50830 0.06500 0.09260 -0.46900
O 	O 	0.87420 0.46091 0.46250 -0.47700
O 	O 	0.97060 0.46381 0.36520 -0.46700
N 	N 	0.65970 0.99038 0.85540 -0.27000
C 	C 	0.57150 0.08080 0.05430 0.40200
C 	C 	0.61210 0.12847 0.08270 -0.15000
C 	C 	0.58020 0.15360 0.14960 0.07100
H 	H 	0.53210 0.14060 0.17720 0.02000
C 	C 	0.61820 0.19750 0.17640 -0.14400
H 	H 	0.59660 0.21430 0.22290 0.07600
C 	C 	0.68820 0.21740 0.13530 0.10000
C 	C 	0.71890 0.19160 0.06940 -0.15200
H 	H 	0.76750 0.20420 0.04200 0.07600
C 	C 	0.68110 0.14835 0.04240 0.07100
H 	H 	0.70250 0.13180 0.99560 0.01700
C 	C 	0.73180 0.26390 0.16270 -0.08300
H 	H 	0.78330 0.27310 0.13630 0.05600
C 	C 	0.70530 0.29300 0.21990 -0.07700
H 	H 	0.65020 0.28530 0.24130 0.05200
C 	C 	0.75190 0.33700 0.25530 0.10000
C 	C 	0.72490 0.35520 0.32980 -0.15200
H 	H 	0.67350 0.34220 0.35200 0.07900
C 	C 	0.77170 0.39194 0.37220 0.07700
H 	H 	0.75300 0.40360 0.42430 0.02000
C 	C 	0.84620 0.41256 0.34060 -0.14900
C 	C 	0.87030 0.39658 0.26290 0.07400
H 	H 	0.91890 0.41150 0.23880 0.02500
C 	C 	0.82400 0.35900 0.22010 -0.14400
H 	H 	0.84100 0.34810 0.16700 0.08200
C 	C 	0.90090 0.44880 0.39330 0.41600
C 	C 	0.73560 0.01430 0.87600 0.11100
H 	H 	0.74210 0.03230 0.92770 -0.00900
C 	C 	0.80510 0.01410 0.82520 -0.18800
H 	H 	0.85920 0.03040 0.84290 0.10100
C 	C 	0.79480 0.98970 0.74780 0.16100
C 	C 	0.71360 0.97015 0.72410 -0.20200
H 	H 	0.70180 0.95550 0.66970 0.10800
C 	C 	0.64860 0.97174 0.77900 0.13400
H 	H 	0.59200 0.95850 0.76040 -0.01200
C 	C 	0.86800 0.99280 0.69170 -0.15200
H 	H 	0.92690 0.99580 0.71850 0.08000
C 	C 	0.85910 0.99172 0.61130 0.01400
H 	H 	0.80050 0.98770 0.58450 0.03400
C 	C 	0.93190 0.99620 0.55540 -0.03100
C 	C 	0.94720 0.95789 0.50040 0.01200
C 	C 	0.01570 0.96190 0.44340 0.01400
C 	C 	0.02890 0.92110 0.38990 -0.07100
H 	H 	0.07550 0.92220 0.35360 0.05600
C 	C 	0.97730 0.88110 0.38940 -0.02800
H 	H 	0.98640 0.85520 0.35130 0.03300
C 	C 	0.90910 0.87730 0.44550 -0.03300
H 	H 	0.87290 0.84890 0.44470 0.04000
C 	C 	0.89610 0.91400 0.49960 -0.06200
H 	H 	0.85190 0.91060 0.53830 0.05400
Zn	Zn	0.56349 0.00373 0.43543 1.21800
O 	O 	0.60400 0.94027 0.49420 -0.47000
O 	O 	0.50830 0.93500 0.59260 -0.47000
O 	O 	0.87420 0.53909 0.96250 -0.47700
O 	O 	0.97060 0.53619 0.86520 -0.46600
N 	N 	0.65970 0.00962 0.35540 -0.26900
C 	C 	0.57150 0.91920 0.55430 0.40800
C 	C 	0.61210 0.87153 0.58270 -0.15500
C 	C 	0.58020 0.84640 0.64960 0.07600
H 	H 	0.53210 0.85940 0.67720 0.01900
C 	C 	0.61820 0.80250 0.67640 -0.14800
H 	H 	0.59660 0.78570 0.72290 0.07700
C 	C 	0.68820 0.78260 0.63530 0.10500
C 	C 	0.71890 0.80840 0.56940 -0.15900
H 	H 	0.76750 0.79580 0.54200 0.07900
C 	C 	0.68110 0.85165 0.54240 0.08100
H 	H 	0.70250 0.86820 0.49560 0.01200
C 	C 	0.73180 0.73610 0.66270 -0.08500
H 	H 	0.78330 0.72690 0.63630 0.05800
C 	C 	0.70530 0.70700 0.71990 -0.07500
H 	H 	0.65020 0.71470 0.74130 0.05100
C 	C 	0.75190 0.66300 0.75530 0.09900
C 	C 	0.72490 0.64480 0.82980 -0.15100
H 	H 	0.67350 0.65780 0.85200 0.07800
C 	C 	0.77170 0.60806 0.87220 0.07600
H 	H 	0.75300 0.59640 0.92430 0.02000
C 	C 	0.84620 0.58744 0.84060 -0.14800
C 	C 	0.87030 0.60342 0.76290 0.07400
H 	H 	0.91890 0.58850 0.73880 0.02600
C 	C 	0.82400 0.64100 0.72010 -0.14300
H 	H 	0.84100 0.65190 0.66700 0.08200
C 	C 	0.90090 0.55120 0.89330 0.41600
C 	C 	0.73560 0.98570 0.37600 0.10900
H 	H 	0.74210 0.96770 0.42770 -0.00900
C 	C 	0.80510 0.98590 0.32520 -0.18700
H 	H 	0.85920 0.96960 0.34290 0.10000
C 	C 	0.79480 0.01030 0.24780 0.16100
C 	C 	0.71360 0.02985 0.22410 -0.20200
H 	H 	0.70180 0.04450 0.16970 0.10700
C 	C 	0.64860 0.02826 0.27900 0.13400
H 	H 	0.59200 0.04150 0.26040 -0.01200
C 	C 	0.86800 0.00720 0.19170 -0.15200
H 	H 	0.92690 0.00420 0.21850 0.07900
C 	C 	0.85910 0.00828 0.11130 0.01400
H 	H 	0.80050 0.01230 0.08450 0.03300
C 	C 	0.93190 0.00380 0.05540 -0.03300
C 	C 	0.94720 0.04211 0.00040 -0.00300
C 	C 	0.01570 0.03810 0.94340 0.02500
C 	C 	0.02890 0.07890 0.88990 -0.08500
H 	H 	0.07550 0.07780 0.85360 0.06100
C 	C 	0.97730 0.11890 0.88940 -0.01100
H 	H 	0.98640 0.14480 0.85130 0.02900
C 	C 	0.90910 0.12270 0.94550 -0.05000
H 	H 	0.87290 0.15110 0.94470 0.04600
C 	C 	0.89610 0.08600 0.99960 -0.03800
H 	H 	0.85190 0.08940 0.03830 0.04400
Zn	Zn	0.93651 0.50373 0.06457 1.21800
O 	O 	0.89600 0.44027 0.00580 -0.47300
O 	O 	0.99170 0.43500 0.90740 -0.47000
O 	O 	0.62580 0.03909 0.53750 -0.47700
O 	O 	0.52940 0.03619 0.63480 -0.46600
N 	N 	0.84030 0.50962 0.14460 -0.26900
C 	C 	0.92850 0.41920 0.94570 0.41100
C 	C 	0.88790 0.37153 0.91730 -0.15900
C 	C 	0.91980 0.34640 0.85040 0.07900
H 	H 	0.96790 0.35940 0.82280 0.01800
C 	C 	0.88180 0.30250 0.82360 -0.15000
H 	H 	0.90340 0.28570 0.77710 0.07800
C 	C 	0.81180 0.28260 0.86470 0.10800
C 	C 	0.78110 0.30840 0.93060 -0.16300
H 	H 	0.73250 0.29580 0.95800 0.08200
C 	C 	0.81890 0.35165 0.95760 0.08800
H 	H 	0.79750 0.36820 0.00440 0.00800
C 	C 	0.76820 0.23610 0.83730 -0.08700
H 	H 	0.71670 0.22690 0.86370 0.05800
C 	C 	0.79470 0.20700 0.78010 -0.07400
H 	H 	0.84980 0.21470 0.75870 0.05100
C 	C 	0.74810 0.16300 0.74470 0.09900
C 	C 	0.77510 0.14480 0.67020 -0.15000
H 	H 	0.82650 0.15780 0.64800 0.07800
C 	C 	0.72830 0.10806 0.62780 0.07600
H 	H 	0.74700 0.09640 0.57570 0.02000
C 	C 	0.65380 0.08744 0.65940 -0.14800
C 	C 	0.62970 0.10342 0.73710 0.07400
H 	H 	0.58110 0.08850 0.76120 0.02600
C 	C 	0.67600 0.14100 0.77990 -0.14300
H 	H 	0.65900 0.15190 0.83300 0.08200
C 	C 	0.59910 0.05120 0.60670 0.41600
C 	C 	0.76440 0.48570 0.12400 0.10900
H 	H 	0.75790 0.46770 0.07230 -0.01000
C 	C 	0.69490 0.48590 0.17480 -0.19000
H 	H 	0.64080 0.46960 0.15710 0.10100
C 	C 	0.70520 0.51030 0.25220 0.16300
C 	C 	0.78640 0.52985 0.27590 -0.20300
H 	H 	0.79820 0.54450 0.33030 0.10800
C 	C 	0.85140 0.52826 0.22100 0.13500
H 	H 	0.90800 0.54150 0.23960 -0.01200
C 	C 	0.63200 0.50720 0.30830 -0.15300
H 	H 	0.57310 0.50420 0.28150 0.08000
C 	C 	0.64090 0.50828 0.38870 0.01500
H 	H 	0.69950 0.51230 0.41550 0.03400
C 	C 	0.56810 0.50380 0.44460 -0.03200
C 	C 	0.55280 0.54211 0.49960 0.01200
C 	C 	0.48430 0.53810 0.55660 0.01400
C 	C 	0.47110 0.57890 0.61010 -0.07200
H 	H 	0.42450 0.57780 0.64640 0.05600
C 	C 	0.52270 0.61890 0.61060 -0.02700
H 	H 	0.51360 0.64480 0.64870 0.03300
C 	C 	0.59090 0.62270 0.55450 -0.03400
H 	H 	0.62710 0.65110 0.55530 0.04000
C 	C 	0.60390 0.58600 0.50040 -0.06100
H 	H 	0.64810 0.58940 0.46170 0.05400
Zn	Zn	0.43651 0.99627 0.56457 1.21800
O 	O 	0.39600 0.05973 0.50580 -0.47000
O 	O 	0.49170 0.06500 0.40740 -0.47000
O 	O 	0.12580 0.46091 0.03750 -0.47700
O 	O 	0.02940 0.46381 0.13480 -0.46600
N 	N 	0.34030 0.99038 0.64460 -0.26900
C 	C 	0.42850 0.08080 0.44570 0.40800
C 	C 	0.38790 0.12847 0.41730 -0.15500
C 	C 	0.41980 0.15360 0.35040 0.07600
H 	H 	0.46790 0.14060 0.32280 0.01900
C 	C 	0.38180 0.19750 0.32360 -0.14800
H 	H 	0.40340 0.21430 0.27710 0.07700
C 	C 	0.31180 0.21740 0.36470 0.10500
C 	C 	0.28110 0.19160 0.43060 -0.15900
H 	H 	0.23250 0.20420 0.45800 0.07900
C 	C 	0.31890 0.14835 0.45760 0.08100
H 	H 	0.29750 0.13180 0.50440 0.01200
C 	C 	0.26820 0.26390 0.33730 -0.08500
H 	H 	0.21670 0.27310 0.36370 0.05800
C 	C 	0.29470 0.29300 0.28010 -0.07500
H 	H 	0.34980 0.28530 0.25870 0.05100
C 	C 	0.24810 0.33700 0.24470 0.09900
C 	C 	0.27510 0.35520 0.17020 -0.15100
H 	H 	0.32650 0.34220 0.14800 0.07800
C 	C 	0.22830 0.39194 0.12780 0.07600
H 	H 	0.24700 0.40360 0.07570 0.02000
C 	C 	0.15380 0.41256 0.15940 -0.14800
C 	C 	0.12970 0.39658 0.23710 0.07400
H 	H 	0.08110 0.41150 0.26120 0.02600
C 	C 	0.17600 0.35900 0.27990 -0.14300
H 	H 	0.15900 0.34810 0.33300 0.08200
C 	C 	0.09910 0.44880 0.10670 0.41600
C 	C 	0.26440 0.01430 0.62400 0.10900
H 	H 	0.25790 0.03230 0.57230 -0.00900
C 	C 	0.19490 0.01410 0.67480 -0.18700
H 	H 	0.14080 0.03040 0.65710 0.10000
C 	C 	0.20520 0.98970 0.75220 0.16100
C 	C 	0.28640 0.97015 0.77590 -0.20200
H 	H 	0.29820 0.95550 0.83030 0.10700
C 	C 	0.35140 0.97174 0.72100 0.13400
H 	H 	0.40800 0.95850 0.73960 -0.01200
C 	C 	0.13200 0.99280 0.80830 -0.15200
H 	H 	0.07310 0.99580 0.78150 0.07900
C 	C 	0.14090 0.99172 0.88870 0.01400
H 	H 	0.19950 0.98770 0.91550 0.03300
C 	C 	0.06810 0.99620 0.94460 -0.03300
C 	C 	0.05280 0.95789 0.99960 -0.00300
C 	C 	0.98430 0.96190 0.05660 0.02500
C 	C 	0.97110 0.92110 0.11010 -0.08500
H 	H 	0.92450 0.92220 0.14640 0.06100
C 	C 	0.02270 0.88110 0.11060 -0.01100
H 	H 	0.01360 0.85520 0.14870 0.02900
C 	C 	0.09090 0.87730 0.05450 -0.05000
H 	H 	0.12710 0.84890 0.05530 0.04600
C 	C 	0.10390 0.91400 0.00040 -0.03800
H 	H 	0.14810 0.91060 0.96170 0.04400
Zn	Zn	0.06349 0.49627 0.93543 1.21800
O 	O 	0.10400 0.55973 0.99420 -0.47300
O 	O 	0.00830 0.56500 0.09260 -0.47000
O 	O 	0.37420 0.96091 0.46250 -0.47700
O 	O 	0.47060 0.96381 0.36520 -0.46600
N 	N 	0.15970 0.49038 0.85540 -0.26900
C 	C 	0.07150 0.58080 0.05430 0.41100
C 	C 	0.11210 0.62847 0.08270 -0.15900
C 	C 	0.08020 0.65360 0.14960 0.07900
H 	H 	0.03210 0.64060 0.17720 0.01800
C 	C 	0.11820 0.69750 0.17640 -0.15000
H 	H 	0.09660 0.71430 0.22290 0.07800
C 	C 	0.18820 0.71740 0.13530 0.10800
C 	C 	0.21890 0.69160 0.06940 -0.16300
H 	H 	0.26750 0.70420 0.04200 0.08200
C 	C 	0.18110 0.64835 0.04240 0.08800
H 	H 	0.20250 0.63180 0.99560 0.00800
C 	C 	0.23180 0.76390 0.16270 -0.08700
H 	H 	0.28330 0.77310 0.13630 0.05800
C 	C 	0.20530 0.79300 0.21990 -0.07400
H 	H 	0.15020 0.78530 0.24130 0.05100
C 	C 	0.25190 0.83700 0.25530 0.09900
C 	C 	0.22490 0.85520 0.32980 -0.15000
H 	H 	0.17350 0.84220 0.35200 0.07800
C 	C 	0.27170 0.89194 0.37220 0.07600
H 	H 	0.25300 0.90360 0.42430 0.02000
C 	C 	0.34620 0.91256 0.34060 -0.14800
C 	C 	0.37030 0.89658 0.26290 0.07400
H 	H 	0.41890 0.91150 0.23880 0.02600
C 	C 	0.32400 0.85900 0.22010 -0.14300
H 	H 	0.34100 0.84810 0.16700 0.08200
C 	C 	0.40090 0.94880 0.39330 0.41600
C 	C 	0.23560 0.51430 0.87600 0.10900
H 	H 	0.24210 0.53230 0.92770 -0.01000
C 	C 	0.30510 0.51410 0.82520 -0.19000
H 	H 	0.35920 0.53040 0.84290 0.10100
C 	C 	0.29480 0.48970 0.74780 0.16300
C 	C 	0.21360 0.47015 0.72410 -0.20300
H 	H 	0.20180 0.45550 0.66970 0.10800
C 	C 	0.14860 0.47174 0.77900 0.13500
H 	H 	0.09200 0.45850 0.76040 -0.01200
C 	C 	0.36800 0.49280 0.69170 -0.15300
H 	H 	0.42690 0.49580 0.71850 0.08000
C 	C 	0.35910 0.49172 0.61130 0.01500
H 	H 	0.30050 0.48770 0.58450 0.03400
C 	C 	0.43190 0.49620 0.55540 -0.03200
C 	C 	0.44720 0.45789 0.50040 0.01200
C 	C 	0.51570 0.46190 0.44340 0.01400
C 	C 	0.52890 0.42110 0.38990 -0.07200
H 	H 	0.57550 0.42220 0.35360 0.05600
C 	C 	0.47730 0.38110 0.38940 -0.02700
H 	H 	0.48640 0.35520 0.35130 0.03300
C 	C 	0.40910 0.37730 0.44550 -0.03400
H 	H 	0.37290 0.34890 0.44470 0.04000
C 	C 	0.39610 0.41400 0.49960 -0.06100
H 	H 	0.35190 0.41060 0.53830 0.05400
