data_crystal

_cell_length_a 23.06800
_cell_length_b 19.93400
_cell_length_c 22.71400
_cell_angle_alpha 90.00000
_cell_angle_beta  115.85000
_cell_angle_gamma 90.00000

_symmetry_space_group_name_	'P 1'
_symmetry_space_group_name_H-M	'P 1'

loop_
_symmetry_equiv_pos_as_xyz
  x,y,z

loop_
_atom_site_label
_atom_site_type_symbol
_atom_site_fract_x
_atom_site_fract_y
_atom_site_fract_z
_atom_site_charge
Eu	Eu	0.79100 0.09130 0.25077 1.89300
O 	O 	0.79610 0.99490 0.18910 -0.48500
O 	O 	0.85130 0.13970 0.19820 -0.52800
O 	O 	0.77350 0.99660 0.32210 -0.23200
O 	O 	0.78540 0.09600 0.36320 -0.26000
O 	O 	0.67190 0.02150 0.18610 -0.20000
O 	O 	0.67550 0.10770 0.24260 -0.24400
O 	O 	0.71000 0.12870 0.12970 -0.22400
O 	O 	0.73720 0.20990 0.19870 -0.23900
O 	O 	0.89370 0.05170 0.33530 -0.48200
C 	C 	0.83160 0.96400 0.16910 0.52900
C 	C 	0.89860 0.13700 0.18820 0.58000
N 	N 	0.77800 0.03400 0.36790 0.06500
N 	N 	0.64600 0.06370 0.20710 0.06700
N 	N 	0.70880 0.19180 0.14030 0.06200
C 	C 	0.79830 0.92930 0.10340 -0.24600
O 	O 	0.89030 0.95690 0.19960 -0.51000
C 	C 	0.91560 0.19460 0.15510 -0.27400
O 	O 	0.94820 0.09830 0.22210 -0.31700
O 	O 	0.77740 0.01130 0.41810 -0.11600
O 	O 	0.58510 0.06200 0.18740 -0.11900
O 	O 	0.68100 0.23050 0.09390 -0.11600
O 	O 	0.98610 0.00560 0.34880 -0.46800
C 	C 	0.83620 0.90060 0.07650 0.18300
C 	C 	0.73260 0.92450 0.07190 0.17500
C 	C 	0.87120 0.24520 0.12800 0.18100
C 	C 	0.97360 0.19790 0.15190 0.24700
H 	H 	0.88080 0.90320 0.09860 -0.01500
C 	C 	0.80750 0.86830 0.01710 -0.24800
C 	C 	0.70270 0.88910 0.01300 -0.25700
H 	H 	0.70760 0.94500 0.08970 -0.01400
O 	O 	0.99990 0.87280 0.29790 -0.21400
H 	H 	0.83180 0.24330 0.13000 -0.00200
C 	C 	0.88580 0.30030 0.09720 -0.24600
C 	C 	0.98840 0.25120 0.12110 -0.22300
H 	H 	0.00370 0.16390 0.17070 -0.07600
H 	H 	0.83250 0.85090 0.99780 0.13300
C 	C 	0.74090 0.86190 0.98640 0.22500
H 	H 	0.65820 0.88410 0.99240 0.13000
H 	H 	0.85630 0.33470 0.07840 0.14000
C 	C 	0.94420 0.30140 0.09600 0.22000
H 	H 	0.02720 0.25250 0.11790 0.08500
N 	N 	0.71190 0.82510 0.92460 -0.16600
N 	N 	0.96030 0.35940 0.06760 -0.16300
C 	C 	0.74400 0.77450 0.91360 0.09900
C 	C 	0.65340 0.84260 0.87840 0.10300
C 	C 	0.92090 0.38130 0.00630 0.12900
C 	C 	0.01730 0.38950 0.09920 0.10800
H 	H 	0.78330 0.76110 0.94680 -0.00000
C 	C 	0.72030 0.74190 0.85440 -0.14500
C 	C 	0.62650 0.80980 0.81940 -0.12700
H 	H 	0.63090 0.87720 0.88660 0.01300
H 	H 	0.88280 0.35820 0.98190 0.02500
C 	C 	0.93510 0.43510 0.98000 -0.20800
C 	C 	0.03480 0.44400 0.07430 -0.24000
H 	H 	0.04610 0.37280 0.13970 -0.00200
H 	H 	0.74410 0.70790 0.84720 0.08000
C 	C 	0.66110 0.75970 0.80570 0.07300
H 	H 	0.58530 0.82100 0.78850 0.10300
H 	H 	0.90680 0.44880 0.93810 0.13300
C 	C 	0.99070 0.47050 0.01390 0.19800
H 	H 	0.07530 0.46320 0.09680 0.13600
C 	C 	0.63350 0.72560 0.73970 0.09000
C 	C 	0.65300 0.66210 0.73320 -0.13400
C 	C 	0.58700 0.75660 0.68550 -0.13300
H 	H 	0.68560 0.64090 0.76870 0.08800
C 	C 	0.62370 0.62980 0.67340 0.11800
C 	C 	0.56080 0.72410 0.62670 0.11800
H 	H 	0.57350 0.79980 0.68900 0.10800
H 	H 	0.63560 0.58610 0.66930 0.01000
N 	N 	0.57860 0.66050 0.62180 -0.16800
H 	H 	0.53060 0.74570 0.58980 0.00400
C 	C 	0.54650 0.62680 0.55820 0.22500
C 	C 	0.58320 0.59280 0.53350 -0.25400
C 	C 	0.48090 0.62940 0.52590 -0.25900
H 	H 	0.62760 0.58960 0.55740 0.15100
C 	C 	0.55190 0.56350 0.47170 0.18100
C 	C 	0.45070 0.60060 0.46460 0.17300
H 	H 	0.45700 0.65010 0.54470 0.13000
H 	H 	0.57580 0.54070 0.45400 -0.01300
C 	C 	0.48570 0.56810 0.43650 -0.24900
H 	H 	0.40610 0.60300 0.44170 -0.02000
C 	C 	0.45260 0.53990 0.36850 0.51200
O 	O 	0.92270 0.07800 0.18320 -0.25900
Eu	Eu	0.29100 0.59130 0.25077 1.89600
O 	O 	0.29610 0.49490 0.18910 -0.48700
O 	O 	0.35130 0.63970 0.19820 -0.53000
O 	O 	0.27350 0.49660 0.32210 -0.23100
O 	O 	0.28540 0.59600 0.36320 -0.25800
O 	O 	0.17190 0.52150 0.18610 -0.20100
O 	O 	0.17550 0.60770 0.24260 -0.24400
O 	O 	0.21000 0.62870 0.12970 -0.22300
O 	O 	0.23720 0.70990 0.19870 -0.24000
O 	O 	0.39370 0.55170 0.33530 -0.49500
C 	C 	0.33160 0.46400 0.16910 0.53600
C 	C 	0.39860 0.63700 0.18820 0.58100
N 	N 	0.27800 0.53400 0.36790 0.06500
N 	N 	0.14600 0.56370 0.20710 0.06700
N 	N 	0.20880 0.69180 0.14030 0.06200
C 	C 	0.29830 0.42930 0.10340 -0.25200
O 	O 	0.39030 0.45690 0.19960 -0.53000
C 	C 	0.41560 0.69460 0.15510 -0.26700
O 	O 	0.44820 0.59830 0.22210 -0.33600
O 	O 	0.27740 0.51130 0.41810 -0.11600
O 	O 	0.08510 0.56200 0.18740 -0.12700
O 	O 	0.18100 0.73050 0.09390 -0.11700
O 	O 	0.48610 0.50560 0.34880 -0.50300
C 	C 	0.33620 0.40060 0.07650 0.18600
C 	C 	0.23260 0.42450 0.07190 0.17600
C 	C 	0.37120 0.74520 0.12800 0.17800
C 	C 	0.47360 0.69790 0.15190 0.20400
H 	H 	0.38080 0.40320 0.09860 -0.02400
C 	C 	0.30750 0.36830 0.01710 -0.24900
C 	C 	0.20270 0.38910 0.01300 -0.25400
H 	H 	0.20760 0.44500 0.08970 -0.01500
O 	O 	0.49990 0.37280 0.29790 -0.25200
H 	H 	0.33180 0.74330 0.13000 -0.00200
C 	C 	0.38580 0.80030 0.09720 -0.25100
C 	C 	0.48840 0.75120 0.12110 -0.27300
H 	H 	0.50370 0.66390 0.17070 -0.03900
H 	H 	0.33250 0.35090 0.99780 0.13100
C 	C 	0.24090 0.36190 0.98640 0.22300
H 	H 	0.15820 0.38410 0.99240 0.12500
H 	H 	0.35630 0.83470 0.07840 0.14100
C 	C 	0.44420 0.80140 0.09600 0.22900
H 	H 	0.52720 0.75250 0.11790 0.12300
N 	N 	0.21190 0.32510 0.92460 -0.16600
N 	N 	0.46030 0.85940 0.06760 -0.16600
C 	C 	0.24400 0.27450 0.91360 0.09900
C 	C 	0.15340 0.34260 0.87840 0.10100
C 	C 	0.42090 0.88130 0.00630 0.07400
C 	C 	0.51730 0.88950 0.09920 0.09400
H 	H 	0.28330 0.26110 0.94680 -0.00200
C 	C 	0.22030 0.24190 0.85440 -0.14600
C 	C 	0.12650 0.30980 0.81940 -0.12800
H 	H 	0.13090 0.37720 0.88660 0.00900
H 	H 	0.38280 0.85820 0.98190 0.04300
C 	C 	0.43510 0.93510 0.98000 -0.12000
C 	C 	0.53480 0.94400 0.07430 -0.13400
H 	H 	0.54610 0.87280 0.13970 0.01000
H 	H 	0.24410 0.20790 0.84720 0.08000
C 	C 	0.16110 0.25970 0.80570 0.07400
H 	H 	0.08530 0.32100 0.78850 0.09800
H 	H 	0.40680 0.94880 0.93810 0.09900
C 	C 	0.49070 0.97050 0.01390 0.05300
H 	H 	0.57530 0.96320 0.09680 0.10000
C 	C 	0.13350 0.22560 0.73970 0.08600
C 	C 	0.15300 0.16210 0.73320 -0.12900
C 	C 	0.08700 0.25660 0.68550 -0.13000
H 	H 	0.18560 0.14090 0.76870 0.08600
C 	C 	0.12370 0.12980 0.67340 0.11100
C 	C 	0.06080 0.22410 0.62670 0.11100
H 	H 	0.07350 0.29980 0.68900 0.10300
H 	H 	0.13560 0.08610 0.66930 0.01300
N 	N 	0.07860 0.16050 0.62180 -0.15400
H 	H 	0.03060 0.24570 0.58980 -0.00100
C 	C 	0.04650 0.12680 0.55820 0.12200
C 	C 	0.08320 0.09280 0.53350 -0.15400
C 	C 	0.98090 0.12940 0.52590 -0.12200
H 	H 	0.12760 0.08960 0.55740 0.11600
C 	C 	0.05190 0.06350 0.47170 0.05000
C 	C 	0.95070 0.10060 0.46460 0.07000
H 	H 	0.95700 0.15010 0.54470 0.09400
H 	H 	0.07580 0.04070 0.45400 0.02500
C 	C 	0.98570 0.06810 0.43650 -0.13500
H 	H 	0.90610 0.10300 0.44170 0.01600
C 	C 	0.95260 0.03990 0.36850 0.47100
O 	O 	0.42270 0.57800 0.18320 -0.26900
Eu	Eu	0.20900 0.09130 0.24923 1.89700
O 	O 	0.20390 0.99490 0.31090 -0.48500
O 	O 	0.14870 0.13970 0.30180 -0.52700
O 	O 	0.22650 0.99660 0.17790 -0.22900
O 	O 	0.21460 0.09600 0.13680 -0.25700
O 	O 	0.32810 0.02150 0.31390 -0.19900
O 	O 	0.32450 0.10770 0.25740 -0.24300
O 	O 	0.29000 0.12870 0.37030 -0.22300
O 	O 	0.26280 0.20990 0.30130 -0.24000
O 	O 	0.10630 0.05170 0.16470 -0.50200
C 	C 	0.16840 0.96400 0.33090 0.53100
C 	C 	0.10140 0.13700 0.31180 0.57100
N 	N 	0.22200 0.03400 0.13210 0.06600
N 	N 	0.35400 0.06370 0.29290 0.06700
N 	N 	0.29120 0.19180 0.35970 0.06200
C 	C 	0.20170 0.92930 0.39660 -0.24600
O 	O 	0.10970 0.95690 0.30040 -0.52400
C 	C 	0.08440 0.19460 0.34490 -0.25300
O 	O 	0.05180 0.09830 0.27790 -0.33900
O 	O 	0.22260 0.01130 0.08190 -0.11500
O 	O 	0.41490 0.06200 0.31260 -0.11900
O 	O 	0.31900 0.23050 0.40610 -0.11600
O 	O 	0.01390 0.00560 0.15120 -0.51400
C 	C 	0.16380 0.90060 0.42350 0.17800
C 	C 	0.26740 0.92450 0.42810 0.16800
C 	C 	0.12880 0.24520 0.37200 0.17200
C 	C 	0.02640 0.19790 0.34810 0.15600
H 	H 	0.11920 0.90320 0.40140 -0.02700
C 	C 	0.19250 0.86830 0.48290 -0.23600
C 	C 	0.29730 0.88910 0.48700 -0.24100
H 	H 	0.29240 0.94500 0.41030 -0.01100
O 	O 	0.00010 0.87280 0.20210 -0.25700
H 	H 	0.16820 0.24330 0.37000 -0.00100
C 	C 	0.11420 0.30030 0.40280 -0.25500
C 	C 	0.01160 0.25120 0.37890 -0.32100
H 	H 	0.99630 0.16390 0.32930 0.00100
H 	H 	0.16750 0.85090 0.50220 0.12400
C 	C 	0.25910 0.86190 0.51360 0.21300
H 	H 	0.34180 0.88410 0.50760 0.12300
H 	H 	0.14370 0.33470 0.42160 0.14100
C 	C 	0.05580 0.30140 0.40400 0.23800
H 	H 	0.97280 0.25250 0.38210 0.16100
N 	N 	0.28810 0.82510 0.57540 -0.16400
N 	N 	0.03970 0.35940 0.43240 -0.17400
C 	C 	0.25600 0.77450 0.58640 0.09900
C 	C 	0.34660 0.84260 0.62160 0.10200
C 	C 	0.07910 0.38130 0.49370 0.03800
C 	C 	0.98270 0.38950 0.40080 0.08900
H 	H 	0.21670 0.76110 0.55320 -0.00300
C 	C 	0.27970 0.74190 0.64560 -0.14600
C 	C 	0.37350 0.80980 0.68060 -0.12700
H 	H 	0.36910 0.87720 0.61340 0.01300
H 	H 	0.11720 0.35820 0.51810 0.05300
C 	C 	0.06490 0.43510 0.52000 -0.05600
C 	C 	0.96520 0.44400 0.42570 -0.03800
H 	H 	0.95390 0.37280 0.36030 0.02000
H 	H 	0.25590 0.70790 0.65280 0.07900
C 	C 	0.33890 0.75970 0.69430 0.07300
H 	H 	0.41470 0.82100 0.71150 0.10300
H 	H 	0.09320 0.44880 0.56190 0.07200
C 	C 	0.00930 0.47050 0.48610 -0.07400
H 	H 	0.92470 0.46320 0.40320 0.06900
C 	C 	0.36650 0.72560 0.76030 0.09000
C 	C 	0.34700 0.66210 0.76680 -0.13400
C 	C 	0.41300 0.75660 0.81450 -0.13300
H 	H 	0.31440 0.64090 0.73130 0.08800
C 	C 	0.37630 0.62980 0.82660 0.11700
C 	C 	0.43920 0.72410 0.87330 0.11800
H 	H 	0.42650 0.79980 0.81100 0.10800
H 	H 	0.36440 0.58610 0.83070 0.01000
N 	N 	0.42140 0.66050 0.87820 -0.16700
H 	H 	0.46940 0.74570 0.91020 0.00500
C 	C 	0.45350 0.62680 0.94180 0.22000
C 	C 	0.41680 0.59280 0.96650 -0.24500
C 	C 	0.51910 0.62940 0.97410 -0.24900
H 	H 	0.37240 0.58960 0.94260 0.14800
C 	C 	0.44810 0.56350 0.02830 0.17100
C 	C 	0.54930 0.60060 0.03540 0.16300
H 	H 	0.54300 0.65010 0.95530 0.12800
H 	H 	0.42420 0.54070 0.04600 -0.01100
C 	C 	0.51430 0.56810 0.06350 -0.24300
H 	H 	0.59390 0.60300 0.05830 -0.01700
C 	C 	0.54740 0.53990 0.13150 0.51000
O 	O 	0.07730 0.07800 0.31680 -0.26700
Eu	Eu	0.70900 0.59130 0.24923 1.89600
O 	O 	0.70390 0.49490 0.31090 -0.48600
O 	O 	0.64870 0.63970 0.30180 -0.53000
O 	O 	0.72650 0.49660 0.17790 -0.22900
O 	O 	0.71460 0.59600 0.13680 -0.25800
O 	O 	0.82810 0.52150 0.31390 -0.19800
O 	O 	0.82450 0.60770 0.25740 -0.24300
O 	O 	0.79000 0.62870 0.37030 -0.22200
O 	O 	0.76280 0.70990 0.30130 -0.24000
O 	O 	0.60630 0.55170 0.16470 -0.49400
C 	C 	0.66840 0.46400 0.33090 0.53400
C 	C 	0.60140 0.63700 0.31180 0.58100
N 	N 	0.72200 0.53400 0.13210 0.06500
N 	N 	0.85400 0.56370 0.29290 0.06600
N 	N 	0.79120 0.69180 0.35970 0.06200
C 	C 	0.70170 0.42930 0.39660 -0.24600
O 	O 	0.60970 0.45690 0.30040 -0.52900
C 	C 	0.58440 0.69460 0.34490 -0.26700
O 	O 	0.55180 0.59830 0.27790 -0.33600
O 	O 	0.72260 0.51130 0.08190 -0.11500
O 	O 	0.91490 0.56200 0.31260 -0.11100
O 	O 	0.81900 0.73050 0.40610 -0.11500
O 	O 	0.51390 0.50560 0.15120 -0.50200
C 	C 	0.66380 0.40060 0.42350 0.17700
C 	C 	0.76740 0.42450 0.42810 0.16900
C 	C 	0.62880 0.74520 0.37200 0.17900
C 	C 	0.52640 0.69790 0.34810 0.20500
H 	H 	0.61920 0.40320 0.40140 -0.02100
C 	C 	0.69250 0.36830 0.48290 -0.23500
C 	C 	0.79730 0.38910 0.48700 -0.24200
H 	H 	0.79240 0.44500 0.41030 -0.01000
O 	O 	0.50010 0.37280 0.20210 -0.25200
H 	H 	0.66820 0.74330 0.37000 -0.00300
C 	C 	0.61420 0.80030 0.40280 -0.25300
C 	C 	0.51160 0.75120 0.37890 -0.27400
H 	H 	0.49630 0.66390 0.32930 -0.04000
H 	H 	0.66750 0.35090 0.50220 0.12500
C 	C 	0.75910 0.36190 0.51360 0.21400
H 	H 	0.84180 0.38410 0.50760 0.12700
H 	H 	0.64370 0.83470 0.42160 0.14200
C 	C 	0.55580 0.80140 0.40400 0.23100
H 	H 	0.47280 0.75250 0.38210 0.12400
N 	N 	0.78810 0.32510 0.57540 -0.16400
N 	N 	0.53970 0.85940 0.43240 -0.17100
C 	C 	0.75600 0.27450 0.58640 0.10000
C 	C 	0.84660 0.34260 0.62160 0.10500
C 	C 	0.57910 0.88130 0.49370 0.09400
C 	C 	0.48270 0.88950 0.40080 0.10200
H 	H 	0.71670 0.26110 0.55320 -0.00200
C 	C 	0.77970 0.24190 0.64560 -0.14500
C 	C 	0.87350 0.30980 0.68060 -0.12600
H 	H 	0.86910 0.37720 0.61340 0.01700
H 	H 	0.61720 0.85820 0.51810 0.03500
C 	C 	0.56490 0.93510 0.52000 -0.14500
C 	C 	0.46520 0.94400 0.42570 -0.14600
H 	H 	0.45390 0.87280 0.36030 0.00700
H 	H 	0.75590 0.20790 0.65280 0.08000
C 	C 	0.83890 0.25970 0.69430 0.07500
H 	H 	0.91470 0.32100 0.71150 0.11000
H 	H 	0.59320 0.94880 0.56190 0.10700
C 	C 	0.50930 0.97050 0.48610 0.07300
H 	H 	0.42470 0.96320 0.40320 0.10500
C 	C 	0.86650 0.22560 0.76030 0.09500
C 	C 	0.84700 0.16210 0.76680 -0.13700
C 	C 	0.91300 0.25660 0.81450 -0.13400
H 	H 	0.81440 0.14090 0.73130 0.09000
C 	C 	0.87630 0.12980 0.82660 0.12400
C 	C 	0.93920 0.22410 0.87330 0.12600
H 	H 	0.92650 0.29980 0.81100 0.11400
H 	H 	0.86440 0.08610 0.83070 0.00700
N 	N 	0.92140 0.16050 0.87820 -0.18100
H 	H 	0.96940 0.24570 0.91020 0.01100
C 	C 	0.95350 0.12680 0.94180 0.32100
C 	C 	0.91680 0.09280 0.96650 -0.34200
C 	C 	0.01910 0.12940 0.97410 -0.38500
H 	H 	0.87240 0.08960 0.94260 0.18200
C 	C 	0.94810 0.06350 0.02830 0.29700
C 	C 	0.04930 0.10060 0.03540 0.26200
H 	H 	0.04300 0.15010 0.95530 0.16400
H 	H 	0.92420 0.04070 0.04600 -0.04600
C 	C 	0.01430 0.06810 0.06350 -0.35100
H 	H 	0.09390 0.10300 0.05830 -0.05200
C 	C 	0.04740 0.03990 0.13150 0.54200
O 	O 	0.57730 0.57800 0.31680 -0.26900
Eu	Eu	0.20900 0.90870 0.74923 1.89700
O 	O 	0.20390 0.00510 0.81090 -0.48400
O 	O 	0.14870 0.86030 0.80180 -0.52700
O 	O 	0.22650 0.00340 0.67790 -0.22900
O 	O 	0.21460 0.90400 0.63680 -0.25700
O 	O 	0.32810 0.97850 0.81390 -0.19900
O 	O 	0.32450 0.89230 0.75740 -0.24300
O 	O 	0.29000 0.87130 0.87030 -0.22300
O 	O 	0.26280 0.79010 0.80130 -0.24000
O 	O 	0.10630 0.94830 0.66470 -0.50300
C 	C 	0.16840 0.03600 0.83090 0.52800
C 	C 	0.10140 0.86300 0.81180 0.57100
N 	N 	0.22200 0.96600 0.63210 0.06600
N 	N 	0.35400 0.93630 0.79290 0.06700
N 	N 	0.29120 0.80820 0.85970 0.06200
C 	C 	0.20170 0.07070 0.89660 -0.23800
O 	O 	0.10970 0.04310 0.80040 -0.52300
C 	C 	0.08440 0.80540 0.84490 -0.25300
O 	O 	0.05180 0.90170 0.77790 -0.33900
O 	O 	0.22260 0.98870 0.58190 -0.11500
O 	O 	0.41490 0.93800 0.81260 -0.11900
O 	O 	0.31900 0.76950 0.90610 -0.11600
O 	O 	0.01390 0.99440 0.65120 -0.51500
C 	C 	0.16380 0.09940 0.92350 0.16800
C 	C 	0.26740 0.07550 0.92810 0.15800
C 	C 	0.12880 0.75480 0.87200 0.17300
C 	C 	0.02640 0.80210 0.84810 0.15600
H 	H 	0.11920 0.09680 0.90140 -0.02300
C 	C 	0.19250 0.13170 0.98290 -0.22200
C 	C 	0.29730 0.11090 0.98700 -0.22600
H 	H 	0.29240 0.05500 0.91030 -0.00700
O 	O 	0.00010 0.12720 0.70210 -0.25700
H 	H 	0.16820 0.75670 0.87000 -0.00100
C 	C 	0.11420 0.69970 0.90280 -0.25600
C 	C 	0.01160 0.74880 0.87890 -0.32100
H 	H 	0.99630 0.83610 0.82930 0.00000
H 	H 	0.16750 0.14910 0.00220 0.11800
C 	C 	0.25910 0.13810 0.01360 0.20100
H 	H 	0.34180 0.11590 0.00760 0.11600
H 	H 	0.14370 0.66530 0.92160 0.14200
C 	C 	0.05580 0.69860 0.90400 0.24000
H 	H 	0.97280 0.74750 0.88210 0.16100
N 	N 	0.28810 0.17490 0.07540 -0.16200
N 	N 	0.03970 0.64060 0.93240 -0.17800
C 	C 	0.25600 0.22550 0.08640 0.09800
C 	C 	0.34660 0.15740 0.12160 0.10100
C 	C 	0.07910 0.61870 0.99370 0.05500
C 	C 	0.98270 0.61050 0.90080 0.09600
H 	H 	0.21670 0.23890 0.05320 -0.00300
C 	C 	0.27970 0.25810 0.14560 -0.14500
C 	C 	0.37350 0.19020 0.18060 -0.12600
H 	H 	0.36910 0.12280 0.11340 0.01400
H 	H 	0.11720 0.64180 0.01810 0.04600
C 	C 	0.06490 0.56490 0.02000 -0.07800
C 	C 	0.96520 0.55600 0.92570 -0.05100
H 	H 	0.95390 0.62720 0.86030 0.01700
H 	H 	0.25590 0.29210 0.15280 0.07900
C 	C 	0.33890 0.24030 0.19430 0.07300
H 	H 	0.41470 0.17900 0.21150 0.10200
H 	H 	0.09320 0.55120 0.06190 0.08000
C 	C 	0.00930 0.52950 0.98610 -0.05400
H 	H 	0.92470 0.53680 0.90320 0.07400
C 	C 	0.36650 0.27440 0.26030 0.09000
C 	C 	0.34700 0.33790 0.26680 -0.13400
C 	C 	0.41300 0.24340 0.31450 -0.13300
H 	H 	0.31440 0.35910 0.23130 0.08800
C 	C 	0.37630 0.37020 0.32660 0.11700
C 	C 	0.43920 0.27590 0.37330 0.11800
H 	H 	0.42650 0.20020 0.31100 0.10800
H 	H 	0.36440 0.41390 0.33070 0.01000
N 	N 	0.42140 0.33950 0.37820 -0.16800
H 	H 	0.46940 0.25430 0.41020 0.00400
C 	C 	0.45350 0.37320 0.44180 0.22500
C 	C 	0.41680 0.40720 0.46650 -0.25400
C 	C 	0.51910 0.37060 0.47410 -0.25900
H 	H 	0.37240 0.41040 0.44260 0.15100
C 	C 	0.44810 0.43650 0.52830 0.18100
C 	C 	0.54930 0.39940 0.53540 0.17300
H 	H 	0.54300 0.34990 0.45530 0.13000
H 	H 	0.42420 0.45930 0.54600 -0.01300
C 	C 	0.51430 0.43190 0.56350 -0.24900
H 	H 	0.59390 0.39700 0.55830 -0.02000
C 	C 	0.54740 0.46010 0.63150 0.51200
O 	O 	0.07730 0.92200 0.81680 -0.26700
Eu	Eu	0.70900 0.40870 0.74923 1.89600
O 	O 	0.70390 0.50510 0.81090 -0.48500
O 	O 	0.64870 0.36030 0.80180 -0.53000
O 	O 	0.72650 0.50340 0.67790 -0.22900
O 	O 	0.71460 0.40400 0.63680 -0.25800
O 	O 	0.82810 0.47850 0.81390 -0.19800
O 	O 	0.82450 0.39230 0.75740 -0.24300
O 	O 	0.79000 0.37130 0.87030 -0.22200
O 	O 	0.76280 0.29010 0.80130 -0.24000
O 	O 	0.60630 0.44830 0.66470 -0.49500
C 	C 	0.66840 0.53600 0.83090 0.53000
C 	C 	0.60140 0.36300 0.81180 0.58100
N 	N 	0.72200 0.46600 0.63210 0.06500
N 	N 	0.85400 0.43630 0.79290 0.06600
N 	N 	0.79120 0.30820 0.85970 0.06200
C 	C 	0.70170 0.57070 0.89660 -0.23500
O 	O 	0.60970 0.54310 0.80040 -0.52800
C 	C 	0.58440 0.30540 0.84490 -0.26800
O 	O 	0.55180 0.40170 0.77790 -0.33600
O 	O 	0.72260 0.48870 0.58190 -0.11500
O 	O 	0.91490 0.43800 0.81260 -0.11100
O 	O 	0.81900 0.26950 0.90610 -0.11500
O 	O 	0.51390 0.49440 0.65120 -0.50300
C 	C 	0.66380 0.59940 0.92350 0.16300
C 	C 	0.76740 0.57550 0.92810 0.15500
C 	C 	0.62880 0.25480 0.87200 0.18000
C 	C 	0.52640 0.30210 0.84810 0.20600
H 	H 	0.61920 0.59680 0.90140 -0.01600
C 	C 	0.69250 0.63170 0.98290 -0.21400
C 	C 	0.79730 0.61090 0.98700 -0.22200
H 	H 	0.79240 0.55500 0.91030 -0.00500
O 	O 	0.50010 0.62720 0.70210 -0.25200
H 	H 	0.66820 0.25670 0.87000 -0.00300
C 	C 	0.61420 0.19970 0.90280 -0.25400
C 	C 	0.51160 0.24880 0.87890 -0.27500
H 	H 	0.49630 0.33610 0.82930 -0.04000
H 	H 	0.66750 0.64910 0.00220 0.11600
C 	C 	0.75910 0.63810 0.01360 0.19700
H 	H 	0.84180 0.61590 0.00760 0.11800
H 	H 	0.64370 0.16530 0.92160 0.14200
C 	C 	0.55580 0.19860 0.90400 0.23300
H 	H 	0.47280 0.24750 0.88210 0.12400
N 	N 	0.78810 0.67490 0.07540 -0.16100
N 	N 	0.53970 0.14060 0.93240 -0.17500
C 	C 	0.75600 0.72550 0.08640 0.09900
C 	C 	0.84660 0.65740 0.12160 0.10400
C 	C 	0.57910 0.11870 0.99370 0.11000
C 	C 	0.48270 0.11050 0.90080 0.10900
H 	H 	0.71670 0.73890 0.05320 -0.00200
C 	C 	0.77970 0.75810 0.14560 -0.14400
C 	C 	0.87350 0.69020 0.18060 -0.12500
H 	H 	0.86910 0.62280 0.11340 0.01800
H 	H 	0.61720 0.14180 0.01810 0.02700
C 	C 	0.56490 0.06490 0.02000 -0.16600
C 	C 	0.46520 0.05600 0.92570 -0.15800
H 	H 	0.45390 0.12720 0.86030 0.00500
H 	H 	0.75590 0.79210 0.15280 0.07900
C 	C 	0.83890 0.74030 0.19430 0.07400
H 	H 	0.91470 0.67900 0.21150 0.11000
H 	H 	0.59320 0.05120 0.06190 0.11500
C 	C 	0.50930 0.02950 0.98610 0.09100
H 	H 	0.42470 0.03680 0.90320 0.10900
C 	C 	0.86650 0.77440 0.26030 0.09500
C 	C 	0.84700 0.83790 0.26680 -0.13800
C 	C 	0.91300 0.74340 0.31450 -0.13500
H 	H 	0.81440 0.85910 0.23130 0.09000
C 	C 	0.87630 0.87020 0.32660 0.12500
C 	C 	0.93920 0.77590 0.37330 0.12600
H 	H 	0.92650 0.70020 0.31100 0.11400
H 	H 	0.86440 0.91390 0.33070 0.00700
N 	N 	0.92140 0.83950 0.37820 -0.18200
H 	H 	0.96940 0.75430 0.41020 0.01000
C 	C 	0.95350 0.87320 0.44180 0.32700
C 	C 	0.91680 0.90720 0.46650 -0.35100
C 	C 	0.01910 0.87060 0.47410 -0.39300
H 	H 	0.87240 0.91040 0.44260 0.18400
C 	C 	0.94810 0.93650 0.52830 0.30700
C 	C 	0.04930 0.89940 0.53540 0.27100
H 	H 	0.04300 0.84990 0.45530 0.16600
H 	H 	0.92420 0.95930 0.54600 -0.04900
C 	C 	0.01430 0.93190 0.56350 -0.35800
H 	H 	0.09390 0.89700 0.55830 -0.05500
C 	C 	0.04740 0.96010 0.63150 0.54400
O 	O 	0.57730 0.42200 0.81680 -0.26800
Eu	Eu	0.79100 0.90870 0.75077 1.89400
O 	O 	0.79610 0.00510 0.68910 -0.48300
O 	O 	0.85130 0.86030 0.69820 -0.52700
O 	O 	0.77350 0.00340 0.82210 -0.23100
O 	O 	0.78540 0.90400 0.86320 -0.25900
O 	O 	0.67190 0.97850 0.68610 -0.19900
O 	O 	0.67550 0.89230 0.74260 -0.24300
O 	O 	0.71000 0.87130 0.62970 -0.22200
O 	O 	0.73720 0.79010 0.69870 -0.23900
O 	O 	0.89370 0.94830 0.83530 -0.48300
C 	C 	0.83160 0.03600 0.66910 0.52500
C 	C 	0.89860 0.86300 0.68820 0.58000
N 	N 	0.77800 0.96600 0.86790 0.06500
N 	N 	0.64600 0.93630 0.70710 0.06700
N 	N 	0.70880 0.80820 0.64030 0.06200
C 	C 	0.79830 0.07070 0.60340 -0.23500
O 	O 	0.89030 0.04310 0.69960 -0.50900
C 	C 	0.91560 0.80540 0.65510 -0.27500
O 	O 	0.94820 0.90170 0.72210 -0.31700
O 	O 	0.77740 0.98870 0.91810 -0.11500
O 	O 	0.58510 0.93800 0.68740 -0.11900
O 	O 	0.68100 0.76950 0.59390 -0.11600
O 	O 	0.98610 0.99440 0.84880 -0.46800
C 	C 	0.83620 0.09940 0.57650 0.16800
C 	C 	0.73260 0.07550 0.57190 0.16100
C 	C 	0.87120 0.75480 0.62800 0.18100
C 	C 	0.97360 0.80210 0.65190 0.24800
H 	H 	0.88080 0.09680 0.59860 -0.00900
C 	C 	0.80750 0.13170 0.51710 -0.22600
C 	C 	0.70270 0.11090 0.51300 -0.23500
H 	H 	0.70760 0.05500 0.58970 -0.00800
O 	O 	0.99990 0.12720 0.79790 -0.21400
H 	H 	0.83180 0.75670 0.63000 -0.00200
C 	C 	0.88580 0.69970 0.59720 -0.24600
C 	C 	0.98840 0.74880 0.62110 -0.22200
H 	H 	0.00370 0.83610 0.67070 -0.07700
H 	H 	0.83250 0.14910 0.49780 0.12400
C 	C 	0.74090 0.13810 0.48640 0.20800
H 	H 	0.65820 0.11590 0.49240 0.12100
H 	H 	0.85630 0.66530 0.57840 0.14100
C 	C 	0.94420 0.69860 0.59600 0.22100
H 	H 	0.02720 0.74750 0.61790 0.08500
N 	N 	0.71190 0.17490 0.42460 -0.16300
N 	N 	0.96030 0.64060 0.56760 -0.16800
C 	C 	0.74400 0.22550 0.41360 0.09800
C 	C 	0.65340 0.15740 0.37840 0.10200
C 	C 	0.92090 0.61870 0.50630 0.14900
C 	C 	0.01730 0.61050 0.59920 0.11600
H 	H 	0.78330 0.23890 0.44680 -0.00000
C 	C 	0.72030 0.25810 0.35440 -0.14400
C 	C 	0.62650 0.19020 0.31940 -0.12600
H 	H 	0.63090 0.12280 0.38660 0.01400
H 	H 	0.88280 0.64180 0.48190 0.01700
C 	C 	0.93510 0.56490 0.48000 -0.23300
C 	C 	0.03480 0.55600 0.57430 -0.25400
H 	H 	0.04610 0.62720 0.63970 -0.00500
H 	H 	0.74410 0.29210 0.34720 0.08000
C 	C 	0.66110 0.24030 0.30570 0.07200
H 	H 	0.58530 0.17900 0.28850 0.10200
H 	H 	0.90680 0.55120 0.43810 0.14200
C 	C 	0.99070 0.52950 0.51390 0.22000
H 	H 	0.07530 0.53680 0.59680 0.14100
C 	C 	0.63350 0.27440 0.23970 0.09100
C 	C 	0.65300 0.33790 0.23320 -0.13400
C 	C 	0.58700 0.24340 0.18550 -0.13400
H 	H 	0.68560 0.35910 0.26870 0.08800
C 	C 	0.62370 0.37020 0.17340 0.11800
C 	C 	0.56080 0.27590 0.12670 0.11900
H 	H 	0.57350 0.20020 0.18900 0.10800
H 	H 	0.63560 0.41390 0.16930 0.01000
N 	N 	0.57860 0.33950 0.12180 -0.16900
H 	H 	0.53060 0.25430 0.08980 0.00400
C 	C 	0.54650 0.37320 0.05820 0.23100
C 	C 	0.58320 0.40720 0.03350 -0.26300
C 	C 	0.48090 0.37060 0.02590 -0.26800
H 	H 	0.62760 0.41040 0.05740 0.15400
C 	C 	0.55190 0.43650 0.97170 0.19000
C 	C 	0.45070 0.39940 0.96460 0.18200
H 	H 	0.45700 0.34990 0.04470 0.13300
H 	H 	0.57580 0.45930 0.95400 -0.01600
C 	C 	0.48570 0.43190 0.93650 -0.25500
H 	H 	0.40610 0.39700 0.94170 -0.02300
C 	C 	0.45260 0.46010 0.86850 0.51400
O 	O 	0.92270 0.92200 0.68320 -0.25900
Eu	Eu	0.29100 0.40870 0.75077 1.89600
O 	O 	0.29610 0.50510 0.68910 -0.48600
O 	O 	0.35130 0.36030 0.69820 -0.53000
O 	O 	0.27350 0.50340 0.82210 -0.23000
O 	O 	0.28540 0.40400 0.86320 -0.25800
O 	O 	0.17190 0.47850 0.68610 -0.20100
O 	O 	0.17550 0.39230 0.74260 -0.24400
O 	O 	0.21000 0.37130 0.62970 -0.22300
O 	O 	0.23720 0.29010 0.69870 -0.24000
O 	O 	0.39370 0.44830 0.83530 -0.49600
C 	C 	0.33160 0.53600 0.66910 0.53300
C 	C 	0.39860 0.36300 0.68820 0.58100
N 	N 	0.27800 0.46600 0.86790 0.06500
N 	N 	0.14600 0.43630 0.70710 0.06700
N 	N 	0.20880 0.30820 0.64030 0.06200
C 	C 	0.29830 0.57070 0.60340 -0.24400
O 	O 	0.39030 0.54310 0.69960 -0.52900
C 	C 	0.41560 0.30540 0.65510 -0.26700
O 	O 	0.44820 0.40170 0.72210 -0.33600
O 	O 	0.27740 0.48870 0.91810 -0.11600
O 	O 	0.08510 0.43800 0.68740 -0.12700
O 	O 	0.18100 0.26950 0.59390 -0.11700
O 	O 	0.48610 0.49440 0.84880 -0.50300
C 	C 	0.33620 0.59940 0.57650 0.17500
C 	C 	0.23260 0.57550 0.57190 0.16500
C 	C 	0.37120 0.25480 0.62800 0.17900
C 	C 	0.47360 0.30210 0.65190 0.20500
H 	H 	0.38080 0.59680 0.59860 -0.02000
C 	C 	0.30750 0.63170 0.51710 -0.23200
C 	C 	0.20270 0.61090 0.51300 -0.23900
H 	H 	0.20760 0.55500 0.58970 -0.01100
O 	O 	0.49990 0.62720 0.79790 -0.25200
H 	H 	0.33180 0.25670 0.63000 -0.00200
C 	C 	0.38580 0.19970 0.59720 -0.25300
C 	C 	0.48840 0.24880 0.62110 -0.27400
H 	H 	0.50370 0.33610 0.67070 -0.04000
H 	H 	0.33250 0.64910 0.49780 0.12400
C 	C 	0.24090 0.63810 0.48640 0.21000
H 	H 	0.15820 0.61590 0.49240 0.11800
H 	H 	0.35630 0.16530 0.57840 0.14200
C 	C 	0.44420 0.19860 0.59600 0.23100
H 	H 	0.52720 0.24750 0.61790 0.12400
N 	N 	0.21190 0.67490 0.42460 -0.16400
N 	N 	0.46030 0.14060 0.56760 -0.17100
C 	C 	0.24400 0.72550 0.41360 0.09800
C 	C 	0.15340 0.65740 0.37840 0.10000
C 	C 	0.42090 0.11870 0.50630 0.09300
C 	C 	0.51730 0.11050 0.59920 0.10200
H 	H 	0.28330 0.73890 0.44680 -0.00200
C 	C 	0.22030 0.75810 0.35440 -0.14600
C 	C 	0.12650 0.69020 0.31940 -0.12700
H 	H 	0.13090 0.62280 0.38660 0.01000
H 	H 	0.38280 0.14180 0.48190 0.03500
C 	C 	0.43510 0.06490 0.48000 -0.14400
C 	C 	0.53480 0.05600 0.57430 -0.14600
H 	H 	0.54610 0.12720 0.63970 0.00700
H 	H 	0.24410 0.79210 0.34720 0.08000
C 	C 	0.16110 0.74030 0.30570 0.07300
H 	H 	0.08530 0.67900 0.28850 0.09800
H 	H 	0.40680 0.05120 0.43810 0.10700
C 	C 	0.49070 0.02950 0.51390 0.07200
H 	H 	0.57530 0.03680 0.59680 0.10500
C 	C 	0.13350 0.77440 0.23970 0.08700
C 	C 	0.15300 0.83790 0.23320 -0.13000
C 	C 	0.08700 0.74340 0.18550 -0.13000
H 	H 	0.18560 0.85910 0.26870 0.08700
C 	C 	0.12370 0.87020 0.17340 0.11100
C 	C 	0.06080 0.77590 0.12670 0.11100
H 	H 	0.07350 0.70020 0.18900 0.10400
H 	H 	0.13560 0.91390 0.16930 0.01300
N 	N 	0.07860 0.83950 0.12180 -0.15500
H 	H 	0.03060 0.75430 0.08980 -0.00200
C 	C 	0.04650 0.87320 0.05820 0.13000
C 	C 	0.08320 0.90720 0.03350 -0.16500
C 	C 	0.98090 0.87060 0.02590 -0.13500
H 	H 	0.12760 0.91040 0.05740 0.12000
C 	C 	0.05190 0.93650 0.97170 0.06100
C 	C 	0.95070 0.89940 0.96460 0.08300
H 	H 	0.95700 0.84990 0.04470 0.09800
H 	H 	0.07580 0.95930 0.95400 0.02200
C 	C 	0.98570 0.93190 0.93650 -0.14300
H 	H 	0.90610 0.89700 0.94170 0.01200
C 	C 	0.95260 0.96010 0.86850 0.47400
O 	O 	0.42270 0.42200 0.68320 -0.26900
Eu	Eu	0.00000 0.99227 0.25000 2.12600
N 	N 	-0.00000 0.84110 0.25000 0.04100
O 	O 	0.00000 0.77760 0.25000 -0.14300
Eu	Eu	0.50000 0.49227 0.25000 2.21300
N 	N 	0.50000 0.34110 0.25000 0.05800
O 	O 	0.50000 0.27760 0.25000 -0.12800
Eu	Eu	-0.00000 0.00773 0.75000 2.12500
N 	N 	-0.00000 0.15890 0.75000 0.04100
O 	O 	-0.00000 0.22240 0.75000 -0.14300
Eu	Eu	0.50000 0.50773 0.75000 2.21300
N 	N 	0.50000 0.65890 0.75000 0.05800
O 	O 	0.50000 0.72240 0.75000 -0.12800
