data_crystal

_cell_length_a 34.56500
_cell_length_b 34.56500
_cell_length_c 8.33370
_cell_angle_alpha 90.00000
_cell_angle_beta  90.00000
_cell_angle_gamma 120.00000

_symmetry_space_group_name_	'P 1'
_symmetry_space_group_name_H-M	'P 1'

loop_
_symmetry_equiv_pos_as_xyz
  x,y,z

loop_
_atom_site_label
_atom_site_type_symbol
_atom_site_fract_x
_atom_site_fract_y
_atom_site_fract_z
_atom_site_charge
Ag	Ag	0.32285 0.14043 0.49754 0.55900
O 	O 	0.01134 0.66880 0.64573 -0.19100
N 	N 	0.34402 0.20066 0.35100 -0.16700
N 	N 	0.20911 0.28324 0.39330 -0.16600
C 	C 	0.32400 0.22570 0.36170 0.02200
H 	H 	0.29890 0.21590 0.42650 0.06300
C 	C 	0.33994 0.26555 0.27800 -0.03400
C 	C 	0.04327 0.61273 0.51073 0.02200
H 	H 	0.05497 0.63963 0.45523 0.09100
C 	C 	0.06217 0.58603 0.49463 -0.09800
H 	H 	0.75253 0.92727 0.75767 0.14800
C 	C 	0.37870 0.21390 0.25100 0.05900
H 	H 	0.39200 0.19640 0.24140 0.04500
C 	C 	0.32010 0.29515 0.30150 0.16800
C 	C 	0.25300 0.29770 0.38890 0.06900
H 	H 	0.27240 0.32410 0.44190 0.04500
C 	C 	0.27090 0.27490 0.30840 -0.03800
C 	C 	0.90867 0.56883 0.56043 0.05200
H 	H 	0.91957 0.55293 0.50473 0.07100
C 	C 	0.19690 0.22080 0.23170 -0.07200
H 	H 	0.84357 0.52813 0.51133 0.17500
C 	C 	0.18160 0.24490 0.31660 0.09600
H 	H 	0.15100 0.23410 0.32070 0.07200
C 	C 	0.41620 0.15740 0.54970 0.28100
O 	O 	0.39800 0.13960 0.42220 -0.23400
O 	O 	0.73193 0.83207 0.32987 -0.26100
C 	C 	0.79693 0.84217 0.20757 0.27200
F 	F 	0.48020 0.15560 0.45390 -0.35300
F 	F 	0.83123 0.89077 0.19967 -0.27000
C 	C 	0.81413 0.83867 0.37097 0.76400
F 	F 	0.78683 0.79407 0.39797 -0.47300
F 	F 	0.80803 0.86627 0.48167 -0.37700
F 	F 	0.85863 0.85527 0.36567 -0.33200
Ag	Ag	0.98952 0.47376 0.83087 0.55800
O 	O 	0.67800 0.00214 0.97907 -0.19200
N 	N 	0.01069 0.53399 0.68433 -0.16800
N 	N 	0.87578 0.61657 0.72663 -0.16700
C 	C 	0.99067 0.55903 0.69503 0.02100
H 	H 	0.96557 0.54923 0.75983 0.06200
C 	C 	0.00661 0.59888 0.61133 -0.03500
C 	C 	0.70993 0.94607 0.84407 0.02100
H 	H 	0.72163 0.97297 0.78857 0.09100
C 	C 	0.72883 0.91937 0.82797 -0.09900
H 	H 	0.41920 0.26060 0.09100 0.14800
C 	C 	0.04537 0.54723 0.58433 0.05900
H 	H 	0.05867 0.52973 0.57473 0.04500
C 	C 	0.98677 0.62848 0.63483 0.16800
C 	C 	0.91967 0.63103 0.72223 0.06900
H 	H 	0.93907 0.65743 0.77523 0.04500
C 	C 	0.93757 0.60823 0.64173 -0.03800
C 	C 	0.57533 0.90217 0.89377 0.05300
H 	H 	0.58623 0.88627 0.83807 0.07100
C 	C 	0.86357 0.55413 0.56503 -0.07200
H 	H 	0.51023 0.86147 0.84467 0.17600
C 	C 	0.84827 0.57823 0.64993 0.09600
H 	H 	0.81767 0.56743 0.65403 0.07100
C 	C 	0.08287 0.49073 0.88303 0.28100
O 	O 	0.06467 0.47293 0.75553 -0.23400
O 	O 	0.39860 0.16540 0.66320 -0.26200
C 	C 	0.46360 0.17550 0.54090 0.27200
F 	F 	0.14687 0.48893 0.78723 -0.35300
F 	F 	0.49790 0.22410 0.53300 -0.27000
C 	C 	0.48080 0.17200 0.70430 0.76400
F 	F 	0.45350 0.12740 0.73130 -0.47400
F 	F 	0.47470 0.19960 0.81500 -0.37800
F 	F 	0.52530 0.18860 0.69900 -0.33300
Ag	Ag	0.65618 0.80710 0.16421 0.55800
O 	O 	0.34467 0.33547 0.31240 -0.19200
N 	N 	0.67735 0.86733 0.01767 -0.16800
N 	N 	0.54244 0.94991 0.05997 -0.16700
C 	C 	0.65733 0.89237 0.02837 0.02000
H 	H 	0.63223 0.88257 0.09317 0.06300
C 	C 	0.67327 0.93222 0.94467 -0.03400
C 	C 	0.37660 0.27940 0.17740 0.02100
H 	H 	0.38830 0.30630 0.12190 0.09100
C 	C 	0.39550 0.25270 0.16130 -0.09800
H 	H 	0.08587 0.59393 0.42433 0.14700
C 	C 	0.71203 0.88057 0.91767 0.06000
H 	H 	0.72533 0.86307 0.90807 0.04500
C 	C 	0.65343 0.96182 0.96817 0.16800
C 	C 	0.58633 0.96437 0.05557 0.06800
H 	H 	0.60573 0.99077 0.10857 0.04500
C 	C 	0.60423 0.94157 0.97507 -0.03700
C 	C 	0.24200 0.23550 0.22710 0.05300
H 	H 	0.25290 0.21960 0.17140 0.07100
C 	C 	0.53023 0.88747 0.89837 -0.07200
H 	H 	0.17690 0.19480 0.17800 0.17600
C 	C 	0.51493 0.91157 0.98327 0.09700
H 	H 	0.48433 0.90077 0.98737 0.07100
C 	C 	0.74953 0.82407 0.21637 0.28100
O 	O 	0.73133 0.80627 0.08887 -0.23500
O 	O 	0.06527 0.49873 0.99653 -0.26100
C 	C 	0.13027 0.50883 0.87423 0.27200
F 	F 	0.81353 0.82227 0.12057 -0.35300
F 	F 	0.16457 0.55743 0.86633 -0.27000
C 	C 	0.14747 0.50533 1.03763 0.76400
F 	F 	0.12017 0.46073 1.06463 -0.47300
F 	F 	0.14137 0.53293 1.14833 -0.37700
F 	F 	0.19197 0.52193 1.03233 -0.33100
Ag	Ag	0.85957 0.18242 0.49754 0.55800
O 	O 	0.33120 0.34253 0.64573 -0.19200
N 	N 	0.79934 0.14336 0.35100 -0.16800
N 	N 	0.71676 0.92587 0.39330 -0.16700
C 	C 	0.77430 0.09830 0.36170 0.02100
H 	H 	0.78410 0.08300 0.42650 0.06200
C 	C 	0.73445 0.07439 0.27800 -0.03500
C 	C 	0.38727 0.43053 0.51073 0.02100
H 	H 	0.36037 0.41533 0.45523 0.09100
C 	C 	0.41397 0.47613 0.49463 -0.09800
H 	H 	0.07273 0.82527 0.75767 0.14800
C 	C 	0.78610 0.16480 0.25100 0.05900
H 	H 	0.80360 0.19560 0.24140 0.04500
C 	C 	0.70485 0.02495 0.30150 0.16800
C 	C 	0.70230 0.95530 0.38890 0.06900
H 	H 	0.67590 0.94830 0.44190 0.04500
C 	C 	0.72510 0.99600 0.30840 -0.03800
C 	C 	0.43117 0.33983 0.56043 0.05200
H 	H 	0.44707 0.36663 0.50473 0.07100
C 	C 	0.77920 0.97610 0.23170 -0.07200
H 	H 	0.47187 0.31543 0.51133 0.17500
C 	C 	0.75510 0.93670 0.31660 0.09600
H 	H 	0.76590 0.91690 0.32070 0.07200
C 	C 	0.84260 0.25880 0.54970 0.28100
O 	O 	0.86040 0.25840 0.42220 -0.23400
O 	O 	0.16793 0.89987 0.32987 -0.26100
C 	C 	0.15783 0.95477 0.20757 0.27200
F 	F 	0.84440 0.32460 0.45390 -0.35300
F 	F 	0.10923 0.94047 0.19967 -0.27000
C 	C 	0.16133 0.97547 0.37097 0.76400
F 	F 	0.20593 0.99277 0.39797 -0.47300
F 	F 	0.13373 0.94177 0.48167 -0.37700
F 	F 	0.14473 1.00337 0.36567 -0.33200
Ag	Ag	0.52624 0.51575 0.83087 0.55800
O 	O 	0.99786 0.67587 0.97907 -0.19200
N 	N 	0.46601 0.47669 0.68433 -0.16800
N 	N 	0.38343 0.25920 0.72663 -0.16700
C 	C 	0.44097 0.43163 0.69503 0.02100
H 	H 	0.45077 0.41633 0.75983 0.06200
C 	C 	0.40112 0.40772 0.61133 -0.03500
C 	C 	0.05393 0.76387 0.84407 0.02100
H 	H 	0.02703 0.74867 0.78857 0.09100
C 	C 	0.08063 0.80947 0.82797 -0.09800
H 	H 	0.73940 0.15860 0.09100 0.14800
C 	C 	0.45277 0.49813 0.58433 0.05900
H 	H 	0.47027 0.52893 0.57473 0.04500
C 	C 	0.37152 0.35828 0.63483 0.16800
C 	C 	0.36897 0.28863 0.72223 0.06900
H 	H 	0.34257 0.28163 0.77523 0.04500
C 	C 	0.39177 0.32933 0.64173 -0.03800
C 	C 	0.09783 0.67317 0.89377 0.05300
H 	H 	0.11373 0.69997 0.83807 0.07100
C 	C 	0.44587 0.30943 0.56503 -0.07200
H 	H 	0.13853 0.64877 0.84467 0.17600
C 	C 	0.42177 0.27003 0.64993 0.09600
H 	H 	0.43257 0.25023 0.65403 0.07100
C 	C 	0.50927 0.59213 0.88303 0.28100
O 	O 	0.52707 0.59173 0.75553 -0.23500
O 	O 	0.83460 0.23320 0.66320 -0.26200
C 	C 	0.82450 0.28810 0.54090 0.27200
F 	F 	0.51107 0.65793 0.78723 -0.35300
F 	F 	0.77590 0.27380 0.53300 -0.27000
C 	C 	0.82800 0.30880 0.70430 0.76400
F 	F 	0.87260 0.32610 0.73130 -0.47400
F 	F 	0.80040 0.27510 0.81500 -0.37800
F 	F 	0.81140 0.33670 0.69900 -0.33300
Ag	Ag	0.19290 0.84909 0.16421 0.55800
O 	O 	0.66453 0.00920 0.31240 -0.19200
N 	N 	0.13267 0.81003 0.01767 -0.16800
N 	N 	0.05009 0.59254 0.05997 -0.16700
C 	C 	0.10763 0.76497 0.02837 0.02000
H 	H 	0.11743 0.74967 0.09317 0.06300
C 	C 	0.06778 0.74106 0.94467 -0.03400
C 	C 	0.72060 0.09720 0.17740 0.02100
H 	H 	0.69370 0.08200 0.12190 0.09100
C 	C 	0.74730 0.14280 0.16130 -0.09800
H 	H 	0.40607 0.49193 0.42433 0.14700
C 	C 	0.11943 0.83147 0.91767 0.06000
H 	H 	0.13693 0.86227 0.90807 0.04500
C 	C 	0.03818 0.69162 0.96817 0.16800
C 	C 	0.03563 0.62197 0.05557 0.06800
H 	H 	0.00923 0.61497 0.10857 0.04500
C 	C 	0.05843 0.66267 0.97507 -0.03700
C 	C 	0.76450 0.00650 0.22710 0.05200
H 	H 	0.78040 0.03330 0.17140 0.07100
C 	C 	0.11253 0.64277 0.89837 -0.07200
H 	H 	0.80520 0.98210 0.17800 0.17600
C 	C 	0.08843 0.60337 0.98327 0.09700
H 	H 	0.09923 0.58357 0.98737 0.07100
C 	C 	0.17593 0.92547 0.21637 0.28100
O 	O 	0.19373 0.92507 0.08887 -0.23500
O 	O 	0.50127 0.56653 0.99653 -0.26100
C 	C 	0.49117 0.62143 0.87423 0.27200
F 	F 	0.17773 0.99127 0.12057 -0.35300
F 	F 	0.44257 0.60713 0.86633 -0.27000
C 	C 	0.49467 0.64213 1.03763 0.76400
F 	F 	0.53927 0.65943 1.06463 -0.47300
F 	F 	0.46707 0.60843 1.14833 -0.37700
F 	F 	0.47807 0.67003 1.03233 -0.33100
Ag	Ag	0.81758 0.67715 0.49754 0.55800
O 	O 	0.65747 0.98866 0.64573 -0.19200
N 	N 	0.85664 0.65598 0.35100 -0.16800
N 	N 	0.07413 0.79089 0.39330 -0.16700
C 	C 	0.90170 0.67600 0.36170 0.02100
H 	H 	0.91700 0.70110 0.42650 0.06200
C 	C 	0.92561 0.66006 0.27800 -0.03500
C 	C 	0.56947 0.95673 0.51073 0.02100
H 	H 	0.58467 0.94503 0.45523 0.09100
C 	C 	0.52387 0.93783 0.49463 -0.09800
H 	H 	0.17473 0.24747 0.75767 0.14800
C 	C 	0.83520 0.62130 0.25100 0.05900
H 	H 	0.80440 0.60800 0.24140 0.04500
C 	C 	0.97505 0.67990 0.30150 0.16800
C 	C 	0.04470 0.74700 0.38890 0.06900
H 	H 	0.05170 0.72760 0.44190 0.04500
C 	C 	0.00400 0.72910 0.30840 -0.03800
C 	C 	0.66017 0.09133 0.56043 0.05200
H 	H 	0.63337 0.08043 0.50473 0.07100
C 	C 	0.02390 0.80310 0.23170 -0.07200
H 	H 	0.68457 0.15643 0.51133 0.17500
C 	C 	0.06330 0.81840 0.31660 0.09600
H 	H 	0.08310 0.84900 0.32070 0.07100
C 	C 	0.74120 0.58380 0.54970 0.28100
O 	O 	0.74160 0.60200 0.42220 -0.23400
O 	O 	0.10013 0.26807 0.32987 -0.26100
C 	C 	0.04523 0.20307 0.20757 0.27200
F 	F 	0.67540 0.51980 0.45390 -0.35300
F 	F 	0.05953 0.16877 0.19967 -0.27000
C 	C 	0.02453 0.18587 0.37097 0.76400
F 	F 	0.00723 0.21317 0.39797 -0.47300
F 	F 	0.05823 0.19197 0.48167 -0.37700
F 	F 	-0.00337 0.14137 0.36567 -0.33200
Ag	Ag	0.48425 0.01048 0.83087 0.55800
O 	O 	0.32413 0.32200 0.97907 -0.19200
N 	N 	0.52331 0.98931 0.68433 -0.16800
N 	N 	0.74080 0.12422 0.72663 -0.16700
C 	C 	0.56837 0.00933 0.69503 0.02100
H 	H 	0.58367 0.03443 0.75983 0.06200
C 	C 	0.59228 0.99339 0.61133 -0.03500
C 	C 	0.23613 0.29007 0.84407 0.02100
H 	H 	0.25133 0.27837 0.78857 0.09100
C 	C 	0.19053 0.27117 0.82797 -0.09800
H 	H 	0.84140 0.58080 0.09100 0.14800
C 	C 	0.50187 0.95463 0.58433 0.05900
H 	H 	0.47107 0.94133 0.57473 0.04500
C 	C 	0.64172 0.01323 0.63483 0.16800
C 	C 	0.71137 0.08033 0.72223 0.06900
H 	H 	0.71837 0.06093 0.77523 0.04500
C 	C 	0.67067 0.06243 0.64173 -0.03800
C 	C 	0.32683 0.42467 0.89377 0.05300
H 	H 	0.30003 0.41377 0.83807 0.07100
C 	C 	0.69057 0.13643 0.56503 -0.07200
H 	H 	0.35123 0.48977 0.84467 0.17600
C 	C 	0.72997 0.15173 0.64993 0.09600
H 	H 	0.74977 0.18233 0.65403 0.07100
C 	C 	0.40787 0.91713 0.88303 0.28100
O 	O 	0.40827 0.93533 0.75553 -0.23400
O 	O 	0.76680 0.60140 0.66320 -0.26200
C 	C 	0.71190 0.53640 0.54090 0.27200
F 	F 	0.34207 0.85313 0.78723 -0.35300
F 	F 	0.72620 0.50210 0.53300 -0.27000
C 	C 	0.69120 0.51920 0.70430 0.76400
F 	F 	0.67390 0.54650 0.73130 -0.47400
F 	F 	0.72490 0.52530 0.81500 -0.37800
F 	F 	0.66330 0.47470 0.69900 -0.33300
Ag	Ag	0.15091 0.34382 0.16421 0.55800
O 	O 	0.99080 0.65533 0.31240 -0.19200
N 	N 	0.18997 0.32265 0.01767 -0.16800
N 	N 	0.40746 0.45756 0.05997 -0.16700
C 	C 	0.23503 0.34267 0.02837 0.02000
H 	H 	0.25033 0.36777 0.09317 0.06300
C 	C 	0.25894 0.32673 0.94467 -0.03400
C 	C 	0.90280 0.62340 0.17740 0.02100
H 	H 	0.91800 0.61170 0.12190 0.09100
C 	C 	0.85720 0.60450 0.16130 -0.09800
H 	H 	0.50807 0.91413 0.42433 0.14700
C 	C 	0.16853 0.28797 0.91767 0.06000
H 	H 	0.13773 0.27467 0.90807 0.04500
C 	C 	0.30838 0.34657 0.96817 0.16800
C 	C 	0.37803 0.41367 0.05557 0.06800
H 	H 	0.38503 0.39427 0.10857 0.04500
C 	C 	0.33733 0.39577 0.97507 -0.03700
C 	C 	0.99350 0.75800 0.22710 0.05300
H 	H 	0.96670 0.74710 0.17140 0.07100
C 	C 	0.35723 0.46977 0.89837 -0.07200
H 	H 	0.01790 0.82310 0.17800 0.17600
C 	C 	0.39663 0.48507 0.98327 0.09700
H 	H 	0.41643 0.51567 0.98737 0.07100
C 	C 	0.07453 0.25047 0.21637 0.28100
O 	O 	0.07493 0.26867 0.08887 -0.23500
O 	O 	0.43347 0.93473 0.99653 -0.26100
C 	C 	0.37857 0.86973 0.87423 0.27200
F 	F 	0.00873 0.18647 0.12057 -0.35300
F 	F 	0.39287 0.83543 0.86633 -0.27000
C 	C 	0.35787 0.85253 1.03763 0.76400
F 	F 	0.34057 0.87983 1.06463 -0.47300
F 	F 	0.39157 0.85863 1.14833 -0.37700
F 	F 	0.32997 0.80803 1.03233 -0.33100
Ag	Ag	0.67715 0.85957 0.50246 0.55800
O 	O 	0.98866 0.33120 0.35427 -0.19200
N 	N 	0.65598 0.79934 0.64900 -0.16800
N 	N 	0.79089 0.71676 0.60670 -0.16700
C 	C 	0.67600 0.77430 0.63830 0.02100
H 	H 	0.70110 0.78410 0.57350 0.06200
C 	C 	0.66006 0.73445 0.72200 -0.03500
C 	C 	0.95673 0.38727 0.48927 0.02100
H 	H 	0.94503 0.36037 0.54477 0.09100
C 	C 	0.93783 0.41397 0.50537 -0.09800
H 	H 	0.24747 0.07273 0.24233 0.14800
C 	C 	0.62130 0.78610 0.74900 0.05900
H 	H 	0.60800 0.80360 0.75860 0.04500
C 	C 	0.67990 0.70485 0.69850 0.16800
C 	C 	0.74700 0.70230 0.61110 0.06900
H 	H 	0.72760 0.67590 0.55810 0.04500
C 	C 	0.72910 0.72510 0.69160 -0.03800
C 	C 	0.09133 0.43117 0.43957 0.05200
H 	H 	0.08043 0.44707 0.49527 0.07100
C 	C 	0.80310 0.77920 0.76830 -0.07200
H 	H 	0.15643 0.47187 0.48867 0.17500
C 	C 	0.81840 0.75510 0.68340 0.09600
H 	H 	0.84900 0.76590 0.67930 0.07200
C 	C 	0.58380 0.84260 0.45030 0.28100
O 	O 	0.60200 0.86040 0.57780 -0.23400
O 	O 	0.26807 0.16793 0.67013 -0.26100
C 	C 	0.20307 0.15783 0.79243 0.27200
F 	F 	0.51980 0.84440 0.54610 -0.35300
F 	F 	0.16877 0.10923 0.80033 -0.27000
C 	C 	0.18587 0.16133 0.62903 0.76400
F 	F 	0.21317 0.20593 0.60203 -0.47300
F 	F 	0.19197 0.13373 0.51833 -0.37700
F 	F 	0.14137 0.14473 0.63433 -0.33200
Ag	Ag	0.34382 0.19290 0.83579 0.55800
O 	O 	0.65533 0.66453 0.68760 -0.19200
N 	N 	0.32265 0.13267 0.98233 -0.16800
N 	N 	0.45756 0.05009 0.94003 -0.16700
C 	C 	0.34267 0.10763 0.97163 0.02000
H 	H 	0.36777 0.11743 0.90683 0.06300
C 	C 	0.32673 0.06778 0.05533 -0.03400
C 	C 	0.62340 0.72060 0.82260 0.02100
H 	H 	0.61170 0.69370 0.87810 0.09100
C 	C 	0.60450 0.74730 0.83870 -0.09800
H 	H 	0.91413 0.40607 0.57567 0.14700
C 	C 	0.28797 0.11943 0.08233 0.06000
H 	H 	0.27467 0.13693 0.09193 0.04500
C 	C 	0.34657 0.03818 0.03183 0.16800
C 	C 	0.41367 0.03563 0.94443 0.06800
H 	H 	0.39427 0.00923 0.89143 0.04500
C 	C 	0.39577 0.05843 0.02493 -0.03700
C 	C 	0.75800 0.76450 0.77290 0.05300
H 	H 	0.74710 0.78040 0.82860 0.07100
C 	C 	0.46977 0.11253 0.10163 -0.07200
H 	H 	0.82310 0.80520 0.82200 0.17600
C 	C 	0.48507 0.08843 0.01673 0.09700
H 	H 	0.51567 0.09923 0.01263 0.07100
C 	C 	0.25047 0.17593 0.78363 0.28100
O 	O 	0.26867 0.19373 0.91113 -0.23500
O 	O 	0.93473 0.50127 0.00347 -0.26100
C 	C 	0.86973 0.49117 0.12577 0.27200
F 	F 	0.18647 0.17773 0.87943 -0.35300
F 	F 	0.83543 0.44257 0.13367 -0.27000
C 	C 	0.85253 0.49467 -0.03763 0.76400
F 	F 	0.87983 0.53927 -0.06463 -0.47300
F 	F 	0.85863 0.46707 -0.14833 -0.37700
F 	F 	0.80803 0.47807 -0.03233 -0.33100
Ag	Ag	0.01048 0.52624 0.16913 0.55800
O 	O 	0.32200 0.99786 0.02093 -0.19200
N 	N 	0.98931 0.46601 0.31567 -0.16800
N 	N 	0.12422 0.38343 0.27337 -0.16700
C 	C 	0.00933 0.44097 0.30497 0.02100
H 	H 	0.03443 0.45077 0.24017 0.06200
C 	C 	0.99339 0.40112 0.38867 -0.03500
C 	C 	0.29007 0.05393 0.15593 0.02100
H 	H 	0.27837 0.02703 0.21143 0.09100
C 	C 	0.27117 0.08063 0.17203 -0.09900
H 	H 	0.58080 0.73940 0.90900 0.14800
C 	C 	0.95463 0.45277 0.41567 0.05900
H 	H 	0.94133 0.47027 0.42527 0.04500
C 	C 	0.01323 0.37152 0.36517 0.16800
C 	C 	0.08033 0.36897 0.27777 0.06900
H 	H 	0.06093 0.34257 0.22477 0.04500
C 	C 	0.06243 0.39177 0.35827 -0.03800
C 	C 	0.42467 0.09783 0.10623 0.05300
H 	H 	0.41377 0.11373 0.16193 0.07100
C 	C 	0.13643 0.44587 0.43497 -0.07200
H 	H 	0.48977 0.13853 0.15533 0.17600
C 	C 	0.15173 0.42177 0.35007 0.09600
H 	H 	0.18233 0.43257 0.34597 0.07100
C 	C 	0.91713 0.50927 0.11697 0.28100
O 	O 	0.93533 0.52707 0.24447 -0.23400
O 	O 	0.60140 0.83460 0.33680 -0.26200
C 	C 	0.53640 0.82450 0.45910 0.27200
F 	F 	0.85313 0.51107 0.21277 -0.35300
F 	F 	0.50210 0.77590 0.46700 -0.27000
C 	C 	0.51920 0.82800 0.29570 0.76400
F 	F 	0.54650 0.87260 0.26870 -0.47400
F 	F 	0.52530 0.80040 0.18500 -0.37800
F 	F 	0.47470 0.81140 0.30100 -0.33300
Ag	Ag	0.14043 0.81758 0.50246 0.55800
O 	O 	0.66880 0.65747 0.35427 -0.19200
N 	N 	0.20066 0.85664 0.64900 -0.16800
N 	N 	0.28324 0.07413 0.60670 -0.16700
C 	C 	0.22570 0.90170 0.63830 0.02100
H 	H 	0.21590 0.91700 0.57350 0.06200
C 	C 	0.26555 0.92561 0.72200 -0.03500
C 	C 	0.61273 0.56947 0.48927 0.02100
H 	H 	0.63963 0.58467 0.54477 0.09100
C 	C 	0.58603 0.52387 0.50537 -0.09800
H 	H 	0.92727 0.17473 0.24233 0.14800
C 	C 	0.21390 0.83520 0.74900 0.05900
H 	H 	0.19640 0.80440 0.75860 0.04500
C 	C 	0.29515 0.97505 0.69850 0.16800
C 	C 	0.29770 0.04470 0.61110 0.06900
H 	H 	0.32410 0.05170 0.55810 0.04500
C 	C 	0.27490 0.00400 0.69160 -0.03800
C 	C 	0.56883 0.66017 0.43957 0.05200
H 	H 	0.55293 0.63337 0.49527 0.07100
C 	C 	0.22080 0.02390 0.76830 -0.07200
H 	H 	0.52813 0.68457 0.48867 0.17500
C 	C 	0.24490 0.06330 0.68340 0.09600
H 	H 	0.23410 0.08310 0.67930 0.07200
C 	C 	0.15740 0.74120 0.45030 0.28100
O 	O 	0.13960 0.74160 0.57780 -0.23400
O 	O 	0.83207 0.10013 0.67013 -0.26100
C 	C 	0.84217 0.04523 0.79243 0.27200
F 	F 	0.15560 0.67540 0.54610 -0.35300
F 	F 	0.89077 0.05953 0.80033 -0.27000
C 	C 	0.83867 0.02453 0.62903 0.76400
F 	F 	0.79407 0.00723 0.60203 -0.47300
F 	F 	0.86627 0.05823 0.51833 -0.37700
F 	F 	0.85527 -0.00337 0.63433 -0.33200
Ag	Ag	0.80710 0.15091 0.83579 0.55800
O 	O 	0.33547 0.99080 0.68760 -0.19200
N 	N 	0.86733 0.18997 0.98233 -0.16800
N 	N 	0.94991 0.40746 0.94003 -0.16700
C 	C 	0.89237 0.23503 0.97163 0.02000
H 	H 	0.88257 0.25033 0.90683 0.06300
C 	C 	0.93222 0.25894 0.05533 -0.03400
C 	C 	0.27940 0.90280 0.82260 0.02100
H 	H 	0.30630 0.91800 0.87810 0.09100
C 	C 	0.25270 0.85720 0.83870 -0.09800
H 	H 	0.59393 0.50807 0.57567 0.14700
C 	C 	0.88057 0.16853 0.08233 0.06000
H 	H 	0.86307 0.13773 0.09193 0.04500
C 	C 	0.96182 0.30838 0.03183 0.16800
C 	C 	0.96437 0.37803 0.94443 0.06800
H 	H 	0.99077 0.38503 0.89143 0.04500
C 	C 	0.94157 0.33733 0.02493 -0.03700
C 	C 	0.23550 0.99350 0.77290 0.05200
H 	H 	0.21960 0.96670 0.82860 0.07100
C 	C 	0.88747 0.35723 0.10163 -0.07200
H 	H 	0.19480 0.01790 0.82200 0.17600
C 	C 	0.91157 0.39663 0.01673 0.09700
H 	H 	0.90077 0.41643 0.01263 0.07100
C 	C 	0.82407 0.07453 0.78363 0.28100
O 	O 	0.80627 0.07493 0.91113 -0.23500
O 	O 	0.49873 0.43347 0.00347 -0.26100
C 	C 	0.50883 0.37857 0.12577 0.27200
F 	F 	0.82227 0.00873 0.87943 -0.35300
F 	F 	0.55743 0.39287 0.13367 -0.27000
C 	C 	0.50533 0.35787 -0.03763 0.76400
F 	F 	0.46073 0.34057 -0.06463 -0.47300
F 	F 	0.53293 0.39157 -0.14833 -0.37700
F 	F 	0.52193 0.32997 -0.03233 -0.33100
Ag	Ag	0.47376 0.48425 0.16913 0.55800
O 	O 	0.00214 0.32413 0.02093 -0.19200
N 	N 	0.53399 0.52331 0.31567 -0.16800
N 	N 	0.61657 0.74080 0.27337 -0.16700
C 	C 	0.55903 0.56837 0.30497 0.02100
H 	H 	0.54923 0.58367 0.24017 0.06200
C 	C 	0.59888 0.59228 0.38867 -0.03500
C 	C 	0.94607 0.23613 0.15593 0.02100
H 	H 	0.97297 0.25133 0.21143 0.09100
C 	C 	0.91937 0.19053 0.17203 -0.09800
H 	H 	0.26060 0.84140 0.90900 0.14800
C 	C 	0.54723 0.50187 0.41567 0.05900
H 	H 	0.52973 0.47107 0.42527 0.04500
C 	C 	0.62848 0.64172 0.36517 0.16800
C 	C 	0.63103 0.71137 0.27777 0.06900
H 	H 	0.65743 0.71837 0.22477 0.04500
C 	C 	0.60823 0.67067 0.35827 -0.03800
C 	C 	0.90217 0.32683 0.10623 0.05300
H 	H 	0.88627 0.30003 0.16193 0.07100
C 	C 	0.55413 0.69057 0.43497 -0.07200
H 	H 	0.86147 0.35123 0.15533 0.17600
C 	C 	0.57823 0.72997 0.35007 0.09600
H 	H 	0.56743 0.74977 0.34597 0.07100
C 	C 	0.49073 0.40787 0.11697 0.28100
O 	O 	0.47293 0.40827 0.24447 -0.23500
O 	O 	0.16540 0.76680 0.33680 -0.26200
C 	C 	0.17550 0.71190 0.45910 0.27200
F 	F 	0.48893 0.34207 0.21277 -0.35300
F 	F 	0.22410 0.72620 0.46700 -0.27000
C 	C 	0.17200 0.69120 0.29570 0.76400
F 	F 	0.12740 0.67390 0.26870 -0.47400
F 	F 	0.19960 0.72490 0.18500 -0.37800
F 	F 	0.18860 0.66330 0.30100 -0.33300
Ag	Ag	0.18242 0.32285 0.50246 0.55800
O 	O 	0.34253 0.01134 0.35427 -0.19200
N 	N 	0.14336 0.34402 0.64900 -0.16800
N 	N 	0.92587 0.20911 0.60670 -0.16700
C 	C 	0.09830 0.32400 0.63830 0.02100
H 	H 	0.08300 0.29890 0.57350 0.06200
C 	C 	0.07439 0.33994 0.72200 -0.03500
C 	C 	0.43053 0.04327 0.48927 0.02100
H 	H 	0.41533 0.05497 0.54477 0.09100
C 	C 	0.47613 0.06217 0.50537 -0.09800
H 	H 	0.82527 0.75253 0.24233 0.14800
C 	C 	0.16480 0.37870 0.74900 0.05900
H 	H 	0.19560 0.39200 0.75860 0.04500
C 	C 	0.02495 0.32010 0.69850 0.16800
C 	C 	0.95530 0.25300 0.61110 0.06900
H 	H 	0.94830 0.27240 0.55810 0.04500
C 	C 	0.99600 0.27090 0.69160 -0.03800
C 	C 	0.33983 0.90867 0.43957 0.05200
H 	H 	0.36663 0.91957 0.49527 0.07100
C 	C 	0.97610 0.19690 0.76830 -0.07200
H 	H 	0.31543 0.84357 0.48867 0.17500
C 	C 	0.93670 0.18160 0.68340 0.09600
H 	H 	0.91690 0.15100 0.67930 0.07100
C 	C 	0.25880 0.41620 0.45030 0.28100
O 	O 	0.25840 0.39800 0.57780 -0.23400
O 	O 	0.89987 0.73193 0.67013 -0.26100
C 	C 	0.95477 0.79693 0.79243 0.27200
F 	F 	0.32460 0.48020 0.54610 -0.35300
F 	F 	0.94047 0.83123 0.80033 -0.27000
C 	C 	0.97547 0.81413 0.62903 0.76400
F 	F 	0.99277 0.78683 0.60203 -0.47300
F 	F 	0.94177 0.80803 0.51833 -0.37700
F 	F 	1.00337 0.85863 0.63433 -0.33200
Ag	Ag	0.84909 0.65618 0.83579 0.55800
O 	O 	0.00920 0.34467 0.68760 -0.19200
N 	N 	0.81003 0.67735 0.98233 -0.16800
N 	N 	0.59254 0.54244 0.94003 -0.16700
C 	C 	0.76497 0.65733 0.97163 0.02000
H 	H 	0.74967 0.63223 0.90683 0.06300
C 	C 	0.74106 0.67327 0.05533 -0.03400
C 	C 	0.09720 0.37660 0.82260 0.02100
H 	H 	0.08200 0.38830 0.87810 0.09100
C 	C 	0.14280 0.39550 0.83870 -0.09800
H 	H 	0.49193 0.08587 0.57567 0.14700
C 	C 	0.83147 0.71203 0.08233 0.06000
H 	H 	0.86227 0.72533 0.09193 0.04500
C 	C 	0.69162 0.65343 0.03183 0.16800
C 	C 	0.62197 0.58633 0.94443 0.06800
H 	H 	0.61497 0.60573 0.89143 0.04500
C 	C 	0.66267 0.60423 0.02493 -0.03700
C 	C 	0.00650 0.24200 0.77290 0.05300
H 	H 	0.03330 0.25290 0.82860 0.07100
C 	C 	0.64277 0.53023 0.10163 -0.07200
H 	H 	0.98210 0.17690 0.82200 0.17600
C 	C 	0.60337 0.51493 0.01673 0.09700
H 	H 	0.58357 0.48433 0.01263 0.07100
C 	C 	0.92547 0.74953 0.78363 0.28100
O 	O 	0.92507 0.73133 0.91113 -0.23500
O 	O 	0.56653 0.06527 0.00347 -0.26100
C 	C 	0.62143 0.13027 0.12577 0.27200
F 	F 	0.99127 0.81353 0.87943 -0.35300
F 	F 	0.60713 0.16457 0.13367 -0.27000
C 	C 	0.64213 0.14747 -0.03763 0.76400
F 	F 	0.65943 0.12017 -0.06463 -0.47300
F 	F 	0.60843 0.14137 -0.14833 -0.37700
F 	F 	0.67003 0.19197 -0.03233 -0.33100
Ag	Ag	0.51575 0.98952 0.16913 0.55800
O 	O 	0.67587 0.67800 0.02093 -0.19200
N 	N 	0.47669 0.01069 0.31567 -0.16800
N 	N 	0.25920 0.87578 0.27337 -0.16700
C 	C 	0.43163 0.99067 0.30497 0.02100
H 	H 	0.41633 0.96557 0.24017 0.06200
C 	C 	0.40772 0.00661 0.38867 -0.03500
C 	C 	0.76387 0.70993 0.15593 0.02100
H 	H 	0.74867 0.72163 0.21143 0.09100
C 	C 	0.80947 0.72883 0.17203 -0.09800
H 	H 	0.15860 0.41920 0.90900 0.14800
C 	C 	0.49813 0.04537 0.41567 0.05900
H 	H 	0.52893 0.05867 0.42527 0.04500
C 	C 	0.35828 0.98677 0.36517 0.16800
C 	C 	0.28863 0.91967 0.27777 0.06900
H 	H 	0.28163 0.93907 0.22477 0.04500
C 	C 	0.32933 0.93757 0.35827 -0.03800
C 	C 	0.67317 0.57533 0.10623 0.05300
H 	H 	0.69997 0.58623 0.16193 0.07100
C 	C 	0.30943 0.86357 0.43497 -0.07200
H 	H 	0.64877 0.51023 0.15533 0.17600
C 	C 	0.27003 0.84827 0.35007 0.09600
H 	H 	0.25023 0.81767 0.34597 0.07100
C 	C 	0.59213 0.08287 0.11697 0.28100
O 	O 	0.59173 0.06467 0.24447 -0.23400
O 	O 	0.23320 0.39860 0.33680 -0.26200
C 	C 	0.28810 0.46360 0.45910 0.27200
F 	F 	0.65793 0.14687 0.21277 -0.35300
F 	F 	0.27380 0.49790 0.46700 -0.27000
C 	C 	0.30880 0.48080 0.29570 0.76400
F 	F 	0.32610 0.45350 0.26870 -0.47400
F 	F 	0.27510 0.47470 0.18500 -0.37800
F 	F 	0.33670 0.52530 0.30100 -0.33300
