data_crystal

_cell_length_a 34.69700
_cell_length_b 34.69700
_cell_length_c 8.40570
_cell_angle_alpha 90.00000
_cell_angle_beta  90.00000
_cell_angle_gamma 120.00000

_symmetry_space_group_name_	'P 1'
_symmetry_space_group_name_H-M	'P 1'

loop_
_symmetry_equiv_pos_as_xyz
  x,y,z

loop_
_atom_site_label
_atom_site_type_symbol
_atom_site_fract_x
_atom_site_fract_y
_atom_site_fract_z
_atom_site_charge
Ag	Ag	0.86100 0.18287 0.49955 0.56300
O 	O 	0.33293 0.34404 0.64793 -0.19300
N 	N 	0.80050 0.14370 0.35510 -0.17100
N 	N 	0.71800 0.92760 0.39600 -0.16800
C 	C 	0.78680 0.16480 0.25850 0.07700
H 	H 	0.80430 0.19550 0.24860 0.04000
C 	C 	0.41477 0.47663 0.50643 -0.12300
H 	H 	0.07303 0.82597 0.77367 0.16000
C 	C 	0.38877 0.43173 0.51913 0.04100
H 	H 	0.36217 0.41683 0.46343 0.07800
C 	C 	0.73580 0.07530 0.28250 -0.05000
C 	C 	0.77560 0.09950 0.36410 0.03400
H 	H 	0.78540 0.08420 0.42790 0.05900
C 	C 	0.70650 0.02630 0.30410 0.17300
C 	C 	0.72690 0.99760 0.31060 -0.04700
C 	C 	0.43147 0.34023 0.56513 0.05800
H 	H 	0.44717 0.36673 0.50883 0.07000
C 	C 	0.77990 0.97680 0.23590 -0.07500
H 	H 	0.47247 0.31593 0.51643 0.17600
C 	C 	0.75580 0.93840 0.31940 0.10200
H 	H 	0.76620 0.91840 0.32310 0.07500
C 	C 	0.70360 0.95660 0.39030 0.06900
H 	H 	0.67700 0.94940 0.44090 0.04200
C 	C 	0.84240 0.25730 0.55850 0.34900
O 	O 	0.16653 0.89737 0.32577 -0.30200
O 	O 	0.86020 0.25950 0.42970 -0.24600
C 	C 	0.16603 0.96437 0.26827 0.32100
F 	F 	0.19753 0.99277 0.37117 -0.37000
F 	F 	0.84290 0.32280 0.46900 -0.35100
C 	C 	0.12843 0.95567 0.38067 0.85600
F 	F 	0.13843 0.94057 0.50867 -0.44700
F 	F 	0.13253 0.99557 0.39467 -0.36400
F 	F 	0.09283 0.92597 0.30167 -0.42700
Ag	Ag	0.52767 0.51620 0.83288 0.56200
O 	O 	0.99959 0.67738 0.98127 -0.19400
N 	N 	0.46717 0.47703 0.68843 -0.17200
N 	N 	0.38467 0.26093 0.72933 -0.16900
C 	C 	0.45347 0.49813 0.59183 0.07500
H 	H 	0.47097 0.52883 0.58193 0.03800
C 	C 	0.08143 0.80997 0.83977 -0.12400
H 	H 	0.73970 0.15930 0.10700 0.15900
C 	C 	0.05543 0.76507 0.85247 0.04000
H 	H 	0.02883 0.75017 0.79677 0.07800
C 	C 	0.40247 0.40863 0.61583 -0.05000
C 	C 	0.44227 0.43283 0.69743 0.03400
H 	H 	0.45207 0.41753 0.76123 0.05900
C 	C 	0.37317 0.35963 0.63743 0.17300
C 	C 	0.39357 0.33093 0.64393 -0.04700
C 	C 	0.09813 0.67357 0.89847 0.05800
H 	H 	0.11383 0.70007 0.84217 0.07000
C 	C 	0.44657 0.31013 0.56923 -0.07500
H 	H 	0.13913 0.64927 0.84977 0.17700
C 	C 	0.42247 0.27173 0.65273 0.10200
H 	H 	0.43287 0.25173 0.65643 0.07500
C 	C 	0.37027 0.28993 0.72363 0.06800
H 	H 	0.34367 0.28273 0.77423 0.04200
C 	C 	0.50907 0.59063 0.89183 0.34900
O 	O 	0.83320 0.23070 0.65910 -0.30200
O 	O 	0.52687 0.59283 0.76303 -0.24600
C 	C 	0.83270 0.29770 0.60160 0.32100
F 	F 	0.86420 0.32610 0.70450 -0.37000
F 	F 	0.50957 0.65613 0.80233 -0.35100
C 	C 	0.79510 0.28900 0.71400 0.85600
F 	F 	0.80510 0.27390 0.84200 -0.44800
F 	F 	0.79920 0.32890 0.72800 -0.36500
F 	F 	0.75950 0.25930 0.63500 -0.42700
Ag	Ag	0.19433 0.84954 0.16622 0.56100
O 	O 	0.66626 0.01071 0.31460 -0.19400
N 	N 	0.13383 0.81037 0.02177 -0.17300
N 	N 	0.05133 0.59427 0.06267 -0.16900
C 	C 	0.12013 0.83147 0.92517 0.07700
H 	H 	0.13763 0.86217 0.91527 0.03800
C 	C 	0.74810 0.14330 0.17310 -0.12400
H 	H 	0.40637 0.49263 0.44033 0.15900
C 	C 	0.72210 0.09840 0.18580 0.04100
H 	H 	0.69550 0.08350 0.13010 0.07800
C 	C 	0.06913 0.74197 0.94917 -0.04800
C 	C 	0.10893 0.76617 0.03077 0.03200
H 	H 	0.11873 0.75087 0.09457 0.06000
C 	C 	0.03983 0.69297 0.97077 0.17300
C 	C 	0.06023 0.66427 0.97727 -0.04600
C 	C 	0.76480 0.00690 0.23180 0.05800
H 	H 	0.78050 0.03340 0.17550 0.07000
C 	C 	0.11323 0.64347 0.90257 -0.07500
H 	H 	0.80580 0.98260 0.18310 0.17700
C 	C 	0.08913 0.60507 0.98607 0.10300
H 	H 	0.09953 0.58507 0.98977 0.07500
C 	C 	0.03693 0.62327 0.05697 0.06700
H 	H 	0.01033 0.61607 0.10757 0.04200
C 	C 	0.17573 0.92397 0.22517 0.34900
O 	O 	0.49987 0.56403 0.99243 -0.30200
O 	O 	0.19353 0.92617 0.09637 -0.24700
C 	C 	0.49937 0.63103 0.93493 0.32100
F 	F 	0.53087 0.65943 1.03783 -0.37000
F 	F 	0.17623 0.98947 0.13567 -0.35100
C 	C 	0.46177 0.62233 1.04733 0.85600
F 	F 	0.47177 0.60723 1.17533 -0.44600
F 	F 	0.46587 0.66223 1.06133 -0.36400
F 	F 	0.42617 0.59263 0.96833 -0.42600
Ag	Ag	0.81713 0.67813 0.49955 0.56200
O 	O 	0.65596 0.98888 0.64793 -0.19400
N 	N 	0.85630 0.65680 0.35510 -0.17200
N 	N 	0.07240 0.79040 0.39600 -0.16900
C 	C 	0.83520 0.62200 0.25850 0.07600
H 	H 	0.80450 0.60880 0.24860 0.03900
C 	C 	0.52337 0.93813 0.50643 -0.12400
H 	H 	0.17403 0.24707 0.77367 0.15900
C 	C 	0.56827 0.95703 0.51913 0.04100
H 	H 	0.58317 0.94533 0.46343 0.07800
C 	C 	0.92470 0.66050 0.28250 -0.05000
C 	C 	0.90050 0.67610 0.36410 0.03400
H 	H 	0.91580 0.70120 0.42790 0.05900
C 	C 	0.97370 0.68020 0.30410 0.17300
C 	C 	0.00240 0.72930 0.31060 -0.04700
C 	C 	0.65977 0.09123 0.56513 0.05800
H 	H 	0.63327 0.08043 0.50883 0.07000
C 	C 	0.02320 0.80310 0.23590 -0.07600
H 	H 	0.68407 0.15653 0.51643 0.17600
C 	C 	0.06160 0.81740 0.31940 0.10200
H 	H 	0.08160 0.84780 0.32310 0.07500
C 	C 	0.04340 0.74700 0.39030 0.06900
H 	H 	0.05060 0.72760 0.44090 0.04200
C 	C 	0.74270 0.58510 0.55850 0.34900
O 	O 	0.10263 0.26917 0.32577 -0.30200
O 	O 	0.74050 0.60070 0.42970 -0.24600
C 	C 	0.03563 0.20167 0.26827 0.32100
F 	F 	0.00723 0.20477 0.37117 -0.37000
F 	F 	0.67720 0.52010 0.46900 -0.35100
C 	C 	0.04433 0.17277 0.38067 0.85600
F 	F 	0.05943 0.19787 0.50867 -0.44700
F 	F 	0.00443 0.13697 0.39467 -0.36400
F 	F 	0.07403 0.16687 0.30167 -0.42700
Ag	Ag	0.48380 0.01146 0.83288 0.56200
O 	O 	0.32262 0.32222 0.98127 -0.19400
N 	N 	0.52297 0.99013 0.68843 -0.17200
N 	N 	0.73907 0.12373 0.72933 -0.16900
C 	C 	0.50187 0.95533 0.59183 0.07500
H 	H 	0.47117 0.94213 0.58193 0.03800
C 	C 	0.19003 0.27147 0.83977 -0.12400
H 	H 	0.84070 0.58040 0.10700 0.15900
C 	C 	0.23493 0.29037 0.85247 0.04000
H 	H 	0.24983 0.27867 0.79677 0.07800
C 	C 	0.59137 0.99383 0.61583 -0.05000
C 	C 	0.56717 0.00943 0.69743 0.03400
H 	H 	0.58247 0.03453 0.76123 0.05900
C 	C 	0.64037 0.01353 0.63743 0.17300
C 	C 	0.66907 0.06263 0.64393 -0.04700
C 	C 	0.32643 0.42457 0.89847 0.05800
H 	H 	0.29993 0.41377 0.84217 0.07000
C 	C 	0.68987 0.13643 0.56923 -0.07500
H 	H 	0.35073 0.48987 0.84977 0.17700
C 	C 	0.72827 0.15073 0.65273 0.10200
H 	H 	0.74827 0.18113 0.65643 0.07500
C 	C 	0.71007 0.08033 0.72363 0.06800
H 	H 	0.71727 0.06093 0.77423 0.04200
C 	C 	0.40937 0.91843 0.89183 0.34900
O 	O 	0.76930 0.60250 0.65910 -0.30200
O 	O 	0.40717 0.93403 0.76303 -0.24600
C 	C 	0.70230 0.53500 0.60160 0.32100
F 	F 	0.67390 0.53810 0.70450 -0.37000
F 	F 	0.34387 0.85343 0.80233 -0.35100
C 	C 	0.71100 0.50610 0.71400 0.85600
F 	F 	0.72610 0.53120 0.84200 -0.44800
F 	F 	0.67110 0.47030 0.72800 -0.36500
F 	F 	0.74070 0.50020 0.63500 -0.42700
Ag	Ag	0.15046 0.34480 0.16622 0.56100
O 	O 	0.98929 0.65555 0.31460 -0.19400
N 	N 	0.18963 0.32347 0.02177 -0.17300
N 	N 	0.40573 0.45707 0.06267 -0.16900
C 	C 	0.16853 0.28867 0.92517 0.07600
H 	H 	0.13783 0.27547 0.91527 0.03800
C 	C 	0.85670 0.60480 0.17310 -0.12400
H 	H 	0.50737 0.91373 0.44033 0.15900
C 	C 	0.90160 0.62370 0.18580 0.04100
H 	H 	0.91650 0.61200 0.13010 0.07800
C 	C 	0.25803 0.32717 0.94917 -0.04800
C 	C 	0.23383 0.34277 0.03077 0.03200
H 	H 	0.24913 0.36787 0.09457 0.06000
C 	C 	0.30703 0.34687 0.97077 0.17300
C 	C 	0.33573 0.39597 0.97727 -0.04600
C 	C 	0.99310 0.75790 0.23180 0.05900
H 	H 	0.96660 0.74710 0.17550 0.07000
C 	C 	0.35653 0.46977 0.90257 -0.07500
H 	H 	0.01740 0.82320 0.18310 0.17700
C 	C 	0.39493 0.48407 0.98607 0.10300
H 	H 	0.41493 0.51447 0.98977 0.07500
C 	C 	0.37673 0.41367 0.05697 0.06800
H 	H 	0.38393 0.39427 0.10757 0.04200
C 	C 	0.07603 0.25177 0.22517 0.34900
O 	O 	0.43597 0.93583 0.99243 -0.30200
O 	O 	0.07383 0.26737 0.09637 -0.24700
C 	C 	0.36897 0.86833 0.93493 0.32100
F 	F 	0.34057 0.87143 1.03783 -0.37000
F 	F 	0.01053 0.18677 0.13567 -0.35100
C 	C 	0.37767 0.83943 1.04733 0.85600
F 	F 	0.39277 0.86453 1.17533 -0.44600
F 	F 	0.33777 0.80363 1.06133 -0.36400
F 	F 	0.40737 0.83353 0.96833 -0.42600
Ag	Ag	0.32187 0.13900 0.49955 0.56200
O 	O 	0.01112 0.66707 0.64793 -0.19400
N 	N 	0.34320 0.19950 0.35510 -0.17200
N 	N 	0.20960 0.28200 0.39600 -0.16900
C 	C 	0.37800 0.21320 0.25850 0.07600
H 	H 	0.39120 0.19570 0.24860 0.03900
C 	C 	0.06187 0.58523 0.50643 -0.12400
H 	H 	0.75293 0.92697 0.77367 0.15900
C 	C 	0.04297 0.61123 0.51913 0.04100
H 	H 	0.05467 0.63783 0.46343 0.07800
C 	C 	0.33950 0.26420 0.28250 -0.05000
C 	C 	0.32390 0.22440 0.36410 0.03400
H 	H 	0.29880 0.21460 0.42790 0.05900
C 	C 	0.31980 0.29350 0.30410 0.17300
C 	C 	0.27070 0.27310 0.31060 -0.04700
C 	C 	0.90877 0.56853 0.56513 0.05800
H 	H 	0.91957 0.55283 0.50883 0.07000
C 	C 	0.19690 0.22010 0.23590 -0.07500
H 	H 	0.84347 0.52753 0.51643 0.17600
C 	C 	0.18260 0.24420 0.31940 0.10200
H 	H 	0.15220 0.23380 0.32310 0.07500
C 	C 	0.25300 0.29640 0.39030 0.06900
H 	H 	0.27240 0.32300 0.44090 0.04200
C 	C 	0.41490 0.15760 0.55850 0.34900
O 	O 	0.73083 0.83347 0.32577 -0.30200
O 	O 	0.39930 0.13980 0.42970 -0.24600
C 	C 	0.79833 0.83397 0.26827 0.32100
F 	F 	0.79523 0.80247 0.37117 -0.37000
F 	F 	0.47990 0.15710 0.46900 -0.35100
C 	C 	0.82723 0.87157 0.38067 0.85600
F 	F 	0.80213 0.86157 0.50867 -0.44700
F 	F 	0.86303 0.86747 0.39467 -0.36400
F 	F 	0.83313 0.90717 0.30167 -0.42700
Ag	Ag	0.98854 0.47233 0.83288 0.56100
O 	O 	0.67778 0.00041 0.98127 -0.19400
N 	N 	0.00987 0.53283 0.68843 -0.17200
N 	N 	0.87627 0.61533 0.72933 -0.16900
C 	C 	0.04467 0.54653 0.59183 0.07500
H 	H 	0.05787 0.52903 0.58193 0.03800
C 	C 	0.72853 0.91857 0.83977 -0.12400
H 	H 	0.41960 0.26030 0.10700 0.15900
C 	C 	0.70963 0.94457 0.85247 0.04000
H 	H 	0.72133 0.97117 0.79677 0.07800
C 	C 	0.00617 0.59753 0.61583 -0.05000
C 	C 	0.99057 0.55773 0.69743 0.03400
H 	H 	0.96547 0.54793 0.76123 0.05900
C 	C 	0.98647 0.62683 0.63743 0.17300
C 	C 	0.93737 0.60643 0.64393 -0.04700
C 	C 	0.57543 0.90187 0.89847 0.05800
H 	H 	0.58623 0.88617 0.84217 0.07000
C 	C 	0.86357 0.55343 0.56923 -0.07500
H 	H 	0.51013 0.86087 0.84977 0.17700
C 	C 	0.84927 0.57753 0.65273 0.10200
H 	H 	0.81887 0.56713 0.65643 0.07500
C 	C 	0.91967 0.62973 0.72363 0.06800
H 	H 	0.93907 0.65633 0.77423 0.04200
C 	C 	0.08157 0.49093 0.89183 0.34900
O 	O 	0.39750 0.16680 0.65910 -0.30200
O 	O 	0.06597 0.47313 0.76303 -0.24600
C 	C 	0.46500 0.16730 0.60160 0.32100
F 	F 	0.46190 0.13580 0.70450 -0.37000
F 	F 	0.14657 0.49043 0.80233 -0.35100
C 	C 	0.49390 0.20490 0.71400 0.85600
F 	F 	0.46880 0.19490 0.84200 -0.44800
F 	F 	0.52970 0.20080 0.72800 -0.36500
F 	F 	0.49980 0.24050 0.63500 -0.42700
Ag	Ag	0.65520 0.80567 0.16622 0.56100
O 	O 	0.34445 0.33374 0.31460 -0.19400
N 	N 	0.67653 0.86617 0.02177 -0.17300
N 	N 	0.54293 0.94867 0.06267 -0.16900
C 	C 	0.71133 0.87987 0.92517 0.07700
H 	H 	0.72453 0.86237 0.91527 0.03800
C 	C 	0.39520 0.25190 0.17310 -0.12400
H 	H 	0.08627 0.59363 0.44033 0.15900
C 	C 	0.37630 0.27790 0.18580 0.04100
H 	H 	0.38800 0.30450 0.13010 0.07800
C 	C 	0.67283 0.93087 0.94917 -0.04800
C 	C 	0.65723 0.89107 0.03077 0.03200
H 	H 	0.63213 0.88127 0.09457 0.06000
C 	C 	0.65313 0.96017 0.97077 0.17300
C 	C 	0.60403 0.93977 0.97727 -0.04600
C 	C 	0.24210 0.23520 0.23180 0.05800
H 	H 	0.25290 0.21950 0.17550 0.07000
C 	C 	0.53023 0.88677 0.90257 -0.07500
H 	H 	0.17680 0.19420 0.18310 0.17700
C 	C 	0.51593 0.91087 0.98607 0.10300
H 	H 	0.48553 0.90047 0.98977 0.07500
C 	C 	0.58633 0.96307 0.05697 0.06700
H 	H 	0.60573 0.98967 0.10757 0.04200
C 	C 	0.74823 0.82427 0.22517 0.34900
O 	O 	0.06417 0.50013 0.99243 -0.30200
O 	O 	0.73263 0.80647 0.09637 -0.24700
C 	C 	0.13167 0.50063 0.93493 0.32100
F 	F 	0.12857 0.46913 1.03783 -0.37000
F 	F 	0.81323 0.82377 0.13567 -0.35100
C 	C 	0.16057 0.53823 1.04733 0.85600
F 	F 	0.13547 0.52823 1.17533 -0.44600
F 	F 	0.19637 0.53413 1.06133 -0.36400
F 	F 	0.16647 0.57383 0.96833 -0.42600
Ag	Ag	0.13900 0.81713 0.50045 0.56200
O 	O 	0.66707 0.65596 0.35207 -0.19400
N 	N 	0.19950 0.85630 0.64490 -0.17200
N 	N 	0.28200 0.07240 0.60400 -0.16900
C 	C 	0.21320 0.83520 0.74150 0.07600
H 	H 	0.19570 0.80450 0.75140 0.03900
C 	C 	0.58523 0.52337 0.49357 -0.12400
H 	H 	0.92697 0.17403 0.22633 0.15900
C 	C 	0.61123 0.56827 0.48087 0.04100
H 	H 	0.63783 0.58317 0.53657 0.07800
C 	C 	0.26420 0.92470 0.71750 -0.05000
C 	C 	0.22440 0.90050 0.63590 0.03400
H 	H 	0.21460 0.91580 0.57210 0.05900
C 	C 	0.29350 0.97370 0.69590 0.17300
C 	C 	0.27310 0.00240 0.68940 -0.04700
C 	C 	0.56853 0.65977 0.43487 0.05800
H 	H 	0.55283 0.63327 0.49117 0.07000
C 	C 	0.22010 0.02320 0.76410 -0.07500
H 	H 	0.52753 0.68407 0.48357 0.17600
C 	C 	0.24420 0.06160 0.68060 0.10200
H 	H 	0.23380 0.08160 0.67690 0.07500
C 	C 	0.29640 0.04340 0.60970 0.06900
H 	H 	0.32300 0.05060 0.55910 0.04200
C 	C 	0.15760 0.74270 0.44150 0.34900
O 	O 	0.83347 0.10263 0.67423 -0.30200
O 	O 	0.13980 0.74050 0.57030 -0.24600
C 	C 	0.83397 0.03563 0.73173 0.32100
F 	F 	0.80247 0.00723 0.62883 -0.37000
F 	F 	0.15710 0.67720 0.53100 -0.35100
C 	C 	0.87157 0.04433 0.61933 0.85600
F 	F 	0.86157 0.05943 0.49133 -0.44700
F 	F 	0.86747 0.00443 0.60533 -0.36400
F 	F 	0.90717 0.07403 0.69833 -0.42700
Ag	Ag	0.80567 0.15046 0.83378 0.56100
O 	O 	0.33374 0.98929 0.68540 -0.19400
N 	N 	0.86617 0.18963 0.97823 -0.17300
N 	N 	0.94867 0.40573 0.93733 -0.16900
C 	C 	0.87987 0.16853 0.07483 0.07700
H 	H 	0.86237 0.13783 0.08473 0.03800
C 	C 	0.25190 0.85670 0.82690 -0.12400
H 	H 	0.59363 0.50737 0.55967 0.15900
C 	C 	0.27790 0.90160 0.81420 0.04100
H 	H 	0.30450 0.91650 0.86990 0.07800
C 	C 	0.93087 0.25803 0.05083 -0.04800
C 	C 	0.89107 0.23383 0.96923 0.03200
H 	H 	0.88127 0.24913 0.90543 0.06000
C 	C 	0.96017 0.30703 0.02923 0.17300
C 	C 	0.93977 0.33573 0.02273 -0.04600
C 	C 	0.23520 0.99310 0.76820 0.05800
H 	H 	0.21950 0.96660 0.82450 0.07000
C 	C 	0.88677 0.35653 0.09743 -0.07500
H 	H 	0.19420 0.01740 0.81690 0.17700
C 	C 	0.91087 0.39493 0.01393 0.10300
H 	H 	0.90047 0.41493 0.01023 0.07500
C 	C 	0.96307 0.37673 0.94303 0.06700
H 	H 	0.98967 0.38393 0.89243 0.04200
C 	C 	0.82427 0.07603 0.77483 0.34900
O 	O 	0.50013 0.43597 0.00757 -0.30200
O 	O 	0.80647 0.07383 0.90363 -0.24700
C 	C 	0.50063 0.36897 0.06507 0.32100
F 	F 	0.46913 0.34057 -0.03783 -0.37000
F 	F 	0.82377 0.01053 0.86433 -0.35100
C 	C 	0.53823 0.37767 -0.04733 0.85600
F 	F 	0.52823 0.39277 -0.17533 -0.44600
F 	F 	0.53413 0.33777 -0.06133 -0.36400
F 	F 	0.57383 0.40737 0.03167 -0.42600
Ag	Ag	0.47233 0.48380 0.16712 0.56200
O 	O 	0.00041 0.32262 0.01873 -0.19400
N 	N 	0.53283 0.52297 0.31157 -0.17200
N 	N 	0.61533 0.73907 0.27067 -0.16900
C 	C 	0.54653 0.50187 0.40817 0.07500
H 	H 	0.52903 0.47117 0.41807 0.03800
C 	C 	0.91857 0.19003 0.16023 -0.12400
H 	H 	0.26030 0.84070 0.89300 0.15900
C 	C 	0.94457 0.23493 0.14753 0.04000
H 	H 	0.97117 0.24983 0.20323 0.07800
C 	C 	0.59753 0.59137 0.38417 -0.05000
C 	C 	0.55773 0.56717 0.30257 0.03400
H 	H 	0.54793 0.58247 0.23877 0.05900
C 	C 	0.62683 0.64037 0.36257 0.17300
C 	C 	0.60643 0.66907 0.35607 -0.04700
C 	C 	0.90187 0.32643 0.10153 0.05800
H 	H 	0.88617 0.29993 0.15783 0.07000
C 	C 	0.55343 0.68987 0.43077 -0.07500
H 	H 	0.86087 0.35073 0.15023 0.17700
C 	C 	0.57753 0.72827 0.34727 0.10200
H 	H 	0.56713 0.74827 0.34357 0.07500
C 	C 	0.62973 0.71007 0.27637 0.06800
H 	H 	0.65633 0.71727 0.22577 0.04200
C 	C 	0.49093 0.40937 0.10817 0.34900
O 	O 	0.16680 0.76930 0.34090 -0.30200
O 	O 	0.47313 0.40717 0.23697 -0.24600
C 	C 	0.16730 0.70230 0.39840 0.32100
F 	F 	0.13580 0.67390 0.29550 -0.37000
F 	F 	0.49043 0.34387 0.19767 -0.35100
C 	C 	0.20490 0.71100 0.28600 0.85600
F 	F 	0.19490 0.72610 0.15800 -0.44800
F 	F 	0.20080 0.67110 0.27200 -0.36500
F 	F 	0.24050 0.74070 0.36500 -0.42700
Ag	Ag	0.18287 0.32187 0.50045 0.56200
O 	O 	0.34404 0.01112 0.35207 -0.19400
N 	N 	0.14370 0.34320 0.64490 -0.17200
N 	N 	0.92760 0.20960 0.60400 -0.16900
C 	C 	0.16480 0.37800 0.74150 0.07600
H 	H 	0.19550 0.39120 0.75140 0.03900
C 	C 	0.47663 0.06187 0.49357 -0.12400
H 	H 	0.82597 0.75293 0.22633 0.15900
C 	C 	0.43173 0.04297 0.48087 0.04100
H 	H 	0.41683 0.05467 0.53657 0.07800
C 	C 	0.07530 0.33950 0.71750 -0.05000
C 	C 	0.09950 0.32390 0.63590 0.03400
H 	H 	0.08420 0.29880 0.57210 0.05900
C 	C 	0.02630 0.31980 0.69590 0.17300
C 	C 	0.99760 0.27070 0.68940 -0.04700
C 	C 	0.34023 0.90877 0.43487 0.05800
H 	H 	0.36673 0.91957 0.49117 0.07000
C 	C 	0.97680 0.19690 0.76410 -0.07600
H 	H 	0.31593 0.84347 0.48357 0.17600
C 	C 	0.93840 0.18260 0.68060 0.10200
H 	H 	0.91840 0.15220 0.67690 0.07500
C 	C 	0.95660 0.25300 0.60970 0.06900
H 	H 	0.94940 0.27240 0.55910 0.04200
C 	C 	0.25730 0.41490 0.44150 0.34900
O 	O 	0.89737 0.73083 0.67423 -0.30200
O 	O 	0.25950 0.39930 0.57030 -0.24600
C 	C 	0.96437 0.79833 0.73173 0.32100
F 	F 	0.99277 0.79523 0.62883 -0.37000
F 	F 	0.32280 0.47990 0.53100 -0.35100
C 	C 	0.95567 0.82723 0.61933 0.85600
F 	F 	0.94057 0.80213 0.49133 -0.44700
F 	F 	0.99557 0.86303 0.60533 -0.36400
F 	F 	0.92597 0.83313 0.69833 -0.42700
Ag	Ag	0.84954 0.65520 0.83378 0.56100
O 	O 	0.01071 0.34445 0.68540 -0.19400
N 	N 	0.81037 0.67653 0.97823 -0.17300
N 	N 	0.59427 0.54293 0.93733 -0.16900
C 	C 	0.83147 0.71133 0.07483 0.07600
H 	H 	0.86217 0.72453 0.08473 0.03800
C 	C 	0.14330 0.39520 0.82690 -0.12400
H 	H 	0.49263 0.08627 0.55967 0.15900
C 	C 	0.09840 0.37630 0.81420 0.04100
H 	H 	0.08350 0.38800 0.86990 0.07800
C 	C 	0.74197 0.67283 0.05083 -0.04800
C 	C 	0.76617 0.65723 0.96923 0.03200
H 	H 	0.75087 0.63213 0.90543 0.06000
C 	C 	0.69297 0.65313 0.02923 0.17300
C 	C 	0.66427 0.60403 0.02273 -0.04600
C 	C 	0.00690 0.24210 0.76820 0.05900
H 	H 	0.03340 0.25290 0.82450 0.07000
C 	C 	0.64347 0.53023 0.09743 -0.07500
H 	H 	0.98260 0.17680 0.81690 0.17700
C 	C 	0.60507 0.51593 0.01393 0.10300
H 	H 	0.58507 0.48553 0.01023 0.07500
C 	C 	0.62327 0.58633 0.94303 0.06800
H 	H 	0.61607 0.60573 0.89243 0.04200
C 	C 	0.92397 0.74823 0.77483 0.34900
O 	O 	0.56403 0.06417 0.00757 -0.30200
O 	O 	0.92617 0.73263 0.90363 -0.24700
C 	C 	0.63103 0.13167 0.06507 0.32100
F 	F 	0.65943 0.12857 -0.03783 -0.37000
F 	F 	0.98947 0.81323 0.86433 -0.35100
C 	C 	0.62233 0.16057 -0.04733 0.85600
F 	F 	0.60723 0.13547 -0.17533 -0.44600
F 	F 	0.66223 0.19637 -0.06133 -0.36400
F 	F 	0.59263 0.16647 0.03167 -0.42600
Ag	Ag	0.51620 0.98854 0.16712 0.56200
O 	O 	0.67738 0.67778 0.01873 -0.19400
N 	N 	0.47703 0.00987 0.31157 -0.17200
N 	N 	0.26093 0.87627 0.27067 -0.16900
C 	C 	0.49813 0.04467 0.40817 0.07500
H 	H 	0.52883 0.05787 0.41807 0.03800
C 	C 	0.80997 0.72853 0.16023 -0.12400
H 	H 	0.15930 0.41960 0.89300 0.15900
C 	C 	0.76507 0.70963 0.14753 0.04000
H 	H 	0.75017 0.72133 0.20323 0.07800
C 	C 	0.40863 0.00617 0.38417 -0.05000
C 	C 	0.43283 0.99057 0.30257 0.03400
H 	H 	0.41753 0.96547 0.23877 0.05900
C 	C 	0.35963 0.98647 0.36257 0.17300
C 	C 	0.33093 0.93737 0.35607 -0.04700
C 	C 	0.67357 0.57543 0.10153 0.05800
H 	H 	0.70007 0.58623 0.15783 0.07000
C 	C 	0.31013 0.86357 0.43077 -0.07500
H 	H 	0.64927 0.51013 0.15023 0.17700
C 	C 	0.27173 0.84927 0.34727 0.10200
H 	H 	0.25173 0.81887 0.34357 0.07500
C 	C 	0.28993 0.91967 0.27637 0.06800
H 	H 	0.28273 0.93907 0.22577 0.04200
C 	C 	0.59063 0.08157 0.10817 0.34900
O 	O 	0.23070 0.39750 0.34090 -0.30200
O 	O 	0.59283 0.06597 0.23697 -0.24600
C 	C 	0.29770 0.46500 0.39840 0.32100
F 	F 	0.32610 0.46190 0.29550 -0.37000
F 	F 	0.65613 0.14657 0.19767 -0.35100
C 	C 	0.28900 0.49390 0.28600 0.85600
F 	F 	0.27390 0.46880 0.15800 -0.44800
F 	F 	0.32890 0.52970 0.27200 -0.36500
F 	F 	0.25930 0.49980 0.36500 -0.42700
Ag	Ag	0.67813 0.86100 0.50045 0.56200
O 	O 	0.98888 0.33293 0.35207 -0.19400
N 	N 	0.65680 0.80050 0.64490 -0.17200
N 	N 	0.79040 0.71800 0.60400 -0.16900
C 	C 	0.62200 0.78680 0.74150 0.07600
H 	H 	0.60880 0.80430 0.75140 0.03900
C 	C 	0.93813 0.41477 0.49357 -0.12400
H 	H 	0.24707 0.07303 0.22633 0.15900
C 	C 	0.95703 0.38877 0.48087 0.04100
H 	H 	0.94533 0.36217 0.53657 0.07800
C 	C 	0.66050 0.73580 0.71750 -0.05000
C 	C 	0.67610 0.77560 0.63590 0.03400
H 	H 	0.70120 0.78540 0.57210 0.05900
C 	C 	0.68020 0.70650 0.69590 0.17300
C 	C 	0.72930 0.72690 0.68940 -0.04700
C 	C 	0.09123 0.43147 0.43487 0.05800
H 	H 	0.08043 0.44717 0.49117 0.07000
C 	C 	0.80310 0.77990 0.76410 -0.07500
H 	H 	0.15653 0.47247 0.48357 0.17600
C 	C 	0.81740 0.75580 0.68060 0.10200
H 	H 	0.84780 0.76620 0.67690 0.07500
C 	C 	0.74700 0.70360 0.60970 0.06900
H 	H 	0.72760 0.67700 0.55910 0.04200
C 	C 	0.58510 0.84240 0.44150 0.34900
O 	O 	0.26917 0.16653 0.67423 -0.30200
O 	O 	0.60070 0.86020 0.57030 -0.24600
C 	C 	0.20167 0.16603 0.73173 0.32100
F 	F 	0.20477 0.19753 0.62883 -0.37000
F 	F 	0.52010 0.84290 0.53100 -0.35100
C 	C 	0.17277 0.12843 0.61933 0.85600
F 	F 	0.19787 0.13843 0.49133 -0.44700
F 	F 	0.13697 0.13253 0.60533 -0.36400
F 	F 	0.16687 0.09283 0.69833 -0.42700
Ag	Ag	0.34480 0.19433 0.83378 0.56100
O 	O 	0.65555 0.66626 0.68540 -0.19400
N 	N 	0.32347 0.13383 0.97823 -0.17300
N 	N 	0.45707 0.05133 0.93733 -0.16900
C 	C 	0.28867 0.12013 0.07483 0.07700
H 	H 	0.27547 0.13763 0.08473 0.03800
C 	C 	0.60480 0.74810 0.82690 -0.12400
H 	H 	0.91373 0.40637 0.55967 0.15900
C 	C 	0.62370 0.72210 0.81420 0.04100
H 	H 	0.61200 0.69550 0.86990 0.07800
C 	C 	0.32717 0.06913 0.05083 -0.04800
C 	C 	0.34277 0.10893 0.96923 0.03200
H 	H 	0.36787 0.11873 0.90543 0.06000
C 	C 	0.34687 0.03983 0.02923 0.17300
C 	C 	0.39597 0.06023 0.02273 -0.04600
C 	C 	0.75790 0.76480 0.76820 0.05800
H 	H 	0.74710 0.78050 0.82450 0.07000
C 	C 	0.46977 0.11323 0.09743 -0.07500
H 	H 	0.82320 0.80580 0.81690 0.17700
C 	C 	0.48407 0.08913 0.01393 0.10300
H 	H 	0.51447 0.09953 0.01023 0.07500
C 	C 	0.41367 0.03693 0.94303 0.06700
H 	H 	0.39427 0.01033 0.89243 0.04200
C 	C 	0.25177 0.17573 0.77483 0.34900
O 	O 	0.93583 0.49987 0.00757 -0.30200
O 	O 	0.26737 0.19353 0.90363 -0.24700
C 	C 	0.86833 0.49937 0.06507 0.32100
F 	F 	0.87143 0.53087 -0.03783 -0.37000
F 	F 	0.18677 0.17623 0.86433 -0.35100
C 	C 	0.83943 0.46177 -0.04733 0.85600
F 	F 	0.86453 0.47177 -0.17533 -0.44600
F 	F 	0.80363 0.46587 -0.06133 -0.36400
F 	F 	0.83353 0.42617 0.03167 -0.42600
Ag	Ag	0.01146 0.52767 0.16712 0.56100
O 	O 	0.32222 0.99959 0.01873 -0.19400
N 	N 	0.99013 0.46717 0.31157 -0.17200
N 	N 	0.12373 0.38467 0.27067 -0.16900
C 	C 	0.95533 0.45347 0.40817 0.07500
H 	H 	0.94213 0.47097 0.41807 0.03800
C 	C 	0.27147 0.08143 0.16023 -0.12400
H 	H 	0.58040 0.73970 0.89300 0.15900
C 	C 	0.29037 0.05543 0.14753 0.04000
H 	H 	0.27867 0.02883 0.20323 0.07800
C 	C 	0.99383 0.40247 0.38417 -0.05000
C 	C 	0.00943 0.44227 0.30257 0.03400
H 	H 	0.03453 0.45207 0.23877 0.05900
C 	C 	0.01353 0.37317 0.36257 0.17300
C 	C 	0.06263 0.39357 0.35607 -0.04700
C 	C 	0.42457 0.09813 0.10153 0.05800
H 	H 	0.41377 0.11383 0.15783 0.07000
C 	C 	0.13643 0.44657 0.43077 -0.07500
H 	H 	0.48987 0.13913 0.15023 0.17700
C 	C 	0.15073 0.42247 0.34727 0.10200
H 	H 	0.18113 0.43287 0.34357 0.07500
C 	C 	0.08033 0.37027 0.27637 0.06800
H 	H 	0.06093 0.34367 0.22577 0.04200
C 	C 	0.91843 0.50907 0.10817 0.34900
O 	O 	0.60250 0.83320 0.34090 -0.30200
O 	O 	0.93403 0.52687 0.23697 -0.24600
C 	C 	0.53500 0.83270 0.39840 0.32100
F 	F 	0.53810 0.86420 0.29550 -0.37000
F 	F 	0.85343 0.50957 0.19767 -0.35100
C 	C 	0.50610 0.79510 0.28600 0.85600
F 	F 	0.53120 0.80510 0.15800 -0.44800
F 	F 	0.47030 0.79920 0.27200 -0.36500
F 	F 	0.50020 0.75950 0.36500 -0.42700
