data_crystal

_cell_length_a 33.85600
_cell_length_b 33.85600
_cell_length_c 8.42240
_cell_angle_alpha 90.00000
_cell_angle_beta  90.00000
_cell_angle_gamma 120.00000

_symmetry_space_group_name_	'P 1'
_symmetry_space_group_name_H-M	'P 1'

loop_
_symmetry_equiv_pos_as_xyz
  x,y,z

loop_
_atom_site_label
_atom_site_type_symbol
_atom_site_fract_x
_atom_site_fract_y
_atom_site_fract_z
_atom_site_charge
Ag	Ag	0.14736 0.32092 0.50424 0.47900
O 	O 	0.33504 0.32901 0.78640 -0.20900
N 	N 	0.20620 0.34070 0.65930 -0.19400
N 	N 	0.27750 0.19610 0.61490 -0.20100
C 	C 	0.21940 0.37660 0.76170 0.03200
H 	H 	0.20290 0.39240 0.76160 -0.01300
C 	C 	0.25550 0.39060 0.86450 -0.11600
H 	H 	0.26380 0.41580 0.93330 0.04500
C 	C 	0.27920 0.36770 0.86590 -0.00300
H 	H 	0.30460 0.37740 0.93480 0.04400
C 	C 	0.26640 0.33050 0.76700 -0.06000
C 	C 	0.22940 0.31810 0.66570 0.03100
H 	H 	0.22010 0.29250 0.59810 0.00000
C 	C 	0.29340 0.30690 0.76290 0.16100
C 	C 	0.27030 0.25730 0.72890 -0.05900
C 	C 	0.22740 0.22680 0.78520 0.00500
H 	H 	0.21010 0.23690 0.84360 0.01600
C 	C 	0.21030 0.18100 0.75380 -0.10700
H 	H 	0.18090 0.15910 0.79130 0.05100
C 	C 	0.23580 0.16720 0.66870 0.04700
H 	H 	0.22320 0.13560 0.64710 -0.02000
C 	C 	0.29480 0.24100 0.64620 0.03400
H 	H 	0.32470 0.26210 0.61040 0.01600
Ag	Ag	0.81403 0.65425 0.83757 0.47900
O 	O 	0.00171 0.66234 0.11973 -0.20900
N 	N 	0.87287 0.67403 0.99263 -0.19400
N 	N 	0.94417 0.52943 0.94823 -0.20000
C 	C 	0.88607 0.70993 0.09503 0.03300
H 	H 	0.86957 0.72573 0.09493 -0.01200
C 	C 	0.92217 0.72393 0.19783 -0.11500
H 	H 	0.93047 0.74913 0.26663 0.04600
C 	C 	0.94587 0.70103 0.19923 -0.00200
H 	H 	0.97127 0.71073 0.26813 0.04500
C 	C 	0.93307 0.66383 0.10033 -0.05900
C 	C 	0.89607 0.65143 0.99903 0.03100
H 	H 	0.88677 0.62583 0.93143 0.00100
C 	C 	0.96007 0.64023 0.09623 0.16200
C 	C 	0.93697 0.59063 0.06223 -0.05800
C 	C 	0.89407 0.56013 0.11853 0.00700
H 	H 	0.87677 0.57023 0.17693 0.01700
C 	C 	0.87697 0.51433 0.08713 -0.10700
H 	H 	0.84757 0.49243 0.12463 0.05200
C 	C 	0.90247 0.50053 0.00203 0.04800
H 	H 	0.88987 0.46893 0.98043 -0.01900
C 	C 	0.96147 0.57433 0.97953 0.03500
H 	H 	0.99137 0.59543 0.94373 0.01700
Ag	Ag	0.48069 0.98759 0.17091 0.48000
O 	O 	0.66837 0.99568 0.45307 -0.20800
N 	N 	0.53953 0.00737 0.32597 -0.19300
N 	N 	0.61083 0.86277 0.28157 -0.20000
C 	C 	0.55273 0.04327 0.42837 0.03300
H 	H 	0.53623 0.05907 0.42827 -0.01200
C 	C 	0.58883 0.05727 0.53117 -0.11500
H 	H 	0.59713 0.08247 0.59997 0.04600
C 	C 	0.61253 0.03437 0.53257 -0.00200
H 	H 	0.63793 0.04407 0.60147 0.04500
C 	C 	0.59973 0.99717 0.43367 -0.05900
C 	C 	0.56273 0.98477 0.33237 0.03200
H 	H 	0.55343 0.95917 0.26477 0.00100
C 	C 	0.62673 0.97357 0.42957 0.16200
C 	C 	0.60363 0.92397 0.39557 -0.05800
C 	C 	0.56073 0.89347 0.45187 0.00600
H 	H 	0.54343 0.90357 0.51027 0.01700
C 	C 	0.54363 0.84767 0.42047 -0.10600
H 	H 	0.51423 0.82577 0.45797 0.05200
C 	C 	0.56913 0.83387 0.33537 0.04800
H 	H 	0.55653 0.80227 0.31377 -0.01900
C 	C 	0.62813 0.90767 0.31287 0.03500
H 	H 	0.65803 0.92877 0.27707 0.01700
Ag	Ag	0.67908 0.82644 0.50424 0.48000
O 	O 	0.67099 0.00603 0.78640 -0.20800
N 	N 	0.65930 0.86550 0.65930 -0.19300
N 	N 	0.80390 0.08140 0.61490 -0.20000
C 	C 	0.62340 0.84280 0.76170 0.03300
H 	H 	0.60760 0.81050 0.76160 -0.01200
C 	C 	0.60940 0.86490 0.86450 -0.11500
H 	H 	0.58420 0.84800 0.93330 0.04600
C 	C 	0.63230 0.91150 0.86590 -0.00200
H 	H 	0.62260 0.92720 0.93480 0.04500
C 	C 	0.66950 0.93590 0.76700 -0.05900
C 	C 	0.68190 0.91130 0.66570 0.03200
H 	H 	0.70750 0.92760 0.59810 0.00100
C 	C 	0.69310 0.98650 0.76290 0.16200
C 	C 	0.74270 0.01300 0.72890 -0.05800
C 	C 	0.77320 0.00060 0.78520 0.00600
H 	H 	0.76310 0.97320 0.84360 0.01700
C 	C 	0.81900 0.02930 0.75380 -0.10600
H 	H 	0.84090 0.02180 0.79130 0.05200
C 	C 	0.83280 0.06860 0.66870 0.04800
H 	H 	0.86440 0.08760 0.64710 -0.01900
C 	C 	0.75900 0.05380 0.64620 0.03500
H 	H 	0.73790 0.06260 0.61040 0.01700
Ag	Ag	0.34575 0.15977 0.83757 0.48000
O 	O 	0.33766 0.33936 0.11973 -0.20800
N 	N 	0.32597 0.19883 0.99263 -0.19300
N 	N 	0.47057 0.41473 0.94823 -0.20000
C 	C 	0.29007 0.17613 0.09503 0.03300
H 	H 	0.27427 0.14383 0.09493 -0.01200
C 	C 	0.27607 0.19823 0.19783 -0.11500
H 	H 	0.25087 0.18133 0.26663 0.04600
C 	C 	0.29897 0.24483 0.19923 -0.00200
H 	H 	0.28927 0.26053 0.26813 0.04500
C 	C 	0.33617 0.26923 0.10033 -0.05900
C 	C 	0.34857 0.24463 0.99903 0.03100
H 	H 	0.37417 0.26093 0.93143 0.00100
C 	C 	0.35977 0.31983 0.09623 0.16200
C 	C 	0.40937 0.34633 0.06223 -0.05800
C 	C 	0.43987 0.33393 0.11853 0.00700
H 	H 	0.42977 0.30653 0.17693 0.01700
C 	C 	0.48567 0.36263 0.08713 -0.10700
H 	H 	0.50757 0.35513 0.12463 0.05200
C 	C 	0.49947 0.40193 0.00203 0.04800
H 	H 	0.53107 0.42093 0.98043 -0.01900
C 	C 	0.42567 0.38713 0.97953 0.03500
H 	H 	0.40457 0.39593 0.94373 0.01700
Ag	Ag	0.01241 0.49311 0.17091 0.48000
O 	O 	0.00432 0.67270 0.45307 -0.20800
N 	N 	0.99263 0.53217 0.32597 -0.19300
N 	N 	0.13723 0.74807 0.28157 -0.20000
C 	C 	0.95673 0.50947 0.42837 0.03300
H 	H 	0.94093 0.47717 0.42827 -0.01200
C 	C 	0.94273 0.53157 0.53117 -0.11500
H 	H 	0.91753 0.51467 0.59997 0.04600
C 	C 	0.96563 0.57817 0.53257 -0.00200
H 	H 	0.95593 0.59387 0.60147 0.04500
C 	C 	0.00283 0.60257 0.43367 -0.05900
C 	C 	0.01523 0.57797 0.33237 0.03200
H 	H 	0.04083 0.59427 0.26477 0.00100
C 	C 	0.02643 0.65317 0.42957 0.16200
C 	C 	0.07603 0.67967 0.39557 -0.05800
C 	C 	0.10653 0.66727 0.45187 0.00600
H 	H 	0.09643 0.63987 0.51027 0.01700
C 	C 	0.15233 0.69597 0.42047 -0.10600
H 	H 	0.17423 0.68847 0.45797 0.05200
C 	C 	0.16613 0.73527 0.33537 0.04800
H 	H 	0.19773 0.75427 0.31377 -0.01900
C 	C 	0.09233 0.72047 0.31287 0.03500
H 	H 	0.07123 0.72927 0.27707 0.01700
Ag	Ag	0.17356 0.85264 0.50424 0.48000
O 	O 	0.99397 0.66496 0.78640 -0.20800
N 	N 	0.13450 0.79380 0.65930 -0.19300
N 	N 	0.91860 0.72250 0.61490 -0.20000
C 	C 	0.15720 0.78060 0.76170 0.03300
H 	H 	0.18950 0.79710 0.76160 -0.01200
C 	C 	0.13510 0.74450 0.86450 -0.11500
H 	H 	0.15200 0.73620 0.93330 0.04600
C 	C 	0.08850 0.72080 0.86590 -0.00200
H 	H 	0.07280 0.69540 0.93480 0.04500
C 	C 	0.06410 0.73360 0.76700 -0.05900
C 	C 	0.08870 0.77060 0.66570 0.03200
H 	H 	0.07240 0.77990 0.59810 0.00100
C 	C 	0.01350 0.70660 0.76290 0.16100
C 	C 	0.98700 0.72970 0.72890 -0.05800
C 	C 	0.99940 0.77260 0.78520 0.00600
H 	H 	0.02680 0.78990 0.84360 0.01700
C 	C 	0.97070 0.78970 0.75380 -0.10700
H 	H 	0.97820 0.81910 0.79130 0.05200
C 	C 	0.93140 0.76420 0.66870 0.04800
H 	H 	0.91240 0.77680 0.64710 -0.01900
C 	C 	0.94620 0.70520 0.64620 0.03500
H 	H 	0.93740 0.67530 0.61040 0.01700
Ag	Ag	0.84023 0.18597 0.83757 0.48000
O 	O 	0.66064 0.99829 0.11973 -0.20800
N 	N 	0.80117 0.12713 0.99263 -0.19300
N 	N 	0.58527 0.05583 0.94823 -0.20000
C 	C 	0.82387 0.11393 0.09503 0.03300
H 	H 	0.85617 0.13043 0.09493 -0.01200
C 	C 	0.80177 0.07783 0.19783 -0.11500
H 	H 	0.81867 0.06953 0.26663 0.04600
C 	C 	0.75517 0.05413 0.19923 -0.00200
H 	H 	0.73947 0.02873 0.26813 0.04500
C 	C 	0.73077 0.06693 0.10033 -0.05900
C 	C 	0.75537 0.10393 0.99903 0.03200
H 	H 	0.73907 0.11323 0.93143 0.00100
C 	C 	0.68017 0.03993 0.09623 0.16200
C 	C 	0.65367 0.06303 0.06223 -0.05800
C 	C 	0.66607 0.10593 0.11853 0.00600
H 	H 	0.69347 0.12323 0.17693 0.01700
C 	C 	0.63737 0.12303 0.08713 -0.10700
H 	H 	0.64487 0.15243 0.12463 0.05200
C 	C 	0.59807 0.09753 0.00203 0.04800
H 	H 	0.57907 0.11013 0.98043 -0.01900
C 	C 	0.61287 0.03853 0.97953 0.03500
H 	H 	0.60407 0.00863 0.94373 0.01700
Ag	Ag	0.50689 0.51931 0.17091 0.48000
O 	O 	0.32730 0.33163 0.45307 -0.20800
N 	N 	0.46783 0.46047 0.32597 -0.19300
N 	N 	0.25193 0.38917 0.28157 -0.20000
C 	C 	0.49053 0.44727 0.42837 0.03300
H 	H 	0.52283 0.46377 0.42827 -0.01200
C 	C 	0.46843 0.41117 0.53117 -0.11500
H 	H 	0.48533 0.40287 0.59997 0.04600
C 	C 	0.42183 0.38747 0.53257 -0.00200
H 	H 	0.40613 0.36207 0.60147 0.04500
C 	C 	0.39743 0.40027 0.43367 -0.05900
C 	C 	0.42203 0.43727 0.33237 0.03200
H 	H 	0.40573 0.44657 0.26477 0.00100
C 	C 	0.34683 0.37327 0.42957 0.16200
C 	C 	0.32033 0.39637 0.39557 -0.05800
C 	C 	0.33273 0.43927 0.45187 0.00600
H 	H 	0.36013 0.45657 0.51027 0.01700
C 	C 	0.30403 0.45637 0.42047 -0.10600
H 	H 	0.31153 0.48577 0.45797 0.05200
C 	C 	0.26473 0.43087 0.33537 0.04800
H 	H 	0.24573 0.44347 0.31377 -0.01900
C 	C 	0.27953 0.37187 0.31287 0.03500
H 	H 	0.27073 0.34197 0.27707 0.01700
Ag	Ag	0.85264 0.67908 0.49576 0.48000
O 	O 	0.66496 0.67099 0.21360 -0.20800
N 	N 	0.79380 0.65930 0.34070 -0.19300
N 	N 	0.72250 0.80390 0.38510 -0.20000
C 	C 	0.78060 0.62340 0.23830 0.03300
H 	H 	0.79710 0.60760 0.23840 -0.01200
C 	C 	0.74450 0.60940 0.13550 -0.11500
H 	H 	0.73620 0.58420 0.06670 0.04600
C 	C 	0.72080 0.63230 0.13410 -0.00200
H 	H 	0.69540 0.62260 0.06520 0.04500
C 	C 	0.73360 0.66950 0.23300 -0.05900
C 	C 	0.77060 0.68190 0.33430 0.03200
H 	H 	0.77990 0.70750 0.40190 0.00100
C 	C 	0.70660 0.69310 0.23710 0.16200
C 	C 	0.72970 0.74270 0.27110 -0.05800
C 	C 	0.77260 0.77320 0.21480 0.00600
H 	H 	0.78990 0.76310 0.15640 0.01700
C 	C 	0.78970 0.81900 0.24620 -0.10600
H 	H 	0.81910 0.84090 0.20870 0.05200
C 	C 	0.76420 0.83280 0.33130 0.04800
H 	H 	0.77680 0.86440 0.35290 -0.01900
C 	C 	0.70520 0.75900 0.35380 0.03500
H 	H 	0.67530 0.73790 0.38960 0.01700
Ag	Ag	0.51931 0.01241 0.82909 0.48000
O 	O 	0.33163 0.00432 0.54693 -0.20800
N 	N 	0.46047 0.99263 0.67403 -0.19300
N 	N 	0.38917 0.13723 0.71843 -0.20000
C 	C 	0.44727 0.95673 0.57163 0.03300
H 	H 	0.46377 0.94093 0.57173 -0.01200
C 	C 	0.41117 0.94273 0.46883 -0.11500
H 	H 	0.40287 0.91753 0.40003 0.04600
C 	C 	0.38747 0.96563 0.46743 -0.00200
H 	H 	0.36207 0.95593 0.39853 0.04500
C 	C 	0.40027 0.00283 0.56633 -0.05900
C 	C 	0.43727 0.01523 0.66763 0.03200
H 	H 	0.44657 0.04083 0.73523 0.00100
C 	C 	0.37327 0.02643 0.57043 0.16200
C 	C 	0.39637 0.07603 0.60443 -0.05800
C 	C 	0.43927 0.10653 0.54813 0.00600
H 	H 	0.45657 0.09643 0.48973 0.01700
C 	C 	0.45637 0.15233 0.57953 -0.10600
H 	H 	0.48577 0.17423 0.54203 0.05200
C 	C 	0.43087 0.16613 0.66463 0.04800
H 	H 	0.44347 0.19773 0.68623 -0.01900
C 	C 	0.37187 0.09233 0.68713 0.03500
H 	H 	0.34197 0.07123 0.72293 0.01700
Ag	Ag	0.18597 0.34575 0.16243 0.48000
O 	O 	0.99829 0.33766 0.88027 -0.20800
N 	N 	0.12713 0.32597 0.00737 -0.19300
N 	N 	0.05583 0.47057 0.05177 -0.20000
C 	C 	0.11393 0.29007 0.90497 0.03300
H 	H 	0.13043 0.27427 0.90507 -0.01200
C 	C 	0.07783 0.27607 0.80217 -0.11500
H 	H 	0.06953 0.25087 0.73337 0.04600
C 	C 	0.05413 0.29897 0.80077 -0.00200
H 	H 	0.02873 0.28927 0.73187 0.04500
C 	C 	0.06693 0.33617 0.89967 -0.05900
C 	C 	0.10393 0.34857 0.00097 0.03100
H 	H 	0.11323 0.37417 0.06857 0.00100
C 	C 	0.03993 0.35977 0.90377 0.16200
C 	C 	0.06303 0.40937 0.93777 -0.05800
C 	C 	0.10593 0.43987 0.88147 0.00700
H 	H 	0.12323 0.42977 0.82307 0.01700
C 	C 	0.12303 0.48567 0.91287 -0.10700
H 	H 	0.15243 0.50757 0.87537 0.05200
C 	C 	0.09753 0.49947 0.99797 0.04800
H 	H 	0.11013 0.53107 0.01957 -0.01900
C 	C 	0.03853 0.42567 0.02047 0.03500
H 	H 	0.00863 0.40457 0.05627 0.01700
Ag	Ag	0.32092 0.17356 0.49576 0.48000
O 	O 	0.32901 0.99397 0.21360 -0.20800
N 	N 	0.34070 0.13450 0.34070 -0.19300
N 	N 	0.19610 0.91860 0.38510 -0.20000
C 	C 	0.37660 0.15720 0.23830 0.03300
H 	H 	0.39240 0.18950 0.23840 -0.01200
C 	C 	0.39060 0.13510 0.13550 -0.11500
H 	H 	0.41580 0.15200 0.06670 0.04600
C 	C 	0.36770 0.08850 0.13410 -0.00200
H 	H 	0.37740 0.07280 0.06520 0.04500
C 	C 	0.33050 0.06410 0.23300 -0.05900
C 	C 	0.31810 0.08870 0.33430 0.03200
H 	H 	0.29250 0.07240 0.40190 0.00100
C 	C 	0.30690 0.01350 0.23710 0.16200
C 	C 	0.25730 0.98700 0.27110 -0.05800
C 	C 	0.22680 0.99940 0.21480 0.00600
H 	H 	0.23690 0.02680 0.15640 0.01700
C 	C 	0.18100 0.97070 0.24620 -0.10600
H 	H 	0.15910 0.97820 0.20870 0.05200
C 	C 	0.16720 0.93140 0.33130 0.04800
H 	H 	0.13560 0.91240 0.35290 -0.01900
C 	C 	0.24100 0.94620 0.35380 0.03500
H 	H 	0.26210 0.93740 0.38960 0.01700
Ag	Ag	0.98759 0.50689 0.82909 0.48000
O 	O 	0.99568 0.32730 0.54693 -0.20800
N 	N 	0.00737 0.46783 0.67403 -0.19300
N 	N 	0.86277 0.25193 0.71843 -0.20000
C 	C 	0.04327 0.49053 0.57163 0.03300
H 	H 	0.05907 0.52283 0.57173 -0.01200
C 	C 	0.05727 0.46843 0.46883 -0.11500
H 	H 	0.08247 0.48533 0.40003 0.04600
C 	C 	0.03437 0.42183 0.46743 -0.00200
H 	H 	0.04407 0.40613 0.39853 0.04500
C 	C 	0.99717 0.39743 0.56633 -0.05900
C 	C 	0.98477 0.42203 0.66763 0.03200
H 	H 	0.95917 0.40573 0.73523 0.00100
C 	C 	0.97357 0.34683 0.57043 0.16200
C 	C 	0.92397 0.32033 0.60443 -0.05800
C 	C 	0.89347 0.33273 0.54813 0.00600
H 	H 	0.90357 0.36013 0.48973 0.01700
C 	C 	0.84767 0.30403 0.57953 -0.10600
H 	H 	0.82577 0.31153 0.54203 0.05200
C 	C 	0.83387 0.26473 0.66463 0.04800
H 	H 	0.80227 0.24573 0.68623 -0.01900
C 	C 	0.90767 0.27953 0.68713 0.03500
H 	H 	0.92877 0.27073 0.72293 0.01700
Ag	Ag	0.65425 0.84023 0.16243 0.48000
O 	O 	0.66234 0.66064 0.88027 -0.20800
N 	N 	0.67403 0.80117 0.00737 -0.19300
N 	N 	0.52943 0.58527 0.05177 -0.20000
C 	C 	0.70993 0.82387 0.90497 0.03300
H 	H 	0.72573 0.85617 0.90507 -0.01200
C 	C 	0.72393 0.80177 0.80217 -0.11500
H 	H 	0.74913 0.81867 0.73337 0.04600
C 	C 	0.70103 0.75517 0.80077 -0.00200
H 	H 	0.71073 0.73947 0.73187 0.04500
C 	C 	0.66383 0.73077 0.89967 -0.05900
C 	C 	0.65143 0.75537 0.00097 0.03100
H 	H 	0.62583 0.73907 0.06857 0.00100
C 	C 	0.64023 0.68017 0.90377 0.16200
C 	C 	0.59063 0.65367 0.93777 -0.05800
C 	C 	0.56013 0.66607 0.88147 0.00700
H 	H 	0.57023 0.69347 0.82307 0.01700
C 	C 	0.51433 0.63737 0.91287 -0.10700
H 	H 	0.49243 0.64487 0.87537 0.05200
C 	C 	0.50053 0.59807 0.99797 0.04800
H 	H 	0.46893 0.57907 0.01957 -0.01900
C 	C 	0.57433 0.61287 0.02047 0.03500
H 	H 	0.59543 0.60407 0.05627 0.01700
Ag	Ag	0.82644 0.14736 0.49576 0.48000
O 	O 	0.00603 0.33504 0.21360 -0.20800
N 	N 	0.86550 0.20620 0.34070 -0.19300
N 	N 	0.08140 0.27750 0.38510 -0.20000
C 	C 	0.84280 0.21940 0.23830 0.03300
H 	H 	0.81050 0.20290 0.23840 -0.01200
C 	C 	0.86490 0.25550 0.13550 -0.11500
H 	H 	0.84800 0.26380 0.06670 0.04600
C 	C 	0.91150 0.27920 0.13410 -0.00200
H 	H 	0.92720 0.30460 0.06520 0.04500
C 	C 	0.93590 0.26640 0.23300 -0.05900
C 	C 	0.91130 0.22940 0.33430 0.03200
H 	H 	0.92760 0.22010 0.40190 0.00100
C 	C 	0.98650 0.29340 0.23710 0.16100
C 	C 	0.01300 0.27030 0.27110 -0.05800
C 	C 	0.00060 0.22740 0.21480 0.00600
H 	H 	0.97320 0.21010 0.15640 0.01700
C 	C 	0.02930 0.21030 0.24620 -0.10700
H 	H 	0.02180 0.18090 0.20870 0.05200
C 	C 	0.06860 0.23580 0.33130 0.04800
H 	H 	0.08760 0.22320 0.35290 -0.01900
C 	C 	0.05380 0.29480 0.35380 0.03500
H 	H 	0.06260 0.32470 0.38960 0.01700
Ag	Ag	0.49311 0.48069 0.82909 0.48000
O 	O 	0.67270 0.66837 0.54693 -0.20800
N 	N 	0.53217 0.53953 0.67403 -0.19300
N 	N 	0.74807 0.61083 0.71843 -0.20000
C 	C 	0.50947 0.55273 0.57163 0.03300
H 	H 	0.47717 0.53623 0.57173 -0.01200
C 	C 	0.53157 0.58883 0.46883 -0.11500
H 	H 	0.51467 0.59713 0.40003 0.04600
C 	C 	0.57817 0.61253 0.46743 -0.00200
H 	H 	0.59387 0.63793 0.39853 0.04500
C 	C 	0.60257 0.59973 0.56633 -0.05900
C 	C 	0.57797 0.56273 0.66763 0.03200
H 	H 	0.59427 0.55343 0.73523 0.00100
C 	C 	0.65317 0.62673 0.57043 0.16200
C 	C 	0.67967 0.60363 0.60443 -0.05800
C 	C 	0.66727 0.56073 0.54813 0.00600
H 	H 	0.63987 0.54343 0.48973 0.01700
C 	C 	0.69597 0.54363 0.57953 -0.10600
H 	H 	0.68847 0.51423 0.54203 0.05200
C 	C 	0.73527 0.56913 0.66463 0.04800
H 	H 	0.75427 0.55653 0.68623 -0.01900
C 	C 	0.72047 0.62813 0.68713 0.03500
H 	H 	0.72927 0.65803 0.72293 0.01700
Ag	Ag	0.15977 0.81403 0.16243 0.48000
O 	O 	0.33936 0.00171 0.88027 -0.20800
N 	N 	0.19883 0.87287 0.00737 -0.19300
N 	N 	0.41473 0.94417 0.05177 -0.20000
C 	C 	0.17613 0.88607 0.90497 0.03300
H 	H 	0.14383 0.86957 0.90507 -0.01200
C 	C 	0.19823 0.92217 0.80217 -0.11500
H 	H 	0.18133 0.93047 0.73337 0.04600
C 	C 	0.24483 0.94587 0.80077 -0.00200
H 	H 	0.26053 0.97127 0.73187 0.04500
C 	C 	0.26923 0.93307 0.89967 -0.05900
C 	C 	0.24463 0.89607 0.00097 0.03200
H 	H 	0.26093 0.88677 0.06857 0.00100
C 	C 	0.31983 0.96007 0.90377 0.16200
C 	C 	0.34633 0.93697 0.93777 -0.05800
C 	C 	0.33393 0.89407 0.88147 0.00600
H 	H 	0.30653 0.87677 0.82307 0.01700
C 	C 	0.36263 0.87697 0.91287 -0.10700
H 	H 	0.35513 0.84757 0.87537 0.05200
C 	C 	0.40193 0.90247 0.99797 0.04800
H 	H 	0.42093 0.88987 0.01957 -0.01900
C 	C 	0.38713 0.96147 0.02047 0.03500
H 	H 	0.39593 0.99137 0.05627 0.01700
