data_crystal

_cell_length_a 34.02970
_cell_length_b 34.02970
_cell_length_c 8.36430
_cell_angle_alpha 90.00000
_cell_angle_beta  90.00000
_cell_angle_gamma 120.00000

_symmetry_space_group_name_	'P 1'
_symmetry_space_group_name_H-M	'P 1'

loop_
_symmetry_equiv_pos_as_xyz
  x,y,z

loop_
_atom_site_label
_atom_site_type_symbol
_atom_site_fract_x
_atom_site_fract_y
_atom_site_fract_z
_atom_site_charge
Ag	Ag	0.14786 0.32077 0.50677 0.47900
O 	O 	0.33501 0.32789 0.77960 -0.21500
N 	N 	0.20660 0.33997 0.66160 -0.19600
N 	N 	0.27824 0.19639 0.61130 -0.20200
C 	C 	0.22036 0.37545 0.76080 0.03800
H 	H 	0.20390 0.39130 0.76130 -0.01700
C 	C 	0.25715 0.39023 0.86230 -0.11900
H 	H 	0.26540 0.41530 0.93150 0.04700
C 	C 	0.28159 0.36796 0.86120 0.00000
H 	H 	0.30770 0.37800 0.92670 0.04500
C 	C 	0.26699 0.33006 0.76110 -0.06200
C 	C 	0.22959 0.31716 0.66500 0.03100
H 	H 	0.21960 0.29120 0.59860 0.00000
C 	C 	0.29437 0.30682 0.75580 0.17100
C 	C 	0.27121 0.25724 0.72390 -0.06400
C 	C 	0.22811 0.22701 0.78080 0.00500
H 	H 	0.21090 0.23740 0.83820 0.01600
C 	C 	0.21080 0.18096 0.75120 -0.10500
H 	H 	0.18150 0.15920 0.78870 0.05000
C 	C 	0.23688 0.16719 0.66660 0.04300
H 	H 	0.22480 0.13570 0.64710 -0.01900
C 	C 	0.29508 0.24043 0.64060 0.04100
H 	H 	0.32470 0.26130 0.60290 0.01300
Ag	Ag	0.81452 0.65410 0.84010 0.47900
O 	O 	0.00168 0.66122 0.11293 -0.21500
N 	N 	0.87327 0.67330 0.99493 -0.19600
N 	N 	0.94491 0.52972 0.94463 -0.20200
C 	C 	0.88703 0.70878 0.09413 0.03800
H 	H 	0.87057 0.72463 0.09463 -0.01700
C 	C 	0.92382 0.72356 0.19563 -0.11900
H 	H 	0.93207 0.74863 0.26483 0.04700
C 	C 	0.94826 0.70129 0.19453 -0.00100
H 	H 	0.97437 0.71133 0.26003 0.04500
C 	C 	0.93366 0.66339 0.09443 -0.06200
C 	C 	0.89626 0.65049 0.99833 0.03200
H 	H 	0.88627 0.62453 0.93193 0.00100
C 	C 	0.96104 0.64015 0.08913 0.17100
C 	C 	0.93788 0.59057 0.05723 -0.06200
C 	C 	0.89478 0.56034 0.11413 0.00600
H 	H 	0.87757 0.57073 0.17153 0.01700
C 	C 	0.87747 0.51429 0.08453 -0.10300
H 	H 	0.84817 0.49253 0.12203 0.05100
C 	C 	0.90355 0.50052 0.99993 0.04300
H 	H 	0.89147 0.46903 0.98043 -0.01800
C 	C 	0.96175 0.57376 0.97393 0.04100
H 	H 	0.99137 0.59463 0.93623 0.01400
Ag	Ag	0.48119 0.98744 0.17344 0.48000
O 	O 	0.66834 0.99456 0.44627 -0.21400
N 	N 	0.53993 0.00664 0.32827 -0.19500
N 	N 	0.61157 0.86306 0.27797 -0.20100
C 	C 	0.55369 0.04212 0.42747 0.03900
H 	H 	0.53723 0.05797 0.42797 -0.01600
C 	C 	0.59048 0.05690 0.52897 -0.11800
H 	H 	0.59873 0.08197 0.59817 0.04800
C 	C 	0.61492 0.03463 0.52787 0.00100
H 	H 	0.64103 0.04467 0.59337 0.04600
C 	C 	0.60032 0.99673 0.42777 -0.06100
C 	C 	0.56292 0.98383 0.33167 0.03200
H 	H 	0.55293 0.95787 0.26527 0.00000
C 	C 	0.62770 0.97349 0.42247 0.17200
C 	C 	0.60454 0.92391 0.39057 -0.06300
C 	C 	0.56144 0.89368 0.44747 0.00600
H 	H 	0.54423 0.90407 0.50487 0.01700
C 	C 	0.54413 0.84763 0.41787 -0.10400
H 	H 	0.51483 0.82587 0.45537 0.05100
C 	C 	0.57021 0.83386 0.33327 0.04400
H 	H 	0.55813 0.80237 0.31377 -0.01800
C 	C 	0.62841 0.90710 0.30727 0.04200
H 	H 	0.65803 0.92797 0.26957 0.01400
Ag	Ag	0.67923 0.82709 0.50677 0.48000
O 	O 	0.67211 0.00712 0.77960 -0.21500
N 	N 	0.66003 0.86663 0.66160 -0.19500
N 	N 	0.80361 0.08185 0.61130 -0.20100
C 	C 	0.62455 0.84491 0.76080 0.03900
H 	H 	0.60870 0.81260 0.76130 -0.01600
C 	C 	0.60977 0.86692 0.86230 -0.11800
H 	H 	0.58470 0.85010 0.93150 0.04800
C 	C 	0.63204 0.91363 0.86120 0.00100
H 	H 	0.62200 0.92970 0.92670 0.04600
C 	C 	0.66994 0.93693 0.76110 -0.06100
C 	C 	0.68284 0.91243 0.66500 0.03200
H 	H 	0.70880 0.92840 0.59860 0.00100
C 	C 	0.69318 0.98755 0.75580 0.17200
C 	C 	0.74276 0.01397 0.72390 -0.06300
C 	C 	0.77299 0.00110 0.78080 0.00600
H 	H 	0.76260 0.97350 0.83820 0.01700
C 	C 	0.81904 0.02984 0.75120 -0.10400
H 	H 	0.84080 0.02230 0.78870 0.05100
C 	C 	0.83281 0.06969 0.66660 0.04400
H 	H 	0.86430 0.08910 0.64710 -0.01800
C 	C 	0.75957 0.05465 0.64060 0.04200
H 	H 	0.73870 0.06340 0.60290 0.01400
Ag	Ag	0.34590 0.16042 0.84010 0.48000
O 	O 	0.33878 0.34045 0.11293 -0.21400
N 	N 	0.32670 0.19996 0.99493 -0.19500
N 	N 	0.47028 0.41518 0.94463 -0.20100
C 	C 	0.29122 0.17824 0.09413 0.03900
H 	H 	0.27537 0.14593 0.09463 -0.01600
C 	C 	0.27644 0.20025 0.19563 -0.11800
H 	H 	0.25137 0.18343 0.26483 0.04800
C 	C 	0.29871 0.24696 0.19453 0.00000
H 	H 	0.28867 0.26303 0.26003 0.04600
C 	C 	0.33661 0.27026 0.09443 -0.06100
C 	C 	0.34951 0.24576 0.99833 0.03200
H 	H 	0.37547 0.26173 0.93193 0.00100
C 	C 	0.35985 0.32088 0.08913 0.17100
C 	C 	0.40943 0.34730 0.05723 -0.06200
C 	C 	0.43966 0.33443 0.11413 0.00600
H 	H 	0.42927 0.30683 0.17153 0.01700
C 	C 	0.48571 0.36317 0.08453 -0.10300
H 	H 	0.50747 0.35563 0.12203 0.05100
C 	C 	0.49948 0.40302 0.99993 0.04300
H 	H 	0.53097 0.42243 0.98043 -0.01800
C 	C 	0.42624 0.38798 0.97393 0.04100
H 	H 	0.40537 0.39673 0.93623 0.01400
Ag	Ag	0.01256 0.49375 0.17344 0.48000
O 	O 	0.00544 0.67379 0.44627 -0.21500
N 	N 	0.99336 0.53330 0.32827 -0.19500
N 	N 	0.13694 0.74852 0.27797 -0.20100
C 	C 	0.95788 0.51158 0.42747 0.03900
H 	H 	0.94203 0.47927 0.42797 -0.01600
C 	C 	0.94310 0.53359 0.52897 -0.11800
H 	H 	0.91803 0.51677 0.59817 0.04800
C 	C 	0.96537 0.58030 0.52787 0.00100
H 	H 	0.95533 0.59637 0.59337 0.04600
C 	C 	0.00327 0.60360 0.42777 -0.06100
C 	C 	0.01617 0.57910 0.33167 0.03200
H 	H 	0.04213 0.59507 0.26527 0.00100
C 	C 	0.02651 0.65422 0.42247 0.17200
C 	C 	0.07609 0.68064 0.39057 -0.06300
C 	C 	0.10632 0.66777 0.44747 0.00600
H 	H 	0.09593 0.64017 0.50487 0.01700
C 	C 	0.15237 0.69651 0.41787 -0.10400
H 	H 	0.17413 0.68897 0.45537 0.05100
C 	C 	0.16614 0.73636 0.33327 0.04400
H 	H 	0.19763 0.75577 0.31377 -0.01800
C 	C 	0.09290 0.72132 0.30727 0.04200
H 	H 	0.07203 0.73007 0.26957 0.01400
Ag	Ag	0.17291 0.85214 0.50677 0.48000
O 	O 	0.99288 0.66499 0.77960 -0.21400
N 	N 	0.13337 0.79340 0.66160 -0.19500
N 	N 	0.91815 0.72176 0.61130 -0.20100
C 	C 	0.15509 0.77964 0.76080 0.03900
H 	H 	0.18740 0.79610 0.76130 -0.01600
C 	C 	0.13308 0.74285 0.86230 -0.11800
H 	H 	0.14990 0.73460 0.93150 0.04800
C 	C 	0.08637 0.71841 0.86120 0.00100
H 	H 	0.07030 0.69230 0.92670 0.04600
C 	C 	0.06307 0.73301 0.76110 -0.06100
C 	C 	0.08757 0.77041 0.66500 0.03200
H 	H 	0.07160 0.78040 0.59860 0.00100
C 	C 	0.01245 0.70563 0.75580 0.17100
C 	C 	0.98603 0.72879 0.72390 -0.06300
C 	C 	0.99890 0.77189 0.78080 0.00600
H 	H 	0.02650 0.78910 0.83820 0.01700
C 	C 	0.97016 0.78920 0.75120 -0.10400
H 	H 	0.97770 0.81850 0.78870 0.05100
C 	C 	0.93031 0.76312 0.66660 0.04400
H 	H 	0.91090 0.77520 0.64710 -0.01800
C 	C 	0.94535 0.70492 0.64060 0.04200
H 	H 	0.93660 0.67530 0.60290 0.01400
Ag	Ag	0.83958 0.18548 0.84010 0.48000
O 	O 	0.65955 0.99832 0.11293 -0.21400
N 	N 	0.80004 0.12673 0.99493 -0.19500
N 	N 	0.58482 0.05509 0.94463 -0.20100
C 	C 	0.82176 0.11297 0.09413 0.03900
H 	H 	0.85407 0.12943 0.09463 -0.01600
C 	C 	0.79975 0.07618 0.19563 -0.11800
H 	H 	0.81657 0.06793 0.26483 0.04800
C 	C 	0.75304 0.05174 0.19453 0.00000
H 	H 	0.73697 0.02563 0.26003 0.04600
C 	C 	0.72974 0.06634 0.09443 -0.06100
C 	C 	0.75424 0.10374 0.99833 0.03200
H 	H 	0.73827 0.11373 0.93193 0.00100
C 	C 	0.67912 0.03896 0.08913 0.17100
C 	C 	0.65270 0.06212 0.05723 -0.06200
C 	C 	0.66557 0.10522 0.11413 0.00600
H 	H 	0.69317 0.12243 0.17153 0.01700
C 	C 	0.63683 0.12253 0.08453 -0.10300
H 	H 	0.64437 0.15183 0.12203 0.05100
C 	C 	0.59698 0.09645 0.99993 0.04300
H 	H 	0.57757 0.10853 0.98043 -0.01800
C 	C 	0.61202 0.03825 0.97393 0.04100
H 	H 	0.60327 0.00863 0.93623 0.01400
Ag	Ag	0.50625 0.51881 0.17344 0.48000
O 	O 	0.32621 0.33166 0.44627 -0.21400
N 	N 	0.46670 0.46007 0.32827 -0.19500
N 	N 	0.25148 0.38843 0.27797 -0.20100
C 	C 	0.48842 0.44631 0.42747 0.03900
H 	H 	0.52073 0.46277 0.42797 -0.01600
C 	C 	0.46641 0.40952 0.52897 -0.11800
H 	H 	0.48323 0.40127 0.59817 0.04800
C 	C 	0.41970 0.38508 0.52787 0.00100
H 	H 	0.40363 0.35897 0.59337 0.04600
C 	C 	0.39640 0.39968 0.42777 -0.06100
C 	C 	0.42090 0.43708 0.33167 0.03200
H 	H 	0.40493 0.44707 0.26527 0.00100
C 	C 	0.34578 0.37230 0.42247 0.17200
C 	C 	0.31936 0.39546 0.39057 -0.06300
C 	C 	0.33223 0.43856 0.44747 0.00600
H 	H 	0.35983 0.45577 0.50487 0.01700
C 	C 	0.30349 0.45587 0.41787 -0.10400
H 	H 	0.31103 0.48517 0.45537 0.05100
C 	C 	0.26364 0.42979 0.33327 0.04400
H 	H 	0.24423 0.44187 0.31377 -0.01800
C 	C 	0.27868 0.37159 0.30727 0.04200
H 	H 	0.26993 0.34197 0.26957 0.01400
Ag	Ag	0.85214 0.67923 0.49323 0.48000
O 	O 	0.66499 0.67211 0.22040 -0.21400
N 	N 	0.79340 0.66003 0.33840 -0.19500
N 	N 	0.72176 0.80361 0.38870 -0.20100
C 	C 	0.77964 0.62455 0.23920 0.03900
H 	H 	0.79610 0.60870 0.23870 -0.01600
C 	C 	0.74285 0.60977 0.13770 -0.11800
H 	H 	0.73460 0.58470 0.06850 0.04800
C 	C 	0.71841 0.63204 0.13880 0.00100
H 	H 	0.69230 0.62200 0.07330 0.04600
C 	C 	0.73301 0.66994 0.23890 -0.06100
C 	C 	0.77041 0.68284 0.33500 0.03200
H 	H 	0.78040 0.70880 0.40140 0.00100
C 	C 	0.70563 0.69318 0.24420 0.17200
C 	C 	0.72879 0.74276 0.27610 -0.06300
C 	C 	0.77189 0.77299 0.21920 0.00600
H 	H 	0.78910 0.76260 0.16180 0.01700
C 	C 	0.78920 0.81904 0.24880 -0.10400
H 	H 	0.81850 0.84080 0.21130 0.05100
C 	C 	0.76312 0.83281 0.33340 0.04400
H 	H 	0.77520 0.86430 0.35290 -0.01800
C 	C 	0.70492 0.75957 0.35940 0.04200
H 	H 	0.67530 0.73870 0.39710 0.01400
Ag	Ag	0.51881 0.01256 0.82656 0.48000
O 	O 	0.33166 0.00544 0.55373 -0.21400
N 	N 	0.46007 0.99336 0.67173 -0.19500
N 	N 	0.38843 0.13694 0.72203 -0.20100
C 	C 	0.44631 0.95788 0.57253 0.03900
H 	H 	0.46277 0.94203 0.57203 -0.01600
C 	C 	0.40952 0.94310 0.47103 -0.11800
H 	H 	0.40127 0.91803 0.40183 0.04800
C 	C 	0.38508 0.96537 0.47213 0.00100
H 	H 	0.35897 0.95533 0.40663 0.04600
C 	C 	0.39968 0.00327 0.57223 -0.06100
C 	C 	0.43708 0.01617 0.66833 0.03200
H 	H 	0.44707 0.04213 0.73473 0.00000
C 	C 	0.37230 0.02651 0.57753 0.17200
C 	C 	0.39546 0.07609 0.60943 -0.06300
C 	C 	0.43856 0.10632 0.55253 0.00600
H 	H 	0.45577 0.09593 0.49513 0.01700
C 	C 	0.45587 0.15237 0.58213 -0.10400
H 	H 	0.48517 0.17413 0.54463 0.05100
C 	C 	0.42979 0.16614 0.66673 0.04400
H 	H 	0.44187 0.19763 0.68623 -0.01800
C 	C 	0.37159 0.09290 0.69273 0.04200
H 	H 	0.34197 0.07203 0.73043 0.01400
Ag	Ag	0.18548 0.34590 0.15990 0.48000
O 	O 	0.99832 0.33878 0.88707 -0.21400
N 	N 	0.12673 0.32670 0.00507 -0.19500
N 	N 	0.05509 0.47028 0.05537 -0.20100
C 	C 	0.11297 0.29122 0.90587 0.03900
H 	H 	0.12943 0.27537 0.90537 -0.01600
C 	C 	0.07618 0.27644 0.80437 -0.11800
H 	H 	0.06793 0.25137 0.73517 0.04800
C 	C 	0.05174 0.29871 0.80547 0.00000
H 	H 	0.02563 0.28867 0.73997 0.04600
C 	C 	0.06634 0.33661 0.90557 -0.06100
C 	C 	0.10374 0.34951 0.00167 0.03200
H 	H 	0.11373 0.37547 0.06807 0.00100
C 	C 	0.03896 0.35985 0.91087 0.17100
C 	C 	0.06212 0.40943 0.94277 -0.06200
C 	C 	0.10522 0.43966 0.88587 0.00600
H 	H 	0.12243 0.42927 0.82847 0.01700
C 	C 	0.12253 0.48571 0.91547 -0.10300
H 	H 	0.15183 0.50747 0.87797 0.05100
C 	C 	0.09645 0.49948 0.00007 0.04300
H 	H 	0.10853 0.53097 0.01957 -0.01800
C 	C 	0.03825 0.42624 0.02607 0.04100
H 	H 	0.00863 0.40537 0.06377 0.01400
Ag	Ag	0.32077 0.17291 0.49323 0.48000
O 	O 	0.32789 0.99288 0.22040 -0.21500
N 	N 	0.33997 0.13337 0.33840 -0.19500
N 	N 	0.19639 0.91815 0.38870 -0.20100
C 	C 	0.37545 0.15509 0.23920 0.03900
H 	H 	0.39130 0.18740 0.23870 -0.01600
C 	C 	0.39023 0.13308 0.13770 -0.11800
H 	H 	0.41530 0.14990 0.06850 0.04800
C 	C 	0.36796 0.08637 0.13880 0.00100
H 	H 	0.37800 0.07030 0.07330 0.04600
C 	C 	0.33006 0.06307 0.23890 -0.06100
C 	C 	0.31716 0.08757 0.33500 0.03200
H 	H 	0.29120 0.07160 0.40140 0.00100
C 	C 	0.30682 0.01245 0.24420 0.17200
C 	C 	0.25724 0.98603 0.27610 -0.06300
C 	C 	0.22701 0.99890 0.21920 0.00600
H 	H 	0.23740 0.02650 0.16180 0.01700
C 	C 	0.18096 0.97016 0.24880 -0.10400
H 	H 	0.15920 0.97770 0.21130 0.05100
C 	C 	0.16719 0.93031 0.33340 0.04400
H 	H 	0.13570 0.91090 0.35290 -0.01800
C 	C 	0.24043 0.94535 0.35940 0.04200
H 	H 	0.26130 0.93660 0.39710 0.01400
Ag	Ag	0.98744 0.50625 0.82656 0.48000
O 	O 	0.99456 0.32621 0.55373 -0.21500
N 	N 	0.00664 0.46670 0.67173 -0.19500
N 	N 	0.86306 0.25148 0.72203 -0.20100
C 	C 	0.04212 0.48842 0.57253 0.03900
H 	H 	0.05797 0.52073 0.57203 -0.01600
C 	C 	0.05690 0.46641 0.47103 -0.11800
H 	H 	0.08197 0.48323 0.40183 0.04800
C 	C 	0.03463 0.41970 0.47213 0.00100
H 	H 	0.04467 0.40363 0.40663 0.04600
C 	C 	0.99673 0.39640 0.57223 -0.06100
C 	C 	0.98383 0.42090 0.66833 0.03200
H 	H 	0.95787 0.40493 0.73473 0.00100
C 	C 	0.97349 0.34578 0.57753 0.17200
C 	C 	0.92391 0.31936 0.60943 -0.06300
C 	C 	0.89368 0.33223 0.55253 0.00600
H 	H 	0.90407 0.35983 0.49513 0.01700
C 	C 	0.84763 0.30349 0.58213 -0.10400
H 	H 	0.82587 0.31103 0.54463 0.05100
C 	C 	0.83386 0.26364 0.66673 0.04400
H 	H 	0.80237 0.24423 0.68623 -0.01800
C 	C 	0.90710 0.27868 0.69273 0.04200
H 	H 	0.92797 0.26993 0.73043 0.01400
Ag	Ag	0.65410 0.83958 0.15990 0.48000
O 	O 	0.66122 0.65955 0.88707 -0.21400
N 	N 	0.67330 0.80004 0.00507 -0.19500
N 	N 	0.52972 0.58482 0.05537 -0.20100
C 	C 	0.70878 0.82176 0.90587 0.03900
H 	H 	0.72463 0.85407 0.90537 -0.01600
C 	C 	0.72356 0.79975 0.80437 -0.11800
H 	H 	0.74863 0.81657 0.73517 0.04800
C 	C 	0.70129 0.75304 0.80547 0.00000
H 	H 	0.71133 0.73697 0.73997 0.04600
C 	C 	0.66339 0.72974 0.90557 -0.06100
C 	C 	0.65049 0.75424 0.00167 0.03200
H 	H 	0.62453 0.73827 0.06807 0.00100
C 	C 	0.64015 0.67912 0.91087 0.17100
C 	C 	0.59057 0.65270 0.94277 -0.06200
C 	C 	0.56034 0.66557 0.88587 0.00600
H 	H 	0.57073 0.69317 0.82847 0.01700
C 	C 	0.51429 0.63683 0.91547 -0.10300
H 	H 	0.49253 0.64437 0.87797 0.05100
C 	C 	0.50052 0.59698 0.00007 0.04300
H 	H 	0.46903 0.57757 0.01957 -0.01800
C 	C 	0.57376 0.61202 0.02607 0.04100
H 	H 	0.59463 0.60327 0.06377 0.01400
Ag	Ag	0.82709 0.14786 0.49323 0.48000
O 	O 	0.00712 0.33501 0.22040 -0.21400
N 	N 	0.86663 0.20660 0.33840 -0.19500
N 	N 	0.08185 0.27824 0.38870 -0.20100
C 	C 	0.84491 0.22036 0.23920 0.03900
H 	H 	0.81260 0.20390 0.23870 -0.01600
C 	C 	0.86692 0.25715 0.13770 -0.11800
H 	H 	0.85010 0.26540 0.06850 0.04800
C 	C 	0.91363 0.28159 0.13880 0.00100
H 	H 	0.92970 0.30770 0.07330 0.04600
C 	C 	0.93693 0.26699 0.23890 -0.06100
C 	C 	0.91243 0.22959 0.33500 0.03200
H 	H 	0.92840 0.21960 0.40140 0.00100
C 	C 	0.98755 0.29437 0.24420 0.17100
C 	C 	0.01397 0.27121 0.27610 -0.06300
C 	C 	0.00110 0.22811 0.21920 0.00600
H 	H 	0.97350 0.21090 0.16180 0.01700
C 	C 	0.02984 0.21080 0.24880 -0.10400
H 	H 	0.02230 0.18150 0.21130 0.05100
C 	C 	0.06969 0.23688 0.33340 0.04400
H 	H 	0.08910 0.22480 0.35290 -0.01800
C 	C 	0.05465 0.29508 0.35940 0.04200
H 	H 	0.06340 0.32470 0.39710 0.01400
Ag	Ag	0.49375 0.48119 0.82656 0.48000
O 	O 	0.67379 0.66834 0.55373 -0.21400
N 	N 	0.53330 0.53993 0.67173 -0.19500
N 	N 	0.74852 0.61157 0.72203 -0.20100
C 	C 	0.51158 0.55369 0.57253 0.03900
H 	H 	0.47927 0.53723 0.57203 -0.01600
C 	C 	0.53359 0.59048 0.47103 -0.11800
H 	H 	0.51677 0.59873 0.40183 0.04800
C 	C 	0.58030 0.61492 0.47213 0.00100
H 	H 	0.59637 0.64103 0.40663 0.04600
C 	C 	0.60360 0.60032 0.57223 -0.06100
C 	C 	0.57910 0.56292 0.66833 0.03200
H 	H 	0.59507 0.55293 0.73473 0.00100
C 	C 	0.65422 0.62770 0.57753 0.17200
C 	C 	0.68064 0.60454 0.60943 -0.06300
C 	C 	0.66777 0.56144 0.55253 0.00600
H 	H 	0.64017 0.54423 0.49513 0.01700
C 	C 	0.69651 0.54413 0.58213 -0.10400
H 	H 	0.68897 0.51483 0.54463 0.05100
C 	C 	0.73636 0.57021 0.66673 0.04400
H 	H 	0.75577 0.55813 0.68623 -0.01800
C 	C 	0.72132 0.62841 0.69273 0.04200
H 	H 	0.73007 0.65803 0.73043 0.01400
Ag	Ag	0.16042 0.81452 0.15990 0.48000
O 	O 	0.34045 0.00168 0.88707 -0.21400
N 	N 	0.19996 0.87327 0.00507 -0.19500
N 	N 	0.41518 0.94491 0.05537 -0.20100
C 	C 	0.17824 0.88703 0.90587 0.03900
H 	H 	0.14593 0.87057 0.90537 -0.01600
C 	C 	0.20025 0.92382 0.80437 -0.11800
H 	H 	0.18343 0.93207 0.73517 0.04800
C 	C 	0.24696 0.94826 0.80547 0.00000
H 	H 	0.26303 0.97437 0.73997 0.04600
C 	C 	0.27026 0.93366 0.90557 -0.06100
C 	C 	0.24576 0.89626 0.00167 0.03200
H 	H 	0.26173 0.88627 0.06807 0.00100
C 	C 	0.32088 0.96104 0.91087 0.17100
C 	C 	0.34730 0.93788 0.94277 -0.06200
C 	C 	0.33443 0.89478 0.88587 0.00600
H 	H 	0.30683 0.87757 0.82847 0.01700
C 	C 	0.36317 0.87747 0.91547 -0.10300
H 	H 	0.35563 0.84817 0.87797 0.05100
C 	C 	0.40302 0.90355 0.00007 0.04300
H 	H 	0.42243 0.89147 0.01957 -0.01800
C 	C 	0.38798 0.96175 0.02607 0.04100
H 	H 	0.39673 0.99137 0.06377 0.01400
