data_crystal

_cell_length_a 34.14470
_cell_length_b 34.14470
_cell_length_c 8.35940
_cell_angle_alpha 90.00000
_cell_angle_beta  90.00000
_cell_angle_gamma 120.00000

_symmetry_space_group_name_	'P 1'
_symmetry_space_group_name_H-M	'P 1'

loop_
_symmetry_equiv_pos_as_xyz
  x,y,z

loop_
_atom_site_label
_atom_site_type_symbol
_atom_site_fract_x
_atom_site_fract_y
_atom_site_fract_z
_atom_site_charge
Ag	Ag	0.14711 0.32014 0.50711 0.47900
O 	O 	0.33472 0.32830 0.77580 -0.21300
N 	N 	0.20603 0.33960 0.66120 -0.19500
N 	N 	0.27764 0.19651 0.60940 -0.20100
C 	C 	0.21966 0.37535 0.75960 0.03300
H 	H 	0.20310 0.39100 0.76060 -0.01500
C 	C 	0.25698 0.39028 0.85960 -0.11500
H 	H 	0.26580 0.41570 0.92750 0.04600
C 	C 	0.28109 0.36768 0.85890 -0.00300
H 	H 	0.30690 0.37750 0.92520 0.04500
C 	C 	0.26696 0.33031 0.75980 -0.06000
C 	C 	0.22933 0.31740 0.66300 0.03000
H 	H 	0.21970 0.29180 0.59540 0.00000
C 	C 	0.29392 0.30693 0.75310 0.16600
C 	C 	0.27079 0.25735 0.72120 -0.06200
C 	C 	0.22820 0.22737 0.78170 0.00400
H 	H 	0.21140 0.23790 0.84020 0.01800
C 	C 	0.21096 0.18141 0.75360 -0.10400
H 	H 	0.18200 0.15980 0.79350 0.05100
C 	C 	0.23631 0.16772 0.66730 0.04300
H 	H 	0.22400 0.13630 0.64770 -0.01700
C 	C 	0.29427 0.24057 0.63840 0.04000
H 	H 	0.32370 0.26140 0.60010 0.01500
Ag	Ag	0.81378 0.65347 0.84044 0.48000
O 	O 	0.00139 0.66163 0.10913 -0.21200
N 	N 	0.87270 0.67293 0.99453 -0.19400
N 	N 	0.94431 0.52984 0.94273 -0.20000
C 	C 	0.88633 0.70868 0.09293 0.03400
H 	H 	0.86977 0.72433 0.09393 -0.01400
C 	C 	0.92365 0.72361 0.19293 -0.11400
H 	H 	0.93247 0.74903 0.26083 0.04700
C 	C 	0.94776 0.70101 0.19223 -0.00200
H 	H 	0.97357 0.71083 0.25853 0.04600
C 	C 	0.93363 0.66364 0.09313 -0.05900
C 	C 	0.89600 0.65073 0.99633 0.03100
H 	H 	0.88637 0.62513 0.92873 0.00100
C 	C 	0.96059 0.64026 0.08643 0.16700
C 	C 	0.93746 0.59068 0.05453 -0.06100
C 	C 	0.89487 0.56070 0.11503 0.00500
H 	H 	0.87807 0.57123 0.17353 0.01800
C 	C 	0.87763 0.51474 0.08693 -0.10400
H 	H 	0.84867 0.49313 0.12683 0.05100
C 	C 	0.90298 0.50105 0.00063 0.04400
H 	H 	0.89067 0.46963 0.98103 -0.01800
C 	C 	0.96094 0.57390 0.97173 0.04000
H 	H 	0.99037 0.59473 0.93343 0.01500
Ag	Ag	0.48045 0.98680 0.17378 0.48000
O 	O 	0.66805 0.99497 0.44247 -0.21200
N 	N 	0.53936 0.00627 0.32787 -0.19400
N 	N 	0.61097 0.86318 0.27607 -0.20000
C 	C 	0.55299 0.04202 0.42627 0.03400
H 	H 	0.53643 0.05767 0.42727 -0.01400
C 	C 	0.59031 0.05695 0.52627 -0.11400
H 	H 	0.59913 0.08237 0.59417 0.04700
C 	C 	0.61442 0.03435 0.52557 -0.00200
H 	H 	0.64023 0.04417 0.59187 0.04600
C 	C 	0.60029 0.99698 0.42647 -0.05900
C 	C 	0.56266 0.98407 0.32967 0.03100
H 	H 	0.55303 0.95847 0.26207 0.00100
C 	C 	0.62725 0.97360 0.41977 0.16700
C 	C 	0.60412 0.92402 0.38787 -0.06100
C 	C 	0.56153 0.89404 0.44837 0.00500
H 	H 	0.54473 0.90457 0.50687 0.01800
C 	C 	0.54429 0.84808 0.42027 -0.10400
H 	H 	0.51533 0.82647 0.46017 0.05100
C 	C 	0.56964 0.83439 0.33397 0.04300
H 	H 	0.55733 0.80297 0.31437 -0.01700
C 	C 	0.62760 0.90724 0.30507 0.04000
H 	H 	0.65703 0.92807 0.26677 0.01500
Ag	Ag	0.67986 0.82698 0.50711 0.48000
O 	O 	0.67170 0.00642 0.77580 -0.21200
N 	N 	0.66040 0.86643 0.66120 -0.19400
N 	N 	0.80349 0.08113 0.60940 -0.20000
C 	C 	0.62465 0.84431 0.75960 0.03400
H 	H 	0.60900 0.81210 0.76060 -0.01400
C 	C 	0.60972 0.86670 0.85960 -0.11400
H 	H 	0.58430 0.85010 0.92750 0.04700
C 	C 	0.63232 0.91341 0.85890 -0.00200
H 	H 	0.62250 0.92940 0.92520 0.04600
C 	C 	0.66969 0.93665 0.75980 -0.05900
C 	C 	0.68260 0.91193 0.66300 0.03100
H 	H 	0.70820 0.92790 0.59540 0.00100
C 	C 	0.69307 0.98699 0.75310 0.16700
C 	C 	0.74265 0.01344 0.72120 -0.06100
C 	C 	0.77263 0.00083 0.78170 0.00400
H 	H 	0.76210 0.97350 0.84020 0.01800
C 	C 	0.81859 0.02955 0.75360 -0.10300
H 	H 	0.84020 0.02220 0.79350 0.05100
C 	C 	0.83228 0.06859 0.66730 0.04300
H 	H 	0.86370 0.08770 0.64770 -0.01700
C 	C 	0.75943 0.05370 0.63840 0.04000
H 	H 	0.73860 0.06230 0.60010 0.01500
Ag	Ag	0.34653 0.16031 0.84044 0.48000
O 	O 	0.33837 0.33975 0.10913 -0.21200
N 	N 	0.32707 0.19976 0.99453 -0.19400
N 	N 	0.47016 0.41446 0.94273 -0.20000
C 	C 	0.29132 0.17764 0.09293 0.03400
H 	H 	0.27567 0.14543 0.09393 -0.01400
C 	C 	0.27639 0.20003 0.19293 -0.11400
H 	H 	0.25097 0.18343 0.26083 0.04700
C 	C 	0.29899 0.24674 0.19223 -0.00200
H 	H 	0.28917 0.26273 0.25853 0.04600
C 	C 	0.33636 0.26998 0.09313 -0.05900
C 	C 	0.34927 0.24526 0.99633 0.03100
H 	H 	0.37487 0.26123 0.92873 0.00100
C 	C 	0.35974 0.32032 0.08643 0.16700
C 	C 	0.40932 0.34677 0.05453 -0.06100
C 	C 	0.43930 0.33416 0.11503 0.00500
H 	H 	0.42877 0.30683 0.17353 0.01800
C 	C 	0.48526 0.36288 0.08693 -0.10400
H 	H 	0.50687 0.35553 0.12683 0.05100
C 	C 	0.49895 0.40192 0.00063 0.04400
H 	H 	0.53037 0.42103 0.98103 -0.01800
C 	C 	0.42610 0.38703 0.97173 0.04000
H 	H 	0.40527 0.39563 0.93343 0.01500
Ag	Ag	0.01320 0.49364 0.17378 0.48000
O 	O 	0.00503 0.67309 0.44247 -0.21200
N 	N 	0.99373 0.53310 0.32787 -0.19400
N 	N 	0.13682 0.74780 0.27607 -0.20000
C 	C 	0.95798 0.51098 0.42627 0.03400
H 	H 	0.94233 0.47877 0.42727 -0.01400
C 	C 	0.94305 0.53337 0.52627 -0.11400
H 	H 	0.91763 0.51677 0.59417 0.04700
C 	C 	0.96565 0.58008 0.52557 -0.00200
H 	H 	0.95583 0.59607 0.59187 0.04600
C 	C 	0.00302 0.60332 0.42647 -0.05900
C 	C 	0.01593 0.57860 0.32967 0.03100
H 	H 	0.04153 0.59457 0.26207 0.00100
C 	C 	0.02640 0.65366 0.41977 0.16700
C 	C 	0.07598 0.68011 0.38787 -0.06100
C 	C 	0.10596 0.66750 0.44837 0.00500
H 	H 	0.09543 0.64017 0.50687 0.01800
C 	C 	0.15192 0.69622 0.42027 -0.10400
H 	H 	0.17353 0.68887 0.46017 0.05100
C 	C 	0.16561 0.73526 0.33397 0.04300
H 	H 	0.19703 0.75437 0.31437 -0.01700
C 	C 	0.09276 0.72037 0.30507 0.04000
H 	H 	0.07193 0.72897 0.26677 0.01500
Ag	Ag	0.17302 0.85289 0.50711 0.48000
O 	O 	0.99358 0.66528 0.77580 -0.21200
N 	N 	0.13357 0.79397 0.66120 -0.19400
N 	N 	0.91887 0.72236 0.60940 -0.20000
C 	C 	0.15569 0.78034 0.75960 0.03400
H 	H 	0.18790 0.79690 0.76060 -0.01400
C 	C 	0.13330 0.74302 0.85960 -0.11400
H 	H 	0.14990 0.73420 0.92750 0.04700
C 	C 	0.08659 0.71891 0.85890 -0.00200
H 	H 	0.07060 0.69310 0.92520 0.04600
C 	C 	0.06335 0.73304 0.75980 -0.05900
C 	C 	0.08807 0.77067 0.66300 0.03100
H 	H 	0.07210 0.78030 0.59540 0.00100
C 	C 	0.01301 0.70608 0.75310 0.16700
C 	C 	0.98656 0.72921 0.72120 -0.06100
C 	C 	0.99917 0.77180 0.78170 0.00500
H 	H 	0.02650 0.78860 0.84020 0.01700
C 	C 	0.97045 0.78904 0.75360 -0.10400
H 	H 	0.97780 0.81800 0.79350 0.05100
C 	C 	0.93141 0.76369 0.66730 0.04300
H 	H 	0.91230 0.77600 0.64770 -0.01700
C 	C 	0.94630 0.70573 0.63840 0.04000
H 	H 	0.93770 0.67630 0.60010 0.01500
Ag	Ag	0.83969 0.18622 0.84044 0.48000
O 	O 	0.66025 0.99861 0.10913 -0.21200
N 	N 	0.80024 0.12730 0.99453 -0.19400
N 	N 	0.58554 0.05569 0.94273 -0.20000
C 	C 	0.82236 0.11367 0.09293 0.03400
H 	H 	0.85457 0.13023 0.09393 -0.01400
C 	C 	0.79997 0.07635 0.19293 -0.11400
H 	H 	0.81657 0.06753 0.26083 0.04700
C 	C 	0.75326 0.05224 0.19223 -0.00200
H 	H 	0.73727 0.02643 0.25853 0.04600
C 	C 	0.73002 0.06637 0.09313 -0.05900
C 	C 	0.75474 0.10400 0.99633 0.03100
H 	H 	0.73877 0.11363 0.92873 0.00100
C 	C 	0.67968 0.03941 0.08643 0.16700
C 	C 	0.65323 0.06254 0.05453 -0.06100
C 	C 	0.66584 0.10513 0.11503 0.00500
H 	H 	0.69317 0.12193 0.17353 0.01800
C 	C 	0.63712 0.12237 0.08693 -0.10400
H 	H 	0.64447 0.15133 0.12683 0.05100
C 	C 	0.59808 0.09702 0.00063 0.04400
H 	H 	0.57897 0.10933 0.98103 -0.01800
C 	C 	0.61297 0.03906 0.97173 0.04000
H 	H 	0.60437 0.00963 0.93343 0.01500
Ag	Ag	0.50636 0.51955 0.17378 0.48000
O 	O 	0.32691 0.33195 0.44247 -0.21200
N 	N 	0.46690 0.46064 0.32787 -0.19400
N 	N 	0.25220 0.38903 0.27607 -0.20000
C 	C 	0.48902 0.44701 0.42627 0.03400
H 	H 	0.52123 0.46357 0.42727 -0.01400
C 	C 	0.46663 0.40969 0.52627 -0.11400
H 	H 	0.48323 0.40087 0.59417 0.04700
C 	C 	0.41992 0.38558 0.52557 -0.00200
H 	H 	0.40393 0.35977 0.59187 0.04600
C 	C 	0.39668 0.39971 0.42647 -0.05900
C 	C 	0.42140 0.43734 0.32967 0.03100
H 	H 	0.40543 0.44697 0.26207 0.00100
C 	C 	0.34634 0.37275 0.41977 0.16700
C 	C 	0.31989 0.39588 0.38787 -0.06100
C 	C 	0.33250 0.43847 0.44837 0.00500
H 	H 	0.35983 0.45527 0.50687 0.01800
C 	C 	0.30378 0.45571 0.42027 -0.10400
H 	H 	0.31113 0.48467 0.46017 0.05100
C 	C 	0.26474 0.43036 0.33397 0.04300
H 	H 	0.24563 0.44267 0.31437 -0.01700
C 	C 	0.27963 0.37240 0.30507 0.04000
H 	H 	0.27103 0.34297 0.26677 0.01500
Ag	Ag	0.85289 0.67986 0.49289 0.48000
O 	O 	0.66528 0.67170 0.22420 -0.21200
N 	N 	0.79397 0.66040 0.33880 -0.19400
N 	N 	0.72236 0.80349 0.39060 -0.20000
C 	C 	0.78034 0.62465 0.24040 0.03400
H 	H 	0.79690 0.60900 0.23940 -0.01400
C 	C 	0.74302 0.60972 0.14040 -0.11400
H 	H 	0.73420 0.58430 0.07250 0.04700
C 	C 	0.71891 0.63232 0.14110 -0.00200
H 	H 	0.69310 0.62250 0.07480 0.04600
C 	C 	0.73304 0.66969 0.24020 -0.05900
C 	C 	0.77067 0.68260 0.33700 0.03100
H 	H 	0.78030 0.70820 0.40460 0.00100
C 	C 	0.70608 0.69307 0.24690 0.16700
C 	C 	0.72921 0.74265 0.27880 -0.06100
C 	C 	0.77180 0.77263 0.21830 0.00500
H 	H 	0.78860 0.76210 0.15980 0.01800
C 	C 	0.78904 0.81859 0.24640 -0.10400
H 	H 	0.81800 0.84020 0.20650 0.05100
C 	C 	0.76369 0.83228 0.33270 0.04300
H 	H 	0.77600 0.86370 0.35230 -0.01700
C 	C 	0.70573 0.75943 0.36160 0.04000
H 	H 	0.67630 0.73860 0.39990 0.01500
Ag	Ag	0.51955 0.01320 0.82622 0.48000
O 	O 	0.33195 0.00503 0.55753 -0.21200
N 	N 	0.46064 0.99373 0.67213 -0.19400
N 	N 	0.38903 0.13682 0.72393 -0.20000
C 	C 	0.44701 0.95798 0.57373 0.03400
H 	H 	0.46357 0.94233 0.57273 -0.01400
C 	C 	0.40969 0.94305 0.47373 -0.11400
H 	H 	0.40087 0.91763 0.40583 0.04700
C 	C 	0.38558 0.96565 0.47443 -0.00200
H 	H 	0.35977 0.95583 0.40813 0.04600
C 	C 	0.39971 0.00302 0.57353 -0.05900
C 	C 	0.43734 0.01593 0.67033 0.03100
H 	H 	0.44697 0.04153 0.73793 0.00100
C 	C 	0.37275 0.02640 0.58023 0.16700
C 	C 	0.39588 0.07598 0.61213 -0.06100
C 	C 	0.43847 0.10596 0.55163 0.00500
H 	H 	0.45527 0.09543 0.49313 0.01800
C 	C 	0.45571 0.15192 0.57973 -0.10400
H 	H 	0.48467 0.17353 0.53983 0.05100
C 	C 	0.43036 0.16561 0.66603 0.04300
H 	H 	0.44267 0.19703 0.68563 -0.01700
C 	C 	0.37240 0.09276 0.69493 0.04000
H 	H 	0.34297 0.07193 0.73323 0.01500
Ag	Ag	0.18622 0.34653 0.15956 0.48000
O 	O 	0.99861 0.33837 0.89087 -0.21200
N 	N 	0.12730 0.32707 0.00547 -0.19400
N 	N 	0.05569 0.47016 0.05727 -0.20000
C 	C 	0.11367 0.29132 0.90707 0.03400
H 	H 	0.13023 0.27567 0.90607 -0.01400
C 	C 	0.07635 0.27639 0.80707 -0.11400
H 	H 	0.06753 0.25097 0.73917 0.04700
C 	C 	0.05224 0.29899 0.80777 -0.00200
H 	H 	0.02643 0.28917 0.74147 0.04600
C 	C 	0.06637 0.33636 0.90687 -0.05900
C 	C 	0.10400 0.34927 0.00367 0.03100
H 	H 	0.11363 0.37487 0.07127 0.00100
C 	C 	0.03941 0.35974 0.91357 0.16700
C 	C 	0.06254 0.40932 0.94547 -0.06100
C 	C 	0.10513 0.43930 0.88497 0.00500
H 	H 	0.12193 0.42877 0.82647 0.01800
C 	C 	0.12237 0.48526 0.91307 -0.10400
H 	H 	0.15133 0.50687 0.87317 0.05100
C 	C 	0.09702 0.49895 0.99937 0.04400
H 	H 	0.10933 0.53037 0.01897 -0.01800
C 	C 	0.03906 0.42610 0.02827 0.04000
H 	H 	0.00963 0.40527 0.06657 0.01500
Ag	Ag	0.32014 0.17302 0.49289 0.48000
O 	O 	0.32830 0.99358 0.22420 -0.21200
N 	N 	0.33960 0.13357 0.33880 -0.19400
N 	N 	0.19651 0.91887 0.39060 -0.20000
C 	C 	0.37535 0.15569 0.24040 0.03400
H 	H 	0.39100 0.18790 0.23940 -0.01400
C 	C 	0.39028 0.13330 0.14040 -0.11400
H 	H 	0.41570 0.14990 0.07250 0.04700
C 	C 	0.36768 0.08659 0.14110 -0.00200
H 	H 	0.37750 0.07060 0.07480 0.04600
C 	C 	0.33031 0.06335 0.24020 -0.05900
C 	C 	0.31740 0.08807 0.33700 0.03100
H 	H 	0.29180 0.07210 0.40460 0.00100
C 	C 	0.30693 0.01301 0.24690 0.16700
C 	C 	0.25735 0.98656 0.27880 -0.06100
C 	C 	0.22737 0.99917 0.21830 0.00400
H 	H 	0.23790 0.02650 0.15980 0.01800
C 	C 	0.18141 0.97045 0.24640 -0.10300
H 	H 	0.15980 0.97780 0.20650 0.05100
C 	C 	0.16772 0.93141 0.33270 0.04300
H 	H 	0.13630 0.91230 0.35230 -0.01700
C 	C 	0.24057 0.94630 0.36160 0.04000
H 	H 	0.26140 0.93770 0.39990 0.01500
Ag	Ag	0.98680 0.50636 0.82622 0.48000
O 	O 	0.99497 0.32691 0.55753 -0.21200
N 	N 	0.00627 0.46690 0.67213 -0.19400
N 	N 	0.86318 0.25220 0.72393 -0.20000
C 	C 	0.04202 0.48902 0.57373 0.03400
H 	H 	0.05767 0.52123 0.57273 -0.01400
C 	C 	0.05695 0.46663 0.47373 -0.11400
H 	H 	0.08237 0.48323 0.40583 0.04700
C 	C 	0.03435 0.41992 0.47443 -0.00200
H 	H 	0.04417 0.40393 0.40813 0.04600
C 	C 	0.99698 0.39668 0.57353 -0.05900
C 	C 	0.98407 0.42140 0.67033 0.03100
H 	H 	0.95847 0.40543 0.73793 0.00100
C 	C 	0.97360 0.34634 0.58023 0.16700
C 	C 	0.92402 0.31989 0.61213 -0.06100
C 	C 	0.89404 0.33250 0.55163 0.00500
H 	H 	0.90457 0.35983 0.49313 0.01800
C 	C 	0.84808 0.30378 0.57973 -0.10400
H 	H 	0.82647 0.31113 0.53983 0.05100
C 	C 	0.83439 0.26474 0.66603 0.04300
H 	H 	0.80297 0.24563 0.68563 -0.01700
C 	C 	0.90724 0.27963 0.69493 0.04000
H 	H 	0.92807 0.27103 0.73323 0.01500
Ag	Ag	0.65347 0.83969 0.15956 0.48000
O 	O 	0.66163 0.66025 0.89087 -0.21200
N 	N 	0.67293 0.80024 0.00547 -0.19400
N 	N 	0.52984 0.58554 0.05727 -0.20000
C 	C 	0.70868 0.82236 0.90707 0.03400
H 	H 	0.72433 0.85457 0.90607 -0.01400
C 	C 	0.72361 0.79997 0.80707 -0.11400
H 	H 	0.74903 0.81657 0.73917 0.04700
C 	C 	0.70101 0.75326 0.80777 -0.00200
H 	H 	0.71083 0.73727 0.74147 0.04600
C 	C 	0.66364 0.73002 0.90687 -0.05900
C 	C 	0.65073 0.75474 0.00367 0.03100
H 	H 	0.62513 0.73877 0.07127 0.00100
C 	C 	0.64026 0.67968 0.91357 0.16700
C 	C 	0.59068 0.65323 0.94547 -0.06100
C 	C 	0.56070 0.66584 0.88497 0.00500
H 	H 	0.57123 0.69317 0.82647 0.01800
C 	C 	0.51474 0.63712 0.91307 -0.10400
H 	H 	0.49313 0.64447 0.87317 0.05100
C 	C 	0.50105 0.59808 0.99937 0.04400
H 	H 	0.46963 0.57897 0.01897 -0.01800
C 	C 	0.57390 0.61297 0.02827 0.04000
H 	H 	0.59473 0.60437 0.06657 0.01500
Ag	Ag	0.82698 0.14711 0.49289 0.48000
O 	O 	0.00642 0.33472 0.22420 -0.21200
N 	N 	0.86643 0.20603 0.33880 -0.19400
N 	N 	0.08113 0.27764 0.39060 -0.20000
C 	C 	0.84431 0.21966 0.24040 0.03400
H 	H 	0.81210 0.20310 0.23940 -0.01400
C 	C 	0.86670 0.25698 0.14040 -0.11400
H 	H 	0.85010 0.26580 0.07250 0.04700
C 	C 	0.91341 0.28109 0.14110 -0.00200
H 	H 	0.92940 0.30690 0.07480 0.04600
C 	C 	0.93665 0.26696 0.24020 -0.05900
C 	C 	0.91193 0.22933 0.33700 0.03100
H 	H 	0.92790 0.21970 0.40460 0.00100
C 	C 	0.98699 0.29392 0.24690 0.16700
C 	C 	0.01344 0.27079 0.27880 -0.06100
C 	C 	0.00083 0.22820 0.21830 0.00500
H 	H 	0.97350 0.21140 0.15980 0.01700
C 	C 	0.02955 0.21096 0.24640 -0.10400
H 	H 	0.02220 0.18200 0.20650 0.05100
C 	C 	0.06859 0.23631 0.33270 0.04300
H 	H 	0.08770 0.22400 0.35230 -0.01700
C 	C 	0.05370 0.29427 0.36160 0.04000
H 	H 	0.06230 0.32370 0.39990 0.01500
Ag	Ag	0.49364 0.48045 0.82622 0.48000
O 	O 	0.67309 0.66805 0.55753 -0.21200
N 	N 	0.53310 0.53936 0.67213 -0.19400
N 	N 	0.74780 0.61097 0.72393 -0.20000
C 	C 	0.51098 0.55299 0.57373 0.03400
H 	H 	0.47877 0.53643 0.57273 -0.01400
C 	C 	0.53337 0.59031 0.47373 -0.11400
H 	H 	0.51677 0.59913 0.40583 0.04700
C 	C 	0.58008 0.61442 0.47443 -0.00200
H 	H 	0.59607 0.64023 0.40813 0.04600
C 	C 	0.60332 0.60029 0.57353 -0.05900
C 	C 	0.57860 0.56266 0.67033 0.03100
H 	H 	0.59457 0.55303 0.73793 0.00100
C 	C 	0.65366 0.62725 0.58023 0.16700
C 	C 	0.68011 0.60412 0.61213 -0.06100
C 	C 	0.66750 0.56153 0.55163 0.00500
H 	H 	0.64017 0.54473 0.49313 0.01800
C 	C 	0.69622 0.54429 0.57973 -0.10400
H 	H 	0.68887 0.51533 0.53983 0.05100
C 	C 	0.73526 0.56964 0.66603 0.04300
H 	H 	0.75437 0.55733 0.68563 -0.01700
C 	C 	0.72037 0.62760 0.69493 0.04000
H 	H 	0.72897 0.65703 0.73323 0.01500
Ag	Ag	0.16031 0.81378 0.15956 0.48000
O 	O 	0.33975 0.00139 0.89087 -0.21200
N 	N 	0.19976 0.87270 0.00547 -0.19400
N 	N 	0.41446 0.94431 0.05727 -0.20000
C 	C 	0.17764 0.88633 0.90707 0.03400
H 	H 	0.14543 0.86977 0.90607 -0.01400
C 	C 	0.20003 0.92365 0.80707 -0.11400
H 	H 	0.18343 0.93247 0.73917 0.04700
C 	C 	0.24674 0.94776 0.80777 -0.00200
H 	H 	0.26273 0.97357 0.74147 0.04600
C 	C 	0.26998 0.93363 0.90687 -0.05900
C 	C 	0.24526 0.89600 0.00367 0.03100
H 	H 	0.26123 0.88637 0.07127 0.00100
C 	C 	0.32032 0.96059 0.91357 0.16700
C 	C 	0.34677 0.93746 0.94547 -0.06100
C 	C 	0.33416 0.89487 0.88497 0.00500
H 	H 	0.30683 0.87807 0.82647 0.01800
C 	C 	0.36288 0.87763 0.91307 -0.10400
H 	H 	0.35553 0.84867 0.87317 0.05100
C 	C 	0.40192 0.90298 0.99937 0.04400
H 	H 	0.42103 0.89067 0.01897 -0.01800
C 	C 	0.38703 0.96094 0.02827 0.04000
H 	H 	0.39563 0.99037 0.06657 0.01500
